
###############################################################################
#
# This file contains modified crystal structure data generated from the
# MOF subset of the Cambridge Structural Database (CSD) v543 
# hosted by the Cambridge Crystallographic Data Centre (CCDC).
#
# This work is licensed under the Creative Commons
# Attribution-NonCommercial-ShareAlike 4.0 International License.
# To view a copy of this license, visit
# http://creativecommons.org/licenses/by-nc-sa/4.0/
# or send a letter to
# Creative Commons, PO Box 1866, Mountain View, CA 94042, USA.
#
# CIF created using the CSD Python API on 29 September 2022
# The structure has been converted into the P1 space group
# The structure has a 3D framework
# The original CSD entry OCIYUW is in the rhombohedral crystal system
# The framework has been calculated to contain at least 10.0% void space
# The void calculation uses a probe of radius 1.32A, grid spacing 0.4
# The framework is charged, counterions have been retained in the structure
# H atom positions have been added when not included in the experimental data
#
###############################################################################

data_OCIYUW
_chemical_formula_moiety         '(C90 H108 Ag18 F114 N72 O18 P18)n'
_symmetry_cell_setting           triclinic
_symmetry_space_group_name_H-M   'P 1'
_symmetry_Int_Tables_number      1
_space_group_name_Hall           'P 1'
loop_
_symmetry_equiv_pos_site_id
_symmetry_equiv_pos_as_xyz
1 x,y,z
_cell_length_a                   26.0272(3)
_cell_length_b                   26.0272(3)
_cell_length_c                   11.0746(2)
_cell_angle_alpha                90
_cell_angle_beta                 90
_cell_angle_gamma                120
_cell_volume                     6497.01
loop_
_atom_site_label
_atom_site_type_symbol
_atom_site_fract_x
_atom_site_fract_y
_atom_site_fract_z
P1 P 0.43450(3) 0.32088(3) 0.77647(5)
F1 F 0.48859(8) 0.34220(9) 0.86690(15)
F2 F 0.37986(9) 0.30013(9) 0.68593(14)
F3 F 0.47478(10) 0.32509(14) 0.66672(17)
F4 F 0.44935(10) 0.38716(9) 0.7599(2)
F5 F 0.41750(12) 0.25411(9) 0.7951(2)
F6 F 0.39244(8) 0.31493(9) 0.88577(13)
P1_2 P 0.67912(3) 0.11362(4) 0.77647(5)
F1_2 F 0.65780(9) 0.14639(12) 0.86690(15)
F2_2 F 0.69987(9) 0.07973(13) 0.68593(14)
F3_2 F 0.67491(14) 0.14969(17) 0.66672(17)
F4_2 F 0.61284(9) 0.06219(13) 0.7599(2)
F5_2 F 0.74589(9) 0.16339(15) 0.7951(2)
F6_2 F 0.68507(9) 0.07751(12) 0.88577(13)
P1_3 P 0.88638(4) 0.56550(3) 0.77647(5)
F1_3 F 0.85361(12) 0.51141(8) 0.86690(15)
F2_3 F 0.92027(13) 0.62014(9) 0.68593(14)
F3_3 F 0.85031(17) 0.52522(10) 0.66672(17)
F4_3 F 0.93781(13) 0.55065(10) 0.7599(2)
F5_3 F 0.83661(15) 0.58250(12) 0.7951(2)
F6_3 F 0.92249(12) 0.60756(8) 0.88577(13)
P1_4 P 0.10117(3) 0.65421(3) 0.10980(5)
F1_4 F 0.15526(8) 0.67553(9) 0.20023(15)
F2_4 F 0.04653(9) 0.63346(9) 0.01926(14)
F3_4 F 0.14145(10) 0.65842(14) 0.00005(17)
F4_4 F 0.11602(10) 0.72049(9) 0.0932(2)
F5_4 F 0.08417(12) 0.58744(9) 0.1284(2)
F6_4 F 0.05911(8) 0.64826(9) 0.21910(13)
F3_5 F 0.14145(10) 0.65842(14) 1.00005(17)
P1_5 P 0.34579(3) 0.44695(4) 0.10980(5)
F1_5 F 0.32447(9) 0.47972(12) 0.20023(15)
F2_5 F 0.36654(9) 0.41306(13) 0.01926(14)
F3_6 F 0.34158(14) 0.48302(17) 0.00005(17)
F4_5 F 0.27951(9) 0.39552(13) 0.0932(2)
F5_5 F 0.41256(9) 0.49672(15) 0.1284(2)
F6_5 F 0.35174(9) 0.41084(12) 0.21910(13)
F3_7 F 0.34158(14) 0.48302(17) 1.00005(17)
P1_6 P 0.55305(4) 0.89883(3) 0.10980(5)
F1_6 F 0.52028(12) 0.84474(8) 0.20023(15)
F2_6 F 0.58694(13) 0.95347(9) 0.01926(14)
F3_8 F 0.51698(17) 0.85855(10) 0.00005(17)
F4_6 F 0.60448(13) 0.88398(10) 0.0932(2)
F5_6 F 0.50328(15) 0.91583(12) 0.1284(2)
F6_6 F 0.58916(12) 0.94089(8) 0.21910(13)
F3_9 F 0.51698(17) 0.85855(10) 1.00005(17)
F1_7 F 0.82192(8) 0.00887(9) 0.53357(15)
F4_7 F 0.78268(10) 0.05383(9) 0.4266(2)
P1_7 P 0.76783(3) 0.98755(3) 0.44314(5)
F2_7 F 0.71319(9) 0.96680(9) 0.35260(14)
F3_10 F 0.80811(10) 0.99176(14) 0.33339(17)
F5_7 F 0.75083(12) 0.92078(9) 0.4618(2)
F6_7 F 0.72577(8) 0.98160(9) 0.55244(13)
P1_8 P 0.01245(3) 0.78029(4) 0.44314(5)
F2_8 F 0.03320(9) 0.74640(13) 0.35260(14)
F3_11 F 0.00824(14) 0.81636(17) 0.33339(17)
F5_8 F 0.07922(9) 0.83006(15) 0.4618(2)
F6_8 F 0.01840(9) 0.74418(12) 0.55244(13)
F1_8 F 0.99113(9) 0.81306(12) 0.53357(15)
F4_8 F 0.94617(9) 0.72886(13) 0.4266(2)
P1_9 P 0.21971(4) 0.23217(3) 0.44314(5)
F1_9 F 0.18694(12) 0.17808(8) 0.53357(15)
F2_9 F 0.25360(13) 0.28681(9) 0.35260(14)
F3_12 F 0.18364(17) 0.19189(10) 0.33339(17)
F4_9 F 0.27114(13) 0.21732(10) 0.4266(2)
F5_9 F 0.16994(15) 0.24917(12) 0.4618(2)
F6_9 F 0.25582(12) 0.27423(8) 0.55244(13)
P1_10 P 0.56550(3) 0.67912(3) 0.22353(5)
F1_10 F 0.51141(8) 0.65780(9) 0.13310(15)
F2_10 F 0.62014(9) 0.69987(9) 0.31407(14)
F3_13 F 0.52522(10) 0.67491(14) 0.33328(17)
F4_10 F 0.55065(10) 0.61284(9) 0.2401(2)
F5_10 F 0.58250(12) 0.74589(9) 0.2049(2)
F6_10 F 0.60756(8) 0.68507(9) 0.11423(13)
P1_11 P 0.32088(3) 0.88638(4) 0.22353(5)
F1_11 F 0.34220(9) 0.85361(12) 0.13310(15)
F2_11 F 0.30013(9) 0.92027(13) 0.31407(14)
F3_14 F 0.32509(14) 0.85031(17) 0.33328(17)
F4_11 F 0.38716(9) 0.93781(13) 0.2401(2)
F5_11 F 0.25411(9) 0.83661(15) 0.2049(2)
F6_11 F 0.31493(9) 0.92249(12) 0.11423(13)
P1_12 P 0.11362(4) 0.43450(3) 0.22353(5)
F1_12 F 0.14639(12) 0.48859(8) 0.13310(15)
F2_12 F 0.07973(13) 0.37986(9) 0.31407(14)
F3_15 F 0.14969(17) 0.47478(10) 0.33328(17)
F4_12 F 0.06219(13) 0.44935(10) 0.2401(2)
F5_12 F 0.16339(15) 0.41750(12) 0.2049(2)
F6_12 F 0.07751(12) 0.39244(8) 0.11423(13)
F3_16 F 0.85855(10) 0.34158(14) -0.00005(17)
P1_13 P 0.89883(3) 0.34579(3) 0.89020(5)
F1_13 F 0.84474(8) 0.32447(9) 0.79977(15)
F2_13 F 0.95347(9) 0.36654(9) 0.98074(14)
F3_17 F 0.85855(10) 0.34158(14) 0.99995(17)
F4_13 F 0.88398(10) 0.27951(9) 0.9068(2)
F5_13 F 0.91583(12) 0.41256(9) 0.8716(2)
F6_13 F 0.94089(8) 0.35174(9) 0.78090(13)
F3_18 F 0.65842(14) 0.51698(17) -0.00005(17)
P1_14 P 0.65421(3) 0.55305(4) 0.89020(5)
F1_14 F 0.67553(9) 0.52028(12) 0.79977(15)
F2_14 F 0.63346(9) 0.58694(13) 0.98074(14)
F3_19 F 0.65842(14) 0.51698(17) 0.99995(17)
F4_14 F 0.72049(9) 0.60448(13) 0.9068(2)
F5_14 F 0.58744(9) 0.50328(15) 0.8716(2)
F6_14 F 0.64826(9) 0.58916(12) 0.78090(13)
F3_20 F 0.48302(17) 0.14145(10) -0.00005(17)
P1_15 P 0.44695(4) 0.10117(3) 0.89020(5)
F1_15 F 0.47972(12) 0.15526(8) 0.79977(15)
F2_15 F 0.41306(13) 0.04653(9) 0.98074(14)
F3_21 F 0.48302(17) 0.14145(10) 0.99995(17)
F4_15 F 0.39552(13) 0.11602(10) 0.9068(2)
F5_15 F 0.49672(15) 0.08417(12) 0.8716(2)
F6_15 F 0.41084(12) 0.05911(8) 0.78090(13)
P1_16 P 0.23217(3) 0.01245(3) 0.55686(5)
F2_16 F 0.28681(9) 0.03320(9) 0.64740(14)
F3_22 F 0.19189(10) 0.00824(14) 0.66661(17)
F5_16 F 0.24917(12) 0.07922(9) 0.5382(2)
F6_16 F 0.27423(8) 0.01840(9) 0.44756(13)
F1_16 F 0.17808(8) 0.99113(9) 0.46643(15)
F4_16 F 0.21732(10) 0.94617(9) 0.5734(2)
F1_17 F 0.00887(9) 0.18694(12) 0.46643(15)
F4_17 F 0.05383(9) 0.27114(13) 0.5734(2)
P1_17 P 0.98755(3) 0.21971(4) 0.55686(5)
F2_17 F 0.96680(9) 0.25360(13) 0.64740(14)
F3_23 F 0.99176(14) 0.18364(17) 0.66661(17)
F5_17 F 0.92078(9) 0.16994(15) 0.5382(2)
F6_17 F 0.98160(9) 0.25582(12) 0.44756(13)
P1_18 P 0.78029(4) 0.76783(3) 0.55686(5)
F1_18 F 0.81306(12) 0.82192(8) 0.46643(15)
F2_18 F 0.74640(13) 0.71319(9) 0.64740(14)
F3_24 F 0.81636(17) 0.80811(10) 0.66661(17)
F4_18 F 0.72886(13) 0.78268(10) 0.5734(2)
F5_18 F 0.83006(15) 0.75083(12) 0.5382(2)
F6_18 F 0.74418(12) 0.72577(8) 0.44756(13)
Ag1 Ag 0.446243(7) 0.461321(8) 0.574994(14)
N1 N 0.34357(10) 0.40716(8) 0.63649(16)
C1 C 0.32052(10) 0.38371(9) 0.74263(18)
H1 H 0.3433 0.3795 0.8050
N2 N 0.26278(8) 0.36622(8) 0.75619(14)
C2 C 0.24771(9) 0.37908(9) 0.65010(17)
N3 N 0.19488(8) 0.37029(8) 0.61433(15)
C3 C 0.19196(12) 0.38542(11) 0.5009(2)
H2 H 0.1550 0.3793 0.4718
C4 C 0.24050(12) 0.40990(12) 0.4221(2)
H3 H 0.2360 0.4196 0.3416
C5 C 0.29402(12) 0.41965(11) 0.46134(19)
H4 H 0.3281 0.4368 0.4108
N4 N 0.29612(9) 0.40343(8) 0.57665(15)
O1 O 0.4319(9) 0.5238(9) 0.4635(17)
Ag2 Ag 0.553757(7) 0.538679(8) 0.425006(14)
Ag3 Ag 0.205346(8) 0.318255(11) 0.908327(14)
Ag4 Ag 0.127988(8) 0.348411(11) 0.758339(14)
N5 N 0.43677(11) 0.40389(8) 0.42286(14)
N6 N 0.49126(11) 0.52821(8) 0.71900(15)
H5 H 0.417395 0.544953 0.515574
H6 H 0.469877 0.553041 0.424969
Ag2_2 Ag 0.461321(8) 0.015078(11) 0.425006(14)
N5_2 N 0.59611(8) 0.03289(14) 0.42286(14)
Ag1_2 Ag 0.538679(8) 0.984922(11) 0.574994(14)
N1_2 N 0.59284(8) 0.93641(13) 0.63649(16)
C1_2 C 0.61629(9) 0.93681(13) 0.74263(18)
H1_2 H 0.6205 0.9638 0.8050
N2_2 N 0.63378(8) 0.89656(11) 0.75619(14)
C2_2 C 0.62092(9) 0.86863(13) 0.65010(17)
N3_2 N 0.62971(8) 0.82459(11) 0.61433(15)
C3_2 C 0.61458(11) 0.80654(16) 0.5009(2)
H2_2 H 0.6207 0.7757 0.4718
C4_2 C 0.59010(12) 0.83060(17) 0.4221(2)
H3_2 H 0.5804 0.8164 0.3416
C5_2 C 0.58035(11) 0.87437(16) 0.46134(19)
H4_2 H 0.5632 0.8913 0.4108
N4_2 N 0.59657(8) 0.89269(12) 0.57665(15)
O1_2 O 0.4762(9) 0.9081(13) 0.4635(17)
Ag3_2 Ag 0.681745(11) 0.887090(14) 0.908327(14)
Ag4_2 Ag 0.651589(11) 0.779576(14) 0.758339(14)
N6_2 N 0.47179(8) 0.96304(14) 0.71900(15)
H5_2 H 0.455047 0.872442 0.515574
H6_2 H 0.446959 0.916837 0.424969
Ag1_3 Ag 0.015078(11) 0.553757(7) 0.574994(14)
N1_3 N 0.06359(13) 0.65643(10) 0.63649(16)
C1_3 C 0.06319(13) 0.67948(10) 0.74263(18)
H1_3 H 0.0362 0.6567 0.8050
N2_3 N 0.10344(11) 0.73722(8) 0.75619(14)
C2_3 C 0.13137(13) 0.75229(9) 0.65010(17)
N3_3 N 0.17541(11) 0.80512(8) 0.61433(15)
C3_3 C 0.19346(16) 0.80804(12) 0.5009(2)
H2_3 H 0.2243 0.8450 0.4718
C4_3 C 0.16940(17) 0.75950(12) 0.4221(2)
H3_3 H 0.1836 0.7640 0.3416
C5_3 C 0.12563(16) 0.70598(12) 0.46134(19)
H4_3 H 0.1087 0.6719 0.4108
N4_3 N 0.10731(12) 0.70388(9) 0.57665(15)
O1_3 O 0.0919(13) 0.5681(9) 0.4635(17)
Ag3_3 Ag 0.112910(14) 0.794654(8) 0.908327(14)
Ag4_3 Ag 0.220424(14) 0.872012(8) 0.758339(14)
N6_3 N 0.03696(14) 0.50874(11) 0.71900(15)
H5_3 H 0.127558 0.582605 0.515574
H6_3 H 0.0831632 0.530123 0.424969
Ag2_3 Ag 0.984922(11) 0.446243(7) 0.425006(14)
N5_3 N 0.96711(14) 0.56323(11) 0.42286(14)
N1_4 N 0.01024(10) 0.74049(8) 0.96982(16)
O1_4 O 0.0986(9) 0.8571(9) 0.7968(17)
H5_4 H 0.084062 0.878286 0.848907
H6_4 H 0.136544 0.886374 0.758302
C1_4 C 0.98719(10) 0.71704(9) 0.07596(18)
N2_4 N 0.92945(8) 0.69955(8) 0.08952(14)
Ag3_4 Ag 0.872012(8) 0.651589(11) 0.241661(14)
Ag4_4 Ag 0.794654(8) 0.681745(11) 0.091673(14)
C2_4 C 0.91438(9) 0.71241(9) 0.98343(17)
N3_4 N 0.86155(8) 0.70362(8) 0.94766(15)
C3_4 C 0.85863(12) 0.71875(11) 0.8342(2)
H2_4 H 0.8217 0.7126 0.8051
C4_4 C 0.90717(12) 0.74323(12) 0.7554(2)
H3_4 H 0.9027 0.7529 0.6749
C5_4 C 0.96069(12) 0.75298(11) 0.79467(19)
H4_4 H 0.9948 0.7701 0.7441
N4_4 N 0.96279(9) 0.73676(8) 0.90998(15)
C1_5 C 0.28296(9) 0.27014(13) 0.07596(18)
H1_4 H 0.2872 0.2971 0.1383
N2_5 N 0.30045(8) 0.22989(11) 0.08952(14)
Ag3_5 Ag 0.348411(11) 0.220424(14) 0.241661(14)
Ag4_5 Ag 0.318255(11) 0.112910(14) 0.091673(14)
N6_4 N 0.13845(8) 0.29638(14) 0.05234(15)
N1_5 N 0.25951(8) 0.26974(13) 0.96982(16)
C2_5 C 0.28759(9) 0.20196(13) 0.98343(17)
N3_5 N 0.29638(8) 0.15792(11) 0.94766(15)
C3_5 C 0.28125(11) 0.13987(16) 0.8342(2)
H2_5 H 0.2874 0.1090 0.8051
C4_5 C 0.25677(12) 0.16393(17) 0.7554(2)
H3_5 H 0.2471 0.1497 0.6749
C5_5 C 0.24702(11) 0.20770(16) 0.79467(19)
H4_5 H 0.2299 0.2246 0.7441
N4_5 N 0.26324(8) 0.22602(12) 0.90998(15)
O1_5 O 0.1429(9) 0.2414(13) 0.7968(17)
H5_5 H 0.121714 0.205776 0.848907
H6_5 H 0.113626 0.25017 0.758302
C1_6 C 0.72986(13) 0.01281(10) 0.07596(18)
N2_6 N 0.77011(11) 0.07055(8) 0.08952(14)
Ag3_6 Ag 0.779576(14) 0.127988(8) 0.241661(14)
Ag4_6 Ag 0.887090(14) 0.205346(8) 0.091673(14)
H1_5 H 0.7029 0.9900 0.1383
N6_5 N 0.70362(14) 0.84208(11) 0.05234(15)
N1_6 N 0.73026(13) 0.98976(10) 0.96982(16)
O1_6 O 0.7586(13) 0.9014(9) 0.7968(17)
H5_6 H 0.794224 0.915938 0.848907
H6_6 H 0.74983 0.863456 0.758302
N1_7 N 0.67690(10) 0.07383(8) 0.30316(16)
C1_7 C 0.65385(10) 0.05038(9) 0.40930(18)
H1_6 H 0.6766 0.0462 0.4717
C2_6 C 0.58104(9) 0.04575(9) 0.31677(17)
N3_6 N 0.52821(8) 0.03696(8) 0.28100(15)
C3_6 C 0.52529(12) 0.05209(11) 0.1676(2)
H2_6 H 0.4883 0.0460 0.1385
C4_6 C 0.57383(12) 0.07657(12) 0.0888(2)
H3_6 H 0.5693 0.0863 0.0083
C5_6 C 0.62735(12) 0.08632(11) 0.12801(19)
H4_6 H 0.6614 0.1035 0.0775
N4_6 N 0.62945(9) 0.07010(8) 0.24332(15)
O1_7 O 0.7652(9) 0.1905(9) 0.1302(17)
N6_6 N 0.82459(11) 0.19488(8) 0.38567(15)
H5_7 H 0.750729 0.21162 0.18224
H6_7 H 0.803211 0.219707 0.0916355
N1_8 N 0.92617(8) 0.60308(13) 0.30316(16)
C1_8 C 0.94962(9) 0.60348(13) 0.40930(18)
H1_7 H 0.9538 0.6305 0.4717
C2_7 C 0.95425(9) 0.53530(13) 0.31677(17)
N3_7 N 0.96304(8) 0.49126(11) 0.28100(15)
C3_7 C 0.94791(11) 0.47321(16) 0.1676(2)
H2_7 H 0.9540 0.4424 0.1385
C4_7 C 0.92343(12) 0.49727(17) 0.0888(2)
H3_7 H 0.9137 0.4831 0.0083
C5_7 C 0.91368(11) 0.54104(16) 0.12801(19)
H4_7 H 0.8965 0.5580 0.0775
N4_7 N 0.92990(8) 0.55936(12) 0.24332(15)
O1_8 O 0.8095(9) 0.5748(13) 0.1302(17)
N6_7 N 0.80512(8) 0.62971(14) 0.38567(15)
H5_8 H 0.78838 0.539109 0.18224
H6_8 H 0.780293 0.583503 0.0916355
N1_9 N 0.39692(13) 0.32310(10) 0.30316(16)
C1_9 C 0.39652(13) 0.34615(10) 0.40930(18)
H1_8 H 0.3695 0.3234 0.4717
C2_8 C 0.46470(13) 0.41896(9) 0.31677(17)
N3_8 N 0.50874(11) 0.47179(8) 0.28100(15)
C3_8 C 0.52679(16) 0.47471(12) 0.1676(2)
H2_8 H 0.5576 0.5117 0.1385
C4_8 C 0.50273(17) 0.42617(12) 0.0888(2)
H3_8 H 0.5169 0.4307 0.0083
C5_8 C 0.45896(16) 0.37265(12) 0.12801(19)
H4_8 H 0.4420 0.3386 0.0775
N4_8 N 0.44064(12) 0.37055(9) 0.24332(15)
O1_9 O 0.4252(13) 0.2348(9) 0.1302(17)
N6_8 N 0.37029(14) 0.17541(11) 0.38567(15)
H5_9 H 0.460891 0.249271 0.18224
H6_9 H 0.416497 0.196789 0.0916355
N1_10 N 0.65643(10) 0.59284(8) 0.36351(16)
C1_10 C 0.67948(10) 0.61629(9) 0.25737(18)
H1_9 H 0.6567 0.6205 0.1950
N2_7 N 0.73722(8) 0.63378(8) 0.24381(14)
C2_9 C 0.75229(9) 0.62092(9) 0.34990(17)
C3_9 C 0.80804(12) 0.61458(11) 0.4991(2)
H2_9 H 0.8450 0.6207 0.5282
C4_9 C 0.75950(12) 0.59010(12) 0.5779(2)
H3_9 H 0.7640 0.5804 0.6584
C5_9 C 0.70598(12) 0.58035(11) 0.53866(19)
H4_9 H 0.6719 0.5632 0.5892
N4_9 N 0.70388(9) 0.59657(8) 0.42335(15)
O1_10 O 0.5681(9) 0.4762(9) 0.5365(17)
N5_4 N 0.56323(11) 0.59611(8) 0.57714(14)
H5_10 H 0.582605 0.455047 0.484426
H6_10 H 0.530123 0.446959 0.575031
N1_11 N 0.40716(8) 0.06359(13) 0.36351(16)
C1_11 C 0.38371(9) 0.06319(13) 0.25737(18)
H1_10 H 0.3795 0.0362 0.1950
N2_8 N 0.36622(8) 0.10344(11) 0.24381(14)
C2_10 C 0.37908(9) 0.13137(13) 0.34990(17)
C3_10 C 0.38542(11) 0.19346(16) 0.4991(2)
H2_10 H 0.3793 0.2243 0.5282
C4_10 C 0.40990(12) 0.16940(17) 0.5779(2)
H3_10 H 0.4196 0.1836 0.6584
C5_10 C 0.41965(11) 0.12563(16) 0.53866(19)
H4_10 H 0.4368 0.1087 0.5892
N4_10 N 0.40343(8) 0.10731(12) 0.42335(15)
O1_11 O 0.5238(9) 0.0919(13) 0.5365(17)
H5_11 H 0.544953 0.127558 0.484426
H6_11 H 0.553041 0.0831632 0.575031
N5_5 N 0.40389(8) 0.96711(14) 0.57714(14)
N5_6 N 0.03289(14) 0.43677(11) 0.57714(14)
N1_12 N 0.93641(13) 0.34357(10) 0.36351(16)
C1_12 C 0.93681(13) 0.32052(10) 0.25737(18)
H1_11 H 0.9638 0.3433 0.1950
N2_9 N 0.89656(11) 0.26278(8) 0.24381(14)
C2_11 C 0.86863(13) 0.24771(9) 0.34990(17)
C3_11 C 0.80654(16) 0.19196(12) 0.4991(2)
H2_11 H 0.7757 0.1550 0.5282
C4_11 C 0.83060(17) 0.24050(12) 0.5779(2)
H3_11 H 0.8164 0.2360 0.6584
C5_11 C 0.87437(16) 0.29402(12) 0.53866(19)
H4_11 H 0.8913 0.3281 0.5892
N4_11 N 0.89269(12) 0.29612(9) 0.42335(15)
O1_12 O 0.9081(13) 0.4319(9) 0.5365(17)
H5_12 H 0.872442 0.417395 0.484426
H6_12 H 0.916837 0.469877 0.575031
C2_12 C 0.08562(9) 0.28759(9) 0.01657(17)
C3_12 C 0.14137(12) 0.28125(11) 0.1658(2)
H2_12 H 0.1783 0.2874 0.1949
C4_12 C 0.09283(12) 0.25677(12) 0.2446(2)
H3_12 H 0.0973 0.2471 0.3251
C5_12 C 0.03931(12) 0.24702(11) 0.20533(19)
H4_12 H 0.0052 0.2299 0.2559
N4_12 N 0.03721(9) 0.26324(8) 0.09002(15)
C1_13 C 0.01281(10) 0.28296(9) 0.92404(18)
N2_10 N 0.07055(8) 0.30045(8) 0.91048(14)
N1_13 N 0.98976(10) 0.25951(8) 0.03018(16)
O1_13 O 0.9014(9) 0.1429(9) 0.2032(17)
H5_13 H 0.915938 0.121714 0.151093
H6_13 H 0.863456 0.113626 0.241698
N1_14 N 0.74049(8) 0.73026(13) 0.03018(16)
C2_13 C 0.71241(9) 0.79804(13) 0.01657(17)
C3_13 C 0.71875(11) 0.86013(16) 0.1658(2)
H2_13 H 0.7126 0.8910 0.1949
C4_13 C 0.74323(12) 0.83607(17) 0.2446(2)
H3_13 H 0.7529 0.8503 0.3251
C5_13 C 0.75298(11) 0.79230(16) 0.20533(19)
H4_13 H 0.7701 0.7754 0.2559
N4_13 N 0.73676(8) 0.77398(12) 0.09002(15)
O1_14 O 0.8571(9) 0.7586(13) 0.2032(17)
H5_14 H 0.878286 0.794224 0.151093
H6_14 H 0.886374 0.74983 0.241698
C1_14 C 0.71704(9) 0.72986(13) 0.92404(18)
H1_12 H 0.7128 0.7029 0.8617
N2_11 N 0.69955(8) 0.77011(11) 0.91048(14)
N1_15 N 0.26974(13) 0.01024(10) 0.03018(16)
O1_15 O 0.2414(13) 0.0986(9) 0.2032(17)
H5_15 H 0.205776 0.084062 0.151093
H6_15 H 0.25017 0.136544 0.241698
H1_13 H 0.2971 0.0100 0.8617
C1_15 C 0.27014(13) 0.98719(10) 0.92404(18)
N2_12 N 0.22989(11) 0.92945(8) 0.91048(14)
N1_16 N 0.32310(10) 0.92617(8) 0.69684(16)
C1_16 C 0.34615(10) 0.94962(9) 0.59070(18)
H1_14 H 0.3234 0.9538 0.5283
C2_14 C 0.41896(9) 0.95425(9) 0.68323(17)
C3_14 C 0.47471(12) 0.94791(11) 0.8324(2)
H2_14 H 0.5117 0.9540 0.8615
C4_14 C 0.42617(12) 0.92343(12) 0.9112(2)
H3_14 H 0.4307 0.9137 0.9917
C5_14 C 0.37265(12) 0.91368(11) 0.87199(19)
H4_14 H 0.3386 0.8965 0.9225
N4_14 N 0.37055(9) 0.92990(8) 0.75668(15)
O1_16 O 0.2348(9) 0.8095(9) 0.8698(17)
H5_16 H 0.249271 0.78838 0.81776
H6_16 H 0.196789 0.780293 0.908364
N1_17 N 0.07383(8) 0.39692(13) 0.69684(16)
C1_17 C 0.05038(9) 0.39652(13) 0.59070(18)
H1_15 H 0.0462 0.3695 0.5283
C2_15 C 0.04575(9) 0.46470(13) 0.68323(17)
C3_15 C 0.05209(11) 0.52679(16) 0.8324(2)
H2_15 H 0.0460 0.5576 0.8615
C4_15 C 0.07657(12) 0.50273(17) 0.9112(2)
H3_15 H 0.0863 0.5169 0.9917
C5_15 C 0.08632(11) 0.45896(16) 0.87199(19)
H4_15 H 0.1035 0.4420 0.9225
N4_15 N 0.07010(8) 0.44064(12) 0.75668(15)
O1_17 O 0.1905(9) 0.4252(13) 0.8698(17)
H5_17 H 0.21162 0.460891 0.81776
H6_17 H 0.219707 0.416497 0.908364
N1_18 N 0.60308(13) 0.67690(10) 0.69684(16)
C1_18 C 0.60348(13) 0.65385(10) 0.59070(18)
H1_16 H 0.6305 0.6766 0.5283
C2_16 C 0.53530(13) 0.58104(9) 0.68323(17)
C3_16 C 0.47321(16) 0.52529(12) 0.8324(2)
H2_16 H 0.4424 0.4883 0.8615
C4_16 C 0.49727(17) 0.57383(12) 0.9112(2)
H3_16 H 0.4831 0.5693 0.9917
C5_16 C 0.54104(16) 0.62735(12) 0.87199(19)
H4_16 H 0.5580 0.6614 0.9225
N4_16 N 0.55936(12) 0.62945(9) 0.75668(15)
O1_18 O 0.5748(13) 0.7652(9) 0.8698(17)
H5_18 H 0.539109 0.750729 0.81776
H6_18 H 0.583503 0.803211 0.908364
H1_17 H 0.0100 0.7128 0.1383
N6_9 N 0.15792(11) 0.86155(8) 0.05234(15)
C2_17 C 0.20196(13) 0.91438(9) 0.01657(17)
C3_17 C 0.13987(16) 0.85863(12) 0.1658(2)
H2_17 H 0.1090 0.8217 0.1949
C4_17 C 0.16393(17) 0.90717(12) 0.2446(2)
H3_17 H 0.1497 0.9027 0.3251
C5_17 C 0.20770(16) 0.96069(12) 0.20533(19)
H4_17 H 0.2246 0.9948 0.2559
N4_17 N 0.22602(12) 0.96279(9) 0.09002(15)
C2_18 C 0.79804(13) 0.08562(9) 0.98343(17)
N3_9 N 0.84208(11) 0.13845(8) 0.94766(15)
C3_18 C 0.86013(16) 0.14137(12) 0.8342(2)
H2_18 H 0.8910 0.1783 0.8051
C4_18 C 0.83607(17) 0.09283(12) 0.7554(2)
H3_18 H 0.8503 0.0973 0.6749
C5_18 C 0.79230(16) 0.03931(12) 0.79467(19)
H4_18 H 0.7754 0.0052 0.7441
N4_18 N 0.77398(12) 0.03721(9) 0.90998(15)
H1_18 H 0.9900 0.2872 0.8617
loop_
_geom_bond_atom_site_label_1
_geom_bond_atom_site_label_2
_geom_bond_site_symmetry_1
_geom_bond_site_symmetry_2
P1 F1 1_555 1_555
F2 P1 1_555 1_555
F3 P1 1_555 1_555
F4 P1 1_555 1_555
F5 P1 1_555 1_555
F6 P1 1_555 1_555
P1_2 F1_2 1_555 1_555
F2_2 P1_2 1_555 1_555
F3_2 P1_2 1_555 1_555
F4_2 P1_2 1_555 1_555
F5_2 P1_2 1_555 1_555
F6_2 P1_2 1_555 1_555
P1_3 F1_3 1_555 1_555
F2_3 P1_3 1_555 1_555
F3_3 P1_3 1_555 1_555
F4_3 P1_3 1_555 1_555
F5_3 P1_3 1_555 1_555
F6_3 P1_3 1_555 1_555
P1_4 F1_4 1_555 1_555
F2_4 P1_4 1_555 1_555
F3_4 P1_4 1_555 1_555
F4_4 P1_4 1_555 1_555
F5_4 P1_4 1_555 1_555
F6_4 P1_4 1_555 1_555
P1_5 F1_5 1_555 1_555
F2_5 P1_5 1_555 1_555
F3_6 P1_5 1_555 1_555
F4_5 P1_5 1_555 1_555
F5_5 P1_5 1_555 1_555
F6_5 P1_5 1_555 1_555
P1_6 F1_6 1_555 1_555
F2_6 P1_6 1_555 1_555
F3_8 P1_6 1_555 1_555
F4_6 P1_6 1_555 1_555
F5_6 P1_6 1_555 1_555
F6_6 P1_6 1_555 1_555
F2_7 P1_7 1_555 1_555
F3_10 P1_7 1_555 1_555
F5_7 P1_7 1_555 1_555
F6_7 P1_7 1_555 1_555
F2_8 P1_8 1_555 1_555
F3_11 P1_8 1_555 1_555
F5_8 P1_8 1_555 1_555
F6_8 P1_8 1_555 1_555
P1_9 F1_9 1_555 1_555
F2_9 P1_9 1_555 1_555
F3_12 P1_9 1_555 1_555
F4_9 P1_9 1_555 1_555
F5_9 P1_9 1_555 1_555
F6_9 P1_9 1_555 1_555
P1_10 F1_10 1_555 1_555
F2_10 P1_10 1_555 1_555
F3_13 P1_10 1_555 1_555
F4_10 P1_10 1_555 1_555
F5_10 P1_10 1_555 1_555
F6_10 P1_10 1_555 1_555
P1_11 F1_11 1_555 1_555
F2_11 P1_11 1_555 1_555
F3_14 P1_11 1_555 1_555
F4_11 P1_11 1_555 1_555
F5_11 P1_11 1_555 1_555
F6_11 P1_11 1_555 1_555
P1_12 F1_12 1_555 1_555
F2_12 P1_12 1_555 1_555
F3_15 P1_12 1_555 1_555
F4_12 P1_12 1_555 1_555
F5_12 P1_12 1_555 1_555
F6_12 P1_12 1_555 1_555
P1_13 F1_13 1_555 1_555
F2_13 P1_13 1_555 1_555
F3_17 P1_13 1_555 1_555
F4_13 P1_13 1_555 1_555
F5_13 P1_13 1_555 1_555
F6_13 P1_13 1_555 1_555
P1_14 F1_14 1_555 1_555
F2_14 P1_14 1_555 1_555
F3_19 P1_14 1_555 1_555
F4_14 P1_14 1_555 1_555
F5_14 P1_14 1_555 1_555
F6_14 P1_14 1_555 1_555
P1_15 F1_15 1_555 1_555
F2_15 P1_15 1_555 1_555
F3_21 P1_15 1_555 1_555
F4_15 P1_15 1_555 1_555
F5_15 P1_15 1_555 1_555
F6_15 P1_15 1_555 1_555
F2_16 P1_16 1_555 1_555
F3_22 P1_16 1_555 1_555
F5_16 P1_16 1_555 1_555
F6_16 P1_16 1_555 1_555
F2_17 P1_17 1_555 1_555
F3_23 P1_17 1_555 1_555
F5_17 P1_17 1_555 1_555
F6_17 P1_17 1_555 1_555
P1_18 F1_18 1_555 1_555
F2_18 P1_18 1_555 1_555
F3_24 P1_18 1_555 1_555
F4_18 P1_18 1_555 1_555
F5_18 P1_18 1_555 1_555
F6_18 P1_18 1_555 1_555
Ag1 N1 1_555 1_555
N1 C1 1_555 1_555
C1 H1 1_555 1_555
N2 C1 1_555 1_555
C2 N2 1_555 1_555
N3 C2 1_555 1_555
C3 N3 1_555 1_555
H2 C3 1_555 1_555
C4 C3 1_555 1_555
H3 C4 1_555 1_555
C5 C4 1_555 1_555
H4 C5 1_555 1_555
N4 N1 1_555 1_555
O1 Ag1 1_555 1_555
Ag2 Ag1 1_555 1_555
Ag3 N2 1_555 1_555
Ag4 N3 1_555 1_555
N5 Ag1 1_555 1_555
N6 Ag1 1_555 1_555
C2 N4 1_555 1_555
C5 N4 1_555 1_555
Ag3 Ag4 1_555 1_555
O1 H5 1_555 1_555
O1 H6 1_555 1_555
Ag1_2 N1_2 1_555 1_555
N1_2 C1_2 1_555 1_555
C1_2 H1_2 1_555 1_555
N2_2 C1_2 1_555 1_555
C2_2 N2_2 1_555 1_555
N3_2 C2_2 1_555 1_555
C3_2 N3_2 1_555 1_555
H2_2 C3_2 1_555 1_555
C4_2 C3_2 1_555 1_555
H3_2 C4_2 1_555 1_555
C5_2 C4_2 1_555 1_555
H4_2 C5_2 1_555 1_555
N4_2 N1_2 1_555 1_555
O1_2 Ag1_2 1_555 1_555
Ag3_2 N2_2 1_555 1_555
Ag4_2 N3_2 1_555 1_555
N6_2 Ag1_2 1_555 1_555
C2_2 N4_2 1_555 1_555
C5_2 N4_2 1_555 1_555
Ag3_2 Ag4_2 1_555 1_555
O1_2 H5_2 1_555 1_555
O1_2 H6_2 1_555 1_555
Ag1_3 N1_3 1_555 1_555
N1_3 C1_3 1_555 1_555
C1_3 H1_3 1_555 1_555
N2_3 C1_3 1_555 1_555
C2_3 N2_3 1_555 1_555
N3_3 C2_3 1_555 1_555
C3_3 N3_3 1_555 1_555
H2_3 C3_3 1_555 1_555
C4_3 C3_3 1_555 1_555
H3_3 C4_3 1_555 1_555
C5_3 C4_3 1_555 1_555
H4_3 C5_3 1_555 1_555
N4_3 N1_3 1_555 1_555
O1_3 Ag1_3 1_555 1_555
Ag3_3 N2_3 1_555 1_555
Ag4_3 N3_3 1_555 1_555
N6_3 Ag1_3 1_555 1_555
C2_3 N4_3 1_555 1_555
C5_3 N4_3 1_555 1_555
Ag3_3 Ag4_3 1_555 1_555
O1_3 H5_3 1_555 1_555
O1_3 H6_3 1_555 1_555
Ag3_3 N1_4 1_555 1_555
O1_4 Ag3_3 1_555 1_555
O1_4 H5_4 1_555 1_555
O1_4 H6_4 1_555 1_555
N2_4 C1_4 1_555 1_555
Ag3_4 N2_4 1_555 1_555
Ag3_4 Ag4_4 1_555 1_555
N3_4 C2_4 1_555 1_555
C3_4 N3_4 1_555 1_555
H2_4 C3_4 1_555 1_555
C4_4 C3_4 1_555 1_555
H3_4 C4_4 1_555 1_555
C5_4 C4_4 1_555 1_555
H4_4 C5_4 1_555 1_555
C2_4 N4_4 1_555 1_555
C5_4 N4_4 1_555 1_555
C1_5 H1_4 1_555 1_555
N2_5 C1_5 1_555 1_555
Ag3_5 N2_5 1_555 1_555
Ag3_5 Ag4_5 1_555 1_555
Ag3 N1_5 1_555 1_555
N3_5 C2_5 1_555 1_555
C3_5 N3_5 1_555 1_555
H2_5 C3_5 1_555 1_555
C4_5 C3_5 1_555 1_555
H3_5 C4_5 1_555 1_555
C5_5 C4_5 1_555 1_555
H4_5 C5_5 1_555 1_555
N4_5 N1_5 1_555 1_555
O1_5 Ag3 1_555 1_555
C2_5 N4_5 1_555 1_555
C5_5 N4_5 1_555 1_555
O1_5 H5_5 1_555 1_555
O1_5 H6_5 1_555 1_555
N2_6 C1_6 1_555 1_555
Ag3_6 N2_6 1_555 1_555
Ag3_6 Ag4_6 1_555 1_555
Ag3_2 N1_6 1_555 1_555
O1_6 Ag3_2 1_555 1_555
O1_6 H5_6 1_555 1_555
O1_6 H6_6 1_555 1_555
Ag3_6 N1_7 1_555 1_555
N1_7 C1_7 1_555 1_555
C1_7 H1_6 1_555 1_555
N5_2 C1_7 1_555 1_555
C2_6 N5_2 1_555 1_555
N3_6 C2_6 1_555 1_555
C3_6 N3_6 1_555 1_555
H2_6 C3_6 1_555 1_555
C4_6 C3_6 1_555 1_555
H3_6 C4_6 1_555 1_555
C5_6 C4_6 1_555 1_555
H4_6 C5_6 1_555 1_555
N4_6 N1_7 1_555 1_555
O1_7 Ag3_6 1_555 1_555
Ag2_2 N3_6 1_555 1_555
N6_6 Ag3_6 1_555 1_555
C2_6 N4_6 1_555 1_555
C5_6 N4_6 1_555 1_555
O1_7 H5_7 1_555 1_555
O1_7 H6_7 1_555 1_555
Ag3_4 N1_8 1_555 1_555
N1_8 C1_8 1_555 1_555
C1_8 H1_7 1_555 1_555
N5_3 C1_8 1_555 1_555
C2_7 N5_3 1_555 1_555
N3_7 C2_7 1_555 1_555
C3_7 N3_7 1_555 1_555
H2_7 C3_7 1_555 1_555
C4_7 C3_7 1_555 1_555
H3_7 C4_7 1_555 1_555
C5_7 C4_7 1_555 1_555
H4_7 C5_7 1_555 1_555
N4_7 N1_8 1_555 1_555
O1_8 Ag3_4 1_555 1_555
Ag2_3 N3_7 1_555 1_555
N6_7 Ag3_4 1_555 1_555
C2_7 N4_7 1_555 1_555
C5_7 N4_7 1_555 1_555
O1_8 H5_8 1_555 1_555
O1_8 H6_8 1_555 1_555
Ag3_5 N1_9 1_555 1_555
N1_9 C1_9 1_555 1_555
C1_9 H1_8 1_555 1_555
N5 C1_9 1_555 1_555
C2_8 N5 1_555 1_555
N3_8 C2_8 1_555 1_555
C3_8 N3_8 1_555 1_555
H2_8 C3_8 1_555 1_555
C4_8 C3_8 1_555 1_555
H3_8 C4_8 1_555 1_555
C5_8 C4_8 1_555 1_555
H4_8 C5_8 1_555 1_555
N4_8 N1_9 1_555 1_555
O1_9 Ag3_5 1_555 1_555
Ag2 N3_8 1_555 1_555
N6_8 Ag3_5 1_555 1_555
C2_8 N4_8 1_555 1_555
C5_8 N4_8 1_555 1_555
O1_9 H5_9 1_555 1_555
O1_9 H6_9 1_555 1_555
Ag2 N1_10 1_555 1_555
N1_10 C1_10 1_555 1_555
C1_10 H1_9 1_555 1_555
N2_7 C1_10 1_555 1_555
C2_9 N2_7 1_555 1_555
N6_7 C2_9 1_555 1_555
C3_9 N6_7 1_555 1_555
H2_9 C3_9 1_555 1_555
C4_9 C3_9 1_555 1_555
H3_9 C4_9 1_555 1_555
C5_9 C4_9 1_555 1_555
H4_9 C5_9 1_555 1_555
N4_9 N1_10 1_555 1_555
O1_10 Ag2 1_555 1_555
Ag4_4 N2_7 1_555 1_555
N5_4 Ag2 1_555 1_555
C2_9 N4_9 1_555 1_555
C5_9 N4_9 1_555 1_555
O1_10 H5_10 1_555 1_555
O1_10 H6_10 1_555 1_555
Ag2_2 N1_11 1_555 1_555
N1_11 C1_11 1_555 1_555
C1_11 H1_10 1_555 1_555
N2_8 C1_11 1_555 1_555
C2_10 N2_8 1_555 1_555
N6_8 C2_10 1_555 1_555
C3_10 N6_8 1_555 1_555
H2_10 C3_10 1_555 1_555
C4_10 C3_10 1_555 1_555
H3_10 C4_10 1_555 1_555
C5_10 C4_10 1_555 1_555
H4_10 C5_10 1_555 1_555
N4_10 N1_11 1_555 1_555
O1_11 Ag2_2 1_555 1_555
Ag4_5 N2_8 1_555 1_555
C2_10 N4_10 1_555 1_555
C5_10 N4_10 1_555 1_555
O1_11 H5_11 1_555 1_555
O1_11 H6_11 1_555 1_555
Ag2_3 N1_12 1_555 1_555
N1_12 C1_12 1_555 1_555
C1_12 H1_11 1_555 1_555
N2_9 C1_12 1_555 1_555
C2_11 N2_9 1_555 1_555
N6_6 C2_11 1_555 1_555
C3_11 N6_6 1_555 1_555
H2_11 C3_11 1_555 1_555
C4_11 C3_11 1_555 1_555
H3_11 C4_11 1_555 1_555
C5_11 C4_11 1_555 1_555
H4_11 C5_11 1_555 1_555
N4_11 N1_12 1_555 1_555
O1_12 Ag2_3 1_555 1_555
Ag4_6 N2_9 1_555 1_555
C2_11 N4_11 1_555 1_555
C5_11 N4_11 1_555 1_555
O1_12 H5_12 1_555 1_555
O1_12 H6_12 1_555 1_555
N6_4 C2_12 1_555 1_555
C3_12 N6_4 1_555 1_555
H2_12 C3_12 1_555 1_555
C4_12 C3_12 1_555 1_555
H3_12 C4_12 1_555 1_555
C5_12 C4_12 1_555 1_555
H4_12 C5_12 1_555 1_555
C2_12 N4_12 1_555 1_555
C5_12 N4_12 1_555 1_555
N2_10 C1_13 1_555 1_555
Ag4 N2_10 1_555 1_555
Ag4_6 N1_13 1_555 1_555
O1_13 Ag4_6 1_555 1_555
O1_13 H5_13 1_555 1_555
O1_13 H6_13 1_555 1_555
Ag4_4 N1_14 1_555 1_555
N6_5 C2_13 1_555 1_555
C3_13 N6_5 1_555 1_555
H2_13 C3_13 1_555 1_555
C4_13 C3_13 1_555 1_555
H3_13 C4_13 1_555 1_555
C5_13 C4_13 1_555 1_555
H4_13 C5_13 1_555 1_555
N4_13 N1_14 1_555 1_555
O1_14 Ag4_4 1_555 1_555
C2_13 N4_13 1_555 1_555
C5_13 N4_13 1_555 1_555
O1_14 H5_14 1_555 1_555
O1_14 H6_14 1_555 1_555
C1_14 H1_12 1_555 1_555
N2_11 C1_14 1_555 1_555
Ag4_2 N2_11 1_555 1_555
Ag4_5 N1_15 1_555 1_555
O1_15 Ag4_5 1_555 1_555
O1_15 H5_15 1_555 1_555
O1_15 H6_15 1_555 1_555
N2_12 C1_15 1_555 1_555
Ag4_3 N2_12 1_555 1_555
Ag4_3 N1_16 1_555 1_555
N1_16 C1_16 1_555 1_555
C1_16 H1_14 1_555 1_555
N5_5 C1_16 1_555 1_555
C2_14 N5_5 1_555 1_555
N6_2 C2_14 1_555 1_555
C3_14 N6_2 1_555 1_555
H2_14 C3_14 1_555 1_555
C4_14 C3_14 1_555 1_555
H3_14 C4_14 1_555 1_555
C5_14 C4_14 1_555 1_555
H4_14 C5_14 1_555 1_555
N4_14 N1_16 1_555 1_555
O1_16 Ag4_3 1_555 1_555
C2_14 N4_14 1_555 1_555
C5_14 N4_14 1_555 1_555
O1_16 H5_16 1_555 1_555
O1_16 H6_16 1_555 1_555
Ag4 N1_17 1_555 1_555
N1_17 C1_17 1_555 1_555
C1_17 H1_15 1_555 1_555
N5_6 C1_17 1_555 1_555
C2_15 N5_6 1_555 1_555
N6_3 C2_15 1_555 1_555
C3_15 N6_3 1_555 1_555
H2_15 C3_15 1_555 1_555
C4_15 C3_15 1_555 1_555
H3_15 C4_15 1_555 1_555
C5_15 C4_15 1_555 1_555
H4_15 C5_15 1_555 1_555
N4_15 N1_17 1_555 1_555
O1_17 Ag4 1_555 1_555
C2_15 N4_15 1_555 1_555
C5_15 N4_15 1_555 1_555
O1_17 H5_17 1_555 1_555
O1_17 H6_17 1_555 1_555
Ag4_2 N1_18 1_555 1_555
N1_18 C1_18 1_555 1_555
C1_18 H1_16 1_555 1_555
N5_4 C1_18 1_555 1_555
C2_16 N5_4 1_555 1_555
N6 C2_16 1_555 1_555
C3_16 N6 1_555 1_555
H2_16 C3_16 1_555 1_555
C4_16 C3_16 1_555 1_555
H3_16 C4_16 1_555 1_555
C5_16 C4_16 1_555 1_555
H4_16 C5_16 1_555 1_555
N4_16 N1_18 1_555 1_555
O1_18 Ag4_2 1_555 1_555
C2_16 N4_16 1_555 1_555
C5_16 N4_16 1_555 1_555
O1_18 H5_18 1_555 1_555
O1_18 H6_18 1_555 1_555
N6_9 C2_17 1_555 1_555
C3_17 N6_9 1_555 1_555
H2_17 C3_17 1_555 1_555
C4_17 C3_17 1_555 1_555
H3_17 C4_17 1_555 1_555
C5_17 C4_17 1_555 1_555
H4_17 C5_17 1_555 1_555
C2_17 N4_17 1_555 1_555
C5_17 N4_17 1_555 1_555
N3_9 C2_18 1_555 1_555
C3_18 N3_9 1_555 1_555
H2_18 C3_18 1_555 1_555
C4_18 C3_18 1_555 1_555
H3_18 C4_18 1_555 1_555
C5_18 C4_18 1_555 1_555
H4_18 C5_18 1_555 1_555
C2_18 N4_18 1_555 1_555
C5_18 N4_18 1_555 1_555

#END
