
###############################################################################
#
# This file contains modified crystal structure data generated from the
# MOF subset of the Cambridge Structural Database (CSD) v543 
# hosted by the Cambridge Crystallographic Data Centre (CCDC).
#
# This work is licensed under the Creative Commons
# Attribution-NonCommercial-ShareAlike 4.0 International License.
# To view a copy of this license, visit
# http://creativecommons.org/licenses/by-nc-sa/4.0/
# or send a letter to
# Creative Commons, PO Box 1866, Mountain View, CA 94042, USA.
#
# CIF created using the CSD Python API on 29 September 2022
# The structure has been converted into the P1 space group
# The structure has a 3D framework
# The original CSD entry OCIZIL is in the orthorhombic crystal system
# The original CSD entry OCIZIL is in a Sohncke space group
# The framework has been calculated to contain at least 10.0% void space
# The void calculation uses a probe of radius 1.32A, grid spacing 0.4
#
###############################################################################

data_OCIZIL
_chemical_formula_moiety         '(C256 H176 N32 O40 Zn6)n'
_symmetry_cell_setting           triclinic
_symmetry_space_group_name_H-M   'P 1'
_symmetry_Int_Tables_number      1
_space_group_name_Hall           'P 1'
loop_
_symmetry_equiv_pos_site_id
_symmetry_equiv_pos_as_xyz
1 x,y,z
_cell_length_a                   18.167(4)
_cell_length_b                   26.668(5)
_cell_length_c                   12.453(3)
_cell_angle_alpha                90
_cell_angle_beta                 90
_cell_angle_gamma                90
_cell_volume                     6033.2
loop_
_atom_site_label
_atom_site_type_symbol
_atom_site_fract_x
_atom_site_fract_y
_atom_site_fract_z
Zn2 Zn 0.25649(4) 0.53572(3) 0.11658(6)
C3 C 0.1526(4) 0.4656(3) 0.0138(6)
H3 H 0.1140 0.4808 0.0536
N1 N 0.2217(3) 0.4809(2) 0.0149(5)
N9 N 0.3059(3) 0.49694(18) 0.2350(4)
O11 O 0.1746(2) 0.58057(17) 0.1422(4)
O12 O 0.3268(2) 0.58307(17) 0.0545(4)
C33 C 0.1118(4) 0.0683(3) 0.9859(5)
C35 C 0.0724(4) 0.1587(3) 0.9791(6)
H23 H 0.1205 0.1669 0.9549
C36 C 0.0205(4) 0.1967(3) 0.9902(5)
H24 H 0.0326 0.2304 0.9726
O6 O 0.1732(2) 0.08307(17) 0.9455(4)
Zn5 Zn 0.24351(4) 0.03572(3) 0.88342(6)
C28 C 0.0538(4) 0.6452(3) 0.1655(6)
H20 H 0.0989 0.6601 0.1436
C29 C 0.0540(4) 0.5963(2) 0.2066(6)
C32 C 0.1228(4) 0.5643(3) 0.2031(7)
C47 C 0.2231(4) 0.9816(2) 0.6675(5)
H31 H 0.2719 0.9873 0.6429
C48 C 0.1699(4) 0.9574(3) 0.6143(5)
H32 H 0.1739 0.9435 0.5443
C49 C 0.1264(3) 0.9809(2) 0.7704(5)
H33 H 0.0942 0.9858 0.8296
C50 C 0.0374(4) 0.9364(2) 0.6552(5)
H34 H 0.0151 0.9142 0.8057
C55 C 0.0099(4) 0.9384(3) 0.5507(5)
H37 H 0.0401 0.9502 0.4937
N5 N 0.1941(3) 0.99694(18) 0.7650(4)
N6 N 0.1089(3) 0.95609(18) 0.6785(4)
O5 O 0.1227(3) 0.52381(19) 0.2451(5)
O11_2 O 0.3254(2) 0.08057(17) 0.8578(4)
C33_2 C 0.3882(4) 0.5683(3) 0.0141(5)
C35_2 C 0.4276(4) 0.6587(3) 0.0209(6)
H23_2 H 0.3795 0.6669 0.0451
C36_2 C 0.4795(4) 0.6967(3) 0.0098(5)
H24_2 H 0.4674 0.7304 0.0274
H30 H 0.7288 0.7568 0.0024
C3_2 C 0.3474(4) 0.9656(3) 0.9862(6)
H3_2 H 0.3860 0.9808 0.9464
N1_2 N 0.2783(3) 0.9809(2) 0.9851(5)
H13 H 0.9906 0.1795 0.3571
C19 C 0.9022(3) 0.1820(2) 0.5962(6)
C20 C 0.8326(3) 0.1724(3) 0.6602(5)
C21 C 0.8348(4) 0.1696(3) 0.7713(5)
H15 H 0.8806 0.1692 0.8080
C22 C 0.7697(4) 0.1676(3) 0.8281(6)
H16 H 0.7704 0.1640 0.9039
C23 C 0.7032(4) 0.1707(2) 0.7741(6)
C24 C 0.7001(4) 0.1723(2) 0.6651(6)
H17 H 0.6541 0.1734 0.6290
C25 C 0.7656(3) 0.1725(2) 0.6076(6)
H18 H 0.7644 0.1726 0.5313
C26 C 0.5769(4) 0.1493(3) 0.8133(6)
C27 C 0.5104(4) 0.1718(3) 0.8437(6)
H19 H 0.5098 0.2052 0.8704
C28_2 C 0.4462(4) 0.1452(3) 0.8345(6)
H20_2 H 0.4011 0.1601 0.8564
C29_2 C 0.4460(4) 0.0963(2) 0.7934(6)
C30 C 0.5119(4) 0.0758(3) 0.7608(6)
H21 H 0.5122 0.0427 0.7327
C31 C 0.5772(4) 0.1015(3) 0.7676(6)
H22 H 0.6216 0.0871 0.7417
C32_2 C 0.3772(4) 0.0643(3) 0.7969(7)
C47_2 C 0.2769(4) 0.4816(2) 0.3325(5)
H31_2 H 0.2281 0.4873 0.3571
C48_2 C 0.3301(4) 0.4574(3) 0.3857(5)
H32_2 H 0.3261 0.4435 0.4557
C49_2 C 0.3736(3) 0.4809(2) 0.2296(5)
H33_2 H 0.4058 0.4858 0.1704
C50_2 C 0.4626(4) 0.4364(2) 0.3448(5)
C51 C 0.5047(4) 0.4171(2) 0.2647(6)
H34_2 H 0.4849 0.4142 0.1943
C52 C 0.5767(4) 0.4015(2) 0.2851(5)
H35 H 0.6059 0.3884 0.2283
C53 C 0.6061(3) 0.4049(2) 0.3879(6)
C54 C 0.5598(4) 0.4235(3) 0.4688(6)
H36 H 0.5782 0.4257 0.5400
C55_2 C 0.4901(4) 0.4384(3) 0.4493(5)
H37_2 H 0.4599 0.4502 0.5063
C56 C 0.6833(4) 0.3899(2) 0.4092(6)
C57 C 0.7202(4) 0.3563(3) 0.3435(6)
H38 H 0.6957 0.3429 0.2826
C58 C 0.7928(4) 0.3416(3) 0.3648(7)
H39 H 0.8174 0.3186 0.3189
C59 C 0.8282(4) 0.3614(3) 0.4545(6)
C60 C 0.7940(4) 0.3954(3) 0.5176(7)
H40 H 0.8192 0.4094 0.5773
C61 C 0.7220(4) 0.4099(3) 0.4954(6)
H41 H 0.6988 0.4341 0.5401
C62 C 0.9590(4) 0.3737(3) 0.5109(9)
H42 H 0.9603 0.4093 0.5127
C64 C 0.9225(4) 0.2977(3) 0.4930(6)
H44 H 0.8926 0.2696 0.4764
N6_2 N 0.3911(3) 0.45609(18) 0.3215(4)
N7 N 0.9012(3) 0.34512(19) 0.4817(5)
N8 N 0.9901(3) 0.2946(2) 0.5299(5)
O1 O 0.9582(3) 0.19602(17) 0.6496(4)
O2 O 0.8995(3) 0.1780(2) 0.4949(4)
O3 O 0.6409(3) 0.1751(2) 0.8394(4)
O5_2 O 0.3773(3) 0.02381(19) 0.7549(5)
C1 C 0.2588(4) 0.4496(3) 0.9520(6)
H1 H 0.3102 0.4512 0.9391
C2 C 0.2125(4) 0.4147(3) 0.9086(7)
H2 H 0.2251 0.3885 0.8605
C4 C 0.0749(4) 0.4017(4) 0.9236(9)
C5 C 0.0704(4) 0.3573(3) 0.8772(7)
H4 H 0.1138 0.3387 0.8622
C6 C 0.0022(4) 0.3381(3) 0.8505(8)
H5 H 0.0002 0.3057 0.8189
C9 C 0.0114(4) 0.4261(4) 0.9513(9)
H7 H 0.0140 0.4566 0.9908
C34 C 0.0558(3) 0.1097(2) 0.0022(5)
N2 N 0.1442(3) 0.4255(2) 0.9488(5)
O7 O 0.0972(3) 0.02463(18) 0.0073(5)
Zn1 Zn 0.54009(4) 0.26960(3) 0.41939(6)
C7 C 0.9381(3) 0.3627(3) 0.8669(5)
C8 C 0.9446(4) 0.4073(3) 0.9229(9)
H6 H 0.9014 0.4253 0.9419
C10 C 0.8639(4) 0.3460(3) 0.8319(6)
C11 C 0.8579(4) 0.3081(3) 0.7582(7)
H8 H 0.8999 0.2890 0.7382
C12 C 0.7889(4) 0.2978(3) 0.7124(7)
H9 H 0.7854 0.2726 0.6587
C13 C 0.7280(4) 0.3223(3) 0.7422(6)
C14 C 0.7337(5) 0.3572(4) 0.8207(8)
H10 H 0.6910 0.3740 0.8461
C15 C 0.8009(4) 0.3683(5) 0.8634(8)
H11 H 0.8034 0.3930 0.9182
C16 C 0.6512(3) 0.2971(2) 0.5866(5)
H12 H 0.6911 0.2863 0.5430
C17 C 0.5425(5) 0.3167(4) 0.6408(6)
H13_2 H 0.4906 0.3205 0.6429
C18 C 0.5894(4) 0.3291(4) 0.7200(7)
H14 H 0.5771 0.3452 0.7857
C19_2 C 0.4022(3) 0.3180(2) 0.4038(6)
C20_2 C 0.3326(3) 0.3276(3) 0.3398(5)
C21_2 C 0.3348(4) 0.3304(3) 0.2287(5)
H15_2 H 0.3806 0.3308 0.1920
C22_2 C 0.2697(4) 0.3324(3) 0.1719(6)
H16_2 H 0.2704 0.3360 0.0961
C23_2 C 0.2032(4) 0.3293(2) 0.2259(6)
C24_2 C 0.2001(4) 0.3277(2) 0.3349(6)
H17_2 H 0.1541 0.3266 0.3710
C25_2 C 0.2656(3) 0.3275(2) 0.3924(6)
H18_2 H 0.2644 0.3274 0.4687
C26_2 C 0.0769(4) 0.3507(3) 0.1867(6)
C27_2 C 0.0104(4) 0.3282(3) 0.1563(6)
H19_2 H 0.0098 0.2948 0.1296
C30_2 C 0.0119(4) 0.4242(3) 0.2392(6)
H21_2 H 0.0122 0.4573 0.2673
C31_2 C 0.0772(4) 0.3985(3) 0.2324(6)
H22_2 H 0.1216 0.4129 0.2583
C37 C 0.9505(4) 0.1845(3) 0.0276(5)
C38 C 0.9334(3) 0.1355(2) 0.0520(6)
H25 H 0.8861 0.1271 0.0791
C39 C 0.9863(4) 0.0982(3) 0.0364(5)
H26 H 0.9738 0.0642 0.0499
C40 C 0.8435(3) 0.2232(2) 0.1030(5)
C41 C 0.8517(4) 0.2069(3) 0.2055(6)
H27 H 0.8977 0.1937 0.2284
C42 C 0.7938(4) 0.2095(3) 0.2764(6)
H28 H 0.7999 0.1973 0.3475
C43 C 0.7258(3) 0.2298(2) 0.2455(5)
C44 C 0.7195(4) 0.2466(2) 0.1430(5)
H29 H 0.6738 0.2605 0.1208
C45 C 0.7770(4) 0.2444(2) 0.0687(5)
C46 C 0.6635(3) 0.2340(3) 0.3255(6)
C51_2 C 0.0047(4) 0.0829(2) 0.7353(6)
C52_2 C 0.0767(4) 0.0985(2) 0.7149(5)
H35_2 H 0.1059 0.1116 0.7717
C53_2 C 0.1061(3) 0.0951(2) 0.6121(6)
C54_2 C 0.0598(4) 0.0765(3) 0.5312(6)
H36_2 H 0.0782 0.0743 0.4600
C56_2 C 0.1833(4) 0.1101(2) 0.5908(6)
C57_2 C 0.2202(4) 0.1437(3) 0.6565(6)
H38_2 H 0.1957 0.1571 0.7174
C58_2 C 0.2928(4) 0.1584(3) 0.6352(7)
H39_2 H 0.3174 0.1814 0.6811
C59_2 C 0.3282(4) 0.1386(3) 0.5455(6)
C60_2 C 0.2940(4) 0.1046(3) 0.4824(7)
H40_2 H 0.3192 0.0906 0.4227
C61_2 C 0.2220(4) 0.0901(3) 0.5046(6)
H41_2 H 0.1988 0.0659 0.4599
C62_2 C 0.4590(4) 0.1263(3) 0.4891(9)
H42_2 H 0.4603 0.0907 0.4873
C63 C 0.5134(4) 0.1566(3) 0.4635(8)
H43 H 0.5615 0.1462 0.4435
C64_2 C 0.4225(4) 0.2023(3) 0.5070(6)
H44_2 H 0.3926 0.2304 0.5236
N3 N 0.6587(3) 0.3141(2) 0.6878(4)
N4 N 0.5825(3) 0.2974(2) 0.5557(4)
N7_2 N 0.4012(3) 0.15488(19) 0.5183(5)
N8_2 N 0.4901(3) 0.2054(2) 0.4701(5)
O1_2 O 0.4582(3) 0.30398(17) 0.3504(4)
O2_2 O 0.3995(3) 0.3220(2) 0.5051(4)
O3_2 O 0.1409(3) 0.3249(2) 0.1606(4)
O8 O 0.9011(3) 0.22365(17) 0.0294(4)
O9 O 0.6077(2) 0.26011(18) 0.2976(4)
O10 O 0.6695(3) 0.2130(2) 0.4120(4)
H30_2 H 0.7712 0.2568 0.9976
C28_3 C 0.9462(4) 0.3548(3) 0.1655(6)
H20_3 H 0.9011 0.3399 0.1436
C29_3 C 0.9460(4) 0.4037(2) 0.2066(6)
C32_3 C 0.8772(4) 0.4357(3) 0.2031(7)
C47_3 C 0.7769(4) 0.0184(2) 0.6675(5)
H31_3 H 0.7281 0.0127 0.6429
C48_3 C 0.8301(4) 0.0426(3) 0.6143(5)
H32_3 H 0.8261 0.0565 0.5443
C49_3 C 0.8736(3) 0.0191(2) 0.7704(5)
H33_3 H 0.9058 0.0142 0.8296
C50_3 C 0.9626(4) 0.0636(2) 0.6552(5)
H34_3 H 0.9849 0.0858 0.8057
C55_3 C 0.9901(4) 0.0616(3) 0.5507(5)
H37_3 H 0.9599 0.0498 0.4937
N5_2 N 0.8059(3) 0.00306(18) 0.7650(4)
N6_3 N 0.8911(3) 0.04391(18) 0.6785(4)
O4 O 0.8254(2) 0.41943(17) 0.1422(4)
O5_3 O 0.8773(3) 0.47619(19) 0.2451(5)
Zn4 Zn 0.74351(4) 0.46428(3) 0.11658(6)
Zn3 Zn 0.75649(4) 0.96428(3) 0.88342(6)
C3_3 C 0.8474(4) 0.5344(3) 0.0138(6)
H3_3 H 0.8860 0.5192 0.0536
N1_3 N 0.7783(3) 0.5191(2) 0.0149(5)
N9_2 N 0.6941(3) 0.50306(18) 0.2350(4)
O12_2 O 0.6732(2) 0.41693(17) 0.0545(4)
C33_3 C 0.8882(4) 0.9317(3) 0.9859(5)
C35_3 C 0.9276(4) 0.8413(3) 0.9791(6)
H23_3 H 0.8795 0.8331 0.9549
C36_3 C 0.9795(4) 0.8033(3) 0.9902(5)
H24_3 H 0.9674 0.7696 0.9726
O6_2 O 0.8268(2) 0.91693(17) 0.9455(4)
H13_3 H 0.0094 0.8205 0.3571
C19_3 C 0.0978(3) 0.8180(2) 0.5962(6)
C20_3 C 0.1674(3) 0.8276(3) 0.6602(5)
C21_3 C 0.1652(4) 0.8304(3) 0.7713(5)
H15_3 H 0.1194 0.8308 0.8080
C22_3 C 0.2303(4) 0.8324(3) 0.8281(6)
H16_3 H 0.2296 0.8360 0.9039
C23_3 C 0.2968(4) 0.8293(2) 0.7741(6)
C24_3 C 0.2999(4) 0.8277(2) 0.6651(6)
H17_3 H 0.3459 0.8266 0.6290
C25_3 C 0.2344(3) 0.8275(2) 0.6076(6)
H18_3 H 0.2356 0.8274 0.5313
C26_3 C 0.4231(4) 0.8507(3) 0.8133(6)
C27_3 C 0.4896(4) 0.8282(3) 0.8437(6)
H19_3 H 0.4902 0.7948 0.8704
C28_4 C 0.5538(4) 0.8548(3) 0.8345(6)
H20_4 H 0.5989 0.8399 0.8564
C29_4 C 0.5540(4) 0.9037(2) 0.7934(6)
C30_3 C 0.4881(4) 0.9242(3) 0.7608(6)
H21_3 H 0.4878 0.9573 0.7327
C31_3 C 0.4228(4) 0.8985(3) 0.7676(6)
H22_3 H 0.3784 0.9129 0.7417
C32_4 C 0.6228(4) 0.9357(3) 0.7969(7)
C47_4 C 0.7231(4) 0.5184(2) 0.3325(5)
H31_4 H 0.7719 0.5127 0.3571
C48_4 C 0.6699(4) 0.5426(3) 0.3857(5)
H32_4 H 0.6739 0.5565 0.4557
C49_4 C 0.6264(3) 0.5191(2) 0.2296(5)
H33_4 H 0.5942 0.5142 0.1704
C50_4 C 0.5374(4) 0.5636(2) 0.3448(5)
C51_3 C 0.4953(4) 0.5829(2) 0.2647(6)
H34_4 H 0.5151 0.5858 0.1943
C52_3 C 0.4233(4) 0.5985(2) 0.2851(5)
H35_3 H 0.3941 0.6116 0.2283
C53_3 C 0.3939(3) 0.5951(2) 0.3879(6)
C54_3 C 0.4402(4) 0.5765(3) 0.4688(6)
H36_3 H 0.4218 0.5743 0.5400
C55_4 C 0.5099(4) 0.5616(3) 0.4493(5)
H37_4 H 0.5401 0.5498 0.5063
C56_3 C 0.3167(4) 0.6101(2) 0.4092(6)
C57_3 C 0.2798(4) 0.6437(3) 0.3435(6)
H38_3 H 0.3043 0.6571 0.2826
C58_3 C 0.2072(4) 0.6584(3) 0.3648(7)
H39_3 H 0.1826 0.6814 0.3189
C59_3 C 0.1718(4) 0.6386(3) 0.4545(6)
C60_3 C 0.2060(4) 0.6046(3) 0.5176(7)
H40_3 H 0.1808 0.5906 0.5773
C61_3 C 0.2780(4) 0.5901(3) 0.4954(6)
H41_3 H 0.3012 0.5659 0.5401
C62_3 C 0.0410(4) 0.6263(3) 0.5109(9)
H42_3 H 0.0397 0.5907 0.5127
C64_3 C 0.0775(4) 0.7023(3) 0.4930(6)
H44_3 H 0.1074 0.7304 0.4764
N6_4 N 0.6089(3) 0.54391(18) 0.3215(4)
N7_3 N 0.0988(3) 0.65488(19) 0.4817(5)
N8_3 N 0.0099(3) 0.7054(2) 0.5299(5)
O1_3 O 0.0418(3) 0.80398(17) 0.6496(4)
O2_3 O 0.1005(3) 0.8220(2) 0.4949(4)
O3_3 O 0.3591(3) 0.8249(2) 0.8394(4)
O4_2 O 0.6746(2) 0.91943(17) 0.8578(4)
O5_4 O 0.6227(3) 0.97619(19) 0.7549(5)
C33_4 C 0.6118(4) 0.4317(3) 0.0141(5)
C35_4 C 0.5724(4) 0.3413(3) 0.0209(6)
H23_4 H 0.6205 0.3331 0.0451
C36_4 C 0.5205(4) 0.3033(3) 0.0098(5)
H24_4 H 0.5326 0.2696 0.0274
H30_3 H 0.2712 0.2432 0.0024
C3_4 C 0.6526(4) 0.0344(3) 0.9862(6)
H3_4 H 0.6140 0.0192 0.9464
N1_4 N 0.7217(3) 0.0191(2) 0.9851(5)
Zn1_2 Zn 0.45991(4) 0.73040(3) 0.41939(6)
C7_2 C 0.0619(3) 0.6373(3) 0.8669(5)
C8_2 C 0.0554(4) 0.5927(3) 0.9229(9)
H6_2 H 0.0986 0.5747 0.9419
C10_2 C 0.1361(4) 0.6540(3) 0.8319(6)
C11_2 C 0.1421(4) 0.6919(3) 0.7582(7)
H8_2 H 0.1001 0.7110 0.7382
C12_2 C 0.2111(4) 0.7022(3) 0.7124(7)
H9_2 H 0.2146 0.7274 0.6587
C13_2 C 0.2720(4) 0.6777(3) 0.7422(6)
C14_2 C 0.2663(5) 0.6428(4) 0.8207(8)
H10_2 H 0.3090 0.6260 0.8461
C15_2 C 0.1991(4) 0.6317(5) 0.8634(8)
H11_2 H 0.1966 0.6070 0.9182
C16_2 C 0.3488(3) 0.7029(2) 0.5866(5)
H12_2 H 0.3089 0.7137 0.5430
C17_2 C 0.4575(5) 0.6833(4) 0.6408(6)
H13_4 H 0.5094 0.6795 0.6429
C18_2 C 0.4106(4) 0.6709(4) 0.7200(7)
H14_2 H 0.4229 0.6548 0.7857
C19_4 C 0.5978(3) 0.6820(2) 0.4038(6)
C20_4 C 0.6674(3) 0.6724(3) 0.3398(5)
C21_4 C 0.6652(4) 0.6696(3) 0.2287(5)
H15_4 H 0.6194 0.6692 0.1920
C22_4 C 0.7303(4) 0.6676(3) 0.1719(6)
H16_4 H 0.7296 0.6640 0.0961
C23_4 C 0.7968(4) 0.6707(2) 0.2259(6)
C24_4 C 0.7999(4) 0.6723(2) 0.3349(6)
H17_4 H 0.8459 0.6734 0.3710
C25_4 C 0.7344(3) 0.6725(2) 0.3924(6)
H18_4 H 0.7356 0.6726 0.4687
C26_4 C 0.9231(4) 0.6493(3) 0.1867(6)
C27_4 C 0.9896(4) 0.6718(3) 0.1563(6)
H19_4 H 0.9902 0.7052 0.1296
C30_4 C 0.9881(4) 0.5758(3) 0.2392(6)
H21_4 H 0.9878 0.5427 0.2673
C31_4 C 0.9228(4) 0.6015(3) 0.2324(6)
H22_4 H 0.8784 0.5871 0.2583
C37_2 C 0.0495(4) 0.8155(3) 0.0276(5)
C38_2 C 0.0666(3) 0.8645(2) 0.0520(6)
H25_2 H 0.1139 0.8729 0.0791
C39_2 C 0.0137(4) 0.9018(3) 0.0364(5)
H26_2 H 0.0262 0.9358 0.0499
C40_2 C 0.1565(3) 0.7768(2) 0.1030(5)
C41_2 C 0.1483(4) 0.7931(3) 0.2055(6)
H27_2 H 0.1023 0.8063 0.2284
C42_2 C 0.2062(4) 0.7905(3) 0.2764(6)
H28_2 H 0.2001 0.8027 0.3475
C43_2 C 0.2742(3) 0.7702(2) 0.2455(5)
C44_2 C 0.2805(4) 0.7534(2) 0.1430(5)
H29_2 H 0.3262 0.7395 0.1208
C45_2 C 0.2230(4) 0.7556(2) 0.0687(5)
C46_2 C 0.3365(3) 0.7660(3) 0.3255(6)
C51_4 C 0.9953(4) 0.9171(2) 0.7353(6)
C52_4 C 0.9233(4) 0.9015(2) 0.7149(5)
H35_4 H 0.8941 0.8884 0.7717
C53_4 C 0.8939(3) 0.9049(2) 0.6121(6)
C54_4 C 0.9402(4) 0.9235(3) 0.5312(6)
H36_4 H 0.9218 0.9257 0.4600
C56_4 C 0.8167(4) 0.8899(2) 0.5908(6)
C57_4 C 0.7798(4) 0.8563(3) 0.6565(6)
H38_4 H 0.8043 0.8429 0.7174
C58_4 C 0.7072(4) 0.8416(3) 0.6352(7)
H39_4 H 0.6826 0.8186 0.6811
C59_4 C 0.6718(4) 0.8614(3) 0.5455(6)
C60_4 C 0.7060(4) 0.8954(3) 0.4824(7)
H40_4 H 0.6808 0.9094 0.4227
C61_4 C 0.7780(4) 0.9099(3) 0.5046(6)
H41_4 H 0.8012 0.9341 0.4599
C62_4 C 0.5410(4) 0.8737(3) 0.4891(9)
H42_4 H 0.5397 0.9093 0.4873
C63_2 C 0.4866(4) 0.8434(3) 0.4635(8)
H43_2 H 0.4385 0.8538 0.4435
C64_4 C 0.5775(4) 0.7977(3) 0.5070(6)
H44_4 H 0.6074 0.7696 0.5236
N3_2 N 0.3413(3) 0.6859(2) 0.6878(4)
N4_2 N 0.4175(3) 0.7026(2) 0.5557(4)
N7_4 N 0.5988(3) 0.84512(19) 0.5183(5)
N8_4 N 0.5099(3) 0.7946(2) 0.4701(5)
O1_4 O 0.5418(3) 0.69602(17) 0.3504(4)
O2_4 O 0.6005(3) 0.6780(2) 0.5051(4)
O3_4 O 0.8591(3) 0.6751(2) 0.1606(4)
O8_2 O 0.0989(3) 0.77635(17) 0.0294(4)
O9_2 O 0.3923(2) 0.73989(18) 0.2976(4)
O10_2 O 0.3305(3) 0.7870(2) 0.4120(4)
H30_4 H 0.2288 0.7432 0.9976
C1_2 C 0.7412(4) 0.5504(3) 0.9520(6)
H1_2 H 0.6898 0.5488 0.9391
C2_2 C 0.7875(4) 0.5853(3) 0.9086(7)
H2_2 H 0.7749 0.6115 0.8605
C4_2 C 0.9251(4) 0.5983(4) 0.9236(9)
C5_2 C 0.9296(4) 0.6427(3) 0.8772(7)
H4_2 H 0.8862 0.6613 0.8622
C6_2 C 0.9978(4) 0.6619(3) 0.8505(8)
H5_2 H 0.9998 0.6943 0.8189
C9_2 C 0.9886(4) 0.5739(4) 0.9513(9)
H7_2 H 0.9860 0.5434 0.9908
C34_2 C 0.9442(3) 0.8903(2) 0.0022(5)
N2_2 N 0.8558(3) 0.5745(2) 0.9488(5)
O7_2 O 0.9028(3) 0.97537(18) 0.0073(5)
Zn1_3 Zn 0.95991(4) 0.76960(3) 0.58061(6)
C1_3 C 0.2412(4) 0.9496(3) 0.0480(6)
H1_3 H 0.1898 0.9512 0.0609
C2_3 C 0.2875(4) 0.9147(3) 0.0914(7)
H2_3 H 0.2749 0.8885 0.1395
C4_3 C 0.4251(4) 0.9017(4) 0.0764(9)
C5_3 C 0.4296(4) 0.8573(3) 0.1228(7)
H4_3 H 0.3862 0.8387 0.1378
C6_3 C 0.4978(4) 0.8381(3) 0.1495(8)
H5_3 H 0.4998 0.8057 0.1811
C7_3 C 0.5619(3) 0.8627(3) 0.1331(5)
C8_3 C 0.5554(4) 0.9073(3) 0.0771(9)
H6_3 H 0.5986 0.9253 0.0581
C9_3 C 0.4886(4) 0.9261(4) 0.0487(9)
H7_3 H 0.4860 0.9566 0.0092
C10_3 C 0.6361(4) 0.8460(3) 0.1681(6)
C11_3 C 0.6421(4) 0.8081(3) 0.2418(7)
H8_3 H 0.6001 0.7890 0.2618
C12_3 C 0.7111(4) 0.7978(3) 0.2876(7)
H9_3 H 0.7146 0.7726 0.3413
C13_3 C 0.7720(4) 0.8223(3) 0.2578(6)
C14_3 C 0.7663(5) 0.8572(4) 0.1793(8)
H10_3 H 0.8090 0.8740 0.1539
C15_3 C 0.6991(4) 0.8683(5) 0.1366(8)
H11_3 H 0.6966 0.8930 0.0818
C16_3 C 0.8488(3) 0.7971(2) 0.4134(5)
H12_3 H 0.8089 0.7863 0.4570
C17_3 C 0.9575(5) 0.8167(4) 0.3592(6)
C18_3 C 0.9106(4) 0.8291(4) 0.2800(7)
H14_3 H 0.9229 0.8452 0.2143
C34_3 C 0.4442(3) 0.6097(2) 0.9978(5)
C37_3 C 0.5495(4) 0.6845(3) 0.9724(5)
C38_3 C 0.5666(3) 0.6355(2) 0.9480(6)
H25_3 H 0.6139 0.6271 0.9209
C39_3 C 0.5137(4) 0.5982(3) 0.9636(5)
H26_3 H 0.5262 0.5642 0.9501
C40_3 C 0.6565(3) 0.7232(2) 0.8970(5)
C41_3 C 0.6483(4) 0.7069(3) 0.7945(6)
H27_3 H 0.6023 0.6937 0.7716
C42_3 C 0.7062(4) 0.7095(3) 0.7236(6)
H28_3 H 0.7001 0.6973 0.6525
C43_3 C 0.7742(3) 0.7298(2) 0.7545(5)
C44_3 C 0.7805(4) 0.7466(2) 0.8570(5)
H29_3 H 0.8262 0.7605 0.8792
C45_3 C 0.7230(4) 0.7444(2) 0.9313(5)
C46_3 C 0.8365(3) 0.7340(3) 0.6745(6)
C63_3 C 0.9866(4) 0.6566(3) 0.5365(8)
H43_3 H 0.9385 0.6462 0.5565
N2_3 N 0.3558(3) 0.9255(2) 0.0512(5)
N3_3 N 0.8413(3) 0.8141(2) 0.3122(4)
N4_3 N 0.9175(3) 0.7974(2) 0.4443(4)
O7_3 O 0.4028(3) 0.52463(18) 0.9927(5)
O8_3 O 0.5989(3) 0.72365(17) 0.9706(4)
O9_3 O 0.8923(2) 0.76011(18) 0.7024(4)
O10_3 O 0.8305(3) 0.7130(2) 0.5880(4)
Zn1_4 Zn 0.04009(4) 0.23040(3) 0.58061(6)
C1_4 C 0.7588(4) 0.0504(3) 0.0480(6)
H1_4 H 0.8102 0.0488 0.0609
C2_4 C 0.7125(4) 0.0853(3) 0.0914(7)
H2_4 H 0.7251 0.1115 0.1395
C4_4 C 0.5749(4) 0.0983(4) 0.0764(9)
C5_4 C 0.5704(4) 0.1427(3) 0.1228(7)
H4_4 H 0.6138 0.1613 0.1378
C6_4 C 0.5022(4) 0.1619(3) 0.1495(8)
H5_4 H 0.5002 0.1943 0.1811
C7_4 C 0.4381(3) 0.1373(3) 0.1331(5)
C8_4 C 0.4446(4) 0.0927(3) 0.0771(9)
H6_4 H 0.4014 0.0747 0.0581
C9_4 C 0.5114(4) 0.0739(4) 0.0487(9)
H7_4 H 0.5140 0.0434 0.0092
C10_4 C 0.3639(4) 0.1540(3) 0.1681(6)
C11_4 C 0.3579(4) 0.1919(3) 0.2418(7)
H8_4 H 0.3999 0.2110 0.2618
C12_4 C 0.2889(4) 0.2022(3) 0.2876(7)
H9_4 H 0.2854 0.2274 0.3413
C13_4 C 0.2280(4) 0.1777(3) 0.2578(6)
C14_4 C 0.2337(5) 0.1428(4) 0.1793(8)
H10_4 H 0.1910 0.1260 0.1539
C15_4 C 0.3009(4) 0.1317(5) 0.1366(8)
H11_4 H 0.3034 0.1070 0.0818
C16_4 C 0.1512(3) 0.2029(2) 0.4134(5)
H12_4 H 0.1911 0.2137 0.4570
C17_4 C 0.0425(5) 0.1833(4) 0.3592(6)
C18_4 C 0.0894(4) 0.1709(4) 0.2800(7)
H14_4 H 0.0771 0.1548 0.2143
C34_4 C 0.5558(3) 0.3903(2) 0.9978(5)
C37_4 C 0.4505(4) 0.3155(3) 0.9724(5)
C38_4 C 0.4334(3) 0.3645(2) 0.9480(6)
H25_4 H 0.3861 0.3729 0.9209
C39_4 C 0.4863(4) 0.4018(3) 0.9636(5)
H26_4 H 0.4738 0.4358 0.9501
C40_4 C 0.3435(3) 0.2768(2) 0.8970(5)
C41_4 C 0.3517(4) 0.2931(3) 0.7945(6)
H27_4 H 0.3977 0.3063 0.7716
C42_4 C 0.2938(4) 0.2905(3) 0.7236(6)
H28_4 H 0.2999 0.3027 0.6525
C43_4 C 0.2258(3) 0.2702(2) 0.7545(5)
C44_4 C 0.2195(4) 0.2534(2) 0.8570(5)
H29_4 H 0.1738 0.2395 0.8792
C45_4 C 0.2770(4) 0.2556(2) 0.9313(5)
C46_4 C 0.1635(3) 0.2660(3) 0.6745(6)
C63_4 C 0.0134(4) 0.3434(3) 0.5365(8)
H43_4 H 0.0615 0.3538 0.5565
N2_4 N 0.6442(3) 0.0745(2) 0.0512(5)
N3_4 N 0.1587(3) 0.1859(2) 0.3122(4)
N4_4 N 0.0825(3) 0.2026(2) 0.4443(4)
O7_4 O 0.5972(3) 0.47537(18) 0.9927(5)
O8_4 O 0.4011(3) 0.27635(17) 0.9706(4)
O9_4 O 0.1077(2) 0.23989(18) 0.7024(4)
O10_4 O 0.1695(3) 0.2870(2) 0.5880(4)
loop_
_geom_bond_atom_site_label_1
_geom_bond_atom_site_label_2
_geom_bond_site_symmetry_1
_geom_bond_site_symmetry_2
Zn2 N1 1_555 1_555
C3 H3 1_555 1_555
N9 Zn2 1_555 1_555
O11 Zn2 1_555 1_555
O12 Zn2 1_555 1_555
C3 N1 1_555 1_555
C35 H23 1_555 1_555
C36 C35 1_555 1_555
H24 C36 1_555 1_555
O6 C33 1_555 1_555
Zn5 O6 1_555 1_555
H20 C28 1_555 1_555
C29 C28 1_555 1_555
C32 C29 1_555 1_555
C47 H31 1_555 1_555
C48 C47 1_555 1_555
H32 C48 1_555 1_555
C49 H33 1_555 1_555
C55 C50 1_555 1_555
H37 C55 1_555 1_555
N5 C47 1_555 1_555
N6 C48 1_555 1_555
O11 C32 1_555 1_555
O5 C32 1_555 1_555
C49 N5 1_555 1_555
C49 N6 1_555 1_555
C50 N6 1_555 1_555
O11_2 Zn5 1_555 1_555
C35_2 H23_2 1_555 1_555
C36_2 C35_2 1_555 1_555
H24_2 C36_2 1_555 1_555
O12 C33_2 1_555 1_555
C3_2 H3_2 1_555 1_555
C3_2 N1_2 1_555 1_555
C19 C20 1_555 1_555
C20 C21 1_555 1_555
C21 H15 1_555 1_555
C22 C21 1_555 1_555
H16 C22 1_555 1_555
C23 C22 1_555 1_555
C24 C23 1_555 1_555
H17 C24 1_555 1_555
C25 C20 1_555 1_555
H18 C25 1_555 1_555
C26 C27 1_555 1_555
C27 H19 1_555 1_555
C28_2 C27 1_555 1_555
H20_2 C28_2 1_555 1_555
C29_2 C28_2 1_555 1_555
C30 C29_2 1_555 1_555
H21 C30 1_555 1_555
C31 C26 1_555 1_555
H22 C31 1_555 1_555
C32_2 C29_2 1_555 1_555
C47_2 H31_2 1_555 1_555
C48_2 C47_2 1_555 1_555
H32_2 C48_2 1_555 1_555
C49_2 H33_2 1_555 1_555
C50_2 C51 1_555 1_555
C51 H34_2 1_555 1_555
C52 C51 1_555 1_555
H35 C52 1_555 1_555
C53 C52 1_555 1_555
C54 C53 1_555 1_555
H36 C54 1_555 1_555
C55_2 C50_2 1_555 1_555
H37_2 C55_2 1_555 1_555
C56 C53 1_555 1_555
C57 C56 1_555 1_555
H38 C57 1_555 1_555
C58 C57 1_555 1_555
H39 C58 1_555 1_555
C59 C58 1_555 1_555
C60 C59 1_555 1_555
H40 C60 1_555 1_555
C61 C56 1_555 1_555
H41 C61 1_555 1_555
C62 H42 1_555 1_555
C64 H44 1_555 1_555
N9 C47_2 1_555 1_555
N6_2 C48_2 1_555 1_555
N7 C59 1_555 1_555
O2 C19 1_555 1_555
O3 C23 1_555 1_555
O11_2 C32_2 1_555 1_555
O5_2 C32_2 1_555 1_555
C19 O1 1_555 1_555
C24 C25 1_555 1_555
C26 O3 1_555 1_555
C30 C31 1_555 1_555
C49_2 N9 1_555 1_555
C49_2 N6_2 1_555 1_555
C50_2 N6_2 1_555 1_555
C54 C55_2 1_555 1_555
C60 C61 1_555 1_555
C62 N7 1_555 1_555
C64 N7 1_555 1_555
C64 N8 1_555 1_555
C1 H1 1_555 1_555
C2 C1 1_555 1_555
H2 C2 1_555 1_555
C4 C5 1_555 1_555
C5 H4 1_555 1_555
C6 C5 1_555 1_555
H5 C6 1_555 1_555
C9 C4 1_555 1_555
H7 C9 1_555 1_555
N2 C2 1_555 1_555
C4 N2 1_555 1_555
Zn1 N4 1_555 1_555
C8 C7 1_555 1_555
H6 C8 1_555 1_555
C10 C7 1_555 1_555
C11 C10 1_555 1_555
H8 C11 1_555 1_555
C12 C11 1_555 1_555
H9 C12 1_555 1_555
C13 C12 1_555 1_555
C14 C13 1_555 1_555
H10 C14 1_555 1_555
C15 C10 1_555 1_555
H11 C15 1_555 1_555
C16 H12 1_555 1_555
C17 H13_2 1_555 1_555
C18 C17 1_555 1_555
H14 C18 1_555 1_555
C19_2 C20_2 1_555 1_555
C20_2 C21_2 1_555 1_555
C21_2 H15_2 1_555 1_555
C22_2 C21_2 1_555 1_555
H16_2 C22_2 1_555 1_555
C23_2 C22_2 1_555 1_555
C24_2 C23_2 1_555 1_555
H17_2 C24_2 1_555 1_555
C25_2 C20_2 1_555 1_555
H18_2 C25_2 1_555 1_555
C26_2 C27_2 1_555 1_555
C27_2 H19_2 1_555 1_555
H21_2 C30_2 1_555 1_555
C31_2 C26_2 1_555 1_555
H22_2 C31_2 1_555 1_555
C38 C37 1_555 1_555
H25 C38 1_555 1_555
H26 C39 1_555 1_555
C40 C41 1_555 1_555
C41 H27 1_555 1_555
C42 C41 1_555 1_555
H28 C42 1_555 1_555
C43 C42 1_555 1_555
C44 C43 1_555 1_555
H29 C44 1_555 1_555
C45 C40 1_555 1_555
C46 C43 1_555 1_555
C52_2 C51_2 1_555 1_555
H35_2 C52_2 1_555 1_555
C53_2 C52_2 1_555 1_555
C54_2 C53_2 1_555 1_555
H36_2 C54_2 1_555 1_555
C56_2 C53_2 1_555 1_555
C57_2 C56_2 1_555 1_555
H38_2 C57_2 1_555 1_555
C58_2 C57_2 1_555 1_555
H39_2 C58_2 1_555 1_555
C59_2 C58_2 1_555 1_555
C60_2 C59_2 1_555 1_555
H40_2 C60_2 1_555 1_555
C61_2 C56_2 1_555 1_555
H41_2 C61_2 1_555 1_555
C62_2 H42_2 1_555 1_555
C63 C62_2 1_555 1_555
H43 C63 1_555 1_555
C64_2 H44_2 1_555 1_555
N3 C13 1_555 1_555
N4 C16 1_555 1_555
N7_2 C59_2 1_555 1_555
N8_2 Zn1 1_555 1_555
O1_2 Zn1 1_555 1_555
O2_2 C19_2 1_555 1_555
O3_2 C23_2 1_555 1_555
O8 C37 1_555 1_555
O9 Zn1 1_555 1_555
O10 C46 1_555 1_555
C14 C15 1_555 1_555
C16 N3 1_555 1_555
C17 N4 1_555 1_555
C18 N3 1_555 1_555
C19_2 O1_2 1_555 1_555
C24_2 C25_2 1_555 1_555
C26_2 O3_2 1_555 1_555
C30_2 C31_2 1_555 1_555
C38 C39 1_555 1_555
C40 O8 1_555 1_555
C44 C45 1_555 1_555
C46 O9 1_555 1_555
C60_2 C61_2 1_555 1_555
C62_2 N7_2 1_555 1_555
C63 N8_2 1_555 1_555
C64_2 N7_2 1_555 1_555
C64_2 N8_2 1_555 1_555
H20_3 C28_3 1_555 1_555
C29_3 C28_3 1_555 1_555
C32_3 C29_3 1_555 1_555
C47_3 H31_3 1_555 1_555
C48_3 C47_3 1_555 1_555
H32_3 C48_3 1_555 1_555
C49_3 H33_3 1_555 1_555
C55_3 C50_3 1_555 1_555
H37_3 C55_3 1_555 1_555
N5_2 C47_3 1_555 1_555
N6_3 C48_3 1_555 1_555
O4 C32_3 1_555 1_555
O5_3 C32_3 1_555 1_555
Zn4 O4 1_555 1_555
C49_3 N5_2 1_555 1_555
C49_3 N6_3 1_555 1_555
C50_3 N6_3 1_555 1_555
Zn4 N1_3 1_555 1_555
C3_3 H3_3 1_555 1_555
N9_2 Zn4 1_555 1_555
O12_2 Zn4 1_555 1_555
C3_3 N1_3 1_555 1_555
C35_3 H23_3 1_555 1_555
C36_3 C35_3 1_555 1_555
H24_3 C36_3 1_555 1_555
O6_2 C33_3 1_555 1_555
Zn3 O6_2 1_555 1_555
C19_3 C20_3 1_555 1_555
C20_3 C21_3 1_555 1_555
C21_3 H15_3 1_555 1_555
C22_3 C21_3 1_555 1_555
H16_3 C22_3 1_555 1_555
C23_3 C22_3 1_555 1_555
C24_3 C23_3 1_555 1_555
H17_3 C24_3 1_555 1_555
C25_3 C20_3 1_555 1_555
H18_3 C25_3 1_555 1_555
C26_3 C27_3 1_555 1_555
C27_3 H19_3 1_555 1_555
C28_4 C27_3 1_555 1_555
H20_4 C28_4 1_555 1_555
C29_4 C28_4 1_555 1_555
C30_3 C29_4 1_555 1_555
H21_3 C30_3 1_555 1_555
C31_3 C26_3 1_555 1_555
H22_3 C31_3 1_555 1_555
C32_4 C29_4 1_555 1_555
C47_4 H31_4 1_555 1_555
C48_4 C47_4 1_555 1_555
H32_4 C48_4 1_555 1_555
C49_4 H33_4 1_555 1_555
C50_4 C51_3 1_555 1_555
C51_3 H34_4 1_555 1_555
C52_3 C51_3 1_555 1_555
H35_3 C52_3 1_555 1_555
C53_3 C52_3 1_555 1_555
C54_3 C53_3 1_555 1_555
H36_3 C54_3 1_555 1_555
C55_4 C50_4 1_555 1_555
H37_4 C55_4 1_555 1_555
C56_3 C53_3 1_555 1_555
C57_3 C56_3 1_555 1_555
H38_3 C57_3 1_555 1_555
C58_3 C57_3 1_555 1_555
H39_3 C58_3 1_555 1_555
C59_3 C58_3 1_555 1_555
C60_3 C59_3 1_555 1_555
H40_3 C60_3 1_555 1_555
C61_3 C56_3 1_555 1_555
H41_3 C61_3 1_555 1_555
C62_3 H42_3 1_555 1_555
C64_3 H44_3 1_555 1_555
N9_2 C47_4 1_555 1_555
N6_4 C48_4 1_555 1_555
N7_3 C59_3 1_555 1_555
O2_3 C19_3 1_555 1_555
O3_3 C23_3 1_555 1_555
O4_2 C32_4 1_555 1_555
O5_4 C32_4 1_555 1_555
Zn3 O4_2 1_555 1_555
C19_3 O1_3 1_555 1_555
C24_3 C25_3 1_555 1_555
C26_3 O3_3 1_555 1_555
C30_3 C31_3 1_555 1_555
C49_4 N9_2 1_555 1_555
C49_4 N6_4 1_555 1_555
C50_4 N6_4 1_555 1_555
C54_3 C55_4 1_555 1_555
C60_3 C61_3 1_555 1_555
C62_3 N7_3 1_555 1_555
C64_3 N7_3 1_555 1_555
C64_3 N8_3 1_555 1_555
C35_4 H23_4 1_555 1_555
C36_4 C35_4 1_555 1_555
H24_4 C36_4 1_555 1_555
O12_2 C33_4 1_555 1_555
C3_4 H3_4 1_555 1_555
C3_4 N1_4 1_555 1_555
Zn1_2 N4_2 1_555 1_555
C8_2 C7_2 1_555 1_555
H6_2 C8_2 1_555 1_555
C10_2 C7_2 1_555 1_555
C11_2 C10_2 1_555 1_555
H8_2 C11_2 1_555 1_555
C12_2 C11_2 1_555 1_555
H9_2 C12_2 1_555 1_555
C13_2 C12_2 1_555 1_555
C14_2 C13_2 1_555 1_555
H10_2 C14_2 1_555 1_555
C15_2 C10_2 1_555 1_555
H11_2 C15_2 1_555 1_555
C16_2 H12_2 1_555 1_555
C17_2 H13_4 1_555 1_555
C18_2 C17_2 1_555 1_555
H14_2 C18_2 1_555 1_555
C19_4 C20_4 1_555 1_555
C20_4 C21_4 1_555 1_555
C21_4 H15_4 1_555 1_555
C22_4 C21_4 1_555 1_555
H16_4 C22_4 1_555 1_555
C23_4 C22_4 1_555 1_555
C24_4 C23_4 1_555 1_555
H17_4 C24_4 1_555 1_555
C25_4 C20_4 1_555 1_555
H18_4 C25_4 1_555 1_555
C26_4 C27_4 1_555 1_555
C27_4 H19_4 1_555 1_555
H21_4 C30_4 1_555 1_555
C31_4 C26_4 1_555 1_555
H22_4 C31_4 1_555 1_555
C38_2 C37_2 1_555 1_555
H25_2 C38_2 1_555 1_555
H26_2 C39_2 1_555 1_555
C40_2 C41_2 1_555 1_555
C41_2 H27_2 1_555 1_555
C42_2 C41_2 1_555 1_555
H28_2 C42_2 1_555 1_555
C43_2 C42_2 1_555 1_555
C44_2 C43_2 1_555 1_555
H29_2 C44_2 1_555 1_555
C45_2 C40_2 1_555 1_555
C46_2 C43_2 1_555 1_555
C52_4 C51_4 1_555 1_555
H35_4 C52_4 1_555 1_555
C53_4 C52_4 1_555 1_555
C54_4 C53_4 1_555 1_555
H36_4 C54_4 1_555 1_555
C56_4 C53_4 1_555 1_555
C57_4 C56_4 1_555 1_555
H38_4 C57_4 1_555 1_555
C58_4 C57_4 1_555 1_555
H39_4 C58_4 1_555 1_555
C59_4 C58_4 1_555 1_555
C60_4 C59_4 1_555 1_555
H40_4 C60_4 1_555 1_555
C61_4 C56_4 1_555 1_555
H41_4 C61_4 1_555 1_555
C62_4 H42_4 1_555 1_555
C63_2 C62_4 1_555 1_555
H43_2 C63_2 1_555 1_555
C64_4 H44_4 1_555 1_555
N3_2 C13_2 1_555 1_555
N4_2 C16_2 1_555 1_555
N7_4 C59_4 1_555 1_555
N8_4 Zn1_2 1_555 1_555
O1_4 Zn1_2 1_555 1_555
O2_4 C19_4 1_555 1_555
O3_4 C23_4 1_555 1_555
O8_2 C37_2 1_555 1_555
O9_2 Zn1_2 1_555 1_555
O10_2 C46_2 1_555 1_555
C14_2 C15_2 1_555 1_555
C16_2 N3_2 1_555 1_555
C17_2 N4_2 1_555 1_555
C18_2 N3_2 1_555 1_555
C19_4 O1_4 1_555 1_555
C24_4 C25_4 1_555 1_555
C26_4 O3_4 1_555 1_555
C30_4 C31_4 1_555 1_555
C38_2 C39_2 1_555 1_555
C40_2 O8_2 1_555 1_555
C44_2 C45_2 1_555 1_555
C46_2 O9_2 1_555 1_555
C60_4 C61_4 1_555 1_555
C62_4 N7_4 1_555 1_555
C63_2 N8_4 1_555 1_555
C64_4 N7_4 1_555 1_555
C64_4 N8_4 1_555 1_555
C1_2 H1_2 1_555 1_555
C2_2 C1_2 1_555 1_555
H2_2 C2_2 1_555 1_555
C4_2 C5_2 1_555 1_555
C5_2 H4_2 1_555 1_555
C6_2 C5_2 1_555 1_555
H5_2 C6_2 1_555 1_555
C9_2 C4_2 1_555 1_555
H7_2 C9_2 1_555 1_555
N2_2 C2_2 1_555 1_555
C4_2 N2_2 1_555 1_555
Zn1_3 N4_3 1_555 1_555
C1_3 H1_3 1_555 1_555
C2_3 C1_3 1_555 1_555
H2_3 C2_3 1_555 1_555
C4_3 C5_3 1_555 1_555
C5_3 H4_3 1_555 1_555
C6_3 C5_3 1_555 1_555
H5_3 C6_3 1_555 1_555
C7_3 C6_3 1_555 1_555
C8_3 C7_3 1_555 1_555
H6_3 C8_3 1_555 1_555
C9_3 C4_3 1_555 1_555
H7_3 C9_3 1_555 1_555
C10_3 C7_3 1_555 1_555
C11_3 C10_3 1_555 1_555
H8_3 C11_3 1_555 1_555
C12_3 C11_3 1_555 1_555
H9_3 C12_3 1_555 1_555
C13_3 C12_3 1_555 1_555
C14_3 C13_3 1_555 1_555
H10_3 C14_3 1_555 1_555
C15_3 C10_3 1_555 1_555
H11_3 C15_3 1_555 1_555
C16_3 H12_3 1_555 1_555
C18_3 C17_3 1_555 1_555
H14_3 C18_3 1_555 1_555
C38_3 C37_3 1_555 1_555
H25_3 C38_3 1_555 1_555
C39_3 C34_3 1_555 1_555
H26_3 C39_3 1_555 1_555
C40_3 C41_3 1_555 1_555
C41_3 H27_3 1_555 1_555
C42_3 C41_3 1_555 1_555
H28_3 C42_3 1_555 1_555
C43_3 C42_3 1_555 1_555
C44_3 C43_3 1_555 1_555
H29_3 C44_3 1_555 1_555
C45_3 C40_3 1_555 1_555
C46_3 C43_3 1_555 1_555
H43_3 C63_3 1_555 1_555
N2_3 C2_3 1_555 1_555
N3_3 C13_3 1_555 1_555
N4_3 C16_3 1_555 1_555
O8_3 C37_3 1_555 1_555
O9_3 Zn1_3 1_555 1_555
O10_3 C46_3 1_555 1_555
C4_3 N2_3 1_555 1_555
C8_3 C9_3 1_555 1_555
C14_3 C15_3 1_555 1_555
C16_3 N3_3 1_555 1_555
C17_3 N4_3 1_555 1_555
C18_3 N3_3 1_555 1_555
C38_3 C39_3 1_555 1_555
C40_3 O8_3 1_555 1_555
C44_3 C45_3 1_555 1_555
C46_3 O9_3 1_555 1_555
Zn1_4 N4_4 1_555 1_555
C1_4 H1_4 1_555 1_555
C2_4 C1_4 1_555 1_555
H2_4 C2_4 1_555 1_555
C4_4 C5_4 1_555 1_555
C5_4 H4_4 1_555 1_555
C6_4 C5_4 1_555 1_555
H5_4 C6_4 1_555 1_555
C7_4 C6_4 1_555 1_555
C8_4 C7_4 1_555 1_555
H6_4 C8_4 1_555 1_555
C9_4 C4_4 1_555 1_555
H7_4 C9_4 1_555 1_555
C10_4 C7_4 1_555 1_555
C11_4 C10_4 1_555 1_555
H8_4 C11_4 1_555 1_555
C12_4 C11_4 1_555 1_555
H9_4 C12_4 1_555 1_555
C13_4 C12_4 1_555 1_555
C14_4 C13_4 1_555 1_555
H10_4 C14_4 1_555 1_555
C15_4 C10_4 1_555 1_555
H11_4 C15_4 1_555 1_555
C16_4 H12_4 1_555 1_555
C18_4 C17_4 1_555 1_555
H14_4 C18_4 1_555 1_555
C38_4 C37_4 1_555 1_555
H25_4 C38_4 1_555 1_555
C39_4 C34_4 1_555 1_555
H26_4 C39_4 1_555 1_555
C40_4 C41_4 1_555 1_555
C41_4 H27_4 1_555 1_555
C42_4 C41_4 1_555 1_555
H28_4 C42_4 1_555 1_555
C43_4 C42_4 1_555 1_555
C44_4 C43_4 1_555 1_555
H29_4 C44_4 1_555 1_555
C45_4 C40_4 1_555 1_555
C46_4 C43_4 1_555 1_555
H43_4 C63_4 1_555 1_555
N2_4 C2_4 1_555 1_555
N3_4 C13_4 1_555 1_555
N4_4 C16_4 1_555 1_555
O8_4 C37_4 1_555 1_555
O9_4 Zn1_4 1_555 1_555
O10_4 C46_4 1_555 1_555
C4_4 N2_4 1_555 1_555
C8_4 C9_4 1_555 1_555
C14_4 C15_4 1_555 1_555
C16_4 N3_4 1_555 1_555
C17_4 N4_4 1_555 1_555
C18_4 N3_4 1_555 1_555
C38_4 C39_4 1_555 1_555
C40_4 O8_4 1_555 1_555
C44_4 C45_4 1_555 1_555
C46_4 O9_4 1_555 1_555

#END
