
###############################################################################
#
# This file contains modified crystal structure data generated from the
# MOF subset of the Cambridge Structural Database (CSD) v543 
# hosted by the Cambridge Crystallographic Data Centre (CCDC).
#
# This work is licensed under the Creative Commons
# Attribution-NonCommercial-ShareAlike 4.0 International License.
# To view a copy of this license, visit
# http://creativecommons.org/licenses/by-nc-sa/4.0/
# or send a letter to
# Creative Commons, PO Box 1866, Mountain View, CA 94042, USA.
#
# CIF created using the CSD Python API on 29 September 2022
# The structure has been converted into the P1 space group
# The structure has a 3D framework
# The original CSD entry OCUGEZ01 is in the triclinic crystal system
# The framework has been calculated to contain at least 10.0% void space
# The void calculation uses a probe of radius 1.32A, grid spacing 0.4
#
###############################################################################

data_OCUGEZ01
_chemical_formula_moiety         '(C18 H32 Nd2 O14)n'
_symmetry_cell_setting           triclinic
_symmetry_space_group_name_H-M   'P 1'
_symmetry_Int_Tables_number      1
_space_group_name_Hall           'P 1'
loop_
_symmetry_equiv_pos_site_id
_symmetry_equiv_pos_as_xyz
1 x,y,z
_cell_length_a                   8.6742(14)
_cell_length_b                   9.9686(16)
_cell_length_c                   11.756(2)
_cell_angle_alpha                74.810(19)
_cell_angle_beta                 69.699(18)
_cell_angle_gamma                85.930(19)
_cell_volume                     919.86
loop_
_atom_site_label
_atom_site_type_symbol
_atom_site_fract_x
_atom_site_fract_y
_atom_site_fract_z
_atom_site_U_iso_or_equiv
_atom_site_thermal_displace_type
H12 H 0.0348 0.0212 0.6034 0.0540 Uiso
O15 O 0.0679(4) 0.4648(3) 0.3895(3) 0.0137 Uani
H25 H 0.2784 0.0304 0.4009 0.0540 Uiso
H26 H 0.2448 0.0158 0.2821 0.0540 Uiso
C18 C 0.0330(8) 0.0221(5) 0.4281(5) 0.0347 Uani
H27 H 0.0240 0.1220 0.4005 0.0540 Uiso
Nd6 Nd 0.25445(3) 0.52242(2) 0.48809(2) 0.0099 Uani
O11 O 0.0990(4) 0.6164(3) 0.6812(3) 0.0154 Uani
C16 C 0.2387(6) 0.8292(4) 0.4071(4) 0.0183 Uani
O19 O 0.1373(4) 0.7471(3) 0.4016(3) 0.0192 Uani
O21 O 0.3576(4) 0.7816(3) 0.4410(3) 0.0227 Uani
C17 C 0.2102(7) 0.9831(4) 0.3727(5) 0.0310 Uani
C4 C 0.1542(6) 0.3849(5) 0.0830(4) 0.0226 Uani
H5 H 0.0851 0.4608 0.0607 0.0540 Uiso
H6 H 0.0946 0.2984 0.1028 0.0540 Uiso
C5 C 0.1897(6) 0.3967(5) 0.1967(4) 0.0220 Uani
H7 H 0.2655 0.4747 0.1713 0.0540 Uiso
H8 H 0.2456 0.3135 0.2244 0.0540 Uiso
C6 C 0.0443(5) 0.4157(4) 0.3075(3) 0.0114 Uani
Nd1 Nd 0.74555(3) 0.47758(2) 0.51191(2) 0.0099 Uani
C1 C 0.4351(5) 0.4126(4) 0.7368(3) 0.0110 Uani
O1 O 0.5754(4) 0.3927(3) 0.7464(2) 0.0167 Uani
O2 O 0.4228(4) 0.4557(3) 0.6280(2) 0.0140 Uani
C2 C 0.2825(6) 0.3886(5) 0.8514(4) 0.0202 Uani
H1 H 0.2327 0.2998 0.8625 0.0540 Uiso
H2 H 0.2046 0.4603 0.8373 0.0540 Uiso
C3 C 0.3120(6) 0.3890(5) 0.9716(4) 0.0222 Uani
H3 H 0.3755 0.4720 0.9569 0.0540 Uiso
H4 H 0.3769 0.3092 0.9925 0.0540 Uiso
C7 C 0.7613(6) 0.1708(4) 0.5929(4) 0.0183 Uani
O5 O 0.8627(4) 0.2529(3) 0.5984(3) 0.0192 Uani
O6 O 0.6424(4) 0.2184(3) 0.5590(3) 0.0227 Uani
C8 C 0.7898(7) 0.0169(4) 0.6273(5) 0.0310 Uani
O7 O 0.8718(5) 0.7021(3) 0.3470(3) 0.0218 Uani
O8 O 0.6253(5) 0.6970(3) 0.5882(3) 0.0243 Uani
H13 H 0.810(9) 0.767(6) 0.352(9) 0.0900 Uiso
H14 H 0.643(10) 0.771(4) 0.535(5) 0.0600 Uiso
H15 H 0.539(4) 0.693(5) 0.646(4) 0.0230 Uiso
H16 H 0.959(5) 0.717(6) 0.353(6) 0.0410 Uiso
C10 C 0.5649(5) 0.5874(4) 0.2632(3) 0.0110 Uani
O9 O 0.4246(4) 0.6073(3) 0.2536(2) 0.0167 Uani
O10 O 0.5772(4) 0.5443(3) 0.3720(2) 0.0140 Uani
C11 C 0.7175(6) 0.6114(5) 0.1486(4) 0.0202 Uani
H17 H 0.7673 0.7002 0.1375 0.0540 Uiso
H18 H 0.7954 0.5397 0.1627 0.0540 Uiso
C12 C 0.6880(6) 0.6110(5) 0.0284(4) 0.0222 Uani
H19 H 0.6245 0.5280 0.0431 0.0540 Uiso
H20 H 0.6231 0.6908 0.0075 0.0540 Uiso
O12 O 0.9010(4) 0.3836(3) 0.3188(3) 0.0154 Uani
O16 O 0.9321(4) 0.5352(3) 0.6105(3) 0.0137 Uani
O23 O 0.1282(5) 0.2979(3) 0.6530(3) 0.0218 Uani
O24 O 0.3747(5) 0.3030(3) 0.4118(3) 0.0243 Uani
H29 H 0.190(9) 0.233(6) 0.648(9) 0.0900 Uiso
H30 H 0.357(10) 0.229(4) 0.465(5) 0.0600 Uiso
H31 H 0.461(4) 0.307(5) 0.354(4) 0.0230 Uiso
H32 H 0.041(5) 0.283(6) 0.647(6) 0.0410 Uiso
C13 C 0.8458(6) 0.6151(5) 0.9170(4) 0.0226 Uani
H21 H 0.9149 0.5392 0.9393 0.0540 Uiso
H22 H 0.9054 0.7016 0.8972 0.0540 Uiso
C14 C 0.8103(6) 0.6033(5) 0.8033(4) 0.0220 Uani
H23 H 0.7345 0.5253 0.8287 0.0540 Uiso
H24 H 0.7544 0.6865 0.7756 0.0540 Uiso
C15 C 0.9557(5) 0.5843(4) 0.6925(3) 0.0114 Uani
H9 H 0.7216 0.9696 0.5991 0.0540 Uiso
H10 H 0.7552 0.9842 0.7179 0.0540 Uiso
C9 C 0.9670(8) 0.9779(5) 0.5719(5) 0.0347 Uani
H11 H 0.9760 0.8780 0.5995 0.0540 Uiso
H28 H 0.9652 0.9788 0.3966 0.0540 Uiso
loop_
_atom_site_aniso_label
_atom_site_aniso_U_11
_atom_site_aniso_U_22
_atom_site_aniso_U_33
_atom_site_aniso_U_23
_atom_site_aniso_U_13
_atom_site_aniso_U_12
O15 0.0108 0.0225 0.0103 -0.0093 -0.0025 -0.0009
C18 0.039 0.02 0.045 -0.01 -0.015 0.011
Nd6 0.00774 0.0142 0.00848 -0.00453 -0.00256 0.00094
O11 0.0106 0.0244 0.0139 -0.0106 -0.0032 -0.0006
C16 0.014 0.018 0.02 -0.0073 -0.0004 -0.0004
O19 0.0168 0.0143 0.0286 -0.0058 -0.0103 0.0011
O21 0.0148 0.0228 0.0347 -0.0098 -0.0118 0.0006
C17 0.031 0.009 0.044 -0.004 -0.004 0.0009
C4 0.012 0.043 0.012 -0.0106 -0.0009 0.002
C5 0.01 0.044 0.014 -0.0161 -0.0008 0.004
C6 0.013 0.0145 0.0082 -0.0048 -0.0046 0.003
Nd1 0.00774 0.0142 0.00848 -0.00453 -0.00256 0.00094
C1 0.015 0.0133 0.0058 -0.0037 -0.0039 0.0005
O1 0.0117 0.0296 0.0079 -0.0039 -0.0031 0.0022
O2 0.0101 0.0241 0.0059 -0.0017 -0.0018 0.0005
C2 0.014 0.035 0.006 -0.0025 0.0018 -0.0017
C3 0.015 0.043 0.0102 -0.0132 -0.0021 0.003
C7 0.014 0.018 0.02 -0.0073 -0.0004 -0.0004
O5 0.0168 0.0143 0.0286 -0.0058 -0.0103 0.0011
O6 0.0148 0.0228 0.0347 -0.0098 -0.0118 0.0006
C8 0.031 0.009 0.044 -0.004 -0.004 0.0009
O7 0.014 0.0228 0.0275 -0.0005 -0.01 -0.0005
O8 0.025 0.0225 0.0253 -0.0094 -0.0068 0.0045
C10 0.015 0.0133 0.0058 -0.0037 -0.0039 0.0005
O9 0.0117 0.0296 0.0079 -0.0039 -0.0031 0.0022
O10 0.0101 0.0241 0.0059 -0.0017 -0.0018 0.0005
C11 0.014 0.035 0.006 -0.0025 0.0018 -0.0017
C12 0.015 0.043 0.0102 -0.0132 -0.0021 0.003
O12 0.0106 0.0244 0.0139 -0.0106 -0.0032 -0.0006
O16 0.0108 0.0225 0.0103 -0.0093 -0.0025 -0.0009
O23 0.014 0.0228 0.0275 -0.0005 -0.01 -0.0005
O24 0.025 0.0225 0.0253 -0.0094 -0.0068 0.0045
C13 0.012 0.043 0.012 -0.0106 -0.0009 0.002
C14 0.01 0.044 0.014 -0.0161 -0.0008 0.004
C15 0.013 0.0145 0.0082 -0.0048 -0.0046 0.003
C9 0.039 0.02 0.045 -0.01 -0.015 0.011
loop_
_geom_bond_atom_site_label_1
_geom_bond_atom_site_label_2
_geom_bond_site_symmetry_1
_geom_bond_site_symmetry_2
H27 C18 1_555 1_555
Nd6 O11 1_555 1_555
Nd6 O19 1_555 1_555
C16 O19 1_555 1_555
O21 Nd6 1_555 1_555
C17 C16 1_555 1_555
C16 O21 1_555 1_555
H5 C4 1_555 1_555
H6 C4 1_555 1_555
C5 C4 1_555 1_555
H7 C5 1_555 1_555
H8 C5 1_555 1_555
C6 C5 1_555 1_555
O15 C6 1_555 1_555
Nd6 O15 1_555 1_555
Nd1 O1 1_555 1_555
C1 O1 1_555 1_555
O2 Nd1 1_555 1_555
C2 C1 1_555 1_555
H1 C2 1_555 1_555
H2 C2 1_555 1_555
C3 C2 1_555 1_555
H3 C3 1_555 1_555
H4 C3 1_555 1_555
C7 O5 1_555 1_555
O5 Nd1 1_555 1_555
O6 Nd1 1_555 1_555
C8 C7 1_555 1_555
O7 Nd1 1_555 1_555
O8 Nd1 1_555 1_555
H13 O7 1_555 1_555
H14 O8 1_555 1_555
H15 O8 1_555 1_555
H16 O7 1_555 1_555
Nd6 O2 1_555 1_555
C10 O9 1_555 1_555
O9 Nd6 1_555 1_555
O10 Nd1 1_555 1_555
C11 C10 1_555 1_555
H17 C11 1_555 1_555
H18 C11 1_555 1_555
C12 C11 1_555 1_555
H19 C12 1_555 1_555
H20 C12 1_555 1_555
O12 Nd1 1_555 1_555
O16 Nd1 1_555 1_555
O23 Nd6 1_555 1_555
O24 Nd6 1_555 1_555
H29 O23 1_555 1_555
H30 O24 1_555 1_555
H31 O24 1_555 1_555
H32 O23 1_555 1_555
C1 O2 1_555 1_555
C7 O6 1_555 1_555
Nd6 O10 1_555 1_555
C10 O10 1_555 1_555
H21 C13 1_555 1_555
H22 C13 1_555 1_555
C14 C13 1_555 1_555
H23 C14 1_555 1_555
H24 C14 1_555 1_555
C15 C14 1_555 1_555
C15 O16 1_555 1_555
H11 C9 1_555 1_555

#END
