
###############################################################################
#
# This file contains modified crystal structure data generated from the
# MOF subset of the Cambridge Structural Database (CSD) v543 
# hosted by the Cambridge Crystallographic Data Centre (CCDC).
#
# This work is licensed under the Creative Commons
# Attribution-NonCommercial-ShareAlike 4.0 International License.
# To view a copy of this license, visit
# http://creativecommons.org/licenses/by-nc-sa/4.0/
# or send a letter to
# Creative Commons, PO Box 1866, Mountain View, CA 94042, USA.
#
# CIF created using the CSD Python API on 29 September 2022
# The structure has been converted into the P1 space group
# The structure has a 3D framework
# The original CSD entry OCUMUX is in the monoclinic crystal system
# The framework has been calculated to contain at least 10.0% void space
# The void calculation uses a probe of radius 1.32A, grid spacing 0.4
#
###############################################################################

data_OCUMUX
_chemical_formula_moiety         '(C168 H152 Mn16 N24 O120)n'
_symmetry_cell_setting           triclinic
_symmetry_space_group_name_H-M   'P 1'
_symmetry_Int_Tables_number      1
_space_group_name_Hall           'P 1'
loop_
_symmetry_equiv_pos_site_id
_symmetry_equiv_pos_as_xyz
1 x,y,z
_cell_length_a                   25.847(3)
_cell_length_b                   16.9043(17)
_cell_length_c                   13.2251(13)
_cell_angle_alpha                90
_cell_angle_beta                 105.900(2)
_cell_angle_gamma                90
_cell_volume                     5557.31
loop_
_atom_site_label
_atom_site_type_symbol
_atom_site_fract_x
_atom_site_fract_y
_atom_site_fract_z
Mn1 Mn 0.13609(3) 0.07142(4) 0.35519(5)
O2 O 0.07029(12) 0.00753(18) 0.3835(2)
O13 O 0.08736(14) 0.1261(2) 0.2153(3)
H5 H 0.0841 0.1056 0.1544
H6 H 0.0589 0.1500 0.2172
C17 C 0.2639(3) 0.1194(6) 0.7574(7)
H7 H 0.2446 0.1197 0.8071
C18 C 0.3292(5) 0.2118(8) 0.8719(11)
H8 H 0.3386 0.2628 0.8485
H9 H 0.3623 0.1873 0.9124
C19 C 0.2965(7) 0.2259(10) 0.9417(12)
H10 H 0.3017 0.1840 0.9926
H11 H 0.3064 0.2754 0.9773
H12 H 0.2593 0.2277 0.9022
C20 C 0.3352(4) 0.1726(7) 0.6962(11)
H13 H 0.3097 0.1645 0.6280
H14 H 0.3502 0.2254 0.6979
C21 C 0.3810(6) 0.1095(12) 0.7151(16)
H15 H 0.3670 0.0586 0.7261
H16 H 0.3949 0.1072 0.6547
H17 H 0.4094 0.1238 0.7759
Mn2 Mn 0.17446(3) 0.01080(5) 0.61609(5)
N3 N 0.3078(3) 0.1640(6) 0.7803(7)
O14 O 0.2460(2) 0.0797(4) 0.6836(4)
O17 O 0.20890(13) 0.1232(2) 0.3490(3)
O18 O 0.14980(17) 0.1175(2) 0.5187(3)
O20 O 0.13911(12) 0.03174(19) 0.7445(2)
C1 C 0.06735(16) 0.9563(3) 0.4504(3)
C2 C 0.02018(17) 0.9007(3) 0.4202(3)
C3 C 0.02475(18) 0.8243(3) 0.4612(4)
H1 H 0.0563 0.8079 0.5095
O3 O 0.10079(12) 0.94692(19) 0.5394(2)
O5 O 0.0218(2) 0.6840(3) 0.5597(5)
O15 O 0.19665(14) 0.9776(2) 0.4706(3)
H18 H 0.1866 0.9276 0.4435
H19 H 0.2313 0.9828 0.4766
O16 O 0.21495(17) 0.9107(3) 0.6895(3)
O19 O 0.13911(12) 0.96826(19) 0.2445(2)
Mn3 Mn 0.86391(3) 0.07142(4) 0.14481(5)
O1 O 0.8960(4) 0.6035(6) 0.1439(9)
C4 C 0.98195(19) 0.7734(3) 0.4293(4)
C5 C 0.93310(18) 0.7948(3) 0.3567(4)
C6 C 0.92941(17) 0.8721(3) 0.3173(3)
C7 C 0.97272(16) 0.9239(2) 0.3485(3)
H2 H 0.9698 0.9748 0.3209
C8 C 0.88362(17) 0.7447(3) 0.3355(4)
C9 C 0.86730(19) 0.6905(3) 0.2536(4)
C10 C 0.81875(19) 0.6508(3) 0.2338(4)
H3 H 0.8086 0.6158 0.1775
C11 C 0.78536(18) 0.6635(3) 0.2983(4)
C12 C 0.80141(18) 0.7163(3) 0.3823(4)
H4 H 0.7796 0.7243 0.4268
C13 C 0.84952(18) 0.7569(3) 0.3995(4)
C14 C 0.8657(2) 0.8127(3) 0.4919(4)
C15 C 0.73213(19) 0.6227(3) 0.2773(4)
C16 C 0.87906(17) 0.9004(3) 0.2371(3)
N1 N 0.9904(2) 0.6930(3) 0.4719(5)
N2 N 0.9026(2) 0.6715(3) 0.1882(5)
O4 O 0.9416(2) 0.7076(3) 0.1926(5)
O6 O 0.9659(2) 0.6385(3) 0.4202(6)
O7 O 0.71495(17) 0.5893(3) 0.1895(3)
O8 O 0.70890(13) 0.6232(2) 0.3490(3)
O9 O 0.85020(17) 0.8825(2) 0.4813(3)
O10 O 0.8958(2) 0.7872(3) 0.5759(4)
O11 O 0.86089(12) 0.96826(19) 0.2555(2)
O12 O 0.85893(14) 0.8602(2) 0.1582(3)
Mn4 Mn 0.63609(3) 0.57142(4) 0.35519(5)
Mn5 Mn 0.86391(3) 0.92858(4) 0.64481(5)
Mn6 Mn 0.82554(3) 0.98920(5) 0.38391(5)
Mn7 Mn 0.67446(3) 0.48920(5) 0.11609(5)
O1_2 O 0.1040(4) 0.6035(6) 0.3561(9)
C4_2 C 0.01805(19) 0.7734(3) 0.0707(4)
C5_2 C 0.06690(18) 0.7948(3) 0.1433(4)
C6_2 C 0.07059(17) 0.8721(3) 0.1827(3)
C7_2 C 0.02728(16) 0.9239(2) 0.1515(3)
H2_2 H 0.0302 0.9748 0.1791
C8_2 C 0.11638(17) 0.7447(3) 0.1645(4)
C9_2 C 0.13270(19) 0.6905(3) 0.2464(4)
C10_2 C 0.18125(19) 0.6508(3) 0.2662(4)
H3_2 H 0.1914 0.6158 0.3225
C11_2 C 0.21464(18) 0.6635(3) 0.2017(4)
C12_2 C 0.19859(18) 0.7163(3) 0.1177(4)
H4_2 H 0.2204 0.7243 0.0732
C13_2 C 0.15048(18) 0.7569(3) 0.1005(4)
C14_2 C 0.1343(2) 0.8127(3) 0.0081(4)
C15_2 C 0.26787(19) 0.6227(3) 0.2227(4)
C16_2 C 0.12094(17) 0.9004(3) 0.2629(3)
N1_2 N 0.0096(2) 0.6930(3) 0.0281(5)
N2_2 N 0.0974(2) 0.6715(3) 0.3118(5)
O4_2 O 0.0584(2) 0.7076(3) 0.3074(5)
O6_2 O 0.0341(2) 0.6385(3) 0.0798(6)
O7_2 O 0.28505(17) 0.5893(3) 0.3105(3)
O8_2 O 0.29110(13) 0.6232(2) 0.1510(3)
O9_2 O 0.14980(17) 0.8825(2) 0.0187(3)
O12_2 O 0.14107(14) 0.8602(2) 0.3418(3)
Mn4_2 Mn 0.36391(3) 0.57142(4) 0.14481(5)
Mn6_2 Mn 0.17446(3) 0.98920(5) 0.11609(5)
Mn7_2 Mn 0.32554(3) 0.48920(5) 0.38391(5)
O10_2 O 0.1042(2) 0.7872(3) 0.9241(4)
Mn5_2 Mn 0.13609(3) 0.92858(4) 0.85519(5)
O2_2 O 0.92971(12) 0.00753(18) 0.1165(2)
O13_2 O 0.91264(14) 0.1261(2) 0.2847(3)
H5_2 H 0.9159 0.1056 0.3456
H6_2 H 0.9411 0.1500 0.2828
O17_2 O 0.79110(13) 0.1232(2) 0.1510(3)
C17_2 C 0.7361(3) 0.1194(6) 0.7426(7)
H7_2 H 0.7554 0.1197 0.6929
C18_2 C 0.6708(5) 0.2118(8) 0.6281(11)
H8_2 H 0.6614 0.2628 0.6515
H9_2 H 0.6377 0.1873 0.5876
C19_2 C 0.7035(7) 0.2259(10) 0.5583(12)
H10_2 H 0.6983 0.1840 0.5074
H11_2 H 0.6936 0.2754 0.5227
H12_2 H 0.7407 0.2277 0.5978
C20_2 C 0.6648(4) 0.1726(7) 0.8038(11)
H13_2 H 0.6903 0.1645 0.8720
H14_2 H 0.6498 0.2254 0.8021
C21_2 C 0.6190(6) 0.1095(12) 0.7849(16)
H15_2 H 0.6330 0.0586 0.7739
H16_2 H 0.6051 0.1072 0.8453
H17_2 H 0.5906 0.1238 0.7241
Mn2_2 Mn 0.82554(3) 0.01080(5) 0.88391(5)
N3_2 N 0.6922(3) 0.1640(6) 0.7197(7)
O14_2 O 0.7540(2) 0.0797(4) 0.8164(4)
O18_2 O 0.85020(17) 0.1175(2) 0.9813(3)
O20_2 O 0.86089(12) 0.03174(19) 0.7555(2)
C1_2 C 0.93265(16) 0.9563(3) 0.0496(3)
C2_2 C 0.97982(17) 0.9007(3) 0.0798(3)
C3_2 C 0.97525(18) 0.8243(3) 0.0388(4)
O15_2 O 0.80335(14) 0.9776(2) 0.0294(3)
H18_2 H 0.8134 0.9276 0.0565
H19_2 H 0.7687 0.9828 0.0234
H1_2 H 0.9437 0.8079 0.9905
O3_2 O 0.89921(12) 0.94692(19) 0.9606(2)
O5_2 O 0.9782(2) 0.6840(3) 0.9403(5)
O16_2 O 0.78505(17) 0.9107(3) 0.8105(3)
O1_3 O 0.3960(4) 0.1035(6) 0.1439(9)
C1_3 C 0.56735(16) 0.4563(3) 0.4504(3)
C2_3 C 0.52018(17) 0.4007(3) 0.4202(3)
C3_3 C 0.52475(18) 0.3243(3) 0.4612(4)
H1_3 H 0.5563 0.3079 0.5095
C4_3 C 0.48195(19) 0.2734(3) 0.4293(4)
C5_3 C 0.43310(18) 0.2948(3) 0.3567(4)
C6_3 C 0.42941(17) 0.3721(3) 0.3173(3)
C7_3 C 0.47272(16) 0.4239(2) 0.3485(3)
H2_3 H 0.4698 0.4748 0.3209
C8_3 C 0.38362(17) 0.2447(3) 0.3355(4)
C9_3 C 0.36730(19) 0.1905(3) 0.2536(4)
C10_3 C 0.31875(19) 0.1508(3) 0.2338(4)
H3_3 H 0.3086 0.1158 0.1775
C11_3 C 0.28536(18) 0.1635(3) 0.2983(4)
C12_3 C 0.30141(18) 0.2163(3) 0.3823(4)
H4_3 H 0.2796 0.2243 0.4268
C13_3 C 0.34952(18) 0.2569(3) 0.3995(4)
C14_3 C 0.3657(2) 0.3127(3) 0.4919(4)
C15_3 C 0.23213(19) 0.1227(3) 0.2773(4)
C16_3 C 0.37906(17) 0.4004(3) 0.2371(3)
N1_3 N 0.4904(2) 0.1930(3) 0.4719(5)
N2_3 N 0.4026(2) 0.1715(3) 0.1882(5)
O2_3 O 0.57029(12) 0.50753(18) 0.3835(2)
O3_3 O 0.60079(12) 0.44692(19) 0.5394(2)
O4_3 O 0.4416(2) 0.2076(3) 0.1926(5)
O5_3 O 0.5218(2) 0.1840(3) 0.5597(5)
O6_3 O 0.4659(2) 0.1385(3) 0.4202(6)
O7_3 O 0.21495(17) 0.0893(3) 0.1895(3)
O9_3 O 0.35020(17) 0.3825(2) 0.4813(3)
O10_3 O 0.3958(2) 0.2872(3) 0.5759(4)
O11_2 O 0.36089(12) 0.46826(19) 0.2555(2)
O12_3 O 0.35893(14) 0.3602(2) 0.1582(3)
O13_3 O 0.58736(14) 0.6261(2) 0.2153(3)
H5_3 H 0.5841 0.6056 0.1544
H6_3 H 0.5589 0.6500 0.2172
C17_3 C 0.7639(3) 0.6194(6) 0.7574(7)
H7_3 H 0.7446 0.6197 0.8071
C18_3 C 0.8292(5) 0.7118(8) 0.8719(11)
H8_3 H 0.8386 0.7628 0.8485
H9_3 H 0.8623 0.6873 0.9124
C19_3 C 0.7965(7) 0.7259(10) 0.9417(12)
H10_3 H 0.8017 0.6840 0.9926
H11_3 H 0.8064 0.7754 0.9773
H12_3 H 0.7593 0.7277 0.9022
C20_3 C 0.8352(4) 0.6726(7) 0.6962(11)
H13_3 H 0.8097 0.6645 0.6280
H14_3 H 0.8502 0.7254 0.6979
C21_3 C 0.8810(6) 0.6095(12) 0.7151(16)
H15_3 H 0.8670 0.5586 0.7261
H16_3 H 0.8949 0.6072 0.6547
H17_3 H 0.9094 0.6238 0.7759
Mn2_3 Mn 0.67446(3) 0.51080(5) 0.61609(5)
N3_3 N 0.8078(3) 0.6640(6) 0.7803(7)
O14_3 O 0.7460(2) 0.5797(4) 0.6836(4)
O15_3 O 0.69665(14) 0.4776(2) 0.4706(3)
H18_3 H 0.6866 0.4276 0.4435
H19_3 H 0.7313 0.4828 0.4766
Mn5_3 Mn 0.36391(3) 0.42858(4) 0.64481(5)
O16_3 O 0.71495(17) 0.4107(3) 0.6895(3)
O18_3 O 0.64980(17) 0.6175(2) 0.5187(3)
O19_2 O 0.63911(12) 0.46826(19) 0.2445(2)
O20_3 O 0.63911(12) 0.53174(19) 0.7445(2)
O1_4 O 0.6040(4) 0.1035(6) 0.3561(9)
C1_4 C 0.43265(16) 0.4563(3) 0.0496(3)
C2_4 C 0.47982(17) 0.4007(3) 0.0798(3)
C3_4 C 0.47525(18) 0.3243(3) 0.0388(4)
C4_4 C 0.51805(19) 0.2734(3) 0.0707(4)
C5_4 C 0.56690(18) 0.2948(3) 0.1433(4)
C6_4 C 0.57059(17) 0.3721(3) 0.1827(3)
C7_4 C 0.52728(16) 0.4239(2) 0.1515(3)
H2_4 H 0.5302 0.4748 0.1791
C8_4 C 0.61638(17) 0.2447(3) 0.1645(4)
C9_4 C 0.63270(19) 0.1905(3) 0.2464(4)
C10_4 C 0.68125(19) 0.1508(3) 0.2662(4)
H3_4 H 0.6914 0.1158 0.3225
C11_4 C 0.71464(18) 0.1635(3) 0.2017(4)
C12_4 C 0.69859(18) 0.2163(3) 0.1177(4)
H4_4 H 0.7204 0.2243 0.0732
C13_4 C 0.65048(18) 0.2569(3) 0.1005(4)
C14_4 C 0.6343(2) 0.3127(3) 0.0081(4)
C15_4 C 0.76787(19) 0.1227(3) 0.2227(4)
C16_4 C 0.62094(17) 0.4004(3) 0.2629(3)
N1_4 N 0.5096(2) 0.1930(3) 0.0281(5)
N2_4 N 0.5974(2) 0.1715(3) 0.3118(5)
O2_4 O 0.42971(12) 0.50753(18) 0.1165(2)
O4_4 O 0.5584(2) 0.2076(3) 0.3074(5)
O6_4 O 0.5341(2) 0.1385(3) 0.0798(6)
O7_4 O 0.78505(17) 0.0893(3) 0.3105(3)
O9_4 O 0.64980(17) 0.3825(2) 0.0187(3)
O12_4 O 0.64107(14) 0.3602(2) 0.3418(3)
O13_4 O 0.41264(14) 0.6261(2) 0.2847(3)
H5_4 H 0.4159 0.6056 0.3456
H6_4 H 0.4411 0.6500 0.2828
O15_4 O 0.30335(14) 0.4776(2) 0.0294(3)
H18_4 H 0.3134 0.4276 0.0565
H19_4 H 0.2687 0.4828 0.0234
H1_4 H 0.4437 0.3079 0.9905
O3_4 O 0.39921(12) 0.44692(19) 0.9606(2)
O5_4 O 0.4782(2) 0.1840(3) 0.9403(5)
O10_4 O 0.6042(2) 0.2872(3) 0.9241(4)
C17_4 C 0.2361(3) 0.6194(6) 0.7426(7)
H7_4 H 0.2554 0.6197 0.6929
C18_4 C 0.1708(5) 0.7118(8) 0.6281(11)
H8_4 H 0.1614 0.7628 0.6515
H9_4 H 0.1377 0.6873 0.5876
C19_4 C 0.2035(7) 0.7259(10) 0.5583(12)
H10_4 H 0.1983 0.6840 0.5074
H11_4 H 0.1936 0.7754 0.5227
H12_4 H 0.2407 0.7277 0.5978
C20_4 C 0.1648(4) 0.6726(7) 0.8038(11)
H13_4 H 0.1903 0.6645 0.8720
H14_4 H 0.1498 0.7254 0.8021
C21_4 C 0.1190(6) 0.6095(12) 0.7849(16)
H15_4 H 0.1330 0.5586 0.7739
H16_4 H 0.1051 0.6072 0.8453
H17_4 H 0.0906 0.6238 0.7241
Mn2_4 Mn 0.32554(3) 0.51080(5) 0.88391(5)
N3_4 N 0.1922(3) 0.6640(6) 0.7197(7)
O14_4 O 0.2540(2) 0.5797(4) 0.8164(4)
Mn5_4 Mn 0.63609(3) 0.42858(4) 0.85519(5)
O16_4 O 0.28505(17) 0.4107(3) 0.8105(3)
O18_4 O 0.35020(17) 0.6175(2) 0.9813(3)
O20_4 O 0.36089(12) 0.53174(19) 0.7555(2)
O1_5 O 0.1040(4) 0.3965(6) 0.8561(9)
C4_5 C 0.01805(19) 0.2266(3) 0.5707(4)
C5_5 C 0.06690(18) 0.2052(3) 0.6433(4)
C6_5 C 0.07059(17) 0.1279(3) 0.6827(3)
C7_5 C 0.02728(16) 0.0761(2) 0.6515(3)
H2_5 H 0.0302 0.0252 0.6791
C8_5 C 0.11638(17) 0.2553(3) 0.6645(4)
C9_5 C 0.13270(19) 0.3095(3) 0.7464(4)
C10_5 C 0.18125(19) 0.3492(3) 0.7662(4)
H3_5 H 0.1914 0.3842 0.8225
C11_5 C 0.21464(18) 0.3365(3) 0.7017(4)
C12_5 C 0.19859(18) 0.2837(3) 0.6177(4)
H4_5 H 0.2204 0.2757 0.5732
C13_5 C 0.15048(18) 0.2431(3) 0.6005(4)
C14_5 C 0.1343(2) 0.1873(3) 0.5081(4)
C15_5 C 0.26787(19) 0.3773(3) 0.7227(4)
C16_5 C 0.12094(17) 0.0996(3) 0.7629(3)
N1_5 N 0.0096(2) 0.3070(3) 0.5281(5)
N2_5 N 0.0974(2) 0.3285(3) 0.8118(5)
O4_5 O 0.0584(2) 0.2924(3) 0.8074(5)
O6_5 O 0.0341(2) 0.3615(3) 0.5798(6)
O8_3 O 0.29110(13) 0.3768(2) 0.6510(3)
O10_5 O 0.1042(2) 0.2128(3) 0.4241(4)
O12_5 O 0.14107(14) 0.1398(2) 0.8418(3)
C1_5 C 0.93265(16) 0.0437(3) 0.5496(3)
C2_5 C 0.97982(17) 0.0993(3) 0.5798(3)
C3_5 C 0.97525(18) 0.1757(3) 0.5388(4)
H1_5 H 0.9437 0.1921 0.4905
O3_5 O 0.89921(12) 0.05308(19) 0.4606(2)
O5_5 O 0.9782(2) 0.3160(3) 0.4403(5)
O15_5 O 0.80335(14) 0.0224(2) 0.5294(3)
H18_5 H 0.8134 0.0724 0.5565
H19_5 H 0.7687 0.0172 0.5234
O2_5 O 0.92971(12) 0.99247(18) 0.6165(2)
O13_5 O 0.91264(14) 0.8739(2) 0.7847(3)
H5_5 H 0.9159 0.8944 0.8456
H6_5 H 0.9411 0.8500 0.7828
C17_5 C 0.7361(3) 0.8806(6) 0.2426(7)
H7_5 H 0.7554 0.8803 0.1929
C18_5 C 0.6708(5) 0.7882(8) 0.1281(11)
H8_5 H 0.6614 0.7372 0.1515
H9_5 H 0.6377 0.8127 0.0876
C19_5 C 0.7035(7) 0.7741(10) 0.0583(12)
H10_5 H 0.6983 0.8160 0.0074
H11_5 H 0.6936 0.7246 0.0227
H12_5 H 0.7407 0.7723 0.0978
C20_5 C 0.6648(4) 0.8274(7) 0.3038(11)
H13_5 H 0.6903 0.8355 0.3720
H14_5 H 0.6498 0.7746 0.3021
C21_5 C 0.6190(6) 0.8905(12) 0.2849(16)
H15_5 H 0.6330 0.9414 0.2739
H16_5 H 0.6051 0.8928 0.3453
H17_5 H 0.5906 0.8762 0.2241
N3_5 N 0.6922(3) 0.8360(6) 0.2197(7)
O14_5 O 0.7540(2) 0.9203(4) 0.3164(4)
O17_3 O 0.79110(13) 0.8768(2) 0.6510(3)
H1_6 H 0.0563 0.1921 0.0095
O3_6 O 0.10079(12) 0.05308(19) 0.0394(2)
O5_6 O 0.0218(2) 0.3160(3) 0.0597(5)
C1_6 C 0.06735(16) 0.0437(3) 0.9504(3)
C2_6 C 0.02018(17) 0.0993(3) 0.9202(3)
C3_6 C 0.02475(18) 0.1757(3) 0.9612(4)
O15_6 O 0.19665(14) 0.0224(2) 0.9706(3)
H18_6 H 0.1866 0.0724 0.9435
H19_6 H 0.2313 0.0172 0.9766
C17_6 C 0.2639(3) 0.8806(6) 0.2574(7)
H7_6 H 0.2446 0.8803 0.3071
C18_6 C 0.3292(5) 0.7882(8) 0.3719(11)
H8_6 H 0.3386 0.7372 0.3485
H9_6 H 0.3623 0.8127 0.4124
C19_6 C 0.2965(7) 0.7741(10) 0.4417(12)
H10_6 H 0.3017 0.8160 0.4926
H11_6 H 0.3064 0.7246 0.4773
H12_6 H 0.2593 0.7723 0.4022
C20_6 C 0.3352(4) 0.8274(7) 0.1962(11)
H13_6 H 0.3097 0.8355 0.1280
H14_6 H 0.3502 0.7746 0.1979
C21_6 C 0.3810(6) 0.8905(12) 0.2151(16)
H15_6 H 0.3670 0.9414 0.2261
H16_6 H 0.3949 0.8928 0.1547
H17_6 H 0.4094 0.8762 0.2759
N3_6 N 0.3078(3) 0.8360(6) 0.2803(7)
O14_6 O 0.2460(2) 0.9203(4) 0.1836(4)
O2_6 O 0.07029(12) 0.99247(18) 0.8835(2)
O13_6 O 0.08736(14) 0.8739(2) 0.7153(3)
H5_6 H 0.0841 0.8944 0.6544
H6_6 H 0.0589 0.8500 0.7172
O17_4 O 0.20890(13) 0.8768(2) 0.8490(3)
O10_6 O 0.8958(2) 0.2128(3) 0.0759(4)
O1_6 O 0.8960(4) 0.3965(6) 0.6439(9)
C4_6 C 0.98195(19) 0.2266(3) 0.9293(4)
C5_6 C 0.93310(18) 0.2052(3) 0.8567(4)
C6_6 C 0.92941(17) 0.1279(3) 0.8173(3)
C7_6 C 0.97272(16) 0.0761(2) 0.8485(3)
H2_6 H 0.9698 0.0252 0.8209
C8_6 C 0.88362(17) 0.2553(3) 0.8355(4)
C9_6 C 0.86730(19) 0.3095(3) 0.7536(4)
C10_6 C 0.81875(19) 0.3492(3) 0.7338(4)
H3_6 H 0.8086 0.3842 0.6775
C11_6 C 0.78536(18) 0.3365(3) 0.7983(4)
C12_6 C 0.80141(18) 0.2837(3) 0.8823(4)
H4_6 H 0.7796 0.2757 0.9268
C13_6 C 0.84952(18) 0.2431(3) 0.8995(4)
C14_6 C 0.8657(2) 0.1873(3) 0.9919(4)
C15_6 C 0.73213(19) 0.3773(3) 0.7773(4)
C16_6 C 0.87906(17) 0.0996(3) 0.7371(3)
N1_6 N 0.9904(2) 0.3070(3) 0.9719(5)
N2_6 N 0.9026(2) 0.3285(3) 0.6882(5)
O4_6 O 0.9416(2) 0.2924(3) 0.6926(5)
O6_6 O 0.9659(2) 0.3615(3) 0.9202(6)
O8_4 O 0.70890(13) 0.3768(2) 0.8490(3)
O12_6 O 0.85893(14) 0.1398(2) 0.6582(3)
O1_7 O 0.6040(4) 0.8965(6) 0.8561(9)
C1_7 C 0.43265(16) 0.5437(3) 0.5496(3)
C2_7 C 0.47982(17) 0.5993(3) 0.5798(3)
C3_7 C 0.47525(18) 0.6757(3) 0.5388(4)
H1_7 H 0.4437 0.6921 0.4905
C4_7 C 0.51805(19) 0.7266(3) 0.5707(4)
C5_7 C 0.56690(18) 0.7052(3) 0.6433(4)
C6_7 C 0.57059(17) 0.6279(3) 0.6827(3)
C7_7 C 0.52728(16) 0.5761(2) 0.6515(3)
H2_7 H 0.5302 0.5252 0.6791
C8_7 C 0.61638(17) 0.7553(3) 0.6645(4)
C9_7 C 0.63270(19) 0.8095(3) 0.7464(4)
C10_7 C 0.68125(19) 0.8492(3) 0.7662(4)
H3_7 H 0.6914 0.8842 0.8225
C11_7 C 0.71464(18) 0.8365(3) 0.7017(4)
C12_7 C 0.69859(18) 0.7837(3) 0.6177(4)
H4_7 H 0.7204 0.7757 0.5732
C13_7 C 0.65048(18) 0.7431(3) 0.6005(4)
C14_7 C 0.6343(2) 0.6873(3) 0.5081(4)
C15_7 C 0.76787(19) 0.8773(3) 0.7227(4)
C16_7 C 0.62094(17) 0.5996(3) 0.7629(3)
N1_7 N 0.5096(2) 0.8070(3) 0.5281(5)
N2_7 N 0.5974(2) 0.8285(3) 0.8118(5)
O2_7 O 0.42971(12) 0.49247(18) 0.6165(2)
O3_7 O 0.39921(12) 0.55308(19) 0.4606(2)
O4_7 O 0.5584(2) 0.7924(3) 0.8074(5)
O5_7 O 0.4782(2) 0.8160(3) 0.4403(5)
O6_7 O 0.5341(2) 0.8615(3) 0.5798(6)
O10_7 O 0.6042(2) 0.7128(3) 0.4241(4)
O12_7 O 0.64107(14) 0.6398(2) 0.8418(3)
O13_7 O 0.41264(14) 0.3739(2) 0.7847(3)
H5_7 H 0.4159 0.3944 0.8456
H6_7 H 0.4411 0.3500 0.7828
C17_7 C 0.2361(3) 0.3806(6) 0.2426(7)
H7_7 H 0.2554 0.3803 0.1929
C18_7 C 0.1708(5) 0.2882(8) 0.1281(11)
H8_7 H 0.1614 0.2372 0.1515
H9_7 H 0.1377 0.3127 0.0876
C19_7 C 0.2035(7) 0.2741(10) 0.0583(12)
H10_7 H 0.1983 0.3160 0.0074
H11_7 H 0.1936 0.2246 0.0227
H12_7 H 0.2407 0.2723 0.0978
C20_7 C 0.1648(4) 0.3274(7) 0.3038(11)
H13_7 H 0.1903 0.3355 0.3720
H14_7 H 0.1498 0.2746 0.3021
C21_7 C 0.1190(6) 0.3905(12) 0.2849(16)
H15_7 H 0.1330 0.4414 0.2739
H16_7 H 0.1051 0.3928 0.3453
H17_7 H 0.0906 0.3762 0.2241
N3_7 N 0.1922(3) 0.3360(6) 0.2197(7)
O14_7 O 0.2540(2) 0.4203(4) 0.3164(4)
O15_7 O 0.30335(14) 0.5224(2) 0.5294(3)
H18_7 H 0.3134 0.5724 0.5565
H19_7 H 0.2687 0.5172 0.5234
H1_8 H 0.5563 0.6921 0.0095
O3_8 O 0.60079(12) 0.55308(19) 0.0394(2)
O5_8 O 0.5218(2) 0.8160(3) 0.0597(5)
O10_8 O 0.3958(2) 0.7128(3) 0.0759(4)
C17_8 C 0.7639(3) 0.3806(6) 0.2574(7)
H7_8 H 0.7446 0.3803 0.3071
C18_8 C 0.8292(5) 0.2882(8) 0.3719(11)
H8_8 H 0.8386 0.2372 0.3485
H9_8 H 0.8623 0.3127 0.4124
C19_8 C 0.7965(7) 0.2741(10) 0.4417(12)
H10_8 H 0.8017 0.3160 0.4926
H11_8 H 0.8064 0.2246 0.4773
H12_8 H 0.7593 0.2723 0.4022
C20_8 C 0.8352(4) 0.3274(7) 0.1962(11)
H13_8 H 0.8097 0.3355 0.1280
H14_8 H 0.8502 0.2746 0.1979
C21_8 C 0.8810(6) 0.3905(12) 0.2151(16)
H15_8 H 0.8670 0.4414 0.2261
H16_8 H 0.8949 0.3928 0.1547
H17_8 H 0.9094 0.3762 0.2759
N3_8 N 0.8078(3) 0.3360(6) 0.2803(7)
O14_8 O 0.7460(2) 0.4203(4) 0.1836(4)
O1_8 O 0.3960(4) 0.8965(6) 0.6439(9)
C1_8 C 0.56735(16) 0.5437(3) 0.9504(3)
C2_8 C 0.52018(17) 0.5993(3) 0.9202(3)
C3_8 C 0.52475(18) 0.6757(3) 0.9612(4)
C4_8 C 0.48195(19) 0.7266(3) 0.9293(4)
C5_8 C 0.43310(18) 0.7052(3) 0.8567(4)
C6_8 C 0.42941(17) 0.6279(3) 0.8173(3)
C7_8 C 0.47272(16) 0.5761(2) 0.8485(3)
H2_8 H 0.4698 0.5252 0.8209
C8_8 C 0.38362(17) 0.7553(3) 0.8355(4)
C9_8 C 0.36730(19) 0.8095(3) 0.7536(4)
C10_8 C 0.31875(19) 0.8492(3) 0.7338(4)
H3_8 H 0.3086 0.8842 0.6775
C11_8 C 0.28536(18) 0.8365(3) 0.7983(4)
C12_8 C 0.30141(18) 0.7837(3) 0.8823(4)
H4_8 H 0.2796 0.7757 0.9268
C13_8 C 0.34952(18) 0.7431(3) 0.8995(4)
C14_8 C 0.3657(2) 0.6873(3) 0.9919(4)
C15_8 C 0.23213(19) 0.8773(3) 0.7773(4)
C16_8 C 0.37906(17) 0.5996(3) 0.7371(3)
N1_8 N 0.4904(2) 0.8070(3) 0.9719(5)
N2_8 N 0.4026(2) 0.8285(3) 0.6882(5)
O2_8 O 0.57029(12) 0.49247(18) 0.8835(2)
O4_8 O 0.4416(2) 0.7924(3) 0.6926(5)
O6_8 O 0.4659(2) 0.8615(3) 0.9202(6)
O12_8 O 0.35893(14) 0.6398(2) 0.6582(3)
O13_8 O 0.58736(14) 0.3739(2) 0.7153(3)
H5_8 H 0.5841 0.3944 0.6544
H6_8 H 0.5589 0.3500 0.7172
O15_8 O 0.69665(14) 0.5224(2) 0.9706(3)
H18_8 H 0.6866 0.5724 0.9435
H19_8 H 0.7313 0.5172 0.9766
loop_
_geom_bond_atom_site_label_1
_geom_bond_atom_site_label_2
_geom_bond_site_symmetry_1
_geom_bond_site_symmetry_2
Mn1 O2 1_555 1_555
O13 Mn1 1_555 1_555
H5 O13 1_555 1_555
H6 O13 1_555 1_555
C17 H7 1_555 1_555
C18 H8 1_555 1_555
H9 C18 1_555 1_555
C19 C18 1_555 1_555
H10 C19 1_555 1_555
H11 C19 1_555 1_555
H12 C19 1_555 1_555
C20 H13 1_555 1_555
H14 C20 1_555 1_555
C21 C20 1_555 1_555
H15 C21 1_555 1_555
H16 C21 1_555 1_555
H17 C21 1_555 1_555
N3 C17 1_555 1_555
O14 C17 1_555 1_555
O17 Mn1 1_555 1_555
O18 Mn1 1_555 1_555
O20 Mn2 1_555 1_555
C18 N3 1_555 1_555
C20 N3 1_555 1_555
Mn2 O14 1_555 1_555
Mn2 O18 1_555 1_555
C1 C2 1_555 1_555
C2 C3 1_555 1_555
C3 H1 1_555 1_555
O3 C1 1_555 1_555
H18 O15 1_555 1_555
H19 O15 1_555 1_555
O1 N2 1_555 1_555
C5 C4 1_555 1_555
C6 C5 1_555 1_555
H2 C7 1_555 1_555
C8 C5 1_555 1_555
C9 C8 1_555 1_555
C10 C9 1_555 1_555
H3 C10 1_555 1_555
C11 C10 1_555 1_555
C12 C11 1_555 1_555
H4 C12 1_555 1_555
C13 C8 1_555 1_555
C14 C13 1_555 1_555
C15 C11 1_555 1_555
C16 C6 1_555 1_555
N1 C4 1_555 1_555
N2 C9 1_555 1_555
O4 N2 1_555 1_555
O6 N1 1_555 1_555
O7 C15 1_555 1_555
O8 C15 1_555 1_555
O9 C14 1_555 1_555
O10 C14 1_555 1_555
O11 C16 1_555 1_555
O12 C16 1_555 1_555
Mn4 O8 1_555 1_555
Mn5 O9 1_555 1_555
Mn6 O9 1_555 1_555
Mn7 O7 1_555 1_555
C6 C7 1_555 1_555
C12 C13 1_555 1_555
O11 Mn6 1_555 1_555
O1_2 N2_2 1_555 1_555
C5_2 C4_2 1_555 1_555
C6_2 C5_2 1_555 1_555
H2_2 C7_2 1_555 1_555
C8_2 C5_2 1_555 1_555
C9_2 C8_2 1_555 1_555
C10_2 C9_2 1_555 1_555
H3_2 C10_2 1_555 1_555
C11_2 C10_2 1_555 1_555
C12_2 C11_2 1_555 1_555
H4_2 C12_2 1_555 1_555
C13_2 C8_2 1_555 1_555
C14_2 C13_2 1_555 1_555
C15_2 C11_2 1_555 1_555
C16_2 C6_2 1_555 1_555
N1_2 C4_2 1_555 1_555
N2_2 C9_2 1_555 1_555
O4_2 N2_2 1_555 1_555
O6_2 N1_2 1_555 1_555
O7_2 C15_2 1_555 1_555
O8_2 C15_2 1_555 1_555
O9_2 C14_2 1_555 1_555
O19 C16_2 1_555 1_555
O12_2 C16_2 1_555 1_555
Mn4_2 O8_2 1_555 1_555
Mn6_2 O9_2 1_555 1_555
Mn7_2 O7_2 1_555 1_555
C6_2 C7_2 1_555 1_555
C12_2 C13_2 1_555 1_555
O19 Mn6_2 1_555 1_555
Mn3 O2_2 1_555 1_555
O13_2 Mn3 1_555 1_555
H5_2 O13_2 1_555 1_555
H6_2 O13_2 1_555 1_555
O17_2 Mn3 1_555 1_555
C17_2 H7_2 1_555 1_555
C18_2 H8_2 1_555 1_555
H9_2 C18_2 1_555 1_555
C19_2 C18_2 1_555 1_555
H10_2 C19_2 1_555 1_555
H11_2 C19_2 1_555 1_555
H12_2 C19_2 1_555 1_555
C20_2 H13_2 1_555 1_555
H14_2 C20_2 1_555 1_555
C21_2 C20_2 1_555 1_555
H15_2 C21_2 1_555 1_555
H16_2 C21_2 1_555 1_555
H17_2 C21_2 1_555 1_555
N3_2 C17_2 1_555 1_555
O14_2 C17_2 1_555 1_555
O20_2 Mn2_2 1_555 1_555
C18_2 N3_2 1_555 1_555
C20_2 N3_2 1_555 1_555
Mn2_2 O14_2 1_555 1_555
Mn2_2 O18_2 1_555 1_555
C1_2 C2_2 1_555 1_555
C2_2 C3_2 1_555 1_555
H18_2 O15_2 1_555 1_555
H19_2 O15_2 1_555 1_555
O1_3 N2_3 1_555 1_555
C1_3 C2_3 1_555 1_555
C2_3 C3_3 1_555 1_555
C3_3 H1_3 1_555 1_555
C4_3 C3_3 1_555 1_555
C5_3 C4_3 1_555 1_555
C6_3 C5_3 1_555 1_555
C7_3 C2_3 1_555 1_555
H2_3 C7_3 1_555 1_555
C8_3 C5_3 1_555 1_555
C9_3 C8_3 1_555 1_555
C10_3 C9_3 1_555 1_555
H3_3 C10_3 1_555 1_555
C11_3 C10_3 1_555 1_555
C12_3 C11_3 1_555 1_555
H4_3 C12_3 1_555 1_555
C13_3 C8_3 1_555 1_555
C14_3 C13_3 1_555 1_555
C15_3 C11_3 1_555 1_555
C16_3 C6_3 1_555 1_555
Mn4 O2_3 1_555 1_555
N1_3 C4_3 1_555 1_555
N2_3 C9_3 1_555 1_555
O2_3 C1_3 1_555 1_555
O3_3 C1_3 1_555 1_555
O4_3 N2_3 1_555 1_555
O5_3 N1_3 1_555 1_555
O6_3 N1_3 1_555 1_555
O7_3 C15_3 1_555 1_555
O17 C15_3 1_555 1_555
O9_3 C14_3 1_555 1_555
O10_3 C14_3 1_555 1_555
O11_2 C16_3 1_555 1_555
O12_3 C16_3 1_555 1_555
O13_3 Mn4 1_555 1_555
H5_3 O13_3 1_555 1_555
H6_3 O13_3 1_555 1_555
C17_3 H7_3 1_555 1_555
C18_3 H8_3 1_555 1_555
H9_3 C18_3 1_555 1_555
C19_3 C18_3 1_555 1_555
H10_3 C19_3 1_555 1_555
H11_3 C19_3 1_555 1_555
H12_3 C19_3 1_555 1_555
C20_3 H13_3 1_555 1_555
H14_3 C20_3 1_555 1_555
C21_3 C20_3 1_555 1_555
H15_3 C21_3 1_555 1_555
H16_3 C21_3 1_555 1_555
H17_3 C21_3 1_555 1_555
Mn2_3 O3_3 1_555 1_555
N3_3 C17_3 1_555 1_555
O14_3 C17_3 1_555 1_555
O15_3 Mn4 1_555 1_555
H18_3 O15_3 1_555 1_555
H19_3 O15_3 1_555 1_555
Mn4_2 O11_2 1_555 1_555
Mn5_3 O9_3 1_555 1_555
O16_3 Mn2_3 1_555 1_555
O18_3 Mn4 1_555 1_555
O19_2 Mn4 1_555 1_555
O20_3 Mn2_3 1_555 1_555
Mn7_2 O9_3 1_555 1_555
C6_3 C7_3 1_555 1_555
C12_3 C13_3 1_555 1_555
O11_2 Mn7_2 1_555 1_555
C18_3 N3_3 1_555 1_555
C20_3 N3_3 1_555 1_555
Mn2_3 O14_3 1_555 1_555
Mn2_3 O15_3 1_555 1_555
Mn2_3 O18_3 1_555 1_555
O1_4 N2_4 1_555 1_555
C1_4 C2_4 1_555 1_555
C2_4 C3_4 1_555 1_555
C4_4 C3_4 1_555 1_555
C5_4 C4_4 1_555 1_555
C6_4 C5_4 1_555 1_555
C7_4 C2_4 1_555 1_555
H2_4 C7_4 1_555 1_555
C8_4 C5_4 1_555 1_555
C9_4 C8_4 1_555 1_555
C10_4 C9_4 1_555 1_555
H3_4 C10_4 1_555 1_555
C11_4 C10_4 1_555 1_555
C12_4 C11_4 1_555 1_555
H4_4 C12_4 1_555 1_555
C13_4 C8_4 1_555 1_555
C14_4 C13_4 1_555 1_555
C15_4 C11_4 1_555 1_555
C16_4 C6_4 1_555 1_555
Mn4_2 O2_4 1_555 1_555
N1_4 C4_4 1_555 1_555
N2_4 C9_4 1_555 1_555
O2_4 C1_4 1_555 1_555
O4_4 N2_4 1_555 1_555
O6_4 N1_4 1_555 1_555
O7_4 C15_4 1_555 1_555
O17_2 C15_4 1_555 1_555
O9_4 C14_4 1_555 1_555
O19_2 C16_4 1_555 1_555
O12_4 C16_4 1_555 1_555
O13_4 Mn4_2 1_555 1_555
H5_4 O13_4 1_555 1_555
H6_4 O13_4 1_555 1_555
O15_4 Mn4_2 1_555 1_555
H18_4 O15_4 1_555 1_555
H19_4 O15_4 1_555 1_555
Mn7 O9_4 1_555 1_555
C6_4 C7_4 1_555 1_555
C12_4 C13_4 1_555 1_555
O19_2 Mn7 1_555 1_555
C17_4 H7_4 1_555 1_555
C18_4 H8_4 1_555 1_555
H9_4 C18_4 1_555 1_555
C19_4 C18_4 1_555 1_555
H10_4 C19_4 1_555 1_555
H11_4 C19_4 1_555 1_555
H12_4 C19_4 1_555 1_555
C20_4 H13_4 1_555 1_555
H14_4 C20_4 1_555 1_555
C21_4 C20_4 1_555 1_555
H15_4 C21_4 1_555 1_555
H16_4 C21_4 1_555 1_555
H17_4 C21_4 1_555 1_555
Mn2_4 O3_4 1_555 1_555
N3_4 C17_4 1_555 1_555
O14_4 C17_4 1_555 1_555
O16_4 Mn2_4 1_555 1_555
O20_4 Mn2_4 1_555 1_555
C18_4 N3_4 1_555 1_555
C20_4 N3_4 1_555 1_555
Mn2_4 O14_4 1_555 1_555
Mn2_4 O18_4 1_555 1_555
O1_5 N2_5 1_555 1_555
C5_5 C4_5 1_555 1_555
C6_5 C5_5 1_555 1_555
H2_5 C7_5 1_555 1_555
C8_5 C5_5 1_555 1_555
C9_5 C8_5 1_555 1_555
C10_5 C9_5 1_555 1_555
H3_5 C10_5 1_555 1_555
C11_5 C10_5 1_555 1_555
C12_5 C11_5 1_555 1_555
H4_5 C12_5 1_555 1_555
C13_5 C8_5 1_555 1_555
C14_5 C13_5 1_555 1_555
C15_5 C11_5 1_555 1_555
C16_5 C6_5 1_555 1_555
N1_5 C4_5 1_555 1_555
N2_5 C9_5 1_555 1_555
O4_5 N2_5 1_555 1_555
O6_5 N1_5 1_555 1_555
O16_4 C15_5 1_555 1_555
O8_3 C15_5 1_555 1_555
O18 C14_5 1_555 1_555
O10_5 C14_5 1_555 1_555
O20 C16_5 1_555 1_555
O12_5 C16_5 1_555 1_555
Mn5_3 O8_3 1_555 1_555
C6_5 C7_5 1_555 1_555
C12_5 C13_5 1_555 1_555
C1_5 C2_5 1_555 1_555
C2_5 C3_5 1_555 1_555
C3_5 H1_5 1_555 1_555
O3_5 C1_5 1_555 1_555
H18_5 O15_5 1_555 1_555
H19_5 O15_5 1_555 1_555
Mn5 O2_5 1_555 1_555
O13_5 Mn5 1_555 1_555
H5_5 O13_5 1_555 1_555
H6_5 O13_5 1_555 1_555
C17_5 H7_5 1_555 1_555
C18_5 H8_5 1_555 1_555
H9_5 C18_5 1_555 1_555
C19_5 C18_5 1_555 1_555
H10_5 C19_5 1_555 1_555
H11_5 C19_5 1_555 1_555
H12_5 C19_5 1_555 1_555
C20_5 H13_5 1_555 1_555
H14_5 C20_5 1_555 1_555
C21_5 C20_5 1_555 1_555
H15_5 C21_5 1_555 1_555
H16_5 C21_5 1_555 1_555
H17_5 C21_5 1_555 1_555
N3_5 C17_5 1_555 1_555
O14_5 C17_5 1_555 1_555
O17_3 Mn5 1_555 1_555
C18_5 N3_5 1_555 1_555
C20_5 N3_5 1_555 1_555
Mn6 O14_5 1_555 1_555
C1_6 C2_6 1_555 1_555
C2_6 C3_6 1_555 1_555
H18_6 O15_6 1_555 1_555
H19_6 O15_6 1_555 1_555
C17_6 H7_6 1_555 1_555
C18_6 H8_6 1_555 1_555
H9_6 C18_6 1_555 1_555
C19_6 C18_6 1_555 1_555
H10_6 C19_6 1_555 1_555
H11_6 C19_6 1_555 1_555
H12_6 C19_6 1_555 1_555
C20_6 H13_6 1_555 1_555
H14_6 C20_6 1_555 1_555
C21_6 C20_6 1_555 1_555
H15_6 C21_6 1_555 1_555
H16_6 C21_6 1_555 1_555
H17_6 C21_6 1_555 1_555
N3_6 C17_6 1_555 1_555
O14_6 C17_6 1_555 1_555
C18_6 N3_6 1_555 1_555
C20_6 N3_6 1_555 1_555
Mn6_2 O14_6 1_555 1_555
Mn5_2 O2_6 1_555 1_555
O13_6 Mn5_2 1_555 1_555
H5_6 O13_6 1_555 1_555
H6_6 O13_6 1_555 1_555
O17_4 Mn5_2 1_555 1_555
O1_6 N2_6 1_555 1_555
C5_6 C4_6 1_555 1_555
C6_6 C5_6 1_555 1_555
H2_6 C7_6 1_555 1_555
C8_6 C5_6 1_555 1_555
C9_6 C8_6 1_555 1_555
C10_6 C9_6 1_555 1_555
H3_6 C10_6 1_555 1_555
C11_6 C10_6 1_555 1_555
C12_6 C11_6 1_555 1_555
H4_6 C12_6 1_555 1_555
C13_6 C8_6 1_555 1_555
C14_6 C13_6 1_555 1_555
C15_6 C11_6 1_555 1_555
C16_6 C6_6 1_555 1_555
N1_6 C4_6 1_555 1_555
N2_6 C9_6 1_555 1_555
O4_6 N2_6 1_555 1_555
O6_6 N1_6 1_555 1_555
O16_3 C15_6 1_555 1_555
O8_4 C15_6 1_555 1_555
O18_2 C14_6 1_555 1_555
O20_2 C16_6 1_555 1_555
O12_6 C16_6 1_555 1_555
Mn5_4 O8_4 1_555 1_555
C6_6 C7_6 1_555 1_555
C12_6 C13_6 1_555 1_555
O1_7 N2_7 1_555 1_555
C1_7 C2_7 1_555 1_555
C2_7 C3_7 1_555 1_555
C3_7 H1_7 1_555 1_555
C4_7 C3_7 1_555 1_555
C5_7 C4_7 1_555 1_555
C6_7 C5_7 1_555 1_555
C7_7 C2_7 1_555 1_555
H2_7 C7_7 1_555 1_555
C8_7 C5_7 1_555 1_555
C9_7 C8_7 1_555 1_555
C10_7 C9_7 1_555 1_555
H3_7 C10_7 1_555 1_555
C11_7 C10_7 1_555 1_555
C12_7 C11_7 1_555 1_555
H4_7 C12_7 1_555 1_555
C13_7 C8_7 1_555 1_555
C14_7 C13_7 1_555 1_555
C15_7 C11_7 1_555 1_555
C16_7 C6_7 1_555 1_555
Mn5_3 O2_7 1_555 1_555
N1_7 C4_7 1_555 1_555
N2_7 C9_7 1_555 1_555
O2_7 C1_7 1_555 1_555
O3_7 C1_7 1_555 1_555
O4_7 N2_7 1_555 1_555
O5_7 N1_7 1_555 1_555
O6_7 N1_7 1_555 1_555
O16_2 C15_7 1_555 1_555
O17_3 C15_7 1_555 1_555
O18_3 C14_7 1_555 1_555
O10_7 C14_7 1_555 1_555
O20_3 C16_7 1_555 1_555
O12_7 C16_7 1_555 1_555
O13_7 Mn5_3 1_555 1_555
H5_7 O13_7 1_555 1_555
H6_7 O13_7 1_555 1_555
C17_7 H7_7 1_555 1_555
C18_7 H8_7 1_555 1_555
H9_7 C18_7 1_555 1_555
C19_7 C18_7 1_555 1_555
H10_7 C19_7 1_555 1_555
H11_7 C19_7 1_555 1_555
H12_7 C19_7 1_555 1_555
C20_7 H13_7 1_555 1_555
H14_7 C20_7 1_555 1_555
C21_7 C20_7 1_555 1_555
H15_7 C21_7 1_555 1_555
H16_7 C21_7 1_555 1_555
H17_7 C21_7 1_555 1_555
Mn7_2 O3_7 1_555 1_555
N3_7 C17_7 1_555 1_555
O14_7 C17_7 1_555 1_555
O15_7 Mn5_3 1_555 1_555
H18_7 O15_7 1_555 1_555
H19_7 O15_7 1_555 1_555
Mn5_4 O20_3 1_555 1_555
O20_4 Mn5_3 1_555 1_555
C6_7 C7_7 1_555 1_555
C12_7 C13_7 1_555 1_555
C18_7 N3_7 1_555 1_555
C20_7 N3_7 1_555 1_555
Mn7_2 O14_7 1_555 1_555
Mn7_2 O15_7 1_555 1_555
C17_8 H7_8 1_555 1_555
C18_8 H8_8 1_555 1_555
H9_8 C18_8 1_555 1_555
C19_8 C18_8 1_555 1_555
H10_8 C19_8 1_555 1_555
H11_8 C19_8 1_555 1_555
H12_8 C19_8 1_555 1_555
C20_8 H13_8 1_555 1_555
H14_8 C20_8 1_555 1_555
C21_8 C20_8 1_555 1_555
H15_8 C21_8 1_555 1_555
H16_8 C21_8 1_555 1_555
H17_8 C21_8 1_555 1_555
Mn7 O3_8 1_555 1_555
N3_8 C17_8 1_555 1_555
O14_8 C17_8 1_555 1_555
C18_8 N3_8 1_555 1_555
C20_8 N3_8 1_555 1_555
Mn7 O14_8 1_555 1_555
O1_8 N2_8 1_555 1_555
C1_8 C2_8 1_555 1_555
C2_8 C3_8 1_555 1_555
C4_8 C3_8 1_555 1_555
C5_8 C4_8 1_555 1_555
C6_8 C5_8 1_555 1_555
C7_8 C2_8 1_555 1_555
H2_8 C7_8 1_555 1_555
C8_8 C5_8 1_555 1_555
C9_8 C8_8 1_555 1_555
C10_8 C9_8 1_555 1_555
H3_8 C10_8 1_555 1_555
C11_8 C10_8 1_555 1_555
C12_8 C11_8 1_555 1_555
H4_8 C12_8 1_555 1_555
C13_8 C8_8 1_555 1_555
C14_8 C13_8 1_555 1_555
C15_8 C11_8 1_555 1_555
C16_8 C6_8 1_555 1_555
Mn5_4 O2_8 1_555 1_555
N1_8 C4_8 1_555 1_555
N2_8 C9_8 1_555 1_555
O2_8 C1_8 1_555 1_555
O4_8 N2_8 1_555 1_555
O6_8 N1_8 1_555 1_555
O16 C15_8 1_555 1_555
O17_4 C15_8 1_555 1_555
O18_4 C14_8 1_555 1_555
O20_4 C16_8 1_555 1_555
O12_8 C16_8 1_555 1_555
O13_8 Mn5_4 1_555 1_555
H5_8 O13_8 1_555 1_555
H6_8 O13_8 1_555 1_555
O15_8 Mn5_4 1_555 1_555
H18_8 O15_8 1_555 1_555
H19_8 O15_8 1_555 1_555
C6_8 C7_8 1_555 1_555
C12_8 C13_8 1_555 1_555

#END
