
###############################################################################
#
# This file contains modified crystal structure data generated from the
# MOF subset of the Cambridge Structural Database (CSD) v543 
# hosted by the Cambridge Crystallographic Data Centre (CCDC).
#
# This work is licensed under the Creative Commons
# Attribution-NonCommercial-ShareAlike 4.0 International License.
# To view a copy of this license, visit
# http://creativecommons.org/licenses/by-nc-sa/4.0/
# or send a letter to
# Creative Commons, PO Box 1866, Mountain View, CA 94042, USA.
#
# CIF created using the CSD Python API on 29 September 2022
# The structure has been converted into the P1 space group
# The structure has a 3D framework
# The original CSD entry OCUMOR is in the monoclinic crystal system
# The framework has been calculated to contain at least 10.0% void space
# The void calculation uses a probe of radius 1.32A, grid spacing 0.4
#
###############################################################################

data_OCUMOR
_chemical_formula_moiety         '(C168 H136 Mn16 N24 O114)n'
_symmetry_cell_setting           triclinic
_symmetry_space_group_name_H-M   'P 1'
_symmetry_Int_Tables_number      1
_space_group_name_Hall           'P 1'
loop_
_symmetry_equiv_pos_site_id
_symmetry_equiv_pos_as_xyz
1 x,y,z
_cell_length_a                   25.7675(8)
_cell_length_b                   16.8891(6)
_cell_length_c                   13.2819(4)
_cell_angle_alpha                90
_cell_angle_beta                 104.730(2)
_cell_angle_gamma                90
_cell_volume                     5590.18
loop_
_atom_site_label
_atom_site_type_symbol
_atom_site_fract_x
_atom_site_fract_y
_atom_site_fract_z
O2 O 0.0992(2) 0.4431(4) 0.0398(4)
O12 O 0.0178(5) 0.1857(7) 0.0610(11)
H4 H 0.0519 0.3082 0.0123
Mn7 Mn 0.17287(5) 0.50438(8) 0.11595(9)
O1 O 0.0702(2) 0.5080(3) 0.8902(4)
C1 C 0.0667(3) 0.4543(5) 0.9539(6)
C2 C 0.0183(3) 0.4002(5) 0.9215(6)
C7 C 0.0213(3) 0.3245(5) 0.9630(7)
Mn3 Mn 0.13443(5) 0.57291(8) 0.85667(9)
O5 O 0.8844(4) 0.2929(6) 0.0717(7)
Mn5 Mn 0.86557(5) 0.42709(8) 0.14333(9)
O20 O 0.6525(3) 0.1130(4) 0.0254(6)
Mn1 Mn 0.63443(5) 0.07291(8) 0.85667(9)
O3 O 0.8633(2) 0.4722(4) 0.7553(4)
O4 O 0.8621(2) 0.3632(4) 0.6598(5)
O6 O 0.8475(3) 0.3870(4) 0.9746(6)
O7 O 0.7088(3) 0.1201(5) 0.8490(5)
O8 O 0.7110(3) 0.0997(5) 0.6846(5)
O9 O 0.8792(6) 0.1607(10) 0.5956(12)
O10 O 0.9437(5) 0.2013(8) 0.7028(10)
O11 O 0.9567(5) 0.1409(7) 0.9295(10)
O13 O 0.5847(3) 0.1271(4) 0.7196(5)
H1 H 0.5719 0.1736 0.7193
H2 H 0.5632 0.1011 0.6718
O14 O 0.6957(3) 0.0264(4) 0.4687(5)
N1 N 0.9842(5) 0.1956(7) 0.9726(10)
N2 N 0.9000(5) 0.1784(8) 0.6852(10)
C3 C 0.9732(3) 0.4250(5) 0.8512(6)
H3 H 0.9717 0.4761 0.8246
C4 C 0.9292(3) 0.3748(5) 0.8184(6)
C5 C 0.9311(3) 0.2974(5) 0.8584(6)
C6 C 0.9784(3) 0.2738(5) 0.9305(7)
C8 C 0.8803(3) 0.4041(5) 0.7375(6)
C9 C 0.8806(3) 0.2481(5) 0.8335(6)
C10 C 0.8652(4) 0.1963(6) 0.7508(7)
C11 C 0.8177(4) 0.1573(6) 0.7316(7)
H5 H 0.8078 0.1231 0.6750
C12 C 0.7836(3) 0.1686(5) 0.7972(6)
C13 C 0.7975(3) 0.2185(5) 0.8776(6)
H6 H 0.7747 0.2256 0.9211
C14 C 0.8453(3) 0.2597(5) 0.8968(6)
C15 C 0.8602(4) 0.3161(5) 0.9882(7)
C16 C 0.7301(4) 0.1254(6) 0.7753(7)
H16 H 0.6773 0.0610 0.4289
Mn4 Mn 0.86557(5) 0.57291(8) 0.64333(9)
Mn6 Mn 0.82713(5) 0.49562(8) 0.88405(9)
O16 O 0.5702(2) 0.0080(3) 0.8902(4)
O17 O 0.5992(2) 0.0569(4) 0.5398(4)
Mn2 Mn 0.67287(5) 0.99562(8) 0.61595(9)
O15 O 0.7432(4) 0.9338(7) 0.6944(8)
N3 N 0.8109(7) 0.8514(12) 0.7916(15)
C17 C 0.7824(8) 0.8993(14) 0.6974(16)
C18 C 0.8129(8) 0.9015(15) 0.6089(17)
H7 H 0.7931 0.8757 0.5455
H8 H 0.8226 0.9549 0.5936
C19 C 0.8613(9) 0.8530(16) 0.6677(19)
H9 H 0.8926 0.8873 0.6830
H10 H 0.8677 0.8115 0.6219
C20 C 0.8568(9) 0.8137(15) 0.7721(17)
H11 H 0.8515 0.7570 0.7641
H12 H 0.8886 0.8240 0.8279
C21 C 0.7873(9) 0.8451(15) 0.8843(15)
H13 H 0.8014 0.7989 0.9241
H14 H 0.7490 0.8410 0.8608
H15 H 0.7967 0.8914 0.9270
H17 H 0.6991 0.9849 0.4353
O18 O 0.6367(2) 0.9722(4) 0.7447(4)
O19 O 0.6525(3) 0.8870(4) 0.5254(6)
Mn1_2 Mn 0.36557(5) 0.07291(8) 0.64333(9)
O3_2 O 0.1367(2) 0.4722(4) 0.7447(4)
O4_2 O 0.1379(2) 0.3632(4) 0.8402(5)
O5_2 O 0.1156(4) 0.2929(6) 0.4283(7)
O6_2 O 0.1525(3) 0.3870(4) 0.5254(6)
O7_2 O 0.2912(3) 0.1201(5) 0.6510(5)
O8_2 O 0.2890(3) 0.0997(5) 0.8154(5)
O9_2 O 0.1208(6) 0.1607(10) 0.9044(12)
O10_2 O 0.0563(5) 0.2013(8) 0.7972(10)
O11_2 O 0.0433(5) 0.1409(7) 0.5705(10)
O13_2 O 0.4153(3) 0.1271(4) 0.7804(5)
H1_2 H 0.4281 0.1736 0.7807
H2_2 H 0.4368 0.1011 0.8282
N1_2 N 0.0158(5) 0.1956(7) 0.5274(10)
N2_2 N 0.1000(5) 0.1784(8) 0.8148(10)
C3_2 C 0.0268(3) 0.4250(5) 0.6488(6)
H3_2 H 0.0283 0.4761 0.6754
C4_2 C 0.0708(3) 0.3748(5) 0.6816(6)
C5_2 C 0.0689(3) 0.2974(5) 0.6416(6)
C6_2 C 0.0216(3) 0.2738(5) 0.5695(7)
C8_2 C 0.1197(3) 0.4041(5) 0.7625(6)
C9_2 C 0.1194(3) 0.2481(5) 0.6665(6)
C10_2 C 0.1348(4) 0.1963(6) 0.7492(7)
C11_2 C 0.1823(4) 0.1573(6) 0.7684(7)
H5_2 H 0.1922 0.1231 0.8250
C12_2 C 0.2164(3) 0.1686(5) 0.7028(6)
C13_2 C 0.2025(3) 0.2185(5) 0.6224(6)
H6_2 H 0.2253 0.2256 0.5789
C14_2 C 0.1547(3) 0.2597(5) 0.6032(6)
C15_2 C 0.1398(4) 0.3161(5) 0.5118(7)
C16_2 C 0.2699(4) 0.1254(6) 0.7247(7)
Mn5_2 Mn 0.13443(5) 0.42709(8) 0.35667(9)
Mn6_2 Mn 0.17287(5) 0.49562(8) 0.61595(9)
O16_2 O 0.4298(2) 0.0080(3) 0.6098(4)
O17_2 O 0.4008(2) 0.0569(4) 0.9602(4)
O20_2 O 0.3475(3) 0.1130(4) 0.4746(6)
Mn2_2 Mn 0.32713(5) 0.99562(8) 0.88405(9)
O15_2 O 0.2568(4) 0.9338(7) 0.8056(8)
N3_2 N 0.1891(7) 0.8514(12) 0.7084(15)
C17_2 C 0.2176(8) 0.8993(14) 0.8026(16)
C18_2 C 0.1871(8) 0.9015(15) 0.8911(17)
H7_2 H 0.2069 0.8757 0.9545
H8_2 H 0.1774 0.9549 0.9064
C19_2 C 0.1387(9) 0.8530(16) 0.8323(19)
H9_2 H 0.1074 0.8873 0.8170
H10_2 H 0.1323 0.8115 0.8781
C20_2 C 0.1432(9) 0.8137(15) 0.7279(17)
H11_2 H 0.1485 0.7570 0.7359
H12_2 H 0.1114 0.8240 0.6721
C21_2 C 0.2127(9) 0.8451(15) 0.6157(15)
H13_2 H 0.1986 0.7989 0.5759
H14_2 H 0.2510 0.8410 0.6392
H15_2 H 0.2033 0.8914 0.5730
O18_2 O 0.3633(2) 0.9722(4) 0.7553(4)
O19_2 O 0.3475(3) 0.8870(4) 0.9746(6)
O1_2 O 0.9298(2) 0.5080(3) 0.6098(4)
O2_2 O 0.9008(2) 0.4431(4) 0.4602(4)
O12_2 O 0.9822(5) 0.1857(7) 0.4390(11)
C1_2 C 0.9333(3) 0.4543(5) 0.5461(6)
C2_2 C 0.9817(3) 0.4002(5) 0.5785(6)
C7_2 C 0.9787(3) 0.3245(5) 0.5370(7)
H4_2 H 0.9481 0.3082 0.4877
Mn7_2 Mn 0.82713(5) 0.50438(8) 0.38405(9)
Mn7_3 Mn 0.67287(5) 0.00438(8) 0.11595(9)
O2_3 O 0.5992(2) 0.9431(4) 0.0398(4)
O5_3 O 0.3844(4) 0.7929(6) 0.0717(7)
O12_3 O 0.5178(5) 0.6857(7) 0.0610(11)
H4_3 H 0.5519 0.8082 0.0123
Mn5_3 Mn 0.36557(5) 0.92709(8) 0.14333(9)
O20_3 O 0.1525(3) 0.6130(4) 0.0254(6)
O4_3 O 0.3621(2) 0.8632(4) 0.6598(5)
O7_3 O 0.2088(3) 0.6201(5) 0.8490(5)
O8_3 O 0.2110(3) 0.5997(5) 0.6846(5)
O9_3 O 0.3792(6) 0.6607(10) 0.5956(12)
O10_3 O 0.4437(5) 0.7013(8) 0.7028(10)
O11_3 O 0.4567(5) 0.6409(7) 0.9295(10)
O13_3 O 0.0847(3) 0.6271(4) 0.7196(5)
H1_3 H 0.0719 0.6736 0.7193
H2_3 H 0.0632 0.6011 0.6718
O14_2 O 0.1957(3) 0.5264(4) 0.4687(5)
O15_3 O 0.2432(4) 0.4338(7) 0.6944(8)
N1_3 N 0.4842(5) 0.6956(7) 0.9726(10)
N2_3 N 0.4000(5) 0.6784(8) 0.6852(10)
N3_3 N 0.3109(7) 0.3514(12) 0.7916(15)
C1_3 C 0.5667(3) 0.9543(5) 0.9539(6)
C2_3 C 0.5183(3) 0.9002(5) 0.9215(6)
C3_3 C 0.4732(3) 0.9250(5) 0.8512(6)
H3_3 H 0.4717 0.9761 0.8246
C4_3 C 0.4292(3) 0.8748(5) 0.8184(6)
C5_3 C 0.4311(3) 0.7974(5) 0.8584(6)
C6_3 C 0.4784(3) 0.7738(5) 0.9305(7)
C7_3 C 0.5213(3) 0.8245(5) 0.9630(7)
C8_3 C 0.3803(3) 0.9041(5) 0.7375(6)
C9_3 C 0.3806(3) 0.7481(5) 0.8335(6)
C10_3 C 0.3652(4) 0.6963(6) 0.7508(7)
C11_3 C 0.3177(4) 0.6573(6) 0.7316(7)
H5_3 H 0.3078 0.6231 0.6750
C12_3 C 0.2836(3) 0.6686(5) 0.7972(6)
C13_3 C 0.2975(3) 0.7185(5) 0.8776(6)
H6_3 H 0.2747 0.7256 0.9211
C14_3 C 0.3453(3) 0.7597(5) 0.8968(6)
C15_3 C 0.3602(4) 0.8161(5) 0.9882(7)
C16_3 C 0.2301(4) 0.6254(6) 0.7753(7)
C17_3 C 0.2824(8) 0.3993(14) 0.6974(16)
C18_3 C 0.3129(8) 0.4015(15) 0.6089(17)
H7_3 H 0.2931 0.3757 0.5455
H8_3 H 0.3226 0.4549 0.5936
C19_3 C 0.3613(9) 0.3530(16) 0.6677(19)
H9_3 H 0.3926 0.3873 0.6830
H10_3 H 0.3677 0.3115 0.6219
C20_3 C 0.3568(9) 0.3137(15) 0.7721(17)
H11_3 H 0.3515 0.2570 0.7641
H12_3 H 0.3886 0.3240 0.8279
C21_3 C 0.2873(9) 0.3451(15) 0.8843(15)
H13_3 H 0.3014 0.2989 0.9241
H14_3 H 0.2490 0.3410 0.8608
H15_3 H 0.2967 0.3914 0.9270
H16_2 H 0.1773 0.5610 0.4289
H17_2 H 0.1991 0.4849 0.4353
O17_3 O 0.0992(2) 0.5569(4) 0.5398(4)
Mn7_4 Mn 0.32713(5) 0.00438(8) 0.38405(9)
O2_4 O 0.4008(2) 0.9431(4) 0.4602(4)
O4_4 O 0.6379(2) 0.8632(4) 0.8402(5)
O5_4 O 0.6156(4) 0.7929(6) 0.4283(7)
O7_4 O 0.7912(3) 0.6201(5) 0.6510(5)
O8_4 O 0.7890(3) 0.5997(5) 0.8154(5)
O9_4 O 0.6208(6) 0.6607(10) 0.9044(12)
O10_4 O 0.5563(5) 0.7013(8) 0.7972(10)
O11_4 O 0.5433(5) 0.6409(7) 0.5705(10)
O12_4 O 0.4822(5) 0.6857(7) 0.4390(11)
O13_4 O 0.9153(3) 0.6271(4) 0.7804(5)
H1_4 H 0.9281 0.6736 0.7807
H2_4 H 0.9368 0.6011 0.8282
O15_4 O 0.7568(4) 0.4338(7) 0.8056(8)
N1_4 N 0.5158(5) 0.6956(7) 0.5274(10)
N2_4 N 0.6000(5) 0.6784(8) 0.8148(10)
N3_4 N 0.6891(7) 0.3514(12) 0.7084(15)
C1_4 C 0.4333(3) 0.9543(5) 0.5461(6)
C2_4 C 0.4817(3) 0.9002(5) 0.5785(6)
C3_4 C 0.5268(3) 0.9250(5) 0.6488(6)
H3_4 H 0.5283 0.9761 0.6754
C4_4 C 0.5708(3) 0.8748(5) 0.6816(6)
C5_4 C 0.5689(3) 0.7974(5) 0.6416(6)
C6_4 C 0.5216(3) 0.7738(5) 0.5695(7)
C7_4 C 0.4787(3) 0.8245(5) 0.5370(7)
H4_4 H 0.4481 0.8082 0.4877
C8_4 C 0.6197(3) 0.9041(5) 0.7625(6)
C9_4 C 0.6194(3) 0.7481(5) 0.6665(6)
C10_4 C 0.6348(4) 0.6963(6) 0.7492(7)
C11_4 C 0.6823(4) 0.6573(6) 0.7684(7)
H5_4 H 0.6922 0.6231 0.8250
C12_4 C 0.7164(3) 0.6686(5) 0.7028(6)
C13_4 C 0.7025(3) 0.7185(5) 0.6224(6)
H6_4 H 0.7253 0.7256 0.5789
C14_4 C 0.6547(3) 0.7597(5) 0.6032(6)
C15_4 C 0.6398(4) 0.8161(5) 0.5118(7)
C16_4 C 0.7699(4) 0.6254(6) 0.7247(7)
C17_4 C 0.7176(8) 0.3993(14) 0.8026(16)
C18_4 C 0.6871(8) 0.4015(15) 0.8911(17)
H7_4 H 0.7069 0.3757 0.9545
H8_4 H 0.6774 0.4549 0.9064
C19_4 C 0.6387(9) 0.3530(16) 0.8323(19)
H9_4 H 0.6074 0.3873 0.8170
H10_4 H 0.6323 0.3115 0.8781
C20_4 C 0.6432(9) 0.3137(15) 0.7279(17)
H11_4 H 0.6485 0.2570 0.7359
H12_4 H 0.6114 0.3240 0.6721
C21_4 C 0.7127(9) 0.3451(15) 0.6157(15)
H13_4 H 0.6986 0.2989 0.5759
H14_4 H 0.7510 0.3410 0.6392
H15_4 H 0.7033 0.3914 0.5730
Mn5_4 Mn 0.63443(5) 0.92709(8) 0.35667(9)
O17_4 O 0.9008(2) 0.5569(4) 0.9602(4)
O20_4 O 0.8475(3) 0.6130(4) 0.4746(6)
O15_5 O 0.2568(4) 0.0662(7) 0.3056(8)
N3_5 N 0.1891(7) 0.1486(12) 0.2084(15)
C17_5 C 0.2176(8) 0.1007(14) 0.3026(16)
C18_5 C 0.1871(8) 0.0985(15) 0.3911(17)
H7_5 H 0.2069 0.1243 0.4545
H8_5 H 0.1774 0.0451 0.4064
C19_5 C 0.1387(9) 0.1470(16) 0.3323(19)
H9_5 H 0.1074 0.1127 0.3170
H10_5 H 0.1323 0.1885 0.3781
C20_5 C 0.1432(9) 0.1863(15) 0.2279(17)
H11_5 H 0.1485 0.2430 0.2359
H12_5 H 0.1114 0.1760 0.1721
C21_5 C 0.2127(9) 0.1549(15) 0.1157(15)
H13_5 H 0.1986 0.2011 0.0759
H14_5 H 0.2510 0.1590 0.1392
H15_5 H 0.2033 0.1086 0.0730
H17_3 H 0.3009 0.0151 0.5647
O18_3 O 0.3633(2) 0.0278(4) 0.2553(4)
O3_3 O 0.1367(2) 0.5278(4) 0.2447(4)
O4_5 O 0.1379(2) 0.6368(4) 0.3402(5)
O7_5 O 0.2912(3) 0.8799(5) 0.1510(5)
O8_5 O 0.2890(3) 0.9003(5) 0.3154(5)
O9_5 O 0.1208(6) 0.8393(10) 0.4044(12)
O10_5 O 0.0563(5) 0.7987(8) 0.2972(10)
O11_5 O 0.0433(5) 0.8591(7) 0.0705(10)
O13_5 O 0.4153(3) 0.8729(4) 0.2804(5)
H1_5 H 0.4281 0.8264 0.2807
H2_5 H 0.4368 0.8989 0.3282
O14_3 O 0.3043(3) 0.9736(4) 0.5313(5)
N1_5 N 0.0158(5) 0.8044(7) 0.0274(10)
N2_5 N 0.1000(5) 0.8216(8) 0.3148(10)
C3_5 C 0.0268(3) 0.5750(5) 0.1488(6)
H3_5 H 0.0283 0.5239 0.1754
C4_5 C 0.0708(3) 0.6252(5) 0.1816(6)
C5_5 C 0.0689(3) 0.7026(5) 0.1416(6)
C6_5 C 0.0216(3) 0.7262(5) 0.0695(7)
C8_5 C 0.1197(3) 0.5959(5) 0.2625(6)
C9_5 C 0.1194(3) 0.7519(5) 0.1665(6)
C10_5 C 0.1348(4) 0.8037(6) 0.2492(7)
C11_5 C 0.1823(4) 0.8427(6) 0.2684(7)
H5_5 H 0.1922 0.8769 0.3250
C12_5 C 0.2164(3) 0.8314(5) 0.2028(6)
C13_5 C 0.2025(3) 0.7815(5) 0.1224(6)
H6_5 H 0.2253 0.7744 0.0789
C14_5 C 0.1547(3) 0.7403(5) 0.1032(6)
C15_5 C 0.1398(4) 0.6839(5) 0.0118(7)
C16_5 C 0.2699(4) 0.8746(6) 0.2247(7)
H16_3 H 0.3227 0.9390 0.5711
O16_3 O 0.4298(2) 0.9920(3) 0.1098(4)
O5_5 O 0.1156(4) 0.7071(6) 0.9283(7)
O1_3 O 0.9298(2) 0.4920(3) 0.1098(4)
C1_5 C 0.9333(3) 0.5457(5) 0.0461(6)
C2_5 C 0.9817(3) 0.5998(5) 0.0785(6)
C7_5 C 0.9787(3) 0.6755(5) 0.0370(7)
O12_5 O 0.9822(5) 0.8143(7) 0.9390(11)
H4_5 H 0.9481 0.6918 0.9877
O1_4 O 0.0702(2) 0.4920(3) 0.3902(4)
O12_6 O 0.0178(5) 0.8143(7) 0.5610(11)
C1_6 C 0.0667(3) 0.5457(5) 0.4539(6)
C2_6 C 0.0183(3) 0.5998(5) 0.4215(6)
C7_6 C 0.0213(3) 0.6755(5) 0.4630(7)
H4_6 H 0.0519 0.6918 0.5123
O15_6 O 0.7432(4) 0.0662(7) 0.1944(8)
N3_6 N 0.8109(7) 0.1486(12) 0.2916(15)
C17_6 C 0.7824(8) 0.1007(14) 0.1974(16)
C18_6 C 0.8129(8) 0.0985(15) 0.1089(17)
H7_6 H 0.7931 0.1243 0.0455
H8_6 H 0.8226 0.0451 0.0936
C19_6 C 0.8613(9) 0.1470(16) 0.1677(19)
H9_6 H 0.8926 0.1127 0.1830
H10_6 H 0.8677 0.1885 0.1219
C20_6 C 0.8568(9) 0.1863(15) 0.2721(17)
H11_6 H 0.8515 0.2430 0.2641
H12_6 H 0.8886 0.1760 0.3279
C21_6 C 0.7873(9) 0.1549(15) 0.3843(15)
H13_6 H 0.8014 0.2011 0.4241
H14_6 H 0.7490 0.1590 0.3608
H15_6 H 0.7967 0.1086 0.4270
O18_4 O 0.6367(2) 0.0278(4) 0.2447(4)
O3_4 O 0.8633(2) 0.5278(4) 0.2553(4)
O4_6 O 0.8621(2) 0.6368(4) 0.1598(5)
O5_6 O 0.8844(4) 0.7071(6) 0.5717(7)
O7_6 O 0.7088(3) 0.8799(5) 0.3490(5)
O8_6 O 0.7110(3) 0.9003(5) 0.1846(5)
O9_6 O 0.8792(6) 0.8393(10) 0.0956(12)
O10_6 O 0.9437(5) 0.7987(8) 0.2028(10)
O11_6 O 0.9567(5) 0.8591(7) 0.4295(10)
O13_6 O 0.5847(3) 0.8729(4) 0.2196(5)
H1_6 H 0.5719 0.8264 0.2193
H2_6 H 0.5632 0.8989 0.1718
N1_6 N 0.9842(5) 0.8044(7) 0.4726(10)
N2_6 N 0.9000(5) 0.8216(8) 0.1852(10)
C3_6 C 0.9732(3) 0.5750(5) 0.3512(6)
H3_6 H 0.9717 0.5239 0.3246
C4_6 C 0.9292(3) 0.6252(5) 0.3184(6)
C5_6 C 0.9311(3) 0.7026(5) 0.3584(6)
C6_6 C 0.9784(3) 0.7262(5) 0.4305(7)
C8_6 C 0.8803(3) 0.5959(5) 0.2375(6)
C9_6 C 0.8806(3) 0.7519(5) 0.3335(6)
C10_6 C 0.8652(4) 0.8037(6) 0.2508(7)
C11_6 C 0.8177(4) 0.8427(6) 0.2316(7)
H5_6 H 0.8078 0.8769 0.1750
C12_6 C 0.7836(3) 0.8314(5) 0.2972(6)
C13_6 C 0.7975(3) 0.7815(5) 0.3776(6)
H6_6 H 0.7747 0.7744 0.4211
C14_6 C 0.8453(3) 0.7403(5) 0.3968(6)
C15_6 C 0.8602(4) 0.6839(5) 0.4882(7)
C16_6 C 0.7301(4) 0.8746(6) 0.2753(7)
O16_4 O 0.5702(2) 0.9920(3) 0.3902(4)
O4_7 O 0.6379(2) 0.1368(4) 0.3402(5)
O7_7 O 0.7912(3) 0.3799(5) 0.1510(5)
O8_7 O 0.7890(3) 0.4003(5) 0.3154(5)
O9_7 O 0.6208(6) 0.3393(10) 0.4044(12)
O10_7 O 0.5563(5) 0.2987(8) 0.2972(10)
O11_7 O 0.5433(5) 0.3591(7) 0.0705(10)
O13_7 O 0.9153(3) 0.3729(4) 0.2804(5)
H1_7 H 0.9281 0.3264 0.2807
H2_7 H 0.9368 0.3989 0.3282
O14_4 O 0.8043(3) 0.4736(4) 0.5313(5)
O15_7 O 0.7568(4) 0.5662(7) 0.3056(8)
N1_7 N 0.5158(5) 0.3044(7) 0.0274(10)
N2_7 N 0.6000(5) 0.3216(8) 0.3148(10)
N3_7 N 0.6891(7) 0.6486(12) 0.2084(15)
C1_7 C 0.4333(3) 0.0457(5) 0.0461(6)
C2_7 C 0.4817(3) 0.0998(5) 0.0785(6)
C3_7 C 0.5268(3) 0.0750(5) 0.1488(6)
H3_7 H 0.5283 0.0239 0.1754
C4_7 C 0.5708(3) 0.1252(5) 0.1816(6)
C5_7 C 0.5689(3) 0.2026(5) 0.1416(6)
C6_7 C 0.5216(3) 0.2262(5) 0.0695(7)
C7_7 C 0.4787(3) 0.1755(5) 0.0370(7)
C8_7 C 0.6197(3) 0.0959(5) 0.2625(6)
C9_7 C 0.6194(3) 0.2519(5) 0.1665(6)
C10_7 C 0.6348(4) 0.3037(6) 0.2492(7)
C11_7 C 0.6823(4) 0.3427(6) 0.2684(7)
H5_7 H 0.6922 0.3769 0.3250
C12_7 C 0.7164(3) 0.3314(5) 0.2028(6)
C13_7 C 0.7025(3) 0.2815(5) 0.1224(6)
H6_7 H 0.7253 0.2744 0.0789
C14_7 C 0.6547(3) 0.2403(5) 0.1032(6)
C15_7 C 0.6398(4) 0.1839(5) 0.0118(7)
C16_7 C 0.7699(4) 0.3746(6) 0.2247(7)
C17_7 C 0.7176(8) 0.6007(14) 0.3026(16)
C18_7 C 0.6871(8) 0.5985(15) 0.3911(17)
H7_7 H 0.7069 0.6243 0.4545
H8_7 H 0.6774 0.5451 0.4064
C19_7 C 0.6387(9) 0.6470(16) 0.3323(19)
H9_7 H 0.6074 0.6127 0.3170
H10_7 H 0.6323 0.6885 0.3781
C20_7 C 0.6432(9) 0.6863(15) 0.2279(17)
H11_7 H 0.6485 0.7430 0.2359
H12_7 H 0.6114 0.6760 0.1721
C21_7 C 0.7127(9) 0.6549(15) 0.1157(15)
H13_7 H 0.6986 0.7011 0.0759
H14_7 H 0.7510 0.6590 0.1392
H15_7 H 0.7033 0.6086 0.0730
H16_4 H 0.8227 0.4390 0.5711
H17_4 H 0.8009 0.5151 0.5647
O5_7 O 0.6156(4) 0.2071(6) 0.9283(7)
O12_7 O 0.4822(5) 0.3143(7) 0.9390(11)
H4_7 H 0.4481 0.1918 0.9877
O4_8 O 0.3621(2) 0.1368(4) 0.1598(5)
O5_8 O 0.3844(4) 0.2071(6) 0.5717(7)
O7_8 O 0.2088(3) 0.3799(5) 0.3490(5)
O8_8 O 0.2110(3) 0.4003(5) 0.1846(5)
O9_8 O 0.3792(6) 0.3393(10) 0.0956(12)
O10_8 O 0.4437(5) 0.2987(8) 0.2028(10)
O11_8 O 0.4567(5) 0.3591(7) 0.4295(10)
O12_8 O 0.5178(5) 0.3143(7) 0.5610(11)
O13_8 O 0.0847(3) 0.3729(4) 0.2196(5)
H1_8 H 0.0719 0.3264 0.2193
H2_8 H 0.0632 0.3989 0.1718
O15_8 O 0.2432(4) 0.5662(7) 0.1944(8)
N1_8 N 0.4842(5) 0.3044(7) 0.4726(10)
N2_8 N 0.4000(5) 0.3216(8) 0.1852(10)
N3_8 N 0.3109(7) 0.6486(12) 0.2916(15)
C1_8 C 0.5667(3) 0.0457(5) 0.4539(6)
C2_8 C 0.5183(3) 0.0998(5) 0.4215(6)
C3_8 C 0.4732(3) 0.0750(5) 0.3512(6)
H3_8 H 0.4717 0.0239 0.3246
C4_8 C 0.4292(3) 0.1252(5) 0.3184(6)
C5_8 C 0.4311(3) 0.2026(5) 0.3584(6)
C6_8 C 0.4784(3) 0.2262(5) 0.4305(7)
C7_8 C 0.5213(3) 0.1755(5) 0.4630(7)
H4_8 H 0.5519 0.1918 0.5123
C8_8 C 0.3803(3) 0.0959(5) 0.2375(6)
C9_8 C 0.3806(3) 0.2519(5) 0.3335(6)
C10_8 C 0.3652(4) 0.3037(6) 0.2508(7)
C11_8 C 0.3177(4) 0.3427(6) 0.2316(7)
H5_8 H 0.3078 0.3769 0.1750
C12_8 C 0.2836(3) 0.3314(5) 0.2972(6)
C13_8 C 0.2975(3) 0.2815(5) 0.3776(6)
H6_8 H 0.2747 0.2744 0.4211
C14_8 C 0.3453(3) 0.2403(5) 0.3968(6)
C15_8 C 0.3602(4) 0.1839(5) 0.4882(7)
C16_8 C 0.2301(4) 0.3746(6) 0.2753(7)
C17_8 C 0.2824(8) 0.6007(14) 0.1974(16)
C18_8 C 0.3129(8) 0.5985(15) 0.1089(17)
H7_8 H 0.2931 0.6243 0.0455
H8_8 H 0.3226 0.5451 0.0936
C19_8 C 0.3613(9) 0.6470(16) 0.1677(19)
H9_8 H 0.3926 0.6127 0.1830
H10_8 H 0.3677 0.6885 0.1219
C20_8 C 0.3568(9) 0.6863(15) 0.2721(17)
H11_8 H 0.3515 0.7430 0.2641
H12_8 H 0.3886 0.6760 0.3279
C21_8 C 0.2873(9) 0.6549(15) 0.3843(15)
H13_8 H 0.3014 0.7011 0.4241
H14_8 H 0.2490 0.6590 0.3608
H15_8 H 0.2967 0.6086 0.4270
O14_5 O 0.3043(3) 0.0264(4) 0.0313(5)
H16_5 H 0.3227 0.0610 0.0711
H17_5 H 0.3009 0.9849 0.0647
O14_6 O 0.8043(3) 0.5264(4) 0.0313(5)
H16_6 H 0.8227 0.5610 0.0711
H17_6 H 0.8009 0.4849 0.0647
H17_7 H 0.6991 0.0151 0.9353
O14_7 O 0.6957(3) 0.9736(4) 0.9687(5)
H16_7 H 0.6773 0.9390 0.9289
O14_8 O 0.1957(3) 0.4736(4) 0.9687(5)
H16_8 H 0.1773 0.4390 0.9289
H17_8 H 0.1991 0.5151 0.9353
loop_
_geom_bond_atom_site_label_1
_geom_bond_atom_site_label_2
_geom_bond_site_symmetry_1
_geom_bond_site_symmetry_2
Mn7 O2 1_555 1_555
O1 C1 1_555 1_555
C1 C2 1_555 1_555
C7 C2 1_555 1_555
Mn3 O1 1_555 1_555
Mn1 O7 1_555 1_555
O3 C8 1_555 1_555
O4 C8 1_555 1_555
O6 C15 1_555 1_555
O7 C16 1_555 1_555
O8 C16 1_555 1_555
O9 N2 1_555 1_555
O10 N2 1_555 1_555
O11 N1 1_555 1_555
O13 Mn1 1_555 1_555
H1 O13 1_555 1_555
H2 O13 1_555 1_555
N1 C6 1_555 1_555
N2 C10 1_555 1_555
C3 H3 1_555 1_555
C4 C3 1_555 1_555
C5 C4 1_555 1_555
C6 C5 1_555 1_555
C8 C4 1_555 1_555
C9 C5 1_555 1_555
C10 C9 1_555 1_555
C11 C10 1_555 1_555
H5 C11 1_555 1_555
C12 C11 1_555 1_555
C13 C12 1_555 1_555
H6 C13 1_555 1_555
C14 C9 1_555 1_555
C15 C14 1_555 1_555
C16 C12 1_555 1_555
H16 O14 1_555 1_555
Mn4 O3 1_555 1_555
Mn6 O3 1_555 1_555
O16 Mn1 1_555 1_555
O6 Mn6 1_555 1_555
C13 C14 1_555 1_555
O15 Mn2 1_555 1_555
N3 C17 1_555 1_555
C17 O15 1_555 1_555
C18 C17 1_555 1_555
H7 C18 1_555 1_555
H8 C18 1_555 1_555
C19 C18 1_555 1_555
H9 C19 1_555 1_555
H10 C19 1_555 1_555
C20 N3 1_555 1_555
H11 C20 1_555 1_555
H12 C20 1_555 1_555
C21 N3 1_555 1_555
H13 C21 1_555 1_555
H14 C21 1_555 1_555
H15 C21 1_555 1_555
O19 Mn2 1_555 1_555
Mn2 O18 1_555 1_555
C19 C20 1_555 1_555
Mn1_2 O7_2 1_555 1_555
O3_2 C8_2 1_555 1_555
O4_2 C8_2 1_555 1_555
O5_2 C15_2 1_555 1_555
O6_2 C15_2 1_555 1_555
O7_2 C16_2 1_555 1_555
O8_2 C16_2 1_555 1_555
O9_2 N2_2 1_555 1_555
O10_2 N2_2 1_555 1_555
O11_2 N1_2 1_555 1_555
O13_2 Mn1_2 1_555 1_555
H1_2 O13_2 1_555 1_555
H2_2 O13_2 1_555 1_555
N1_2 C6_2 1_555 1_555
N2_2 C10_2 1_555 1_555
C3_2 H3_2 1_555 1_555
C4_2 C3_2 1_555 1_555
C5_2 C4_2 1_555 1_555
C6_2 C5_2 1_555 1_555
C8_2 C4_2 1_555 1_555
C9_2 C5_2 1_555 1_555
C10_2 C9_2 1_555 1_555
C11_2 C10_2 1_555 1_555
H5_2 C11_2 1_555 1_555
C12_2 C11_2 1_555 1_555
C13_2 C12_2 1_555 1_555
H6_2 C13_2 1_555 1_555
C14_2 C9_2 1_555 1_555
C15_2 C14_2 1_555 1_555
C16_2 C12_2 1_555 1_555
Mn3 O3_2 1_555 1_555
Mn5_2 O6_2 1_555 1_555
Mn6_2 O3_2 1_555 1_555
O16_2 Mn1_2 1_555 1_555
O20_2 Mn1_2 1_555 1_555
O6_2 Mn6_2 1_555 1_555
C13_2 C14_2 1_555 1_555
O15_2 Mn2_2 1_555 1_555
N3_2 C17_2 1_555 1_555
C17_2 O15_2 1_555 1_555
C18_2 C17_2 1_555 1_555
H7_2 C18_2 1_555 1_555
H8_2 C18_2 1_555 1_555
C19_2 C18_2 1_555 1_555
H9_2 C19_2 1_555 1_555
H10_2 C19_2 1_555 1_555
C20_2 N3_2 1_555 1_555
H11_2 C20_2 1_555 1_555
H12_2 C20_2 1_555 1_555
C21_2 N3_2 1_555 1_555
H13_2 C21_2 1_555 1_555
H14_2 C21_2 1_555 1_555
H15_2 C21_2 1_555 1_555
O19_2 Mn2_2 1_555 1_555
Mn2_2 O18_2 1_555 1_555
C19_2 C20_2 1_555 1_555
O1_2 C1_2 1_555 1_555
O2_2 C1_2 1_555 1_555
C1_2 C2_2 1_555 1_555
C7_2 C2_2 1_555 1_555
H4_2 C7_2 1_555 1_555
Mn4 O1_2 1_555 1_555
Mn7_2 O2_2 1_555 1_555
Mn3 O7_3 1_555 1_555
Mn6_2 O8_3 1_555 1_555
O18_2 C8_3 1_555 1_555
O4_3 C8_3 1_555 1_555
O19_2 C15_3 1_555 1_555
O7_3 C16_3 1_555 1_555
O8_3 C16_3 1_555 1_555
O9_3 N2_3 1_555 1_555
O10_3 N2_3 1_555 1_555
O11_3 N1_3 1_555 1_555
O13_3 Mn3 1_555 1_555
H1_3 O13_3 1_555 1_555
H2_3 O13_3 1_555 1_555
O14_2 Mn6_2 1_555 1_555
O15_3 Mn6_2 1_555 1_555
N1_3 C6_3 1_555 1_555
N2_3 C10_3 1_555 1_555
N3_3 C17_3 1_555 1_555
C1_3 C2_3 1_555 1_555
C2_3 C3_3 1_555 1_555
C3_3 H3_3 1_555 1_555
C4_3 C3_3 1_555 1_555
C5_3 C4_3 1_555 1_555
C6_3 C5_3 1_555 1_555
C7_3 C2_3 1_555 1_555
C8_3 C4_3 1_555 1_555
C9_3 C5_3 1_555 1_555
C10_3 C9_3 1_555 1_555
C11_3 C10_3 1_555 1_555
H5_3 C11_3 1_555 1_555
C12_3 C11_3 1_555 1_555
C13_3 C12_3 1_555 1_555
H6_3 C13_3 1_555 1_555
C14_3 C9_3 1_555 1_555
C15_3 C14_3 1_555 1_555
C16_3 C12_3 1_555 1_555
C17_3 O15_3 1_555 1_555
C18_3 C17_3 1_555 1_555
H7_3 C18_3 1_555 1_555
H8_3 C18_3 1_555 1_555
C19_3 C18_3 1_555 1_555
H9_3 C19_3 1_555 1_555
H10_3 C19_3 1_555 1_555
C20_3 N3_3 1_555 1_555
H11_3 C20_3 1_555 1_555
H12_3 C20_3 1_555 1_555
C21_3 N3_3 1_555 1_555
H13_3 C21_3 1_555 1_555
H14_3 C21_3 1_555 1_555
H15_3 C21_3 1_555 1_555
H16_2 O14_2 1_555 1_555
H17_2 O14_2 1_555 1_555
O17_3 Mn6_2 1_555 1_555
C6_3 C7_3 1_555 1_555
C13_3 C14_3 1_555 1_555
C19_3 C20_3 1_555 1_555
Mn4 O7_4 1_555 1_555
Mn6 O8_4 1_555 1_555
O2_4 C1_4 1_555 1_555
O18 C8_4 1_555 1_555
O4_4 C8_4 1_555 1_555
O5_4 C15_4 1_555 1_555
O19 C15_4 1_555 1_555
O7_4 C16_4 1_555 1_555
O8_4 C16_4 1_555 1_555
O9_4 N2_4 1_555 1_555
O10_4 N2_4 1_555 1_555
O11_4 N1_4 1_555 1_555
O12_4 N1_4 1_555 1_555
O13_4 Mn4 1_555 1_555
H1_4 O13_4 1_555 1_555
H2_4 O13_4 1_555 1_555
O15_4 Mn6 1_555 1_555
N1_4 C6_4 1_555 1_555
N2_4 C10_4 1_555 1_555
N3_4 C17_4 1_555 1_555
C1_4 C2_4 1_555 1_555
C2_4 C3_4 1_555 1_555
C3_4 H3_4 1_555 1_555
C4_4 C3_4 1_555 1_555
C5_4 C4_4 1_555 1_555
C6_4 C5_4 1_555 1_555
C7_4 C2_4 1_555 1_555
H4_4 C7_4 1_555 1_555
C8_4 C4_4 1_555 1_555
C9_4 C5_4 1_555 1_555
C10_4 C9_4 1_555 1_555
C11_4 C10_4 1_555 1_555
H5_4 C11_4 1_555 1_555
C12_4 C11_4 1_555 1_555
C13_4 C12_4 1_555 1_555
H6_4 C13_4 1_555 1_555
C14_4 C9_4 1_555 1_555
C15_4 C14_4 1_555 1_555
C16_4 C12_4 1_555 1_555
C17_4 O15_4 1_555 1_555
C18_4 C17_4 1_555 1_555
H7_4 C18_4 1_555 1_555
H8_4 C18_4 1_555 1_555
C19_4 C18_4 1_555 1_555
H9_4 C19_4 1_555 1_555
H10_4 C19_4 1_555 1_555
C20_4 N3_4 1_555 1_555
H11_4 C20_4 1_555 1_555
H12_4 C20_4 1_555 1_555
C21_4 N3_4 1_555 1_555
H13_4 C21_4 1_555 1_555
H14_4 C21_4 1_555 1_555
H15_4 C21_4 1_555 1_555
Mn5_4 O19 1_555 1_555
O17_4 Mn6 1_555 1_555
O20_4 Mn4 1_555 1_555
C6_4 C7_4 1_555 1_555
C13_4 C14_4 1_555 1_555
C19_4 C20_4 1_555 1_555
O15_5 Mn7_4 1_555 1_555
N3_5 C17_5 1_555 1_555
C17_5 O15_5 1_555 1_555
C18_5 C17_5 1_555 1_555
H7_5 C18_5 1_555 1_555
H8_5 C18_5 1_555 1_555
C19_5 C18_5 1_555 1_555
H9_5 C19_5 1_555 1_555
H10_5 C19_5 1_555 1_555
C20_5 N3_5 1_555 1_555
H11_5 C20_5 1_555 1_555
H12_5 C20_5 1_555 1_555
C21_5 N3_5 1_555 1_555
H13_5 C21_5 1_555 1_555
H14_5 C21_5 1_555 1_555
H15_5 C21_5 1_555 1_555
O20_2 Mn7_4 1_555 1_555
Mn7_4 O18_3 1_555 1_555
C19_5 C20_5 1_555 1_555
Mn5_3 O7_5 1_555 1_555
O3_3 C8_5 1_555 1_555
O4_5 C8_5 1_555 1_555
O20_3 C15_5 1_555 1_555
O7_5 C16_5 1_555 1_555
O8_5 C16_5 1_555 1_555
O9_5 N2_5 1_555 1_555
O10_5 N2_5 1_555 1_555
O11_5 N1_5 1_555 1_555
O13_5 Mn5_3 1_555 1_555
H1_5 O13_5 1_555 1_555
H2_5 O13_5 1_555 1_555
N1_5 C6_5 1_555 1_555
N2_5 C10_5 1_555 1_555
C3_5 H3_5 1_555 1_555
C4_5 C3_5 1_555 1_555
C5_5 C4_5 1_555 1_555
C6_5 C5_5 1_555 1_555
C8_5 C4_5 1_555 1_555
C9_5 C5_5 1_555 1_555
C10_5 C9_5 1_555 1_555
C11_5 C10_5 1_555 1_555
H5_5 C11_5 1_555 1_555
C12_5 C11_5 1_555 1_555
C13_5 C12_5 1_555 1_555
H6_5 C13_5 1_555 1_555
C14_5 C9_5 1_555 1_555
C15_5 C14_5 1_555 1_555
C16_5 C12_5 1_555 1_555
H16_3 O14_3 1_555 1_555
Mn5_2 O3_3 1_555 1_555
Mn7 O3_3 1_555 1_555
O16_3 Mn5_3 1_555 1_555
O20_3 Mn7 1_555 1_555
C13_5 C14_5 1_555 1_555
O1_3 C1_5 1_555 1_555
C1_5 C2_5 1_555 1_555
C7_5 C2_5 1_555 1_555
Mn5 O1_3 1_555 1_555
O1_4 C1_6 1_555 1_555
O17_3 C1_6 1_555 1_555
C1_6 C2_6 1_555 1_555
C7_6 C2_6 1_555 1_555
H4_6 C7_6 1_555 1_555
Mn5_2 O1_4 1_555 1_555
O15_6 Mn7_3 1_555 1_555
N3_6 C17_6 1_555 1_555
C17_6 O15_6 1_555 1_555
C18_6 C17_6 1_555 1_555
H7_6 C18_6 1_555 1_555
H8_6 C18_6 1_555 1_555
C19_6 C18_6 1_555 1_555
H9_6 C19_6 1_555 1_555
H10_6 C19_6 1_555 1_555
C20_6 N3_6 1_555 1_555
H11_6 C20_6 1_555 1_555
H12_6 C20_6 1_555 1_555
C21_6 N3_6 1_555 1_555
H13_6 C21_6 1_555 1_555
H14_6 C21_6 1_555 1_555
H15_6 C21_6 1_555 1_555
O20 Mn7_3 1_555 1_555
Mn7_3 O18_4 1_555 1_555
C19_6 C20_6 1_555 1_555
Mn5_4 O7_6 1_555 1_555
O3_4 C8_6 1_555 1_555
O4_6 C8_6 1_555 1_555
O5_6 C15_6 1_555 1_555
O20_4 C15_6 1_555 1_555
O7_6 C16_6 1_555 1_555
O8_6 C16_6 1_555 1_555
O9_6 N2_6 1_555 1_555
O10_6 N2_6 1_555 1_555
O11_6 N1_6 1_555 1_555
O13_6 Mn5_4 1_555 1_555
H1_6 O13_6 1_555 1_555
H2_6 O13_6 1_555 1_555
N1_6 C6_6 1_555 1_555
N2_6 C10_6 1_555 1_555
C3_6 H3_6 1_555 1_555
C4_6 C3_6 1_555 1_555
C5_6 C4_6 1_555 1_555
C6_6 C5_6 1_555 1_555
C8_6 C4_6 1_555 1_555
C9_6 C5_6 1_555 1_555
C10_6 C9_6 1_555 1_555
C11_6 C10_6 1_555 1_555
H5_6 C11_6 1_555 1_555
C12_6 C11_6 1_555 1_555
C13_6 C12_6 1_555 1_555
H6_6 C13_6 1_555 1_555
C14_6 C9_6 1_555 1_555
C15_6 C14_6 1_555 1_555
C16_6 C12_6 1_555 1_555
Mn5 O3_4 1_555 1_555
Mn7_2 O3_4 1_555 1_555
O16_4 Mn5_4 1_555 1_555
O20_4 Mn7_2 1_555 1_555
C13_6 C14_6 1_555 1_555
Mn5 O7_7 1_555 1_555
Mn7_2 O8_7 1_555 1_555
O18_4 C8_7 1_555 1_555
O4_7 C8_7 1_555 1_555
O20 C15_7 1_555 1_555
O7_7 C16_7 1_555 1_555
O8_7 C16_7 1_555 1_555
O9_7 N2_7 1_555 1_555
O10_7 N2_7 1_555 1_555
O11_7 N1_7 1_555 1_555
O13_7 Mn5 1_555 1_555
H1_7 O13_7 1_555 1_555
H2_7 O13_7 1_555 1_555
O14_4 Mn7_2 1_555 1_555
O15_7 Mn7_2 1_555 1_555
N1_7 C6_7 1_555 1_555
N2_7 C10_7 1_555 1_555
N3_7 C17_7 1_555 1_555
C1_7 C2_7 1_555 1_555
C2_7 C3_7 1_555 1_555
C3_7 H3_7 1_555 1_555
C4_7 C3_7 1_555 1_555
C5_7 C4_7 1_555 1_555
C6_7 C5_7 1_555 1_555
C7_7 C2_7 1_555 1_555
C8_7 C4_7 1_555 1_555
C9_7 C5_7 1_555 1_555
C10_7 C9_7 1_555 1_555
C11_7 C10_7 1_555 1_555
H5_7 C11_7 1_555 1_555
C12_7 C11_7 1_555 1_555
C13_7 C12_7 1_555 1_555
H6_7 C13_7 1_555 1_555
C14_7 C9_7 1_555 1_555
C15_7 C14_7 1_555 1_555
C16_7 C12_7 1_555 1_555
C17_7 O15_7 1_555 1_555
C18_7 C17_7 1_555 1_555
H7_7 C18_7 1_555 1_555
H8_7 C18_7 1_555 1_555
C19_7 C18_7 1_555 1_555
H9_7 C19_7 1_555 1_555
H10_7 C19_7 1_555 1_555
C20_7 N3_7 1_555 1_555
H11_7 C20_7 1_555 1_555
H12_7 C20_7 1_555 1_555
C21_7 N3_7 1_555 1_555
H13_7 C21_7 1_555 1_555
H14_7 C21_7 1_555 1_555
H15_7 C21_7 1_555 1_555
H16_4 O14_4 1_555 1_555
H17_4 O14_4 1_555 1_555
C6_7 C7_7 1_555 1_555
C13_7 C14_7 1_555 1_555
C19_7 C20_7 1_555 1_555
Mn5_2 O7_8 1_555 1_555
Mn7 O8_8 1_555 1_555
O17 C1_8 1_555 1_555
O18_3 C8_8 1_555 1_555
O4_8 C8_8 1_555 1_555
O5_8 C15_8 1_555 1_555
O20_2 C15_8 1_555 1_555
O7_8 C16_8 1_555 1_555
O8_8 C16_8 1_555 1_555
O9_8 N2_8 1_555 1_555
O10_8 N2_8 1_555 1_555
O11_8 N1_8 1_555 1_555
O12_8 N1_8 1_555 1_555
O13_8 Mn5_2 1_555 1_555
H1_8 O13_8 1_555 1_555
H2_8 O13_8 1_555 1_555
O15_8 Mn7 1_555 1_555
N1_8 C6_8 1_555 1_555
N2_8 C10_8 1_555 1_555
N3_8 C17_8 1_555 1_555
C1_8 C2_8 1_555 1_555
C2_8 C3_8 1_555 1_555
C3_8 H3_8 1_555 1_555
C4_8 C3_8 1_555 1_555
C5_8 C4_8 1_555 1_555
C6_8 C5_8 1_555 1_555
C7_8 C2_8 1_555 1_555
H4_8 C7_8 1_555 1_555
C8_8 C4_8 1_555 1_555
C9_8 C5_8 1_555 1_555
C10_8 C9_8 1_555 1_555
C11_8 C10_8 1_555 1_555
H5_8 C11_8 1_555 1_555
C12_8 C11_8 1_555 1_555
C13_8 C12_8 1_555 1_555
H6_8 C13_8 1_555 1_555
C14_8 C9_8 1_555 1_555
C15_8 C14_8 1_555 1_555
C16_8 C12_8 1_555 1_555
C17_8 O15_8 1_555 1_555
C18_8 C17_8 1_555 1_555
H7_8 C18_8 1_555 1_555
H8_8 C18_8 1_555 1_555
C19_8 C18_8 1_555 1_555
H9_8 C19_8 1_555 1_555
H10_8 C19_8 1_555 1_555
C20_8 N3_8 1_555 1_555
H11_8 C20_8 1_555 1_555
H12_8 C20_8 1_555 1_555
C21_8 N3_8 1_555 1_555
H13_8 C21_8 1_555 1_555
H14_8 C21_8 1_555 1_555
H15_8 C21_8 1_555 1_555
C6_8 C7_8 1_555 1_555
C13_8 C14_8 1_555 1_555
C19_8 C20_8 1_555 1_555
H16_5 O14_5 1_555 1_555
H16_6 O14_6 1_555 1_555
H17_6 O14_6 1_555 1_555
H16_7 O14_7 1_555 1_555
H16_8 O14_8 1_555 1_555
H17_8 O14_8 1_555 1_555

#END
