
###############################################################################
#
# This file contains modified crystal structure data generated from the
# MOF subset of the Cambridge Structural Database (CSD) v543 
# hosted by the Cambridge Crystallographic Data Centre (CCDC).
#
# This work is licensed under the Creative Commons
# Attribution-NonCommercial-ShareAlike 4.0 International License.
# To view a copy of this license, visit
# http://creativecommons.org/licenses/by-nc-sa/4.0/
# or send a letter to
# Creative Commons, PO Box 1866, Mountain View, CA 94042, USA.
#
# CIF created using the CSD Python API on 29 September 2022
# The structure has been converted into the P1 space group
# The structure has a 3D framework
# The original CSD entry OCUMIL is in the monoclinic crystal system
# The framework has been calculated to contain at least 10.0% void space
# The void calculation uses a probe of radius 1.32A, grid spacing 0.4
#
###############################################################################

data_OCUMIL
_chemical_formula_moiety         '(C152 H120 Mn16 N24 O120)n'
_symmetry_cell_setting           triclinic
_symmetry_space_group_name_H-M   'P 1'
_symmetry_Int_Tables_number      1
_space_group_name_Hall           'P 1'
loop_
_symmetry_equiv_pos_site_id
_symmetry_equiv_pos_as_xyz
1 x,y,z
_cell_length_a                   25.56(2)
_cell_length_b                   17.280(17)
_cell_length_c                   13.187(12)
_cell_angle_alpha                90
_cell_angle_beta                 107.198(16)
_cell_angle_gamma                90
_cell_volume                     5563.98
loop_
_atom_site_label
_atom_site_type_symbol
_atom_site_fract_x
_atom_site_fract_y
_atom_site_fract_z
Mn1 Mn 0.36059(2) 0.06850(3) 0.14081(4)
O4 O 0.42808(11) 0.00755(16) 0.1163(2)
H7 H 0.4149 0.0970 0.3434
H8 H 0.4447 0.1310 0.2922
O14 O 0.41096(13) 0.11950(18) 0.2833(2)
Mn3 Mn 0.63941(2) 0.06850(3) 0.35919(4)
O19 O 0.28873(11) 0.12297(19) 0.1485(2)
Mn2 Mn 0.32190(2) 0.01464(4) 0.87928(5)
O12 O 0.24842(16) 0.0834(3) 0.8115(3)
N3 N 0.1974(2) 0.1744(3) 0.7044(5)
C17 C 0.2379(3) 0.1256(4) 0.7338(5)
H9 H 0.2611 0.1226 0.6914
C18 C 0.1620(3) 0.1887(5) 0.7693(9)
H10 H 0.1248 0.1783 0.7290
H11 H 0.1654 0.2417 0.7918
H12 H 0.1723 0.1555 0.8304
C19 C 0.1864(5) 0.2169(6) 0.6058(8)
H13 H 0.1836 0.2711 0.6194
H14 H 0.1526 0.1991 0.5574
H15 H 0.2157 0.2086 0.5753
O17 O 0.35757(11) 0.03406(15) 0.7526(2)
O18 O 0.34913(13) 0.11768(17) 0.9806(2)
C1 C 0.51674(16) 0.7810(2) 0.0669(3)
C2 C 0.47338(15) 0.8315(2) 0.0350(3)
C3 C 0.47859(14) 0.9050(2) 0.0775(3)
C4 C 0.52740(15) 0.9262(2) 0.1516(3)
H2 H 0.5310 0.9756 0.1809
C5 C 0.57088(14) 0.8748(2) 0.1826(3)
C6 C 0.56617(14) 0.8006(2) 0.1410(3)
C7 C 0.61611(15) 0.7505(2) 0.1637(3)
C8 C 0.64919(15) 0.7594(2) 0.0982(3)
C9 C 0.69664(15) 0.7161(2) 0.1149(3)
H3 H 0.7180 0.7218 0.0693
C10 C 0.71248(15) 0.6649(2) 0.1981(3)
C11 C 0.68051(17) 0.6565(2) 0.2643(3)
H4 H 0.6911 0.6226 0.3214
C12 C 0.63265(15) 0.6983(2) 0.2465(3)
C13 C 0.43109(14) 0.9596(2) 0.0486(3)
C14 C 0.62260(14) 0.9008(2) 0.2656(3)
C15 C 0.63342(16) 0.8142(2) 0.0055(3)
C16 C 0.76502(16) 0.6194(2) 0.2179(3)
N1 N 0.50793(15) 0.7033(2) 0.0221(3)
N2 N 0.59877(17) 0.6855(3) 0.3150(3)
O1 O 0.53279(17) 0.6502(2) 0.0733(4)
O5 O 0.64243(11) 0.96594(15) 0.2474(2)
O6 O 0.64124(12) 0.86244(17) 0.3451(2)
O7 O 0.65087(13) 0.88232(17) 0.0194(2)
O9 O 0.78873(11) 0.62297(19) 0.1485(2)
O10 O 0.78033(14) 0.5832(2) 0.3026(3)
O11 O 0.55809(16) 0.7185(3) 0.3055(4)
H5 H 0.3113 0.9340 0.0440
H6 H 0.2692 0.9801 0.0308
O13 O 0.30100(12) 0.98012(17) 0.0246(2)
O15 O 0.6154(3) 0.6424(4) 0.3878(6)
Mn4 Mn 0.86059(2) 0.56850(3) 0.14081(4)
Mn6 Mn 0.67810(2) 0.98536(4) 0.12072(5)
Mn7 Mn 0.82190(2) 0.48536(4) 0.37928(5)
O16 O 0.35757(11) 0.96594(15) 0.2526(2)
H1 H 0.4409 0.8162 0.9853
O2 O 0.47529(17) 0.6955(2) 0.9351(4)
O3 O 0.39707(11) 0.95159(17) 0.9579(2)
O8 O 0.60521(18) 0.7895(2) 0.9198(3)
Mn5 Mn 0.63941(2) 0.93150(3) 0.85919(4)
O20 O 0.28033(14) 0.9168(2) 0.8026(3)
Mn2_2 Mn 0.67810(2) 0.01464(4) 0.62072(5)
O4_2 O 0.57192(11) 0.00755(16) 0.3837(2)
O12_2 O 0.75158(16) 0.0834(3) 0.6885(3)
H7_2 H 0.5851 0.0970 0.1566
H8_2 H 0.5553 0.1310 0.2078
O14_2 O 0.58904(13) 0.11950(18) 0.2167(2)
N3_2 N 0.8026(2) 0.1744(3) 0.7956(5)
C17_2 C 0.7621(3) 0.1256(4) 0.7662(5)
H9_2 H 0.7389 0.1226 0.8086
C18_2 C 0.8380(3) 0.1887(5) 0.7307(9)
H10_2 H 0.8752 0.1783 0.7710
H11_2 H 0.8346 0.2417 0.7082
H12_2 H 0.8277 0.1555 0.6696
C19_2 C 0.8136(5) 0.2169(6) 0.8942(8)
H13_2 H 0.8164 0.2711 0.8806
H14_2 H 0.8474 0.1991 0.9426
H15_2 H 0.7843 0.2086 0.9247
O17_2 O 0.64243(11) 0.03406(15) 0.7474(2)
O18_2 O 0.65087(13) 0.11768(17) 0.5194(2)
O19_2 O 0.71127(11) 0.12297(19) 0.3515(2)
C1_2 C 0.48326(16) 0.7810(2) 0.4331(3)
C2_2 C 0.52662(15) 0.8315(2) 0.4650(3)
H1_2 H 0.5591 0.8162 0.5147
C3_2 C 0.52141(14) 0.9050(2) 0.4225(3)
C4_2 C 0.47260(15) 0.9262(2) 0.3484(3)
H2_2 H 0.4690 0.9756 0.3191
C5_2 C 0.42912(14) 0.8748(2) 0.3174(3)
C6_2 C 0.43383(14) 0.8006(2) 0.3590(3)
C7_2 C 0.38389(15) 0.7505(2) 0.3363(3)
C8_2 C 0.35081(15) 0.7594(2) 0.4018(3)
C9_2 C 0.30336(15) 0.7161(2) 0.3851(3)
H3_2 H 0.2820 0.7218 0.4307
C10_2 C 0.28752(15) 0.6649(2) 0.3019(3)
C11_2 C 0.31949(17) 0.6565(2) 0.2357(3)
H4_2 H 0.3089 0.6226 0.1786
C12_2 C 0.36735(15) 0.6983(2) 0.2535(3)
C13_2 C 0.56891(14) 0.9596(2) 0.4514(3)
C14_2 C 0.37740(14) 0.9008(2) 0.2344(3)
C15_2 C 0.36658(16) 0.8142(2) 0.4945(3)
C16_2 C 0.23498(16) 0.6194(2) 0.2821(3)
N1_2 N 0.49207(15) 0.7033(2) 0.4779(3)
N2_2 N 0.40123(17) 0.6855(3) 0.1850(3)
O1_2 O 0.46721(17) 0.6502(2) 0.4267(4)
O2_2 O 0.52471(17) 0.6955(2) 0.5649(4)
O3_2 O 0.60293(11) 0.95159(17) 0.5421(2)
O6_2 O 0.35876(12) 0.86244(17) 0.1549(2)
O7_2 O 0.34913(13) 0.88232(17) 0.4806(2)
O8_2 O 0.39479(18) 0.7895(2) 0.5802(3)
O9_2 O 0.21127(11) 0.62297(19) 0.3515(2)
O10_2 O 0.21967(14) 0.5832(2) 0.1974(3)
O11_2 O 0.44191(16) 0.7185(3) 0.1945(4)
H5_2 H 0.6887 0.9340 0.4560
H6_2 H 0.7308 0.9801 0.4692
O13_2 O 0.69900(12) 0.98012(17) 0.4754(2)
O15_2 O 0.3846(3) 0.6424(4) 0.1122(6)
Mn4_2 Mn 0.13941(2) 0.56850(3) 0.35919(4)
Mn5_2 Mn 0.36059(2) 0.93150(3) 0.64081(4)
Mn6_2 Mn 0.32190(2) 0.98536(4) 0.37928(5)
Mn7_2 Mn 0.17810(2) 0.48536(4) 0.12072(5)
O20_2 O 0.71967(14) 0.9168(2) 0.6974(3)
C1_3 C 0.01674(16) 0.2810(2) 0.0669(3)
C4_3 C 0.02740(15) 0.4262(2) 0.1516(3)
H2_3 H 0.0310 0.4756 0.1809
C5_3 C 0.07088(14) 0.3748(2) 0.1826(3)
C6_3 C 0.06617(14) 0.3006(2) 0.1410(3)
C7_3 C 0.11611(15) 0.2505(2) 0.1637(3)
C8_3 C 0.14919(15) 0.2594(2) 0.0982(3)
C9_3 C 0.19664(15) 0.2161(2) 0.1149(3)
H3_3 H 0.2180 0.2218 0.0693
C10_3 C 0.21248(15) 0.1649(2) 0.1981(3)
C11_3 C 0.18051(17) 0.1565(2) 0.2643(3)
H4_3 H 0.1911 0.1226 0.3214
C12_3 C 0.13265(15) 0.1983(2) 0.2465(3)
C14_3 C 0.12260(14) 0.4008(2) 0.2656(3)
C15_3 C 0.13342(16) 0.3142(2) 0.0055(3)
C16_3 C 0.26502(16) 0.1194(2) 0.2179(3)
N1_3 N 0.00793(15) 0.2033(2) 0.0221(3)
N2_3 N 0.09877(17) 0.1855(3) 0.3150(3)
O1_3 O 0.03279(17) 0.1502(2) 0.0733(4)
O5_2 O 0.14243(11) 0.46594(15) 0.2474(2)
O6_3 O 0.14124(12) 0.36244(17) 0.3451(2)
O7_3 O 0.15087(13) 0.38232(17) 0.0194(2)
O10_3 O 0.28033(14) 0.0832(2) 0.3026(3)
O11_3 O 0.05809(16) 0.2185(3) 0.3055(4)
O15_3 O 0.1154(3) 0.1424(4) 0.3878(6)
O8_3 O 0.10521(18) 0.2895(2) 0.9198(3)
Mn5_3 Mn 0.13941(2) 0.43150(3) 0.85919(4)
C2_3 C 0.97338(15) 0.3315(2) 0.0350(3)
C3_3 C 0.97859(14) 0.4050(2) 0.0775(3)
C13_3 C 0.93109(14) 0.4596(2) 0.0486(3)
O4_3 O 0.92808(11) 0.50755(16) 0.1163(2)
H5_3 H 0.8113 0.4340 0.0440
H6_3 H 0.7692 0.4801 0.0308
H7_3 H 0.9149 0.5970 0.3434
H8_3 H 0.9447 0.6310 0.2922
O13_3 O 0.80100(12) 0.48012(17) 0.0246(2)
O14_3 O 0.91096(13) 0.61950(18) 0.2833(2)
O16_2 O 0.85757(11) 0.46594(15) 0.2526(2)
H1_3 H 0.9409 0.3162 0.9853
Mn2_3 Mn 0.82190(2) 0.51464(4) 0.87928(5)
O2_3 O 0.97529(17) 0.1955(2) 0.9351(4)
O3_3 O 0.89707(11) 0.45159(17) 0.9579(2)
O12_3 O 0.74842(16) 0.5834(3) 0.8115(3)
N3_3 N 0.6974(2) 0.6744(3) 0.7044(5)
C17_3 C 0.7379(3) 0.6256(4) 0.7338(5)
H9_3 H 0.7611 0.6226 0.6914
C18_3 C 0.6620(3) 0.6887(5) 0.7693(9)
H10_3 H 0.6248 0.6783 0.7290
H11_3 H 0.6654 0.7417 0.7918
H12_3 H 0.6723 0.6555 0.8304
C19_3 C 0.6864(5) 0.7169(6) 0.6058(8)
H13_3 H 0.6836 0.7711 0.6194
H14_3 H 0.6526 0.6991 0.5574
H15_3 H 0.7157 0.7086 0.5753
O17_3 O 0.85757(11) 0.53406(15) 0.7526(2)
O18_3 O 0.84913(13) 0.61768(17) 0.9806(2)
O20_3 O 0.78033(14) 0.4168(2) 0.8026(3)
C2_4 C 0.02662(15) 0.3315(2) 0.4650(3)
H1_4 H 0.0591 0.3162 0.5147
C3_4 C 0.02141(14) 0.4050(2) 0.4225(3)
C13_4 C 0.06891(14) 0.4596(2) 0.4514(3)
Mn2_4 Mn 0.17810(2) 0.51464(4) 0.62072(5)
O2_4 O 0.02471(17) 0.1955(2) 0.5649(4)
O3_4 O 0.10293(11) 0.45159(17) 0.5421(2)
O4_4 O 0.07192(11) 0.50755(16) 0.3837(2)
O12_4 O 0.25158(16) 0.5834(3) 0.6885(3)
H5_4 H 0.1887 0.4340 0.4560
H6_4 H 0.2308 0.4801 0.4692
H7_4 H 0.0851 0.5970 0.1566
H8_4 H 0.0553 0.6310 0.2078
O13_4 O 0.19900(12) 0.48012(17) 0.4754(2)
O14_4 O 0.08904(13) 0.61950(18) 0.2167(2)
N3_4 N 0.3026(2) 0.6744(3) 0.7956(5)
C17_4 C 0.2621(3) 0.6256(4) 0.7662(5)
H9_4 H 0.2389 0.6226 0.8086
C18_4 C 0.3380(3) 0.6887(5) 0.7307(9)
H10_4 H 0.3752 0.6783 0.7710
H11_4 H 0.3346 0.7417 0.7082
H12_4 H 0.3277 0.6555 0.6696
C19_4 C 0.3136(5) 0.7169(6) 0.8942(8)
H13_4 H 0.3164 0.7711 0.8806
H14_4 H 0.3474 0.6991 0.9426
H15_4 H 0.2843 0.7086 0.9247
O17_4 O 0.14243(11) 0.53406(15) 0.7474(2)
O18_4 O 0.15087(13) 0.61768(17) 0.5194(2)
O20_4 O 0.21967(14) 0.4168(2) 0.6974(3)
C1_4 C 0.98326(16) 0.2810(2) 0.4331(3)
C4_4 C 0.97260(15) 0.4262(2) 0.3484(3)
H2_4 H 0.9690 0.4756 0.3191
C5_4 C 0.92912(14) 0.3748(2) 0.3174(3)
C6_4 C 0.93383(14) 0.3006(2) 0.3590(3)
C7_4 C 0.88389(15) 0.2505(2) 0.3363(3)
C8_4 C 0.85081(15) 0.2594(2) 0.4018(3)
C9_4 C 0.80336(15) 0.2161(2) 0.3851(3)
H3_4 H 0.7820 0.2218 0.4307
C10_4 C 0.78752(15) 0.1649(2) 0.3019(3)
C11_4 C 0.81949(17) 0.1565(2) 0.2357(3)
H4_4 H 0.8089 0.1226 0.1786
C12_4 C 0.86735(15) 0.1983(2) 0.2535(3)
C14_4 C 0.87740(14) 0.4008(2) 0.2344(3)
C15_4 C 0.86658(16) 0.3142(2) 0.4945(3)
C16_4 C 0.73498(16) 0.1194(2) 0.2821(3)
N1_4 N 0.99207(15) 0.2033(2) 0.4779(3)
N2_4 N 0.90123(17) 0.1855(3) 0.1850(3)
O1_4 O 0.96721(17) 0.1502(2) 0.4267(4)
O6_4 O 0.85876(12) 0.36244(17) 0.1549(2)
O7_4 O 0.84913(13) 0.38232(17) 0.4806(2)
O8_4 O 0.89479(18) 0.2895(2) 0.5802(3)
O10_4 O 0.71967(14) 0.0832(2) 0.1974(3)
O11_4 O 0.94191(16) 0.2185(3) 0.1945(4)
O15_4 O 0.8846(3) 0.1424(4) 0.1122(6)
Mn5_4 Mn 0.86059(2) 0.43150(3) 0.64081(4)
H1_5 H 0.5591 0.1838 0.0147
O2_5 O 0.52471(17) 0.3045(2) 0.0649(4)
O3_5 O 0.60293(11) 0.04841(17) 0.0421(2)
O8_5 O 0.39479(18) 0.2105(2) 0.0802(3)
C1_5 C 0.48326(16) 0.2190(2) 0.9331(3)
C2_5 C 0.52662(15) 0.1685(2) 0.9650(3)
C3_5 C 0.52141(14) 0.0950(2) 0.9225(3)
C4_5 C 0.47260(15) 0.0738(2) 0.8484(3)
H2_5 H 0.4690 0.0244 0.8191
C5_5 C 0.42912(14) 0.1252(2) 0.8174(3)
C6_5 C 0.43383(14) 0.1994(2) 0.8590(3)
C7_5 C 0.38389(15) 0.2495(2) 0.8363(3)
C8_5 C 0.35081(15) 0.2406(2) 0.9018(3)
C9_5 C 0.30336(15) 0.2839(2) 0.8851(3)
H3_5 H 0.2820 0.2782 0.9307
C10_5 C 0.28752(15) 0.3351(2) 0.8019(3)
C11_5 C 0.31949(17) 0.3435(2) 0.7357(3)
H4_5 H 0.3089 0.3774 0.6786
C12_5 C 0.36735(15) 0.3017(2) 0.7535(3)
C13_5 C 0.56891(14) 0.0404(2) 0.9514(3)
C14_5 C 0.37740(14) 0.0992(2) 0.7344(3)
C15_5 C 0.36658(16) 0.1858(2) 0.9945(3)
C16_5 C 0.23498(16) 0.3806(2) 0.7821(3)
N1_5 N 0.49207(15) 0.2967(2) 0.9779(3)
N2_5 N 0.40123(17) 0.3145(3) 0.6850(3)
O1_5 O 0.46721(17) 0.3498(2) 0.9267(4)
O6_5 O 0.35876(12) 0.13756(17) 0.6549(2)
O9_3 O 0.21127(11) 0.37703(19) 0.8515(2)
O11_5 O 0.44191(16) 0.2815(3) 0.6945(4)
H5_5 H 0.6887 0.0660 0.9560
H6_5 H 0.7308 0.0199 0.9692
O13_5 O 0.69900(12) 0.01988(17) 0.9754(2)
O15_5 O 0.3846(3) 0.3576(4) 0.6122(6)
O12_5 O 0.75158(16) 0.9166(3) 0.1885(3)
N3_5 N 0.8026(2) 0.8256(3) 0.2956(5)
C17_5 C 0.7621(3) 0.8744(4) 0.2662(5)
H9_5 H 0.7389 0.8774 0.3086
C18_5 C 0.8380(3) 0.8113(5) 0.2307(9)
H10_5 H 0.8752 0.8217 0.2710
H11_5 H 0.8346 0.7583 0.2082
H12_5 H 0.8277 0.8445 0.1696
C19_5 C 0.8136(5) 0.7831(6) 0.3942(8)
H13_5 H 0.8164 0.7289 0.3806
H14_5 H 0.8474 0.8009 0.4426
H15_5 H 0.7843 0.7914 0.4247
O4_5 O 0.57192(11) 0.99245(16) 0.8837(2)
H7_5 H 0.5851 0.9030 0.6566
H8_5 H 0.5553 0.8690 0.7078
O14_5 O 0.58904(13) 0.88050(18) 0.7167(2)
O19_3 O 0.71127(11) 0.87703(19) 0.8515(2)
C1_6 C 0.51674(16) 0.2190(2) 0.5669(3)
C2_6 C 0.47338(15) 0.1685(2) 0.5350(3)
H1_6 H 0.4409 0.1838 0.4853
C3_6 C 0.47859(14) 0.0950(2) 0.5775(3)
C4_6 C 0.52740(15) 0.0738(2) 0.6516(3)
H2_6 H 0.5310 0.0244 0.6809
C5_6 C 0.57088(14) 0.1252(2) 0.6826(3)
C6_6 C 0.56617(14) 0.1994(2) 0.6410(3)
C7_6 C 0.61611(15) 0.2495(2) 0.6637(3)
C8_6 C 0.64919(15) 0.2406(2) 0.5982(3)
C9_6 C 0.69664(15) 0.2839(2) 0.6149(3)
H3_6 H 0.7180 0.2782 0.5693
C10_6 C 0.71248(15) 0.3351(2) 0.6981(3)
C11_6 C 0.68051(17) 0.3435(2) 0.7643(3)
H4_6 H 0.6911 0.3774 0.8214
C12_6 C 0.63265(15) 0.3017(2) 0.7465(3)
C13_6 C 0.43109(14) 0.0404(2) 0.5486(3)
C14_6 C 0.62260(14) 0.0992(2) 0.7656(3)
C15_6 C 0.63342(16) 0.1858(2) 0.5055(3)
C16_6 C 0.76502(16) 0.3806(2) 0.7179(3)
N1_6 N 0.50793(15) 0.2967(2) 0.5221(3)
N2_6 N 0.59877(17) 0.3145(3) 0.8150(3)
O1_6 O 0.53279(17) 0.3498(2) 0.5733(4)
O2_6 O 0.47529(17) 0.3045(2) 0.4351(4)
O3_6 O 0.39707(11) 0.04841(17) 0.4579(2)
O6_6 O 0.64124(12) 0.13756(17) 0.8451(2)
O8_6 O 0.60521(18) 0.2105(2) 0.4198(3)
O9_4 O 0.78873(11) 0.37703(19) 0.6485(2)
O11_6 O 0.55809(16) 0.2815(3) 0.8055(4)
H5_6 H 0.3113 0.0660 0.5440
H6_6 H 0.2692 0.0199 0.5308
O13_6 O 0.30100(12) 0.01988(17) 0.5246(2)
O15_6 O 0.6154(3) 0.3576(4) 0.8878(6)
O4_6 O 0.42808(11) 0.99245(16) 0.6163(2)
O12_6 O 0.24842(16) 0.9166(3) 0.3115(3)
H7_6 H 0.4149 0.9030 0.8434
H8_6 H 0.4447 0.8690 0.7922
O14_6 O 0.41096(13) 0.88050(18) 0.7833(2)
N3_6 N 0.1974(2) 0.8256(3) 0.2044(5)
C17_6 C 0.2379(3) 0.8744(4) 0.2338(5)
H9_6 H 0.2611 0.8774 0.1914
C18_6 C 0.1620(3) 0.8113(5) 0.2693(9)
H10_6 H 0.1248 0.8217 0.2290
H11_6 H 0.1654 0.7583 0.2918
H12_6 H 0.1723 0.8445 0.3304
C19_6 C 0.1864(5) 0.7831(6) 0.1058(8)
H13_6 H 0.1836 0.7289 0.1194
H14_6 H 0.1526 0.8009 0.0574
H15_6 H 0.2157 0.7914 0.0753
O19_4 O 0.28873(11) 0.87703(19) 0.6485(2)
H1_7 H 0.0591 0.6838 0.0147
O2_7 O 0.02471(17) 0.8045(2) 0.0649(4)
O3_7 O 0.10293(11) 0.54841(17) 0.0421(2)
O12_7 O 0.25158(16) 0.4166(3) 0.1885(3)
N3_7 N 0.3026(2) 0.3256(3) 0.2956(5)
C17_7 C 0.2621(3) 0.3744(4) 0.2662(5)
H9_7 H 0.2389 0.3774 0.3086
C18_7 C 0.3380(3) 0.3113(5) 0.2307(9)
H10_7 H 0.3752 0.3217 0.2710
H11_7 H 0.3346 0.2583 0.2082
H12_7 H 0.3277 0.3445 0.1696
C19_7 C 0.3136(5) 0.2831(6) 0.3942(8)
H13_7 H 0.3164 0.2289 0.3806
H14_7 H 0.3474 0.3009 0.4426
H15_7 H 0.2843 0.2914 0.4247
C2_7 C 0.02662(15) 0.6685(2) 0.9650(3)
C3_7 C 0.02141(14) 0.5950(2) 0.9225(3)
C13_7 C 0.06891(14) 0.5404(2) 0.9514(3)
O4_7 O 0.07192(11) 0.49245(16) 0.8837(2)
H5_7 H 0.1887 0.5660 0.9560
H6_7 H 0.2308 0.5199 0.9692
H7_7 H 0.0851 0.4030 0.6566
H8_7 H 0.0553 0.3690 0.7078
O13_7 O 0.19900(12) 0.51988(17) 0.9754(2)
O14_7 O 0.08904(13) 0.38050(18) 0.7167(2)
O8_7 O 0.89479(18) 0.7105(2) 0.0802(3)
C1_7 C 0.98326(16) 0.7190(2) 0.9331(3)
C4_7 C 0.97260(15) 0.5738(2) 0.8484(3)
H2_7 H 0.9690 0.5244 0.8191
C5_7 C 0.92912(14) 0.6252(2) 0.8174(3)
C6_7 C 0.93383(14) 0.6994(2) 0.8590(3)
C7_7 C 0.88389(15) 0.7495(2) 0.8363(3)
C8_7 C 0.85081(15) 0.7406(2) 0.9018(3)
C9_7 C 0.80336(15) 0.7839(2) 0.8851(3)
H3_7 H 0.7820 0.7782 0.9307
C10_7 C 0.78752(15) 0.8351(2) 0.8019(3)
C11_7 C 0.81949(17) 0.8435(2) 0.7357(3)
H4_7 H 0.8089 0.8774 0.6786
C12_7 C 0.86735(15) 0.8017(2) 0.7535(3)
C14_7 C 0.87740(14) 0.5992(2) 0.7344(3)
C15_7 C 0.86658(16) 0.6858(2) 0.9945(3)
C16_7 C 0.73498(16) 0.8806(2) 0.7821(3)
N1_7 N 0.99207(15) 0.7967(2) 0.9779(3)
N2_7 N 0.90123(17) 0.8145(3) 0.6850(3)
O1_7 O 0.96721(17) 0.8498(2) 0.9267(4)
O6_7 O 0.85876(12) 0.63756(17) 0.6549(2)
O11_7 O 0.94191(16) 0.7815(3) 0.6945(4)
O15_7 O 0.8846(3) 0.8576(4) 0.6122(6)
C1_8 C 0.01674(16) 0.7190(2) 0.5669(3)
C4_8 C 0.02740(15) 0.5738(2) 0.6516(3)
H2_8 H 0.0310 0.5244 0.6809
C5_8 C 0.07088(14) 0.6252(2) 0.6826(3)
C6_8 C 0.06617(14) 0.6994(2) 0.6410(3)
C7_8 C 0.11611(15) 0.7495(2) 0.6637(3)
C8_8 C 0.14919(15) 0.7406(2) 0.5982(3)
C9_8 C 0.19664(15) 0.7839(2) 0.6149(3)
H3_8 H 0.2180 0.7782 0.5693
C10_8 C 0.21248(15) 0.8351(2) 0.6981(3)
C11_8 C 0.18051(17) 0.8435(2) 0.7643(3)
H4_8 H 0.1911 0.8774 0.8214
C12_8 C 0.13265(15) 0.8017(2) 0.7465(3)
C14_8 C 0.12260(14) 0.5992(2) 0.7656(3)
C15_8 C 0.13342(16) 0.6858(2) 0.5055(3)
C16_8 C 0.26502(16) 0.8806(2) 0.7179(3)
N1_8 N 0.00793(15) 0.7967(2) 0.5221(3)
N2_8 N 0.09877(17) 0.8145(3) 0.8150(3)
O1_8 O 0.03279(17) 0.8498(2) 0.5733(4)
O6_8 O 0.14124(12) 0.63756(17) 0.8451(2)
O8_8 O 0.10521(18) 0.7105(2) 0.4198(3)
O11_8 O 0.05809(16) 0.7815(3) 0.8055(4)
O15_8 O 0.1154(3) 0.8576(4) 0.8878(6)
C2_8 C 0.97338(15) 0.6685(2) 0.5350(3)
H1_8 H 0.9409 0.6838 0.4853
C3_8 C 0.97859(14) 0.5950(2) 0.5775(3)
C13_8 C 0.93109(14) 0.5404(2) 0.5486(3)
O2_8 O 0.97529(17) 0.8045(2) 0.4351(4)
O3_8 O 0.89707(11) 0.54841(17) 0.4579(2)
O4_8 O 0.92808(11) 0.49245(16) 0.6163(2)
O12_8 O 0.74842(16) 0.4166(3) 0.3115(3)
H5_8 H 0.8113 0.5660 0.5440
H6_8 H 0.7692 0.5199 0.5308
H7_8 H 0.9149 0.4030 0.8434
H8_8 H 0.9447 0.3690 0.7922
O13_8 O 0.80100(12) 0.51988(17) 0.5246(2)
O14_8 O 0.91096(13) 0.38050(18) 0.7833(2)
N3_8 N 0.6974(2) 0.3256(3) 0.2044(5)
C17_8 C 0.7379(3) 0.3744(4) 0.2338(5)
H9_8 H 0.7611 0.3774 0.1914
C18_8 C 0.6620(3) 0.3113(5) 0.2693(9)
H10_8 H 0.6248 0.3217 0.2290
H11_8 H 0.6654 0.2583 0.2918
H12_8 H 0.6723 0.3445 0.3304
C19_8 C 0.6864(5) 0.2831(6) 0.1058(8)
H13_8 H 0.6836 0.2289 0.1194
H14_8 H 0.6526 0.3009 0.0574
H15_8 H 0.7157 0.2914 0.0753
loop_
_geom_bond_atom_site_label_1
_geom_bond_atom_site_label_2
_geom_bond_site_symmetry_1
_geom_bond_site_symmetry_2
Mn1 O4 1_555 1_555
H7 O14 1_555 1_555
H8 O14 1_555 1_555
O14 Mn1 1_555 1_555
O19 Mn1 1_555 1_555
O12 Mn2 1_555 1_555
N3 C17 1_555 1_555
C17 O12 1_555 1_555
H9 C17 1_555 1_555
C18 N3 1_555 1_555
H10 C18 1_555 1_555
H11 C18 1_555 1_555
H12 C18 1_555 1_555
C19 N3 1_555 1_555
H13 C19 1_555 1_555
H14 C19 1_555 1_555
H15 C19 1_555 1_555
O17 Mn2 1_555 1_555
Mn2 O18 1_555 1_555
C1 C2 1_555 1_555
C3 C2 1_555 1_555
C4 C3 1_555 1_555
H2 C4 1_555 1_555
C5 C4 1_555 1_555
C6 C1 1_555 1_555
C7 C6 1_555 1_555
C8 C7 1_555 1_555
C9 C8 1_555 1_555
H3 C9 1_555 1_555
C10 C9 1_555 1_555
C11 C10 1_555 1_555
H4 C11 1_555 1_555
C12 C7 1_555 1_555
C13 C3 1_555 1_555
C14 C5 1_555 1_555
C15 C8 1_555 1_555
C16 C10 1_555 1_555
N1 C1 1_555 1_555
N2 C12 1_555 1_555
O1 N1 1_555 1_555
O5 C14 1_555 1_555
O6 C14 1_555 1_555
O7 C15 1_555 1_555
O9 C16 1_555 1_555
O10 C16 1_555 1_555
O11 N2 1_555 1_555
H5 O13 1_555 1_555
H6 O13 1_555 1_555
O15 N2 1_555 1_555
Mn4 O9 1_555 1_555
Mn6 O5 1_555 1_555
Mn7 O10 1_555 1_555
C5 C6 1_555 1_555
C11 C12 1_555 1_555
O7 Mn6 1_555 1_555
Mn3 O4_2 1_555 1_555
O12_2 Mn2_2 1_555 1_555
H7_2 O14_2 1_555 1_555
H8_2 O14_2 1_555 1_555
O14_2 Mn3 1_555 1_555
N3_2 C17_2 1_555 1_555
C17_2 O12_2 1_555 1_555
H9_2 C17_2 1_555 1_555
C18_2 N3_2 1_555 1_555
H10_2 C18_2 1_555 1_555
H11_2 C18_2 1_555 1_555
H12_2 C18_2 1_555 1_555
C19_2 N3_2 1_555 1_555
H13_2 C19_2 1_555 1_555
H14_2 C19_2 1_555 1_555
H15_2 C19_2 1_555 1_555
O17_2 Mn2_2 1_555 1_555
O18_2 Mn3 1_555 1_555
O19_2 Mn3 1_555 1_555
Mn2_2 O18_2 1_555 1_555
C1_2 C2_2 1_555 1_555
C2_2 H1_2 1_555 1_555
C3_2 C2_2 1_555 1_555
C4_2 C3_2 1_555 1_555
H2_2 C4_2 1_555 1_555
C5_2 C4_2 1_555 1_555
C6_2 C1_2 1_555 1_555
C7_2 C6_2 1_555 1_555
C8_2 C7_2 1_555 1_555
C9_2 C8_2 1_555 1_555
H3_2 C9_2 1_555 1_555
C10_2 C9_2 1_555 1_555
C11_2 C10_2 1_555 1_555
H4_2 C11_2 1_555 1_555
C12_2 C7_2 1_555 1_555
C13_2 C3_2 1_555 1_555
C14_2 C5_2 1_555 1_555
C15_2 C8_2 1_555 1_555
C16_2 C10_2 1_555 1_555
N1_2 C1_2 1_555 1_555
N2_2 C12_2 1_555 1_555
O1_2 N1_2 1_555 1_555
O2_2 N1_2 1_555 1_555
O3_2 C13_2 1_555 1_555
O16 C14_2 1_555 1_555
O6_2 C14_2 1_555 1_555
O7_2 C15_2 1_555 1_555
O8_2 C15_2 1_555 1_555
O9_2 C16_2 1_555 1_555
O10_2 C16_2 1_555 1_555
O11_2 N2_2 1_555 1_555
H5_2 O13_2 1_555 1_555
H6_2 O13_2 1_555 1_555
O15_2 N2_2 1_555 1_555
Mn4_2 O9_2 1_555 1_555
Mn5_2 O7_2 1_555 1_555
Mn6_2 O16 1_555 1_555
Mn7_2 O10_2 1_555 1_555
C5_2 C6_2 1_555 1_555
C11_2 C12_2 1_555 1_555
O7_2 Mn6_2 1_555 1_555
H2_3 C4_3 1_555 1_555
C5_3 C4_3 1_555 1_555
C6_3 C1_3 1_555 1_555
C7_3 C6_3 1_555 1_555
C8_3 C7_3 1_555 1_555
C9_3 C8_3 1_555 1_555
H3_3 C9_3 1_555 1_555
C10_3 C9_3 1_555 1_555
C11_3 C10_3 1_555 1_555
H4_3 C11_3 1_555 1_555
C12_3 C7_3 1_555 1_555
C14_3 C5_3 1_555 1_555
C15_3 C8_3 1_555 1_555
C16_3 C10_3 1_555 1_555
N1_3 C1_3 1_555 1_555
N2_3 C12_3 1_555 1_555
O1_3 N1_3 1_555 1_555
O5_2 C14_3 1_555 1_555
O6_3 C14_3 1_555 1_555
O7_3 C15_3 1_555 1_555
O19 C16_3 1_555 1_555
O10_3 C16_3 1_555 1_555
O11_3 N2_3 1_555 1_555
O15_3 N2_3 1_555 1_555
Mn4_2 O5_2 1_555 1_555
Mn7_2 O5_2 1_555 1_555
C5_3 C6_3 1_555 1_555
C11_3 C12_3 1_555 1_555
O7_3 Mn7_2 1_555 1_555
C3_3 C2_3 1_555 1_555
C13_3 C3_3 1_555 1_555
Mn4 O4_3 1_555 1_555
O4_3 C13_3 1_555 1_555
H5_3 O13_3 1_555 1_555
H6_3 O13_3 1_555 1_555
H7_3 O14_3 1_555 1_555
H8_3 O14_3 1_555 1_555
O13_3 Mn4 1_555 1_555
O14_3 Mn4 1_555 1_555
O16_2 Mn4 1_555 1_555
Mn2_3 O3_3 1_555 1_555
O12_3 Mn2_3 1_555 1_555
N3_3 C17_3 1_555 1_555
C17_3 O12_3 1_555 1_555
H9_3 C17_3 1_555 1_555
C18_3 N3_3 1_555 1_555
H10_3 C18_3 1_555 1_555
H11_3 C18_3 1_555 1_555
H12_3 C18_3 1_555 1_555
C19_3 N3_3 1_555 1_555
H13_3 C19_3 1_555 1_555
H14_3 C19_3 1_555 1_555
H15_3 C19_3 1_555 1_555
O17_3 Mn2_3 1_555 1_555
O20_3 Mn2_3 1_555 1_555
Mn2_3 O18_3 1_555 1_555
C2_4 H1_4 1_555 1_555
C3_4 C2_4 1_555 1_555
C13_4 C3_4 1_555 1_555
Mn4_2 O4_4 1_555 1_555
Mn2_4 O3_4 1_555 1_555
O3_4 C13_4 1_555 1_555
O4_4 C13_4 1_555 1_555
O12_4 Mn2_4 1_555 1_555
H5_4 O13_4 1_555 1_555
H6_4 O13_4 1_555 1_555
H7_4 O14_4 1_555 1_555
H8_4 O14_4 1_555 1_555
O13_4 Mn4_2 1_555 1_555
O14_4 Mn4_2 1_555 1_555
N3_4 C17_4 1_555 1_555
C17_4 O12_4 1_555 1_555
H9_4 C17_4 1_555 1_555
C18_4 N3_4 1_555 1_555
H10_4 C18_4 1_555 1_555
H11_4 C18_4 1_555 1_555
H12_4 C18_4 1_555 1_555
C19_4 N3_4 1_555 1_555
H13_4 C19_4 1_555 1_555
H14_4 C19_4 1_555 1_555
H15_4 C19_4 1_555 1_555
O17_4 Mn2_4 1_555 1_555
O18_4 Mn4_2 1_555 1_555
O20_4 Mn2_4 1_555 1_555
Mn2_4 O13_4 1_555 1_555
Mn2_4 O18_4 1_555 1_555
H2_4 C4_4 1_555 1_555
C5_4 C4_4 1_555 1_555
C6_4 C1_4 1_555 1_555
C7_4 C6_4 1_555 1_555
C8_4 C7_4 1_555 1_555
C9_4 C8_4 1_555 1_555
H3_4 C9_4 1_555 1_555
C10_4 C9_4 1_555 1_555
C11_4 C10_4 1_555 1_555
H4_4 C11_4 1_555 1_555
C12_4 C7_4 1_555 1_555
C14_4 C5_4 1_555 1_555
C15_4 C8_4 1_555 1_555
C16_4 C10_4 1_555 1_555
N1_4 C1_4 1_555 1_555
N2_4 C12_4 1_555 1_555
O1_4 N1_4 1_555 1_555
O16_2 C14_4 1_555 1_555
O6_4 C14_4 1_555 1_555
O7_4 C15_4 1_555 1_555
O8_4 C15_4 1_555 1_555
O19_2 C16_4 1_555 1_555
O10_4 C16_4 1_555 1_555
O11_4 N2_4 1_555 1_555
O15_4 N2_4 1_555 1_555
Mn5_4 O7_4 1_555 1_555
Mn7 O16_2 1_555 1_555
C5_4 C6_4 1_555 1_555
C11_4 C12_4 1_555 1_555
O7_4 Mn7 1_555 1_555
C1_5 C2_5 1_555 1_555
C3_5 C2_5 1_555 1_555
C4_5 C3_5 1_555 1_555
H2_5 C4_5 1_555 1_555
C5_5 C4_5 1_555 1_555
C6_5 C1_5 1_555 1_555
C7_5 C6_5 1_555 1_555
C8_5 C7_5 1_555 1_555
C9_5 C8_5 1_555 1_555
H3_5 C9_5 1_555 1_555
C10_5 C9_5 1_555 1_555
C11_5 C10_5 1_555 1_555
H4_5 C11_5 1_555 1_555
C12_5 C7_5 1_555 1_555
C13_5 C3_5 1_555 1_555
C14_5 C5_5 1_555 1_555
C15_5 C8_5 1_555 1_555
C16_5 C10_5 1_555 1_555
N1_5 C1_5 1_555 1_555
N2_5 C12_5 1_555 1_555
O1_5 N1_5 1_555 1_555
O17 C14_5 1_555 1_555
O6_5 C14_5 1_555 1_555
O18 C15_5 1_555 1_555
O9_3 C16_5 1_555 1_555
O20_4 C16_5 1_555 1_555
O11_5 N2_5 1_555 1_555
H5_5 O13_5 1_555 1_555
H6_5 O13_5 1_555 1_555
O15_5 N2_5 1_555 1_555
Mn5_3 O9_3 1_555 1_555
C5_5 C6_5 1_555 1_555
C11_5 C12_5 1_555 1_555
O12_5 Mn6 1_555 1_555
N3_5 C17_5 1_555 1_555
C17_5 O12_5 1_555 1_555
H9_5 C17_5 1_555 1_555
C18_5 N3_5 1_555 1_555
H10_5 C18_5 1_555 1_555
H11_5 C18_5 1_555 1_555
H12_5 C18_5 1_555 1_555
C19_5 N3_5 1_555 1_555
H13_5 C19_5 1_555 1_555
H14_5 C19_5 1_555 1_555
H15_5 C19_5 1_555 1_555
Mn5 O4_5 1_555 1_555
H7_5 O14_5 1_555 1_555
H8_5 O14_5 1_555 1_555
O14_5 Mn5 1_555 1_555
O19_3 Mn5 1_555 1_555
C1_6 C2_6 1_555 1_555
C2_6 H1_6 1_555 1_555
C3_6 C2_6 1_555 1_555
C4_6 C3_6 1_555 1_555
H2_6 C4_6 1_555 1_555
C5_6 C4_6 1_555 1_555
C6_6 C1_6 1_555 1_555
C7_6 C6_6 1_555 1_555
C8_6 C7_6 1_555 1_555
C9_6 C8_6 1_555 1_555
H3_6 C9_6 1_555 1_555
C10_6 C9_6 1_555 1_555
C11_6 C10_6 1_555 1_555
H4_6 C11_6 1_555 1_555
C12_6 C7_6 1_555 1_555
C13_6 C3_6 1_555 1_555
C14_6 C5_6 1_555 1_555
C15_6 C8_6 1_555 1_555
C16_6 C10_6 1_555 1_555
N1_6 C1_6 1_555 1_555
N2_6 C12_6 1_555 1_555
O1_6 N1_6 1_555 1_555
O2_6 N1_6 1_555 1_555
O3_6 C13_6 1_555 1_555
O17_2 C14_6 1_555 1_555
O6_6 C14_6 1_555 1_555
O18_2 C15_6 1_555 1_555
O8_6 C15_6 1_555 1_555
O9_4 C16_6 1_555 1_555
O20_3 C16_6 1_555 1_555
O11_6 N2_6 1_555 1_555
H5_6 O13_6 1_555 1_555
H6_6 O13_6 1_555 1_555
O15_6 N2_6 1_555 1_555
Mn5_4 O9_4 1_555 1_555
C5_6 C6_6 1_555 1_555
C11_6 C12_6 1_555 1_555
Mn5_2 O4_6 1_555 1_555
O12_6 Mn6_2 1_555 1_555
H7_6 O14_6 1_555 1_555
H8_6 O14_6 1_555 1_555
O14_6 Mn5_2 1_555 1_555
N3_6 C17_6 1_555 1_555
C17_6 O12_6 1_555 1_555
H9_6 C17_6 1_555 1_555
C18_6 N3_6 1_555 1_555
H10_6 C18_6 1_555 1_555
H11_6 C18_6 1_555 1_555
H12_6 C18_6 1_555 1_555
C19_6 N3_6 1_555 1_555
H13_6 C19_6 1_555 1_555
H14_6 C19_6 1_555 1_555
H15_6 C19_6 1_555 1_555
O19_4 Mn5_2 1_555 1_555
Mn7_2 O3_7 1_555 1_555
O12_7 Mn7_2 1_555 1_555
N3_7 C17_7 1_555 1_555
C17_7 O12_7 1_555 1_555
H9_7 C17_7 1_555 1_555
C18_7 N3_7 1_555 1_555
H10_7 C18_7 1_555 1_555
H11_7 C18_7 1_555 1_555
H12_7 C18_7 1_555 1_555
C19_7 N3_7 1_555 1_555
H13_7 C19_7 1_555 1_555
H14_7 C19_7 1_555 1_555
H15_7 C19_7 1_555 1_555
C3_7 C2_7 1_555 1_555
C13_7 C3_7 1_555 1_555
Mn5_3 O4_7 1_555 1_555
O4_7 C13_7 1_555 1_555
H5_7 O13_7 1_555 1_555
H6_7 O13_7 1_555 1_555
H7_7 O14_7 1_555 1_555
H8_7 O14_7 1_555 1_555
O13_7 Mn5_3 1_555 1_555
O14_7 Mn5_3 1_555 1_555
O17_4 Mn5_3 1_555 1_555
H2_7 C4_7 1_555 1_555
C5_7 C4_7 1_555 1_555
C6_7 C1_7 1_555 1_555
C7_7 C6_7 1_555 1_555
C8_7 C7_7 1_555 1_555
C9_7 C8_7 1_555 1_555
H3_7 C9_7 1_555 1_555
C10_7 C9_7 1_555 1_555
C11_7 C10_7 1_555 1_555
H4_7 C11_7 1_555 1_555
C12_7 C7_7 1_555 1_555
C14_7 C5_7 1_555 1_555
C15_7 C8_7 1_555 1_555
C16_7 C10_7 1_555 1_555
N1_7 C1_7 1_555 1_555
N2_7 C12_7 1_555 1_555
O1_7 N1_7 1_555 1_555
O17_3 C14_7 1_555 1_555
O6_7 C14_7 1_555 1_555
O18_3 C15_7 1_555 1_555
O19_3 C16_7 1_555 1_555
O20_2 C16_7 1_555 1_555
O11_7 N2_7 1_555 1_555
O15_7 N2_7 1_555 1_555
Mn5_4 O17_3 1_555 1_555
C5_7 C6_7 1_555 1_555
C11_7 C12_7 1_555 1_555
H2_8 C4_8 1_555 1_555
C5_8 C4_8 1_555 1_555
C6_8 C1_8 1_555 1_555
C7_8 C6_8 1_555 1_555
C8_8 C7_8 1_555 1_555
C9_8 C8_8 1_555 1_555
H3_8 C9_8 1_555 1_555
C10_8 C9_8 1_555 1_555
C11_8 C10_8 1_555 1_555
H4_8 C11_8 1_555 1_555
C12_8 C7_8 1_555 1_555
C14_8 C5_8 1_555 1_555
C15_8 C8_8 1_555 1_555
C16_8 C10_8 1_555 1_555
N1_8 C1_8 1_555 1_555
N2_8 C12_8 1_555 1_555
O1_8 N1_8 1_555 1_555
O17_4 C14_8 1_555 1_555
O6_8 C14_8 1_555 1_555
O18_4 C15_8 1_555 1_555
O8_8 C15_8 1_555 1_555
O19_4 C16_8 1_555 1_555
O20 C16_8 1_555 1_555
O11_8 N2_8 1_555 1_555
O15_8 N2_8 1_555 1_555
C5_8 C6_8 1_555 1_555
C11_8 C12_8 1_555 1_555
C2_8 H1_8 1_555 1_555
C3_8 C2_8 1_555 1_555
C13_8 C3_8 1_555 1_555
Mn5_4 O4_8 1_555 1_555
Mn7 O3_8 1_555 1_555
O3_8 C13_8 1_555 1_555
O4_8 C13_8 1_555 1_555
O12_8 Mn7 1_555 1_555
H5_8 O13_8 1_555 1_555
H6_8 O13_8 1_555 1_555
H7_8 O14_8 1_555 1_555
H8_8 O14_8 1_555 1_555
O13_8 Mn5_4 1_555 1_555
O14_8 Mn5_4 1_555 1_555
N3_8 C17_8 1_555 1_555
C17_8 O12_8 1_555 1_555
H9_8 C17_8 1_555 1_555
C18_8 N3_8 1_555 1_555
H10_8 C18_8 1_555 1_555
H11_8 C18_8 1_555 1_555
H12_8 C18_8 1_555 1_555
C19_8 N3_8 1_555 1_555
H13_8 C19_8 1_555 1_555
H14_8 C19_8 1_555 1_555
H15_8 C19_8 1_555 1_555
Mn7 O13_8 1_555 1_555

#END
