
###############################################################################
#
# This file contains modified crystal structure data generated from the
# MOF subset of the Cambridge Structural Database (CSD) v543 
# hosted by the Cambridge Crystallographic Data Centre (CCDC).
#
# This work is licensed under the Creative Commons
# Attribution-NonCommercial-ShareAlike 4.0 International License.
# To view a copy of this license, visit
# http://creativecommons.org/licenses/by-nc-sa/4.0/
# or send a letter to
# Creative Commons, PO Box 1866, Mountain View, CA 94042, USA.
#
# CIF created using the CSD Python API on 29 September 2022
# The structure has been converted into the P1 space group
# The structure has a 3D framework
# The original CSD entry OCUNAE is in the monoclinic crystal system
# The framework has been calculated to contain at least 10.0% void space
# The void calculation uses a probe of radius 1.32A, grid spacing 0.4
#
###############################################################################

data_OCUNAE
_chemical_formula_moiety         '(C160 H136 Mn16 N24 O114)n'
_symmetry_cell_setting           triclinic
_symmetry_space_group_name_H-M   'P 1'
_symmetry_Int_Tables_number      1
_space_group_name_Hall           'P 1'
loop_
_symmetry_equiv_pos_site_id
_symmetry_equiv_pos_as_xyz
1 x,y,z
_cell_length_a                   26.4461(9)
_cell_length_b                   16.5489(7)
_cell_length_c                   13.4894(3)
_cell_angle_alpha                90
_cell_angle_beta                 104.288(6)
_cell_angle_gamma                90
_cell_volume                     5721.07
loop_
_atom_site_label
_atom_site_type_symbol
_atom_site_fract_x
_atom_site_fract_y
_atom_site_fract_z
O1 O 0.43151(16) 0.0100(3) 0.1102(3)
Mn3 Mn 0.37010(3) 0.07834(6) 0.14851(6)
Mn4 Mn 0.62990(3) 0.07834(6) 0.35149(6)
Mn7 Mn 0.32817(3) 0.00339(6) 0.88608(7)
C1 C 0.4349(2) 0.9532(4) 0.0469(4)
C2 C 0.4813(2) 0.8981(4) 0.0796(4)
C3 C 0.4787(2) 0.8198(4) 0.0399(4)
C4 C 0.5226(2) 0.7670(4) 0.0717(5)
C5 C 0.5696(2) 0.7927(3) 0.1439(4)
C6 C 0.5711(2) 0.8714(3) 0.1812(4)
C7 C 0.5270(2) 0.9230(3) 0.1495(4)
H2 H 0.5286 0.9751 0.1762
C8 C 0.6198(2) 0.7435(4) 0.1649(4)
C9 C 0.6376(2) 0.6922(4) 0.2509(5)
C10 C 0.6860(3) 0.6544(4) 0.2712(5)
H3 H 0.6969 0.6222 0.3290
C11 C 0.7183(2) 0.6655(4) 0.2029(5)
C12 C 0.7017(2) 0.7160(4) 0.1190(4)
H4 H 0.7230 0.7239 0.0743
C13 C 0.6533(2) 0.7554(3) 0.1005(4)
C14 C 0.6380(2) 0.8125(4) 0.0091(5)
C15 C 0.7723(2) 0.6249(4) 0.2239(5)
C16 C 0.6188(2) 0.9026(4) 0.2608(4)
C17 C 0.7146(5) 0.3991(8) 0.2960(10)
C18 C 0.6808(9) 0.4090(12) 0.3818(13)
H5 H 0.7041 0.4192 0.4474
H6 H 0.6616 0.3602 0.3849
H7 H 0.6570 0.4534 0.3634
C19 C 0.6388(6) 0.3158(11) 0.1973(13)
H8 H 0.6393 0.2698 0.2409
H9 H 0.6271 0.2994 0.1271
H10 H 0.6155 0.3560 0.2121
C20 C 0.7244(8) 0.3339(13) 0.1297(14)
H11 H 0.7270 0.3830 0.0935
H12 H 0.7060 0.2941 0.0826
H13 H 0.7588 0.3143 0.1613
N1 N 0.5163(3) 0.6858(4) 0.0293(7)
N2 N 0.6039(3) 0.6764(5) 0.3226(6)
N3 N 0.6935(4) 0.3509(8) 0.2161(10)
O3 O 0.5575(3) 0.6925(5) 0.2974(6)
O4 O 0.6247(4) 0.6497(8) 0.4088(7)
O6 O 0.5473(4) 0.6331(5) 0.0689(10)
O7 O 0.7924(2) 0.6030(4) 0.3150(4)
O8 O 0.79310(17) 0.6185(3) 0.1496(4)
O9 O 0.6513(2) 0.8862(3) 0.0239(4)
O11 O 0.63627(15) 0.9731(2) 0.2438(3)
O12 O 0.63745(17) 0.8618(3) 0.3394(3)
O13 O 0.9208(2) 0.6299(3) 0.2871(3)
H14 H 0.9496 0.6560 0.2685
H15 H 0.9339 0.5887 0.3369
O14 O 0.7566(3) 0.4329(6) 0.3058(7)
O15 O 0.8021(2) 0.5326(3) 0.5275(4)
H16 H 0.8328 0.5381 0.5824
H17 H 0.7801 0.4913 0.5441
Mn1 Mn 0.87010(3) 0.57834(6) 0.14851(6)
Mn2 Mn 0.82817(3) 0.49661(6) 0.38608(7)
O16 O 0.93151(16) 0.5100(3) 0.1102(3)
O17 O 0.90214(16) 0.5595(3) 0.4614(3)
O18 O 0.8487(2) 0.3862(3) 0.4761(4)
O20 O 0.86373(15) 0.4731(2) 0.2562(3)
Mn6 Mn 0.67183(3) 0.99661(6) 0.11392(7)
H1 H 0.4487 0.8022 0.9932
O2 O 0.40214(16) 0.9405(3) 0.9614(3)
O5 O 0.4828(4) 0.6736(5) 0.9524(10)
O10 O 0.6152(2) 0.7879(3) 0.9231(4)
O19 O 0.8487(2) 0.6138(3) 0.9761(4)
Mn5 Mn 0.62990(3) 0.92166(6) 0.85149(6)
O1_2 O 0.56849(16) 0.0100(3) 0.3898(3)
Mn7_2 Mn 0.67183(3) 0.00339(6) 0.61392(7)
C1_2 C 0.5651(2) 0.9532(4) 0.4531(4)
C2_2 C 0.5187(2) 0.8981(4) 0.4204(4)
C3_2 C 0.5213(2) 0.8198(4) 0.4601(4)
H1_2 H 0.5513 0.8022 0.5068
C4_2 C 0.4774(2) 0.7670(4) 0.4283(5)
C5_2 C 0.4304(2) 0.7927(3) 0.3561(4)
C6_2 C 0.4289(2) 0.8714(3) 0.3188(4)
C7_2 C 0.4730(2) 0.9230(3) 0.3505(4)
H2_2 H 0.4714 0.9751 0.3238
C8_2 C 0.3802(2) 0.7435(4) 0.3351(4)
C9_2 C 0.3624(2) 0.6922(4) 0.2491(5)
C10_2 C 0.3140(3) 0.6544(4) 0.2288(5)
H3_2 H 0.3031 0.6222 0.1710
C11_2 C 0.2817(2) 0.6655(4) 0.2971(5)
C12_2 C 0.2983(2) 0.7160(4) 0.3810(4)
H4_2 H 0.2770 0.7239 0.4257
C13_2 C 0.3467(2) 0.7554(3) 0.3995(4)
C14_2 C 0.3620(2) 0.8125(4) 0.4909(5)
C15_2 C 0.2277(2) 0.6249(4) 0.2761(5)
C16_2 C 0.3812(2) 0.9026(4) 0.2392(4)
C17_2 C 0.2854(5) 0.3991(8) 0.2040(10)
C18_2 C 0.3192(9) 0.4090(12) 0.1182(13)
H5_2 H 0.2959 0.4192 0.0526
H6_2 H 0.3384 0.3602 0.1151
H7_2 H 0.3430 0.4534 0.1366
C19_2 C 0.3612(6) 0.3158(11) 0.3027(13)
H8_2 H 0.3607 0.2698 0.2591
H9_2 H 0.3729 0.2994 0.3729
H10_2 H 0.3845 0.3560 0.2879
C20_2 C 0.2756(8) 0.3339(13) 0.3703(14)
H11_2 H 0.2730 0.3830 0.4065
H12_2 H 0.2940 0.2941 0.4174
H13_2 H 0.2412 0.3143 0.3387
N1_2 N 0.4837(3) 0.6858(4) 0.4707(7)
N2_2 N 0.3961(3) 0.6764(5) 0.1774(6)
N3_2 N 0.3065(4) 0.3509(8) 0.2839(10)
O2_2 O 0.59786(16) 0.9405(3) 0.5386(3)
O3_2 O 0.4425(3) 0.6925(5) 0.2026(6)
O4_2 O 0.3753(4) 0.6497(8) 0.0912(7)
O5_2 O 0.5172(4) 0.6736(5) 0.5476(10)
O6_2 O 0.4527(4) 0.6331(5) 0.4311(10)
O7_2 O 0.2076(2) 0.6030(4) 0.1850(4)
O8_2 O 0.20690(17) 0.6185(3) 0.3504(4)
O9_2 O 0.3487(2) 0.8862(3) 0.4761(4)
O10_2 O 0.3848(2) 0.7879(3) 0.5769(4)
O11_2 O 0.36373(15) 0.9731(2) 0.2562(3)
O12_2 O 0.36255(17) 0.8618(3) 0.1606(3)
O13_2 O 0.0792(2) 0.6299(3) 0.2129(3)
H14_2 H 0.0504 0.6560 0.2315
H15_2 H 0.0661 0.5887 0.1631
O14_2 O 0.2434(3) 0.4329(6) 0.1942(7)
Mn1_2 Mn 0.12990(3) 0.57834(6) 0.35149(6)
Mn2_2 Mn 0.17183(3) 0.49661(6) 0.11392(7)
O16_2 O 0.06849(16) 0.5100(3) 0.3898(3)
O17_2 O 0.09786(16) 0.5595(3) 0.0386(3)
O18_2 O 0.1513(2) 0.3862(3) 0.0239(4)
O19_2 O 0.1513(2) 0.6138(3) 0.5239(4)
O20_2 O 0.13627(15) 0.4731(2) 0.2438(3)
Mn5_2 Mn 0.37010(3) 0.92166(6) 0.64851(6)
Mn6_2 Mn 0.32817(3) 0.99661(6) 0.38608(7)
C4_3 C 0.0226(2) 0.2670(4) 0.0717(5)
C5_3 C 0.0696(2) 0.2927(3) 0.1439(4)
C6_3 C 0.0711(2) 0.3714(3) 0.1812(4)
C7_3 C 0.0270(2) 0.4230(3) 0.1495(4)
H2_3 H 0.0286 0.4751 0.1762
C8_3 C 0.1198(2) 0.2435(4) 0.1649(4)
C9_3 C 0.1376(2) 0.1922(4) 0.2509(5)
C10_3 C 0.1860(3) 0.1544(4) 0.2712(5)
H3_3 H 0.1969 0.1222 0.3290
C11_3 C 0.2183(2) 0.1655(4) 0.2029(5)
C12_3 C 0.2017(2) 0.2160(4) 0.1190(4)
H4_3 H 0.2230 0.2239 0.0743
C13_3 C 0.1533(2) 0.2554(3) 0.1005(4)
C14_3 C 0.1380(2) 0.3125(4) 0.0091(5)
C15_3 C 0.2723(2) 0.1249(4) 0.2239(5)
C16_3 C 0.1188(2) 0.4026(4) 0.2608(4)
N1_3 N 0.0163(3) 0.1858(4) 0.0293(7)
N2_3 N 0.1039(3) 0.1764(5) 0.3226(6)
O3_3 O 0.0575(3) 0.1925(5) 0.2974(6)
O4_3 O 0.1247(4) 0.1497(8) 0.4088(7)
O6_3 O 0.0473(4) 0.1331(5) 0.0689(10)
O7_3 O 0.2924(2) 0.1030(4) 0.3150(4)
O8_3 O 0.29310(17) 0.1185(3) 0.1496(4)
O12_3 O 0.13745(17) 0.3618(3) 0.3394(3)
O13_3 O 0.4208(2) 0.1299(3) 0.2871(3)
H14_3 H 0.4496 0.1560 0.2685
H15_3 H 0.4339 0.0887 0.3369
O15_2 O 0.3021(2) 0.0326(3) 0.5275(4)
H16_2 H 0.3328 0.0381 0.5824
O17_3 O 0.40214(16) 0.0595(3) 0.4614(3)
O10_3 O 0.1152(2) 0.2879(3) 0.9231(4)
O19_3 O 0.3487(2) 0.1138(3) 0.9761(4)
Mn5_3 Mn 0.12990(3) 0.42166(6) 0.85149(6)
C17_3 C 0.2146(5) 0.8991(8) 0.2960(10)
C18_3 C 0.1808(9) 0.9090(12) 0.3818(13)
H5_3 H 0.2041 0.9192 0.4474
H6_3 H 0.1616 0.8602 0.3849
H7_3 H 0.1570 0.9534 0.3634
C19_3 C 0.1388(6) 0.8158(11) 0.1973(13)
H8_3 H 0.1393 0.7698 0.2409
H9_3 H 0.1271 0.7994 0.1271
H10_3 H 0.1155 0.8560 0.2121
C20_3 C 0.2244(8) 0.8339(13) 0.1297(14)
H11_3 H 0.2270 0.8830 0.0935
H12_3 H 0.2060 0.7941 0.0826
H13_3 H 0.2588 0.8143 0.1613
N3_3 N 0.1935(4) 0.8509(8) 0.2161(10)
O14_3 O 0.2566(3) 0.9329(6) 0.3058(7)
H17_2 H 0.2801 0.9913 0.5441
C1_3 C 0.9349(2) 0.4532(4) 0.0469(4)
C2_3 C 0.9813(2) 0.3981(4) 0.0796(4)
C3_3 C 0.9787(2) 0.3198(4) 0.0399(4)
H1_3 H 0.9487 0.3022 0.9932
O2_3 O 0.90214(16) 0.4405(3) 0.9614(3)
O5_3 O 0.9828(4) 0.1736(5) 0.9524(10)
Mn7_3 Mn 0.82817(3) 0.50339(6) 0.88608(7)
C1_4 C 0.0651(2) 0.4532(4) 0.4531(4)
C2_4 C 0.0187(2) 0.3981(4) 0.4204(4)
C3_4 C 0.0213(2) 0.3198(4) 0.4601(4)
H1_4 H 0.0513 0.3022 0.5068
O2_4 O 0.09786(16) 0.4405(3) 0.5386(3)
O5_4 O 0.0172(4) 0.1736(5) 0.5476(10)
Mn7_4 Mn 0.17183(3) 0.50339(6) 0.61392(7)
C4_4 C 0.9774(2) 0.2670(4) 0.4283(5)
C5_4 C 0.9304(2) 0.2927(3) 0.3561(4)
C6_4 C 0.9289(2) 0.3714(3) 0.3188(4)
C7_4 C 0.9730(2) 0.4230(3) 0.3505(4)
H2_4 H 0.9714 0.4751 0.3238
C8_4 C 0.8802(2) 0.2435(4) 0.3351(4)
C9_4 C 0.8624(2) 0.1922(4) 0.2491(5)
C10_4 C 0.8140(3) 0.1544(4) 0.2288(5)
H3_4 H 0.8031 0.1222 0.1710
C11_4 C 0.7817(2) 0.1655(4) 0.2971(5)
C12_4 C 0.7983(2) 0.2160(4) 0.3810(4)
H4_4 H 0.7770 0.2239 0.4257
C13_4 C 0.8467(2) 0.2554(3) 0.3995(4)
C14_4 C 0.8620(2) 0.3125(4) 0.4909(5)
C15_4 C 0.7277(2) 0.1249(4) 0.2761(5)
C16_4 C 0.8812(2) 0.4026(4) 0.2392(4)
N1_4 N 0.9837(3) 0.1858(4) 0.4707(7)
N2_4 N 0.8961(3) 0.1764(5) 0.1774(6)
O3_4 O 0.9425(3) 0.1925(5) 0.2026(6)
O4_4 O 0.8753(4) 0.1497(8) 0.0912(7)
O6_4 O 0.9527(4) 0.1331(5) 0.4311(10)
O7_4 O 0.7076(2) 0.1030(4) 0.1850(4)
O8_4 O 0.70690(17) 0.1185(3) 0.3504(4)
O10_4 O 0.8848(2) 0.2879(3) 0.5769(4)
O12_4 O 0.86255(17) 0.3618(3) 0.1606(3)
O13_4 O 0.5792(2) 0.1299(3) 0.2129(3)
H14_4 H 0.5504 0.1560 0.2315
H15_4 H 0.5661 0.0887 0.1631
O17_4 O 0.59786(16) 0.0595(3) 0.0386(3)
O19_4 O 0.6513(2) 0.1138(3) 0.5239(4)
Mn5_4 Mn 0.87010(3) 0.42166(6) 0.64851(6)
C17_4 C 0.7854(5) 0.8991(8) 0.2040(10)
C18_4 C 0.8192(9) 0.9090(12) 0.1182(13)
H5_4 H 0.7959 0.9192 0.0526
H6_4 H 0.8384 0.8602 0.1151
H7_4 H 0.8430 0.9534 0.1366
C19_4 C 0.8612(6) 0.8158(11) 0.3027(13)
H8_4 H 0.8607 0.7698 0.2591
H9_4 H 0.8729 0.7994 0.3729
H10_4 H 0.8845 0.8560 0.2879
C20_4 C 0.7756(8) 0.8339(13) 0.3703(14)
H11_4 H 0.7730 0.8830 0.4065
H12_4 H 0.7940 0.7941 0.4174
H13_4 H 0.7412 0.8143 0.3387
N3_4 N 0.8065(4) 0.8509(8) 0.2839(10)
O14_4 O 0.7434(3) 0.9329(6) 0.1942(7)
H1_5 H 0.5513 0.1978 0.0068
O5_5 O 0.5172(4) 0.3264(5) 0.0476(10)
O10_5 O 0.3848(2) 0.2121(3) 0.0769(4)
C1_5 C 0.5651(2) 0.0468(4) 0.9531(4)
C2_5 C 0.5187(2) 0.1019(4) 0.9204(4)
C3_5 C 0.5213(2) 0.1802(4) 0.9601(4)
C4_5 C 0.4774(2) 0.2330(4) 0.9283(5)
C5_5 C 0.4304(2) 0.2073(3) 0.8561(4)
C6_5 C 0.4289(2) 0.1286(3) 0.8188(4)
C7_5 C 0.4730(2) 0.0770(3) 0.8505(4)
H2_5 H 0.4714 0.0249 0.8238
C8_5 C 0.3802(2) 0.2565(4) 0.8351(4)
C9_5 C 0.3624(2) 0.3078(4) 0.7491(5)
C10_5 C 0.3140(3) 0.3456(4) 0.7288(5)
H3_5 H 0.3031 0.3778 0.6710
C11_5 C 0.2817(2) 0.3345(4) 0.7971(5)
C12_5 C 0.2983(2) 0.2840(4) 0.8810(4)
H4_5 H 0.2770 0.2761 0.9257
C13_5 C 0.3467(2) 0.2446(3) 0.8995(4)
C14_5 C 0.3620(2) 0.1875(4) 0.9909(5)
C15_5 C 0.2277(2) 0.3751(4) 0.7761(5)
C16_5 C 0.3812(2) 0.0974(4) 0.7392(4)
C17_5 C 0.2854(5) 0.6009(8) 0.7040(10)
C18_5 C 0.3192(9) 0.5910(12) 0.6182(13)
H5_5 H 0.2959 0.5808 0.5526
H6_5 H 0.3384 0.6398 0.6151
H7_5 H 0.3430 0.5466 0.6366
C19_5 C 0.3612(6) 0.6842(11) 0.8027(13)
H8_5 H 0.3607 0.7302 0.7591
H9_5 H 0.3729 0.7006 0.8729
H10_5 H 0.3845 0.6440 0.7879
C20_5 C 0.2756(8) 0.6661(13) 0.8703(14)
H11_5 H 0.2730 0.6170 0.9065
H12_5 H 0.2940 0.7059 0.9174
H13_5 H 0.2412 0.6857 0.8387
N1_5 N 0.4837(3) 0.3142(4) 0.9707(7)
N2_5 N 0.3961(3) 0.3236(5) 0.6774(6)
N3_5 N 0.3065(4) 0.6491(8) 0.7839(10)
O3_5 O 0.4425(3) 0.3075(5) 0.7026(6)
O4_5 O 0.3753(4) 0.3503(8) 0.5912(7)
O6_5 O 0.4527(4) 0.3669(5) 0.9311(10)
O7_5 O 0.2076(2) 0.3970(4) 0.6850(4)
O8_5 O 0.20690(17) 0.3815(3) 0.8504(4)
O11_3 O 0.36373(15) 0.0269(2) 0.7562(3)
O12_5 O 0.36255(17) 0.1382(3) 0.6606(3)
O13_5 O 0.0792(2) 0.3701(3) 0.7129(3)
H14_5 H 0.0504 0.3440 0.7315
H15_5 H 0.0661 0.4113 0.6631
O14_5 O 0.2434(3) 0.5671(6) 0.6942(7)
O15_3 O 0.1979(2) 0.4674(3) 0.4725(4)
H16_3 H 0.1672 0.4619 0.4176
H17_3 H 0.2199 0.5087 0.4559
O16_3 O 0.06849(16) 0.4900(3) 0.8898(3)
O20_3 O 0.13627(15) 0.5269(2) 0.7438(3)
O1_3 O 0.56849(16) 0.9900(3) 0.8898(3)
C1_6 C 0.4349(2) 0.0468(4) 0.5469(4)
C2_6 C 0.4813(2) 0.1019(4) 0.5796(4)
C3_6 C 0.4787(2) 0.1802(4) 0.5399(4)
H1_6 H 0.4487 0.1978 0.4932
C4_6 C 0.5226(2) 0.2330(4) 0.5717(5)
C5_6 C 0.5696(2) 0.2073(3) 0.6439(4)
C6_6 C 0.5711(2) 0.1286(3) 0.6812(4)
C7_6 C 0.5270(2) 0.0770(3) 0.6495(4)
H2_6 H 0.5286 0.0249 0.6762
C8_6 C 0.6198(2) 0.2565(4) 0.6649(4)
C9_6 C 0.6376(2) 0.3078(4) 0.7509(5)
C10_6 C 0.6860(3) 0.3456(4) 0.7712(5)
H3_6 H 0.6969 0.3778 0.8290
C11_6 C 0.7183(2) 0.3345(4) 0.7029(5)
C12_6 C 0.7017(2) 0.2840(4) 0.6190(4)
H4_6 H 0.7230 0.2761 0.5743
C13_6 C 0.6533(2) 0.2446(3) 0.6005(4)
C14_6 C 0.6380(2) 0.1875(4) 0.5091(5)
C15_6 C 0.7723(2) 0.3751(4) 0.7239(5)
C16_6 C 0.6188(2) 0.0974(4) 0.7608(4)
C17_6 C 0.7146(5) 0.6009(8) 0.7960(10)
C18_6 C 0.6808(9) 0.5910(12) 0.8818(13)
H5_6 H 0.7041 0.5808 0.9474
H6_6 H 0.6616 0.6398 0.8849
H7_6 H 0.6570 0.5466 0.8634
C19_6 C 0.6388(6) 0.6842(11) 0.6973(13)
H8_6 H 0.6393 0.7302 0.7409
H9_6 H 0.6271 0.7006 0.6271
H10_6 H 0.6155 0.6440 0.7121
C20_6 C 0.7244(8) 0.6661(13) 0.6297(14)
H11_6 H 0.7270 0.6170 0.5935
H12_6 H 0.7060 0.7059 0.5826
H13_6 H 0.7588 0.6857 0.6613
N1_6 N 0.5163(3) 0.3142(4) 0.5293(7)
N2_6 N 0.6039(3) 0.3236(5) 0.8226(6)
N3_6 N 0.6935(4) 0.6491(8) 0.7161(10)
O3_6 O 0.5575(3) 0.3075(5) 0.7974(6)
O4_6 O 0.6247(4) 0.3503(8) 0.9088(7)
O5_6 O 0.4828(4) 0.3264(5) 0.4524(10)
O6_6 O 0.5473(4) 0.3669(5) 0.5689(10)
O7_6 O 0.7924(2) 0.3970(4) 0.8150(4)
O8_6 O 0.79310(17) 0.3815(3) 0.6496(4)
O10_6 O 0.6152(2) 0.2121(3) 0.4231(4)
O11_4 O 0.63627(15) 0.0269(2) 0.7438(3)
O12_6 O 0.63745(17) 0.1382(3) 0.8394(3)
O13_6 O 0.9208(2) 0.3701(3) 0.7871(3)
H14_6 H 0.9496 0.3440 0.7685
H15_6 H 0.9339 0.4113 0.8369
O14_6 O 0.7566(3) 0.5671(6) 0.8058(7)
O16_4 O 0.93151(16) 0.4900(3) 0.6102(3)
O20_4 O 0.86373(15) 0.5269(2) 0.7562(3)
O1_4 O 0.43151(16) 0.9900(3) 0.6102(3)
H1_7 H 0.0513 0.6978 0.0068
O5_7 O 0.0172(4) 0.8264(5) 0.0476(10)
C1_7 C 0.0651(2) 0.5468(4) 0.9531(4)
C2_7 C 0.0187(2) 0.6019(4) 0.9204(4)
C3_7 C 0.0213(2) 0.6802(4) 0.9601(4)
C17_7 C 0.7854(5) 0.1009(8) 0.7040(10)
C18_7 C 0.8192(9) 0.0910(12) 0.6182(13)
H5_7 H 0.7959 0.0808 0.5526
H6_7 H 0.8384 0.1398 0.6151
H7_7 H 0.8430 0.0466 0.6366
C19_7 C 0.8612(6) 0.1842(11) 0.8027(13)
H8_7 H 0.8607 0.2302 0.7591
H9_7 H 0.8729 0.2006 0.8729
H10_7 H 0.8845 0.1440 0.7879
C20_7 C 0.7756(8) 0.1661(13) 0.8703(14)
H11_7 H 0.7730 0.1170 0.9065
H12_7 H 0.7940 0.2059 0.9174
H13_7 H 0.7412 0.1857 0.8387
N3_7 N 0.8065(4) 0.1491(8) 0.7839(10)
O14_7 O 0.7434(3) 0.0671(6) 0.6942(7)
H17_4 H 0.7199 0.0087 0.4559
O10_7 O 0.8848(2) 0.7121(3) 0.0769(4)
C4_7 C 0.9774(2) 0.7330(4) 0.9283(5)
C5_7 C 0.9304(2) 0.7073(3) 0.8561(4)
C6_7 C 0.9289(2) 0.6286(3) 0.8188(4)
C7_7 C 0.9730(2) 0.5770(3) 0.8505(4)
H2_7 H 0.9714 0.5249 0.8238
C8_7 C 0.8802(2) 0.7565(4) 0.8351(4)
C9_7 C 0.8624(2) 0.8078(4) 0.7491(5)
C10_7 C 0.8140(3) 0.8456(4) 0.7288(5)
H3_7 H 0.8031 0.8778 0.6710
C11_7 C 0.7817(2) 0.8345(4) 0.7971(5)
C12_7 C 0.7983(2) 0.7840(4) 0.8810(4)
H4_7 H 0.7770 0.7761 0.9257
C13_7 C 0.8467(2) 0.7446(3) 0.8995(4)
C14_7 C 0.8620(2) 0.6875(4) 0.9909(5)
C15_7 C 0.7277(2) 0.8751(4) 0.7761(5)
C16_7 C 0.8812(2) 0.5974(4) 0.7392(4)
N1_7 N 0.9837(3) 0.8142(4) 0.9707(7)
N2_7 N 0.8961(3) 0.8236(5) 0.6774(6)
O3_7 O 0.9425(3) 0.8075(5) 0.7026(6)
O4_7 O 0.8753(4) 0.8503(8) 0.5912(7)
O6_7 O 0.9527(4) 0.8669(5) 0.9311(10)
O7_7 O 0.7076(2) 0.8970(4) 0.6850(4)
O8_7 O 0.70690(17) 0.8815(3) 0.8504(4)
O12_7 O 0.86255(17) 0.6382(3) 0.6606(3)
O13_7 O 0.5792(2) 0.8701(3) 0.7129(3)
H14_7 H 0.5504 0.8440 0.7315
H15_7 H 0.5661 0.9113 0.6631
O15_4 O 0.6979(2) 0.9674(3) 0.4725(4)
H16_4 H 0.6672 0.9619 0.4176
C17_8 C 0.2146(5) 0.1009(8) 0.7960(10)
C18_8 C 0.1808(9) 0.0910(12) 0.8818(13)
H5_8 H 0.2041 0.0808 0.9474
H6_8 H 0.1616 0.1398 0.8849
H7_8 H 0.1570 0.0466 0.8634
C19_8 C 0.1388(6) 0.1842(11) 0.6973(13)
H8_8 H 0.1393 0.2302 0.7409
H9_8 H 0.1271 0.2006 0.6271
H10_8 H 0.1155 0.1440 0.7121
C20_8 C 0.2244(8) 0.1661(13) 0.6297(14)
H11_8 H 0.2270 0.1170 0.5935
H12_8 H 0.2060 0.2059 0.5826
H13_8 H 0.2588 0.1857 0.6613
N3_8 N 0.1935(4) 0.1491(8) 0.7161(10)
O14_8 O 0.2566(3) 0.0671(6) 0.8058(7)
C4_8 C 0.0226(2) 0.7330(4) 0.5717(5)
C5_8 C 0.0696(2) 0.7073(3) 0.6439(4)
C6_8 C 0.0711(2) 0.6286(3) 0.6812(4)
C7_8 C 0.0270(2) 0.5770(3) 0.6495(4)
H2_8 H 0.0286 0.5249 0.6762
C8_8 C 0.1198(2) 0.7565(4) 0.6649(4)
C9_8 C 0.1376(2) 0.8078(4) 0.7509(5)
C10_8 C 0.1860(3) 0.8456(4) 0.7712(5)
H3_8 H 0.1969 0.8778 0.8290
C11_8 C 0.2183(2) 0.8345(4) 0.7029(5)
C12_8 C 0.2017(2) 0.7840(4) 0.6190(4)
H4_8 H 0.2230 0.7761 0.5743
C13_8 C 0.1533(2) 0.7446(3) 0.6005(4)
C14_8 C 0.1380(2) 0.6875(4) 0.5091(5)
C15_8 C 0.2723(2) 0.8751(4) 0.7239(5)
C16_8 C 0.1188(2) 0.5974(4) 0.7608(4)
N1_8 N 0.0163(3) 0.8142(4) 0.5293(7)
N2_8 N 0.1039(3) 0.8236(5) 0.8226(6)
O3_8 O 0.0575(3) 0.8075(5) 0.7974(6)
O4_8 O 0.1247(4) 0.8503(8) 0.9088(7)
O6_8 O 0.0473(4) 0.8669(5) 0.5689(10)
O7_8 O 0.2924(2) 0.8970(4) 0.8150(4)
O8_8 O 0.29310(17) 0.8815(3) 0.6496(4)
O10_8 O 0.1152(2) 0.7121(3) 0.4231(4)
O12_8 O 0.13745(17) 0.6382(3) 0.8394(3)
O13_8 O 0.4208(2) 0.8701(3) 0.7871(3)
H14_8 H 0.4496 0.8440 0.7685
H15_8 H 0.4339 0.9113 0.8369
C1_8 C 0.9349(2) 0.5468(4) 0.5469(4)
C2_8 C 0.9813(2) 0.6019(4) 0.5796(4)
C3_8 C 0.9787(2) 0.6802(4) 0.5399(4)
H1_8 H 0.9487 0.6978 0.4932
O5_8 O 0.9828(4) 0.8264(5) 0.4524(10)
O15_5 O 0.1979(2) 0.5326(3) 0.9725(4)
H16_5 H 0.1672 0.5381 0.9176
H17_5 H 0.2199 0.4913 0.9559
O15_6 O 0.6979(2) 0.0326(3) 0.9725(4)
H16_6 H 0.6672 0.0381 0.9176
H17_6 H 0.7199 0.9913 0.9559
O15_7 O 0.8021(2) 0.4674(3) 0.0275(4)
H16_7 H 0.8328 0.4619 0.0824
H17_7 H 0.7801 0.5087 0.0441
H17_8 H 0.2801 0.0087 0.0441
O15_8 O 0.3021(2) 0.9674(3) 0.0275(4)
H16_8 H 0.3328 0.9619 0.0824
loop_
_geom_bond_atom_site_label_1
_geom_bond_atom_site_label_2
_geom_bond_site_symmetry_1
_geom_bond_site_symmetry_2
Mn3 O1 1_555 1_555
C1 C2 1_555 1_555
C2 C3 1_555 1_555
C4 C3 1_555 1_555
C5 C4 1_555 1_555
C6 C5 1_555 1_555
C7 C2 1_555 1_555
H2 C7 1_555 1_555
C8 C5 1_555 1_555
C9 C8 1_555 1_555
C10 C9 1_555 1_555
H3 C10 1_555 1_555
C11 C10 1_555 1_555
C12 C11 1_555 1_555
H4 C12 1_555 1_555
C13 C8 1_555 1_555
C14 C13 1_555 1_555
C15 C11 1_555 1_555
C16 C6 1_555 1_555
C17 C18 1_555 1_555
C18 H5 1_555 1_555
H6 C18 1_555 1_555
H7 C18 1_555 1_555
C19 H8 1_555 1_555
H9 C19 1_555 1_555
H10 C19 1_555 1_555
C20 H11 1_555 1_555
H12 C20 1_555 1_555
H13 C20 1_555 1_555
N1 C4 1_555 1_555
N2 C9 1_555 1_555
N3 C17 1_555 1_555
O3 N2 1_555 1_555
O4 N2 1_555 1_555
O6 N1 1_555 1_555
O7 C15 1_555 1_555
O8 C15 1_555 1_555
O9 C14 1_555 1_555
O11 C16 1_555 1_555
O12 C16 1_555 1_555
O13 H14 1_555 1_555
H15 O13 1_555 1_555
O14 C17 1_555 1_555
O15 H16 1_555 1_555
H17 O15 1_555 1_555
Mn1 O8 1_555 1_555
Mn2 O7 1_555 1_555
O16 Mn1 1_555 1_555
O17 Mn2 1_555 1_555
O18 Mn2 1_555 1_555
O20 Mn1 1_555 1_555
Mn6 O9 1_555 1_555
C6 C7 1_555 1_555
C12 C13 1_555 1_555
C19 N3 1_555 1_555
C20 N3 1_555 1_555
O11 Mn6 1_555 1_555
O13 Mn1 1_555 1_555
O14 Mn2 1_555 1_555
O15 Mn2 1_555 1_555
Mn2 O20 1_555 1_555
Mn4 O1_2 1_555 1_555
C1_2 C2_2 1_555 1_555
C2_2 C3_2 1_555 1_555
C3_2 H1_2 1_555 1_555
C4_2 C3_2 1_555 1_555
C5_2 C4_2 1_555 1_555
C6_2 C5_2 1_555 1_555
C7_2 C2_2 1_555 1_555
H2_2 C7_2 1_555 1_555
C8_2 C5_2 1_555 1_555
C9_2 C8_2 1_555 1_555
C10_2 C9_2 1_555 1_555
H3_2 C10_2 1_555 1_555
C11_2 C10_2 1_555 1_555
C12_2 C11_2 1_555 1_555
H4_2 C12_2 1_555 1_555
C13_2 C8_2 1_555 1_555
C14_2 C13_2 1_555 1_555
C15_2 C11_2 1_555 1_555
C16_2 C6_2 1_555 1_555
C17_2 C18_2 1_555 1_555
C18_2 H5_2 1_555 1_555
H6_2 C18_2 1_555 1_555
H7_2 C18_2 1_555 1_555
C19_2 H8_2 1_555 1_555
H9_2 C19_2 1_555 1_555
H10_2 C19_2 1_555 1_555
C20_2 H11_2 1_555 1_555
H12_2 C20_2 1_555 1_555
H13_2 C20_2 1_555 1_555
N1_2 C4_2 1_555 1_555
N2_2 C9_2 1_555 1_555
N3_2 C17_2 1_555 1_555
O2_2 C1_2 1_555 1_555
O3_2 N2_2 1_555 1_555
O4_2 N2_2 1_555 1_555
O5_2 N1_2 1_555 1_555
O6_2 N1_2 1_555 1_555
O7_2 C15_2 1_555 1_555
O8_2 C15_2 1_555 1_555
O9_2 C14_2 1_555 1_555
O10_2 C14_2 1_555 1_555
O11_2 C16_2 1_555 1_555
O12_2 C16_2 1_555 1_555
O13_2 H14_2 1_555 1_555
H15_2 O13_2 1_555 1_555
O14_2 C17_2 1_555 1_555
Mn1_2 O8_2 1_555 1_555
Mn2_2 O7_2 1_555 1_555
O16_2 Mn1_2 1_555 1_555
O17_2 Mn2_2 1_555 1_555
O18_2 Mn2_2 1_555 1_555
O19_2 Mn1_2 1_555 1_555
O20_2 Mn1_2 1_555 1_555
Mn5_2 O9_2 1_555 1_555
Mn6_2 O9_2 1_555 1_555
C6_2 C7_2 1_555 1_555
C12_2 C13_2 1_555 1_555
C19_2 N3_2 1_555 1_555
C20_2 N3_2 1_555 1_555
O11_2 Mn6_2 1_555 1_555
O13_2 Mn1_2 1_555 1_555
O14_2 Mn2_2 1_555 1_555
Mn2_2 O20_2 1_555 1_555
C5_3 C4_3 1_555 1_555
C6_3 C5_3 1_555 1_555
H2_3 C7_3 1_555 1_555
C8_3 C5_3 1_555 1_555
C9_3 C8_3 1_555 1_555
C10_3 C9_3 1_555 1_555
H3_3 C10_3 1_555 1_555
C11_3 C10_3 1_555 1_555
C12_3 C11_3 1_555 1_555
H4_3 C12_3 1_555 1_555
C13_3 C8_3 1_555 1_555
C14_3 C13_3 1_555 1_555
C15_3 C11_3 1_555 1_555
C16_3 C6_3 1_555 1_555
N1_3 C4_3 1_555 1_555
N2_3 C9_3 1_555 1_555
O3_3 N2_3 1_555 1_555
O4_3 N2_3 1_555 1_555
O6_3 N1_3 1_555 1_555
O7_3 C15_3 1_555 1_555
O8_3 C15_3 1_555 1_555
O18_2 C14_3 1_555 1_555
O20_2 C16_3 1_555 1_555
O12_3 C16_3 1_555 1_555
O13_3 H14_3 1_555 1_555
H15_3 O13_3 1_555 1_555
O15_2 H16_2 1_555 1_555
Mn3 O8_3 1_555 1_555
C6_3 C7_3 1_555 1_555
C12_3 C13_3 1_555 1_555
O13_3 Mn3 1_555 1_555
C17_3 C18_3 1_555 1_555
C18_3 H5_3 1_555 1_555
H6_3 C18_3 1_555 1_555
H7_3 C18_3 1_555 1_555
C19_3 H8_3 1_555 1_555
H9_3 C19_3 1_555 1_555
H10_3 C19_3 1_555 1_555
C20_3 H11_3 1_555 1_555
H12_3 C20_3 1_555 1_555
H13_3 C20_3 1_555 1_555
N3_3 C17_3 1_555 1_555
O14_3 C17_3 1_555 1_555
C19_3 N3_3 1_555 1_555
C20_3 N3_3 1_555 1_555
O14_3 Mn6_2 1_555 1_555
C1_3 C2_3 1_555 1_555
C2_3 C3_3 1_555 1_555
O16 C1_3 1_555 1_555
Mn7_3 O2_3 1_555 1_555
C1_4 C2_4 1_555 1_555
C2_4 C3_4 1_555 1_555
C3_4 H1_4 1_555 1_555
O16_2 C1_4 1_555 1_555
O2_4 C1_4 1_555 1_555
Mn7_4 O2_4 1_555 1_555
C5_4 C4_4 1_555 1_555
C6_4 C5_4 1_555 1_555
H2_4 C7_4 1_555 1_555
C8_4 C5_4 1_555 1_555
C9_4 C8_4 1_555 1_555
C10_4 C9_4 1_555 1_555
H3_4 C10_4 1_555 1_555
C11_4 C10_4 1_555 1_555
C12_4 C11_4 1_555 1_555
H4_4 C12_4 1_555 1_555
C13_4 C8_4 1_555 1_555
C14_4 C13_4 1_555 1_555
C15_4 C11_4 1_555 1_555
C16_4 C6_4 1_555 1_555
N1_4 C4_4 1_555 1_555
N2_4 C9_4 1_555 1_555
O3_4 N2_4 1_555 1_555
O4_4 N2_4 1_555 1_555
O6_4 N1_4 1_555 1_555
O7_4 C15_4 1_555 1_555
O8_4 C15_4 1_555 1_555
O18 C14_4 1_555 1_555
O10_4 C14_4 1_555 1_555
O20 C16_4 1_555 1_555
O12_4 C16_4 1_555 1_555
O13_4 H14_4 1_555 1_555
H15_4 O13_4 1_555 1_555
Mn4 O8_4 1_555 1_555
O19_4 Mn4 1_555 1_555
Mn5_4 O18 1_555 1_555
C6_4 C7_4 1_555 1_555
C12_4 C13_4 1_555 1_555
O13_4 Mn4 1_555 1_555
C17_4 C18_4 1_555 1_555
C18_4 H5_4 1_555 1_555
H6_4 C18_4 1_555 1_555
H7_4 C18_4 1_555 1_555
C19_4 H8_4 1_555 1_555
H9_4 C19_4 1_555 1_555
H10_4 C19_4 1_555 1_555
C20_4 H11_4 1_555 1_555
H12_4 C20_4 1_555 1_555
H13_4 C20_4 1_555 1_555
N3_4 C17_4 1_555 1_555
O14_4 C17_4 1_555 1_555
C19_4 N3_4 1_555 1_555
C20_4 N3_4 1_555 1_555
O14_4 Mn6 1_555 1_555
C1_5 C2_5 1_555 1_555
C2_5 C3_5 1_555 1_555
C4_5 C3_5 1_555 1_555
C5_5 C4_5 1_555 1_555
C6_5 C5_5 1_555 1_555
C7_5 C2_5 1_555 1_555
H2_5 C7_5 1_555 1_555
C8_5 C5_5 1_555 1_555
C9_5 C8_5 1_555 1_555
C10_5 C9_5 1_555 1_555
H3_5 C10_5 1_555 1_555
C11_5 C10_5 1_555 1_555
C12_5 C11_5 1_555 1_555
H4_5 C12_5 1_555 1_555
C13_5 C8_5 1_555 1_555
C14_5 C13_5 1_555 1_555
C15_5 C11_5 1_555 1_555
C16_5 C6_5 1_555 1_555
C17_5 C18_5 1_555 1_555
C18_5 H5_5 1_555 1_555
H6_5 C18_5 1_555 1_555
H7_5 C18_5 1_555 1_555
C19_5 H8_5 1_555 1_555
H9_5 C19_5 1_555 1_555
H10_5 C19_5 1_555 1_555
C20_5 H11_5 1_555 1_555
H12_5 C20_5 1_555 1_555
H13_5 C20_5 1_555 1_555
N1_5 C4_5 1_555 1_555
N2_5 C9_5 1_555 1_555
N3_5 C17_5 1_555 1_555
O3_5 N2_5 1_555 1_555
O4_5 N2_5 1_555 1_555
O6_5 N1_5 1_555 1_555
O7_5 C15_5 1_555 1_555
O8_5 C15_5 1_555 1_555
O19_3 C14_5 1_555 1_555
O11_3 C16_5 1_555 1_555
O12_5 C16_5 1_555 1_555
O13_5 H14_5 1_555 1_555
H15_5 O13_5 1_555 1_555
O14_5 C17_5 1_555 1_555
O15_3 H16_3 1_555 1_555
H17_3 O15_3 1_555 1_555
Mn5_3 O8_5 1_555 1_555
Mn7_4 O7_5 1_555 1_555
O16_3 Mn5_3 1_555 1_555
O19_2 Mn7_4 1_555 1_555
O20_3 Mn5_3 1_555 1_555
Mn7 O19_3 1_555 1_555
C6_5 C7_5 1_555 1_555
C12_5 C13_5 1_555 1_555
C19_5 N3_5 1_555 1_555
C20_5 N3_5 1_555 1_555
O11_3 Mn7 1_555 1_555
O13_5 Mn5_3 1_555 1_555
O14_5 Mn7_4 1_555 1_555
O15_3 Mn7_4 1_555 1_555
Mn7_4 O20_3 1_555 1_555
Mn5 O1_3 1_555 1_555
C1_6 C2_6 1_555 1_555
C2_6 C3_6 1_555 1_555
C3_6 H1_6 1_555 1_555
C4_6 C3_6 1_555 1_555
C5_6 C4_6 1_555 1_555
C6_6 C5_6 1_555 1_555
C7_6 C2_6 1_555 1_555
H2_6 C7_6 1_555 1_555
C8_6 C5_6 1_555 1_555
C9_6 C8_6 1_555 1_555
C10_6 C9_6 1_555 1_555
H3_6 C10_6 1_555 1_555
C11_6 C10_6 1_555 1_555
C12_6 C11_6 1_555 1_555
H4_6 C12_6 1_555 1_555
C13_6 C8_6 1_555 1_555
C14_6 C13_6 1_555 1_555
C15_6 C11_6 1_555 1_555
C16_6 C6_6 1_555 1_555
C17_6 C18_6 1_555 1_555
C18_6 H5_6 1_555 1_555
H6_6 C18_6 1_555 1_555
H7_6 C18_6 1_555 1_555
C19_6 H8_6 1_555 1_555
H9_6 C19_6 1_555 1_555
H10_6 C19_6 1_555 1_555
C20_6 H11_6 1_555 1_555
H12_6 C20_6 1_555 1_555
H13_6 C20_6 1_555 1_555
N1_6 C4_6 1_555 1_555
N2_6 C9_6 1_555 1_555
N3_6 C17_6 1_555 1_555
O17_3 C1_6 1_555 1_555
O3_6 N2_6 1_555 1_555
O4_6 N2_6 1_555 1_555
O5_6 N1_6 1_555 1_555
O6_6 N1_6 1_555 1_555
O7_6 C15_6 1_555 1_555
O8_6 C15_6 1_555 1_555
O19_4 C14_6 1_555 1_555
O10_6 C14_6 1_555 1_555
O11_4 C16_6 1_555 1_555
O12_6 C16_6 1_555 1_555
O13_6 H14_6 1_555 1_555
H15_6 O13_6 1_555 1_555
O14_6 C17_6 1_555 1_555
Mn5_4 O8_6 1_555 1_555
Mn7_3 O7_6 1_555 1_555
O16_4 Mn5_4 1_555 1_555
O19 Mn7_3 1_555 1_555
O20_4 Mn5_4 1_555 1_555
Mn7_2 O19_4 1_555 1_555
C6_6 C7_6 1_555 1_555
C12_6 C13_6 1_555 1_555
C19_6 N3_6 1_555 1_555
C20_6 N3_6 1_555 1_555
O11_4 Mn7_2 1_555 1_555
O13_6 Mn5_4 1_555 1_555
O14_6 Mn7_3 1_555 1_555
Mn7_3 O20_4 1_555 1_555
Mn5_2 O1_4 1_555 1_555
C1_7 C2_7 1_555 1_555
C2_7 C3_7 1_555 1_555
O16_3 C1_7 1_555 1_555
C17_7 C18_7 1_555 1_555
C18_7 H5_7 1_555 1_555
H6_7 C18_7 1_555 1_555
H7_7 C18_7 1_555 1_555
C19_7 H8_7 1_555 1_555
H9_7 C19_7 1_555 1_555
H10_7 C19_7 1_555 1_555
C20_7 H11_7 1_555 1_555
H12_7 C20_7 1_555 1_555
H13_7 C20_7 1_555 1_555
N3_7 C17_7 1_555 1_555
O14_7 C17_7 1_555 1_555
C19_7 N3_7 1_555 1_555
C20_7 N3_7 1_555 1_555
O14_7 Mn7_2 1_555 1_555
C5_7 C4_7 1_555 1_555
C6_7 C5_7 1_555 1_555
H2_7 C7_7 1_555 1_555
C8_7 C5_7 1_555 1_555
C9_7 C8_7 1_555 1_555
C10_7 C9_7 1_555 1_555
H3_7 C10_7 1_555 1_555
C11_7 C10_7 1_555 1_555
C12_7 C11_7 1_555 1_555
H4_7 C12_7 1_555 1_555
C13_7 C8_7 1_555 1_555
C14_7 C13_7 1_555 1_555
C15_7 C11_7 1_555 1_555
C16_7 C6_7 1_555 1_555
N1_7 C4_7 1_555 1_555
N2_7 C9_7 1_555 1_555
O3_7 N2_7 1_555 1_555
O4_7 N2_7 1_555 1_555
O6_7 N1_7 1_555 1_555
O7_7 C15_7 1_555 1_555
O8_7 C15_7 1_555 1_555
O19 C14_7 1_555 1_555
O20_4 C16_7 1_555 1_555
O12_7 C16_7 1_555 1_555
O13_7 H14_7 1_555 1_555
H15_7 O13_7 1_555 1_555
O15_4 H16_4 1_555 1_555
Mn5 O8_7 1_555 1_555
C6_7 C7_7 1_555 1_555
C12_7 C13_7 1_555 1_555
O13_7 Mn5 1_555 1_555
C17_8 C18_8 1_555 1_555
C18_8 H5_8 1_555 1_555
H6_8 C18_8 1_555 1_555
H7_8 C18_8 1_555 1_555
C19_8 H8_8 1_555 1_555
H9_8 C19_8 1_555 1_555
H10_8 C19_8 1_555 1_555
C20_8 H11_8 1_555 1_555
H12_8 C20_8 1_555 1_555
H13_8 C20_8 1_555 1_555
N3_8 C17_8 1_555 1_555
O14_8 C17_8 1_555 1_555
C19_8 N3_8 1_555 1_555
C20_8 N3_8 1_555 1_555
O14_8 Mn7 1_555 1_555
C5_8 C4_8 1_555 1_555
C6_8 C5_8 1_555 1_555
H2_8 C7_8 1_555 1_555
C8_8 C5_8 1_555 1_555
C9_8 C8_8 1_555 1_555
C10_8 C9_8 1_555 1_555
H3_8 C10_8 1_555 1_555
C11_8 C10_8 1_555 1_555
C12_8 C11_8 1_555 1_555
H4_8 C12_8 1_555 1_555
C13_8 C8_8 1_555 1_555
C14_8 C13_8 1_555 1_555
C15_8 C11_8 1_555 1_555
C16_8 C6_8 1_555 1_555
N1_8 C4_8 1_555 1_555
N2_8 C9_8 1_555 1_555
O3_8 N2_8 1_555 1_555
O4_8 N2_8 1_555 1_555
O6_8 N1_8 1_555 1_555
O7_8 C15_8 1_555 1_555
O8_8 C15_8 1_555 1_555
O19_2 C14_8 1_555 1_555
O10_8 C14_8 1_555 1_555
O20_3 C16_8 1_555 1_555
O12_8 C16_8 1_555 1_555
O13_8 H14_8 1_555 1_555
H15_8 O13_8 1_555 1_555
Mn5_2 O8_8 1_555 1_555
C6_8 C7_8 1_555 1_555
C12_8 C13_8 1_555 1_555
O13_8 Mn5_2 1_555 1_555
C1_8 C2_8 1_555 1_555
C2_8 C3_8 1_555 1_555
C3_8 H1_8 1_555 1_555
O16_4 C1_8 1_555 1_555
O17 C1_8 1_555 1_555
O15_5 H16_5 1_555 1_555
H17_5 O15_5 1_555 1_555
O15_6 H16_6 1_555 1_555
O15_7 H16_7 1_555 1_555
H17_7 O15_7 1_555 1_555
O15_8 H16_8 1_555 1_555

#END
