
###############################################################################
#
# This file contains modified crystal structure data generated from the
# MOF subset of the Cambridge Structural Database (CSD) v543 
# hosted by the Cambridge Crystallographic Data Centre (CCDC).
#
# This work is licensed under the Creative Commons
# Attribution-NonCommercial-ShareAlike 4.0 International License.
# To view a copy of this license, visit
# http://creativecommons.org/licenses/by-nc-sa/4.0/
# or send a letter to
# Creative Commons, PO Box 1866, Mountain View, CA 94042, USA.
#
# CIF created using the CSD Python API on 29 September 2022
# The structure has been converted into the P1 space group
# The structure has a 3D framework
# The original CSD entry OCUPOS is in the orthorhombic crystal system
# The framework has been calculated to contain at least 10.0% void space
# The void calculation uses a probe of radius 1.32A, grid spacing 0.4
#
###############################################################################

data_OCUPOS
_chemical_formula_moiety         '(C24 H36 O32 P12 V8)n'
_symmetry_cell_setting           triclinic
_symmetry_space_group_name_H-M   'P 1'
_symmetry_Int_Tables_number      1
_space_group_name_Hall           'P 1'
loop_
_symmetry_equiv_pos_site_id
_symmetry_equiv_pos_as_xyz
1 x,y,z
_cell_length_a                   7.4362(5)
_cell_length_b                   19.1491(12)
_cell_length_c                   9.3446(6)
_cell_angle_alpha                90
_cell_angle_beta                 90
_cell_angle_gamma                90
_cell_volume                     1330.64
loop_
_atom_site_label
_atom_site_type_symbol
_atom_site_fract_x
_atom_site_fract_y
_atom_site_fract_z
V1 V 0.20583(8) 0.25889(3) 0.7500
P1 P -0.0000 0.18052(4) 0.48448(9)
O1 O 0.0000 0.23467(12) 0.6099(3)
O2 O 0.1724(2) 0.18772(9) 0.39958(18)
O4 O 0.3053(3) 0.18516(14) 0.7500
C1 C 0.0000 0.09621(17) 0.5641(4)
H1 H 0.1073 0.0923 0.6263
C2 C 0.0000 0.03485(17) 0.4601(4)
H3 H 0.1077 0.0376 0.3981
V4 V 0.29417(8) 0.24111(3) 0.2500
O6 O 0.0000 0.23467(12) 0.8901(3)
O11 O 0.3276(2) 0.31228(9) 0.60042(18)
O12 O 0.3276(2) 0.31228(9) 0.89958(18)
O15 O -0.0000 0.3486(2) 0.7500
H10 H -0.0000 0.370(3) 0.807(6)
H11 H 0.0000 0.370(3) 0.693(6)
O3 O 0.0000 0.6514(2) 0.2500
H5 H 0.0000 0.630(3) 0.193(6)
V6 V 0.20583(8) 0.74111(3) 0.2500
V8 V 0.29417(8) 0.75889(3) 0.7500
P2 P -0.0000 0.81948(4) 0.51552(9)
O5 O 0.0000 0.76533(12) 0.3901(3)
O7 O -0.0000 0.76533(12) 0.1099(3)
O10 O 0.1724(2) 0.81228(9) 0.60042(18)
C3 C 0.0000 0.90379(17) 0.4359(4)
H7 H 0.1073 0.9077 0.3737
C4 C 0.0000 0.96515(17) 0.5399(4)
H9 H 0.1077 0.9624 0.6019
H12 H 0.0000 0.630(3) 0.307(6)
P1_2 P 1.0000 0.18052(4) 0.48448(9)
O1_2 O 1.0000 0.23467(12) 0.6099(3)
C1_2 C 1.0000 0.09621(17) 0.5641(4)
H2 H 0.8927 0.0923 0.6263
C2_2 C 1.0000 0.03485(17) 0.4601(4)
H4 H 0.8923 0.0376 0.3981
V3 V 0.79417(8) 0.25889(3) 0.7500
V5 V 0.70583(8) 0.24111(3) 0.2500
O6_2 O 1.0000 0.23467(12) 0.8901(3)
O8 O 0.8276(2) 0.18772(9) 0.39958(18)
O15_2 O 1.0000 0.3486(2) 0.7500
H10_2 H 1.0000 0.370(3) 0.807(6)
H11_2 H 1.0000 0.370(3) 0.693(6)
O3_2 O 1.0000 0.6514(2) 0.2500
H5_2 H 1.0000 0.630(3) 0.193(6)
V2 V 0.79417(8) 0.74111(3) 0.2500
V7 V 0.70583(8) 0.75889(3) 0.7500
P2_2 P 1.0000 0.81948(4) 0.51552(9)
O5_2 O 1.0000 0.76533(12) 0.3901(3)
O7_2 O 1.0000 0.76533(12) 0.1099(3)
O9 O 0.8276(2) 0.81228(9) 0.60042(18)
O13 O 0.6724(2) 0.68772(9) 0.39958(18)
O14 O 0.6724(2) 0.68772(9) 0.10042(18)
O16 O 0.6947(3) 0.81484(14) 0.2500
C3_2 C 1.0000 0.90379(17) 0.4359(4)
H6 H 0.8927 0.9077 0.3737
C4_2 C 1.0000 0.96515(17) 0.5399(4)
H8 H 0.8923 0.9624 0.6019
H12_2 H 1.0000 0.630(3) 0.307(6)
P1_3 P 0.5000 0.68052(4) 0.48448(9)
O1_3 O 0.5000 0.73467(12) 0.6099(3)
O3_3 O 0.5000 0.1514(2) 0.2500
O4_2 O 0.8053(3) 0.68516(14) 0.7500
C1_3 C 0.5000 0.59621(17) 0.5641(4)
H1_2 H 0.6073 0.5923 0.6263
H2_2 H 0.3927 0.5923 0.6263
C2_3 C 0.5000 0.53485(17) 0.4601(4)
H3_2 H 0.6077 0.5376 0.3981
H4_2 H 0.3923 0.5376 0.3981
H5_3 H 0.5000 0.130(3) 0.193(6)
P2_3 P 0.5000 0.31948(4) 0.51552(9)
O5_3 O 0.5000 0.26533(12) 0.3901(3)
O6_3 O 0.5000 0.73467(12) 0.8901(3)
O7_3 O 0.5000 0.26533(12) 0.1099(3)
O8_2 O 0.3276(2) 0.68772(9) 0.39958(18)
O10_2 O 0.6724(2) 0.31228(9) 0.60042(18)
O12_2 O 0.8276(2) 0.81228(9) 0.89958(18)
O14_2 O 0.1724(2) 0.18772(9) 0.10042(18)
O15_3 O 0.5000 0.8486(2) 0.7500
O16_2 O 0.1947(3) 0.31484(14) 0.2500
C3_3 C 0.5000 0.40379(17) 0.4359(4)
H6_2 H 0.3927 0.4077 0.3737
H7_2 H 0.6073 0.4077 0.3737
C4_3 C 0.5000 0.46515(17) 0.5399(4)
H8_2 H 0.3923 0.4624 0.6019
H9_2 H 0.6077 0.4624 0.6019
H10_3 H 0.5000 0.870(3) 0.807(6)
H11_3 H 0.5000 0.870(3) 0.693(6)
H12_3 H 0.5000 0.130(3) 0.307(6)
P2_4 P 0.0000 0.18052(4) 0.01552(9)
C4_4 C 0.0000 0.03485(17) 0.0399(4)
H8_3 H 0.1077 0.0376 0.1019
C3_4 C -0.0000 0.09621(17) 0.9359(4)
H6_3 H 0.1073 0.0923 0.8737
C1_4 C 0.0000 0.90379(17) 0.0641(4)
H2_3 H 0.1073 0.9077 0.1263
P1_4 P 0.0000 0.81948(4) 0.98448(9)
C2_4 C 0.0000 0.96515(17) 0.9601(4)
H4_3 H 0.1077 0.9624 0.8981
O8_3 O 0.1724(2) 0.81228(9) 0.89958(18)
P2_5 P 1.0000 0.18052(4) 0.01552(9)
O10_3 O 0.8276(2) 0.18772(9) 0.10042(18)
C4_5 C 1.0000 0.03485(17) 0.0399(4)
H9_3 H 0.8923 0.0376 0.1019
C3_5 C 1.0000 0.09621(17) 0.9359(4)
H7_3 H 0.8927 0.0923 0.8737
C1_5 C 1.0000 0.90379(17) 0.0641(4)
H1_3 H 0.8927 0.9077 0.1263
P1_5 P 1.0000 0.81948(4) 0.98448(9)
C2_5 C 1.0000 0.96515(17) 0.9601(4)
H3_3 H 0.8923 0.9624 0.8981
O13_2 O 0.3276(2) 0.68772(9) 0.10042(18)
O16_3 O 0.3053(3) 0.81484(14) 0.2500
O4_3 O 0.6947(3) 0.18516(14) 0.7500
O11_2 O 0.6724(2) 0.31228(9) 0.89958(18)
C1_6 C 0.5000 0.40379(17) 0.0641(4)
H1_4 H 0.3927 0.4077 0.1263
H2_4 H 0.6073 0.4077 0.1263
P2_6 P 0.5000 0.68052(4) 0.01552(9)
C4_6 C 0.5000 0.53485(17) 0.0399(4)
H8_4 H 0.6077 0.5376 0.1019
H9_4 H 0.3923 0.5376 0.1019
P1_6 P 0.5000 0.31948(4) 0.98448(9)
C2_6 C 0.5000 0.46515(17) 0.9601(4)
H3_4 H 0.3923 0.4624 0.8981
H4_4 H 0.6077 0.4624 0.8981
C3_6 C 0.5000 0.59621(17) 0.9359(4)
H6_4 H 0.6073 0.5923 0.8737
H7_4 H 0.3927 0.5923 0.8737
O16_4 O 0.8053(3) 0.31484(14) 0.2500
O4_4 O 0.1947(3) 0.68516(14) 0.7500
loop_
_geom_bond_atom_site_label_1
_geom_bond_atom_site_label_2
_geom_bond_site_symmetry_1
_geom_bond_site_symmetry_2
V1 O1 1_555 1_555
P1 O1 1_555 1_555
O2 P1 1_555 1_555
O4 V1 1_555 1_555
C1 P1 1_555 1_555
H1 C1 1_555 1_555
C2 C1 1_555 1_555
H3 C2 1_555 1_555
V4 O2 1_555 1_555
O6 V1 1_555 1_555
O11 V1 1_555 1_555
O12 V1 1_555 1_555
O15 V1 1_555 1_555
H10 O15 1_555 1_555
H11 O15 1_555 1_555
O3 H5 1_555 1_555
V6 O3 1_555 1_555
V8 O10 1_555 1_555
P2 O5 1_555 1_555
O10 P2 1_555 1_555
C3 P2 1_555 1_555
H7 C3 1_555 1_555
H9 C4 1_555 1_555
H12 O3 1_555 1_555
V6 O5 1_555 1_555
V6 O7 1_555 1_555
C3 C4 1_555 1_555
P1_2 O1_2 1_555 1_555
O1_2 V3 1_555 1_555
C1_2 P1_2 1_555 1_555
H2 C1_2 1_555 1_555
C2_2 C1_2 1_555 1_555
H4 C2_2 1_555 1_555
V3 O6_2 1_555 1_555
V5 O8 1_555 1_555
O8 P1_2 1_555 1_555
H10_2 O15_2 1_555 1_555
H11_2 O15_2 1_555 1_555
V3 O15_2 1_555 1_555
O3_2 H5_2 1_555 1_555
V2 O3_2 1_555 1_555
V7 O9 1_555 1_555
P2_2 O5_2 1_555 1_555
O5_2 V2 1_555 1_555
O7_2 V2 1_555 1_555
O9 P2_2 1_555 1_555
O13 V2 1_555 1_555
O14 V2 1_555 1_555
O16 V2 1_555 1_555
C3_2 P2_2 1_555 1_555
H6 C3_2 1_555 1_555
H8 C4_2 1_555 1_555
H12_2 O3_2 1_555 1_555
C3_2 C4_2 1_555 1_555
V7 O1_3 1_555 1_555
P1_3 O1_3 1_555 1_555
O1_3 V8 1_555 1_555
O13 P1_3 1_555 1_555
O3_3 H5_3 1_555 1_555
O4_2 V7 1_555 1_555
C1_3 P1_3 1_555 1_555
H1_2 C1_3 1_555 1_555
H2_2 C1_3 1_555 1_555
C2_3 C1_3 1_555 1_555
H3_2 C2_3 1_555 1_555
H4_2 C2_3 1_555 1_555
V4 O3_3 1_555 1_555
V8 O6_3 1_555 1_555
V6 O8_2 1_555 1_555
V5 O3_3 1_555 1_555
V3 O10_2 1_555 1_555
P2_3 O5_3 1_555 1_555
O5_3 V4 1_555 1_555
O6_3 V7 1_555 1_555
O7_3 V4 1_555 1_555
O8_2 P1_3 1_555 1_555
O11 P2_3 1_555 1_555
O10_2 P2_3 1_555 1_555
O12_2 V7 1_555 1_555
O14_2 V4 1_555 1_555
O15_3 V7 1_555 1_555
O16_2 V4 1_555 1_555
C3_3 P2_3 1_555 1_555
H6_2 C3_3 1_555 1_555
H7_2 C3_3 1_555 1_555
C4_3 C2_3 1_555 1_555
H8_2 C4_3 1_555 1_555
H9_2 C4_3 1_555 1_555
H10_3 O15_3 1_555 1_555
H11_3 O15_3 1_555 1_555
H12_3 O3_3 1_555 1_555
V8 O15_3 1_555 1_555
V5 O5_3 1_555 1_555
V5 O7_3 1_555 1_555
C3_3 C4_3 1_555 1_555
O14_2 P2_4 1_555 1_555
H8_3 C4_4 1_555 1_555
H6_3 C3_4 1_555 1_555
H2_3 C1_4 1_555 1_555
H4_3 C2_4 1_555 1_555
V8 O8_3 1_555 1_555
O8_3 P1_4 1_555 1_555
V5 O10_3 1_555 1_555
O10_3 P2_5 1_555 1_555
H9_3 C4_5 1_555 1_555
H7_3 C3_5 1_555 1_555
H1_3 C1_5 1_555 1_555
O12_2 P1_5 1_555 1_555
H3_3 C2_5 1_555 1_555
O13_2 V6 1_555 1_555
O16_3 V6 1_555 1_555
O4_3 V3 1_555 1_555
O11_2 V3 1_555 1_555
H1_4 C1_6 1_555 1_555
H2_4 C1_6 1_555 1_555
O14 P2_6 1_555 1_555
O13_2 P2_6 1_555 1_555
H8_4 C4_6 1_555 1_555
H9_4 C4_6 1_555 1_555
O12 P1_6 1_555 1_555
H3_4 C2_6 1_555 1_555
H4_4 C2_6 1_555 1_555
O11_2 P1_6 1_555 1_555
H6_4 C3_6 1_555 1_555
H7_4 C3_6 1_555 1_555
O16_4 V5 1_555 1_555
O4_4 V8 1_555 1_555

#END
