
###############################################################################
#
# This file contains modified crystal structure data generated from the
# MOF subset of the Cambridge Structural Database (CSD) v543 
# hosted by the Cambridge Crystallographic Data Centre (CCDC).
#
# This work is licensed under the Creative Commons
# Attribution-NonCommercial-ShareAlike 4.0 International License.
# To view a copy of this license, visit
# http://creativecommons.org/licenses/by-nc-sa/4.0/
# or send a letter to
# Creative Commons, PO Box 1866, Mountain View, CA 94042, USA.
#
# CIF created using the CSD Python API on 29 September 2022
# The structure has been converted into the P1 space group
# The structure has a 3D framework
# The original CSD entry ODAGEI is in the rhombohedral crystal system
# The framework has been calculated to contain at least 10.0% void space
# The void calculation uses a probe of radius 1.32A, grid spacing 0.4
# The framework is charged, counterions have been retained in the structure
#
###############################################################################

data_ODAGEI
_chemical_formula_moiety         '(C864 H648 Ag36 B60 F204 N144 O36 S72 24-)n'
_symmetry_cell_setting           triclinic
_symmetry_space_group_name_H-M   'P 1'
_symmetry_Int_Tables_number      1
_space_group_name_Hall           'P 1'
loop_
_symmetry_equiv_pos_site_id
_symmetry_equiv_pos_as_xyz
1 x,y,z
_cell_length_a                   26.0470(11)
_cell_length_b                   26.0470(11)
_cell_length_c                   41.751(2)
_cell_angle_alpha                90
_cell_angle_beta                 90
_cell_angle_gamma                120
_cell_volume                     24530.9
loop_
_atom_site_label
_atom_site_type_symbol
_atom_site_fract_x
_atom_site_fract_y
_atom_site_fract_z
F1 F 0.666667 0.333333 0.40669(15)
F2 F 0.72298(12) 0.37259(13) 0.44925(9)
B1 B 0.666667 0.333333 0.43907(18)
F3 F 0.62741(13) 0.35039(18) 0.44925(9)
F4 F 0.64961(18) 0.27702(12) 0.44925(9)
F1_2 F 0.333334 0.666667 0.09331(15)
F2_2 F 0.35039(18) 0.62741(13) 0.05075(9)
B1_2 B 0.333334 0.666667 0.06093(18)
F3_2 F 0.27702(22) 0.64961(18) 0.05075(9)
F4_2 F 0.37259(22) 0.72298(12) 0.05075(9)
F1_3 F 0.000000 -0.000000 0.07336(15)
F2_3 F 0.05631(12) 0.03926(13) 0.11592(9)
B1_3 B 0.000000 -0.000000 0.10574(18)
F1_4 F 0.000000 1.000000 0.07336(15)
B1_4 B 0.000000 1.000000 0.10574(18)
F1_5 F 1.000000 -0.000000 0.07336(15)
B1_5 B 1.000000 -0.000000 0.10574(18)
F3_3 F 0.96074(13) 0.01706(18) 0.11592(9)
F1_6 F 1.000000 1.000000 0.07336(15)
B1_6 B 1.000000 1.000000 0.10574(18)
F4_3 F 0.98294(18) 0.94369(12) 0.11592(9)
F1_7 F 0.666667 0.333334 0.75998(15)
F2_4 F 0.68372(18) 0.29408(13) 0.71742(9)
B1_7 B 0.666667 0.333334 0.72760(18)
F3_4 F 0.61035(22) 0.31628(18) 0.71742(9)
F4_4 F 0.70592(22) 0.38965(12) 0.71742(9)
F1_8 F 0.333334 0.666666 0.74002(15)
F2_5 F 0.38965(12) 0.70592(13) 0.78258(9)
B1_8 B 0.333334 0.666666 0.77240(18)
F3_5 F 0.29408(13) 0.68372(18) 0.78258(9)
F4_5 F 0.31628(18) 0.61035(12) 0.78258(9)
F1_9 F 0.000001 0.000000 0.42664(15)
B1_9 B 0.000001 0.000000 0.39426(18)
F4_6 F 0.03926(22) 0.05631(12) 0.38408(9)
F1_10 F 0.000001 1.000000 0.42664(15)
F2_6 F 0.01706(18) 0.96074(13) 0.38408(9)
B1_10 B 0.000001 1.000000 0.39426(18)
F1_11 F 1.000001 0.000000 0.42664(15)
B1_11 B 1.000001 0.000000 0.39426(18)
F1_12 F 1.000001 1.000000 0.42664(15)
B1_12 B 1.000001 1.000000 0.39426(18)
F3_6 F 0.94369(22) 0.98294(18) 0.38408(9)
F1_13 F 0.333333 0.666667 0.59331(15)
F2_7 F 0.27702(12) 0.62741(13) 0.55075(9)
B1_13 B 0.333333 0.666667 0.56093(18)
F3_7 F 0.37259(13) 0.64961(18) 0.55075(9)
F4_7 F 0.35039(18) 0.72298(12) 0.55075(9)
F1_14 F 0.666666 0.333333 0.90669(15)
F2_8 F 0.64961(18) 0.37259(13) 0.94925(9)
B1_14 B 0.666666 0.333333 0.93907(18)
F3_8 F 0.72298(22) 0.35039(18) 0.94925(9)
F4_8 F 0.62741(22) 0.27702(12) 0.94925(9)
F1_15 F -0.000000 0.000000 0.92664(15)
B1_15 B -0.000000 0.000000 0.89426(18)
F4_9 F 0.01706(18) 0.05631(12) 0.88408(9)
F1_16 F -0.000000 1.000000 0.92664(15)
B1_16 B -0.000000 1.000000 0.89426(18)
F3_9 F 0.03926(13) 0.98294(18) 0.88408(9)
F1_17 F 1.000000 0.000000 0.92664(15)
B1_17 B 1.000000 0.000000 0.89426(18)
F1_18 F 1.000000 1.000000 0.92664(15)
F2_9 F 0.94369(12) 0.96074(13) 0.88408(9)
B1_18 B 1.000000 1.000000 0.89426(18)
F1_19 F 0.333333 0.666666 0.24002(15)
F2_10 F 0.31628(18) 0.70592(13) 0.28258(9)
B1_19 B 0.333333 0.666666 0.27240(18)
F3_10 F 0.38965(22) 0.68372(18) 0.28258(9)
F4_10 F 0.29408(22) 0.61035(12) 0.28258(9)
F1_20 F 0.666666 0.333334 0.25998(15)
F2_11 F 0.61035(12) 0.29408(13) 0.21742(9)
B1_20 B 0.666666 0.333334 0.22760(18)
F3_11 F 0.70592(13) 0.31628(18) 0.21742(9)
F4_11 F 0.68372(18) 0.38965(12) 0.21742(9)
F1_21 F -0.000001 -0.000000 0.57336(15)
B1_21 B -0.000001 -0.000000 0.60574(18)
F3_12 F 0.05631(22) 0.01706(18) 0.61592(9)
F1_22 F -0.000001 1.000000 0.57336(15)
B1_22 B -0.000001 1.000000 0.60574(18)
F1_23 F 0.999999 -0.000000 0.57336(15)
F2_12 F 0.98294(18) 0.03926(13) 0.61592(9)
B1_23 B 0.999999 -0.000000 0.60574(18)
F1_24 F 0.999999 1.000000 0.57336(15)
B1_24 B 0.999999 1.000000 0.60574(18)
F4_12 F 0.96074(22) 0.94369(12) 0.61592(9)
F5 F 0.6344(3) 0.76737(19) 0.38232(14)
F6 F 0.6135(4) 0.8171(3) 0.34634(15)
F7 F 0.6331(3) 0.8487(2) 0.39648(12)
F8 F 0.7047(3) 0.8560(3) 0.3655(2)
B2 B 0.6470(3) 0.8228(3) 0.37317(15)
F5_2 F 0.23263(19) 0.86703(36) 0.38232(14)
F6_2 F 0.1829(3) 0.7964(5) 0.34634(15)
F7_2 F 0.1513(2) 0.7844(4) 0.39648(12)
F8_2 F 0.1440(3) 0.8487(4) 0.3655(2)
B2_2 B 0.1772(3) 0.8242(4) 0.37317(15)
F5_3 F 0.13297(36) 0.3656(3) 0.38232(14)
F6_3 F 0.2036(5) 0.3865(4) 0.34634(15)
F7_3 F 0.2156(4) 0.3669(3) 0.39648(12)
F8_3 F 0.1513(4) 0.2953(3) 0.3655(2)
B2_3 B 0.1758(4) 0.3530(3) 0.37317(15)
F5_4 F 0.86703(36) 0.23263(19) 0.11768(14)
F6_4 F 0.7964(5) 0.1829(3) 0.15366(15)
F7_4 F 0.7844(4) 0.1513(2) 0.10352(12)
F8_4 F 0.8487(4) 0.1440(3) 0.1345(2)
B2_4 B 0.8242(4) 0.1772(3) 0.12683(15)
F5_5 F 0.3656(3) 0.13297(36) 0.11768(14)
F6_5 F 0.3865(4) 0.2036(5) 0.15366(15)
F7_5 F 0.3669(3) 0.2156(4) 0.10352(12)
F8_5 F 0.2953(3) 0.1513(4) 0.1345(2)
B2_5 B 0.3530(3) 0.1758(4) 0.12683(15)
F5_6 F 0.76737(19) 0.6344(3) 0.11768(14)
F6_6 F 0.8171(3) 0.6135(4) 0.15366(15)
F7_6 F 0.8487(2) 0.6331(3) 0.10352(12)
F8_6 F 0.8560(3) 0.7047(3) 0.1345(2)
B2_6 B 0.8228(3) 0.6470(3) 0.12683(15)
F8_7 F 0.0380(3) 0.5227(3) 0.0322(2)
F5_7 F 0.9677(3) 0.43404(19) 0.04899(14)
F6_7 F 0.9468(4) 0.4838(3) 0.01301(15)
F7_7 F 0.9664(3) 0.5154(2) 0.06315(12)
B2_7 B 0.9803(3) 0.4895(3) 0.03984(15)
F5_8 F 0.56596(19) 0.53370(36) 0.04899(14)
F6_8 F 0.5162(3) 0.4631(5) 0.01301(15)
F7_8 F 0.4846(2) 0.4511(4) 0.06315(12)
F8_8 F 0.4773(3) 0.5154(4) 0.0322(2)
B2_8 B 0.5105(3) 0.4909(4) 0.03984(15)
F5_9 F 0.46630(36) 0.0323(3) 0.04899(14)
F6_9 F 0.5369(5) 0.0532(4) 0.01301(15)
F7_9 F 0.5489(4) 0.0336(3) 0.06315(12)
B2_9 B 0.5091(4) 0.0197(3) 0.03984(15)
F8_9 F 0.4846(4) 0.9620(3) 0.0322(2)
F5_10 F 0.20036(36) 0.89930(19) 0.78435(14)
F6_10 F 0.1297(5) 0.8496(3) 0.82033(15)
F7_10 F 0.1177(4) 0.8180(2) 0.77019(12)
F8_10 F 0.1820(4) 0.8107(3) 0.8012(2)
B2_10 B 0.1575(4) 0.8439(3) 0.79350(15)
F5_11 F 0.6989(3) 0.79964(36) 0.78435(14)
F6_11 F 0.7198(4) 0.8703(5) 0.82033(15)
F7_11 F 0.7002(3) 0.8823(4) 0.77019(12)
F8_11 F 0.6286(3) 0.8180(4) 0.8012(2)
B2_11 B 0.6863(3) 0.8425(4) 0.79350(15)
F5_12 F 0.10070(19) 0.3011(3) 0.78435(14)
F6_12 F 0.1504(3) 0.2802(4) 0.82033(15)
F7_12 F 0.1820(2) 0.2998(3) 0.77019(12)
F8_12 F 0.1893(3) 0.3714(3) 0.8012(2)
B2_12 B 0.1561(3) 0.3137(3) 0.79350(15)
F5_13 F 0.3011(3) 0.10070(19) 0.71565(14)
F6_13 F 0.2802(4) 0.1504(3) 0.67967(15)
F7_13 F 0.2998(3) 0.1820(2) 0.72981(12)
F8_13 F 0.3714(3) 0.1893(3) 0.6988(2)
B2_13 B 0.3137(3) 0.1561(3) 0.70650(15)
F5_14 F 0.89930(19) 0.20036(36) 0.71565(14)
F6_14 F 0.8496(3) 0.1297(5) 0.67967(15)
F7_14 F 0.8180(2) 0.1177(4) 0.72981(12)
F8_14 F 0.8107(3) 0.1820(4) 0.6988(2)
B2_14 B 0.8439(3) 0.1575(4) 0.70650(15)
F5_15 F 0.79964(36) 0.6989(3) 0.71565(14)
F6_15 F 0.8703(5) 0.7198(4) 0.67967(15)
F7_15 F 0.8823(4) 0.7002(3) 0.72981(12)
F8_15 F 0.8180(4) 0.6286(3) 0.6988(2)
B2_15 B 0.8425(4) 0.6863(3) 0.70650(15)
F5_16 F 0.53370(36) 0.56596(19) 0.45101(14)
F6_16 F 0.4631(5) 0.5162(3) 0.48699(15)
F7_16 F 0.4511(4) 0.4846(2) 0.43685(12)
F8_16 F 0.5154(4) 0.4773(3) 0.4678(2)
B2_16 B 0.4909(4) 0.5105(3) 0.46016(15)
F5_17 F 0.0323(3) 0.46630(36) 0.45101(14)
F6_17 F 0.0532(4) 0.5369(5) 0.48699(15)
F7_17 F 0.0336(3) 0.5489(4) 0.43685(12)
B2_17 B 0.0197(3) 0.5091(4) 0.46016(15)
F8_17 F 0.9620(3) 0.4846(4) 0.4678(2)
F8_18 F 0.5227(3) 0.0380(3) 0.4678(2)
F5_18 F 0.43404(19) 0.9677(3) 0.45101(14)
F6_18 F 0.4838(3) 0.9468(4) 0.48699(15)
F7_18 F 0.5154(2) 0.9664(3) 0.43685(12)
B2_18 B 0.4895(3) 0.9803(3) 0.46016(15)
F5_19 F 0.3656(3) 0.23263(19) 0.61768(14)
F6_19 F 0.3865(4) 0.1829(3) 0.65366(15)
F7_19 F 0.3669(3) 0.1513(2) 0.60352(12)
F8_19 F 0.2953(3) 0.1440(3) 0.6345(2)
B2_19 B 0.3530(3) 0.1772(3) 0.62683(15)
F5_20 F 0.76737(19) 0.13297(36) 0.61768(14)
F6_20 F 0.8171(3) 0.2036(5) 0.65366(15)
F7_20 F 0.8487(2) 0.2156(4) 0.60352(12)
F8_20 F 0.8560(3) 0.1513(4) 0.6345(2)
B2_20 B 0.8228(3) 0.1758(4) 0.62683(15)
F5_21 F 0.86703(36) 0.6344(3) 0.61768(14)
F6_21 F 0.7964(5) 0.6135(4) 0.65366(15)
F7_21 F 0.7844(4) 0.6331(3) 0.60352(12)
F8_21 F 0.8487(4) 0.7047(3) 0.6345(2)
B2_21 B 0.8242(4) 0.6470(3) 0.62683(15)
F5_22 F 0.13297(36) 0.76737(19) 0.88232(14)
F6_22 F 0.2036(5) 0.8171(3) 0.84634(15)
F7_22 F 0.2156(4) 0.8487(2) 0.89648(12)
F8_22 F 0.1513(4) 0.8560(3) 0.8655(2)
B2_22 B 0.1758(4) 0.8228(3) 0.87317(15)
F5_23 F 0.6344(3) 0.86703(36) 0.88232(14)
F6_23 F 0.6135(4) 0.7964(5) 0.84634(15)
F7_23 F 0.6331(3) 0.7844(4) 0.89648(12)
F8_23 F 0.7047(3) 0.8487(4) 0.8655(2)
B2_23 B 0.6470(3) 0.8242(4) 0.87317(15)
F5_24 F 0.23263(19) 0.3656(3) 0.88232(14)
F6_24 F 0.1829(3) 0.3865(4) 0.84634(15)
F7_24 F 0.1513(2) 0.3669(3) 0.89648(12)
F8_24 F 0.1440(3) 0.2953(3) 0.8655(2)
B2_24 B 0.1772(3) 0.3530(3) 0.87317(15)
F5_25 F 0.0323(3) 0.56596(19) 0.95101(14)
F6_25 F 0.0532(4) 0.5162(3) 0.98699(15)
F7_25 F 0.0336(3) 0.4846(2) 0.93685(12)
B2_25 B 0.0197(3) 0.5105(3) 0.96016(15)
F8_25 F 0.9620(3) 0.4773(3) 0.9678(2)
F5_26 F 0.43404(19) 0.46630(36) 0.95101(14)
F6_26 F 0.4838(3) 0.5369(5) 0.98699(15)
F7_26 F 0.5154(2) 0.5489(4) 0.93685(12)
F8_26 F 0.5227(3) 0.4846(4) 0.9678(2)
B2_26 B 0.4895(3) 0.5091(4) 0.96016(15)
F8_27 F 0.5154(4) 0.0380(3) 0.9678(2)
F5_27 F 0.53370(36) 0.9677(3) 0.95101(14)
F6_27 F 0.4631(5) 0.9468(4) 0.98699(15)
F7_27 F 0.4511(4) 0.9664(3) 0.93685(12)
B2_27 B 0.4909(4) 0.9803(3) 0.96016(15)
F5_28 F 0.79964(36) 0.10070(19) 0.21565(14)
F6_28 F 0.8703(5) 0.1504(3) 0.17967(15)
F7_28 F 0.8823(4) 0.1820(2) 0.22981(12)
F8_28 F 0.8180(4) 0.1893(3) 0.1988(2)
B2_28 B 0.8425(4) 0.1561(3) 0.20650(15)
F5_29 F 0.3011(3) 0.20036(36) 0.21565(14)
F6_29 F 0.2802(4) 0.1297(5) 0.17967(15)
F7_29 F 0.2998(3) 0.1177(4) 0.22981(12)
F8_29 F 0.3714(3) 0.1820(4) 0.1988(2)
B2_29 B 0.3137(3) 0.1575(4) 0.20650(15)
F5_30 F 0.89930(19) 0.6989(3) 0.21565(14)
F6_30 F 0.8496(3) 0.7198(4) 0.17967(15)
F7_30 F 0.8180(2) 0.7002(3) 0.22981(12)
F8_30 F 0.8107(3) 0.6286(3) 0.1988(2)
B2_30 B 0.8439(3) 0.6863(3) 0.20650(15)
F5_31 F 0.6989(3) 0.89930(19) 0.28435(14)
F6_31 F 0.7198(4) 0.8496(3) 0.32033(15)
F7_31 F 0.7002(3) 0.8180(2) 0.27019(12)
F8_31 F 0.6286(3) 0.8107(3) 0.3012(2)
B2_31 B 0.6863(3) 0.8439(3) 0.29350(15)
F5_32 F 0.10070(19) 0.79964(36) 0.28435(14)
F6_32 F 0.1504(3) 0.8703(5) 0.32033(15)
F7_32 F 0.1820(2) 0.8823(4) 0.27019(12)
F8_32 F 0.1893(3) 0.8180(4) 0.3012(2)
B2_32 B 0.1561(3) 0.8425(4) 0.29350(15)
F5_33 F 0.20036(36) 0.3011(3) 0.28435(14)
F6_33 F 0.1297(5) 0.2802(4) 0.32033(15)
F7_33 F 0.1177(4) 0.2998(3) 0.27019(12)
F8_33 F 0.1820(4) 0.3714(3) 0.3012(2)
B2_33 B 0.1575(4) 0.3137(3) 0.29350(15)
F5_34 F 0.46630(36) 0.43404(19) 0.54899(14)
F6_34 F 0.5369(5) 0.4838(3) 0.51301(15)
F7_34 F 0.5489(4) 0.5154(2) 0.56315(12)
F8_34 F 0.4846(4) 0.5227(3) 0.5322(2)
B2_34 B 0.5091(4) 0.4895(3) 0.53984(15)
F8_35 F 0.0380(3) 0.5154(4) 0.5322(2)
F5_35 F 0.9677(3) 0.53370(36) 0.54899(14)
F6_35 F 0.9468(4) 0.4631(5) 0.51301(15)
F7_35 F 0.9664(3) 0.4511(4) 0.56315(12)
B2_35 B 0.9803(3) 0.4909(4) 0.53984(15)
F5_36 F 0.56596(19) 0.0323(3) 0.54899(14)
F6_36 F 0.5162(3) 0.0532(4) 0.51301(15)
F7_36 F 0.4846(2) 0.0336(3) 0.56315(12)
B2_36 B 0.5105(3) 0.0197(3) 0.53984(15)
F8_36 F 0.4773(3) 0.9620(3) 0.5322(2)
Ag1 Ag 0.839445(13) 0.656486(12) 0.379644(7)
N1 N 0.42119(14) 0.49820(14) 0.28476(7)
N2 N 0.52355(14) 0.59059(14) 0.30931(7)
N3 N 0.74974(12) 0.56751(12) 0.36570(7)
N4 N 0.84894(12) 0.57531(12) 0.39511(6)
O1 O 0.58510(12) 0.55216(12) 0.35191(6)
S1 S 0.48366(7) 0.65946(6) 0.32306(3)
S2 S 0.68163(4) 0.45695(4) 0.37349(3)
C1 C 0.37021(19) 0.4503(2) 0.27716(10)
H1 H 0.37117(19) 0.4175(2) 0.26786(10)
C2 C 0.3154(2) 0.4461(2) 0.28226(11)
H2 H 0.2798(2) 0.4105(2) 0.27721(11)
C3 C 0.3132(2) 0.4933(3) 0.29454(14)
H3 H 0.2763(2) 0.4916(3) 0.29782(14)
C4 C 0.3659(2) 0.5439(3) 0.30215(12)
H4 H 0.3657(2) 0.5779(3) 0.31034(12)
C5 C 0.41855(19) 0.5445(2) 0.29771(9)
C6 C 0.47497(18) 0.59399(18) 0.30864(9)
C7 C 0.5554(2) 0.6827(2) 0.33041(11)
H5 H 0.5823(2) 0.7201(2) 0.33957(11)
C8 C 0.57035(19) 0.64125(19) 0.32157(9)
C9 C 0.62864(18) 0.64573(16) 0.32431(9)
C10 C 0.63386(17) 0.60079(16) 0.33903(8)
C11 C 0.68828(17) 0.60278(15) 0.33948(8)
C12 C 0.73723(17) 0.65127(16) 0.32505(8)
H6 H 0.77437(17) 0.65265(16) 0.32502(8)
C13 C 0.73313(19) 0.69669(16) 0.31099(9)
C14 C 0.67837(19) 0.69330(17) 0.31114(10)
H7 H 0.67485(19) 0.72472(17) 0.30188(10)
C15 C 0.7861(2) 0.7474(2) 0.29535(12)
H8 H 0.8222(2) 0.7544(11) 0.3065(6)
H9 H 0.7881(9) 0.7377(7) 0.2729(3)
H10 H 0.7827(8) 0.7831(4) 0.2965(8)
C16 C 0.5642(2) 0.5647(3) 0.38079(12)
H11 H 0.5974(4) 0.5973(12) 0.3921(5)
H12 H 0.5345(14) 0.5760(18) 0.37565(13)
H13 H 0.5462(17) 0.5293(6) 0.3944(4)
C17 C 0.69528(15) 0.55489(15) 0.35439(8)
C18 C 0.65375(17) 0.49677(16) 0.35677(10)
H14 H 0.61384(17) 0.48045(16) 0.34988(10)
C19 C 0.74931(15) 0.52050(15) 0.37672(9)
C20 C 0.80234(15) 0.52181(15) 0.38985(8)
C21 C 0.80259(19) 0.46956(17) 0.39627(10)
H15 H 0.76806(19) 0.43207(17) 0.39302(10)
C22 C 0.8546(2) 0.47364(19) 0.40755(11)
H16 H 0.8565(2) 0.43883(19) 0.41208(11)
C23 C 0.90357(18) 0.52879(19) 0.41207(9)
H17 H 0.93998(18) 0.53275(19) 0.41928(9)
C24 C 0.89868(16) 0.57827(16) 0.40592(9)
H18 H 0.93229(16) 0.61627(16) 0.40955(9)
Ag2 Ag 0.516292(18) 0.506112(13) 0.287023(7)
Ag3 Ag 0.849626(18) 0.676847(12) 0.453689(7)
N5 N 0.83153(14) 0.74368(20) 0.38191(7)
N6 N 0.92392(14) 0.73371(20) 0.35736(7)
Ag1_2 Ag 0.343514(12) 0.182959(18) 0.379644(7)
N3_2 N 0.43249(12) 0.18223(17) 0.36570(7)
N4_2 N 0.42469(12) 0.27363(17) 0.39511(6)
O1_2 O 0.44784(12) 0.03294(17) 0.35191(6)
S2_2 S 0.54305(4) 0.22468(6) 0.37349(3)
C10_2 C 0.39921(16) 0.03307(23) 0.33903(8)
C11_2 C 0.39722(15) 0.08550(23) 0.33948(8)
C12_2 C 0.34873(16) 0.08596(23) 0.32505(8)
H6_2 H 0.34735(16) 0.12172(23) 0.32502(8)
C13_2 C 0.30331(16) 0.03644(25) 0.31099(9)
C15_2 C 0.2526(2) 0.0387(3) 0.29535(12)
H8_2 H 0.2456(11) 0.0678(11) 0.3065(6)
H9_2 H 0.2623(7) 0.0504(11) 0.2729(3)
H11_2 H 0.4027(12) 0.0001(13) 0.3921(5)
H13_2 H 0.4707(6) 0.0169(18) 0.3944(4)
C17_2 C 0.44511(15) 0.14039(21) 0.35439(8)
C18_2 C 0.50323(16) 0.15698(23) 0.35677(10)
H14_2 H 0.51955(16) 0.13339(23) 0.34988(10)
C19_2 C 0.47950(15) 0.22881(21) 0.37672(9)
C20_2 C 0.47819(15) 0.28053(21) 0.38985(8)
C21_2 C 0.53044(17) 0.33303(25) 0.39627(10)
H15_2 H 0.56793(17) 0.33599(25) 0.39302(10)
C22_2 C 0.52636(19) 0.38096(28) 0.40755(11)
H16_2 H 0.56117(19) 0.41767(28) 0.41208(11)
C23_2 C 0.47121(19) 0.37478(26) 0.41207(9)
H17_2 H 0.46725(19) 0.40723(26) 0.41928(9)
C24_2 C 0.42173(16) 0.32041(23) 0.40592(9)
H18_2 H 0.38373(16) 0.31602(23) 0.40955(9)
Ag2_2 Ag 0.493888(13) 0.010181(22) 0.287023(7)
Ag3_2 Ag 0.323153(12) 0.172778(22) 0.453689(7)
N5_2 N 0.25632(20) 0.08786(24) 0.38191(7)
N6_2 N 0.26629(20) 0.19022(24) 0.35736(7)
N1_2 N 0.50180(14) 0.92299(20) 0.28476(7)
N2_2 N 0.40941(14) 0.93296(20) 0.30931(7)
S1_2 S 0.34054(6) 0.82420(9) 0.32306(3)
C1_2 C 0.5497(2) 0.91991(28) 0.27716(10)
H1_2 H 0.5825(2) 0.95367(28) 0.26786(10)
C2_2 C 0.5539(2) 0.8693(3) 0.28226(11)
H2_2 H 0.5895(2) 0.8693(3) 0.27721(11)
C3_2 C 0.5067(3) 0.8199(4) 0.29454(14)
H3_2 H 0.5084(3) 0.7847(4) 0.29782(14)
C4_2 C 0.4561(3) 0.8220(4) 0.30215(12)
H4_2 H 0.4221(3) 0.7878(4) 0.31034(12)
C5_2 C 0.4555(2) 0.87405(28) 0.29771(9)
C6_2 C 0.40601(18) 0.88098(25) 0.30864(9)
C7_2 C 0.3173(2) 0.8727(3) 0.33041(11)
H5_2 H 0.2799(2) 0.8622(3) 0.33957(11)
C8_2 C 0.35875(19) 0.92910(27) 0.32157(9)
C9_2 C 0.35427(16) 0.98291(24) 0.32431(9)
C14_2 C 0.30670(17) 0.98507(25) 0.31114(10)
H7_2 H 0.27528(17) 0.95013(25) 0.30188(10)
H10_2 H 0.2169(4) 0.9996(9) 0.2965(8)
C16_2 C 0.4353(3) 0.9995(4) 0.38079(12)
H12_2 H 0.4240(18) 0.9585(23) 0.37565(13)
N1_3 N 0.07701(20) 0.57881(14) 0.28476(7)
N2_3 N 0.06704(20) 0.47645(14) 0.30931(7)
S1_3 S 0.17580(9) 0.51634(7) 0.32306(3)
C1_3 C 0.08009(28) 0.62979(19) 0.27716(10)
H1_3 H 0.04633(28) 0.62883(19) 0.26786(10)
C2_3 C 0.1307(3) 0.6846(2) 0.28226(11)
H2_3 H 0.1307(3) 0.7202(2) 0.27721(11)
C3_3 C 0.1801(4) 0.6868(2) 0.29454(14)
H3_3 H 0.2153(4) 0.7237(2) 0.29782(14)
C4_3 C 0.1780(4) 0.6341(2) 0.30215(12)
H4_3 H 0.2122(4) 0.6343(2) 0.31034(12)
C5_3 C 0.12595(28) 0.58145(19) 0.29771(9)
C6_3 C 0.11902(25) 0.52503(18) 0.30864(9)
C7_3 C 0.1273(3) 0.4446(2) 0.33041(11)
H5_3 H 0.1378(3) 0.4177(2) 0.33957(11)
C8_3 C 0.07090(27) 0.42965(19) 0.32157(9)
C9_3 C 0.01709(24) 0.37136(18) 0.32431(9)
C14_3 C 0.01493(25) 0.32163(19) 0.31114(10)
H7_3 H 0.04987(25) 0.32515(19) 0.30188(10)
H10_3 H 0.0004(9) 0.2173(8) 0.2965(8)
C16_3 C 0.0005(4) 0.4358(2) 0.38079(12)
H12_3 H 0.0415(23) 0.4655(14) 0.37565(13)
Ag1_3 Ag 0.817041(18) 0.160555(13) 0.379644(7)
N3_3 N 0.81777(17) 0.25026(12) 0.36570(7)
N4_3 N 0.72637(17) 0.15106(12) 0.39511(6)
O1_3 O 0.96706(17) 0.41490(12) 0.35191(6)
S2_3 S 0.77532(6) 0.31837(4) 0.37349(3)
C10_3 C 0.96693(23) 0.36614(17) 0.33903(8)
C11_3 C 0.91450(23) 0.31172(17) 0.33948(8)
C12_3 C 0.91404(23) 0.26277(17) 0.32505(8)
H6_3 H 0.87828(23) 0.22563(17) 0.32502(8)
C13_3 C 0.96356(25) 0.26687(19) 0.31099(9)
C15_3 C 0.9613(3) 0.2139(2) 0.29535(12)
H8_3 H 0.9322(11) 0.1778(2) 0.3065(6)
H9_3 H 0.9496(11) 0.2119(9) 0.2729(3)
H11_3 H 0.9999(13) 0.4026(4) 0.3921(5)
H13_3 H 0.9831(18) 0.4538(17) 0.3944(4)
C17_3 C 0.85961(21) 0.30472(15) 0.35439(8)
C18_3 C 0.84302(23) 0.34625(17) 0.35677(10)
H14_3 H 0.86661(23) 0.38616(17) 0.34988(10)
C19_3 C 0.77119(21) 0.25069(15) 0.37672(9)
C20_3 C 0.71947(21) 0.19766(15) 0.38985(8)
C21_3 C 0.66697(25) 0.19741(19) 0.39627(10)
H15_3 H 0.66401(25) 0.23194(19) 0.39302(10)
C22_3 C 0.61904(28) 0.1454(2) 0.40755(11)
H16_3 H 0.58233(28) 0.1435(2) 0.41208(11)
C23_3 C 0.62522(26) 0.09643(18) 0.41207(9)
H17_3 H 0.59277(26) 0.06002(18) 0.41928(9)
C24_3 C 0.67959(23) 0.10132(16) 0.40592(9)
H18_3 H 0.68398(23) 0.06771(16) 0.40955(9)
Ag2_3 Ag 0.989819(22) 0.483708(18) 0.287023(7)
Ag3_3 Ag 0.827222(22) 0.150374(18) 0.453689(7)
N5_3 N 0.91214(24) 0.16847(14) 0.38191(7)
N6_3 N 0.80978(24) 0.07608(14) 0.35736(7)
Ag1_4 Ag 0.182959(18) 0.343514(12) 0.120356(7)
N3_4 N 0.18223(17) 0.43249(12) 0.13430(7)
N4_4 N 0.27363(17) 0.42469(12) 0.10489(6)
O1_4 O 0.03294(17) 0.44784(12) 0.14809(6)
S2_4 S 0.22468(6) 0.54305(4) 0.12651(3)
C10_4 C 0.03307(23) 0.39921(16) 0.16097(8)
C11_4 C 0.08550(23) 0.39722(15) 0.16052(8)
C12_4 C 0.08596(23) 0.34873(16) 0.17495(8)
H6_4 H 0.12172(23) 0.34735(16) 0.17498(8)
C13_4 C 0.03644(25) 0.30331(16) 0.18901(9)
C15_4 C 0.0387(3) 0.2526(2) 0.20465(12)
H8_4 H 0.0678(11) 0.2456(11) 0.1935(6)
H9_4 H 0.0504(11) 0.2623(7) 0.2271(3)
H11_4 H 0.0001(13) 0.4027(12) 0.1079(5)
H13_4 H 0.0169(18) 0.4707(6) 0.1056(4)
C17_4 C 0.14039(21) 0.44511(15) 0.14561(8)
C18_4 C 0.15698(23) 0.50323(16) 0.14323(10)
H14_4 H 0.13339(23) 0.51955(16) 0.15012(10)
C19_4 C 0.22881(21) 0.47950(15) 0.12328(9)
C20_4 C 0.28053(21) 0.47819(15) 0.11015(8)
C21_4 C 0.33303(25) 0.53044(17) 0.10373(10)
H15_4 H 0.33599(25) 0.56793(17) 0.10698(10)
C22_4 C 0.38096(28) 0.52636(19) 0.09245(11)
H16_4 H 0.41767(28) 0.56117(19) 0.08792(11)
C23_4 C 0.37478(26) 0.47121(19) 0.08793(9)
H17_4 H 0.40723(26) 0.46725(19) 0.08072(9)
C24_4 C 0.32041(23) 0.42173(16) 0.09408(9)
H18_4 H 0.31602(23) 0.38373(16) 0.09045(9)
Ag2_4 Ag 0.010181(22) 0.493888(13) 0.212977(7)
Ag3_4 Ag 0.172778(22) 0.323153(12) 0.046311(7)
N5_4 N 0.08786(24) 0.25632(20) 0.11809(7)
N6_4 N 0.19022(24) 0.26629(20) 0.14264(7)
N1_4 N 0.92299(20) 0.50180(14) 0.21524(7)
N2_4 N 0.93296(20) 0.40941(14) 0.19069(7)
S1_4 S 0.82420(9) 0.34054(6) 0.17694(3)
C1_4 C 0.91991(28) 0.5497(2) 0.22284(10)
H1_4 H 0.95367(28) 0.5825(2) 0.23214(10)
C2_4 C 0.8693(3) 0.5539(2) 0.21774(11)
H2_4 H 0.8693(3) 0.5895(2) 0.22279(11)
C3_4 C 0.8199(4) 0.5067(3) 0.20546(14)
H3_4 H 0.7847(4) 0.5084(3) 0.20218(14)
C4_4 C 0.8220(4) 0.4561(3) 0.19785(12)
H4_4 H 0.7878(4) 0.4221(3) 0.18966(12)
C5_4 C 0.87405(28) 0.4555(2) 0.20229(9)
C6_4 C 0.88098(25) 0.40601(18) 0.19136(9)
C7_4 C 0.8727(3) 0.3173(2) 0.16959(11)
H5_4 H 0.8622(3) 0.2799(2) 0.16043(11)
C8_4 C 0.92910(27) 0.35875(19) 0.17843(9)
C9_4 C 0.98291(24) 0.35427(16) 0.17569(9)
C14_4 C 0.98507(25) 0.30670(17) 0.18886(10)
H7_4 H 0.95013(25) 0.27528(17) 0.19812(10)
H10_4 H 0.9996(9) 0.2169(4) 0.2035(8)
C16_4 C 0.9995(4) 0.4353(3) 0.11921(12)
H12_4 H 0.9585(23) 0.4240(18) 0.12435(13)
N1_5 N 0.57881(14) 0.07701(20) 0.21524(7)
N2_5 N 0.47645(14) 0.06704(20) 0.19069(7)
S1_5 S 0.51634(7) 0.17580(9) 0.17694(3)
C1_5 C 0.62979(19) 0.08009(28) 0.22284(10)
H1_5 H 0.62883(19) 0.04633(28) 0.23214(10)
C2_5 C 0.6846(2) 0.1307(3) 0.21774(11)
H2_5 H 0.7202(2) 0.1307(3) 0.22279(11)
C3_5 C 0.6868(2) 0.1801(4) 0.20546(14)
H3_5 H 0.7237(2) 0.2153(4) 0.20218(14)
C4_5 C 0.6341(2) 0.1780(4) 0.19785(12)
H4_5 H 0.6343(2) 0.2122(4) 0.18966(12)
C5_5 C 0.58145(19) 0.12595(28) 0.20229(9)
C6_5 C 0.52503(18) 0.11902(25) 0.19136(9)
C7_5 C 0.4446(2) 0.1273(3) 0.16959(11)
H5_5 H 0.4177(2) 0.1378(3) 0.16043(11)
C8_5 C 0.42965(19) 0.07090(27) 0.17843(9)
C9_5 C 0.37136(18) 0.01709(24) 0.17569(9)
C14_5 C 0.32163(19) 0.01493(25) 0.18886(10)
H7_5 H 0.32515(19) 0.04987(25) 0.19812(10)
H10_5 H 0.2173(8) 0.0004(9) 0.2035(8)
C16_5 C 0.4358(2) 0.0005(4) 0.11921(12)
H12_5 H 0.4655(14) 0.0415(23) 0.12435(13)
Ag1_5 Ag 0.160555(13) 0.817041(18) 0.120356(7)
N3_5 N 0.25026(12) 0.81777(17) 0.13430(7)
N4_5 N 0.15106(12) 0.72637(17) 0.10489(6)
O1_5 O 0.41490(12) 0.96706(17) 0.14809(6)
S2_5 S 0.31837(4) 0.77532(6) 0.12651(3)
C10_5 C 0.36614(17) 0.96693(23) 0.16097(8)
C11_5 C 0.31172(17) 0.91450(23) 0.16052(8)
C12_5 C 0.26277(17) 0.91404(23) 0.17495(8)
H6_5 H 0.22563(17) 0.87828(23) 0.17498(8)
C13_5 C 0.26687(19) 0.96356(25) 0.18901(9)
C15_5 C 0.2139(2) 0.9613(3) 0.20465(12)
H8_5 H 0.1778(2) 0.9322(11) 0.1935(6)
H9_5 H 0.2119(9) 0.9496(11) 0.2271(3)
H11_5 H 0.4026(4) 0.9999(13) 0.1079(5)
H13_5 H 0.4538(17) 0.9831(18) 0.1056(4)
C17_5 C 0.30472(15) 0.85961(21) 0.14561(8)
C18_5 C 0.34625(17) 0.84302(23) 0.14323(10)
H14_5 H 0.38616(17) 0.86661(23) 0.15012(10)
C19_5 C 0.25069(15) 0.77119(21) 0.12328(9)
C20_5 C 0.19766(15) 0.71947(21) 0.11015(8)
C21_5 C 0.19741(19) 0.66697(25) 0.10373(10)
H15_5 H 0.23194(19) 0.66401(25) 0.10698(10)
C22_5 C 0.1454(2) 0.61904(28) 0.09245(11)
H16_5 H 0.1435(2) 0.58233(28) 0.08792(11)
C23_5 C 0.09643(18) 0.62522(26) 0.08793(9)
H17_5 H 0.06002(18) 0.59277(26) 0.08072(9)
C24_5 C 0.10132(16) 0.67959(23) 0.09408(9)
H18_5 H 0.06771(16) 0.68398(23) 0.09045(9)
Ag2_5 Ag 0.483708(18) 0.989819(22) 0.212977(7)
Ag3_5 Ag 0.150374(18) 0.827222(22) 0.046311(7)
N5_5 N 0.16847(14) 0.91214(24) 0.11809(7)
N6_5 N 0.07608(14) 0.80978(24) 0.14264(7)
Ag1_6 Ag 0.656486(12) 0.839445(13) 0.120356(7)
N1_6 N 0.49820(14) 0.42119(14) 0.21524(7)
N2_6 N 0.59059(14) 0.52355(14) 0.19069(7)
N3_6 N 0.56751(12) 0.74974(12) 0.13430(7)
N4_6 N 0.57531(12) 0.84894(12) 0.10489(6)
O1_6 O 0.55216(12) 0.58510(12) 0.14809(6)
S1_6 S 0.65946(6) 0.48366(7) 0.17694(3)
S2_6 S 0.45695(4) 0.68163(4) 0.12651(3)
C1_6 C 0.4503(2) 0.37021(19) 0.22284(10)
H1_6 H 0.4175(2) 0.37117(19) 0.23214(10)
C2_6 C 0.4461(2) 0.3154(2) 0.21774(11)
H2_6 H 0.4105(2) 0.2798(2) 0.22279(11)
C3_6 C 0.4933(3) 0.3132(2) 0.20546(14)
H3_6 H 0.4916(3) 0.2763(2) 0.20218(14)
C4_6 C 0.5439(3) 0.3659(2) 0.19785(12)
H4_6 H 0.5779(3) 0.3657(2) 0.18966(12)
C5_6 C 0.5445(2) 0.41855(19) 0.20229(9)
C6_6 C 0.59399(18) 0.47497(18) 0.19136(9)
C7_6 C 0.6827(2) 0.5554(2) 0.16959(11)
H5_6 H 0.7201(2) 0.5823(2) 0.16043(11)
C8_6 C 0.64125(19) 0.57035(19) 0.17843(9)
C9_6 C 0.64573(16) 0.62864(18) 0.17569(9)
C10_6 C 0.60079(16) 0.63386(17) 0.16097(8)
C11_6 C 0.60278(15) 0.68828(17) 0.16052(8)
C12_6 C 0.65127(16) 0.73723(17) 0.17495(8)
H6_6 H 0.65265(16) 0.77437(17) 0.17498(8)
C13_6 C 0.69669(16) 0.73313(19) 0.18901(9)
C14_6 C 0.69330(17) 0.67837(19) 0.18886(10)
H7_6 H 0.72472(17) 0.67485(19) 0.19812(10)
C15_6 C 0.7474(2) 0.7861(2) 0.20465(12)
H8_6 H 0.7544(11) 0.8222(2) 0.1935(6)
H9_6 H 0.7377(7) 0.7881(9) 0.2271(3)
H10_6 H 0.7831(4) 0.7827(8) 0.2035(8)
C16_6 C 0.5647(3) 0.5642(2) 0.11921(12)
H11_6 H 0.5973(12) 0.5974(4) 0.1079(5)
H12_6 H 0.5760(18) 0.5345(14) 0.12435(13)
H13_6 H 0.5293(6) 0.5462(17) 0.1056(4)
C17_6 C 0.55489(15) 0.69528(15) 0.14561(8)
C18_6 C 0.49677(16) 0.65375(17) 0.14323(10)
H14_6 H 0.48045(16) 0.61384(17) 0.15012(10)
C19_6 C 0.52050(15) 0.74931(15) 0.12328(9)
C20_6 C 0.52181(15) 0.80234(15) 0.11015(8)
C21_6 C 0.46956(17) 0.80259(19) 0.10373(10)
H15_6 H 0.43207(17) 0.76806(19) 0.10698(10)
C22_6 C 0.47364(19) 0.8546(2) 0.09245(11)
H16_6 H 0.43883(19) 0.8565(2) 0.08792(11)
C23_6 C 0.52879(19) 0.90357(18) 0.08793(9)
H17_6 H 0.53275(19) 0.93998(18) 0.08072(9)
C24_6 C 0.57827(16) 0.89868(16) 0.09408(9)
H18_6 H 0.61627(16) 0.93229(16) 0.09045(9)
Ag2_6 Ag 0.506112(13) 0.516292(18) 0.212977(7)
Ag3_6 Ag 0.676847(12) 0.849626(18) 0.046311(7)
N5_6 N 0.74368(20) 0.83153(14) 0.11809(7)
N6_6 N 0.73371(20) 0.92392(14) 0.14264(7)
N3_7 N 0.08307(12) 0.23418(12) 0.03237(7)
N4_7 N 0.18227(12) 0.24198(12) 0.06178(6)
S2_7 S 0.01496(4) 0.12362(4) 0.04016(3)
C11_7 C 0.02161(17) 0.26945(15) 0.00615(8)
C17_7 C 0.02861(15) 0.22156(15) 0.02106(8)
C19_7 C 0.08264(15) 0.18717(15) 0.04339(9)
C20_7 C 0.13567(15) 0.18848(15) 0.05652(8)
C21_7 C 0.13592(19) 0.13623(17) 0.06294(10)
H15_7 H 0.10139(19) 0.09874(17) 0.05969(10)
C22_7 C 0.1879(2) 0.14031(19) 0.07422(11)
H16_7 H 0.1898(2) 0.10550(19) 0.07875(11)
C23_7 C 0.23690(18) 0.19546(19) 0.07874(9)
H17_7 H 0.27331(18) 0.19942(19) 0.08595(9)
C24_7 C 0.23201(16) 0.24494(16) 0.07259(9)
H18_7 H 0.26562(16) 0.28294(16) 0.07622(9)
N5_7 N 0.16487(14) 0.41034(20) 0.04857(7)
N6_7 N 0.25726(14) 0.40037(20) 0.02402(7)
N1_7 N 0.75452(14) 0.16487(14) 0.95143(7)
N2_7 N 0.85688(14) 0.25726(14) 0.97598(7)
S1_7 S 0.81699(7) 0.32613(6) 0.98973(3)
C1_7 C 0.70354(19) 0.1170(2) 0.94383(10)
H1_7 H 0.70450(19) 0.0842(2) 0.93453(10)
C2_7 C 0.6487(2) 0.1128(2) 0.94893(11)
H2_7 H 0.6131(2) 0.0772(2) 0.94388(11)
C3_7 C 0.6465(2) 0.1600(3) 0.96121(14)
H3_7 H 0.6096(2) 0.1583(3) 0.96449(14)
C4_7 C 0.6992(2) 0.2106(3) 0.96882(12)
H4_7 H 0.6990(2) 0.2446(3) 0.97701(12)
C5_7 C 0.75188(19) 0.2112(2) 0.96438(9)
C6_7 C 0.80830(18) 0.26066(18) 0.97531(9)
C7_7 C 0.8887(2) 0.3494(2) 0.99708(11)
C8_7 C 0.90368(19) 0.30792(19) 0.98824(9)
C9_7 C 0.96197(18) 0.31240(16) 0.99098(9)
Ag2_7 Ag 0.849626(18) 0.172778(13) 0.953689(7)
N3_8 N 0.76582(12) 0.84890(17) 0.03237(7)
N4_8 N 0.75802(12) 0.94030(17) 0.06178(6)
O1_7 O 0.78117(12) 0.69961(17) 0.01858(6)
S2_8 S 0.87638(4) 0.89135(6) 0.04016(3)
H5_7 H 0.6132(2) 0.5289(3) 0.00624(11)
C10_7 C 0.73254(16) 0.69974(23) 0.00570(8)
C11_8 C 0.73055(15) 0.75217(23) 0.00615(8)
C16_7 C 0.7686(3) 0.6662(4) 0.04746(12)
H11_7 H 0.7360(12) 0.6668(13) 0.0588(5)
H12_7 H 0.7573(18) 0.6252(23) 0.04232(13)
H13_7 H 0.8040(6) 0.6836(18) 0.0611(4)
C17_8 C 0.77844(15) 0.80706(21) 0.02106(8)
C18_7 C 0.83656(16) 0.82365(23) 0.02344(10)
H14_7 H 0.85288(16) 0.80006(23) 0.01655(10)
C19_8 C 0.81283(15) 0.89548(21) 0.04339(9)
C20_8 C 0.81152(15) 0.94720(21) 0.05652(8)
C21_8 C 0.86377(17) 0.99970(25) 0.06294(10)
C24_8 C 0.75506(16) 0.98708(23) 0.07259(9)
H18_8 H 0.71706(16) 0.98269(23) 0.07622(9)
N5_8 N 0.58966(20) 0.75452(24) 0.04857(7)
N6_8 N 0.59963(20) 0.85688(24) 0.02402(7)
N1_8 N 0.83513(14) 0.58966(20) 0.95143(7)
N2_8 N 0.74274(14) 0.59963(20) 0.97598(7)
S1_8 S 0.67387(6) 0.49087(9) 0.98973(3)
C1_8 C 0.8830(2) 0.58658(28) 0.94383(10)
H1_8 H 0.9158(2) 0.62034(28) 0.93453(10)
C2_8 C 0.8872(2) 0.5360(3) 0.94893(11)
H2_8 H 0.9228(2) 0.5360(3) 0.94388(11)
C3_8 C 0.8400(3) 0.4866(4) 0.96121(14)
H3_8 H 0.8417(3) 0.4514(4) 0.96449(14)
C4_8 C 0.7894(3) 0.4887(4) 0.96882(12)
H4_8 H 0.7554(3) 0.4545(4) 0.97701(12)
C5_8 C 0.7888(2) 0.54072(28) 0.96438(9)
C6_8 C 0.73934(18) 0.54765(25) 0.97531(9)
C7_8 C 0.6506(2) 0.5394(3) 0.99708(11)
C8_8 C 0.69208(19) 0.59577(27) 0.98824(9)
C9_8 C 0.68760(16) 0.64958(24) 0.99098(9)
C12_7 C 0.68206(16) 0.75263(23) 0.99172(8)
H6_7 H 0.68068(16) 0.78839(23) 0.99169(8)
C13_7 C 0.63664(16) 0.70311(25) 0.97766(9)
C14_7 C 0.64003(17) 0.65174(25) 0.97781(10)
H7_7 H 0.60861(17) 0.61680(25) 0.96855(10)
C15_7 C 0.5859(2) 0.7054(3) 0.96202(12)
H8_7 H 0.5789(11) 0.7345(11) 0.9732(6)
H9_7 H 0.5956(7) 0.7171(11) 0.9396(3)
H10_7 H 0.5502(4) 0.6663(9) 0.9632(8)
Ag2_8 Ag 0.827222(13) 0.676847(22) 0.953689(7)
N1_9 N 0.41034(20) 0.24548(14) 0.95143(7)
N2_9 N 0.40037(20) 0.14312(14) 0.97598(7)
S1_9 S 0.50913(9) 0.18301(7) 0.98973(3)
C1_9 C 0.41342(28) 0.29646(19) 0.94383(10)
H1_9 H 0.37966(28) 0.29550(19) 0.93453(10)
C2_9 C 0.4640(3) 0.3513(2) 0.94893(11)
H2_9 H 0.4640(3) 0.3869(2) 0.94388(11)
C3_9 C 0.5134(4) 0.3535(2) 0.96121(14)
H3_9 H 0.5486(4) 0.3904(2) 0.96449(14)
C4_9 C 0.5113(4) 0.3008(2) 0.96882(12)
H4_9 H 0.5455(4) 0.3010(2) 0.97701(12)
C5_9 C 0.45928(28) 0.24812(19) 0.96438(9)
C6_9 C 0.45235(25) 0.19170(18) 0.97531(9)
C7_9 C 0.4606(3) 0.1113(2) 0.99708(11)
C8_9 C 0.40423(27) 0.09632(19) 0.98824(9)
C9_9 C 0.35042(24) 0.03803(18) 0.99098(9)
Ag2_9 Ag 0.323153(22) 0.150374(18) 0.953689(7)
N3_9 N 0.15110(17) 0.91693(12) 0.03237(7)
N4_9 N 0.05970(17) 0.81773(12) 0.06178(6)
S2_9 S 0.10865(6) 0.98504(4) 0.04016(3)
C11_9 C 0.24783(23) 0.97839(17) 0.00615(8)
C17_9 C 0.19294(21) 0.97139(15) 0.02106(8)
C19_9 C 0.10452(21) 0.91736(15) 0.04339(9)
C20_9 C 0.05280(21) 0.86433(15) 0.05652(8)
C21_9 C 0.00030(25) 0.86408(19) 0.06294(10)
C24_9 C 0.01292(23) 0.76799(16) 0.07259(9)
H18_9 H 0.01731(23) 0.73438(16) 0.07622(9)
N5_9 N 0.24548(24) 0.83513(14) 0.04857(7)
N6_9 N 0.14312(24) 0.74274(14) 0.02402(7)
Ag1_7 Ag 0.516292(18) 0.010181(12) 0.787023(7)
N1_10 N 0.25632(20) 0.16847(14) 0.88191(7)
N2_10 N 0.26629(20) 0.07608(14) 0.85736(7)
N3_10 N 0.51556(17) 0.09916(12) 0.80097(7)
N4_10 N 0.60696(17) 0.09136(12) 0.77156(6)
O1_8 O 0.36627(17) 0.11451(12) 0.81476(6)
S1_10 S 0.15753(9) 0.00721(6) 0.84361(3)
S2_10 S 0.55801(6) 0.20972(4) 0.79318(3)
C1_10 C 0.25324(28) 0.2164(2) 0.88951(10)
H1_10 H 0.28700(28) 0.2492(2) 0.89881(10)
C2_10 C 0.2026(3) 0.2206(2) 0.88441(11)
H2_10 H 0.2026(3) 0.2562(2) 0.88946(11)
C3_10 C 0.1532(4) 0.1734(3) 0.87213(14)
H3_10 H 0.1180(4) 0.1751(3) 0.86885(14)
C4_10 C 0.1553(4) 0.1228(3) 0.86452(12)
H4_10 H 0.1211(4) 0.0888(3) 0.85633(12)
C5_10 C 0.20738(28) 0.1222(2) 0.86896(9)
C6_10 C 0.21431(25) 0.07268(18) 0.85803(9)
C8_10 C 0.26243(27) 0.02542(19) 0.84510(9)
C9_10 C 0.31624(24) 0.02094(16) 0.84236(9)
C10_8 C 0.36640(23) 0.06588(16) 0.82764(8)
C11_10 C 0.41883(23) 0.06389(15) 0.82719(8)
C12_8 C 0.41929(23) 0.01540(16) 0.84162(8)
H6_8 H 0.45505(23) 0.01402(16) 0.84165(8)
C16_8 C 0.3328(4) 0.1020(3) 0.78588(12)
H11_8 H 0.3334(13) 0.0694(12) 0.7746(5)
H12_8 H 0.2918(23) 0.0907(18) 0.79102(13)
H13_8 H 0.3502(18) 0.1374(6) 0.7723(4)
C17_10 C 0.47372(21) 0.11178(15) 0.81228(8)
C18_8 C 0.49031(23) 0.16990(16) 0.80990(10)
H14_8 H 0.46672(23) 0.18622(16) 0.81679(10)
C19_10 C 0.56214(21) 0.14617(15) 0.78995(9)
C20_10 C 0.61386(21) 0.14486(15) 0.77682(8)
C21_10 C 0.66636(25) 0.19711(17) 0.77040(10)
H15_8 H 0.66932(25) 0.23460(17) 0.77365(10)
C22_8 C 0.71429(28) 0.19303(19) 0.75912(11)
H16_8 H 0.75100(28) 0.22784(19) 0.75459(11)
C23_8 C 0.70811(26) 0.13788(19) 0.75460(9)
H17_8 H 0.74056(26) 0.13392(19) 0.74739(9)
C24_10 C 0.65374(23) 0.08840(16) 0.76075(9)
H18_10 H 0.64935(23) 0.05040(16) 0.75712(9)
Ag2_10 Ag 0.343514(22) 0.160555(13) 0.879644(7)
C7_10 C 0.2060(3) 0.9840(2) 0.83626(11)
H5_8 H 0.1955(3) 0.9466(2) 0.82710(11)
C13_8 C 0.36977(25) 0.96998(16) 0.85568(9)
C14_8 C 0.31840(25) 0.97337(17) 0.85553(10)
H7_8 H 0.28346(25) 0.94195(17) 0.86479(10)
C15_8 C 0.3720(3) 0.9193(2) 0.87132(12)
H8_8 H 0.4011(11) 0.9123(11) 0.8602(6)
H9_8 H 0.3837(11) 0.9290(7) 0.8938(3)
H10_8 H 0.3329(9) 0.8836(4) 0.8702(8)
Ag3_7 Ag 0.506112(22) 0.989819(12) 0.712977(7)
N5_10 N 0.42119(24) 0.92299(20) 0.78476(7)
N6_10 N 0.52355(24) 0.93296(20) 0.80931(7)
Ag1_8 Ag 0.493888(13) 0.483708(18) 0.787023(7)
N1_11 N 0.91214(14) 0.74368(20) 0.88191(7)
N2_11 N 0.80978(14) 0.73371(20) 0.85736(7)
N3_11 N 0.58359(12) 0.48444(17) 0.80097(7)
N4_11 N 0.48439(12) 0.39304(17) 0.77156(6)
O1_9 O 0.74823(12) 0.63373(17) 0.81476(6)
S1_11 S 0.84967(7) 0.84247(9) 0.84361(3)
S2_11 S 0.65170(4) 0.44199(6) 0.79318(3)
C1_11 C 0.96312(19) 0.74676(28) 0.88951(10)
H1_11 H 0.96216(19) 0.71300(28) 0.89881(10)
C4_11 C 0.9674(2) 0.8447(4) 0.86452(12)
H4_11 H 0.9676(2) 0.8789(4) 0.85633(12)
C5_11 C 0.91478(19) 0.79262(28) 0.86896(9)
C6_11 C 0.85836(18) 0.78569(25) 0.85803(9)
C7_11 C 0.7779(2) 0.7940(3) 0.83626(11)
H5_9 H 0.7510(2) 0.8045(3) 0.82710(11)
C8_11 C 0.76298(19) 0.73757(27) 0.84510(9)
C9_11 C 0.70469(18) 0.68376(24) 0.84236(9)
C10_9 C 0.69947(17) 0.63360(23) 0.82764(8)
C11_11 C 0.64505(17) 0.58117(23) 0.82719(8)
C12_9 C 0.59610(17) 0.58071(23) 0.84162(8)
H6_9 H 0.55896(17) 0.54495(23) 0.84165(8)
C13_9 C 0.60020(19) 0.63023(25) 0.85568(9)
C14_9 C 0.65496(19) 0.68160(25) 0.85553(10)
H7_9 H 0.65848(19) 0.71654(25) 0.86479(10)
C15_9 C 0.5472(2) 0.6280(3) 0.87132(12)
H8_9 H 0.5111(2) 0.5989(11) 0.8602(6)
H9_9 H 0.5452(9) 0.6163(11) 0.8938(3)
H10_9 H 0.5506(8) 0.6671(9) 0.8702(8)
C16_9 C 0.7691(2) 0.6672(4) 0.78588(12)
H11_9 H 0.7359(4) 0.6666(13) 0.7746(5)
H12_9 H 0.7988(14) 0.7082(23) 0.79102(13)
H13_9 H 0.7871(17) 0.6498(18) 0.7723(4)
C17_11 C 0.63805(15) 0.52628(21) 0.81228(8)
C18_9 C 0.67958(17) 0.50969(23) 0.80990(10)
H14_9 H 0.71949(17) 0.53328(23) 0.81679(10)
C19_11 C 0.58402(15) 0.43786(21) 0.78995(9)
C20_11 C 0.53099(15) 0.38614(21) 0.77682(8)
C21_11 C 0.53074(19) 0.33364(25) 0.77040(10)
H15_9 H 0.56527(19) 0.33068(25) 0.77365(10)
C22_9 C 0.4787(2) 0.28571(28) 0.75912(11)
H16_9 H 0.4768(2) 0.24900(28) 0.75459(11)
C23_9 C 0.42976(18) 0.29189(26) 0.75460(9)
H17_9 H 0.39335(18) 0.25944(26) 0.74739(9)
C24_11 C 0.43465(16) 0.34626(23) 0.76075(9)
H18_11 H 0.40104(16) 0.35065(23) 0.75712(9)
Ag2_11 Ag 0.817041(18) 0.656486(22) 0.879644(7)
Ag3_8 Ag 0.483708(18) 0.493888(22) 0.712977(7)
N5_11 N 0.50180(14) 0.57881(24) 0.78476(7)
N6_11 N 0.40941(14) 0.47645(24) 0.80931(7)
C7_12 C 0.0160(2) 0.2221(2) 0.83626(11)
H5_10 H 0.0534(2) 0.2490(2) 0.82710(11)
C13_10 C 0.03002(16) 0.39980(19) 0.85568(9)
C14_10 C 0.02663(17) 0.34504(19) 0.85553(10)
H7_10 H 0.05805(17) 0.34152(19) 0.86479(10)
C15_10 C 0.0807(2) 0.4528(2) 0.87132(12)
H8_10 H 0.0877(11) 0.4889(2) 0.8602(6)
H9_10 H 0.0710(7) 0.4548(9) 0.8938(3)
H10_10 H 0.1164(4) 0.4494(8) 0.8702(8)
Ag3_9 Ag 0.010181(12) 0.516292(18) 0.712977(7)
N5_12 N 0.07701(20) 0.49820(14) 0.78476(7)
N6_12 N 0.06704(20) 0.59059(14) 0.80931(7)
Ag1_9 Ag 0.989819(12) 0.506112(13) 0.787023(7)
N1_12 N 0.83153(14) 0.08786(14) 0.88191(7)
N2_12 N 0.92392(14) 0.19022(14) 0.85736(7)
N3_12 N 0.90084(12) 0.41641(12) 0.80097(7)
N4_12 N 0.90864(12) 0.51561(12) 0.77156(6)
O1_10 O 0.88549(12) 0.25177(12) 0.81476(6)
S1_12 S 0.99279(6) 0.15033(7) 0.84361(3)
S2_12 S 0.79028(4) 0.34830(4) 0.79318(3)
C1_12 C 0.7836(2) 0.03688(19) 0.88951(10)
H1_12 H 0.7508(2) 0.03784(19) 0.89881(10)
C4_12 C 0.8772(3) 0.0326(2) 0.86452(12)
H4_12 H 0.9112(3) 0.0324(2) 0.85633(12)
C5_12 C 0.8778(2) 0.08522(19) 0.86896(9)
C6_12 C 0.92732(18) 0.14164(18) 0.85803(9)
C8_12 C 0.97458(19) 0.23702(19) 0.84510(9)
C9_12 C 0.97906(16) 0.29531(18) 0.84236(9)
C10_10 C 0.93412(16) 0.30053(17) 0.82764(8)
C11_12 C 0.93611(15) 0.35495(17) 0.82719(8)
C12_10 C 0.98460(16) 0.40390(17) 0.84162(8)
H6_10 H 0.98598(16) 0.44104(17) 0.84165(8)
C16_10 C 0.8980(3) 0.2309(2) 0.78588(12)
H11_10 H 0.9306(12) 0.2641(4) 0.7746(5)
H12_10 H 0.9093(18) 0.2012(14) 0.79102(13)
H13_10 H 0.8626(6) 0.2129(17) 0.7723(4)
C17_12 C 0.88822(15) 0.36195(15) 0.81228(8)
C18_10 C 0.83010(16) 0.32042(17) 0.80990(10)
H14_10 H 0.81378(16) 0.28051(17) 0.81679(10)
C19_12 C 0.85383(15) 0.41598(15) 0.78995(9)
C20_12 C 0.85514(15) 0.46901(15) 0.77682(8)
C21_12 C 0.80289(17) 0.46926(19) 0.77040(10)
H15_10 H 0.76540(17) 0.43473(19) 0.77365(10)
C22_10 C 0.80697(19) 0.5213(2) 0.75912(11)
H16_10 H 0.77216(19) 0.5232(2) 0.75459(11)
C23_10 C 0.86212(19) 0.57024(18) 0.75460(9)
H17_10 H 0.86608(19) 0.60665(18) 0.74739(9)
C24_12 C 0.91160(16) 0.56535(16) 0.76075(9)
H18_12 H 0.94960(16) 0.59896(16) 0.75712(9)
Ag2_12 Ag 0.839445(13) 0.182959(18) 0.879644(7)
C7_13 C 0.2221(2) 0.0160(2) 0.66374(11)
H5_11 H 0.2490(2) 0.0534(2) 0.67290(11)
C13_11 C 0.39980(19) 0.03002(16) 0.64432(9)
C14_11 C 0.34504(19) 0.02663(17) 0.64447(10)
H7_11 H 0.34152(19) 0.05805(17) 0.63521(10)
C15_11 C 0.4528(2) 0.0807(2) 0.62868(12)
H8_11 H 0.4889(2) 0.0877(11) 0.6398(6)
H9_11 H 0.4548(9) 0.0710(7) 0.6062(3)
H10_11 H 0.4494(8) 0.1164(4) 0.6298(8)
N5_13 N 0.49820(14) 0.07701(20) 0.71524(7)
N6_13 N 0.59059(14) 0.06704(20) 0.69069(7)
N1_13 N 0.08786(14) 0.83153(14) 0.61809(7)
N2_13 N 0.19022(14) 0.92392(14) 0.64264(7)
N3_13 N 0.41641(12) 0.90084(12) 0.69903(7)
N4_13 N 0.51561(12) 0.90864(12) 0.72844(6)
O1_11 O 0.25177(12) 0.88549(12) 0.68524(6)
S1_13 S 0.15033(7) 0.99279(6) 0.65639(3)
S2_13 S 0.34830(4) 0.79028(4) 0.70682(3)
C1_13 C 0.03688(19) 0.7836(2) 0.61049(10)
H1_13 H 0.03784(19) 0.7508(2) 0.60119(10)
C4_13 C 0.0326(2) 0.8772(3) 0.63548(12)
H4_13 H 0.0324(2) 0.9112(3) 0.64367(12)
C5_13 C 0.08522(19) 0.8778(2) 0.63104(9)
C6_13 C 0.14164(18) 0.92732(18) 0.64197(9)
C8_13 C 0.23702(19) 0.97458(19) 0.65490(9)
C9_13 C 0.29531(18) 0.97906(16) 0.65764(9)
C10_11 C 0.30053(17) 0.93412(16) 0.67236(8)
C11_13 C 0.35495(17) 0.93611(15) 0.67281(8)
C12_11 C 0.40390(17) 0.98460(16) 0.65838(8)
H6_11 H 0.44104(17) 0.98598(16) 0.65835(8)
C16_11 C 0.2309(2) 0.8980(3) 0.71412(12)
H11_11 H 0.2641(4) 0.9306(12) 0.7254(5)
H12_11 H 0.2012(14) 0.9093(18) 0.70898(13)
H13_11 H 0.2129(17) 0.8626(6) 0.7277(4)
C17_13 C 0.36195(15) 0.88822(15) 0.68772(8)
C18_11 C 0.32042(17) 0.83010(16) 0.69010(10)
H14_11 H 0.28051(17) 0.81378(16) 0.68321(10)
C19_13 C 0.41598(15) 0.85383(15) 0.71005(9)
C20_13 C 0.46901(15) 0.85514(15) 0.72318(8)
C21_13 C 0.46926(19) 0.80289(17) 0.72960(10)
H15_11 H 0.43473(19) 0.76540(17) 0.72635(10)
C22_11 C 0.5213(2) 0.80697(19) 0.74088(11)
H16_11 H 0.5232(2) 0.77216(19) 0.74541(11)
C23_11 C 0.57024(18) 0.86212(19) 0.74540(9)
H17_11 H 0.60665(18) 0.86608(19) 0.75261(9)
C24_13 C 0.56535(16) 0.91160(16) 0.73925(9)
H18_13 H 0.59896(16) 0.94960(16) 0.74288(9)
Ag2_13 Ag 0.182959(18) 0.839445(13) 0.620356(7)
N1_14 N 0.16847(14) 0.25632(20) 0.61809(7)
N2_14 N 0.07608(14) 0.26629(20) 0.64264(7)
N3_14 N 0.09916(12) 0.51556(17) 0.69903(7)
N4_14 N 0.09136(12) 0.60696(17) 0.72844(6)
O1_12 O 0.11451(12) 0.36627(17) 0.68524(6)
S1_14 S 0.00721(6) 0.15753(9) 0.65639(3)
S2_14 S 0.20972(4) 0.55801(6) 0.70682(3)
C1_14 C 0.2164(2) 0.25324(28) 0.61049(10)
H1_14 H 0.2492(2) 0.28700(28) 0.60119(10)
C2_11 C 0.2206(2) 0.2026(3) 0.61559(11)
H2_11 H 0.2562(2) 0.2026(3) 0.61054(11)
C3_11 C 0.1734(3) 0.1532(4) 0.62787(14)
H3_11 H 0.1751(3) 0.1180(4) 0.63115(14)
C4_14 C 0.1228(3) 0.1553(4) 0.63548(12)
H4_14 H 0.0888(3) 0.1211(4) 0.64367(12)
C5_14 C 0.1222(2) 0.20738(28) 0.63104(9)
C6_14 C 0.07268(18) 0.21431(25) 0.64197(9)
C8_14 C 0.02542(19) 0.26243(27) 0.65490(9)
C9_14 C 0.02094(16) 0.31624(24) 0.65764(9)
C10_12 C 0.06588(16) 0.36640(23) 0.67236(8)
C11_14 C 0.06389(15) 0.41883(23) 0.67281(8)
C12_12 C 0.01540(16) 0.41929(23) 0.65838(8)
H6_12 H 0.01402(16) 0.45505(23) 0.65835(8)
C16_12 C 0.1020(3) 0.3328(4) 0.71412(12)
H11_12 H 0.0694(12) 0.3334(13) 0.7254(5)
H12_12 H 0.0907(18) 0.2918(23) 0.70898(13)
H13_12 H 0.1374(6) 0.3502(18) 0.7277(4)
C17_14 C 0.11178(15) 0.47372(21) 0.68772(8)
C18_12 C 0.16990(16) 0.49031(23) 0.69010(10)
H14_12 H 0.18622(16) 0.46672(23) 0.68321(10)
C19_14 C 0.14617(15) 0.56214(21) 0.71005(9)
C20_14 C 0.14486(15) 0.61386(21) 0.72318(8)
C21_14 C 0.19711(17) 0.66636(25) 0.72960(10)
H15_12 H 0.23460(17) 0.66932(25) 0.72635(10)
C22_12 C 0.19303(19) 0.71429(28) 0.74088(11)
H16_12 H 0.22784(19) 0.75100(28) 0.74541(11)
C23_12 C 0.13788(19) 0.70811(26) 0.74540(9)
H17_12 H 0.13392(19) 0.74056(26) 0.75261(9)
C24_14 C 0.08840(16) 0.65374(23) 0.73925(9)
H18_14 H 0.05040(16) 0.64935(23) 0.74288(9)
Ag2_14 Ag 0.160555(13) 0.343514(22) 0.620356(7)
C7_14 C 0.9840(2) 0.2060(3) 0.66374(11)
H5_12 H 0.9466(2) 0.1955(3) 0.67290(11)
C13_12 C 0.96998(16) 0.36977(25) 0.64432(9)
C14_12 C 0.97337(17) 0.31840(25) 0.64447(10)
H7_12 H 0.94195(17) 0.28346(25) 0.63521(10)
C15_12 C 0.9193(2) 0.3720(3) 0.62868(12)
H8_12 H 0.9123(11) 0.4011(11) 0.6398(6)
H9_12 H 0.9290(7) 0.3837(11) 0.6062(3)
H10_12 H 0.8836(4) 0.3329(9) 0.6298(8)
N5_14 N 0.92299(20) 0.42119(24) 0.71524(7)
N6_14 N 0.93296(20) 0.52355(24) 0.69069(7)
N1_15 N 0.74368(20) 0.91214(14) 0.61809(7)
N2_15 N 0.73371(20) 0.80978(14) 0.64264(7)
N3_15 N 0.48444(17) 0.58359(12) 0.69903(7)
N4_15 N 0.39304(17) 0.48439(12) 0.72844(6)
O1_13 O 0.63373(17) 0.74823(12) 0.68524(6)
S1_15 S 0.84247(9) 0.84967(7) 0.65639(3)
S2_15 S 0.44199(6) 0.65170(4) 0.70682(3)
C1_15 C 0.74676(28) 0.96312(19) 0.61049(10)
H1_15 H 0.71300(28) 0.96216(19) 0.60119(10)
C4_15 C 0.8447(4) 0.9674(2) 0.63548(12)
H4_15 H 0.8789(4) 0.9676(2) 0.64367(12)
C5_15 C 0.79262(28) 0.91478(19) 0.63104(9)
C6_15 C 0.78569(25) 0.85836(18) 0.64197(9)
C7_15 C 0.7940(3) 0.7779(2) 0.66374(11)
H5_13 H 0.8045(3) 0.7510(2) 0.67290(11)
C8_15 C 0.73757(27) 0.76298(19) 0.65490(9)
C9_15 C 0.68376(24) 0.70469(18) 0.65764(9)
C10_13 C 0.63360(23) 0.69947(17) 0.67236(8)
C11_15 C 0.58117(23) 0.64505(17) 0.67281(8)
C12_13 C 0.58071(23) 0.59610(17) 0.65838(8)
H6_13 H 0.54495(23) 0.55896(17) 0.65835(8)
C13_13 C 0.63023(25) 0.60020(19) 0.64432(9)
C14_13 C 0.68160(25) 0.65496(19) 0.64447(10)
H7_13 H 0.71654(25) 0.65848(19) 0.63521(10)
C15_13 C 0.6280(3) 0.5472(2) 0.62868(12)
H8_13 H 0.5989(11) 0.5111(2) 0.6398(6)
H9_13 H 0.6163(11) 0.5452(9) 0.6062(3)
H10_13 H 0.6671(9) 0.5506(8) 0.6298(8)
C16_13 C 0.6672(4) 0.7691(2) 0.71412(12)
H11_13 H 0.6666(13) 0.7359(4) 0.7254(5)
H12_13 H 0.7082(23) 0.7988(14) 0.70898(13)
H13_13 H 0.6498(18) 0.7871(17) 0.7277(4)
C17_15 C 0.52628(21) 0.63805(15) 0.68772(8)
C18_13 C 0.50969(23) 0.67958(17) 0.69010(10)
H14_13 H 0.53328(23) 0.71949(17) 0.68321(10)
C19_15 C 0.43786(21) 0.58402(15) 0.71005(9)
C20_15 C 0.38614(21) 0.53099(15) 0.72318(8)
C21_15 C 0.33364(25) 0.53074(19) 0.72960(10)
H15_13 H 0.33068(25) 0.56527(19) 0.72635(10)
C22_13 C 0.28571(28) 0.4787(2) 0.74088(11)
H16_13 H 0.24900(28) 0.4768(2) 0.74541(11)
C23_13 C 0.29189(26) 0.42976(18) 0.74540(9)
H17_13 H 0.25944(26) 0.39335(18) 0.75261(9)
C24_15 C 0.34626(23) 0.43465(16) 0.73925(9)
H18_15 H 0.35065(23) 0.40104(16) 0.74288(9)
Ag2_15 Ag 0.656486(22) 0.817041(18) 0.620356(7)
N5_15 N 0.57881(24) 0.50180(14) 0.71524(7)
N6_15 N 0.47645(24) 0.40941(14) 0.69069(7)
N1_16 N 0.58966(20) 0.83513(14) 0.54857(7)
N2_16 N 0.59963(20) 0.74274(14) 0.52402(7)
N3_16 N 0.84890(17) 0.76582(12) 0.46763(7)
N4_16 N 0.94030(17) 0.75802(12) 0.43822(6)
O1_14 O 0.69961(17) 0.78117(12) 0.48142(6)
S1_16 S 0.49087(9) 0.67387(6) 0.51027(3)
S2_16 S 0.89135(6) 0.87638(4) 0.45984(3)
C1_16 C 0.58658(28) 0.8830(2) 0.55617(10)
H1_16 H 0.62034(28) 0.9158(2) 0.56547(10)
C2_12 C 0.5360(3) 0.8872(2) 0.55107(11)
H2_12 H 0.5360(3) 0.9228(2) 0.55612(11)
C3_12 C 0.4866(4) 0.8400(3) 0.53879(14)
H3_12 H 0.4514(4) 0.8417(3) 0.53551(14)
C4_16 C 0.4887(4) 0.7894(3) 0.53118(12)
H4_16 H 0.4545(4) 0.7554(3) 0.52299(12)
C5_16 C 0.54072(28) 0.7888(2) 0.53562(9)
C6_16 C 0.54765(25) 0.73934(18) 0.52469(9)
C7_16 C 0.5394(3) 0.6506(2) 0.50292(11)
H5_14 H 0.5289(3) 0.6132(2) 0.49376(11)
C8_16 C 0.59577(27) 0.69208(19) 0.51176(9)
C9_16 C 0.64958(24) 0.68760(16) 0.50902(9)
C10_14 C 0.69974(23) 0.73254(16) 0.49430(8)
C11_16 C 0.75217(23) 0.73055(15) 0.49385(8)
C12_14 C 0.75263(23) 0.68206(16) 0.50828(8)
H6_14 H 0.78839(23) 0.68068(16) 0.50831(8)
C13_14 C 0.70311(25) 0.63664(16) 0.52234(9)
C14_14 C 0.65174(25) 0.64003(17) 0.52219(10)
H7_14 H 0.61680(25) 0.60861(17) 0.53145(10)
C15_14 C 0.7054(3) 0.5859(2) 0.53798(12)
H8_14 H 0.7345(11) 0.5789(11) 0.5268(6)
H9_14 H 0.7171(11) 0.5956(7) 0.5604(3)
H10_14 H 0.6663(9) 0.5502(4) 0.5368(8)
C16_14 C 0.6662(4) 0.7686(3) 0.45254(12)
H11_14 H 0.6668(13) 0.7360(12) 0.4412(5)
H12_14 H 0.6252(23) 0.7573(18) 0.45768(13)
H13_14 H 0.6836(18) 0.8040(6) 0.4389(4)
C17_16 C 0.80706(21) 0.77844(15) 0.47894(8)
C18_14 C 0.82365(23) 0.83656(16) 0.47656(10)
H14_14 H 0.80006(23) 0.85288(16) 0.48345(10)
C19_16 C 0.89548(21) 0.81283(15) 0.45661(9)
C20_16 C 0.94720(21) 0.81152(15) 0.44348(8)
C21_16 C 0.99970(25) 0.86377(17) 0.43706(10)
C24_16 C 0.98708(23) 0.75506(16) 0.42741(9)
H18_16 H 0.98269(23) 0.71706(16) 0.42378(9)
Ag2_16 Ag 0.676847(22) 0.827222(13) 0.546311(7)
N5_16 N 0.75452(24) 0.58966(20) 0.45143(7)
N6_16 N 0.85688(24) 0.59963(20) 0.47598(7)
N1_17 N 0.24548(14) 0.41034(20) 0.54857(7)
N2_17 N 0.14312(14) 0.40037(20) 0.52402(7)
O1_15 O 0.08157(12) 0.30039(17) 0.48142(6)
S1_17 S 0.18301(7) 0.50913(9) 0.51027(3)
C1_17 C 0.29646(19) 0.41342(28) 0.55617(10)
H1_17 H 0.29550(19) 0.37966(28) 0.56547(10)
C2_13 C 0.3513(2) 0.4640(3) 0.55107(11)
H2_13 H 0.3869(2) 0.4640(3) 0.55612(11)
C3_13 C 0.3535(2) 0.5134(4) 0.53879(14)
H3_13 H 0.3904(2) 0.5486(4) 0.53551(14)
C4_17 C 0.3008(2) 0.5113(4) 0.53118(12)
H4_17 H 0.3010(2) 0.5455(4) 0.52299(12)
C5_17 C 0.24812(19) 0.45928(28) 0.53562(9)
C6_17 C 0.19170(18) 0.45235(25) 0.52469(9)
C7_17 C 0.1113(2) 0.4606(3) 0.50292(11)
H5_15 H 0.0844(2) 0.4711(3) 0.49376(11)
C8_17 C 0.09632(19) 0.40423(27) 0.51176(9)
C9_17 C 0.03803(18) 0.35042(24) 0.50902(9)
C10_15 C 0.03281(17) 0.30026(23) 0.49430(8)
C16_15 C 0.1025(2) 0.3338(4) 0.45254(12)
H11_15 H 0.0693(4) 0.3332(13) 0.4412(5)
H12_15 H 0.1322(14) 0.3748(23) 0.45768(13)
H13_15 H 0.1205(17) 0.3164(18) 0.4389(4)
C18_15 C 0.01292(17) 0.17635(23) 0.47656(10)
H14_15 H 0.05283(17) 0.19994(23) 0.48345(10)
Ag2_17 Ag 0.150374(18) 0.323153(22) 0.546311(7)
N3_17 N 0.91693(12) 0.15110(17) 0.46763(7)
N4_17 N 0.81773(12) 0.05970(17) 0.43822(6)
S2_17 S 0.98504(4) 0.10865(6) 0.45984(3)
C11_17 C 0.97839(17) 0.24783(23) 0.49385(8)
C12_15 C 0.92944(17) 0.24737(23) 0.50828(8)
H6_15 H 0.89230(17) 0.21161(23) 0.50831(8)
C13_15 C 0.93354(19) 0.29689(25) 0.52234(9)
C14_15 C 0.98830(19) 0.34826(25) 0.52219(10)
H7_15 H 0.99182(19) 0.38320(25) 0.53145(10)
C15_15 C 0.8806(2) 0.2946(3) 0.53798(12)
H8_15 H 0.8445(2) 0.2655(11) 0.5268(6)
H9_15 H 0.8786(9) 0.2829(11) 0.5604(3)
H10_15 H 0.8840(8) 0.3337(9) 0.5368(8)
C17_17 C 0.97139(15) 0.19294(21) 0.47894(8)
C19_17 C 0.91736(15) 0.10452(21) 0.45661(9)
C20_17 C 0.86433(15) 0.05280(21) 0.44348(8)
C21_17 C 0.86408(19) 0.00030(25) 0.43706(10)
C24_17 C 0.76799(16) 0.01292(23) 0.42741(9)
H18_17 H 0.73438(16) 0.01731(23) 0.42378(9)
N5_17 N 0.83513(14) 0.24548(24) 0.45143(7)
N6_17 N 0.74274(14) 0.14312(24) 0.47598(7)
N3_18 N 0.23418(12) 0.08307(12) 0.46763(7)
N4_18 N 0.24198(12) 0.18227(12) 0.43822(6)
S2_18 S 0.12362(4) 0.01496(4) 0.45984(3)
C11_18 C 0.26945(15) 0.02161(17) 0.49385(8)
C12_16 C 0.31794(16) 0.07056(17) 0.50828(8)
H6_16 H 0.31932(16) 0.10770(17) 0.50831(8)
C13_16 C 0.36336(16) 0.06646(19) 0.52234(9)
C14_16 C 0.35997(17) 0.01170(19) 0.52219(10)
H7_16 H 0.39139(17) 0.00818(19) 0.53145(10)
C15_16 C 0.4141(2) 0.1194(2) 0.53798(12)
H8_16 H 0.4211(11) 0.1555(2) 0.5268(6)
H9_16 H 0.4044(7) 0.1214(9) 0.5604(3)
H10_16 H 0.4498(4) 0.1160(8) 0.5368(8)
C17_18 C 0.22156(15) 0.02861(15) 0.47894(8)
C19_18 C 0.18717(15) 0.08264(15) 0.45661(9)
C20_18 C 0.18848(15) 0.13567(15) 0.44348(8)
C21_18 C 0.13623(17) 0.13592(19) 0.43706(10)
H15_14 H 0.09874(17) 0.10139(19) 0.44031(10)
C22_14 C 0.14031(19) 0.1879(2) 0.42578(11)
H16_14 H 0.10550(19) 0.1898(2) 0.42125(11)
C23_14 C 0.19546(19) 0.23690(18) 0.42126(9)
H17_14 H 0.19942(19) 0.27331(18) 0.41405(9)
C24_18 C 0.24494(16) 0.23201(16) 0.42741(9)
H18_18 H 0.28294(16) 0.26562(16) 0.42378(9)
N5_18 N 0.41034(20) 0.16487(14) 0.45143(7)
N6_18 N 0.40037(20) 0.25726(14) 0.47598(7)
N1_18 N 0.16487(14) 0.75452(14) 0.54857(7)
N2_18 N 0.25726(14) 0.85688(14) 0.52402(7)
O1_16 O 0.21883(12) 0.91843(12) 0.48142(6)
S1_18 S 0.32613(6) 0.81699(7) 0.51027(3)
C1_18 C 0.1170(2) 0.70354(19) 0.55617(10)
H1_18 H 0.0842(2) 0.70450(19) 0.56547(10)
C2_14 C 0.1128(2) 0.6487(2) 0.55107(11)
H2_14 H 0.0772(2) 0.6131(2) 0.55612(11)
C3_14 C 0.1600(3) 0.6465(2) 0.53879(14)
H3_14 H 0.1583(3) 0.6096(2) 0.53551(14)
C4_18 C 0.2106(3) 0.6992(2) 0.53118(12)
H4_18 H 0.2446(3) 0.6990(2) 0.52299(12)
C5_18 C 0.2112(2) 0.75188(19) 0.53562(9)
C6_18 C 0.26066(18) 0.80830(18) 0.52469(9)
C7_18 C 0.3494(2) 0.8887(2) 0.50292(11)
H5_16 H 0.3868(2) 0.9156(2) 0.49376(11)
C8_18 C 0.30792(19) 0.90368(19) 0.51176(9)
C9_18 C 0.31240(16) 0.96197(18) 0.50902(9)
C10_16 C 0.26746(16) 0.96719(17) 0.49430(8)
C16_16 C 0.2314(3) 0.8975(2) 0.45254(12)
H11_16 H 0.2640(12) 0.9307(4) 0.4412(5)
H12_16 H 0.2427(18) 0.8678(14) 0.45768(13)
H13_16 H 0.1960(6) 0.8795(17) 0.4389(4)
C18_16 C 0.16344(16) 0.98708(17) 0.47656(10)
H14_16 H 0.14712(16) 0.94717(17) 0.48345(10)
Ag2_18 Ag 0.172778(13) 0.849626(18) 0.546311(7)
N3_19 N 0.25026(12) 0.43249(12) 0.63430(7)
N4_19 N 0.15106(12) 0.42469(12) 0.60489(6)
O1_17 O 0.41490(12) 0.44784(12) 0.64809(6)
S1_19 S 0.51634(7) 0.34054(6) 0.67694(3)
S2_19 S 0.31837(4) 0.54305(4) 0.62651(3)
C1_19 C 0.62979(19) 0.5497(2) 0.72284(10)
H1_19 H 0.62883(19) 0.5825(2) 0.73214(10)
C2_15 C 0.6846(2) 0.5539(2) 0.71774(11)
H2_15 H 0.7202(2) 0.5895(2) 0.72279(11)
C3_15 C 0.6868(2) 0.5067(3) 0.70546(14)
H3_15 H 0.7237(2) 0.5084(3) 0.70218(14)
C4_19 C 0.6341(2) 0.4561(3) 0.69785(12)
H4_19 H 0.6343(2) 0.4221(3) 0.68966(12)
C5_19 C 0.58145(19) 0.4555(2) 0.70229(9)
C6_19 C 0.52503(18) 0.40601(18) 0.69136(9)
C7_19 C 0.4446(2) 0.3173(2) 0.66959(11)
H5_17 H 0.4177(2) 0.2799(2) 0.66043(11)
C8_19 C 0.42965(19) 0.35875(19) 0.67843(9)
C9_19 C 0.37136(18) 0.35427(16) 0.67569(9)
C10_17 C 0.36614(17) 0.39921(16) 0.66097(8)
C11_19 C 0.31172(17) 0.39722(15) 0.66052(8)
C12_17 C 0.26277(17) 0.34873(16) 0.67495(8)
H6_17 H 0.22563(17) 0.34735(16) 0.67498(8)
C13_17 C 0.26687(19) 0.30331(16) 0.68901(9)
C14_17 C 0.32163(19) 0.30670(17) 0.68886(10)
H7_17 H 0.32515(19) 0.27528(17) 0.69812(10)
C15_17 C 0.2139(2) 0.2526(2) 0.70465(12)
H8_17 H 0.1778(2) 0.2456(11) 0.6935(6)
H9_17 H 0.2119(9) 0.2623(7) 0.7271(3)
H10_17 H 0.2173(8) 0.2169(4) 0.7035(8)
C16_17 C 0.4358(2) 0.4353(3) 0.61921(12)
H11_17 H 0.4026(4) 0.4027(12) 0.6079(5)
H12_17 H 0.4655(14) 0.4240(18) 0.62435(13)
H13_17 H 0.4538(17) 0.4707(6) 0.6056(4)
C17_19 C 0.30472(15) 0.44511(15) 0.64561(8)
C18_17 C 0.34625(17) 0.50323(16) 0.64323(10)
H14_17 H 0.38616(17) 0.51955(16) 0.65012(10)
C19_19 C 0.25069(15) 0.47950(15) 0.62328(9)
C20_19 C 0.19766(15) 0.47819(15) 0.61015(8)
C21_19 C 0.19741(19) 0.53044(17) 0.60373(10)
H15_15 H 0.23194(19) 0.56793(17) 0.60698(10)
C22_15 C 0.1454(2) 0.52636(19) 0.59245(11)
H16_15 H 0.1435(2) 0.56117(19) 0.58792(11)
C23_15 C 0.09643(18) 0.47121(19) 0.58793(9)
H17_15 H 0.06002(18) 0.46725(19) 0.58072(9)
C24_19 C 0.10132(16) 0.42173(16) 0.59408(9)
H18_19 H 0.06771(16) 0.38373(16) 0.59045(9)
S1_20 S 0.65946(6) 0.17580(9) 0.67694(3)
C1_20 C 0.4503(2) 0.08009(28) 0.72284(10)
H1_20 H 0.4175(2) 0.04633(28) 0.73214(10)
C2_16 C 0.4461(2) 0.1307(3) 0.71774(11)
H2_16 H 0.4105(2) 0.1307(3) 0.72279(11)
C3_16 C 0.4933(3) 0.1801(4) 0.70546(14)
H3_16 H 0.4916(3) 0.2153(4) 0.70218(14)
C4_20 C 0.5439(3) 0.1780(4) 0.69785(12)
H4_20 H 0.5779(3) 0.2122(4) 0.68966(12)
C5_20 C 0.5445(2) 0.12595(28) 0.70229(9)
C6_20 C 0.59399(18) 0.11902(25) 0.69136(9)
C7_20 C 0.6827(2) 0.1273(3) 0.66959(11)
H5_18 H 0.7201(2) 0.1378(3) 0.66043(11)
C8_20 C 0.64125(19) 0.07090(27) 0.67843(9)
C9_20 C 0.64573(16) 0.01709(24) 0.67569(9)
C14_18 C 0.69330(17) 0.01493(25) 0.68886(10)
H7_18 H 0.72472(17) 0.04987(25) 0.69812(10)
H10_18 H 0.7831(4) 0.0004(9) 0.7035(8)
C16_18 C 0.5647(3) 0.0005(4) 0.61921(12)
H12_18 H 0.5760(18) 0.0415(23) 0.62435(13)
N3_20 N 0.56751(12) 0.81777(17) 0.63430(7)
N4_20 N 0.57531(12) 0.72637(17) 0.60489(6)
O1_18 O 0.55216(12) 0.96706(17) 0.64809(6)
S2_20 S 0.45695(4) 0.77532(6) 0.62651(3)
C10_18 C 0.60079(16) 0.96693(23) 0.66097(8)
C11_20 C 0.60278(15) 0.91450(23) 0.66052(8)
C12_18 C 0.65127(16) 0.91404(23) 0.67495(8)
H6_18 H 0.65265(16) 0.87828(23) 0.67498(8)
C13_18 C 0.69669(16) 0.96356(25) 0.68901(9)
C15_18 C 0.7474(2) 0.9613(3) 0.70465(12)
H8_18 H 0.7544(11) 0.9322(11) 0.6935(6)
H9_18 H 0.7377(7) 0.9496(11) 0.7271(3)
H11_18 H 0.5973(12) 0.9999(13) 0.6079(5)
H13_18 H 0.5293(6) 0.9831(18) 0.6056(4)
C17_20 C 0.55489(15) 0.85961(21) 0.64561(8)
C18_18 C 0.49677(16) 0.84302(23) 0.64323(10)
H14_18 H 0.48045(16) 0.86661(23) 0.65012(10)
C19_20 C 0.52050(15) 0.77119(21) 0.62328(9)
C20_20 C 0.52181(15) 0.71947(21) 0.61015(8)
C21_20 C 0.46956(17) 0.66697(25) 0.60373(10)
H15_16 H 0.43207(17) 0.66401(25) 0.60698(10)
C22_16 C 0.47364(19) 0.61904(28) 0.59245(11)
H16_16 H 0.43883(19) 0.58233(28) 0.58792(11)
C23_16 C 0.52879(19) 0.62522(26) 0.58793(9)
H17_16 H 0.53275(19) 0.59277(26) 0.58072(9)
C24_20 C 0.57827(16) 0.67959(23) 0.59408(9)
H18_20 H 0.61627(16) 0.68398(23) 0.59045(9)
N3_21 N 0.18223(17) 0.74974(12) 0.63430(7)
N4_21 N 0.27363(17) 0.84894(12) 0.60489(6)
O1_19 O 0.03294(17) 0.58510(12) 0.64809(6)
S2_21 S 0.22468(6) 0.68163(4) 0.62651(3)
C10_19 C 0.03307(23) 0.63386(17) 0.66097(8)
C11_21 C 0.08550(23) 0.68828(17) 0.66052(8)
C12_19 C 0.08596(23) 0.73723(17) 0.67495(8)
H6_19 H 0.12172(23) 0.77437(17) 0.67498(8)
C13_19 C 0.03644(25) 0.73313(19) 0.68901(9)
C15_19 C 0.0387(3) 0.7861(2) 0.70465(12)
H8_19 H 0.0678(11) 0.8222(2) 0.6935(6)
H9_19 H 0.0504(11) 0.7881(9) 0.7271(3)
H11_19 H 0.0001(13) 0.5974(4) 0.6079(5)
H13_19 H 0.0169(18) 0.5462(17) 0.6056(4)
C17_21 C 0.14039(21) 0.69528(15) 0.64561(8)
C18_19 C 0.15698(23) 0.65375(17) 0.64323(10)
H14_19 H 0.13339(23) 0.61384(17) 0.65012(10)
C19_21 C 0.22881(21) 0.74931(15) 0.62328(9)
C20_21 C 0.28053(21) 0.80234(15) 0.61015(8)
C21_21 C 0.33303(25) 0.80259(19) 0.60373(10)
H15_17 H 0.33599(25) 0.76806(19) 0.60698(10)
C22_17 C 0.38096(28) 0.8546(2) 0.59245(11)
H16_17 H 0.41767(28) 0.8565(2) 0.58792(11)
C23_17 C 0.37478(26) 0.90357(18) 0.58793(9)
H17_17 H 0.40723(26) 0.93998(18) 0.58072(9)
C24_21 C 0.32041(23) 0.89868(16) 0.59408(9)
H18_21 H 0.31602(23) 0.93229(16) 0.59045(9)
S1_21 S 0.82420(9) 0.48366(7) 0.67694(3)
C1_21 C 0.91991(28) 0.37021(19) 0.72284(10)
H1_21 H 0.95367(28) 0.37117(19) 0.73214(10)
C2_17 C 0.8693(3) 0.3154(2) 0.71774(11)
H2_17 H 0.8693(3) 0.2798(2) 0.72279(11)
C3_17 C 0.8199(4) 0.3132(2) 0.70546(14)
H3_17 H 0.7847(4) 0.2763(2) 0.70218(14)
C4_21 C 0.8220(4) 0.3659(2) 0.69785(12)
H4_21 H 0.7878(4) 0.3657(2) 0.68966(12)
C5_21 C 0.87405(28) 0.41855(19) 0.70229(9)
C6_21 C 0.88098(25) 0.47497(18) 0.69136(9)
C7_21 C 0.8727(3) 0.5554(2) 0.66959(11)
H5_19 H 0.8622(3) 0.5823(2) 0.66043(11)
C8_21 C 0.92910(27) 0.57035(19) 0.67843(9)
C9_21 C 0.98291(24) 0.62864(18) 0.67569(9)
C14_19 C 0.98507(25) 0.67837(19) 0.68886(10)
H7_19 H 0.95013(25) 0.67485(19) 0.69812(10)
H10_19 H 0.9996(9) 0.7827(8) 0.7035(8)
C16_19 C 0.9995(4) 0.5642(2) 0.61921(12)
H12_19 H 0.9585(23) 0.5345(14) 0.62435(13)
S1_22 S 0.17580(9) 0.65946(6) 0.82306(3)
C1_22 C 0.08009(28) 0.4503(2) 0.77716(10)
H1_22 H 0.04633(28) 0.4175(2) 0.76786(10)
C2_18 C 0.1307(3) 0.4461(2) 0.78226(11)
H2_18 H 0.1307(3) 0.4105(2) 0.77721(11)
C3_18 C 0.1801(4) 0.4933(3) 0.79454(14)
H3_18 H 0.2153(4) 0.4916(3) 0.79782(14)
C4_22 C 0.1780(4) 0.5439(3) 0.80215(12)
H4_22 H 0.2122(4) 0.5779(3) 0.81034(12)
C5_22 C 0.12595(28) 0.5445(2) 0.79771(9)
C6_22 C 0.11902(25) 0.59399(18) 0.80864(9)
C7_22 C 0.1273(3) 0.6827(2) 0.83041(11)
H5_20 H 0.1378(3) 0.7201(2) 0.83957(11)
C8_22 C 0.07090(27) 0.64125(19) 0.82157(9)
C9_22 C 0.01709(24) 0.64573(16) 0.82431(9)
C14_20 C 0.01493(25) 0.69330(17) 0.81114(10)
H7_20 H 0.04987(25) 0.72472(17) 0.80188(10)
H10_20 H 0.0004(9) 0.7831(4) 0.7965(8)
C16_20 C 0.0005(4) 0.5647(3) 0.88079(12)
H12_20 H 0.0415(23) 0.5760(18) 0.87565(13)
N3_22 N 0.81777(17) 0.56751(12) 0.86570(7)
N4_22 N 0.72637(17) 0.57531(12) 0.89511(6)
O1_20 O 0.96706(17) 0.55216(12) 0.85191(6)
S2_22 S 0.77532(6) 0.45695(4) 0.87349(3)
C10_20 C 0.96693(23) 0.60079(16) 0.83903(8)
C11_22 C 0.91450(23) 0.60278(15) 0.83948(8)
C12_20 C 0.91404(23) 0.65127(16) 0.82505(8)
H6_20 H 0.87828(23) 0.65265(16) 0.82502(8)
C13_20 C 0.96356(25) 0.69669(16) 0.81099(9)
C15_20 C 0.9613(3) 0.7474(2) 0.79535(12)
H8_20 H 0.9322(11) 0.7544(11) 0.8065(6)
H9_20 H 0.9496(11) 0.7377(7) 0.7729(3)
H11_20 H 0.9999(13) 0.5973(12) 0.8921(5)
H13_20 H 0.9831(18) 0.5293(6) 0.8944(4)
C17_22 C 0.85961(21) 0.55489(15) 0.85439(8)
C18_20 C 0.84302(23) 0.49677(16) 0.85677(10)
H14_20 H 0.86661(23) 0.48045(16) 0.84988(10)
C19_22 C 0.77119(21) 0.52050(15) 0.87672(9)
C20_22 C 0.71947(21) 0.52181(15) 0.88985(8)
C21_22 C 0.66697(25) 0.46956(17) 0.89627(10)
H15_18 H 0.66401(25) 0.43207(17) 0.89302(10)
C22_18 C 0.61904(28) 0.47364(19) 0.90755(11)
H16_18 H 0.58233(28) 0.43883(19) 0.91208(11)
C23_18 C 0.62522(26) 0.52879(19) 0.91207(9)
H17_18 H 0.59277(26) 0.53275(19) 0.91928(9)
C24_22 C 0.67959(23) 0.57827(16) 0.90592(9)
H18_22 H 0.68398(23) 0.61627(16) 0.90955(9)
N3_23 N 0.74974(12) 0.18223(17) 0.86570(7)
N4_23 N 0.84894(12) 0.27363(17) 0.89511(6)
O1_21 O 0.58510(12) 0.03294(17) 0.85191(6)
S2_23 S 0.68163(4) 0.22468(6) 0.87349(3)
C10_21 C 0.63386(17) 0.03307(23) 0.83903(8)
C11_23 C 0.68828(17) 0.08550(23) 0.83948(8)
C12_21 C 0.73723(17) 0.08596(23) 0.82505(8)
H6_21 H 0.77437(17) 0.12172(23) 0.82502(8)
C13_21 C 0.73313(19) 0.03644(25) 0.81099(9)
C15_21 C 0.7861(2) 0.0387(3) 0.79535(12)
H8_21 H 0.8222(2) 0.0678(11) 0.8065(6)
H9_21 H 0.7881(9) 0.0504(11) 0.7729(3)
H11_21 H 0.5974(4) 0.0001(13) 0.8921(5)
H13_21 H 0.5462(17) 0.0169(18) 0.8944(4)
C17_23 C 0.69528(15) 0.14039(21) 0.85439(8)
C18_21 C 0.65375(17) 0.15698(23) 0.85677(10)
H14_21 H 0.61384(17) 0.13339(23) 0.84988(10)
C19_23 C 0.74931(15) 0.22881(21) 0.87672(9)
C20_23 C 0.80234(15) 0.28053(21) 0.88985(8)
C21_23 C 0.80259(19) 0.33303(25) 0.89627(10)
H15_19 H 0.76806(19) 0.33599(25) 0.89302(10)
C22_19 C 0.8546(2) 0.38096(28) 0.90755(11)
H16_19 H 0.8565(2) 0.41767(28) 0.91208(11)
C23_19 C 0.90357(18) 0.37478(26) 0.91207(9)
H17_19 H 0.93998(18) 0.40723(26) 0.91928(9)
C24_23 C 0.89868(16) 0.32041(23) 0.90592(9)
H18_23 H 0.93229(16) 0.31602(23) 0.90955(9)
S1_23 S 0.48366(7) 0.82420(9) 0.82306(3)
C1_23 C 0.37021(19) 0.91991(28) 0.77716(10)
H1_23 H 0.37117(19) 0.95367(28) 0.76786(10)
C2_19 C 0.3154(2) 0.8693(3) 0.78226(11)
H2_19 H 0.2798(2) 0.8693(3) 0.77721(11)
C3_19 C 0.3132(2) 0.8199(4) 0.79454(14)
H3_19 H 0.2763(2) 0.7847(4) 0.79782(14)
C4_23 C 0.3659(2) 0.8220(4) 0.80215(12)
H4_23 H 0.3657(2) 0.7878(4) 0.81034(12)
C5_23 C 0.41855(19) 0.87405(28) 0.79771(9)
C6_23 C 0.47497(18) 0.88098(25) 0.80864(9)
C7_23 C 0.5554(2) 0.8727(3) 0.83041(11)
H5_21 H 0.5823(2) 0.8622(3) 0.83957(11)
C8_23 C 0.57035(19) 0.92910(27) 0.82157(9)
C9_23 C 0.62864(18) 0.98291(24) 0.82431(9)
C14_21 C 0.67837(19) 0.98507(25) 0.81114(10)
H7_21 H 0.67485(19) 0.95013(25) 0.80188(10)
H10_21 H 0.7827(8) 0.9996(9) 0.7965(8)
C16_21 C 0.5642(2) 0.9995(4) 0.88079(12)
H12_21 H 0.5345(14) 0.9585(23) 0.87565(13)
N3_24 N 0.43249(12) 0.25026(12) 0.86570(7)
N4_24 N 0.42469(12) 0.15106(12) 0.89511(6)
O1_22 O 0.44784(12) 0.41490(12) 0.85191(6)
S1_24 S 0.34054(6) 0.51634(7) 0.82306(3)
S2_24 S 0.54305(4) 0.31837(4) 0.87349(3)
C1_24 C 0.5497(2) 0.62979(19) 0.77716(10)
H1_24 H 0.5825(2) 0.62883(19) 0.76786(10)
C2_20 C 0.5539(2) 0.6846(2) 0.78226(11)
H2_20 H 0.5895(2) 0.7202(2) 0.77721(11)
C3_20 C 0.5067(3) 0.6868(2) 0.79454(14)
H3_20 H 0.5084(3) 0.7237(2) 0.79782(14)
C4_24 C 0.4561(3) 0.6341(2) 0.80215(12)
H4_24 H 0.4221(3) 0.6343(2) 0.81034(12)
C5_24 C 0.4555(2) 0.58145(19) 0.79771(9)
C6_24 C 0.40601(18) 0.52503(18) 0.80864(9)
C7_24 C 0.3173(2) 0.4446(2) 0.83041(11)
H5_22 H 0.2799(2) 0.4177(2) 0.83957(11)
C8_24 C 0.35875(19) 0.42965(19) 0.82157(9)
C9_24 C 0.35427(16) 0.37136(18) 0.82431(9)
C10_22 C 0.39921(16) 0.36614(17) 0.83903(8)
C11_24 C 0.39722(15) 0.31172(17) 0.83948(8)
C12_22 C 0.34873(16) 0.26277(17) 0.82505(8)
H6_22 H 0.34735(16) 0.22563(17) 0.82502(8)
C13_22 C 0.30331(16) 0.26687(19) 0.81099(9)
C14_22 C 0.30670(17) 0.32163(19) 0.81114(10)
H7_22 H 0.27528(17) 0.32515(19) 0.80188(10)
C15_22 C 0.2526(2) 0.2139(2) 0.79535(12)
H8_22 H 0.2456(11) 0.1778(2) 0.8065(6)
H9_22 H 0.2623(7) 0.2119(9) 0.7729(3)
H10_22 H 0.2169(4) 0.2173(8) 0.7965(8)
C16_22 C 0.4353(3) 0.4358(2) 0.88079(12)
H11_22 H 0.4027(12) 0.4026(4) 0.8921(5)
H12_22 H 0.4240(18) 0.4655(14) 0.87565(13)
H13_22 H 0.4707(6) 0.4538(17) 0.8944(4)
C17_24 C 0.44511(15) 0.30472(15) 0.85439(8)
C18_22 C 0.50323(16) 0.34625(17) 0.85677(10)
H14_22 H 0.51955(16) 0.38616(17) 0.84988(10)
C19_24 C 0.47950(15) 0.25069(15) 0.87672(9)
C20_24 C 0.47819(15) 0.19766(15) 0.88985(8)
C21_24 C 0.53044(17) 0.19741(19) 0.89627(10)
H15_20 H 0.56793(17) 0.23194(19) 0.89302(10)
C22_20 C 0.52636(19) 0.1454(2) 0.90755(11)
H16_20 H 0.56117(19) 0.1435(2) 0.91208(11)
C23_20 C 0.47121(19) 0.09643(18) 0.91207(9)
H17_20 H 0.46725(19) 0.06002(18) 0.91928(9)
C24_24 C 0.42173(16) 0.10132(16) 0.90592(9)
H18_24 H 0.38373(16) 0.06771(16) 0.90955(9)
S1_25 S 0.18301(7) 0.67387(6) 0.01027(3)
C1_25 C 0.29646(19) 0.8830(2) 0.05617(10)
H1_25 H 0.29550(19) 0.9158(2) 0.06547(10)
C2_21 C 0.3513(2) 0.8872(2) 0.05107(11)
H2_21 H 0.3869(2) 0.9228(2) 0.05612(11)
C3_21 C 0.3535(2) 0.8400(3) 0.03879(14)
H3_21 H 0.3904(2) 0.8417(3) 0.03551(14)
C4_25 C 0.3008(2) 0.7894(3) 0.03118(12)
H4_25 H 0.3010(2) 0.7554(3) 0.02299(12)
C5_25 C 0.24812(19) 0.7888(2) 0.03562(9)
C6_25 C 0.19170(18) 0.73934(18) 0.02469(9)
C7_25 C 0.1113(2) 0.6506(2) 0.00292(11)
C8_25 C 0.09632(19) 0.69208(19) 0.01176(9)
C9_25 C 0.03803(18) 0.68760(16) 0.00902(9)
N3_25 N 0.91693(12) 0.76582(12) 0.96763(7)
N4_25 N 0.81773(12) 0.75802(12) 0.93822(6)
S2_25 S 0.98504(4) 0.87638(4) 0.95984(3)
C11_25 C 0.97839(17) 0.73055(15) 0.99385(8)
C17_25 C 0.97139(15) 0.77844(15) 0.97894(8)
C19_25 C 0.91736(15) 0.81283(15) 0.95661(9)
C20_25 C 0.86433(15) 0.81152(15) 0.94348(8)
C21_25 C 0.86408(19) 0.86377(17) 0.93706(10)
H15_21 H 0.89861(19) 0.90126(17) 0.94031(10)
C22_21 C 0.8121(2) 0.85969(19) 0.92578(11)
H16_21 H 0.8102(2) 0.89450(19) 0.92125(11)
C23_21 C 0.76310(18) 0.80454(19) 0.92126(9)
H17_21 H 0.72669(18) 0.80058(19) 0.91405(9)
C24_25 C 0.76799(16) 0.75506(16) 0.92741(9)
H18_25 H 0.73438(16) 0.71706(16) 0.92378(9)
S1_26 S 0.32613(6) 0.50913(9) 0.01027(3)
C1_26 C 0.1170(2) 0.41342(28) 0.05617(10)
H1_26 H 0.0842(2) 0.37966(28) 0.06547(10)
C2_22 C 0.1128(2) 0.4640(3) 0.05107(11)
H2_22 H 0.0772(2) 0.4640(3) 0.05612(11)
C3_22 C 0.1600(3) 0.5134(4) 0.03879(14)
H3_22 H 0.1583(3) 0.5486(4) 0.03551(14)
C4_26 C 0.2106(3) 0.5113(4) 0.03118(12)
H4_26 H 0.2446(3) 0.5455(4) 0.02299(12)
C5_26 C 0.2112(2) 0.45928(28) 0.03562(9)
C6_26 C 0.26066(18) 0.45235(25) 0.02469(9)
C7_26 C 0.3494(2) 0.4606(3) 0.00292(11)
C8_26 C 0.30792(19) 0.40423(27) 0.01176(9)
C9_26 C 0.31240(16) 0.35042(24) 0.00902(9)
C12_23 C 0.31794(16) 0.24737(23) 0.00828(8)
H6_23 H 0.31932(16) 0.21161(23) 0.00831(8)
C13_23 C 0.36336(16) 0.29689(25) 0.02234(9)
C14_23 C 0.35997(17) 0.34826(25) 0.02219(10)
H7_23 H 0.39139(17) 0.38320(25) 0.03145(10)
C15_23 C 0.4141(2) 0.2946(3) 0.03798(12)
H8_23 H 0.4211(11) 0.2655(11) 0.0268(6)
H9_23 H 0.4044(7) 0.2829(11) 0.0604(3)
H10_23 H 0.4498(4) 0.3337(9) 0.0368(8)
N3_26 N 0.23418(12) 0.15110(17) 0.96763(7)
N4_26 N 0.24198(12) 0.05970(17) 0.93822(6)
O1_23 O 0.21883(12) 0.30039(17) 0.98142(6)
S2_26 S 0.12362(4) 0.10865(6) 0.95984(3)
H5_23 H 0.3868(2) 0.4711(3) 0.99376(11)
C10_23 C 0.26746(16) 0.30026(23) 0.99430(8)
C11_26 C 0.26945(15) 0.24783(23) 0.99385(8)
C16_23 C 0.2314(3) 0.3338(4) 0.95254(12)
H11_23 H 0.2640(12) 0.3332(13) 0.9412(5)
H12_23 H 0.2427(18) 0.3748(23) 0.95768(13)
H13_23 H 0.1960(6) 0.3164(18) 0.9389(4)
C17_26 C 0.22156(15) 0.19294(21) 0.97894(8)
C18_23 C 0.16344(16) 0.17635(23) 0.97656(10)
H14_23 H 0.14712(16) 0.19994(23) 0.98345(10)
C19_26 C 0.18717(15) 0.10452(21) 0.95661(9)
C20_26 C 0.18848(15) 0.05280(21) 0.94348(8)
C21_26 C 0.13623(17) 0.00030(25) 0.93706(10)
C24_26 C 0.24494(16) 0.01292(23) 0.92741(9)
H18_26 H 0.28294(16) 0.01731(23) 0.92378(9)
N3_27 N 0.84890(17) 0.08307(12) 0.96763(7)
N4_27 N 0.94030(17) 0.18227(12) 0.93822(6)
S2_27 S 0.89135(6) 0.01496(4) 0.95984(3)
C11_27 C 0.75217(23) 0.02161(17) 0.99385(8)
C17_27 C 0.80706(21) 0.02861(15) 0.97894(8)
C19_27 C 0.89548(21) 0.08264(15) 0.95661(9)
C20_27 C 0.94720(21) 0.13567(15) 0.94348(8)
C21_27 C 0.99970(25) 0.13592(19) 0.93706(10)
C24_27 C 0.98708(23) 0.23201(16) 0.92741(9)
H18_27 H 0.98269(23) 0.26562(16) 0.92378(9)
S1_27 S 0.49087(9) 0.81699(7) 0.01027(3)
C1_27 C 0.58658(28) 0.70354(19) 0.05617(10)
H1_27 H 0.62034(28) 0.70450(19) 0.06547(10)
C2_23 C 0.5360(3) 0.6487(2) 0.05107(11)
H2_23 H 0.5360(3) 0.6131(2) 0.05612(11)
C3_23 C 0.4866(4) 0.6465(2) 0.03879(14)
H3_23 H 0.4514(4) 0.6096(2) 0.03551(14)
C4_27 C 0.4887(4) 0.6992(2) 0.03118(12)
H4_27 H 0.4545(4) 0.6990(2) 0.02299(12)
C5_27 C 0.54072(28) 0.75188(19) 0.03562(9)
C6_27 C 0.54765(25) 0.80830(18) 0.02469(9)
C7_27 C 0.5394(3) 0.8887(2) 0.00292(11)
C8_27 C 0.59577(27) 0.90368(19) 0.01176(9)
C9_27 C 0.64958(24) 0.96197(18) 0.00902(9)
C7_28 C 0.7940(3) 0.0160(2) 0.16374(11)
H5_24 H 0.8045(3) 0.0534(2) 0.17290(11)
C13_24 C 0.63023(25) 0.03002(16) 0.14432(9)
C14_24 C 0.68160(25) 0.02663(17) 0.14447(10)
H7_24 H 0.71654(25) 0.05805(17) 0.13521(10)
C15_24 C 0.6280(3) 0.0807(2) 0.12868(12)
H8_24 H 0.5989(11) 0.0877(11) 0.1398(6)
H9_24 H 0.6163(11) 0.0710(7) 0.1062(3)
H10_24 H 0.6671(9) 0.1164(4) 0.1298(8)
N3_28 N 0.48444(17) 0.90084(12) 0.19903(7)
N4_28 N 0.39304(17) 0.90864(12) 0.22844(6)
O1_24 O 0.63373(17) 0.88549(12) 0.18524(6)
S1_28 S 0.84247(9) 0.99279(6) 0.15639(3)
S2_28 S 0.44199(6) 0.79028(4) 0.20682(3)
C1_28 C 0.74676(28) 0.7836(2) 0.11049(10)
H1_28 H 0.71300(28) 0.7508(2) 0.10119(10)
C2_24 C 0.7974(3) 0.7794(2) 0.11559(11)
H2_24 H 0.7974(3) 0.7438(2) 0.11054(11)
C3_24 C 0.8468(4) 0.8266(3) 0.12787(14)
H3_24 H 0.8820(4) 0.8249(3) 0.13115(14)
C4_28 C 0.8447(4) 0.8772(3) 0.13548(12)
H4_28 H 0.8789(4) 0.9112(3) 0.14367(12)
C5_28 C 0.79262(28) 0.8778(2) 0.13104(9)
C6_28 C 0.78569(25) 0.92732(18) 0.14197(9)
C8_28 C 0.73757(27) 0.97458(19) 0.15490(9)
C9_28 C 0.68376(24) 0.97906(16) 0.15764(9)
C10_24 C 0.63360(23) 0.93412(16) 0.17236(8)
C11_28 C 0.58117(23) 0.93611(15) 0.17281(8)
C12_24 C 0.58071(23) 0.98460(16) 0.15838(8)
H6_24 H 0.54495(23) 0.98598(16) 0.15835(8)
C16_24 C 0.6672(4) 0.8980(3) 0.21412(12)
H11_24 H 0.6666(13) 0.9306(12) 0.2254(5)
H12_24 H 0.7082(23) 0.9093(18) 0.20898(13)
H13_24 H 0.6498(18) 0.8626(6) 0.2277(4)
C17_28 C 0.52628(21) 0.88822(15) 0.18772(8)
C18_24 C 0.50969(23) 0.83010(16) 0.19010(10)
H14_24 H 0.53328(23) 0.81378(16) 0.18321(10)
C19_28 C 0.43786(21) 0.85383(15) 0.21005(9)
C20_28 C 0.38614(21) 0.85514(15) 0.22318(8)
C21_28 C 0.33364(25) 0.80289(17) 0.22960(10)
H15_22 H 0.33068(25) 0.76540(17) 0.22635(10)
C22_22 C 0.28571(28) 0.80697(19) 0.24088(11)
H16_22 H 0.24900(28) 0.77216(19) 0.24541(11)
C23_22 C 0.29189(26) 0.86212(19) 0.24540(9)
H17_22 H 0.25944(26) 0.86608(19) 0.25261(9)
C24_28 C 0.34626(23) 0.91160(16) 0.23925(9)
H18_28 H 0.35065(23) 0.94960(16) 0.24288(9)
N3_29 N 0.41641(12) 0.51556(17) 0.19903(7)
N4_29 N 0.51561(12) 0.60696(17) 0.22844(6)
O1_25 O 0.25177(12) 0.36627(17) 0.18524(6)
S1_29 S 0.15033(7) 0.15753(9) 0.15639(3)
S2_29 S 0.34830(4) 0.55801(6) 0.20682(3)
C1_29 C 0.03688(19) 0.25324(28) 0.11049(10)
H1_29 H 0.03784(19) 0.28700(28) 0.10119(10)
C4_29 C 0.0326(2) 0.1553(4) 0.13548(12)
H4_29 H 0.0324(2) 0.1211(4) 0.14367(12)
C5_29 C 0.08522(19) 0.20738(28) 0.13104(9)
C6_29 C 0.14164(18) 0.21431(25) 0.14197(9)
C7_29 C 0.2221(2) 0.2060(3) 0.16374(11)
H5_25 H 0.2490(2) 0.1955(3) 0.17290(11)
C8_29 C 0.23702(19) 0.26243(27) 0.15490(9)
C9_29 C 0.29531(18) 0.31624(24) 0.15764(9)
C10_25 C 0.30053(17) 0.36640(23) 0.17236(8)
C11_29 C 0.35495(17) 0.41883(23) 0.17281(8)
C12_25 C 0.40390(17) 0.41929(23) 0.15838(8)
H6_25 H 0.44104(17) 0.45505(23) 0.15835(8)
C13_25 C 0.39980(19) 0.36977(25) 0.14432(9)
C14_25 C 0.34504(19) 0.31840(25) 0.14447(10)
H7_25 H 0.34152(19) 0.28346(25) 0.13521(10)
C15_25 C 0.4528(2) 0.3720(3) 0.12868(12)
H8_25 H 0.4889(2) 0.4011(11) 0.1398(6)
H9_25 H 0.4548(9) 0.3837(11) 0.1062(3)
H10_25 H 0.4494(8) 0.3329(9) 0.1298(8)
C16_25 C 0.2309(2) 0.3328(4) 0.21412(12)
H11_25 H 0.2641(4) 0.3334(13) 0.2254(5)
H12_25 H 0.2012(14) 0.2918(23) 0.20898(13)
H13_25 H 0.2129(17) 0.3502(18) 0.2277(4)
C17_29 C 0.36195(15) 0.47372(21) 0.18772(8)
C18_25 C 0.32042(17) 0.49031(23) 0.19010(10)
H14_25 H 0.28051(17) 0.46672(23) 0.18321(10)
C19_29 C 0.41598(15) 0.56214(21) 0.21005(9)
C20_29 C 0.46901(15) 0.61386(21) 0.22318(8)
C21_29 C 0.46926(19) 0.66636(25) 0.22960(10)
H15_23 H 0.43473(19) 0.66932(25) 0.22635(10)
C22_23 C 0.5213(2) 0.71429(28) 0.24088(11)
H16_23 H 0.5232(2) 0.75100(28) 0.24541(11)
C23_23 C 0.57024(18) 0.70811(26) 0.24540(9)
H17_23 H 0.60665(18) 0.74056(26) 0.25261(9)
C24_29 C 0.56535(16) 0.65374(23) 0.23925(9)
H18_29 H 0.59896(16) 0.64935(23) 0.24288(9)
N3_30 N 0.09916(12) 0.58359(12) 0.19903(7)
N4_30 N 0.09136(12) 0.48439(12) 0.22844(6)
O1_26 O 0.11451(12) 0.74823(12) 0.18524(6)
S1_30 S 0.00721(6) 0.84967(7) 0.15639(3)
S2_30 S 0.20972(4) 0.65170(4) 0.20682(3)
C1_30 C 0.2164(2) 0.96312(19) 0.11049(10)
H1_30 H 0.2492(2) 0.96216(19) 0.10119(10)
C4_30 C 0.1228(3) 0.9674(2) 0.13548(12)
H4_30 H 0.0888(3) 0.9676(2) 0.14367(12)
C5_30 C 0.1222(2) 0.91478(19) 0.13104(9)
C6_30 C 0.07268(18) 0.85836(18) 0.14197(9)
C8_30 C 0.02542(19) 0.76298(19) 0.15490(9)
C9_30 C 0.02094(16) 0.70469(18) 0.15764(9)
C10_26 C 0.06588(16) 0.69947(17) 0.17236(8)
C11_30 C 0.06389(15) 0.64505(17) 0.17281(8)
C12_26 C 0.01540(16) 0.59610(17) 0.15838(8)
H6_26 H 0.01402(16) 0.55896(17) 0.15835(8)
C16_26 C 0.1020(3) 0.7691(2) 0.21412(12)
H11_26 H 0.0694(12) 0.7359(4) 0.2254(5)
H12_26 H 0.0907(18) 0.7988(14) 0.20898(13)
H13_26 H 0.1374(6) 0.7871(17) 0.2277(4)
C17_30 C 0.11178(15) 0.63805(15) 0.18772(8)
C18_26 C 0.16990(16) 0.67958(17) 0.19010(10)
H14_26 H 0.18622(16) 0.71949(17) 0.18321(10)
C19_30 C 0.14617(15) 0.58402(15) 0.21005(9)
C20_30 C 0.14486(15) 0.53099(15) 0.22318(8)
C21_30 C 0.19711(17) 0.53074(19) 0.22960(10)
H15_24 H 0.23460(17) 0.56527(19) 0.22635(10)
C22_24 C 0.19303(19) 0.4787(2) 0.24088(11)
H16_24 H 0.22784(19) 0.4768(2) 0.24541(11)
C23_24 C 0.13788(19) 0.42976(18) 0.24540(9)
H17_24 H 0.13392(19) 0.39335(18) 0.25261(9)
C24_30 C 0.08840(16) 0.43465(16) 0.23925(9)
H18_30 H 0.05040(16) 0.40104(16) 0.24288(9)
C7_30 C 0.9840(2) 0.7779(2) 0.16374(11)
H5_26 H 0.9466(2) 0.7510(2) 0.17290(11)
C13_26 C 0.96998(16) 0.60020(19) 0.14432(9)
C14_26 C 0.97337(17) 0.65496(19) 0.14447(10)
H7_26 H 0.94195(17) 0.65848(19) 0.13521(10)
C15_26 C 0.9193(2) 0.5472(2) 0.12868(12)
H8_26 H 0.9123(11) 0.5111(2) 0.1398(6)
H9_26 H 0.9290(7) 0.5452(9) 0.1062(3)
H10_26 H 0.8836(4) 0.5506(8) 0.1298(8)
N3_31 N 0.58359(12) 0.09916(12) 0.30097(7)
N4_31 N 0.48439(12) 0.09136(12) 0.27156(6)
O1_27 O 0.74823(12) 0.11451(12) 0.31476(6)
S1_31 S 0.84967(7) 0.00721(6) 0.34361(3)
S2_31 S 0.65170(4) 0.20972(4) 0.29318(3)
C1_31 C 0.96312(19) 0.2164(2) 0.38951(10)
H1_31 H 0.96216(19) 0.2492(2) 0.39881(10)
C4_31 C 0.9674(2) 0.1228(3) 0.36452(12)
H4_31 H 0.9676(2) 0.0888(3) 0.35633(12)
C5_31 C 0.91478(19) 0.1222(2) 0.36896(9)
C6_31 C 0.85836(18) 0.07268(18) 0.35803(9)
C8_31 C 0.76298(19) 0.02542(19) 0.34510(9)
C9_31 C 0.70469(18) 0.02094(16) 0.34236(9)
C10_27 C 0.69947(17) 0.06588(16) 0.32764(8)
C11_31 C 0.64505(17) 0.06389(15) 0.32719(8)
C12_27 C 0.59610(17) 0.01540(16) 0.34162(8)
H6_27 H 0.55896(17) 0.01402(16) 0.34165(8)
C16_27 C 0.7691(2) 0.1020(3) 0.28588(12)
H11_27 H 0.7359(4) 0.0694(12) 0.2746(5)
H12_27 H 0.7988(14) 0.0907(18) 0.29102(13)
H13_27 H 0.7871(17) 0.1374(6) 0.2723(4)
C17_31 C 0.63805(15) 0.11178(15) 0.31228(8)
C18_27 C 0.67958(17) 0.16990(16) 0.30990(10)
H14_27 H 0.71949(17) 0.18622(16) 0.31679(10)
C19_31 C 0.58402(15) 0.14617(15) 0.28995(9)
C20_31 C 0.53099(15) 0.14486(15) 0.27682(8)
C21_31 C 0.53074(19) 0.19711(17) 0.27040(10)
H15_25 H 0.56527(19) 0.23460(17) 0.27365(10)
C22_25 C 0.4787(2) 0.19303(19) 0.25912(11)
H16_25 H 0.4768(2) 0.22784(19) 0.25459(11)
C23_25 C 0.42976(18) 0.13788(19) 0.25460(9)
H17_25 H 0.39335(18) 0.13392(19) 0.24739(9)
C24_31 C 0.43465(16) 0.08840(16) 0.26075(9)
H18_31 H 0.40104(16) 0.05040(16) 0.25712(9)
C7_31 C 0.7779(2) 0.9840(2) 0.33626(11)
H5_27 H 0.7510(2) 0.9466(2) 0.32710(11)
C13_27 C 0.60020(19) 0.96998(16) 0.35568(9)
C14_27 C 0.65496(19) 0.97337(17) 0.35553(10)
H7_27 H 0.65848(19) 0.94195(17) 0.36479(10)
C15_27 C 0.5472(2) 0.9193(2) 0.37132(12)
H8_27 H 0.5111(2) 0.9123(11) 0.3602(6)
H9_27 H 0.5452(9) 0.9290(7) 0.3938(3)
H10_27 H 0.5506(8) 0.8836(4) 0.3702(8)
C7_32 C 0.0160(2) 0.7940(3) 0.33626(11)
H5_28 H 0.0534(2) 0.8045(3) 0.32710(11)
C13_28 C 0.03002(16) 0.63023(25) 0.35568(9)
C14_28 C 0.02663(17) 0.68160(25) 0.35553(10)
H7_28 H 0.05805(17) 0.71654(25) 0.36479(10)
C15_28 C 0.0807(2) 0.6280(3) 0.37132(12)
H8_28 H 0.0877(11) 0.5989(11) 0.3602(6)
H9_28 H 0.0710(7) 0.6163(11) 0.3938(3)
H10_28 H 0.1164(4) 0.6671(9) 0.3702(8)
N3_32 N 0.90084(12) 0.48444(17) 0.30097(7)
N4_32 N 0.90864(12) 0.39304(17) 0.27156(6)
O1_28 O 0.88549(12) 0.63373(17) 0.31476(6)
S1_32 S 0.99279(6) 0.84247(9) 0.34361(3)
S2_32 S 0.79028(4) 0.44199(6) 0.29318(3)
C1_32 C 0.7836(2) 0.74676(28) 0.38951(10)
H1_32 H 0.7508(2) 0.71300(28) 0.39881(10)
C2_25 C 0.7794(2) 0.7974(3) 0.38441(11)
H2_25 H 0.7438(2) 0.7974(3) 0.38946(11)
C3_25 C 0.8266(3) 0.8468(4) 0.37213(14)
H3_25 H 0.8249(3) 0.8820(4) 0.36885(14)
C4_32 C 0.8772(3) 0.8447(4) 0.36452(12)
H4_32 H 0.9112(3) 0.8789(4) 0.35633(12)
C5_32 C 0.8778(2) 0.79262(28) 0.36896(9)
C6_32 C 0.92732(18) 0.78569(25) 0.35803(9)
C8_32 C 0.97458(19) 0.73757(27) 0.34510(9)
C9_32 C 0.97906(16) 0.68376(24) 0.34236(9)
C10_28 C 0.93412(16) 0.63360(23) 0.32764(8)
C11_32 C 0.93611(15) 0.58117(23) 0.32719(8)
C12_28 C 0.98460(16) 0.58071(23) 0.34162(8)
H6_28 H 0.98598(16) 0.54495(23) 0.34165(8)
C16_28 C 0.8980(3) 0.6672(4) 0.28588(12)
H11_28 H 0.9306(12) 0.6666(13) 0.2746(5)
H12_28 H 0.9093(18) 0.7082(23) 0.29102(13)
H13_28 H 0.8626(6) 0.6498(18) 0.2723(4)
C17_32 C 0.88822(15) 0.52628(21) 0.31228(8)
C18_28 C 0.83010(16) 0.50969(23) 0.30990(10)
H14_28 H 0.81378(16) 0.53328(23) 0.31679(10)
C19_32 C 0.85383(15) 0.43786(21) 0.28995(9)
C20_32 C 0.85514(15) 0.38614(21) 0.27682(8)
C21_32 C 0.80289(17) 0.33364(25) 0.27040(10)
H15_26 H 0.76540(17) 0.33068(25) 0.27365(10)
C22_26 C 0.80697(19) 0.28571(28) 0.25912(11)
H16_26 H 0.77216(19) 0.24900(28) 0.25459(11)
C23_26 C 0.86212(19) 0.29189(26) 0.25460(9)
H17_26 H 0.86608(19) 0.25944(26) 0.24739(9)
C24_32 C 0.91160(16) 0.34626(23) 0.26075(9)
H18_32 H 0.94960(16) 0.35065(23) 0.25712(9)
N3_33 N 0.51556(17) 0.41641(12) 0.30097(7)
N4_33 N 0.60696(17) 0.51561(12) 0.27156(6)
O1_29 O 0.36627(17) 0.25177(12) 0.31476(6)
S1_33 S 0.15753(9) 0.15033(7) 0.34361(3)
S2_33 S 0.55801(6) 0.34830(4) 0.29318(3)
C1_33 C 0.25324(28) 0.03688(19) 0.38951(10)
H1_33 H 0.28700(28) 0.03784(19) 0.39881(10)
C4_33 C 0.1553(4) 0.0326(2) 0.36452(12)
H4_33 H 0.1211(4) 0.0324(2) 0.35633(12)
C5_33 C 0.20738(28) 0.08522(19) 0.36896(9)
C6_33 C 0.21431(25) 0.14164(18) 0.35803(9)
C7_33 C 0.2060(3) 0.2221(2) 0.33626(11)
H5_29 H 0.1955(3) 0.2490(2) 0.32710(11)
C8_33 C 0.26243(27) 0.23702(19) 0.34510(9)
C9_33 C 0.31624(24) 0.29531(18) 0.34236(9)
C10_29 C 0.36640(23) 0.30053(17) 0.32764(8)
C11_33 C 0.41883(23) 0.35495(17) 0.32719(8)
C12_29 C 0.41929(23) 0.40390(17) 0.34162(8)
H6_29 H 0.45505(23) 0.44104(17) 0.34165(8)
C13_29 C 0.36977(25) 0.39980(19) 0.35568(9)
C14_29 C 0.31840(25) 0.34504(19) 0.35553(10)
H7_29 H 0.28346(25) 0.34152(19) 0.36479(10)
C15_29 C 0.3720(3) 0.4528(2) 0.37132(12)
H8_29 H 0.4011(11) 0.4889(2) 0.3602(6)
H9_29 H 0.3837(11) 0.4548(9) 0.3938(3)
H10_29 H 0.3329(9) 0.4494(8) 0.3702(8)
C16_29 C 0.3328(4) 0.2309(2) 0.28588(12)
H11_29 H 0.3334(13) 0.2641(4) 0.2746(5)
H12_29 H 0.2918(23) 0.2012(14) 0.29102(13)
H13_29 H 0.3502(18) 0.2129(17) 0.2723(4)
C17_33 C 0.47372(21) 0.36195(15) 0.31228(8)
C18_29 C 0.49031(23) 0.32042(17) 0.30990(10)
H14_29 H 0.46672(23) 0.28051(17) 0.31679(10)
C19_33 C 0.56214(21) 0.41598(15) 0.28995(9)
C20_33 C 0.61386(21) 0.46901(15) 0.27682(8)
C21_33 C 0.66636(25) 0.46926(19) 0.27040(10)
H15_27 H 0.66932(25) 0.43473(19) 0.27365(10)
C22_27 C 0.71429(28) 0.5213(2) 0.25912(11)
H16_27 H 0.75100(28) 0.5232(2) 0.25459(11)
C23_27 C 0.70811(26) 0.57024(18) 0.25460(9)
H17_27 H 0.74056(26) 0.60665(18) 0.24739(9)
C24_33 C 0.65374(23) 0.56535(16) 0.26075(9)
H18_33 H 0.64935(23) 0.59896(16) 0.25712(9)
N3_34 N 0.15110(17) 0.23418(12) 0.53237(7)
N4_34 N 0.05970(17) 0.24198(12) 0.56178(6)
O1_30 O 0.30039(17) 0.21883(12) 0.51858(6)
S1_34 S 0.50913(9) 0.32613(6) 0.48973(3)
S2_34 S 0.10865(6) 0.12362(4) 0.54016(3)
C1_34 C 0.41342(28) 0.1170(2) 0.44383(10)
H1_34 H 0.37966(28) 0.0842(2) 0.43453(10)
C2_26 C 0.4640(3) 0.1128(2) 0.44893(11)
H2_26 H 0.4640(3) 0.0772(2) 0.44388(11)
C3_26 C 0.5134(4) 0.1600(3) 0.46121(14)
H3_26 H 0.5486(4) 0.1583(3) 0.46449(14)
C4_34 C 0.5113(4) 0.2106(3) 0.46882(12)
H4_34 H 0.5455(4) 0.2446(3) 0.47701(12)
C5_34 C 0.45928(28) 0.2112(2) 0.46438(9)
C6_34 C 0.45235(25) 0.26066(18) 0.47531(9)
C7_34 C 0.4606(3) 0.3494(2) 0.49708(11)
H5_30 H 0.4711(3) 0.3868(2) 0.50624(11)
C8_34 C 0.40423(27) 0.30792(19) 0.48824(9)
C9_34 C 0.35042(24) 0.31240(16) 0.49098(9)
C10_30 C 0.30026(23) 0.26746(16) 0.50570(8)
C11_34 C 0.24783(23) 0.26945(15) 0.50615(8)
C12_30 C 0.24737(23) 0.31794(16) 0.49172(8)
H6_30 H 0.21161(23) 0.31932(16) 0.49169(8)
C13_30 C 0.29689(25) 0.36336(16) 0.47766(9)
C14_30 C 0.34826(25) 0.35997(17) 0.47781(10)
H7_30 H 0.38320(25) 0.39139(17) 0.46855(10)
C15_30 C 0.2946(3) 0.4141(2) 0.46202(12)
H8_30 H 0.2655(11) 0.4211(11) 0.4732(6)
H9_30 H 0.2829(11) 0.4044(7) 0.4396(3)
H10_30 H 0.3337(9) 0.4498(4) 0.4632(8)
C16_30 C 0.3338(4) 0.2314(3) 0.54746(12)
H11_30 H 0.3332(13) 0.2640(12) 0.5588(5)
H12_30 H 0.3748(23) 0.2427(18) 0.54232(13)
H13_30 H 0.3164(18) 0.1960(6) 0.5611(4)
C17_34 C 0.19294(21) 0.22156(15) 0.52106(8)
C18_30 C 0.17635(23) 0.16344(16) 0.52344(10)
H14_30 H 0.19994(23) 0.14712(16) 0.51655(10)
C19_34 C 0.10452(21) 0.18717(15) 0.54339(9)
C20_34 C 0.05280(21) 0.18848(15) 0.55652(8)
C21_34 C 0.00030(25) 0.13623(17) 0.56294(10)
C24_34 C 0.01292(23) 0.24494(16) 0.57259(9)
H18_34 H 0.01731(23) 0.28294(16) 0.57622(9)
N3_35 N 0.08307(12) 0.84890(17) 0.53237(7)
N4_35 N 0.18227(12) 0.94030(17) 0.56178(6)
S2_35 S 0.01496(4) 0.89135(6) 0.54016(3)
C11_35 C 0.02161(17) 0.75217(23) 0.50615(8)
C12_31 C 0.07056(17) 0.75263(23) 0.49172(8)
H6_31 H 0.10770(17) 0.78839(23) 0.49169(8)
C13_31 C 0.06646(19) 0.70311(25) 0.47766(9)
C14_31 C 0.01170(19) 0.65174(25) 0.47781(10)
H7_31 H 0.00818(19) 0.61680(25) 0.46855(10)
C15_31 C 0.1194(2) 0.7054(3) 0.46202(12)
H8_31 H 0.1555(2) 0.7345(11) 0.4732(6)
H9_31 H 0.1214(9) 0.7171(11) 0.4396(3)
H10_31 H 0.1160(8) 0.6663(9) 0.4632(8)
C17_35 C 0.02861(15) 0.80706(21) 0.52106(8)
C19_35 C 0.08264(15) 0.89548(21) 0.54339(9)
C20_35 C 0.13567(15) 0.94720(21) 0.55652(8)
C21_35 C 0.13592(19) 0.99970(25) 0.56294(10)
C24_35 C 0.23201(16) 0.98708(23) 0.57259(9)
H18_35 H 0.26562(16) 0.98269(23) 0.57622(9)
O1_31 O 0.91843(12) 0.69961(17) 0.51858(6)
S1_35 S 0.81699(7) 0.49087(9) 0.48973(3)
C1_35 C 0.70354(19) 0.58658(28) 0.44383(10)
H1_35 H 0.70450(19) 0.62034(28) 0.43453(10)
C2_27 C 0.6487(2) 0.5360(3) 0.44893(11)
H2_27 H 0.6131(2) 0.5360(3) 0.44388(11)
C3_27 C 0.6465(2) 0.4866(4) 0.46121(14)
H3_27 H 0.6096(2) 0.4514(4) 0.46449(14)
C4_35 C 0.6992(2) 0.4887(4) 0.46882(12)
H4_35 H 0.6990(2) 0.4545(4) 0.47701(12)
C5_35 C 0.75188(19) 0.54072(28) 0.46438(9)
C6_35 C 0.80830(18) 0.54765(25) 0.47531(9)
C7_35 C 0.8887(2) 0.5394(3) 0.49708(11)
H5_31 H 0.9156(2) 0.5289(3) 0.50624(11)
C8_35 C 0.90368(19) 0.59577(27) 0.48824(9)
C9_35 C 0.96197(18) 0.64958(24) 0.49098(9)
C10_31 C 0.96719(17) 0.69974(23) 0.50570(8)
C16_31 C 0.8975(2) 0.6662(4) 0.54746(12)
H11_31 H 0.9307(4) 0.6668(13) 0.5588(5)
H12_31 H 0.8678(14) 0.6252(23) 0.54232(13)
H13_31 H 0.8795(17) 0.6836(18) 0.5611(4)
C18_31 C 0.98708(17) 0.82365(23) 0.52344(10)
H14_31 H 0.94717(17) 0.80006(23) 0.51655(10)
O1_32 O 0.78117(12) 0.08157(12) 0.51858(6)
S1_36 S 0.67387(6) 0.18301(7) 0.48973(3)
C1_36 C 0.8830(2) 0.29646(19) 0.44383(10)
H1_36 H 0.9158(2) 0.29550(19) 0.43453(10)
C2_28 C 0.8872(2) 0.3513(2) 0.44893(11)
H2_28 H 0.9228(2) 0.3869(2) 0.44388(11)
C3_28 C 0.8400(3) 0.3535(2) 0.46121(14)
H3_28 H 0.8417(3) 0.3904(2) 0.46449(14)
C4_36 C 0.7894(3) 0.3008(2) 0.46882(12)
H4_36 H 0.7554(3) 0.3010(2) 0.47701(12)
C5_36 C 0.7888(2) 0.24812(19) 0.46438(9)
C6_36 C 0.73934(18) 0.19170(18) 0.47531(9)
C7_36 C 0.6506(2) 0.1113(2) 0.49708(11)
H5_32 H 0.6132(2) 0.0844(2) 0.50624(11)
C8_36 C 0.69208(19) 0.09632(19) 0.48824(9)
C9_36 C 0.68760(16) 0.03803(18) 0.49098(9)
C10_32 C 0.73254(16) 0.03281(17) 0.50570(8)
C16_32 C 0.7686(3) 0.1025(2) 0.54746(12)
H11_32 H 0.7360(12) 0.0693(4) 0.5588(5)
H12_32 H 0.7573(18) 0.1322(14) 0.54232(13)
H13_32 H 0.8040(6) 0.1205(17) 0.5611(4)
C18_32 C 0.83656(16) 0.01292(17) 0.52344(10)
H14_32 H 0.85288(16) 0.05283(17) 0.51655(10)
N3_36 N 0.76582(12) 0.91693(12) 0.53237(7)
N4_36 N 0.75802(12) 0.81773(12) 0.56178(6)
S2_36 S 0.87638(4) 0.98504(4) 0.54016(3)
C11_36 C 0.73055(15) 0.97839(17) 0.50615(8)
C12_32 C 0.68206(16) 0.92944(17) 0.49172(8)
H6_32 H 0.68068(16) 0.89230(17) 0.49169(8)
C13_32 C 0.63664(16) 0.93354(19) 0.47766(9)
C14_32 C 0.64003(17) 0.98830(19) 0.47781(10)
H7_32 H 0.60861(17) 0.99182(19) 0.46855(10)
C15_32 C 0.5859(2) 0.8806(2) 0.46202(12)
H8_32 H 0.5789(11) 0.8445(2) 0.4732(6)
H9_32 H 0.5956(7) 0.8786(9) 0.4396(3)
H10_32 H 0.5502(4) 0.8840(8) 0.4632(8)
C17_36 C 0.77844(15) 0.97139(15) 0.52106(8)
C19_36 C 0.81283(15) 0.91736(15) 0.54339(9)
C20_36 C 0.81152(15) 0.86433(15) 0.55652(8)
C21_36 C 0.86377(17) 0.86408(19) 0.56294(10)
H15_28 H 0.90126(17) 0.89861(19) 0.55969(10)
C22_28 C 0.85969(19) 0.8121(2) 0.57422(11)
H16_28 H 0.89450(19) 0.8102(2) 0.57875(11)
C23_28 C 0.80454(19) 0.76310(18) 0.57874(9)
H17_28 H 0.80058(19) 0.72669(18) 0.58595(9)
C24_36 C 0.75506(16) 0.76799(16) 0.57259(9)
H18_36 H 0.71706(16) 0.73438(16) 0.57622(9)
C12_33 C 0.07056(17) 0.31794(16) 0.99172(8)
H6_33 H 0.10770(17) 0.31932(16) 0.99169(8)
C13_33 C 0.06646(19) 0.36336(16) 0.97766(9)
C14_33 C 0.01170(19) 0.35997(17) 0.97781(10)
H7_33 H 0.00818(19) 0.39139(17) 0.96855(10)
C15_33 C 0.1194(2) 0.4141(2) 0.96202(12)
H8_33 H 0.1555(2) 0.4211(11) 0.9732(6)
H9_33 H 0.1214(9) 0.4044(7) 0.9396(3)
H10_33 H 0.1160(8) 0.4498(4) 0.9632(8)
O1_33 O 0.91843(12) 0.21883(12) 0.01858(6)
H5_33 H 0.9156(2) 0.3868(2) 0.00624(11)
C10_33 C 0.96719(17) 0.26746(16) 0.00570(8)
C16_33 C 0.8975(2) 0.2314(3) 0.04746(12)
H11_33 H 0.9307(4) 0.2640(12) 0.0588(5)
H12_33 H 0.8678(14) 0.2427(18) 0.04232(13)
H13_33 H 0.8795(17) 0.1960(6) 0.0611(4)
C18_33 C 0.98708(17) 0.16344(16) 0.02344(10)
H14_33 H 0.94717(17) 0.14712(16) 0.01655(10)
H15_29 H 0.90126(17) 0.00266(25) 0.05969(10)
C22_29 C 0.85969(19) 0.04763(28) 0.07422(11)
H16_29 H 0.89450(19) 0.08434(28) 0.07875(11)
C23_29 C 0.80454(19) 0.04145(26) 0.07874(9)
H17_29 H 0.80058(19) 0.07390(26) 0.08595(9)
O1_34 O 0.30039(17) 0.08157(12) 0.01858(6)
H5_34 H 0.4711(3) 0.0844(2) 0.00624(11)
C10_34 C 0.30026(23) 0.03281(17) 0.00570(8)
C16_34 C 0.3338(4) 0.1025(2) 0.04746(12)
H11_34 H 0.3332(13) 0.0693(4) 0.0588(5)
H12_34 H 0.3748(23) 0.1322(14) 0.04232(13)
H13_34 H 0.3164(18) 0.1205(17) 0.0611(4)
C18_34 C 0.17635(23) 0.01292(17) 0.02344(10)
H14_34 H 0.19994(23) 0.05283(17) 0.01655(10)
C12_34 C 0.24737(23) 0.92944(17) 0.99172(8)
H6_34 H 0.21161(23) 0.89230(17) 0.99169(8)
C13_34 C 0.29689(25) 0.93354(19) 0.97766(9)
C14_34 C 0.34826(25) 0.98830(19) 0.97781(10)
H7_34 H 0.38320(25) 0.99182(19) 0.96855(10)
C15_34 C 0.2946(3) 0.8806(2) 0.96202(12)
H8_34 H 0.2655(11) 0.8445(2) 0.9732(6)
H9_34 H 0.2829(11) 0.8786(9) 0.9396(3)
H10_34 H 0.3337(9) 0.8840(8) 0.9632(8)
H15_30 H 0.99734(25) 0.89861(19) 0.05969(10)
C22_30 C 0.95237(28) 0.8121(2) 0.07422(11)
H16_30 H 0.91566(28) 0.8102(2) 0.07875(11)
C23_30 C 0.95855(26) 0.76310(18) 0.07874(9)
H17_30 H 0.92610(26) 0.72669(18) 0.08595(9)
C2_29 C 0.0179(2) 0.7974(3) 0.88441(11)
H2_29 H 0.0535(2) 0.7974(3) 0.88946(11)
C3_29 C 0.0201(2) 0.8468(4) 0.87213(14)
H3_29 H 0.0570(2) 0.8820(4) 0.86885(14)
C2_30 C 0.7794(2) 0.9821(2) 0.88441(11)
H2_30 H 0.7438(2) 0.9465(2) 0.88946(11)
C3_30 C 0.8266(3) 0.9799(2) 0.87213(14)
H3_30 H 0.8249(3) 0.9430(2) 0.86885(14)
C2_31 C 0.9821(2) 0.7794(2) 0.61559(11)
H2_31 H 0.9465(2) 0.7438(2) 0.61054(11)
C3_31 C 0.9799(2) 0.8266(3) 0.62787(14)
H3_31 H 0.9430(2) 0.8249(3) 0.63115(14)
C2_32 C 0.7974(3) 0.0179(2) 0.61559(11)
H2_32 H 0.7974(3) 0.0535(2) 0.61054(11)
C3_32 C 0.8468(4) 0.0201(2) 0.62787(14)
H3_32 H 0.8820(4) 0.0570(2) 0.63115(14)
H15_31 H 0.00266(25) 0.90126(17) 0.44031(10)
C22_31 C 0.04763(28) 0.85969(19) 0.42578(11)
H16_31 H 0.08434(28) 0.89450(19) 0.42125(11)
C23_31 C 0.04145(26) 0.80454(19) 0.42126(9)
H17_31 H 0.07390(26) 0.80058(19) 0.41405(9)
H15_32 H 0.89861(19) 0.99734(25) 0.44031(10)
C22_32 C 0.8121(2) 0.95237(28) 0.42578(11)
H16_32 H 0.8102(2) 0.91566(28) 0.42125(11)
C23_32 C 0.76310(18) 0.95855(26) 0.42126(9)
H17_32 H 0.72669(18) 0.92610(26) 0.41405(9)
O1_35 O 0.08157(12) 0.78117(12) 0.98142(6)
H5_35 H 0.0844(2) 0.6132(2) 0.99376(11)
C10_35 C 0.03281(17) 0.73254(16) 0.99430(8)
C16_35 C 0.1025(2) 0.7686(3) 0.95254(12)
H11_35 H 0.0693(4) 0.7360(12) 0.9412(5)
H12_35 H 0.1322(14) 0.7573(18) 0.95768(13)
H13_35 H 0.1205(17) 0.8040(6) 0.9389(4)
C18_35 C 0.01292(17) 0.83656(16) 0.97656(10)
H14_35 H 0.05283(17) 0.85288(16) 0.98345(10)
C12_35 C 0.92944(17) 0.68206(16) 0.00828(8)
H6_35 H 0.89230(17) 0.68068(16) 0.00831(8)
C13_35 C 0.93354(19) 0.63664(16) 0.02234(9)
C14_35 C 0.98830(19) 0.64003(17) 0.02219(10)
H7_35 H 0.99182(19) 0.60861(17) 0.03145(10)
C15_35 C 0.8806(2) 0.5859(2) 0.03798(12)
H8_35 H 0.8445(2) 0.5789(11) 0.0268(6)
H9_35 H 0.8786(9) 0.5956(7) 0.0604(3)
H10_35 H 0.8840(8) 0.5502(4) 0.0368(8)
H15_33 H 0.09874(17) 0.99734(25) 0.94031(10)
C22_33 C 0.14031(19) 0.95237(28) 0.92578(11)
H16_33 H 0.10550(19) 0.91566(28) 0.92125(11)
C23_33 C 0.19546(19) 0.95855(26) 0.92126(9)
H17_33 H 0.19942(19) 0.92610(26) 0.91405(9)
H15_34 H 0.00266(25) 0.10139(19) 0.94031(10)
C22_34 C 0.04763(28) 0.1879(2) 0.92578(11)
H16_34 H 0.08434(28) 0.1898(2) 0.92125(11)
C23_34 C 0.04145(26) 0.23690(18) 0.92126(9)
H17_34 H 0.07390(26) 0.27331(18) 0.91405(9)
C12_36 C 0.75263(23) 0.07056(17) 0.00828(8)
H6_36 H 0.78839(23) 0.10770(17) 0.00831(8)
C13_36 C 0.70311(25) 0.06646(19) 0.02234(9)
C14_36 C 0.65174(25) 0.01170(19) 0.02219(10)
H7_36 H 0.61680(25) 0.00818(19) 0.03145(10)
C15_36 C 0.7054(3) 0.1194(2) 0.03798(12)
H8_36 H 0.7345(11) 0.1555(2) 0.0268(6)
H9_36 H 0.7171(11) 0.1214(9) 0.0604(3)
H10_36 H 0.6663(9) 0.1160(8) 0.0368(8)
O1_36 O 0.69961(17) 0.91843(12) 0.98142(6)
H5_36 H 0.5289(3) 0.9156(2) 0.99376(11)
C10_36 C 0.69974(23) 0.96719(17) 0.99430(8)
C16_36 C 0.6662(4) 0.8975(2) 0.95254(12)
H11_36 H 0.6668(13) 0.9307(4) 0.9412(5)
H12_36 H 0.6252(23) 0.8678(14) 0.95768(13)
H13_36 H 0.6836(18) 0.8795(17) 0.9389(4)
C18_36 C 0.82365(23) 0.98708(17) 0.97656(10)
H14_36 H 0.80006(23) 0.94717(17) 0.98345(10)
C2_33 C 0.9821(2) 0.2026(3) 0.11559(11)
H2_33 H 0.9465(2) 0.2026(3) 0.11054(11)
C3_33 C 0.9799(2) 0.1532(4) 0.12787(14)
H3_33 H 0.9430(2) 0.1180(4) 0.13115(14)
C2_34 C 0.2206(2) 0.0179(2) 0.11559(11)
H2_34 H 0.2562(2) 0.0535(2) 0.11054(11)
C3_34 C 0.1734(3) 0.0201(2) 0.12787(14)
H3_34 H 0.1751(3) 0.0570(2) 0.13115(14)
C2_35 C 0.0179(2) 0.2206(2) 0.38441(11)
H2_35 H 0.0535(2) 0.2562(2) 0.38946(11)
C3_35 C 0.0201(2) 0.1734(3) 0.37213(14)
H3_35 H 0.0570(2) 0.1751(3) 0.36885(14)
C2_36 C 0.2026(3) 0.9821(2) 0.38441(11)
H2_36 H 0.2026(3) 0.9465(2) 0.38946(11)
C3_36 C 0.1532(4) 0.9799(2) 0.37213(14)
H3_36 H 0.1180(4) 0.9430(2) 0.36885(14)
H15_35 H 0.99734(25) 0.09874(17) 0.55969(10)
C22_35 C 0.95237(28) 0.14031(19) 0.57422(11)
H16_35 H 0.91566(28) 0.10550(19) 0.57875(11)
C23_35 C 0.95855(26) 0.19546(19) 0.57874(9)
H17_35 H 0.92610(26) 0.19942(19) 0.58595(9)
H15_36 H 0.10139(19) 0.00266(25) 0.55969(10)
C22_36 C 0.1879(2) 0.04763(28) 0.57422(11)
H16_36 H 0.1898(2) 0.08434(28) 0.57875(11)
C23_36 C 0.23690(18) 0.04145(26) 0.57874(9)
H17_36 H 0.27331(18) 0.07390(26) 0.58595(9)
loop_
_geom_bond_atom_site_label_1
_geom_bond_atom_site_label_2
_geom_bond_site_symmetry_1
_geom_bond_site_symmetry_2
F1 B1 1_555 1_555
F2 B1 1_555 1_555
B1 F3 1_555 1_555
F4 B1 1_555 1_555
F1_2 B1_2 1_555 1_555
F2_2 B1_2 1_555 1_555
B1_2 F3_2 1_555 1_555
F4_2 B1_2 1_555 1_555
F1_3 B1_3 1_555 1_555
F2_3 B1_3 1_555 1_555
F1_4 B1_4 1_555 1_555
F1_5 B1_5 1_555 1_555
B1_5 F3_3 1_555 1_555
F1_6 B1_6 1_555 1_555
F4_3 B1_6 1_555 1_555
F1_7 B1_7 1_555 1_555
F2_4 B1_7 1_555 1_555
B1_7 F3_4 1_555 1_555
F4_4 B1_7 1_555 1_555
F1_8 B1_8 1_555 1_555
F2_5 B1_8 1_555 1_555
B1_8 F3_5 1_555 1_555
F4_5 B1_8 1_555 1_555
F1_9 B1_9 1_555 1_555
F4_6 B1_9 1_555 1_555
F1_10 B1_10 1_555 1_555
F2_6 B1_10 1_555 1_555
F1_11 B1_11 1_555 1_555
F1_12 B1_12 1_555 1_555
B1_12 F3_6 1_555 1_555
F1_13 B1_13 1_555 1_555
F2_7 B1_13 1_555 1_555
B1_13 F3_7 1_555 1_555
F4_7 B1_13 1_555 1_555
F1_14 B1_14 1_555 1_555
F2_8 B1_14 1_555 1_555
B1_14 F3_8 1_555 1_555
F4_8 B1_14 1_555 1_555
F1_15 B1_15 1_555 1_555
F4_9 B1_15 1_555 1_555
F1_16 B1_16 1_555 1_555
B1_16 F3_9 1_555 1_555
F1_17 B1_17 1_555 1_555
F1_18 B1_18 1_555 1_555
F2_9 B1_18 1_555 1_555
F1_19 B1_19 1_555 1_555
F2_10 B1_19 1_555 1_555
B1_19 F3_10 1_555 1_555
F4_10 B1_19 1_555 1_555
F1_20 B1_20 1_555 1_555
F2_11 B1_20 1_555 1_555
B1_20 F3_11 1_555 1_555
F4_11 B1_20 1_555 1_555
F1_21 B1_21 1_555 1_555
B1_21 F3_12 1_555 1_555
F1_22 B1_22 1_555 1_555
F1_23 B1_23 1_555 1_555
F2_12 B1_23 1_555 1_555
F1_24 B1_24 1_555 1_555
F4_12 B1_24 1_555 1_555
F5 B2 1_555 1_555
F6 B2 1_555 1_555
F7 B2 1_555 1_555
F8 B2 1_555 1_555
F5_2 B2_2 1_555 1_555
F6_2 B2_2 1_555 1_555
F7_2 B2_2 1_555 1_555
F8_2 B2_2 1_555 1_555
F5_3 B2_3 1_555 1_555
F6_3 B2_3 1_555 1_555
F7_3 B2_3 1_555 1_555
F8_3 B2_3 1_555 1_555
F5_4 B2_4 1_555 1_555
F6_4 B2_4 1_555 1_555
F7_4 B2_4 1_555 1_555
F8_4 B2_4 1_555 1_555
F5_5 B2_5 1_555 1_555
F6_5 B2_5 1_555 1_555
F7_5 B2_5 1_555 1_555
F8_5 B2_5 1_555 1_555
F5_6 B2_6 1_555 1_555
F6_6 B2_6 1_555 1_555
F7_6 B2_6 1_555 1_555
F8_6 B2_6 1_555 1_555
F5_7 B2_7 1_555 1_555
F6_7 B2_7 1_555 1_555
F7_7 B2_7 1_555 1_555
F5_8 B2_8 1_555 1_555
F6_8 B2_8 1_555 1_555
F7_8 B2_8 1_555 1_555
F8_8 B2_8 1_555 1_555
F5_9 B2_9 1_555 1_555
F6_9 B2_9 1_555 1_555
F7_9 B2_9 1_555 1_555
F5_10 B2_10 1_555 1_555
F6_10 B2_10 1_555 1_555
F7_10 B2_10 1_555 1_555
F8_10 B2_10 1_555 1_555
F5_11 B2_11 1_555 1_555
F6_11 B2_11 1_555 1_555
F7_11 B2_11 1_555 1_555
F8_11 B2_11 1_555 1_555
F5_12 B2_12 1_555 1_555
F6_12 B2_12 1_555 1_555
F7_12 B2_12 1_555 1_555
F8_12 B2_12 1_555 1_555
F5_13 B2_13 1_555 1_555
F6_13 B2_13 1_555 1_555
F7_13 B2_13 1_555 1_555
F8_13 B2_13 1_555 1_555
F5_14 B2_14 1_555 1_555
F6_14 B2_14 1_555 1_555
F7_14 B2_14 1_555 1_555
F8_14 B2_14 1_555 1_555
F5_15 B2_15 1_555 1_555
F6_15 B2_15 1_555 1_555
F7_15 B2_15 1_555 1_555
F8_15 B2_15 1_555 1_555
F5_16 B2_16 1_555 1_555
F6_16 B2_16 1_555 1_555
F7_16 B2_16 1_555 1_555
F8_16 B2_16 1_555 1_555
F5_17 B2_17 1_555 1_555
F6_17 B2_17 1_555 1_555
F7_17 B2_17 1_555 1_555
F5_18 B2_18 1_555 1_555
F6_18 B2_18 1_555 1_555
F7_18 B2_18 1_555 1_555
F5_19 B2_19 1_555 1_555
F6_19 B2_19 1_555 1_555
F7_19 B2_19 1_555 1_555
F8_19 B2_19 1_555 1_555
F5_20 B2_20 1_555 1_555
F6_20 B2_20 1_555 1_555
F7_20 B2_20 1_555 1_555
F8_20 B2_20 1_555 1_555
F5_21 B2_21 1_555 1_555
F6_21 B2_21 1_555 1_555
F7_21 B2_21 1_555 1_555
F8_21 B2_21 1_555 1_555
F5_22 B2_22 1_555 1_555
F6_22 B2_22 1_555 1_555
F7_22 B2_22 1_555 1_555
F8_22 B2_22 1_555 1_555
F5_23 B2_23 1_555 1_555
F6_23 B2_23 1_555 1_555
F7_23 B2_23 1_555 1_555
F8_23 B2_23 1_555 1_555
F5_24 B2_24 1_555 1_555
F6_24 B2_24 1_555 1_555
F7_24 B2_24 1_555 1_555
F8_24 B2_24 1_555 1_555
F5_25 B2_25 1_555 1_555
F6_25 B2_25 1_555 1_555
F7_25 B2_25 1_555 1_555
F5_26 B2_26 1_555 1_555
F6_26 B2_26 1_555 1_555
F7_26 B2_26 1_555 1_555
F8_26 B2_26 1_555 1_555
F5_27 B2_27 1_555 1_555
F6_27 B2_27 1_555 1_555
F7_27 B2_27 1_555 1_555
F5_28 B2_28 1_555 1_555
F6_28 B2_28 1_555 1_555
F7_28 B2_28 1_555 1_555
F8_28 B2_28 1_555 1_555
F5_29 B2_29 1_555 1_555
F6_29 B2_29 1_555 1_555
F7_29 B2_29 1_555 1_555
F8_29 B2_29 1_555 1_555
F5_30 B2_30 1_555 1_555
F6_30 B2_30 1_555 1_555
F7_30 B2_30 1_555 1_555
F8_30 B2_30 1_555 1_555
F5_31 B2_31 1_555 1_555
F6_31 B2_31 1_555 1_555
F7_31 B2_31 1_555 1_555
F8_31 B2_31 1_555 1_555
F5_32 B2_32 1_555 1_555
F6_32 B2_32 1_555 1_555
F7_32 B2_32 1_555 1_555
F8_32 B2_32 1_555 1_555
F5_33 B2_33 1_555 1_555
F6_33 B2_33 1_555 1_555
F7_33 B2_33 1_555 1_555
F8_33 B2_33 1_555 1_555
F5_34 B2_34 1_555 1_555
F6_34 B2_34 1_555 1_555
F7_34 B2_34 1_555 1_555
F8_34 B2_34 1_555 1_555
F5_35 B2_35 1_555 1_555
F6_35 B2_35 1_555 1_555
F7_35 B2_35 1_555 1_555
F5_36 B2_36 1_555 1_555
F6_36 B2_36 1_555 1_555
F7_36 B2_36 1_555 1_555
Ag1 N3 1_555 1_555
N1 C1 1_555 1_555
N2 C6 1_555 1_555
N3 C17 1_555 1_555
N4 Ag1 1_555 1_555
O1 C10 1_555 1_555
S1 C6 1_555 1_555
S2 C18 1_555 1_555
C1 H1 1_555 1_555
C2 C1 1_555 1_555
H2 C2 1_555 1_555
C3 C2 1_555 1_555
H3 C3 1_555 1_555
C4 C3 1_555 1_555
H4 C4 1_555 1_555
C5 N1 1_555 1_555
C6 C5 1_555 1_555
C7 S1 1_555 1_555
H5 C7 1_555 1_555
C8 N2 1_555 1_555
C9 C8 1_555 1_555
C10 C9 1_555 1_555
C11 C10 1_555 1_555
C12 C11 1_555 1_555
H6 C12 1_555 1_555
C13 C12 1_555 1_555
C14 C9 1_555 1_555
H7 C14 1_555 1_555
C15 C13 1_555 1_555
H8 C15 1_555 1_555
H9 C15 1_555 1_555
H10 C15 1_555 1_555
C16 O1 1_555 1_555
H11 C16 1_555 1_555
H12 C16 1_555 1_555
H13 C16 1_555 1_555
C17 C11 1_555 1_555
C18 C17 1_555 1_555
H14 C18 1_555 1_555
C19 N3 1_555 1_555
C20 N4 1_555 1_555
C21 C20 1_555 1_555
H15 C21 1_555 1_555
C22 C21 1_555 1_555
H16 C22 1_555 1_555
C23 C22 1_555 1_555
H17 C23 1_555 1_555
C24 N4 1_555 1_555
H18 C24 1_555 1_555
Ag2 N1 1_555 1_555
Ag3 Ag1 1_555 1_555
N5 Ag1 1_555 1_555
N6 Ag1 1_555 1_555
N2 Ag2 1_555 1_555
S2 C19 1_555 1_555
C4 C5 1_555 1_555
C7 C8 1_555 1_555
C13 C14 1_555 1_555
C19 C20 1_555 1_555
C23 C24 1_555 1_555
Ag1_2 N3_2 1_555 1_555
N3_2 C17_2 1_555 1_555
N4_2 Ag1_2 1_555 1_555
O1_2 C10_2 1_555 1_555
S2_2 C18_2 1_555 1_555
C11_2 C10_2 1_555 1_555
C12_2 C11_2 1_555 1_555
H6_2 C12_2 1_555 1_555
C13_2 C12_2 1_555 1_555
C15_2 C13_2 1_555 1_555
H8_2 C15_2 1_555 1_555
H9_2 C15_2 1_555 1_555
C17_2 C11_2 1_555 1_555
C18_2 C17_2 1_555 1_555
H14_2 C18_2 1_555 1_555
C19_2 N3_2 1_555 1_555
C20_2 N4_2 1_555 1_555
C21_2 C20_2 1_555 1_555
H15_2 C21_2 1_555 1_555
C22_2 C21_2 1_555 1_555
H16_2 C22_2 1_555 1_555
C23_2 C22_2 1_555 1_555
H17_2 C23_2 1_555 1_555
C24_2 N4_2 1_555 1_555
H18_2 C24_2 1_555 1_555
Ag3_2 Ag1_2 1_555 1_555
N5_2 Ag1_2 1_555 1_555
N6_2 Ag1_2 1_555 1_555
S2_2 C19_2 1_555 1_555
C19_2 C20_2 1_555 1_555
C23_2 C24_2 1_555 1_555
N1_2 C1_2 1_555 1_555
N2_2 C6_2 1_555 1_555
S1_2 C6_2 1_555 1_555
C1_2 H1_2 1_555 1_555
C2_2 C1_2 1_555 1_555
H2_2 C2_2 1_555 1_555
C3_2 C2_2 1_555 1_555
H3_2 C3_2 1_555 1_555
C4_2 C3_2 1_555 1_555
H4_2 C4_2 1_555 1_555
C5_2 N1_2 1_555 1_555
C6_2 C5_2 1_555 1_555
C7_2 S1_2 1_555 1_555
H5_2 C7_2 1_555 1_555
C8_2 N2_2 1_555 1_555
C9_2 C8_2 1_555 1_555
C14_2 C9_2 1_555 1_555
H7_2 C14_2 1_555 1_555
H12_2 C16_2 1_555 1_555
C4_2 C5_2 1_555 1_555
C7_2 C8_2 1_555 1_555
N1_3 C1_3 1_555 1_555
N2_3 C6_3 1_555 1_555
S1_3 C6_3 1_555 1_555
C1_3 H1_3 1_555 1_555
C2_3 C1_3 1_555 1_555
H2_3 C2_3 1_555 1_555
C3_3 C2_3 1_555 1_555
H3_3 C3_3 1_555 1_555
C4_3 C3_3 1_555 1_555
H4_3 C4_3 1_555 1_555
C5_3 N1_3 1_555 1_555
C6_3 C5_3 1_555 1_555
C7_3 S1_3 1_555 1_555
H5_3 C7_3 1_555 1_555
C8_3 N2_3 1_555 1_555
C9_3 C8_3 1_555 1_555
C14_3 C9_3 1_555 1_555
H7_3 C14_3 1_555 1_555
H12_3 C16_3 1_555 1_555
C4_3 C5_3 1_555 1_555
C7_3 C8_3 1_555 1_555
Ag1_3 N3_3 1_555 1_555
N3_3 C17_3 1_555 1_555
N4_3 Ag1_3 1_555 1_555
O1_3 C10_3 1_555 1_555
S2_3 C18_3 1_555 1_555
C11_3 C10_3 1_555 1_555
C12_3 C11_3 1_555 1_555
H6_3 C12_3 1_555 1_555
C13_3 C12_3 1_555 1_555
C15_3 C13_3 1_555 1_555
H8_3 C15_3 1_555 1_555
H9_3 C15_3 1_555 1_555
C17_3 C11_3 1_555 1_555
C18_3 C17_3 1_555 1_555
H14_3 C18_3 1_555 1_555
C19_3 N3_3 1_555 1_555
C20_3 N4_3 1_555 1_555
C21_3 C20_3 1_555 1_555
H15_3 C21_3 1_555 1_555
C22_3 C21_3 1_555 1_555
H16_3 C22_3 1_555 1_555
C23_3 C22_3 1_555 1_555
H17_3 C23_3 1_555 1_555
C24_3 N4_3 1_555 1_555
H18_3 C24_3 1_555 1_555
Ag3_3 Ag1_3 1_555 1_555
N5_3 Ag1_3 1_555 1_555
N6_3 Ag1_3 1_555 1_555
S2_3 C19_3 1_555 1_555
C19_3 C20_3 1_555 1_555
C23_3 C24_3 1_555 1_555
Ag1_4 N3_4 1_555 1_555
N3_4 C17_4 1_555 1_555
N4_4 Ag1_4 1_555 1_555
O1_4 C10_4 1_555 1_555
S2_4 C18_4 1_555 1_555
C11_4 C10_4 1_555 1_555
C12_4 C11_4 1_555 1_555
H6_4 C12_4 1_555 1_555
C13_4 C12_4 1_555 1_555
C15_4 C13_4 1_555 1_555
H8_4 C15_4 1_555 1_555
H9_4 C15_4 1_555 1_555
C17_4 C11_4 1_555 1_555
C18_4 C17_4 1_555 1_555
H14_4 C18_4 1_555 1_555
C19_4 N3_4 1_555 1_555
C20_4 N4_4 1_555 1_555
C21_4 C20_4 1_555 1_555
H15_4 C21_4 1_555 1_555
C22_4 C21_4 1_555 1_555
H16_4 C22_4 1_555 1_555
C23_4 C22_4 1_555 1_555
H17_4 C23_4 1_555 1_555
C24_4 N4_4 1_555 1_555
H18_4 C24_4 1_555 1_555
Ag3_4 Ag1_4 1_555 1_555
N5_4 Ag1_4 1_555 1_555
N6_4 Ag1_4 1_555 1_555
S2_4 C19_4 1_555 1_555
C19_4 C20_4 1_555 1_555
C23_4 C24_4 1_555 1_555
N1_4 C1_4 1_555 1_555
N2_4 C6_4 1_555 1_555
S1_4 C6_4 1_555 1_555
C1_4 H1_4 1_555 1_555
C2_4 C1_4 1_555 1_555
H2_4 C2_4 1_555 1_555
C3_4 C2_4 1_555 1_555
H3_4 C3_4 1_555 1_555
C4_4 C3_4 1_555 1_555
H4_4 C4_4 1_555 1_555
C5_4 N1_4 1_555 1_555
C6_4 C5_4 1_555 1_555
C7_4 S1_4 1_555 1_555
H5_4 C7_4 1_555 1_555
C8_4 N2_4 1_555 1_555
C9_4 C8_4 1_555 1_555
C14_4 C9_4 1_555 1_555
H7_4 C14_4 1_555 1_555
H12_4 C16_4 1_555 1_555
C4_4 C5_4 1_555 1_555
C7_4 C8_4 1_555 1_555
N1_5 C1_5 1_555 1_555
N2_5 C6_5 1_555 1_555
S1_5 C6_5 1_555 1_555
C1_5 H1_5 1_555 1_555
C2_5 C1_5 1_555 1_555
H2_5 C2_5 1_555 1_555
C3_5 C2_5 1_555 1_555
H3_5 C3_5 1_555 1_555
C4_5 C3_5 1_555 1_555
H4_5 C4_5 1_555 1_555
C5_5 N1_5 1_555 1_555
C6_5 C5_5 1_555 1_555
C7_5 S1_5 1_555 1_555
H5_5 C7_5 1_555 1_555
C8_5 N2_5 1_555 1_555
C9_5 C8_5 1_555 1_555
C14_5 C9_5 1_555 1_555
H7_5 C14_5 1_555 1_555
H12_5 C16_5 1_555 1_555
C4_5 C5_5 1_555 1_555
C7_5 C8_5 1_555 1_555
Ag1_5 N3_5 1_555 1_555
N3_5 C17_5 1_555 1_555
N4_5 Ag1_5 1_555 1_555
O1_5 C10_5 1_555 1_555
S2_5 C18_5 1_555 1_555
C11_5 C10_5 1_555 1_555
C12_5 C11_5 1_555 1_555
H6_5 C12_5 1_555 1_555
C13_5 C12_5 1_555 1_555
C15_5 C13_5 1_555 1_555
H8_5 C15_5 1_555 1_555
H9_5 C15_5 1_555 1_555
C17_5 C11_5 1_555 1_555
C18_5 C17_5 1_555 1_555
H14_5 C18_5 1_555 1_555
C19_5 N3_5 1_555 1_555
C20_5 N4_5 1_555 1_555
C21_5 C20_5 1_555 1_555
H15_5 C21_5 1_555 1_555
C22_5 C21_5 1_555 1_555
H16_5 C22_5 1_555 1_555
C23_5 C22_5 1_555 1_555
H17_5 C23_5 1_555 1_555
C24_5 N4_5 1_555 1_555
H18_5 C24_5 1_555 1_555
Ag3_5 Ag1_5 1_555 1_555
N5_5 Ag1_5 1_555 1_555
N6_5 Ag1_5 1_555 1_555
S2_5 C19_5 1_555 1_555
C19_5 C20_5 1_555 1_555
C23_5 C24_5 1_555 1_555
Ag1_6 N3_6 1_555 1_555
N1_6 C1_6 1_555 1_555
N2_6 C6_6 1_555 1_555
N3_6 C17_6 1_555 1_555
N4_6 Ag1_6 1_555 1_555
O1_6 C10_6 1_555 1_555
S1_6 C6_6 1_555 1_555
S2_6 C18_6 1_555 1_555
C1_6 H1_6 1_555 1_555
C2_6 C1_6 1_555 1_555
H2_6 C2_6 1_555 1_555
C3_6 C2_6 1_555 1_555
H3_6 C3_6 1_555 1_555
C4_6 C3_6 1_555 1_555
H4_6 C4_6 1_555 1_555
C5_6 N1_6 1_555 1_555
C6_6 C5_6 1_555 1_555
C7_6 S1_6 1_555 1_555
H5_6 C7_6 1_555 1_555
C8_6 N2_6 1_555 1_555
C9_6 C8_6 1_555 1_555
C10_6 C9_6 1_555 1_555
C11_6 C10_6 1_555 1_555
C12_6 C11_6 1_555 1_555
H6_6 C12_6 1_555 1_555
C13_6 C12_6 1_555 1_555
C14_6 C9_6 1_555 1_555
H7_6 C14_6 1_555 1_555
C15_6 C13_6 1_555 1_555
H8_6 C15_6 1_555 1_555
H9_6 C15_6 1_555 1_555
H10_6 C15_6 1_555 1_555
C16_6 O1_6 1_555 1_555
H11_6 C16_6 1_555 1_555
H12_6 C16_6 1_555 1_555
H13_6 C16_6 1_555 1_555
C17_6 C11_6 1_555 1_555
C18_6 C17_6 1_555 1_555
H14_6 C18_6 1_555 1_555
C19_6 N3_6 1_555 1_555
C20_6 N4_6 1_555 1_555
C21_6 C20_6 1_555 1_555
H15_6 C21_6 1_555 1_555
C22_6 C21_6 1_555 1_555
H16_6 C22_6 1_555 1_555
C23_6 C22_6 1_555 1_555
H17_6 C23_6 1_555 1_555
C24_6 N4_6 1_555 1_555
H18_6 C24_6 1_555 1_555
Ag2_6 N1_6 1_555 1_555
Ag3_6 Ag1_6 1_555 1_555
N5_6 Ag1_6 1_555 1_555
N6_6 Ag1_6 1_555 1_555
N2_6 Ag2_6 1_555 1_555
S2_6 C19_6 1_555 1_555
C4_6 C5_6 1_555 1_555
C7_6 C8_6 1_555 1_555
C13_6 C14_6 1_555 1_555
C19_6 C20_6 1_555 1_555
C23_6 C24_6 1_555 1_555
Ag3_4 N3_7 1_555 1_555
N3_7 C17_7 1_555 1_555
N4_7 Ag3_4 1_555 1_555
C17_7 C11_7 1_555 1_555
C19_7 N3_7 1_555 1_555
C20_7 N4_7 1_555 1_555
C21_7 C20_7 1_555 1_555
H15_7 C21_7 1_555 1_555
C22_7 C21_7 1_555 1_555
H16_7 C22_7 1_555 1_555
C23_7 C22_7 1_555 1_555
H17_7 C23_7 1_555 1_555
C24_7 N4_7 1_555 1_555
H18_7 C24_7 1_555 1_555
N5_7 Ag3_4 1_555 1_555
N6_7 Ag3_4 1_555 1_555
S2_7 C19_7 1_555 1_555
C19_7 C20_7 1_555 1_555
C23_7 C24_7 1_555 1_555
N1_7 C1_7 1_555 1_555
N2_7 C6_7 1_555 1_555
S1_7 C6_7 1_555 1_555
C1_7 H1_7 1_555 1_555
C2_7 C1_7 1_555 1_555
H2_7 C2_7 1_555 1_555
C3_7 C2_7 1_555 1_555
H3_7 C3_7 1_555 1_555
C4_7 C3_7 1_555 1_555
H4_7 C4_7 1_555 1_555
C5_7 N1_7 1_555 1_555
C6_7 C5_7 1_555 1_555
C7_7 S1_7 1_555 1_555
C8_7 N2_7 1_555 1_555
C9_7 C8_7 1_555 1_555
Ag2_7 N1_7 1_555 1_555
N2_7 Ag2_7 1_555 1_555
C4_7 C5_7 1_555 1_555
C7_7 C8_7 1_555 1_555
Ag3_6 N3_8 1_555 1_555
N3_8 C17_8 1_555 1_555
N4_8 Ag3_6 1_555 1_555
O1_7 C10_7 1_555 1_555
S2_8 C18_7 1_555 1_555
C11_8 C10_7 1_555 1_555
C16_7 O1_7 1_555 1_555
H11_7 C16_7 1_555 1_555
H12_7 C16_7 1_555 1_555
H13_7 C16_7 1_555 1_555
C17_8 C11_8 1_555 1_555
C18_7 C17_8 1_555 1_555
H14_7 C18_7 1_555 1_555
C19_8 N3_8 1_555 1_555
C20_8 N4_8 1_555 1_555
C21_8 C20_8 1_555 1_555
C24_8 N4_8 1_555 1_555
H18_8 C24_8 1_555 1_555
N5_8 Ag3_6 1_555 1_555
N6_8 Ag3_6 1_555 1_555
S2_8 C19_8 1_555 1_555
C19_8 C20_8 1_555 1_555
N1_8 C1_8 1_555 1_555
N2_8 C6_8 1_555 1_555
S1_8 C6_8 1_555 1_555
C1_8 H1_8 1_555 1_555
C2_8 C1_8 1_555 1_555
H2_8 C2_8 1_555 1_555
C3_8 C2_8 1_555 1_555
H3_8 C3_8 1_555 1_555
C4_8 C3_8 1_555 1_555
H4_8 C4_8 1_555 1_555
C5_8 N1_8 1_555 1_555
C6_8 C5_8 1_555 1_555
C7_8 S1_8 1_555 1_555
C8_8 N2_8 1_555 1_555
C9_8 C8_8 1_555 1_555
H6_7 C12_7 1_555 1_555
C13_7 C12_7 1_555 1_555
C14_7 C9_8 1_555 1_555
H7_7 C14_7 1_555 1_555
C15_7 C13_7 1_555 1_555
H8_7 C15_7 1_555 1_555
H9_7 C15_7 1_555 1_555
H10_7 C15_7 1_555 1_555
Ag2_8 N1_8 1_555 1_555
N2_8 Ag2_8 1_555 1_555
C4_8 C5_8 1_555 1_555
C7_8 C8_8 1_555 1_555
C13_7 C14_7 1_555 1_555
N1_9 C1_9 1_555 1_555
N2_9 C6_9 1_555 1_555
S1_9 C6_9 1_555 1_555
C1_9 H1_9 1_555 1_555
C2_9 C1_9 1_555 1_555
H2_9 C2_9 1_555 1_555
C3_9 C2_9 1_555 1_555
H3_9 C3_9 1_555 1_555
C4_9 C3_9 1_555 1_555
H4_9 C4_9 1_555 1_555
C5_9 N1_9 1_555 1_555
C6_9 C5_9 1_555 1_555
C7_9 S1_9 1_555 1_555
C8_9 N2_9 1_555 1_555
C9_9 C8_9 1_555 1_555
Ag2_9 N1_9 1_555 1_555
N2_9 Ag2_9 1_555 1_555
C4_9 C5_9 1_555 1_555
C7_9 C8_9 1_555 1_555
Ag3_5 N3_9 1_555 1_555
N3_9 C17_9 1_555 1_555
N4_9 Ag3_5 1_555 1_555
C17_9 C11_9 1_555 1_555
C19_9 N3_9 1_555 1_555
C20_9 N4_9 1_555 1_555
C21_9 C20_9 1_555 1_555
C24_9 N4_9 1_555 1_555
H18_9 C24_9 1_555 1_555
N5_9 Ag3_5 1_555 1_555
N6_9 Ag3_5 1_555 1_555
S2_9 C19_9 1_555 1_555
C19_9 C20_9 1_555 1_555
Ag1_7 N3_10 1_555 1_555
N1_10 C1_10 1_555 1_555
N2_10 C6_10 1_555 1_555
N3_10 C17_10 1_555 1_555
N4_10 Ag1_7 1_555 1_555
O1_8 C10_8 1_555 1_555
S1_10 C6_10 1_555 1_555
S2_10 C18_8 1_555 1_555
C1_10 H1_10 1_555 1_555
C2_10 C1_10 1_555 1_555
H2_10 C2_10 1_555 1_555
C3_10 C2_10 1_555 1_555
H3_10 C3_10 1_555 1_555
C4_10 C3_10 1_555 1_555
H4_10 C4_10 1_555 1_555
C5_10 N1_10 1_555 1_555
C6_10 C5_10 1_555 1_555
C8_10 N2_10 1_555 1_555
C9_10 C8_10 1_555 1_555
C10_8 C9_10 1_555 1_555
C11_10 C10_8 1_555 1_555
C12_8 C11_10 1_555 1_555
H6_8 C12_8 1_555 1_555
C16_8 O1_8 1_555 1_555
H11_8 C16_8 1_555 1_555
H12_8 C16_8 1_555 1_555
H13_8 C16_8 1_555 1_555
C17_10 C11_10 1_555 1_555
C18_8 C17_10 1_555 1_555
H14_8 C18_8 1_555 1_555
C19_10 N3_10 1_555 1_555
C20_10 N4_10 1_555 1_555
C21_10 C20_10 1_555 1_555
H15_8 C21_10 1_555 1_555
C22_8 C21_10 1_555 1_555
H16_8 C22_8 1_555 1_555
C23_8 C22_8 1_555 1_555
H17_8 C23_8 1_555 1_555
C24_10 N4_10 1_555 1_555
H18_10 C24_10 1_555 1_555
Ag2_10 N1_10 1_555 1_555
N2_10 Ag2_10 1_555 1_555
S2_10 C19_10 1_555 1_555
C4_10 C5_10 1_555 1_555
C19_10 C20_10 1_555 1_555
C23_8 C24_10 1_555 1_555
H5_8 C7_10 1_555 1_555
H7_8 C14_8 1_555 1_555
C15_8 C13_8 1_555 1_555
H8_8 C15_8 1_555 1_555
H9_8 C15_8 1_555 1_555
H10_8 C15_8 1_555 1_555
C13_8 C14_8 1_555 1_555
Ag1_8 N3_11 1_555 1_555
N1_11 C1_11 1_555 1_555
N2_11 C6_11 1_555 1_555
N3_11 C17_11 1_555 1_555
N4_11 Ag1_8 1_555 1_555
O1_9 C10_9 1_555 1_555
S1_11 C6_11 1_555 1_555
S2_11 C18_9 1_555 1_555
C1_11 H1_11 1_555 1_555
H4_11 C4_11 1_555 1_555
C5_11 N1_11 1_555 1_555
C6_11 C5_11 1_555 1_555
C7_11 S1_11 1_555 1_555
H5_9 C7_11 1_555 1_555
C8_11 N2_11 1_555 1_555
C9_11 C8_11 1_555 1_555
C10_9 C9_11 1_555 1_555
C11_11 C10_9 1_555 1_555
C12_9 C11_11 1_555 1_555
H6_9 C12_9 1_555 1_555
C13_9 C12_9 1_555 1_555
C14_9 C9_11 1_555 1_555
H7_9 C14_9 1_555 1_555
C15_9 C13_9 1_555 1_555
H8_9 C15_9 1_555 1_555
H9_9 C15_9 1_555 1_555
H10_9 C15_9 1_555 1_555
C16_9 O1_9 1_555 1_555
H11_9 C16_9 1_555 1_555
H12_9 C16_9 1_555 1_555
H13_9 C16_9 1_555 1_555
C17_11 C11_11 1_555 1_555
C18_9 C17_11 1_555 1_555
H14_9 C18_9 1_555 1_555
C19_11 N3_11 1_555 1_555
C20_11 N4_11 1_555 1_555
C21_11 C20_11 1_555 1_555
H15_9 C21_11 1_555 1_555
C22_9 C21_11 1_555 1_555
H16_9 C22_9 1_555 1_555
C23_9 C22_9 1_555 1_555
H17_9 C23_9 1_555 1_555
C24_11 N4_11 1_555 1_555
H18_11 C24_11 1_555 1_555
Ag2_11 N1_11 1_555 1_555
Ag3_8 Ag1_8 1_555 1_555
N5_11 Ag1_8 1_555 1_555
N6_11 Ag1_8 1_555 1_555
N2_11 Ag2_11 1_555 1_555
S2_11 C19_11 1_555 1_555
C4_11 C5_11 1_555 1_555
C7_11 C8_11 1_555 1_555
C13_9 C14_9 1_555 1_555
C19_11 C20_11 1_555 1_555
C23_9 C24_11 1_555 1_555
H5_10 C7_12 1_555 1_555
H7_10 C14_10 1_555 1_555
C15_10 C13_10 1_555 1_555
H8_10 C15_10 1_555 1_555
H9_10 C15_10 1_555 1_555
H10_10 C15_10 1_555 1_555
C13_10 C14_10 1_555 1_555
Ag1_9 N3_12 1_555 1_555
N1_12 C1_12 1_555 1_555
N2_12 C6_12 1_555 1_555
N3_12 C17_12 1_555 1_555
N4_12 Ag1_9 1_555 1_555
O1_10 C10_10 1_555 1_555
S1_12 C6_12 1_555 1_555
S2_12 C18_10 1_555 1_555
C1_12 H1_12 1_555 1_555
H4_12 C4_12 1_555 1_555
C5_12 N1_12 1_555 1_555
C6_12 C5_12 1_555 1_555
C8_12 N2_12 1_555 1_555
C9_12 C8_12 1_555 1_555
C10_10 C9_12 1_555 1_555
C11_12 C10_10 1_555 1_555
C12_10 C11_12 1_555 1_555
H6_10 C12_10 1_555 1_555
C16_10 O1_10 1_555 1_555
H11_10 C16_10 1_555 1_555
H12_10 C16_10 1_555 1_555
H13_10 C16_10 1_555 1_555
C17_12 C11_12 1_555 1_555
C18_10 C17_12 1_555 1_555
H14_10 C18_10 1_555 1_555
C19_12 N3_12 1_555 1_555
C20_12 N4_12 1_555 1_555
C21_12 C20_12 1_555 1_555
H15_10 C21_12 1_555 1_555
C22_10 C21_12 1_555 1_555
H16_10 C22_10 1_555 1_555
C23_10 C22_10 1_555 1_555
H17_10 C23_10 1_555 1_555
C24_12 N4_12 1_555 1_555
H18_12 C24_12 1_555 1_555
Ag2_12 N1_12 1_555 1_555
N2_12 Ag2_12 1_555 1_555
S2_12 C19_12 1_555 1_555
C4_12 C5_12 1_555 1_555
C19_12 C20_12 1_555 1_555
C23_10 C24_12 1_555 1_555
H5_11 C7_13 1_555 1_555
H7_11 C14_11 1_555 1_555
C15_11 C13_11 1_555 1_555
H8_11 C15_11 1_555 1_555
H9_11 C15_11 1_555 1_555
H10_11 C15_11 1_555 1_555
C13_11 C14_11 1_555 1_555
Ag3_7 N3_13 1_555 1_555
N1_13 C1_13 1_555 1_555
N2_13 C6_13 1_555 1_555
N3_13 C17_13 1_555 1_555
N4_13 Ag3_7 1_555 1_555
O1_11 C10_11 1_555 1_555
S1_13 C6_13 1_555 1_555
S2_13 C18_11 1_555 1_555
C1_13 H1_13 1_555 1_555
H4_13 C4_13 1_555 1_555
C5_13 N1_13 1_555 1_555
C6_13 C5_13 1_555 1_555
C8_13 N2_13 1_555 1_555
C9_13 C8_13 1_555 1_555
C10_11 C9_13 1_555 1_555
C11_13 C10_11 1_555 1_555
C12_11 C11_13 1_555 1_555
H6_11 C12_11 1_555 1_555
C16_11 O1_11 1_555 1_555
H11_11 C16_11 1_555 1_555
H12_11 C16_11 1_555 1_555
H13_11 C16_11 1_555 1_555
C17_13 C11_13 1_555 1_555
C18_11 C17_13 1_555 1_555
H14_11 C18_11 1_555 1_555
C19_13 N3_13 1_555 1_555
C20_13 N4_13 1_555 1_555
C21_13 C20_13 1_555 1_555
H15_11 C21_13 1_555 1_555
C22_11 C21_13 1_555 1_555
H16_11 C22_11 1_555 1_555
C23_11 C22_11 1_555 1_555
H17_11 C23_11 1_555 1_555
C24_13 N4_13 1_555 1_555
H18_13 C24_13 1_555 1_555
Ag2_13 N1_13 1_555 1_555
N2_13 Ag2_13 1_555 1_555
S2_13 C19_13 1_555 1_555
C4_13 C5_13 1_555 1_555
C19_13 C20_13 1_555 1_555
C23_11 C24_13 1_555 1_555
Ag3_9 N3_14 1_555 1_555
N1_14 C1_14 1_555 1_555
N2_14 C6_14 1_555 1_555
N3_14 C17_14 1_555 1_555
N4_14 Ag3_9 1_555 1_555
O1_12 C10_12 1_555 1_555
S1_14 C6_14 1_555 1_555
S2_14 C18_12 1_555 1_555
C1_14 H1_14 1_555 1_555
C2_11 C1_14 1_555 1_555
H2_11 C2_11 1_555 1_555
C3_11 C2_11 1_555 1_555
H3_11 C3_11 1_555 1_555
C4_14 C3_11 1_555 1_555
H4_14 C4_14 1_555 1_555
C5_14 N1_14 1_555 1_555
C6_14 C5_14 1_555 1_555
C8_14 N2_14 1_555 1_555
C9_14 C8_14 1_555 1_555
C10_12 C9_14 1_555 1_555
C11_14 C10_12 1_555 1_555
C12_12 C11_14 1_555 1_555
H6_12 C12_12 1_555 1_555
C16_12 O1_12 1_555 1_555
H11_12 C16_12 1_555 1_555
H12_12 C16_12 1_555 1_555
H13_12 C16_12 1_555 1_555
C17_14 C11_14 1_555 1_555
C18_12 C17_14 1_555 1_555
H14_12 C18_12 1_555 1_555
C19_14 N3_14 1_555 1_555
C20_14 N4_14 1_555 1_555
C21_14 C20_14 1_555 1_555
H15_12 C21_14 1_555 1_555
C22_12 C21_14 1_555 1_555
H16_12 C22_12 1_555 1_555
C23_12 C22_12 1_555 1_555
H17_12 C23_12 1_555 1_555
C24_14 N4_14 1_555 1_555
H18_14 C24_14 1_555 1_555
Ag2_14 N1_14 1_555 1_555
N2_14 Ag2_14 1_555 1_555
S2_14 C19_14 1_555 1_555
C4_14 C5_14 1_555 1_555
C19_14 C20_14 1_555 1_555
C23_12 C24_14 1_555 1_555
H5_12 C7_14 1_555 1_555
H7_12 C14_12 1_555 1_555
C15_12 C13_12 1_555 1_555
H8_12 C15_12 1_555 1_555
H9_12 C15_12 1_555 1_555
H10_12 C15_12 1_555 1_555
C13_12 C14_12 1_555 1_555
Ag3_8 N3_15 1_555 1_555
N1_15 C1_15 1_555 1_555
N2_15 C6_15 1_555 1_555
N3_15 C17_15 1_555 1_555
N4_15 Ag3_8 1_555 1_555
O1_13 C10_13 1_555 1_555
S1_15 C6_15 1_555 1_555
S2_15 C18_13 1_555 1_555
C1_15 H1_15 1_555 1_555
H4_15 C4_15 1_555 1_555
C5_15 N1_15 1_555 1_555
C6_15 C5_15 1_555 1_555
C7_15 S1_15 1_555 1_555
H5_13 C7_15 1_555 1_555
C8_15 N2_15 1_555 1_555
C9_15 C8_15 1_555 1_555
C10_13 C9_15 1_555 1_555
C11_15 C10_13 1_555 1_555
C12_13 C11_15 1_555 1_555
H6_13 C12_13 1_555 1_555
C13_13 C12_13 1_555 1_555
C14_13 C9_15 1_555 1_555
H7_13 C14_13 1_555 1_555
C15_13 C13_13 1_555 1_555
H8_13 C15_13 1_555 1_555
H9_13 C15_13 1_555 1_555
H10_13 C15_13 1_555 1_555
C16_13 O1_13 1_555 1_555
H11_13 C16_13 1_555 1_555
H12_13 C16_13 1_555 1_555
H13_13 C16_13 1_555 1_555
C17_15 C11_15 1_555 1_555
C18_13 C17_15 1_555 1_555
H14_13 C18_13 1_555 1_555
C19_15 N3_15 1_555 1_555
C20_15 N4_15 1_555 1_555
C21_15 C20_15 1_555 1_555
H15_13 C21_15 1_555 1_555
C22_13 C21_15 1_555 1_555
H16_13 C22_13 1_555 1_555
C23_13 C22_13 1_555 1_555
H17_13 C23_13 1_555 1_555
C24_15 N4_15 1_555 1_555
H18_15 C24_15 1_555 1_555
Ag2_15 N1_15 1_555 1_555
N5_15 Ag3_8 1_555 1_555
N6_15 Ag3_8 1_555 1_555
N2_15 Ag2_15 1_555 1_555
S2_15 C19_15 1_555 1_555
C4_15 C5_15 1_555 1_555
C7_15 C8_15 1_555 1_555
C13_13 C14_13 1_555 1_555
C19_15 C20_15 1_555 1_555
C23_13 C24_15 1_555 1_555
Ag3 N3_16 1_555 1_555
N1_16 C1_16 1_555 1_555
N2_16 C6_16 1_555 1_555
N3_16 C17_16 1_555 1_555
N4_16 Ag3 1_555 1_555
O1_14 C10_14 1_555 1_555
S1_16 C6_16 1_555 1_555
S2_16 C18_14 1_555 1_555
C1_16 H1_16 1_555 1_555
C2_12 C1_16 1_555 1_555
H2_12 C2_12 1_555 1_555
C3_12 C2_12 1_555 1_555
H3_12 C3_12 1_555 1_555
C4_16 C3_12 1_555 1_555
H4_16 C4_16 1_555 1_555
C5_16 N1_16 1_555 1_555
C6_16 C5_16 1_555 1_555
C7_16 S1_16 1_555 1_555
H5_14 C7_16 1_555 1_555
C8_16 N2_16 1_555 1_555
C9_16 C8_16 1_555 1_555
C10_14 C9_16 1_555 1_555
C11_16 C10_14 1_555 1_555
C12_14 C11_16 1_555 1_555
H6_14 C12_14 1_555 1_555
C13_14 C12_14 1_555 1_555
C14_14 C9_16 1_555 1_555
H7_14 C14_14 1_555 1_555
C15_14 C13_14 1_555 1_555
H8_14 C15_14 1_555 1_555
H9_14 C15_14 1_555 1_555
H10_14 C15_14 1_555 1_555
C16_14 O1_14 1_555 1_555
H11_14 C16_14 1_555 1_555
H12_14 C16_14 1_555 1_555
H13_14 C16_14 1_555 1_555
C17_16 C11_16 1_555 1_555
C18_14 C17_16 1_555 1_555
H14_14 C18_14 1_555 1_555
C19_16 N3_16 1_555 1_555
C20_16 N4_16 1_555 1_555
C21_16 C20_16 1_555 1_555
C24_16 N4_16 1_555 1_555
H18_16 C24_16 1_555 1_555
Ag2_16 N1_16 1_555 1_555
N5_16 Ag3 1_555 1_555
N6_16 Ag3 1_555 1_555
N2_16 Ag2_16 1_555 1_555
S2_16 C19_16 1_555 1_555
C4_16 C5_16 1_555 1_555
C7_16 C8_16 1_555 1_555
C13_14 C14_14 1_555 1_555
C19_16 C20_16 1_555 1_555
N1_17 C1_17 1_555 1_555
N2_17 C6_17 1_555 1_555
O1_15 C10_15 1_555 1_555
S1_17 C6_17 1_555 1_555
C1_17 H1_17 1_555 1_555
C2_13 C1_17 1_555 1_555
H2_13 C2_13 1_555 1_555
C3_13 C2_13 1_555 1_555
H3_13 C3_13 1_555 1_555
C4_17 C3_13 1_555 1_555
H4_17 C4_17 1_555 1_555
C5_17 N1_17 1_555 1_555
C6_17 C5_17 1_555 1_555
C7_17 S1_17 1_555 1_555
H5_15 C7_17 1_555 1_555
C8_17 N2_17 1_555 1_555
C9_17 C8_17 1_555 1_555
C10_15 C9_17 1_555 1_555
C16_15 O1_15 1_555 1_555
H11_15 C16_15 1_555 1_555
H12_15 C16_15 1_555 1_555
H13_15 C16_15 1_555 1_555
H14_15 C18_15 1_555 1_555
Ag2_17 N1_17 1_555 1_555
N2_17 Ag2_17 1_555 1_555
C4_17 C5_17 1_555 1_555
C7_17 C8_17 1_555 1_555
Ag3_3 N3_17 1_555 1_555
N3_17 C17_17 1_555 1_555
N4_17 Ag3_3 1_555 1_555
C12_15 C11_17 1_555 1_555
H6_15 C12_15 1_555 1_555
C13_15 C12_15 1_555 1_555
H7_15 C14_15 1_555 1_555
C15_15 C13_15 1_555 1_555
H8_15 C15_15 1_555 1_555
H9_15 C15_15 1_555 1_555
H10_15 C15_15 1_555 1_555
C17_17 C11_17 1_555 1_555
C19_17 N3_17 1_555 1_555
C20_17 N4_17 1_555 1_555
C21_17 C20_17 1_555 1_555
C24_17 N4_17 1_555 1_555
H18_17 C24_17 1_555 1_555
N5_17 Ag3_3 1_555 1_555
N6_17 Ag3_3 1_555 1_555
S2_17 C19_17 1_555 1_555
C13_15 C14_15 1_555 1_555
C19_17 C20_17 1_555 1_555
Ag3_2 N3_18 1_555 1_555
N3_18 C17_18 1_555 1_555
N4_18 Ag3_2 1_555 1_555
C12_16 C11_18 1_555 1_555
H6_16 C12_16 1_555 1_555
C13_16 C12_16 1_555 1_555
H7_16 C14_16 1_555 1_555
C15_16 C13_16 1_555 1_555
H8_16 C15_16 1_555 1_555
H9_16 C15_16 1_555 1_555
H10_16 C15_16 1_555 1_555
C17_18 C11_18 1_555 1_555
C19_18 N3_18 1_555 1_555
C20_18 N4_18 1_555 1_555
C21_18 C20_18 1_555 1_555
H15_14 C21_18 1_555 1_555
C22_14 C21_18 1_555 1_555
H16_14 C22_14 1_555 1_555
C23_14 C22_14 1_555 1_555
H17_14 C23_14 1_555 1_555
C24_18 N4_18 1_555 1_555
H18_18 C24_18 1_555 1_555
N5_18 Ag3_2 1_555 1_555
N6_18 Ag3_2 1_555 1_555
S2_18 C19_18 1_555 1_555
C13_16 C14_16 1_555 1_555
C19_18 C20_18 1_555 1_555
C23_14 C24_18 1_555 1_555
N1_18 C1_18 1_555 1_555
N2_18 C6_18 1_555 1_555
O1_16 C10_16 1_555 1_555
S1_18 C6_18 1_555 1_555
C1_18 H1_18 1_555 1_555
C2_14 C1_18 1_555 1_555
H2_14 C2_14 1_555 1_555
C3_14 C2_14 1_555 1_555
H3_14 C3_14 1_555 1_555
C4_18 C3_14 1_555 1_555
H4_18 C4_18 1_555 1_555
C5_18 N1_18 1_555 1_555
C6_18 C5_18 1_555 1_555
C7_18 S1_18 1_555 1_555
H5_16 C7_18 1_555 1_555
C8_18 N2_18 1_555 1_555
C9_18 C8_18 1_555 1_555
C10_16 C9_18 1_555 1_555
C16_16 O1_16 1_555 1_555
H11_16 C16_16 1_555 1_555
H12_16 C16_16 1_555 1_555
H13_16 C16_16 1_555 1_555
H14_16 C18_16 1_555 1_555
Ag2_18 N1_18 1_555 1_555
N2_18 Ag2_18 1_555 1_555
C4_18 C5_18 1_555 1_555
C7_18 C8_18 1_555 1_555
Ag2_14 N3_19 1_555 1_555
N5_15 C1_19 1_555 1_555
N6_15 C6_19 1_555 1_555
N3_19 C17_19 1_555 1_555
N4_19 Ag2_14 1_555 1_555
O1_17 C10_17 1_555 1_555
S1_19 C6_19 1_555 1_555
S2_19 C18_17 1_555 1_555
C1_19 H1_19 1_555 1_555
C2_15 C1_19 1_555 1_555
H2_15 C2_15 1_555 1_555
C3_15 C2_15 1_555 1_555
H3_15 C3_15 1_555 1_555
C4_19 C3_15 1_555 1_555
H4_19 C4_19 1_555 1_555
C5_19 N5_15 1_555 1_555
C6_19 C5_19 1_555 1_555
C7_19 S1_19 1_555 1_555
H5_17 C7_19 1_555 1_555
C8_19 N6_15 1_555 1_555
C9_19 C8_19 1_555 1_555
C10_17 C9_19 1_555 1_555
C11_19 C10_17 1_555 1_555
C12_17 C11_19 1_555 1_555
H6_17 C12_17 1_555 1_555
C13_17 C12_17 1_555 1_555
C14_17 C9_19 1_555 1_555
H7_17 C14_17 1_555 1_555
C15_17 C13_17 1_555 1_555
H8_17 C15_17 1_555 1_555
H9_17 C15_17 1_555 1_555
H10_17 C15_17 1_555 1_555
C16_17 O1_17 1_555 1_555
H11_17 C16_17 1_555 1_555
H12_17 C16_17 1_555 1_555
H13_17 C16_17 1_555 1_555
C17_19 C11_19 1_555 1_555
C18_17 C17_19 1_555 1_555
H14_17 C18_17 1_555 1_555
C19_19 N3_19 1_555 1_555
C20_19 N4_19 1_555 1_555
C21_19 C20_19 1_555 1_555
H15_15 C21_19 1_555 1_555
C22_15 C21_19 1_555 1_555
H16_15 C22_15 1_555 1_555
C23_15 C22_15 1_555 1_555
H17_15 C23_15 1_555 1_555
C24_19 N4_19 1_555 1_555
H18_19 C24_19 1_555 1_555
Ag2_17 Ag2_14 1_555 1_555
S2_19 C19_19 1_555 1_555
C4_19 C5_19 1_555 1_555
C7_19 C8_19 1_555 1_555
C13_17 C14_17 1_555 1_555
C19_19 C20_19 1_555 1_555
C23_15 C24_19 1_555 1_555
N5_13 C1_20 1_555 1_555
N6_13 C6_20 1_555 1_555
S1_20 C6_20 1_555 1_555
C1_20 H1_20 1_555 1_555
C2_16 C1_20 1_555 1_555
H2_16 C2_16 1_555 1_555
C3_16 C2_16 1_555 1_555
H3_16 C3_16 1_555 1_555
C4_20 C3_16 1_555 1_555
H4_20 C4_20 1_555 1_555
C5_20 N5_13 1_555 1_555
C6_20 C5_20 1_555 1_555
C7_20 S1_20 1_555 1_555
H5_18 C7_20 1_555 1_555
C8_20 N6_13 1_555 1_555
C9_20 C8_20 1_555 1_555
C14_18 C9_20 1_555 1_555
H7_18 C14_18 1_555 1_555
H12_18 C16_18 1_555 1_555
C4_20 C5_20 1_555 1_555
C7_20 C8_20 1_555 1_555
Ag2_15 N3_20 1_555 1_555
N3_20 C17_20 1_555 1_555
N4_20 Ag2_15 1_555 1_555
O1_18 C10_18 1_555 1_555
S2_20 C18_18 1_555 1_555
C11_20 C10_18 1_555 1_555
C12_18 C11_20 1_555 1_555
H6_18 C12_18 1_555 1_555
C13_18 C12_18 1_555 1_555
C15_18 C13_18 1_555 1_555
H8_18 C15_18 1_555 1_555
H9_18 C15_18 1_555 1_555
C17_20 C11_20 1_555 1_555
C18_18 C17_20 1_555 1_555
H14_18 C18_18 1_555 1_555
C19_20 N3_20 1_555 1_555
C20_20 N4_20 1_555 1_555
C21_20 C20_20 1_555 1_555
H15_16 C21_20 1_555 1_555
C22_16 C21_20 1_555 1_555
H16_16 C22_16 1_555 1_555
C23_16 C22_16 1_555 1_555
H17_16 C23_16 1_555 1_555
C24_20 N4_20 1_555 1_555
H18_20 C24_20 1_555 1_555
Ag2_16 Ag2_15 1_555 1_555
S2_20 C19_20 1_555 1_555
C19_20 C20_20 1_555 1_555
C23_16 C24_20 1_555 1_555
Ag2_13 N3_21 1_555 1_555
N3_21 C17_21 1_555 1_555
N4_21 Ag2_13 1_555 1_555
O1_19 C10_19 1_555 1_555
S2_21 C18_19 1_555 1_555
C11_21 C10_19 1_555 1_555
C12_19 C11_21 1_555 1_555
H6_19 C12_19 1_555 1_555
C13_19 C12_19 1_555 1_555
C15_19 C13_19 1_555 1_555
H8_19 C15_19 1_555 1_555
H9_19 C15_19 1_555 1_555
C17_21 C11_21 1_555 1_555
C18_19 C17_21 1_555 1_555
H14_19 C18_19 1_555 1_555
C19_21 N3_21 1_555 1_555
C20_21 N4_21 1_555 1_555
C21_21 C20_21 1_555 1_555
H15_17 C21_21 1_555 1_555
C22_17 C21_21 1_555 1_555
H16_17 C22_17 1_555 1_555
C23_17 C22_17 1_555 1_555
H17_17 C23_17 1_555 1_555
C24_21 N4_21 1_555 1_555
H18_21 C24_21 1_555 1_555
Ag2_18 Ag2_13 1_555 1_555
S2_21 C19_21 1_555 1_555
C19_21 C20_21 1_555 1_555
C23_17 C24_21 1_555 1_555
N5_14 C1_21 1_555 1_555
N6_14 C6_21 1_555 1_555
S1_21 C6_21 1_555 1_555
C1_21 H1_21 1_555 1_555
C2_17 C1_21 1_555 1_555
H2_17 C2_17 1_555 1_555
C3_17 C2_17 1_555 1_555
H3_17 C3_17 1_555 1_555
C4_21 C3_17 1_555 1_555
H4_21 C4_21 1_555 1_555
C5_21 N5_14 1_555 1_555
C6_21 C5_21 1_555 1_555
C7_21 S1_21 1_555 1_555
H5_19 C7_21 1_555 1_555
C8_21 N6_14 1_555 1_555
C9_21 C8_21 1_555 1_555
C14_19 C9_21 1_555 1_555
H7_19 C14_19 1_555 1_555
H12_19 C16_19 1_555 1_555
C4_21 C5_21 1_555 1_555
C7_21 C8_21 1_555 1_555
N5_12 C1_22 1_555 1_555
N6_12 C6_22 1_555 1_555
S1_22 C6_22 1_555 1_555
C1_22 H1_22 1_555 1_555
C2_18 C1_22 1_555 1_555
H2_18 C2_18 1_555 1_555
C3_18 C2_18 1_555 1_555
H3_18 C3_18 1_555 1_555
C4_22 C3_18 1_555 1_555
H4_22 C4_22 1_555 1_555
C5_22 N5_12 1_555 1_555
C6_22 C5_22 1_555 1_555
C7_22 S1_22 1_555 1_555
H5_20 C7_22 1_555 1_555
C8_22 N6_12 1_555 1_555
C9_22 C8_22 1_555 1_555
C14_20 C9_22 1_555 1_555
H7_20 C14_20 1_555 1_555
H12_20 C16_20 1_555 1_555
C4_22 C5_22 1_555 1_555
C7_22 C8_22 1_555 1_555
Ag2_11 N3_22 1_555 1_555
N3_22 C17_22 1_555 1_555
N4_22 Ag2_11 1_555 1_555
O1_20 C10_20 1_555 1_555
S2_22 C18_20 1_555 1_555
C11_22 C10_20 1_555 1_555
C12_20 C11_22 1_555 1_555
H6_20 C12_20 1_555 1_555
C13_20 C12_20 1_555 1_555
C15_20 C13_20 1_555 1_555
H8_20 C15_20 1_555 1_555
H9_20 C15_20 1_555 1_555
C17_22 C11_22 1_555 1_555
C18_20 C17_22 1_555 1_555
H14_20 C18_20 1_555 1_555
C19_22 N3_22 1_555 1_555
C20_22 N4_22 1_555 1_555
C21_22 C20_22 1_555 1_555
H15_18 C21_22 1_555 1_555
C22_18 C21_22 1_555 1_555
H16_18 C22_18 1_555 1_555
C23_18 C22_18 1_555 1_555
H17_18 C23_18 1_555 1_555
C24_22 N4_22 1_555 1_555
H18_22 C24_22 1_555 1_555
Ag2_8 Ag2_11 1_555 1_555
S2_22 C19_22 1_555 1_555
C19_22 C20_22 1_555 1_555
C23_18 C24_22 1_555 1_555
Ag2_12 N3_23 1_555 1_555
N3_23 C17_23 1_555 1_555
N4_23 Ag2_12 1_555 1_555
O1_21 C10_21 1_555 1_555
S2_23 C18_21 1_555 1_555
C11_23 C10_21 1_555 1_555
C12_21 C11_23 1_555 1_555
H6_21 C12_21 1_555 1_555
C13_21 C12_21 1_555 1_555
C15_21 C13_21 1_555 1_555
H8_21 C15_21 1_555 1_555
H9_21 C15_21 1_555 1_555
C17_23 C11_23 1_555 1_555
C18_21 C17_23 1_555 1_555
H14_21 C18_21 1_555 1_555
C19_23 N3_23 1_555 1_555
C20_23 N4_23 1_555 1_555
C21_23 C20_23 1_555 1_555
H15_19 C21_23 1_555 1_555
C22_19 C21_23 1_555 1_555
H16_19 C22_19 1_555 1_555
C23_19 C22_19 1_555 1_555
H17_19 C23_19 1_555 1_555
C24_23 N4_23 1_555 1_555
H18_23 C24_23 1_555 1_555
Ag2_7 Ag2_12 1_555 1_555
S2_23 C19_23 1_555 1_555
C19_23 C20_23 1_555 1_555
C23_19 C24_23 1_555 1_555
N5_10 C1_23 1_555 1_555
N6_10 C6_23 1_555 1_555
S1_23 C6_23 1_555 1_555
C1_23 H1_23 1_555 1_555
C2_19 C1_23 1_555 1_555
H2_19 C2_19 1_555 1_555
C3_19 C2_19 1_555 1_555
H3_19 C3_19 1_555 1_555
C4_23 C3_19 1_555 1_555
H4_23 C4_23 1_555 1_555
C5_23 N5_10 1_555 1_555
C6_23 C5_23 1_555 1_555
C7_23 S1_23 1_555 1_555
H5_21 C7_23 1_555 1_555
C8_23 N6_10 1_555 1_555
C9_23 C8_23 1_555 1_555
C14_21 C9_23 1_555 1_555
H7_21 C14_21 1_555 1_555
H12_21 C16_21 1_555 1_555
C4_23 C5_23 1_555 1_555
C7_23 C8_23 1_555 1_555
Ag2_10 N3_24 1_555 1_555
N5_11 C1_24 1_555 1_555
N6_11 C6_24 1_555 1_555
N3_24 C17_24 1_555 1_555
N4_24 Ag2_10 1_555 1_555
O1_22 C10_22 1_555 1_555
S1_24 C6_24 1_555 1_555
S2_24 C18_22 1_555 1_555
C1_24 H1_24 1_555 1_555
C2_20 C1_24 1_555 1_555
H2_20 C2_20 1_555 1_555
C3_20 C2_20 1_555 1_555
H3_20 C3_20 1_555 1_555
C4_24 C3_20 1_555 1_555
H4_24 C4_24 1_555 1_555
C5_24 N5_11 1_555 1_555
C6_24 C5_24 1_555 1_555
C7_24 S1_24 1_555 1_555
H5_22 C7_24 1_555 1_555
C8_24 N6_11 1_555 1_555
C9_24 C8_24 1_555 1_555
C10_22 C9_24 1_555 1_555
C11_24 C10_22 1_555 1_555
C12_22 C11_24 1_555 1_555
H6_22 C12_22 1_555 1_555
C13_22 C12_22 1_555 1_555
C14_22 C9_24 1_555 1_555
H7_22 C14_22 1_555 1_555
C15_22 C13_22 1_555 1_555
H8_22 C15_22 1_555 1_555
H9_22 C15_22 1_555 1_555
H10_22 C15_22 1_555 1_555
C16_22 O1_22 1_555 1_555
H11_22 C16_22 1_555 1_555
H12_22 C16_22 1_555 1_555
H13_22 C16_22 1_555 1_555
C17_24 C11_24 1_555 1_555
C18_22 C17_24 1_555 1_555
H14_22 C18_22 1_555 1_555
C19_24 N3_24 1_555 1_555
C20_24 N4_24 1_555 1_555
C21_24 C20_24 1_555 1_555
H15_20 C21_24 1_555 1_555
C22_20 C21_24 1_555 1_555
H16_20 C22_20 1_555 1_555
C23_20 C22_20 1_555 1_555
H17_20 C23_20 1_555 1_555
C24_24 N4_24 1_555 1_555
H18_24 C24_24 1_555 1_555
Ag2_9 Ag2_10 1_555 1_555
S2_24 C19_24 1_555 1_555
C4_24 C5_24 1_555 1_555
C7_24 C8_24 1_555 1_555
C13_22 C14_22 1_555 1_555
C19_24 C20_24 1_555 1_555
C23_20 C24_24 1_555 1_555
N5_9 C1_25 1_555 1_555
N6_9 C6_25 1_555 1_555
S1_25 C6_25 1_555 1_555
C1_25 H1_25 1_555 1_555
C2_21 C1_25 1_555 1_555
H2_21 C2_21 1_555 1_555
C3_21 C2_21 1_555 1_555
H3_21 C3_21 1_555 1_555
C4_25 C3_21 1_555 1_555
H4_25 C4_25 1_555 1_555
C5_25 N5_9 1_555 1_555
C6_25 C5_25 1_555 1_555
C7_25 S1_25 1_555 1_555
C8_25 N6_9 1_555 1_555
C9_25 C8_25 1_555 1_555
C4_25 C5_25 1_555 1_555
C7_25 C8_25 1_555 1_555
Ag2_8 N3_25 1_555 1_555
N3_25 C17_25 1_555 1_555
N4_25 Ag2_8 1_555 1_555
C17_25 C11_25 1_555 1_555
C19_25 N3_25 1_555 1_555
C20_25 N4_25 1_555 1_555
C21_25 C20_25 1_555 1_555
H15_21 C21_25 1_555 1_555
C22_21 C21_25 1_555 1_555
H16_21 C22_21 1_555 1_555
C23_21 C22_21 1_555 1_555
H17_21 C23_21 1_555 1_555
C24_25 N4_25 1_555 1_555
H18_25 C24_25 1_555 1_555
S2_25 C19_25 1_555 1_555
C19_25 C20_25 1_555 1_555
C23_21 C24_25 1_555 1_555
N5_7 C1_26 1_555 1_555
N6_7 C6_26 1_555 1_555
S1_26 C6_26 1_555 1_555
C1_26 H1_26 1_555 1_555
C2_22 C1_26 1_555 1_555
H2_22 C2_22 1_555 1_555
C3_22 C2_22 1_555 1_555
H3_22 C3_22 1_555 1_555
C4_26 C3_22 1_555 1_555
H4_26 C4_26 1_555 1_555
C5_26 N5_7 1_555 1_555
C6_26 C5_26 1_555 1_555
C7_26 S1_26 1_555 1_555
C8_26 N6_7 1_555 1_555
C9_26 C8_26 1_555 1_555
H6_23 C12_23 1_555 1_555
C13_23 C12_23 1_555 1_555
C14_23 C9_26 1_555 1_555
H7_23 C14_23 1_555 1_555
C15_23 C13_23 1_555 1_555
H8_23 C15_23 1_555 1_555
H9_23 C15_23 1_555 1_555
H10_23 C15_23 1_555 1_555
C4_26 C5_26 1_555 1_555
C7_26 C8_26 1_555 1_555
C13_23 C14_23 1_555 1_555
Ag2_9 N3_26 1_555 1_555
N3_26 C17_26 1_555 1_555
N4_26 Ag2_9 1_555 1_555
O1_23 C10_23 1_555 1_555
S2_26 C18_23 1_555 1_555
C11_26 C10_23 1_555 1_555
C16_23 O1_23 1_555 1_555
H11_23 C16_23 1_555 1_555
H12_23 C16_23 1_555 1_555
H13_23 C16_23 1_555 1_555
C17_26 C11_26 1_555 1_555
C18_23 C17_26 1_555 1_555
H14_23 C18_23 1_555 1_555
C19_26 N3_26 1_555 1_555
C20_26 N4_26 1_555 1_555
C21_26 C20_26 1_555 1_555
C24_26 N4_26 1_555 1_555
H18_26 C24_26 1_555 1_555
S2_26 C19_26 1_555 1_555
C19_26 C20_26 1_555 1_555
Ag2_7 N3_27 1_555 1_555
N3_27 C17_27 1_555 1_555
N4_27 Ag2_7 1_555 1_555
C17_27 C11_27 1_555 1_555
C19_27 N3_27 1_555 1_555
C20_27 N4_27 1_555 1_555
C21_27 C20_27 1_555 1_555
C24_27 N4_27 1_555 1_555
H18_27 C24_27 1_555 1_555
S2_27 C19_27 1_555 1_555
C19_27 C20_27 1_555 1_555
N5_8 C1_27 1_555 1_555
N6_8 C6_27 1_555 1_555
S1_27 C6_27 1_555 1_555
C1_27 H1_27 1_555 1_555
C2_23 C1_27 1_555 1_555
H2_23 C2_23 1_555 1_555
C3_23 C2_23 1_555 1_555
H3_23 C3_23 1_555 1_555
C4_27 C3_23 1_555 1_555
H4_27 C4_27 1_555 1_555
C5_27 N5_8 1_555 1_555
C6_27 C5_27 1_555 1_555
C7_27 S1_27 1_555 1_555
C8_27 N6_8 1_555 1_555
C9_27 C8_27 1_555 1_555
C4_27 C5_27 1_555 1_555
C7_27 C8_27 1_555 1_555
H5_24 C7_28 1_555 1_555
H7_24 C14_24 1_555 1_555
C15_24 C13_24 1_555 1_555
H8_24 C15_24 1_555 1_555
H9_24 C15_24 1_555 1_555
H10_24 C15_24 1_555 1_555
C13_24 C14_24 1_555 1_555
Ag2_5 N3_28 1_555 1_555
N5_6 C1_28 1_555 1_555
N6_6 C6_28 1_555 1_555
N3_28 C17_28 1_555 1_555
N4_28 Ag2_5 1_555 1_555
O1_24 C10_24 1_555 1_555
S1_28 C6_28 1_555 1_555
S2_28 C18_24 1_555 1_555
C1_28 H1_28 1_555 1_555
C2_24 C1_28 1_555 1_555
H2_24 C2_24 1_555 1_555
C3_24 C2_24 1_555 1_555
H3_24 C3_24 1_555 1_555
C4_28 C3_24 1_555 1_555
H4_28 C4_28 1_555 1_555
C5_28 N5_6 1_555 1_555
C6_28 C5_28 1_555 1_555
C8_28 N6_6 1_555 1_555
C9_28 C8_28 1_555 1_555
C10_24 C9_28 1_555 1_555
C11_28 C10_24 1_555 1_555
C12_24 C11_28 1_555 1_555
H6_24 C12_24 1_555 1_555
C16_24 O1_24 1_555 1_555
H11_24 C16_24 1_555 1_555
H12_24 C16_24 1_555 1_555
H13_24 C16_24 1_555 1_555
C17_28 C11_28 1_555 1_555
C18_24 C17_28 1_555 1_555
H14_24 C18_24 1_555 1_555
C19_28 N3_28 1_555 1_555
C20_28 N4_28 1_555 1_555
C21_28 C20_28 1_555 1_555
H15_22 C21_28 1_555 1_555
C22_22 C21_28 1_555 1_555
H16_22 C22_22 1_555 1_555
C23_22 C22_22 1_555 1_555
H17_22 C23_22 1_555 1_555
C24_28 N4_28 1_555 1_555
H18_28 C24_28 1_555 1_555
S2_28 C19_28 1_555 1_555
C4_28 C5_28 1_555 1_555
C19_28 C20_28 1_555 1_555
C23_22 C24_28 1_555 1_555
Ag2_6 N3_29 1_555 1_555
N5_4 C1_29 1_555 1_555
N6_4 C6_29 1_555 1_555
N3_29 C17_29 1_555 1_555
N4_29 Ag2_6 1_555 1_555
O1_25 C10_25 1_555 1_555
S1_29 C6_29 1_555 1_555
S2_29 C18_25 1_555 1_555
C1_29 H1_29 1_555 1_555
H4_29 C4_29 1_555 1_555
C5_29 N5_4 1_555 1_555
C6_29 C5_29 1_555 1_555
C7_29 S1_29 1_555 1_555
H5_25 C7_29 1_555 1_555
C8_29 N6_4 1_555 1_555
C9_29 C8_29 1_555 1_555
C10_25 C9_29 1_555 1_555
C11_29 C10_25 1_555 1_555
C12_25 C11_29 1_555 1_555
H6_25 C12_25 1_555 1_555
C13_25 C12_25 1_555 1_555
C14_25 C9_29 1_555 1_555
H7_25 C14_25 1_555 1_555
C15_25 C13_25 1_555 1_555
H8_25 C15_25 1_555 1_555
H9_25 C15_25 1_555 1_555
H10_25 C15_25 1_555 1_555
C16_25 O1_25 1_555 1_555
H11_25 C16_25 1_555 1_555
H12_25 C16_25 1_555 1_555
H13_25 C16_25 1_555 1_555
C17_29 C11_29 1_555 1_555
C18_25 C17_29 1_555 1_555
H14_25 C18_25 1_555 1_555
C19_29 N3_29 1_555 1_555
C20_29 N4_29 1_555 1_555
C21_29 C20_29 1_555 1_555
H15_23 C21_29 1_555 1_555
C22_23 C21_29 1_555 1_555
H16_23 C22_23 1_555 1_555
C23_23 C22_23 1_555 1_555
H17_23 C23_23 1_555 1_555
C24_29 N4_29 1_555 1_555
H18_29 C24_29 1_555 1_555
Ag2 Ag2_6 1_555 1_555
S2_29 C19_29 1_555 1_555
C4_29 C5_29 1_555 1_555
C7_29 C8_29 1_555 1_555
C13_25 C14_25 1_555 1_555
C19_29 C20_29 1_555 1_555
C23_23 C24_29 1_555 1_555
Ag2_4 N3_30 1_555 1_555
N5_5 C1_30 1_555 1_555
N6_5 C6_30 1_555 1_555
N3_30 C17_30 1_555 1_555
N4_30 Ag2_4 1_555 1_555
O1_26 C10_26 1_555 1_555
S1_30 C6_30 1_555 1_555
S2_30 C18_26 1_555 1_555
C1_30 H1_30 1_555 1_555
H4_30 C4_30 1_555 1_555
C5_30 N5_5 1_555 1_555
C6_30 C5_30 1_555 1_555
C8_30 N6_5 1_555 1_555
C9_30 C8_30 1_555 1_555
C10_26 C9_30 1_555 1_555
C11_30 C10_26 1_555 1_555
C12_26 C11_30 1_555 1_555
H6_26 C12_26 1_555 1_555
C16_26 O1_26 1_555 1_555
H11_26 C16_26 1_555 1_555
H12_26 C16_26 1_555 1_555
H13_26 C16_26 1_555 1_555
C17_30 C11_30 1_555 1_555
C18_26 C17_30 1_555 1_555
H14_26 C18_26 1_555 1_555
C19_30 N3_30 1_555 1_555
C20_30 N4_30 1_555 1_555
C21_30 C20_30 1_555 1_555
H15_24 C21_30 1_555 1_555
C22_24 C21_30 1_555 1_555
H16_24 C22_24 1_555 1_555
C23_24 C22_24 1_555 1_555
H17_24 C23_24 1_555 1_555
C24_30 N4_30 1_555 1_555
H18_30 C24_30 1_555 1_555
S2_30 C19_30 1_555 1_555
C4_30 C5_30 1_555 1_555
C19_30 C20_30 1_555 1_555
C23_24 C24_30 1_555 1_555
H5_26 C7_30 1_555 1_555
H7_26 C14_26 1_555 1_555
C15_26 C13_26 1_555 1_555
H8_26 C15_26 1_555 1_555
H9_26 C15_26 1_555 1_555
H10_26 C15_26 1_555 1_555
C13_26 C14_26 1_555 1_555
Ag2_2 N3_31 1_555 1_555
N5_3 C1_31 1_555 1_555
N6_3 C6_31 1_555 1_555
N3_31 C17_31 1_555 1_555
N4_31 Ag2_2 1_555 1_555
O1_27 C10_27 1_555 1_555
S1_31 C6_31 1_555 1_555
S2_31 C18_27 1_555 1_555
C1_31 H1_31 1_555 1_555
H4_31 C4_31 1_555 1_555
C5_31 N5_3 1_555 1_555
C6_31 C5_31 1_555 1_555
C8_31 N6_3 1_555 1_555
C9_31 C8_31 1_555 1_555
C10_27 C9_31 1_555 1_555
C11_31 C10_27 1_555 1_555
C12_27 C11_31 1_555 1_555
H6_27 C12_27 1_555 1_555
C16_27 O1_27 1_555 1_555
H11_27 C16_27 1_555 1_555
H12_27 C16_27 1_555 1_555
H13_27 C16_27 1_555 1_555
C17_31 C11_31 1_555 1_555
C18_27 C17_31 1_555 1_555
H14_27 C18_27 1_555 1_555
C19_31 N3_31 1_555 1_555
C20_31 N4_31 1_555 1_555
C21_31 C20_31 1_555 1_555
H15_25 C21_31 1_555 1_555
C22_25 C21_31 1_555 1_555
H16_25 C22_25 1_555 1_555
C23_25 C22_25 1_555 1_555
H17_25 C23_25 1_555 1_555
C24_31 N4_31 1_555 1_555
H18_31 C24_31 1_555 1_555
S2_31 C19_31 1_555 1_555
C4_31 C5_31 1_555 1_555
C19_31 C20_31 1_555 1_555
C23_25 C24_31 1_555 1_555
H5_27 C7_31 1_555 1_555
H7_27 C14_27 1_555 1_555
C15_27 C13_27 1_555 1_555
H8_27 C15_27 1_555 1_555
H9_27 C15_27 1_555 1_555
H10_27 C15_27 1_555 1_555
C13_27 C14_27 1_555 1_555
H5_28 C7_32 1_555 1_555
H7_28 C14_28 1_555 1_555
C15_28 C13_28 1_555 1_555
H8_28 C15_28 1_555 1_555
H9_28 C15_28 1_555 1_555
H10_28 C15_28 1_555 1_555
C13_28 C14_28 1_555 1_555
Ag2_3 N3_32 1_555 1_555
N5 C1_32 1_555 1_555
N6 C6_32 1_555 1_555
N3_32 C17_32 1_555 1_555
N4_32 Ag2_3 1_555 1_555
O1_28 C10_28 1_555 1_555
S1_32 C6_32 1_555 1_555
S2_32 C18_28 1_555 1_555
C1_32 H1_32 1_555 1_555
C2_25 C1_32 1_555 1_555
H2_25 C2_25 1_555 1_555
C3_25 C2_25 1_555 1_555
H3_25 C3_25 1_555 1_555
C4_32 C3_25 1_555 1_555
H4_32 C4_32 1_555 1_555
C5_32 N5 1_555 1_555
C6_32 C5_32 1_555 1_555
C8_32 N6 1_555 1_555
C9_32 C8_32 1_555 1_555
C10_28 C9_32 1_555 1_555
C11_32 C10_28 1_555 1_555
C12_28 C11_32 1_555 1_555
H6_28 C12_28 1_555 1_555
C16_28 O1_28 1_555 1_555
H11_28 C16_28 1_555 1_555
H12_28 C16_28 1_555 1_555
H13_28 C16_28 1_555 1_555
C17_32 C11_32 1_555 1_555
C18_28 C17_32 1_555 1_555
H14_28 C18_28 1_555 1_555
C19_32 N3_32 1_555 1_555
C20_32 N4_32 1_555 1_555
C21_32 C20_32 1_555 1_555
H15_26 C21_32 1_555 1_555
C22_26 C21_32 1_555 1_555
H16_26 C22_26 1_555 1_555
C23_26 C22_26 1_555 1_555
H17_26 C23_26 1_555 1_555
C24_32 N4_32 1_555 1_555
H18_32 C24_32 1_555 1_555
S2_32 C19_32 1_555 1_555
C4_32 C5_32 1_555 1_555
C19_32 C20_32 1_555 1_555
C23_26 C24_32 1_555 1_555
Ag2 N3_33 1_555 1_555
N5_2 C1_33 1_555 1_555
N6_2 C6_33 1_555 1_555
N3_33 C17_33 1_555 1_555
N4_33 Ag2 1_555 1_555
O1_29 C10_29 1_555 1_555
S1_33 C6_33 1_555 1_555
S2_33 C18_29 1_555 1_555
C1_33 H1_33 1_555 1_555
H4_33 C4_33 1_555 1_555
C5_33 N5_2 1_555 1_555
C6_33 C5_33 1_555 1_555
C7_33 S1_33 1_555 1_555
H5_29 C7_33 1_555 1_555
C8_33 N6_2 1_555 1_555
C9_33 C8_33 1_555 1_555
C10_29 C9_33 1_555 1_555
C11_33 C10_29 1_555 1_555
C12_29 C11_33 1_555 1_555
H6_29 C12_29 1_555 1_555
C13_29 C12_29 1_555 1_555
C14_29 C9_33 1_555 1_555
H7_29 C14_29 1_555 1_555
C15_29 C13_29 1_555 1_555
H8_29 C15_29 1_555 1_555
H9_29 C15_29 1_555 1_555
H10_29 C15_29 1_555 1_555
C16_29 O1_29 1_555 1_555
H11_29 C16_29 1_555 1_555
H12_29 C16_29 1_555 1_555
H13_29 C16_29 1_555 1_555
C17_33 C11_33 1_555 1_555
C18_29 C17_33 1_555 1_555
H14_29 C18_29 1_555 1_555
C19_33 N3_33 1_555 1_555
C20_33 N4_33 1_555 1_555
C21_33 C20_33 1_555 1_555
H15_27 C21_33 1_555 1_555
C22_27 C21_33 1_555 1_555
H16_27 C22_27 1_555 1_555
C23_27 C22_27 1_555 1_555
H17_27 C23_27 1_555 1_555
C24_33 N4_33 1_555 1_555
H18_33 C24_33 1_555 1_555
S2_33 C19_33 1_555 1_555
C4_33 C5_33 1_555 1_555
C7_33 C8_33 1_555 1_555
C13_29 C14_29 1_555 1_555
C19_33 C20_33 1_555 1_555
C23_27 C24_33 1_555 1_555
Ag2_17 N3_34 1_555 1_555
N5_18 C1_34 1_555 1_555
N6_18 C6_34 1_555 1_555
N3_34 C17_34 1_555 1_555
N4_34 Ag2_17 1_555 1_555
O1_30 C10_30 1_555 1_555
S1_34 C6_34 1_555 1_555
S2_34 C18_30 1_555 1_555
C1_34 H1_34 1_555 1_555
C2_26 C1_34 1_555 1_555
H2_26 C2_26 1_555 1_555
C3_26 C2_26 1_555 1_555
H3_26 C3_26 1_555 1_555
C4_34 C3_26 1_555 1_555
H4_34 C4_34 1_555 1_555
C5_34 N5_18 1_555 1_555
C6_34 C5_34 1_555 1_555
C7_34 S1_34 1_555 1_555
H5_30 C7_34 1_555 1_555
C8_34 N6_18 1_555 1_555
C9_34 C8_34 1_555 1_555
C10_30 C9_34 1_555 1_555
C11_34 C10_30 1_555 1_555
C12_30 C11_34 1_555 1_555
H6_30 C12_30 1_555 1_555
C13_30 C12_30 1_555 1_555
C14_30 C9_34 1_555 1_555
H7_30 C14_30 1_555 1_555
C15_30 C13_30 1_555 1_555
H8_30 C15_30 1_555 1_555
H9_30 C15_30 1_555 1_555
H10_30 C15_30 1_555 1_555
C16_30 O1_30 1_555 1_555
H11_30 C16_30 1_555 1_555
H12_30 C16_30 1_555 1_555
H13_30 C16_30 1_555 1_555
C17_34 C11_34 1_555 1_555
C18_30 C17_34 1_555 1_555
H14_30 C18_30 1_555 1_555
C19_34 N3_34 1_555 1_555
C20_34 N4_34 1_555 1_555
C21_34 C20_34 1_555 1_555
C24_34 N4_34 1_555 1_555
H18_34 C24_34 1_555 1_555
S2_34 C19_34 1_555 1_555
C4_34 C5_34 1_555 1_555
C7_34 C8_34 1_555 1_555
C13_30 C14_30 1_555 1_555
C19_34 C20_34 1_555 1_555
Ag2_18 N3_35 1_555 1_555
N3_35 C17_35 1_555 1_555
N4_35 Ag2_18 1_555 1_555
C12_31 C11_35 1_555 1_555
H6_31 C12_31 1_555 1_555
C13_31 C12_31 1_555 1_555
H7_31 C14_31 1_555 1_555
C15_31 C13_31 1_555 1_555
H8_31 C15_31 1_555 1_555
H9_31 C15_31 1_555 1_555
H10_31 C15_31 1_555 1_555
C17_35 C11_35 1_555 1_555
C19_35 N3_35 1_555 1_555
C20_35 N4_35 1_555 1_555
C21_35 C20_35 1_555 1_555
C24_35 N4_35 1_555 1_555
H18_35 C24_35 1_555 1_555
S2_35 C19_35 1_555 1_555
C13_31 C14_31 1_555 1_555
C19_35 C20_35 1_555 1_555
N5_16 C1_35 1_555 1_555
N6_16 C6_35 1_555 1_555
O1_31 C10_31 1_555 1_555
S1_35 C6_35 1_555 1_555
C1_35 H1_35 1_555 1_555
C2_27 C1_35 1_555 1_555
H2_27 C2_27 1_555 1_555
C3_27 C2_27 1_555 1_555
H3_27 C3_27 1_555 1_555
C4_35 C3_27 1_555 1_555
H4_35 C4_35 1_555 1_555
C5_35 N5_16 1_555 1_555
C6_35 C5_35 1_555 1_555
C7_35 S1_35 1_555 1_555
H5_31 C7_35 1_555 1_555
C8_35 N6_16 1_555 1_555
C9_35 C8_35 1_555 1_555
C10_31 C9_35 1_555 1_555
C16_31 O1_31 1_555 1_555
H11_31 C16_31 1_555 1_555
H12_31 C16_31 1_555 1_555
H13_31 C16_31 1_555 1_555
H14_31 C18_31 1_555 1_555
C4_35 C5_35 1_555 1_555
C7_35 C8_35 1_555 1_555
N5_17 C1_36 1_555 1_555
N6_17 C6_36 1_555 1_555
O1_32 C10_32 1_555 1_555
S1_36 C6_36 1_555 1_555
C1_36 H1_36 1_555 1_555
C2_28 C1_36 1_555 1_555
H2_28 C2_28 1_555 1_555
C3_28 C2_28 1_555 1_555
H3_28 C3_28 1_555 1_555
C4_36 C3_28 1_555 1_555
H4_36 C4_36 1_555 1_555
C5_36 N5_17 1_555 1_555
C6_36 C5_36 1_555 1_555
C7_36 S1_36 1_555 1_555
H5_32 C7_36 1_555 1_555
C8_36 N6_17 1_555 1_555
C9_36 C8_36 1_555 1_555
C10_32 C9_36 1_555 1_555
C16_32 O1_32 1_555 1_555
H11_32 C16_32 1_555 1_555
H12_32 C16_32 1_555 1_555
H13_32 C16_32 1_555 1_555
H14_32 C18_32 1_555 1_555
C4_36 C5_36 1_555 1_555
C7_36 C8_36 1_555 1_555
Ag2_16 N3_36 1_555 1_555
N3_36 C17_36 1_555 1_555
N4_36 Ag2_16 1_555 1_555
C12_32 C11_36 1_555 1_555
H6_32 C12_32 1_555 1_555
C13_32 C12_32 1_555 1_555
H7_32 C14_32 1_555 1_555
C15_32 C13_32 1_555 1_555
H8_32 C15_32 1_555 1_555
H9_32 C15_32 1_555 1_555
H10_32 C15_32 1_555 1_555
C17_36 C11_36 1_555 1_555
C19_36 N3_36 1_555 1_555
C20_36 N4_36 1_555 1_555
C21_36 C20_36 1_555 1_555
H15_28 C21_36 1_555 1_555
C22_28 C21_36 1_555 1_555
H16_28 C22_28 1_555 1_555
C23_28 C22_28 1_555 1_555
H17_28 C23_28 1_555 1_555
C24_36 N4_36 1_555 1_555
H18_36 C24_36 1_555 1_555
S2_36 C19_36 1_555 1_555
C13_32 C14_32 1_555 1_555
C19_36 C20_36 1_555 1_555
C23_28 C24_36 1_555 1_555
H6_33 C12_33 1_555 1_555
C13_33 C12_33 1_555 1_555
H7_33 C14_33 1_555 1_555
C15_33 C13_33 1_555 1_555
H8_33 C15_33 1_555 1_555
H9_33 C15_33 1_555 1_555
H10_33 C15_33 1_555 1_555
C13_33 C14_33 1_555 1_555
O1_33 C10_33 1_555 1_555
C16_33 O1_33 1_555 1_555
H11_33 C16_33 1_555 1_555
H12_33 C16_33 1_555 1_555
H13_33 C16_33 1_555 1_555
H14_33 C18_33 1_555 1_555
H16_29 C22_29 1_555 1_555
C23_29 C22_29 1_555 1_555
H17_29 C23_29 1_555 1_555
O1_34 C10_34 1_555 1_555
C16_34 O1_34 1_555 1_555
H11_34 C16_34 1_555 1_555
H12_34 C16_34 1_555 1_555
H13_34 C16_34 1_555 1_555
H14_34 C18_34 1_555 1_555
H6_34 C12_34 1_555 1_555
C13_34 C12_34 1_555 1_555
H7_34 C14_34 1_555 1_555
C15_34 C13_34 1_555 1_555
H8_34 C15_34 1_555 1_555
H9_34 C15_34 1_555 1_555
H10_34 C15_34 1_555 1_555
C13_34 C14_34 1_555 1_555
H16_30 C22_30 1_555 1_555
C23_30 C22_30 1_555 1_555
H17_30 C23_30 1_555 1_555
H2_29 C2_29 1_555 1_555
C3_29 C2_29 1_555 1_555
H3_29 C3_29 1_555 1_555
H2_30 C2_30 1_555 1_555
C3_30 C2_30 1_555 1_555
H3_30 C3_30 1_555 1_555
H2_31 C2_31 1_555 1_555
C3_31 C2_31 1_555 1_555
H3_31 C3_31 1_555 1_555
H2_32 C2_32 1_555 1_555
C3_32 C2_32 1_555 1_555
H3_32 C3_32 1_555 1_555
H16_31 C22_31 1_555 1_555
C23_31 C22_31 1_555 1_555
H17_31 C23_31 1_555 1_555
H16_32 C22_32 1_555 1_555
C23_32 C22_32 1_555 1_555
H17_32 C23_32 1_555 1_555
O1_35 C10_35 1_555 1_555
C16_35 O1_35 1_555 1_555
H11_35 C16_35 1_555 1_555
H12_35 C16_35 1_555 1_555
H13_35 C16_35 1_555 1_555
H14_35 C18_35 1_555 1_555
H6_35 C12_35 1_555 1_555
C13_35 C12_35 1_555 1_555
H7_35 C14_35 1_555 1_555
C15_35 C13_35 1_555 1_555
H8_35 C15_35 1_555 1_555
H9_35 C15_35 1_555 1_555
H10_35 C15_35 1_555 1_555
C13_35 C14_35 1_555 1_555
H16_33 C22_33 1_555 1_555
C23_33 C22_33 1_555 1_555
H17_33 C23_33 1_555 1_555
H16_34 C22_34 1_555 1_555
C23_34 C22_34 1_555 1_555
H17_34 C23_34 1_555 1_555
H6_36 C12_36 1_555 1_555
C13_36 C12_36 1_555 1_555
H7_36 C14_36 1_555 1_555
C15_36 C13_36 1_555 1_555
H8_36 C15_36 1_555 1_555
H9_36 C15_36 1_555 1_555
H10_36 C15_36 1_555 1_555
C13_36 C14_36 1_555 1_555
O1_36 C10_36 1_555 1_555
C16_36 O1_36 1_555 1_555
H11_36 C16_36 1_555 1_555
H12_36 C16_36 1_555 1_555
H13_36 C16_36 1_555 1_555
H14_36 C18_36 1_555 1_555
H2_33 C2_33 1_555 1_555
C3_33 C2_33 1_555 1_555
H3_33 C3_33 1_555 1_555
H2_34 C2_34 1_555 1_555
C3_34 C2_34 1_555 1_555
H3_34 C3_34 1_555 1_555
H2_35 C2_35 1_555 1_555
C3_35 C2_35 1_555 1_555
H3_35 C3_35 1_555 1_555
H2_36 C2_36 1_555 1_555
C3_36 C2_36 1_555 1_555
H3_36 C3_36 1_555 1_555
H16_35 C22_35 1_555 1_555
C23_35 C22_35 1_555 1_555
H17_35 C23_35 1_555 1_555
H16_36 C22_36 1_555 1_555
C23_36 C22_36 1_555 1_555
H17_36 C23_36 1_555 1_555

#END
