
###############################################################################
#
# This file contains modified crystal structure data generated from the
# MOF subset of the Cambridge Structural Database (CSD) v543 
# hosted by the Cambridge Crystallographic Data Centre (CCDC).
#
# This work is licensed under the Creative Commons
# Attribution-NonCommercial-ShareAlike 4.0 International License.
# To view a copy of this license, visit
# http://creativecommons.org/licenses/by-nc-sa/4.0/
# or send a letter to
# Creative Commons, PO Box 1866, Mountain View, CA 94042, USA.
#
# CIF created using the CSD Python API on 29 September 2022
# The structure has been converted into the P1 space group
# The structure has a 3D framework
# The original CSD entry ODAHIK is in the monoclinic crystal system
# The framework has been calculated to contain at least 10.0% void space
# The void calculation uses a probe of radius 1.32A, grid spacing 0.4
# The framework is charged, counterions have been retained in the structure
#
###############################################################################

data_ODAHIK
_chemical_formula_moiety         '(C128 H168 Cu4 N24 O28)n'
_symmetry_cell_setting           triclinic
_symmetry_space_group_name_H-M   'P 1'
_symmetry_Int_Tables_number      1
_space_group_name_Hall           'P 1'
loop_
_symmetry_equiv_pos_site_id
_symmetry_equiv_pos_as_xyz
1 x,y,z
_cell_length_a                   10.439(2)
_cell_length_b                   14.440(3)
_cell_length_c                   28.415(6)
_cell_angle_alpha                90
_cell_angle_beta                 97.67(3)
_cell_angle_gamma                90
_cell_volume                     4244.93
loop_
_atom_site_label
_atom_site_type_symbol
_atom_site_fract_x
_atom_site_fract_y
_atom_site_fract_z
N1 N 0.0137(5) 0.1169(3) 0.81964(18)
O2 O 0.0483(10) 0.1548(7) 0.7849(3)
O3 O 0.0748(7) 0.0494(5) 0.8363(3)
O1 O 0.9260(6) 0.1514(4) 0.8381(2)
N1_2 N 0.5137(5) 0.3831(3) 0.31964(18)
O1_2 O 0.4260(6) 0.3486(4) 0.3381(2)
O2_2 O 0.5483(10) 0.3452(7) 0.2849(3)
O3_2 O 0.5748(7) 0.4506(5) 0.3363(3)
O1_3 O 0.0740(6) 0.8486(4) 0.1619(2)
N1_3 N 0.9863(5) 0.8831(3) 0.18036(18)
O2_3 O 0.9517(10) 0.8452(7) 0.2151(3)
O3_3 O 0.9252(7) 0.9506(5) 0.1637(3)
N1_4 N 0.4863(5) 0.6169(3) 0.68036(18)
O1_4 O 0.5740(6) 0.6514(4) 0.6619(2)
O2_4 O 0.4517(10) 0.6548(7) 0.7151(3)
O3_4 O 0.4252(7) 0.5494(5) 0.6637(3)
N2 N 0.5064(11) 0.5887(8) 0.9008(4)
O4 O 0.3932(12) 0.5627(13) 0.8886(7)
O5 O 0.5687(16) 0.5517(10) 0.9362(5)
O6 O 0.5541(18) 0.6512(12) 0.8800(6)
N2_2 N 0.0064(11) 0.9113(8) 0.4008(4)
O5_2 O 0.0687(16) 0.9483(10) 0.4362(5)
O6_2 O 0.0541(18) 0.8488(12) 0.3800(6)
O4_2 O 0.8932(12) 0.9373(13) 0.3886(7)
N2_3 N 0.4936(11) 0.4113(8) 0.0992(4)
O4_3 O 0.6068(12) 0.4373(13) 0.1114(7)
O5_3 O 0.4313(16) 0.4483(10) 0.0638(5)
O6_3 O 0.4459(18) 0.3488(12) 0.1200(6)
O4_4 O 0.1068(12) 0.0627(13) 0.6114(7)
N2_4 N 0.9936(11) 0.0887(8) 0.5992(4)
O5_4 O 0.9313(16) 0.0517(10) 0.5638(5)
O6_4 O 0.9459(18) 0.1512(12) 0.6200(6)
N7 N 0.5894(6) 0.1700(4) 0.80406(18)
C33 C 0.4672(7) 0.1572(5) 0.8114(2)
H43 H 0.4269 0.2055 0.8267
C34 C 0.3940(7) 0.0785(4) 0.7983(2)
H44 H 0.3074 0.0738 0.8049
C35 C 0.4496(7) 0.0070(4) 0.7754(2)
C36 C 0.5818(7) 0.0188(4) 0.7680(2)
C37 C 0.6433(7) 0.0984(5) 0.7827(2)
H46 H 0.7311 0.1046 0.7777
Cu2 Cu 0.67824(9) 0.29328(6) 0.82157(3)
N11 N 0.8000(6) 0.4008(4) 0.83857(18)
N12 N 0.6852(5) 0.2662(4) 0.89070(18)
N13 N 0.7002(6) 0.3135(4) 0.75331(19)
O8 O 0.4917(5) 0.3714(3) 0.81907(18)
H83 H 0.4488 0.3673 0.8428
H84 H 0.4866 0.4268 0.8102
C17 C 0.7303(7) 0.1864(5) 0.9101(2)
H21 H 0.7594 0.1408 0.8899
C18 C 0.7373(8) 0.1663(6) 0.9584(3)
H22 H 0.7710 0.1085 0.9702
C19 C 0.6951(8) 0.2305(6) 0.9889(2)
C20 C 0.6494(8) 0.3173(6) 0.9686(3)
H23 H 0.6205 0.3651 0.9876
C21 C 0.6492(7) 0.3287(5) 0.9212(3)
H24 H 0.6204 0.3869 0.9083
H30 H 0.4647 0.1499 0.9973
C44 C 0.9733(7) 0.5455(5) 0.8617(2)
C46 C 0.9270(7) 0.3861(5) 0.8482(2)
H60 H 0.9578 0.3243 0.8475
C47 C 0.7594(8) 0.4888(5) 0.8410(2)
H61 H 0.6694 0.5009 0.8342
C48 C 0.8414(7) 0.5622(5) 0.8528(2)
H62 H 0.8084 0.6232 0.8549
C56 C 0.9729(9) 0.3517(8) 0.5324(3)
H71 H 0.9460 0.2904 0.5432
H72 H 0.9647 0.3501 0.4973
C57 C 0.8828(11) 0.4231(8) 0.5467(3)
H73 H 0.7991 0.4164 0.5261
H74 H 0.9178 0.4848 0.5403
C58 C 0.8563(10) 0.4215(7) 0.5985(3)
H75 H 0.9386 0.4128 0.6197
H76 H 0.8189 0.4817 0.6065
C59 C 0.7636(9) 0.3442(6) 0.6066(2)
H77 H 0.7983 0.2848 0.5963
H78 H 0.6796 0.3555 0.5868
C60 C 0.7417(8) 0.3359(5) 0.6585(2)
C61 C 0.6408(8) 0.3781(5) 0.6759(3)
H79 H 0.5830 0.4162 0.6558
C62 C 0.6226(8) 0.3656(5) 0.7226(2)
H80 H 0.5513 0.3955 0.7336
C63 C 0.8020(8) 0.2764(5) 0.7364(2)
H81 H 0.8623 0.2425 0.7578
C64 C 0.8254(8) 0.2840(5) 0.6900(3)
H82 H 0.8978 0.2541 0.6798
C33_2 C 0.9672(7) 0.3428(5) 0.3114(2)
H43_2 H 0.9269 0.2945 0.3267
C34_2 C 0.8940(7) 0.4215(4) 0.2983(2)
H44_2 H 0.8074 0.4262 0.3049
C35_2 C 0.9496(7) 0.4930(4) 0.2754(2)
C38 C 0.8706(7) 0.5782(4) 0.2604(2)
H47 H 0.806(5) 0.557(3) 0.2310(18)
H48 H 0.918(6) 0.634(5) 0.245(2)
C39 C 0.8216(7) 0.6256(4) 0.3019(2)
H49 H 0.8966 0.6427 0.3254
H50 H 0.7685 0.5810 0.3174
C40 C 0.7422(6) 0.7112(4) 0.2892(2)
H51 H 0.7950 0.7578 0.2749
H52 H 0.6669 0.6955 0.2655
C41 C 0.6953(7) 0.7517(4) 0.3337(2)
H53 H 0.7718 0.7689 0.3565
H54 H 0.6482 0.7028 0.3488
C42 C 0.6079(7) 0.8360(5) 0.3253(2)
H55 H 0.5296 0.8190 0.3034
H56 H 0.6537 0.8852 0.3100
C43 C 0.5678(7) 0.8730(5) 0.3712(2)
H57 H 0.5264 0.8228 0.3875
H58 H 0.6456 0.8936 0.3924
C44_2 C 0.4733(7) 0.9545(5) 0.3617(2)
H61_2 H 0.1694 0.9991 0.3342
C48_2 C 0.3414(7) 0.9378(5) 0.3528(2)
H62_2 H 0.3084 0.8768 0.3549
O8_2 O 0.9917(5) 0.1286(3) 0.31907(18)
H83_2 H 0.9488 0.1327 0.3428
H84_2 H 0.9866 0.0732 0.3102
H45 H 0.6255 0.9718 0.7530
C38_2 C 0.3706(7) 0.9218(4) 0.7604(2)
H47_2 H 0.306(5) 0.943(3) 0.7310(18)
H48_2 H 0.418(6) 0.866(5) 0.745(2)
C39_2 C 0.3216(7) 0.8744(4) 0.8019(2)
H49_2 H 0.3966 0.8573 0.8254
H50_2 H 0.2685 0.9190 0.8174
C40_2 C 0.2422(6) 0.7888(4) 0.7892(2)
H51_2 H 0.2950 0.7422 0.7749
H52_2 H 0.1669 0.8045 0.7655
C41_2 C 0.1953(7) 0.7483(4) 0.8337(2)
H53_2 H 0.2718 0.7311 0.8565
H54_2 H 0.1482 0.7972 0.8488
C42_2 C 0.1079(7) 0.6640(5) 0.8253(2)
H55_2 H 0.0296 0.6810 0.8034
H56_2 H 0.1537 0.6148 0.8100
C43_2 C 0.0678(7) 0.6270(5) 0.8712(2)
H57_2 H 0.0264 0.6772 0.8875
H58_2 H 0.1456 0.6064 0.8924
C45 C 0.0159(8) 0.4564(5) 0.8592(2)
H59 H 0.1057 0.4429 0.8649
N9 N 0.1852(5) 0.2338(4) 0.39070(18)
C49 C 0.2303(7) 0.3136(5) 0.4101(2)
H63 H 0.2594 0.3592 0.3899
C50 C 0.2373(8) 0.3337(6) 0.4584(3)
H64 H 0.2710 0.3915 0.4702
C51 C 0.1951(8) 0.2695(6) 0.4889(2)
C52 C 0.1494(8) 0.1827(6) 0.4686(3)
H65 H 0.1205 0.1349 0.4876
C53 C 0.1492(7) 0.1713(5) 0.4212(3)
H66 H 0.1204 0.1131 0.4083
C54 C 0.1993(10) 0.2887(6) 0.5413(2)
H67 H 0.2892 0.3041 0.5548
H68 H 0.1740 0.2320 0.5572
C55 C 0.1119(9) 0.3667(6) 0.5515(3)
H69 H 0.1420 0.4245 0.5378
H70 H 0.1191 0.3754 0.5864
Cu5 Cu 0.17824(9) 0.20672(6) 0.32157(3)
C22 C 0.6993(10) 0.2113(6) 0.0413(2)
H25 H 0.7892 0.1959 0.0548
H26 H 0.6740 0.2680 0.0572
C23 C 0.6119(9) 0.1333(6) 0.0515(3)
H27 H 0.6420 0.0755 0.0378
H28 H 0.6191 0.1246 0.0864
C24 C 0.4729(9) 0.1483(8) 0.0324(3)
H29 H 0.4460 0.2096 0.0432
C25 C 0.3828(11) 0.0769(8) 0.0467(3)
H31 H 0.2991 0.0836 0.0261
H32 H 0.4178 0.0152 0.0403
C26 C 0.3563(10) 0.0785(7) 0.0985(3)
H33 H 0.4386 0.0872 0.1197
H34 H 0.3189 0.0183 0.1065
C27 C 0.2636(9) 0.1558(6) 0.1066(2)
H35 H 0.2983 0.2152 0.0963
H36 H 0.1796 0.1445 0.0868
C28 C 0.2417(8) 0.1641(5) 0.1585(2)
C29 C 0.1408(8) 0.1219(5) 0.1759(3)
H37 H 0.0830 0.0838 0.1558
C30 C 0.1226(8) 0.1344(5) 0.2226(2)
H38 H 0.0513 0.1045 0.2336
C31 C 0.3020(8) 0.2236(5) 0.2364(2)
H39 H 0.3623 0.2575 0.2578
C32 C 0.3254(8) 0.2160(5) 0.1900(3)
H40 H 0.3978 0.2459 0.1798
N6 N 0.2002(6) 0.1865(4) 0.25331(19)
N7_2 N 0.0894(6) 0.3300(4) 0.30406(18)
C36_2 C 0.0818(7) 0.4812(4) 0.2680(2)
H45_2 H 0.1255 0.5282 0.2530
C37_2 C 0.1433(7) 0.4016(5) 0.2827(2)
H46_2 H 0.2311 0.3954 0.2777
N11_2 N 0.3000(6) 0.0992(4) 0.33857(18)
C45_2 C 0.5159(8) 0.0436(5) 0.3592(2)
H59_2 H 0.6057 0.0571 0.3649
C46_2 C 0.4270(7) 0.1139(5) 0.3482(2)
H60_2 H 0.4578 0.1757 0.3475
C47_2 C 0.2594(8) 0.0112(5) 0.3410(2)
C12 C 0.0267(7) 0.4545(5) 0.1383(2)
C14 C 0.0730(7) 0.6139(5) 0.1518(2)
H18 H 0.0422 0.6757 0.1525
C15 C 0.2406(8) 0.5112(5) 0.1590(2)
H19 H 0.3306 0.4991 0.1658
C16 C 0.1586(7) 0.4378(5) 0.1472(2)
H20 H 0.1916 0.3768 0.1451
N4 N 0.2000(6) 0.5992(4) 0.16143(18)
Cu3 Cu 0.32176(9) 0.70672(6) 0.17843(3)
N3 N 0.4106(6) 0.8300(4) 0.19594(18)
C1 C 0.5328(7) 0.8428(5) 0.1886(2)
H1 H 0.5731 0.7945 0.1733
C2 C 0.6060(7) 0.9215(4) 0.2017(2)
H2 H 0.6926 0.9262 0.1951
C3 C 0.5504(7) 0.9930(4) 0.2246(2)
C4 C 0.4182(7) 0.9812(4) 0.2320(2)
C5 C 0.3567(7) 0.9016(5) 0.2173(2)
H4 H 0.2689 0.8954 0.2223
N5 N 0.3148(5) 0.7338(4) 0.10930(18)
C17_2 C 0.2697(7) 0.8136(5) 0.0899(2)
H21_2 H 0.2406 0.8592 0.1101
C18_2 C 0.2627(8) 0.8337(6) 0.0416(3)
H22_2 H 0.2290 0.8915 0.0298
C19_2 C 0.3049(8) 0.7695(6) 0.0111(2)
C20_2 C 0.3506(8) 0.6827(6) 0.0314(3)
H23_2 H 0.3795 0.6349 0.0124
C21_2 C 0.3508(7) 0.6713(5) 0.0788(3)
H24_2 H 0.3796 0.6131 0.0917
H30_2 H 0.5353 0.8501 0.0027
O7 O 0.5083(5) 0.6286(3) 0.18093(18)
H41 H 0.5512 0.6327 0.1572
H42 H 0.5134 0.5732 0.1898
C56_2 C 0.0271(9) 0.6483(8) 0.4676(3)
H71_2 H 0.0540 0.7096 0.4568
H72_2 H 0.0353 0.6499 0.5027
C57_2 C 0.1172(11) 0.5769(8) 0.4533(3)
H73_2 H 0.2009 0.5836 0.4739
H74_2 H 0.0822 0.5152 0.4597
C58_2 C 0.1437(10) 0.5785(7) 0.4015(3)
H75_2 H 0.0614 0.5872 0.3803
H76_2 H 0.1811 0.5183 0.3935
C59_2 C 0.2364(9) 0.6558(6) 0.3934(2)
H77_2 H 0.2017 0.7152 0.4037
H78_2 H 0.3204 0.6445 0.4132
C60_2 C 0.2583(8) 0.6641(5) 0.3415(2)
C61_2 C 0.3592(8) 0.6219(5) 0.3241(3)
H79_2 H 0.4170 0.5838 0.3442
C62_2 C 0.3774(8) 0.6344(5) 0.2774(2)
H80_2 H 0.4487 0.6045 0.2664
C63_2 C 0.1980(8) 0.7236(5) 0.2636(2)
H81_2 H 0.1377 0.7575 0.2422
C64_2 C 0.1746(8) 0.7160(5) 0.3100(3)
H82_2 H 0.1022 0.7459 0.3202
N10 N 0.2998(6) 0.6865(4) 0.24669(19)
C1_2 C 0.0328(7) 0.6572(5) 0.6886(2)
H1_2 H 0.0731 0.7055 0.6733
C2_2 C 0.1060(7) 0.5785(4) 0.7017(2)
H2_2 H 0.1926 0.5738 0.6951
C3_2 C 0.0504(7) 0.5070(4) 0.7246(2)
C6 C 0.1294(7) 0.4218(4) 0.7396(2)
H5 H 0.194(5) 0.443(3) 0.7690(18)
H6 H 0.082(6) 0.366(5) 0.755(2)
C7 C 0.1784(7) 0.3744(4) 0.6981(2)
H7 H 0.1034 0.3573 0.6746
H8 H 0.2315 0.4190 0.6826
C8 C 0.2578(6) 0.2888(4) 0.7108(2)
H9 H 0.2050 0.2422 0.7251
H10 H 0.3331 0.3045 0.7345
C9 C 0.3047(7) 0.2483(4) 0.6663(2)
H11 H 0.2282 0.2311 0.6435
H12 H 0.3518 0.2972 0.6512
C10 C 0.3921(7) 0.1640(5) 0.6747(2)
H13 H 0.4704 0.1810 0.6966
H14 H 0.3463 0.1148 0.6900
C11 C 0.4322(7) 0.1270(5) 0.6288(2)
H15 H 0.4736 0.1772 0.6125
H16 H 0.3544 0.1064 0.6076
C12_2 C 0.5267(7) 0.0455(5) 0.6383(2)
H19_2 H 0.8306 0.0009 0.6658
C16_2 C 0.6586(7) 0.0622(5) 0.6472(2)
H20_2 H 0.6916 0.1232 0.6451
O7_2 O 0.0083(5) 0.8714(3) 0.68093(18)
H41_2 H 0.0512 0.8673 0.6572
H42_2 H 0.0134 0.9268 0.6898
H3 H 0.3745 0.0282 0.2470
C6_2 C 0.6294(7) 0.0782(4) 0.2396(2)
H5_2 H 0.694(5) 0.057(3) 0.2690(18)
H6_2 H 0.582(6) 0.134(5) 0.255(2)
C7_2 C 0.6784(7) 0.1256(4) 0.1981(2)
H7_2 H 0.6034 0.1427 0.1746
H8_2 H 0.7315 0.0810 0.1826
C8_2 C 0.7578(6) 0.2112(4) 0.2108(2)
H9_2 H 0.7050 0.2578 0.2251
H10_2 H 0.8331 0.1955 0.2345
C9_2 C 0.8047(7) 0.2517(4) 0.1663(2)
H11_2 H 0.7282 0.2689 0.1435
H12_2 H 0.8518 0.2028 0.1512
C10_2 C 0.8921(7) 0.3360(5) 0.1747(2)
H13_2 H 0.9704 0.3190 0.1966
H14_2 H 0.8463 0.3852 0.1900
C11_2 C 0.9322(7) 0.3730(5) 0.1288(2)
H15_2 H 0.9736 0.3228 0.1125
H16_2 H 0.8544 0.3936 0.1076
C13 C 0.9841(8) 0.5436(5) 0.1408(2)
H17 H 0.8943 0.5571 0.1351
C22_2 C 0.3007(10) 0.7887(6) 0.9587(2)
H25_2 H 0.2108 0.8041 0.9452
H26_2 H 0.3260 0.7320 0.9428
C23_2 C 0.3881(9) 0.8667(6) 0.9485(3)
H27_2 H 0.3580 0.9245 0.9622
H28_2 H 0.3809 0.8754 0.9136
C24_2 C 0.5271(9) 0.8517(8) 0.9676(3)
H29_2 H 0.5540 0.7904 0.9568
C25_2 C 0.6172(11) 0.9231(8) 0.9533(3)
H31_2 H 0.7009 0.9164 0.9739
H32_2 H 0.5822 0.9848 0.9597
C26_2 C 0.6437(10) 0.9215(7) 0.9015(3)
H33_2 H 0.5614 0.9128 0.8803
H34_2 H 0.6811 0.9817 0.8935
C27_2 C 0.7364(9) 0.8442(6) 0.8934(2)
H35_2 H 0.7017 0.7848 0.9037
H36_2 H 0.8204 0.8555 0.9132
C28_2 C 0.7583(8) 0.8359(5) 0.8415(2)
C29_2 C 0.8592(8) 0.8781(5) 0.8241(3)
H37_2 H 0.9170 0.9162 0.8442
C30_2 C 0.8774(8) 0.8656(5) 0.7774(2)
H38_2 H 0.9487 0.8955 0.7664
C31_2 C 0.6980(8) 0.7764(5) 0.7636(2)
H39_2 H 0.6377 0.7425 0.7422
C32_2 C 0.6746(8) 0.7840(5) 0.8100(3)
H40_2 H 0.6022 0.7541 0.8202
N6_2 N 0.7998(6) 0.8135(4) 0.74669(19)
Cu4 Cu 0.82176(9) 0.79328(6) 0.67843(3)
N9_2 N 0.8148(5) 0.7662(4) 0.60930(18)
C49_2 C 0.7697(7) 0.6864(5) 0.5899(2)
H63_2 H 0.7406 0.6408 0.6101
C50_2 C 0.7627(8) 0.6663(6) 0.5416(3)
H64_2 H 0.7290 0.6085 0.5298
C51_2 C 0.8049(8) 0.7305(6) 0.5111(2)
C52_2 C 0.8506(8) 0.8173(6) 0.5314(3)
H65_2 H 0.8795 0.8651 0.5124
C53_2 C 0.8508(7) 0.8287(5) 0.5788(3)
H66_2 H 0.8796 0.8869 0.5917
C54_2 C 0.8007(10) 0.7113(6) 0.4587(2)
H67_2 H 0.7108 0.6959 0.4452
H68_2 H 0.8260 0.7680 0.4428
C55_2 C 0.8881(9) 0.6333(6) 0.4485(3)
H69_2 H 0.8580 0.5755 0.4622
H70_2 H 0.8809 0.6246 0.4136
C13_2 C 0.4841(8) 0.9564(5) 0.6408(2)
H17_2 H 0.3943 0.9429 0.6351
C14_2 C 0.5730(7) 0.8861(5) 0.6518(2)
H18_2 H 0.5422 0.8243 0.6525
C15_2 C 0.7406(8) 0.9888(5) 0.6590(2)
N4_2 N 0.7000(6) 0.9008(4) 0.66143(18)
N3_2 N 0.9106(6) 0.6700(4) 0.69594(18)
C4_2 C 0.9182(7) 0.5188(4) 0.7320(2)
H3_2 H 0.8745 0.4718 0.7470
C5_2 C 0.8567(7) 0.5984(5) 0.7173(2)
H4_2 H 0.7689 0.6046 0.7223
loop_
_geom_bond_atom_site_label_1
_geom_bond_atom_site_label_2
_geom_bond_site_symmetry_1
_geom_bond_site_symmetry_2
O2 N1 1_555 1_555
O3 N1 1_555 1_555
N1_2 O1_2 1_555 1_555
O2_2 N1_2 1_555 1_555
O3_2 N1_2 1_555 1_555
O2_3 N1_3 1_555 1_555
O3_3 N1_3 1_555 1_555
N1_4 O1_4 1_555 1_555
O2_4 N1_4 1_555 1_555
O3_4 N1_4 1_555 1_555
N2 O4 1_555 1_555
O5 N2 1_555 1_555
O6 N2 1_555 1_555
O5_2 N2_2 1_555 1_555
O6_2 N2_2 1_555 1_555
N2_3 O4_3 1_555 1_555
O5_3 N2_3 1_555 1_555
O6_3 N2_3 1_555 1_555
O5_4 N2_4 1_555 1_555
O6_4 N2_4 1_555 1_555
N7 C33 1_555 1_555
C33 H43 1_555 1_555
C34 C33 1_555 1_555
H44 C34 1_555 1_555
C35 C34 1_555 1_555
C36 C35 1_555 1_555
C37 N7 1_555 1_555
H46 C37 1_555 1_555
Cu2 N7 1_555 1_555
N11 Cu2 1_555 1_555
N12 Cu2 1_555 1_555
N13 Cu2 1_555 1_555
O8 Cu2 1_555 1_555
H83 O8 1_555 1_555
H84 O8 1_555 1_555
C36 C37 1_555 1_555
C17 N12 1_555 1_555
H21 C17 1_555 1_555
C18 C17 1_555 1_555
H22 C18 1_555 1_555
C19 C18 1_555 1_555
C20 C19 1_555 1_555
H23 C20 1_555 1_555
C21 N12 1_555 1_555
H24 C21 1_555 1_555
H60 C46 1_555 1_555
C47 H61 1_555 1_555
C48 C44 1_555 1_555
H62 C48 1_555 1_555
H71 C56 1_555 1_555
H72 C56 1_555 1_555
C57 C56 1_555 1_555
H73 C57 1_555 1_555
H74 C57 1_555 1_555
C58 C57 1_555 1_555
H75 C58 1_555 1_555
H76 C58 1_555 1_555
C59 C58 1_555 1_555
H77 C59 1_555 1_555
H78 C59 1_555 1_555
C60 C59 1_555 1_555
C61 C60 1_555 1_555
H79 C61 1_555 1_555
C62 C61 1_555 1_555
H80 C62 1_555 1_555
C63 H81 1_555 1_555
C64 C60 1_555 1_555
H82 C64 1_555 1_555
C20 C21 1_555 1_555
C46 N11 1_555 1_555
C47 N11 1_555 1_555
C47 C48 1_555 1_555
C62 N13 1_555 1_555
C63 N13 1_555 1_555
C63 C64 1_555 1_555
C33_2 H43_2 1_555 1_555
C34_2 C33_2 1_555 1_555
H44_2 C34_2 1_555 1_555
C35_2 C34_2 1_555 1_555
C38 C35_2 1_555 1_555
H47 C38 1_555 1_555
H48 C38 1_555 1_555
C39 C38 1_555 1_555
H49 C39 1_555 1_555
H50 C39 1_555 1_555
C40 C39 1_555 1_555
H51 C40 1_555 1_555
H52 C40 1_555 1_555
C41 C40 1_555 1_555
H53 C41 1_555 1_555
H54 C41 1_555 1_555
C42 C41 1_555 1_555
H55 C42 1_555 1_555
H56 C42 1_555 1_555
C43 C42 1_555 1_555
H57 C43 1_555 1_555
H58 C43 1_555 1_555
C44_2 C43 1_555 1_555
C48_2 C44_2 1_555 1_555
H62_2 C48_2 1_555 1_555
H83_2 O8_2 1_555 1_555
H84_2 O8_2 1_555 1_555
H47_2 C38_2 1_555 1_555
H48_2 C38_2 1_555 1_555
C39_2 C38_2 1_555 1_555
H49_2 C39_2 1_555 1_555
H50_2 C39_2 1_555 1_555
C40_2 C39_2 1_555 1_555
H51_2 C40_2 1_555 1_555
H52_2 C40_2 1_555 1_555
C41_2 C40_2 1_555 1_555
H53_2 C41_2 1_555 1_555
H54_2 C41_2 1_555 1_555
C42_2 C41_2 1_555 1_555
H55_2 C42_2 1_555 1_555
H56_2 C42_2 1_555 1_555
C43_2 C42_2 1_555 1_555
H57_2 C43_2 1_555 1_555
H58_2 C43_2 1_555 1_555
H59 C45 1_555 1_555
N9 C49 1_555 1_555
C49 H63 1_555 1_555
C50 C49 1_555 1_555
H64 C50 1_555 1_555
C51 C50 1_555 1_555
C52 C51 1_555 1_555
H65 C52 1_555 1_555
C53 N9 1_555 1_555
H66 C53 1_555 1_555
C54 C51 1_555 1_555
H67 C54 1_555 1_555
H68 C54 1_555 1_555
C55 C54 1_555 1_555
H69 C55 1_555 1_555
H70 C55 1_555 1_555
Cu5 N9 1_555 1_555
C52 C53 1_555 1_555
H25 C22 1_555 1_555
H26 C22 1_555 1_555
C23 C22 1_555 1_555
H27 C23 1_555 1_555
H28 C23 1_555 1_555
C24 C23 1_555 1_555
H29 C24 1_555 1_555
C25 C24 1_555 1_555
H31 C25 1_555 1_555
H32 C25 1_555 1_555
C26 C25 1_555 1_555
H33 C26 1_555 1_555
H34 C26 1_555 1_555
C27 C26 1_555 1_555
H35 C27 1_555 1_555
H36 C27 1_555 1_555
C28 C27 1_555 1_555
C29 C28 1_555 1_555
H37 C29 1_555 1_555
C30 C29 1_555 1_555
H38 C30 1_555 1_555
C31 H39 1_555 1_555
C32 C28 1_555 1_555
H40 C32 1_555 1_555
N6 C30 1_555 1_555
Cu5 N6 1_555 1_555
C31 N6 1_555 1_555
C31 C32 1_555 1_555
H45_2 C36_2 1_555 1_555
C37_2 N7_2 1_555 1_555
H46_2 C37_2 1_555 1_555
Cu5 N7_2 1_555 1_555
N11_2 Cu5 1_555 1_555
C36_2 C37_2 1_555 1_555
H59_2 C45_2 1_555 1_555
C46_2 C45_2 1_555 1_555
H60_2 C46_2 1_555 1_555
C46_2 N11_2 1_555 1_555
C47_2 N11_2 1_555 1_555
H18 C14 1_555 1_555
C15 H19 1_555 1_555
C16 C12 1_555 1_555
H20 C16 1_555 1_555
N4 C14 1_555 1_555
Cu3 N4 1_555 1_555
C15 N4 1_555 1_555
C15 C16 1_555 1_555
Cu3 N3 1_555 1_555
N3 C1 1_555 1_555
C1 H1 1_555 1_555
C2 C1 1_555 1_555
H2 C2 1_555 1_555
C3 C2 1_555 1_555
C4 C3 1_555 1_555
C5 N3 1_555 1_555
H4 C5 1_555 1_555
N5 Cu3 1_555 1_555
C17_2 N5 1_555 1_555
H21_2 C17_2 1_555 1_555
C18_2 C17_2 1_555 1_555
H22_2 C18_2 1_555 1_555
C19_2 C18_2 1_555 1_555
C20_2 C19_2 1_555 1_555
H23_2 C20_2 1_555 1_555
C21_2 N5 1_555 1_555
H24_2 C21_2 1_555 1_555
O7 Cu3 1_555 1_555
H41 O7 1_555 1_555
H42 O7 1_555 1_555
H71_2 C56_2 1_555 1_555
H72_2 C56_2 1_555 1_555
C57_2 C56_2 1_555 1_555
H73_2 C57_2 1_555 1_555
H74_2 C57_2 1_555 1_555
C58_2 C57_2 1_555 1_555
H75_2 C58_2 1_555 1_555
H76_2 C58_2 1_555 1_555
C59_2 C58_2 1_555 1_555
H77_2 C59_2 1_555 1_555
H78_2 C59_2 1_555 1_555
C60_2 C59_2 1_555 1_555
C61_2 C60_2 1_555 1_555
H79_2 C61_2 1_555 1_555
C62_2 C61_2 1_555 1_555
H80_2 C62_2 1_555 1_555
C63_2 H81_2 1_555 1_555
C64_2 C60_2 1_555 1_555
H82_2 C64_2 1_555 1_555
N10 Cu3 1_555 1_555
C4 C5 1_555 1_555
C20_2 C21_2 1_555 1_555
C62_2 N10 1_555 1_555
C63_2 N10 1_555 1_555
C63_2 C64_2 1_555 1_555
C1_2 H1_2 1_555 1_555
C2_2 C1_2 1_555 1_555
H2_2 C2_2 1_555 1_555
C3_2 C2_2 1_555 1_555
C6 C3_2 1_555 1_555
H5 C6 1_555 1_555
H6 C6 1_555 1_555
C7 C6 1_555 1_555
H7 C7 1_555 1_555
H8 C7 1_555 1_555
C8 C7 1_555 1_555
H9 C8 1_555 1_555
H10 C8 1_555 1_555
C9 C8 1_555 1_555
H11 C9 1_555 1_555
H12 C9 1_555 1_555
C10 C9 1_555 1_555
H13 C10 1_555 1_555
H14 C10 1_555 1_555
C11 C10 1_555 1_555
H15 C11 1_555 1_555
H16 C11 1_555 1_555
C12_2 C11 1_555 1_555
C16_2 C12_2 1_555 1_555
H20_2 C16_2 1_555 1_555
H41_2 O7_2 1_555 1_555
H42_2 O7_2 1_555 1_555
H5_2 C6_2 1_555 1_555
H6_2 C6_2 1_555 1_555
C7_2 C6_2 1_555 1_555
H7_2 C7_2 1_555 1_555
H8_2 C7_2 1_555 1_555
C8_2 C7_2 1_555 1_555
H9_2 C8_2 1_555 1_555
H10_2 C8_2 1_555 1_555
C9_2 C8_2 1_555 1_555
H11_2 C9_2 1_555 1_555
H12_2 C9_2 1_555 1_555
C10_2 C9_2 1_555 1_555
H13_2 C10_2 1_555 1_555
H14_2 C10_2 1_555 1_555
C11_2 C10_2 1_555 1_555
H15_2 C11_2 1_555 1_555
H16_2 C11_2 1_555 1_555
H17 C13 1_555 1_555
H25_2 C22_2 1_555 1_555
H26_2 C22_2 1_555 1_555
C23_2 C22_2 1_555 1_555
H27_2 C23_2 1_555 1_555
H28_2 C23_2 1_555 1_555
C24_2 C23_2 1_555 1_555
H29_2 C24_2 1_555 1_555
C25_2 C24_2 1_555 1_555
H31_2 C25_2 1_555 1_555
H32_2 C25_2 1_555 1_555
C26_2 C25_2 1_555 1_555
H33_2 C26_2 1_555 1_555
H34_2 C26_2 1_555 1_555
C27_2 C26_2 1_555 1_555
H35_2 C27_2 1_555 1_555
H36_2 C27_2 1_555 1_555
C28_2 C27_2 1_555 1_555
C29_2 C28_2 1_555 1_555
H37_2 C29_2 1_555 1_555
C30_2 C29_2 1_555 1_555
H38_2 C30_2 1_555 1_555
C31_2 H39_2 1_555 1_555
C32_2 C28_2 1_555 1_555
H40_2 C32_2 1_555 1_555
N6_2 C30_2 1_555 1_555
Cu4 N6_2 1_555 1_555
C31_2 N6_2 1_555 1_555
C31_2 C32_2 1_555 1_555
N9_2 C49_2 1_555 1_555
C49_2 H63_2 1_555 1_555
C50_2 C49_2 1_555 1_555
H64_2 C50_2 1_555 1_555
C51_2 C50_2 1_555 1_555
C52_2 C51_2 1_555 1_555
H65_2 C52_2 1_555 1_555
C53_2 N9_2 1_555 1_555
H66_2 C53_2 1_555 1_555
C54_2 C51_2 1_555 1_555
H67_2 C54_2 1_555 1_555
H68_2 C54_2 1_555 1_555
C55_2 C54_2 1_555 1_555
H69_2 C55_2 1_555 1_555
H70_2 C55_2 1_555 1_555
Cu4 N9_2 1_555 1_555
C52_2 C53_2 1_555 1_555
H17_2 C13_2 1_555 1_555
C14_2 C13_2 1_555 1_555
H18_2 C14_2 1_555 1_555
N4_2 C14_2 1_555 1_555
Cu4 N4_2 1_555 1_555
C15_2 N4_2 1_555 1_555
Cu4 N3_2 1_555 1_555
H3_2 C4_2 1_555 1_555
C5_2 N3_2 1_555 1_555
H4_2 C5_2 1_555 1_555
C4_2 C5_2 1_555 1_555

#END
