
###############################################################################
#
# This file contains modified crystal structure data generated from the
# MOF subset of the Cambridge Structural Database (CSD) v543 
# hosted by the Cambridge Crystallographic Data Centre (CCDC).
#
# This work is licensed under the Creative Commons
# Attribution-NonCommercial-ShareAlike 4.0 International License.
# To view a copy of this license, visit
# http://creativecommons.org/licenses/by-nc-sa/4.0/
# or send a letter to
# Creative Commons, PO Box 1866, Mountain View, CA 94042, USA.
#
# CIF created using the CSD Python API on 29 September 2022
# The structure has been converted into the P1 space group
# The structure has a 3D framework
# The original CSD entry ODEPOF is in the rhombohedral crystal system
# The framework has been calculated to contain at least 10.0% void space
# The void calculation uses a probe of radius 1.32A, grid spacing 0.4
#
###############################################################################

data_ODEPOF
_chemical_formula_moiety         '(C198 H126 Fe16 N108)n'
_symmetry_cell_setting           triclinic
_symmetry_space_group_name_H-M   'P 1'
_symmetry_Int_Tables_number      1
_space_group_name_Hall           'P 1'
loop_
_symmetry_equiv_pos_site_id
_symmetry_equiv_pos_as_xyz
1 x,y,z
_cell_length_a                   27.989(3)
_cell_length_b                   27.989(3)
_cell_length_c                   8.8181(18)
_cell_angle_alpha                90
_cell_angle_beta                 90
_cell_angle_gamma                120
_cell_volume                     5982.47
loop_
_atom_site_label
_atom_site_type_symbol
_atom_site_fract_x
_atom_site_fract_y
_atom_site_fract_z
Fe1 Fe 0.5000 0.5000 0.0000
N1 N 0.48352(13) 0.55043(12) 0.1215(4)
N2 N 0.4520(2) 0.60932(17) 0.3181(5)
N3 N 0.47555(12) 0.45794(12) 0.1886(4)
N4 N 0.46691(13) 0.40823(12) 0.2397(4)
N5 N 0.43241(15) 0.44348(14) 0.4137(4)
N6 N 0.37213(13) 0.24496(12) 0.5922(4)
C1 C 0.4902(2) 0.59991(17) 0.0849(5)
C2 C 0.4741(3) 0.6277(2) 0.1816(7)
H2 H 0.4790 0.6615 0.1499
C3 C 0.4460(2) 0.5604(2) 0.3564(6)
H3 H 0.4311 0.5456 0.4509
C4 C 0.46098(17) 0.53087(16) 0.2604(5)
C5 C 0.45526(16) 0.47725(16) 0.2947(4)
C6 C 0.44091(16) 0.40162(15) 0.3739(4)
C7 C 0.42033(16) 0.34978(15) 0.4579(4)
C8 C 0.35446(19) 0.28049(17) 0.6243(5)
H4 H 0.3252 0.2694 0.6916
C9 C 0.37771(19) 0.33291(17) 0.5620(5)
H5 H 0.3649 0.3565 0.5898
C10 C 0.41543(16) 0.26300(16) 0.4963(5)
H6 H 0.4293 0.2396 0.4754
C11 C 0.44019(17) 0.31405(16) 0.4279(5)
H7 H 0.4698 0.3245 0.3624
H8 H 0.4940 0.3843 0.0079
Fe3 Fe 0.3333 0.1667 0.6667
N14 N 0.57829(12) 0.53950(18) 0.0745(4)
Fe1_2 Fe 0.5000 0.0000 0.0000
N3_2 N 0.54206(12) 0.01761(17) 0.1886(4)
N4_2 N 0.59177(12) 0.05868(18) 0.2397(4)
N6_2 N 0.75504(12) 0.12717(18) 0.5922(4)
C6_2 C 0.59838(15) 0.03929(22) 0.3739(4)
C7_2 C 0.65022(15) 0.07055(22) 0.4579(4)
C8_2 C 0.71951(17) 0.07397(25) 0.6243(5)
H4_2 H 0.7306 0.0558 0.6916
C9_2 C 0.66709(17) 0.04480(25) 0.5620(5)
H5_2 H 0.6435 0.0084 0.5898
C10_2 C 0.73700(16) 0.15243(23) 0.4963(5)
H6_2 H 0.7604 0.1897 0.4754
C11_2 C 0.68595(16) 0.12614(23) 0.4279(5)
H7_2 H 0.6755 0.1453 0.3624
H8_2 H 0.6157 0.1097 0.0079
Fe3_2 Fe 0.8333 0.1667 0.6667
N14_2 N 0.46050(18) 0.03880(22) 0.0745(4)
Fe1_3 Fe 1.0000 0.5000 0.0000
N3_3 N 0.98239(17) 0.52445(12) 0.1886(4)
N4_3 N 0.94132(18) 0.53309(13) 0.2397(4)
N6_3 N 0.87283(18) 0.62787(13) 0.5922(4)
C6_3 C 0.96071(22) 0.55909(16) 0.3739(4)
C7_3 C 0.92945(22) 0.57967(16) 0.4579(4)
C8_3 C 0.92603(25) 0.64554(19) 0.6243(5)
H4_3 H 0.9442 0.6748 0.6916
C9_3 C 0.95520(25) 0.62229(19) 0.5620(5)
H5_3 H 0.9916 0.6351 0.5898
C10_3 C 0.84757(23) 0.58457(16) 0.4963(5)
H6_3 H 0.8103 0.5707 0.4754
C11_3 C 0.87386(23) 0.55981(17) 0.4279(5)
H7_3 H 0.8547 0.5302 0.3624
H8_3 H 0.8903 0.5060 0.0079
Fe3_3 Fe 0.8333 0.6667 0.6667
N14_3 N 0.96120(22) 0.42171(12) 0.0745(4)
N12 N 0.29454(13) 0.08837(12) 0.7411(4)
C19 C 0.31221(19) 0.05284(17) 0.7090(5)
H11 H 0.3415 0.0639 0.6417
C20 C 0.28896(19) 0.00042(17) 0.7713(5)
C21 C 0.25124(16) 0.07033(16) 0.8370(5)
H13 H 0.2374 0.0937 0.8579
C22 C 0.22648(17) 0.01928(16) 0.9054(5)
H14 H 0.1969 0.0088 0.9709
H4_4 H 0.9919 0.6027 0.0249
H4_5 H 0.3973 0.3891 0.0249
N12_2 N 0.91163(12) 0.20616(18) 0.7411(4)
C19_2 C 0.94716(17) 0.25936(25) 0.7090(5)
H11_2 H 0.9361 0.2775 0.6417
C20_2 C 0.99958(17) 0.28853(25) 0.7713(5)
C21_2 C 0.92967(16) 0.18090(23) 0.8370(5)
H13_2 H 0.9063 0.1436 0.8579
C22_2 C 0.98072(16) 0.20719(23) 0.9054(5)
H14_2 H 0.9912 0.1880 0.9709
H4_6 H 0.6109 0.0081 0.0249
N11 N 0.65560(21) 0.76574(15) 0.9196(4)
N12_3 N 0.79384(18) 0.70546(13) 0.7411(4)
C14 C 0.5523(3) 0.7793(2) 0.9769(6)
H10 H 0.5522 0.7644 0.8824
C17 C 0.70596(22) 0.77424(16) 0.9594(4)
C18 C 0.73722(22) 0.75366(16) 0.8754(4)
C19_3 C 0.74064(25) 0.68779(19) 0.7090(5)
H11_3 H 0.7225 0.6585 0.6417
C20_3 C 0.71147(25) 0.71104(19) 0.7713(5)
H12 H 0.6751 0.6982 0.7435
C21_3 C 0.81910(23) 0.74876(16) 0.8370(5)
H13_3 H 0.8564 0.7626 0.8579
C22_3 C 0.79281(23) 0.77352(17) 0.9054(5)
H14_3 H 0.8120 0.8031 0.9709
N1_2 N 0.81685(13) 0.21710(12) 0.7882(4)
N2_2 N 0.7853(2) 0.27599(17) 0.9848(5)
N3_4 N 0.80888(12) 0.12461(12) 0.8553(4)
N4_4 N 0.80024(13) 0.07490(12) 0.9064(4)
C1_2 C 0.8235(2) 0.26658(17) 0.7516(5)
H1 H 0.8393 0.2824 0.6588
C2_2 C 0.8074(3) 0.2944(2) 0.8483(7)
H2_2 H 0.8123 0.3282 0.8166
C4_2 C 0.79431(17) 0.19754(16) 0.9271(5)
C5_2 C 0.78859(16) 0.14392(16) 0.9614(4)
N7 N 0.84981(13) 0.11624(12) 0.5452(4)
N8 N 0.8813(2) 0.05735(17) 0.3486(5)
N9 N 0.85778(12) 0.20873(12) 0.4781(4)
N10 N 0.86642(13) 0.25844(12) 0.4270(4)
N11_2 N 0.90092(15) 0.22319(14) 0.2530(4)
C12 C 0.8431(2) 0.06676(17) 0.5818(5)
H8_4 H 0.8273 0.0510 0.6746
C13 C 0.8592(3) 0.0390(2) 0.4851(7)
H9 H 0.8543 0.0052 0.5168
C14_2 C 0.8873(2) 0.1063(2) 0.3103(6)
H10_2 H 0.9022 0.1211 0.2158
C15 C 0.87235(17) 0.13580(16) 0.4063(5)
C16 C 0.87807(16) 0.18942(16) 0.3720(4)
C17_2 C 0.89242(16) 0.26505(15) 0.2928(4)
C18_2 C 0.91300(16) 0.31689(15) 0.2088(4)
C19_4 C 0.97887(19) 0.38618(17) 0.0424(5)
C20_4 C 0.95562(19) 0.33376(17) 0.1047(5)
H12_2 H 0.9684 0.3102 0.0769
C21_4 C 0.91790(16) 0.40367(16) 0.1704(5)
H13_4 H 0.9040 0.4271 0.1913
C22_4 C 0.89314(17) 0.35262(16) 0.2388(5)
H14_4 H 0.8635 0.3422 0.3043
N1_3 N 0.78290(12) 0.59976(18) 0.7882(4)
N2_3 N 0.72401(17) 0.50935(26) 0.9848(5)
N3_5 N 0.87539(12) 0.68428(17) 0.8553(4)
N4_5 N 0.92510(12) 0.72535(18) 0.9064(4)
C1_3 C 0.73342(17) 0.55696(26) 0.7516(5)
H1_2 H 0.7176 0.5570 0.6588
C2_3 C 0.7056(2) 0.5131(4) 0.8483(7)
H2_3 H 0.6718 0.4842 0.8166
C4_3 C 0.80246(16) 0.59678(23) 0.9271(5)
C5_3 C 0.85608(16) 0.64468(23) 0.9614(4)
N7_2 N 0.88376(12) 0.73358(18) 0.5452(4)
N8_2 N 0.94265(17) 0.82399(26) 0.3486(5)
N9_2 N 0.79127(12) 0.64906(17) 0.4781(4)
N10_2 N 0.74156(12) 0.60799(18) 0.4270(4)
N11_3 N 0.77681(14) 0.67774(21) 0.2530(4)
C12_2 C 0.93324(17) 0.77638(26) 0.5818(5)
H8_5 H 0.9490 0.7764 0.6746
C13_2 C 0.9610(2) 0.8203(4) 0.4851(7)
H9_2 H 0.9948 0.8492 0.5168
C14_3 C 0.8937(2) 0.7811(3) 0.3103(6)
H10_3 H 0.8789 0.7812 0.2158
C15_2 C 0.86420(16) 0.73656(23) 0.4063(5)
C16_2 C 0.81058(16) 0.68866(23) 0.3720(4)
C17_3 C 0.73495(15) 0.62738(22) 0.2928(4)
C18_3 C 0.68311(15) 0.59612(22) 0.2088(4)
C19_5 C 0.61382(17) 0.59270(25) 0.0424(5)
C20_5 C 0.66624(17) 0.62187(25) 0.1047(5)
H12_3 H 0.6898 0.6583 0.0769
C21_5 C 0.59633(16) 0.51424(23) 0.1704(5)
H13_5 H 0.5729 0.4770 0.1913
C22_5 C 0.64738(16) 0.54053(23) 0.2388(5)
H14_5 H 0.6578 0.5214 0.3043
N1_4 N 0.40024(18) 0.18315(13) 0.7882(4)
N2_4 N 0.49065(26) 0.2147(2) 0.9848(5)
N3_6 N 0.31572(17) 0.19112(12) 0.8553(4)
N4_6 N 0.27465(18) 0.19976(13) 0.9064(4)
C1_4 C 0.44304(26) 0.1765(2) 0.7516(5)
H1_3 H 0.4430 0.1607 0.6588
C2_4 C 0.4869(4) 0.1926(3) 0.8483(7)
H2_4 H 0.5158 0.1877 0.8166
C4_4 C 0.40322(23) 0.20569(17) 0.9271(5)
C5_4 C 0.35532(23) 0.21141(16) 0.9614(4)
N7_3 N 0.26642(18) 0.15019(13) 0.5452(4)
N8_3 N 0.17601(26) 0.1187(2) 0.3486(5)
N9_3 N 0.35094(17) 0.14222(12) 0.4781(4)
N10_3 N 0.39201(18) 0.13358(13) 0.4270(4)
N11_4 N 0.32226(21) 0.09908(15) 0.2530(4)
C12_3 C 0.22362(26) 0.1569(2) 0.5818(5)
H8_6 H 0.2236 0.1727 0.6746
C13_3 C 0.1797(4) 0.1408(3) 0.4851(7)
H9_3 H 0.1508 0.1457 0.5168
C14_4 C 0.2189(3) 0.1127(2) 0.3103(6)
H10_4 H 0.2188 0.0978 0.2158
C15_3 C 0.26344(23) 0.12765(17) 0.4063(5)
C16_3 C 0.31134(23) 0.12193(16) 0.3720(4)
C17_4 C 0.37262(22) 0.10758(16) 0.2928(4)
C18_4 C 0.40388(22) 0.08700(16) 0.2088(4)
C19_6 C 0.40730(25) 0.02113(19) 0.0424(5)
C20_6 C 0.37813(25) 0.04438(19) 0.1047(5)
H12_4 H 0.3417 0.0316 0.0769
C21_6 C 0.48576(23) 0.08210(16) 0.1704(5)
H13_6 H 0.5230 0.0960 0.1913
C22_6 C 0.45947(23) 0.10686(17) 0.2388(5)
H14_6 H 0.4786 0.1365 0.3043
Fe1_4 Fe 0.5000 0.5000 1.0000
H1_4 H 0.5060 0.6157 0.9921
N7_4 N 0.51648(13) 0.44957(12) 0.8785(4)
N8_4 N 0.5480(2) 0.39068(17) 0.6819(5)
N9_4 N 0.52445(12) 0.54206(12) 0.8114(4)
N10_4 N 0.53309(13) 0.59177(12) 0.7603(4)
N11_5 N 0.56759(15) 0.55652(14) 0.5863(4)
N12_4 N 0.62787(13) 0.75504(12) 0.4078(4)
C12_4 C 0.5098(2) 0.40009(17) 0.9151(5)
C13_4 C 0.5259(3) 0.3723(2) 0.8184(7)
H9_4 H 0.5210 0.3385 0.8501
C14_5 C 0.5540(2) 0.4396(2) 0.6436(6)
H10_5 H 0.5689 0.4544 0.5491
C15_4 C 0.53902(17) 0.46913(16) 0.7396(5)
C16_4 C 0.54474(16) 0.52275(16) 0.7053(4)
C17_5 C 0.55909(16) 0.59838(15) 0.6261(4)
C18_5 C 0.57967(16) 0.65022(15) 0.5421(4)
C19_7 C 0.64554(19) 0.71951(17) 0.3757(5)
H11_4 H 0.6748 0.7306 0.3084
C20_7 C 0.62229(19) 0.66709(17) 0.4380(5)
H12_5 H 0.6351 0.6435 0.4102
C21_7 C 0.58457(16) 0.73700(16) 0.5037(5)
H13_7 H 0.5707 0.7604 0.5246
C22_7 C 0.55981(17) 0.68595(16) 0.5721(5)
H14_7 H 0.5302 0.6755 0.6376
Fe2 Fe 0.6667 0.8333 0.3333
N13 N 0.42171(12) 0.46050(18) 0.9255(4)
Fe1_5 Fe 0.5000 1.0000 1.0000
H1_5 H 0.3843 0.8903 0.9921
N9_5 N 0.45794(12) 0.98239(17) 0.8114(4)
N10_5 N 0.40823(12) 0.94132(18) 0.7603(4)
N12_5 N 0.24496(12) 0.87283(18) 0.4078(4)
C17_6 C 0.40162(15) 0.96071(22) 0.6261(4)
C18_6 C 0.34978(15) 0.92945(22) 0.5421(4)
C19_8 C 0.28049(17) 0.92603(25) 0.3757(5)
H11_5 H 0.2694 0.9442 0.3084
C20_8 C 0.33291(17) 0.95520(25) 0.4380(5)
H12_6 H 0.3565 0.9916 0.4102
C21_8 C 0.26300(16) 0.84757(23) 0.5037(5)
H13_8 H 0.2396 0.8103 0.5246
C22_8 C 0.31405(16) 0.87386(23) 0.5721(5)
H14_8 H 0.3245 0.8547 0.6376
Fe2_2 Fe 0.1667 0.8333 0.3333
N13_2 N 0.53950(18) 0.96120(22) 0.9255(4)
Fe1_6 Fe 0.0000 0.5000 1.0000
H1_6 H 0.1097 0.4940 0.9921
N9_6 N 0.01761(17) 0.47555(12) 0.8114(4)
N10_6 N 0.05868(18) 0.46691(13) 0.7603(4)
N12_6 N 0.12717(18) 0.37213(13) 0.4078(4)
C17_7 C 0.03929(22) 0.44091(16) 0.6261(4)
C18_7 C 0.07055(22) 0.42033(16) 0.5421(4)
C19_9 C 0.07397(25) 0.35446(19) 0.3757(5)
H11_6 H 0.0558 0.3252 0.3084
C20_9 C 0.04480(25) 0.37771(19) 0.4380(5)
H12_7 H 0.0084 0.3649 0.4102
C21_9 C 0.15243(23) 0.41543(16) 0.5037(5)
H13_9 H 0.1897 0.4293 0.5246
C22_9 C 0.12614(23) 0.44019(17) 0.5721(5)
H14_9 H 0.1453 0.4698 0.6376
Fe2_3 Fe 0.1667 0.3333 0.3333
N13_3 N 0.03880(22) 0.57829(12) 0.9255(4)
N1_5 N 0.15019(13) 0.88376(12) 0.4548(4)
N2_5 N 0.1187(2) 0.94265(17) 0.6514(5)
N3_7 N 0.14222(12) 0.79127(12) 0.5219(4)
N4_7 N 0.13358(13) 0.74156(12) 0.5730(4)
N5_2 N 0.09908(15) 0.77681(14) 0.7470(4)
C1_5 C 0.1569(2) 0.93324(17) 0.4182(5)
H1_7 H 0.1727 0.9490 0.3254
C2_5 C 0.1408(3) 0.9610(2) 0.5149(7)
H2_5 H 0.1457 0.9948 0.4832
C3_2 C 0.1127(2) 0.8937(2) 0.6897(6)
H3_2 H 0.0978 0.8789 0.7842
C4_5 C 0.12765(17) 0.86420(16) 0.5937(5)
C5_5 C 0.12193(16) 0.81058(16) 0.6280(4)
C6_4 C 0.10758(16) 0.73495(15) 0.7072(4)
C7_4 C 0.08700(16) 0.68311(15) 0.7912(4)
C8_4 C 0.02113(19) 0.61382(17) 0.9576(5)
C9_4 C 0.04438(19) 0.66624(17) 0.8953(5)
H5_4 H 0.0316 0.6898 0.9231
C10_4 C 0.08210(16) 0.59633(16) 0.8296(5)
H6_4 H 0.0960 0.5729 0.8087
C11_4 C 0.10686(17) 0.64738(16) 0.7612(5)
H7_4 H 0.1365 0.6578 0.6957
N7_5 N 0.18315(13) 0.78290(12) 0.2118(4)
N8_5 N 0.2147(2) 0.72401(17) 0.0152(5)
N9_7 N 0.19112(12) 0.87539(12) 0.1447(4)
N10_7 N 0.19976(13) 0.92510(12) 0.0936(4)
C12_5 C 0.1765(2) 0.73342(17) 0.2484(5)
H8_7 H 0.1607 0.7176 0.3412
C13_5 C 0.1926(3) 0.7056(2) 0.1517(7)
H9_5 H 0.1877 0.6718 0.1834
C15_5 C 0.20569(17) 0.80246(16) 0.0729(5)
C16_5 C 0.21141(16) 0.85608(16) 0.0386(4)
N13_4 N 0.08837(12) 0.79384(18) 0.2589(4)
N1_6 N 0.11624(12) 0.26642(18) 0.4548(4)
N2_6 N 0.05735(17) 0.17601(26) 0.6514(5)
N3_8 N 0.20873(12) 0.35094(17) 0.5219(4)
N4_8 N 0.25844(12) 0.39201(18) 0.5730(4)
N5_3 N 0.22319(14) 0.32226(21) 0.7470(4)
C1_6 C 0.06676(17) 0.22362(26) 0.4182(5)
H1_8 H 0.0510 0.2236 0.3254
C2_6 C 0.0390(2) 0.1797(4) 0.5149(7)
H2_6 H 0.0052 0.1508 0.4832
C3_3 C 0.1063(2) 0.2189(3) 0.6897(6)
H3_3 H 0.1211 0.2188 0.7842
C4_6 C 0.13580(16) 0.26344(23) 0.5937(5)
C5_6 C 0.18942(16) 0.31134(23) 0.6280(4)
C6_5 C 0.26505(15) 0.37262(22) 0.7072(4)
C7_5 C 0.31689(15) 0.40388(22) 0.7912(4)
C8_5 C 0.38618(17) 0.40730(25) 0.9576(5)
C9_5 C 0.33376(17) 0.37813(25) 0.8953(5)
H5_5 H 0.3102 0.3417 0.9231
C10_5 C 0.40367(16) 0.48576(23) 0.8296(5)
H6_5 H 0.4271 0.5230 0.8087
C11_5 C 0.35262(16) 0.45947(23) 0.7612(5)
H7_5 H 0.3422 0.4786 0.6957
N7_6 N 0.21710(12) 0.40024(18) 0.2118(4)
N8_6 N 0.27599(17) 0.49065(26) 0.0152(5)
N9_8 N 0.12461(12) 0.31572(17) 0.1447(4)
N10_8 N 0.07490(12) 0.27465(18) 0.0936(4)
C12_6 C 0.26658(17) 0.44304(26) 0.2484(5)
H8_8 H 0.2824 0.4430 0.3412
C13_6 C 0.2944(2) 0.4869(4) 0.1517(7)
H9_6 H 0.3282 0.5158 0.1834
C15_6 C 0.19754(16) 0.40322(23) 0.0729(5)
C16_6 C 0.14392(16) 0.35532(23) 0.0386(4)
N13_5 N 0.20616(18) 0.29454(22) 0.2589(4)
N1_7 N 0.73358(18) 0.84981(13) 0.4548(4)
N2_7 N 0.82399(26) 0.8813(2) 0.6514(5)
N3_9 N 0.64906(17) 0.85778(12) 0.5219(4)
N4_9 N 0.60799(18) 0.86642(13) 0.5730(4)
N5_4 N 0.67774(21) 0.90092(15) 0.7470(4)
C1_7 C 0.77638(26) 0.8431(2) 0.4182(5)
H1_9 H 0.7764 0.8273 0.3254
C2_7 C 0.8203(4) 0.8592(3) 0.5149(7)
H2_7 H 0.8492 0.8543 0.4832
C3_4 C 0.7811(3) 0.8873(2) 0.6897(6)
H3_4 H 0.7812 0.9022 0.7842
C4_7 C 0.73656(23) 0.87235(17) 0.5937(5)
C5_7 C 0.68866(23) 0.87807(16) 0.6280(4)
C6_6 C 0.62738(22) 0.89242(16) 0.7072(4)
C7_6 C 0.59612(22) 0.91300(16) 0.7912(4)
C8_6 C 0.59270(25) 0.97887(19) 0.9576(5)
C9_6 C 0.62187(25) 0.95562(19) 0.8953(5)
H5_6 H 0.6583 0.9684 0.9231
C10_6 C 0.51424(23) 0.91790(16) 0.8296(5)
H6_6 H 0.4770 0.9040 0.8087
C11_6 C 0.54053(23) 0.89314(17) 0.7612(5)
H7_6 H 0.5214 0.8635 0.6957
N7_7 N 0.59976(18) 0.81685(13) 0.2118(4)
N8_7 N 0.50935(26) 0.7853(2) 0.0152(5)
N9_9 N 0.68428(17) 0.80888(12) 0.1447(4)
N10_9 N 0.72535(18) 0.80024(13) 0.0936(4)
C12_7 C 0.55696(26) 0.8235(2) 0.2484(5)
H8_9 H 0.5570 0.8393 0.3412
C13_7 C 0.5131(4) 0.8074(3) 0.1517(7)
H9_7 H 0.4842 0.8123 0.1834
C15_7 C 0.59678(23) 0.79431(17) 0.0729(5)
C16_7 C 0.64468(23) 0.78859(16) 0.0386(4)
N13_6 N 0.70546(22) 0.91163(12) 0.2589(4)
H11_7 H 0.0081 0.3973 0.9751
C8_7 C 0.68779(19) 0.94716(17) 0.2910(5)
H4_7 H 0.6585 0.9361 0.3583
C9_7 C 0.71104(19) 0.99958(17) 0.2287(5)
C10_7 C 0.74876(16) 0.92967(16) 0.1630(5)
H6_7 H 0.7626 0.9063 0.1421
C11_7 C 0.77352(17) 0.98072(16) 0.0946(5)
H7_7 H 0.8031 0.9912 0.0291
C8_8 C 0.05284(17) 0.74064(25) 0.2910(5)
H4_8 H 0.0639 0.7225 0.3583
C9_8 C 0.00042(17) 0.71147(25) 0.2287(5)
C10_8 C 0.07033(16) 0.81910(23) 0.1630(5)
H6_8 H 0.0937 0.8564 0.1421
C11_8 C 0.01928(16) 0.79281(23) 0.0946(5)
H7_8 H 0.0088 0.8120 0.0291
H11_8 H 0.6027 0.6109 0.9751
N5_5 N 0.34440(21) 0.23426(15) 0.0804(4)
C3_5 C 0.4477(3) 0.2207(2) 0.0231(6)
H3_5 H 0.4478 0.2356 0.1176
C6_7 C 0.29404(22) 0.22576(16) 0.0406(4)
C7_7 C 0.26278(22) 0.24634(16) 0.1246(4)
C8_9 C 0.25936(25) 0.31221(19) 0.2910(5)
H4_9 H 0.2775 0.3415 0.3583
C9_9 C 0.28853(25) 0.28896(19) 0.2287(5)
H5_7 H 0.3249 0.3018 0.2565
C10_9 C 0.18090(23) 0.25124(16) 0.1630(5)
H6_9 H 0.1436 0.2374 0.1421
C11_9 C 0.20719(23) 0.22648(17) 0.0946(5)
H7_9 H 0.1880 0.1969 0.0291
H11_9 H 0.3891 0.9919 0.9751
Fe1_7 Fe 0.5000 0.0000 1.0000
N7_8 N 0.55043(12) 0.06691(18) 0.8785(4)
N8_8 N 0.60932(17) 0.15732(26) 0.6819(5)
N11_6 N 0.44348(14) 0.01107(21) 0.5863(4)
C12_8 C 0.59991(17) 0.10971(26) 0.9151(5)
C13_8 C 0.6277(2) 0.1536(4) 0.8184(7)
H9_8 H 0.6615 0.1825 0.8501
C14_6 C 0.5604(2) 0.1144(3) 0.6436(6)
H10_6 H 0.5456 0.1145 0.5491
C15_8 C 0.53087(16) 0.06989(23) 0.7396(5)
C16_8 C 0.47725(16) 0.02199(23) 0.7053(4)
Fe1_8 Fe 0.5000 1.0000 0.0000
N1_8 N 0.44957(12) 0.93309(18) 0.1215(4)
N2_8 N 0.39068(17) 0.84268(26) 0.3181(5)
N5_6 N 0.55652(14) 0.98893(21) 0.4137(4)
C1_8 C 0.40009(17) 0.89029(26) 0.0849(5)
C2_8 C 0.3723(2) 0.8464(4) 0.1816(7)
H2_8 H 0.3385 0.8175 0.1499
C3_6 C 0.4396(2) 0.8856(3) 0.3564(6)
H3_6 H 0.4544 0.8855 0.4509
C4_8 C 0.46913(16) 0.93011(23) 0.2604(5)
C5_8 C 0.52275(16) 0.97801(23) 0.2947(4)
Fe1_9 Fe 0.0000 0.5000 0.0000
N1_9 N 0.06691(18) 0.51648(13) 0.1215(4)
N2_9 N 0.15732(26) 0.5480(2) 0.3181(5)
N5_7 N 0.01107(21) 0.56759(15) 0.4137(4)
C1_9 C 0.10971(26) 0.5098(2) 0.0849(5)
C2_9 C 0.1536(4) 0.5259(3) 0.1816(7)
H2_9 H 0.1825 0.5210 0.1499
C3_7 C 0.1144(3) 0.5540(2) 0.3564(6)
H3_7 H 0.1145 0.5689 0.4509
C4_9 C 0.06989(23) 0.53902(17) 0.2604(5)
C5_9 C 0.02199(23) 0.54474(16) 0.2947(4)
Fe1_10 Fe 1.0000 0.5000 1.0000
N7_9 N 0.93309(18) 0.48352(13) 0.8785(4)
N8_9 N 0.84268(26) 0.4520(2) 0.6819(5)
N11_7 N 0.98893(21) 0.43241(15) 0.5863(4)
C12_9 C 0.89029(26) 0.4902(2) 0.9151(5)
C13_9 C 0.8464(4) 0.4741(3) 0.8184(7)
H9_9 H 0.8175 0.4790 0.8501
C14_7 C 0.8856(3) 0.4460(2) 0.6436(6)
H10_7 H 0.8855 0.4311 0.5491
C15_9 C 0.93011(23) 0.46098(17) 0.7396(5)
C16_9 C 0.97801(23) 0.45526(16) 0.7053(4)
N11_8 N 0.23426(15) 0.88985(14) 0.9196(4)
C14_8 C 0.2207(2) 0.7729(2) 0.9769(6)
H10_8 H 0.2356 0.7877 0.8824
C17_8 C 0.22576(16) 0.93171(15) 0.9594(4)
C18_8 C 0.24634(16) 0.98355(15) 0.8754(4)
H12_8 H 0.3018 0.9768 0.7435
N11_9 N 0.11015(14) 0.34440(21) 0.9196(4)
C14_9 C 0.2271(2) 0.4477(3) 0.9769(6)
H10_9 H 0.2123 0.4478 0.8824
C17_9 C 0.06829(15) 0.29404(22) 0.9594(4)
C18_9 C 0.01645(15) 0.26278(22) 0.8754(4)
H12_9 H 0.0232 0.3249 0.7435
N5_8 N 0.76574(15) 0.11015(14) 0.0804(4)
C3_8 C 0.7793(2) 0.2271(2) 0.0231(6)
H3_8 H 0.7644 0.2123 0.1176
C6_8 C 0.77424(16) 0.06829(15) 0.0406(4)
C7_8 C 0.75366(16) 0.01645(15) 0.1246(4)
H5_8 H 0.6982 0.0232 0.2565
N5_9 N 0.88985(14) 0.65560(21) 0.0804(4)
C3_9 C 0.7729(2) 0.5523(3) 0.0231(6)
H3_9 H 0.7877 0.5522 0.1176
C6_9 C 0.93171(15) 0.70596(22) 0.0406(4)
C7_9 C 0.98355(15) 0.73722(22) 0.1246(4)
H5_9 H 0.9768 0.6751 0.2565
loop_
_geom_bond_atom_site_label_1
_geom_bond_atom_site_label_2
_geom_bond_site_symmetry_1
_geom_bond_site_symmetry_2
Fe1 N1 1_555 1_555
N1 C1 1_555 1_555
N2 C2 1_555 1_555
N3 Fe1 1_555 1_555
N4 N3 1_555 1_555
N5 C5 1_555 1_555
N6 C8 1_555 1_555
C2 C1 1_555 1_555
H2 C2 1_555 1_555
C3 N2 1_555 1_555
H3 C3 1_555 1_555
C4 N1 1_555 1_555
C5 N3 1_555 1_555
C6 N4 1_555 1_555
C7 C6 1_555 1_555
C8 H4 1_555 1_555
C9 C7 1_555 1_555
H5 C9 1_555 1_555
C10 N6 1_555 1_555
H6 C10 1_555 1_555
C11 C7 1_555 1_555
H7 C11 1_555 1_555
Fe3 N6 1_555 1_555
N14 Fe1 1_555 1_555
N5 C6 1_555 1_555
C3 C4 1_555 1_555
C4 C5 1_555 1_555
C8 C9 1_555 1_555
C10 C11 1_555 1_555
N3_2 Fe1_2 1_555 1_555
N4_2 N3_2 1_555 1_555
N6_2 C8_2 1_555 1_555
C6_2 N4_2 1_555 1_555
C7_2 C6_2 1_555 1_555
C8_2 H4_2 1_555 1_555
C9_2 C7_2 1_555 1_555
H5_2 C9_2 1_555 1_555
C10_2 N6_2 1_555 1_555
H6_2 C10_2 1_555 1_555
C11_2 C7_2 1_555 1_555
H7_2 C11_2 1_555 1_555
Fe3_2 N6_2 1_555 1_555
N14_2 Fe1_2 1_555 1_555
C8_2 C9_2 1_555 1_555
C10_2 C11_2 1_555 1_555
N3_3 Fe1_3 1_555 1_555
N4_3 N3_3 1_555 1_555
N6_3 C8_3 1_555 1_555
C6_3 N4_3 1_555 1_555
C7_3 C6_3 1_555 1_555
C8_3 H4_3 1_555 1_555
C9_3 C7_3 1_555 1_555
H5_3 C9_3 1_555 1_555
C10_3 N6_3 1_555 1_555
H6_3 C10_3 1_555 1_555
C11_3 C7_3 1_555 1_555
H7_3 C11_3 1_555 1_555
Fe3_3 N6_3 1_555 1_555
N14_3 Fe1_3 1_555 1_555
C8_3 C9_3 1_555 1_555
C10_3 C11_3 1_555 1_555
N12 C19 1_555 1_555
C19 H11 1_555 1_555
C21 N12 1_555 1_555
H13 C21 1_555 1_555
H14 C22 1_555 1_555
Fe3 N12 1_555 1_555
C19 C20 1_555 1_555
C21 C22 1_555 1_555
N12_2 C19_2 1_555 1_555
C19_2 H11_2 1_555 1_555
C21_2 N12_2 1_555 1_555
H13_2 C21_2 1_555 1_555
H14_2 C22_2 1_555 1_555
Fe3_2 N12_2 1_555 1_555
C19_2 C20_2 1_555 1_555
C21_2 C22_2 1_555 1_555
N12_3 C19_3 1_555 1_555
H10 C14 1_555 1_555
C18 C17 1_555 1_555
C19_3 H11_3 1_555 1_555
C20_3 C18 1_555 1_555
H12 C20_3 1_555 1_555
C21_3 N12_3 1_555 1_555
H13_3 C21_3 1_555 1_555
C22_3 C18 1_555 1_555
H14_3 C22_3 1_555 1_555
Fe3_3 N12_3 1_555 1_555
N11 C17 1_555 1_555
C19_3 C20_3 1_555 1_555
C21_3 C22_3 1_555 1_555
Fe3_2 N1_2 1_555 1_555
N1_2 C1_2 1_555 1_555
N2_2 C2_2 1_555 1_555
N3_4 Fe3_2 1_555 1_555
N4_4 N3_4 1_555 1_555
C1_2 H1 1_555 1_555
C2_2 C1_2 1_555 1_555
H2_2 C2_2 1_555 1_555
C4_2 N1_2 1_555 1_555
C5_2 N3_4 1_555 1_555
N7 Fe3_2 1_555 1_555
N8 C13 1_555 1_555
N9 Fe3_2 1_555 1_555
N10 N9 1_555 1_555
N11_2 C16 1_555 1_555
N14_3 C19_4 1_555 1_555
C12 N7 1_555 1_555
H8_4 C12 1_555 1_555
C13 C12 1_555 1_555
H9 C13 1_555 1_555
C14_2 N8 1_555 1_555
H10_2 C14_2 1_555 1_555
C15 N7 1_555 1_555
C16 N9 1_555 1_555
C17_2 N10 1_555 1_555
C18_2 C17_2 1_555 1_555
C20_4 C18_2 1_555 1_555
H12_2 C20_4 1_555 1_555
C21_4 N14_3 1_555 1_555
H13_4 C21_4 1_555 1_555
C22_4 C18_2 1_555 1_555
H14_4 C22_4 1_555 1_555
C4_2 C5_2 1_555 1_555
N11_2 C17_2 1_555 1_555
C14_2 C15 1_555 1_555
C15 C16 1_555 1_555
C19_4 C20_4 1_555 1_555
C21_4 C22_4 1_555 1_555
Fe3_3 N1_3 1_555 1_555
N1_3 C1_3 1_555 1_555
N2_3 C2_3 1_555 1_555
N3_5 Fe3_3 1_555 1_555
N4_5 N3_5 1_555 1_555
C1_3 H1_2 1_555 1_555
C2_3 C1_3 1_555 1_555
H2_3 C2_3 1_555 1_555
C4_3 N1_3 1_555 1_555
C5_3 N3_5 1_555 1_555
N7_2 Fe3_3 1_555 1_555
N8_2 C13_2 1_555 1_555
N9_2 Fe3_3 1_555 1_555
N10_2 N9_2 1_555 1_555
N11_3 C16_2 1_555 1_555
N14 C19_5 1_555 1_555
C12_2 N7_2 1_555 1_555
H8_5 C12_2 1_555 1_555
C13_2 C12_2 1_555 1_555
H9_2 C13_2 1_555 1_555
C14_3 N8_2 1_555 1_555
H10_3 C14_3 1_555 1_555
C15_2 N7_2 1_555 1_555
C16_2 N9_2 1_555 1_555
C17_3 N10_2 1_555 1_555
C18_3 C17_3 1_555 1_555
C20_5 C18_3 1_555 1_555
H12_3 C20_5 1_555 1_555
C21_5 N14 1_555 1_555
H13_5 C21_5 1_555 1_555
C22_5 C18_3 1_555 1_555
H14_5 C22_5 1_555 1_555
C4_3 C5_3 1_555 1_555
N11_3 C17_3 1_555 1_555
C14_3 C15_2 1_555 1_555
C15_2 C16_2 1_555 1_555
C19_5 C20_5 1_555 1_555
C21_5 C22_5 1_555 1_555
Fe3 N1_4 1_555 1_555
N1_4 C1_4 1_555 1_555
N2_4 C2_4 1_555 1_555
N3_6 Fe3 1_555 1_555
N4_6 N3_6 1_555 1_555
C1_4 H1_3 1_555 1_555
C2_4 C1_4 1_555 1_555
H2_4 C2_4 1_555 1_555
C4_4 N1_4 1_555 1_555
C5_4 N3_6 1_555 1_555
N7_3 Fe3 1_555 1_555
N8_3 C13_3 1_555 1_555
N9_3 Fe3 1_555 1_555
N10_3 N9_3 1_555 1_555
N11_4 C16_3 1_555 1_555
N14_2 C19_6 1_555 1_555
C12_3 N7_3 1_555 1_555
H8_6 C12_3 1_555 1_555
C13_3 C12_3 1_555 1_555
H9_3 C13_3 1_555 1_555
C14_4 N8_3 1_555 1_555
H10_4 C14_4 1_555 1_555
C15_3 N7_3 1_555 1_555
C16_3 N9_3 1_555 1_555
C17_4 N10_3 1_555 1_555
C18_4 C17_4 1_555 1_555
C20_6 C18_4 1_555 1_555
H12_4 C20_6 1_555 1_555
C21_6 N14_2 1_555 1_555
H13_6 C21_6 1_555 1_555
C22_6 C18_4 1_555 1_555
H14_6 C22_6 1_555 1_555
C4_4 C5_4 1_555 1_555
N11_4 C17_4 1_555 1_555
C14_4 C15_3 1_555 1_555
C15_3 C16_3 1_555 1_555
C19_6 C20_6 1_555 1_555
C21_6 C22_6 1_555 1_555
N7_4 Fe1_4 1_555 1_555
N8_4 C13_4 1_555 1_555
N9_4 Fe1_4 1_555 1_555
N10_4 N9_4 1_555 1_555
N11_5 C16_4 1_555 1_555
N12_4 C19_7 1_555 1_555
C12_4 N7_4 1_555 1_555
C13_4 C12_4 1_555 1_555
H9_4 C13_4 1_555 1_555
C14_5 N8_4 1_555 1_555
H10_5 C14_5 1_555 1_555
C15_4 N7_4 1_555 1_555
C16_4 N9_4 1_555 1_555
C17_5 N10_4 1_555 1_555
C18_5 C17_5 1_555 1_555
C19_7 H11_4 1_555 1_555
C20_7 C18_5 1_555 1_555
H12_5 C20_7 1_555 1_555
C21_7 N12_4 1_555 1_555
H13_7 C21_7 1_555 1_555
C22_7 C18_5 1_555 1_555
H14_7 C22_7 1_555 1_555
Fe2 N12_4 1_555 1_555
N13 Fe1_4 1_555 1_555
N11_5 C17_5 1_555 1_555
C14_5 C15_4 1_555 1_555
C15_4 C16_4 1_555 1_555
C19_7 C20_7 1_555 1_555
C21_7 C22_7 1_555 1_555
N9_5 Fe1_5 1_555 1_555
N10_5 N9_5 1_555 1_555
N12_5 C19_8 1_555 1_555
C17_6 N10_5 1_555 1_555
C18_6 C17_6 1_555 1_555
C19_8 H11_5 1_555 1_555
C20_8 C18_6 1_555 1_555
H12_6 C20_8 1_555 1_555
C21_8 N12_5 1_555 1_555
H13_8 C21_8 1_555 1_555
C22_8 C18_6 1_555 1_555
H14_8 C22_8 1_555 1_555
Fe2_2 N12_5 1_555 1_555
N13_2 Fe1_5 1_555 1_555
C19_8 C20_8 1_555 1_555
C21_8 C22_8 1_555 1_555
N9_6 Fe1_6 1_555 1_555
N10_6 N9_6 1_555 1_555
N12_6 C19_9 1_555 1_555
C17_7 N10_6 1_555 1_555
C18_7 C17_7 1_555 1_555
C19_9 H11_6 1_555 1_555
C20_9 C18_7 1_555 1_555
H12_7 C20_9 1_555 1_555
C21_9 N12_6 1_555 1_555
H13_9 C21_9 1_555 1_555
C22_9 C18_7 1_555 1_555
H14_9 C22_9 1_555 1_555
Fe2_3 N12_6 1_555 1_555
N13_3 Fe1_6 1_555 1_555
C19_9 C20_9 1_555 1_555
C21_9 C22_9 1_555 1_555
Fe2_2 N1_5 1_555 1_555
N1_5 C1_5 1_555 1_555
N2_5 C2_5 1_555 1_555
N3_7 Fe2_2 1_555 1_555
N4_7 N3_7 1_555 1_555
N5_2 C5_5 1_555 1_555
N13_3 C8_4 1_555 1_555
C1_5 H1_7 1_555 1_555
C2_5 C1_5 1_555 1_555
H2_5 C2_5 1_555 1_555
C3_2 N2_5 1_555 1_555
H3_2 C3_2 1_555 1_555
C4_5 N1_5 1_555 1_555
C5_5 N3_7 1_555 1_555
C6_4 N4_7 1_555 1_555
C7_4 C6_4 1_555 1_555
C9_4 C7_4 1_555 1_555
H5_4 C9_4 1_555 1_555
C10_4 N13_3 1_555 1_555
H6_4 C10_4 1_555 1_555
C11_4 C7_4 1_555 1_555
H7_4 C11_4 1_555 1_555
N7_5 Fe2_2 1_555 1_555
N8_5 C13_5 1_555 1_555
N9_7 Fe2_2 1_555 1_555
N10_7 N9_7 1_555 1_555
C12_5 N7_5 1_555 1_555
H8_7 C12_5 1_555 1_555
C13_5 C12_5 1_555 1_555
H9_5 C13_5 1_555 1_555
C15_5 N7_5 1_555 1_555
C16_5 N9_7 1_555 1_555
N13_4 Fe2_2 1_555 1_555
N5_2 C6_4 1_555 1_555
C3_2 C4_5 1_555 1_555
C4_5 C5_5 1_555 1_555
C8_4 C9_4 1_555 1_555
C10_4 C11_4 1_555 1_555
C15_5 C16_5 1_555 1_555
Fe2_3 N1_6 1_555 1_555
N1_6 C1_6 1_555 1_555
N2_6 C2_6 1_555 1_555
N3_8 Fe2_3 1_555 1_555
N4_8 N3_8 1_555 1_555
N5_3 C5_6 1_555 1_555
N13 C8_5 1_555 1_555
C1_6 H1_8 1_555 1_555
C2_6 C1_6 1_555 1_555
H2_6 C2_6 1_555 1_555
C3_3 N2_6 1_555 1_555
H3_3 C3_3 1_555 1_555
C4_6 N1_6 1_555 1_555
C5_6 N3_8 1_555 1_555
C6_5 N4_8 1_555 1_555
C7_5 C6_5 1_555 1_555
C9_5 C7_5 1_555 1_555
H5_5 C9_5 1_555 1_555
C10_5 N13 1_555 1_555
H6_5 C10_5 1_555 1_555
C11_5 C7_5 1_555 1_555
H7_5 C11_5 1_555 1_555
N7_6 Fe2_3 1_555 1_555
N8_6 C13_6 1_555 1_555
N9_8 Fe2_3 1_555 1_555
N10_8 N9_8 1_555 1_555
C12_6 N7_6 1_555 1_555
H8_8 C12_6 1_555 1_555
C13_6 C12_6 1_555 1_555
H9_6 C13_6 1_555 1_555
C15_6 N7_6 1_555 1_555
C16_6 N9_8 1_555 1_555
N13_5 Fe2_3 1_555 1_555
N5_3 C6_5 1_555 1_555
C3_3 C4_6 1_555 1_555
C4_6 C5_6 1_555 1_555
C8_5 C9_5 1_555 1_555
C10_5 C11_5 1_555 1_555
C15_6 C16_6 1_555 1_555
Fe2 N1_7 1_555 1_555
N1_7 C1_7 1_555 1_555
N2_7 C2_7 1_555 1_555
N3_9 Fe2 1_555 1_555
N4_9 N3_9 1_555 1_555
N5_4 C5_7 1_555 1_555
N13_2 C8_6 1_555 1_555
C1_7 H1_9 1_555 1_555
C2_7 C1_7 1_555 1_555
H2_7 C2_7 1_555 1_555
C3_4 N2_7 1_555 1_555
H3_4 C3_4 1_555 1_555
C4_7 N1_7 1_555 1_555
C5_7 N3_9 1_555 1_555
C6_6 N4_9 1_555 1_555
C7_6 C6_6 1_555 1_555
C9_6 C7_6 1_555 1_555
H5_6 C9_6 1_555 1_555
C10_6 N13_2 1_555 1_555
H6_6 C10_6 1_555 1_555
C11_6 C7_6 1_555 1_555
H7_6 C11_6 1_555 1_555
N7_7 Fe2 1_555 1_555
N8_7 C13_7 1_555 1_555
N9_9 Fe2 1_555 1_555
N10_9 N9_9 1_555 1_555
C12_7 N7_7 1_555 1_555
H8_9 C12_7 1_555 1_555
C13_7 C12_7 1_555 1_555
H9_7 C13_7 1_555 1_555
C15_7 N7_7 1_555 1_555
C16_7 N9_9 1_555 1_555
N13_6 Fe2 1_555 1_555
N5_4 C6_6 1_555 1_555
C3_4 C4_7 1_555 1_555
C4_7 C5_7 1_555 1_555
C8_6 C9_6 1_555 1_555
C10_6 C11_6 1_555 1_555
C15_7 C16_7 1_555 1_555
N13_6 C8_7 1_555 1_555
C8_7 H4_7 1_555 1_555
C10_7 N13_6 1_555 1_555
H6_7 C10_7 1_555 1_555
H7_7 C11_7 1_555 1_555
C8_7 C9_7 1_555 1_555
C10_7 C11_7 1_555 1_555
N13_4 C8_8 1_555 1_555
C8_8 H4_8 1_555 1_555
C10_8 N13_4 1_555 1_555
H6_8 C10_8 1_555 1_555
H7_8 C11_8 1_555 1_555
C8_8 C9_8 1_555 1_555
C10_8 C11_8 1_555 1_555
N13_5 C8_9 1_555 1_555
H3_5 C3_5 1_555 1_555
C7_7 C6_7 1_555 1_555
C8_9 H4_9 1_555 1_555
C9_9 C7_7 1_555 1_555
H5_7 C9_9 1_555 1_555
C10_9 N13_5 1_555 1_555
H6_9 C10_9 1_555 1_555
C11_9 C7_7 1_555 1_555
H7_9 C11_9 1_555 1_555
N5_5 C6_7 1_555 1_555
C8_9 C9_9 1_555 1_555
C10_9 C11_9 1_555 1_555
N7_8 Fe1_7 1_555 1_555
N8_8 C13_8 1_555 1_555
N11_6 C16_8 1_555 1_555
C12_8 N7_8 1_555 1_555
C13_8 C12_8 1_555 1_555
H9_8 C13_8 1_555 1_555
C14_6 N8_8 1_555 1_555
H10_6 C14_6 1_555 1_555
C15_8 N7_8 1_555 1_555
C14_6 C15_8 1_555 1_555
C15_8 C16_8 1_555 1_555
Fe1_8 N1_8 1_555 1_555
N1_8 C1_8 1_555 1_555
N2_8 C2_8 1_555 1_555
N5_6 C5_8 1_555 1_555
C2_8 C1_8 1_555 1_555
H2_8 C2_8 1_555 1_555
C3_6 N2_8 1_555 1_555
H3_6 C3_6 1_555 1_555
C4_8 N1_8 1_555 1_555
C3_6 C4_8 1_555 1_555
C4_8 C5_8 1_555 1_555
Fe1_9 N1_9 1_555 1_555
N1_9 C1_9 1_555 1_555
N2_9 C2_9 1_555 1_555
N5_7 C5_9 1_555 1_555
C2_9 C1_9 1_555 1_555
H2_9 C2_9 1_555 1_555
C3_7 N2_9 1_555 1_555
H3_7 C3_7 1_555 1_555
C4_9 N1_9 1_555 1_555
C3_7 C4_9 1_555 1_555
C4_9 C5_9 1_555 1_555
N7_9 Fe1_10 1_555 1_555
N8_9 C13_9 1_555 1_555
N11_7 C16_9 1_555 1_555
C12_9 N7_9 1_555 1_555
C13_9 C12_9 1_555 1_555
H9_9 C13_9 1_555 1_555
C14_7 N8_9 1_555 1_555
H10_7 C14_7 1_555 1_555
C15_9 N7_9 1_555 1_555
C14_7 C15_9 1_555 1_555
C15_9 C16_9 1_555 1_555
H10_8 C14_8 1_555 1_555
C18_8 C17_8 1_555 1_555
N11_8 C17_8 1_555 1_555
H10_9 C14_9 1_555 1_555
C18_9 C17_9 1_555 1_555
N11_9 C17_9 1_555 1_555
H3_8 C3_8 1_555 1_555
C7_8 C6_8 1_555 1_555
N5_8 C6_8 1_555 1_555
H3_9 C3_9 1_555 1_555
C7_9 C6_9 1_555 1_555
N5_9 C6_9 1_555 1_555

#END
