
###############################################################################
#
# This file contains modified crystal structure data generated from the
# MOF subset of the Cambridge Structural Database (CSD) v543 
# hosted by the Cambridge Crystallographic Data Centre (CCDC).
#
# This work is licensed under the Creative Commons
# Attribution-NonCommercial-ShareAlike 4.0 International License.
# To view a copy of this license, visit
# http://creativecommons.org/licenses/by-nc-sa/4.0/
# or send a letter to
# Creative Commons, PO Box 1866, Mountain View, CA 94042, USA.
#
# CIF created using the CSD Python API on 29 September 2022
# The structure has been converted into the P1 space group
# The structure has a 3D framework
# The original CSD entry ODEPUL is in the rhombohedral crystal system
# The framework has been calculated to contain at least 10.0% void space
# The void calculation uses a probe of radius 1.32A, grid spacing 0.4
#
###############################################################################

data_ODEPUL
_chemical_formula_moiety         '(C198 H126 Fe11 N108)n'
_symmetry_cell_setting           triclinic
_symmetry_space_group_name_H-M   'P 1'
_symmetry_Int_Tables_number      1
_space_group_name_Hall           'P 1'
loop_
_symmetry_equiv_pos_site_id
_symmetry_equiv_pos_as_xyz
1 x,y,z
_cell_length_a                   28.873(4)
_cell_length_b                   28.873(4)
_cell_length_c                   9.3425(19)
_cell_angle_alpha                90
_cell_angle_beta                 90
_cell_angle_gamma                120
_cell_volume                     6744.93
loop_
_atom_site_label
_atom_site_type_symbol
_atom_site_fract_x
_atom_site_fract_y
_atom_site_fract_z
Fe2 Fe 0.0000 0.5001 -0.0000
Fe3 Fe 0.4999 0.5000 -0.0000
H8 H 0.8806 0.4753 0.0074
Fe2_2 Fe 1.0000 0.5001 -0.0000
Fe3_2 Fe 0.5000 -0.0000 -0.0000
H8_2 H 0.5247 0.4052 0.0074
Fe3_3 Fe 0.5000 1.0000 -0.0000
H8_3 H 0.5948 0.1194 0.0074
Fe1 Fe 0.8334 0.6666 0.6666
N1 N 0.80755(16) 0.59479(16) 0.7566(4)
N2 N 0.78613(17) 0.49864(17) 0.8929(5)
N3 N 0.89437(14) 0.68710(15) 0.8027(4)
N4 N 0.94266(15) 0.73022(16) 0.8401(4)
N5 N 0.93151(16) 0.65704(16) 0.9651(4)
C1 C 0.76328(19) 0.54814(19) 0.7277(5)
H1 H 0.7386 0.5472 0.6592
C2 C 0.7529(2) 0.5010(2) 0.7960(6)
H2 H 0.7207 0.4690 0.7732
C3 C 0.8305(2) 0.5456(2) 0.9216(6)
H3 H 0.8552 0.5464 0.9900
C4 C 0.84132(18) 0.59321(19) 0.8547(5)
C5 C 0.88941(18) 0.64498(19) 0.8790(5)
C6 C 0.96309(19) 0.70992(19) 0.9361(5)
N12 N 0.79529(15) 0.68728(21) 0.8147(4)
C18 C 0.74110(19) 0.72592(27) 0.9883(5)
C19 C 0.71343(18) 0.68007(26) 0.9051(5)
H11 H 0.6754 0.6610 0.9053
C20 C 0.74122(19) 0.66196(28) 0.8216(5)
H12 H 0.7212 0.6304 0.7668
C21 C 0.82241(19) 0.73037(27) 0.9035(5)
H13 H 0.8603 0.7474 0.9066
C22 C 0.79713(19) 0.75047(28) 0.9896(5)
N13 N 0.85912(16) 0.73854(16) 0.5767(4)
N14 N 0.77230(14) 0.64623(15) 0.5306(4)
N15 N 0.87137(15) 0.64606(21) 0.5187(4)
Fe1_2 Fe 0.3334 0.1667 0.6666
N1_2 N 0.40521(16) 0.21275(23) 0.7566(4)
N2_2 N 0.50136(17) 0.28748(24) 0.8929(5)
N3_2 N 0.31290(15) 0.20726(21) 0.8027(4)
N4_2 N 0.26978(16) 0.21243(22) 0.8401(4)
N5_2 N 0.34296(16) 0.27446(23) 0.9651(4)
C1_2 C 0.45186(19) 0.21513(27) 0.7277(5)
H1_2 H 0.4528 0.1913 0.6592
C2_2 C 0.4990(2) 0.2518(3) 0.7960(6)
H2_2 H 0.5310 0.2516 0.7732
C3_2 C 0.4544(2) 0.2848(3) 0.9216(6)
H3_2 H 0.4536 0.3087 0.9900
C4_2 C 0.40679(19) 0.24810(26) 0.8547(5)
C5_2 C 0.35502(19) 0.24442(26) 0.8790(5)
C6_2 C 0.29008(19) 0.25316(27) 0.9361(5)
H7 H 0.1823 0.2192 0.9511
N12_2 N 0.31272(21) 0.10802(26) 0.8147(4)
C18_2 C 0.27408(27) 0.01519(33) 0.9883(5)
C19_2 C 0.31993(26) 0.03337(32) 0.9051(5)
H11_2 H 0.3390 0.0145 0.9053
C20_2 C 0.33804(28) 0.07927(34) 0.8216(5)
H12_2 H 0.3696 0.0909 0.7668
C21_2 C 0.26963(27) 0.09205(33) 0.9035(5)
H13_2 H 0.2526 0.1130 0.9066
C22_2 C 0.24953(28) 0.04667(34) 0.9896(5)
N13_2 N 0.26146(16) 0.12058(23) 0.5767(4)
N14_2 N 0.35377(15) 0.12607(21) 0.5306(4)
N15_2 N 0.35394(21) 0.22532(26) 0.5187(4)
Fe1_3 Fe 0.8333 0.1666 0.6666
N1_3 N 0.78725(23) 0.19245(16) 0.7566(4)
N2_3 N 0.71252(24) 0.21387(17) 0.8929(5)
N3_3 N 0.79274(21) 0.10563(14) 0.8027(4)
N4_3 N 0.78757(22) 0.05734(15) 0.8401(4)
N5_3 N 0.72554(23) 0.06849(16) 0.9651(4)
C1_3 C 0.78487(27) 0.23672(19) 0.7277(5)
H1_3 H 0.8087 0.2614 0.6592
C2_3 C 0.7482(3) 0.2471(2) 0.7960(6)
H2_3 H 0.7484 0.2793 0.7732
C3_3 C 0.7152(3) 0.1695(2) 0.9216(6)
H3_3 H 0.6913 0.1448 0.9900
C4_3 C 0.75190(26) 0.15868(18) 0.8547(5)
C5_3 C 0.75558(26) 0.11059(18) 0.8790(5)
C6_3 C 0.74684(27) 0.03691(19) 0.9361(5)
N12_3 N 0.89198(26) 0.20471(15) 0.8147(4)
C18_3 C 0.98481(33) 0.25890(19) 0.9883(5)
C19_3 C 0.96663(32) 0.28657(18) 0.9051(5)
H11_3 H 0.9855 0.3246 0.9053
C20_3 C 0.92073(34) 0.25878(19) 0.8216(5)
H12_3 H 0.9091 0.2788 0.7668
C21_3 C 0.90795(33) 0.17759(19) 0.9035(5)
H13_3 H 0.8870 0.1397 0.9066
C22_3 C 0.95333(34) 0.20287(19) 0.9896(5)
N13_3 N 0.87942(23) 0.14088(16) 0.5767(4)
N14_3 N 0.87393(21) 0.22770(14) 0.5306(4)
N15_3 N 0.77468(26) 0.12863(15) 0.5187(4)
H7_2 H 0.7808 0.9630 0.9511
N3_4 N 0.56103(14) 0.02044(15) 0.1361(4)
N4_4 N 0.60932(15) 0.06356(16) 0.1735(4)
C6_4 C 0.62975(19) 0.04326(19) 0.2695(5)
C7 C 0.68185(19) 0.07444(19) 0.3451(5)
C8 C 0.70003(19) 0.04677(18) 0.4283(5)
H4 H 0.6811 0.0088 0.4281
C9 C 0.7459(2) 0.07456(19) 0.5118(5)
H5 H 0.7575 0.0546 0.5666
C10 C 0.75871(19) 0.15575(19) 0.4299(5)
H6 H 0.7796 0.1937 0.4268
C11 C 0.7133(2) 0.13047(19) 0.3438(5)
H7_3 H 0.7036 0.1511 0.2845
N8 N 0.16531(17) 0.04585(24) 0.4404(5)
N10 N 0.39689(16) 0.12090(22) 0.4932(4)
N11 N 0.32371(16) 0.05887(23) 0.3682(4)
N12_4 N 0.46196(15) 0.02061(21) 0.1480(4)
C12 C 0.21481(19) 0.11820(27) 0.6056(5)
H8_4 H 0.2139 0.1420 0.6741
C13 C 0.1677(2) 0.0815(3) 0.5373(6)
H9 H 0.1357 0.0817 0.5601
C14 C 0.2123(2) 0.0485(3) 0.4117(6)
H10 H 0.2131 0.0246 0.3433
C15 C 0.25988(19) 0.08523(26) 0.4786(5)
C16 C 0.31165(19) 0.08891(26) 0.4543(5)
C17 C 0.37659(19) 0.08017(27) 0.3972(5)
C18_4 C 0.40777(19) 0.05925(27) 0.3216(5)
C19_4 C 0.38010(18) 0.01340(26) 0.2384(5)
C21_4 C 0.48908(19) 0.06370(27) 0.2368(5)
H13_4 H 0.5270 0.0807 0.2399
C22_4 C 0.46380(19) 0.08380(28) 0.3229(5)
H14 H 0.4844 0.1141 0.3822
N1_4 N 0.47421(16) 0.92813(16) 0.0900(4)
N2_4 N 0.45279(17) 0.83198(17) 0.2263(5)
N5_4 N 0.59817(16) 0.99038(16) 0.2985(4)
C1_4 C 0.42994(19) 0.88148(19) 0.0611(5)
C2_4 C 0.4195(2) 0.8344(2) 0.1294(6)
H2_4 H 0.3873 0.8024 0.1066
C3_4 C 0.4971(2) 0.8790(2) 0.2550(6)
H3_4 H 0.5218 0.8798 0.3234
C4_4 C 0.50798(18) 0.92655(19) 0.1881(5)
C5_4 C 0.55607(18) 0.97832(19) 0.2124(5)
H11_4 H 0.3421 0.9943 0.2386
C20_4 C 0.40789(19) 0.99529(28) 0.1549(5)
H12_4 H 0.3879 0.9637 0.1001
N1_5 N 0.07187(16) 0.54609(23) 0.0900(4)
N2_5 N 0.16802(17) 0.62082(24) 0.2263(5)
N5_5 N 0.00962(16) 0.60780(23) 0.2985(4)
C1_5 C 0.11852(19) 0.54847(27) 0.0611(5)
C2_5 C 0.1656(2) 0.5852(3) 0.1294(6)
H2_5 H 0.1976 0.5850 0.1066
C3_5 C 0.1210(2) 0.6182(3) 0.2550(6)
H3_5 H 0.1202 0.6421 0.3234
C4_5 C 0.07345(19) 0.58144(26) 0.1881(5)
C5_5 C 0.02168(19) 0.57776(26) 0.2124(5)
H11_5 H 0.0057 0.3478 0.2386
C20_5 C 0.00471(28) 0.41260(34) 0.1549(5)
H12_5 H 0.0363 0.4242 0.1001
N3_5 N 0.97956(15) 0.54060(21) 0.1361(4)
N4_5 N 0.93644(16) 0.54577(22) 0.1735(4)
C6_5 C 0.95674(19) 0.58650(27) 0.2695(5)
C7_2 C 0.92556(19) 0.60742(27) 0.3451(5)
C8_2 C 0.95323(18) 0.65327(26) 0.4283(5)
H4_2 H 0.9912 0.6724 0.4281
C9_2 C 0.92544(19) 0.67138(28) 0.5118(5)
H5_2 H 0.9454 0.7030 0.5666
C10_2 C 0.84425(19) 0.60297(27) 0.4299(5)
H6_2 H 0.8063 0.5860 0.4268
C11_2 C 0.86953(19) 0.58287(28) 0.3438(5)
H7_4 H 0.8489 0.5526 0.2845
N8_2 N 0.95415(24) 0.11946(29) 0.4404(5)
N10_2 N 0.87910(22) 0.27599(27) 0.4932(4)
N11_2 N 0.94113(23) 0.26484(28) 0.3682(4)
N12_5 N 0.97939(21) 0.44135(26) 0.1480(4)
C12_2 C 0.88180(27) 0.09661(33) 0.6056(5)
H8_5 H 0.8580 0.0719 0.6741
C13_2 C 0.9185(3) 0.0862(4) 0.5373(6)
H9_2 H 0.9183 0.0540 0.5601
C14_2 C 0.9515(3) 0.1638(4) 0.4117(6)
H10_2 H 0.9754 0.1885 0.3433
C15_2 C 0.91477(26) 0.17465(32) 0.4786(5)
C16_2 C 0.91109(26) 0.22274(32) 0.4543(5)
C17_2 C 0.91983(27) 0.29642(33) 0.3972(5)
C18_5 C 0.94075(27) 0.34852(33) 0.3216(5)
C19_5 C 0.98660(26) 0.36670(32) 0.2384(5)
C21_5 C 0.93630(27) 0.42538(33) 0.2368(5)
H13_5 H 0.9193 0.4463 0.2399
C22_5 C 0.91620(28) 0.38000(34) 0.3229(5)
H14_2 H 0.8859 0.3703 0.3822
N1_6 N 0.45391(23) 0.52579(16) 0.0900(4)
N2_6 N 0.37918(24) 0.54721(17) 0.2263(5)
N3_6 N 0.45940(21) 0.43897(14) 0.1361(4)
N4_6 N 0.45423(22) 0.39068(15) 0.1735(4)
N5_6 N 0.39220(23) 0.40183(16) 0.2985(4)
C1_6 C 0.45153(27) 0.57006(19) 0.0611(5)
C2_6 C 0.4148(3) 0.5805(2) 0.1294(6)
H2_6 H 0.4150 0.6127 0.1066
C3_6 C 0.3818(3) 0.5029(2) 0.2550(6)
H3_6 H 0.3579 0.4782 0.3234
C4_6 C 0.41856(26) 0.49202(18) 0.1881(5)
C5_6 C 0.42224(26) 0.44393(18) 0.2124(5)
C6_6 C 0.41350(27) 0.37025(19) 0.2695(5)
C7_3 C 0.39258(27) 0.31815(19) 0.3451(5)
C8_3 C 0.34673(26) 0.29997(19) 0.4283(5)
H4_3 H 0.3276 0.3189 0.4281
C9_3 C 0.32862(28) 0.2541(2) 0.5118(5)
H5_3 H 0.2970 0.2425 0.5666
C10_3 C 0.39703(27) 0.24129(19) 0.4299(5)
H6_3 H 0.4140 0.2204 0.4268
C11_3 C 0.41713(28) 0.2867(2) 0.3438(5)
H7_5 H 0.4474 0.2964 0.2845
N8_3 N 0.88054(29) 0.83469(17) 0.4404(5)
N10_3 N 0.72401(27) 0.60311(16) 0.4932(4)
N11_3 N 0.73516(28) 0.67629(16) 0.3682(4)
N12_6 N 0.55865(26) 0.53804(15) 0.1480(4)
C12_3 C 0.90339(33) 0.78519(19) 0.6056(5)
H8_6 H 0.9281 0.7861 0.6741
C13_3 C 0.9138(4) 0.8323(2) 0.5373(6)
H9_3 H 0.9460 0.8643 0.5601
C14_3 C 0.8362(4) 0.7877(2) 0.4117(6)
H10_3 H 0.8115 0.7869 0.3433
C15_3 C 0.82535(32) 0.74012(19) 0.4786(5)
C16_3 C 0.77726(32) 0.68835(19) 0.4543(5)
C17_3 C 0.70358(33) 0.62341(19) 0.3972(5)
C18_6 C 0.65148(33) 0.59223(19) 0.3216(5)
C19_6 C 0.63330(32) 0.61990(18) 0.2384(5)
H11_6 H 0.6522 0.6579 0.2386
C20_6 C 0.58740(34) 0.59211(19) 0.1549(5)
H12_6 H 0.5758 0.6121 0.1001
C21_6 C 0.57462(33) 0.51092(19) 0.2368(5)
H13_6 H 0.5537 0.4730 0.2399
C22_6 C 0.62000(34) 0.53620(19) 0.3229(5)
H14_3 H 0.6297 0.5156 0.3822
Fe1_4 Fe 0.1667 0.3333 0.3333
N1_7 N 0.14088(16) 0.26146(16) 0.4233(4)
N2_7 N 0.11946(17) 0.16531(17) 0.5596(5)
N3_7 N 0.22770(14) 0.35377(15) 0.4694(4)
N4_7 N 0.27599(15) 0.39689(16) 0.5068(4)
N5_7 N 0.26484(16) 0.32371(16) 0.6318(4)
N6 N 0.44135(15) 0.46196(15) 0.8520(4)
C1_7 C 0.09661(19) 0.21481(19) 0.3944(5)
H1_4 H 0.0719 0.2139 0.3259
C2_7 C 0.0862(2) 0.1677(2) 0.4627(6)
H2_7 H 0.0540 0.1357 0.4399
C3_7 C 0.1638(2) 0.2123(2) 0.5883(6)
H3_7 H 0.1885 0.2131 0.6567
C4_7 C 0.17465(18) 0.25988(19) 0.5214(5)
C5_7 C 0.22274(18) 0.31165(19) 0.5457(5)
C6_7 C 0.29642(19) 0.37659(19) 0.6028(5)
C7_4 C 0.34852(19) 0.40777(19) 0.6784(5)
C8_4 C 0.36670(19) 0.38010(18) 0.7616(5)
H4_4 H 0.3478 0.3421 0.7614
C9_4 C 0.4126(2) 0.40789(19) 0.8451(5)
H5_4 H 0.4242 0.3879 0.8999
C10_4 C 0.42538(19) 0.48908(19) 0.7632(5)
H6_4 H 0.4463 0.5270 0.7601
C11_4 C 0.3800(2) 0.46380(19) 0.6771(5)
H7_6 H 0.3703 0.4844 0.6178
N9 N 0.02044(15) 0.45940(21) 0.8639(4)
N10_4 N 0.06356(16) 0.45423(22) 0.8265(4)
N12_7 N 0.12863(15) 0.35394(21) 0.4813(4)
C17_4 C 0.04326(19) 0.41350(27) 0.7305(5)
C18_7 C 0.07444(19) 0.39258(27) 0.6549(5)
C19_7 C 0.04677(18) 0.34673(26) 0.5717(5)
H11_7 H 0.0088 0.3276 0.5719
C20_7 C 0.07456(19) 0.32862(28) 0.4882(5)
H12_7 H 0.0546 0.2970 0.4334
C21_7 C 0.15575(19) 0.39703(27) 0.5701(5)
H13_7 H 0.1937 0.4140 0.5732
C22_7 C 0.13047(19) 0.41713(28) 0.6562(5)
H14_4 H 0.1511 0.4474 0.7155
Fe2_3 Fe 0.0000 0.5001 1.0000
Fe3_4 Fe 0.4999 0.5000 1.0000
N13_4 N 0.19245(16) 0.40521(16) 0.2434(4)
N14_4 N 0.10563(14) 0.31290(15) 0.1973(4)
N15_4 N 0.20471(15) 0.31272(21) 0.1853(4)
N7 N 0.92813(16) 0.45391(23) 0.9100(4)
N8_4 N 0.83198(17) 0.37918(24) 0.7737(5)
N11_4 N 0.99038(16) 0.39220(23) 0.7015(4)
C12_4 C 0.88148(19) 0.45153(27) 0.9389(5)
C13_4 C 0.8344(2) 0.4148(3) 0.8706(6)
H9_4 H 0.8024 0.4150 0.8934
C14_4 C 0.8790(2) 0.3818(3) 0.7450(6)
H10_4 H 0.8798 0.3579 0.6766
C15_4 C 0.92655(19) 0.41856(26) 0.8119(5)
C16_4 C 0.97832(19) 0.42224(26) 0.7876(5)
Fe2_4 Fe 1.0000 0.5001 1.0000
H4_5 H 0.6579 0.0057 0.7614
C9_5 C 0.59211(19) 0.00471(28) 0.8451(5)
H5_5 H 0.6121 0.0363 0.8999
Fe3_5 Fe 0.5000 -0.0000 1.0000
Fe1_5 Fe 0.6667 0.8334 0.3333
N1_8 N 0.73854(16) 0.87942(23) 0.4233(4)
N2_8 N 0.83469(17) 0.95415(24) 0.5596(5)
N3_8 N 0.64623(15) 0.87393(21) 0.4694(4)
N4_8 N 0.60311(16) 0.87910(22) 0.5068(4)
N5_8 N 0.67629(16) 0.94113(23) 0.6318(4)
N6_2 N 0.53804(15) 0.97939(21) 0.8520(4)
C1_8 C 0.78519(19) 0.88180(27) 0.3944(5)
H1_5 H 0.7861 0.8580 0.3259
C2_8 C 0.8323(2) 0.9185(3) 0.4627(6)
H2_8 H 0.8643 0.9183 0.4399
C3_8 C 0.7877(2) 0.9515(3) 0.5883(6)
H3_8 H 0.7869 0.9754 0.6567
C4_8 C 0.74012(19) 0.91477(26) 0.5214(5)
C5_8 C 0.68835(19) 0.91109(26) 0.5457(5)
C6_8 C 0.62341(19) 0.91983(27) 0.6028(5)
C7_5 C 0.59223(19) 0.94075(27) 0.6784(5)
C8_5 C 0.61990(18) 0.98660(26) 0.7616(5)
C10_5 C 0.51092(19) 0.93630(27) 0.7632(5)
H6_5 H 0.4730 0.9193 0.7601
C11_5 C 0.53620(19) 0.91620(28) 0.6771(5)
H7_7 H 0.5156 0.8859 0.6178
N7_2 N 0.54609(23) 0.47421(28) 0.9100(4)
N8_5 N 0.62082(24) 0.45279(29) 0.7737(5)
N9_2 N 0.54060(21) 0.56103(26) 0.8639(4)
N10_5 N 0.54577(22) 0.60932(27) 0.8265(4)
N11_5 N 0.60780(23) 0.59817(28) 0.7015(4)
N12_8 N 0.64606(21) 0.77468(26) 0.4813(4)
C12_5 C 0.54847(27) 0.42994(33) 0.9389(5)
C13_5 C 0.5852(3) 0.4195(4) 0.8706(6)
H9_5 H 0.5850 0.3873 0.8934
C14_5 C 0.6182(3) 0.4971(4) 0.7450(6)
H10_5 H 0.6421 0.5218 0.6766
C15_5 C 0.58144(26) 0.50798(32) 0.8119(5)
C16_5 C 0.57776(26) 0.55607(32) 0.7876(5)
C17_5 C 0.58650(27) 0.62975(33) 0.7305(5)
C18_8 C 0.60742(27) 0.68185(33) 0.6549(5)
C19_8 C 0.65327(26) 0.70003(32) 0.5717(5)
H11_8 H 0.6724 0.6811 0.5719
C20_8 C 0.67138(28) 0.74593(34) 0.4882(5)
H12_8 H 0.7030 0.7575 0.4334
C21_8 C 0.60297(27) 0.75871(33) 0.5701(5)
H13_8 H 0.5860 0.7796 0.5732
C22_8 C 0.58287(28) 0.71333(34) 0.6562(5)
H14_5 H 0.5526 0.7036 0.7155
Fe3_6 Fe 0.5000 1.0000 1.0000
N13_5 N 0.59479(16) 0.78725(23) 0.2434(4)
N14_5 N 0.68710(15) 0.79274(21) 0.1973(4)
N15_5 N 0.68728(21) 0.89198(26) 0.1853(4)
N7_3 N 0.52579(28) 0.07187(16) 0.9100(4)
N8_6 N 0.54721(29) 0.16802(17) 0.7737(5)
N11_6 N 0.40183(28) 0.00962(16) 0.7015(4)
C12_6 C 0.57006(33) 0.11852(19) 0.9389(5)
C13_6 C 0.5805(4) 0.1656(2) 0.8706(6)
H9_6 H 0.6127 0.1976 0.8934
C14_6 C 0.5029(4) 0.1210(2) 0.7450(6)
H10_6 H 0.4782 0.1202 0.6766
C15_6 C 0.49202(32) 0.07345(19) 0.8119(5)
C16_6 C 0.44393(32) 0.02168(19) 0.7876(5)
Fe1_6 Fe 0.1666 0.8333 0.3333
N1_9 N 0.12058(23) 0.85912(16) 0.4233(4)
N2_9 N 0.04585(24) 0.88054(17) 0.5596(5)
N3_9 N 0.12607(21) 0.77230(14) 0.4694(4)
N4_9 N 0.12090(22) 0.72401(15) 0.5068(4)
N5_9 N 0.05887(23) 0.73516(16) 0.6318(4)
N6_3 N 0.02061(21) 0.55865(15) 0.8520(4)
C1_9 C 0.11820(27) 0.90339(19) 0.3944(5)
H1_6 H 0.1420 0.9281 0.3259
C2_9 C 0.0815(3) 0.9138(2) 0.4627(6)
H2_9 H 0.0817 0.9460 0.4399
C3_9 C 0.0485(3) 0.8362(2) 0.5883(6)
H3_9 H 0.0246 0.8115 0.6567
C4_9 C 0.08523(26) 0.82535(18) 0.5214(5)
C5_9 C 0.08891(26) 0.77726(18) 0.5457(5)
C6_9 C 0.08017(27) 0.70358(19) 0.6028(5)
C7_6 C 0.05925(27) 0.65148(19) 0.6784(5)
C8_6 C 0.01340(26) 0.63330(19) 0.7616(5)
C10_6 C 0.06370(27) 0.57462(19) 0.7632(5)
H6_6 H 0.0807 0.5537 0.7601
C11_6 C 0.08380(28) 0.6200(2) 0.6771(5)
H7_8 H 0.1141 0.6297 0.6178
N9_3 N 0.43897(26) 0.97956(15) 0.8639(4)
N10_6 N 0.39068(27) 0.93644(16) 0.8265(4)
N12_9 N 0.22532(26) 0.87137(15) 0.4813(4)
C17_6 C 0.37025(33) 0.95674(19) 0.7305(5)
C18_9 C 0.31815(33) 0.92556(19) 0.6549(5)
C19_9 C 0.29997(32) 0.95323(18) 0.5717(5)
H11_9 H 0.3189 0.9912 0.5719
C20_9 C 0.25407(34) 0.92544(19) 0.4882(5)
H12_9 H 0.2425 0.9454 0.4334
C21_9 C 0.24129(33) 0.84425(19) 0.5701(5)
H13_9 H 0.2204 0.8063 0.5732
C22_9 C 0.28667(34) 0.86953(19) 0.6562(5)
H14_6 H 0.2964 0.8489 0.7155
N13_6 N 0.21275(23) 0.80755(16) 0.2434(4)
N14_6 N 0.20726(21) 0.89437(14) 0.1973(4)
N15_6 N 0.10802(26) 0.79529(15) 0.1853(4)
H4_6 H 0.9943 0.6522 0.7614
C9_6 C 0.99529(28) 0.5874(2) 0.8451(5)
H5_6 H 0.9637 0.5758 0.8999
C7_7 C 0.01519(19) 0.74110(19) 0.0117(5)
C8_7 C 0.03337(19) 0.71343(18) 0.0949(5)
H4_7 H 0.0145 0.6754 0.0947
C9_7 C 0.0793(2) 0.74122(19) 0.1784(5)
H5_7 H 0.0909 0.7212 0.2332
C10_7 C 0.09205(19) 0.82241(19) 0.0965(5)
H6_7 H 0.1130 0.8603 0.0934
C11_7 C 0.0467(2) 0.79713(19) 0.0104(5)
N8_7 N 0.49864(17) 0.71252(24) 0.1071(5)
N10_7 N 0.73022(16) 0.78757(22) 0.1599(4)
N11_7 N 0.65704(16) 0.72554(23) 0.0349(4)
C12_7 C 0.54814(19) 0.78487(27) 0.2723(5)
H8_7 H 0.5472 0.8087 0.3408
C13_7 C 0.5010(2) 0.7482(3) 0.2040(6)
H9_7 H 0.4690 0.7484 0.2268
C14_7 C 0.5456(2) 0.7152(3) 0.0784(6)
H10_7 H 0.5464 0.6913 0.0100
C15_7 C 0.59321(19) 0.75190(26) 0.1453(5)
C16_7 C 0.64498(19) 0.75558(26) 0.1210(5)
C17_7 C 0.70992(19) 0.74684(27) 0.0639(5)
H14_7 H 0.8177 0.7808 0.0489
C7_8 C 0.25890(19) 0.27408(27) 0.0117(5)
C8_8 C 0.28657(18) 0.31993(26) 0.0949(5)
H4_8 H 0.3246 0.3390 0.0947
C9_8 C 0.25878(19) 0.33804(28) 0.1784(5)
H5_8 H 0.2788 0.3696 0.2332
C10_8 C 0.17759(19) 0.26963(27) 0.0965(5)
H6_8 H 0.1397 0.2526 0.0934
C11_8 C 0.20287(19) 0.24953(28) 0.0104(5)
H14_8 H 0.2192 0.0370 0.0489
N8_8 N 0.28748(24) 0.78613(29) 0.1071(5)
N10_8 N 0.21243(22) 0.94266(27) 0.1599(4)
N11_8 N 0.27446(23) 0.93151(28) 0.0349(4)
C12_8 C 0.21513(27) 0.76328(33) 0.2723(5)
H8_8 H 0.1913 0.7386 0.3408
C13_8 C 0.2518(3) 0.7529(4) 0.2040(6)
H9_8 H 0.2516 0.7207 0.2268
C14_8 C 0.2848(3) 0.8305(4) 0.0784(6)
H10_8 H 0.3087 0.8552 0.0100
C15_8 C 0.24810(26) 0.84132(32) 0.1453(5)
C16_8 C 0.24442(26) 0.88941(32) 0.1210(5)
C17_8 C 0.25316(27) 0.96309(33) 0.0639(5)
N8_9 N 0.21387(29) 0.50136(17) 0.1071(5)
N10_9 N 0.05734(27) 0.26978(16) 0.1599(4)
N11_9 N 0.06849(28) 0.34296(16) 0.0349(4)
C12_9 C 0.23672(33) 0.45186(19) 0.2723(5)
H8_9 H 0.2614 0.4528 0.3408
C13_9 C 0.2471(4) 0.4990(2) 0.2040(6)
H9_9 H 0.2793 0.5310 0.2268
C14_9 C 0.1695(4) 0.4544(2) 0.0784(6)
H10_9 H 0.1448 0.4536 0.0100
C15_9 C 0.15868(32) 0.40679(19) 0.1453(5)
C16_9 C 0.11059(32) 0.35502(19) 0.1210(5)
C17_9 C 0.03691(33) 0.29008(19) 0.0639(5)
C7_9 C 0.72592(27) 0.98481(19) 0.0117(5)
C8_9 C 0.68007(26) 0.96663(19) 0.0949(5)
H4_9 H 0.6610 0.9855 0.0947
C9_9 C 0.66196(28) 0.9207(2) 0.1784(5)
H5_9 H 0.6304 0.9091 0.2332
C10_9 C 0.73037(27) 0.90795(19) 0.0965(5)
H6_9 H 0.7474 0.8870 0.0934
C11_9 C 0.75047(28) 0.9533(2) 0.0104(5)
H1_7 H 0.4052 0.8806 0.9926
H1_8 H 0.1194 0.5247 0.9926
H1_9 H 0.4753 0.5948 0.9926
H7_9 H 0.0370 0.8177 0.9511
H14_9 H 0.9630 0.1823 0.0489
loop_
_geom_bond_atom_site_label_1
_geom_bond_atom_site_label_2
_geom_bond_site_symmetry_1
_geom_bond_site_symmetry_2
Fe1 N1 1_555 1_555
N1 C1 1_555 1_555
N2 C2 1_555 1_555
N3 Fe1 1_555 1_555
N4 N3 1_555 1_555
N5 C5 1_555 1_555
C1 H1 1_555 1_555
C2 C1 1_555 1_555
H2 C2 1_555 1_555
C3 N2 1_555 1_555
H3 C3 1_555 1_555
C4 N1 1_555 1_555
C5 N3 1_555 1_555
C6 N4 1_555 1_555
N12 Fe1 1_555 1_555
C19 C18 1_555 1_555
H11 C19 1_555 1_555
C20 N12 1_555 1_555
H12 C20 1_555 1_555
C21 N12 1_555 1_555
H13 C21 1_555 1_555
C22 C18 1_555 1_555
N13 Fe1 1_555 1_555
N14 Fe1 1_555 1_555
N15 Fe1 1_555 1_555
N5 C6 1_555 1_555
C3 C4 1_555 1_555
C4 C5 1_555 1_555
C19 C20 1_555 1_555
C21 C22 1_555 1_555
Fe1_2 N1_2 1_555 1_555
N1_2 C1_2 1_555 1_555
N2_2 C2_2 1_555 1_555
N3_2 Fe1_2 1_555 1_555
N4_2 N3_2 1_555 1_555
N5_2 C5_2 1_555 1_555
C1_2 H1_2 1_555 1_555
C2_2 C1_2 1_555 1_555
H2_2 C2_2 1_555 1_555
C3_2 N2_2 1_555 1_555
H3_2 C3_2 1_555 1_555
C4_2 N1_2 1_555 1_555
C5_2 N3_2 1_555 1_555
C6_2 N4_2 1_555 1_555
N12_2 Fe1_2 1_555 1_555
C19_2 C18_2 1_555 1_555
H11_2 C19_2 1_555 1_555
C20_2 N12_2 1_555 1_555
H12_2 C20_2 1_555 1_555
C21_2 N12_2 1_555 1_555
H13_2 C21_2 1_555 1_555
C22_2 C18_2 1_555 1_555
N13_2 Fe1_2 1_555 1_555
N14_2 Fe1_2 1_555 1_555
N15_2 Fe1_2 1_555 1_555
N5_2 C6_2 1_555 1_555
C3_2 C4_2 1_555 1_555
C4_2 C5_2 1_555 1_555
C19_2 C20_2 1_555 1_555
C21_2 C22_2 1_555 1_555
Fe1_3 N1_3 1_555 1_555
N1_3 C1_3 1_555 1_555
N2_3 C2_3 1_555 1_555
N3_3 Fe1_3 1_555 1_555
N4_3 N3_3 1_555 1_555
N5_3 C5_3 1_555 1_555
C1_3 H1_3 1_555 1_555
C2_3 C1_3 1_555 1_555
H2_3 C2_3 1_555 1_555
C3_3 N2_3 1_555 1_555
H3_3 C3_3 1_555 1_555
C4_3 N1_3 1_555 1_555
C5_3 N3_3 1_555 1_555
C6_3 N4_3 1_555 1_555
N12_3 Fe1_3 1_555 1_555
C19_3 C18_3 1_555 1_555
H11_3 C19_3 1_555 1_555
C20_3 N12_3 1_555 1_555
H12_3 C20_3 1_555 1_555
C21_3 N12_3 1_555 1_555
H13_3 C21_3 1_555 1_555
C22_3 C18_3 1_555 1_555
N13_3 Fe1_3 1_555 1_555
N14_3 Fe1_3 1_555 1_555
N15_3 Fe1_3 1_555 1_555
N5_3 C6_3 1_555 1_555
C3_3 C4_3 1_555 1_555
C4_3 C5_3 1_555 1_555
C19_3 C20_3 1_555 1_555
C21_3 C22_3 1_555 1_555
N3_4 Fe3_2 1_555 1_555
N4_4 N3_4 1_555 1_555
N15_3 C9 1_555 1_555
C6_4 N4_4 1_555 1_555
C7 C6_4 1_555 1_555
C8 C7 1_555 1_555
H4 C8 1_555 1_555
C9 C8 1_555 1_555
H5 C9 1_555 1_555
C10 N15_3 1_555 1_555
H6 C10 1_555 1_555
C11 C7 1_555 1_555
H7_3 C11 1_555 1_555
N13_2 C12 1_555 1_555
N8 C13 1_555 1_555
N14_2 N10 1_555 1_555
N10 C17 1_555 1_555
N11 C16 1_555 1_555
N12_4 Fe3_2 1_555 1_555
C12 H8_4 1_555 1_555
C13 C12 1_555 1_555
H9 C13 1_555 1_555
C14 N8 1_555 1_555
H10 C14 1_555 1_555
C15 N13_2 1_555 1_555
C16 N14_2 1_555 1_555
C17 N11 1_555 1_555
C18_4 C17 1_555 1_555
C19_4 C18_4 1_555 1_555
C21_4 N12_4 1_555 1_555
H13_4 C21_4 1_555 1_555
C22_4 C18_4 1_555 1_555
H14 C22_4 1_555 1_555
C10 C11 1_555 1_555
C14 C15 1_555 1_555
C15 C16 1_555 1_555
C21_4 C22_4 1_555 1_555
Fe3_3 N1_4 1_555 1_555
N1_4 C1_4 1_555 1_555
N2_4 C2_4 1_555 1_555
N5_4 C5_4 1_555 1_555
C2_4 C1_4 1_555 1_555
H2_4 C2_4 1_555 1_555
C3_4 N2_4 1_555 1_555
H3_4 C3_4 1_555 1_555
C4_4 N1_4 1_555 1_555
H12_4 C20_4 1_555 1_555
C3_4 C4_4 1_555 1_555
C4_4 C5_4 1_555 1_555
Fe2 N1_5 1_555 1_555
N1_5 C1_5 1_555 1_555
N2_5 C2_5 1_555 1_555
N5_5 C5_5 1_555 1_555
C2_5 C1_5 1_555 1_555
H2_5 C2_5 1_555 1_555
C3_5 N2_5 1_555 1_555
H3_5 C3_5 1_555 1_555
C4_5 N1_5 1_555 1_555
H12_5 C20_5 1_555 1_555
C3_5 C4_5 1_555 1_555
C4_5 C5_5 1_555 1_555
N3_5 Fe2_2 1_555 1_555
N4_5 N3_5 1_555 1_555
N15 C9_2 1_555 1_555
C6_5 N4_5 1_555 1_555
C7_2 C6_5 1_555 1_555
C8_2 C7_2 1_555 1_555
H4_2 C8_2 1_555 1_555
C9_2 C8_2 1_555 1_555
H5_2 C9_2 1_555 1_555
C10_2 N15 1_555 1_555
H6_2 C10_2 1_555 1_555
C11_2 C7_2 1_555 1_555
H7_4 C11_2 1_555 1_555
N13_3 C12_2 1_555 1_555
N8_2 C13_2 1_555 1_555
N14_3 N10_2 1_555 1_555
N10_2 C17_2 1_555 1_555
N11_2 C16_2 1_555 1_555
N12_5 Fe2_2 1_555 1_555
C12_2 H8_5 1_555 1_555
C13_2 C12_2 1_555 1_555
H9_2 C13_2 1_555 1_555
C14_2 N8_2 1_555 1_555
H10_2 C14_2 1_555 1_555
C15_2 N13_3 1_555 1_555
C16_2 N14_3 1_555 1_555
C17_2 N11_2 1_555 1_555
C18_5 C17_2 1_555 1_555
C19_5 C18_5 1_555 1_555
C21_5 N12_5 1_555 1_555
H13_5 C21_5 1_555 1_555
C22_5 C18_5 1_555 1_555
H14_2 C22_5 1_555 1_555
C10_2 C11_2 1_555 1_555
C14_2 C15_2 1_555 1_555
C15_2 C16_2 1_555 1_555
C21_5 C22_5 1_555 1_555
Fe3 N1_6 1_555 1_555
N1_6 C1_6 1_555 1_555
N2_6 C2_6 1_555 1_555
N3_6 Fe3 1_555 1_555
N4_6 N3_6 1_555 1_555
N5_6 C5_6 1_555 1_555
N15_2 C9_3 1_555 1_555
C2_6 C1_6 1_555 1_555
H2_6 C2_6 1_555 1_555
C3_6 N2_6 1_555 1_555
H3_6 C3_6 1_555 1_555
C4_6 N1_6 1_555 1_555
C5_6 N3_6 1_555 1_555
C6_6 N4_6 1_555 1_555
C7_3 C6_6 1_555 1_555
C8_3 C7_3 1_555 1_555
H4_3 C8_3 1_555 1_555
C9_3 C8_3 1_555 1_555
H5_3 C9_3 1_555 1_555
C10_3 N15_2 1_555 1_555
H6_3 C10_3 1_555 1_555
C11_3 C7_3 1_555 1_555
H7_5 C11_3 1_555 1_555
N13 C12_3 1_555 1_555
N8_3 C13_3 1_555 1_555
N14 N10_3 1_555 1_555
N10_3 C17_3 1_555 1_555
N11_3 C16_3 1_555 1_555
N12_6 Fe3 1_555 1_555
C12_3 H8_6 1_555 1_555
C13_3 C12_3 1_555 1_555
H9_3 C13_3 1_555 1_555
C14_3 N8_3 1_555 1_555
H10_3 C14_3 1_555 1_555
C15_3 N13 1_555 1_555
C16_3 N14 1_555 1_555
C17_3 N11_3 1_555 1_555
C18_6 C17_3 1_555 1_555
C19_6 C18_6 1_555 1_555
H11_6 C19_6 1_555 1_555
C20_6 N12_6 1_555 1_555
H12_6 C20_6 1_555 1_555
C21_6 N12_6 1_555 1_555
H13_6 C21_6 1_555 1_555
C22_6 C18_6 1_555 1_555
H14_3 C22_6 1_555 1_555
N5_6 C6_6 1_555 1_555
C3_6 C4_6 1_555 1_555
C4_6 C5_6 1_555 1_555
C10_3 C11_3 1_555 1_555
C14_3 C15_3 1_555 1_555
C15_3 C16_3 1_555 1_555
C19_6 C20_6 1_555 1_555
C21_6 C22_6 1_555 1_555
Fe1_4 N1_7 1_555 1_555
N1_7 C1_7 1_555 1_555
N2_7 C2_7 1_555 1_555
N3_7 Fe1_4 1_555 1_555
N4_7 N3_7 1_555 1_555
N5_7 C5_7 1_555 1_555
N6 C9_4 1_555 1_555
C1_7 H1_4 1_555 1_555
C2_7 C1_7 1_555 1_555
H2_7 C2_7 1_555 1_555
C3_7 N2_7 1_555 1_555
H3_7 C3_7 1_555 1_555
C4_7 N1_7 1_555 1_555
C5_7 N3_7 1_555 1_555
C6_7 N4_7 1_555 1_555
C7_4 C6_7 1_555 1_555
C8_4 C7_4 1_555 1_555
H4_4 C8_4 1_555 1_555
C9_4 C8_4 1_555 1_555
H5_4 C9_4 1_555 1_555
C10_4 N6 1_555 1_555
H6_4 C10_4 1_555 1_555
C11_4 C7_4 1_555 1_555
H7_6 C11_4 1_555 1_555
N9 N10_4 1_555 1_555
N10_4 C17_4 1_555 1_555
N12_7 Fe1_4 1_555 1_555
C18_7 C17_4 1_555 1_555
C19_7 C18_7 1_555 1_555
H11_7 C19_7 1_555 1_555
C20_7 N12_7 1_555 1_555
H12_7 C20_7 1_555 1_555
C21_7 N12_7 1_555 1_555
H13_7 C21_7 1_555 1_555
C22_7 C18_7 1_555 1_555
H14_4 C22_7 1_555 1_555
Fe3_4 N6 1_555 1_555
N13_4 Fe1_4 1_555 1_555
N14_4 Fe1_4 1_555 1_555
N15_4 Fe1_4 1_555 1_555
N5_7 C6_7 1_555 1_555
C3_7 C4_7 1_555 1_555
C4_7 C5_7 1_555 1_555
C10_4 C11_4 1_555 1_555
N9 Fe2_3 1_555 1_555
C19_7 C20_7 1_555 1_555
C21_7 C22_7 1_555 1_555
N7 C12_4 1_555 1_555
N8_4 C13_4 1_555 1_555
N11_4 C16_4 1_555 1_555
C13_4 C12_4 1_555 1_555
H9_4 C13_4 1_555 1_555
C14_4 N8_4 1_555 1_555
H10_4 C14_4 1_555 1_555
C15_4 N7 1_555 1_555
Fe2_4 N7 1_555 1_555
C14_4 C15_4 1_555 1_555
C15_4 C16_4 1_555 1_555
H5_5 C9_5 1_555 1_555
Fe1_5 N1_8 1_555 1_555
N1_8 C1_8 1_555 1_555
N2_8 C2_8 1_555 1_555
N3_8 Fe1_5 1_555 1_555
N4_8 N3_8 1_555 1_555
N5_8 C5_8 1_555 1_555
C1_8 H1_5 1_555 1_555
C2_8 C1_8 1_555 1_555
H2_8 C2_8 1_555 1_555
C3_8 N2_8 1_555 1_555
H3_8 C3_8 1_555 1_555
C4_8 N1_8 1_555 1_555
C5_8 N3_8 1_555 1_555
C6_8 N4_8 1_555 1_555
C7_5 C6_8 1_555 1_555
C8_5 C7_5 1_555 1_555
C10_5 N6_2 1_555 1_555
H6_5 C10_5 1_555 1_555
C11_5 C7_5 1_555 1_555
H7_7 C11_5 1_555 1_555
N7_2 C12_5 1_555 1_555
N8_5 C13_5 1_555 1_555
N9_2 N10_5 1_555 1_555
N10_5 C17_5 1_555 1_555
N11_5 C16_5 1_555 1_555
N12_8 Fe1_5 1_555 1_555
C13_5 C12_5 1_555 1_555
H9_5 C13_5 1_555 1_555
C14_5 N8_5 1_555 1_555
H10_5 C14_5 1_555 1_555
C15_5 N7_2 1_555 1_555
C16_5 N9_2 1_555 1_555
C17_5 N11_5 1_555 1_555
C18_8 C17_5 1_555 1_555
C19_8 C18_8 1_555 1_555
H11_8 C19_8 1_555 1_555
C20_8 N12_8 1_555 1_555
H12_8 C20_8 1_555 1_555
C21_8 N12_8 1_555 1_555
H13_8 C21_8 1_555 1_555
C22_8 C18_8 1_555 1_555
H14_5 C22_8 1_555 1_555
Fe3_4 N7_2 1_555 1_555
Fe3_6 N6_2 1_555 1_555
N13_5 Fe1_5 1_555 1_555
N14_5 Fe1_5 1_555 1_555
N15_5 Fe1_5 1_555 1_555
N5_8 C6_8 1_555 1_555
C3_8 C4_8 1_555 1_555
C4_8 C5_8 1_555 1_555
C10_5 C11_5 1_555 1_555
N9_2 Fe3_4 1_555 1_555
C14_5 C15_5 1_555 1_555
C15_5 C16_5 1_555 1_555
C19_8 C20_8 1_555 1_555
C21_8 C22_8 1_555 1_555
N7_3 C12_6 1_555 1_555
N8_6 C13_6 1_555 1_555
N11_6 C16_6 1_555 1_555
C13_6 C12_6 1_555 1_555
H9_6 C13_6 1_555 1_555
C14_6 N8_6 1_555 1_555
H10_6 C14_6 1_555 1_555
C15_6 N7_3 1_555 1_555
Fe3_5 N7_3 1_555 1_555
C14_6 C15_6 1_555 1_555
C15_6 C16_6 1_555 1_555
Fe1_6 N1_9 1_555 1_555
N1_9 C1_9 1_555 1_555
N2_9 C2_9 1_555 1_555
N3_9 Fe1_6 1_555 1_555
N4_9 N3_9 1_555 1_555
N5_9 C5_9 1_555 1_555
C1_9 H1_6 1_555 1_555
C2_9 C1_9 1_555 1_555
H2_9 C2_9 1_555 1_555
C3_9 N2_9 1_555 1_555
H3_9 C3_9 1_555 1_555
C4_9 N1_9 1_555 1_555
C5_9 N3_9 1_555 1_555
C6_9 N4_9 1_555 1_555
C7_6 C6_9 1_555 1_555
C8_6 C7_6 1_555 1_555
C10_6 N6_3 1_555 1_555
H6_6 C10_6 1_555 1_555
C11_6 C7_6 1_555 1_555
H7_8 C11_6 1_555 1_555
N9_3 N10_6 1_555 1_555
N10_6 C17_6 1_555 1_555
N12_9 Fe1_6 1_555 1_555
C18_9 C17_6 1_555 1_555
C19_9 C18_9 1_555 1_555
H11_9 C19_9 1_555 1_555
C20_9 N12_9 1_555 1_555
H12_9 C20_9 1_555 1_555
C21_9 N12_9 1_555 1_555
H13_9 C21_9 1_555 1_555
C22_9 C18_9 1_555 1_555
H14_6 C22_9 1_555 1_555
Fe2_3 N6_3 1_555 1_555
N13_6 Fe1_6 1_555 1_555
N14_6 Fe1_6 1_555 1_555
N15_6 Fe1_6 1_555 1_555
N5_9 C6_9 1_555 1_555
C3_9 C4_9 1_555 1_555
C4_9 C5_9 1_555 1_555
C10_6 C11_6 1_555 1_555
N9_3 Fe3_6 1_555 1_555
C19_9 C20_9 1_555 1_555
C21_9 C22_9 1_555 1_555
H5_6 C9_6 1_555 1_555
N15_6 C9_7 1_555 1_555
C8_7 C7_7 1_555 1_555
H4_7 C8_7 1_555 1_555
C9_7 C8_7 1_555 1_555
H5_7 C9_7 1_555 1_555
C10_7 N15_6 1_555 1_555
H6_7 C10_7 1_555 1_555
C11_7 C7_7 1_555 1_555
C10_7 C11_7 1_555 1_555
N13_5 C12_7 1_555 1_555
N8_7 C13_7 1_555 1_555
N14_5 N10_7 1_555 1_555
N10_7 C17_7 1_555 1_555
N11_7 C16_7 1_555 1_555
C12_7 H8_7 1_555 1_555
C13_7 C12_7 1_555 1_555
H9_7 C13_7 1_555 1_555
C14_7 N8_7 1_555 1_555
H10_7 C14_7 1_555 1_555
C15_7 N13_5 1_555 1_555
C16_7 N14_5 1_555 1_555
C17_7 N11_7 1_555 1_555
C14_7 C15_7 1_555 1_555
C15_7 C16_7 1_555 1_555
N15_4 C9_8 1_555 1_555
C8_8 C7_8 1_555 1_555
H4_8 C8_8 1_555 1_555
C9_8 C8_8 1_555 1_555
H5_8 C9_8 1_555 1_555
C10_8 N15_4 1_555 1_555
H6_8 C10_8 1_555 1_555
C11_8 C7_8 1_555 1_555
C10_8 C11_8 1_555 1_555
N13_6 C12_8 1_555 1_555
N8_8 C13_8 1_555 1_555
N14_6 N10_8 1_555 1_555
N10_8 C17_8 1_555 1_555
N11_8 C16_8 1_555 1_555
C12_8 H8_8 1_555 1_555
C13_8 C12_8 1_555 1_555
H9_8 C13_8 1_555 1_555
C14_8 N8_8 1_555 1_555
H10_8 C14_8 1_555 1_555
C15_8 N13_6 1_555 1_555
C16_8 N14_6 1_555 1_555
C17_8 N11_8 1_555 1_555
C14_8 C15_8 1_555 1_555
C15_8 C16_8 1_555 1_555
N13_4 C12_9 1_555 1_555
N8_9 C13_9 1_555 1_555
N14_4 N10_9 1_555 1_555
N10_9 C17_9 1_555 1_555
N11_9 C16_9 1_555 1_555
C12_9 H8_9 1_555 1_555
C13_9 C12_9 1_555 1_555
H9_9 C13_9 1_555 1_555
C14_9 N8_9 1_555 1_555
H10_9 C14_9 1_555 1_555
C15_9 N13_4 1_555 1_555
C16_9 N14_4 1_555 1_555
C17_9 N11_9 1_555 1_555
C14_9 C15_9 1_555 1_555
C15_9 C16_9 1_555 1_555
N15_5 C9_9 1_555 1_555
C8_9 C7_9 1_555 1_555
H4_9 C8_9 1_555 1_555
C9_9 C8_9 1_555 1_555
H5_9 C9_9 1_555 1_555
C10_9 N15_5 1_555 1_555
H6_9 C10_9 1_555 1_555
C11_9 C7_9 1_555 1_555
C10_9 C11_9 1_555 1_555

#END
