
###############################################################################
#
# This file contains modified crystal structure data generated from the
# MOF subset of the Cambridge Structural Database (CSD) v543 
# hosted by the Cambridge Crystallographic Data Centre (CCDC).
#
# This work is licensed under the Creative Commons
# Attribution-NonCommercial-ShareAlike 4.0 International License.
# To view a copy of this license, visit
# http://creativecommons.org/licenses/by-nc-sa/4.0/
# or send a letter to
# Creative Commons, PO Box 1866, Mountain View, CA 94042, USA.
#
# CIF created using the CSD Python API on 29 September 2022
# The structure has been converted into the P1 space group
# The structure has a 3D framework
# The original CSD entry ODEQAS is in the rhombohedral crystal system
# The framework has been calculated to contain at least 10.0% void space
# The void calculation uses a probe of radius 1.32A, grid spacing 0.4
#
###############################################################################

data_ODEQAS
_chemical_formula_moiety         '(C198 H126 Fe11 N108)n'
_symmetry_cell_setting           triclinic
_symmetry_space_group_name_H-M   'P 1'
_symmetry_Int_Tables_number      1
_space_group_name_Hall           'P 1'
loop_
_symmetry_equiv_pos_site_id
_symmetry_equiv_pos_as_xyz
1 x,y,z
_cell_length_a                   27.897(4)
_cell_length_b                   27.897(4)
_cell_length_c                   8.6691(17)
_cell_angle_alpha                90
_cell_angle_beta                 90
_cell_angle_gamma                120
_cell_volume                     5842.78
loop_
_atom_site_label
_atom_site_type_symbol
_atom_site_fract_x
_atom_site_fract_y
_atom_site_fract_z
N11 N 0.88394(7) 0.15053(7) 0.0436(2)
C21 C 0.93369(9) 0.15756(10) 0.0818(3)
H13 H 0.9494 0.1734 0.1762
H14 H 0.9963 0.1473 0.0139
Fe3 Fe 0.8333 0.1667 0.1667
C1 C 0.98309(8) 0.24583(9) 0.6293(2)
H4 H 0.9771 0.3021 0.7612
N2 N 0.92422(7) 0.19878(7) 0.4095(2)
C6 C 0.93137(9) 0.22507(9) 0.5443(2)
N3 N 0.88964(7) 0.23402(8) 0.5847(2)
N4 N 0.87495(7) 0.19043(7) 0.3580(2)
C7 C 0.85571(8) 0.21104(9) 0.4639(2)
C8 C 0.80253(9) 0.20570(9) 0.4304(2)
C9 C 0.77300(10) 0.22093(11) 0.5263(3)
H5 H 0.7879 0.2360 0.6221
N5 N 0.78273(7) 0.18280(7) 0.2897(2)
N6 N 0.72398(9) 0.21493(10) 0.4875(3)
C10 C 0.73298(9) 0.17577(10) 0.2515(3)
H6 H 0.7173 0.1599 0.1571
C11 C 0.70477(10) 0.19175(13) 0.3503(3)
H7 H 0.6704 0.1860 0.3194
N1 N 0.87281(10) 0.24487(7) 0.0940(2)
C4 C 0.92625(13) 0.28047(9) 0.1273(3)
H3 H 0.9444 0.2691 0.1950
C5 C 0.95512(13) 0.33276(9) 0.0663(3)
H4_2 H 0.9917 0.3563 0.0946
N7 N 0.79385(10) 0.08847(7) 0.2394(2)
C13 C 0.81942(13) 0.06996(9) 0.3336(2)
H8 H 0.8568 0.0932 0.3544
C14 C 0.79299(13) 0.01872(9) 0.4003(3)
H9 H 0.8123 0.0078 0.4653
C15 C 0.74041(13) 0.05287(9) 0.2061(3)
H10 H 0.7222 0.0643 0.1384
C16 C 0.71154(13) 0.00058(9) 0.2671(3)
Fe1 Fe 0.5000 0.0000 0.5000
H3_2 H 0.3976 0.0087 0.5283
N7_2 N 0.57820(7) 0.03872(7) 0.5727(2)
C12 C 0.68358(8) 0.08750(9) 0.7040(2)
C13_2 C 0.59671(9) 0.08280(9) 0.6669(2)
H8_2 H 0.5735 0.0970 0.6877
C14_2 C 0.64795(9) 0.10761(9) 0.7336(3)
H9_2 H 0.6589 0.1379 0.7986
C15_2 C 0.61380(9) 0.02088(10) 0.5394(3)
C16_2 C 0.66609(9) 0.04430(10) 0.6004(3)
H11 H 0.6896 0.0312 0.5721
N8 N 0.74245(7) 0.13455(7) 0.9238(2)
C17 C 0.73530(9) 0.10826(9) 0.7890(2)
N9 N 0.77703(7) 0.09931(8) 0.7486(2)
N10 N 0.79172(7) 0.14290(7) 0.9753(2)
C18 C 0.81096(8) 0.12229(9) 0.8694(2)
C19 C 0.86414(9) 0.12763(9) 0.9029(2)
C20 C 0.89367(10) 0.11240(11) 0.8070(3)
H12 H 0.8788 0.0973 0.7112
N12 N 0.94269(9) 0.11840(10) 0.8458(3)
C22 C 0.96190(10) 0.14158(13) 0.9830(3)
N13 N 0.47623(7) 0.01785(10) 0.6914(2)
N16 N 0.51614(7) 0.06674(10) 0.3769(2)
Fe1_2 Fe 0.5000 1.0000 0.5000
N1_2 N 0.42180(7) 0.96128(7) 0.4273(2)
C1_2 C 0.31642(8) 0.91250(9) 0.2960(2)
C2 C 0.40329(9) 0.91720(9) 0.3331(2)
H1 H 0.4265 0.9030 0.3123
C3 C 0.35205(9) 0.89239(9) 0.2664(3)
H2 H 0.3411 0.8621 0.2014
C4_2 C 0.38620(9) 0.97912(10) 0.4606(3)
C5_2 C 0.33391(9) 0.95570(10) 0.3996(3)
H4_3 H 0.3104 0.9688 0.4279
N2_2 N 0.25755(7) 0.86545(7) 0.0762(2)
C6_2 C 0.26470(9) 0.89174(9) 0.2110(2)
N3_2 N 0.22297(7) 0.90069(8) 0.2514(2)
N4_2 N 0.20828(7) 0.85710(7) 0.0247(2)
C7_2 C 0.18904(8) 0.87771(9) 0.1306(2)
C8_2 C 0.13586(9) 0.87237(9) 0.0971(2)
C9_2 C 0.10633(10) 0.88760(11) 0.1930(3)
H5_2 H 0.1212 0.9027 0.2888
N6_2 N 0.05731(9) 0.88160(10) 0.1542(3)
C11_2 C 0.03810(10) 0.85842(13) 0.0170(3)
H10_2 H 0.6024 0.9913 0.4717
N14 N 0.52377(7) 0.98215(10) 0.3086(2)
N15 N 0.48386(7) 0.93326(10) 0.6231(2)
Fe1_3 Fe -0.0000 0.5000 0.5000
N1_3 N 0.03872(7) 0.46052(10) 0.4273(2)
C1_3 C 0.08750(9) 0.40392(12) 0.2960(2)
C2_2 C 0.08280(9) 0.48609(13) 0.3331(2)
H1_2 H 0.0970 0.5235 0.3123
C3_2 C 0.10761(9) 0.45966(13) 0.2664(3)
H2_2 H 0.1379 0.4790 0.2014
C4_3 C 0.02088(10) 0.40708(13) 0.4606(3)
C5_3 C 0.04430(10) 0.37821(13) 0.3996(3)
H4_4 H 0.0312 0.3416 0.4279
N2_3 N 0.13455(7) 0.39210(10) 0.0762(2)
C6_3 C 0.10826(9) 0.37296(13) 0.2110(2)
N3_3 N 0.09931(8) 0.32228(11) 0.2514(2)
N4_3 N 0.14290(7) 0.35118(10) 0.0247(2)
C7_3 C 0.12229(9) 0.31133(12) 0.1306(2)
C8_3 C 0.12763(9) 0.26349(13) 0.0971(2)
C9_3 C 0.11240(11) 0.21873(15) 0.1930(3)
H5_3 H 0.0973 0.2185 0.2888
N6_3 N 0.11840(10) 0.17571(13) 0.1542(3)
C11_3 C 0.14158(13) 0.17968(16) 0.0170(3)
H10_3 H 0.0087 0.6111 0.4717
N14_2 N 0.01785(10) 0.54161(12) 0.3086(2)
N15_2 N 0.06674(10) 0.55061(12) 0.6231(2)
Fe1_4 Fe 1.0000 0.5000 0.5000
H3_3 H 0.9913 0.3889 0.5283
N7_3 N 0.96128(7) 0.53948(10) 0.5727(2)
C12_2 C 0.91250(9) 0.59608(12) 0.7040(2)
C13_3 C 0.91720(9) 0.51391(13) 0.6669(2)
H8_3 H 0.9030 0.4765 0.6877
C14_3 C 0.89239(9) 0.54034(13) 0.7336(3)
H9_3 H 0.8621 0.5210 0.7986
C15_3 C 0.97912(10) 0.59292(13) 0.5394(3)
C16_3 C 0.95570(10) 0.62179(13) 0.6004(3)
H11_2 H 0.9688 0.6584 0.5721
N8_2 N 0.86545(7) 0.60790(10) 0.9238(2)
C17_2 C 0.89174(9) 0.62704(13) 0.7890(2)
N9_2 N 0.90069(8) 0.67772(11) 0.7486(2)
N10_2 N 0.85710(7) 0.64882(10) 0.9753(2)
C18_2 C 0.87771(9) 0.68867(12) 0.8694(2)
C19_2 C 0.87237(9) 0.73651(13) 0.9029(2)
C20_2 C 0.88760(11) 0.78127(15) 0.8070(3)
H12_2 H 0.9027 0.7815 0.7112
N12_2 N 0.88160(10) 0.82429(13) 0.8458(3)
C22_2 C 0.85842(13) 0.82032(16) 0.9830(3)
N13_2 N 0.98215(10) 0.45839(12) 0.6914(2)
N16_2 N 0.93326(10) 0.44939(12) 0.3769(2)
Fe1_5 Fe 0.5000 0.5000 0.5000
N1_4 N 0.53948(10) 0.57820(7) 0.4273(2)
C1_4 C 0.59608(12) 0.68358(8) 0.2960(2)
C2_3 C 0.51391(13) 0.59671(9) 0.3331(2)
H1_3 H 0.4765 0.5735 0.3123
C3_3 C 0.54034(13) 0.64795(9) 0.2664(3)
H2_3 H 0.5210 0.6589 0.2014
C4_4 C 0.59292(13) 0.61380(9) 0.4606(3)
H3_4 H 0.6111 0.6024 0.5283
C5_4 C 0.62179(13) 0.66609(9) 0.3996(3)
H4_5 H 0.6584 0.6896 0.4279
N2_4 N 0.60790(10) 0.74245(7) 0.0762(2)
C6_4 C 0.62704(13) 0.73530(9) 0.2110(2)
N3_4 N 0.67772(11) 0.77703(7) 0.2514(2)
N4_4 N 0.64882(10) 0.79172(7) 0.0247(2)
C7_4 C 0.68867(12) 0.81096(8) 0.1306(2)
C8_4 C 0.73651(13) 0.86414(9) 0.0971(2)
C9_4 C 0.78127(15) 0.89367(10) 0.1930(3)
H5_4 H 0.7815 0.8788 0.2888
N6_4 N 0.82429(13) 0.94269(9) 0.1542(3)
C11_4 C 0.82032(16) 0.96190(10) 0.0170(3)
N7_4 N 0.46052(10) 0.42180(7) 0.5727(2)
C12_3 C 0.40392(12) 0.31642(8) 0.7040(2)
C13_4 C 0.48609(13) 0.40329(9) 0.6669(2)
H8_4 H 0.5235 0.4265 0.6877
C14_4 C 0.45966(13) 0.35205(9) 0.7336(3)
H9_4 H 0.4790 0.3411 0.7986
C15_4 C 0.40708(13) 0.38620(9) 0.5394(3)
H10_4 H 0.3889 0.3976 0.4717
C16_4 C 0.37821(13) 0.33391(9) 0.6004(3)
H11_3 H 0.3416 0.3104 0.5721
N8_3 N 0.39210(10) 0.25755(7) 0.9238(2)
C17_3 C 0.37296(13) 0.26470(9) 0.7890(2)
N9_3 N 0.32228(11) 0.22297(7) 0.7486(2)
N10_3 N 0.35118(10) 0.20828(7) 0.9753(2)
C18_3 C 0.31133(12) 0.18904(8) 0.8694(2)
C19_3 C 0.26349(13) 0.13586(9) 0.9029(2)
C20_3 C 0.21873(15) 0.10633(10) 0.8070(3)
H12_3 H 0.2185 0.1212 0.7112
N12_3 N 0.17571(13) 0.05731(9) 0.8458(3)
C22_3 C 0.17968(16) 0.03810(10) 0.9830(3)
N13_3 N 0.54161(12) 0.52377(7) 0.6914(2)
N14_3 N 0.45839(12) 0.47623(7) 0.3086(2)
N15_3 N 0.44939(12) 0.51614(7) 0.6231(2)
N16_3 N 0.55061(12) 0.48386(7) 0.3769(2)
C12_4 C 0.35025(8) 0.42083(9) 0.0373(2)
C13_5 C 0.26338(9) 0.41613(9) 0.0002(2)
H8_5 H 0.2402 0.4303 0.0210
C14_5 C 0.31462(9) 0.44094(9) 0.0669(3)
H9_5 H 0.3256 0.4712 0.1319
N8_4 N 0.40912(7) 0.46788(7) 0.2571(2)
C17_4 C 0.40197(9) 0.44159(9) 0.1223(2)
N9_4 N 0.44370(7) 0.43264(8) 0.0819(2)
C18_4 C 0.47763(8) 0.45562(9) 0.2027(2)
C19_4 C 0.53081(9) 0.46096(9) 0.2362(2)
C20_4 C 0.56034(10) 0.44573(11) 0.1403(3)
H12_4 H 0.5455 0.4306 0.0445
N12_4 N 0.60936(9) 0.45173(10) 0.1791(3)
C21_2 C 0.60036(9) 0.49089(10) 0.4151(3)
H13_2 H 0.6161 0.5067 0.5095
C22_4 C 0.62857(10) 0.47491(13) 0.3163(3)
H14_2 H 0.6630 0.4806 0.3472
N9_5 N 0.56736(8) 0.01105(11) 0.0819(2)
C18_5 C 0.54438(9) 0.02200(12) 0.2027(2)
C19_5 C 0.53904(9) 0.06984(13) 0.2362(2)
C20_5 C 0.55427(11) 0.11460(15) 0.1403(3)
H12_5 H 0.5694 0.1148 0.0445
N12_5 N 0.54827(10) 0.15762(13) 0.1791(3)
C21_3 C 0.50911(10) 0.10946(13) 0.4151(3)
H13_3 H 0.4933 0.1093 0.5095
C22_5 C 0.52509(13) 0.15365(16) 0.3163(3)
H14_3 H 0.5194 0.1823 0.3472
C12_5 C 0.57917(9) 0.92941(12) 0.0373(2)
C13_6 C 0.58387(9) 0.84724(13) 0.0002(2)
H8_6 H 0.5697 0.8098 0.0210
C14_6 C 0.55906(9) 0.87367(13) 0.0669(3)
H9_6 H 0.5288 0.8543 0.1319
N8_5 N 0.53212(7) 0.94123(10) 0.2571(2)
C17_5 C 0.55841(9) 0.96037(13) 0.1223(2)
C12_6 C 0.07059(12) 0.64975(8) 0.0373(2)
C13_7 C 0.15276(13) 0.73662(9) 0.0002(2)
H8_7 H 0.1902 0.7598 0.0210
C14_7 C 0.12633(13) 0.68538(9) 0.0669(3)
H9_7 H 0.1457 0.6744 0.1319
N8_6 N 0.05877(10) 0.59088(7) 0.2571(2)
C17_6 C 0.03963(13) 0.59803(9) 0.1223(2)
N9_6 N 0.98895(11) 0.55630(7) 0.0819(2)
C18_6 C 0.97800(12) 0.52237(8) 0.2027(2)
C19_6 C 0.93016(13) 0.46919(9) 0.2362(2)
C20_6 C 0.88540(15) 0.43966(10) 0.1403(3)
H12_6 H 0.8852 0.4545 0.0445
N12_6 N 0.84238(13) 0.39064(9) 0.1791(3)
C21_4 C 0.89054(13) 0.39964(9) 0.4151(3)
H13_4 H 0.8907 0.3839 0.5095
C22_6 C 0.84635(16) 0.37143(10) 0.3163(3)
H14_4 H 0.8177 0.3370 0.3472
C1_5 C 0.64975(8) 0.57917(9) 0.9627(2)
C2_4 C 0.73662(9) 0.58387(9) 0.9998(2)
H1_4 H 0.7598 0.5697 0.9790
C3_4 C 0.68538(9) 0.55906(9) 0.9331(3)
H2_4 H 0.6744 0.5288 0.8681
N2_5 N 0.59088(7) 0.53212(7) 0.7429(2)
C6_5 C 0.59803(9) 0.55841(9) 0.8777(2)
N3_5 N 0.55630(7) 0.56736(8) 0.9181(2)
C7_5 C 0.52237(8) 0.54438(9) 0.7973(2)
C8_5 C 0.46919(9) 0.53904(9) 0.7638(2)
C9_5 C 0.43966(10) 0.55427(11) 0.8597(3)
H5_5 H 0.4545 0.5694 0.9555
N6_5 N 0.39064(9) 0.54827(10) 0.8209(3)
C10_2 C 0.39964(9) 0.50911(10) 0.5849(3)
H6_2 H 0.3839 0.4933 0.4905
C11_5 C 0.37143(10) 0.52509(13) 0.6837(3)
H7_2 H 0.3370 0.5194 0.6528
C1_6 C 0.42083(9) 0.07059(12) 0.9627(2)
C2_5 C 0.41613(9) 0.15276(13) 0.9998(2)
H1_5 H 0.4303 0.1902 0.9790
C3_5 C 0.44094(9) 0.12633(13) 0.9331(3)
H2_5 H 0.4712 0.1457 0.8681
N2_6 N 0.46788(7) 0.05877(10) 0.7429(2)
C6_6 C 0.44159(9) 0.03963(13) 0.8777(2)
N3_6 N 0.43264(8) 0.98895(11) 0.9181(2)
C7_6 C 0.45562(9) 0.97800(12) 0.7973(2)
C8_6 C 0.46096(9) 0.93016(13) 0.7638(2)
C9_6 C 0.44573(11) 0.88540(15) 0.8597(3)
H5_6 H 0.4306 0.8852 0.9555
N6_6 N 0.45173(10) 0.84238(13) 0.8209(3)
C10_3 C 0.49089(10) 0.89054(13) 0.5849(3)
H6_3 H 0.5067 0.8907 0.4905
C11_6 C 0.47491(13) 0.84635(16) 0.6837(3)
H7_3 H 0.4806 0.8177 0.6528
N3_7 N 0.01105(11) 0.44370(7) 0.9181(2)
C7_7 C 0.02200(12) 0.47763(8) 0.7973(2)
C8_7 C 0.06984(13) 0.53081(9) 0.7638(2)
C9_7 C 0.11460(15) 0.56034(10) 0.8597(3)
H5_7 H 0.1148 0.5455 0.9555
N6_7 N 0.15762(13) 0.60936(9) 0.8209(3)
C10_4 C 0.10946(13) 0.60036(9) 0.5849(3)
H6_4 H 0.1093 0.6161 0.4905
C11_7 C 0.15365(16) 0.62857(10) 0.6837(3)
H7_4 H 0.1823 0.6630 0.6528
C1_7 C 0.92941(12) 0.35025(8) 0.9627(2)
C2_6 C 0.84724(13) 0.26338(9) 0.9998(2)
H1_6 H 0.8098 0.2402 0.9790
C3_6 C 0.87367(13) 0.31462(9) 0.9331(3)
H2_6 H 0.8543 0.3256 0.8681
N2_7 N 0.94123(10) 0.40912(7) 0.7429(2)
C6_7 C 0.96037(13) 0.40197(9) 0.8777(2)
N5_2 N 0.11606(7) 0.84947(7) 0.9564(2)
C10_5 C 0.06631(9) 0.84244(10) 0.9182(3)
H6_5 H 0.0506 0.8266 0.8238
H7_5 H 0.0037 0.8527 0.9861
Fe2 Fe 0.1667 0.8333 0.8333
N1_5 N 0.20615(10) 0.91153(7) 0.7606(2)
C2_7 C 0.18058(13) 0.93004(9) 0.6664(2)
H1_7 H 0.1432 0.9068 0.6456
C3_7 C 0.20701(13) 0.98128(9) 0.5997(3)
H2_7 H 0.1877 0.9922 0.5347
C4_5 C 0.25959(13) 0.94713(9) 0.7939(3)
H3_5 H 0.2778 0.9357 0.8616
C5_5 C 0.28846(13) 0.99942(9) 0.7329(3)
N7_5 N 0.12719(10) 0.75513(7) 0.9060(2)
C15_5 C 0.07375(13) 0.71953(9) 0.8727(3)
H10_5 H 0.0556 0.7309 0.8050
C16_5 C 0.04488(13) 0.66724(9) 0.9337(3)
H11_4 H 0.0083 0.6437 0.9054
N14_4 N 0.12505(12) 0.80957(7) 0.6420(2)
N16_4 N 0.21727(12) 0.81720(7) 0.7103(2)
C12_7 C 0.01691(8) 0.75417(9) 0.3707(2)
H11_5 H 0.0229 0.6979 0.2388
N8_7 N 0.07578(7) 0.80122(7) 0.5905(2)
C17_7 C 0.06863(9) 0.77493(9) 0.4557(2)
N9_7 N 0.11036(7) 0.76598(8) 0.4153(2)
C18_7 C 0.14429(8) 0.78896(9) 0.5361(2)
C19_7 C 0.19747(9) 0.79430(9) 0.5696(2)
C20_7 C 0.22700(10) 0.77907(11) 0.4737(3)
H12_7 H 0.2121 0.7640 0.3779
N12_7 N 0.27602(9) 0.78507(10) 0.5125(3)
C21_5 C 0.26702(9) 0.82423(10) 0.7485(3)
H13_5 H 0.2827 0.8401 0.8429
C22_7 C 0.29523(10) 0.80825(13) 0.6497(3)
H14_5 H 0.3296 0.8140 0.6806
N5_3 N 0.15053(7) 0.26659(10) 0.9564(2)
C10_6 C 0.15756(10) 0.22387(13) 0.9182(3)
H6_6 H 0.1734 0.2240 0.8238
H7_6 H 0.1473 0.1510 0.9861
Fe2_2 Fe 0.1667 0.3333 0.8333
N11_2 N 0.26659(10) 0.11606(7) 0.0436(2)
C21_6 C 0.22387(13) 0.06631(9) 0.0818(3)
H13_6 H 0.2240 0.0506 0.1762
H14_6 H 0.1510 0.0037 0.0139
Fe3_2 Fe 0.3333 0.1667 0.1667
N1_6 N 0.08847(7) 0.29461(7) 0.7606(2)
C2_8 C 0.06996(9) 0.25053(9) 0.6664(2)
H1_8 H 0.0932 0.2363 0.6456
C3_8 C 0.01872(9) 0.22572(9) 0.5997(3)
H2_8 H 0.0078 0.1954 0.5347
C4_6 C 0.05287(9) 0.31245(10) 0.7939(3)
H3_6 H 0.0643 0.3420 0.8616
C5_6 C 0.00058(9) 0.28903(10) 0.7329(3)
N7_6 N 0.24487(7) 0.37205(7) 0.9060(2)
C15_6 C 0.28047(9) 0.35421(10) 0.8727(3)
H10_6 H 0.2691 0.3246 0.8050
C16_6 C 0.33276(9) 0.37763(10) 0.9337(3)
H11_6 H 0.3563 0.3645 0.9054
N14_5 N 0.19043(7) 0.31549(10) 0.6420(2)
N16_5 N 0.18280(7) 0.40008(10) 0.7103(2)
C1_8 C 0.26275(12) 0.01691(8) 0.6293(2)
H4_6 H 0.3251 0.0229 0.7612
N2_8 N 0.27457(10) 0.07578(7) 0.4095(2)
C6_8 C 0.29371(13) 0.06863(9) 0.5443(2)
N3_8 N 0.34439(11) 0.11036(7) 0.5847(2)
N4_5 N 0.31549(10) 0.12505(7) 0.3580(2)
C7_8 C 0.35534(12) 0.14429(8) 0.4639(2)
C8_8 C 0.40318(13) 0.19747(9) 0.4304(2)
C9_8 C 0.44794(15) 0.22700(10) 0.5263(3)
H5_8 H 0.4482 0.2121 0.6221
N5_4 N 0.40008(10) 0.21727(7) 0.2897(2)
N6_8 N 0.49096(13) 0.27602(9) 0.4875(3)
C10_7 C 0.44280(13) 0.26702(9) 0.2515(3)
H6_7 H 0.4427 0.2827 0.1571
C11_8 C 0.48699(16) 0.29523(10) 0.3503(3)
H7_7 H 0.5157 0.3296 0.3194
N1_7 N 0.37205(7) 0.12719(10) 0.0940(2)
C4_7 C 0.35421(10) 0.07375(13) 0.1273(3)
H3_7 H 0.3246 0.0556 0.1950
C5_7 C 0.37763(10) 0.04488(13) 0.0663(3)
H4_7 H 0.3645 0.0083 0.0946
N7_7 N 0.29461(7) 0.20615(10) 0.2394(2)
C12_8 C 0.24583(9) 0.26275(12) 0.3707(2)
C13_8 C 0.25053(9) 0.18058(13) 0.3336(2)
H8_8 H 0.2363 0.1432 0.3544
C14_8 C 0.22572(9) 0.20701(13) 0.4003(3)
H9_8 H 0.1954 0.1877 0.4653
C15_7 C 0.31245(10) 0.25959(13) 0.2061(3)
H10_7 H 0.3420 0.2778 0.1384
C16_7 C 0.28903(10) 0.28846(13) 0.2671(3)
H11_7 H 0.3021 0.3251 0.2388
N8_8 N 0.19878(7) 0.27457(10) 0.5905(2)
C17_8 C 0.22507(9) 0.29371(13) 0.4557(2)
N9_8 N 0.23402(8) 0.34439(11) 0.4153(2)
C18_8 C 0.21104(9) 0.35534(12) 0.5361(2)
C19_8 C 0.20570(9) 0.40318(13) 0.5696(2)
C20_8 C 0.22093(11) 0.44794(15) 0.4737(3)
H12_8 H 0.2360 0.4482 0.3779
N12_8 N 0.21493(10) 0.49096(13) 0.5125(3)
C21_7 C 0.17577(10) 0.44280(13) 0.7485(3)
H13_7 H 0.1599 0.4427 0.8429
C22_8 C 0.19175(13) 0.48699(16) 0.6497(3)
H14_7 H 0.1860 0.5157 0.6806
N11_3 N 0.84947(7) 0.73341(10) 0.0436(2)
C21_8 C 0.84244(10) 0.77613(13) 0.0818(3)
H13_8 H 0.8266 0.7760 0.1762
H14_8 H 0.8527 0.8490 0.0139
Fe3_3 Fe 0.8333 0.6667 0.1667
N5_5 N 0.73341(10) 0.88394(7) 0.9564(2)
C10_8 C 0.77613(13) 0.93369(9) 0.9182(3)
H6_8 H 0.7760 0.9494 0.8238
H7_8 H 0.8490 0.9963 0.9861
Fe2_3 Fe 0.6667 0.8333 0.8333
N1_8 N 0.70539(7) 0.79385(10) 0.7606(2)
C1_9 C 0.75417(9) 0.73725(12) 0.6293(2)
C2_9 C 0.74947(9) 0.81942(13) 0.6664(2)
H1_9 H 0.7637 0.8568 0.6456
C3_9 C 0.77428(9) 0.79299(13) 0.5997(3)
H2_9 H 0.8046 0.8123 0.5347
C4_8 C 0.68755(10) 0.74041(13) 0.7939(3)
H3_8 H 0.6580 0.7222 0.8616
C5_8 C 0.71097(10) 0.71154(13) 0.7329(3)
H4_8 H 0.6979 0.6749 0.7612
N2_9 N 0.80122(7) 0.72543(10) 0.4095(2)
C6_9 C 0.77493(9) 0.70629(13) 0.5443(2)
N3_9 N 0.76598(8) 0.65561(11) 0.5847(2)
N4_6 N 0.80957(7) 0.68451(10) 0.3580(2)
C7_9 C 0.78896(9) 0.64466(12) 0.4639(2)
C8_9 C 0.79430(9) 0.59682(13) 0.4304(2)
C9_9 C 0.77907(11) 0.55206(15) 0.5263(3)
H5_9 H 0.7640 0.5518 0.6221
N5_6 N 0.81720(7) 0.59992(10) 0.2897(2)
N6_9 N 0.78507(10) 0.50904(13) 0.4875(3)
C10_9 C 0.82423(10) 0.55720(13) 0.2515(3)
H6_9 H 0.8401 0.5573 0.1571
C11_9 C 0.80825(13) 0.51301(16) 0.3503(3)
H7_9 H 0.8140 0.4843 0.3194
N7_8 N 0.62795(7) 0.87281(10) 0.9060(2)
C15_8 C 0.64579(10) 0.92625(13) 0.8727(3)
H10_8 H 0.6754 0.9444 0.8050
C16_8 C 0.62237(10) 0.95512(13) 0.9337(3)
H11_8 H 0.6355 0.9917 0.9054
N14_6 N 0.68451(10) 0.87495(12) 0.6420(2)
N16_6 N 0.59992(10) 0.78273(12) 0.7103(2)
N1_9 N 0.75513(7) 0.62795(7) 0.0940(2)
C4_9 C 0.71953(9) 0.64579(10) 0.1273(3)
H3_9 H 0.7309 0.6754 0.1950
C5_9 C 0.66724(9) 0.62237(10) 0.0663(3)
H4_9 H 0.6437 0.6355 0.0946
N7_9 N 0.91153(7) 0.70539(7) 0.2394(2)
C13_9 C 0.93004(9) 0.74947(9) 0.3336(2)
H8_9 H 0.9068 0.7637 0.3544
C14_9 C 0.98128(9) 0.77428(9) 0.4003(3)
H9_9 H 0.9922 0.8046 0.4653
C15_9 C 0.94713(9) 0.68755(10) 0.2061(3)
H10_9 H 0.9357 0.6580 0.1384
C16_9 C 0.99942(9) 0.71097(10) 0.2671(3)
C12_9 C 0.73725(12) 0.98309(8) 0.3707(2)
H11_9 H 0.6749 0.9771 0.2388
N8_9 N 0.72543(10) 0.92422(7) 0.5905(2)
C17_9 C 0.70629(13) 0.93137(9) 0.4557(2)
N9_9 N 0.65561(11) 0.88964(7) 0.4153(2)
C18_9 C 0.64466(12) 0.85571(8) 0.5361(2)
C19_9 C 0.59682(13) 0.80253(9) 0.5696(2)
C20_9 C 0.55206(15) 0.77300(10) 0.4737(3)
H12_9 H 0.5518 0.7879 0.3779
N12_9 N 0.50904(13) 0.72398(9) 0.5125(3)
C21_9 C 0.55720(13) 0.73298(9) 0.7485(3)
H13_9 H 0.5573 0.7173 0.8429
C22_9 C 0.51301(16) 0.70477(10) 0.6497(3)
H14_9 H 0.4843 0.6704 0.6806
loop_
_geom_bond_atom_site_label_1
_geom_bond_atom_site_label_2
_geom_bond_site_symmetry_1
_geom_bond_site_symmetry_2
C21 N11 1_555 1_555
H13 C21 1_555 1_555
N11 Fe3 1_555 1_555
N2 C6 1_555 1_555
C6 C1 1_555 1_555
N3 C6 1_555 1_555
N4 N2 1_555 1_555
C7 N3 1_555 1_555
C8 C7 1_555 1_555
C9 C8 1_555 1_555
H5 C9 1_555 1_555
N5 C8 1_555 1_555
N6 C9 1_555 1_555
C10 N5 1_555 1_555
H6 C10 1_555 1_555
C11 N6 1_555 1_555
H7 C11 1_555 1_555
Fe3 N4 1_555 1_555
N4 C7 1_555 1_555
N5 Fe3 1_555 1_555
C10 C11 1_555 1_555
Fe3 N1 1_555 1_555
C4 N1 1_555 1_555
H3 C4 1_555 1_555
H4_2 C5 1_555 1_555
N7 Fe3 1_555 1_555
C13 N7 1_555 1_555
H8 C13 1_555 1_555
C14 C13 1_555 1_555
H9 C14 1_555 1_555
C15 N7 1_555 1_555
H10 C15 1_555 1_555
C4 C5 1_555 1_555
C15 C16 1_555 1_555
N7_2 Fe1 1_555 1_555
C12 C14_2 1_555 1_555
C13_2 N7_2 1_555 1_555
H8_2 C13_2 1_555 1_555
C14_2 C13_2 1_555 1_555
H9_2 C14_2 1_555 1_555
C15_2 N7_2 1_555 1_555
C16_2 C12 1_555 1_555
H11 C16_2 1_555 1_555
N8 C17 1_555 1_555
C17 C12 1_555 1_555
N9 C17 1_555 1_555
N10 N8 1_555 1_555
C18 N9 1_555 1_555
C19 C18 1_555 1_555
C20 C19 1_555 1_555
H12 C20 1_555 1_555
N12 C20 1_555 1_555
C22 N12 1_555 1_555
N13 Fe1 1_555 1_555
N16 Fe1 1_555 1_555
C15_2 C16_2 1_555 1_555
N10 C18 1_555 1_555
Fe1_2 N1_2 1_555 1_555
N1_2 C2 1_555 1_555
C1_2 C3 1_555 1_555
C2 H1 1_555 1_555
C3 C2 1_555 1_555
H2 C3 1_555 1_555
C4_2 N1_2 1_555 1_555
C5_2 C1_2 1_555 1_555
H4_3 C5_2 1_555 1_555
N2_2 C6_2 1_555 1_555
C6_2 C1_2 1_555 1_555
N3_2 C6_2 1_555 1_555
N4_2 N2_2 1_555 1_555
C7_2 N3_2 1_555 1_555
C8_2 C7_2 1_555 1_555
C9_2 C8_2 1_555 1_555
H5_2 C9_2 1_555 1_555
N6_2 C9_2 1_555 1_555
C11_2 N6_2 1_555 1_555
N14 Fe1_2 1_555 1_555
N15 Fe1_2 1_555 1_555
C4_2 C5_2 1_555 1_555
N4_2 C7_2 1_555 1_555
Fe1_3 N1_3 1_555 1_555
N1_3 C2_2 1_555 1_555
C1_3 C3_2 1_555 1_555
C2_2 H1_2 1_555 1_555
C3_2 C2_2 1_555 1_555
H2_2 C3_2 1_555 1_555
C4_3 N1_3 1_555 1_555
C5_3 C1_3 1_555 1_555
H4_4 C5_3 1_555 1_555
N2_3 C6_3 1_555 1_555
C6_3 C1_3 1_555 1_555
N3_3 C6_3 1_555 1_555
N4_3 N2_3 1_555 1_555
C7_3 N3_3 1_555 1_555
C8_3 C7_3 1_555 1_555
C9_3 C8_3 1_555 1_555
H5_3 C9_3 1_555 1_555
N6_3 C9_3 1_555 1_555
C11_3 N6_3 1_555 1_555
N14_2 Fe1_3 1_555 1_555
N15_2 Fe1_3 1_555 1_555
C4_3 C5_3 1_555 1_555
N4_3 C7_3 1_555 1_555
N7_3 Fe1_4 1_555 1_555
C12_2 C14_3 1_555 1_555
C13_3 N7_3 1_555 1_555
H8_3 C13_3 1_555 1_555
C14_3 C13_3 1_555 1_555
H9_3 C14_3 1_555 1_555
C15_3 N7_3 1_555 1_555
C16_3 C12_2 1_555 1_555
H11_2 C16_3 1_555 1_555
N8_2 C17_2 1_555 1_555
C17_2 C12_2 1_555 1_555
N9_2 C17_2 1_555 1_555
N10_2 N8_2 1_555 1_555
C18_2 N9_2 1_555 1_555
C19_2 C18_2 1_555 1_555
C20_2 C19_2 1_555 1_555
H12_2 C20_2 1_555 1_555
N12_2 C20_2 1_555 1_555
C22_2 N12_2 1_555 1_555
N13_2 Fe1_4 1_555 1_555
N16_2 Fe1_4 1_555 1_555
C15_3 C16_3 1_555 1_555
N10_2 C18_2 1_555 1_555
Fe1_5 N1_4 1_555 1_555
N1_4 C2_3 1_555 1_555
C1_4 C3_3 1_555 1_555
C2_3 H1_3 1_555 1_555
C3_3 C2_3 1_555 1_555
H2_3 C3_3 1_555 1_555
C4_4 N1_4 1_555 1_555
H3_4 C4_4 1_555 1_555
C5_4 C1_4 1_555 1_555
H4_5 C5_4 1_555 1_555
N2_4 C6_4 1_555 1_555
C6_4 C1_4 1_555 1_555
N3_4 C6_4 1_555 1_555
N4_4 N2_4 1_555 1_555
C7_4 N3_4 1_555 1_555
C8_4 C7_4 1_555 1_555
C9_4 C8_4 1_555 1_555
H5_4 C9_4 1_555 1_555
N6_4 C9_4 1_555 1_555
C11_4 N6_4 1_555 1_555
N7_4 Fe1_5 1_555 1_555
C12_3 C14_4 1_555 1_555
C13_4 N7_4 1_555 1_555
H8_4 C13_4 1_555 1_555
C14_4 C13_4 1_555 1_555
H9_4 C14_4 1_555 1_555
C15_4 N7_4 1_555 1_555
H10_4 C15_4 1_555 1_555
C16_4 C12_3 1_555 1_555
H11_3 C16_4 1_555 1_555
N8_3 C17_3 1_555 1_555
C17_3 C12_3 1_555 1_555
N9_3 C17_3 1_555 1_555
N10_3 N8_3 1_555 1_555
C18_3 N9_3 1_555 1_555
C19_3 C18_3 1_555 1_555
C20_3 C19_3 1_555 1_555
H12_3 C20_3 1_555 1_555
N12_3 C20_3 1_555 1_555
C22_3 N12_3 1_555 1_555
N13_3 Fe1_5 1_555 1_555
N14_3 Fe1_5 1_555 1_555
N15_3 Fe1_5 1_555 1_555
N16_3 Fe1_5 1_555 1_555
C4_4 C5_4 1_555 1_555
N4_4 C7_4 1_555 1_555
C15_4 C16_4 1_555 1_555
N10_3 C18_3 1_555 1_555
C12_4 C14_5 1_555 1_555
H8_5 C13_5 1_555 1_555
C14_5 C13_5 1_555 1_555
H9_5 C14_5 1_555 1_555
N8_4 C17_4 1_555 1_555
C17_4 C12_4 1_555 1_555
N9_4 C17_4 1_555 1_555
N14_3 N8_4 1_555 1_555
C18_4 N9_4 1_555 1_555
C19_4 C18_4 1_555 1_555
C20_4 C19_4 1_555 1_555
H12_4 C20_4 1_555 1_555
N16_3 C19_4 1_555 1_555
N12_4 C20_4 1_555 1_555
C21_2 N16_3 1_555 1_555
H13_2 C21_2 1_555 1_555
C22_4 N12_4 1_555 1_555
H14_2 C22_4 1_555 1_555
N14_3 C18_4 1_555 1_555
C21_2 C22_4 1_555 1_555
C18_5 N9_5 1_555 1_555
C19_5 C18_5 1_555 1_555
C20_5 C19_5 1_555 1_555
H12_5 C20_5 1_555 1_555
N16 C19_5 1_555 1_555
N12_5 C20_5 1_555 1_555
C21_3 N16 1_555 1_555
H13_3 C21_3 1_555 1_555
C22_5 N12_5 1_555 1_555
H14_3 C22_5 1_555 1_555
C21_3 C22_5 1_555 1_555
C12_5 C14_6 1_555 1_555
H8_6 C13_6 1_555 1_555
C14_6 C13_6 1_555 1_555
H9_6 C14_6 1_555 1_555
N8_5 C17_5 1_555 1_555
C17_5 C12_5 1_555 1_555
N14 N8_5 1_555 1_555
C12_6 C14_7 1_555 1_555
H8_7 C13_7 1_555 1_555
C14_7 C13_7 1_555 1_555
H9_7 C14_7 1_555 1_555
N8_6 C17_6 1_555 1_555
C17_6 C12_6 1_555 1_555
N14_2 N8_6 1_555 1_555
C18_6 N9_6 1_555 1_555
C19_6 C18_6 1_555 1_555
C20_6 C19_6 1_555 1_555
H12_6 C20_6 1_555 1_555
N16_2 C19_6 1_555 1_555
N12_6 C20_6 1_555 1_555
C21_4 N16_2 1_555 1_555
H13_4 C21_4 1_555 1_555
C22_6 N12_6 1_555 1_555
H14_4 C22_6 1_555 1_555
C21_4 C22_6 1_555 1_555
C1_5 C3_4 1_555 1_555
C2_4 H1_4 1_555 1_555
C3_4 C2_4 1_555 1_555
H2_4 C3_4 1_555 1_555
N2_5 C6_5 1_555 1_555
C6_5 C1_5 1_555 1_555
N3_5 C6_5 1_555 1_555
N13_3 N2_5 1_555 1_555
C7_5 N3_5 1_555 1_555
C8_5 C7_5 1_555 1_555
C9_5 C8_5 1_555 1_555
H5_5 C9_5 1_555 1_555
N15_3 C8_5 1_555 1_555
N6_5 C9_5 1_555 1_555
C10_2 N15_3 1_555 1_555
H6_2 C10_2 1_555 1_555
C11_5 N6_5 1_555 1_555
H7_2 C11_5 1_555 1_555
N13_3 C7_5 1_555 1_555
C10_2 C11_5 1_555 1_555
C1_6 C3_5 1_555 1_555
C2_5 H1_5 1_555 1_555
C3_5 C2_5 1_555 1_555
H2_5 C3_5 1_555 1_555
N2_6 C6_6 1_555 1_555
C6_6 C1_6 1_555 1_555
N13 N2_6 1_555 1_555
C7_6 N3_6 1_555 1_555
C8_6 C7_6 1_555 1_555
C9_6 C8_6 1_555 1_555
H5_6 C9_6 1_555 1_555
N15 C8_6 1_555 1_555
N6_6 C9_6 1_555 1_555
C10_3 N15 1_555 1_555
H6_3 C10_3 1_555 1_555
C11_6 N6_6 1_555 1_555
H7_3 C11_6 1_555 1_555
C10_3 C11_6 1_555 1_555
C7_7 N3_7 1_555 1_555
C8_7 C7_7 1_555 1_555
C9_7 C8_7 1_555 1_555
H5_7 C9_7 1_555 1_555
N15_2 C8_7 1_555 1_555
N6_7 C9_7 1_555 1_555
C10_4 N15_2 1_555 1_555
H6_4 C10_4 1_555 1_555
C11_7 N6_7 1_555 1_555
H7_4 C11_7 1_555 1_555
C10_4 C11_7 1_555 1_555
C1_7 C3_6 1_555 1_555
C2_6 H1_6 1_555 1_555
C3_6 C2_6 1_555 1_555
H2_6 C3_6 1_555 1_555
N2_7 C6_7 1_555 1_555
C6_7 C1_7 1_555 1_555
N13_2 N2_7 1_555 1_555
C10_5 N5_2 1_555 1_555
H6_5 C10_5 1_555 1_555
N5_2 Fe2 1_555 1_555
Fe2 N1_5 1_555 1_555
N1_5 C2_7 1_555 1_555
C2_7 H1_7 1_555 1_555
C3_7 C2_7 1_555 1_555
H2_7 C3_7 1_555 1_555
C4_5 N1_5 1_555 1_555
H3_5 C4_5 1_555 1_555
N7_5 Fe2 1_555 1_555
C15_5 N7_5 1_555 1_555
H10_5 C15_5 1_555 1_555
H11_4 C16_5 1_555 1_555
N14_4 Fe2 1_555 1_555
N16_4 Fe2 1_555 1_555
C4_5 C5_5 1_555 1_555
C15_5 C16_5 1_555 1_555
N8_7 C17_7 1_555 1_555
C17_7 C12_7 1_555 1_555
N9_7 C17_7 1_555 1_555
N14_4 N8_7 1_555 1_555
C18_7 N9_7 1_555 1_555
C19_7 C18_7 1_555 1_555
C20_7 C19_7 1_555 1_555
H12_7 C20_7 1_555 1_555
N16_4 C19_7 1_555 1_555
N12_7 C20_7 1_555 1_555
C21_5 N16_4 1_555 1_555
H13_5 C21_5 1_555 1_555
C22_7 N12_7 1_555 1_555
H14_5 C22_7 1_555 1_555
N14_4 C18_7 1_555 1_555
C21_5 C22_7 1_555 1_555
C10_6 N5_3 1_555 1_555
H6_6 C10_6 1_555 1_555
N5_3 Fe2_2 1_555 1_555
C21_6 N11_2 1_555 1_555
H13_6 C21_6 1_555 1_555
N11_2 Fe3_2 1_555 1_555
Fe2_2 N1_6 1_555 1_555
N1_6 C2_8 1_555 1_555
C2_8 H1_8 1_555 1_555
C3_8 C2_8 1_555 1_555
H2_8 C3_8 1_555 1_555
C4_6 N1_6 1_555 1_555
H3_6 C4_6 1_555 1_555
N7_6 Fe2_2 1_555 1_555
C15_6 N7_6 1_555 1_555
H10_6 C15_6 1_555 1_555
H11_6 C16_6 1_555 1_555
N14_5 Fe2_2 1_555 1_555
N16_5 Fe2_2 1_555 1_555
C4_6 C5_6 1_555 1_555
C15_6 C16_6 1_555 1_555
N2_8 C6_8 1_555 1_555
C6_8 C1_8 1_555 1_555
N3_8 C6_8 1_555 1_555
N4_5 N2_8 1_555 1_555
C7_8 N3_8 1_555 1_555
C8_8 C7_8 1_555 1_555
C9_8 C8_8 1_555 1_555
H5_8 C9_8 1_555 1_555
N5_4 C8_8 1_555 1_555
N6_8 C9_8 1_555 1_555
C10_7 N5_4 1_555 1_555
H6_7 C10_7 1_555 1_555
C11_8 N6_8 1_555 1_555
H7_7 C11_8 1_555 1_555
Fe3_2 N4_5 1_555 1_555
N4_5 C7_8 1_555 1_555
N5_4 Fe3_2 1_555 1_555
C10_7 C11_8 1_555 1_555
Fe3_2 N1_7 1_555 1_555
C4_7 N1_7 1_555 1_555
H3_7 C4_7 1_555 1_555
H4_7 C5_7 1_555 1_555
N7_7 Fe3_2 1_555 1_555
C12_8 C14_8 1_555 1_555
C13_8 N7_7 1_555 1_555
H8_8 C13_8 1_555 1_555
C14_8 C13_8 1_555 1_555
H9_8 C14_8 1_555 1_555
C15_7 N7_7 1_555 1_555
H10_7 C15_7 1_555 1_555
C16_7 C12_8 1_555 1_555
H11_7 C16_7 1_555 1_555
N8_8 C17_8 1_555 1_555
C17_8 C12_8 1_555 1_555
N9_8 C17_8 1_555 1_555
N14_5 N8_8 1_555 1_555
C18_8 N9_8 1_555 1_555
C19_8 C18_8 1_555 1_555
C20_8 C19_8 1_555 1_555
H12_8 C20_8 1_555 1_555
N16_5 C19_8 1_555 1_555
N12_8 C20_8 1_555 1_555
C21_7 N16_5 1_555 1_555
H13_7 C21_7 1_555 1_555
C22_8 N12_8 1_555 1_555
H14_7 C22_8 1_555 1_555
C4_7 C5_7 1_555 1_555
C15_7 C16_7 1_555 1_555
N14_5 C18_8 1_555 1_555
C21_7 C22_8 1_555 1_555
C21_8 N11_3 1_555 1_555
H13_8 C21_8 1_555 1_555
N11_3 Fe3_3 1_555 1_555
C10_8 N5_5 1_555 1_555
H6_8 C10_8 1_555 1_555
N5_5 Fe2_3 1_555 1_555
Fe2_3 N1_8 1_555 1_555
N1_8 C2_9 1_555 1_555
C1_9 C3_9 1_555 1_555
C2_9 H1_9 1_555 1_555
C3_9 C2_9 1_555 1_555
H2_9 C3_9 1_555 1_555
C4_8 N1_8 1_555 1_555
H3_8 C4_8 1_555 1_555
C5_8 C1_9 1_555 1_555
H4_8 C5_8 1_555 1_555
N2_9 C6_9 1_555 1_555
C6_9 C1_9 1_555 1_555
N3_9 C6_9 1_555 1_555
N4_6 N2_9 1_555 1_555
C7_9 N3_9 1_555 1_555
C8_9 C7_9 1_555 1_555
C9_9 C8_9 1_555 1_555
H5_9 C9_9 1_555 1_555
N5_6 C8_9 1_555 1_555
N6_9 C9_9 1_555 1_555
C10_9 N5_6 1_555 1_555
H6_9 C10_9 1_555 1_555
C11_9 N6_9 1_555 1_555
H7_9 C11_9 1_555 1_555
N7_8 Fe2_3 1_555 1_555
C15_8 N7_8 1_555 1_555
H10_8 C15_8 1_555 1_555
H11_8 C16_8 1_555 1_555
Fe3_3 N4_6 1_555 1_555
N14_6 Fe2_3 1_555 1_555
N16_6 Fe2_3 1_555 1_555
C4_8 C5_8 1_555 1_555
N4_6 C7_9 1_555 1_555
N5_6 Fe3_3 1_555 1_555
C10_9 C11_9 1_555 1_555
C15_8 C16_8 1_555 1_555
Fe3_3 N1_9 1_555 1_555
C4_9 N1_9 1_555 1_555
H3_9 C4_9 1_555 1_555
H4_9 C5_9 1_555 1_555
N7_9 Fe3_3 1_555 1_555
C13_9 N7_9 1_555 1_555
H8_9 C13_9 1_555 1_555
C14_9 C13_9 1_555 1_555
H9_9 C14_9 1_555 1_555
C15_9 N7_9 1_555 1_555
H10_9 C15_9 1_555 1_555
C4_9 C5_9 1_555 1_555
C15_9 C16_9 1_555 1_555
N8_9 C17_9 1_555 1_555
C17_9 C12_9 1_555 1_555
N9_9 C17_9 1_555 1_555
N14_6 N8_9 1_555 1_555
C18_9 N9_9 1_555 1_555
C19_9 C18_9 1_555 1_555
C20_9 C19_9 1_555 1_555
H12_9 C20_9 1_555 1_555
N16_6 C19_9 1_555 1_555
N12_9 C20_9 1_555 1_555
C21_9 N16_6 1_555 1_555
H13_9 C21_9 1_555 1_555
C22_9 N12_9 1_555 1_555
H14_9 C22_9 1_555 1_555
N14_6 C18_9 1_555 1_555
C21_9 C22_9 1_555 1_555

#END
