
###############################################################################
#
# This file contains modified crystal structure data generated from the
# MOF subset of the Cambridge Structural Database (CSD) v543 
# hosted by the Cambridge Crystallographic Data Centre (CCDC).
#
# This work is licensed under the Creative Commons
# Attribution-NonCommercial-ShareAlike 4.0 International License.
# To view a copy of this license, visit
# http://creativecommons.org/licenses/by-nc-sa/4.0/
# or send a letter to
# Creative Commons, PO Box 1866, Mountain View, CA 94042, USA.
#
# CIF created using the CSD Python API on 29 September 2022
# The structure has been converted into the P1 space group
# The structure has a 3D framework
# The original CSD entry ODEQEW is in the rhombohedral crystal system
# The framework has been calculated to contain at least 10.0% void space
# The void calculation uses a probe of radius 1.32A, grid spacing 0.4
#
###############################################################################

data_ODEQEW
_chemical_formula_moiety         '(C198 H126 Fe16 N108)n'
_symmetry_cell_setting           triclinic
_symmetry_space_group_name_H-M   'P 1'
_symmetry_Int_Tables_number      1
_space_group_name_Hall           'P 1'
loop_
_symmetry_equiv_pos_site_id
_symmetry_equiv_pos_as_xyz
1 x,y,z
_cell_length_a                   28.622(4)
_cell_length_b                   28.622(4)
_cell_length_c                   9.2243(18)
_cell_angle_alpha                90
_cell_angle_beta                 90
_cell_angle_gamma                120
_cell_volume                     6544.31
loop_
_atom_site_label
_atom_site_type_symbol
_atom_site_fract_x
_atom_site_fract_y
_atom_site_fract_z
Fe1 Fe 0.0000 0.5000 -0.0000
N7 N 0.07152(15) 0.54385(15) 0.0917(4)
N8 N 0.16782(17) 0.61427(17) 0.2378(5)
N11 N 0.01106(16) 0.60615(16) 0.3040(4)
C12 C 0.07408(19) 0.57939(17) 0.1937(5)
C13 C 0.12139(19) 0.61307(19) 0.2644(5)
H8 H 0.1211 0.6368 0.3361
C14 C 0.1653(2) 0.5794(2) 0.1364(6)
H9 H 0.1971 0.5784 0.1138
C15 C 0.11849(19) 0.54510(19) 0.0637(5)
C16 C 0.02260(18) 0.57685(17) 0.2160(5)
H4 H 0.0060 0.3470 0.2328
C9 C 0.00391(19) 0.41123(26) 0.1509(5)
H5 H 0.0361 0.4236 0.0965
Fe1_2 Fe 0.0000 0.5000 1.0000
N3 N 0.01950(15) 0.45967(14) 0.8613(4)
N4 N 0.06290(15) 0.45456(15) 0.8222(4)
N6 N 0.12830(15) 0.35524(15) 0.4767(4)
C6 C 0.04256(18) 0.41475(18) 0.7231(5)
C7 C 0.07333(19) 0.39379(18) 0.6480(5)
C8 C 0.04593(19) 0.34708(19) 0.5657(5)
H4_2 H 0.0076 0.3273 0.5661
C9_2 C 0.07398(18) 0.32942(19) 0.4842(5)
H5_2 H 0.0541 0.2972 0.4298
C10 C 0.15554(19) 0.39937(19) 0.5614(5)
H6 H 0.1938 0.4173 0.5623
C11 C 0.12986(19) 0.41939(19) 0.6467(5)
H7 H 0.1505 0.4506 0.7046
H10 H 0.1192 0.5217 0.9920
Fe2 Fe 0.1667 0.3333 0.3333
N14 N 0.02191(15) 0.56027(21) 0.8566(4)
Fe1_3 Fe 0.5000 0.5000 1.0000
N1 N 0.54385(15) 0.47233(21) 0.9083(4)
N2 N 0.61427(17) 0.44645(24) 0.7622(5)
N3_2 N 0.54033(14) 0.55983(21) 0.8613(4)
N4_2 N 0.54544(15) 0.60834(21) 0.8222(4)
N5 N 0.60615(16) 0.59509(23) 0.6960(4)
N6_2 N 0.64476(15) 0.77306(21) 0.4767(4)
C1 C 0.57939(17) 0.50531(25) 0.8063(5)
C2 C 0.61307(19) 0.49168(27) 0.7356(5)
H1 H 0.6368 0.5157 0.6639
C3 C 0.5794(2) 0.4141(3) 0.8636(6)
H2 H 0.5784 0.3813 0.8862
C4 C 0.54510(19) 0.42661(27) 0.9363(5)
C5 C 0.57685(17) 0.55425(25) 0.7840(5)
C6_2 C 0.58525(18) 0.62781(25) 0.7231(5)
C7_2 C 0.60621(18) 0.67954(26) 0.6480(5)
C8_2 C 0.65292(19) 0.69885(27) 0.5657(5)
H4_3 H 0.6727 0.6803 0.5661
C9_3 C 0.67058(19) 0.74456(26) 0.4842(5)
H5_3 H 0.7028 0.7569 0.4298
C10_2 C 0.60063(19) 0.75617(27) 0.5614(5)
H6_2 H 0.5827 0.7765 0.5623
C11_2 C 0.58061(19) 0.71047(27) 0.6467(5)
H7_2 H 0.5494 0.6999 0.7046
H10_2 H 0.4783 0.5975 0.9920
Fe2_2 Fe 0.6667 0.8333 0.3333
N14_2 N 0.43973(21) 0.46163(26) 0.8566(4)
Fe1_4 Fe 0.5000 1.0000 1.0000
N3_3 N 0.44017(21) 0.98050(15) 0.8613(4)
N4_3 N 0.39166(21) 0.93710(15) 0.8222(4)
N6_3 N 0.22694(21) 0.87170(15) 0.4767(4)
C6_3 C 0.37219(25) 0.95744(18) 0.7231(5)
C7_3 C 0.32046(26) 0.92667(19) 0.6480(5)
C8_3 C 0.30115(27) 0.95407(19) 0.5657(5)
H4_4 H 0.3197 0.9924 0.5661
C9_4 C 0.25544(26) 0.92602(18) 0.4842(5)
H5_4 H 0.2431 0.9459 0.4298
C10_3 C 0.24383(27) 0.84446(19) 0.5614(5)
H6_3 H 0.2235 0.8062 0.5623
C11_3 C 0.28953(27) 0.87014(19) 0.6467(5)
H7_3 H 0.3001 0.8495 0.7046
H10_3 H 0.4025 0.8808 0.9920
Fe2_3 Fe 0.1667 0.8333 0.3333
N14_3 N 0.53837(26) 0.97809(15) 0.8566(4)
N1_2 N 0.59515(15) 0.78948(15) 0.2416(4)
N2_2 N 0.49885(17) 0.71906(17) 0.0955(5)
N3_4 N 0.68617(15) 0.79300(14) 0.1946(4)
N4_4 N 0.72957(15) 0.78789(15) 0.1555(4)
N5_2 N 0.65561(16) 0.72718(16) 0.0293(4)
C1_2 C 0.59259(19) 0.75394(17) 0.1396(5)
C2_2 C 0.54528(19) 0.72026(19) 0.0689(5)
C3_2 C 0.5014(2) 0.7539(2) 0.1969(6)
H2_2 H 0.4696 0.7549 0.2195
C4_2 C 0.54818(19) 0.78823(19) 0.2696(5)
H3 H 0.5475 0.8116 0.3413
C5_2 C 0.64407(18) 0.75648(17) 0.1173(5)
C6_4 C 0.70923(18) 0.74808(18) 0.0564(5)
H7_4 H 0.8172 0.7839 0.0379
N7_2 N 0.73819(15) 0.87718(15) 0.4250(4)
N8_2 N 0.83449(17) 0.94760(17) 0.5711(5)
N9 N 0.64717(15) 0.87366(14) 0.4720(4)
N10 N 0.60377(15) 0.87877(15) 0.5111(4)
N11_2 N 0.67773(16) 0.93948(16) 0.6373(4)
C12_2 C 0.74075(19) 0.91272(17) 0.5270(5)
C13_2 C 0.78806(19) 0.94640(19) 0.5977(5)
H8_2 H 0.7878 0.9701 0.6694
C14_2 C 0.8320(2) 0.9127(2) 0.4697(6)
H9_2 H 0.8638 0.9117 0.4471
C15_2 C 0.78516(19) 0.87843(19) 0.3970(5)
H10_4 H 0.7859 0.8550 0.3253
C16_2 C 0.68927(18) 0.91018(17) 0.5493(5)
C17 C 0.62411(18) 0.91858(18) 0.6102(5)
C18 C 0.59334(19) 0.93954(18) 0.6853(5)
C19 C 0.62074(19) 0.98625(19) 0.7676(5)
C21 C 0.51113(19) 0.93396(19) 0.7719(5)
H13 H 0.4729 0.9160 0.7710
C22 C 0.53681(19) 0.91394(19) 0.6866(5)
H14 H 0.5162 0.8827 0.6287
N14_4 N 0.68857(15) 0.89361(21) 0.1900(4)
N1_3 N 0.21052(15) 0.80566(21) 0.2416(4)
N2_3 N 0.28094(17) 0.77978(24) 0.0955(5)
N3_5 N 0.20700(14) 0.89316(21) 0.1946(4)
N4_5 N 0.21211(15) 0.94167(21) 0.1555(4)
N5_3 N 0.27282(16) 0.92842(23) 0.0293(4)
C1_3 C 0.24606(17) 0.83864(25) 0.1396(5)
C2_3 C 0.27974(19) 0.82501(27) 0.0689(5)
C3_3 C 0.2461(2) 0.7474(3) 0.1969(6)
H2_3 H 0.2451 0.7146 0.2195
C4_3 C 0.21177(19) 0.75994(27) 0.2696(5)
H3_2 H 0.1884 0.7358 0.3413
C5_3 C 0.24352(17) 0.88758(25) 0.1173(5)
C6_5 C 0.25192(18) 0.96114(25) 0.0564(5)
N7_3 N 0.12282(15) 0.86100(21) 0.4250(4)
N8_3 N 0.05240(17) 0.88688(24) 0.5711(5)
N9_2 N 0.12634(14) 0.77350(21) 0.4720(4)
N10_2 N 0.12123(15) 0.72499(21) 0.5111(4)
N11_3 N 0.06052(16) 0.73824(23) 0.6373(4)
C12_3 C 0.08728(17) 0.82802(25) 0.5270(5)
C13_3 C 0.05360(19) 0.84165(27) 0.5977(5)
H8_3 H 0.0299 0.8176 0.6694
C14_3 C 0.0873(2) 0.9192(3) 0.4697(6)
H9_3 H 0.0883 0.9520 0.4471
C15_3 C 0.12157(19) 0.90672(27) 0.3970(5)
H10_5 H 0.1450 0.9308 0.3253
C16_3 C 0.08982(17) 0.77908(25) 0.5493(5)
C17_2 C 0.08142(18) 0.70552(25) 0.6102(5)
C18_2 C 0.06046(18) 0.65379(26) 0.6853(5)
C19_2 C 0.01375(19) 0.63448(27) 0.7676(5)
C21_2 C 0.06604(19) 0.57716(27) 0.7719(5)
H13_2 H 0.0840 0.5568 0.7710
C22_2 C 0.08606(19) 0.62286(27) 0.6866(5)
H14_2 H 0.1173 0.6334 0.6287
N14_5 N 0.10639(21) 0.79497(26) 0.1900(4)
N1_4 N 0.19434(21) 0.40485(15) 0.2416(4)
N2_4 N 0.22022(24) 0.50115(17) 0.0955(5)
N3_6 N 0.10684(21) 0.31383(15) 0.1946(4)
N4_6 N 0.05833(21) 0.27043(15) 0.1555(4)
N5_4 N 0.07158(23) 0.34439(16) 0.0293(4)
C1_4 C 0.16136(25) 0.40741(19) 0.1396(5)
C2_4 C 0.17499(27) 0.45472(19) 0.0689(5)
C3_4 C 0.2526(3) 0.4986(2) 0.1969(6)
H2_4 H 0.2854 0.5304 0.2195
C4_4 C 0.24006(27) 0.45182(19) 0.2696(5)
H3_3 H 0.2642 0.4525 0.3413
C5_4 C 0.11242(25) 0.35593(18) 0.1173(5)
C6_6 C 0.03886(25) 0.29077(18) 0.0564(5)
N7_4 N 0.13900(21) 0.26181(15) 0.4250(4)
N8_4 N 0.11312(24) 0.16551(17) 0.5711(5)
N9_3 N 0.22650(21) 0.35283(15) 0.4720(4)
N10_3 N 0.27501(21) 0.39623(15) 0.5111(4)
N11_4 N 0.26176(23) 0.32227(16) 0.6373(4)
C12_4 C 0.17198(25) 0.25925(19) 0.5270(5)
C13_4 C 0.15835(27) 0.21194(19) 0.5977(5)
H8_4 H 0.1824 0.2122 0.6694
C14_4 C 0.0808(3) 0.1680(2) 0.4697(6)
H9_4 H 0.0480 0.1362 0.4471
C15_4 C 0.09328(27) 0.21484(19) 0.3970(5)
H10_6 H 0.0692 0.2141 0.3253
C16_4 C 0.22092(25) 0.31073(18) 0.5493(5)
C17_3 C 0.29448(25) 0.37589(18) 0.6102(5)
C18_3 C 0.34621(26) 0.40666(19) 0.6853(5)
C19_3 C 0.36552(27) 0.37926(19) 0.7676(5)
H11 H 0.3470 0.3409 0.7672
C20 C 0.41123(26) 0.40731(18) 0.8491(5)
H12 H 0.4236 0.3874 0.9035
C21_3 C 0.42284(27) 0.48887(19) 0.7719(5)
H13_3 H 0.4432 0.5271 0.7710
C22_3 C 0.37714(27) 0.46319(19) 0.6866(5)
H14_3 H 0.3666 0.4838 0.6287
N14_6 N 0.20503(26) 0.31143(15) 0.1900(4)
H8_5 H 0.4544 0.3035 0.0028
C18_4 C 0.26000(19) 0.27288(18) 0.0187(5)
C19_4 C 0.28740(19) 0.31959(19) 0.1010(5)
H11_2 H 0.3257 0.3394 0.1006
C20_2 C 0.25935(18) 0.33725(19) 0.1825(5)
H12_2 H 0.2792 0.3695 0.2369
C21_4 C 0.17779(19) 0.26730(19) 0.1053(5)
H13_4 H 0.1395 0.2494 0.1044
C22_4 C 0.20347(19) 0.24728(19) 0.0200(5)
C18_5 C 0.72712(18) 0.98713(26) 0.0187(5)
C19_5 C 0.68041(19) 0.96782(27) 0.1010(5)
H11_3 H 0.6606 0.9864 0.1006
C20_3 C 0.66275(19) 0.92211(26) 0.1825(5)
H12_3 H 0.6305 0.9098 0.2369
C21_5 C 0.73270(19) 0.91050(27) 0.1053(5)
H13_5 H 0.7506 0.8902 0.1044
C22_5 C 0.75272(19) 0.95620(27) 0.0200(5)
C18_6 C 0.01287(26) 0.74000(19) 0.0187(5)
C19_6 C 0.03218(27) 0.71260(19) 0.1010(5)
H11_4 H 0.0136 0.6743 0.1006
C20_4 C 0.07789(26) 0.74065(18) 0.1825(5)
H12_4 H 0.0902 0.7208 0.2369
C21_6 C 0.08950(27) 0.82221(19) 0.1053(5)
H13_6 H 0.1098 0.8605 0.1044
C22_6 C 0.04380(27) 0.79653(19) 0.0200(5)
Fe1_5 Fe 1.0000 0.5000 -0.0000
H3_4 H 0.8808 0.4783 0.0080
N9_4 N 0.98050(15) 0.54033(14) 0.1387(4)
N10_4 N 0.93710(15) 0.54544(15) 0.1778(4)
N12 N 0.87170(15) 0.64476(15) 0.5233(4)
C17_4 C 0.95744(18) 0.58525(18) 0.2769(5)
C18_7 C 0.92667(19) 0.60621(18) 0.3520(5)
C19_7 C 0.95407(19) 0.65292(19) 0.4343(5)
H11_5 H 0.9924 0.6727 0.4339
C20_5 C 0.92602(18) 0.67058(19) 0.5158(5)
H12_5 H 0.9459 0.7028 0.5702
C21_7 C 0.84446(19) 0.60063(19) 0.4386(5)
H13_7 H 0.8062 0.5827 0.4377
C22_7 C 0.87014(19) 0.58061(19) 0.3533(5)
H14_4 H 0.8495 0.5494 0.2954
Fe3 Fe 0.8333 0.6667 0.6667
N13 N 0.97809(15) 0.43973(21) 0.1434(4)
Fe1_6 Fe 0.5000 0.5000 -0.0000
H3_5 H 0.5217 0.4025 0.0080
N7_5 N 0.45615(15) 0.52767(21) 0.0917(4)
N8_5 N 0.38573(17) 0.55355(24) 0.2378(5)
N9_5 N 0.45967(14) 0.44017(21) 0.1387(4)
N10_5 N 0.45456(15) 0.39166(21) 0.1778(4)
N11_5 N 0.39385(16) 0.40491(23) 0.3040(4)
N12_2 N 0.35524(15) 0.22694(21) 0.5233(4)
C12_5 C 0.42061(17) 0.49469(25) 0.1937(5)
C13_5 C 0.38693(19) 0.50832(27) 0.2644(5)
H8_6 H 0.3632 0.4843 0.3361
C14_5 C 0.4206(2) 0.5859(3) 0.1364(6)
H9_5 H 0.4216 0.6187 0.1138
C15_5 C 0.45490(19) 0.57339(27) 0.0637(5)
C16_5 C 0.42315(17) 0.44575(25) 0.2160(5)
C17_5 C 0.41475(18) 0.37219(25) 0.2769(5)
C18_8 C 0.39379(18) 0.32046(26) 0.3520(5)
C19_8 C 0.34708(19) 0.30115(27) 0.4343(5)
H11_6 H 0.3273 0.3197 0.4339
C20_6 C 0.32942(19) 0.25544(26) 0.5158(5)
H12_6 H 0.2972 0.2431 0.5702
C21_8 C 0.39937(19) 0.24383(27) 0.4386(5)
H13_8 H 0.4173 0.2235 0.4377
C22_8 C 0.41939(19) 0.28953(27) 0.3533(5)
H14_5 H 0.4506 0.3001 0.2954
Fe3_2 Fe 0.3333 0.1667 0.6667
N13_2 N 0.56027(21) 0.53837(26) 0.1434(4)
Fe1_7 Fe 0.5000 0.0000 -0.0000
H3_6 H 0.5975 0.1192 0.0080
N9_6 N 0.55983(21) 0.01950(15) 0.1387(4)
N10_6 N 0.60834(21) 0.06290(15) 0.1778(4)
N12_3 N 0.77306(21) 0.12830(15) 0.5233(4)
C17_6 C 0.62781(25) 0.04256(18) 0.2769(5)
C18_9 C 0.67954(26) 0.07333(19) 0.3520(5)
C19_9 C 0.69885(27) 0.04593(19) 0.4343(5)
H11_7 H 0.6803 0.0076 0.4339
C20_7 C 0.74456(26) 0.07398(18) 0.5158(5)
H12_7 H 0.7569 0.0541 0.5702
C21_9 C 0.75617(27) 0.15554(19) 0.4386(5)
H13_9 H 0.7765 0.1938 0.4377
C22_9 C 0.71047(27) 0.12986(19) 0.3533(5)
H14_6 H 0.6999 0.1505 0.2954
Fe3_3 Fe 0.8333 0.1667 0.6667
N13_3 N 0.46163(26) 0.02191(15) 0.1434(4)
N6_4 N 0.79497(15) 0.68857(15) 0.8100(4)
H1_2 H 0.5456 0.6965 0.9972
C7_4 C 0.74000(19) 0.72712(18) 0.9813(5)
C8_4 C 0.71260(19) 0.68041(19) 0.8990(5)
H4_5 H 0.6743 0.6606 0.8994
C9_5 C 0.74065(18) 0.66275(19) 0.8175(5)
H5_5 H 0.7208 0.6305 0.7631
C10_4 C 0.82221(19) 0.73270(19) 0.8947(5)
H6_4 H 0.8605 0.7506 0.8956
C11_4 C 0.79653(19) 0.75272(19) 0.9800(5)
N6_5 N 0.31143(15) 0.10639(21) 0.8100(4)
C7_5 C 0.27288(18) 0.01287(26) 0.9813(5)
C8_5 C 0.31959(19) 0.03218(27) 0.8990(5)
H4_6 H 0.3394 0.0136 0.8994
C9_6 C 0.33725(19) 0.07789(26) 0.8175(5)
H5_6 H 0.3695 0.0902 0.7631
C10_5 C 0.26730(19) 0.08950(27) 0.8947(5)
H6_5 H 0.2494 0.1098 0.8956
C11_5 C 0.24728(19) 0.04380(27) 0.9800(5)
N6_6 N 0.89361(21) 0.20503(15) 0.8100(4)
C7_6 C 0.98713(26) 0.26000(19) 0.9813(5)
C8_6 C 0.96782(27) 0.28740(19) 0.8990(5)
H4_7 H 0.9864 0.3257 0.8994
C9_7 C 0.92211(26) 0.25935(18) 0.8175(5)
H5_7 H 0.9098 0.2792 0.7631
C10_6 C 0.91050(27) 0.17779(19) 0.8947(5)
H6_6 H 0.8902 0.1395 0.8956
C11_6 C 0.95620(27) 0.20347(19) 0.9800(5)
N1_5 N 0.26181(15) 0.12282(15) 0.5750(4)
N2_5 N 0.16551(17) 0.05240(17) 0.4289(5)
N3_7 N 0.35283(15) 0.12634(14) 0.5280(4)
N4_7 N 0.39623(15) 0.12123(15) 0.4889(4)
N5_5 N 0.32227(16) 0.06052(16) 0.3627(4)
C1_5 C 0.25925(19) 0.08728(17) 0.4730(5)
C2_5 C 0.21194(19) 0.05360(19) 0.4023(5)
H1_3 H 0.2122 0.0299 0.3306
C3_5 C 0.1680(2) 0.0873(2) 0.5303(6)
H2_5 H 0.1362 0.0883 0.5529
C4_5 C 0.21484(19) 0.12157(19) 0.6030(5)
H3_7 H 0.2141 0.1450 0.6747
C5_5 C 0.31073(18) 0.08982(17) 0.4507(5)
C6_7 C 0.37589(18) 0.08142(18) 0.3898(5)
C7_7 C 0.40666(19) 0.06046(18) 0.3147(5)
C8_7 C 0.37926(19) 0.01375(19) 0.2324(5)
C10_7 C 0.48887(19) 0.06604(19) 0.2281(5)
H6_7 H 0.5271 0.0840 0.2290
C11_7 C 0.46319(19) 0.08606(19) 0.3134(5)
H7_5 H 0.4838 0.1173 0.3713
N7_6 N 0.40485(15) 0.21052(15) 0.7584(4)
N8_6 N 0.50115(17) 0.28094(17) 0.9045(5)
N9_7 N 0.31383(15) 0.20700(14) 0.8054(4)
N10_7 N 0.27043(15) 0.21211(15) 0.8445(4)
N11_6 N 0.34439(16) 0.27282(16) 0.9707(4)
C12_6 C 0.40741(19) 0.24606(17) 0.8604(5)
C13_6 C 0.45472(19) 0.27974(19) 0.9311(5)
C14_6 C 0.4986(2) 0.2461(2) 0.8031(6)
H9_6 H 0.5304 0.2451 0.7805
C15_6 C 0.45182(19) 0.21177(19) 0.7304(5)
H10_7 H 0.4525 0.1884 0.6587
C16_6 C 0.35593(18) 0.24352(17) 0.8827(5)
C17_7 C 0.29077(18) 0.25192(18) 0.9436(5)
H14_7 H 0.1828 0.2161 0.9621
N1_6 N 0.87718(15) 0.13900(21) 0.5750(4)
N2_6 N 0.94760(17) 0.11312(24) 0.4289(5)
N3_8 N 0.87366(14) 0.22650(21) 0.5280(4)
N4_8 N 0.87877(15) 0.27501(21) 0.4889(4)
N5_6 N 0.93948(16) 0.26176(23) 0.3627(4)
C1_6 C 0.91272(17) 0.17198(25) 0.4730(5)
C2_6 C 0.94640(19) 0.15835(27) 0.4023(5)
H1_4 H 0.9701 0.1824 0.3306
C3_6 C 0.9127(2) 0.0808(3) 0.5303(6)
H2_6 H 0.9117 0.0480 0.5529
C4_6 C 0.87843(19) 0.09328(27) 0.6030(5)
H3_8 H 0.8550 0.0692 0.6747
C5_6 C 0.91018(17) 0.22092(25) 0.4507(5)
C6_8 C 0.91858(18) 0.29448(25) 0.3898(5)
C7_8 C 0.93954(18) 0.34621(26) 0.3147(5)
C8_8 C 0.98625(19) 0.36552(27) 0.2324(5)
C10_8 C 0.93396(19) 0.42284(27) 0.2281(5)
H6_8 H 0.9160 0.4432 0.2290
C11_8 C 0.91394(19) 0.37714(27) 0.3134(5)
H7_6 H 0.8827 0.3666 0.3713
N7_7 N 0.78948(15) 0.19434(21) 0.7584(4)
N8_7 N 0.71906(17) 0.22022(24) 0.9045(5)
N9_8 N 0.79300(14) 0.10684(21) 0.8054(4)
N10_8 N 0.78789(15) 0.05833(21) 0.8445(4)
N11_7 N 0.72718(16) 0.07158(23) 0.9707(4)
C12_7 C 0.75394(17) 0.16136(25) 0.8604(5)
C13_7 C 0.72026(19) 0.17499(27) 0.9311(5)
C14_7 C 0.7539(2) 0.2526(3) 0.8031(6)
H9_7 H 0.7549 0.2854 0.7805
C15_7 C 0.78823(19) 0.24006(27) 0.7304(5)
H10_8 H 0.8116 0.2642 0.6587
C16_7 C 0.75648(17) 0.11242(25) 0.8827(5)
C17_8 C 0.74808(18) 0.03886(25) 0.9436(5)
N1_7 N 0.86100(21) 0.73819(15) 0.5750(4)
N2_7 N 0.88688(24) 0.83449(17) 0.4289(5)
N3_9 N 0.77350(21) 0.64717(15) 0.5280(4)
N4_9 N 0.72499(21) 0.60377(15) 0.4889(4)
N5_7 N 0.73824(23) 0.67773(16) 0.3627(4)
C1_7 C 0.82802(25) 0.74075(19) 0.4730(5)
C2_7 C 0.84165(27) 0.78806(19) 0.4023(5)
H1_5 H 0.8176 0.7878 0.3306
C3_7 C 0.9192(3) 0.8320(2) 0.5303(6)
H2_7 H 0.9520 0.8638 0.5529
C4_7 C 0.90672(27) 0.78516(19) 0.6030(5)
H3_9 H 0.9308 0.7859 0.6747
C5_7 C 0.77908(25) 0.68927(18) 0.4507(5)
C6_9 C 0.70552(25) 0.62411(18) 0.3898(5)
C7_9 C 0.65379(26) 0.59334(19) 0.3147(5)
C8_9 C 0.63448(27) 0.62074(19) 0.2324(5)
H4_8 H 0.6530 0.6591 0.2328
C9_8 C 0.58877(26) 0.59269(18) 0.1509(5)
H5_8 H 0.5764 0.6126 0.0965
C10_9 C 0.57716(27) 0.51113(19) 0.2281(5)
H6_9 H 0.5568 0.4729 0.2290
C11_9 C 0.62286(27) 0.53681(19) 0.3134(5)
H7_7 H 0.6334 0.5162 0.3713
N7_8 N 0.80566(21) 0.59515(15) 0.7584(4)
N8_8 N 0.77978(24) 0.49885(17) 0.9045(5)
N9_9 N 0.89316(21) 0.68617(15) 0.8054(4)
N10_9 N 0.94167(21) 0.72957(15) 0.8445(4)
N11_8 N 0.92842(23) 0.65561(16) 0.9707(4)
C12_8 C 0.83864(25) 0.59259(19) 0.8604(5)
C13_8 C 0.82501(27) 0.54528(19) 0.9311(5)
C14_8 C 0.7474(3) 0.5014(2) 0.8031(6)
H9_8 H 0.7146 0.4696 0.7805
C15_8 C 0.75994(27) 0.54818(19) 0.7304(5)
H10_9 H 0.7358 0.5475 0.6587
C16_8 C 0.88758(25) 0.64407(18) 0.8827(5)
C17_9 C 0.96114(25) 0.70923(18) 0.9436(5)
Fe1_8 Fe 1.0000 0.5000 1.0000
N1_8 N 0.92848(15) 0.45615(15) 0.9083(4)
N2_8 N 0.83218(17) 0.38573(17) 0.7622(5)
N5_8 N 0.98894(16) 0.39385(16) 0.6960(4)
C1_8 C 0.92592(19) 0.42061(17) 0.8063(5)
C2_8 C 0.87861(19) 0.38693(19) 0.7356(5)
H1_6 H 0.8789 0.3632 0.6639
C3_8 C 0.8347(2) 0.4206(2) 0.8636(6)
H2_8 H 0.8029 0.4216 0.8862
C4_8 C 0.88151(19) 0.45490(19) 0.9363(5)
C5_8 C 0.97740(18) 0.42315(17) 0.7840(5)
H11_8 H 0.9940 0.6530 0.7672
C20_8 C 0.99609(19) 0.58877(26) 0.8491(5)
H12_8 H 0.9639 0.5764 0.9035
Fe1_9 Fe 0.5000 0.0000 1.0000
N1_9 N 0.52767(21) 0.07152(15) 0.9083(4)
N2_9 N 0.55355(24) 0.16782(17) 0.7622(5)
N5_9 N 0.40491(23) 0.01106(16) 0.6960(4)
C1_9 C 0.49469(25) 0.07408(19) 0.8063(5)
C2_9 C 0.50832(27) 0.12139(19) 0.7356(5)
H1_7 H 0.4843 0.1211 0.6639
C3_9 C 0.5859(3) 0.1653(2) 0.8636(6)
H2_9 H 0.6187 0.1971 0.8862
C4_9 C 0.57339(27) 0.11849(19) 0.9363(5)
C5_9 C 0.44575(25) 0.02260(18) 0.7840(5)
H11_9 H 0.6591 0.0060 0.7672
C20_9 C 0.59269(18) 0.00391(19) 0.8491(5)
H12_9 H 0.6126 0.0361 0.9035
Fe1_10 Fe 0.5000 1.0000 -0.0000
N7_9 N 0.47233(21) 0.92848(15) 0.0917(4)
N8_9 N 0.44645(24) 0.83218(17) 0.2378(5)
N11_9 N 0.59509(23) 0.98894(16) 0.3040(4)
C12_9 C 0.50531(25) 0.92592(19) 0.1937(5)
C13_9 C 0.49168(27) 0.87861(19) 0.2644(5)
H8_7 H 0.5157 0.8789 0.3361
C14_9 C 0.4141(3) 0.8347(2) 0.1364(6)
H9_9 H 0.3813 0.8029 0.1138
C15_9 C 0.42661(27) 0.88151(19) 0.0637(5)
C16_9 C 0.55425(25) 0.97740(18) 0.2160(5)
H4_9 H 0.3409 0.9940 0.2328
C9_9 C 0.40731(18) 0.99609(19) 0.1509(5)
H5_9 H 0.3874 0.9639 0.0965
H7_8 H 0.2161 0.0332 0.0379
H1_8 H 0.3035 0.8490 0.9972
H1_9 H 0.1510 0.4544 0.9972
H7_9 H 0.9668 0.1828 0.0379
H8_8 H 0.6965 0.1510 0.0028
H14_8 H 0.7839 0.9668 0.9621
H14_9 H 0.0332 0.8172 0.9621
H8_9 H 0.8490 0.5456 0.0028
loop_
_geom_bond_atom_site_label_1
_geom_bond_atom_site_label_2
_geom_bond_site_symmetry_1
_geom_bond_site_symmetry_2
N7 Fe1 1_555 1_555
N8 C13 1_555 1_555
N11 C16 1_555 1_555
C12 N7 1_555 1_555
C13 C12 1_555 1_555
H8 C13 1_555 1_555
C14 N8 1_555 1_555
H9 C14 1_555 1_555
C15 N7 1_555 1_555
C12 C16 1_555 1_555
C14 C15 1_555 1_555
H5 C9 1_555 1_555
N3 Fe1_2 1_555 1_555
N4 N3 1_555 1_555
N6 C9_2 1_555 1_555
C6 N4 1_555 1_555
C7 C6 1_555 1_555
C8 C7 1_555 1_555
H4_2 C8 1_555 1_555
C9_2 C8 1_555 1_555
H5_2 C9_2 1_555 1_555
C10 N6 1_555 1_555
H6 C10 1_555 1_555
C11 C7 1_555 1_555
H7 C11 1_555 1_555
Fe2 N6 1_555 1_555
N14 Fe1_2 1_555 1_555
C10 C11 1_555 1_555
Fe1_3 N1 1_555 1_555
N1 C1 1_555 1_555
N2 C2 1_555 1_555
N3_2 Fe1_3 1_555 1_555
N4_2 N3_2 1_555 1_555
N5 C5 1_555 1_555
N6_2 C9_3 1_555 1_555
C1 C2 1_555 1_555
C2 H1 1_555 1_555
C3 N2 1_555 1_555
H2 C3 1_555 1_555
C4 N1 1_555 1_555
C5 N3_2 1_555 1_555
C6_2 N4_2 1_555 1_555
C7_2 C6_2 1_555 1_555
C8_2 C7_2 1_555 1_555
H4_3 C8_2 1_555 1_555
C9_3 C8_2 1_555 1_555
H5_3 C9_3 1_555 1_555
C10_2 N6_2 1_555 1_555
H6_2 C10_2 1_555 1_555
C11_2 C7_2 1_555 1_555
H7_2 C11_2 1_555 1_555
Fe2_2 N6_2 1_555 1_555
N14_2 Fe1_3 1_555 1_555
N5 C6_2 1_555 1_555
C1 C5 1_555 1_555
C3 C4 1_555 1_555
C10_2 C11_2 1_555 1_555
N3_3 Fe1_4 1_555 1_555
N4_3 N3_3 1_555 1_555
N6_3 C9_4 1_555 1_555
C6_3 N4_3 1_555 1_555
C7_3 C6_3 1_555 1_555
C8_3 C7_3 1_555 1_555
H4_4 C8_3 1_555 1_555
C9_4 C8_3 1_555 1_555
H5_4 C9_4 1_555 1_555
C10_3 N6_3 1_555 1_555
H6_3 C10_3 1_555 1_555
C11_3 C7_3 1_555 1_555
H7_3 C11_3 1_555 1_555
Fe2_3 N6_3 1_555 1_555
N14_3 Fe1_4 1_555 1_555
C10_3 C11_3 1_555 1_555
Fe2_2 N1_2 1_555 1_555
N1_2 C1_2 1_555 1_555
N2_2 C2_2 1_555 1_555
N3_4 Fe2_2 1_555 1_555
N4_4 N3_4 1_555 1_555
N5_2 C5_2 1_555 1_555
C1_2 C2_2 1_555 1_555
C3_2 N2_2 1_555 1_555
H2_2 C3_2 1_555 1_555
C4_2 N1_2 1_555 1_555
H3 C4_2 1_555 1_555
C5_2 N3_4 1_555 1_555
C6_4 N4_4 1_555 1_555
N7_2 Fe2_2 1_555 1_555
N8_2 C13_2 1_555 1_555
N9 Fe2_2 1_555 1_555
N10 N9 1_555 1_555
N11_2 C16_2 1_555 1_555
C12_2 N7_2 1_555 1_555
C13_2 C12_2 1_555 1_555
H8_2 C13_2 1_555 1_555
C14_2 N8_2 1_555 1_555
H9_2 C14_2 1_555 1_555
C15_2 N7_2 1_555 1_555
H10_4 C15_2 1_555 1_555
C16_2 N9 1_555 1_555
C17 N10 1_555 1_555
C18 C17 1_555 1_555
C19 C18 1_555 1_555
C21 N14_3 1_555 1_555
H13 C21 1_555 1_555
C22 C18 1_555 1_555
H14 C22 1_555 1_555
N14_4 Fe2_2 1_555 1_555
N5_2 C6_4 1_555 1_555
C1_2 C5_2 1_555 1_555
C3_2 C4_2 1_555 1_555
N11_2 C17 1_555 1_555
C12_2 C16_2 1_555 1_555
C14_2 C15_2 1_555 1_555
C21 C22 1_555 1_555
Fe2_3 N1_3 1_555 1_555
N1_3 C1_3 1_555 1_555
N2_3 C2_3 1_555 1_555
N3_5 Fe2_3 1_555 1_555
N4_5 N3_5 1_555 1_555
N5_3 C5_3 1_555 1_555
C1_3 C2_3 1_555 1_555
C3_3 N2_3 1_555 1_555
H2_3 C3_3 1_555 1_555
C4_3 N1_3 1_555 1_555
H3_2 C4_3 1_555 1_555
C5_3 N3_5 1_555 1_555
C6_5 N4_5 1_555 1_555
N7_3 Fe2_3 1_555 1_555
N8_3 C13_3 1_555 1_555
N9_2 Fe2_3 1_555 1_555
N10_2 N9_2 1_555 1_555
N11_3 C16_3 1_555 1_555
C12_3 N7_3 1_555 1_555
C13_3 C12_3 1_555 1_555
H8_3 C13_3 1_555 1_555
C14_3 N8_3 1_555 1_555
H9_3 C14_3 1_555 1_555
C15_3 N7_3 1_555 1_555
H10_5 C15_3 1_555 1_555
C16_3 N9_2 1_555 1_555
C17_2 N10_2 1_555 1_555
C18_2 C17_2 1_555 1_555
C19_2 C18_2 1_555 1_555
C21_2 N14 1_555 1_555
H13_2 C21_2 1_555 1_555
C22_2 C18_2 1_555 1_555
H14_2 C22_2 1_555 1_555
N14_5 Fe2_3 1_555 1_555
N5_3 C6_5 1_555 1_555
C1_3 C5_3 1_555 1_555
C3_3 C4_3 1_555 1_555
N11_3 C17_2 1_555 1_555
C12_3 C16_3 1_555 1_555
C14_3 C15_3 1_555 1_555
C21_2 C22_2 1_555 1_555
Fe2 N1_4 1_555 1_555
N1_4 C1_4 1_555 1_555
N2_4 C2_4 1_555 1_555
N3_6 Fe2 1_555 1_555
N4_6 N3_6 1_555 1_555
N5_4 C5_4 1_555 1_555
C1_4 C2_4 1_555 1_555
C3_4 N2_4 1_555 1_555
H2_4 C3_4 1_555 1_555
C4_4 N1_4 1_555 1_555
H3_3 C4_4 1_555 1_555
C5_4 N3_6 1_555 1_555
C6_6 N4_6 1_555 1_555
N7_4 Fe2 1_555 1_555
N8_4 C13_4 1_555 1_555
N9_3 Fe2 1_555 1_555
N10_3 N9_3 1_555 1_555
N11_4 C16_4 1_555 1_555
N14_2 C20 1_555 1_555
C12_4 N7_4 1_555 1_555
C13_4 C12_4 1_555 1_555
H8_4 C13_4 1_555 1_555
C14_4 N8_4 1_555 1_555
H9_4 C14_4 1_555 1_555
C15_4 N7_4 1_555 1_555
H10_6 C15_4 1_555 1_555
C16_4 N9_3 1_555 1_555
C17_3 N10_3 1_555 1_555
C18_3 C17_3 1_555 1_555
C19_3 C18_3 1_555 1_555
H11 C19_3 1_555 1_555
C20 C19_3 1_555 1_555
H12 C20 1_555 1_555
C21_3 N14_2 1_555 1_555
H13_3 C21_3 1_555 1_555
C22_3 C18_3 1_555 1_555
H14_3 C22_3 1_555 1_555
N14_6 Fe2 1_555 1_555
N5_4 C6_6 1_555 1_555
C1_4 C5_4 1_555 1_555
C3_4 C4_4 1_555 1_555
N11_4 C17_3 1_555 1_555
C12_4 C16_4 1_555 1_555
C14_4 C15_4 1_555 1_555
C21_3 C22_3 1_555 1_555
N14_6 C20_2 1_555 1_555
C19_4 C18_4 1_555 1_555
H11_2 C19_4 1_555 1_555
C20_2 C19_4 1_555 1_555
H12_2 C20_2 1_555 1_555
C21_4 N14_6 1_555 1_555
H13_4 C21_4 1_555 1_555
C22_4 C18_4 1_555 1_555
C21_4 C22_4 1_555 1_555
N14_4 C20_3 1_555 1_555
C19_5 C18_5 1_555 1_555
H11_3 C19_5 1_555 1_555
C20_3 C19_5 1_555 1_555
H12_3 C20_3 1_555 1_555
C21_5 N14_4 1_555 1_555
H13_5 C21_5 1_555 1_555
C22_5 C18_5 1_555 1_555
C21_5 C22_5 1_555 1_555
N14_5 C20_4 1_555 1_555
C19_6 C18_6 1_555 1_555
H11_4 C19_6 1_555 1_555
C20_4 C19_6 1_555 1_555
H12_4 C20_4 1_555 1_555
C21_6 N14_5 1_555 1_555
H13_6 C21_6 1_555 1_555
C22_6 C18_6 1_555 1_555
C21_6 C22_6 1_555 1_555
N9_4 Fe1_5 1_555 1_555
N10_4 N9_4 1_555 1_555
N12 C20_5 1_555 1_555
C17_4 N10_4 1_555 1_555
C18_7 C17_4 1_555 1_555
C19_7 C18_7 1_555 1_555
H11_5 C19_7 1_555 1_555
C20_5 C19_7 1_555 1_555
H12_5 C20_5 1_555 1_555
C21_7 N12 1_555 1_555
H13_7 C21_7 1_555 1_555
C22_7 C18_7 1_555 1_555
H14_4 C22_7 1_555 1_555
Fe3 N12 1_555 1_555
N13 Fe1_5 1_555 1_555
C21_7 C22_7 1_555 1_555
N7_5 Fe1_6 1_555 1_555
N8_5 C13_5 1_555 1_555
N9_5 Fe1_6 1_555 1_555
N10_5 N9_5 1_555 1_555
N11_5 C16_5 1_555 1_555
N12_2 C20_6 1_555 1_555
C12_5 N7_5 1_555 1_555
C13_5 C12_5 1_555 1_555
H8_6 C13_5 1_555 1_555
C14_5 N8_5 1_555 1_555
H9_5 C14_5 1_555 1_555
C15_5 N7_5 1_555 1_555
C16_5 N9_5 1_555 1_555
C17_5 N10_5 1_555 1_555
C18_8 C17_5 1_555 1_555
C19_8 C18_8 1_555 1_555
H11_6 C19_8 1_555 1_555
C20_6 C19_8 1_555 1_555
H12_6 C20_6 1_555 1_555
C21_8 N12_2 1_555 1_555
H13_8 C21_8 1_555 1_555
C22_8 C18_8 1_555 1_555
H14_5 C22_8 1_555 1_555
Fe3_2 N12_2 1_555 1_555
N13_2 Fe1_6 1_555 1_555
N11_5 C17_5 1_555 1_555
C12_5 C16_5 1_555 1_555
C14_5 C15_5 1_555 1_555
C21_8 C22_8 1_555 1_555
N9_6 Fe1_7 1_555 1_555
N10_6 N9_6 1_555 1_555
N12_3 C20_7 1_555 1_555
C17_6 N10_6 1_555 1_555
C18_9 C17_6 1_555 1_555
C19_9 C18_9 1_555 1_555
H11_7 C19_9 1_555 1_555
C20_7 C19_9 1_555 1_555
H12_7 C20_7 1_555 1_555
C21_9 N12_3 1_555 1_555
H13_9 C21_9 1_555 1_555
C22_9 C18_9 1_555 1_555
H14_6 C22_9 1_555 1_555
Fe3_3 N12_3 1_555 1_555
N13_3 Fe1_7 1_555 1_555
C21_9 C22_9 1_555 1_555
N6_4 C9_5 1_555 1_555
C8_4 C7_4 1_555 1_555
H4_5 C8_4 1_555 1_555
C9_5 C8_4 1_555 1_555
H5_5 C9_5 1_555 1_555
C10_4 N6_4 1_555 1_555
H6_4 C10_4 1_555 1_555
C11_4 C7_4 1_555 1_555
Fe3 N6_4 1_555 1_555
C10_4 C11_4 1_555 1_555
N6_5 C9_6 1_555 1_555
C8_5 C7_5 1_555 1_555
H4_6 C8_5 1_555 1_555
C9_6 C8_5 1_555 1_555
H5_6 C9_6 1_555 1_555
C10_5 N6_5 1_555 1_555
H6_5 C10_5 1_555 1_555
C11_5 C7_5 1_555 1_555
Fe3_2 N6_5 1_555 1_555
C10_5 C11_5 1_555 1_555
N6_6 C9_7 1_555 1_555
C8_6 C7_6 1_555 1_555
H4_7 C8_6 1_555 1_555
C9_7 C8_6 1_555 1_555
H5_7 C9_7 1_555 1_555
C10_6 N6_6 1_555 1_555
H6_6 C10_6 1_555 1_555
C11_6 C7_6 1_555 1_555
Fe3_3 N6_6 1_555 1_555
C10_6 C11_6 1_555 1_555
Fe3_2 N1_5 1_555 1_555
N1_5 C1_5 1_555 1_555
N2_5 C2_5 1_555 1_555
N3_7 Fe3_2 1_555 1_555
N4_7 N3_7 1_555 1_555
N5_5 C5_5 1_555 1_555
C1_5 C2_5 1_555 1_555
C2_5 H1_3 1_555 1_555
C3_5 N2_5 1_555 1_555
H2_5 C3_5 1_555 1_555
C4_5 N1_5 1_555 1_555
H3_7 C4_5 1_555 1_555
C5_5 N3_7 1_555 1_555
C6_7 N4_7 1_555 1_555
C7_7 C6_7 1_555 1_555
C8_7 C7_7 1_555 1_555
C10_7 N13_3 1_555 1_555
H6_7 C10_7 1_555 1_555
C11_7 C7_7 1_555 1_555
H7_5 C11_7 1_555 1_555
N7_6 Fe3_2 1_555 1_555
N8_6 C13_6 1_555 1_555
N9_7 Fe3_2 1_555 1_555
N10_7 N9_7 1_555 1_555
N11_6 C16_6 1_555 1_555
C12_6 N7_6 1_555 1_555
C13_6 C12_6 1_555 1_555
C14_6 N8_6 1_555 1_555
H9_6 C14_6 1_555 1_555
C15_6 N7_6 1_555 1_555
H10_7 C15_6 1_555 1_555
C16_6 N9_7 1_555 1_555
C17_7 N10_7 1_555 1_555
N5_5 C6_7 1_555 1_555
C1_5 C5_5 1_555 1_555
C3_5 C4_5 1_555 1_555
C10_7 C11_7 1_555 1_555
N11_6 C17_7 1_555 1_555
C12_6 C16_6 1_555 1_555
C14_6 C15_6 1_555 1_555
Fe3_3 N1_6 1_555 1_555
N1_6 C1_6 1_555 1_555
N2_6 C2_6 1_555 1_555
N3_8 Fe3_3 1_555 1_555
N4_8 N3_8 1_555 1_555
N5_6 C5_6 1_555 1_555
C1_6 C2_6 1_555 1_555
C2_6 H1_4 1_555 1_555
C3_6 N2_6 1_555 1_555
H2_6 C3_6 1_555 1_555
C4_6 N1_6 1_555 1_555
H3_8 C4_6 1_555 1_555
C5_6 N3_8 1_555 1_555
C6_8 N4_8 1_555 1_555
C7_8 C6_8 1_555 1_555
C8_8 C7_8 1_555 1_555
C10_8 N13 1_555 1_555
H6_8 C10_8 1_555 1_555
C11_8 C7_8 1_555 1_555
H7_6 C11_8 1_555 1_555
N7_7 Fe3_3 1_555 1_555
N8_7 C13_7 1_555 1_555
N9_8 Fe3_3 1_555 1_555
N10_8 N9_8 1_555 1_555
N11_7 C16_7 1_555 1_555
C12_7 N7_7 1_555 1_555
C13_7 C12_7 1_555 1_555
C14_7 N8_7 1_555 1_555
H9_7 C14_7 1_555 1_555
C15_7 N7_7 1_555 1_555
H10_8 C15_7 1_555 1_555
C16_7 N9_8 1_555 1_555
C17_8 N10_8 1_555 1_555
N5_6 C6_8 1_555 1_555
C1_6 C5_6 1_555 1_555
C3_6 C4_6 1_555 1_555
C10_8 C11_8 1_555 1_555
N11_7 C17_8 1_555 1_555
C12_7 C16_7 1_555 1_555
C14_7 C15_7 1_555 1_555
Fe3 N1_7 1_555 1_555
N1_7 C1_7 1_555 1_555
N2_7 C2_7 1_555 1_555
N3_9 Fe3 1_555 1_555
N4_9 N3_9 1_555 1_555
N5_7 C5_7 1_555 1_555
N13_2 C9_8 1_555 1_555
C1_7 C2_7 1_555 1_555
C2_7 H1_5 1_555 1_555
C3_7 N2_7 1_555 1_555
H2_7 C3_7 1_555 1_555
C4_7 N1_7 1_555 1_555
H3_9 C4_7 1_555 1_555
C5_7 N3_9 1_555 1_555
C6_9 N4_9 1_555 1_555
C7_9 C6_9 1_555 1_555
C8_9 C7_9 1_555 1_555
H4_8 C8_9 1_555 1_555
C9_8 C8_9 1_555 1_555
H5_8 C9_8 1_555 1_555
C10_9 N13_2 1_555 1_555
H6_9 C10_9 1_555 1_555
C11_9 C7_9 1_555 1_555
H7_7 C11_9 1_555 1_555
N7_8 Fe3 1_555 1_555
N8_8 C13_8 1_555 1_555
N9_9 Fe3 1_555 1_555
N10_9 N9_9 1_555 1_555
N11_8 C16_8 1_555 1_555
C12_8 N7_8 1_555 1_555
C13_8 C12_8 1_555 1_555
C14_8 N8_8 1_555 1_555
H9_8 C14_8 1_555 1_555
C15_8 N7_8 1_555 1_555
H10_9 C15_8 1_555 1_555
C16_8 N9_9 1_555 1_555
C17_9 N10_9 1_555 1_555
N5_7 C6_9 1_555 1_555
C1_7 C5_7 1_555 1_555
C3_7 C4_7 1_555 1_555
C10_9 C11_9 1_555 1_555
N11_8 C17_9 1_555 1_555
C12_8 C16_8 1_555 1_555
C14_8 C15_8 1_555 1_555
Fe1_8 N1_8 1_555 1_555
N1_8 C1_8 1_555 1_555
N2_8 C2_8 1_555 1_555
N5_8 C5_8 1_555 1_555
C1_8 C2_8 1_555 1_555
C2_8 H1_6 1_555 1_555
C3_8 N2_8 1_555 1_555
H2_8 C3_8 1_555 1_555
C4_8 N1_8 1_555 1_555
C1_8 C5_8 1_555 1_555
C3_8 C4_8 1_555 1_555
H12_8 C20_8 1_555 1_555
Fe1_9 N1_9 1_555 1_555
N1_9 C1_9 1_555 1_555
N2_9 C2_9 1_555 1_555
N5_9 C5_9 1_555 1_555
C1_9 C2_9 1_555 1_555
C2_9 H1_7 1_555 1_555
C3_9 N2_9 1_555 1_555
H2_9 C3_9 1_555 1_555
C4_9 N1_9 1_555 1_555
C1_9 C5_9 1_555 1_555
C3_9 C4_9 1_555 1_555
H12_9 C20_9 1_555 1_555
N7_9 Fe1_10 1_555 1_555
N8_9 C13_9 1_555 1_555
N11_9 C16_9 1_555 1_555
C12_9 N7_9 1_555 1_555
C13_9 C12_9 1_555 1_555
H8_7 C13_9 1_555 1_555
C14_9 N8_9 1_555 1_555
H9_9 C14_9 1_555 1_555
C15_9 N7_9 1_555 1_555
C12_9 C16_9 1_555 1_555
C14_9 C15_9 1_555 1_555
H5_9 C9_9 1_555 1_555

#END
