
###############################################################################
#
# This file contains modified crystal structure data generated from the
# MOF subset of the Cambridge Structural Database (CSD) v543 
# hosted by the Cambridge Crystallographic Data Centre (CCDC).
#
# This work is licensed under the Creative Commons
# Attribution-NonCommercial-ShareAlike 4.0 International License.
# To view a copy of this license, visit
# http://creativecommons.org/licenses/by-nc-sa/4.0/
# or send a letter to
# Creative Commons, PO Box 1866, Mountain View, CA 94042, USA.
#
# CIF created using the CSD Python API on 29 September 2022
# The structure has been converted into the P1 space group
# The structure has a 3D framework
# The original CSD entry ODEZAB is in the rhombohedral crystal system
# The framework has been calculated to contain at least 10.0% void space
# The void calculation uses a probe of radius 1.32A, grid spacing 0.4
# H atom positions have been added when not included in the experimental data
# Generated hydrogen atom positions removed from atoms on special positions
#
###############################################################################

data_ODEZAB
_chemical_formula_moiety         '(C252 H288 Cu18 O99)n'
_symmetry_cell_setting           triclinic
_symmetry_space_group_name_H-M   'P 1'
_symmetry_Int_Tables_number      1
_space_group_name_Hall           'P 1'
loop_
_symmetry_equiv_pos_site_id
_symmetry_equiv_pos_as_xyz
1 x,y,z
_cell_length_a                   18.6401(5)
_cell_length_b                   18.6401(5)
_cell_length_c                   39.7480(9)
_cell_angle_alpha                90
_cell_angle_beta                 90
_cell_angle_gamma                120
_cell_volume                     11960.3
loop_
_atom_site_label
_atom_site_type_symbol
_atom_site_fract_x
_atom_site_fract_y
_atom_site_fract_z
O16 O 0.58952(17) 0.03033(11) 0.04294(5)
O17 O 0.44081(13) 0.03033(11) 0.04294(5)
O5 O 0.81477(12) 0.03832(16) 0.66366(5)
O6 O 0.77414(13) 0.07715(17) 0.70961(5)
C12 C 0.78426(17) 0.02581(23) 0.69249(7)
Cu2 Cu 0.523563(23) 0.04713(2) 0.972612(10)
O12 O 0.56094(33) 0.1219(3) 0.92841(9)
Cu6 Cu 0.809770(23) 0.190234(12) 0.694055(10)
Cu8 Cu 0.856900(12) 0.143104(23) 0.639279(10)
O13 O 0.62835(16) 0.10979(11) 0.99699(5)
O14 O 0.48144(12) 0.10979(11) 0.99699(5)
Cu1 Cu 0.476433(12) 0.95287(2) 0.027388(10)
O1 O 0.51856(12) 0.89021(11) 0.00301(5)
O3 O 0.43904(13) 0.8781(3) 0.07159(9)
O8 O 0.51856(12) 0.62835(16) 0.00301(5)
Cu3 Cu 0.476437(23) 0.523567(12) 0.027388(10)
O15 O 0.37165(16) 0.89021(11) 0.00301(5)
O2 O 0.55919(13) 0.96967(11) 0.95706(5)
O4 O 0.8090(4) 0.90450(18) 0.91000(14)
C1 C 0.54907(17) 0.90821(15) 0.97418(7)
C2 C 0.57560(17) 0.85279(15) 0.95832(7)
C3 C 0.5556(2) 0.77782(12) 0.97377(9)
H1 H 0.5289 0.7644 0.9945
C4 C 0.61849(19) 0.87344(17) 0.92776(7)
H2 H 0.6319 0.9233 0.9174
C5 C 0.6413(3) 0.82066(14) 0.91267(10)
C6 C 0.5571(4) 0.77855(18) 0.84676(14)
H3 H 0.5262 0.7631 0.8665
C7 C 0.6456(3) 0.82278(13) 0.84891(11)
C8 C 0.6869(3) 0.84344(15) 0.87990(12)
C9 C 0.7706(4) 0.8853(2) 0.87973(15)
C10 C 0.8155(4) 0.9077(2) 0.84923(16)
H4 H 0.8731 0.9365 0.8497
C11 C 0.8692(13) 0.9346(6) 0.9183(5)
H5 H 0.8843 0.9421 0.9411
H6 H 0.9018 0.9088 0.9077
O7 O 0.5243(4) 0.76217(44) 0.75667(14)
C13 C 0.75773(17) 0.94386(23) 0.70835(7)
C14 C 0.7777(2) 0.88889(23) 0.69290(9)
H7 H 0.8044 0.9022 0.6722
C15 C 0.71484(19) 0.92162(25) 0.73891(7)
H8 H 0.7014 0.9581 0.7493
C16 C 0.6920(3) 0.84603(33) 0.75400(10)
C17 C 0.7762(4) 0.88812(44) 0.81991(14)
H9 H 0.8071 0.9036 0.8002
C18 C 0.6877(3) 0.84385(33) 0.81776(11)
C19 C 0.6464(3) 0.82321(34) 0.78677(12)
C20 C 0.5627(4) 0.7814(4) 0.78694(15)
C21 C 0.5178(4) 0.7589(4) 0.81744(16)
H10 H 0.4602 0.7301 0.8170
C22 C 0.4641(13) 0.7321(14) 0.7484(5)
H11 H 0.4490 0.7245 0.7256
H12 H 0.4315 0.6737 0.7590
O9 O 0.55919(13) 0.58952(17) 0.95706(5)
C23 C 0.54907(17) 0.64086(23) 0.97418(7)
C24 C 0.57560(17) 0.72281(23) 0.95832(7)
C25 C 0.61849(19) 0.74505(25) 0.92776(7)
H13 H 0.6319 0.7086 0.9174
H14 H 0.9018 0.9930 0.9077
O10 O 0.81477(12) 0.77646(11) 0.66366(5)
O11 O 0.77414(13) 0.69700(11) 0.70961(5)
C26 C 0.78426(17) 0.75846(15) 0.69249(7)
C27 C 0.75773(17) 0.81388(15) 0.70835(7)
C28 C 0.71484(19) 0.79323(17) 0.73891(7)
H15 H 0.7014 0.7434 0.7493
H16 H 0.4315 0.7579 0.7590
Cu4 Cu 0.523567(12) 0.476437(23) 0.972612(10)
Cu5 Cu 0.809766(12) 0.61954(2) 0.694055(10)
Cu7 Cu 0.856896(23) 0.71380(2) 0.639279(10)
O18 O 0.41048(17) 0.96967(11) 0.95706(5)
O10_2 O 0.22354(11) 0.03832(16) 0.66366(5)
O11_2 O 0.30300(11) 0.07715(17) 0.70961(5)
C26_2 C 0.24154(15) 0.02581(23) 0.69249(7)
Cu5_2 Cu 0.38046(2) 0.190230(23) 0.694055(10)
Cu7_2 Cu 0.28620(2) 0.143100(30) 0.639279(10)
Cu1_2 Cu 0.04713(2) 0.523563(23) 0.027388(10)
O1_2 O 0.10979(11) 0.62835(16) 0.00301(5)
O3_2 O 0.1219(3) 0.56094(33) 0.07159(9)
O15_2 O 0.10979(11) 0.48144(19) 0.00301(5)
O2_2 O 0.03033(11) 0.58952(17) 0.95706(5)
O4_2 O 0.09550(18) 0.90450(44) 0.91000(14)
C1_2 C 0.09179(15) 0.64086(23) 0.97418(7)
C2_2 C 0.14721(15) 0.72281(23) 0.95832(7)
C3_2 C 0.22218(12) 0.77778(23) 0.97377(9)
H1_2 H 0.2356 0.7645 0.9945
C4_2 C 0.12656(17) 0.74505(25) 0.92776(7)
H2_2 H 0.0767 0.7086 0.9174
C5_2 C 0.17934(14) 0.82064(33) 0.91267(10)
C6_2 C 0.22145(18) 0.77855(44) 0.84676(14)
H3_2 H 0.2369 0.7631 0.8665
C7_2 C 0.17722(13) 0.82282(33) 0.84891(11)
C8_2 C 0.15656(15) 0.84346(34) 0.87990(12)
C9_2 C 0.1147(2) 0.8853(4) 0.87973(15)
C10_2 C 0.0923(2) 0.9078(4) 0.84923(16)
H4_2 H 0.0635 0.9366 0.8497
C11_2 C 0.0654(6) 0.9346(14) 0.9183(5)
H5_2 H 0.0579 0.9422 0.9411
H6_2 H 0.0912 0.9930 0.9077
O7_2 O 0.23783(44) 0.76217(59) 0.75667(14)
C13_2 C 0.05614(23) 0.81388(29) 0.70835(7)
C14_2 C 0.11111(23) 0.88885(30) 0.69290(9)
H7_2 H 0.0978 0.9023 0.6722
C15_2 C 0.07838(25) 0.79323(31) 0.73891(7)
H8_2 H 0.0419 0.7434 0.7493
C16_2 C 0.15397(33) 0.84601(45) 0.75400(10)
C17_2 C 0.11188(44) 0.88812(59) 0.81991(14)
H9_2 H 0.0964 0.9036 0.8002
C18_2 C 0.15615(33) 0.84389(45) 0.81776(11)
C19_2 C 0.17679(34) 0.82323(45) 0.78677(12)
C20_2 C 0.2186(4) 0.7814(6) 0.78694(15)
C21_2 C 0.2411(4) 0.7590(6) 0.81744(16)
H10_2 H 0.2699 0.7302 0.8170
C22_2 C 0.2679(14) 0.7321(19) 0.7484(5)
H11_2 H 0.2755 0.7246 0.7256
H12_2 H 0.3263 0.7579 0.7590
C23_2 C 0.35914(23) 0.90821(29) 0.97418(7)
C24_2 C 0.27719(23) 0.85279(29) 0.95832(7)
C25_2 C 0.25495(25) 0.87344(31) 0.92776(7)
H13_2 H 0.2914 0.9233 0.9174
H14_2 H 0.0070 0.9088 0.9077
C27_2 C 0.18612(15) 0.94386(23) 0.70835(7)
C28_2 C 0.20677(17) 0.92162(25) 0.73891(7)
H15_2 H 0.2566 0.9581 0.7493
H16_2 H 0.2421 0.6737 0.7590
O18_2 O 0.03033(11) 0.44081(20) 0.95706(5)
O16_2 O 0.96967(11) 0.55919(20) 0.04294(5)
O17_2 O 0.96967(11) 0.41048(17) 0.04294(5)
O5_2 O 0.96168(16) 0.77646(20) 0.66366(5)
O6_2 O 0.92285(17) 0.69700(21) 0.70961(5)
C12_2 C 0.97419(23) 0.75846(29) 0.69249(7)
Cu2_2 Cu 0.95287(2) 0.476433(30) 0.972612(10)
O12_2 O 0.8781(3) 0.43904(45) 0.92841(9)
O13_2 O 0.89021(11) 0.51856(19) 0.99699(5)
O14_2 O 0.89021(11) 0.37165(16) 0.99699(5)
O1_3 O 0.37165(16) 0.48144(12) 0.00301(5)
O3_3 O 0.43906(33) 0.56096(13) 0.07159(9)
O16_3 O 0.44081(20) 0.41048(17) 0.04294(5)
O17_3 O 0.58952(17) 0.55919(13) 0.04294(5)
O2_3 O 0.41048(17) 0.44081(13) 0.95706(5)
O4_3 O 0.09550(44) 0.1910(4) 0.91000(14)
C1_3 C 0.35914(23) 0.45093(17) 0.97418(7)
C2_3 C 0.27719(23) 0.42440(17) 0.95832(7)
C3_3 C 0.22222(23) 0.4444(2) 0.97377(9)
H1_3 H 0.2355 0.4711 0.9945
C4_3 C 0.25495(25) 0.38151(19) 0.92776(7)
H2_3 H 0.2914 0.3681 0.9174
C5_3 C 0.17936(33) 0.3587(3) 0.91267(10)
C6_3 C 0.22145(44) 0.4429(4) 0.84676(14)
H3_3 H 0.2369 0.4738 0.8665
C7_3 C 0.17718(33) 0.3544(3) 0.84891(11)
C8_3 C 0.15654(34) 0.3131(3) 0.87990(12)
C9_3 C 0.1147(4) 0.2294(4) 0.87973(15)
C10_3 C 0.0922(4) 0.1845(4) 0.84923(16)
H4_3 H 0.0634 0.1269 0.8497
C11_3 C 0.0654(14) 0.1308(13) 0.9183(5)
H5_3 H 0.0578 0.1157 0.9411
H6_3 H 0.0070 0.0982 0.9077
O5_3 O 0.22354(20) 0.18523(12) 0.66366(5)
O6_3 O 0.30300(21) 0.22586(13) 0.70961(5)
O7_3 O 0.23783(59) 0.4757(4) 0.75667(14)
C12_3 C 0.24154(29) 0.21574(17) 0.69249(7)
C13_3 C 0.18612(29) 0.24227(17) 0.70835(7)
C14_3 C 0.11115(30) 0.2223(2) 0.69290(9)
H7_3 H 0.0977 0.1956 0.6722
C15_3 C 0.20677(31) 0.28516(19) 0.73891(7)
H8_3 H 0.2566 0.2986 0.7493
C16_3 C 0.15399(45) 0.3080(3) 0.75400(10)
C17_3 C 0.11188(59) 0.2238(4) 0.81991(14)
H9_3 H 0.0964 0.1929 0.8002
C18_3 C 0.15611(45) 0.3123(3) 0.81776(11)
C19_3 C 0.17677(45) 0.3536(3) 0.78677(12)
C20_3 C 0.2186(6) 0.4373(4) 0.78694(15)
C21_3 C 0.2410(6) 0.4822(4) 0.81744(16)
H10_3 H 0.2698 0.5398 0.8170
C22_3 C 0.2679(19) 0.5359(13) 0.7484(5)
H11_3 H 0.2754 0.5510 0.7256
H12_3 H 0.2421 0.5685 0.7590
C23_3 C 0.09179(29) 0.45093(17) 0.97418(7)
C24_3 C 0.14721(29) 0.42440(17) 0.95832(7)
C25_3 C 0.12656(31) 0.38151(19) 0.92776(7)
H13_3 H 0.0767 0.3681 0.9174
H14_3 H 0.0912 0.0982 0.9077
C27_3 C 0.05614(23) 0.24227(17) 0.70835(7)
C28_3 C 0.07838(25) 0.28516(19) 0.73891(7)
H15_3 H 0.0419 0.2986 0.7493
H16_3 H 0.3263 0.5685 0.7590
O12_3 O 0.56096(45) 0.43906(33) 0.92841(9)
O13_3 O 0.48144(19) 0.37165(16) 0.99699(5)
O14_3 O 0.62835(16) 0.51856(12) 0.99699(5)
O10_3 O 0.96168(16) 0.18523(12) 0.66366(5)
O11_3 O 0.92285(17) 0.22586(13) 0.70961(5)
C26_3 C 0.97419(23) 0.21574(17) 0.69249(7)
O5_4 O 0.03832(16) 0.81477(12) 0.33634(5)
O6_4 O 0.07715(17) 0.77414(13) 0.29039(5)
C12_4 C 0.02581(23) 0.78426(17) 0.30751(7)
Cu6_2 Cu 0.190234(12) 0.809770(23) 0.305945(10)
Cu8_2 Cu 0.143104(23) 0.856900(12) 0.360721(10)
O4_4 O 0.90450(18) 0.8090(4) 0.09000(14)
C1_4 C 0.90821(15) 0.54907(17) 0.02582(7)
C2_4 C 0.85279(15) 0.57560(17) 0.04168(7)
C3_4 C 0.77782(12) 0.5556(2) 0.02623(9)
H1_4 H 0.7644 0.5289 0.0055
C4_4 C 0.87344(17) 0.61849(19) 0.07224(7)
H2_4 H 0.9233 0.6319 0.0826
C5_4 C 0.82066(14) 0.6413(3) 0.08733(10)
C6_4 C 0.77855(18) 0.5571(4) 0.15324(14)
H3_4 H 0.7631 0.5262 0.1335
C7_4 C 0.82278(13) 0.6456(3) 0.15109(11)
C8_4 C 0.84344(15) 0.6869(3) 0.12010(12)
C9_4 C 0.8853(2) 0.7706(4) 0.12027(15)
C10_4 C 0.9077(2) 0.8155(4) 0.15077(16)
H4_4 H 0.9365 0.8731 0.1503
C11_4 C 0.9346(6) 0.8692(13) 0.0817(5)
H5_4 H 0.9421 0.8843 0.0589
H6_4 H 0.9088 0.9018 0.0923
O7_4 O 0.76217(44) 0.5243(4) 0.24333(14)
C13_4 C 0.94386(23) 0.75773(17) 0.29165(7)
C14_4 C 0.88889(23) 0.7777(2) 0.30710(9)
H7_4 H 0.9022 0.8044 0.3278
C15_4 C 0.92162(25) 0.71484(19) 0.26109(7)
H8_4 H 0.9581 0.7014 0.2507
C16_4 C 0.84603(33) 0.6920(3) 0.24600(10)
C17_4 C 0.88812(44) 0.7762(4) 0.18009(14)
H9_4 H 0.9036 0.8071 0.1998
C18_4 C 0.84385(33) 0.6877(3) 0.18224(11)
C19_4 C 0.82321(34) 0.6464(3) 0.21323(12)
C20_4 C 0.7814(4) 0.5627(4) 0.21306(15)
C21_4 C 0.7589(4) 0.5178(4) 0.18256(16)
H10_4 H 0.7301 0.4602 0.1830
C22_4 C 0.7321(14) 0.4641(13) 0.2516(5)
H11_4 H 0.7245 0.4490 0.2744
H12_4 H 0.6737 0.4315 0.2410
C23_4 C 0.64086(23) 0.54907(17) 0.02582(7)
C24_4 C 0.72281(23) 0.57560(17) 0.04168(7)
C25_4 C 0.74505(25) 0.61849(19) 0.07224(7)
H13_4 H 0.7086 0.6319 0.0826
H14_4 H 0.9930 0.9018 0.0923
O10_4 O 0.77646(11) 0.81477(12) 0.33634(5)
O11_4 O 0.69700(11) 0.77414(13) 0.29039(5)
C26_4 C 0.75846(15) 0.78426(17) 0.30751(7)
C27_4 C 0.81388(15) 0.75773(17) 0.29165(7)
C28_4 C 0.79323(17) 0.71484(19) 0.26109(7)
H15_4 H 0.7434 0.7014 0.2507
H16_4 H 0.7579 0.4315 0.2410
Cu5_3 Cu 0.61954(2) 0.809766(12) 0.305945(10)
Cu7_3 Cu 0.71380(2) 0.856896(23) 0.360721(10)
O10_5 O 0.03832(16) 0.22354(11) 0.33634(5)
O11_5 O 0.07715(17) 0.30300(11) 0.29039(5)
C26_5 C 0.02581(23) 0.24154(15) 0.30751(7)
Cu5_4 Cu 0.190230(23) 0.38046(2) 0.305945(10)
Cu7_4 Cu 0.143100(30) 0.28620(2) 0.360721(10)
O4_5 O 0.90450(44) 0.09550(18) 0.09000(14)
C1_5 C 0.64086(23) 0.09179(15) 0.02582(7)
C2_5 C 0.72281(23) 0.14721(15) 0.04168(7)
C3_5 C 0.77778(23) 0.22218(12) 0.02623(9)
H1_5 H 0.7645 0.2356 0.0055
C4_5 C 0.74505(25) 0.12656(17) 0.07224(7)
H2_5 H 0.7086 0.0767 0.0826
C5_5 C 0.82064(33) 0.17934(14) 0.08733(10)
C6_5 C 0.77855(44) 0.22145(18) 0.15324(14)
H3_5 H 0.7631 0.2369 0.1335
C7_5 C 0.82282(33) 0.17722(13) 0.15109(11)
C8_5 C 0.84346(34) 0.15656(15) 0.12010(12)
C9_5 C 0.8853(4) 0.1147(2) 0.12027(15)
C10_5 C 0.9078(4) 0.0923(2) 0.15077(16)
H4_5 H 0.9366 0.0635 0.1503
C11_5 C 0.9346(14) 0.0654(6) 0.0817(5)
H5_5 H 0.9422 0.0579 0.0589
H6_5 H 0.9930 0.0912 0.0923
O7_5 O 0.76217(59) 0.23783(44) 0.24333(14)
C13_5 C 0.81388(29) 0.05614(23) 0.29165(7)
C14_5 C 0.88885(30) 0.11111(23) 0.30710(9)
H7_5 H 0.9023 0.0978 0.3278
C15_5 C 0.79323(31) 0.07838(25) 0.26109(7)
H8_5 H 0.7434 0.0419 0.2507
C16_5 C 0.84601(45) 0.15397(33) 0.24600(10)
C17_5 C 0.88812(59) 0.11188(44) 0.18009(14)
H9_5 H 0.9036 0.0964 0.1998
C18_5 C 0.84389(45) 0.15615(33) 0.18224(11)
C19_5 C 0.82323(45) 0.17679(34) 0.21323(12)
C20_5 C 0.7814(6) 0.2186(4) 0.21306(15)
C21_5 C 0.7590(6) 0.2411(4) 0.18256(16)
H10_5 H 0.7302 0.2699 0.1830
C22_5 C 0.7321(19) 0.2679(14) 0.2516(5)
H11_5 H 0.7246 0.2755 0.2744
H12_5 H 0.7579 0.3263 0.2410
C23_5 C 0.90821(29) 0.35914(23) 0.02582(7)
C24_5 C 0.85279(29) 0.27719(23) 0.04168(7)
C25_5 C 0.87344(31) 0.25495(25) 0.07224(7)
H13_5 H 0.9233 0.2914 0.0826
H14_5 H 0.9088 0.0070 0.0923
C27_5 C 0.94386(23) 0.18612(15) 0.29165(7)
C28_5 C 0.92162(25) 0.20677(17) 0.26109(7)
H15_5 H 0.9581 0.2566 0.2507
H16_5 H 0.6737 0.2421 0.2410
O5_5 O 0.77646(20) 0.96168(16) 0.33634(5)
O6_5 O 0.69700(21) 0.92285(17) 0.29039(5)
C12_5 C 0.75846(29) 0.97419(23) 0.30751(7)
O4_6 O 0.1910(4) 0.09550(44) 0.09000(14)
C1_6 C 0.45093(17) 0.35914(23) 0.02582(7)
C2_6 C 0.42440(17) 0.27719(23) 0.04168(7)
C3_6 C 0.4444(2) 0.22222(23) 0.02623(9)
H1_6 H 0.4711 0.2355 0.0055
C4_6 C 0.38151(19) 0.25495(25) 0.07224(7)
H2_6 H 0.3681 0.2914 0.0826
C5_6 C 0.3587(3) 0.17936(33) 0.08733(10)
C6_6 C 0.4429(4) 0.22145(44) 0.15324(14)
H3_6 H 0.4738 0.2369 0.1335
C7_6 C 0.3544(3) 0.17718(33) 0.15109(11)
C8_6 C 0.3131(3) 0.15654(34) 0.12010(12)
C9_6 C 0.2294(4) 0.1147(4) 0.12027(15)
C10_6 C 0.1845(4) 0.0922(4) 0.15077(16)
H4_6 H 0.1269 0.0634 0.1503
C11_6 C 0.1308(13) 0.0654(14) 0.0817(5)
H5_6 H 0.1157 0.0578 0.0589
H6_6 H 0.0982 0.0070 0.0923
O5_6 O 0.18523(12) 0.22354(20) 0.33634(5)
O6_6 O 0.22586(13) 0.30300(21) 0.29039(5)
O7_6 O 0.4757(4) 0.23783(59) 0.24333(14)
C12_6 C 0.21574(17) 0.24154(29) 0.30751(7)
C13_6 C 0.24227(17) 0.18612(29) 0.29165(7)
C14_6 C 0.2223(2) 0.11115(30) 0.30710(9)
H7_6 H 0.1956 0.0977 0.3278
C15_6 C 0.28516(19) 0.20677(31) 0.26109(7)
H8_6 H 0.2986 0.2566 0.2507
C16_6 C 0.3080(3) 0.15399(45) 0.24600(10)
C17_6 C 0.2238(4) 0.11188(59) 0.18009(14)
H9_6 H 0.1929 0.0964 0.1998
C18_6 C 0.3123(3) 0.15611(45) 0.18224(11)
C19_6 C 0.3536(3) 0.17677(45) 0.21323(12)
C20_6 C 0.4373(4) 0.2186(6) 0.21306(15)
C21_6 C 0.4822(4) 0.2410(6) 0.18256(16)
H10_6 H 0.5398 0.2698 0.1830
C22_6 C 0.5359(13) 0.2679(19) 0.2516(5)
H11_6 H 0.5510 0.2754 0.2744
H12_6 H 0.5685 0.2421 0.2410
C23_6 C 0.45093(17) 0.09179(29) 0.02582(7)
C24_6 C 0.42440(17) 0.14721(29) 0.04168(7)
C25_6 C 0.38151(19) 0.12656(31) 0.07224(7)
H13_6 H 0.3681 0.0767 0.0826
H14_6 H 0.0982 0.0912 0.0923
C27_6 C 0.24227(17) 0.05614(23) 0.29165(7)
C28_6 C 0.28516(19) 0.07838(25) 0.26109(7)
H15_6 H 0.2986 0.0419 0.2507
H16_6 H 0.5685 0.3263 0.2410
O10_6 O 0.18523(12) 0.96168(16) 0.33634(5)
O11_6 O 0.22586(13) 0.92285(17) 0.29039(5)
C26_6 C 0.21574(17) 0.97419(23) 0.30751(7)
O3_4 O 0.10571(13) 0.2114(3) 0.40492(9)
O12_4 O 0.22761(33) 0.4552(3) 0.26174(9)
O13_4 O 0.29502(16) 0.44312(11) 0.33032(5)
O14_4 O 0.14811(12) 0.44312(11) 0.33032(5)
O16_4 O 0.25619(17) 0.36366(11) 0.37627(5)
O17_4 O 0.10748(13) 0.36366(11) 0.37627(5)
O3_5 O 0.7886(3) 0.89427(33) 0.40492(9)
O12_5 O 0.5448(3) 0.77237(45) 0.26174(9)
O13_5 O 0.55688(11) 0.85189(19) 0.33032(5)
O14_5 O 0.55688(11) 0.70498(16) 0.33032(5)
O16_5 O 0.63634(11) 0.89252(20) 0.37627(5)
O17_5 O 0.63634(11) 0.74381(17) 0.37627(5)
O3_6 O 0.10573(33) 0.89429(13) 0.40492(9)
O12_6 O 0.22763(45) 0.77239(33) 0.26174(9)
O13_6 O 0.14811(19) 0.70498(16) 0.33032(5)
O14_6 O 0.29502(16) 0.85189(12) 0.33032(5)
O16_6 O 0.10748(20) 0.74381(17) 0.37627(5)
O17_6 O 0.25619(17) 0.89252(13) 0.37627(5)
O4_7 O 0.57117(18) 0.1423(4) 0.42333(14)
C8_7 C 0.51011(15) 0.0202(3) 0.45343(12)
C9_7 C 0.5520(2) 0.1039(4) 0.45360(15)
C10_7 C 0.5744(2) 0.1488(4) 0.48410(16)
H4_7 H 0.6032 0.2064 0.4836
C11_7 C 0.6013(6) 0.2025(13) 0.4150(5)
H5_7 H 0.6088 0.2176 0.3922
H6_7 H 0.5755 0.2351 0.4256
O5_7 O 0.70498(16) 0.14811(12) 0.66968(5)
O6_7 O 0.74381(17) 0.10748(13) 0.62373(5)
C12_7 C 0.69247(23) 0.11760(17) 0.64085(7)
C13_7 C 0.61052(23) 0.09107(17) 0.62499(7)
C14_7 C 0.55555(23) 0.1111(2) 0.64044(9)
H7_7 H 0.5688 0.1378 0.6612
C15_7 C 0.58828(25) 0.04818(19) 0.59443(7)
H8_7 H 0.6247 0.0348 0.5841
C16_7 C 0.51269(33) 0.0254(3) 0.57934(10)
C17_7 C 0.55478(44) 0.1096(4) 0.51343(14)
H9_7 H 0.5702 0.1405 0.5332
C18_7 C 0.51051(33) 0.0211(3) 0.51558(11)
H14_7 H 0.6597 0.2351 0.4256
O10_7 O 0.44312(11) 0.14811(12) 0.66968(5)
O11_7 O 0.36366(11) 0.10748(13) 0.62373(5)
C26_7 C 0.42512(15) 0.11760(17) 0.64085(7)
C27_7 C 0.48054(15) 0.09107(17) 0.62499(7)
C28_7 C 0.45989(17) 0.04818(19) 0.59443(7)
H15_7 H 0.4100 0.0348 0.5841
C1_7 C 0.57488(15) 0.88240(17) 0.35915(7)
C2_7 C 0.51946(15) 0.90893(17) 0.37501(7)
C3_7 C 0.44449(12) 0.8889(2) 0.35956(9)
H1_7 H 0.4311 0.8622 0.3388
C4_7 C 0.54011(17) 0.95182(19) 0.40557(7)
H2_7 H 0.5900 0.9652 0.4159
C5_7 C 0.48733(14) 0.9746(3) 0.42066(10)
C6_7 C 0.44522(18) 0.8904(4) 0.48657(14)
H3_7 H 0.4298 0.8595 0.4668
C7_7 C 0.48945(13) 0.9789(3) 0.48442(11)
O7_7 O 0.42883(44) 0.8577(4) 0.57667(14)
C19_7 C 0.48987(34) 0.9798(3) 0.54657(12)
C20_7 C 0.4480(4) 0.8961(4) 0.54640(15)
C21_7 C 0.4255(4) 0.8512(4) 0.51590(16)
H10_7 H 0.3967 0.7936 0.5164
C22_7 C 0.3987(14) 0.7975(13) 0.5850(5)
H11_7 H 0.3911 0.7824 0.6078
H12_7 H 0.3403 0.7649 0.5744
C23_7 C 0.30753(23) 0.88240(17) 0.35915(7)
C24_7 C 0.38948(23) 0.90893(17) 0.37501(7)
C25_7 C 0.41172(25) 0.95182(19) 0.40557(7)
H13_7 H 0.3753 0.9652 0.4159
H16_7 H 0.4245 0.7649 0.5744
O4_8 O 0.57117(44) 0.42883(18) 0.42333(14)
C1_8 C 0.30753(23) 0.42512(15) 0.35915(7)
C2_8 C 0.38948(23) 0.48054(15) 0.37501(7)
C3_8 C 0.44445(23) 0.55551(12) 0.35956(9)
H1_8 H 0.4312 0.5689 0.3388
C4_8 C 0.41172(25) 0.45989(17) 0.40557(7)
H2_8 H 0.3753 0.4100 0.4159
C5_8 C 0.48731(33) 0.51267(14) 0.42066(10)
C6_8 C 0.44522(44) 0.55478(18) 0.48657(14)
H3_8 H 0.4298 0.5702 0.4668
C7_8 C 0.48949(33) 0.51055(13) 0.48442(11)
C8_8 C 0.51013(34) 0.48989(15) 0.45343(12)
C9_8 C 0.5520(4) 0.4480(2) 0.45360(15)
C10_8 C 0.5745(4) 0.4256(2) 0.48410(16)
H4_8 H 0.6033 0.3968 0.4836
C11_8 C 0.6013(14) 0.3987(6) 0.4150(5)
H5_8 H 0.6089 0.3912 0.3922
H6_8 H 0.6597 0.4245 0.4256
O5_8 O 0.44312(20) 0.29502(16) 0.66968(5)
O6_8 O 0.36366(21) 0.25619(17) 0.62373(5)
O7_8 O 0.42883(59) 0.57117(44) 0.57667(14)
C12_8 C 0.42512(29) 0.30753(23) 0.64085(7)
C13_8 C 0.48054(29) 0.38948(23) 0.62499(7)
C14_8 C 0.55551(30) 0.44445(23) 0.64044(9)
H7_8 H 0.5689 0.4312 0.6612
C15_8 C 0.45989(31) 0.41172(25) 0.59443(7)
H8_8 H 0.4100 0.3753 0.5841
C16_8 C 0.51267(45) 0.48731(33) 0.57934(10)
C17_8 C 0.55478(59) 0.44522(44) 0.51343(14)
H9_8 H 0.5702 0.4298 0.5332
C18_8 C 0.51055(45) 0.48949(33) 0.51558(11)
C19_8 C 0.48989(45) 0.51013(34) 0.54657(12)
C20_8 C 0.4480(6) 0.5520(4) 0.54640(15)
C21_8 C 0.4256(6) 0.5745(4) 0.51590(16)
H10_8 H 0.3968 0.6033 0.5164
C22_8 C 0.3987(19) 0.6013(14) 0.5850(5)
H11_8 H 0.3912 0.6089 0.6078
H12_8 H 0.4245 0.6597 0.5744
C23_8 C 0.57488(29) 0.69247(23) 0.35915(7)
C24_8 C 0.51946(29) 0.61052(23) 0.37501(7)
C25_8 C 0.54011(31) 0.58828(25) 0.40557(7)
H13_8 H 0.5900 0.6247 0.4159
H14_8 H 0.5755 0.3403 0.4256
O10_8 O 0.70498(16) 0.55688(11) 0.66968(5)
O11_8 O 0.74381(17) 0.63634(11) 0.62373(5)
C26_8 C 0.69247(23) 0.57488(15) 0.64085(7)
C27_8 C 0.61052(23) 0.51946(15) 0.62499(7)
C28_8 C 0.58828(25) 0.54011(17) 0.59443(7)
H15_8 H 0.6247 0.5900 0.5841
H16_8 H 0.3403 0.5755 0.5744
C1_9 C 0.11760(17) 0.69247(23) 0.35915(7)
C2_9 C 0.09107(17) 0.61052(23) 0.37501(7)
C3_9 C 0.1111(2) 0.55555(23) 0.35956(9)
H1_9 H 0.1378 0.5688 0.3388
C4_9 C 0.04818(19) 0.58828(25) 0.40557(7)
H2_9 H 0.0348 0.6247 0.4159
C5_9 C 0.0254(3) 0.51269(33) 0.42066(10)
C6_9 C 0.1096(4) 0.55478(44) 0.48657(14)
H3_9 H 0.1405 0.5702 0.4668
C7_9 C 0.0211(3) 0.51051(33) 0.48442(11)
O7_9 O 0.1423(4) 0.57117(59) 0.57667(14)
C19_9 C 0.0202(3) 0.51011(45) 0.54657(12)
C20_9 C 0.1039(4) 0.5520(6) 0.54640(15)
C21_9 C 0.1488(4) 0.5744(6) 0.51590(16)
H10_9 H 0.2064 0.6032 0.5164
C22_9 C 0.2025(13) 0.6013(19) 0.5850(5)
H11_9 H 0.2176 0.6088 0.6078
H12_9 H 0.2351 0.5755 0.5744
C23_9 C 0.11760(17) 0.42512(29) 0.35915(7)
C24_9 C 0.09107(17) 0.48054(29) 0.37501(7)
C25_9 C 0.04818(19) 0.45989(31) 0.40557(7)
H13_9 H 0.0348 0.4100 0.4159
H16_9 H 0.2351 0.6597 0.5744
O4_9 O 0.8577(4) 0.42883(44) 0.42333(14)
C8_9 C 0.9798(3) 0.48987(34) 0.45343(12)
C9_9 C 0.8961(4) 0.4480(4) 0.45360(15)
C10_9 C 0.8512(4) 0.4255(4) 0.48410(16)
H4_9 H 0.7936 0.3967 0.4836
C11_9 C 0.7975(13) 0.3987(14) 0.4150(5)
H5_9 H 0.7824 0.3911 0.3922
H6_9 H 0.7649 0.3403 0.4256
O5_9 O 0.85189(12) 0.55688(20) 0.66968(5)
O6_9 O 0.89252(13) 0.63634(21) 0.62373(5)
C12_9 C 0.88240(17) 0.57488(29) 0.64085(7)
C13_9 C 0.90893(17) 0.51946(29) 0.62499(7)
C14_9 C 0.8889(2) 0.44449(30) 0.64044(9)
H7_9 H 0.8622 0.4311 0.6612
C15_9 C 0.95182(19) 0.54011(31) 0.59443(7)
H8_9 H 0.9652 0.5900 0.5841
C16_9 C 0.9746(3) 0.48733(45) 0.57934(10)
C17_9 C 0.8904(4) 0.44522(59) 0.51343(14)
H9_9 H 0.8595 0.4298 0.5332
C18_9 C 0.9789(3) 0.48945(45) 0.51558(11)
H14_9 H 0.7649 0.4245 0.4256
O10_9 O 0.85189(12) 0.29502(16) 0.66968(5)
O11_9 O 0.89252(13) 0.25619(17) 0.62373(5)
C26_9 C 0.88240(17) 0.30753(23) 0.64085(7)
C27_9 C 0.90893(17) 0.38948(23) 0.62499(7)
C28_9 C 0.95182(19) 0.41172(25) 0.59443(7)
H15_9 H 0.9652 0.3753 0.5841
O3_7 O 0.77237(13) 0.5448(3) 0.73826(9)
O12_7 O 0.89427(33) 0.7886(3) 0.59508(9)
O3_8 O 0.4552(3) 0.22761(33) 0.73826(9)
O12_8 O 0.2114(3) 0.10571(45) 0.59508(9)
O3_9 O 0.77239(33) 0.22763(13) 0.73826(9)
O12_9 O 0.89429(45) 0.10573(33) 0.59508(9)
loop_
_geom_bond_atom_site_label_1
_geom_bond_atom_site_label_2
_geom_bond_site_symmetry_1
_geom_bond_site_symmetry_2
O5 C12 1_555 1_555
O6 C12 1_555 1_555
O12 Cu2 1_555 1_555
Cu6 O6 1_555 1_555
Cu8 O5 1_555 1_555
O13 Cu2 1_555 1_555
O14 Cu2 1_555 1_555
Cu6 Cu8 1_555 1_555
Cu1 O1 1_555 1_555
O3 Cu1 1_555 1_555
Cu3 O8 1_555 1_555
O15 Cu1 1_555 1_555
O2 C1 1_555 1_555
O4 C9 1_555 1_555
C1 C2 1_555 1_555
C2 C3 1_555 1_555
C3 H1 1_555 1_555
C4 C2 1_555 1_555
H2 C4 1_555 1_555
C5 C4 1_555 1_555
C6 H3 1_555 1_555
C7 C6 1_555 1_555
C8 C5 1_555 1_555
C9 C8 1_555 1_555
C10 C9 1_555 1_555
H4 C10 1_555 1_555
C11 O4 1_555 1_555
H5 C11 1_555 1_555
H6 C11 1_555 1_555
O7 C20 1_555 1_555
C13 C14 1_555 1_555
C14 H7 1_555 1_555
C15 C13 1_555 1_555
H8 C15 1_555 1_555
C16 C15 1_555 1_555
C17 C10 1_555 1_555
H9 C17 1_555 1_555
C18 C7 1_555 1_555
C19 C16 1_555 1_555
C20 C19 1_555 1_555
C21 C6 1_555 1_555
H10 C21 1_555 1_555
C22 O7 1_555 1_555
H11 C22 1_555 1_555
H12 C22 1_555 1_555
O9 C23 1_555 1_555
C23 C24 1_555 1_555
C24 C3 1_555 1_555
C25 C5 1_555 1_555
H13 C25 1_555 1_555
H14 C11 1_555 1_555
O10 C26 1_555 1_555
O11 C26 1_555 1_555
C26 C27 1_555 1_555
C27 C14 1_555 1_555
C28 C16 1_555 1_555
H15 C28 1_555 1_555
H16 C22 1_555 1_555
Cu4 O9 1_555 1_555
Cu5 O11 1_555 1_555
Cu7 O10 1_555 1_555
C7 C8 1_555 1_555
C17 C18 1_555 1_555
C18 C19 1_555 1_555
C20 C21 1_555 1_555
C24 C25 1_555 1_555
C27 C28 1_555 1_555
Cu5 Cu7 1_555 1_555
O10_2 C26_2 1_555 1_555
O11_2 C26_2 1_555 1_555
Cu5_2 O11_2 1_555 1_555
Cu7_2 O10_2 1_555 1_555
Cu5_2 Cu7_2 1_555 1_555
Cu1_2 O1_2 1_555 1_555
O3_2 Cu1_2 1_555 1_555
O15_2 Cu1_2 1_555 1_555
O2_2 C1_2 1_555 1_555
O4_2 C9_2 1_555 1_555
C1_2 C2_2 1_555 1_555
C2_2 C3_2 1_555 1_555
C3_2 H1_2 1_555 1_555
C4_2 C2_2 1_555 1_555
H2_2 C4_2 1_555 1_555
C5_2 C4_2 1_555 1_555
C6_2 H3_2 1_555 1_555
C7_2 C6_2 1_555 1_555
C8_2 C5_2 1_555 1_555
C9_2 C8_2 1_555 1_555
C10_2 C9_2 1_555 1_555
H4_2 C10_2 1_555 1_555
C11_2 O4_2 1_555 1_555
H5_2 C11_2 1_555 1_555
H6_2 C11_2 1_555 1_555
O7_2 C20_2 1_555 1_555
C13_2 C14_2 1_555 1_555
C14_2 H7_2 1_555 1_555
C15_2 C13_2 1_555 1_555
H8_2 C15_2 1_555 1_555
C16_2 C15_2 1_555 1_555
C17_2 C10_2 1_555 1_555
H9_2 C17_2 1_555 1_555
C18_2 C7_2 1_555 1_555
C19_2 C16_2 1_555 1_555
C20_2 C19_2 1_555 1_555
C21_2 C6_2 1_555 1_555
H10_2 C21_2 1_555 1_555
C22_2 O7_2 1_555 1_555
H11_2 C22_2 1_555 1_555
H12_2 C22_2 1_555 1_555
O18 C23_2 1_555 1_555
C23_2 C24_2 1_555 1_555
C24_2 C3_2 1_555 1_555
C25_2 C5_2 1_555 1_555
H13_2 C25_2 1_555 1_555
H14_2 C11_2 1_555 1_555
C27_2 C14_2 1_555 1_555
C28_2 C16_2 1_555 1_555
H15_2 C28_2 1_555 1_555
H16_2 C22_2 1_555 1_555
C7_2 C8_2 1_555 1_555
C17_2 C18_2 1_555 1_555
C18_2 C19_2 1_555 1_555
C20_2 C21_2 1_555 1_555
C24_2 C25_2 1_555 1_555
C27_2 C28_2 1_555 1_555
O5_2 C12_2 1_555 1_555
O6_2 C12_2 1_555 1_555
O12_2 Cu2_2 1_555 1_555
Cu5 O6_2 1_555 1_555
Cu7 O5_2 1_555 1_555
O13_2 Cu2_2 1_555 1_555
O14_2 Cu2_2 1_555 1_555
Cu3 O1_3 1_555 1_555
O3_3 Cu3 1_555 1_555
O16_3 Cu3 1_555 1_555
O17_3 Cu3 1_555 1_555
O2_3 C1_3 1_555 1_555
O4_3 C9_3 1_555 1_555
C1_3 C2_3 1_555 1_555
C2_3 C3_3 1_555 1_555
C3_3 H1_3 1_555 1_555
C4_3 C2_3 1_555 1_555
H2_3 C4_3 1_555 1_555
C5_3 C4_3 1_555 1_555
C6_3 H3_3 1_555 1_555
C7_3 C6_3 1_555 1_555
C8_3 C5_3 1_555 1_555
C9_3 C8_3 1_555 1_555
C10_3 C9_3 1_555 1_555
H4_3 C10_3 1_555 1_555
C11_3 O4_3 1_555 1_555
H5_3 C11_3 1_555 1_555
H6_3 C11_3 1_555 1_555
O5_3 C12_3 1_555 1_555
O6_3 C12_3 1_555 1_555
O7_3 C20_3 1_555 1_555
C12_3 C13_3 1_555 1_555
C13_3 C14_3 1_555 1_555
C14_3 H7_3 1_555 1_555
C15_3 C13_3 1_555 1_555
H8_3 C15_3 1_555 1_555
C16_3 C15_3 1_555 1_555
C17_3 C10_3 1_555 1_555
H9_3 C17_3 1_555 1_555
C18_3 C7_3 1_555 1_555
C19_3 C16_3 1_555 1_555
C20_3 C19_3 1_555 1_555
C21_3 C6_3 1_555 1_555
H10_3 C21_3 1_555 1_555
C22_3 O7_3 1_555 1_555
H11_3 C22_3 1_555 1_555
H12_3 C22_3 1_555 1_555
O18_2 C23_3 1_555 1_555
C23_3 C24_3 1_555 1_555
C24_3 C3_3 1_555 1_555
C25_3 C5_3 1_555 1_555
H13_3 C25_3 1_555 1_555
H14_3 C11_3 1_555 1_555
C27_3 C14_3 1_555 1_555
C28_3 C16_3 1_555 1_555
H15_3 C28_3 1_555 1_555
H16_3 C22_3 1_555 1_555
O12_3 Cu4 1_555 1_555
Cu5_2 O6_3 1_555 1_555
Cu7_2 O5_3 1_555 1_555
O13_3 Cu4 1_555 1_555
O14_3 Cu4 1_555 1_555
O2_3 Cu4 1_555 1_555
C7_3 C8_3 1_555 1_555
C17_3 C18_3 1_555 1_555
C18_3 C19_3 1_555 1_555
C20_3 C21_3 1_555 1_555
C24_3 C25_3 1_555 1_555
C27_3 C28_3 1_555 1_555
O10_3 C26_3 1_555 1_555
O11_3 C26_3 1_555 1_555
Cu6 O11_3 1_555 1_555
Cu8 O10_3 1_555 1_555
O5_4 C12_4 1_555 1_555
O6_4 C12_4 1_555 1_555
Cu6_2 O6_4 1_555 1_555
Cu8_2 O5_4 1_555 1_555
Cu6_2 Cu8_2 1_555 1_555
O16_2 C1_4 1_555 1_555
O4_4 C9_4 1_555 1_555
C1_4 C2_4 1_555 1_555
C2_4 C3_4 1_555 1_555
C3_4 H1_4 1_555 1_555
C4_4 C2_4 1_555 1_555
H2_4 C4_4 1_555 1_555
C5_4 C4_4 1_555 1_555
C6_4 H3_4 1_555 1_555
C7_4 C6_4 1_555 1_555
C8_4 C5_4 1_555 1_555
C9_4 C8_4 1_555 1_555
C10_4 C9_4 1_555 1_555
H4_4 C10_4 1_555 1_555
C11_4 O4_4 1_555 1_555
H5_4 C11_4 1_555 1_555
H6_4 C11_4 1_555 1_555
O7_4 C20_4 1_555 1_555
C13_4 C14_4 1_555 1_555
C14_4 H7_4 1_555 1_555
C15_4 C13_4 1_555 1_555
H8_4 C15_4 1_555 1_555
C16_4 C15_4 1_555 1_555
C17_4 C10_4 1_555 1_555
H9_4 C17_4 1_555 1_555
C18_4 C7_4 1_555 1_555
C19_4 C16_4 1_555 1_555
C20_4 C19_4 1_555 1_555
C21_4 C6_4 1_555 1_555
H10_4 C21_4 1_555 1_555
C22_4 O7_4 1_555 1_555
H11_4 C22_4 1_555 1_555
H12_4 C22_4 1_555 1_555
O17_3 C23_4 1_555 1_555
C23_4 C24_4 1_555 1_555
C24_4 C3_4 1_555 1_555
C25_4 C5_4 1_555 1_555
H13_4 C25_4 1_555 1_555
H14_4 C11_4 1_555 1_555
O10_4 C26_4 1_555 1_555
O11_4 C26_4 1_555 1_555
C26_4 C27_4 1_555 1_555
C27_4 C14_4 1_555 1_555
C28_4 C16_4 1_555 1_555
H15_4 C28_4 1_555 1_555
H16_4 C22_4 1_555 1_555
Cu5_3 O11_4 1_555 1_555
Cu7_3 O10_4 1_555 1_555
C7_4 C8_4 1_555 1_555
C17_4 C18_4 1_555 1_555
C18_4 C19_4 1_555 1_555
C20_4 C21_4 1_555 1_555
C24_4 C25_4 1_555 1_555
C27_4 C28_4 1_555 1_555
Cu5_3 Cu7_3 1_555 1_555
O10_5 C26_5 1_555 1_555
O11_5 C26_5 1_555 1_555
Cu5_4 O11_5 1_555 1_555
Cu7_4 O10_5 1_555 1_555
Cu5_4 Cu7_4 1_555 1_555
O16 C1_5 1_555 1_555
O4_5 C9_5 1_555 1_555
C1_5 C2_5 1_555 1_555
C2_5 C3_5 1_555 1_555
C3_5 H1_5 1_555 1_555
C4_5 C2_5 1_555 1_555
H2_5 C4_5 1_555 1_555
C5_5 C4_5 1_555 1_555
C6_5 H3_5 1_555 1_555
C7_5 C6_5 1_555 1_555
C8_5 C5_5 1_555 1_555
C9_5 C8_5 1_555 1_555
C10_5 C9_5 1_555 1_555
H4_5 C10_5 1_555 1_555
C11_5 O4_5 1_555 1_555
H5_5 C11_5 1_555 1_555
H6_5 C11_5 1_555 1_555
O7_5 C20_5 1_555 1_555
C13_5 C14_5 1_555 1_555
C14_5 H7_5 1_555 1_555
C15_5 C13_5 1_555 1_555
H8_5 C15_5 1_555 1_555
C16_5 C15_5 1_555 1_555
C17_5 C10_5 1_555 1_555
H9_5 C17_5 1_555 1_555
C18_5 C7_5 1_555 1_555
C19_5 C16_5 1_555 1_555
C20_5 C19_5 1_555 1_555
C21_5 C6_5 1_555 1_555
H10_5 C21_5 1_555 1_555
C22_5 O7_5 1_555 1_555
H11_5 C22_5 1_555 1_555
H12_5 C22_5 1_555 1_555
O17_2 C23_5 1_555 1_555
C23_5 C24_5 1_555 1_555
C24_5 C3_5 1_555 1_555
C25_5 C5_5 1_555 1_555
H13_5 C25_5 1_555 1_555
H14_5 C11_5 1_555 1_555
C27_5 C14_5 1_555 1_555
C28_5 C16_5 1_555 1_555
H15_5 C28_5 1_555 1_555
H16_5 C22_5 1_555 1_555
C7_5 C8_5 1_555 1_555
C17_5 C18_5 1_555 1_555
C18_5 C19_5 1_555 1_555
C20_5 C21_5 1_555 1_555
C24_5 C25_5 1_555 1_555
C27_5 C28_5 1_555 1_555
O5_5 C12_5 1_555 1_555
O6_5 C12_5 1_555 1_555
Cu5_3 O6_5 1_555 1_555
Cu7_3 O5_5 1_555 1_555
O16_3 C1_6 1_555 1_555
O4_6 C9_6 1_555 1_555
C1_6 C2_6 1_555 1_555
C2_6 C3_6 1_555 1_555
C3_6 H1_6 1_555 1_555
C4_6 C2_6 1_555 1_555
H2_6 C4_6 1_555 1_555
C5_6 C4_6 1_555 1_555
C6_6 H3_6 1_555 1_555
C7_6 C6_6 1_555 1_555
C8_6 C5_6 1_555 1_555
C9_6 C8_6 1_555 1_555
C10_6 C9_6 1_555 1_555
H4_6 C10_6 1_555 1_555
C11_6 O4_6 1_555 1_555
H5_6 C11_6 1_555 1_555
H6_6 C11_6 1_555 1_555
O5_6 C12_6 1_555 1_555
O6_6 C12_6 1_555 1_555
O7_6 C20_6 1_555 1_555
C12_6 C13_6 1_555 1_555
C13_6 C14_6 1_555 1_555
C14_6 H7_6 1_555 1_555
C15_6 C13_6 1_555 1_555
H8_6 C15_6 1_555 1_555
C16_6 C15_6 1_555 1_555
C17_6 C10_6 1_555 1_555
H9_6 C17_6 1_555 1_555
C18_6 C7_6 1_555 1_555
C19_6 C16_6 1_555 1_555
C20_6 C19_6 1_555 1_555
C21_6 C6_6 1_555 1_555
H10_6 C21_6 1_555 1_555
C22_6 O7_6 1_555 1_555
H11_6 C22_6 1_555 1_555
H12_6 C22_6 1_555 1_555
O17 C23_6 1_555 1_555
C23_6 C24_6 1_555 1_555
C24_6 C3_6 1_555 1_555
C25_6 C5_6 1_555 1_555
H13_6 C25_6 1_555 1_555
H14_6 C11_6 1_555 1_555
C27_6 C14_6 1_555 1_555
C28_6 C16_6 1_555 1_555
H15_6 C28_6 1_555 1_555
H16_6 C22_6 1_555 1_555
Cu5_4 O6_6 1_555 1_555
Cu7_4 O5_6 1_555 1_555
C7_6 C8_6 1_555 1_555
C17_6 C18_6 1_555 1_555
C18_6 C19_6 1_555 1_555
C20_6 C21_6 1_555 1_555
C24_6 C25_6 1_555 1_555
C27_6 C28_6 1_555 1_555
O10_6 C26_6 1_555 1_555
O11_6 C26_6 1_555 1_555
Cu6_2 O11_6 1_555 1_555
Cu8_2 O10_6 1_555 1_555
O3_4 Cu7_4 1_555 1_555
O12_4 Cu5_4 1_555 1_555
O13_4 Cu5_4 1_555 1_555
O14_4 Cu5_4 1_555 1_555
O16_4 Cu7_4 1_555 1_555
O17_4 Cu7_4 1_555 1_555
O3_5 Cu7_3 1_555 1_555
O12_5 Cu5_3 1_555 1_555
O13_5 Cu5_3 1_555 1_555
O14_5 Cu5_3 1_555 1_555
O16_5 Cu7_3 1_555 1_555
O17_5 Cu7_3 1_555 1_555
O3_6 Cu8_2 1_555 1_555
O12_6 Cu6_2 1_555 1_555
O13_6 Cu6_2 1_555 1_555
O14_6 Cu6_2 1_555 1_555
O16_6 Cu8_2 1_555 1_555
O17_6 Cu8_2 1_555 1_555
O4_7 C9_7 1_555 1_555
C9_7 C8_7 1_555 1_555
C10_7 C9_7 1_555 1_555
H4_7 C10_7 1_555 1_555
C11_7 O4_7 1_555 1_555
H5_7 C11_7 1_555 1_555
H6_7 C11_7 1_555 1_555
O5_7 C12_7 1_555 1_555
O6_7 C12_7 1_555 1_555
C12_7 C13_7 1_555 1_555
C13_7 C14_7 1_555 1_555
C14_7 H7_7 1_555 1_555
C15_7 C13_7 1_555 1_555
H8_7 C15_7 1_555 1_555
C16_7 C15_7 1_555 1_555
C17_7 C10_7 1_555 1_555
H9_7 C17_7 1_555 1_555
H14_7 C11_7 1_555 1_555
O10_7 C26_7 1_555 1_555
O11_7 C26_7 1_555 1_555
C26_7 C27_7 1_555 1_555
C27_7 C14_7 1_555 1_555
C28_7 C16_7 1_555 1_555
H15_7 C28_7 1_555 1_555
Cu7_2 O11_7 1_555 1_555
Cu8 O6_7 1_555 1_555
Cu5_2 O10_7 1_555 1_555
Cu6 O5_7 1_555 1_555
C17_7 C18_7 1_555 1_555
C27_7 C28_7 1_555 1_555
O13_5 C1_7 1_555 1_555
O16_5 C1_7 1_555 1_555
C1_7 C2_7 1_555 1_555
C2_7 C3_7 1_555 1_555
C3_7 H1_7 1_555 1_555
C4_7 C2_7 1_555 1_555
H2_7 C4_7 1_555 1_555
C5_7 C4_7 1_555 1_555
C6_7 H3_7 1_555 1_555
C7_7 C6_7 1_555 1_555
O7_7 C20_7 1_555 1_555
C20_7 C19_7 1_555 1_555
C21_7 C6_7 1_555 1_555
H10_7 C21_7 1_555 1_555
C22_7 O7_7 1_555 1_555
H11_7 C22_7 1_555 1_555
H12_7 C22_7 1_555 1_555
O14_6 C23_7 1_555 1_555
O17_6 C23_7 1_555 1_555
C23_7 C24_7 1_555 1_555
C24_7 C3_7 1_555 1_555
C25_7 C5_7 1_555 1_555
H13_7 C25_7 1_555 1_555
H16_7 C22_7 1_555 1_555
C20_7 C21_7 1_555 1_555
C24_7 C25_7 1_555 1_555
O13_4 C1_8 1_555 1_555
O16_4 C1_8 1_555 1_555
O4_8 C9_8 1_555 1_555
C1_8 C2_8 1_555 1_555
C2_8 C3_8 1_555 1_555
C3_8 H1_8 1_555 1_555
C4_8 C2_8 1_555 1_555
H2_8 C4_8 1_555 1_555
C5_8 C4_8 1_555 1_555
C6_8 H3_8 1_555 1_555
C7_8 C6_8 1_555 1_555
C8_8 C5_8 1_555 1_555
C9_8 C8_8 1_555 1_555
C10_8 C9_8 1_555 1_555
H4_8 C10_8 1_555 1_555
C11_8 O4_8 1_555 1_555
H5_8 C11_8 1_555 1_555
H6_8 C11_8 1_555 1_555
O5_8 C12_8 1_555 1_555
O6_8 C12_8 1_555 1_555
O7_8 C20_8 1_555 1_555
C12_8 C13_8 1_555 1_555
C13_8 C14_8 1_555 1_555
C14_8 H7_8 1_555 1_555
C15_8 C13_8 1_555 1_555
H8_8 C15_8 1_555 1_555
C16_8 C15_8 1_555 1_555
C17_8 C10_8 1_555 1_555
H9_8 C17_8 1_555 1_555
C18_8 C7_8 1_555 1_555
C19_8 C16_8 1_555 1_555
C20_8 C19_8 1_555 1_555
C21_8 C6_8 1_555 1_555
H10_8 C21_8 1_555 1_555
C22_8 O7_8 1_555 1_555
H11_8 C22_8 1_555 1_555
H12_8 C22_8 1_555 1_555
O14_5 C23_8 1_555 1_555
O17_5 C23_8 1_555 1_555
C23_8 C24_8 1_555 1_555
C24_8 C3_8 1_555 1_555
C25_8 C5_8 1_555 1_555
H13_8 C25_8 1_555 1_555
H14_8 C11_8 1_555 1_555
O10_8 C26_8 1_555 1_555
O11_8 C26_8 1_555 1_555
C26_8 C27_8 1_555 1_555
C27_8 C14_8 1_555 1_555
C28_8 C16_8 1_555 1_555
H15_8 C28_8 1_555 1_555
H16_8 C22_8 1_555 1_555
Cu7 O11_8 1_555 1_555
Cu7_2 O6_8 1_555 1_555
Cu5 O10_8 1_555 1_555
Cu5_2 O5_8 1_555 1_555
C7_8 C8_8 1_555 1_555
C17_8 C18_8 1_555 1_555
C18_8 C19_8 1_555 1_555
C20_8 C21_8 1_555 1_555
C24_8 C25_8 1_555 1_555
C27_8 C28_8 1_555 1_555
O13_6 C1_9 1_555 1_555
O16_6 C1_9 1_555 1_555
C1_9 C2_9 1_555 1_555
C2_9 C3_9 1_555 1_555
C3_9 H1_9 1_555 1_555
C4_9 C2_9 1_555 1_555
H2_9 C4_9 1_555 1_555
C5_9 C4_9 1_555 1_555
C6_9 H3_9 1_555 1_555
C7_9 C6_9 1_555 1_555
O7_9 C20_9 1_555 1_555
C20_9 C19_9 1_555 1_555
C21_9 C6_9 1_555 1_555
H10_9 C21_9 1_555 1_555
C22_9 O7_9 1_555 1_555
H11_9 C22_9 1_555 1_555
H12_9 C22_9 1_555 1_555
O14_4 C23_9 1_555 1_555
O17_4 C23_9 1_555 1_555
C23_9 C24_9 1_555 1_555
C24_9 C3_9 1_555 1_555
C25_9 C5_9 1_555 1_555
H13_9 C25_9 1_555 1_555
H16_9 C22_9 1_555 1_555
C20_9 C21_9 1_555 1_555
C24_9 C25_9 1_555 1_555
O4_9 C9_9 1_555 1_555
C9_9 C8_9 1_555 1_555
C10_9 C9_9 1_555 1_555
H4_9 C10_9 1_555 1_555
C11_9 O4_9 1_555 1_555
H5_9 C11_9 1_555 1_555
H6_9 C11_9 1_555 1_555
O5_9 C12_9 1_555 1_555
O6_9 C12_9 1_555 1_555
C12_9 C13_9 1_555 1_555
C13_9 C14_9 1_555 1_555
C14_9 H7_9 1_555 1_555
C15_9 C13_9 1_555 1_555
H8_9 C15_9 1_555 1_555
C16_9 C15_9 1_555 1_555
C17_9 C10_9 1_555 1_555
H9_9 C17_9 1_555 1_555
H14_9 C11_9 1_555 1_555
O10_9 C26_9 1_555 1_555
O11_9 C26_9 1_555 1_555
C26_9 C27_9 1_555 1_555
C27_9 C14_9 1_555 1_555
C28_9 C16_9 1_555 1_555
H15_9 C28_9 1_555 1_555
Cu8 O11_9 1_555 1_555
Cu7 O6_9 1_555 1_555
Cu6 O10_9 1_555 1_555
Cu5 O5_9 1_555 1_555
C17_9 C18_9 1_555 1_555
C27_9 C28_9 1_555 1_555
O3_7 Cu5 1_555 1_555
O12_7 Cu7 1_555 1_555
O3_8 Cu5_2 1_555 1_555
O12_8 Cu7_2 1_555 1_555
O3_9 Cu6 1_555 1_555
O12_9 Cu8 1_555 1_555

#END
