
###############################################################################
#
# This file contains modified crystal structure data generated from the
# MOF subset of the Cambridge Structural Database (CSD) v543 
# hosted by the Cambridge Crystallographic Data Centre (CCDC).
#
# This work is licensed under the Creative Commons
# Attribution-NonCommercial-ShareAlike 4.0 International License.
# To view a copy of this license, visit
# http://creativecommons.org/licenses/by-nc-sa/4.0/
# or send a letter to
# Creative Commons, PO Box 1866, Mountain View, CA 94042, USA.
#
# CIF created using the CSD Python API on 29 September 2022
# The structure has been converted into the P1 space group
# The structure has a 3D framework
# The original CSD entry ODIVUU is in the monoclinic crystal system
# The framework has been calculated to contain at least 10.0% void space
# The void calculation uses a probe of radius 1.32A, grid spacing 0.4
# The framework is charged, counterions have been retained in the structure
#
###############################################################################

data_ODIVUU
_chemical_formula_moiety         '(C88 H104 N30 O26 Zn12 2+)n'
_symmetry_cell_setting           triclinic
_symmetry_space_group_name_H-M   'P 1'
_symmetry_Int_Tables_number      1
_space_group_name_Hall           'P 1'
loop_
_symmetry_equiv_pos_site_id
_symmetry_equiv_pos_as_xyz
1 x,y,z
_cell_length_a                   17.724(5)
_cell_length_b                   19.705(5)
_cell_length_c                   13.139(6)
_cell_angle_alpha                90
_cell_angle_beta                 127.496(2)
_cell_angle_gamma                90
_cell_volume                     3640.75
loop_
_atom_site_label
_atom_site_type_symbol
_atom_site_fract_x
_atom_site_fract_y
_atom_site_fract_z
Zn6 Zn 0.0000 0.40852(2) 0.0000
O5 O 0.04545(19) 0.07647(14) 0.6788(3)
O7 O 0.0951(2) 0.27794(18) 0.9665(3)
H8 H 0.0506 0.1807 0.7978
C17 C 0.0158(3) 0.2966(2) 0.8738(4)
Zn5 Zn 0.09563(3) 0.0000 0.63138(4)
Zn6_2 Zn 0.0000 0.40852(2) 1.0000
Zn5_2 Zn 0.09563(3) 1.0000 0.63138(4)
Zn6_3 Zn 1.0000 0.40852(2) 0.0000
Zn1 Zn 0.40437(3) 0.5000 0.36862(4)
O1 O 0.45455(19) 0.42353(14) 0.3212(3)
O2 O 0.59419(17) 0.42848(14) 0.5148(3)
O3 O 0.4049(2) 0.22206(18) 0.0335(3)
O4 O 0.5212(2) 0.14670(15) 0.1356(3)
N1 N 0.2656(2) 0.5000 0.2173(3)
N2 N 0.11609(17) 0.46438(12) 0.0838(2)
N3 N 0.2362(2) 0.38032(14) 0.1894(3)
H1 H 0.1953 0.3479 0.1531
H2 H 0.2959 0.3713 0.2421
C1 C 0.5374(2) 0.40273(17) 0.4064(3)
C2 C 0.5709(2) 0.34051(18) 0.3778(3)
C3 C 0.6641(3) 0.31913(19) 0.4697(4)
H3 H 0.7031 0.3438 0.5453
C4 C 0.7003(2) 0.2616(2) 0.4511(4)
C5 C 0.6384(3) 0.2262(2) 0.3372(4)
H4 H 0.6604 0.1874 0.3225
C6 C 0.5453(3) 0.2461(2) 0.2450(4)
C7 C 0.5113(3) 0.3046(2) 0.2645(4)
H5 H 0.4494 0.3193 0.2022
C8 C 0.4842(3) 0.2034(2) 0.1262(4)
C9 C 0.2062(2) 0.44616(15) 0.1633(3)
O6 O 0.90581(17) 0.07152(14) 0.4852(3)
O8 O 0.9788(2) 0.35330(15) 0.8644(3)
C10 C 0.9626(2) 0.09727(17) 0.5936(3)
C11 C 0.9291(2) 0.15949(18) 0.6222(3)
C12 C 0.8359(3) 0.18087(19) 0.5303(4)
H6 H 0.7969 0.1562 0.4547
C13 C 0.7997(2) 0.2384(2) 0.5489(4)
C14 C 0.8616(3) 0.2738(2) 0.6628(4)
H7 H 0.8396 0.3126 0.6775
C15 C 0.9547(3) 0.2539(2) 0.7550(4)
C16 C 0.9887(3) 0.1954(2) 0.7355(4)
N4 N 0.11609(17) 0.53562(12) 0.0838(2)
N5 N 0.2362(2) 0.61968(14) 0.1894(3)
H9 H 0.1953 0.6521 0.1531
H10 H 0.2959 0.6287 0.2421
C18 C 0.2062(2) 0.55384(15) 0.1633(3)
Zn3 Zn 0.59563(3) 0.5000 0.63138(4)
Zn4 Zn 0.90437(3) -0.0000 0.36862(4)
Zn6_4 Zn 1.0000 0.40852(2) 1.0000
Zn7 Zn 0.0000 0.59148(2) 0.0000
Zn8 Zn 0.5000 0.09148(2) 0.0000
O9 O 0.45455(19) 0.57647(14) 0.3212(3)
O10 O 0.40581(17) 0.42848(14) 0.4852(3)
O11 O 0.40581(17) 0.57152(14) 0.4852(3)
O13 O 0.0212(2) 0.35330(15) 0.1356(3)
Zn7_2 Zn 0.0000 0.59148(2) 1.0000
Zn8_2 Zn 0.5000 0.09148(2) 1.0000
Zn4_2 Zn 0.90437(3) 1.0000 0.36862(4)
Zn7_3 Zn 1.0000 0.59148(2) 0.0000
Zn7_4 Zn 1.0000 0.59148(2) 1.0000
N6 N 0.88391(17) 0.46438(12) 0.9162(2)
O1_2 O 0.54545(19) 0.42353(14) 0.6788(3)
O3_2 O 0.5951(2) 0.22206(18) 0.9665(3)
O4_2 O 0.4788(2) 0.14670(15) 0.8644(3)
N1_2 N 0.7344(2) 0.5000 0.7827(3)
N3_2 N 0.7638(2) 0.38032(14) 0.8106(3)
H1_2 H 0.8047 0.3479 0.8469
H2_2 H 0.7041 0.3713 0.7579
C1_2 C 0.4626(2) 0.40273(17) 0.5936(3)
C2_2 C 0.4291(2) 0.34051(18) 0.6222(3)
C3_2 C 0.3359(3) 0.31913(19) 0.5303(4)
H3_2 H 0.2969 0.3438 0.4547
C4_2 C 0.2997(2) 0.2616(2) 0.5489(4)
C5_2 C 0.3616(3) 0.2262(2) 0.6628(4)
H4_2 H 0.3396 0.1874 0.6775
C6_2 C 0.4547(3) 0.2461(2) 0.7550(4)
C7_2 C 0.4887(3) 0.3046(2) 0.7355(4)
H5_2 H 0.5506 0.3193 0.7978
C8_2 C 0.5158(3) 0.2034(2) 0.8738(4)
C9_2 C 0.7938(2) 0.44616(15) 0.8367(3)
O6_2 O 0.09419(17) 0.07152(14) 0.5148(3)
C10_2 C 0.0374(2) 0.09727(17) 0.4064(3)
C11_2 C 0.0709(2) 0.15949(18) 0.3778(3)
C12_2 C 0.1641(3) 0.18087(19) 0.4697(4)
H6_2 H 0.2031 0.1562 0.5453
C13_2 C 0.2003(2) 0.2384(2) 0.4511(4)
C14_2 C 0.1384(3) 0.2738(2) 0.3372(4)
H7_2 H 0.1604 0.3126 0.3225
C15_2 C 0.0453(3) 0.2539(2) 0.2450(4)
C16_2 C 0.0113(3) 0.1954(2) 0.2645(4)
N4_2 N 0.88391(17) 0.53562(12) 0.9162(2)
N5_2 N 0.7638(2) 0.61968(14) 0.8106(3)
H9_2 H 0.8047 0.6521 0.8469
H10_2 H 0.7041 0.6287 0.7579
C18_2 C 0.7938(2) 0.55384(15) 0.8367(3)
O9_2 O 0.54545(19) 0.57647(14) 0.6788(3)
O11_2 O 0.59419(17) 0.57152(14) 0.5148(3)
O5_2 O 0.95455(19) 0.07647(14) 0.3212(3)
O7_2 O 0.9049(2) 0.27794(18) 0.0335(3)
H8_2 H 0.9494 0.1807 0.2022
C17_2 C 0.9842(3) 0.2966(2) 0.1262(4)
Zn6_5 Zn 0.5000 0.90852(2) 0.0000
O2_2 O 0.09419(17) 0.92848(14) 0.5148(3)
O4_3 O 0.0212(2) 0.64670(15) 0.1356(3)
C1_3 C 0.0374(2) 0.90273(17) 0.4064(3)
C2_3 C 0.0709(2) 0.84051(18) 0.3778(3)
C3_3 C 0.1641(3) 0.81913(19) 0.4697(4)
H3_3 H 0.2031 0.8438 0.5453
C4_3 C 0.2003(2) 0.7616(2) 0.4511(4)
C5_3 C 0.1384(3) 0.7262(2) 0.3372(4)
H4_3 H 0.1604 0.6874 0.3225
C6_3 C 0.0453(3) 0.7461(2) 0.2450(4)
C7_3 C 0.0113(3) 0.8046(2) 0.2645(4)
O7_3 O 0.5951(2) 0.77794(18) 0.9665(3)
O8_2 O 0.4788(2) 0.85330(15) 0.8644(3)
C10_3 C 0.4626(2) 0.59727(17) 0.5936(3)
C11_3 C 0.4291(2) 0.65949(18) 0.6222(3)
C12_3 C 0.3359(3) 0.68087(19) 0.5303(4)
H6_3 H 0.2969 0.6562 0.4547
C13_3 C 0.2997(2) 0.7384(2) 0.5489(4)
C14_3 C 0.3616(3) 0.7738(2) 0.6628(4)
H7_3 H 0.3396 0.8126 0.6775
C15_3 C 0.4547(3) 0.7539(2) 0.7550(4)
C16_3 C 0.4887(3) 0.6954(2) 0.7355(4)
H8_3 H 0.5506 0.6807 0.7978
C17_3 C 0.5158(3) 0.7966(2) 0.8738(4)
Zn6_6 Zn 0.5000 0.90852(2) 1.0000
N1_3 N 0.7656(2) -0.0000 0.2173(3)
N4_3 N 0.61609(17) 0.03562(12) 0.0838(2)
N5_3 N 0.7362(2) 0.11968(14) 0.1894(3)
H9_3 H 0.6953 0.1521 0.1531
H10_3 H 0.7959 0.1287 0.2421
C18_3 C 0.7062(2) 0.05384(15) 0.1633(3)
O1_3 O 0.95455(19) 0.92353(14) 0.3212(3)
O3_3 O 0.9049(2) 0.72206(18) 0.0335(3)
N1_4 N 0.7656(2) 1.0000 0.2173(3)
N2_2 N 0.61609(17) 0.96438(12) 0.0838(2)
N3_3 N 0.7362(2) 0.88032(14) 0.1894(3)
H1_3 H 0.6953 0.8479 0.1531
H2_3 H 0.7959 0.8713 0.2421
H5_3 H 0.9494 0.8193 0.2022
C8_3 C 0.9842(3) 0.7034(2) 0.1262(4)
C9_3 C 0.7062(2) 0.94616(15) 0.1633(3)
O10_2 O 0.90581(17) 0.92848(14) 0.4852(3)
O13_2 O 0.5212(2) 0.85330(15) 0.1356(3)
N6_2 N 0.38391(17) 0.96438(12) 0.9162(2)
N1_5 N 0.2344(2) -0.0000 0.7827(3)
N4_4 N 0.38391(17) 0.03562(12) 0.9162(2)
N5_4 N 0.2638(2) 0.11968(14) 0.8106(3)
H9_4 H 0.3047 0.1521 0.8469
H10_4 H 0.2041 0.1287 0.7579
C18_4 C 0.2938(2) 0.05384(15) 0.8367(3)
O1_4 O 0.04545(19) 0.92353(14) 0.6788(3)
O3_4 O 0.0951(2) 0.72206(18) 0.9665(3)
N1_6 N 0.2344(2) 1.0000 0.7827(3)
N3_4 N 0.2638(2) 0.88032(14) 0.8106(3)
H1_4 H 0.3047 0.8479 0.8469
H2_4 H 0.2041 0.8713 0.7579
H5_4 H 0.0506 0.8193 0.7978
C8_4 C 0.0158(3) 0.7034(2) 0.8738(4)
C9_4 C 0.2938(2) 0.94616(15) 0.8367(3)
O4_4 O 0.9788(2) 0.64670(15) 0.8644(3)
C1_4 C 0.9626(2) 0.90273(17) 0.5936(3)
C2_4 C 0.9291(2) 0.84051(18) 0.6222(3)
C3_4 C 0.8359(3) 0.81913(19) 0.5303(4)
H3_4 H 0.7969 0.8438 0.4547
C4_4 C 0.7997(2) 0.7616(2) 0.5489(4)
C5_4 C 0.8616(3) 0.7262(2) 0.6628(4)
H4_4 H 0.8396 0.6874 0.6775
C6_4 C 0.9547(3) 0.7461(2) 0.7550(4)
C7_4 C 0.9887(3) 0.8046(2) 0.7355(4)
O7_4 O 0.4049(2) 0.77794(18) 0.0335(3)
C10_4 C 0.5374(2) 0.59727(17) 0.4064(3)
C11_4 C 0.5709(2) 0.65949(18) 0.3778(3)
C12_4 C 0.6641(3) 0.68087(19) 0.4697(4)
H6_4 H 0.7031 0.6562 0.5453
C13_4 C 0.7003(2) 0.7384(2) 0.4511(4)
C14_4 C 0.6384(3) 0.7738(2) 0.3372(4)
H7_4 H 0.6604 0.8126 0.3225
C15_4 C 0.5453(3) 0.7539(2) 0.2450(4)
C16_4 C 0.5113(3) 0.6954(2) 0.2645(4)
H8_4 H 0.4494 0.6807 0.2022
C17_4 C 0.4842(3) 0.7966(2) 0.1262(4)
N7 N 0.175(3) 0.3614(18) 0.767(4)
H11 H 0.1096 0.3775 0.7179
H12 H 0.2076 0.3856 0.7401
C19 C 0.229(2) 0.3674(19) 0.918(3)
H13 H 0.2348 0.4143 0.9412
H14 H 0.2911 0.3476 0.9629
H15 H 0.1936 0.3437 0.9403
C20 C 0.179(2) 0.2888(17) 0.756(3)
H16 H 0.1543 0.2774 0.6701
H17 H 0.1418 0.2668 0.7773
H18 H 0.2439 0.2740 0.8145
N7_2 N 0.825(3) 0.3614(18) 0.233(4)
H11_2 H 0.8904 0.3775 0.2821
H12_2 H 0.7924 0.3856 0.2599
C19_2 C 0.771(2) 0.3674(19) 0.082(3)
H13_2 H 0.7652 0.4143 0.0588
H14_2 H 0.7089 0.3476 0.0371
H15_2 H 0.8064 0.3437 0.0597
C20_2 C 0.821(2) 0.2888(17) 0.244(3)
H16_2 H 0.8457 0.2774 0.3299
H17_2 H 0.8582 0.2668 0.2227
H18_2 H 0.7561 0.2740 0.1855
N7_3 N 0.675(3) 0.8614(18) 0.767(4)
H11_3 H 0.6096 0.8775 0.7179
H12_3 H 0.7076 0.8856 0.7401
C19_3 C 0.729(2) 0.8674(19) 0.918(3)
H13_3 H 0.7348 0.9143 0.9412
H14_3 H 0.7911 0.8476 0.9629
H15_3 H 0.6936 0.8437 0.9403
C20_3 C 0.679(2) 0.7888(17) 0.756(3)
H16_3 H 0.6543 0.7774 0.6701
H17_3 H 0.6418 0.7668 0.7773
H18_3 H 0.7439 0.7740 0.8145
N7_4 N 0.325(3) 0.8614(18) 0.233(4)
H11_4 H 0.3904 0.8775 0.2821
H12_4 H 0.2924 0.8856 0.2599
C19_4 C 0.271(2) 0.8674(19) 0.082(3)
H13_4 H 0.2652 0.9143 0.0588
H14_4 H 0.2089 0.8476 0.0371
H15_4 H 0.3064 0.8437 0.0597
C20_4 C 0.321(2) 0.7888(17) 0.244(3)
H16_4 H 0.3457 0.7774 0.3299
H17_4 H 0.3582 0.7668 0.2227
H18_4 H 0.2561 0.7740 0.1855
N7_5 N 0.825(3) 0.6386(18) 0.233(4)
H11_5 H 0.8904 0.6225 0.2821
H12_5 H 0.7924 0.6144 0.2599
C19_5 C 0.771(2) 0.6326(19) 0.082(3)
H13_5 H 0.7652 0.5857 0.0588
H14_5 H 0.7089 0.6524 0.0371
H15_5 H 0.8064 0.6563 0.0597
C20_5 C 0.821(2) 0.7112(17) 0.244(3)
H16_5 H 0.8457 0.7226 0.3299
H17_5 H 0.8582 0.7332 0.2227
H18_5 H 0.7561 0.7260 0.1855
N7_6 N 0.175(3) 0.6386(18) 0.767(4)
H11_6 H 0.1096 0.6225 0.7179
H12_6 H 0.2076 0.6144 0.7401
C19_6 C 0.229(2) 0.6326(19) 0.918(3)
H13_6 H 0.2348 0.5857 0.9412
H14_6 H 0.2911 0.6524 0.9629
H15_6 H 0.1936 0.6563 0.9403
C20_6 C 0.179(2) 0.7112(17) 0.756(3)
H16_6 H 0.1543 0.7226 0.6701
H17_6 H 0.1418 0.7332 0.7773
H18_6 H 0.2439 0.7260 0.8145
N7_7 N 0.325(3) 0.1386(18) 0.233(4)
H11_7 H 0.3904 0.1225 0.2821
H12_7 H 0.2924 0.1144 0.2599
C19_7 C 0.271(2) 0.1326(19) 0.082(3)
H13_7 H 0.2652 0.0857 0.0588
H14_7 H 0.2089 0.1524 0.0371
H15_7 H 0.3064 0.1563 0.0597
C20_7 C 0.321(2) 0.2112(17) 0.244(3)
H16_7 H 0.3457 0.2226 0.3299
H17_7 H 0.3582 0.2332 0.2227
H18_7 H 0.2561 0.2260 0.1855
N7_8 N 0.675(3) 0.1386(18) 0.767(4)
H11_8 H 0.6096 0.1225 0.7179
H12_8 H 0.7076 0.1144 0.7401
C19_8 C 0.729(2) 0.1326(19) 0.918(3)
H13_8 H 0.7348 0.0857 0.9412
H14_8 H 0.7911 0.1524 0.9629
H15_8 H 0.6936 0.1563 0.9403
C20_8 C 0.679(2) 0.2112(17) 0.756(3)
H16_8 H 0.6543 0.2226 0.6701
H17_8 H 0.6418 0.2332 0.7773
H18_8 H 0.7439 0.2260 0.8145
loop_
_geom_bond_atom_site_label_1
_geom_bond_atom_site_label_2
_geom_bond_site_symmetry_1
_geom_bond_site_symmetry_2
O7 C17 1_555 1_555
Zn5 O5 1_555 1_555
Zn1 O1 1_555 1_555
Zn6 N2 1_555 1_555
O1 C1 1_555 1_555
O2 C1 1_555 1_555
O3 C8 1_555 1_555
O4 C8 1_555 1_555
N1 Zn1 1_555 1_555
N2 C9 1_555 1_555
N3 H1 1_555 1_555
H2 N3 1_555 1_555
C1 C2 1_555 1_555
C2 C3 1_555 1_555
C3 H3 1_555 1_555
C4 C3 1_555 1_555
C5 C4 1_555 1_555
H4 C5 1_555 1_555
C6 C5 1_555 1_555
C7 C2 1_555 1_555
H5 C7 1_555 1_555
C8 C6 1_555 1_555
C9 N1 1_555 1_555
O6 C10 1_555 1_555
C10 C11 1_555 1_555
C11 C12 1_555 1_555
C12 H6 1_555 1_555
C13 C4 1_555 1_555
C14 C13 1_555 1_555
H7 C14 1_555 1_555
C15 C14 1_555 1_555
C16 C11 1_555 1_555
N4 N2 1_555 1_555
N5 H9 1_555 1_555
H10 N5 1_555 1_555
C18 N1 1_555 1_555
Zn3 O2 1_555 1_555
Zn4 O6 1_555 1_555
Zn6_4 O8 1_555 1_555
Zn7 N4 1_555 1_555
Zn8 O4 1_555 1_555
O9 Zn1 1_555 1_555
O10 Zn1 1_555 1_555
O11 Zn1 1_555 1_555
O13 Zn6 1_555 1_555
N3 C9 1_555 1_555
C6 C7 1_555 1_555
C12 C13 1_555 1_555
C15 C16 1_555 1_555
N4 C18 1_555 1_555
N5 C18 1_555 1_555
N6 Zn6_4 1_555 1_555
Zn3 O1_2 1_555 1_555
O1_2 C1_2 1_555 1_555
O10 C1_2 1_555 1_555
O3_2 C8_2 1_555 1_555
O4_2 C8_2 1_555 1_555
N1_2 Zn3 1_555 1_555
N6 C9_2 1_555 1_555
N3_2 H1_2 1_555 1_555
H2_2 N3_2 1_555 1_555
C1_2 C2_2 1_555 1_555
C2_2 C3_2 1_555 1_555
C3_2 H3_2 1_555 1_555
C4_2 C3_2 1_555 1_555
C5_2 C4_2 1_555 1_555
H4_2 C5_2 1_555 1_555
C6_2 C5_2 1_555 1_555
C7_2 C2_2 1_555 1_555
H5_2 C7_2 1_555 1_555
C8_2 C6_2 1_555 1_555
C9_2 N1_2 1_555 1_555
O6_2 C10_2 1_555 1_555
C10_2 C11_2 1_555 1_555
C11_2 C12_2 1_555 1_555
C12_2 H6_2 1_555 1_555
C13_2 C4_2 1_555 1_555
C14_2 C13_2 1_555 1_555
H7_2 C14_2 1_555 1_555
C15_2 C14_2 1_555 1_555
C16_2 C11_2 1_555 1_555
N4_2 N6 1_555 1_555
N5_2 H9_2 1_555 1_555
H10_2 N5_2 1_555 1_555
C18_2 N1_2 1_555 1_555
Zn5 O6_2 1_555 1_555
Zn7_4 N4_2 1_555 1_555
Zn8_2 O4_2 1_555 1_555
O9_2 Zn3 1_555 1_555
O11_2 Zn3 1_555 1_555
N3_2 C9_2 1_555 1_555
C6_2 C7_2 1_555 1_555
C12_2 C13_2 1_555 1_555
C15_2 C16_2 1_555 1_555
N4_2 C18_2 1_555 1_555
N5_2 C18_2 1_555 1_555
O7_2 C17_2 1_555 1_555
Zn4 O5_2 1_555 1_555
O2_2 C1_3 1_555 1_555
C1_3 C2_3 1_555 1_555
C2_3 C3_3 1_555 1_555
C3_3 H3_3 1_555 1_555
C4_3 C3_3 1_555 1_555
C5_3 C4_3 1_555 1_555
H4_3 C5_3 1_555 1_555
C6_3 C5_3 1_555 1_555
C7_3 C2_3 1_555 1_555
O9_2 C10_3 1_555 1_555
O11 C10_3 1_555 1_555
O7_3 C17_3 1_555 1_555
O8_2 C17_3 1_555 1_555
C10_3 C11_3 1_555 1_555
C11_3 C12_3 1_555 1_555
C12_3 H6_3 1_555 1_555
C13_3 C4_3 1_555 1_555
C14_3 C13_3 1_555 1_555
H7_3 C14_3 1_555 1_555
C15_3 C14_3 1_555 1_555
C16_3 C11_3 1_555 1_555
H8_3 C16_3 1_555 1_555
C17_3 C15_3 1_555 1_555
Zn5_2 O2_2 1_555 1_555
Zn6_6 O8_2 1_555 1_555
Zn7 O4_3 1_555 1_555
C6_3 C7_3 1_555 1_555
C12_3 C13_3 1_555 1_555
C15_3 C16_3 1_555 1_555
N1_3 Zn4 1_555 1_555
N5_3 H9_3 1_555 1_555
H10_3 N5_3 1_555 1_555
C18_3 N1_3 1_555 1_555
Zn8 N4_3 1_555 1_555
N4_3 C18_3 1_555 1_555
N5_3 C18_3 1_555 1_555
Zn4_2 O1_3 1_555 1_555
Zn6_5 N2_2 1_555 1_555
O3_3 C8_3 1_555 1_555
N1_4 Zn4_2 1_555 1_555
N2_2 C9_3 1_555 1_555
N3_3 H1_3 1_555 1_555
H2_3 N3_3 1_555 1_555
C9_3 N1_4 1_555 1_555
O10_2 Zn4_2 1_555 1_555
O13_2 Zn6_5 1_555 1_555
N3_3 C9_3 1_555 1_555
N6_2 Zn6_6 1_555 1_555
N1_5 Zn5 1_555 1_555
N5_4 H9_4 1_555 1_555
H10_4 N5_4 1_555 1_555
C18_4 N1_5 1_555 1_555
Zn8_2 N4_4 1_555 1_555
N4_4 C18_4 1_555 1_555
N5_4 C18_4 1_555 1_555
Zn5_2 O1_4 1_555 1_555
O3_4 C8_4 1_555 1_555
N1_6 Zn5_2 1_555 1_555
N6_2 C9_4 1_555 1_555
N3_4 H1_4 1_555 1_555
H2_4 N3_4 1_555 1_555
C9_4 N1_6 1_555 1_555
N3_4 C9_4 1_555 1_555
O10_2 C1_4 1_555 1_555
C1_4 C2_4 1_555 1_555
C2_4 C3_4 1_555 1_555
C3_4 H3_4 1_555 1_555
C4_4 C3_4 1_555 1_555
C5_4 C4_4 1_555 1_555
H4_4 C5_4 1_555 1_555
C6_4 C5_4 1_555 1_555
C7_4 C2_4 1_555 1_555
O9 C10_4 1_555 1_555
O11_2 C10_4 1_555 1_555
O7_4 C17_4 1_555 1_555
O13_2 C17_4 1_555 1_555
C10_4 C11_4 1_555 1_555
C11_4 C12_4 1_555 1_555
C12_4 H6_4 1_555 1_555
C13_4 C4_4 1_555 1_555
C14_4 C13_4 1_555 1_555
H7_4 C14_4 1_555 1_555
C15_4 C14_4 1_555 1_555
C16_4 C11_4 1_555 1_555
H8_4 C16_4 1_555 1_555
C17_4 C15_4 1_555 1_555
Zn7_4 O4_4 1_555 1_555
C6_4 C7_4 1_555 1_555
C12_4 C13_4 1_555 1_555
C15_4 C16_4 1_555 1_555
N7 H11 1_555 1_555
H12 N7 1_555 1_555
C19 N7 1_555 1_555
H13 C19 1_555 1_555
H14 C19 1_555 1_555
H15 C19 1_555 1_555
C20 N7 1_555 1_555
H16 C20 1_555 1_555
H17 C20 1_555 1_555
H18 C20 1_555 1_555
N7_2 H11_2 1_555 1_555
H12_2 N7_2 1_555 1_555
C19_2 N7_2 1_555 1_555
H13_2 C19_2 1_555 1_555
H14_2 C19_2 1_555 1_555
H15_2 C19_2 1_555 1_555
C20_2 N7_2 1_555 1_555
H16_2 C20_2 1_555 1_555
H17_2 C20_2 1_555 1_555
H18_2 C20_2 1_555 1_555
N7_3 H11_3 1_555 1_555
H12_3 N7_3 1_555 1_555
C19_3 N7_3 1_555 1_555
H13_3 C19_3 1_555 1_555
H14_3 C19_3 1_555 1_555
H15_3 C19_3 1_555 1_555
C20_3 N7_3 1_555 1_555
H16_3 C20_3 1_555 1_555
H17_3 C20_3 1_555 1_555
H18_3 C20_3 1_555 1_555
N7_4 H11_4 1_555 1_555
H12_4 N7_4 1_555 1_555
C19_4 N7_4 1_555 1_555
H13_4 C19_4 1_555 1_555
H14_4 C19_4 1_555 1_555
H15_4 C19_4 1_555 1_555
C20_4 N7_4 1_555 1_555
H16_4 C20_4 1_555 1_555
H17_4 C20_4 1_555 1_555
H18_4 C20_4 1_555 1_555
N7_5 H11_5 1_555 1_555
H12_5 N7_5 1_555 1_555
C19_5 N7_5 1_555 1_555
H13_5 C19_5 1_555 1_555
H14_5 C19_5 1_555 1_555
H15_5 C19_5 1_555 1_555
C20_5 N7_5 1_555 1_555
H16_5 C20_5 1_555 1_555
H17_5 C20_5 1_555 1_555
H18_5 C20_5 1_555 1_555
N7_6 H11_6 1_555 1_555
H12_6 N7_6 1_555 1_555
C19_6 N7_6 1_555 1_555
H13_6 C19_6 1_555 1_555
H14_6 C19_6 1_555 1_555
H15_6 C19_6 1_555 1_555
C20_6 N7_6 1_555 1_555
H16_6 C20_6 1_555 1_555
H17_6 C20_6 1_555 1_555
H18_6 C20_6 1_555 1_555
N7_7 H11_7 1_555 1_555
H12_7 N7_7 1_555 1_555
C19_7 N7_7 1_555 1_555
H13_7 C19_7 1_555 1_555
H14_7 C19_7 1_555 1_555
H15_7 C19_7 1_555 1_555
C20_7 N7_7 1_555 1_555
H16_7 C20_7 1_555 1_555
H17_7 C20_7 1_555 1_555
H18_7 C20_7 1_555 1_555
N7_8 H11_8 1_555 1_555
H12_8 N7_8 1_555 1_555
C19_8 N7_8 1_555 1_555
H13_8 C19_8 1_555 1_555
H14_8 C19_8 1_555 1_555
H15_8 C19_8 1_555 1_555
C20_8 N7_8 1_555 1_555
H16_8 C20_8 1_555 1_555
H17_8 C20_8 1_555 1_555
H18_8 C20_8 1_555 1_555

#END
