
###############################################################################
#
# This file contains modified crystal structure data generated from the
# MOF subset of the Cambridge Structural Database (CSD) v543 
# hosted by the Cambridge Crystallographic Data Centre (CCDC).
#
# This work is licensed under the Creative Commons
# Attribution-NonCommercial-ShareAlike 4.0 International License.
# To view a copy of this license, visit
# http://creativecommons.org/licenses/by-nc-sa/4.0/
# or send a letter to
# Creative Commons, PO Box 1866, Mountain View, CA 94042, USA.
#
# CIF created using the CSD Python API on 29 September 2022
# The structure has been converted into the P1 space group
# The structure has a 3D framework
# The original CSD entry ODIXEG is in the tetragonal crystal system
# The framework has been calculated to contain at least 10.0% void space
# The void calculation uses a probe of radius 1.32A, grid spacing 0.4
# H atom positions have been added when not included in the experimental data
# Generated hydrogen atom positions removed from atoms on special positions
#
###############################################################################

data_ODIXEG
_chemical_formula_moiety         '(C56 H80 O28 Si2 Zn12)n'
_symmetry_cell_setting           triclinic
_symmetry_space_group_name_H-M   'P 1'
_symmetry_Int_Tables_number      1
_space_group_name_Hall           'P 1'
loop_
_symmetry_equiv_pos_site_id
_symmetry_equiv_pos_as_xyz
1 x,y,z
_cell_length_a                   12.706(4)
_cell_length_b                   12.706(4)
_cell_length_c                   23.817(8)
_cell_angle_alpha                90
_cell_angle_beta                 90
_cell_angle_gamma                90
_cell_volume                     3845.07
loop_
_atom_site_label
_atom_site_type_symbol
_atom_site_fract_x
_atom_site_fract_y
_atom_site_fract_z
Zn5 Zn -0.0000 0.38242(3) 0.5000
Zn8 Zn -0.0000 0.61758(3) 0.5000
Zn3 Zn 0.38242(3) 0.0000 0.0000
Zn6 Zn 0.61758(3) 0.0000 0.0000
Zn3_2 Zn 0.38242(3) 0.0000 1.0000
Zn6_2 Zn 0.61758(3) 0.0000 1.0000
Si1 Si 0.5000 0.5000 0.2500
C1 C 0.5000 0.38257(15) 0.20289(6)
C2 C 0.5000 0.22450(15) 0.12061(7)
O1 O 0.41151(9) 0.11044(8) 0.05860(4)
C3 C 0.40631(12) 0.34073(13) 0.18193(5)
H1 H 0.3409 0.3664 0.1956
C4 C 0.5000 0.14120(16) 0.07636(8)
C5 C 0.40723(13) 0.26308(12) 0.14188(6)
H2 H 0.3424 0.2355 0.1286
O2 O 0.22767(19) 0.0000 0.0000
C6 C 0.5000 0.61743(15) 0.20289(6)
C7 C 0.5000 0.77550(15) 0.12061(7)
O3 O 0.58849(9) 0.88956(8) 0.05860(4)
C8 C 0.59369(12) 0.65927(13) 0.18193(5)
H3 H 0.6591 0.6336 0.1956
C9 C 0.5000 0.85880(16) 0.07636(8)
C10 C 0.59277(13) 0.73692(12) 0.14188(6)
H4 H 0.6576 0.7645 0.1286
C11 C 0.38257(15) 0.5000 0.29711(6)
C12 C 0.22450(15) 0.5000 0.37939(7)
O4 O 0.11044(8) 0.41151(9) 0.44140(4)
C13 C 0.34073(13) 0.40631(12) 0.31807(5)
H5 H 0.3664 0.3409 0.3044
C14 C 0.14120(16) 0.5000 0.42364(8)
C15 C 0.26308(12) 0.40723(13) 0.35812(6)
H6 H 0.2355 0.3424 0.3714
C16 C 0.61743(15) 0.5000 0.29711(6)
C17 C 0.77550(15) 0.5000 0.37939(7)
O5 O 0.88956(8) 0.58849(9) 0.44140(4)
C18 C 0.65927(13) 0.59369(12) 0.31807(5)
H7 H 0.6336 0.6591 0.3044
C19 C 0.85880(16) 0.5000 0.42364(8)
C20 C 0.73692(12) 0.59277(13) 0.35812(6)
H8 H 0.7645 0.6576 0.3714
O6 O 0.11044(8) 0.58849(9) 0.44140(4)
C21 C 0.34073(13) 0.59369(12) 0.31807(5)
H9 H 0.3664 0.6591 0.3044
C22 C 0.26308(12) 0.59277(13) 0.35812(6)
H10 H 0.2355 0.6576 0.3714
O7 O 0.88956(8) 0.41151(9) 0.44140(4)
C23 C 0.65927(13) 0.40631(12) 0.31807(5)
H11 H 0.6336 0.3409 0.3044
C24 C 0.73692(12) 0.40723(13) 0.35812(6)
H12 H 0.7645 0.3424 0.3714
O8 O 0.58849(9) 0.11044(8) 0.05860(4)
C25 C 0.59369(12) 0.34073(13) 0.18193(5)
H13 H 0.6591 0.3664 0.1956
C26 C 0.59277(13) 0.26308(12) 0.14188(6)
H14 H 0.6576 0.2355 0.1286
O9 O 0.41151(9) 0.88956(8) 0.05860(4)
C27 C 0.40631(12) 0.65927(13) 0.18193(5)
H15 H 0.3409 0.6336 0.1956
C28 C 0.40723(13) 0.73692(12) 0.14188(6)
H16 H 0.3424 0.7645 0.1286
O10 O 0.77233(19) 0.0000 0.0000
Zn3_3 Zn 0.38242(3) 1.0000 0.0000
Zn5_2 Zn 1.0000 0.38242(3) 0.5000
Zn6_3 Zn 0.61758(3) 1.0000 0.0000
Zn8_2 Zn 1.0000 0.61758(3) 0.5000
O2_2 O 0.22767(19) 0.0000 1.0000
O10_2 O 0.77233(19) 0.0000 1.0000
Zn3_4 Zn 0.38242(3) 1.0000 1.0000
Zn6_4 Zn 0.61758(3) 1.0000 1.0000
O13 O 0.58849(9) 0.11044(8) 0.94140(4)
O15 O 0.41151(9) 0.11044(8) 0.94140(4)
O2_3 O 0.22767(19) 1.0000 0.0000
O10_3 O 0.77233(19) 1.0000 0.0000
O2_4 O 0.22767(19) 1.0000 1.0000
O10_4 O 0.77233(19) 1.0000 1.0000
O12 O 0.41151(9) 0.88956(8) 0.94140(4)
O14 O 0.58849(9) 0.88956(8) 0.94140(4)
O2_5 O 0.0000 0.22767(19) 0.5000
O10_5 O 0.0000 0.77233(19) 0.5000
O11 O 0.11044(8) 0.58849(9) 0.55860(4)
O16 O 0.11044(8) 0.41151(9) 0.55860(4)
Si1_2 Si 0.5000 0.5000 0.7500
C1_2 C 0.61743(15) 0.5000 0.70289(6)
C2_2 C 0.77550(15) 0.5000 0.62061(7)
O1_2 O 0.88956(8) 0.41151(9) 0.55860(4)
C3_2 C 0.65927(13) 0.40631(12) 0.68193(5)
H1_2 H 0.6336 0.3409 0.6956
C4_2 C 0.85880(16) 0.5000 0.57636(8)
C5_2 C 0.73692(12) 0.40723(13) 0.64188(6)
H2_2 H 0.7645 0.3424 0.6286
O2_6 O 1.0000 0.22767(19) 0.5000
C6_2 C 0.38257(15) 0.5000 0.70289(6)
C7_2 C 0.22450(15) 0.5000 0.62061(7)
C8_2 C 0.34073(13) 0.59369(12) 0.68193(5)
H3_2 H 0.3664 0.6591 0.6956
C9_2 C 0.14120(16) 0.5000 0.57636(8)
C10_2 C 0.26308(12) 0.59277(13) 0.64188(6)
H4_2 H 0.2355 0.6576 0.6286
C11_2 C 0.5000 0.38257(15) 0.79711(6)
C12_2 C 0.5000 0.22450(15) 0.87939(7)
C13_2 C 0.59369(12) 0.34073(13) 0.81807(5)
H5_2 H 0.6591 0.3664 0.8044
C14_2 C 0.5000 0.14120(16) 0.92364(8)
C15_2 C 0.59277(13) 0.26308(12) 0.85812(6)
H6_2 H 0.6576 0.2355 0.8714
C16_2 C 0.5000 0.61743(15) 0.79711(6)
C17_2 C 0.5000 0.77550(15) 0.87939(7)
C18_2 C 0.40631(12) 0.65927(13) 0.81807(5)
H7_2 H 0.3409 0.6336 0.8044
C19_2 C 0.5000 0.85880(16) 0.92364(8)
C20_2 C 0.40723(13) 0.73692(12) 0.85812(6)
H8_2 H 0.3424 0.7645 0.8714
C21_2 C 0.40631(12) 0.34073(13) 0.81807(5)
H9_2 H 0.3409 0.3664 0.8044
C22_2 C 0.40723(13) 0.26308(12) 0.85812(6)
H10_2 H 0.3424 0.2355 0.8714
C23_2 C 0.59369(12) 0.65927(13) 0.81807(5)
H11_2 H 0.6591 0.6336 0.8044
C24_2 C 0.59277(13) 0.73692(12) 0.85812(6)
H12_2 H 0.6576 0.7645 0.8714
O8_2 O 0.88956(8) 0.58849(9) 0.55860(4)
C25_2 C 0.65927(13) 0.59369(12) 0.68193(5)
H13_2 H 0.6336 0.6591 0.6956
C26_2 C 0.73692(12) 0.59277(13) 0.64188(6)
H14_2 H 0.7645 0.6576 0.6286
C27_2 C 0.34073(13) 0.40631(12) 0.68193(5)
H15_2 H 0.3664 0.3409 0.6956
C28_2 C 0.26308(12) 0.40723(13) 0.64188(6)
H16_2 H 0.2355 0.3424 0.6286
O10_6 O 1.0000 0.77233(19) 0.5000
loop_
_geom_bond_atom_site_label_1
_geom_bond_atom_site_label_2
_geom_bond_site_symmetry_1
_geom_bond_site_symmetry_2
Zn3 O1 1_555 1_555
Si1 C1 1_555 1_555
C1 C3 1_555 1_555
C2 C4 1_555 1_555
O1 C4 1_555 1_555
C3 H1 1_555 1_555
C4 O8 1_555 1_555
C5 C2 1_555 1_555
H2 C5 1_555 1_555
O2 Zn3 1_555 1_555
C6 Si1 1_555 1_555
C7 C9 1_555 1_555
O3 C9 1_555 1_555
C8 C6 1_555 1_555
H3 C8 1_555 1_555
C9 O9 1_555 1_555
C10 C7 1_555 1_555
H4 C10 1_555 1_555
C11 Si1 1_555 1_555
C12 C14 1_555 1_555
O4 C14 1_555 1_555
C13 C11 1_555 1_555
H5 C13 1_555 1_555
C14 O6 1_555 1_555
C15 C12 1_555 1_555
H6 C15 1_555 1_555
C16 Si1 1_555 1_555
C17 C19 1_555 1_555
O5 C19 1_555 1_555
C18 C16 1_555 1_555
H7 C18 1_555 1_555
C19 O7 1_555 1_555
C20 C17 1_555 1_555
H8 C20 1_555 1_555
O6 Zn8 1_555 1_555
C21 C11 1_555 1_555
H9 C21 1_555 1_555
C22 C12 1_555 1_555
H10 C22 1_555 1_555
O7 Zn5_2 1_555 1_555
C23 C16 1_555 1_555
H11 C23 1_555 1_555
C24 C17 1_555 1_555
H12 C24 1_555 1_555
O8 Zn6 1_555 1_555
C25 C1 1_555 1_555
H13 C25 1_555 1_555
C26 C2 1_555 1_555
H14 C26 1_555 1_555
O9 Zn3_3 1_555 1_555
C27 C6 1_555 1_555
H15 C27 1_555 1_555
C28 C7 1_555 1_555
H16 C28 1_555 1_555
Zn6 O10 1_555 1_555
Zn5 O4 1_555 1_555
Zn6_3 O3 1_555 1_555
Zn8_2 O5 1_555 1_555
C3 C5 1_555 1_555
C8 C10 1_555 1_555
C13 C15 1_555 1_555
C18 C20 1_555 1_555
C21 C22 1_555 1_555
C23 C24 1_555 1_555
C25 C26 1_555 1_555
C27 C28 1_555 1_555
O2_2 Zn3_2 1_555 1_555
Zn6_2 O10_2 1_555 1_555
O13 Zn6_2 1_555 1_555
O15 Zn3_2 1_555 1_555
O2_3 Zn3_3 1_555 1_555
Zn6_3 O10_3 1_555 1_555
O2_4 Zn3_4 1_555 1_555
Zn6_4 O10_4 1_555 1_555
O12 Zn3_4 1_555 1_555
O14 Zn6_4 1_555 1_555
O2_5 Zn5 1_555 1_555
Zn8 O10_5 1_555 1_555
O11 Zn8 1_555 1_555
O16 Zn5 1_555 1_555
Zn5_2 O1_2 1_555 1_555
Si1_2 C1_2 1_555 1_555
C1_2 C3_2 1_555 1_555
C2_2 C4_2 1_555 1_555
O1_2 C4_2 1_555 1_555
C3_2 H1_2 1_555 1_555
C4_2 O8_2 1_555 1_555
C5_2 C2_2 1_555 1_555
H2_2 C5_2 1_555 1_555
O2_6 Zn5_2 1_555 1_555
C6_2 Si1_2 1_555 1_555
C7_2 C9_2 1_555 1_555
O11 C9_2 1_555 1_555
C8_2 C6_2 1_555 1_555
H3_2 C8_2 1_555 1_555
C9_2 O16 1_555 1_555
C10_2 C7_2 1_555 1_555
H4_2 C10_2 1_555 1_555
C11_2 Si1_2 1_555 1_555
C12_2 C14_2 1_555 1_555
O13 C14_2 1_555 1_555
C13_2 C11_2 1_555 1_555
H5_2 C13_2 1_555 1_555
C14_2 O15 1_555 1_555
C15_2 C12_2 1_555 1_555
H6_2 C15_2 1_555 1_555
C16_2 Si1_2 1_555 1_555
C17_2 C19_2 1_555 1_555
O12 C19_2 1_555 1_555
C18_2 C16_2 1_555 1_555
H7_2 C18_2 1_555 1_555
C19_2 O14 1_555 1_555
C20_2 C17_2 1_555 1_555
H8_2 C20_2 1_555 1_555
C21_2 C11_2 1_555 1_555
H9_2 C21_2 1_555 1_555
C22_2 C12_2 1_555 1_555
H10_2 C22_2 1_555 1_555
C23_2 C16_2 1_555 1_555
H11_2 C23_2 1_555 1_555
C24_2 C17_2 1_555 1_555
H12_2 C24_2 1_555 1_555
O8_2 Zn8_2 1_555 1_555
C25_2 C1_2 1_555 1_555
H13_2 C25_2 1_555 1_555
C26_2 C2_2 1_555 1_555
H14_2 C26_2 1_555 1_555
C27_2 C6_2 1_555 1_555
H15_2 C27_2 1_555 1_555
C28_2 C7_2 1_555 1_555
H16_2 C28_2 1_555 1_555
Zn8_2 O10_6 1_555 1_555
C3_2 C5_2 1_555 1_555
C8_2 C10_2 1_555 1_555
C13_2 C15_2 1_555 1_555
C18_2 C20_2 1_555 1_555
C21_2 C22_2 1_555 1_555
C23_2 C24_2 1_555 1_555
C25_2 C26_2 1_555 1_555
C27_2 C28_2 1_555 1_555

#END
