
###############################################################################
#
# This file contains modified crystal structure data generated from the
# MOF subset of the Cambridge Structural Database (CSD) v543 
# hosted by the Cambridge Crystallographic Data Centre (CCDC).
#
# This work is licensed under the Creative Commons
# Attribution-NonCommercial-ShareAlike 4.0 International License.
# To view a copy of this license, visit
# http://creativecommons.org/licenses/by-nc-sa/4.0/
# or send a letter to
# Creative Commons, PO Box 1866, Mountain View, CA 94042, USA.
#
# CIF created using the CSD Python API on 29 September 2022
# The structure has been converted into the P1 space group
# The structure has a 3D framework
# The original CSD entry ODIXAC is in the triclinic crystal system
# The framework has been calculated to contain at least 10.0% void space
# The void calculation uses a probe of radius 1.32A, grid spacing 0.4
#
###############################################################################

data_ODIXAC
_chemical_formula_moiety         '(C74 H72 Cd6 N4 O20 Si2 2+)n'
_symmetry_cell_setting           triclinic
_symmetry_space_group_name_H-M   'P 1'
_symmetry_Int_Tables_number      1
_space_group_name_Hall           'P 1'
loop_
_symmetry_equiv_pos_site_id
_symmetry_equiv_pos_as_xyz
1 x,y,z
_cell_length_a                   13.9817(19)
_cell_length_b                   14.1817(19)
_cell_length_c                   14.270(3)
_cell_angle_alpha                115.922(2)
_cell_angle_beta                 113.196(2)
_cell_angle_gamma                97.1440(10)
_cell_volume                     2183.44
loop_
_atom_site_label
_atom_site_type_symbol
_atom_site_fract_x
_atom_site_fract_y
_atom_site_fract_z
O6 O 0.32623(18) 0.3209(2) 0.0571(2)
Cd6 Cd 0.504891(17) 0.384270(17) 0.185287(18)
Cd12 Cd 0.5000 0.5000 0.0000
O4 O 0.32815(19) 0.4030(2) 0.9536(2)
C12 C 0.0945(3) 0.3570(3) 0.8770(3)
H4 H 0.1321 0.4313 0.9017
C14 C 0.0989(3) 0.1850(3) 0.8680(3)
H6 H 0.1395 0.1421 0.8898
C17 C 0.2813(2) 0.3440(3) 0.9783(3)
C20 C 0.1556(2) 0.2940(3) 0.9062(3)
Cd12_2 Cd 0.5000 0.5000 1.0000
O1 O 0.57825(17) 0.39172(17) 0.06922(18)
O2 O 0.5167(2) 0.21903(19) 0.0284(2)
C7 C 0.5666(2) 0.2872(3) 0.0156(3)
O18 O 0.5650(2) 0.56517(19) 0.3214(2)
O21 O 0.67185(19) 0.5970(2) 0.0464(2)
O22 O 0.64816(19) 0.3521(2) 0.3082(2)
O26 O 0.48809(18) 0.3184(2) 0.3042(2)
O28 O 0.5386(2) 0.6138(2) 0.1864(2)
Si1 Si 0.76388(6) 0.14398(7) 0.67870(7)
C1 C 0.7069(2) 0.1802(2) 0.7837(3)
C2 C 0.9205(2) 0.2009(3) 0.7688(3)
C3 C 0.5864(3) 0.3199(3) 0.3417(3)
C4 C 0.6182(2) 0.2500(3) 0.9375(3)
C5 C 0.7173(2) 0.2116(2) 0.5902(3)
C10 C 0.5951(3) 0.1362(3) 0.8632(3)
H3 H 0.5501 0.0821 0.8653
C13 C 0.6111(3) 0.2191(3) 0.5529(3)
H5 H 0.5669 0.1998 0.5826
C15 C 0.6379(3) 0.1017(3) 0.7856(3)
H7 H 0.6198 0.0238 0.7333
C16 C 0.7391(3) 0.2779(3) 0.4664(3)
H8 H 0.7837 0.2987 0.4378
H10 H 0.6423 0.0027 0.4194
C22 C 0.9832(3) 0.1382(3) 0.7978(3)
H11 H 0.9461 0.0624 0.7691
C23 C 0.6326(3) 0.2831(3) 0.4287(3)
C24 C 0.5694(3) 0.2542(3) 0.4733(3)
H12 H 0.4972 0.2586 0.4491
C25 C 0.6869(3) 0.3292(3) 0.9373(3)
H13 H 0.7034 0.4069 0.9885
C26 C 0.7315(3) 0.2945(3) 0.8619(3)
H14 H 0.7797 0.3493 0.8634
C27 C 0.7801(3) 0.2423(3) 0.5455(3)
H15 H 0.8526 0.2387 0.5701
C28 C 0.9791(3) 0.3117(3) 0.8120(3)
H16 H 0.9386 0.3571 0.7963
O11 O 0.4350(2) 0.43483(19) 0.6786(2)
C34 C 0.3804(2) 0.2419(3) 0.6116(3)
C36 C 0.3240(3) 0.2057(3) 0.4900(3)
H17 H 0.3156 0.2590 0.4669
C37 C 0.2798(2) 0.0916(3) 0.4023(3)
H18 H 0.2408 0.0678 0.3197
C39 C 0.2918(2) 0.0111(2) 0.4336(3)
O16 O 0.4614(2) 0.3862(2) 0.8136(2)
C46 C 0.3918(3) 0.1634(3) 0.6442(3)
H25 H 0.4294 0.1875 0.7270
C47 C 0.4300(3) 0.3645(3) 0.7094(3)
C49 C 0.3486(3) 0.0499(3) 0.5567(3)
Cd9 Cd 0.495109(17) 0.615730(17) 0.814713(18)
O17 O 0.42175(17) 0.60828(17) 0.93078(18)
C6 C 0.6196(2) 0.7581(3) 0.3884(3)
C8 C 0.6760(3) 0.7943(3) 0.5100(3)
H1 H 0.6844 0.7410 0.5331
C9 C 0.7202(2) 0.9084(3) 0.5977(3)
H2 H 0.7592 0.9322 0.6803
C11 C 0.7082(2) 0.9889(2) 0.5664(3)
C18 C 0.6082(3) 0.8366(3) 0.3558(3)
H9 H 0.5706 0.8125 0.2730
C19 C 0.5700(3) 0.6355(3) 0.2906(3)
C21 C 0.6514(3) 0.9501(3) 0.4433(3)
Si2 Si 0.23612(6) 0.85602(7) 0.32130(7)
C29 C 0.2931(2) 0.8198(2) 0.2163(3)
C30 C 0.0795(2) 0.7991(3) 0.2312(3)
O13 O 0.35184(19) 0.6479(2) 0.6918(2)
C31 C 0.4136(3) 0.6801(3) 0.6583(3)
C32 C 0.3818(2) 0.7500(3) 0.0625(3)
C33 C 0.2827(2) 0.7884(2) 0.4098(3)
O15 O 0.51191(18) 0.6816(2) 0.6958(2)
C38 C 0.4049(3) 0.8638(3) 0.1368(3)
H19 H 0.4499 0.9179 0.1347
C41 C 0.3889(3) 0.7809(3) 0.4471(3)
H21 H 0.4331 0.8002 0.4174
C43 C 0.3621(3) 0.8983(3) 0.2144(3)
H23 H 0.3802 0.9762 0.2667
C44 C 0.2609(3) 0.7221(3) 0.5336(3)
H24 H 0.2163 0.7013 0.5622
H26 H 0.3577 0.9973 0.5806
C50 C 0.0168(3) 0.8618(3) 0.2022(3)
H27 H 0.0539 0.9376 0.2309
C51 C 0.3674(3) 0.7169(3) 0.5713(3)
C52 C 0.4306(3) 0.7458(3) 0.5267(3)
H28 H 0.5028 0.7414 0.5509
C53 C 0.3131(3) 0.6708(3) 0.0627(3)
H29 H 0.2966 0.5931 0.0115
C54 C 0.2685(3) 0.7055(3) 0.1381(3)
H30 H 0.2203 0.6507 0.1366
C55 C 0.2199(3) 0.7577(3) 0.4545(3)
H31 H 0.1474 0.7613 0.4299
C56 C 0.0209(3) 0.6883(3) 0.1880(3)
H32 H 0.0614 0.6429 0.2037
O10 O 0.4833(2) 0.78097(19) 0.9716(2)
C35 C 0.4334(2) 0.7128(3) 0.9844(3)
O25 O 0.67377(18) 0.6791(2) 0.9429(2)
C40 C 0.9055(3) 0.6430(3) 0.1230(3)
H20 H 0.8679 0.5687 0.0983
C42 C 0.9011(3) 0.8150(3) 0.1320(3)
H22 H 0.8605 0.8579 0.1102
C45 C 0.7187(2) 0.6560(3) 0.0217(3)
C48 C 0.8444(2) 0.7060(3) 0.0938(3)
Cd13 Cd -0.0000 0.5000 0.5000
O30 O 0.0011(2) 0.6474(2) 0.4720(2)
O31 O 0.1154(2) 0.4478(2) 0.4265(2)
N1 N 0.1997(3) 0.4255(2) 0.3140(3)
C58 C 0.1163(3) 0.4382(2) 0.3358(3)
C59 C 0.3035(3) 0.4264(3) 0.3942(4)
H33 H 0.3012 0.4335 0.4647
H34 H 0.3654 0.4902 0.4204
H35 H 0.3143 0.3563 0.3519
C61 C 0.0224(3) 0.4326(3) 0.2314(3)
H39 H 0.0074 0.5035 0.2579
C62 C 0.0510(4) 0.8712(3) 0.5804(4)
H41 H 0.0841 0.8341 0.6219
H42 H 0.0323 0.9301 0.6309
H43 H 0.1043 0.9049 0.5653
C64 C 0.0647(4) 0.4144(4) 0.1441(4)
H47 H 0.0143 0.3430 0.0661
H48 H 0.0679 0.4765 0.1296
C65 C 0.1771(4) 0.4104(3) 0.1990(4)
H49 H 0.1793 0.3373 0.1469
H50 H 0.2330 0.4711 0.2109
O32 O 0.15345(19) 0.6263(2) 0.6804(2)
C66 C 0.0711(3) 0.3213(3) 0.5790(3)
N4 N 0.0502(3) 0.2112(3) 0.5341(3)
C69 C 0.1811(3) 0.4059(3) 0.6879(3)
H56 H 0.1727 0.4780 0.7284
H57 H 0.2067 0.3796 0.7433
H58 H 0.2360 0.4154 0.6631
H60 H 0.0467 0.6304 0.8060
C72 C 0.1203(4) 0.1637(4) 0.5928(4)
H64 H 0.1870 0.2245 0.6673
H65 H 0.0786 0.1211 0.6118
H66 H 0.1425 0.1137 0.5387
H71 H 0.161(4) 0.7020(13) 0.731(4)
H72 H 0.2268(19) 0.645(3) 0.691(5)
Cd13_2 Cd 1.0000 0.5000 0.5000
O29 O 0.84655(19) 0.3737(2) 0.3196(2)
C57 C 0.9289(3) 0.6787(3) 0.4210(3)
N2 N 0.9498(3) 0.7888(3) 0.4659(3)
C60 C 0.8189(3) 0.5941(3) 0.3121(3)
H36 H 0.8273 0.5220 0.2716
H37 H 0.7933 0.6204 0.2567
H38 H 0.7640 0.5846 0.3369
H40 H 0.9533 0.3696 0.1940
C63 C 0.8797(4) 0.8363(4) 0.4072(4)
H44 H 0.8130 0.7755 0.3327
H45 H 0.9214 0.8789 0.3882
H46 H 0.8575 0.8863 0.4613
H51 H 0.839(4) 0.2980(13) 0.269(4)
H52 H 0.7732(19) 0.355(3) 0.309(5)
O33 O 0.9989(2) 0.3526(2) 0.5280(2)
O34 O 0.8846(2) 0.5522(2) 0.5735(2)
N3 N 0.8003(3) 0.5745(2) 0.6860(3)
C67 C 0.8837(3) 0.5618(2) 0.6642(3)
C68 C 0.6965(3) 0.5736(3) 0.6058(4)
H53 H 0.6988 0.5665 0.5353
H54 H 0.6346 0.5098 0.5796
H55 H 0.6857 0.6437 0.6481
C70 C 0.9776(3) 0.5674(3) 0.7686(3)
H59 H 0.9926 0.4965 0.7421
C71 C 0.9490(4) 0.1288(3) 0.4196(4)
H61 H 0.9159 0.1659 0.3781
H62 H 0.9677 0.0699 0.3691
H63 H 0.8957 0.0951 0.4347
C73 C 0.9353(4) 0.5856(4) 0.8559(4)
H67 H 0.9857 0.6570 0.9339
H68 H 0.9321 0.5235 0.8704
C74 C 0.8229(4) 0.5896(3) 0.8010(4)
H69 H 0.8207 0.6627 0.8531
H70 H 0.7670 0.5289 0.7891
loop_
_geom_bond_atom_site_label_1
_geom_bond_atom_site_label_2
_geom_bond_site_symmetry_1
_geom_bond_site_symmetry_2
Cd6 O6 1_555 1_555
O4 C17 1_555 1_555
C12 H4 1_555 1_555
C14 H6 1_555 1_555
C17 C20 1_555 1_555
C20 C12 1_555 1_555
Cd12_2 O4 1_555 1_555
C14 C20 1_555 1_555
Cd6 O1 1_555 1_555
Cd12 O1 1_555 1_555
O1 C7 1_555 1_555
O2 Cd6 1_555 1_555
C7 O2 1_555 1_555
O18 Cd6 1_555 1_555
O21 Cd12 1_555 1_555
O22 Cd6 1_555 1_555
O26 Cd6 1_555 1_555
O28 Cd12 1_555 1_555
Si1 C1 1_555 1_555
C1 C15 1_555 1_555
C2 Si1 1_555 1_555
O22 C3 1_555 1_555
C3 O26 1_555 1_555
C5 Si1 1_555 1_555
C10 C4 1_555 1_555
H3 C10 1_555 1_555
C13 C5 1_555 1_555
H5 C13 1_555 1_555
C15 C10 1_555 1_555
H7 C15 1_555 1_555
C16 H8 1_555 1_555
C22 C2 1_555 1_555
H11 C22 1_555 1_555
C23 C3 1_555 1_555
C24 C13 1_555 1_555
H12 C24 1_555 1_555
C25 C4 1_555 1_555
H13 C25 1_555 1_555
C26 C1 1_555 1_555
H14 C26 1_555 1_555
C27 C5 1_555 1_555
H15 C27 1_555 1_555
C28 C2 1_555 1_555
H16 C28 1_555 1_555
O11 C47 1_555 1_555
C34 C36 1_555 1_555
C36 H17 1_555 1_555
C37 C36 1_555 1_555
H18 C37 1_555 1_555
O16 Cd12_2 1_555 1_555
C46 C34 1_555 1_555
H25 C46 1_555 1_555
C47 C34 1_555 1_555
C49 C39 1_555 1_555
Cd9 O11 1_555 1_555
O17 Cd12_2 1_555 1_555
C16 C23 1_555 1_555
C16 C27 1_555 1_555
C23 C24 1_555 1_555
C25 C26 1_555 1_555
C37 C39 1_555 1_555
O16 C47 1_555 1_555
C46 C49 1_555 1_555
Cd9 O17 1_555 1_555
O18 C19 1_555 1_555
C6 C8 1_555 1_555
C8 H1 1_555 1_555
C9 C8 1_555 1_555
H2 C9 1_555 1_555
O28 C19 1_555 1_555
C18 C6 1_555 1_555
H9 C18 1_555 1_555
C19 C6 1_555 1_555
C21 C11 1_555 1_555
Si2 C29 1_555 1_555
C29 C43 1_555 1_555
C30 Si2 1_555 1_555
O13 C31 1_555 1_555
C31 O15 1_555 1_555
C33 Si2 1_555 1_555
O15 Cd9 1_555 1_555
C38 C32 1_555 1_555
H19 C38 1_555 1_555
C41 C33 1_555 1_555
H21 C41 1_555 1_555
C43 C38 1_555 1_555
H23 C43 1_555 1_555
C44 H24 1_555 1_555
C50 C30 1_555 1_555
H27 C50 1_555 1_555
C51 C31 1_555 1_555
C52 C41 1_555 1_555
H28 C52 1_555 1_555
C53 C32 1_555 1_555
H29 C53 1_555 1_555
C54 C29 1_555 1_555
H30 C54 1_555 1_555
C55 C33 1_555 1_555
H31 C55 1_555 1_555
C56 C30 1_555 1_555
H32 C56 1_555 1_555
Cd9 O13 1_555 1_555
C9 C11 1_555 1_555
C18 C21 1_555 1_555
C44 C51 1_555 1_555
C44 C55 1_555 1_555
C51 C52 1_555 1_555
C53 C54 1_555 1_555
O17 C35 1_555 1_555
O10 Cd9 1_555 1_555
C35 O10 1_555 1_555
O25 Cd9 1_555 1_555
O21 C45 1_555 1_555
C40 H20 1_555 1_555
C42 H22 1_555 1_555
C45 C48 1_555 1_555
C48 C40 1_555 1_555
C42 C48 1_555 1_555
O30 Cd13 1_555 1_555
O31 Cd13 1_555 1_555
N1 C58 1_555 1_555
C58 O31 1_555 1_555
C59 N1 1_555 1_555
H33 C59 1_555 1_555
H34 C59 1_555 1_555
H35 C59 1_555 1_555
C61 C58 1_555 1_555
H39 C61 1_555 1_555
H41 C62 1_555 1_555
H42 C62 1_555 1_555
H43 C62 1_555 1_555
C64 C61 1_555 1_555
H47 C64 1_555 1_555
H48 C64 1_555 1_555
C65 N1 1_555 1_555
H49 C65 1_555 1_555
H50 C65 1_555 1_555
O32 Cd13 1_555 1_555
N4 C66 1_555 1_555
C69 C66 1_555 1_555
H56 C69 1_555 1_555
H57 C69 1_555 1_555
H58 C69 1_555 1_555
C72 N4 1_555 1_555
H64 C72 1_555 1_555
H65 C72 1_555 1_555
H66 C72 1_555 1_555
H71 O32 1_555 1_555
H72 O32 1_555 1_555
C64 C65 1_555 1_555
Cd13_2 O29 1_555 1_555
O29 H51 1_555 1_555
N2 C57 1_555 1_555
C60 C57 1_555 1_555
H36 C60 1_555 1_555
H37 C60 1_555 1_555
H38 C60 1_555 1_555
C63 N2 1_555 1_555
H44 C63 1_555 1_555
H45 C63 1_555 1_555
H46 C63 1_555 1_555
H52 O29 1_555 1_555
O33 Cd13_2 1_555 1_555
O34 Cd13_2 1_555 1_555
N3 C67 1_555 1_555
C67 O34 1_555 1_555
C68 N3 1_555 1_555
H53 C68 1_555 1_555
H54 C68 1_555 1_555
H55 C68 1_555 1_555
C70 C67 1_555 1_555
H59 C70 1_555 1_555
H61 C71 1_555 1_555
H62 C71 1_555 1_555
H63 C71 1_555 1_555
C73 C70 1_555 1_555
H67 C73 1_555 1_555
H68 C73 1_555 1_555
C74 N3 1_555 1_555
H69 C74 1_555 1_555
H70 C74 1_555 1_555
C73 C74 1_555 1_555

#END
