
###############################################################################
#
# This file contains modified crystal structure data generated from the
# MOF subset of the Cambridge Structural Database (CSD) v543 
# hosted by the Cambridge Crystallographic Data Centre (CCDC).
#
# This work is licensed under the Creative Commons
# Attribution-NonCommercial-ShareAlike 4.0 International License.
# To view a copy of this license, visit
# http://creativecommons.org/licenses/by-nc-sa/4.0/
# or send a letter to
# Creative Commons, PO Box 1866, Mountain View, CA 94042, USA.
#
# CIF created using the CSD Python API on 29 September 2022
# The structure has been converted into the P1 space group
# The structure has a 3D framework
# The original CSD entry ODODOC is in the triclinic crystal system
# The framework has been calculated to contain at least 10.0% void space
# The void calculation uses a probe of radius 1.32A, grid spacing 0.4
# The framework is charged, counterions have been retained in the structure
#
###############################################################################

data_ODODOC
_chemical_formula_moiety         '(C74 H74 Cd8 N6 O22 Si2 2+)n'
_symmetry_cell_setting           triclinic
_symmetry_space_group_name_H-M   'P 1'
_symmetry_Int_Tables_number      1
_space_group_name_Hall           'P 1'
loop_
_symmetry_equiv_pos_site_id
_symmetry_equiv_pos_as_xyz
1 x,y,z
_cell_length_a                   13.875(7)
_cell_length_b                   14.072(7)
_cell_length_c                   14.208(7)
_cell_angle_alpha                116.300(5)
_cell_angle_beta                 109.724(5)
_cell_angle_gamma                101.428(5)
_cell_volume                     2133.13
loop_
_atom_site_label
_atom_site_type_symbol
_atom_site_fract_x
_atom_site_fract_y
_atom_site_fract_z
Cd7 Cd -0.0000 0.0000 -0.0000
Cd10 Cd 0.29469(2) 0.12624(3) 0.11388(3)
Cd7_2 Cd -0.0000 -0.0000 1.0000
O6 O 0.2837(3) 0.9435(3) 0.0118(3)
Cd7_3 Cd -0.0000 1.0000 -0.0000
Si1 Si 0.01012(9) 0.34604(10) 0.61091(10)
O1 O 0.2832(3) 0.2871(3) 0.2751(3)
O2 O 0.1665(2) 0.1031(3) 0.1820(3)
O5 O 0.2323(3) 0.1706(3) 0.9808(3)
C1 C 0.1791(4) 0.5779(4) 0.8037(4)
H1 H 0.2310 0.5431 0.8103
C2 C 0.0802(3) 0.3101(4) 0.5155(4)
C3 C 0.0386(5) 0.2785(6) 0.6994(5)
O7 O 0.0625(3) 0.1369(3) 0.9706(3)
C5 C 0.1661(4) 0.2447(4) 0.3545(4)
C7 C 0.2090(4) 0.2115(4) 0.2657(4)
C10 C 0.0652(4) 0.5074(4) 0.7188(4)
C11 C 0.1339(5) 0.1653(6) 0.9413(5)
C12 C 0.0987(5) 0.1996(6) 0.8530(5)
C13 C 0.1592(4) 0.3937(4) 0.5210(4)
H3 H 0.1841 0.4737 0.5798
C14 C 0.2173(4) 0.6978(4) 0.8786(4)
H4 H 0.2949 0.7441 0.9347
C15 C 0.0465(4) 0.1921(4) 0.4281(4)
C16 C 0.2024(4) 0.3621(4) 0.4420(4)
H6 H 0.2566 0.4204 0.4474
C17 C 0.0887(4) 0.1607(4) 0.3488(4)
H7 H 0.0642 0.0808 0.2899
C20 C 0.1601(5) 0.2128(6) 0.7985(5)
H10 H 0.2245 0.1957 0.8128
C21 C 0.1294(5) 0.2508(5) 0.7224(5)
H11 H 0.1731 0.2579 0.6848
C24 C 0.0091(5) 0.2291(6) 0.8345(5)
C25 C 0.1424(4) 0.7504(4) 0.8716(4)
C26 C 0.0295(4) 0.6816(4) 0.7913(5)
O8 O 0.1070(3) 0.9199(3) 0.9326(3)
C28 C 0.1805(4) 0.8806(4) 0.9446(4)
Cd7_4 Cd -0.0000 1.0000 1.0000
O17 O 0.4369(3) 0.1547(3) 0.2890(3)
O19 O 0.4875(3) 0.2204(3) 0.1903(3)
O11 O 0.5631(3) 0.8453(3) 0.7110(3)
O12 O 0.5125(3) 0.7796(3) 0.8097(3)
C32 C 0.1431(3) 0.7055(4) 0.4927(4)
C34 C 0.4896(4) 0.7972(4) 0.7265(4)
C36 C 0.2865(4) 0.7380(4) 0.6736(4)
H18 H 0.3057 0.7399 0.7454
C37 C 0.3683(4) 0.7611(4) 0.6431(4)
H21 H 0.0059 0.8667 0.5763
C46 C 0.1756(4) 0.7119(5) 0.6000(5)
H24 H 0.1208 0.6981 0.6238
C47 C 0.0085(4) 0.4383(4) 0.2850(4)
H25 H 0.0863 0.4840 0.3408
C50 C 0.2269(4) 0.7264(6) 0.4626(5)
H28 H 0.2075 0.7211 0.3891
C51 C 0.0186(5) 0.7289(6) 0.2384(5)
H29 H 0.0784 0.7045 0.2461
H30 H 0.0345 0.7792 0.1284
H31 H 0.0227 0.2837 0.2120
C55 C 0.3388(4) 0.7548(6) 0.5369(5)
H32 H 0.3942 0.7696 0.5143
Cd13 Cd 0.70531(2) 0.87376(3) 0.88612(3)
Cd7_5 Cd 1.0000 0.0000 -0.0000
Cd7_6 Cd 1.0000 -0.0000 1.0000
Cd7_7 Cd 1.0000 1.0000 -0.0000
C4 C 0.8569(3) 0.2945(4) 0.5073(4)
C6 C 0.5104(4) 0.2028(4) 0.2735(4)
C8 C 0.7135(4) 0.2620(4) 0.3264(4)
H2 H 0.6943 0.2601 0.2546
C9 C 0.6317(4) 0.2389(4) 0.3569(4)
H5 H 0.9941 0.1333 0.4237
C18 C 0.8244(4) 0.2881(5) 0.4000(5)
H8 H 0.8792 0.3019 0.3762
C19 C 0.9915(4) 0.5617(4) 0.7150(4)
H9 H 0.9137 0.5160 0.6592
C22 C 0.7731(4) 0.2736(6) 0.5374(5)
H12 H 0.7925 0.2789 0.6109
C23 C 0.9814(5) 0.2711(6) 0.7616(5)
H13 H 0.9216 0.2955 0.7539
H14 H 0.9655 0.2208 0.8716
H15 H 0.9773 0.7163 0.7880
C27 C 0.6612(4) 0.2452(6) 0.4631(5)
H16 H 0.6058 0.2304 0.4857
Cd7_8 Cd 1.0000 1.0000 1.0000
O28 O 0.8930(3) 0.0801(3) 0.0674(3)
O24 O 0.7163(3) 0.0565(3) 0.9882(3)
O22 O 0.7677(3) 0.8294(3) 0.0192(3)
O26 O 0.9375(3) 0.8631(3) 0.0294(3)
Si2 Si 0.98988(9) 0.65396(10) 0.38909(10)
O9 O 0.7168(3) 0.7129(3) 0.7249(3)
O10 O 0.8335(2) 0.8969(3) 0.8180(3)
C29 C 0.8209(4) 0.4221(4) 0.1963(4)
H17 H 0.7690 0.4569 0.1897
C30 C 0.9198(3) 0.6899(4) 0.4845(4)
C31 C 0.9614(5) 0.7215(6) 0.3006(5)
C33 C 0.8339(4) 0.7553(4) 0.6455(4)
C35 C 0.7910(4) 0.7885(4) 0.7343(4)
C38 C 0.9348(4) 0.4926(4) 0.2812(4)
C39 C 0.8661(5) 0.8347(6) 0.0587(5)
C40 C 0.9013(5) 0.8004(6) 0.1470(5)
C41 C 0.8408(4) 0.6063(4) 0.4790(4)
H19 H 0.8159 0.5263 0.4202
C42 C 0.7827(4) 0.3022(4) 0.1214(4)
H20 H 0.7051 0.2559 0.0653
C43 C 0.9535(4) 0.8079(4) 0.5719(4)
C44 C 0.7976(4) 0.6379(4) 0.5580(4)
H22 H 0.7434 0.5796 0.5526
C45 C 0.9113(4) 0.8393(4) 0.6512(4)
H23 H 0.9358 0.9192 0.7101
C48 C 0.8399(5) 0.7872(6) 0.2015(5)
H26 H 0.7755 0.8043 0.1872
C49 C 0.8706(5) 0.7492(5) 0.2776(5)
H27 H 0.8269 0.7421 0.3152
C52 C 0.9909(5) 0.7709(6) 0.1655(5)
C53 C 0.8576(4) 0.2496(4) 0.1284(4)
C54 C 0.9705(4) 0.3184(4) 0.2087(5)
C56 C 0.8195(4) 0.1194(4) 0.0554(4)
H57 H 0.6236 0.0026 0.1209
Cd14 Cd 0.5000 0.5000 0.0000
H33 H 0.4897 0.2759 0.0168
O30 O 0.5886(4) 0.5043(4) 0.1726(4)
O31 O 0.3502(5) 0.4967(5) 0.0278(5)
H34 H 0.4810 0.1089 0.0010
C59 C 0.3066(8) 0.4675(7) 0.0661(8)
H37 H 0.3266 0.4132 0.0816
N2 N 0.2302(6) 0.4931(6) 0.0956(7)
C60 C 0.2034(8) 0.4482(7) 0.1611(8)
H38 H 0.2411 0.3968 0.1643
H39 H 0.1219 0.4042 0.1208
H40 H 0.2289 0.5128 0.2428
C61 C 0.1741(8) 0.5608(7) 0.0718(8)
H41 H 0.2017 0.6356 0.1468
H42 H 0.0930 0.5190 0.0372
H43 H 0.1888 0.5744 0.0151
N3 N 0.5485(5) 0.5705(5) 0.3274(5)
C63 C 0.5566(6) 0.4886(6) 0.2396(6)
H47 H 0.5370 0.4136 0.2267
C64 C 0.5872(6) 0.6889(6) 0.3557(6)
H48 H 0.6535 0.7403 0.4355
H49 H 0.5273 0.7161 0.3547
H50 H 0.6068 0.6899 0.2959
C65 C 0.5060(6) 0.5491(6) 0.3977(6)
H51 H 0.4880 0.4680 0.3730
H52 H 0.4380 0.5635 0.3857
H53 H 0.5629 0.6010 0.4827
O32 O 0.5561(4) 0.6957(3) 0.1056(4)
N4 N 0.5668(4) 0.8702(4) 0.1358(4)
C66 C 0.5416(4) 0.7587(4) 0.0672(5)
C67 C 0.5510(5) 0.9402(5) 0.0863(5)
H56 H 0.4997 0.9741 0.1057
C71 C 0.6138(9) 0.9294(6) 0.2653(6)
H65 H 0.6948 0.9751 0.3046
H66 H 0.5776 0.9812 0.2928
H67 H 0.6005 0.8717 0.2856
Cd14_2 Cd 0.5000 0.5000 1.0000
O29 O 0.4439(4) 0.3043(3) 0.8944(4)
N1 N 0.4332(4) 0.1298(4) 0.8642(4)
C57 C 0.4584(4) 0.2413(4) 0.9328(5)
C58 C 0.4490(5) 0.0598(5) 0.9137(5)
H35 H 0.5003 0.0259 0.8943
C62 C 0.3862(9) 0.0706(6) 0.7347(6)
H44 H 0.3052 0.0249 0.6954
H45 H 0.4224 0.0188 0.7072
H46 H 0.3995 0.1283 0.7144
H54 H 0.5103 0.7241 0.9832
O33 O 0.4114(4) 0.4957(4) 0.8274(4)
O34 O 0.6498(5) 0.5033(5) 0.9722(5)
H55 H 0.5190 0.8911 0.9990
C68 C 0.6934(8) 0.5325(7) 0.9339(8)
H58 H 0.6734 0.5868 0.9184
N5 N 0.7698(6) 0.5069(6) 0.9044(7)
C69 C 0.7966(8) 0.5518(7) 0.8389(8)
H59 H 0.7589 0.6032 0.8357
H60 H 0.8781 0.5958 0.8792
H61 H 0.7711 0.4872 0.7572
C70 C 0.8259(8) 0.4392(7) 0.9282(8)
H62 H 0.7983 0.3644 0.8532
H63 H 0.9070 0.4810 0.9628
H64 H 0.8112 0.4256 0.9849
N6 N 0.4515(5) 0.4295(5) 0.6726(5)
C72 C 0.4434(6) 0.5114(6) 0.7604(6)
H68 H 0.4630 0.5864 0.7733
C73 C 0.4128(6) 0.3111(6) 0.6443(6)
H69 H 0.3465 0.2597 0.5645
H70 H 0.4727 0.2839 0.6453
H71 H 0.3932 0.3101 0.7041
C74 C 0.4940(6) 0.4509(6) 0.6023(6)
H72 H 0.5120 0.5320 0.6270
H73 H 0.5620 0.4365 0.6143
H74 H 0.4371 0.3990 0.5173
H36 H 0.3764 0.9974 0.8791
loop_
_geom_bond_atom_site_label_1
_geom_bond_atom_site_label_2
_geom_bond_site_symmetry_1
_geom_bond_site_symmetry_2
Cd7 O2 1_555 1_555
Cd10 O1 1_555 1_555
Si1 C2 1_555 1_555
O1 C7 1_555 1_555
O2 Cd10 1_555 1_555
O5 C11 1_555 1_555
C1 H1 1_555 1_555
C2 C13 1_555 1_555
C3 Si1 1_555 1_555
O7 C11 1_555 1_555
C5 C7 1_555 1_555
C7 O2 1_555 1_555
C10 Si1 1_555 1_555
C11 C12 1_555 1_555
C12 C20 1_555 1_555
C13 H3 1_555 1_555
C14 C1 1_555 1_555
H4 C14 1_555 1_555
C15 C2 1_555 1_555
C16 C5 1_555 1_555
H6 C16 1_555 1_555
C17 C5 1_555 1_555
H7 C17 1_555 1_555
C20 H10 1_555 1_555
C21 C3 1_555 1_555
H11 C21 1_555 1_555
C24 C12 1_555 1_555
C25 C14 1_555 1_555
O8 C28 1_555 1_555
C28 C25 1_555 1_555
Cd7_2 O7 1_555 1_555
Cd7_4 O8 1_555 1_555
O17 Cd10 1_555 1_555
O19 Cd10 1_555 1_555
C1 C10 1_555 1_555
C13 C16 1_555 1_555
C15 C17 1_555 1_555
C20 C21 1_555 1_555
C25 C26 1_555 1_555
O11 C34 1_555 1_555
O12 C34 1_555 1_555
C34 C37 1_555 1_555
C36 H18 1_555 1_555
C37 C36 1_555 1_555
C46 C32 1_555 1_555
H24 C46 1_555 1_555
H25 C47 1_555 1_555
C50 C32 1_555 1_555
H28 C50 1_555 1_555
H29 C51 1_555 1_555
C55 C37 1_555 1_555
H32 C55 1_555 1_555
Cd13 O11 1_555 1_555
O12 Cd13 1_555 1_555
C36 C46 1_555 1_555
C50 C55 1_555 1_555
O17 C6 1_555 1_555
O19 C6 1_555 1_555
C6 C9 1_555 1_555
C8 H2 1_555 1_555
C9 C8 1_555 1_555
C18 C4 1_555 1_555
H8 C18 1_555 1_555
H9 C19 1_555 1_555
C22 C4 1_555 1_555
H12 C22 1_555 1_555
H13 C23 1_555 1_555
C27 C9 1_555 1_555
H16 C27 1_555 1_555
O28 Cd7_5 1_555 1_555
C8 C18 1_555 1_555
C22 C27 1_555 1_555
O26 Cd7_7 1_555 1_555
Cd13 O9 1_555 1_555
Si2 C30 1_555 1_555
O9 C35 1_555 1_555
O10 Cd7_8 1_555 1_555
O22 C39 1_555 1_555
C29 H17 1_555 1_555
C30 C41 1_555 1_555
C31 Si2 1_555 1_555
O26 C39 1_555 1_555
C33 C35 1_555 1_555
C35 O10 1_555 1_555
C38 Si2 1_555 1_555
C39 C40 1_555 1_555
C40 C48 1_555 1_555
C41 H19 1_555 1_555
C42 C29 1_555 1_555
H20 C42 1_555 1_555
C43 C30 1_555 1_555
C44 C33 1_555 1_555
H22 C44 1_555 1_555
C45 C33 1_555 1_555
H23 C45 1_555 1_555
C48 H26 1_555 1_555
C49 C31 1_555 1_555
H27 C49 1_555 1_555
C52 C40 1_555 1_555
C53 C42 1_555 1_555
O28 C56 1_555 1_555
C56 C53 1_555 1_555
Cd13 O10 1_555 1_555
C29 C38 1_555 1_555
C41 C44 1_555 1_555
C43 C45 1_555 1_555
C48 C49 1_555 1_555
C53 C54 1_555 1_555
O30 Cd14 1_555 1_555
O31 Cd14 1_555 1_555
C59 O31 1_555 1_555
H37 C59 1_555 1_555
N2 C59 1_555 1_555
C60 N2 1_555 1_555
H38 C60 1_555 1_555
H39 C60 1_555 1_555
H40 C60 1_555 1_555
C61 N2 1_555 1_555
H41 C61 1_555 1_555
H42 C61 1_555 1_555
H43 C61 1_555 1_555
N3 C63 1_555 1_555
C63 O30 1_555 1_555
H47 C63 1_555 1_555
C64 N3 1_555 1_555
H48 C64 1_555 1_555
H49 C64 1_555 1_555
H50 C64 1_555 1_555
C65 N3 1_555 1_555
H51 C65 1_555 1_555
H52 C65 1_555 1_555
H53 C65 1_555 1_555
O32 Cd14 1_555 1_555
N4 C66 1_555 1_555
C66 O32 1_555 1_555
C67 N4 1_555 1_555
H56 C67 1_555 1_555
C71 N4 1_555 1_555
H65 C71 1_555 1_555
H66 C71 1_555 1_555
H67 C71 1_555 1_555
Cd14_2 O29 1_555 1_555
O29 C57 1_555 1_555
N1 C57 1_555 1_555
C58 N1 1_555 1_555
H35 C58 1_555 1_555
C62 N1 1_555 1_555
H44 C62 1_555 1_555
H45 C62 1_555 1_555
H46 C62 1_555 1_555
O33 Cd14_2 1_555 1_555
O34 Cd14_2 1_555 1_555
C68 O34 1_555 1_555
H58 C68 1_555 1_555
N5 C68 1_555 1_555
C69 N5 1_555 1_555
H59 C69 1_555 1_555
H60 C69 1_555 1_555
H61 C69 1_555 1_555
C70 N5 1_555 1_555
H62 C70 1_555 1_555
H63 C70 1_555 1_555
H64 C70 1_555 1_555
N6 C72 1_555 1_555
C72 O33 1_555 1_555
H68 C72 1_555 1_555
C73 N6 1_555 1_555
H69 C73 1_555 1_555
H70 C73 1_555 1_555
H71 C73 1_555 1_555
C74 N6 1_555 1_555
H72 C74 1_555 1_555
H73 C74 1_555 1_555
H74 C74 1_555 1_555

#END
