
###############################################################################
#
# This file contains modified crystal structure data generated from the
# MOF subset of the Cambridge Structural Database (CSD) v543 
# hosted by the Cambridge Crystallographic Data Centre (CCDC).
#
# This work is licensed under the Creative Commons
# Attribution-NonCommercial-ShareAlike 4.0 International License.
# To view a copy of this license, visit
# http://creativecommons.org/licenses/by-nc-sa/4.0/
# or send a letter to
# Creative Commons, PO Box 1866, Mountain View, CA 94042, USA.
#
# CIF created using the CSD Python API on 29 September 2022
# The structure has been converted into the P1 space group
# The structure has a 3D framework
# The original CSD entry ODODIW is in the triclinic crystal system
# The framework has been calculated to contain at least 10.0% void space
# The void calculation uses a probe of radius 1.32A, grid spacing 0.4
#
###############################################################################

data_ODODIW
_chemical_formula_moiety         '(C62 H47 N2 O19 Si2 Zn4)n'
_symmetry_cell_setting           triclinic
_symmetry_space_group_name_H-M   'P 1'
_symmetry_Int_Tables_number      1
_space_group_name_Hall           'P 1'
loop_
_symmetry_equiv_pos_site_id
_symmetry_equiv_pos_as_xyz
1 x,y,z
_cell_length_a                   13.9350(16)
_cell_length_b                   14.196(3)
_cell_length_c                   14.6708(17)
_cell_angle_alpha                107.988(2)
_cell_angle_beta                 113.7350(10)
_cell_angle_gamma                100.298(2)
_cell_volume                     2368.84
loop_
_atom_site_label
_atom_site_type_symbol
_atom_site_fract_x
_atom_site_fract_y
_atom_site_fract_z
O3 O 0.3123(4) 0.1105(4) 0.2139(4)
O4 O 0.4751(3) 0.2443(3) 0.3211(4)
O5 O 0.2704(3) 0.8642(3) 0.1488(3)
O6 O 0.4477(3) 0.9072(3) 0.1778(4)
C8 C 0.3839(5) 0.1938(5) 0.2355(5)
C9 C 0.3511(5) 0.2370(5) 0.1497(5)
C10 C 0.4095(5) 0.3402(5) 0.1743(5)
H5 H 0.4733 0.3836 0.2443
C11 C 0.3731(5) 0.3782(5) 0.0950(5)
H6 H 0.4109 0.4493 0.1127
C14 C 0.2590(6) 0.1742(5) 0.0469(5)
H8 H 0.2178 0.1048 0.0310
C15 C 0.3518(5) 0.8424(5) 0.1353(5)
C16 C 0.3235(5) 0.7295(5) 0.0656(5)
C17 C 0.4057(5) 0.6933(5) 0.0523(5)
H9 H 0.4785 0.7419 0.0822
C21 C 0.2163(5) 0.6579(5) 0.0154(5)
H12 H 0.1591 0.6822 0.0219
Zn8 Zn 0.52875(6) 0.20329(6) 0.44345(6)
Zn12 Zn 0.30330(7) 0.99584(5) 0.26420(7)
Zn1 Zn 0.5000 0.0000 0.5000
Si1 Si 0.23617(12) 0.36569(12) 0.88000(12)
O7 O 0.4651(3) 0.2434(3) 0.5395(3)
O8 O 0.4270(3) 0.0951(3) 0.5626(3)
C4 C 0.0325(5) 0.2902(6) 0.6830(5)
H2 H 0.0792 0.3085 0.6540
C5 C 0.0806(4) 0.3036(4) 0.7912(4)
C6 C 0.0088(5) 0.2796(4) 0.8337(5)
H3 H 0.0398 0.2923 0.9089
C12 C 0.2821(5) 0.3150(5) 0.9893(5)
C13 C 0.2272(5) 0.2123(5) 0.9675(5)
H7 H 0.1662 0.1672 0.8962
C18 C 0.3809(5) 0.5850(5) 0.9947(5)
H10 H 0.4383 0.5607 0.9888
C19 C 0.2725(5) 0.5117(4) 0.9455(4)
C20 C 0.1909(5) 0.5504(5) 0.9554(5)
H11 H 0.1164 0.5030 0.9207
C22 C 0.4293(5) 0.1880(5) 0.5788(5)
C23 C 0.3828(5) 0.2350(5) 0.6510(5)
C24 C 0.3934(5) 0.3414(4) 0.6860(5)
H13 H 0.4291 0.3853 0.6631
C25 C 0.3512(5) 0.3832(5) 0.7550(5)
H14 H 0.3579 0.4555 0.7779
C26 C 0.2995(4) 0.3207(4) 0.7909(5)
C27 C 0.2899(5) 0.2135(5) 0.7535(5)
H15 H 0.2546 0.1689 0.7761
C28 C 0.3305(5) 0.1724(5) 0.6853(5)
H16 H 0.3226 0.0998 0.6612
O9 O 0.4642(3) 0.0449(3) 0.3744(3)
O10 O 0.2048(5) 0.0199(6) 0.3236(6)
N1 N 0.1129(6) 0.0977(7) 0.3951(6)
C29 C 0.1856(8) 0.0958(8) 0.3541(7)
H17 H 0.2207 0.1576 0.3508
C30 C 0.1013(10) 0.1982(8) 0.4305(9)
H18 H 0.1454 0.2462 0.4145
H19 H 0.1281 0.2271 0.5097
H20 H 0.0224 0.1905 0.3915
C31 C 0.0523(10) 0.0173(11) 0.4172(17)
H21 H 0.0027 0.0439 0.4418
H22 H 0.1066 0.0035 0.4745
H24 H 0.481(5) 0.013(5) 0.317(6)
O21 O 0.6857(4) 0.2195(4) 0.5134(4)
O23 O 0.6638(3) 0.1227(3) 0.6050(4)
Zn1_2 Zn 0.5000 1.0000 0.5000
H23 H 0.0080 0.9517 0.3498
O11 O 0.3143(4) 0.7805(4) 0.4866(4)
O12 O 0.3362(3) 0.8773(3) 0.3950(4)
C32 C 0.2775(5) 0.8157(5) 0.4128(5)
C33 C 0.1540(5) 0.7758(5) 0.3428(5)
C34 C 0.0832(5) 0.7495(6) 0.3842(5)
H25 H 0.1143 0.7588 0.4585
C38 C 0.1051(5) 0.7618(5) 0.2332(5)
H28 H 0.1517 0.7814 0.2046
Zn10 Zn 0.47125(6) 0.79671(6) 0.55655(6)
O30 O 0.5730(3) 0.9049(3) 0.4374(3)
O31 O 0.5358(3) 0.9551(3) 0.6256(3)
C1 C 0.7225(5) 0.1843(5) 0.5872(5)
C2 C 0.8460(5) 0.2242(5) 0.6572(5)
C3 C 0.9168(5) 0.2505(6) 0.6158(5)
H1 H 0.8857 0.2412 0.5415
C7 C 0.8949(5) 0.2382(5) 0.7668(5)
H4 H 0.8483 0.2186 0.7954
Zn5 Zn 0.69670(7) 0.00416(5) 0.73580(7)
H47 H 0.9920 0.0483 0.6502
O29 O 0.7296(3) 0.1358(3) 0.8512(3)
Si2 Si 0.76383(12) 0.63431(12) 0.12000(12)
O17 O 0.5349(3) 0.7566(3) 0.4605(3)
C35 C 0.9675(5) 0.7098(6) 0.3170(5)
H26 H 0.9208 0.6915 0.3460
C36 C 0.9194(4) 0.6964(4) 0.2088(4)
C37 C 0.9912(5) 0.7204(4) 0.1663(5)
H27 H 0.9602 0.7077 0.0911
C43 C 0.7179(5) 0.6850(5) 0.0107(5)
C44 C 0.7728(5) 0.7877(5) 0.0325(5)
H31 H 0.8338 0.8328 0.1038
C49 C 0.6191(5) 0.4150(5) 0.0053(5)
H34 H 0.5617 0.4393 0.0112
C50 C 0.7275(5) 0.4883(4) 0.0545(4)
C51 C 0.8091(5) 0.4496(5) 0.0446(5)
H35 H 0.8836 0.4970 0.0793
C53 C 0.5707(5) 0.8120(5) 0.4212(5)
C54 C 0.6172(5) 0.7650(5) 0.3490(5)
C55 C 0.6066(5) 0.6586(4) 0.3140(5)
H37 H 0.5709 0.6147 0.3369
C56 C 0.6488(5) 0.6168(5) 0.2450(5)
H38 H 0.6421 0.5445 0.2221
C57 C 0.7005(4) 0.6793(4) 0.2091(5)
C58 C 0.7101(5) 0.7865(5) 0.2465(5)
H39 H 0.7454 0.8311 0.2239
C59 C 0.6695(5) 0.8276(5) 0.3147(5)
H40 H 0.6774 0.9002 0.3388
O20 O 0.7952(5) 0.9801(6) 0.6764(6)
N2 N 0.8871(6) 0.9023(7) 0.6049(6)
C60 C 0.8144(8) 0.9042(8) 0.6459(7)
H41 H 0.7793 0.8424 0.6492
C61 C 0.8987(10) 0.8018(8) 0.5695(9)
H42 H 0.8546 0.7538 0.5855
H43 H 0.8719 0.7729 0.4903
H44 H 0.9776 0.8095 0.6085
C62 C 0.9477(10) 0.9827(11) 0.5828(17)
H45 H 0.9973 0.9561 0.5582
H46 H 0.8934 0.9965 0.5255
H48 H 0.519(5) 0.987(5) 0.683(6)
O25 O 0.6877(4) 0.8895(4) 0.7861(4)
O27 O 0.5249(3) 0.7557(3) 0.6789(4)
O16 O 0.5523(3) 0.0928(3) 0.8222(4)
C39 C 0.6161(5) 0.8062(5) 0.7645(5)
C40 C 0.6489(5) 0.7630(5) 0.8503(5)
C41 C 0.5905(5) 0.6598(5) 0.8257(5)
H29 H 0.5267 0.6164 0.7557
C42 C 0.6269(5) 0.6218(5) 0.9050(5)
H30 H 0.5891 0.5507 0.8873
C45 C 0.7410(6) 0.8258(5) 0.9531(5)
H32 H 0.7822 0.8952 0.9690
C46 C 0.6482(5) 0.1576(5) 0.8647(5)
C47 C 0.6765(5) 0.2705(5) 0.9344(5)
C48 C 0.5943(5) 0.3067(5) 0.9477(5)
H33 H 0.5215 0.2581 0.9178
C52 C 0.7837(5) 0.3421(5) 0.9846(5)
H36 H 0.8409 0.3178 0.9781
loop_
_geom_bond_atom_site_label_1
_geom_bond_atom_site_label_2
_geom_bond_site_symmetry_1
_geom_bond_site_symmetry_2
O3 C8 1_555 1_555
O4 C8 1_555 1_555
O5 C15 1_555 1_555
O6 C15 1_555 1_555
C8 C9 1_555 1_555
C9 C10 1_555 1_555
C10 H5 1_555 1_555
C11 C10 1_555 1_555
H6 C11 1_555 1_555
C14 C9 1_555 1_555
H8 C14 1_555 1_555
C15 C16 1_555 1_555
C16 C17 1_555 1_555
C17 H9 1_555 1_555
C21 C16 1_555 1_555
H12 C21 1_555 1_555
Zn8 O4 1_555 1_555
Zn12 O5 1_555 1_555
Zn1 O8 1_555 1_555
Zn8 O7 1_555 1_555
Si1 C5 1_555 1_555
O7 C22 1_555 1_555
O8 C22 1_555 1_555
H2 C4 1_555 1_555
C5 C4 1_555 1_555
C6 C5 1_555 1_555
H3 C6 1_555 1_555
C12 Si1 1_555 1_555
C13 C12 1_555 1_555
H7 C13 1_555 1_555
H10 C18 1_555 1_555
C19 Si1 1_555 1_555
C20 C19 1_555 1_555
H11 C20 1_555 1_555
C22 C23 1_555 1_555
C23 C24 1_555 1_555
C24 H13 1_555 1_555
C25 C24 1_555 1_555
H14 C25 1_555 1_555
C26 Si1 1_555 1_555
C27 C26 1_555 1_555
H15 C27 1_555 1_555
C28 C23 1_555 1_555
H16 C28 1_555 1_555
O9 Zn1 1_555 1_555
N1 C29 1_555 1_555
C29 O10 1_555 1_555
H17 C29 1_555 1_555
C30 N1 1_555 1_555
H18 C30 1_555 1_555
H19 C30 1_555 1_555
H20 C30 1_555 1_555
C31 N1 1_555 1_555
H21 C31 1_555 1_555
H22 C31 1_555 1_555
H24 O9 1_555 1_555
O21 Zn8 1_555 1_555
O23 Zn1 1_555 1_555
Zn8 O9 1_555 1_555
C18 C19 1_555 1_555
C25 C26 1_555 1_555
C27 C28 1_555 1_555
O11 C32 1_555 1_555
O12 Zn1_2 1_555 1_555
C32 O12 1_555 1_555
C33 C32 1_555 1_555
C34 C33 1_555 1_555
H25 C34 1_555 1_555
C38 C33 1_555 1_555
H28 C38 1_555 1_555
Zn10 O11 1_555 1_555
O30 Zn1_2 1_555 1_555
O31 Zn1_2 1_555 1_555
Zn10 O31 1_555 1_555
O21 C1 1_555 1_555
O23 C1 1_555 1_555
C1 C2 1_555 1_555
C2 C3 1_555 1_555
C3 H1 1_555 1_555
C7 C2 1_555 1_555
H4 C7 1_555 1_555
O29 Zn5 1_555 1_555
Zn10 O17 1_555 1_555
Si2 C36 1_555 1_555
O17 C53 1_555 1_555
O30 C53 1_555 1_555
H26 C35 1_555 1_555
C36 C35 1_555 1_555
C37 C36 1_555 1_555
H27 C37 1_555 1_555
C43 Si2 1_555 1_555
C44 C43 1_555 1_555
H31 C44 1_555 1_555
H34 C49 1_555 1_555
C50 Si2 1_555 1_555
C51 C50 1_555 1_555
H35 C51 1_555 1_555
C53 C54 1_555 1_555
C54 C55 1_555 1_555
C55 H37 1_555 1_555
C56 C55 1_555 1_555
H38 C56 1_555 1_555
C57 Si2 1_555 1_555
C58 C57 1_555 1_555
H39 C58 1_555 1_555
C59 C54 1_555 1_555
H40 C59 1_555 1_555
N2 C60 1_555 1_555
C60 O20 1_555 1_555
H41 C60 1_555 1_555
C61 N2 1_555 1_555
H42 C61 1_555 1_555
H43 C61 1_555 1_555
H44 C61 1_555 1_555
C62 N2 1_555 1_555
H45 C62 1_555 1_555
H46 C62 1_555 1_555
H48 O31 1_555 1_555
O27 Zn10 1_555 1_555
C49 C50 1_555 1_555
C56 C57 1_555 1_555
C58 C59 1_555 1_555
O25 C39 1_555 1_555
O27 C39 1_555 1_555
O29 C46 1_555 1_555
O16 C46 1_555 1_555
C39 C40 1_555 1_555
C40 C41 1_555 1_555
C41 H29 1_555 1_555
C42 C41 1_555 1_555
H30 C42 1_555 1_555
C45 C40 1_555 1_555
H32 C45 1_555 1_555
C46 C47 1_555 1_555
C47 C48 1_555 1_555
C48 H33 1_555 1_555
C52 C47 1_555 1_555
H36 C52 1_555 1_555

#END
