
###############################################################################
#
# This file contains modified crystal structure data generated from the
# MOF subset of the Cambridge Structural Database (CSD) v543 
# hosted by the Cambridge Crystallographic Data Centre (CCDC).
#
# This work is licensed under the Creative Commons
# Attribution-NonCommercial-ShareAlike 4.0 International License.
# To view a copy of this license, visit
# http://creativecommons.org/licenses/by-nc-sa/4.0/
# or send a letter to
# Creative Commons, PO Box 1866, Mountain View, CA 94042, USA.
#
# CIF created using the CSD Python API on 29 September 2022
# The structure has been converted into the P1 space group
# The structure has a 3D framework
# The original CSD entry ODOFOF is in the monoclinic crystal system
# The framework has been calculated to contain at least 10.0% void space
# The void calculation uses a probe of radius 1.32A, grid spacing 0.4
#
###############################################################################

data_ODOFOF
_chemical_formula_moiety         '(C264 H152 Cd14 N24 O56)n'
_symmetry_cell_setting           triclinic
_symmetry_space_group_name_H-M   'P 1'
_symmetry_Int_Tables_number      1
_space_group_name_Hall           'P 1'
loop_
_symmetry_equiv_pos_site_id
_symmetry_equiv_pos_as_xyz
1 x,y,z
_cell_length_a                   16.712(2)
_cell_length_b                   22.6392(18)
_cell_length_c                   17.8599(11)
_cell_angle_alpha                90
_cell_angle_beta                 90.388(9)
_cell_angle_gamma                90
_cell_volume                     6757.07
loop_
_atom_site_label
_atom_site_type_symbol
_atom_site_fract_x
_atom_site_fract_y
_atom_site_fract_z
Cd3 Cd 0.28157(4) 0.19143(3) 0.26905(3)
N5 N 0.3312(5) 0.2655(3) 0.3456(4)
N6 N 0.1803(7) 0.2184(5) 0.3544(5)
O10 O 0.2105(4) 0.1750(3) 0.1562(3)
O11 O 0.2206(4) 0.2679(2) 0.1926(3)
O13 O 0.1420(4) 0.6161(2) 0.1859(3)
O14 O 0.2671(4) 0.5878(3) 0.1847(4)
C43 C 0.1557(4) 0.2136(3) 0.0134(4)
H25 H 0.1673 0.1736 0.0189
C44 C 0.1667(4) 0.2501(3) 0.0721(4)
C45 C 0.1997(5) 0.2291(4) 0.1461(5)
C47 C 0.1491(5) 0.3098(3) 0.0639(4)
H26 H 0.1567 0.3356 0.1038
C48 C 0.1265(7) 0.4348(4) 0.0335(5)
C49 C 0.2062(7) 0.4414(4) 0.0504(6)
H27 H 0.2444 0.4152 0.0325
C50 C 0.2273(7) 0.4896(4) 0.0962(5)
H28 H 0.2806 0.4955 0.1093
C51 C 0.1700(7) 0.5280(4) 0.1217(5)
C52 C 0.1965(7) 0.5813(4) 0.1696(5)
C53 C 0.0934(6) 0.5192(3) 0.1005(4)
H29 H 0.0550 0.5464 0.1153
C54 C 0.0698(6) 0.4716(4) 0.0579(5)
H30 H 0.0161 0.4652 0.0464
C55 C 0.4020(8) 0.2891(4) 0.3423(6)
H31 H 0.4374 0.2716 0.3090
C56 C 0.4326(10) 0.3388(6) 0.3838(8)
H32 H 0.4841 0.3541 0.3800
C57 C 0.3726(10) 0.3607(6) 0.4307(8)
H33 H 0.3844 0.3947 0.4578
C58 C 0.3021(9) 0.3379(6) 0.4401(7)
C59 C 0.2799(9) 0.2892(5) 0.3938(5)
C60 C 0.2459(10) 0.3638(5) 0.4901(7)
H34 H 0.2572 0.3971 0.5187
C61 C 0.1766(9) 0.3362(6) 0.4919(7)
H35 H 0.1437 0.3524 0.5284
C62 C 0.1392(11) 0.2913(6) 0.4563(8)
C63 C 0.2007(10) 0.2658(7) 0.3995(6)
C64 C 0.0713(10) 0.2598(6) 0.4482(8)
H36 H 0.0308 0.2723 0.4800
C65 C 0.0508(10) 0.2179(7) 0.4078(9)
C66 C 0.1089(11) 0.1949(6) 0.3569(8)
H38 H 0.0959 0.1634 0.3257
Cd5 Cd -0.0000 0.61125(3) 0.2500
Cd6 Cd 0.21843(4) 0.69143(3) 0.23095(3)
O16 O 0.3972(4) 0.2070(3) 0.1975(3)
O17 O 0.3580(4) 0.1161(2) 0.3141(3)
O21 O 0.2329(4) 0.0878(3) 0.3153(4)
Cd1 Cd -0.0000 0.38875(3) 0.7500
N3 N 0.0696(4) 0.4743(3) 0.7911(3)
H14 H 0.0004 0.2019 0.0896
C28 C 0.1384(6) 0.4755(4) 0.8275(5)
H16 H 0.1598 0.4394 0.8423
C29 C 0.1807(9) 0.5245(6) 0.8455(8)
H17 H 0.2286 0.5221 0.8721
C30 C 0.1509(10) 0.5760(7) 0.8235(8)
H18 H 0.1807 0.6101 0.8324
C31 C 0.0767(10) 0.5814(4) 0.7877(6)
C32 C 0.0371(6) 0.5271(4) 0.7702(4)
C33 C 0.0350(11) 0.6343(5) 0.7656(9)
H19 H 0.0598 0.6705 0.7743
O8 O 0.0237(4) 0.3514(2) 0.8618(3)
O9 O 0.1028(4) 0.2930(3) 0.8025(3)
O12 O 0.1006(4) 0.3894(2) 0.9850(3)
C40 C 0.0767(5) 0.3145(3) 0.8606(4)
C41 C 0.1086(4) 0.2930(3) 0.9350(4)
C42 C 0.1276(4) 0.2339(3) 0.9455(4)
H24 H 0.1213 0.2075 0.9060
C46 C 0.1202(5) 0.3305(3) 0.9956(4)
Cd9 Cd 0.21843(4) 0.30857(3) 0.73095(3)
O19 O 0.1420(4) 0.3839(2) 0.6859(3)
H37 H 0.9996 0.2019 0.4104
Cd5_2 Cd 1.0000 0.61125(3) 0.2500
Cd1_2 Cd 1.0000 0.38875(3) 0.7500
Cd2 Cd 0.71843(4) 0.19143(3) 0.23095(3)
N1 N 0.6688(5) 0.2655(3) 0.1544(4)
N2 N 0.8197(7) 0.2184(5) 0.1456(5)
O1 O 0.9763(4) 0.3514(2) 0.6382(3)
O2 O 0.8972(4) 0.2930(3) 0.6975(3)
O3 O 0.7895(4) 0.1750(3) 0.3438(3)
O4 O 0.7794(4) 0.2679(2) 0.3074(3)
O5 O 0.8994(4) 0.3894(2) 0.5150(3)
O6 O 0.8580(4) 0.6161(2) 0.3141(3)
O7 O 0.7329(4) 0.5878(3) 0.3153(4)
C1 C 0.9233(5) 0.3145(3) 0.6394(4)
C2 C 0.8914(4) 0.2930(3) 0.5650(4)
C3 C 0.8724(4) 0.2339(3) 0.5545(4)
H1 H 0.8787 0.2075 0.5940
C4 C 0.8443(4) 0.2136(3) 0.4866(4)
H2 H 0.8327 0.1736 0.4811
C5 C 0.8333(4) 0.2501(3) 0.4279(4)
C6 C 0.8003(5) 0.2291(4) 0.3539(5)
C7 C 0.8798(5) 0.3305(3) 0.5044(4)
C8 C 0.8509(5) 0.3098(3) 0.4361(4)
H3 H 0.8433 0.3356 0.3962
C9 C 0.8735(7) 0.4348(4) 0.4665(5)
C10 C 0.7938(7) 0.4414(4) 0.4496(6)
H4 H 0.7556 0.4152 0.4675
C11 C 0.7727(7) 0.4896(4) 0.4038(5)
H5 H 0.7194 0.4955 0.3907
C12 C 0.8300(7) 0.5280(4) 0.3783(5)
C13 C 0.8035(7) 0.5813(4) 0.3304(5)
C14 C 0.9066(6) 0.5192(3) 0.3995(4)
H6 H 0.9450 0.5464 0.3847
C15 C 0.9302(6) 0.4716(4) 0.4421(5)
H7 H 0.9839 0.4652 0.4536
C16 C 0.5980(8) 0.2891(4) 0.1577(6)
H8 H 0.5626 0.2716 0.1910
C17 C 0.5674(10) 0.3388(6) 0.1162(8)
H9 H 0.5159 0.3541 0.1200
C18 C 0.6274(10) 0.3607(6) 0.0693(8)
H10 H 0.6156 0.3947 0.0422
C19 C 0.6979(9) 0.3379(6) 0.0599(7)
C20 C 0.7201(9) 0.2892(5) 0.1062(5)
C21 C 0.7541(10) 0.3638(5) 0.0099(7)
C22 C 0.8234(9) 0.3362(6) 0.0081(7)
C23 C 0.8608(11) 0.2913(6) 0.0437(8)
C24 C 0.7993(10) 0.2658(7) 0.1005(6)
C25 C 0.9287(10) 0.2598(6) 0.0518(8)
H13 H 0.9692 0.2723 0.0200
C26 C 0.9492(10) 0.2179(7) 0.0922(9)
C27 C 0.8911(11) 0.1949(6) 0.1431(8)
H15 H 0.9041 0.1634 0.1743
N4 N 0.9304(4) 0.4743(3) 0.7089(3)
C34 C 0.8616(6) 0.4755(4) 0.6725(5)
H20 H 0.8402 0.4394 0.6577
C35 C 0.8193(9) 0.5245(6) 0.6545(8)
H21 H 0.7714 0.5221 0.6279
C36 C 0.8491(10) 0.5760(7) 0.6765(8)
H22 H 0.8193 0.6101 0.6676
C37 C 0.9233(10) 0.5814(4) 0.7123(6)
C38 C 0.9629(6) 0.5271(4) 0.7298(4)
C39 C 0.9650(11) 0.6343(5) 0.7344(9)
H23 H 0.9402 0.6705 0.7257
Cd7 Cd 0.78157(4) 0.69143(3) 0.26905(3)
Cd8 Cd 0.78157(4) 0.30857(3) 0.76905(3)
O15 O 0.6028(4) 0.2070(3) 0.3025(3)
O18 O 0.6420(4) 0.1161(2) 0.1859(3)
O20 O 0.8580(4) 0.3839(2) 0.8141(3)
O22 O 0.7671(4) 0.0878(3) 0.1847(4)
C51_2 C 0.6700(7) 0.0280(4) 0.1217(5)
C52_2 C 0.6965(7) 0.0813(4) 0.1696(5)
C53_2 C 0.5934(6) 0.0192(3) 0.1005(4)
H29_2 H 0.5550 0.0464 0.1153
Cd5_3 Cd 0.5000 0.11125(3) 0.2500
C12_2 C 0.3300(7) 0.0280(4) 0.3783(5)
C13_2 C 0.3035(7) 0.0813(4) 0.3304(5)
C14_2 C 0.4066(6) 0.0192(3) 0.3995(4)
H6_2 H 0.4450 0.0464 0.3847
C29_2 C 0.6807(9) 0.0245(6) 0.8455(8)
H17_2 H 0.7286 0.0221 0.8721
C30_2 C 0.6509(10) 0.0760(7) 0.8235(8)
H18_2 H 0.6807 0.1101 0.8324
C31_2 C 0.5767(10) 0.0814(4) 0.7877(6)
C32_2 C 0.5371(6) 0.0271(4) 0.7702(4)
C33_2 C 0.5350(11) 0.1343(5) 0.7656(9)
H19_2 H 0.5598 0.1705 0.7743
C35_2 C 0.3193(9) 0.0245(6) 0.6545(8)
H21_2 H 0.2714 0.0221 0.6279
C36_2 C 0.3491(10) 0.0760(7) 0.6765(8)
H22_2 H 0.3193 0.1101 0.6676
C37_2 C 0.4233(10) 0.0814(4) 0.7123(6)
C38_2 C 0.4629(6) 0.0271(4) 0.7298(4)
C39_2 C 0.4650(11) 0.1343(5) 0.7344(9)
H23_2 H 0.4402 0.1705 0.7257
N5_2 N 0.8312(5) 0.7655(3) 0.3456(4)
N6_2 N 0.6803(7) 0.7184(5) 0.3544(5)
O10_2 O 0.7105(4) 0.6750(3) 0.1562(3)
O11_2 O 0.7206(4) 0.7679(2) 0.1926(3)
C43_2 C 0.6557(4) 0.7136(3) 0.0134(4)
H25_2 H 0.6673 0.6736 0.0189
C44_2 C 0.6667(4) 0.7501(3) 0.0721(4)
C45_2 C 0.6997(5) 0.7291(4) 0.1461(5)
C47_2 C 0.6491(5) 0.8098(3) 0.0639(4)
H26_2 H 0.6567 0.8356 0.1038
C48_2 C 0.6265(7) 0.9348(4) 0.0335(5)
C49_2 C 0.7062(7) 0.9414(4) 0.0504(6)
H27_2 H 0.7444 0.9152 0.0325
C50_2 C 0.7273(7) 0.9896(4) 0.0962(5)
H28_2 H 0.7806 0.9955 0.1093
C54_2 C 0.5698(6) 0.9716(4) 0.0579(5)
H30_2 H 0.5161 0.9652 0.0464
C55_2 C 0.9020(8) 0.7891(4) 0.3423(6)
H31_2 H 0.9374 0.7716 0.3090
C56_2 C 0.9326(10) 0.8388(6) 0.3838(8)
H32_2 H 0.9841 0.8541 0.3800
C57_2 C 0.8726(10) 0.8607(6) 0.4307(8)
H33_2 H 0.8844 0.8947 0.4578
C58_2 C 0.8021(9) 0.8379(6) 0.4401(7)
C59_2 C 0.7799(9) 0.7892(5) 0.3938(5)
C60_2 C 0.7459(10) 0.8638(5) 0.4901(7)
H34_2 H 0.7572 0.8971 0.5187
C61_2 C 0.6766(9) 0.8362(6) 0.4919(7)
H35_2 H 0.6437 0.8524 0.5284
C62_2 C 0.6392(11) 0.7913(6) 0.4563(8)
C63_2 C 0.7007(10) 0.7658(7) 0.3995(6)
C64_2 C 0.5713(10) 0.7598(6) 0.4482(8)
H36_2 H 0.5308 0.7723 0.4800
C65_2 C 0.5508(10) 0.7179(7) 0.4078(9)
H37_2 H 0.4996 0.7019 0.4104
C66_2 C 0.6089(11) 0.6949(6) 0.3569(8)
H38_2 H 0.5959 0.6634 0.3257
O16_2 O 0.8972(4) 0.7070(3) 0.1975(3)
Cd1_3 Cd 0.5000 0.88875(3) 0.7500
N1_2 N 0.1688(5) 0.7655(3) 0.1544(4)
N2_2 N 0.3197(7) 0.7184(5) 0.1456(5)
N3_2 N 0.5696(4) 0.9743(3) 0.7911(3)
O1_2 O 0.4763(4) 0.8514(2) 0.6382(3)
O2_2 O 0.3972(4) 0.7930(3) 0.6975(3)
O3_2 O 0.2895(4) 0.6750(3) 0.3438(3)
O4_2 O 0.2794(4) 0.7679(2) 0.3074(3)
O5_2 O 0.3994(4) 0.8894(2) 0.5150(3)
C1_2 C 0.4233(5) 0.8145(3) 0.6394(4)
C2_2 C 0.3914(4) 0.7930(3) 0.5650(4)
C3_2 C 0.3724(4) 0.7339(3) 0.5545(4)
H1_2 H 0.3787 0.7075 0.5940
C4_2 C 0.3443(4) 0.7136(3) 0.4866(4)
H2_2 H 0.3327 0.6736 0.4811
C5_2 C 0.3333(4) 0.7501(3) 0.4279(4)
C6_2 C 0.3003(5) 0.7291(4) 0.3539(5)
C7_2 C 0.3798(5) 0.8305(3) 0.5044(4)
C8_2 C 0.3509(5) 0.8098(3) 0.4361(4)
H3_2 H 0.3433 0.8356 0.3962
C9_2 C 0.3735(7) 0.9348(4) 0.4665(5)
C10_2 C 0.2938(7) 0.9414(4) 0.4496(6)
H4_2 H 0.2556 0.9152 0.4675
C11_2 C 0.2727(7) 0.9896(4) 0.4038(5)
H5_2 H 0.2194 0.9955 0.3907
C15_2 C 0.4302(6) 0.9716(4) 0.4421(5)
H7_2 H 0.4839 0.9652 0.4536
C16_2 C 0.0980(8) 0.7891(4) 0.1577(6)
H8_2 H 0.0626 0.7716 0.1910
C17_2 C 0.0674(10) 0.8388(6) 0.1162(8)
H9_2 H 0.0159 0.8541 0.1200
C18_2 C 0.1274(10) 0.8607(6) 0.0693(8)
H10_2 H 0.1156 0.8947 0.0422
C19_2 C 0.1979(9) 0.8379(6) 0.0599(7)
C20_2 C 0.2201(9) 0.7892(5) 0.1062(5)
C21_2 C 0.2541(10) 0.8638(5) 0.0099(7)
C22_2 C 0.3234(9) 0.8362(6) 0.0081(7)
C23_2 C 0.3608(11) 0.7913(6) 0.0437(8)
C24_2 C 0.2993(10) 0.7658(7) 0.1005(6)
C25_2 C 0.4287(10) 0.7598(6) 0.0518(8)
H13_2 H 0.4692 0.7723 0.0200
C26_2 C 0.4492(10) 0.7179(7) 0.0922(9)
H14_2 H 0.5004 0.7019 0.0896
C27_2 C 0.3911(11) 0.6949(6) 0.1431(8)
H15_2 H 0.4041 0.6634 0.1743
C28_2 C 0.6384(6) 0.9755(4) 0.8275(5)
H16_2 H 0.6598 0.9394 0.8423
N4_2 N 0.4304(4) 0.9743(3) 0.7089(3)
C34_2 C 0.3616(6) 0.9755(4) 0.6725(5)
H20_2 H 0.3402 0.9394 0.6577
O8_2 O 0.5237(4) 0.8514(2) 0.8618(3)
O9_2 O 0.6028(4) 0.7930(3) 0.8025(3)
O12_2 O 0.6006(4) 0.8894(2) 0.9850(3)
C40_2 C 0.5767(5) 0.8145(3) 0.8606(4)
C41_2 C 0.6086(4) 0.7930(3) 0.9350(4)
C42_2 C 0.6276(4) 0.7339(3) 0.9455(4)
H24_2 H 0.6213 0.7075 0.9060
C46_2 C 0.6202(5) 0.8305(3) 0.9956(4)
Cd8_2 Cd 0.28157(4) 0.80857(3) 0.76905(3)
Cd9_2 Cd 0.71843(4) 0.80857(3) 0.73095(3)
O15_2 O 0.1028(4) 0.7070(3) 0.3025(3)
O19_2 O 0.6420(4) 0.8839(2) 0.6859(3)
O20_2 O 0.3580(4) 0.8839(2) 0.8141(3)
N1_3 N 0.3312(5) 0.7345(3) 0.8456(4)
N2_3 N 0.1803(7) 0.7816(5) 0.8544(5)
O1_3 O 0.0237(4) 0.6486(2) 0.3618(3)
O3_3 O 0.2105(4) 0.8250(3) 0.6562(3)
O4_3 O 0.2206(4) 0.7321(2) 0.6926(3)
O5_3 O 0.1006(4) 0.6106(2) 0.4850(3)
O7_2 O 0.2671(4) 0.4122(3) 0.6847(4)
C1_3 C 0.0767(5) 0.6855(3) 0.3606(4)
C2_3 C 0.1086(4) 0.7070(3) 0.4350(4)
C3_3 C 0.1276(4) 0.7661(3) 0.4455(4)
H1_3 H 0.1213 0.7925 0.4060
C4_3 C 0.1557(4) 0.7864(3) 0.5134(4)
H2_3 H 0.1673 0.8264 0.5189
C5_3 C 0.1667(4) 0.7499(3) 0.5721(4)
C6_3 C 0.1997(5) 0.7709(4) 0.6461(5)
C7_3 C 0.1202(5) 0.6695(3) 0.4956(4)
C8_3 C 0.1491(5) 0.6902(3) 0.5639(4)
H3_3 H 0.1567 0.6644 0.6038
C9_3 C 0.1265(7) 0.5652(4) 0.5335(5)
C10_3 C 0.2062(7) 0.5586(4) 0.5504(6)
H4_3 H 0.2444 0.5848 0.5325
C11_3 C 0.2273(7) 0.5104(4) 0.5962(5)
H5_3 H 0.2806 0.5045 0.6093
C12_3 C 0.1700(7) 0.4720(4) 0.6217(5)
C13_3 C 0.1965(7) 0.4187(4) 0.6696(5)
C14_3 C 0.0934(6) 0.4808(3) 0.6005(4)
H6_3 H 0.0550 0.4536 0.6153
C15_3 C 0.0698(6) 0.5284(4) 0.5579(5)
H7_3 H 0.0161 0.5348 0.5464
C16_3 C 0.4020(8) 0.7109(4) 0.8423(6)
H8_3 H 0.4374 0.7284 0.8090
C17_3 C 0.4326(10) 0.6612(6) 0.8838(8)
H9_3 H 0.4841 0.6459 0.8800
C18_3 C 0.3726(10) 0.6393(6) 0.9307(8)
H10_3 H 0.3844 0.6053 0.9578
C19_3 C 0.3021(9) 0.6621(6) 0.9401(7)
C20_3 C 0.2799(9) 0.7108(5) 0.8938(5)
C21_3 C 0.2459(10) 0.6362(5) 0.9901(7)
C22_3 C 0.1766(9) 0.6638(6) 0.9919(7)
C23_3 C 0.1392(11) 0.7087(6) 0.9563(8)
C24_3 C 0.2007(10) 0.7342(7) 0.8995(6)
C25_3 C 0.0713(10) 0.7402(6) 0.9482(8)
H13_3 H 0.0308 0.7277 0.9800
C26_3 C 0.0508(10) 0.7821(7) 0.9078(9)
C27_3 C 0.1089(11) 0.8051(6) 0.8569(8)
H15_3 H 0.0959 0.8366 0.8257
N4_3 N 0.0696(4) 0.5257(3) 0.2911(3)
C34_3 C 0.1384(6) 0.5245(4) 0.3275(5)
H20_3 H 0.1598 0.5606 0.3423
C35_3 C 0.1807(9) 0.4755(6) 0.3455(8)
H21_3 H 0.2286 0.4779 0.3721
C36_3 C 0.1509(10) 0.4240(7) 0.3235(8)
H22_3 H 0.1807 0.3899 0.3324
C37_3 C 0.0767(10) 0.4186(4) 0.2877(6)
C38_3 C 0.0371(6) 0.4729(4) 0.2702(4)
C39_3 C 0.0350(11) 0.3657(5) 0.2656(9)
H23_3 H 0.0598 0.3295 0.2743
O22_2 O 0.2329(4) 0.9122(3) 0.8153(4)
H37_3 H 0.0004 0.7981 0.5896
N3_3 N 0.9304(4) 0.5257(3) 0.2089(3)
H14_3 H 0.9996 0.7981 0.9104
C28_3 C 0.8616(6) 0.5245(4) 0.1725(5)
H16_3 H 0.8402 0.5606 0.1577
C29_3 C 0.8193(9) 0.4755(6) 0.1545(8)
H17_3 H 0.7714 0.4779 0.1279
C30_3 C 0.8491(10) 0.4240(7) 0.1765(8)
H18_3 H 0.8193 0.3899 0.1676
C31_3 C 0.9233(10) 0.4186(4) 0.2123(6)
C32_3 C 0.9629(6) 0.4729(4) 0.2298(4)
C33_3 C 0.9650(11) 0.3657(5) 0.2344(9)
H19_3 H 0.9402 0.3295 0.2257
O8_3 O 0.9763(4) 0.6486(2) 0.1382(3)
O12_3 O 0.8994(4) 0.6106(2) 0.0150(3)
C40_3 C 0.9233(5) 0.6855(3) 0.1394(4)
C41_3 C 0.8914(4) 0.7070(3) 0.0650(4)
C42_3 C 0.8724(4) 0.7661(3) 0.0545(4)
H24_3 H 0.8787 0.7925 0.0940
C46_3 C 0.8798(5) 0.6695(3) 0.0044(4)
N5_3 N 0.6688(5) 0.7345(3) 0.6544(4)
N6_3 N 0.8197(7) 0.7816(5) 0.6456(5)
O10_3 O 0.7895(4) 0.8250(3) 0.8438(3)
O11_3 O 0.7794(4) 0.7321(2) 0.8074(3)
O14_2 O 0.7329(4) 0.4122(3) 0.8153(4)
C43_3 C 0.8443(4) 0.7864(3) 0.9866(4)
H25_3 H 0.8327 0.8264 0.9811
C44_3 C 0.8333(4) 0.7499(3) 0.9279(4)
C45_3 C 0.8003(5) 0.7709(4) 0.8539(5)
C47_3 C 0.8509(5) 0.6902(3) 0.9361(4)
H26_3 H 0.8433 0.6644 0.8962
C48_3 C 0.8735(7) 0.5652(4) 0.9665(5)
C49_3 C 0.7938(7) 0.5586(4) 0.9496(6)
H27_3 H 0.7556 0.5848 0.9675
C50_3 C 0.7727(7) 0.5104(4) 0.9038(5)
H28_3 H 0.7194 0.5045 0.8907
C51_3 C 0.8300(7) 0.4720(4) 0.8783(5)
C52_3 C 0.8035(7) 0.4187(4) 0.8304(5)
C53_3 C 0.9066(6) 0.4808(3) 0.8995(4)
H29_3 H 0.9450 0.4536 0.8847
C54_3 C 0.9302(6) 0.5284(4) 0.9421(5)
H30_3 H 0.9839 0.5348 0.9536
C55_3 C 0.5980(8) 0.7109(4) 0.6577(6)
H31_3 H 0.5626 0.7284 0.6910
C56_3 C 0.5674(10) 0.6612(6) 0.6162(8)
H32_3 H 0.5159 0.6459 0.6200
C57_3 C 0.6274(10) 0.6393(6) 0.5693(8)
H33_3 H 0.6156 0.6053 0.5422
C58_3 C 0.6979(9) 0.6621(6) 0.5599(7)
C59_3 C 0.7201(9) 0.7108(5) 0.6062(5)
C60_3 C 0.7541(10) 0.6362(5) 0.5099(7)
H34_3 H 0.7428 0.6029 0.4813
C61_3 C 0.8234(9) 0.6638(6) 0.5081(7)
H35_3 H 0.8563 0.6476 0.4716
C62_3 C 0.8608(11) 0.7087(6) 0.5437(8)
C63_3 C 0.7993(10) 0.7342(7) 0.6005(6)
C64_3 C 0.9287(10) 0.7402(6) 0.5518(8)
H36_3 H 0.9692 0.7277 0.5200
C65_3 C 0.9492(10) 0.7821(7) 0.5922(9)
C66_3 C 0.8911(11) 0.8051(6) 0.6431(8)
H38_3 H 0.9041 0.8366 0.6743
O21_2 O 0.7671(4) 0.9122(3) 0.6847(4)
N1_4 N 0.8312(5) 0.2345(3) 0.8456(4)
N2_4 N 0.6803(7) 0.2816(5) 0.8544(5)
N3_4 N 0.4304(4) 0.0257(3) 0.2089(3)
O1_4 O 0.5237(4) 0.1486(2) 0.3618(3)
O3_4 O 0.7105(4) 0.3250(3) 0.6562(3)
O4_4 O 0.7206(4) 0.2321(2) 0.6926(3)
O5_4 O 0.6006(4) 0.1106(2) 0.4850(3)
C1_4 C 0.5767(5) 0.1855(3) 0.3606(4)
C2_4 C 0.6086(4) 0.2070(3) 0.4350(4)
C3_4 C 0.6276(4) 0.2661(3) 0.4455(4)
H1_4 H 0.6213 0.2925 0.4060
C4_4 C 0.6557(4) 0.2864(3) 0.5134(4)
H2_4 H 0.6673 0.3264 0.5189
C5_4 C 0.6667(4) 0.2499(3) 0.5721(4)
C6_4 C 0.6997(5) 0.2709(4) 0.6461(5)
C7_4 C 0.6202(5) 0.1695(3) 0.4956(4)
C8_4 C 0.6491(5) 0.1902(3) 0.5639(4)
H3_4 H 0.6567 0.1644 0.6038
C9_4 C 0.6265(7) 0.0652(4) 0.5335(5)
C10_4 C 0.7062(7) 0.0586(4) 0.5504(6)
H4_4 H 0.7444 0.0848 0.5325
C11_4 C 0.7273(7) 0.0104(4) 0.5962(5)
H5_4 H 0.7806 0.0045 0.6093
C15_4 C 0.5698(6) 0.0284(4) 0.5579(5)
H7_4 H 0.5161 0.0348 0.5464
C16_4 C 0.9020(8) 0.2109(4) 0.8423(6)
H8_4 H 0.9374 0.2284 0.8090
C17_4 C 0.9326(10) 0.1612(6) 0.8838(8)
H9_4 H 0.9841 0.1459 0.8800
C18_4 C 0.8726(10) 0.1393(6) 0.9307(8)
H10_4 H 0.8844 0.1053 0.9578
C19_4 C 0.8021(9) 0.1621(6) 0.9401(7)
C20_4 C 0.7799(9) 0.2108(5) 0.8938(5)
C21_4 C 0.7459(10) 0.1362(5) 0.9901(7)
C22_4 C 0.6766(9) 0.1638(6) 0.9919(7)
C23_4 C 0.6392(11) 0.2087(6) 0.9563(8)
C24_4 C 0.7007(10) 0.2342(7) 0.8995(6)
C25_4 C 0.5713(10) 0.2402(6) 0.9482(8)
H13_4 H 0.5308 0.2277 0.9800
C26_4 C 0.5508(10) 0.2821(7) 0.9078(9)
H14_4 H 0.4996 0.2981 0.9104
C27_4 C 0.6089(11) 0.3051(6) 0.8569(8)
H15_4 H 0.5959 0.3366 0.8257
C28_4 C 0.3616(6) 0.0245(4) 0.1725(5)
H16_4 H 0.3402 0.0606 0.1577
N4_4 N 0.5696(4) 0.0257(3) 0.2911(3)
C34_4 C 0.6384(6) 0.0245(4) 0.3275(5)
H20_4 H 0.6598 0.0606 0.3423
O8_4 O 0.4763(4) 0.1486(2) 0.1382(3)
O12_4 O 0.3994(4) 0.1106(2) 0.0150(3)
C40_4 C 0.4233(5) 0.1855(3) 0.1394(4)
C41_4 C 0.3914(4) 0.2070(3) 0.0650(4)
C42_4 C 0.3724(4) 0.2661(3) 0.0545(4)
H24_4 H 0.3787 0.2925 0.0940
C46_4 C 0.3798(5) 0.1695(3) 0.0044(4)
N5_4 N 0.1688(5) 0.2345(3) 0.6544(4)
N6_4 N 0.3197(7) 0.2816(5) 0.6456(5)
O10_4 O 0.2895(4) 0.3250(3) 0.8438(3)
O11_4 O 0.2794(4) 0.2321(2) 0.8074(3)
C43_4 C 0.3443(4) 0.2864(3) 0.9866(4)
H25_4 H 0.3327 0.3264 0.9811
C44_4 C 0.3333(4) 0.2499(3) 0.9279(4)
C45_4 C 0.3003(5) 0.2709(4) 0.8539(5)
C47_4 C 0.3509(5) 0.1902(3) 0.9361(4)
H26_4 H 0.3433 0.1644 0.8962
C48_4 C 0.3735(7) 0.0652(4) 0.9665(5)
C49_4 C 0.2938(7) 0.0586(4) 0.9496(6)
H27_4 H 0.2556 0.0848 0.9675
C50_4 C 0.2727(7) 0.0104(4) 0.9038(5)
H28_4 H 0.2194 0.0045 0.8907
C54_4 C 0.4302(6) 0.0284(4) 0.9421(5)
H30_4 H 0.4839 0.0348 0.9536
C55_4 C 0.0980(8) 0.2109(4) 0.6577(6)
H31_4 H 0.0626 0.2284 0.6910
C56_4 C 0.0674(10) 0.1612(6) 0.6162(8)
H32_4 H 0.0159 0.1459 0.6200
C57_4 C 0.1274(10) 0.1393(6) 0.5693(8)
H33_4 H 0.1156 0.1053 0.5422
C58_4 C 0.1979(9) 0.1621(6) 0.5599(7)
C59_4 C 0.2201(9) 0.2108(5) 0.6062(5)
C60_4 C 0.2541(10) 0.1362(5) 0.5099(7)
H34_4 H 0.2428 0.1029 0.4813
C61_4 C 0.3234(9) 0.1638(6) 0.5081(7)
H35_4 H 0.3563 0.1476 0.4716
C62_4 C 0.3608(11) 0.2087(6) 0.5437(8)
C63_4 C 0.2993(10) 0.2342(7) 0.6005(6)
C64_4 C 0.4287(10) 0.2402(6) 0.5518(8)
H36_4 H 0.4692 0.2277 0.5200
C65_4 C 0.4492(10) 0.2821(7) 0.5922(9)
H37_4 H 0.5004 0.2981 0.5896
C66_4 C 0.3911(11) 0.3051(6) 0.6431(8)
H38_4 H 0.4041 0.3366 0.6743
C12_4 C 0.6700(7) 0.9720(4) 0.6217(5)
C13_4 C 0.6965(7) 0.9187(4) 0.6696(5)
C14_4 C 0.5934(6) 0.9808(3) 0.6005(4)
H6_4 H 0.5550 0.9536 0.6153
C29_4 C 0.3193(9) 0.9755(6) 0.1545(8)
H17_4 H 0.2714 0.9779 0.1279
C30_4 C 0.3491(10) 0.9240(7) 0.1765(8)
H18_4 H 0.3193 0.8899 0.1676
C31_4 C 0.4233(10) 0.9186(4) 0.2123(6)
C32_4 C 0.4629(6) 0.9729(4) 0.2298(4)
C33_4 C 0.4650(11) 0.8657(5) 0.2344(9)
H19_4 H 0.4402 0.8295 0.2257
C35_4 C 0.6807(9) 0.9755(6) 0.3455(8)
H21_4 H 0.7286 0.9779 0.3721
C36_4 C 0.6509(10) 0.9240(7) 0.3235(8)
H22_4 H 0.6807 0.8899 0.3324
C37_4 C 0.5767(10) 0.9186(4) 0.2877(6)
C38_4 C 0.5371(6) 0.9729(4) 0.2702(4)
C39_4 C 0.5350(11) 0.8657(5) 0.2656(9)
H23_4 H 0.5598 0.8295 0.2743
C51_4 C 0.3300(7) 0.9720(4) 0.8783(5)
C52_4 C 0.3035(7) 0.9187(4) 0.8304(5)
C53_4 C 0.4066(6) 0.9808(3) 0.8995(4)
H29_4 H 0.4450 0.9536 0.8847
H11 H 0.7428 0.3971 0.9813
H12 H 0.8563 0.3524 0.9716
H11_2 H 0.2428 0.8971 0.9813
H12_2 H 0.3563 0.8524 0.9716
H11_3 H 0.2572 0.6029 0.0187
H12_3 H 0.1437 0.6476 0.0284
H11_4 H 0.7572 0.1029 0.0187
H12_4 H 0.6437 0.1476 0.0284
loop_
_geom_bond_atom_site_label_1
_geom_bond_atom_site_label_2
_geom_bond_site_symmetry_1
_geom_bond_site_symmetry_2
Cd3 N5 1_555 1_555
N5 C55 1_555 1_555
N6 Cd3 1_555 1_555
O10 Cd3 1_555 1_555
O11 Cd3 1_555 1_555
O13 C52 1_555 1_555
O14 C52 1_555 1_555
H25 C43 1_555 1_555
C44 C43 1_555 1_555
C45 O10 1_555 1_555
C47 C44 1_555 1_555
H26 C47 1_555 1_555
C49 C48 1_555 1_555
H27 C49 1_555 1_555
C50 C49 1_555 1_555
H28 C50 1_555 1_555
C51 C50 1_555 1_555
C52 C51 1_555 1_555
C53 C51 1_555 1_555
H29 C53 1_555 1_555
C54 C48 1_555 1_555
H30 C54 1_555 1_555
C55 H31 1_555 1_555
C56 C55 1_555 1_555
H32 C56 1_555 1_555
C57 C56 1_555 1_555
H33 C57 1_555 1_555
C58 C57 1_555 1_555
C59 N5 1_555 1_555
C60 C58 1_555 1_555
H34 C60 1_555 1_555
C61 C60 1_555 1_555
H35 C61 1_555 1_555
C62 C61 1_555 1_555
C63 N6 1_555 1_555
C64 C62 1_555 1_555
H36 C64 1_555 1_555
C65 C64 1_555 1_555
C66 N6 1_555 1_555
H38 C66 1_555 1_555
Cd5 O13 1_555 1_555
Cd6 O13 1_555 1_555
O16 Cd3 1_555 1_555
O17 Cd3 1_555 1_555
O21 Cd3 1_555 1_555
O11 C45 1_555 1_555
O14 Cd6 1_555 1_555
C44 C45 1_555 1_555
C53 C54 1_555 1_555
C58 C59 1_555 1_555
C59 C63 1_555 1_555
C62 C63 1_555 1_555
C65 C66 1_555 1_555
Cd1 N3 1_555 1_555
N3 C28 1_555 1_555
C28 H16 1_555 1_555
C29 C28 1_555 1_555
H17 C29 1_555 1_555
C30 C29 1_555 1_555
H18 C30 1_555 1_555
C31 C30 1_555 1_555
C32 N3 1_555 1_555
C33 C31 1_555 1_555
H19 C33 1_555 1_555
O8 Cd1 1_555 1_555
O9 C40 1_555 1_555
O12 C46 1_555 1_555
C40 O8 1_555 1_555
C41 C40 1_555 1_555
C42 C41 1_555 1_555
H24 C42 1_555 1_555
C46 C41 1_555 1_555
Cd9 O9 1_555 1_555
O19 Cd1 1_555 1_555
C31 C32 1_555 1_555
Cd9 O19 1_555 1_555
Cd2 N1 1_555 1_555
N1 C16 1_555 1_555
N2 Cd2 1_555 1_555
O1 Cd1_2 1_555 1_555
O2 C1 1_555 1_555
O3 Cd2 1_555 1_555
O4 Cd2 1_555 1_555
O5 C7 1_555 1_555
O6 C13 1_555 1_555
O7 C13 1_555 1_555
C1 O1 1_555 1_555
C2 C1 1_555 1_555
C3 C2 1_555 1_555
H1 C3 1_555 1_555
C4 C3 1_555 1_555
H2 C4 1_555 1_555
C5 C4 1_555 1_555
C6 O3 1_555 1_555
C7 C2 1_555 1_555
C8 C5 1_555 1_555
H3 C8 1_555 1_555
C9 O5 1_555 1_555
C10 C9 1_555 1_555
H4 C10 1_555 1_555
C11 C10 1_555 1_555
H5 C11 1_555 1_555
C12 C11 1_555 1_555
C13 C12 1_555 1_555
C14 C12 1_555 1_555
H6 C14 1_555 1_555
C15 C9 1_555 1_555
H7 C15 1_555 1_555
C16 H8 1_555 1_555
C17 C16 1_555 1_555
H9 C17 1_555 1_555
C18 C17 1_555 1_555
H10 C18 1_555 1_555
C19 C18 1_555 1_555
C20 N1 1_555 1_555
C21 C19 1_555 1_555
C22 C21 1_555 1_555
C23 C22 1_555 1_555
C24 N2 1_555 1_555
C25 C23 1_555 1_555
H13 C25 1_555 1_555
C26 C25 1_555 1_555
C27 N2 1_555 1_555
H15 C27 1_555 1_555
N4 Cd1_2 1_555 1_555
C34 N4 1_555 1_555
H20 C34 1_555 1_555
C35 C34 1_555 1_555
H21 C35 1_555 1_555
C36 C35 1_555 1_555
H22 C36 1_555 1_555
C37 C36 1_555 1_555
H23 C39 1_555 1_555
Cd5_2 O6 1_555 1_555
Cd7 O6 1_555 1_555
Cd8 O2 1_555 1_555
O15 Cd2 1_555 1_555
O18 Cd2 1_555 1_555
O20 Cd1_2 1_555 1_555
O22 Cd2 1_555 1_555
O4 C6 1_555 1_555
O7 Cd7 1_555 1_555
C5 C6 1_555 1_555
C7 C8 1_555 1_555
C14 C15 1_555 1_555
C19 C20 1_555 1_555
C20 C24 1_555 1_555
C23 C24 1_555 1_555
C26 C27 1_555 1_555
N4 C38 1_555 1_555
C37 C38 1_555 1_555
C37 C39 1_555 1_555
Cd8 O20 1_555 1_555
O18 C52_2 1_555 1_555
O22 C52_2 1_555 1_555
C52_2 C51_2 1_555 1_555
C53_2 C51_2 1_555 1_555
H29_2 C53_2 1_555 1_555
Cd5_3 O18 1_555 1_555
O17 C13_2 1_555 1_555
O21 C13_2 1_555 1_555
C13_2 C12_2 1_555 1_555
C14_2 C12_2 1_555 1_555
H6_2 C14_2 1_555 1_555
H17_2 C29_2 1_555 1_555
C30_2 C29_2 1_555 1_555
H18_2 C30_2 1_555 1_555
C31_2 C30_2 1_555 1_555
C33_2 C31_2 1_555 1_555
H19_2 C33_2 1_555 1_555
H21_2 C35_2 1_555 1_555
C36_2 C35_2 1_555 1_555
H22_2 C36_2 1_555 1_555
C37_2 C36_2 1_555 1_555
C38_2 C32_2 1_555 1_555
C39_2 C33_2 1_555 1_555
H23_2 C39_2 1_555 1_555
Cd5_3 O17 1_555 1_555
C31_2 C32_2 1_555 1_555
C37_2 C38_2 1_555 1_555
C37_2 C39_2 1_555 1_555
Cd7 N5_2 1_555 1_555
N5_2 C55_2 1_555 1_555
N6_2 Cd7 1_555 1_555
O10_2 Cd7 1_555 1_555
O11_2 Cd7 1_555 1_555
H25_2 C43_2 1_555 1_555
C44_2 C43_2 1_555 1_555
C45_2 O10_2 1_555 1_555
C47_2 C44_2 1_555 1_555
H26_2 C47_2 1_555 1_555
C49_2 C48_2 1_555 1_555
H27_2 C49_2 1_555 1_555
C50_2 C49_2 1_555 1_555
H28_2 C50_2 1_555 1_555
C54_2 C48_2 1_555 1_555
H30_2 C54_2 1_555 1_555
C55_2 H31_2 1_555 1_555
C56_2 C55_2 1_555 1_555
H32_2 C56_2 1_555 1_555
C57_2 C56_2 1_555 1_555
H33_2 C57_2 1_555 1_555
C58_2 C57_2 1_555 1_555
C59_2 N5_2 1_555 1_555
C60_2 C58_2 1_555 1_555
H34_2 C60_2 1_555 1_555
C61_2 C60_2 1_555 1_555
H35_2 C61_2 1_555 1_555
C62_2 C61_2 1_555 1_555
C63_2 N6_2 1_555 1_555
C64_2 C62_2 1_555 1_555
H36_2 C64_2 1_555 1_555
C65_2 C64_2 1_555 1_555
H37_2 C65_2 1_555 1_555
C66_2 N6_2 1_555 1_555
H38_2 C66_2 1_555 1_555
O16_2 Cd7 1_555 1_555
O11_2 C45_2 1_555 1_555
C44_2 C45_2 1_555 1_555
C58_2 C59_2 1_555 1_555
C59_2 C63_2 1_555 1_555
C62_2 C63_2 1_555 1_555
C65_2 C66_2 1_555 1_555
Cd1_3 N3_2 1_555 1_555
Cd6 N1_2 1_555 1_555
N1_2 C16_2 1_555 1_555
N2_2 Cd6 1_555 1_555
N3_2 C28_2 1_555 1_555
O1_2 Cd1_3 1_555 1_555
O2_2 C1_2 1_555 1_555
O3_2 Cd6 1_555 1_555
O4_2 Cd6 1_555 1_555
O5_2 C7_2 1_555 1_555
C1_2 O1_2 1_555 1_555
C2_2 C1_2 1_555 1_555
C3_2 C2_2 1_555 1_555
H1_2 C3_2 1_555 1_555
C4_2 C3_2 1_555 1_555
H2_2 C4_2 1_555 1_555
C5_2 C4_2 1_555 1_555
C6_2 O3_2 1_555 1_555
C7_2 C2_2 1_555 1_555
C8_2 C5_2 1_555 1_555
H3_2 C8_2 1_555 1_555
C9_2 O5_2 1_555 1_555
C10_2 C9_2 1_555 1_555
H4_2 C10_2 1_555 1_555
C11_2 C10_2 1_555 1_555
H5_2 C11_2 1_555 1_555
C15_2 C9_2 1_555 1_555
H7_2 C15_2 1_555 1_555
C16_2 H8_2 1_555 1_555
C17_2 C16_2 1_555 1_555
H9_2 C17_2 1_555 1_555
C18_2 C17_2 1_555 1_555
H10_2 C18_2 1_555 1_555
C19_2 C18_2 1_555 1_555
C20_2 N1_2 1_555 1_555
C21_2 C19_2 1_555 1_555
C22_2 C21_2 1_555 1_555
C23_2 C22_2 1_555 1_555
C24_2 N2_2 1_555 1_555
C25_2 C23_2 1_555 1_555
H13_2 C25_2 1_555 1_555
C26_2 C25_2 1_555 1_555
H14_2 C26_2 1_555 1_555
C27_2 N2_2 1_555 1_555
H15_2 C27_2 1_555 1_555
C28_2 H16_2 1_555 1_555
N4_2 Cd1_3 1_555 1_555
C34_2 N4_2 1_555 1_555
H20_2 C34_2 1_555 1_555
O8_2 Cd1_3 1_555 1_555
O9_2 C40_2 1_555 1_555
O12_2 C46_2 1_555 1_555
C40_2 O8_2 1_555 1_555
C41_2 C40_2 1_555 1_555
C42_2 C41_2 1_555 1_555
H24_2 C42_2 1_555 1_555
C46_2 C41_2 1_555 1_555
Cd8_2 O2_2 1_555 1_555
Cd9_2 O9_2 1_555 1_555
O15_2 Cd6 1_555 1_555
O19_2 Cd1_3 1_555 1_555
O20_2 Cd1_3 1_555 1_555
O4_2 C6_2 1_555 1_555
C5_2 C6_2 1_555 1_555
C7_2 C8_2 1_555 1_555
C19_2 C20_2 1_555 1_555
C20_2 C24_2 1_555 1_555
C23_2 C24_2 1_555 1_555
C26_2 C27_2 1_555 1_555
Cd8_2 O20_2 1_555 1_555
Cd9_2 O19_2 1_555 1_555
Cd8_2 N1_3 1_555 1_555
N1_3 C16_3 1_555 1_555
N2_3 Cd8_2 1_555 1_555
O1_3 Cd5 1_555 1_555
O15_2 C1_3 1_555 1_555
O3_3 Cd8_2 1_555 1_555
O4_3 Cd8_2 1_555 1_555
O5_3 C7_3 1_555 1_555
O19 C13_3 1_555 1_555
O7_2 C13_3 1_555 1_555
C1_3 O1_3 1_555 1_555
C2_3 C1_3 1_555 1_555
C3_3 C2_3 1_555 1_555
H1_3 C3_3 1_555 1_555
C4_3 C3_3 1_555 1_555
H2_3 C4_3 1_555 1_555
C5_3 C4_3 1_555 1_555
C6_3 O3_3 1_555 1_555
C7_3 C2_3 1_555 1_555
C8_3 C5_3 1_555 1_555
H3_3 C8_3 1_555 1_555
C9_3 O5_3 1_555 1_555
C10_3 C9_3 1_555 1_555
H4_3 C10_3 1_555 1_555
C11_3 C10_3 1_555 1_555
H5_3 C11_3 1_555 1_555
C12_3 C11_3 1_555 1_555
C13_3 C12_3 1_555 1_555
C14_3 C12_3 1_555 1_555
H6_3 C14_3 1_555 1_555
C15_3 C9_3 1_555 1_555
H7_3 C15_3 1_555 1_555
C16_3 H8_3 1_555 1_555
C17_3 C16_3 1_555 1_555
H9_3 C17_3 1_555 1_555
C18_3 C17_3 1_555 1_555
H10_3 C18_3 1_555 1_555
C19_3 C18_3 1_555 1_555
C20_3 N1_3 1_555 1_555
C21_3 C19_3 1_555 1_555
C22_3 C21_3 1_555 1_555
C23_3 C22_3 1_555 1_555
C24_3 N2_3 1_555 1_555
C25_3 C23_3 1_555 1_555
H13_3 C25_3 1_555 1_555
C26_3 C25_3 1_555 1_555
C27_3 N2_3 1_555 1_555
H15_3 C27_3 1_555 1_555
N4_3 Cd5 1_555 1_555
C34_3 N4_3 1_555 1_555
H20_3 C34_3 1_555 1_555
C35_3 C34_3 1_555 1_555
H21_3 C35_3 1_555 1_555
C36_3 C35_3 1_555 1_555
H22_3 C36_3 1_555 1_555
C37_3 C36_3 1_555 1_555
H23_3 C39_3 1_555 1_555
O22_2 Cd8_2 1_555 1_555
O4_3 C6_3 1_555 1_555
O7_2 Cd9 1_555 1_555
C5_3 C6_3 1_555 1_555
C7_3 C8_3 1_555 1_555
C14_3 C15_3 1_555 1_555
C19_3 C20_3 1_555 1_555
C20_3 C24_3 1_555 1_555
C23_3 C24_3 1_555 1_555
C26_3 C27_3 1_555 1_555
N4_3 C38_3 1_555 1_555
C37_3 C38_3 1_555 1_555
C37_3 C39_3 1_555 1_555
Cd5_2 N3_3 1_555 1_555
N3_3 C28_3 1_555 1_555
C28_3 H16_3 1_555 1_555
C29_3 C28_3 1_555 1_555
H17_3 C29_3 1_555 1_555
C30_3 C29_3 1_555 1_555
H18_3 C30_3 1_555 1_555
C31_3 C30_3 1_555 1_555
C32_3 N3_3 1_555 1_555
C33_3 C31_3 1_555 1_555
H19_3 C33_3 1_555 1_555
O8_3 Cd5_2 1_555 1_555
O16_2 C40_3 1_555 1_555
O12_3 C46_3 1_555 1_555
C40_3 O8_3 1_555 1_555
C41_3 C40_3 1_555 1_555
C42_3 C41_3 1_555 1_555
H24_3 C42_3 1_555 1_555
C46_3 C41_3 1_555 1_555
C31_3 C32_3 1_555 1_555
Cd9_2 N5_3 1_555 1_555
N5_3 C55_3 1_555 1_555
N6_3 Cd9_2 1_555 1_555
O10_3 Cd9_2 1_555 1_555
O11_3 Cd9_2 1_555 1_555
O20 C52_3 1_555 1_555
O14_2 C52_3 1_555 1_555
H25_3 C43_3 1_555 1_555
C44_3 C43_3 1_555 1_555
C45_3 O10_3 1_555 1_555
C47_3 C44_3 1_555 1_555
H26_3 C47_3 1_555 1_555
C49_3 C48_3 1_555 1_555
H27_3 C49_3 1_555 1_555
C50_3 C49_3 1_555 1_555
H28_3 C50_3 1_555 1_555
C51_3 C50_3 1_555 1_555
C52_3 C51_3 1_555 1_555
C53_3 C51_3 1_555 1_555
H29_3 C53_3 1_555 1_555
C54_3 C48_3 1_555 1_555
H30_3 C54_3 1_555 1_555
C55_3 H31_3 1_555 1_555
C56_3 C55_3 1_555 1_555
H32_3 C56_3 1_555 1_555
C57_3 C56_3 1_555 1_555
H33_3 C57_3 1_555 1_555
C58_3 C57_3 1_555 1_555
C59_3 N5_3 1_555 1_555
C60_3 C58_3 1_555 1_555
H34_3 C60_3 1_555 1_555
C61_3 C60_3 1_555 1_555
H35_3 C61_3 1_555 1_555
C62_3 C61_3 1_555 1_555
C63_3 N6_3 1_555 1_555
C64_3 C62_3 1_555 1_555
H36_3 C64_3 1_555 1_555
C65_3 C64_3 1_555 1_555
C66_3 N6_3 1_555 1_555
H38_3 C66_3 1_555 1_555
O21_2 Cd9_2 1_555 1_555
O11_3 C45_3 1_555 1_555
O14_2 Cd8 1_555 1_555
C44_3 C45_3 1_555 1_555
C53_3 C54_3 1_555 1_555
C58_3 C59_3 1_555 1_555
C59_3 C63_3 1_555 1_555
C62_3 C63_3 1_555 1_555
C65_3 C66_3 1_555 1_555
Cd5_3 N3_4 1_555 1_555
Cd8 N1_4 1_555 1_555
N1_4 C16_4 1_555 1_555
N2_4 Cd8 1_555 1_555
N3_4 C28_4 1_555 1_555
O1_4 Cd5_3 1_555 1_555
O15 C1_4 1_555 1_555
O3_4 Cd8 1_555 1_555
O4_4 Cd8 1_555 1_555
O5_4 C7_4 1_555 1_555
C1_4 O1_4 1_555 1_555
C2_4 C1_4 1_555 1_555
C3_4 C2_4 1_555 1_555
H1_4 C3_4 1_555 1_555
C4_4 C3_4 1_555 1_555
H2_4 C4_4 1_555 1_555
C5_4 C4_4 1_555 1_555
C6_4 O3_4 1_555 1_555
C7_4 C2_4 1_555 1_555
C8_4 C5_4 1_555 1_555
H3_4 C8_4 1_555 1_555
C9_4 O5_4 1_555 1_555
C10_4 C9_4 1_555 1_555
H4_4 C10_4 1_555 1_555
C11_4 C10_4 1_555 1_555
H5_4 C11_4 1_555 1_555
C15_4 C9_4 1_555 1_555
H7_4 C15_4 1_555 1_555
C16_4 H8_4 1_555 1_555
C17_4 C16_4 1_555 1_555
H9_4 C17_4 1_555 1_555
C18_4 C17_4 1_555 1_555
H10_4 C18_4 1_555 1_555
C19_4 C18_4 1_555 1_555
C20_4 N1_4 1_555 1_555
C21_4 C19_4 1_555 1_555
C22_4 C21_4 1_555 1_555
C23_4 C22_4 1_555 1_555
C24_4 N2_4 1_555 1_555
C25_4 C23_4 1_555 1_555
H13_4 C25_4 1_555 1_555
C26_4 C25_4 1_555 1_555
H14_4 C26_4 1_555 1_555
C27_4 N2_4 1_555 1_555
H15_4 C27_4 1_555 1_555
C28_4 H16_4 1_555 1_555
N4_4 Cd5_3 1_555 1_555
C34_4 N4_4 1_555 1_555
H20_4 C34_4 1_555 1_555
O8_4 Cd5_3 1_555 1_555
O16 C40_4 1_555 1_555
O12_4 C46_4 1_555 1_555
C40_4 O8_4 1_555 1_555
C41_4 C40_4 1_555 1_555
C42_4 C41_4 1_555 1_555
H24_4 C42_4 1_555 1_555
C46_4 C41_4 1_555 1_555
O4_4 C6_4 1_555 1_555
C5_4 C6_4 1_555 1_555
C7_4 C8_4 1_555 1_555
C19_4 C20_4 1_555 1_555
C20_4 C24_4 1_555 1_555
C23_4 C24_4 1_555 1_555
C26_4 C27_4 1_555 1_555
Cd9 N5_4 1_555 1_555
N5_4 C55_4 1_555 1_555
N6_4 Cd9 1_555 1_555
O10_4 Cd9 1_555 1_555
O11_4 Cd9 1_555 1_555
H25_4 C43_4 1_555 1_555
C44_4 C43_4 1_555 1_555
C45_4 O10_4 1_555 1_555
C47_4 C44_4 1_555 1_555
H26_4 C47_4 1_555 1_555
C49_4 C48_4 1_555 1_555
H27_4 C49_4 1_555 1_555
C50_4 C49_4 1_555 1_555
H28_4 C50_4 1_555 1_555
C54_4 C48_4 1_555 1_555
H30_4 C54_4 1_555 1_555
C55_4 H31_4 1_555 1_555
C56_4 C55_4 1_555 1_555
H32_4 C56_4 1_555 1_555
C57_4 C56_4 1_555 1_555
H33_4 C57_4 1_555 1_555
C58_4 C57_4 1_555 1_555
C59_4 N5_4 1_555 1_555
C60_4 C58_4 1_555 1_555
H34_4 C60_4 1_555 1_555
C61_4 C60_4 1_555 1_555
H35_4 C61_4 1_555 1_555
C62_4 C61_4 1_555 1_555
C63_4 N6_4 1_555 1_555
C64_4 C62_4 1_555 1_555
H36_4 C64_4 1_555 1_555
C65_4 C64_4 1_555 1_555
H37_4 C65_4 1_555 1_555
C66_4 N6_4 1_555 1_555
H38_4 C66_4 1_555 1_555
O11_4 C45_4 1_555 1_555
C44_4 C45_4 1_555 1_555
C58_4 C59_4 1_555 1_555
C59_4 C63_4 1_555 1_555
C62_4 C63_4 1_555 1_555
C65_4 C66_4 1_555 1_555
O19_2 C13_4 1_555 1_555
O21_2 C13_4 1_555 1_555
C13_4 C12_4 1_555 1_555
C14_4 C12_4 1_555 1_555
H6_4 C14_4 1_555 1_555
H17_4 C29_4 1_555 1_555
C30_4 C29_4 1_555 1_555
H18_4 C30_4 1_555 1_555
C31_4 C30_4 1_555 1_555
C33_4 C31_4 1_555 1_555
H19_4 C33_4 1_555 1_555
H21_4 C35_4 1_555 1_555
C36_4 C35_4 1_555 1_555
H22_4 C36_4 1_555 1_555
C37_4 C36_4 1_555 1_555
C38_4 C32_4 1_555 1_555
C39_4 C33_4 1_555 1_555
H23_4 C39_4 1_555 1_555
C31_4 C32_4 1_555 1_555
C37_4 C38_4 1_555 1_555
C37_4 C39_4 1_555 1_555
O20_2 C52_4 1_555 1_555
O22_2 C52_4 1_555 1_555
C52_4 C51_4 1_555 1_555
C53_4 C51_4 1_555 1_555
H29_4 C53_4 1_555 1_555

#END
