
###############################################################################
#
# This file contains modified crystal structure data generated from the
# MOF subset of the Cambridge Structural Database (CSD) v543 
# hosted by the Cambridge Crystallographic Data Centre (CCDC).
#
# This work is licensed under the Creative Commons
# Attribution-NonCommercial-ShareAlike 4.0 International License.
# To view a copy of this license, visit
# http://creativecommons.org/licenses/by-nc-sa/4.0/
# or send a letter to
# Creative Commons, PO Box 1866, Mountain View, CA 94042, USA.
#
# CIF created using the CSD Python API on 29 September 2022
# The structure has been converted into the P1 space group
# The structure has a 3D framework
# The original CSD entry ODOFUL is in the monoclinic crystal system
# The framework has been calculated to contain at least 10.0% void space
# The void calculation uses a probe of radius 1.32A, grid spacing 0.4
#
###############################################################################

data_ODOFUL
_chemical_formula_moiety         '(C240 H152 Cd14 N24 O56)n'
_symmetry_cell_setting           triclinic
_symmetry_space_group_name_H-M   'P 1'
_symmetry_Int_Tables_number      1
_space_group_name_Hall           'P 1'
loop_
_symmetry_equiv_pos_site_id
_symmetry_equiv_pos_as_xyz
1 x,y,z
_cell_length_a                   17.0207(6)
_cell_length_b                   21.6104(6)
_cell_length_c                   17.5387(5)
_cell_angle_alpha                90
_cell_angle_beta                 92.884(3)
_cell_angle_gamma                90
_cell_volume                     6442.99
loop_
_atom_site_label
_atom_site_type_symbol
_atom_site_fract_x
_atom_site_fract_y
_atom_site_fract_z
Cd1 Cd 0.5000 0.38502(3) 0.2500
Cd2 Cd 0.28525(3) 0.28650(2) 0.21782(3)
N1 N 0.5685(4) 0.4768(3) 0.2136(4)
N2 N 0.3450(3) 0.2131(3) 0.1439(3)
N3 N 0.1931(4) 0.2467(3) 0.1242(4)
O1 O 0.3708(3) 0.3683(2) 0.1833(3)
O2 O 0.2445(3) 0.3831(2) 0.1550(3)
O6 O 0.2866(3) 0.8138(2) 0.1768(3)
O7 O 0.2784(3) 0.7144(3) 0.1991(3)
C1 C 0.3155(5) 0.4005(3) 0.1516(4)
C2 C 0.3334(4) 0.4563(3) 0.1079(4)
C3 C 0.4115(5) 0.4722(4) 0.0943(4)
H1 H 0.4526 0.4471 0.1126
C4 C 0.4272(6) 0.5250(4) 0.0539(5)
H2 H 0.4790 0.5371 0.0482
C5 C 0.3678(6) 0.5591(3) 0.0226(5)
C6 C 0.2930(5) 0.5441(4) 0.0330(5)
H3 H 0.2527 0.5679 0.0106
C7 C 0.2749(5) 0.4933(4) 0.0768(5)
H4 H 0.2226 0.4842 0.0853
C12 C 0.3424(4) 0.7884(3) 0.0289(4)
H6 H 0.3317 0.8294 0.0404
C13 C 0.3325(4) 0.7442(3) 0.0827(4)
C14 C 0.2983(4) 0.7583(4) 0.1587(4)
C15 C 0.3492(4) 0.6833(3) 0.0651(4)
H7 H 0.3426 0.6523 0.1011
C16 C 0.5415(6) 0.5316(4) 0.2354(5)
C17 C 0.5860(10) 0.5848(5) 0.2321(7)
H8 H 0.5671 0.6224 0.2493
C18 C 0.6564(11) 0.5807(6) 0.2034(8)
H9 H 0.6852 0.6168 0.1980
C19 C 0.6891(8) 0.5259(7) 0.1813(7)
H10 H 0.7398 0.5233 0.1642
C20 C 0.6400(6) 0.4744(4) 0.1866(5)
H11 H 0.6584 0.4363 0.1705
C21 C 0.4200(4) 0.1965(4) 0.1564(5)
H12 H 0.4501 0.2163 0.1948
C22 C 0.4540(5) 0.1515(5) 0.1151(6)
H13 H 0.5066 0.1409 0.1243
C23 C 0.4086(7) 0.1225(5) 0.0598(7)
H14 H 0.4300 0.0909 0.0314
C24 C 0.3332(5) 0.1391(4) 0.0461(6)
H15 H 0.3030 0.1197 0.0073
C25 C 0.3003(4) 0.1846(4) 0.0891(4)
C26 C 0.2177(4) 0.2024(3) 0.0786(4)
C27 C 0.1650(5) 0.1764(4) 0.0242(5)
C28 C 0.0885(6) 0.1957(5) 0.0188(6)
C29 C 0.0633(5) 0.2408(5) 0.0666(6)
H18 H 0.0115 0.2546 0.0641
C30 C 0.1185(6) 0.2647(5) 0.1185(6)
H19 H 0.1025 0.2953 0.1516
N4 N 0.4315(4) 0.4768(3) 0.2864(4)
C31 C 0.4585(6) 0.5316(4) 0.2646(5)
C32 C 0.4140(10) 0.5848(5) 0.2679(7)
H20 H 0.4329 0.6224 0.2507
C33 C 0.3436(11) 0.5807(6) 0.2966(8)
H21 H 0.3148 0.6168 0.3020
C34 C 0.3109(8) 0.5259(7) 0.3187(7)
H22 H 0.2602 0.5233 0.3358
C35 C 0.3600(6) 0.4744(4) 0.3134(5)
H23 H 0.3416 0.4363 0.3295
Cd3 Cd 0.71475(3) 0.28650(2) 0.28218(3)
N5 N 0.6550(3) 0.2131(3) 0.3561(3)
N6 N 0.8069(4) 0.2467(3) 0.3758(4)
O8 O 0.6292(3) 0.3683(2) 0.3167(3)
O9 O 0.7555(3) 0.3831(2) 0.3450(3)
O10 O 0.6100(4) 0.6080(2) 0.5249(3)
O11 O 0.6088(3) 0.7321(2) 0.6940(3)
O12 O 0.5385(3) 0.6548(2) 0.6435(3)
O13 O 0.7134(3) 0.8138(2) 0.3232(3)
O14 O 0.7216(3) 0.7144(3) 0.3009(3)
C36 C 0.6845(5) 0.4005(3) 0.3484(4)
C37 C 0.6666(4) 0.4563(3) 0.3921(4)
C38 C 0.5885(5) 0.4722(4) 0.4057(4)
H24 H 0.5474 0.4471 0.3874
C39 C 0.5728(6) 0.5250(4) 0.4461(5)
H25 H 0.5210 0.5371 0.4518
C40 C 0.6322(6) 0.5591(3) 0.4774(5)
C41 C 0.7070(5) 0.5441(4) 0.4670(5)
H26 H 0.7473 0.5679 0.4894
C42 C 0.7251(5) 0.4933(4) 0.4232(5)
H27 H 0.7774 0.4842 0.4147
C43 C 0.6244(4) 0.6685(3) 0.5058(4)
C44 C 0.6158(4) 0.7130(3) 0.5611(4)
C45 C 0.5862(4) 0.6986(3) 0.6396(4)
C46 C 0.6320(4) 0.7739(3) 0.5425(4)
H28 H 0.6256 0.8051 0.5781
C47 C 0.6576(4) 0.7884(3) 0.4711(4)
H29 H 0.6683 0.8294 0.4596
C48 C 0.6675(4) 0.7442(3) 0.4173(4)
C49 C 0.7017(4) 0.7583(4) 0.3413(4)
C50 C 0.6508(4) 0.6833(3) 0.4349(4)
H30 H 0.6574 0.6523 0.3989
C51 C 0.5800(4) 0.1965(4) 0.3436(5)
H31 H 0.5499 0.2163 0.3052
C52 C 0.5460(5) 0.1515(5) 0.3849(6)
H32 H 0.4934 0.1409 0.3757
C53 C 0.5914(7) 0.1225(5) 0.4402(7)
H33 H 0.5700 0.0909 0.4686
C54 C 0.6668(5) 0.1391(4) 0.4539(6)
H34 H 0.6970 0.1197 0.4927
C55 C 0.6997(4) 0.1846(4) 0.4109(4)
C56 C 0.7823(4) 0.2024(3) 0.4214(4)
C57 C 0.8350(5) 0.1764(4) 0.4758(5)
H35 H 0.8181 0.1459 0.5085
C58 C 0.9115(6) 0.1957(5) 0.4812(6)
H36 H 0.9465 0.1782 0.5175
C59 C 0.9367(5) 0.2408(5) 0.4334(6)
H37 H 0.9885 0.2546 0.4359
C60 C 0.8815(6) 0.2647(5) 0.3815(6)
H38 H 0.8975 0.2953 0.3484
Cd5 Cd 0.5000 0.61498(3) 0.7500
Cd6 Cd 0.78525(3) 0.78650(2) 0.21782(3)
Cd7 Cd 0.21475(3) 0.78650(2) 0.28218(3)
Cd8 Cd 0.71475(3) 0.71350(2) 0.78218(3)
O15 O 0.6088(3) 0.2679(2) 0.1940(3)
O16 O 0.3912(3) 0.2679(2) 0.3060(3)
O17 O 0.5385(3) 0.3452(2) 0.1435(3)
O18 O 0.4615(3) 0.3452(2) 0.3565(3)
O19 O 0.7866(3) 0.3138(2) 0.1768(3)
O20 O 0.2134(3) 0.3138(2) 0.3232(3)
O21 O 0.7784(3) 0.2144(3) 0.1991(3)
O22 O 0.2216(3) 0.2144(3) 0.3009(3)
O3 O 0.3900(4) 0.6080(2) 0.9751(3)
O4 O 0.3912(3) 0.7321(2) 0.8060(3)
O5 O 0.4615(3) 0.6548(2) 0.8565(3)
C8 C 0.3756(4) 0.6685(3) 0.9942(4)
C9 C 0.3842(4) 0.7130(3) 0.9389(4)
C10 C 0.4138(4) 0.6986(3) 0.8604(4)
C11 C 0.3680(4) 0.7739(3) 0.9575(4)
H5 H 0.3744 0.8051 0.9219
H16 H 0.1819 0.1459 0.9915
H17 H 0.0535 0.1782 0.9825
Cd9 Cd 0.28525(3) 0.71350(2) 0.71782(3)
C16_2 C 0.0415(6) 0.0316(4) 0.2354(5)
C17_2 C 0.0860(10) 0.0848(5) 0.2321(7)
H8_2 H 0.0671 0.1224 0.2493
C18_2 C 0.1564(11) 0.0807(6) 0.2034(8)
H9_2 H 0.1852 0.1168 0.1980
C19_2 C 0.1891(8) 0.0259(7) 0.1813(7)
H10_2 H 0.2398 0.0233 0.1642
O10_2 O 0.1100(4) 0.1080(2) 0.5249(3)
O11_2 O 0.1088(3) 0.2321(2) 0.6940(3)
O12_2 O 0.0385(3) 0.1548(2) 0.6435(3)
C39_2 C 0.0728(6) 0.0250(4) 0.4461(5)
H25_2 H 0.0210 0.0371 0.4518
C40_2 C 0.1322(6) 0.0591(3) 0.4774(5)
C41_2 C 0.2070(5) 0.0441(4) 0.4670(5)
H26_2 H 0.2473 0.0679 0.4894
C43_2 C 0.1244(4) 0.1685(3) 0.5058(4)
C44_2 C 0.1158(4) 0.2130(3) 0.5611(4)
C45_2 C 0.0862(4) 0.1986(3) 0.6396(4)
C46_2 C 0.1320(4) 0.2739(3) 0.5425(4)
H28_2 H 0.1256 0.3051 0.5781
C47_2 C 0.1576(4) 0.2884(3) 0.4711(4)
H29_2 H 0.1683 0.3294 0.4596
C48_2 C 0.1675(4) 0.2442(3) 0.4173(4)
C49_2 C 0.2017(4) 0.2583(4) 0.3413(4)
C50_2 C 0.1508(4) 0.1833(3) 0.4349(4)
H30_2 H 0.1574 0.1523 0.3989
Cd5_2 Cd 0.0000 0.11498(3) 0.7500
Cd8_2 Cd 0.21475(3) 0.21350(2) 0.78218(3)
Cd1_2 Cd 0.0000 0.88502(3) 0.2500
N1_2 N 0.0685(4) 0.9768(3) 0.2136(4)
C20_2 C 0.1400(6) 0.9744(4) 0.1866(5)
H11_2 H 0.1584 0.9363 0.1705
H13_2 H 0.0066 0.6409 0.1243
N5_2 N 0.1550(3) 0.7131(3) 0.3561(3)
N6_2 N 0.3069(4) 0.7467(3) 0.3758(4)
O8_2 O 0.1292(3) 0.8683(2) 0.3167(3)
O9_2 O 0.2555(3) 0.8831(2) 0.3450(3)
C36_2 C 0.1845(5) 0.9005(3) 0.3484(4)
C37_2 C 0.1666(4) 0.9563(3) 0.3921(4)
C38_2 C 0.0885(5) 0.9722(4) 0.4057(4)
H24_2 H 0.0474 0.9471 0.3874
C42_2 C 0.2251(5) 0.9933(4) 0.4232(5)
H27_2 H 0.2774 0.9842 0.4147
C51_2 C 0.0800(4) 0.6965(4) 0.3436(5)
H31_2 H 0.0499 0.7163 0.3052
C52_2 C 0.0460(5) 0.6515(5) 0.3849(6)
C53_2 C 0.0914(7) 0.6225(5) 0.4402(7)
H33_2 H 0.0700 0.5909 0.4686
C54_2 C 0.1668(5) 0.6391(4) 0.4539(6)
H34_2 H 0.1970 0.6197 0.4927
C55_2 C 0.1997(4) 0.6846(4) 0.4109(4)
C56_2 C 0.2823(4) 0.7024(3) 0.4214(4)
C57_2 C 0.3350(5) 0.6764(4) 0.4758(5)
H35_2 H 0.3181 0.6459 0.5085
C58_2 C 0.4115(6) 0.6957(5) 0.4812(6)
H36_2 H 0.4465 0.6782 0.5175
C59_2 C 0.4367(5) 0.7408(5) 0.4334(6)
H37_2 H 0.4885 0.7546 0.4359
C60_2 C 0.3815(6) 0.7647(5) 0.3815(6)
H38_2 H 0.3975 0.7953 0.3484
O15_2 O 0.1088(3) 0.7679(2) 0.1940(3)
O17_2 O 0.0385(3) 0.8452(2) 0.1435(3)
C4_2 C 0.9272(6) 0.0250(4) 0.0539(5)
H2_2 H 0.9790 0.0371 0.0482
C5_2 C 0.8678(6) 0.0591(3) 0.0226(5)
C6_2 C 0.7930(5) 0.0441(4) 0.0330(5)
H3_2 H 0.7527 0.0679 0.0106
C12_2 C 0.8424(4) 0.2884(3) 0.0289(4)
H6_2 H 0.8317 0.3294 0.0404
C13_2 C 0.8325(4) 0.2442(3) 0.0827(4)
C14_2 C 0.7983(4) 0.2583(4) 0.1587(4)
C15_2 C 0.8492(4) 0.1833(3) 0.0651(4)
H7_2 H 0.8426 0.1523 0.1011
C31_2 C 0.9585(6) 0.0316(4) 0.2646(5)
C32_2 C 0.9140(10) 0.0848(5) 0.2679(7)
H20_2 H 0.9329 0.1224 0.2507
C33_2 C 0.8436(11) 0.0807(6) 0.2966(8)
H21_2 H 0.8148 0.1168 0.3020
C34_2 C 0.8109(8) 0.0259(7) 0.3187(7)
H22_2 H 0.7602 0.0233 0.3358
Cd5_3 Cd 1.0000 0.11498(3) 0.7500
O3_2 O 0.8900(4) 0.1080(2) 0.9751(3)
O4_2 O 0.8912(3) 0.2321(2) 0.8060(3)
O5_2 O 0.9615(3) 0.1548(2) 0.8565(3)
C8_2 C 0.8756(4) 0.1685(3) 0.9942(4)
C9_2 C 0.8842(4) 0.2130(3) 0.9389(4)
C10_2 C 0.9138(4) 0.1986(3) 0.8604(4)
C11_2 C 0.8680(4) 0.2739(3) 0.9575(4)
H5_2 H 0.8744 0.3051 0.9219
Cd9_2 Cd 0.78525(3) 0.21350(2) 0.71782(3)
Cd1_3 Cd 1.0000 0.88502(3) 0.2500
N2_2 N 0.8450(3) 0.7131(3) 0.1439(3)
N3_2 N 0.6931(4) 0.7467(3) 0.1242(4)
O1_2 O 0.8708(3) 0.8683(2) 0.1833(3)
O2_2 O 0.7445(3) 0.8831(2) 0.1550(3)
C1_2 C 0.8155(5) 0.9005(3) 0.1516(4)
C2_2 C 0.8334(4) 0.9563(3) 0.1079(4)
C3_2 C 0.9115(5) 0.9722(4) 0.0943(4)
H1_2 H 0.9526 0.9471 0.1126
C7_2 C 0.7749(5) 0.9933(4) 0.0768(5)
H4_2 H 0.7226 0.9842 0.0853
C21_2 C 0.9200(4) 0.6965(4) 0.1564(5)
H12_2 H 0.9501 0.7163 0.1948
C22_2 C 0.9540(5) 0.6515(5) 0.1151(6)
C23_2 C 0.9086(7) 0.6225(5) 0.0598(7)
H14_2 H 0.9300 0.5909 0.0314
C24_2 C 0.8332(5) 0.6391(4) 0.0461(6)
H15_2 H 0.8030 0.6197 0.0073
C25_2 C 0.8003(4) 0.6846(4) 0.0891(4)
C26_2 C 0.7177(4) 0.7024(3) 0.0786(4)
C27_2 C 0.6650(5) 0.6764(4) 0.0242(5)
C28_2 C 0.5885(6) 0.6957(5) 0.0188(6)
C29_2 C 0.5633(5) 0.7408(5) 0.0666(6)
H18_2 H 0.5115 0.7546 0.0641
C30_2 C 0.6185(6) 0.7647(5) 0.1185(6)
H19_2 H 0.6025 0.7953 0.1516
N4_2 N 0.9315(4) 0.9768(3) 0.2864(4)
C35_2 C 0.8600(6) 0.9744(4) 0.3134(5)
H23_2 H 0.8416 0.9363 0.3295
H32_2 H 0.9934 0.6409 0.3757
O16_2 O 0.8912(3) 0.7679(2) 0.3060(3)
O18_2 O 0.9615(3) 0.8452(2) 0.3565(3)
O3_3 O 0.6100(4) 0.3920(2) 0.0249(3)
C8_3 C 0.6244(4) 0.3315(3) 0.0058(4)
C9_3 C 0.6158(4) 0.2870(3) 0.0611(4)
C10_3 C 0.5862(4) 0.3014(3) 0.1396(4)
C11_3 C 0.6320(4) 0.2261(3) 0.0425(4)
H5_3 H 0.6256 0.1949 0.0781
H16_2 H 0.8181 0.8541 0.0085
H17_2 H 0.9465 0.8218 0.0175
N1_3 N 0.4315(4) 0.5232(3) 0.7864(4)
N2_3 N 0.6550(3) 0.7869(3) 0.8561(3)
N3_3 N 0.8069(4) 0.7533(3) 0.8758(4)
O1_3 O 0.6292(3) 0.6317(2) 0.8167(3)
O2_3 O 0.7555(3) 0.6169(2) 0.8450(3)
O6_2 O 0.7134(3) 0.1862(2) 0.8232(3)
O7_2 O 0.7216(3) 0.2856(3) 0.8009(3)
C1_3 C 0.6845(5) 0.5995(3) 0.8484(4)
C2_3 C 0.6666(4) 0.5437(3) 0.8921(4)
C3_3 C 0.5885(5) 0.5278(4) 0.9057(4)
H1_3 H 0.5474 0.5529 0.8874
C4_3 C 0.5728(6) 0.4750(4) 0.9461(5)
H2_3 H 0.5210 0.4629 0.9518
C5_3 C 0.6322(6) 0.4409(3) 0.9774(5)
C6_3 C 0.7070(5) 0.4559(4) 0.9670(5)
H3_3 H 0.7473 0.4321 0.9894
C7_3 C 0.7251(5) 0.5067(4) 0.9232(5)
H4_3 H 0.7774 0.5158 0.9147
C12_3 C 0.6576(4) 0.2116(3) 0.9711(4)
H6_3 H 0.6683 0.1706 0.9596
C13_3 C 0.6675(4) 0.2558(3) 0.9173(4)
C14_3 C 0.7017(4) 0.2417(4) 0.8413(4)
C15_3 C 0.6508(4) 0.3167(3) 0.9349(4)
H7_3 H 0.6574 0.3477 0.8989
C16_3 C 0.4585(6) 0.4684(4) 0.7646(5)
C17_3 C 0.4140(10) 0.4152(5) 0.7679(7)
H8_3 H 0.4329 0.3776 0.7507
C18_3 C 0.3436(11) 0.4193(6) 0.7966(8)
H9_3 H 0.3148 0.3832 0.8020
C19_3 C 0.3109(8) 0.4741(7) 0.8187(7)
H10_3 H 0.2602 0.4767 0.8358
C20_3 C 0.3600(6) 0.5256(4) 0.8134(5)
H11_3 H 0.3416 0.5637 0.8295
C21_3 C 0.5800(4) 0.8035(4) 0.8436(5)
H12_3 H 0.5499 0.7837 0.8052
C22_3 C 0.5460(5) 0.8485(5) 0.8849(6)
H13_3 H 0.4934 0.8591 0.8757
C23_3 C 0.5914(7) 0.8775(5) 0.9402(7)
H14_3 H 0.5700 0.9091 0.9686
C24_3 C 0.6668(5) 0.8609(4) 0.9539(6)
H15_3 H 0.6970 0.8803 0.9927
C25_3 C 0.6997(4) 0.8154(4) 0.9109(4)
C26_3 C 0.7823(4) 0.7976(3) 0.9214(4)
C27_3 C 0.8350(5) 0.8236(4) 0.9758(5)
C28_3 C 0.9115(6) 0.8043(5) 0.9812(6)
C29_3 C 0.9367(5) 0.7592(5) 0.9334(6)
H18_3 H 0.9885 0.7454 0.9359
C30_3 C 0.8815(6) 0.7353(5) 0.8815(6)
H19_3 H 0.8975 0.7047 0.8484
N4_3 N 0.5685(4) 0.5232(3) 0.7136(4)
C31_3 C 0.5415(6) 0.4684(4) 0.7354(5)
C32_3 C 0.5860(10) 0.4152(5) 0.7321(7)
H20_3 H 0.5671 0.3776 0.7493
C33_3 C 0.6564(11) 0.4193(6) 0.7034(8)
H21_3 H 0.6852 0.3832 0.6980
C34_3 C 0.6891(8) 0.4741(7) 0.6813(7)
H22_3 H 0.7398 0.4767 0.6642
C35_3 C 0.6400(6) 0.5256(4) 0.6866(5)
H23_3 H 0.6584 0.5637 0.6705
N5_3 N 0.3450(3) 0.7869(3) 0.6439(3)
N6_3 N 0.1931(4) 0.7533(3) 0.6242(4)
O8_3 O 0.3708(3) 0.6317(2) 0.6833(3)
O9_3 O 0.2445(3) 0.6169(2) 0.6550(3)
O10_3 O 0.3900(4) 0.3920(2) 0.4751(3)
O13_2 O 0.2866(3) 0.1862(2) 0.6768(3)
O14_2 O 0.2784(3) 0.2856(3) 0.6991(3)
C36_3 C 0.3155(5) 0.5995(3) 0.6516(4)
C37_3 C 0.3334(4) 0.5437(3) 0.6079(4)
C38_3 C 0.4115(5) 0.5278(4) 0.5943(4)
H24_3 H 0.4526 0.5529 0.6126
C39_3 C 0.4272(6) 0.4750(4) 0.5539(5)
H25_3 H 0.4790 0.4629 0.5482
C40_3 C 0.3678(6) 0.4409(3) 0.5226(5)
C41_3 C 0.2930(5) 0.4559(4) 0.5330(5)
H26_3 H 0.2527 0.4321 0.5106
C42_3 C 0.2749(5) 0.5067(4) 0.5768(5)
H27_3 H 0.2226 0.5158 0.5853
C43_3 C 0.3756(4) 0.3315(3) 0.4942(4)
C44_3 C 0.3842(4) 0.2870(3) 0.4389(4)
C45_3 C 0.4138(4) 0.3014(3) 0.3604(4)
C46_3 C 0.3680(4) 0.2261(3) 0.4575(4)
H28_3 H 0.3744 0.1949 0.4219
C47_3 C 0.3424(4) 0.2116(3) 0.5289(4)
H29_3 H 0.3317 0.1706 0.5404
C48_3 C 0.3325(4) 0.2558(3) 0.5827(4)
C49_3 C 0.2983(4) 0.2417(4) 0.6587(4)
C50_3 C 0.3492(4) 0.3167(3) 0.5651(4)
H30_3 H 0.3426 0.3477 0.6011
C51_3 C 0.4200(4) 0.8035(4) 0.6564(5)
H31_3 H 0.4501 0.7837 0.6948
C52_3 C 0.4540(5) 0.8485(5) 0.6151(6)
H32_3 H 0.5066 0.8591 0.6243
C53_3 C 0.4086(7) 0.8775(5) 0.5598(7)
H33_3 H 0.4300 0.9091 0.5314
C54_3 C 0.3332(5) 0.8609(4) 0.5461(6)
H34_3 H 0.3030 0.8803 0.5073
C55_3 C 0.3003(4) 0.8154(4) 0.5891(4)
C56_3 C 0.2177(4) 0.7976(3) 0.5786(4)
C57_3 C 0.1650(5) 0.8236(4) 0.5242(5)
H35_3 H 0.1819 0.8541 0.4915
C58_3 C 0.0885(6) 0.8043(5) 0.5188(6)
H36_3 H 0.0535 0.8218 0.4825
C59_3 C 0.0633(5) 0.7592(5) 0.5666(6)
H37_3 H 0.0115 0.7454 0.5641
C60_3 C 0.1185(6) 0.7353(5) 0.6185(6)
H38_3 H 0.1025 0.7047 0.6516
O19_2 O 0.2134(3) 0.6862(2) 0.8232(3)
O20_2 O 0.7866(3) 0.6862(2) 0.6768(3)
O21_2 O 0.2216(3) 0.7856(3) 0.8009(3)
O22_2 O 0.7784(3) 0.7856(3) 0.6991(3)
N2_4 N 0.1550(3) 0.2869(3) 0.8561(3)
N3_4 N 0.3069(4) 0.2533(3) 0.8758(4)
O1_4 O 0.1292(3) 0.1317(2) 0.8167(3)
O2_4 O 0.2555(3) 0.1169(2) 0.8450(3)
C1_4 C 0.1845(5) 0.0995(3) 0.8484(4)
C2_4 C 0.1666(4) 0.0437(3) 0.8921(4)
C3_4 C 0.0885(5) 0.0278(4) 0.9057(4)
H1_4 H 0.0474 0.0529 0.8874
C7_4 C 0.2251(5) 0.0067(4) 0.9232(5)
H4_4 H 0.2774 0.0158 0.9147
C21_4 C 0.0800(4) 0.3035(4) 0.8436(5)
H12_4 H 0.0499 0.2837 0.8052
C22_4 C 0.0460(5) 0.3485(5) 0.8849(6)
C23_4 C 0.0914(7) 0.3775(5) 0.9402(7)
H14_4 H 0.0700 0.4091 0.9686
C24_4 C 0.1668(5) 0.3609(4) 0.9539(6)
H15_4 H 0.1970 0.3803 0.9927
C25_4 C 0.1997(4) 0.3154(4) 0.9109(4)
C26_4 C 0.2823(4) 0.2976(3) 0.9214(4)
C27_4 C 0.3350(5) 0.3236(4) 0.9758(5)
C28_4 C 0.4115(6) 0.3043(5) 0.9812(6)
C29_4 C 0.4367(5) 0.2592(5) 0.9334(6)
H18_4 H 0.4885 0.2454 0.9359
C30_4 C 0.3815(6) 0.2353(5) 0.8815(6)
H19_4 H 0.3975 0.2047 0.8484
N4_4 N 0.0685(4) 0.0232(3) 0.7136(4)
C35_4 C 0.1400(6) 0.0256(4) 0.6866(5)
H23_4 H 0.1584 0.0637 0.6705
H32_4 H 0.0066 0.3591 0.6243
O3_4 O 0.1100(4) 0.8920(2) 0.0249(3)
C8_4 C 0.1244(4) 0.8315(3) 0.0058(4)
C9_4 C 0.1158(4) 0.7870(3) 0.0611(4)
C10_4 C 0.0862(4) 0.8014(3) 0.1396(4)
C11_4 C 0.1320(4) 0.7261(3) 0.0425(4)
H5_4 H 0.1256 0.6949 0.0781
C4_4 C 0.0728(6) 0.9750(4) 0.9461(5)
H2_4 H 0.0210 0.9629 0.9518
C5_4 C 0.1322(6) 0.9409(3) 0.9774(5)
C6_4 C 0.2070(5) 0.9559(4) 0.9670(5)
H3_4 H 0.2473 0.9321 0.9894
C12_4 C 0.1576(4) 0.7116(3) 0.9711(4)
H6_4 H 0.1683 0.6706 0.9596
C13_4 C 0.1675(4) 0.7558(3) 0.9173(4)
C14_4 C 0.2017(4) 0.7417(4) 0.8413(4)
C15_4 C 0.1508(4) 0.8167(3) 0.9349(4)
H7_4 H 0.1574 0.8477 0.8989
C31_4 C 0.0415(6) 0.9684(4) 0.7354(5)
C32_4 C 0.0860(10) 0.9152(5) 0.7321(7)
H20_4 H 0.0671 0.8776 0.7493
C33_4 C 0.1564(11) 0.9193(6) 0.7034(8)
H21_4 H 0.1852 0.8832 0.6980
C34_4 C 0.1891(8) 0.9741(7) 0.6813(7)
H22_4 H 0.2398 0.9767 0.6642
N1_4 N 0.9315(4) 0.0232(3) 0.7864(4)
C20_4 C 0.8600(6) 0.0256(4) 0.8134(5)
H11_4 H 0.8416 0.0637 0.8295
H13_4 H 0.9934 0.3591 0.8757
N5_4 N 0.8450(3) 0.2869(3) 0.6439(3)
N6_4 N 0.6931(4) 0.2533(3) 0.6242(4)
O8_4 O 0.8708(3) 0.1317(2) 0.6833(3)
O9_4 O 0.7445(3) 0.1169(2) 0.6550(3)
C36_4 C 0.8155(5) 0.0995(3) 0.6516(4)
C37_4 C 0.8334(4) 0.0437(3) 0.6079(4)
C38_4 C 0.9115(5) 0.0278(4) 0.5943(4)
H24_4 H 0.9526 0.0529 0.6126
C42_4 C 0.7749(5) 0.0067(4) 0.5768(5)
H27_4 H 0.7226 0.0158 0.5853
C51_4 C 0.9200(4) 0.3035(4) 0.6564(5)
H31_4 H 0.9501 0.2837 0.6948
C52_4 C 0.9540(5) 0.3485(5) 0.6151(6)
C53_4 C 0.9086(7) 0.3775(5) 0.5598(7)
H33_4 H 0.9300 0.4091 0.5314
C54_4 C 0.8332(5) 0.3609(4) 0.5461(6)
H34_4 H 0.8030 0.3803 0.5073
C55_4 C 0.8003(4) 0.3154(4) 0.5891(4)
C56_4 C 0.7177(4) 0.2976(3) 0.5786(4)
C57_4 C 0.6650(5) 0.3236(4) 0.5242(5)
H35_4 H 0.6819 0.3541 0.4915
C58_4 C 0.5885(6) 0.3043(5) 0.5188(6)
H36_4 H 0.5535 0.3218 0.4825
C59_4 C 0.5633(5) 0.2592(5) 0.5666(6)
H37_4 H 0.5115 0.2454 0.5641
C60_4 C 0.6185(6) 0.2353(5) 0.6185(6)
H38_4 H 0.6025 0.2047 0.6516
C16_4 C 0.9585(6) 0.9684(4) 0.7646(5)
C17_4 C 0.9140(10) 0.9152(5) 0.7679(7)
H8_4 H 0.9329 0.8776 0.7507
C18_4 C 0.8436(11) 0.9193(6) 0.7966(8)
H9_4 H 0.8148 0.8832 0.8020
C19_4 C 0.8109(8) 0.9741(7) 0.8187(7)
H10_4 H 0.7602 0.9767 0.8358
O10_4 O 0.8900(4) 0.8920(2) 0.4751(3)
C39_4 C 0.9272(6) 0.9750(4) 0.5539(5)
H25_4 H 0.9790 0.9629 0.5482
C40_4 C 0.8678(6) 0.9409(3) 0.5226(5)
C41_4 C 0.7930(5) 0.9559(4) 0.5330(5)
H26_4 H 0.7527 0.9321 0.5106
C43_4 C 0.8756(4) 0.8315(3) 0.4942(4)
C44_4 C 0.8842(4) 0.7870(3) 0.4389(4)
C45_4 C 0.9138(4) 0.8014(3) 0.3604(4)
C46_4 C 0.8680(4) 0.7261(3) 0.4575(4)
H28_4 H 0.8744 0.6949 0.4219
C47_4 C 0.8424(4) 0.7116(3) 0.5289(4)
H29_4 H 0.8317 0.6706 0.5404
C48_4 C 0.8325(4) 0.7558(3) 0.5827(4)
C49_4 C 0.7983(4) 0.7417(4) 0.6587(4)
C50_4 C 0.8492(4) 0.8167(3) 0.5651(4)
H30_4 H 0.8426 0.8477 0.6011
H16_3 H 0.6819 0.6459 0.9915
H17_3 H 0.5535 0.6782 0.9825
H16_4 H 0.3181 0.3541 0.0085
H17_4 H 0.4465 0.3218 0.0175
loop_
_geom_bond_atom_site_label_1
_geom_bond_atom_site_label_2
_geom_bond_site_symmetry_1
_geom_bond_site_symmetry_2
Cd1 N1 1_555 1_555
Cd2 N2 1_555 1_555
N1 C16 1_555 1_555
N2 C21 1_555 1_555
N3 Cd2 1_555 1_555
O1 Cd1 1_555 1_555
O2 Cd2 1_555 1_555
O6 C14 1_555 1_555
O7 C14 1_555 1_555
C1 O1 1_555 1_555
C2 C1 1_555 1_555
C3 C2 1_555 1_555
H1 C3 1_555 1_555
C4 C3 1_555 1_555
H2 C4 1_555 1_555
C5 C4 1_555 1_555
C6 C5 1_555 1_555
H3 C6 1_555 1_555
C7 C2 1_555 1_555
H4 C7 1_555 1_555
H6 C12 1_555 1_555
C13 C12 1_555 1_555
C14 C13 1_555 1_555
H7 C15 1_555 1_555
C16 C17 1_555 1_555
C17 H8 1_555 1_555
C18 C17 1_555 1_555
H9 C18 1_555 1_555
C19 C18 1_555 1_555
H10 C19 1_555 1_555
C20 N1 1_555 1_555
H11 C20 1_555 1_555
C21 H12 1_555 1_555
C22 C21 1_555 1_555
H13 C22 1_555 1_555
C23 C22 1_555 1_555
H14 C23 1_555 1_555
C24 C23 1_555 1_555
H15 C24 1_555 1_555
C25 N2 1_555 1_555
C26 N3 1_555 1_555
C27 C26 1_555 1_555
C28 C27 1_555 1_555
C29 C28 1_555 1_555
H18 C29 1_555 1_555
C30 N3 1_555 1_555
H19 C30 1_555 1_555
N4 Cd1 1_555 1_555
C31 C16 1_555 1_555
C32 C31 1_555 1_555
H20 C32 1_555 1_555
C33 C32 1_555 1_555
H21 C33 1_555 1_555
C34 C33 1_555 1_555
H22 C34 1_555 1_555
C35 N4 1_555 1_555
H23 C35 1_555 1_555
Cd3 N5 1_555 1_555
N5 C51 1_555 1_555
N6 Cd3 1_555 1_555
O8 Cd1 1_555 1_555
O9 Cd3 1_555 1_555
O10 C40 1_555 1_555
O11 C45 1_555 1_555
O12 C45 1_555 1_555
O13 C49 1_555 1_555
O14 C49 1_555 1_555
C36 O8 1_555 1_555
C37 C36 1_555 1_555
C38 C37 1_555 1_555
H24 C38 1_555 1_555
C39 C38 1_555 1_555
H25 C39 1_555 1_555
C40 C39 1_555 1_555
C41 C40 1_555 1_555
H26 C41 1_555 1_555
C42 C37 1_555 1_555
H27 C42 1_555 1_555
C43 O10 1_555 1_555
C44 C43 1_555 1_555
C45 C44 1_555 1_555
C46 C44 1_555 1_555
H28 C46 1_555 1_555
C47 C46 1_555 1_555
H29 C47 1_555 1_555
C48 C47 1_555 1_555
C49 C48 1_555 1_555
C50 C43 1_555 1_555
H30 C50 1_555 1_555
C51 H31 1_555 1_555
C52 C51 1_555 1_555
H32 C52 1_555 1_555
C53 C52 1_555 1_555
H33 C53 1_555 1_555
C54 C53 1_555 1_555
H34 C54 1_555 1_555
C55 N5 1_555 1_555
C56 N6 1_555 1_555
C57 C56 1_555 1_555
H35 C57 1_555 1_555
C58 C57 1_555 1_555
H36 C58 1_555 1_555
C59 C58 1_555 1_555
H37 C59 1_555 1_555
C60 N6 1_555 1_555
H38 C60 1_555 1_555
Cd5 O12 1_555 1_555
Cd6 O13 1_555 1_555
Cd7 O6 1_555 1_555
Cd8 O11 1_555 1_555
O15 Cd3 1_555 1_555
O16 Cd2 1_555 1_555
O17 Cd1 1_555 1_555
O18 Cd1 1_555 1_555
O19 Cd3 1_555 1_555
O20 Cd2 1_555 1_555
O21 Cd3 1_555 1_555
O22 Cd2 1_555 1_555
Cd2 O1 1_555 1_555
O2 C1 1_555 1_555
O7 Cd7 1_555 1_555
C6 C7 1_555 1_555
C13 C15 1_555 1_555
C19 C20 1_555 1_555
C24 C25 1_555 1_555
C25 C26 1_555 1_555
C29 C30 1_555 1_555
N4 C31 1_555 1_555
C34 C35 1_555 1_555
Cd3 O8 1_555 1_555
O9 C36 1_555 1_555
O14 Cd6 1_555 1_555
C41 C42 1_555 1_555
C48 C50 1_555 1_555
C54 C55 1_555 1_555
C55 C56 1_555 1_555
C59 C60 1_555 1_555
O4 C10 1_555 1_555
O5 C10 1_555 1_555
C8 O3 1_555 1_555
C9 C8 1_555 1_555
C10 C9 1_555 1_555
C11 C9 1_555 1_555
H5 C11 1_555 1_555
Cd5 O5 1_555 1_555
Cd9 O4 1_555 1_555
C16_2 C17_2 1_555 1_555
C17_2 H8_2 1_555 1_555
C18_2 C17_2 1_555 1_555
H9_2 C18_2 1_555 1_555
C19_2 C18_2 1_555 1_555
H10_2 C19_2 1_555 1_555
O10_2 C40_2 1_555 1_555
O11_2 C45_2 1_555 1_555
O12_2 C45_2 1_555 1_555
O20 C49_2 1_555 1_555
O22 C49_2 1_555 1_555
H25_2 C39_2 1_555 1_555
C40_2 C39_2 1_555 1_555
C41_2 C40_2 1_555 1_555
H26_2 C41_2 1_555 1_555
C43_2 O10_2 1_555 1_555
C44_2 C43_2 1_555 1_555
C45_2 C44_2 1_555 1_555
C46_2 C44_2 1_555 1_555
H28_2 C46_2 1_555 1_555
C47_2 C46_2 1_555 1_555
H29_2 C47_2 1_555 1_555
C48_2 C47_2 1_555 1_555
C49_2 C48_2 1_555 1_555
C50_2 C43_2 1_555 1_555
H30_2 C50_2 1_555 1_555
Cd5_2 O12_2 1_555 1_555
Cd8_2 O11_2 1_555 1_555
C48_2 C50_2 1_555 1_555
Cd1_2 N1_2 1_555 1_555
C20_2 N1_2 1_555 1_555
H11_2 C20_2 1_555 1_555
Cd7 N5_2 1_555 1_555
N5_2 C51_2 1_555 1_555
N6_2 Cd7 1_555 1_555
O8_2 Cd1_2 1_555 1_555
O9_2 Cd7 1_555 1_555
C36_2 O8_2 1_555 1_555
C37_2 C36_2 1_555 1_555
C38_2 C37_2 1_555 1_555
H24_2 C38_2 1_555 1_555
C42_2 C37_2 1_555 1_555
H27_2 C42_2 1_555 1_555
C51_2 H31_2 1_555 1_555
C52_2 C51_2 1_555 1_555
C53_2 C52_2 1_555 1_555
H33_2 C53_2 1_555 1_555
C54_2 C53_2 1_555 1_555
H34_2 C54_2 1_555 1_555
C55_2 N5_2 1_555 1_555
C56_2 N6_2 1_555 1_555
C57_2 C56_2 1_555 1_555
H35_2 C57_2 1_555 1_555
C58_2 C57_2 1_555 1_555
H36_2 C58_2 1_555 1_555
C59_2 C58_2 1_555 1_555
H37_2 C59_2 1_555 1_555
C60_2 N6_2 1_555 1_555
H38_2 C60_2 1_555 1_555
O15_2 Cd7 1_555 1_555
O17_2 Cd1_2 1_555 1_555
Cd7 O8_2 1_555 1_555
O9_2 C36_2 1_555 1_555
C54_2 C55_2 1_555 1_555
C55_2 C56_2 1_555 1_555
C59_2 C60_2 1_555 1_555
O19 C14_2 1_555 1_555
O21 C14_2 1_555 1_555
H2_2 C4_2 1_555 1_555
C5_2 C4_2 1_555 1_555
C6_2 C5_2 1_555 1_555
H3_2 C6_2 1_555 1_555
H6_2 C12_2 1_555 1_555
C13_2 C12_2 1_555 1_555
C14_2 C13_2 1_555 1_555
H7_2 C15_2 1_555 1_555
C32_2 C31_2 1_555 1_555
H20_2 C32_2 1_555 1_555
C33_2 C32_2 1_555 1_555
H21_2 C33_2 1_555 1_555
C34_2 C33_2 1_555 1_555
H22_2 C34_2 1_555 1_555
C13_2 C15_2 1_555 1_555
O4_2 C10_2 1_555 1_555
O5_2 C10_2 1_555 1_555
C8_2 O3_2 1_555 1_555
C9_2 C8_2 1_555 1_555
C10_2 C9_2 1_555 1_555
C11_2 C9_2 1_555 1_555
H5_2 C11_2 1_555 1_555
Cd5_3 O5_2 1_555 1_555
Cd9_2 O4_2 1_555 1_555
Cd6 N2_2 1_555 1_555
N2_2 C21_2 1_555 1_555
N3_2 Cd6 1_555 1_555
O1_2 Cd1_3 1_555 1_555
O2_2 Cd6 1_555 1_555
C1_2 O1_2 1_555 1_555
C2_2 C1_2 1_555 1_555
C3_2 C2_2 1_555 1_555
H1_2 C3_2 1_555 1_555
C7_2 C2_2 1_555 1_555
H4_2 C7_2 1_555 1_555
C21_2 H12_2 1_555 1_555
C22_2 C21_2 1_555 1_555
C23_2 C22_2 1_555 1_555
H14_2 C23_2 1_555 1_555
C24_2 C23_2 1_555 1_555
H15_2 C24_2 1_555 1_555
C25_2 N2_2 1_555 1_555
C26_2 N3_2 1_555 1_555
C27_2 C26_2 1_555 1_555
C28_2 C27_2 1_555 1_555
C29_2 C28_2 1_555 1_555
H18_2 C29_2 1_555 1_555
C30_2 N3_2 1_555 1_555
H19_2 C30_2 1_555 1_555
N4_2 Cd1_3 1_555 1_555
C35_2 N4_2 1_555 1_555
H23_2 C35_2 1_555 1_555
O16_2 Cd6 1_555 1_555
O18_2 Cd1_3 1_555 1_555
Cd6 O1_2 1_555 1_555
O2_2 C1_2 1_555 1_555
C24_2 C25_2 1_555 1_555
C25_2 C26_2 1_555 1_555
C29_2 C30_2 1_555 1_555
O15 C10_3 1_555 1_555
O17 C10_3 1_555 1_555
C8_3 O3_3 1_555 1_555
C9_3 C8_3 1_555 1_555
C10_3 C9_3 1_555 1_555
C11_3 C9_3 1_555 1_555
H5_3 C11_3 1_555 1_555
Cd5 N1_3 1_555 1_555
Cd8 N2_3 1_555 1_555
N1_3 C16_3 1_555 1_555
N2_3 C21_3 1_555 1_555
N3_3 Cd8 1_555 1_555
O1_3 Cd5 1_555 1_555
O2_3 Cd8 1_555 1_555
O6_2 C14_3 1_555 1_555
O7_2 C14_3 1_555 1_555
C1_3 O1_3 1_555 1_555
C2_3 C1_3 1_555 1_555
C3_3 C2_3 1_555 1_555
H1_3 C3_3 1_555 1_555
C4_3 C3_3 1_555 1_555
H2_3 C4_3 1_555 1_555
C5_3 C4_3 1_555 1_555
C6_3 C5_3 1_555 1_555
H3_3 C6_3 1_555 1_555
C7_3 C2_3 1_555 1_555
H4_3 C7_3 1_555 1_555
H6_3 C12_3 1_555 1_555
C13_3 C12_3 1_555 1_555
C14_3 C13_3 1_555 1_555
H7_3 C15_3 1_555 1_555
C16_3 C17_3 1_555 1_555
C17_3 H8_3 1_555 1_555
C18_3 C17_3 1_555 1_555
H9_3 C18_3 1_555 1_555
C19_3 C18_3 1_555 1_555
H10_3 C19_3 1_555 1_555
C20_3 N1_3 1_555 1_555
H11_3 C20_3 1_555 1_555
C21_3 H12_3 1_555 1_555
C22_3 C21_3 1_555 1_555
H13_3 C22_3 1_555 1_555
C23_3 C22_3 1_555 1_555
H14_3 C23_3 1_555 1_555
C24_3 C23_3 1_555 1_555
H15_3 C24_3 1_555 1_555
C25_3 N2_3 1_555 1_555
C26_3 N3_3 1_555 1_555
C27_3 C26_3 1_555 1_555
C28_3 C27_3 1_555 1_555
C29_3 C28_3 1_555 1_555
H18_3 C29_3 1_555 1_555
C30_3 N3_3 1_555 1_555
H19_3 C30_3 1_555 1_555
N4_3 Cd5 1_555 1_555
C31_3 C16_3 1_555 1_555
C32_3 C31_3 1_555 1_555
H20_3 C32_3 1_555 1_555
C33_3 C32_3 1_555 1_555
H21_3 C33_3 1_555 1_555
C34_3 C33_3 1_555 1_555
H22_3 C34_3 1_555 1_555
C35_3 N4_3 1_555 1_555
H23_3 C35_3 1_555 1_555
Cd9 N5_3 1_555 1_555
N5_3 C51_3 1_555 1_555
N6_3 Cd9 1_555 1_555
O8_3 Cd5 1_555 1_555
O9_3 Cd9 1_555 1_555
O10_3 C40_3 1_555 1_555
O16 C45_3 1_555 1_555
O18 C45_3 1_555 1_555
O13_2 C49_3 1_555 1_555
O14_2 C49_3 1_555 1_555
C36_3 O8_3 1_555 1_555
C37_3 C36_3 1_555 1_555
C38_3 C37_3 1_555 1_555
H24_3 C38_3 1_555 1_555
C39_3 C38_3 1_555 1_555
H25_3 C39_3 1_555 1_555
C40_3 C39_3 1_555 1_555
C41_3 C40_3 1_555 1_555
H26_3 C41_3 1_555 1_555
C42_3 C37_3 1_555 1_555
H27_3 C42_3 1_555 1_555
C43_3 O10_3 1_555 1_555
C44_3 C43_3 1_555 1_555
C45_3 C44_3 1_555 1_555
C46_3 C44_3 1_555 1_555
H28_3 C46_3 1_555 1_555
C47_3 C46_3 1_555 1_555
H29_3 C47_3 1_555 1_555
C48_3 C47_3 1_555 1_555
C49_3 C48_3 1_555 1_555
C50_3 C43_3 1_555 1_555
H30_3 C50_3 1_555 1_555
C51_3 H31_3 1_555 1_555
C52_3 C51_3 1_555 1_555
H32_3 C52_3 1_555 1_555
C53_3 C52_3 1_555 1_555
H33_3 C53_3 1_555 1_555
C54_3 C53_3 1_555 1_555
H34_3 C54_3 1_555 1_555
C55_3 N5_3 1_555 1_555
C56_3 N6_3 1_555 1_555
C57_3 C56_3 1_555 1_555
H35_3 C57_3 1_555 1_555
C58_3 C57_3 1_555 1_555
H36_3 C58_3 1_555 1_555
C59_3 C58_3 1_555 1_555
H37_3 C59_3 1_555 1_555
C60_3 N6_3 1_555 1_555
H38_3 C60_3 1_555 1_555
Cd8_2 O13_2 1_555 1_555
Cd9_2 O6_2 1_555 1_555
O19_2 Cd9 1_555 1_555
O20_2 Cd8 1_555 1_555
O21_2 Cd9 1_555 1_555
O22_2 Cd8 1_555 1_555
Cd8 O1_3 1_555 1_555
O2_3 C1_3 1_555 1_555
O7_2 Cd9_2 1_555 1_555
C6_3 C7_3 1_555 1_555
C13_3 C15_3 1_555 1_555
C19_3 C20_3 1_555 1_555
C24_3 C25_3 1_555 1_555
C25_3 C26_3 1_555 1_555
C29_3 C30_3 1_555 1_555
N4_3 C31_3 1_555 1_555
C34_3 C35_3 1_555 1_555
Cd9 O8_3 1_555 1_555
O9_3 C36_3 1_555 1_555
O14_2 Cd8_2 1_555 1_555
C41_3 C42_3 1_555 1_555
C48_3 C50_3 1_555 1_555
C54_3 C55_3 1_555 1_555
C55_3 C56_3 1_555 1_555
C59_3 C60_3 1_555 1_555
Cd8_2 N2_4 1_555 1_555
N2_4 C21_4 1_555 1_555
N3_4 Cd8_2 1_555 1_555
O1_4 Cd5_2 1_555 1_555
O2_4 Cd8_2 1_555 1_555
C1_4 O1_4 1_555 1_555
C2_4 C1_4 1_555 1_555
C3_4 C2_4 1_555 1_555
H1_4 C3_4 1_555 1_555
C7_4 C2_4 1_555 1_555
H4_4 C7_4 1_555 1_555
C21_4 H12_4 1_555 1_555
C22_4 C21_4 1_555 1_555
C23_4 C22_4 1_555 1_555
H14_4 C23_4 1_555 1_555
C24_4 C23_4 1_555 1_555
H15_4 C24_4 1_555 1_555
C25_4 N2_4 1_555 1_555
C26_4 N3_4 1_555 1_555
C27_4 C26_4 1_555 1_555
C28_4 C27_4 1_555 1_555
C29_4 C28_4 1_555 1_555
H18_4 C29_4 1_555 1_555
C30_4 N3_4 1_555 1_555
H19_4 C30_4 1_555 1_555
N4_4 Cd5_2 1_555 1_555
C35_4 N4_4 1_555 1_555
H23_4 C35_4 1_555 1_555
Cd8_2 O1_4 1_555 1_555
O2_4 C1_4 1_555 1_555
C24_4 C25_4 1_555 1_555
C25_4 C26_4 1_555 1_555
C29_4 C30_4 1_555 1_555
O15_2 C10_4 1_555 1_555
O17_2 C10_4 1_555 1_555
C8_4 O3_4 1_555 1_555
C9_4 C8_4 1_555 1_555
C10_4 C9_4 1_555 1_555
C11_4 C9_4 1_555 1_555
H5_4 C11_4 1_555 1_555
O19_2 C14_4 1_555 1_555
O21_2 C14_4 1_555 1_555
H2_4 C4_4 1_555 1_555
C5_4 C4_4 1_555 1_555
C6_4 C5_4 1_555 1_555
H3_4 C6_4 1_555 1_555
H6_4 C12_4 1_555 1_555
C13_4 C12_4 1_555 1_555
C14_4 C13_4 1_555 1_555
H7_4 C15_4 1_555 1_555
C32_4 C31_4 1_555 1_555
H20_4 C32_4 1_555 1_555
C33_4 C32_4 1_555 1_555
H21_4 C33_4 1_555 1_555
C34_4 C33_4 1_555 1_555
H22_4 C34_4 1_555 1_555
C13_4 C15_4 1_555 1_555
Cd5_3 N1_4 1_555 1_555
C20_4 N1_4 1_555 1_555
H11_4 C20_4 1_555 1_555
Cd9_2 N5_4 1_555 1_555
N5_4 C51_4 1_555 1_555
N6_4 Cd9_2 1_555 1_555
O8_4 Cd5_3 1_555 1_555
O9_4 Cd9_2 1_555 1_555
C36_4 O8_4 1_555 1_555
C37_4 C36_4 1_555 1_555
C38_4 C37_4 1_555 1_555
H24_4 C38_4 1_555 1_555
C42_4 C37_4 1_555 1_555
H27_4 C42_4 1_555 1_555
C51_4 H31_4 1_555 1_555
C52_4 C51_4 1_555 1_555
C53_4 C52_4 1_555 1_555
H33_4 C53_4 1_555 1_555
C54_4 C53_4 1_555 1_555
H34_4 C54_4 1_555 1_555
C55_4 N5_4 1_555 1_555
C56_4 N6_4 1_555 1_555
C57_4 C56_4 1_555 1_555
H35_4 C57_4 1_555 1_555
C58_4 C57_4 1_555 1_555
H36_4 C58_4 1_555 1_555
C59_4 C58_4 1_555 1_555
H37_4 C59_4 1_555 1_555
C60_4 N6_4 1_555 1_555
H38_4 C60_4 1_555 1_555
Cd9_2 O8_4 1_555 1_555
O9_4 C36_4 1_555 1_555
C54_4 C55_4 1_555 1_555
C55_4 C56_4 1_555 1_555
C59_4 C60_4 1_555 1_555
C16_4 C17_4 1_555 1_555
C17_4 H8_4 1_555 1_555
C18_4 C17_4 1_555 1_555
H9_4 C18_4 1_555 1_555
C19_4 C18_4 1_555 1_555
H10_4 C19_4 1_555 1_555
O10_4 C40_4 1_555 1_555
O16_2 C45_4 1_555 1_555
O18_2 C45_4 1_555 1_555
O20_2 C49_4 1_555 1_555
O22_2 C49_4 1_555 1_555
H25_4 C39_4 1_555 1_555
C40_4 C39_4 1_555 1_555
C41_4 C40_4 1_555 1_555
H26_4 C41_4 1_555 1_555
C43_4 O10_4 1_555 1_555
C44_4 C43_4 1_555 1_555
C45_4 C44_4 1_555 1_555
C46_4 C44_4 1_555 1_555
H28_4 C46_4 1_555 1_555
C47_4 C46_4 1_555 1_555
H29_4 C47_4 1_555 1_555
C48_4 C47_4 1_555 1_555
C49_4 C48_4 1_555 1_555
C50_4 C43_4 1_555 1_555
H30_4 C50_4 1_555 1_555
C48_4 C50_4 1_555 1_555

#END
