
###############################################################################
#
# This file contains modified crystal structure data generated from the
# MOF subset of the Cambridge Structural Database (CSD) v543 
# hosted by the Cambridge Crystallographic Data Centre (CCDC).
#
# This work is licensed under the Creative Commons
# Attribution-NonCommercial-ShareAlike 4.0 International License.
# To view a copy of this license, visit
# http://creativecommons.org/licenses/by-nc-sa/4.0/
# or send a letter to
# Creative Commons, PO Box 1866, Mountain View, CA 94042, USA.
#
# CIF created using the CSD Python API on 29 September 2022
# The structure has been converted into the P1 space group
# The structure has a 3D framework
# The original CSD entry ODONIF is in the hexagonal crystal system
# The original CSD entry ODONIF is in a Sohncke space group
# The framework has been calculated to contain at least 10.0% void space
# The void calculation uses a probe of radius 1.32A, grid spacing 0.4
#
###############################################################################

data_ODONIF
_chemical_formula_moiety         '(C276 H336 Co12 N96 O96)n'
_symmetry_cell_setting           triclinic
_symmetry_space_group_name_H-M   'P 1'
_symmetry_Int_Tables_number      1
_space_group_name_Hall           'P 1'
loop_
_symmetry_equiv_pos_site_id
_symmetry_equiv_pos_as_xyz
1 x,y,z
_cell_length_a                   12.5764(6)
_cell_length_b                   12.5764(6)
_cell_length_c                   62.941(4)
_cell_angle_alpha                90
_cell_angle_beta                 90
_cell_angle_gamma                120
_cell_volume                     8621.38
loop_
_atom_site_label
_atom_site_type_symbol
_atom_site_fract_x
_atom_site_fract_y
_atom_site_fract_z
C16 C 0.4237(4) 0.0000 0.5000
H32 H 0.3926 0.0150 0.6998
C31 C 0.2618(4) 0.0053(4) 0.62811(7)
H34 H 0.2079 0.0012 0.6168
C32 C 0.3170(3) 0.1306(4) 0.63870(6)
C33 C 0.5749(6) 0.1807(4) 0.43239(6)
H35 H 0.5662 0.1571 0.4182
C34 C 0.4810(6) 0.1077(4) 0.44667(7)
H36 H 0.4120 0.0368 0.4419
C35 C 0.4902(6) 0.1406(4) 0.46794(6)
C36 C 0.5966(6) 0.2452(4) 0.47396(6)
H37 H 0.6079 0.2699 0.4881
C37 C 0.6855(6) 0.3129(4) 0.45941(6)
H38 H 0.7558 0.3831 0.4640
C38 C 0.3902(6) 0.0678(4) 0.48349(7)
H39 H 0.3181 0.0083 0.4758
H40 H 0.3691 0.1226 0.4908
H41 H 0.4986 0.0586 0.5073
N15 N 0.6765(4) 0.2828(3) 0.43835(5)
Co3 Co 0.81150(4) 0.40575(3) 0.4167
O14 O 0.2682(3) 0.1430(3) 0.65513(5)
H52 H 0.3068 0.2145 0.6592
O15 O 0.4112(3) 0.2174(3) 0.62984(5)
C1 C 0.0767(3) 0.4151(3) 0.53100(6)
C2 C 0.0753(3) 0.5265(4) 0.50125(5)
C3 C 0.0408(3) 0.5723(3) 0.53448(5)
C4 C 0.0702(4) 0.2838(4) 0.56027(6)
H1 H 0.0220 0.2020 0.5657
H2 H 0.0223 0.3240 0.5605
C5 C 0.1823(3) 0.3544(3) 0.57399(5)
C6 C 0.0715(4) 0.6412(4) 0.47006(6)
H3 H 0.0964 0.7100 0.4796
C7 C 0.1444(4) 0.6858(4) 0.44974(5)
H5 H 0.0574 0.7879 0.5282
C10 C 0.3942(4) 0.8193(4) 0.56761(6)
H7 H 0.4091 0.8429 0.5818
C11 C 0.3733(4) 0.8923(4) 0.55333(7)
H8 H 0.3752 0.9632 0.5581
C12 C 0.3496(4) 0.8594(4) 0.53206(6)
C13 C 0.3514(4) 0.7548(4) 0.52604(6)
H9 H 0.3380 0.7301 0.5119
C14 C 0.3726(4) 0.6871(4) 0.54059(6)
H10 H 0.3727 0.6169 0.5360
C15 C 0.3224(4) 0.9322(4) 0.51651(7)
H11 H 0.3098 0.9917 0.5242
H12 H 0.2465 0.8774 0.5092
C16_2 C 0.4237(4) 1.0000 0.5000
H13 H 0.4400 0.9414 0.4927
C17 C 0.4390(4) 0.7378(3) 0.37446(5)
H14 H 0.3712 0.7445 0.3706
C18 C 0.5333(4) 0.7781(4) 0.36037(6)
H15 H 0.5287 0.8114 0.3475
C19 C 0.6365(4) 0.7696(4) 0.36521(7)
C20 C 0.6351(4) 0.7139(5) 0.38463(7)
H16 H 0.7005 0.7032 0.3885
C21 C 0.5359(4) 0.6756(4) 0.39786(6)
H17 H 0.5363 0.6381 0.4106
C22 C 0.7437(4) 0.8102(4) 0.34970(7)
H18 H 0.7605 0.8860 0.3428
H19 H 0.8168 0.8252 0.3574
C23 C 0.7123(5) 0.7123(5) 0.3333
H20 H 0.6959 0.6382 0.3406
N1 N 0.0529(3) 0.4828(3) 0.54405(5)
N2 N 0.0911(3) 0.4346(3) 0.50914(4)
N3 N 0.0486(3) 0.5979(3) 0.51328(5)
N4 N 0.0837(3) 0.3196(3) 0.53775(5)
H21 H 0.0968 0.2765 0.5286
N5 N 0.0896(3) 0.5473(3) 0.48047(4)
H22 H 0.1103 0.5038 0.4728
N6 N 0.0218(3) 0.6471(3) 0.54720(5)
H23 H 0.0258 0.6409 0.5607
N7 N 0.3937(3) 0.7172(3) 0.56165(5)
N8 N 0.4373(3) 0.6886(3) 0.39365(4)
Co1 Co 0.40575(3) 0.59425(3) 0.5833
Co2 Co 0.30362(6) 0.65181(3) 0.4167
O1 O 0.2672(2) 0.4517(2) 0.56650(4)
O2 O 0.1794(3) 0.3096(3) 0.59185(4)
O3 O 0.1710(2) 0.6140(2) 0.43995(3)
O4 O 0.1721(4) 0.7929(3) 0.44338(5)
O7 O 0.5348(3) 0.5948(3) 0.56238(4)
H25 H 0.5307 0.5261 0.5644
H26 H 0.6089 0.6510 0.5642
O8 O 0.2967(3) 0.8076(2) 0.40854(4)
H27 H 0.2690 0.8297 0.4189
H28 H 0.2414 0.7835 0.3990
C24 C 0.5849(3) 0.9233(3) 0.63567(6)
C25 C 0.4735(4) 0.9247(3) 0.66542(5)
C26 C 0.4277(3) 0.9592(3) 0.63219(5)
C27 C 0.7162(4) 0.9298(4) 0.60640(6)
H29 H 0.7980 0.9780 0.6010
H30 H 0.6760 0.9777 0.6062
C28 C 0.6456(3) 0.8177(3) 0.59268(5)
C29 C 0.3588(4) 0.9285(4) 0.69661(6)
H31 H 0.2900 0.9036 0.6871
C30 C 0.3142(4) 0.8556(4) 0.71693(5)
H33 H 0.2121 0.9426 0.6385
C39 C 0.7378(3) 0.4390(4) 0.29221(5)
H42 H 0.7445 0.3712 0.2961
C40 C 0.7781(4) 0.5333(4) 0.30630(6)
H43 H 0.8114 0.5287 0.3192
C41 C 0.7696(4) 0.6365(4) 0.30146(7)
C42 C 0.7139(5) 0.6351(4) 0.28204(7)
H44 H 0.7032 0.7005 0.2782
C43 C 0.6756(4) 0.5359(4) 0.26881(6)
H45 H 0.6381 0.5363 0.2561
C44 C 0.8102(4) 0.7437(4) 0.31697(7)
H46 H 0.8860 0.7605 0.3239
H47 H 0.8252 0.8168 0.3093
H48 H 0.6382 0.6959 0.3261
N9 N 0.5172(3) 0.9471(3) 0.62262(5)
N10 N 0.5654(3) 0.9089(3) 0.65753(4)
N11 N 0.4021(3) 0.9514(3) 0.65339(5)
N12 N 0.6804(3) 0.9163(3) 0.62892(5)
H49 H 0.7235 0.9032 0.6381
N13 N 0.4527(3) 0.9104(3) 0.68620(4)
H50 H 0.4962 0.8897 0.6939
N14 N 0.3529(3) 0.9782(3) 0.61947(5)
H51 H 0.3591 0.9742 0.6060
N16 N 0.2828(3) 0.6063(3) 0.60502(5)
N17 N 0.6886(3) 0.4373(3) 0.27302(4)
N18 N 0.4373(3) 0.7487(4) 0.43968(4)
Co4 Co 0.34819(3) 0.69638(6) 0.7500
Co5 Co 0.65181(7) 0.30362(6) 0.2500
O9 O 0.5483(2) 0.7328(2) 0.60017(4)
O10 O 0.6904(3) 0.8206(3) 0.57482(4)
O11 O 0.3860(2) 0.8290(2) 0.72672(3)
O12 O 0.1710(2) 0.5570(3) 0.39338(3)
O13 O 0.2071(3) 0.8279(4) 0.72329(5)
O16 O 0.4052(3) 0.4652(3) 0.60429(4)
H53 H 0.4739 0.4693 0.6023
H54 H 0.3490 0.3911 0.6025
O17 O 0.2967(3) 0.4891(4) 0.42479(4)
H55 H 0.2690 0.4393 0.4144
H56 H 0.2414 0.4579 0.4343
H4 H 0.9850 0.6074 0.4669
C8 C 0.9947(4) 0.7382(4) 0.53856(7)
H6 H 0.9988 0.7921 0.5499
C9 C 0.8694(4) 0.6830(3) 0.52797(6)
O5 O 0.8570(3) 0.7318(3) 0.51154(5)
H24 H 0.7855 0.6932 0.5075
O6 O 0.7826(3) 0.5888(3) 0.53683(5)
H20_2 H 0.3618 0.0577 0.0073
H25_2 H 0.4739 0.0046 0.2311
H53_2 H 0.5307 0.0046 0.2689
C23_2 C 0.2877(5) -0.0000(7) 1.0000
C39_2 C 0.5610(4) 0.2988(5) 0.95887(5)
H42_2 H 0.6288 0.3733 0.9627
C40_2 C 0.4667(4) 0.2448(6) 0.97296(6)
H43_2 H 0.4713 0.2827 0.9858
C41_2 C 0.3635(4) 0.1331(6) 0.96812(7)
C42_2 C 0.3649(4) 0.0788(6) 0.94870(7)
H44_2 H 0.2995 0.0027 0.9448
C43_2 C 0.4641(4) 0.1397(6) 0.93547(6)
H45_2 H 0.4637 0.1018 0.9227
C44_2 C 0.2563(4) 0.0665(6) 0.98363(7)
H46_2 H 0.2395 0.1255 0.9905
H47_2 H 0.1832 0.0084 0.9759
N17_2 N 0.5627(3) 0.2513(4) 0.93968(4)
Co5_2 Co 0.69638(6) 0.34819(9) 0.9167
C1_2 C 0.5849(3) 0.6616(4) 0.19767(6)
C2_2 C 0.4735(4) 0.5488(5) 0.16792(5)
C3_2 C 0.4277(3) 0.4685(4) 0.20115(5)
C4_2 C 0.7162(4) 0.7864(6) 0.22694(6)
H1_2 H 0.7980 0.8200 0.2324
H2_2 H 0.6760 0.6983 0.2272
C5_2 C 0.6456(3) 0.8279(4) 0.24066(5)
C6_2 C 0.3588(4) 0.4303(6) 0.13673(6)
H3_2 H 0.2900 0.3864 0.1463
H4_2 H 0.3926 0.3776 0.1336
C7_2 C 0.3142(4) 0.4586(6) 0.11641(5)
C8_2 C 0.2618(4) 0.2565(6) 0.20523(7)
H5_2 H 0.2121 0.2695 0.1949
H6_2 H 0.2079 0.2067 0.2166
C9_2 C 0.3170(3) 0.1864(5) 0.19464(6)
C10_2 C 0.1807(4) 0.5749(6) 0.23428(6)
H7_2 H 0.1571 0.5662 0.2485
C11_2 C 0.1077(4) 0.4810(6) 0.22000(7)
H8_2 H 0.0368 0.4120 0.2248
C12_2 C 0.1406(4) 0.4902(6) 0.19873(6)
C13_2 C 0.2452(4) 0.5966(6) 0.19271(6)
H9_2 H 0.2699 0.6079 0.1786
C14_2 C 0.3129(4) 0.6855(6) 0.20726(6)
H10_2 H 0.3831 0.7558 0.2027
C15_2 C 0.0678(4) 0.3902(6) 0.18318(7)
H11_2 H 0.0083 0.3181 0.1909
H12_2 H 0.1226 0.3691 0.1759
C16_3 C -0.0000 0.4237(4) 0.1667
H13_2 H 0.0586 0.4986 0.1594
C17_2 C 0.2622(3) 0.7012(5) 0.04113(5)
H14_2 H 0.2555 0.6267 0.0373
C18_2 C 0.2219(4) 0.7552(6) 0.02704(6)
H15_2 H 0.1886 0.7173 0.0142
C19_2 C 0.2304(4) 0.8669(6) 0.03188(7)
C20_2 C 0.2861(5) 0.9212(6) 0.05130(7)
H16_2 H 0.2968 0.9973 0.0552
C21_2 C 0.3244(4) 0.8603(6) 0.06453(6)
H17_2 H 0.3619 0.8982 0.0773
C22_2 C 0.1898(4) 0.9335(6) 0.01637(7)
H18_2 H 0.1140 0.8745 0.0095
H19_2 H 0.1748 0.9916 0.0241
N1_2 N 0.5172(3) 0.5701(4) 0.21072(5)
N2_2 N 0.5654(3) 0.6565(4) 0.17581(4)
N3_2 N 0.4021(3) 0.4507(4) 0.17995(5)
N4_2 N 0.6804(3) 0.7641(4) 0.20442(5)
H21_2 H 0.7235 0.8203 0.1953
N5_2 N 0.4527(3) 0.5423(4) 0.14714(4)
H22_2 H 0.4962 0.6065 0.1395
N6_2 N 0.3529(3) 0.3747(4) 0.21387(5)
H23_2 H 0.3591 0.3849 0.2274
N7_2 N 0.2828(3) 0.6765(4) 0.22832(5)
N8_2 N 0.3114(3) 0.7487(4) 0.06032(4)
Co1_2 Co 0.40575(3) 0.81150(4) 0.2500
Co2_2 Co 0.34819(3) 0.65181(7) 0.0834
O1_2 O 0.5483(2) 0.8155(3) 0.23317(4)
O2_2 O 0.6904(3) 0.8698(4) 0.25852(4)
O3_2 O 0.3860(2) 0.5570(3) 0.10662(3)
O4_2 O 0.2071(3) 0.3792(5) 0.11005(5)
O5_2 O 0.2682(3) 0.1252(4) 0.17821(5)
H24_2 H 0.3068 0.0923 0.1742
O6_2 O 0.4112(3) 0.1938(4) 0.20350(5)
O7_2 O 0.4052(3) 0.9400(4) 0.22905(4)
H26_2 H 0.3490 0.9579 0.2309
O8_2 O 0.1924(2) 0.4891(4) 0.07521(4)
H27_2 H 0.1703 0.4393 0.0856
H28_2 H 0.2165 0.4579 0.0657
C24_2 C 0.0767(3) 0.6616(4) 0.30233(6)
C25_2 C 0.0753(3) 0.5488(5) 0.33208(5)
C26_2 C 0.0408(3) 0.4685(4) 0.29885(5)
C27_2 C 0.0702(4) 0.7864(6) 0.27306(6)
H29_2 H 0.0220 0.8200 0.2676
H30_2 H 0.0223 0.6983 0.2728
C28_2 C 0.1823(3) 0.8279(4) 0.25934(5)
C29_2 C 0.0715(4) 0.4303(6) 0.36327(6)
H31_2 H 0.0964 0.3864 0.3537
C30_2 C 0.1444(4) 0.4586(6) 0.38359(5)
H33_2 H 0.0574 0.2695 0.3051
N9_2 N 0.0529(3) 0.5701(4) 0.28928(5)
N10_2 N 0.0911(3) 0.6565(4) 0.32419(4)
N11_2 N 0.0486(3) 0.4507(4) 0.32005(5)
N12_2 N 0.0837(3) 0.7641(4) 0.29558(5)
H49_2 H 0.0968 0.8203 0.3047
N13_2 N 0.0896(3) 0.5423(4) 0.35286(4)
H50_2 H 0.1103 0.6065 0.3605
N14_2 N 0.0218(3) 0.3747(4) 0.28613(5)
H51_2 H 0.0258 0.3849 0.2726
N16_2 N 0.3937(3) 0.6765(4) 0.27168(5)
N18_2 N 0.2513(4) 0.6886(5) 0.10635(4)
O9_2 O 0.2672(2) 0.8155(3) 0.26683(4)
O10_2 O 0.1794(3) 0.8698(4) 0.24148(4)
O12_2 O 0.4430(3) 0.6140(4) 0.06005(3)
O13_2 O 0.1721(4) 0.3792(5) 0.38995(5)
O16_2 O 0.5348(3) 0.9400(4) 0.27095(4)
H54_2 H 0.6089 0.9579 0.2691
O17_2 O 0.5109(4) 0.8076(5) 0.09146(4)
H55_2 H 0.5607 0.8297 0.0811
H56_2 H 0.5421 0.7835 0.1010
C23_3 C 0.2877(5) 1.0000(7) 1.0000
H48_2 H 0.3041 0.9423 0.9927
C16_4 C 1.0000 0.4237(4) 0.1667
H32_2 H 0.9850 0.3776 0.3664
C31_2 C 0.9947(4) 0.2565(6) 0.29477(7)
H34_2 H 0.9988 0.2067 0.2834
C32_2 C 0.8694(4) 0.1864(5) 0.30536(6)
C33_2 C 0.8193(4) 0.3942(7) 0.09906(6)
H35_2 H 0.8429 0.4091 0.0849
C34_2 C 0.8923(4) 0.3733(7) 0.11334(7)
H36_2 H 0.9632 0.3752 0.1086
C35_2 C 0.8594(4) 0.3496(7) 0.13461(6)
C36_2 C 0.7548(4) 0.3514(7) 0.14063(6)
H37_2 H 0.7301 0.3380 0.1548
C37_2 C 0.6871(4) 0.3726(7) 0.12608(6)
H38_2 H 0.6169 0.3727 0.1307
C38_2 C 0.9322(4) 0.3224(7) 0.15016(7)
H39_2 H 0.9917 0.3098 0.1425
H40_2 H 0.8774 0.2465 0.1575
H41_2 H 0.9414 0.4400 0.1740
N15_2 N 0.7172(3) 0.3937(5) 0.10502(5)
Co3_2 Co 0.59425(3) 0.40575(5) 0.0834
O14_2 O 0.8570(3) 0.1252(4) 0.32179(5)
H52_2 H 0.7855 0.0923 0.3258
O15_2 O 0.7826(3) 0.1938(4) 0.29650(5)
H4_3 H 0.6224 0.0150 0.8002
C8_3 C 0.7435(6) 0.0053(4) 0.87189(7)
H6_3 H 0.7933 0.0012 0.8832
C9_3 C 0.8136(5) 0.1306(4) 0.86130(6)
O5_3 O 0.8748(4) 0.1430(3) 0.84487(5)
H24_3 H 0.9077 0.2145 0.8408
O6_3 O 0.8062(4) 0.2174(3) 0.87016(5)
C29_3 C 0.5697(6) 0.6412(4) 0.02994(6)
H31_3 H 0.6136 0.7100 0.0204
H32_3 H 0.6224 0.6074 0.0331
C30_3 C 0.5414(6) 0.6858(4) 0.05026(5)
N13_3 N 0.4577(4) 0.5473(3) 0.01953(4)
H50_3 H 0.3935 0.5038 0.0272
O13_3 O 0.6208(5) 0.7929(3) 0.05662(5)
C1_3 C 0.3384(4) 0.9233(3) 0.86433(6)
C2_3 C 0.4512(5) 0.9247(3) 0.83458(5)
C3_3 C 0.5315(4) 0.9592(3) 0.86781(5)
C4_3 C 0.2136(6) 0.9298(4) 0.89360(6)
H1_3 H 0.1800 0.9780 0.8990
H2_3 H 0.3017 0.9777 0.8938
C5_3 C 0.1721(4) 0.8177(3) 0.90732(5)
C6_3 C 0.5697(6) 0.9285(4) 0.80339(6)
H3_3 H 0.6136 0.9036 0.8129
C7_3 C 0.5414(6) 0.8556(4) 0.78307(5)
H5_3 H 0.7305 0.9426 0.8615
C10_3 C 0.4251(6) 0.6058(4) 0.90094(6)
H7_3 H 0.4338 0.5909 0.9151
C11_3 C 0.5190(6) 0.6267(4) 0.88666(7)
H8_3 H 0.5880 0.6248 0.8914
C12_3 C 0.5098(6) 0.6504(4) 0.86539(6)
C13_3 C 0.4034(6) 0.6486(4) 0.85937(6)
H9_3 H 0.3921 0.6620 0.8452
C14_3 C 0.3145(6) 0.6274(4) 0.87392(6)
H10_3 H 0.2442 0.6273 0.8693
C15_3 C 0.6098(6) 0.6776(4) 0.84984(7)
H11_3 H 0.6819 0.6902 0.8575
H12_3 H 0.6309 0.7535 0.8425
C16_5 C 0.5763(4) 0.5763(4) 0.8333
H13_3 H 0.5014 0.5600 0.8260
C17_3 C 0.2988(5) 0.5610(4) 0.70779(5)
H14_3 H 0.3733 0.6288 0.7039
C18_3 C 0.2448(6) 0.4667(4) 0.69370(6)
H15_3 H 0.2827 0.4713 0.6808
C19_3 C 0.1331(6) 0.3635(4) 0.69854(7)
C20_3 C 0.0788(6) 0.3649(4) 0.71796(7)
H16_3 H 0.0027 0.2995 0.7218
C21_3 C 0.1397(6) 0.4641(4) 0.73119(6)
H17_3 H 0.1018 0.4637 0.7439
C22_3 C 0.0665(6) 0.2563(4) 0.68303(7)
H18_3 H 0.1255 0.2395 0.6761
H19_3 H 0.0084 0.1832 0.6907
C23_4 C 0.0000(7) 0.2877(5) 0.6666
N1_3 N 0.4299(4) 0.9471(3) 0.87738(5)
N2_3 N 0.3435(4) 0.9089(3) 0.84247(4)
N3_3 N 0.5493(4) 0.9514(3) 0.84661(5)
N4_3 N 0.2359(4) 0.9163(3) 0.87108(5)
H21_3 H 0.1797 0.9032 0.8619
N5_3 N 0.4577(4) 0.9104(3) 0.81380(4)
H22_3 H 0.3935 0.8897 0.8061
N6_3 N 0.6253(4) 0.9782(3) 0.88053(5)
H23_3 H 0.6151 0.9742 0.8940
N7_3 N 0.3235(4) 0.6063(3) 0.89498(5)
N8_3 N 0.2513(4) 0.5627(3) 0.72698(4)
Co1_3 Co 0.18850(4) 0.59425(3) 0.9166
O1_3 O 0.1845(3) 0.7328(2) 0.89983(4)
O2_3 O 0.1302(4) 0.8206(3) 0.92518(4)
O3_3 O 0.4430(3) 0.8290(2) 0.77328(3)
O4_3 O 0.6208(5) 0.8279(4) 0.77671(5)
O7_3 O 0.0600(4) 0.4652(3) 0.89571(4)
H26_3 H 0.0421 0.3911 0.8975
O8_3 O 0.5109(4) 0.7033(3) 0.74187(4)
H27_3 H 0.5607 0.7310 0.7522
H28_3 H 0.5421 0.7586 0.7323
C24_3 C 0.3384(4) 0.4151(3) 0.96900(6)
C25_3 C 0.4512(5) 0.5265(4) 0.99875(5)
C26_3 C 0.5315(4) 0.5723(3) 0.96552(5)
C27_3 C 0.2136(6) 0.2838(4) 0.93973(6)
H29_3 H 0.1800 0.2020 0.9343
H30_3 H 0.3017 0.3240 0.9395
C28_3 C 0.1721(4) 0.3544(3) 0.92601(5)
C31_3 C 0.7435(6) 0.7382(4) 0.96144(7)
H33_3 H 0.7305 0.7879 0.9718
H34_3 H 0.7933 0.7921 0.9501
C32_3 C 0.8136(5) 0.6830(3) 0.97203(6)
C33_3 C 0.6058(7) 0.4251(6) 0.76572(6)
H35_3 H 0.5909 0.4338 0.7515
C34_3 C 0.6267(7) 0.5190(6) 0.78000(7)
H36_3 H 0.6248 0.5880 0.7752
C35_3 C 0.6504(7) 0.5098(6) 0.80127(6)
C36_3 C 0.6486(7) 0.4034(6) 0.80729(6)
H37_3 H 0.6620 0.3921 0.8214
C37_3 C 0.6274(7) 0.3145(6) 0.79274(6)
H38_3 H 0.6273 0.2442 0.7973
C38_3 C 0.6776(7) 0.6098(6) 0.81682(7)
H39_3 H 0.6902 0.6819 0.8091
H40_3 H 0.7535 0.6309 0.8241
H41_3 H 0.5600 0.5014 0.8406
H48_3 H 0.0577 0.3618 0.6594
N9_3 N 0.4299(4) 0.4828(3) 0.95595(5)
N10_3 N 0.3435(4) 0.4346(3) 0.99086(4)
N11_3 N 0.5493(4) 0.5979(3) 0.98672(5)
N12_3 N 0.2359(4) 0.3196(3) 0.96225(5)
H49_3 H 0.1797 0.2765 0.9714
N14_3 N 0.6253(4) 0.6471(3) 0.95280(5)
H51_3 H 0.6151 0.6409 0.9393
N15_3 N 0.6063(5) 0.3235(4) 0.77168(5)
N16_3 N 0.3235(4) 0.7172(3) 0.93835(5)
N18_3 N 0.3114(5) 0.5627(3) 0.77302(4)
Co3_3 Co 0.59425(5) 0.18850(4) 0.7500
O9_3 O 0.1845(3) 0.4517(2) 0.93350(4)
O10_3 O 0.1302(4) 0.3096(3) 0.90815(4)
O14_3 O 0.8748(4) 0.7318(3) 0.98846(5)
H52_3 H 0.9077 0.6932 0.9925
O15_3 O 0.8062(4) 0.5888(3) 0.96317(5)
O16_3 O 0.0600(4) 0.5948(3) 0.93762(4)
H54_3 H 0.0421 0.6510 0.9358
O17_3 O 0.1924(5) 0.7033(3) 0.75813(4)
H55_3 H 0.1703 0.7310 0.7478
H56_3 H 0.2165 0.7586 0.7677
C23_5 C 1.0000(7) 0.2877(5) 0.6666
H20_3 H 0.9423 0.3041 0.6739
H25_3 H 0.9954 0.4693 0.8977
C39_3 C 0.7012(5) 0.2622(3) 0.62554(5)
H42_3 H 0.6267 0.2555 0.6294
C40_3 C 0.7552(6) 0.2219(4) 0.63963(6)
H43_3 H 0.7173 0.1886 0.6525
C41_3 C 0.8669(6) 0.2304(4) 0.63479(7)
C42_3 C 0.9212(6) 0.2861(5) 0.61537(7)
H44_3 H 0.9973 0.2968 0.6115
C43_3 C 0.8603(6) 0.3244(4) 0.60214(6)
H45_3 H 0.8982 0.3619 0.5894
C44_3 C 0.9335(6) 0.1898(4) 0.65030(7)
H46_3 H 0.8745 0.1140 0.6572
H47_3 H 0.9916 0.1748 0.6426
N17_3 N 0.7487(4) 0.3114(3) 0.60635(4)
Co5_3 Co 0.65181(9) 0.34819(7) 0.5834
H53_3 H 0.9954 0.5261 0.9356
C8_4 C 0.0053(4) 0.2618(4) 0.03856(7)
H6_4 H 0.0012 0.2079 0.0499
C9_4 C 0.1306(4) 0.3170(3) 0.02797(6)
O5_4 O 0.1430(3) 0.2682(3) 0.01154(5)
H24_4 H 0.2145 0.3068 0.0075
O6_4 O 0.2174(3) 0.4112(3) 0.03683(5)
C1_4 C 0.9233(3) 0.5849(3) 0.03100(6)
C2_4 C 0.9247(3) 0.4735(4) 0.00125(5)
C3_4 C 0.9592(3) 0.4277(3) 0.03448(5)
C4_4 C 0.9298(4) 0.7162(4) 0.06027(6)
H1_4 H 0.9780 0.7980 0.0657
H2_4 H 0.9777 0.6760 0.0605
C5_4 C 0.8177(3) 0.6456(3) 0.07399(5)
H5_4 H 0.9426 0.2121 0.0282
C10_4 C 0.6058(4) 0.1807(4) 0.06761(6)
H7_4 H 0.5909 0.1571 0.0818
C11_4 C 0.6267(4) 0.1077(4) 0.05333(7)
H8_4 H 0.6248 0.0368 0.0581
C12_4 C 0.6504(4) 0.1406(4) 0.03206(6)
C13_4 C 0.6486(4) 0.2452(4) 0.02604(6)
H9_4 H 0.6620 0.2699 0.0119
C14_4 C 0.6274(4) 0.3129(4) 0.04059(6)
H10_4 H 0.6273 0.3831 0.0360
C15_4 C 0.6776(4) 0.0678(4) 0.01651(7)
H11_4 H 0.6902 0.0083 0.0242
H12_4 H 0.7535 0.1226 0.0092
C16_6 C 0.5763(4) -0.0000 0.0000
N1_4 N 0.9471(3) 0.5172(3) 0.04405(5)
N2_4 N 0.9089(3) 0.5654(3) 0.00914(4)
N3_4 N 0.9514(3) 0.4021(3) 0.01328(5)
N4_4 N 0.9163(3) 0.6804(3) 0.03775(5)
H21_4 H 0.9032 0.7235 0.0286
N6_4 N 0.9782(3) 0.3529(3) 0.04720(5)
H23_4 H 0.9742 0.3591 0.0607
N7_4 N 0.6063(3) 0.2828(3) 0.06165(5)
O1_4 O 0.7328(2) 0.5483(2) 0.06650(4)
O2_4 O 0.8206(3) 0.6904(3) 0.09185(4)
O7_4 O 0.4652(3) 0.4052(3) 0.06238(4)
H25_4 H 0.4693 0.4739 0.0644
H26_4 H 0.3911 0.3490 0.0642
C24_4 C 0.4151(3) 0.0767(3) 0.13567(6)
C25_4 C 0.5265(4) 0.0753(3) 0.16542(5)
C26_4 C 0.5723(3) 0.0408(3) 0.13219(5)
C27_4 C 0.2838(4) 0.0702(4) 0.10640(6)
H29_4 H 0.2020 0.0220 0.1010
H30_4 H 0.3240 0.0223 0.1062
C28_4 C 0.3544(3) 0.1823(3) 0.09268(5)
C29_4 C 0.6412(4) 0.0715(4) 0.19661(6)
H31_4 H 0.7100 0.0964 0.1871
C30_4 C 0.6858(4) 0.1444(4) 0.21693(5)
H33_4 H 0.7879 0.0574 0.1385
N9_4 N 0.4828(3) 0.0529(3) 0.12262(5)
N10_4 N 0.4346(3) 0.0911(3) 0.15753(4)
N11_4 N 0.5979(3) 0.0486(3) 0.15339(5)
N12_4 N 0.3196(3) 0.0837(3) 0.12892(5)
H49_4 H 0.2765 0.0968 0.1381
N13_4 N 0.5473(3) 0.0896(3) 0.18620(4)
H50_4 H 0.5038 0.1103 0.1939
N14_4 N 0.6471(3) 0.0218(3) 0.11947(5)
H51_4 H 0.6409 0.0258 0.1060
O9_4 O 0.4517(2) 0.2672(2) 0.10017(4)
O10_4 O 0.3096(3) 0.1794(3) 0.07482(4)
O11_2 O 0.6140(2) 0.1710(2) 0.22672(3)
O13_4 O 0.7929(3) 0.1721(4) 0.22329(5)
O16_4 O 0.5948(3) 0.5348(3) 0.10429(4)
H53_4 H 0.5261 0.5307 0.1023
H54_4 H 0.6510 0.6089 0.1025
C6_4 C 0.9285(4) 0.3588(4) 0.97006(6)
H3_4 H 0.9036 0.2900 0.9796
C7_4 C 0.8556(4) 0.3142(4) 0.94974(5)
C16_7 C 0.5763(4) -0.0000 1.0000
H13_4 H 0.5600 0.0586 0.9927
C17_4 C 0.5610(4) 0.2622(3) 0.87446(5)
H14_4 H 0.6288 0.2555 0.8706
C18_4 C 0.4667(4) 0.2219(4) 0.86037(6)
H15_4 H 0.4713 0.1886 0.8475
C19_4 C 0.3635(4) 0.2304(4) 0.86521(7)
C20_4 C 0.3649(4) 0.2861(5) 0.88463(7)
H16_4 H 0.2995 0.2968 0.8885
C21_4 C 0.4641(4) 0.3244(4) 0.89786(6)
H17_4 H 0.4637 0.3619 0.9106
C22_4 C 0.2563(4) 0.1898(4) 0.84970(7)
H18_4 H 0.2395 0.1140 0.8428
H19_4 H 0.1832 0.1748 0.8574
C23_6 C 0.2877(5) 0.2877(5) 0.8333
H20_4 H 0.3041 0.3618 0.8406
N5_4 N 0.9104(3) 0.4527(3) 0.98047(4)
H22_4 H 0.8897 0.4962 0.9728
N8_4 N 0.5627(3) 0.3114(3) 0.89365(4)
O3_4 O 0.8290(2) 0.3860(2) 0.93995(3)
O4_4 O 0.8279(4) 0.2071(3) 0.94338(5)
O8_4 O 0.7033(3) 0.1924(2) 0.90854(4)
H27_4 H 0.7310 0.1703 0.9189
H28_4 H 0.7586 0.2165 0.8990
C39_4 C 0.2622(3) 0.5610(4) 0.79221(5)
H42_4 H 0.2555 0.6288 0.7961
C40_4 C 0.2219(4) 0.4667(4) 0.80630(6)
H43_4 H 0.1886 0.4713 0.8192
C41_4 C 0.2304(4) 0.3635(4) 0.80146(7)
C42_4 C 0.2861(5) 0.3649(4) 0.78204(7)
H44_4 H 0.2968 0.2995 0.7782
C43_4 C 0.3244(4) 0.4641(4) 0.76881(6)
H45_4 H 0.3619 0.4637 0.7561
C44_4 C 0.1898(4) 0.2563(4) 0.81697(7)
H46_4 H 0.1140 0.2395 0.8239
H47_4 H 0.1748 0.1832 0.8093
H48_4 H 0.3618 0.3041 0.8261
O12_3 O 0.8290(2) 0.4430(3) 0.89338(3)
O17_4 O 0.7033(3) 0.5109(4) 0.92479(4)
H55_4 H 0.7310 0.5607 0.9144
H56_4 H 0.7586 0.5421 0.9343
C16_8 C 0.5763(4) 1.0000 0.0000
H32_4 H 0.6074 0.9850 0.1998
C31_4 C 0.7382(4) 0.9947(4) 0.12811(7)
H34_4 H 0.7921 0.9988 0.1168
C32_4 C 0.6830(3) 0.8694(4) 0.13870(6)
H41_4 H 0.5014 0.9414 0.0073
O14_4 O 0.7318(3) 0.8570(3) 0.15513(5)
H52_4 H 0.6932 0.7855 0.1592
O15_4 O 0.5888(3) 0.7826(3) 0.12984(5)
C16_9 C 0.5763(4) 1.0000 1.0000
C33_4 C 0.4251(6) 0.8193(4) 0.93239(6)
H35_4 H 0.4338 0.8429 0.9182
C34_4 C 0.5190(6) 0.8923(4) 0.94667(7)
H36_4 H 0.5880 0.9632 0.9419
C35_4 C 0.5098(6) 0.8594(4) 0.96794(6)
C36_4 C 0.4034(6) 0.7548(4) 0.97396(6)
H37_4 H 0.3921 0.7301 0.9881
C37_4 C 0.3145(6) 0.6871(4) 0.95941(6)
H38_4 H 0.2442 0.6169 0.9640
C38_4 C 0.6098(6) 0.9322(4) 0.98349(7)
H39_4 H 0.6819 0.9917 0.9758
H40_4 H 0.6309 0.8774 0.9908
C16_10 C 0.0000 0.5763(4) 0.6667
H32_5 H 0.0150 0.6224 0.8664
C31_5 C 0.0053(4) 0.7435(6) 0.79477(7)
H34_5 H 0.0012 0.7933 0.7834
C32_5 C 0.1306(4) 0.8136(5) 0.80536(6)
C33_5 C 0.1807(4) 0.6058(7) 0.59906(6)
H35_5 H 0.1571 0.5909 0.5849
C34_5 C 0.1077(4) 0.6267(7) 0.61334(7)
H36_5 H 0.0368 0.6248 0.6086
C35_5 C 0.1406(4) 0.6504(7) 0.63461(6)
C36_5 C 0.2452(4) 0.6486(7) 0.64063(6)
H37_5 H 0.2699 0.6620 0.6548
C37_5 C 0.3129(4) 0.6274(7) 0.62608(6)
H38_5 H 0.3831 0.6273 0.6307
C38_5 C 0.0678(4) 0.6776(7) 0.65016(7)
H39_5 H 0.0083 0.6902 0.6425
H40_5 H 0.1226 0.7535 0.6575
H41_5 H 0.0586 0.5600 0.6740
O14_5 O 0.1430(3) 0.8748(4) 0.82179(5)
H52_5 H 0.2145 0.9077 0.8258
O15_5 O 0.2174(3) 0.8062(4) 0.79650(5)
C1_5 C 0.4151(3) 0.3384(4) 0.69767(6)
C2_5 C 0.5265(4) 0.4512(5) 0.66792(5)
C3_5 C 0.5723(3) 0.5315(4) 0.70115(5)
C4_5 C 0.2838(4) 0.2136(6) 0.72694(6)
H1_5 H 0.2020 0.1800 0.7324
H2_5 H 0.3240 0.3017 0.7272
C5_5 C 0.3544(3) 0.1721(4) 0.74066(5)
C6_5 C 0.6412(4) 0.5697(6) 0.63673(6)
H3_5 H 0.7100 0.6136 0.6463
H4_4 H 0.6074 0.6224 0.6336
C7_5 C 0.6858(4) 0.5414(6) 0.61641(5)
C8_5 C 0.7382(4) 0.7435(6) 0.70523(7)
H5_5 H 0.7879 0.7305 0.6949
H6_5 H 0.7921 0.7933 0.7166
C9_5 C 0.6830(3) 0.8136(5) 0.69464(6)
C10_5 C 0.8193(4) 0.4251(6) 0.73428(6)
H7_5 H 0.8429 0.4338 0.7485
C11_5 C 0.8923(4) 0.5190(6) 0.72000(7)
H8_5 H 0.9632 0.5880 0.7248
C12_5 C 0.8594(4) 0.5098(6) 0.69873(6)
C13_5 C 0.7548(4) 0.4034(6) 0.69271(6)
H9_5 H 0.7301 0.3921 0.6786
C14_5 C 0.6871(4) 0.3145(6) 0.70726(6)
H10_5 H 0.6169 0.2442 0.7027
C15_5 C 0.9322(4) 0.6098(6) 0.68318(7)
H11_5 H 0.9917 0.6819 0.6909
H12_5 H 0.8774 0.6309 0.6759
C16_11 C 1.0000 0.5763(4) 0.6667
H13_5 H 0.9414 0.5014 0.6594
C17_5 C 0.7378(3) 0.2988(5) 0.54113(5)
H14_5 H 0.7445 0.3733 0.5373
C18_5 C 0.7781(4) 0.2448(6) 0.52704(6)
H15_5 H 0.8114 0.2827 0.5142
C19_5 C 0.7696(4) 0.1331(6) 0.53188(7)
C20_5 C 0.7139(5) 0.0788(6) 0.55130(7)
H16_5 H 0.7032 0.0027 0.5552
C21_5 C 0.6756(4) 0.1397(6) 0.56453(6)
H17_5 H 0.6381 0.1018 0.5773
C22_5 C 0.8102(4) 0.0665(6) 0.51637(7)
H18_5 H 0.8860 0.1255 0.5095
H19_5 H 0.8252 0.0084 0.5241
C23_7 C 0.7123(5) 0.0000(7) 0.5000
N1_5 N 0.4828(3) 0.4299(4) 0.71072(5)
N2_5 N 0.4346(3) 0.3435(4) 0.67581(4)
N3_5 N 0.5979(3) 0.5493(4) 0.67995(5)
N4_5 N 0.3196(3) 0.2359(4) 0.70442(5)
H21_5 H 0.2765 0.1797 0.6953
N5_5 N 0.5473(3) 0.4577(4) 0.64714(4)
H22_5 H 0.5038 0.3935 0.6395
N6_5 N 0.6471(3) 0.6253(4) 0.71387(5)
H23_5 H 0.6409 0.6151 0.7274
N7_5 N 0.7172(3) 0.3235(4) 0.72832(5)
N8_5 N 0.6886(3) 0.2513(4) 0.56032(4)
O1_5 O 0.4517(2) 0.1845(3) 0.73317(4)
O2_5 O 0.3096(3) 0.1302(4) 0.75852(4)
O3_5 O 0.6140(2) 0.4430(3) 0.60662(3)
O4_5 O 0.7929(3) 0.6208(5) 0.61005(5)
O5_5 O 0.7318(3) 0.8748(4) 0.67821(5)
H24_5 H 0.6932 0.9077 0.6742
O6_5 O 0.5888(3) 0.8062(4) 0.70350(5)
O7_5 O 0.5948(3) 0.0600(4) 0.72905(4)
H26_5 H 0.6510 0.0421 0.7309
O8_5 O 0.8076(2) 0.5109(4) 0.57521(4)
H27_5 H 0.8297 0.5607 0.5856
H28_5 H 0.7835 0.5421 0.5657
C24_5 C 0.9233(3) 0.3384(4) 0.80233(6)
C25_5 C 0.9247(3) 0.4512(5) 0.83208(5)
C26_5 C 0.9592(3) 0.5315(4) 0.79885(5)
C27_5 C 0.9298(4) 0.2136(6) 0.77306(6)
H29_5 H 0.9780 0.1800 0.7676
H30_5 H 0.9777 0.3017 0.7728
C28_5 C 0.8177(3) 0.1721(4) 0.75934(5)
C29_5 C 0.9285(4) 0.5697(6) 0.86327(6)
H31_5 H 0.9036 0.6136 0.8537
C30_5 C 0.8556(4) 0.5414(6) 0.88359(5)
H33_5 H 0.9426 0.7305 0.8051
H48_5 H 0.6959 0.0577 0.4927
N9_5 N 0.9471(3) 0.4299(4) 0.78928(5)
N10_5 N 0.9089(3) 0.3435(4) 0.82419(4)
N11_5 N 0.9514(3) 0.5493(4) 0.82005(5)
N12_5 N 0.9163(3) 0.2359(4) 0.79558(5)
H49_5 H 0.9032 0.1797 0.8047
N13_5 N 0.9104(3) 0.4577(4) 0.85286(4)
H50_5 H 0.8897 0.3935 0.8605
N14_5 N 0.9782(3) 0.6253(4) 0.78613(5)
H51_5 H 0.9742 0.6151 0.7726
O9_5 O 0.7328(2) 0.1845(3) 0.76683(4)
O10_5 O 0.8206(3) 0.1302(4) 0.74148(4)
O12_4 O 0.5570(3) 0.3860(4) 0.56005(3)
O13_5 O 0.8279(4) 0.6208(5) 0.88995(5)
O16_5 O 0.4652(3) 0.0600(4) 0.77095(4)
H54_5 H 0.3911 0.0421 0.7691
O17_5 O 0.4891(4) 0.1924(5) 0.59146(4)
H55_5 H 0.4393 0.1703 0.5811
H56_5 H 0.4579 0.2165 0.6010
C23_8 C 0.7123(5) 1.0000(7) 0.5000
H20_5 H 0.6382 0.9423 0.5073
H25_5 H 0.5261 0.9954 0.7311
C39_5 C 0.4390(4) 0.7012(5) 0.45887(5)
H42_5 H 0.3712 0.6267 0.4627
C40_5 C 0.5333(4) 0.7552(6) 0.47296(6)
H43_5 H 0.5287 0.7173 0.4858
C41_5 C 0.6365(4) 0.8669(6) 0.46812(7)
C42_5 C 0.6351(4) 0.9212(6) 0.44870(7)
H44_5 H 0.7005 0.9973 0.4448
C43_5 C 0.5359(4) 0.8603(6) 0.43547(6)
H45_5 H 0.5363 0.8982 0.4227
C44_5 C 0.7437(4) 0.9335(6) 0.48363(7)
H46_5 H 0.7605 0.8745 0.4905
H47_5 H 0.8168 0.9916 0.4759
H53_5 H 0.4693 0.9954 0.7689
C23_9 C -0.0000(7) 0.7123(5) 0.1666
H20_6 H 0.0577 0.6959 0.1739
H25_6 H 0.0046 0.5307 0.3977
C39_6 C 0.2988(5) 0.7378(3) 0.12554(5)
H42_6 H 0.3733 0.7445 0.1294
C40_6 C 0.2448(6) 0.7781(4) 0.13963(6)
H43_6 H 0.2827 0.8114 0.1525
C41_6 C 0.1331(6) 0.7696(4) 0.13479(7)
C42_6 C 0.0788(6) 0.7139(5) 0.11537(7)
H44_6 H 0.0027 0.7032 0.1115
C43_6 C 0.1397(6) 0.6756(4) 0.10214(6)
H45_6 H 0.1018 0.6381 0.0894
C44_6 C 0.0665(6) 0.8102(4) 0.15030(7)
H46_6 H 0.1255 0.8860 0.1572
H47_6 H 0.0084 0.8252 0.1426
H53_6 H 0.0046 0.4739 0.4356
C1_6 C 0.6616(4) 0.0767(3) 0.36433(6)
C2_6 C 0.5488(5) 0.0753(3) 0.33458(5)
C3_6 C 0.4685(4) 0.0408(3) 0.36781(5)
C4_6 C 0.7864(6) 0.0702(4) 0.39360(6)
H1_6 H 0.8200 0.0220 0.3990
H2_6 H 0.6983 0.0223 0.3938
C5_6 C 0.8279(4) 0.1823(3) 0.40732(5)
C6_6 C 0.4303(6) 0.0715(4) 0.30339(6)
H3_6 H 0.3864 0.0964 0.3129
C7_6 C 0.4586(6) 0.1444(4) 0.28307(5)
H5_6 H 0.2695 0.0574 0.3615
C10_6 C 0.5749(6) 0.3942(4) 0.40094(6)
H7_6 H 0.5662 0.4091 0.4151
C11_6 C 0.4810(6) 0.3733(4) 0.38666(7)
H8_6 H 0.4120 0.3752 0.3914
C12_6 C 0.4902(6) 0.3496(4) 0.36539(6)
C13_6 C 0.5966(6) 0.3514(4) 0.35937(6)
H9_6 H 0.6079 0.3380 0.3452
C14_6 C 0.6855(6) 0.3726(4) 0.37392(6)
H10_6 H 0.7558 0.3727 0.3693
C15_6 C 0.3902(6) 0.3224(4) 0.34984(7)
H11_6 H 0.3181 0.3098 0.3575
H12_6 H 0.3691 0.2465 0.3425
C16_12 C 0.4237(4) 0.4237(4) 0.3333
H13_6 H 0.4986 0.4400 0.3260
C17_6 C 0.7012(5) 0.4390(4) 0.20779(5)
H14_6 H 0.6267 0.3712 0.2039
C18_6 C 0.7552(6) 0.5333(4) 0.19370(6)
H15_6 H 0.7173 0.5287 0.1808
C19_6 C 0.8669(6) 0.6365(4) 0.19854(7)
C20_6 C 0.9212(6) 0.6351(4) 0.21796(7)
H16_6 H 0.9973 0.7005 0.2218
C21_6 C 0.8603(6) 0.5359(4) 0.23119(6)
H17_6 H 0.8982 0.5363 0.2439
C22_6 C 0.9335(6) 0.7437(4) 0.18303(7)
H18_6 H 0.8745 0.7605 0.1761
H19_6 H 0.9916 0.8168 0.1907
C23_10 C 1.0000(7) 0.7123(5) 0.1666
N1_6 N 0.5701(4) 0.0529(3) 0.37738(5)
N2_6 N 0.6565(4) 0.0911(3) 0.34247(4)
N3_6 N 0.4507(4) 0.0486(3) 0.34661(5)
N4_6 N 0.7641(4) 0.0837(3) 0.37108(5)
H21_6 H 0.8203 0.0968 0.3619
N5_6 N 0.5423(4) 0.0896(3) 0.31380(4)
H22_6 H 0.6065 0.1103 0.3061
N6_6 N 0.3747(4) 0.0218(3) 0.38053(5)
H23_6 H 0.3849 0.0258 0.3940
N7_6 N 0.6765(4) 0.3937(3) 0.39498(5)
N8_6 N 0.7487(4) 0.4373(3) 0.22698(4)
O1_6 O 0.8155(3) 0.2672(2) 0.39983(4)
O2_6 O 0.8698(4) 0.1794(3) 0.42518(4)
O3_6 O 0.5570(3) 0.1710(2) 0.27328(3)
O4_6 O 0.3792(5) 0.1721(4) 0.27671(5)
O7_6 O 0.9400(4) 0.5348(3) 0.39571(4)
H26_6 H 0.9579 0.6089 0.3975
O8_6 O 0.4891(4) 0.2967(3) 0.24187(4)
H27_6 H 0.4393 0.2690 0.2522
H28_6 H 0.4579 0.2414 0.2323
C24_6 C 0.6616(4) 0.5849(3) 0.46900(6)
C25_6 C 0.5488(5) 0.4735(4) 0.49875(5)
C26_6 C 0.4685(4) 0.4277(3) 0.46552(5)
C27_6 C 0.7864(6) 0.7162(4) 0.43973(6)
H29_6 H 0.8200 0.7980 0.4343
H30_6 H 0.6983 0.6760 0.4395
C28_6 C 0.8279(4) 0.6456(3) 0.42601(5)
C29_6 C 0.4303(6) 0.3588(4) 0.52994(6)
H31_6 H 0.3864 0.2900 0.5204
H32_6 H 0.3776 0.3926 0.5331
C30_6 C 0.4586(6) 0.3142(4) 0.55026(5)
C31_6 C 0.2565(6) 0.2618(4) 0.46144(7)
H33_6 H 0.2695 0.2121 0.4718
H34_6 H 0.2067 0.2079 0.4501
C32_6 C 0.1864(5) 0.3170(3) 0.47203(6)
C33_6 C 0.3942(7) 0.5749(6) 0.26572(6)
H35_6 H 0.4091 0.5662 0.2515
C34_6 C 0.3733(7) 0.4810(6) 0.28000(7)
H36_6 H 0.3752 0.4120 0.2752
C35_6 C 0.3496(7) 0.4902(6) 0.30127(6)
C36_6 C 0.3514(7) 0.5966(6) 0.30729(6)
H37_6 H 0.3380 0.6079 0.3214
C37_6 C 0.3726(7) 0.6855(6) 0.29274(6)
H38_6 H 0.3727 0.7558 0.2973
C38_6 C 0.3224(7) 0.3902(6) 0.31682(7)
H39_6 H 0.3098 0.3181 0.3091
H40_6 H 0.2465 0.3691 0.3241
H41_6 H 0.4400 0.4986 0.3406
H48_6 H 0.9423 0.6382 0.1594
N9_6 N 0.5701(4) 0.5172(3) 0.45595(5)
N10_6 N 0.6565(4) 0.5654(3) 0.49086(4)
N11_6 N 0.4507(4) 0.4021(3) 0.48672(5)
N12_6 N 0.7641(4) 0.6804(3) 0.46225(5)
H49_6 H 0.8203 0.7235 0.4714
N13_6 N 0.5423(4) 0.4527(3) 0.51953(4)
H50_6 H 0.6065 0.4962 0.5272
N14_6 N 0.3747(4) 0.3529(3) 0.45280(5)
H51_6 H 0.3849 0.3591 0.4393
O9_6 O 0.8155(3) 0.5483(2) 0.43350(4)
O10_6 O 0.8698(4) 0.6904(3) 0.40815(4)
O13_6 O 0.3792(5) 0.2071(3) 0.55662(5)
O14_6 O 0.1252(4) 0.2682(3) 0.48846(5)
H52_6 H 0.0923 0.3068 0.4925
O15_6 O 0.1938(4) 0.4112(3) 0.46317(5)
O16_6 O 0.9400(4) 0.4052(3) 0.43762(4)
H54_6 H 0.9579 0.3490 0.4358
O17_6 O 0.8076(5) 0.2967(3) 0.25813(4)
H55_6 H 0.8297 0.2690 0.2478
H56_6 H 0.7835 0.2414 0.2677
H4_5 H 0.3776 0.9850 0.3002
C8_6 C 0.2565(6) 0.9947(4) 0.37189(7)
H6_6 H 0.2067 0.9988 0.3832
C9_6 C 0.1864(5) 0.8694(4) 0.36130(6)
O5_6 O 0.1252(4) 0.8570(3) 0.34487(5)
H24_6 H 0.0923 0.7855 0.3408
O6_6 O 0.1938(4) 0.7826(3) 0.37016(5)
C23_11 C 0.2877(5) 0.0000(7) 0.0000
C23_12 C 0.2877(5) 1.0000(7) 0.0000
H4_6 H 0.0150 0.3926 0.9669
loop_
_geom_bond_atom_site_label_1
_geom_bond_atom_site_label_2
_geom_bond_site_symmetry_1
_geom_bond_site_symmetry_2
H34 C31 1_555 1_555
C32 C31 1_555 1_555
C33 H35 1_555 1_555
C34 C33 1_555 1_555
H36 C34 1_555 1_555
C35 C34 1_555 1_555
C36 C35 1_555 1_555
H37 C36 1_555 1_555
C37 C36 1_555 1_555
H38 C37 1_555 1_555
C38 C16 1_555 1_555
H39 C38 1_555 1_555
H40 C38 1_555 1_555
H41 C16 1_555 1_555
N15 C33 1_555 1_555
Co3 N15 1_555 1_555
O14 C32 1_555 1_555
H52 O14 1_555 1_555
O15 C32 1_555 1_555
C35 C38 1_555 1_555
C37 N15 1_555 1_555
C1 N1 1_555 1_555
C2 N2 1_555 1_555
C3 N1 1_555 1_555
C4 H1 1_555 1_555
H2 C4 1_555 1_555
C5 C4 1_555 1_555
C6 H3 1_555 1_555
C7 C6 1_555 1_555
C10 H7 1_555 1_555
C11 C10 1_555 1_555
H8 C11 1_555 1_555
C12 C11 1_555 1_555
C13 C12 1_555 1_555
H9 C13 1_555 1_555
C14 C13 1_555 1_555
H10 C14 1_555 1_555
C15 C12 1_555 1_555
H11 C15 1_555 1_555
H12 C15 1_555 1_555
C16_2 C15 1_555 1_555
H13 C16_2 1_555 1_555
C17 H14 1_555 1_555
C18 C17 1_555 1_555
H15 C18 1_555 1_555
C19 C18 1_555 1_555
C20 C19 1_555 1_555
H16 C20 1_555 1_555
C21 C20 1_555 1_555
H17 C21 1_555 1_555
C22 C19 1_555 1_555
H18 C22 1_555 1_555
H19 C22 1_555 1_555
C23 C22 1_555 1_555
H20 C23 1_555 1_555
N2 C1 1_555 1_555
N3 C2 1_555 1_555
N4 C1 1_555 1_555
H21 N4 1_555 1_555
N5 C2 1_555 1_555
H22 N5 1_555 1_555
N6 C3 1_555 1_555
H23 N6 1_555 1_555
N7 C10 1_555 1_555
N8 C17 1_555 1_555
Co1 N7 1_555 1_555
Co2 N8 1_555 1_555
O1 C5 1_555 1_555
O2 C5 1_555 1_555
O3 C7 1_555 1_555
O4 C7 1_555 1_555
O7 Co1 1_555 1_555
H25 O7 1_555 1_555
H26 O7 1_555 1_555
O8 Co2 1_555 1_555
H27 O8 1_555 1_555
H28 O8 1_555 1_555
C24 N9 1_555 1_555
C25 N10 1_555 1_555
C26 N9 1_555 1_555
C27 H29 1_555 1_555
H30 C27 1_555 1_555
C28 C27 1_555 1_555
C29 H31 1_555 1_555
C30 C29 1_555 1_555
C39 H42 1_555 1_555
C40 C39 1_555 1_555
H43 C40 1_555 1_555
C41 C40 1_555 1_555
C42 C41 1_555 1_555
H44 C42 1_555 1_555
C43 C42 1_555 1_555
H45 C43 1_555 1_555
C44 C23 1_555 1_555
H46 C44 1_555 1_555
H47 C44 1_555 1_555
H48 C23 1_555 1_555
N10 C24 1_555 1_555
N11 C25 1_555 1_555
N12 C24 1_555 1_555
H49 N12 1_555 1_555
N13 C25 1_555 1_555
H50 N13 1_555 1_555
N14 C26 1_555 1_555
H51 N14 1_555 1_555
N16 Co1 1_555 1_555
N17 C39 1_555 1_555
N18 Co2 1_555 1_555
Co4 O11 1_555 1_555
Co5 N17 1_555 1_555
O9 Co1 1_555 1_555
O10 C28 1_555 1_555
O11 C30 1_555 1_555
O12 Co2 1_555 1_555
O13 C30 1_555 1_555
O16 Co1 1_555 1_555
H53 O16 1_555 1_555
H54 O16 1_555 1_555
O17 Co2 1_555 1_555
H55 O17 1_555 1_555
H56 O17 1_555 1_555
C3 N3 1_555 1_555
C4 N4 1_555 1_555
C6 N5 1_555 1_555
C14 N7 1_555 1_555
C21 N8 1_555 1_555
Co1 O1 1_555 1_555
Co2 O3 1_555 1_555
C26 N11 1_555 1_555
C27 N12 1_555 1_555
C28 O9 1_555 1_555
C29 N13 1_555 1_555
C41 C44 1_555 1_555
C43 N17 1_555 1_555
H6 C8 1_555 1_555
C9 C8 1_555 1_555
O5 C9 1_555 1_555
H24 O5 1_555 1_555
O6 C9 1_555 1_555
C39_2 H42_2 1_555 1_555
C40_2 C39_2 1_555 1_555
H43_2 C40_2 1_555 1_555
C41_2 C40_2 1_555 1_555
C42_2 C41_2 1_555 1_555
H44_2 C42_2 1_555 1_555
C43_2 C42_2 1_555 1_555
H45_2 C43_2 1_555 1_555
C44_2 C23_2 1_555 1_555
H46_2 C44_2 1_555 1_555
H47_2 C44_2 1_555 1_555
N17_2 C39_2 1_555 1_555
Co5_2 N17_2 1_555 1_555
C41_2 C44_2 1_555 1_555
C43_2 N17_2 1_555 1_555
C1_2 N1_2 1_555 1_555
C2_2 N2_2 1_555 1_555
C3_2 N1_2 1_555 1_555
C4_2 H1_2 1_555 1_555
H2_2 C4_2 1_555 1_555
C5_2 C4_2 1_555 1_555
C6_2 H3_2 1_555 1_555
H4_2 C6_2 1_555 1_555
C7_2 C6_2 1_555 1_555
C8_2 H5_2 1_555 1_555
H6_2 C8_2 1_555 1_555
C9_2 C8_2 1_555 1_555
C10_2 H7_2 1_555 1_555
C11_2 C10_2 1_555 1_555
H8_2 C11_2 1_555 1_555
C12_2 C11_2 1_555 1_555
C13_2 C12_2 1_555 1_555
H9_2 C13_2 1_555 1_555
C14_2 C13_2 1_555 1_555
H10_2 C14_2 1_555 1_555
C15_2 C12_2 1_555 1_555
H11_2 C15_2 1_555 1_555
H12_2 C15_2 1_555 1_555
C16_3 C15_2 1_555 1_555
H13_2 C16_3 1_555 1_555
C17_2 H14_2 1_555 1_555
C18_2 C17_2 1_555 1_555
H15_2 C18_2 1_555 1_555
C19_2 C18_2 1_555 1_555
C20_2 C19_2 1_555 1_555
H16_2 C20_2 1_555 1_555
C21_2 C20_2 1_555 1_555
H17_2 C21_2 1_555 1_555
C22_2 C19_2 1_555 1_555
H18_2 C22_2 1_555 1_555
H19_2 C22_2 1_555 1_555
N2_2 C1_2 1_555 1_555
N3_2 C2_2 1_555 1_555
N4_2 C1_2 1_555 1_555
H21_2 N4_2 1_555 1_555
N5_2 C2_2 1_555 1_555
H22_2 N5_2 1_555 1_555
N6_2 C3_2 1_555 1_555
H23_2 N6_2 1_555 1_555
N7_2 C10_2 1_555 1_555
N8_2 C17_2 1_555 1_555
Co1_2 N7_2 1_555 1_555
Co2_2 N8_2 1_555 1_555
O1_2 C5_2 1_555 1_555
O2_2 C5_2 1_555 1_555
O3_2 C7_2 1_555 1_555
O4_2 C7_2 1_555 1_555
O5_2 C9_2 1_555 1_555
H24_2 O5_2 1_555 1_555
O6_2 C9_2 1_555 1_555
O7_2 Co1_2 1_555 1_555
H26_2 O7_2 1_555 1_555
O8_2 Co2_2 1_555 1_555
H27_2 O8_2 1_555 1_555
H28_2 O8_2 1_555 1_555
C24_2 N9_2 1_555 1_555
C25_2 N10_2 1_555 1_555
C26_2 N9_2 1_555 1_555
C27_2 H29_2 1_555 1_555
H30_2 C27_2 1_555 1_555
C28_2 C27_2 1_555 1_555
C29_2 H31_2 1_555 1_555
C30_2 C29_2 1_555 1_555
N10_2 C24_2 1_555 1_555
N11_2 C25_2 1_555 1_555
N12_2 C24_2 1_555 1_555
H49_2 N12_2 1_555 1_555
N13_2 C25_2 1_555 1_555
H50_2 N13_2 1_555 1_555
N14_2 C26_2 1_555 1_555
H51_2 N14_2 1_555 1_555
N16_2 Co1_2 1_555 1_555
N18_2 Co2_2 1_555 1_555
O9_2 Co1_2 1_555 1_555
O10_2 C28_2 1_555 1_555
O12 C30_2 1_555 1_555
O12_2 Co2_2 1_555 1_555
O13_2 C30_2 1_555 1_555
O16_2 Co1_2 1_555 1_555
H54_2 O16_2 1_555 1_555
O17_2 Co2_2 1_555 1_555
H55_2 O17_2 1_555 1_555
H56_2 O17_2 1_555 1_555
C3_2 N3_2 1_555 1_555
C4_2 N4_2 1_555 1_555
C6_2 N5_2 1_555 1_555
C8_2 N6_2 1_555 1_555
C14_2 N7_2 1_555 1_555
C21_2 N8_2 1_555 1_555
Co1_2 O1_2 1_555 1_555
Co2_2 O3_2 1_555 1_555
C26_2 N11_2 1_555 1_555
C27_2 N12_2 1_555 1_555
C28_2 O9_2 1_555 1_555
C29_2 N13_2 1_555 1_555
H48_2 C23_3 1_555 1_555
H34_2 C31_2 1_555 1_555
C32_2 C31_2 1_555 1_555
C33_2 H35_2 1_555 1_555
C34_2 C33_2 1_555 1_555
H36_2 C34_2 1_555 1_555
C35_2 C34_2 1_555 1_555
C36_2 C35_2 1_555 1_555
H37_2 C36_2 1_555 1_555
C37_2 C36_2 1_555 1_555
H38_2 C37_2 1_555 1_555
C38_2 C16_4 1_555 1_555
H39_2 C38_2 1_555 1_555
H40_2 C38_2 1_555 1_555
H41_2 C16_4 1_555 1_555
N15_2 C33_2 1_555 1_555
Co3_2 N15_2 1_555 1_555
O14_2 C32_2 1_555 1_555
H52_2 O14_2 1_555 1_555
O15_2 C32_2 1_555 1_555
C35_2 C38_2 1_555 1_555
C37_2 N15_2 1_555 1_555
H6_3 C8_3 1_555 1_555
C9_3 C8_3 1_555 1_555
O5_3 C9_3 1_555 1_555
H24_3 O5_3 1_555 1_555
O6_3 C9_3 1_555 1_555
C29_3 H31_3 1_555 1_555
H32_3 C29_3 1_555 1_555
C30_3 C29_3 1_555 1_555
H50_3 N13_3 1_555 1_555
O12_2 C30_3 1_555 1_555
O13_3 C30_3 1_555 1_555
C29_3 N13_3 1_555 1_555
C1_3 N1_3 1_555 1_555
C2_3 N2_3 1_555 1_555
C3_3 N1_3 1_555 1_555
C4_3 H1_3 1_555 1_555
H2_3 C4_3 1_555 1_555
C5_3 C4_3 1_555 1_555
C6_3 H3_3 1_555 1_555
C7_3 C6_3 1_555 1_555
C10_3 H7_3 1_555 1_555
C11_3 C10_3 1_555 1_555
H8_3 C11_3 1_555 1_555
C12_3 C11_3 1_555 1_555
C13_3 C12_3 1_555 1_555
H9_3 C13_3 1_555 1_555
C14_3 C13_3 1_555 1_555
H10_3 C14_3 1_555 1_555
C15_3 C12_3 1_555 1_555
H11_3 C15_3 1_555 1_555
H12_3 C15_3 1_555 1_555
C16_5 C15_3 1_555 1_555
H13_3 C16_5 1_555 1_555
C17_3 H14_3 1_555 1_555
C18_3 C17_3 1_555 1_555
H15_3 C18_3 1_555 1_555
C19_3 C18_3 1_555 1_555
C20_3 C19_3 1_555 1_555
H16_3 C20_3 1_555 1_555
C21_3 C20_3 1_555 1_555
H17_3 C21_3 1_555 1_555
C22_3 C19_3 1_555 1_555
H18_3 C22_3 1_555 1_555
H19_3 C22_3 1_555 1_555
C23_4 C22_3 1_555 1_555
N2_3 C1_3 1_555 1_555
N3_3 C2_3 1_555 1_555
N4_3 C1_3 1_555 1_555
H21_3 N4_3 1_555 1_555
N5_3 C2_3 1_555 1_555
H22_3 N5_3 1_555 1_555
N6_3 C3_3 1_555 1_555
H23_3 N6_3 1_555 1_555
N7_3 C10_3 1_555 1_555
N8_3 C17_3 1_555 1_555
Co1_3 N7_3 1_555 1_555
Co4 N8_3 1_555 1_555
O1_3 C5_3 1_555 1_555
O2_3 C5_3 1_555 1_555
O3_3 C7_3 1_555 1_555
O4_3 C7_3 1_555 1_555
O7_3 Co1_3 1_555 1_555
H26_3 O7_3 1_555 1_555
O8_3 Co4 1_555 1_555
H27_3 O8_3 1_555 1_555
H28_3 O8_3 1_555 1_555
C24_3 N9_3 1_555 1_555
C25_3 N10_3 1_555 1_555
C26_3 N9_3 1_555 1_555
C27_3 H29_3 1_555 1_555
H30_3 C27_3 1_555 1_555
C28_3 C27_3 1_555 1_555
C31_3 H33_3 1_555 1_555
H34_3 C31_3 1_555 1_555
C32_3 C31_3 1_555 1_555
C33_3 H35_3 1_555 1_555
C34_3 C33_3 1_555 1_555
H36_3 C34_3 1_555 1_555
C35_3 C34_3 1_555 1_555
C36_3 C35_3 1_555 1_555
H37_3 C36_3 1_555 1_555
C37_3 C36_3 1_555 1_555
H38_3 C37_3 1_555 1_555
C38_3 C16_5 1_555 1_555
H39_3 C38_3 1_555 1_555
H40_3 C38_3 1_555 1_555
H41_3 C16_5 1_555 1_555
H48_3 C23_4 1_555 1_555
N10_3 C24_3 1_555 1_555
N11_3 C25_3 1_555 1_555
N12_3 C24_3 1_555 1_555
H49_3 N12_3 1_555 1_555
N14_3 C26_3 1_555 1_555
H51_3 N14_3 1_555 1_555
N15_3 C33_3 1_555 1_555
N16_3 Co1_3 1_555 1_555
N18_3 Co4 1_555 1_555
Co3_3 N15_3 1_555 1_555
O9_3 Co1_3 1_555 1_555
O10_3 C28_3 1_555 1_555
O14_3 C32_3 1_555 1_555
H52_3 O14_3 1_555 1_555
O15_3 C32_3 1_555 1_555
O16_3 Co1_3 1_555 1_555
H54_3 O16_3 1_555 1_555
O17_3 Co4 1_555 1_555
H55_3 O17_3 1_555 1_555
H56_3 O17_3 1_555 1_555
C3_3 N3_3 1_555 1_555
C4_3 N4_3 1_555 1_555
C6_3 N5_3 1_555 1_555
C14_3 N7_3 1_555 1_555
C21_3 N8_3 1_555 1_555
Co1_3 O1_3 1_555 1_555
Co4 O3_3 1_555 1_555
C26_3 N11_3 1_555 1_555
C27_3 N12_3 1_555 1_555
C28_3 O9_3 1_555 1_555
C31_3 N14_3 1_555 1_555
C35_3 C38_3 1_555 1_555
C37_3 N15_3 1_555 1_555
H20_3 C23_5 1_555 1_555
C39_3 H42_3 1_555 1_555
C40_3 C39_3 1_555 1_555
H43_3 C40_3 1_555 1_555
C41_3 C40_3 1_555 1_555
C42_3 C41_3 1_555 1_555
H44_3 C42_3 1_555 1_555
C43_3 C42_3 1_555 1_555
H45_3 C43_3 1_555 1_555
C44_3 C23_5 1_555 1_555
H46_3 C44_3 1_555 1_555
H47_3 C44_3 1_555 1_555
N17_3 C39_3 1_555 1_555
Co5_3 N17_3 1_555 1_555
C41_3 C44_3 1_555 1_555
C43_3 N17_3 1_555 1_555
H6_4 C8_4 1_555 1_555
C9_4 C8_4 1_555 1_555
O5_4 C9_4 1_555 1_555
H24_4 O5_4 1_555 1_555
O6_4 C9_4 1_555 1_555
C1_4 N1_4 1_555 1_555
C2_4 N2_4 1_555 1_555
C3_4 N1_4 1_555 1_555
C4_4 H1_4 1_555 1_555
H2_4 C4_4 1_555 1_555
C5_4 C4_4 1_555 1_555
C10_4 H7_4 1_555 1_555
C11_4 C10_4 1_555 1_555
H8_4 C11_4 1_555 1_555
C12_4 C11_4 1_555 1_555
C13_4 C12_4 1_555 1_555
H9_4 C13_4 1_555 1_555
C14_4 C13_4 1_555 1_555
H10_4 C14_4 1_555 1_555
C15_4 C12_4 1_555 1_555
H11_4 C15_4 1_555 1_555
H12_4 C15_4 1_555 1_555
C16_6 C15_4 1_555 1_555
N2_4 C1_4 1_555 1_555
N3_4 C2_4 1_555 1_555
N4_4 C1_4 1_555 1_555
H21_4 N4_4 1_555 1_555
N6_4 C3_4 1_555 1_555
H23_4 N6_4 1_555 1_555
N7_4 C10_4 1_555 1_555
Co3_2 N7_4 1_555 1_555
O1_4 C5_4 1_555 1_555
O2_4 C5_4 1_555 1_555
O7_4 Co3_2 1_555 1_555
H25_4 O7_4 1_555 1_555
H26_4 O7_4 1_555 1_555
C24_4 N9_4 1_555 1_555
C25_4 N10_4 1_555 1_555
C26_4 N9_4 1_555 1_555
C27_4 H29_4 1_555 1_555
H30_4 C27_4 1_555 1_555
C28_4 C27_4 1_555 1_555
C29_4 H31_4 1_555 1_555
C30_4 C29_4 1_555 1_555
N10_4 C24_4 1_555 1_555
N11_4 C25_4 1_555 1_555
N12_4 C24_4 1_555 1_555
H49_4 N12_4 1_555 1_555
N13_4 C25_4 1_555 1_555
H50_4 N13_4 1_555 1_555
N14_4 C26_4 1_555 1_555
H51_4 N14_4 1_555 1_555
Co5 O11_2 1_555 1_555
O9_4 Co3_2 1_555 1_555
O10_4 C28_4 1_555 1_555
O11_2 C30_4 1_555 1_555
O13_4 C30_4 1_555 1_555
O16_4 Co3_2 1_555 1_555
H53_4 O16_4 1_555 1_555
H54_4 O16_4 1_555 1_555
C3_4 N3_4 1_555 1_555
C4_4 N4_4 1_555 1_555
C14_4 N7_4 1_555 1_555
Co3_2 O1_4 1_555 1_555
C26_4 N11_4 1_555 1_555
C27_4 N12_4 1_555 1_555
C28_4 O9_4 1_555 1_555
C29_4 N13_4 1_555 1_555
C6_4 H3_4 1_555 1_555
C7_4 C6_4 1_555 1_555
H13_4 C16_7 1_555 1_555
C17_4 H14_4 1_555 1_555
C18_4 C17_4 1_555 1_555
H15_4 C18_4 1_555 1_555
C19_4 C18_4 1_555 1_555
C20_4 C19_4 1_555 1_555
H16_4 C20_4 1_555 1_555
C21_4 C20_4 1_555 1_555
H17_4 C21_4 1_555 1_555
C22_4 C19_4 1_555 1_555
H18_4 C22_4 1_555 1_555
H19_4 C22_4 1_555 1_555
C23_6 C22_4 1_555 1_555
H20_4 C23_6 1_555 1_555
H22_4 N5_4 1_555 1_555
N8_4 C17_4 1_555 1_555
Co5_2 N8_4 1_555 1_555
O3_4 C7_4 1_555 1_555
O4_4 C7_4 1_555 1_555
O8_4 Co5_2 1_555 1_555
H27_4 O8_4 1_555 1_555
H28_4 O8_4 1_555 1_555
C39_4 H42_4 1_555 1_555
C40_4 C39_4 1_555 1_555
H43_4 C40_4 1_555 1_555
C41_4 C40_4 1_555 1_555
C42_4 C41_4 1_555 1_555
H44_4 C42_4 1_555 1_555
C43_4 C42_4 1_555 1_555
H45_4 C43_4 1_555 1_555
C44_4 C23_6 1_555 1_555
H46_4 C44_4 1_555 1_555
H47_4 C44_4 1_555 1_555
H48_4 C23_6 1_555 1_555
N18_3 C39_4 1_555 1_555
O12_3 Co5_2 1_555 1_555
O17_4 Co5_2 1_555 1_555
H55_4 O17_4 1_555 1_555
H56_4 O17_4 1_555 1_555
C6_4 N5_4 1_555 1_555
C21_4 N8_4 1_555 1_555
Co5_2 O3_4 1_555 1_555
C41_4 C44_4 1_555 1_555
C43_4 N18_3 1_555 1_555
H34_4 C31_4 1_555 1_555
C32_4 C31_4 1_555 1_555
H41_4 C16_8 1_555 1_555
O14_4 C32_4 1_555 1_555
H52_4 O14_4 1_555 1_555
O15_4 C32_4 1_555 1_555
C33_4 H35_4 1_555 1_555
C34_4 C33_4 1_555 1_555
H36_4 C34_4 1_555 1_555
C35_4 C34_4 1_555 1_555
C36_4 C35_4 1_555 1_555
H37_4 C36_4 1_555 1_555
C37_4 C36_4 1_555 1_555
H38_4 C37_4 1_555 1_555
C38_4 C16_9 1_555 1_555
H39_4 C38_4 1_555 1_555
H40_4 C38_4 1_555 1_555
N16_3 C33_4 1_555 1_555
C35_4 C38_4 1_555 1_555
C37_4 N16_3 1_555 1_555
H34_5 C31_5 1_555 1_555
C32_5 C31_5 1_555 1_555
C33_5 H35_5 1_555 1_555
C34_5 C33_5 1_555 1_555
H36_5 C34_5 1_555 1_555
C35_5 C34_5 1_555 1_555
C36_5 C35_5 1_555 1_555
H37_5 C36_5 1_555 1_555
C37_5 C36_5 1_555 1_555
H38_5 C37_5 1_555 1_555
C38_5 C16_10 1_555 1_555
H39_5 C38_5 1_555 1_555
H40_5 C38_5 1_555 1_555
H41_5 C16_10 1_555 1_555
N16 C33_5 1_555 1_555
O14_5 C32_5 1_555 1_555
H52_5 O14_5 1_555 1_555
O15_5 C32_5 1_555 1_555
C35_5 C38_5 1_555 1_555
C37_5 N16 1_555 1_555
C1_5 N1_5 1_555 1_555
C2_5 N2_5 1_555 1_555
C3_5 N1_5 1_555 1_555
C4_5 H1_5 1_555 1_555
H2_5 C4_5 1_555 1_555
C5_5 C4_5 1_555 1_555
C6_5 H3_5 1_555 1_555
H4_4 C6_5 1_555 1_555
C7_5 C6_5 1_555 1_555
C8_5 H5_5 1_555 1_555
H6_5 C8_5 1_555 1_555
C9_5 C8_5 1_555 1_555
C10_5 H7_5 1_555 1_555
C11_5 C10_5 1_555 1_555
H8_5 C11_5 1_555 1_555
C12_5 C11_5 1_555 1_555
C13_5 C12_5 1_555 1_555
H9_5 C13_5 1_555 1_555
C14_5 C13_5 1_555 1_555
H10_5 C14_5 1_555 1_555
C15_5 C12_5 1_555 1_555
H11_5 C15_5 1_555 1_555
H12_5 C15_5 1_555 1_555
C16_11 C15_5 1_555 1_555
H13_5 C16_11 1_555 1_555
C17_5 H14_5 1_555 1_555
C18_5 C17_5 1_555 1_555
H15_5 C18_5 1_555 1_555
C19_5 C18_5 1_555 1_555
C20_5 C19_5 1_555 1_555
H16_5 C20_5 1_555 1_555
C21_5 C20_5 1_555 1_555
H17_5 C21_5 1_555 1_555
C22_5 C19_5 1_555 1_555
H18_5 C22_5 1_555 1_555
H19_5 C22_5 1_555 1_555
C23_7 C22_5 1_555 1_555
N2_5 C1_5 1_555 1_555
N3_5 C2_5 1_555 1_555
N4_5 C1_5 1_555 1_555
H21_5 N4_5 1_555 1_555
N5_5 C2_5 1_555 1_555
H22_5 N5_5 1_555 1_555
N6_5 C3_5 1_555 1_555
H23_5 N6_5 1_555 1_555
N7_5 C10_5 1_555 1_555
N8_5 C17_5 1_555 1_555
Co3_3 N7_5 1_555 1_555
Co5_3 N8_5 1_555 1_555
O1_5 C5_5 1_555 1_555
O2_5 C5_5 1_555 1_555
O3_5 C7_5 1_555 1_555
O4_5 C7_5 1_555 1_555
O5_5 C9_5 1_555 1_555
H24_5 O5_5 1_555 1_555
O6_5 C9_5 1_555 1_555
O7_5 Co3_3 1_555 1_555
H26_5 O7_5 1_555 1_555
O8_5 Co5_3 1_555 1_555
H27_5 O8_5 1_555 1_555
H28_5 O8_5 1_555 1_555
C24_5 N9_5 1_555 1_555
C25_5 N10_5 1_555 1_555
C26_5 N9_5 1_555 1_555
C27_5 H29_5 1_555 1_555
H30_5 C27_5 1_555 1_555
C28_5 C27_5 1_555 1_555
C29_5 H31_5 1_555 1_555
C30_5 C29_5 1_555 1_555
H48_5 C23_7 1_555 1_555
N10_5 C24_5 1_555 1_555
N11_5 C25_5 1_555 1_555
N12_5 C24_5 1_555 1_555
H49_5 N12_5 1_555 1_555
N13_5 C25_5 1_555 1_555
H50_5 N13_5 1_555 1_555
N14_5 C26_5 1_555 1_555
H51_5 N14_5 1_555 1_555
O9_5 Co3_3 1_555 1_555
O10_5 C28_5 1_555 1_555
O12_3 C30_5 1_555 1_555
O12_4 Co5_3 1_555 1_555
O13_5 C30_5 1_555 1_555
O16_5 Co3_3 1_555 1_555
H54_5 O16_5 1_555 1_555
O17_5 Co5_3 1_555 1_555
H55_5 O17_5 1_555 1_555
H56_5 O17_5 1_555 1_555
C3_5 N3_5 1_555 1_555
C4_5 N4_5 1_555 1_555
C6_5 N5_5 1_555 1_555
C8_5 N6_5 1_555 1_555
C14_5 N7_5 1_555 1_555
C21_5 N8_5 1_555 1_555
Co3_3 O1_5 1_555 1_555
Co5_3 O3_5 1_555 1_555
C26_5 N11_5 1_555 1_555
C27_5 N12_5 1_555 1_555
C28_5 O9_5 1_555 1_555
C29_5 N13_5 1_555 1_555
H20_5 C23_8 1_555 1_555
C39_5 H42_5 1_555 1_555
C40_5 C39_5 1_555 1_555
H43_5 C40_5 1_555 1_555
C41_5 C40_5 1_555 1_555
C42_5 C41_5 1_555 1_555
H44_5 C42_5 1_555 1_555
C43_5 C42_5 1_555 1_555
H45_5 C43_5 1_555 1_555
C44_5 C23_8 1_555 1_555
H46_5 C44_5 1_555 1_555
H47_5 C44_5 1_555 1_555
N18 C39_5 1_555 1_555
C41_5 C44_5 1_555 1_555
C43_5 N18 1_555 1_555
H20_6 C23_9 1_555 1_555
C39_6 H42_6 1_555 1_555
C40_6 C39_6 1_555 1_555
H43_6 C40_6 1_555 1_555
C41_6 C40_6 1_555 1_555
C42_6 C41_6 1_555 1_555
H44_6 C42_6 1_555 1_555
C43_6 C42_6 1_555 1_555
H45_6 C43_6 1_555 1_555
C44_6 C23_9 1_555 1_555
H46_6 C44_6 1_555 1_555
H47_6 C44_6 1_555 1_555
N18_2 C39_6 1_555 1_555
C41_6 C44_6 1_555 1_555
C43_6 N18_2 1_555 1_555
C1_6 N1_6 1_555 1_555
C2_6 N2_6 1_555 1_555
C3_6 N1_6 1_555 1_555
C4_6 H1_6 1_555 1_555
H2_6 C4_6 1_555 1_555
C5_6 C4_6 1_555 1_555
C6_6 H3_6 1_555 1_555
C7_6 C6_6 1_555 1_555
C10_6 H7_6 1_555 1_555
C11_6 C10_6 1_555 1_555
H8_6 C11_6 1_555 1_555
C12_6 C11_6 1_555 1_555
C13_6 C12_6 1_555 1_555
H9_6 C13_6 1_555 1_555
C14_6 C13_6 1_555 1_555
H10_6 C14_6 1_555 1_555
C15_6 C12_6 1_555 1_555
H11_6 C15_6 1_555 1_555
H12_6 C15_6 1_555 1_555
C16_12 C15_6 1_555 1_555
H13_6 C16_12 1_555 1_555
C17_6 H14_6 1_555 1_555
C18_6 C17_6 1_555 1_555
H15_6 C18_6 1_555 1_555
C19_6 C18_6 1_555 1_555
C20_6 C19_6 1_555 1_555
H16_6 C20_6 1_555 1_555
C21_6 C20_6 1_555 1_555
H17_6 C21_6 1_555 1_555
C22_6 C19_6 1_555 1_555
H18_6 C22_6 1_555 1_555
H19_6 C22_6 1_555 1_555
C23_10 C22_6 1_555 1_555
N2_6 C1_6 1_555 1_555
N3_6 C2_6 1_555 1_555
N4_6 C1_6 1_555 1_555
H21_6 N4_6 1_555 1_555
N5_6 C2_6 1_555 1_555
H22_6 N5_6 1_555 1_555
N6_6 C3_6 1_555 1_555
H23_6 N6_6 1_555 1_555
N7_6 C10_6 1_555 1_555
N8_6 C17_6 1_555 1_555
Co3 N7_6 1_555 1_555
Co5 N8_6 1_555 1_555
O1_6 C5_6 1_555 1_555
O2_6 C5_6 1_555 1_555
O3_6 C7_6 1_555 1_555
O4_6 C7_6 1_555 1_555
O7_6 Co3 1_555 1_555
H26_6 O7_6 1_555 1_555
O8_6 Co5 1_555 1_555
H27_6 O8_6 1_555 1_555
H28_6 O8_6 1_555 1_555
C24_6 N9_6 1_555 1_555
C25_6 N10_6 1_555 1_555
C26_6 N9_6 1_555 1_555
C27_6 H29_6 1_555 1_555
H30_6 C27_6 1_555 1_555
C28_6 C27_6 1_555 1_555
C29_6 H31_6 1_555 1_555
H32_6 C29_6 1_555 1_555
C30_6 C29_6 1_555 1_555
C31_6 H33_6 1_555 1_555
H34_6 C31_6 1_555 1_555
C32_6 C31_6 1_555 1_555
C33_6 H35_6 1_555 1_555
C34_6 C33_6 1_555 1_555
H36_6 C34_6 1_555 1_555
C35_6 C34_6 1_555 1_555
C36_6 C35_6 1_555 1_555
H37_6 C36_6 1_555 1_555
C37_6 C36_6 1_555 1_555
H38_6 C37_6 1_555 1_555
C38_6 C16_12 1_555 1_555
H39_6 C38_6 1_555 1_555
H40_6 C38_6 1_555 1_555
H41_6 C16_12 1_555 1_555
H48_6 C23_10 1_555 1_555
N10_6 C24_6 1_555 1_555
N11_6 C25_6 1_555 1_555
N12_6 C24_6 1_555 1_555
H49_6 N12_6 1_555 1_555
N13_6 C25_6 1_555 1_555
H50_6 N13_6 1_555 1_555
N14_6 C26_6 1_555 1_555
H51_6 N14_6 1_555 1_555
N16_2 C33_6 1_555 1_555
O9_6 Co3 1_555 1_555
O10_6 C28_6 1_555 1_555
O12_4 C30_6 1_555 1_555
O13_6 C30_6 1_555 1_555
O14_6 C32_6 1_555 1_555
H52_6 O14_6 1_555 1_555
O15_6 C32_6 1_555 1_555
O16_6 Co3 1_555 1_555
H54_6 O16_6 1_555 1_555
O17_6 Co5 1_555 1_555
H55_6 O17_6 1_555 1_555
H56_6 O17_6 1_555 1_555
C3_6 N3_6 1_555 1_555
C4_6 N4_6 1_555 1_555
C6_6 N5_6 1_555 1_555
C14_6 N7_6 1_555 1_555
C21_6 N8_6 1_555 1_555
Co3 O1_6 1_555 1_555
Co5 O3_6 1_555 1_555
C26_6 N11_6 1_555 1_555
C27_6 N12_6 1_555 1_555
C28_6 O9_6 1_555 1_555
C29_6 N13_6 1_555 1_555
C31_6 N14_6 1_555 1_555
C35_6 C38_6 1_555 1_555
C37_6 N16_2 1_555 1_555
H6_6 C8_6 1_555 1_555
C9_6 C8_6 1_555 1_555
O5_6 C9_6 1_555 1_555
H24_6 O5_6 1_555 1_555
O6_6 C9_6 1_555 1_555
H20_2 C23_11 1_555 1_555
C22_2 C23_12 1_555 1_555

#END
