
###############################################################################
#
# This file contains modified crystal structure data generated from the
# MOF subset of the Cambridge Structural Database (CSD) v543 
# hosted by the Cambridge Crystallographic Data Centre (CCDC).
#
# This work is licensed under the Creative Commons
# Attribution-NonCommercial-ShareAlike 4.0 International License.
# To view a copy of this license, visit
# http://creativecommons.org/licenses/by-nc-sa/4.0/
# or send a letter to
# Creative Commons, PO Box 1866, Mountain View, CA 94042, USA.
#
# CIF created using the CSD Python API on 29 September 2022
# The structure has been converted into the P1 space group
# The structure has a 3D framework
# The original CSD entry ODONEB is in the hexagonal crystal system
# The original CSD entry ODONEB is in a Sohncke space group
# The framework has been calculated to contain at least 10.0% void space
# The void calculation uses a probe of radius 1.32A, grid spacing 0.4
#
###############################################################################

data_ODONEB
_chemical_formula_moiety         '(C276 H336 N96 Ni12 O96)n'
_symmetry_cell_setting           triclinic
_symmetry_space_group_name_H-M   'P 1'
_symmetry_Int_Tables_number      1
_space_group_name_Hall           'P 1'
loop_
_symmetry_equiv_pos_site_id
_symmetry_equiv_pos_as_xyz
1 x,y,z
_cell_length_a                   12.5611(4)
_cell_length_b                   12.5611(4)
_cell_length_c                   62.471(3)
_cell_angle_alpha                90
_cell_angle_beta                 90
_cell_angle_gamma                120
_cell_volume                     8536.2
loop_
_atom_site_label
_atom_site_type_symbol
_atom_site_fract_x
_atom_site_fract_y
_atom_site_fract_z
C16 C 0.4233(5) 0.0000 0.5000
H32 H 0.3927 0.0152 0.6998
C31 C 0.2611(4) 0.0042(4) 0.62793(7)
H34 H 0.2077 0.0002 0.6164
C32 C 0.3170(4) 0.1308(4) 0.63866(7)
C33 C 0.5749(6) 0.1810(4) 0.43245(7)
H35 H 0.5659 0.1570 0.4182
C34 C 0.4815(6) 0.1087(4) 0.44659(8)
H36 H 0.4121 0.0383 0.4417
C35 C 0.4908(6) 0.1404(4) 0.46789(7)
C36 C 0.5973(6) 0.2457(4) 0.47399(7)
H37 H 0.6085 0.2706 0.4882
C37 C 0.6864(6) 0.3135(4) 0.45931(7)
H38 H 0.7568 0.3837 0.4640
C38 C 0.3897(7) 0.0676(5) 0.48360(8)
H39 H 0.3172 0.0082 0.4758
H40 H 0.3691 0.1227 0.4910
H41 H 0.4981 0.0586 0.5073
N15 N 0.6774(4) 0.2836(3) 0.43824(5)
Ni3 Ni 0.81146(4) 0.40573(3) 0.4167
O14 O 0.2685(3) 0.1428(4) 0.65516(5)
H52 H 0.3070 0.2144 0.6592
O15 O 0.4112(3) 0.2169(3) 0.62980(5)
C1 C 0.0761(4) 0.4142(4) 0.53097(6)
C2 C 0.0757(4) 0.5272(4) 0.50141(6)
C3 C 0.0414(4) 0.5720(4) 0.53454(6)
C4 C 0.0704(4) 0.2840(4) 0.56042(6)
H1 H 0.0364 0.1996 0.5557
H2 H 0.0036 0.2935 0.5660
C5 C 0.1820(4) 0.3542(4) 0.57401(6)
C6 C 0.0714(5) 0.6409(5) 0.47004(7)
H3 H 0.0964 0.7096 0.4798
C7 C 0.1445(4) 0.6861(4) 0.44957(6)
H5 H 0.0586 0.7889 0.5284
C10 C 0.3939(4) 0.8190(4) 0.56755(7)
H7 H 0.4089 0.8430 0.5818
C11 C 0.3728(5) 0.8913(4) 0.55341(8)
H8 H 0.3738 0.9617 0.5583
C12 C 0.3504(4) 0.8596(4) 0.53211(7)
C13 C 0.3516(4) 0.7543(4) 0.52601(7)
H9 H 0.3379 0.7294 0.5118
C14 C 0.3729(4) 0.6865(4) 0.54069(7)
H10 H 0.3731 0.6163 0.5360
C15 C 0.3221(5) 0.9324(5) 0.51640(8)
H11 H 0.3090 0.9918 0.5242
H12 H 0.2464 0.8773 0.5090
C16_2 C 0.4233(5) 1.0000 0.5000
H13 H 0.4395 0.9414 0.4927
C17 C 0.4393(4) 0.7382(4) 0.37461(6)
H14 H 0.3721 0.7466 0.3709
C18 C 0.5332(5) 0.7772(5) 0.36029(6)
H15 H 0.5278 0.8091 0.3472
C19 C 0.6365(4) 0.7696(4) 0.36522(8)
C20 C 0.6350(4) 0.7138(5) 0.38470(8)
H16 H 0.7002 0.7026 0.3886
C21 C 0.5359(4) 0.6761(5) 0.39792(7)
H17 H 0.5363 0.6393 0.4108
C22 C 0.7439(6) 0.8111(6) 0.34961(9)
H18 H 0.7598 0.8864 0.3425
H19 H 0.8174 0.8271 0.3573
C23 C 0.7120(6) 0.7120(6) 0.3333
H20 H 0.6956 0.6382 0.3406
N1 N 0.0530(3) 0.4826(3) 0.54412(5)
N2 N 0.0912(3) 0.4346(3) 0.50910(5)
N3 N 0.0481(4) 0.5970(4) 0.51329(5)
N4 N 0.0837(3) 0.3191(3) 0.53782(5)
H21 H 0.0970 0.2759 0.5287
N5 N 0.0891(4) 0.5473(4) 0.48036(5)
H22 H 0.1089 0.5032 0.4726
N6 N 0.0218(3) 0.6468(4) 0.54721(5)
H23 H 0.0248 0.6399 0.5609
N7 N 0.3938(3) 0.7164(3) 0.56176(5)
N8 N 0.4377(3) 0.6886(3) 0.39359(5)
Ni1 Ni 0.40573(3) 0.59427(3) 0.5833
Ni2 Ni 0.30390(6) 0.65195(3) 0.4167
O1 O 0.2670(3) 0.4520(3) 0.56656(4)
O2 O 0.1797(3) 0.3096(3) 0.59196(5)
O3 O 0.1712(3) 0.6144(3) 0.43993(4)
O4 O 0.1721(4) 0.7924(3) 0.44328(6)
O7 O 0.5342(3) 0.5949(3) 0.56238(5)
H25 H 0.5299 0.5261 0.5646
H26 H 0.6071 0.6509 0.5653
O8 O 0.2971(3) 0.8078(3) 0.40849(4)
H27 H 0.2689 0.8294 0.4189
H28 H 0.2433 0.7845 0.3986
C24 C 0.5858(4) 0.9239(4) 0.63570(6)
C25 C 0.4728(4) 0.9243(4) 0.66526(6)
C26 C 0.4280(4) 0.9586(4) 0.63213(6)
C27 C 0.7160(4) 0.9296(4) 0.60625(6)
H29 H 0.8004 0.9636 0.6110
H30 H 0.7065 0.9964 0.6007
C28 C 0.6458(4) 0.8180(4) 0.59266(6)
C29 C 0.3591(5) 0.9286(5) 0.69663(7)
H31 H 0.2904 0.9036 0.6869
C30 C 0.3139(4) 0.8555(4) 0.71710(6)
H33 H 0.2111 0.9414 0.6383
C39 C 0.7382(4) 0.4393(4) 0.29206(6)
H42 H 0.7466 0.3721 0.2958
C40 C 0.7772(5) 0.5332(5) 0.30638(6)
H43 H 0.8091 0.5278 0.3195
C41 C 0.7696(4) 0.6365(4) 0.30145(8)
C42 C 0.7138(5) 0.6350(4) 0.28197(8)
H44 H 0.7026 0.7002 0.2781
C43 C 0.6761(5) 0.5359(4) 0.26875(7)
H45 H 0.6393 0.5363 0.2559
C44 C 0.8111(6) 0.7439(6) 0.31706(9)
H46 H 0.8864 0.7598 0.3242
H47 H 0.8271 0.8174 0.3094
H48 H 0.6382 0.6956 0.3261
N9 N 0.5174(3) 0.9470(3) 0.62255(5)
N10 N 0.5654(3) 0.9088(3) 0.65757(5)
N11 N 0.4030(4) 0.9519(4) 0.65338(5)
N12 N 0.6809(3) 0.9163(3) 0.62885(5)
H49 H 0.7241 0.9030 0.6380
N13 N 0.4527(4) 0.9109(4) 0.68631(5)
H50 H 0.4968 0.8911 0.6941
N14 N 0.3532(4) 0.9782(3) 0.61946(5)
H51 H 0.3601 0.9752 0.6058
N16 N 0.2836(3) 0.6062(3) 0.60491(5)
N17 N 0.6886(3) 0.4377(3) 0.27308(5)
N18 N 0.4377(3) 0.7491(4) 0.43974(5)
Ni4 Ni 0.34805(3) 0.69610(6) 0.7500
Ni5 Ni 0.65195(7) 0.30390(6) 0.2500
O9 O 0.5480(3) 0.7330(3) 0.60011(4)
O10 O 0.6904(3) 0.8203(3) 0.57471(5)
O11 O 0.3856(3) 0.8288(3) 0.72674(4)
O12 O 0.1712(3) 0.5568(4) 0.39340(4)
O13 O 0.2076(3) 0.8279(4) 0.72339(6)
O16 O 0.4051(3) 0.4658(3) 0.60429(5)
H53 H 0.4739 0.4701 0.6021
H54 H 0.3491 0.3929 0.6014
O17 O 0.2971(3) 0.4893(4) 0.42484(4)
H55 H 0.2689 0.4395 0.4144
H56 H 0.2433 0.4588 0.4347
H4 H 0.9848 0.6073 0.4669
C8 C 0.9958(4) 0.7389(4) 0.53874(7)
H6 H 0.9998 0.7923 0.5503
C9 C 0.8692(4) 0.6830(4) 0.52801(7)
O5 O 0.8572(4) 0.7315(3) 0.51151(5)
H24 H 0.7856 0.6930 0.5075
O6 O 0.7831(3) 0.5888(3) 0.53687(5)
H20_2 H 0.3618 0.0574 0.0073
H25_2 H 0.4739 0.0038 0.2313
H53_2 H 0.5299 0.0038 0.2687
C23_2 C 0.2880(6) 0.0000(8) 1.0000
C39_2 C 0.5607(4) 0.2989(6) 0.95872(6)
H42_2 H 0.6279 0.3745 0.9624
C40_2 C 0.4668(5) 0.2440(7) 0.97304(6)
H43_2 H 0.4722 0.2813 0.9861
C41_2 C 0.3635(4) 0.1331(6) 0.96811(8)
C42_2 C 0.3650(4) 0.0788(6) 0.94863(8)
H44_2 H 0.2998 0.0024 0.9447
C43_2 C 0.4641(4) 0.1402(6) 0.93541(7)
H45_2 H 0.4637 0.1030 0.9225
C44_2 C 0.2561(6) 0.0672(8) 0.98372(9)
H46_2 H 0.2402 0.1266 0.9908
H47_2 H 0.1826 0.0097 0.9760
N17_2 N 0.5623(3) 0.2509(4) 0.93974(5)
Ni5_2 Ni 0.69610(6) 0.34805(9) 0.9167
C1_2 C 0.5858(4) 0.6619(6) 0.19764(6)
C2_2 C 0.4728(4) 0.5485(6) 0.16808(6)
C3_2 C 0.4280(4) 0.4694(6) 0.20121(6)
C4_2 C 0.7160(4) 0.7864(6) 0.22709(6)
H1_2 H 0.8004 0.8368 0.2224
H2_2 H 0.7065 0.7101 0.2327
C5_2 C 0.6458(4) 0.8278(6) 0.24068(6)
C6_2 C 0.3591(5) 0.4305(7) 0.13671(7)
H3_2 H 0.2904 0.3868 0.1465
H4_2 H 0.3927 0.3775 0.1336
C7_2 C 0.3139(4) 0.4584(6) 0.11624(6)
C8_2 C 0.2611(4) 0.2569(6) 0.20541(7)
H5_2 H 0.2111 0.2697 0.1951
H6_2 H 0.2077 0.2075 0.2170
C9_2 C 0.3170(4) 0.1862(6) 0.19468(7)
C10_2 C 0.1810(4) 0.5749(6) 0.23422(7)
H7_2 H 0.1570 0.5659 0.2485
C11_2 C 0.1087(4) 0.4815(6) 0.22008(8)
H8_2 H 0.0383 0.4121 0.2250
C12_2 C 0.1404(4) 0.4908(6) 0.19878(7)
C13_2 C 0.2457(4) 0.5973(6) 0.19268(7)
H9_2 H 0.2706 0.6085 0.1785
C14_2 C 0.3135(4) 0.6864(6) 0.20736(7)
H10_2 H 0.3837 0.7568 0.2027
C15_2 C 0.0676(5) 0.3897(7) 0.18307(8)
H11_2 H 0.0082 0.3172 0.1909
H12_2 H 0.1227 0.3691 0.1757
C16_3 C -0.0000 0.4233(5) 0.1667
H13_2 H 0.0586 0.4981 0.1594
C17_2 C 0.2618(4) 0.7011(6) 0.04128(6)
H14_2 H 0.2534 0.6255 0.0376
C18_2 C 0.2228(5) 0.7560(7) 0.02696(6)
H15_2 H 0.1909 0.7187 0.0139
C19_2 C 0.2304(4) 0.8669(6) 0.03189(8)
C20_2 C 0.2862(5) 0.9212(6) 0.05137(8)
H16_2 H 0.2974 0.9976 0.0553
C21_2 C 0.3239(5) 0.8598(6) 0.06459(7)
H17_2 H 0.3607 0.8970 0.0775
C22_2 C 0.1889(6) 0.9328(8) 0.01628(9)
H18_2 H 0.1136 0.8734 0.0092
H19_2 H 0.1729 0.9903 0.0240
N1_2 N 0.5174(3) 0.5704(4) 0.21079(5)
N2_2 N 0.5654(3) 0.6566(4) 0.17577(5)
N3_2 N 0.4030(4) 0.4511(6) 0.17996(5)
N4_2 N 0.6809(3) 0.7646(4) 0.20449(5)
H21_2 H 0.7241 0.8211 0.1954
N5_2 N 0.4527(4) 0.5418(6) 0.14703(5)
H22_2 H 0.4968 0.6057 0.1393
N6_2 N 0.3532(4) 0.3750(5) 0.21388(5)
H23_2 H 0.3601 0.3849 0.2276
N7_2 N 0.2836(3) 0.6774(4) 0.22843(5)
N8_2 N 0.3114(3) 0.7491(4) 0.06026(5)
Ni1_2 Ni 0.40573(3) 0.81146(4) 0.2500
Ni2_2 Ni 0.34805(3) 0.65195(7) 0.0834
O1_2 O 0.5480(3) 0.8150(4) 0.23323(4)
O2_2 O 0.6904(3) 0.8701(4) 0.25863(5)
O3_2 O 0.3856(3) 0.5568(4) 0.10660(4)
O4_2 O 0.2076(3) 0.3797(5) 0.10995(6)
O5_2 O 0.2685(3) 0.1257(5) 0.17818(5)
H24_2 H 0.3070 0.0926 0.1742
O6_2 O 0.4112(3) 0.1943(4) 0.20354(5)
O7_2 O 0.4051(3) 0.9393(4) 0.22905(5)
H26_2 H 0.3491 0.9562 0.2320
O8_2 O 0.1922(3) 0.4893(4) 0.07516(4)
H27_2 H 0.1706 0.4395 0.0856
H28_2 H 0.2155 0.4588 0.0653
C24_2 C 0.0761(4) 0.6619(6) 0.30236(6)
C25_2 C 0.0757(4) 0.5485(6) 0.33192(6)
C26_2 C 0.0414(4) 0.4694(6) 0.29879(6)
C27_2 C 0.0704(4) 0.7864(6) 0.27291(6)
H29_2 H 0.0364 0.8368 0.2776
H30_2 H 0.0036 0.7101 0.2673
C28_2 C 0.1820(4) 0.8278(6) 0.25932(6)
C29_2 C 0.0714(5) 0.4305(7) 0.36329(7)
H31_2 H 0.0964 0.3868 0.3535
C30_2 C 0.1445(4) 0.4584(6) 0.38376(6)
H33_2 H 0.0586 0.2697 0.3049
N9_2 N 0.0530(3) 0.5704(4) 0.28921(5)
N10_2 N 0.0912(3) 0.6566(4) 0.32423(5)
N11_2 N 0.0481(4) 0.4511(6) 0.32004(5)
N12_2 N 0.0837(3) 0.7646(4) 0.29551(5)
H49_2 H 0.0970 0.8211 0.3046
N13_2 N 0.0891(4) 0.5418(6) 0.35297(5)
H50_2 H 0.1089 0.6057 0.3607
N14_2 N 0.0218(3) 0.3750(5) 0.28612(5)
H51_2 H 0.0248 0.3849 0.2724
N16_2 N 0.3938(3) 0.6774(4) 0.27157(5)
N18_2 N 0.2509(4) 0.6886(5) 0.10641(5)
O9_2 O 0.2670(3) 0.8150(4) 0.26677(4)
O10_2 O 0.1797(3) 0.8701(4) 0.24137(5)
O12_2 O 0.4432(4) 0.6144(5) 0.06007(4)
O13_2 O 0.1721(4) 0.3797(5) 0.39005(6)
O16_2 O 0.5342(3) 0.9393(4) 0.27095(5)
H54_2 H 0.6071 0.9562 0.2680
O17_2 O 0.5107(4) 0.8078(5) 0.09151(4)
H55_2 H 0.5605 0.8294 0.0811
H56_2 H 0.5412 0.7845 0.1014
C23_3 C 0.2880(6) 1.0000(8) 1.0000
H48_2 H 0.3044 0.9426 0.9927
C16_4 C 1.0000 0.4233(5) 0.1667
H32_2 H 0.9848 0.3775 0.3664
C31_2 C 0.9958(4) 0.2569(6) 0.29459(7)
H34_2 H 0.9998 0.2075 0.2830
C32_2 C 0.8692(4) 0.1862(6) 0.30532(7)
C33_2 C 0.8190(4) 0.3939(7) 0.09912(7)
H35_2 H 0.8430 0.4089 0.0849
C34_2 C 0.8913(4) 0.3728(7) 0.11326(8)
H36_2 H 0.9617 0.3738 0.1084
C35_2 C 0.8596(4) 0.3504(7) 0.13456(7)
C36_2 C 0.7543(4) 0.3516(7) 0.14066(7)
H37_2 H 0.7294 0.3379 0.1549
C37_2 C 0.6865(4) 0.3729(7) 0.12598(7)
H38_2 H 0.6163 0.3731 0.1307
C38_2 C 0.9324(5) 0.3221(9) 0.15027(8)
H39_2 H 0.9918 0.3090 0.1425
H40_2 H 0.8773 0.2464 0.1577
H41_2 H 0.9414 0.4395 0.1740
N15_2 N 0.7164(3) 0.3938(5) 0.10491(5)
Ni3_2 Ni 0.59427(3) 0.40573(5) 0.0834
O14_2 O 0.8572(4) 0.1257(5) 0.32182(5)
H52_2 H 0.7856 0.0926 0.3258
O15_2 O 0.7831(3) 0.1943(4) 0.29646(5)
H4_3 H 0.6225 0.0152 0.8002
C8_3 C 0.7431(6) 0.0042(4) 0.87207(7)
H6_3 H 0.7925 0.0002 0.8836
C9_3 C 0.8138(6) 0.1308(4) 0.86134(7)
O5_3 O 0.8743(5) 0.1428(4) 0.84484(5)
H24_3 H 0.9074 0.2144 0.8408
O6_3 O 0.8057(4) 0.2169(3) 0.87020(5)
C29_3 C 0.5695(7) 0.6409(5) 0.02996(7)
H31_3 H 0.6132 0.7096 0.0202
H32_3 H 0.6225 0.6073 0.0331
C30_3 C 0.5416(6) 0.6861(4) 0.05043(6)
N13_3 N 0.4582(6) 0.5473(4) 0.01964(5)
H50_3 H 0.3943 0.5032 0.0274
O13_3 O 0.6203(5) 0.7924(3) 0.05672(6)
C1_3 C 0.3381(6) 0.9239(4) 0.86430(6)
C2_3 C 0.4515(6) 0.9243(4) 0.83474(6)
C3_3 C 0.5306(6) 0.9586(4) 0.86787(6)
C4_3 C 0.2136(6) 0.9296(4) 0.89375(6)
H1_3 H 0.1632 0.9636 0.8890
H2_3 H 0.2899 0.9964 0.8993
C5_3 C 0.1722(6) 0.8180(4) 0.90734(6)
C6_3 C 0.5695(7) 0.9286(5) 0.80337(7)
H3_3 H 0.6132 0.9036 0.8131
C7_3 C 0.5416(6) 0.8555(4) 0.78290(6)
H5_3 H 0.7303 0.9414 0.8617
C10_3 C 0.4251(6) 0.6061(4) 0.90088(7)
H7_3 H 0.4341 0.5911 0.9151
C11_3 C 0.5185(6) 0.6272(5) 0.88674(8)
H8_3 H 0.5879 0.6262 0.8916
C12_3 C 0.5092(6) 0.6496(4) 0.86544(7)
C13_3 C 0.4027(6) 0.6484(4) 0.85934(7)
H9_3 H 0.3915 0.6621 0.8451
C14_3 C 0.3136(6) 0.6271(4) 0.87402(7)
H10_3 H 0.2432 0.6269 0.8693
C15_3 C 0.6103(7) 0.6779(5) 0.84973(8)
H11_3 H 0.6828 0.6910 0.8575
H12_3 H 0.6309 0.7536 0.8423
C16_5 C 0.5767(5) 0.5767(5) 0.8333
H13_3 H 0.5019 0.5605 0.8260
C17_3 C 0.2989(6) 0.5607(4) 0.70794(6)
H14_3 H 0.3745 0.6279 0.7042
C18_3 C 0.2440(7) 0.4668(5) 0.69362(6)
H15_3 H 0.2813 0.4722 0.6805
C19_3 C 0.1331(6) 0.3635(4) 0.69855(8)
C20_3 C 0.0788(6) 0.3650(4) 0.71803(8)
H16_3 H 0.0024 0.2998 0.7219
C21_3 C 0.1402(6) 0.4641(4) 0.73125(7)
H17_3 H 0.1030 0.4637 0.7441
C22_3 C 0.0672(8) 0.2561(6) 0.68294(9)
H18_3 H 0.1266 0.2402 0.6758
H19_3 H 0.0097 0.1826 0.6906
C23_4 C -0.0000(8) 0.2880(6) 0.6666
N1_3 N 0.4296(4) 0.9470(3) 0.87745(5)
N2_3 N 0.3434(4) 0.9088(3) 0.84243(5)
N3_3 N 0.5489(6) 0.9519(4) 0.84662(5)
N4_3 N 0.2354(4) 0.9163(3) 0.87115(5)
H21_3 H 0.1789 0.9030 0.8620
N5_3 N 0.4582(6) 0.9109(4) 0.81369(5)
H22_3 H 0.3943 0.8911 0.8059
N6_3 N 0.6250(5) 0.9782(3) 0.88054(5)
H23_3 H 0.6151 0.9752 0.8942
N7_3 N 0.3226(4) 0.6062(3) 0.89509(5)
N8_3 N 0.2509(4) 0.5623(3) 0.72692(5)
Ni1_3 Ni 0.18854(4) 0.59427(3) 0.9166
O1_3 O 0.1850(4) 0.7330(3) 0.89989(4)
O2_3 O 0.1299(4) 0.8203(3) 0.92529(5)
O3_3 O 0.4432(4) 0.8288(3) 0.77326(4)
O4_3 O 0.6203(5) 0.8279(4) 0.77661(6)
O7_3 O 0.0607(4) 0.4658(3) 0.89571(5)
H26_3 H 0.0438 0.3929 0.8986
O8_3 O 0.5107(4) 0.7029(3) 0.74182(4)
H27_3 H 0.5605 0.7311 0.7522
H28_3 H 0.5412 0.7567 0.7319
C24_3 C 0.3381(6) 0.4142(4) 0.96903(6)
C25_3 C 0.4515(6) 0.5272(4) 0.99859(6)
C26_3 C 0.5306(6) 0.5720(4) 0.96546(6)
C27_3 C 0.2136(6) 0.2840(4) 0.93958(6)
H29_3 H 0.1632 0.1996 0.9443
H30_3 H 0.2899 0.2935 0.9340
C28_3 C 0.1722(6) 0.3542(4) 0.92599(6)
C31_3 C 0.7431(6) 0.7389(4) 0.96126(7)
H33_3 H 0.7303 0.7889 0.9716
H34_3 H 0.7925 0.7923 0.9497
C32_3 C 0.8138(6) 0.6830(4) 0.97199(7)
C33_3 C 0.6061(7) 0.4251(6) 0.76578(7)
H35_3 H 0.5911 0.4341 0.7515
C34_3 C 0.6272(7) 0.5185(6) 0.77992(8)
H36_3 H 0.6262 0.5879 0.7750
C35_3 C 0.6496(7) 0.5092(6) 0.80122(7)
C36_3 C 0.6484(7) 0.4027(6) 0.80732(7)
H37_3 H 0.6621 0.3915 0.8215
C37_3 C 0.6271(7) 0.3136(6) 0.79264(7)
H38_3 H 0.6269 0.2432 0.7973
C38_3 C 0.6779(9) 0.6103(7) 0.81693(8)
H39_3 H 0.6910 0.6828 0.8091
H40_3 H 0.7536 0.6309 0.8243
H41_3 H 0.5605 0.5019 0.8406
H48_3 H 0.0574 0.3618 0.6594
N9_3 N 0.4296(4) 0.4826(3) 0.95588(5)
N10_3 N 0.3434(4) 0.4346(3) 0.99090(5)
N11_3 N 0.5489(6) 0.5970(4) 0.98671(5)
N12_3 N 0.2354(4) 0.3191(3) 0.96218(5)
H49_3 H 0.1789 0.2759 0.9713
N14_3 N 0.6250(5) 0.6468(4) 0.95279(5)
H51_3 H 0.6151 0.6399 0.9391
N15_3 N 0.6062(5) 0.3226(4) 0.77157(5)
N16_3 N 0.3226(4) 0.7164(3) 0.93824(5)
N18_3 N 0.3114(5) 0.5623(3) 0.77308(5)
Ni3_3 Ni 0.59427(5) 0.18854(4) 0.7500
O9_3 O 0.1850(4) 0.4520(3) 0.93344(4)
O10_3 O 0.1299(4) 0.3096(3) 0.90804(5)
O14_3 O 0.8743(5) 0.7315(3) 0.98849(5)
H52_3 H 0.9074 0.6930 0.9925
O15_3 O 0.8057(4) 0.5888(3) 0.96313(5)
O16_3 O 0.0607(4) 0.5949(3) 0.93762(5)
H54_3 H 0.0438 0.6509 0.9347
O17_3 O 0.1922(5) 0.7029(3) 0.75818(4)
H55_3 H 0.1706 0.7311 0.7478
H56_3 H 0.2155 0.7567 0.7681
C23_5 C 1.0000(8) 0.2880(6) 0.6666
H20_3 H 0.9426 0.3044 0.6739
H25_3 H 0.9962 0.4701 0.8979
C39_3 C 0.7011(6) 0.2618(4) 0.62539(6)
H42_3 H 0.6255 0.2534 0.6291
C40_3 C 0.7560(7) 0.2228(5) 0.63971(6)
H43_3 H 0.7187 0.1909 0.6528
C41_3 C 0.8669(6) 0.2304(4) 0.63478(8)
C42_3 C 0.9212(6) 0.2862(5) 0.61530(8)
H44_3 H 0.9976 0.2974 0.6114
C43_3 C 0.8598(6) 0.3239(5) 0.60208(7)
H45_3 H 0.8970 0.3607 0.5892
C44_3 C 0.9328(8) 0.1889(6) 0.65039(9)
H46_3 H 0.8734 0.1136 0.6575
H47_3 H 0.9903 0.1729 0.6427
N17_3 N 0.7491(4) 0.3114(3) 0.60641(5)
Ni5_3 Ni 0.65195(9) 0.34805(7) 0.5834
H53_3 H 0.9962 0.5261 0.9354
C8_4 C 0.0042(4) 0.2611(4) 0.03874(7)
H6_4 H 0.0002 0.2077 0.0503
C9_4 C 0.1308(4) 0.3170(4) 0.02801(7)
O5_4 O 0.1428(4) 0.2685(3) 0.01151(5)
H24_4 H 0.2144 0.3070 0.0075
O6_4 O 0.2169(3) 0.4112(3) 0.03687(5)
C1_4 C 0.9239(4) 0.5858(4) 0.03097(6)
C2_4 C 0.9243(4) 0.4728(4) 0.00141(6)
C3_4 C 0.9586(4) 0.4280(4) 0.03454(6)
C4_4 C 0.9296(4) 0.7160(4) 0.06042(6)
H1_4 H 0.9636 0.8004 0.0557
H2_4 H 0.9964 0.7065 0.0660
C5_4 C 0.8180(4) 0.6458(4) 0.07401(6)
H5_4 H 0.9414 0.2111 0.0284
C10_4 C 0.6061(4) 0.1810(4) 0.06755(7)
H7_4 H 0.5911 0.1570 0.0818
C11_4 C 0.6272(5) 0.1087(4) 0.05341(8)
H8_4 H 0.6262 0.0383 0.0583
C12_4 C 0.6496(4) 0.1404(4) 0.03211(7)
C13_4 C 0.6484(4) 0.2457(4) 0.02601(7)
H9_4 H 0.6621 0.2706 0.0118
C14_4 C 0.6271(4) 0.3135(4) 0.04069(7)
H10_4 H 0.6269 0.3837 0.0360
C15_4 C 0.6779(5) 0.0676(5) 0.01640(8)
H11_4 H 0.6910 0.0082 0.0242
H12_4 H 0.7536 0.1227 0.0090
C16_6 C 0.5767(5) -0.0000 0.0000
N1_4 N 0.9470(3) 0.5174(3) 0.04412(5)
N2_4 N 0.9088(3) 0.5654(3) 0.00910(5)
N3_4 N 0.9519(4) 0.4030(4) 0.01329(5)
N4_4 N 0.9163(3) 0.6809(3) 0.03782(5)
H21_4 H 0.9030 0.7241 0.0287
N6_4 N 0.9782(3) 0.3532(4) 0.04721(5)
H23_4 H 0.9752 0.3601 0.0609
N7_4 N 0.6062(3) 0.2836(3) 0.06176(5)
O1_4 O 0.7330(3) 0.5480(3) 0.06656(4)
O2_4 O 0.8203(3) 0.6904(3) 0.09196(5)
O7_4 O 0.4658(3) 0.4051(3) 0.06238(5)
H25_4 H 0.4701 0.4739 0.0646
H26_4 H 0.3929 0.3491 0.0653
C24_4 C 0.4142(4) 0.0761(4) 0.13570(6)
C25_4 C 0.5272(4) 0.0757(4) 0.16526(6)
C26_4 C 0.5720(4) 0.0414(4) 0.13213(6)
C27_4 C 0.2840(4) 0.0704(4) 0.10625(6)
H29_4 H 0.1996 0.0364 0.1110
H30_4 H 0.2935 0.0036 0.1007
C28_4 C 0.3542(4) 0.1820(4) 0.09266(6)
C29_4 C 0.6409(5) 0.0714(5) 0.19663(7)
H31_4 H 0.7096 0.0964 0.1869
C30_4 C 0.6861(4) 0.1445(4) 0.21710(6)
H33_4 H 0.7889 0.0586 0.1383
N9_4 N 0.4826(3) 0.0530(3) 0.12255(5)
N10_4 N 0.4346(3) 0.0912(3) 0.15757(5)
N11_4 N 0.5970(4) 0.0481(4) 0.15338(5)
N12_4 N 0.3191(3) 0.0837(3) 0.12885(5)
H49_4 H 0.2759 0.0970 0.1380
N13_4 N 0.5473(4) 0.0891(4) 0.18631(5)
H50_4 H 0.5032 0.1089 0.1941
N14_4 N 0.6468(4) 0.0218(3) 0.11946(5)
H51_4 H 0.6399 0.0248 0.1058
O9_4 O 0.4520(3) 0.2670(3) 0.10011(4)
O10_4 O 0.3096(3) 0.1797(3) 0.07471(5)
O11_2 O 0.6144(3) 0.1712(3) 0.22674(4)
O13_4 O 0.7924(3) 0.1721(4) 0.22339(6)
O16_4 O 0.5949(3) 0.5342(3) 0.10429(5)
H53_4 H 0.5261 0.5299 0.1021
H54_4 H 0.6509 0.6071 0.1014
C6_4 C 0.9286(5) 0.3591(5) 0.97004(7)
H3_4 H 0.9036 0.2904 0.9798
C7_4 C 0.8555(4) 0.3139(4) 0.94957(6)
C16_7 C 0.5767(5) -0.0000 1.0000
H13_4 H 0.5605 0.0586 0.9927
C17_4 C 0.5607(4) 0.2618(4) 0.87461(6)
H14_4 H 0.6279 0.2534 0.8709
C18_4 C 0.4668(5) 0.2228(5) 0.86029(6)
H15_4 H 0.4722 0.1909 0.8472
C19_4 C 0.3635(4) 0.2304(4) 0.86522(8)
C20_4 C 0.3650(4) 0.2862(5) 0.88470(8)
H16_4 H 0.2998 0.2974 0.8886
C21_4 C 0.4641(4) 0.3239(5) 0.89792(7)
H17_4 H 0.4637 0.3607 0.9108
C22_4 C 0.2561(6) 0.1889(6) 0.84961(9)
H18_4 H 0.2402 0.1136 0.8425
H19_4 H 0.1826 0.1729 0.8573
C23_6 C 0.2880(6) 0.2880(6) 0.8333
H20_4 H 0.3044 0.3618 0.8406
N5_4 N 0.9109(4) 0.4527(4) 0.98036(5)
H22_4 H 0.8911 0.4968 0.9726
N8_4 N 0.5623(3) 0.3114(3) 0.89359(5)
O3_4 O 0.8288(3) 0.3856(3) 0.93993(4)
O4_4 O 0.8279(4) 0.2076(3) 0.94328(6)
O8_4 O 0.7029(3) 0.1922(3) 0.90849(4)
H27_4 H 0.7311 0.1706 0.9189
H28_4 H 0.7567 0.2155 0.8986
C39_4 C 0.2618(4) 0.5607(4) 0.79206(6)
H42_4 H 0.2534 0.6279 0.7958
C40_4 C 0.2228(5) 0.4668(5) 0.80638(6)
H43_4 H 0.1909 0.4722 0.8195
C41_4 C 0.2304(4) 0.3635(4) 0.80145(8)
C42_4 C 0.2862(5) 0.3650(4) 0.78197(8)
H44_4 H 0.2974 0.2998 0.7781
C43_4 C 0.3239(5) 0.4641(4) 0.76875(7)
H45_4 H 0.3607 0.4637 0.7559
C44_4 C 0.1889(6) 0.2561(6) 0.81706(9)
H46_4 H 0.1136 0.2402 0.8242
H47_4 H 0.1729 0.1826 0.8094
H48_4 H 0.3618 0.3044 0.8261
O12_3 O 0.8288(3) 0.4432(4) 0.89340(4)
O17_4 O 0.7029(3) 0.5107(4) 0.92484(4)
H55_4 H 0.7311 0.5605 0.9144
H56_4 H 0.7567 0.5412 0.9347
C16_8 C 0.5767(5) 1.0000 0.0000
H32_4 H 0.6073 0.9848 0.1998
C31_4 C 0.7389(4) 0.9958(4) 0.12793(7)
H34_4 H 0.7923 0.9998 0.1164
C32_4 C 0.6830(4) 0.8692(4) 0.13866(7)
H41_4 H 0.5019 0.9414 0.0073
O14_4 O 0.7315(3) 0.8572(4) 0.15516(5)
H52_4 H 0.6930 0.7856 0.1592
O15_4 O 0.5888(3) 0.7831(3) 0.12980(5)
C16_9 C 0.5767(5) 1.0000 1.0000
C33_4 C 0.4251(6) 0.8190(4) 0.93245(7)
H35_4 H 0.4341 0.8430 0.9182
C34_4 C 0.5185(6) 0.8913(4) 0.94659(8)
H36_4 H 0.5879 0.9617 0.9417
C35_4 C 0.5092(6) 0.8596(4) 0.96789(7)
C36_4 C 0.4027(6) 0.7543(4) 0.97399(7)
H37_4 H 0.3915 0.7294 0.9882
C37_4 C 0.3136(6) 0.6865(4) 0.95931(7)
H38_4 H 0.2432 0.6163 0.9640
C38_4 C 0.6103(7) 0.9324(5) 0.98360(8)
H39_4 H 0.6828 0.9918 0.9758
H40_4 H 0.6309 0.8773 0.9910
C16_10 C 0.0000 0.5767(5) 0.6667
H32_5 H 0.0152 0.6225 0.8664
C31_5 C 0.0042(4) 0.7431(6) 0.79459(7)
H34_5 H 0.0002 0.7925 0.7830
C32_5 C 0.1308(4) 0.8138(6) 0.80532(7)
C33_5 C 0.1810(4) 0.6061(7) 0.59912(7)
H35_5 H 0.1570 0.5911 0.5849
C34_5 C 0.1087(4) 0.6272(7) 0.61326(8)
H36_5 H 0.0383 0.6262 0.6084
C35_5 C 0.1404(4) 0.6496(7) 0.63456(7)
C36_5 C 0.2457(4) 0.6484(7) 0.64066(7)
H37_5 H 0.2706 0.6621 0.6549
C37_5 C 0.3135(4) 0.6271(7) 0.62598(7)
H38_5 H 0.3837 0.6269 0.6307
C38_5 C 0.0676(5) 0.6779(9) 0.65027(8)
H39_5 H 0.0082 0.6910 0.6425
H40_5 H 0.1227 0.7536 0.6577
H41_5 H 0.0586 0.5605 0.6740
O14_5 O 0.1428(4) 0.8743(5) 0.82182(5)
H52_5 H 0.2144 0.9074 0.8258
O15_5 O 0.2169(3) 0.8057(4) 0.79646(5)
C1_5 C 0.4142(4) 0.3381(6) 0.69764(6)
C2_5 C 0.5272(4) 0.4515(6) 0.66808(6)
C3_5 C 0.5720(4) 0.5306(6) 0.70121(6)
C4_5 C 0.2840(4) 0.2136(6) 0.72709(6)
H1_5 H 0.1996 0.1632 0.7224
H2_5 H 0.2935 0.2899 0.7327
C5_5 C 0.3542(4) 0.1722(6) 0.74068(6)
C6_5 C 0.6409(5) 0.5695(7) 0.63671(7)
H3_5 H 0.7096 0.6132 0.6465
H4_4 H 0.6073 0.6225 0.6336
C7_5 C 0.6861(4) 0.5416(6) 0.61624(6)
C8_5 C 0.7389(4) 0.7431(6) 0.70541(7)
H5_5 H 0.7889 0.7303 0.6951
H6_5 H 0.7923 0.7925 0.7170
C9_5 C 0.6830(4) 0.8138(6) 0.69468(7)
C10_5 C 0.8190(4) 0.4251(6) 0.73422(7)
H7_5 H 0.8430 0.4341 0.7485
C11_5 C 0.8913(4) 0.5185(6) 0.72008(8)
H8_5 H 0.9617 0.5879 0.7250
C12_5 C 0.8596(4) 0.5092(6) 0.69878(7)
C13_5 C 0.7543(4) 0.4027(6) 0.69268(7)
H9_5 H 0.7294 0.3915 0.6785
C14_5 C 0.6865(4) 0.3136(6) 0.70736(7)
H10_5 H 0.6163 0.2432 0.7027
C15_5 C 0.9324(5) 0.6103(7) 0.68307(8)
H11_5 H 0.9918 0.6828 0.6909
H12_5 H 0.8773 0.6309 0.6757
C16_11 C 1.0000 0.5767(5) 0.6667
H13_5 H 0.9414 0.5019 0.6594
C17_5 C 0.7382(4) 0.2989(6) 0.54128(6)
H14_5 H 0.7466 0.3745 0.5376
C18_5 C 0.7772(5) 0.2440(7) 0.52696(6)
H15_5 H 0.8091 0.2813 0.5139
C19_5 C 0.7696(4) 0.1331(6) 0.53189(8)
C20_5 C 0.7138(5) 0.0788(6) 0.55137(8)
H16_5 H 0.7026 0.0024 0.5553
C21_5 C 0.6761(5) 0.1402(6) 0.56459(7)
H17_5 H 0.6393 0.1030 0.5775
C22_5 C 0.8111(6) 0.0672(8) 0.51628(9)
H18_5 H 0.8864 0.1266 0.5092
H19_5 H 0.8271 0.0097 0.5240
C23_7 C 0.7120(6) 0.0000(8) 0.5000
N1_5 N 0.4826(3) 0.4296(4) 0.71079(5)
N2_5 N 0.4346(3) 0.3434(4) 0.67577(5)
N3_5 N 0.5970(4) 0.5489(6) 0.67996(5)
N4_5 N 0.3191(3) 0.2354(4) 0.70449(5)
H21_5 H 0.2759 0.1789 0.6954
N5_5 N 0.5473(4) 0.4582(6) 0.64703(5)
H22_5 H 0.5032 0.3943 0.6393
N6_5 N 0.6468(4) 0.6250(5) 0.71388(5)
H23_5 H 0.6399 0.6151 0.7276
N7_5 N 0.7164(3) 0.3226(4) 0.72843(5)
N8_5 N 0.6886(3) 0.2509(4) 0.56026(5)
O1_5 O 0.4520(3) 0.1850(4) 0.73323(4)
O2_5 O 0.3096(3) 0.1299(4) 0.75863(5)
O3_5 O 0.6144(3) 0.4432(4) 0.60660(4)
O4_5 O 0.7924(3) 0.6203(5) 0.60995(6)
O5_5 O 0.7315(3) 0.8743(5) 0.67818(5)
H24_5 H 0.6930 0.9074 0.6742
O6_5 O 0.5888(3) 0.8057(4) 0.70354(5)
O7_5 O 0.5949(3) 0.0607(4) 0.72905(5)
H26_5 H 0.6509 0.0438 0.7320
O8_5 O 0.8078(3) 0.5107(4) 0.57516(4)
H27_5 H 0.8294 0.5605 0.5856
H28_5 H 0.7845 0.5412 0.5653
C24_5 C 0.9239(4) 0.3381(6) 0.80236(6)
C25_5 C 0.9243(4) 0.4515(6) 0.83192(6)
C26_5 C 0.9586(4) 0.5306(6) 0.79879(6)
C27_5 C 0.9296(4) 0.2136(6) 0.77291(6)
H29_5 H 0.9636 0.1632 0.7776
H30_5 H 0.9964 0.2899 0.7673
C28_5 C 0.8180(4) 0.1722(6) 0.75932(6)
C29_5 C 0.9286(5) 0.5695(7) 0.86329(7)
H31_5 H 0.9036 0.6132 0.8535
C30_5 C 0.8555(4) 0.5416(6) 0.88376(6)
H33_5 H 0.9414 0.7303 0.8049
H48_5 H 0.6956 0.0574 0.4927
N9_5 N 0.9470(3) 0.4296(4) 0.78921(5)
N10_5 N 0.9088(3) 0.3434(4) 0.82423(5)
N11_5 N 0.9519(4) 0.5489(6) 0.82004(5)
N12_5 N 0.9163(3) 0.2354(4) 0.79551(5)
H49_5 H 0.9030 0.1789 0.8046
N13_5 N 0.9109(4) 0.4582(6) 0.85297(5)
H50_5 H 0.8911 0.3943 0.8607
N14_5 N 0.9782(3) 0.6250(5) 0.78612(5)
H51_5 H 0.9752 0.6151 0.7724
O9_5 O 0.7330(3) 0.1850(4) 0.76677(4)
O10_5 O 0.8203(3) 0.1299(4) 0.74137(5)
O12_4 O 0.5568(4) 0.3856(5) 0.56007(4)
O13_5 O 0.8279(4) 0.6203(5) 0.89005(6)
O16_5 O 0.4658(3) 0.0607(4) 0.77095(5)
H54_5 H 0.3929 0.0438 0.7680
O17_5 O 0.4893(4) 0.1922(5) 0.59151(4)
H55_5 H 0.4395 0.1706 0.5811
H56_5 H 0.4588 0.2155 0.6014
C23_8 C 0.7120(6) 1.0000(8) 0.5000
H20_5 H 0.6382 0.9426 0.5073
H25_5 H 0.5261 0.9962 0.7313
C39_5 C 0.4393(4) 0.7011(6) 0.45872(6)
H42_5 H 0.3721 0.6255 0.4624
C40_5 C 0.5332(5) 0.7560(7) 0.47304(6)
H43_5 H 0.5278 0.7187 0.4861
C41_5 C 0.6365(4) 0.8669(6) 0.46811(8)
C42_5 C 0.6350(4) 0.9212(6) 0.44863(8)
H44_5 H 0.7002 0.9976 0.4447
C43_5 C 0.5359(4) 0.8598(6) 0.43541(7)
H45_5 H 0.5363 0.8970 0.4225
C44_5 C 0.7439(6) 0.9328(8) 0.48372(9)
H46_5 H 0.7598 0.8734 0.4908
H47_5 H 0.8174 0.9903 0.4760
H53_5 H 0.4701 0.9962 0.7687
C23_9 C 0.0000(8) 0.7120(6) 0.1666
H20_6 H 0.0574 0.6956 0.1739
H25_6 H 0.0038 0.5299 0.3979
C39_6 C 0.2989(6) 0.7382(4) 0.12539(6)
H42_6 H 0.3745 0.7466 0.1291
C40_6 C 0.2440(7) 0.7772(5) 0.13971(6)
H43_6 H 0.2813 0.8091 0.1528
C41_6 C 0.1331(6) 0.7696(4) 0.13478(8)
C42_6 C 0.0788(6) 0.7138(5) 0.11530(8)
H44_6 H 0.0024 0.7026 0.1114
C43_6 C 0.1402(6) 0.6761(5) 0.10208(7)
H45_6 H 0.1030 0.6393 0.0892
C44_6 C 0.0672(8) 0.8111(6) 0.15039(9)
H46_6 H 0.1266 0.8864 0.1575
H47_6 H 0.0097 0.8271 0.1427
H53_6 H 0.0038 0.4739 0.4354
C1_6 C 0.6619(6) 0.0761(4) 0.36430(6)
C2_6 C 0.5485(6) 0.0757(4) 0.33474(6)
C3_6 C 0.4694(6) 0.0414(4) 0.36787(6)
C4_6 C 0.7864(6) 0.0704(4) 0.39375(6)
H1_6 H 0.8368 0.0364 0.3890
H2_6 H 0.7101 0.0036 0.3993
C5_6 C 0.8278(6) 0.1820(4) 0.40734(6)
C6_6 C 0.4305(7) 0.0714(5) 0.30337(7)
H3_6 H 0.3868 0.0964 0.3131
C7_6 C 0.4584(6) 0.1445(4) 0.28290(6)
H5_6 H 0.2697 0.0586 0.3617
C10_6 C 0.5749(6) 0.3939(4) 0.40088(7)
H7_6 H 0.5659 0.4089 0.4151
C11_6 C 0.4815(6) 0.3728(5) 0.38674(8)
H8_6 H 0.4121 0.3738 0.3916
C12_6 C 0.4908(6) 0.3504(4) 0.36544(7)
C13_6 C 0.5973(6) 0.3516(4) 0.35934(7)
H9_6 H 0.6085 0.3379 0.3451
C14_6 C 0.6864(6) 0.3729(4) 0.37402(7)
H10_6 H 0.7568 0.3731 0.3693
C15_6 C 0.3897(7) 0.3221(5) 0.34973(8)
H11_6 H 0.3172 0.3090 0.3575
H12_6 H 0.3691 0.2464 0.3423
C16_12 C 0.4233(5) 0.4233(5) 0.3333
H13_6 H 0.4981 0.4395 0.3260
C17_6 C 0.7011(6) 0.4393(4) 0.20794(6)
H14_6 H 0.6255 0.3721 0.2042
C18_6 C 0.7560(7) 0.5332(5) 0.19362(6)
H15_6 H 0.7187 0.5278 0.1805
C19_6 C 0.8669(6) 0.6365(4) 0.19855(8)
C20_6 C 0.9212(6) 0.6350(4) 0.21803(8)
H16_6 H 0.9976 0.7002 0.2219
C21_6 C 0.8598(6) 0.5359(4) 0.23125(7)
H17_6 H 0.8970 0.5363 0.2441
C22_6 C 0.9328(8) 0.7439(6) 0.18294(9)
H18_6 H 0.8734 0.7598 0.1758
H19_6 H 0.9903 0.8174 0.1906
C23_10 C 1.0000(8) 0.7120(6) 0.1666
N1_6 N 0.5704(4) 0.0530(3) 0.37745(5)
N2_6 N 0.6566(4) 0.0912(3) 0.34243(5)
N3_6 N 0.4511(6) 0.0481(4) 0.34662(5)
N4_6 N 0.7646(4) 0.0837(3) 0.37115(5)
H21_6 H 0.8211 0.0970 0.3620
N5_6 N 0.5418(6) 0.0891(4) 0.31369(5)
H22_6 H 0.6057 0.1089 0.3059
N6_6 N 0.3750(5) 0.0218(3) 0.38054(5)
H23_6 H 0.3849 0.0248 0.3942
N7_6 N 0.6774(4) 0.3938(3) 0.39509(5)
N8_6 N 0.7491(4) 0.4377(3) 0.22692(5)
O1_6 O 0.8150(4) 0.2670(3) 0.39989(4)
O2_6 O 0.8701(4) 0.1797(3) 0.42529(5)
O3_6 O 0.5568(4) 0.1712(3) 0.27326(4)
O4_6 O 0.3797(5) 0.1721(4) 0.27661(6)
O7_6 O 0.9393(4) 0.5342(3) 0.39571(5)
H26_6 H 0.9562 0.6071 0.3986
O8_6 O 0.4893(4) 0.2971(3) 0.24182(4)
H27_6 H 0.4395 0.2689 0.2522
H28_6 H 0.4588 0.2433 0.2319
C24_6 C 0.6619(6) 0.5858(4) 0.46903(6)
C25_6 C 0.5485(6) 0.4728(4) 0.49859(6)
C26_6 C 0.4694(6) 0.4280(4) 0.46546(6)
C27_6 C 0.7864(6) 0.7160(4) 0.43958(6)
H29_6 H 0.8368 0.8004 0.4443
H30_6 H 0.7101 0.7065 0.4340
C28_6 C 0.8278(6) 0.6458(4) 0.42599(6)
C29_6 C 0.4305(7) 0.3591(5) 0.52996(7)
H31_6 H 0.3868 0.2904 0.5202
H32_6 H 0.3775 0.3927 0.5331
C30_6 C 0.4584(6) 0.3139(4) 0.55043(6)
C31_6 C 0.2569(6) 0.2611(4) 0.46126(7)
H33_6 H 0.2697 0.2111 0.4716
H34_6 H 0.2075 0.2077 0.4497
C32_6 C 0.1862(6) 0.3170(4) 0.47199(7)
C33_6 C 0.3939(7) 0.5749(6) 0.26578(7)
H35_6 H 0.4089 0.5659 0.2515
C34_6 C 0.3728(7) 0.4815(6) 0.27992(8)
H36_6 H 0.3738 0.4121 0.2750
C35_6 C 0.3504(7) 0.4908(6) 0.30122(7)
C36_6 C 0.3516(7) 0.5973(6) 0.30732(7)
H37_6 H 0.3379 0.6085 0.3215
C37_6 C 0.3729(7) 0.6864(6) 0.29264(7)
H38_6 H 0.3731 0.7568 0.2973
C38_6 C 0.3221(9) 0.3897(7) 0.31693(8)
H39_6 H 0.3090 0.3172 0.3091
H40_6 H 0.2464 0.3691 0.3243
H41_6 H 0.4395 0.4981 0.3406
H48_6 H 0.9426 0.6382 0.1594
N9_6 N 0.5704(4) 0.5174(3) 0.45588(5)
N10_6 N 0.6566(4) 0.5654(3) 0.49090(5)
N11_6 N 0.4511(6) 0.4030(4) 0.48671(5)
N12_6 N 0.7646(4) 0.6809(3) 0.46218(5)
H49_6 H 0.8211 0.7241 0.4713
N13_6 N 0.5418(6) 0.4527(4) 0.51964(5)
H50_6 H 0.6057 0.4968 0.5274
N14_6 N 0.3750(5) 0.3532(4) 0.45279(5)
H51_6 H 0.3849 0.3601 0.4391
O9_6 O 0.8150(4) 0.5480(3) 0.43344(4)
O10_6 O 0.8701(4) 0.6904(3) 0.40804(5)
O13_6 O 0.3797(5) 0.2076(3) 0.55672(6)
O14_6 O 0.1257(5) 0.2685(3) 0.48849(5)
H52_6 H 0.0926 0.3070 0.4925
O15_6 O 0.1943(4) 0.4112(3) 0.46313(5)
O16_6 O 0.9393(4) 0.4051(3) 0.43762(5)
H54_6 H 0.9562 0.3491 0.4347
O17_6 O 0.8078(5) 0.2971(3) 0.25818(4)
H55_6 H 0.8294 0.2689 0.2478
H56_6 H 0.7845 0.2433 0.2681
H4_5 H 0.3775 0.9848 0.3002
C8_6 C 0.2569(6) 0.9958(4) 0.37207(7)
H6_6 H 0.2075 0.9998 0.3836
C9_6 C 0.1862(6) 0.8692(4) 0.36134(7)
O5_6 O 0.1257(5) 0.8572(4) 0.34484(5)
H24_6 H 0.0926 0.7856 0.3408
O6_6 O 0.1943(4) 0.7831(3) 0.37020(5)
C23_11 C 0.2880(6) -0.0000(8) 0.0000
C23_12 C 0.2880(6) 1.0000(8) 0.0000
H4_6 H 0.0152 0.3927 0.9669
loop_
_geom_bond_atom_site_label_1
_geom_bond_atom_site_label_2
_geom_bond_site_symmetry_1
_geom_bond_site_symmetry_2
H34 C31 1_555 1_555
C32 C31 1_555 1_555
C33 H35 1_555 1_555
C34 C33 1_555 1_555
H36 C34 1_555 1_555
C35 C34 1_555 1_555
C36 C35 1_555 1_555
H37 C36 1_555 1_555
C37 C36 1_555 1_555
H38 C37 1_555 1_555
C38 C16 1_555 1_555
H39 C38 1_555 1_555
H40 C38 1_555 1_555
H41 C16 1_555 1_555
N15 C33 1_555 1_555
Ni3 N15 1_555 1_555
O14 C32 1_555 1_555
H52 O14 1_555 1_555
O15 C32 1_555 1_555
C35 C38 1_555 1_555
C37 N15 1_555 1_555
C1 N1 1_555 1_555
C2 N2 1_555 1_555
C3 N1 1_555 1_555
C4 H1 1_555 1_555
H2 C4 1_555 1_555
C5 C4 1_555 1_555
C6 H3 1_555 1_555
C7 C6 1_555 1_555
C10 H7 1_555 1_555
C11 C10 1_555 1_555
H8 C11 1_555 1_555
C12 C11 1_555 1_555
C13 C12 1_555 1_555
H9 C13 1_555 1_555
C14 C13 1_555 1_555
H10 C14 1_555 1_555
C15 C12 1_555 1_555
H11 C15 1_555 1_555
H12 C15 1_555 1_555
C16_2 C15 1_555 1_555
H13 C16_2 1_555 1_555
C17 H14 1_555 1_555
C18 C17 1_555 1_555
H15 C18 1_555 1_555
C19 C18 1_555 1_555
C20 C19 1_555 1_555
H16 C20 1_555 1_555
C21 C20 1_555 1_555
H17 C21 1_555 1_555
C22 C19 1_555 1_555
H18 C22 1_555 1_555
H19 C22 1_555 1_555
C23 C22 1_555 1_555
H20 C23 1_555 1_555
N2 C1 1_555 1_555
N3 C2 1_555 1_555
N4 C1 1_555 1_555
H21 N4 1_555 1_555
N5 C2 1_555 1_555
H22 N5 1_555 1_555
N6 C3 1_555 1_555
H23 N6 1_555 1_555
N7 C10 1_555 1_555
N8 C17 1_555 1_555
Ni1 N7 1_555 1_555
Ni2 N8 1_555 1_555
O1 C5 1_555 1_555
O2 C5 1_555 1_555
O3 C7 1_555 1_555
O4 C7 1_555 1_555
O7 Ni1 1_555 1_555
H25 O7 1_555 1_555
H26 O7 1_555 1_555
O8 Ni2 1_555 1_555
H27 O8 1_555 1_555
H28 O8 1_555 1_555
C24 N9 1_555 1_555
C25 N10 1_555 1_555
C26 N9 1_555 1_555
C27 H29 1_555 1_555
H30 C27 1_555 1_555
C28 C27 1_555 1_555
C29 H31 1_555 1_555
C30 C29 1_555 1_555
C39 H42 1_555 1_555
C40 C39 1_555 1_555
H43 C40 1_555 1_555
C41 C40 1_555 1_555
C42 C41 1_555 1_555
H44 C42 1_555 1_555
C43 C42 1_555 1_555
H45 C43 1_555 1_555
C44 C23 1_555 1_555
H46 C44 1_555 1_555
H47 C44 1_555 1_555
H48 C23 1_555 1_555
N10 C24 1_555 1_555
N11 C25 1_555 1_555
N12 C24 1_555 1_555
H49 N12 1_555 1_555
N13 C25 1_555 1_555
H50 N13 1_555 1_555
N14 C26 1_555 1_555
H51 N14 1_555 1_555
N16 Ni1 1_555 1_555
N17 C39 1_555 1_555
N18 Ni2 1_555 1_555
Ni4 O11 1_555 1_555
Ni5 N17 1_555 1_555
O9 Ni1 1_555 1_555
O10 C28 1_555 1_555
O11 C30 1_555 1_555
O12 Ni2 1_555 1_555
O13 C30 1_555 1_555
O16 Ni1 1_555 1_555
H53 O16 1_555 1_555
H54 O16 1_555 1_555
O17 Ni2 1_555 1_555
H55 O17 1_555 1_555
H56 O17 1_555 1_555
C3 N3 1_555 1_555
C4 N4 1_555 1_555
C6 N5 1_555 1_555
C14 N7 1_555 1_555
C21 N8 1_555 1_555
Ni1 O1 1_555 1_555
Ni2 O3 1_555 1_555
C26 N11 1_555 1_555
C27 N12 1_555 1_555
C28 O9 1_555 1_555
C29 N13 1_555 1_555
C41 C44 1_555 1_555
C43 N17 1_555 1_555
H6 C8 1_555 1_555
C9 C8 1_555 1_555
O5 C9 1_555 1_555
H24 O5 1_555 1_555
O6 C9 1_555 1_555
C39_2 H42_2 1_555 1_555
C40_2 C39_2 1_555 1_555
H43_2 C40_2 1_555 1_555
C41_2 C40_2 1_555 1_555
C42_2 C41_2 1_555 1_555
H44_2 C42_2 1_555 1_555
C43_2 C42_2 1_555 1_555
H45_2 C43_2 1_555 1_555
C44_2 C23_2 1_555 1_555
H46_2 C44_2 1_555 1_555
H47_2 C44_2 1_555 1_555
N17_2 C39_2 1_555 1_555
Ni5_2 N17_2 1_555 1_555
C41_2 C44_2 1_555 1_555
C43_2 N17_2 1_555 1_555
C1_2 N1_2 1_555 1_555
C2_2 N2_2 1_555 1_555
C3_2 N1_2 1_555 1_555
C4_2 H1_2 1_555 1_555
H2_2 C4_2 1_555 1_555
C5_2 C4_2 1_555 1_555
C6_2 H3_2 1_555 1_555
H4_2 C6_2 1_555 1_555
C7_2 C6_2 1_555 1_555
C8_2 H5_2 1_555 1_555
H6_2 C8_2 1_555 1_555
C9_2 C8_2 1_555 1_555
C10_2 H7_2 1_555 1_555
C11_2 C10_2 1_555 1_555
H8_2 C11_2 1_555 1_555
C12_2 C11_2 1_555 1_555
C13_2 C12_2 1_555 1_555
H9_2 C13_2 1_555 1_555
C14_2 C13_2 1_555 1_555
H10_2 C14_2 1_555 1_555
C15_2 C12_2 1_555 1_555
H11_2 C15_2 1_555 1_555
H12_2 C15_2 1_555 1_555
C16_3 C15_2 1_555 1_555
H13_2 C16_3 1_555 1_555
C17_2 H14_2 1_555 1_555
C18_2 C17_2 1_555 1_555
H15_2 C18_2 1_555 1_555
C19_2 C18_2 1_555 1_555
C20_2 C19_2 1_555 1_555
H16_2 C20_2 1_555 1_555
C21_2 C20_2 1_555 1_555
H17_2 C21_2 1_555 1_555
C22_2 C19_2 1_555 1_555
H18_2 C22_2 1_555 1_555
H19_2 C22_2 1_555 1_555
N2_2 C1_2 1_555 1_555
N3_2 C2_2 1_555 1_555
N4_2 C1_2 1_555 1_555
H21_2 N4_2 1_555 1_555
N5_2 C2_2 1_555 1_555
H22_2 N5_2 1_555 1_555
N6_2 C3_2 1_555 1_555
H23_2 N6_2 1_555 1_555
N7_2 C10_2 1_555 1_555
N8_2 C17_2 1_555 1_555
Ni1_2 N7_2 1_555 1_555
Ni2_2 N8_2 1_555 1_555
O1_2 C5_2 1_555 1_555
O2_2 C5_2 1_555 1_555
O3_2 C7_2 1_555 1_555
O4_2 C7_2 1_555 1_555
O5_2 C9_2 1_555 1_555
H24_2 O5_2 1_555 1_555
O6_2 C9_2 1_555 1_555
O7_2 Ni1_2 1_555 1_555
H26_2 O7_2 1_555 1_555
O8_2 Ni2_2 1_555 1_555
H27_2 O8_2 1_555 1_555
H28_2 O8_2 1_555 1_555
C24_2 N9_2 1_555 1_555
C25_2 N10_2 1_555 1_555
C26_2 N9_2 1_555 1_555
C27_2 H29_2 1_555 1_555
H30_2 C27_2 1_555 1_555
C28_2 C27_2 1_555 1_555
C29_2 H31_2 1_555 1_555
C30_2 C29_2 1_555 1_555
N10_2 C24_2 1_555 1_555
N11_2 C25_2 1_555 1_555
N12_2 C24_2 1_555 1_555
H49_2 N12_2 1_555 1_555
N13_2 C25_2 1_555 1_555
H50_2 N13_2 1_555 1_555
N14_2 C26_2 1_555 1_555
H51_2 N14_2 1_555 1_555
N16_2 Ni1_2 1_555 1_555
N18_2 Ni2_2 1_555 1_555
O9_2 Ni1_2 1_555 1_555
O10_2 C28_2 1_555 1_555
O12 C30_2 1_555 1_555
O12_2 Ni2_2 1_555 1_555
O13_2 C30_2 1_555 1_555
O16_2 Ni1_2 1_555 1_555
H54_2 O16_2 1_555 1_555
O17_2 Ni2_2 1_555 1_555
H55_2 O17_2 1_555 1_555
H56_2 O17_2 1_555 1_555
C3_2 N3_2 1_555 1_555
C4_2 N4_2 1_555 1_555
C6_2 N5_2 1_555 1_555
C8_2 N6_2 1_555 1_555
C14_2 N7_2 1_555 1_555
C21_2 N8_2 1_555 1_555
Ni1_2 O1_2 1_555 1_555
Ni2_2 O3_2 1_555 1_555
C26_2 N11_2 1_555 1_555
C27_2 N12_2 1_555 1_555
C28_2 O9_2 1_555 1_555
C29_2 N13_2 1_555 1_555
H48_2 C23_3 1_555 1_555
H34_2 C31_2 1_555 1_555
C32_2 C31_2 1_555 1_555
C33_2 H35_2 1_555 1_555
C34_2 C33_2 1_555 1_555
H36_2 C34_2 1_555 1_555
C35_2 C34_2 1_555 1_555
C36_2 C35_2 1_555 1_555
H37_2 C36_2 1_555 1_555
C37_2 C36_2 1_555 1_555
H38_2 C37_2 1_555 1_555
C38_2 C16_4 1_555 1_555
H39_2 C38_2 1_555 1_555
H40_2 C38_2 1_555 1_555
H41_2 C16_4 1_555 1_555
N15_2 C33_2 1_555 1_555
Ni3_2 N15_2 1_555 1_555
O14_2 C32_2 1_555 1_555
H52_2 O14_2 1_555 1_555
O15_2 C32_2 1_555 1_555
C35_2 C38_2 1_555 1_555
C37_2 N15_2 1_555 1_555
H6_3 C8_3 1_555 1_555
C9_3 C8_3 1_555 1_555
O5_3 C9_3 1_555 1_555
H24_3 O5_3 1_555 1_555
O6_3 C9_3 1_555 1_555
C29_3 H31_3 1_555 1_555
H32_3 C29_3 1_555 1_555
C30_3 C29_3 1_555 1_555
H50_3 N13_3 1_555 1_555
O12_2 C30_3 1_555 1_555
O13_3 C30_3 1_555 1_555
C29_3 N13_3 1_555 1_555
C1_3 N1_3 1_555 1_555
C2_3 N2_3 1_555 1_555
C3_3 N1_3 1_555 1_555
C4_3 H1_3 1_555 1_555
H2_3 C4_3 1_555 1_555
C5_3 C4_3 1_555 1_555
C6_3 H3_3 1_555 1_555
C7_3 C6_3 1_555 1_555
C10_3 H7_3 1_555 1_555
C11_3 C10_3 1_555 1_555
H8_3 C11_3 1_555 1_555
C12_3 C11_3 1_555 1_555
C13_3 C12_3 1_555 1_555
H9_3 C13_3 1_555 1_555
C14_3 C13_3 1_555 1_555
H10_3 C14_3 1_555 1_555
C15_3 C12_3 1_555 1_555
H11_3 C15_3 1_555 1_555
H12_3 C15_3 1_555 1_555
C16_5 C15_3 1_555 1_555
H13_3 C16_5 1_555 1_555
C17_3 H14_3 1_555 1_555
C18_3 C17_3 1_555 1_555
H15_3 C18_3 1_555 1_555
C19_3 C18_3 1_555 1_555
C20_3 C19_3 1_555 1_555
H16_3 C20_3 1_555 1_555
C21_3 C20_3 1_555 1_555
H17_3 C21_3 1_555 1_555
C22_3 C19_3 1_555 1_555
H18_3 C22_3 1_555 1_555
H19_3 C22_3 1_555 1_555
C23_4 C22_3 1_555 1_555
N2_3 C1_3 1_555 1_555
N3_3 C2_3 1_555 1_555
N4_3 C1_3 1_555 1_555
H21_3 N4_3 1_555 1_555
N5_3 C2_3 1_555 1_555
H22_3 N5_3 1_555 1_555
N6_3 C3_3 1_555 1_555
H23_3 N6_3 1_555 1_555
N7_3 C10_3 1_555 1_555
N8_3 C17_3 1_555 1_555
Ni1_3 N7_3 1_555 1_555
Ni4 N8_3 1_555 1_555
O1_3 C5_3 1_555 1_555
O2_3 C5_3 1_555 1_555
O3_3 C7_3 1_555 1_555
O4_3 C7_3 1_555 1_555
O7_3 Ni1_3 1_555 1_555
H26_3 O7_3 1_555 1_555
O8_3 Ni4 1_555 1_555
H27_3 O8_3 1_555 1_555
H28_3 O8_3 1_555 1_555
C24_3 N9_3 1_555 1_555
C25_3 N10_3 1_555 1_555
C26_3 N9_3 1_555 1_555
C27_3 H29_3 1_555 1_555
H30_3 C27_3 1_555 1_555
C28_3 C27_3 1_555 1_555
C31_3 H33_3 1_555 1_555
H34_3 C31_3 1_555 1_555
C32_3 C31_3 1_555 1_555
C33_3 H35_3 1_555 1_555
C34_3 C33_3 1_555 1_555
H36_3 C34_3 1_555 1_555
C35_3 C34_3 1_555 1_555
C36_3 C35_3 1_555 1_555
H37_3 C36_3 1_555 1_555
C37_3 C36_3 1_555 1_555
H38_3 C37_3 1_555 1_555
C38_3 C16_5 1_555 1_555
H39_3 C38_3 1_555 1_555
H40_3 C38_3 1_555 1_555
H41_3 C16_5 1_555 1_555
H48_3 C23_4 1_555 1_555
N10_3 C24_3 1_555 1_555
N11_3 C25_3 1_555 1_555
N12_3 C24_3 1_555 1_555
H49_3 N12_3 1_555 1_555
N14_3 C26_3 1_555 1_555
H51_3 N14_3 1_555 1_555
N15_3 C33_3 1_555 1_555
N16_3 Ni1_3 1_555 1_555
N18_3 Ni4 1_555 1_555
Ni3_3 N15_3 1_555 1_555
O9_3 Ni1_3 1_555 1_555
O10_3 C28_3 1_555 1_555
O14_3 C32_3 1_555 1_555
H52_3 O14_3 1_555 1_555
O15_3 C32_3 1_555 1_555
O16_3 Ni1_3 1_555 1_555
H54_3 O16_3 1_555 1_555
O17_3 Ni4 1_555 1_555
H55_3 O17_3 1_555 1_555
H56_3 O17_3 1_555 1_555
C3_3 N3_3 1_555 1_555
C4_3 N4_3 1_555 1_555
C6_3 N5_3 1_555 1_555
C14_3 N7_3 1_555 1_555
C21_3 N8_3 1_555 1_555
Ni1_3 O1_3 1_555 1_555
Ni4 O3_3 1_555 1_555
C26_3 N11_3 1_555 1_555
C27_3 N12_3 1_555 1_555
C28_3 O9_3 1_555 1_555
C31_3 N14_3 1_555 1_555
C35_3 C38_3 1_555 1_555
C37_3 N15_3 1_555 1_555
H20_3 C23_5 1_555 1_555
C39_3 H42_3 1_555 1_555
C40_3 C39_3 1_555 1_555
H43_3 C40_3 1_555 1_555
C41_3 C40_3 1_555 1_555
C42_3 C41_3 1_555 1_555
H44_3 C42_3 1_555 1_555
C43_3 C42_3 1_555 1_555
H45_3 C43_3 1_555 1_555
C44_3 C23_5 1_555 1_555
H46_3 C44_3 1_555 1_555
H47_3 C44_3 1_555 1_555
N17_3 C39_3 1_555 1_555
Ni5_3 N17_3 1_555 1_555
C41_3 C44_3 1_555 1_555
C43_3 N17_3 1_555 1_555
H6_4 C8_4 1_555 1_555
C9_4 C8_4 1_555 1_555
O5_4 C9_4 1_555 1_555
H24_4 O5_4 1_555 1_555
O6_4 C9_4 1_555 1_555
C1_4 N1_4 1_555 1_555
C2_4 N2_4 1_555 1_555
C3_4 N1_4 1_555 1_555
C4_4 H1_4 1_555 1_555
H2_4 C4_4 1_555 1_555
C5_4 C4_4 1_555 1_555
C10_4 H7_4 1_555 1_555
C11_4 C10_4 1_555 1_555
H8_4 C11_4 1_555 1_555
C12_4 C11_4 1_555 1_555
C13_4 C12_4 1_555 1_555
H9_4 C13_4 1_555 1_555
C14_4 C13_4 1_555 1_555
H10_4 C14_4 1_555 1_555
C15_4 C12_4 1_555 1_555
H11_4 C15_4 1_555 1_555
H12_4 C15_4 1_555 1_555
C16_6 C15_4 1_555 1_555
N2_4 C1_4 1_555 1_555
N3_4 C2_4 1_555 1_555
N4_4 C1_4 1_555 1_555
H21_4 N4_4 1_555 1_555
N6_4 C3_4 1_555 1_555
H23_4 N6_4 1_555 1_555
N7_4 C10_4 1_555 1_555
Ni3_2 N7_4 1_555 1_555
O1_4 C5_4 1_555 1_555
O2_4 C5_4 1_555 1_555
O7_4 Ni3_2 1_555 1_555
H25_4 O7_4 1_555 1_555
H26_4 O7_4 1_555 1_555
C24_4 N9_4 1_555 1_555
C25_4 N10_4 1_555 1_555
C26_4 N9_4 1_555 1_555
C27_4 H29_4 1_555 1_555
H30_4 C27_4 1_555 1_555
C28_4 C27_4 1_555 1_555
C29_4 H31_4 1_555 1_555
C30_4 C29_4 1_555 1_555
N10_4 C24_4 1_555 1_555
N11_4 C25_4 1_555 1_555
N12_4 C24_4 1_555 1_555
H49_4 N12_4 1_555 1_555
N13_4 C25_4 1_555 1_555
H50_4 N13_4 1_555 1_555
N14_4 C26_4 1_555 1_555
H51_4 N14_4 1_555 1_555
Ni5 O11_2 1_555 1_555
O9_4 Ni3_2 1_555 1_555
O10_4 C28_4 1_555 1_555
O11_2 C30_4 1_555 1_555
O13_4 C30_4 1_555 1_555
O16_4 Ni3_2 1_555 1_555
H53_4 O16_4 1_555 1_555
H54_4 O16_4 1_555 1_555
C3_4 N3_4 1_555 1_555
C4_4 N4_4 1_555 1_555
C14_4 N7_4 1_555 1_555
Ni3_2 O1_4 1_555 1_555
C26_4 N11_4 1_555 1_555
C27_4 N12_4 1_555 1_555
C28_4 O9_4 1_555 1_555
C29_4 N13_4 1_555 1_555
C6_4 H3_4 1_555 1_555
C7_4 C6_4 1_555 1_555
H13_4 C16_7 1_555 1_555
C17_4 H14_4 1_555 1_555
C18_4 C17_4 1_555 1_555
H15_4 C18_4 1_555 1_555
C19_4 C18_4 1_555 1_555
C20_4 C19_4 1_555 1_555
H16_4 C20_4 1_555 1_555
C21_4 C20_4 1_555 1_555
H17_4 C21_4 1_555 1_555
C22_4 C19_4 1_555 1_555
H18_4 C22_4 1_555 1_555
H19_4 C22_4 1_555 1_555
C23_6 C22_4 1_555 1_555
H20_4 C23_6 1_555 1_555
H22_4 N5_4 1_555 1_555
N8_4 C17_4 1_555 1_555
Ni5_2 N8_4 1_555 1_555
O3_4 C7_4 1_555 1_555
O4_4 C7_4 1_555 1_555
O8_4 Ni5_2 1_555 1_555
H27_4 O8_4 1_555 1_555
H28_4 O8_4 1_555 1_555
C39_4 H42_4 1_555 1_555
C40_4 C39_4 1_555 1_555
H43_4 C40_4 1_555 1_555
C41_4 C40_4 1_555 1_555
C42_4 C41_4 1_555 1_555
H44_4 C42_4 1_555 1_555
C43_4 C42_4 1_555 1_555
H45_4 C43_4 1_555 1_555
C44_4 C23_6 1_555 1_555
H46_4 C44_4 1_555 1_555
H47_4 C44_4 1_555 1_555
H48_4 C23_6 1_555 1_555
N18_3 C39_4 1_555 1_555
O12_3 Ni5_2 1_555 1_555
O17_4 Ni5_2 1_555 1_555
H55_4 O17_4 1_555 1_555
H56_4 O17_4 1_555 1_555
C6_4 N5_4 1_555 1_555
C21_4 N8_4 1_555 1_555
Ni5_2 O3_4 1_555 1_555
C41_4 C44_4 1_555 1_555
C43_4 N18_3 1_555 1_555
H34_4 C31_4 1_555 1_555
C32_4 C31_4 1_555 1_555
H41_4 C16_8 1_555 1_555
O14_4 C32_4 1_555 1_555
H52_4 O14_4 1_555 1_555
O15_4 C32_4 1_555 1_555
C33_4 H35_4 1_555 1_555
C34_4 C33_4 1_555 1_555
H36_4 C34_4 1_555 1_555
C35_4 C34_4 1_555 1_555
C36_4 C35_4 1_555 1_555
H37_4 C36_4 1_555 1_555
C37_4 C36_4 1_555 1_555
H38_4 C37_4 1_555 1_555
C38_4 C16_9 1_555 1_555
H39_4 C38_4 1_555 1_555
H40_4 C38_4 1_555 1_555
N16_3 C33_4 1_555 1_555
C35_4 C38_4 1_555 1_555
C37_4 N16_3 1_555 1_555
H34_5 C31_5 1_555 1_555
C32_5 C31_5 1_555 1_555
C33_5 H35_5 1_555 1_555
C34_5 C33_5 1_555 1_555
H36_5 C34_5 1_555 1_555
C35_5 C34_5 1_555 1_555
C36_5 C35_5 1_555 1_555
H37_5 C36_5 1_555 1_555
C37_5 C36_5 1_555 1_555
H38_5 C37_5 1_555 1_555
C38_5 C16_10 1_555 1_555
H39_5 C38_5 1_555 1_555
H40_5 C38_5 1_555 1_555
H41_5 C16_10 1_555 1_555
N16 C33_5 1_555 1_555
O14_5 C32_5 1_555 1_555
H52_5 O14_5 1_555 1_555
O15_5 C32_5 1_555 1_555
C35_5 C38_5 1_555 1_555
C37_5 N16 1_555 1_555
C1_5 N1_5 1_555 1_555
C2_5 N2_5 1_555 1_555
C3_5 N1_5 1_555 1_555
C4_5 H1_5 1_555 1_555
H2_5 C4_5 1_555 1_555
C5_5 C4_5 1_555 1_555
C6_5 H3_5 1_555 1_555
H4_4 C6_5 1_555 1_555
C7_5 C6_5 1_555 1_555
C8_5 H5_5 1_555 1_555
H6_5 C8_5 1_555 1_555
C9_5 C8_5 1_555 1_555
C10_5 H7_5 1_555 1_555
C11_5 C10_5 1_555 1_555
H8_5 C11_5 1_555 1_555
C12_5 C11_5 1_555 1_555
C13_5 C12_5 1_555 1_555
H9_5 C13_5 1_555 1_555
C14_5 C13_5 1_555 1_555
H10_5 C14_5 1_555 1_555
C15_5 C12_5 1_555 1_555
H11_5 C15_5 1_555 1_555
H12_5 C15_5 1_555 1_555
C16_11 C15_5 1_555 1_555
H13_5 C16_11 1_555 1_555
C17_5 H14_5 1_555 1_555
C18_5 C17_5 1_555 1_555
H15_5 C18_5 1_555 1_555
C19_5 C18_5 1_555 1_555
C20_5 C19_5 1_555 1_555
H16_5 C20_5 1_555 1_555
C21_5 C20_5 1_555 1_555
H17_5 C21_5 1_555 1_555
C22_5 C19_5 1_555 1_555
H18_5 C22_5 1_555 1_555
H19_5 C22_5 1_555 1_555
C23_7 C22_5 1_555 1_555
N2_5 C1_5 1_555 1_555
N3_5 C2_5 1_555 1_555
N4_5 C1_5 1_555 1_555
H21_5 N4_5 1_555 1_555
N5_5 C2_5 1_555 1_555
H22_5 N5_5 1_555 1_555
N6_5 C3_5 1_555 1_555
H23_5 N6_5 1_555 1_555
N7_5 C10_5 1_555 1_555
N8_5 C17_5 1_555 1_555
Ni3_3 N7_5 1_555 1_555
Ni5_3 N8_5 1_555 1_555
O1_5 C5_5 1_555 1_555
O2_5 C5_5 1_555 1_555
O3_5 C7_5 1_555 1_555
O4_5 C7_5 1_555 1_555
O5_5 C9_5 1_555 1_555
H24_5 O5_5 1_555 1_555
O6_5 C9_5 1_555 1_555
O7_5 Ni3_3 1_555 1_555
H26_5 O7_5 1_555 1_555
O8_5 Ni5_3 1_555 1_555
H27_5 O8_5 1_555 1_555
H28_5 O8_5 1_555 1_555
C24_5 N9_5 1_555 1_555
C25_5 N10_5 1_555 1_555
C26_5 N9_5 1_555 1_555
C27_5 H29_5 1_555 1_555
H30_5 C27_5 1_555 1_555
C28_5 C27_5 1_555 1_555
C29_5 H31_5 1_555 1_555
C30_5 C29_5 1_555 1_555
H48_5 C23_7 1_555 1_555
N10_5 C24_5 1_555 1_555
N11_5 C25_5 1_555 1_555
N12_5 C24_5 1_555 1_555
H49_5 N12_5 1_555 1_555
N13_5 C25_5 1_555 1_555
H50_5 N13_5 1_555 1_555
N14_5 C26_5 1_555 1_555
H51_5 N14_5 1_555 1_555
O9_5 Ni3_3 1_555 1_555
O10_5 C28_5 1_555 1_555
O12_3 C30_5 1_555 1_555
O12_4 Ni5_3 1_555 1_555
O13_5 C30_5 1_555 1_555
O16_5 Ni3_3 1_555 1_555
H54_5 O16_5 1_555 1_555
O17_5 Ni5_3 1_555 1_555
H55_5 O17_5 1_555 1_555
H56_5 O17_5 1_555 1_555
C3_5 N3_5 1_555 1_555
C4_5 N4_5 1_555 1_555
C6_5 N5_5 1_555 1_555
C8_5 N6_5 1_555 1_555
C14_5 N7_5 1_555 1_555
C21_5 N8_5 1_555 1_555
Ni3_3 O1_5 1_555 1_555
Ni5_3 O3_5 1_555 1_555
C26_5 N11_5 1_555 1_555
C27_5 N12_5 1_555 1_555
C28_5 O9_5 1_555 1_555
C29_5 N13_5 1_555 1_555
H20_5 C23_8 1_555 1_555
C39_5 H42_5 1_555 1_555
C40_5 C39_5 1_555 1_555
H43_5 C40_5 1_555 1_555
C41_5 C40_5 1_555 1_555
C42_5 C41_5 1_555 1_555
H44_5 C42_5 1_555 1_555
C43_5 C42_5 1_555 1_555
H45_5 C43_5 1_555 1_555
C44_5 C23_8 1_555 1_555
H46_5 C44_5 1_555 1_555
H47_5 C44_5 1_555 1_555
N18 C39_5 1_555 1_555
C41_5 C44_5 1_555 1_555
C43_5 N18 1_555 1_555
H20_6 C23_9 1_555 1_555
C39_6 H42_6 1_555 1_555
C40_6 C39_6 1_555 1_555
H43_6 C40_6 1_555 1_555
C41_6 C40_6 1_555 1_555
C42_6 C41_6 1_555 1_555
H44_6 C42_6 1_555 1_555
C43_6 C42_6 1_555 1_555
H45_6 C43_6 1_555 1_555
C44_6 C23_9 1_555 1_555
H46_6 C44_6 1_555 1_555
H47_6 C44_6 1_555 1_555
N18_2 C39_6 1_555 1_555
C41_6 C44_6 1_555 1_555
C43_6 N18_2 1_555 1_555
C1_6 N1_6 1_555 1_555
C2_6 N2_6 1_555 1_555
C3_6 N1_6 1_555 1_555
C4_6 H1_6 1_555 1_555
H2_6 C4_6 1_555 1_555
C5_6 C4_6 1_555 1_555
C6_6 H3_6 1_555 1_555
C7_6 C6_6 1_555 1_555
C10_6 H7_6 1_555 1_555
C11_6 C10_6 1_555 1_555
H8_6 C11_6 1_555 1_555
C12_6 C11_6 1_555 1_555
C13_6 C12_6 1_555 1_555
H9_6 C13_6 1_555 1_555
C14_6 C13_6 1_555 1_555
H10_6 C14_6 1_555 1_555
C15_6 C12_6 1_555 1_555
H11_6 C15_6 1_555 1_555
H12_6 C15_6 1_555 1_555
C16_12 C15_6 1_555 1_555
H13_6 C16_12 1_555 1_555
C17_6 H14_6 1_555 1_555
C18_6 C17_6 1_555 1_555
H15_6 C18_6 1_555 1_555
C19_6 C18_6 1_555 1_555
C20_6 C19_6 1_555 1_555
H16_6 C20_6 1_555 1_555
C21_6 C20_6 1_555 1_555
H17_6 C21_6 1_555 1_555
C22_6 C19_6 1_555 1_555
H18_6 C22_6 1_555 1_555
H19_6 C22_6 1_555 1_555
C23_10 C22_6 1_555 1_555
N2_6 C1_6 1_555 1_555
N3_6 C2_6 1_555 1_555
N4_6 C1_6 1_555 1_555
H21_6 N4_6 1_555 1_555
N5_6 C2_6 1_555 1_555
H22_6 N5_6 1_555 1_555
N6_6 C3_6 1_555 1_555
H23_6 N6_6 1_555 1_555
N7_6 C10_6 1_555 1_555
N8_6 C17_6 1_555 1_555
Ni3 N7_6 1_555 1_555
Ni5 N8_6 1_555 1_555
O1_6 C5_6 1_555 1_555
O2_6 C5_6 1_555 1_555
O3_6 C7_6 1_555 1_555
O4_6 C7_6 1_555 1_555
O7_6 Ni3 1_555 1_555
H26_6 O7_6 1_555 1_555
O8_6 Ni5 1_555 1_555
H27_6 O8_6 1_555 1_555
H28_6 O8_6 1_555 1_555
C24_6 N9_6 1_555 1_555
C25_6 N10_6 1_555 1_555
C26_6 N9_6 1_555 1_555
C27_6 H29_6 1_555 1_555
H30_6 C27_6 1_555 1_555
C28_6 C27_6 1_555 1_555
C29_6 H31_6 1_555 1_555
H32_6 C29_6 1_555 1_555
C30_6 C29_6 1_555 1_555
C31_6 H33_6 1_555 1_555
H34_6 C31_6 1_555 1_555
C32_6 C31_6 1_555 1_555
C33_6 H35_6 1_555 1_555
C34_6 C33_6 1_555 1_555
H36_6 C34_6 1_555 1_555
C35_6 C34_6 1_555 1_555
C36_6 C35_6 1_555 1_555
H37_6 C36_6 1_555 1_555
C37_6 C36_6 1_555 1_555
H38_6 C37_6 1_555 1_555
C38_6 C16_12 1_555 1_555
H39_6 C38_6 1_555 1_555
H40_6 C38_6 1_555 1_555
H41_6 C16_12 1_555 1_555
H48_6 C23_10 1_555 1_555
N10_6 C24_6 1_555 1_555
N11_6 C25_6 1_555 1_555
N12_6 C24_6 1_555 1_555
H49_6 N12_6 1_555 1_555
N13_6 C25_6 1_555 1_555
H50_6 N13_6 1_555 1_555
N14_6 C26_6 1_555 1_555
H51_6 N14_6 1_555 1_555
N16_2 C33_6 1_555 1_555
O9_6 Ni3 1_555 1_555
O10_6 C28_6 1_555 1_555
O12_4 C30_6 1_555 1_555
O13_6 C30_6 1_555 1_555
O14_6 C32_6 1_555 1_555
H52_6 O14_6 1_555 1_555
O15_6 C32_6 1_555 1_555
O16_6 Ni3 1_555 1_555
H54_6 O16_6 1_555 1_555
O17_6 Ni5 1_555 1_555
H55_6 O17_6 1_555 1_555
H56_6 O17_6 1_555 1_555
C3_6 N3_6 1_555 1_555
C4_6 N4_6 1_555 1_555
C6_6 N5_6 1_555 1_555
C14_6 N7_6 1_555 1_555
C21_6 N8_6 1_555 1_555
Ni3 O1_6 1_555 1_555
Ni5 O3_6 1_555 1_555
C26_6 N11_6 1_555 1_555
C27_6 N12_6 1_555 1_555
C28_6 O9_6 1_555 1_555
C29_6 N13_6 1_555 1_555
C31_6 N14_6 1_555 1_555
C35_6 C38_6 1_555 1_555
C37_6 N16_2 1_555 1_555
H6_6 C8_6 1_555 1_555
C9_6 C8_6 1_555 1_555
O5_6 C9_6 1_555 1_555
H24_6 O5_6 1_555 1_555
O6_6 C9_6 1_555 1_555
H20_2 C23_11 1_555 1_555
C22_2 C23_12 1_555 1_555

#END
