
###############################################################################
#
# This file contains modified crystal structure data generated from the
# MOF subset of the Cambridge Structural Database (CSD) v543 
# hosted by the Cambridge Crystallographic Data Centre (CCDC).
#
# This work is licensed under the Creative Commons
# Attribution-NonCommercial-ShareAlike 4.0 International License.
# To view a copy of this license, visit
# http://creativecommons.org/licenses/by-nc-sa/4.0/
# or send a letter to
# Creative Commons, PO Box 1866, Mountain View, CA 94042, USA.
#
# CIF created using the CSD Python API on 29 September 2022
# The structure has been converted into the P1 space group
# The structure has a 3D framework
# The original CSD entry ODOXEK is in the trigonal crystal system
# The framework has been calculated to contain at least 10.0% void space
# The void calculation uses a probe of radius 1.32A, grid spacing 0.4
#
###############################################################################

data_ODOXEK
_chemical_formula_moiety         '(C54 H18 Cd6 O36)n'
_symmetry_cell_setting           triclinic
_symmetry_space_group_name_H-M   'P 1'
_symmetry_Int_Tables_number      1
_space_group_name_Hall           'P 1'
loop_
_symmetry_equiv_pos_site_id
_symmetry_equiv_pos_as_xyz
1 x,y,z
_cell_length_a                   15.7547(3)
_cell_length_b                   15.7547(3)
_cell_length_c                   7.93160(10)
_cell_angle_alpha                90
_cell_angle_beta                 90
_cell_angle_gamma                120
_cell_volume                     1704.95
loop_
_atom_site_label
_atom_site_type_symbol
_atom_site_fract_x
_atom_site_fract_y
_atom_site_fract_z
Cd1 Cd 0.37406(3) 0.31546(3) 0.01218(7)
C1 C 0.3201(5) 0.0432(4) 0.1862(9)
C2 C 0.3892(5) 0.0290(5) 0.2745(9)
H1 H 0.4484 0.0832 0.3060
C4 C 0.3385(6) 0.1421(5) 0.1378(9)
O1 O 0.2692(4) 0.1493(4) 0.0741(8)
O2 O 0.4229(4) 0.2159(3) 0.1556(7)
C12 C 0.0635(4) 0.4344(6) 0.3154(9)
C14 C 0.2187(4) 0.3366(6) 0.1275(9)
C15 C 0.0789(5) 0.5257(7) 0.3992(9)
O9 O 0.2920(3) 0.3627(4) 0.2251(6)
O11 O 0.0035(3) 0.5287(4) 0.4514(6)
O12 O 0.1631(4) 0.5980(6) 0.4163(8)
C16 C 0.1440(5) 0.4252(6) 0.2722(9)
H5 H 0.2065 0.4738 0.3040
C17 C 0.1323(5) 0.3438(7) 0.1814(9)
C18 C 0.0396(5) 0.2717(7) 0.1393(9)
H6 H 0.0315 0.2178 0.0780
Cd7 Cd 0.31546(3) 0.37406(3) 0.51218(7)
Cd8 Cd 0.05860(4) 0.68454(3) 0.51218(7)
Cd10 Cd 0.68454(3) 0.05860(4) 0.01218(7)
O10 O 0.2187(4) 0.3054(5) 0.9832(7)
C21 C 0.4344(6) 0.0635(4) 0.8154(9)
C23 C 0.3366(6) 0.2187(4) 0.6275(9)
C24 C 0.5257(7) 0.0789(5) 0.8992(9)
O15 O 0.3627(4) 0.2920(3) 0.7251(6)
O16 O 0.3054(5) 0.2187(4) 0.4832(7)
O17 O 0.5287(4) 0.0035(3) 0.9514(6)
O18 O 0.5980(6) 0.1631(4) 0.9163(8)
C25 C 0.4252(6) 0.1440(5) 0.7722(9)
H8 H 0.4738 0.2065 0.8040
C26 C 0.3438(7) 0.1323(5) 0.6814(9)
C27 C 0.2717(7) 0.0396(5) 0.6393(9)
H9 H 0.2178 0.0315 0.5780
O19 O 0.4748(3) 0.4713(4) 0.9514(6)
C3 C 0.3709(5) 0.9365(4) 0.3154(9)
C5 C 0.1179(5) 0.7813(4) 0.1275(9)
C6 C 0.4468(5) 0.9211(5) 0.3992(9)
O3 O 0.0707(3) 0.7080(3) 0.2251(6)
O5 O 0.5252(3) 0.9965(3) 0.4514(6)
O6 O 0.4349(4) 0.8369(4) 0.4163(8)
C7 C 0.2812(4) 0.8560(5) 0.2722(9)
H2 H 0.2673 0.7935 0.3040
C8 C 0.2115(5) 0.8677(5) 0.1814(9)
C9 C 0.2321(5) 0.9604(5) 0.1393(9)
H3 H 0.1863 0.9685 0.0780
Cd6 Cd 0.62594(3) 0.94140(4) 0.51218(7)
O4 O 0.0867(3) 0.7813(4) 0.9832(7)
C19 C 0.2769(6) 0.9568(4) 0.6862(9)
C20 C 0.3602(7) 0.9710(5) 0.7745(9)
H7 H 0.3652 0.9168 0.8060
C22 C 0.1964(8) 0.8579(5) 0.6378(9)
O13 O 0.1199(6) 0.8507(4) 0.5741(8)
O14 O 0.2070(5) 0.7841(3) 0.6556(7)
C10 C 0.9568(4) 0.2769(6) 0.1862(9)
C11 C 0.9710(5) 0.3602(7) 0.2745(9)
H4 H 0.9168 0.3652 0.3060
C13 C 0.8579(5) 0.1964(8) 0.1378(9)
O7 O 0.8507(4) 0.1199(6) 0.0741(8)
O8 O 0.7841(3) 0.2070(5) 0.1556(7)
O21 O 0.7080(3) 0.0707(3) 0.7251(6)
Cd4 Cd 0.94140(4) 0.62594(3) 0.01218(7)
O20 O 0.6373(4) 0.9293(3) 0.2251(6)
O22 O 0.6946(5) 0.9133(3) 0.9832(7)
O25 O 0.9293(3) 0.6373(4) 0.7251(6)
O26 O 0.9133(3) 0.6946(5) 0.4832(7)
C19_2 C 0.0432(4) 0.3201(7) 0.6862(9)
C20_2 C 0.0290(5) 0.3892(9) 0.7745(9)
H7_2 H 0.0832 0.4484 0.8060
C22_2 C 0.1421(5) 0.3385(9) 0.6378(9)
O13_2 O 0.1493(4) 0.2692(7) 0.5741(8)
O14_2 O 0.2159(3) 0.4229(6) 0.6556(7)
O27 O 0.4713(4) 0.4748(5) 0.4514(6)
C21_2 C 0.9365(4) 0.3709(7) 0.8154(9)
C23_2 C 0.7813(4) 0.1179(7) 0.6275(9)
C24_2 C 0.9211(5) 0.4468(9) 0.8992(9)
O16_2 O 0.7813(4) 0.0867(6) 0.4832(7)
O17_2 O 0.9965(3) 0.5252(5) 0.9514(6)
O18_2 O 0.8369(4) 0.4349(7) 0.9163(8)
C25_2 C 0.8560(5) 0.2812(8) 0.7722(9)
H8_2 H 0.7935 0.2673 0.8040
C26_2 C 0.8677(5) 0.2115(9) 0.6814(9)
C27_2 C 0.9604(5) 0.2321(9) 0.6393(9)
H9_2 H 0.9685 0.1863 0.5780
C10_2 C 0.7231(6) 0.6799(7) 0.1862(9)
C11_2 C 0.6398(7) 0.6108(9) 0.2745(9)
H4_2 H 0.6348 0.5516 0.3060
C12_2 C 0.5656(6) 0.6291(7) 0.3154(9)
C13_2 C 0.8036(8) 0.6615(9) 0.1378(9)
C14_2 C 0.6634(6) 0.8821(7) 0.1275(9)
C15_2 C 0.4743(7) 0.5532(9) 0.3992(9)
O7_2 O 0.8801(6) 0.7308(7) 0.0741(8)
O8_2 O 0.7930(5) 0.5771(6) 0.1556(7)
O12_2 O 0.4020(6) 0.5651(7) 0.4163(8)
C16_2 C 0.5748(6) 0.7188(8) 0.2722(9)
H5_2 H 0.5262 0.7327 0.3040
C17_2 C 0.6562(7) 0.7885(9) 0.1814(9)
C18_2 C 0.7283(7) 0.7679(9) 0.1393(9)
H6_2 H 0.7822 0.8137 0.0780
C19_3 C 0.6799(7) 0.7231(6) 0.6862(9)
C20_3 C 0.6108(9) 0.6398(7) 0.7745(9)
H7_3 H 0.5516 0.6348 0.8060
C21_3 C 0.6291(7) 0.5656(6) 0.8154(9)
C22_3 C 0.6615(9) 0.8036(8) 0.6378(9)
C23_3 C 0.8821(7) 0.6634(6) 0.6275(9)
C24_3 C 0.5532(9) 0.4743(7) 0.8992(9)
O13_3 O 0.7308(7) 0.8801(6) 0.5741(8)
O14_3 O 0.5771(6) 0.7930(5) 0.6556(7)
O18_3 O 0.5651(7) 0.4020(6) 0.9163(8)
C25_3 C 0.7188(8) 0.5748(6) 0.7722(9)
H8_3 H 0.7327 0.5262 0.8040
C26_3 C 0.7885(9) 0.6562(7) 0.6814(9)
C27_3 C 0.7679(9) 0.7283(7) 0.6393(9)
H9_3 H 0.8137 0.7822 0.5780
loop_
_geom_bond_atom_site_label_1
_geom_bond_atom_site_label_2
_geom_bond_site_symmetry_1
_geom_bond_site_symmetry_2
Cd1 O1 1_555 1_555
C1 C2 1_555 1_555
C2 H1 1_555 1_555
C4 C1 1_555 1_555
O1 C4 1_555 1_555
O2 Cd1 1_555 1_555
C14 O9 1_555 1_555
C15 C12 1_555 1_555
O9 Cd1 1_555 1_555
O11 C15 1_555 1_555
O12 C15 1_555 1_555
C16 C12 1_555 1_555
H5 C16 1_555 1_555
C17 C14 1_555 1_555
H6 C18 1_555 1_555
Cd7 O9 1_555 1_555
Cd8 O11 1_555 1_555
C4 O2 1_555 1_555
C16 C17 1_555 1_555
C17 C18 1_555 1_555
C23 O15 1_555 1_555
C24 C21 1_555 1_555
O16 C23 1_555 1_555
O17 C24 1_555 1_555
O18 C24 1_555 1_555
C25 C21 1_555 1_555
H8 C25 1_555 1_555
C26 C23 1_555 1_555
H9 C27 1_555 1_555
Cd7 O15 1_555 1_555
O16 Cd7 1_555 1_555
C25 C26 1_555 1_555
C26 C27 1_555 1_555
C5 O3 1_555 1_555
C6 C3 1_555 1_555
O5 C6 1_555 1_555
O6 C6 1_555 1_555
C7 C3 1_555 1_555
H2 C7 1_555 1_555
C8 C5 1_555 1_555
H3 C9 1_555 1_555
Cd8 O3 1_555 1_555
Cd6 O5 1_555 1_555
C7 C8 1_555 1_555
C8 C9 1_555 1_555
C19 C20 1_555 1_555
C20 H7 1_555 1_555
C22 C19 1_555 1_555
O13 C22 1_555 1_555
O14 C22 1_555 1_555
Cd8 O13 1_555 1_555
O14 Cd8 1_555 1_555
C10 C11 1_555 1_555
C11 H4 1_555 1_555
C13 C10 1_555 1_555
O7 C13 1_555 1_555
O8 C13 1_555 1_555
Cd10 O7 1_555 1_555
O8 Cd10 1_555 1_555
C19_2 C20_2 1_555 1_555
C20_2 H7_2 1_555 1_555
C22_2 C19_2 1_555 1_555
O13_2 C22_2 1_555 1_555
O14_2 C22_2 1_555 1_555
Cd7 O13_2 1_555 1_555
O27 Cd7 1_555 1_555
O14_2 Cd7 1_555 1_555
C23_2 O21 1_555 1_555
C24_2 C21_2 1_555 1_555
O16_2 C23_2 1_555 1_555
O17_2 C24_2 1_555 1_555
O18_2 C24_2 1_555 1_555
C25_2 C21_2 1_555 1_555
H8_2 C25_2 1_555 1_555
C26_2 C23_2 1_555 1_555
H9_2 C27_2 1_555 1_555
C25_2 C26_2 1_555 1_555
C26_2 C27_2 1_555 1_555
C10_2 C11_2 1_555 1_555
C11_2 H4_2 1_555 1_555
C12_2 C11_2 1_555 1_555
C13_2 C10_2 1_555 1_555
C14_2 O20 1_555 1_555
C15_2 C12_2 1_555 1_555
O7_2 C13_2 1_555 1_555
O8_2 C13_2 1_555 1_555
O27 C15_2 1_555 1_555
O12_2 C15_2 1_555 1_555
C16_2 C12_2 1_555 1_555
H5_2 C16_2 1_555 1_555
C17_2 C14_2 1_555 1_555
C18_2 C10_2 1_555 1_555
H6_2 C18_2 1_555 1_555
Cd4 O7_2 1_555 1_555
Cd6 O20 1_555 1_555
O8_2 Cd4 1_555 1_555
C16_2 C17_2 1_555 1_555
C17_2 C18_2 1_555 1_555
C19_3 C20_3 1_555 1_555
C20_3 H7_3 1_555 1_555
C21_3 C20_3 1_555 1_555
C22_3 C19_3 1_555 1_555
C23_3 O25 1_555 1_555
C24_3 C21_3 1_555 1_555
O13_3 C22_3 1_555 1_555
O14_3 C22_3 1_555 1_555
O26 C23_3 1_555 1_555
O19 C24_3 1_555 1_555
O18_3 C24_3 1_555 1_555
C25_3 C21_3 1_555 1_555
H8_3 C25_3 1_555 1_555
C26_3 C23_3 1_555 1_555
C27_3 C19_3 1_555 1_555
H9_3 C27_3 1_555 1_555
Cd6 O13_3 1_555 1_555
O14_3 Cd6 1_555 1_555
C25_3 C26_3 1_555 1_555
C26_3 C27_3 1_555 1_555

#END
