
###############################################################################
#
# This file contains modified crystal structure data generated from the
# MOF subset of the Cambridge Structural Database (CSD) v543 
# hosted by the Cambridge Crystallographic Data Centre (CCDC).
#
# This work is licensed under the Creative Commons
# Attribution-NonCommercial-ShareAlike 4.0 International License.
# To view a copy of this license, visit
# http://creativecommons.org/licenses/by-nc-sa/4.0/
# or send a letter to
# Creative Commons, PO Box 1866, Mountain View, CA 94042, USA.
#
# CIF created using the CSD Python API on 29 September 2022
# The structure has been converted into the P1 space group
# The structure has a 3D framework
# The original CSD entry ODUDOJ is in the monoclinic crystal system
# The framework has been calculated to contain at least 10.0% void space
# The void calculation uses a probe of radius 1.32A, grid spacing 0.4
#
###############################################################################

data_ODUDOJ
_chemical_formula_moiety         '(C192 H64 K26 O156 Zn15)n'
_symmetry_cell_setting           triclinic
_symmetry_space_group_name_H-M   'P 1'
_symmetry_Int_Tables_number      1
_space_group_name_Hall           'P 1'
loop_
_symmetry_equiv_pos_site_id
_symmetry_equiv_pos_as_xyz
1 x,y,z
_cell_length_a                   15.0173(9)
_cell_length_b                   49.544(3)
_cell_length_c                   12.9624(8)
_cell_angle_alpha                90
_cell_angle_beta                 106.869(2)
_cell_angle_gamma                90
_cell_volume                     9229.26
loop_
_atom_site_label
_atom_site_type_symbol
_atom_site_fract_x
_atom_site_fract_y
_atom_site_fract_z
K8 K 0.12143(16) 0.47270(6) 0.5949(3)
Zn10 Zn -0.0000 0.43053(2) 0.7500
O43 O 0.3065(5) 0.46094(17) 0.6310(7)
O59 O 0.1103(3) 0.45234(12) 0.8006(5)
O60 O 0.0626(4) 0.52331(15) 0.4191(6)
O62 O 0.2364(4) 0.49991(12) 0.4904(5)
O65 O 0.1328(4) 0.41510(15) 0.6261(6)
Zn3 Zn 0.0000 0.56947(2) 0.2500
K4 K 0.12143(16) 0.52730(6) 0.0949(3)
O15 O 0.0075(4) 0.59500(13) 0.3710(5)
H5 H 0.0053 0.6661 0.6536
C16 C 0.0138(6) 0.6371(2) 0.5388(7)
H6 H 0.0738 0.6384 0.5325
O45 O 0.3065(5) 0.53906(17) 0.1310(7)
O52 O 0.0635(4) 0.71891(16) 0.6645(6)
O58 O 0.1103(3) 0.54766(12) 0.3006(5)
O64 O 0.1328(4) 0.58490(15) 0.1261(6)
O61 O 0.0626(4) 0.47669(15) 0.9191(6)
O63 O 0.2364(4) 0.50009(12) 0.9904(5)
Zn1 Zn 0.5000 0.55564(2) 0.2500
K1 K 0.30113(15) 0.59684(6) 0.0909(2)
O1 O 0.5852(4) 0.57805(12) 0.2023(5)
O2 O 0.4770(4) 0.60052(17) 0.0776(6)
O5 O 0.6141(3) 0.62408(10) 0.0069(4)
C1 C 0.5590(6) 0.59445(17) 0.1234(7)
C4 C 0.6366(5) 0.60502(18) 0.0878(7)
C5 C 0.7286(6) 0.60054(17) 0.1159(8)
H1 H 0.7609 0.5884 0.1679
C6 C 0.7672(6) 0.6169(2) 0.0550(8)
H2 H 0.8299 0.6180 0.0585
O26 O 0.7005(4) 0.77959(12) 0.1291(5)
O29 O 0.5635(4) 0.78109(16) 0.1645(6)
O30 O 0.4913(3) 0.74514(11) 0.0101(4)
C32 C 0.6156(5) 0.77246(15) 0.1154(6)
C33 C 0.5821(5) 0.75189(18) 0.0310(7)
C41 C 0.0549(6) 0.61966(18) 0.0156(8)
C42 C 0.0617(5) 0.59769(16) 0.0969(7)
O36 O 0.6935(5) 0.53906(17) 0.3690(7)
O37 O 0.8897(3) 0.45234(12) 0.6994(5)
O38 O 0.9374(4) 0.47669(15) 0.5809(6)
O39 O 0.7636(4) 0.50009(12) 0.5096(5)
O40 O 0.5498(4) 0.53037(12) 0.3731(5)
C43 C 0.8797(7) 0.46955(18) 0.6245(8)
C44 C 0.7824(6) 0.47930(19) 0.5848(7)
C45 C 0.7031(6) 0.4736(2) 0.6125(8)
H15 H 0.6965 0.4612 0.6637
C46 C 0.6342(5) 0.49027(19) 0.5481(8)
H16 H 0.5727 0.4912 0.5494
C47 C 0.6723(6) 0.50504(18) 0.4827(7)
C48 C 0.6374(6) 0.52646(18) 0.4017(7)
Zn7 Zn 0.74372(5) 0.812208(19) 0.22298(7)
Zn10_2 Zn 1.0000 0.43053(2) 0.7500
K10 K 0.69887(15) 0.59684(6) 0.4091(2)
K13 K 0.62664(15) 0.77674(6) 0.4014(2)
K15 K 0.37336(15) 0.77674(6) 0.0986(2)
K18 K 0.87857(16) 0.52730(6) 0.4051(3)
K20 K 0.87857(16) 0.47270(6) 0.9051(3)
O42 O 0.4148(4) 0.57805(12) 0.2977(5)
O50 O 0.1871(4) 0.77283(15) 0.0837(6)
O66 O 0.4502(4) 0.53037(12) 0.1269(5)
Zn2 Zn 0.75628(5) 0.687792(19) 0.77702(7)
Zn3_2 Zn 1.0000 0.56947(2) 0.2500
K2 K 0.55760(13) 0.64481(5) 0.62208(19)
K3 K 0.87336(15) 0.72326(6) 0.5986(2)
O4 O 0.6090(5) 0.65811(14) 0.8466(6)
O6 O 0.7633(4) 0.65908(11) 0.8870(5)
O7 O 0.2995(4) 0.77959(12) 0.3709(5)
O8 O 0.6353(3) 0.69867(12) 0.6863(4)
O9 O 0.6871(4) 0.72717(15) 0.5837(6)
O10 O 0.4365(4) 0.78109(16) 0.3355(6)
O11 O 0.5087(3) 0.74514(11) 0.4899(4)
O12 O 0.8332(3) 0.67403(12) 0.6929(5)
O13 O 0.7347(4) 0.64233(13) 0.6082(6)
O14 O 0.8654(3) 0.62445(10) 0.5116(4)
O16 O 0.8897(3) 0.54766(12) 0.1994(5)
O17 O 0.9374(4) 0.52331(15) 0.0809(6)
O18 O 0.7636(4) 0.49991(12) 0.0096(5)
O19 O 0.8672(4) 0.58490(15) 0.3739(6)
C2 C 0.6876(6) 0.65122(19) 0.9002(7)
C3 C 0.6941(5) 0.63163(17) 0.9866(7)
C7 C 0.6261(6) 0.71619(18) 0.6133(7)
C8 C 0.3844(5) 0.77246(15) 0.3846(6)
C9 C 0.4179(5) 0.75189(18) 0.4690(7)
C10 C 0.3806(5) 0.73650(17) 0.5305(8)
H3 H 0.3186 0.7365 0.5300
C11 C 0.4503(6) 0.72057(18) 0.5947(7)
H4 H 0.4443 0.7080 0.6456
C12 C 0.5280(5) 0.72676(17) 0.5696(7)
C13 C 0.8102(6) 0.65315(16) 0.6295(6)
C14 C 0.8863(5) 0.64463(18) 0.5876(7)
C15 C 0.9752(6) 0.65272(18) 0.6058(7)
C17 C 0.9451(6) 0.61966(18) 0.4844(8)
C18 C 0.9383(5) 0.59769(16) 0.4031(7)
C19 C 0.8797(7) 0.53045(18) 0.1245(8)
C20 C 0.7824(6) 0.52070(19) 0.0848(7)
C21 C 0.7031(6) 0.5264(2) 0.1125(8)
H7 H 0.6965 0.5388 0.1637
C22 C 0.6342(5) 0.50973(19) 0.0481(8)
H8 H 0.5727 0.5088 0.0494
Zn4 Zn 0.24372(5) 0.687792(19) 0.72298(7)
K6 K 0.44240(13) 0.64481(5) 0.87792(19)
K7 K 0.12664(15) 0.72326(6) 0.9014(2)
O22 O 0.5230(4) 0.60052(17) 0.4224(6)
O23 O 0.3910(5) 0.65811(14) 0.6534(6)
O24 O 0.3859(3) 0.62408(10) 0.4931(4)
O25 O 0.2367(4) 0.65908(11) 0.6130(5)
O27 O 0.3647(3) 0.69867(12) 0.8137(4)
O28 O 0.3129(4) 0.72717(15) 0.9163(6)
O31 O 0.1668(3) 0.67403(12) 0.8071(5)
O32 O 0.2653(4) 0.64233(13) 0.8918(6)
O33 O 0.1346(3) 0.62445(10) 0.9884(4)
C25 C 0.4410(6) 0.59445(17) 0.3766(7)
C26 C 0.3124(6) 0.65122(19) 0.5998(7)
C27 C 0.3059(5) 0.63163(17) 0.5134(7)
C28 C 0.3634(5) 0.60502(18) 0.4122(7)
C29 C 0.2714(6) 0.60054(17) 0.3841(8)
H9 H 0.2391 0.5884 0.3321
C30 C 0.2328(6) 0.6169(2) 0.4450(8)
H10 H 0.1701 0.6180 0.4415
C31 C 0.3739(6) 0.71619(18) 0.8867(7)
C34 C 0.6194(5) 0.73650(17) 0.9695(8)
H11 H 0.6814 0.7365 0.9700
C35 C 0.5497(6) 0.72057(18) 0.9053(7)
H12 H 0.5557 0.7080 0.8544
C36 C 0.4720(5) 0.72676(17) 0.9304(7)
C37 C 0.1898(6) 0.65315(16) 0.8705(6)
C38 C 0.1137(5) 0.64463(18) 0.9124(7)
C39 C 0.0248(6) 0.65272(18) 0.8942(7)
Zn8 Zn 0.25628(5) 0.812208(19) 0.27702(7)
O47 O 0.2005(4) 0.72041(12) 0.6291(5)
O48 O 0.7995(4) 0.72041(12) 0.8709(5)
O49 O 0.8129(4) 0.77283(15) 0.4163(6)
O54 O 0.9365(4) 0.71891(16) 0.8355(6)
O55 O 0.9913(3) 0.75486(11) 0.5101(4)
O56 O 0.0087(3) 0.75486(11) 0.9899(4)
O57 O 0.9925(4) 0.59500(13) 0.1290(5)
O3 O 0.6935(5) 0.46094(17) 0.8690(7)
O20 O 0.5498(4) 0.46963(12) 0.8731(5)
C23 C 0.6723(6) 0.49496(18) 0.9827(7)
C24 C 0.6374(6) 0.47354(18) 0.9017(7)
Zn6 Zn 0.5000 0.44436(2) 0.7500
K11 K 0.69887(15) 0.40316(6) 0.9091(2)
H13 H 0.9947 0.6661 0.8464
C40 C 0.9862(6) 0.6371(2) 0.9612(7)
H14 H 0.9262 0.6384 0.9675
O20_2 O 0.4502(4) 0.46963(12) 0.6269(5)
C19_2 C 0.1203(7) 0.53045(18) 0.3755(8)
C20_2 C 0.2176(6) 0.52070(19) 0.4152(7)
C21_2 C 0.2969(6) 0.5264(2) 0.3875(8)
H7_2 H 0.3035 0.5388 0.3363
C22_2 C 0.3658(5) 0.50973(19) 0.4519(8)
H8_2 H 0.4273 0.5088 0.4506
C23_2 C 0.3277(6) 0.49496(18) 0.5173(7)
C24_2 C 0.3626(6) 0.47354(18) 0.5983(7)
K11_2 K 0.30113(15) 0.40316(6) 0.5909(2)
C47_2 C 0.3277(6) 0.50504(18) 0.0173(7)
C48_2 C 0.3626(6) 0.52646(18) 0.0983(7)
C43_2 C 0.1203(7) 0.46955(18) 0.8755(8)
C44_2 C 0.2176(6) 0.47930(19) 0.9152(7)
C45_2 C 0.2969(6) 0.4736(2) 0.8875(8)
H15_2 H 0.3035 0.4612 0.8363
C46_2 C 0.3658(5) 0.49027(19) 0.9519(8)
H16_2 H 0.4273 0.4912 0.9506
O65_2 O 0.8672(4) 0.41510(15) 0.8739(6)
Zn1_2 Zn 0.0000 0.05564(2) 0.2500
O1_2 O 0.0852(4) 0.07805(12) 0.2023(5)
O5_2 O 0.1141(3) 0.12408(10) 0.0069(4)
C1_2 C 0.0590(6) 0.09445(17) 0.1234(7)
C4_2 C 0.1366(5) 0.10502(18) 0.0878(7)
C5_2 C 0.2286(6) 0.10054(17) 0.1159(8)
H1_2 H 0.2609 0.0884 0.1679
C6_2 C 0.2672(6) 0.1169(2) 0.0550(8)
H2_2 H 0.3299 0.1180 0.0585
O26_2 O 0.2005(4) 0.27959(12) 0.1291(5)
O29_2 O 0.0635(4) 0.28109(16) 0.1645(6)
C32_2 C 0.1156(5) 0.27246(15) 0.1154(6)
C33_2 C 0.0821(5) 0.25189(18) 0.0310(7)
O36_2 O 0.1935(5) 0.03906(17) 0.3690(7)
O39_2 O 0.2636(4) 0.00009(12) 0.5096(5)
O40_2 O 0.0498(4) 0.03037(12) 0.3731(5)
C47_3 C 0.1723(6) 0.00504(18) 0.4827(7)
C48_3 C 0.1374(6) 0.02646(18) 0.4017(7)
Zn7_2 Zn 0.24372(5) 0.312208(19) 0.22298(7)
K10_2 K 0.19887(15) 0.09684(6) 0.4091(2)
K13_2 K 0.12664(15) 0.27674(6) 0.4014(2)
K18_2 K 0.37857(16) 0.02730(6) 0.4051(3)
O60_2 O 0.5626(4) 0.02331(15) 0.4191(6)
Zn2_2 Zn 0.25628(5) 0.187792(19) 0.77702(7)
Zn3_3 Zn 0.5000 0.06947(2) 0.2500
K2_2 K 0.05760(13) 0.14481(5) 0.62208(19)
K3_2 K 0.37336(15) 0.22326(6) 0.5986(2)
K4_2 K 0.62143(16) 0.02730(6) 0.0949(3)
O4_2 O 0.1090(5) 0.15811(14) 0.8466(6)
O6_2 O 0.2633(4) 0.15908(11) 0.8870(5)
O8_2 O 0.1353(3) 0.19867(12) 0.6863(4)
O9_2 O 0.1871(4) 0.22717(15) 0.5837(6)
O11_2 O 0.0087(3) 0.24514(11) 0.4899(4)
O12_2 O 0.3332(3) 0.17403(12) 0.6929(5)
O13_2 O 0.2347(4) 0.14233(13) 0.6082(6)
O14_2 O 0.3654(3) 0.12445(10) 0.5116(4)
O15_2 O 0.5075(4) 0.09500(13) 0.3710(5)
O16_2 O 0.3897(3) 0.04766(12) 0.1994(5)
O17_2 O 0.4374(4) 0.02331(15) 0.0809(6)
O19_2 O 0.3672(4) 0.08490(15) 0.3739(6)
C2_2 C 0.1876(6) 0.15122(19) 0.9002(7)
C3_2 C 0.1941(5) 0.13163(17) 0.9866(7)
C7_2 C 0.1261(6) 0.21619(18) 0.6133(7)
C12_2 C 0.0280(5) 0.22676(17) 0.5696(7)
C13_2 C 0.3102(6) 0.15315(16) 0.6295(6)
C14_2 C 0.3863(5) 0.14463(18) 0.5876(7)
C15_2 C 0.4752(6) 0.15272(18) 0.6058(7)
H5_2 H 0.5053 0.1661 0.6536
C16_2 C 0.5138(6) 0.1371(2) 0.5388(7)
H6_2 H 0.5738 0.1384 0.5325
C17_2 C 0.4451(6) 0.11966(18) 0.4844(8)
C18_2 C 0.4383(5) 0.09769(16) 0.4031(7)
C19_3 C 0.3797(7) 0.03045(18) 0.1245(8)
C20_3 C 0.2824(6) 0.02070(19) 0.0848(7)
C21_3 C 0.2031(6) 0.0264(2) 0.1125(8)
H7_3 H 0.1965 0.0388 0.1637
C22_3 C 0.1342(5) 0.00973(19) 0.0481(8)
H8_3 H 0.0727 0.0088 0.0494
O22_2 O 0.0230(4) 0.10052(17) 0.4224(6)
C34_2 C 0.1194(5) 0.23650(17) 0.9695(8)
H11_2 H 0.1814 0.2365 0.9700
C35_2 C 0.0497(6) 0.22057(18) 0.9053(7)
H12_2 H 0.0557 0.2080 0.8544
O45_2 O 0.8065(5) 0.03906(17) 0.1310(7)
O48_2 O 0.2995(4) 0.22041(12) 0.8709(5)
O49_2 O 0.3129(4) 0.27283(15) 0.4163(6)
O52_2 O 0.5635(4) 0.21891(16) 0.6645(6)
O54_2 O 0.4365(4) 0.21891(16) 0.8355(6)
O55_2 O 0.4913(3) 0.25486(11) 0.5101(4)
O57_2 O 0.4925(4) 0.09500(13) 0.1290(5)
O58_2 O 0.6103(3) 0.04766(12) 0.3006(5)
O64_2 O 0.6328(4) 0.08490(15) 0.1261(6)
K8_2 K 0.62143(16) 0.97270(6) 0.5949(3)
O37_2 O 0.3897(3) 0.95234(12) 0.6994(5)
O38_2 O 0.4374(4) 0.97669(15) 0.5809(6)
C43_3 C 0.3797(7) 0.96955(18) 0.6245(8)
C44_3 C 0.2824(6) 0.97930(19) 0.5848(7)
C45_3 C 0.2031(6) 0.9736(2) 0.6125(8)
H15_3 H 0.1965 0.9612 0.6637
C46_3 C 0.1342(5) 0.99027(19) 0.5481(8)
H16_3 H 0.0727 0.9912 0.5494
Zn10_3 Zn 0.5000 0.93053(2) 0.7500
K20_2 K 0.37857(16) 0.97270(6) 0.9051(3)
O43_2 O 0.8065(5) 0.96094(17) 0.6310(7)
O59_2 O 0.6103(3) 0.95234(12) 0.8006(5)
O62_2 O 0.7364(4) 0.99991(12) 0.4904(5)
O65_3 O 0.6328(4) 0.91510(15) 0.6261(6)
O3_2 O 0.1935(5) 0.96094(17) 0.8690(7)
O20_3 O 0.0498(4) 0.96963(12) 0.8731(5)
C23_3 C 0.1723(6) 0.99496(18) 0.9827(7)
C24_3 C 0.1374(6) 0.97354(18) 0.9017(7)
Zn6_2 Zn 0.0000 0.94436(2) 0.7500
K11_3 K 0.19887(15) 0.90316(6) 0.9091(2)
O61_2 O 0.5626(4) 0.97669(15) 0.9191(6)
Zn1_3 Zn 1.0000 0.05564(2) 0.2500
K1_2 K 0.80113(15) 0.09684(6) 0.0909(2)
O2_2 O 0.9770(4) 0.10052(17) 0.0776(6)
O30_2 O 0.9913(3) 0.24514(11) 0.0101(4)
C41_2 C 0.5549(6) 0.11966(18) 0.0156(8)
C42_2 C 0.5617(5) 0.09769(16) 0.0969(7)
K15_2 K 0.87336(15) 0.27674(6) 0.0986(2)
O42_2 O 0.9148(4) 0.07805(12) 0.2977(5)
O50_2 O 0.6871(4) 0.27283(15) 0.0837(6)
O66_2 O 0.9502(4) 0.03037(12) 0.1269(5)
O7_2 O 0.7995(4) 0.27959(12) 0.3709(5)
O10_2 O 0.9365(4) 0.28109(16) 0.3355(6)
C8_2 C 0.8844(5) 0.27246(15) 0.3846(6)
C9_2 C 0.9179(5) 0.25189(18) 0.4690(7)
C10_2 C 0.8806(5) 0.23650(17) 0.5305(8)
H3_2 H 0.8186 0.2365 0.5300
C11_2 C 0.9503(6) 0.22057(18) 0.5947(7)
H4_2 H 0.9443 0.2080 0.6456
Zn4_2 Zn 0.74372(5) 0.187792(19) 0.72298(7)
K6_2 K 0.94240(13) 0.14481(5) 0.87792(19)
K7_2 K 0.62664(15) 0.22326(6) 0.9014(2)
O23_2 O 0.8910(5) 0.15811(14) 0.6534(6)
O24_2 O 0.8859(3) 0.12408(10) 0.4931(4)
O25_2 O 0.7367(4) 0.15908(11) 0.6130(5)
O27_2 O 0.8647(3) 0.19867(12) 0.8137(4)
O28_2 O 0.8129(4) 0.22717(15) 0.9163(6)
O31_2 O 0.6668(3) 0.17403(12) 0.8071(5)
O32_2 O 0.7653(4) 0.14233(13) 0.8918(6)
O33_2 O 0.6346(3) 0.12445(10) 0.9884(4)
C25_2 C 0.9410(6) 0.09445(17) 0.3766(7)
C26_2 C 0.8124(6) 0.15122(19) 0.5998(7)
C27_2 C 0.8059(5) 0.13163(17) 0.5134(7)
C28_2 C 0.8634(5) 0.10502(18) 0.4122(7)
C29_2 C 0.7714(6) 0.10054(17) 0.3841(8)
H9_2 H 0.7391 0.0884 0.3321
C30_2 C 0.7328(6) 0.1169(2) 0.4450(8)
H10_2 H 0.6701 0.1180 0.4415
C31_2 C 0.8739(6) 0.21619(18) 0.8867(7)
C36_2 C 0.9720(5) 0.22676(17) 0.9304(7)
C37_2 C 0.6898(6) 0.15315(16) 0.8705(6)
C38_2 C 0.6137(5) 0.14463(18) 0.9124(7)
C39_2 C 0.5248(6) 0.15272(18) 0.8942(7)
H13_2 H 0.4947 0.1661 0.8464
C40_2 C 0.4862(6) 0.1371(2) 0.9612(7)
H14_2 H 0.4262 0.1384 0.9675
Zn8_2 Zn 0.75628(5) 0.312208(19) 0.27702(7)
O47_2 O 0.7005(4) 0.22041(12) 0.6291(5)
O56_2 O 0.5087(3) 0.25486(11) 0.9899(4)
Zn6_3 Zn 1.0000 0.94436(2) 0.7500
C19_4 C 0.6203(7) 0.03045(18) 0.3755(8)
C20_4 C 0.7176(6) 0.02070(19) 0.4152(7)
C21_4 C 0.7969(6) 0.0264(2) 0.3875(8)
H7_4 H 0.8035 0.0388 0.3363
C22_4 C 0.8658(5) 0.00973(19) 0.4519(8)
H8_4 H 0.9273 0.0088 0.4506
C47_4 C 0.8277(6) 0.00504(18) 0.0173(7)
C48_4 C 0.8626(6) 0.02646(18) 0.0983(7)
O20_4 O 0.9502(4) 0.96963(12) 0.6269(5)
C23_4 C 0.8277(6) 0.99496(18) 0.5173(7)
C24_4 C 0.8626(6) 0.97354(18) 0.5983(7)
K11_4 K 0.80113(15) 0.90316(6) 0.5909(2)
C43_4 C 0.6203(7) 0.96955(18) 0.8755(8)
C44_4 C 0.7176(6) 0.97930(19) 0.9152(7)
C45_4 C 0.7969(6) 0.9736(2) 0.8875(8)
H15_4 H 0.8035 0.9612 0.8363
C46_4 C 0.8658(5) 0.99027(19) 0.9519(8)
H16_4 H 0.9273 0.9912 0.9506
O65_4 O 0.3672(4) 0.91510(15) 0.8739(6)
H13_3 H 0.0053 0.3339 0.1536
C40_3 C 0.0138(6) 0.3629(2) 0.0388(7)
H14_3 H 0.0738 0.3616 0.0325
O34 O 0.0075(4) 0.40500(13) 0.8710(5)
K2_3 K 0.44240(13) 0.35519(5) 0.37792(19)
O4_3 O 0.3910(5) 0.34189(14) 0.1534(6)
O6_3 O 0.2367(4) 0.34092(11) 0.1130(5)
O8_3 O 0.3647(3) 0.30133(12) 0.3137(4)
O12_3 O 0.1668(3) 0.32597(12) 0.3071(5)
O13_3 O 0.2653(4) 0.35767(13) 0.3918(6)
O14_3 O 0.1346(3) 0.37555(10) 0.4884(4)
C2_3 C 0.3124(6) 0.34878(19) 0.0998(7)
C3_3 C 0.3059(5) 0.36837(17) 0.0134(7)
C7_3 C 0.3739(6) 0.28381(18) 0.3867(7)
C8_3 C 0.6156(5) 0.22754(15) 0.6154(6)
C9_3 C 0.5821(5) 0.24811(18) 0.5310(7)
C10_3 C 0.6194(5) 0.26350(17) 0.4695(8)
H3_3 H 0.6814 0.2635 0.4700
C11_3 C 0.5497(6) 0.27943(18) 0.4053(7)
H4_3 H 0.5557 0.2920 0.3544
C12_3 C 0.4720(5) 0.27324(17) 0.4304(7)
C13_3 C 0.1898(6) 0.34685(16) 0.3705(6)
C14_3 C 0.1137(5) 0.35537(18) 0.4124(7)
C15_3 C 0.0248(6) 0.34728(18) 0.3942(7)
C17_3 C 0.0549(6) 0.38034(18) 0.5156(8)
C18_3 C 0.0617(5) 0.40231(16) 0.5969(7)
K6_3 K 0.55760(13) 0.35519(5) 0.12208(19)
O21 O 0.5852(4) 0.42195(12) 0.7023(5)
O22_3 O 0.4770(4) 0.39948(17) 0.5776(6)
O23_3 O 0.6090(5) 0.34189(14) 0.3466(6)
O24_3 O 0.6141(3) 0.37592(10) 0.5069(4)
O25_3 O 0.7633(4) 0.34092(11) 0.3870(5)
O27_3 O 0.6353(3) 0.30133(12) 0.1863(4)
O31_3 O 0.8332(3) 0.32597(12) 0.1929(5)
O32_3 O 0.7347(4) 0.35767(13) 0.1082(6)
O33_3 O 0.8654(3) 0.37555(10) 0.0116(4)
C25_3 C 0.5590(6) 0.40555(17) 0.6234(7)
C26_3 C 0.6876(6) 0.34878(19) 0.4002(7)
C27_3 C 0.6941(5) 0.36837(17) 0.4866(7)
C28_3 C 0.6366(5) 0.39498(18) 0.5878(7)
C29_3 C 0.7286(6) 0.39946(17) 0.6159(8)
H9_3 H 0.7609 0.4116 0.6679
C30_3 C 0.7672(6) 0.3831(2) 0.5550(8)
H10_3 H 0.8299 0.3820 0.5585
C31_3 C 0.6261(6) 0.28381(18) 0.1133(7)
C34_3 C 0.3806(5) 0.26350(17) 0.0305(8)
H11_3 H 0.3186 0.2635 0.0300
C35_3 C 0.4503(6) 0.27943(18) 0.0947(7)
H12_3 H 0.4443 0.2920 0.1456
C36_3 C 0.5280(5) 0.27324(17) 0.0696(7)
C37_3 C 0.8102(6) 0.34685(16) 0.1295(6)
C38_3 C 0.8863(5) 0.35537(18) 0.0876(7)
C39_3 C 0.9752(6) 0.34728(18) 0.1058(7)
O41 O 0.4148(4) 0.42195(12) 0.7977(5)
O2_3 O 0.5230(4) 0.39948(17) 0.9224(6)
O5_3 O 0.3859(3) 0.37592(10) 0.9931(4)
C1_3 C 0.4410(6) 0.40555(17) 0.8766(7)
C4_3 C 0.3634(5) 0.39498(18) 0.9122(7)
C5_3 C 0.2714(6) 0.39946(17) 0.8841(8)
H1_3 H 0.2391 0.4116 0.8321
C6_3 C 0.2328(6) 0.3831(2) 0.9450(8)
H2_3 H 0.1701 0.3820 0.9415
C32_3 C 0.3844(5) 0.22754(15) 0.8846(6)
C33_3 C 0.4179(5) 0.24811(18) 0.9690(7)
C41_3 C 0.9451(6) 0.38034(18) 0.9844(8)
C42_3 C 0.9383(5) 0.40231(16) 0.9031(7)
O15_3 O 0.9925(4) 0.40500(13) 0.6290(5)
H5_3 H 0.9947 0.3339 0.3464
C16_3 C 0.9862(6) 0.3629(2) 0.4612(7)
H6_3 H 0.9262 0.3616 0.4675
C8_4 C 0.1156(5) 0.72754(15) 0.6154(6)
C9_4 C 0.0821(5) 0.74811(18) 0.5310(7)
C10_4 C 0.1194(5) 0.76350(17) 0.4695(8)
H3_4 H 0.1814 0.7635 0.4700
C11_4 C 0.0497(6) 0.77943(18) 0.4053(7)
H4_4 H 0.0557 0.7920 0.3544
K6_4 K 0.05760(13) 0.85519(5) 0.12208(19)
O21_2 O 0.0852(4) 0.92195(12) 0.7023(5)
O23_4 O 0.1090(5) 0.84189(14) 0.3466(6)
O24_4 O 0.1141(3) 0.87592(10) 0.5069(4)
O25_4 O 0.2633(4) 0.84092(11) 0.3870(5)
O27_4 O 0.1353(3) 0.80133(12) 0.1863(4)
O31_4 O 0.3332(3) 0.82597(12) 0.1929(5)
O32_4 O 0.2347(4) 0.85767(13) 0.1082(6)
O33_4 O 0.3654(3) 0.87555(10) 0.0116(4)
C25_4 C 0.0590(6) 0.90555(17) 0.6234(7)
C26_4 C 0.1876(6) 0.84878(19) 0.4002(7)
C27_4 C 0.1941(5) 0.86837(17) 0.4866(7)
C28_4 C 0.1366(5) 0.89498(18) 0.5878(7)
C29_4 C 0.2286(6) 0.89946(17) 0.6159(8)
H9_4 H 0.2609 0.9116 0.6679
C30_4 C 0.2672(6) 0.8831(2) 0.5550(8)
H10_4 H 0.3299 0.8820 0.5585
C31_4 C 0.1261(6) 0.78381(18) 0.1133(7)
C36_4 C 0.0280(5) 0.77324(17) 0.0696(7)
C37_4 C 0.3102(6) 0.84685(16) 0.1295(6)
C38_4 C 0.3863(5) 0.85537(18) 0.0876(7)
C39_4 C 0.4752(6) 0.84728(18) 0.1058(7)
H13_4 H 0.5053 0.8339 0.1536
C40_4 C 0.5138(6) 0.8629(2) 0.0388(7)
H14_4 H 0.5738 0.8616 0.0325
O2_4 O 0.0230(4) 0.89948(17) 0.9224(6)
O34_2 O 0.5075(4) 0.90500(13) 0.8710(5)
C41_4 C 0.4451(6) 0.88034(18) 0.9844(8)
C42_4 C 0.4383(5) 0.90231(16) 0.9031(7)
K2_4 K 0.94240(13) 0.85519(5) 0.37792(19)
O4_4 O 0.8910(5) 0.84189(14) 0.1534(6)
O6_4 O 0.7367(4) 0.84092(11) 0.1130(5)
O8_4 O 0.8647(3) 0.80133(12) 0.3137(4)
O12_4 O 0.6668(3) 0.82597(12) 0.3071(5)
O13_4 O 0.7653(4) 0.85767(13) 0.3918(6)
O14_4 O 0.6346(3) 0.87555(10) 0.4884(4)
O15_4 O 0.4925(4) 0.90500(13) 0.6290(5)
C2_4 C 0.8124(6) 0.84878(19) 0.0998(7)
C3_4 C 0.8059(5) 0.86837(17) 0.0134(7)
C7_4 C 0.8739(6) 0.78381(18) 0.3867(7)
C12_4 C 0.9720(5) 0.77324(17) 0.4304(7)
C13_4 C 0.6898(6) 0.84685(16) 0.3705(6)
C14_4 C 0.6137(5) 0.85537(18) 0.4124(7)
C15_4 C 0.5248(6) 0.84728(18) 0.3942(7)
H5_4 H 0.4947 0.8339 0.3464
C16_4 C 0.4862(6) 0.8629(2) 0.4612(7)
H6_4 H 0.4262 0.8616 0.4675
C17_4 C 0.5549(6) 0.88034(18) 0.5156(8)
C18_4 C 0.5617(5) 0.90231(16) 0.5969(7)
O22_4 O 0.9770(4) 0.89948(17) 0.5776(6)
C34_4 C 0.8806(5) 0.76350(17) 0.0305(8)
H11_4 H 0.8186 0.7635 0.0300
C35_4 C 0.9503(6) 0.77943(18) 0.0947(7)
H12_4 H 0.9443 0.7920 0.1456
O41_2 O 0.9148(4) 0.92195(12) 0.7977(5)
O5_4 O 0.8859(3) 0.87592(10) 0.9931(4)
C1_4 C 0.9410(6) 0.90555(17) 0.8766(7)
C4_4 C 0.8634(5) 0.89498(18) 0.9122(7)
C5_4 C 0.7714(6) 0.89946(17) 0.8841(8)
H1_4 H 0.7391 0.9116 0.8321
C6_4 C 0.7328(6) 0.8831(2) 0.9450(8)
H2_4 H 0.6701 0.8820 0.9415
C32_4 C 0.8844(5) 0.72754(15) 0.8846(6)
C33_4 C 0.9179(5) 0.74811(18) 0.9690(7)
O63_2 O 0.7364(4) 0.00009(12) 0.9904(5)
O18_2 O 0.2636(4) 0.99991(12) 0.0096(5)
loop_
_geom_bond_atom_site_label_1
_geom_bond_atom_site_label_2
_geom_bond_site_symmetry_1
_geom_bond_site_symmetry_2
O43 K8 1_555 1_555
O59 K8 1_555 1_555
O60 K8 1_555 1_555
O62 K8 1_555 1_555
O65 K8 1_555 1_555
Zn10 O59 1_555 1_555
Zn3 O15 1_555 1_555
H6 C16 1_555 1_555
O45 K4 1_555 1_555
O58 Zn3 1_555 1_555
O64 K4 1_555 1_555
K4 O58 1_555 1_555
Zn1 O1 1_555 1_555
K1 O2 1_555 1_555
O1 C1 1_555 1_555
O2 C1 1_555 1_555
C1 C4 1_555 1_555
C4 O5 1_555 1_555
C5 C4 1_555 1_555
H1 C5 1_555 1_555
C6 C5 1_555 1_555
H2 C6 1_555 1_555
O26 C32 1_555 1_555
O29 C32 1_555 1_555
O30 C33 1_555 1_555
O64 K1 1_555 1_555
C32 C33 1_555 1_555
C42 O64 1_555 1_555
O36 C48 1_555 1_555
O37 C43 1_555 1_555
O38 C43 1_555 1_555
O39 C44 1_555 1_555
O40 Zn1 1_555 1_555
C43 C44 1_555 1_555
C44 C45 1_555 1_555
C45 H15 1_555 1_555
C46 C45 1_555 1_555
H16 C46 1_555 1_555
C47 O39 1_555 1_555
C48 O40 1_555 1_555
Zn7 O26 1_555 1_555
Zn10_2 O37 1_555 1_555
K10 O1 1_555 1_555
K13 O29 1_555 1_555
K18 O36 1_555 1_555
K20 O37 1_555 1_555
O42 Zn1 1_555 1_555
O45 K1 1_555 1_555
O66 Zn1 1_555 1_555
K1 O42 1_555 1_555
O29 K15 1_555 1_555
O30 K15 1_555 1_555
C41 C42 1_555 1_555
O36 K10 1_555 1_555
O38 K18 1_555 1_555
O39 K18 1_555 1_555
C46 C47 1_555 1_555
C47 C48 1_555 1_555
K15 O50 1_555 1_555
Zn2 O6 1_555 1_555
K2 O4 1_555 1_555
K3 O9 1_555 1_555
O4 C2 1_555 1_555
O6 C2 1_555 1_555
O7 C8 1_555 1_555
O8 Zn2 1_555 1_555
O9 C7 1_555 1_555
O10 C8 1_555 1_555
O11 C9 1_555 1_555
O12 Zn2 1_555 1_555
O13 K2 1_555 1_555
O14 C14 1_555 1_555
O16 Zn3_2 1_555 1_555
O17 C19 1_555 1_555
O18 C20 1_555 1_555
O19 C18 1_555 1_555
C2 C3 1_555 1_555
C7 O8 1_555 1_555
C8 C9 1_555 1_555
C9 C10 1_555 1_555
C10 H3 1_555 1_555
C11 C10 1_555 1_555
H4 C11 1_555 1_555
C12 O11 1_555 1_555
C13 O12 1_555 1_555
C14 C13 1_555 1_555
C15 C14 1_555 1_555
C17 O14 1_555 1_555
C18 C17 1_555 1_555
C19 O16 1_555 1_555
C20 C19 1_555 1_555
C21 C20 1_555 1_555
H7 C21 1_555 1_555
C22 C21 1_555 1_555
H8 C22 1_555 1_555
Zn4 O25 1_555 1_555
K10 O13 1_555 1_555
K7 O28 1_555 1_555
O42 C25 1_555 1_555
O22 K2 1_555 1_555
O23 K2 1_555 1_555
O24 K2 1_555 1_555
O25 C26 1_555 1_555
O27 Zn4 1_555 1_555
O28 C31 1_555 1_555
O31 Zn4 1_555 1_555
C25 O22 1_555 1_555
C26 O23 1_555 1_555
C27 O24 1_555 1_555
C28 O24 1_555 1_555
C29 C28 1_555 1_555
H9 C29 1_555 1_555
C30 C27 1_555 1_555
H10 C30 1_555 1_555
C31 O27 1_555 1_555
C34 H11 1_555 1_555
C35 C34 1_555 1_555
H12 C35 1_555 1_555
C37 O31 1_555 1_555
C38 O33 1_555 1_555
C39 C38 1_555 1_555
Zn8 O7 1_555 1_555
K13 O9 1_555 1_555
K15 O10 1_555 1_555
K18 O16 1_555 1_555
O47 Zn4 1_555 1_555
O48 Zn2 1_555 1_555
O49 K3 1_555 1_555
O52 K7 1_555 1_555
O54 K3 1_555 1_555
O55 K3 1_555 1_555
O56 K7 1_555 1_555
O57 Zn3_2 1_555 1_555
K2 O8 1_555 1_555
K3 O12 1_555 1_555
O4 K6 1_555 1_555
O10 K13 1_555 1_555
O11 K13 1_555 1_555
O13 C13 1_555 1_555
O14 K10 1_555 1_555
O19 K10 1_555 1_555
O19 K18 1_555 1_555
C7 C12 1_555 1_555
C11 C12 1_555 1_555
K10 O22 1_555 1_555
K6 O23 1_555 1_555
K6 O27 1_555 1_555
K6 O32 1_555 1_555
K7 O31 1_555 1_555
O32 C37 1_555 1_555
C25 C28 1_555 1_555
C26 C27 1_555 1_555
C29 C30 1_555 1_555
C31 C36 1_555 1_555
C35 C36 1_555 1_555
C37 C38 1_555 1_555
K13 O49 1_555 1_555
O3 C24 1_555 1_555
O20 C24 1_555 1_555
C24 C23 1_555 1_555
Zn6 O20 1_555 1_555
K11 O3 1_555 1_555
K20 O3 1_555 1_555
H14 C40 1_555 1_555
O43 C24_2 1_555 1_555
O60 C19_2 1_555 1_555
O62 C20_2 1_555 1_555
O20_2 C24_2 1_555 1_555
C19_2 O58 1_555 1_555
C20_2 C19_2 1_555 1_555
C21_2 C20_2 1_555 1_555
H7_2 C21_2 1_555 1_555
C22_2 C21_2 1_555 1_555
H8_2 C22_2 1_555 1_555
C23_2 O62 1_555 1_555
C24_2 C23_2 1_555 1_555
Zn6 O20_2 1_555 1_555
K11_2 O43 1_555 1_555
C22_2 C23_2 1_555 1_555
O45 C48_2 1_555 1_555
C48_2 O66 1_555 1_555
C47_2 C48_2 1_555 1_555
O59 C43_2 1_555 1_555
O61 C43_2 1_555 1_555
O63 C44_2 1_555 1_555
C43_2 C44_2 1_555 1_555
C44_2 C45_2 1_555 1_555
C45_2 H15_2 1_555 1_555
C46_2 C45_2 1_555 1_555
H16_2 C46_2 1_555 1_555
O65_2 K20 1_555 1_555
Zn1_2 O1_2 1_555 1_555
O1_2 C1_2 1_555 1_555
C1_2 C4_2 1_555 1_555
C4_2 O5_2 1_555 1_555
C5_2 C4_2 1_555 1_555
H1_2 C5_2 1_555 1_555
C6_2 C5_2 1_555 1_555
H2_2 C6_2 1_555 1_555
O26_2 C32_2 1_555 1_555
O29_2 C32_2 1_555 1_555
C32_2 C33_2 1_555 1_555
O36_2 C48_3 1_555 1_555
O40_2 Zn1_2 1_555 1_555
C47_3 O39_2 1_555 1_555
C48_3 O40_2 1_555 1_555
Zn7_2 O26_2 1_555 1_555
K10_2 O1_2 1_555 1_555
K13_2 O29_2 1_555 1_555
K18_2 O36_2 1_555 1_555
O36_2 K10_2 1_555 1_555
O39_2 K18_2 1_555 1_555
C47_3 C48_3 1_555 1_555
K18_2 O60_2 1_555 1_555
Zn2_2 O6_2 1_555 1_555
Zn3_3 O15_2 1_555 1_555
K2_2 O4_2 1_555 1_555
K3_2 O9_2 1_555 1_555
K4_2 O17_2 1_555 1_555
O4_2 C2_2 1_555 1_555
O6_2 C2_2 1_555 1_555
O8_2 Zn2_2 1_555 1_555
O9_2 C7_2 1_555 1_555
O12_2 Zn2_2 1_555 1_555
O13_2 K2_2 1_555 1_555
O14_2 C14_2 1_555 1_555
O15_2 C18_2 1_555 1_555
O16_2 Zn3_3 1_555 1_555
O17_2 C19_3 1_555 1_555
O19_2 C18_2 1_555 1_555
C2_2 C3_2 1_555 1_555
C7_2 O8_2 1_555 1_555
C12_2 O11_2 1_555 1_555
C13_2 O12_2 1_555 1_555
C14_2 C13_2 1_555 1_555
C15_2 C14_2 1_555 1_555
H5_2 C15_2 1_555 1_555
C16_2 C15_2 1_555 1_555
H6_2 C16_2 1_555 1_555
C17_2 O14_2 1_555 1_555
C18_2 C17_2 1_555 1_555
C19_3 O16_2 1_555 1_555
C20_3 C19_3 1_555 1_555
C21_3 C20_3 1_555 1_555
H7_3 C21_3 1_555 1_555
C22_3 C21_3 1_555 1_555
H8_3 C22_3 1_555 1_555
K10_2 O13_2 1_555 1_555
O22_2 K2_2 1_555 1_555
C34_2 H11_2 1_555 1_555
C35_2 C34_2 1_555 1_555
H12_2 C35_2 1_555 1_555
K13_2 O9_2 1_555 1_555
K18_2 O16_2 1_555 1_555
O45_2 K4_2 1_555 1_555
O48_2 Zn2_2 1_555 1_555
O49_2 K3_2 1_555 1_555
O52_2 K3_2 1_555 1_555
O54_2 K3_2 1_555 1_555
O55_2 K3_2 1_555 1_555
O57_2 Zn3_3 1_555 1_555
O58_2 Zn3_3 1_555 1_555
O64_2 K4_2 1_555 1_555
K2_2 O8_2 1_555 1_555
K3_2 O12_2 1_555 1_555
K4_2 O58_2 1_555 1_555
O11_2 K13_2 1_555 1_555
O13_2 C13_2 1_555 1_555
O14_2 K10_2 1_555 1_555
O19_2 K10_2 1_555 1_555
O19_2 K18_2 1_555 1_555
C7_2 C12_2 1_555 1_555
C16_2 C17_2 1_555 1_555
K10_2 O22_2 1_555 1_555
K13_2 O49_2 1_555 1_555
K8_2 O38_2 1_555 1_555
O37_2 C43_3 1_555 1_555
O38_2 C43_3 1_555 1_555
C43_3 C44_3 1_555 1_555
C44_3 C45_3 1_555 1_555
C45_3 H15_3 1_555 1_555
C46_3 C45_3 1_555 1_555
H16_3 C46_3 1_555 1_555
Zn10_3 O37_2 1_555 1_555
K20_2 O37_2 1_555 1_555
O43_2 K8_2 1_555 1_555
O59_2 K8_2 1_555 1_555
O62_2 K8_2 1_555 1_555
O65_3 K8_2 1_555 1_555
Zn10_3 O59_2 1_555 1_555
O3_2 C24_3 1_555 1_555
O20_3 C24_3 1_555 1_555
C24_3 C23_3 1_555 1_555
Zn6_2 O20_3 1_555 1_555
K11_3 O3_2 1_555 1_555
K20_2 O3_2 1_555 1_555
K20_2 O61_2 1_555 1_555
K1_2 O2_2 1_555 1_555
O57_2 C42_2 1_555 1_555
O64_2 K1_2 1_555 1_555
C42_2 O64_2 1_555 1_555
O42_2 Zn1_3 1_555 1_555
O45_2 K1_2 1_555 1_555
O66_2 Zn1_3 1_555 1_555
K1_2 O42_2 1_555 1_555
O30_2 K15_2 1_555 1_555
C41_2 C42_2 1_555 1_555
K15_2 O50_2 1_555 1_555
O7_2 C8_2 1_555 1_555
O10_2 C8_2 1_555 1_555
C8_2 C9_2 1_555 1_555
C9_2 C10_2 1_555 1_555
C10_2 H3_2 1_555 1_555
C11_2 C10_2 1_555 1_555
H4_2 C11_2 1_555 1_555
Zn4_2 O25_2 1_555 1_555
K7_2 O28_2 1_555 1_555
O42_2 C25_2 1_555 1_555
O25_2 C26_2 1_555 1_555
O27_2 Zn4_2 1_555 1_555
O28_2 C31_2 1_555 1_555
O31_2 Zn4_2 1_555 1_555
C26_2 O23_2 1_555 1_555
C27_2 O24_2 1_555 1_555
C28_2 O24_2 1_555 1_555
C29_2 C28_2 1_555 1_555
H9_2 C29_2 1_555 1_555
C30_2 C27_2 1_555 1_555
H10_2 C30_2 1_555 1_555
C31_2 O27_2 1_555 1_555
C37_2 O31_2 1_555 1_555
C38_2 O33_2 1_555 1_555
C39_2 C38_2 1_555 1_555
H13_2 C39_2 1_555 1_555
C40_2 C39_2 1_555 1_555
H14_2 C40_2 1_555 1_555
Zn8_2 O7_2 1_555 1_555
K15_2 O10_2 1_555 1_555
O47_2 Zn4_2 1_555 1_555
O52_2 K7_2 1_555 1_555
O54_2 K7_2 1_555 1_555
O56_2 K7_2 1_555 1_555
K6_2 O23_2 1_555 1_555
K6_2 O27_2 1_555 1_555
K6_2 O32_2 1_555 1_555
K7_2 O31_2 1_555 1_555
O32_2 C37_2 1_555 1_555
C25_2 C28_2 1_555 1_555
C26_2 C27_2 1_555 1_555
C29_2 C30_2 1_555 1_555
C31_2 C36_2 1_555 1_555
C37_2 C38_2 1_555 1_555
O60_2 C19_4 1_555 1_555
C19_4 O58_2 1_555 1_555
C20_4 C19_4 1_555 1_555
C21_4 C20_4 1_555 1_555
H7_4 C21_4 1_555 1_555
C22_4 C21_4 1_555 1_555
H8_4 C22_4 1_555 1_555
O45_2 C48_4 1_555 1_555
C48_4 O66_2 1_555 1_555
C47_4 C48_4 1_555 1_555
O43_2 C24_4 1_555 1_555
O20_4 C24_4 1_555 1_555
C23_4 O62_2 1_555 1_555
C24_4 C23_4 1_555 1_555
Zn6_3 O20_4 1_555 1_555
K11_4 O43_2 1_555 1_555
O59_2 C43_4 1_555 1_555
O61_2 C43_4 1_555 1_555
C43_4 C44_4 1_555 1_555
C44_4 C45_4 1_555 1_555
C45_4 H15_4 1_555 1_555
C46_4 C45_4 1_555 1_555
H16_4 C46_4 1_555 1_555
O65_4 K20_2 1_555 1_555
H14_3 C40_3 1_555 1_555
Zn10 O34 1_555 1_555
Zn7_2 O6_3 1_555 1_555
K2_3 O4_3 1_555 1_555
O4_3 C2_3 1_555 1_555
O6_3 C2_3 1_555 1_555
O47_2 C8_3 1_555 1_555
O8_3 Zn7_2 1_555 1_555
O49_2 C7_3 1_555 1_555
O52_2 C8_3 1_555 1_555
O55_2 C9_3 1_555 1_555
O12_3 Zn7_2 1_555 1_555
O13_3 K2_3 1_555 1_555
O14_3 C14_3 1_555 1_555
O65 C18_3 1_555 1_555
C2_3 C3_3 1_555 1_555
C7_3 O8_3 1_555 1_555
C8_3 C9_3 1_555 1_555
C9_3 C10_3 1_555 1_555
C10_3 H3_3 1_555 1_555
C11_3 C10_3 1_555 1_555
H4_3 C11_3 1_555 1_555
C12_3 O55_2 1_555 1_555
C13_3 O12_3 1_555 1_555
C14_3 C13_3 1_555 1_555
C15_3 C14_3 1_555 1_555
C17_3 O14_3 1_555 1_555
C18_3 C17_3 1_555 1_555
Zn8_2 O25_3 1_555 1_555
K11_2 O13_3 1_555 1_555
O21 C25_3 1_555 1_555
O22_3 K2_3 1_555 1_555
O23_3 K2_3 1_555 1_555
O24_3 K2_3 1_555 1_555
O25_3 C26_3 1_555 1_555
O27_3 Zn8_2 1_555 1_555
O50_2 C31_3 1_555 1_555
O31_3 Zn8_2 1_555 1_555
C25_3 O22_3 1_555 1_555
C26_3 O23_3 1_555 1_555
C27_3 O24_3 1_555 1_555
C28_3 O24_3 1_555 1_555
C29_3 C28_3 1_555 1_555
H9_3 C29_3 1_555 1_555
C30_3 C27_3 1_555 1_555
H10_3 C30_3 1_555 1_555
C31_3 O27_3 1_555 1_555
C34_3 H11_3 1_555 1_555
C35_3 C34_3 1_555 1_555
H12_3 C35_3 1_555 1_555
C37_3 O31_3 1_555 1_555
C38_3 O33_3 1_555 1_555
C39_3 C38_3 1_555 1_555
Zn6 O21 1_555 1_555
K11 O21 1_555 1_555
O41 K11_2 1_555 1_555
K2_3 O8_3 1_555 1_555
K13_2 O12_3 1_555 1_555
O4_3 K6_3 1_555 1_555
O13_3 C13_3 1_555 1_555
O14_3 K11_2 1_555 1_555
O65 K11_2 1_555 1_555
C7_3 C12_3 1_555 1_555
C11_3 C12_3 1_555 1_555
K11_2 O22_3 1_555 1_555
K6_3 O23_3 1_555 1_555
K6_3 O27_3 1_555 1_555
K6_3 O32_3 1_555 1_555
K15_2 O31_3 1_555 1_555
O32_3 C37_3 1_555 1_555
C25_3 C28_3 1_555 1_555
C26_3 C27_3 1_555 1_555
C29_3 C30_3 1_555 1_555
C31_3 C36_3 1_555 1_555
C35_3 C36_3 1_555 1_555
C37_3 C38_3 1_555 1_555
Zn6 O41 1_555 1_555
K11 O2_3 1_555 1_555
O41 C1_3 1_555 1_555
O2_3 C1_3 1_555 1_555
C1_3 C4_3 1_555 1_555
C4_3 O5_3 1_555 1_555
C5_3 C4_3 1_555 1_555
H1_3 C5_3 1_555 1_555
C6_3 C5_3 1_555 1_555
H2_3 C6_3 1_555 1_555
O48_2 C32_3 1_555 1_555
O54_2 C32_3 1_555 1_555
O56_2 C33_3 1_555 1_555
O65_2 K11 1_555 1_555
C32_3 C33_3 1_555 1_555
C42_3 O65_2 1_555 1_555
C41_3 C42_3 1_555 1_555
Zn10_2 O15_3 1_555 1_555
H6_3 C16_3 1_555 1_555
O47 C8_4 1_555 1_555
O52 C8_4 1_555 1_555
C8_4 C9_4 1_555 1_555
C9_4 C10_4 1_555 1_555
C10_4 H3_4 1_555 1_555
C11_4 C10_4 1_555 1_555
H4_4 C11_4 1_555 1_555
Zn8 O25_4 1_555 1_555
O21_2 C25_4 1_555 1_555
O25_4 C26_4 1_555 1_555
O27_4 Zn8 1_555 1_555
O50 C31_4 1_555 1_555
O31_4 Zn8 1_555 1_555
C26_4 O23_4 1_555 1_555
C27_4 O24_4 1_555 1_555
C28_4 O24_4 1_555 1_555
C29_4 C28_4 1_555 1_555
H9_4 C29_4 1_555 1_555
C30_4 C27_4 1_555 1_555
H10_4 C30_4 1_555 1_555
C31_4 O27_4 1_555 1_555
C37_4 O31_4 1_555 1_555
C38_4 O33_4 1_555 1_555
C39_4 C38_4 1_555 1_555
H13_4 C39_4 1_555 1_555
C40_4 C39_4 1_555 1_555
H14_4 C40_4 1_555 1_555
Zn6_2 O21_2 1_555 1_555
K11_3 O21_2 1_555 1_555
K6_4 O23_4 1_555 1_555
K6_4 O27_4 1_555 1_555
K6_4 O32_4 1_555 1_555
K15 O31_4 1_555 1_555
O32_4 C37_4 1_555 1_555
C25_4 C28_4 1_555 1_555
C26_4 C27_4 1_555 1_555
C29_4 C30_4 1_555 1_555
C31_4 C36_4 1_555 1_555
C37_4 C38_4 1_555 1_555
K11_3 O2_4 1_555 1_555
O34_2 C42_4 1_555 1_555
O65_4 K11_3 1_555 1_555
C42_4 O65_4 1_555 1_555
Zn10_3 O34_2 1_555 1_555
C41_4 C42_4 1_555 1_555
Zn7 O6_4 1_555 1_555
Zn10_3 O15_4 1_555 1_555
K2_4 O4_4 1_555 1_555
O4_4 C2_4 1_555 1_555
O6_4 C2_4 1_555 1_555
O8_4 Zn7 1_555 1_555
O49 C7_4 1_555 1_555
O12_4 Zn7 1_555 1_555
O13_4 K2_4 1_555 1_555
O14_4 C14_4 1_555 1_555
O15_4 C18_4 1_555 1_555
O65_3 C18_4 1_555 1_555
C2_4 C3_4 1_555 1_555
C7_4 O8_4 1_555 1_555
C12_4 O55 1_555 1_555
C13_4 O12_4 1_555 1_555
C14_4 C13_4 1_555 1_555
C15_4 C14_4 1_555 1_555
H5_4 C15_4 1_555 1_555
C16_4 C15_4 1_555 1_555
H6_4 C16_4 1_555 1_555
C17_4 O14_4 1_555 1_555
C18_4 C17_4 1_555 1_555
K11_4 O13_4 1_555 1_555
O22_4 K2_4 1_555 1_555
C34_4 H11_4 1_555 1_555
C35_4 C34_4 1_555 1_555
H12_4 C35_4 1_555 1_555
O41_2 K11_4 1_555 1_555
K2_4 O8_4 1_555 1_555
K13 O12_4 1_555 1_555
O13_4 C13_4 1_555 1_555
O14_4 K11_4 1_555 1_555
O65_3 K11_4 1_555 1_555
C7_4 C12_4 1_555 1_555
C16_4 C17_4 1_555 1_555
K11_4 O22_4 1_555 1_555
Zn6_3 O41_2 1_555 1_555
O41_2 C1_4 1_555 1_555
C1_4 C4_4 1_555 1_555
C4_4 O5_4 1_555 1_555
C5_4 C4_4 1_555 1_555
H1_4 C5_4 1_555 1_555
C6_4 C5_4 1_555 1_555
H2_4 C6_4 1_555 1_555
O48 C32_4 1_555 1_555
O54 C32_4 1_555 1_555
C32_4 C33_4 1_555 1_555

#END
