
###############################################################################
#
# This file contains modified crystal structure data generated from the
# MOF subset of the Cambridge Structural Database (CSD) v543 
# hosted by the Cambridge Crystallographic Data Centre (CCDC).
#
# This work is licensed under the Creative Commons
# Attribution-NonCommercial-ShareAlike 4.0 International License.
# To view a copy of this license, visit
# http://creativecommons.org/licenses/by-nc-sa/4.0/
# or send a letter to
# Creative Commons, PO Box 1866, Mountain View, CA 94042, USA.
#
# CIF created using the CSD Python API on 29 September 2022
# The structure has been converted into the P1 space group
# The structure has a 3D framework
# The original CSD entry ODUNEH is in the monoclinic crystal system
# The framework has been calculated to contain at least 10.0% void space
# The void calculation uses a probe of radius 1.32A, grid spacing 0.4
#
###############################################################################

data_ODUNEH
_chemical_formula_moiety         '(C264 H224 N8 O85 Zn22)n'
_symmetry_cell_setting           triclinic
_symmetry_space_group_name_H-M   'P 1'
_symmetry_Int_Tables_number      1
_space_group_name_Hall           'P 1'
loop_
_symmetry_equiv_pos_site_id
_symmetry_equiv_pos_as_xyz
1 x,y,z
_cell_length_a                   12.829(3)
_cell_length_b                   40.672(8)
_cell_length_c                   18.528(4)
_cell_angle_alpha                90
_cell_angle_beta                 109.99(3)
_cell_angle_gamma                90
_cell_volume                     9085.11
loop_
_atom_site_label
_atom_site_type_symbol
_atom_site_fract_x
_atom_site_fract_y
_atom_site_fract_z
H22 H 0.0754 0.0125 0.8721
Zn2 Zn 0.07571(4) 0.904090(13) 0.09377(3)
O3 O 0.0562(3) 0.86474(8) 0.01550(18)
O10 O 0.2376(3) 0.88690(11) 0.1456(3)
O11 O 0.1290(3) 0.93145(8) 0.01857(18)
C15 C 0.0282(4) 0.83510(12) 0.0104(3)
C32 C 0.3053(6) 0.8855(3) 0.1177(6)
H24 H 0.2596 0.8754 0.0699
H25 H 0.3048 0.9086 0.1048
C33 C 0.4148(8) 0.8774(4) 0.1104(8)
H26 H 0.4322 0.8934 0.0781
H27 H 0.4713 0.8776 0.1603
H28 H 0.4114 0.8559 0.0881
O20 O 0.1243(2) 0.94455(7) 0.17323(16)
O27 O 0.0261(2) 0.87546(7) 0.16875(15)
Zn8 Zn 0.10399(4) 0.848530(12) 0.39640(3)
O12 O 0.0854(2) 0.92184(7) 0.45700(17)
O13 O 0.2070(2) 0.88058(7) 0.46323(17)
O17 O 0.0361(3) 0.82254(8) 0.45922(19)
O23 O 0.1993(4) 0.80901(10) 0.3797(2)
O25 O 0.1639(4) 0.84354(12) 0.2936(3)
C34 C 0.1829(4) 0.90910(11) 0.4773(2)
C35 C 0.2759(3) 0.93036(11) 0.5236(2)
C36 C 0.2588(3) 0.96400(11) 0.5328(2)
H29 H 0.1877 0.9727 0.5123
C37 C 0.3471(3) 0.98442(12) 0.5723(3)
C38 C 0.4532(4) 0.97100(13) 0.6071(2)
C39 C 0.4693(4) 0.93690(13) 0.5993(3)
H31 H 0.5395 0.9279 0.6227
C40 C 0.3840(4) 0.91685(13) 0.5580(3)
H32 H 0.3965 0.8946 0.5526
C41 C 0.5502(4) 0.99268(12) 0.6462(2)
C46 C 0.6245(4) 0.98557(13) 0.7206(3)
H36 H 0.6136 0.9669 0.7462
H49 H 0.0303 0.9967 0.6179
C49 C 0.4366(4) 0.68666(12) 0.0387(3)
C50 C 0.3721(6) 0.67523(18) 0.0818(4)
H37 H 0.3529 0.6531 0.0799
C51 C 0.3359(6) 0.69732(19) 0.1284(4)
H38 H 0.2967 0.6890 0.1583
C52 C 0.3571(4) 0.73046(12) 0.1305(3)
C53 C 0.4105(5) 0.74048(16) 0.0842(4)
H39 H 0.4190 0.7629 0.0781
C54 C 0.4539(5) 0.71828(15) 0.0444(4)
H40 H 0.4996 0.7269 0.0195
C55 C 0.3154(5) 0.75039(12) 0.1765(3)
C56 C 0.3249(6) 0.74301(18) 0.2521(4)
H41 H 0.3566 0.7230 0.2725
C57 C 0.2880(5) 0.76474(15) 0.3004(4)
H42 H 0.2997 0.7594 0.3514
C58 C 0.2366(4) 0.79265(13) 0.2698(3)
C59 C 0.2314(6) 0.8029(2) 0.1967(5)
H43 H 0.2054 0.8236 0.1780
C60 C 0.2691(6) 0.7793(2) 0.1503(4)
H44 H 0.2599 0.7849 0.0998
C61 C 0.1974(5) 0.81573(13) 0.3174(4)
Zn1 Zn 0.0000 0.902791(18) 0.2500
O18 O 0.1348(2) 0.92850(8) 0.29068(17)
H30 H 0.6642 0.9931 0.4245
C42 C 0.4282(4) 0.97822(14) 0.3908(3)
H33 H 0.4769 0.9719 0.4388
C43 C 0.3372(4) 0.96027(13) 0.3554(3)
H34 H 0.3213 0.9425 0.3814
C44 C 0.2643(3) 0.96727(12) 0.2800(2)
C45 C 0.2858(4) 0.99372(12) 0.2438(2)
H35 H 0.2398 0.9983 0.1939
C47 C 0.1668(3) 0.94504(10) 0.2435(3)
N1 N 0.3937(4) 0.53411(12) 0.0799(3)
C2 C 0.7759(3) 0.56964(11) 0.0236(2)
C3 C 0.7588(3) 0.53600(11) 0.0328(2)
H1 H 0.6877 0.5273 0.0123
C4 C 0.8471(3) 0.51558(12) 0.0723(3)
H2 H 0.8358 0.4931 0.0755
C5 C 0.9532(4) 0.52900(13) 0.1071(2)
C6 C 0.9693(4) 0.56310(13) 0.0993(3)
C7 C 0.8840(4) 0.58315(13) 0.0580(3)
H4 H 0.8965 0.6054 0.0526
C29 C 0.4211(4) 0.54888(14) 0.0214(3)
H17 H 0.4861 0.5420 0.0145
C30 C 0.2916(5) 0.54324(18) 0.0963(4)
H18 H 0.2522 0.5600 0.0611
H19 H 0.3118 0.5514 0.1479
H20 H 0.2451 0.5242 0.0906
C31 C 0.4667(7) 0.50743(18) 0.1327(4)
H21 H 0.5303 0.5033 0.1179
H22_2 H 0.4246 0.4875 0.1279
H23 H 0.4906 0.5149 0.1850
N1_2 N 0.1063(4) 0.96589(12) 0.9201(3)
O7 O 0.3007(4) 0.69099(10) 0.6203(2)
O8 O 0.3361(4) 0.65646(12) 0.7064(3)
C16 C 0.0634(4) 0.81334(12) 0.9613(3)
C17 C 0.1279(6) 0.82477(18) 0.9182(4)
H9 H 0.1471 0.8469 0.9201
C18 C 0.1641(6) 0.80268(19) 0.8716(4)
H10 H 0.2033 0.8110 0.8417
C19 C 0.1429(4) 0.76954(12) 0.8695(3)
C20 C 0.0895(5) 0.75952(16) 0.9158(4)
H11 H 0.0810 0.7371 0.9219
C21 C 0.0461(5) 0.78172(15) 0.9556(4)
H12 H 0.0004 0.7731 0.9805
C22 C 0.1846(5) 0.74961(12) 0.8235(3)
C23 C 0.1751(6) 0.75699(18) 0.7479(4)
H13 H 0.1434 0.7770 0.7275
C24 C 0.2120(5) 0.73526(15) 0.6996(4)
H14 H 0.2003 0.7406 0.6486
C25 C 0.2634(4) 0.70735(13) 0.7302(3)
C26 C 0.2686(6) 0.6971(2) 0.8033(5)
H15 H 0.2946 0.6764 0.8220
C27 C 0.2309(6) 0.7207(2) 0.8497(4)
H16 H 0.2401 0.7151 0.9002
C28 C 0.3026(5) 0.68427(13) 0.6826(4)
C29_2 C 0.0789(4) 0.95112(14) 0.9786(3)
H17_2 H 0.0139 0.9580 0.9855
C30_2 C 0.2084(5) 0.95676(18) 0.9037(4)
H18_2 H 0.2478 0.9400 0.9389
H19_2 H 0.1882 0.9486 0.8521
H20_2 H 0.2549 0.9758 0.9094
C31_2 C 0.0333(7) 0.99257(18) 0.8673(4)
H23_2 H 0.0094 0.9851 0.8150
Zn9 Zn 0.39601(4) 0.651470(12) 0.60360(3)
Zn3 Zn 0.89601(4) 0.848530(12) 0.10360(3)
O1 O 0.9146(2) 0.92184(7) 0.04300(17)
O2 O 0.7930(2) 0.88058(7) 0.03677(17)
O4 O 0.9639(3) 0.82254(8) 0.04078(19)
C1 C 0.8171(4) 0.90910(11) 0.0227(2)
Zn7 Zn 0.57571(4) 0.595910(13) 0.59377(3)
O14 O 0.5562(3) 0.63526(8) 0.51550(18)
O16 O 0.4639(3) 0.67746(8) 0.54078(19)
O22 O 0.8007(4) 0.80901(10) 0.1203(2)
O24 O 0.8361(4) 0.84354(12) 0.2064(3)
C48 C 0.5282(4) 0.66490(12) 0.5104(3)
C49_2 C 0.5634(4) 0.68666(12) 0.4613(3)
C50_2 C 0.6279(6) 0.67523(18) 0.4182(4)
H37_2 H 0.6471 0.6531 0.4201
C51_2 C 0.6641(6) 0.69732(19) 0.3716(4)
H38_2 H 0.7033 0.6890 0.3417
C52_2 C 0.6429(4) 0.73046(12) 0.3695(3)
C53_2 C 0.5895(5) 0.74048(16) 0.4158(4)
H39_2 H 0.5810 0.7629 0.4219
C54_2 C 0.5461(5) 0.71828(15) 0.4556(4)
H40_2 H 0.5004 0.7269 0.4805
C55_2 C 0.6846(5) 0.75039(12) 0.3235(3)
C56_2 C 0.6751(6) 0.74301(18) 0.2479(4)
H41_2 H 0.6434 0.7230 0.2275
C57_2 C 0.7120(5) 0.76474(15) 0.1996(4)
H42_2 H 0.7003 0.7594 0.1486
C58_2 C 0.7634(4) 0.79265(13) 0.2302(3)
C59_2 C 0.7686(6) 0.8029(2) 0.3033(5)
H43_2 H 0.7946 0.8236 0.3220
C60_2 C 0.7309(6) 0.7793(2) 0.3497(4)
H44_2 H 0.7401 0.7849 0.4002
C61_2 C 0.8026(5) 0.81573(13) 0.1826(4)
Zn4 Zn 0.92429(4) 0.904090(13) 0.40623(3)
N2 N 0.8937(4) 0.96589(12) 0.5799(3)
O15 O 0.9438(3) 0.86474(8) 0.48450(18)
O21 O 0.8757(2) 0.94455(7) 0.32677(16)
O28 O 0.9739(2) 0.87546(7) 0.33125(15)
O29 O 0.7624(3) 0.88690(11) 0.3544(3)
O30 O 0.8710(3) 0.93145(8) 0.48143(18)
C62 C 0.9211(4) 0.95112(14) 0.5214(3)
H45 H 0.9861 0.9580 0.5145
C63 C 0.7916(5) 0.95676(18) 0.5963(4)
H46 H 0.7522 0.9400 0.5611
H47 H 0.8118 0.9486 0.6479
H48 H 0.7451 0.9758 0.5906
C64 C 0.9667(7) 0.99257(18) 0.6327(4)
H51 H 0.9906 0.9851 0.6850
C65 C 0.6947(6) 0.8855(3) 0.3823(6)
H52 H 0.7404 0.8754 0.4301
H53 H 0.6952 0.9086 0.3952
C66 C 0.5852(8) 0.8774(4) 0.3896(8)
H54 H 0.5678 0.8934 0.4219
H55 H 0.5287 0.8776 0.3397
H56 H 0.5886 0.8559 0.4119
Zn1_2 Zn 0.5000 0.597209(18) 0.7500
O5 O 0.6348(2) 0.57150(8) 0.79068(17)
O6 O 0.6243(2) 0.55545(7) 0.67323(16)
O9 O 0.5261(2) 0.62454(7) 0.66875(15)
H3 H 0.9605 0.4279 0.8773
C8 C 0.9498(4) 0.49268(12) 0.8538(2)
C9 C 0.9282(4) 0.52178(14) 0.8908(3)
H5 H 0.9769 0.5281 0.9388
C10 C 0.8372(4) 0.53973(13) 0.8554(3)
H6 H 0.8213 0.5575 0.8814
C11 C 0.7643(3) 0.53273(12) 0.7800(2)
C12 C 0.7858(4) 0.50628(12) 0.7438(2)
H7 H 0.7398 0.5017 0.6939
C13 C 0.8755(4) 0.48557(13) 0.7794(3)
H8 H 0.8864 0.4669 0.7538
C14 C 0.6668(3) 0.55496(10) 0.7435(3)
Zn6 Zn 0.42429(4) 0.595910(13) 0.90623(3)
Zn11 Zn 0.60399(4) 0.651470(12) 0.89640(3)
O18_2 O 0.3652(2) 0.57150(8) 0.70932(17)
O19 O 0.3757(2) 0.55545(7) 0.82677(16)
O26 O 0.4739(2) 0.62454(7) 0.83125(15)
H31_2 H 0.0395 0.4279 0.6227
C41_2 C 0.0502(4) 0.49268(12) 0.6462(2)
C42_2 C 0.0718(4) 0.52178(14) 0.6092(3)
H33_2 H 0.0231 0.5281 0.5612
C43_2 C 0.1628(4) 0.53973(13) 0.6446(3)
H34_2 H 0.1787 0.5575 0.6186
C44_2 C 0.2357(3) 0.53273(12) 0.7200(2)
C45_2 C 0.2142(4) 0.50628(12) 0.7562(2)
H35_2 H 0.2602 0.5017 0.8061
C46_2 C 0.1245(4) 0.48557(13) 0.7206(3)
H36_2 H 0.1136 0.4669 0.7462
C47_2 C 0.3332(3) 0.55496(10) 0.7565(3)
O14_2 O 0.4438(3) 0.63526(8) 0.98450(18)
O16_2 O 0.5361(3) 0.67746(8) 0.95922(19)
C48_2 C 0.4718(4) 0.66490(12) 0.9896(3)
O7_2 O 0.6993(4) 0.69099(10) 0.8797(2)
O8_2 O 0.6639(4) 0.65646(12) 0.7936(3)
C15_2 C 0.9718(4) 0.83510(12) 0.4896(3)
C16_2 C 0.9366(4) 0.81334(12) 0.5387(3)
C17_2 C 0.8721(6) 0.82477(18) 0.5818(4)
H9_2 H 0.8529 0.8469 0.5799
C18_2 C 0.8359(6) 0.80268(19) 0.6284(4)
H10_2 H 0.7967 0.8110 0.6583
C19_2 C 0.8571(4) 0.76954(12) 0.6305(3)
C20_2 C 0.9105(5) 0.75952(16) 0.5842(4)
H11_2 H 0.9190 0.7371 0.5781
C21_2 C 0.9539(5) 0.78172(15) 0.5444(4)
H12_2 H 0.9996 0.7731 0.5195
C22_2 C 0.8154(5) 0.74961(12) 0.6765(3)
C23_2 C 0.8249(6) 0.75699(18) 0.7521(4)
H13_2 H 0.8566 0.7770 0.7725
C24_2 C 0.7880(5) 0.73526(15) 0.8004(4)
H14_2 H 0.7997 0.7406 0.8514
C25_2 C 0.7366(4) 0.70735(13) 0.7698(3)
C26_2 C 0.7314(6) 0.6971(2) 0.6967(5)
H15_2 H 0.7054 0.6764 0.6780
C27_2 C 0.7691(6) 0.7207(2) 0.6503(4)
H16_2 H 0.7599 0.7151 0.5998
C28_2 C 0.6974(5) 0.68427(13) 0.8174(4)
Zn1_3 Zn 1.0000 0.902791(18) 0.2500
O5_2 O 0.8652(2) 0.92850(8) 0.20932(17)
H2_2 H 0.3358 0.9931 0.0755
C9_2 C 0.5718(4) 0.97822(14) 0.1092(3)
H5_2 H 0.5231 0.9719 0.0612
C10_2 C 0.6628(4) 0.96027(13) 0.1446(3)
H6_2 H 0.6787 0.9425 0.1186
C11_2 C 0.7357(3) 0.96727(12) 0.2200(2)
C12_2 C 0.7142(4) 0.99372(12) 0.2562(2)
H7_2 H 0.7602 0.9983 0.3061
C14_2 C 0.8332(3) 0.94504(10) 0.2565(3)
N2_2 N 0.6063(4) 0.53411(12) 0.4201(3)
O12_2 O 0.4146(2) 0.57816(7) 0.54300(17)
O13_2 O 0.2930(2) 0.61942(7) 0.53677(17)
O29_2 O 0.7376(3) 0.61310(11) 0.6456(3)
O30_2 O 0.6290(3) 0.56855(8) 0.51857(18)
C34_2 C 0.3171(4) 0.59090(11) 0.5227(2)
C35_2 C 0.2241(3) 0.56964(11) 0.4764(2)
C36_2 C 0.2412(3) 0.53600(11) 0.4672(2)
H29_2 H 0.3123 0.5273 0.4877
C37_2 C 0.1529(3) 0.51558(12) 0.4277(3)
H30_2 H 0.1642 0.4931 0.4245
C38_2 C 0.0468(4) 0.52900(13) 0.3929(2)
C39_2 C 0.0307(4) 0.56310(13) 0.4007(3)
C40_2 C 0.1160(4) 0.58315(13) 0.4420(3)
H32_2 H 0.1035 0.6054 0.4474
C62_2 C 0.5789(4) 0.54888(14) 0.4786(3)
H45_2 H 0.5139 0.5420 0.4855
C63_2 C 0.7084(5) 0.54324(18) 0.4037(4)
H46_2 H 0.7478 0.5600 0.4389
H47_2 H 0.6882 0.5514 0.3521
H48_2 H 0.7549 0.5242 0.4094
C64_2 C 0.5333(7) 0.50743(18) 0.3673(4)
H49_2 H 0.4697 0.5033 0.3821
H50 H 0.5754 0.4875 0.3721
H51_2 H 0.5094 0.5149 0.3150
C65_2 C 0.8053(6) 0.6145(3) 0.6177(6)
H52_2 H 0.7596 0.6246 0.5699
H53_2 H 0.8048 0.5914 0.6048
C66_2 C 0.9148(8) 0.6226(4) 0.6104(8)
H54_2 H 0.9322 0.6066 0.5781
H55_2 H 0.9713 0.6224 0.6603
H56_2 H 0.9114 0.6441 0.5881
O1_2 O 0.5854(2) 0.57816(7) 0.95700(17)
O2_2 O 0.7070(2) 0.61942(7) 0.96323(17)
O10_2 O 0.2624(3) 0.61310(11) 0.8544(3)
O11_2 O 0.3710(3) 0.56855(8) 0.98143(18)
C1_2 C 0.6829(4) 0.59090(11) 0.9773(2)
C32_2 C 0.1947(6) 0.6145(3) 0.8823(6)
H24_2 H 0.2404 0.6246 0.9301
H25_2 H 0.1952 0.5914 0.8952
C33_2 C 0.0852(8) 0.6226(4) 0.8896(8)
H26_2 H 0.0678 0.6066 0.9219
H27_2 H 0.0287 0.6224 0.8397
H28_2 H 0.0886 0.6441 0.9119
Zn1_4 Zn -0.0000 0.097209(18) 0.7500
O5_3 O 0.1348(2) 0.07150(8) 0.79068(17)
O6_2 O 0.1243(2) 0.05545(7) 0.67323(16)
O9_2 O 0.0261(2) 0.12454(7) 0.66875(15)
H2_3 H 0.6642 0.0069 0.9245
C9_3 C 0.4282(4) 0.02178(14) 0.8908(3)
H5_3 H 0.4769 0.0281 0.9388
C10_3 C 0.3372(4) 0.03973(13) 0.8554(3)
H6_3 H 0.3213 0.0575 0.8814
C11_3 C 0.2643(3) 0.03273(12) 0.7800(2)
C12_3 C 0.2858(4) 0.00628(12) 0.7438(2)
H7_3 H 0.2398 0.0017 0.6939
C14_3 C 0.1668(3) 0.05496(10) 0.7435(3)
Zn5 Zn 0.07571(4) 0.095910(13) 0.59377(3)
Zn11_2 Zn 0.10399(4) 0.151470(12) 0.89640(3)
Zn2_2 Zn 0.57571(4) 0.404090(13) 0.09377(3)
Zn3_2 Zn 0.39601(4) 0.348530(12) 0.10360(3)
O1_3 O 0.4146(2) 0.42184(7) 0.04300(17)
O2_3 O 0.2930(2) 0.38058(7) 0.03677(17)
O3_2 O 0.5562(3) 0.36474(8) 0.01550(18)
O4_2 O 0.4639(3) 0.32254(8) 0.04078(19)
O10_3 O 0.7376(3) 0.38690(11) 0.1456(3)
O11_3 O 0.6290(3) 0.43145(8) 0.01857(18)
C1_3 C 0.3171(4) 0.40910(11) 0.0227(2)
C15_3 C 0.5282(4) 0.33510(12) 0.0104(3)
C32_3 C 0.8053(6) 0.3855(3) 0.1177(6)
H24_3 H 0.7596 0.3754 0.0699
H25_3 H 0.8048 0.4086 0.1048
C33_3 C 0.9148(8) 0.3774(4) 0.1104(8)
H26_3 H 0.9322 0.3934 0.0781
H27_3 H 0.9713 0.3776 0.1603
H28_3 H 0.9114 0.3559 0.0881
O14_3 O 0.0562(3) 0.13526(8) 0.51550(18)
O20_2 O 0.6243(2) 0.44455(7) 0.17323(16)
O22_2 O 0.3007(4) 0.30901(10) 0.1203(2)
O24_2 O 0.3361(4) 0.34354(12) 0.2064(3)
O27_2 O 0.5261(2) 0.37546(7) 0.16875(15)
C48_3 C 0.0282(4) 0.16490(12) 0.5104(3)
C49_3 C 0.0634(4) 0.18666(12) 0.4613(3)
C50_3 C 0.1279(6) 0.17523(18) 0.4182(4)
H37_3 H 0.1471 0.1531 0.4201
C51_3 C 0.1641(6) 0.19732(19) 0.3716(4)
H38_3 H 0.2033 0.1890 0.3417
C52_3 C 0.1429(4) 0.23046(12) 0.3695(3)
C53_3 C 0.0895(5) 0.24048(16) 0.4158(4)
H39_3 H 0.0810 0.2629 0.4219
C54_3 C 0.0461(5) 0.21828(15) 0.4556(4)
H40_3 H 0.0004 0.2269 0.4805
C55_3 C 0.1846(5) 0.25039(12) 0.3235(3)
C56_3 C 0.1751(6) 0.24301(18) 0.2479(4)
H41_3 H 0.1434 0.2230 0.2275
C57_3 C 0.2120(5) 0.26474(15) 0.1996(4)
H42_3 H 0.2003 0.2594 0.1486
C58_3 C 0.2634(4) 0.29265(13) 0.2302(3)
C59_3 C 0.2686(6) 0.3029(2) 0.3033(5)
H43_3 H 0.2946 0.3236 0.3220
C60_3 C 0.2309(6) 0.2793(2) 0.3497(4)
H44_3 H 0.2401 0.2849 0.4002
C61_3 C 0.3026(5) 0.31573(13) 0.1826(4)
Zn4_2 Zn 0.42429(4) 0.404090(13) 0.40623(3)
Zn8_2 Zn 0.60399(4) 0.348530(12) 0.39640(3)
N2_3 N 0.3937(4) 0.46589(12) 0.5799(3)
O12_3 O 0.5854(2) 0.42184(7) 0.45700(17)
O13_3 O 0.7070(2) 0.38058(7) 0.46323(17)
O15_2 O 0.4438(3) 0.36474(8) 0.48450(18)
O17_2 O 0.5361(3) 0.32254(8) 0.45922(19)
O21_2 O 0.3757(2) 0.44455(7) 0.32677(16)
O23_2 O 0.6993(4) 0.30901(10) 0.3797(2)
O25_2 O 0.6639(4) 0.34354(12) 0.2936(3)
O28_2 O 0.4739(2) 0.37546(7) 0.33125(15)
O29_3 O 0.2624(3) 0.38690(11) 0.3544(3)
O30_3 O 0.3710(3) 0.43145(8) 0.48143(18)
C34_3 C 0.6829(4) 0.40910(11) 0.4773(2)
C35_3 C 0.7759(3) 0.43036(11) 0.5236(2)
C36_3 C 0.7588(3) 0.46400(11) 0.5328(2)
H29_3 H 0.6877 0.4727 0.5123
C37_3 C 0.8471(3) 0.48442(12) 0.5723(3)
H30_3 H 0.8358 0.5069 0.5755
C38_3 C 0.9532(4) 0.47100(13) 0.6071(2)
C39_3 C 0.9693(4) 0.43690(13) 0.5993(3)
C40_3 C 0.8840(4) 0.41685(13) 0.5580(3)
H32_3 H 0.8965 0.3946 0.5526
C62_3 C 0.4211(4) 0.45112(14) 0.5214(3)
H45_3 H 0.4861 0.4580 0.5145
C63_3 C 0.2916(5) 0.45676(18) 0.5963(4)
H46_3 H 0.2522 0.4400 0.5611
H47_3 H 0.3118 0.4486 0.6479
H48_3 H 0.2451 0.4758 0.5906
C64_3 C 0.4667(7) 0.49257(18) 0.6327(4)
H49_3 H 0.5303 0.4967 0.6179
H50_2 H 0.4246 0.5125 0.6279
H51_3 H 0.4906 0.4851 0.6850
C65_3 C 0.1947(6) 0.3855(3) 0.3823(6)
H52_3 H 0.2404 0.3754 0.4301
H53_3 H 0.1952 0.4086 0.3952
C66_3 C 0.0852(8) 0.3774(4) 0.3896(8)
H54_3 H 0.0678 0.3934 0.4219
H55_3 H 0.0287 0.3776 0.3397
H56_3 H 0.0886 0.3559 0.4119
O16_3 O 0.0361(3) 0.17746(8) 0.95922(19)
O7_3 O 0.1993(4) 0.19099(10) 0.8797(2)
O8_3 O 0.1639(4) 0.15646(12) 0.7936(3)
C15_4 C 0.4718(4) 0.33510(12) 0.4896(3)
C16_3 C 0.4366(4) 0.31334(12) 0.5387(3)
C17_3 C 0.3721(6) 0.32477(18) 0.5818(4)
H9_3 H 0.3529 0.3469 0.5799
C18_3 C 0.3359(6) 0.30268(19) 0.6284(4)
H10_3 H 0.2967 0.3110 0.6583
C19_3 C 0.3571(4) 0.26954(12) 0.6305(3)
C20_3 C 0.4105(5) 0.25952(16) 0.5842(4)
H11_3 H 0.4190 0.2371 0.5781
C21_3 C 0.4539(5) 0.28172(15) 0.5444(4)
H12_3 H 0.4996 0.2731 0.5195
C22_3 C 0.3154(5) 0.24961(12) 0.6765(3)
C23_3 C 0.3249(6) 0.25699(18) 0.7521(4)
H13_3 H 0.3566 0.2770 0.7725
C24_3 C 0.2880(5) 0.23526(15) 0.8004(4)
H14_3 H 0.2997 0.2406 0.8514
C25_3 C 0.2366(4) 0.20735(13) 0.7698(3)
C26_3 C 0.2314(6) 0.1971(2) 0.6967(5)
H15_3 H 0.2054 0.1764 0.6780
C27_3 C 0.2691(6) 0.2207(2) 0.6503(4)
H16_3 H 0.2599 0.2151 0.5998
C28_3 C 0.1974(5) 0.18427(13) 0.8174(4)
C49_4 C 0.9366(4) 0.18666(12) 0.0387(3)
C50_4 C 0.8721(6) 0.17523(18) 0.0818(4)
H37_4 H 0.8529 0.1531 0.0799
C51_4 C 0.8359(6) 0.19732(19) 0.1284(4)
H38_4 H 0.7967 0.1890 0.1583
C52_4 C 0.8571(4) 0.23046(12) 0.1305(3)
C53_4 C 0.9105(5) 0.24048(16) 0.0842(4)
H39_4 H 0.9190 0.2629 0.0781
C54_4 C 0.9539(5) 0.21828(15) 0.0444(4)
H40_4 H 0.9996 0.2269 0.0195
C55_4 C 0.8154(5) 0.25039(12) 0.1765(3)
C56_4 C 0.8249(6) 0.24301(18) 0.2521(4)
H41_4 H 0.8566 0.2230 0.2725
C57_4 C 0.7880(5) 0.26474(15) 0.3004(4)
H42_4 H 0.7997 0.2594 0.3514
C58_4 C 0.7366(4) 0.29265(13) 0.2698(3)
C59_4 C 0.7314(6) 0.3029(2) 0.1967(5)
H43_4 H 0.7054 0.3236 0.1780
C60_4 C 0.7691(6) 0.2793(2) 0.1503(4)
H44_4 H 0.7599 0.2849 0.0998
C61_4 C 0.6974(5) 0.31573(13) 0.3174(4)
N2_4 N 0.1063(4) 0.03411(12) 0.4201(3)
O29_4 O 0.2376(3) 0.11310(11) 0.6456(3)
O30_4 O 0.1290(3) 0.06855(8) 0.51857(18)
C62_4 C 0.0789(4) 0.04888(14) 0.4786(3)
H45_4 H 0.0139 0.0420 0.4855
C63_4 C 0.2084(5) 0.04324(18) 0.4037(4)
H46_4 H 0.2478 0.0600 0.4389
H47_4 H 0.1882 0.0514 0.3521
H48_4 H 0.2549 0.0242 0.4094
C64_4 C 0.0333(7) 0.00743(18) 0.3673(4)
H51_4 H 0.0094 0.0149 0.3150
C65_4 C 0.3053(6) 0.1145(3) 0.6177(6)
H52_4 H 0.2596 0.1246 0.5699
H53_4 H 0.3048 0.0914 0.6048
C66_4 C 0.4148(8) 0.1226(4) 0.6104(8)
H54_4 H 0.4322 0.1066 0.5781
H55_4 H 0.4713 0.1224 0.6603
H56_4 H 0.4114 0.1441 0.5881
O1_4 O 0.0854(2) 0.07816(7) 0.95700(17)
O2_4 O 0.2070(2) 0.11942(7) 0.96323(17)
C1_4 C 0.1829(4) 0.09090(11) 0.9773(2)
N1_3 N 0.8937(4) 0.03411(12) 0.0799(3)
C29_3 C 0.9211(4) 0.04888(14) 0.0214(3)
H17_3 H 0.9861 0.0420 0.0145
C30_3 C 0.7916(5) 0.04324(18) 0.0963(4)
H18_3 H 0.7522 0.0600 0.0611
H19_3 H 0.8118 0.0514 0.1479
H20_3 H 0.7451 0.0242 0.0906
C31_3 C 0.9667(7) 0.00743(18) 0.1327(4)
H23_3 H 0.9906 0.0149 0.1850
Zn1_5 Zn 0.5000 0.402791(18) 0.2500
O5_4 O 0.3652(2) 0.42850(8) 0.20932(17)
H3_2 H 0.0395 0.5721 0.1227
C8_2 C 0.0502(4) 0.50732(12) 0.1462(2)
C9_4 C 0.0718(4) 0.47822(14) 0.1092(3)
H5_4 H 0.0231 0.4719 0.0612
C10_4 C 0.1628(4) 0.46027(13) 0.1446(3)
H6_4 H 0.1787 0.4425 0.1186
C11_4 C 0.2357(3) 0.46727(12) 0.2200(2)
C12_4 C 0.2142(4) 0.49372(12) 0.2562(2)
H7_4 H 0.2602 0.4983 0.3061
C13_2 C 0.1245(4) 0.51443(13) 0.2206(3)
H8_2 H 0.1136 0.5331 0.2462
C14_4 C 0.3332(3) 0.44504(10) 0.2565(3)
O18_3 O 0.6348(2) 0.42850(8) 0.29068(17)
H31_3 H 0.9605 0.5721 0.3773
C41_3 C 0.9498(4) 0.50732(12) 0.3538(2)
C42_3 C 0.9282(4) 0.47822(14) 0.3908(3)
H33_3 H 0.9769 0.4719 0.4388
C43_3 C 0.8372(4) 0.46027(13) 0.3554(3)
H34_3 H 0.8213 0.4425 0.3814
C44_3 C 0.7643(3) 0.46727(12) 0.2800(2)
C45_3 C 0.7858(4) 0.49372(12) 0.2438(2)
H35_3 H 0.7398 0.4983 0.1939
C46_3 C 0.8755(4) 0.51443(13) 0.2794(3)
H36_3 H 0.8864 0.5331 0.2538
C47_3 C 0.6668(3) 0.44504(10) 0.2435(3)
C2_2 C 0.7241(3) 0.93036(11) 0.9764(2)
C3_2 C 0.7412(3) 0.96400(11) 0.9672(2)
H1_2 H 0.8123 0.9727 0.9877
C4_2 C 0.6529(3) 0.98442(12) 0.9277(3)
C5_2 C 0.5468(4) 0.97100(13) 0.8929(2)
C6_2 C 0.5307(4) 0.93690(13) 0.9007(3)
H3_3 H 0.4605 0.9279 0.8773
C7_2 C 0.6160(4) 0.91685(13) 0.9420(3)
H4_2 H 0.6035 0.8946 0.9474
C8_3 C 0.4498(4) 0.99268(12) 0.8538(2)
C13_3 C 0.3755(4) 0.98557(13) 0.7794(3)
H8_3 H 0.3864 0.9669 0.7538
H21_2 H 0.9697 0.9967 0.8821
Zn1_6 Zn 1.0000 0.097209(18) 0.7500
Zn6_2 Zn 0.92429(4) 0.095910(13) 0.90623(3)
Zn10 Zn 0.89601(4) 0.151470(12) 0.60360(3)
O18_4 O 0.8652(2) 0.07150(8) 0.70932(17)
O19_2 O 0.8757(2) 0.05545(7) 0.82677(16)
O26_2 O 0.9739(2) 0.12454(7) 0.83125(15)
H30_4 H 0.3358 0.0069 0.5755
C42_4 C 0.5718(4) 0.02178(14) 0.6092(3)
H33_4 H 0.5231 0.0281 0.5612
C43_4 C 0.6628(4) 0.03973(13) 0.6446(3)
H34_4 H 0.6787 0.0575 0.6186
C44_4 C 0.7357(3) 0.03273(12) 0.7200(2)
C45_4 C 0.7142(4) 0.00628(12) 0.7562(2)
H35_4 H 0.7602 0.0017 0.8061
C47_4 C 0.8332(3) 0.05496(10) 0.7565(3)
N1_4 N 0.6063(4) 0.46589(12) 0.9201(3)
O7_4 O 0.8007(4) 0.19099(10) 0.6203(2)
O8_4 O 0.8361(4) 0.15646(12) 0.7064(3)
C2_3 C 0.2241(3) 0.43036(11) 0.9764(2)
C3_3 C 0.2412(3) 0.46400(11) 0.9672(2)
H1_3 H 0.3123 0.4727 0.9877
C4_3 C 0.1529(3) 0.48442(12) 0.9277(3)
H2_4 H 0.1642 0.5069 0.9245
C5_3 C 0.0468(4) 0.47100(13) 0.8929(2)
C6_3 C 0.0307(4) 0.43690(13) 0.9007(3)
C7_3 C 0.1160(4) 0.41685(13) 0.9420(3)
H4_3 H 0.1035 0.3946 0.9474
C16_4 C 0.5634(4) 0.31334(12) 0.9613(3)
C17_4 C 0.6279(6) 0.32477(18) 0.9182(4)
H9_4 H 0.6471 0.3469 0.9201
C18_4 C 0.6641(6) 0.30268(19) 0.8716(4)
H10_4 H 0.7033 0.3110 0.8417
C19_4 C 0.6429(4) 0.26954(12) 0.8695(3)
C20_4 C 0.5895(5) 0.25952(16) 0.9158(4)
H11_4 H 0.5810 0.2371 0.9219
C21_4 C 0.5461(5) 0.28172(15) 0.9556(4)
H12_4 H 0.5004 0.2731 0.9805
C22_4 C 0.6846(5) 0.24961(12) 0.8235(3)
C23_4 C 0.6751(6) 0.25699(18) 0.7479(4)
H13_4 H 0.6434 0.2770 0.7275
C24_4 C 0.7120(5) 0.23526(15) 0.6996(4)
H14_4 H 0.7003 0.2406 0.6486
C25_4 C 0.7634(4) 0.20735(13) 0.7302(3)
C26_4 C 0.7686(6) 0.1971(2) 0.8033(5)
H15_4 H 0.7946 0.1764 0.8220
C27_4 C 0.7309(6) 0.2207(2) 0.8497(4)
H16_4 H 0.7401 0.2151 0.9002
C28_4 C 0.8026(5) 0.18427(13) 0.6826(4)
C29_4 C 0.5789(4) 0.45112(14) 0.9786(3)
H17_4 H 0.5139 0.4580 0.9855
C30_4 C 0.7084(5) 0.45676(18) 0.9037(4)
H18_4 H 0.7478 0.4400 0.9389
H19_4 H 0.6882 0.4486 0.8521
H20_4 H 0.7549 0.4758 0.9094
C31_4 C 0.5333(7) 0.49257(18) 0.8673(4)
H21_3 H 0.4697 0.4967 0.8821
H22_3 H 0.5754 0.5125 0.8721
H23_4 H 0.5094 0.4851 0.8150
O16_4 O 0.9639(3) 0.17746(8) 0.54078(19)
O14_4 O 0.9438(3) 0.13526(8) 0.98450(18)
C48_4 C 0.9718(4) 0.16490(12) 0.9896(3)
O12_4 O 0.9146(2) 0.07816(7) 0.54300(17)
O13_4 O 0.7930(2) 0.11942(7) 0.53677(17)
C34_4 C 0.8171(4) 0.09090(11) 0.5227(2)
C35_4 C 0.7241(3) 0.06964(11) 0.4764(2)
C36_4 C 0.7412(3) 0.03600(11) 0.4672(2)
H29_4 H 0.8123 0.0273 0.4877
C37_4 C 0.6529(3) 0.01558(12) 0.4277(3)
C38_4 C 0.5468(4) 0.02900(13) 0.3929(2)
C39_4 C 0.5307(4) 0.06310(13) 0.4007(3)
H31_4 H 0.4605 0.0721 0.3773
C40_4 C 0.6160(4) 0.08315(13) 0.4420(3)
H32_4 H 0.6035 0.1054 0.4474
C41_4 C 0.4498(4) 0.00732(12) 0.3538(2)
C46_4 C 0.3755(4) 0.01443(13) 0.2794(3)
H36_4 H 0.3864 0.0331 0.2538
H49_4 H 0.9697 0.0033 0.3821
O10_4 O 0.7624(3) 0.11310(11) 0.8544(3)
O11_4 O 0.8710(3) 0.06855(8) 0.98143(18)
C32_4 C 0.6947(6) 0.1145(3) 0.8823(6)
H24_4 H 0.7404 0.1246 0.9301
H25_4 H 0.6952 0.0914 0.8952
C33_4 C 0.5852(8) 0.1226(4) 0.8896(8)
H26_4 H 0.5678 0.1066 0.9219
H27_4 H 0.5287 0.1224 0.8397
H28_4 H 0.5886 0.1441 0.9119
H50_3 H 0.9246 0.0125 0.6279
H50_4 H 0.0754 0.9875 0.3721
C2_4 C 0.2759(3) 0.06964(11) 0.0236(2)
C3_4 C 0.2588(3) 0.03600(11) 0.0328(2)
H1_4 H 0.1877 0.0273 0.0123
C4_4 C 0.3471(3) 0.01558(12) 0.0723(3)
C5_4 C 0.4532(4) 0.02900(13) 0.1071(2)
C6_4 C 0.4693(4) 0.06310(13) 0.0993(3)
H3_4 H 0.5395 0.0721 0.1227
C7_4 C 0.3840(4) 0.08315(13) 0.0580(3)
H4_4 H 0.3965 0.1054 0.0526
C8_4 C 0.5502(4) 0.00732(12) 0.1462(2)
C13_4 C 0.6245(4) 0.01443(13) 0.2206(3)
H8_4 H 0.6136 0.0331 0.2462
H21_4 H 0.0303 0.0033 0.1179
H22_4 H 0.9246 0.9875 0.1279
loop_
_geom_bond_atom_site_label_1
_geom_bond_atom_site_label_2
_geom_bond_site_symmetry_1
_geom_bond_site_symmetry_2
O3 Zn2 1_555 1_555
O10 Zn2 1_555 1_555
O11 Zn2 1_555 1_555
C15 O3 1_555 1_555
C32 O10 1_555 1_555
H24 C32 1_555 1_555
H25 C32 1_555 1_555
C33 C32 1_555 1_555
H26 C33 1_555 1_555
H27 C33 1_555 1_555
H28 C33 1_555 1_555
O20 Zn2 1_555 1_555
O27 Zn2 1_555 1_555
Zn8 O13 1_555 1_555
O12 C34 1_555 1_555
O13 C34 1_555 1_555
O17 Zn8 1_555 1_555
O23 Zn8 1_555 1_555
O25 Zn8 1_555 1_555
C34 C35 1_555 1_555
C35 C36 1_555 1_555
C36 H29 1_555 1_555
C37 C36 1_555 1_555
C38 C37 1_555 1_555
C39 C38 1_555 1_555
H31 C39 1_555 1_555
C40 C35 1_555 1_555
H32 C40 1_555 1_555
C41 C38 1_555 1_555
C46 C41 1_555 1_555
H36 C46 1_555 1_555
C39 C40 1_555 1_555
C49 C50 1_555 1_555
C50 H37 1_555 1_555
C51 C50 1_555 1_555
H38 C51 1_555 1_555
C52 C51 1_555 1_555
C53 C52 1_555 1_555
H39 C53 1_555 1_555
C54 C49 1_555 1_555
H40 C54 1_555 1_555
C55 C52 1_555 1_555
C56 C55 1_555 1_555
H41 C56 1_555 1_555
C57 C56 1_555 1_555
H42 C57 1_555 1_555
C58 C57 1_555 1_555
C59 C58 1_555 1_555
H43 C59 1_555 1_555
C60 C55 1_555 1_555
H44 C60 1_555 1_555
C61 O23 1_555 1_555
O25 C61 1_555 1_555
C53 C54 1_555 1_555
C58 C61 1_555 1_555
C59 C60 1_555 1_555
O18 Zn1 1_555 1_555
O20 C47 1_555 1_555
O27 Zn1 1_555 1_555
H33 C42 1_555 1_555
C43 C42 1_555 1_555
H34 C43 1_555 1_555
C44 C43 1_555 1_555
C45 C44 1_555 1_555
H35 C45 1_555 1_555
C47 O18 1_555 1_555
C44 C47 1_555 1_555
N1 C29 1_555 1_555
C2 C3 1_555 1_555
C3 H1 1_555 1_555
C4 C3 1_555 1_555
H2 C4 1_555 1_555
C5 C4 1_555 1_555
C6 C5 1_555 1_555
C7 C2 1_555 1_555
H4 C7 1_555 1_555
H17 C29 1_555 1_555
C30 N1 1_555 1_555
H18 C30 1_555 1_555
H19 C30 1_555 1_555
H20 C30 1_555 1_555
C31 N1 1_555 1_555
H21 C31 1_555 1_555
H22_2 C31 1_555 1_555
H23 C31 1_555 1_555
C6 C7 1_555 1_555
N1_2 C29_2 1_555 1_555
O7 C28 1_555 1_555
O8 C28 1_555 1_555
C17 C16 1_555 1_555
H9 C17 1_555 1_555
C18 C17 1_555 1_555
H10 C18 1_555 1_555
C19 C18 1_555 1_555
C20 C19 1_555 1_555
H11 C20 1_555 1_555
C21 C16 1_555 1_555
H12 C21 1_555 1_555
C22 C19 1_555 1_555
C23 C22 1_555 1_555
H13 C23 1_555 1_555
C24 C23 1_555 1_555
H14 C24 1_555 1_555
C25 C24 1_555 1_555
C26 C25 1_555 1_555
H15 C26 1_555 1_555
C27 C22 1_555 1_555
H16 C27 1_555 1_555
C28 C25 1_555 1_555
H17_2 C29_2 1_555 1_555
C30_2 N1_2 1_555 1_555
H18_2 C30_2 1_555 1_555
H19_2 C30_2 1_555 1_555
H20_2 C30_2 1_555 1_555
C31_2 N1_2 1_555 1_555
H23_2 C31_2 1_555 1_555
Zn9 O7 1_555 1_555
O8 Zn9 1_555 1_555
C20 C21 1_555 1_555
C26 C27 1_555 1_555
Zn3 O2 1_555 1_555
O1 C1 1_555 1_555
O2 C1 1_555 1_555
O4 Zn3 1_555 1_555
Zn7 O14 1_555 1_555
Zn9 O16 1_555 1_555
O14 C48 1_555 1_555
O16 C48 1_555 1_555
O22 Zn3 1_555 1_555
O24 Zn3 1_555 1_555
C48 C49_2 1_555 1_555
C49_2 C50_2 1_555 1_555
C50_2 H37_2 1_555 1_555
C51_2 C50_2 1_555 1_555
H38_2 C51_2 1_555 1_555
C52_2 C51_2 1_555 1_555
C53_2 C52_2 1_555 1_555
H39_2 C53_2 1_555 1_555
C54_2 C49_2 1_555 1_555
H40_2 C54_2 1_555 1_555
C55_2 C52_2 1_555 1_555
C56_2 C55_2 1_555 1_555
H41_2 C56_2 1_555 1_555
C57_2 C56_2 1_555 1_555
H42_2 C57_2 1_555 1_555
C58_2 C57_2 1_555 1_555
C59_2 C58_2 1_555 1_555
H43_2 C59_2 1_555 1_555
C60_2 C55_2 1_555 1_555
H44_2 C60_2 1_555 1_555
C61_2 O22 1_555 1_555
O24 C61_2 1_555 1_555
C53_2 C54_2 1_555 1_555
C58_2 C61_2 1_555 1_555
C59_2 C60_2 1_555 1_555
N2 C62 1_555 1_555
O15 Zn4 1_555 1_555
O21 Zn4 1_555 1_555
O28 Zn4 1_555 1_555
O29 Zn4 1_555 1_555
O30 Zn4 1_555 1_555
C62 O30 1_555 1_555
H45 C62 1_555 1_555
C63 N2 1_555 1_555
H46 C63 1_555 1_555
H47 C63 1_555 1_555
H48 C63 1_555 1_555
C64 N2 1_555 1_555
H51 C64 1_555 1_555
C65 O29 1_555 1_555
H52 C65 1_555 1_555
H53 C65 1_555 1_555
C66 C65 1_555 1_555
H54 C66 1_555 1_555
H55 C66 1_555 1_555
H56 C66 1_555 1_555
Zn1_2 O5 1_555 1_555
O5 C14 1_555 1_555
O6 C14 1_555 1_555
O9 Zn1_2 1_555 1_555
C9 C8 1_555 1_555
H5 C9 1_555 1_555
C10 C9 1_555 1_555
H6 C10 1_555 1_555
C11 C10 1_555 1_555
C12 C11 1_555 1_555
H7 C12 1_555 1_555
C13 C8 1_555 1_555
H8 C13 1_555 1_555
C14 C11 1_555 1_555
Zn7 O6 1_555 1_555
Zn6 O19 1_555 1_555
Zn9 O9 1_555 1_555
Zn11 O26 1_555 1_555
O18_2 Zn1_2 1_555 1_555
O19 C47_2 1_555 1_555
O26 Zn1_2 1_555 1_555
C42_2 C41_2 1_555 1_555
H33_2 C42_2 1_555 1_555
C43_2 C42_2 1_555 1_555
H34_2 C43_2 1_555 1_555
C44_2 C43_2 1_555 1_555
C45_2 C44_2 1_555 1_555
H35_2 C45_2 1_555 1_555
C46_2 C41_2 1_555 1_555
H36_2 C46_2 1_555 1_555
C47_2 O18_2 1_555 1_555
O9 Zn7 1_555 1_555
C12 C13 1_555 1_555
Zn6 O26 1_555 1_555
C44_2 C47_2 1_555 1_555
C45_2 C46_2 1_555 1_555
Zn6 O14_2 1_555 1_555
Zn11 O16_2 1_555 1_555
O14_2 C48_2 1_555 1_555
O16_2 C48_2 1_555 1_555
O7_2 C28_2 1_555 1_555
O8_2 C28_2 1_555 1_555
C15_2 O15 1_555 1_555
C16_2 C15_2 1_555 1_555
C17_2 C16_2 1_555 1_555
H9_2 C17_2 1_555 1_555
C18_2 C17_2 1_555 1_555
H10_2 C18_2 1_555 1_555
C19_2 C18_2 1_555 1_555
C20_2 C19_2 1_555 1_555
H11_2 C20_2 1_555 1_555
C21_2 C16_2 1_555 1_555
H12_2 C21_2 1_555 1_555
C22_2 C19_2 1_555 1_555
C23_2 C22_2 1_555 1_555
H13_2 C23_2 1_555 1_555
C24_2 C23_2 1_555 1_555
H14_2 C24_2 1_555 1_555
C25_2 C24_2 1_555 1_555
C26_2 C25_2 1_555 1_555
H15_2 C26_2 1_555 1_555
C27_2 C22_2 1_555 1_555
H16_2 C27_2 1_555 1_555
C28_2 C25_2 1_555 1_555
Zn11 O7_2 1_555 1_555
O8_2 Zn11 1_555 1_555
C20_2 C21_2 1_555 1_555
C26_2 C27_2 1_555 1_555
Zn1_3 O5_2 1_555 1_555
O5_2 C14_2 1_555 1_555
O21 C14_2 1_555 1_555
O28 Zn1_3 1_555 1_555
H5_2 C9_2 1_555 1_555
C10_2 C9_2 1_555 1_555
H6_2 C10_2 1_555 1_555
C11_2 C10_2 1_555 1_555
C12_2 C11_2 1_555 1_555
H7_2 C12_2 1_555 1_555
C14_2 C11_2 1_555 1_555
Zn7 O12_2 1_555 1_555
Zn9 O13_2 1_555 1_555
N2_2 C62_2 1_555 1_555
O12_2 C34_2 1_555 1_555
O13_2 C34_2 1_555 1_555
O29_2 Zn7 1_555 1_555
O30_2 Zn7 1_555 1_555
C34_2 C35_2 1_555 1_555
C35_2 C36_2 1_555 1_555
C36_2 H29_2 1_555 1_555
C37_2 C36_2 1_555 1_555
H30_2 C37_2 1_555 1_555
C38_2 C37_2 1_555 1_555
C39_2 C38_2 1_555 1_555
C40_2 C35_2 1_555 1_555
H32_2 C40_2 1_555 1_555
C62_2 O30_2 1_555 1_555
H45_2 C62_2 1_555 1_555
C63_2 N2_2 1_555 1_555
H46_2 C63_2 1_555 1_555
H47_2 C63_2 1_555 1_555
H48_2 C63_2 1_555 1_555
C64_2 N2_2 1_555 1_555
H49_2 C64_2 1_555 1_555
H50 C64_2 1_555 1_555
H51_2 C64_2 1_555 1_555
C65_2 O29_2 1_555 1_555
H52_2 C65_2 1_555 1_555
H53_2 C65_2 1_555 1_555
C66_2 C65_2 1_555 1_555
H54_2 C66_2 1_555 1_555
H55_2 C66_2 1_555 1_555
H56_2 C66_2 1_555 1_555
C39_2 C40_2 1_555 1_555
Zn6 O1_2 1_555 1_555
Zn11 O2_2 1_555 1_555
O1_2 C1_2 1_555 1_555
O2_2 C1_2 1_555 1_555
O10_2 Zn6 1_555 1_555
O11_2 Zn6 1_555 1_555
C32_2 O10_2 1_555 1_555
H24_2 C32_2 1_555 1_555
H25_2 C32_2 1_555 1_555
C33_2 C32_2 1_555 1_555
H26_2 C33_2 1_555 1_555
H27_2 C33_2 1_555 1_555
H28_2 C33_2 1_555 1_555
Zn1_4 O5_3 1_555 1_555
O5_3 C14_3 1_555 1_555
O6_2 C14_3 1_555 1_555
O9_2 Zn1_4 1_555 1_555
H5_3 C9_3 1_555 1_555
C10_3 C9_3 1_555 1_555
H6_3 C10_3 1_555 1_555
C11_3 C10_3 1_555 1_555
C12_3 C11_3 1_555 1_555
H7_3 C12_3 1_555 1_555
C14_3 C11_3 1_555 1_555
Zn5 O6_2 1_555 1_555
O9_2 Zn5 1_555 1_555
Zn2_2 O1_3 1_555 1_555
Zn3_2 O2_3 1_555 1_555
O1_3 C1_3 1_555 1_555
O2_3 C1_3 1_555 1_555
O3_2 Zn2_2 1_555 1_555
O4_2 Zn3_2 1_555 1_555
O10_3 Zn2_2 1_555 1_555
O11_3 Zn2_2 1_555 1_555
C15_3 O3_2 1_555 1_555
C32_3 O10_3 1_555 1_555
H24_3 C32_3 1_555 1_555
H25_3 C32_3 1_555 1_555
C33_3 C32_3 1_555 1_555
H26_3 C33_3 1_555 1_555
H27_3 C33_3 1_555 1_555
H28_3 C33_3 1_555 1_555
Zn5 O14_3 1_555 1_555
O14_3 C48_3 1_555 1_555
O20_2 Zn2_2 1_555 1_555
O22_2 Zn3_2 1_555 1_555
O24_2 Zn3_2 1_555 1_555
O27_2 Zn2_2 1_555 1_555
C48_3 C49_3 1_555 1_555
C49_3 C50_3 1_555 1_555
C50_3 H37_3 1_555 1_555
C51_3 C50_3 1_555 1_555
H38_3 C51_3 1_555 1_555
C52_3 C51_3 1_555 1_555
C53_3 C52_3 1_555 1_555
H39_3 C53_3 1_555 1_555
C54_3 C49_3 1_555 1_555
H40_3 C54_3 1_555 1_555
C55_3 C52_3 1_555 1_555
C56_3 C55_3 1_555 1_555
H41_3 C56_3 1_555 1_555
C57_3 C56_3 1_555 1_555
H42_3 C57_3 1_555 1_555
C58_3 C57_3 1_555 1_555
C59_3 C58_3 1_555 1_555
H43_3 C59_3 1_555 1_555
C60_3 C55_3 1_555 1_555
H44_3 C60_3 1_555 1_555
C61_3 O22_2 1_555 1_555
Zn3_2 O27_2 1_555 1_555
O4_2 C15_3 1_555 1_555
O24_2 C61_3 1_555 1_555
C53_3 C54_3 1_555 1_555
C58_3 C61_3 1_555 1_555
C59_3 C60_3 1_555 1_555
Zn4_2 O12_3 1_555 1_555
Zn8_2 O13_3 1_555 1_555
N2_3 C62_3 1_555 1_555
O12_3 C34_3 1_555 1_555
O13_3 C34_3 1_555 1_555
O15_2 Zn4_2 1_555 1_555
O17_2 Zn8_2 1_555 1_555
O21_2 Zn4_2 1_555 1_555
O23_2 Zn8_2 1_555 1_555
O25_2 Zn8_2 1_555 1_555
O28_2 Zn4_2 1_555 1_555
O29_3 Zn4_2 1_555 1_555
O30_3 Zn4_2 1_555 1_555
C34_3 C35_3 1_555 1_555
C35_3 C36_3 1_555 1_555
C36_3 H29_3 1_555 1_555
C37_3 C36_3 1_555 1_555
H30_3 C37_3 1_555 1_555
C38_3 C37_3 1_555 1_555
C39_3 C38_3 1_555 1_555
C40_3 C35_3 1_555 1_555
H32_3 C40_3 1_555 1_555
C62_3 O30_3 1_555 1_555
H45_3 C62_3 1_555 1_555
C63_3 N2_3 1_555 1_555
H46_3 C63_3 1_555 1_555
H47_3 C63_3 1_555 1_555
H48_3 C63_3 1_555 1_555
C64_3 N2_3 1_555 1_555
H49_3 C64_3 1_555 1_555
H50_2 C64_3 1_555 1_555
H51_3 C64_3 1_555 1_555
C65_3 O29_3 1_555 1_555
H52_3 C65_3 1_555 1_555
H53_3 C65_3 1_555 1_555
C66_3 C65_3 1_555 1_555
H54_3 C66_3 1_555 1_555
H55_3 C66_3 1_555 1_555
H56_3 C66_3 1_555 1_555
Zn8_2 O28_2 1_555 1_555
C39_3 C40_3 1_555 1_555
Zn11_2 O16_3 1_555 1_555
O7_3 C28_3 1_555 1_555
O8_3 C28_3 1_555 1_555
C15_4 O15_2 1_555 1_555
C16_3 C15_4 1_555 1_555
C17_3 C16_3 1_555 1_555
H9_3 C17_3 1_555 1_555
C18_3 C17_3 1_555 1_555
H10_3 C18_3 1_555 1_555
C19_3 C18_3 1_555 1_555
C20_3 C19_3 1_555 1_555
H11_3 C20_3 1_555 1_555
C21_3 C16_3 1_555 1_555
H12_3 C21_3 1_555 1_555
C22_3 C19_3 1_555 1_555
C23_3 C22_3 1_555 1_555
H13_3 C23_3 1_555 1_555
C24_3 C23_3 1_555 1_555
H14_3 C24_3 1_555 1_555
C25_3 C24_3 1_555 1_555
C26_3 C25_3 1_555 1_555
H15_3 C26_3 1_555 1_555
C27_3 C22_3 1_555 1_555
H16_3 C27_3 1_555 1_555
C28_3 C25_3 1_555 1_555
Zn11_2 O7_3 1_555 1_555
C49_4 C50_4 1_555 1_555
C50_4 H37_4 1_555 1_555
C51_4 C50_4 1_555 1_555
H38_4 C51_4 1_555 1_555
C52_4 C51_4 1_555 1_555
C53_4 C52_4 1_555 1_555
H39_4 C53_4 1_555 1_555
C54_4 C49_4 1_555 1_555
H40_4 C54_4 1_555 1_555
C55_4 C52_4 1_555 1_555
C56_4 C55_4 1_555 1_555
H41_4 C56_4 1_555 1_555
C57_4 C56_4 1_555 1_555
H42_4 C57_4 1_555 1_555
C58_4 C57_4 1_555 1_555
C59_4 C58_4 1_555 1_555
H43_4 C59_4 1_555 1_555
C60_4 C55_4 1_555 1_555
H44_4 C60_4 1_555 1_555
C61_4 O23_2 1_555 1_555
O17_2 C15_4 1_555 1_555
O8_3 Zn11_2 1_555 1_555
C20_3 C21_3 1_555 1_555
C26_3 C27_3 1_555 1_555
O25_2 C61_4 1_555 1_555
C53_4 C54_4 1_555 1_555
C58_4 C61_4 1_555 1_555
C59_4 C60_4 1_555 1_555
N2_4 C62_4 1_555 1_555
O29_4 Zn5 1_555 1_555
O30_4 Zn5 1_555 1_555
C62_4 O30_4 1_555 1_555
H45_4 C62_4 1_555 1_555
C63_4 N2_4 1_555 1_555
H46_4 C63_4 1_555 1_555
H47_4 C63_4 1_555 1_555
H48_4 C63_4 1_555 1_555
C64_4 N2_4 1_555 1_555
H51_4 C64_4 1_555 1_555
C65_4 O29_4 1_555 1_555
H52_4 C65_4 1_555 1_555
H53_4 C65_4 1_555 1_555
C66_4 C65_4 1_555 1_555
H54_4 C66_4 1_555 1_555
H55_4 C66_4 1_555 1_555
H56_4 C66_4 1_555 1_555
Zn11_2 O2_4 1_555 1_555
O1_4 C1_4 1_555 1_555
O2_4 C1_4 1_555 1_555
N1_3 C29_3 1_555 1_555
H17_3 C29_3 1_555 1_555
C30_3 N1_3 1_555 1_555
H18_3 C30_3 1_555 1_555
H19_3 C30_3 1_555 1_555
H20_3 C30_3 1_555 1_555
C31_3 N1_3 1_555 1_555
H23_3 C31_3 1_555 1_555
Zn1_5 O5_4 1_555 1_555
O5_4 C14_4 1_555 1_555
O21_2 C14_4 1_555 1_555
O28_2 Zn1_5 1_555 1_555
C9_4 C8_2 1_555 1_555
H5_4 C9_4 1_555 1_555
C10_4 C9_4 1_555 1_555
H6_4 C10_4 1_555 1_555
C11_4 C10_4 1_555 1_555
C12_4 C11_4 1_555 1_555
H7_4 C12_4 1_555 1_555
C13_2 C8_2 1_555 1_555
H8_2 C13_2 1_555 1_555
C14_4 C11_4 1_555 1_555
O18_3 Zn1_5 1_555 1_555
O20_2 C47_3 1_555 1_555
O27_2 Zn1_5 1_555 1_555
C42_3 C41_3 1_555 1_555
H33_3 C42_3 1_555 1_555
C43_3 C42_3 1_555 1_555
H34_3 C43_3 1_555 1_555
C44_3 C43_3 1_555 1_555
C45_3 C44_3 1_555 1_555
H35_3 C45_3 1_555 1_555
C46_3 C41_3 1_555 1_555
H36_3 C46_3 1_555 1_555
C47_3 O18_3 1_555 1_555
C12_4 C13_2 1_555 1_555
C44_3 C47_3 1_555 1_555
C45_3 C46_3 1_555 1_555
C2_2 C3_2 1_555 1_555
C3_2 H1_2 1_555 1_555
C4_2 C3_2 1_555 1_555
C5_2 C4_2 1_555 1_555
C6_2 C5_2 1_555 1_555
H3_3 C6_2 1_555 1_555
C7_2 C2_2 1_555 1_555
H4_2 C7_2 1_555 1_555
C8_3 C5_2 1_555 1_555
C13_3 C8_3 1_555 1_555
H8_3 C13_3 1_555 1_555
C6_2 C7_2 1_555 1_555
Zn6_2 O19_2 1_555 1_555
O18_4 Zn1_6 1_555 1_555
O19_2 C47_4 1_555 1_555
O26_2 Zn1_6 1_555 1_555
H33_4 C42_4 1_555 1_555
C43_4 C42_4 1_555 1_555
H34_4 C43_4 1_555 1_555
C44_4 C43_4 1_555 1_555
C45_4 C44_4 1_555 1_555
H35_4 C45_4 1_555 1_555
C47_4 O18_4 1_555 1_555
Zn6_2 O26_2 1_555 1_555
C44_4 C47_4 1_555 1_555
N1_4 C29_4 1_555 1_555
O7_4 C28_4 1_555 1_555
O8_4 C28_4 1_555 1_555
C2_3 C3_3 1_555 1_555
C3_3 H1_3 1_555 1_555
C4_3 C3_3 1_555 1_555
H2_4 C4_3 1_555 1_555
C5_3 C4_3 1_555 1_555
C6_3 C5_3 1_555 1_555
C7_3 C2_3 1_555 1_555
H4_3 C7_3 1_555 1_555
C17_4 C16_4 1_555 1_555
H9_4 C17_4 1_555 1_555
C18_4 C17_4 1_555 1_555
H10_4 C18_4 1_555 1_555
C19_4 C18_4 1_555 1_555
C20_4 C19_4 1_555 1_555
H11_4 C20_4 1_555 1_555
C21_4 C16_4 1_555 1_555
H12_4 C21_4 1_555 1_555
C22_4 C19_4 1_555 1_555
C23_4 C22_4 1_555 1_555
H13_4 C23_4 1_555 1_555
C24_4 C23_4 1_555 1_555
H14_4 C24_4 1_555 1_555
C25_4 C24_4 1_555 1_555
C26_4 C25_4 1_555 1_555
H15_4 C26_4 1_555 1_555
C27_4 C22_4 1_555 1_555
H16_4 C27_4 1_555 1_555
C28_4 C25_4 1_555 1_555
H17_4 C29_4 1_555 1_555
C30_4 N1_4 1_555 1_555
H18_4 C30_4 1_555 1_555
H19_4 C30_4 1_555 1_555
H20_4 C30_4 1_555 1_555
C31_4 N1_4 1_555 1_555
H21_3 C31_4 1_555 1_555
H22_3 C31_4 1_555 1_555
H23_4 C31_4 1_555 1_555
Zn10 O7_4 1_555 1_555
O8_4 Zn10 1_555 1_555
C6_3 C7_3 1_555 1_555
C20_4 C21_4 1_555 1_555
C26_4 C27_4 1_555 1_555
Zn10 O16_4 1_555 1_555
Zn6_2 O14_4 1_555 1_555
O14_4 C48_4 1_555 1_555
Zn10 O13_4 1_555 1_555
O12_4 C34_4 1_555 1_555
O13_4 C34_4 1_555 1_555
C34_4 C35_4 1_555 1_555
C35_4 C36_4 1_555 1_555
C36_4 H29_4 1_555 1_555
C37_4 C36_4 1_555 1_555
C38_4 C37_4 1_555 1_555
C39_4 C38_4 1_555 1_555
H31_4 C39_4 1_555 1_555
C40_4 C35_4 1_555 1_555
H32_4 C40_4 1_555 1_555
C41_4 C38_4 1_555 1_555
C46_4 C41_4 1_555 1_555
H36_4 C46_4 1_555 1_555
C39_4 C40_4 1_555 1_555
O10_4 Zn6_2 1_555 1_555
O11_4 Zn6_2 1_555 1_555
C32_4 O10_4 1_555 1_555
H24_4 C32_4 1_555 1_555
H25_4 C32_4 1_555 1_555
C33_4 C32_4 1_555 1_555
H26_4 C33_4 1_555 1_555
H27_4 C33_4 1_555 1_555
H28_4 C33_4 1_555 1_555
C2_4 C3_4 1_555 1_555
C3_4 H1_4 1_555 1_555
C4_4 C3_4 1_555 1_555
C5_4 C4_4 1_555 1_555
C6_4 C5_4 1_555 1_555
H3_4 C6_4 1_555 1_555
C7_4 C2_4 1_555 1_555
H4_4 C7_4 1_555 1_555
C8_4 C5_4 1_555 1_555
C13_4 C8_4 1_555 1_555
H8_4 C13_4 1_555 1_555
C6_4 C7_4 1_555 1_555

#END
