
###############################################################################
#
# This file contains modified crystal structure data generated from the
# MOF subset of the Cambridge Structural Database (CSD) v543 
# hosted by the Cambridge Crystallographic Data Centre (CCDC).
#
# This work is licensed under the Creative Commons
# Attribution-NonCommercial-ShareAlike 4.0 International License.
# To view a copy of this license, visit
# http://creativecommons.org/licenses/by-nc-sa/4.0/
# or send a letter to
# Creative Commons, PO Box 1866, Mountain View, CA 94042, USA.
#
# CIF created using the CSD Python API on 29 September 2022
# The structure has been converted into the P1 space group
# The structure has a 3D framework
# The original CSD entry OFAGOU is in the tetragonal crystal system
# The framework has been calculated to contain at least 10.0% void space
# The void calculation uses a probe of radius 1.32A, grid spacing 0.4
#
###############################################################################

data_OFAGOU
_chemical_formula_moiety         '(C128 H40 Co12 F96 N32 O8)n'
_symmetry_cell_setting           triclinic
_symmetry_space_group_name_H-M   'P 1'
_symmetry_Int_Tables_number      1
_space_group_name_Hall           'P 1'
loop_
_symmetry_equiv_pos_site_id
_symmetry_equiv_pos_as_xyz
1 x,y,z
_cell_length_a                   20.3213(11)
_cell_length_b                   20.3213(11)
_cell_length_c                   12.4045(8)
_cell_angle_alpha                90
_cell_angle_beta                 90
_cell_angle_gamma                90
_cell_volume                     5122.5
loop_
_atom_site_label
_atom_site_type_symbol
_atom_site_fract_x
_atom_site_fract_y
_atom_site_fract_z
Co1 Co 0.250000 0.47284(10) 0.500000
O1 O 0.2727(4) 0.5227(4) 0.625000
N1 N 0.1814(4) 0.4163(4) 0.5719(6)
C1 C 0.1402(5) 0.3707(5) 0.5421(8)
C2 C 0.0495(6) 0.2995(6) 0.625000
C3 C 0.1001(5) 0.3501(5) 0.625000
C4 C 0.0680(8) 0.2313(7) 0.62509(16)
H1 H 0.113182 0.219233 0.625277
C5 C 0.1421(9) 0.3438(9) 0.4293(12)
H2 H 0.3049(8) 0.5549(8) 0.625000
F1 F 0.1764(6) 0.3801(5) 0.3637(6)
F2 F 0.0893(5) 0.3219(6) 0.3914(6)
F3 F 0.1768(8) 0.2879(7) 0.4249(10)
C9 C 0.0187(7) 0.1820(8) 0.62491(16)
H3 H 0.030767 0.136818 0.624723
N3 N 0.1663(4) 0.4314(4) 0.6781(6)
C11 C 0.1207(5) 0.3902(5) 0.7079(8)
C13 C 0.0938(9) 0.3921(9) 0.8207(12)
F7 F 0.1301(5) 0.4264(6) 0.8863(6)
F8 F 0.0719(6) 0.3393(5) 0.8586(6)
F9 F 0.0379(7) 0.4268(8) 0.8251(10)
Co4 Co 0.22284(10) 0.500000 0.750000
O4 O 0.2273(4) 0.5227(4) 0.375000
N6 N 0.3186(4) 0.4163(4) 0.4281(6)
N2 N 0.8337(4) 0.0686(4) 0.6781(6)
C6 C 0.8793(5) 0.1098(5) 0.7079(8)
C7 C 0.9505(6) 0.2005(6) 0.625000
C8 C 0.8999(5) 0.1499(5) 0.625000
C10 C 0.9062(9) 0.1079(9) 0.8207(12)
F4 F 0.8699(5) 0.0736(6) 0.8863(6)
F5 F 0.9281(6) 0.1607(5) 0.8586(6)
F6 F 0.9621(7) 0.0732(8) 0.8251(10)
C12 C 0.9813(7) 0.3180(8) 0.62491(16)
H4 H 0.969233 0.363182 0.624723
N4 N 0.8186(4) 0.0837(4) 0.5719(6)
C14 C 0.8598(5) 0.1293(5) 0.5421(8)
C15 C 0.9320(8) 0.2687(7) 0.62509(16)
H5 H 0.886818 0.280767 0.625277
C16 C 0.8579(9) 0.1562(9) 0.4293(12)
F10 F 0.8236(6) 0.1199(5) 0.3637(6)
F11 F 0.9107(5) 0.1781(6) 0.3914(6)
F12 F 0.8232(8) 0.2121(7) 0.4249(10)
Co2 Co 0.77716(10) 0.000000 0.750000
Co3 Co 0.750000 0.02716(10) 0.500000
O3 O 0.7273(4) 0.0227(4) 0.875000
Co2_2 Co 0.77716(10) 1.000000 0.750000
O2 O 0.7273(4) 0.9773(4) 0.625000
H6 H 0.6951(8) 0.9451(8) 0.625000
N5 N 0.8337(4) 0.9314(4) 0.8219(6)
Co2_3 Co 0.72284(10) 0.000000 0.250000
O2_2 O 0.7727(4) 0.0227(4) 0.125000
H6_2 H 0.8049(8) 0.0549(8) 0.125000
N5_2 N 0.6663(4) 0.0686(4) 0.3219(6)
Co1_2 Co 0.250000 0.52716(10) 0.000000
O1_2 O 0.2273(4) 0.4773(4) 0.125000
N1_2 N 0.3186(4) 0.5837(4) 0.0719(6)
C1_2 C 0.3598(5) 0.6293(5) 0.0421(8)
C2_2 C 0.4505(6) 0.7005(6) 0.125000
C3_2 C 0.3999(5) 0.6499(5) 0.125000
C4_2 C 0.4320(8) 0.7687(7) 0.12509(16)
H1_2 H 0.386818 0.780767 0.125277
H2_2 H 0.1951(8) 0.4451(8) 0.125000
N2_2 N 0.6663(4) 0.9314(4) 0.1781(6)
C6_2 C 0.6207(5) 0.8902(5) 0.2079(8)
C7_2 C 0.5495(6) 0.7995(6) 0.125000
C8_2 C 0.6001(5) 0.8501(5) 0.125000
C9_2 C 0.4813(7) 0.8180(8) 0.12491(16)
H3_2 H 0.469233 0.863182 0.124723
C10_2 C 0.5938(9) 0.8921(9) 0.3207(12)
F4_2 F 0.6301(5) 0.9264(6) 0.3863(6)
F5_2 F 0.5719(6) 0.8393(5) 0.3586(6)
F6_2 F 0.5379(7) 0.9268(8) 0.3251(10)
N3_2 N 0.3337(4) 0.5686(4) 0.1781(6)
C11_2 C 0.3793(5) 0.6098(5) 0.2079(8)
C12_2 C 0.5187(7) 0.6820(8) 0.12491(16)
H4_2 H 0.530767 0.636818 0.124723
C13_2 C 0.4062(9) 0.6079(9) 0.3207(12)
F7_2 F 0.3699(5) 0.5736(6) 0.3863(6)
F8_2 F 0.4281(6) 0.6607(5) 0.3586(6)
F9_2 F 0.4621(7) 0.5732(8) 0.3251(10)
N4_2 N 0.6814(4) 0.9163(4) 0.0719(6)
C14_2 C 0.6402(5) 0.8707(5) 0.0421(8)
C15_2 C 0.5680(8) 0.7313(7) 0.12509(16)
H5_2 H 0.613182 0.719233 0.125277
Co2_4 Co 0.72284(10) 1.000000 0.250000
Co3_2 Co 0.750000 0.97284(10) 0.000000
Co4_2 Co 0.27716(10) 0.500000 0.250000
O3_2 O 0.7727(4) 0.9773(4) 0.375000
Co1_3 Co 0.250000 0.52716(10) 1.000000
C5_2 C 0.3579(9) 0.6562(9) 0.9293(12)
F1_2 F 0.3236(6) 0.6199(5) 0.8637(6)
F2_2 F 0.4107(5) 0.6781(6) 0.8914(6)
F3_2 F 0.3232(8) 0.7121(7) 0.9249(10)
C16_2 C 0.6421(9) 0.8438(9) 0.9293(12)
F10_2 F 0.6764(6) 0.8801(5) 0.8637(6)
F11_2 F 0.5893(5) 0.8219(6) 0.8914(6)
F12_2 F 0.6768(8) 0.7879(7) 0.9249(10)
Co3_3 Co 0.750000 0.97284(10) 1.000000
O4_2 O 0.2727(4) 0.4773(4) 0.875000
N6_2 N 0.1814(4) 0.5837(4) 0.9281(6)
C10_3 C 0.1421(9) 0.6562(9) 0.0707(12)
F4_3 F 0.1764(6) 0.6199(5) 0.1363(6)
F5_3 F 0.0893(5) 0.6781(6) 0.1086(6)
F6_3 F 0.1768(8) 0.7121(7) 0.0751(10)
C4_3 C 0.0187(7) 0.8180(8) 0.87509(16)
H1_3 H 0.030767 0.863182 0.875277
C6_3 C 0.1402(5) 0.6293(5) 0.9579(8)
C7_3 C 0.0495(6) 0.7005(6) 0.875000
C8_3 C 0.1001(5) 0.6499(5) 0.875000
C9_3 C 0.0680(8) 0.7687(7) 0.87491(16)
H3_3 H 0.113182 0.780767 0.874723
N4_3 N 0.1663(4) 0.5686(4) 0.8219(6)
C14_3 C 0.1207(5) 0.6098(5) 0.7921(8)
C16_3 C 0.0938(9) 0.6079(9) 0.6793(12)
F10_3 F 0.1301(5) 0.5736(6) 0.6137(6)
F11_3 F 0.0719(6) 0.6607(5) 0.6414(6)
F12_3 F 0.0379(7) 0.5732(8) 0.6749(10)
H6_3 H 0.3049(8) 0.4451(8) 0.875000
H2_3 H 0.6951(8) 0.0549(8) 0.875000
C13_3 C 0.8579(9) 0.8438(9) 0.0707(12)
F7_3 F 0.8236(6) 0.8801(5) 0.1363(6)
F8_3 F 0.9107(5) 0.8219(6) 0.1086(6)
F9_3 F 0.8232(8) 0.7879(7) 0.0751(10)
C1_3 C 0.8793(5) 0.8902(5) 0.7921(8)
C2_3 C 0.9505(6) 0.7995(6) 0.875000
C3_3 C 0.8999(5) 0.8501(5) 0.875000
C5_3 C 0.9062(9) 0.8921(9) 0.6793(12)
F1_3 F 0.8699(5) 0.9264(6) 0.6137(6)
F2_3 F 0.9281(6) 0.8393(5) 0.6414(6)
F3_3 F 0.9621(7) 0.9268(8) 0.6749(10)
N3_3 N 0.8186(4) 0.9163(4) 0.9281(6)
C11_3 C 0.8598(5) 0.8707(5) 0.9579(8)
C12_3 C 0.9320(8) 0.7313(7) 0.87491(16)
H4_3 H 0.886818 0.719233 0.874723
C15_3 C 0.9813(7) 0.6820(8) 0.87509(16)
H5_3 H 0.969233 0.636818 0.875277
C1_4 C 0.6207(5) 0.1098(5) 0.2921(8)
C2_4 C 0.5495(6) 0.2005(6) 0.375000
C3_4 C 0.6001(5) 0.1499(5) 0.375000
C4_4 C 0.4813(7) 0.1820(8) 0.37509(16)
H1_4 H 0.469233 0.136818 0.375277
C5_4 C 0.5938(9) 0.1079(9) 0.1793(12)
F1_4 F 0.6301(5) 0.0736(6) 0.1137(6)
F2_4 F 0.5719(6) 0.1607(5) 0.1414(6)
F3_4 F 0.5379(7) 0.0732(8) 0.1749(10)
C6_4 C 0.3598(5) 0.3707(5) 0.4579(8)
C7_4 C 0.4505(6) 0.2995(6) 0.375000
C8_4 C 0.3999(5) 0.3501(5) 0.375000
C9_4 C 0.4320(8) 0.2313(7) 0.37491(16)
H3_4 H 0.386818 0.219233 0.374723
C10_4 C 0.3579(9) 0.3438(9) 0.5707(12)
F4_4 F 0.3236(6) 0.3801(5) 0.6363(6)
F5_4 F 0.4107(5) 0.3219(6) 0.6086(6)
F6_4 F 0.3232(8) 0.2879(7) 0.5751(10)
N3_4 N 0.6814(4) 0.0837(4) 0.4281(6)
C11_4 C 0.6402(5) 0.1293(5) 0.4579(8)
C12_4 C 0.5680(8) 0.2687(7) 0.37491(16)
H4_4 H 0.613182 0.280767 0.374723
C13_4 C 0.6421(9) 0.1562(9) 0.5707(12)
F7_4 F 0.6764(6) 0.1199(5) 0.6363(6)
F8_4 F 0.5893(5) 0.1781(6) 0.6086(6)
F9_4 F 0.6768(8) 0.2121(7) 0.5751(10)
N4_4 N 0.3337(4) 0.4314(4) 0.3219(6)
C14_4 C 0.3793(5) 0.3902(5) 0.2921(8)
C15_4 C 0.5187(7) 0.3180(8) 0.37509(16)
H5_4 H 0.530767 0.363182 0.375277
C16_4 C 0.4062(9) 0.3921(9) 0.1793(12)
F10_4 F 0.3699(5) 0.4264(6) 0.1137(6)
F11_4 F 0.4281(6) 0.3393(5) 0.1414(6)
F12_4 F 0.4621(7) 0.4268(8) 0.1749(10)
H6_4 H 0.1951(8) 0.5549(8) 0.375000
H2_4 H 0.8049(8) 0.9451(8) 0.375000
Co2_5 Co 0.22284(10) 0.000000 0.250000
O2_3 O 0.2727(4) 0.0227(4) 0.375000
H6_5 H 0.3049(8) 0.0549(8) 0.375000
N5_3 N 0.1663(4) 0.0686(4) 0.1781(6)
N2_3 N 0.1663(4) 0.9314(4) 0.3219(6)
C6_5 C 0.1207(5) 0.8902(5) 0.2921(8)
C7_5 C 0.0495(6) 0.7995(6) 0.375000
C8_5 C 0.1001(5) 0.8501(5) 0.375000
C10_5 C 0.0938(9) 0.8921(9) 0.1793(12)
F4_5 F 0.1301(5) 0.9264(6) 0.1137(6)
F5_5 F 0.0719(6) 0.8393(5) 0.1414(6)
F6_5 F 0.0379(7) 0.9268(8) 0.1749(10)
C12_5 C 0.0187(7) 0.6820(8) 0.37509(16)
H4_5 H 0.030767 0.636818 0.375277
N4_5 N 0.1814(4) 0.9163(4) 0.4281(6)
C14_5 C 0.1402(5) 0.8707(5) 0.4579(8)
C15_5 C 0.0680(8) 0.7313(7) 0.37491(16)
H5_5 H 0.113182 0.719233 0.374723
C16_5 C 0.1421(9) 0.8438(9) 0.5707(12)
F10_5 F 0.1764(6) 0.8801(5) 0.6363(6)
F11_5 F 0.0893(5) 0.8219(6) 0.6086(6)
F12_5 F 0.1768(8) 0.7879(7) 0.5751(10)
Co2_6 Co 0.22284(10) 1.000000 0.250000
Co3_4 Co 0.250000 0.97284(10) 0.500000
O3_3 O 0.2727(4) 0.9773(4) 0.125000
Co1_4 Co 0.750000 0.52716(10) 0.500000
O1_3 O 0.7273(4) 0.4773(4) 0.375000
N1_3 N 0.8186(4) 0.5837(4) 0.4281(6)
C1_5 C 0.8598(5) 0.6293(5) 0.4579(8)
C2_5 C 0.9505(6) 0.7005(6) 0.375000
C3_5 C 0.8999(5) 0.6499(5) 0.375000
C4_5 C 0.9320(8) 0.7687(7) 0.37491(16)
H1_5 H 0.886818 0.780767 0.374723
C5_5 C 0.8579(9) 0.6562(9) 0.5707(12)
H2_5 H 0.6951(8) 0.4451(8) 0.375000
F1_5 F 0.8236(6) 0.6199(5) 0.6363(6)
F2_5 F 0.9107(5) 0.6781(6) 0.6086(6)
F3_5 F 0.8232(8) 0.7121(7) 0.5751(10)
C9_5 C 0.9813(7) 0.8180(8) 0.37509(16)
H3_5 H 0.969233 0.863182 0.375277
N3_5 N 0.8337(4) 0.5686(4) 0.3219(6)
C11_5 C 0.8793(5) 0.6098(5) 0.2921(8)
C13_5 C 0.9062(9) 0.6079(9) 0.1793(12)
F7_5 F 0.8699(5) 0.5736(6) 0.1137(6)
F8_5 F 0.9281(6) 0.6607(5) 0.1414(6)
F9_5 F 0.9621(7) 0.5732(8) 0.1749(10)
Co4_3 Co 0.77716(10) 0.500000 0.250000
O4_3 O 0.7727(4) 0.4773(4) 0.625000
N6_3 N 0.6814(4) 0.5837(4) 0.5719(6)
Co1_5 Co 0.750000 0.47284(10) 0.000000
C5_6 C 0.6421(9) 0.3438(9) 0.0707(12)
F1_6 F 0.6764(6) 0.3801(5) 0.1363(6)
F2_6 F 0.5893(5) 0.3219(6) 0.1086(6)
F3_6 F 0.6768(8) 0.2879(7) 0.0751(10)
C16_6 C 0.3579(9) 0.1562(9) 0.0707(12)
F10_6 F 0.3236(6) 0.1199(5) 0.1363(6)
F11_6 F 0.4107(5) 0.1781(6) 0.1086(6)
F12_6 F 0.3232(8) 0.2121(7) 0.0751(10)
Co3_5 Co 0.250000 0.02716(10) 0.000000
O4_4 O 0.7273(4) 0.5227(4) 0.125000
N6_4 N 0.8186(4) 0.4163(4) 0.0719(6)
Co1_6 Co 0.750000 0.47284(10) 1.000000
O1_4 O 0.7727(4) 0.5227(4) 0.875000
N1_4 N 0.6814(4) 0.4163(4) 0.9281(6)
C1_6 C 0.6402(5) 0.3707(5) 0.9579(8)
C2_6 C 0.5495(6) 0.2995(6) 0.875000
C3_6 C 0.6001(5) 0.3501(5) 0.875000
C4_6 C 0.5680(8) 0.2313(7) 0.87491(16)
H1_6 H 0.613182 0.219233 0.874723
H2_6 H 0.8049(8) 0.5549(8) 0.875000
N2_4 N 0.3337(4) 0.0686(4) 0.8219(6)
C6_6 C 0.3793(5) 0.1098(5) 0.7921(8)
C7_6 C 0.4505(6) 0.2005(6) 0.875000
C8_6 C 0.3999(5) 0.1499(5) 0.875000
C9_6 C 0.5187(7) 0.1820(8) 0.87509(16)
H3_6 H 0.530767 0.136818 0.875277
C10_6 C 0.4062(9) 0.1079(9) 0.6793(12)
F4_6 F 0.3699(5) 0.0736(6) 0.6137(6)
F5_6 F 0.4281(6) 0.1607(5) 0.6414(6)
F6_6 F 0.4621(7) 0.0732(8) 0.6749(10)
N3_6 N 0.6663(4) 0.4314(4) 0.8219(6)
C11_6 C 0.6207(5) 0.3902(5) 0.7921(8)
C12_6 C 0.4813(7) 0.3180(8) 0.87509(16)
H4_6 H 0.469233 0.363182 0.875277
C13_6 C 0.5938(9) 0.3921(9) 0.6793(12)
F7_6 F 0.6301(5) 0.4264(6) 0.6137(6)
F8_6 F 0.5719(6) 0.3393(5) 0.6414(6)
F9_6 F 0.5379(7) 0.4268(8) 0.6749(10)
N4_6 N 0.3186(4) 0.0837(4) 0.9281(6)
C14_6 C 0.3598(5) 0.1293(5) 0.9579(8)
C15_6 C 0.4320(8) 0.2687(7) 0.87491(16)
H5_6 H 0.386818 0.280767 0.874723
Co2_7 Co 0.27716(10) 0.000000 0.750000
Co3_6 Co 0.250000 0.02716(10) 1.000000
Co4_4 Co 0.72284(10) 0.500000 0.750000
O3_4 O 0.2273(4) 0.0227(4) 0.625000
Co2_8 Co 0.27716(10) 1.000000 0.750000
O2_4 O 0.2273(4) 0.9773(4) 0.875000
H6_6 H 0.1951(8) 0.9451(8) 0.875000
N5_4 N 0.3337(4) 0.9314(4) 0.6781(6)
C1_7 C 0.1207(5) 0.1098(5) 0.2079(8)
C2_7 C 0.0495(6) 0.2005(6) 0.125000
C3_7 C 0.1001(5) 0.1499(5) 0.125000
C5_7 C 0.0938(9) 0.1079(9) 0.3207(12)
F1_7 F 0.1301(5) 0.0736(6) 0.3863(6)
F2_7 F 0.0719(6) 0.1607(5) 0.3586(6)
F3_7 F 0.0379(7) 0.0732(8) 0.3251(10)
N3_7 N 0.1814(4) 0.0837(4) 0.0719(6)
C11_7 C 0.1402(5) 0.1293(5) 0.0421(8)
C12_7 C 0.0680(8) 0.2687(7) 0.12509(16)
H4_7 H 0.113182 0.280767 0.125277
C15_7 C 0.0187(7) 0.3180(8) 0.12491(16)
H5_7 H 0.030767 0.363182 0.124723
C13_7 C 0.1421(9) 0.1562(9) 0.9293(12)
F7_7 F 0.1764(6) 0.1199(5) 0.8637(6)
F8_7 F 0.0893(5) 0.1781(6) 0.8914(6)
F9_7 F 0.1768(8) 0.2121(7) 0.9249(10)
H2_7 H 0.3049(8) 0.9451(8) 0.125000
C4_7 C 0.9813(7) 0.1820(8) 0.12491(16)
H1_7 H 0.969233 0.136818 0.124723
C6_7 C 0.8598(5) 0.3707(5) 0.0421(8)
C7_7 C 0.9505(6) 0.2995(6) 0.125000
C8_7 C 0.8999(5) 0.3501(5) 0.125000
C9_7 C 0.9320(8) 0.2313(7) 0.12509(16)
H3_7 H 0.886818 0.219233 0.125277
N4_7 N 0.8337(4) 0.4314(4) 0.1781(6)
C14_7 C 0.8793(5) 0.3902(5) 0.2079(8)
C16_7 C 0.9062(9) 0.3921(9) 0.3207(12)
F10_7 F 0.8699(5) 0.4264(6) 0.3863(6)
F11_7 F 0.9281(6) 0.3393(5) 0.3586(6)
F12_7 F 0.9621(7) 0.4268(8) 0.3251(10)
H6_7 H 0.6951(8) 0.5549(8) 0.125000
C10_7 C 0.8579(9) 0.3438(9) 0.9293(12)
F4_7 F 0.8236(6) 0.3801(5) 0.8637(6)
F5_7 F 0.9107(5) 0.3219(6) 0.8914(6)
F6_7 F 0.8232(8) 0.2879(7) 0.9249(10)
H2_8 H 0.1951(8) 0.0549(8) 0.625000
C1_8 C 0.3793(5) 0.8902(5) 0.7079(8)
C2_8 C 0.4505(6) 0.7995(6) 0.625000
C3_8 C 0.3999(5) 0.8501(5) 0.625000
C4_8 C 0.5187(7) 0.8180(8) 0.62491(16)
H1_8 H 0.530767 0.863182 0.624723
C5_8 C 0.4062(9) 0.8921(9) 0.8207(12)
F1_8 F 0.3699(5) 0.9264(6) 0.8863(6)
F2_8 F 0.4281(6) 0.8393(5) 0.8586(6)
F3_8 F 0.4621(7) 0.9268(8) 0.8251(10)
C6_8 C 0.6402(5) 0.6293(5) 0.5421(8)
C7_8 C 0.5495(6) 0.7005(6) 0.625000
C8_8 C 0.6001(5) 0.6499(5) 0.625000
C9_8 C 0.5680(8) 0.7687(7) 0.62509(16)
H3_8 H 0.613182 0.780767 0.625277
C10_8 C 0.6421(9) 0.6562(9) 0.4293(12)
F4_8 F 0.6764(6) 0.6199(5) 0.3637(6)
F5_8 F 0.5893(5) 0.6781(6) 0.3914(6)
F6_8 F 0.6768(8) 0.7121(7) 0.4249(10)
N3_8 N 0.3186(4) 0.9163(4) 0.5719(6)
C11_8 C 0.3598(5) 0.8707(5) 0.5421(8)
C12_8 C 0.4320(8) 0.7313(7) 0.62509(16)
H4_8 H 0.386818 0.719233 0.625277
C13_8 C 0.3579(9) 0.8438(9) 0.4293(12)
F7_8 F 0.3236(6) 0.8801(5) 0.3637(6)
F8_8 F 0.4107(5) 0.8219(6) 0.3914(6)
F9_8 F 0.3232(8) 0.7879(7) 0.4249(10)
N4_8 N 0.6663(4) 0.5686(4) 0.6781(6)
C14_8 C 0.6207(5) 0.6098(5) 0.7079(8)
C15_8 C 0.4813(7) 0.6820(8) 0.62491(16)
H5_8 H 0.469233 0.636818 0.624723
C16_8 C 0.5938(9) 0.6079(9) 0.8207(12)
F10_8 F 0.6301(5) 0.5736(6) 0.8863(6)
F11_8 F 0.5719(6) 0.6607(5) 0.8586(6)
F12_8 F 0.5379(7) 0.5732(8) 0.8251(10)
H6_8 H 0.8049(8) 0.4451(8) 0.625000
loop_
_geom_bond_atom_site_label_1
_geom_bond_atom_site_label_2
_geom_bond_site_symmetry_1
_geom_bond_site_symmetry_2
Co1 O1 1_555 1_555
O1 H2 1_555 1_555
N1 Co1 1_555 1_555
C1 N1 1_555 1_555
C2 C3 1_555 1_555
C3 C1 1_555 1_555
C4 C2 1_555 1_555
H1 C4 1_555 1_555
C5 C1 1_555 1_555
F1 C5 1_555 1_555
F2 C5 1_555 1_555
F3 C5 1_555 1_555
C9 C4 1_555 1_555
H3 C9 1_555 1_555
N3 N1 1_555 1_555
C11 C3 1_555 1_555
C13 C11 1_555 1_555
F7 C13 1_555 1_555
F8 C13 1_555 1_555
F9 C13 1_555 1_555
Co4 O1 1_555 1_555
O4 Co1 1_555 1_555
N6 Co1 1_555 1_555
N3 C11 1_555 1_555
N3 Co4 1_555 1_555
N2 C6 1_555 1_555
C6 C8 1_555 1_555
C7 C8 1_555 1_555
C8 C14 1_555 1_555
C10 C6 1_555 1_555
F4 C10 1_555 1_555
F5 C10 1_555 1_555
F6 C10 1_555 1_555
H4 C12 1_555 1_555
N4 N2 1_555 1_555
C14 N4 1_555 1_555
C15 C7 1_555 1_555
H5 C15 1_555 1_555
C16 C14 1_555 1_555
F10 C16 1_555 1_555
F11 C16 1_555 1_555
F12 C16 1_555 1_555
Co2 N2 1_555 1_555
Co3 N4 1_555 1_555
O3 Co2 1_555 1_555
C12 C15 1_555 1_555
O2 Co2_2 1_555 1_555
H6 O2 1_555 1_555
N5 Co2_2 1_555 1_555
O2_2 Co2_3 1_555 1_555
H6_2 O2_2 1_555 1_555
N5_2 Co2_3 1_555 1_555
Co1_2 O1_2 1_555 1_555
O1_2 H2_2 1_555 1_555
N1_2 Co1_2 1_555 1_555
C1_2 N1_2 1_555 1_555
C2_2 C3_2 1_555 1_555
C3_2 C1_2 1_555 1_555
C4_2 C2_2 1_555 1_555
H1_2 C4_2 1_555 1_555
N2_2 C6_2 1_555 1_555
C6_2 C8_2 1_555 1_555
C7_2 C8_2 1_555 1_555
C8_2 C14_2 1_555 1_555
C9_2 C4_2 1_555 1_555
H3_2 C9_2 1_555 1_555
C10_2 C6_2 1_555 1_555
F4_2 C10_2 1_555 1_555
F5_2 C10_2 1_555 1_555
F6_2 C10_2 1_555 1_555
N3_2 N1_2 1_555 1_555
C11_2 C3_2 1_555 1_555
C12_2 C2_2 1_555 1_555
H4_2 C12_2 1_555 1_555
C13_2 C11_2 1_555 1_555
F7_2 C13_2 1_555 1_555
F8_2 C13_2 1_555 1_555
F9_2 C13_2 1_555 1_555
N4_2 N2_2 1_555 1_555
C14_2 N4_2 1_555 1_555
C15_2 C7_2 1_555 1_555
H5_2 C15_2 1_555 1_555
Co2_4 N2_2 1_555 1_555
Co3_2 N4_2 1_555 1_555
Co4_2 O1_2 1_555 1_555
O3_2 Co2_4 1_555 1_555
C7_2 C9_2 1_555 1_555
N3_2 C11_2 1_555 1_555
N3_2 Co4_2 1_555 1_555
C12_2 C15_2 1_555 1_555
F1_2 C5_2 1_555 1_555
F2_2 C5_2 1_555 1_555
F3_2 C5_2 1_555 1_555
F10_2 C16_2 1_555 1_555
F11_2 C16_2 1_555 1_555
F12_2 C16_2 1_555 1_555
O4_2 Co1_3 1_555 1_555
N6_2 Co1_3 1_555 1_555
F4_3 C10_3 1_555 1_555
F5_3 C10_3 1_555 1_555
F6_3 C10_3 1_555 1_555
H1_3 C4_3 1_555 1_555
N6_2 C6_3 1_555 1_555
C6_3 C8_3 1_555 1_555
C7_3 C8_3 1_555 1_555
C8_3 C14_3 1_555 1_555
C9_3 C4_3 1_555 1_555
H3_3 C9_3 1_555 1_555
N4_3 N6_2 1_555 1_555
C14_3 N4_3 1_555 1_555
C16_3 C14_3 1_555 1_555
F10_3 C16_3 1_555 1_555
F11_3 C16_3 1_555 1_555
F12_3 C16_3 1_555 1_555
H6_3 O4_2 1_555 1_555
Co4 N4_3 1_555 1_555
C7_3 C9_3 1_555 1_555
O4_2 Co4 1_555 1_555
O3 H2_3 1_555 1_555
F7_3 C13_3 1_555 1_555
F8_3 C13_3 1_555 1_555
F9_3 C13_3 1_555 1_555
C1_3 N5 1_555 1_555
C2_3 C3_3 1_555 1_555
C3_3 C1_3 1_555 1_555
C5_3 C1_3 1_555 1_555
F1_3 C5_3 1_555 1_555
F2_3 C5_3 1_555 1_555
F3_3 C5_3 1_555 1_555
N3_3 N5 1_555 1_555
C11_3 C3_3 1_555 1_555
C12_3 C2_3 1_555 1_555
H4_3 C12_3 1_555 1_555
H5_3 C15_3 1_555 1_555
N3_3 C11_3 1_555 1_555
N3_3 Co3_3 1_555 1_555
C12_3 C15_3 1_555 1_555
C1_4 N5_2 1_555 1_555
C2_4 C3_4 1_555 1_555
C3_4 C1_4 1_555 1_555
C4_4 C2_4 1_555 1_555
H1_4 C4_4 1_555 1_555
C5_4 C1_4 1_555 1_555
F1_4 C5_4 1_555 1_555
F2_4 C5_4 1_555 1_555
F3_4 C5_4 1_555 1_555
N6 C6_4 1_555 1_555
C6_4 C8_4 1_555 1_555
C7_4 C8_4 1_555 1_555
C8_4 C14_4 1_555 1_555
C9_4 C4_4 1_555 1_555
H3_4 C9_4 1_555 1_555
C10_4 C6_4 1_555 1_555
F4_4 C10_4 1_555 1_555
F5_4 C10_4 1_555 1_555
F6_4 C10_4 1_555 1_555
N3_4 N5_2 1_555 1_555
C11_4 C3_4 1_555 1_555
C12_4 C2_4 1_555 1_555
H4_4 C12_4 1_555 1_555
C13_4 C11_4 1_555 1_555
F7_4 C13_4 1_555 1_555
F8_4 C13_4 1_555 1_555
F9_4 C13_4 1_555 1_555
N4_4 N6 1_555 1_555
C14_4 N4_4 1_555 1_555
C15_4 C7_4 1_555 1_555
H5_4 C15_4 1_555 1_555
C16_4 C14_4 1_555 1_555
F10_4 C16_4 1_555 1_555
F11_4 C16_4 1_555 1_555
F12_4 C16_4 1_555 1_555
H6_4 O4 1_555 1_555
Co4_2 N4_4 1_555 1_555
C7_4 C9_4 1_555 1_555
N3_4 C11_4 1_555 1_555
N3_4 Co3 1_555 1_555
C12_4 C15_4 1_555 1_555
O4 Co4_2 1_555 1_555
O3_2 H2_4 1_555 1_555
O2_3 Co2_5 1_555 1_555
H6_5 O2_3 1_555 1_555
N5_3 Co2_5 1_555 1_555
N2_3 C6_5 1_555 1_555
C6_5 C8_5 1_555 1_555
C7_5 C8_5 1_555 1_555
C8_5 C14_5 1_555 1_555
C10_5 C6_5 1_555 1_555
F4_5 C10_5 1_555 1_555
F5_5 C10_5 1_555 1_555
F6_5 C10_5 1_555 1_555
H4_5 C12_5 1_555 1_555
N4_5 N2_3 1_555 1_555
C14_5 N4_5 1_555 1_555
C15_5 C7_5 1_555 1_555
H5_5 C15_5 1_555 1_555
C16_5 C14_5 1_555 1_555
F10_5 C16_5 1_555 1_555
F11_5 C16_5 1_555 1_555
F12_5 C16_5 1_555 1_555
Co2_6 N2_3 1_555 1_555
Co3_4 N4_5 1_555 1_555
O3_3 Co2_6 1_555 1_555
C12_5 C15_5 1_555 1_555
Co1_4 O1_3 1_555 1_555
O1_3 H2_5 1_555 1_555
N1_3 Co1_4 1_555 1_555
C1_5 N1_3 1_555 1_555
C2_5 C3_5 1_555 1_555
C3_5 C1_5 1_555 1_555
C4_5 C2_5 1_555 1_555
H1_5 C4_5 1_555 1_555
C5_5 C1_5 1_555 1_555
F1_5 C5_5 1_555 1_555
F2_5 C5_5 1_555 1_555
F3_5 C5_5 1_555 1_555
C9_5 C4_5 1_555 1_555
H3_5 C9_5 1_555 1_555
N3_5 N1_3 1_555 1_555
C11_5 C3_5 1_555 1_555
C13_5 C11_5 1_555 1_555
F7_5 C13_5 1_555 1_555
F8_5 C13_5 1_555 1_555
F9_5 C13_5 1_555 1_555
Co4_3 O1_3 1_555 1_555
O4_3 Co1_4 1_555 1_555
N6_3 Co1_4 1_555 1_555
N3_5 C11_5 1_555 1_555
N3_5 Co4_3 1_555 1_555
F1_6 C5_6 1_555 1_555
F2_6 C5_6 1_555 1_555
F3_6 C5_6 1_555 1_555
F10_6 C16_6 1_555 1_555
F11_6 C16_6 1_555 1_555
F12_6 C16_6 1_555 1_555
O4_4 Co1_5 1_555 1_555
N6_4 Co1_5 1_555 1_555
Co1_6 O1_4 1_555 1_555
O1_4 H2_6 1_555 1_555
N1_4 Co1_6 1_555 1_555
C1_6 N1_4 1_555 1_555
C2_6 C3_6 1_555 1_555
C3_6 C1_6 1_555 1_555
C4_6 C2_6 1_555 1_555
H1_6 C4_6 1_555 1_555
N2_4 C6_6 1_555 1_555
C6_6 C8_6 1_555 1_555
C7_6 C8_6 1_555 1_555
C8_6 C14_6 1_555 1_555
C9_6 C4_6 1_555 1_555
H3_6 C9_6 1_555 1_555
C10_6 C6_6 1_555 1_555
F4_6 C10_6 1_555 1_555
F5_6 C10_6 1_555 1_555
F6_6 C10_6 1_555 1_555
N3_6 N1_4 1_555 1_555
C11_6 C3_6 1_555 1_555
C12_6 C2_6 1_555 1_555
H4_6 C12_6 1_555 1_555
C13_6 C11_6 1_555 1_555
F7_6 C13_6 1_555 1_555
F8_6 C13_6 1_555 1_555
F9_6 C13_6 1_555 1_555
N4_6 N2_4 1_555 1_555
C14_6 N4_6 1_555 1_555
C15_6 C7_6 1_555 1_555
H5_6 C15_6 1_555 1_555
Co2_7 N2_4 1_555 1_555
Co3_6 N4_6 1_555 1_555
Co4_4 O1_4 1_555 1_555
O3_4 Co2_7 1_555 1_555
C7_6 C9_6 1_555 1_555
N3_6 C11_6 1_555 1_555
N3_6 Co4_4 1_555 1_555
C12_6 C15_6 1_555 1_555
O2_4 Co2_8 1_555 1_555
H6_6 O2_4 1_555 1_555
N5_4 Co2_8 1_555 1_555
C1_7 N5_3 1_555 1_555
C2_7 C3_7 1_555 1_555
C3_7 C1_7 1_555 1_555
C5_7 C1_7 1_555 1_555
F1_7 C5_7 1_555 1_555
F2_7 C5_7 1_555 1_555
F3_7 C5_7 1_555 1_555
N3_7 N5_3 1_555 1_555
C11_7 C3_7 1_555 1_555
C12_7 C2_7 1_555 1_555
H4_7 C12_7 1_555 1_555
H5_7 C15_7 1_555 1_555
N3_7 C11_7 1_555 1_555
N3_7 Co3_5 1_555 1_555
C12_7 C15_7 1_555 1_555
F7_7 C13_7 1_555 1_555
F8_7 C13_7 1_555 1_555
F9_7 C13_7 1_555 1_555
O3_3 H2_7 1_555 1_555
H1_7 C4_7 1_555 1_555
N6_4 C6_7 1_555 1_555
C6_7 C8_7 1_555 1_555
C7_7 C8_7 1_555 1_555
C8_7 C14_7 1_555 1_555
C9_7 C4_7 1_555 1_555
H3_7 C9_7 1_555 1_555
N4_7 N6_4 1_555 1_555
C14_7 N4_7 1_555 1_555
C16_7 C14_7 1_555 1_555
F10_7 C16_7 1_555 1_555
F11_7 C16_7 1_555 1_555
F12_7 C16_7 1_555 1_555
H6_7 O4_4 1_555 1_555
Co4_3 N4_7 1_555 1_555
C7_7 C9_7 1_555 1_555
O4_4 Co4_3 1_555 1_555
F4_7 C10_7 1_555 1_555
F5_7 C10_7 1_555 1_555
F6_7 C10_7 1_555 1_555
O3_4 H2_8 1_555 1_555
C1_8 N5_4 1_555 1_555
C2_8 C3_8 1_555 1_555
C3_8 C1_8 1_555 1_555
C4_8 C2_8 1_555 1_555
H1_8 C4_8 1_555 1_555
C5_8 C1_8 1_555 1_555
F1_8 C5_8 1_555 1_555
F2_8 C5_8 1_555 1_555
F3_8 C5_8 1_555 1_555
N6_3 C6_8 1_555 1_555
C6_8 C8_8 1_555 1_555
C7_8 C8_8 1_555 1_555
C8_8 C14_8 1_555 1_555
C9_8 C4_8 1_555 1_555
H3_8 C9_8 1_555 1_555
C10_8 C6_8 1_555 1_555
F4_8 C10_8 1_555 1_555
F5_8 C10_8 1_555 1_555
F6_8 C10_8 1_555 1_555
N3_8 N5_4 1_555 1_555
C11_8 C3_8 1_555 1_555
C12_8 C2_8 1_555 1_555
H4_8 C12_8 1_555 1_555
C13_8 C11_8 1_555 1_555
F7_8 C13_8 1_555 1_555
F8_8 C13_8 1_555 1_555
F9_8 C13_8 1_555 1_555
N4_8 N6_3 1_555 1_555
C14_8 N4_8 1_555 1_555
C15_8 C7_8 1_555 1_555
H5_8 C15_8 1_555 1_555
C16_8 C14_8 1_555 1_555
F10_8 C16_8 1_555 1_555
F11_8 C16_8 1_555 1_555
F12_8 C16_8 1_555 1_555
H6_8 O4_3 1_555 1_555
Co4_4 N4_8 1_555 1_555
C7_8 C9_8 1_555 1_555
N3_8 C11_8 1_555 1_555
N3_8 Co3_4 1_555 1_555
C12_8 C15_8 1_555 1_555
O4_3 Co4_4 1_555 1_555

#END
