
###############################################################################
#
# This file contains modified crystal structure data generated from the
# MOF subset of the Cambridge Structural Database (CSD) v543 
# hosted by the Cambridge Crystallographic Data Centre (CCDC).
#
# This work is licensed under the Creative Commons
# Attribution-NonCommercial-ShareAlike 4.0 International License.
# To view a copy of this license, visit
# http://creativecommons.org/licenses/by-nc-sa/4.0/
# or send a letter to
# Creative Commons, PO Box 1866, Mountain View, CA 94042, USA.
#
# CIF created using the CSD Python API on 29 September 2022
# The structure has been converted into the P1 space group
# The structure has a 3D framework
# The original CSD entry OFAVOJ is in the tetragonal crystal system
# The framework has been calculated to contain at least 10.0% void space
# The void calculation uses a probe of radius 1.32A, grid spacing 0.4
#
###############################################################################

data_OFAVOJ
_chemical_formula_moiety         '(C120 H100 Mo52 N40 O176 P6 Zn15)n'
_symmetry_cell_setting           triclinic
_symmetry_space_group_name_H-M   'P 1'
_symmetry_Int_Tables_number      1
_space_group_name_Hall           'P 1'
loop_
_symmetry_equiv_pos_site_id
_symmetry_equiv_pos_as_xyz
1 x,y,z
_cell_length_a                   27.560(4)
_cell_length_b                   27.560(4)
_cell_length_c                   12.012(2)
_cell_angle_alpha                90
_cell_angle_beta                 90
_cell_angle_gamma                90
_cell_volume                     9123.76
loop_
_atom_site_label
_atom_site_type_symbol
_atom_site_fract_x
_atom_site_fract_y
_atom_site_fract_z
Zn1 Zn -0.000000 0.14697(6) 0.05240(13)
O5 O 0.000000 0.2040(3) 0.1492(7)
N1 N 0.000000 0.0885(6) 0.1457(13)
N2 N 0.000000 0.0385(6) 0.2830(14)
C1 C -0.000000 0.0817(7) 0.2506(17)
H1 H 0.000000 0.107451 0.300613
C2 C -0.000000 0.0187(8) 0.3959(16)
C4 C -0.000000 0.0486(8) 0.4859(17)
H3 H 0.000000 0.082108 0.475889
C5 C -0.000000 0.0117(8) 0.1896(17)
C6 C 0.000000 0.0437(8) 0.1004(18)
H5 H -0.000000 0.035862 0.025069
Mo5 Mo 0.05398(5) 0.250000 0.16708(9)
O15 O 0.0667(4) 0.250000 0.3028(8)
O17 O -0.000000 0.2960(3) 0.1492(7)
O20 O 0.0955(2) 0.2004(2) 0.1126(5)
O33 O 0.0955(2) 0.2996(2) 0.1126(5)
C9 C 0.000000 0.0290(8) 0.5944(17)
H7 H 0.000000 0.048906 0.656903
H9 H -0.000000 0.022029 0.814479
Zn4 Zn 0.000000 0.35303(6) 0.05240(13)
N9 N 0.000000 0.4115(6) 0.1457(13)
C3 C -0.000000 0.9710(8) 0.4056(17)
H2 H 0.000000 0.951094 0.343097
H4 H 0.000000 0.977971 0.185521
N3 N 0.000000 0.9115(6) 0.8543(13)
N4 N 0.000000 0.9615(6) 0.7170(14)
C7 C -0.000000 0.9183(7) 0.7494(17)
H6 H -0.000000 0.892549 0.699387
C8 C 0.000000 0.9813(8) 0.6041(16)
C10 C -0.000000 0.9514(8) 0.5141(17)
H8 H 0.000000 0.917892 0.524111
C11 C -0.000000 0.9883(8) 0.8104(17)
C12 C -0.000000 0.9563(8) 0.8996(18)
H10 H 0.000000 0.964138 0.974931
Zn2 Zn 0.000000 0.85303(6) 0.94760(13)
O43 O 0.000000 0.7960(3) 0.8508(7)
Mo7 Mo 0.05398(5) 0.750000 0.83292(9)
O22 O 0.0667(4) 0.750000 0.6972(8)
O24 O 0.000000 0.7040(3) 0.8508(7)
O27 O 0.0955(2) 0.7996(2) 0.8874(5)
O36 O 0.0955(2) 0.7004(2) 0.8874(5)
Zn6 Zn 0.000000 0.64697(6) 0.94760(13)
N9_2 N -0.000000 0.5885(6) 0.8543(13)
N2_2 N -0.000000 0.4615(6) 0.2830(14)
C1_2 C -0.000000 0.4183(7) 0.2506(17)
H1_2 H -0.000000 0.392549 0.300613
C2_2 C 0.000000 0.4813(8) 0.3959(16)
C3_2 C -0.000000 0.5290(8) 0.4056(17)
H2_2 H 0.000000 0.548906 0.343097
C4_2 C 0.000000 0.4514(8) 0.4859(17)
H3_2 H -0.000000 0.417892 0.475889
C5_2 C -0.000000 0.4883(8) 0.1896(17)
H4_2 H -0.000000 0.522029 0.185521
C6_2 C 0.000000 0.4563(8) 0.1004(18)
H5_2 H -0.000000 0.464138 0.025069
N4_2 N 0.000000 0.5385(6) 0.7170(14)
C7_2 C -0.000000 0.5817(7) 0.7494(17)
H6_2 H 0.000000 0.607451 0.699387
C8_2 C 0.000000 0.5187(8) 0.6041(16)
C9_2 C 0.000000 0.4710(8) 0.5944(17)
H7_2 H 0.000000 0.451094 0.656903
C10_2 C 0.000000 0.5486(8) 0.5141(17)
H8_2 H -0.000000 0.582108 0.524111
C11_2 C 0.000000 0.5117(8) 0.8104(17)
H9_2 H 0.000000 0.477971 0.814479
C12_2 C 0.000000 0.5437(8) 0.8996(18)
H10_2 H -0.000000 0.535862 0.974931
P1 P -0.000000 0.250000 0.875000
Mo3 Mo -0.000000 0.30398(5) 0.58292(9)
O8 O 0.000000 0.3167(4) 0.4472(8)
O9 O -0.000000 0.2954(3) 0.7999(7)
O10 O 0.0460(3) 0.250000 0.6008(7)
O12 O 0.000000 0.3953(3) 0.7978(7)
Mo6 Mo 0.11349(3) 0.18819(3) 0.95736(7)
O16 O 0.0454(3) 0.250000 0.9501(7)
O18 O 0.1608(3) 0.1514(3) 0.9743(7)
O19 O 0.1453(3) 0.250000 0.9522(7)
O21 O 0.0574(3) 0.1452(2) 0.9543(6)
Mo7_2 Mo -0.000000 0.19602(5) 0.58292(9)
Mo8 Mo 0.06181(3) 0.13651(3) 0.79264(7)
O22_2 O 0.000000 0.1833(4) 0.4472(8)
O23 O -0.000000 0.2046(3) 0.7999(7)
O25 O 0.0986(3) 0.0892(3) 0.7757(7)
O26 O 0.000000 0.1047(3) 0.7978(7)
O27_2 O 0.0496(2) 0.1545(2) 0.6374(5)
O28 O 0.1048(2) 0.1926(3) 0.7957(6)
Mo9 Mo 0.06181(3) 0.36349(3) 0.79264(7)
O29 O 0.0986(3) 0.4108(3) 0.7757(7)
O30 O 0.0496(2) 0.3455(2) 0.6374(5)
O31 O 0.1048(2) 0.3074(3) 0.7957(6)
Mo10 Mo 0.11349(3) 0.31181(3) 0.95736(7)
O32 O 0.1608(3) 0.3486(3) 0.9743(7)
O34 O 0.0574(3) 0.3548(2) 0.9543(6)
Zn3 Zn 0.10303(6) 0.250000 0.69760(13)
N5 N 0.1615(6) 0.250000 0.6043(13)
N6 N 0.2115(6) 0.250000 0.4670(14)
C13 C 0.1683(7) 0.250000 0.4994(17)
H11 H 0.142549 0.250000 0.449387
C14 C 0.2313(8) 0.250000 0.3541(16)
C15 C 0.2790(8) 0.250000 0.3444(17)
H12 H 0.298906 0.250000 0.406903
C16 C 0.2014(8) 0.250000 0.2641(17)
H13 H 0.167892 0.250000 0.274111
C17 C 0.2383(8) 0.250000 0.5604(17)
H14 H 0.272029 0.250000 0.564479
C18 C 0.2063(8) 0.250000 0.6496(18)
H15 H 0.214138 0.250000 0.724931
N8 N 0.2885(6) 0.250000 0.0330(14)
C19 C 0.3317(7) 0.250000 0.0006(17)
H16 H 0.357451 0.250000 0.050613
C20 C 0.2687(8) 0.250000 0.1459(16)
C21 C 0.2210(8) 0.250000 0.1556(17)
H17 H 0.201094 0.250000 0.093097
C22 C 0.2986(8) 0.250000 0.2359(17)
H18 H 0.332108 0.250000 0.225889
Mo2 Mo 0.88651(3) 0.31181(3) 0.95736(7)
P1_2 P 1.000000 0.250000 0.875000
O3 O 0.9426(3) 0.3548(2) 0.9543(6)
O4 O 0.9546(3) 0.250000 0.9501(7)
O6 O 0.8392(3) 0.3486(3) 0.9743(7)
O7 O 0.8547(3) 0.250000 0.9522(7)
Mo3_2 Mo 1.000000 0.30398(5) 0.58292(9)
Mo4 Mo 0.93819(3) 0.36349(3) 0.79264(7)
O8_2 O 1.000000 0.3167(4) 0.4472(8)
O9_2 O 1.000000 0.2954(3) 0.7999(7)
O11 O 0.9014(3) 0.4108(3) 0.7757(7)
O12_2 O 1.000000 0.3953(3) 0.7978(7)
O13 O 0.9504(2) 0.3455(2) 0.6374(5)
O14 O 0.8952(2) 0.3074(3) 0.7957(6)
Mo7_3 Mo 1.000000 0.19602(5) 0.58292(9)
O22_3 O 1.000000 0.1833(4) 0.4472(8)
O23_2 O 1.000000 0.2046(3) 0.7999(7)
O24_2 O 0.9540(3) 0.250000 0.6008(7)
O26_2 O 1.000000 0.1047(3) 0.7978(7)
Mo11 Mo 0.93819(3) 0.13651(3) 0.79264(7)
O35 O 0.9014(3) 0.0892(3) 0.7757(7)
O36_2 O 0.9504(2) 0.1545(2) 0.6374(5)
O37 O 0.8952(2) 0.1926(3) 0.7957(6)
Mo12 Mo 0.88651(3) 0.18819(3) 0.95736(7)
O38 O 0.8392(3) 0.1514(3) 0.9743(7)
O40 O 0.9426(3) 0.1452(2) 0.9543(6)
Zn6_2 Zn 0.89697(6) 0.250000 0.69760(13)
O1 O 0.500000 0.3167(4) 0.0528(8)
O15_2 O 0.500000 0.1833(4) 0.0528(8)
N9_3 N 0.8385(6) 0.250000 0.6043(13)
N2_3 N 0.7115(6) 0.250000 0.0330(14)
C1_3 C 0.6683(7) 0.250000 0.0006(17)
H1_3 H 0.642549 0.250000 0.050613
C2_3 C 0.7313(8) 0.250000 0.1459(16)
C3_3 C 0.7790(8) 0.250000 0.1556(17)
H2_3 H 0.798906 0.250000 0.093097
C4_3 C 0.7014(8) 0.250000 0.2359(17)
H3_3 H 0.667892 0.250000 0.225889
N4_3 N 0.7885(6) 0.250000 0.4670(14)
C7_3 C 0.8317(7) 0.250000 0.4994(17)
H6_3 H 0.857451 0.250000 0.449387
C8_3 C 0.7687(8) 0.250000 0.3541(16)
C9_3 C 0.7210(8) 0.250000 0.3444(17)
H7_3 H 0.701094 0.250000 0.406903
C10_3 C 0.7986(8) 0.250000 0.2641(17)
H8_3 H 0.832108 0.250000 0.274111
C11_3 C 0.7617(8) 0.250000 0.5604(17)
H9_3 H 0.727971 0.250000 0.564479
C12_3 C 0.7937(8) 0.250000 0.6496(18)
H10_3 H 0.785862 0.250000 0.724931
N7 N 0.3385(6) 0.250000 0.8957(13)
C23 C 0.2617(8) 0.250000 0.9396(17)
H19 H 0.227971 0.250000 0.935521
C24 C 0.2937(8) 0.250000 0.8504(18)
H20 H 0.285862 0.250000 0.775069
Zn5 Zn 0.39697(6) 0.250000 0.80240(13)
N3_2 N 0.500000 0.0885(6) 0.3543(13)
N4_4 N 0.500000 0.0385(6) 0.2170(14)
C7_4 C 0.500000 0.0817(7) 0.2494(17)
H6_4 H 0.500000 0.107451 0.199387
C8_4 C 0.500000 0.0187(8) 0.1041(16)
C10_4 C 0.500000 0.0486(8) 0.0141(17)
H8_4 H 0.500000 0.082108 0.024111
C11_4 C 0.500000 0.0117(8) 0.3104(17)
C12_4 C 0.500000 0.0437(8) 0.3996(18)
H10_4 H 0.500000 0.035862 0.474931
Zn2_2 Zn 0.500000 0.14697(6) 0.44760(13)
O41 O 0.4426(3) 0.1452(2) 0.5457(6)
O42 O 0.5574(3) 0.1452(2) 0.5457(6)
O43_2 O 0.500000 0.2040(3) 0.3508(7)
Mo1 Mo 0.500000 0.30398(5) 0.91708(9)
Mo2_2 Mo 0.56181(3) 0.36349(3) 0.70736(7)
P1_3 P 0.500000 0.250000 0.625000
O2 O 0.5496(2) 0.3455(2) 0.8626(5)
O3_2 O 0.6048(2) 0.3074(3) 0.7043(6)
O4_2 O 0.500000 0.2954(3) 0.7001(7)
O5_2 O 0.4540(3) 0.250000 0.8992(7)
O6_2 O 0.5986(3) 0.4108(3) 0.7243(7)
O7_2 O 0.500000 0.3953(3) 0.7022(7)
Mo3_3 Mo 0.55398(5) 0.250000 0.33292(9)
Mo4_2 Mo 0.61349(3) 0.31181(3) 0.54264(7)
O8_3 O 0.5667(4) 0.250000 0.1972(8)
O9_3 O 0.5454(3) 0.250000 0.5499(7)
O11_2 O 0.6608(3) 0.3486(3) 0.5257(7)
O12_3 O 0.6453(3) 0.250000 0.5478(7)
O13_2 O 0.5955(2) 0.2996(2) 0.3874(5)
O14_2 O 0.5574(3) 0.3548(2) 0.5457(6)
Mo5_2 Mo 0.500000 0.19602(5) 0.91708(9)
Mo6_2 Mo 0.43819(3) 0.13651(3) 0.70736(7)
O16_2 O 0.500000 0.2046(3) 0.7001(7)
O17_2 O 0.5460(3) 0.250000 0.8992(7)
O18_2 O 0.4014(3) 0.0892(3) 0.7243(7)
O19_2 O 0.500000 0.1047(3) 0.7022(7)
O20_2 O 0.4504(2) 0.1545(2) 0.8626(5)
O21_2 O 0.3952(2) 0.1926(3) 0.7043(6)
Mo7_4 Mo 0.44602(5) 0.250000 0.33292(9)
Mo8_2 Mo 0.38651(3) 0.18819(3) 0.54264(7)
O22_4 O 0.4333(4) 0.250000 0.1972(8)
O23_3 O 0.4546(3) 0.250000 0.5499(7)
O24_3 O 0.500000 0.2960(3) 0.3508(7)
O25_2 O 0.3392(3) 0.1514(3) 0.5257(7)
O26_3 O 0.3547(3) 0.250000 0.5478(7)
O27_3 O 0.4045(2) 0.2004(2) 0.3874(5)
Mo9_2 Mo 0.61349(3) 0.18819(3) 0.54264(7)
O29_2 O 0.6608(3) 0.1514(3) 0.5257(7)
O30_2 O 0.5955(2) 0.2004(2) 0.3874(5)
Mo10_2 Mo 0.56181(3) 0.13651(3) 0.70736(7)
O32_2 O 0.5986(3) 0.0892(3) 0.7243(7)
O33_2 O 0.5496(2) 0.1545(2) 0.8626(5)
O34_2 O 0.6048(2) 0.1926(3) 0.7043(6)
Mo11_2 Mo 0.38651(3) 0.31181(3) 0.54264(7)
O35_2 O 0.3392(3) 0.3486(3) 0.5257(7)
O36_3 O 0.4045(2) 0.2996(2) 0.3874(5)
O37_2 O 0.4426(3) 0.3548(2) 0.5457(6)
Mo12_2 Mo 0.43819(3) 0.36349(3) 0.70736(7)
O38_2 O 0.4014(3) 0.4108(3) 0.7243(7)
O39 O 0.4504(2) 0.3455(2) 0.8626(5)
O40_2 O 0.3952(2) 0.3074(3) 0.7043(6)
Zn4_2 Zn 0.60303(6) 0.250000 0.80240(13)
Zn6_3 Zn 0.500000 0.35303(6) 0.44760(13)
N9_4 N 0.6615(6) 0.250000 0.8957(13)
N9_5 N 0.500000 0.4115(6) 0.3543(13)
N4_5 N 0.500000 0.4615(6) 0.2170(14)
C7_5 C 0.500000 0.4183(7) 0.2494(17)
H6_5 H 0.500000 0.392549 0.199387
C8_5 C 0.500000 0.4813(8) 0.1041(16)
C9_4 C 0.500000 0.5290(8) 0.0944(17)
H7_4 H 0.500000 0.548906 0.156903
C10_5 C 0.500000 0.4514(8) 0.0141(17)
H8_5 H 0.500000 0.417892 0.024111
C11_5 C 0.500000 0.4883(8) 0.3104(17)
H9_4 H 0.500000 0.522029 0.314479
C12_5 C 0.500000 0.4563(8) 0.3996(18)
H10_5 H 0.500000 0.464138 0.474931
C5_3 C 0.7383(8) 0.250000 0.9396(17)
H4_3 H 0.772029 0.250000 0.935521
C6_3 C 0.7063(8) 0.250000 0.8504(18)
H5_3 H 0.714138 0.250000 0.775069
O41_2 O 0.0574(3) 0.8548(2) 0.0457(6)
O42_2 O 0.9426(3) 0.8548(2) 0.0457(6)
Mo1_2 Mo 0.000000 0.69602(5) 0.41708(9)
Zn1_2 Zn 0.10303(6) 0.750000 0.30240(13)
P1_4 P 0.000000 0.750000 0.125000
O1_2 O -0.000000 0.6833(4) 0.5528(8)
O4_3 O 0.000000 0.7046(3) 0.2001(7)
O5_3 O 0.0460(3) 0.750000 0.3992(7)
O7_3 O -0.000000 0.6047(3) 0.2022(7)
N1_2 N 0.1615(6) 0.750000 0.3957(13)
N2_4 N 0.2115(6) 0.750000 0.5330(14)
C1_4 C 0.1683(7) 0.750000 0.5006(17)
H1_4 H 0.142549 0.750000 0.550613
C2_4 C 0.2313(8) 0.750000 0.6459(16)
C3_4 C 0.2790(8) 0.750000 0.6556(17)
H2_4 H 0.298906 0.750000 0.593097
C4_4 C 0.2014(8) 0.750000 0.7359(17)
H3_4 H 0.167892 0.750000 0.725889
C5_4 C 0.2383(8) 0.750000 0.4396(17)
H4_4 H 0.272029 0.750000 0.435521
C6_4 C 0.2063(8) 0.750000 0.3504(18)
H5_4 H 0.214138 0.750000 0.275069
Mo5_3 Mo 0.000000 0.80398(5) 0.41708(9)
Mo6_3 Mo 0.06181(3) 0.86349(3) 0.20736(7)
O15_3 O -0.000000 0.8167(4) 0.5528(8)
O16_3 O 0.000000 0.7954(3) 0.2001(7)
O18_3 O 0.0986(3) 0.9108(3) 0.2243(7)
O19_3 O -0.000000 0.8953(3) 0.2022(7)
O20_3 O 0.0496(2) 0.8455(2) 0.3626(5)
O21_3 O 0.1048(2) 0.8074(3) 0.2043(6)
Mo8_3 Mo 0.11349(3) 0.81181(3) 0.04264(7)
O23_4 O 0.0454(3) 0.750000 0.0499(7)
O25_3 O 0.1608(3) 0.8486(3) 0.0257(7)
O26_4 O 0.1453(3) 0.750000 0.0478(7)
Mo11_3 Mo 0.11349(3) 0.68819(3) 0.04264(7)
O35_3 O 0.1608(3) 0.6514(3) 0.0257(7)
O37_3 O 0.0574(3) 0.6452(2) 0.0457(6)
Mo12_3 Mo 0.06181(3) 0.63651(3) 0.20736(7)
O38_3 O 0.0986(3) 0.5892(3) 0.2243(7)
O39_2 O 0.0496(2) 0.6545(2) 0.3626(5)
O40_3 O 0.1048(2) 0.6926(3) 0.2043(6)
N4_6 N 0.2885(6) 0.750000 0.9670(14)
C7_6 C 0.3317(7) 0.750000 0.9994(17)
H6_6 H 0.357451 0.750000 0.949387
C8_6 C 0.2687(8) 0.750000 0.8541(16)
C9_5 C 0.2210(8) 0.750000 0.8444(17)
H7_5 H 0.201094 0.750000 0.906903
C10_6 C 0.2986(8) 0.750000 0.7641(17)
H8_6 H 0.332108 0.750000 0.774111
Mo1_3 Mo 1.000000 0.69602(5) 0.41708(9)
Mo2_3 Mo 0.93819(3) 0.63651(3) 0.20736(7)
P1_5 P 1.000000 0.750000 0.125000
O1_3 O 1.000000 0.6833(4) 0.5528(8)
O2_2 O 0.9504(2) 0.6545(2) 0.3626(5)
O3_3 O 0.8952(2) 0.6926(3) 0.2043(6)
O4_4 O 1.000000 0.7046(3) 0.2001(7)
O6_3 O 0.9014(3) 0.5892(3) 0.2243(7)
O7_4 O 1.000000 0.6047(3) 0.2022(7)
Mo4_3 Mo 0.88651(3) 0.68819(3) 0.04264(7)
O9_4 O 0.9546(3) 0.750000 0.0499(7)
O11_3 O 0.8392(3) 0.6514(3) 0.0257(7)
O12_4 O 0.8547(3) 0.750000 0.0478(7)
O14_3 O 0.9426(3) 0.6452(2) 0.0457(6)
Mo5_4 Mo 1.000000 0.80398(5) 0.41708(9)
O15_4 O 1.000000 0.8167(4) 0.5528(8)
O16_4 O 1.000000 0.7954(3) 0.2001(7)
O17_3 O 0.9540(3) 0.750000 0.3992(7)
O19_4 O 1.000000 0.8953(3) 0.2022(7)
Mo9_3 Mo 0.88651(3) 0.81181(3) 0.04264(7)
O29_3 O 0.8392(3) 0.8486(3) 0.0257(7)
Mo10_3 Mo 0.93819(3) 0.86349(3) 0.20736(7)
O32_3 O 0.9014(3) 0.9108(3) 0.2243(7)
O33_3 O 0.9504(2) 0.8455(2) 0.3626(5)
O34_3 O 0.8952(2) 0.8074(3) 0.2043(6)
Zn4_3 Zn 0.89697(6) 0.750000 0.30240(13)
N9_6 N 0.8385(6) 0.750000 0.3957(13)
O8_4 O 0.500000 0.6833(4) 0.9472(8)
O22_5 O 0.500000 0.8167(4) 0.9472(8)
N6_2 N 0.7115(6) 0.750000 0.9670(14)
C13_2 C 0.6683(7) 0.750000 0.9994(17)
H11_2 H 0.642549 0.750000 0.949387
C14_2 C 0.7313(8) 0.750000 0.8541(16)
C15_2 C 0.7790(8) 0.750000 0.8444(17)
H12_2 H 0.798906 0.750000 0.906903
C16_2 C 0.7014(8) 0.750000 0.7641(17)
H13_2 H 0.667892 0.750000 0.774111
N8_2 N 0.7885(6) 0.750000 0.5330(14)
C19_2 C 0.8317(7) 0.750000 0.5006(17)
H16_2 H 0.857451 0.750000 0.550613
C20_2 C 0.7687(8) 0.750000 0.6459(16)
C21_2 C 0.7210(8) 0.750000 0.6556(17)
H17_2 H 0.701094 0.750000 0.593097
C22_2 C 0.7986(8) 0.750000 0.7359(17)
H18_2 H 0.832108 0.750000 0.725889
C23_2 C 0.7617(8) 0.750000 0.4396(17)
H19_2 H 0.727971 0.750000 0.435521
C24_2 C 0.7937(8) 0.750000 0.3504(18)
H20_2 H 0.785862 0.750000 0.275069
Mo1_4 Mo 0.94602(5) 0.250000 0.16708(9)
Zn1_3 Zn 1.000000 0.14697(6) 0.05240(13)
O1_4 O 0.9333(4) 0.250000 0.3028(8)
O2_3 O 0.9045(2) 0.2996(2) 0.1126(5)
O5_4 O 1.000000 0.2040(3) 0.1492(7)
N1_3 N 1.000000 0.0885(6) 0.1457(13)
N2_5 N 1.000000 0.0385(6) 0.2830(14)
C1_5 C 1.000000 0.0817(7) 0.2506(17)
H1_5 H 1.000000 0.107451 0.300613
C2_5 C 1.000000 0.0187(8) 0.3959(16)
C4_5 C 1.000000 0.0486(8) 0.4859(17)
H3_5 H 1.000000 0.082108 0.475889
C5_5 C 1.000000 0.0117(8) 0.1896(17)
C6_5 C 1.000000 0.0437(8) 0.1004(18)
H5_5 H 1.000000 0.035862 0.025069
O17_4 O 1.000000 0.2960(3) 0.1492(7)
O39_3 O 0.9045(2) 0.2004(2) 0.1126(5)
C9_6 C 1.000000 0.0290(8) 0.5944(17)
H7_6 H 1.000000 0.048906 0.656903
H9_5 H 1.000000 0.022029 0.814479
Zn4_4 Zn 1.000000 0.35303(6) 0.05240(13)
N9_7 N 1.000000 0.4115(6) 0.1457(13)
C3_5 C 1.000000 0.9710(8) 0.4056(17)
H2_5 H 1.000000 0.951094 0.343097
H4_5 H 1.000000 0.977971 0.185521
N3_3 N 1.000000 0.9115(6) 0.8543(13)
N4_7 N 1.000000 0.9615(6) 0.7170(14)
C7_7 C 1.000000 0.9183(7) 0.7494(17)
H6_7 H 1.000000 0.892549 0.699387
C8_7 C 1.000000 0.9813(8) 0.6041(16)
C10_7 C 1.000000 0.9514(8) 0.5141(17)
H8_7 H 1.000000 0.917892 0.524111
C11_6 C 1.000000 0.9883(8) 0.8104(17)
C12_6 C 1.000000 0.9563(8) 0.8996(18)
H10_6 H 1.000000 0.964138 0.974931
Zn2_3 Zn 1.000000 0.85303(6) 0.94760(13)
O43_3 O 1.000000 0.7960(3) 0.8508(7)
Mo3_4 Mo 0.94602(5) 0.750000 0.83292(9)
O8_5 O 0.9333(4) 0.750000 0.6972(8)
O13_3 O 0.9045(2) 0.7004(2) 0.8874(5)
O24_4 O 1.000000 0.7040(3) 0.8508(7)
O30_3 O 0.9045(2) 0.7996(2) 0.8874(5)
Zn6_4 Zn 1.000000 0.64697(6) 0.94760(13)
N9_8 N 1.000000 0.5885(6) 0.8543(13)
N2_6 N 1.000000 0.4615(6) 0.2830(14)
C1_6 C 1.000000 0.4183(7) 0.2506(17)
H1_6 H 1.000000 0.392549 0.300613
C2_6 C 1.000000 0.4813(8) 0.3959(16)
C3_6 C 1.000000 0.5290(8) 0.4056(17)
H2_6 H 1.000000 0.548906 0.343097
C4_6 C 1.000000 0.4514(8) 0.4859(17)
H3_6 H 1.000000 0.417892 0.475889
C5_6 C 1.000000 0.4883(8) 0.1896(17)
H4_6 H 1.000000 0.522029 0.185521
C6_6 C 1.000000 0.4563(8) 0.1004(18)
H5_6 H 1.000000 0.464138 0.025069
N4_8 N 1.000000 0.5385(6) 0.7170(14)
C7_8 C 1.000000 0.5817(7) 0.7494(17)
H6_8 H 1.000000 0.607451 0.699387
C8_8 C 1.000000 0.5187(8) 0.6041(16)
C9_7 C 1.000000 0.4710(8) 0.5944(17)
H7_7 H 1.000000 0.451094 0.656903
C10_8 C 1.000000 0.5486(8) 0.5141(17)
H8_8 H 1.000000 0.582108 0.524111
C11_7 C 1.000000 0.5117(8) 0.8104(17)
H9_6 H 1.000000 0.477971 0.814479
C12_7 C 1.000000 0.5437(8) 0.8996(18)
H10_7 H 1.000000 0.535862 0.974931
N3_4 N 0.3385(6) 0.750000 0.1043(13)
C11_8 C 0.2617(8) 0.750000 0.0604(17)
H9_7 H 0.227971 0.750000 0.064479
C12_8 C 0.2937(8) 0.750000 0.1496(18)
H10_8 H 0.285862 0.750000 0.224931
Zn2_4 Zn 0.39697(6) 0.750000 0.19760(13)
O41_3 O 0.3952(2) 0.8074(3) 0.2957(6)
O42_3 O 0.3952(2) 0.6926(3) 0.2957(6)
O43_4 O 0.4540(3) 0.750000 0.1008(7)
Mo1_5 Mo 0.55398(5) 0.750000 0.66708(9)
Mo2_4 Mo 0.61349(3) 0.68819(3) 0.45736(7)
Zn1_4 Zn 0.500000 0.85303(6) 0.55240(13)
P1_6 P 0.500000 0.750000 0.375000
O1_5 O 0.5667(4) 0.750000 0.8028(8)
O2_4 O 0.5955(2) 0.7004(2) 0.6126(5)
O3_4 O 0.5574(3) 0.6452(2) 0.4543(6)
O4_5 O 0.5454(3) 0.750000 0.4501(7)
O5_5 O 0.500000 0.7960(3) 0.6492(7)
O6_4 O 0.6608(3) 0.6514(3) 0.4743(7)
O7_5 O 0.6453(3) 0.750000 0.4522(7)
N1_4 N 0.500000 0.9115(6) 0.6457(13)
N2_7 N 0.500000 0.9615(6) 0.7830(14)
C1_7 C 0.500000 0.9183(7) 0.7506(17)
H1_7 H 0.500000 0.892549 0.800613
C2_7 C 0.500000 0.9813(8) 0.8959(16)
C4_7 C 0.500000 0.9514(8) 0.9859(17)
H3_7 H 0.500000 0.917892 0.975889
C5_7 C 0.500000 0.9883(8) 0.6896(17)
C6_7 C 0.500000 0.9563(8) 0.6004(18)
H5_7 H 0.500000 0.964138 0.525069
Mo3_5 Mo 0.500000 0.69602(5) 0.08292(9)
Mo4_4 Mo 0.56181(3) 0.63651(3) 0.29264(7)
O9_5 O 0.500000 0.7046(3) 0.2999(7)
O11_4 O 0.5986(3) 0.5892(3) 0.2757(7)
O12_5 O 0.500000 0.6047(3) 0.2978(7)
O13_4 O 0.5496(2) 0.6545(2) 0.1374(5)
O14_4 O 0.6048(2) 0.6926(3) 0.2957(6)
Mo5_5 Mo 0.44602(5) 0.750000 0.66708(9)
Mo6_4 Mo 0.38651(3) 0.81181(3) 0.45736(7)
O15_5 O 0.4333(4) 0.750000 0.8028(8)
O16_5 O 0.4546(3) 0.750000 0.4501(7)
O17_5 O 0.500000 0.7040(3) 0.6492(7)
O18_4 O 0.3392(3) 0.8486(3) 0.4743(7)
O19_5 O 0.3547(3) 0.750000 0.4522(7)
O20_4 O 0.4045(2) 0.7996(2) 0.6126(5)
O21_4 O 0.4426(3) 0.8548(2) 0.4543(6)
Mo7_5 Mo 0.500000 0.80398(5) 0.08292(9)
Mo8_4 Mo 0.43819(3) 0.86349(3) 0.29264(7)
O23_5 O 0.500000 0.7954(3) 0.2999(7)
O24_5 O 0.5460(3) 0.750000 0.1008(7)
O25_4 O 0.4014(3) 0.9108(3) 0.2757(7)
O26_5 O 0.500000 0.8953(3) 0.2978(7)
O27_4 O 0.4504(2) 0.8455(2) 0.1374(5)
Mo9_4 Mo 0.43819(3) 0.63651(3) 0.29264(7)
O29_4 O 0.4014(3) 0.5892(3) 0.2757(7)
O30_4 O 0.4504(2) 0.6545(2) 0.1374(5)
Mo10_4 Mo 0.38651(3) 0.68819(3) 0.45736(7)
O32_4 O 0.3392(3) 0.6514(3) 0.4743(7)
O33_4 O 0.4045(2) 0.7004(2) 0.6126(5)
O34_4 O 0.4426(3) 0.6452(2) 0.4543(6)
Mo11_4 Mo 0.56181(3) 0.86349(3) 0.29264(7)
O35_4 O 0.5986(3) 0.9108(3) 0.2757(7)
O36_4 O 0.5496(2) 0.8455(2) 0.1374(5)
O37_4 O 0.6048(2) 0.8074(3) 0.2957(6)
Mo12_4 Mo 0.61349(3) 0.81181(3) 0.45736(7)
O38_4 O 0.6608(3) 0.8486(3) 0.4743(7)
O39_4 O 0.5955(2) 0.7996(2) 0.6126(5)
O40_4 O 0.5574(3) 0.8548(2) 0.4543(6)
Zn4_5 Zn 0.500000 0.64697(6) 0.55240(13)
Zn6_5 Zn 0.60303(6) 0.750000 0.19760(13)
N9_9 N 0.500000 0.5885(6) 0.6457(13)
N9_10 N 0.6615(6) 0.750000 0.1043(13)
N2_8 N 0.500000 0.5385(6) 0.7830(14)
C1_8 C 0.500000 0.5817(7) 0.7506(17)
H1_8 H 0.500000 0.607451 0.800613
C2_8 C 0.500000 0.5187(8) 0.8959(16)
C3_7 C 0.500000 0.4710(8) 0.9056(17)
H2_7 H 0.500000 0.451094 0.843097
C4_8 C 0.500000 0.5486(8) 0.9859(17)
H3_8 H 0.500000 0.582108 0.975889
C5_8 C 0.500000 0.5117(8) 0.6896(17)
H4_7 H 0.500000 0.477971 0.685521
C6_8 C 0.500000 0.5437(8) 0.6004(18)
H5_8 H 0.500000 0.535862 0.525069
C17_2 C 0.7383(8) 0.750000 0.0604(17)
H14_2 H 0.772029 0.750000 0.064479
C18_2 C 0.7063(8) 0.750000 0.1496(18)
H15_2 H 0.714138 0.750000 0.224931
C3_8 C 0.500000 0.0290(8) 0.9056(17)
H2_8 H 0.500000 0.048906 0.843097
H4_8 H 0.500000 0.022029 0.685521
C9_8 C 0.500000 0.9710(8) 0.0944(17)
H7_8 H 0.500000 0.951094 0.156903
H9_8 H 0.500000 0.977971 0.314479
loop_
_geom_bond_atom_site_label_1
_geom_bond_atom_site_label_2
_geom_bond_site_symmetry_1
_geom_bond_site_symmetry_2
Zn1 O5 1_555 1_555
N1 Zn1 1_555 1_555
N2 C1 1_555 1_555
C1 N1 1_555 1_555
H1 C1 1_555 1_555
C2 N2 1_555 1_555
C4 C2 1_555 1_555
H3 C4 1_555 1_555
C5 N2 1_555 1_555
C6 N1 1_555 1_555
H5 C6 1_555 1_555
Mo5 O5 1_555 1_555
O15 Mo5 1_555 1_555
O20 Mo5 1_555 1_555
O33 Mo5 1_555 1_555
C9 C4 1_555 1_555
H7 C9 1_555 1_555
N9 Zn4 1_555 1_555
C5 C6 1_555 1_555
Mo5 O17 1_555 1_555
O17 Zn4 1_555 1_555
H2 C3 1_555 1_555
N3 C7 1_555 1_555
N4 C7 1_555 1_555
C7 H6 1_555 1_555
C8 N4 1_555 1_555
C10 C3 1_555 1_555
H8 C10 1_555 1_555
C11 N4 1_555 1_555
C12 N3 1_555 1_555
H10 C12 1_555 1_555
Zn2 N3 1_555 1_555
O43 Zn2 1_555 1_555
C8 C10 1_555 1_555
C11 C12 1_555 1_555
Mo7 O43 1_555 1_555
O22 Mo7 1_555 1_555
O27 Mo7 1_555 1_555
O36 Mo7 1_555 1_555
Mo7 O24 1_555 1_555
O24 Zn6 1_555 1_555
N9_2 Zn6 1_555 1_555
N2_2 C1_2 1_555 1_555
C1_2 N9 1_555 1_555
H1_2 C1_2 1_555 1_555
C2_2 N2_2 1_555 1_555
C3_2 C2_2 1_555 1_555
H2_2 C3_2 1_555 1_555
C4_2 C2_2 1_555 1_555
H3_2 C4_2 1_555 1_555
C5_2 N2_2 1_555 1_555
H4_2 C5_2 1_555 1_555
C6_2 N9 1_555 1_555
H5_2 C6_2 1_555 1_555
N9_2 C7_2 1_555 1_555
N4_2 C7_2 1_555 1_555
C7_2 H6_2 1_555 1_555
C8_2 N4_2 1_555 1_555
C9_2 C4_2 1_555 1_555
H7_2 C9_2 1_555 1_555
C10_2 C3_2 1_555 1_555
H8_2 C10_2 1_555 1_555
C11_2 N4_2 1_555 1_555
H9_2 C11_2 1_555 1_555
C12_2 N9_2 1_555 1_555
H10_2 C12_2 1_555 1_555
C5_2 C6_2 1_555 1_555
C8_2 C9_2 1_555 1_555
C8_2 C10_2 1_555 1_555
C11_2 C12_2 1_555 1_555
Mo3 O8 1_555 1_555
O9 P1 1_555 1_555
O10 Mo3 1_555 1_555
Mo6 O16 1_555 1_555
O16 P1 1_555 1_555
O18 Mo6 1_555 1_555
O19 Mo6 1_555 1_555
Mo7_2 O10 1_555 1_555
Mo8 O21 1_555 1_555
O22_2 Mo7_2 1_555 1_555
O23 P1 1_555 1_555
O25 Mo8 1_555 1_555
O26 Mo8 1_555 1_555
O27_2 Mo7_2 1_555 1_555
O28 Mo6 1_555 1_555
Mo9 O9 1_555 1_555
O29 Mo9 1_555 1_555
O30 Mo3 1_555 1_555
O31 Mo9 1_555 1_555
Mo10 O16 1_555 1_555
O32 Mo10 1_555 1_555
O34 Mo9 1_555 1_555
Zn3 O10 1_555 1_555
N5 Zn3 1_555 1_555
N6 C13 1_555 1_555
C13 N5 1_555 1_555
H11 C13 1_555 1_555
C14 N6 1_555 1_555
C15 C14 1_555 1_555
H12 C15 1_555 1_555
C16 C14 1_555 1_555
H13 C16 1_555 1_555
C17 N6 1_555 1_555
H14 C17 1_555 1_555
C18 N5 1_555 1_555
H15 C18 1_555 1_555
N8 C19 1_555 1_555
C19 H16 1_555 1_555
C20 N8 1_555 1_555
C21 C16 1_555 1_555
H17 C21 1_555 1_555
C22 C15 1_555 1_555
H18 C22 1_555 1_555
Mo3 O9 1_555 1_555
O12 Mo9 1_555 1_555
Mo6 O21 1_555 1_555
O19 Mo10 1_555 1_555
Mo7_2 O23 1_555 1_555
Mo8 O23 1_555 1_555
Mo8 O27_2 1_555 1_555
Mo8 O28 1_555 1_555
O28 Zn3 1_555 1_555
Mo9 O30 1_555 1_555
O31 Mo10 1_555 1_555
O31 Zn3 1_555 1_555
Mo10 O34 1_555 1_555
C17 C18 1_555 1_555
C20 C21 1_555 1_555
C20 C22 1_555 1_555
P1_2 O4 1_555 1_555
O3 Mo2 1_555 1_555
O6 Mo2 1_555 1_555
O7 Mo2 1_555 1_555
Mo3_2 O8_2 1_555 1_555
Mo4 O3 1_555 1_555
O9_2 P1_2 1_555 1_555
O11 Mo4 1_555 1_555
O12_2 Mo4 1_555 1_555
O13 Mo3_2 1_555 1_555
O14 Mo2 1_555 1_555
O22_3 Mo7_3 1_555 1_555
O23_2 P1_2 1_555 1_555
O24_2 Mo3_2 1_555 1_555
Mo11 O23_2 1_555 1_555
O35 Mo11 1_555 1_555
O36_2 Mo7_3 1_555 1_555
O37 Mo11 1_555 1_555
Mo12 O4 1_555 1_555
O38 Mo12 1_555 1_555
Zn6_2 O14 1_555 1_555
Mo2 O4 1_555 1_555
O7 Mo12 1_555 1_555
Mo3_2 O9_2 1_555 1_555
Mo4 O9_2 1_555 1_555
Mo4 O13 1_555 1_555
Mo4 O14 1_555 1_555
Mo7_3 O23_2 1_555 1_555
Mo7_3 O24_2 1_555 1_555
O24_2 Zn6_2 1_555 1_555
O26_2 Mo11 1_555 1_555
Mo11 O36_2 1_555 1_555
Mo11 O40 1_555 1_555
O37 Mo12 1_555 1_555
O37 Zn6_2 1_555 1_555
Mo12 O40 1_555 1_555
N9_3 Zn6_2 1_555 1_555
N2_3 C1_3 1_555 1_555
H1_3 C1_3 1_555 1_555
C2_3 N2_3 1_555 1_555
C3_3 C2_3 1_555 1_555
H2_3 C3_3 1_555 1_555
C4_3 C2_3 1_555 1_555
H3_3 C4_3 1_555 1_555
N9_3 C7_3 1_555 1_555
N4_3 C7_3 1_555 1_555
C7_3 H6_3 1_555 1_555
C8_3 N4_3 1_555 1_555
C9_3 C4_3 1_555 1_555
H7_3 C9_3 1_555 1_555
C10_3 C3_3 1_555 1_555
H8_3 C10_3 1_555 1_555
C11_3 N4_3 1_555 1_555
H9_3 C11_3 1_555 1_555
C12_3 N9_3 1_555 1_555
H10_3 C12_3 1_555 1_555
C8_3 C9_3 1_555 1_555
C8_3 C10_3 1_555 1_555
C11_3 C12_3 1_555 1_555
H19 C23 1_555 1_555
C24 N7 1_555 1_555
H20 C24 1_555 1_555
Zn5 N7 1_555 1_555
C23 C24 1_555 1_555
N3_2 C7_4 1_555 1_555
N4_4 C7_4 1_555 1_555
C7_4 H6_4 1_555 1_555
C8_4 N4_4 1_555 1_555
H8_4 C10_4 1_555 1_555
C11_4 N4_4 1_555 1_555
C12_4 N3_2 1_555 1_555
H10_4 C12_4 1_555 1_555
Zn2_2 N3_2 1_555 1_555
O41 Zn2_2 1_555 1_555
O42 Zn2_2 1_555 1_555
O43_2 Zn2_2 1_555 1_555
C8_4 C10_4 1_555 1_555
C11_4 C12_4 1_555 1_555
Mo2_2 O2 1_555 1_555
Zn5 O5_2 1_555 1_555
P1_3 O4_2 1_555 1_555
O2 Mo1 1_555 1_555
O3_2 Mo2_2 1_555 1_555
O4_2 Mo1 1_555 1_555
O5_2 Mo1 1_555 1_555
O6_2 Mo2_2 1_555 1_555
O7_2 Mo2_2 1_555 1_555
Mo3_3 O8_3 1_555 1_555
Mo4_2 O3_2 1_555 1_555
O9_3 P1_3 1_555 1_555
O43_2 Mo3_3 1_555 1_555
O11_2 Mo4_2 1_555 1_555
O12_3 Mo4_2 1_555 1_555
O13_2 Mo3_3 1_555 1_555
O14_2 Mo2_2 1_555 1_555
Mo5_2 O5_2 1_555 1_555
Mo6_2 O16_2 1_555 1_555
O16_2 P1_3 1_555 1_555
O17_2 Mo1 1_555 1_555
O18_2 Mo6_2 1_555 1_555
O19_2 Mo6_2 1_555 1_555
O20_2 Mo5_2 1_555 1_555
O21_2 Zn5 1_555 1_555
Mo7_4 O43_2 1_555 1_555
Mo8_2 O21_2 1_555 1_555
O22_4 Mo7_4 1_555 1_555
O23_3 P1_3 1_555 1_555
O24_3 Mo3_3 1_555 1_555
O25_2 Mo8_2 1_555 1_555
O26_3 Mo8_2 1_555 1_555
O27_3 Mo7_4 1_555 1_555
O41 Mo6_2 1_555 1_555
Mo9_2 O9_3 1_555 1_555
O29_2 Mo9_2 1_555 1_555
O30_2 Mo3_3 1_555 1_555
O42 Mo9_2 1_555 1_555
Mo10_2 O16_2 1_555 1_555
O32_2 Mo10_2 1_555 1_555
O33_2 Mo5_2 1_555 1_555
O34_2 Mo9_2 1_555 1_555
Mo11_2 O23_3 1_555 1_555
O35_2 Mo11_2 1_555 1_555
O36_3 Mo7_4 1_555 1_555
O37_2 Mo11_2 1_555 1_555
Mo12_2 O4_2 1_555 1_555
O38_2 Mo12_2 1_555 1_555
O39 Mo1 1_555 1_555
O40_2 Zn5 1_555 1_555
Zn4_2 O3_2 1_555 1_555
Zn6_3 O14_2 1_555 1_555
N9_4 Zn4_2 1_555 1_555
Mo2_2 O4_2 1_555 1_555
O7_2 Mo12_2 1_555 1_555
Mo3_3 O9_3 1_555 1_555
Mo4_2 O9_3 1_555 1_555
Mo4_2 O13_2 1_555 1_555
Mo4_2 O14_2 1_555 1_555
O12_3 Mo9_2 1_555 1_555
Mo5_2 O16_2 1_555 1_555
Mo5_2 O17_2 1_555 1_555
Mo6_2 O20_2 1_555 1_555
Mo6_2 O21_2 1_555 1_555
O17_2 Zn4_2 1_555 1_555
O19_2 Mo10_2 1_555 1_555
Mo7_4 O23_3 1_555 1_555
Mo7_4 O24_3 1_555 1_555
Mo8_2 O23_3 1_555 1_555
Mo8_2 O27_3 1_555 1_555
Mo8_2 O41 1_555 1_555
O24_3 Zn6_3 1_555 1_555
O26_3 Mo11_2 1_555 1_555
Mo9_2 O30_2 1_555 1_555
O42 Mo10_2 1_555 1_555
Mo10_2 O33_2 1_555 1_555
Mo10_2 O34_2 1_555 1_555
O34_2 Zn4_2 1_555 1_555
Mo11_2 O36_3 1_555 1_555
Mo11_2 O40_2 1_555 1_555
O37_2 Mo12_2 1_555 1_555
O37_2 Zn6_3 1_555 1_555
Mo12_2 O39 1_555 1_555
Mo12_2 O40_2 1_555 1_555
N9_5 Zn6_3 1_555 1_555
N9_5 C7_5 1_555 1_555
N4_5 C7_5 1_555 1_555
C7_5 H6_5 1_555 1_555
C8_5 N4_5 1_555 1_555
H7_4 C9_4 1_555 1_555
H8_5 C10_5 1_555 1_555
C11_5 N4_5 1_555 1_555
H9_4 C11_5 1_555 1_555
C12_5 N9_5 1_555 1_555
H10_5 C12_5 1_555 1_555
C8_5 C9_4 1_555 1_555
C8_5 C10_5 1_555 1_555
C11_5 C12_5 1_555 1_555
H4_3 C5_3 1_555 1_555
C6_3 N9_4 1_555 1_555
H5_3 C6_3 1_555 1_555
C5_3 C6_3 1_555 1_555
Mo1_2 O1_2 1_555 1_555
Zn1_2 O5_3 1_555 1_555
P1_4 O4_3 1_555 1_555
O4_3 Mo1_2 1_555 1_555
O5_3 Mo1_2 1_555 1_555
N1_2 Zn1_2 1_555 1_555
N2_4 C1_4 1_555 1_555
C1_4 N1_2 1_555 1_555
H1_4 C1_4 1_555 1_555
C2_4 N2_4 1_555 1_555
C3_4 C2_4 1_555 1_555
H2_4 C3_4 1_555 1_555
C4_4 C2_4 1_555 1_555
H3_4 C4_4 1_555 1_555
C5_4 N2_4 1_555 1_555
H4_4 C5_4 1_555 1_555
C6_4 N1_2 1_555 1_555
H5_4 C6_4 1_555 1_555
Mo5_3 O5_3 1_555 1_555
Mo6_3 O16_3 1_555 1_555
O15_3 Mo5_3 1_555 1_555
O16_3 P1_4 1_555 1_555
O18_3 Mo6_3 1_555 1_555
O19_3 Mo6_3 1_555 1_555
O20_3 Mo5_3 1_555 1_555
O21_3 Zn1_2 1_555 1_555
Mo8_3 O21_3 1_555 1_555
O23_4 P1_4 1_555 1_555
O25_3 Mo8_3 1_555 1_555
O26_4 Mo8_3 1_555 1_555
O41_2 Mo6_3 1_555 1_555
Mo11_3 O23_4 1_555 1_555
O35_3 Mo11_3 1_555 1_555
O37_3 Mo11_3 1_555 1_555
Mo12_3 O4_3 1_555 1_555
O38_3 Mo12_3 1_555 1_555
O39_2 Mo1_2 1_555 1_555
O40_3 Zn1_2 1_555 1_555
N4_6 C7_6 1_555 1_555
C7_6 H6_6 1_555 1_555
C8_6 N4_6 1_555 1_555
C9_5 C4_4 1_555 1_555
H7_5 C9_5 1_555 1_555
C10_6 C3_4 1_555 1_555
H8_6 C10_6 1_555 1_555
O7_3 Mo12_3 1_555 1_555
C5_4 C6_4 1_555 1_555
Mo5_3 O16_3 1_555 1_555
Mo6_3 O20_3 1_555 1_555
Mo6_3 O21_3 1_555 1_555
Mo8_3 O23_4 1_555 1_555
Mo8_3 O41_2 1_555 1_555
O26_4 Mo11_3 1_555 1_555
Mo11_3 O40_3 1_555 1_555
O37_3 Mo12_3 1_555 1_555
Mo12_3 O39_2 1_555 1_555
Mo12_3 O40_3 1_555 1_555
C8_6 C9_5 1_555 1_555
C8_6 C10_6 1_555 1_555
Mo1_3 O1_3 1_555 1_555
Mo2_3 O2_2 1_555 1_555
P1_5 O4_4 1_555 1_555
O2_2 Mo1_3 1_555 1_555
O3_3 Mo2_3 1_555 1_555
O4_4 Mo1_3 1_555 1_555
O6_3 Mo2_3 1_555 1_555
O7_4 Mo2_3 1_555 1_555
Mo4_3 O3_3 1_555 1_555
O9_4 P1_5 1_555 1_555
O11_3 Mo4_3 1_555 1_555
O12_4 Mo4_3 1_555 1_555
O14_3 Mo2_3 1_555 1_555
O15_4 Mo5_4 1_555 1_555
O16_4 P1_5 1_555 1_555
O17_3 Mo1_3 1_555 1_555
Mo9_3 O9_4 1_555 1_555
O29_3 Mo9_3 1_555 1_555
O42_2 Mo9_3 1_555 1_555
Mo10_3 O16_4 1_555 1_555
O32_3 Mo10_3 1_555 1_555
O33_3 Mo5_4 1_555 1_555
O34_3 Mo9_3 1_555 1_555
Zn4_3 O3_3 1_555 1_555
N9_6 Zn4_3 1_555 1_555
Mo2_3 O4_4 1_555 1_555
Mo4_3 O9_4 1_555 1_555
Mo4_3 O14_3 1_555 1_555
O12_4 Mo9_3 1_555 1_555
Mo5_4 O16_4 1_555 1_555
Mo5_4 O17_3 1_555 1_555
O17_3 Zn4_3 1_555 1_555
O19_4 Mo10_3 1_555 1_555
O42_2 Mo10_3 1_555 1_555
Mo10_3 O33_3 1_555 1_555
Mo10_3 O34_3 1_555 1_555
O34_3 Zn4_3 1_555 1_555
N6_2 C13_2 1_555 1_555
H11_2 C13_2 1_555 1_555
C14_2 N6_2 1_555 1_555
C15_2 C14_2 1_555 1_555
H12_2 C15_2 1_555 1_555
C16_2 C14_2 1_555 1_555
H13_2 C16_2 1_555 1_555
N9_6 C19_2 1_555 1_555
N8_2 C19_2 1_555 1_555
C19_2 H16_2 1_555 1_555
C20_2 N8_2 1_555 1_555
C21_2 C16_2 1_555 1_555
H17_2 C21_2 1_555 1_555
C22_2 C15_2 1_555 1_555
H18_2 C22_2 1_555 1_555
C23_2 N8_2 1_555 1_555
H19_2 C23_2 1_555 1_555
C24_2 N9_6 1_555 1_555
H20_2 C24_2 1_555 1_555
C20_2 C21_2 1_555 1_555
C20_2 C22_2 1_555 1_555
C23_2 C24_2 1_555 1_555
Mo1_4 O1_4 1_555 1_555
Zn1_3 O5_4 1_555 1_555
O2_3 Mo1_4 1_555 1_555
O5_4 Mo1_4 1_555 1_555
N1_3 Zn1_3 1_555 1_555
N2_5 C1_5 1_555 1_555
C1_5 N1_3 1_555 1_555
H1_5 C1_5 1_555 1_555
C2_5 N2_5 1_555 1_555
C4_5 C2_5 1_555 1_555
H3_5 C4_5 1_555 1_555
C5_5 N2_5 1_555 1_555
C6_5 N1_3 1_555 1_555
H5_5 C6_5 1_555 1_555
O17_4 Mo1_4 1_555 1_555
O39_3 Mo1_4 1_555 1_555
C9_6 C4_5 1_555 1_555
H7_6 C9_6 1_555 1_555
N9_7 Zn4_4 1_555 1_555
C5_5 C6_5 1_555 1_555
O17_4 Zn4_4 1_555 1_555
H2_5 C3_5 1_555 1_555
N3_3 C7_7 1_555 1_555
N4_7 C7_7 1_555 1_555
C7_7 H6_7 1_555 1_555
C8_7 N4_7 1_555 1_555
C10_7 C3_5 1_555 1_555
H8_7 C10_7 1_555 1_555
C11_6 N4_7 1_555 1_555
C12_6 N3_3 1_555 1_555
H10_6 C12_6 1_555 1_555
Zn2_3 N3_3 1_555 1_555
O43_3 Zn2_3 1_555 1_555
C8_7 C10_7 1_555 1_555
C11_6 C12_6 1_555 1_555
Mo3_4 O8_5 1_555 1_555
O43_3 Mo3_4 1_555 1_555
O13_3 Mo3_4 1_555 1_555
O24_4 Mo3_4 1_555 1_555
O30_3 Mo3_4 1_555 1_555
O24_4 Zn6_4 1_555 1_555
N9_8 Zn6_4 1_555 1_555
N2_6 C1_6 1_555 1_555
C1_6 N9_7 1_555 1_555
H1_6 C1_6 1_555 1_555
C2_6 N2_6 1_555 1_555
C3_6 C2_6 1_555 1_555
H2_6 C3_6 1_555 1_555
C4_6 C2_6 1_555 1_555
H3_6 C4_6 1_555 1_555
C5_6 N2_6 1_555 1_555
H4_6 C5_6 1_555 1_555
C6_6 N9_7 1_555 1_555
H5_6 C6_6 1_555 1_555
N9_8 C7_8 1_555 1_555
N4_8 C7_8 1_555 1_555
C7_8 H6_8 1_555 1_555
C8_8 N4_8 1_555 1_555
C9_7 C4_6 1_555 1_555
H7_7 C9_7 1_555 1_555
C10_8 C3_6 1_555 1_555
H8_8 C10_8 1_555 1_555
C11_7 N4_8 1_555 1_555
H9_6 C11_7 1_555 1_555
C12_7 N9_8 1_555 1_555
H10_7 C12_7 1_555 1_555
C5_6 C6_6 1_555 1_555
C8_8 C9_7 1_555 1_555
C8_8 C10_8 1_555 1_555
C11_7 C12_7 1_555 1_555
H9_7 C11_8 1_555 1_555
C12_8 N3_4 1_555 1_555
H10_8 C12_8 1_555 1_555
Zn2_4 N3_4 1_555 1_555
O41_3 Zn2_4 1_555 1_555
O42_3 Zn2_4 1_555 1_555
O43_4 Zn2_4 1_555 1_555
C11_8 C12_8 1_555 1_555
Mo1_5 O1_5 1_555 1_555
Mo2_4 O2_4 1_555 1_555
Zn1_4 O5_5 1_555 1_555
P1_6 O4_5 1_555 1_555
O2_4 Mo1_5 1_555 1_555
O3_4 Mo2_4 1_555 1_555
O4_5 Mo1_5 1_555 1_555
O5_5 Mo1_5 1_555 1_555
O6_4 Mo2_4 1_555 1_555
O7_5 Mo2_4 1_555 1_555
N1_4 Zn1_4 1_555 1_555
N2_7 C1_7 1_555 1_555
C1_7 N1_4 1_555 1_555
H1_7 C1_7 1_555 1_555
C2_7 N2_7 1_555 1_555
C4_7 C2_7 1_555 1_555
H3_7 C4_7 1_555 1_555
C5_7 N2_7 1_555 1_555
C6_7 N1_4 1_555 1_555
H5_7 C6_7 1_555 1_555
Mo4_4 O3_4 1_555 1_555
O9_5 P1_6 1_555 1_555
O43_4 Mo3_5 1_555 1_555
O11_4 Mo4_4 1_555 1_555
O12_5 Mo4_4 1_555 1_555
O13_4 Mo3_5 1_555 1_555
O14_4 Mo2_4 1_555 1_555
Mo5_5 O5_5 1_555 1_555
Mo6_4 O16_5 1_555 1_555
O15_5 Mo5_5 1_555 1_555
O16_5 P1_6 1_555 1_555
O17_5 Mo1_5 1_555 1_555
O18_4 Mo6_4 1_555 1_555
O19_5 Mo6_4 1_555 1_555
O20_4 Mo5_5 1_555 1_555
O21_4 Zn1_4 1_555 1_555
Mo7_5 O43_4 1_555 1_555
Mo8_4 O21_4 1_555 1_555
O23_5 P1_6 1_555 1_555
O24_5 Mo3_5 1_555 1_555
O25_4 Mo8_4 1_555 1_555
O26_5 Mo8_4 1_555 1_555
O27_4 Mo7_5 1_555 1_555
O41_3 Mo6_4 1_555 1_555
Mo9_4 O9_5 1_555 1_555
O29_4 Mo9_4 1_555 1_555
O30_4 Mo3_5 1_555 1_555
O42_3 Mo9_4 1_555 1_555
Mo10_4 O16_5 1_555 1_555
O32_4 Mo10_4 1_555 1_555
O33_4 Mo5_5 1_555 1_555
O34_4 Mo9_4 1_555 1_555
Mo11_4 O23_5 1_555 1_555
O35_4 Mo11_4 1_555 1_555
O36_4 Mo7_5 1_555 1_555
O37_4 Mo11_4 1_555 1_555
Mo12_4 O4_5 1_555 1_555
O38_4 Mo12_4 1_555 1_555
O39_4 Mo1_5 1_555 1_555
O40_4 Zn1_4 1_555 1_555
Zn4_5 O3_4 1_555 1_555
Zn6_5 O14_4 1_555 1_555
N9_9 Zn4_5 1_555 1_555
Mo2_4 O4_5 1_555 1_555
O7_5 Mo12_4 1_555 1_555
C5_7 C6_7 1_555 1_555
Mo3_5 O9_5 1_555 1_555
Mo4_4 O9_5 1_555 1_555
Mo4_4 O13_4 1_555 1_555
Mo4_4 O14_4 1_555 1_555
O12_5 Mo9_4 1_555 1_555
Mo5_5 O16_5 1_555 1_555
Mo5_5 O17_5 1_555 1_555
Mo6_4 O20_4 1_555 1_555
Mo6_4 O21_4 1_555 1_555
O17_5 Zn4_5 1_555 1_555
O19_5 Mo10_4 1_555 1_555
Mo7_5 O23_5 1_555 1_555
Mo7_5 O24_5 1_555 1_555
Mo8_4 O23_5 1_555 1_555
Mo8_4 O27_4 1_555 1_555
Mo8_4 O41_3 1_555 1_555
O24_5 Zn6_5 1_555 1_555
O26_5 Mo11_4 1_555 1_555
Mo9_4 O30_4 1_555 1_555
O42_3 Mo10_4 1_555 1_555
Mo10_4 O33_4 1_555 1_555
Mo10_4 O34_4 1_555 1_555
O34_4 Zn4_5 1_555 1_555
Mo11_4 O36_4 1_555 1_555
Mo11_4 O40_4 1_555 1_555
O37_4 Mo12_4 1_555 1_555
O37_4 Zn6_5 1_555 1_555
Mo12_4 O39_4 1_555 1_555
Mo12_4 O40_4 1_555 1_555
N9_10 Zn6_5 1_555 1_555
N2_8 C1_8 1_555 1_555
C1_8 N9_9 1_555 1_555
H1_8 C1_8 1_555 1_555
C2_8 N2_8 1_555 1_555
C3_7 C2_8 1_555 1_555
H2_7 C3_7 1_555 1_555
C4_8 C2_8 1_555 1_555
H3_8 C4_8 1_555 1_555
C5_8 N2_8 1_555 1_555
H4_7 C5_8 1_555 1_555
C6_8 N9_9 1_555 1_555
H5_8 C6_8 1_555 1_555
H14_2 C17_2 1_555 1_555
C18_2 N9_10 1_555 1_555
H15_2 C18_2 1_555 1_555
C5_8 C6_8 1_555 1_555
C17_2 C18_2 1_555 1_555
H2_8 C3_8 1_555 1_555
H7_8 C9_8 1_555 1_555

#END
