
###############################################################################
#
# This file contains modified crystal structure data generated from the
# MOF subset of the Cambridge Structural Database (CSD) v543 
# hosted by the Cambridge Crystallographic Data Centre (CCDC).
#
# This work is licensed under the Creative Commons
# Attribution-NonCommercial-ShareAlike 4.0 International License.
# To view a copy of this license, visit
# http://creativecommons.org/licenses/by-nc-sa/4.0/
# or send a letter to
# Creative Commons, PO Box 1866, Mountain View, CA 94042, USA.
#
# CIF created using the CSD Python API on 29 September 2022
# The structure has been converted into the P1 space group
# The structure has a 3D framework
# The original CSD entry OFECUA is in the monoclinic crystal system
# The framework has been calculated to contain at least 10.0% void space
# The void calculation uses a probe of radius 1.32A, grid spacing 0.4
#
###############################################################################

data_OFECUA
_chemical_formula_moiety         '(C104 H120 Cu8 N16 O32)n'
_symmetry_cell_setting           triclinic
_symmetry_space_group_name_H-M   'P 1'
_symmetry_Int_Tables_number      1
_space_group_name_Hall           'P 1'
loop_
_symmetry_equiv_pos_site_id
_symmetry_equiv_pos_as_xyz
1 x,y,z
_cell_length_a                   27.253(1)
_cell_length_b                   13.608(1)
_cell_length_c                   9.146(2)
_cell_angle_alpha                90
_cell_angle_beta                 92.81(3)
_cell_angle_gamma                90
_cell_volume                     3387.8
loop_
_atom_site_label
_atom_site_type_symbol
_atom_site_fract_x
_atom_site_fract_y
_atom_site_fract_z
Cu1 Cu 0.71242(2) 0.20010(4) 0.04187(6)
C1 C 0.65990(16) 0.0306(3) 0.1891(5)
C3 C 0.79904(19) 0.2129(3) 0.2363(5)
C4 C 0.58510(16) 0.0320(3) 0.3132(4)
C5 C 0.8281(2) 0.1814(4) 0.3742(6)
C6 C 0.57808(16) 0.1272(3) 0.2628(5)
H3 H 0.5504 0.1626 0.2866
C7 C 0.8070(2) 0.0857(3) 0.4362(5)
H4 H 0.8257 0.0691 0.5258
H5 H 0.7734 0.0978 0.4614
C8 C 0.61239(17) 0.1684(3) 0.1779(5)
H6 H 0.6071 0.2321 0.1438
H7 H 0.7891 0.0141 0.2438
C12 C 0.8232(3) 0.2624(4) 0.4872(6)
H10 H 0.8398 0.3204 0.4556
H11 H 0.8378 0.2411 0.5795
H12 H 0.7891 0.2768 0.4977
C13 C 0.8823(2) 0.1678(5) 0.3407(8)
H13 H 0.8848 0.1213 0.2624
H14 H 0.9002 0.1439 0.4264
H15 H 0.8958 0.2297 0.3121
N1 N 0.65332(13) 0.1215(2) 0.1412(4)
N2 N 0.51474(14) 0.0312(3) 0.4574(4)
O3 O 0.75537(12) 0.1837(2) 0.2179(3)
O4 O 0.82032(12) 0.2673(2) 0.1490(3)
H16 H 0.3118 0.0027 0.8353
C15 C 0.37307(17) 0.0170(3) 0.7266(5)
H17 H 0.3673 0.0814 0.6966
C19 C 0.45011(17) 0.0160(3) 0.5959(5)
H20 H 0.4468 0.0828 0.5762
C23 C 0.19256(19) 0.0022(3) 0.6659(5)
H24 H 0.1589 0.0157 0.6898
C24 C 0.21439(18) 0.0937(3) 0.6010(5)
O5 O 0.19062(12) 0.1714(2) 0.6125(3)
O6 O 0.25533(12) 0.0859(2) 0.5435(4)
Cu3 Cu 0.28758(2) 0.20010(4) 0.45813(6)
Cu8 Cu 0.21242(2) 0.29990(4) 0.54187(6)
O9 O 0.69062(12) 0.3286(2) 0.1125(3)
Cu7 Cu 0.78758(2) 0.29990(4) 0.95813(6)
O12 O 0.74467(12) 0.0859(2) 0.9565(4)
O14 O 0.67968(12) 0.2327(2) 0.8510(3)
Cu4 Cu 0.21242(2) 0.70010(4) 0.04187(6)
O11 O 0.25533(12) 0.9141(2) 0.0435(4)
O13 O 0.32032(12) 0.7673(2) 0.1490(3)
H1 H 0.6882 0.9973 0.1647
C2 C 0.62693(17) 0.9830(3) 0.2734(5)
H2 H 0.6327 0.9186 0.3034
C9 C 0.80744(19) 0.9978(3) 0.3341(5)
H8 H 0.8411 0.9843 0.3102
C10 C 0.54989(17) 0.9840(3) 0.4041(5)
H9 H 0.5532 0.9172 0.4238
C11 C 0.78561(18) 0.9063(3) 0.3990(5)
O1 O 0.80938(12) 0.8286(2) 0.3875(3)
O2 O 0.74467(12) 0.9141(2) 0.4565(4)
C14 C 0.34010(16) 0.9694(3) 0.8109(5)
C16 C 0.41490(16) 0.9680(3) 0.6868(4)
C17 C 0.42192(16) 0.8728(3) 0.7372(5)
H18 H 0.4496 0.8374 0.7134
C18 C 0.38761(17) 0.8316(3) 0.8221(5)
H19 H 0.3929 0.7679 0.8562
N3 N 0.34668(13) 0.8785(2) 0.8588(4)
N4 N 0.48526(14) 0.9688(3) 0.5426(4)
Cu2 Cu 0.28758(2) 0.79990(4) 0.95813(6)
C20 C 0.20096(19) 0.7871(3) 0.7637(5)
C21 C 0.1719(2) 0.8186(4) 0.6258(6)
C22 C 0.1930(2) 0.9143(3) 0.5638(5)
H21 H 0.1743 0.9309 0.4742
H22 H 0.2266 0.9022 0.5386
H23 H 0.2109 0.9859 0.7562
C25 C 0.1768(3) 0.7376(4) 0.5128(6)
H25 H 0.1602 0.6796 0.5444
H26 H 0.1622 0.7589 0.4205
H27 H 0.2109 0.7232 0.5023
C26 C 0.1177(2) 0.8322(5) 0.6593(8)
H28 H 0.1152 0.8787 0.7376
H29 H 0.0998 0.8561 0.5736
H30 H 0.1042 0.7703 0.6879
O7 O 0.24463(12) 0.8163(2) 0.7821(3)
O8 O 0.17968(12) 0.7327(2) 0.8510(3)
Cu5 Cu 0.78758(2) 0.70010(4) 0.45813(6)
Cu6 Cu 0.71242(2) 0.79990(4) 0.54187(6)
O10 O 0.30938(12) 0.6714(2) 0.8875(3)
C1_2 C 0.34010(16) 0.0306(3) 0.3109(5)
C3_2 C 0.20096(19) 0.2129(3) 0.2637(5)
C4_2 C 0.41490(16) 0.0320(3) 0.1868(4)
C5_2 C 0.1719(2) 0.1814(4) 0.1258(6)
C6_2 C 0.42192(16) 0.1272(3) 0.2372(5)
H3_2 H 0.4496 0.1626 0.2134
C7_2 C 0.1930(2) 0.0857(3) 0.0638(5)
H5_2 H 0.2266 0.0978 0.0386
C8_2 C 0.38761(17) 0.1684(3) 0.3221(5)
H6_2 H 0.3929 0.2321 0.3562
H7_2 H 0.2109 0.0141 0.2562
C12_2 C 0.1768(3) 0.2624(4) 0.0128(6)
H10_2 H 0.1602 0.3204 0.0444
H12_2 H 0.2109 0.2768 0.0023
C13_2 C 0.1177(2) 0.1678(5) 0.1593(8)
H13_2 H 0.1152 0.1213 0.2376
H14_2 H 0.0998 0.1439 0.0736
H15_2 H 0.1042 0.2297 0.1879
N1_2 N 0.34668(13) 0.1215(2) 0.3588(4)
N2_2 N 0.48526(14) 0.0312(3) 0.0426(4)
O3_2 O 0.24463(12) 0.1837(2) 0.2821(3)
O4_2 O 0.17968(12) 0.2673(2) 0.3510(3)
O9_2 O 0.30938(12) 0.3286(2) 0.3875(3)
O14_2 O 0.32032(12) 0.2327(2) 0.6490(3)
H4_2 H 0.1743 0.0691 0.9742
H11_2 H 0.1622 0.2411 0.9205
H16_2 H 0.6882 0.0027 0.6647
C15_2 C 0.62693(17) 0.0170(3) 0.7734(5)
H17_2 H 0.6327 0.0814 0.8034
C19_2 C 0.54989(17) 0.0160(3) 0.9041(5)
H20_2 H 0.5532 0.0828 0.9238
C23_2 C 0.80744(19) 0.0022(3) 0.8341(5)
H24_2 H 0.8411 0.0157 0.8102
C24_2 C 0.78561(18) 0.0937(3) 0.8990(5)
O5_2 O 0.80938(12) 0.1714(2) 0.8875(3)
H1_2 H 0.3118 0.9973 0.3353
C2_2 C 0.37307(17) 0.9830(3) 0.2266(5)
H2_2 H 0.3673 0.9186 0.1966
C9_2 C 0.19256(19) 0.9978(3) 0.1659(5)
H8_2 H 0.1589 0.9843 0.1898
C10_2 C 0.45011(17) 0.9840(3) 0.0959(5)
H9_2 H 0.4468 0.9172 0.0762
C11_2 C 0.21439(18) 0.9063(3) 0.1010(5)
O1_2 O 0.19062(12) 0.8286(2) 0.1125(3)
H21_2 H 0.8257 0.9309 0.0258
H26_2 H 0.8378 0.7589 0.0795
C14_2 C 0.65990(16) 0.9694(3) 0.6891(5)
C16_2 C 0.58510(16) 0.9680(3) 0.8132(4)
C17_2 C 0.57808(16) 0.8728(3) 0.7628(5)
H18_2 H 0.5504 0.8374 0.7866
C18_2 C 0.61239(17) 0.8316(3) 0.6779(5)
H19_2 H 0.6071 0.7679 0.6438
N3_2 N 0.65332(13) 0.8785(2) 0.6412(4)
N4_2 N 0.51474(14) 0.9688(3) 0.9574(4)
C20_2 C 0.79904(19) 0.7871(3) 0.7363(5)
C21_2 C 0.8281(2) 0.8186(4) 0.8742(6)
C22_2 C 0.8070(2) 0.9143(3) 0.9362(5)
H22_2 H 0.7734 0.9022 0.9614
H23_2 H 0.7891 0.9859 0.7438
C25_2 C 0.8232(3) 0.7376(4) 0.9872(6)
H25_2 H 0.8398 0.6796 0.9556
H27_2 H 0.7891 0.7232 0.9977
C26_2 C 0.8823(2) 0.8322(5) 0.8407(8)
H28_2 H 0.8848 0.8787 0.7624
H29_2 H 0.9002 0.8561 0.9264
H30_2 H 0.8958 0.7703 0.8121
O7_2 O 0.75537(12) 0.8163(2) 0.7179(3)
O8_2 O 0.82032(12) 0.7327(2) 0.6490(3)
O10_2 O 0.69062(12) 0.6714(2) 0.6125(3)
O13_2 O 0.67968(12) 0.7673(2) 0.3510(3)
C1_3 C 0.15990(16) 0.5306(3) 0.1891(5)
H1_3 H 0.1882 0.4973 0.1647
C2_3 C 0.12693(17) 0.4830(3) 0.2734(5)
H2_3 H 0.1327 0.4186 0.3034
C3_3 C 0.29904(19) 0.7129(3) 0.2363(5)
C4_3 C 0.08510(16) 0.5320(3) 0.3132(4)
C5_3 C 0.3281(2) 0.6814(4) 0.3742(6)
C6_3 C 0.07808(16) 0.6272(3) 0.2628(5)
H3_3 H 0.0504 0.6626 0.2866
C7_3 C 0.3070(2) 0.5857(3) 0.4362(5)
H4_3 H 0.3257 0.5691 0.5258
H5_3 H 0.2734 0.5978 0.4614
C8_3 C 0.11239(17) 0.6684(3) 0.1779(5)
H6_3 H 0.1071 0.7321 0.1438
C9_3 C 0.30744(19) 0.4978(3) 0.3341(5)
H7_3 H 0.2891 0.5141 0.2438
H8_3 H 0.3411 0.4843 0.3102
C10_3 C 0.04989(17) 0.4840(3) 0.4041(5)
H9_3 H 0.0532 0.4172 0.4238
C11_3 C 0.28561(18) 0.4063(3) 0.3990(5)
O2_2 O 0.24467(12) 0.4141(2) 0.4565(4)
C12_3 C 0.3232(3) 0.7624(4) 0.4872(6)
H10_3 H 0.3398 0.8204 0.4556
H11_3 H 0.3378 0.7411 0.5795
H12_3 H 0.2891 0.7768 0.4977
C13_3 C 0.3823(2) 0.6678(5) 0.3407(8)
H13_3 H 0.3848 0.6213 0.2624
H14_3 H 0.4002 0.6439 0.4264
H15_3 H 0.3958 0.7297 0.3121
N1_3 N 0.15332(13) 0.6215(2) 0.1412(4)
N2_3 N 0.01474(14) 0.5312(3) 0.4574(4)
O3_3 O 0.25537(12) 0.6837(2) 0.2179(3)
O12_2 O 0.24467(12) 0.5859(2) 0.9565(4)
O11_2 O 0.75533(12) 0.4141(2) 0.0435(4)
C14_3 C 0.84010(16) 0.4694(3) 0.8109(5)
H16_3 H 0.8118 0.5027 0.8353
C15_3 C 0.87307(17) 0.5170(3) 0.7266(5)
H17_3 H 0.8673 0.5814 0.6966
C16_3 C 0.91490(16) 0.4680(3) 0.6868(4)
C17_3 C 0.92192(16) 0.3728(3) 0.7372(5)
H18_3 H 0.9496 0.3374 0.7134
C18_3 C 0.88761(17) 0.3316(3) 0.8221(5)
H19_3 H 0.8929 0.2679 0.8562
C19_3 C 0.95011(17) 0.5160(3) 0.5959(5)
H20_3 H 0.9468 0.5828 0.5762
N3_3 N 0.84668(13) 0.3785(2) 0.8588(4)
N4_3 N 0.98526(14) 0.4688(3) 0.5426(4)
C20_3 C 0.70096(19) 0.2871(3) 0.7637(5)
C21_3 C 0.6719(2) 0.3186(4) 0.6258(6)
C22_3 C 0.6930(2) 0.4143(3) 0.5638(5)
H21_3 H 0.6743 0.4309 0.4742
H22_3 H 0.7266 0.4022 0.5386
C23_3 C 0.69256(19) 0.5022(3) 0.6659(5)
H23_3 H 0.7109 0.4859 0.7562
H24_3 H 0.6589 0.5157 0.6898
C24_3 C 0.71439(18) 0.5937(3) 0.6010(5)
O6_2 O 0.75533(12) 0.5859(2) 0.5435(4)
C25_3 C 0.6768(3) 0.2376(4) 0.5128(6)
H25_3 H 0.6602 0.1796 0.5444
H26_3 H 0.6622 0.2589 0.4205
H27_3 H 0.7109 0.2232 0.5023
C26_3 C 0.6177(2) 0.3322(5) 0.6593(8)
H28_3 H 0.6152 0.3787 0.7376
H29_3 H 0.5998 0.3561 0.5736
H30_3 H 0.6042 0.2703 0.6879
O7_3 O 0.74463(12) 0.3163(2) 0.7821(3)
H21_4 H 0.3257 0.4309 0.0258
H26_4 H 0.3378 0.2589 0.0795
C14_4 C 0.15990(16) 0.4694(3) 0.6891(5)
H16_4 H 0.1882 0.5027 0.6647
C15_4 C 0.12693(17) 0.5170(3) 0.7734(5)
H17_4 H 0.1327 0.5814 0.8034
C16_4 C 0.08510(16) 0.4680(3) 0.8132(4)
C17_4 C 0.07808(16) 0.3728(3) 0.7628(5)
H18_4 H 0.0504 0.3374 0.7866
C18_4 C 0.11239(17) 0.3316(3) 0.6779(5)
H19_4 H 0.1071 0.2679 0.6438
C19_4 C 0.04989(17) 0.5160(3) 0.9041(5)
H20_4 H 0.0532 0.5828 0.9238
N3_4 N 0.15332(13) 0.3785(2) 0.6412(4)
N4_4 N 0.01474(14) 0.4688(3) 0.9574(4)
C20_4 C 0.29904(19) 0.2871(3) 0.7363(5)
C21_4 C 0.3281(2) 0.3186(4) 0.8742(6)
C22_4 C 0.3070(2) 0.4143(3) 0.9362(5)
H22_4 H 0.2734 0.4022 0.9614
C23_4 C 0.30744(19) 0.5022(3) 0.8341(5)
H23_4 H 0.2891 0.4859 0.7438
H24_4 H 0.3411 0.5157 0.8102
C24_4 C 0.28561(18) 0.5937(3) 0.8990(5)
C25_4 C 0.3232(3) 0.2376(4) 0.9872(6)
H25_4 H 0.3398 0.1796 0.9556
H27_4 H 0.2891 0.2232 0.9977
C26_4 C 0.3823(2) 0.3322(5) 0.8407(8)
H28_4 H 0.3848 0.3787 0.7624
H29_4 H 0.4002 0.3561 0.9264
H30_4 H 0.3958 0.2703 0.8121
O7_4 O 0.25537(12) 0.3163(2) 0.7179(3)
C1_4 C 0.84010(16) 0.5306(3) 0.3109(5)
H1_4 H 0.8118 0.4973 0.3353
C2_4 C 0.87307(17) 0.4830(3) 0.2266(5)
H2_4 H 0.8673 0.4186 0.1966
C3_4 C 0.70096(19) 0.7129(3) 0.2637(5)
C4_4 C 0.91490(16) 0.5320(3) 0.1868(4)
C5_4 C 0.6719(2) 0.6814(4) 0.1258(6)
C6_4 C 0.92192(16) 0.6272(3) 0.2372(5)
H3_4 H 0.9496 0.6626 0.2134
C7_4 C 0.6930(2) 0.5857(3) 0.0638(5)
H5_4 H 0.7266 0.5978 0.0386
C8_4 C 0.88761(17) 0.6684(3) 0.3221(5)
H6_4 H 0.8929 0.7321 0.3562
C9_4 C 0.69256(19) 0.4978(3) 0.1659(5)
H7_4 H 0.7109 0.5141 0.2562
H8_4 H 0.6589 0.4843 0.1898
C10_4 C 0.95011(17) 0.4840(3) 0.0959(5)
H9_4 H 0.9468 0.4172 0.0762
C11_4 C 0.71439(18) 0.4063(3) 0.1010(5)
C12_4 C 0.6768(3) 0.7624(4) 0.0128(6)
H10_4 H 0.6602 0.8204 0.0444
H12_4 H 0.7109 0.7768 0.0023
C13_4 C 0.6177(2) 0.6678(5) 0.1593(8)
H13_4 H 0.6152 0.6213 0.2376
H14_4 H 0.5998 0.6439 0.0736
H15_4 H 0.6042 0.7297 0.1879
N1_4 N 0.84668(13) 0.6215(2) 0.3588(4)
N2_4 N 0.98526(14) 0.5312(3) 0.0426(4)
O3_4 O 0.74463(12) 0.6837(2) 0.2821(3)
H4_4 H 0.6743 0.5691 0.9742
H11_4 H 0.6622 0.7411 0.9205
loop_
_geom_bond_atom_site_label_1
_geom_bond_atom_site_label_2
_geom_bond_site_symmetry_1
_geom_bond_site_symmetry_2
Cu1 N1 1_555 1_555
C3 C5 1_555 1_555
C5 C7 1_555 1_555
C6 C4 1_555 1_555
H3 C6 1_555 1_555
C7 H4 1_555 1_555
H5 C7 1_555 1_555
C8 C6 1_555 1_555
H6 C8 1_555 1_555
C12 C5 1_555 1_555
H10 C12 1_555 1_555
H11 C12 1_555 1_555
H12 C12 1_555 1_555
C13 C5 1_555 1_555
H13 C13 1_555 1_555
H14 C13 1_555 1_555
H15 C13 1_555 1_555
N1 C1 1_555 1_555
O3 Cu1 1_555 1_555
O4 C3 1_555 1_555
H17 C15 1_555 1_555
H20 C19 1_555 1_555
H24 C23 1_555 1_555
C24 C23 1_555 1_555
O5 C24 1_555 1_555
O6 C24 1_555 1_555
Cu3 O6 1_555 1_555
Cu8 O5 1_555 1_555
O9 Cu1 1_555 1_555
C3 O3 1_555 1_555
C8 N1 1_555 1_555
Cu3 Cu8 1_555 1_555
H2 C2 1_555 1_555
H8 C9 1_555 1_555
H9 C10 1_555 1_555
C11 C9 1_555 1_555
O1 C11 1_555 1_555
O2 C11 1_555 1_555
C17 C16 1_555 1_555
H18 C17 1_555 1_555
C18 C17 1_555 1_555
H19 C18 1_555 1_555
N3 C14 1_555 1_555
Cu2 N3 1_555 1_555
C20 C21 1_555 1_555
C21 C22 1_555 1_555
C22 H21 1_555 1_555
H22 C22 1_555 1_555
C25 C21 1_555 1_555
H25 C25 1_555 1_555
H26 C25 1_555 1_555
H27 C25 1_555 1_555
C26 C21 1_555 1_555
H28 C26 1_555 1_555
H29 C26 1_555 1_555
H30 C26 1_555 1_555
O7 Cu2 1_555 1_555
O8 C20 1_555 1_555
Cu5 O1 1_555 1_555
Cu6 O2 1_555 1_555
O10 Cu2 1_555 1_555
C18 N3 1_555 1_555
C20 O7 1_555 1_555
Cu5 Cu6 1_555 1_555
Cu3 N1_2 1_555 1_555
C3_2 C5_2 1_555 1_555
C5_2 C7_2 1_555 1_555
C6_2 C4_2 1_555 1_555
H3_2 C6_2 1_555 1_555
H5_2 C7_2 1_555 1_555
C8_2 C6_2 1_555 1_555
H6_2 C8_2 1_555 1_555
C12_2 C5_2 1_555 1_555
H10_2 C12_2 1_555 1_555
H12_2 C12_2 1_555 1_555
C13_2 C5_2 1_555 1_555
H13_2 C13_2 1_555 1_555
H14_2 C13_2 1_555 1_555
H15_2 C13_2 1_555 1_555
N1_2 C1_2 1_555 1_555
O3_2 Cu3 1_555 1_555
O4_2 C3_2 1_555 1_555
O9_2 Cu3 1_555 1_555
O14_2 Cu3 1_555 1_555
C3_2 O3_2 1_555 1_555
C8_2 N1_2 1_555 1_555
O4_2 Cu8 1_555 1_555
H17_2 C15_2 1_555 1_555
H20_2 C19_2 1_555 1_555
H24_2 C23_2 1_555 1_555
C24_2 C23_2 1_555 1_555
O5_2 C24_2 1_555 1_555
O12 C24_2 1_555 1_555
Cu7 O5_2 1_555 1_555
H2_2 C2_2 1_555 1_555
H8_2 C9_2 1_555 1_555
H9_2 C10_2 1_555 1_555
C11_2 C9_2 1_555 1_555
O1_2 C11_2 1_555 1_555
O11 C11_2 1_555 1_555
Cu4 O1_2 1_555 1_555
C17_2 C16_2 1_555 1_555
H18_2 C17_2 1_555 1_555
C18_2 C17_2 1_555 1_555
H19_2 C18_2 1_555 1_555
N3_2 C14_2 1_555 1_555
Cu6 N3_2 1_555 1_555
C20_2 C21_2 1_555 1_555
C21_2 C22_2 1_555 1_555
H22_2 C22_2 1_555 1_555
C25_2 C21_2 1_555 1_555
H25_2 C25_2 1_555 1_555
H27_2 C25_2 1_555 1_555
C26_2 C21_2 1_555 1_555
H28_2 C26_2 1_555 1_555
H29_2 C26_2 1_555 1_555
H30_2 C26_2 1_555 1_555
O7_2 Cu6 1_555 1_555
O8_2 C20_2 1_555 1_555
O10_2 Cu6 1_555 1_555
O13_2 Cu6 1_555 1_555
C18_2 N3_2 1_555 1_555
C20_2 O7_2 1_555 1_555
O8_2 Cu5 1_555 1_555
Cu4 N1_3 1_555 1_555
C1_3 H1_3 1_555 1_555
C2_3 C1_3 1_555 1_555
H2_3 C2_3 1_555 1_555
C3_3 C5_3 1_555 1_555
C4_3 C2_3 1_555 1_555
C5_3 C7_3 1_555 1_555
C6_3 C4_3 1_555 1_555
H3_3 C6_3 1_555 1_555
C7_3 H4_3 1_555 1_555
H5_3 C7_3 1_555 1_555
C8_3 C6_3 1_555 1_555
H6_3 C8_3 1_555 1_555
C9_3 C7_3 1_555 1_555
H7_3 C9_3 1_555 1_555
H8_3 C9_3 1_555 1_555
C10_3 C4_3 1_555 1_555
H9_3 C10_3 1_555 1_555
C11_3 C9_3 1_555 1_555
O9_2 C11_3 1_555 1_555
O2_2 C11_3 1_555 1_555
C12_3 C5_3 1_555 1_555
H10_3 C12_3 1_555 1_555
H11_3 C12_3 1_555 1_555
H12_3 C12_3 1_555 1_555
C13_3 C5_3 1_555 1_555
H13_3 C13_3 1_555 1_555
H14_3 C13_3 1_555 1_555
H15_3 C13_3 1_555 1_555
N1_3 C1_3 1_555 1_555
N2_3 C10_3 1_555 1_555
O3_3 Cu4 1_555 1_555
O13 C3_3 1_555 1_555
Cu8 O2_2 1_555 1_555
C3_3 O3_3 1_555 1_555
C8_3 N1_3 1_555 1_555
C14_3 H16_3 1_555 1_555
C15_3 C14_3 1_555 1_555
H17_3 C15_3 1_555 1_555
C16_3 C15_3 1_555 1_555
C17_3 C16_3 1_555 1_555
H18_3 C17_3 1_555 1_555
C18_3 C17_3 1_555 1_555
H19_3 C18_3 1_555 1_555
C19_3 C16_3 1_555 1_555
H20_3 C19_3 1_555 1_555
N3_3 C14_3 1_555 1_555
Cu7 N3_3 1_555 1_555
C20_3 C21_3 1_555 1_555
C21_3 C22_3 1_555 1_555
C22_3 H21_3 1_555 1_555
H22_3 C22_3 1_555 1_555
C23_3 C22_3 1_555 1_555
H23_3 C23_3 1_555 1_555
H24_3 C23_3 1_555 1_555
C24_3 C23_3 1_555 1_555
O10_2 C24_3 1_555 1_555
O6_2 C24_3 1_555 1_555
C25_3 C21_3 1_555 1_555
H25_3 C25_3 1_555 1_555
H26_3 C25_3 1_555 1_555
H27_3 C25_3 1_555 1_555
C26_3 C21_3 1_555 1_555
H28_3 C26_3 1_555 1_555
H29_3 C26_3 1_555 1_555
H30_3 C26_3 1_555 1_555
O7_3 Cu7 1_555 1_555
O14 C20_3 1_555 1_555
Cu5 O6_2 1_555 1_555
C18_3 N3_3 1_555 1_555
C19_3 N4_3 1_555 1_555
C20_3 O7_3 1_555 1_555
C14_4 H16_4 1_555 1_555
C15_4 C14_4 1_555 1_555
H17_4 C15_4 1_555 1_555
C16_4 C15_4 1_555 1_555
C17_4 C16_4 1_555 1_555
H18_4 C17_4 1_555 1_555
C18_4 C17_4 1_555 1_555
H19_4 C18_4 1_555 1_555
C19_4 C16_4 1_555 1_555
H20_4 C19_4 1_555 1_555
N3_4 C14_4 1_555 1_555
Cu8 N3_4 1_555 1_555
C20_4 C21_4 1_555 1_555
C21_4 C22_4 1_555 1_555
H22_4 C22_4 1_555 1_555
C23_4 C22_4 1_555 1_555
H23_4 C23_4 1_555 1_555
H24_4 C23_4 1_555 1_555
C24_4 C23_4 1_555 1_555
O10 C24_4 1_555 1_555
O12_2 C24_4 1_555 1_555
C25_4 C21_4 1_555 1_555
H25_4 C25_4 1_555 1_555
H27_4 C25_4 1_555 1_555
C26_4 C21_4 1_555 1_555
H28_4 C26_4 1_555 1_555
H29_4 C26_4 1_555 1_555
H30_4 C26_4 1_555 1_555
O7_4 Cu8 1_555 1_555
O14_2 C20_4 1_555 1_555
C18_4 N3_4 1_555 1_555
C19_4 N4_4 1_555 1_555
C20_4 O7_4 1_555 1_555
Cu5 N1_4 1_555 1_555
C1_4 H1_4 1_555 1_555
C2_4 C1_4 1_555 1_555
H2_4 C2_4 1_555 1_555
C3_4 C5_4 1_555 1_555
C4_4 C2_4 1_555 1_555
C5_4 C7_4 1_555 1_555
C6_4 C4_4 1_555 1_555
H3_4 C6_4 1_555 1_555
H5_4 C7_4 1_555 1_555
C8_4 C6_4 1_555 1_555
H6_4 C8_4 1_555 1_555
C9_4 C7_4 1_555 1_555
H7_4 C9_4 1_555 1_555
H8_4 C9_4 1_555 1_555
C10_4 C4_4 1_555 1_555
H9_4 C10_4 1_555 1_555
C11_4 C9_4 1_555 1_555
O9 C11_4 1_555 1_555
O11_2 C11_4 1_555 1_555
C12_4 C5_4 1_555 1_555
H10_4 C12_4 1_555 1_555
H12_4 C12_4 1_555 1_555
C13_4 C5_4 1_555 1_555
H13_4 C13_4 1_555 1_555
H14_4 C13_4 1_555 1_555
H15_4 C13_4 1_555 1_555
N1_4 C1_4 1_555 1_555
N2_4 C10_4 1_555 1_555
O3_4 Cu5 1_555 1_555
O13_2 C3_4 1_555 1_555
C3_4 O3_4 1_555 1_555
C8_4 N1_4 1_555 1_555

#END
