
###############################################################################
#
# This file contains modified crystal structure data generated from the
# MOF subset of the Cambridge Structural Database (CSD) v543 
# hosted by the Cambridge Crystallographic Data Centre (CCDC).
#
# This work is licensed under the Creative Commons
# Attribution-NonCommercial-ShareAlike 4.0 International License.
# To view a copy of this license, visit
# http://creativecommons.org/licenses/by-nc-sa/4.0/
# or send a letter to
# Creative Commons, PO Box 1866, Mountain View, CA 94042, USA.
#
# CIF created using the CSD Python API on 29 September 2022
# The structure has been converted into the P1 space group
# The structure has a 3D framework
# The original CSD entry OFEDAH is in the monoclinic crystal system
# The framework has been calculated to contain at least 10.0% void space
# The void calculation uses a probe of radius 1.32A, grid spacing 0.4
#
###############################################################################

data_OFEDAH
_chemical_formula_moiety         '(C88 H80 Cu8 N16 O38)n'
_symmetry_cell_setting           triclinic
_symmetry_space_group_name_H-M   'P 1'
_symmetry_Int_Tables_number      1
_space_group_name_Hall           'P 1'
loop_
_symmetry_equiv_pos_site_id
_symmetry_equiv_pos_as_xyz
1 x,y,z
_cell_length_a                   26.9173(1)
_cell_length_b                   12.987(1)
_cell_length_c                   8.574(1)
_cell_angle_alpha                90
_cell_angle_beta                 104.82(1)
_cell_angle_gamma                90
_cell_volume                     2897.55
loop_
_atom_site_label
_atom_site_type_symbol
_atom_site_fract_x
_atom_site_fract_y
_atom_site_fract_z
H18 H 0.1808 0.6067 0.0348
Cu8 Cu 0.29112(2) 0.29744(2) 0.08488(3)
O11 O 0.24531(8) 0.07517(13) 0.0025(2)
O12 O 0.18020(7) 0.21489(15) 0.1045(2)
O1 O -0.0000 0.06746(19) 0.2500
C12 C 0.11131(10) 0.1888(2) 0.6397(3)
H11 H 0.1126 0.2595 0.6580
C13 C 0.07374(10) 0.1518(2) 0.5122(3)
H12 H 0.0502 0.1961 0.4465
C14 C 0.07182(9) 0.0464(2) 0.4842(3)
C16 C 0.14447(10) 0.0285(2) 0.7085(3)
C17 C 0.03187(9) 0.00201(19) 0.3524(3)
N3 N 0.14600(8) 0.13007(16) 0.7390(2)
Cu2 Cu 0.20888(2) 0.20256(2) 0.91512(3)
C18 C 0.21031(11) 0.42373(19) 0.9029(3)
C19 C 0.18630(12) 0.5239(2) 0.8353(3)
H15 H 0.1493 0.5146 0.8018
H16 H 0.1977 0.5399 0.7396
C20 C 0.19797(11) 0.6159(2) 0.9490(3)
H17 H 0.2347 0.6189 0.9979
C21 C 0.18053(12) 0.7173(2) 0.8626(3)
H19 H 0.1436 0.7154 0.8183
H20 H 0.1883 0.7731 0.9402
C22 C 0.20587(10) 0.73861(19) 0.7286(3)
O6 O 0.18427(7) 0.34393(14) 0.8563(2)
O7 O 0.25469(8) 0.42483(13) 0.9975(2)
O8 O 0.18020(7) 0.78511(15) 0.6045(2)
O9 O 0.25105(7) 0.70765(14) 0.7485(2)
Cu3 Cu 0.29112(2) 0.70256(2) 0.58488(3)
Cu5 Cu 0.20888(2) 0.79744(2) 0.41512(3)
O14 O 0.24895(7) 0.20765(14) 0.7515(2)
H2 H 0.9498 0.1961 0.0535
C5 C 0.92818(9) 0.0464(2) 0.0158(3)
C11 C 0.96813(9) 0.00201(19) 0.1476(3)
O1_2 O 1.0000 0.06746(19) 0.2500
Cu6 Cu 0.79112(2) 0.79744(2) 0.08488(3)
Cu1 Cu 0.79112(2) 0.20256(2) 0.58488(3)
C1 C 0.88869(10) 0.1888(2) 0.8603(3)
H1 H 0.8874 0.2595 0.8420
C2 C 0.78969(11) 0.42373(19) 0.5971(3)
C3 C 0.92626(10) 0.1518(2) 0.9878(3)
C4 C 0.81370(12) 0.5239(2) 0.6647(3)
H3 H 0.8507 0.5146 0.6982
H4 H 0.8023 0.5399 0.7604
C6 C 0.80203(11) 0.6159(2) 0.5510(3)
H5 H 0.7653 0.6189 0.5021
H6 H 0.8192 0.6067 0.4652
C8 C 0.81947(12) 0.7173(2) 0.6374(3)
H8 H 0.8564 0.7154 0.6817
H9 H 0.8117 0.7731 0.5598
C9 C 0.85553(10) 0.0285(2) 0.7915(3)
C10 C 0.79413(10) 0.73861(19) 0.7714(3)
N1 N 0.85400(8) 0.13007(16) 0.7610(2)
O2 O 0.81573(7) 0.34393(14) 0.6437(2)
O3 O 0.74531(8) 0.42483(13) 0.5025(2)
O4 O 0.81980(7) 0.78511(15) 0.8955(2)
O5 O 0.74895(7) 0.70765(14) 0.7515(2)
Cu4 Cu 0.70888(2) 0.70256(2) 0.91512(3)
Cu7 Cu 0.70888(2) 0.29744(2) 0.41512(3)
O10 O 0.75469(8) 0.07517(13) 0.4975(2)
O13 O 0.81980(7) 0.21489(15) 0.3955(2)
O15 O 0.75105(7) 0.20765(14) 0.7485(2)
C19_2 C 0.68630(12) 0.0239(2) 0.8353(3)
H15_2 H 0.6493 0.0146 0.8018
H16_2 H 0.6977 0.0399 0.7396
C20_2 C 0.69797(11) 0.1159(2) 0.9490(3)
H17_2 H 0.7347 0.1189 0.9979
C21_2 C 0.68053(12) 0.2173(2) 0.8626(3)
H19_2 H 0.6436 0.2154 0.8183
H20_2 H 0.6883 0.2731 0.9402
C22_2 C 0.70587(10) 0.23861(19) 0.7286(3)
O8_2 O 0.68020(7) 0.28511(15) 0.6045(2)
C4_2 C 0.31370(12) 0.0239(2) 0.6647(3)
H3_2 H 0.3507 0.0146 0.6982
H4_2 H 0.3023 0.0399 0.7604
C6_2 C 0.30203(11) 0.1159(2) 0.5510(3)
H5_2 H 0.2653 0.1189 0.5021
H6_2 H 0.3192 0.1067 0.4652
C8_2 C 0.31947(12) 0.2173(2) 0.6374(3)
H8_2 H 0.3564 0.2154 0.6817
H9_2 H 0.3117 0.2731 0.5598
C10_2 C 0.29413(10) 0.23861(19) 0.7714(3)
O4_2 O 0.31980(7) 0.28511(15) 0.8955(2)
O11_2 O 0.74531(8) 0.57517(13) 0.0025(2)
O12_2 O 0.68020(7) 0.71489(15) 0.1045(2)
H2_2 H 0.4498 0.6961 0.0535
C5_2 C 0.42818(9) 0.5464(2) 0.0158(3)
C11_2 C 0.46813(9) 0.50201(19) 0.1476(3)
N2 N 0.47887(8) 0.40660(17) 0.1815(2)
O1_3 O 0.5000 0.56746(19) 0.2500
C12_2 C 0.61131(10) 0.6888(2) 0.6397(3)
H11_2 H 0.6126 0.7595 0.6580
C13_2 C 0.57374(10) 0.6518(2) 0.5122(3)
H12_2 H 0.5502 0.6961 0.4465
C14_2 C 0.57182(9) 0.5464(2) 0.4842(3)
C15 C 0.60807(10) 0.4833(2) 0.5843(3)
H13 H 0.6078 0.4125 0.5681
C16_2 C 0.64447(10) 0.5285(2) 0.7085(3)
H14 H 0.6692 0.4866 0.7744
C17_2 C 0.53187(9) 0.50201(19) 0.3524(3)
N3_2 N 0.64600(8) 0.63007(16) 0.7390(2)
N4 N 0.52113(8) 0.40660(17) 0.3185(2)
C18_2 C 0.71031(11) 0.92373(19) 0.9029(3)
O6_2 O 0.68427(7) 0.84393(14) 0.8563(2)
O7_2 O 0.75469(8) 0.92483(13) 0.9975(2)
C1_2 C 0.38869(10) 0.6888(2) 0.8603(3)
H1_2 H 0.3874 0.7595 0.8420
C2_2 C 0.28969(11) 0.92373(19) 0.5971(3)
C3_2 C 0.42626(10) 0.6518(2) 0.9878(3)
C7 C 0.39193(10) 0.4833(2) 0.9157(3)
H7 H 0.3922 0.4125 0.9319
C9_2 C 0.35553(10) 0.5285(2) 0.7915(3)
H10 H 0.3308 0.4866 0.7256
N1_2 N 0.35400(8) 0.63007(16) 0.7610(2)
O2_2 O 0.31573(7) 0.84393(14) 0.6437(2)
O3_2 O 0.24531(8) 0.92483(13) 0.5025(2)
O10_2 O 0.25469(8) 0.57517(13) 0.4975(2)
O13_2 O 0.31980(7) 0.71489(15) 0.3955(2)
C1_3 C 0.11131(10) 0.8112(2) 0.1397(3)
H1_3 H 0.1126 0.7405 0.1580
C2_3 C 0.21031(11) 0.57627(19) 0.4029(3)
C3_3 C 0.07374(10) 0.8482(2) 0.0122(3)
C4_3 C 0.18630(12) 0.4761(2) 0.3353(3)
H3_3 H 0.1493 0.4854 0.3018
H4_3 H 0.1977 0.4601 0.2396
C6_3 C 0.19797(11) 0.3841(2) 0.4490(3)
H5_3 H 0.2347 0.3811 0.4979
H6_3 H 0.1808 0.3933 0.5348
C8_3 C 0.18053(12) 0.2827(2) 0.3626(3)
H8_3 H 0.1436 0.2846 0.3183
H9_3 H 0.1883 0.2269 0.4402
C9_3 C 0.14447(10) 0.9715(2) 0.2085(3)
C10_3 C 0.20587(10) 0.26139(19) 0.2286(3)
N1_3 N 0.14600(8) 0.86993(16) 0.2390(2)
O2_3 O 0.18427(7) 0.65607(14) 0.3563(2)
O5_2 O 0.25105(7) 0.29235(14) 0.2485(2)
O15_2 O 0.24895(7) 0.79235(14) 0.2515(2)
H2_3 H 0.0502 0.8039 0.9465
C5_3 C 0.07182(9) 0.9536(2) 0.9842(3)
C11_3 C 0.03187(9) 0.99799(19) 0.8524(3)
O1_4 O 0.0000 0.93254(19) 0.7500
O1_5 O 1.0000 0.93254(19) 0.7500
C12_3 C 0.88869(10) 0.8112(2) 0.3603(3)
H11_3 H 0.8874 0.7405 0.3420
C13_3 C 0.92626(10) 0.8482(2) 0.4878(3)
H12_3 H 0.9498 0.8039 0.5535
C14_3 C 0.92818(9) 0.9536(2) 0.5158(3)
C16_3 C 0.85553(10) 0.9715(2) 0.2915(3)
C17_3 C 0.96813(9) 0.99799(19) 0.6476(3)
N3_3 N 0.85400(8) 0.86993(16) 0.2610(2)
C18_3 C 0.78969(11) 0.57627(19) 0.0971(3)
C19_3 C 0.81370(12) 0.4761(2) 0.1647(3)
H15_3 H 0.8507 0.4854 0.1982
H16_3 H 0.8023 0.4601 0.2604
C20_3 C 0.80203(11) 0.3841(2) 0.0510(3)
H17_3 H 0.7653 0.3811 0.0021
C21_3 C 0.81947(12) 0.2827(2) 0.1374(3)
H19_3 H 0.8564 0.2846 0.1817
H20_3 H 0.8117 0.2269 0.0598
C22_3 C 0.79413(10) 0.26139(19) 0.2714(3)
O6_3 O 0.81573(7) 0.65607(14) 0.1437(2)
O9_2 O 0.74895(7) 0.29235(14) 0.2515(2)
O14_2 O 0.75105(7) 0.79235(14) 0.2485(2)
H18_2 H 0.8192 0.3933 0.9652
C1_4 C 0.61131(10) 0.3112(2) 0.1397(3)
H1_4 H 0.6126 0.2405 0.1580
C2_4 C 0.71031(11) 0.07627(19) 0.4029(3)
C3_4 C 0.57374(10) 0.3482(2) 0.0122(3)
C7_2 C 0.60807(10) 0.5167(2) 0.0843(3)
H7_2 H 0.6078 0.5875 0.0681
C9_4 C 0.64447(10) 0.4715(2) 0.2085(3)
H10_2 H 0.6692 0.5134 0.2744
N1_4 N 0.64600(8) 0.36993(16) 0.2390(2)
O2_4 O 0.68427(7) 0.15607(14) 0.3563(2)
H2_4 H 0.5502 0.3039 0.9465
C5_4 C 0.57182(9) 0.4536(2) 0.9842(3)
C11_4 C 0.53187(9) 0.49799(19) 0.8524(3)
N2_2 N 0.52113(8) 0.59340(17) 0.8185(2)
O1_6 O 0.5000 0.43254(19) 0.7500
C12_4 C 0.38869(10) 0.3112(2) 0.3603(3)
H11_4 H 0.3874 0.2405 0.3420
C13_4 C 0.42626(10) 0.3482(2) 0.4878(3)
H12_4 H 0.4498 0.3039 0.5535
C14_4 C 0.42818(9) 0.4536(2) 0.5158(3)
C15_2 C 0.39193(10) 0.5167(2) 0.4157(3)
H13_2 H 0.3922 0.5875 0.4319
C16_4 C 0.35553(10) 0.4715(2) 0.2915(3)
H14_2 H 0.3308 0.5134 0.2256
C17_4 C 0.46813(9) 0.49799(19) 0.6476(3)
N3_4 N 0.35400(8) 0.36993(16) 0.2610(2)
N4_2 N 0.47887(8) 0.59340(17) 0.6815(2)
C18_4 C 0.28969(11) 0.07627(19) 0.0971(3)
O6_4 O 0.31573(7) 0.15607(14) 0.1437(2)
C4_4 C 0.68630(12) 0.9761(2) 0.3353(3)
H3_4 H 0.6493 0.9854 0.3018
H4_4 H 0.6977 0.9601 0.2396
C6_4 C 0.69797(11) 0.8841(2) 0.4490(3)
H5_4 H 0.7347 0.8811 0.4979
H6_4 H 0.6808 0.8933 0.5348
C8_4 C 0.68053(12) 0.7827(2) 0.3626(3)
H8_4 H 0.6436 0.7846 0.3183
H9_4 H 0.6883 0.7269 0.4402
C10_4 C 0.70587(10) 0.76139(19) 0.2286(3)
C19_4 C 0.31370(12) 0.9761(2) 0.1647(3)
H15_4 H 0.3507 0.9854 0.1982
H16_4 H 0.3023 0.9601 0.2604
C20_4 C 0.30203(11) 0.8841(2) 0.0510(3)
H17_4 H 0.2653 0.8811 0.0021
C21_4 C 0.31947(12) 0.7827(2) 0.1374(3)
H19_4 H 0.3564 0.7846 0.1817
H20_4 H 0.3117 0.7269 0.0598
C22_4 C 0.29413(10) 0.76139(19) 0.2714(3)
C15_3 C 0.10807(10) 0.9833(2) 0.5843(3)
H13_3 H 0.1078 0.9125 0.5681
H14_3 H 0.1692 0.9866 0.7744
N4_3 N 0.02113(8) 0.90660(17) 0.3185(2)
N2_3 N 0.97887(8) 0.90660(17) 0.1815(2)
C7_3 C 0.89193(10) 0.9833(2) 0.9157(3)
H7_3 H 0.8922 0.9125 0.9319
H10_3 H 0.8308 0.9866 0.7256
H18_3 H 0.6808 0.1067 0.0348
C7_4 C 0.10807(10) 0.0167(2) 0.0843(3)
H7_4 H 0.1078 0.0875 0.0681
H10_4 H 0.1692 0.0134 0.2744
N2_4 N 0.02113(8) 0.09340(17) 0.8185(2)
C15_4 C 0.89193(10) 0.0167(2) 0.4157(3)
H13_4 H 0.8922 0.0875 0.4319
H14_4 H 0.8308 0.0134 0.2256
N4_4 N 0.97887(8) 0.09340(17) 0.6815(2)
H18_4 H 0.3192 0.8933 0.9652
loop_
_geom_bond_atom_site_label_1
_geom_bond_atom_site_label_2
_geom_bond_site_symmetry_1
_geom_bond_site_symmetry_2
C12 H11 1_555 1_555
C13 C12 1_555 1_555
H12 C13 1_555 1_555
C14 C13 1_555 1_555
C17 O1 1_555 1_555
N3 C12 1_555 1_555
Cu2 N3 1_555 1_555
C18 C19 1_555 1_555
C19 H15 1_555 1_555
H16 C19 1_555 1_555
C20 C19 1_555 1_555
H17 C20 1_555 1_555
C21 C20 1_555 1_555
H19 C21 1_555 1_555
H20 C21 1_555 1_555
C22 C21 1_555 1_555
O6 Cu2 1_555 1_555
O7 C18 1_555 1_555
O8 C22 1_555 1_555
O9 C22 1_555 1_555
Cu3 O9 1_555 1_555
Cu5 O8 1_555 1_555
O14 Cu2 1_555 1_555
C14 C17 1_555 1_555
C16 N3 1_555 1_555
C18 O6 1_555 1_555
Cu3 Cu5 1_555 1_555
C11 C5 1_555 1_555
O1_2 C11 1_555 1_555
Cu1 N1 1_555 1_555
C1 H1 1_555 1_555
C2 C4 1_555 1_555
C3 C1 1_555 1_555
C4 H3 1_555 1_555
H4 C4 1_555 1_555
C6 C4 1_555 1_555
H5 C6 1_555 1_555
H6 C6 1_555 1_555
C8 C6 1_555 1_555
H8 C8 1_555 1_555
H9 C8 1_555 1_555
C10 C8 1_555 1_555
N1 C1 1_555 1_555
O2 Cu1 1_555 1_555
O3 C2 1_555 1_555
O4 C10 1_555 1_555
O5 C10 1_555 1_555
Cu4 O5 1_555 1_555
Cu7 Cu1 1_555 1_555
O10 Cu1 1_555 1_555
O13 Cu1 1_555 1_555
O15 Cu1 1_555 1_555
C2 O2 1_555 1_555
C9 N1 1_555 1_555
O3 Cu7 1_555 1_555
C19_2 H15_2 1_555 1_555
H16_2 C19_2 1_555 1_555
C20_2 C19_2 1_555 1_555
H17_2 C20_2 1_555 1_555
C21_2 C20_2 1_555 1_555
H19_2 C21_2 1_555 1_555
H20_2 C21_2 1_555 1_555
C22_2 C21_2 1_555 1_555
O8_2 C22_2 1_555 1_555
O15 C22_2 1_555 1_555
Cu7 O8_2 1_555 1_555
C4_2 H3_2 1_555 1_555
H4_2 C4_2 1_555 1_555
C6_2 C4_2 1_555 1_555
H5_2 C6_2 1_555 1_555
H6_2 C6_2 1_555 1_555
C8_2 C6_2 1_555 1_555
H8_2 C8_2 1_555 1_555
H9_2 C8_2 1_555 1_555
C10_2 C8_2 1_555 1_555
O4_2 C10_2 1_555 1_555
O14 C10_2 1_555 1_555
C11_2 C5_2 1_555 1_555
N2 C11_2 1_555 1_555
O1_3 C11_2 1_555 1_555
C12_2 H11_2 1_555 1_555
C13_2 C12_2 1_555 1_555
H12_2 C13_2 1_555 1_555
C14_2 C13_2 1_555 1_555
C15 C14_2 1_555 1_555
H13 C15 1_555 1_555
C16_2 C15 1_555 1_555
H14 C16_2 1_555 1_555
C17_2 O1_3 1_555 1_555
N3_2 C12_2 1_555 1_555
N4 N2 1_555 1_555
Cu4 N3_2 1_555 1_555
O6_2 Cu4 1_555 1_555
O7_2 C18_2 1_555 1_555
C14_2 C17_2 1_555 1_555
C16_2 N3_2 1_555 1_555
C17_2 N4 1_555 1_555
C18_2 O6_2 1_555 1_555
Cu3 N1_2 1_555 1_555
C1_2 H1_2 1_555 1_555
C3_2 C1_2 1_555 1_555
H7 C7 1_555 1_555
C9_2 C7 1_555 1_555
H10 C9_2 1_555 1_555
N1_2 C1_2 1_555 1_555
O2_2 Cu3 1_555 1_555
O3_2 C2_2 1_555 1_555
O10_2 Cu3 1_555 1_555
O13_2 Cu3 1_555 1_555
C2_2 O2_2 1_555 1_555
C9_2 N1_2 1_555 1_555
O3_2 Cu5 1_555 1_555
Cu5 N1_3 1_555 1_555
C1_3 H1_3 1_555 1_555
C2_3 C4_3 1_555 1_555
C3_3 C1_3 1_555 1_555
C4_3 H3_3 1_555 1_555
H4_3 C4_3 1_555 1_555
C6_3 C4_3 1_555 1_555
H5_3 C6_3 1_555 1_555
H6_3 C6_3 1_555 1_555
C8_3 C6_3 1_555 1_555
H8_3 C8_3 1_555 1_555
H9_3 C8_3 1_555 1_555
C10_3 C8_3 1_555 1_555
N1_3 C1_3 1_555 1_555
O2_3 Cu5 1_555 1_555
O10_2 C2_3 1_555 1_555
O12 C10_3 1_555 1_555
O5_2 C10_3 1_555 1_555
Cu8 O5_2 1_555 1_555
O15_2 Cu5 1_555 1_555
C2_3 O2_3 1_555 1_555
C9_3 N1_3 1_555 1_555
C11_3 C5_3 1_555 1_555
O1_4 C11_3 1_555 1_555
C12_3 H11_3 1_555 1_555
C13_3 C12_3 1_555 1_555
H12_3 C13_3 1_555 1_555
C14_3 C13_3 1_555 1_555
C17_3 O1_5 1_555 1_555
N3_3 C12_3 1_555 1_555
Cu6 N3_3 1_555 1_555
C18_3 C19_3 1_555 1_555
C19_3 H15_3 1_555 1_555
H16_3 C19_3 1_555 1_555
C20_3 C19_3 1_555 1_555
H17_3 C20_3 1_555 1_555
C21_3 C20_3 1_555 1_555
H19_3 C21_3 1_555 1_555
H20_3 C21_3 1_555 1_555
C22_3 C21_3 1_555 1_555
O6_3 Cu6 1_555 1_555
O11_2 C18_3 1_555 1_555
O13 C22_3 1_555 1_555
O9_2 C22_3 1_555 1_555
Cu7 O9_2 1_555 1_555
O14_2 Cu6 1_555 1_555
C14_3 C17_3 1_555 1_555
C16_3 N3_3 1_555 1_555
C18_3 O6_3 1_555 1_555
Cu7 N1_4 1_555 1_555
C1_4 H1_4 1_555 1_555
C3_4 C1_4 1_555 1_555
H7_2 C7_2 1_555 1_555
C9_4 C7_2 1_555 1_555
H10_2 C9_4 1_555 1_555
N1_4 C1_4 1_555 1_555
O2_4 Cu7 1_555 1_555
O10 C2_4 1_555 1_555
C2_4 O2_4 1_555 1_555
C9_4 N1_4 1_555 1_555
C11_4 C5_4 1_555 1_555
N2_2 C11_4 1_555 1_555
O1_6 C11_4 1_555 1_555
C12_4 H11_4 1_555 1_555
C13_4 C12_4 1_555 1_555
H12_4 C13_4 1_555 1_555
C14_4 C13_4 1_555 1_555
C15_2 C14_4 1_555 1_555
H13_2 C15_2 1_555 1_555
C16_4 C15_2 1_555 1_555
H14_2 C16_4 1_555 1_555
C17_4 O1_6 1_555 1_555
N3_4 C12_4 1_555 1_555
N4_2 N2_2 1_555 1_555
Cu8 N3_4 1_555 1_555
O6_4 Cu8 1_555 1_555
O11 C18_4 1_555 1_555
C14_4 C17_4 1_555 1_555
C16_4 N3_4 1_555 1_555
C17_4 N4_2 1_555 1_555
C18_4 O6_4 1_555 1_555
C4_4 H3_4 1_555 1_555
H4_4 C4_4 1_555 1_555
C6_4 C4_4 1_555 1_555
H5_4 C6_4 1_555 1_555
H6_4 C6_4 1_555 1_555
C8_4 C6_4 1_555 1_555
H8_4 C8_4 1_555 1_555
H9_4 C8_4 1_555 1_555
C10_4 C8_4 1_555 1_555
O12_2 C10_4 1_555 1_555
O14_2 C10_4 1_555 1_555
C19_4 H15_4 1_555 1_555
H16_4 C19_4 1_555 1_555
C20_4 C19_4 1_555 1_555
H17_4 C20_4 1_555 1_555
C21_4 C20_4 1_555 1_555
H19_4 C21_4 1_555 1_555
H20_4 C21_4 1_555 1_555
C22_4 C21_4 1_555 1_555
O13_2 C22_4 1_555 1_555
O15_2 C22_4 1_555 1_555
H13_3 C15_3 1_555 1_555
H7_3 C7_3 1_555 1_555
H7_4 C7_4 1_555 1_555
H13_4 C15_4 1_555 1_555

#END
