
###############################################################################
#
# This file contains modified crystal structure data generated from the
# MOF subset of the Cambridge Structural Database (CSD) v543 
# hosted by the Cambridge Crystallographic Data Centre (CCDC).
#
# This work is licensed under the Creative Commons
# Attribution-NonCommercial-ShareAlike 4.0 International License.
# To view a copy of this license, visit
# http://creativecommons.org/licenses/by-nc-sa/4.0/
# or send a letter to
# Creative Commons, PO Box 1866, Mountain View, CA 94042, USA.
#
# CIF created using the CSD Python API on 29 September 2022
# The structure has been converted into the P1 space group
# The structure has a 3D framework
# The original CSD entry OFEHAK is in the tetragonal crystal system
# The framework has been calculated to contain at least 10.0% void space
# The void calculation uses a probe of radius 1.32A, grid spacing 0.4
#
###############################################################################

data_OFEHAK
_chemical_formula_moiety         '(C192 H160 Cd16 N32 O80)n'
_symmetry_cell_setting           triclinic
_symmetry_space_group_name_H-M   'P 1'
_symmetry_Int_Tables_number      1
_space_group_name_Hall           'P 1'
loop_
_symmetry_equiv_pos_site_id
_symmetry_equiv_pos_as_xyz
1 x,y,z
_cell_length_a                   22.290(3)
_cell_length_b                   22.290(3)
_cell_length_c                   15.123(3)
_cell_angle_alpha                90
_cell_angle_beta                 90
_cell_angle_gamma                90
_cell_volume                     7513.77
loop_
_atom_site_label
_atom_site_type_symbol
_atom_site_fract_x
_atom_site_fract_y
_atom_site_fract_z
C7 C 0.8859(6) 0.0096(7) 0.6972(10)
C8 C 0.8802(7) 0.0557(7) 0.6359(11)
H3 H 0.9142 0.0742 0.6131
C9 C 0.8236(9) 0.0742(6) 0.6088(9)
C10 C 0.7727(7) 0.0466(7) 0.6429(10)
H4 H 0.7348 0.0590 0.6248
C11 C 0.7784(6) 0.0005(6) 0.7042(9)
C12 C 0.8130(17) 0.1150(17) 0.541(3)
H6 H 0.8505 0.1313 0.5209
H7 H 0.7879 0.1469 0.5624
H8 H 0.7933 0.0950 0.4928
Cd2 Cd 0.92276(4) 0.01092(5) 0.94933(7)
O5 O 0.9520(12) 0.0924(10) 0.8686(13)
C6 C 0.7680(5) 0.0850(7) 0.9814(8)
C7_2 C 0.7404(7) 0.1359(6) 0.9472(10)
H2 H 0.7528 0.1738 0.9654
C8_2 C 0.6943(7) 0.1302(7) 0.8859(11)
H3_2 H 0.6758 0.1642 0.8631
C9_2 C 0.6758(6) 0.0736(9) 0.8588(9)
C10_2 C 0.7034(7) 0.0227(7) 0.8929(10)
C11_2 C 0.7495(6) 0.0284(6) 0.9542(9)
C12_2 C 0.6350(17) 0.0630(17) 0.791(3)
H6_2 H 0.6187 0.1005 0.7709
H7_2 H 0.6031 0.0379 0.8124
H8_2 H 0.6550 0.0433 0.7428
H9 H 0.964(8) 0.068(8) 0.829(12)
H10 H 0.990(5) 0.108(11) 0.892(16)
O3 O 0.8705(7) 0.8321(6) 0.0596(7)
O4 O 0.9095(5) 0.9239(5) 0.0535(6)
C4 C 0.8819(8) 0.8822(8) 0.0219(10)
Cd1 Cd 0.76092(5) 0.82724(4) 0.69933(7)
N1 N 0.8159(5) 0.8789(5) 0.7972(8)
N2 N 0.8695(4) 0.9415(5) 0.8841(6)
O1 O 0.7829(5) 0.7641(4) 0.8234(7)
O2 O 0.8139(8) 0.7643(5) 0.9591(8)
H1 H 0.8054 0.7873 0.9995
O5_2 O 0.8424(10) 0.7980(12) 0.6186(13)
C1 C 0.8053(7) 0.7896(6) 0.8871(10)
C2 C 0.8279(6) 0.8496(6) 0.8752(8)
C3 C 0.8610(6) 0.8880(6) 0.9275(9)
C5 C 0.8442(7) 0.9331(6) 0.8044(10)
C6_2 C 0.8350(7) 0.9820(5) 0.7314(8)
H2_2 H 0.9238 0.9972 0.7154
H5 H 0.7443 0.9821 0.7271
H9_2 H 0.818(8) 0.786(8) 0.579(12)
H10_2 H 0.858(11) 0.760(5) 0.642(16)
Cd3 Cd 0.73908(5) 0.67276(4) 0.80067(7)
N3 N 0.6915(5) 0.8805(4) 0.6341(6)
O6 O 0.7171(5) 0.7359(4) 0.6766(7)
O7 O 0.6739(5) 0.8405(5) 0.8035(6)
O6_2 O 0.0141(4) 0.9671(5) 0.9266(7)
N1_2 N 0.8711(5) 0.0659(5) 0.0472(8)
N2_2 N 0.8085(5) 0.1195(4) 0.1341(6)
O1_2 O 0.9859(4) 0.0329(5) 0.0734(7)
O2_2 O 0.9857(5) 0.0639(8) 0.2091(8)
H1_2 H 0.9627 0.0554 0.2495
O3_2 O 0.9179(6) 0.1205(7) 0.3096(7)
O4_2 O 0.8261(5) 0.1595(5) 0.3035(6)
C1_2 C 0.9604(6) 0.0553(7) 0.1371(10)
C2_2 C 0.9004(6) 0.0779(6) 0.1252(8)
C3_2 C 0.8620(6) 0.1110(6) 0.1775(9)
C4_2 C 0.8678(8) 0.1319(8) 0.2719(10)
C5_2 C 0.8169(6) 0.0942(7) 0.0544(10)
Cd2_2 Cd 0.73908(5) 0.17276(4) 0.19933(7)
H4_2 H 0.6910 0.9848 0.8748
H5_2 H 0.7679 0.9943 0.9771
N1_3 N 0.6841(5) 0.1211(5) 0.2972(8)
N2_3 N 0.6305(4) 0.0585(5) 0.3841(6)
O1_3 O 0.7171(5) 0.2359(4) 0.3234(7)
O2_3 O 0.6861(8) 0.2357(5) 0.4591(8)
H1_3 H 0.6946 0.2127 0.4995
O3_3 O 0.6295(7) 0.1679(6) 0.5596(7)
O4_3 O 0.5905(5) 0.0761(5) 0.5535(6)
O5_3 O 0.6576(10) 0.2020(12) 0.1186(13)
C1_3 C 0.6947(7) 0.2104(6) 0.3871(10)
C2_3 C 0.6721(6) 0.1504(6) 0.3752(8)
C3_3 C 0.6390(6) 0.1120(6) 0.4275(9)
C4_3 C 0.6181(8) 0.1178(8) 0.5219(10)
C5_3 C 0.6558(7) 0.0669(6) 0.3044(10)
C6_3 C 0.6650(7) 0.0180(5) 0.2314(8)
H2_3 H 0.5762 0.0028 0.2154
H5_3 H 0.7557 0.0179 0.2271
H9_3 H 0.682(8) 0.214(8) 0.079(12)
H10_3 H 0.642(11) 0.240(5) 0.142(16)
Cd3_2 Cd 0.76092(5) 0.32724(4) 0.30067(7)
O6_3 O 0.7829(5) 0.2641(4) 0.1766(7)
C7_3 C 0.6141(6) 0.9904(7) 0.1972(10)
C8_3 C 0.6198(7) 0.9443(7) 0.1359(11)
H3_3 H 0.5858 0.9258 0.1131
C9_3 C 0.6764(9) 0.9258(6) 0.1088(9)
C10_3 C 0.7273(7) 0.9534(7) 0.1429(10)
H4_3 H 0.7652 0.9410 0.1248
C11_3 C 0.7216(6) 0.9995(6) 0.2042(9)
C12_3 C 0.6870(17) 0.8850(17) 0.041(3)
H6_3 H 0.6495 0.8687 0.0209
H7_3 H 0.7121 0.8531 0.0624
Cd2_3 Cd 0.57724(4) 0.98908(5) 0.44933(7)
H4_4 H 0.8090 0.0152 0.3748
H5_4 H 0.7321 0.0057 0.4771
Cd3_3 Cd 0.42276(4) 0.01092(5) 0.55067(7)
O6_4 O 0.4859(4) 0.0329(5) 0.4266(7)
N1_4 N 0.6289(5) 0.9341(5) 0.5472(8)
O1_4 O 0.5141(4) 0.9671(5) 0.5734(7)
O2_4 O 0.5143(5) 0.9361(8) 0.7091(8)
H1_4 H 0.5373 0.9446 0.7495
O3_4 O 0.5821(6) 0.8795(7) 0.8096(7)
O5_4 O 0.5480(12) 0.9076(10) 0.3686(13)
C1_4 C 0.5396(6) 0.9447(7) 0.6371(10)
C2_4 C 0.5996(6) 0.9221(6) 0.6252(8)
C3_4 C 0.6380(6) 0.8890(6) 0.6775(9)
C4_4 C 0.6322(8) 0.8681(8) 0.7719(10)
C5_4 C 0.6831(6) 0.9058(7) 0.5544(10)
C6_4 C 0.7320(5) 0.9150(7) 0.4814(8)
C7_4 C 0.7596(7) 0.8641(6) 0.4472(10)
H2_4 H 0.7472 0.8262 0.4654
C8_4 C 0.8057(7) 0.8698(7) 0.3859(11)
H3_4 H 0.8242 0.8358 0.3631
C9_4 C 0.8242(6) 0.9264(9) 0.3588(9)
C10_4 C 0.7966(7) 0.9773(7) 0.3929(10)
C11_4 C 0.7505(6) 0.9716(6) 0.4542(9)
C12_4 C 0.8650(17) 0.9370(17) 0.291(3)
H6_4 H 0.8813 0.8995 0.2709
H7_4 H 0.8969 0.9621 0.3124
H8_3 H 0.8450 0.9567 0.2428
H9_4 H 0.536(8) 0.932(8) 0.329(12)
H10_4 H 0.510(5) 0.892(11) 0.392(16)
Cd1_2 Cd 0.26092(5) 0.32724(4) 0.19933(7)
N1_5 N 0.3159(5) 0.3789(5) 0.2972(8)
N2_4 N 0.3695(4) 0.4415(5) 0.3841(6)
O1_5 O 0.2829(5) 0.2641(4) 0.3234(7)
O2_5 O 0.3139(8) 0.2643(5) 0.4591(8)
H1_5 H 0.3054 0.2873 0.4995
O3_5 O 0.3705(7) 0.3321(6) 0.5596(7)
O4_4 O 0.4095(5) 0.4239(5) 0.5535(6)
O5_5 O 0.3424(10) 0.2980(12) 0.1186(13)
C1_5 C 0.3053(7) 0.2896(6) 0.3871(10)
C2_5 C 0.3279(6) 0.3496(6) 0.3752(8)
C3_5 C 0.3610(6) 0.3880(6) 0.4275(9)
C4_5 C 0.3819(8) 0.3822(8) 0.5219(10)
C5_5 C 0.3442(7) 0.4331(6) 0.3044(10)
C6_5 C 0.3350(7) 0.4820(5) 0.2314(8)
C7_5 C 0.3859(6) 0.5096(7) 0.1972(10)
H2_5 H 0.4238 0.4972 0.2154
C8_5 C 0.3802(7) 0.5557(7) 0.1359(11)
H3_5 H 0.4142 0.5742 0.1131
C9_5 C 0.3236(9) 0.5742(6) 0.1088(9)
C10_5 C 0.2727(7) 0.5466(7) 0.1429(10)
H4_5 H 0.2348 0.5590 0.1248
C11_5 C 0.2784(6) 0.5005(6) 0.2042(9)
H5_5 H 0.2443 0.4821 0.2271
C12_5 C 0.3130(17) 0.6150(17) 0.041(3)
H6_5 H 0.3505 0.6313 0.0209
H7_5 H 0.2879 0.6469 0.0624
H9_5 H 0.318(8) 0.286(8) 0.079(12)
H10_5 H 0.358(11) 0.260(5) 0.142(16)
Cd2_4 Cd 0.42276(4) 0.51092(5) 0.44933(7)
Cd3_4 Cd 0.23908(5) 0.17276(4) 0.30067(7)
N3_2 N 0.1915(5) 0.3805(4) 0.1341(6)
O6_5 O 0.2171(5) 0.2359(4) 0.1766(7)
O7_2 O 0.1739(5) 0.3405(5) 0.3035(6)
N1_6 N 0.3711(5) 0.5659(5) 0.5472(8)
N2_5 N 0.3085(5) 0.6195(4) 0.6341(6)
O1_6 O 0.4859(4) 0.5329(5) 0.5734(7)
O2_6 O 0.4857(5) 0.5639(8) 0.7091(8)
H1_6 H 0.4627 0.5554 0.7495
O3_6 O 0.4179(6) 0.6205(7) 0.8096(7)
O4_5 O 0.3261(5) 0.6595(5) 0.8035(6)
O5_6 O 0.4520(12) 0.5924(10) 0.3686(13)
C1_6 C 0.4604(6) 0.5553(7) 0.6371(10)
C2_6 C 0.4004(6) 0.5779(6) 0.6252(8)
C3_6 C 0.3620(6) 0.6110(6) 0.6775(9)
C4_6 C 0.3678(8) 0.6319(8) 0.7719(10)
C5_6 C 0.3169(6) 0.5942(7) 0.5544(10)
C6_6 C 0.2680(5) 0.5850(7) 0.4814(8)
C7_6 C 0.2404(7) 0.6359(6) 0.4472(10)
H2_6 H 0.2528 0.6738 0.4654
C8_6 C 0.1943(7) 0.6302(7) 0.3859(11)
H3_6 H 0.1758 0.6642 0.3631
C9_6 C 0.1758(6) 0.5736(9) 0.3588(9)
C10_6 C 0.2034(7) 0.5227(7) 0.3929(10)
H4_6 H 0.1910 0.4848 0.3748
C11_6 C 0.2495(6) 0.5284(6) 0.4542(9)
H5_6 H 0.2679 0.4943 0.4771
C12_6 C 0.1350(17) 0.5630(17) 0.291(3)
H6_6 H 0.1187 0.6005 0.2709
H7_6 H 0.1031 0.5379 0.3124
H8_4 H 0.1550 0.5433 0.2428
H9_6 H 0.464(8) 0.568(8) 0.329(12)
H10_6 H 0.490(5) 0.608(11) 0.392(16)
Cd2_5 Cd 0.23908(5) 0.67276(4) 0.69933(7)
Cd3_5 Cd 0.57724(4) 0.48908(5) 0.55067(7)
O6_6 O 0.5141(4) 0.4671(5) 0.4266(7)
O3_7 O 0.1295(7) 0.6679(6) 0.0596(7)
O4_6 O 0.0905(5) 0.5761(5) 0.0535(6)
C4_7 C 0.1181(8) 0.6178(8) 0.0219(10)
N1_7 N 0.1841(5) 0.6211(5) 0.7972(8)
N2_6 N 0.1305(4) 0.5585(5) 0.8841(6)
O1_7 O 0.2171(5) 0.7359(4) 0.8234(7)
O2_7 O 0.1861(8) 0.7357(5) 0.9591(8)
H1_7 H 0.1946 0.7127 0.9995
O5_7 O 0.1576(10) 0.7020(12) 0.6186(13)
C1_7 C 0.1947(7) 0.7104(6) 0.8871(10)
C2_7 C 0.1721(6) 0.6504(6) 0.8752(8)
C3_7 C 0.1390(6) 0.6120(6) 0.9275(9)
C5_7 C 0.1558(7) 0.5669(6) 0.8044(10)
C6_7 C 0.1650(7) 0.5180(5) 0.7314(8)
C7_7 C 0.1141(6) 0.4904(7) 0.6972(10)
H2_7 H 0.0762 0.5028 0.7154
C8_7 C 0.1198(7) 0.4443(7) 0.6359(11)
H3_7 H 0.0858 0.4258 0.6131
C9_7 C 0.1764(9) 0.4258(6) 0.6088(9)
C10_7 C 0.2273(7) 0.4534(7) 0.6429(10)
H4_7 H 0.2652 0.4410 0.6248
C11_7 C 0.2216(6) 0.4995(6) 0.7042(9)
H5_7 H 0.2557 0.5179 0.7271
C12_7 C 0.1870(17) 0.3850(17) 0.541(3)
H6_7 H 0.1495 0.3687 0.5209
H7_7 H 0.2121 0.3531 0.5624
H8_5 H 0.2067 0.4050 0.4928
H9_7 H 0.182(8) 0.714(8) 0.579(12)
H10_7 H 0.142(11) 0.740(5) 0.642(16)
Cd2_6 Cd 0.07724(4) 0.48908(5) 0.94933(7)
Cd3_6 Cd 0.26092(5) 0.82724(4) 0.80067(7)
O6_7 O 0.2829(5) 0.7641(4) 0.6766(7)
N1_8 N 0.1289(5) 0.4341(5) 0.0472(8)
O1_8 O 0.0141(4) 0.4671(5) 0.0734(7)
O2_8 O 0.0143(5) 0.4361(8) 0.2091(8)
H1_8 H 0.0373 0.4446 0.2495
O3_8 O 0.0821(6) 0.3795(7) 0.3096(7)
C1_8 C 0.0396(6) 0.4447(7) 0.1371(10)
C2_8 C 0.0996(6) 0.4221(6) 0.1252(8)
C3_8 C 0.1380(6) 0.3890(6) 0.1775(9)
C4_8 C 0.1322(8) 0.3681(8) 0.2719(10)
C5_8 C 0.1831(6) 0.4058(7) 0.0544(10)
O5_8 O 0.0480(12) 0.4076(10) 0.8686(13)
C6_8 C 0.2320(5) 0.4150(7) 0.9814(8)
C7_8 C 0.2596(7) 0.3641(6) 0.9472(10)
H2_8 H 0.2472 0.3262 0.9654
C8_8 C 0.3057(7) 0.3698(7) 0.8859(11)
H3_8 H 0.3242 0.3358 0.8631
C9_8 C 0.3242(6) 0.4264(9) 0.8588(9)
C10_8 C 0.2966(7) 0.4773(7) 0.8929(10)
H4_8 H 0.3090 0.5152 0.8748
C11_8 C 0.2505(6) 0.4716(6) 0.9542(9)
H5_8 H 0.2321 0.5057 0.9771
C12_8 C 0.3650(17) 0.4370(17) 0.791(3)
H6_8 H 0.3813 0.3995 0.7709
H7_8 H 0.3969 0.4621 0.8124
H8_6 H 0.3450 0.4567 0.7428
H9_8 H 0.036(8) 0.432(8) 0.829(12)
H10_8 H 0.010(5) 0.392(11) 0.892(16)
Cd3_7 Cd 0.92276(4) 0.51092(5) 0.05067(7)
O6_8 O 0.9859(4) 0.5329(5) 0.9266(7)
N1_9 N 0.1841(5) 0.1211(5) 0.2028(8)
N2_7 N 0.1305(4) 0.0585(5) 0.1159(6)
O2_9 O 0.1861(8) 0.2357(5) 0.0409(8)
H1_9 H 0.1946 0.2127 0.0005
O5_9 O 0.1576(10) 0.2020(12) 0.3814(13)
C1_9 C 0.1947(7) 0.2104(6) 0.1129(10)
C2_9 C 0.1721(6) 0.1504(6) 0.1248(8)
C3_9 C 0.1390(6) 0.1120(6) 0.0725(9)
C5_9 C 0.1558(7) 0.0669(6) 0.1956(10)
C6_9 C 0.1650(7) 0.0180(5) 0.2686(8)
H2_9 H 0.0762 0.0028 0.2846
H5_9 H 0.2557 0.0179 0.2729
H9_9 H 0.182(8) 0.214(8) 0.421(12)
H10_9 H 0.142(11) 0.240(5) 0.358(16)
N3_3 N 0.3085(5) 0.1195(4) 0.3659(6)
O7_3 O 0.3261(5) 0.1595(5) 0.1965(6)
H4_9 H 0.3090 0.0152 0.1252
H5_10 H 0.2321 0.0057 0.0229
N1_10 N 0.1289(5) 0.9341(5) 0.9528(8)
N2_8 N 0.1915(5) 0.8805(4) 0.8659(6)
O2_10 O 0.0143(5) 0.9361(8) 0.7909(8)
H1_10 H 0.0373 0.9446 0.7505
O3_9 O 0.0821(6) 0.8795(7) 0.6904(7)
O4_7 O 0.1739(5) 0.8405(5) 0.6965(6)
C1_10 C 0.0396(6) 0.9447(7) 0.8629(10)
C2_10 C 0.0996(6) 0.9221(6) 0.8748(8)
C3_10 C 0.1380(6) 0.8890(6) 0.8225(9)
C4_9 C 0.1322(8) 0.8681(8) 0.7281(10)
C5_10 C 0.1831(6) 0.9058(7) 0.9456(10)
C7_9 C 0.3859(6) 0.0096(7) 0.8028(10)
C8_9 C 0.3802(7) 0.0557(7) 0.8641(11)
H3_9 H 0.4142 0.0742 0.8869
C9_9 C 0.3236(9) 0.0742(6) 0.8912(9)
C10_9 C 0.2727(7) 0.0466(7) 0.8571(10)
H4_10 H 0.2348 0.0590 0.8752
C11_9 C 0.2784(6) 0.0005(6) 0.7958(9)
C12_9 C 0.3130(17) 0.1150(17) 0.959(3)
H6_9 H 0.3505 0.1313 0.9791
H7_9 H 0.2879 0.1469 0.9376
N1_11 N 0.3159(5) 0.8789(5) 0.7028(8)
N2_9 N 0.3695(4) 0.9415(5) 0.6159(6)
O2_11 O 0.3139(8) 0.7643(5) 0.5409(8)
H1_11 H 0.3054 0.7873 0.5005
O3_10 O 0.3705(7) 0.8321(6) 0.4404(7)
O4_8 O 0.4095(5) 0.9239(5) 0.4465(6)
O5_10 O 0.3424(10) 0.7980(12) 0.8814(13)
C1_11 C 0.3053(7) 0.7896(6) 0.6129(10)
C2_11 C 0.3279(6) 0.8496(6) 0.6248(8)
C3_11 C 0.3610(6) 0.8880(6) 0.5725(9)
C4_10 C 0.3819(8) 0.8822(8) 0.4781(10)
C5_11 C 0.3442(7) 0.9331(6) 0.6956(10)
C6_10 C 0.3350(7) 0.9820(5) 0.7686(8)
H2_10 H 0.4238 0.9972 0.7846
H5_11 H 0.2443 0.9821 0.7729
H9_10 H 0.318(8) 0.786(8) 0.921(12)
H10_10 H 0.358(11) 0.760(5) 0.858(16)
N1_12 N 0.3711(5) 0.0659(5) 0.4528(8)
O2_12 O 0.4857(5) 0.0639(8) 0.2909(8)
H1_12 H 0.4627 0.0554 0.2505
O3_11 O 0.4179(6) 0.1205(7) 0.1904(7)
O5_11 O 0.4520(12) 0.0924(10) 0.6314(13)
C1_12 C 0.4604(6) 0.0553(7) 0.3629(10)
C2_12 C 0.4004(6) 0.0779(6) 0.3748(8)
C3_12 C 0.3620(6) 0.1110(6) 0.3225(9)
C4_11 C 0.3678(8) 0.1319(8) 0.2281(10)
C5_12 C 0.3169(6) 0.0942(7) 0.4456(10)
C6_11 C 0.2680(5) 0.0850(7) 0.5186(8)
C7_10 C 0.2404(7) 0.1359(6) 0.5528(10)
H2_11 H 0.2528 0.1738 0.5346
C8_10 C 0.1943(7) 0.1302(7) 0.6141(11)
H3_10 H 0.1758 0.1642 0.6369
C9_10 C 0.1758(6) 0.0736(9) 0.6412(9)
C10_10 C 0.2034(7) 0.0227(7) 0.6071(10)
C11_10 C 0.2495(6) 0.0284(6) 0.5458(9)
C12_10 C 0.1350(17) 0.0630(17) 0.709(3)
H6_10 H 0.1187 0.1005 0.7291
H7_10 H 0.1031 0.0379 0.6876
H8_7 H 0.1550 0.0433 0.7572
H9_11 H 0.464(8) 0.068(8) 0.671(12)
H10_11 H 0.490(5) 0.108(11) 0.608(16)
H4_11 H 0.1910 0.9848 0.6252
H5_12 H 0.2679 0.9943 0.5229
N1_13 N 0.6841(5) 0.6211(5) 0.7028(8)
N2_10 N 0.6305(4) 0.5585(5) 0.6159(6)
O2_13 O 0.6861(8) 0.7357(5) 0.5409(8)
H1_13 H 0.6946 0.7127 0.5005
O3_12 O 0.6295(7) 0.6679(6) 0.4404(7)
O4_9 O 0.5905(5) 0.5761(5) 0.4465(6)
O5_12 O 0.6576(10) 0.7020(12) 0.8814(13)
C1_13 C 0.6947(7) 0.7104(6) 0.6129(10)
C2_13 C 0.6721(6) 0.6504(6) 0.6248(8)
C3_13 C 0.6390(6) 0.6120(6) 0.5725(9)
C4_12 C 0.6181(8) 0.6178(8) 0.4781(10)
C5_13 C 0.6558(7) 0.5669(6) 0.6956(10)
C6_12 C 0.6650(7) 0.5180(5) 0.7686(8)
C7_11 C 0.6141(6) 0.4904(7) 0.8028(10)
H2_12 H 0.5762 0.5028 0.7846
C8_11 C 0.6198(7) 0.4443(7) 0.8641(11)
H3_11 H 0.5858 0.4258 0.8869
C9_11 C 0.6764(9) 0.4258(6) 0.8912(9)
C10_11 C 0.7273(7) 0.4534(7) 0.8571(10)
H4_12 H 0.7652 0.4410 0.8752
C11_11 C 0.7216(6) 0.4995(6) 0.7958(9)
H5_13 H 0.7557 0.5179 0.7729
C12_11 C 0.6870(17) 0.3850(17) 0.959(3)
H6_11 H 0.6495 0.3687 0.9791
H7_11 H 0.7121 0.3531 0.9376
H9_12 H 0.682(8) 0.714(8) 0.921(12)
H10_12 H 0.642(11) 0.740(5) 0.858(16)
N3_4 N 0.8085(5) 0.6195(4) 0.8659(6)
O7_4 O 0.8261(5) 0.6595(5) 0.6965(6)
N1_14 N 0.6289(5) 0.4341(5) 0.4528(8)
N2_11 N 0.6915(5) 0.3805(4) 0.3659(6)
O2_14 O 0.5143(5) 0.4361(8) 0.2909(8)
H1_14 H 0.5373 0.4446 0.2505
O3_13 O 0.5821(6) 0.3795(7) 0.1904(7)
O4_10 O 0.6739(5) 0.3405(5) 0.1965(6)
O5_13 O 0.5480(12) 0.4076(10) 0.6314(13)
C1_14 C 0.5396(6) 0.4447(7) 0.3629(10)
C2_14 C 0.5996(6) 0.4221(6) 0.3748(8)
C3_14 C 0.6380(6) 0.3890(6) 0.3225(9)
C4_13 C 0.6322(8) 0.3681(8) 0.2281(10)
C5_14 C 0.6831(6) 0.4058(7) 0.4456(10)
C6_13 C 0.7320(5) 0.4150(7) 0.5186(8)
C7_12 C 0.7596(7) 0.3641(6) 0.5528(10)
H2_13 H 0.7472 0.3262 0.5346
C8_12 C 0.8057(7) 0.3698(7) 0.6141(11)
H3_12 H 0.8242 0.3358 0.6369
C9_12 C 0.8242(6) 0.4264(9) 0.6412(9)
C10_12 C 0.7966(7) 0.4773(7) 0.6071(10)
H4_13 H 0.8090 0.5152 0.6252
C11_12 C 0.7505(6) 0.4716(6) 0.5458(9)
H5_14 H 0.7321 0.5057 0.5229
C12_12 C 0.8650(17) 0.4370(17) 0.709(3)
H6_12 H 0.8813 0.3995 0.7291
H7_12 H 0.8969 0.4621 0.6876
H8_8 H 0.8450 0.4567 0.7572
H9_13 H 0.536(8) 0.432(8) 0.671(12)
H10_13 H 0.510(5) 0.392(11) 0.608(16)
N1_15 N 0.8159(5) 0.3789(5) 0.2028(8)
N2_12 N 0.8695(4) 0.4415(5) 0.1159(6)
O2_15 O 0.8139(8) 0.2643(5) 0.0409(8)
H1_15 H 0.8054 0.2873 0.0005
O5_14 O 0.8424(10) 0.2980(12) 0.3814(13)
C1_15 C 0.8053(7) 0.2896(6) 0.1129(10)
C2_15 C 0.8279(6) 0.3496(6) 0.1248(8)
C3_15 C 0.8610(6) 0.3880(6) 0.0725(9)
C5_15 C 0.8442(7) 0.4331(6) 0.1956(10)
C6_14 C 0.8350(7) 0.4820(5) 0.2686(8)
C7_13 C 0.8859(6) 0.5096(7) 0.3028(10)
H2_14 H 0.9238 0.4972 0.2846
C8_13 C 0.8802(7) 0.5557(7) 0.3641(11)
H3_13 H 0.9142 0.5742 0.3869
C9_13 C 0.8236(9) 0.5742(6) 0.3912(9)
C10_13 C 0.7727(7) 0.5466(7) 0.3571(10)
H4_14 H 0.7348 0.5590 0.3752
C11_13 C 0.7784(6) 0.5005(6) 0.2958(9)
H5_15 H 0.7443 0.4821 0.2729
C12_13 C 0.8130(17) 0.6150(17) 0.459(3)
H6_13 H 0.8505 0.6313 0.4791
H7_13 H 0.7879 0.6469 0.4376
H8_9 H 0.7933 0.5950 0.5072
H9_14 H 0.818(8) 0.286(8) 0.421(12)
H10_14 H 0.858(11) 0.260(5) 0.358(16)
O3_14 O 0.8705(7) 0.3321(6) 0.9404(7)
O4_11 O 0.9095(5) 0.4239(5) 0.9465(6)
C4_14 C 0.8819(8) 0.3822(8) 0.9781(10)
O5_15 O 0.9520(12) 0.5924(10) 0.1314(13)
C6_15 C 0.7680(5) 0.5850(7) 0.0186(8)
C7_14 C 0.7404(7) 0.6359(6) 0.0528(10)
H2_15 H 0.7528 0.6738 0.0346
C8_14 C 0.6943(7) 0.6302(7) 0.1141(11)
H3_14 H 0.6758 0.6642 0.1369
C9_14 C 0.6758(6) 0.5736(9) 0.1412(9)
C10_14 C 0.7034(7) 0.5227(7) 0.1071(10)
H4_15 H 0.6910 0.4848 0.1252
C11_14 C 0.7495(6) 0.5284(6) 0.0458(9)
H5_16 H 0.7679 0.4943 0.0229
C12_14 C 0.6350(17) 0.5630(17) 0.209(3)
H6_14 H 0.6187 0.6005 0.2291
H7_14 H 0.6031 0.5379 0.1876
H8_10 H 0.6550 0.5433 0.2572
H9_15 H 0.964(8) 0.568(8) 0.171(12)
H10_15 H 0.990(5) 0.608(11) 0.108(16)
N1_16 N 0.8711(5) 0.5659(5) 0.9528(8)
O2_16 O 0.9857(5) 0.5639(8) 0.7909(8)
H1_16 H 0.9627 0.5554 0.7505
O3_15 O 0.9179(6) 0.6205(7) 0.6904(7)
C1_16 C 0.9604(6) 0.5553(7) 0.8629(10)
C2_16 C 0.9004(6) 0.5779(6) 0.8748(8)
C3_16 C 0.8620(6) 0.6110(6) 0.8225(9)
C4_15 C 0.8678(8) 0.6319(8) 0.7281(10)
C5_16 C 0.8169(6) 0.5942(7) 0.9456(10)
Cd3_8 Cd 0.07724(4) 0.98908(5) 0.05067(7)
C7_15 C 0.1141(6) 0.9904(7) 0.3028(10)
C8_15 C 0.1198(7) 0.9443(7) 0.3641(11)
H3_15 H 0.0858 0.9258 0.3869
C9_15 C 0.1764(9) 0.9258(6) 0.3912(9)
C10_15 C 0.2273(7) 0.9534(7) 0.3571(10)
H4_16 H 0.2652 0.9410 0.3752
C11_15 C 0.2216(6) 0.9995(6) 0.2958(9)
C12_15 C 0.1870(17) 0.8850(17) 0.459(3)
H6_15 H 0.1495 0.8687 0.4791
H7_15 H 0.2121 0.8531 0.4376
H8_11 H 0.2067 0.9050 0.5072
O5_16 O 0.0480(12) 0.9076(10) 0.1314(13)
C6_16 C 0.2320(5) 0.9150(7) 0.0186(8)
C7_16 C 0.2596(7) 0.8641(6) 0.0528(10)
H2_16 H 0.2472 0.8262 0.0346
C8_16 C 0.3057(7) 0.8698(7) 0.1141(11)
H3_16 H 0.3242 0.8358 0.1369
C9_16 C 0.3242(6) 0.9264(9) 0.1412(9)
C10_16 C 0.2966(7) 0.9773(7) 0.1071(10)
C11_16 C 0.2505(6) 0.9716(6) 0.0458(9)
C12_16 C 0.3650(17) 0.9370(17) 0.209(3)
H6_16 H 0.3813 0.8995 0.2291
H7_16 H 0.3969 0.9621 0.1876
H8_12 H 0.3450 0.9567 0.2572
H9_16 H 0.036(8) 0.932(8) 0.171(12)
H10_16 H 0.010(5) 0.892(11) 0.108(16)
H8_13 H 0.7067 0.9050 0.9928
H8_14 H 0.2933 0.5950 0.9928
O3_16 O 0.1295(7) 0.1679(6) 0.9404(7)
O4_12 O 0.0905(5) 0.0761(5) 0.9465(6)
C4_16 C 0.1181(8) 0.1178(8) 0.9781(10)
H8_15 H 0.2933 0.0950 0.0072
H8_16 H 0.7067 0.4050 0.0072
loop_
_geom_bond_atom_site_label_1
_geom_bond_atom_site_label_2
_geom_bond_site_symmetry_1
_geom_bond_site_symmetry_2
C8 C7 1_555 1_555
H3 C8 1_555 1_555
C9 C8 1_555 1_555
C10 C9 1_555 1_555
H4 C10 1_555 1_555
C12 C9 1_555 1_555
H6 C12 1_555 1_555
H7 C12 1_555 1_555
H8 C12 1_555 1_555
C10 C11 1_555 1_555
O5 Cd2 1_555 1_555
C7_2 C6 1_555 1_555
H2 C7_2 1_555 1_555
C8_2 C7_2 1_555 1_555
H3_2 C8_2 1_555 1_555
C9_2 C8_2 1_555 1_555
C10_2 C9_2 1_555 1_555
C11_2 C6 1_555 1_555
C12_2 C9_2 1_555 1_555
H6_2 C12_2 1_555 1_555
H7_2 C12_2 1_555 1_555
H8_2 C12_2 1_555 1_555
H9 O5 1_555 1_555
H10 O5 1_555 1_555
C10_2 C11_2 1_555 1_555
O3 C4 1_555 1_555
O4 C4 1_555 1_555
Cd1 N1 1_555 1_555
N1 C2 1_555 1_555
N2 C3 1_555 1_555
O1 Cd1 1_555 1_555
O2 H1 1_555 1_555
O5_2 Cd1 1_555 1_555
C1 O1 1_555 1_555
C2 C1 1_555 1_555
C3 C2 1_555 1_555
C5 N1 1_555 1_555
C6_2 C5 1_555 1_555
H9_2 O5_2 1_555 1_555
H10_2 O5_2 1_555 1_555
Cd3 O1 1_555 1_555
N3 Cd1 1_555 1_555
O6 Cd1 1_555 1_555
O7 Cd1 1_555 1_555
N2 C5 1_555 1_555
O2 C1 1_555 1_555
Cd3 O6 1_555 1_555
N1_2 C2_2 1_555 1_555
N2_2 C3_2 1_555 1_555
O2_2 H1_2 1_555 1_555
O3_2 C4_2 1_555 1_555
O4_2 C4_2 1_555 1_555
C1_2 O1_2 1_555 1_555
C2_2 C1_2 1_555 1_555
C3_2 C2_2 1_555 1_555
C4_2 C3_2 1_555 1_555
C5_2 N1_2 1_555 1_555
Cd2_2 N2_2 1_555 1_555
N2_2 C5_2 1_555 1_555
O2_2 C1_2 1_555 1_555
O4_2 Cd2_2 1_555 1_555
Cd2_2 N1_3 1_555 1_555
N1_3 C2_3 1_555 1_555
N2_3 C3_3 1_555 1_555
O1_3 Cd2_2 1_555 1_555
O2_3 H1_3 1_555 1_555
O3_3 C4_3 1_555 1_555
O4_3 C4_3 1_555 1_555
O5_3 Cd2_2 1_555 1_555
C1_3 O1_3 1_555 1_555
C2_3 C1_3 1_555 1_555
C3_3 C2_3 1_555 1_555
C4_3 C3_3 1_555 1_555
C5_3 N1_3 1_555 1_555
C6_3 C5_3 1_555 1_555
H9_3 O5_3 1_555 1_555
H10_3 O5_3 1_555 1_555
Cd3_2 O1_3 1_555 1_555
O6_3 Cd2_2 1_555 1_555
N2_3 C5_3 1_555 1_555
O2_3 C1_3 1_555 1_555
Cd3_2 O6_3 1_555 1_555
C8_3 C7_3 1_555 1_555
H3_3 C8_3 1_555 1_555
C9_3 C8_3 1_555 1_555
C10_3 C9_3 1_555 1_555
H4_3 C10_3 1_555 1_555
C12_3 C9_3 1_555 1_555
H6_3 C12_3 1_555 1_555
H7_3 C12_3 1_555 1_555
C10_3 C11_3 1_555 1_555
Cd3_3 O6_4 1_555 1_555
Cd2_3 N1_4 1_555 1_555
N1_4 C2_4 1_555 1_555
N3 C3_4 1_555 1_555
O1_4 Cd2_3 1_555 1_555
O2_4 H1_4 1_555 1_555
O3_4 C4_4 1_555 1_555
O7 C4_4 1_555 1_555
O5_4 Cd2_3 1_555 1_555
C1_4 O1_4 1_555 1_555
C2_4 C1_4 1_555 1_555
C3_4 C2_4 1_555 1_555
C4_4 C3_4 1_555 1_555
C5_4 N1_4 1_555 1_555
C6_4 C5_4 1_555 1_555
C7_4 C6_4 1_555 1_555
H2_4 C7_4 1_555 1_555
C8_4 C7_4 1_555 1_555
H3_4 C8_4 1_555 1_555
C9_4 C8_4 1_555 1_555
C10_4 C9_4 1_555 1_555
C11_4 C6_4 1_555 1_555
C12_4 C9_4 1_555 1_555
H6_4 C12_4 1_555 1_555
H7_4 C12_4 1_555 1_555
H8_3 C12_4 1_555 1_555
H9_4 O5_4 1_555 1_555
H10_4 O5_4 1_555 1_555
N3 C5_4 1_555 1_555
O2_4 C1_4 1_555 1_555
C10_4 C11_4 1_555 1_555
Cd1_2 N1_5 1_555 1_555
N1_5 C2_5 1_555 1_555
N2_4 C3_5 1_555 1_555
O1_5 Cd1_2 1_555 1_555
O2_5 H1_5 1_555 1_555
O3_5 C4_5 1_555 1_555
O4_4 C4_5 1_555 1_555
O5_5 Cd1_2 1_555 1_555
C1_5 O1_5 1_555 1_555
C2_5 C1_5 1_555 1_555
C3_5 C2_5 1_555 1_555
C4_5 C3_5 1_555 1_555
C5_5 N1_5 1_555 1_555
C6_5 C5_5 1_555 1_555
C7_5 C6_5 1_555 1_555
H2_5 C7_5 1_555 1_555
C8_5 C7_5 1_555 1_555
H3_5 C8_5 1_555 1_555
C9_5 C8_5 1_555 1_555
C10_5 C9_5 1_555 1_555
H4_5 C10_5 1_555 1_555
C11_5 C6_5 1_555 1_555
H5_5 C11_5 1_555 1_555
C12_5 C9_5 1_555 1_555
H6_5 C12_5 1_555 1_555
H7_5 C12_5 1_555 1_555
H9_5 O5_5 1_555 1_555
H10_5 O5_5 1_555 1_555
Cd2_4 N2_4 1_555 1_555
Cd3_4 O1_5 1_555 1_555
N3_2 Cd1_2 1_555 1_555
O6_5 Cd1_2 1_555 1_555
O7_2 Cd1_2 1_555 1_555
N2_4 C5_5 1_555 1_555
O2_5 C1_5 1_555 1_555
O4_4 Cd2_4 1_555 1_555
C10_5 C11_5 1_555 1_555
Cd3_4 O6_5 1_555 1_555
Cd2_4 N1_6 1_555 1_555
N1_6 C2_6 1_555 1_555
N2_5 C3_6 1_555 1_555
O1_6 Cd2_4 1_555 1_555
O2_6 H1_6 1_555 1_555
O3_6 C4_6 1_555 1_555
O4_5 C4_6 1_555 1_555
O5_6 Cd2_4 1_555 1_555
C1_6 O1_6 1_555 1_555
C2_6 C1_6 1_555 1_555
C3_6 C2_6 1_555 1_555
C4_6 C3_6 1_555 1_555
C5_6 N1_6 1_555 1_555
C6_6 C5_6 1_555 1_555
C7_6 C6_6 1_555 1_555
H2_6 C7_6 1_555 1_555
C8_6 C7_6 1_555 1_555
H3_6 C8_6 1_555 1_555
C9_6 C8_6 1_555 1_555
C10_6 C9_6 1_555 1_555
H4_6 C10_6 1_555 1_555
C11_6 C6_6 1_555 1_555
H5_6 C11_6 1_555 1_555
C12_6 C9_6 1_555 1_555
H6_6 C12_6 1_555 1_555
H7_6 C12_6 1_555 1_555
H8_4 C12_6 1_555 1_555
H9_6 O5_6 1_555 1_555
H10_6 O5_6 1_555 1_555
Cd2_5 N2_5 1_555 1_555
Cd3_5 O1_6 1_555 1_555
O6_6 Cd2_4 1_555 1_555
N2_5 C5_6 1_555 1_555
O2_6 C1_6 1_555 1_555
O4_5 Cd2_5 1_555 1_555
C10_6 C11_6 1_555 1_555
Cd3_5 O6_6 1_555 1_555
O3_7 C4_7 1_555 1_555
O4_6 C4_7 1_555 1_555
Cd2_5 N1_7 1_555 1_555
N1_7 C2_7 1_555 1_555
N2_6 C3_7 1_555 1_555
O1_7 Cd2_5 1_555 1_555
O2_7 H1_7 1_555 1_555
O5_7 Cd2_5 1_555 1_555
C1_7 O1_7 1_555 1_555
C2_7 C1_7 1_555 1_555
C3_7 C2_7 1_555 1_555
C5_7 N1_7 1_555 1_555
C6_7 C5_7 1_555 1_555
C7_7 C6_7 1_555 1_555
H2_7 C7_7 1_555 1_555
C8_7 C7_7 1_555 1_555
H3_7 C8_7 1_555 1_555
C9_7 C8_7 1_555 1_555
C10_7 C9_7 1_555 1_555
H4_7 C10_7 1_555 1_555
C11_7 C6_7 1_555 1_555
H5_7 C11_7 1_555 1_555
C12_7 C9_7 1_555 1_555
H6_7 C12_7 1_555 1_555
H7_7 C12_7 1_555 1_555
H8_5 C12_7 1_555 1_555
H9_7 O5_7 1_555 1_555
H10_7 O5_7 1_555 1_555
Cd2_6 N2_6 1_555 1_555
Cd3_6 O1_7 1_555 1_555
O6_7 Cd2_5 1_555 1_555
N2_6 C5_7 1_555 1_555
O2_7 C1_7 1_555 1_555
C10_7 C11_7 1_555 1_555
Cd3_6 O6_7 1_555 1_555
N1_8 C2_8 1_555 1_555
N3_2 C3_8 1_555 1_555
O2_8 H1_8 1_555 1_555
O3_8 C4_8 1_555 1_555
O7_2 C4_8 1_555 1_555
C1_8 O1_8 1_555 1_555
C2_8 C1_8 1_555 1_555
C3_8 C2_8 1_555 1_555
C4_8 C3_8 1_555 1_555
C5_8 N1_8 1_555 1_555
N3_2 C5_8 1_555 1_555
O2_8 C1_8 1_555 1_555
O5_8 Cd2_6 1_555 1_555
C7_8 C6_8 1_555 1_555
H2_8 C7_8 1_555 1_555
C8_8 C7_8 1_555 1_555
H3_8 C8_8 1_555 1_555
C9_8 C8_8 1_555 1_555
C10_8 C9_8 1_555 1_555
H4_8 C10_8 1_555 1_555
C11_8 C6_8 1_555 1_555
H5_8 C11_8 1_555 1_555
C12_8 C9_8 1_555 1_555
H6_8 C12_8 1_555 1_555
H7_8 C12_8 1_555 1_555
H8_6 C12_8 1_555 1_555
H9_8 O5_8 1_555 1_555
H10_8 O5_8 1_555 1_555
C10_8 C11_8 1_555 1_555
Cd3_4 N1_9 1_555 1_555
N1_9 C2_9 1_555 1_555
N2_7 C3_9 1_555 1_555
O2_9 H1_9 1_555 1_555
O5_9 Cd3_4 1_555 1_555
C1_9 O6_5 1_555 1_555
C2_9 C1_9 1_555 1_555
C3_9 C2_9 1_555 1_555
C5_9 N1_9 1_555 1_555
C6_9 C5_9 1_555 1_555
H9_9 O5_9 1_555 1_555
H10_9 O5_9 1_555 1_555
N3_3 Cd3_4 1_555 1_555
O7_3 Cd3_4 1_555 1_555
N2_7 C5_9 1_555 1_555
O2_9 C1_9 1_555 1_555
N1_10 C2_10 1_555 1_555
N2_8 C3_10 1_555 1_555
O2_10 H1_10 1_555 1_555
O3_9 C4_9 1_555 1_555
O4_7 C4_9 1_555 1_555
C1_10 O6_2 1_555 1_555
C2_10 C1_10 1_555 1_555
C3_10 C2_10 1_555 1_555
C4_9 C3_10 1_555 1_555
C5_10 N1_10 1_555 1_555
Cd3_6 N2_8 1_555 1_555
N2_8 C5_10 1_555 1_555
O2_10 C1_10 1_555 1_555
O4_7 Cd3_6 1_555 1_555
C8_9 C7_9 1_555 1_555
H3_9 C8_9 1_555 1_555
C9_9 C8_9 1_555 1_555
C10_9 C9_9 1_555 1_555
H4_10 C10_9 1_555 1_555
C12_9 C9_9 1_555 1_555
H6_9 C12_9 1_555 1_555
H7_9 C12_9 1_555 1_555
C10_9 C11_9 1_555 1_555
Cd3_6 N1_11 1_555 1_555
N1_11 C2_11 1_555 1_555
N2_9 C3_11 1_555 1_555
O2_11 H1_11 1_555 1_555
O3_10 C4_10 1_555 1_555
O4_8 C4_10 1_555 1_555
O5_10 Cd3_6 1_555 1_555
C1_11 O6_7 1_555 1_555
C2_11 C1_11 1_555 1_555
C3_11 C2_11 1_555 1_555
C4_10 C3_11 1_555 1_555
C5_11 N1_11 1_555 1_555
C6_10 C5_11 1_555 1_555
H9_10 O5_10 1_555 1_555
H10_10 O5_10 1_555 1_555
N2_9 C5_11 1_555 1_555
O2_11 C1_11 1_555 1_555
Cd3_3 N1_12 1_555 1_555
N1_12 C2_12 1_555 1_555
N3_3 C3_12 1_555 1_555
O2_12 H1_12 1_555 1_555
O3_11 C4_11 1_555 1_555
O7_3 C4_11 1_555 1_555
O5_11 Cd3_3 1_555 1_555
C1_12 O6_4 1_555 1_555
C2_12 C1_12 1_555 1_555
C3_12 C2_12 1_555 1_555
C4_11 C3_12 1_555 1_555
C5_12 N1_12 1_555 1_555
C6_11 C5_12 1_555 1_555
C7_10 C6_11 1_555 1_555
H2_11 C7_10 1_555 1_555
C8_10 C7_10 1_555 1_555
H3_10 C8_10 1_555 1_555
C9_10 C8_10 1_555 1_555
C10_10 C9_10 1_555 1_555
C11_10 C6_11 1_555 1_555
C12_10 C9_10 1_555 1_555
H6_10 C12_10 1_555 1_555
H7_10 C12_10 1_555 1_555
H8_7 C12_10 1_555 1_555
H9_11 O5_11 1_555 1_555
H10_11 O5_11 1_555 1_555
N3_3 C5_12 1_555 1_555
O2_12 C1_12 1_555 1_555
C10_10 C11_10 1_555 1_555
Cd3 N1_13 1_555 1_555
N1_13 C2_13 1_555 1_555
N2_10 C3_13 1_555 1_555
O2_13 H1_13 1_555 1_555
O3_12 C4_12 1_555 1_555
O4_9 C4_12 1_555 1_555
O5_12 Cd3 1_555 1_555
C1_13 O6 1_555 1_555
C2_13 C1_13 1_555 1_555
C3_13 C2_13 1_555 1_555
C4_12 C3_13 1_555 1_555
C5_13 N1_13 1_555 1_555
C6_12 C5_13 1_555 1_555
C7_11 C6_12 1_555 1_555
H2_12 C7_11 1_555 1_555
C8_11 C7_11 1_555 1_555
H3_11 C8_11 1_555 1_555
C9_11 C8_11 1_555 1_555
C10_11 C9_11 1_555 1_555
H4_12 C10_11 1_555 1_555
C11_11 C6_12 1_555 1_555
H5_13 C11_11 1_555 1_555
C12_11 C9_11 1_555 1_555
H6_11 C12_11 1_555 1_555
H7_11 C12_11 1_555 1_555
H9_12 O5_12 1_555 1_555
H10_12 O5_12 1_555 1_555
Cd3_5 N2_10 1_555 1_555
N3_4 Cd3 1_555 1_555
O7_4 Cd3 1_555 1_555
N2_10 C5_13 1_555 1_555
O2_13 C1_13 1_555 1_555
O4_9 Cd3_5 1_555 1_555
C10_11 C11_11 1_555 1_555
Cd3_5 N1_14 1_555 1_555
N1_14 C2_14 1_555 1_555
N2_11 C3_14 1_555 1_555
O2_14 H1_14 1_555 1_555
O3_13 C4_13 1_555 1_555
O4_10 C4_13 1_555 1_555
O5_13 Cd3_5 1_555 1_555
C1_14 O6_6 1_555 1_555
C2_14 C1_14 1_555 1_555
C3_14 C2_14 1_555 1_555
C4_13 C3_14 1_555 1_555
C5_14 N1_14 1_555 1_555
C6_13 C5_14 1_555 1_555
C7_12 C6_13 1_555 1_555
H2_13 C7_12 1_555 1_555
C8_12 C7_12 1_555 1_555
H3_12 C8_12 1_555 1_555
C9_12 C8_12 1_555 1_555
C10_12 C9_12 1_555 1_555
H4_13 C10_12 1_555 1_555
C11_12 C6_13 1_555 1_555
H5_14 C11_12 1_555 1_555
C12_12 C9_12 1_555 1_555
H6_12 C12_12 1_555 1_555
H7_12 C12_12 1_555 1_555
H8_8 C12_12 1_555 1_555
H9_13 O5_13 1_555 1_555
H10_13 O5_13 1_555 1_555
Cd3_2 N2_11 1_555 1_555
N2_11 C5_14 1_555 1_555
O2_14 C1_14 1_555 1_555
O4_10 Cd3_2 1_555 1_555
C10_12 C11_12 1_555 1_555
Cd3_2 N1_15 1_555 1_555
N1_15 C2_15 1_555 1_555
N2_12 C3_15 1_555 1_555
O2_15 H1_15 1_555 1_555
O5_14 Cd3_2 1_555 1_555
C1_15 O6_3 1_555 1_555
C2_15 C1_15 1_555 1_555
C3_15 C2_15 1_555 1_555
C5_15 N1_15 1_555 1_555
C6_14 C5_15 1_555 1_555
C7_13 C6_14 1_555 1_555
H2_14 C7_13 1_555 1_555
C8_13 C7_13 1_555 1_555
H3_13 C8_13 1_555 1_555
C9_13 C8_13 1_555 1_555
C10_13 C9_13 1_555 1_555
H4_14 C10_13 1_555 1_555
C11_13 C6_14 1_555 1_555
H5_15 C11_13 1_555 1_555
C12_13 C9_13 1_555 1_555
H6_13 C12_13 1_555 1_555
H7_13 C12_13 1_555 1_555
H8_9 C12_13 1_555 1_555
H9_14 O5_14 1_555 1_555
H10_14 O5_14 1_555 1_555
Cd3_7 N2_12 1_555 1_555
N2_12 C5_15 1_555 1_555
O2_15 C1_15 1_555 1_555
C10_13 C11_13 1_555 1_555
O3_14 C4_14 1_555 1_555
O4_11 C4_14 1_555 1_555
O5_15 Cd3_7 1_555 1_555
C7_14 C6_15 1_555 1_555
H2_15 C7_14 1_555 1_555
C8_14 C7_14 1_555 1_555
H3_14 C8_14 1_555 1_555
C9_14 C8_14 1_555 1_555
C10_14 C9_14 1_555 1_555
H4_15 C10_14 1_555 1_555
C11_14 C6_15 1_555 1_555
H5_16 C11_14 1_555 1_555
C12_14 C9_14 1_555 1_555
H6_14 C12_14 1_555 1_555
H7_14 C12_14 1_555 1_555
H8_10 C12_14 1_555 1_555
H9_15 O5_15 1_555 1_555
H10_15 O5_15 1_555 1_555
C10_14 C11_14 1_555 1_555
N1_16 C2_16 1_555 1_555
N3_4 C3_16 1_555 1_555
O2_16 H1_16 1_555 1_555
O3_15 C4_15 1_555 1_555
O7_4 C4_15 1_555 1_555
C1_16 O6_8 1_555 1_555
C2_16 C1_16 1_555 1_555
C3_16 C2_16 1_555 1_555
C4_15 C3_16 1_555 1_555
C5_16 N1_16 1_555 1_555
N3_4 C5_16 1_555 1_555
O2_16 C1_16 1_555 1_555
C8_15 C7_15 1_555 1_555
H3_15 C8_15 1_555 1_555
C9_15 C8_15 1_555 1_555
C10_15 C9_15 1_555 1_555
H4_16 C10_15 1_555 1_555
C12_15 C9_15 1_555 1_555
H6_15 C12_15 1_555 1_555
H7_15 C12_15 1_555 1_555
H8_11 C12_15 1_555 1_555
C10_15 C11_15 1_555 1_555
O5_16 Cd3_8 1_555 1_555
C7_16 C6_16 1_555 1_555
H2_16 C7_16 1_555 1_555
C8_16 C7_16 1_555 1_555
H3_16 C8_16 1_555 1_555
C9_16 C8_16 1_555 1_555
C10_16 C9_16 1_555 1_555
C11_16 C6_16 1_555 1_555
C12_16 C9_16 1_555 1_555
H6_16 C12_16 1_555 1_555
H7_16 C12_16 1_555 1_555
H8_12 C12_16 1_555 1_555
H9_16 O5_16 1_555 1_555
H10_16 O5_16 1_555 1_555
C10_16 C11_16 1_555 1_555
O3_16 C4_16 1_555 1_555
O4_12 C4_16 1_555 1_555

#END
