
###############################################################################
#
# This file contains modified crystal structure data generated from the
# MOF subset of the Cambridge Structural Database (CSD) v543 
# hosted by the Cambridge Crystallographic Data Centre (CCDC).
#
# This work is licensed under the Creative Commons
# Attribution-NonCommercial-ShareAlike 4.0 International License.
# To view a copy of this license, visit
# http://creativecommons.org/licenses/by-nc-sa/4.0/
# or send a letter to
# Creative Commons, PO Box 1866, Mountain View, CA 94042, USA.
#
# CIF created using the CSD Python API on 29 September 2022
# The structure has been converted into the P1 space group
# The structure has a 3D framework
# The original CSD entry OFEHEO is in the tetragonal crystal system
# The framework has been calculated to contain at least 10.0% void space
# The void calculation uses a probe of radius 1.32A, grid spacing 0.4
#
###############################################################################

data_OFEHEO
_chemical_formula_moiety         '(C272 H192 Cd16 N48 O64)n'
_symmetry_cell_setting           triclinic
_symmetry_space_group_name_H-M   'P 1'
_symmetry_Int_Tables_number      1
_space_group_name_Hall           'P 1'
loop_
_symmetry_equiv_pos_site_id
_symmetry_equiv_pos_as_xyz
1 x,y,z
_cell_length_a                   22.143(4)
_cell_length_b                   22.143(4)
_cell_length_c                   16.282(6)
_cell_angle_alpha                90
_cell_angle_beta                 90
_cell_angle_gamma                90
_cell_volume                     7983.27
loop_
_atom_site_label
_atom_site_type_symbol
_atom_site_fract_x
_atom_site_fract_y
_atom_site_fract_z
O9 O 0.01459(7) 0.02940(8) 0.06783(11)
N7 N 0.13314(8) 0.06345(9) 0.04632(12)
C7 C 0.02216(12) 0.33130(11) 0.83974(18)
H2 H 0.0612 0.3267 0.8198
H3 H 0.0224 0.4221 0.8405
N4 N 0.05706(10) 0.10145(9) 0.88070(14)
C18 C 0.01296(12) 0.21873(10) 0.85713(17)
C20 C 0.00175(11) 0.11120(11) 0.85248(17)
C21 C 0.07231(13) 0.20866(12) 0.8805(2)
H15 H 0.0984 0.2410 0.8884
C22 C 0.09231(13) 0.15040(12) 0.8921(2)
H16 H 0.1321 0.1445 0.9086
Cd2 Cd 0.079680(7) 0.011675(7) 0.949745(10)
C29 C 0.11127(16) 0.01699(14) 0.7205(2)
H18 H 0.0744 0.0080 0.7449
C30 C 0.21741(15) 0.00027(14) 0.70617(19)
C31 C 0.1694(2) 0.0768(2) 0.6250(3)
C32 C 0.2203(2) 0.04586(17) 0.6480(2)
H20 H 0.2572 0.0556 0.6243
C33 C 0.1149(2) 0.0622(2) 0.6611(3)
H21 H 0.0801 0.0827 0.6455
C34 C 0.1737(2) 0.1260(2) 0.5589(3)
H22 H 0.1951 0.1105 0.5122
H23 H 0.1949 0.1603 0.5807
H24 H 0.1338 0.1380 0.5426
O12 O 0.01459(7) 0.52940(8) 0.93217(11)
O6 O 0.19742(11) 0.76704(9) 0.95026(12)
O7 O 0.22060(8) 0.76459(7) 0.81783(11)
C23 C 0.20008(11) 0.79090(10) 0.88044(15)
N5 N 0.13545(8) 0.94448(8) 0.88090(12)
C25 C 0.14725(10) 0.89159(9) 0.92167(14)
C26 C 0.16035(10) 0.93797(10) 0.80641(14)
C27 C 0.16228(12) 0.98571(10) 0.74302(15)
N6 N 0.18655(9) 0.88314(8) 0.79632(12)
C28 C 0.17833(10) 0.85389(10) 0.86922(14)
H19 H 0.2522 0.9793 0.7207
Cd3 Cd 0.238325(7) 0.829680(7) 0.699745(10)
Cd6 Cd 0.261675(7) 0.670320(7) 0.800255(10)
O1 O 0.89667(10) 0.57320(8) 0.04353(11)
O4 O 0.85396(11) 0.66334(9) 0.04794(11)
H1 H 0.8362 0.6861 0.0164
C2 C 0.86988(11) 0.61444(11) 0.00872(15)
O10 O 0.98541(7) 0.47060(8) 0.06783(11)
N8 N 0.86686(8) 0.43655(9) 0.04632(12)
Cd1 Cd 0.920320(7) 0.488325(7) 0.949745(10)
O2 O 0.80258(11) 0.73296(9) 0.95026(12)
O3 O 0.77940(8) 0.73541(7) 0.81783(11)
N1 N 0.94294(10) 0.39855(9) 0.88070(14)
C1 C 0.79992(11) 0.70910(10) 0.88044(15)
N2 N 0.86455(8) 0.55552(8) 0.88090(12)
C3 C 0.98704(12) 0.28127(10) 0.85713(17)
C4 C 0.85275(10) 0.60841(9) 0.92167(14)
C5 C 0.83965(10) 0.56203(10) 0.80641(14)
C6 C 0.83772(12) 0.51429(10) 0.74302(15)
C8 C 0.99825(11) 0.38880(11) 0.85248(17)
C9 C 0.92769(13) 0.29134(12) 0.8805(2)
H4 H 0.9016 0.2590 0.8884
C10 C 0.90769(13) 0.34960(12) 0.8921(2)
H5 H 0.8679 0.3555 0.9086
N3 N 0.81345(9) 0.61686(8) 0.79632(12)
C11 C 0.82167(10) 0.64611(10) 0.86922(14)
C12 C 0.88873(16) 0.48301(14) 0.7205(2)
H6 H 0.9256 0.4920 0.7449
C13 C 0.78259(15) 0.49973(14) 0.70617(19)
H7 H 0.7478 0.5207 0.7207
C14 C 0.8306(2) 0.4232(2) 0.6250(3)
C15 C 0.7797(2) 0.45414(17) 0.6480(2)
H8 H 0.7428 0.4444 0.6243
C16 C 0.8851(2) 0.4378(2) 0.6611(3)
H9 H 0.9199 0.4173 0.6455
C17 C 0.8263(2) 0.3740(2) 0.5589(3)
H10 H 0.8049 0.3895 0.5122
H11 H 0.8051 0.3397 0.5807
H12 H 0.8662 0.3620 0.5426
C19 C 0.97784(12) 0.16870(11) 0.83974(18)
H13 H 0.9388 0.1733 0.8198
H14 H 0.9776 0.0779 0.8405
Cd4 Cd 0.761675(7) 0.670320(7) 0.699745(10)
Cd5 Cd 0.738325(7) 0.829680(7) 0.800255(10)
O11 O 0.98541(7) 0.97060(8) 0.93217(11)
O5 O 0.39667(10) 0.07320(8) 0.54353(11)
O6_2 O 0.30258(11) 0.23296(9) 0.45026(12)
O7_2 O 0.27940(8) 0.23541(7) 0.31783(11)
C23_2 C 0.29992(11) 0.20910(10) 0.38044(15)
O8 O 0.35396(11) 0.16334(9) 0.54794(11)
H17 H 0.3362 0.1861 0.5164
C24 C 0.36988(11) 0.11444(11) 0.50872(15)
N5_2 N 0.36455(8) 0.05552(8) 0.38090(12)
C25_2 C 0.35275(10) 0.10841(9) 0.42167(14)
C26_2 C 0.33965(10) 0.06203(10) 0.30641(14)
C27_2 C 0.33772(12) 0.01429(10) 0.24302(15)
N6_2 N 0.31345(9) 0.11686(8) 0.29632(12)
C28_2 C 0.32167(10) 0.14611(10) 0.36922(14)
H19_2 H 0.2478 0.0207 0.2207
Cd3_2 Cd 0.261675(7) 0.170320(7) 0.199745(10)
Cd6_2 Cd 0.238325(7) 0.329680(7) 0.300255(10)
O11_2 O 0.51459(7) 0.02940(8) 0.43217(11)
Cd1_2 Cd 0.579680(7) 0.511675(7) 0.449745(10)
O1_2 O 0.60333(10) 0.42680(8) 0.54353(11)
O2_2 O 0.69742(11) 0.26704(9) 0.45026(12)
O3_2 O 0.72060(8) 0.26459(7) 0.31783(11)
N1_2 N 0.55706(10) 0.60145(9) 0.38070(14)
C1_2 C 0.70008(11) 0.29090(10) 0.38044(15)
O4_2 O 0.64604(11) 0.33666(9) 0.54794(11)
H1_2 H 0.6638 0.3139 0.5164
C2_2 C 0.63012(11) 0.38556(11) 0.50872(15)
N2_2 N 0.63545(8) 0.44448(8) 0.38090(12)
C3_2 C 0.51296(12) 0.71873(10) 0.35713(17)
C4_2 C 0.64725(10) 0.39159(9) 0.42167(14)
C5_2 C 0.66035(10) 0.43797(10) 0.30641(14)
C6_2 C 0.66228(12) 0.48571(10) 0.24302(15)
C7_2 C 0.47784(12) 0.66870(11) 0.33974(18)
H2_2 H 0.4388 0.6733 0.3198
C8_2 C 0.50175(11) 0.61120(11) 0.35248(17)
H3_2 H 0.4776 0.5779 0.3405
C9_2 C 0.57231(13) 0.70866(12) 0.3805(2)
H4_2 H 0.5984 0.7410 0.3884
C10_2 C 0.59231(13) 0.65040(12) 0.3921(2)
H5_2 H 0.6321 0.6445 0.4086
N3_2 N 0.68655(9) 0.38314(8) 0.29632(12)
C11_2 C 0.67833(10) 0.35389(10) 0.36922(14)
C12_2 C 0.61127(16) 0.51699(14) 0.2205(2)
H6_2 H 0.5744 0.5080 0.2449
C13_2 C 0.71741(15) 0.50027(14) 0.20617(19)
H7_2 H 0.7522 0.4793 0.2207
C14_2 C 0.6694(2) 0.5768(2) 0.1250(3)
C15_2 C 0.7203(2) 0.54586(17) 0.1480(2)
H8_2 H 0.7572 0.5556 0.1243
C16_2 C 0.6149(2) 0.5622(2) 0.1611(3)
H9_2 H 0.5801 0.5827 0.1455
C17_2 C 0.6737(2) 0.6260(2) 0.0589(3)
H10_2 H 0.6951 0.6105 0.0122
H11_2 H 0.6949 0.6603 0.0807
H12_2 H 0.6338 0.6380 0.0426
N4_2 N 0.44294(10) 0.89855(9) 0.38070(14)
C18_2 C 0.48704(12) 0.78127(10) 0.35713(17)
C19_2 C 0.52216(12) 0.83130(11) 0.33974(18)
H13_2 H 0.5612 0.8267 0.3198
C20_2 C 0.49825(11) 0.88880(11) 0.35248(17)
H14_2 H 0.5224 0.9221 0.3405
C21_2 C 0.42769(13) 0.79134(12) 0.3805(2)
H15_2 H 0.4016 0.7590 0.3884
C22_2 C 0.40769(13) 0.84960(12) 0.3921(2)
H16_2 H 0.3679 0.8555 0.4086
Cd2_2 Cd 0.420320(7) 0.988325(7) 0.449745(10)
C29_2 C 0.38873(16) 0.98301(14) 0.2205(2)
H18_2 H 0.4256 0.9920 0.2449
C30_2 C 0.28259(15) 0.99973(14) 0.20617(19)
C31_2 C 0.3306(2) 0.9232(2) 0.1250(3)
C32_2 C 0.2797(2) 0.95414(17) 0.1480(2)
H20_2 H 0.2428 0.9444 0.1243
C33_2 C 0.3851(2) 0.9378(2) 0.1611(3)
H21_2 H 0.4199 0.9173 0.1455
C34_2 C 0.3263(2) 0.8740(2) 0.0589(3)
H22_2 H 0.3049 0.8895 0.0122
H23_2 H 0.3051 0.8397 0.0807
H24_2 H 0.3662 0.8620 0.0426
Cd4_2 Cd 0.738325(7) 0.329680(7) 0.199745(10)
Cd5_2 Cd 0.761675(7) 0.170320(7) 0.300255(10)
O9_2 O 0.48541(7) 0.97060(8) 0.56783(11)
O10_2 O 0.51459(7) 0.52940(8) 0.56783(11)
O12_2 O 0.48541(7) 0.47060(8) 0.43217(11)
N7_2 N 0.36686(8) 0.93655(9) 0.54632(12)
N8_2 N 0.63314(8) 0.56345(9) 0.54632(12)
Cd6_3 Cd 0.079680(7) 0.511675(7) 0.050255(10)
O1_3 O 0.17680(8) 0.14667(10) 0.29353(11)
O2_3 O 0.01704(9) 0.05258(11) 0.20026(12)
N1_3 N 0.35145(9) 0.19294(10) 0.13070(14)
C1_3 C 0.04090(10) 0.04992(11) 0.13044(15)
O4_3 O 0.08666(9) 0.10396(11) 0.29794(11)
H1_3 H 0.0639 0.0862 0.2664
C2_3 C 0.13556(11) 0.11988(11) 0.25872(15)
N2_3 N 0.19448(8) 0.11455(8) 0.13090(12)
C3_3 C 0.46873(10) 0.23704(12) 0.10713(17)
C4_3 C 0.14159(9) 0.10275(10) 0.17167(14)
C5_3 C 0.18797(10) 0.08965(10) 0.05641(14)
C7_3 C 0.41870(11) 0.27216(12) 0.08974(18)
H2_3 H 0.4233 0.3112 0.0698
C8_3 C 0.36120(11) 0.24825(11) 0.10248(17)
H3_3 H 0.3279 0.2724 0.0905
C9_3 C 0.45866(12) 0.17769(13) 0.1305(2)
H4_3 H 0.4910 0.1516 0.1384
C10_3 C 0.40040(12) 0.15769(13) 0.1421(2)
H5_3 H 0.3945 0.1179 0.1586
C11_3 C 0.10389(10) 0.07167(10) 0.11922(14)
N4_3 N 0.64855(9) 0.30706(10) 0.13070(14)
C18_3 C 0.53127(10) 0.26296(12) 0.10713(17)
C19_3 C 0.58130(11) 0.22784(12) 0.08974(18)
H13_3 H 0.5767 0.1888 0.0698
C20_3 C 0.63880(11) 0.25175(11) 0.10248(17)
H14_3 H 0.6721 0.2276 0.0905
C21_3 C 0.54134(12) 0.32231(13) 0.1305(2)
H15_3 H 0.5090 0.3484 0.1384
C22_3 C 0.59960(12) 0.34231(13) 0.1421(2)
H16_3 H 0.6055 0.3821 0.1586
O5_2 O 0.82320(8) 0.35333(10) 0.29353(11)
O6_3 O 0.98296(9) 0.44742(11) 0.20026(12)
C23_3 C 0.95910(10) 0.45008(11) 0.13044(15)
O8_2 O 0.91334(9) 0.39604(11) 0.29794(11)
H17_2 H 0.9361 0.4138 0.2664
C24_2 C 0.86444(11) 0.38012(11) 0.25872(15)
N5_3 N 0.80552(8) 0.38545(8) 0.13090(12)
C25_3 C 0.85841(9) 0.39725(10) 0.17167(14)
C26_3 C 0.81203(10) 0.41035(10) 0.05641(14)
C28_3 C 0.89611(10) 0.42833(10) 0.11922(14)
O11_3 O 0.77940(8) 0.23541(7) 0.18217(11)
O12_3 O 0.22060(8) 0.26459(7) 0.18217(11)
C6_3 C 0.23571(10) 0.08772(12) 0.99302(15)
C12_3 C 0.26699(14) 0.13873(16) 0.9705(2)
H6_3 H 0.2580 0.1756 0.9949
C13_3 C 0.25027(14) 0.03259(15) 0.95617(19)
C14_3 C 0.3268(2) 0.0806(2) 0.8750(3)
C15_3 C 0.29586(17) 0.0297(2) 0.8980(2)
C16_3 C 0.3122(2) 0.1351(2) 0.9111(3)
H9_3 H 0.3327 0.1699 0.8955
C17_3 C 0.3760(2) 0.0763(2) 0.8089(3)
H10_3 H 0.3605 0.0549 0.7622
H11_3 H 0.4103 0.0551 0.8307
H12_3 H 0.3880 0.1162 0.7926
C27_3 C 0.76429(10) 0.41228(12) 0.99302(15)
C29_3 C 0.73301(14) 0.36127(16) 0.9705(2)
H18_3 H 0.7420 0.3244 0.9949
C30_3 C 0.74973(14) 0.46741(15) 0.95617(19)
H19_3 H 0.7707 0.5022 0.9707
C31_3 C 0.6732(2) 0.4194(2) 0.8750(3)
C32_3 C 0.70414(17) 0.4703(2) 0.8980(2)
H20_3 H 0.6944 0.5072 0.8743
C33_3 C 0.6878(2) 0.3649(2) 0.9111(3)
H21_3 H 0.6673 0.3301 0.8955
C34_3 C 0.6240(2) 0.4237(2) 0.8089(3)
H22_3 H 0.6395 0.4451 0.7622
H23_3 H 0.5897 0.4449 0.8307
H24_3 H 0.6120 0.3838 0.7926
Cd5_3 Cd 0.920320(7) 0.988325(7) 0.050255(10)
H7_3 H 0.2707 0.0022 0.4707
H8_3 H 0.1944 0.0072 0.3743
Cd5_4 Cd 0.579680(7) 0.011675(7) 0.550255(10)
O1_4 O 0.32320(8) 0.85333(10) 0.79353(11)
O2_4 O 0.48296(9) 0.94742(11) 0.70026(12)
N1_4 N 0.14855(9) 0.80706(10) 0.63070(14)
C1_4 C 0.45910(10) 0.95008(11) 0.63044(15)
O4_4 O 0.41334(9) 0.89604(11) 0.79794(11)
H1_4 H 0.4361 0.9138 0.7664
C2_4 C 0.36444(11) 0.88012(11) 0.75872(15)
N2_4 N 0.30552(8) 0.88545(8) 0.63090(12)
C3_4 C 0.03127(10) 0.76296(12) 0.60713(17)
C4_4 C 0.35841(9) 0.89725(10) 0.67167(14)
C5_4 C 0.31203(10) 0.91035(10) 0.55641(14)
C6_4 C 0.26429(10) 0.91228(12) 0.49302(15)
C7_4 C 0.08130(11) 0.72784(12) 0.58974(18)
H2_4 H 0.0767 0.6888 0.5698
C8_4 C 0.13880(11) 0.75175(11) 0.60248(17)
H3_4 H 0.1721 0.7276 0.5905
C9_4 C 0.04134(12) 0.82231(13) 0.6305(2)
H4_4 H 0.0090 0.8484 0.6384
C10_4 C 0.09960(12) 0.84231(13) 0.6421(2)
H5_4 H 0.1055 0.8821 0.6586
C11_4 C 0.39611(10) 0.92833(10) 0.61922(14)
C12_4 C 0.23301(14) 0.86127(16) 0.4705(2)
H6_4 H 0.2420 0.8244 0.4949
C13_4 C 0.24973(14) 0.96741(15) 0.45617(19)
C14_4 C 0.1732(2) 0.9194(2) 0.3750(3)
C15_4 C 0.20414(17) 0.9703(2) 0.3980(2)
C16_4 C 0.1878(2) 0.8649(2) 0.4111(3)
H9_4 H 0.1673 0.8301 0.3955
C17_4 C 0.1240(2) 0.9237(2) 0.3089(3)
H10_4 H 0.1395 0.9451 0.2622
H11_4 H 0.0897 0.9449 0.3307
H12_4 H 0.1120 0.8838 0.2926
O12_4 O 0.27940(8) 0.73541(7) 0.68217(11)
N4_4 N 0.85145(9) 0.69294(10) 0.63070(14)
C18_4 C 0.96873(10) 0.73704(12) 0.60713(17)
C19_4 C 0.91870(11) 0.77216(12) 0.58974(18)
H13_4 H 0.9233 0.8112 0.5698
C20_4 C 0.86120(11) 0.74825(11) 0.60248(17)
H14_4 H 0.8279 0.7724 0.5905
C21_4 C 0.95866(12) 0.67769(13) 0.6305(2)
H15_4 H 0.9910 0.6516 0.6384
C22_4 C 0.90040(12) 0.65769(13) 0.6421(2)
H16_4 H 0.8945 0.6179 0.6586
O5_3 O 0.67680(8) 0.64667(10) 0.79353(11)
O6_4 O 0.51704(9) 0.55258(11) 0.70026(12)
C23_4 C 0.54090(10) 0.54992(11) 0.63044(15)
O8_3 O 0.58666(9) 0.60396(11) 0.79794(11)
H17_3 H 0.5639 0.5862 0.7664
C24_3 C 0.63556(11) 0.61988(11) 0.75872(15)
N5_4 N 0.69448(8) 0.61455(8) 0.63090(12)
C25_4 C 0.64159(9) 0.60275(10) 0.67167(14)
C26_4 C 0.68797(10) 0.58965(10) 0.55641(14)
C27_4 C 0.73571(10) 0.58772(12) 0.49302(15)
C28_4 C 0.60389(10) 0.57167(10) 0.61922(14)
C29_4 C 0.76699(14) 0.63873(16) 0.4705(2)
H18_4 H 0.7580 0.6756 0.4949
C30_4 C 0.75027(14) 0.53259(15) 0.45617(19)
H19_4 H 0.7293 0.4978 0.4707
C31_4 C 0.8268(2) 0.5806(2) 0.3750(3)
C32_4 C 0.79586(17) 0.5297(2) 0.3980(2)
H20_4 H 0.8056 0.4928 0.3743
C33_4 C 0.8122(2) 0.6351(2) 0.4111(3)
H21_4 H 0.8327 0.6699 0.3955
C34_4 C 0.8760(2) 0.5763(2) 0.3089(3)
H22_4 H 0.8605 0.5549 0.2622
H23_4 H 0.9103 0.5551 0.3307
H24_4 H 0.8880 0.6162 0.2926
Cd6_4 Cd 0.420320(7) 0.488325(7) 0.550255(10)
O11_4 O 0.72060(8) 0.76459(7) 0.68217(11)
O2_5 O 0.19742(11) 0.26704(9) 0.04974(12)
N1_5 N 0.05706(10) 0.60145(9) 0.11930(14)
C1_5 C 0.20008(11) 0.29090(10) 0.11956(15)
N2_5 N 0.13545(8) 0.44448(8) 0.11910(12)
C3_5 C 0.01296(12) 0.71873(10) 0.14287(17)
C4_5 C 0.14725(10) 0.39159(9) 0.07833(14)
C5_5 C 0.16035(10) 0.43797(10) 0.19359(14)
C6_5 C 0.16228(12) 0.48571(10) 0.25698(15)
C8_5 C 0.00175(11) 0.61120(11) 0.14752(17)
C9_5 C 0.07231(13) 0.70866(12) 0.1195(2)
H4_5 H 0.0984 0.7410 0.1116
C10_5 C 0.09231(13) 0.65040(12) 0.1079(2)
H5_5 H 0.1321 0.6445 0.0914
N3_3 N 0.18655(9) 0.38314(8) 0.20368(12)
C11_5 C 0.17833(10) 0.35389(10) 0.13078(14)
C12_5 C 0.11127(16) 0.51699(14) 0.2795(2)
H6_5 H 0.0744 0.5080 0.2551
C13_5 C 0.21741(15) 0.50027(14) 0.29383(19)
H7_4 H 0.2522 0.4793 0.2793
C14_5 C 0.1694(2) 0.5768(2) 0.3750(3)
C15_5 C 0.2203(2) 0.54586(17) 0.3520(2)
H8_4 H 0.2572 0.5556 0.3757
C16_5 C 0.1149(2) 0.5622(2) 0.3389(3)
H9_5 H 0.0801 0.5827 0.3545
C17_5 C 0.1737(2) 0.6260(2) 0.4411(3)
H10_5 H 0.1951 0.6105 0.4878
H11_5 H 0.1949 0.6603 0.4193
H12_5 H 0.1338 0.6380 0.4574
C19_5 C 0.02216(12) 0.83130(11) 0.16026(18)
H13_5 H 0.0612 0.8267 0.1802
H14_5 H 0.0224 0.9221 0.1595
O1_5 O 0.10333(10) 0.42680(8) 0.95647(11)
O4_5 O 0.14604(11) 0.33666(9) 0.95206(11)
H1_5 H 0.1638 0.3139 0.9836
C2_5 C 0.13012(11) 0.38556(11) 0.99128(15)
N8_3 N 0.13314(8) 0.56345(9) 0.95368(12)
O6_5 O 0.80258(11) 0.23296(9) 0.04974(12)
C23_5 C 0.79992(11) 0.20910(10) 0.11956(15)
N5_5 N 0.86455(8) 0.05552(8) 0.11910(12)
C25_5 C 0.85275(10) 0.10841(9) 0.07833(14)
C26_5 C 0.83965(10) 0.06203(10) 0.19359(14)
C27_5 C 0.83772(12) 0.01429(10) 0.25698(15)
N6_3 N 0.81345(9) 0.11686(8) 0.20368(12)
C28_5 C 0.82167(10) 0.14611(10) 0.13078(14)
H19_5 H 0.7478 0.0207 0.2793
C7_5 C 0.97784(12) 0.66870(11) 0.16026(18)
H2_5 H 0.9388 0.6733 0.1802
H3_5 H 0.9776 0.5779 0.1595
N4_5 N 0.94294(10) 0.89855(9) 0.11930(14)
C18_5 C 0.98704(12) 0.78127(10) 0.14287(17)
C20_5 C 0.99825(11) 0.88880(11) 0.14752(17)
C21_5 C 0.92769(13) 0.79134(12) 0.1195(2)
H15_5 H 0.9016 0.7590 0.1116
C22_5 C 0.90769(13) 0.84960(12) 0.1079(2)
H16_5 H 0.8679 0.8555 0.0914
C29_5 C 0.88873(16) 0.98301(14) 0.2795(2)
H18_5 H 0.9256 0.9920 0.2551
C30_5 C 0.78259(15) 0.99973(14) 0.29383(19)
C31_5 C 0.8306(2) 0.9232(2) 0.3750(3)
C32_5 C 0.7797(2) 0.95414(17) 0.3520(2)
H20_5 H 0.7428 0.9444 0.3757
C33_5 C 0.8851(2) 0.9378(2) 0.3389(3)
H21_5 H 0.9199 0.9173 0.3545
C34_5 C 0.8263(2) 0.8740(2) 0.4411(3)
H22_5 H 0.8049 0.8895 0.4878
H23_5 H 0.8051 0.8397 0.4193
H24_5 H 0.8662 0.8620 0.4574
N7_3 N 0.86686(8) 0.93655(9) 0.95368(12)
O1_6 O 0.39667(10) 0.57320(8) 0.45647(11)
O2_6 O 0.30258(11) 0.73296(9) 0.54974(12)
N1_6 N 0.44294(10) 0.39855(9) 0.61930(14)
C1_6 C 0.29992(11) 0.70910(10) 0.61956(15)
O4_6 O 0.35396(11) 0.66334(9) 0.45206(11)
H1_6 H 0.3362 0.6861 0.4836
C2_6 C 0.36988(11) 0.61444(11) 0.49128(15)
N2_6 N 0.36455(8) 0.55552(8) 0.61910(12)
C3_6 C 0.48704(12) 0.28127(10) 0.64287(17)
C4_6 C 0.35275(10) 0.60841(9) 0.57833(14)
C5_6 C 0.33965(10) 0.56203(10) 0.69359(14)
C6_6 C 0.33772(12) 0.51429(10) 0.75698(15)
C7_6 C 0.52216(12) 0.33130(11) 0.66026(18)
H2_6 H 0.5612 0.3267 0.6802
C8_6 C 0.49825(11) 0.38880(11) 0.64752(17)
H3_6 H 0.5224 0.4221 0.6595
C9_6 C 0.42769(13) 0.29134(12) 0.6195(2)
H4_6 H 0.4016 0.2590 0.6116
C10_6 C 0.40769(13) 0.34960(12) 0.6079(2)
H5_6 H 0.3679 0.3555 0.5914
N3_4 N 0.31345(9) 0.61686(8) 0.70368(12)
C11_6 C 0.32167(10) 0.64611(10) 0.63078(14)
C12_6 C 0.38873(16) 0.48301(14) 0.7795(2)
H6_6 H 0.4256 0.4920 0.7551
C13_6 C 0.28259(15) 0.49973(14) 0.79383(19)
H7_5 H 0.2478 0.5207 0.7793
C14_6 C 0.3306(2) 0.4232(2) 0.8750(3)
C15_6 C 0.2797(2) 0.45414(17) 0.8520(2)
H8_5 H 0.2428 0.4444 0.8757
C16_6 C 0.3851(2) 0.4378(2) 0.8389(3)
H9_6 H 0.4199 0.4173 0.8545
C17_6 C 0.3263(2) 0.3740(2) 0.9411(3)
H10_6 H 0.3049 0.3895 0.9878
H11_6 H 0.3051 0.3397 0.9193
H12_6 H 0.3662 0.3620 0.9574
N4_6 N 0.55706(10) 0.10145(9) 0.61930(14)
C18_6 C 0.51296(12) 0.21873(10) 0.64287(17)
C19_6 C 0.47784(12) 0.16870(11) 0.66026(18)
H13_6 H 0.4388 0.1733 0.6802
C20_6 C 0.50175(11) 0.11120(11) 0.64752(17)
H14_6 H 0.4776 0.0779 0.6595
C21_6 C 0.57231(13) 0.20866(12) 0.6195(2)
H15_6 H 0.5984 0.2410 0.6116
C22_6 C 0.59231(13) 0.15040(12) 0.6079(2)
H16_6 H 0.6321 0.1445 0.5914
C29_6 C 0.61127(16) 0.01699(14) 0.7795(2)
H18_6 H 0.5744 0.0080 0.7551
C30_6 C 0.71741(15) 0.00027(14) 0.79383(19)
C31_6 C 0.6694(2) 0.0768(2) 0.8750(3)
C32_6 C 0.7203(2) 0.04586(17) 0.8520(2)
H20_6 H 0.7572 0.0556 0.8757
C33_6 C 0.6149(2) 0.0622(2) 0.8389(3)
H21_6 H 0.5801 0.0827 0.8545
C34_6 C 0.6737(2) 0.1260(2) 0.9411(3)
H22_6 H 0.6951 0.1105 0.9878
H23_6 H 0.6949 0.1603 0.9193
H24_6 H 0.6338 0.1380 0.9574
N7_4 N 0.63314(8) 0.06345(9) 0.45368(12)
N8_4 N 0.36686(8) 0.43655(9) 0.45368(12)
O5_4 O 0.60333(10) 0.92680(8) 0.45647(11)
O6_6 O 0.69742(11) 0.76704(9) 0.54974(12)
C23_6 C 0.70008(11) 0.79090(10) 0.61956(15)
O8_4 O 0.64604(11) 0.83666(9) 0.45206(11)
H17_4 H 0.6638 0.8139 0.4836
C24_4 C 0.63012(11) 0.88556(11) 0.49128(15)
N5_6 N 0.63545(8) 0.94448(8) 0.61910(12)
C25_6 C 0.64725(10) 0.89159(9) 0.57833(14)
C26_6 C 0.66035(10) 0.93797(10) 0.69359(14)
C27_6 C 0.66228(12) 0.98571(10) 0.75698(15)
N6_4 N 0.68655(9) 0.88314(8) 0.70368(12)
C28_6 C 0.67833(10) 0.85389(10) 0.63078(14)
H19_6 H 0.7522 0.9793 0.7793
C6_7 C 0.76429(10) 0.91228(12) 0.00698(15)
C12_7 C 0.73301(14) 0.86127(16) 0.0295(2)
H6_7 H 0.7420 0.8244 0.0051
C13_7 C 0.74973(14) 0.96741(15) 0.04383(19)
C14_7 C 0.6732(2) 0.9194(2) 0.1250(3)
C15_7 C 0.70414(17) 0.9703(2) 0.1020(2)
C16_7 C 0.6878(2) 0.8649(2) 0.0889(3)
H9_7 H 0.6673 0.8301 0.1045
C17_7 C 0.6240(2) 0.9237(2) 0.1911(3)
H10_7 H 0.6395 0.9451 0.2378
H11_7 H 0.5897 0.9449 0.1693
H12_7 H 0.6120 0.8838 0.2074
C27_7 C 0.23571(10) 0.58772(12) 0.00698(15)
C29_7 C 0.26699(14) 0.63873(16) 0.0295(2)
H18_7 H 0.2580 0.6756 0.0051
C30_7 C 0.25027(14) 0.53259(15) 0.04383(19)
H19_7 H 0.2293 0.4978 0.0293
C31_7 C 0.3268(2) 0.5806(2) 0.1250(3)
C32_7 C 0.29586(17) 0.5297(2) 0.1020(2)
H20_7 H 0.3056 0.4928 0.1257
C33_7 C 0.3122(2) 0.6351(2) 0.0889(3)
H21_7 H 0.3327 0.6699 0.1045
C34_7 C 0.3760(2) 0.5763(2) 0.1911(3)
H22_7 H 0.3605 0.5549 0.2378
H23_7 H 0.4103 0.5551 0.1693
H24_7 H 0.3880 0.6162 0.2074
O1_7 O 0.82320(8) 0.85333(10) 0.70647(11)
O2_7 O 0.98296(9) 0.94742(11) 0.79974(12)
N1_7 N 0.64855(9) 0.80706(10) 0.86930(14)
C1_7 C 0.95910(10) 0.95008(11) 0.86956(15)
O4_7 O 0.91334(9) 0.89604(11) 0.70206(11)
H1_7 H 0.9361 0.9138 0.7336
C2_7 C 0.86444(11) 0.88012(11) 0.74128(15)
N2_7 N 0.80552(8) 0.88545(8) 0.86910(12)
C3_7 C 0.53127(10) 0.76296(12) 0.89287(17)
C4_7 C 0.85841(9) 0.89725(10) 0.82833(14)
C5_7 C 0.81203(10) 0.91035(10) 0.94359(14)
C7_7 C 0.58130(11) 0.72784(12) 0.91026(18)
H2_7 H 0.5767 0.6888 0.9302
C8_7 C 0.63880(11) 0.75175(11) 0.89752(17)
H3_7 H 0.6721 0.7276 0.9095
C9_7 C 0.54134(12) 0.82231(13) 0.8695(2)
H4_7 H 0.5090 0.8484 0.8616
C10_7 C 0.59960(12) 0.84231(13) 0.8579(2)
H5_7 H 0.6055 0.8821 0.8414
C11_7 C 0.89611(10) 0.92833(10) 0.88078(14)
N4_7 N 0.35145(9) 0.69294(10) 0.86930(14)
C18_7 C 0.46873(10) 0.73704(12) 0.89287(17)
C19_7 C 0.41870(11) 0.77216(12) 0.91026(18)
H13_7 H 0.4233 0.8112 0.9302
C20_7 C 0.36120(11) 0.74825(11) 0.89752(17)
H14_7 H 0.3279 0.7724 0.9095
C21_7 C 0.45866(12) 0.67769(13) 0.8695(2)
H15_7 H 0.4910 0.6516 0.8616
C22_7 C 0.40040(12) 0.65769(13) 0.8579(2)
H16_7 H 0.3945 0.6179 0.8414
O5_5 O 0.17680(8) 0.64667(10) 0.70647(11)
O6_7 O 0.01704(9) 0.55258(11) 0.79974(12)
C23_7 C 0.04090(10) 0.54992(11) 0.86956(15)
O8_5 O 0.08666(9) 0.60396(11) 0.70206(11)
H17_5 H 0.0639 0.5862 0.7336
C24_5 C 0.13556(11) 0.61988(11) 0.74128(15)
N5_7 N 0.19448(8) 0.61455(8) 0.86910(12)
C25_7 C 0.14159(9) 0.60275(10) 0.82833(14)
C26_7 C 0.18797(10) 0.58965(10) 0.94359(14)
C28_7 C 0.10389(10) 0.57167(10) 0.88078(14)
N4_8 N 0.14855(9) 0.30706(10) 0.36930(14)
C18_8 C 0.03127(10) 0.26296(12) 0.39287(17)
C19_8 C 0.08130(11) 0.22784(12) 0.41026(18)
H13_8 H 0.0767 0.1888 0.4302
C20_8 C 0.13880(11) 0.25175(11) 0.39752(17)
H14_8 H 0.1721 0.2276 0.4095
C21_8 C 0.04134(12) 0.32231(13) 0.3695(2)
H15_8 H 0.0090 0.3484 0.3616
C22_8 C 0.09960(12) 0.34231(13) 0.3579(2)
H16_8 H 0.1055 0.3821 0.3414
O5_6 O 0.32320(8) 0.35333(10) 0.20647(11)
O6_8 O 0.48296(9) 0.44742(11) 0.29974(12)
C23_8 C 0.45910(10) 0.45008(11) 0.36956(15)
O8_6 O 0.41334(9) 0.39604(11) 0.20206(11)
H17_6 H 0.4361 0.4138 0.2336
C24_6 C 0.36444(11) 0.38012(11) 0.24128(15)
N5_8 N 0.30552(8) 0.38545(8) 0.36910(12)
C25_8 C 0.35841(9) 0.39725(10) 0.32833(14)
C26_8 C 0.31203(10) 0.41035(10) 0.44359(14)
C27_8 C 0.26429(10) 0.41228(12) 0.50698(15)
C28_8 C 0.39611(10) 0.42833(10) 0.38078(14)
C29_8 C 0.23301(14) 0.36127(16) 0.5295(2)
H18_8 H 0.2420 0.3244 0.5051
C30_8 C 0.24973(14) 0.46741(15) 0.54383(19)
H19_8 H 0.2707 0.5022 0.5293
C31_8 C 0.1732(2) 0.4194(2) 0.6250(3)
C32_8 C 0.20414(17) 0.4703(2) 0.6020(2)
H20_8 H 0.1944 0.5072 0.6257
C33_8 C 0.1878(2) 0.3649(2) 0.5889(3)
H21_8 H 0.1673 0.3301 0.6045
C34_8 C 0.1240(2) 0.4237(2) 0.6911(3)
H22_8 H 0.1395 0.4451 0.7378
H23_8 H 0.0897 0.4449 0.6693
H24_8 H 0.1120 0.3838 0.7074
O1_8 O 0.67680(8) 0.14667(10) 0.20647(11)
O2_8 O 0.51704(9) 0.05258(11) 0.29974(12)
N1_8 N 0.85145(9) 0.19294(10) 0.36930(14)
C1_8 C 0.54090(10) 0.04992(11) 0.36956(15)
O4_8 O 0.58666(9) 0.10396(11) 0.20206(11)
H1_8 H 0.5639 0.0862 0.2336
C2_8 C 0.63556(11) 0.11988(11) 0.24128(15)
N2_8 N 0.69448(8) 0.11455(8) 0.36910(12)
C3_8 C 0.96873(10) 0.23704(12) 0.39287(17)
C4_8 C 0.64159(9) 0.10275(10) 0.32833(14)
C5_8 C 0.68797(10) 0.08965(10) 0.44359(14)
C6_8 C 0.73571(10) 0.08772(12) 0.50698(15)
C7_8 C 0.91870(11) 0.27216(12) 0.41026(18)
H2_8 H 0.9233 0.3112 0.4302
C8_8 C 0.86120(11) 0.24825(11) 0.39752(17)
H3_8 H 0.8279 0.2724 0.4095
C9_8 C 0.95866(12) 0.17769(13) 0.3695(2)
H4_8 H 0.9910 0.1516 0.3616
C10_8 C 0.90040(12) 0.15769(13) 0.3579(2)
H5_8 H 0.8945 0.1179 0.3414
C11_8 C 0.60389(10) 0.07167(10) 0.38078(14)
C12_8 C 0.76699(14) 0.13873(16) 0.5295(2)
H6_8 H 0.7580 0.1756 0.5051
C13_8 C 0.75027(14) 0.03259(15) 0.54383(19)
C14_8 C 0.8268(2) 0.0806(2) 0.6250(3)
C15_8 C 0.79586(17) 0.0297(2) 0.6020(2)
C16_8 C 0.8122(2) 0.1351(2) 0.5889(3)
H9_8 H 0.8327 0.1699 0.6045
C17_8 C 0.8760(2) 0.0763(2) 0.6911(3)
H10_8 H 0.8605 0.0549 0.7378
H11_8 H 0.9103 0.0551 0.6693
H12_8 H 0.8880 0.1162 0.7074
H7_6 H 0.7293 0.9978 0.5293
H8_6 H 0.8056 0.9928 0.6257
O5_7 O 0.10333(10) 0.92680(8) 0.04353(11)
O8_7 O 0.14604(11) 0.83666(9) 0.04794(11)
H17_7 H 0.1638 0.8139 0.0164
C24_7 C 0.13012(11) 0.88556(11) 0.00872(15)
H7_7 H 0.2293 0.9978 0.9707
H8_7 H 0.3056 0.9928 0.8743
O5_8 O 0.89667(10) 0.07320(8) 0.95647(11)
O8_8 O 0.85396(11) 0.16334(9) 0.95206(11)
H17_8 H 0.8362 0.1861 0.9836
C24_8 C 0.86988(11) 0.11444(11) 0.99128(15)
H7_8 H 0.7707 0.0022 0.0293
H8_8 H 0.6944 0.0072 0.1257
loop_
_geom_bond_atom_site_label_1
_geom_bond_atom_site_label_2
_geom_bond_site_symmetry_1
_geom_bond_site_symmetry_2
C7 H2 1_555 1_555
N4 C20 1_555 1_555
C21 C18 1_555 1_555
H15 C21 1_555 1_555
C22 N4 1_555 1_555
H16 C22 1_555 1_555
Cd2 N4 1_555 1_555
H18 C29 1_555 1_555
C31 C32 1_555 1_555
C32 C30 1_555 1_555
H20 C32 1_555 1_555
C33 C29 1_555 1_555
H21 C33 1_555 1_555
C34 C31 1_555 1_555
H22 C34 1_555 1_555
H23 C34 1_555 1_555
H24 C34 1_555 1_555
C21 C22 1_555 1_555
C31 C33 1_555 1_555
O6 C23 1_555 1_555
O7 C23 1_555 1_555
C23 C28 1_555 1_555
C26 N5 1_555 1_555
C27 C26 1_555 1_555
N6 C26 1_555 1_555
C28 C25 1_555 1_555
Cd3 O7 1_555 1_555
Cd6 O7 1_555 1_555
N5 C25 1_555 1_555
N6 C28 1_555 1_555
N6 Cd3 1_555 1_555
O1 C2 1_555 1_555
O4 H1 1_555 1_555
C2 O4 1_555 1_555
O2 C1 1_555 1_555
O3 C1 1_555 1_555
N1 Cd1 1_555 1_555
C1 C11 1_555 1_555
N2 Cd1 1_555 1_555
C5 N2 1_555 1_555
C6 C5 1_555 1_555
C8 N1 1_555 1_555
C9 C3 1_555 1_555
H4 C9 1_555 1_555
C10 N1 1_555 1_555
H5 C10 1_555 1_555
N3 C5 1_555 1_555
C11 C4 1_555 1_555
C12 C6 1_555 1_555
H6 C12 1_555 1_555
C13 C6 1_555 1_555
H7 C13 1_555 1_555
C14 C15 1_555 1_555
C15 C13 1_555 1_555
H8 C15 1_555 1_555
C16 C12 1_555 1_555
H9 C16 1_555 1_555
C17 C14 1_555 1_555
H10 C17 1_555 1_555
H11 C17 1_555 1_555
H12 C17 1_555 1_555
H13 C19 1_555 1_555
Cd4 O3 1_555 1_555
Cd5 O3 1_555 1_555
N2 C4 1_555 1_555
C9 C10 1_555 1_555
N3 C11 1_555 1_555
N3 Cd4 1_555 1_555
C14 C16 1_555 1_555
O6_2 C23_2 1_555 1_555
O7_2 C23_2 1_555 1_555
C23_2 C28_2 1_555 1_555
O8 H17 1_555 1_555
C24 O5 1_555 1_555
C25_2 C24 1_555 1_555
C26_2 N5_2 1_555 1_555
C27_2 C26_2 1_555 1_555
N6_2 C26_2 1_555 1_555
C28_2 C25_2 1_555 1_555
Cd3_2 O7_2 1_555 1_555
Cd6_2 O7_2 1_555 1_555
O8 C24 1_555 1_555
N5_2 C25_2 1_555 1_555
N6_2 C28_2 1_555 1_555
N6_2 Cd3_2 1_555 1_555
Cd1_2 O1_2 1_555 1_555
O1_2 C2_2 1_555 1_555
O2_2 C1_2 1_555 1_555
O3_2 C1_2 1_555 1_555
N1_2 Cd1_2 1_555 1_555
C1_2 C11_2 1_555 1_555
O4_2 H1_2 1_555 1_555
C2_2 O4_2 1_555 1_555
N2_2 Cd1_2 1_555 1_555
C3_2 C7_2 1_555 1_555
C4_2 C2_2 1_555 1_555
C5_2 N2_2 1_555 1_555
C6_2 C5_2 1_555 1_555
C7_2 H2_2 1_555 1_555
C8_2 N1_2 1_555 1_555
H3_2 C8_2 1_555 1_555
C9_2 C3_2 1_555 1_555
H4_2 C9_2 1_555 1_555
C10_2 N1_2 1_555 1_555
H5_2 C10_2 1_555 1_555
N3_2 C5_2 1_555 1_555
C11_2 C4_2 1_555 1_555
C12_2 C6_2 1_555 1_555
H6_2 C12_2 1_555 1_555
C13_2 C6_2 1_555 1_555
H7_2 C13_2 1_555 1_555
C14_2 C15_2 1_555 1_555
C15_2 C13_2 1_555 1_555
H8_2 C15_2 1_555 1_555
C16_2 C12_2 1_555 1_555
H9_2 C16_2 1_555 1_555
C17_2 C14_2 1_555 1_555
H10_2 C17_2 1_555 1_555
H11_2 C17_2 1_555 1_555
H12_2 C17_2 1_555 1_555
N4_2 C20_2 1_555 1_555
C18_2 C3_2 1_555 1_555
C19_2 C18_2 1_555 1_555
H13_2 C19_2 1_555 1_555
C20_2 C19_2 1_555 1_555
H14_2 C20_2 1_555 1_555
C21_2 C18_2 1_555 1_555
H15_2 C21_2 1_555 1_555
C22_2 N4_2 1_555 1_555
H16_2 C22_2 1_555 1_555
Cd2_2 N4_2 1_555 1_555
H18_2 C29_2 1_555 1_555
C31_2 C32_2 1_555 1_555
C32_2 C30_2 1_555 1_555
H20_2 C32_2 1_555 1_555
C33_2 C29_2 1_555 1_555
H21_2 C33_2 1_555 1_555
C34_2 C31_2 1_555 1_555
H22_2 C34_2 1_555 1_555
H23_2 C34_2 1_555 1_555
H24_2 C34_2 1_555 1_555
Cd4_2 O3_2 1_555 1_555
Cd5_2 O3_2 1_555 1_555
O9_2 Cd2_2 1_555 1_555
O10_2 Cd1_2 1_555 1_555
O12_2 Cd1_2 1_555 1_555
N7_2 Cd2_2 1_555 1_555
N8_2 Cd1_2 1_555 1_555
N2_2 C4_2 1_555 1_555
C7_2 C8_2 1_555 1_555
C9_2 C10_2 1_555 1_555
N3_2 C11_2 1_555 1_555
N3_2 Cd4_2 1_555 1_555
C14_2 C16_2 1_555 1_555
C21_2 C22_2 1_555 1_555
C31_2 C33_2 1_555 1_555
Cd3_2 O1_3 1_555 1_555
O1_3 C2_3 1_555 1_555
O2_3 C1_3 1_555 1_555
O9 C1_3 1_555 1_555
N1_3 Cd3_2 1_555 1_555
C1_3 C11_3 1_555 1_555
O4_3 H1_3 1_555 1_555
C2_3 O4_3 1_555 1_555
N2_3 Cd3_2 1_555 1_555
C3_3 C7_3 1_555 1_555
C4_3 C2_3 1_555 1_555
C5_3 N2_3 1_555 1_555
C7_3 H2_3 1_555 1_555
C8_3 N1_3 1_555 1_555
H3_3 C8_3 1_555 1_555
C9_3 C3_3 1_555 1_555
H4_3 C9_3 1_555 1_555
C10_3 N1_3 1_555 1_555
H5_3 C10_3 1_555 1_555
N7 C5_3 1_555 1_555
C11_3 C4_3 1_555 1_555
N4_3 C20_3 1_555 1_555
C18_3 C3_3 1_555 1_555
C19_3 C18_3 1_555 1_555
H13_3 C19_3 1_555 1_555
C20_3 C19_3 1_555 1_555
H14_3 C20_3 1_555 1_555
C21_3 C18_3 1_555 1_555
H15_3 C21_3 1_555 1_555
C22_3 N4_3 1_555 1_555
H16_3 C22_3 1_555 1_555
Cd4_2 N4_3 1_555 1_555
O5_2 Cd4_2 1_555 1_555
O6_3 C23_3 1_555 1_555
O10 C23_3 1_555 1_555
C23_3 C28_3 1_555 1_555
O8_2 H17_2 1_555 1_555
C24_2 O5_2 1_555 1_555
N5_3 Cd4_2 1_555 1_555
C25_3 C24_2 1_555 1_555
C26_3 N5_3 1_555 1_555
N8 C26_3 1_555 1_555
C28_3 C25_3 1_555 1_555
O11_3 Cd4_2 1_555 1_555
O12_3 Cd3_2 1_555 1_555
N2_3 C4_3 1_555 1_555
C7_3 C8_3 1_555 1_555
C9_3 C10_3 1_555 1_555
N7 C11_3 1_555 1_555
C21_3 C22_3 1_555 1_555
O8_2 C24_2 1_555 1_555
N5_3 C25_3 1_555 1_555
N8 C28_3 1_555 1_555
C12_3 C6_3 1_555 1_555
H6_3 C12_3 1_555 1_555
C13_3 C6_3 1_555 1_555
C14_3 C15_3 1_555 1_555
C15_3 C13_3 1_555 1_555
C16_3 C12_3 1_555 1_555
H9_3 C16_3 1_555 1_555
C17_3 C14_3 1_555 1_555
H10_3 C17_3 1_555 1_555
H11_3 C17_3 1_555 1_555
H12_3 C17_3 1_555 1_555
C29_3 C27_3 1_555 1_555
H18_3 C29_3 1_555 1_555
C30_3 C27_3 1_555 1_555
H19_3 C30_3 1_555 1_555
C31_3 C32_3 1_555 1_555
C32_3 C30_3 1_555 1_555
H20_3 C32_3 1_555 1_555
C33_3 C29_3 1_555 1_555
H21_3 C33_3 1_555 1_555
C34_3 C31_3 1_555 1_555
H22_3 C34_3 1_555 1_555
H23_3 C34_3 1_555 1_555
H24_3 C34_3 1_555 1_555
C14_3 C16_3 1_555 1_555
C31_3 C33_3 1_555 1_555
Cd3 O1_4 1_555 1_555
O1_4 C2_4 1_555 1_555
O2_4 C1_4 1_555 1_555
O9_2 C1_4 1_555 1_555
N1_4 Cd3 1_555 1_555
C1_4 C11_4 1_555 1_555
O4_4 H1_4 1_555 1_555
C2_4 O4_4 1_555 1_555
N2_4 Cd3 1_555 1_555
C3_4 C7_4 1_555 1_555
C4_4 C2_4 1_555 1_555
C5_4 N2_4 1_555 1_555
C6_4 C5_4 1_555 1_555
C7_4 H2_4 1_555 1_555
C8_4 N1_4 1_555 1_555
H3_4 C8_4 1_555 1_555
C9_4 C3_4 1_555 1_555
H4_4 C9_4 1_555 1_555
C10_4 N1_4 1_555 1_555
H5_4 C10_4 1_555 1_555
N7_2 C5_4 1_555 1_555
C11_4 C4_4 1_555 1_555
C12_4 C6_4 1_555 1_555
H6_4 C12_4 1_555 1_555
C13_4 C6_4 1_555 1_555
C14_4 C15_4 1_555 1_555
C15_4 C13_4 1_555 1_555
C16_4 C12_4 1_555 1_555
H9_4 C16_4 1_555 1_555
C17_4 C14_4 1_555 1_555
H10_4 C17_4 1_555 1_555
H11_4 C17_4 1_555 1_555
H12_4 C17_4 1_555 1_555
O12_4 Cd3 1_555 1_555
N2_4 C4_4 1_555 1_555
C7_4 C8_4 1_555 1_555
C9_4 C10_4 1_555 1_555
N7_2 C11_4 1_555 1_555
C14_4 C16_4 1_555 1_555
N4_4 C20_4 1_555 1_555
C19_4 C18_4 1_555 1_555
H13_4 C19_4 1_555 1_555
C20_4 C19_4 1_555 1_555
H14_4 C20_4 1_555 1_555
C21_4 C18_4 1_555 1_555
H15_4 C21_4 1_555 1_555
C22_4 N4_4 1_555 1_555
H16_4 C22_4 1_555 1_555
Cd4 N4_4 1_555 1_555
O5_3 Cd4 1_555 1_555
O6_4 C23_4 1_555 1_555
O10_2 C23_4 1_555 1_555
C23_4 C28_4 1_555 1_555
O8_3 H17_3 1_555 1_555
C24_3 O5_3 1_555 1_555
N5_4 Cd4 1_555 1_555
C25_4 C24_3 1_555 1_555
C26_4 N5_4 1_555 1_555
C27_4 C26_4 1_555 1_555
N8_2 C26_4 1_555 1_555
C28_4 C25_4 1_555 1_555
C29_4 C27_4 1_555 1_555
H18_4 C29_4 1_555 1_555
C30_4 C27_4 1_555 1_555
H19_4 C30_4 1_555 1_555
C31_4 C32_4 1_555 1_555
C32_4 C30_4 1_555 1_555
H20_4 C32_4 1_555 1_555
C33_4 C29_4 1_555 1_555
H21_4 C33_4 1_555 1_555
C34_4 C31_4 1_555 1_555
H22_4 C34_4 1_555 1_555
H23_4 C34_4 1_555 1_555
H24_4 C34_4 1_555 1_555
Cd6_4 O10_2 1_555 1_555
O11_4 Cd4 1_555 1_555
C21_4 C22_4 1_555 1_555
O8_3 C24_3 1_555 1_555
N5_4 C25_4 1_555 1_555
N8_2 C28_4 1_555 1_555
C31_4 C33_4 1_555 1_555
O2_5 C1_5 1_555 1_555
O12_3 C1_5 1_555 1_555
N1_5 Cd6_3 1_555 1_555
C1_5 C11_5 1_555 1_555
N2_5 Cd6_3 1_555 1_555
C5_5 N2_5 1_555 1_555
C6_5 C5_5 1_555 1_555
C8_5 N1_5 1_555 1_555
C9_5 C3_5 1_555 1_555
H4_5 C9_5 1_555 1_555
C10_5 N1_5 1_555 1_555
H5_5 C10_5 1_555 1_555
N3_3 C5_5 1_555 1_555
C11_5 C4_5 1_555 1_555
C12_5 C6_5 1_555 1_555
H6_5 C12_5 1_555 1_555
C13_5 C6_5 1_555 1_555
H7_4 C13_5 1_555 1_555
C14_5 C15_5 1_555 1_555
C15_5 C13_5 1_555 1_555
H8_4 C15_5 1_555 1_555
C16_5 C12_5 1_555 1_555
H9_5 C16_5 1_555 1_555
C17_5 C14_5 1_555 1_555
H10_5 C17_5 1_555 1_555
H11_5 C17_5 1_555 1_555
H12_5 C17_5 1_555 1_555
H13_5 C19_5 1_555 1_555
Cd6_2 O12_3 1_555 1_555
N2_5 C4_5 1_555 1_555
C9_5 C10_5 1_555 1_555
N3_3 C11_5 1_555 1_555
N3_3 Cd6_2 1_555 1_555
C14_5 C16_5 1_555 1_555
O1_5 C2_5 1_555 1_555
O4_5 H1_5 1_555 1_555
C2_5 O4_5 1_555 1_555
O6_5 C23_5 1_555 1_555
O11_3 C23_5 1_555 1_555
C23_5 C28_5 1_555 1_555
C26_5 N5_5 1_555 1_555
C27_5 C26_5 1_555 1_555
N6_3 C26_5 1_555 1_555
C28_5 C25_5 1_555 1_555
Cd5_2 O11_3 1_555 1_555
N5_5 C25_5 1_555 1_555
N6_3 C28_5 1_555 1_555
N6_3 Cd5_2 1_555 1_555
C7_5 H2_5 1_555 1_555
N4_5 C20_5 1_555 1_555
C21_5 C18_5 1_555 1_555
H15_5 C21_5 1_555 1_555
C22_5 N4_5 1_555 1_555
H16_5 C22_5 1_555 1_555
Cd5_3 N4_5 1_555 1_555
H18_5 C29_5 1_555 1_555
C31_5 C32_5 1_555 1_555
C32_5 C30_5 1_555 1_555
H20_5 C32_5 1_555 1_555
C33_5 C29_5 1_555 1_555
H21_5 C33_5 1_555 1_555
C34_5 C31_5 1_555 1_555
H22_5 C34_5 1_555 1_555
H23_5 C34_5 1_555 1_555
H24_5 C34_5 1_555 1_555
C21_5 C22_5 1_555 1_555
C31_5 C33_5 1_555 1_555
Cd6_4 O1_6 1_555 1_555
O1_6 C2_6 1_555 1_555
O2_6 C1_6 1_555 1_555
O12_4 C1_6 1_555 1_555
N1_6 Cd6_4 1_555 1_555
C1_6 C11_6 1_555 1_555
O4_6 H1_6 1_555 1_555
C2_6 O4_6 1_555 1_555
N2_6 Cd6_4 1_555 1_555
C3_6 C7_6 1_555 1_555
C4_6 C2_6 1_555 1_555
C5_6 N2_6 1_555 1_555
C6_6 C5_6 1_555 1_555
C7_6 H2_6 1_555 1_555
C8_6 N1_6 1_555 1_555
H3_6 C8_6 1_555 1_555
C9_6 C3_6 1_555 1_555
H4_6 C9_6 1_555 1_555
C10_6 N1_6 1_555 1_555
H5_6 C10_6 1_555 1_555
N3_4 C5_6 1_555 1_555
C11_6 C4_6 1_555 1_555
C12_6 C6_6 1_555 1_555
H6_6 C12_6 1_555 1_555
C13_6 C6_6 1_555 1_555
H7_5 C13_6 1_555 1_555
C14_6 C15_6 1_555 1_555
C15_6 C13_6 1_555 1_555
H8_5 C15_6 1_555 1_555
C16_6 C12_6 1_555 1_555
H9_6 C16_6 1_555 1_555
C17_6 C14_6 1_555 1_555
H10_6 C17_6 1_555 1_555
H11_6 C17_6 1_555 1_555
H12_6 C17_6 1_555 1_555
N4_6 C20_6 1_555 1_555
C18_6 C3_6 1_555 1_555
C19_6 C18_6 1_555 1_555
H13_6 C19_6 1_555 1_555
C20_6 C19_6 1_555 1_555
H14_6 C20_6 1_555 1_555
C21_6 C18_6 1_555 1_555
H15_6 C21_6 1_555 1_555
C22_6 N4_6 1_555 1_555
H16_6 C22_6 1_555 1_555
Cd5_4 N4_6 1_555 1_555
H18_6 C29_6 1_555 1_555
C31_6 C32_6 1_555 1_555
C32_6 C30_6 1_555 1_555
H20_6 C32_6 1_555 1_555
C33_6 C29_6 1_555 1_555
H21_6 C33_6 1_555 1_555
C34_6 C31_6 1_555 1_555
H22_6 C34_6 1_555 1_555
H23_6 C34_6 1_555 1_555
H24_6 C34_6 1_555 1_555
Cd6 O12_4 1_555 1_555
O11_2 Cd5_4 1_555 1_555
O12_2 Cd6_4 1_555 1_555
N7_4 Cd5_4 1_555 1_555
N8_4 Cd6_4 1_555 1_555
N2_6 C4_6 1_555 1_555
C7_6 C8_6 1_555 1_555
C9_6 C10_6 1_555 1_555
N3_4 C11_6 1_555 1_555
N3_4 Cd6 1_555 1_555
C14_6 C16_6 1_555 1_555
C21_6 C22_6 1_555 1_555
C31_6 C33_6 1_555 1_555
O6_6 C23_6 1_555 1_555
O11_4 C23_6 1_555 1_555
C23_6 C28_6 1_555 1_555
O8_4 H17_4 1_555 1_555
C24_4 O5_4 1_555 1_555
C25_6 C24_4 1_555 1_555
C26_6 N5_6 1_555 1_555
C27_6 C26_6 1_555 1_555
N6_4 C26_6 1_555 1_555
C28_6 C25_6 1_555 1_555
Cd5 O11_4 1_555 1_555
O8_4 C24_4 1_555 1_555
N5_6 C25_6 1_555 1_555
N6_4 C28_6 1_555 1_555
N6_4 Cd5 1_555 1_555
C12_7 C6_7 1_555 1_555
H6_7 C12_7 1_555 1_555
C13_7 C6_7 1_555 1_555
C14_7 C15_7 1_555 1_555
C15_7 C13_7 1_555 1_555
C16_7 C12_7 1_555 1_555
H9_7 C16_7 1_555 1_555
C17_7 C14_7 1_555 1_555
H10_7 C17_7 1_555 1_555
H11_7 C17_7 1_555 1_555
H12_7 C17_7 1_555 1_555
C29_7 C27_7 1_555 1_555
H18_7 C29_7 1_555 1_555
C30_7 C27_7 1_555 1_555
H19_7 C30_7 1_555 1_555
C31_7 C32_7 1_555 1_555
C32_7 C30_7 1_555 1_555
H20_7 C32_7 1_555 1_555
C33_7 C29_7 1_555 1_555
H21_7 C33_7 1_555 1_555
C34_7 C31_7 1_555 1_555
H22_7 C34_7 1_555 1_555
H23_7 C34_7 1_555 1_555
H24_7 C34_7 1_555 1_555
C14_7 C16_7 1_555 1_555
C31_7 C33_7 1_555 1_555
Cd5 O1_7 1_555 1_555
O1_7 C2_7 1_555 1_555
O2_7 C1_7 1_555 1_555
O11 C1_7 1_555 1_555
N1_7 Cd5 1_555 1_555
C1_7 C11_7 1_555 1_555
O4_7 H1_7 1_555 1_555
C2_7 O4_7 1_555 1_555
N2_7 Cd5 1_555 1_555
C3_7 C7_7 1_555 1_555
C4_7 C2_7 1_555 1_555
C5_7 N2_7 1_555 1_555
C7_7 H2_7 1_555 1_555
C8_7 N1_7 1_555 1_555
H3_7 C8_7 1_555 1_555
C9_7 C3_7 1_555 1_555
H4_7 C9_7 1_555 1_555
C10_7 N1_7 1_555 1_555
H5_7 C10_7 1_555 1_555
N7_3 C5_7 1_555 1_555
C11_7 C4_7 1_555 1_555
N4_7 C20_7 1_555 1_555
C18_7 C3_7 1_555 1_555
C19_7 C18_7 1_555 1_555
H13_7 C19_7 1_555 1_555
C20_7 C19_7 1_555 1_555
H14_7 C20_7 1_555 1_555
C21_7 C18_7 1_555 1_555
H15_7 C21_7 1_555 1_555
C22_7 N4_7 1_555 1_555
H16_7 C22_7 1_555 1_555
Cd6 N4_7 1_555 1_555
O5_5 Cd6 1_555 1_555
O6_7 C23_7 1_555 1_555
O12 C23_7 1_555 1_555
C23_7 C28_7 1_555 1_555
O8_5 H17_5 1_555 1_555
C24_5 O5_5 1_555 1_555
N5_7 Cd6 1_555 1_555
C25_7 C24_5 1_555 1_555
C26_7 N5_7 1_555 1_555
N8_3 C26_7 1_555 1_555
C28_7 C25_7 1_555 1_555
N2_7 C4_7 1_555 1_555
C7_7 C8_7 1_555 1_555
C9_7 C10_7 1_555 1_555
N7_3 C11_7 1_555 1_555
C21_7 C22_7 1_555 1_555
O8_5 C24_5 1_555 1_555
N5_7 C25_7 1_555 1_555
N8_3 C28_7 1_555 1_555
N4_8 C20_8 1_555 1_555
C19_8 C18_8 1_555 1_555
H13_8 C19_8 1_555 1_555
C20_8 C19_8 1_555 1_555
H14_8 C20_8 1_555 1_555
C21_8 C18_8 1_555 1_555
H15_8 C21_8 1_555 1_555
C22_8 N4_8 1_555 1_555
H16_8 C22_8 1_555 1_555
Cd6_2 N4_8 1_555 1_555
O5_6 Cd6_2 1_555 1_555
O6_8 C23_8 1_555 1_555
O12_2 C23_8 1_555 1_555
C23_8 C28_8 1_555 1_555
O8_6 H17_6 1_555 1_555
C24_6 O5_6 1_555 1_555
N5_8 Cd6_2 1_555 1_555
C25_8 C24_6 1_555 1_555
C26_8 N5_8 1_555 1_555
C27_8 C26_8 1_555 1_555
N8_4 C26_8 1_555 1_555
C28_8 C25_8 1_555 1_555
C29_8 C27_8 1_555 1_555
H18_8 C29_8 1_555 1_555
C30_8 C27_8 1_555 1_555
H19_8 C30_8 1_555 1_555
C31_8 C32_8 1_555 1_555
C32_8 C30_8 1_555 1_555
H20_8 C32_8 1_555 1_555
C33_8 C29_8 1_555 1_555
H21_8 C33_8 1_555 1_555
C34_8 C31_8 1_555 1_555
H22_8 C34_8 1_555 1_555
H23_8 C34_8 1_555 1_555
H24_8 C34_8 1_555 1_555
C21_8 C22_8 1_555 1_555
O8_6 C24_6 1_555 1_555
N5_8 C25_8 1_555 1_555
N8_4 C28_8 1_555 1_555
C31_8 C33_8 1_555 1_555
Cd5_2 O1_8 1_555 1_555
O1_8 C2_8 1_555 1_555
O2_8 C1_8 1_555 1_555
O11_2 C1_8 1_555 1_555
N1_8 Cd5_2 1_555 1_555
C1_8 C11_8 1_555 1_555
O4_8 H1_8 1_555 1_555
C2_8 O4_8 1_555 1_555
N2_8 Cd5_2 1_555 1_555
C3_8 C7_8 1_555 1_555
C4_8 C2_8 1_555 1_555
C5_8 N2_8 1_555 1_555
C6_8 C5_8 1_555 1_555
C7_8 H2_8 1_555 1_555
C8_8 N1_8 1_555 1_555
H3_8 C8_8 1_555 1_555
C9_8 C3_8 1_555 1_555
H4_8 C9_8 1_555 1_555
C10_8 N1_8 1_555 1_555
H5_8 C10_8 1_555 1_555
N7_4 C5_8 1_555 1_555
C11_8 C4_8 1_555 1_555
C12_8 C6_8 1_555 1_555
H6_8 C12_8 1_555 1_555
C13_8 C6_8 1_555 1_555
C14_8 C15_8 1_555 1_555
C15_8 C13_8 1_555 1_555
C16_8 C12_8 1_555 1_555
H9_8 C16_8 1_555 1_555
C17_8 C14_8 1_555 1_555
H10_8 C17_8 1_555 1_555
H11_8 C17_8 1_555 1_555
H12_8 C17_8 1_555 1_555
N2_8 C4_8 1_555 1_555
C7_8 C8_8 1_555 1_555
C9_8 C10_8 1_555 1_555
N7_4 C11_8 1_555 1_555
C14_8 C16_8 1_555 1_555
O8_7 H17_7 1_555 1_555
C24_7 O5_7 1_555 1_555
O8_7 C24_7 1_555 1_555
O8_8 H17_8 1_555 1_555
C24_8 O5_8 1_555 1_555
O8_8 C24_8 1_555 1_555

#END
