
###############################################################################
#
# This file contains modified crystal structure data generated from the
# MOF subset of the Cambridge Structural Database (CSD) v543 
# hosted by the Cambridge Crystallographic Data Centre (CCDC).
#
# This work is licensed under the Creative Commons
# Attribution-NonCommercial-ShareAlike 4.0 International License.
# To view a copy of this license, visit
# http://creativecommons.org/licenses/by-nc-sa/4.0/
# or send a letter to
# Creative Commons, PO Box 1866, Mountain View, CA 94042, USA.
#
# CIF created using the CSD Python API on 29 September 2022
# The structure has been converted into the P1 space group
# The structure has a 3D framework
# The original CSD entry OFEQOG is in the cubic crystal system
# The framework has been calculated to contain at least 10.0% void space
# The void calculation uses a probe of radius 1.32A, grid spacing 0.4
#
###############################################################################

data_OFEQOG
_chemical_formula_moiety         '(C96 H48 F24 N48 O24 Pd6)n'
_symmetry_cell_setting           triclinic
_symmetry_space_group_name_H-M   'P 1'
_symmetry_Int_Tables_number      1
_space_group_name_Hall           'P 1'
loop_
_symmetry_equiv_pos_site_id
_symmetry_equiv_pos_as_xyz
1 x,y,z
_cell_length_a                   16.29569(84)
_cell_length_b                   16.29569(84)
_cell_length_c                   16.29569(84)
_cell_angle_alpha                90
_cell_angle_beta                 90
_cell_angle_gamma                90
_cell_volume                     4327.31
loop_
_atom_site_label
_atom_site_type_symbol
_atom_site_fract_x
_atom_site_fract_y
_atom_site_fract_z
Pd2 Pd 0.00000 0.25000 0.75000
Pd1 Pd 0.75000 0.25000 0.50000
C1 C 0.624780 0.269070 0.624790
N1 N 0.687210 0.309220 0.582750
O1 O 0.606470 0.196870 0.606480
C2 C 0.665530 0.429650 0.665520
F1 F 0.685310 0.507620 0.685300
C3 C 0.707570 0.389500 0.603090
H1 H 0.750230 0.416940 0.574350
N2 N 0.582750 0.309220 0.687210
C4 C 0.603090 0.389500 0.707570
H2 H 0.574350 0.416940 0.750230
C5 C 0.875220 0.230930 0.624790
N3 N 0.812790 0.190780 0.582750
O2 O 0.893530 0.303130 0.606480
C6 C 0.834470 0.070350 0.665520
C7 C 0.792430 0.110500 0.603090
H3 H 0.749770 0.083060 0.574350
N4 N 0.917250 0.190780 0.687210
C8 C 0.896910 0.110500 0.707570
H4 H 0.925650 0.083060 0.750230
Pd2_2 Pd 1.00000 0.25000 0.75000
Pd3 Pd 0.50000 0.25000 0.75000
N5 N 0.690780 0.312790 0.417250
N6 N 0.809220 0.187210 0.417250
Pd1_2 Pd 0.75000 0.25000 0.00000
N5_2 N 0.809220 0.312790 0.082750
N6_2 N 0.690780 0.187210 0.082750
Pd1_3 Pd 0.75000 0.25000 1.00000
C1_2 C 0.875220 0.269070 0.875210
N1_2 N 0.812790 0.309220 0.917250
O1_2 O 0.893530 0.196870 0.893520
C2_2 C 0.834470 0.429650 0.834480
F1_2 F 0.814690 0.507620 0.814700
C3_2 C 0.792430 0.389500 0.896910
H1_2 H 0.749770 0.416940 0.925650
N2_2 N 0.917250 0.309220 0.812790
C4_2 C 0.896910 0.389500 0.792430
H2_2 H 0.925650 0.416940 0.749770
C5_2 C 0.624780 0.230930 0.875210
N3_2 N 0.687210 0.190780 0.917250
O2_2 O 0.606470 0.303130 0.893520
C6_2 C 0.665530 0.070350 0.834480
C7_2 C 0.707570 0.110500 0.896910
H3_2 H 0.750230 0.083060 0.925650
N4_2 N 0.582750 0.190780 0.812790
C8_2 C 0.603090 0.110500 0.792430
H4_2 H 0.574350 0.083060 0.749770
C1_3 C 0.730930 0.124780 0.124790
O1_3 O 0.803130 0.106470 0.106480
C2_3 C 0.570350 0.165530 0.165520
F1_3 F 0.492380 0.185310 0.185300
C3_3 C 0.610500 0.207570 0.103090
H1_3 H 0.583060 0.250230 0.074350
N2_3 N 0.690780 0.082750 0.187210
C4_3 C 0.610500 0.103090 0.207570
H2_3 H 0.583060 0.074350 0.250230
C5_3 C 0.769070 0.375220 0.124790
O2_3 O 0.696870 0.393530 0.106480
C6_3 C 0.929650 0.334470 0.165520
C7_3 C 0.889500 0.292430 0.103090
H3_3 H 0.916940 0.249770 0.074350
N4_3 N 0.809220 0.417250 0.187210
C8_3 C 0.889500 0.396910 0.207570
H4_3 H 0.916940 0.425650 0.250230
Pd2_3 Pd 0.75000 0.50000 0.25000
Pd3_2 Pd 0.75000 -0.00000 0.25000
Pd3_3 Pd 0.75000 1.00000 0.25000
Pd1_4 Pd 0.00000 0.75000 0.25000
C1_4 C 0.124790 0.769070 0.375220
N1_3 N 0.082750 0.809220 0.312790
O1_4 O 0.106480 0.696870 0.393530
C2_4 C 0.165520 0.929650 0.334470
C3_4 C 0.103090 0.889500 0.292430
H1_4 H 0.074350 0.916940 0.249770
N2_4 N 0.187210 0.809220 0.417250
C4_4 C 0.207570 0.889500 0.396910
H2_4 H 0.250230 0.916940 0.425650
C5_4 C 0.124790 0.730930 0.124780
N3_3 N 0.082750 0.690780 0.187210
O2_4 O 0.106480 0.803130 0.106470
C6_4 C 0.165520 0.570350 0.165530
F2 F 0.185300 0.492380 0.185310
C7_4 C 0.103090 0.610500 0.207570
H3_4 H 0.074350 0.583060 0.250230
N4_4 N 0.187210 0.690780 0.082750
C8_4 C 0.207570 0.610500 0.103090
H4_4 H 0.250230 0.583060 0.074350
Pd2_4 Pd 0.25000 0.75000 0.00000
Pd3_4 Pd 0.25000 0.75000 0.50000
Pd2_5 Pd 0.25000 0.75000 1.00000
Pd1_5 Pd 1.00000 0.75000 0.25000
N5_3 N 0.917250 0.812790 0.309220
N6_3 N 0.917250 0.687210 0.190780
Pd1_6 Pd 0.50000 0.75000 0.25000
C1_5 C 0.375210 0.769070 0.124780
N1_4 N 0.417250 0.809220 0.187210
O1_5 O 0.393520 0.696870 0.106470
C2_5 C 0.334480 0.929650 0.165530
C3_5 C 0.396910 0.889500 0.207570
H1_5 H 0.425650 0.916940 0.250230
N2_5 N 0.312790 0.809220 0.082750
C4_5 C 0.292430 0.889500 0.103090
H2_5 H 0.249770 0.916940 0.074350
C5_5 C 0.375210 0.730930 0.375220
N3_4 N 0.417250 0.690780 0.312790
O2_5 O 0.393520 0.803130 0.393530
C6_5 C 0.334480 0.570350 0.334470
F2_2 F 0.314700 0.492380 0.314690
C7_5 C 0.396910 0.610500 0.292430
H3_5 H 0.425650 0.583060 0.249770
N4_5 N 0.312790 0.690780 0.417250
C8_5 C 0.292430 0.610500 0.396910
H4_5 H 0.249770 0.583060 0.425650
N5_4 N 0.582750 0.812790 0.190780
N6_4 N 0.582750 0.687210 0.309220
C1_6 C 0.730930 0.375220 0.375210
O1_6 O 0.803130 0.393530 0.393520
C2_6 C 0.570350 0.334470 0.334480
F1_4 F 0.492380 0.314690 0.314700
C3_6 C 0.610500 0.292430 0.396910
H1_6 H 0.583060 0.249770 0.425650
N2_6 N 0.690780 0.417250 0.312790
C4_6 C 0.610500 0.396910 0.292430
H2_6 H 0.583060 0.425650 0.249770
C5_6 C 0.769070 0.124780 0.375210
O2_6 O 0.696870 0.106470 0.393520
C6_6 C 0.929650 0.165530 0.334480
C7_6 C 0.889500 0.207570 0.396910
H3_6 H 0.916940 0.250230 0.425650
N4_6 N 0.809220 0.082750 0.312790
C8_6 C 0.889500 0.103090 0.292430
H4_6 H 0.916940 0.074350 0.249770
C1_7 C 0.624790 0.624780 0.269070
O1_7 O 0.606480 0.606470 0.196870
C2_7 C 0.665520 0.665530 0.429650
F1_5 F 0.685300 0.685310 0.507620
C3_7 C 0.603090 0.707570 0.389500
H1_7 H 0.574350 0.750230 0.416940
N2_7 N 0.687210 0.582750 0.309220
C4_7 C 0.707570 0.603090 0.389500
H2_7 H 0.750230 0.574350 0.416940
C5_7 C 0.624790 0.875220 0.230930
O2_7 O 0.606480 0.893530 0.303130
C6_7 C 0.665520 0.834470 0.070350
C7_7 C 0.603090 0.792430 0.110500
H3_7 H 0.574350 0.749770 0.083060
N4_7 N 0.687210 0.917250 0.190780
C8_7 C 0.707570 0.896910 0.110500
H4_7 H 0.750230 0.925650 0.083060
Pd1_7 Pd 0.25000 0.50000 0.75000
C1_8 C 0.269070 0.624790 0.624780
N1_5 N 0.309220 0.582750 0.687210
O1_8 O 0.196870 0.606480 0.606470
C2_8 C 0.429650 0.665520 0.665530
F1_6 F 0.507620 0.685300 0.685310
C3_8 C 0.389500 0.603090 0.707570
H1_8 H 0.416940 0.574350 0.750230
N2_8 N 0.309220 0.687210 0.582750
C4_8 C 0.389500 0.707570 0.603090
H2_8 H 0.416940 0.750230 0.574350
C5_8 C 0.230930 0.624790 0.875220
N3_5 N 0.190780 0.582750 0.812790
O2_8 O 0.303130 0.606480 0.893530
C6_8 C 0.070350 0.665520 0.834470
C7_8 C 0.110500 0.603090 0.792430
H3_8 H 0.083060 0.574350 0.749770
N4_8 N 0.190780 0.687210 0.917250
C8_8 C 0.110500 0.707570 0.896910
H4_8 H 0.083060 0.750230 0.925650
N5_5 N 0.312790 0.417250 0.690780
N6_5 N 0.187210 0.417250 0.809220
C1_9 C 0.375220 0.375210 0.730930
O1_9 O 0.393530 0.393520 0.803130
C2_9 C 0.334470 0.334480 0.570350
F1_7 F 0.314690 0.314700 0.492380
C3_9 C 0.292430 0.396910 0.610500
H1_9 H 0.249770 0.425650 0.583060
N2_9 N 0.417250 0.312790 0.690780
C4_9 C 0.396910 0.292430 0.610500
H2_9 H 0.425650 0.249770 0.583060
C5_9 C 0.124780 0.375210 0.769070
O2_9 O 0.106470 0.393520 0.696870
C6_9 C 0.165530 0.334480 0.929650
C7_9 C 0.207570 0.396910 0.889500
H3_9 H 0.250230 0.425650 0.916940
N4_9 N 0.082750 0.312790 0.809220
C8_9 C 0.103090 0.292430 0.889500
H4_9 H 0.074350 0.249770 0.916940
Pd1_8 Pd 0.25000 0.00000 0.75000
N5_6 N 0.312790 0.082750 0.809220
N6_6 N 0.187210 0.082750 0.690780
Pd1_9 Pd 0.25000 1.00000 0.75000
C1_10 C 0.269070 0.875210 0.875220
N1_6 N 0.309220 0.917250 0.812790
O1_10 O 0.196870 0.893520 0.893530
C2_10 C 0.429650 0.834480 0.834470
F1_8 F 0.507620 0.814700 0.814690
C3_10 C 0.389500 0.896910 0.792430
H1_10 H 0.416940 0.925650 0.749770
N2_10 N 0.309220 0.812790 0.917250
C4_10 C 0.389500 0.792430 0.896910
H2_10 H 0.416940 0.749770 0.925650
C5_10 C 0.230930 0.875210 0.624780
N3_6 N 0.190780 0.917250 0.687210
O2_10 O 0.303130 0.893520 0.606470
C6_10 C 0.070350 0.834480 0.665530
C7_10 C 0.110500 0.896910 0.707570
H3_10 H 0.083060 0.925650 0.750230
N4_10 N 0.190780 0.812790 0.582750
C8_10 C 0.110500 0.792430 0.603090
H4_10 H 0.083060 0.749770 0.574350
C1_11 C 0.875210 0.624780 0.230930
O1_11 O 0.893520 0.606470 0.303130
C2_11 C 0.834480 0.665530 0.070350
C3_11 C 0.896910 0.707570 0.110500
H1_11 H 0.925650 0.750230 0.083060
N2_11 N 0.812790 0.582750 0.190780
C4_11 C 0.792430 0.603090 0.110500
H2_11 H 0.749770 0.574350 0.083060
C5_11 C 0.875210 0.875220 0.269070
O2_11 O 0.893520 0.893530 0.196870
C6_11 C 0.834480 0.834470 0.429650
F2_3 F 0.814700 0.814690 0.507620
C7_11 C 0.896910 0.792430 0.389500
H3_11 H 0.925650 0.749770 0.416940
N4_11 N 0.812790 0.917250 0.309220
C8_11 C 0.792430 0.896910 0.389500
H4_11 H 0.749770 0.925650 0.416940
C1_12 C 0.375220 0.124790 0.769070
O1_12 O 0.393530 0.106480 0.696870
C2_12 C 0.334470 0.165520 0.929650
C3_12 C 0.292430 0.103090 0.889500
H1_12 H 0.249770 0.074350 0.916940
N2_12 N 0.417250 0.187210 0.809220
C4_12 C 0.396910 0.207570 0.889500
H2_12 H 0.425650 0.250230 0.916940
C5_12 C 0.124780 0.124790 0.730930
O2_12 O 0.106470 0.106480 0.803130
C6_12 C 0.165530 0.165520 0.570350
F2_4 F 0.185310 0.185300 0.492380
C7_12 C 0.207570 0.103090 0.610500
H3_12 H 0.250230 0.074350 0.583060
N4_12 N 0.082750 0.187210 0.690780
C8_12 C 0.103090 0.207570 0.610500
H4_12 H 0.074350 0.250230 0.583060
F2_5 F 0.814690 0.992380 0.685300
F2_6 F 0.685310 0.992380 0.814700
F2_7 F 0.007620 0.314690 0.185300
F1_9 F 0.185300 0.007620 0.314690
F1_10 F 0.314700 0.007620 0.185310
F2_8 F 0.007620 0.185310 0.314700
F2_9 F 0.685300 0.814690 0.992380
F2_10 F 0.992380 0.685300 0.814690
F2_11 F 0.185310 0.314700 0.007620
F2_12 F 0.992380 0.814700 0.685310
F1_11 F 0.814700 0.685310 0.992380
F1_12 F 0.314690 0.185300 0.007620
loop_
_geom_bond_atom_site_label_1
_geom_bond_atom_site_label_2
_geom_bond_site_symmetry_1
_geom_bond_site_symmetry_2
Pd1 N1 1_555 1_555
C1 N1 1_555 1_555
N1 C3 1_555 1_555
O1 C1 1_555 1_555
C2 F1 1_555 1_555
C3 C2 1_555 1_555
H1 C3 1_555 1_555
N2 C1 1_555 1_555
C4 C2 1_555 1_555
H2 C4 1_555 1_555
C5 N3 1_555 1_555
N3 Pd1 1_555 1_555
O2 C5 1_555 1_555
C7 N3 1_555 1_555
H3 C7 1_555 1_555
N4 C5 1_555 1_555
C8 C6 1_555 1_555
H4 C8 1_555 1_555
Pd2_2 N4 1_555 1_555
Pd3 N2 1_555 1_555
N5 Pd1 1_555 1_555
N6 Pd1 1_555 1_555
N2 C4 1_555 1_555
C6 C7 1_555 1_555
N4 C8 1_555 1_555
N5_2 Pd1_2 1_555 1_555
N6_2 Pd1_2 1_555 1_555
Pd1_3 N1_2 1_555 1_555
C1_2 N1_2 1_555 1_555
N1_2 C3_2 1_555 1_555
O1_2 C1_2 1_555 1_555
C2_2 F1_2 1_555 1_555
C3_2 C2_2 1_555 1_555
H1_2 C3_2 1_555 1_555
N2_2 C1_2 1_555 1_555
C4_2 C2_2 1_555 1_555
H2_2 C4_2 1_555 1_555
C5_2 N3_2 1_555 1_555
N3_2 Pd1_3 1_555 1_555
O2_2 C5_2 1_555 1_555
C7_2 N3_2 1_555 1_555
H3_2 C7_2 1_555 1_555
N4_2 C5_2 1_555 1_555
C8_2 C6_2 1_555 1_555
H4_2 C8_2 1_555 1_555
Pd3 N4_2 1_555 1_555
Pd2_2 N2_2 1_555 1_555
N2_2 C4_2 1_555 1_555
C6_2 C7_2 1_555 1_555
N4_2 C8_2 1_555 1_555
C1_3 N6_2 1_555 1_555
N6_2 C3_3 1_555 1_555
O1_3 C1_3 1_555 1_555
C2_3 F1_3 1_555 1_555
C3_3 C2_3 1_555 1_555
H1_3 C3_3 1_555 1_555
N2_3 C1_3 1_555 1_555
C4_3 C2_3 1_555 1_555
H2_3 C4_3 1_555 1_555
C5_3 N5_2 1_555 1_555
O2_3 C5_3 1_555 1_555
C7_3 N5_2 1_555 1_555
H3_3 C7_3 1_555 1_555
N4_3 C5_3 1_555 1_555
C8_3 C6_3 1_555 1_555
H4_3 C8_3 1_555 1_555
Pd2_3 N4_3 1_555 1_555
Pd3_2 N2_3 1_555 1_555
N2_3 C4_3 1_555 1_555
C6_3 C7_3 1_555 1_555
N4_3 C8_3 1_555 1_555
Pd1_4 N1_3 1_555 1_555
C1_4 N1_3 1_555 1_555
N1_3 C3_4 1_555 1_555
O1_4 C1_4 1_555 1_555
C3_4 C2_4 1_555 1_555
H1_4 C3_4 1_555 1_555
N2_4 C1_4 1_555 1_555
C4_4 C2_4 1_555 1_555
H2_4 C4_4 1_555 1_555
C5_4 N3_3 1_555 1_555
N3_3 Pd1_4 1_555 1_555
O2_4 C5_4 1_555 1_555
C6_4 F2 1_555 1_555
C7_4 N3_3 1_555 1_555
H3_4 C7_4 1_555 1_555
N4_4 C5_4 1_555 1_555
C8_4 C6_4 1_555 1_555
H4_4 C8_4 1_555 1_555
Pd2_4 N4_4 1_555 1_555
Pd3_4 N2_4 1_555 1_555
N2_4 C4_4 1_555 1_555
C6_4 C7_4 1_555 1_555
N4_4 C8_4 1_555 1_555
N5_3 Pd1_5 1_555 1_555
N6_3 Pd1_5 1_555 1_555
Pd1_6 N1_4 1_555 1_555
C1_5 N1_4 1_555 1_555
N1_4 C3_5 1_555 1_555
O1_5 C1_5 1_555 1_555
C3_5 C2_5 1_555 1_555
H1_5 C3_5 1_555 1_555
N2_5 C1_5 1_555 1_555
C4_5 C2_5 1_555 1_555
H2_5 C4_5 1_555 1_555
C5_5 N3_4 1_555 1_555
N3_4 Pd1_6 1_555 1_555
O2_5 C5_5 1_555 1_555
C6_5 F2_2 1_555 1_555
C7_5 N3_4 1_555 1_555
H3_5 C7_5 1_555 1_555
N4_5 C5_5 1_555 1_555
C8_5 C6_5 1_555 1_555
H4_5 C8_5 1_555 1_555
Pd3_4 N4_5 1_555 1_555
Pd2_4 N2_5 1_555 1_555
N5_4 Pd1_6 1_555 1_555
N6_4 Pd1_6 1_555 1_555
N2_5 C4_5 1_555 1_555
C6_5 C7_5 1_555 1_555
N4_5 C8_5 1_555 1_555
C1_6 N5 1_555 1_555
N5 C3_6 1_555 1_555
O1_6 C1_6 1_555 1_555
C2_6 F1_4 1_555 1_555
C3_6 C2_6 1_555 1_555
H1_6 C3_6 1_555 1_555
N2_6 C1_6 1_555 1_555
C4_6 C2_6 1_555 1_555
H2_6 C4_6 1_555 1_555
C5_6 N6 1_555 1_555
O2_6 C5_6 1_555 1_555
C7_6 N6 1_555 1_555
H3_6 C7_6 1_555 1_555
N4_6 C5_6 1_555 1_555
C8_6 C6_6 1_555 1_555
H4_6 C8_6 1_555 1_555
Pd3_2 N4_6 1_555 1_555
Pd2_3 N2_6 1_555 1_555
N2_6 C4_6 1_555 1_555
C6_6 C7_6 1_555 1_555
N4_6 C8_6 1_555 1_555
C1_7 N6_4 1_555 1_555
N6_4 C3_7 1_555 1_555
O1_7 C1_7 1_555 1_555
C2_7 F1_5 1_555 1_555
C3_7 C2_7 1_555 1_555
H1_7 C3_7 1_555 1_555
N2_7 C1_7 1_555 1_555
C4_7 C2_7 1_555 1_555
H2_7 C4_7 1_555 1_555
C5_7 N5_4 1_555 1_555
O2_7 C5_7 1_555 1_555
C7_7 N5_4 1_555 1_555
H3_7 C7_7 1_555 1_555
N4_7 C5_7 1_555 1_555
C8_7 C6_7 1_555 1_555
H4_7 C8_7 1_555 1_555
Pd3_3 N4_7 1_555 1_555
Pd2_3 N2_7 1_555 1_555
N2_7 C4_7 1_555 1_555
C6_7 C7_7 1_555 1_555
N4_7 C8_7 1_555 1_555
Pd1_7 N1_5 1_555 1_555
C1_8 N1_5 1_555 1_555
N1_5 C3_8 1_555 1_555
O1_8 C1_8 1_555 1_555
C2_8 F1_6 1_555 1_555
C3_8 C2_8 1_555 1_555
H1_8 C3_8 1_555 1_555
N2_8 C1_8 1_555 1_555
C4_8 C2_8 1_555 1_555
H2_8 C4_8 1_555 1_555
C5_8 N3_5 1_555 1_555
N3_5 Pd1_7 1_555 1_555
O2_8 C5_8 1_555 1_555
C7_8 N3_5 1_555 1_555
H3_8 C7_8 1_555 1_555
N4_8 C5_8 1_555 1_555
C8_8 C6_8 1_555 1_555
H4_8 C8_8 1_555 1_555
Pd2_5 N4_8 1_555 1_555
Pd3_4 N2_8 1_555 1_555
N5_5 Pd1_7 1_555 1_555
N6_5 Pd1_7 1_555 1_555
N2_8 C4_8 1_555 1_555
C6_8 C7_8 1_555 1_555
N4_8 C8_8 1_555 1_555
C1_9 N5_5 1_555 1_555
N5_5 C3_9 1_555 1_555
O1_9 C1_9 1_555 1_555
C2_9 F1_7 1_555 1_555
C3_9 C2_9 1_555 1_555
H1_9 C3_9 1_555 1_555
N2_9 C1_9 1_555 1_555
C4_9 C2_9 1_555 1_555
H2_9 C4_9 1_555 1_555
C5_9 N6_5 1_555 1_555
O2_9 C5_9 1_555 1_555
C7_9 N6_5 1_555 1_555
H3_9 C7_9 1_555 1_555
N4_9 C5_9 1_555 1_555
C8_9 C6_9 1_555 1_555
H4_9 C8_9 1_555 1_555
Pd2 N4_9 1_555 1_555
Pd3 N2_9 1_555 1_555
N2_9 C4_9 1_555 1_555
C6_9 C7_9 1_555 1_555
N4_9 C8_9 1_555 1_555
N5_6 Pd1_8 1_555 1_555
N6_6 Pd1_8 1_555 1_555
Pd1_9 N1_6 1_555 1_555
C1_10 N1_6 1_555 1_555
N1_6 C3_10 1_555 1_555
O1_10 C1_10 1_555 1_555
C2_10 F1_8 1_555 1_555
C3_10 C2_10 1_555 1_555
H1_10 C3_10 1_555 1_555
N2_10 C1_10 1_555 1_555
C4_10 C2_10 1_555 1_555
H2_10 C4_10 1_555 1_555
C5_10 N3_6 1_555 1_555
N3_6 Pd1_9 1_555 1_555
O2_10 C5_10 1_555 1_555
C7_10 N3_6 1_555 1_555
H3_10 C7_10 1_555 1_555
N4_10 C5_10 1_555 1_555
C8_10 C6_10 1_555 1_555
H4_10 C8_10 1_555 1_555
Pd3_4 N4_10 1_555 1_555
Pd2_5 N2_10 1_555 1_555
N2_10 C4_10 1_555 1_555
C6_10 C7_10 1_555 1_555
N4_10 C8_10 1_555 1_555
C1_11 N6_3 1_555 1_555
N6_3 C3_11 1_555 1_555
O1_11 C1_11 1_555 1_555
C3_11 C2_11 1_555 1_555
H1_11 C3_11 1_555 1_555
N2_11 C1_11 1_555 1_555
C4_11 C2_11 1_555 1_555
H2_11 C4_11 1_555 1_555
C5_11 N5_3 1_555 1_555
O2_11 C5_11 1_555 1_555
C6_11 F2_3 1_555 1_555
C7_11 N5_3 1_555 1_555
H3_11 C7_11 1_555 1_555
N4_11 C5_11 1_555 1_555
C8_11 C6_11 1_555 1_555
H4_11 C8_11 1_555 1_555
Pd3_3 N4_11 1_555 1_555
Pd2_3 N2_11 1_555 1_555
N2_11 C4_11 1_555 1_555
C6_11 C7_11 1_555 1_555
N4_11 C8_11 1_555 1_555
C1_12 N5_6 1_555 1_555
N5_6 C3_12 1_555 1_555
O1_12 C1_12 1_555 1_555
C3_12 C2_12 1_555 1_555
H1_12 C3_12 1_555 1_555
N2_12 C1_12 1_555 1_555
C4_12 C2_12 1_555 1_555
H2_12 C4_12 1_555 1_555
C5_12 N6_6 1_555 1_555
O2_12 C5_12 1_555 1_555
C6_12 F2_4 1_555 1_555
C7_12 N6_6 1_555 1_555
H3_12 C7_12 1_555 1_555
N4_12 C5_12 1_555 1_555
C8_12 C6_12 1_555 1_555
H4_12 C8_12 1_555 1_555
Pd2 N4_12 1_555 1_555
Pd3 N2_12 1_555 1_555
N2_12 C4_12 1_555 1_555
C6_12 C7_12 1_555 1_555
N4_12 C8_12 1_555 1_555

#END
