
###############################################################################
#
# This file contains modified crystal structure data generated from the
# MOF subset of the Cambridge Structural Database (CSD) v543 
# hosted by the Cambridge Crystallographic Data Centre (CCDC).
#
# This work is licensed under the Creative Commons
# Attribution-NonCommercial-ShareAlike 4.0 International License.
# To view a copy of this license, visit
# http://creativecommons.org/licenses/by-nc-sa/4.0/
# or send a letter to
# Creative Commons, PO Box 1866, Mountain View, CA 94042, USA.
#
# CIF created using the CSD Python API on 29 September 2022
# The structure has been converted into the P1 space group
# The structure has a 3D framework
# The original CSD entry OFERUN03 is in the cubic crystal system
# The framework has been calculated to contain at least 10.0% void space
# The void calculation uses a probe of radius 1.32A, grid spacing 0.4
#
###############################################################################

data_OFERUN03
_chemical_formula_moiety         '(C96 H120 N48 Zn16)n'
_symmetry_cell_setting           triclinic
_symmetry_space_group_name_H-M   'P 1'
_symmetry_Int_Tables_number      1
_space_group_name_Hall           'P 1'
loop_
_symmetry_equiv_pos_site_id
_symmetry_equiv_pos_as_xyz
1 x,y,z
_cell_length_a                   16.993220(18)
_cell_length_b                   16.993220(18)
_cell_length_c                   16.993220(18)
_cell_angle_alpha                90
_cell_angle_beta                 90
_cell_angle_gamma                90
_cell_volume                     4907.12
loop_
_atom_site_label
_atom_site_type_symbol
_atom_site_fract_x
_atom_site_fract_y
_atom_site_fract_z
_atom_site_U_iso_or_equiv
_atom_site_thermal_displace_type
Zn5 Zn 0.50000 0.25000 0.00000 0.0219 Uiso
Zn1 Zn 0.50000 0.00000 0.75000 0.0219 Uiso
C2 C 0.62990(16) 0.10304(15) 0.68675(14) 0.0260 Uiso
N1 N 0.58999(13) 0.03262(12) 0.68309(13) 0.0198 Uiso
H1 H 0.62259(83) 0.14346(56) 0.72281(54) 0.0363 Uiso
Zn2 Zn 0.75000 0.00000 0.50000 0.0219 Uiso
Zn3 Zn 0.25000 0.00000 0.50000 0.0219 Uiso
Zn5_2 Zn 0.50000 0.25000 1.00000 0.0219 Uiso
C4 C 0.37711(15) 0.00113(46) 0.62289(15) 0.0239 Uiso
C6 C 0.50113(46) 0.12289(15) 0.87711(15) 0.0239 Uiso
C7 C 0.68675(14) 0.10304(15) 0.62990(16) 0.0260 Uiso
C12 C 0.39696(15) 0.12990(16) 0.81325(14) 0.0260 Uiso
C13 C 0.39696(15) 0.18675(14) 0.87010(16) 0.0260 Uiso
C14 C 0.40417(14) 0.08456(27) 0.59583(14) 0.0270 Uiso
C16 C 0.58456(27) 0.09583(14) 0.90417(14) 0.0270 Uiso
N2 N 0.68309(13) 0.03262(12) 0.58999(13) 0.0198 Uiso
N7 N 0.46738(12) 0.08999(13) 0.81691(13) 0.0198 Uiso
N8 N 0.46738(12) 0.18309(13) 0.91001(13) 0.0198 Uiso
N9 N 0.31691(13) 0.03262(12) 0.41001(13) 0.0198 Uiso
N10 N 0.18309(13) 0.08999(13) 0.53262(12) 0.0198 Uiso
H4 H 0.72281(54) 0.14346(56) 0.62259(83) 0.0363 Uiso
H9 H 0.35654(56) 0.12259(83) 0.77719(54) 0.0363 Uiso
H10 H 0.35654(56) 0.22281(54) 0.87741(83) 0.0363 Uiso
H12 H 0.42530(50) 0.11939(56) 0.63824(53) 0.0363 Uiso
H13 H 0.36176(53) 0.11939(56) 0.57470(50) 0.0363 Uiso
H16 H 0.61939(56) 0.07470(50) 0.86176(53) 0.0363 Uiso
H17 H 0.61939(56) 0.13824(53) 0.92530(50) 0.0363 Uiso
H18 H 0.44154(62) 0.08251(82) 0.55846(62) 0.0363 Uiso
H20 H 0.58251(82) 0.05846(62) 0.94154(62) 0.0363 Uiso
Zn4 Zn 0.50000 0.75000 0.00000 0.0219 Uiso
Zn1_2 Zn 0.50000 1.00000 0.75000 0.0219 Uiso
C1 C 0.62289(15) 0.99887(46) 0.62289(15) 0.0239 Uiso
C3 C 0.59583(14) 0.91544(27) 0.59583(14) 0.0270 Uiso
H2 H 0.57470(50) 0.88061(56) 0.63824(53) 0.0363 Uiso
H3 H 0.55846(62) 0.91749(82) 0.55846(62) 0.0363 Uiso
Zn2_2 Zn 0.75000 1.00000 0.50000 0.0219 Uiso
Zn3_2 Zn 0.25000 1.00000 0.50000 0.0219 Uiso
Zn4_2 Zn 0.50000 0.75000 1.00000 0.0219 Uiso
C5 C 0.49887(46) 0.87711(15) 0.87711(15) 0.0239 Uiso
C8 C 0.37010(16) 0.89696(15) 0.68675(14) 0.0260 Uiso
C9 C 0.31325(14) 0.89696(15) 0.62990(16) 0.0260 Uiso
C10 C 0.60304(15) 0.87010(16) 0.81325(14) 0.0260 Uiso
C11 C 0.60304(15) 0.81325(14) 0.87010(16) 0.0260 Uiso
C15 C 0.41544(27) 0.90417(14) 0.90417(14) 0.0270 Uiso
N3 N 0.41001(13) 0.96738(12) 0.68309(13) 0.0198 Uiso
N4 N 0.31691(13) 0.96738(12) 0.58999(13) 0.0198 Uiso
N5 N 0.53262(12) 0.91001(13) 0.81691(13) 0.0198 Uiso
N6 N 0.53262(12) 0.81691(13) 0.91001(13) 0.0198 Uiso
N11 N 0.18309(13) 0.91001(13) 0.46738(12) 0.0198 Uiso
H5 H 0.37741(83) 0.85654(56) 0.72281(54) 0.0363 Uiso
H6 H 0.27719(54) 0.85654(56) 0.62259(83) 0.0363 Uiso
H7 H 0.64346(56) 0.87741(83) 0.77719(54) 0.0363 Uiso
H8 H 0.64346(56) 0.77719(54) 0.87741(83) 0.0363 Uiso
H11 H 0.63824(53) 0.88061(56) 0.57470(50) 0.0363 Uiso
H14 H 0.38061(56) 0.92530(50) 0.86176(53) 0.0363 Uiso
H15 H 0.38061(56) 0.86176(53) 0.92530(50) 0.0363 Uiso
H19 H 0.41749(82) 0.94154(62) 0.94154(62) 0.0363 Uiso
N11_2 N 0.81691(13) 0.08999(13) 0.46738(12) 0.0198 Uiso
N9_2 N 0.68309(13) 0.96738(12) 0.41001(13) 0.0198 Uiso
N10_2 N 0.81691(13) 0.91001(13) 0.53262(12) 0.0198 Uiso
C2_2 C 0.37010(16) 0.31325(14) 0.10304(15) 0.0260 Uiso
N1_2 N 0.41001(13) 0.31691(13) 0.03262(12) 0.0198 Uiso
H1_2 H 0.37741(83) 0.27719(54) 0.14346(56) 0.0363 Uiso
Zn2_3 Zn 0.25000 0.50000 0.00000 0.0219 Uiso
Zn3_3 Zn 0.75000 0.50000 0.00000 0.0219 Uiso
Zn5_3 Zn 0.50000 0.00000 0.25000 0.0219 Uiso
C4_2 C 0.62289(15) 0.37711(15) 0.00113(46) 0.0239 Uiso
C6_2 C 0.49887(46) 0.12289(15) 0.12289(15) 0.0239 Uiso
C7_2 C 0.31325(14) 0.37010(16) 0.10304(15) 0.0260 Uiso
C12_2 C 0.60304(15) 0.18675(14) 0.12990(16) 0.0260 Uiso
C13_2 C 0.60304(15) 0.12990(16) 0.18675(14) 0.0260 Uiso
C14_2 C 0.59583(14) 0.40417(14) 0.08456(27) 0.0270 Uiso
C16_2 C 0.41544(27) 0.09583(14) 0.09583(14) 0.0270 Uiso
N2_2 N 0.31691(13) 0.41001(13) 0.03262(12) 0.0198 Uiso
N7_2 N 0.53262(12) 0.18309(13) 0.08999(13) 0.0198 Uiso
N8_2 N 0.53262(12) 0.08999(13) 0.18309(13) 0.0198 Uiso
N9_3 N 0.68309(13) 0.58999(13) 0.03262(12) 0.0198 Uiso
N10_3 N 0.81691(13) 0.46738(12) 0.08999(13) 0.0198 Uiso
H4_2 H 0.27719(54) 0.37741(83) 0.14346(56) 0.0363 Uiso
H9_2 H 0.64346(56) 0.22281(54) 0.12259(83) 0.0363 Uiso
H10_2 H 0.64346(56) 0.12259(83) 0.22281(54) 0.0363 Uiso
H12_2 H 0.57470(50) 0.36176(53) 0.11939(56) 0.0363 Uiso
H13_2 H 0.63824(53) 0.42530(50) 0.11939(56) 0.0363 Uiso
H16_2 H 0.38061(56) 0.13824(53) 0.07470(50) 0.0363 Uiso
H17_2 H 0.38061(56) 0.07470(50) 0.13824(53) 0.0363 Uiso
H18_2 H 0.55846(62) 0.44154(62) 0.08251(82) 0.0363 Uiso
H20_2 H 0.41749(82) 0.05846(62) 0.05846(62) 0.0363 Uiso
C1_2 C 0.37711(15) 0.37711(15) 0.99887(46) 0.0239 Uiso
C3_2 C 0.40417(14) 0.40417(14) 0.91544(27) 0.0270 Uiso
H2_2 H 0.42530(50) 0.36176(53) 0.88061(56) 0.0363 Uiso
H3_2 H 0.44154(62) 0.44154(62) 0.91749(82) 0.0363 Uiso
Zn2_4 Zn 0.25000 0.50000 1.00000 0.0219 Uiso
Zn3_4 Zn 0.75000 0.50000 1.00000 0.0219 Uiso
C8_2 C 0.62990(16) 0.31325(14) 0.89696(15) 0.0260 Uiso
C9_2 C 0.68675(14) 0.37010(16) 0.89696(15) 0.0260 Uiso
N3_2 N 0.58999(13) 0.31691(13) 0.96738(12) 0.0198 Uiso
N4_2 N 0.68309(13) 0.41001(13) 0.96738(12) 0.0198 Uiso
N11_3 N 0.81691(13) 0.53262(12) 0.91001(13) 0.0198 Uiso
H5_2 H 0.62259(83) 0.27719(54) 0.85654(56) 0.0363 Uiso
H6_2 H 0.72281(54) 0.37741(83) 0.85654(56) 0.0363 Uiso
H11_2 H 0.36176(53) 0.42530(50) 0.88061(56) 0.0363 Uiso
Zn5_4 Zn 0.50000 1.00000 0.25000 0.0219 Uiso
C1_3 C 0.37711(15) 0.62289(15) 0.00113(46) 0.0239 Uiso
C3_3 C 0.40417(14) 0.59583(14) 0.08456(27) 0.0270 Uiso
H2_3 H 0.42530(50) 0.63824(53) 0.11939(56) 0.0363 Uiso
H3_3 H 0.44154(62) 0.55846(62) 0.08251(82) 0.0363 Uiso
C5_2 C 0.50113(46) 0.87711(15) 0.12289(15) 0.0239 Uiso
C8_3 C 0.62990(16) 0.68675(14) 0.10304(15) 0.0260 Uiso
C9_3 C 0.68675(14) 0.62990(16) 0.10304(15) 0.0260 Uiso
C10_2 C 0.39696(15) 0.81325(14) 0.12990(16) 0.0260 Uiso
C11_2 C 0.39696(15) 0.87010(16) 0.18675(14) 0.0260 Uiso
C15_2 C 0.58456(27) 0.90417(14) 0.09583(14) 0.0270 Uiso
N3_3 N 0.58999(13) 0.68309(13) 0.03262(12) 0.0198 Uiso
N5_2 N 0.46738(12) 0.81691(13) 0.08999(13) 0.0198 Uiso
N6_2 N 0.46738(12) 0.91001(13) 0.18309(13) 0.0198 Uiso
H5_3 H 0.62259(83) 0.72281(54) 0.14346(56) 0.0363 Uiso
H6_3 H 0.72281(54) 0.62259(83) 0.14346(56) 0.0363 Uiso
H7_2 H 0.35654(56) 0.77719(54) 0.12259(83) 0.0363 Uiso
H8_2 H 0.35654(56) 0.87741(83) 0.22281(54) 0.0363 Uiso
H11_3 H 0.36176(53) 0.57470(50) 0.11939(56) 0.0363 Uiso
H14_2 H 0.61939(56) 0.86176(53) 0.07470(50) 0.0363 Uiso
H15_2 H 0.61939(56) 0.92530(50) 0.13824(53) 0.0363 Uiso
H19_2 H 0.58251(82) 0.94154(62) 0.05846(62) 0.0363 Uiso
C2_3 C 0.37010(16) 0.68675(14) 0.89696(15) 0.0260 Uiso
N1_3 N 0.41001(13) 0.68309(13) 0.96738(12) 0.0198 Uiso
H1_3 H 0.37741(83) 0.72281(54) 0.85654(56) 0.0363 Uiso
C4_3 C 0.62289(15) 0.62289(15) 0.99887(46) 0.0239 Uiso
C7_3 C 0.31325(14) 0.62990(16) 0.89696(15) 0.0260 Uiso
C14_3 C 0.59583(14) 0.59583(14) 0.91544(27) 0.0270 Uiso
N2_3 N 0.31691(13) 0.58999(13) 0.96738(12) 0.0198 Uiso
H4_3 H 0.27719(54) 0.62259(83) 0.85654(56) 0.0363 Uiso
H12_3 H 0.57470(50) 0.63824(53) 0.88061(56) 0.0363 Uiso
H13_3 H 0.63824(53) 0.57470(50) 0.88061(56) 0.0363 Uiso
H18_3 H 0.55846(62) 0.55846(62) 0.91749(82) 0.0363 Uiso
C2_4 C 0.37010(16) 0.10304(15) 0.31325(14) 0.0260 Uiso
N1_4 N 0.41001(13) 0.03262(12) 0.31691(13) 0.0198 Uiso
H1_4 H 0.37741(83) 0.14346(56) 0.27719(54) 0.0363 Uiso
C4_4 C 0.62289(15) 0.00113(46) 0.37711(15) 0.0239 Uiso
C7_4 C 0.31325(14) 0.10304(15) 0.37010(16) 0.0260 Uiso
C14_4 C 0.59583(14) 0.08456(27) 0.40417(14) 0.0270 Uiso
H4_4 H 0.27719(54) 0.14346(56) 0.37741(83) 0.0363 Uiso
H12_4 H 0.57470(50) 0.11939(56) 0.36176(53) 0.0363 Uiso
H13_4 H 0.63824(53) 0.11939(56) 0.42530(50) 0.0363 Uiso
H18_4 H 0.55846(62) 0.08251(82) 0.44154(62) 0.0363 Uiso
C1_4 C 0.37711(15) 0.99887(46) 0.37711(15) 0.0239 Uiso
C3_4 C 0.40417(14) 0.91544(27) 0.40417(14) 0.0270 Uiso
H2_4 H 0.42530(50) 0.88061(56) 0.36176(53) 0.0363 Uiso
H3_4 H 0.44154(62) 0.91749(82) 0.44154(62) 0.0363 Uiso
C8_4 C 0.62990(16) 0.89696(15) 0.31325(14) 0.0260 Uiso
C9_4 C 0.68675(14) 0.89696(15) 0.37010(16) 0.0260 Uiso
N3_4 N 0.58999(13) 0.96738(12) 0.31691(13) 0.0198 Uiso
H5_4 H 0.62259(83) 0.85654(56) 0.27719(54) 0.0363 Uiso
H6_4 H 0.72281(54) 0.85654(56) 0.37741(83) 0.0363 Uiso
H11_4 H 0.36176(53) 0.88061(56) 0.42530(50) 0.0363 Uiso
Zn1_3 Zn 0.00000 0.50000 0.75000 0.0219 Uiso
C1_5 C 0.00113(46) 0.37711(15) 0.62289(15) 0.0239 Uiso
C3_5 C 0.08456(27) 0.40417(14) 0.59583(14) 0.0270 Uiso
H2_5 H 0.11939(56) 0.42530(50) 0.63824(53) 0.0363 Uiso
H3_5 H 0.08251(82) 0.44154(62) 0.55846(62) 0.0363 Uiso
Zn2_5 Zn 0.00000 0.25000 0.50000 0.0219 Uiso
Zn3_5 Zn 0.00000 0.75000 0.50000 0.0219 Uiso
C5_3 C 0.12289(15) 0.50113(46) 0.87711(15) 0.0239 Uiso
C8_5 C 0.10304(15) 0.62990(16) 0.68675(14) 0.0260 Uiso
C9_5 C 0.10304(15) 0.68675(14) 0.62990(16) 0.0260 Uiso
C10_3 C 0.12990(16) 0.39696(15) 0.81325(14) 0.0260 Uiso
C11_3 C 0.18675(14) 0.39696(15) 0.87010(16) 0.0260 Uiso
C15_3 C 0.09583(14) 0.58456(27) 0.90417(14) 0.0270 Uiso
N3_5 N 0.03262(12) 0.58999(13) 0.68309(13) 0.0198 Uiso
N4_3 N 0.03262(12) 0.68309(13) 0.58999(13) 0.0198 Uiso
N5_3 N 0.08999(13) 0.46738(12) 0.81691(13) 0.0198 Uiso
N6_3 N 0.18309(13) 0.46738(12) 0.91001(13) 0.0198 Uiso
N11_4 N 0.08999(13) 0.81691(13) 0.46738(12) 0.0198 Uiso
H5_5 H 0.14346(56) 0.62259(83) 0.72281(54) 0.0363 Uiso
H6_5 H 0.14346(56) 0.72281(54) 0.62259(83) 0.0363 Uiso
H7_3 H 0.12259(83) 0.35654(56) 0.77719(54) 0.0363 Uiso
H8_3 H 0.22281(54) 0.35654(56) 0.87741(83) 0.0363 Uiso
H11_5 H 0.11939(56) 0.36176(53) 0.57470(50) 0.0363 Uiso
H14_3 H 0.07470(50) 0.61939(56) 0.86176(53) 0.0363 Uiso
H15_3 H 0.13824(53) 0.61939(56) 0.92530(50) 0.0363 Uiso
H19_3 H 0.05846(62) 0.58251(82) 0.94154(62) 0.0363 Uiso
Zn1_4 Zn 1.00000 0.50000 0.75000 0.0219 Uiso
C2_5 C 0.89696(15) 0.37010(16) 0.68675(14) 0.0260 Uiso
N1_5 N 0.96738(12) 0.41001(13) 0.68309(13) 0.0198 Uiso
H1_5 H 0.85654(56) 0.37741(83) 0.72281(54) 0.0363 Uiso
Zn2_6 Zn 1.00000 0.25000 0.50000 0.0219 Uiso
Zn3_6 Zn 1.00000 0.75000 0.50000 0.0219 Uiso
C4_5 C 0.99887(46) 0.62289(15) 0.62289(15) 0.0239 Uiso
C6_3 C 0.87711(15) 0.49887(46) 0.87711(15) 0.0239 Uiso
C7_5 C 0.89696(15) 0.31325(14) 0.62990(16) 0.0260 Uiso
C12_3 C 0.87010(16) 0.60304(15) 0.81325(14) 0.0260 Uiso
C13_3 C 0.81325(14) 0.60304(15) 0.87010(16) 0.0260 Uiso
C14_5 C 0.91544(27) 0.59583(14) 0.59583(14) 0.0270 Uiso
C16_3 C 0.90417(14) 0.41544(27) 0.90417(14) 0.0270 Uiso
N2_4 N 0.96738(12) 0.31691(13) 0.58999(13) 0.0198 Uiso
N7_3 N 0.91001(13) 0.53262(12) 0.81691(13) 0.0198 Uiso
N9_4 N 0.96738(12) 0.68309(13) 0.41001(13) 0.0198 Uiso
N10_4 N 0.91001(13) 0.81691(13) 0.53262(12) 0.0198 Uiso
H4_5 H 0.85654(56) 0.27719(54) 0.62259(83) 0.0363 Uiso
H9_3 H 0.87741(83) 0.64346(56) 0.77719(54) 0.0363 Uiso
H10_3 H 0.77719(54) 0.64346(56) 0.87741(83) 0.0363 Uiso
H12_5 H 0.88061(56) 0.57470(50) 0.63824(53) 0.0363 Uiso
H13_5 H 0.88061(56) 0.63824(53) 0.57470(50) 0.0363 Uiso
H16_3 H 0.92530(50) 0.38061(56) 0.86176(53) 0.0363 Uiso
H17_3 H 0.86176(53) 0.38061(56) 0.92530(50) 0.0363 Uiso
H18_5 H 0.91749(82) 0.55846(62) 0.55846(62) 0.0363 Uiso
H20_3 H 0.94154(62) 0.41749(82) 0.94154(62) 0.0363 Uiso
Zn3_7 Zn 0.00000 0.50000 0.25000 0.0219 Uiso
C5_4 C 0.12289(15) 0.12289(15) 0.49887(46) 0.0239 Uiso
C8_6 C 0.10304(15) 0.31325(14) 0.37010(16) 0.0260 Uiso
C9_6 C 0.10304(15) 0.37010(16) 0.31325(14) 0.0260 Uiso
C10_4 C 0.12990(16) 0.18675(14) 0.60304(15) 0.0260 Uiso
C11_4 C 0.18675(14) 0.12990(16) 0.60304(15) 0.0260 Uiso
C15_4 C 0.09583(14) 0.09583(14) 0.41544(27) 0.0270 Uiso
N3_6 N 0.03262(12) 0.31691(13) 0.41001(13) 0.0198 Uiso
N4_4 N 0.03262(12) 0.41001(13) 0.31691(13) 0.0198 Uiso
N5_4 N 0.08999(13) 0.18309(13) 0.53262(12) 0.0198 Uiso
N11_5 N 0.08999(13) 0.53262(12) 0.18309(13) 0.0198 Uiso
H5_6 H 0.14346(56) 0.27719(54) 0.37741(83) 0.0363 Uiso
H6_6 H 0.14346(56) 0.37741(83) 0.27719(54) 0.0363 Uiso
H7_4 H 0.12259(83) 0.22281(54) 0.64346(56) 0.0363 Uiso
H8_4 H 0.22281(54) 0.12259(83) 0.64346(56) 0.0363 Uiso
H14_4 H 0.07470(50) 0.13824(53) 0.38061(56) 0.0363 Uiso
H15_4 H 0.13824(53) 0.07470(50) 0.38061(56) 0.0363 Uiso
H19_4 H 0.05846(62) 0.05846(62) 0.41749(82) 0.0363 Uiso
Zn3_8 Zn 1.00000 0.50000 0.25000 0.0219 Uiso
C4_6 C 0.99887(46) 0.37711(15) 0.37711(15) 0.0239 Uiso
C6_4 C 0.87711(15) 0.12289(15) 0.50113(46) 0.0239 Uiso
C12_4 C 0.87010(16) 0.18675(14) 0.39696(15) 0.0260 Uiso
C13_4 C 0.81325(14) 0.12990(16) 0.39696(15) 0.0260 Uiso
C14_6 C 0.91544(27) 0.40417(14) 0.40417(14) 0.0270 Uiso
C16_4 C 0.90417(14) 0.09583(14) 0.58456(27) 0.0270 Uiso
N7_4 N 0.91001(13) 0.18309(13) 0.46738(12) 0.0198 Uiso
N9_5 N 0.96738(12) 0.58999(13) 0.31691(13) 0.0198 Uiso
N10_5 N 0.91001(13) 0.46738(12) 0.18309(13) 0.0198 Uiso
H9_4 H 0.87741(83) 0.22281(54) 0.35654(56) 0.0363 Uiso
H10_4 H 0.77719(54) 0.12259(83) 0.35654(56) 0.0363 Uiso
H12_6 H 0.88061(56) 0.36176(53) 0.42530(50) 0.0363 Uiso
H13_6 H 0.88061(56) 0.42530(50) 0.36176(53) 0.0363 Uiso
H16_4 H 0.92530(50) 0.13824(53) 0.61939(56) 0.0363 Uiso
H17_4 H 0.86176(53) 0.07470(50) 0.61939(56) 0.0363 Uiso
H18_6 H 0.91749(82) 0.44154(62) 0.44154(62) 0.0363 Uiso
H20_4 H 0.94154(62) 0.05846(62) 0.58251(82) 0.0363 Uiso
C1_6 C 0.00113(46) 0.62289(15) 0.37711(15) 0.0239 Uiso
C3_6 C 0.08456(27) 0.59583(14) 0.40417(14) 0.0270 Uiso
H2_6 H 0.11939(56) 0.63824(53) 0.42530(50) 0.0363 Uiso
H3_6 H 0.08251(82) 0.55846(62) 0.44154(62) 0.0363 Uiso
C5_5 C 0.12289(15) 0.87711(15) 0.50113(46) 0.0239 Uiso
C10_5 C 0.12990(16) 0.81325(14) 0.39696(15) 0.0260 Uiso
C11_5 C 0.18675(14) 0.87010(16) 0.39696(15) 0.0260 Uiso
C15_5 C 0.09583(14) 0.90417(14) 0.58456(27) 0.0270 Uiso
H7_5 H 0.12259(83) 0.77719(54) 0.35654(56) 0.0363 Uiso
H8_5 H 0.22281(54) 0.87741(83) 0.35654(56) 0.0363 Uiso
H11_6 H 0.11939(56) 0.57470(50) 0.36176(53) 0.0363 Uiso
H14_5 H 0.07470(50) 0.86176(53) 0.61939(56) 0.0363 Uiso
H15_5 H 0.13824(53) 0.92530(50) 0.61939(56) 0.0363 Uiso
H19_5 H 0.05846(62) 0.94154(62) 0.58251(82) 0.0363 Uiso
C2_6 C 0.89696(15) 0.68675(14) 0.37010(16) 0.0260 Uiso
H1_6 H 0.85654(56) 0.72281(54) 0.37741(83) 0.0363 Uiso
C6_5 C 0.87711(15) 0.87711(15) 0.49887(46) 0.0239 Uiso
C7_6 C 0.89696(15) 0.62990(16) 0.31325(14) 0.0260 Uiso
C12_5 C 0.87010(16) 0.81325(14) 0.60304(15) 0.0260 Uiso
C13_5 C 0.81325(14) 0.87010(16) 0.60304(15) 0.0260 Uiso
C16_5 C 0.90417(14) 0.90417(14) 0.41544(27) 0.0270 Uiso
H4_6 H 0.85654(56) 0.62259(83) 0.27719(54) 0.0363 Uiso
H9_5 H 0.87741(83) 0.77719(54) 0.64346(56) 0.0363 Uiso
H10_5 H 0.77719(54) 0.87741(83) 0.64346(56) 0.0363 Uiso
H16_5 H 0.92530(50) 0.86176(53) 0.38061(56) 0.0363 Uiso
H17_5 H 0.86176(53) 0.92530(50) 0.38061(56) 0.0363 Uiso
H20_5 H 0.94154(62) 0.94154(62) 0.41749(82) 0.0363 Uiso
C5_6 C 0.12289(15) 0.49887(46) 0.12289(15) 0.0239 Uiso
C10_6 C 0.12990(16) 0.60304(15) 0.18675(14) 0.0260 Uiso
C11_6 C 0.18675(14) 0.60304(15) 0.12990(16) 0.0260 Uiso
C15_6 C 0.09583(14) 0.41544(27) 0.09583(14) 0.0270 Uiso
N6_4 N 0.18309(13) 0.53262(12) 0.08999(13) 0.0198 Uiso
H7_6 H 0.12259(83) 0.64346(56) 0.22281(54) 0.0363 Uiso
H8_6 H 0.22281(54) 0.64346(56) 0.12259(83) 0.0363 Uiso
H14_6 H 0.07470(50) 0.38061(56) 0.13824(53) 0.0363 Uiso
H15_6 H 0.13824(53) 0.38061(56) 0.07470(50) 0.0363 Uiso
H19_6 H 0.05846(62) 0.41749(82) 0.05846(62) 0.0363 Uiso
C6_6 C 0.87711(15) 0.50113(46) 0.12289(15) 0.0239 Uiso
C12_6 C 0.87010(16) 0.39696(15) 0.18675(14) 0.0260 Uiso
C13_6 C 0.81325(14) 0.39696(15) 0.12990(16) 0.0260 Uiso
C16_6 C 0.90417(14) 0.58456(27) 0.09583(14) 0.0270 Uiso
H9_6 H 0.87741(83) 0.35654(56) 0.22281(54) 0.0363 Uiso
H10_6 H 0.77719(54) 0.35654(56) 0.12259(83) 0.0363 Uiso
H16_6 H 0.92530(50) 0.61939(56) 0.13824(53) 0.0363 Uiso
H17_6 H 0.86176(53) 0.61939(56) 0.07470(50) 0.0363 Uiso
H20_6 H 0.94154(62) 0.58251(82) 0.05846(62) 0.0363 Uiso
loop_
_geom_bond_atom_site_label_1
_geom_bond_atom_site_label_2
_geom_bond_site_symmetry_1
_geom_bond_site_symmetry_2
Zn1 N1 1_555 1_555
C2 N1 1_555 1_555
H1 C2 1_555 1_555
Zn2 N2 1_555 1_555
Zn5_2 N8 1_555 1_555
C4 C14 1_555 1_555
C6 C16 1_555 1_555
C7 C2 1_555 1_555
C12 C13 1_555 1_555
C13 N8 1_555 1_555
C14 H12 1_555 1_555
C16 H16 1_555 1_555
N7 Zn1 1_555 1_555
N8 C6 1_555 1_555
N9 Zn3 1_555 1_555
N10 Zn3 1_555 1_555
H4 C7 1_555 1_555
H9 C12 1_555 1_555
H10 C13 1_555 1_555
H13 C14 1_555 1_555
H17 C16 1_555 1_555
H18 C14 1_555 1_555
H20 C16 1_555 1_555
C6 N7 1_555 1_555
C7 N2 1_555 1_555
C12 N7 1_555 1_555
C1 C3 1_555 1_555
C3 H2 1_555 1_555
H3 C3 1_555 1_555
Zn3_2 N4 1_555 1_555
Zn4_2 N6 1_555 1_555
C5 C15 1_555 1_555
C8 C9 1_555 1_555
C9 N4 1_555 1_555
C10 C11 1_555 1_555
C11 N6 1_555 1_555
C15 H14 1_555 1_555
N3 Zn1_2 1_555 1_555
N5 Zn1_2 1_555 1_555
N6 C5 1_555 1_555
N11 Zn3_2 1_555 1_555
H5 C8 1_555 1_555
H6 C9 1_555 1_555
H7 C10 1_555 1_555
H8 C11 1_555 1_555
H11 C3 1_555 1_555
H15 C15 1_555 1_555
H19 C15 1_555 1_555
C5 N5 1_555 1_555
C8 N3 1_555 1_555
C10 N5 1_555 1_555
N11_2 Zn2 1_555 1_555
N9_2 Zn2_2 1_555 1_555
N10_2 Zn2_2 1_555 1_555
Zn5 N1_2 1_555 1_555
C2_2 N1_2 1_555 1_555
H1_2 C2_2 1_555 1_555
Zn2_3 N2_2 1_555 1_555
Zn5_3 N8_2 1_555 1_555
C4_2 C14_2 1_555 1_555
C6_2 C16_2 1_555 1_555
C7_2 C2_2 1_555 1_555
C12_2 C13_2 1_555 1_555
C13_2 N8_2 1_555 1_555
C14_2 H12_2 1_555 1_555
C16_2 H16_2 1_555 1_555
N7_2 Zn5 1_555 1_555
N8_2 C6_2 1_555 1_555
N9_3 Zn3_3 1_555 1_555
N10_3 Zn3_3 1_555 1_555
H4_2 C7_2 1_555 1_555
H9_2 C12_2 1_555 1_555
H10_2 C13_2 1_555 1_555
H13_2 C14_2 1_555 1_555
H17_2 C16_2 1_555 1_555
H18_2 C14_2 1_555 1_555
H20_2 C16_2 1_555 1_555
C6_2 N7_2 1_555 1_555
C7_2 N2_2 1_555 1_555
C12_2 N7_2 1_555 1_555
C1_2 C3_2 1_555 1_555
C3_2 H2_2 1_555 1_555
H3_2 C3_2 1_555 1_555
Zn3_4 N4_2 1_555 1_555
C8_2 C9_2 1_555 1_555
C9_2 N4_2 1_555 1_555
N3_2 Zn5_2 1_555 1_555
N11_3 Zn3_4 1_555 1_555
H5_2 C8_2 1_555 1_555
H6_2 C9_2 1_555 1_555
H11_2 C3_2 1_555 1_555
C8_2 N3_2 1_555 1_555
C1_3 C3_3 1_555 1_555
C3_3 H2_3 1_555 1_555
H3_3 C3_3 1_555 1_555
Zn5_4 N6_2 1_555 1_555
C5_2 C15_2 1_555 1_555
C8_3 C9_3 1_555 1_555
C9_3 N9_3 1_555 1_555
C10_2 C11_2 1_555 1_555
C11_2 N6_2 1_555 1_555
C15_2 H14_2 1_555 1_555
N3_3 Zn4 1_555 1_555
N5_2 Zn4 1_555 1_555
N6_2 C5_2 1_555 1_555
H5_3 C8_3 1_555 1_555
H6_3 C9_3 1_555 1_555
H7_2 C10_2 1_555 1_555
H8_2 C11_2 1_555 1_555
H11_3 C3_3 1_555 1_555
H15_2 C15_2 1_555 1_555
H19_2 C15_2 1_555 1_555
C5_2 N5_2 1_555 1_555
C8_3 N3_3 1_555 1_555
C10_2 N5_2 1_555 1_555
Zn4_2 N1_3 1_555 1_555
C2_3 N1_3 1_555 1_555
H1_3 C2_3 1_555 1_555
Zn2_4 N2_3 1_555 1_555
C4_3 C14_3 1_555 1_555
C7_3 C2_3 1_555 1_555
C14_3 H12_3 1_555 1_555
H4_3 C7_3 1_555 1_555
H13_3 C14_3 1_555 1_555
H18_3 C14_3 1_555 1_555
C7_3 N2_3 1_555 1_555
Zn5_3 N1_4 1_555 1_555
C2_4 N1_4 1_555 1_555
H1_4 C2_4 1_555 1_555
C4_4 C14_4 1_555 1_555
C7_4 C2_4 1_555 1_555
C14_4 H12_4 1_555 1_555
H4_4 C7_4 1_555 1_555
H13_4 C14_4 1_555 1_555
H18_4 C14_4 1_555 1_555
C7_4 N9 1_555 1_555
C1_4 C3_4 1_555 1_555
C3_4 H2_4 1_555 1_555
H3_4 C3_4 1_555 1_555
C8_4 C9_4 1_555 1_555
C9_4 N9_2 1_555 1_555
N3_4 Zn5_4 1_555 1_555
H5_4 C8_4 1_555 1_555
H6_4 C9_4 1_555 1_555
H11_4 C3_4 1_555 1_555
C8_4 N3_4 1_555 1_555
C1_5 C3_5 1_555 1_555
C3_5 H2_5 1_555 1_555
H3_5 C3_5 1_555 1_555
Zn3_5 N4_3 1_555 1_555
Zn2_4 N6_3 1_555 1_555
C5_3 C15_3 1_555 1_555
C8_5 C9_5 1_555 1_555
C9_5 N4_3 1_555 1_555
C10_3 C11_3 1_555 1_555
C11_3 N6_3 1_555 1_555
C15_3 H14_3 1_555 1_555
N3_5 Zn1_3 1_555 1_555
N5_3 Zn1_3 1_555 1_555
N6_3 C5_3 1_555 1_555
N11_4 Zn3_5 1_555 1_555
H5_5 C8_5 1_555 1_555
H6_5 C9_5 1_555 1_555
H7_3 C10_3 1_555 1_555
H8_3 C11_3 1_555 1_555
H11_5 C3_5 1_555 1_555
H15_3 C15_3 1_555 1_555
H19_3 C15_3 1_555 1_555
C5_3 N5_3 1_555 1_555
C8_5 N3_5 1_555 1_555
C10_3 N5_3 1_555 1_555
Zn1_4 N1_5 1_555 1_555
C2_5 N1_5 1_555 1_555
H1_5 C2_5 1_555 1_555
Zn2_6 N2_4 1_555 1_555
C4_5 C14_5 1_555 1_555
C6_3 C16_3 1_555 1_555
C7_5 C2_5 1_555 1_555
C12_3 C13_3 1_555 1_555
C13_3 N11_3 1_555 1_555
C14_5 H12_5 1_555 1_555
C16_3 H16_3 1_555 1_555
N7_3 Zn1_4 1_555 1_555
N11_3 C6_3 1_555 1_555
N9_4 Zn3_6 1_555 1_555
N10_4 Zn3_6 1_555 1_555
H4_5 C7_5 1_555 1_555
H9_3 C12_3 1_555 1_555
H10_3 C13_3 1_555 1_555
H13_5 C14_5 1_555 1_555
H17_3 C16_3 1_555 1_555
H18_5 C14_5 1_555 1_555
H20_3 C16_3 1_555 1_555
C6_3 N7_3 1_555 1_555
C7_5 N2_4 1_555 1_555
C12_3 N7_3 1_555 1_555
Zn3_7 N4_4 1_555 1_555
C5_4 C15_4 1_555 1_555
C8_6 C9_6 1_555 1_555
C9_6 N4_4 1_555 1_555
C10_4 C11_4 1_555 1_555
C11_4 N10 1_555 1_555
C15_4 H14_4 1_555 1_555
N3_6 Zn2_5 1_555 1_555
N5_4 Zn2_5 1_555 1_555
N10 C5_4 1_555 1_555
N11_5 Zn3_7 1_555 1_555
H5_6 C8_6 1_555 1_555
H6_6 C9_6 1_555 1_555
H7_4 C10_4 1_555 1_555
H8_4 C11_4 1_555 1_555
H15_4 C15_4 1_555 1_555
H19_4 C15_4 1_555 1_555
C5_4 N5_4 1_555 1_555
C8_6 N3_6 1_555 1_555
C10_4 N5_4 1_555 1_555
C4_6 C14_6 1_555 1_555
C6_4 C16_4 1_555 1_555
C12_4 C13_4 1_555 1_555
C13_4 N11_2 1_555 1_555
C14_6 H12_6 1_555 1_555
C16_4 H16_4 1_555 1_555
N7_4 Zn2_6 1_555 1_555
N11_2 C6_4 1_555 1_555
N9_5 Zn3_8 1_555 1_555
N10_5 Zn3_8 1_555 1_555
H9_4 C12_4 1_555 1_555
H10_4 C13_4 1_555 1_555
H13_6 C14_6 1_555 1_555
H17_4 C16_4 1_555 1_555
H18_6 C14_6 1_555 1_555
H20_4 C16_4 1_555 1_555
C6_4 N7_4 1_555 1_555
C12_4 N7_4 1_555 1_555
C1_6 C3_6 1_555 1_555
C3_6 H2_6 1_555 1_555
H3_6 C3_6 1_555 1_555
C5_5 C15_5 1_555 1_555
C10_5 C11_5 1_555 1_555
C11_5 N11 1_555 1_555
C15_5 H14_5 1_555 1_555
N11 C5_5 1_555 1_555
H7_5 C10_5 1_555 1_555
H8_5 C11_5 1_555 1_555
H11_6 C3_6 1_555 1_555
H15_5 C15_5 1_555 1_555
H19_5 C15_5 1_555 1_555
C5_5 N11_4 1_555 1_555
C10_5 N11_4 1_555 1_555
C2_6 N9_4 1_555 1_555
H1_6 C2_6 1_555 1_555
C6_5 C16_5 1_555 1_555
C7_6 C2_6 1_555 1_555
C12_5 C13_5 1_555 1_555
C13_5 N10_2 1_555 1_555
C16_5 H16_5 1_555 1_555
N10_2 C6_5 1_555 1_555
H4_6 C7_6 1_555 1_555
H9_5 C12_5 1_555 1_555
H10_5 C13_5 1_555 1_555
H17_5 C16_5 1_555 1_555
H20_5 C16_5 1_555 1_555
C6_5 N10_4 1_555 1_555
C7_6 N9_5 1_555 1_555
C12_5 N10_4 1_555 1_555
Zn2_3 N6_4 1_555 1_555
C5_6 C15_6 1_555 1_555
C10_6 C11_6 1_555 1_555
C11_6 N6_4 1_555 1_555
C15_6 H14_6 1_555 1_555
N6_4 C5_6 1_555 1_555
H7_6 C10_6 1_555 1_555
H8_6 C11_6 1_555 1_555
H15_6 C15_6 1_555 1_555
H19_6 C15_6 1_555 1_555
C5_6 N11_5 1_555 1_555
C10_6 N11_5 1_555 1_555
C6_6 C16_6 1_555 1_555
C12_6 C13_6 1_555 1_555
C13_6 N10_3 1_555 1_555
C16_6 H16_6 1_555 1_555
N10_3 C6_6 1_555 1_555
H9_6 C12_6 1_555 1_555
H10_6 C13_6 1_555 1_555
H17_6 C16_6 1_555 1_555
H20_6 C16_6 1_555 1_555
C6_6 N10_5 1_555 1_555
C12_6 N10_5 1_555 1_555

#END
