
###############################################################################
#
# This file contains modified crystal structure data generated from the
# MOF subset of the Cambridge Structural Database (CSD) v543 
# hosted by the Cambridge Crystallographic Data Centre (CCDC).
#
# This work is licensed under the Creative Commons
# Attribution-NonCommercial-ShareAlike 4.0 International License.
# To view a copy of this license, visit
# http://creativecommons.org/licenses/by-nc-sa/4.0/
# or send a letter to
# Creative Commons, PO Box 1866, Mountain View, CA 94042, USA.
#
# CIF created using the CSD Python API on 29 September 2022
# The structure has been converted into the P1 space group
# The structure has a 3D framework
# The original CSD entry OFERUN04 is in the cubic crystal system
# The framework has been calculated to contain at least 10.0% void space
# The void calculation uses a probe of radius 1.32A, grid spacing 0.4
#
###############################################################################

data_OFERUN04
_chemical_formula_moiety         '(C96 H120 N48 Zn12)n'
_symmetry_cell_setting           triclinic
_symmetry_space_group_name_H-M   'P 1'
_symmetry_Int_Tables_number      1
_space_group_name_Hall           'P 1'
loop_
_symmetry_equiv_pos_site_id
_symmetry_equiv_pos_as_xyz
1 x,y,z
_cell_length_a                   17.0544(16)
_cell_length_b                   17.0544(16)
_cell_length_c                   17.0544(16)
_cell_angle_alpha                90
_cell_angle_beta                 90
_cell_angle_gamma                90
_cell_volume                     4960.32
loop_
_atom_site_label
_atom_site_type_symbol
_atom_site_fract_x
_atom_site_fract_y
_atom_site_fract_z
Zn3 Zn 0.2500 0.5000 0.0000
Zn1 Zn 0.0000 0.5000 0.7500
N1 N 0.0904(2) 0.47085(17) 0.81715(18)
C1 C 0.1337(3) 0.4020(3) 0.8114(3)
H1 H 0.1254 0.3624 0.7749
C2 C 0.12253(17) 0.5072(5) 0.87747(17)
C3 C 0.0928(3) 0.5854(4) 0.9072(3)
H2 H 0.0374 0.5890 0.8987
H3 H 0.1192 0.6275 0.8808
N2 N 0.18285(18) 0.47085(17) 0.9096(2)
C4 C 0.1886(3) 0.4020(3) 0.8663(3)
H4 H 0.2251 0.3624 0.8746
H5 H 0.1013 0.5890 0.9626
Zn3_2 Zn 0.2500 0.5000 1.0000
N6 N 0.02915(17) 0.5904(2) 0.68285(18)
Zn2 Zn 0.7500 0.5000 0.0000
Zn1_2 Zn 1.0000 0.5000 0.7500
N3 N 0.9096(2) 0.52915(17) 0.81715(18)
C5 C 0.8663(3) 0.5980(3) 0.8114(3)
H6 H 0.8746 0.6376 0.7749
C6 C 0.87747(17) 0.4928(5) 0.87747(17)
C7 C 0.9072(3) 0.4146(4) 0.9072(3)
H7 H 0.9626 0.4110 0.8987
H8 H 0.8808 0.3725 0.8808
N4 N 0.81715(18) 0.52915(17) 0.9096(2)
C8 C 0.8114(3) 0.5980(3) 0.8663(3)
H9 H 0.7749 0.6376 0.8746
H10 H 0.8987 0.4110 0.9626
Zn2_2 Zn 0.7500 0.5000 1.0000
N5 N 0.97085(17) 0.4096(2) 0.68285(18)
Zn1_3 Zn 0.0000 0.5000 0.2500
N1_2 N 0.0904(2) 0.52915(17) 0.18285(18)
C1_2 C 0.1337(3) 0.5980(3) 0.1886(3)
H1_2 H 0.1254 0.6376 0.2251
C2_2 C 0.12253(17) 0.4928(5) 0.12253(17)
C3_2 C 0.0928(3) 0.4146(4) 0.0928(3)
H2_2 H 0.0374 0.4110 0.1013
H3_2 H 0.1192 0.3725 0.1192
N2_2 N 0.18285(18) 0.52915(17) 0.0904(2)
C4_2 C 0.1886(3) 0.5980(3) 0.1337(3)
H4_2 H 0.2251 0.6376 0.1254
H5_2 H 0.1013 0.4110 0.0374
N6_2 N 0.02915(17) 0.4096(2) 0.31715(18)
Zn1_4 Zn 1.0000 0.5000 0.2500
N3_2 N 0.9096(2) 0.47085(17) 0.18285(18)
C5_2 C 0.8663(3) 0.4020(3) 0.1886(3)
H6_2 H 0.8746 0.3624 0.2251
C6_2 C 0.87747(17) 0.5072(5) 0.12253(17)
C7_2 C 0.9072(3) 0.5854(4) 0.0928(3)
H7_2 H 0.9626 0.5890 0.1013
H8_2 H 0.8808 0.6275 0.1192
N4_2 N 0.81715(18) 0.47085(17) 0.0904(2)
C8_2 C 0.8114(3) 0.4020(3) 0.1337(3)
H9_2 H 0.7749 0.3624 0.1254
H10_2 H 0.8987 0.5890 0.0374
N5_2 N 0.97085(17) 0.5904(2) 0.31715(18)
Zn1_5 Zn 0.5000 -0.0000 0.2500
N3_3 N 0.52915(17) 0.0904(2) 0.18285(18)
C5_3 C 0.5980(3) 0.1337(3) 0.1886(3)
H6_3 H 0.6376 0.1254 0.2251
C6_3 C 0.4928(5) 0.12253(17) 0.12253(17)
C7_3 C 0.4146(4) 0.0928(3) 0.0928(3)
H7_3 H 0.4110 0.0374 0.1013
H8_3 H 0.3725 0.1192 0.1192
N4_3 N 0.52915(17) 0.18285(18) 0.0904(2)
C8_3 C 0.5980(3) 0.1886(3) 0.1337(3)
H9_3 H 0.6376 0.2251 0.1254
H10_3 H 0.4110 0.1013 0.0374
Zn2_3 Zn 0.5000 0.2500 0.0000
N5_3 N 0.4096(2) 0.02915(17) 0.31715(18)
Zn2_4 Zn 0.5000 0.2500 1.0000
Zn1_6 Zn 0.5000 1.0000 0.2500
N1_3 N 0.47085(17) 0.9096(2) 0.18285(18)
C1_3 C 0.4020(3) 0.8663(3) 0.1886(3)
H1_3 H 0.3624 0.8746 0.2251
C2_3 C 0.5072(5) 0.87747(17) 0.12253(17)
C3_3 C 0.5854(4) 0.9072(3) 0.0928(3)
H2_3 H 0.5890 0.9626 0.1013
H3_3 H 0.6275 0.8808 0.1192
N2_3 N 0.47085(17) 0.81715(18) 0.0904(2)
C4_3 C 0.4020(3) 0.8114(3) 0.1337(3)
H4_3 H 0.3624 0.7749 0.1254
H5_3 H 0.5890 0.8987 0.0374
Zn3_3 Zn 0.5000 0.7500 0.0000
N6_3 N 0.5904(2) 0.97085(17) 0.31715(18)
Zn3_4 Zn 0.5000 0.7500 1.0000
Zn1_7 Zn 0.5000 0.0000 0.7500
N3_4 N 0.47085(17) 0.0904(2) 0.81715(18)
C5_4 C 0.4020(3) 0.1337(3) 0.8114(3)
H6_4 H 0.3624 0.1254 0.7749
C6_4 C 0.5072(5) 0.12253(17) 0.87747(17)
C7_4 C 0.5854(4) 0.0928(3) 0.9072(3)
H7_4 H 0.5890 0.0374 0.8987
H8_4 H 0.6275 0.1192 0.8808
N4_4 N 0.47085(17) 0.18285(18) 0.9096(2)
C8_4 C 0.4020(3) 0.1886(3) 0.8663(3)
H9_4 H 0.3624 0.2251 0.8746
H10_4 H 0.5890 0.1013 0.9626
N5_4 N 0.5904(2) 0.02915(17) 0.68285(18)
Zn1_8 Zn 0.5000 1.0000 0.7500
N1_4 N 0.52915(17) 0.9096(2) 0.81715(18)
C1_4 C 0.5980(3) 0.8663(3) 0.8114(3)
H1_4 H 0.6376 0.8746 0.7749
C2_4 C 0.4928(5) 0.87747(17) 0.87747(17)
C3_4 C 0.4146(4) 0.9072(3) 0.9072(3)
H2_4 H 0.4110 0.9626 0.8987
H3_4 H 0.3725 0.8808 0.8808
N2_4 N 0.52915(17) 0.81715(18) 0.9096(2)
C4_4 C 0.5980(3) 0.8114(3) 0.8663(3)
H4_4 H 0.6376 0.7749 0.8746
H5_4 H 0.4110 0.8987 0.9626
N6_4 N 0.4096(2) 0.97085(17) 0.68285(18)
N6_5 N 0.5904(2) 0.68285(18) 0.02915(17)
N5_5 N 0.4096(2) 0.68285(18) 0.97085(17)
N6_6 N 0.4096(2) 0.31715(18) 0.02915(17)
N5_6 N 0.5904(2) 0.31715(18) 0.97085(17)
N5_7 N 0.68285(18) 0.5904(2) 0.02915(17)
N6_7 N 0.68285(18) 0.4096(2) 0.97085(17)
N5_8 N 0.31715(18) 0.4096(2) 0.02915(17)
N6_8 N 0.31715(18) 0.5904(2) 0.97085(17)
Zn3_5 Zn 0.0000 0.2500 0.5000
Zn2_5 Zn 0.0000 0.7500 0.5000
Zn1_9 Zn 0.7500 0.0000 0.5000
N1_5 N 0.81715(18) 0.0904(2) 0.47085(17)
C1_5 C 0.8114(3) 0.1337(3) 0.4020(3)
H1_5 H 0.7749 0.1254 0.3624
C2_5 C 0.87747(17) 0.12253(17) 0.5072(5)
C3_5 C 0.9072(3) 0.0928(3) 0.5854(4)
H2_5 H 0.8987 0.0374 0.5890
H3_5 H 0.8808 0.1192 0.6275
N2_5 N 0.9096(2) 0.18285(18) 0.47085(17)
C4_5 C 0.8663(3) 0.1886(3) 0.4020(3)
H4_5 H 0.8746 0.2251 0.3624
H5_5 H 0.9626 0.1013 0.5890
Zn3_6 Zn 1.0000 0.2500 0.5000
N6_9 N 0.68285(18) 0.02915(17) 0.5904(2)
Zn1_10 Zn 0.7500 1.0000 0.5000
N3_5 N 0.81715(18) 0.9096(2) 0.52915(17)
C5_5 C 0.8114(3) 0.8663(3) 0.5980(3)
H6_5 H 0.7749 0.8746 0.6376
C6_5 C 0.87747(17) 0.87747(17) 0.4928(5)
C7_5 C 0.9072(3) 0.9072(3) 0.4146(4)
H7_5 H 0.8987 0.9626 0.4110
H8_5 H 0.8808 0.8808 0.3725
N4_5 N 0.9096(2) 0.81715(18) 0.52915(17)
C8_5 C 0.8663(3) 0.8114(3) 0.5980(3)
H9_5 H 0.8746 0.7749 0.6376
H10_5 H 0.9626 0.8987 0.4110
Zn2_6 Zn 1.0000 0.7500 0.5000
N5_9 N 0.68285(18) 0.97085(17) 0.4096(2)
Zn1_11 Zn 0.2500 0.0000 0.5000
N1_6 N 0.18285(18) 0.0904(2) 0.52915(17)
C1_6 C 0.1886(3) 0.1337(3) 0.5980(3)
H1_6 H 0.2251 0.1254 0.6376
C2_6 C 0.12253(17) 0.12253(17) 0.4928(5)
C3_6 C 0.0928(3) 0.0928(3) 0.4146(4)
H2_6 H 0.1013 0.0374 0.4110
H3_6 H 0.1192 0.1192 0.3725
N2_6 N 0.0904(2) 0.18285(18) 0.52915(17)
C4_6 C 0.1337(3) 0.1886(3) 0.5980(3)
H4_6 H 0.1254 0.2251 0.6376
H5_6 H 0.0374 0.1013 0.4110
N6_10 N 0.31715(18) 0.02915(17) 0.4096(2)
Zn1_12 Zn 0.2500 1.0000 0.5000
N3_6 N 0.18285(18) 0.9096(2) 0.47085(17)
C5_6 C 0.1886(3) 0.8663(3) 0.4020(3)
H6_6 H 0.2251 0.8746 0.3624
C6_6 C 0.12253(17) 0.87747(17) 0.5072(5)
C7_6 C 0.0928(3) 0.9072(3) 0.5854(4)
H7_6 H 0.1013 0.9626 0.5890
H8_6 H 0.1192 0.8808 0.6275
N4_6 N 0.0904(2) 0.81715(18) 0.47085(17)
C8_6 C 0.1337(3) 0.8114(3) 0.4020(3)
H9_6 H 0.1254 0.7749 0.3624
H10_6 H 0.0374 0.8987 0.5890
N5_10 N 0.31715(18) 0.97085(17) 0.5904(2)
N6_11 N 0.02915(17) 0.68285(18) 0.5904(2)
N5_11 N 0.97085(17) 0.68285(18) 0.4096(2)
N6_12 N 0.02915(17) 0.31715(18) 0.4096(2)
N5_12 N 0.97085(17) 0.31715(18) 0.5904(2)
C2_7 C 0.62253(17) 0.0072(5) 0.37747(17)
C3_7 C 0.5928(3) 0.0854(4) 0.4072(3)
H2_7 H 0.5374 0.0890 0.3987
H3_7 H 0.6192 0.1275 0.3808
H5_7 H 0.6013 0.0890 0.4626
C5_7 C 0.3663(3) 0.0980(3) 0.3114(3)
H6_7 H 0.3746 0.1376 0.2749
C8_7 C 0.3114(3) 0.0980(3) 0.3663(3)
H9_7 H 0.2749 0.1376 0.3746
C1_7 C 0.6337(3) 0.9020(3) 0.3114(3)
H1_7 H 0.6254 0.8624 0.2749
C4_7 C 0.6886(3) 0.9020(3) 0.3663(3)
H4_7 H 0.7251 0.8624 0.3746
C6_7 C 0.37747(17) 0.9928(5) 0.37747(17)
C7_7 C 0.4072(3) 0.9146(4) 0.4072(3)
H7_7 H 0.4626 0.9110 0.3987
H8_7 H 0.3808 0.8725 0.3808
H10_7 H 0.3987 0.9110 0.4626
C1_8 C 0.6337(3) 0.0980(3) 0.6886(3)
H1_8 H 0.6254 0.1376 0.7251
C4_8 C 0.6886(3) 0.0980(3) 0.6337(3)
H4_8 H 0.7251 0.1376 0.6254
C6_8 C 0.37747(17) 0.0072(5) 0.62253(17)
C7_8 C 0.4072(3) 0.0854(4) 0.5928(3)
H7_8 H 0.4626 0.0890 0.6013
H8_8 H 0.3808 0.1275 0.6192
H10_8 H 0.3987 0.0890 0.5374
C2_8 C 0.62253(17) 0.9928(5) 0.62253(17)
C3_8 C 0.5928(3) 0.9146(4) 0.5928(3)
H2_8 H 0.5374 0.9110 0.6013
H3_8 H 0.6192 0.8725 0.6192
H5_8 H 0.6013 0.9110 0.5374
C5_8 C 0.3663(3) 0.9020(3) 0.6886(3)
H6_8 H 0.3746 0.8624 0.7251
C8_8 C 0.3114(3) 0.9020(3) 0.6337(3)
H9_8 H 0.2749 0.8624 0.6254
C2_9 C 0.0072(5) 0.37747(17) 0.62253(17)
C3_9 C 0.0854(4) 0.4072(3) 0.5928(3)
H2_9 H 0.0890 0.4626 0.6013
H3_9 H 0.1275 0.3808 0.6192
H5_9 H 0.0890 0.3987 0.5374
C5_9 C 0.0980(3) 0.6337(3) 0.6886(3)
H6_9 H 0.1376 0.6254 0.7251
C8_9 C 0.0980(3) 0.6886(3) 0.6337(3)
H9_9 H 0.1376 0.7251 0.6254
C1_9 C 0.9020(3) 0.3663(3) 0.6886(3)
H1_9 H 0.8624 0.3746 0.7251
C4_9 C 0.9020(3) 0.3114(3) 0.6337(3)
H4_9 H 0.8624 0.2749 0.6254
C6_9 C 0.9928(5) 0.62253(17) 0.62253(17)
C7_9 C 0.9146(4) 0.5928(3) 0.5928(3)
H7_9 H 0.9110 0.5374 0.6013
H8_9 H 0.8725 0.6192 0.6192
H10_9 H 0.9110 0.6013 0.5374
C1_10 C 0.0980(3) 0.3663(3) 0.3114(3)
H1_10 H 0.1376 0.3746 0.2749
C4_10 C 0.0980(3) 0.3114(3) 0.3663(3)
H4_10 H 0.1376 0.2749 0.3746
C6_10 C 0.0072(5) 0.62253(17) 0.37747(17)
C7_10 C 0.0854(4) 0.5928(3) 0.4072(3)
H7_10 H 0.0890 0.5374 0.3987
H8_10 H 0.1275 0.6192 0.3808
H10_10 H 0.0890 0.6013 0.4626
C2_10 C 0.9928(5) 0.37747(17) 0.37747(17)
C3_10 C 0.9146(4) 0.4072(3) 0.4072(3)
H2_10 H 0.9110 0.4626 0.3987
H3_10 H 0.8725 0.3808 0.3808
H5_10 H 0.9110 0.3987 0.4626
C5_10 C 0.9020(3) 0.6337(3) 0.3114(3)
H6_10 H 0.8624 0.6254 0.2749
C8_10 C 0.9020(3) 0.6886(3) 0.3663(3)
H9_10 H 0.8624 0.7251 0.3746
C2_11 C 0.37747(17) 0.62253(17) 0.0072(5)
C3_11 C 0.4072(3) 0.5928(3) 0.0854(4)
H2_11 H 0.3987 0.5374 0.0890
H3_11 H 0.3808 0.6192 0.1275
H5_11 H 0.4626 0.6013 0.0890
C5_11 C 0.3114(3) 0.3663(3) 0.0980(3)
H6_11 H 0.2749 0.3746 0.1376
C8_11 C 0.3663(3) 0.3114(3) 0.0980(3)
H9_11 H 0.3746 0.2749 0.1376
C1_11 C 0.3114(3) 0.6337(3) 0.9020(3)
H1_11 H 0.2749 0.6254 0.8624
C4_11 C 0.3663(3) 0.6886(3) 0.9020(3)
H4_11 H 0.3746 0.7251 0.8624
C6_11 C 0.37747(17) 0.37747(17) 0.9928(5)
C7_11 C 0.4072(3) 0.4072(3) 0.9146(4)
H7_11 H 0.3987 0.4626 0.9110
H8_11 H 0.3808 0.3808 0.8725
H10_11 H 0.4626 0.3987 0.9110
C1_12 C 0.6886(3) 0.6337(3) 0.0980(3)
H1_12 H 0.7251 0.6254 0.1376
C4_12 C 0.6337(3) 0.6886(3) 0.0980(3)
H4_12 H 0.6254 0.7251 0.1376
C6_12 C 0.62253(17) 0.37747(17) 0.0072(5)
C7_12 C 0.5928(3) 0.4072(3) 0.0854(4)
H7_12 H 0.6013 0.4626 0.0890
H8_12 H 0.6192 0.3808 0.1275
H10_12 H 0.5374 0.3987 0.0890
C2_12 C 0.62253(17) 0.62253(17) 0.9928(5)
C3_12 C 0.5928(3) 0.5928(3) 0.9146(4)
H2_12 H 0.6013 0.5374 0.9110
H3_12 H 0.6192 0.6192 0.8725
H5_12 H 0.5374 0.6013 0.9110
C5_12 C 0.6886(3) 0.3663(3) 0.9020(3)
H6_12 H 0.7251 0.3746 0.8624
C8_12 C 0.6337(3) 0.3114(3) 0.9020(3)
H9_12 H 0.6254 0.2749 0.8624
loop_
_geom_bond_atom_site_label_1
_geom_bond_atom_site_label_2
_geom_bond_site_symmetry_1
_geom_bond_site_symmetry_2
Zn1 N1 1_555 1_555
N1 C1 1_555 1_555
C1 H1 1_555 1_555
C2 N1 1_555 1_555
C3 C2 1_555 1_555
H2 C3 1_555 1_555
H3 C3 1_555 1_555
N2 C2 1_555 1_555
C4 C1 1_555 1_555
H4 C4 1_555 1_555
H5 C3 1_555 1_555
Zn3_2 N2 1_555 1_555
N6 Zn1 1_555 1_555
N2 C4 1_555 1_555
N3 Zn1_2 1_555 1_555
C5 N3 1_555 1_555
H6 C5 1_555 1_555
C6 N3 1_555 1_555
C7 C6 1_555 1_555
H7 C7 1_555 1_555
H8 C7 1_555 1_555
N4 C6 1_555 1_555
C8 C5 1_555 1_555
H9 C8 1_555 1_555
H10 C7 1_555 1_555
Zn2_2 N4 1_555 1_555
N5 Zn1_2 1_555 1_555
N4 C8 1_555 1_555
Zn1_3 N1_2 1_555 1_555
N1_2 C1_2 1_555 1_555
C1_2 H1_2 1_555 1_555
C2_2 N1_2 1_555 1_555
C3_2 C2_2 1_555 1_555
H2_2 C3_2 1_555 1_555
H3_2 C3_2 1_555 1_555
N2_2 C2_2 1_555 1_555
C4_2 C1_2 1_555 1_555
H4_2 C4_2 1_555 1_555
H5_2 C3_2 1_555 1_555
Zn3 N2_2 1_555 1_555
N6_2 Zn1_3 1_555 1_555
N2_2 C4_2 1_555 1_555
N3_2 Zn1_4 1_555 1_555
C5_2 N3_2 1_555 1_555
H6_2 C5_2 1_555 1_555
C6_2 N3_2 1_555 1_555
C7_2 C6_2 1_555 1_555
H7_2 C7_2 1_555 1_555
H8_2 C7_2 1_555 1_555
N4_2 C6_2 1_555 1_555
C8_2 C5_2 1_555 1_555
H9_2 C8_2 1_555 1_555
H10_2 C7_2 1_555 1_555
Zn2 N4_2 1_555 1_555
N5_2 Zn1_4 1_555 1_555
N4_2 C8_2 1_555 1_555
N3_3 Zn1_5 1_555 1_555
C5_3 N3_3 1_555 1_555
H6_3 C5_3 1_555 1_555
C6_3 N3_3 1_555 1_555
C7_3 C6_3 1_555 1_555
H7_3 C7_3 1_555 1_555
H8_3 C7_3 1_555 1_555
N4_3 C6_3 1_555 1_555
C8_3 C5_3 1_555 1_555
H9_3 C8_3 1_555 1_555
H10_3 C7_3 1_555 1_555
Zn2_3 N4_3 1_555 1_555
N5_3 Zn1_5 1_555 1_555
N4_3 C8_3 1_555 1_555
Zn1_6 N1_3 1_555 1_555
N1_3 C1_3 1_555 1_555
C1_3 H1_3 1_555 1_555
C2_3 N1_3 1_555 1_555
C3_3 C2_3 1_555 1_555
H2_3 C3_3 1_555 1_555
H3_3 C3_3 1_555 1_555
N2_3 C2_3 1_555 1_555
C4_3 C1_3 1_555 1_555
H4_3 C4_3 1_555 1_555
H5_3 C3_3 1_555 1_555
Zn3_3 N2_3 1_555 1_555
N6_3 Zn1_6 1_555 1_555
N2_3 C4_3 1_555 1_555
N3_4 Zn1_7 1_555 1_555
C5_4 N3_4 1_555 1_555
H6_4 C5_4 1_555 1_555
C6_4 N3_4 1_555 1_555
C7_4 C6_4 1_555 1_555
H7_4 C7_4 1_555 1_555
H8_4 C7_4 1_555 1_555
N4_4 C6_4 1_555 1_555
C8_4 C5_4 1_555 1_555
H9_4 C8_4 1_555 1_555
H10_4 C7_4 1_555 1_555
Zn2_4 N4_4 1_555 1_555
N5_4 Zn1_7 1_555 1_555
N4_4 C8_4 1_555 1_555
Zn1_8 N1_4 1_555 1_555
N1_4 C1_4 1_555 1_555
C1_4 H1_4 1_555 1_555
C2_4 N1_4 1_555 1_555
C3_4 C2_4 1_555 1_555
H2_4 C3_4 1_555 1_555
H3_4 C3_4 1_555 1_555
N2_4 C2_4 1_555 1_555
C4_4 C1_4 1_555 1_555
H4_4 C4_4 1_555 1_555
H5_4 C3_4 1_555 1_555
Zn3_4 N2_4 1_555 1_555
N6_4 Zn1_8 1_555 1_555
N2_4 C4_4 1_555 1_555
N6_5 Zn3_3 1_555 1_555
N5_5 Zn3_4 1_555 1_555
N6_6 Zn2_3 1_555 1_555
N5_6 Zn2_4 1_555 1_555
N5_7 Zn2 1_555 1_555
N6_7 Zn2_2 1_555 1_555
N5_8 Zn3 1_555 1_555
N6_8 Zn3_2 1_555 1_555
Zn1_9 N1_5 1_555 1_555
N1_5 C1_5 1_555 1_555
C1_5 H1_5 1_555 1_555
C2_5 N1_5 1_555 1_555
C3_5 C2_5 1_555 1_555
H2_5 C3_5 1_555 1_555
H3_5 C3_5 1_555 1_555
N2_5 C2_5 1_555 1_555
C4_5 C1_5 1_555 1_555
H4_5 C4_5 1_555 1_555
H5_5 C3_5 1_555 1_555
Zn3_6 N2_5 1_555 1_555
N6_9 Zn1_9 1_555 1_555
N2_5 C4_5 1_555 1_555
N3_5 Zn1_10 1_555 1_555
C5_5 N3_5 1_555 1_555
H6_5 C5_5 1_555 1_555
C6_5 N3_5 1_555 1_555
C7_5 C6_5 1_555 1_555
H7_5 C7_5 1_555 1_555
H8_5 C7_5 1_555 1_555
N4_5 C6_5 1_555 1_555
C8_5 C5_5 1_555 1_555
H9_5 C8_5 1_555 1_555
H10_5 C7_5 1_555 1_555
Zn2_6 N4_5 1_555 1_555
N5_9 Zn1_10 1_555 1_555
N4_5 C8_5 1_555 1_555
Zn1_11 N1_6 1_555 1_555
N1_6 C1_6 1_555 1_555
C1_6 H1_6 1_555 1_555
C2_6 N1_6 1_555 1_555
C3_6 C2_6 1_555 1_555
H2_6 C3_6 1_555 1_555
H3_6 C3_6 1_555 1_555
N2_6 C2_6 1_555 1_555
C4_6 C1_6 1_555 1_555
H4_6 C4_6 1_555 1_555
H5_6 C3_6 1_555 1_555
Zn3_5 N2_6 1_555 1_555
N6_10 Zn1_11 1_555 1_555
N2_6 C4_6 1_555 1_555
N3_6 Zn1_12 1_555 1_555
C5_6 N3_6 1_555 1_555
H6_6 C5_6 1_555 1_555
C6_6 N3_6 1_555 1_555
C7_6 C6_6 1_555 1_555
H7_6 C7_6 1_555 1_555
H8_6 C7_6 1_555 1_555
N4_6 C6_6 1_555 1_555
C8_6 C5_6 1_555 1_555
H9_6 C8_6 1_555 1_555
H10_6 C7_6 1_555 1_555
Zn2_5 N4_6 1_555 1_555
N5_10 Zn1_12 1_555 1_555
N4_6 C8_6 1_555 1_555
N6_11 Zn2_5 1_555 1_555
N5_11 Zn2_6 1_555 1_555
N6_12 Zn3_5 1_555 1_555
N5_12 Zn3_6 1_555 1_555
C3_7 C2_7 1_555 1_555
H2_7 C3_7 1_555 1_555
H3_7 C3_7 1_555 1_555
H5_7 C3_7 1_555 1_555
C5_7 N5_3 1_555 1_555
H6_7 C5_7 1_555 1_555
C8_7 C5_7 1_555 1_555
H9_7 C8_7 1_555 1_555
N6_10 C8_7 1_555 1_555
N6_3 C1_7 1_555 1_555
C1_7 H1_7 1_555 1_555
C4_7 C1_7 1_555 1_555
H4_7 C4_7 1_555 1_555
C7_7 C6_7 1_555 1_555
H7_7 C7_7 1_555 1_555
H8_7 C7_7 1_555 1_555
H10_7 C7_7 1_555 1_555
N5_9 C4_7 1_555 1_555
N5_4 C1_8 1_555 1_555
C1_8 H1_8 1_555 1_555
C4_8 C1_8 1_555 1_555
H4_8 C4_8 1_555 1_555
C7_8 C6_8 1_555 1_555
H7_8 C7_8 1_555 1_555
H8_8 C7_8 1_555 1_555
H10_8 C7_8 1_555 1_555
N6_9 C4_8 1_555 1_555
C3_8 C2_8 1_555 1_555
H2_8 C3_8 1_555 1_555
H3_8 C3_8 1_555 1_555
H5_8 C3_8 1_555 1_555
C5_8 N6_4 1_555 1_555
H6_8 C5_8 1_555 1_555
C8_8 C5_8 1_555 1_555
H9_8 C8_8 1_555 1_555
N5_10 C8_8 1_555 1_555
C3_9 C2_9 1_555 1_555
H2_9 C3_9 1_555 1_555
H3_9 C3_9 1_555 1_555
H5_9 C3_9 1_555 1_555
C5_9 N6 1_555 1_555
H6_9 C5_9 1_555 1_555
C8_9 C5_9 1_555 1_555
H9_9 C8_9 1_555 1_555
N6_11 C8_9 1_555 1_555
N5 C1_9 1_555 1_555
C1_9 H1_9 1_555 1_555
C4_9 C1_9 1_555 1_555
H4_9 C4_9 1_555 1_555
C7_9 C6_9 1_555 1_555
H7_9 C7_9 1_555 1_555
H8_9 C7_9 1_555 1_555
H10_9 C7_9 1_555 1_555
N5_12 C4_9 1_555 1_555
N6_2 C1_10 1_555 1_555
C1_10 H1_10 1_555 1_555
C4_10 C1_10 1_555 1_555
H4_10 C4_10 1_555 1_555
C7_10 C6_10 1_555 1_555
H7_10 C7_10 1_555 1_555
H8_10 C7_10 1_555 1_555
H10_10 C7_10 1_555 1_555
N6_12 C4_10 1_555 1_555
C3_10 C2_10 1_555 1_555
H2_10 C3_10 1_555 1_555
H3_10 C3_10 1_555 1_555
H5_10 C3_10 1_555 1_555
C5_10 N5_2 1_555 1_555
H6_10 C5_10 1_555 1_555
C8_10 C5_10 1_555 1_555
H9_10 C8_10 1_555 1_555
N5_11 C8_10 1_555 1_555
C3_11 C2_11 1_555 1_555
H2_11 C3_11 1_555 1_555
H3_11 C3_11 1_555 1_555
H5_11 C3_11 1_555 1_555
C5_11 N5_8 1_555 1_555
H6_11 C5_11 1_555 1_555
C8_11 C5_11 1_555 1_555
H9_11 C8_11 1_555 1_555
N6_6 C8_11 1_555 1_555
N6_8 C1_11 1_555 1_555
C1_11 H1_11 1_555 1_555
C4_11 C1_11 1_555 1_555
H4_11 C4_11 1_555 1_555
C7_11 C6_11 1_555 1_555
H7_11 C7_11 1_555 1_555
H8_11 C7_11 1_555 1_555
H10_11 C7_11 1_555 1_555
N5_5 C4_11 1_555 1_555
N5_7 C1_12 1_555 1_555
C1_12 H1_12 1_555 1_555
C4_12 C1_12 1_555 1_555
H4_12 C4_12 1_555 1_555
C7_12 C6_12 1_555 1_555
H7_12 C7_12 1_555 1_555
H8_12 C7_12 1_555 1_555
H10_12 C7_12 1_555 1_555
N6_5 C4_12 1_555 1_555
C3_12 C2_12 1_555 1_555
H2_12 C3_12 1_555 1_555
H3_12 C3_12 1_555 1_555
H5_12 C3_12 1_555 1_555
C5_12 N6_7 1_555 1_555
H6_12 C5_12 1_555 1_555
C8_12 C5_12 1_555 1_555
H9_12 C8_12 1_555 1_555
N5_6 C8_12 1_555 1_555

#END
