
###############################################################################
#
# This file contains modified crystal structure data generated from the
# MOF subset of the Cambridge Structural Database (CSD) v543 
# hosted by the Cambridge Crystallographic Data Centre (CCDC).
#
# This work is licensed under the Creative Commons
# Attribution-NonCommercial-ShareAlike 4.0 International License.
# To view a copy of this license, visit
# http://creativecommons.org/licenses/by-nc-sa/4.0/
# or send a letter to
# Creative Commons, PO Box 1866, Mountain View, CA 94042, USA.
#
# CIF created using the CSD Python API on 29 September 2022
# The structure has been converted into the P1 space group
# The structure has a 3D framework
# The original CSD entry OFERUN is in the cubic crystal system
# The framework has been calculated to contain at least 10.0% void space
# The void calculation uses a probe of radius 1.32A, grid spacing 0.4
#
###############################################################################

data_OFERUN
_chemical_formula_moiety         '(C96 H120 N48 Zn12)n'
_symmetry_cell_setting           triclinic
_symmetry_space_group_name_H-M   'P 1'
_symmetry_Int_Tables_number      1
_space_group_name_Hall           'P 1'
loop_
_symmetry_equiv_pos_site_id
_symmetry_equiv_pos_as_xyz
1 x,y,z
_cell_length_a                   16.99006(28)
_cell_length_b                   16.99006(28)
_cell_length_c                   16.99006(28)
_cell_angle_alpha                90
_cell_angle_beta                 90
_cell_angle_gamma                90
_cell_volume                     4904.39
loop_
_atom_site_label
_atom_site_type_symbol
_atom_site_fract_x
_atom_site_fract_y
_atom_site_fract_z
_atom_site_U_iso_or_equiv
_atom_site_thermal_displace_type
C1 C 0.3784(4) 0.0054(5) 0.6216(4) 0.0284 Uiso
C3 C 0.4029(5) 0.0834(9) 0.5971(5) 0.0594 Uiso
D2 D 0.3640(6) 0.1197(6) 0.5699(5) 0.0950 Uiso
D3 D 0.4409(8) 0.0708(12) 0.5591(8) 0.1440 Uiso
Zn1 Zn 0.50000 0.00000 0.75000 0.0410 Uiso
C6 C 0.6291(4) 0.1019(4) 0.68734(32) 0.0264 Uiso
C7 C 0.68734(32) 0.1019(4) 0.6291(4) 0.0264 Uiso
D5 D 0.6147(5) 0.1513(5) 0.7289(5) 0.0529 Uiso
D6 D 0.7289(5) 0.1513(5) 0.6147(5) 0.0529 Uiso
D7 D 0.4301(5) 0.1197(6) 0.6360(6) 0.0950 Uiso
N3 N 0.58907(27) 0.03440(26) 0.68295(27) 0.0253 Uiso
N4 N 0.68295(27) 0.03440(26) 0.58907(27) 0.0253 Uiso
N5 N 0.46560(26) 0.08907(27) 0.81705(27) 0.0253 Uiso
Zn2 Zn 0.25000 0.00000 0.50000 0.0410 Uiso
Zn3 Zn 0.75000 0.00000 0.50000 0.0410 Uiso
C2 C 0.3709(4) 0.8981(4) 0.68734(32) 0.0264 Uiso
D1 D 0.3853(5) 0.8487(5) 0.7289(5) 0.0529 Uiso
N1 N 0.41093(27) 0.96560(26) 0.68295(27) 0.0253 Uiso
Zn1_2 Zn 0.50000 1.00000 0.75000 0.0410 Uiso
C4 C 0.6216(4) 0.9946(5) 0.6216(4) 0.0284 Uiso
C5 C 0.31266(32) 0.8981(4) 0.6291(4) 0.0264 Uiso
D4 D 0.2711(5) 0.8487(5) 0.6147(5) 0.0529 Uiso
C8 C 0.5971(5) 0.9166(9) 0.5971(5) 0.0594 Uiso
D8 D 0.6360(6) 0.8803(6) 0.5699(5) 0.0950 Uiso
D9 D 0.5699(5) 0.8803(6) 0.6360(6) 0.0950 Uiso
D10 D 0.5591(8) 0.9292(12) 0.5591(8) 0.1440 Uiso
N2 N 0.31705(27) 0.96560(26) 0.58907(27) 0.0253 Uiso
N6 N 0.53440(26) 0.91093(27) 0.81705(27) 0.0253 Uiso
Zn2_2 Zn 0.25000 1.00000 0.50000 0.0410 Uiso
Zn3_2 Zn 0.75000 1.00000 0.50000 0.0410 Uiso
C1_2 C 0.6216(4) 0.3784(4) 0.0054(5) 0.0284 Uiso
C3_2 C 0.5971(5) 0.4029(5) 0.0834(9) 0.0594 Uiso
D2_2 D 0.5699(5) 0.3640(6) 0.1197(6) 0.0950 Uiso
D3_2 D 0.5591(8) 0.4409(8) 0.0708(12) 0.1440 Uiso
Zn1_3 Zn 0.75000 0.50000 0.00000 0.0410 Uiso
C6_2 C 0.68734(32) 0.6291(4) 0.1019(4) 0.0264 Uiso
C7_2 C 0.6291(4) 0.68734(32) 0.1019(4) 0.0264 Uiso
D5_2 D 0.7289(5) 0.6147(5) 0.1513(5) 0.0529 Uiso
D6_2 D 0.6147(5) 0.7289(5) 0.1513(5) 0.0529 Uiso
D7_2 D 0.6360(6) 0.4301(5) 0.1197(6) 0.0950 Uiso
N3_2 N 0.68295(27) 0.58907(27) 0.03440(26) 0.0253 Uiso
N4_2 N 0.58907(27) 0.68295(27) 0.03440(26) 0.0253 Uiso
N5_2 N 0.81705(27) 0.46560(26) 0.08907(27) 0.0253 Uiso
Zn2_3 Zn 0.50000 0.25000 0.00000 0.0410 Uiso
Zn3_3 Zn 0.50000 0.75000 0.00000 0.0410 Uiso
C2_2 C 0.68734(32) 0.3709(4) 0.8981(4) 0.0264 Uiso
D1_2 D 0.7289(5) 0.3853(5) 0.8487(5) 0.0529 Uiso
N1_2 N 0.68295(27) 0.41093(27) 0.96560(26) 0.0253 Uiso
Zn1_4 Zn 0.75000 0.50000 1.00000 0.0410 Uiso
C4_2 C 0.6216(4) 0.6216(4) 0.9946(5) 0.0284 Uiso
C5_2 C 0.6291(4) 0.31266(32) 0.8981(4) 0.0264 Uiso
D4_2 D 0.6147(5) 0.2711(5) 0.8487(5) 0.0529 Uiso
C8_2 C 0.5971(5) 0.5971(5) 0.9166(9) 0.0594 Uiso
D8_2 D 0.5699(5) 0.6360(6) 0.8803(6) 0.0950 Uiso
D9_2 D 0.6360(6) 0.5699(5) 0.8803(6) 0.0950 Uiso
D10_2 D 0.5591(8) 0.5591(8) 0.9292(12) 0.1440 Uiso
N2_2 N 0.58907(27) 0.31705(27) 0.96560(26) 0.0253 Uiso
N6_2 N 0.81705(27) 0.53440(26) 0.91093(27) 0.0253 Uiso
Zn2_4 Zn 0.50000 0.25000 1.00000 0.0410 Uiso
Zn3_4 Zn 0.50000 0.75000 1.00000 0.0410 Uiso
C1_3 C 0.0054(5) 0.6216(4) 0.3784(4) 0.0284 Uiso
C3_3 C 0.0834(9) 0.5971(5) 0.4029(5) 0.0594 Uiso
D2_3 D 0.1197(6) 0.5699(5) 0.3640(6) 0.0950 Uiso
D3_3 D 0.0708(12) 0.5591(8) 0.4409(8) 0.1440 Uiso
Zn1_5 Zn 0.00000 0.75000 0.50000 0.0410 Uiso
C6_3 C 0.1019(4) 0.68734(32) 0.6291(4) 0.0264 Uiso
C7_3 C 0.1019(4) 0.6291(4) 0.68734(32) 0.0264 Uiso
D5_3 D 0.1513(5) 0.7289(5) 0.6147(5) 0.0529 Uiso
D6_3 D 0.1513(5) 0.6147(5) 0.7289(5) 0.0529 Uiso
D7_3 D 0.1197(6) 0.6360(6) 0.4301(5) 0.0950 Uiso
N3_3 N 0.03440(26) 0.68295(27) 0.58907(27) 0.0253 Uiso
N4_3 N 0.03440(26) 0.58907(27) 0.68295(27) 0.0253 Uiso
N5_3 N 0.08907(27) 0.81705(27) 0.46560(26) 0.0253 Uiso
Zn2_5 Zn 0.00000 0.50000 0.25000 0.0410 Uiso
Zn3_5 Zn 0.00000 0.50000 0.75000 0.0410 Uiso
C2_3 C 0.8981(4) 0.68734(32) 0.3709(4) 0.0264 Uiso
D1_3 D 0.8487(5) 0.7289(5) 0.3853(5) 0.0529 Uiso
N1_3 N 0.96560(26) 0.68295(27) 0.41093(27) 0.0253 Uiso
Zn1_6 Zn 1.00000 0.75000 0.50000 0.0410 Uiso
C4_3 C 0.9946(5) 0.6216(4) 0.6216(4) 0.0284 Uiso
C5_3 C 0.8981(4) 0.6291(4) 0.31266(32) 0.0264 Uiso
D4_3 D 0.8487(5) 0.6147(5) 0.2711(5) 0.0529 Uiso
C8_3 C 0.9166(9) 0.5971(5) 0.5971(5) 0.0594 Uiso
D8_3 D 0.8803(6) 0.5699(5) 0.6360(6) 0.0950 Uiso
D9_3 D 0.8803(6) 0.6360(6) 0.5699(5) 0.0950 Uiso
D10_3 D 0.9292(12) 0.5591(8) 0.5591(8) 0.1440 Uiso
N2_3 N 0.96560(26) 0.58907(27) 0.31705(27) 0.0253 Uiso
N6_3 N 0.91093(27) 0.81705(27) 0.53440(26) 0.0253 Uiso
Zn2_6 Zn 1.00000 0.50000 0.25000 0.0410 Uiso
Zn3_6 Zn 1.00000 0.50000 0.75000 0.0410 Uiso
C6_4 C 0.1019(4) 0.3709(4) 0.31266(32) 0.0264 Uiso
C7_4 C 0.1019(4) 0.31266(32) 0.3709(4) 0.0264 Uiso
D5_4 D 0.1513(5) 0.3853(5) 0.2711(5) 0.0529 Uiso
D6_4 D 0.1513(5) 0.2711(5) 0.3853(5) 0.0529 Uiso
N3_4 N 0.03440(26) 0.41093(27) 0.31705(27) 0.0253 Uiso
N4_4 N 0.03440(26) 0.31705(27) 0.41093(27) 0.0253 Uiso
N5_4 N 0.08907(27) 0.53440(26) 0.18295(27) 0.0253 Uiso
Zn3_7 Zn 0.00000 0.25000 0.50000 0.0410 Uiso
C4_4 C 0.9946(5) 0.3784(4) 0.3784(4) 0.0284 Uiso
C8_4 C 0.9166(9) 0.4029(5) 0.4029(5) 0.0594 Uiso
D8_4 D 0.8803(6) 0.3640(6) 0.4301(5) 0.0950 Uiso
D9_4 D 0.8803(6) 0.4301(5) 0.3640(6) 0.0950 Uiso
D10_4 D 0.9292(12) 0.4409(8) 0.4409(8) 0.1440 Uiso
N6_4 N 0.91093(27) 0.46560(26) 0.18295(27) 0.0253 Uiso
Zn3_8 Zn 1.00000 0.25000 0.50000 0.0410 Uiso
C6_5 C 0.31266(32) 0.1019(4) 0.3709(4) 0.0264 Uiso
C7_5 C 0.3709(4) 0.1019(4) 0.31266(32) 0.0264 Uiso
D5_5 D 0.2711(5) 0.1513(5) 0.3853(5) 0.0529 Uiso
D6_5 D 0.3853(5) 0.1513(5) 0.2711(5) 0.0529 Uiso
N3_5 N 0.31705(27) 0.03440(26) 0.41093(27) 0.0253 Uiso
N4_5 N 0.41093(27) 0.03440(26) 0.31705(27) 0.0253 Uiso
N5_5 N 0.18295(27) 0.08907(27) 0.53440(26) 0.0253 Uiso
Zn3_9 Zn 0.50000 0.00000 0.25000 0.0410 Uiso
C4_5 C 0.3784(4) 0.9946(5) 0.3784(4) 0.0284 Uiso
C8_5 C 0.4029(5) 0.9166(9) 0.4029(5) 0.0594 Uiso
D8_5 D 0.4301(5) 0.8803(6) 0.3640(6) 0.0950 Uiso
D9_5 D 0.3640(6) 0.8803(6) 0.4301(5) 0.0950 Uiso
D10_5 D 0.4409(8) 0.9292(12) 0.4409(8) 0.1440 Uiso
N6_5 N 0.18295(27) 0.91093(27) 0.46560(26) 0.0253 Uiso
Zn3_10 Zn 0.50000 1.00000 0.25000 0.0410 Uiso
C6_6 C 0.3709(4) 0.31266(32) 0.1019(4) 0.0264 Uiso
C7_6 C 0.31266(32) 0.3709(4) 0.1019(4) 0.0264 Uiso
D5_6 D 0.3853(5) 0.2711(5) 0.1513(5) 0.0529 Uiso
D6_6 D 0.2711(5) 0.3853(5) 0.1513(5) 0.0529 Uiso
N3_6 N 0.41093(27) 0.31705(27) 0.03440(26) 0.0253 Uiso
N4_6 N 0.31705(27) 0.41093(27) 0.03440(26) 0.0253 Uiso
N5_6 N 0.53440(26) 0.18295(27) 0.08907(27) 0.0253 Uiso
Zn3_11 Zn 0.25000 0.50000 0.00000 0.0410 Uiso
C4_6 C 0.3784(4) 0.3784(4) 0.9946(5) 0.0284 Uiso
C8_6 C 0.4029(5) 0.4029(5) 0.9166(9) 0.0594 Uiso
D8_6 D 0.3640(6) 0.4301(5) 0.8803(6) 0.0950 Uiso
D9_6 D 0.4301(5) 0.3640(6) 0.8803(6) 0.0950 Uiso
D10_6 D 0.4409(8) 0.4409(8) 0.9292(12) 0.1440 Uiso
N6_6 N 0.46560(26) 0.18295(27) 0.91093(27) 0.0253 Uiso
Zn3_12 Zn 0.25000 0.50000 1.00000 0.0410 Uiso
C4_7 C 0.3784(4) 0.6216(4) 0.0054(5) 0.0284 Uiso
C8_7 C 0.4029(5) 0.5971(5) 0.0834(9) 0.0594 Uiso
D8_7 D 0.4301(5) 0.6360(6) 0.1197(6) 0.0950 Uiso
D9_7 D 0.3640(6) 0.5699(5) 0.1197(6) 0.0950 Uiso
D10_7 D 0.4409(8) 0.5591(8) 0.0708(12) 0.1440 Uiso
N6_7 N 0.18295(27) 0.53440(26) 0.08907(27) 0.0253 Uiso
C6_7 C 0.31266(32) 0.6291(4) 0.8981(4) 0.0264 Uiso
C7_7 C 0.3709(4) 0.68734(32) 0.8981(4) 0.0264 Uiso
D5_7 D 0.2711(5) 0.6147(5) 0.8487(5) 0.0529 Uiso
D6_7 D 0.3853(5) 0.7289(5) 0.8487(5) 0.0529 Uiso
N3_7 N 0.31705(27) 0.58907(27) 0.96560(26) 0.0253 Uiso
N4_7 N 0.41093(27) 0.68295(27) 0.96560(26) 0.0253 Uiso
N5_7 N 0.18295(27) 0.46560(26) 0.91093(27) 0.0253 Uiso
C4_8 C 0.0054(5) 0.3784(4) 0.6216(4) 0.0284 Uiso
C8_8 C 0.0834(9) 0.4029(5) 0.5971(5) 0.0594 Uiso
D8_8 D 0.1197(6) 0.4301(5) 0.6360(6) 0.0950 Uiso
D9_8 D 0.1197(6) 0.3640(6) 0.5699(5) 0.0950 Uiso
D10_8 D 0.0708(12) 0.4409(8) 0.5591(8) 0.1440 Uiso
N6_8 N 0.08907(27) 0.18295(27) 0.53440(26) 0.0253 Uiso
C6_8 C 0.8981(4) 0.31266(32) 0.6291(4) 0.0264 Uiso
C7_8 C 0.8981(4) 0.3709(4) 0.68734(32) 0.0264 Uiso
D5_8 D 0.8487(5) 0.2711(5) 0.6147(5) 0.0529 Uiso
D6_8 D 0.8487(5) 0.3853(5) 0.7289(5) 0.0529 Uiso
N3_8 N 0.96560(26) 0.31705(27) 0.58907(27) 0.0253 Uiso
N4_8 N 0.96560(26) 0.41093(27) 0.68295(27) 0.0253 Uiso
N5_8 N 0.91093(27) 0.18295(27) 0.46560(26) 0.0253 Uiso
C4_9 C 0.6216(4) 0.0054(5) 0.3784(4) 0.0284 Uiso
C8_9 C 0.5971(5) 0.0834(9) 0.4029(5) 0.0594 Uiso
D8_9 D 0.6360(6) 0.1197(6) 0.4301(5) 0.0950 Uiso
D9_9 D 0.5699(5) 0.1197(6) 0.3640(6) 0.0950 Uiso
D10_9 D 0.5591(8) 0.0708(12) 0.4409(8) 0.1440 Uiso
N6_9 N 0.53440(26) 0.08907(27) 0.18295(27) 0.0253 Uiso
C6_9 C 0.6291(4) 0.8981(4) 0.31266(32) 0.0264 Uiso
C7_9 C 0.68734(32) 0.8981(4) 0.3709(4) 0.0264 Uiso
D5_9 D 0.6147(5) 0.8487(5) 0.2711(5) 0.0529 Uiso
D6_9 D 0.7289(5) 0.8487(5) 0.3853(5) 0.0529 Uiso
N3_9 N 0.58907(27) 0.96560(26) 0.31705(27) 0.0253 Uiso
N4_9 N 0.68295(27) 0.96560(26) 0.41093(27) 0.0253 Uiso
N5_9 N 0.46560(26) 0.91093(27) 0.18295(27) 0.0253 Uiso
N5_10 N 0.46560(26) 0.81705(27) 0.08907(27) 0.0253 Uiso
N6_10 N 0.53440(26) 0.81705(27) 0.91093(27) 0.0253 Uiso
N5_11 N 0.08907(27) 0.46560(26) 0.81705(27) 0.0253 Uiso
N6_11 N 0.91093(27) 0.53440(26) 0.81705(27) 0.0253 Uiso
N5_12 N 0.81705(27) 0.08907(27) 0.46560(26) 0.0253 Uiso
N6_12 N 0.81705(27) 0.91093(27) 0.53440(26) 0.0253 Uiso
C4_10 C 0.1216(4) 0.4946(5) 0.1216(4) 0.0284 Uiso
C6_10 C 0.1291(4) 0.6019(4) 0.18734(32) 0.0264 Uiso
C7_10 C 0.18734(32) 0.6019(4) 0.1291(4) 0.0264 Uiso
D5_10 D 0.1147(5) 0.6513(5) 0.2289(5) 0.0529 Uiso
D6_10 D 0.2289(5) 0.6513(5) 0.1147(5) 0.0529 Uiso
C8_10 C 0.0971(5) 0.4166(9) 0.0971(5) 0.0594 Uiso
D8_10 D 0.1360(6) 0.3803(6) 0.0699(5) 0.0950 Uiso
D9_10 D 0.0699(5) 0.3803(6) 0.1360(6) 0.0950 Uiso
D10_10 D 0.0591(8) 0.4292(12) 0.0591(8) 0.1440 Uiso
C1_4 C 0.8784(4) 0.5054(5) 0.1216(4) 0.0284 Uiso
C2_4 C 0.8709(4) 0.3981(4) 0.18734(32) 0.0264 Uiso
D1_4 D 0.8853(5) 0.3487(5) 0.2289(5) 0.0529 Uiso
C3_4 C 0.9029(5) 0.5834(9) 0.0971(5) 0.0594 Uiso
D2_4 D 0.8640(6) 0.6197(6) 0.0699(5) 0.0950 Uiso
D3_4 D 0.9409(8) 0.5708(12) 0.0591(8) 0.1440 Uiso
C5_4 C 0.81266(32) 0.3981(4) 0.1291(4) 0.0264 Uiso
D4_4 D 0.7711(5) 0.3487(5) 0.1147(5) 0.0529 Uiso
D7_4 D 0.9301(5) 0.6197(6) 0.1360(6) 0.0950 Uiso
C4_11 C 0.1216(4) 0.1216(4) 0.4946(5) 0.0284 Uiso
C6_11 C 0.18734(32) 0.1291(4) 0.6019(4) 0.0264 Uiso
C7_11 C 0.1291(4) 0.18734(32) 0.6019(4) 0.0264 Uiso
D5_11 D 0.2289(5) 0.1147(5) 0.6513(5) 0.0529 Uiso
D6_11 D 0.1147(5) 0.2289(5) 0.6513(5) 0.0529 Uiso
C8_11 C 0.0971(5) 0.0971(5) 0.4166(9) 0.0594 Uiso
D8_11 D 0.0699(5) 0.1360(6) 0.3803(6) 0.0950 Uiso
D9_11 D 0.1360(6) 0.0699(5) 0.3803(6) 0.0950 Uiso
D10_11 D 0.0591(8) 0.0591(8) 0.4292(12) 0.1440 Uiso
C1_5 C 0.1216(4) 0.8784(4) 0.5054(5) 0.0284 Uiso
C2_5 C 0.18734(32) 0.8709(4) 0.3981(4) 0.0264 Uiso
D1_5 D 0.2289(5) 0.8853(5) 0.3487(5) 0.0529 Uiso
C3_5 C 0.0971(5) 0.9029(5) 0.5834(9) 0.0594 Uiso
D2_5 D 0.0699(5) 0.8640(6) 0.6197(6) 0.0950 Uiso
D3_5 D 0.0591(8) 0.9409(8) 0.5708(12) 0.1440 Uiso
C5_5 C 0.1291(4) 0.81266(32) 0.3981(4) 0.0264 Uiso
D4_5 D 0.1147(5) 0.7711(5) 0.3487(5) 0.0529 Uiso
D7_5 D 0.1360(6) 0.9301(5) 0.6197(6) 0.0950 Uiso
C4_12 C 0.4946(5) 0.1216(4) 0.1216(4) 0.0284 Uiso
C6_12 C 0.6019(4) 0.18734(32) 0.1291(4) 0.0264 Uiso
C7_12 C 0.6019(4) 0.1291(4) 0.18734(32) 0.0264 Uiso
D5_12 D 0.6513(5) 0.2289(5) 0.1147(5) 0.0529 Uiso
D6_12 D 0.6513(5) 0.1147(5) 0.2289(5) 0.0529 Uiso
C8_12 C 0.4166(9) 0.0971(5) 0.0971(5) 0.0594 Uiso
D8_12 D 0.3803(6) 0.0699(5) 0.1360(6) 0.0950 Uiso
D9_12 D 0.3803(6) 0.1360(6) 0.0699(5) 0.0950 Uiso
D10_12 D 0.4292(12) 0.0591(8) 0.0591(8) 0.1440 Uiso
C1_6 C 0.5054(5) 0.1216(4) 0.8784(4) 0.0284 Uiso
C2_6 C 0.3981(4) 0.18734(32) 0.8709(4) 0.0264 Uiso
D1_6 D 0.3487(5) 0.2289(5) 0.8853(5) 0.0529 Uiso
C3_6 C 0.5834(9) 0.0971(5) 0.9029(5) 0.0594 Uiso
D2_6 D 0.6197(6) 0.0699(5) 0.8640(6) 0.0950 Uiso
D3_6 D 0.5708(12) 0.0591(8) 0.9409(8) 0.1440 Uiso
C5_6 C 0.3981(4) 0.1291(4) 0.81266(32) 0.0264 Uiso
D4_6 D 0.3487(5) 0.1147(5) 0.7711(5) 0.0529 Uiso
D7_6 D 0.6197(6) 0.1360(6) 0.9301(5) 0.0950 Uiso
C4_13 C 0.4946(5) 0.8784(4) 0.8784(4) 0.0284 Uiso
C6_13 C 0.6019(4) 0.8709(4) 0.81266(32) 0.0264 Uiso
C7_13 C 0.6019(4) 0.81266(32) 0.8709(4) 0.0264 Uiso
D5_13 D 0.6513(5) 0.8853(5) 0.7711(5) 0.0529 Uiso
D6_13 D 0.6513(5) 0.7711(5) 0.8853(5) 0.0529 Uiso
C8_13 C 0.4166(9) 0.9029(5) 0.9029(5) 0.0594 Uiso
D8_13 D 0.3803(6) 0.8640(6) 0.9301(5) 0.0950 Uiso
D9_13 D 0.3803(6) 0.9301(5) 0.8640(6) 0.0950 Uiso
D10_13 D 0.4292(12) 0.9409(8) 0.9409(8) 0.1440 Uiso
C4_14 C 0.8784(4) 0.4946(5) 0.8784(4) 0.0284 Uiso
C6_14 C 0.81266(32) 0.6019(4) 0.8709(4) 0.0264 Uiso
C7_14 C 0.8709(4) 0.6019(4) 0.81266(32) 0.0264 Uiso
D5_14 D 0.7711(5) 0.6513(5) 0.8853(5) 0.0529 Uiso
D6_14 D 0.8853(5) 0.6513(5) 0.7711(5) 0.0529 Uiso
C8_14 C 0.9029(5) 0.4166(9) 0.9029(5) 0.0594 Uiso
D8_14 D 0.9301(5) 0.3803(6) 0.8640(6) 0.0950 Uiso
D9_14 D 0.8640(6) 0.3803(6) 0.9301(5) 0.0950 Uiso
D10_14 D 0.9409(8) 0.4292(12) 0.9409(8) 0.1440 Uiso
C4_15 C 0.8784(4) 0.8784(4) 0.4946(5) 0.0284 Uiso
C6_15 C 0.8709(4) 0.81266(32) 0.6019(4) 0.0264 Uiso
C7_15 C 0.81266(32) 0.8709(4) 0.6019(4) 0.0264 Uiso
D5_15 D 0.8853(5) 0.7711(5) 0.6513(5) 0.0529 Uiso
D6_15 D 0.7711(5) 0.8853(5) 0.6513(5) 0.0529 Uiso
C8_15 C 0.9029(5) 0.9029(5) 0.4166(9) 0.0594 Uiso
D8_15 D 0.8640(6) 0.9301(5) 0.3803(6) 0.0950 Uiso
D9_15 D 0.9301(5) 0.8640(6) 0.3803(6) 0.0950 Uiso
D10_15 D 0.9409(8) 0.9409(8) 0.4292(12) 0.1440 Uiso
C4_16 C 0.8784(4) 0.1216(4) 0.5054(5) 0.0284 Uiso
C6_16 C 0.81266(32) 0.1291(4) 0.3981(4) 0.0264 Uiso
C7_16 C 0.8709(4) 0.18734(32) 0.3981(4) 0.0264 Uiso
D5_16 D 0.7711(5) 0.1147(5) 0.3487(5) 0.0529 Uiso
D6_16 D 0.8853(5) 0.2289(5) 0.3487(5) 0.0529 Uiso
C8_16 C 0.9029(5) 0.0971(5) 0.5834(9) 0.0594 Uiso
D8_16 D 0.9301(5) 0.1360(6) 0.6197(6) 0.0950 Uiso
D9_16 D 0.8640(6) 0.0699(5) 0.6197(6) 0.0950 Uiso
D10_16 D 0.9409(8) 0.0591(8) 0.5708(12) 0.1440 Uiso
C4_17 C 0.5054(5) 0.8784(4) 0.1216(4) 0.0284 Uiso
C6_17 C 0.3981(4) 0.81266(32) 0.1291(4) 0.0264 Uiso
C7_17 C 0.3981(4) 0.8709(4) 0.18734(32) 0.0264 Uiso
D5_17 D 0.3487(5) 0.7711(5) 0.1147(5) 0.0529 Uiso
D6_17 D 0.3487(5) 0.8853(5) 0.2289(5) 0.0529 Uiso
C8_17 C 0.5834(9) 0.9029(5) 0.0971(5) 0.0594 Uiso
D8_17 D 0.6197(6) 0.9301(5) 0.1360(6) 0.0950 Uiso
D9_17 D 0.6197(6) 0.8640(6) 0.0699(5) 0.0950 Uiso
D10_17 D 0.5708(12) 0.9409(8) 0.0591(8) 0.1440 Uiso
C4_18 C 0.1216(4) 0.5054(5) 0.8784(4) 0.0284 Uiso
C6_18 C 0.1291(4) 0.3981(4) 0.81266(32) 0.0264 Uiso
C7_18 C 0.18734(32) 0.3981(4) 0.8709(4) 0.0264 Uiso
D5_18 D 0.1147(5) 0.3487(5) 0.7711(5) 0.0529 Uiso
D6_18 D 0.2289(5) 0.3487(5) 0.8853(5) 0.0529 Uiso
C8_18 C 0.0971(5) 0.5834(9) 0.9029(5) 0.0594 Uiso
D8_18 D 0.1360(6) 0.6197(6) 0.9301(5) 0.0950 Uiso
D9_18 D 0.0699(5) 0.6197(6) 0.8640(6) 0.0950 Uiso
D10_18 D 0.0591(8) 0.5708(12) 0.9409(8) 0.1440 Uiso
loop_
_geom_bond_atom_site_label_1
_geom_bond_atom_site_label_2
_geom_bond_site_symmetry_1
_geom_bond_site_symmetry_2
C1 C3 1_555 1_555
C3 D2 1_555 1_555
D3 C3 1_555 1_555
C6 C7 1_555 1_555
C7 D6 1_555 1_555
D5 C6 1_555 1_555
D7 C3 1_555 1_555
N3 Zn1 1_555 1_555
N5 Zn1 1_555 1_555
Zn3 N4 1_555 1_555
C6 N3 1_555 1_555
C7 N4 1_555 1_555
C2 D1 1_555 1_555
Zn1_2 N1 1_555 1_555
C4 C8 1_555 1_555
C5 C2 1_555 1_555
D4 C5 1_555 1_555
C8 D8 1_555 1_555
D9 C8 1_555 1_555
D10 C8 1_555 1_555
N6 Zn1_2 1_555 1_555
Zn2_2 N2 1_555 1_555
C2 N1 1_555 1_555
C5 N2 1_555 1_555
C1_2 C3_2 1_555 1_555
C3_2 D2_2 1_555 1_555
D3_2 C3_2 1_555 1_555
C6_2 C7_2 1_555 1_555
C7_2 D6_2 1_555 1_555
D5_2 C6_2 1_555 1_555
D7_2 C3_2 1_555 1_555
N3_2 Zn1_3 1_555 1_555
N5_2 Zn1_3 1_555 1_555
Zn3_3 N4_2 1_555 1_555
C6_2 N3_2 1_555 1_555
C7_2 N4_2 1_555 1_555
C2_2 D1_2 1_555 1_555
Zn1_4 N1_2 1_555 1_555
C4_2 C8_2 1_555 1_555
C5_2 C2_2 1_555 1_555
D4_2 C5_2 1_555 1_555
C8_2 D8_2 1_555 1_555
D9_2 C8_2 1_555 1_555
D10_2 C8_2 1_555 1_555
N6_2 Zn1_4 1_555 1_555
Zn2_4 N2_2 1_555 1_555
C2_2 N1_2 1_555 1_555
C5_2 N2_2 1_555 1_555
C1_3 C3_3 1_555 1_555
C3_3 D2_3 1_555 1_555
D3_3 C3_3 1_555 1_555
C6_3 C7_3 1_555 1_555
C7_3 D6_3 1_555 1_555
D5_3 C6_3 1_555 1_555
D7_3 C3_3 1_555 1_555
N3_3 Zn1_5 1_555 1_555
N5_3 Zn1_5 1_555 1_555
Zn3_5 N4_3 1_555 1_555
C6_3 N3_3 1_555 1_555
C7_3 N4_3 1_555 1_555
C2_3 D1_3 1_555 1_555
Zn1_6 N1_3 1_555 1_555
C4_3 C8_3 1_555 1_555
C5_3 C2_3 1_555 1_555
D4_3 C5_3 1_555 1_555
C8_3 D8_3 1_555 1_555
D9_3 C8_3 1_555 1_555
D10_3 C8_3 1_555 1_555
N6_3 Zn1_6 1_555 1_555
Zn2_6 N2_3 1_555 1_555
C2_3 N1_3 1_555 1_555
C5_3 N2_3 1_555 1_555
C6_4 C7_4 1_555 1_555
C7_4 D6_4 1_555 1_555
D5_4 C6_4 1_555 1_555
N3_4 Zn2_5 1_555 1_555
N5_4 Zn2_5 1_555 1_555
Zn3_7 N4_4 1_555 1_555
C6_4 N3_4 1_555 1_555
C7_4 N4_4 1_555 1_555
C4_4 C8_4 1_555 1_555
C8_4 D8_4 1_555 1_555
D9_4 C8_4 1_555 1_555
D10_4 C8_4 1_555 1_555
N6_4 Zn2_6 1_555 1_555
C6_5 C7_5 1_555 1_555
C7_5 D6_5 1_555 1_555
D5_5 C6_5 1_555 1_555
N3_5 Zn2 1_555 1_555
N5_5 Zn2 1_555 1_555
Zn3_9 N4_5 1_555 1_555
C6_5 N3_5 1_555 1_555
C7_5 N4_5 1_555 1_555
C4_5 C8_5 1_555 1_555
C8_5 D8_5 1_555 1_555
D9_5 C8_5 1_555 1_555
D10_5 C8_5 1_555 1_555
N6_5 Zn2_2 1_555 1_555
C6_6 C7_6 1_555 1_555
C7_6 D6_6 1_555 1_555
D5_6 C6_6 1_555 1_555
N3_6 Zn2_3 1_555 1_555
N5_6 Zn2_3 1_555 1_555
Zn3_11 N4_6 1_555 1_555
C6_6 N3_6 1_555 1_555
C7_6 N4_6 1_555 1_555
C4_6 C8_6 1_555 1_555
C8_6 D8_6 1_555 1_555
D9_6 C8_6 1_555 1_555
D10_6 C8_6 1_555 1_555
N6_6 Zn2_4 1_555 1_555
C4_7 C8_7 1_555 1_555
C8_7 D8_7 1_555 1_555
D9_7 C8_7 1_555 1_555
D10_7 C8_7 1_555 1_555
N6_7 Zn3_11 1_555 1_555
C6_7 C7_7 1_555 1_555
C7_7 D6_7 1_555 1_555
D5_7 C6_7 1_555 1_555
N3_7 Zn3_12 1_555 1_555
N5_7 Zn3_12 1_555 1_555
Zn3_4 N4_7 1_555 1_555
C6_7 N3_7 1_555 1_555
C7_7 N4_7 1_555 1_555
C4_8 C8_8 1_555 1_555
C8_8 D8_8 1_555 1_555
D9_8 C8_8 1_555 1_555
D10_8 C8_8 1_555 1_555
N6_8 Zn3_7 1_555 1_555
C6_8 C7_8 1_555 1_555
C7_8 D6_8 1_555 1_555
D5_8 C6_8 1_555 1_555
N3_8 Zn3_8 1_555 1_555
N5_8 Zn3_8 1_555 1_555
Zn3_6 N4_8 1_555 1_555
C6_8 N3_8 1_555 1_555
C7_8 N4_8 1_555 1_555
C4_9 C8_9 1_555 1_555
C8_9 D8_9 1_555 1_555
D9_9 C8_9 1_555 1_555
D10_9 C8_9 1_555 1_555
N6_9 Zn3_9 1_555 1_555
C6_9 C7_9 1_555 1_555
C7_9 D6_9 1_555 1_555
D5_9 C6_9 1_555 1_555
N3_9 Zn3_10 1_555 1_555
N5_9 Zn3_10 1_555 1_555
Zn3_2 N4_9 1_555 1_555
C6_9 N3_9 1_555 1_555
C7_9 N4_9 1_555 1_555
N5_10 Zn3_3 1_555 1_555
N6_10 Zn3_4 1_555 1_555
N5_11 Zn3_5 1_555 1_555
N6_11 Zn3_6 1_555 1_555
N5_12 Zn3 1_555 1_555
N6_12 Zn3_2 1_555 1_555
C4_10 C8_10 1_555 1_555
C6_10 C7_10 1_555 1_555
C7_10 D6_10 1_555 1_555
D5_10 C6_10 1_555 1_555
C8_10 D8_10 1_555 1_555
D9_10 C8_10 1_555 1_555
D10_10 C8_10 1_555 1_555
N6_7 C4_10 1_555 1_555
C4_10 N5_4 1_555 1_555
C6_10 N5_4 1_555 1_555
C7_10 N6_7 1_555 1_555
C1_4 C3_4 1_555 1_555
C2_4 D1_4 1_555 1_555
C3_4 D2_4 1_555 1_555
D3_4 C3_4 1_555 1_555
N6_4 C1_4 1_555 1_555
C5_4 C2_4 1_555 1_555
D4_4 C5_4 1_555 1_555
D7_4 C3_4 1_555 1_555
N5_2 C1_4 1_555 1_555
C2_4 N6_4 1_555 1_555
C5_4 N5_2 1_555 1_555
C4_11 C8_11 1_555 1_555
C6_11 C7_11 1_555 1_555
C7_11 D6_11 1_555 1_555
D5_11 C6_11 1_555 1_555
C8_11 D8_11 1_555 1_555
D9_11 C8_11 1_555 1_555
D10_11 C8_11 1_555 1_555
N6_8 C4_11 1_555 1_555
C4_11 N5_5 1_555 1_555
C6_11 N5_5 1_555 1_555
C7_11 N6_8 1_555 1_555
C1_5 C3_5 1_555 1_555
C2_5 D1_5 1_555 1_555
C3_5 D2_5 1_555 1_555
D3_5 C3_5 1_555 1_555
N6_5 C1_5 1_555 1_555
C5_5 C2_5 1_555 1_555
D4_5 C5_5 1_555 1_555
D7_5 C3_5 1_555 1_555
N5_3 C1_5 1_555 1_555
C2_5 N6_5 1_555 1_555
C5_5 N5_3 1_555 1_555
C4_12 C8_12 1_555 1_555
C6_12 C7_12 1_555 1_555
C7_12 D6_12 1_555 1_555
D5_12 C6_12 1_555 1_555
C8_12 D8_12 1_555 1_555
D9_12 C8_12 1_555 1_555
D10_12 C8_12 1_555 1_555
N6_9 C4_12 1_555 1_555
C4_12 N5_6 1_555 1_555
C6_12 N5_6 1_555 1_555
C7_12 N6_9 1_555 1_555
C1_6 C3_6 1_555 1_555
C2_6 D1_6 1_555 1_555
C3_6 D2_6 1_555 1_555
D3_6 C3_6 1_555 1_555
N6_6 C1_6 1_555 1_555
C5_6 C2_6 1_555 1_555
D4_6 C5_6 1_555 1_555
D7_6 C3_6 1_555 1_555
N5 C1_6 1_555 1_555
C2_6 N6_6 1_555 1_555
C5_6 N5 1_555 1_555
C4_13 C8_13 1_555 1_555
C6_13 C7_13 1_555 1_555
C7_13 D6_13 1_555 1_555
D5_13 C6_13 1_555 1_555
C8_13 D8_13 1_555 1_555
D9_13 C8_13 1_555 1_555
D10_13 C8_13 1_555 1_555
N6_10 C4_13 1_555 1_555
C4_13 N6 1_555 1_555
C6_13 N6 1_555 1_555
C7_13 N6_10 1_555 1_555
C4_14 C8_14 1_555 1_555
C6_14 C7_14 1_555 1_555
C7_14 D6_14 1_555 1_555
D5_14 C6_14 1_555 1_555
C8_14 D8_14 1_555 1_555
D9_14 C8_14 1_555 1_555
D10_14 C8_14 1_555 1_555
N6_11 C4_14 1_555 1_555
C4_14 N6_2 1_555 1_555
C6_14 N6_2 1_555 1_555
C7_14 N6_11 1_555 1_555
C4_15 C8_15 1_555 1_555
C6_15 C7_15 1_555 1_555
C7_15 D6_15 1_555 1_555
D5_15 C6_15 1_555 1_555
C8_15 D8_15 1_555 1_555
D9_15 C8_15 1_555 1_555
D10_15 C8_15 1_555 1_555
N6_12 C4_15 1_555 1_555
C4_15 N6_3 1_555 1_555
C6_15 N6_3 1_555 1_555
C7_15 N6_12 1_555 1_555
C4_16 C8_16 1_555 1_555
C6_16 C7_16 1_555 1_555
C7_16 D6_16 1_555 1_555
D5_16 C6_16 1_555 1_555
C8_16 D8_16 1_555 1_555
D9_16 C8_16 1_555 1_555
D10_16 C8_16 1_555 1_555
N5_8 C4_16 1_555 1_555
C4_16 N5_12 1_555 1_555
C6_16 N5_12 1_555 1_555
C7_16 N5_8 1_555 1_555
C4_17 C8_17 1_555 1_555
C6_17 C7_17 1_555 1_555
C7_17 D6_17 1_555 1_555
D5_17 C6_17 1_555 1_555
C8_17 D8_17 1_555 1_555
D9_17 C8_17 1_555 1_555
D10_17 C8_17 1_555 1_555
N5_9 C4_17 1_555 1_555
C4_17 N5_10 1_555 1_555
C6_17 N5_10 1_555 1_555
C7_17 N5_9 1_555 1_555
C4_18 C8_18 1_555 1_555
C6_18 C7_18 1_555 1_555
C7_18 D6_18 1_555 1_555
D5_18 C6_18 1_555 1_555
C8_18 D8_18 1_555 1_555
D9_18 C8_18 1_555 1_555
D10_18 C8_18 1_555 1_555
N5_7 C4_18 1_555 1_555
C4_18 N5_11 1_555 1_555
C6_18 N5_11 1_555 1_555
C7_18 N5_7 1_555 1_555

#END
