
###############################################################################
#
# This file contains modified crystal structure data generated from the
# MOF subset of the Cambridge Structural Database (CSD) v543 
# hosted by the Cambridge Crystallographic Data Centre (CCDC).
#
# This work is licensed under the Creative Commons
# Attribution-NonCommercial-ShareAlike 4.0 International License.
# To view a copy of this license, visit
# http://creativecommons.org/licenses/by-nc-sa/4.0/
# or send a letter to
# Creative Commons, PO Box 1866, Mountain View, CA 94042, USA.
#
# CIF created using the CSD Python API on 29 September 2022
# The structure has been converted into the P1 space group
# The structure has a 3D framework
# The original CSD entry OFESAU is in the trigonal crystal system
# The framework has been calculated to contain at least 10.0% void space
# The void calculation uses a probe of radius 1.32A, grid spacing 0.4
# H atom positions have been added when not included in the experimental data
#
###############################################################################

data_OFESAU
_chemical_formula_moiety         '(C48 H84 Cu9 Gd4 N12 O48)n'
_symmetry_cell_setting           triclinic
_symmetry_space_group_name_H-M   'P 1'
_symmetry_Int_Tables_number      1
_space_group_name_Hall           'P 1'
loop_
_symmetry_equiv_pos_site_id
_symmetry_equiv_pos_as_xyz
1 x,y,z
_cell_length_a                   13.343(3)
_cell_length_b                   13.343(3)
_cell_length_c                   14.515(4)
_cell_angle_alpha                90
_cell_angle_beta                 90
_cell_angle_gamma                120
_cell_volume                     2237.97
loop_
_atom_site_label
_atom_site_type_symbol
_atom_site_fract_x
_atom_site_fract_y
_atom_site_fract_z
Cu1 Cu 0.5000 -0.0000 0.0000
H1 H 0.6740 0.0241 0.0779
Cu5 Cu 0.5000 -0.0000 0.5000
O23 O 0.5493(3) 0.1872(4) 0.0584(3)
H9 H 0.3501 0.0241 0.5779
Cu1_2 Cu 0.5000 -0.0000 1.0000
O10 O 0.5988(4) 0.0747(3) 0.8924(3)
N7 N 0.3892(4) 0.0420(4) 0.9418(3)
H38 H 0.427856 0.0956364 0.887503
H39 H 0.364962 0.0821544 0.988794
Cu1_3 Cu 0.5000 1.0000 0.0000
Gd1 Gd 0.3333 0.6667 0.33200(4)
O1 O 0.4012(4) 0.9253(3) 0.1076(3)
O2 O 0.3821(5) 0.8173(4) 0.2283(3)
N1 N 0.6108(4) 0.9580(4) 0.0582(3)
C1 C 0.4380(5) 0.8746(4) 0.1592(5)
C2 C 0.5529(5) 0.8856(6) 0.1392(4)
H2 H 0.5422 0.8089 0.1291
H3 H 0.6026 0.9186 0.1925
H5 H 0.6825 0.8621 0.0206
Cu2 Cu 0.0000 0.5000 0.0000
Cu3 Cu 0.5000 0.5000 0.0000
Cu4 Cu 0.5000 0.5000 0.5000
Cu5_2 Cu 0.5000 1.0000 0.5000
Cu6 Cu 0.0000 0.5000 0.5000
Gd2 Gd 0.3333 0.6666 0.83200(4)
O5 O 0.0747(3) 0.4759(5) 0.1076(3)
O6 O 0.5241(5) 0.5988(4) 0.1076(3)
O7 O 0.4012(4) 0.4759(5) 0.6076(3)
O8 O 0.5241(5) 0.9253(3) 0.6076(3)
O9 O 0.0747(3) 0.5988(4) 0.6076(3)
O13 O 0.1827(4) 0.5648(6) 0.2283(3)
O14 O 0.4352(6) 0.6179(5) 0.2283(3)
O15 O 0.3821(5) 0.5648(6) 0.7283(3)
O16 O 0.4352(6) 0.8173(4) 0.7283(3)
O17 O 0.1827(4) 0.6179(5) 0.7283(3)
O20 O 0.4507(3) 0.6379(5) 0.4416(3)
O21 O 0.3621(5) 0.8128(4) 0.4416(3)
O22 O 0.1872(4) 0.5493(3) 0.4416(3)
O24 O 0.4507(3) 0.8128(4) 0.9416(3)
O25 O 0.1872(4) 0.6379(5) 0.9416(3)
O26 O 0.3621(5) 0.5493(3) 0.9416(3)
O28 O 0.6379(5) 0.4507(3) 0.0584(3)
O31 O 0.5609(5) 0.8048(6) 0.3731(3)
O32 O 0.1952(6) 0.7561(4) 0.3731(3)
O33 O 0.2439(4) 0.4391(5) 0.3731(3)
O34 O 0.5609(5) 0.7561(4) 0.8731(3)
O35 O 0.2439(4) 0.8048(6) 0.8731(3)
O36 O 0.1952(6) 0.4391(5) 0.8731(3)
N2 N 0.0420(4) 0.6528(6) 0.0582(3)
N3 N 0.3472(6) 0.3892(4) 0.0582(3)
N4 N 0.6108(4) 0.6528(6) 0.5582(3)
N5 N 0.3472(6) 0.9580(4) 0.5582(3)
N6 N 0.0420(4) 0.3892(4) 0.5582(3)
H7 H 0.3501 0.3260 0.0779
H8 H 0.6740 0.6499 0.5779
C5 C 0.1254(4) 0.5634(6) 0.1592(5)
C6 C 0.4366(6) 0.5620(5) 0.1592(5)
C7 C 0.4380(5) 0.5634(6) 0.6592(5)
C8 C 0.4366(6) 0.8746(4) 0.6592(5)
C9 C 0.1254(4) 0.5620(5) 0.6592(5)
C10 C 0.1144(6) 0.6673(8) 0.1392(4)
C11 C 0.3327(8) 0.4471(5) 0.1392(4)
C12 C 0.5529(5) 0.6673(8) 0.6392(4)
C13 C 0.3327(8) 0.8856(6) 0.6392(4)
C14 C 0.1144(6) 0.4471(5) 0.6392(4)
H14 H 0.1911 0.7333 0.1291
H15 H 0.2667 0.4578 0.1291
H16 H 0.5422 0.7333 0.6291
H17 H 0.2667 0.8089 0.6291
H18 H 0.1911 0.4578 0.6291
H19 H 0.0814 0.6840 0.1925
H20 H 0.3160 0.3974 0.1925
H21 H 0.6026 0.6840 0.6925
H22 H 0.3160 0.9186 0.6925
H23 H 0.0814 0.3974 0.6925
C17 C 0.6486(5) 0.7462(7) 0.4894(4)
C18 C 0.2538(7) 0.9024(5) 0.4894(4)
C19 C 0.0976(5) 0.3514(5) 0.4894(4)
H26 H 0.7073 0.7461 0.4501
H27 H 0.2539 0.9612 0.4501
H28 H 0.0388 0.2927 0.4501
H29 H 0.1379 0.8204 0.0206
H30 H 0.1796 0.3175 0.0206
H31 H 0.6825 0.8204 0.5206
H32 H 0.1796 0.8621 0.5206
H33 H 0.1379 0.3175 0.5206
C22 C 0.5471(5) 0.7299(7) 0.4310(4)
C23 C 0.2701(7) 0.8172(5) 0.4310(4)
C24 C 0.1828(5) 0.4529(5) 0.4310(4)
Cu1_4 Cu 0.5000 1.0000 1.0000
C3 C 0.6486(5) 0.9024(5) 0.9894(4)
H4 H 0.7073 0.9612 0.9501
C4 C 0.5471(5) 0.8172(5) 0.9310(4)
Cu2_2 Cu 0.0000 0.5000 1.0000
Cu3_2 Cu 0.5000 0.5000 1.0000
O12 O 0.4759(5) 0.4012(4) 0.8924(3)
N9 N 0.6528(6) 0.6108(4) 0.9418(3)
H11 H 0.3260 0.9759 0.9221
H12 H 0.0241 0.3501 0.9221
H13 H 0.6499 0.6740 0.9221
C15 C 0.0976(5) 0.7462(7) 0.9894(4)
C16 C 0.2538(7) 0.3514(5) 0.9894(4)
H24 H 0.0388 0.7461 0.9501
H25 H 0.2539 0.2927 0.9501
C20 C 0.1828(5) 0.7299(7) 0.9310(4)
C21 C 0.2701(7) 0.4529(5) 0.9310(4)
H34 H 0.667781 0.572144 0.887503
H35 H 0.717193 0.635038 0.988794
Cu2_3 Cu 1.0000 0.5000 0.0000
Cu6_2 Cu 1.0000 0.5000 0.5000
O27 O 0.8128(4) 0.3621(5) 0.0584(3)
H6 H 0.9759 0.6499 0.0779
H10 H 0.9759 0.3260 0.5779
Cu2_4 Cu 1.0000 0.5000 1.0000
O11 O 0.9253(3) 0.5241(5) 0.8924(3)
N8 N 0.9580(4) 0.3472(6) 0.9418(3)
H36 H 0.904364 0.332219 0.887503
H37 H 0.917846 0.282807 0.988794
H1_2 H 0.0241 0.6740 0.4221
H38_2 H 0.0956364 0.427856 0.612497
H39_2 H 0.0821544 0.364962 0.511206
Gd1_2 Gd 0.6667 0.3333 0.16800(4)
O1_2 O 0.9253(3) 0.4012(4) 0.3924(3)
O2_2 O 0.8173(4) 0.3821(5) 0.2717(3)
O3 O 0.8128(4) 0.4507(3) 0.5584(3)
O4 O 0.7561(4) 0.5609(5) 0.6269(3)
N1_2 N 0.9580(4) 0.6108(4) 0.4418(3)
C1_2 C 0.8746(4) 0.4380(5) 0.3408(5)
C2_2 C 0.8856(6) 0.5529(5) 0.3608(4)
H2_2 H 0.8089 0.5422 0.3709
H3_2 H 0.9186 0.6026 0.3075
C3_2 C 0.9024(5) 0.6486(5) 0.5106(4)
H4_2 H 0.9612 0.7073 0.5499
H5_2 H 0.8621 0.6825 0.4794
C4_2 C 0.8172(5) 0.5471(5) 0.5690(4)
Gd3 Gd 0.6666 0.3333 0.66800(4)
O5_2 O 0.4759(5) 0.0747(3) 0.3924(3)
O6_2 O 0.5988(4) 0.5241(5) 0.3924(3)
O13_2 O 0.5648(6) 0.1827(4) 0.2717(3)
O14_2 O 0.6179(5) 0.4352(6) 0.2717(3)
O18 O 0.6379(5) 0.1872(4) 0.5584(3)
O19 O 0.5493(3) 0.3621(5) 0.5584(3)
O29 O 0.8048(6) 0.2439(4) 0.6269(3)
O30 O 0.4391(5) 0.1952(6) 0.6269(3)
O31_2 O 0.8048(6) 0.5609(5) 0.1269(3)
O32_2 O 0.7561(4) 0.1952(6) 0.1269(3)
O33_2 O 0.4391(5) 0.2439(4) 0.1269(3)
N2_2 N 0.6528(6) 0.0420(4) 0.4418(3)
N3_2 N 0.3892(4) 0.3472(6) 0.4418(3)
H7_2 H 0.3260 0.3501 0.4221
C5_2 C 0.5634(6) 0.1254(4) 0.3408(5)
C6_2 C 0.5620(5) 0.4366(6) 0.3408(5)
C10_2 C 0.6673(8) 0.1144(6) 0.3608(4)
C11_2 C 0.4471(5) 0.3327(8) 0.3608(4)
H14_2 H 0.7333 0.1911 0.3709
H15_2 H 0.4578 0.2667 0.3709
H19_2 H 0.6840 0.0814 0.3075
H20_2 H 0.3974 0.3160 0.3075
C15_2 C 0.7462(7) 0.0976(5) 0.5106(4)
C16_2 C 0.3514(5) 0.2538(7) 0.5106(4)
C17_2 C 0.7462(7) 0.6486(5) 0.0106(4)
C18_2 C 0.9024(5) 0.2538(7) 0.0106(4)
C19_2 C 0.3514(5) 0.0976(5) 0.0106(4)
H24_2 H 0.7461 0.0388 0.5499
H25_2 H 0.2927 0.2539 0.5499
H26_2 H 0.7461 0.7073 0.0499
H27_2 H 0.9612 0.2539 0.0499
H28_2 H 0.2927 0.0388 0.0499
H29_2 H 0.8204 0.1379 0.4794
H30_2 H 0.3175 0.1796 0.4794
C20_2 C 0.7299(7) 0.1828(5) 0.5690(4)
C21_2 C 0.4529(5) 0.2701(7) 0.5690(4)
C22_2 C 0.7299(7) 0.5471(5) 0.0690(4)
C23_2 C 0.8172(5) 0.2701(7) 0.0690(4)
C24_2 C 0.4529(5) 0.1828(5) 0.0690(4)
H34_2 H 0.572144 0.667781 0.612497
H35_2 H 0.635038 0.717193 0.511206
O15_2 O 0.5648(6) 0.3821(5) 0.7717(3)
O16_2 O 0.8173(4) 0.4352(6) 0.7717(3)
O17_2 O 0.6179(5) 0.1827(4) 0.7717(3)
C7_2 C 0.5634(6) 0.4380(5) 0.8408(5)
C8_2 C 0.8746(4) 0.4366(6) 0.8408(5)
C9_2 C 0.5620(5) 0.1254(4) 0.8408(5)
C12_2 C 0.6673(8) 0.5529(5) 0.8608(4)
C13_2 C 0.8856(6) 0.3327(8) 0.8608(4)
C14_2 C 0.4471(5) 0.1144(6) 0.8608(4)
H16_2 H 0.7333 0.5422 0.8709
H17_2 H 0.8089 0.2667 0.8709
H18_2 H 0.4578 0.1911 0.8709
H21_2 H 0.6840 0.6026 0.8075
H22_2 H 0.9186 0.3160 0.8075
H23_2 H 0.3974 0.0814 0.8075
H31_2 H 0.8204 0.6825 0.9794
H32_2 H 0.8621 0.1796 0.9794
H33_2 H 0.3175 0.1379 0.9794
H6_2 H 0.6499 0.9759 0.4221
H36_2 H 0.332219 0.904364 0.612497
H37_2 H 0.282807 0.917846 0.511206
H36_3 H 0.0956364 0.667781 0.112497
H37_3 H 0.0821544 0.717193 0.0112057
H34_3 H 0.332219 0.427856 0.112497
H35_3 H 0.282807 0.364962 0.0112057
H38_3 H 0.572144 0.904364 0.112497
H39_3 H 0.635038 0.917846 0.0112057
H36_4 H 0.667781 0.0956364 0.387503
H37_4 H 0.717193 0.0821544 0.488794
H34_4 H 0.427856 0.332219 0.387503
H35_4 H 0.364962 0.282807 0.488794
H38_4 H 0.904364 0.572144 0.387503
H39_4 H 0.917846 0.635038 0.488794
loop_
_geom_bond_atom_site_label_1
_geom_bond_atom_site_label_2
_geom_bond_site_symmetry_1
_geom_bond_site_symmetry_2
O23 Cu1 1_555 1_555
O10 Cu1_2 1_555 1_555
N7 Cu1_2 1_555 1_555
N7 H38 1_555 1_555
N7 H39 1_555 1_555
Cu1_3 O1 1_555 1_555
Gd1 O2 1_555 1_555
O1 C1 1_555 1_555
O2 C1 1_555 1_555
N1 Cu1_3 1_555 1_555
C1 C2 1_555 1_555
C2 N1 1_555 1_555
H2 C2 1_555 1_555
H3 C2 1_555 1_555
Cu2 O5 1_555 1_555
Cu3 O6 1_555 1_555
Cu4 O7 1_555 1_555
Cu5_2 O8 1_555 1_555
Cu6 O9 1_555 1_555
Gd2 O15 1_555 1_555
O5 C5 1_555 1_555
O6 C6 1_555 1_555
O7 C7 1_555 1_555
O8 C8 1_555 1_555
O9 C9 1_555 1_555
O13 Gd1 1_555 1_555
O14 Gd1 1_555 1_555
O15 C7 1_555 1_555
O16 Gd2 1_555 1_555
O17 Gd2 1_555 1_555
O20 Gd1 1_555 1_555
O21 Gd1 1_555 1_555
O22 Gd1 1_555 1_555
O24 Gd2 1_555 1_555
O25 Gd2 1_555 1_555
O26 Gd2 1_555 1_555
O28 Cu3 1_555 1_555
O31 Gd1 1_555 1_555
O32 Gd1 1_555 1_555
O33 Gd1 1_555 1_555
O34 Gd2 1_555 1_555
O35 Gd2 1_555 1_555
O36 Gd2 1_555 1_555
N2 Cu2 1_555 1_555
N3 Cu3 1_555 1_555
N4 Cu4 1_555 1_555
N5 Cu5_2 1_555 1_555
N6 Cu6 1_555 1_555
H7 N3 1_555 1_555
H8 N4 1_555 1_555
C5 O13 1_555 1_555
C6 O14 1_555 1_555
C7 C12 1_555 1_555
C8 O16 1_555 1_555
C9 O17 1_555 1_555
C10 N2 1_555 1_555
C11 N3 1_555 1_555
C12 N4 1_555 1_555
C13 N5 1_555 1_555
C14 N6 1_555 1_555
H14 C10 1_555 1_555
H15 C11 1_555 1_555
H16 C12 1_555 1_555
H17 C13 1_555 1_555
H18 C14 1_555 1_555
H19 C10 1_555 1_555
H20 C11 1_555 1_555
H21 C12 1_555 1_555
H22 C13 1_555 1_555
H23 C14 1_555 1_555
C17 N4 1_555 1_555
C18 N5 1_555 1_555
C19 N6 1_555 1_555
H26 C17 1_555 1_555
H27 C18 1_555 1_555
H28 C19 1_555 1_555
H31 C17 1_555 1_555
H32 C18 1_555 1_555
H33 C19 1_555 1_555
C22 O20 1_555 1_555
C23 O21 1_555 1_555
C24 O22 1_555 1_555
Cu4 O20 1_555 1_555
Cu5_2 O21 1_555 1_555
Cu6 O22 1_555 1_555
O31 C22 1_555 1_555
O32 C23 1_555 1_555
O33 C24 1_555 1_555
C5 C10 1_555 1_555
C6 C11 1_555 1_555
C8 C13 1_555 1_555
C9 C14 1_555 1_555
C17 C22 1_555 1_555
C18 C23 1_555 1_555
C19 C24 1_555 1_555
O24 Cu1_4 1_555 1_555
O34 C4 1_555 1_555
H4 C3 1_555 1_555
C4 O24 1_555 1_555
O12 Cu3_2 1_555 1_555
O25 Cu2_2 1_555 1_555
O26 Cu3_2 1_555 1_555
N9 Cu3_2 1_555 1_555
H13 N9 1_555 1_555
H24 C15 1_555 1_555
H25 C16 1_555 1_555
C20 O25 1_555 1_555
C21 O26 1_555 1_555
C3 C4 1_555 1_555
O35 C20 1_555 1_555
O36 C21 1_555 1_555
C15 C20 1_555 1_555
C16 C21 1_555 1_555
N9 H34 1_555 1_555
N9 H35 1_555 1_555
O27 Cu2_3 1_555 1_555
O11 Cu2_4 1_555 1_555
N8 Cu2_4 1_555 1_555
N8 H36 1_555 1_555
N8 H37 1_555 1_555
N6 H38_2 1_555 1_555
N6 H39_2 1_555 1_555
Cu6_2 O1_2 1_555 1_555
Gd1_2 O2_2 1_555 1_555
O1_2 C1_2 1_555 1_555
O2_2 C1_2 1_555 1_555
O3 Cu6_2 1_555 1_555
O4 C4_2 1_555 1_555
N1_2 Cu6_2 1_555 1_555
C1_2 C2_2 1_555 1_555
C2_2 N1_2 1_555 1_555
H2_2 C2_2 1_555 1_555
H3_2 C2_2 1_555 1_555
C3_2 N1_2 1_555 1_555
H4_2 C3_2 1_555 1_555
H5_2 C3_2 1_555 1_555
C4_2 O3 1_555 1_555
Cu5 O5_2 1_555 1_555
Cu4 O6_2 1_555 1_555
Gd3 O3 1_555 1_555
O5_2 C5_2 1_555 1_555
O6_2 C6_2 1_555 1_555
O13_2 Gd1_2 1_555 1_555
O14_2 Gd1_2 1_555 1_555
O18 Cu5 1_555 1_555
O19 Cu4 1_555 1_555
O28 Gd1_2 1_555 1_555
O27 Gd1_2 1_555 1_555
O23 Gd1_2 1_555 1_555
O29 Gd3 1_555 1_555
O30 Gd3 1_555 1_555
O31_2 Gd1_2 1_555 1_555
O32_2 Gd1_2 1_555 1_555
O33_2 Gd1_2 1_555 1_555
N2_2 Cu5 1_555 1_555
N3_2 Cu4 1_555 1_555
H7_2 N3_2 1_555 1_555
C5_2 O13_2 1_555 1_555
C6_2 O14_2 1_555 1_555
C10_2 N2_2 1_555 1_555
C11_2 N3_2 1_555 1_555
H14_2 C10_2 1_555 1_555
H15_2 C11_2 1_555 1_555
H19_2 C10_2 1_555 1_555
H20_2 C11_2 1_555 1_555
C15_2 N2_2 1_555 1_555
C16_2 N3_2 1_555 1_555
H24_2 C15_2 1_555 1_555
H25_2 C16_2 1_555 1_555
H26_2 C17_2 1_555 1_555
H27_2 C18_2 1_555 1_555
H28_2 C19_2 1_555 1_555
H29_2 C15_2 1_555 1_555
H30_2 C16_2 1_555 1_555
C20_2 O18 1_555 1_555
C21_2 O19 1_555 1_555
C22_2 O28 1_555 1_555
C23_2 O27 1_555 1_555
C24_2 O23 1_555 1_555
O4 Gd3 1_555 1_555
C3_2 C4_2 1_555 1_555
Gd3 O18 1_555 1_555
Gd3 O19 1_555 1_555
O29 C20_2 1_555 1_555
O30 C21_2 1_555 1_555
O31_2 C22_2 1_555 1_555
O32_2 C23_2 1_555 1_555
O33_2 C24_2 1_555 1_555
C5_2 C10_2 1_555 1_555
C6_2 C11_2 1_555 1_555
C15_2 C20_2 1_555 1_555
C16_2 C21_2 1_555 1_555
C17_2 C22_2 1_555 1_555
C18_2 C23_2 1_555 1_555
C19_2 C24_2 1_555 1_555
N4 H34_2 1_555 1_555
N4 H35_2 1_555 1_555
Gd3 O15_2 1_555 1_555
O12 C7_2 1_555 1_555
O11 C8_2 1_555 1_555
O10 C9_2 1_555 1_555
O15_2 C7_2 1_555 1_555
O16_2 Gd3 1_555 1_555
O17_2 Gd3 1_555 1_555
C7_2 C12_2 1_555 1_555
C8_2 O16_2 1_555 1_555
C9_2 O17_2 1_555 1_555
C12_2 N9 1_555 1_555
C13_2 N8 1_555 1_555
C14_2 N7 1_555 1_555
H16_2 C12_2 1_555 1_555
H17_2 C13_2 1_555 1_555
H18_2 C14_2 1_555 1_555
H21_2 C12_2 1_555 1_555
H22_2 C13_2 1_555 1_555
H23_2 C14_2 1_555 1_555
C8_2 C13_2 1_555 1_555
C9_2 C14_2 1_555 1_555
N5 H36_2 1_555 1_555
N5 H37_2 1_555 1_555
N2 H36_3 1_555 1_555
N2 H37_3 1_555 1_555
N3 H34_3 1_555 1_555
N3 H35_3 1_555 1_555
N1 H38_3 1_555 1_555
N1 H39_3 1_555 1_555
N2_2 H36_4 1_555 1_555
N2_2 H37_4 1_555 1_555
N3_2 H34_4 1_555 1_555
N3_2 H35_4 1_555 1_555
N1_2 H38_4 1_555 1_555
N1_2 H39_4 1_555 1_555

#END
