
###############################################################################
#
# This file contains modified crystal structure data generated from the
# MOF subset of the Cambridge Structural Database (CSD) v543 
# hosted by the Cambridge Crystallographic Data Centre (CCDC).
#
# This work is licensed under the Creative Commons
# Attribution-NonCommercial-ShareAlike 4.0 International License.
# To view a copy of this license, visit
# http://creativecommons.org/licenses/by-nc-sa/4.0/
# or send a letter to
# Creative Commons, PO Box 1866, Mountain View, CA 94042, USA.
#
# CIF created using the CSD Python API on 29 September 2022
# The structure has been converted into the P1 space group
# The structure has a 3D framework
# The original CSD entry OFESEY is in the trigonal crystal system
# The framework has been calculated to contain at least 10.0% void space
# The void calculation uses a probe of radius 1.32A, grid spacing 0.4
# H atom positions have been added when not included in the experimental data
#
###############################################################################

data_OFESEY
_chemical_formula_moiety         '(C48 H84 Cu9 N12 Nd4 O48)n'
_symmetry_cell_setting           triclinic
_symmetry_space_group_name_H-M   'P 1'
_symmetry_Int_Tables_number      1
_space_group_name_Hall           'P 1'
loop_
_symmetry_equiv_pos_site_id
_symmetry_equiv_pos_as_xyz
1 x,y,z
_cell_length_a                   13.414(3)
_cell_length_b                   13.414(3)
_cell_length_c                   14.706(4)
_cell_angle_alpha                90
_cell_angle_beta                 90
_cell_angle_gamma                120
_cell_volume                     2291.62
loop_
_atom_site_label
_atom_site_type_symbol
_atom_site_fract_x
_atom_site_fract_y
_atom_site_fract_z
Cu1 Cu 0.5000 0.0000 0.0000
H1 H 0.6743 0.0254 0.0775
Cu5 Cu 0.5000 -0.0000 0.5000
O23 O 0.5475(4) 0.1853(4) 0.0571(3)
H9 H 0.3511 0.0254 0.5775
Cu1_2 Cu 0.5000 0.0000 1.0000
O10 O 0.5983(4) 0.0746(4) 0.8946(4)
N7 N 0.3888(4) 0.0404(4) 0.9418(4)
H34 H 0.427136 0.0933177 0.887958
H35 H 0.364713 0.0806844 0.98788
Cu1_3 Cu 0.5000 1.0000 0.0000
Nd1 Nd 0.3333 0.6667 0.33097(5)
O1 O 0.4017(4) 0.9254(4) 0.1054(4)
O2 O 0.3850(5) 0.8211(5) 0.2250(4)
N1 N 0.6112(4) 0.9596(4) 0.0582(4)
C1 C 0.4386(5) 0.8756(5) 0.1581(6)
C2 C 0.5525(6) 0.8861(6) 0.1382(5)
H2 H 0.5416 0.8099 0.1277
H3 H 0.6017 0.9181 0.1911
H5 H 0.6792 0.8611 0.0223
Cu2 Cu 0.0000 0.5000 0.0000
Cu3 Cu 0.5000 0.5000 0.0000
Cu4 Cu 0.5000 0.5000 0.5000
Cu5_2 Cu 0.5000 1.0000 0.5000
Cu6 Cu 0.0000 0.5000 0.5000
Nd2 Nd 0.3333 0.6666 0.83097(5)
O5 O 0.0746(4) 0.4763(6) 0.1054(4)
O6 O 0.5237(6) 0.5983(4) 0.1054(4)
O7 O 0.4017(4) 0.4763(6) 0.6054(4)
O8 O 0.5237(6) 0.9254(4) 0.6054(4)
O9 O 0.0746(4) 0.5983(4) 0.6054(4)
O13 O 0.1789(5) 0.5639(7) 0.2250(4)
O14 O 0.4361(7) 0.6150(5) 0.2250(4)
O15 O 0.3850(5) 0.5639(7) 0.7250(4)
O16 O 0.4361(7) 0.8211(5) 0.7250(4)
O17 O 0.1789(5) 0.6150(5) 0.7250(4)
O20 O 0.4525(4) 0.6378(6) 0.4429(3)
O21 O 0.3622(6) 0.8147(4) 0.4429(3)
O22 O 0.1853(4) 0.5475(4) 0.4429(3)
O24 O 0.4525(4) 0.8147(4) 0.9429(3)
O25 O 0.1853(4) 0.6378(6) 0.9429(3)
O26 O 0.3622(6) 0.5475(4) 0.9429(3)
O28 O 0.6378(6) 0.4525(4) 0.0571(3)
O31 O 0.5603(5) 0.8021(6) 0.3763(4)
O32 O 0.1979(6) 0.7582(4) 0.3763(4)
O33 O 0.2418(4) 0.4397(5) 0.3763(4)
O34 O 0.5603(5) 0.7582(4) 0.8763(4)
O35 O 0.2418(4) 0.8021(6) 0.8763(4)
O36 O 0.1979(6) 0.4397(5) 0.8763(4)
N2 N 0.0404(4) 0.6516(6) 0.0582(4)
N3 N 0.3484(6) 0.3888(4) 0.0582(4)
N4 N 0.6112(4) 0.6516(6) 0.5582(4)
N5 N 0.3484(6) 0.9596(4) 0.5582(4)
N6 N 0.0404(4) 0.3888(4) 0.5582(4)
H7 H 0.3511 0.3257 0.0775
H8 H 0.6743 0.6489 0.5775
C5 C 0.1244(5) 0.5630(7) 0.1581(6)
C6 C 0.4370(7) 0.5614(5) 0.1581(6)
C7 C 0.4386(5) 0.5630(7) 0.6581(6)
C8 C 0.4370(7) 0.8756(5) 0.6581(6)
C9 C 0.1244(5) 0.5614(5) 0.6581(6)
C10 C 0.1139(6) 0.6664(8) 0.1382(5)
C11 C 0.3336(8) 0.4475(6) 0.1382(5)
C12 C 0.5525(6) 0.6664(8) 0.6382(5)
C13 C 0.3336(8) 0.8861(6) 0.6382(5)
C14 C 0.1139(6) 0.4475(6) 0.6382(5)
H14 H 0.1901 0.7317 0.1277
H15 H 0.2683 0.4584 0.1277
H16 H 0.5416 0.7317 0.6277
H17 H 0.2683 0.8099 0.6277
H18 H 0.1901 0.4584 0.6277
H19 H 0.0819 0.6836 0.1911
H20 H 0.3164 0.3983 0.1911
H21 H 0.6017 0.6836 0.6911
H22 H 0.3164 0.9181 0.6911
H23 H 0.0819 0.3983 0.6911
C17 C 0.6473(5) 0.7449(7) 0.4909(5)
C18 C 0.2551(7) 0.9024(5) 0.4909(5)
C19 C 0.0976(5) 0.3527(5) 0.4909(5)
H26 H 0.7073 0.7469 0.4526
H27 H 0.2531 0.9604 0.4526
H28 H 0.0396 0.2927 0.4526
H29 H 0.1389 0.8181 0.0223
H30 H 0.1819 0.3208 0.0223
H31 H 0.6792 0.8181 0.5223
H32 H 0.1819 0.8611 0.5223
H33 H 0.1389 0.3208 0.5223
C22 C 0.5468(6) 0.7283(8) 0.4313(5)
C23 C 0.2717(8) 0.8185(6) 0.4313(5)
C24 C 0.1815(6) 0.4532(6) 0.4313(5)
Cu1_4 Cu 0.5000 1.0000 1.0000
C3 C 0.6473(5) 0.9024(5) 0.9909(5)
H4 H 0.7073 0.9604 0.9526
C4 C 0.5468(6) 0.8185(6) 0.9313(5)
Cu2_2 Cu 0.0000 0.5000 1.0000
Cu3_2 Cu 0.5000 0.5000 1.0000
O12 O 0.4763(6) 0.4017(4) 0.8946(4)
N9 N 0.6516(6) 0.6112(4) 0.9418(4)
H11 H 0.3257 0.9746 0.9225
H12 H 0.0254 0.3511 0.9225
H13 H 0.6489 0.6743 0.9225
C15 C 0.0976(5) 0.7449(7) 0.9909(5)
C16 C 0.2551(7) 0.3527(5) 0.9909(5)
H24 H 0.0396 0.7469 0.9526
H25 H 0.2531 0.2927 0.9526
C20 C 0.1815(6) 0.7283(8) 0.9313(5)
C21 C 0.2717(8) 0.4532(6) 0.9313(5)
H38 H 0.666181 0.572864 0.887958
H39 H 0.715972 0.635287 0.98788
Cu2_3 Cu 1.0000 0.5000 0.0000
Cu6_2 Cu 1.0000 0.5000 0.5000
O27 O 0.8147(4) 0.3622(6) 0.0571(3)
H6 H 0.9746 0.6489 0.0775
H10 H 0.9746 0.3257 0.5775
Cu2_4 Cu 1.0000 0.5000 1.0000
O11 O 0.9254(4) 0.5237(6) 0.8946(4)
N8 N 0.9596(4) 0.3484(6) 0.9418(4)
H36 H 0.906682 0.333819 0.887958
H37 H 0.919316 0.284028 0.98788
H1_2 H 0.0254 0.6743 0.4225
H34_2 H 0.0933177 0.427136 0.612042
H35_2 H 0.0806844 0.364713 0.51212
Nd1_2 Nd 0.6667 0.3333 0.16903(5)
O1_2 O 0.9254(4) 0.4017(4) 0.3946(4)
O2_2 O 0.8211(5) 0.3850(5) 0.2750(4)
O3 O 0.8147(4) 0.4525(4) 0.5571(3)
O4 O 0.7582(4) 0.5603(5) 0.6237(4)
N1_2 N 0.9596(4) 0.6112(4) 0.4418(4)
C1_2 C 0.8756(5) 0.4386(5) 0.3419(6)
C2_2 C 0.8861(6) 0.5525(6) 0.3618(5)
H2_2 H 0.8099 0.5416 0.3723
H3_2 H 0.9181 0.6017 0.3089
C3_2 C 0.9024(5) 0.6473(5) 0.5091(5)
H4_2 H 0.9604 0.7073 0.5474
H5_2 H 0.8611 0.6792 0.4777
C4_2 C 0.8185(6) 0.5468(6) 0.5687(5)
Nd3 Nd 0.6666 0.3333 0.66903(5)
O5_2 O 0.4763(6) 0.0746(4) 0.3946(4)
O6_2 O 0.5983(4) 0.5237(6) 0.3946(4)
O13_2 O 0.5639(7) 0.1789(5) 0.2750(4)
O14_2 O 0.6150(5) 0.4361(7) 0.2750(4)
O18 O 0.6378(6) 0.1853(4) 0.5571(3)
O19 O 0.5475(4) 0.3622(6) 0.5571(3)
O29 O 0.8021(6) 0.2418(4) 0.6237(4)
O30 O 0.4397(5) 0.1979(6) 0.6237(4)
O31_2 O 0.8021(6) 0.5603(5) 0.1237(4)
O32_2 O 0.7582(4) 0.1979(6) 0.1237(4)
O33_2 O 0.4397(5) 0.2418(4) 0.1237(4)
N2_2 N 0.6516(6) 0.0404(4) 0.4418(4)
N3_2 N 0.3888(4) 0.3484(6) 0.4418(4)
H7_2 H 0.3257 0.3511 0.4225
C5_2 C 0.5630(7) 0.1244(5) 0.3419(6)
C6_2 C 0.5614(5) 0.4370(7) 0.3419(6)
C10_2 C 0.6664(8) 0.1139(6) 0.3618(5)
C11_2 C 0.4475(6) 0.3336(8) 0.3618(5)
H14_2 H 0.7317 0.1901 0.3723
H15_2 H 0.4584 0.2683 0.3723
H19_2 H 0.6836 0.0819 0.3089
H20_2 H 0.3983 0.3164 0.3089
C15_2 C 0.7449(7) 0.0976(5) 0.5091(5)
C16_2 C 0.3527(5) 0.2551(7) 0.5091(5)
C17_2 C 0.7449(7) 0.6473(5) 0.0091(5)
C18_2 C 0.9024(5) 0.2551(7) 0.0091(5)
C19_2 C 0.3527(5) 0.0976(5) 0.0091(5)
H24_2 H 0.7469 0.0396 0.5474
H25_2 H 0.2927 0.2531 0.5474
H26_2 H 0.7469 0.7073 0.0474
H27_2 H 0.9604 0.2531 0.0474
H28_2 H 0.2927 0.0396 0.0474
H29_2 H 0.8181 0.1389 0.4777
H30_2 H 0.3208 0.1819 0.4777
C20_2 C 0.7283(8) 0.1815(6) 0.5687(5)
C21_2 C 0.4532(6) 0.2717(8) 0.5687(5)
C22_2 C 0.7283(8) 0.5468(6) 0.0687(5)
C23_2 C 0.8185(6) 0.2717(8) 0.0687(5)
C24_2 C 0.4532(6) 0.1815(6) 0.0687(5)
H38_2 H 0.572864 0.666181 0.612042
H39_2 H 0.635287 0.715972 0.51212
O15_2 O 0.5639(7) 0.3850(5) 0.7750(4)
O16_2 O 0.8211(5) 0.4361(7) 0.7750(4)
O17_2 O 0.6150(5) 0.1789(5) 0.7750(4)
C7_2 C 0.5630(7) 0.4386(5) 0.8419(6)
C8_2 C 0.8756(5) 0.4370(7) 0.8419(6)
C9_2 C 0.5614(5) 0.1244(5) 0.8419(6)
C12_2 C 0.6664(8) 0.5525(6) 0.8618(5)
C13_2 C 0.8861(6) 0.3336(8) 0.8618(5)
C14_2 C 0.4475(6) 0.1139(6) 0.8618(5)
H16_2 H 0.7317 0.5416 0.8723
H17_2 H 0.8099 0.2683 0.8723
H18_2 H 0.4584 0.1901 0.8723
H21_2 H 0.6836 0.6017 0.8089
H22_2 H 0.9181 0.3164 0.8089
H23_2 H 0.3983 0.0819 0.8089
H31_2 H 0.8181 0.6792 0.9777
H32_2 H 0.8611 0.1819 0.9777
H33_2 H 0.3208 0.1389 0.9777
H6_2 H 0.6489 0.9746 0.4225
H36_2 H 0.333819 0.906682 0.612042
H37_2 H 0.284028 0.919316 0.51212
H36_3 H 0.0933177 0.666181 0.112042
H37_3 H 0.0806844 0.715972 0.0121196
H38_3 H 0.333819 0.427136 0.112042
H39_3 H 0.284028 0.364713 0.0121196
H34_3 H 0.572864 0.906682 0.112042
H35_3 H 0.635287 0.919316 0.0121196
H36_4 H 0.666181 0.0933177 0.387958
H37_4 H 0.715972 0.0806844 0.48788
H38_4 H 0.427136 0.333819 0.387958
H39_4 H 0.364713 0.284028 0.48788
H34_4 H 0.906682 0.572864 0.387958
H35_4 H 0.919316 0.635287 0.48788
loop_
_geom_bond_atom_site_label_1
_geom_bond_atom_site_label_2
_geom_bond_site_symmetry_1
_geom_bond_site_symmetry_2
O23 Cu1 1_555 1_555
O10 Cu1_2 1_555 1_555
N7 Cu1_2 1_555 1_555
N7 H34 1_555 1_555
N7 H35 1_555 1_555
Cu1_3 O1 1_555 1_555
Nd1 O2 1_555 1_555
O1 C1 1_555 1_555
O2 C1 1_555 1_555
N1 Cu1_3 1_555 1_555
C1 C2 1_555 1_555
C2 N1 1_555 1_555
H2 C2 1_555 1_555
H3 C2 1_555 1_555
Cu2 O5 1_555 1_555
Cu3 O6 1_555 1_555
Cu4 O7 1_555 1_555
Cu5_2 O8 1_555 1_555
Cu6 O9 1_555 1_555
Nd2 O15 1_555 1_555
O5 C5 1_555 1_555
O6 C6 1_555 1_555
O7 C7 1_555 1_555
O8 C8 1_555 1_555
O9 C9 1_555 1_555
O13 Nd1 1_555 1_555
O14 Nd1 1_555 1_555
O15 C7 1_555 1_555
O16 Nd2 1_555 1_555
O17 Nd2 1_555 1_555
O20 Nd1 1_555 1_555
O21 Nd1 1_555 1_555
O22 Nd1 1_555 1_555
O24 Nd2 1_555 1_555
O25 Nd2 1_555 1_555
O26 Nd2 1_555 1_555
O28 Cu3 1_555 1_555
O31 Nd1 1_555 1_555
O32 Nd1 1_555 1_555
O33 Nd1 1_555 1_555
O34 Nd2 1_555 1_555
O35 Nd2 1_555 1_555
O36 Nd2 1_555 1_555
N2 Cu2 1_555 1_555
N3 Cu3 1_555 1_555
N4 Cu4 1_555 1_555
N5 Cu5_2 1_555 1_555
N6 Cu6 1_555 1_555
H7 N3 1_555 1_555
H8 N4 1_555 1_555
C5 O13 1_555 1_555
C6 O14 1_555 1_555
C7 C12 1_555 1_555
C8 O16 1_555 1_555
C9 O17 1_555 1_555
C10 N2 1_555 1_555
C11 N3 1_555 1_555
C12 N4 1_555 1_555
C13 N5 1_555 1_555
C14 N6 1_555 1_555
H14 C10 1_555 1_555
H15 C11 1_555 1_555
H16 C12 1_555 1_555
H17 C13 1_555 1_555
H18 C14 1_555 1_555
H19 C10 1_555 1_555
H20 C11 1_555 1_555
H21 C12 1_555 1_555
H22 C13 1_555 1_555
H23 C14 1_555 1_555
C17 N4 1_555 1_555
C18 N5 1_555 1_555
C19 N6 1_555 1_555
H26 C17 1_555 1_555
H27 C18 1_555 1_555
H28 C19 1_555 1_555
H31 C17 1_555 1_555
H32 C18 1_555 1_555
H33 C19 1_555 1_555
C22 O20 1_555 1_555
C23 O21 1_555 1_555
C24 O22 1_555 1_555
Cu4 O20 1_555 1_555
Cu5_2 O21 1_555 1_555
Cu6 O22 1_555 1_555
O31 C22 1_555 1_555
O32 C23 1_555 1_555
O33 C24 1_555 1_555
C5 C10 1_555 1_555
C6 C11 1_555 1_555
C8 C13 1_555 1_555
C9 C14 1_555 1_555
C17 C22 1_555 1_555
C18 C23 1_555 1_555
C19 C24 1_555 1_555
O24 Cu1_4 1_555 1_555
O34 C4 1_555 1_555
H4 C3 1_555 1_555
C4 O24 1_555 1_555
O12 Cu3_2 1_555 1_555
O25 Cu2_2 1_555 1_555
O26 Cu3_2 1_555 1_555
N9 Cu3_2 1_555 1_555
H13 N9 1_555 1_555
H24 C15 1_555 1_555
H25 C16 1_555 1_555
C20 O25 1_555 1_555
C21 O26 1_555 1_555
C3 C4 1_555 1_555
O35 C20 1_555 1_555
O36 C21 1_555 1_555
C15 C20 1_555 1_555
C16 C21 1_555 1_555
N9 H38 1_555 1_555
N9 H39 1_555 1_555
O27 Cu2_3 1_555 1_555
O11 Cu2_4 1_555 1_555
N8 Cu2_4 1_555 1_555
N8 H36 1_555 1_555
N8 H37 1_555 1_555
N6 H34_2 1_555 1_555
N6 H35_2 1_555 1_555
Cu6_2 O1_2 1_555 1_555
Nd1_2 O2_2 1_555 1_555
O1_2 C1_2 1_555 1_555
O2_2 C1_2 1_555 1_555
O3 Cu6_2 1_555 1_555
O4 C4_2 1_555 1_555
N1_2 Cu6_2 1_555 1_555
C1_2 C2_2 1_555 1_555
C2_2 N1_2 1_555 1_555
H2_2 C2_2 1_555 1_555
H3_2 C2_2 1_555 1_555
C3_2 N1_2 1_555 1_555
H4_2 C3_2 1_555 1_555
H5_2 C3_2 1_555 1_555
C4_2 O3 1_555 1_555
Cu5 O5_2 1_555 1_555
Cu4 O6_2 1_555 1_555
Nd3 O3 1_555 1_555
O5_2 C5_2 1_555 1_555
O6_2 C6_2 1_555 1_555
O13_2 Nd1_2 1_555 1_555
O14_2 Nd1_2 1_555 1_555
O18 Cu5 1_555 1_555
O19 Cu4 1_555 1_555
O28 Nd1_2 1_555 1_555
O27 Nd1_2 1_555 1_555
O23 Nd1_2 1_555 1_555
O29 Nd3 1_555 1_555
O30 Nd3 1_555 1_555
O31_2 Nd1_2 1_555 1_555
O32_2 Nd1_2 1_555 1_555
O33_2 Nd1_2 1_555 1_555
N2_2 Cu5 1_555 1_555
N3_2 Cu4 1_555 1_555
H7_2 N3_2 1_555 1_555
C5_2 O13_2 1_555 1_555
C6_2 O14_2 1_555 1_555
C10_2 N2_2 1_555 1_555
C11_2 N3_2 1_555 1_555
H14_2 C10_2 1_555 1_555
H15_2 C11_2 1_555 1_555
H19_2 C10_2 1_555 1_555
H20_2 C11_2 1_555 1_555
C15_2 N2_2 1_555 1_555
C16_2 N3_2 1_555 1_555
H24_2 C15_2 1_555 1_555
H25_2 C16_2 1_555 1_555
H26_2 C17_2 1_555 1_555
H27_2 C18_2 1_555 1_555
H28_2 C19_2 1_555 1_555
H29_2 C15_2 1_555 1_555
H30_2 C16_2 1_555 1_555
C20_2 O18 1_555 1_555
C21_2 O19 1_555 1_555
C22_2 O28 1_555 1_555
C23_2 O27 1_555 1_555
C24_2 O23 1_555 1_555
O4 Nd3 1_555 1_555
C3_2 C4_2 1_555 1_555
Nd3 O18 1_555 1_555
Nd3 O19 1_555 1_555
O29 C20_2 1_555 1_555
O30 C21_2 1_555 1_555
O31_2 C22_2 1_555 1_555
O32_2 C23_2 1_555 1_555
O33_2 C24_2 1_555 1_555
C5_2 C10_2 1_555 1_555
C6_2 C11_2 1_555 1_555
C15_2 C20_2 1_555 1_555
C16_2 C21_2 1_555 1_555
C17_2 C22_2 1_555 1_555
C18_2 C23_2 1_555 1_555
C19_2 C24_2 1_555 1_555
N4 H38_2 1_555 1_555
N4 H39_2 1_555 1_555
Nd3 O15_2 1_555 1_555
O12 C7_2 1_555 1_555
O11 C8_2 1_555 1_555
O10 C9_2 1_555 1_555
O15_2 C7_2 1_555 1_555
O16_2 Nd3 1_555 1_555
O17_2 Nd3 1_555 1_555
C7_2 C12_2 1_555 1_555
C8_2 O16_2 1_555 1_555
C9_2 O17_2 1_555 1_555
C12_2 N9 1_555 1_555
C13_2 N8 1_555 1_555
C14_2 N7 1_555 1_555
H16_2 C12_2 1_555 1_555
H17_2 C13_2 1_555 1_555
H18_2 C14_2 1_555 1_555
H21_2 C12_2 1_555 1_555
H22_2 C13_2 1_555 1_555
H23_2 C14_2 1_555 1_555
C8_2 C13_2 1_555 1_555
C9_2 C14_2 1_555 1_555
N5 H36_2 1_555 1_555
N5 H37_2 1_555 1_555
N2 H36_3 1_555 1_555
N2 H37_3 1_555 1_555
N3 H38_3 1_555 1_555
N3 H39_3 1_555 1_555
N1 H34_3 1_555 1_555
N1 H35_3 1_555 1_555
N2_2 H36_4 1_555 1_555
N2_2 H37_4 1_555 1_555
N3_2 H38_4 1_555 1_555
N3_2 H39_4 1_555 1_555
N1_2 H34_4 1_555 1_555
N1_2 H35_4 1_555 1_555

#END
