
###############################################################################
#
# This file contains modified crystal structure data generated from the
# MOF subset of the Cambridge Structural Database (CSD) v543 
# hosted by the Cambridge Crystallographic Data Centre (CCDC).
#
# This work is licensed under the Creative Commons
# Attribution-NonCommercial-ShareAlike 4.0 International License.
# To view a copy of this license, visit
# http://creativecommons.org/licenses/by-nc-sa/4.0/
# or send a letter to
# Creative Commons, PO Box 1866, Mountain View, CA 94042, USA.
#
# CIF created using the CSD Python API on 29 September 2022
# The structure has been converted into the P1 space group
# The structure has a 3D framework
# The original CSD entry OFESIC is in the trigonal crystal system
# The framework has been calculated to contain at least 10.0% void space
# The void calculation uses a probe of radius 1.32A, grid spacing 0.4
# H atom positions have been added when not included in the experimental data
#
###############################################################################

data_OFESIC
_chemical_formula_moiety         '(C48 H84 Cu9 N12 O48 Sm4)n'
_symmetry_cell_setting           triclinic
_symmetry_space_group_name_H-M   'P 1'
_symmetry_Int_Tables_number      1
_space_group_name_Hall           'P 1'
loop_
_symmetry_equiv_pos_site_id
_symmetry_equiv_pos_as_xyz
1 x,y,z
_cell_length_a                   13.454(3)
_cell_length_b                   13.454(3)
_cell_length_c                   14.856(4)
_cell_angle_alpha                90
_cell_angle_beta                 90
_cell_angle_gamma                120
_cell_volume                     2328.82
loop_
_atom_site_label
_atom_site_type_symbol
_atom_site_fract_x
_atom_site_fract_y
_atom_site_fract_z
Cu1 Cu 0.5000 -0.0000 0.0000
H1 H 0.6740 0.0257 0.0765
Cu5 Cu 0.5000 -0.0000 0.5000
O23 O 0.5470(2) 0.1839(2) 0.05678(17)
H9 H 0.3517 0.0257 0.5765
Cu1_2 Cu 0.5000 -0.0000 1.0000
O10 O 0.5975(2) 0.0735(2) 0.89503(17)
N7 N 0.3888(2) 0.0402(2) 0.94212(19)
H34 H 0.426705 0.0924596 0.888507
H35 H 0.364948 0.0807461 0.987506
Cu1_3 Cu 0.5000 1.0000 0.0000
Sm1 Sm 0.3333 0.6667 0.330751(19)
O1 O 0.4025(2) 0.9265(2) 0.10497(17)
O2 O 0.3853(3) 0.8217(3) 0.2249(2)
N1 N 0.6112(2) 0.9598(2) 0.05788(19)
C1 C 0.4395(3) 0.8780(3) 0.1572(3)
C2 C 0.5539(3) 0.8878(3) 0.1377(2)
H2 H 0.5429 0.8116 0.1280
H3 H 0.6034 0.9205 0.1897
H5 H 0.6807 0.8626 0.0210
Cu2 Cu -0.0000 0.5000 0.0000
Cu3 Cu 0.5000 0.5000 0.0000
Cu4 Cu 0.5000 0.5000 0.5000
Cu5_2 Cu 0.5000 1.0000 0.5000
Cu6 Cu -0.0000 0.5000 0.5000
Sm2 Sm 0.3333 0.6666 0.830751(19)
O5 O 0.0735(2) 0.4760(3) 0.10497(17)
O6 O 0.5240(3) 0.5975(2) 0.10497(17)
O7 O 0.4025(2) 0.4760(3) 0.60497(17)
O8 O 0.5240(3) 0.9265(2) 0.60497(17)
O9 O 0.0735(2) 0.5975(2) 0.60497(17)
O13 O 0.1783(3) 0.5636(4) 0.2249(2)
O14 O 0.4364(4) 0.6147(3) 0.2249(2)
O15 O 0.3853(3) 0.5636(4) 0.7249(2)
O16 O 0.4364(4) 0.8217(3) 0.7249(2)
O17 O 0.1783(3) 0.6147(3) 0.7249(2)
O20 O 0.4530(2) 0.6369(3) 0.44322(17)
O21 O 0.3631(3) 0.8161(2) 0.44322(17)
O22 O 0.1839(2) 0.5470(2) 0.44322(17)
O24 O 0.4530(2) 0.8161(2) 0.94322(17)
O25 O 0.1839(2) 0.6369(3) 0.94322(17)
O26 O 0.3631(3) 0.5470(2) 0.94322(17)
O28 O 0.6369(3) 0.4530(2) 0.05678(17)
O31 O 0.5619(3) 0.8037(4) 0.37660(19)
O32 O 0.1963(4) 0.7582(3) 0.37660(19)
O33 O 0.2418(3) 0.4381(3) 0.37660(19)
O34 O 0.5619(3) 0.7582(3) 0.87660(19)
O35 O 0.2418(3) 0.8037(4) 0.87660(19)
O36 O 0.1963(4) 0.4381(3) 0.87660(19)
N2 N 0.0402(2) 0.6514(3) 0.05788(19)
N3 N 0.3486(3) 0.3888(2) 0.05788(19)
N4 N 0.6112(2) 0.6514(3) 0.55788(19)
N5 N 0.3486(3) 0.9598(2) 0.55788(19)
N6 N 0.0402(2) 0.3888(2) 0.55788(19)
H7 H 0.3517 0.3260 0.0765
H8 H 0.6740 0.6483 0.5765
C5 C 0.1220(3) 0.5615(4) 0.1572(3)
C6 C 0.4385(4) 0.5605(3) 0.1572(3)
C7 C 0.4395(3) 0.5615(4) 0.6572(3)
C8 C 0.4385(4) 0.8780(3) 0.6572(3)
C9 C 0.1220(3) 0.5605(3) 0.6572(3)
C10 C 0.1122(3) 0.6661(4) 0.1377(2)
C11 C 0.3339(4) 0.4461(3) 0.1377(2)
C12 C 0.5539(3) 0.6661(4) 0.6377(2)
C13 C 0.3339(4) 0.8878(3) 0.6377(2)
C14 C 0.1122(3) 0.4461(3) 0.6377(2)
H14 H 0.1884 0.7313 0.1280
H15 H 0.2687 0.4571 0.1280
H16 H 0.5429 0.7313 0.6280
H17 H 0.2687 0.8116 0.6280
H18 H 0.1884 0.4571 0.6280
H19 H 0.0795 0.6829 0.1897
H20 H 0.3171 0.3966 0.1897
H21 H 0.6034 0.6829 0.6897
H22 H 0.3171 0.9205 0.6897
H23 H 0.0795 0.3966 0.6897
C17 C 0.6480(3) 0.7447(4) 0.4903(2)
C18 C 0.2553(4) 0.9033(3) 0.4903(2)
C19 C 0.0967(3) 0.3520(3) 0.4903(2)
H26 H 0.7068 0.7457 0.4520
H27 H 0.2543 0.9611 0.4520
H28 H 0.0389 0.2932 0.4520
H29 H 0.1374 0.8181 0.0210
H30 H 0.1819 0.3193 0.0210
H31 H 0.6807 0.8181 0.5210
H32 H 0.1819 0.8626 0.5210
H33 H 0.1374 0.3193 0.5210
C22 C 0.5480(3) 0.7282(4) 0.4332(2)
C23 C 0.2718(4) 0.8198(3) 0.4332(2)
C24 C 0.1802(3) 0.4520(3) 0.4332(2)
Cu1_4 Cu 0.5000 1.0000 1.0000
C3 C 0.6480(3) 0.9033(3) 0.9903(2)
H4 H 0.7068 0.9611 0.9520
C4 C 0.5480(3) 0.8198(3) 0.9332(2)
Cu2_2 Cu -0.0000 0.5000 1.0000
Cu3_2 Cu 0.5000 0.5000 1.0000
O12 O 0.4760(3) 0.4025(2) 0.89503(17)
N9 N 0.6514(3) 0.6112(2) 0.94212(19)
H11 H 0.3260 0.9743 0.9235
H12 H 0.0257 0.3517 0.9235
H13 H 0.6483 0.6740 0.9235
C15 C 0.0967(3) 0.7447(4) 0.9903(2)
C16 C 0.2553(4) 0.3520(3) 0.9903(2)
H24 H 0.0389 0.7457 0.9520
H25 H 0.2543 0.2932 0.9520
C20 C 0.1802(3) 0.7282(4) 0.9332(2)
C21 C 0.2718(4) 0.4520(3) 0.9332(2)
H38 H 0.665755 0.573295 0.888507
H39 H 0.715798 0.635052 0.987506
Cu2_3 Cu 1.0000 0.5000 0.0000
Cu6_2 Cu 1.0000 0.5000 0.5000
O27 O 0.8161(2) 0.3631(3) 0.05678(17)
H6 H 0.9743 0.6483 0.0765
H10 H 0.9743 0.3260 0.5765
Cu2_4 Cu 1.0000 0.5000 1.0000
O11 O 0.9265(2) 0.5240(3) 0.89503(17)
N8 N 0.9598(2) 0.3486(3) 0.94212(19)
H36 H 0.90754 0.334245 0.888507
H37 H 0.919254 0.284202 0.987506
H1_2 H 0.0257 0.6740 0.4235
H34_2 H 0.0924596 0.426705 0.611493
H35_2 H 0.0807461 0.364948 0.512494
Sm1_2 Sm 0.6667 0.3333 0.169249(19)
O1_2 O 0.9265(2) 0.4025(2) 0.39503(17)
O2_2 O 0.8217(3) 0.3853(3) 0.2751(2)
O3 O 0.8161(2) 0.4530(2) 0.55678(17)
O4 O 0.7582(3) 0.5619(3) 0.62340(19)
N1_2 N 0.9598(2) 0.6112(2) 0.44212(19)
C1_2 C 0.8780(3) 0.4395(3) 0.3428(3)
C2_2 C 0.8878(3) 0.5539(3) 0.3623(2)
H2_2 H 0.8116 0.5429 0.3720
H3_2 H 0.9205 0.6034 0.3103
C3_2 C 0.9033(3) 0.6480(3) 0.5097(2)
H4_2 H 0.9611 0.7068 0.5480
H5_2 H 0.8626 0.6807 0.4790
C4_2 C 0.8198(3) 0.5480(3) 0.5668(2)
Sm3 Sm 0.6666 0.3333 0.669249(19)
O5_2 O 0.4760(3) 0.0735(2) 0.39503(17)
O6_2 O 0.5975(2) 0.5240(3) 0.39503(17)
O13_2 O 0.5636(4) 0.1783(3) 0.2751(2)
O14_2 O 0.6147(3) 0.4364(4) 0.2751(2)
O18 O 0.6369(3) 0.1839(2) 0.55678(17)
O19 O 0.5470(2) 0.3631(3) 0.55678(17)
O29 O 0.8037(4) 0.2418(3) 0.62340(19)
O30 O 0.4381(3) 0.1963(4) 0.62340(19)
O31_2 O 0.8037(4) 0.5619(3) 0.12340(19)
O32_2 O 0.7582(3) 0.1963(4) 0.12340(19)
O33_2 O 0.4381(3) 0.2418(3) 0.12340(19)
N2_2 N 0.6514(3) 0.0402(2) 0.44212(19)
N3_2 N 0.3888(2) 0.3486(3) 0.44212(19)
H7_2 H 0.3260 0.3517 0.4235
C5_2 C 0.5615(4) 0.1220(3) 0.3428(3)
C6_2 C 0.5605(3) 0.4385(4) 0.3428(3)
C10_2 C 0.6661(4) 0.1122(3) 0.3623(2)
C11_2 C 0.4461(3) 0.3339(4) 0.3623(2)
H14_2 H 0.7313 0.1884 0.3720
H15_2 H 0.4571 0.2687 0.3720
H19_2 H 0.6829 0.0795 0.3103
H20_2 H 0.3966 0.3171 0.3103
C15_2 C 0.7447(4) 0.0967(3) 0.5097(2)
C16_2 C 0.3520(3) 0.2553(4) 0.5097(2)
C17_2 C 0.7447(4) 0.6480(3) 0.0097(2)
C18_2 C 0.9033(3) 0.2553(4) 0.0097(2)
C19_2 C 0.3520(3) 0.0967(3) 0.0097(2)
H24_2 H 0.7457 0.0389 0.5480
H25_2 H 0.2932 0.2543 0.5480
H26_2 H 0.7457 0.7068 0.0480
H27_2 H 0.9611 0.2543 0.0480
H28_2 H 0.2932 0.0389 0.0480
H29_2 H 0.8181 0.1374 0.4790
H30_2 H 0.3193 0.1819 0.4790
C20_2 C 0.7282(4) 0.1802(3) 0.5668(2)
C21_2 C 0.4520(3) 0.2718(4) 0.5668(2)
C22_2 C 0.7282(4) 0.5480(3) 0.0668(2)
C23_2 C 0.8198(3) 0.2718(4) 0.0668(2)
C24_2 C 0.4520(3) 0.1802(3) 0.0668(2)
H38_2 H 0.573295 0.665755 0.611493
H39_2 H 0.635052 0.715798 0.512494
O15_2 O 0.5636(4) 0.3853(3) 0.7751(2)
O16_2 O 0.8217(3) 0.4364(4) 0.7751(2)
O17_2 O 0.6147(3) 0.1783(3) 0.7751(2)
C7_2 C 0.5615(4) 0.4395(3) 0.8428(3)
C8_2 C 0.8780(3) 0.4385(4) 0.8428(3)
C9_2 C 0.5605(3) 0.1220(3) 0.8428(3)
C12_2 C 0.6661(4) 0.5539(3) 0.8623(2)
C13_2 C 0.8878(3) 0.3339(4) 0.8623(2)
C14_2 C 0.4461(3) 0.1122(3) 0.8623(2)
H16_2 H 0.7313 0.5429 0.8720
H17_2 H 0.8116 0.2687 0.8720
H18_2 H 0.4571 0.1884 0.8720
H21_2 H 0.6829 0.6034 0.8103
H22_2 H 0.9205 0.3171 0.8103
H23_2 H 0.3966 0.0795 0.8103
H31_2 H 0.8181 0.6807 0.9790
H32_2 H 0.8626 0.1819 0.9790
H33_2 H 0.3193 0.1374 0.9790
H6_2 H 0.6483 0.9743 0.4235
H36_2 H 0.334245 0.90754 0.611493
H37_2 H 0.284202 0.919254 0.512494
H36_3 H 0.0924596 0.665755 0.111493
H37_3 H 0.0807461 0.715798 0.0124942
H38_3 H 0.334245 0.426705 0.111493
H39_3 H 0.284202 0.364948 0.0124942
H34_3 H 0.573295 0.90754 0.111493
H35_3 H 0.635052 0.919254 0.0124942
H36_4 H 0.665755 0.0924596 0.388507
H37_4 H 0.715798 0.0807461 0.487506
H38_4 H 0.426705 0.334245 0.388507
H39_4 H 0.364948 0.284202 0.487506
H34_4 H 0.90754 0.573295 0.388507
H35_4 H 0.919254 0.635052 0.487506
loop_
_geom_bond_atom_site_label_1
_geom_bond_atom_site_label_2
_geom_bond_site_symmetry_1
_geom_bond_site_symmetry_2
O23 Cu1 1_555 1_555
O10 Cu1_2 1_555 1_555
N7 Cu1_2 1_555 1_555
N7 H34 1_555 1_555
N7 H35 1_555 1_555
Cu1_3 O1 1_555 1_555
Sm1 O2 1_555 1_555
O1 C1 1_555 1_555
O2 C1 1_555 1_555
N1 Cu1_3 1_555 1_555
C1 C2 1_555 1_555
C2 N1 1_555 1_555
H2 C2 1_555 1_555
H3 C2 1_555 1_555
Cu2 O5 1_555 1_555
Cu3 O6 1_555 1_555
Cu4 O7 1_555 1_555
Cu5_2 O8 1_555 1_555
Cu6 O9 1_555 1_555
Sm2 O15 1_555 1_555
O5 C5 1_555 1_555
O6 C6 1_555 1_555
O7 C7 1_555 1_555
O8 C8 1_555 1_555
O9 C9 1_555 1_555
O13 Sm1 1_555 1_555
O14 Sm1 1_555 1_555
O15 C7 1_555 1_555
O16 Sm2 1_555 1_555
O17 Sm2 1_555 1_555
O20 Sm1 1_555 1_555
O21 Sm1 1_555 1_555
O22 Sm1 1_555 1_555
O24 Sm2 1_555 1_555
O25 Sm2 1_555 1_555
O26 Sm2 1_555 1_555
O28 Cu3 1_555 1_555
O31 Sm1 1_555 1_555
O32 Sm1 1_555 1_555
O33 Sm1 1_555 1_555
O34 Sm2 1_555 1_555
O35 Sm2 1_555 1_555
O36 Sm2 1_555 1_555
N2 Cu2 1_555 1_555
N3 Cu3 1_555 1_555
N4 Cu4 1_555 1_555
N5 Cu5_2 1_555 1_555
N6 Cu6 1_555 1_555
H7 N3 1_555 1_555
H8 N4 1_555 1_555
C5 O13 1_555 1_555
C6 O14 1_555 1_555
C7 C12 1_555 1_555
C8 O16 1_555 1_555
C9 O17 1_555 1_555
C10 N2 1_555 1_555
C11 N3 1_555 1_555
C12 N4 1_555 1_555
C13 N5 1_555 1_555
C14 N6 1_555 1_555
H14 C10 1_555 1_555
H15 C11 1_555 1_555
H16 C12 1_555 1_555
H17 C13 1_555 1_555
H18 C14 1_555 1_555
H19 C10 1_555 1_555
H20 C11 1_555 1_555
H21 C12 1_555 1_555
H22 C13 1_555 1_555
H23 C14 1_555 1_555
C17 N4 1_555 1_555
C18 N5 1_555 1_555
C19 N6 1_555 1_555
H26 C17 1_555 1_555
H27 C18 1_555 1_555
H28 C19 1_555 1_555
H31 C17 1_555 1_555
H32 C18 1_555 1_555
H33 C19 1_555 1_555
C22 O20 1_555 1_555
C23 O21 1_555 1_555
C24 O22 1_555 1_555
Cu4 O20 1_555 1_555
Cu5_2 O21 1_555 1_555
Cu6 O22 1_555 1_555
O31 C22 1_555 1_555
O32 C23 1_555 1_555
O33 C24 1_555 1_555
C5 C10 1_555 1_555
C6 C11 1_555 1_555
C8 C13 1_555 1_555
C9 C14 1_555 1_555
C17 C22 1_555 1_555
C18 C23 1_555 1_555
C19 C24 1_555 1_555
O24 Cu1_4 1_555 1_555
O34 C4 1_555 1_555
H4 C3 1_555 1_555
C4 O24 1_555 1_555
O12 Cu3_2 1_555 1_555
O25 Cu2_2 1_555 1_555
O26 Cu3_2 1_555 1_555
N9 Cu3_2 1_555 1_555
H13 N9 1_555 1_555
H24 C15 1_555 1_555
H25 C16 1_555 1_555
C20 O25 1_555 1_555
C21 O26 1_555 1_555
C3 C4 1_555 1_555
O35 C20 1_555 1_555
O36 C21 1_555 1_555
C15 C20 1_555 1_555
C16 C21 1_555 1_555
N9 H38 1_555 1_555
N9 H39 1_555 1_555
O27 Cu2_3 1_555 1_555
O11 Cu2_4 1_555 1_555
N8 Cu2_4 1_555 1_555
N8 H36 1_555 1_555
N8 H37 1_555 1_555
N6 H34_2 1_555 1_555
N6 H35_2 1_555 1_555
Cu6_2 O1_2 1_555 1_555
Sm1_2 O2_2 1_555 1_555
O1_2 C1_2 1_555 1_555
O2_2 C1_2 1_555 1_555
O3 Cu6_2 1_555 1_555
O4 C4_2 1_555 1_555
N1_2 Cu6_2 1_555 1_555
C1_2 C2_2 1_555 1_555
C2_2 N1_2 1_555 1_555
H2_2 C2_2 1_555 1_555
H3_2 C2_2 1_555 1_555
C3_2 N1_2 1_555 1_555
H4_2 C3_2 1_555 1_555
H5_2 C3_2 1_555 1_555
C4_2 O3 1_555 1_555
Cu5 O5_2 1_555 1_555
Cu4 O6_2 1_555 1_555
Sm3 O3 1_555 1_555
O5_2 C5_2 1_555 1_555
O6_2 C6_2 1_555 1_555
O13_2 Sm1_2 1_555 1_555
O14_2 Sm1_2 1_555 1_555
O18 Cu5 1_555 1_555
O19 Cu4 1_555 1_555
O28 Sm1_2 1_555 1_555
O27 Sm1_2 1_555 1_555
O23 Sm1_2 1_555 1_555
O29 Sm3 1_555 1_555
O30 Sm3 1_555 1_555
O31_2 Sm1_2 1_555 1_555
O32_2 Sm1_2 1_555 1_555
O33_2 Sm1_2 1_555 1_555
N2_2 Cu5 1_555 1_555
N3_2 Cu4 1_555 1_555
H7_2 N3_2 1_555 1_555
C5_2 O13_2 1_555 1_555
C6_2 O14_2 1_555 1_555
C10_2 N2_2 1_555 1_555
C11_2 N3_2 1_555 1_555
H14_2 C10_2 1_555 1_555
H15_2 C11_2 1_555 1_555
H19_2 C10_2 1_555 1_555
H20_2 C11_2 1_555 1_555
C15_2 N2_2 1_555 1_555
C16_2 N3_2 1_555 1_555
H24_2 C15_2 1_555 1_555
H25_2 C16_2 1_555 1_555
H26_2 C17_2 1_555 1_555
H27_2 C18_2 1_555 1_555
H28_2 C19_2 1_555 1_555
H29_2 C15_2 1_555 1_555
H30_2 C16_2 1_555 1_555
C20_2 O18 1_555 1_555
C21_2 O19 1_555 1_555
C22_2 O28 1_555 1_555
C23_2 O27 1_555 1_555
C24_2 O23 1_555 1_555
O4 Sm3 1_555 1_555
C3_2 C4_2 1_555 1_555
Sm3 O18 1_555 1_555
Sm3 O19 1_555 1_555
O29 C20_2 1_555 1_555
O30 C21_2 1_555 1_555
O31_2 C22_2 1_555 1_555
O32_2 C23_2 1_555 1_555
O33_2 C24_2 1_555 1_555
C5_2 C10_2 1_555 1_555
C6_2 C11_2 1_555 1_555
C15_2 C20_2 1_555 1_555
C16_2 C21_2 1_555 1_555
C17_2 C22_2 1_555 1_555
C18_2 C23_2 1_555 1_555
C19_2 C24_2 1_555 1_555
N4 H38_2 1_555 1_555
N4 H39_2 1_555 1_555
Sm3 O15_2 1_555 1_555
O12 C7_2 1_555 1_555
O11 C8_2 1_555 1_555
O10 C9_2 1_555 1_555
O15_2 C7_2 1_555 1_555
O16_2 Sm3 1_555 1_555
O17_2 Sm3 1_555 1_555
C7_2 C12_2 1_555 1_555
C8_2 O16_2 1_555 1_555
C9_2 O17_2 1_555 1_555
C12_2 N9 1_555 1_555
C13_2 N8 1_555 1_555
C14_2 N7 1_555 1_555
H16_2 C12_2 1_555 1_555
H17_2 C13_2 1_555 1_555
H18_2 C14_2 1_555 1_555
H21_2 C12_2 1_555 1_555
H22_2 C13_2 1_555 1_555
H23_2 C14_2 1_555 1_555
C8_2 C13_2 1_555 1_555
C9_2 C14_2 1_555 1_555
N5 H36_2 1_555 1_555
N5 H37_2 1_555 1_555
N2 H36_3 1_555 1_555
N2 H37_3 1_555 1_555
N3 H38_3 1_555 1_555
N3 H39_3 1_555 1_555
N1 H34_3 1_555 1_555
N1 H35_3 1_555 1_555
N2_2 H36_4 1_555 1_555
N2_2 H37_4 1_555 1_555
N3_2 H38_4 1_555 1_555
N3_2 H39_4 1_555 1_555
N1_2 H34_4 1_555 1_555
N1_2 H35_4 1_555 1_555

#END
