
###############################################################################
#
# This file contains modified crystal structure data generated from the
# MOF subset of the Cambridge Structural Database (CSD) v543 
# hosted by the Cambridge Crystallographic Data Centre (CCDC).
#
# This work is licensed under the Creative Commons
# Attribution-NonCommercial-ShareAlike 4.0 International License.
# To view a copy of this license, visit
# http://creativecommons.org/licenses/by-nc-sa/4.0/
# or send a letter to
# Creative Commons, PO Box 1866, Mountain View, CA 94042, USA.
#
# CIF created using the CSD Python API on 29 September 2022
# The structure has been converted into the P1 space group
# The structure has a 3D framework
# The original CSD entry OFIDUF is in the tetragonal crystal system
# The framework has been calculated to contain at least 10.0% void space
# The void calculation uses a probe of radius 1.32A, grid spacing 0.4
#
###############################################################################

data_OFIDUF
_chemical_formula_moiety         '(C112 H72 Cu12 N16 O24 S8)n'
_symmetry_cell_setting           triclinic
_symmetry_space_group_name_H-M   'P 1'
_symmetry_Int_Tables_number      1
_space_group_name_Hall           'P 1'
loop_
_symmetry_equiv_pos_site_id
_symmetry_equiv_pos_as_xyz
1 x,y,z
_cell_length_a                   13.8459(3)
_cell_length_b                   13.8459(3)
_cell_length_c                   21.2017(8)
_cell_angle_alpha                90
_cell_angle_beta                 90
_cell_angle_gamma                90
_cell_volume                     4064.56
loop_
_atom_site_label
_atom_site_type_symbol
_atom_site_fract_x
_atom_site_fract_y
_atom_site_fract_z
Cu1 Cu 0.01250(3) 0.26451(3) 0.77328(2)
Cu2 Cu 0.52191(2) 0.40378(2) 0.54233(2)
N1 N 0.26134(18) 0.45128(18) 0.64728(12)
N2 N 0.38584(17) 0.55567(16) 0.61219(11)
O1 O 0.07431(17) 0.28704(16) 0.69156(11)
O2 O 0.14277(17) 0.40981(17) 0.73994(11)
O3 O 0.33096(19) 0.60765(18) 0.71068(12)
S1 S 0.35813(5) 0.39345(5) 0.54571(3)
C1 C 0.1345(2) 0.3526(2) 0.69399(15)
C2 C 0.2022(2) 0.3652(2) 0.63820(16)
H1 H 0.2434 0.3089 0.6343
H2 H 0.1649 0.3714 0.5997
C3 C 0.3295(2) 0.4723(2) 0.60801(13)
C4 C 0.3821(2) 0.6138(2) 0.66124(15)
C5 C 0.4482(2) 0.6989(2) 0.65845(17)
C6 C 0.4361(3) 0.7680(3) 0.6134(2)
H3 H 0.3874 0.7621 0.5835
C7 C 0.4996(4) 0.8503(3) 0.6127(3)
H4 H 0.4919 0.8980 0.5823
C8 C 0.5691(4) 0.8581(4) 0.6554(3)
H5 H 0.6087 0.9123 0.6546
C9 C 0.5854(3) 0.7880(3) 0.7016(2)
C10 C 0.6608(4) 0.7936(4) 0.7463(3)
H6 H 0.7021 0.8466 0.7452
C11 C 0.6753(4) 0.7261(5) 0.7902(3)
H7 H 0.7265 0.7317 0.8183
C12 C 0.6130(4) 0.6468(4) 0.7936(2)
H8 H 0.6221 0.6002 0.8246
C13 C 0.5392(3) 0.6374(3) 0.7517(2)
H9 H 0.4988 0.5839 0.7542
C14 C 0.5230(3) 0.7071(3) 0.70484(18)
Cu3 Cu 0.23549(3) 0.51250(3) 0.72672(2)
Cu4 Cu 0.47809(2) 0.59622(2) 0.54233(2)
Cu5 Cu 0.40378(2) 0.47809(2) 0.45767(2)
N4 N 0.61416(17) 0.44433(16) 0.61219(11)
O5 O 0.10765(18) 0.16904(19) 0.78932(12)
S2 S 0.60655(5) 0.35813(5) 0.45429(3)
N3 N 0.95128(18) 0.23866(18) 0.85272(12)
O4 O 0.90981(17) 0.35723(17) 0.76006(11)
N3_2 N 0.04872(18) 0.76134(18) 0.85272(12)
O4_2 O 0.09019(17) 0.64277(17) 0.76006(11)
Cu1_2 Cu 0.98750(3) 0.73549(3) 0.77328(2)
N1_2 N 0.73866(18) 0.54872(18) 0.64728(12)
O1_2 O 0.92569(17) 0.71296(16) 0.69156(11)
O2_2 O 0.85723(17) 0.59019(17) 0.73994(11)
O3_2 O 0.66904(19) 0.39235(18) 0.71068(12)
S1_2 S 0.64187(5) 0.60655(5) 0.54571(3)
C1_2 C 0.8655(2) 0.6474(2) 0.69399(15)
C2_2 C 0.7978(2) 0.6348(2) 0.63820(16)
H1_2 H 0.7566 0.6911 0.6343
H2_2 H 0.8351 0.6286 0.5997
C3_2 C 0.6705(2) 0.5277(2) 0.60801(13)
C4_2 C 0.6179(2) 0.3862(2) 0.66124(15)
C5_2 C 0.5518(2) 0.3011(2) 0.65845(17)
C6_2 C 0.5639(3) 0.2320(3) 0.6134(2)
H3_2 H 0.6126 0.2379 0.5835
C7_2 C 0.5004(4) 0.1497(3) 0.6127(3)
H4_2 H 0.5081 0.1020 0.5823
C8_2 C 0.4309(4) 0.1419(4) 0.6554(3)
H5_2 H 0.3913 0.0877 0.6546
C9_2 C 0.4146(3) 0.2120(3) 0.7016(2)
C10_2 C 0.3392(4) 0.2064(4) 0.7463(3)
H6_2 H 0.2979 0.1534 0.7452
C11_2 C 0.3247(4) 0.2739(5) 0.7902(3)
H7_2 H 0.2735 0.2683 0.8183
C12_2 C 0.3870(4) 0.3532(4) 0.7936(2)
H8_2 H 0.3779 0.3998 0.8246
C13_2 C 0.4608(3) 0.3626(3) 0.7517(2)
H9_2 H 0.5012 0.4161 0.7542
C14_2 C 0.4770(3) 0.2929(3) 0.70484(18)
Cu3_2 Cu 0.76451(3) 0.48750(3) 0.72672(2)
Cu5_2 Cu 0.59622(2) 0.52191(2) 0.45767(2)
O5_2 O 0.89235(18) 0.83096(19) 0.78932(12)
S2_2 S 0.39345(5) 0.64187(5) 0.45429(3)
N3_3 N 0.23866(18) 0.04872(18) 0.14728(12)
O4_3 O 0.35723(17) 0.09019(17) 0.23994(11)
Cu1_3 Cu 0.26451(3) 0.98750(3) 0.22672(2)
N1_3 N 0.45128(18) 0.73866(18) 0.35272(12)
N2_2 N 0.55567(16) 0.61416(17) 0.38781(11)
O1_3 O 0.28704(16) 0.92569(17) 0.30844(11)
O2_3 O 0.40981(17) 0.85723(17) 0.26006(11)
O3_3 O 0.60765(18) 0.66904(19) 0.28932(12)
C1_3 C 0.3526(2) 0.8655(2) 0.30601(15)
C2_3 C 0.3652(2) 0.7978(2) 0.36180(16)
H1_3 H 0.3089 0.7566 0.3657
H2_3 H 0.3714 0.8351 0.4003
C3_3 C 0.4723(2) 0.6705(2) 0.39199(13)
C4_3 C 0.6138(2) 0.6179(2) 0.33876(15)
C5_3 C 0.6989(2) 0.5518(2) 0.34155(17)
C6_3 C 0.7680(3) 0.5639(3) 0.3866(2)
H3_3 H 0.7621 0.6126 0.4165
C7_3 C 0.8503(3) 0.5004(4) 0.3873(3)
H4_3 H 0.8980 0.5081 0.4177
C8_3 C 0.8581(4) 0.4309(4) 0.3446(3)
H5_3 H 0.9123 0.3913 0.3454
C9_3 C 0.7880(3) 0.4146(3) 0.2984(2)
C10_3 C 0.7936(4) 0.3392(4) 0.2537(3)
H6_3 H 0.8466 0.2979 0.2548
C11_3 C 0.7261(5) 0.3247(4) 0.2098(3)
H7_3 H 0.7317 0.2735 0.1817
C12_3 C 0.6468(4) 0.3870(4) 0.2064(2)
H8_3 H 0.6002 0.3779 0.1754
C13_3 C 0.6374(3) 0.4608(3) 0.2483(2)
H9_3 H 0.5839 0.5012 0.2458
C14_3 C 0.7071(3) 0.4770(3) 0.29516(18)
Cu3_3 Cu 0.51250(3) 0.76451(3) 0.27328(2)
N4_2 N 0.44433(16) 0.38584(17) 0.38781(11)
O5_3 O 0.16904(19) 0.89235(18) 0.21068(12)
Cu1_4 Cu 0.73549(3) 0.01250(3) 0.22672(2)
N1_4 N 0.54872(18) 0.26134(18) 0.35272(12)
O1_4 O 0.71296(16) 0.07431(17) 0.30844(11)
O2_4 O 0.59019(17) 0.14277(17) 0.26006(11)
O3_4 O 0.39235(18) 0.33096(19) 0.28932(12)
C1_4 C 0.6474(2) 0.1345(2) 0.30601(15)
C2_4 C 0.6348(2) 0.2022(2) 0.36180(16)
H1_4 H 0.6911 0.2434 0.3657
H2_4 H 0.6286 0.1649 0.4003
C3_4 C 0.5277(2) 0.3295(2) 0.39199(13)
C4_4 C 0.3862(2) 0.3821(2) 0.33876(15)
C5_4 C 0.3011(2) 0.4482(2) 0.34155(17)
C6_4 C 0.2320(3) 0.4361(3) 0.3866(2)
H3_4 H 0.2379 0.3874 0.4165
C7_4 C 0.1497(3) 0.4996(4) 0.3873(3)
H4_4 H 0.1020 0.4919 0.4177
C8_4 C 0.1419(4) 0.5691(4) 0.3446(3)
H5_4 H 0.0877 0.6087 0.3454
C9_4 C 0.2120(3) 0.5854(3) 0.2984(2)
C10_4 C 0.2064(4) 0.6608(4) 0.2537(3)
H6_4 H 0.1534 0.7021 0.2548
C11_4 C 0.2739(5) 0.6753(4) 0.2098(3)
H7_4 H 0.2683 0.7265 0.1817
C12_4 C 0.3532(4) 0.6130(4) 0.2064(2)
H8_4 H 0.3998 0.6221 0.1754
C13_4 C 0.3626(3) 0.5392(3) 0.2483(2)
H9_4 H 0.4161 0.4988 0.2458
C14_4 C 0.2929(3) 0.5230(3) 0.29516(18)
Cu3_4 Cu 0.48750(3) 0.23549(3) 0.27328(2)
O5_4 O 0.83096(19) 0.10765(18) 0.21068(12)
N3_4 N 0.76134(18) 0.95128(18) 0.14728(12)
O4_4 O 0.64277(17) 0.90981(17) 0.23994(11)
Cu2_2 Cu 0.02191(2) 0.90378(2) 0.04233(2)
N4_3 N 0.11416(17) 0.94433(16) 0.11219(11)
S2_3 S 0.10655(5) 0.85813(5) 0.95429(3)
N2_3 N 0.88584(17) 0.05567(16) 0.11219(11)
C4_5 C 0.8821(2) 0.1138(2) 0.16124(15)
C5_5 C 0.9482(2) 0.1989(2) 0.15845(17)
C6_5 C 0.9361(3) 0.2680(3) 0.1134(2)
H3_5 H 0.8874 0.2621 0.0835
C7_5 C 0.9996(4) 0.3503(3) 0.1127(3)
H4_5 H 0.9919 0.3980 0.0823
H9_5 H 0.9988 0.0839 0.2542
Cu4_2 Cu 0.97809(2) 0.09622(2) 0.04233(2)
O1_5 O 0.57431(17) 0.78704(16) 0.19156(11)
S1_3 S 0.85813(5) 0.89345(5) 0.04571(3)
C1_5 C 0.6345(2) 0.8526(2) 0.19399(15)
C2_5 C 0.7022(2) 0.8652(2) 0.13820(16)
H1_5 H 0.7434 0.8089 0.1343
H2_5 H 0.6649 0.8714 0.0997
C3_5 C 0.8295(2) 0.9723(2) 0.10801(13)
Cu5_3 Cu 0.90378(2) 0.97809(2) 0.95767(2)
O1_6 O 0.42569(17) 0.21296(16) 0.19156(11)
S1_4 S 0.14187(5) 0.10655(5) 0.04571(3)
C1_6 C 0.3655(2) 0.1474(2) 0.19399(15)
C2_6 C 0.2978(2) 0.1348(2) 0.13820(16)
H1_6 H 0.2566 0.1911 0.1343
H2_6 H 0.3351 0.1286 0.0997
C3_6 C 0.1705(2) 0.0277(2) 0.10801(13)
Cu5_4 Cu 0.09622(2) 0.02191(2) 0.95767(2)
C4_6 C 0.1179(2) 0.8862(2) 0.16124(15)
C5_6 C 0.0518(2) 0.8011(2) 0.15845(17)
C6_6 C 0.0639(3) 0.7320(3) 0.1134(2)
H3_6 H 0.1126 0.7379 0.0835
C7_6 C 0.0004(4) 0.6497(3) 0.1127(3)
H4_6 H 0.0081 0.6020 0.0823
H9_6 H 0.0012 0.9161 0.2542
S2_4 S 0.89345(5) 0.14187(5) 0.95429(3)
N2_4 N 0.05567(16) 0.11416(17) 0.88781(11)
C4_7 C 0.1138(2) 0.1179(2) 0.83876(15)
C5_7 C 0.1989(2) 0.0518(2) 0.84155(17)
C6_7 C 0.2680(3) 0.0639(3) 0.8866(2)
H3_7 H 0.2621 0.1126 0.9165
C7_7 C 0.3503(3) 0.0004(4) 0.8873(3)
H4_7 H 0.3980 0.0081 0.9177
H9_7 H 0.0839 0.0012 0.7458
O1_7 O 0.78704(16) 0.42569(17) 0.80844(11)
C1_7 C 0.8526(2) 0.3655(2) 0.80601(15)
C2_7 C 0.8652(2) 0.2978(2) 0.86180(16)
H1_7 H 0.8089 0.2566 0.8657
H2_7 H 0.8714 0.3351 0.9003
C3_7 C 0.9723(2) 0.1705(2) 0.89199(13)
N4_4 N 0.94433(16) 0.88584(17) 0.88781(11)
O1_8 O 0.21296(16) 0.57431(17) 0.80844(11)
C1_8 C 0.1474(2) 0.6345(2) 0.80601(15)
C2_8 C 0.1348(2) 0.7022(2) 0.86180(16)
H1_8 H 0.1911 0.7434 0.8657
H2_8 H 0.1286 0.6649 0.9003
C3_8 C 0.0277(2) 0.8295(2) 0.89199(13)
C4_8 C 0.8862(2) 0.8821(2) 0.83876(15)
C5_8 C 0.8011(2) 0.9482(2) 0.84155(17)
C6_8 C 0.7320(3) 0.9361(3) 0.8866(2)
H3_8 H 0.7379 0.8874 0.9165
C7_8 C 0.6497(3) 0.9996(4) 0.8873(3)
H4_8 H 0.6020 0.9919 0.9177
H9_8 H 0.9161 0.9988 0.7458
C8_5 C 0.0691(4) 0.3581(4) 0.1554(3)
H5_5 H 0.1087 0.4123 0.1546
C9_5 C 0.0854(3) 0.2880(3) 0.2016(2)
C10_5 C 0.1608(4) 0.2936(4) 0.2463(3)
H6_5 H 0.2021 0.3466 0.2452
C11_5 C 0.1753(4) 0.2261(5) 0.2902(3)
H7_5 H 0.2265 0.2317 0.3183
C12_5 C 0.1130(4) 0.1468(4) 0.2936(2)
H8_5 H 0.1221 0.1002 0.3246
C13_5 C 0.0392(3) 0.1374(3) 0.2517(2)
C14_5 C 0.0230(3) 0.2071(3) 0.20484(18)
C8_6 C 0.9309(4) 0.6419(4) 0.1554(3)
H5_6 H 0.8913 0.5877 0.1546
C9_6 C 0.9146(3) 0.7120(3) 0.2016(2)
C10_6 C 0.8392(4) 0.7064(4) 0.2463(3)
H6_6 H 0.7979 0.6534 0.2452
C11_6 C 0.8247(4) 0.7739(5) 0.2902(3)
H7_6 H 0.7735 0.7683 0.3183
C12_6 C 0.8870(4) 0.8532(4) 0.2936(2)
H8_6 H 0.8779 0.8998 0.3246
C13_6 C 0.9608(3) 0.8626(3) 0.2517(2)
C14_6 C 0.9770(3) 0.7929(3) 0.20484(18)
C8_7 C 0.3581(4) 0.9309(4) 0.8446(3)
H5_7 H 0.4123 0.8913 0.8454
C9_7 C 0.2880(3) 0.9146(3) 0.7984(2)
C10_7 C 0.2936(4) 0.8392(4) 0.7537(3)
H6_7 H 0.3466 0.7979 0.7548
C11_7 C 0.2261(5) 0.8247(4) 0.7098(3)
H7_7 H 0.2317 0.7735 0.6817
C12_7 C 0.1468(4) 0.8870(4) 0.7064(2)
H8_7 H 0.1002 0.8779 0.6754
C13_7 C 0.1374(3) 0.9608(3) 0.7483(2)
C14_7 C 0.2071(3) 0.9770(3) 0.79516(18)
C8_8 C 0.6419(4) 0.0691(4) 0.8446(3)
H5_8 H 0.5877 0.1087 0.8454
C9_8 C 0.7120(3) 0.0854(3) 0.7984(2)
C10_8 C 0.7064(4) 0.1608(4) 0.7537(3)
H6_8 H 0.6534 0.2021 0.7548
C11_8 C 0.7739(5) 0.1753(4) 0.7098(3)
H7_8 H 0.7683 0.2265 0.6817
C12_8 C 0.8532(4) 0.1130(4) 0.7064(2)
H8_8 H 0.8998 0.1221 0.6754
C13_8 C 0.8626(3) 0.0392(3) 0.7483(2)
C14_8 C 0.7929(3) 0.0230(3) 0.79516(18)
loop_
_geom_bond_atom_site_label_1
_geom_bond_atom_site_label_2
_geom_bond_site_symmetry_1
_geom_bond_site_symmetry_2
Cu1 O1 1_555 1_555
Cu2 S1 1_555 1_555
N1 C2 1_555 1_555
N2 C3 1_555 1_555
O1 C1 1_555 1_555
O2 Cu1 1_555 1_555
O3 C4 1_555 1_555
S1 C3 1_555 1_555
C1 O2 1_555 1_555
C2 C1 1_555 1_555
H1 C2 1_555 1_555
H2 C2 1_555 1_555
C3 N1 1_555 1_555
C4 N2 1_555 1_555
C5 C4 1_555 1_555
C6 C5 1_555 1_555
H3 C6 1_555 1_555
C7 C6 1_555 1_555
H4 C7 1_555 1_555
C8 C7 1_555 1_555
H5 C8 1_555 1_555
C9 C8 1_555 1_555
C10 C9 1_555 1_555
H6 C10 1_555 1_555
C11 C10 1_555 1_555
H7 C11 1_555 1_555
C12 C11 1_555 1_555
H8 C12 1_555 1_555
C13 C12 1_555 1_555
H9 C13 1_555 1_555
C14 C5 1_555 1_555
Cu3 N1 1_555 1_555
Cu4 N2 1_555 1_555
Cu5 S1 1_555 1_555
N4 Cu2 1_555 1_555
O5 Cu1 1_555 1_555
S2 Cu2 1_555 1_555
O2 Cu3 1_555 1_555
O3 Cu3 1_555 1_555
C9 C14 1_555 1_555
C13 C14 1_555 1_555
Cu1_2 O1_2 1_555 1_555
Cu4 S1_2 1_555 1_555
N1_2 C2_2 1_555 1_555
N4 C3_2 1_555 1_555
O1_2 C1_2 1_555 1_555
O2_2 Cu1_2 1_555 1_555
O3_2 C4_2 1_555 1_555
S1_2 C3_2 1_555 1_555
C1_2 O2_2 1_555 1_555
C2_2 C1_2 1_555 1_555
H1_2 C2_2 1_555 1_555
H2_2 C2_2 1_555 1_555
C3_2 N1_2 1_555 1_555
C4_2 N4 1_555 1_555
C5_2 C4_2 1_555 1_555
C6_2 C5_2 1_555 1_555
H3_2 C6_2 1_555 1_555
C7_2 C6_2 1_555 1_555
H4_2 C7_2 1_555 1_555
C8_2 C7_2 1_555 1_555
H5_2 C8_2 1_555 1_555
C9_2 C8_2 1_555 1_555
C10_2 C9_2 1_555 1_555
H6_2 C10_2 1_555 1_555
C11_2 C10_2 1_555 1_555
H7_2 C11_2 1_555 1_555
C12_2 C11_2 1_555 1_555
H8_2 C12_2 1_555 1_555
C13_2 C12_2 1_555 1_555
H9_2 C13_2 1_555 1_555
C14_2 C5_2 1_555 1_555
Cu3_2 N1_2 1_555 1_555
Cu5_2 S1_2 1_555 1_555
O5_2 Cu1_2 1_555 1_555
S2_2 Cu4 1_555 1_555
O2_2 Cu3_2 1_555 1_555
O3_2 Cu3_2 1_555 1_555
C9_2 C14_2 1_555 1_555
C13_2 C14_2 1_555 1_555
Cu1_3 O1_3 1_555 1_555
Cu5 S2_2 1_555 1_555
N1_3 C2_3 1_555 1_555
N2_2 C3_3 1_555 1_555
O1_3 C1_3 1_555 1_555
O2_3 Cu1_3 1_555 1_555
O3_3 C4_3 1_555 1_555
S2_2 C3_3 1_555 1_555
C1_3 O2_3 1_555 1_555
C2_3 C1_3 1_555 1_555
H1_3 C2_3 1_555 1_555
H2_3 C2_3 1_555 1_555
C3_3 N1_3 1_555 1_555
C4_3 N2_2 1_555 1_555
C5_3 C4_3 1_555 1_555
C6_3 C5_3 1_555 1_555
H3_3 C6_3 1_555 1_555
C7_3 C6_3 1_555 1_555
H4_3 C7_3 1_555 1_555
C8_3 C7_3 1_555 1_555
H5_3 C8_3 1_555 1_555
C9_3 C8_3 1_555 1_555
C10_3 C9_3 1_555 1_555
H6_3 C10_3 1_555 1_555
C11_3 C10_3 1_555 1_555
H7_3 C11_3 1_555 1_555
C12_3 C11_3 1_555 1_555
H8_3 C12_3 1_555 1_555
C13_3 C12_3 1_555 1_555
H9_3 C13_3 1_555 1_555
C14_3 C5_3 1_555 1_555
Cu3_3 N1_3 1_555 1_555
Cu5_2 N2_2 1_555 1_555
N4_2 Cu5 1_555 1_555
O5_3 Cu1_3 1_555 1_555
O2_3 Cu3_3 1_555 1_555
O3_3 Cu3_3 1_555 1_555
C9_3 C14_3 1_555 1_555
C13_3 C14_3 1_555 1_555
Cu1_4 O1_4 1_555 1_555
Cu5_2 S2 1_555 1_555
N1_4 C2_4 1_555 1_555
N4_2 C3_4 1_555 1_555
O1_4 C1_4 1_555 1_555
O2_4 Cu1_4 1_555 1_555
O3_4 C4_4 1_555 1_555
S2 C3_4 1_555 1_555
C1_4 O2_4 1_555 1_555
C2_4 C1_4 1_555 1_555
H1_4 C2_4 1_555 1_555
H2_4 C2_4 1_555 1_555
C3_4 N1_4 1_555 1_555
C4_4 N4_2 1_555 1_555
C5_4 C4_4 1_555 1_555
C6_4 C5_4 1_555 1_555
H3_4 C6_4 1_555 1_555
C7_4 C6_4 1_555 1_555
H4_4 C7_4 1_555 1_555
C8_4 C7_4 1_555 1_555
H5_4 C8_4 1_555 1_555
C9_4 C8_4 1_555 1_555
C10_4 C9_4 1_555 1_555
H6_4 C10_4 1_555 1_555
C11_4 C10_4 1_555 1_555
H7_4 C11_4 1_555 1_555
C12_4 C11_4 1_555 1_555
H8_4 C12_4 1_555 1_555
C13_4 C12_4 1_555 1_555
H9_4 C13_4 1_555 1_555
C14_4 C5_4 1_555 1_555
Cu3_4 N1_4 1_555 1_555
O5_4 Cu1_4 1_555 1_555
O2_4 Cu3_4 1_555 1_555
O3_4 Cu3_4 1_555 1_555
C9_4 C14_4 1_555 1_555
C13_4 C14_4 1_555 1_555
N4_3 Cu2_2 1_555 1_555
O5_4 C4_5 1_555 1_555
C4_5 N2_3 1_555 1_555
C5_5 C4_5 1_555 1_555
C6_5 C5_5 1_555 1_555
H3_5 C6_5 1_555 1_555
C7_5 C6_5 1_555 1_555
H4_5 C7_5 1_555 1_555
Cu4_2 N2_3 1_555 1_555
Cu3_3 O1_5 1_555 1_555
N3_4 C2_5 1_555 1_555
O1_5 C1_5 1_555 1_555
O4_4 Cu3_3 1_555 1_555
S1_3 C3_5 1_555 1_555
C1_5 O4_4 1_555 1_555
C2_5 C1_5 1_555 1_555
H1_5 C2_5 1_555 1_555
H2_5 C2_5 1_555 1_555
C3_5 N3_4 1_555 1_555
Cu3_4 O1_6 1_555 1_555
N3_3 C2_6 1_555 1_555
O1_6 C1_6 1_555 1_555
O4_3 Cu3_4 1_555 1_555
S1_4 C3_6 1_555 1_555
C1_6 O4_3 1_555 1_555
C2_6 C1_6 1_555 1_555
H1_6 C2_6 1_555 1_555
H2_6 C2_6 1_555 1_555
C3_6 N3_3 1_555 1_555
O5_3 C4_6 1_555 1_555
C4_6 N4_3 1_555 1_555
C5_6 C4_6 1_555 1_555
C6_6 C5_6 1_555 1_555
H3_6 C6_6 1_555 1_555
C7_6 C6_6 1_555 1_555
H4_6 C7_6 1_555 1_555
O5 C4_7 1_555 1_555
C4_7 N2_4 1_555 1_555
C5_7 C4_7 1_555 1_555
C6_7 C5_7 1_555 1_555
H3_7 C6_7 1_555 1_555
C7_7 C6_7 1_555 1_555
H4_7 C7_7 1_555 1_555
Cu5_4 N2_4 1_555 1_555
Cu3_2 O1_7 1_555 1_555
N3 C2_7 1_555 1_555
O1_7 C1_7 1_555 1_555
O4 Cu3_2 1_555 1_555
S2_4 C3_7 1_555 1_555
C1_7 O4 1_555 1_555
C2_7 C1_7 1_555 1_555
H1_7 C2_7 1_555 1_555
H2_7 C2_7 1_555 1_555
C3_7 N3 1_555 1_555
N4_4 Cu5_3 1_555 1_555
Cu3 O1_8 1_555 1_555
N3_2 C2_8 1_555 1_555
O1_8 C1_8 1_555 1_555
O4_2 Cu3 1_555 1_555
S2_3 C3_8 1_555 1_555
C1_8 O4_2 1_555 1_555
C2_8 C1_8 1_555 1_555
H1_8 C2_8 1_555 1_555
H2_8 C2_8 1_555 1_555
C3_8 N3_2 1_555 1_555
O5_2 C4_8 1_555 1_555
C4_8 N4_4 1_555 1_555
C5_8 C4_8 1_555 1_555
C6_8 C5_8 1_555 1_555
H3_8 C6_8 1_555 1_555
C7_8 C6_8 1_555 1_555
H4_8 C7_8 1_555 1_555
H5_5 C8_5 1_555 1_555
C9_5 C8_5 1_555 1_555
C10_5 C9_5 1_555 1_555
H6_5 C10_5 1_555 1_555
C11_5 C10_5 1_555 1_555
H7_5 C11_5 1_555 1_555
C12_5 C11_5 1_555 1_555
H8_5 C12_5 1_555 1_555
C13_5 C12_5 1_555 1_555
C9_5 C14_5 1_555 1_555
C13_5 C14_5 1_555 1_555
H5_6 C8_6 1_555 1_555
C9_6 C8_6 1_555 1_555
C10_6 C9_6 1_555 1_555
H6_6 C10_6 1_555 1_555
C11_6 C10_6 1_555 1_555
H7_6 C11_6 1_555 1_555
C12_6 C11_6 1_555 1_555
H8_6 C12_6 1_555 1_555
C13_6 C12_6 1_555 1_555
C9_6 C14_6 1_555 1_555
C13_6 C14_6 1_555 1_555
H5_7 C8_7 1_555 1_555
C9_7 C8_7 1_555 1_555
C10_7 C9_7 1_555 1_555
H6_7 C10_7 1_555 1_555
C11_7 C10_7 1_555 1_555
H7_7 C11_7 1_555 1_555
C12_7 C11_7 1_555 1_555
H8_7 C12_7 1_555 1_555
C13_7 C12_7 1_555 1_555
C9_7 C14_7 1_555 1_555
C13_7 C14_7 1_555 1_555
H5_8 C8_8 1_555 1_555
C9_8 C8_8 1_555 1_555
C10_8 C9_8 1_555 1_555
H6_8 C10_8 1_555 1_555
C11_8 C10_8 1_555 1_555
H7_8 C11_8 1_555 1_555
C12_8 C11_8 1_555 1_555
H8_8 C12_8 1_555 1_555
C13_8 C12_8 1_555 1_555
C9_8 C14_8 1_555 1_555
C13_8 C14_8 1_555 1_555

#END
