
###############################################################################
#
# This file contains modified crystal structure data generated from the
# MOF subset of the Cambridge Structural Database (CSD) v543 
# hosted by the Cambridge Crystallographic Data Centre (CCDC).
#
# This work is licensed under the Creative Commons
# Attribution-NonCommercial-ShareAlike 4.0 International License.
# To view a copy of this license, visit
# http://creativecommons.org/licenses/by-nc-sa/4.0/
# or send a letter to
# Creative Commons, PO Box 1866, Mountain View, CA 94042, USA.
#
# CIF created using the CSD Python API on 29 September 2022
# The structure has been converted into the P1 space group
# The structure has a 3D framework
# The original CSD entry OFOCAQ is in the monoclinic crystal system
# The framework has been calculated to contain at least 10.0% void space
# The void calculation uses a probe of radius 1.32A, grid spacing 0.4
# The framework is charged, counterions have been retained in the structure
#
###############################################################################

data_OFOCAQ
_chemical_formula_moiety         '(C160 H160 Br10 Cu8 Dy6 N32 O48 6-)n'
_symmetry_cell_setting           triclinic
_symmetry_space_group_name_H-M   'P 1'
_symmetry_Int_Tables_number      1
_space_group_name_Hall           'P 1'
loop_
_symmetry_equiv_pos_site_id
_symmetry_equiv_pos_as_xyz
1 x,y,z
_cell_length_a                   18.968(13)
_cell_length_b                   15.522(9)
_cell_length_c                   19.472(11)
_cell_angle_alpha                90
_cell_angle_beta                 101.58(5)
_cell_angle_gamma                90
_cell_volume                     5616.28
loop_
_atom_site_label
_atom_site_type_symbol
_atom_site_fract_x
_atom_site_fract_y
_atom_site_fract_z
Br1 Br 0.000000 0.000000 0.000000
O3 O 0.12440(15) 0.13115(18) 0.42948(14)
O4 O 0.19378(16) 0.0427(2) 0.38383(15)
C1 C 0.1376(2) 0.0879(3) 0.3790(2)
C2 C 0.0855(2) 0.0890(3) 0.3091(2)
C11 C 0.1099(2) 0.0760(4) 0.2475(2)
H5 H 0.158771 0.067783 0.249003
C12 C 0.0124(2) 0.1008(3) 0.3032(2)
H7 H 0.003467 0.204158 0.010639
C14 C 0.0621(2) 0.0753(4) 0.1841(2)
H8 H 0.079974 0.068274 0.143333
Dy4 Dy 0.250000 0.09204(2) 0.500000
Br1_2 Br 0.000000 -0.000000 1.000000
Br1_3 Br 0.000000 1.000000 0.000000
Br1_4 Br 0.000000 1.000000 1.000000
Cu3 Cu 0.07694(3) 0.92251(3) 0.91930(3)
Br1_5 Br 1.000000 0.000000 0.000000
Cu1 Cu 0.92306(3) 0.07749(3) 0.08070(3)
N1 N 0.99090(18) 0.0842(2) 0.17867(18)
N3 N 0.91359(18) 0.1994(2) 0.04557(17)
C10 C 0.8488(2) 0.3335(3) 0.0306(2)
H4 H 0.809759 0.365700 0.038278
H6 H 0.993456 0.110675 0.342917
C13 C 0.9634(2) 0.2365(3) 0.0151(2)
C15 C 0.9678(2) 0.0977(3) 0.2381(2)
H9 H 0.918712 0.105574 0.235461
H10 H 0.765412 0.053188 0.086879
C17 C 0.8579(2) 0.2494(3) 0.0545(2)
H11 H 0.824007 0.226302 0.077742
O7 O 0.67208(16) 0.49524(18) 0.03183(16)
O8 O 0.57113(18) 0.4844(2) 0.07323(18)
C21 C 0.6019(2) 0.3694(2) 0.0048(2)
C22 C 0.6147(2) 0.4580(3) 0.0385(2)
C23 C 0.5415(2) 0.3205(3) 0.0100(2)
H13 H 0.505105 0.343732 0.029964
Dy2 Dy 0.750000 0.59204(2) 0.000000
Br2 Br 0.500000 0.000000 0.000000
Br1_6 Br 1.000000 -0.000000 1.000000
O1 O 0.82792(16) 0.49524(18) 0.96817(16)
O2 O 0.92887(18) 0.4844(2) 0.92677(18)
C3 C 0.8981(2) 0.3694(2) 0.9952(2)
C4 C 0.8853(2) 0.4580(3) 0.9615(2)
C5 C 0.9585(2) 0.3205(3) 0.9900(2)
H1 H 0.994895 0.343732 0.970036
Cu2 Cu 0.57694(3) 0.07749(3) 0.91930(3)
O9 O 0.37560(15) 0.13115(18) 0.57052(14)
O10 O 0.30622(16) 0.0427(2) 0.61617(15)
N4 N 0.50910(18) 0.0842(2) 0.82133(18)
N6 N 0.58641(18) 0.1994(2) 0.95443(17)
C19 C 0.3624(2) 0.0879(3) 0.6210(2)
C20 C 0.4145(2) 0.0890(3) 0.6909(2)
C28 C 0.6512(2) 0.3335(3) 0.9694(2)
H16 H 0.690241 0.365700 0.961722
C29 C 0.3901(2) 0.0760(4) 0.7525(2)
H17 H 0.341229 0.067783 0.750997
C30 C 0.4876(2) 0.1008(3) 0.6968(2)
H18 H 0.506544 0.110675 0.657083
C31 C 0.5366(2) 0.2365(3) 0.9849(2)
H19 H 0.496533 0.204158 0.989361
C32 C 0.4379(2) 0.0753(4) 0.8159(2)
H20 H 0.420026 0.068274 0.856667
C33 C 0.5322(2) 0.0977(3) 0.7619(2)
H21 H 0.581288 0.105574 0.764539
H22 H 0.734588 0.053188 0.913121
C35 C 0.6421(2) 0.2494(3) 0.9455(2)
H23 H 0.675993 0.226302 0.922258
Dy2_2 Dy 0.750000 0.59204(2) 1.000000
Br2_2 Br 0.500000 -0.000000 1.000000
Br1_7 Br 1.000000 1.000000 0.000000
O5 O 0.72097(16) 0.69937(17) 0.06909(15)
O6 O 0.6473(2) 0.7861(2) 0.1106(2)
N2 N 0.85122(19) 0.9835(2) 0.08536(19)
C6 C 0.8276(2) 0.8316(3) 0.0873(2)
H2 H 0.844990 0.775625 0.086915
C7 C 0.8730(2) 0.9010(3) 0.0862(3)
H3 H 0.921198 0.890039 0.086033
C8 C 0.7559(2) 0.8462(3) 0.0891(2)
C9 C 0.7037(2) 0.7715(3) 0.0895(2)
C16 C 0.7817(2) 0.9967(3) 0.0871(2)
C18 C 0.7328(2) 0.9307(3) 0.0891(2)
H12 H 0.685158 0.943121 0.090407
Br2_3 Br 0.500000 1.000000 0.000000
O16 O 0.87560(15) 0.63115(18) 0.07052(14)
O18 O 0.80622(16) 0.5427(2) 0.11617(15)
Br1_8 Br 1.000000 1.000000 1.000000
O11 O 0.77903(16) 0.69937(17) 0.93091(15)
O12 O 0.8527(2) 0.7861(2) 0.8894(2)
N5 N 0.64878(19) 0.9835(2) 0.91464(19)
C24 C 0.6724(2) 0.8316(3) 0.9127(2)
H14 H 0.655010 0.775625 0.913085
C25 C 0.6270(2) 0.9010(3) 0.9138(3)
H15 H 0.578802 0.890039 0.913967
C26 C 0.7441(2) 0.8462(3) 0.9109(2)
C27 C 0.7963(2) 0.7715(3) 0.9105(2)
C34 C 0.7183(2) 0.9967(3) 0.9129(2)
C36 C 0.7672(2) 0.9307(3) 0.9109(2)
H24 H 0.814842 0.943121 0.909593
Br2_4 Br 0.500000 1.000000 1.000000
O15 O 0.62440(15) 0.63115(18) 0.92948(14)
O17 O 0.69378(16) 0.5427(2) 0.88383(15)
Cu3_2 Cu 0.42306(3) 0.92251(3) 0.08070(3)
Br1_9 Br 0.500000 0.500000 0.500000
Cu1_2 Cu 0.42306(3) 0.57749(3) 0.58070(3)
O1_2 O 0.32792(16) 0.99524(18) 0.46817(16)
O2_2 O 0.42887(18) 0.9844(2) 0.42677(18)
O5_2 O 0.22097(16) 0.19937(17) 0.56909(15)
O6_2 O 0.1473(2) 0.2861(2) 0.6106(2)
N1_2 N 0.49090(18) 0.5842(2) 0.67867(18)
N2_2 N 0.35122(19) 0.4835(2) 0.58536(19)
N3_2 N 0.41359(18) 0.6994(2) 0.54557(17)
C1_2 C 0.6376(2) 0.5879(3) 0.8790(2)
C2_2 C 0.5855(2) 0.5890(3) 0.8091(2)
C3_2 C 0.3981(2) 0.8694(2) 0.4952(2)
C4_2 C 0.3853(2) 0.9580(3) 0.4615(2)
C5_2 C 0.4585(2) 0.8205(3) 0.4900(2)
H1_2 H 0.494895 0.843732 0.470036
C6_2 C 0.3276(2) 0.3316(3) 0.5873(2)
H2_2 H 0.344990 0.275625 0.586915
C7_2 C 0.3730(2) 0.4010(3) 0.5862(3)
H3_2 H 0.421198 0.390039 0.586033
C8_2 C 0.2559(2) 0.3462(3) 0.5891(2)
C9_2 C 0.2037(2) 0.2715(3) 0.5895(2)
C10_2 C 0.3488(2) 0.8335(3) 0.5306(2)
H4_2 H 0.309759 0.865700 0.538278
C11_2 C 0.6099(2) 0.5760(4) 0.7475(2)
H5_2 H 0.658771 0.567783 0.749003
C12_2 C 0.5124(2) 0.6008(3) 0.8032(2)
H6_2 H 0.493456 0.610675 0.842917
C13_2 C 0.4634(2) 0.7365(3) 0.5151(2)
H7_2 H 0.503467 0.704158 0.510639
C14_2 C 0.5621(2) 0.5753(4) 0.6841(2)
H8_2 H 0.579974 0.568274 0.643333
C15_2 C 0.4678(2) 0.5977(3) 0.7381(2)
H9_2 H 0.418712 0.605574 0.735461
C16_2 C 0.2817(2) 0.4967(3) 0.5871(2)
H10_2 H 0.265412 0.553188 0.586879
C17_2 C 0.3579(2) 0.7494(3) 0.5545(2)
H11_2 H 0.324007 0.726302 0.577742
C18_2 C 0.2328(2) 0.4307(3) 0.5891(2)
H12_2 H 0.185158 0.443121 0.590407
Cu2_2 Cu 0.07694(3) 0.57749(3) 0.41930(3)
O7_2 O 0.17208(16) 0.99524(18) 0.53183(16)
O8_2 O 0.07113(18) 0.9844(2) 0.57323(18)
O11_2 O 0.27903(16) 0.19937(17) 0.43091(15)
O12_2 O 0.3527(2) 0.2861(2) 0.3894(2)
N4_2 N 0.00910(18) 0.5842(2) 0.32133(18)
N5_2 N 0.14878(19) 0.4835(2) 0.41464(19)
N6_2 N 0.08641(18) 0.6994(2) 0.45443(17)
C21_2 C 0.1019(2) 0.8694(2) 0.5048(2)
C22_2 C 0.1147(2) 0.9580(3) 0.5385(2)
C23_2 C 0.0415(2) 0.8205(3) 0.5100(2)
H13_2 H 0.005105 0.843732 0.529964
C24_2 C 0.1724(2) 0.3316(3) 0.4127(2)
H14_2 H 0.155010 0.275625 0.413085
C25_2 C 0.1270(2) 0.4010(3) 0.4138(3)
H15_2 H 0.078802 0.390039 0.413967
C26_2 C 0.2441(2) 0.3462(3) 0.4109(2)
C27_2 C 0.2963(2) 0.2715(3) 0.4105(2)
C28_2 C 0.1512(2) 0.8335(3) 0.4694(2)
H16_2 H 0.190241 0.865700 0.461722
H18_2 H 0.006544 0.610675 0.157083
C31_2 C 0.0366(2) 0.7365(3) 0.4849(2)
C33_2 C 0.0322(2) 0.5977(3) 0.2619(2)
H21_2 H 0.081288 0.605574 0.264539
C34_2 C 0.2183(2) 0.4967(3) 0.4129(2)
H22_2 H 0.234588 0.553188 0.413121
C35_2 C 0.1421(2) 0.7494(3) 0.4455(2)
H23_2 H 0.175993 0.726302 0.422258
C36_2 C 0.2672(2) 0.4307(3) 0.4109(2)
H24_2 H 0.314842 0.443121 0.409593
Br2_5 Br 0.000000 0.500000 0.500000
Cu3_3 Cu 0.57694(3) 0.42251(3) 0.41930(3)
C19_2 C 0.8624(2) 0.5879(3) 0.1210(2)
C20_2 C 0.9145(2) 0.5890(3) 0.1909(2)
C29_2 C 0.8901(2) 0.5760(4) 0.2525(2)
H17_2 H 0.841229 0.567783 0.250997
C30_2 C 0.9876(2) 0.6008(3) 0.1968(2)
H19_2 H 0.996533 0.704158 0.489361
C32_2 C 0.9379(2) 0.5753(4) 0.3159(2)
H20_2 H 0.920026 0.568274 0.356667
Br2_6 Br 1.000000 0.500000 0.500000
Cu3_4 Cu 0.92306(3) 0.42251(3) 0.58070(3)
Dy1 Dy 0.250000 0.40796(2) 0.000000
O11_3 O 0.22097(16) 0.30063(17) 0.06909(15)
O12_3 O 0.1473(2) 0.2139(2) 0.1106(2)
N5_3 N 0.35122(19) 0.0165(2) 0.08536(19)
C24_3 C 0.3276(2) 0.1684(3) 0.0873(2)
H14_3 H 0.344990 0.224375 0.086915
C25_3 C 0.3730(2) 0.0990(3) 0.0862(3)
H15_3 H 0.421198 0.109961 0.086033
C26_3 C 0.2559(2) 0.1538(3) 0.0891(2)
C27_3 C 0.2037(2) 0.2285(3) 0.0895(2)
C34_3 C 0.2817(2) 0.0033(3) 0.0871(2)
C36_3 C 0.2328(2) 0.0693(3) 0.0891(2)
H24_3 H 0.185158 0.056879 0.090407
O13 O 0.17208(16) 0.50476(18) 0.03183(16)
O15_2 O 0.37560(15) 0.36885(18) 0.07052(14)
O17_2 O 0.30622(16) 0.4573(2) 0.11617(15)
Dy1_2 Dy 0.250000 0.40796(2) 1.000000
O5_3 O 0.27903(16) 0.30063(17) 0.93091(15)
O6_3 O 0.3527(2) 0.2139(2) 0.8894(2)
N2_3 N 0.14878(19) 0.0165(2) 0.91464(19)
C6_3 C 0.1724(2) 0.1684(3) 0.9127(2)
H2_3 H 0.155010 0.224375 0.913085
C7_3 C 0.1270(2) 0.0990(3) 0.9138(3)
H3_3 H 0.078802 0.109961 0.913967
C8_3 C 0.2441(2) 0.1538(3) 0.9109(2)
C9_3 C 0.2963(2) 0.2285(3) 0.9105(2)
C16_3 C 0.2183(2) 0.0033(3) 0.9129(2)
C18_3 C 0.2672(2) 0.0693(3) 0.9109(2)
H12_3 H 0.314842 0.056879 0.909593
O14 O 0.32792(16) 0.50476(18) 0.96817(16)
O16_2 O 0.12440(15) 0.36885(18) 0.92948(14)
O18_2 O 0.19378(16) 0.4573(2) 0.88383(15)
O2_3 O 0.07113(18) 0.5156(2) 0.07323(18)
C3_3 C 0.1019(2) 0.6306(2) 0.0048(2)
C4_3 C 0.1147(2) 0.5420(3) 0.0385(2)
C5_3 C 0.0415(2) 0.6795(3) 0.0100(2)
H1_3 H 0.005105 0.656268 0.029964
O9_2 O 0.62440(15) 0.86885(18) 0.42948(14)
O10_2 O 0.69378(16) 0.9573(2) 0.38383(15)
N4_3 N 0.49090(18) 0.9158(2) 0.17867(18)
N6_3 N 0.41359(18) 0.8006(2) 0.04557(17)
C19_3 C 0.6376(2) 0.9121(3) 0.3790(2)
C20_3 C 0.5855(2) 0.9110(3) 0.3091(2)
C28_3 C 0.3488(2) 0.6665(3) 0.0306(2)
H16_3 H 0.309759 0.634300 0.038278
C29_3 C 0.6099(2) 0.9240(4) 0.2475(2)
H17_3 H 0.658771 0.932217 0.249003
C30_3 C 0.5124(2) 0.8992(3) 0.3032(2)
H18_3 H 0.493456 0.889325 0.342917
C31_3 C 0.4634(2) 0.7635(3) 0.0151(2)
H19_3 H 0.503467 0.795842 0.010639
C32_3 C 0.5621(2) 0.9247(4) 0.1841(2)
H20_3 H 0.579974 0.931726 0.143333
C33_3 C 0.4678(2) 0.9023(3) 0.2381(2)
H21_3 H 0.418712 0.894426 0.235461
H22_3 H 0.265412 0.946812 0.086879
C35_3 C 0.3579(2) 0.7506(3) 0.0545(2)
H23_3 H 0.324007 0.773698 0.077742
Dy3 Dy 0.750000 0.90796(2) 0.500000
N1_3 N 0.00910(18) 0.9158(2) 0.82133(18)
N3_3 N 0.08641(18) 0.8006(2) 0.95443(17)
C10_3 C 0.1512(2) 0.6665(3) 0.9694(2)
H4_3 H 0.190241 0.634300 0.961722
H6_3 H 0.006544 0.889325 0.657083
C13_3 C 0.0366(2) 0.7635(3) 0.9849(2)
C15_3 C 0.0322(2) 0.9023(3) 0.7619(2)
H9_3 H 0.081288 0.894426 0.764539
H10_3 H 0.234588 0.946812 0.913121
C17_3 C 0.1421(2) 0.7506(3) 0.9455(2)
H11_3 H 0.175993 0.773698 0.922258
O8_3 O 0.42887(18) 0.5156(2) 0.92677(18)
C21_3 C 0.3981(2) 0.6306(2) 0.9952(2)
C22_3 C 0.3853(2) 0.5420(3) 0.9615(2)
C23_3 C 0.4585(2) 0.6795(3) 0.9900(2)
H13_3 H 0.494895 0.656268 0.970036
O3_2 O 0.87560(15) 0.86885(18) 0.57052(14)
O4_2 O 0.80622(16) 0.9573(2) 0.61617(15)
C1_3 C 0.8624(2) 0.9121(3) 0.6210(2)
C2_3 C 0.9145(2) 0.9110(3) 0.6909(2)
C11_3 C 0.8901(2) 0.9240(4) 0.7525(2)
H5_3 H 0.841229 0.932217 0.750997
C12_3 C 0.9876(2) 0.8992(3) 0.6968(2)
H7_3 H 0.996533 0.795842 0.989361
C14_3 C 0.9379(2) 0.9247(4) 0.8159(2)
H8_3 H 0.920026 0.931726 0.856667
C19_4 C 0.1376(2) 0.4121(3) 0.8790(2)
C20_4 C 0.0855(2) 0.4110(3) 0.8091(2)
C29_4 C 0.1099(2) 0.4240(4) 0.7475(2)
H17_4 H 0.158771 0.432217 0.749003
C30_4 C 0.0124(2) 0.3992(3) 0.8032(2)
H19_4 H 0.003467 0.295842 0.510639
C32_4 C 0.0621(2) 0.4247(4) 0.6841(2)
H20_4 H 0.079974 0.431726 0.643333
O13_2 O 0.67208(16) 0.00476(18) 0.53183(16)
O14_2 O 0.82792(16) 0.00476(18) 0.46817(16)
O2_4 O 0.57113(18) 0.0156(2) 0.57323(18)
O5_4 O 0.77903(16) 0.80063(17) 0.43091(15)
O6_4 O 0.8527(2) 0.7139(2) 0.3894(2)
N1_4 N 0.50910(18) 0.4158(2) 0.32133(18)
N2_4 N 0.64878(19) 0.5165(2) 0.41464(19)
N3_4 N 0.58641(18) 0.3006(2) 0.45443(17)
C1_4 C 0.3624(2) 0.4121(3) 0.1210(2)
C2_4 C 0.4145(2) 0.4110(3) 0.1909(2)
C3_4 C 0.6019(2) 0.1306(2) 0.5048(2)
C4_4 C 0.6147(2) 0.0420(3) 0.5385(2)
C5_4 C 0.5415(2) 0.1795(3) 0.5100(2)
H1_4 H 0.505105 0.156268 0.529964
C6_4 C 0.6724(2) 0.6684(3) 0.4127(2)
H2_4 H 0.655010 0.724375 0.413085
C7_4 C 0.6270(2) 0.5990(3) 0.4138(3)
H3_4 H 0.578802 0.609961 0.413967
C8_4 C 0.7441(2) 0.6538(3) 0.4109(2)
C9_4 C 0.7963(2) 0.7285(3) 0.4105(2)
C10_4 C 0.6512(2) 0.1665(3) 0.4694(2)
H4_4 H 0.690241 0.134300 0.461722
C11_4 C 0.3901(2) 0.4240(4) 0.2525(2)
H5_4 H 0.341229 0.432217 0.250997
C12_4 C 0.4876(2) 0.3992(3) 0.1968(2)
H6_4 H 0.506544 0.389325 0.157083
C13_4 C 0.5366(2) 0.2635(3) 0.4849(2)
H7_4 H 0.496533 0.295842 0.489361
C14_4 C 0.4379(2) 0.4247(4) 0.3159(2)
H8_4 H 0.420026 0.431726 0.356667
C15_4 C 0.5322(2) 0.4023(3) 0.2619(2)
H9_4 H 0.581288 0.394426 0.264539
C16_4 C 0.7183(2) 0.5033(3) 0.4129(2)
H10_4 H 0.734588 0.446812 0.413121
C17_4 C 0.6421(2) 0.2506(3) 0.4455(2)
H11_4 H 0.675993 0.273698 0.422258
C18_4 C 0.7672(2) 0.5693(3) 0.4109(2)
H12_4 H 0.814842 0.556879 0.409593
O8_4 O 0.92887(18) 0.0156(2) 0.42677(18)
O11_4 O 0.72097(16) 0.80063(17) 0.56909(15)
O12_4 O 0.6473(2) 0.7139(2) 0.6106(2)
N4_4 N 0.99090(18) 0.4158(2) 0.67867(18)
N5_4 N 0.85122(19) 0.5165(2) 0.58536(19)
N6_4 N 0.91359(18) 0.3006(2) 0.54557(17)
C21_4 C 0.8981(2) 0.1306(2) 0.4952(2)
C22_4 C 0.8853(2) 0.0420(3) 0.4615(2)
C23_4 C 0.9585(2) 0.1795(3) 0.4900(2)
H13_4 H 0.994895 0.156268 0.470036
C24_4 C 0.8276(2) 0.6684(3) 0.5873(2)
H14_4 H 0.844990 0.724375 0.586915
C25_4 C 0.8730(2) 0.5990(3) 0.5862(3)
H15_4 H 0.921198 0.609961 0.586033
C26_4 C 0.7559(2) 0.6538(3) 0.5891(2)
C27_4 C 0.7037(2) 0.7285(3) 0.5895(2)
C28_4 C 0.8488(2) 0.1665(3) 0.5306(2)
H16_4 H 0.809759 0.134300 0.538278
H18_4 H 0.993456 0.389325 0.842917
C31_4 C 0.9634(2) 0.2635(3) 0.5151(2)
C33_4 C 0.9678(2) 0.4023(3) 0.7381(2)
H21_4 H 0.918712 0.394426 0.735461
C34_4 C 0.7817(2) 0.5033(3) 0.5871(2)
H22_4 H 0.765412 0.446812 0.586879
C35_4 C 0.8579(2) 0.2506(3) 0.5545(2)
H23_4 H 0.824007 0.273698 0.577742
C36_4 C 0.7328(2) 0.5693(3) 0.5891(2)
H24_4 H 0.685158 0.556879 0.590407
N7 N 0.8936(2) 0.8723(2) 0.3461(2)
H25 H 0.882542 0.826368 0.369164
H26 H 0.904792 0.914898 0.376964
C37 C 0.9576(3) 0.8518(4) 0.3165(3)
H27 H 0.997919 0.840832 0.353990
H28 H 0.968408 0.899668 0.289152
H29 H 0.948056 0.801690 0.287284
C38 C 0.8296(3) 0.8978(4) 0.2934(3)
H30 H 0.790866 0.911727 0.316564
H31 H 0.815300 0.851065 0.261344
H32 H 0.840887 0.947282 0.268037
N7_2 N 0.6064(2) 0.8723(2) 0.6539(2)
H25_2 H 0.617458 0.826368 0.630836
H26_2 H 0.595208 0.914898 0.623036
C37_2 C 0.5424(3) 0.8518(4) 0.6835(3)
H27_2 H 0.502081 0.840832 0.646010
H28_2 H 0.531592 0.899668 0.710848
H29_2 H 0.551944 0.801690 0.712716
C38_2 C 0.6704(3) 0.8978(4) 0.7066(3)
H30_2 H 0.709134 0.911727 0.683436
H31_2 H 0.684700 0.851065 0.738656
H32_2 H 0.659113 0.947282 0.731963
N7_3 N 0.3936(2) 0.3723(2) 0.8461(2)
H25_3 H 0.382542 0.326368 0.869164
H26_3 H 0.404792 0.414898 0.876964
C37_3 C 0.4576(3) 0.3518(4) 0.8165(3)
H27_3 H 0.497919 0.340832 0.853990
H28_3 H 0.468408 0.399668 0.789152
H29_3 H 0.448056 0.301690 0.787284
C38_3 C 0.3296(3) 0.3978(4) 0.7934(3)
H30_3 H 0.290866 0.411727 0.816564
H31_3 H 0.315300 0.351065 0.761344
H32_3 H 0.340887 0.447282 0.768037
N7_4 N 0.1064(2) 0.3723(2) 0.1539(2)
H25_4 H 0.117458 0.326368 0.130836
H26_4 H 0.095208 0.414898 0.123036
C37_4 C 0.0424(3) 0.3518(4) 0.1835(3)
H27_4 H 0.002081 0.340832 0.146010
H28_4 H 0.031592 0.399668 0.210848
H29_4 H 0.051944 0.301690 0.212716
C38_4 C 0.1704(3) 0.3978(4) 0.2066(3)
H30_4 H 0.209134 0.411727 0.183436
H31_4 H 0.184700 0.351065 0.238656
H32_4 H 0.159113 0.447282 0.231963
N7_5 N 0.1064(2) 0.1277(2) 0.6539(2)
H25_5 H 0.117458 0.173632 0.630836
H26_5 H 0.095208 0.085102 0.623036
C37_5 C 0.0424(3) 0.1482(4) 0.6835(3)
H27_5 H 0.002081 0.159168 0.646010
H28_5 H 0.031592 0.100332 0.710848
H29_5 H 0.051944 0.198310 0.712716
C38_5 C 0.1704(3) 0.1022(4) 0.7066(3)
H30_5 H 0.209134 0.088273 0.683436
H31_5 H 0.184700 0.148935 0.738656
H32_5 H 0.159113 0.052718 0.731963
N7_6 N 0.3936(2) 0.1277(2) 0.3461(2)
H25_6 H 0.382542 0.173632 0.369164
H26_6 H 0.404792 0.085102 0.376964
C37_6 C 0.4576(3) 0.1482(4) 0.3165(3)
H27_6 H 0.497919 0.159168 0.353990
H28_6 H 0.468408 0.100332 0.289152
H29_6 H 0.448056 0.198310 0.287284
C38_6 C 0.3296(3) 0.1022(4) 0.2934(3)
H30_6 H 0.290866 0.088273 0.316564
H31_6 H 0.315300 0.148935 0.261344
H32_6 H 0.340887 0.052718 0.268037
N7_7 N 0.6064(2) 0.6277(2) 0.1539(2)
H25_7 H 0.617458 0.673632 0.130836
H26_7 H 0.595208 0.585102 0.123036
C37_7 C 0.5424(3) 0.6482(4) 0.1835(3)
H27_7 H 0.502081 0.659168 0.146010
H28_7 H 0.531592 0.600332 0.210848
H29_7 H 0.551944 0.698310 0.212716
C38_7 C 0.6704(3) 0.6022(4) 0.2066(3)
H30_7 H 0.709134 0.588273 0.183436
H31_7 H 0.684700 0.648935 0.238656
H32_7 H 0.659113 0.552718 0.231963
N7_8 N 0.8936(2) 0.6277(2) 0.8461(2)
H25_8 H 0.882542 0.673632 0.869164
H26_8 H 0.904792 0.585102 0.876964
C37_8 C 0.9576(3) 0.6482(4) 0.8165(3)
H27_8 H 0.997919 0.659168 0.853990
H28_8 H 0.968408 0.600332 0.789152
H29_8 H 0.948056 0.698310 0.787284
C38_8 C 0.8296(3) 0.6022(4) 0.7934(3)
H30_8 H 0.790866 0.588273 0.816564
H31_8 H 0.815300 0.648935 0.761344
H32_8 H 0.840887 0.552718 0.768037
loop_
_geom_bond_atom_site_label_1
_geom_bond_atom_site_label_2
_geom_bond_site_symmetry_1
_geom_bond_site_symmetry_2
O3 C1 1_555 1_555
O4 C1 1_555 1_555
C1 C2 1_555 1_555
C2 C11 1_555 1_555
C11 H5 1_555 1_555
C12 C2 1_555 1_555
C14 C11 1_555 1_555
H8 C14 1_555 1_555
Dy4 O3 1_555 1_555
O4 Dy4 1_555 1_555
Cu3 Br1_4 1_555 1_555
Br1_5 Cu1 1_555 1_555
Cu1 N1 1_555 1_555
N3 Cu1 1_555 1_555
H4 C10 1_555 1_555
C13 N3 1_555 1_555
C15 N1 1_555 1_555
H9 C15 1_555 1_555
C17 N3 1_555 1_555
H11 C17 1_555 1_555
O7 C22 1_555 1_555
O8 C22 1_555 1_555
C21 C22 1_555 1_555
C23 C21 1_555 1_555
H13 C23 1_555 1_555
C10 C17 1_555 1_555
O7 Dy2 1_555 1_555
O1 C4 1_555 1_555
O2 C4 1_555 1_555
C3 C4 1_555 1_555
C5 C3 1_555 1_555
H1 C5 1_555 1_555
Cu2 N4 1_555 1_555
O9 C19 1_555 1_555
O10 C19 1_555 1_555
N4 C32 1_555 1_555
N6 Cu2 1_555 1_555
C19 C20 1_555 1_555
C20 C29 1_555 1_555
H16 C28 1_555 1_555
C29 H17 1_555 1_555
C30 C20 1_555 1_555
H18 C30 1_555 1_555
C31 N6 1_555 1_555
H19 C31 1_555 1_555
C32 C29 1_555 1_555
H20 C32 1_555 1_555
C33 N4 1_555 1_555
H21 C33 1_555 1_555
C35 N6 1_555 1_555
H23 C35 1_555 1_555
Dy2_2 O1 1_555 1_555
Dy4 O9 1_555 1_555
Br2_2 Cu2 1_555 1_555
O10 Dy4 1_555 1_555
C28 C35 1_555 1_555
C30 C33 1_555 1_555
Dy2 O5 1_555 1_555
O5 C9 1_555 1_555
O6 C9 1_555 1_555
C6 H2 1_555 1_555
C7 N2 1_555 1_555
H3 C7 1_555 1_555
C8 C6 1_555 1_555
C9 C8 1_555 1_555
C16 N2 1_555 1_555
C18 C8 1_555 1_555
H12 C18 1_555 1_555
O16 Dy2 1_555 1_555
O18 Dy2 1_555 1_555
C6 C7 1_555 1_555
C16 C18 1_555 1_555
O11 Dy2_2 1_555 1_555
O12 C27 1_555 1_555
C24 H14 1_555 1_555
C25 N5 1_555 1_555
H15 C25 1_555 1_555
C26 C24 1_555 1_555
C27 O11 1_555 1_555
C34 N5 1_555 1_555
C36 C26 1_555 1_555
H24 C36 1_555 1_555
O15 Dy2_2 1_555 1_555
O17 Dy2_2 1_555 1_555
C24 C25 1_555 1_555
C26 C27 1_555 1_555
C34 C36 1_555 1_555
Cu3_2 Br2_3 1_555 1_555
Dy4 O5_2 1_555 1_555
Br1_9 Cu1_2 1_555 1_555
Cu1_2 N1_2 1_555 1_555
O1_2 C4_2 1_555 1_555
O2_2 C4_2 1_555 1_555
O15 C1_2 1_555 1_555
O17 C1_2 1_555 1_555
O5_2 C9_2 1_555 1_555
O6_2 C9_2 1_555 1_555
N1_2 C14_2 1_555 1_555
N2_2 Cu1_2 1_555 1_555
N3_2 Cu1_2 1_555 1_555
C1_2 C2_2 1_555 1_555
C2_2 C11_2 1_555 1_555
C3_2 C4_2 1_555 1_555
C5_2 C3_2 1_555 1_555
H1_2 C5_2 1_555 1_555
C6_2 H2_2 1_555 1_555
C7_2 N2_2 1_555 1_555
H3_2 C7_2 1_555 1_555
C8_2 C6_2 1_555 1_555
C9_2 C8_2 1_555 1_555
C10_2 C3_2 1_555 1_555
H4_2 C10_2 1_555 1_555
C11_2 H5_2 1_555 1_555
C12_2 C2_2 1_555 1_555
H6_2 C12_2 1_555 1_555
C13_2 N3_2 1_555 1_555
H7_2 C13_2 1_555 1_555
C14_2 C11_2 1_555 1_555
H8_2 C14_2 1_555 1_555
C15_2 N1_2 1_555 1_555
H9_2 C15_2 1_555 1_555
C16_2 N2_2 1_555 1_555
H10_2 C16_2 1_555 1_555
C17_2 N3_2 1_555 1_555
H11_2 C17_2 1_555 1_555
C18_2 C8_2 1_555 1_555
H12_2 C18_2 1_555 1_555
Cu2_2 N4_2 1_555 1_555
O7_2 C22_2 1_555 1_555
O8_2 C22_2 1_555 1_555
O11_2 Dy4 1_555 1_555
O12_2 C27_2 1_555 1_555
N5_2 Cu2_2 1_555 1_555
N6_2 Cu2_2 1_555 1_555
C21_2 C22_2 1_555 1_555
C23_2 C21_2 1_555 1_555
H13_2 C23_2 1_555 1_555
C24_2 H14_2 1_555 1_555
C25_2 N5_2 1_555 1_555
H15_2 C25_2 1_555 1_555
C26_2 C24_2 1_555 1_555
C27_2 O11_2 1_555 1_555
C28_2 C21_2 1_555 1_555
H16_2 C28_2 1_555 1_555
C31_2 N6_2 1_555 1_555
C33_2 N4_2 1_555 1_555
H21_2 C33_2 1_555 1_555
C34_2 N5_2 1_555 1_555
H22_2 C34_2 1_555 1_555
C35_2 N6_2 1_555 1_555
H23_2 C35_2 1_555 1_555
C36_2 C26_2 1_555 1_555
H24_2 C36_2 1_555 1_555
Br2_5 Cu2_2 1_555 1_555
Cu3_3 Br1_9 1_555 1_555
C5_2 C13_2 1_555 1_555
C6_2 C7_2 1_555 1_555
C10_2 C17_2 1_555 1_555
C12_2 C15_2 1_555 1_555
C16_2 C18_2 1_555 1_555
C23_2 C31_2 1_555 1_555
C24_2 C25_2 1_555 1_555
C26_2 C27_2 1_555 1_555
C28_2 C35_2 1_555 1_555
C34_2 C36_2 1_555 1_555
O16 C19_2 1_555 1_555
O18 C19_2 1_555 1_555
C19_2 C20_2 1_555 1_555
C20_2 C29_2 1_555 1_555
C29_2 H17_2 1_555 1_555
C30_2 C20_2 1_555 1_555
C32_2 C29_2 1_555 1_555
H20_2 C32_2 1_555 1_555
Cu3_4 Br2_6 1_555 1_555
O11_3 Dy1 1_555 1_555
O12_3 C27_3 1_555 1_555
C24_3 H14_3 1_555 1_555
C25_3 N5_3 1_555 1_555
H15_3 C25_3 1_555 1_555
C26_3 C24_3 1_555 1_555
C27_3 O11_3 1_555 1_555
C34_3 N5_3 1_555 1_555
C36_3 C26_3 1_555 1_555
H24_3 C36_3 1_555 1_555
O13 Dy1 1_555 1_555
O15_2 Dy1 1_555 1_555
O17_2 Dy1 1_555 1_555
C24_3 C25_3 1_555 1_555
C26_3 C27_3 1_555 1_555
C34_3 C36_3 1_555 1_555
Dy1_2 O5_3 1_555 1_555
O5_3 C9_3 1_555 1_555
O6_3 C9_3 1_555 1_555
C6_3 H2_3 1_555 1_555
C7_3 N2_3 1_555 1_555
H3_3 C7_3 1_555 1_555
C8_3 C6_3 1_555 1_555
C9_3 C8_3 1_555 1_555
C16_3 N2_3 1_555 1_555
C18_3 C8_3 1_555 1_555
H12_3 C18_3 1_555 1_555
O14 Dy1_2 1_555 1_555
O16_2 Dy1_2 1_555 1_555
O18_2 Dy1_2 1_555 1_555
C6_3 C7_3 1_555 1_555
C16_3 C18_3 1_555 1_555
O13 C4_3 1_555 1_555
O2_3 C4_3 1_555 1_555
C3_3 C4_3 1_555 1_555
C5_3 C3_3 1_555 1_555
H1_3 C5_3 1_555 1_555
Cu3_2 N4_3 1_555 1_555
O9_2 C19_3 1_555 1_555
O10_2 C19_3 1_555 1_555
N4_3 C32_3 1_555 1_555
N6_3 Cu3_2 1_555 1_555
C19_3 C20_3 1_555 1_555
C20_3 C29_3 1_555 1_555
H16_3 C28_3 1_555 1_555
C29_3 H17_3 1_555 1_555
C30_3 C20_3 1_555 1_555
H18_3 C30_3 1_555 1_555
C31_3 N6_3 1_555 1_555
H19_3 C31_3 1_555 1_555
C32_3 C29_3 1_555 1_555
H20_3 C32_3 1_555 1_555
C33_3 N4_3 1_555 1_555
H21_3 C33_3 1_555 1_555
C35_3 N6_3 1_555 1_555
H23_3 C35_3 1_555 1_555
Dy3 O9_2 1_555 1_555
O10_2 Dy3 1_555 1_555
C28_3 C35_3 1_555 1_555
C30_3 C33_3 1_555 1_555
Cu3 N1_3 1_555 1_555
N3_3 Cu3 1_555 1_555
H4_3 C10_3 1_555 1_555
C13_3 N3_3 1_555 1_555
C15_3 N1_3 1_555 1_555
H9_3 C15_3 1_555 1_555
C17_3 N3_3 1_555 1_555
H11_3 C17_3 1_555 1_555
O14 C22_3 1_555 1_555
O8_3 C22_3 1_555 1_555
C21_3 C22_3 1_555 1_555
C23_3 C21_3 1_555 1_555
H13_3 C23_3 1_555 1_555
C10_3 C17_3 1_555 1_555
O3_2 C1_3 1_555 1_555
O4_2 C1_3 1_555 1_555
C1_3 C2_3 1_555 1_555
C2_3 C11_3 1_555 1_555
C11_3 H5_3 1_555 1_555
C12_3 C2_3 1_555 1_555
C14_3 C11_3 1_555 1_555
H8_3 C14_3 1_555 1_555
Dy3 O3_2 1_555 1_555
O4_2 Dy3 1_555 1_555
O16_2 C19_4 1_555 1_555
O18_2 C19_4 1_555 1_555
C19_4 C20_4 1_555 1_555
C20_4 C29_4 1_555 1_555
C29_4 H17_4 1_555 1_555
C30_4 C20_4 1_555 1_555
C32_4 C29_4 1_555 1_555
H20_4 C32_4 1_555 1_555
Dy3 O5_4 1_555 1_555
Cu3_3 N1_4 1_555 1_555
O13_2 C4_4 1_555 1_555
O2_4 C4_4 1_555 1_555
O15_2 C1_4 1_555 1_555
O17_2 C1_4 1_555 1_555
O5_4 C9_4 1_555 1_555
O6_4 C9_4 1_555 1_555
N1_4 C14_4 1_555 1_555
N2_4 Cu3_3 1_555 1_555
N3_4 Cu3_3 1_555 1_555
C1_4 C2_4 1_555 1_555
C2_4 C11_4 1_555 1_555
C3_4 C4_4 1_555 1_555
C5_4 C3_4 1_555 1_555
H1_4 C5_4 1_555 1_555
C6_4 H2_4 1_555 1_555
C7_4 N2_4 1_555 1_555
H3_4 C7_4 1_555 1_555
C8_4 C6_4 1_555 1_555
C9_4 C8_4 1_555 1_555
C10_4 C3_4 1_555 1_555
H4_4 C10_4 1_555 1_555
C11_4 H5_4 1_555 1_555
C12_4 C2_4 1_555 1_555
H6_4 C12_4 1_555 1_555
C13_4 N3_4 1_555 1_555
H7_4 C13_4 1_555 1_555
C14_4 C11_4 1_555 1_555
H8_4 C14_4 1_555 1_555
C15_4 N1_4 1_555 1_555
H9_4 C15_4 1_555 1_555
C16_4 N2_4 1_555 1_555
H10_4 C16_4 1_555 1_555
C17_4 N3_4 1_555 1_555
H11_4 C17_4 1_555 1_555
C18_4 C8_4 1_555 1_555
H12_4 C18_4 1_555 1_555
Cu3_4 N4_4 1_555 1_555
O14_2 C22_4 1_555 1_555
O8_4 C22_4 1_555 1_555
O11_4 Dy3 1_555 1_555
O12_4 C27_4 1_555 1_555
N5_4 Cu3_4 1_555 1_555
N6_4 Cu3_4 1_555 1_555
C21_4 C22_4 1_555 1_555
C23_4 C21_4 1_555 1_555
H13_4 C23_4 1_555 1_555
C24_4 H14_4 1_555 1_555
C25_4 N5_4 1_555 1_555
H15_4 C25_4 1_555 1_555
C26_4 C24_4 1_555 1_555
C27_4 O11_4 1_555 1_555
C28_4 C21_4 1_555 1_555
H16_4 C28_4 1_555 1_555
C31_4 N6_4 1_555 1_555
C33_4 N4_4 1_555 1_555
H21_4 C33_4 1_555 1_555
C34_4 N5_4 1_555 1_555
H22_4 C34_4 1_555 1_555
C35_4 N6_4 1_555 1_555
H23_4 C35_4 1_555 1_555
C36_4 C26_4 1_555 1_555
H24_4 C36_4 1_555 1_555
C5_4 C13_4 1_555 1_555
C6_4 C7_4 1_555 1_555
C10_4 C17_4 1_555 1_555
C12_4 C15_4 1_555 1_555
C16_4 C18_4 1_555 1_555
C23_4 C31_4 1_555 1_555
C24_4 C25_4 1_555 1_555
C26_4 C27_4 1_555 1_555
C28_4 C35_4 1_555 1_555
C34_4 C36_4 1_555 1_555
N7 H25 1_555 1_555
H26 N7 1_555 1_555
C37 N7 1_555 1_555
H27 C37 1_555 1_555
H28 C37 1_555 1_555
H29 C37 1_555 1_555
C38 N7 1_555 1_555
H30 C38 1_555 1_555
H31 C38 1_555 1_555
H32 C38 1_555 1_555
N7_2 H25_2 1_555 1_555
H26_2 N7_2 1_555 1_555
C37_2 N7_2 1_555 1_555
H27_2 C37_2 1_555 1_555
H28_2 C37_2 1_555 1_555
H29_2 C37_2 1_555 1_555
C38_2 N7_2 1_555 1_555
H30_2 C38_2 1_555 1_555
H31_2 C38_2 1_555 1_555
H32_2 C38_2 1_555 1_555
N7_3 H25_3 1_555 1_555
H26_3 N7_3 1_555 1_555
C37_3 N7_3 1_555 1_555
H27_3 C37_3 1_555 1_555
H28_3 C37_3 1_555 1_555
H29_3 C37_3 1_555 1_555
C38_3 N7_3 1_555 1_555
H30_3 C38_3 1_555 1_555
H31_3 C38_3 1_555 1_555
H32_3 C38_3 1_555 1_555
N7_4 H25_4 1_555 1_555
H26_4 N7_4 1_555 1_555
C37_4 N7_4 1_555 1_555
H27_4 C37_4 1_555 1_555
H28_4 C37_4 1_555 1_555
H29_4 C37_4 1_555 1_555
C38_4 N7_4 1_555 1_555
H30_4 C38_4 1_555 1_555
H31_4 C38_4 1_555 1_555
H32_4 C38_4 1_555 1_555
N7_5 H25_5 1_555 1_555
H26_5 N7_5 1_555 1_555
C37_5 N7_5 1_555 1_555
H27_5 C37_5 1_555 1_555
H28_5 C37_5 1_555 1_555
H29_5 C37_5 1_555 1_555
C38_5 N7_5 1_555 1_555
H30_5 C38_5 1_555 1_555
H31_5 C38_5 1_555 1_555
H32_5 C38_5 1_555 1_555
N7_6 H25_6 1_555 1_555
H26_6 N7_6 1_555 1_555
C37_6 N7_6 1_555 1_555
H27_6 C37_6 1_555 1_555
H28_6 C37_6 1_555 1_555
H29_6 C37_6 1_555 1_555
C38_6 N7_6 1_555 1_555
H30_6 C38_6 1_555 1_555
H31_6 C38_6 1_555 1_555
H32_6 C38_6 1_555 1_555
N7_7 H25_7 1_555 1_555
H26_7 N7_7 1_555 1_555
C37_7 N7_7 1_555 1_555
H27_7 C37_7 1_555 1_555
H28_7 C37_7 1_555 1_555
H29_7 C37_7 1_555 1_555
C38_7 N7_7 1_555 1_555
H30_7 C38_7 1_555 1_555
H31_7 C38_7 1_555 1_555
H32_7 C38_7 1_555 1_555
N7_8 H25_8 1_555 1_555
H26_8 N7_8 1_555 1_555
C37_8 N7_8 1_555 1_555
H27_8 C37_8 1_555 1_555
H28_8 C37_8 1_555 1_555
H29_8 C37_8 1_555 1_555
C38_8 N7_8 1_555 1_555
H30_8 C38_8 1_555 1_555
H31_8 C38_8 1_555 1_555
H32_8 C38_8 1_555 1_555

#END
