
###############################################################################
#
# This file contains modified crystal structure data generated from the
# MOF subset of the Cambridge Structural Database (CSD) v543 
# hosted by the Cambridge Crystallographic Data Centre (CCDC).
#
# This work is licensed under the Creative Commons
# Attribution-NonCommercial-ShareAlike 4.0 International License.
# To view a copy of this license, visit
# http://creativecommons.org/licenses/by-nc-sa/4.0/
# or send a letter to
# Creative Commons, PO Box 1866, Mountain View, CA 94042, USA.
#
# CIF created using the CSD Python API on 29 September 2022
# The structure has been converted into the P1 space group
# The structure has a 3D framework
# The original CSD entry OFOCUI is in the rhombohedral crystal system
# The framework has been calculated to contain at least 10.0% void space
# The void calculation uses a probe of radius 1.32A, grid spacing 0.4
# H atom positions have been added when not included in the experimental data
#
###############################################################################

data_OFOCUI
_chemical_formula_moiety         '(C576 H360 Cu72 N72 O360)n'
_symmetry_cell_setting           triclinic
_symmetry_space_group_name_H-M   'P 1'
_symmetry_Int_Tables_number      1
_space_group_name_Hall           'P 1'
loop_
_symmetry_equiv_pos_site_id
_symmetry_equiv_pos_as_xyz
1 x,y,z
_cell_length_a                   45.571(6)
_cell_length_b                   45.571(6)
_cell_length_c                   20.270(4)
_cell_angle_alpha                90
_cell_angle_beta                 90
_cell_angle_gamma                120
_cell_volume                     36455.4
loop_
_atom_site_label
_atom_site_type_symbol
_atom_site_fract_x
_atom_site_fract_y
_atom_site_fract_z
Cu1 Cu 0.43176(3) 0.06966(3) 0.32792(6)
Cu2 Cu 0.39694(3) 0.10103(3) 0.30228(6)
Cu4 Cu 0.46675(3) 0.24626(3) 0.01250(6)
N1 N 0.5769(2) 0.1767(3) 0.1483(5)
N2 N 0.5785(2) 0.1552(3) 0.1864(5)
O1 O 0.46222(15) 0.10190(19) 0.2612(3)
O2 O 0.43435(16) 0.13045(17) 0.2412(3)
O3 O 0.53161(16) 0.24715(16) 0.0479(4)
O4 O 0.4777(2) 0.22034(14) 0.0684(4)
O5 O 0.69165(16) 0.22437(18) 0.0582(3)
O6 O 0.72051(17) 0.19778(19) 0.0802(3)
O7 O 0.6840(2) 0.12346(17) 0.2771(4)
O8 O 0.62679(19) 0.09137(19) 0.2953(4)
O9 O 0.40248(16) 0.03749(16) 0.2572(3)
O10 O 0.37469(15) 0.06526(16) 0.2327(3)
O11 O 0.29157(15) 0.0186(2) 0.0589(3)
O17 O 0.4632(2) 0.0466(2) 0.3412(4)
O18 O 0.3631(2) 0.1209(3) 0.2816(4)
O19 O 0.41310(14) 0.22404(18) 0.0318(4)
C1 C 0.4587(3) 0.1240(3) 0.2329(5)
C2 C 0.4867(2) 0.1503(2) 0.1908(5)
C3 C 0.4851(3) 0.1749(3) 0.1562(5)
H1 H 0.4653 0.1758 0.1590
C4 C 0.5101(2) 0.1979(3) 0.1181(5)
C5 C 0.5077(3) 0.2249(3) 0.0809(5)
C6 C 0.5408(2) 0.1982(3) 0.1185(5)
H2 H 0.5592 0.2142 0.0942
C7 C 0.5431(2) 0.1743(3) 0.1558(6)
C8 C 0.5165(3) 0.1503(3) 0.1977(6)
H3 H 0.5192 0.1360 0.2268
C9 C 0.6098(3) 0.1581(3) 0.1750(5)
C10 C 0.6371(3) 0.1802(3) 0.1367(5)
H4 H 0.6333 0.1942 0.1088
C11 C 0.6713(4) 0.1845(4) 0.1343(6)
C12 C 0.6967(3) 0.2017(3) 0.0857(6)
C13 C 0.6732(2) 0.1590(2) 0.1750(5)
H5 H 0.6921 0.1564 0.1706
C14 C 0.6474(3) 0.1376(3) 0.2216(5)
C15 C 0.6496(4) 0.1126(3) 0.2677(6)
C16 C 0.6163(3) 0.1383(3) 0.2249(6)
H6 H 0.6004 0.1264 0.2577
C17 C 0.3820(3) 0.0404(3) 0.2240(5)
C18 C 0.3592(3) 0.0122(3) 0.1811(5)
C19 C 0.3362(3) 0.0174(2) 0.1416(5)
H7 H 0.3352 0.0373 0.1439
Cu5 Cu 0.69543(4) 0.09843(3) 0.33875(6)
Cu7 Cu 0.62924(4) 0.06361(3) 0.36439(6)
Cu12 Cu 0.75374(3) 0.22049(4) 0.01250(6)
O21 O 0.53272(24) 0.30835(16) 0.0582(3)
O22 O 0.47727(25) 0.27949(17) 0.0802(3)
O23 O 0.45679(17) 0.10613(26) 0.3896(4)
O24 O 0.42470(19) 0.13125(27) 0.3714(4)
O25 O 0.39370(25) 0.04176(15) 0.3922(3)
O26 O 0.36839(19) 0.06798(14) 0.3561(4)
H13 H 0.409539 0.226646 0.0792819
H14 H 0.403823 0.235683 0.00471128
H17 H 0.486099 0.0640567 0.356356
H18 H 0.452706 0.0282968 0.374679
H19 H 0.356856 0.117655 0.234145
H20 H 0.342302 0.108647 0.308855
Cu3 Cu 0.53333(3) 0.27780(3) 0.98818(6)
O20 O 0.58580(18) 0.3031(2) 0.9680(4)
Cu6 Cu 0.26367(3) 0.02877(4) 0.99459(6)
Cu9 Cu 0.72220(3) 0.25553(4) 0.98818(6)
O27 O 0.47168(21) 0.28156(16) 0.9444(3)
O28 O 0.52800(22) 0.30511(16) 0.9226(3)
O29 O 0.5199(2) 0.24117(25) 0.9310(4)
O30 O 0.46248(15) 0.21468(21) 0.9444(3)
H15 H 0.592067 0.286696 0.950062
H16 H 0.591382 0.321306 0.935127
N3 N 0.3371(3) 0.9245(2) 0.1367(5)
N4 N 0.3552(2) 0.9200(2) 0.1754(5)
O12 O 0.26535(14) 0.96707(13) 0.0228(4)
O13 O 0.28156(16) 0.80988(14) 0.0556(3)
O14 O 0.30511(16) 0.77711(15) 0.0774(3)
O15 O 0.38790(15) 0.8134(2) 0.2643(4)
O16 O 0.41886(14) 0.87085(15) 0.2777(3)
C20 C 0.3160(3) 0.9919(2) 0.1009(5)
C21 C 0.2849(3) 0.9865(3) 0.0594(6)
C22 C 0.3140(3) 0.9613(3) 0.1038(5)
H8 H 0.2982 0.9432 0.0788
C23 C 0.3361(3) 0.9580(3) 0.1448(6)
C24 C 0.3595(3) 0.9836(3) 0.1791(6)
H9 H 0.3761 0.9814 0.2016
C25 C 0.3552(3) 0.8903(3) 0.1645(7)
C26 C 0.3303(3) 0.8628(3) 0.1274(6)
H10 H 0.3147 0.8662 0.1041
C27 C 0.3276(3) 0.8316(2) 0.1233(4)
C28 C 0.3021(2) 0.8031(3) 0.0783(6)
C29 C 0.3491(2) 0.8266(2) 0.1624(5)
H11 H 0.3477 0.8055 0.1620
C30 C 0.3753(3) 0.8544(2) 0.2067(5)
C31 C 0.3975(3) 0.8442(4) 0.2482(6)
C32 C 0.3757(3) 0.8834(3) 0.2028(5)
H12 H 0.3916 0.9010 0.2288
Cu10 Cu 0.27780(3) 0.74447(4) 0.01182(6)
Cu11 Cu 0.41114(4) 0.80000(3) 0.32151(6)
Cu14 Cu 0.44618(4) 0.86658(3) 0.34583(6)
Cu8 Cu 0.23230(3) 0.96258(4) 0.96895(6)
Cu13 Cu 0.24626(3) 0.77951(4) 0.98750(6)
N3_2 N 0.0755(2) 0.4126(4) 0.1367(5)
N4_2 N 0.0800(2) 0.4352(3) 0.1754(5)
O12_2 O 0.03293(13) 0.29828(19) 0.0228(4)
O13_2 O 0.19012(14) 0.47168(21) 0.0556(3)
O14_2 O 0.22289(15) 0.52800(22) 0.0774(3)
O15_2 O 0.1866(2) 0.57450(25) 0.2643(4)
O16_2 O 0.12915(15) 0.54801(21) 0.2777(3)
C20_2 C 0.0081(2) 0.3241(4) 0.1009(5)
C21_2 C 0.0135(3) 0.2984(4) 0.0594(6)
C22_2 C 0.0387(3) 0.3527(4) 0.1038(5)
H8_2 H 0.0568 0.3550 0.0788
C23_2 C 0.0420(3) 0.3781(4) 0.1448(6)
C24_2 C 0.0164(3) 0.3759(4) 0.1791(6)
H9_2 H 0.0186 0.3947 0.2016
C25_2 C 0.1097(3) 0.4649(4) 0.1645(7)
C26_2 C 0.1372(3) 0.4675(4) 0.1274(6)
H10_2 H 0.1338 0.4485 0.1041
C27_2 C 0.1684(2) 0.4960(4) 0.1233(4)
C28_2 C 0.1969(3) 0.4990(4) 0.0783(6)
C29_2 C 0.1734(2) 0.5225(3) 0.1624(5)
H11_2 H 0.1945 0.5422 0.1620
C30_2 C 0.1456(2) 0.5209(4) 0.2067(5)
C31_2 C 0.1558(4) 0.5533(5) 0.2482(6)
C32_2 C 0.1166(3) 0.4923(4) 0.2028(5)
H12_2 H 0.0990 0.4906 0.2288
Cu10_2 Cu 0.25553(4) 0.53333(5) 0.01182(6)
Cu11_2 Cu 0.20000(3) 0.61113(5) 0.32151(6)
Cu14_2 Cu 0.13342(3) 0.57959(5) 0.34583(6)
Cu8_2 Cu 0.03742(4) 0.26973(5) 0.96895(6)
Cu13_2 Cu 0.22049(4) 0.46675(5) 0.98750(6)
Cu1_2 Cu 0.93034(3) 0.36210(4) 0.32792(6)
Cu2_2 Cu 0.89897(3) 0.29591(4) 0.30228(6)
N1_2 N 0.8233(3) 0.4002(4) 0.1483(5)
N2_2 N 0.8448(3) 0.4233(4) 0.1864(5)
O1_2 O 0.89810(19) 0.36032(24) 0.2612(3)
O2_2 O 0.86955(17) 0.30390(23) 0.2412(3)
O3_2 O 0.75285(16) 0.28446(23) 0.0479(4)
O4_2 O 0.77966(14) 0.25736(24) 0.0684(4)
O5_2 O 0.77563(18) 0.46728(24) 0.0582(3)
O6_2 O 0.80222(19) 0.52273(25) 0.0802(3)
O7_2 O 0.87654(17) 0.56054(26) 0.2771(4)
O8_2 O 0.90863(19) 0.53542(27) 0.2953(4)
O9_2 O 0.96251(16) 0.36499(23) 0.2572(3)
O10_2 O 0.93474(16) 0.30943(22) 0.2327(3)
O11_2 O 0.9814(2) 0.27297(25) 0.0589(3)
O17_2 O 0.9534(2) 0.4166(3) 0.3412(4)
O18_2 O 0.8791(3) 0.2422(4) 0.2816(4)
O19_2 O 0.77596(18) 0.18906(23) 0.0318(4)
C1_2 C 0.8760(3) 0.3347(4) 0.2329(5)
C2_2 C 0.8497(2) 0.3364(3) 0.1908(5)
C3_2 C 0.8251(3) 0.3102(4) 0.1562(5)
H1_2 H 0.8242 0.2895 0.1590
C4_2 C 0.8021(3) 0.3122(4) 0.1181(5)
C5_2 C 0.7751(3) 0.2828(4) 0.0809(5)
C6_2 C 0.8018(3) 0.3426(4) 0.1185(5)
H2_2 H 0.7858 0.3450 0.0942
C7_2 C 0.8257(3) 0.3688(4) 0.1558(6)
C8_2 C 0.8497(3) 0.3662(4) 0.1977(6)
H3_2 H 0.8640 0.3832 0.2268
C9_2 C 0.8419(3) 0.4517(4) 0.1750(5)
C10_2 C 0.8198(3) 0.4569(4) 0.1367(5)
H4_2 H 0.8058 0.4391 0.1088
C11_2 C 0.8155(4) 0.4868(6) 0.1343(6)
C12_2 C 0.7983(3) 0.4950(4) 0.0857(6)
C13_2 C 0.8410(2) 0.5142(3) 0.1750(5)
H5_2 H 0.8436 0.5357 0.1706
C14_2 C 0.8624(3) 0.5098(4) 0.2216(5)
C15_2 C 0.8874(3) 0.5370(5) 0.2677(6)
C16_2 C 0.8617(3) 0.4780(4) 0.2249(6)
H6_2 H 0.8736 0.4740 0.2577
C17_2 C 0.9596(3) 0.3416(4) 0.2240(5)
C18_2 C 0.9878(3) 0.3470(4) 0.1811(5)
C19_2 C 0.9826(2) 0.3188(4) 0.1416(5)
H7_2 H 0.9627 0.2979 0.1439
Cu5_2 Cu 0.90157(3) 0.59701(5) 0.33875(6)
Cu7_2 Cu 0.93639(3) 0.56564(5) 0.36439(6)
Cu12_2 Cu 0.77951(4) 0.53325(5) 0.01250(6)
O23_2 O 0.89387(26) 0.35067(31) 0.3896(4)
O24_2 O 0.86875(27) 0.29346(33) 0.3714(4)
O25_2 O 0.95824(15) 0.35193(29) 0.3922(3)
O26_2 O 0.93202(14) 0.30040(24) 0.3561(4)
H13_2 H 0.773354 0.182892 0.0792819
H14_2 H 0.764317 0.16814 0.00471128
H17_2 H 0.935943 0.422043 0.356356
H18_2 H 0.971703 0.424409 0.374679
H19_2 H 0.882345 0.239201 0.234145
H20_2 H 0.891353 0.233655 0.308855
O20_2 O 0.6969(2) 0.28270(27) 0.9680(4)
Cu6_2 Cu 0.97123(4) 0.23491(5) 0.99459(6)
Cu9_2 Cu 0.74447(4) 0.46667(5) 0.98818(6)
O27_2 O 0.71844(16) 0.19012(26) 0.9444(3)
O28_2 O 0.69489(16) 0.22289(27) 0.9226(3)
O29_2 O 0.75883(25) 0.27877(32) 0.9310(4)
O30_2 O 0.78532(21) 0.24781(26) 0.9444(3)
H15_2 H 0.713304 0.30537 0.950062
H16_2 H 0.678694 0.270075 0.935127
Cu1_3 Cu 0.63790(4) 0.56824(3) 0.32792(6)
Cu2_3 Cu 0.70409(4) 0.60306(3) 0.30228(6)
N1_3 N 0.5998(4) 0.4231(2) 0.1483(5)
N2_3 N 0.5767(4) 0.4215(2) 0.1864(5)
N3_3 N 0.5874(4) 0.6629(3) 0.1367(5)
N4_3 N 0.5648(3) 0.6448(2) 0.1754(5)
O1_3 O 0.63968(24) 0.53778(15) 0.2612(3)
O2_3 O 0.69610(23) 0.56565(16) 0.2412(3)
O3_3 O 0.71554(23) 0.46839(16) 0.0479(4)
O4_3 O 0.74264(24) 0.5223(2) 0.0684(4)
O7_3 O 0.43946(26) 0.3160(2) 0.2771(4)
O8_3 O 0.46458(27) 0.37321(19) 0.2953(4)
O9_3 O 0.63501(23) 0.59752(16) 0.2572(3)
O10_3 O 0.69057(22) 0.62531(15) 0.2327(3)
O11_3 O 0.72703(25) 0.70843(15) 0.0589(3)
O12_3 O 0.70172(19) 0.73465(14) 0.0228(4)
O13_3 O 0.52832(21) 0.71844(16) 0.0556(3)
O14_3 O 0.47200(22) 0.69489(16) 0.0774(3)
O15_3 O 0.42550(25) 0.61210(15) 0.2643(4)
O16_3 O 0.45199(21) 0.58114(14) 0.2777(3)
O17_3 O 0.5834(3) 0.5368(2) 0.3412(4)
O18_3 O 0.7578(4) 0.6369(2) 0.2816(4)
O19_3 O 0.81094(23) 0.58690(14) 0.0318(4)
C1_3 C 0.6653(4) 0.5413(3) 0.2329(5)
C2_3 C 0.6636(3) 0.5133(2) 0.1908(5)
C3_3 C 0.6898(4) 0.5149(3) 0.1562(5)
H1_3 H 0.7105 0.5347 0.1590
C4_3 C 0.6878(4) 0.4899(2) 0.1181(5)
C5_3 C 0.7172(4) 0.4923(3) 0.0809(5)
C6_3 C 0.6574(4) 0.4592(2) 0.1185(5)
H2_3 H 0.6550 0.4408 0.0942
C7_3 C 0.6312(4) 0.4569(2) 0.1558(6)
C8_3 C 0.6338(4) 0.4835(3) 0.1977(6)
H3_3 H 0.6168 0.4808 0.2268
C9_3 C 0.5483(4) 0.3902(3) 0.1750(5)
C10_3 C 0.5431(4) 0.3629(3) 0.1367(5)
H4_3 H 0.5609 0.3667 0.1088
C11_3 C 0.5132(6) 0.3287(4) 0.1343(6)
C12_3 C 0.5050(4) 0.3033(3) 0.0857(6)
C13_3 C 0.4858(3) 0.3268(2) 0.1750(5)
H5_3 H 0.4643 0.3079 0.1706
C14_3 C 0.4902(4) 0.3526(3) 0.2216(5)
C15_3 C 0.4630(5) 0.3504(4) 0.2677(6)
C16_3 C 0.5220(4) 0.3837(3) 0.2249(6)
H6_3 H 0.5260 0.3996 0.2577
C17_3 C 0.6584(4) 0.6180(3) 0.2240(5)
C18_3 C 0.6530(4) 0.6408(3) 0.1811(5)
C19_3 C 0.6812(4) 0.6638(3) 0.1416(5)
H7_3 H 0.7021 0.6648 0.1439
C20_3 C 0.6759(4) 0.6840(3) 0.1009(5)
C21_3 C 0.7016(4) 0.7151(3) 0.0594(6)
C22_3 C 0.6473(4) 0.6860(3) 0.1038(5)
H8_3 H 0.6450 0.7018 0.0788
C23_3 C 0.6219(4) 0.6639(3) 0.1448(6)
C24_3 C 0.6241(4) 0.6405(3) 0.1791(6)
H9_3 H 0.6053 0.6239 0.2016
C25_3 C 0.5351(4) 0.6448(3) 0.1645(7)
C26_3 C 0.5325(4) 0.6697(3) 0.1274(6)
H10_3 H 0.5515 0.6853 0.1041
C27_3 C 0.5040(4) 0.6724(3) 0.1233(4)
C28_3 C 0.5010(4) 0.6979(2) 0.0783(6)
C29_3 C 0.4775(3) 0.6509(2) 0.1624(5)
H11_3 H 0.4578 0.6523 0.1620
C30_3 C 0.4791(4) 0.6247(3) 0.2067(5)
C31_3 C 0.4467(5) 0.6025(3) 0.2482(6)
C32_3 C 0.5077(4) 0.6243(3) 0.2028(5)
H12_3 H 0.5094 0.6084 0.2288
Cu5_3 Cu 0.40299(5) 0.30457(4) 0.33875(6)
Cu7_3 Cu 0.43436(5) 0.37076(4) 0.36439(6)
Cu10_3 Cu 0.46667(5) 0.72220(3) 0.01182(6)
Cu11_3 Cu 0.38887(5) 0.58886(4) 0.32151(6)
Cu14_3 Cu 0.42041(5) 0.55382(4) 0.34583(6)
O23_3 O 0.64933(31) 0.54321(17) 0.3896(4)
O24_3 O 0.70654(33) 0.57530(19) 0.3714(4)
O25_3 O 0.64807(29) 0.60630(25) 0.3922(3)
O26_3 O 0.69960(24) 0.63161(19) 0.3561(4)
H13_3 H 0.817108 0.590461 0.0792819
H14_3 H 0.83186 0.596177 0.00471128
H17_3 H 0.577957 0.513901 0.356356
H18_3 H 0.575591 0.547294 0.374679
H19_3 H 0.760799 0.643144 0.234145
H20_3 H 0.766345 0.657698 0.308855
O20_3 O 0.71730(27) 0.41420(18) 0.9680(4)
Cu6_3 Cu 0.76509(5) 0.73633(3) 0.99459(6)
Cu8_3 Cu 0.73027(5) 0.76770(3) 0.96895(6)
Cu13_3 Cu 0.53325(5) 0.75374(3) 0.98750(6)
O27_3 O 0.80988(26) 0.52832(21) 0.9444(3)
O28_3 O 0.77711(27) 0.47200(22) 0.9226(3)
O29_3 O 0.72123(32) 0.4801(2) 0.9310(4)
O30_3 O 0.75219(26) 0.53752(15) 0.9444(3)
H15_3 H 0.69463 0.407933 0.950062
H16_3 H 0.729925 0.408618 0.935127
Cu1_4 Cu 0.09843(3) 0.40299(3) 0.66125(6)
Cu2_4 Cu 0.06361(3) 0.43436(3) 0.63561(6)
N1_4 N 0.2436(2) 0.5100(3) 0.4816(5)
N2_4 N 0.2452(2) 0.4885(3) 0.5197(5)
N3_4 N 0.0038(3) 0.2578(2) 0.4700(5)
N4_4 N 0.0219(2) 0.2533(2) 0.5087(5)
O1_4 O 0.12889(15) 0.43523(19) 0.5945(3)
O2_4 O 0.10102(16) 0.46378(17) 0.5745(3)
O3_4 O 0.19828(16) 0.58048(16) 0.3812(4)
O4_4 O 0.1444(2) 0.55367(14) 0.4017(4)
O5_3 O 0.35832(16) 0.55770(18) 0.3915(3)
O6_3 O 0.38718(17) 0.53111(19) 0.4135(3)
O7_4 O 0.3507(2) 0.45679(17) 0.6104(4)
O8_4 O 0.29346(19) 0.42470(19) 0.6286(4)
O9_4 O 0.06915(16) 0.37082(16) 0.5905(3)
O10_4 O 0.04136(15) 0.39859(16) 0.5660(3)
O15_4 O 0.05457(15) 0.1467(2) 0.5976(4)
O16_4 O 0.08553(14) 0.20418(15) 0.6110(3)
O17_4 O 0.1299(2) 0.3799(2) 0.6745(4)
O18_4 O 0.0298(2) 0.4542(3) 0.6149(4)
O19_4 O 0.07977(14) 0.55737(18) 0.3651(4)
O20_4 O 0.25247(18) 0.6364(2) 0.3013(4)
C1_4 C 0.1254(3) 0.4573(3) 0.5662(5)
C2_4 C 0.1534(2) 0.4836(2) 0.5241(5)
C3_4 C 0.1518(3) 0.5082(3) 0.4895(5)
H1_4 H 0.1320 0.5091 0.4923
C4_4 C 0.1768(2) 0.5312(3) 0.4514(5)
C5_4 C 0.1744(3) 0.5582(3) 0.4142(5)
C6_4 C 0.2075(2) 0.5315(3) 0.4518(5)
H2_4 H 0.2259 0.5475 0.4275
C7_4 C 0.2098(2) 0.5076(3) 0.4891(6)
C8_4 C 0.1832(3) 0.4836(3) 0.5310(6)
H3_4 H 0.1859 0.4693 0.5601
C9_4 C 0.2765(3) 0.4914(3) 0.5083(5)
C10_4 C 0.3038(3) 0.5135(3) 0.4700(5)
H4_4 H 0.3000 0.5275 0.4421
C11_4 C 0.3380(4) 0.5178(4) 0.4676(6)
C12_4 C 0.3634(3) 0.5350(3) 0.4190(6)
C13_4 C 0.3399(2) 0.4923(2) 0.5083(5)
H5_4 H 0.3588 0.4897 0.5039
C14_4 C 0.3141(3) 0.4709(3) 0.5549(5)
C15_4 C 0.3163(4) 0.4459(3) 0.6010(6)
C16_4 C 0.2830(3) 0.4716(3) 0.5582(6)
H6_4 H 0.2671 0.4597 0.5910
C17_4 C 0.0487(3) 0.3737(3) 0.5573(5)
C18_4 C 0.0259(3) 0.3455(3) 0.5144(5)
C19_4 C 0.0029(3) 0.3507(2) 0.4749(5)
H7_4 H 0.0019 0.3706 0.4772
C23_4 C 0.0028(3) 0.2913(3) 0.4781(6)
C24_4 C 0.0262(3) 0.3169(3) 0.5124(6)
H9_4 H 0.0428 0.3147 0.5349
C25_4 C 0.0219(3) 0.2236(3) 0.4978(7)
C29_4 C 0.0158(2) 0.1599(2) 0.4957(5)
H11_4 H 0.0144 0.1388 0.4953
C30_4 C 0.0420(3) 0.1877(2) 0.5400(5)
C31_4 C 0.0642(3) 0.1775(4) 0.5815(6)
C32_4 C 0.0424(3) 0.2167(3) 0.5361(5)
H12_4 H 0.0583 0.2343 0.5621
Cu5_4 Cu 0.36210(4) 0.43176(3) 0.67208(6)
Cu7_4 Cu 0.29591(4) 0.39694(3) 0.69772(6)
Cu11_4 Cu 0.07780(4) 0.13334(3) 0.65485(6)
Cu14_4 Cu 0.11284(4) 0.19992(3) 0.67917(6)
O21_2 O 0.19939(24) 0.64168(16) 0.3915(3)
O22_2 O 0.14394(25) 0.61282(17) 0.4135(3)
O23_4 O 0.12346(17) 0.43946(26) 0.7229(4)
O24_4 O 0.09137(19) 0.46458(27) 0.7047(4)
O25_4 O 0.06036(25) 0.37510(15) 0.7256(3)
O26_4 O 0.03505(19) 0.40132(14) 0.6895(4)
O27_4 O 0.13835(21) 0.61489(16) 0.2777(3)
O28_4 O 0.19467(22) 0.63844(16) 0.2559(3)
H13_4 H 0.0762053 0.55998 0.412615
H14_4 H 0.0704899 0.569016 0.338045
H15_4 H 0.258733 0.62003 0.283395
H16_4 H 0.258049 0.65464 0.26846
H17_4 H 0.152766 0.39739 0.689689
H18_4 H 0.119373 0.36163 0.708012
H19_4 H 0.0235226 0.450988 0.567478
H20_4 H 0.00896904 0.44198 0.642188
O13_4 O 0.94823(16) 0.14321(14) 0.3889(3)
O14_4 O 0.97178(16) 0.11044(15) 0.4107(3)
C20_4 C 0.9827(3) 0.3252(2) 0.4342(5)
C21_4 C 0.9516(3) 0.3198(3) 0.3927(6)
C22_4 C 0.9807(3) 0.2946(3) 0.4371(5)
H8_4 H 0.9649 0.2765 0.4121
C26_4 C 0.9970(3) 0.1961(3) 0.4607(6)
H10_4 H 0.9814 0.1995 0.4374
C27_4 C 0.9943(3) 0.1649(2) 0.4566(4)
C28_4 C 0.9688(2) 0.1364(3) 0.4116(6)
Cu10_4 Cu 0.94447(3) 0.07780(4) 0.34515(6)
Cu13_4 Cu 0.91293(3) 0.11284(4) 0.32083(6)
Cu1_5 Cu 0.59701(3) 0.69543(4) 0.66125(6)
Cu2_5 Cu 0.56564(3) 0.62924(4) 0.63561(6)
N1_5 N 0.4900(3) 0.7335(4) 0.4816(5)
N2_5 N 0.5115(3) 0.7566(4) 0.5197(5)
N3_5 N 0.7422(2) 0.7459(4) 0.4700(5)
N4_5 N 0.7467(2) 0.7685(3) 0.5087(5)
O1_5 O 0.56477(19) 0.69365(24) 0.5945(3)
O2_5 O 0.53622(17) 0.63723(23) 0.5745(3)
O3_5 O 0.41952(16) 0.61779(23) 0.3812(4)
O4_5 O 0.44633(14) 0.59069(24) 0.4017(4)
O5_4 O 0.44230(18) 0.80061(24) 0.3915(3)
O6_4 O 0.46889(19) 0.85606(25) 0.4135(3)
O7_5 O 0.54321(17) 0.89387(26) 0.6104(4)
O8_5 O 0.57530(19) 0.86875(27) 0.6286(4)
O9_5 O 0.62918(16) 0.69832(23) 0.5905(3)
O10_5 O 0.60141(16) 0.64276(22) 0.5660(3)
O13_5 O 0.85679(14) 0.80501(21) 0.3889(3)
O14_5 O 0.88956(15) 0.86133(22) 0.4107(3)
O15_5 O 0.8533(2) 0.90783(25) 0.5976(4)
O16_5 O 0.79582(15) 0.88134(21) 0.6110(3)
O17_5 O 0.6201(2) 0.7499(3) 0.6745(4)
O18_5 O 0.5458(3) 0.5755(4) 0.6149(4)
O19_5 O 0.44263(18) 0.52239(23) 0.3651(4)
O20_5 O 0.3636(2) 0.61603(27) 0.3013(4)
C1_5 C 0.5427(3) 0.6680(4) 0.5662(5)
C2_5 C 0.5164(2) 0.6697(3) 0.5241(5)
C3_5 C 0.4918(3) 0.6435(4) 0.4895(5)
H1_5 H 0.4909 0.6228 0.4923
C4_5 C 0.4688(3) 0.6455(4) 0.4514(5)
C5_5 C 0.4418(3) 0.6161(4) 0.4142(5)
C6_5 C 0.4685(3) 0.6759(4) 0.4518(5)
H2_5 H 0.4525 0.6783 0.4275
C7_5 C 0.4924(3) 0.7021(4) 0.4891(6)
C8_5 C 0.5164(3) 0.6995(4) 0.5310(6)
H3_5 H 0.5307 0.7165 0.5601
C9_5 C 0.5086(3) 0.7850(4) 0.5083(5)
C10_5 C 0.4865(3) 0.7902(4) 0.4700(5)
H4_5 H 0.4725 0.7724 0.4421
C11_5 C 0.4822(4) 0.8201(6) 0.4676(6)
C12_5 C 0.4650(3) 0.8283(4) 0.4190(6)
C13_5 C 0.5077(2) 0.8475(3) 0.5083(5)
H5_5 H 0.5103 0.8690 0.5039
C14_5 C 0.5291(3) 0.8431(4) 0.5549(5)
C15_5 C 0.5541(3) 0.8703(5) 0.6010(6)
C16_5 C 0.5284(3) 0.8113(4) 0.5582(6)
H6_5 H 0.5403 0.8073 0.5910
C17_5 C 0.6263(3) 0.6749(4) 0.5573(5)
C18_5 C 0.6545(3) 0.6803(4) 0.5144(5)
C19_5 C 0.6493(2) 0.6521(4) 0.4749(5)
H7_5 H 0.6294 0.6312 0.4772
C20_5 C 0.6748(2) 0.6574(4) 0.4342(5)
C21_5 C 0.6802(3) 0.6317(4) 0.3927(6)
C22_5 C 0.7054(3) 0.6860(4) 0.4371(5)
H8_5 H 0.7235 0.6883 0.4121
C23_5 C 0.7087(3) 0.7114(4) 0.4781(6)
C24_5 C 0.6831(3) 0.7092(4) 0.5124(6)
H9_5 H 0.6853 0.7280 0.5349
C25_5 C 0.7764(3) 0.7982(4) 0.4978(7)
C26_5 C 0.8039(3) 0.8008(4) 0.4607(6)
H10_5 H 0.8005 0.7818 0.4374
C27_5 C 0.8351(2) 0.8293(4) 0.4566(4)
C28_5 C 0.8636(3) 0.8323(4) 0.4116(6)
C29_5 C 0.8401(2) 0.8558(3) 0.4957(5)
H11_5 H 0.8612 0.8755 0.4953
C30_5 C 0.8123(2) 0.8542(4) 0.5400(5)
C31_5 C 0.8225(4) 0.8866(5) 0.5815(6)
C32_5 C 0.7833(3) 0.8256(4) 0.5361(5)
H12_5 H 0.7657 0.8239 0.5621
Cu5_5 Cu 0.56824(3) 0.93034(5) 0.67208(6)
Cu7_5 Cu 0.60306(3) 0.89897(5) 0.69772(6)
Cu10_5 Cu 0.92220(4) 0.86666(5) 0.34515(6)
Cu11_5 Cu 0.86666(3) 0.94447(5) 0.65485(6)
Cu13_5 Cu 0.88716(4) 0.80008(5) 0.32083(6)
Cu14_5 Cu 0.80008(3) 0.91293(5) 0.67917(6)
O23_5 O 0.56054(26) 0.68400(31) 0.7229(4)
O24_5 O 0.53542(27) 0.62679(33) 0.7047(4)
O25_5 O 0.62490(15) 0.68527(29) 0.7256(3)
O26_5 O 0.59868(14) 0.63374(24) 0.6895(4)
O27_5 O 0.38511(16) 0.52345(26) 0.2777(3)
O28_5 O 0.36156(16) 0.55622(27) 0.2559(3)
H13_5 H 0.44002 0.516226 0.412615
H14_5 H 0.430984 0.501473 0.338045
H15_5 H 0.37997 0.638704 0.283395
H16_5 H 0.34536 0.603409 0.26846
H17_5 H 0.60261 0.755376 0.689689
H18_5 H 0.63837 0.757743 0.708012
H19_5 H 0.549012 0.572534 0.567478
H20_5 H 0.55802 0.566989 0.642188
O13_6 O 0.19499(21) 0.05177(16) 0.3889(3)
O14_6 O 0.13867(22) 0.02822(16) 0.4107(3)
C20_6 C 0.3426(4) 0.0173(3) 0.4342(5)
C21_6 C 0.3683(4) 0.0484(3) 0.3927(6)
C22_6 C 0.3140(4) 0.0193(3) 0.4371(5)
H8_6 H 0.3117 0.0351 0.4121
C26_6 C 0.1992(4) 0.0030(3) 0.4607(6)
H10_6 H 0.2182 0.0186 0.4374
C27_6 C 0.1707(4) 0.0057(3) 0.4566(4)
C28_6 C 0.1677(4) 0.0312(2) 0.4116(6)
Cu10_6 Cu 0.13334(5) 0.05553(3) 0.34515(6)
Cu13_6 Cu 0.19992(5) 0.08707(3) 0.32083(6)
Cu1_6 Cu 0.30457(4) 0.90157(3) 0.66125(6)
Cu2_6 Cu 0.37076(4) 0.93639(3) 0.63561(6)
N1_6 N 0.2665(4) 0.7564(2) 0.4816(5)
N2_6 N 0.2434(4) 0.7548(2) 0.5197(5)
N3_6 N 0.2541(4) 0.9962(3) 0.4700(5)
N4_6 N 0.2315(3) 0.9781(2) 0.5087(5)
O1_6 O 0.30635(24) 0.87111(15) 0.5945(3)
O2_6 O 0.36277(23) 0.89898(16) 0.5745(3)
O3_6 O 0.38221(23) 0.80172(16) 0.3812(4)
O4_6 O 0.40931(24) 0.8556(2) 0.4017(4)
O7_6 O 0.10613(26) 0.6493(2) 0.6104(4)
O8_6 O 0.13125(27) 0.70654(19) 0.6286(4)
O9_6 O 0.30168(23) 0.93085(16) 0.5905(3)
O10_6 O 0.35724(22) 0.95864(15) 0.5660(3)
O15_6 O 0.09217(25) 0.94543(15) 0.5976(4)
O16_6 O 0.11866(21) 0.91447(14) 0.6110(3)
O17_6 O 0.2501(3) 0.8701(2) 0.6745(4)
O18_6 O 0.4245(4) 0.9702(2) 0.6149(4)
O19_6 O 0.47761(23) 0.92023(14) 0.3651(4)
O20_6 O 0.38397(27) 0.74753(18) 0.3013(4)
C1_6 C 0.3320(4) 0.8746(3) 0.5662(5)
C2_6 C 0.3303(3) 0.8466(2) 0.5241(5)
C3_6 C 0.3565(4) 0.8482(3) 0.4895(5)
H1_6 H 0.3772 0.8680 0.4923
C4_6 C 0.3545(4) 0.8232(2) 0.4514(5)
C5_6 C 0.3839(4) 0.8256(3) 0.4142(5)
C6_6 C 0.3241(4) 0.7925(2) 0.4518(5)
H2_6 H 0.3217 0.7741 0.4275
C7_6 C 0.2979(4) 0.7902(2) 0.4891(6)
C8_6 C 0.3005(4) 0.8168(3) 0.5310(6)
H3_6 H 0.2835 0.8141 0.5601
C9_6 C 0.2150(4) 0.7235(3) 0.5083(5)
C10_6 C 0.2098(4) 0.6962(3) 0.4700(5)
H4_6 H 0.2276 0.7000 0.4421
C11_6 C 0.1799(6) 0.6620(4) 0.4676(6)
C12_6 C 0.1717(4) 0.6366(3) 0.4190(6)
C13_6 C 0.1525(3) 0.6601(2) 0.5083(5)
H5_6 H 0.1310 0.6412 0.5039
C14_6 C 0.1569(4) 0.6859(3) 0.5549(5)
C15_6 C 0.1297(5) 0.6837(4) 0.6010(6)
C16_6 C 0.1887(4) 0.7170(3) 0.5582(6)
H6_6 H 0.1927 0.7329 0.5910
C17_6 C 0.3251(4) 0.9513(3) 0.5573(5)
C18_6 C 0.3197(4) 0.9741(3) 0.5144(5)
C19_6 C 0.3479(4) 0.9971(3) 0.4749(5)
H7_6 H 0.3688 0.9981 0.4772
C23_6 C 0.2886(4) 0.9972(3) 0.4781(6)
C24_6 C 0.2908(4) 0.9738(3) 0.5124(6)
H9_6 H 0.2720 0.9572 0.5349
C25_6 C 0.2018(4) 0.9781(3) 0.4978(7)
C29_6 C 0.1442(3) 0.9842(2) 0.4957(5)
H11_6 H 0.1245 0.9856 0.4953
C30_6 C 0.1458(4) 0.9580(3) 0.5400(5)
C31_6 C 0.1134(5) 0.9358(3) 0.5815(6)
C32_6 C 0.1744(4) 0.9576(3) 0.5361(5)
H12_6 H 0.1761 0.9417 0.5621
Cu5_6 Cu 0.06966(5) 0.63790(4) 0.67208(6)
Cu7_6 Cu 0.10103(5) 0.70409(4) 0.69772(6)
Cu11_6 Cu 0.05553(5) 0.92220(4) 0.65485(6)
Cu14_6 Cu 0.08707(5) 0.88716(4) 0.67917(6)
O23_6 O 0.31600(31) 0.87654(17) 0.7229(4)
O24_6 O 0.37321(33) 0.90863(19) 0.7047(4)
O25_6 O 0.31473(29) 0.93964(25) 0.7256(3)
O26_6 O 0.36626(24) 0.96495(19) 0.6895(4)
O27_6 O 0.47655(26) 0.86165(21) 0.2777(3)
O28_6 O 0.44378(27) 0.80533(22) 0.2559(3)
H13_6 H 0.483774 0.923795 0.412615
H14_6 H 0.498527 0.92951 0.338045
H15_6 H 0.361296 0.741267 0.283395
H16_6 H 0.396591 0.741951 0.26846
H17_6 H 0.244624 0.847234 0.689689
H18_6 H 0.242257 0.880627 0.708012
H19_6 H 0.427466 0.976477 0.567478
H20_6 H 0.433011 0.991031 0.642188
Cu5_7 Cu 0.02877(4) 0.76509(3) 0.00541(6)
O5_5 O 0.02498(16) 0.89104(18) 0.7249(3)
O6_5 O 0.05384(17) 0.86445(19) 0.7469(3)
O7_7 O 0.0173(2) 0.79013(17) 0.9438(4)
C11_7 C 0.0046(4) 0.8512(4) 0.8010(6)
C12_7 C 0.0300(3) 0.8684(3) 0.7524(6)
C13_7 C 0.0065(2) 0.8257(2) 0.8417(5)
H5_7 H 0.0254 0.8231 0.8373
O17_7 O 0.7965(2) 0.7133(2) 0.0079(4)
Cu7_7 Cu 0.96258(4) 0.73027(3) 0.03105(6)
O23_7 O 0.79013(17) 0.77279(26) 0.0562(4)
O24_7 O 0.75804(19) 0.79791(27) 0.0380(4)
H17_7 H 0.819433 0.730723 0.0230225
H18_7 H 0.786039 0.694963 0.0413455
N1_7 N 0.9102(2) 0.8434(3) 0.8150(5)
N2_7 N 0.9118(2) 0.8219(3) 0.8531(5)
N3_7 N 0.6704(3) 0.5912(2) 0.8034(5)
N4_7 N 0.6885(2) 0.5867(2) 0.8421(5)
O1_7 O 0.79555(15) 0.76857(19) 0.9279(3)
O2_7 O 0.76768(16) 0.79712(17) 0.9079(3)
O3_7 O 0.86494(16) 0.91382(16) 0.7146(4)
O4_7 O 0.8110(2) 0.88701(14) 0.7351(4)
O8_7 O 0.96012(19) 0.75804(19) 0.9620(4)
O9_7 O 0.73581(16) 0.70416(16) 0.9239(3)
O10_7 O 0.70802(15) 0.73193(16) 0.8994(3)
O13_7 O 0.61489(16) 0.47655(14) 0.7223(3)
O14_7 O 0.63844(16) 0.44378(15) 0.7441(3)
O18_7 O 0.6964(2) 0.7876(3) 0.9483(4)
O19_7 O 0.74643(14) 0.89071(18) 0.6985(4)
O20_7 O 0.91913(18) 0.9698(2) 0.6347(4)
C1_7 C 0.7920(3) 0.7907(3) 0.8996(5)
C2_7 C 0.8200(2) 0.8170(2) 0.8575(5)
C3_7 C 0.8184(3) 0.8416(3) 0.8229(5)
H1_7 H 0.7986 0.8425 0.8257
C4_7 C 0.8434(2) 0.8646(3) 0.7848(5)
C5_7 C 0.8410(3) 0.8916(3) 0.7476(5)
C6_7 C 0.8741(2) 0.8649(3) 0.7852(5)
H2_7 H 0.8925 0.8809 0.7609
C7_7 C 0.8764(2) 0.8410(3) 0.8225(6)
C8_7 C 0.8498(3) 0.8170(3) 0.8644(6)
H3_7 H 0.8525 0.8027 0.8935
C9_7 C 0.9431(3) 0.8248(3) 0.8417(5)
C10_7 C 0.9704(3) 0.8469(3) 0.8034(5)
H4_7 H 0.9666 0.8609 0.7755
C14_7 C 0.9807(3) 0.8043(3) 0.8883(5)
C15_7 C 0.9829(4) 0.7793(3) 0.9344(6)
C16_7 C 0.9496(3) 0.8050(3) 0.8916(6)
H6_7 H 0.9337 0.7931 0.9244
C17_7 C 0.7153(3) 0.7071(3) 0.8907(5)
C18_7 C 0.6925(3) 0.6789(3) 0.8478(5)
C19_7 C 0.6695(3) 0.6841(2) 0.8083(5)
H7_7 H 0.6685 0.7040 0.8106
C20_7 C 0.6493(3) 0.6586(2) 0.7676(5)
C21_7 C 0.6182(3) 0.6532(3) 0.7261(6)
C22_7 C 0.6473(3) 0.6280(3) 0.7705(5)
H8_7 H 0.6315 0.6099 0.7455
C23_7 C 0.6694(3) 0.6247(3) 0.8115(6)
C24_7 C 0.6928(3) 0.6503(3) 0.8458(6)
H9_7 H 0.7094 0.6481 0.8683
C25_7 C 0.6885(3) 0.5570(3) 0.8312(7)
C26_7 C 0.6636(3) 0.5295(3) 0.7941(6)
H10_7 H 0.6480 0.5329 0.7708
C27_7 C 0.6609(3) 0.4983(2) 0.7900(4)
C28_7 C 0.6354(2) 0.4698(3) 0.7450(6)
C29_7 C 0.6824(2) 0.4933(2) 0.8291(5)
H11_7 H 0.6810 0.4722 0.8287
C30_7 C 0.7086(3) 0.5211(2) 0.8734(5)
C31_7 C 0.7308(3) 0.5109(4) 0.9149(6)
C32_7 C 0.7090(3) 0.5501(3) 0.8695(5)
H12_7 H 0.7249 0.5677 0.8955
Cu10_7 Cu 0.61113(3) 0.41114(4) 0.67849(6)
Cu13_7 Cu 0.57959(3) 0.44618(4) 0.65417(6)
O21_3 O 0.86605(24) 0.97502(16) 0.7249(3)
O22_3 O 0.81060(25) 0.94616(17) 0.7469(3)
O27_7 O 0.80501(21) 0.94823(16) 0.6111(3)
O28_7 O 0.86133(22) 0.97178(16) 0.5893(3)
H13_7 H 0.742872 0.893313 0.745949
H14_7 H 0.737157 0.90235 0.671378
H15_7 H 0.9254 0.953363 0.616729
H16_7 H 0.924715 0.987973 0.601793
H19_7 H 0.690189 0.784322 0.900811
H20_7 H 0.675636 0.775314 0.975522
O17_8 O 0.2867(2) 0.0833(3) 0.0079(4)
Cu5_8 Cu 0.23491(3) 0.26367(5) 0.00541(6)
Cu7_8 Cu 0.26973(3) 0.23230(5) 0.03105(6)
O23_8 O 0.22721(26) 0.01733(31) 0.0562(4)
H17_8 H 0.269277 0.0887093 0.0230225
H18_8 H 0.305037 0.0910758 0.0413455
N1_8 N 0.1566(3) 0.0669(4) 0.8150(5)
N2_8 N 0.1781(3) 0.0900(4) 0.8531(5)
N3_8 N 0.4088(2) 0.0793(4) 0.8034(5)
N4_8 N 0.4133(2) 0.1019(3) 0.8421(5)
O1_8 O 0.23143(19) 0.02699(24) 0.9279(3)
O5_6 O 0.10896(18) 0.13395(24) 0.7249(3)
O6_6 O 0.13555(19) 0.18940(25) 0.7469(3)
O7_8 O 0.20987(17) 0.22721(26) 0.9438(4)
O8_8 O 0.24196(19) 0.20209(27) 0.9620(4)
O9_8 O 0.29584(16) 0.03166(23) 0.9239(3)
O13_8 O 0.52345(14) 0.13835(21) 0.7223(3)
O14_8 O 0.55622(15) 0.19467(22) 0.7441(3)
C1_8 C 0.2093(3) 0.0014(4) 0.8996(5)
C2_8 C 0.1830(2) 0.0031(3) 0.8575(5)
C6_8 C 0.1351(3) 0.0093(4) 0.7852(5)
H2_8 H 0.1191 0.0117 0.7609
C7_8 C 0.1590(3) 0.0355(4) 0.8225(6)
C8_8 C 0.1830(3) 0.0329(4) 0.8644(6)
H3_8 H 0.1973 0.0499 0.8935
C9_8 C 0.1752(3) 0.1184(4) 0.8417(5)
C10_8 C 0.1531(3) 0.1236(4) 0.8034(5)
H4_8 H 0.1391 0.1058 0.7755
C11_8 C 0.1488(4) 0.1535(6) 0.8010(6)
C12_8 C 0.1316(3) 0.1617(4) 0.7524(6)
C13_8 C 0.1743(2) 0.1809(3) 0.8417(5)
H5_8 H 0.1769 0.2024 0.8373
C14_8 C 0.1957(3) 0.1765(4) 0.8883(5)
C15_8 C 0.2207(3) 0.2037(5) 0.9344(6)
C16_8 C 0.1950(3) 0.1447(4) 0.8916(6)
H6_8 H 0.2069 0.1407 0.9244
C17_8 C 0.2929(3) 0.0083(4) 0.8907(5)
C18_8 C 0.3211(3) 0.0137(4) 0.8478(5)
C22_8 C 0.3720(3) 0.0194(4) 0.7705(5)
H8_8 H 0.3901 0.0217 0.7455
C23_8 C 0.3753(3) 0.0448(4) 0.8115(6)
C24_8 C 0.3497(3) 0.0426(4) 0.8458(6)
H9_8 H 0.3519 0.0614 0.8683
C25_8 C 0.4430(3) 0.1316(4) 0.8312(7)
C26_8 C 0.4705(3) 0.1342(4) 0.7941(6)
H10_8 H 0.4671 0.1152 0.7708
C27_8 C 0.5017(2) 0.1627(4) 0.7900(4)
C28_8 C 0.5302(3) 0.1657(4) 0.7450(6)
C29_8 C 0.5067(2) 0.1892(3) 0.8291(5)
H11_8 H 0.5278 0.2089 0.8287
C30_8 C 0.4789(2) 0.1876(4) 0.8734(5)
C31_8 C 0.4891(4) 0.2200(5) 0.9149(6)
C32_8 C 0.4499(3) 0.1590(4) 0.8695(5)
H12_8 H 0.4323 0.1573 0.8955
Cu10_8 Cu 0.58886(4) 0.20000(5) 0.67849(6)
Cu13_8 Cu 0.55382(4) 0.13342(5) 0.65417(6)
O24_8 O 0.20209(27) 0.96012(33) 0.0380(4)
O2_8 O 0.20288(17) 0.97057(23) 0.9079(3)
O3_8 O 0.08618(16) 0.95113(23) 0.7146(4)
O4_8 O 0.11299(14) 0.92403(24) 0.7351(4)
O10_8 O 0.26807(16) 0.97610(22) 0.8994(3)
O18_8 O 0.2124(3) 0.9089(4) 0.9483(4)
O19_8 O 0.10929(18) 0.85573(23) 0.6985(4)
O20_8 O 0.0302(2) 0.94937(27) 0.6347(4)
C3_8 C 0.1584(3) 0.9769(4) 0.8229(5)
H1_8 H 0.1575 0.9562 0.8257
C4_8 C 0.1354(3) 0.9789(4) 0.7848(5)
C5_8 C 0.1084(3) 0.9495(4) 0.7476(5)
C19_8 C 0.3159(2) 0.9855(4) 0.8083(5)
H7_8 H 0.2960 0.9646 0.8106
C20_8 C 0.3414(2) 0.9908(4) 0.7676(5)
C21_8 C 0.3468(3) 0.9651(4) 0.7261(6)
O27_8 O 0.05177(16) 0.85679(26) 0.6111(3)
O28_8 O 0.02822(16) 0.88956(27) 0.5893(3)
H13_8 H 0.106687 0.849559 0.745949
H14_8 H 0.0976502 0.834807 0.671378
H15_8 H 0.046637 0.972037 0.616729
H16_8 H 0.0120269 0.936742 0.601793
H19_8 H 0.215678 0.905868 0.900811
H20_8 H 0.224686 0.900322 0.975522
O24_9 O 0.03988(33) 0.24196(19) 0.0380(4)
O2_9 O 0.02943(23) 0.23232(16) 0.9079(3)
O3_9 O 0.04887(23) 0.13506(16) 0.7146(4)
O4_9 O 0.07597(24) 0.1890(2) 0.7351(4)
O10_9 O 0.02390(22) 0.29198(15) 0.8994(3)
O18_9 O 0.0911(4) 0.3036(2) 0.9483(4)
O19_9 O 0.14427(23) 0.25357(14) 0.6985(4)
O20_9 O 0.05063(27) 0.08087(18) 0.6347(4)
C3_9 C 0.0231(4) 0.1816(3) 0.8229(5)
H1_9 H 0.0438 0.2014 0.8257
C4_9 C 0.0211(4) 0.1566(2) 0.7848(5)
C5_9 C 0.0505(4) 0.1590(3) 0.7476(5)
C19_9 C 0.0145(4) 0.3305(3) 0.8083(5)
H7_9 H 0.0354 0.3315 0.8106
C20_9 C 0.0092(4) 0.3507(3) 0.7676(5)
C21_9 C 0.0349(4) 0.3818(3) 0.7261(6)
O27_9 O 0.14321(26) 0.19499(21) 0.6111(3)
O28_9 O 0.11044(27) 0.13867(22) 0.5893(3)
H13_9 H 0.150441 0.257128 0.745949
H14_9 H 0.165193 0.262843 0.671378
H15_9 H 0.0279629 0.0745999 0.616729
H16_9 H 0.0632579 0.0752848 0.601793
H19_9 H 0.0941323 0.309811 0.900811
H20_9 H 0.0996778 0.324364 0.975522
O17_9 O 0.9167(3) 0.2035(2) 0.0079(4)
Cu7_9 Cu 0.76770(5) 0.03742(4) 0.03105(6)
O23_9 O 0.98267(31) 0.20987(17) 0.0562(4)
H17_9 H 0.911291 0.180567 0.0230225
H18_9 H 0.908924 0.213961 0.0413455
N1_9 N 0.9331(4) 0.0898(2) 0.8150(5)
N2_9 N 0.9100(4) 0.0882(2) 0.8531(5)
N3_9 N 0.9207(4) 0.3296(3) 0.8034(5)
N4_9 N 0.8981(3) 0.3115(2) 0.8421(5)
O1_9 O 0.97301(24) 0.20445(15) 0.9279(3)
O8_9 O 0.79791(27) 0.03988(19) 0.9620(4)
O9_9 O 0.96834(23) 0.26419(16) 0.9239(3)
O13_9 O 0.86165(21) 0.38511(16) 0.7223(3)
O14_9 O 0.80533(22) 0.36156(16) 0.7441(3)
C1_9 C 0.9986(4) 0.2080(3) 0.8996(5)
C2_9 C 0.9969(3) 0.1800(2) 0.8575(5)
C6_9 C 0.9907(4) 0.1259(2) 0.7852(5)
H2_9 H 0.9883 0.1075 0.7609
C7_9 C 0.9645(4) 0.1236(2) 0.8225(6)
C8_9 C 0.9671(4) 0.1502(3) 0.8644(6)
H3_9 H 0.9501 0.1475 0.8935
C9_9 C 0.8816(4) 0.0569(3) 0.8417(5)
C10_9 C 0.8764(4) 0.0296(3) 0.8034(5)
H4_9 H 0.8942 0.0334 0.7755
C14_9 C 0.8235(4) 0.0193(3) 0.8883(5)
C15_9 C 0.7963(5) 0.0171(4) 0.9344(6)
C16_9 C 0.8553(4) 0.0504(3) 0.8916(6)
H6_9 H 0.8593 0.0663 0.9244
C17_9 C 0.9917(4) 0.2847(3) 0.8907(5)
C18_9 C 0.9863(4) 0.3075(3) 0.8478(5)
C22_9 C 0.9806(4) 0.3527(3) 0.7705(5)
H8_9 H 0.9783 0.3685 0.7455
C23_9 C 0.9552(4) 0.3306(3) 0.8115(6)
C24_9 C 0.9574(4) 0.3072(3) 0.8458(6)
H9_9 H 0.9386 0.2906 0.8683
C25_9 C 0.8684(4) 0.3115(3) 0.8312(7)
C26_9 C 0.8658(4) 0.3364(3) 0.7941(6)
H10_9 H 0.8848 0.3520 0.7708
C27_9 C 0.8373(4) 0.3391(3) 0.7900(4)
C28_9 C 0.8343(4) 0.3646(2) 0.7450(6)
C29_9 C 0.8108(3) 0.3176(2) 0.8291(5)
H11_9 H 0.7911 0.3190 0.8287
C30_9 C 0.8124(4) 0.2914(3) 0.8734(5)
C31_9 C 0.7800(5) 0.2692(3) 0.9149(6)
C32_9 C 0.8410(4) 0.2910(3) 0.8695(5)
H12_9 H 0.8427 0.2751 0.8955
Cu10_9 Cu 0.80000(5) 0.38887(3) 0.67849(6)
Cu13_9 Cu 0.86658(5) 0.42041(3) 0.65417(6)
Cu5_9 Cu 0.73633(5) 0.97123(4) 0.00541(6)
O7_9 O 0.77279(26) 0.9827(2) 0.9438(4)
C11_9 C 0.8465(6) 0.9954(4) 0.8010(6)
C12_9 C 0.8383(4) 0.9700(3) 0.7524(6)
C13_9 C 0.8191(3) 0.9935(2) 0.8417(5)
H5_9 H 0.7976 0.9746 0.8373
N3_10 N 0.6629(3) 0.0755(2) 0.8633(5)
N4_10 N 0.6448(2) 0.0800(2) 0.8246(5)
O12_4 O 0.73465(14) 0.03293(13) 0.9772(4)
O15_7 O 0.61210(15) 0.1866(2) 0.7357(4)
O16_7 O 0.58114(14) 0.12915(15) 0.7223(3)
C20_10 C 0.6840(3) 0.0081(2) 0.8991(5)
C21_10 C 0.7151(3) 0.0135(3) 0.9406(6)
C22_10 C 0.6860(3) 0.0387(3) 0.8962(5)
H8_10 H 0.7018 0.0568 0.9212
C23_10 C 0.6639(3) 0.0420(3) 0.8552(6)
C24_10 C 0.6405(3) 0.0164(3) 0.8209(6)
H9_10 H 0.6239 0.0186 0.7984
C25_10 C 0.6448(3) 0.1097(3) 0.8355(7)
C26_10 C 0.6697(3) 0.1372(3) 0.8726(6)
H10_10 H 0.6853 0.1338 0.8959
C27_10 C 0.6724(3) 0.1684(2) 0.8767(4)
C28_10 C 0.6979(2) 0.1969(3) 0.9217(6)
C29_10 C 0.6509(2) 0.1734(2) 0.8376(5)
H11_10 H 0.6523 0.1945 0.8380
C30_10 C 0.6247(3) 0.1456(2) 0.7933(5)
C31_10 C 0.6025(3) 0.1558(4) 0.7518(6)
C32_10 C 0.6243(3) 0.1166(3) 0.7972(5)
H12_10 H 0.6084 0.0990 0.7712
O20_10 O 0.41420(18) 0.6969(2) 0.0320(4)
O29_4 O 0.4801(2) 0.75883(25) 0.0690(4)
O30_4 O 0.53752(15) 0.78532(21) 0.0556(3)
H15_10 H 0.407933 0.713304 0.0499379
H16_10 H 0.408618 0.678694 0.0648735
N1_10 N 0.4231(2) 0.8233(3) 0.8517(5)
N2_10 N 0.4215(2) 0.8448(3) 0.8136(5)
O1_10 O 0.53778(15) 0.89810(19) 0.7388(3)
O2_10 O 0.56565(16) 0.86955(17) 0.7588(3)
O3_10 O 0.46839(16) 0.75285(16) 0.9521(4)
O4_10 O 0.5223(2) 0.77966(14) 0.9316(4)
O5_7 O 0.30835(16) 0.77563(18) 0.9418(3)
O6_7 O 0.27949(17) 0.80222(19) 0.9198(3)
O9_10 O 0.59752(16) 0.96251(16) 0.7428(3)
O10_10 O 0.62531(15) 0.93474(16) 0.7673(3)
O11_4 O 0.70843(15) 0.9814(2) 0.9411(3)
O17_10 O 0.5368(2) 0.9534(2) 0.6588(4)
O18_10 O 0.6369(2) 0.8791(3) 0.7184(4)
O19_10 O 0.58690(14) 0.77596(18) 0.9682(4)
C1_10 C 0.5413(3) 0.8760(3) 0.7671(5)
C2_10 C 0.5133(2) 0.8497(2) 0.8092(5)
C3_10 C 0.5149(3) 0.8251(3) 0.8438(5)
H1_10 H 0.5347 0.8242 0.8410
C4_10 C 0.4899(2) 0.8021(3) 0.8819(5)
C5_10 C 0.4923(3) 0.7751(3) 0.9191(5)
C6_10 C 0.4592(2) 0.8018(3) 0.8815(5)
H2_10 H 0.4408 0.7858 0.9058
C7_10 C 0.4569(2) 0.8257(3) 0.8442(6)
C8_10 C 0.4835(3) 0.8497(3) 0.8023(6)
H3_10 H 0.4808 0.8640 0.7732
C9_10 C 0.3902(3) 0.8419(3) 0.8250(5)
C10_10 C 0.3629(3) 0.8198(3) 0.8633(5)
H4_10 H 0.3667 0.8058 0.8912
C11_10 C 0.3287(4) 0.8155(4) 0.8657(6)
C12_10 C 0.3033(3) 0.7983(3) 0.9143(6)
C13_10 C 0.3268(2) 0.8410(2) 0.8250(5)
H5_10 H 0.3079 0.8436 0.8294
C14_10 C 0.3526(3) 0.8624(3) 0.7784(5)
C15_10 C 0.3504(4) 0.8874(3) 0.7323(6)
C16_10 C 0.3837(3) 0.8617(3) 0.7751(6)
H6_10 H 0.3996 0.8736 0.7423
C17_10 C 0.6180(3) 0.9596(3) 0.7760(5)
C18_10 C 0.6408(3) 0.9878(3) 0.8189(5)
C19_10 C 0.6638(3) 0.9826(2) 0.8584(5)
H7_10 H 0.6648 0.9627 0.8561
O21_4 O 0.46728(24) 0.69165(16) 0.9418(3)
O22_4 O 0.52273(25) 0.72051(17) 0.9198(3)
O25_7 O 0.60630(25) 0.95824(15) 0.6078(3)
O26_7 O 0.63161(19) 0.93202(14) 0.6439(4)
H13_10 H 0.590461 0.773354 0.920718
H14_10 H 0.596177 0.764317 0.995289
H17_10 H 0.513901 0.935943 0.643644
H18_10 H 0.547294 0.971703 0.625321
H19_10 H 0.643144 0.882345 0.765855
H20_10 H 0.657698 0.891353 0.691145
O20_11 O 0.3031(2) 0.71730(27) 0.0320(4)
O29_5 O 0.24117(25) 0.72123(32) 0.0690(4)
O30_5 O 0.21468(21) 0.75219(26) 0.0556(3)
H15_11 H 0.286696 0.69463 0.0499379
H16_11 H 0.321306 0.729925 0.0648735
N1_11 N 0.1767(3) 0.5998(4) 0.8517(5)
N2_11 N 0.1552(3) 0.5767(4) 0.8136(5)
O1_11 O 0.10190(19) 0.63968(24) 0.7388(3)
O2_11 O 0.13045(17) 0.69610(23) 0.7588(3)
O3_11 O 0.24715(16) 0.71554(23) 0.9521(4)
O4_11 O 0.22034(14) 0.74264(24) 0.9316(4)
O5_8 O 0.22437(18) 0.53272(24) 0.9418(3)
O6_8 O 0.19778(19) 0.47727(25) 0.9198(3)
O9_11 O 0.03749(16) 0.63501(23) 0.7428(3)
O10_11 O 0.06526(16) 0.69057(22) 0.7673(3)
O11_5 O 0.0186(2) 0.72703(25) 0.9411(3)
O17_11 O 0.0466(2) 0.5834(3) 0.6588(4)
O18_11 O 0.1209(3) 0.7578(4) 0.7184(4)
O19_11 O 0.22404(18) 0.81094(23) 0.9682(4)
C1_11 C 0.1240(3) 0.6653(4) 0.7671(5)
C2_11 C 0.1503(2) 0.6636(3) 0.8092(5)
C3_11 C 0.1749(3) 0.6898(4) 0.8438(5)
H1_11 H 0.1758 0.7105 0.8410
C4_11 C 0.1979(3) 0.6878(4) 0.8819(5)
C5_11 C 0.2249(3) 0.7172(4) 0.9191(5)
C6_11 C 0.1982(3) 0.6574(4) 0.8815(5)
H2_11 H 0.2142 0.6550 0.9058
C7_11 C 0.1743(3) 0.6312(4) 0.8442(6)
C8_11 C 0.1503(3) 0.6338(4) 0.8023(6)
H3_11 H 0.1360 0.6168 0.7732
C9_11 C 0.1581(3) 0.5483(4) 0.8250(5)
C10_11 C 0.1802(3) 0.5431(4) 0.8633(5)
H4_11 H 0.1942 0.5609 0.8912
C11_11 C 0.1845(4) 0.5132(6) 0.8657(6)
C12_11 C 0.2017(3) 0.5050(4) 0.9143(6)
C13_11 C 0.1590(2) 0.4858(3) 0.8250(5)
H5_11 H 0.1564 0.4643 0.8294
C14_11 C 0.1376(3) 0.4902(4) 0.7784(5)
C15_11 C 0.1126(3) 0.4630(5) 0.7323(6)
C16_11 C 0.1383(3) 0.5220(4) 0.7751(6)
H6_11 H 0.1264 0.5260 0.7423
C17_11 C 0.0404(3) 0.6584(4) 0.7760(5)
C18_11 C 0.0122(3) 0.6530(4) 0.8189(5)
C19_11 C 0.0174(2) 0.6812(4) 0.8584(5)
H7_11 H 0.0373 0.7021 0.8561
O25_8 O 0.04176(15) 0.64807(29) 0.6078(3)
O26_8 O 0.06798(14) 0.69960(24) 0.6439(4)
H13_11 H 0.226646 0.817108 0.920718
H14_11 H 0.235683 0.83186 0.995289
H17_11 H 0.0640567 0.577957 0.643644
H18_11 H 0.0282968 0.575591 0.625321
H19_11 H 0.117655 0.760799 0.765855
H20_11 H 0.108647 0.766345 0.691145
N3_11 N 0.9245(2) 0.5874(4) 0.8633(5)
N4_11 N 0.9200(2) 0.5648(3) 0.8246(5)
O12_5 O 0.96707(13) 0.70172(19) 0.9772(4)
O15_8 O 0.8134(2) 0.42550(25) 0.7357(4)
O16_8 O 0.87085(15) 0.45199(21) 0.7223(3)
C20_11 C 0.9919(2) 0.6759(4) 0.8991(5)
C21_11 C 0.9865(3) 0.7016(4) 0.9406(6)
C22_11 C 0.9613(3) 0.6473(4) 0.8962(5)
H8_11 H 0.9432 0.6450 0.9212
C23_11 C 0.9580(3) 0.6219(4) 0.8552(6)
C24_11 C 0.9836(3) 0.6241(4) 0.8209(6)
H9_11 H 0.9814 0.6053 0.7984
C25_11 C 0.8903(3) 0.5351(4) 0.8355(7)
C26_11 C 0.8628(3) 0.5325(4) 0.8726(6)
H10_11 H 0.8662 0.5515 0.8959
C27_11 C 0.8316(2) 0.5040(4) 0.8767(4)
C28_11 C 0.8031(3) 0.5010(4) 0.9217(6)
C29_11 C 0.8266(2) 0.4775(3) 0.8376(5)
H11_11 H 0.8055 0.4578 0.8380
C30_11 C 0.8544(2) 0.4791(4) 0.7933(5)
C31_11 C 0.8442(4) 0.4467(5) 0.7518(6)
C32_11 C 0.8834(3) 0.5077(4) 0.7972(5)
H12_11 H 0.9010 0.5094 0.7712
O20_12 O 0.28270(27) 0.58580(18) 0.0320(4)
O29_6 O 0.27877(32) 0.5199(2) 0.0690(4)
O30_6 O 0.24781(26) 0.46248(15) 0.0556(3)
H15_12 H 0.30537 0.592067 0.0499379
H16_12 H 0.270075 0.591382 0.0648735
N1_12 N 0.4002(4) 0.5769(2) 0.8517(5)
N2_12 N 0.4233(4) 0.5785(2) 0.8136(5)
N3_12 N 0.4126(4) 0.3371(3) 0.8633(5)
N4_12 N 0.4352(3) 0.3552(2) 0.8246(5)
O1_12 O 0.36032(24) 0.46222(15) 0.7388(3)
O2_12 O 0.30390(23) 0.43435(16) 0.7588(3)
O3_12 O 0.28446(23) 0.53161(16) 0.9521(4)
O4_12 O 0.25736(24) 0.4777(2) 0.9316(4)
O9_12 O 0.36499(23) 0.40248(16) 0.7428(3)
O10_12 O 0.30943(22) 0.37469(15) 0.7673(3)
O11_6 O 0.27297(25) 0.29157(15) 0.9411(3)
O12_6 O 0.29828(19) 0.26535(14) 0.9772(4)
O15_9 O 0.57450(25) 0.38790(15) 0.7357(4)
O16_9 O 0.54801(21) 0.41886(14) 0.7223(3)
O17_12 O 0.4166(3) 0.4632(2) 0.6588(4)
O18_12 O 0.2422(4) 0.3631(2) 0.7184(4)
O19_12 O 0.18906(23) 0.41310(14) 0.9682(4)
C1_12 C 0.3347(4) 0.4587(3) 0.7671(5)
C2_12 C 0.3364(3) 0.4867(2) 0.8092(5)
C3_12 C 0.3102(4) 0.4851(3) 0.8438(5)
H1_12 H 0.2895 0.4653 0.8410
C4_12 C 0.3122(4) 0.5101(2) 0.8819(5)
C5_12 C 0.2828(4) 0.5077(3) 0.9191(5)
C6_12 C 0.3426(4) 0.5408(2) 0.8815(5)
H2_12 H 0.3450 0.5592 0.9058
C7_12 C 0.3688(4) 0.5431(2) 0.8442(6)
C8_12 C 0.3662(4) 0.5165(3) 0.8023(6)
H3_12 H 0.3832 0.5192 0.7732
C9_12 C 0.4517(4) 0.6098(3) 0.8250(5)
C10_12 C 0.4569(4) 0.6371(3) 0.8633(5)
H4_12 H 0.4391 0.6333 0.8912
C11_12 C 0.4868(6) 0.6713(4) 0.8657(6)
C12_12 C 0.4950(4) 0.6967(3) 0.9143(6)
C13_12 C 0.5142(3) 0.6732(2) 0.8250(5)
H5_12 H 0.5357 0.6921 0.8294
C14_12 C 0.5098(4) 0.6474(3) 0.7784(5)
C15_12 C 0.5370(5) 0.6496(4) 0.7323(6)
C16_12 C 0.4780(4) 0.6163(3) 0.7751(6)
H6_12 H 0.4740 0.6004 0.7423
C17_12 C 0.3416(4) 0.3820(3) 0.7760(5)
C18_12 C 0.3470(4) 0.3592(3) 0.8189(5)
C19_12 C 0.3188(4) 0.3362(3) 0.8584(5)
H7_12 H 0.2979 0.3352 0.8561
C20_12 C 0.3241(4) 0.3160(3) 0.8991(5)
C21_12 C 0.2984(4) 0.2849(3) 0.9406(6)
C22_12 C 0.3527(4) 0.3140(3) 0.8962(5)
H8_12 H 0.3550 0.2982 0.9212
C23_12 C 0.3781(4) 0.3361(3) 0.8552(6)
C24_12 C 0.3759(4) 0.3595(3) 0.8209(6)
H9_12 H 0.3947 0.3761 0.7984
C25_12 C 0.4649(4) 0.3552(3) 0.8355(7)
C26_12 C 0.4675(4) 0.3303(3) 0.8726(6)
H10_12 H 0.4485 0.3147 0.8959
C27_12 C 0.4960(4) 0.3276(3) 0.8767(4)
C28_12 C 0.4990(4) 0.3021(2) 0.9217(6)
C29_12 C 0.5225(3) 0.3491(2) 0.8376(5)
H11_12 H 0.5422 0.3477 0.8380
C30_12 C 0.5209(4) 0.3753(3) 0.7933(5)
C31_12 C 0.5533(5) 0.3975(3) 0.7518(6)
C32_12 C 0.4923(4) 0.3757(3) 0.7972(5)
H12_12 H 0.4906 0.3916 0.7712
O25_9 O 0.35193(29) 0.39370(25) 0.6078(3)
O26_9 O 0.30040(24) 0.36839(19) 0.6439(4)
H13_12 H 0.182892 0.409539 0.920718
H14_12 H 0.16814 0.403823 0.995289
H17_12 H 0.422043 0.486099 0.643644
H18_12 H 0.424409 0.452706 0.625321
H19_12 H 0.239201 0.356856 0.765855
H20_12 H 0.233655 0.342302 0.691145
C20_13 C 0.0173(3) 0.6748(2) 0.5658(5)
C21_13 C 0.0484(3) 0.6802(3) 0.6073(6)
C22_13 C 0.0193(3) 0.7054(3) 0.5629(5)
H8_13 H 0.0351 0.7235 0.5879
C26_13 C 0.0030(3) 0.8039(3) 0.5393(6)
H10_13 H 0.0186 0.8005 0.5626
C27_13 C 0.0057(3) 0.8351(2) 0.5434(4)
C28_13 C 0.0312(2) 0.8636(3) 0.5884(6)
N1_13 N 0.7564(2) 0.4900(3) 0.5184(5)
N2_13 N 0.7548(2) 0.5115(3) 0.4803(5)
N3_13 N 0.9962(3) 0.7422(2) 0.5300(5)
N4_13 N 0.9781(2) 0.7467(2) 0.4913(5)
O1_13 O 0.87111(15) 0.56477(19) 0.4055(3)
O2_13 O 0.89898(16) 0.53622(17) 0.4255(3)
O3_13 O 0.80172(16) 0.41952(16) 0.6188(4)
O4_13 O 0.8556(2) 0.44633(14) 0.5983(4)
O5_9 O 0.64168(16) 0.44230(18) 0.6085(3)
O6_9 O 0.61282(17) 0.46889(19) 0.5865(3)
O9_13 O 0.93085(16) 0.62918(16) 0.4095(3)
O10_13 O 0.95864(15) 0.60141(16) 0.4340(3)
O15_10 O 0.94543(15) 0.8533(2) 0.4024(4)
O16_10 O 0.91447(14) 0.79582(15) 0.3890(3)
O17_13 O 0.8701(2) 0.6201(2) 0.3255(4)
O18_13 O 0.9702(2) 0.5458(3) 0.3851(4)
O19_13 O 0.92023(14) 0.44263(18) 0.6349(4)
O20_13 O 0.74753(18) 0.3636(2) 0.6987(4)
C1_13 C 0.8746(3) 0.5427(3) 0.4338(5)
C2_13 C 0.8466(2) 0.5164(2) 0.4759(5)
C3_13 C 0.8482(3) 0.4918(3) 0.5105(5)
H1_13 H 0.8680 0.4909 0.5077
C4_13 C 0.8232(2) 0.4688(3) 0.5486(5)
C5_13 C 0.8256(3) 0.4418(3) 0.5858(5)
C6_13 C 0.7925(2) 0.4685(3) 0.5482(5)
H2_13 H 0.7741 0.4525 0.5725
C7_13 C 0.7902(2) 0.4924(3) 0.5109(6)
C8_13 C 0.8168(3) 0.5164(3) 0.4690(6)
H3_13 H 0.8141 0.5307 0.4399
C9_13 C 0.7235(3) 0.5086(3) 0.4917(5)
C10_13 C 0.6962(3) 0.4865(3) 0.5300(5)
H4_13 H 0.7000 0.4725 0.5579
C11_13 C 0.6620(4) 0.4822(4) 0.5324(6)
C12_13 C 0.6366(3) 0.4650(3) 0.5810(6)
C13_13 C 0.6601(2) 0.5077(2) 0.4917(5)
H5_13 H 0.6412 0.5103 0.4961
C14_13 C 0.6859(3) 0.5291(3) 0.4451(5)
C15_13 C 0.6837(4) 0.5541(3) 0.3990(6)
C16_13 C 0.7170(3) 0.5284(3) 0.4418(6)
H6_13 H 0.7329 0.5403 0.4090
C17_13 C 0.9513(3) 0.6263(3) 0.4427(5)
C18_13 C 0.9741(3) 0.6545(3) 0.4856(5)
C19_13 C 0.9971(3) 0.6493(2) 0.5251(5)
H7_13 H 0.9981 0.6294 0.5228
C23_13 C 0.9972(3) 0.7087(3) 0.5219(6)
C24_13 C 0.9738(3) 0.6831(3) 0.4876(6)
H9_13 H 0.9572 0.6853 0.4651
C25_13 C 0.9781(3) 0.7764(3) 0.5022(7)
C29_13 C 0.9842(2) 0.8401(2) 0.5043(5)
H11_13 H 0.9856 0.8612 0.5047
C30_13 C 0.9580(3) 0.8123(2) 0.4600(5)
C31_13 C 0.9358(3) 0.8225(4) 0.4185(6)
C32_13 C 0.9576(3) 0.7833(3) 0.4639(5)
H12_13 H 0.9417 0.7657 0.4379
O21_5 O 0.80061(24) 0.35832(16) 0.6085(3)
O22_5 O 0.85606(25) 0.38718(17) 0.5865(3)
O25_10 O 0.93964(25) 0.62490(15) 0.2744(3)
O26_10 O 0.96495(19) 0.59868(14) 0.3105(4)
H13_13 H 0.923795 0.44002 0.587385
H14_13 H 0.92951 0.430984 0.661955
H15_13 H 0.741267 0.37997 0.716605
H16_13 H 0.741951 0.34536 0.73154
H17_13 H 0.847234 0.60261 0.310311
H18_13 H 0.880627 0.63837 0.291988
H19_13 H 0.976477 0.549012 0.432522
H20_13 H 0.991031 0.55802 0.357812
N1_14 N 0.5100(3) 0.2665(4) 0.5184(5)
N2_14 N 0.4885(3) 0.2434(4) 0.4803(5)
N3_14 N 0.2578(2) 0.2541(4) 0.5300(5)
N4_14 N 0.2533(2) 0.2315(3) 0.4913(5)
O1_14 O 0.43523(19) 0.30635(24) 0.4055(3)
O2_14 O 0.46378(17) 0.36277(23) 0.4255(3)
O3_14 O 0.58048(16) 0.38221(23) 0.6188(4)
O4_14 O 0.55367(14) 0.40931(24) 0.5983(4)
O5_10 O 0.55770(18) 0.19939(24) 0.6085(3)
O6_10 O 0.53111(19) 0.14394(25) 0.5865(3)
O9_14 O 0.37082(16) 0.30168(23) 0.4095(3)
O10_14 O 0.39859(16) 0.35724(22) 0.4340(3)
O15_11 O 0.1467(2) 0.09217(25) 0.4024(4)
O16_11 O 0.20418(15) 0.11866(21) 0.3890(3)
O17_14 O 0.3799(2) 0.2501(3) 0.3255(4)
O18_14 O 0.4542(3) 0.4245(4) 0.3851(4)
O19_14 O 0.55737(18) 0.47761(23) 0.6349(4)
O20_14 O 0.6364(2) 0.38397(27) 0.6987(4)
C1_14 C 0.4573(3) 0.3320(4) 0.4338(5)
C2_14 C 0.4836(2) 0.3303(3) 0.4759(5)
C3_14 C 0.5082(3) 0.3565(4) 0.5105(5)
H1_14 H 0.5091 0.3772 0.5077
C4_14 C 0.5312(3) 0.3545(4) 0.5486(5)
C5_14 C 0.5582(3) 0.3839(4) 0.5858(5)
C6_14 C 0.5315(3) 0.3241(4) 0.5482(5)
H2_14 H 0.5475 0.3217 0.5725
C7_14 C 0.5076(3) 0.2979(4) 0.5109(6)
C8_14 C 0.4836(3) 0.3005(4) 0.4690(6)
H3_14 H 0.4693 0.2835 0.4399
C9_14 C 0.4914(3) 0.2150(4) 0.4917(5)
C10_14 C 0.5135(3) 0.2098(4) 0.5300(5)
H4_14 H 0.5275 0.2276 0.5579
C11_14 C 0.5178(4) 0.1799(6) 0.5324(6)
C12_14 C 0.5350(3) 0.1717(4) 0.5810(6)
C13_14 C 0.4923(2) 0.1525(3) 0.4917(5)
H5_14 H 0.4897 0.1310 0.4961
C14_14 C 0.4709(3) 0.1569(4) 0.4451(5)
C15_14 C 0.4459(3) 0.1297(5) 0.3990(6)
C16_14 C 0.4716(3) 0.1887(4) 0.4418(6)
H6_14 H 0.4597 0.1927 0.4090
C17_14 C 0.3737(3) 0.3251(4) 0.4427(5)
C18_14 C 0.3455(3) 0.3197(4) 0.4856(5)
C19_14 C 0.3507(2) 0.3479(4) 0.5251(5)
H7_14 H 0.3706 0.3688 0.5228
C20_14 C 0.3252(2) 0.3426(4) 0.5658(5)
C21_14 C 0.3198(3) 0.3683(4) 0.6073(6)
C22_14 C 0.2946(3) 0.3140(4) 0.5629(5)
H8_14 H 0.2765 0.3117 0.5879
C23_14 C 0.2913(3) 0.2886(4) 0.5219(6)
C24_14 C 0.3169(3) 0.2908(4) 0.4876(6)
H9_14 H 0.3147 0.2720 0.4651
C25_14 C 0.2236(3) 0.2018(4) 0.5022(7)
C26_14 C 0.1961(3) 0.1992(4) 0.5393(6)
H10_14 H 0.1995 0.2182 0.5626
C27_14 C 0.1649(2) 0.1707(4) 0.5434(4)
C28_14 C 0.1364(3) 0.1677(4) 0.5884(6)
C29_14 C 0.1599(2) 0.1442(3) 0.5043(5)
H11_14 H 0.1388 0.1245 0.5047
C30_14 C 0.1877(2) 0.1458(4) 0.4600(5)
C31_14 C 0.1775(4) 0.1134(5) 0.4185(6)
C32_14 C 0.2167(3) 0.1744(4) 0.4639(5)
H12_14 H 0.2343 0.1761 0.4379
O25_11 O 0.37510(15) 0.31473(29) 0.2744(3)
O26_11 O 0.40132(14) 0.36626(24) 0.3105(4)
H13_14 H 0.55998 0.483774 0.587385
H14_14 H 0.569016 0.498527 0.661955
H15_14 H 0.62003 0.361296 0.716605
H16_14 H 0.65464 0.396591 0.73154
H17_14 H 0.39739 0.244624 0.310311
H18_14 H 0.36163 0.242257 0.291988
H19_14 H 0.450988 0.427466 0.432522
H20_14 H 0.44198 0.433011 0.357812
N1_15 N 0.7335(4) 0.2436(2) 0.5184(5)
N2_15 N 0.7566(4) 0.2452(2) 0.4803(5)
N3_15 N 0.7459(4) 0.0038(3) 0.5300(5)
N4_15 N 0.7685(3) 0.0219(2) 0.4913(5)
O1_15 O 0.69365(24) 0.12889(15) 0.4055(3)
O2_15 O 0.63723(23) 0.10102(16) 0.4255(3)
O3_15 O 0.61779(23) 0.19828(16) 0.6188(4)
O4_15 O 0.59069(24) 0.1444(2) 0.5983(4)
O9_15 O 0.69832(23) 0.06915(16) 0.4095(3)
O10_15 O 0.64276(22) 0.04136(15) 0.4340(3)
O15_12 O 0.90783(25) 0.05457(15) 0.4024(4)
O16_12 O 0.88134(21) 0.08553(14) 0.3890(3)
O17_15 O 0.7499(3) 0.1299(2) 0.3255(4)
O18_15 O 0.5755(4) 0.0298(2) 0.3851(4)
O19_15 O 0.52239(23) 0.07977(14) 0.6349(4)
O20_15 O 0.61603(27) 0.25247(18) 0.6987(4)
C1_15 C 0.6680(4) 0.1254(3) 0.4338(5)
C2_15 C 0.6697(3) 0.1534(2) 0.4759(5)
C3_15 C 0.6435(4) 0.1518(3) 0.5105(5)
H1_15 H 0.6228 0.1320 0.5077
C4_15 C 0.6455(4) 0.1768(2) 0.5486(5)
C5_15 C 0.6161(4) 0.1744(3) 0.5858(5)
C6_15 C 0.6759(4) 0.2075(2) 0.5482(5)
H2_15 H 0.6783 0.2259 0.5725
C7_15 C 0.7021(4) 0.2098(2) 0.5109(6)
C8_15 C 0.6995(4) 0.1832(3) 0.4690(6)
H3_15 H 0.7165 0.1859 0.4399
C9_15 C 0.7850(4) 0.2765(3) 0.4917(5)
C10_15 C 0.7902(4) 0.3038(3) 0.5300(5)
H4_15 H 0.7724 0.3000 0.5579
C11_15 C 0.8201(6) 0.3380(4) 0.5324(6)
C12_15 C 0.8283(4) 0.3634(3) 0.5810(6)
C13_15 C 0.8475(3) 0.3399(2) 0.4917(5)
H5_15 H 0.8690 0.3588 0.4961
C14_15 C 0.8431(4) 0.3141(3) 0.4451(5)
C15_15 C 0.8703(5) 0.3163(4) 0.3990(6)
C16_15 C 0.8113(4) 0.2830(3) 0.4418(6)
H6_15 H 0.8073 0.2671 0.4090
C17_15 C 0.6749(4) 0.0487(3) 0.4427(5)
C18_15 C 0.6803(4) 0.0259(3) 0.4856(5)
C19_15 C 0.6521(4) 0.0029(3) 0.5251(5)
H7_15 H 0.6312 0.0019 0.5228
C23_15 C 0.7114(4) 0.0028(3) 0.5219(6)
C24_15 C 0.7092(4) 0.0262(3) 0.4876(6)
H9_15 H 0.7280 0.0428 0.4651
C25_15 C 0.7982(4) 0.0219(3) 0.5022(7)
C29_15 C 0.8558(3) 0.0158(2) 0.5043(5)
H11_15 H 0.8755 0.0144 0.5047
C30_15 C 0.8542(4) 0.0420(3) 0.4600(5)
C31_15 C 0.8866(5) 0.0642(3) 0.4185(6)
C32_15 C 0.8256(4) 0.0424(3) 0.4639(5)
H12_15 H 0.8239 0.0583 0.4379
O25_12 O 0.68527(29) 0.06036(25) 0.2744(3)
O26_12 O 0.63374(24) 0.03505(19) 0.3105(4)
H13_15 H 0.516226 0.0762053 0.587385
H14_15 H 0.501473 0.0704899 0.661955
H15_15 H 0.638704 0.258733 0.716605
H16_15 H 0.603409 0.258049 0.73154
H17_15 H 0.755376 0.152766 0.310311
H18_15 H 0.757743 0.119373 0.291988
H19_15 H 0.572534 0.0235226 0.432522
H20_15 H 0.566989 0.00896904 0.357812
C20_15 C 0.6574(4) 0.9827(3) 0.5658(5)
C21_15 C 0.6317(4) 0.9516(3) 0.6073(6)
C22_15 C 0.6860(4) 0.9807(3) 0.5629(5)
H8_15 H 0.6883 0.9649 0.5879
C26_15 C 0.8008(4) 0.9970(3) 0.5393(6)
H10_15 H 0.7818 0.9814 0.5626
C27_15 C 0.8293(4) 0.9943(3) 0.5434(4)
C28_15 C 0.8323(4) 0.9688(2) 0.5884(6)
N1_16 N 0.0898(2) 0.1566(3) 0.1850(5)
N2_16 N 0.0882(2) 0.1781(3) 0.1469(5)
N3_16 N 0.3296(3) 0.4088(2) 0.1966(5)
N4_16 N 0.3115(2) 0.4133(2) 0.1579(5)
O1_16 O 0.20445(15) 0.23143(19) 0.0721(3)
O2_16 O 0.23232(16) 0.20288(17) 0.0921(3)
O3_16 O 0.13506(16) 0.08618(16) 0.2854(4)
O4_16 O 0.1890(2) 0.11299(14) 0.2649(4)
O9_16 O 0.26419(16) 0.29584(16) 0.0761(3)
O10_16 O 0.29198(15) 0.26807(16) 0.1006(3)
O18_16 O 0.3036(2) 0.2124(3) 0.0517(4)
O19_16 O 0.25357(14) 0.10929(18) 0.3015(4)
O20_16 O 0.08087(18) 0.0302(2) 0.3653(4)
C1_16 C 0.2080(3) 0.2093(3) 0.1004(5)
C2_16 C 0.1800(2) 0.1830(2) 0.1425(5)
C3_16 C 0.1816(3) 0.1584(3) 0.1771(5)
H1_16 H 0.2014 0.1575 0.1743
C4_16 C 0.1566(2) 0.1354(3) 0.2152(5)
C5_16 C 0.1590(3) 0.1084(3) 0.2524(5)
C6_16 C 0.1259(2) 0.1351(3) 0.2148(5)
H2_16 H 0.1075 0.1191 0.2391
C7_16 C 0.1236(2) 0.1590(3) 0.1775(6)
C8_16 C 0.1502(3) 0.1830(3) 0.1356(6)
H3_16 H 0.1475 0.1973 0.1065
C9_16 C 0.0569(3) 0.1752(3) 0.1583(5)
C10_16 C 0.0296(3) 0.1531(3) 0.1966(5)
H4_16 H 0.0334 0.1391 0.2245
C14_16 C 0.0193(3) 0.1957(3) 0.1117(5)
C15_16 C 0.0171(4) 0.2207(3) 0.0656(6)
C16_16 C 0.0504(3) 0.1950(3) 0.1084(6)
H6_16 H 0.0663 0.2069 0.0756
C17_16 C 0.2847(3) 0.2929(3) 0.1093(5)
C18_16 C 0.3075(3) 0.3211(3) 0.1522(5)
C19_16 C 0.3305(3) 0.3159(2) 0.1917(5)
H7_16 H 0.3315 0.2960 0.1894
C20_16 C 0.3507(3) 0.3414(2) 0.2324(5)
C21_16 C 0.3818(3) 0.3468(3) 0.2739(6)
C22_16 C 0.3527(3) 0.3720(3) 0.2295(5)
H8_16 H 0.3685 0.3901 0.2545
C23_16 C 0.3306(3) 0.3753(3) 0.1885(6)
C24_16 C 0.3072(3) 0.3497(3) 0.1542(6)
H9_16 H 0.2906 0.3519 0.1317
C25_16 C 0.3115(3) 0.4430(3) 0.1688(7)
C26_16 C 0.3364(3) 0.4705(3) 0.2059(6)
H10_16 H 0.3520 0.4671 0.2292
C27_16 C 0.3391(3) 0.5017(2) 0.2100(4)
C28_16 C 0.3646(2) 0.5302(3) 0.2550(6)
C29_16 C 0.3176(2) 0.5067(2) 0.1709(5)
H11_16 H 0.3190 0.5278 0.1713
C30_16 C 0.2914(3) 0.4789(2) 0.1266(5)
C31_16 C 0.2692(3) 0.4891(4) 0.0851(6)
C32_16 C 0.2910(3) 0.4499(3) 0.1305(5)
H12_16 H 0.2751 0.4323 0.1045
O21_6 O 0.13395(24) 0.02498(16) 0.2751(3)
O22_6 O 0.18940(25) 0.05384(17) 0.2531(3)
H13_16 H 0.257128 0.106687 0.254051
H14_16 H 0.262843 0.0976502 0.328622
H15_16 H 0.0745999 0.046637 0.383271
H16_16 H 0.0752848 0.0120269 0.398207
H19_16 H 0.309811 0.215678 0.0991887
H20_16 H 0.324364 0.224686 0.0244784
O17_16 O 0.2035(2) 0.2867(2) 0.9921(4)
H17_16 H 0.180567 0.269277 0.976978
H18_16 H 0.213961 0.305037 0.958654
O5_11 O 0.97502(16) 0.10896(18) 0.2751(3)
O6_11 O 0.94616(17) 0.13555(19) 0.2531(3)
C11_16 C 0.9954(4) 0.1488(4) 0.1990(6)
C12_16 C 0.9700(3) 0.1316(3) 0.2476(6)
C13_16 C 0.9935(2) 0.1743(2) 0.1583(5)
H5_16 H 0.9746 0.1769 0.1627
O2_17 O 0.79712(17) 0.02943(23) 0.0921(3)
O3_17 O 0.91382(16) 0.04887(23) 0.2854(4)
O4_17 O 0.88701(14) 0.07597(24) 0.2649(4)
O10_17 O 0.73193(16) 0.02390(22) 0.1006(3)
O18_17 O 0.7876(3) 0.0911(4) 0.0517(4)
O19_17 O 0.89071(18) 0.14427(23) 0.3015(4)
O20_17 O 0.9698(2) 0.05063(27) 0.3653(4)
C3_17 C 0.8416(3) 0.0231(4) 0.1771(5)
H1_17 H 0.8425 0.0438 0.1743
C4_17 C 0.8646(3) 0.0211(4) 0.2152(5)
C5_17 C 0.8916(3) 0.0505(4) 0.2524(5)
C19_17 C 0.6841(2) 0.0145(4) 0.1917(5)
H7_17 H 0.7040 0.0354 0.1894
C20_17 C 0.6586(2) 0.0092(4) 0.2324(5)
C21_17 C 0.6532(3) 0.0349(4) 0.2739(6)
H13_17 H 0.893313 0.150441 0.254051
H14_17 H 0.90235 0.165193 0.328622
H15_17 H 0.953363 0.0279629 0.383271
H16_17 H 0.987973 0.0632579 0.398207
H19_17 H 0.784322 0.0941323 0.0991887
H20_17 H 0.775314 0.0996778 0.0244784
N1_17 N 0.8434(3) 0.9331(4) 0.1850(5)
N2_17 N 0.8219(3) 0.9100(4) 0.1469(5)
N3_17 N 0.5912(2) 0.9207(4) 0.1966(5)
N4_17 N 0.5867(2) 0.8981(3) 0.1579(5)
O1_17 O 0.76857(19) 0.97301(24) 0.0721(3)
O5_12 O 0.89104(18) 0.86605(24) 0.2751(3)
O6_12 O 0.86445(19) 0.81060(25) 0.2531(3)
O9_17 O 0.70416(16) 0.96834(23) 0.0761(3)
C1_17 C 0.7907(3) 0.9986(4) 0.1004(5)
C2_17 C 0.8170(2) 0.9969(3) 0.1425(5)
C6_17 C 0.8649(3) 0.9907(4) 0.2148(5)
H2_17 H 0.8809 0.9883 0.2391
C7_17 C 0.8410(3) 0.9645(4) 0.1775(6)
C8_17 C 0.8170(3) 0.9671(4) 0.1356(6)
H3_17 H 0.8027 0.9501 0.1065
C9_17 C 0.8248(3) 0.8816(4) 0.1583(5)
C10_17 C 0.8469(3) 0.8764(4) 0.1966(5)
H4_17 H 0.8609 0.8942 0.2245
C11_17 C 0.8512(4) 0.8465(6) 0.1990(6)
C12_17 C 0.8684(3) 0.8383(4) 0.2476(6)
C13_17 C 0.8257(2) 0.8191(3) 0.1583(5)
H5_17 H 0.8231 0.7976 0.1627
C14_17 C 0.8043(3) 0.8235(4) 0.1117(5)
C15_17 C 0.7793(3) 0.7963(5) 0.0656(6)
C16_17 C 0.8050(3) 0.8553(4) 0.1084(6)
H6_17 H 0.7931 0.8593 0.0756
C17_17 C 0.7071(3) 0.9917(4) 0.1093(5)
C18_17 C 0.6789(3) 0.9863(4) 0.1522(5)
C22_17 C 0.6280(3) 0.9806(4) 0.2295(5)
H8_17 H 0.6099 0.9783 0.2545
C23_17 C 0.6247(3) 0.9552(4) 0.1885(6)
C24_17 C 0.6503(3) 0.9574(4) 0.1542(6)
H9_17 H 0.6481 0.9386 0.1317
C25_17 C 0.5570(3) 0.8684(4) 0.1688(7)
C26_17 C 0.5295(3) 0.8658(4) 0.2059(6)
H10_17 H 0.5329 0.8848 0.2292
C27_17 C 0.4983(2) 0.8373(4) 0.2100(4)
C28_17 C 0.4698(3) 0.8343(4) 0.2550(6)
C29_17 C 0.4933(2) 0.8108(3) 0.1709(5)
H11_17 H 0.4722 0.7911 0.1713
C30_17 C 0.5211(2) 0.8124(4) 0.1266(5)
C31_17 C 0.5109(4) 0.7800(5) 0.0851(6)
C32_17 C 0.5501(3) 0.8410(4) 0.1305(5)
H12_17 H 0.5677 0.8427 0.1045
O17_17 O 0.7133(2) 0.9167(3) 0.9921(4)
H17_17 H 0.730723 0.911291 0.976978
H18_17 H 0.694963 0.908924 0.958654
C11_18 C 0.1535(6) 0.0046(4) 0.1990(6)
C12_18 C 0.1617(4) 0.0300(3) 0.2476(6)
C13_18 C 0.1809(3) 0.0065(2) 0.1583(5)
H5_18 H 0.2024 0.0254 0.1627
N1_18 N 0.0669(4) 0.9102(2) 0.1850(5)
N2_18 N 0.0900(4) 0.9118(2) 0.1469(5)
N3_18 N 0.0793(4) 0.6704(3) 0.1966(5)
N4_18 N 0.1019(3) 0.6885(2) 0.1579(5)
O1_18 O 0.02699(24) 0.79555(15) 0.0721(3)
O9_18 O 0.03166(23) 0.73581(16) 0.0761(3)
C1_18 C 0.0014(4) 0.7920(3) 0.1004(5)
C2_18 C 0.0031(3) 0.8200(2) 0.1425(5)
C6_18 C 0.0093(4) 0.8741(2) 0.2148(5)
H2_18 H 0.0117 0.8925 0.2391
C7_18 C 0.0355(4) 0.8764(2) 0.1775(6)
C8_18 C 0.0329(4) 0.8498(3) 0.1356(6)
H3_18 H 0.0499 0.8525 0.1065
C9_18 C 0.1184(4) 0.9431(3) 0.1583(5)
C10_18 C 0.1236(4) 0.9704(3) 0.1966(5)
H4_18 H 0.1058 0.9666 0.2245
C14_18 C 0.1765(4) 0.9807(3) 0.1117(5)
C15_18 C 0.2037(5) 0.9829(4) 0.0656(6)
C16_18 C 0.1447(4) 0.9496(3) 0.1084(6)
H6_18 H 0.1407 0.9337 0.0756
C17_18 C 0.0083(4) 0.7153(3) 0.1093(5)
C18_18 C 0.0137(4) 0.6925(3) 0.1522(5)
C22_18 C 0.0194(4) 0.6473(3) 0.2295(5)
H8_18 H 0.0217 0.6315 0.2545
C23_18 C 0.0448(4) 0.6694(3) 0.1885(6)
C24_18 C 0.0426(4) 0.6928(3) 0.1542(6)
H9_18 H 0.0614 0.7094 0.1317
C25_18 C 0.1316(4) 0.6885(3) 0.1688(7)
C26_18 C 0.1342(4) 0.6636(3) 0.2059(6)
H10_18 H 0.1152 0.6480 0.2292
C27_18 C 0.1627(4) 0.6609(3) 0.2100(4)
C28_18 C 0.1657(4) 0.6354(2) 0.2550(6)
C29_18 C 0.1892(3) 0.6824(2) 0.1709(5)
H11_18 H 0.2089 0.6810 0.1713
C30_18 C 0.1876(4) 0.7086(3) 0.1266(5)
C31_18 C 0.2200(5) 0.7308(3) 0.0851(6)
C32_18 C 0.1590(4) 0.7090(3) 0.1305(5)
H12_18 H 0.1573 0.7249 0.1045
O17_18 O 0.0833(3) 0.7965(2) 0.9921(4)
H17_18 H 0.0887093 0.819433 0.976978
H18_18 H 0.0910758 0.786039 0.958654
O2_18 O 0.97057(23) 0.76768(16) 0.0921(3)
O3_18 O 0.95113(23) 0.86494(16) 0.2854(4)
O4_18 O 0.92403(24) 0.8110(2) 0.2649(4)
O10_18 O 0.97610(22) 0.70802(15) 0.1006(3)
O18_18 O 0.9089(4) 0.6964(2) 0.0517(4)
O19_18 O 0.85573(23) 0.74643(14) 0.3015(4)
O20_18 O 0.94937(27) 0.91913(18) 0.3653(4)
C3_18 C 0.9769(4) 0.8184(3) 0.1771(5)
H1_18 H 0.9562 0.7986 0.1743
C4_18 C 0.9789(4) 0.8434(2) 0.2152(5)
C5_18 C 0.9495(4) 0.8410(3) 0.2524(5)
C19_18 C 0.9855(4) 0.6695(3) 0.1917(5)
H7_18 H 0.9646 0.6685 0.1894
C20_18 C 0.9908(4) 0.6493(3) 0.2324(5)
C21_18 C 0.9651(4) 0.6182(3) 0.2739(6)
H13_18 H 0.849559 0.742872 0.254051
H14_18 H 0.834807 0.737157 0.328622
H15_18 H 0.972037 0.9254 0.383271
H16_18 H 0.936742 0.924715 0.398207
H19_18 H 0.905868 0.690189 0.0991887
H20_18 H 0.900322 0.675636 0.0244784
loop_
_geom_bond_atom_site_label_1
_geom_bond_atom_site_label_2
_geom_bond_site_symmetry_1
_geom_bond_site_symmetry_2
Cu1 O1 1_555 1_555
Cu2 O2 1_555 1_555
Cu4 O4 1_555 1_555
N1 N2 1_555 1_555
N2 C9 1_555 1_555
O1 C1 1_555 1_555
O2 C1 1_555 1_555
O3 C5 1_555 1_555
O4 C5 1_555 1_555
O5 C12 1_555 1_555
O6 C12 1_555 1_555
O7 C15 1_555 1_555
O8 C15 1_555 1_555
O9 Cu1 1_555 1_555
O10 Cu2 1_555 1_555
O17 Cu1 1_555 1_555
O18 Cu2 1_555 1_555
O19 Cu4 1_555 1_555
C1 C2 1_555 1_555
C2 C3 1_555 1_555
C3 H1 1_555 1_555
C4 C3 1_555 1_555
C5 C4 1_555 1_555
C6 C4 1_555 1_555
H2 C6 1_555 1_555
C7 N1 1_555 1_555
C8 C2 1_555 1_555
H3 C8 1_555 1_555
C9 C10 1_555 1_555
C10 H4 1_555 1_555
C11 C10 1_555 1_555
C12 C11 1_555 1_555
C13 C11 1_555 1_555
H5 C13 1_555 1_555
C14 C13 1_555 1_555
C15 C14 1_555 1_555
C16 C9 1_555 1_555
H6 C16 1_555 1_555
C17 O9 1_555 1_555
C18 C17 1_555 1_555
C19 C18 1_555 1_555
H7 C19 1_555 1_555
Cu5 O7 1_555 1_555
Cu7 O8 1_555 1_555
Cu12 O6 1_555 1_555
O22 Cu4 1_555 1_555
O23 Cu1 1_555 1_555
O24 Cu2 1_555 1_555
O25 Cu1 1_555 1_555
O26 Cu2 1_555 1_555
O10 C17 1_555 1_555
C6 C7 1_555 1_555
C7 C8 1_555 1_555
C14 C16 1_555 1_555
O19 H13 1_555 1_555
O19 H14 1_555 1_555
O17 H17 1_555 1_555
O17 H18 1_555 1_555
O18 H19 1_555 1_555
O18 H20 1_555 1_555
O20 Cu3 1_555 1_555
O28 Cu3 1_555 1_555
O29 Cu3 1_555 1_555
O20 H15 1_555 1_555
O20 H16 1_555 1_555
N3 N4 1_555 1_555
N4 C25 1_555 1_555
O12 C21 1_555 1_555
O13 C28 1_555 1_555
O14 C28 1_555 1_555
O15 C31 1_555 1_555
O16 C31 1_555 1_555
C21 C20 1_555 1_555
C22 C20 1_555 1_555
H8 C22 1_555 1_555
C23 N3 1_555 1_555
H9 C24 1_555 1_555
C25 C26 1_555 1_555
C26 H10 1_555 1_555
C27 C26 1_555 1_555
C28 C27 1_555 1_555
C29 C27 1_555 1_555
H11 C29 1_555 1_555
C30 C29 1_555 1_555
C31 C30 1_555 1_555
C32 C25 1_555 1_555
H12 C32 1_555 1_555
Cu10 O14 1_555 1_555
Cu11 O15 1_555 1_555
Cu14 O16 1_555 1_555
C22 C23 1_555 1_555
C23 C24 1_555 1_555
C30 C32 1_555 1_555
N3_2 N4_2 1_555 1_555
N4_2 C25_2 1_555 1_555
O12_2 C21_2 1_555 1_555
O13_2 C28_2 1_555 1_555
O14_2 C28_2 1_555 1_555
O15_2 C31_2 1_555 1_555
O16_2 C31_2 1_555 1_555
C21_2 C20_2 1_555 1_555
C22_2 C20_2 1_555 1_555
H8_2 C22_2 1_555 1_555
C23_2 N3_2 1_555 1_555
H9_2 C24_2 1_555 1_555
C25_2 C26_2 1_555 1_555
C26_2 H10_2 1_555 1_555
C27_2 C26_2 1_555 1_555
C28_2 C27_2 1_555 1_555
C29_2 C27_2 1_555 1_555
H11_2 C29_2 1_555 1_555
C30_2 C29_2 1_555 1_555
C31_2 C30_2 1_555 1_555
C32_2 C25_2 1_555 1_555
H12_2 C32_2 1_555 1_555
Cu10_2 O14_2 1_555 1_555
Cu11_2 O15_2 1_555 1_555
Cu14_2 O16_2 1_555 1_555
C22_2 C23_2 1_555 1_555
C23_2 C24_2 1_555 1_555
C30_2 C32_2 1_555 1_555
Cu1_2 O1_2 1_555 1_555
Cu2_2 O2_2 1_555 1_555
Cu12 O4_2 1_555 1_555
N1_2 N2_2 1_555 1_555
N2_2 C9_2 1_555 1_555
O1_2 C1_2 1_555 1_555
O2_2 C1_2 1_555 1_555
O3_2 C5_2 1_555 1_555
O4_2 C5_2 1_555 1_555
O5_2 C12_2 1_555 1_555
O6_2 C12_2 1_555 1_555
O7_2 C15_2 1_555 1_555
O8_2 C15_2 1_555 1_555
O9_2 Cu1_2 1_555 1_555
O10_2 Cu2_2 1_555 1_555
O17_2 Cu1_2 1_555 1_555
O18_2 Cu2_2 1_555 1_555
O19_2 Cu12 1_555 1_555
C1_2 C2_2 1_555 1_555
C2_2 C3_2 1_555 1_555
C3_2 H1_2 1_555 1_555
C4_2 C3_2 1_555 1_555
C5_2 C4_2 1_555 1_555
C6_2 C4_2 1_555 1_555
H2_2 C6_2 1_555 1_555
C7_2 N1_2 1_555 1_555
C8_2 C2_2 1_555 1_555
H3_2 C8_2 1_555 1_555
C9_2 C10_2 1_555 1_555
C10_2 H4_2 1_555 1_555
C11_2 C10_2 1_555 1_555
C12_2 C11_2 1_555 1_555
C13_2 C11_2 1_555 1_555
H5_2 C13_2 1_555 1_555
C14_2 C13_2 1_555 1_555
C15_2 C14_2 1_555 1_555
C16_2 C9_2 1_555 1_555
H6_2 C16_2 1_555 1_555
C17_2 O9_2 1_555 1_555
C18_2 C17_2 1_555 1_555
C19_2 C18_2 1_555 1_555
H7_2 C19_2 1_555 1_555
Cu5_2 O7_2 1_555 1_555
Cu7_2 O8_2 1_555 1_555
Cu12_2 O6_2 1_555 1_555
O23_2 Cu1_2 1_555 1_555
O24_2 Cu2_2 1_555 1_555
O25_2 Cu1_2 1_555 1_555
O26_2 Cu2_2 1_555 1_555
O10_2 C17_2 1_555 1_555
C6_2 C7_2 1_555 1_555
C7_2 C8_2 1_555 1_555
C14_2 C16_2 1_555 1_555
O19_2 H13_2 1_555 1_555
O19_2 H14_2 1_555 1_555
O17_2 H17_2 1_555 1_555
O17_2 H18_2 1_555 1_555
O18_2 H19_2 1_555 1_555
O18_2 H20_2 1_555 1_555
O20_2 Cu9 1_555 1_555
O28_2 Cu9 1_555 1_555
O29_2 Cu9 1_555 1_555
O20_2 H15_2 1_555 1_555
O20_2 H16_2 1_555 1_555
Cu1_3 O1_3 1_555 1_555
Cu2_3 O2_3 1_555 1_555
Cu12_2 O4_3 1_555 1_555
N1_3 N2_3 1_555 1_555
N2_3 C9_3 1_555 1_555
N3_3 N4_3 1_555 1_555
N4_3 C25_3 1_555 1_555
O1_3 C1_3 1_555 1_555
O2_3 C1_3 1_555 1_555
O3_3 C5_3 1_555 1_555
O4_3 C5_3 1_555 1_555
O21 C12_3 1_555 1_555
O22 C12_3 1_555 1_555
O7_3 C15_3 1_555 1_555
O8_3 C15_3 1_555 1_555
O9_3 Cu1_3 1_555 1_555
O10_3 Cu2_3 1_555 1_555
O11_3 C21_3 1_555 1_555
O12_3 C21_3 1_555 1_555
O13_3 C28_3 1_555 1_555
O14_3 C28_3 1_555 1_555
O15_3 C31_3 1_555 1_555
O16_3 C31_3 1_555 1_555
O17_3 Cu1_3 1_555 1_555
O18_3 Cu2_3 1_555 1_555
O19_3 Cu12_2 1_555 1_555
C1_3 C2_3 1_555 1_555
C2_3 C3_3 1_555 1_555
C3_3 H1_3 1_555 1_555
C4_3 C3_3 1_555 1_555
C5_3 C4_3 1_555 1_555
C6_3 C4_3 1_555 1_555
H2_3 C6_3 1_555 1_555
C7_3 N1_3 1_555 1_555
C8_3 C2_3 1_555 1_555
H3_3 C8_3 1_555 1_555
C9_3 C10_3 1_555 1_555
C10_3 H4_3 1_555 1_555
C11_3 C10_3 1_555 1_555
C12_3 C11_3 1_555 1_555
C13_3 C11_3 1_555 1_555
H5_3 C13_3 1_555 1_555
C14_3 C13_3 1_555 1_555
C15_3 C14_3 1_555 1_555
C16_3 C9_3 1_555 1_555
H6_3 C16_3 1_555 1_555
C17_3 O9_3 1_555 1_555
C18_3 C17_3 1_555 1_555
C19_3 C18_3 1_555 1_555
H7_3 C19_3 1_555 1_555
C20_3 C19_3 1_555 1_555
C21_3 C20_3 1_555 1_555
C22_3 C20_3 1_555 1_555
H8_3 C22_3 1_555 1_555
C23_3 N3_3 1_555 1_555
C24_3 C18_3 1_555 1_555
H9_3 C24_3 1_555 1_555
C25_3 C26_3 1_555 1_555
C26_3 H10_3 1_555 1_555
C27_3 C26_3 1_555 1_555
C28_3 C27_3 1_555 1_555
C29_3 C27_3 1_555 1_555
H11_3 C29_3 1_555 1_555
C30_3 C29_3 1_555 1_555
C31_3 C30_3 1_555 1_555
C32_3 C25_3 1_555 1_555
H12_3 C32_3 1_555 1_555
Cu5_3 O7_3 1_555 1_555
Cu7_3 O8_3 1_555 1_555
Cu10_3 O14_3 1_555 1_555
Cu11_3 O15_3 1_555 1_555
Cu14_3 O16_3 1_555 1_555
O23_3 Cu1_3 1_555 1_555
O24_3 Cu2_3 1_555 1_555
O25_3 Cu1_3 1_555 1_555
O26_3 Cu2_3 1_555 1_555
O10_3 C17_3 1_555 1_555
C6_3 C7_3 1_555 1_555
C7_3 C8_3 1_555 1_555
C14_3 C16_3 1_555 1_555
C22_3 C23_3 1_555 1_555
C23_3 C24_3 1_555 1_555
C30_3 C32_3 1_555 1_555
O19_3 H13_3 1_555 1_555
O19_3 H14_3 1_555 1_555
O17_3 H17_3 1_555 1_555
O17_3 H18_3 1_555 1_555
O18_3 H19_3 1_555 1_555
O18_3 H20_3 1_555 1_555
O20_3 Cu9_2 1_555 1_555
O28_3 Cu9_2 1_555 1_555
O29_3 Cu9_2 1_555 1_555
O20_3 H15_3 1_555 1_555
O20_3 H16_3 1_555 1_555
Cu1_4 O1_4 1_555 1_555
Cu2_4 O2_4 1_555 1_555
Cu11_2 O3_4 1_555 1_555
Cu14_2 O4_4 1_555 1_555
N1_4 N2_4 1_555 1_555
N2_4 C9_4 1_555 1_555
N3_4 N4_4 1_555 1_555
N4_4 C25_4 1_555 1_555
O1_4 C1_4 1_555 1_555
O2_4 C1_4 1_555 1_555
O3_4 C5_4 1_555 1_555
O4_4 C5_4 1_555 1_555
O5_3 C12_4 1_555 1_555
O6_3 C12_4 1_555 1_555
O7_4 C15_4 1_555 1_555
O8_4 C15_4 1_555 1_555
O9_4 Cu1_4 1_555 1_555
O10_4 Cu2_4 1_555 1_555
O15_4 C31_4 1_555 1_555
O16_4 C31_4 1_555 1_555
O17_4 Cu1_4 1_555 1_555
O18_4 Cu2_4 1_555 1_555
O19_4 Cu14_2 1_555 1_555
O20_4 Cu11_2 1_555 1_555
C1_4 C2_4 1_555 1_555
C2_4 C3_4 1_555 1_555
C3_4 H1_4 1_555 1_555
C4_4 C3_4 1_555 1_555
C5_4 C4_4 1_555 1_555
C6_4 C4_4 1_555 1_555
H2_4 C6_4 1_555 1_555
C7_4 N1_4 1_555 1_555
C8_4 C2_4 1_555 1_555
H3_4 C8_4 1_555 1_555
C9_4 C10_4 1_555 1_555
C10_4 H4_4 1_555 1_555
C11_4 C10_4 1_555 1_555
C12_4 C11_4 1_555 1_555
C13_4 C11_4 1_555 1_555
H5_4 C13_4 1_555 1_555
C14_4 C13_4 1_555 1_555
C15_4 C14_4 1_555 1_555
C16_4 C9_4 1_555 1_555
H6_4 C16_4 1_555 1_555
C17_4 O9_4 1_555 1_555
C18_4 C17_4 1_555 1_555
C19_4 C18_4 1_555 1_555
H7_4 C19_4 1_555 1_555
C23_4 N3_4 1_555 1_555
C24_4 C18_4 1_555 1_555
H9_4 C24_4 1_555 1_555
H11_4 C29_4 1_555 1_555
C30_4 C29_4 1_555 1_555
C31_4 C30_4 1_555 1_555
C32_4 C25_4 1_555 1_555
H12_4 C32_4 1_555 1_555
Cu5_4 O7_4 1_555 1_555
Cu7_4 O8_4 1_555 1_555
Cu11_3 O5_3 1_555 1_555
Cu11_4 O15_4 1_555 1_555
Cu14_3 O6_3 1_555 1_555
Cu14_4 O16_4 1_555 1_555
O21_2 Cu11_2 1_555 1_555
O22_2 Cu14_2 1_555 1_555
O23_4 Cu1_4 1_555 1_555
O24_4 Cu2_4 1_555 1_555
O25_4 Cu1_4 1_555 1_555
O26_4 Cu2_4 1_555 1_555
O27_4 Cu14_2 1_555 1_555
O28_4 Cu11_2 1_555 1_555
O10_4 C17_4 1_555 1_555
C6_4 C7_4 1_555 1_555
C7_4 C8_4 1_555 1_555
C14_4 C16_4 1_555 1_555
C23_4 C24_4 1_555 1_555
C30_4 C32_4 1_555 1_555
O19_4 H13_4 1_555 1_555
O19_4 H14_4 1_555 1_555
O20_4 H15_4 1_555 1_555
O20_4 H16_4 1_555 1_555
O17_4 H17_4 1_555 1_555
O17_4 H18_4 1_555 1_555
O18_4 H19_4 1_555 1_555
O18_4 H20_4 1_555 1_555
O25_2 C21_4 1_555 1_555
O26_2 C21_4 1_555 1_555
O13_4 C28_4 1_555 1_555
O14_4 C28_4 1_555 1_555
C21_4 C20_4 1_555 1_555
C22_4 C20_4 1_555 1_555
H8_4 C22_4 1_555 1_555
C26_4 H10_4 1_555 1_555
C27_4 C26_4 1_555 1_555
C28_4 C27_4 1_555 1_555
Cu10_4 O14_4 1_555 1_555
Cu13_4 O13_4 1_555 1_555
Cu1_5 O1_5 1_555 1_555
Cu2_5 O2_5 1_555 1_555
Cu11_3 O3_5 1_555 1_555
Cu14_3 O4_5 1_555 1_555
N1_5 N2_5 1_555 1_555
N2_5 C9_5 1_555 1_555
N3_5 N4_5 1_555 1_555
N4_5 C25_5 1_555 1_555
O1_5 C1_5 1_555 1_555
O2_5 C1_5 1_555 1_555
O3_5 C5_5 1_555 1_555
O4_5 C5_5 1_555 1_555
O5_4 C12_5 1_555 1_555
O6_4 C12_5 1_555 1_555
O7_5 C15_5 1_555 1_555
O8_5 C15_5 1_555 1_555
O9_5 Cu1_5 1_555 1_555
O10_5 Cu2_5 1_555 1_555
O25_3 C21_5 1_555 1_555
O26_3 C21_5 1_555 1_555
O13_5 C28_5 1_555 1_555
O14_5 C28_5 1_555 1_555
O15_5 C31_5 1_555 1_555
O16_5 C31_5 1_555 1_555
O17_5 Cu1_5 1_555 1_555
O18_5 Cu2_5 1_555 1_555
O19_5 Cu14_3 1_555 1_555
O20_5 Cu11_3 1_555 1_555
C1_5 C2_5 1_555 1_555
C2_5 C3_5 1_555 1_555
C3_5 H1_5 1_555 1_555
C4_5 C3_5 1_555 1_555
C5_5 C4_5 1_555 1_555
C6_5 C4_5 1_555 1_555
H2_5 C6_5 1_555 1_555
C7_5 N1_5 1_555 1_555
C8_5 C2_5 1_555 1_555
H3_5 C8_5 1_555 1_555
C9_5 C10_5 1_555 1_555
C10_5 H4_5 1_555 1_555
C11_5 C10_5 1_555 1_555
C12_5 C11_5 1_555 1_555
C13_5 C11_5 1_555 1_555
H5_5 C13_5 1_555 1_555
C14_5 C13_5 1_555 1_555
C15_5 C14_5 1_555 1_555
C16_5 C9_5 1_555 1_555
H6_5 C16_5 1_555 1_555
C17_5 O9_5 1_555 1_555
C18_5 C17_5 1_555 1_555
C19_5 C18_5 1_555 1_555
H7_5 C19_5 1_555 1_555
C20_5 C19_5 1_555 1_555
C21_5 C20_5 1_555 1_555
C22_5 C20_5 1_555 1_555
H8_5 C22_5 1_555 1_555
C23_5 N3_5 1_555 1_555
C24_5 C18_5 1_555 1_555
H9_5 C24_5 1_555 1_555
C25_5 C26_5 1_555 1_555
C26_5 H10_5 1_555 1_555
C27_5 C26_5 1_555 1_555
C28_5 C27_5 1_555 1_555
C29_5 C27_5 1_555 1_555
H11_5 C29_5 1_555 1_555
C30_5 C29_5 1_555 1_555
C31_5 C30_5 1_555 1_555
C32_5 C25_5 1_555 1_555
H12_5 C32_5 1_555 1_555
Cu5_5 O7_5 1_555 1_555
Cu7_5 O8_5 1_555 1_555
Cu11 O5_4 1_555 1_555
Cu10_5 O14_5 1_555 1_555
Cu11_5 O15_5 1_555 1_555
Cu14 O6_4 1_555 1_555
Cu13_5 O13_5 1_555 1_555
Cu14_5 O16_5 1_555 1_555
O23_5 Cu1_5 1_555 1_555
O24_5 Cu2_5 1_555 1_555
O25_5 Cu1_5 1_555 1_555
O26_5 Cu2_5 1_555 1_555
O27_5 Cu14_3 1_555 1_555
O28_5 Cu11_3 1_555 1_555
O10_5 C17_5 1_555 1_555
C6_5 C7_5 1_555 1_555
C7_5 C8_5 1_555 1_555
C14_5 C16_5 1_555 1_555
C22_5 C23_5 1_555 1_555
C23_5 C24_5 1_555 1_555
C30_5 C32_5 1_555 1_555
O19_5 H13_5 1_555 1_555
O19_5 H14_5 1_555 1_555
O20_5 H15_5 1_555 1_555
O20_5 H16_5 1_555 1_555
O17_5 H17_5 1_555 1_555
O17_5 H18_5 1_555 1_555
O18_5 H19_5 1_555 1_555
O18_5 H20_5 1_555 1_555
O25 C21_6 1_555 1_555
O26 C21_6 1_555 1_555
O13_6 C28_6 1_555 1_555
O14_6 C28_6 1_555 1_555
C21_6 C20_6 1_555 1_555
C22_6 C20_6 1_555 1_555
H8_6 C22_6 1_555 1_555
C26_6 H10_6 1_555 1_555
C27_6 C26_6 1_555 1_555
C28_6 C27_6 1_555 1_555
Cu10_6 O14_6 1_555 1_555
Cu13_6 O13_6 1_555 1_555
Cu1_6 O1_6 1_555 1_555
Cu2_6 O2_6 1_555 1_555
Cu11 O3_6 1_555 1_555
Cu14 O4_6 1_555 1_555
N1_6 N2_6 1_555 1_555
N2_6 C9_6 1_555 1_555
N3_6 N4_6 1_555 1_555
N4_6 C25_6 1_555 1_555
O1_6 C1_6 1_555 1_555
O2_6 C1_6 1_555 1_555
O3_6 C5_6 1_555 1_555
O4_6 C5_6 1_555 1_555
O21_2 C12_6 1_555 1_555
O22_2 C12_6 1_555 1_555
O7_6 C15_6 1_555 1_555
O8_6 C15_6 1_555 1_555
O9_6 Cu1_6 1_555 1_555
O10_6 Cu2_6 1_555 1_555
O15_6 C31_6 1_555 1_555
O16_6 C31_6 1_555 1_555
O17_6 Cu1_6 1_555 1_555
O18_6 Cu2_6 1_555 1_555
O19_6 Cu14 1_555 1_555
O20_6 Cu11 1_555 1_555
C1_6 C2_6 1_555 1_555
C2_6 C3_6 1_555 1_555
C3_6 H1_6 1_555 1_555
C4_6 C3_6 1_555 1_555
C5_6 C4_6 1_555 1_555
C6_6 C4_6 1_555 1_555
H2_6 C6_6 1_555 1_555
C7_6 N1_6 1_555 1_555
C8_6 C2_6 1_555 1_555
H3_6 C8_6 1_555 1_555
C9_6 C10_6 1_555 1_555
C10_6 H4_6 1_555 1_555
C11_6 C10_6 1_555 1_555
C12_6 C11_6 1_555 1_555
C13_6 C11_6 1_555 1_555
H5_6 C13_6 1_555 1_555
C14_6 C13_6 1_555 1_555
C15_6 C14_6 1_555 1_555
C16_6 C9_6 1_555 1_555
H6_6 C16_6 1_555 1_555
C17_6 O9_6 1_555 1_555
C18_6 C17_6 1_555 1_555
C19_6 C18_6 1_555 1_555
H7_6 C19_6 1_555 1_555
C23_6 N3_6 1_555 1_555
C24_6 C18_6 1_555 1_555
H9_6 C24_6 1_555 1_555
H11_6 C29_6 1_555 1_555
C30_6 C29_6 1_555 1_555
C31_6 C30_6 1_555 1_555
C32_6 C25_6 1_555 1_555
H12_6 C32_6 1_555 1_555
Cu5_6 O7_6 1_555 1_555
Cu7_6 O8_6 1_555 1_555
Cu11_6 O15_6 1_555 1_555
Cu14_6 O16_6 1_555 1_555
O23_6 Cu1_6 1_555 1_555
O24_6 Cu2_6 1_555 1_555
O25_6 Cu1_6 1_555 1_555
O26_6 Cu2_6 1_555 1_555
O27_6 Cu14 1_555 1_555
O28_6 Cu11 1_555 1_555
O10_6 C17_6 1_555 1_555
C6_6 C7_6 1_555 1_555
C7_6 C8_6 1_555 1_555
C14_6 C16_6 1_555 1_555
C23_6 C24_6 1_555 1_555
C30_6 C32_6 1_555 1_555
O19_6 H13_6 1_555 1_555
O19_6 H14_6 1_555 1_555
O20_6 H15_6 1_555 1_555
O20_6 H16_6 1_555 1_555
O17_6 H17_6 1_555 1_555
O17_6 H18_6 1_555 1_555
O18_6 H19_6 1_555 1_555
O18_6 H20_6 1_555 1_555
O5_5 C12_7 1_555 1_555
O6_5 C12_7 1_555 1_555
C12_7 C11_7 1_555 1_555
C13_7 C11_7 1_555 1_555
H5_7 C13_7 1_555 1_555
Cu11_6 O5_5 1_555 1_555
Cu14_6 O6_5 1_555 1_555
O17_7 H17_7 1_555 1_555
O17_7 H18_7 1_555 1_555
Cu6_3 O1_7 1_555 1_555
Cu8_3 O2_7 1_555 1_555
Cu11_5 O3_7 1_555 1_555
Cu14_5 O4_7 1_555 1_555
N1_7 N2_7 1_555 1_555
N2_7 C9_7 1_555 1_555
N3_7 N4_7 1_555 1_555
N4_7 C25_7 1_555 1_555
O1_7 C1_7 1_555 1_555
O2_7 C1_7 1_555 1_555
O3_7 C5_7 1_555 1_555
O4_7 C5_7 1_555 1_555
O8_7 C15_7 1_555 1_555
O9_7 Cu6_3 1_555 1_555
O10_7 Cu8_3 1_555 1_555
O25_5 C21_7 1_555 1_555
O26_5 C21_7 1_555 1_555
O13_7 C28_7 1_555 1_555
O14_7 C28_7 1_555 1_555
O29_3 C31_7 1_555 1_555
O30_3 C31_7 1_555 1_555
O18_7 Cu8_3 1_555 1_555
O19_7 Cu14_5 1_555 1_555
O20_7 Cu11_5 1_555 1_555
C1_7 C2_7 1_555 1_555
C2_7 C3_7 1_555 1_555
C3_7 H1_7 1_555 1_555
C4_7 C3_7 1_555 1_555
C5_7 C4_7 1_555 1_555
C6_7 C4_7 1_555 1_555
H2_7 C6_7 1_555 1_555
C7_7 N1_7 1_555 1_555
C8_7 C2_7 1_555 1_555
H3_7 C8_7 1_555 1_555
C9_7 C10_7 1_555 1_555
C10_7 H4_7 1_555 1_555
C15_7 C14_7 1_555 1_555
C16_7 C9_7 1_555 1_555
H6_7 C16_7 1_555 1_555
C17_7 O9_7 1_555 1_555
C18_7 C17_7 1_555 1_555
C19_7 C18_7 1_555 1_555
H7_7 C19_7 1_555 1_555
C20_7 C19_7 1_555 1_555
C21_7 C20_7 1_555 1_555
C22_7 C20_7 1_555 1_555
H8_7 C22_7 1_555 1_555
C23_7 N3_7 1_555 1_555
C24_7 C18_7 1_555 1_555
H9_7 C24_7 1_555 1_555
C25_7 C26_7 1_555 1_555
C26_7 H10_7 1_555 1_555
C27_7 C26_7 1_555 1_555
C28_7 C27_7 1_555 1_555
C29_7 C27_7 1_555 1_555
H11_7 C29_7 1_555 1_555
C30_7 C29_7 1_555 1_555
C31_7 C30_7 1_555 1_555
C32_7 C25_7 1_555 1_555
H12_7 C32_7 1_555 1_555
Cu10_7 O14_7 1_555 1_555
Cu13_7 O13_7 1_555 1_555
O21_3 Cu11_5 1_555 1_555
O22_3 Cu14_5 1_555 1_555
O27_7 Cu14_5 1_555 1_555
O28_7 Cu11_5 1_555 1_555
O10_7 C17_7 1_555 1_555
C6_7 C7_7 1_555 1_555
C7_7 C8_7 1_555 1_555
C14_7 C16_7 1_555 1_555
C22_7 C23_7 1_555 1_555
C23_7 C24_7 1_555 1_555
C30_7 C32_7 1_555 1_555
O19_7 H13_7 1_555 1_555
O19_7 H14_7 1_555 1_555
O20_7 H15_7 1_555 1_555
O20_7 H16_7 1_555 1_555
O18_7 H19_7 1_555 1_555
O18_7 H20_7 1_555 1_555
O17_8 H17_8 1_555 1_555
O17_8 H18_8 1_555 1_555
Cu6 O1_8 1_555 1_555
N1_8 N2_8 1_555 1_555
N2_8 C9_8 1_555 1_555
N3_8 N4_8 1_555 1_555
N4_8 C25_8 1_555 1_555
O1_8 C1_8 1_555 1_555
O5_6 C12_8 1_555 1_555
O6_6 C12_8 1_555 1_555
O7_8 C15_8 1_555 1_555
O8_8 C15_8 1_555 1_555
O9_8 Cu6 1_555 1_555
O13_8 C28_8 1_555 1_555
O14_8 C28_8 1_555 1_555
O29 C31_8 1_555 1_555
O30 C31_8 1_555 1_555
C1_8 C2_8 1_555 1_555
H2_8 C6_8 1_555 1_555
C7_8 N1_8 1_555 1_555
C8_8 C2_8 1_555 1_555
H3_8 C8_8 1_555 1_555
C9_8 C10_8 1_555 1_555
C10_8 H4_8 1_555 1_555
C11_8 C10_8 1_555 1_555
C12_8 C11_8 1_555 1_555
C13_8 C11_8 1_555 1_555
H5_8 C13_8 1_555 1_555
C14_8 C13_8 1_555 1_555
C15_8 C14_8 1_555 1_555
C16_8 C9_8 1_555 1_555
H6_8 C16_8 1_555 1_555
C17_8 O9_8 1_555 1_555
C18_8 C17_8 1_555 1_555
H8_8 C22_8 1_555 1_555
C23_8 N3_8 1_555 1_555
C24_8 C18_8 1_555 1_555
H9_8 C24_8 1_555 1_555
C25_8 C26_8 1_555 1_555
C26_8 H10_8 1_555 1_555
C27_8 C26_8 1_555 1_555
C28_8 C27_8 1_555 1_555
C29_8 C27_8 1_555 1_555
H11_8 C29_8 1_555 1_555
C30_8 C29_8 1_555 1_555
C31_8 C30_8 1_555 1_555
C32_8 C25_8 1_555 1_555
H12_8 C32_8 1_555 1_555
Cu11_4 O5_6 1_555 1_555
Cu10_8 O14_8 1_555 1_555
Cu14_4 O6_6 1_555 1_555
Cu13_8 O13_8 1_555 1_555
C6_8 C7_8 1_555 1_555
C7_8 C8_8 1_555 1_555
C14_8 C16_8 1_555 1_555
C22_8 C23_8 1_555 1_555
C23_8 C24_8 1_555 1_555
C30_8 C32_8 1_555 1_555
Cu8 O2_8 1_555 1_555
Cu11_6 O3_8 1_555 1_555
Cu14_6 O4_8 1_555 1_555
O3_8 C5_8 1_555 1_555
O4_8 C5_8 1_555 1_555
O10_8 Cu8 1_555 1_555
O25_6 C21_8 1_555 1_555
O26_6 C21_8 1_555 1_555
O18_8 Cu8 1_555 1_555
O19_8 Cu14_6 1_555 1_555
O20_8 Cu11_6 1_555 1_555
C3_8 H1_8 1_555 1_555
C4_8 C3_8 1_555 1_555
C5_8 C4_8 1_555 1_555
H7_8 C19_8 1_555 1_555
C20_8 C19_8 1_555 1_555
C21_8 C20_8 1_555 1_555
O27_8 Cu14_6 1_555 1_555
O28_8 Cu11_6 1_555 1_555
O19_8 H13_8 1_555 1_555
O19_8 H14_8 1_555 1_555
O20_8 H15_8 1_555 1_555
O20_8 H16_8 1_555 1_555
O18_8 H19_8 1_555 1_555
O18_8 H20_8 1_555 1_555
Cu8_2 O2_9 1_555 1_555
Cu11_4 O3_9 1_555 1_555
Cu14_4 O4_9 1_555 1_555
O3_9 C5_9 1_555 1_555
O4_9 C5_9 1_555 1_555
O10_9 Cu8_2 1_555 1_555
O25_4 C21_9 1_555 1_555
O26_4 C21_9 1_555 1_555
O18_9 Cu8_2 1_555 1_555
O19_9 Cu14_4 1_555 1_555
O20_9 Cu11_4 1_555 1_555
C3_9 H1_9 1_555 1_555
C4_9 C3_9 1_555 1_555
C5_9 C4_9 1_555 1_555
H7_9 C19_9 1_555 1_555
C20_9 C19_9 1_555 1_555
C21_9 C20_9 1_555 1_555
O27_9 Cu14_4 1_555 1_555
O28_9 Cu11_4 1_555 1_555
O19_9 H13_9 1_555 1_555
O19_9 H14_9 1_555 1_555
O20_9 H15_9 1_555 1_555
O20_9 H16_9 1_555 1_555
O18_9 H19_9 1_555 1_555
O18_9 H20_9 1_555 1_555
O17_9 H17_9 1_555 1_555
O17_9 H18_9 1_555 1_555
Cu6_2 O1_9 1_555 1_555
N1_9 N2_9 1_555 1_555
N2_9 C9_9 1_555 1_555
N3_9 N4_9 1_555 1_555
N4_9 C25_9 1_555 1_555
O1_9 C1_9 1_555 1_555
O8_9 C15_9 1_555 1_555
O9_9 Cu6_2 1_555 1_555
O13_9 C28_9 1_555 1_555
O14_9 C28_9 1_555 1_555
O29_2 C31_9 1_555 1_555
O30_2 C31_9 1_555 1_555
C1_9 C2_9 1_555 1_555
H2_9 C6_9 1_555 1_555
C7_9 N1_9 1_555 1_555
C8_9 C2_9 1_555 1_555
H3_9 C8_9 1_555 1_555
C9_9 C10_9 1_555 1_555
C10_9 H4_9 1_555 1_555
C15_9 C14_9 1_555 1_555
C16_9 C9_9 1_555 1_555
H6_9 C16_9 1_555 1_555
C17_9 O9_9 1_555 1_555
C18_9 C17_9 1_555 1_555
H8_9 C22_9 1_555 1_555
C23_9 N3_9 1_555 1_555
C24_9 C18_9 1_555 1_555
H9_9 C24_9 1_555 1_555
C25_9 C26_9 1_555 1_555
C26_9 H10_9 1_555 1_555
C27_9 C26_9 1_555 1_555
C28_9 C27_9 1_555 1_555
C29_9 C27_9 1_555 1_555
H11_9 C29_9 1_555 1_555
C30_9 C29_9 1_555 1_555
C31_9 C30_9 1_555 1_555
C32_9 C25_9 1_555 1_555
H12_9 C32_9 1_555 1_555
Cu10_9 O14_9 1_555 1_555
Cu13_9 O13_9 1_555 1_555
C6_9 C7_9 1_555 1_555
C7_9 C8_9 1_555 1_555
C14_9 C16_9 1_555 1_555
C22_9 C23_9 1_555 1_555
C23_9 C24_9 1_555 1_555
C30_9 C32_9 1_555 1_555
O21_3 C12_9 1_555 1_555
O22_3 C12_9 1_555 1_555
C12_9 C11_9 1_555 1_555
C13_9 C11_9 1_555 1_555
H5_9 C13_9 1_555 1_555
N3_10 N4_10 1_555 1_555
N4_10 C25_10 1_555 1_555
O12_4 C21_10 1_555 1_555
O27_2 C28_10 1_555 1_555
O28_2 C28_10 1_555 1_555
O15_7 C31_10 1_555 1_555
O16_7 C31_10 1_555 1_555
C21_10 C20_10 1_555 1_555
C22_10 C20_10 1_555 1_555
H8_10 C22_10 1_555 1_555
C23_10 N3_10 1_555 1_555
H9_10 C24_10 1_555 1_555
C25_10 C26_10 1_555 1_555
C26_10 H10_10 1_555 1_555
C27_10 C26_10 1_555 1_555
C28_10 C27_10 1_555 1_555
C29_10 C27_10 1_555 1_555
H11_10 C29_10 1_555 1_555
C30_10 C29_10 1_555 1_555
C31_10 C30_10 1_555 1_555
C32_10 C25_10 1_555 1_555
H12_10 C32_10 1_555 1_555
Cu10_8 O15_7 1_555 1_555
Cu13_8 O16_7 1_555 1_555
C22_10 C23_10 1_555 1_555
C23_10 C24_10 1_555 1_555
C30_10 C32_10 1_555 1_555
O20_10 Cu10_3 1_555 1_555
O29_4 Cu10_3 1_555 1_555
O20_10 H15_10 1_555 1_555
O20_10 H16_10 1_555 1_555
Cu5_5 O1_10 1_555 1_555
Cu7_5 O2_10 1_555 1_555
Cu13_3 O4_10 1_555 1_555
N1_10 N2_10 1_555 1_555
N2_10 C9_10 1_555 1_555
O1_10 C1_10 1_555 1_555
O2_10 C1_10 1_555 1_555
O3_10 C5_10 1_555 1_555
O4_10 C5_10 1_555 1_555
O5_7 C12_10 1_555 1_555
O6_7 C12_10 1_555 1_555
O23_6 C15_10 1_555 1_555
O24_6 C15_10 1_555 1_555
O9_10 Cu5_5 1_555 1_555
O10_10 Cu7_5 1_555 1_555
O17_10 Cu5_5 1_555 1_555
O18_10 Cu7_5 1_555 1_555
O19_10 Cu13_3 1_555 1_555
C1_10 C2_10 1_555 1_555
C2_10 C3_10 1_555 1_555
C3_10 H1_10 1_555 1_555
C4_10 C3_10 1_555 1_555
C5_10 C4_10 1_555 1_555
C6_10 C4_10 1_555 1_555
H2_10 C6_10 1_555 1_555
C7_10 N1_10 1_555 1_555
C8_10 C2_10 1_555 1_555
H3_10 C8_10 1_555 1_555
C9_10 C10_10 1_555 1_555
C10_10 H4_10 1_555 1_555
C11_10 C10_10 1_555 1_555
C12_10 C11_10 1_555 1_555
C13_10 C11_10 1_555 1_555
H5_10 C13_10 1_555 1_555
C14_10 C13_10 1_555 1_555
C15_10 C14_10 1_555 1_555
C16_10 C9_10 1_555 1_555
H6_10 C16_10 1_555 1_555
C17_10 O9_10 1_555 1_555
C18_10 C17_10 1_555 1_555
C19_10 C18_10 1_555 1_555
H7_10 C19_10 1_555 1_555
Cu13 O6_7 1_555 1_555
O22_4 Cu13_3 1_555 1_555
O25_7 Cu5_5 1_555 1_555
O26_7 Cu7_5 1_555 1_555
O10_10 C17_10 1_555 1_555
C6_10 C7_10 1_555 1_555
C7_10 C8_10 1_555 1_555
C14_10 C16_10 1_555 1_555
O19_10 H13_10 1_555 1_555
O19_10 H14_10 1_555 1_555
O17_10 H17_10 1_555 1_555
O17_10 H18_10 1_555 1_555
O18_10 H19_10 1_555 1_555
O18_10 H20_10 1_555 1_555
O20_11 Cu10 1_555 1_555
O29_5 Cu10 1_555 1_555
O20_11 H15_11 1_555 1_555
O20_11 H16_11 1_555 1_555
Cu5_6 O1_11 1_555 1_555
Cu7_6 O2_11 1_555 1_555
Cu13 O4_11 1_555 1_555
N1_11 N2_11 1_555 1_555
N2_11 C9_11 1_555 1_555
O1_11 C1_11 1_555 1_555
O2_11 C1_11 1_555 1_555
O3_11 C5_11 1_555 1_555
O4_11 C5_11 1_555 1_555
O5_8 C12_11 1_555 1_555
O6_8 C12_11 1_555 1_555
O23_4 C15_11 1_555 1_555
O24_4 C15_11 1_555 1_555
O9_11 Cu5_6 1_555 1_555
O10_11 Cu7_6 1_555 1_555
O17_11 Cu5_6 1_555 1_555
O18_11 Cu7_6 1_555 1_555
O19_11 Cu13 1_555 1_555
C1_11 C2_11 1_555 1_555
C2_11 C3_11 1_555 1_555
C3_11 H1_11 1_555 1_555
C4_11 C3_11 1_555 1_555
C5_11 C4_11 1_555 1_555
C6_11 C4_11 1_555 1_555
H2_11 C6_11 1_555 1_555
C7_11 N1_11 1_555 1_555
C8_11 C2_11 1_555 1_555
H3_11 C8_11 1_555 1_555
C9_11 C10_11 1_555 1_555
C10_11 H4_11 1_555 1_555
C11_11 C10_11 1_555 1_555
C12_11 C11_11 1_555 1_555
C13_11 C11_11 1_555 1_555
H5_11 C13_11 1_555 1_555
C14_11 C13_11 1_555 1_555
C15_11 C14_11 1_555 1_555
C16_11 C9_11 1_555 1_555
H6_11 C16_11 1_555 1_555
C17_11 O9_11 1_555 1_555
C18_11 C17_11 1_555 1_555
C19_11 C18_11 1_555 1_555
H7_11 C19_11 1_555 1_555
Cu13_2 O6_8 1_555 1_555
O25_8 Cu5_6 1_555 1_555
O26_8 Cu7_6 1_555 1_555
O10_11 C17_11 1_555 1_555
C6_11 C7_11 1_555 1_555
C7_11 C8_11 1_555 1_555
C14_11 C16_11 1_555 1_555
O19_11 H13_11 1_555 1_555
O19_11 H14_11 1_555 1_555
O17_11 H17_11 1_555 1_555
O17_11 H18_11 1_555 1_555
O18_11 H19_11 1_555 1_555
O18_11 H20_11 1_555 1_555
N3_11 N4_11 1_555 1_555
N4_11 C25_11 1_555 1_555
O12_5 C21_11 1_555 1_555
O27_3 C28_11 1_555 1_555
O28_3 C28_11 1_555 1_555
O15_8 C31_11 1_555 1_555
O16_8 C31_11 1_555 1_555
C21_11 C20_11 1_555 1_555
C22_11 C20_11 1_555 1_555
H8_11 C22_11 1_555 1_555
C23_11 N3_11 1_555 1_555
H9_11 C24_11 1_555 1_555
C25_11 C26_11 1_555 1_555
C26_11 H10_11 1_555 1_555
C27_11 C26_11 1_555 1_555
C28_11 C27_11 1_555 1_555
C29_11 C27_11 1_555 1_555
H11_11 C29_11 1_555 1_555
C30_11 C29_11 1_555 1_555
C31_11 C30_11 1_555 1_555
C32_11 C25_11 1_555 1_555
H12_11 C32_11 1_555 1_555
Cu10_9 O15_8 1_555 1_555
Cu13_9 O16_8 1_555 1_555
C22_11 C23_11 1_555 1_555
C23_11 C24_11 1_555 1_555
C30_11 C32_11 1_555 1_555
O20_12 Cu10_2 1_555 1_555
O29_6 Cu10_2 1_555 1_555
O20_12 H15_12 1_555 1_555
O20_12 H16_12 1_555 1_555
Cu5_4 O1_12 1_555 1_555
Cu7_4 O2_12 1_555 1_555
Cu13_2 O4_12 1_555 1_555
N1_12 N2_12 1_555 1_555
N2_12 C9_12 1_555 1_555
N3_12 N4_12 1_555 1_555
N4_12 C25_12 1_555 1_555
O1_12 C1_12 1_555 1_555
O2_12 C1_12 1_555 1_555
O3_12 C5_12 1_555 1_555
O4_12 C5_12 1_555 1_555
O21_4 C12_12 1_555 1_555
O22_4 C12_12 1_555 1_555
O23_5 C15_12 1_555 1_555
O24_5 C15_12 1_555 1_555
O9_12 Cu5_4 1_555 1_555
O10_12 Cu7_4 1_555 1_555
O11_6 C21_12 1_555 1_555
O12_6 C21_12 1_555 1_555
O27 C28_12 1_555 1_555
O28 C28_12 1_555 1_555
O15_9 C31_12 1_555 1_555
O16_9 C31_12 1_555 1_555
O17_12 Cu5_4 1_555 1_555
O18_12 Cu7_4 1_555 1_555
O19_12 Cu13_2 1_555 1_555
C1_12 C2_12 1_555 1_555
C2_12 C3_12 1_555 1_555
C3_12 H1_12 1_555 1_555
C4_12 C3_12 1_555 1_555
C5_12 C4_12 1_555 1_555
C6_12 C4_12 1_555 1_555
H2_12 C6_12 1_555 1_555
C7_12 N1_12 1_555 1_555
C8_12 C2_12 1_555 1_555
H3_12 C8_12 1_555 1_555
C9_12 C10_12 1_555 1_555
C10_12 H4_12 1_555 1_555
C11_12 C10_12 1_555 1_555
C12_12 C11_12 1_555 1_555
C13_12 C11_12 1_555 1_555
H5_12 C13_12 1_555 1_555
C14_12 C13_12 1_555 1_555
C15_12 C14_12 1_555 1_555
C16_12 C9_12 1_555 1_555
H6_12 C16_12 1_555 1_555
C17_12 O9_12 1_555 1_555
C18_12 C17_12 1_555 1_555
C19_12 C18_12 1_555 1_555
H7_12 C19_12 1_555 1_555
C20_12 C19_12 1_555 1_555
C21_12 C20_12 1_555 1_555
C22_12 C20_12 1_555 1_555
H8_12 C22_12 1_555 1_555
C23_12 N3_12 1_555 1_555
C24_12 C18_12 1_555 1_555
H9_12 C24_12 1_555 1_555
C25_12 C26_12 1_555 1_555
C26_12 H10_12 1_555 1_555
C27_12 C26_12 1_555 1_555
C28_12 C27_12 1_555 1_555
C29_12 C27_12 1_555 1_555
H11_12 C29_12 1_555 1_555
C30_12 C29_12 1_555 1_555
C31_12 C30_12 1_555 1_555
C32_12 C25_12 1_555 1_555
H12_12 C32_12 1_555 1_555
Cu10_7 O15_9 1_555 1_555
Cu13_7 O16_9 1_555 1_555
O25_9 Cu5_4 1_555 1_555
O26_9 Cu7_4 1_555 1_555
O10_12 C17_12 1_555 1_555
C6_12 C7_12 1_555 1_555
C7_12 C8_12 1_555 1_555
C14_12 C16_12 1_555 1_555
C22_12 C23_12 1_555 1_555
C23_12 C24_12 1_555 1_555
C30_12 C32_12 1_555 1_555
O19_12 H13_12 1_555 1_555
O19_12 H14_12 1_555 1_555
O17_12 H17_12 1_555 1_555
O17_12 H18_12 1_555 1_555
O18_12 H19_12 1_555 1_555
O18_12 H20_12 1_555 1_555
O25_8 C21_13 1_555 1_555
O26_8 C21_13 1_555 1_555
O27_8 C28_13 1_555 1_555
O28_8 C28_13 1_555 1_555
C21_13 C20_13 1_555 1_555
C22_13 C20_13 1_555 1_555
H8_13 C22_13 1_555 1_555
C26_13 H10_13 1_555 1_555
C27_13 C26_13 1_555 1_555
C28_13 C27_13 1_555 1_555
Cu5_2 O1_13 1_555 1_555
Cu7_2 O2_13 1_555 1_555
Cu10_9 O3_13 1_555 1_555
Cu13_9 O4_13 1_555 1_555
N1_13 N2_13 1_555 1_555
N2_13 C9_13 1_555 1_555
N3_13 N4_13 1_555 1_555
N4_13 C25_13 1_555 1_555
O1_13 C1_13 1_555 1_555
O2_13 C1_13 1_555 1_555
O3_13 C5_13 1_555 1_555
O4_13 C5_13 1_555 1_555
O5_9 C12_13 1_555 1_555
O6_9 C12_13 1_555 1_555
O23_3 C15_13 1_555 1_555
O24_3 C15_13 1_555 1_555
O9_13 Cu5_2 1_555 1_555
O10_13 Cu7_2 1_555 1_555
O15_10 C31_13 1_555 1_555
O16_10 C31_13 1_555 1_555
O17_13 Cu5_2 1_555 1_555
O18_13 Cu7_2 1_555 1_555
O19_13 Cu13_9 1_555 1_555
O20_13 Cu10_9 1_555 1_555
C1_13 C2_13 1_555 1_555
C2_13 C3_13 1_555 1_555
C3_13 H1_13 1_555 1_555
C4_13 C3_13 1_555 1_555
C5_13 C4_13 1_555 1_555
C6_13 C4_13 1_555 1_555
H2_13 C6_13 1_555 1_555
C7_13 N1_13 1_555 1_555
C8_13 C2_13 1_555 1_555
H3_13 C8_13 1_555 1_555
C9_13 C10_13 1_555 1_555
C10_13 H4_13 1_555 1_555
C11_13 C10_13 1_555 1_555
C12_13 C11_13 1_555 1_555
C13_13 C11_13 1_555 1_555
H5_13 C13_13 1_555 1_555
C14_13 C13_13 1_555 1_555
C15_13 C14_13 1_555 1_555
C16_13 C9_13 1_555 1_555
H6_13 C16_13 1_555 1_555
C17_13 O9_13 1_555 1_555
C18_13 C17_13 1_555 1_555
C19_13 C18_13 1_555 1_555
H7_13 C19_13 1_555 1_555
C23_13 N3_13 1_555 1_555
C24_13 C18_13 1_555 1_555
H9_13 C24_13 1_555 1_555
H11_13 C29_13 1_555 1_555
C30_13 C29_13 1_555 1_555
C31_13 C30_13 1_555 1_555
C32_13 C25_13 1_555 1_555
H12_13 C32_13 1_555 1_555
Cu10_7 O5_9 1_555 1_555
Cu10_5 O15_10 1_555 1_555
Cu13_7 O6_9 1_555 1_555
Cu13_5 O16_10 1_555 1_555
O21_5 Cu10_9 1_555 1_555
O22_5 Cu13_9 1_555 1_555
O25_10 Cu5_2 1_555 1_555
O26_10 Cu7_2 1_555 1_555
O10_13 C17_13 1_555 1_555
C6_13 C7_13 1_555 1_555
C7_13 C8_13 1_555 1_555
C14_13 C16_13 1_555 1_555
C23_13 C24_13 1_555 1_555
C30_13 C32_13 1_555 1_555
O19_13 H13_13 1_555 1_555
O19_13 H14_13 1_555 1_555
O20_13 H15_13 1_555 1_555
O20_13 H16_13 1_555 1_555
O17_13 H17_13 1_555 1_555
O17_13 H18_13 1_555 1_555
O18_13 H19_13 1_555 1_555
O18_13 H20_13 1_555 1_555
Cu5_3 O1_14 1_555 1_555
Cu7_3 O2_14 1_555 1_555
Cu10_7 O3_14 1_555 1_555
Cu13_7 O4_14 1_555 1_555
N1_14 N2_14 1_555 1_555
N2_14 C9_14 1_555 1_555
N3_14 N4_14 1_555 1_555
N4_14 C25_14 1_555 1_555
O1_14 C1_14 1_555 1_555
O2_14 C1_14 1_555 1_555
O3_14 C5_14 1_555 1_555
O4_14 C5_14 1_555 1_555
O5_10 C12_14 1_555 1_555
O6_10 C12_14 1_555 1_555
O23 C15_14 1_555 1_555
O24 C15_14 1_555 1_555
O9_14 Cu5_3 1_555 1_555
O10_14 Cu7_3 1_555 1_555
O25_9 C21_14 1_555 1_555
O26_9 C21_14 1_555 1_555
O27_9 C28_14 1_555 1_555
O28_9 C28_14 1_555 1_555
O15_11 C31_14 1_555 1_555
O16_11 C31_14 1_555 1_555
O17_14 Cu5_3 1_555 1_555
O18_14 Cu7_3 1_555 1_555
O19_14 Cu13_7 1_555 1_555
O20_14 Cu10_7 1_555 1_555
C1_14 C2_14 1_555 1_555
C2_14 C3_14 1_555 1_555
C3_14 H1_14 1_555 1_555
C4_14 C3_14 1_555 1_555
C5_14 C4_14 1_555 1_555
C6_14 C4_14 1_555 1_555
H2_14 C6_14 1_555 1_555
C7_14 N1_14 1_555 1_555
C8_14 C2_14 1_555 1_555
H3_14 C8_14 1_555 1_555
C9_14 C10_14 1_555 1_555
C10_14 H4_14 1_555 1_555
C11_14 C10_14 1_555 1_555
C12_14 C11_14 1_555 1_555
C13_14 C11_14 1_555 1_555
H5_14 C13_14 1_555 1_555
C14_14 C13_14 1_555 1_555
C15_14 C14_14 1_555 1_555
C16_14 C9_14 1_555 1_555
H6_14 C16_14 1_555 1_555
C17_14 O9_14 1_555 1_555
C18_14 C17_14 1_555 1_555
C19_14 C18_14 1_555 1_555
H7_14 C19_14 1_555 1_555
C20_14 C19_14 1_555 1_555
C21_14 C20_14 1_555 1_555
C22_14 C20_14 1_555 1_555
H8_14 C22_14 1_555 1_555
C23_14 N3_14 1_555 1_555
C24_14 C18_14 1_555 1_555
H9_14 C24_14 1_555 1_555
C25_14 C26_14 1_555 1_555
C26_14 H10_14 1_555 1_555
C27_14 C26_14 1_555 1_555
C28_14 C27_14 1_555 1_555
C29_14 C27_14 1_555 1_555
H11_14 C29_14 1_555 1_555
C30_14 C29_14 1_555 1_555
C31_14 C30_14 1_555 1_555
C32_14 C25_14 1_555 1_555
H12_14 C32_14 1_555 1_555
Cu10_8 O5_10 1_555 1_555
Cu10_6 O15_11 1_555 1_555
Cu13_8 O6_10 1_555 1_555
Cu13_6 O16_11 1_555 1_555
O25_11 Cu5_3 1_555 1_555
O26_11 Cu7_3 1_555 1_555
O10_14 C17_14 1_555 1_555
C6_14 C7_14 1_555 1_555
C7_14 C8_14 1_555 1_555
C14_14 C16_14 1_555 1_555
C22_14 C23_14 1_555 1_555
C23_14 C24_14 1_555 1_555
C30_14 C32_14 1_555 1_555
O19_14 H13_14 1_555 1_555
O19_14 H14_14 1_555 1_555
O20_14 H15_14 1_555 1_555
O20_14 H16_14 1_555 1_555
O17_14 H17_14 1_555 1_555
O17_14 H18_14 1_555 1_555
O18_14 H19_14 1_555 1_555
O18_14 H20_14 1_555 1_555
Cu5 O1_15 1_555 1_555
Cu7 O2_15 1_555 1_555
Cu10_8 O3_15 1_555 1_555
Cu13_8 O4_15 1_555 1_555
N1_15 N2_15 1_555 1_555
N2_15 C9_15 1_555 1_555
N3_15 N4_15 1_555 1_555
N4_15 C25_15 1_555 1_555
O1_15 C1_15 1_555 1_555
O2_15 C1_15 1_555 1_555
O3_15 C5_15 1_555 1_555
O4_15 C5_15 1_555 1_555
O21_5 C12_15 1_555 1_555
O22_5 C12_15 1_555 1_555
O23_2 C15_15 1_555 1_555
O24_2 C15_15 1_555 1_555
O9_15 Cu5 1_555 1_555
O10_15 Cu7 1_555 1_555
O15_12 C31_15 1_555 1_555
O16_12 C31_15 1_555 1_555
O17_15 Cu5 1_555 1_555
O18_15 Cu7 1_555 1_555
O19_15 Cu13_8 1_555 1_555
O20_15 Cu10_8 1_555 1_555
C1_15 C2_15 1_555 1_555
C2_15 C3_15 1_555 1_555
C3_15 H1_15 1_555 1_555
C4_15 C3_15 1_555 1_555
C5_15 C4_15 1_555 1_555
C6_15 C4_15 1_555 1_555
H2_15 C6_15 1_555 1_555
C7_15 N1_15 1_555 1_555
C8_15 C2_15 1_555 1_555
H3_15 C8_15 1_555 1_555
C9_15 C10_15 1_555 1_555
C10_15 H4_15 1_555 1_555
C11_15 C10_15 1_555 1_555
C12_15 C11_15 1_555 1_555
C13_15 C11_15 1_555 1_555
H5_15 C13_15 1_555 1_555
C14_15 C13_15 1_555 1_555
C15_15 C14_15 1_555 1_555
C16_15 C9_15 1_555 1_555
H6_15 C16_15 1_555 1_555
C17_15 O9_15 1_555 1_555
C18_15 C17_15 1_555 1_555
C19_15 C18_15 1_555 1_555
H7_15 C19_15 1_555 1_555
C23_15 N3_15 1_555 1_555
C24_15 C18_15 1_555 1_555
H9_15 C24_15 1_555 1_555
H11_15 C29_15 1_555 1_555
C30_15 C29_15 1_555 1_555
C31_15 C30_15 1_555 1_555
C32_15 C25_15 1_555 1_555
H12_15 C32_15 1_555 1_555
Cu10_4 O15_12 1_555 1_555
Cu13_4 O16_12 1_555 1_555
O25_12 Cu5 1_555 1_555
O26_12 Cu7 1_555 1_555
O10_15 C17_15 1_555 1_555
C6_15 C7_15 1_555 1_555
C7_15 C8_15 1_555 1_555
C14_15 C16_15 1_555 1_555
C23_15 C24_15 1_555 1_555
C30_15 C32_15 1_555 1_555
O19_15 H13_15 1_555 1_555
O19_15 H14_15 1_555 1_555
O20_15 H15_15 1_555 1_555
O20_15 H16_15 1_555 1_555
O17_15 H17_15 1_555 1_555
O17_15 H18_15 1_555 1_555
O18_15 H19_15 1_555 1_555
O18_15 H20_15 1_555 1_555
O25_7 C21_15 1_555 1_555
O26_7 C21_15 1_555 1_555
O27_7 C28_15 1_555 1_555
O28_7 C28_15 1_555 1_555
C21_15 C20_15 1_555 1_555
C22_15 C20_15 1_555 1_555
H8_15 C22_15 1_555 1_555
C26_15 H10_15 1_555 1_555
C27_15 C26_15 1_555 1_555
C28_15 C27_15 1_555 1_555
Cu5_8 O1_16 1_555 1_555
Cu7_8 O2_16 1_555 1_555
Cu10_6 O3_16 1_555 1_555
Cu13_6 O4_16 1_555 1_555
N1_16 N2_16 1_555 1_555
N2_16 C9_16 1_555 1_555
N3_16 N4_16 1_555 1_555
N4_16 C25_16 1_555 1_555
O1_16 C1_16 1_555 1_555
O2_16 C1_16 1_555 1_555
O3_16 C5_16 1_555 1_555
O4_16 C5_16 1_555 1_555
O24_9 C15_16 1_555 1_555
O9_16 Cu5_8 1_555 1_555
O10_16 Cu7_8 1_555 1_555
O25_11 C21_16 1_555 1_555
O26_11 C21_16 1_555 1_555
O27_5 C28_16 1_555 1_555
O28_5 C28_16 1_555 1_555
O29_6 C31_16 1_555 1_555
O30_6 C31_16 1_555 1_555
O18_16 Cu7_8 1_555 1_555
O19_16 Cu13_6 1_555 1_555
O20_16 Cu10_6 1_555 1_555
C1_16 C2_16 1_555 1_555
C2_16 C3_16 1_555 1_555
C3_16 H1_16 1_555 1_555
C4_16 C3_16 1_555 1_555
C5_16 C4_16 1_555 1_555
C6_16 C4_16 1_555 1_555
H2_16 C6_16 1_555 1_555
C7_16 N1_16 1_555 1_555
C8_16 C2_16 1_555 1_555
H3_16 C8_16 1_555 1_555
C9_16 C10_16 1_555 1_555
C10_16 H4_16 1_555 1_555
C15_16 C14_16 1_555 1_555
C16_16 C9_16 1_555 1_555
H6_16 C16_16 1_555 1_555
C17_16 O9_16 1_555 1_555
C18_16 C17_16 1_555 1_555
C19_16 C18_16 1_555 1_555
H7_16 C19_16 1_555 1_555
C20_16 C19_16 1_555 1_555
C21_16 C20_16 1_555 1_555
C22_16 C20_16 1_555 1_555
H8_16 C22_16 1_555 1_555
C23_16 N3_16 1_555 1_555
C24_16 C18_16 1_555 1_555
H9_16 C24_16 1_555 1_555
C25_16 C26_16 1_555 1_555
C26_16 H10_16 1_555 1_555
C27_16 C26_16 1_555 1_555
C28_16 C27_16 1_555 1_555
C29_16 C27_16 1_555 1_555
H11_16 C29_16 1_555 1_555
C30_16 C29_16 1_555 1_555
C31_16 C30_16 1_555 1_555
C32_16 C25_16 1_555 1_555
H12_16 C32_16 1_555 1_555
O21_6 Cu10_6 1_555 1_555
O22_6 Cu13_6 1_555 1_555
O10_16 C17_16 1_555 1_555
C6_16 C7_16 1_555 1_555
C7_16 C8_16 1_555 1_555
C14_16 C16_16 1_555 1_555
C22_16 C23_16 1_555 1_555
C23_16 C24_16 1_555 1_555
C30_16 C32_16 1_555 1_555
O19_16 H13_16 1_555 1_555
O19_16 H14_16 1_555 1_555
O20_16 H15_16 1_555 1_555
O20_16 H16_16 1_555 1_555
O18_16 H19_16 1_555 1_555
O18_16 H20_16 1_555 1_555
O17_16 H17_16 1_555 1_555
O17_16 H18_16 1_555 1_555
O5_11 C12_16 1_555 1_555
O6_11 C12_16 1_555 1_555
C12_16 C11_16 1_555 1_555
C13_16 C11_16 1_555 1_555
H5_16 C13_16 1_555 1_555
Cu10_4 O5_11 1_555 1_555
Cu13_4 O6_11 1_555 1_555
Cu7_9 O2_17 1_555 1_555
Cu10_4 O3_17 1_555 1_555
Cu13_4 O4_17 1_555 1_555
O3_17 C5_17 1_555 1_555
O4_17 C5_17 1_555 1_555
O10_17 Cu7_9 1_555 1_555
O25_12 C21_17 1_555 1_555
O26_12 C21_17 1_555 1_555
O18_17 Cu7_9 1_555 1_555
O19_17 Cu13_4 1_555 1_555
O20_17 Cu10_4 1_555 1_555
C3_17 H1_17 1_555 1_555
C4_17 C3_17 1_555 1_555
C5_17 C4_17 1_555 1_555
H7_17 C19_17 1_555 1_555
C20_17 C19_17 1_555 1_555
C21_17 C20_17 1_555 1_555
O19_17 H13_17 1_555 1_555
O19_17 H14_17 1_555 1_555
O20_17 H15_17 1_555 1_555
O20_17 H16_17 1_555 1_555
O18_17 H19_17 1_555 1_555
O18_17 H20_17 1_555 1_555
Cu5_9 O1_17 1_555 1_555
N1_17 N2_17 1_555 1_555
N2_17 C9_17 1_555 1_555
N3_17 N4_17 1_555 1_555
N4_17 C25_17 1_555 1_555
O1_17 C1_17 1_555 1_555
O5_12 C12_17 1_555 1_555
O6_12 C12_17 1_555 1_555
O23_7 C15_17 1_555 1_555
O24_7 C15_17 1_555 1_555
O9_17 Cu5_9 1_555 1_555
O27_6 C28_17 1_555 1_555
O28_6 C28_17 1_555 1_555
O29_4 C31_17 1_555 1_555
O30_4 C31_17 1_555 1_555
C1_17 C2_17 1_555 1_555
H2_17 C6_17 1_555 1_555
C7_17 N1_17 1_555 1_555
C8_17 C2_17 1_555 1_555
H3_17 C8_17 1_555 1_555
C9_17 C10_17 1_555 1_555
C10_17 H4_17 1_555 1_555
C11_17 C10_17 1_555 1_555
C12_17 C11_17 1_555 1_555
C13_17 C11_17 1_555 1_555
H5_17 C13_17 1_555 1_555
C14_17 C13_17 1_555 1_555
C15_17 C14_17 1_555 1_555
C16_17 C9_17 1_555 1_555
H6_17 C16_17 1_555 1_555
C17_17 O9_17 1_555 1_555
C18_17 C17_17 1_555 1_555
H8_17 C22_17 1_555 1_555
C23_17 N3_17 1_555 1_555
C24_17 C18_17 1_555 1_555
H9_17 C24_17 1_555 1_555
C25_17 C26_17 1_555 1_555
C26_17 H10_17 1_555 1_555
C27_17 C26_17 1_555 1_555
C28_17 C27_17 1_555 1_555
C29_17 C27_17 1_555 1_555
H11_17 C29_17 1_555 1_555
C30_17 C29_17 1_555 1_555
C31_17 C30_17 1_555 1_555
C32_17 C25_17 1_555 1_555
H12_17 C32_17 1_555 1_555
Cu10_5 O5_12 1_555 1_555
Cu13_5 O6_12 1_555 1_555
C6_17 C7_17 1_555 1_555
C7_17 C8_17 1_555 1_555
C14_17 C16_17 1_555 1_555
C22_17 C23_17 1_555 1_555
C23_17 C24_17 1_555 1_555
C30_17 C32_17 1_555 1_555
O17_17 H17_17 1_555 1_555
O17_17 H18_17 1_555 1_555
O21_6 C12_18 1_555 1_555
O22_6 C12_18 1_555 1_555
C12_18 C11_18 1_555 1_555
C13_18 C11_18 1_555 1_555
H5_18 C13_18 1_555 1_555
Cu5_7 O1_18 1_555 1_555
N1_18 N2_18 1_555 1_555
N2_18 C9_18 1_555 1_555
N3_18 N4_18 1_555 1_555
N4_18 C25_18 1_555 1_555
O1_18 C1_18 1_555 1_555
O24_8 C15_18 1_555 1_555
O9_18 Cu5_7 1_555 1_555
O27_4 C28_18 1_555 1_555
O28_4 C28_18 1_555 1_555
O29_5 C31_18 1_555 1_555
O30_5 C31_18 1_555 1_555
C1_18 C2_18 1_555 1_555
H2_18 C6_18 1_555 1_555
C7_18 N1_18 1_555 1_555
C8_18 C2_18 1_555 1_555
H3_18 C8_18 1_555 1_555
C9_18 C10_18 1_555 1_555
C10_18 H4_18 1_555 1_555
C15_18 C14_18 1_555 1_555
C16_18 C9_18 1_555 1_555
H6_18 C16_18 1_555 1_555
C17_18 O9_18 1_555 1_555
C18_18 C17_18 1_555 1_555
H8_18 C22_18 1_555 1_555
C23_18 N3_18 1_555 1_555
C24_18 C18_18 1_555 1_555
H9_18 C24_18 1_555 1_555
C25_18 C26_18 1_555 1_555
C26_18 H10_18 1_555 1_555
C27_18 C26_18 1_555 1_555
C28_18 C27_18 1_555 1_555
C29_18 C27_18 1_555 1_555
H11_18 C29_18 1_555 1_555
C30_18 C29_18 1_555 1_555
C31_18 C30_18 1_555 1_555
C32_18 C25_18 1_555 1_555
H12_18 C32_18 1_555 1_555
C6_18 C7_18 1_555 1_555
C7_18 C8_18 1_555 1_555
C14_18 C16_18 1_555 1_555
C22_18 C23_18 1_555 1_555
C23_18 C24_18 1_555 1_555
C30_18 C32_18 1_555 1_555
O17_18 H17_18 1_555 1_555
O17_18 H18_18 1_555 1_555
Cu7_7 O2_18 1_555 1_555
Cu10_5 O3_18 1_555 1_555
Cu13_5 O4_18 1_555 1_555
O3_18 C5_18 1_555 1_555
O4_18 C5_18 1_555 1_555
O10_18 Cu7_7 1_555 1_555
O25_10 C21_18 1_555 1_555
O26_10 C21_18 1_555 1_555
O18_18 Cu7_7 1_555 1_555
O19_18 Cu13_5 1_555 1_555
O20_18 Cu10_5 1_555 1_555
C3_18 H1_18 1_555 1_555
C4_18 C3_18 1_555 1_555
C5_18 C4_18 1_555 1_555
H7_18 C19_18 1_555 1_555
C20_18 C19_18 1_555 1_555
C21_18 C20_18 1_555 1_555
O19_18 H13_18 1_555 1_555
O19_18 H14_18 1_555 1_555
O20_18 H15_18 1_555 1_555
O20_18 H16_18 1_555 1_555
O18_18 H19_18 1_555 1_555
O18_18 H20_18 1_555 1_555

#END
