
###############################################################################
#
# This file contains modified crystal structure data generated from the
# MOF subset of the Cambridge Structural Database (CSD) v543 
# hosted by the Cambridge Crystallographic Data Centre (CCDC).
#
# This work is licensed under the Creative Commons
# Attribution-NonCommercial-ShareAlike 4.0 International License.
# To view a copy of this license, visit
# http://creativecommons.org/licenses/by-nc-sa/4.0/
# or send a letter to
# Creative Commons, PO Box 1866, Mountain View, CA 94042, USA.
#
# CIF created using the CSD Python API on 29 September 2022
# The structure has been converted into the P1 space group
# The structure has a 3D framework
# The original CSD entry OFOCIY is in the orthorhombic crystal system
# The framework has been calculated to contain at least 10.0% void space
# The void calculation uses a probe of radius 1.32A, grid spacing 0.4
#
###############################################################################

data_OFOCIY
_chemical_formula_moiety         '(C192 H128 Cu13 Er4 N32 O61)n'
_symmetry_cell_setting           triclinic
_symmetry_space_group_name_H-M   'P 1'
_symmetry_Int_Tables_number      1
_space_group_name_Hall           'P 1'
loop_
_symmetry_equiv_pos_site_id
_symmetry_equiv_pos_as_xyz
1 x,y,z
_cell_length_a                   22.456(14)
_cell_length_b                   24.961(16)
_cell_length_c                   12.630(8)
_cell_angle_alpha                90
_cell_angle_beta                 90
_cell_angle_gamma                90
_cell_volume                     7079.42
loop_
_atom_site_label
_atom_site_type_symbol
_atom_site_fract_x
_atom_site_fract_y
_atom_site_fract_z
Cu1 Cu 0.500000 0.500000 0.2115(7)
O1 O 0.3073(3) 0.7123(3) 0.3190(6)
N1 N 0.5664(4) 0.5435(3) 0.1367(7)
C1 C 0.4072(6) 0.5808(5) 0.2175(13)
H1 H 0.401281 0.566771 0.150131
O2 O 0.7106(3) 0.6957(3) 0.0928(6)
C2 C 0.6031(5) 0.5684(4) 0.2009(14)
H2 H 0.602196 0.559026 0.272110
O4 O 0.3368(3) 0.6991(3) 0.4835(5)
C3 C 0.6437(5) 0.6083(5) 0.1697(9)
H3 H 0.666913 0.626224 0.219212
C4 C 0.3739(5) 0.6223(5) 0.2494(8)
H4 H 0.345548 0.636507 0.203595
C5 C 0.6874(4) 0.6640(3) 0.0262(7)
C6 C 0.3394(4) 0.6879(4) 0.3865(7)
C7 C 0.6478(4) 0.6198(3) 0.0638(7)
C8 C 0.5707(5) 0.5544(4) 0.0332(7)
C10 C 0.3808(4) 0.6445(4) 0.3492(7)
C11 C 0.4231(4) 0.6220(4) 0.4148(7)
H7 H 0.428948 0.635557 0.482646
N2 N 0.4499(4) 0.5585(3) 0.2817(7)
C12 C 0.4566(4) 0.5793(4) 0.3792(7)
H8 H 0.484827 0.564421 0.424341
O5 O 0.6927(3) 0.2877(3) 0.3190(6)
N3 N 0.4336(4) 0.4565(3) 0.1367(7)
C13 C 0.5928(6) 0.4192(5) 0.2175(13)
H9 H 0.598719 0.433229 0.150131
O6 O 0.2894(3) 0.3043(3) 0.0928(6)
C14 C 0.3969(5) 0.4316(4) 0.2009(14)
H10 H 0.397804 0.440974 0.272110
O8 O 0.6632(3) 0.3009(3) 0.4835(5)
C15 C 0.3563(5) 0.3917(5) 0.1697(9)
H11 H 0.333087 0.373776 0.219212
C16 C 0.6261(5) 0.3777(5) 0.2494(8)
H12 H 0.654452 0.363493 0.203595
C17 C 0.3126(4) 0.3360(3) 0.0262(7)
C18 C 0.6606(4) 0.3121(4) 0.3865(7)
C19 C 0.3522(4) 0.3802(3) 0.0638(7)
C20 C 0.4293(5) 0.4456(4) 0.0332(7)
C22 C 0.6192(4) 0.3555(4) 0.3492(7)
C23 C 0.5769(4) 0.3780(4) 0.4148(7)
H15 H 0.571052 0.364443 0.482646
N4 N 0.5501(4) 0.4415(3) 0.2817(7)
C24 C 0.5434(4) 0.4207(4) 0.3792(7)
H16 H 0.515173 0.435579 0.424341
Er3 Er 0.750000 0.250000 0.45616(4)
Er4 Er 0.250000 0.750000 0.45616(4)
O11 O 0.7894(3) 0.8043(3) 0.0928(6)
Er1 Er 0.750000 0.750000 0.95616(4)
O3 O 0.6938(4) 0.6711(3) 0.9277(5)
H5 H 0.545918 0.536637 0.985805
C9 C 0.6119(5) 0.5922(4) 0.9944(7)
H6 H 0.614764 0.598471 0.922015
O7 O 0.3062(4) 0.3289(3) 0.9277(5)
H13 H 0.454082 0.463363 0.985805
C21 C 0.3881(5) 0.4078(4) 0.9944(7)
H14 H 0.385236 0.401529 0.922015
Er2 Er 0.250000 0.250000 0.95616(4)
O9 O 0.6927(3) 0.7877(3) 0.8190(6)
O10 O 0.8073(3) 0.7123(3) 0.8190(6)
O12 O 0.8062(4) 0.8289(3) 0.9277(5)
O13 O 0.6632(3) 0.8009(3) 0.9835(5)
O14 O 0.8368(3) 0.6991(3) 0.9835(5)
O11_2 O 0.2106(3) 0.1957(3) 0.0928(6)
O9_2 O 0.3073(3) 0.2123(3) 0.8190(6)
O10_2 O 0.1927(3) 0.2877(3) 0.8190(6)
O12_2 O 0.1938(4) 0.1711(3) 0.9277(5)
O13_2 O 0.3368(3) 0.1991(3) 0.9835(5)
O14_2 O 0.1632(3) 0.3009(3) 0.9835(5)
Cu1_2 Cu 0.500000 -0.000000 0.7115(7)
N1_2 N 0.5664(4) 0.0435(3) 0.6367(7)
C1_2 C 0.4072(6) 0.0808(5) 0.7175(13)
H1_2 H 0.401281 0.066771 0.650131
O2_2 O 0.7106(3) 0.1957(3) 0.5928(6)
C2_2 C 0.6031(5) 0.0684(4) 0.7009(14)
H2_2 H 0.602196 0.059026 0.772110
O3_2 O 0.6938(4) 0.1711(3) 0.4277(5)
C3_2 C 0.6437(5) 0.1083(5) 0.6697(9)
H3_2 H 0.666913 0.126224 0.719212
C4_2 C 0.3739(5) 0.1223(5) 0.7494(8)
H4_2 H 0.345548 0.136507 0.703595
C5_2 C 0.6874(4) 0.1640(3) 0.5262(7)
C6_2 C 0.3394(4) 0.1879(4) 0.8865(7)
C7_2 C 0.6478(4) 0.1198(3) 0.5638(7)
C8_2 C 0.5707(5) 0.0544(4) 0.5332(7)
H5_2 H 0.545918 0.036637 0.485805
C9_2 C 0.6119(5) 0.0922(4) 0.4944(7)
H6_2 H 0.614764 0.098471 0.422015
C10_2 C 0.3808(4) 0.1445(4) 0.8492(7)
C11_2 C 0.4231(4) 0.1220(4) 0.9148(7)
H7_2 H 0.428948 0.135557 0.982646
N2_2 N 0.4499(4) 0.0585(3) 0.7817(7)
C12_2 C 0.4566(4) 0.0793(4) 0.8792(7)
H8_2 H 0.484827 0.064421 0.924341
O10_3 O 0.8073(3) 0.2123(3) 0.3190(6)
O11_3 O 0.7894(3) 0.3043(3) 0.5928(6)
O12_3 O 0.8062(4) 0.3289(3) 0.4277(5)
O14_3 O 0.8368(3) 0.1991(3) 0.4835(5)
Cu1_3 Cu 0.500000 1.000000 0.7115(7)
N3_2 N 0.4336(4) 0.9565(3) 0.6367(7)
C13_2 C 0.5928(6) 0.9192(5) 0.7175(13)
H9_2 H 0.598719 0.933229 0.650131
O6_2 O 0.2894(3) 0.8043(3) 0.5928(6)
C14_2 C 0.3969(5) 0.9316(4) 0.7009(14)
H10_2 H 0.397804 0.940974 0.772110
O7_2 O 0.3062(4) 0.8289(3) 0.4277(5)
C15_2 C 0.3563(5) 0.8917(5) 0.6697(9)
H11_2 H 0.333087 0.873776 0.719212
C16_2 C 0.6261(5) 0.8777(5) 0.7494(8)
H12_2 H 0.654452 0.863493 0.703595
C17_2 C 0.3126(4) 0.8360(3) 0.5262(7)
C18_2 C 0.6606(4) 0.8121(4) 0.8865(7)
C19_2 C 0.3522(4) 0.8802(3) 0.5638(7)
C20_2 C 0.4293(5) 0.9456(4) 0.5332(7)
H13_2 H 0.454082 0.963363 0.485805
C21_2 C 0.3881(5) 0.9078(4) 0.4944(7)
H14_2 H 0.385236 0.901529 0.422015
C22_2 C 0.6192(4) 0.8555(4) 0.8492(7)
C23_2 C 0.5769(4) 0.8780(4) 0.9148(7)
H15_2 H 0.571052 0.864443 0.982646
N4_2 N 0.5501(4) 0.9415(3) 0.7817(7)
C24_2 C 0.5434(4) 0.9207(4) 0.8792(7)
H16_2 H 0.515173 0.935579 0.924341
O10_4 O 0.1927(3) 0.7877(3) 0.3190(6)
O11_4 O 0.2106(3) 0.6957(3) 0.5928(6)
O12_4 O 0.1938(4) 0.6711(3) 0.4277(5)
O14_4 O 0.1632(3) 0.8009(3) 0.4835(5)
Cu1_4 Cu 0.000000 0.500000 0.7115(7)
N1_3 N 0.0664(4) 0.5435(3) 0.6367(7)
C2_3 C 0.1031(5) 0.5684(4) 0.7009(14)
H2_3 H 0.102196 0.559026 0.772110
C3_3 C 0.1437(5) 0.6083(5) 0.6697(9)
H3_3 H 0.166913 0.626224 0.719212
C5_3 C 0.1874(4) 0.6640(3) 0.5262(7)
C7_3 C 0.1478(4) 0.6198(3) 0.5638(7)
C8_3 C 0.0707(5) 0.5544(4) 0.5332(7)
H5_3 H 0.045918 0.536637 0.485805
C9_3 C 0.1119(5) 0.5922(4) 0.4944(7)
H6_3 H 0.114764 0.598471 0.422015
C13_3 C 0.0928(6) 0.4192(5) 0.7175(13)
H9_3 H 0.098719 0.433229 0.650131
C16_3 C 0.1261(5) 0.3777(5) 0.7494(8)
H12_3 H 0.154452 0.363493 0.703595
C18_3 C 0.1606(4) 0.3121(4) 0.8865(7)
C22_3 C 0.1192(4) 0.3555(4) 0.8492(7)
C23_3 C 0.0769(4) 0.3780(4) 0.9148(7)
H15_3 H 0.071052 0.364443 0.982646
N4_3 N 0.0501(4) 0.4415(3) 0.7817(7)
C24_3 C 0.0434(4) 0.4207(4) 0.8792(7)
H16_3 H 0.015173 0.435579 0.924341
Cu1_5 Cu 1.000000 0.500000 0.7115(7)
C1_3 C 0.9072(6) 0.5808(5) 0.7175(13)
H1_3 H 0.901281 0.566771 0.650131
C4_3 C 0.8739(5) 0.6223(5) 0.7494(8)
H4_3 H 0.845548 0.636507 0.703595
C6_3 C 0.8394(4) 0.6879(4) 0.8865(7)
C10_3 C 0.8808(4) 0.6445(4) 0.8492(7)
C11_3 C 0.9231(4) 0.6220(4) 0.9148(7)
H7_3 H 0.928948 0.635557 0.982646
N2_3 N 0.9499(4) 0.5585(3) 0.7817(7)
C12_3 C 0.9566(4) 0.5793(4) 0.8792(7)
H8_3 H 0.984827 0.564421 0.924341
N3_3 N 0.9336(4) 0.4565(3) 0.6367(7)
C14_3 C 0.8969(5) 0.4316(4) 0.7009(14)
H10_3 H 0.897804 0.440974 0.772110
C15_3 C 0.8563(5) 0.3917(5) 0.6697(9)
H11_3 H 0.833087 0.373776 0.719212
C17_3 C 0.8126(4) 0.3360(3) 0.5262(7)
C19_3 C 0.8522(4) 0.3802(3) 0.5638(7)
C20_3 C 0.9293(5) 0.4456(4) 0.5332(7)
H13_3 H 0.954082 0.463363 0.485805
C21_3 C 0.8881(5) 0.4078(4) 0.4944(7)
H14_3 H 0.885236 0.401529 0.422015
Cu1_6 Cu 0.000000 -0.000000 0.2115(7)
N1_4 N 0.0664(4) 0.0435(3) 0.1367(7)
C2_4 C 0.1031(5) 0.0684(4) 0.2009(14)
H2_4 H 0.102196 0.059026 0.272110
C3_4 C 0.1437(5) 0.1083(5) 0.1697(9)
H3_4 H 0.166913 0.126224 0.219212
C5_4 C 0.1874(4) 0.1640(3) 0.0262(7)
C7_4 C 0.1478(4) 0.1198(3) 0.0638(7)
C8_4 C 0.0707(5) 0.0544(4) 0.0332(7)
H5_4 H 0.045918 0.036637 0.985805
C9_4 C 0.1119(5) 0.0922(4) 0.9944(7)
H6_4 H 0.114764 0.098471 0.922015
Cu1_7 Cu 0.000000 1.000000 0.2115(7)
C13_4 C 0.0928(6) 0.9192(5) 0.2175(13)
H9_4 H 0.098719 0.933229 0.150131
C16_4 C 0.1261(5) 0.8777(5) 0.2494(8)
H12_4 H 0.154452 0.863493 0.203595
C18_4 C 0.1606(4) 0.8121(4) 0.3865(7)
C22_4 C 0.1192(4) 0.8555(4) 0.3492(7)
C23_4 C 0.0769(4) 0.8780(4) 0.4148(7)
H15_4 H 0.071052 0.864443 0.482646
N4_4 N 0.0501(4) 0.9415(3) 0.2817(7)
C24_4 C 0.0434(4) 0.9207(4) 0.3792(7)
H16_4 H 0.015173 0.935579 0.424341
Cu1_8 Cu 1.000000 -0.000000 0.2115(7)
C1_4 C 0.9072(6) 0.0808(5) 0.2175(13)
H1_4 H 0.901281 0.066771 0.150131
C4_4 C 0.8739(5) 0.1223(5) 0.2494(8)
H4_4 H 0.845548 0.136507 0.203595
C6_4 C 0.8394(4) 0.1879(4) 0.3865(7)
C10_4 C 0.8808(4) 0.1445(4) 0.3492(7)
C11_4 C 0.9231(4) 0.1220(4) 0.4148(7)
H7_4 H 0.928948 0.135557 0.482646
N2_4 N 0.9499(4) 0.0585(3) 0.2817(7)
C12_4 C 0.9566(4) 0.0793(4) 0.3792(7)
H8_4 H 0.984827 0.064421 0.424341
Cu1_9 Cu 1.000000 1.000000 0.2115(7)
N3_4 N 0.9336(4) 0.9565(3) 0.1367(7)
C14_4 C 0.8969(5) 0.9316(4) 0.2009(14)
H10_4 H 0.897804 0.940974 0.272110
C15_4 C 0.8563(5) 0.8917(5) 0.1697(9)
H11_4 H 0.833087 0.873776 0.219212
C17_4 C 0.8126(4) 0.8360(3) 0.0262(7)
C19_4 C 0.8522(4) 0.8802(3) 0.0638(7)
C20_4 C 0.9293(5) 0.9456(4) 0.0332(7)
H13_4 H 0.954082 0.963363 0.985805
C21_4 C 0.8881(5) 0.9078(4) 0.9944(7)
H14_4 H 0.885236 0.901529 0.922015
Er4_2 Er 0.000000 0.000000 0.70616(4)
Er2_2 Er -0.000000 0.500000 0.20616(4)
Er4_3 Er -0.000000 1.000000 0.70616(4)
Er1_2 Er 0.500000 0.000000 0.20616(4)
Er4_4 Er 1.000000 0.000000 0.70616(4)
O9_3 O 0.5573(3) 0.0377(3) 0.0690(6)
O11_5 O 0.4606(3) 0.0543(3) 0.3428(6)
O12_5 O 0.4438(4) 0.0789(3) 0.1777(5)
O13_3 O 0.5868(3) 0.0509(3) 0.2335(5)
Er1_3 Er 0.500000 1.000000 0.20616(4)
Cu1_10 Cu 0.750000 0.750000 0.4615(7)
O1_2 O 0.9427(3) 0.9623(3) 0.5690(6)
N1_5 N 0.6836(4) 0.7935(3) 0.3867(7)
C1_5 C 0.8428(6) 0.8308(5) 0.4675(13)
H1_5 H 0.848719 0.816771 0.400131
O2_3 O 0.5394(3) 0.9457(3) 0.3428(6)
C2_5 C 0.6469(5) 0.8184(4) 0.4509(14)
H2_5 H 0.647804 0.809026 0.522110
O3_3 O 0.5562(4) 0.9211(3) 0.1777(5)
O4_2 O 0.9132(3) 0.9491(3) 0.7335(5)
C3_5 C 0.6063(5) 0.8583(5) 0.4197(9)
H3_5 H 0.583087 0.876224 0.469212
C4_5 C 0.8761(5) 0.8723(5) 0.4994(8)
H4_5 H 0.904452 0.886507 0.453595
C5_5 C 0.5626(4) 0.9140(3) 0.2762(7)
C6_5 C 0.9106(4) 0.9379(4) 0.6365(7)
C7_5 C 0.6022(4) 0.8698(3) 0.3138(7)
C8_5 C 0.6793(5) 0.8044(4) 0.2832(7)
H5_5 H 0.704082 0.786637 0.235805
C9_5 C 0.6381(5) 0.8422(4) 0.2444(7)
H6_5 H 0.635236 0.848471 0.172015
C10_5 C 0.8692(4) 0.8945(4) 0.5992(7)
C11_5 C 0.8269(4) 0.8720(4) 0.6648(7)
H7_5 H 0.821052 0.885557 0.732646
N2_5 N 0.8001(4) 0.8085(3) 0.5317(7)
C12_5 C 0.7934(4) 0.8293(4) 0.6292(7)
H8_5 H 0.765173 0.814421 0.674341
O5_2 O 0.5573(3) 0.5377(3) 0.5690(6)
N3_5 N 0.8164(4) 0.7065(3) 0.3867(7)
C13_5 C 0.6572(6) 0.6692(5) 0.4675(13)
H9_5 H 0.651281 0.683229 0.400131
O6_3 O 0.9606(3) 0.5543(3) 0.3428(6)
C14_5 C 0.8531(5) 0.6816(4) 0.4509(14)
H10_5 H 0.852196 0.690974 0.522110
O7_3 O 0.9438(4) 0.5789(3) 0.1777(5)
O8_2 O 0.5868(3) 0.5509(3) 0.7335(5)
C15_5 C 0.8937(5) 0.6417(5) 0.4197(9)
H11_5 H 0.916913 0.623776 0.469212
C16_5 C 0.6239(5) 0.6277(5) 0.4994(8)
H12_5 H 0.595548 0.613493 0.453595
C17_5 C 0.9374(4) 0.5860(3) 0.2762(7)
C18_5 C 0.5894(4) 0.5621(4) 0.6365(7)
C19_5 C 0.8978(4) 0.6302(3) 0.3138(7)
C20_5 C 0.8207(5) 0.6956(4) 0.2832(7)
H13_5 H 0.795918 0.713363 0.235805
C21_5 C 0.8619(5) 0.6578(4) 0.2444(7)
H14_5 H 0.864764 0.651529 0.172015
C22_5 C 0.6308(4) 0.6055(4) 0.5992(7)
C23_5 C 0.6731(4) 0.6280(4) 0.6648(7)
H15_5 H 0.678948 0.614443 0.732646
N4_5 N 0.6999(4) 0.6915(3) 0.5317(7)
C24_5 C 0.7066(4) 0.6707(4) 0.6292(7)
H16_5 H 0.734827 0.685579 0.674341
Er2_3 Er 1.000000 0.500000 0.20616(4)
Er3_2 Er 0.500000 0.500000 0.70616(4)
Er4_5 Er 1.000000 1.000000 0.70616(4)
O10_5 O 0.4427(3) 0.9623(3) 0.0690(6)
O14_5 O 0.4132(3) 0.9491(3) 0.2335(5)
O10_6 O 0.0573(3) 0.5377(3) 0.0690(6)
O11_6 O 0.0394(3) 0.4457(3) 0.3428(6)
O12_6 O 0.0562(4) 0.4211(3) 0.1777(5)
O14_6 O 0.0868(3) 0.5509(3) 0.2335(5)
O9_4 O 0.9427(3) 0.4623(3) 0.0690(6)
O13_4 O 0.9132(3) 0.4491(3) 0.2335(5)
H2_6 H 0.647804 0.309026 0.022110
C6_6 C 0.9106(4) 0.4379(4) 0.1365(7)
C10_6 C 0.8692(4) 0.3945(4) 0.0992(7)
C11_6 C 0.8269(4) 0.3720(4) 0.1648(7)
H7_6 H 0.821052 0.385557 0.232646
N2_6 N 0.8001(4) 0.3085(3) 0.0317(7)
C12_6 C 0.7934(4) 0.3293(4) 0.1292(7)
H8_6 H 0.765173 0.314421 0.174341
H10_6 H 0.852196 0.190974 0.022110
C18_6 C 0.5894(4) 0.0621(4) 0.1365(7)
C22_6 C 0.6308(4) 0.1055(4) 0.0992(7)
C23_6 C 0.6731(4) 0.1280(4) 0.1648(7)
H15_6 H 0.678948 0.114443 0.232646
N4_6 N 0.6999(4) 0.1915(3) 0.0317(7)
C24_6 C 0.7066(4) 0.1707(4) 0.1292(7)
H16_6 H 0.734827 0.185579 0.174341
Cu1_11 Cu 0.750000 0.250000 0.9615(7)
N1_6 N 0.6836(4) 0.2935(3) 0.8867(7)
C1_6 C 0.8428(6) 0.3308(5) 0.9675(13)
H1_6 H 0.848719 0.316771 0.900131
O2_4 O 0.5394(3) 0.4457(3) 0.8428(6)
C2_6 C 0.6469(5) 0.3184(4) 0.9509(14)
O3_4 O 0.5562(4) 0.4211(3) 0.6777(5)
C3_6 C 0.6063(5) 0.3583(5) 0.9197(9)
H3_6 H 0.583087 0.376224 0.969212
C4_6 C 0.8761(5) 0.3723(5) 0.9994(8)
H4_6 H 0.904452 0.386507 0.953595
C5_6 C 0.5626(4) 0.4140(3) 0.7762(7)
C7_6 C 0.6022(4) 0.3698(3) 0.8138(7)
C8_6 C 0.6793(5) 0.3044(4) 0.7832(7)
H5_6 H 0.704082 0.286637 0.735805
C9_6 C 0.6381(5) 0.3422(4) 0.7444(7)
H6_6 H 0.635236 0.348471 0.672015
N3_6 N 0.8164(4) 0.2065(3) 0.8867(7)
C13_6 C 0.6572(6) 0.1692(5) 0.9675(13)
H9_6 H 0.651281 0.183229 0.900131
O6_4 O 0.9606(3) 0.0543(3) 0.8428(6)
C14_6 C 0.8531(5) 0.1816(4) 0.9509(14)
O7_4 O 0.9438(4) 0.0789(3) 0.6777(5)
C15_6 C 0.8937(5) 0.1417(5) 0.9197(9)
H11_6 H 0.916913 0.123776 0.969212
C16_6 C 0.6239(5) 0.1277(5) 0.9994(8)
H12_6 H 0.595548 0.113493 0.953595
C17_6 C 0.9374(4) 0.0860(3) 0.7762(7)
C19_6 C 0.8978(4) 0.1302(3) 0.8138(7)
C20_6 C 0.8207(5) 0.1956(4) 0.7832(7)
H13_6 H 0.795918 0.213363 0.735805
C21_6 C 0.8619(5) 0.1578(4) 0.7444(7)
H14_6 H 0.864764 0.151529 0.672015
O10_7 O 0.4427(3) 0.4623(3) 0.5690(6)
O11_7 O 0.4606(3) 0.5543(3) 0.8428(6)
O12_7 O 0.4438(4) 0.5789(3) 0.6777(5)
O14_7 O 0.4132(3) 0.4491(3) 0.7335(5)
O10_8 O 0.0573(3) 0.0377(3) 0.5690(6)
O14_8 O 0.0868(3) 0.0509(3) 0.7335(5)
O11_8 O 0.0394(3) 0.9457(3) 0.8428(6)
O12_8 O 0.0562(4) 0.9211(3) 0.6777(5)
H2_7 H 0.147804 0.809026 0.022110
C6_7 C 0.4106(4) 0.9379(4) 0.1365(7)
C10_7 C 0.3692(4) 0.8945(4) 0.0992(7)
C11_7 C 0.3269(4) 0.8720(4) 0.1648(7)
H7_7 H 0.321052 0.885557 0.232646
N2_7 N 0.3001(4) 0.8085(3) 0.0317(7)
C12_7 C 0.2934(4) 0.8293(4) 0.1292(7)
H8_7 H 0.265173 0.814421 0.174341
H10_7 H 0.352196 0.690974 0.022110
C18_7 C 0.0894(4) 0.5621(4) 0.1365(7)
C22_7 C 0.1308(4) 0.6055(4) 0.0992(7)
C23_7 C 0.1731(4) 0.6280(4) 0.1648(7)
H15_7 H 0.178948 0.614443 0.232646
N4_7 N 0.1999(4) 0.6915(3) 0.0317(7)
C24_7 C 0.2066(4) 0.6707(4) 0.1292(7)
H16_7 H 0.234827 0.685579 0.174341
Cu1_12 Cu 0.250000 0.750000 0.9615(7)
N1_7 N 0.1836(4) 0.7935(3) 0.8867(7)
C1_7 C 0.3428(6) 0.8308(5) 0.9675(13)
H1_7 H 0.348719 0.816771 0.900131
C2_7 C 0.1469(5) 0.8184(4) 0.9509(14)
C3_7 C 0.1063(5) 0.8583(5) 0.9197(9)
H3_7 H 0.083087 0.876224 0.969212
C4_7 C 0.3761(5) 0.8723(5) 0.9994(8)
H4_7 H 0.404452 0.886507 0.953595
C5_7 C 0.0626(4) 0.9140(3) 0.7762(7)
C7_7 C 0.1022(4) 0.8698(3) 0.8138(7)
C8_7 C 0.1793(5) 0.8044(4) 0.7832(7)
H5_7 H 0.204082 0.786637 0.735805
C9_7 C 0.1381(5) 0.8422(4) 0.7444(7)
H6_7 H 0.135236 0.848471 0.672015
N3_7 N 0.3164(4) 0.7065(3) 0.8867(7)
C13_7 C 0.1572(6) 0.6692(5) 0.9675(13)
H9_7 H 0.151281 0.683229 0.900131
C14_7 C 0.3531(5) 0.6816(4) 0.9509(14)
C15_7 C 0.3937(5) 0.6417(5) 0.9197(9)
H11_7 H 0.416913 0.623776 0.969212
C16_7 C 0.1239(5) 0.6277(5) 0.9994(8)
H12_7 H 0.095548 0.613493 0.953595
C17_7 C 0.4374(4) 0.5860(3) 0.7762(7)
C19_7 C 0.3978(4) 0.6302(3) 0.8138(7)
C20_7 C 0.3207(5) 0.6956(4) 0.7832(7)
H13_7 H 0.295918 0.713363 0.735805
C21_7 C 0.3619(5) 0.6578(4) 0.7444(7)
H14_7 H 0.364764 0.651529 0.672015
Cu1_13 Cu 0.250000 0.250000 0.4615(7)
N1_8 N 0.1836(4) 0.2935(3) 0.3867(7)
C1_8 C 0.3428(6) 0.3308(5) 0.4675(13)
H1_8 H 0.348719 0.316771 0.400131
C2_8 C 0.1469(5) 0.3184(4) 0.4509(14)
H2_8 H 0.147804 0.309026 0.522110
C3_8 C 0.1063(5) 0.3583(5) 0.4197(9)
H3_8 H 0.083087 0.376224 0.469212
C4_8 C 0.3761(5) 0.3723(5) 0.4994(8)
H4_8 H 0.404452 0.386507 0.453595
C5_8 C 0.0626(4) 0.4140(3) 0.2762(7)
C6_8 C 0.4106(4) 0.4379(4) 0.6365(7)
C7_8 C 0.1022(4) 0.3698(3) 0.3138(7)
C8_8 C 0.1793(5) 0.3044(4) 0.2832(7)
H5_8 H 0.204082 0.286637 0.235805
C9_8 C 0.1381(5) 0.3422(4) 0.2444(7)
H6_8 H 0.135236 0.348471 0.172015
C10_8 C 0.3692(4) 0.3945(4) 0.5992(7)
C11_8 C 0.3269(4) 0.3720(4) 0.6648(7)
H7_8 H 0.321052 0.385557 0.732646
N2_8 N 0.3001(4) 0.3085(3) 0.5317(7)
C12_8 C 0.2934(4) 0.3293(4) 0.6292(7)
H8_8 H 0.265173 0.314421 0.674341
N3_8 N 0.3164(4) 0.2065(3) 0.3867(7)
C13_8 C 0.1572(6) 0.1692(5) 0.4675(13)
H9_8 H 0.151281 0.183229 0.400131
C14_8 C 0.3531(5) 0.1816(4) 0.4509(14)
H10_8 H 0.352196 0.190974 0.522110
C15_8 C 0.3937(5) 0.1417(5) 0.4197(9)
H11_8 H 0.416913 0.123776 0.469212
C16_8 C 0.1239(5) 0.1277(5) 0.4994(8)
H12_8 H 0.095548 0.113493 0.453595
C17_8 C 0.4374(4) 0.0860(3) 0.2762(7)
C18_8 C 0.0894(4) 0.0621(4) 0.6365(7)
C19_8 C 0.3978(4) 0.1302(3) 0.3138(7)
C20_8 C 0.3207(5) 0.1956(4) 0.2832(7)
H13_8 H 0.295918 0.213363 0.235805
C21_8 C 0.3619(5) 0.1578(4) 0.2444(7)
H14_8 H 0.364764 0.151529 0.172015
C22_8 C 0.1308(4) 0.1055(4) 0.5992(7)
C23_8 C 0.1731(4) 0.1280(4) 0.6648(7)
H15_8 H 0.178948 0.114443 0.732646
N4_8 N 0.1999(4) 0.1915(3) 0.5317(7)
C24_8 C 0.2066(4) 0.1707(4) 0.6292(7)
H16_8 H 0.234827 0.185579 0.674341
loop_
_geom_bond_atom_site_label_1
_geom_bond_atom_site_label_2
_geom_bond_site_symmetry_1
_geom_bond_site_symmetry_2
Cu1 N1 1_555 1_555
O1 C6 1_555 1_555
N1 C2 1_555 1_555
C1 H1 1_555 1_555
O2 C5 1_555 1_555
C2 H2 1_555 1_555
O4 C6 1_555 1_555
C3 C2 1_555 1_555
H3 C3 1_555 1_555
C4 C1 1_555 1_555
H4 C4 1_555 1_555
C6 C10 1_555 1_555
C7 C3 1_555 1_555
C8 N1 1_555 1_555
C10 C4 1_555 1_555
C11 C10 1_555 1_555
H7 C11 1_555 1_555
N2 Cu1 1_555 1_555
C12 C11 1_555 1_555
H8 C12 1_555 1_555
O5 C18 1_555 1_555
N3 Cu1 1_555 1_555
C13 H9 1_555 1_555
O6 C17 1_555 1_555
C14 N3 1_555 1_555
H10 C14 1_555 1_555
O8 C18 1_555 1_555
C15 C14 1_555 1_555
H11 C15 1_555 1_555
C16 C13 1_555 1_555
H12 C16 1_555 1_555
C17 C19 1_555 1_555
C18 C22 1_555 1_555
C19 C15 1_555 1_555
C20 N3 1_555 1_555
C22 C16 1_555 1_555
C23 C22 1_555 1_555
H15 C23 1_555 1_555
N4 Cu1 1_555 1_555
C24 C23 1_555 1_555
H16 C24 1_555 1_555
Er3 O5 1_555 1_555
Er4 O1 1_555 1_555
C1 N2 1_555 1_555
O4 Er4 1_555 1_555
C5 C7 1_555 1_555
N2 C12 1_555 1_555
C13 N4 1_555 1_555
O8 Er3 1_555 1_555
N4 C24 1_555 1_555
O3 Er1 1_555 1_555
H6 C9 1_555 1_555
H14 C21 1_555 1_555
O9 Er1 1_555 1_555
O10 Er1 1_555 1_555
O12 Er1 1_555 1_555
O13 Er1 1_555 1_555
O14 Er1 1_555 1_555
O7 Er2 1_555 1_555
O9_2 Er2 1_555 1_555
O10_2 Er2 1_555 1_555
O12_2 Er2 1_555 1_555
O13_2 Er2 1_555 1_555
O14_2 Er2 1_555 1_555
Er3 O2_2 1_555 1_555
Cu1_2 N1_2 1_555 1_555
O9_2 C6_2 1_555 1_555
N1_2 C2_2 1_555 1_555
C1_2 H1_2 1_555 1_555
O2_2 C5_2 1_555 1_555
C2_2 H2_2 1_555 1_555
O3_2 Er3 1_555 1_555
O13_2 C6_2 1_555 1_555
C3_2 C2_2 1_555 1_555
H3_2 C3_2 1_555 1_555
C4_2 C1_2 1_555 1_555
H4_2 C4_2 1_555 1_555
C5_2 O3_2 1_555 1_555
C6_2 C10_2 1_555 1_555
C7_2 C3_2 1_555 1_555
C8_2 N1_2 1_555 1_555
H5_2 C8_2 1_555 1_555
C9_2 C7_2 1_555 1_555
H6_2 C9_2 1_555 1_555
C10_2 C4_2 1_555 1_555
C11_2 C10_2 1_555 1_555
H7_2 C11_2 1_555 1_555
N2_2 Cu1_2 1_555 1_555
C12_2 C11_2 1_555 1_555
H8_2 C12_2 1_555 1_555
O10_3 Er3 1_555 1_555
O11_3 Er3 1_555 1_555
O12_3 Er3 1_555 1_555
O14_3 Er3 1_555 1_555
C1_2 N2_2 1_555 1_555
C5_2 C7_2 1_555 1_555
C8_2 C9_2 1_555 1_555
N2_2 C12_2 1_555 1_555
O9 C18_2 1_555 1_555
N3_2 Cu1_3 1_555 1_555
C13_2 H9_2 1_555 1_555
O6_2 C17_2 1_555 1_555
C14_2 N3_2 1_555 1_555
H10_2 C14_2 1_555 1_555
O7_2 C17_2 1_555 1_555
O13 C18_2 1_555 1_555
C15_2 C14_2 1_555 1_555
H11_2 C15_2 1_555 1_555
C16_2 C13_2 1_555 1_555
H12_2 C16_2 1_555 1_555
C17_2 C19_2 1_555 1_555
C18_2 C22_2 1_555 1_555
C19_2 C15_2 1_555 1_555
C20_2 N3_2 1_555 1_555
H13_2 C20_2 1_555 1_555
C21_2 C19_2 1_555 1_555
H14_2 C21_2 1_555 1_555
C22_2 C16_2 1_555 1_555
C23_2 C22_2 1_555 1_555
H15_2 C23_2 1_555 1_555
N4_2 Cu1_3 1_555 1_555
C24_2 C23_2 1_555 1_555
H16_2 C24_2 1_555 1_555
Er4 O6_2 1_555 1_555
C13_2 N4_2 1_555 1_555
O7_2 Er4 1_555 1_555
C20_2 C21_2 1_555 1_555
N4_2 C24_2 1_555 1_555
O10_4 Er4 1_555 1_555
O11_4 Er4 1_555 1_555
O12_4 Er4 1_555 1_555
O14_4 Er4 1_555 1_555
Cu1_4 N1_3 1_555 1_555
N1_3 C2_3 1_555 1_555
O11_4 C5_3 1_555 1_555
C2_3 H2_3 1_555 1_555
C3_3 C2_3 1_555 1_555
H3_3 C3_3 1_555 1_555
C5_3 O12_4 1_555 1_555
C7_3 C3_3 1_555 1_555
C8_3 N1_3 1_555 1_555
H5_3 C8_3 1_555 1_555
C9_3 C7_3 1_555 1_555
H6_3 C9_3 1_555 1_555
O10_2 C18_3 1_555 1_555
C13_3 H9_3 1_555 1_555
O14_2 C18_3 1_555 1_555
C16_3 C13_3 1_555 1_555
H12_3 C16_3 1_555 1_555
C18_3 C22_3 1_555 1_555
C22_3 C16_3 1_555 1_555
C23_3 C22_3 1_555 1_555
H15_3 C23_3 1_555 1_555
N4_3 Cu1_4 1_555 1_555
C24_3 C23_3 1_555 1_555
H16_3 C24_3 1_555 1_555
C5_3 C7_3 1_555 1_555
C8_3 C9_3 1_555 1_555
C13_3 N4_3 1_555 1_555
N4_3 C24_3 1_555 1_555
O10 C6_3 1_555 1_555
C1_3 H1_3 1_555 1_555
O14 C6_3 1_555 1_555
C4_3 C1_3 1_555 1_555
H4_3 C4_3 1_555 1_555
C6_3 C10_3 1_555 1_555
C10_3 C4_3 1_555 1_555
C11_3 C10_3 1_555 1_555
H7_3 C11_3 1_555 1_555
N2_3 Cu1_5 1_555 1_555
C12_3 C11_3 1_555 1_555
H8_3 C12_3 1_555 1_555
N3_3 Cu1_5 1_555 1_555
O11_3 C17_3 1_555 1_555
C14_3 N3_3 1_555 1_555
H10_3 C14_3 1_555 1_555
O12_3 C17_3 1_555 1_555
C15_3 C14_3 1_555 1_555
H11_3 C15_3 1_555 1_555
C17_3 C19_3 1_555 1_555
C19_3 C15_3 1_555 1_555
C20_3 N3_3 1_555 1_555
H13_3 C20_3 1_555 1_555
C21_3 C19_3 1_555 1_555
H14_3 C21_3 1_555 1_555
C1_3 N2_3 1_555 1_555
N2_3 C12_3 1_555 1_555
C20_3 C21_3 1_555 1_555
Cu1_6 N1_4 1_555 1_555
N1_4 C2_4 1_555 1_555
O11_2 C5_4 1_555 1_555
C2_4 H2_4 1_555 1_555
C3_4 C2_4 1_555 1_555
H3_4 C3_4 1_555 1_555
C7_4 C3_4 1_555 1_555
C8_4 N1_4 1_555 1_555
C5_4 C7_4 1_555 1_555
H6_4 C9_4 1_555 1_555
O10_4 C18_4 1_555 1_555
C13_4 H9_4 1_555 1_555
O14_4 C18_4 1_555 1_555
C16_4 C13_4 1_555 1_555
H12_4 C16_4 1_555 1_555
C18_4 C22_4 1_555 1_555
C22_4 C16_4 1_555 1_555
C23_4 C22_4 1_555 1_555
H15_4 C23_4 1_555 1_555
N4_4 Cu1_7 1_555 1_555
C24_4 C23_4 1_555 1_555
H16_4 C24_4 1_555 1_555
C13_4 N4_4 1_555 1_555
N4_4 C24_4 1_555 1_555
O10_3 C6_4 1_555 1_555
C1_4 H1_4 1_555 1_555
O14_3 C6_4 1_555 1_555
C4_4 C1_4 1_555 1_555
H4_4 C4_4 1_555 1_555
C6_4 C10_4 1_555 1_555
C10_4 C4_4 1_555 1_555
C11_4 C10_4 1_555 1_555
H7_4 C11_4 1_555 1_555
N2_4 Cu1_8 1_555 1_555
C12_4 C11_4 1_555 1_555
H8_4 C12_4 1_555 1_555
C1_4 N2_4 1_555 1_555
N2_4 C12_4 1_555 1_555
N3_4 Cu1_9 1_555 1_555
O11 C17_4 1_555 1_555
C14_4 N3_4 1_555 1_555
H10_4 C14_4 1_555 1_555
C15_4 C14_4 1_555 1_555
H11_4 C15_4 1_555 1_555
C17_4 C19_4 1_555 1_555
C19_4 C15_4 1_555 1_555
C20_4 N3_4 1_555 1_555
H14_4 C21_4 1_555 1_555
O9_3 Er1_2 1_555 1_555
O11_5 Er1_2 1_555 1_555
O12_5 Er1_2 1_555 1_555
O13_3 Er1_2 1_555 1_555
Er1_3 O2_3 1_555 1_555
Cu1_10 N1_5 1_555 1_555
O1_2 C6_5 1_555 1_555
N1_5 C2_5 1_555 1_555
C1_5 H1_5 1_555 1_555
O2_3 C5_5 1_555 1_555
C2_5 H2_5 1_555 1_555
O3_3 Er1_3 1_555 1_555
O4_2 C6_5 1_555 1_555
C3_5 C2_5 1_555 1_555
H3_5 C3_5 1_555 1_555
C4_5 C1_5 1_555 1_555
H4_5 C4_5 1_555 1_555
C5_5 O3_3 1_555 1_555
C6_5 C10_5 1_555 1_555
C7_5 C3_5 1_555 1_555
C8_5 N1_5 1_555 1_555
H5_5 C8_5 1_555 1_555
C9_5 C7_5 1_555 1_555
H6_5 C9_5 1_555 1_555
C10_5 C4_5 1_555 1_555
C11_5 C10_5 1_555 1_555
H7_5 C11_5 1_555 1_555
N2_5 Cu1_10 1_555 1_555
C12_5 C11_5 1_555 1_555
H8_5 C12_5 1_555 1_555
O5_2 C18_5 1_555 1_555
N3_5 Cu1_10 1_555 1_555
C13_5 H9_5 1_555 1_555
O6_3 C17_5 1_555 1_555
C14_5 N3_5 1_555 1_555
H10_5 C14_5 1_555 1_555
O7_3 C17_5 1_555 1_555
O8_2 C18_5 1_555 1_555
C15_5 C14_5 1_555 1_555
H11_5 C15_5 1_555 1_555
C16_5 C13_5 1_555 1_555
H12_5 C16_5 1_555 1_555
C17_5 C19_5 1_555 1_555
C18_5 C22_5 1_555 1_555
C19_5 C15_5 1_555 1_555
C20_5 N3_5 1_555 1_555
H13_5 C20_5 1_555 1_555
C21_5 C19_5 1_555 1_555
H14_5 C21_5 1_555 1_555
C22_5 C16_5 1_555 1_555
C23_5 C22_5 1_555 1_555
H15_5 C23_5 1_555 1_555
N4_5 Cu1_10 1_555 1_555
C24_5 C23_5 1_555 1_555
H16_5 C24_5 1_555 1_555
Er2_3 O6_3 1_555 1_555
Er3_2 O5_2 1_555 1_555
Er4_5 O1_2 1_555 1_555
O10_5 Er1_3 1_555 1_555
O14_5 Er1_3 1_555 1_555
C1_5 N2_5 1_555 1_555
O4_2 Er4_5 1_555 1_555
C5_5 C7_5 1_555 1_555
C8_5 C9_5 1_555 1_555
N2_5 C12_5 1_555 1_555
C13_5 N4_5 1_555 1_555
O7_3 Er2_3 1_555 1_555
O8_2 Er3_2 1_555 1_555
C20_5 C21_5 1_555 1_555
N4_5 C24_5 1_555 1_555
O10_6 Er2_2 1_555 1_555
O11_6 Er2_2 1_555 1_555
O12_6 Er2_2 1_555 1_555
O14_6 Er2_2 1_555 1_555
O9_4 Er2_3 1_555 1_555
O13_4 Er2_3 1_555 1_555
O9_4 C6_6 1_555 1_555
O13_4 C6_6 1_555 1_555
C6_6 C10_6 1_555 1_555
C11_6 C10_6 1_555 1_555
H7_6 C11_6 1_555 1_555
C12_6 C11_6 1_555 1_555
H8_6 C12_6 1_555 1_555
O9_3 C18_6 1_555 1_555
O13_3 C18_6 1_555 1_555
C18_6 C22_6 1_555 1_555
C23_6 C22_6 1_555 1_555
H15_6 C23_6 1_555 1_555
C24_6 C23_6 1_555 1_555
H16_6 C24_6 1_555 1_555
N2_6 C12_6 1_555 1_555
N4_6 C24_6 1_555 1_555
Er3_2 O2_4 1_555 1_555
Cu1_11 N1_6 1_555 1_555
N1_6 C2_6 1_555 1_555
C1_6 H1_6 1_555 1_555
O2_4 C5_6 1_555 1_555
O3_4 Er3_2 1_555 1_555
C3_6 C2_6 1_555 1_555
H3_6 C3_6 1_555 1_555
C4_6 C1_6 1_555 1_555
H4_6 C4_6 1_555 1_555
C5_6 O3_4 1_555 1_555
C7_6 C3_6 1_555 1_555
C8_6 N1_6 1_555 1_555
H5_6 C8_6 1_555 1_555
C9_6 C7_6 1_555 1_555
H6_6 C9_6 1_555 1_555
N3_6 Cu1_11 1_555 1_555
C13_6 H9_6 1_555 1_555
O6_4 C17_6 1_555 1_555
C14_6 N3_6 1_555 1_555
O7_4 C17_6 1_555 1_555
C15_6 C14_6 1_555 1_555
H11_6 C15_6 1_555 1_555
C16_6 C13_6 1_555 1_555
H12_6 C16_6 1_555 1_555
C17_6 C19_6 1_555 1_555
C19_6 C15_6 1_555 1_555
C20_6 N3_6 1_555 1_555
H13_6 C20_6 1_555 1_555
C21_6 C19_6 1_555 1_555
H14_6 C21_6 1_555 1_555
Er4_4 O6_4 1_555 1_555
O10_7 Er3_2 1_555 1_555
O11_7 Er3_2 1_555 1_555
O12_7 Er3_2 1_555 1_555
O14_7 Er3_2 1_555 1_555
C5_6 C7_6 1_555 1_555
C8_6 C9_6 1_555 1_555
O7_4 Er4_4 1_555 1_555
C20_6 C21_6 1_555 1_555
O10_8 Er4_2 1_555 1_555
O14_8 Er4_2 1_555 1_555
O11_8 Er4_3 1_555 1_555
O12_8 Er4_3 1_555 1_555
O10_5 C6_7 1_555 1_555
O14_5 C6_7 1_555 1_555
C6_7 C10_7 1_555 1_555
C11_7 C10_7 1_555 1_555
H7_7 C11_7 1_555 1_555
C12_7 C11_7 1_555 1_555
H8_7 C12_7 1_555 1_555
O10_6 C18_7 1_555 1_555
O14_6 C18_7 1_555 1_555
C18_7 C22_7 1_555 1_555
C23_7 C22_7 1_555 1_555
H15_7 C23_7 1_555 1_555
C24_7 C23_7 1_555 1_555
H16_7 C24_7 1_555 1_555
N2_7 C12_7 1_555 1_555
N4_7 C24_7 1_555 1_555
Cu1_12 N1_7 1_555 1_555
N1_7 C2_7 1_555 1_555
C1_7 H1_7 1_555 1_555
O11_8 C5_7 1_555 1_555
C3_7 C2_7 1_555 1_555
H3_7 C3_7 1_555 1_555
C4_7 C1_7 1_555 1_555
H4_7 C4_7 1_555 1_555
C5_7 O12_8 1_555 1_555
C7_7 C3_7 1_555 1_555
C8_7 N1_7 1_555 1_555
H5_7 C8_7 1_555 1_555
C9_7 C7_7 1_555 1_555
H6_7 C9_7 1_555 1_555
N3_7 Cu1_12 1_555 1_555
C13_7 H9_7 1_555 1_555
O11_7 C17_7 1_555 1_555
C14_7 N3_7 1_555 1_555
O12_7 C17_7 1_555 1_555
C15_7 C14_7 1_555 1_555
H11_7 C15_7 1_555 1_555
C16_7 C13_7 1_555 1_555
H12_7 C16_7 1_555 1_555
C17_7 C19_7 1_555 1_555
C19_7 C15_7 1_555 1_555
C20_7 N3_7 1_555 1_555
H13_7 C20_7 1_555 1_555
C21_7 C19_7 1_555 1_555
H14_7 C21_7 1_555 1_555
C5_7 C7_7 1_555 1_555
C8_7 C9_7 1_555 1_555
C20_7 C21_7 1_555 1_555
Cu1_13 N1_8 1_555 1_555
O10_7 C6_8 1_555 1_555
N1_8 C2_8 1_555 1_555
C1_8 H1_8 1_555 1_555
O11_6 C5_8 1_555 1_555
C2_8 H2_8 1_555 1_555
O14_7 C6_8 1_555 1_555
C3_8 C2_8 1_555 1_555
H3_8 C3_8 1_555 1_555
C4_8 C1_8 1_555 1_555
H4_8 C4_8 1_555 1_555
C5_8 O12_6 1_555 1_555
C6_8 C10_8 1_555 1_555
C7_8 C3_8 1_555 1_555
C8_8 N1_8 1_555 1_555
H5_8 C8_8 1_555 1_555
C9_8 C7_8 1_555 1_555
H6_8 C9_8 1_555 1_555
C10_8 C4_8 1_555 1_555
C11_8 C10_8 1_555 1_555
H7_8 C11_8 1_555 1_555
N2_8 Cu1_13 1_555 1_555
C12_8 C11_8 1_555 1_555
H8_8 C12_8 1_555 1_555
O10_8 C18_8 1_555 1_555
N3_8 Cu1_13 1_555 1_555
C13_8 H9_8 1_555 1_555
O11_5 C17_8 1_555 1_555
C14_8 N3_8 1_555 1_555
H10_8 C14_8 1_555 1_555
O12_5 C17_8 1_555 1_555
O14_8 C18_8 1_555 1_555
C15_8 C14_8 1_555 1_555
H11_8 C15_8 1_555 1_555
C16_8 C13_8 1_555 1_555
H12_8 C16_8 1_555 1_555
C17_8 C19_8 1_555 1_555
C18_8 C22_8 1_555 1_555
C19_8 C15_8 1_555 1_555
C20_8 N3_8 1_555 1_555
H13_8 C20_8 1_555 1_555
C21_8 C19_8 1_555 1_555
H14_8 C21_8 1_555 1_555
C22_8 C16_8 1_555 1_555
C23_8 C22_8 1_555 1_555
H15_8 C23_8 1_555 1_555
N4_8 Cu1_13 1_555 1_555
C24_8 C23_8 1_555 1_555
H16_8 C24_8 1_555 1_555
C1_8 N2_8 1_555 1_555
C5_8 C7_8 1_555 1_555
C8_8 C9_8 1_555 1_555
N2_8 C12_8 1_555 1_555
C13_8 N4_8 1_555 1_555
C20_8 C21_8 1_555 1_555
N4_8 C24_8 1_555 1_555

#END
