
###############################################################################
#
# This file contains modified crystal structure data generated from the
# MOF subset of the Cambridge Structural Database (CSD) v543 
# hosted by the Cambridge Crystallographic Data Centre (CCDC).
#
# This work is licensed under the Creative Commons
# Attribution-NonCommercial-ShareAlike 4.0 International License.
# To view a copy of this license, visit
# http://creativecommons.org/licenses/by-nc-sa/4.0/
# or send a letter to
# Creative Commons, PO Box 1866, Mountain View, CA 94042, USA.
#
# CIF created using the CSD Python API on 29 September 2022
# The structure has been converted into the P1 space group
# The structure has a 3D framework
# The original CSD entry OFOCAQ01 is in the monoclinic crystal system
# The framework has been calculated to contain at least 10.0% void space
# The void calculation uses a probe of radius 1.32A, grid spacing 0.4
# The framework is charged, counterions have been retained in the structure
#
###############################################################################

data_OFOCAQ01
_chemical_formula_moiety         '(C160 H160 Br12 Cu6 N32 O48 Tb6 8-)n'
_symmetry_cell_setting           triclinic
_symmetry_space_group_name_H-M   'P 1'
_symmetry_Int_Tables_number      1
_space_group_name_Hall           'P 1'
loop_
_symmetry_equiv_pos_site_id
_symmetry_equiv_pos_as_xyz
1 x,y,z
_cell_length_a                   18.920(4)
_cell_length_b                   15.464(2)
_cell_length_c                   19.388(3)
_cell_angle_alpha                90
_cell_angle_beta                 101.707(15)
_cell_angle_gamma                90
_cell_volume                     5554.52
loop_
_atom_site_label
_atom_site_type_symbol
_atom_site_fract_x
_atom_site_fract_y
_atom_site_fract_z
H1 H 0.006877 0.611637 0.157511
C13 C 0.0323(3) 0.5974(5) 0.2628(4)
N1 N 0.0088(3) 0.5835(3) 0.3216(3)
H7 H 0.081558 0.605333 0.265927
Cu1 Cu 0.07730(4) 0.57749(5) 0.41931(4)
H24 H 0.004813 0.203736 0.011797
Br1 Br 0.500000 0.000000 0.000000
H21 H 0.765557 0.052987 0.086757
Cu4 Cu 0.92270(4) 0.07749(5) 0.08069(4)
H9 H 0.734443 0.052987 0.913243
Br1_2 Br 0.500000 0.000000 1.000000
Cu3 Cu 0.57730(4) 0.07749(5) 0.91931(4)
N7 N 0.5867(3) 0.1990(3) 0.9549(3)
N8 N 0.5088(3) 0.0835(3) 0.8216(3)
Tb1 Tb 0.750000 0.59185(2) 0.000000
O1 O 0.8758(2) 0.6306(3) 0.0712(2)
O2 O 0.8065(2) 0.5422(3) 0.1167(2)
O4 O 0.6712(2) 0.4951(3) 0.0319(2)
C1 C 0.8625(3) 0.5874(4) 0.1217(3)
C3 C 0.6144(3) 0.4566(4) 0.0386(3)
C4 C 0.9141(3) 0.5875(4) 0.1913(3)
C6 C 0.6008(3) 0.3690(4) 0.0045(3)
O6 O 0.5703(3) 0.4841(3) 0.0732(3)
C7 C 0.9879(3) 0.6007(4) 0.1973(3)
C8 C 0.8897(4) 0.5745(6) 0.2519(4)
C12 C 0.5416(3) 0.3200(4) 0.0106(3)
H2 H 0.840903 0.565136 0.250472
C14 C 0.9388(4) 0.5754(5) 0.3162(4)
H6 H 0.505873 0.342882 0.031764
H8 H 0.921012 0.570110 0.357358
Br1_3 Br 0.500000 1.000000 0.000000
O9 O 0.7208(2) 0.6999(3) 0.0690(2)
C20 C 0.7036(3) 0.7719(4) 0.0895(3)
C23 C 0.7558(3) 0.8465(4) 0.0888(3)
O11 O 0.6475(3) 0.7867(3) 0.1112(4)
C27 C 0.7327(4) 0.9312(4) 0.0895(4)
C28 C 0.8281(3) 0.8318(4) 0.0873(4)
C29 C 0.8492(3) 0.3328(4) 0.0300(3)
C33 C 0.7819(4) 0.9962(4) 0.0871(4)
H15 H 0.685115 0.944025 0.091499
C34 C 0.8727(4) 0.9002(4) 0.0858(4)
H16 H 0.845625 0.775621 0.087406
C35 C 0.8578(4) 0.2486(5) 0.0537(4)
H17 H 0.809948 0.365144 0.037231
C36 C 0.9641(3) 0.2359(4) 0.0153(3)
N5 N 0.8514(3) 0.9837(3) 0.0853(3)
H22 H 0.920813 0.888951 0.085103
N6 N 0.9133(3) 0.1990(3) 0.0451(3)
H23 H 0.823534 0.225341 0.076667
Cu7 Cu 0.42270(4) 0.92251(5) 0.08069(4)
Tb1_2 Tb 0.750000 0.59185(2) 1.000000
O3 O 0.7792(2) 0.6999(3) 0.9310(2)
C2 C 0.7964(3) 0.7719(4) 0.9105(3)
C5 C 0.7442(3) 0.8465(4) 0.9112(3)
O5 O 0.8525(3) 0.7867(3) 0.8888(4)
C9 C 0.7673(4) 0.9312(4) 0.9105(4)
C10 C 0.6719(3) 0.8318(4) 0.9127(4)
C11 C 0.6508(3) 0.3328(4) 0.9700(3)
C15 C 0.7181(4) 0.9962(4) 0.9129(4)
H3 H 0.814885 0.944025 0.908501
C16 C 0.6273(4) 0.9002(4) 0.9142(4)
H4 H 0.654375 0.775621 0.912594
C17 C 0.6422(4) 0.2486(5) 0.9463(4)
H5 H 0.690052 0.365144 0.962769
C18 C 0.5359(3) 0.2359(4) 0.9847(3)
N2 N 0.6486(3) 0.9837(3) 0.9147(3)
H10 H 0.579187 0.888951 0.914897
H11 H 0.676466 0.225341 0.923333
H12 H 0.495187 0.203736 0.988203
Br1_4 Br 0.500000 1.000000 1.000000
O7 O 0.6242(2) 0.6306(3) 0.9288(2)
O8 O 0.6935(2) 0.5422(3) 0.8833(2)
O10 O 0.8288(2) 0.4951(3) 0.9681(2)
C19 C 0.6375(3) 0.5874(4) 0.8783(3)
C21 C 0.8856(3) 0.4566(4) 0.9614(3)
C22 C 0.5859(3) 0.5875(4) 0.8087(3)
C24 C 0.8992(3) 0.3690(4) 0.9955(3)
O12 O 0.9297(3) 0.4841(3) 0.9268(3)
C25 C 0.5121(3) 0.6007(4) 0.8027(3)
C26 C 0.6103(4) 0.5745(6) 0.7481(4)
C30 C 0.9584(3) 0.3200(4) 0.9894(3)
H13 H 0.493123 0.611637 0.842489
C31 C 0.4677(3) 0.5974(5) 0.7372(4)
H14 H 0.659097 0.565136 0.749528
C32 C 0.5612(4) 0.5754(5) 0.6838(4)
H18 H 0.994127 0.342882 0.968236
N4 N 0.4912(3) 0.5835(3) 0.6784(3)
H19 H 0.418442 0.605333 0.734073
H20 H 0.578988 0.570110 0.642642
Cu2 Cu 0.42270(4) 0.57749(5) 0.58069(4)
Br1_5 Br 0.000000 0.000000 0.000000
Br1_6 Br 0.000000 0.000000 1.000000
Br1_7 Br -0.000000 1.000000 0.000000
Br1_8 Br 0.000000 1.000000 1.000000
Cu7_2 Cu 0.07730(4) 0.92251(5) 0.91931(4)
Br1_9 Br 1.000000 0.000000 0.000000
N8_2 N 0.9912(3) 0.0835(3) 0.1784(3)
Br1_10 Br 1.000000 0.000000 1.000000
Br1_11 Br 1.000000 1.000000 0.000000
Br1_12 Br 1.000000 1.000000 1.000000
Tb1_3 Tb 0.250000 0.09185(2) 0.500000
O1_2 O 0.3758(2) 0.1306(3) 0.5712(2)
O2_2 O 0.3065(2) 0.0422(3) 0.6167(2)
O3_2 O 0.2792(2) 0.1999(3) 0.4310(2)
C1_2 C 0.3625(3) 0.0874(4) 0.6217(3)
C2_2 C 0.2964(3) 0.2719(4) 0.4105(3)
C4_2 C 0.4141(3) 0.0875(4) 0.6913(3)
C5_2 C 0.2442(3) 0.3465(4) 0.4112(3)
O5_2 O 0.3525(3) 0.2867(3) 0.3888(4)
C7_2 C 0.4879(3) 0.1007(4) 0.6973(3)
C8_2 C 0.3897(4) 0.0745(6) 0.7519(4)
C9_2 C 0.2673(4) 0.4312(4) 0.4105(4)
C10_2 C 0.1719(3) 0.3318(4) 0.4127(4)
H1_2 H 0.506877 0.111637 0.657511
C13_2 C 0.5323(3) 0.0974(5) 0.7628(4)
H2_2 H 0.340903 0.065136 0.750472
C14_2 C 0.4388(4) 0.0754(5) 0.8162(4)
C15_2 C 0.2181(4) 0.4962(4) 0.4129(4)
H3_2 H 0.314885 0.444025 0.408501
C16_2 C 0.1273(4) 0.4002(4) 0.4142(4)
H4_2 H 0.154375 0.275621 0.412594
H7_2 H 0.581558 0.105333 0.765927
H8_2 H 0.421012 0.070110 0.857358
H9_2 H 0.234443 0.552987 0.413243
N2_2 N 0.1486(3) 0.4837(3) 0.4147(3)
H10_2 H 0.079187 0.388951 0.414897
Br1_13 Br 0.000000 0.500000 0.500000
O7_2 O 0.1242(2) 0.1306(3) 0.4288(2)
O8_2 O 0.1935(2) 0.0422(3) 0.3833(2)
O9_2 O 0.2208(2) 0.1999(3) 0.5690(2)
C19_2 C 0.1375(3) 0.0874(4) 0.3783(3)
C20_2 C 0.2036(3) 0.2719(4) 0.5895(3)
C22_2 C 0.0859(3) 0.0875(4) 0.3087(3)
C23_2 C 0.2558(3) 0.3465(4) 0.5888(3)
O11_2 O 0.1475(3) 0.2867(3) 0.6112(4)
C25_2 C 0.0121(3) 0.1007(4) 0.3027(3)
C26_2 C 0.1103(4) 0.0745(6) 0.2481(4)
C27_2 C 0.2327(4) 0.4312(4) 0.5895(4)
C28_2 C 0.3281(3) 0.3318(4) 0.5873(4)
H14_2 H 0.159097 0.065136 0.249528
C32_2 C 0.0612(4) 0.0754(5) 0.1838(4)
C33_2 C 0.2819(4) 0.4962(4) 0.5871(4)
H15_2 H 0.185115 0.444025 0.591499
C34_2 C 0.3727(4) 0.4002(4) 0.5858(4)
H16_2 H 0.345625 0.275621 0.587406
H20_2 H 0.078988 0.070110 0.142642
H21_2 H 0.265557 0.552987 0.586757
N5_2 N 0.3514(3) 0.4837(3) 0.5853(3)
H22_2 H 0.420813 0.388951 0.585103
N7_2 N 0.0867(3) 0.6990(3) 0.4549(3)
O4_2 O 0.1712(2) 0.9951(3) 0.5319(2)
C3_2 C 0.1144(3) 0.9566(4) 0.5386(3)
C6_2 C 0.1008(3) 0.8690(4) 0.5045(3)
O6_2 O 0.0703(3) 0.9841(3) 0.5732(3)
C11_2 C 0.1508(3) 0.8328(4) 0.4700(3)
C12_2 C 0.0416(3) 0.8200(4) 0.5106(3)
C17_2 C 0.1422(4) 0.7486(5) 0.4463(4)
H5_2 H 0.190052 0.865144 0.462769
H6_2 H 0.005873 0.842882 0.531764
C18_2 C 0.0359(3) 0.7359(4) 0.4847(3)
H11_2 H 0.176466 0.725341 0.423333
O10_2 O 0.3288(2) 0.9951(3) 0.4681(2)
C21_2 C 0.3856(3) 0.9566(4) 0.4614(3)
C24_2 C 0.3992(3) 0.8690(4) 0.4955(3)
O12_2 O 0.4297(3) 0.9841(3) 0.4268(3)
C29_2 C 0.3492(3) 0.8328(4) 0.5300(3)
C30_2 C 0.4584(3) 0.8200(4) 0.4894(3)
C35_2 C 0.3578(4) 0.7486(5) 0.5537(4)
H17_2 H 0.309948 0.865144 0.537231
H18_2 H 0.494127 0.842882 0.468236
C36_2 C 0.4641(3) 0.7359(4) 0.5153(3)
N6_2 N 0.4133(3) 0.6990(3) 0.5451(3)
H23_2 H 0.323534 0.725341 0.576667
H24_2 H 0.504813 0.703736 0.511797
Br1_14 Br 1.000000 0.500000 0.500000
H13_2 H 0.993123 0.111637 0.342489
C31_2 C 0.9677(3) 0.0974(5) 0.2372(4)
H19_2 H 0.918442 0.105333 0.234073
Cu7_3 Cu 0.92270(4) 0.42251(5) 0.58069(4)
H12_2 H 0.995187 0.703736 0.488203
Br1_15 Br 0.500000 0.500000 0.500000
Cu7_4 Cu 0.57730(4) 0.42251(5) 0.41931(4)
N9 N 0.3514(3) 0.0163(3) 0.0853(3)
Tb1_4 Tb 0.250000 0.40815(2) 0.000000
O3_3 O 0.2208(2) 0.3001(3) 0.0690(2)
C2_3 C 0.2036(3) 0.2281(4) 0.0895(3)
C5_3 C 0.2558(3) 0.1535(4) 0.0888(3)
O5_3 O 0.1475(3) 0.2133(3) 0.1112(4)
C9_3 C 0.2327(4) 0.0688(4) 0.0895(4)
C10_3 C 0.3281(3) 0.1682(4) 0.0873(4)
C11_3 C 0.3492(3) 0.6672(4) 0.0300(3)
C15_3 C 0.2819(4) 0.0038(4) 0.0871(4)
H3_3 H 0.185115 0.055975 0.091499
C16_3 C 0.3727(4) 0.0998(4) 0.0858(4)
H4_3 H 0.345625 0.224379 0.087406
C17_3 C 0.3578(4) 0.7514(5) 0.0537(4)
H5_3 H 0.309948 0.634856 0.037231
C18_3 C 0.4641(3) 0.7641(4) 0.0153(3)
H10_3 H 0.420813 0.111049 0.085103
N3 N 0.4133(3) 0.8010(3) 0.0451(3)
H11_3 H 0.323534 0.774659 0.076667
H12_3 H 0.504813 0.796264 0.011797
O7_3 O 0.3758(2) 0.3694(3) 0.0712(2)
O8_3 O 0.3065(2) 0.4578(3) 0.1167(2)
O10_3 O 0.1712(2) 0.5049(3) 0.0319(2)
C19_3 C 0.3625(3) 0.4126(4) 0.1217(3)
C21_3 C 0.1144(3) 0.5434(4) 0.0386(3)
C22_3 C 0.4141(3) 0.4125(4) 0.1913(3)
C24_3 C 0.1008(3) 0.6310(4) 0.0045(3)
O12_3 O 0.0703(3) 0.5159(3) 0.0732(3)
C25_3 C 0.4879(3) 0.3993(4) 0.1973(3)
C26_3 C 0.3897(4) 0.4255(6) 0.2519(4)
C30_3 C 0.0416(3) 0.6800(4) 0.0106(3)
H13_3 H 0.506877 0.388363 0.157511
C31_3 C 0.5323(3) 0.4026(5) 0.2628(4)
H14_3 H 0.340903 0.434864 0.250472
C32_3 C 0.4388(4) 0.4246(5) 0.3162(4)
H18_3 H 0.005873 0.657118 0.031764
N4_2 N 0.5088(3) 0.4165(3) 0.3216(3)
H19_3 H 0.581558 0.394667 0.265927
H20_3 H 0.421012 0.429890 0.357358
N10 N 0.4912(3) 0.9165(3) 0.1784(3)
Tb1_5 Tb 0.250000 0.40815(2) 1.000000
O1_3 O 0.1242(2) 0.3694(3) 0.9288(2)
O2_3 O 0.1935(2) 0.4578(3) 0.8833(2)
O4_3 O 0.3288(2) 0.5049(3) 0.9681(2)
C1_3 C 0.1375(3) 0.4126(4) 0.8783(3)
C3_3 C 0.3856(3) 0.5434(4) 0.9614(3)
C4_3 C 0.0859(3) 0.4125(4) 0.8087(3)
C6_3 C 0.3992(3) 0.6310(4) 0.9955(3)
O6_3 O 0.4297(3) 0.5159(3) 0.9268(3)
C7_3 C 0.0121(3) 0.3993(4) 0.8027(3)
C8_3 C 0.1103(4) 0.4255(6) 0.7481(4)
C12_3 C 0.4584(3) 0.6800(4) 0.9894(3)
H2_3 H 0.159097 0.434864 0.749528
C14_3 C 0.0612(4) 0.4246(5) 0.6838(4)
H6_3 H 0.494127 0.657118 0.968236
H8_3 H 0.078988 0.429890 0.642642
O9_3 O 0.2792(2) 0.3001(3) 0.9310(2)
C20_3 C 0.2964(3) 0.2281(4) 0.9105(3)
C23_3 C 0.2442(3) 0.1535(4) 0.9112(3)
O11_3 O 0.3525(3) 0.2133(3) 0.8888(4)
C27_3 C 0.2673(4) 0.0688(4) 0.9105(4)
C28_3 C 0.1719(3) 0.1682(4) 0.9127(4)
C29_3 C 0.1508(3) 0.6672(4) 0.9700(3)
C33_3 C 0.2181(4) 0.0038(4) 0.9129(4)
H15_3 H 0.314885 0.055975 0.908501
C34_3 C 0.1273(4) 0.0998(4) 0.9142(4)
H16_3 H 0.154375 0.224379 0.912594
C35_3 C 0.1422(4) 0.7514(5) 0.9463(4)
H17_3 H 0.190052 0.634856 0.962769
C36_3 C 0.0359(3) 0.7641(4) 0.9847(3)
N5_3 N 0.1486(3) 0.0163(3) 0.9147(3)
H22_3 H 0.079187 0.111049 0.914897
N6_3 N 0.0867(3) 0.8010(3) 0.9549(3)
H23_3 H 0.176466 0.774659 0.923333
H9_3 H 0.265557 0.947013 0.086757
H21_3 H 0.234443 0.947013 0.913243
H1_3 H 0.993123 0.388363 0.842489
C13_3 C 0.9677(3) 0.4026(5) 0.7372(4)
N1_2 N 0.9912(3) 0.4165(3) 0.6784(3)
H7_3 H 0.918442 0.394667 0.734073
H24_3 H 0.995187 0.796264 0.988203
N10_2 N 0.0088(3) 0.9165(3) 0.8216(3)
H12_4 H 0.004813 0.296264 0.511797
H13_4 H 0.006877 0.888363 0.657511
C31_4 C 0.0323(3) 0.9026(5) 0.7628(4)
H19_4 H 0.081558 0.894667 0.765927
O4_4 O 0.8288(2) 0.0049(3) 0.4681(2)
C3_4 C 0.8856(3) 0.0434(4) 0.4614(3)
C6_4 C 0.8992(3) 0.1310(4) 0.4955(3)
O6_4 O 0.9297(3) 0.0159(3) 0.4268(3)
C11_4 C 0.8492(3) 0.1672(4) 0.5300(3)
C12_4 C 0.9584(3) 0.1800(4) 0.4894(3)
C17_4 C 0.8578(4) 0.2514(5) 0.5537(4)
H5_4 H 0.809948 0.134856 0.537231
H6_4 H 0.994127 0.157118 0.468236
C18_4 C 0.9641(3) 0.2641(4) 0.5153(3)
N3_2 N 0.9133(3) 0.3010(3) 0.5451(3)
H11_4 H 0.823534 0.274659 0.576667
O10_4 O 0.6712(2) 0.0049(3) 0.5319(2)
C21_4 C 0.6144(3) 0.0434(4) 0.5386(3)
C24_4 C 0.6008(3) 0.1310(4) 0.5045(3)
O12_4 O 0.5703(3) 0.0159(3) 0.5732(3)
C29_4 C 0.6508(3) 0.1672(4) 0.4700(3)
C30_4 C 0.5416(3) 0.1800(4) 0.5106(3)
C35_4 C 0.6422(4) 0.2514(5) 0.4463(4)
H17_4 H 0.690052 0.134856 0.462769
H18_4 H 0.505873 0.157118 0.531764
C36_4 C 0.5359(3) 0.2641(4) 0.4847(3)
N6_4 N 0.5867(3) 0.3010(3) 0.4549(3)
H23_4 H 0.676466 0.274659 0.423333
H24_4 H 0.495187 0.296264 0.488203
N9_2 N 0.8514(3) 0.5163(3) 0.5853(3)
Tb1_6 Tb 0.750000 0.90815(2) 0.500000
O1_4 O 0.6242(2) 0.8694(3) 0.4288(2)
O2_4 O 0.6935(2) 0.9578(3) 0.3833(2)
O3_4 O 0.7208(2) 0.8001(3) 0.5690(2)
C1_4 C 0.6375(3) 0.9126(4) 0.3783(3)
C2_4 C 0.7036(3) 0.7281(4) 0.5895(3)
C4_4 C 0.5859(3) 0.9125(4) 0.3087(3)
C5_4 C 0.7558(3) 0.6535(4) 0.5888(3)
O5_4 O 0.6475(3) 0.7133(3) 0.6112(4)
C7_4 C 0.5121(3) 0.8993(4) 0.3027(3)
C8_4 C 0.6103(4) 0.9255(6) 0.2481(4)
C9_4 C 0.7327(4) 0.5688(4) 0.5895(4)
C10_4 C 0.8281(3) 0.6682(4) 0.5873(4)
H1_4 H 0.493123 0.888363 0.342489
C13_4 C 0.4677(3) 0.9026(5) 0.2372(4)
H2_4 H 0.659097 0.934864 0.249528
C14_4 C 0.5612(4) 0.9246(5) 0.1838(4)
C15_4 C 0.7819(4) 0.5038(4) 0.5871(4)
H3_4 H 0.685115 0.555975 0.591499
C16_4 C 0.8727(4) 0.5998(4) 0.5858(4)
H4_4 H 0.845625 0.724379 0.587406
H7_4 H 0.418442 0.894667 0.234073
H8_4 H 0.578988 0.929890 0.142642
H9_4 H 0.765557 0.447013 0.586757
H10_4 H 0.920813 0.611049 0.585103
O7_4 O 0.8758(2) 0.8694(3) 0.5712(2)
O8_4 O 0.8065(2) 0.9578(3) 0.6167(2)
O9_4 O 0.7792(2) 0.8001(3) 0.4310(2)
C19_4 C 0.8625(3) 0.9126(4) 0.6217(3)
C20_4 C 0.7964(3) 0.7281(4) 0.4105(3)
C22_4 C 0.9141(3) 0.9125(4) 0.6913(3)
C23_4 C 0.7442(3) 0.6535(4) 0.4112(3)
O11_4 O 0.8525(3) 0.7133(3) 0.3888(4)
C25_4 C 0.9879(3) 0.8993(4) 0.6973(3)
C26_4 C 0.8897(4) 0.9255(6) 0.7519(4)
C27_4 C 0.7673(4) 0.5688(4) 0.4105(4)
C28_4 C 0.6719(3) 0.6682(4) 0.4127(4)
H14_4 H 0.840903 0.934864 0.750472
C32_4 C 0.9388(4) 0.9246(5) 0.8162(4)
C33_4 C 0.7181(4) 0.5038(4) 0.4129(4)
H15_4 H 0.814885 0.555975 0.408501
C34_4 C 0.6273(4) 0.5998(4) 0.4142(4)
H16_4 H 0.654375 0.724379 0.412594
H20_4 H 0.921012 0.929890 0.857358
H21_4 H 0.734443 0.447013 0.413243
N5_4 N 0.6486(3) 0.5163(3) 0.4147(3)
H22_4 H 0.579187 0.611049 0.414897
N11 N 0.1056(3) 0.3726(4) 0.1539(3)
H25 H 0.094419 0.415584 0.123085
H26 H 0.116631 0.326672 0.130480
C37 C 0.0428(4) 0.3523(6) 0.1830(5)
H27 H 0.051267 0.299696 0.209685
H28 H 0.001591 0.345108 0.145325
H29 H 0.033933 0.398550 0.213097
C38 C 0.1697(5) 0.3977(6) 0.2065(5)
H30 H 0.157901 0.445652 0.233531
H31 H 0.207728 0.414049 0.183101
H32 H 0.185194 0.349716 0.237301
N11_2 N 0.3944(3) 0.3726(4) 0.8461(3)
H25_2 H 0.405581 0.415584 0.876915
H26_2 H 0.383369 0.326672 0.869520
C37_2 C 0.4572(4) 0.3523(6) 0.8170(5)
H27_2 H 0.448733 0.299696 0.790315
H28_2 H 0.498409 0.345108 0.854675
H29_2 H 0.466067 0.398550 0.786903
C38_2 C 0.3303(5) 0.3977(6) 0.7935(5)
H30_2 H 0.342099 0.445652 0.766469
H31_2 H 0.292272 0.414049 0.816899
H32_2 H 0.314806 0.349716 0.762699
N11_3 N 0.6056(3) 0.8726(4) 0.6539(3)
H25_3 H 0.594419 0.915584 0.623085
H26_3 H 0.616631 0.826672 0.630480
C37_3 C 0.5428(4) 0.8523(6) 0.6830(5)
H27_3 H 0.551267 0.799696 0.709685
H28_3 H 0.501591 0.845108 0.645325
H29_3 H 0.533933 0.898550 0.713097
C38_3 C 0.6697(5) 0.8977(6) 0.7065(5)
H30_3 H 0.657901 0.945652 0.733531
H31_3 H 0.707728 0.914049 0.683101
H32_3 H 0.685194 0.849716 0.737301
N11_4 N 0.8944(3) 0.8726(4) 0.3461(3)
H25_4 H 0.905581 0.915584 0.376915
H26_4 H 0.883369 0.826672 0.369520
C37_4 C 0.9572(4) 0.8523(6) 0.3170(5)
H27_4 H 0.948733 0.799696 0.290315
H28_4 H 0.998409 0.845108 0.354675
H29_4 H 0.966067 0.898550 0.286903
C38_4 C 0.8303(5) 0.8977(6) 0.2935(5)
H30_4 H 0.842099 0.945652 0.266469
H31_4 H 0.792272 0.914049 0.316899
H32_4 H 0.814806 0.849716 0.262699
N11_5 N 0.8944(3) 0.6274(4) 0.8461(3)
H25_5 H 0.905581 0.584416 0.876915
H26_5 H 0.883369 0.673328 0.869520
C37_5 C 0.9572(4) 0.6477(6) 0.8170(5)
H27_5 H 0.948733 0.700304 0.790315
H28_5 H 0.998409 0.654892 0.854675
H29_5 H 0.966067 0.601450 0.786903
C38_5 C 0.8303(5) 0.6023(6) 0.7935(5)
H30_5 H 0.842099 0.554348 0.766469
H31_5 H 0.792272 0.585951 0.816899
H32_5 H 0.814806 0.650284 0.762699
N11_6 N 0.6056(3) 0.6274(4) 0.1539(3)
H25_6 H 0.594419 0.584416 0.123085
H26_6 H 0.616631 0.673328 0.130480
C37_6 C 0.5428(4) 0.6477(6) 0.1830(5)
H27_6 H 0.551267 0.700304 0.209685
H28_6 H 0.501591 0.654892 0.145325
H29_6 H 0.533933 0.601450 0.213097
C38_6 C 0.6697(5) 0.6023(6) 0.2065(5)
H30_6 H 0.657901 0.554348 0.233531
H31_6 H 0.707728 0.585951 0.183101
H32_6 H 0.685194 0.650284 0.237301
N11_7 N 0.3944(3) 0.1274(4) 0.3461(3)
H25_7 H 0.405581 0.084416 0.376915
H26_7 H 0.383369 0.173328 0.369520
C37_7 C 0.4572(4) 0.1477(6) 0.3170(5)
H27_7 H 0.448733 0.200304 0.290315
H28_7 H 0.498409 0.154892 0.354675
H29_7 H 0.466067 0.101450 0.286903
C38_7 C 0.3303(5) 0.1023(6) 0.2935(5)
H30_7 H 0.342099 0.054348 0.266469
H31_7 H 0.292272 0.085951 0.316899
H32_7 H 0.314806 0.150284 0.262699
N11_8 N 0.1056(3) 0.1274(4) 0.6539(3)
H25_8 H 0.094419 0.084416 0.623085
H26_8 H 0.116631 0.173328 0.630480
C37_8 C 0.0428(4) 0.1477(6) 0.6830(5)
H27_8 H 0.051267 0.200304 0.709685
H28_8 H 0.001591 0.154892 0.645325
H29_8 H 0.033933 0.101450 0.713097
C38_8 C 0.1697(5) 0.1023(6) 0.7065(5)
H30_8 H 0.157901 0.054348 0.733531
H31_8 H 0.207728 0.085951 0.683101
H32_8 H 0.185194 0.150284 0.737301
loop_
_geom_bond_atom_site_label_1
_geom_bond_atom_site_label_2
_geom_bond_site_symmetry_1
_geom_bond_site_symmetry_2
N1 C13 1_555 1_555
H7 C13 1_555 1_555
Cu1 N1 1_555 1_555
Br1_2 Cu3 1_555 1_555
N7 Cu3 1_555 1_555
N8 Cu3 1_555 1_555
Tb1 O1 1_555 1_555
O1 C1 1_555 1_555
O2 Tb1 1_555 1_555
O4 Tb1 1_555 1_555
C1 O2 1_555 1_555
C3 O4 1_555 1_555
C4 C1 1_555 1_555
C6 C3 1_555 1_555
O6 C3 1_555 1_555
C7 C4 1_555 1_555
C8 C4 1_555 1_555
C12 C6 1_555 1_555
H2 C8 1_555 1_555
C14 C8 1_555 1_555
H6 C12 1_555 1_555
H8 C14 1_555 1_555
O9 Tb1 1_555 1_555
C20 O9 1_555 1_555
C23 C20 1_555 1_555
O11 C20 1_555 1_555
C27 C23 1_555 1_555
C28 C23 1_555 1_555
C33 C27 1_555 1_555
H15 C27 1_555 1_555
C34 C28 1_555 1_555
H16 C28 1_555 1_555
C35 C29 1_555 1_555
H17 C29 1_555 1_555
N5 C33 1_555 1_555
H22 C34 1_555 1_555
N6 C35 1_555 1_555
H23 C35 1_555 1_555
Cu4 N6 1_555 1_555
Cu7 Br1_3 1_555 1_555
C34 N5 1_555 1_555
C36 N6 1_555 1_555
O3 Tb1_2 1_555 1_555
C2 O3 1_555 1_555
C5 C2 1_555 1_555
O5 C2 1_555 1_555
C9 C5 1_555 1_555
C10 C5 1_555 1_555
C15 C9 1_555 1_555
H3 C9 1_555 1_555
C16 C10 1_555 1_555
H4 C10 1_555 1_555
C17 C11 1_555 1_555
H5 C11 1_555 1_555
N2 C15 1_555 1_555
H10 C16 1_555 1_555
N7 C17 1_555 1_555
H11 C17 1_555 1_555
H12 C18 1_555 1_555
O7 Tb1_2 1_555 1_555
O8 Tb1_2 1_555 1_555
O10 Tb1_2 1_555 1_555
C19 O7 1_555 1_555
C21 O10 1_555 1_555
C22 C19 1_555 1_555
C24 C21 1_555 1_555
O12 C21 1_555 1_555
C25 C22 1_555 1_555
C26 C22 1_555 1_555
C30 C24 1_555 1_555
H13 C25 1_555 1_555
C31 C25 1_555 1_555
H14 C26 1_555 1_555
C32 C26 1_555 1_555
H18 C30 1_555 1_555
N4 C31 1_555 1_555
H19 C31 1_555 1_555
H20 C32 1_555 1_555
Cu2 N4 1_555 1_555
C16 N2 1_555 1_555
C18 N7 1_555 1_555
O8 C19 1_555 1_555
C32 N4 1_555 1_555
Cu7_2 Br1_8 1_555 1_555
Br1_9 Cu4 1_555 1_555
N8_2 Cu4 1_555 1_555
Tb1_3 O1_2 1_555 1_555
O1_2 C1_2 1_555 1_555
O2_2 Tb1_3 1_555 1_555
O3_2 Tb1_3 1_555 1_555
C1_2 O2_2 1_555 1_555
C2_2 O3_2 1_555 1_555
C4_2 C1_2 1_555 1_555
C5_2 C2_2 1_555 1_555
O5_2 C2_2 1_555 1_555
C7_2 C4_2 1_555 1_555
C8_2 C4_2 1_555 1_555
C9_2 C5_2 1_555 1_555
C10_2 C5_2 1_555 1_555
H1_2 C7_2 1_555 1_555
C13_2 C7_2 1_555 1_555
H2_2 C8_2 1_555 1_555
C14_2 C8_2 1_555 1_555
C15_2 C9_2 1_555 1_555
H3_2 C9_2 1_555 1_555
C16_2 C10_2 1_555 1_555
H4_2 C10_2 1_555 1_555
N8 C13_2 1_555 1_555
H7_2 C13_2 1_555 1_555
H8_2 C14_2 1_555 1_555
H9_2 C15_2 1_555 1_555
N2_2 C15_2 1_555 1_555
H10_2 C16_2 1_555 1_555
Br1_13 Cu1 1_555 1_555
O7_2 Tb1_3 1_555 1_555
O8_2 Tb1_3 1_555 1_555
O9_2 Tb1_3 1_555 1_555
C19_2 O7_2 1_555 1_555
C20_2 O9_2 1_555 1_555
C22_2 C19_2 1_555 1_555
C23_2 C20_2 1_555 1_555
O11_2 C20_2 1_555 1_555
C25_2 C22_2 1_555 1_555
C26_2 C22_2 1_555 1_555
C27_2 C23_2 1_555 1_555
C28_2 C23_2 1_555 1_555
H14_2 C26_2 1_555 1_555
C32_2 C26_2 1_555 1_555
C33_2 C27_2 1_555 1_555
H15_2 C27_2 1_555 1_555
C34_2 C28_2 1_555 1_555
H16_2 C28_2 1_555 1_555
H20_2 C32_2 1_555 1_555
H21_2 C33_2 1_555 1_555
N5_2 C33_2 1_555 1_555
H22_2 C34_2 1_555 1_555
Cu1 N2_2 1_555 1_555
Cu2 N5_2 1_555 1_555
N7_2 Cu1 1_555 1_555
C14_2 N8 1_555 1_555
C16_2 N2_2 1_555 1_555
O8_2 C19_2 1_555 1_555
C34_2 N5_2 1_555 1_555
C3_2 O4_2 1_555 1_555
C6_2 C3_2 1_555 1_555
O6_2 C3_2 1_555 1_555
C11_2 C6_2 1_555 1_555
C12_2 C6_2 1_555 1_555
C17_2 C11_2 1_555 1_555
H5_2 C11_2 1_555 1_555
H6_2 C12_2 1_555 1_555
C18_2 C12_2 1_555 1_555
N7_2 C17_2 1_555 1_555
H11_2 C17_2 1_555 1_555
C21_2 O10_2 1_555 1_555
C24_2 C21_2 1_555 1_555
O12_2 C21_2 1_555 1_555
C29_2 C24_2 1_555 1_555
C30_2 C24_2 1_555 1_555
C35_2 C29_2 1_555 1_555
H17_2 C29_2 1_555 1_555
H18_2 C30_2 1_555 1_555
C36_2 C30_2 1_555 1_555
N6_2 C35_2 1_555 1_555
H23_2 C35_2 1_555 1_555
H24_2 C36_2 1_555 1_555
Cu2 N6_2 1_555 1_555
C18_2 N7_2 1_555 1_555
C36_2 N6_2 1_555 1_555
N8_2 C31_2 1_555 1_555
H19_2 C31_2 1_555 1_555
Cu7_3 Br1_14 1_555 1_555
Br1_15 Cu2 1_555 1_555
Cu7_4 Br1_15 1_555 1_555
O3_3 Tb1_4 1_555 1_555
C2_3 O3_3 1_555 1_555
C5_3 C2_3 1_555 1_555
O5_3 C2_3 1_555 1_555
C9_3 C5_3 1_555 1_555
C10_3 C5_3 1_555 1_555
C15_3 C9_3 1_555 1_555
H3_3 C9_3 1_555 1_555
C16_3 C10_3 1_555 1_555
H4_3 C10_3 1_555 1_555
C17_3 C11_3 1_555 1_555
H5_3 C11_3 1_555 1_555
N9 C15_3 1_555 1_555
H10_3 C16_3 1_555 1_555
N3 C17_3 1_555 1_555
H11_3 C17_3 1_555 1_555
H12_3 C18_3 1_555 1_555
O7_3 Tb1_4 1_555 1_555
O8_3 Tb1_4 1_555 1_555
O10_3 Tb1_4 1_555 1_555
C19_3 O7_3 1_555 1_555
C21_3 O10_3 1_555 1_555
C22_3 C19_3 1_555 1_555
C24_3 C21_3 1_555 1_555
O12_3 C21_3 1_555 1_555
C25_3 C22_3 1_555 1_555
C26_3 C22_3 1_555 1_555
C30_3 C24_3 1_555 1_555
H13_3 C25_3 1_555 1_555
C31_3 C25_3 1_555 1_555
H14_3 C26_3 1_555 1_555
C32_3 C26_3 1_555 1_555
H18_3 C30_3 1_555 1_555
N4_2 C31_3 1_555 1_555
H19_3 C31_3 1_555 1_555
H20_3 C32_3 1_555 1_555
Cu7_4 N4_2 1_555 1_555
Cu7 N3 1_555 1_555
N10 Cu7 1_555 1_555
C16_3 N9 1_555 1_555
C18_3 N3 1_555 1_555
O8_3 C19_3 1_555 1_555
C32_3 N4_2 1_555 1_555
Tb1_5 O1_3 1_555 1_555
O1_3 C1_3 1_555 1_555
O2_3 Tb1_5 1_555 1_555
O4_3 Tb1_5 1_555 1_555
C1_3 O2_3 1_555 1_555
C3_3 O4_3 1_555 1_555
C4_3 C1_3 1_555 1_555
C6_3 C3_3 1_555 1_555
O6_3 C3_3 1_555 1_555
C7_3 C4_3 1_555 1_555
C8_3 C4_3 1_555 1_555
C12_3 C6_3 1_555 1_555
H2_3 C8_3 1_555 1_555
C14_3 C8_3 1_555 1_555
H6_3 C12_3 1_555 1_555
H8_3 C14_3 1_555 1_555
O9_3 Tb1_5 1_555 1_555
C20_3 O9_3 1_555 1_555
C23_3 C20_3 1_555 1_555
O11_3 C20_3 1_555 1_555
C27_3 C23_3 1_555 1_555
C28_3 C23_3 1_555 1_555
C33_3 C27_3 1_555 1_555
H15_3 C27_3 1_555 1_555
C34_3 C28_3 1_555 1_555
H16_3 C28_3 1_555 1_555
C35_3 C29_3 1_555 1_555
H17_3 C29_3 1_555 1_555
N5_3 C33_3 1_555 1_555
H22_3 C34_3 1_555 1_555
N6_3 C35_3 1_555 1_555
H23_3 C35_3 1_555 1_555
Cu7_2 N6_3 1_555 1_555
C34_3 N5_3 1_555 1_555
C36_3 N6_3 1_555 1_555
N1_2 C13_3 1_555 1_555
H7_3 C13_3 1_555 1_555
Cu7_3 N1_2 1_555 1_555
N10_2 Cu7_2 1_555 1_555
N10_2 C31_4 1_555 1_555
H19_4 C31_4 1_555 1_555
C3_4 O4_4 1_555 1_555
C6_4 C3_4 1_555 1_555
O6_4 C3_4 1_555 1_555
C11_4 C6_4 1_555 1_555
C12_4 C6_4 1_555 1_555
C17_4 C11_4 1_555 1_555
H5_4 C11_4 1_555 1_555
H6_4 C12_4 1_555 1_555
C18_4 C12_4 1_555 1_555
N3_2 C17_4 1_555 1_555
H11_4 C17_4 1_555 1_555
C21_4 O10_4 1_555 1_555
C24_4 C21_4 1_555 1_555
O12_4 C21_4 1_555 1_555
C29_4 C24_4 1_555 1_555
C30_4 C24_4 1_555 1_555
C35_4 C29_4 1_555 1_555
H17_4 C29_4 1_555 1_555
H18_4 C30_4 1_555 1_555
C36_4 C30_4 1_555 1_555
N6_4 C35_4 1_555 1_555
H23_4 C35_4 1_555 1_555
H24_4 C36_4 1_555 1_555
Cu7_3 N3_2 1_555 1_555
Cu7_4 N6_4 1_555 1_555
N9_2 Cu7_3 1_555 1_555
C18_4 N3_2 1_555 1_555
C36_4 N6_4 1_555 1_555
Tb1_6 O1_4 1_555 1_555
O1_4 C1_4 1_555 1_555
O2_4 Tb1_6 1_555 1_555
O3_4 Tb1_6 1_555 1_555
C1_4 O2_4 1_555 1_555
C2_4 O3_4 1_555 1_555
C4_4 C1_4 1_555 1_555
C5_4 C2_4 1_555 1_555
O5_4 C2_4 1_555 1_555
C7_4 C4_4 1_555 1_555
C8_4 C4_4 1_555 1_555
C9_4 C5_4 1_555 1_555
C10_4 C5_4 1_555 1_555
H1_4 C7_4 1_555 1_555
C13_4 C7_4 1_555 1_555
H2_4 C8_4 1_555 1_555
C14_4 C8_4 1_555 1_555
C15_4 C9_4 1_555 1_555
H3_4 C9_4 1_555 1_555
C16_4 C10_4 1_555 1_555
H4_4 C10_4 1_555 1_555
N10 C13_4 1_555 1_555
H7_4 C13_4 1_555 1_555
H8_4 C14_4 1_555 1_555
H9_4 C15_4 1_555 1_555
N9_2 C15_4 1_555 1_555
H10_4 C16_4 1_555 1_555
O7_4 Tb1_6 1_555 1_555
O8_4 Tb1_6 1_555 1_555
O9_4 Tb1_6 1_555 1_555
C19_4 O7_4 1_555 1_555
C20_4 O9_4 1_555 1_555
C22_4 C19_4 1_555 1_555
C23_4 C20_4 1_555 1_555
O11_4 C20_4 1_555 1_555
C25_4 C22_4 1_555 1_555
C26_4 C22_4 1_555 1_555
C27_4 C23_4 1_555 1_555
C28_4 C23_4 1_555 1_555
H14_4 C26_4 1_555 1_555
C32_4 C26_4 1_555 1_555
C33_4 C27_4 1_555 1_555
H15_4 C27_4 1_555 1_555
C34_4 C28_4 1_555 1_555
H16_4 C28_4 1_555 1_555
H20_4 C32_4 1_555 1_555
H21_4 C33_4 1_555 1_555
N5_4 C33_4 1_555 1_555
H22_4 C34_4 1_555 1_555
Cu7_4 N5_4 1_555 1_555
C14_4 N10 1_555 1_555
C16_4 N9_2 1_555 1_555
O8_4 C19_4 1_555 1_555
C34_4 N5_4 1_555 1_555
N11 H25 1_555 1_555
H26 N11 1_555 1_555
C37 N11 1_555 1_555
H27 C37 1_555 1_555
H28 C37 1_555 1_555
H29 C37 1_555 1_555
C38 N11 1_555 1_555
H30 C38 1_555 1_555
H31 C38 1_555 1_555
H32 C38 1_555 1_555
N11_2 H25_2 1_555 1_555
H26_2 N11_2 1_555 1_555
C37_2 N11_2 1_555 1_555
H27_2 C37_2 1_555 1_555
H28_2 C37_2 1_555 1_555
H29_2 C37_2 1_555 1_555
C38_2 N11_2 1_555 1_555
H30_2 C38_2 1_555 1_555
H31_2 C38_2 1_555 1_555
H32_2 C38_2 1_555 1_555
N11_3 H25_3 1_555 1_555
H26_3 N11_3 1_555 1_555
C37_3 N11_3 1_555 1_555
H27_3 C37_3 1_555 1_555
H28_3 C37_3 1_555 1_555
H29_3 C37_3 1_555 1_555
C38_3 N11_3 1_555 1_555
H30_3 C38_3 1_555 1_555
H31_3 C38_3 1_555 1_555
H32_3 C38_3 1_555 1_555
N11_4 H25_4 1_555 1_555
H26_4 N11_4 1_555 1_555
C37_4 N11_4 1_555 1_555
H27_4 C37_4 1_555 1_555
H28_4 C37_4 1_555 1_555
H29_4 C37_4 1_555 1_555
C38_4 N11_4 1_555 1_555
H30_4 C38_4 1_555 1_555
H31_4 C38_4 1_555 1_555
H32_4 C38_4 1_555 1_555
N11_5 H25_5 1_555 1_555
H26_5 N11_5 1_555 1_555
C37_5 N11_5 1_555 1_555
H27_5 C37_5 1_555 1_555
H28_5 C37_5 1_555 1_555
H29_5 C37_5 1_555 1_555
C38_5 N11_5 1_555 1_555
H30_5 C38_5 1_555 1_555
H31_5 C38_5 1_555 1_555
H32_5 C38_5 1_555 1_555
N11_6 H25_6 1_555 1_555
H26_6 N11_6 1_555 1_555
C37_6 N11_6 1_555 1_555
H27_6 C37_6 1_555 1_555
H28_6 C37_6 1_555 1_555
H29_6 C37_6 1_555 1_555
C38_6 N11_6 1_555 1_555
H30_6 C38_6 1_555 1_555
H31_6 C38_6 1_555 1_555
H32_6 C38_6 1_555 1_555
N11_7 H25_7 1_555 1_555
H26_7 N11_7 1_555 1_555
C37_7 N11_7 1_555 1_555
H27_7 C37_7 1_555 1_555
H28_7 C37_7 1_555 1_555
H29_7 C37_7 1_555 1_555
C38_7 N11_7 1_555 1_555
H30_7 C38_7 1_555 1_555
H31_7 C38_7 1_555 1_555
H32_7 C38_7 1_555 1_555
N11_8 H25_8 1_555 1_555
H26_8 N11_8 1_555 1_555
C37_8 N11_8 1_555 1_555
H27_8 C37_8 1_555 1_555
H28_8 C37_8 1_555 1_555
H29_8 C37_8 1_555 1_555
C38_8 N11_8 1_555 1_555
H30_8 C38_8 1_555 1_555
H31_8 C38_8 1_555 1_555
H32_8 C38_8 1_555 1_555

#END
