
###############################################################################
#
# This file contains modified crystal structure data generated from the
# MOF subset of the Cambridge Structural Database (CSD) v543 
# hosted by the Cambridge Crystallographic Data Centre (CCDC).
#
# This work is licensed under the Creative Commons
# Attribution-NonCommercial-ShareAlike 4.0 International License.
# To view a copy of this license, visit
# http://creativecommons.org/licenses/by-nc-sa/4.0/
# or send a letter to
# Creative Commons, PO Box 1866, Mountain View, CA 94042, USA.
#
# CIF created using the CSD Python API on 29 September 2022
# The structure has been converted into the P1 space group
# The structure has a 3D framework
# The original CSD entry OFODAP is in the orthorhombic crystal system
# The framework has been calculated to contain at least 10.0% void space
# The void calculation uses a probe of radius 1.32A, grid spacing 0.4
#
###############################################################################

data_OFODAP
_chemical_formula_moiety         '(C100 H108 Cd8 N20 O42)n'
_symmetry_cell_setting           triclinic
_symmetry_space_group_name_H-M   'P 1'
_symmetry_Int_Tables_number      1
_space_group_name_Hall           'P 1'
loop_
_symmetry_equiv_pos_site_id
_symmetry_equiv_pos_as_xyz
1 x,y,z
_cell_length_a                   23.5160(11)
_cell_length_b                   15.1207(7)
_cell_length_c                   12.8597(6)
_cell_angle_alpha                90
_cell_angle_beta                 90
_cell_angle_gamma                90
_cell_volume                     4572.63
loop_
_atom_site_label
_atom_site_type_symbol
_atom_site_fract_x
_atom_site_fract_y
_atom_site_fract_z
Cd6 Cd 0.00014(4) 0.26733(5) 0.24750(9)
O3 O 0.4770(5) 0.3850(8) 0.0839(8)
O4 O 0.5502(4) 0.3030(6) 0.1268(10)
O5 O 0.8832(4) 0.2840(7) 0.0915(8)
O6 O 0.9602(4) 0.3596(6) 0.1375(11)
C4 C 0.5652(5) 0.4282(9) 0.0188(10)
C5 C 0.5281(6) 0.3663(11) 0.0786(11)
C6 C 0.6232(5) 0.4169(10) 0.0217(11)
H2 H 0.6385 0.3683 0.0562
C10 C 0.8292(5) 0.4342(9) 0.0184(10)
H4 H 0.8045 0.3926 0.0464
C11 C 0.8896(6) 0.4244(10) 0.0337(10)
C12 C 0.9134(7) 0.3508(9) 0.0935(10)
H5 H 0.9644 0.4918 0.0004
Cd3 Cd 0.38505(4) 0.36013(6) 0.13270(8)
Cd4 Cd 0.88505(4) 0.13987(6) 0.13270(8)
Cd5 Cd 0.50014(4) 0.23267(5) 0.24750(9)
Cd1 Cd 0.61495(4) 0.63987(6) 0.63270(8)
Cd2 Cd 0.49986(4) 0.76733(5) 0.74750(9)
O1 O 0.4984(4) 0.6426(7) 0.8621(8)
O2 O 0.5809(4) 0.6780(6) 0.7933(7)
O7 O 0.9214(4) 0.6709(7) 0.8087(8)
O8 O 0.9915(4) 0.6251(6) 0.8944(8)
O9 O 0.7065(4) 0.6495(7) 0.6715(9)
O10 O 0.6359(5) 0.5917(9) 0.4710(9)
O11 O 0.6186(5) 0.4956(6) 0.6763(7)
N1 N 0.7191(4) 0.4632(8) 0.9849(9)
N2 N 0.7497(4) 0.5181(8) 0.9465(9)
N3 N 0.7974(5) 0.6087(9) 0.6489(14)
N4 N 0.5969(8) 0.5562(12) 0.3108(12)
N5 N 0.6033(5) 0.3516(9) 0.6359(15)
C1 C 0.5501(6) 0.6288(9) 0.8531(10)
C2 C 0.5773(5) 0.5563(9) 0.9092(10)
C3 C 0.5417(5) 0.4938(9) 0.9660(9)
H1 H 0.5024 0.5002 0.9652
C7 C 0.6596(6) 0.4777(10) 0.9732(12)
C8 C 0.6372(5) 0.5459(9) 0.9127(11)
H3 H 0.6609 0.5836 0.8756
C9 C 0.8075(5) 0.5054(10) 0.9621(10)
C13 C 0.9254(5) 0.4941(12) 0.9890(11)
C14 C 0.9044(6) 0.5610(9) 0.9323(10)
C15 C 0.9427(6) 0.6254(9) 0.8720(12)
C16 C 0.8459(6) 0.5659(9) 0.9207(11)
H6 H 0.8312 0.6129 0.8826
C17 C 0.7417(7) 0.5966(14) 0.6605(12)
H7 H 0.7294 0.5381 0.6597
C18 C 0.8158(8) 0.6997(13) 0.628(2)
H8 H 0.7887 0.7279 0.5826
H9 H 0.8523 0.6988 0.5945
H10 H 0.8182 0.7320 0.6917
C19 C 0.8385(8) 0.5369(13) 0.626(2)
H11 H 0.8204 0.4929 0.5831
H12 H 0.8511 0.5104 0.6894
H13 H 0.8706 0.5609 0.5891
C20 C 0.6068(10) 0.6042(14) 0.3943(19)
H14 H 0.5878 0.6582 0.3947
C21 C 0.5591(10) 0.5882(17) 0.2254(18)
H15 H 0.5232 0.5582 0.2292
H16 H 0.5766 0.5763 0.1595
H17 H 0.5532 0.6507 0.2327
C22 C 0.6277(10) 0.4761(15) 0.2961(15)
H18 H 0.6654 0.4826 0.3240
H19 H 0.6301 0.4631 0.2231
H20 H 0.6086 0.4287 0.3312
C23 C 0.6030(7) 0.4396(11) 0.6234(19)
H21 H 0.5875 0.4586 0.5608
C24 C 0.5956(11) 0.2891(16) 0.5568(17)
H22 H 0.5798 0.3175 0.4966
H23 H 0.5701 0.2438 0.5804
H24 H 0.6315 0.2631 0.5391
C25 C 0.6321(12) 0.3252(18) 0.737(2)
H25 H 0.6704 0.3474 0.7381
H26 H 0.6327 0.2619 0.7430
H27 H 0.6114 0.3497 0.7948
Cd7 Cd 0.99986(4) 0.73267(5) 0.74750(9)
O12 O 0.5230(5) 0.6150(8) 0.5839(8)
O13 O 0.4498(4) 0.6970(6) 0.6268(10)
O14 O 0.6168(4) 0.7840(7) 0.5915(8)
O15 O 0.5398(4) 0.8596(6) 0.6375(11)
O16 O 0.4214(4) 0.8291(7) 0.8087(8)
O17 O 0.4915(4) 0.8749(6) 0.8944(8)
O1_2 O 0.5016(4) 0.3574(7) 0.3621(8)
O2_2 O 0.4191(4) 0.3220(6) 0.2933(7)
O5_2 O 0.1168(4) 0.7160(7) 0.5915(8)
O6_2 O 0.0398(4) 0.6404(6) 0.6375(11)
O7_2 O 0.0786(4) 0.3291(7) 0.3087(8)
O8_2 O 0.0085(4) 0.3749(6) 0.3944(8)
O9_2 O 0.2935(4) 0.3505(7) 0.1715(9)
O11_2 O 0.3814(5) 0.5044(6) 0.1763(7)
N1_2 N 0.2809(4) 0.5368(8) 0.4849(9)
N2_2 N 0.2503(4) 0.4819(8) 0.4465(9)
N3_2 N 0.2026(5) 0.3913(9) 0.1489(14)
N5_2 N 0.3967(5) 0.6484(9) 0.1359(15)
C1_2 C 0.4499(6) 0.3712(9) 0.3531(10)
C2_2 C 0.4227(5) 0.4437(9) 0.4092(10)
C3_2 C 0.4583(5) 0.5062(9) 0.4660(9)
H1_2 H 0.4976 0.4998 0.4652
C4_2 C 0.4348(5) 0.5718(9) 0.5188(10)
C5_2 C 0.4719(6) 0.6337(11) 0.5786(11)
C6_2 C 0.3768(5) 0.5831(10) 0.5217(11)
H2_2 H 0.3615 0.6317 0.5562
C7_2 C 0.3404(6) 0.5223(10) 0.4732(12)
C8_2 C 0.3628(5) 0.4541(9) 0.4127(11)
H3_2 H 0.3391 0.4164 0.3756
C9_2 C 0.1925(5) 0.4946(10) 0.4621(10)
C10_2 C 0.1708(5) 0.5658(9) 0.5184(10)
H4_2 H 0.1955 0.6074 0.5464
C11_2 C 0.1104(6) 0.5756(10) 0.5337(10)
C12_2 C 0.0866(7) 0.6492(9) 0.5935(10)
C13_2 C 0.0746(5) 0.5059(12) 0.4890(11)
H5_2 H 0.0356 0.5082 0.5004
C14_2 C 0.0956(6) 0.4390(9) 0.4323(10)
C15_2 C 0.0573(6) 0.3746(9) 0.3720(12)
C16_2 C 0.1541(6) 0.4341(9) 0.4207(11)
H6_2 H 0.1688 0.3871 0.3826
C17_2 C 0.2583(7) 0.4034(14) 0.1605(12)
H7_2 H 0.2706 0.4619 0.1597
C18_2 C 0.1842(8) 0.3003(13) 0.128(2)
H8_2 H 0.2113 0.2721 0.0826
H9_2 H 0.1477 0.3012 0.0945
H10_2 H 0.1818 0.2680 0.1917
C19_2 C 0.1615(8) 0.4631(13) 0.126(2)
H11_2 H 0.1796 0.5071 0.0831
H12_2 H 0.1489 0.4896 0.1894
H13_2 H 0.1294 0.4391 0.0891
C23_2 C 0.3970(7) 0.5604(11) 0.1234(19)
H21_2 H 0.4125 0.5414 0.0608
C24_2 C 0.4044(11) 0.7109(16) 0.0568(17)
H23_2 H 0.4299 0.7562 0.0804
H24_2 H 0.3685 0.7369 0.0391
C25_2 C 0.3679(12) 0.6748(18) 0.237(2)
H25_2 H 0.3296 0.6526 0.2381
H26_2 H 0.3673 0.7381 0.2430
H27_2 H 0.3886 0.6503 0.2948
Cd4_2 Cd 0.11495(4) 0.86013(6) 0.63270(8)
O14_2 O 0.3832(4) 0.2160(7) 0.0915(8)
O15_2 O 0.4602(4) 0.1404(6) 0.1375(11)
O16_2 O 0.5786(4) 0.1709(7) 0.3087(8)
O17_2 O 0.5085(4) 0.1251(6) 0.3944(8)
O4_2 O 0.0502(4) 0.1970(6) 0.1268(10)
C4_3 C 0.0652(5) 0.0718(9) 0.0188(10)
C5_3 C 0.0281(6) 0.1337(11) 0.0786(11)
C6_3 C 0.1232(5) 0.0831(10) 0.0217(11)
H2_3 H 0.1385 0.1317 0.0562
C10_3 C 0.3292(5) 0.0658(9) 0.0184(10)
H4_3 H 0.3045 0.1074 0.0464
C11_3 C 0.3896(6) 0.0756(10) 0.0337(10)
C12_3 C 0.4134(7) 0.1492(9) 0.0935(10)
H5_3 H 0.4644 0.0082 0.0004
O2_3 O 0.0809(4) 0.8220(6) 0.7933(7)
O9_3 O 0.2065(4) 0.8505(7) 0.6715(9)
O10_2 O 0.1359(5) 0.9083(9) 0.4710(9)
N2_3 N 0.2497(4) 0.9819(8) 0.9465(9)
N3_3 N 0.2974(5) 0.8913(9) 0.6489(14)
N4_2 N 0.0969(8) 0.9438(12) 0.3108(12)
C1_3 C 0.0501(6) 0.8712(9) 0.8531(10)
C2_3 C 0.0773(5) 0.9437(9) 0.9092(10)
H1_3 H 0.0024 0.9998 0.9652
C8_3 C 0.1372(5) 0.9541(9) 0.9127(11)
H3_3 H 0.1609 0.9164 0.8756
C9_3 C 0.3075(5) 0.9946(10) 0.9621(10)
C14_3 C 0.4044(6) 0.9390(9) 0.9323(10)
C15_3 C 0.4427(6) 0.8746(9) 0.8720(12)
C16_3 C 0.3459(6) 0.9341(9) 0.9207(11)
H6_3 H 0.3312 0.8871 0.8826
C17_3 C 0.2417(7) 0.9034(14) 0.6605(12)
H7_3 H 0.2294 0.9619 0.6597
C18_3 C 0.3158(8) 0.8003(13) 0.628(2)
H8_3 H 0.2887 0.7721 0.5826
H9_3 H 0.3523 0.8012 0.5945
H10_3 H 0.3182 0.7680 0.6917
C19_3 C 0.3385(8) 0.9631(13) 0.626(2)
H12_3 H 0.3511 0.9896 0.6894
H13_3 H 0.3706 0.9391 0.5891
C20_2 C 0.1068(10) 0.8958(14) 0.3943(19)
H14_2 H 0.0878 0.8418 0.3947
C21_2 C 0.0591(10) 0.9118(17) 0.2254(18)
H15_2 H 0.0232 0.9418 0.2292
H16_2 H 0.0766 0.9237 0.1595
H17_2 H 0.0532 0.8493 0.2327
O12_2 O 0.0230(5) 0.8850(8) 0.5839(8)
O3_2 O 0.9770(5) 0.1150(8) 0.0839(8)
O1_3 O 0.9984(4) 0.8574(7) 0.8621(8)
O13_2 O 0.9498(4) 0.8030(6) 0.6268(10)
O1_4 O 0.0016(4) 0.1426(7) 0.3621(8)
O2_4 O 0.9191(4) 0.1780(6) 0.2933(7)
O9_4 O 0.7935(4) 0.1495(7) 0.1715(9)
N2_4 N 0.7503(4) 0.0181(8) 0.4465(9)
N3_4 N 0.7026(5) 0.1087(9) 0.1489(14)
C1_4 C 0.9499(6) 0.1288(9) 0.3531(10)
C2_4 C 0.9227(5) 0.0563(9) 0.4092(10)
H1_4 H 0.9976 0.0002 0.4652
C8_4 C 0.8628(5) 0.0459(9) 0.4127(11)
H3_4 H 0.8391 0.0836 0.3756
C9_4 C 0.6925(5) 0.0054(10) 0.4621(10)
C14_4 C 0.5956(6) 0.0610(9) 0.4323(10)
C15_4 C 0.5573(6) 0.1254(9) 0.3720(12)
C16_4 C 0.6541(6) 0.0659(9) 0.4207(11)
H6_4 H 0.6688 0.1129 0.3826
C17_4 C 0.7583(7) 0.0966(14) 0.1605(12)
H7_4 H 0.7706 0.0381 0.1597
C18_4 C 0.6842(8) 0.1997(13) 0.128(2)
H8_4 H 0.7113 0.2279 0.0826
H9_4 H 0.6477 0.1988 0.0945
H10_4 H 0.6818 0.2320 0.1917
C19_4 C 0.6615(8) 0.0369(13) 0.126(2)
H12_4 H 0.6489 0.0104 0.1894
H13_4 H 0.6294 0.0609 0.0891
O11_3 O 0.8814(5) 0.9956(6) 0.1763(7)
N1_3 N 0.7809(4) 0.9632(8) 0.4849(9)
N5_3 N 0.8967(5) 0.8516(9) 0.1359(15)
C3_3 C 0.9583(5) 0.9938(9) 0.4660(9)
C4_4 C 0.9348(5) 0.9282(9) 0.5188(10)
C5_4 C 0.9719(6) 0.8663(11) 0.5786(11)
C6_4 C 0.8768(5) 0.9169(10) 0.5217(11)
H2_4 H 0.8615 0.8683 0.5562
C7_3 C 0.8404(6) 0.9777(10) 0.4732(12)
C10_4 C 0.6708(5) 0.9342(9) 0.5184(10)
H4_4 H 0.6955 0.8926 0.5464
C11_4 C 0.6104(6) 0.9244(10) 0.5337(10)
C12_4 C 0.5866(7) 0.8508(9) 0.5935(10)
C13_3 C 0.5746(5) 0.9941(12) 0.4890(11)
H5_4 H 0.5356 0.9918 0.5004
H11_3 H 0.6796 0.9929 0.0831
C23_3 C 0.8970(7) 0.9396(11) 0.1234(19)
H21_3 H 0.9125 0.9586 0.0608
C24_3 C 0.9044(11) 0.7891(16) 0.0568(17)
H23_3 H 0.9299 0.7438 0.0804
H24_3 H 0.8685 0.7631 0.0391
C25_3 C 0.8679(12) 0.8252(18) 0.237(2)
H25_3 H 0.8296 0.8474 0.2381
H26_3 H 0.8673 0.7619 0.2430
H27_3 H 0.8886 0.8497 0.2948
O10_3 O 0.3641(5) 0.4083(9) 0.9710(9)
N4_3 N 0.4031(8) 0.4438(12) 0.8108(12)
C20_3 C 0.3932(10) 0.3958(14) 0.8943(19)
H14_3 H 0.4122 0.3418 0.8947
C21_3 C 0.4409(10) 0.4118(17) 0.7254(18)
H15_3 H 0.4768 0.4418 0.7292
H16_3 H 0.4234 0.4237 0.6595
H17_3 H 0.4468 0.3493 0.7327
C22_2 C 0.3723(10) 0.5239(15) 0.7961(15)
H18_2 H 0.3346 0.5174 0.8240
H19_2 H 0.3699 0.5369 0.7231
H20_2 H 0.3914 0.5713 0.8312
H22_2 H 0.4202 0.6825 0.9966
O11_4 O 0.1186(5) 0.0044(6) 0.6763(7)
N1_4 N 0.2191(4) 0.0368(8) 0.9849(9)
N5_4 N 0.1033(5) 0.1484(9) 0.6359(15)
C3_4 C 0.0417(5) 0.0062(9) 0.9660(9)
C7_4 C 0.1596(6) 0.0223(10) 0.9732(12)
C13_4 C 0.4254(5) 0.0059(12) 0.9890(11)
H11_4 H 0.3204 0.0071 0.5831
C22_3 C 0.1277(10) 0.0239(15) 0.2961(15)
H18_3 H 0.1654 0.0174 0.3240
H19_3 H 0.1301 0.0369 0.2231
H20_3 H 0.1086 0.0713 0.3312
C23_4 C 0.1030(7) 0.0604(11) 0.6234(19)
H21_4 H 0.0875 0.0414 0.5608
C24_4 C 0.0956(11) 0.2109(16) 0.5568(17)
H22_3 H 0.0798 0.1825 0.4966
H23_4 H 0.0701 0.2562 0.5804
H24_4 H 0.1315 0.2369 0.5391
C25_4 C 0.1321(12) 0.1748(18) 0.737(2)
H25_4 H 0.1704 0.1526 0.7381
H26_4 H 0.1327 0.2381 0.7430
H27_4 H 0.1114 0.1503 0.7948
O10_4 O 0.8641(5) 0.0917(9) 0.9710(9)
N4_4 N 0.9031(8) 0.0562(12) 0.8108(12)
C20_4 C 0.8932(10) 0.1042(14) 0.8943(19)
H14_4 H 0.9122 0.1582 0.8947
C21_4 C 0.9409(10) 0.0882(17) 0.7254(18)
H15_4 H 0.9768 0.0582 0.7292
H16_4 H 0.9234 0.0763 0.6595
H17_4 H 0.9468 0.1507 0.7327
C22_4 C 0.8723(10) 0.9761(15) 0.7961(15)
H18_4 H 0.8346 0.9826 0.8240
H19_4 H 0.8699 0.9631 0.7231
H20_4 H 0.8914 0.9287 0.8312
H22_4 H 0.9202 0.8175 0.9966
loop_
_geom_bond_atom_site_label_1
_geom_bond_atom_site_label_2
_geom_bond_site_symmetry_1
_geom_bond_site_symmetry_2
O3 C5 1_555 1_555
O4 C5 1_555 1_555
O5 C12 1_555 1_555
O6 C12 1_555 1_555
C5 C4 1_555 1_555
C6 C4 1_555 1_555
H2 C6 1_555 1_555
C10 H4 1_555 1_555
C11 C10 1_555 1_555
C12 C11 1_555 1_555
Cd3 O3 1_555 1_555
Cd4 O5 1_555 1_555
Cd5 O4 1_555 1_555
Cd1 O2 1_555 1_555
Cd2 O1 1_555 1_555
O1 C1 1_555 1_555
O2 Cd2 1_555 1_555
O7 C15 1_555 1_555
O8 C15 1_555 1_555
O9 Cd1 1_555 1_555
O10 Cd1 1_555 1_555
O11 Cd1 1_555 1_555
N1 N2 1_555 1_555
N2 C9 1_555 1_555
N3 C17 1_555 1_555
N4 C20 1_555 1_555
N5 C23 1_555 1_555
C1 O2 1_555 1_555
C2 C1 1_555 1_555
C3 C2 1_555 1_555
H1 C3 1_555 1_555
C7 N1 1_555 1_555
C8 C2 1_555 1_555
H3 C8 1_555 1_555
C14 C13 1_555 1_555
C15 C14 1_555 1_555
C16 C9 1_555 1_555
H6 C16 1_555 1_555
C17 O9 1_555 1_555
H7 C17 1_555 1_555
C18 N3 1_555 1_555
H8 C18 1_555 1_555
H9 C18 1_555 1_555
H10 C18 1_555 1_555
C19 N3 1_555 1_555
H11 C19 1_555 1_555
H12 C19 1_555 1_555
H13 C19 1_555 1_555
C20 O10 1_555 1_555
H14 C20 1_555 1_555
C21 N4 1_555 1_555
H15 C21 1_555 1_555
H16 C21 1_555 1_555
H17 C21 1_555 1_555
C22 N4 1_555 1_555
H18 C22 1_555 1_555
H19 C22 1_555 1_555
H20 C22 1_555 1_555
C23 O11 1_555 1_555
H21 C23 1_555 1_555
C24 N5 1_555 1_555
H22 C24 1_555 1_555
H23 C24 1_555 1_555
H24 C24 1_555 1_555
C25 N5 1_555 1_555
H25 C25 1_555 1_555
H26 C25 1_555 1_555
H27 C25 1_555 1_555
Cd7 O7 1_555 1_555
O12 Cd1 1_555 1_555
O13 Cd2 1_555 1_555
O14 Cd1 1_555 1_555
O15 Cd2 1_555 1_555
O16 Cd2 1_555 1_555
O17 Cd2 1_555 1_555
O8 Cd7 1_555 1_555
C7 C8 1_555 1_555
C14 C16 1_555 1_555
Cd3 O2_2 1_555 1_555
Cd5 O1_2 1_555 1_555
O1_2 C1_2 1_555 1_555
O2_2 Cd5 1_555 1_555
O12 C5_2 1_555 1_555
O13 C5_2 1_555 1_555
O5_2 C12_2 1_555 1_555
O6_2 C12_2 1_555 1_555
O7_2 C15_2 1_555 1_555
O8_2 C15_2 1_555 1_555
O9_2 Cd3 1_555 1_555
O11_2 Cd3 1_555 1_555
N1_2 N2_2 1_555 1_555
N2_2 C9_2 1_555 1_555
N3_2 C17_2 1_555 1_555
N5_2 C23_2 1_555 1_555
C1_2 O2_2 1_555 1_555
C2_2 C1_2 1_555 1_555
C3_2 C2_2 1_555 1_555
H1_2 C3_2 1_555 1_555
C4_2 C3_2 1_555 1_555
C5_2 C4_2 1_555 1_555
C6_2 C4_2 1_555 1_555
H2_2 C6_2 1_555 1_555
C7_2 N1_2 1_555 1_555
C8_2 C2_2 1_555 1_555
H3_2 C8_2 1_555 1_555
C9_2 C10_2 1_555 1_555
C10_2 H4_2 1_555 1_555
C11_2 C10_2 1_555 1_555
C12_2 C11_2 1_555 1_555
C13_2 C11_2 1_555 1_555
H5_2 C13_2 1_555 1_555
C14_2 C13_2 1_555 1_555
C15_2 C14_2 1_555 1_555
C16_2 C9_2 1_555 1_555
H6_2 C16_2 1_555 1_555
C17_2 O9_2 1_555 1_555
H7_2 C17_2 1_555 1_555
C18_2 N3_2 1_555 1_555
H8_2 C18_2 1_555 1_555
H9_2 C18_2 1_555 1_555
H10_2 C18_2 1_555 1_555
C19_2 N3_2 1_555 1_555
H11_2 C19_2 1_555 1_555
H12_2 C19_2 1_555 1_555
H13_2 C19_2 1_555 1_555
C23_2 O11_2 1_555 1_555
H21_2 C23_2 1_555 1_555
C24_2 N5_2 1_555 1_555
H23_2 C24_2 1_555 1_555
H24_2 C24_2 1_555 1_555
C25_2 N5_2 1_555 1_555
H25_2 C25_2 1_555 1_555
H26_2 C25_2 1_555 1_555
H27_2 C25_2 1_555 1_555
Cd4_2 O5_2 1_555 1_555
Cd6 O7_2 1_555 1_555
O14_2 Cd3 1_555 1_555
O15_2 Cd5 1_555 1_555
O16_2 Cd5 1_555 1_555
O17_2 Cd5 1_555 1_555
O8_2 Cd6 1_555 1_555
C6_2 C7_2 1_555 1_555
C7_2 C8_2 1_555 1_555
C14_2 C16_2 1_555 1_555
O4_2 C5_3 1_555 1_555
O14_2 C12_3 1_555 1_555
O15_2 C12_3 1_555 1_555
C5_3 C4_3 1_555 1_555
C6_3 C4_3 1_555 1_555
H2_3 C6_3 1_555 1_555
C10_3 H4_3 1_555 1_555
C11_3 C10_3 1_555 1_555
C12_3 C11_3 1_555 1_555
Cd6 O4_2 1_555 1_555
Cd4_2 O2_3 1_555 1_555
O16 C15_3 1_555 1_555
O17 C15_3 1_555 1_555
O9_3 Cd4_2 1_555 1_555
O10_2 Cd4_2 1_555 1_555
N2_3 C9_3 1_555 1_555
N3_3 C17_3 1_555 1_555
N4_2 C20_2 1_555 1_555
C1_3 O2_3 1_555 1_555
C2_3 C1_3 1_555 1_555
C8_3 C2_3 1_555 1_555
H3_3 C8_3 1_555 1_555
C15_3 C14_3 1_555 1_555
C16_3 C9_3 1_555 1_555
H6_3 C16_3 1_555 1_555
C17_3 O9_3 1_555 1_555
H7_3 C17_3 1_555 1_555
C18_3 N3_3 1_555 1_555
H8_3 C18_3 1_555 1_555
H9_3 C18_3 1_555 1_555
H10_3 C18_3 1_555 1_555
C19_3 N3_3 1_555 1_555
H12_3 C19_3 1_555 1_555
H13_3 C19_3 1_555 1_555
C20_2 O10_2 1_555 1_555
H14_2 C20_2 1_555 1_555
C21_2 N4_2 1_555 1_555
H15_2 C21_2 1_555 1_555
H16_2 C21_2 1_555 1_555
H17_2 C21_2 1_555 1_555
O12_2 Cd4_2 1_555 1_555
C14_3 C16_3 1_555 1_555
Cd4 O3_2 1_555 1_555
Cd7 O1_3 1_555 1_555
O13_2 Cd7 1_555 1_555
Cd6 O1_4 1_555 1_555
Cd4 O2_4 1_555 1_555
O16_2 C15_4 1_555 1_555
O17_2 C15_4 1_555 1_555
O9_4 Cd4 1_555 1_555
N2_4 C9_4 1_555 1_555
N3_4 C17_4 1_555 1_555
C1_4 O2_4 1_555 1_555
C2_4 C1_4 1_555 1_555
C8_4 C2_4 1_555 1_555
H3_4 C8_4 1_555 1_555
C15_4 C14_4 1_555 1_555
C16_4 C9_4 1_555 1_555
H6_4 C16_4 1_555 1_555
C17_4 O9_4 1_555 1_555
H7_4 C17_4 1_555 1_555
C18_4 N3_4 1_555 1_555
H8_4 C18_4 1_555 1_555
H9_4 C18_4 1_555 1_555
H10_4 C18_4 1_555 1_555
C19_4 N3_4 1_555 1_555
H12_4 C19_4 1_555 1_555
H13_4 C19_4 1_555 1_555
C14_4 C16_4 1_555 1_555
O13_2 C5_4 1_555 1_555
O14 C12_4 1_555 1_555
O15 C12_4 1_555 1_555
N5_3 C23_3 1_555 1_555
C4_4 C3_3 1_555 1_555
C5_4 C4_4 1_555 1_555
C6_4 C4_4 1_555 1_555
H2_4 C6_4 1_555 1_555
C7_3 N1_3 1_555 1_555
C10_4 H4_4 1_555 1_555
C11_4 C10_4 1_555 1_555
C12_4 C11_4 1_555 1_555
C13_3 C11_4 1_555 1_555
H5_4 C13_3 1_555 1_555
C23_3 O11_3 1_555 1_555
H21_3 C23_3 1_555 1_555
C24_3 N5_3 1_555 1_555
H23_3 C24_3 1_555 1_555
H24_3 C24_3 1_555 1_555
C25_3 N5_3 1_555 1_555
H25_3 C25_3 1_555 1_555
H26_3 C25_3 1_555 1_555
H27_3 C25_3 1_555 1_555
C6_4 C7_3 1_555 1_555
N4_3 C20_3 1_555 1_555
C20_3 O10_3 1_555 1_555
H14_3 C20_3 1_555 1_555
C21_3 N4_3 1_555 1_555
H15_3 C21_3 1_555 1_555
H16_3 C21_3 1_555 1_555
H17_3 C21_3 1_555 1_555
C22_2 N4_3 1_555 1_555
H18_2 C22_2 1_555 1_555
H19_2 C22_2 1_555 1_555
H20_2 C22_2 1_555 1_555
N5_4 C23_4 1_555 1_555
C7_4 N1_4 1_555 1_555
H18_3 C22_3 1_555 1_555
H19_3 C22_3 1_555 1_555
H20_3 C22_3 1_555 1_555
C23_4 O11_4 1_555 1_555
H21_4 C23_4 1_555 1_555
C24_4 N5_4 1_555 1_555
H22_3 C24_4 1_555 1_555
H23_4 C24_4 1_555 1_555
H24_4 C24_4 1_555 1_555
C25_4 N5_4 1_555 1_555
H25_4 C25_4 1_555 1_555
H26_4 C25_4 1_555 1_555
H27_4 C25_4 1_555 1_555
N4_4 C20_4 1_555 1_555
C20_4 O10_4 1_555 1_555
H14_4 C20_4 1_555 1_555
C21_4 N4_4 1_555 1_555
H15_4 C21_4 1_555 1_555
H16_4 C21_4 1_555 1_555
H17_4 C21_4 1_555 1_555
H18_4 C22_4 1_555 1_555
H19_4 C22_4 1_555 1_555
H20_4 C22_4 1_555 1_555

#END
