
###############################################################################
#
# This file contains modified crystal structure data generated from the
# MOF subset of the Cambridge Structural Database (CSD) v543 
# hosted by the Cambridge Crystallographic Data Centre (CCDC).
#
# This work is licensed under the Creative Commons
# Attribution-NonCommercial-ShareAlike 4.0 International License.
# To view a copy of this license, visit
# http://creativecommons.org/licenses/by-nc-sa/4.0/
# or send a letter to
# Creative Commons, PO Box 1866, Mountain View, CA 94042, USA.
#
# CIF created using the CSD Python API on 29 September 2022
# The structure has been converted into the P1 space group
# The structure has a 3D framework
# The original CSD entry OFOMUU is in the orthorhombic crystal system
# The framework has been calculated to contain at least 10.0% void space
# The void calculation uses a probe of radius 1.32A, grid spacing 0.4
#
###############################################################################

data_OFOMUU
_chemical_formula_moiety         '(C192 H128 Cu8 N32 O64 Yb2)n'
_symmetry_cell_setting           triclinic
_symmetry_space_group_name_H-M   'P 1'
_symmetry_Int_Tables_number      1
_space_group_name_Hall           'P 1'
loop_
_symmetry_equiv_pos_site_id
_symmetry_equiv_pos_as_xyz
1 x,y,z
_cell_length_a                   12.506(12)
_cell_length_b                   22.88(2)
_cell_length_c                   24.70(2)
_cell_angle_alpha                90
_cell_angle_beta                 90
_cell_angle_gamma                90
_cell_volume                     7067.59
loop_
_atom_site_label
_atom_site_type_symbol
_atom_site_fract_x
_atom_site_fract_y
_atom_site_fract_z
Yb1 Yb 0.375000 0.375000 0.375000
Cu1 Cu 0.125000 0.625000 0.625000
N1 N 0.1980(6) 0.5674(4) 0.5733(3)
C1 C 0.3060(5) 0.5655(4) 0.5601(4)
H1 H 0.354256 0.589584 0.578203
C2 C 0.3420(5) 0.5278(4) 0.5200(4)
H2 H 0.414301 0.526504 0.511245
C3 C 0.2700(7) 0.4918(4) 0.4930(3)
C4 C 0.1619(6) 0.4937(4) 0.5061(4)
H3 H 0.113738 0.469671 0.488078
C5 C 0.1260(5) 0.5315(5) 0.5463(4)
H4 H 0.053691 0.532751 0.555036
C6 C 0.3072(11) 0.4510(5) 0.4483(5)
O1 O 0.4031(7) 0.4471(5) 0.4406(4)
O2 O 0.2378(6) 0.4227(4) 0.4216(3)
N2 N 0.0520(6) 0.6826(4) 0.5733(3)
C10 C 0.0881(6) 0.7563(4) 0.5061(4)
H7 H 0.136262 0.780329 0.488078
C11 C 0.1240(5) 0.7185(5) 0.5463(4)
H8 H 0.196309 0.717249 0.555036
O4 O 0.0122(6) 0.8273(4) 0.4216(3)
N3 N 0.1980(6) 0.6826(4) 0.6767(3)
C13 C 0.3060(5) 0.6845(4) 0.6899(4)
H9 H 0.354256 0.660416 0.671797
C14 C 0.3420(5) 0.7222(4) 0.7300(4)
H10 H 0.414301 0.723496 0.738755
C15 C 0.2700(7) 0.7582(4) 0.7570(3)
C16 C 0.1619(6) 0.7563(4) 0.7439(4)
H11 H 0.113738 0.780329 0.761922
C17 C 0.1260(5) 0.7185(5) 0.7037(4)
H12 H 0.053691 0.717249 0.694964
C18 C 0.3072(11) 0.7990(5) 0.8017(5)
O5 O 0.4031(7) 0.8029(5) 0.8094(4)
O6 O 0.2378(6) 0.8273(4) 0.8284(3)
N4 N 0.0520(6) 0.5674(4) 0.6767(3)
C22 C 0.0881(6) 0.4937(4) 0.7439(4)
H15 H 0.136262 0.469671 0.761922
C23 C 0.1240(5) 0.5315(5) 0.7037(4)
H16 H 0.196309 0.532751 0.694964
O8 O 0.0122(6) 0.4227(4) 0.8284(3)
Yb3 Yb 0.375000 0.875000 0.875000
O9 O 0.4031(7) 0.3029(5) 0.3094(4)
O10 O 0.3469(7) 0.4471(5) 0.3094(4)
O11 O 0.3469(7) 0.3029(5) 0.4406(4)
O12 O 0.2378(6) 0.3273(4) 0.3284(3)
O13 O 0.5122(6) 0.4227(4) 0.3284(3)
O14 O 0.5122(6) 0.3273(4) 0.4216(3)
C7 C 0.9440(5) 0.6845(4) 0.5601(4)
H5 H 0.895744 0.660416 0.578203
C8 C 0.9080(5) 0.7222(4) 0.5200(4)
H6 H 0.835699 0.723496 0.511245
C9 C 0.9800(7) 0.7582(4) 0.4930(3)
C12 C 0.9428(11) 0.7990(5) 0.4483(5)
O3 O 0.8469(7) 0.8029(5) 0.4406(4)
C19 C 0.9440(5) 0.5655(4) 0.6899(4)
H13 H 0.895744 0.589584 0.671797
C20 C 0.9080(5) 0.5278(4) 0.7300(4)
H14 H 0.835699 0.526504 0.738755
C21 C 0.9800(7) 0.4918(4) 0.7570(3)
C24 C 0.9428(11) 0.4510(5) 0.8017(5)
O7 O 0.8469(7) 0.4471(5) 0.8094(4)
Yb2 Yb 0.875000 0.875000 0.375000
Yb4 Yb 0.875000 0.375000 0.875000
O12_2 O 0.0122(6) 0.9227(4) 0.3284(3)
O9_2 O 0.8469(7) 0.9471(5) 0.3094(4)
O10_2 O 0.9031(7) 0.8029(5) 0.3094(4)
O11_2 O 0.9031(7) 0.9471(5) 0.4406(4)
O13_2 O 0.7378(6) 0.8273(4) 0.3284(3)
O14_2 O 0.7378(6) 0.9227(4) 0.4216(3)
O9_3 O 0.4031(7) 0.9471(5) 0.9406(4)
O10_3 O 0.3469(7) 0.8029(5) 0.9406(4)
O11_3 O 0.3469(7) 0.9471(5) 0.8094(4)
O12_3 O 0.2378(6) 0.9227(4) 0.9216(3)
O13_3 O 0.5122(6) 0.8273(4) 0.9216(3)
O14_3 O 0.5122(6) 0.9227(4) 0.8284(3)
O12_4 O 0.0122(6) 0.3273(4) 0.9216(3)
O9_4 O 0.8469(7) 0.3029(5) 0.9406(4)
O10_4 O 0.9031(7) 0.4471(5) 0.9406(4)
O11_4 O 0.9031(7) 0.3029(5) 0.8094(4)
O13_4 O 0.7378(6) 0.4227(4) 0.9216(3)
O14_4 O 0.7378(6) 0.3273(4) 0.8284(3)
Cu1_2 Cu 0.125000 0.125000 0.125000
N1_2 N 0.1980(6) 0.0674(4) 0.0733(3)
C1_2 C 0.3060(5) 0.0655(4) 0.0601(4)
H1_2 H 0.354256 0.089584 0.078203
C2_2 C 0.3420(5) 0.0278(4) 0.0200(4)
H2_2 H 0.414301 0.026504 0.011245
C5_2 C 0.1260(5) 0.0315(5) 0.0463(4)
H4_2 H 0.053691 0.032751 0.055036
N2_2 N 0.0520(6) 0.1826(4) 0.0733(3)
C10_2 C 0.0881(6) 0.2563(4) 0.0061(4)
C11_2 C 0.1240(5) 0.2185(5) 0.0463(4)
H8_2 H 0.196309 0.217249 0.055036
N3_2 N 0.1980(6) 0.1826(4) 0.1767(3)
C13_2 C 0.3060(5) 0.1845(4) 0.1899(4)
H9_2 H 0.354256 0.160416 0.171797
C14_2 C 0.3420(5) 0.2222(4) 0.2300(4)
H10_2 H 0.414301 0.223496 0.238755
C15_2 C 0.2700(7) 0.2582(4) 0.2570(3)
C16_2 C 0.1619(6) 0.2563(4) 0.2439(4)
H11_2 H 0.113738 0.280329 0.261922
C17_2 C 0.1260(5) 0.2185(5) 0.2037(4)
H12_2 H 0.053691 0.217249 0.194964
C18_2 C 0.3072(11) 0.2990(5) 0.3017(5)
N4_2 N 0.0520(6) 0.0674(4) 0.1767(3)
C23_2 C 0.1240(5) 0.0315(5) 0.2037(4)
H16_2 H 0.196309 0.032751 0.194964
H7_2 H 0.136262 0.280329 0.988078
C4_2 C 0.1619(6) 0.9937(4) 0.0061(4)
C22_2 C 0.0881(6) 0.9937(4) 0.2439(4)
H15_2 H 0.136262 0.969671 0.261922
C3_2 C 0.2700(7) 0.9918(4) 0.9930(3)
H3_2 H 0.113738 0.969671 0.988078
C6_2 C 0.3072(11) 0.9510(5) 0.9483(5)
C9_2 C 0.9800(7) 0.2582(4) 0.9930(3)
C12_2 C 0.9428(11) 0.2990(5) 0.9483(5)
C21_2 C 0.9800(7) 0.9918(4) 0.2570(3)
C24_2 C 0.9428(11) 0.9510(5) 0.3017(5)
Cu1_3 Cu 0.625000 0.625000 0.125000
N1_3 N 0.6980(6) 0.5674(4) 0.0733(3)
C1_3 C 0.8060(5) 0.5655(4) 0.0601(4)
H1_3 H 0.854256 0.589584 0.078203
C2_3 C 0.8420(5) 0.5278(4) 0.0200(4)
H2_3 H 0.914301 0.526504 0.011245
C4_3 C 0.6619(6) 0.4937(4) 0.0061(4)
C5_3 C 0.6260(5) 0.5315(5) 0.0463(4)
H4_3 H 0.553691 0.532751 0.055036
N2_3 N 0.5520(6) 0.6826(4) 0.0733(3)
C7_2 C 0.4440(5) 0.6845(4) 0.0601(4)
H5_2 H 0.395744 0.660416 0.078203
C8_2 C 0.4080(5) 0.7222(4) 0.0200(4)
H6_2 H 0.335699 0.723496 0.011245
C10_3 C 0.5881(6) 0.7563(4) 0.0061(4)
C11_3 C 0.6240(5) 0.7185(5) 0.0463(4)
H8_3 H 0.696309 0.717249 0.055036
N3_3 N 0.6980(6) 0.6826(4) 0.1767(3)
C13_3 C 0.8060(5) 0.6845(4) 0.1899(4)
H9_3 H 0.854256 0.660416 0.171797
C14_3 C 0.8420(5) 0.7222(4) 0.2300(4)
H10_3 H 0.914301 0.723496 0.238755
C15_3 C 0.7700(7) 0.7582(4) 0.2570(3)
C16_3 C 0.6619(6) 0.7563(4) 0.2439(4)
H11_3 H 0.613738 0.780329 0.261922
C17_3 C 0.6260(5) 0.7185(5) 0.2037(4)
H12_3 H 0.553691 0.717249 0.194964
C18_3 C 0.8072(11) 0.7990(5) 0.3017(5)
N4_3 N 0.5520(6) 0.5674(4) 0.1767(3)
C19_2 C 0.4440(5) 0.5655(4) 0.1899(4)
H13_2 H 0.395744 0.589584 0.171797
C20_2 C 0.4080(5) 0.5278(4) 0.2300(4)
H14_2 H 0.335699 0.526504 0.238755
C21_3 C 0.4800(7) 0.4918(4) 0.2570(3)
C22_3 C 0.5881(6) 0.4937(4) 0.2439(4)
H15_3 H 0.636262 0.469671 0.261922
C23_3 C 0.6240(5) 0.5315(5) 0.2037(4)
H16_3 H 0.696309 0.532751 0.194964
C24_3 C 0.4428(11) 0.4510(5) 0.3017(5)
C3_3 C 0.7700(7) 0.4918(4) 0.9930(3)
H3_3 H 0.613738 0.469671 0.988078
C6_3 C 0.8072(11) 0.4510(5) 0.9483(5)
C9_3 C 0.4800(7) 0.7582(4) 0.9930(3)
H7_3 H 0.636262 0.780329 0.988078
C12_3 C 0.4428(11) 0.7990(5) 0.9483(5)
Cu1_4 Cu 0.625000 0.125000 0.625000
N1_4 N 0.6980(6) 0.0674(4) 0.5733(3)
C1_4 C 0.8060(5) 0.0655(4) 0.5601(4)
H1_4 H 0.854256 0.089584 0.578203
C2_4 C 0.8420(5) 0.0278(4) 0.5200(4)
H2_4 H 0.914301 0.026504 0.511245
C5_4 C 0.6260(5) 0.0315(5) 0.5463(4)
H4_4 H 0.553691 0.032751 0.555036
N2_4 N 0.5520(6) 0.1826(4) 0.5733(3)
C7_3 C 0.4440(5) 0.1845(4) 0.5601(4)
H5_3 H 0.395744 0.160416 0.578203
C8_3 C 0.4080(5) 0.2222(4) 0.5200(4)
H6_3 H 0.335699 0.223496 0.511245
C9_4 C 0.4800(7) 0.2582(4) 0.4930(3)
C10_4 C 0.5881(6) 0.2563(4) 0.5061(4)
H7_4 H 0.636262 0.280329 0.488078
C11_4 C 0.6240(5) 0.2185(5) 0.5463(4)
H8_4 H 0.696309 0.217249 0.555036
C12_4 C 0.4428(11) 0.2990(5) 0.4483(5)
N3_4 N 0.6980(6) 0.1826(4) 0.6767(3)
C13_4 C 0.8060(5) 0.1845(4) 0.6899(4)
H9_4 H 0.854256 0.160416 0.671797
C14_4 C 0.8420(5) 0.2222(4) 0.7300(4)
H10_4 H 0.914301 0.223496 0.738755
C15_4 C 0.7700(7) 0.2582(4) 0.7570(3)
C16_4 C 0.6619(6) 0.2563(4) 0.7439(4)
H11_4 H 0.613738 0.280329 0.761922
C17_4 C 0.6260(5) 0.2185(5) 0.7037(4)
H12_4 H 0.553691 0.217249 0.694964
C18_4 C 0.8072(11) 0.2990(5) 0.8017(5)
N4_4 N 0.5520(6) 0.0674(4) 0.6767(3)
C19_3 C 0.4440(5) 0.0655(4) 0.6899(4)
H13_3 H 0.395744 0.089584 0.671797
C20_3 C 0.4080(5) 0.0278(4) 0.7300(4)
H14_3 H 0.335699 0.026504 0.738755
C23_4 C 0.6240(5) 0.0315(5) 0.7037(4)
H16_4 H 0.696309 0.032751 0.694964
C3_4 C 0.7700(7) 0.9918(4) 0.4930(3)
C4_4 C 0.6619(6) 0.9937(4) 0.5061(4)
H3_4 H 0.613738 0.969671 0.488078
C6_4 C 0.8072(11) 0.9510(5) 0.4483(5)
C21_4 C 0.4800(7) 0.9918(4) 0.7570(3)
C22_4 C 0.5881(6) 0.9937(4) 0.7439(4)
H15_4 H 0.636262 0.969671 0.761922
C24_4 C 0.4428(11) 0.9510(5) 0.8017(5)
C7_4 C 0.9440(5) 0.1845(4) 0.0601(4)
H5_4 H 0.895744 0.160416 0.078203
C8_4 C 0.9080(5) 0.2222(4) 0.0200(4)
H6_4 H 0.835699 0.223496 0.011245
C19_4 C 0.9440(5) 0.0655(4) 0.1899(4)
H13_4 H 0.895744 0.089584 0.171797
C20_4 C 0.9080(5) 0.0278(4) 0.2300(4)
H14_4 H 0.835699 0.026504 0.238755
C7_5 C 0.0560(5) 0.3155(4) 0.4399(4)
H5_5 H 0.104256 0.339584 0.421797
C8_5 C 0.0920(5) 0.2778(4) 0.4800(4)
H6_5 H 0.164301 0.276504 0.488755
C9_5 C 0.0200(7) 0.2418(4) 0.5070(3)
C12_5 C 0.0572(11) 0.2010(5) 0.5517(5)
O3_2 O 0.1531(7) 0.1971(5) 0.5594(4)
C19_5 C 0.0560(5) 0.4345(4) 0.3101(4)
H13_5 H 0.104256 0.410416 0.328203
C20_5 C 0.0920(5) 0.4722(4) 0.2700(4)
H14_5 H 0.164301 0.473496 0.261245
C21_5 C 0.0200(7) 0.5082(4) 0.2430(3)
C24_5 C 0.0572(11) 0.5490(5) 0.1983(5)
O7_2 O 0.1531(7) 0.5529(5) 0.1906(4)
Yb2_2 Yb 0.125000 0.125000 0.625000
Yb4_2 Yb 0.125000 0.625000 0.125000
Yb1_2 Yb 0.625000 0.625000 0.625000
Cu1_5 Cu 0.875000 0.375000 0.375000
N1_5 N 0.8020(6) 0.4326(4) 0.4267(3)
C1_5 C 0.6940(5) 0.4345(4) 0.4399(4)
H1_5 H 0.645744 0.410416 0.421797
C2_5 C 0.6580(5) 0.4722(4) 0.4800(4)
H2_5 H 0.585699 0.473496 0.488755
C3_5 C 0.7300(7) 0.5082(4) 0.5070(3)
C4_5 C 0.8381(6) 0.5063(4) 0.4939(4)
H3_5 H 0.886262 0.530329 0.511922
C5_5 C 0.8740(5) 0.4685(5) 0.4537(4)
H4_5 H 0.946309 0.467249 0.444964
C6_5 C 0.6928(11) 0.5490(5) 0.5517(5)
O1_2 O 0.5969(7) 0.5529(5) 0.5594(4)
O2_2 O 0.7622(6) 0.5773(4) 0.5784(3)
N2_5 N 0.9480(6) 0.3174(4) 0.4267(3)
C10_5 C 0.9119(6) 0.2437(4) 0.4939(4)
H7_5 H 0.863738 0.219671 0.511922
C11_5 C 0.8760(5) 0.2815(5) 0.4537(4)
H8_5 H 0.803691 0.282751 0.444964
O4_2 O 0.9878(6) 0.1727(4) 0.5784(3)
N3_5 N 0.8020(6) 0.3174(4) 0.3233(3)
C13_5 C 0.6940(5) 0.3155(4) 0.3101(4)
H9_5 H 0.645744 0.339584 0.328203
C14_5 C 0.6580(5) 0.2778(4) 0.2700(4)
H10_5 H 0.585699 0.276504 0.261245
C15_5 C 0.7300(7) 0.2418(4) 0.2430(3)
C16_5 C 0.8381(6) 0.2437(4) 0.2561(4)
H11_5 H 0.886262 0.219671 0.238078
C17_5 C 0.8740(5) 0.2815(5) 0.2963(4)
H12_5 H 0.946309 0.282751 0.305036
C18_5 C 0.6928(11) 0.2010(5) 0.1983(5)
O5_2 O 0.5969(7) 0.1971(5) 0.1906(4)
O6_2 O 0.7622(6) 0.1727(4) 0.1716(3)
N4_5 N 0.9480(6) 0.4326(4) 0.3233(3)
C22_5 C 0.9119(6) 0.5063(4) 0.2561(4)
H15_5 H 0.863738 0.530329 0.238078
C23_5 C 0.8760(5) 0.4685(5) 0.2963(4)
H16_5 H 0.803691 0.467249 0.305036
O8_2 O 0.9878(6) 0.5773(4) 0.1716(3)
Yb3_2 Yb 0.625000 0.125000 0.125000
O9_5 O 0.5969(7) 0.6971(5) 0.6906(4)
O10_5 O 0.6531(7) 0.5529(5) 0.6906(4)
O11_5 O 0.6531(7) 0.6971(5) 0.5594(4)
O12_5 O 0.7622(6) 0.6727(4) 0.6716(3)
O13_5 O 0.4878(6) 0.5773(4) 0.6716(3)
O14_5 O 0.4878(6) 0.6727(4) 0.5784(3)
O9_6 O 0.1531(7) 0.0529(5) 0.6906(4)
O10_6 O 0.0969(7) 0.1971(5) 0.6906(4)
O11_6 O 0.0969(7) 0.0529(5) 0.5594(4)
O13_6 O 0.2622(6) 0.1727(4) 0.6716(3)
O14_6 O 0.2622(6) 0.0773(4) 0.5784(3)
O12_6 O 0.9878(6) 0.0773(4) 0.6716(3)
O9_7 O 0.5969(7) 0.0529(5) 0.0594(4)
O10_7 O 0.6531(7) 0.1971(5) 0.0594(4)
O11_7 O 0.6531(7) 0.0529(5) 0.1906(4)
O12_7 O 0.7622(6) 0.0773(4) 0.0784(3)
O13_7 O 0.4878(6) 0.1727(4) 0.0784(3)
O14_7 O 0.4878(6) 0.0773(4) 0.1716(3)
O9_8 O 0.1531(7) 0.6971(5) 0.0594(4)
O10_8 O 0.0969(7) 0.5529(5) 0.0594(4)
O11_8 O 0.0969(7) 0.6971(5) 0.1906(4)
O13_8 O 0.2622(6) 0.5773(4) 0.0784(3)
O14_8 O 0.2622(6) 0.6727(4) 0.1716(3)
O12_8 O 0.9878(6) 0.6727(4) 0.0784(3)
C21_6 C 0.0200(7) 0.0082(4) 0.7430(3)
C24_6 C 0.0572(11) 0.0490(5) 0.6983(5)
C9_6 C 0.0200(7) 0.7418(4) 0.0070(3)
C12_6 C 0.0572(11) 0.7010(5) 0.0517(5)
C3_6 C 0.7300(7) 0.0082(4) 0.0070(3)
H3_6 H 0.886262 0.030329 0.011922
C6_6 C 0.6928(11) 0.0490(5) 0.0517(5)
C4_6 C 0.8381(6) 0.0063(4) 0.9939(4)
C22_6 C 0.9119(6) 0.0063(4) 0.7561(4)
H15_6 H 0.863738 0.030329 0.738078
H7_6 H 0.863738 0.719671 0.011922
Cu1_6 Cu 0.875000 0.875000 0.875000
N1_6 N 0.8020(6) 0.9326(4) 0.9267(3)
C1_6 C 0.6940(5) 0.9345(4) 0.9399(4)
H1_6 H 0.645744 0.910416 0.921797
C2_6 C 0.6580(5) 0.9722(4) 0.9800(4)
H2_6 H 0.585699 0.973496 0.988755
C5_6 C 0.8740(5) 0.9685(5) 0.9537(4)
H4_6 H 0.946309 0.967249 0.944964
N2_6 N 0.9480(6) 0.8174(4) 0.9267(3)
C10_6 C 0.9119(6) 0.7437(4) 0.9939(4)
C11_6 C 0.8760(5) 0.7815(5) 0.9537(4)
H8_6 H 0.803691 0.782751 0.944964
N3_6 N 0.8020(6) 0.8174(4) 0.8233(3)
C13_6 C 0.6940(5) 0.8155(4) 0.8101(4)
H9_6 H 0.645744 0.839584 0.828203
C14_6 C 0.6580(5) 0.7778(4) 0.7700(4)
H10_6 H 0.585699 0.776504 0.761245
C15_6 C 0.7300(7) 0.7418(4) 0.7430(3)
C16_6 C 0.8381(6) 0.7437(4) 0.7561(4)
H11_6 H 0.886262 0.719671 0.738078
C17_6 C 0.8740(5) 0.7815(5) 0.7963(4)
H12_6 H 0.946309 0.782751 0.805036
C18_6 C 0.6928(11) 0.7010(5) 0.6983(5)
N4_6 N 0.9480(6) 0.9326(4) 0.8233(3)
C23_6 C 0.8760(5) 0.9685(5) 0.7963(4)
H16_6 H 0.803691 0.967249 0.805036
C3_7 C 0.2300(7) 0.5082(4) 0.0070(3)
H3_7 H 0.386262 0.530329 0.011922
C6_7 C 0.1928(11) 0.5490(5) 0.0517(5)
C9_7 C 0.5200(7) 0.2418(4) 0.0070(3)
H7_7 H 0.363738 0.219671 0.011922
C12_7 C 0.5572(11) 0.2010(5) 0.0517(5)
Cu1_7 Cu 0.375000 0.375000 0.875000
N1_7 N 0.3020(6) 0.4326(4) 0.9267(3)
C1_7 C 0.1940(5) 0.4345(4) 0.9399(4)
H1_7 H 0.145744 0.410416 0.921797
C2_7 C 0.1580(5) 0.4722(4) 0.9800(4)
H2_7 H 0.085699 0.473496 0.988755
C4_7 C 0.3381(6) 0.5063(4) 0.9939(4)
C5_7 C 0.3740(5) 0.4685(5) 0.9537(4)
H4_7 H 0.446309 0.467249 0.944964
N2_7 N 0.4480(6) 0.3174(4) 0.9267(3)
C7_6 C 0.5560(5) 0.3155(4) 0.9399(4)
H5_6 H 0.604256 0.339584 0.921797
C8_6 C 0.5920(5) 0.2778(4) 0.9800(4)
H6_6 H 0.664301 0.276504 0.988755
C10_7 C 0.4119(6) 0.2437(4) 0.9939(4)
C11_7 C 0.3760(5) 0.2815(5) 0.9537(4)
H8_7 H 0.303691 0.282751 0.944964
N3_7 N 0.3020(6) 0.3174(4) 0.8233(3)
C13_7 C 0.1940(5) 0.3155(4) 0.8101(4)
H9_7 H 0.145744 0.339584 0.828203
C14_7 C 0.1580(5) 0.2778(4) 0.7700(4)
H10_7 H 0.085699 0.276504 0.761245
C15_7 C 0.2300(7) 0.2418(4) 0.7430(3)
C16_7 C 0.3381(6) 0.2437(4) 0.7561(4)
H11_7 H 0.386262 0.219671 0.738078
C17_7 C 0.3740(5) 0.2815(5) 0.7963(4)
H12_7 H 0.446309 0.282751 0.805036
C18_7 C 0.1928(11) 0.2010(5) 0.6983(5)
N4_7 N 0.4480(6) 0.4326(4) 0.8233(3)
C19_6 C 0.5560(5) 0.4345(4) 0.8101(4)
H13_6 H 0.604256 0.410416 0.828203
C20_6 C 0.5920(5) 0.4722(4) 0.7700(4)
H14_6 H 0.664301 0.473496 0.761245
C21_7 C 0.5200(7) 0.5082(4) 0.7430(3)
C22_7 C 0.4119(6) 0.5063(4) 0.7561(4)
H15_7 H 0.363738 0.530329 0.738078
C23_7 C 0.3760(5) 0.4685(5) 0.7963(4)
H16_7 H 0.303691 0.467249 0.805036
C24_7 C 0.5572(11) 0.5490(5) 0.6983(5)
C3_8 C 0.2300(7) 0.0082(4) 0.5070(3)
C4_8 C 0.3381(6) 0.0063(4) 0.4939(4)
H3_8 H 0.386262 0.030329 0.511922
C6_8 C 0.1928(11) 0.0490(5) 0.5517(5)
C21_8 C 0.5200(7) 0.0082(4) 0.2430(3)
C22_8 C 0.4119(6) 0.0063(4) 0.2561(4)
H15_8 H 0.363738 0.030329 0.238078
C24_8 C 0.5572(11) 0.0490(5) 0.1983(5)
Cu1_8 Cu 0.375000 0.875000 0.375000
N1_8 N 0.3020(6) 0.9326(4) 0.4267(3)
C1_8 C 0.1940(5) 0.9345(4) 0.4399(4)
H1_8 H 0.145744 0.910416 0.421797
C2_8 C 0.1580(5) 0.9722(4) 0.4800(4)
H2_8 H 0.085699 0.973496 0.488755
C5_8 C 0.3740(5) 0.9685(5) 0.4537(4)
H4_8 H 0.446309 0.967249 0.444964
N2_8 N 0.4480(6) 0.8174(4) 0.4267(3)
C7_7 C 0.5560(5) 0.8155(4) 0.4399(4)
H5_7 H 0.604256 0.839584 0.421797
C8_7 C 0.5920(5) 0.7778(4) 0.4800(4)
H6_7 H 0.664301 0.776504 0.488755
C9_8 C 0.5200(7) 0.7418(4) 0.5070(3)
C10_8 C 0.4119(6) 0.7437(4) 0.4939(4)
H7_8 H 0.363738 0.719671 0.511922
C11_8 C 0.3760(5) 0.7815(5) 0.4537(4)
H8_8 H 0.303691 0.782751 0.444964
C12_8 C 0.5572(11) 0.7010(5) 0.5517(5)
N3_8 N 0.3020(6) 0.8174(4) 0.3233(3)
C13_8 C 0.1940(5) 0.8155(4) 0.3101(4)
H9_8 H 0.145744 0.839584 0.328203
C14_8 C 0.1580(5) 0.7778(4) 0.2700(4)
H10_8 H 0.085699 0.776504 0.261245
C15_8 C 0.2300(7) 0.7418(4) 0.2430(3)
C16_8 C 0.3381(6) 0.7437(4) 0.2561(4)
H11_8 H 0.386262 0.719671 0.238078
C17_8 C 0.3740(5) 0.7815(5) 0.2963(4)
H12_8 H 0.446309 0.782751 0.305036
C18_8 C 0.1928(11) 0.7010(5) 0.1983(5)
N4_8 N 0.4480(6) 0.9326(4) 0.3233(3)
C19_7 C 0.5560(5) 0.9345(4) 0.3101(4)
H13_7 H 0.604256 0.910416 0.328203
C20_7 C 0.5920(5) 0.9722(4) 0.2700(4)
H14_7 H 0.664301 0.973496 0.261245
C23_8 C 0.3760(5) 0.9685(5) 0.2963(4)
H16_8 H 0.303691 0.967249 0.305036
C7_8 C 0.0560(5) 0.8155(4) 0.9399(4)
H5_8 H 0.104256 0.839584 0.921797
C8_8 C 0.0920(5) 0.7778(4) 0.9800(4)
H6_8 H 0.164301 0.776504 0.988755
C19_8 C 0.0560(5) 0.9345(4) 0.8101(4)
H13_8 H 0.104256 0.910416 0.828203
C20_8 C 0.0920(5) 0.9722(4) 0.7700(4)
H14_8 H 0.164301 0.973496 0.761245
loop_
_geom_bond_atom_site_label_1
_geom_bond_atom_site_label_2
_geom_bond_site_symmetry_1
_geom_bond_site_symmetry_2
Yb1 O1 1_555 1_555
Cu1 N1 1_555 1_555
N1 C1 1_555 1_555
C1 H1 1_555 1_555
C2 C1 1_555 1_555
H2 C2 1_555 1_555
C3 C2 1_555 1_555
C4 C3 1_555 1_555
H3 C4 1_555 1_555
C5 N1 1_555 1_555
H4 C5 1_555 1_555
C6 C3 1_555 1_555
O1 C6 1_555 1_555
O2 Yb1 1_555 1_555
N2 Cu1 1_555 1_555
H7 C10 1_555 1_555
C11 N2 1_555 1_555
H8 C11 1_555 1_555
N3 Cu1 1_555 1_555
C13 N3 1_555 1_555
H9 C13 1_555 1_555
C14 C13 1_555 1_555
H10 C14 1_555 1_555
C15 C14 1_555 1_555
C16 C15 1_555 1_555
H11 C16 1_555 1_555
C17 N3 1_555 1_555
H12 C17 1_555 1_555
C18 C15 1_555 1_555
O5 C18 1_555 1_555
O6 C18 1_555 1_555
N4 Cu1 1_555 1_555
H15 C22 1_555 1_555
C23 N4 1_555 1_555
H16 C23 1_555 1_555
Yb3 O5 1_555 1_555
O9 Yb1 1_555 1_555
O10 Yb1 1_555 1_555
O11 Yb1 1_555 1_555
O12 Yb1 1_555 1_555
O13 Yb1 1_555 1_555
O14 Yb1 1_555 1_555
C4 C5 1_555 1_555
C6 O2 1_555 1_555
C10 C11 1_555 1_555
C16 C17 1_555 1_555
O6 Yb3 1_555 1_555
C22 C23 1_555 1_555
H5 C7 1_555 1_555
C8 C7 1_555 1_555
H6 C8 1_555 1_555
C9 C8 1_555 1_555
C12 C9 1_555 1_555
O3 C12 1_555 1_555
H13 C19 1_555 1_555
C20 C19 1_555 1_555
H14 C20 1_555 1_555
C21 C20 1_555 1_555
C24 C21 1_555 1_555
O7 C24 1_555 1_555
Yb2 O3 1_555 1_555
Yb4 O7 1_555 1_555
O9_2 Yb2 1_555 1_555
O10_2 Yb2 1_555 1_555
O11_2 Yb2 1_555 1_555
O13_2 Yb2 1_555 1_555
O14_2 Yb2 1_555 1_555
O9_3 Yb3 1_555 1_555
O10_3 Yb3 1_555 1_555
O11_3 Yb3 1_555 1_555
O12_3 Yb3 1_555 1_555
O13_3 Yb3 1_555 1_555
O14_3 Yb3 1_555 1_555
O9_4 Yb4 1_555 1_555
O10_4 Yb4 1_555 1_555
O11_4 Yb4 1_555 1_555
O13_4 Yb4 1_555 1_555
O14_4 Yb4 1_555 1_555
Cu1_2 N1_2 1_555 1_555
N1_2 C1_2 1_555 1_555
C1_2 H1_2 1_555 1_555
C2_2 C1_2 1_555 1_555
H2_2 C2_2 1_555 1_555
C5_2 N1_2 1_555 1_555
H4_2 C5_2 1_555 1_555
N2_2 Cu1_2 1_555 1_555
C11_2 N2_2 1_555 1_555
H8_2 C11_2 1_555 1_555
N3_2 Cu1_2 1_555 1_555
C13_2 N3_2 1_555 1_555
H9_2 C13_2 1_555 1_555
C14_2 C13_2 1_555 1_555
H10_2 C14_2 1_555 1_555
C15_2 C14_2 1_555 1_555
C16_2 C15_2 1_555 1_555
H11_2 C16_2 1_555 1_555
C17_2 N3_2 1_555 1_555
H12_2 C17_2 1_555 1_555
C18_2 C15_2 1_555 1_555
O9 C18_2 1_555 1_555
O12 C18_2 1_555 1_555
N4_2 Cu1_2 1_555 1_555
C23_2 N4_2 1_555 1_555
H16_2 C23_2 1_555 1_555
C10_2 C11_2 1_555 1_555
C16_2 C17_2 1_555 1_555
H15_2 C22_2 1_555 1_555
C6_2 C3_2 1_555 1_555
O9_3 C6_2 1_555 1_555
C6_2 O12_3 1_555 1_555
C12_2 C9_2 1_555 1_555
O9_4 C12_2 1_555 1_555
C24_2 C21_2 1_555 1_555
O9_2 C24_2 1_555 1_555
Cu1_3 N1_3 1_555 1_555
N1_3 C1_3 1_555 1_555
C1_3 H1_3 1_555 1_555
C2_3 C1_3 1_555 1_555
H2_3 C2_3 1_555 1_555
C5_3 N1_3 1_555 1_555
H4_3 C5_3 1_555 1_555
N2_3 Cu1_3 1_555 1_555
C7_2 N2_3 1_555 1_555
H5_2 C7_2 1_555 1_555
C8_2 C7_2 1_555 1_555
H6_2 C8_2 1_555 1_555
C11_3 N2_3 1_555 1_555
H8_3 C11_3 1_555 1_555
N3_3 Cu1_3 1_555 1_555
C13_3 N3_3 1_555 1_555
H9_3 C13_3 1_555 1_555
C14_3 C13_3 1_555 1_555
H10_3 C14_3 1_555 1_555
C15_3 C14_3 1_555 1_555
C16_3 C15_3 1_555 1_555
H11_3 C16_3 1_555 1_555
C17_3 N3_3 1_555 1_555
H12_3 C17_3 1_555 1_555
C18_3 C15_3 1_555 1_555
O10_2 C18_3 1_555 1_555
O13_2 C18_3 1_555 1_555
N4_3 Cu1_3 1_555 1_555
C19_2 N4_3 1_555 1_555
H13_2 C19_2 1_555 1_555
C20_2 C19_2 1_555 1_555
H14_2 C20_2 1_555 1_555
C21_3 C20_2 1_555 1_555
C22_3 C21_3 1_555 1_555
H15_3 C22_3 1_555 1_555
C23_3 N4_3 1_555 1_555
H16_3 C23_3 1_555 1_555
C24_3 C21_3 1_555 1_555
O10 C24_3 1_555 1_555
O13 C24_3 1_555 1_555
C4_3 C5_3 1_555 1_555
C10_3 C11_3 1_555 1_555
C16_3 C17_3 1_555 1_555
C22_3 C23_3 1_555 1_555
C6_3 C3_3 1_555 1_555
O10_4 C6_3 1_555 1_555
C12_3 C9_3 1_555 1_555
O10_3 C12_3 1_555 1_555
O13_3 C12_3 1_555 1_555
C6_3 O13_4 1_555 1_555
Cu1_4 N1_4 1_555 1_555
N1_4 C1_4 1_555 1_555
C1_4 H1_4 1_555 1_555
C2_4 C1_4 1_555 1_555
H2_4 C2_4 1_555 1_555
C5_4 N1_4 1_555 1_555
H4_4 C5_4 1_555 1_555
N2_4 Cu1_4 1_555 1_555
C7_3 N2_4 1_555 1_555
H5_3 C7_3 1_555 1_555
C8_3 C7_3 1_555 1_555
H6_3 C8_3 1_555 1_555
C9_4 C8_3 1_555 1_555
C10_4 C9_4 1_555 1_555
H7_4 C10_4 1_555 1_555
C11_4 N2_4 1_555 1_555
H8_4 C11_4 1_555 1_555
C12_4 C9_4 1_555 1_555
O11 C12_4 1_555 1_555
O14 C12_4 1_555 1_555
N3_4 Cu1_4 1_555 1_555
C13_4 N3_4 1_555 1_555
H9_4 C13_4 1_555 1_555
C14_4 C13_4 1_555 1_555
H10_4 C14_4 1_555 1_555
C15_4 C14_4 1_555 1_555
C16_4 C15_4 1_555 1_555
H11_4 C16_4 1_555 1_555
C17_4 N3_4 1_555 1_555
H12_4 C17_4 1_555 1_555
C18_4 C15_4 1_555 1_555
O11_4 C18_4 1_555 1_555
O14_4 C18_4 1_555 1_555
N4_4 Cu1_4 1_555 1_555
C19_3 N4_4 1_555 1_555
H13_3 C19_3 1_555 1_555
C20_3 C19_3 1_555 1_555
H14_3 C20_3 1_555 1_555
C23_4 N4_4 1_555 1_555
H16_4 C23_4 1_555 1_555
C10_4 C11_4 1_555 1_555
C16_4 C17_4 1_555 1_555
C4_4 C3_4 1_555 1_555
H3_4 C4_4 1_555 1_555
C6_4 C3_4 1_555 1_555
O11_2 C6_4 1_555 1_555
C22_4 C21_4 1_555 1_555
H15_4 C22_4 1_555 1_555
C24_4 C21_4 1_555 1_555
O11_3 C24_4 1_555 1_555
O14_3 C24_4 1_555 1_555
C6_4 O14_2 1_555 1_555
H5_4 C7_4 1_555 1_555
C8_4 C7_4 1_555 1_555
H6_4 C8_4 1_555 1_555
H13_4 C19_4 1_555 1_555
C20_4 C19_4 1_555 1_555
H14_4 C20_4 1_555 1_555
H5_5 C7_5 1_555 1_555
C8_5 C7_5 1_555 1_555
H6_5 C8_5 1_555 1_555
C9_5 C8_5 1_555 1_555
C12_5 C9_5 1_555 1_555
O3_2 C12_5 1_555 1_555
H13_5 C19_5 1_555 1_555
C20_5 C19_5 1_555 1_555
H14_5 C20_5 1_555 1_555
C21_5 C20_5 1_555 1_555
C24_5 C21_5 1_555 1_555
O7_2 C24_5 1_555 1_555
Yb2_2 O3_2 1_555 1_555
Yb4_2 O7_2 1_555 1_555
Yb1_2 O1_2 1_555 1_555
Cu1_5 N1_5 1_555 1_555
N1_5 C1_5 1_555 1_555
C1_5 H1_5 1_555 1_555
C2_5 C1_5 1_555 1_555
H2_5 C2_5 1_555 1_555
C3_5 C2_5 1_555 1_555
C4_5 C3_5 1_555 1_555
H3_5 C4_5 1_555 1_555
C5_5 N1_5 1_555 1_555
H4_5 C5_5 1_555 1_555
C6_5 C3_5 1_555 1_555
O1_2 C6_5 1_555 1_555
O2_2 Yb1_2 1_555 1_555
N2_5 Cu1_5 1_555 1_555
H7_5 C10_5 1_555 1_555
C11_5 N2_5 1_555 1_555
H8_5 C11_5 1_555 1_555
N3_5 Cu1_5 1_555 1_555
C13_5 N3_5 1_555 1_555
H9_5 C13_5 1_555 1_555
C14_5 C13_5 1_555 1_555
H10_5 C14_5 1_555 1_555
C15_5 C14_5 1_555 1_555
C16_5 C15_5 1_555 1_555
H11_5 C16_5 1_555 1_555
C17_5 N3_5 1_555 1_555
H12_5 C17_5 1_555 1_555
C18_5 C15_5 1_555 1_555
O5_2 C18_5 1_555 1_555
O6_2 C18_5 1_555 1_555
N4_5 Cu1_5 1_555 1_555
H15_5 C22_5 1_555 1_555
C23_5 N4_5 1_555 1_555
H16_5 C23_5 1_555 1_555
Yb3_2 O5_2 1_555 1_555
O9_5 Yb1_2 1_555 1_555
O10_5 Yb1_2 1_555 1_555
O11_5 Yb1_2 1_555 1_555
O12_5 Yb1_2 1_555 1_555
O13_5 Yb1_2 1_555 1_555
O14_5 Yb1_2 1_555 1_555
C4_5 C5_5 1_555 1_555
C6_5 O2_2 1_555 1_555
C10_5 C11_5 1_555 1_555
C16_5 C17_5 1_555 1_555
O6_2 Yb3_2 1_555 1_555
C22_5 C23_5 1_555 1_555
O9_6 Yb2_2 1_555 1_555
O10_6 Yb2_2 1_555 1_555
O11_6 Yb2_2 1_555 1_555
O13_6 Yb2_2 1_555 1_555
O14_6 Yb2_2 1_555 1_555
O9_7 Yb3_2 1_555 1_555
O10_7 Yb3_2 1_555 1_555
O11_7 Yb3_2 1_555 1_555
O12_7 Yb3_2 1_555 1_555
O13_7 Yb3_2 1_555 1_555
O14_7 Yb3_2 1_555 1_555
O9_8 Yb4_2 1_555 1_555
O10_8 Yb4_2 1_555 1_555
O11_8 Yb4_2 1_555 1_555
O13_8 Yb4_2 1_555 1_555
O14_8 Yb4_2 1_555 1_555
C24_6 C21_6 1_555 1_555
O9_6 C24_6 1_555 1_555
C12_6 C9_6 1_555 1_555
O9_8 C12_6 1_555 1_555
C6_6 C3_6 1_555 1_555
O9_7 C6_6 1_555 1_555
C6_6 O12_7 1_555 1_555
H15_6 C22_6 1_555 1_555
Cu1_6 N1_6 1_555 1_555
N1_6 C1_6 1_555 1_555
C1_6 H1_6 1_555 1_555
C2_6 C1_6 1_555 1_555
H2_6 C2_6 1_555 1_555
C5_6 N1_6 1_555 1_555
H4_6 C5_6 1_555 1_555
N2_6 Cu1_6 1_555 1_555
C11_6 N2_6 1_555 1_555
H8_6 C11_6 1_555 1_555
N3_6 Cu1_6 1_555 1_555
C13_6 N3_6 1_555 1_555
H9_6 C13_6 1_555 1_555
C14_6 C13_6 1_555 1_555
H10_6 C14_6 1_555 1_555
C15_6 C14_6 1_555 1_555
C16_6 C15_6 1_555 1_555
H11_6 C16_6 1_555 1_555
C17_6 N3_6 1_555 1_555
H12_6 C17_6 1_555 1_555
C18_6 C15_6 1_555 1_555
O9_5 C18_6 1_555 1_555
O12_5 C18_6 1_555 1_555
N4_6 Cu1_6 1_555 1_555
C23_6 N4_6 1_555 1_555
H16_6 C23_6 1_555 1_555
C10_6 C11_6 1_555 1_555
C16_6 C17_6 1_555 1_555
C6_7 C3_7 1_555 1_555
O10_8 C6_7 1_555 1_555
C12_7 C9_7 1_555 1_555
O10_7 C12_7 1_555 1_555
O13_7 C12_7 1_555 1_555
C6_7 O13_8 1_555 1_555
Cu1_7 N1_7 1_555 1_555
N1_7 C1_7 1_555 1_555
C1_7 H1_7 1_555 1_555
C2_7 C1_7 1_555 1_555
H2_7 C2_7 1_555 1_555
C5_7 N1_7 1_555 1_555
H4_7 C5_7 1_555 1_555
N2_7 Cu1_7 1_555 1_555
C7_6 N2_7 1_555 1_555
H5_6 C7_6 1_555 1_555
C8_6 C7_6 1_555 1_555
H6_6 C8_6 1_555 1_555
C11_7 N2_7 1_555 1_555
H8_7 C11_7 1_555 1_555
N3_7 Cu1_7 1_555 1_555
C13_7 N3_7 1_555 1_555
H9_7 C13_7 1_555 1_555
C14_7 C13_7 1_555 1_555
H10_7 C14_7 1_555 1_555
C15_7 C14_7 1_555 1_555
C16_7 C15_7 1_555 1_555
H11_7 C16_7 1_555 1_555
C17_7 N3_7 1_555 1_555
H12_7 C17_7 1_555 1_555
C18_7 C15_7 1_555 1_555
O10_6 C18_7 1_555 1_555
O13_6 C18_7 1_555 1_555
N4_7 Cu1_7 1_555 1_555
C19_6 N4_7 1_555 1_555
H13_6 C19_6 1_555 1_555
C20_6 C19_6 1_555 1_555
H14_6 C20_6 1_555 1_555
C21_7 C20_6 1_555 1_555
C22_7 C21_7 1_555 1_555
H15_7 C22_7 1_555 1_555
C23_7 N4_7 1_555 1_555
H16_7 C23_7 1_555 1_555
C24_7 C21_7 1_555 1_555
O10_5 C24_7 1_555 1_555
O13_5 C24_7 1_555 1_555
C4_7 C5_7 1_555 1_555
C10_7 C11_7 1_555 1_555
C16_7 C17_7 1_555 1_555
C22_7 C23_7 1_555 1_555
C4_8 C3_8 1_555 1_555
H3_8 C4_8 1_555 1_555
C6_8 C3_8 1_555 1_555
O11_6 C6_8 1_555 1_555
C22_8 C21_8 1_555 1_555
H15_8 C22_8 1_555 1_555
C24_8 C21_8 1_555 1_555
O11_7 C24_8 1_555 1_555
O14_7 C24_8 1_555 1_555
C6_8 O14_6 1_555 1_555
Cu1_8 N1_8 1_555 1_555
N1_8 C1_8 1_555 1_555
C1_8 H1_8 1_555 1_555
C2_8 C1_8 1_555 1_555
H2_8 C2_8 1_555 1_555
C5_8 N1_8 1_555 1_555
H4_8 C5_8 1_555 1_555
N2_8 Cu1_8 1_555 1_555
C7_7 N2_8 1_555 1_555
H5_7 C7_7 1_555 1_555
C8_7 C7_7 1_555 1_555
H6_7 C8_7 1_555 1_555
C9_8 C8_7 1_555 1_555
C10_8 C9_8 1_555 1_555
H7_8 C10_8 1_555 1_555
C11_8 N2_8 1_555 1_555
H8_8 C11_8 1_555 1_555
C12_8 C9_8 1_555 1_555
O11_5 C12_8 1_555 1_555
O14_5 C12_8 1_555 1_555
N3_8 Cu1_8 1_555 1_555
C13_8 N3_8 1_555 1_555
H9_8 C13_8 1_555 1_555
C14_8 C13_8 1_555 1_555
H10_8 C14_8 1_555 1_555
C15_8 C14_8 1_555 1_555
C16_8 C15_8 1_555 1_555
H11_8 C16_8 1_555 1_555
C17_8 N3_8 1_555 1_555
H12_8 C17_8 1_555 1_555
C18_8 C15_8 1_555 1_555
O11_8 C18_8 1_555 1_555
O14_8 C18_8 1_555 1_555
N4_8 Cu1_8 1_555 1_555
C19_7 N4_8 1_555 1_555
H13_7 C19_7 1_555 1_555
C20_7 C19_7 1_555 1_555
H14_7 C20_7 1_555 1_555
C23_8 N4_8 1_555 1_555
H16_8 C23_8 1_555 1_555
C10_8 C11_8 1_555 1_555
C16_8 C17_8 1_555 1_555
H5_8 C7_8 1_555 1_555
C8_8 C7_8 1_555 1_555
H6_8 C8_8 1_555 1_555
H13_8 C19_8 1_555 1_555
C20_8 C19_8 1_555 1_555
H14_8 C20_8 1_555 1_555

#END
