
###############################################################################
#
# This file contains modified crystal structure data generated from the
# MOF subset of the Cambridge Structural Database (CSD) v543 
# hosted by the Cambridge Crystallographic Data Centre (CCDC).
#
# This work is licensed under the Creative Commons
# Attribution-NonCommercial-ShareAlike 4.0 International License.
# To view a copy of this license, visit
# http://creativecommons.org/licenses/by-nc-sa/4.0/
# or send a letter to
# Creative Commons, PO Box 1866, Mountain View, CA 94042, USA.
#
# CIF created using the CSD Python API on 29 September 2022
# The structure has been converted into the P1 space group
# The structure has a 3D framework
# The original CSD entry OFONIJ is in the monoclinic crystal system
# The framework has been calculated to contain at least 10.0% void space
# The void calculation uses a probe of radius 1.32A, grid spacing 0.4
# The framework is charged, counterions have been retained in the structure
#
###############################################################################

data_OFONIJ
_chemical_formula_moiety         '(C160 H160 Br10 Cu8 Gd4 N32 O48 6-)n'
_symmetry_cell_setting           triclinic
_symmetry_space_group_name_H-M   'P 1'
_symmetry_Int_Tables_number      1
_space_group_name_Hall           'P 1'
loop_
_symmetry_equiv_pos_site_id
_symmetry_equiv_pos_as_xyz
1 x,y,z
_cell_length_a                   18.95(3)
_cell_length_b                   15.55(2)
_cell_length_c                   19.36(3)
_cell_angle_alpha                90
_cell_angle_beta                 101.39(3)
_cell_angle_gamma                90
_cell_volume                     5592.51
loop_
_atom_site_label
_atom_site_type_symbol
_atom_site_fract_x
_atom_site_fract_y
_atom_site_fract_z
Gd1 Gd 0.250000 0.59182(3) 0.000000
Br1 Br 0.500000 0.000000 0.000000
Cu1 Cu 0.42259(5) 0.07795(6) 0.08045(5)
O3 O 0.6938(3) 0.0430(4) 0.3832(3)
O4 O 0.6240(3) 0.1313(3) 0.4281(3)
N1 N 0.4137(3) 0.1985(3) 0.0444(3)
N3 N 0.4911(3) 0.0843(4) 0.1778(3)
C1 C 0.6365(4) 0.0876(4) 0.3775(4)
C7 C 0.4636(4) 0.2350(5) 0.0135(4)
H3 H 0.503485 0.202641 0.008289
C8 C 0.3498(4) 0.3322(5) 0.0299(4)
H4 H 0.310810 0.364525 0.037690
C9 C 0.3578(4) 0.2506(5) 0.0532(5)
H5 H 0.323508 0.228265 0.076592
H8 H 0.265264 0.053089 0.087682
C14 C 0.5854(4) 0.0881(4) 0.3082(4)
C15 C 0.5118(4) 0.1020(5) 0.3018(4)
H9 H 0.493059 0.113908 0.341639
C16 C 0.6086(4) 0.0764(6) 0.2462(4)
H10 H 0.657466 0.069170 0.246872
C17 C 0.5614(4) 0.0753(6) 0.1843(5)
H11 H 0.579525 0.067621 0.143457
C18 C 0.4669(4) 0.0981(5) 0.2371(4)
H12 H 0.417672 0.105399 0.234443
O11 O 0.1708(3) 0.4953(3) 0.0328(3)
O12 O 0.0693(3) 0.4840(4) 0.0737(3)
C21 C 0.1009(4) 0.3686(4) 0.0058(4)
C23 C 0.1138(4) 0.4566(5) 0.0395(4)
C24 C 0.0417(4) 0.3180(5) 0.0107(4)
H14 H 0.005134 0.340785 0.030847
Gd4 Gd 0.750000 0.09182(3) 0.500000
Br2 Br 0.000000 0.000000 0.000000
O13 O 0.2206(3) 0.6997(3) 0.0692(3)
O16 O 0.3062(3) 0.5430(4) 0.1168(3)
O18 O 0.3760(3) 0.6313(3) 0.0719(3)
Gd1_2 Gd 0.250000 0.59182(3) 1.000000
Br1_2 Br 0.500000 -0.000000 1.000000
O5 O 0.3292(3) 0.4953(3) 0.9672(3)
O6 O 0.4307(3) 0.4840(4) 0.9263(3)
C3 C 0.3991(4) 0.3686(4) 0.9942(4)
C5 C 0.3862(4) 0.4566(5) 0.9605(4)
C6 C 0.4583(4) 0.3180(5) 0.9893(4)
H2 H 0.494866 0.340785 0.969153
Cu2 Cu 0.07741(5) 0.07795(6) 0.91955(5)
N4 N 0.0863(3) 0.1985(3) 0.9556(3)
N6 N 0.0089(3) 0.0843(4) 0.8222(3)
C25 C 0.0364(4) 0.2350(5) 0.9865(4)
C26 C 0.1502(4) 0.3322(5) 0.9701(4)
H16 H 0.189190 0.364525 0.962310
C27 C 0.1422(4) 0.2506(5) 0.9468(5)
H17 H 0.176492 0.228265 0.923408
H20 H 0.234736 0.053089 0.912318
H21 H 0.006941 0.113908 0.658361
C36 C 0.0331(4) 0.0981(5) 0.7629(4)
H24 H 0.082328 0.105399 0.765557
Br2_2 Br -0.000000 -0.000000 1.000000
O14 O 0.2794(3) 0.6997(3) 0.9308(3)
O15 O 0.1938(3) 0.5430(4) 0.8832(3)
O17 O 0.1240(3) 0.6313(3) 0.9281(3)
Br1_3 Br 0.500000 1.000000 0.000000
O2 O 0.1473(4) 0.7873(4) 0.1115(4)
N2 N 0.3502(3) 0.9839(4) 0.0847(3)
C2 C 0.3280(4) 0.8321(5) 0.0883(4)
H1 H 0.345716 0.776317 0.088828
C4 C 0.2559(4) 0.8464(5) 0.0899(4)
C10 C 0.2030(4) 0.7722(5) 0.0898(4)
C11 C 0.2328(4) 0.9310(5) 0.0895(5)
H6 H 0.185068 0.943493 0.090642
C12 C 0.3726(4) 0.9006(5) 0.0861(5)
H7 H 0.420707 0.889751 0.085429
C13 C 0.2816(4) 0.9967(5) 0.0873(4)
Br2_3 Br -0.000000 1.000000 0.000000
Br1_4 Br 0.500000 1.000000 1.000000
O8 O 0.3527(4) 0.7873(4) 0.8885(4)
N5 N 0.1498(3) 0.9839(4) 0.9153(3)
C20 C 0.1720(4) 0.8321(5) 0.9117(4)
H13 H 0.154284 0.776317 0.911172
C22 C 0.2441(4) 0.8464(5) 0.9101(4)
C28 C 0.2970(4) 0.7722(5) 0.9102(4)
C29 C 0.2672(4) 0.9310(5) 0.9105(5)
H18 H 0.314932 0.943493 0.909358
C30 C 0.1274(4) 0.9006(5) 0.9139(5)
H19 H 0.079293 0.889751 0.914571
C31 C 0.2184(4) 0.9967(5) 0.9127(4)
Br2_4 Br -0.000000 1.000000 1.000000
Cu3 Cu 0.57741(5) 0.92205(6) 0.91955(5)
Br2_5 Br 1.000000 0.000000 0.000000
O9 O 0.8062(3) 0.0430(4) 0.6168(3)
O10 O 0.8760(3) 0.1313(3) 0.5719(3)
C19 C 0.8635(4) 0.0876(4) 0.6225(4)
H15 H 0.996515 0.202641 0.991711
C32 C 0.9146(4) 0.0881(4) 0.6918(4)
C33 C 0.9882(4) 0.1020(5) 0.6982(4)
C34 C 0.8914(4) 0.0764(6) 0.7538(4)
H22 H 0.842534 0.069170 0.753128
C35 C 0.9386(4) 0.0753(6) 0.8157(5)
H23 H 0.920475 0.067621 0.856543
Br2_6 Br 1.000000 -0.000000 1.000000
Br2_7 Br 1.000000 1.000000 0.000000
Br2_8 Br 1.000000 1.000000 1.000000
Cu3_2 Cu 0.92259(5) 0.92205(6) 0.08045(5)
Br1_5 Br -0.000000 0.500000 0.500000
C1_2 C 0.1365(4) 0.5876(4) 0.8775(4)
H3_2 H 0.003485 0.702641 0.508289
C14_2 C 0.0854(4) 0.5881(4) 0.8082(4)
C15_2 C 0.0118(4) 0.6020(5) 0.8018(4)
C16_2 C 0.1086(4) 0.5764(6) 0.7462(4)
H10_2 H 0.157466 0.569170 0.746872
C17_2 C 0.0614(4) 0.5753(6) 0.6843(5)
H11_2 H 0.079525 0.567621 0.643457
Cu3_3 Cu 0.07741(5) 0.42205(6) 0.41955(5)
O13_2 O 0.7206(3) 0.1997(3) 0.5692(3)
O14_2 O 0.7794(3) 0.1997(3) 0.4308(3)
Br1_6 Br 1.000000 0.500000 0.500000
Cu1_2 Cu 0.92259(5) 0.57795(6) 0.58045(5)
O2_2 O 0.6473(4) 0.2873(4) 0.6115(4)
O5_2 O 0.8292(3) 0.9953(3) 0.4672(3)
O6_2 O 0.9307(3) 0.9840(4) 0.4263(3)
N1_2 N 0.9137(3) 0.6985(3) 0.5444(3)
N2_2 N 0.8502(3) 0.4839(4) 0.5847(3)
N3_2 N 0.9911(3) 0.5843(4) 0.6778(3)
C2_2 C 0.8280(4) 0.3321(5) 0.5883(4)
H1_2 H 0.845716 0.276317 0.588828
C3_2 C 0.8991(4) 0.8686(4) 0.4942(4)
C4_2 C 0.7559(4) 0.3464(5) 0.5899(4)
C5_2 C 0.8862(4) 0.9566(5) 0.4605(4)
C6_2 C 0.9583(4) 0.8180(5) 0.4893(4)
H2_2 H 0.994866 0.840785 0.469153
C7_2 C 0.9636(4) 0.7350(5) 0.5135(4)
C8_2 C 0.8498(4) 0.8322(5) 0.5299(4)
H4_2 H 0.810810 0.864525 0.537690
C9_2 C 0.8578(4) 0.7506(5) 0.5532(5)
H5_2 H 0.823508 0.728265 0.576592
C10_2 C 0.7030(4) 0.2722(5) 0.5898(4)
C11_2 C 0.7328(4) 0.4310(5) 0.5895(5)
H6_2 H 0.685068 0.443493 0.590642
C12_2 C 0.8726(4) 0.4006(5) 0.5861(5)
H7_2 H 0.920707 0.389751 0.585429
C13_2 C 0.7816(4) 0.4967(5) 0.5873(4)
H8_2 H 0.765264 0.553089 0.587682
H9_2 H 0.993059 0.613908 0.841639
C18_2 C 0.9669(4) 0.5981(5) 0.7371(4)
H12_2 H 0.917672 0.605399 0.734443
Cu2_2 Cu 0.57741(5) 0.57795(6) 0.41955(5)
O8_2 O 0.8527(4) 0.2873(4) 0.3885(4)
O11_2 O 0.6708(3) 0.9953(3) 0.5328(3)
O12_2 O 0.5693(3) 0.9840(4) 0.5737(3)
N4_2 N 0.5863(3) 0.6985(3) 0.4556(3)
N5_2 N 0.6498(3) 0.4839(4) 0.4153(3)
N6_2 N 0.5089(3) 0.5843(4) 0.3222(3)
C19_2 C 0.3635(4) 0.5876(4) 0.1225(4)
C20_2 C 0.6720(4) 0.3321(5) 0.4117(4)
H13_2 H 0.654284 0.276317 0.411172
C21_2 C 0.6009(4) 0.8686(4) 0.5058(4)
C22_2 C 0.7441(4) 0.3464(5) 0.4101(4)
C23_2 C 0.6138(4) 0.9566(5) 0.5395(4)
C24_2 C 0.5417(4) 0.8180(5) 0.5107(4)
H14_2 H 0.505134 0.840785 0.530847
C25_2 C 0.5364(4) 0.7350(5) 0.4865(4)
H15_2 H 0.496515 0.702641 0.491711
C26_2 C 0.6502(4) 0.8322(5) 0.4701(4)
H16_2 H 0.689190 0.864525 0.462310
C27_2 C 0.6422(4) 0.7506(5) 0.4468(5)
H17_2 H 0.676492 0.728265 0.423408
C28_2 C 0.7970(4) 0.2722(5) 0.4102(4)
C29_2 C 0.7672(4) 0.4310(5) 0.4105(5)
H18_2 H 0.814932 0.443493 0.409358
C30_2 C 0.6274(4) 0.4006(5) 0.4139(5)
H19_2 H 0.579293 0.389751 0.414571
C31_2 C 0.7184(4) 0.4967(5) 0.4127(4)
H20_2 H 0.734736 0.553089 0.412318
C32_2 C 0.4146(4) 0.5881(4) 0.1918(4)
C33_2 C 0.4882(4) 0.6020(5) 0.1982(4)
H21_2 H 0.506941 0.613908 0.158361
C34_2 C 0.3914(4) 0.5764(6) 0.2538(4)
H22_2 H 0.342534 0.569170 0.253128
C35_2 C 0.4386(4) 0.5753(6) 0.3157(5)
H23_2 H 0.420475 0.567621 0.356543
C36_2 C 0.5331(4) 0.5981(5) 0.2629(4)
H24_2 H 0.582328 0.605399 0.265557
Br2_9 Br 0.500000 0.500000 0.500000
Cu3_4 Cu 0.42259(5) 0.42205(6) 0.58045(5)
O9_2 O 0.1938(3) 0.9570(4) 0.3832(3)
O10_2 O 0.1240(3) 0.8687(3) 0.4281(3)
C19_3 C 0.1365(4) 0.9124(4) 0.3775(4)
H15_3 H 0.003485 0.797359 0.008289
C32_3 C 0.0854(4) 0.9119(4) 0.3082(4)
C33_3 C 0.0118(4) 0.8980(5) 0.3018(4)
C34_3 C 0.1086(4) 0.9236(6) 0.2462(4)
H22_3 H 0.157466 0.930830 0.246872
C35_3 C 0.0614(4) 0.9247(6) 0.1843(5)
H23_3 H 0.079525 0.932379 0.143457
Gd3 Gd 0.250000 0.90818(3) 0.500000
O7 O 0.7206(3) 0.3003(3) 0.0692(3)
O8_3 O 0.6473(4) 0.2127(4) 0.1115(4)
N5_3 N 0.8502(3) 0.0161(4) 0.0847(3)
C20_3 C 0.8280(4) 0.1679(5) 0.0883(4)
H13_3 H 0.845716 0.223683 0.088828
C22_3 C 0.7559(4) 0.1536(5) 0.0899(4)
C28_3 C 0.7030(4) 0.2278(5) 0.0898(4)
C29_3 C 0.7328(4) 0.0690(5) 0.0895(5)
H18_3 H 0.685068 0.056507 0.090642
C30_3 C 0.8726(4) 0.0994(5) 0.0861(5)
H19_3 H 0.920707 0.110249 0.085429
C31_3 C 0.7816(4) 0.0033(5) 0.0873(4)
Gd2 Gd 0.750000 0.40818(3) 0.000000
O1 O 0.7794(3) 0.3003(3) 0.9308(3)
O2_3 O 0.8527(4) 0.2127(4) 0.8885(4)
N2_3 N 0.6498(3) 0.0161(4) 0.9153(3)
C2_3 C 0.6720(4) 0.1679(5) 0.9117(4)
H1_3 H 0.654284 0.223683 0.911172
C4_3 C 0.7441(4) 0.1536(5) 0.9101(4)
C10_3 C 0.7970(4) 0.2278(5) 0.9102(4)
C11_3 C 0.7672(4) 0.0690(5) 0.9105(5)
H6_3 H 0.814932 0.056507 0.909358
C12_3 C 0.6274(4) 0.0994(5) 0.9139(5)
H7_3 H 0.579293 0.110249 0.914571
C13_3 C 0.7184(4) 0.0033(5) 0.9127(4)
Gd2_2 Gd 0.750000 0.40818(3) 1.000000
O5_3 O 0.6708(3) 0.5047(3) 0.0328(3)
O6_3 O 0.5693(3) 0.5160(4) 0.0737(3)
C3_3 C 0.6009(4) 0.6314(4) 0.0058(4)
C5_3 C 0.6138(4) 0.5434(5) 0.0395(4)
C6_3 C 0.5417(4) 0.6820(5) 0.0107(4)
H2_3 H 0.505134 0.659215 0.030847
N4_3 N 0.9137(3) 0.8015(3) 0.0444(3)
N6_3 N 0.9911(3) 0.9157(4) 0.1778(3)
C25_3 C 0.9636(4) 0.7650(5) 0.0135(4)
C26_3 C 0.8498(4) 0.6678(5) 0.0299(4)
H16_3 H 0.810810 0.635475 0.037690
C27_3 C 0.8578(4) 0.7494(5) 0.0532(5)
H17_3 H 0.823508 0.771735 0.076592
H20_3 H 0.765264 0.946911 0.087682
H21_3 H 0.993059 0.886092 0.341639
C36_3 C 0.9669(4) 0.9019(5) 0.2371(4)
H24_3 H 0.917672 0.894601 0.234443
O15_2 O 0.8062(3) 0.4570(4) 0.1168(3)
O17_2 O 0.8760(3) 0.3687(3) 0.0719(3)
O3_2 O 0.3062(3) 0.9570(4) 0.6168(3)
O4_2 O 0.3760(3) 0.8687(3) 0.5719(3)
N1_3 N 0.5863(3) 0.8015(3) 0.9556(3)
N3_3 N 0.5089(3) 0.9157(4) 0.8222(3)
C1_3 C 0.3635(4) 0.9124(4) 0.6225(4)
C7_3 C 0.5364(4) 0.7650(5) 0.9865(4)
H3_3 H 0.496515 0.797359 0.991711
C8_3 C 0.6502(4) 0.6678(5) 0.9701(4)
H4_3 H 0.689190 0.635475 0.962310
C9_3 C 0.6422(4) 0.7494(5) 0.9468(5)
H5_3 H 0.676492 0.771735 0.923408
H8_3 H 0.734736 0.946911 0.912318
C14_3 C 0.4146(4) 0.9119(4) 0.6918(4)
C15_3 C 0.4882(4) 0.8980(5) 0.6982(4)
H9_3 H 0.506941 0.886092 0.658361
C16_3 C 0.3914(4) 0.9236(6) 0.7538(4)
H10_3 H 0.342534 0.930830 0.753128
C17_3 C 0.4386(4) 0.9247(6) 0.8157(5)
H11_3 H 0.420475 0.932379 0.856543
C18_3 C 0.5331(4) 0.9019(5) 0.7629(4)
H12_3 H 0.582328 0.894601 0.765557
O11_3 O 0.8292(3) 0.5047(3) 0.9672(3)
O12_3 O 0.9307(3) 0.5160(4) 0.9263(3)
C21_3 C 0.8991(4) 0.6314(4) 0.9942(4)
C23_3 C 0.8862(4) 0.5434(5) 0.9605(4)
C24_3 C 0.9583(4) 0.6820(5) 0.9893(4)
H14_3 H 0.994866 0.659215 0.969153
O16_2 O 0.6938(3) 0.4570(4) 0.8832(3)
O18_2 O 0.6240(3) 0.3687(3) 0.9281(3)
O1_2 O 0.2794(3) 0.8003(3) 0.4308(3)
O2_4 O 0.3527(4) 0.7127(4) 0.3885(4)
O5_4 O 0.1708(3) 0.0047(3) 0.5328(3)
O6_4 O 0.0693(3) 0.0160(4) 0.5737(3)
N1_4 N 0.0863(3) 0.3015(3) 0.4556(3)
N2_4 N 0.1498(3) 0.5161(4) 0.4153(3)
N3_4 N 0.0089(3) 0.4157(4) 0.3222(3)
C2_4 C 0.1720(4) 0.6679(5) 0.4117(4)
H1_4 H 0.154284 0.723683 0.411172
C3_4 C 0.1009(4) 0.1314(4) 0.5058(4)
C4_4 C 0.2441(4) 0.6536(5) 0.4101(4)
C5_4 C 0.1138(4) 0.0434(5) 0.5395(4)
C6_4 C 0.0417(4) 0.1820(5) 0.5107(4)
H2_4 H 0.005134 0.159215 0.530847
C7_4 C 0.0364(4) 0.2650(5) 0.4865(4)
C8_4 C 0.1502(4) 0.1678(5) 0.4701(4)
H4_4 H 0.189190 0.135475 0.462310
C9_4 C 0.1422(4) 0.2494(5) 0.4468(5)
H5_4 H 0.176492 0.271735 0.423408
C10_4 C 0.2970(4) 0.7278(5) 0.4102(4)
C11_4 C 0.2672(4) 0.5690(5) 0.4105(5)
H6_4 H 0.314932 0.556507 0.409358
C12_4 C 0.1274(4) 0.5994(5) 0.4139(5)
H7_4 H 0.079293 0.610249 0.414571
C13_4 C 0.2184(4) 0.5033(5) 0.4127(4)
H8_4 H 0.234736 0.446911 0.412318
H9_4 H 0.006941 0.386092 0.158361
C18_4 C 0.0331(4) 0.4019(5) 0.2629(4)
H12_4 H 0.082328 0.394601 0.265557
O7_2 O 0.2206(3) 0.8003(3) 0.5692(3)
O8_4 O 0.1473(4) 0.7127(4) 0.6115(4)
O11_4 O 0.3292(3) 0.0047(3) 0.4672(3)
O12_4 O 0.4307(3) 0.0160(4) 0.4263(3)
N4_4 N 0.4137(3) 0.3015(3) 0.5444(3)
N5_4 N 0.3502(3) 0.5161(4) 0.5847(3)
N6_4 N 0.4911(3) 0.4157(4) 0.6778(3)
C19_4 C 0.6365(4) 0.4124(4) 0.8775(4)
C20_4 C 0.3280(4) 0.6679(5) 0.5883(4)
H13_4 H 0.345716 0.723683 0.588828
C21_4 C 0.3991(4) 0.1314(4) 0.4942(4)
C22_4 C 0.2559(4) 0.6536(5) 0.5899(4)
C23_4 C 0.3862(4) 0.0434(5) 0.4605(4)
C24_4 C 0.4583(4) 0.1820(5) 0.4893(4)
H14_4 H 0.494866 0.159215 0.469153
C25_4 C 0.4636(4) 0.2650(5) 0.5135(4)
H15_4 H 0.503485 0.297359 0.508289
C26_4 C 0.3498(4) 0.1678(5) 0.5299(4)
H16_4 H 0.310810 0.135475 0.537690
C27_4 C 0.3578(4) 0.2494(5) 0.5532(5)
H17_4 H 0.323508 0.271735 0.576592
C28_4 C 0.2030(4) 0.7278(5) 0.5898(4)
C29_4 C 0.2328(4) 0.5690(5) 0.5895(5)
H18_4 H 0.185068 0.556507 0.590642
C30_4 C 0.3726(4) 0.5994(5) 0.5861(5)
H19_4 H 0.420707 0.610249 0.585429
C31_4 C 0.2816(4) 0.5033(5) 0.5873(4)
H20_4 H 0.265264 0.446911 0.587682
C32_4 C 0.5854(4) 0.4119(4) 0.8082(4)
C33_4 C 0.5118(4) 0.3980(5) 0.8018(4)
H21_4 H 0.493059 0.386092 0.841639
C34_4 C 0.6086(4) 0.4236(6) 0.7462(4)
H22_4 H 0.657466 0.430830 0.746872
C35_4 C 0.5614(4) 0.4247(6) 0.6843(5)
H23_4 H 0.579525 0.432379 0.643457
C36_4 C 0.4669(4) 0.4019(5) 0.7371(4)
H24_4 H 0.417672 0.394601 0.734443
C1_4 C 0.8635(4) 0.4124(4) 0.1225(4)
H3_4 H 0.996515 0.297359 0.491711
C14_4 C 0.9146(4) 0.4119(4) 0.1918(4)
C15_4 C 0.9882(4) 0.3980(5) 0.1982(4)
C16_4 C 0.8914(4) 0.4236(6) 0.2538(4)
H10_4 H 0.842534 0.430830 0.253128
C17_4 C 0.9386(4) 0.4247(6) 0.3157(5)
H11_4 H 0.920475 0.432379 0.356543
N7 N 0.3941(4) 0.8730(4) 0.3467(4)
H25 H 0.382290 0.827256 0.369605
H26 H 0.405170 0.915226 0.377975
C37 C 0.3296(6) 0.8985(7) 0.2940(6)
H27 H 0.341410 0.946225 0.266962
H28 H 0.291735 0.914757 0.317742
H29 H 0.314002 0.850893 0.263146
C38 C 0.4590(5) 0.8506(7) 0.3186(6)
H30 H 0.470843 0.897455 0.290625
H31 H 0.449608 0.799974 0.289888
H32 H 0.498489 0.839997 0.356988
N7_2 N 0.1059(4) 0.8730(4) 0.6533(4)
H25_2 H 0.117710 0.827256 0.630395
H26_2 H 0.094830 0.915226 0.622025
C37_2 C 0.1704(6) 0.8985(7) 0.7060(6)
H27_2 H 0.158590 0.946225 0.733038
H28_2 H 0.208265 0.914757 0.682258
H29_2 H 0.185998 0.850893 0.736854
C38_2 C 0.0410(5) 0.8506(7) 0.6814(6)
H30_2 H 0.029157 0.897455 0.709375
H31_2 H 0.050392 0.799974 0.710112
H32_2 H 0.001511 0.839997 0.643012
N7_3 N 0.8941(4) 0.3730(4) 0.8467(4)
H25_3 H 0.882290 0.327256 0.869605
H26_3 H 0.905170 0.415226 0.877975
C37_3 C 0.8296(6) 0.3985(7) 0.7940(6)
H27_3 H 0.841410 0.446225 0.766962
H28_3 H 0.791735 0.414757 0.817742
H29_3 H 0.814002 0.350893 0.763146
C38_3 C 0.9590(5) 0.3506(7) 0.8186(6)
H30_3 H 0.970843 0.397455 0.790625
H31_3 H 0.949608 0.299974 0.789888
H32_3 H 0.998489 0.339997 0.856988
N7_4 N 0.6059(4) 0.3730(4) 0.1533(4)
H25_4 H 0.617710 0.327256 0.130395
H26_4 H 0.594830 0.415226 0.122025
C37_4 C 0.6704(6) 0.3985(7) 0.2060(6)
H27_4 H 0.658590 0.446225 0.233038
H28_4 H 0.708265 0.414757 0.182258
H29_4 H 0.685998 0.350893 0.236854
C38_4 C 0.5410(5) 0.3506(7) 0.1814(6)
H30_4 H 0.529157 0.397455 0.209375
H31_4 H 0.550392 0.299974 0.210112
H32_4 H 0.501511 0.339997 0.143012
N7_5 N 0.6059(4) 0.1270(4) 0.6533(4)
H25_5 H 0.617710 0.172744 0.630395
H26_5 H 0.594830 0.084774 0.622025
C37_5 C 0.6704(6) 0.1015(7) 0.7060(6)
H27_5 H 0.658590 0.053775 0.733038
H28_5 H 0.708265 0.085243 0.682258
H29_5 H 0.685998 0.149107 0.736854
C38_5 C 0.5410(5) 0.1494(7) 0.6814(6)
H30_5 H 0.529157 0.102545 0.709375
H31_5 H 0.550392 0.200026 0.710112
H32_5 H 0.501511 0.160003 0.643012
N7_6 N 0.8941(4) 0.1270(4) 0.3467(4)
H25_6 H 0.882290 0.172744 0.369605
H26_6 H 0.905170 0.084774 0.377975
C37_6 C 0.8296(6) 0.1015(7) 0.2940(6)
H27_6 H 0.841410 0.053775 0.266962
H28_6 H 0.791735 0.085243 0.317742
H29_6 H 0.814002 0.149107 0.263146
C38_6 C 0.9590(5) 0.1494(7) 0.3186(6)
H30_6 H 0.970843 0.102545 0.290625
H31_6 H 0.949608 0.200026 0.289888
H32_6 H 0.998489 0.160003 0.356988
N7_7 N 0.1059(4) 0.6270(4) 0.1533(4)
H25_7 H 0.117710 0.672744 0.130395
H26_7 H 0.094830 0.584774 0.122025
C37_7 C 0.1704(6) 0.6015(7) 0.2060(6)
H27_7 H 0.158590 0.553775 0.233038
H28_7 H 0.208265 0.585243 0.182258
H29_7 H 0.185998 0.649107 0.236854
C38_7 C 0.0410(5) 0.6494(7) 0.1814(6)
H30_7 H 0.029157 0.602545 0.209375
H31_7 H 0.050392 0.700026 0.210112
H32_7 H 0.001511 0.660003 0.143012
N7_8 N 0.3941(4) 0.6270(4) 0.8467(4)
H25_8 H 0.382290 0.672744 0.869605
H26_8 H 0.405170 0.584774 0.877975
C37_8 C 0.3296(6) 0.6015(7) 0.7940(6)
H27_8 H 0.341410 0.553775 0.766962
H28_8 H 0.291735 0.585243 0.817742
H29_8 H 0.314002 0.649107 0.763146
C38_8 C 0.4590(5) 0.6494(7) 0.8186(6)
H30_8 H 0.470843 0.602545 0.790625
H31_8 H 0.449608 0.700026 0.789888
H32_8 H 0.498489 0.660003 0.856988
loop_
_geom_bond_atom_site_label_1
_geom_bond_atom_site_label_2
_geom_bond_site_symmetry_1
_geom_bond_site_symmetry_2
Br1 Cu1 1_555 1_555
Cu1 N1 1_555 1_555
O3 C1 1_555 1_555
O4 C1 1_555 1_555
N1 C7 1_555 1_555
N3 Cu1 1_555 1_555
C1 C14 1_555 1_555
H3 C7 1_555 1_555
H4 C8 1_555 1_555
C9 N1 1_555 1_555
H5 C9 1_555 1_555
C14 C15 1_555 1_555
C15 H9 1_555 1_555
C16 C14 1_555 1_555
H10 C16 1_555 1_555
C17 N3 1_555 1_555
H11 C17 1_555 1_555
C18 N3 1_555 1_555
H12 C18 1_555 1_555
O11 Gd1 1_555 1_555
O12 C23 1_555 1_555
C21 C23 1_555 1_555
C23 O11 1_555 1_555
C24 C21 1_555 1_555
H14 C24 1_555 1_555
Gd4 O3 1_555 1_555
O13 Gd1 1_555 1_555
O16 Gd1 1_555 1_555
O18 Gd1 1_555 1_555
O4 Gd4 1_555 1_555
C8 C9 1_555 1_555
C15 C18 1_555 1_555
C16 C17 1_555 1_555
Gd1_2 O5 1_555 1_555
O5 C5 1_555 1_555
O6 C5 1_555 1_555
C3 C5 1_555 1_555
C6 C3 1_555 1_555
H2 C6 1_555 1_555
Cu2 N4 1_555 1_555
N4 C25 1_555 1_555
N6 Cu2 1_555 1_555
H16 C26 1_555 1_555
C27 N4 1_555 1_555
H17 C27 1_555 1_555
C36 N6 1_555 1_555
H24 C36 1_555 1_555
Br2_2 Cu2 1_555 1_555
O14 Gd1_2 1_555 1_555
O15 Gd1_2 1_555 1_555
O17 Gd1_2 1_555 1_555
C26 C27 1_555 1_555
O13 C10 1_555 1_555
O2 C10 1_555 1_555
C2 H1 1_555 1_555
C4 C2 1_555 1_555
C10 C4 1_555 1_555
C11 C4 1_555 1_555
H6 C11 1_555 1_555
C12 N2 1_555 1_555
H7 C12 1_555 1_555
C13 N2 1_555 1_555
C2 C12 1_555 1_555
C11 C13 1_555 1_555
O14 C28 1_555 1_555
O8 C28 1_555 1_555
C20 H13 1_555 1_555
C22 C20 1_555 1_555
C28 C22 1_555 1_555
C29 C22 1_555 1_555
H18 C29 1_555 1_555
C30 N5 1_555 1_555
H19 C30 1_555 1_555
C31 N5 1_555 1_555
Cu3 Br1_4 1_555 1_555
C20 C30 1_555 1_555
C29 C31 1_555 1_555
O9 C19 1_555 1_555
O10 C19 1_555 1_555
C19 C32 1_555 1_555
C32 C33 1_555 1_555
C34 C32 1_555 1_555
H22 C34 1_555 1_555
H23 C35 1_555 1_555
Gd4 O9 1_555 1_555
O10 Gd4 1_555 1_555
C34 C35 1_555 1_555
Cu3_2 Br2_7 1_555 1_555
O15 C1_2 1_555 1_555
O17 C1_2 1_555 1_555
C1_2 C14_2 1_555 1_555
C14_2 C15_2 1_555 1_555
C16_2 C14_2 1_555 1_555
H10_2 C16_2 1_555 1_555
H11_2 C17_2 1_555 1_555
Cu3_3 Br1_5 1_555 1_555
C16_2 C17_2 1_555 1_555
O13_2 Gd4 1_555 1_555
O14_2 Gd4 1_555 1_555
Br1_6 Cu1_2 1_555 1_555
Cu1_2 N1_2 1_555 1_555
O13_2 C10_2 1_555 1_555
O2_2 C10_2 1_555 1_555
O5_2 C5_2 1_555 1_555
O6_2 C5_2 1_555 1_555
N1_2 C7_2 1_555 1_555
N2_2 Cu1_2 1_555 1_555
N3_2 Cu1_2 1_555 1_555
C2_2 H1_2 1_555 1_555
C3_2 C5_2 1_555 1_555
C4_2 C2_2 1_555 1_555
C6_2 C3_2 1_555 1_555
H2_2 C6_2 1_555 1_555
C7_2 C6_2 1_555 1_555
C8_2 C3_2 1_555 1_555
H4_2 C8_2 1_555 1_555
C9_2 N1_2 1_555 1_555
H5_2 C9_2 1_555 1_555
C10_2 C4_2 1_555 1_555
C11_2 C4_2 1_555 1_555
H6_2 C11_2 1_555 1_555
C12_2 N2_2 1_555 1_555
H7_2 C12_2 1_555 1_555
C13_2 N2_2 1_555 1_555
H8_2 C13_2 1_555 1_555
C18_2 N3_2 1_555 1_555
H12_2 C18_2 1_555 1_555
Cu2_2 N4_2 1_555 1_555
O14_2 C28_2 1_555 1_555
O8_2 C28_2 1_555 1_555
O16 C19_2 1_555 1_555
O18 C19_2 1_555 1_555
O12_2 C23_2 1_555 1_555
N4_2 C25_2 1_555 1_555
N5_2 Cu2_2 1_555 1_555
N6_2 Cu2_2 1_555 1_555
C19_2 C32_2 1_555 1_555
C20_2 H13_2 1_555 1_555
C21_2 C23_2 1_555 1_555
C22_2 C20_2 1_555 1_555
C23_2 O11_2 1_555 1_555
C24_2 C21_2 1_555 1_555
H14_2 C24_2 1_555 1_555
C25_2 C24_2 1_555 1_555
H15_2 C25_2 1_555 1_555
C26_2 C21_2 1_555 1_555
H16_2 C26_2 1_555 1_555
C27_2 N4_2 1_555 1_555
H17_2 C27_2 1_555 1_555
C28_2 C22_2 1_555 1_555
C29_2 C22_2 1_555 1_555
H18_2 C29_2 1_555 1_555
C30_2 N5_2 1_555 1_555
H19_2 C30_2 1_555 1_555
C31_2 N5_2 1_555 1_555
H20_2 C31_2 1_555 1_555
C32_2 C33_2 1_555 1_555
C33_2 H21_2 1_555 1_555
C34_2 C32_2 1_555 1_555
H22_2 C34_2 1_555 1_555
C35_2 N6_2 1_555 1_555
H23_2 C35_2 1_555 1_555
C36_2 N6_2 1_555 1_555
H24_2 C36_2 1_555 1_555
Br2_9 Cu2_2 1_555 1_555
C2_2 C12_2 1_555 1_555
C8_2 C9_2 1_555 1_555
C11_2 C13_2 1_555 1_555
C20_2 C30_2 1_555 1_555
C26_2 C27_2 1_555 1_555
C29_2 C31_2 1_555 1_555
C33_2 C36_2 1_555 1_555
C34_2 C35_2 1_555 1_555
Cu3_4 Br2_9 1_555 1_555
O9_2 C19_3 1_555 1_555
O10_2 C19_3 1_555 1_555
C19_3 C32_3 1_555 1_555
C32_3 C33_3 1_555 1_555
C34_3 C32_3 1_555 1_555
H22_3 C34_3 1_555 1_555
H23_3 C35_3 1_555 1_555
Gd3 O9_2 1_555 1_555
O10_2 Gd3 1_555 1_555
C34_3 C35_3 1_555 1_555
O7 C28_3 1_555 1_555
O8_3 C28_3 1_555 1_555
C20_3 H13_3 1_555 1_555
C22_3 C20_3 1_555 1_555
C28_3 C22_3 1_555 1_555
C29_3 C22_3 1_555 1_555
H18_3 C29_3 1_555 1_555
C30_3 N5_3 1_555 1_555
H19_3 C30_3 1_555 1_555
C31_3 N5_3 1_555 1_555
O7 Gd2 1_555 1_555
C20_3 C30_3 1_555 1_555
C29_3 C31_3 1_555 1_555
O1 C10_3 1_555 1_555
O2_3 C10_3 1_555 1_555
C2_3 H1_3 1_555 1_555
C4_3 C2_3 1_555 1_555
C10_3 C4_3 1_555 1_555
C11_3 C4_3 1_555 1_555
H6_3 C11_3 1_555 1_555
C12_3 N2_3 1_555 1_555
H7_3 C12_3 1_555 1_555
C13_3 N2_3 1_555 1_555
Gd2_2 O1 1_555 1_555
C2_3 C12_3 1_555 1_555
C11_3 C13_3 1_555 1_555
Gd2 O5_3 1_555 1_555
O5_3 C5_3 1_555 1_555
O6_3 C5_3 1_555 1_555
C3_3 C5_3 1_555 1_555
C6_3 C3_3 1_555 1_555
H2_3 C6_3 1_555 1_555
Cu3_2 N4_3 1_555 1_555
N4_3 C25_3 1_555 1_555
N6_3 Cu3_2 1_555 1_555
H16_3 C26_3 1_555 1_555
C27_3 N4_3 1_555 1_555
H17_3 C27_3 1_555 1_555
C36_3 N6_3 1_555 1_555
H24_3 C36_3 1_555 1_555
O15_2 Gd2 1_555 1_555
O17_2 Gd2 1_555 1_555
C26_3 C27_3 1_555 1_555
Cu3 N1_3 1_555 1_555
O3_2 C1_3 1_555 1_555
O4_2 C1_3 1_555 1_555
N1_3 C7_3 1_555 1_555
N3_3 Cu3 1_555 1_555
C1_3 C14_3 1_555 1_555
H3_3 C7_3 1_555 1_555
H4_3 C8_3 1_555 1_555
C9_3 N1_3 1_555 1_555
H5_3 C9_3 1_555 1_555
C14_3 C15_3 1_555 1_555
C15_3 H9_3 1_555 1_555
C16_3 C14_3 1_555 1_555
H10_3 C16_3 1_555 1_555
C17_3 N3_3 1_555 1_555
H11_3 C17_3 1_555 1_555
C18_3 N3_3 1_555 1_555
H12_3 C18_3 1_555 1_555
O11_3 Gd2_2 1_555 1_555
O12_3 C23_3 1_555 1_555
C21_3 C23_3 1_555 1_555
C23_3 O11_3 1_555 1_555
C24_3 C21_3 1_555 1_555
H14_3 C24_3 1_555 1_555
Gd3 O3_2 1_555 1_555
O16_2 Gd2_2 1_555 1_555
O18_2 Gd2_2 1_555 1_555
O4_2 Gd3 1_555 1_555
C8_3 C9_3 1_555 1_555
C15_3 C18_3 1_555 1_555
C16_3 C17_3 1_555 1_555
Cu3_3 N1_4 1_555 1_555
O1_2 C10_4 1_555 1_555
O2_4 C10_4 1_555 1_555
O5_4 C5_4 1_555 1_555
O6_4 C5_4 1_555 1_555
N1_4 C7_4 1_555 1_555
N2_4 Cu3_3 1_555 1_555
N3_4 Cu3_3 1_555 1_555
C2_4 H1_4 1_555 1_555
C3_4 C5_4 1_555 1_555
C4_4 C2_4 1_555 1_555
C6_4 C3_4 1_555 1_555
H2_4 C6_4 1_555 1_555
C7_4 C6_4 1_555 1_555
C8_4 C3_4 1_555 1_555
H4_4 C8_4 1_555 1_555
C9_4 N1_4 1_555 1_555
H5_4 C9_4 1_555 1_555
C10_4 C4_4 1_555 1_555
C11_4 C4_4 1_555 1_555
H6_4 C11_4 1_555 1_555
C12_4 N2_4 1_555 1_555
H7_4 C12_4 1_555 1_555
C13_4 N2_4 1_555 1_555
H8_4 C13_4 1_555 1_555
C18_4 N3_4 1_555 1_555
H12_4 C18_4 1_555 1_555
Cu3_4 N4_4 1_555 1_555
O7_2 C28_4 1_555 1_555
O8_4 C28_4 1_555 1_555
O16_2 C19_4 1_555 1_555
O18_2 C19_4 1_555 1_555
O12_4 C23_4 1_555 1_555
N4_4 C25_4 1_555 1_555
N5_4 Cu3_4 1_555 1_555
N6_4 Cu3_4 1_555 1_555
C19_4 C32_4 1_555 1_555
C20_4 H13_4 1_555 1_555
C21_4 C23_4 1_555 1_555
C22_4 C20_4 1_555 1_555
C23_4 O11_4 1_555 1_555
C24_4 C21_4 1_555 1_555
H14_4 C24_4 1_555 1_555
C25_4 C24_4 1_555 1_555
H15_4 C25_4 1_555 1_555
C26_4 C21_4 1_555 1_555
H16_4 C26_4 1_555 1_555
C27_4 N4_4 1_555 1_555
H17_4 C27_4 1_555 1_555
C28_4 C22_4 1_555 1_555
C29_4 C22_4 1_555 1_555
H18_4 C29_4 1_555 1_555
C30_4 N5_4 1_555 1_555
H19_4 C30_4 1_555 1_555
C31_4 N5_4 1_555 1_555
H20_4 C31_4 1_555 1_555
C32_4 C33_4 1_555 1_555
C33_4 H21_4 1_555 1_555
C34_4 C32_4 1_555 1_555
H22_4 C34_4 1_555 1_555
C35_4 N6_4 1_555 1_555
H23_4 C35_4 1_555 1_555
C36_4 N6_4 1_555 1_555
H24_4 C36_4 1_555 1_555
Gd3 O1_2 1_555 1_555
C2_4 C12_4 1_555 1_555
C8_4 C9_4 1_555 1_555
C11_4 C13_4 1_555 1_555
O7_2 Gd3 1_555 1_555
C20_4 C30_4 1_555 1_555
C26_4 C27_4 1_555 1_555
C29_4 C31_4 1_555 1_555
C33_4 C36_4 1_555 1_555
C34_4 C35_4 1_555 1_555
O15_2 C1_4 1_555 1_555
O17_2 C1_4 1_555 1_555
C1_4 C14_4 1_555 1_555
C14_4 C15_4 1_555 1_555
C16_4 C14_4 1_555 1_555
H10_4 C16_4 1_555 1_555
H11_4 C17_4 1_555 1_555
C16_4 C17_4 1_555 1_555
N7 H25 1_555 1_555
H26 N7 1_555 1_555
C37 N7 1_555 1_555
H27 C37 1_555 1_555
H28 C37 1_555 1_555
H29 C37 1_555 1_555
C38 N7 1_555 1_555
H30 C38 1_555 1_555
H31 C38 1_555 1_555
H32 C38 1_555 1_555
N7_2 H25_2 1_555 1_555
H26_2 N7_2 1_555 1_555
C37_2 N7_2 1_555 1_555
H27_2 C37_2 1_555 1_555
H28_2 C37_2 1_555 1_555
H29_2 C37_2 1_555 1_555
C38_2 N7_2 1_555 1_555
H30_2 C38_2 1_555 1_555
H31_2 C38_2 1_555 1_555
H32_2 C38_2 1_555 1_555
N7_3 H25_3 1_555 1_555
H26_3 N7_3 1_555 1_555
C37_3 N7_3 1_555 1_555
H27_3 C37_3 1_555 1_555
H28_3 C37_3 1_555 1_555
H29_3 C37_3 1_555 1_555
C38_3 N7_3 1_555 1_555
H30_3 C38_3 1_555 1_555
H31_3 C38_3 1_555 1_555
H32_3 C38_3 1_555 1_555
N7_4 H25_4 1_555 1_555
H26_4 N7_4 1_555 1_555
C37_4 N7_4 1_555 1_555
H27_4 C37_4 1_555 1_555
H28_4 C37_4 1_555 1_555
H29_4 C37_4 1_555 1_555
C38_4 N7_4 1_555 1_555
H30_4 C38_4 1_555 1_555
H31_4 C38_4 1_555 1_555
H32_4 C38_4 1_555 1_555
N7_5 H25_5 1_555 1_555
H26_5 N7_5 1_555 1_555
C37_5 N7_5 1_555 1_555
H27_5 C37_5 1_555 1_555
H28_5 C37_5 1_555 1_555
H29_5 C37_5 1_555 1_555
C38_5 N7_5 1_555 1_555
H30_5 C38_5 1_555 1_555
H31_5 C38_5 1_555 1_555
H32_5 C38_5 1_555 1_555
N7_6 H25_6 1_555 1_555
H26_6 N7_6 1_555 1_555
C37_6 N7_6 1_555 1_555
H27_6 C37_6 1_555 1_555
H28_6 C37_6 1_555 1_555
H29_6 C37_6 1_555 1_555
C38_6 N7_6 1_555 1_555
H30_6 C38_6 1_555 1_555
H31_6 C38_6 1_555 1_555
H32_6 C38_6 1_555 1_555
N7_7 H25_7 1_555 1_555
H26_7 N7_7 1_555 1_555
C37_7 N7_7 1_555 1_555
H27_7 C37_7 1_555 1_555
H28_7 C37_7 1_555 1_555
H29_7 C37_7 1_555 1_555
C38_7 N7_7 1_555 1_555
H30_7 C38_7 1_555 1_555
H31_7 C38_7 1_555 1_555
H32_7 C38_7 1_555 1_555
N7_8 H25_8 1_555 1_555
H26_8 N7_8 1_555 1_555
C37_8 N7_8 1_555 1_555
H27_8 C37_8 1_555 1_555
H28_8 C37_8 1_555 1_555
H29_8 C37_8 1_555 1_555
C38_8 N7_8 1_555 1_555
H30_8 C38_8 1_555 1_555
H31_8 C38_8 1_555 1_555
H32_8 C38_8 1_555 1_555

#END
