
###############################################################################
#
# This file contains modified crystal structure data generated from the
# MOF subset of the Cambridge Structural Database (CSD) v543 
# hosted by the Cambridge Crystallographic Data Centre (CCDC).
#
# This work is licensed under the Creative Commons
# Attribution-NonCommercial-ShareAlike 4.0 International License.
# To view a copy of this license, visit
# http://creativecommons.org/licenses/by-nc-sa/4.0/
# or send a letter to
# Creative Commons, PO Box 1866, Mountain View, CA 94042, USA.
#
# CIF created using the CSD Python API on 29 September 2022
# The structure has been converted into the P1 space group
# The structure has a 3D framework
# The original CSD entry OFONEF is in the monoclinic crystal system
# The framework has been calculated to contain at least 10.0% void space
# The void calculation uses a probe of radius 1.32A, grid spacing 0.4
# The framework is charged, counterions have been retained in the structure
#
###############################################################################

data_OFONEF
_chemical_formula_moiety         '(C160 H160 Br10 Cu8 Eu6 N32 O48 6-)n'
_symmetry_cell_setting           triclinic
_symmetry_space_group_name_H-M   'P 1'
_symmetry_Int_Tables_number      1
_space_group_name_Hall           'P 1'
loop_
_symmetry_equiv_pos_site_id
_symmetry_equiv_pos_as_xyz
1 x,y,z
_cell_length_a                   18.972(11)
_cell_length_b                   15.530(8)
_cell_length_c                   19.512(9)
_cell_angle_alpha                90
_cell_angle_beta                 101.80(4)
_cell_angle_gamma                90
_cell_volume                     5627.43
loop_
_atom_site_label
_atom_site_type_symbol
_atom_site_fract_x
_atom_site_fract_y
_atom_site_fract_z
Eu2 Eu 0.250000 0.09199(2) 0.500000
Eu4 Eu 0.750000 0.59199(2) 0.000000
Cu1 Cu 0.07725(4) 0.57760(4) 0.41985(4)
Br1 Br 0.000000 0.500000 0.500000
N1 N 0.1489(3) 0.4837(3) 0.4148(3)
N2 N 0.0094(3) 0.5841(3) 0.3222(3)
O1 O 0.2793(2) 0.2009(3) 0.4299(2)
C3 C 0.0357(3) 0.7359(4) 0.4855(3)
C4 C 0.1132(3) 0.9565(4) 0.5391(3)
N3 N 0.0856(3) 0.6989(3) 0.4555(2)
C5 C 0.0405(3) 0.8196(4) 0.5104(3)
H2 H 0.004166 0.842630 0.530380
C6 C 0.0331(3) 0.5973(5) 0.2632(3)
H3 H 0.082257 0.604744 0.266187
O4 O 0.1698(2) 0.9952(3) 0.5325(2)
H4 H 0.007380 0.610390 0.158509
C8 C 0.2959(3) 0.2731(4) 0.4097(3)
C9 C 0.2442(3) 0.3473(4) 0.4103(3)
C10 C 0.1002(3) 0.8688(4) 0.5053(3)
O5 O 0.0696(3) 0.9835(3) 0.5739(3)
C11 C 0.1283(4) 0.4009(4) 0.4139(4)
H5 H 0.080101 0.389732 0.413720
C12 C 0.1727(3) 0.3318(4) 0.4132(3)
H6 H 0.155485 0.275870 0.414541
C13 C 0.1498(3) 0.8334(4) 0.4711(3)
H7 H 0.188864 0.866076 0.464196
C15 C 0.1420(3) 0.7498(4) 0.4469(3)
H9 H 0.176333 0.727196 0.424058
C16 C 0.2672(3) 0.4323(4) 0.4111(4)
H10 H 0.314982 0.444819 0.410255
C17 C 0.2186(4) 0.4982(4) 0.4132(4)
H11 H 0.234649 0.554824 0.413601
O6 O 0.3523(3) 0.2874(3) 0.3882(3)
Cu2 Cu 0.42275(4) 0.57760(4) 0.58015(4)
N4 N 0.3511(3) 0.4837(3) 0.5852(3)
N5 N 0.4906(3) 0.5841(3) 0.6778(3)
O7 O 0.2207(2) 0.2009(3) 0.5701(2)
C19 C 0.6366(3) 0.5871(4) 0.8780(3)
O8 O 0.6236(2) 0.6307(3) 0.9274(2)
O9 O 0.6928(2) 0.5412(3) 0.8826(2)
C20 C 0.5850(3) 0.5883(4) 0.8077(3)
C21 C 0.4643(3) 0.7359(4) 0.5145(3)
H13 H 0.504448 0.703593 0.510114
C22 C 0.3868(3) 0.9565(4) 0.4609(3)
N6 N 0.4144(3) 0.6989(3) 0.5445(2)
C23 C 0.4595(3) 0.8196(4) 0.4896(3)
H14 H 0.495834 0.842630 0.469620
C24 C 0.4669(3) 0.5973(5) 0.7368(3)
H15 H 0.417743 0.604744 0.733813
O10 O 0.3302(2) 0.9952(3) 0.4675(2)
C25 C 0.5115(3) 0.6003(4) 0.8018(3)
H16 H 0.492620 0.610390 0.841491
C26 C 0.2041(3) 0.2731(4) 0.5903(3)
C27 C 0.2558(3) 0.3473(4) 0.5897(3)
C28 C 0.3998(3) 0.8688(4) 0.4947(3)
O11 O 0.4304(3) 0.9835(3) 0.4261(3)
C29 C 0.3717(4) 0.4009(4) 0.5861(4)
H17 H 0.419899 0.389732 0.586280
C30 C 0.3273(3) 0.3318(4) 0.5868(3)
H18 H 0.344515 0.275870 0.585459
C31 C 0.3502(3) 0.8334(4) 0.5289(3)
H19 H 0.311136 0.866076 0.535804
C32 C 0.6096(4) 0.5752(5) 0.7474(3)
H20 H 0.658437 0.566502 0.749281
C33 C 0.3580(3) 0.7498(4) 0.5531(3)
H21 H 0.323667 0.727196 0.575942
C34 C 0.2328(3) 0.4323(4) 0.5889(4)
H22 H 0.185018 0.444819 0.589745
C35 C 0.2814(4) 0.4982(4) 0.5868(4)
H23 H 0.265351 0.554824 0.586399
C36 C 0.5615(4) 0.5747(5) 0.6833(3)
H24 H 0.579423 0.567687 0.642684
O12 O 0.1477(3) 0.2874(3) 0.6118(3)
Eu4_2 Eu 0.750000 0.59199(2) 1.000000
Br2 Br 0.500000 0.500000 0.500000
O13 O 0.3764(2) 0.1307(3) 0.5726(2)
O14 O 0.1236(2) 0.1307(3) 0.4274(2)
O15 O 0.3072(2) 0.0412(3) 0.6174(2)
O16 O 0.1928(2) 0.0412(3) 0.3826(2)
Br1_2 Br 1.000000 0.500000 0.500000
C1 C 0.8634(3) 0.5871(4) 0.1220(3)
O2 O 0.8764(2) 0.6307(3) 0.0726(2)
O3 O 0.8072(2) 0.5412(3) 0.1174(2)
C2 C 0.9150(3) 0.5883(4) 0.1923(3)
H1 H 0.995552 0.703593 0.489886
C7 C 0.9885(3) 0.6003(4) 0.1982(3)
C14 C 0.8904(4) 0.5752(5) 0.2526(3)
H8 H 0.841563 0.566502 0.250719
C18 C 0.9385(4) 0.5747(5) 0.3167(3)
H12 H 0.920577 0.567687 0.357316
Cu3 Cu 0.92275(4) 0.42240(4) 0.58015(4)
Cu3_2 Cu 0.57725(4) 0.42240(4) 0.41985(4)
C19_2 C 0.1366(3) 0.0871(4) 0.3780(3)
C20_2 C 0.0850(3) 0.0883(4) 0.3077(3)
H13_2 H 0.004448 0.203593 0.010114
C25_2 C 0.0115(3) 0.1003(4) 0.3018(3)
C32_2 C 0.1096(4) 0.0752(5) 0.2474(3)
H20_2 H 0.158437 0.066502 0.249281
C36_2 C 0.0615(4) 0.0747(5) 0.1833(3)
H24_2 H 0.079423 0.067687 0.142684
Br2_2 Br 0.000000 0.000000 0.000000
Br2_3 Br 0.000000 0.000000 1.000000
Br2_4 Br 0.000000 1.000000 0.000000
Br2_5 Br 0.000000 1.000000 1.000000
Br1_3 Br 0.500000 0.000000 0.000000
C4_2 C 0.6132(3) 0.4565(4) 0.0391(3)
C5_2 C 0.5405(3) 0.3196(4) 0.0104(3)
H2_2 H 0.504166 0.342630 0.030380
O4_2 O 0.6698(2) 0.4952(3) 0.0325(2)
C10_2 C 0.6002(3) 0.3688(4) 0.0053(3)
O5_2 O 0.5696(3) 0.4835(3) 0.0739(3)
Cu2_2 Cu 0.92275(4) 0.07760(4) 0.08015(4)
N5_2 N 0.9906(3) 0.0841(3) 0.1778(3)
C21_2 C 0.9643(3) 0.2359(4) 0.0145(3)
N6_2 N 0.9144(3) 0.1989(3) 0.0445(2)
C24_2 C 0.9669(3) 0.0973(5) 0.2368(3)
H15_2 H 0.917743 0.104744 0.233813
H16_2 H 0.992620 0.110390 0.341491
C31_2 C 0.8502(3) 0.3334(4) 0.0289(3)
H19_2 H 0.811136 0.366076 0.035804
C33_2 C 0.8580(3) 0.2498(4) 0.0531(3)
H21_2 H 0.823667 0.227196 0.075942
H23_2 H 0.765351 0.054824 0.086399
Br2_6 Br 1.000000 0.000000 0.000000
Cu1_2 Cu 0.57725(4) 0.07760(4) 0.91985(4)
Br1_4 Br 0.500000 0.000000 1.000000
N2_2 N 0.5094(3) 0.0841(3) 0.8222(3)
C1_2 C 0.3634(3) 0.0871(4) 0.6220(3)
C2_2 C 0.4150(3) 0.0883(4) 0.6923(3)
C3_2 C 0.5357(3) 0.2359(4) 0.9855(3)
H1_2 H 0.495552 0.203593 0.989886
N3_2 N 0.5856(3) 0.1989(3) 0.9555(2)
C6_2 C 0.5331(3) 0.0973(5) 0.7632(3)
H3_2 H 0.582257 0.104744 0.766187
C7_2 C 0.4885(3) 0.1003(4) 0.6982(3)
H4_2 H 0.507380 0.110390 0.658509
C13_2 C 0.6498(3) 0.3334(4) 0.9711(3)
H7_2 H 0.688864 0.366076 0.964196
C14_2 C 0.3904(4) 0.0752(5) 0.7526(3)
H8_2 H 0.341563 0.066502 0.750719
C15_2 C 0.6420(3) 0.2498(4) 0.9469(3)
H9_2 H 0.676333 0.227196 0.924058
H11_2 H 0.734649 0.054824 0.913601
C18_2 C 0.4385(4) 0.0747(5) 0.8167(3)
H12_2 H 0.420577 0.067687 0.857316
C22_2 C 0.8868(3) 0.4565(4) 0.9609(3)
C23_2 C 0.9595(3) 0.3196(4) 0.9896(3)
H14_2 H 0.995834 0.342630 0.969620
O10_2 O 0.8302(2) 0.4952(3) 0.9675(2)
C28_2 C 0.8998(3) 0.3688(4) 0.9947(3)
O11_2 O 0.9304(3) 0.4835(3) 0.9261(3)
Br2_7 Br 1.000000 0.000000 1.000000
Br1_5 Br 0.500000 1.000000 0.000000
N4_2 N 0.8511(3) 0.9837(3) 0.0852(3)
O7_2 O 0.7207(2) 0.7009(3) 0.0701(2)
C26_2 C 0.7041(3) 0.7731(4) 0.0903(3)
C27_2 C 0.7558(3) 0.8473(4) 0.0897(3)
C29_2 C 0.8717(4) 0.9009(4) 0.0861(4)
H17_2 H 0.919899 0.889732 0.086280
C30_2 C 0.8273(3) 0.8318(4) 0.0868(3)
H18_2 H 0.844515 0.775870 0.085459
C34_2 C 0.7328(3) 0.9323(4) 0.0889(4)
H22_2 H 0.685018 0.944819 0.089745
C35_2 C 0.7814(4) 0.9982(4) 0.0868(4)
O12_2 O 0.6477(3) 0.7874(3) 0.1118(3)
Cu3_3 Cu 0.42275(4) 0.92240(4) 0.08015(4)
Br2_8 Br 1.000000 1.000000 0.000000
Br1_6 Br 0.500000 1.000000 1.000000
N1_2 N 0.6489(3) 0.9837(3) 0.9148(3)
O1_2 O 0.7793(2) 0.7009(3) 0.9299(2)
C8_2 C 0.7959(3) 0.7731(4) 0.9097(3)
C9_2 C 0.7442(3) 0.8473(4) 0.9103(3)
C11_2 C 0.6283(4) 0.9009(4) 0.9139(4)
H5_2 H 0.580101 0.889732 0.913720
C12_2 C 0.6727(3) 0.8318(4) 0.9132(3)
H6_2 H 0.655485 0.775870 0.914541
C16_2 C 0.7672(3) 0.9323(4) 0.9111(4)
H10_2 H 0.814982 0.944819 0.910255
C17_2 C 0.7186(4) 0.9982(4) 0.9132(4)
O6_2 O 0.8523(3) 0.7874(3) 0.8882(3)
Br2_9 Br 1.000000 1.000000 1.000000
Cu3_4 Cu 0.07725(4) 0.92240(4) 0.91985(4)
Eu3 Eu 0.250000 0.40801(2) 0.000000
C1_3 C 0.1366(3) 0.4129(4) 0.8780(3)
O2_2 O 0.1236(2) 0.3693(3) 0.9274(2)
O3_2 O 0.1928(2) 0.4588(3) 0.8826(2)
C2_3 C 0.0850(3) 0.4117(4) 0.8077(3)
H1_3 H 0.004448 0.296407 0.510114
C7_3 C 0.0115(3) 0.3997(4) 0.8018(3)
C14_3 C 0.1096(4) 0.4248(5) 0.7474(3)
H8_3 H 0.158437 0.433498 0.749281
C18_3 C 0.0615(4) 0.4253(5) 0.6833(3)
H12_3 H 0.079423 0.432313 0.642684
Eu3_2 Eu 0.250000 0.40801(2) 1.000000
O17 O 0.8302(2) 0.0048(3) 0.4675(2)
O18 O 0.6698(2) 0.0048(3) 0.5325(2)
Eu1 Eu 0.750000 0.90801(2) 0.500000
N1_3 N 0.8511(3) 0.5163(3) 0.5852(3)
N2_3 N 0.9906(3) 0.4159(3) 0.6778(3)
O1_3 O 0.7207(2) 0.7991(3) 0.5701(2)
C3_3 C 0.9643(3) 0.2641(4) 0.5145(3)
C4_3 C 0.8868(3) 0.0435(4) 0.4609(3)
N3_3 N 0.9144(3) 0.3011(3) 0.5445(2)
C5_3 C 0.9595(3) 0.1804(4) 0.4896(3)
H2_3 H 0.995834 0.157370 0.469620
C6_3 C 0.9669(3) 0.4027(5) 0.7368(3)
H3_3 H 0.917743 0.395256 0.733813
H4_3 H 0.992620 0.389610 0.841491
C8_3 C 0.7041(3) 0.7269(4) 0.5903(3)
C9_3 C 0.7558(3) 0.6527(4) 0.5897(3)
C10_3 C 0.8998(3) 0.1312(4) 0.4947(3)
O5_3 O 0.9304(3) 0.0165(3) 0.4261(3)
C11_3 C 0.8717(4) 0.5991(4) 0.5861(4)
H5_3 H 0.919899 0.610268 0.586280
C12_3 C 0.8273(3) 0.6682(4) 0.5868(3)
H6_3 H 0.844515 0.724130 0.585459
C13_3 C 0.8502(3) 0.1666(4) 0.5289(3)
H7_3 H 0.811136 0.133924 0.535804
C15_3 C 0.8580(3) 0.2502(4) 0.5531(3)
H9_3 H 0.823667 0.272804 0.575942
C16_3 C 0.7328(3) 0.5677(4) 0.5889(4)
H10_3 H 0.685018 0.555181 0.589745
C17_3 C 0.7814(4) 0.5018(4) 0.5868(4)
H11_3 H 0.765351 0.445176 0.586399
O6_3 O 0.6477(3) 0.7126(3) 0.6118(3)
N4_3 N 0.6489(3) 0.5163(3) 0.4148(3)
N5_3 N 0.5094(3) 0.4159(3) 0.3222(3)
O7_3 O 0.7793(2) 0.7991(3) 0.4299(2)
C19_3 C 0.3634(3) 0.4129(4) 0.1220(3)
O8_2 O 0.3764(2) 0.3693(3) 0.0726(2)
O9_2 O 0.3072(2) 0.4588(3) 0.1174(2)
C20_3 C 0.4150(3) 0.4117(4) 0.1923(3)
C21_3 C 0.5357(3) 0.2641(4) 0.4855(3)
H13_3 H 0.495552 0.296407 0.489886
C22_3 C 0.6132(3) 0.0435(4) 0.5391(3)
N6_3 N 0.5856(3) 0.3011(3) 0.4555(2)
C23_3 C 0.5405(3) 0.1804(4) 0.5104(3)
H14_3 H 0.504166 0.157370 0.530380
C24_3 C 0.5331(3) 0.4027(5) 0.2632(3)
H15_3 H 0.582257 0.395256 0.266187
C25_3 C 0.4885(3) 0.3997(4) 0.1982(3)
H16_3 H 0.507380 0.389610 0.158509
C26_3 C 0.7959(3) 0.7269(4) 0.4097(3)
C27_3 C 0.7442(3) 0.6527(4) 0.4103(3)
C28_3 C 0.6002(3) 0.1312(4) 0.5053(3)
O11_3 O 0.5696(3) 0.0165(3) 0.5739(3)
C29_3 C 0.6283(4) 0.5991(4) 0.4139(4)
H17_3 H 0.580101 0.610268 0.413720
C30_3 C 0.6727(3) 0.6682(4) 0.4132(3)
H18_3 H 0.655485 0.724130 0.414541
C31_3 C 0.6498(3) 0.1666(4) 0.4711(3)
H19_3 H 0.688864 0.133924 0.464196
C32_3 C 0.3904(4) 0.4248(5) 0.2526(3)
H20_3 H 0.341563 0.433498 0.250719
C33_3 C 0.6420(3) 0.2502(4) 0.4469(3)
H21_3 H 0.676333 0.272804 0.424058
C34_3 C 0.7672(3) 0.5677(4) 0.4111(4)
H22_3 H 0.814982 0.555181 0.410255
C35_3 C 0.7186(4) 0.5018(4) 0.4132(4)
H23_3 H 0.734649 0.445176 0.413601
C36_3 C 0.4385(4) 0.4253(5) 0.3167(3)
H24_3 H 0.420577 0.432313 0.357316
O12_3 O 0.8523(3) 0.7126(3) 0.3882(3)
O13_2 O 0.6236(2) 0.8693(3) 0.4274(2)
O14_2 O 0.8764(2) 0.8693(3) 0.5726(2)
O15_2 O 0.6928(2) 0.9588(3) 0.3826(2)
O16_2 O 0.8072(2) 0.9588(3) 0.6174(2)
N1_4 N 0.3511(3) 0.0163(3) 0.0852(3)
O1_4 O 0.2207(2) 0.2991(3) 0.0701(2)
C8_4 C 0.2041(3) 0.2269(4) 0.0903(3)
C9_4 C 0.2558(3) 0.1527(4) 0.0897(3)
C11_4 C 0.3717(4) 0.0991(4) 0.0861(4)
H5_4 H 0.419899 0.110268 0.086280
C12_4 C 0.3273(3) 0.1682(4) 0.0868(3)
H6_4 H 0.344515 0.224130 0.085459
C16_4 C 0.2328(3) 0.0677(4) 0.0889(4)
H10_4 H 0.185018 0.055181 0.089745
C17_4 C 0.2814(4) 0.0018(4) 0.0868(4)
O6_4 O 0.1477(3) 0.2126(3) 0.1118(3)
O18_2 O 0.1698(2) 0.5048(3) 0.0325(2)
N4_4 N 0.1489(3) 0.0163(3) 0.9148(3)
O7_4 O 0.2793(2) 0.2991(3) 0.9299(2)
C26_4 C 0.2959(3) 0.2269(4) 0.9097(3)
C27_4 C 0.2442(3) 0.1527(4) 0.9103(3)
C29_4 C 0.1283(4) 0.0991(4) 0.9139(4)
H17_4 H 0.080101 0.110268 0.913720
C30_4 C 0.1727(3) 0.1682(4) 0.9132(3)
H18_4 H 0.155485 0.224130 0.914541
C34_4 C 0.2672(3) 0.0677(4) 0.9111(4)
H22_4 H 0.314982 0.055181 0.910255
C35_4 C 0.2186(4) 0.0018(4) 0.9132(4)
O12_4 O 0.3523(3) 0.2126(3) 0.8882(3)
O17_2 O 0.3302(2) 0.5048(3) 0.9675(2)
N2_4 N 0.4906(3) 0.9159(3) 0.1778(3)
C1_4 C 0.6366(3) 0.9129(4) 0.3780(3)
C2_4 C 0.5850(3) 0.9117(4) 0.3077(3)
C3_4 C 0.4643(3) 0.7641(4) 0.0145(3)
H1_4 H 0.504448 0.796407 0.010114
N3_4 N 0.4144(3) 0.8011(3) 0.0445(2)
C6_4 C 0.4669(3) 0.9027(5) 0.2368(3)
H3_4 H 0.417743 0.895256 0.233813
C7_4 C 0.5115(3) 0.8997(4) 0.3018(3)
H4_4 H 0.492620 0.889610 0.341491
C13_4 C 0.3502(3) 0.6666(4) 0.0289(3)
H7_4 H 0.311136 0.633924 0.035804
C14_4 C 0.6096(4) 0.9248(5) 0.2474(3)
H8_4 H 0.658437 0.933498 0.249281
C15_4 C 0.3580(3) 0.7502(4) 0.0531(3)
H9_4 H 0.323667 0.772804 0.075942
H11_4 H 0.265351 0.945176 0.086399
C18_4 C 0.5615(4) 0.9253(5) 0.1833(3)
H12_4 H 0.579423 0.932313 0.142684
C22_4 C 0.1132(3) 0.5435(4) 0.0391(3)
C23_4 C 0.0405(3) 0.6804(4) 0.0104(3)
H14_4 H 0.004166 0.657370 0.030380
C28_4 C 0.1002(3) 0.6312(4) 0.0053(3)
O11_4 O 0.0696(3) 0.5165(3) 0.0739(3)
C4_4 C 0.3868(3) 0.5435(4) 0.9609(3)
C5_4 C 0.4595(3) 0.6804(4) 0.9896(3)
H2_4 H 0.495834 0.657370 0.969620
C10_4 C 0.3998(3) 0.6312(4) 0.9947(3)
O5_4 O 0.4304(3) 0.5165(3) 0.9261(3)
N5_4 N 0.0094(3) 0.9159(3) 0.8222(3)
C21_4 C 0.0357(3) 0.7641(4) 0.9855(3)
N6_4 N 0.0856(3) 0.8011(3) 0.9555(2)
C24_4 C 0.0331(3) 0.9027(5) 0.7632(3)
H15_4 H 0.082257 0.895256 0.766187
H16_4 H 0.007380 0.889610 0.658509
C31_4 C 0.1498(3) 0.6666(4) 0.9711(3)
H19_4 H 0.188864 0.633924 0.964196
C33_4 C 0.1420(3) 0.7502(4) 0.9469(3)
H21_4 H 0.176333 0.772804 0.924058
H23_4 H 0.234649 0.945176 0.913601
C19_4 C 0.8634(3) 0.9129(4) 0.6220(3)
C20_4 C 0.9150(3) 0.9117(4) 0.6923(3)
H13_4 H 0.995552 0.796407 0.989886
C25_4 C 0.9885(3) 0.8997(4) 0.6982(3)
C32_4 C 0.8904(4) 0.9248(5) 0.7526(3)
H20_4 H 0.841563 0.933498 0.750719
C36_4 C 0.9385(4) 0.9253(5) 0.8167(3)
H24_4 H 0.920577 0.932313 0.857316
N7 N 0.1065(3) 0.3730(3) 0.1534(3)
H25 H 0.117560 0.328039 0.129315
H26 H 0.095108 0.416598 0.123652
C37 C 0.0429(4) 0.3508(6) 0.1830(5)
H27 H 0.002625 0.339236 0.145598
H28 H 0.031616 0.398162 0.210474
H29 H 0.053372 0.300687 0.212088
C38 C 0.1693(5) 0.3966(6) 0.2060(5)
H30 H 0.207737 0.413027 0.183409
H31 H 0.184274 0.348330 0.236231
H32 H 0.157543 0.444040 0.233124
N7_2 N 0.3935(3) 0.3730(3) 0.8466(3)
H25_2 H 0.382440 0.328039 0.870685
H26_2 H 0.404892 0.416598 0.876348
C37_2 C 0.4571(4) 0.3508(6) 0.8170(5)
H27_2 H 0.497375 0.339236 0.854402
H28_2 H 0.468384 0.398162 0.789526
H29_2 H 0.446628 0.300687 0.787912
C38_2 C 0.3307(5) 0.3966(6) 0.7940(5)
H30_2 H 0.292263 0.413027 0.816591
H31_2 H 0.315726 0.348330 0.763769
H32_2 H 0.342457 0.444040 0.766876
N7_3 N 0.6065(3) 0.8730(3) 0.6534(3)
H25_3 H 0.617560 0.828039 0.629315
H26_3 H 0.595108 0.916598 0.623652
C37_3 C 0.5429(4) 0.8508(6) 0.6830(5)
H27_3 H 0.502625 0.839236 0.645598
H28_3 H 0.531616 0.898162 0.710474
H29_3 H 0.553372 0.800687 0.712088
C38_3 C 0.6693(5) 0.8966(6) 0.7060(5)
H30_3 H 0.707737 0.913027 0.683409
H31_3 H 0.684274 0.848330 0.736231
H32_3 H 0.657543 0.944040 0.733124
N7_4 N 0.8935(3) 0.8730(3) 0.3466(3)
H25_4 H 0.882440 0.828039 0.370685
H26_4 H 0.904892 0.916598 0.376348
C37_4 C 0.9571(4) 0.8508(6) 0.3170(5)
H27_4 H 0.997375 0.839236 0.354402
H28_4 H 0.968384 0.898162 0.289526
H29_4 H 0.946628 0.800687 0.287912
C38_4 C 0.8307(5) 0.8966(6) 0.2940(5)
H30_4 H 0.792263 0.913027 0.316591
H31_4 H 0.815726 0.848330 0.263769
H32_4 H 0.842457 0.944040 0.266876
N7_5 N 0.8935(3) 0.6270(3) 0.8466(3)
H25_5 H 0.882440 0.671961 0.870685
H26_5 H 0.904892 0.583402 0.876348
C37_5 C 0.9571(4) 0.6492(6) 0.8170(5)
H27_5 H 0.997375 0.660764 0.854402
H28_5 H 0.968384 0.601838 0.789526
H29_5 H 0.946628 0.699313 0.787912
C38_5 C 0.8307(5) 0.6034(6) 0.7940(5)
H30_5 H 0.792263 0.586973 0.816591
H31_5 H 0.815726 0.651670 0.763769
H32_5 H 0.842457 0.555960 0.766876
N7_6 N 0.6065(3) 0.6270(3) 0.1534(3)
H25_6 H 0.617560 0.671961 0.129315
H26_6 H 0.595108 0.583402 0.123652
C37_6 C 0.5429(4) 0.6492(6) 0.1830(5)
H27_6 H 0.502625 0.660764 0.145598
H28_6 H 0.531616 0.601838 0.210474
H29_6 H 0.553372 0.699313 0.212088
C38_6 C 0.6693(5) 0.6034(6) 0.2060(5)
H30_6 H 0.707737 0.586973 0.183409
H31_6 H 0.684274 0.651670 0.236231
H32_6 H 0.657543 0.555960 0.233124
N7_7 N 0.3935(3) 0.1270(3) 0.3466(3)
H25_7 H 0.382440 0.171961 0.370685
H26_7 H 0.404892 0.083402 0.376348
C37_7 C 0.4571(4) 0.1492(6) 0.3170(5)
H27_7 H 0.497375 0.160764 0.354402
H28_7 H 0.468384 0.101838 0.289526
H29_7 H 0.446628 0.199313 0.287912
C38_7 C 0.3307(5) 0.1034(6) 0.2940(5)
H30_7 H 0.292263 0.086973 0.316591
H31_7 H 0.315726 0.151670 0.263769
H32_7 H 0.342457 0.055960 0.266876
N7_8 N 0.1065(3) 0.1270(3) 0.6534(3)
H25_8 H 0.117560 0.171961 0.629315
H26_8 H 0.095108 0.083402 0.623652
C37_8 C 0.0429(4) 0.1492(6) 0.6830(5)
H27_8 H 0.002625 0.160764 0.645598
H28_8 H 0.031616 0.101838 0.710474
H29_8 H 0.053372 0.199313 0.712088
C38_8 C 0.1693(5) 0.1034(6) 0.7060(5)
H30_8 H 0.207737 0.086973 0.683409
H31_8 H 0.184274 0.151670 0.736231
H32_8 H 0.157543 0.055960 0.733124
loop_
_geom_bond_atom_site_label_1
_geom_bond_atom_site_label_2
_geom_bond_site_symmetry_1
_geom_bond_site_symmetry_2
Eu2 O1 1_555 1_555
Cu1 Br1 1_555 1_555
N1 Cu1 1_555 1_555
N2 Cu1 1_555 1_555
O1 C8 1_555 1_555
C4 O4 1_555 1_555
N3 Cu1 1_555 1_555
C5 C3 1_555 1_555
H2 C5 1_555 1_555
C6 N2 1_555 1_555
H3 C6 1_555 1_555
C8 C9 1_555 1_555
C9 C12 1_555 1_555
C10 C4 1_555 1_555
O5 C4 1_555 1_555
C11 N1 1_555 1_555
H5 C11 1_555 1_555
C12 C11 1_555 1_555
H6 C12 1_555 1_555
C13 C10 1_555 1_555
H7 C13 1_555 1_555
C15 N3 1_555 1_555
H9 C15 1_555 1_555
C16 C9 1_555 1_555
H10 C16 1_555 1_555
C17 N1 1_555 1_555
H11 C17 1_555 1_555
O6 C8 1_555 1_555
Cu2 N4 1_555 1_555
N4 C29 1_555 1_555
N5 Cu2 1_555 1_555
O7 Eu2 1_555 1_555
C19 O8 1_555 1_555
O8 Eu4_2 1_555 1_555
O9 C19 1_555 1_555
C20 C19 1_555 1_555
C21 H13 1_555 1_555
C22 O10 1_555 1_555
N6 Cu2 1_555 1_555
C23 C21 1_555 1_555
H14 C23 1_555 1_555
C24 N5 1_555 1_555
H15 C24 1_555 1_555
C25 C20 1_555 1_555
H16 C25 1_555 1_555
C26 O7 1_555 1_555
C27 C26 1_555 1_555
C28 C22 1_555 1_555
O11 C22 1_555 1_555
C29 H17 1_555 1_555
C30 C27 1_555 1_555
H18 C30 1_555 1_555
C31 C28 1_555 1_555
H19 C31 1_555 1_555
C32 C20 1_555 1_555
H20 C32 1_555 1_555
C33 N6 1_555 1_555
H21 C33 1_555 1_555
C34 C27 1_555 1_555
H22 C34 1_555 1_555
C35 N4 1_555 1_555
H23 C35 1_555 1_555
C36 N5 1_555 1_555
H24 C36 1_555 1_555
O12 C26 1_555 1_555
Eu4_2 O9 1_555 1_555
Br2 Cu2 1_555 1_555
O13 Eu2 1_555 1_555
O14 Eu2 1_555 1_555
O15 Eu2 1_555 1_555
O16 Eu2 1_555 1_555
C3 N3 1_555 1_555
C5 C10 1_555 1_555
C13 C15 1_555 1_555
C16 C17 1_555 1_555
C21 N6 1_555 1_555
C23 C28 1_555 1_555
C24 C25 1_555 1_555
C29 C30 1_555 1_555
C31 C33 1_555 1_555
C32 C36 1_555 1_555
C34 C35 1_555 1_555
Br1_2 Cu3 1_555 1_555
C1 O2 1_555 1_555
O2 Eu4 1_555 1_555
O3 C1 1_555 1_555
C2 C1 1_555 1_555
C7 C2 1_555 1_555
C14 C2 1_555 1_555
H8 C14 1_555 1_555
H12 C18 1_555 1_555
Eu4 O3 1_555 1_555
C14 C18 1_555 1_555
Br2 Cu3_2 1_555 1_555
C19_2 O14 1_555 1_555
O16 C19_2 1_555 1_555
C20_2 C19_2 1_555 1_555
C25_2 C20_2 1_555 1_555
C32_2 C20_2 1_555 1_555
H20_2 C32_2 1_555 1_555
H24_2 C36_2 1_555 1_555
C32_2 C36_2 1_555 1_555
C4_2 O4_2 1_555 1_555
H2_2 C5_2 1_555 1_555
O4_2 Eu4 1_555 1_555
C10_2 C4_2 1_555 1_555
O5_2 C4_2 1_555 1_555
N5_2 Cu2_2 1_555 1_555
N6_2 Cu2_2 1_555 1_555
C24_2 N5_2 1_555 1_555
H15_2 C24_2 1_555 1_555
H19_2 C31_2 1_555 1_555
C33_2 N6_2 1_555 1_555
H21_2 C33_2 1_555 1_555
Br2_6 Cu2_2 1_555 1_555
C5_2 C10_2 1_555 1_555
C21_2 N6_2 1_555 1_555
C31_2 C33_2 1_555 1_555
Cu1_2 Br1_4 1_555 1_555
N2_2 Cu1_2 1_555 1_555
C1_2 O13 1_555 1_555
O15 C1_2 1_555 1_555
C2_2 C1_2 1_555 1_555
C3_2 H1_2 1_555 1_555
N3_2 Cu1_2 1_555 1_555
C6_2 N2_2 1_555 1_555
H3_2 C6_2 1_555 1_555
C7_2 C2_2 1_555 1_555
H4_2 C7_2 1_555 1_555
H7_2 C13_2 1_555 1_555
C14_2 C2_2 1_555 1_555
H8_2 C14_2 1_555 1_555
C15_2 N3_2 1_555 1_555
H9_2 C15_2 1_555 1_555
C18_2 N2_2 1_555 1_555
H12_2 C18_2 1_555 1_555
C22_2 O10_2 1_555 1_555
H14_2 C23_2 1_555 1_555
O10_2 Eu4_2 1_555 1_555
C28_2 C22_2 1_555 1_555
O11_2 C22_2 1_555 1_555
C3_2 N3_2 1_555 1_555
C6_2 C7_2 1_555 1_555
C13_2 C15_2 1_555 1_555
C14_2 C18_2 1_555 1_555
C23_2 C28_2 1_555 1_555
Br1_5 Cu3_3 1_555 1_555
N4_2 C29_2 1_555 1_555
O7_2 Eu4 1_555 1_555
C26_2 O7_2 1_555 1_555
C27_2 C26_2 1_555 1_555
C29_2 H17_2 1_555 1_555
C30_2 C27_2 1_555 1_555
H18_2 C30_2 1_555 1_555
C34_2 C27_2 1_555 1_555
H22_2 C34_2 1_555 1_555
C35_2 N4_2 1_555 1_555
O12_2 C26_2 1_555 1_555
C29_2 C30_2 1_555 1_555
C34_2 C35_2 1_555 1_555
Eu4_2 O1_2 1_555 1_555
O1_2 C8_2 1_555 1_555
C8_2 C9_2 1_555 1_555
C9_2 C12_2 1_555 1_555
C11_2 N1_2 1_555 1_555
H5_2 C11_2 1_555 1_555
C12_2 C11_2 1_555 1_555
H6_2 C12_2 1_555 1_555
C16_2 C9_2 1_555 1_555
H10_2 C16_2 1_555 1_555
C17_2 N1_2 1_555 1_555
O6_2 C8_2 1_555 1_555
C16_2 C17_2 1_555 1_555
Br2_5 Cu3_4 1_555 1_555
C1_3 O2_2 1_555 1_555
O2_2 Eu3_2 1_555 1_555
O3_2 C1_3 1_555 1_555
C2_3 C1_3 1_555 1_555
C7_3 C2_3 1_555 1_555
C14_3 C2_3 1_555 1_555
H8_3 C14_3 1_555 1_555
H12_3 C18_3 1_555 1_555
Eu3_2 O3_2 1_555 1_555
C14_3 C18_3 1_555 1_555
Eu1 O1_3 1_555 1_555
N1_3 Cu3 1_555 1_555
N2_3 Cu3 1_555 1_555
O1_3 C8_3 1_555 1_555
C4_3 O17 1_555 1_555
N3_3 Cu3 1_555 1_555
C5_3 C3_3 1_555 1_555
H2_3 C5_3 1_555 1_555
C6_3 N2_3 1_555 1_555
H3_3 C6_3 1_555 1_555
C8_3 C9_3 1_555 1_555
C9_3 C12_3 1_555 1_555
C10_3 C4_3 1_555 1_555
O5_3 C4_3 1_555 1_555
C11_3 N1_3 1_555 1_555
H5_3 C11_3 1_555 1_555
C12_3 C11_3 1_555 1_555
H6_3 C12_3 1_555 1_555
C13_3 C10_3 1_555 1_555
H7_3 C13_3 1_555 1_555
C15_3 N3_3 1_555 1_555
H9_3 C15_3 1_555 1_555
C16_3 C9_3 1_555 1_555
H10_3 C16_3 1_555 1_555
C17_3 N1_3 1_555 1_555
H11_3 C17_3 1_555 1_555
O6_3 C8_3 1_555 1_555
Cu3_2 N4_3 1_555 1_555
N4_3 C29_3 1_555 1_555
N5_3 Cu3_2 1_555 1_555
O7_3 Eu1 1_555 1_555
C19_3 O8_2 1_555 1_555
O8_2 Eu3 1_555 1_555
O9_2 C19_3 1_555 1_555
C20_3 C19_3 1_555 1_555
C21_3 H13_3 1_555 1_555
C22_3 O18 1_555 1_555
N6_3 Cu3_2 1_555 1_555
C23_3 C21_3 1_555 1_555
H14_3 C23_3 1_555 1_555
C24_3 N5_3 1_555 1_555
H15_3 C24_3 1_555 1_555
C25_3 C20_3 1_555 1_555
H16_3 C25_3 1_555 1_555
C26_3 O7_3 1_555 1_555
C27_3 C26_3 1_555 1_555
C28_3 C22_3 1_555 1_555
O11_3 C22_3 1_555 1_555
C29_3 H17_3 1_555 1_555
C30_3 C27_3 1_555 1_555
H18_3 C30_3 1_555 1_555
C31_3 C28_3 1_555 1_555
H19_3 C31_3 1_555 1_555
C32_3 C20_3 1_555 1_555
H20_3 C32_3 1_555 1_555
C33_3 N6_3 1_555 1_555
H21_3 C33_3 1_555 1_555
C34_3 C27_3 1_555 1_555
H22_3 C34_3 1_555 1_555
C35_3 N4_3 1_555 1_555
H23_3 C35_3 1_555 1_555
C36_3 N5_3 1_555 1_555
H24_3 C36_3 1_555 1_555
O12_3 C26_3 1_555 1_555
Eu3 O9_2 1_555 1_555
O13_2 Eu1 1_555 1_555
O14_2 Eu1 1_555 1_555
O15_2 Eu1 1_555 1_555
O16_2 Eu1 1_555 1_555
C3_3 N3_3 1_555 1_555
C5_3 C10_3 1_555 1_555
C13_3 C15_3 1_555 1_555
C16_3 C17_3 1_555 1_555
C21_3 N6_3 1_555 1_555
C23_3 C28_3 1_555 1_555
C24_3 C25_3 1_555 1_555
C29_3 C30_3 1_555 1_555
C31_3 C33_3 1_555 1_555
C32_3 C36_3 1_555 1_555
C34_3 C35_3 1_555 1_555
Eu3 O1_4 1_555 1_555
O1_4 C8_4 1_555 1_555
C8_4 C9_4 1_555 1_555
C9_4 C12_4 1_555 1_555
C11_4 N1_4 1_555 1_555
H5_4 C11_4 1_555 1_555
C12_4 C11_4 1_555 1_555
H6_4 C12_4 1_555 1_555
C16_4 C9_4 1_555 1_555
H10_4 C16_4 1_555 1_555
C17_4 N1_4 1_555 1_555
O6_4 C8_4 1_555 1_555
O18_2 Eu3 1_555 1_555
C16_4 C17_4 1_555 1_555
N4_4 C29_4 1_555 1_555
O7_4 Eu3_2 1_555 1_555
C26_4 O7_4 1_555 1_555
C27_4 C26_4 1_555 1_555
C29_4 H17_4 1_555 1_555
C30_4 C27_4 1_555 1_555
H18_4 C30_4 1_555 1_555
C34_4 C27_4 1_555 1_555
H22_4 C34_4 1_555 1_555
C35_4 N4_4 1_555 1_555
O12_4 C26_4 1_555 1_555
O17_2 Eu3_2 1_555 1_555
C29_4 C30_4 1_555 1_555
C34_4 C35_4 1_555 1_555
N2_4 Cu3_3 1_555 1_555
C1_4 O13_2 1_555 1_555
O15_2 C1_4 1_555 1_555
C2_4 C1_4 1_555 1_555
C3_4 H1_4 1_555 1_555
N3_4 Cu3_3 1_555 1_555
C6_4 N2_4 1_555 1_555
H3_4 C6_4 1_555 1_555
C7_4 C2_4 1_555 1_555
H4_4 C7_4 1_555 1_555
H7_4 C13_4 1_555 1_555
C14_4 C2_4 1_555 1_555
H8_4 C14_4 1_555 1_555
C15_4 N3_4 1_555 1_555
H9_4 C15_4 1_555 1_555
C18_4 N2_4 1_555 1_555
H12_4 C18_4 1_555 1_555
C22_4 O18_2 1_555 1_555
H14_4 C23_4 1_555 1_555
C28_4 C22_4 1_555 1_555
O11_4 C22_4 1_555 1_555
C3_4 N3_4 1_555 1_555
C6_4 C7_4 1_555 1_555
C13_4 C15_4 1_555 1_555
C14_4 C18_4 1_555 1_555
C23_4 C28_4 1_555 1_555
C4_4 O17_2 1_555 1_555
H2_4 C5_4 1_555 1_555
C10_4 C4_4 1_555 1_555
O5_4 C4_4 1_555 1_555
N5_4 Cu3_4 1_555 1_555
N6_4 Cu3_4 1_555 1_555
C24_4 N5_4 1_555 1_555
H15_4 C24_4 1_555 1_555
H19_4 C31_4 1_555 1_555
C33_4 N6_4 1_555 1_555
H21_4 C33_4 1_555 1_555
C5_4 C10_4 1_555 1_555
C21_4 N6_4 1_555 1_555
C31_4 C33_4 1_555 1_555
C19_4 O14_2 1_555 1_555
O16_2 C19_4 1_555 1_555
C20_4 C19_4 1_555 1_555
C25_4 C20_4 1_555 1_555
C32_4 C20_4 1_555 1_555
H20_4 C32_4 1_555 1_555
H24_4 C36_4 1_555 1_555
C32_4 C36_4 1_555 1_555
N7 H25 1_555 1_555
H26 N7 1_555 1_555
C37 N7 1_555 1_555
H27 C37 1_555 1_555
H28 C37 1_555 1_555
H29 C37 1_555 1_555
C38 N7 1_555 1_555
H30 C38 1_555 1_555
H31 C38 1_555 1_555
H32 C38 1_555 1_555
N7_2 H25_2 1_555 1_555
H26_2 N7_2 1_555 1_555
C37_2 N7_2 1_555 1_555
H27_2 C37_2 1_555 1_555
H28_2 C37_2 1_555 1_555
H29_2 C37_2 1_555 1_555
C38_2 N7_2 1_555 1_555
H30_2 C38_2 1_555 1_555
H31_2 C38_2 1_555 1_555
H32_2 C38_2 1_555 1_555
N7_3 H25_3 1_555 1_555
H26_3 N7_3 1_555 1_555
C37_3 N7_3 1_555 1_555
H27_3 C37_3 1_555 1_555
H28_3 C37_3 1_555 1_555
H29_3 C37_3 1_555 1_555
C38_3 N7_3 1_555 1_555
H30_3 C38_3 1_555 1_555
H31_3 C38_3 1_555 1_555
H32_3 C38_3 1_555 1_555
N7_4 H25_4 1_555 1_555
H26_4 N7_4 1_555 1_555
C37_4 N7_4 1_555 1_555
H27_4 C37_4 1_555 1_555
H28_4 C37_4 1_555 1_555
H29_4 C37_4 1_555 1_555
C38_4 N7_4 1_555 1_555
H30_4 C38_4 1_555 1_555
H31_4 C38_4 1_555 1_555
H32_4 C38_4 1_555 1_555
N7_5 H25_5 1_555 1_555
H26_5 N7_5 1_555 1_555
C37_5 N7_5 1_555 1_555
H27_5 C37_5 1_555 1_555
H28_5 C37_5 1_555 1_555
H29_5 C37_5 1_555 1_555
C38_5 N7_5 1_555 1_555
H30_5 C38_5 1_555 1_555
H31_5 C38_5 1_555 1_555
H32_5 C38_5 1_555 1_555
N7_6 H25_6 1_555 1_555
H26_6 N7_6 1_555 1_555
C37_6 N7_6 1_555 1_555
H27_6 C37_6 1_555 1_555
H28_6 C37_6 1_555 1_555
H29_6 C37_6 1_555 1_555
C38_6 N7_6 1_555 1_555
H30_6 C38_6 1_555 1_555
H31_6 C38_6 1_555 1_555
H32_6 C38_6 1_555 1_555
N7_7 H25_7 1_555 1_555
H26_7 N7_7 1_555 1_555
C37_7 N7_7 1_555 1_555
H27_7 C37_7 1_555 1_555
H28_7 C37_7 1_555 1_555
H29_7 C37_7 1_555 1_555
C38_7 N7_7 1_555 1_555
H30_7 C38_7 1_555 1_555
H31_7 C38_7 1_555 1_555
H32_7 C38_7 1_555 1_555
N7_8 H25_8 1_555 1_555
H26_8 N7_8 1_555 1_555
C37_8 N7_8 1_555 1_555
H27_8 C37_8 1_555 1_555
H28_8 C37_8 1_555 1_555
H29_8 C37_8 1_555 1_555
C38_8 N7_8 1_555 1_555
H30_8 C38_8 1_555 1_555
H31_8 C38_8 1_555 1_555
H32_8 C38_8 1_555 1_555

#END
