
###############################################################################
#
# This file contains modified crystal structure data generated from the
# MOF subset of the Cambridge Structural Database (CSD) v543 
# hosted by the Cambridge Crystallographic Data Centre (CCDC).
#
# This work is licensed under the Creative Commons
# Attribution-NonCommercial-ShareAlike 4.0 International License.
# To view a copy of this license, visit
# http://creativecommons.org/licenses/by-nc-sa/4.0/
# or send a letter to
# Creative Commons, PO Box 1866, Mountain View, CA 94042, USA.
#
# CIF created using the CSD Python API on 29 September 2022
# The structure has been converted into the P1 space group
# The structure has a 3D framework
# The original CSD entry OFONAB is in the monoclinic crystal system
# The framework has been calculated to contain at least 10.0% void space
# The void calculation uses a probe of radius 1.32A, grid spacing 0.4
# The framework is charged, counterions have been retained in the structure
#
###############################################################################

data_OFONAB
_chemical_formula_moiety         '(C160 H160 Br10 Cu8 N32 O48 Sm6 6-)n'
_symmetry_cell_setting           triclinic
_symmetry_space_group_name_H-M   'P 1'
_symmetry_Int_Tables_number      1
_space_group_name_Hall           'P 1'
loop_
_symmetry_equiv_pos_site_id
_symmetry_equiv_pos_as_xyz
1 x,y,z
_cell_length_a                   18.971(3)
_cell_length_b                   15.5933(16)
_cell_length_c                   19.549(3)
_cell_angle_alpha                90
_cell_angle_beta                 101.681(13)
_cell_angle_gamma                90
_cell_volume                     5663.23
loop_
_atom_site_label
_atom_site_type_symbol
_atom_site_fract_x
_atom_site_fract_y
_atom_site_fract_z
Br1 Br 0.000000 0.000000 0.000000
O3 O 0.1225(3) 0.1311(4) 0.4266(3)
O6 O 0.1927(4) 0.0414(4) 0.3823(3)
C1 C 0.0116(5) 0.1009(6) 0.3009(5)
C5 C 0.0611(7) 0.0747(7) 0.1840(5)
H4 H 0.079261 0.067295 0.143658
C6 C 0.1374(5) 0.0872(5) 0.3776(4)
H7 H 0.003906 0.203266 0.009620
C16 C 0.1087(5) 0.0749(7) 0.2473(5)
H11 H 0.157446 0.065757 0.249140
C17 C 0.0839(5) 0.0887(5) 0.3078(4)
Sm4 Sm 0.250000 0.09227(4) 0.500000
Br1_2 Br 0.000000 0.000000 1.000000
Br1_3 Br 0.000000 1.000000 0.000000
Br1_4 Br -0.000000 1.000000 1.000000
Cu3 Cu 0.07696(7) 0.92210(7) 0.92041(6)
Br1_5 Br 1.000000 0.000000 0.000000
Cu1 Cu 0.92304(7) 0.07790(7) 0.07959(6)
N2 N 0.9894(4) 0.0847(4) 0.1775(3)
N3 N 0.9141(4) 0.1990(4) 0.0440(4)
H1 H 0.992531 0.111247 0.340408
C2 C 0.8504(5) 0.3338(6) 0.0284(5)
H2 H 0.811361 0.366241 0.035550
C3 C 0.8589(6) 0.2497(6) 0.0524(5)
H3 H 0.824642 0.227272 0.075429
C11 C 0.9638(5) 0.2354(5) 0.0139(4)
C12 C 0.9662(5) 0.0981(6) 0.2356(5)
H8 H 0.917160 0.105965 0.232867
H9 H 0.764864 0.054041 0.086290
O8 O 0.6695(4) 0.4956(4) 0.0329(3)
O10 O 0.5695(4) 0.4835(4) 0.0743(3)
C25 C 0.6125(6) 0.4571(5) 0.0397(5)
C32 C 0.5415(5) 0.3191(5) 0.0114(4)
H22 H 0.505405 0.341391 0.032124
C33 C 0.5998(5) 0.3689(5) 0.0060(4)
Sm2 Sm 0.750000 0.59227(4) 0.000000
Br2 Br 0.500000 0.000000 0.000000
Br1_6 Br 1.000000 0.000000 1.000000
O2 O 0.8305(4) 0.4956(4) 0.9671(3)
O4 O 0.9305(4) 0.4835(4) 0.9257(3)
C7 C 0.8875(6) 0.4571(5) 0.9603(5)
C14 C 0.9585(5) 0.3191(5) 0.9886(4)
H10 H 0.994595 0.341391 0.967876
C15 C 0.9002(5) 0.3689(5) 0.9940(4)
Cu2 Cu 0.57696(7) 0.07790(7) 0.92041(6)
O9 O 0.3775(3) 0.1311(4) 0.5734(3)
O12 O 0.3073(4) 0.0414(4) 0.6177(3)
N5 N 0.5106(4) 0.0847(4) 0.8225(3)
N6 N 0.5859(4) 0.1990(4) 0.9560(4)
C19 C 0.4884(5) 0.1009(6) 0.6991(5)
H13 H 0.507469 0.111247 0.659592
C20 C 0.6496(5) 0.3338(6) 0.9716(5)
H14 H 0.688639 0.366241 0.964450
C21 C 0.6411(6) 0.2497(6) 0.9476(5)
H15 H 0.675358 0.227272 0.924571
C23 C 0.4389(7) 0.0747(7) 0.8160(5)
H16 H 0.420739 0.067295 0.856342
C24 C 0.3626(5) 0.0872(5) 0.6224(4)
C29 C 0.5362(5) 0.2354(5) 0.9861(4)
H19 H 0.496094 0.203266 0.990380
C30 C 0.5338(5) 0.0981(6) 0.7644(5)
H20 H 0.582840 0.105965 0.767133
H21 H 0.735136 0.054041 0.913710
C34 C 0.3913(5) 0.0749(7) 0.7527(5)
H23 H 0.342554 0.065757 0.750860
C35 C 0.4161(5) 0.0887(5) 0.6922(4)
Sm2_2 Sm 0.750000 0.59227(4) 1.000000
Br2_2 Br 0.500000 0.000000 1.000000
Br1_7 Br 1.000000 1.000000 0.000000
O1 O 0.7205(3) 0.7015(3) 0.0705(3)
O5 O 0.6483(4) 0.7881(4) 0.1133(4)
N1 N 0.8501(4) 0.9846(4) 0.0848(4)
C4 C 0.7029(6) 0.7738(6) 0.0904(5)
C8 C 0.7333(5) 0.9320(5) 0.0899(5)
H5 H 0.685745 0.944170 0.092018
C9 C 0.8732(5) 0.9020(5) 0.0857(5)
H6 H 0.921182 0.891745 0.084483
C10 C 0.7566(5) 0.8472(5) 0.0899(4)
C13 C 0.7814(5) 0.9978(6) 0.0869(5)
C18 C 0.8289(5) 0.8333(6) 0.0882(5)
H12 H 0.846887 0.777792 0.088848
Br2_3 Br 0.500000 1.000000 0.000000
O16 O 0.8775(3) 0.6311(4) 0.0734(3)
O18 O 0.8073(4) 0.5414(4) 0.1177(3)
Br1_8 Br 1.000000 1.000000 1.000000
O7 O 0.7795(3) 0.7015(3) 0.9295(3)
O11 O 0.8517(4) 0.7881(4) 0.8867(4)
N4 N 0.6499(4) 0.9846(4) 0.9152(4)
C22 C 0.7971(6) 0.7738(6) 0.9096(5)
C26 C 0.7667(5) 0.9320(5) 0.9101(5)
H17 H 0.814255 0.944170 0.907982
C27 C 0.6268(5) 0.9020(5) 0.9143(5)
H18 H 0.578818 0.891745 0.915517
C28 C 0.7434(5) 0.8472(5) 0.9101(4)
C31 C 0.7186(5) 0.9978(6) 0.9131(5)
C36 C 0.6711(5) 0.8333(6) 0.9118(5)
H24 H 0.653113 0.777792 0.911152
Br2_4 Br 0.500000 1.000000 1.000000
O15 O 0.6225(3) 0.6311(4) 0.9266(3)
O17 O 0.6927(4) 0.5414(4) 0.8823(3)
Cu3_2 Cu 0.42304(7) 0.92210(7) 0.07959(6)
Br1_9 Br 0.500000 0.500000 0.500000
Cu1_2 Cu 0.42304(7) 0.57790(7) 0.57959(6)
O1_2 O 0.2205(3) 0.2015(3) 0.5705(3)
O2_2 O 0.3305(4) 0.9956(4) 0.4671(3)
O4_2 O 0.4305(4) 0.9835(4) 0.4257(3)
O5_2 O 0.1483(4) 0.2881(4) 0.6133(4)
N1_2 N 0.3501(4) 0.4846(4) 0.5848(4)
N2_2 N 0.4894(4) 0.5847(4) 0.6775(3)
N3_2 N 0.4141(4) 0.6990(4) 0.5440(4)
C1_2 C 0.5116(5) 0.6009(6) 0.8009(5)
H1_2 H 0.492531 0.611247 0.840408
C2_2 C 0.3504(5) 0.8338(6) 0.5284(5)
H2_2 H 0.311361 0.866241 0.535550
C3_2 C 0.3589(6) 0.7497(6) 0.5524(5)
H3_2 H 0.324642 0.727272 0.575429
C4_2 C 0.2029(6) 0.2738(6) 0.5904(5)
C5_2 C 0.5611(7) 0.5747(7) 0.6840(5)
H4_2 H 0.579261 0.567295 0.643658
C6_2 C 0.6374(5) 0.5872(5) 0.8776(4)
C7_2 C 0.3875(6) 0.9571(5) 0.4603(5)
C8_2 C 0.2333(5) 0.4320(5) 0.5899(5)
H5_2 H 0.185745 0.444170 0.592018
C9_2 C 0.3732(5) 0.4020(5) 0.5857(5)
H6_2 H 0.421182 0.391745 0.584483
C10_2 C 0.2566(5) 0.3472(5) 0.5899(4)
C11_2 C 0.4638(5) 0.7354(5) 0.5139(4)
H7_2 H 0.503906 0.703266 0.509620
C12_2 C 0.4662(5) 0.5981(6) 0.7356(5)
H8_2 H 0.417160 0.605965 0.732867
C13_2 C 0.2814(5) 0.4978(6) 0.5869(5)
H9_2 H 0.264864 0.554041 0.586290
C14_2 C 0.4585(5) 0.8191(5) 0.4886(4)
H10_2 H 0.494595 0.841391 0.467876
C15_2 C 0.4002(5) 0.8689(5) 0.4940(4)
C16_2 C 0.6087(5) 0.5749(7) 0.7473(5)
H11_2 H 0.657446 0.565757 0.749140
C17_2 C 0.5839(5) 0.5887(5) 0.8078(4)
C18_2 C 0.3289(5) 0.3333(6) 0.5882(5)
H12_2 H 0.346887 0.277792 0.588848
Cu2_2 Cu 0.07696(7) 0.57790(7) 0.42041(6)
O7_2 O 0.2795(3) 0.2015(3) 0.4295(3)
O8_2 O 0.1695(4) 0.9956(4) 0.5329(3)
O10_2 O 0.0695(4) 0.9835(4) 0.5743(3)
O11_2 O 0.3517(4) 0.2881(4) 0.3867(4)
N4_2 N 0.1499(4) 0.4846(4) 0.4152(4)
N5_2 N 0.0106(4) 0.5847(4) 0.3225(3)
N6_2 N 0.0859(4) 0.6990(4) 0.4560(4)
H13_2 H 0.007469 0.611247 0.159592
C20_2 C 0.1496(5) 0.8338(6) 0.4716(5)
H14_2 H 0.188639 0.866241 0.464450
C21_2 C 0.1411(6) 0.7497(6) 0.4476(5)
H15_2 H 0.175358 0.727272 0.424571
C22_2 C 0.2971(6) 0.2738(6) 0.4096(5)
C25_2 C 0.1125(6) 0.9571(5) 0.5397(5)
C26_2 C 0.2667(5) 0.4320(5) 0.4101(5)
H17_2 H 0.314255 0.444170 0.407982
C27_2 C 0.1268(5) 0.4020(5) 0.4143(5)
H18_2 H 0.078818 0.391745 0.415517
C28_2 C 0.2434(5) 0.3472(5) 0.4101(4)
C29_2 C 0.0362(5) 0.7354(5) 0.4861(4)
C30_2 C 0.0338(5) 0.5981(6) 0.2644(5)
H20_2 H 0.082840 0.605965 0.267133
C31_2 C 0.2186(5) 0.4978(6) 0.4131(5)
H21_2 H 0.235136 0.554041 0.413710
C32_2 C 0.0415(5) 0.8191(5) 0.5114(4)
H22_2 H 0.005405 0.841391 0.532124
C33_2 C 0.0998(5) 0.8689(5) 0.5060(4)
C36_2 C 0.1711(5) 0.3333(6) 0.4118(5)
H24_2 H 0.153113 0.277792 0.411152
Br2_5 Br -0.000000 0.500000 0.500000
Cu3_3 Cu 0.57696(7) 0.42210(7) 0.42041(6)
C19_2 C 0.9884(5) 0.6009(6) 0.1991(5)
C23_2 C 0.9389(7) 0.5747(7) 0.3160(5)
H16_2 H 0.920739 0.567295 0.356342
C24_2 C 0.8626(5) 0.5872(5) 0.1224(4)
H19_2 H 0.996094 0.703266 0.490380
C34_2 C 0.8913(5) 0.5749(7) 0.2527(5)
H23_2 H 0.842554 0.565757 0.250860
C35_2 C 0.9161(5) 0.5887(5) 0.1922(4)
Br2_6 Br 1.000000 0.500000 0.500000
Cu3_4 Cu 0.92304(7) 0.42210(7) 0.57959(6)
Sm1 Sm 0.250000 0.40773(4) 0.000000
O7_3 O 0.2205(3) 0.2985(3) 0.0705(3)
O11_3 O 0.1483(4) 0.2119(4) 0.1133(4)
N4_3 N 0.3501(4) 0.0154(4) 0.0848(4)
C22_3 C 0.2029(6) 0.2262(6) 0.0904(5)
C26_3 C 0.2333(5) 0.0680(5) 0.0899(5)
H17_3 H 0.185745 0.055830 0.092018
C27_3 C 0.3732(5) 0.0980(5) 0.0857(5)
H18_3 H 0.421182 0.108255 0.084483
C28_3 C 0.2566(5) 0.1528(5) 0.0899(4)
C31_3 C 0.2814(5) 0.0022(6) 0.0869(5)
C36_3 C 0.3289(5) 0.1667(6) 0.0882(5)
H24_3 H 0.346887 0.222208 0.088848
O13 O 0.1695(4) 0.5044(4) 0.0329(3)
O15_2 O 0.3775(3) 0.3689(4) 0.0734(3)
O17_2 O 0.3073(4) 0.4586(4) 0.1177(3)
Sm1_2 Sm 0.250000 0.40773(4) 1.000000
O1_3 O 0.2795(3) 0.2985(3) 0.9295(3)
O5_3 O 0.3517(4) 0.2119(4) 0.8867(4)
N1_3 N 0.1499(4) 0.0154(4) 0.9152(4)
C4_3 C 0.2971(6) 0.2262(6) 0.9096(5)
C8_3 C 0.2667(5) 0.0680(5) 0.9101(5)
H5_3 H 0.314255 0.055830 0.907982
C9_3 C 0.1268(5) 0.0980(5) 0.9143(5)
H6_3 H 0.078818 0.108255 0.915517
C10_3 C 0.2434(5) 0.1528(5) 0.9101(4)
C13_3 C 0.2186(5) 0.0022(6) 0.9131(5)
C18_3 C 0.1711(5) 0.1667(6) 0.9118(5)
H12_3 H 0.153113 0.222208 0.911152
O14 O 0.3305(4) 0.5044(4) 0.9671(3)
O16_2 O 0.1225(3) 0.3689(4) 0.9266(3)
O18_2 O 0.1927(4) 0.4586(4) 0.8823(3)
O4_3 O 0.0695(4) 0.5165(4) 0.0743(3)
C7_3 C 0.1125(6) 0.5429(5) 0.0397(5)
C14_3 C 0.0415(5) 0.6809(5) 0.0114(4)
H10_3 H 0.005405 0.658609 0.032124
C15_3 C 0.0998(5) 0.6311(5) 0.0060(4)
O9_2 O 0.6225(3) 0.8689(4) 0.4266(3)
O12_2 O 0.6927(4) 0.9586(4) 0.3823(3)
N5_3 N 0.4894(4) 0.9153(4) 0.1775(3)
N6_3 N 0.4141(4) 0.8010(4) 0.0440(4)
C19_3 C 0.5116(5) 0.8991(6) 0.3009(5)
H13_3 H 0.492531 0.888753 0.340408
C20_3 C 0.3504(5) 0.6662(6) 0.0284(5)
H14_3 H 0.311361 0.633759 0.035550
C21_3 C 0.3589(6) 0.7503(6) 0.0524(5)
H15_3 H 0.324642 0.772728 0.075429
C23_3 C 0.5611(7) 0.9253(7) 0.1840(5)
H16_3 H 0.579261 0.932705 0.143658
C24_3 C 0.6374(5) 0.9128(5) 0.3776(4)
C29_3 C 0.4638(5) 0.7646(5) 0.0139(4)
H19_3 H 0.503906 0.796734 0.009620
C30_3 C 0.4662(5) 0.9019(6) 0.2356(5)
H20_3 H 0.417160 0.894035 0.232867
H21_3 H 0.264864 0.945959 0.086290
C34_3 C 0.6087(5) 0.9251(7) 0.2473(5)
H23_3 H 0.657446 0.934243 0.249140
C35_3 C 0.5839(5) 0.9113(5) 0.3078(4)
Sm3 Sm 0.750000 0.90773(4) 0.500000
N2_3 N 0.0106(4) 0.9153(4) 0.8225(3)
N3_3 N 0.0859(4) 0.8010(4) 0.9560(4)
H1_3 H 0.007469 0.888753 0.659592
C2_3 C 0.1496(5) 0.6662(6) 0.9716(5)
H2_3 H 0.188639 0.633759 0.964450
C3_3 C 0.1411(6) 0.7503(6) 0.9476(5)
H3_3 H 0.175358 0.772728 0.924571
C11_3 C 0.0362(5) 0.7646(5) 0.9861(4)
C12_3 C 0.0338(5) 0.9019(6) 0.7644(5)
H8_3 H 0.082840 0.894035 0.767133
H9_3 H 0.235136 0.945959 0.913710
O10_3 O 0.4305(4) 0.5165(4) 0.9257(3)
C25_3 C 0.3875(6) 0.5429(5) 0.9603(5)
C32_3 C 0.4585(5) 0.6809(5) 0.9886(4)
H22_3 H 0.494595 0.658609 0.967876
C33_3 C 0.4002(5) 0.6311(5) 0.9940(4)
O3_2 O 0.8775(3) 0.8689(4) 0.5734(3)
O6_2 O 0.8073(4) 0.9586(4) 0.6177(3)
C1_3 C 0.9884(5) 0.8991(6) 0.6991(5)
C5_3 C 0.9389(7) 0.9253(7) 0.8160(5)
H4_3 H 0.920739 0.932705 0.856342
C6_3 C 0.8626(5) 0.9128(5) 0.6224(4)
H7_3 H 0.996094 0.796734 0.990380
C16_3 C 0.8913(5) 0.9251(7) 0.7527(5)
H11_3 H 0.842554 0.934243 0.750860
C17_3 C 0.9161(5) 0.9113(5) 0.6922(4)
C19_4 C 0.0116(5) 0.3991(6) 0.8009(5)
C23_4 C 0.0611(7) 0.4253(7) 0.6840(5)
H16_4 H 0.079261 0.432705 0.643658
C24_4 C 0.1374(5) 0.4128(5) 0.8776(4)
H19_4 H 0.003906 0.296734 0.509620
C34_4 C 0.1087(5) 0.4251(7) 0.7473(5)
H23_4 H 0.157446 0.434243 0.749140
C35_4 C 0.0839(5) 0.4113(5) 0.8078(4)
O13_2 O 0.6695(4) 0.0044(4) 0.5329(3)
O14_2 O 0.8305(4) 0.0044(4) 0.4671(3)
O1_4 O 0.7795(3) 0.7985(3) 0.4295(3)
O4_4 O 0.5695(4) 0.0165(4) 0.5743(3)
O5_4 O 0.8517(4) 0.7119(4) 0.3867(4)
N1_4 N 0.6499(4) 0.5154(4) 0.4152(4)
N2_4 N 0.5106(4) 0.4153(4) 0.3225(3)
N3_4 N 0.5859(4) 0.3010(4) 0.4560(4)
C1_4 C 0.4884(5) 0.3991(6) 0.1991(5)
H1_4 H 0.507469 0.388753 0.159592
C2_4 C 0.6496(5) 0.1662(6) 0.4716(5)
H2_4 H 0.688639 0.133759 0.464450
C3_4 C 0.6411(6) 0.2503(6) 0.4476(5)
H3_4 H 0.675358 0.272728 0.424571
C4_4 C 0.7971(6) 0.7262(6) 0.4096(5)
C5_4 C 0.4389(7) 0.4253(7) 0.3160(5)
H4_4 H 0.420739 0.432705 0.356342
C6_4 C 0.3626(5) 0.4128(5) 0.1224(4)
C7_4 C 0.6125(6) 0.0429(5) 0.5397(5)
C8_4 C 0.7667(5) 0.5680(5) 0.4101(5)
H5_4 H 0.814255 0.555830 0.407982
C9_4 C 0.6268(5) 0.5980(5) 0.4143(5)
H6_4 H 0.578818 0.608255 0.415517
C10_4 C 0.7434(5) 0.6528(5) 0.4101(4)
C11_4 C 0.5362(5) 0.2646(5) 0.4861(4)
H7_4 H 0.496094 0.296734 0.490380
C12_4 C 0.5338(5) 0.4019(6) 0.2644(5)
H8_4 H 0.582840 0.394035 0.267133
C13_4 C 0.7186(5) 0.5022(6) 0.4131(5)
H9_4 H 0.735136 0.445959 0.413710
C14_4 C 0.5415(5) 0.1809(5) 0.5114(4)
H10_4 H 0.505405 0.158609 0.532124
C15_4 C 0.5998(5) 0.1311(5) 0.5060(4)
C16_4 C 0.3913(5) 0.4251(7) 0.2527(5)
H11_4 H 0.342554 0.434243 0.250860
C17_4 C 0.4161(5) 0.4113(5) 0.1922(4)
C18_4 C 0.6711(5) 0.6667(6) 0.4118(5)
H12_4 H 0.653113 0.722208 0.411152
O7_4 O 0.7205(3) 0.7985(3) 0.5705(3)
O10_4 O 0.9305(4) 0.0165(4) 0.4257(3)
O11_4 O 0.6483(4) 0.7119(4) 0.6133(4)
N4_4 N 0.8501(4) 0.5154(4) 0.5848(4)
N5_4 N 0.9894(4) 0.4153(4) 0.6775(3)
N6_4 N 0.9141(4) 0.3010(4) 0.5440(4)
H13_4 H 0.992531 0.388753 0.840408
C20_4 C 0.8504(5) 0.1662(6) 0.5284(5)
H14_4 H 0.811361 0.133759 0.535550
C21_4 C 0.8589(6) 0.2503(6) 0.5524(5)
H15_4 H 0.824642 0.272728 0.575429
C22_4 C 0.7029(6) 0.7262(6) 0.5904(5)
C25_4 C 0.8875(6) 0.0429(5) 0.4603(5)
C26_4 C 0.7333(5) 0.5680(5) 0.5899(5)
H17_4 H 0.685745 0.555830 0.592018
C27_4 C 0.8732(5) 0.5980(5) 0.5857(5)
H18_4 H 0.921182 0.608255 0.584483
C28_4 C 0.7566(5) 0.6528(5) 0.5899(4)
C29_4 C 0.9638(5) 0.2646(5) 0.5139(4)
C30_4 C 0.9662(5) 0.4019(6) 0.7356(5)
H20_4 H 0.917160 0.394035 0.732867
C31_4 C 0.7814(5) 0.5022(6) 0.5869(5)
H21_4 H 0.764864 0.445959 0.586290
C32_4 C 0.9585(5) 0.1809(5) 0.4886(4)
H22_4 H 0.994595 0.158609 0.467876
C33_4 C 0.9002(5) 0.1311(5) 0.4940(4)
C36_4 C 0.8289(5) 0.6667(6) 0.5882(5)
H24_4 H 0.846887 0.722208 0.588848
N7 N 0.1068(5) 0.3726(5) 0.1536(4)
H25 H 0.118255 0.327122 0.130589
H26 H 0.095452 0.415128 0.123031
C37 C 0.1702(6) 0.3981(8) 0.2068(6)
H27 H 0.208930 0.413272 0.184264
H28 H 0.184769 0.351185 0.238262
H29 H 0.158062 0.446550 0.232487
C38 C 0.0430(6) 0.3514(7) 0.1832(6)
H30 H 0.004960 0.331262 0.146727
H31 H 0.027330 0.401784 0.204174
H32 H 0.055448 0.307576 0.218060
N7_2 N 0.3932(5) 0.3726(5) 0.8464(4)
H25_2 H 0.381745 0.327122 0.869411
H26_2 H 0.404548 0.415128 0.876969
C37_2 C 0.3298(6) 0.3981(8) 0.7932(6)
H27_2 H 0.291070 0.413272 0.815736
H28_2 H 0.315231 0.351185 0.761738
H29_2 H 0.341938 0.446550 0.767513
C38_2 C 0.4570(6) 0.3514(7) 0.8168(6)
H30_2 H 0.495040 0.331262 0.853273
H31_2 H 0.472670 0.401784 0.795826
H32_2 H 0.444552 0.307576 0.781940
N7_3 N 0.6068(5) 0.8726(5) 0.6536(4)
H25_3 H 0.618255 0.827122 0.630589
H26_3 H 0.595452 0.915128 0.623031
C37_3 C 0.6702(6) 0.8981(8) 0.7068(6)
H27_3 H 0.708930 0.913272 0.684264
H28_3 H 0.684769 0.851185 0.738262
H29_3 H 0.658062 0.946550 0.732487
C38_3 C 0.5430(6) 0.8514(7) 0.6832(6)
H30_3 H 0.504960 0.831262 0.646727
H31_3 H 0.527330 0.901784 0.704174
H32_3 H 0.555448 0.807576 0.718060
N7_4 N 0.8932(5) 0.8726(5) 0.3464(4)
H25_4 H 0.881745 0.827122 0.369411
H26_4 H 0.904548 0.915128 0.376969
C37_4 C 0.8298(6) 0.8981(8) 0.2932(6)
H27_4 H 0.791070 0.913272 0.315736
H28_4 H 0.815231 0.851185 0.261738
H29_4 H 0.841938 0.946550 0.267513
C38_4 C 0.9570(6) 0.8514(7) 0.3168(6)
H30_4 H 0.995040 0.831262 0.353273
H31_4 H 0.972670 0.901784 0.295826
H32_4 H 0.944552 0.807576 0.281940
N7_5 N 0.8932(5) 0.6274(5) 0.8464(4)
H25_5 H 0.881745 0.672878 0.869411
H26_5 H 0.904548 0.584872 0.876969
C37_5 C 0.8298(6) 0.6019(8) 0.7932(6)
H27_5 H 0.791070 0.586728 0.815736
H28_5 H 0.815231 0.648815 0.761738
H29_5 H 0.841938 0.553450 0.767513
C38_5 C 0.9570(6) 0.6486(7) 0.8168(6)
H30_5 H 0.995040 0.668738 0.853273
H31_5 H 0.972670 0.598216 0.795826
H32_5 H 0.944552 0.692424 0.781940
N7_6 N 0.6068(5) 0.6274(5) 0.1536(4)
H25_6 H 0.618255 0.672878 0.130589
H26_6 H 0.595452 0.584872 0.123031
C37_6 C 0.6702(6) 0.6019(8) 0.2068(6)
H27_6 H 0.708930 0.586728 0.184264
H28_6 H 0.684769 0.648815 0.238262
H29_6 H 0.658062 0.553450 0.232487
C38_6 C 0.5430(6) 0.6486(7) 0.1832(6)
H30_6 H 0.504960 0.668738 0.146727
H31_6 H 0.527330 0.598216 0.204174
H32_6 H 0.555448 0.692424 0.218060
N7_7 N 0.3932(5) 0.1274(5) 0.3464(4)
H25_7 H 0.381745 0.172878 0.369411
H26_7 H 0.404548 0.084872 0.376969
C37_7 C 0.3298(6) 0.1019(8) 0.2932(6)
H27_7 H 0.291070 0.086728 0.315736
H28_7 H 0.315231 0.148815 0.261738
H29_7 H 0.341938 0.053450 0.267513
C38_7 C 0.4570(6) 0.1486(7) 0.3168(6)
H30_7 H 0.495040 0.168738 0.353273
H31_7 H 0.472670 0.098216 0.295826
H32_7 H 0.444552 0.192424 0.281940
N7_8 N 0.1068(5) 0.1274(5) 0.6536(4)
H25_8 H 0.118255 0.172878 0.630589
H26_8 H 0.095452 0.084872 0.623031
C37_8 C 0.1702(6) 0.1019(8) 0.7068(6)
H27_8 H 0.208930 0.086728 0.684264
H28_8 H 0.184769 0.148815 0.738262
H29_8 H 0.158062 0.053450 0.732487
C38_8 C 0.0430(6) 0.1486(7) 0.6832(6)
H30_8 H 0.004960 0.168738 0.646727
H31_8 H 0.027330 0.098216 0.704174
H32_8 H 0.055448 0.192424 0.718060
loop_
_geom_bond_atom_site_label_1
_geom_bond_atom_site_label_2
_geom_bond_site_symmetry_1
_geom_bond_site_symmetry_2
O3 C6 1_555 1_555
O6 C6 1_555 1_555
H4 C5 1_555 1_555
C6 C17 1_555 1_555
C16 C5 1_555 1_555
H11 C16 1_555 1_555
C17 C1 1_555 1_555
Sm4 O3 1_555 1_555
O6 Sm4 1_555 1_555
C16 C17 1_555 1_555
Cu3 Br1_4 1_555 1_555
Br1_5 Cu1 1_555 1_555
N2 Cu1 1_555 1_555
N3 Cu1 1_555 1_555
C2 H2 1_555 1_555
C3 N3 1_555 1_555
H3 C3 1_555 1_555
C11 N3 1_555 1_555
C12 N2 1_555 1_555
H8 C12 1_555 1_555
O8 C25 1_555 1_555
O10 C25 1_555 1_555
C25 C33 1_555 1_555
H22 C32 1_555 1_555
C2 C3 1_555 1_555
O8 Sm2 1_555 1_555
C32 C33 1_555 1_555
O2 C7 1_555 1_555
O4 C7 1_555 1_555
C7 C15 1_555 1_555
H10 C14 1_555 1_555
O9 C24 1_555 1_555
O12 C24 1_555 1_555
N5 Cu2 1_555 1_555
N6 Cu2 1_555 1_555
C19 H13 1_555 1_555
C20 H14 1_555 1_555
C21 N6 1_555 1_555
H15 C21 1_555 1_555
C23 N5 1_555 1_555
H16 C23 1_555 1_555
C24 C35 1_555 1_555
C29 N6 1_555 1_555
H19 C29 1_555 1_555
C30 N5 1_555 1_555
H20 C30 1_555 1_555
C34 C23 1_555 1_555
H23 C34 1_555 1_555
C35 C19 1_555 1_555
Sm2_2 O2 1_555 1_555
Sm4 O9 1_555 1_555
Br2_2 Cu2 1_555 1_555
C14 C15 1_555 1_555
O12 Sm4 1_555 1_555
C19 C30 1_555 1_555
C20 C21 1_555 1_555
C34 C35 1_555 1_555
Sm2 O1 1_555 1_555
O1 C4 1_555 1_555
O5 C4 1_555 1_555
N1 C9 1_555 1_555
C4 C10 1_555 1_555
C8 H5 1_555 1_555
C9 H6 1_555 1_555
C10 C8 1_555 1_555
C13 N1 1_555 1_555
C18 C9 1_555 1_555
H12 C18 1_555 1_555
O16 Sm2 1_555 1_555
O18 Sm2 1_555 1_555
C8 C13 1_555 1_555
C10 C18 1_555 1_555
O7 Sm2_2 1_555 1_555
O11 C22 1_555 1_555
N4 C27 1_555 1_555
C22 O7 1_555 1_555
C26 H17 1_555 1_555
C27 H18 1_555 1_555
C28 C22 1_555 1_555
C31 N4 1_555 1_555
C36 C27 1_555 1_555
H24 C36 1_555 1_555
O15 Sm2_2 1_555 1_555
O17 Sm2_2 1_555 1_555
C26 C28 1_555 1_555
C26 C31 1_555 1_555
C28 C36 1_555 1_555
Cu3_2 Br2_3 1_555 1_555
Sm4 O1_2 1_555 1_555
Br1_9 Cu1_2 1_555 1_555
Cu1_2 N1_2 1_555 1_555
O1_2 C4_2 1_555 1_555
O2_2 C7_2 1_555 1_555
O15 C6_2 1_555 1_555
O4_2 C7_2 1_555 1_555
O5_2 C4_2 1_555 1_555
O17 C6_2 1_555 1_555
N1_2 C9_2 1_555 1_555
N2_2 Cu1_2 1_555 1_555
N3_2 Cu1_2 1_555 1_555
C1_2 H1_2 1_555 1_555
C2_2 H2_2 1_555 1_555
C3_2 N3_2 1_555 1_555
H3_2 C3_2 1_555 1_555
C4_2 C10_2 1_555 1_555
C5_2 N2_2 1_555 1_555
H4_2 C5_2 1_555 1_555
C6_2 C17_2 1_555 1_555
C7_2 C15_2 1_555 1_555
C8_2 H5_2 1_555 1_555
C9_2 H6_2 1_555 1_555
C10_2 C8_2 1_555 1_555
C11_2 N3_2 1_555 1_555
H7_2 C11_2 1_555 1_555
C12_2 N2_2 1_555 1_555
H8_2 C12_2 1_555 1_555
C13_2 N1_2 1_555 1_555
H9_2 C13_2 1_555 1_555
C14_2 C11_2 1_555 1_555
H10_2 C14_2 1_555 1_555
C15_2 C2_2 1_555 1_555
C16_2 C5_2 1_555 1_555
H11_2 C16_2 1_555 1_555
C17_2 C1_2 1_555 1_555
C18_2 C9_2 1_555 1_555
H12_2 C18_2 1_555 1_555
Cu2_2 N4_2 1_555 1_555
O7_2 Sm4 1_555 1_555
O8_2 C25_2 1_555 1_555
O10_2 C25_2 1_555 1_555
O11_2 C22_2 1_555 1_555
N4_2 C27_2 1_555 1_555
N5_2 Cu2_2 1_555 1_555
N6_2 Cu2_2 1_555 1_555
C20_2 H14_2 1_555 1_555
C21_2 N6_2 1_555 1_555
H15_2 C21_2 1_555 1_555
C22_2 O7_2 1_555 1_555
C25_2 C33_2 1_555 1_555
C26_2 H17_2 1_555 1_555
C27_2 H18_2 1_555 1_555
C28_2 C22_2 1_555 1_555
C29_2 N6_2 1_555 1_555
C30_2 N5_2 1_555 1_555
H20_2 C30_2 1_555 1_555
C31_2 N4_2 1_555 1_555
H21_2 C31_2 1_555 1_555
C32_2 C29_2 1_555 1_555
H22_2 C32_2 1_555 1_555
C33_2 C20_2 1_555 1_555
C36_2 C27_2 1_555 1_555
H24_2 C36_2 1_555 1_555
Br2_5 Cu2_2 1_555 1_555
Cu3_3 Br1_9 1_555 1_555
C1_2 C12_2 1_555 1_555
C2_2 C3_2 1_555 1_555
C8_2 C13_2 1_555 1_555
C10_2 C18_2 1_555 1_555
C14_2 C15_2 1_555 1_555
C16_2 C17_2 1_555 1_555
C20_2 C21_2 1_555 1_555
C26_2 C28_2 1_555 1_555
C26_2 C31_2 1_555 1_555
C28_2 C36_2 1_555 1_555
C32_2 C33_2 1_555 1_555
O16 C24_2 1_555 1_555
O18 C24_2 1_555 1_555
H16_2 C23_2 1_555 1_555
C24_2 C35_2 1_555 1_555
C34_2 C23_2 1_555 1_555
H23_2 C34_2 1_555 1_555
C35_2 C19_2 1_555 1_555
C34_2 C35_2 1_555 1_555
Cu3_4 Br2_6 1_555 1_555
O7_3 Sm1 1_555 1_555
O11_3 C22_3 1_555 1_555
N4_3 C27_3 1_555 1_555
C22_3 O7_3 1_555 1_555
C26_3 H17_3 1_555 1_555
C27_3 H18_3 1_555 1_555
C28_3 C22_3 1_555 1_555
C31_3 N4_3 1_555 1_555
C36_3 C27_3 1_555 1_555
H24_3 C36_3 1_555 1_555
O13 Sm1 1_555 1_555
O15_2 Sm1 1_555 1_555
O17_2 Sm1 1_555 1_555
C26_3 C28_3 1_555 1_555
C26_3 C31_3 1_555 1_555
C28_3 C36_3 1_555 1_555
Sm1_2 O1_3 1_555 1_555
O1_3 C4_3 1_555 1_555
O5_3 C4_3 1_555 1_555
N1_3 C9_3 1_555 1_555
C4_3 C10_3 1_555 1_555
C8_3 H5_3 1_555 1_555
C9_3 H6_3 1_555 1_555
C10_3 C8_3 1_555 1_555
C13_3 N1_3 1_555 1_555
C18_3 C9_3 1_555 1_555
H12_3 C18_3 1_555 1_555
O14 Sm1_2 1_555 1_555
O16_2 Sm1_2 1_555 1_555
O18_2 Sm1_2 1_555 1_555
C8_3 C13_3 1_555 1_555
C10_3 C18_3 1_555 1_555
O13 C7_3 1_555 1_555
O4_3 C7_3 1_555 1_555
C7_3 C15_3 1_555 1_555
H10_3 C14_3 1_555 1_555
O9_2 C24_3 1_555 1_555
O12_2 C24_3 1_555 1_555
N5_3 Cu3_2 1_555 1_555
N6_3 Cu3_2 1_555 1_555
C19_3 H13_3 1_555 1_555
C20_3 H14_3 1_555 1_555
C21_3 N6_3 1_555 1_555
H15_3 C21_3 1_555 1_555
C23_3 N5_3 1_555 1_555
H16_3 C23_3 1_555 1_555
C24_3 C35_3 1_555 1_555
C29_3 N6_3 1_555 1_555
H19_3 C29_3 1_555 1_555
C30_3 N5_3 1_555 1_555
H20_3 C30_3 1_555 1_555
C34_3 C23_3 1_555 1_555
H23_3 C34_3 1_555 1_555
C35_3 C19_3 1_555 1_555
Sm3 O9_2 1_555 1_555
C14_3 C15_3 1_555 1_555
O12_2 Sm3 1_555 1_555
C19_3 C30_3 1_555 1_555
C20_3 C21_3 1_555 1_555
C34_3 C35_3 1_555 1_555
N2_3 Cu3 1_555 1_555
N3_3 Cu3 1_555 1_555
C2_3 H2_3 1_555 1_555
C3_3 N3_3 1_555 1_555
H3_3 C3_3 1_555 1_555
C11_3 N3_3 1_555 1_555
C12_3 N2_3 1_555 1_555
H8_3 C12_3 1_555 1_555
O14 C25_3 1_555 1_555
O10_3 C25_3 1_555 1_555
C25_3 C33_3 1_555 1_555
H22_3 C32_3 1_555 1_555
C2_3 C3_3 1_555 1_555
C32_3 C33_3 1_555 1_555
O3_2 C6_3 1_555 1_555
O6_2 C6_3 1_555 1_555
H4_3 C5_3 1_555 1_555
C6_3 C17_3 1_555 1_555
C16_3 C5_3 1_555 1_555
H11_3 C16_3 1_555 1_555
C17_3 C1_3 1_555 1_555
Sm3 O3_2 1_555 1_555
O6_2 Sm3 1_555 1_555
C16_3 C17_3 1_555 1_555
O16_2 C24_4 1_555 1_555
O18_2 C24_4 1_555 1_555
H16_4 C23_4 1_555 1_555
C24_4 C35_4 1_555 1_555
C34_4 C23_4 1_555 1_555
H23_4 C34_4 1_555 1_555
C35_4 C19_4 1_555 1_555
C34_4 C35_4 1_555 1_555
Sm3 O1_4 1_555 1_555
Cu3_3 N1_4 1_555 1_555
O1_4 C4_4 1_555 1_555
O13_2 C7_4 1_555 1_555
O15_2 C6_4 1_555 1_555
O4_4 C7_4 1_555 1_555
O5_4 C4_4 1_555 1_555
O17_2 C6_4 1_555 1_555
N1_4 C9_4 1_555 1_555
N2_4 Cu3_3 1_555 1_555
N3_4 Cu3_3 1_555 1_555
C1_4 H1_4 1_555 1_555
C2_4 H2_4 1_555 1_555
C3_4 N3_4 1_555 1_555
H3_4 C3_4 1_555 1_555
C4_4 C10_4 1_555 1_555
C5_4 N2_4 1_555 1_555
H4_4 C5_4 1_555 1_555
C6_4 C17_4 1_555 1_555
C7_4 C15_4 1_555 1_555
C8_4 H5_4 1_555 1_555
C9_4 H6_4 1_555 1_555
C10_4 C8_4 1_555 1_555
C11_4 N3_4 1_555 1_555
H7_4 C11_4 1_555 1_555
C12_4 N2_4 1_555 1_555
H8_4 C12_4 1_555 1_555
C13_4 N1_4 1_555 1_555
H9_4 C13_4 1_555 1_555
C14_4 C11_4 1_555 1_555
H10_4 C14_4 1_555 1_555
C15_4 C2_4 1_555 1_555
C16_4 C5_4 1_555 1_555
H11_4 C16_4 1_555 1_555
C17_4 C1_4 1_555 1_555
C18_4 C9_4 1_555 1_555
H12_4 C18_4 1_555 1_555
Cu3_4 N4_4 1_555 1_555
O7_4 Sm3 1_555 1_555
O14_2 C25_4 1_555 1_555
O10_4 C25_4 1_555 1_555
O11_4 C22_4 1_555 1_555
N4_4 C27_4 1_555 1_555
N5_4 Cu3_4 1_555 1_555
N6_4 Cu3_4 1_555 1_555
C20_4 H14_4 1_555 1_555
C21_4 N6_4 1_555 1_555
H15_4 C21_4 1_555 1_555
C22_4 O7_4 1_555 1_555
C25_4 C33_4 1_555 1_555
C26_4 H17_4 1_555 1_555
C27_4 H18_4 1_555 1_555
C28_4 C22_4 1_555 1_555
C29_4 N6_4 1_555 1_555
C30_4 N5_4 1_555 1_555
H20_4 C30_4 1_555 1_555
C31_4 N4_4 1_555 1_555
H21_4 C31_4 1_555 1_555
C32_4 C29_4 1_555 1_555
H22_4 C32_4 1_555 1_555
C33_4 C20_4 1_555 1_555
C36_4 C27_4 1_555 1_555
H24_4 C36_4 1_555 1_555
C1_4 C12_4 1_555 1_555
C2_4 C3_4 1_555 1_555
C8_4 C13_4 1_555 1_555
C10_4 C18_4 1_555 1_555
C14_4 C15_4 1_555 1_555
C16_4 C17_4 1_555 1_555
C20_4 C21_4 1_555 1_555
C26_4 C28_4 1_555 1_555
C26_4 C31_4 1_555 1_555
C28_4 C36_4 1_555 1_555
C32_4 C33_4 1_555 1_555
N7 H25 1_555 1_555
H26 N7 1_555 1_555
C37 N7 1_555 1_555
H27 C37 1_555 1_555
H28 C37 1_555 1_555
H29 C37 1_555 1_555
C38 N7 1_555 1_555
H30 C38 1_555 1_555
H31 C38 1_555 1_555
H32 C38 1_555 1_555
N7_2 H25_2 1_555 1_555
H26_2 N7_2 1_555 1_555
C37_2 N7_2 1_555 1_555
H27_2 C37_2 1_555 1_555
H28_2 C37_2 1_555 1_555
H29_2 C37_2 1_555 1_555
C38_2 N7_2 1_555 1_555
H30_2 C38_2 1_555 1_555
H31_2 C38_2 1_555 1_555
H32_2 C38_2 1_555 1_555
N7_3 H25_3 1_555 1_555
H26_3 N7_3 1_555 1_555
C37_3 N7_3 1_555 1_555
H27_3 C37_3 1_555 1_555
H28_3 C37_3 1_555 1_555
H29_3 C37_3 1_555 1_555
C38_3 N7_3 1_555 1_555
H30_3 C38_3 1_555 1_555
H31_3 C38_3 1_555 1_555
H32_3 C38_3 1_555 1_555
N7_4 H25_4 1_555 1_555
H26_4 N7_4 1_555 1_555
C37_4 N7_4 1_555 1_555
H27_4 C37_4 1_555 1_555
H28_4 C37_4 1_555 1_555
H29_4 C37_4 1_555 1_555
C38_4 N7_4 1_555 1_555
H30_4 C38_4 1_555 1_555
H31_4 C38_4 1_555 1_555
H32_4 C38_4 1_555 1_555
N7_5 H25_5 1_555 1_555
H26_5 N7_5 1_555 1_555
C37_5 N7_5 1_555 1_555
H27_5 C37_5 1_555 1_555
H28_5 C37_5 1_555 1_555
H29_5 C37_5 1_555 1_555
C38_5 N7_5 1_555 1_555
H30_5 C38_5 1_555 1_555
H31_5 C38_5 1_555 1_555
H32_5 C38_5 1_555 1_555
N7_6 H25_6 1_555 1_555
H26_6 N7_6 1_555 1_555
C37_6 N7_6 1_555 1_555
H27_6 C37_6 1_555 1_555
H28_6 C37_6 1_555 1_555
H29_6 C37_6 1_555 1_555
C38_6 N7_6 1_555 1_555
H30_6 C38_6 1_555 1_555
H31_6 C38_6 1_555 1_555
H32_6 C38_6 1_555 1_555
N7_7 H25_7 1_555 1_555
H26_7 N7_7 1_555 1_555
C37_7 N7_7 1_555 1_555
H27_7 C37_7 1_555 1_555
H28_7 C37_7 1_555 1_555
H29_7 C37_7 1_555 1_555
C38_7 N7_7 1_555 1_555
H30_7 C38_7 1_555 1_555
H31_7 C38_7 1_555 1_555
H32_7 C38_7 1_555 1_555
N7_8 H25_8 1_555 1_555
H26_8 N7_8 1_555 1_555
C37_8 N7_8 1_555 1_555
H27_8 C37_8 1_555 1_555
H28_8 C37_8 1_555 1_555
H29_8 C37_8 1_555 1_555
C38_8 N7_8 1_555 1_555
H30_8 C38_8 1_555 1_555
H31_8 C38_8 1_555 1_555
H32_8 C38_8 1_555 1_555

#END
