
###############################################################################
#
# This file contains modified crystal structure data generated from the
# MOF subset of the Cambridge Structural Database (CSD) v543 
# hosted by the Cambridge Crystallographic Data Centre (CCDC).
#
# This work is licensed under the Creative Commons
# Attribution-NonCommercial-ShareAlike 4.0 International License.
# To view a copy of this license, visit
# http://creativecommons.org/licenses/by-nc-sa/4.0/
# or send a letter to
# Creative Commons, PO Box 1866, Mountain View, CA 94042, USA.
#
# CIF created using the CSD Python API on 29 September 2022
# The structure has been converted into the P1 space group
# The structure has a 3D framework
# The original CSD entry OFUDUQ is in the triclinic crystal system
# The framework has been calculated to contain at least 10.0% void space
# The void calculation uses a probe of radius 1.32A, grid spacing 0.4
#
###############################################################################

data_OFUDUQ
_chemical_formula_moiety         '(C24 H26 Co3 N6 O8 P2)n'
_symmetry_cell_setting           triclinic
_symmetry_space_group_name_H-M   'P 1'
_symmetry_Int_Tables_number      1
_space_group_name_Hall           'P 1'
loop_
_symmetry_equiv_pos_site_id
_symmetry_equiv_pos_as_xyz
1 x,y,z
_cell_length_a                   5.1953(10)
_cell_length_b                   10.530(2)
_cell_length_c                   14.260(3)
_cell_angle_alpha                74.29(3)
_cell_angle_beta                 89.02(3)
_cell_angle_gamma                82.30(3)
_cell_volume                     744.052
loop_
_atom_site_label
_atom_site_type_symbol
_atom_site_fract_x
_atom_site_fract_y
_atom_site_fract_z
H14 H 0.0796 0.2453 0.7005
Co3 Co 0.0000 0.5000 0.5000
Co2 Co 0.5000 0.0000 0.5000
O4 O 0.5636(5) 0.0317(3) 0.72451(19)
H1 H 0.6290 0.0536 0.6708
O11 O 0.7540(4) 0.10629(18) 0.54753(15)
O13 O 0.2039(3) 0.16184(18) 0.48837(17)
N7 N 0.6516(4) 0.0849(2) 0.35853(19)
Co2_2 Co 0.5000 1.0000 0.5000
P1 P 0.08844(12) 0.80270(7) 0.52597(6)
O1 O 0.1715(3) 0.65555(18) 0.53507(15)
O2 O 0.2460(4) 0.89371(18) 0.45247(15)
O5 O 0.3435(4) 0.3654(2) 0.54526(17)
H2 H 0.326(6) 0.302(3) 0.536(2)
H3 H 0.490(8) 0.380(4) 0.520(3)
N1 N 0.3484(4) 0.9151(2) 0.64147(19)
N2 N 0.1369(5) 0.5708(3) 0.35652(18)
N3 N 0.4040(6) 0.6005(4) 0.2337(2)
C1 C 0.1681(5) 0.8326(3) 0.6423(2)
C2 C 0.0419(8) 0.7771(4) 0.7255(3)
C3 C 0.0966(10) 0.8089(5) 0.8102(3)
H5 H 0.0131 0.7723 0.8675
C4 C 0.2747(9) 0.8946(5) 0.8099(3)
H6 H 0.3124 0.9173 0.8663
C5 C 0.3961(6) 0.9464(3) 0.7237(3)
C6 C 0.0617(7) 0.6942(4) 0.2921(3)
C7 C 0.2253(9) 0.7126(5) 0.2172(3)
H8 H 0.2184 0.7873 0.1640
C8 C 0.3440(6) 0.5192(4) 0.3181(2)
H9 H 0.4370 0.4360 0.3464
C9 C 0.6254(8) 0.5764(6) 0.1733(3)
H10 H 0.7499 0.5056 0.2121
H11 H 0.7096 0.6562 0.1538
C10 C 0.5542(7) 0.5387(5) 0.0828(3)
C11 C 0.3789(15) 0.4556(9) 0.0814(4)
H12 H 0.2888 0.4233 0.1379
C12 C 0.6714(13) 0.5829(8) 0.0003(3)
H20 H 0.2084 0.3581 0.0029
H24 H 0.0781 0.2808 0.2750
O12 O 0.7961(3) 0.83816(18) 0.51163(17)
H13 H 0.7916 0.6419 0.9971
N4 N 0.8631(5) 0.4292(3) 0.64348(18)
N5 N 0.5960(6) 0.3995(4) 0.7663(2)
C13 C 0.9383(7) 0.3058(4) 0.7079(3)
C14 C 0.7747(9) 0.2874(5) 0.7828(3)
H15 H 0.7816 0.2127 0.8360
C15 C 0.6560(6) 0.4808(4) 0.6819(2)
H16 H 0.5630 0.5640 0.6536
C16 C 0.3746(8) 0.4236(6) 0.8267(3)
H17 H 0.2501 0.4944 0.7879
H18 H 0.2904 0.3438 0.8462
C17 C 0.4458(7) 0.4613(5) 0.9172(3)
C18 C 0.6211(15) 0.5444(9) 0.9186(4)
H19 H 0.7112 0.5767 0.8621
C19 C 0.3286(13) 0.4171(8) 0.9997(3)
Co3_2 Co 1.0000 0.5000 0.5000
H4 H 0.9219 0.7192 0.7250
H7 H 0.9204 0.7547 0.2995
P2 P 0.91156(12) 0.19730(7) 0.47403(6)
O6 O 0.8285(3) 0.34445(18) 0.46493(15)
O10 O 0.6565(4) 0.6346(2) 0.45474(17)
H22 H 0.674(6) 0.698(3) 0.464(2)
H23 H 0.510(8) 0.620(4) 0.480(3)
C20 C 0.8319(5) 0.1674(3) 0.3577(2)
C21 C 0.9581(8) 0.2229(4) 0.2745(3)
C22 C 0.9034(10) 0.1911(5) 0.1898(3)
H25 H 0.9869 0.2277 0.1325
C23 C 0.7253(9) 0.1054(5) 0.1901(3)
H26 H 0.6876 0.0827 0.1337
C24 C 0.6039(6) 0.0536(3) 0.2763(3)
O9 O 0.4364(5) 0.9683(3) 0.27549(19)
H21 H 0.3710 0.9464 0.3292
loop_
_geom_bond_atom_site_label_1
_geom_bond_atom_site_label_2
_geom_bond_site_symmetry_1
_geom_bond_site_symmetry_2
O4 H1 1_555 1_555
O11 Co2 1_555 1_555
O13 Co2 1_555 1_555
N7 Co2 1_555 1_555
Co3 O1 1_555 1_555
Co2_2 O2 1_555 1_555
P1 O1 1_555 1_555
O2 P1 1_555 1_555
O5 Co3 1_555 1_555
H2 O5 1_555 1_555
H3 O5 1_555 1_555
N1 Co2_2 1_555 1_555
N2 Co3 1_555 1_555
N3 C7 1_555 1_555
C1 P1 1_555 1_555
C2 C1 1_555 1_555
C3 C2 1_555 1_555
H5 C3 1_555 1_555
C4 C3 1_555 1_555
H6 C4 1_555 1_555
C6 N2 1_555 1_555
C7 C6 1_555 1_555
H8 C7 1_555 1_555
C8 N2 1_555 1_555
H9 C8 1_555 1_555
C9 N3 1_555 1_555
H10 C9 1_555 1_555
H11 C9 1_555 1_555
C10 C9 1_555 1_555
C11 C10 1_555 1_555
H12 C11 1_555 1_555
C12 C10 1_555 1_555
O12 Co2_2 1_555 1_555
N1 C1 1_555 1_555
N1 C5 1_555 1_555
N3 C8 1_555 1_555
C4 C5 1_555 1_555
N4 C13 1_555 1_555
N5 C14 1_555 1_555
C14 C13 1_555 1_555
H15 C14 1_555 1_555
C15 N4 1_555 1_555
H16 C15 1_555 1_555
C16 N5 1_555 1_555
H17 C16 1_555 1_555
H18 C16 1_555 1_555
C17 C16 1_555 1_555
H19 C18 1_555 1_555
Co3_2 N4 1_555 1_555
N5 C15 1_555 1_555
C17 C18 1_555 1_555
C17 C19 1_555 1_555
P2 O6 1_555 1_555
O6 Co3_2 1_555 1_555
O11 P2 1_555 1_555
O10 Co3_2 1_555 1_555
H22 O10 1_555 1_555
H23 O10 1_555 1_555
N7 C20 1_555 1_555
C20 P2 1_555 1_555
C21 C20 1_555 1_555
C22 C21 1_555 1_555
H25 C22 1_555 1_555
C23 C22 1_555 1_555
H26 C23 1_555 1_555
N7 C24 1_555 1_555
C23 C24 1_555 1_555
O9 H21 1_555 1_555

#END
