
###############################################################################
#
# This file contains modified crystal structure data generated from the
# MOF subset of the Cambridge Structural Database (CSD) v543 
# hosted by the Cambridge Crystallographic Data Centre (CCDC).
#
# This work is licensed under the Creative Commons
# Attribution-NonCommercial-ShareAlike 4.0 International License.
# To view a copy of this license, visit
# http://creativecommons.org/licenses/by-nc-sa/4.0/
# or send a letter to
# Creative Commons, PO Box 1866, Mountain View, CA 94042, USA.
#
# CIF created using the CSD Python API on 29 September 2022
# The structure has been converted into the P1 space group
# The structure has a 3D framework
# The original CSD entry OFUSAL is in the orthorhombic crystal system
# The original CSD entry OFUSAL is in a Sohncke space group
# The framework has been calculated to contain at least 10.0% void space
# The void calculation uses a probe of radius 1.32A, grid spacing 0.4
# The framework is charged, counterions have been retained in the structure
#
###############################################################################

data_OFUSAL
_chemical_formula_moiety         '(C24 H48 Ag4 N11 P4 S4 4+)n'
_symmetry_cell_setting           triclinic
_symmetry_space_group_name_H-M   'P 1'
_symmetry_Int_Tables_number      1
_space_group_name_Hall           'P 1'
loop_
_symmetry_equiv_pos_site_id
_symmetry_equiv_pos_as_xyz
1 x,y,z
_cell_length_a                   8.0290(2)
_cell_length_b                   9.8549(3)
_cell_length_c                   14.3776(4)
_cell_angle_alpha                90
_cell_angle_beta                 90
_cell_angle_gamma                90
_cell_volume                     1137.63
loop_
_atom_site_label
_atom_site_type_symbol
_atom_site_fract_x
_atom_site_fract_y
_atom_site_fract_z
C3 C 0.4130(2) 0.12240(18) 0.02480(13)
H5 H 0.3646 0.2104 0.0384
H6 H 0.4559 0.0844 0.0823
C1 C 0.2189(2) 0.09045(18) 0.86299(12)
H1 H 0.1462 0.0339 0.8255
H2 H 0.1648 0.1775 0.8721
C5 C 0.6316(2) 0.00735(19) 0.93565(13)
H10 H 0.7322 0.0249 0.9003
C6 C 0.4926(2) 0.19898(19) 0.86936(12)
H11 H 0.5889 0.2220 0.8318
H12 H 0.4345 0.2827 0.8838
N1 N 0.38047(18) 0.11026(15) 0.81415(10)
N3 N 0.54956(19) 0.13710(15) 0.95605(11)
P1 P 0.25535(6) 0.00982(4) 0.97529(3)
Ag2 Ag 0.335623(17) 0.209321(15) 0.663022(10)
C2 C 0.3831(2) 0.86577(16) 0.94123(12)
H3 H 0.4254 0.8207 0.9964
H4 H 0.3157 0.8012 0.9069
C4 C 0.4656(2) 0.98012(17) 0.79690(12)
H7 H 0.5602 0.9963 0.7565
H8 H 0.3897 0.9200 0.7644
H9 H 0.6640 0.9650 0.9938
N2 N 0.52472(18) 0.91119(14) 0.88241(10)
Ag3 Ag 0.664377(17) 0.709321(15) 0.836978(10)
C2_2 C 0.1169(2) 0.13423(16) 0.44123(12)
H3_2 H 0.0746 0.1793 0.4964
H4_2 H 0.1843 0.1988 0.4069
C4_2 C 0.0344(2) 0.01988(17) 0.29690(12)
H8_2 H 0.1103 0.0800 0.2644
S1 S 0.44743(6) 0.03613(5) 0.54509(3)
N5 N 0.47528(18) 0.41119(14) 0.61759(10)
H7_2 H 0.9398 0.0037 0.2565
H9_2 H 0.8360 0.0350 0.4938
N2_2 N 0.97528(18) 0.08881(14) 0.38241(10)
Ag3_2 Ag 0.835623(17) 0.290679(15) 0.336978(10)
C1_2 C 0.7189(2) 0.40955(18) 0.13701(12)
H1_2 H 0.6462 0.4661 0.1745
H2_2 H 0.6648 0.3225 0.1279
C2_3 C 0.8831(2) 0.63423(16) 0.05877(12)
H3_3 H 0.9254 0.6793 0.0036
H4_3 H 0.8157 0.6988 0.0931
C4_3 C 0.9656(2) 0.51988(17) 0.20310(12)
H8_3 H 0.8897 0.5800 0.2356
C6_2 C 0.9926(2) 0.30102(19) 0.13064(12)
H12_2 H 0.9345 0.2173 0.1162
N1_2 N 0.88047(18) 0.38974(15) 0.18585(10)
P1_2 P 0.75535(6) 0.49018(4) 0.02471(3)
C3_2 C 0.9130(2) 0.37760(18) 0.97520(13)
H5_2 H 0.8646 0.2896 0.9616
H6_2 H 0.9559 0.4156 0.9177
S1_2 S 0.55257(6) 0.53613(5) 0.95491(3)
N4 N 0.61953(18) 0.61026(15) 0.68585(10)
C1_3 C 0.7811(2) 0.59045(18) 0.63701(12)
H1_3 H 0.8538 0.5339 0.6745
H2_3 H 0.8352 0.6775 0.6279
C2_4 C 0.6169(2) 0.36577(16) 0.55877(12)
H3_4 H 0.5746 0.3207 0.5036
H4_4 H 0.6843 0.3012 0.5931
C3_3 C 0.5870(2) 0.62240(18) 0.47520(13)
H5_3 H 0.6354 0.7104 0.4616
H6_3 H 0.5441 0.5844 0.4177
C4_4 C 0.5344(2) 0.48012(17) 0.70310(12)
H7_3 H 0.4398 0.4963 0.7435
H8_4 H 0.6103 0.4200 0.7356
C5_2 C 0.3684(2) 0.50735(19) 0.56435(13)
H9_3 H 0.3360 0.4650 0.5062
H10_2 H 0.2678 0.5249 0.5997
C6_3 C 0.5074(2) 0.69898(19) 0.63064(12)
H11_2 H 0.4111 0.7220 0.6682
H12_3 H 0.5655 0.7827 0.6162
N3_2 N 0.45044(19) 0.63710(15) 0.54395(11)
P1_3 P 0.74465(6) 0.50982(4) 0.52471(3)
S1_3 S 0.94743(6) 0.46387(5) 0.45491(3)
S1_4 S 0.05257(6) 0.96387(5) 0.04509(3)
Ag1 Ag 0.164377(17) 0.790679(15) 0.163022(10)
N4_2 N 0.11953(18) 0.88974(15) 0.31415(10)
N5_2 N 0.02472(18) 0.58881(14) 0.11759(10)
C1_4 C 0.2811(2) 0.90955(18) 0.36299(12)
H1_4 H 0.3538 0.9661 0.3255
H2_4 H 0.3352 0.8225 0.3721
C3_4 C 0.0870(2) 0.87760(18) 0.52480(13)
H5_4 H 0.1354 0.7896 0.5384
H6_4 H 0.0441 0.9156 0.5823
C6_4 C 0.0074(2) 0.80102(19) 0.36936(12)
H12_4 H 0.0655 0.7173 0.3838
P1_4 P 0.24465(6) 0.99018(4) 0.47529(3)
H7_4 H 0.0602 0.5037 0.2435
C5_3 C 0.1316(2) 0.49265(19) 0.06435(13)
H9_4 H 0.1640 0.5350 0.0062
H10_3 H 0.2322 0.4751 0.0997
H11_3 H 0.0889 0.2780 0.1682
N3_3 N 0.04956(19) 0.36290(15) 0.04395(11)
C5_4 C 0.8684(2) 0.99265(19) 0.43565(13)
H10_4 H 0.7678 0.9751 0.4003
H11_4 H 0.9111 0.7780 0.3318
N3_4 N 0.95044(19) 0.86290(15) 0.45605(11)
loop_
_geom_bond_atom_site_label_1
_geom_bond_atom_site_label_2
_geom_bond_site_symmetry_1
_geom_bond_site_symmetry_2
C3 H5 1_555 1_555
H6 C3 1_555 1_555
C1 H1 1_555 1_555
H2 C1 1_555 1_555
H10 C5 1_555 1_555
C6 H11 1_555 1_555
H12 C6 1_555 1_555
N1 C1 1_555 1_555
P1 C1 1_555 1_555
Ag2 N1 1_555 1_555
C5 N3 1_555 1_555
C6 N1 1_555 1_555
C6 N3 1_555 1_555
C2 H3 1_555 1_555
H4 C2 1_555 1_555
C4 H7 1_555 1_555
H8 C4 1_555 1_555
N2 C2 1_555 1_555
Ag3 N2 1_555 1_555
C4 N2 1_555 1_555
C2_2 H3_2 1_555 1_555
H4_2 C2_2 1_555 1_555
H8_2 C4_2 1_555 1_555
Ag2 S1 1_555 1_555
N5 Ag2 1_555 1_555
Ag3_2 N2_2 1_555 1_555
C1_2 H1_2 1_555 1_555
H2_2 C1_2 1_555 1_555
C2_3 H3_3 1_555 1_555
H4_3 C2_3 1_555 1_555
H8_3 C4_3 1_555 1_555
H12_2 C6_2 1_555 1_555
N1_2 C1_2 1_555 1_555
P1_2 C1_2 1_555 1_555
Ag3_2 N1_2 1_555 1_555
C2_3 P1_2 1_555 1_555
C4_3 N1_2 1_555 1_555
C6_2 N1_2 1_555 1_555
C3_2 H5_2 1_555 1_555
H6_2 C3_2 1_555 1_555
Ag3 S1_2 1_555 1_555
N4 Ag3 1_555 1_555
C1_3 H1_3 1_555 1_555
H2_3 C1_3 1_555 1_555
C2_4 H3_4 1_555 1_555
H4_4 C2_4 1_555 1_555
C3_3 H5_3 1_555 1_555
H6_3 C3_3 1_555 1_555
C4_4 H7_3 1_555 1_555
H8_4 C4_4 1_555 1_555
C5_2 H9_3 1_555 1_555
H10_2 C5_2 1_555 1_555
C6_3 H11_2 1_555 1_555
H12_3 C6_3 1_555 1_555
N4 C1_3 1_555 1_555
N5 C2_4 1_555 1_555
N3_2 C3_3 1_555 1_555
P1_3 C1_3 1_555 1_555
S1_3 P1_3 1_555 1_555
Ag3_2 S1_3 1_555 1_555
C2_4 P1_3 1_555 1_555
C3_3 P1_3 1_555 1_555
C4_4 N4 1_555 1_555
C4_4 N5 1_555 1_555
C5_2 N5 1_555 1_555
C5_2 N3_2 1_555 1_555
C6_3 N4 1_555 1_555
C6_3 N3_2 1_555 1_555
Ag1 S1_4 1_555 1_555
N4_2 Ag1 1_555 1_555
N5_2 Ag1 1_555 1_555
C1_4 H1_4 1_555 1_555
H2_4 C1_4 1_555 1_555
C3_4 H5_4 1_555 1_555
H6_4 C3_4 1_555 1_555
H12_4 C6_4 1_555 1_555
N4_2 C1_4 1_555 1_555
P1_4 C1_4 1_555 1_555
C3_4 P1_4 1_555 1_555
C6_4 N4_2 1_555 1_555
C5_3 H9_4 1_555 1_555
H10_3 C5_3 1_555 1_555
C5_3 N5_2 1_555 1_555
C5_3 N3_3 1_555 1_555
H10_4 C5_4 1_555 1_555
C5_4 N3_4 1_555 1_555

#END
