
###############################################################################
#
# This file contains modified crystal structure data generated from the
# MOF subset of the Cambridge Structural Database (CSD) v543 
# hosted by the Cambridge Crystallographic Data Centre (CCDC).
#
# This work is licensed under the Creative Commons
# Attribution-NonCommercial-ShareAlike 4.0 International License.
# To view a copy of this license, visit
# http://creativecommons.org/licenses/by-nc-sa/4.0/
# or send a letter to
# Creative Commons, PO Box 1866, Mountain View, CA 94042, USA.
#
# CIF created using the CSD Python API on 29 September 2022
# The structure has been converted into the P1 space group
# The structure has a 3D framework
# The original CSD entry OFUTUH is in the monoclinic crystal system
# The framework has been calculated to contain at least 10.0% void space
# The void calculation uses a probe of radius 1.32A, grid spacing 0.4
# The framework is charged, counterions have been retained in the structure
#
###############################################################################

data_OFUTUH
_chemical_formula_moiety         '(C160 H68 Ni16 O74 8-)n'
_symmetry_cell_setting           triclinic
_symmetry_space_group_name_H-M   'P 1'
_symmetry_Int_Tables_number      1
_space_group_name_Hall           'P 1'
loop_
_symmetry_equiv_pos_site_id
_symmetry_equiv_pos_as_xyz
1 x,y,z
_cell_length_a                   14.0702(5)
_cell_length_b                   19.5904(6)
_cell_length_c                   21.0485(7)
_cell_angle_alpha                90
_cell_angle_beta                 92.309(3)
_cell_angle_gamma                90
_cell_volume                     5797.12
loop_
_atom_site_label
_atom_site_type_symbol
_atom_site_fract_x
_atom_site_fract_y
_atom_site_fract_z
Ni8 Ni 0.02956(4) 0.36833(3) 0.25782(3)
C6 C 0.0082(3) 0.0747(2) 0.7279(2)
C7 C 0.1077(3) 0.0814(2) 0.7206(3)
H2 H 0.1349 0.1258 0.7198
C8 C 0.1646(3) 0.0268(2) 0.7150(3)
H3 H 0.2306 0.0340 0.7097
Ni3 Ni 0.02718(4) 0.32268(3) 0.75584(3)
Ni4 Ni 0.02429(4) 0.47751(3) 0.81505(3)
O4 O 0.0644(2) 0.21815(13) 0.75643(12)
O15 O 0.0020(3) 0.41539(17) 0.88943(15)
O21 O 0.1634(2) 0.45527(14) 0.80517(15)
O22 O 0.1614(2) 0.34914(15) 0.77076(16)
O26 O 0.0499(2) 0.32417(14) 0.66063(13)
O28 O 0.0682(3) 0.54948(14) 0.87863(13)
O29 O 0.02593(18) 0.53844(12) 0.73622(11)
C9 C 0.1298(3) 0.9585(2) 0.7165(2)
C10 C 0.1894(3) 0.8996(2) 0.71554(19)
C11 C 0.2961(3) 0.90264(19) 0.71276(18)
C12 C 0.1492(3) 0.8357(2) 0.71932(19)
H4 H 0.1902 0.7972 0.7198
C13 C 0.0517(3) 0.82455(19) 0.7224(2)
C14 C 0.0186(3) 0.7513(2) 0.73055(19)
C20 C 0.0306(3) 0.9488(2) 0.7217(2)
O5 O 0.3366(2) 0.95527(14) 0.69483(15)
O6 O 0.3386(2) 0.84914(15) 0.72924(16)
O7 O 0.0779(2) 0.70419(13) 0.71965(14)
Ni9 Ni 0.47282(4) 0.82268(3) 0.74416(3)
Ni12 Ni 0.47571(4) 0.97751(3) 0.68495(3)
C23 C 0.6017(3) 0.1124(2) 0.01340(18)
H7 H 0.5577 0.0758 0.0152
C24 C 0.6315(3) 0.1452(2) 0.06903(18)
C25 C 0.5813(3) 0.1258(2) 0.12825(18)
C26 C 0.7024(3) 0.1957(2) 0.06880(17)
C27 C 0.7376(3) 0.2295(2) 0.12591(18)
H8 H 0.7119 0.2175 0.1654
C28 C 0.8061(3) 0.2777(2) 0.12473(18)
H9 H 0.8278 0.2991 0.1631
C29 C 0.8462(3) 0.29662(19) 0.06588(17)
C30 C 0.9142(3) 0.34968(19) 0.06301(18)
C31 C 0.9470(3) 0.38857(19) 0.12119(16)
C32 C 0.9532(3) 0.36711(19) 0.00569(17)
H10 H 0.9974 0.4037 0.0046
C39 C 0.7429(3) 0.2131(2) 0.00965(17)
C40 C 0.8165(3) 0.26380(19) 0.00857(17)
O11 O 0.5696(2) 0.06418(13) 0.13958(13)
O12 O 0.5499(2) 0.17583(14) 0.16063(13)
O13 O 0.9912(2) 0.35518(15) 0.16400(13)
O14 O 0.9318(3) 0.45052(14) 0.12137(13)
Ni6 Ni 0.44797(4) 0.02502(3) 0.17682(3)
Ni10 Ni 0.52718(4) 0.17732(3) 0.25584(3)
Ni13 Ni 0.97571(4) 0.52249(3) 0.18495(3)
C1 C 0.7093(3) 0.0519(2) 0.7557(2)
C2 C 0.8133(3) 0.0557(2) 0.7419(2)
C3 C 0.8504(3) 0.1205(2) 0.7408(2)
H1 H 0.8092 0.1588 0.7436
C4 C 0.9471(3) 0.13082(19) 0.7357(2)
C5 C 0.9798(3) 0.2033(2) 0.74199(18)
C19 C 0.9693(3) 0.0072(2) 0.7266(2)
C21 C 0.5896(3) 0.10063(19) 0.89575(18)
C22 C 0.6352(3) 0.1323(2) 0.95471(17)
C33 C 0.9289(3) 0.3323(2) 0.94985(17)
C34 C 0.9778(3) 0.3551(2) 0.89094(18)
C35 C 0.8580(3) 0.28114(19) 0.94973(17)
C36 C 0.8217(3) 0.2479(2) 0.89295(18)
H11 H 0.8486 0.2586 0.8535
C37 C 0.7496(3) 0.2014(2) 0.89404(18)
H12 H 0.7270 0.1813 0.8552
C38 C 0.7070(3) 0.1819(2) 0.95225(18)
Ni2 Ni 0.52956(4) 0.13167(3) 0.75782(3)
O1 O 0.6826(2) 0.00661(15) 0.79406(14)
O2 O 0.6571(2) 0.09640(16) 0.73049(16)
O3 O 0.9181(2) 0.25060(13) 0.73452(13)
O9 O 0.5742(2) 0.13878(15) 0.84981(14)
O10 O 0.5679(2) 0.03864(14) 0.89892(13)
O16 O 0.9965(2) 0.31113(14) 0.84953(12)
O17 O 0.47407(18) 0.03844(12) 0.76378(11)
H13 H 0.4173 0.0445 0.7715
O18 O 0.95887(18) 0.41146(12) 0.75339(11)
H14 H 0.9037 0.4043 0.7643
O20 O 0.8882(3) 0.5024(3) 0.8505(2)
H17 H 0.8778 0.4632 0.8660
H18 H 0.9093 0.5290 0.8798
Ni5 Ni 0.94797(4) 0.47498(3) 0.67682(3)
O23 O 0.4221(2) 0.20419(13) 0.78035(14)
O24 O 0.5635(2) 0.23782(13) 0.75249(13)
O27 O 0.4912(2) 0.14482(15) 0.66400(13)
C15 C 0.9901(3) 0.8822(2) 0.7226(2)
C16 C 0.8900(4) 0.8755(2) 0.7238(3)
H5 H 0.8622 0.8313 0.7207
C17 C 0.8332(4) 0.9303(2) 0.7292(3)
H6 H 0.7664 0.9239 0.7305
C18 C 0.8714(3) 0.9986(2) 0.7331(2)
Ni1 Ni 0.55203(4) 0.97498(3) 0.82318(3)
O8 O 0.9365(2) 0.73782(13) 0.74751(13)
O19 O 0.6310(3) 0.90360(19) 0.87836(18)
H15 H 0.6856 0.9148 0.8659
H16 H 0.6225 0.9210 0.9148
Ni7 Ni 0.97044(4) 0.63167(3) 0.74218(3)
O25 O 0.4304(2) 0.93582(13) 0.86042(13)
O30 O 0.54113(18) 0.91146(12) 0.74661(11)
H13_2 H 0.0827 0.5445 0.7285
Ni6_2 Ni 0.05203(4) 0.52502(3) 0.32318(3)
O25_2 O 0.0696(2) 0.43582(13) 0.63958(13)
O27_2 O 0.0088(2) 0.64482(15) 0.83600(13)
O20_2 O 0.6118(3) 0.0024(3) 0.6495(2)
H18_2 H 0.5907 0.0290 0.6202
Ni13_2 Ni 0.52429(4) 0.02249(3) 0.31505(3)
O28_2 O 0.4318(3) 0.04948(14) 0.62137(13)
C1_2 C 0.7907(3) 0.5519(2) 0.7443(2)
C2_2 C 0.6867(3) 0.5557(2) 0.7581(2)
C3_2 C 0.6496(3) 0.6205(2) 0.7592(2)
H1_2 H 0.6908 0.6588 0.7564
C4_2 C 0.5529(3) 0.63082(19) 0.7643(2)
C5_2 C 0.5202(3) 0.7033(2) 0.75801(18)
C6_2 C 0.4918(3) 0.5747(2) 0.7721(2)
C7_2 C 0.3923(3) 0.5814(2) 0.7794(3)
H2_2 H 0.3651 0.6258 0.7802
C8_2 C 0.3354(3) 0.5268(2) 0.7850(3)
H3_2 H 0.2694 0.5340 0.7903
C9_2 C 0.3702(3) 0.4585(2) 0.7835(2)
C10_2 C 0.3106(3) 0.3996(2) 0.78446(19)
C11_2 C 0.2039(3) 0.40264(19) 0.78724(18)
C12_2 C 0.3508(3) 0.3357(2) 0.78068(19)
H4_2 H 0.3098 0.2972 0.7802
C13_2 C 0.4483(3) 0.32455(19) 0.7776(2)
C14_2 C 0.4814(3) 0.2513(2) 0.76945(19)
C15_2 C 0.5099(3) 0.3822(2) 0.7774(2)
C16_2 C 0.6100(4) 0.3755(2) 0.7762(3)
H5_2 H 0.6378 0.3313 0.7793
C17_2 C 0.6668(4) 0.4303(2) 0.7708(3)
H6_2 H 0.7336 0.4239 0.7695
C18_2 C 0.6286(3) 0.4986(2) 0.7669(2)
C19_2 C 0.5307(3) 0.5072(2) 0.7734(2)
C20_2 C 0.4694(3) 0.4488(2) 0.7783(2)
C21_2 C 0.9104(3) 0.60063(19) 0.60425(18)
C22_2 C 0.8648(3) 0.6323(2) 0.54529(17)
C23_2 C 0.8983(3) 0.6124(2) 0.48660(18)
H7_2 H 0.9423 0.5758 0.4848
C24_2 C 0.8685(3) 0.6452(2) 0.43097(18)
C25_2 C 0.9187(3) 0.6258(2) 0.37175(18)
C26_2 C 0.7976(3) 0.6957(2) 0.43120(17)
C27_2 C 0.7624(3) 0.7295(2) 0.37409(18)
H8_2 H 0.7881 0.7175 0.3346
C28_2 C 0.6939(3) 0.7777(2) 0.37527(18)
H9_2 H 0.6722 0.7991 0.3369
C29_2 C 0.6538(3) 0.79662(19) 0.43412(17)
C30_2 C 0.5858(3) 0.84968(19) 0.43699(18)
C31_2 C 0.5530(3) 0.88857(19) 0.37881(16)
C32_2 C 0.5468(3) 0.86711(19) 0.49431(17)
H10_2 H 0.5026 0.9037 0.4954
C33_2 C 0.5711(3) 0.8323(2) 0.55015(17)
C34_2 C 0.5222(3) 0.8551(2) 0.60906(18)
C35_2 C 0.6420(3) 0.78114(19) 0.55027(17)
C36_2 C 0.6783(3) 0.7479(2) 0.60705(18)
H11_2 H 0.6514 0.7586 0.6465
C37_2 C 0.7504(3) 0.7014(2) 0.60596(18)
H12_2 H 0.7730 0.6813 0.6448
C38_2 C 0.7930(3) 0.6819(2) 0.54775(18)
C39_2 C 0.7571(3) 0.7131(2) 0.49035(17)
C40_2 C 0.6835(3) 0.76380(19) 0.49143(17)
O1_2 O 0.8174(2) 0.50661(15) 0.70594(14)
O2_2 O 0.8429(2) 0.59640(16) 0.76951(16)
O3_2 O 0.5819(2) 0.75060(13) 0.76548(13)
O4_2 O 0.4356(2) 0.71815(13) 0.74357(12)
O9_2 O 0.9258(2) 0.63878(15) 0.65019(14)
O10_2 O 0.9321(2) 0.53864(14) 0.60108(13)
O11_2 O 0.9304(2) 0.56418(13) 0.36042(13)
O12_2 O 0.9501(2) 0.67583(14) 0.33937(13)
O13_2 O 0.5088(2) 0.85518(15) 0.33600(13)
O14_2 O 0.5682(3) 0.95052(14) 0.37863(13)
O15_2 O 0.4980(3) 0.91539(17) 0.61057(15)
O16_2 O 0.5035(2) 0.81113(14) 0.65047(12)
H14_2 H 0.5963 0.9043 0.7357
O19_2 O 0.8690(3) 0.40360(19) 0.62164(18)
H15_2 H 0.8144 0.4148 0.6341
H16_2 H 0.8775 0.4210 0.5852
H17_2 H 0.6222 0.9632 0.6340
Ni8_2 Ni 0.47044(4) 0.86833(3) 0.24218(3)
Ni10_2 Ni 0.97282(4) 0.67732(3) 0.24416(3)
O26_2 O 0.4501(2) 0.82417(14) 0.83937(13)
C15_3 C 0.0099(3) 0.1178(2) 0.2774(2)
C16_3 C 0.1100(4) 0.1245(2) 0.2762(3)
H5_3 H 0.1378 0.1687 0.2793
C17_3 C 0.1668(4) 0.0697(2) 0.2708(3)
H6_3 H 0.2336 0.0761 0.2695
C18_3 C 0.1286(3) 0.0014(2) 0.2669(2)
O8_2 O 0.0635(2) 0.26218(13) 0.25249(13)
O19_3 O 0.3690(3) 0.09640(19) 0.12164(18)
H15_3 H 0.3144 0.0852 0.1341
H16_3 H 0.3775 0.0790 0.0852
O30_2 O 0.45887(18) 0.08854(12) 0.25339(11)
C1_3 C 0.2907(3) 0.9481(2) 0.2443(2)
C2_3 C 0.1867(3) 0.9443(2) 0.2581(2)
C3_3 C 0.1496(3) 0.8795(2) 0.2592(2)
H1_3 H 0.1908 0.8412 0.2564
C4_3 C 0.0529(3) 0.86918(19) 0.2643(2)
C5_3 C 0.0202(3) 0.7967(2) 0.25801(18)
C19_3 C 0.0307(3) 0.9928(2) 0.2734(2)
C21_3 C 0.4104(3) 0.89937(19) 0.10425(18)
C22_3 C 0.3648(3) 0.8677(2) 0.04529(17)
C33_3 C 0.0711(3) 0.6677(2) 0.05015(17)
C34_3 C 0.0222(3) 0.6449(2) 0.10906(18)
C35_3 C 0.1420(3) 0.71886(19) 0.05027(17)
C36_3 C 0.1783(3) 0.7521(2) 0.10705(18)
H11_3 H 0.1514 0.7414 0.1465
C37_3 C 0.2504(3) 0.7986(2) 0.10596(18)
H12_3 H 0.2730 0.8187 0.1448
C38_3 C 0.2930(3) 0.8181(2) 0.04775(18)
O1_3 O 0.3174(2) 0.99339(15) 0.20594(14)
O2_3 O 0.3429(2) 0.90360(16) 0.26951(16)
O3_3 O 0.0819(2) 0.74940(13) 0.26548(13)
O9_3 O 0.4258(2) 0.86122(15) 0.15019(14)
O10_3 O 0.4321(2) 0.96136(14) 0.10108(13)
O16_3 O 0.0035(2) 0.68887(14) 0.15047(12)
O17_2 O 0.52593(18) 0.96156(12) 0.23622(11)
H13_3 H 0.5827 0.9555 0.2285
O18_2 O 0.04113(18) 0.58854(12) 0.24661(11)
H14_3 H 0.0963 0.5957 0.2357
O20_3 O 0.1118(3) 0.4976(3) 0.1495(2)
H17_3 H 0.1222 0.5368 0.1340
H18_3 H 0.0907 0.4710 0.1202
O23_2 O 0.5779(2) 0.79581(13) 0.21965(14)
O24_2 O 0.4365(2) 0.76218(13) 0.24751(13)
C23_3 C 0.3983(3) 0.8876(2) 0.98660(18)
H7_3 H 0.4423 0.9242 0.9848
C24_3 C 0.3685(3) 0.8548(2) 0.93097(18)
C25_3 C 0.4187(3) 0.8742(2) 0.87175(18)
C26_3 C 0.2976(3) 0.8043(2) 0.93120(17)
C27_3 C 0.2624(3) 0.7705(2) 0.87409(18)
H8_3 H 0.2881 0.7825 0.8346
C28_3 C 0.1939(3) 0.7223(2) 0.87527(18)
H9_3 H 0.1722 0.7009 0.8369
C29_3 C 0.1538(3) 0.70338(19) 0.93412(17)
C30_3 C 0.0858(3) 0.65032(19) 0.93699(18)
C31_3 C 0.0530(3) 0.61143(19) 0.87881(16)
C32_3 C 0.0468(3) 0.63289(19) 0.99431(17)
H10_3 H 0.0026 0.5963 0.9954
C39_3 C 0.2571(3) 0.7869(2) 0.99035(17)
C40_3 C 0.1835(3) 0.73620(19) 0.99143(17)
C9_3 C 0.8702(3) 0.0415(2) 0.2835(2)
C10_3 C 0.8106(3) 0.1004(2) 0.28446(19)
C11_3 C 0.7039(3) 0.09736(19) 0.28724(18)
C12_3 C 0.8508(3) 0.1643(2) 0.28068(19)
H4_3 H 0.8098 0.2028 0.2802
C13_3 C 0.9483(3) 0.17545(19) 0.2776(2)
C14_3 C 0.9814(3) 0.2487(2) 0.26945(19)
C20_3 C 0.9694(3) 0.0512(2) 0.2783(2)
O5_2 O 0.6634(2) 0.04473(14) 0.30517(15)
O6_2 O 0.6614(2) 0.15086(15) 0.27076(16)
O7_2 O 0.9221(2) 0.29581(13) 0.28035(14)
C6_3 C 0.9918(3) 0.9253(2) 0.2721(2)
C7_3 C 0.8923(3) 0.9186(2) 0.2794(3)
H2_3 H 0.8651 0.8742 0.2802
C8_3 C 0.8354(3) 0.9732(2) 0.2850(3)
H3_3 H 0.7694 0.9660 0.2903
O4_3 O 0.9356(2) 0.78185(13) 0.24357(12)
O15_3 O 0.9980(3) 0.58461(17) 0.11057(15)
O21_2 O 0.8366(2) 0.54473(14) 0.19483(15)
O22_2 O 0.8386(2) 0.65086(15) 0.22924(16)
O29_2 O 0.97407(18) 0.46156(12) 0.26378(11)
C1_4 C 0.2093(3) 0.4481(2) 0.2557(2)
C2_4 C 0.3133(3) 0.4443(2) 0.2419(2)
C3_4 C 0.3504(3) 0.3795(2) 0.2408(2)
H1_4 H 0.3092 0.3412 0.2436
C4_4 C 0.4471(3) 0.36918(19) 0.2357(2)
C5_4 C 0.4798(3) 0.2967(2) 0.24199(18)
C6_4 C 0.5082(3) 0.4253(2) 0.2279(2)
C7_4 C 0.6077(3) 0.4186(2) 0.2206(3)
H2_4 H 0.6349 0.3742 0.2198
C8_4 C 0.6646(3) 0.4732(2) 0.2150(3)
H3_4 H 0.7306 0.4660 0.2097
C9_4 C 0.6298(3) 0.5415(2) 0.2165(2)
C10_4 C 0.6894(3) 0.6004(2) 0.21554(19)
C11_4 C 0.7961(3) 0.59736(19) 0.21276(18)
C12_4 C 0.6492(3) 0.6643(2) 0.21932(19)
H4_4 H 0.6902 0.7028 0.2198
C13_4 C 0.5517(3) 0.67545(19) 0.2224(2)
C14_4 C 0.5186(3) 0.7487(2) 0.23055(19)
C15_4 C 0.4901(3) 0.6178(2) 0.2226(2)
C16_4 C 0.3900(4) 0.6245(2) 0.2238(3)
H5_4 H 0.3622 0.6687 0.2207
C17_4 C 0.3332(4) 0.5697(2) 0.2292(3)
H6_4 H 0.2664 0.5761 0.2305
C18_4 C 0.3714(3) 0.5014(2) 0.2331(2)
C19_4 C 0.4693(3) 0.4928(2) 0.2266(2)
C20_4 C 0.5306(3) 0.5512(2) 0.2217(2)
C21_4 C 0.0896(3) 0.39937(19) 0.39575(18)
C22_4 C 0.1352(3) 0.3677(2) 0.45471(17)
C23_4 C 0.1017(3) 0.3876(2) 0.51340(18)
H7_4 H 0.0577 0.4242 0.5152
C24_4 C 0.1315(3) 0.3548(2) 0.56903(18)
C25_4 C 0.0813(3) 0.3742(2) 0.62825(18)
C26_4 C 0.2024(3) 0.3043(2) 0.56880(17)
C27_4 C 0.2376(3) 0.2705(2) 0.62591(18)
H8_4 H 0.2119 0.2825 0.6654
C28_4 C 0.3061(3) 0.2223(2) 0.62473(18)
H9_4 H 0.3278 0.2009 0.6631
C29_4 C 0.3462(3) 0.20338(19) 0.56588(17)
C30_4 C 0.4142(3) 0.15032(19) 0.56301(18)
C31_4 C 0.4470(3) 0.11143(19) 0.62119(16)
C32_4 C 0.4532(3) 0.13289(19) 0.50569(17)
H10_4 H 0.4974 0.0963 0.5046
C33_4 C 0.4289(3) 0.1677(2) 0.44985(17)
C34_4 C 0.4778(3) 0.1449(2) 0.39094(18)
C35_4 C 0.3580(3) 0.21886(19) 0.44973(17)
C36_4 C 0.3217(3) 0.2521(2) 0.39295(18)
H11_4 H 0.3486 0.2414 0.3535
C37_4 C 0.2496(3) 0.2986(2) 0.39404(18)
H12_4 H 0.2270 0.3187 0.3552
C38_4 C 0.2070(3) 0.3181(2) 0.45225(18)
C39_4 C 0.2429(3) 0.2869(2) 0.50965(17)
C40_4 C 0.3165(3) 0.23620(19) 0.50857(17)
O1_4 O 0.1826(2) 0.49339(15) 0.29406(14)
O2_4 O 0.1571(2) 0.40360(16) 0.23049(16)
O3_4 O 0.4181(2) 0.24940(13) 0.23452(13)
O4_4 O 0.5644(2) 0.28185(13) 0.25643(12)
O9_4 O 0.0742(2) 0.36122(15) 0.34981(14)
O10_4 O 0.0679(2) 0.46136(14) 0.39892(13)
O15_4 O 0.5020(3) 0.08461(17) 0.38943(15)
O16_4 O 0.4965(2) 0.18887(14) 0.34953(12)
H14_4 H 0.4037 0.0957 0.2643
O19_4 O 0.1310(3) 0.59640(19) 0.37836(18)
H15_4 H 0.1856 0.5852 0.3659
H16_4 H 0.1225 0.5790 0.4148
H17_4 H 0.3778 0.0368 0.3660
O20_4 O 0.3882(3) 0.9976(3) 0.3505(2)
H18_4 H 0.4093 0.9710 0.3798
H13_4 H 0.9173 0.4555 0.2715
loop_
_geom_bond_atom_site_label_1
_geom_bond_atom_site_label_2
_geom_bond_site_symmetry_1
_geom_bond_site_symmetry_2
C7 C6 1_555 1_555
H2 C7 1_555 1_555
C8 C7 1_555 1_555
H3 C8 1_555 1_555
Ni3 Ni4 1_555 1_555
Ni4 O15 1_555 1_555
O21 Ni4 1_555 1_555
O22 Ni3 1_555 1_555
O26 Ni3 1_555 1_555
O28 Ni4 1_555 1_555
O29 Ni4 1_555 1_555
Ni3 O4 1_555 1_555
C10 C9 1_555 1_555
C11 C10 1_555 1_555
C12 C10 1_555 1_555
H4 C12 1_555 1_555
C13 C12 1_555 1_555
C14 C13 1_555 1_555
C20 C9 1_555 1_555
O5 C11 1_555 1_555
O6 C11 1_555 1_555
O7 C14 1_555 1_555
Ni9 O6 1_555 1_555
Ni12 O5 1_555 1_555
Ni9 Ni12 1_555 1_555
C23 H7 1_555 1_555
C24 C23 1_555 1_555
C25 C24 1_555 1_555
C26 C24 1_555 1_555
C27 C26 1_555 1_555
H8 C27 1_555 1_555
C28 C27 1_555 1_555
H9 C28 1_555 1_555
C29 C28 1_555 1_555
C30 C29 1_555 1_555
C31 C30 1_555 1_555
C32 C30 1_555 1_555
H10 C32 1_555 1_555
C39 C26 1_555 1_555
C40 C29 1_555 1_555
O11 C25 1_555 1_555
O12 C25 1_555 1_555
O13 C31 1_555 1_555
O14 C31 1_555 1_555
Ni6 O11 1_555 1_555
Ni10 O12 1_555 1_555
Ni13 O14 1_555 1_555
C39 C40 1_555 1_555
C1 C2 1_555 1_555
C2 C3 1_555 1_555
C3 H1 1_555 1_555
C4 C3 1_555 1_555
C5 C4 1_555 1_555
C21 C22 1_555 1_555
C34 C33 1_555 1_555
C35 C33 1_555 1_555
C36 C35 1_555 1_555
H11 C36 1_555 1_555
C37 C36 1_555 1_555
H12 C37 1_555 1_555
C38 C22 1_555 1_555
Ni2 O2 1_555 1_555
O1 C1 1_555 1_555
O2 C1 1_555 1_555
O3 C5 1_555 1_555
O9 C21 1_555 1_555
O10 C21 1_555 1_555
O16 C34 1_555 1_555
H13 O17 1_555 1_555
H14 O18 1_555 1_555
H17 O20 1_555 1_555
H18 O20 1_555 1_555
O23 Ni2 1_555 1_555
O24 Ni2 1_555 1_555
O27 Ni2 1_555 1_555
C37 C38 1_555 1_555
Ni2 O9 1_555 1_555
Ni2 O17 1_555 1_555
O18 Ni5 1_555 1_555
C16 C15 1_555 1_555
H5 C16 1_555 1_555
C17 C16 1_555 1_555
H6 C17 1_555 1_555
O19 Ni1 1_555 1_555
H15 O19 1_555 1_555
H16 O19 1_555 1_555
Ni12 Ni1 1_555 1_555
O25 Ni1 1_555 1_555
O30 Ni1 1_555 1_555
C17 C18 1_555 1_555
O8 Ni7 1_555 1_555
Ni12 O30 1_555 1_555
H13_2 O29 1_555 1_555
H18_2 O20_2 1_555 1_555
C1_2 C2_2 1_555 1_555
C2_2 C3_2 1_555 1_555
C3_2 H1_2 1_555 1_555
C4_2 C3_2 1_555 1_555
C5_2 C4_2 1_555 1_555
C6_2 C4_2 1_555 1_555
C7_2 C6_2 1_555 1_555
H2_2 C7_2 1_555 1_555
C8_2 C7_2 1_555 1_555
H3_2 C8_2 1_555 1_555
C9_2 C8_2 1_555 1_555
C10_2 C9_2 1_555 1_555
C11_2 C10_2 1_555 1_555
C12_2 C10_2 1_555 1_555
H4_2 C12_2 1_555 1_555
C13_2 C12_2 1_555 1_555
C14_2 C13_2 1_555 1_555
C15_2 C13_2 1_555 1_555
C16_2 C15_2 1_555 1_555
H5_2 C16_2 1_555 1_555
C17_2 C16_2 1_555 1_555
H6_2 C17_2 1_555 1_555
C18_2 C2_2 1_555 1_555
C19_2 C6_2 1_555 1_555
C20_2 C9_2 1_555 1_555
C21_2 C22_2 1_555 1_555
C22_2 C23_2 1_555 1_555
C23_2 H7_2 1_555 1_555
C24_2 C23_2 1_555 1_555
C25_2 C24_2 1_555 1_555
C26_2 C24_2 1_555 1_555
C27_2 C26_2 1_555 1_555
H8_2 C27_2 1_555 1_555
C28_2 C27_2 1_555 1_555
H9_2 C28_2 1_555 1_555
C29_2 C28_2 1_555 1_555
C30_2 C29_2 1_555 1_555
C31_2 C30_2 1_555 1_555
C32_2 C30_2 1_555 1_555
H10_2 C32_2 1_555 1_555
C33_2 C32_2 1_555 1_555
C34_2 C33_2 1_555 1_555
C35_2 C33_2 1_555 1_555
C36_2 C35_2 1_555 1_555
H11_2 C36_2 1_555 1_555
C37_2 C36_2 1_555 1_555
H12_2 C37_2 1_555 1_555
C38_2 C22_2 1_555 1_555
C39_2 C26_2 1_555 1_555
C40_2 C29_2 1_555 1_555
Ni5 Ni7 1_555 1_555
Ni7 O2_2 1_555 1_555
Ni12 O15_2 1_555 1_555
O1_2 C1_2 1_555 1_555
O2_2 C1_2 1_555 1_555
O3_2 C5_2 1_555 1_555
O4_2 C5_2 1_555 1_555
O21 C11_2 1_555 1_555
O22 C11_2 1_555 1_555
O23 C14_2 1_555 1_555
O24 C14_2 1_555 1_555
O9_2 C21_2 1_555 1_555
O10_2 C21_2 1_555 1_555
O11_2 C25_2 1_555 1_555
O12_2 C25_2 1_555 1_555
O13_2 C31_2 1_555 1_555
O14_2 C31_2 1_555 1_555
O15_2 C34_2 1_555 1_555
O16_2 C34_2 1_555 1_555
O30 Ni9 1_555 1_555
H14_2 O30 1_555 1_555
O19_2 Ni5 1_555 1_555
H15_2 O19_2 1_555 1_555
H16_2 O19_2 1_555 1_555
Ni8_2 O13_2 1_555 1_555
Ni10_2 O12_2 1_555 1_555
O26_2 Ni9 1_555 1_555
C15_2 C20_2 1_555 1_555
C17_2 C18_2 1_555 1_555
C18_2 C19_2 1_555 1_555
C19_2 C20_2 1_555 1_555
C35_2 C40_2 1_555 1_555
C37_2 C38_2 1_555 1_555
C38_2 C39_2 1_555 1_555
C39_2 C40_2 1_555 1_555
Ni5 O1_2 1_555 1_555
Ni5 O10_2 1_555 1_555
Ni7 O9_2 1_555 1_555
Ni9 O3_2 1_555 1_555
Ni9 O4_2 1_555 1_555
Ni9 O16_2 1_555 1_555
C16_3 C15_3 1_555 1_555
H5_3 C16_3 1_555 1_555
C17_3 C16_3 1_555 1_555
H6_3 C17_3 1_555 1_555
O19_3 Ni6 1_555 1_555
H15_3 O19_3 1_555 1_555
H16_3 O19_3 1_555 1_555
Ni13_2 Ni6 1_555 1_555
O30_2 Ni6 1_555 1_555
C17_3 C18_3 1_555 1_555
O8_2 Ni8 1_555 1_555
Ni13_2 O30_2 1_555 1_555
C1_3 C2_3 1_555 1_555
C2_3 C3_3 1_555 1_555
C3_3 H1_3 1_555 1_555
C4_3 C3_3 1_555 1_555
C5_3 C4_3 1_555 1_555
C21_3 C22_3 1_555 1_555
C34_3 C33_3 1_555 1_555
C35_3 C33_3 1_555 1_555
C36_3 C35_3 1_555 1_555
H11_3 C36_3 1_555 1_555
C37_3 C36_3 1_555 1_555
H12_3 C37_3 1_555 1_555
C38_3 C22_3 1_555 1_555
Ni8_2 O2_3 1_555 1_555
O1_3 C1_3 1_555 1_555
O2_3 C1_3 1_555 1_555
O3_3 C5_3 1_555 1_555
O9_3 C21_3 1_555 1_555
O10_3 C21_3 1_555 1_555
O16_3 C34_3 1_555 1_555
H13_3 O17_2 1_555 1_555
H14_3 O18_2 1_555 1_555
H17_3 O20_3 1_555 1_555
H18_3 O20_3 1_555 1_555
O23_2 Ni8_2 1_555 1_555
O24_2 Ni8_2 1_555 1_555
C37_3 C38_3 1_555 1_555
Ni8_2 O9_3 1_555 1_555
Ni8_2 O17_2 1_555 1_555
O18_2 Ni6_2 1_555 1_555
C23_3 H7_3 1_555 1_555
C24_3 C23_3 1_555 1_555
C25_3 C24_3 1_555 1_555
C26_3 C24_3 1_555 1_555
C27_3 C26_3 1_555 1_555
H8_3 C27_3 1_555 1_555
C28_3 C27_3 1_555 1_555
H9_3 C28_3 1_555 1_555
C29_3 C28_3 1_555 1_555
C30_3 C29_3 1_555 1_555
C31_3 C30_3 1_555 1_555
C32_3 C30_3 1_555 1_555
H10_3 C32_3 1_555 1_555
C39_3 C26_3 1_555 1_555
C40_3 C29_3 1_555 1_555
O25 C25_3 1_555 1_555
O26_2 C25_3 1_555 1_555
O27_2 C31_3 1_555 1_555
O28 C31_3 1_555 1_555
C39_3 C40_3 1_555 1_555
C10_3 C9_3 1_555 1_555
C11_3 C10_3 1_555 1_555
C12_3 C10_3 1_555 1_555
H4_3 C12_3 1_555 1_555
C13_3 C12_3 1_555 1_555
C14_3 C13_3 1_555 1_555
C20_3 C9_3 1_555 1_555
O5_2 C11_3 1_555 1_555
O6_2 C11_3 1_555 1_555
O7_2 C14_3 1_555 1_555
Ni10 O6_2 1_555 1_555
Ni13_2 O5_2 1_555 1_555
Ni10 Ni13_2 1_555 1_555
C7_3 C6_3 1_555 1_555
H2_3 C7_3 1_555 1_555
C8_3 C7_3 1_555 1_555
H3_3 C8_3 1_555 1_555
Ni10_2 Ni13 1_555 1_555
Ni13 O15_3 1_555 1_555
O21_2 Ni13 1_555 1_555
O22_2 Ni10_2 1_555 1_555
O29_2 Ni13 1_555 1_555
Ni10_2 O4_3 1_555 1_555
C1_4 C2_4 1_555 1_555
C2_4 C3_4 1_555 1_555
C3_4 H1_4 1_555 1_555
C4_4 C3_4 1_555 1_555
C5_4 C4_4 1_555 1_555
C6_4 C4_4 1_555 1_555
C7_4 C6_4 1_555 1_555
H2_4 C7_4 1_555 1_555
C8_4 C7_4 1_555 1_555
H3_4 C8_4 1_555 1_555
C9_4 C8_4 1_555 1_555
C10_4 C9_4 1_555 1_555
C11_4 C10_4 1_555 1_555
C12_4 C10_4 1_555 1_555
H4_4 C12_4 1_555 1_555
C13_4 C12_4 1_555 1_555
C14_4 C13_4 1_555 1_555
C15_4 C13_4 1_555 1_555
C16_4 C15_4 1_555 1_555
H5_4 C16_4 1_555 1_555
C17_4 C16_4 1_555 1_555
H6_4 C17_4 1_555 1_555
C18_4 C2_4 1_555 1_555
C19_4 C6_4 1_555 1_555
C20_4 C9_4 1_555 1_555
C21_4 C22_4 1_555 1_555
C22_4 C23_4 1_555 1_555
C23_4 H7_4 1_555 1_555
C24_4 C23_4 1_555 1_555
C25_4 C24_4 1_555 1_555
C26_4 C24_4 1_555 1_555
C27_4 C26_4 1_555 1_555
H8_4 C27_4 1_555 1_555
C28_4 C27_4 1_555 1_555
H9_4 C28_4 1_555 1_555
C29_4 C28_4 1_555 1_555
C30_4 C29_4 1_555 1_555
C31_4 C30_4 1_555 1_555
C32_4 C30_4 1_555 1_555
H10_4 C32_4 1_555 1_555
C33_4 C32_4 1_555 1_555
C34_4 C33_4 1_555 1_555
C35_4 C33_4 1_555 1_555
C36_4 C35_4 1_555 1_555
H11_4 C36_4 1_555 1_555
C37_4 C36_4 1_555 1_555
H12_4 C37_4 1_555 1_555
C38_4 C22_4 1_555 1_555
C39_4 C26_4 1_555 1_555
C40_4 C29_4 1_555 1_555
Ni6_2 Ni8 1_555 1_555
Ni8 O2_4 1_555 1_555
Ni13_2 O15_4 1_555 1_555
O1_4 C1_4 1_555 1_555
O2_4 C1_4 1_555 1_555
O3_4 C5_4 1_555 1_555
O4_4 C5_4 1_555 1_555
O21_2 C11_4 1_555 1_555
O22_2 C11_4 1_555 1_555
O23_2 C14_4 1_555 1_555
O24_2 C14_4 1_555 1_555
O9_4 C21_4 1_555 1_555
O10_4 C21_4 1_555 1_555
O25_2 C25_4 1_555 1_555
O26 C25_4 1_555 1_555
O27 C31_4 1_555 1_555
O28_2 C31_4 1_555 1_555
O15_4 C34_4 1_555 1_555
O16_4 C34_4 1_555 1_555
O30_2 Ni10 1_555 1_555
H14_4 O30_2 1_555 1_555
O19_4 Ni6_2 1_555 1_555
H15_4 O19_4 1_555 1_555
H16_4 O19_4 1_555 1_555
C15_4 C20_4 1_555 1_555
C17_4 C18_4 1_555 1_555
C18_4 C19_4 1_555 1_555
C19_4 C20_4 1_555 1_555
C35_4 C40_4 1_555 1_555
C37_4 C38_4 1_555 1_555
C38_4 C39_4 1_555 1_555
C39_4 C40_4 1_555 1_555
Ni6_2 O1_4 1_555 1_555
Ni6_2 O10_4 1_555 1_555
Ni8 O9_4 1_555 1_555
Ni10 O3_4 1_555 1_555
Ni10 O4_4 1_555 1_555
Ni10 O16_4 1_555 1_555
H18_4 O20_4 1_555 1_555
H13_4 O29_2 1_555 1_555

#END
