
###############################################################################
#
# This file contains modified crystal structure data generated from the
# MOF subset of the Cambridge Structural Database (CSD) v543 
# hosted by the Cambridge Crystallographic Data Centre (CCDC).
#
# This work is licensed under the Creative Commons
# Attribution-NonCommercial-ShareAlike 4.0 International License.
# To view a copy of this license, visit
# http://creativecommons.org/licenses/by-nc-sa/4.0/
# or send a letter to
# Creative Commons, PO Box 1866, Mountain View, CA 94042, USA.
#
# CIF created using the CSD Python API on 29 September 2022
# The structure has been converted into the P1 space group
# The structure has a 3D framework
# The original CSD entry OGAGEJ is in the monoclinic crystal system
# The framework has been calculated to contain at least 10.0% void space
# The void calculation uses a probe of radius 1.32A, grid spacing 0.4
#
###############################################################################

data_OGAGEJ
_chemical_formula_moiety         '(C52 H64 N8 O22 P8 Zn6)n'
_symmetry_cell_setting           triclinic
_symmetry_space_group_name_H-M   'P 1'
_symmetry_Int_Tables_number      1
_space_group_name_Hall           'P 1'
loop_
_symmetry_equiv_pos_site_id
_symmetry_equiv_pos_as_xyz
1 x,y,z
_cell_length_a                   10.3340(9)
_cell_length_b                   28.4469(16)
_cell_length_c                   11.7505(11)
_cell_angle_alpha                90
_cell_angle_beta                 117.350(11)
_cell_angle_gamma                90
_cell_volume                     3068.16
loop_
_atom_site_label
_atom_site_type_symbol
_atom_site_fract_x
_atom_site_fract_y
_atom_site_fract_z
C1 C 0.01210(18) 0.15833(6) 0.00183(16)
H1 H 0.1035 0.1429 0.0327
H2 H 0.0939 0.2228 0.0006
C11 C 0.00287(19) 0.42112(6) 0.11904(17)
H12 H 0.1045 0.4274 0.1583
Zn2 Zn 0.00371(2) 0.477940(7) 0.334250(19)
O7 O 0.11493(12) 0.44125(4) 0.48603(11)
O8 O 0.11405(12) 0.53121(4) 0.31816(12)
O9 O 0.12474(12) 0.05492(4) 0.06803(12)
Zn3 Zn 0.08260(2) 0.937671(6) 0.992331(18)
H6 H 0.9256 0.2974 0.0004
C10 C 0.94207(19) 0.39548(6) 0.00735(17)
C12 C 0.78037(19) 0.42808(6) 0.11744(17)
H13 H 0.7227 0.4399 0.1549
C13 C 0.71329(19) 0.40196(6) 0.00698(17)
N2 N 0.92398(15) 0.43771(5) 0.17496(13)
O2 O 0.87417(12) 0.04005(4) 0.14389(11)
O6 O 0.67382(13) 0.00162(5) 0.17110(12)
P1 P 0.71720(5) 0.045109(16) 0.12297(4)
H15 H 0.71671(5) 0.0794(5) 0.1942(10)
Zn1 Zn 0.91740(2) 0.062329(6) 0.007669(18)
O10 O 0.82618(13) 0.50162(5) 0.32890(12)
C3 C 0.87439(19) 0.22965(6) 0.93693(17)
C4 C 0.7522(2) 0.20268(6) 0.91281(19)
H3 H 0.6593 0.2172 0.8807
C5 C 0.76538(19) 0.15487(6) 0.93527(18)
H4 H 0.6806 0.1372 0.9192
C6 C 0.8692(2) 0.28203(6) 0.91621(19)
H5 H 0.9186 0.2892 0.8633
C7 C 0.71825(19) 0.30379(6) 0.85226(17)
H7 H 0.6706 0.2992 0.9078
H8 H 0.6588 0.2875 0.77
C8 C 0.7232(2) 0.35660(6) 0.82689(16)
H9 H 0.6227 0.3682 0.7743
H10 H 0.7779 0.3614 0.7772
C9 C 0.79389(19) 0.38495(5) 0.94843(16)
H14 H 0.6119 0.3956 0.9708
N1 N 0.89360(15) 0.13233(5) 0.97899(13)
O1 O 0.61493(12) 0.05875(4) 0.98603(11)
O3 O 0.80506(13) 0.02896(4) 0.84896(11)
Zn4 Zn 0.50371(2) 0.022060(7) 0.834250(19)
Zn5 Zn 0.49629(2) 0.977940(7) 0.165750(19)
O4 O 0.61405(12) 0.96879(4) 0.81816(12)
O5 O 0.87526(12) 0.94508(4) 0.93197(12)
P2 P 0.76622(5) 0.977129(15) 0.83037(4)
H16 H 0.76158(8) 0.96546(17) 0.7273(15)
O8_2 O 0.38595(12) 0.03121(4) 0.18184(12)
C1_2 C 0.48790(18) 0.65833(6) 0.49817(16)
H1_2 H 0.3965 0.6429 0.4673
C2 C 0.49276(19) 0.70599(6) 0.51727(16)
H2_2 H 0.4061 0.7228 0.4994
C3_2 C 0.62561(19) 0.72965(6) 0.56307(17)
C4_2 C 0.7478(2) 0.70268(6) 0.58719(19)
H3_2 H 0.8407 0.7172 0.6193
C5_2 C 0.73462(19) 0.65487(6) 0.56473(18)
H4_2 H 0.8194 0.6372 0.5808
C6_2 C 0.6308(2) 0.78203(6) 0.58379(19)
H5_2 H 0.5814 0.7892 0.6367
H6_2 H 0.5744 0.7974 0.4996
C7_2 C 0.78175(19) 0.80379(6) 0.64774(17)
H7_2 H 0.8294 0.7992 0.5922
H8_2 H 0.8412 0.7875 0.73
C8_2 C 0.7768(2) 0.85660(6) 0.67311(16)
H9_2 H 0.8773 0.8682 0.7257
H10_2 H 0.7221 0.8614 0.7228
C9_2 C 0.70611(19) 0.88495(5) 0.55157(16)
C10_2 C 0.55793(19) 0.89548(6) 0.49265(17)
H11 H 0.4986 0.8849 0.5298
C11_2 C 0.49713(19) 0.92112(6) 0.38096(17)
H12_2 H 0.3955 0.9274 0.3417
C12_2 C 0.71963(19) 0.92808(6) 0.38256(17)
H13_2 H 0.7773 0.9399 0.3451
C13_2 C 0.78671(19) 0.90196(6) 0.49302(17)
H14_2 H 0.8881 0.8956 0.5292
N1_2 N 0.60640(15) 0.63233(5) 0.52101(13)
N2_2 N 0.57602(15) 0.93771(5) 0.32504(13)
O1_2 O 0.88507(12) 0.55875(4) 0.51397(11)
O2_2 O 0.62583(12) 0.54005(4) 0.35611(11)
O3_2 O 0.69494(13) 0.52896(4) 0.65104(11)
O4_2 O 0.88595(12) 0.46879(4) 0.68184(12)
O5_2 O 0.62474(12) 0.44508(4) 0.56803(12)
P1_2 P 0.78280(5) 0.545109(16) 0.37703(4)
H15_2 H 0.78329(5) 0.5794(5) 0.3058(10)
P2_2 P 0.73378(5) 0.477129(15) 0.66963(4)
H16_2 H 0.73842(8) 0.46546(17) 0.7727(15)
Zn1_2 Zn 0.58260(2) 0.562329(6) 0.492331(18)
O7_2 O 0.38507(12) 0.94125(4) 0.01397(11)
O9_2 O 0.37526(12) 0.55492(4) 0.43197(12)
Zn3_2 Zn 0.41740(2) 0.437671(6) 0.507669(18)
Zn4_2 Zn 0.99629(2) 0.522060(7) 0.665750(19)
P2_3 P 0.23378(5) 0.022871(15) 0.16963(4)
H16_3 H 0.23842(8) 0.03454(17) 0.2727(15)
C3_3 C 0.12561(19) 0.77035(6) 0.06307(17)
C4_3 C 0.2478(2) 0.79732(6) 0.08719(19)
H3_3 H 0.3407 0.7828 0.1193
C5_3 C 0.23462(19) 0.84513(6) 0.06473(18)
H4_3 H 0.3194 0.8628 0.0808
C6_3 C 0.1308(2) 0.71797(6) 0.08379(19)
H5_3 H 0.0814 0.7108 0.1367
C7_3 C 0.28175(19) 0.69621(6) 0.14774(17)
H7_3 H 0.3294 0.7008 0.0922
H8_3 H 0.3412 0.7125 0.23
C8_3 C 0.2768(2) 0.64340(6) 0.17311(16)
H9_3 H 0.3773 0.6318 0.2257
H10_3 H 0.2221 0.6386 0.2228
C9_3 C 0.20611(19) 0.61505(5) 0.05157(16)
H14_3 H 0.3881 0.6044 0.0292
N1_3 N 0.10640(15) 0.86767(5) 0.02101(13)
O3_3 O 0.19494(13) 0.97104(4) 0.15104(11)
H6_3 H 0.0744 0.7026 0.9996
C10_3 C 0.05793(19) 0.60452(6) 0.99265(17)
C12_3 C 0.21963(19) 0.57192(6) 0.88256(17)
H13_3 H 0.2773 0.5601 0.8451
C13_3 C 0.28671(19) 0.59804(6) 0.99302(17)
N2_3 N 0.07602(15) 0.56229(5) 0.82504(13)
O2_3 O 0.12583(12) 0.95995(4) 0.85611(11)
O6_2 O 0.32618(13) 0.99838(5) 0.82890(12)
P1_3 P 0.28280(5) 0.954891(16) 0.87703(4)
H15_3 H 0.28329(5) 0.9206(5) 0.8058(10)
O10_2 O 0.17382(13) 0.49838(5) 0.67110(12)
C1_3 C 0.98790(18) 0.84167(6) 0.99817(16)
H1_3 H 0.8965 0.8571 0.9673
H2_3 H 0.9061 0.7772 0.9994
C11_3 C 0.99713(19) 0.57888(6) 0.88096(17)
H12_3 H 0.8955 0.5726 0.8417
C1_4 C 0.51210(18) 0.34167(6) 0.50183(16)
H1_4 H 0.6035 0.3571 0.5327
C2_2 C 0.50724(19) 0.29401(6) 0.48273(16)
H2_4 H 0.5939 0.2772 0.5006
C3_4 C 0.37439(19) 0.27035(6) 0.43693(17)
C4_4 C 0.2522(2) 0.29732(6) 0.41281(19)
H3_4 H 0.1593 0.2828 0.3807
C5_4 C 0.26538(19) 0.34513(6) 0.43527(18)
H4_4 H 0.1806 0.3628 0.4192
C6_4 C 0.3692(2) 0.21797(6) 0.41621(19)
H5_4 H 0.4186 0.2108 0.3633
H6_4 H 0.4256 0.2026 0.5004
C7_4 C 0.21825(19) 0.19621(6) 0.35226(17)
H7_4 H 0.1706 0.2008 0.4078
H8_4 H 0.1588 0.2125 0.27
C8_4 C 0.2232(2) 0.14340(6) 0.32689(16)
H9_4 H 0.1227 0.1318 0.2743
H10_4 H 0.2779 0.1386 0.2772
C9_4 C 0.29389(19) 0.11505(5) 0.44843(16)
C10_4 C 0.44207(19) 0.10452(6) 0.50735(17)
H11_2 H 0.5014 0.1151 0.4702
C11_4 C 0.50287(19) 0.07888(6) 0.61904(17)
H12_4 H 0.6045 0.0726 0.6583
C12_4 C 0.28037(19) 0.07192(6) 0.61744(17)
H13_4 H 0.2227 0.0601 0.6549
C13_4 C 0.21329(19) 0.09804(6) 0.50698(17)
H14_4 H 0.1119 0.1044 0.4708
N1_4 N 0.39360(15) 0.36767(5) 0.47899(13)
N2_4 N 0.42398(15) 0.06229(5) 0.67496(13)
O2_4 O 0.37417(12) 0.45995(4) 0.64389(11)
O3_4 O 0.30506(13) 0.47104(4) 0.34896(11)
P1_4 P 0.21720(5) 0.454891(16) 0.62297(4)
H15_4 H 0.21671(5) 0.4206(5) 0.6942(10)
P2_4 P 0.26622(5) 0.522871(15) 0.33037(4)
H16_4 H 0.26158(8) 0.53454(17) 0.2273(15)
C2_3 C 0.00724(19) 0.20599(6) 0.98273(16)
H11_3 H 0.0014 0.3849 0.9702
C2_4 C 0.99276(19) 0.79401(6) 0.01727(16)
H11_4 H 0.9986 0.6151 0.0298
loop_
_geom_bond_atom_site_label_1
_geom_bond_atom_site_label_2
_geom_bond_site_symmetry_1
_geom_bond_site_symmetry_2
C1 H1 1_555 1_555
H12 C11 1_555 1_555
O7 Zn2 1_555 1_555
O8 Zn2 1_555 1_555
C12 H13 1_555 1_555
O2 P1 1_555 1_555
O6 P1 1_555 1_555
P1 H15 1_555 1_555
C12 C13 1_555 1_555
C12 N2 1_555 1_555
O2 Zn1 1_555 1_555
C4 C3 1_555 1_555
H3 C4 1_555 1_555
C5 C4 1_555 1_555
H4 C5 1_555 1_555
C6 C3 1_555 1_555
H5 C6 1_555 1_555
C7 C6 1_555 1_555
H7 C7 1_555 1_555
H8 C7 1_555 1_555
C8 C7 1_555 1_555
H9 C8 1_555 1_555
H10 C8 1_555 1_555
C9 C8 1_555 1_555
Zn4 O1 1_555 1_555
C5 N1 1_555 1_555
O4 P2 1_555 1_555
O5 P2 1_555 1_555
P2 H16 1_555 1_555
C1_2 H1_2 1_555 1_555
C2 C1_2 1_555 1_555
H2_2 C2 1_555 1_555
C3_2 C2 1_555 1_555
C4_2 C3_2 1_555 1_555
H3_2 C4_2 1_555 1_555
C5_2 C4_2 1_555 1_555
H4_2 C5_2 1_555 1_555
C6_2 C3_2 1_555 1_555
H5_2 C6_2 1_555 1_555
H6_2 C6_2 1_555 1_555
C7_2 C6_2 1_555 1_555
H7_2 C7_2 1_555 1_555
H8_2 C7_2 1_555 1_555
C8_2 C7_2 1_555 1_555
H9_2 C8_2 1_555 1_555
H10_2 C8_2 1_555 1_555
C9_2 C8_2 1_555 1_555
C10_2 C9_2 1_555 1_555
H11 C10_2 1_555 1_555
C11_2 C10_2 1_555 1_555
H12_2 C11_2 1_555 1_555
C12_2 H13_2 1_555 1_555
C13_2 C9_2 1_555 1_555
H14_2 C13_2 1_555 1_555
N1_2 C1_2 1_555 1_555
N2_2 C11_2 1_555 1_555
O1_2 P1_2 1_555 1_555
O2_2 P1_2 1_555 1_555
O3_2 P2_2 1_555 1_555
O4_2 P2_2 1_555 1_555
O5_2 P2_2 1_555 1_555
O10 P1_2 1_555 1_555
P1_2 H15_2 1_555 1_555
P2_2 H16_2 1_555 1_555
Zn1_2 N1_2 1_555 1_555
Zn5 N2_2 1_555 1_555
O7_2 Zn5 1_555 1_555
O9_2 Zn1_2 1_555 1_555
Zn3_2 O5_2 1_555 1_555
Zn4_2 O1_2 1_555 1_555
C5_2 N1_2 1_555 1_555
C12_2 C13_2 1_555 1_555
C12_2 N2_2 1_555 1_555
O2_2 Zn1_2 1_555 1_555
O3_2 Zn1_2 1_555 1_555
O4_2 Zn4_2 1_555 1_555
O8_2 P2_3 1_555 1_555
O9 P2_3 1_555 1_555
P2_3 H16_3 1_555 1_555
C4_3 C3_3 1_555 1_555
H3_3 C4_3 1_555 1_555
C5_3 C4_3 1_555 1_555
H4_3 C5_3 1_555 1_555
C6_3 C3_3 1_555 1_555
H5_3 C6_3 1_555 1_555
C7_3 C6_3 1_555 1_555
H7_3 C7_3 1_555 1_555
H8_3 C7_3 1_555 1_555
C8_3 C7_3 1_555 1_555
H9_3 C8_3 1_555 1_555
H10_3 C8_3 1_555 1_555
C9_3 C8_3 1_555 1_555
C5_3 N1_3 1_555 1_555
C12_3 H13_3 1_555 1_555
O2_3 P1_3 1_555 1_555
O6_2 P1_3 1_555 1_555
P1_3 H15_3 1_555 1_555
C12_3 C13_3 1_555 1_555
C12_3 N2_3 1_555 1_555
O2_3 Zn3 1_555 1_555
C1_3 H1_3 1_555 1_555
H12_3 C11_3 1_555 1_555
C1_4 H1_4 1_555 1_555
C2_2 C1_4 1_555 1_555
H2_4 C2_2 1_555 1_555
C3_4 C2_2 1_555 1_555
C4_4 C3_4 1_555 1_555
H3_4 C4_4 1_555 1_555
C5_4 C4_4 1_555 1_555
H4_4 C5_4 1_555 1_555
C6_4 C3_4 1_555 1_555
H5_4 C6_4 1_555 1_555
H6_4 C6_4 1_555 1_555
C7_4 C6_4 1_555 1_555
H7_4 C7_4 1_555 1_555
H8_4 C7_4 1_555 1_555
C8_4 C7_4 1_555 1_555
H9_4 C8_4 1_555 1_555
H10_4 C8_4 1_555 1_555
C9_4 C8_4 1_555 1_555
C10_4 C9_4 1_555 1_555
H11_2 C10_4 1_555 1_555
C11_4 C10_4 1_555 1_555
H12_4 C11_4 1_555 1_555
C12_4 H13_4 1_555 1_555
C13_4 C9_4 1_555 1_555
H14_4 C13_4 1_555 1_555
N1_4 C1_4 1_555 1_555
N2_4 C11_4 1_555 1_555
O7 P1_4 1_555 1_555
O2_4 P1_4 1_555 1_555
O3_4 P2_4 1_555 1_555
O8 P2_4 1_555 1_555
O9_2 P2_4 1_555 1_555
O10_2 P1_4 1_555 1_555
P1_4 H15_4 1_555 1_555
P2_4 H16_4 1_555 1_555
Zn3_2 N1_4 1_555 1_555
Zn4 N2_4 1_555 1_555
C5_4 N1_4 1_555 1_555
C12_4 C13_4 1_555 1_555
C12_4 N2_4 1_555 1_555
O2_4 Zn3_2 1_555 1_555
O3_4 Zn3_2 1_555 1_555

#END
