
###############################################################################
#
# This file contains modified crystal structure data generated from the
# MOF subset of the Cambridge Structural Database (CSD) v543 
# hosted by the Cambridge Crystallographic Data Centre (CCDC).
#
# This work is licensed under the Creative Commons
# Attribution-NonCommercial-ShareAlike 4.0 International License.
# To view a copy of this license, visit
# http://creativecommons.org/licenses/by-nc-sa/4.0/
# or send a letter to
# Creative Commons, PO Box 1866, Mountain View, CA 94042, USA.
#
# CIF created using the CSD Python API on 29 September 2022
# The structure has been converted into the P1 space group
# The structure has a 3D framework
# The original CSD entry OGAGAF is in the orthorhombic crystal system
# The original CSD entry OGAGAF is in a Sohncke space group
# The framework has been calculated to contain at least 10.0% void space
# The void calculation uses a probe of radius 1.32A, grid spacing 0.4
#
###############################################################################

data_OGAGAF
_chemical_formula_moiety         '(C52 H64 N8 O22 P8 Zn6)n'
_symmetry_cell_setting           triclinic
_symmetry_space_group_name_H-M   'P 1'
_symmetry_Int_Tables_number      1
_space_group_name_Hall           'P 1'
loop_
_symmetry_equiv_pos_site_id
_symmetry_equiv_pos_as_xyz
1 x,y,z
_cell_length_a                   9.6299(2)
_cell_length_b                   9.76980(10)
_cell_length_c                   24.5639(4)
_cell_angle_alpha                90
_cell_angle_beta                 90
_cell_angle_gamma                90
_cell_volume                     2311.03
loop_
_atom_site_label
_atom_site_type_symbol
_atom_site_fract_x
_atom_site_fract_y
_atom_site_fract_z
O1 O 0.39535(15) 0.24796(16) 0.05414(6)
O3 O 0.17477(14) 0.30755(14) 0.00586(6)
O4 O 0.30834(15) 0.48949(14) 0.05686(6)
P1 P 0.27020(5) 0.33854(5) 0.05300(2)
H15 H 0.1983(11) 0.3097(4) 0.0980(7)
Zn1 Zn 0.49983(2) 0.11249(2) 0.016817(8)
Zn4 Zn 0.36874(2) 0.62070(2) 0.002820(9)
C1 C 0.2983(2) 0.0789(2) 0.92611(8)
H1 H 0.2501 0.151 0.9438
C2 C 0.2485(2) 0.0309(2) 0.87729(9)
H2 H 0.1679 0.0712 0.8618
H8 H 0.3198 0.0363 0.7483
C10 C 0.3099(2) 0.0181(2) 0.60994(9)
H11 H 0.215 0.0415 0.6149
C11 C 0.3817(2) 0.0696(2) 0.56592(8)
H12 H 0.3346 0.1276 0.541
N1 N 0.41257(17) 0.02734(17) 0.94964(7)
N2 N 0.51625(18) 0.04007(16) 0.55722(6)
Zn2 Zn 0.63126(2) 0.12070(2) 0.497180(9)
O7 O 0.67477(14) 0.19245(14) 0.99414(6)
O9 O 0.79817(14) 0.20078(15) 0.52731(6)
O10 O 0.55135(14) 0.26257(15) 0.45510(7)
O2 O 0.55725(15) 0.98229(14) 0.07331(6)
O5 O 0.70183(14) 0.79922(15) 0.02731(6)
O6 O 0.44865(14) 0.76257(15) 0.04490(7)
P2 P 0.58055(5) 0.82992(6) 0.06401(2)
H16 H 0.6099(5) 0.7767(8) 0.1115(7)
C3 C 0.3141(2) 0.9252(2) 0.85046(8)
C4 C 0.4325(2) 0.8720(2) 0.87541(8)
H3 H 0.4822 0.7993 0.8587
C5 C 0.4771(2) 0.9245(2) 0.92399(8)
H4 H 0.5576 0.8862 0.9403
C6 C 0.2656(2) 0.8708(2) 0.79669(7)
H5 H 0.1647 0.8874 0.793
H6 H 0.281 0.7706 0.7956
C7 C 0.3411(2) 0.9372(2) 0.74894(8)
H7 H 0.4425 0.9267 0.754
C8 C 0.2988(2) 0.8733(2) 0.69463(7)
H9 H 0.317 0.7736 0.696
H10 H 0.1978 0.8863 0.6893
C9 C 0.3745(2) 0.9331(2) 0.64669(8)
C12 C 0.5786(2) 0.9573(2) 0.59270(9)
H13 H 0.6734 0.9347 0.5868
C13 C 0.5126(2) 0.9030(2) 0.63738(8)
H14 H 0.5618 0.8451 0.6617
O8 O 0.69166(15) 0.98949(14) 0.44314(6)
Zn5 Zn 0.86874(2) 0.87930(2) 0.997180(9)
Zn3 Zn 0.99983(2) 0.38751(2) 0.983183(8)
C3_2 C 0.1859(2) 0.0748(2) 0.35046(8)
C4_2 C 0.0675(2) 0.1280(2) 0.37541(8)
H3_2 H 0.0178 0.2007 0.3587
C5_2 C 0.0229(2) 0.0755(2) 0.42399(8)
C6_2 C 0.2344(2) 0.1292(2) 0.29669(7)
H5_2 H 0.3353 0.1126 0.293
H6_2 H 0.219 0.2294 0.2956
C7_2 C 0.1589(2) 0.0628(2) 0.24894(8)
H7_2 H 0.0575 0.0733 0.254
C8_2 C 0.2012(2) 0.1267(2) 0.19463(7)
H9_2 H 0.183 0.2264 0.196
H10_2 H 0.3022 0.1137 0.1893
C9_2 C 0.1255(2) 0.0669(2) 0.14669(8)
O6_2 O 0.05135(14) 0.23743(15) 0.54490(7)
Zn6 Zn 0.13126(2) 0.37930(2) 0.502820(9)
C1_2 C 0.2017(2) 0.9211(2) 0.42611(8)
H1_2 H 0.2499 0.849 0.4438
C2_2 C 0.2515(2) 0.9691(2) 0.37729(9)
H2_2 H 0.3321 0.9288 0.3618
H8_2 H 0.1802 0.9637 0.2483
C10_2 C 0.1901(2) 0.9819(2) 0.10994(9)
H11_2 H 0.285 0.9585 0.1149
C11_2 C 0.1183(2) 0.9304(2) 0.06592(8)
H12_2 H 0.1654 0.8724 0.041
N1_2 N 0.08743(17) 0.97266(17) 0.44964(7)
O1_2 O 0.10465(15) 0.75204(16) 0.55414(6)
O3_2 O 0.32523(14) 0.69245(14) 0.50586(6)
O4_2 O 0.19166(15) 0.51051(14) 0.55686(6)
P1_2 P 0.22980(5) 0.66146(5) 0.55300(2)
H15_2 H 0.3017(11) 0.6903(4) 0.5980(7)
Zn1_2 Zn 0.00017(2) 0.88751(2) 0.516817(8)
Zn3_2 Zn 0.50017(2) 0.61249(2) 0.483183(8)
H4_2 H 0.9424 0.1138 0.4403
C12_2 C 0.9214(2) 0.0427(2) 0.09270(9)
H13_2 H 0.8266 0.0653 0.0868
C13_2 C 0.9874(2) 0.0970(2) 0.13738(8)
H14_2 H 0.9382 0.1549 0.1617
O2_2 O 0.94275(15) 0.01771(14) 0.57331(6)
P2_2 P 0.91945(5) 0.17008(6) 0.56401(2)
H16_2 H 0.8901(5) 0.2233(8) 0.6115(7)
O8_2 O 0.80834(15) 0.01051(14) 0.94314(6)
N2_2 N 0.98375(18) 0.95993(16) 0.05722(6)
O7_2 O 0.82523(14) 0.80755(14) 0.49414(6)
O10_2 O 0.94865(14) 0.73743(15) 0.95510(7)
C1_3 C 0.7017(2) 0.5789(2) 0.57389(8)
H1_3 H 0.7499 0.651 0.5562
C2_3 C 0.7515(2) 0.5309(2) 0.62271(9)
H2_3 H 0.8321 0.5712 0.6382
C3_3 C 0.6859(2) 0.4252(2) 0.64954(8)
C4_3 C 0.5675(2) 0.3720(2) 0.62459(8)
H3_3 H 0.5178 0.2993 0.6413
C5_3 C 0.5229(2) 0.4245(2) 0.57601(8)
H4_3 H 0.4424 0.3862 0.5597
C6_3 C 0.7344(2) 0.3708(2) 0.70331(7)
H5_3 H 0.8353 0.3874 0.707
H6_3 H 0.719 0.2706 0.7044
C7_3 C 0.6589(2) 0.4372(2) 0.75106(8)
H7_3 H 0.5575 0.4267 0.746
H8_3 H 0.6802 0.5363 0.7517
C8_3 C 0.7012(2) 0.3733(2) 0.80537(7)
H9_3 H 0.683 0.2736 0.804
H10_3 H 0.8022 0.3863 0.8107
C9_3 C 0.6255(2) 0.4331(2) 0.85331(8)
C10_3 C 0.6901(2) 0.5181(2) 0.89006(9)
H11_3 H 0.785 0.5415 0.8851
C11_3 C 0.6183(2) 0.5696(2) 0.93408(8)
H12_3 H 0.6654 0.6276 0.959
C12_3 C 0.4214(2) 0.4573(2) 0.90730(9)
H13_3 H 0.3266 0.4347 0.9132
C13_3 C 0.4874(2) 0.4030(2) 0.86262(8)
H14_3 H 0.4382 0.3451 0.8383
N1_3 N 0.58743(17) 0.52734(17) 0.55036(7)
N2_3 N 0.48375(18) 0.54007(16) 0.94278(6)
O1_3 O 0.60465(15) 0.74796(16) 0.44586(6)
O2_3 O 0.44275(15) 0.48229(14) 0.42669(6)
O5_2 O 0.29817(14) 0.29922(15) 0.47269(6)
P1_3 P 0.72980(5) 0.83854(5) 0.44700(2)
H15_3 H 0.8017(11) 0.8097(4) 0.4020(7)
P2_3 P 0.41945(5) 0.32992(6) 0.43599(2)
H16_3 H 0.3901(5) 0.2767(8) 0.3885(7)
O9_2 O 0.20183(14) 0.70078(15) 0.97269(6)
H4_4 H 0.0576 0.6138 0.0597
C12_4 C 0.0786(2) 0.5427(2) 0.40730(9)
H13_4 H 0.1734 0.5653 0.4132
C13_4 C 0.0126(2) 0.5970(2) 0.36262(8)
H14_4 H 0.0618 0.6549 0.3383
N2_4 N 0.01625(18) 0.45993(16) 0.44278(6)
O2_4 O 0.05725(15) 0.51771(14) 0.92669(6)
P2_4 P 0.08055(5) 0.67008(6) 0.93599(2)
H16_4 H 0.1099(5) 0.7233(8) 0.8885(7)
C1_4 C 0.7983(2) 0.4211(2) 0.07389(8)
H1_4 H 0.7501 0.349 0.0562
C2_4 C 0.7485(2) 0.4691(2) 0.12271(9)
H2_4 H 0.6679 0.4288 0.1382
C3_4 C 0.8141(2) 0.5748(2) 0.14954(8)
C4_4 C 0.9325(2) 0.6280(2) 0.12459(8)
H3_4 H 0.9822 0.7007 0.1413
C5_4 C 0.9771(2) 0.5755(2) 0.07601(8)
C6_4 C 0.7656(2) 0.6292(2) 0.20331(7)
H5_4 H 0.6647 0.6126 0.207
H6_4 H 0.781 0.7294 0.2044
C7_4 C 0.8411(2) 0.5628(2) 0.25106(8)
H7_4 H 0.9425 0.5733 0.246
H8_4 H 0.8198 0.4637 0.2517
C8_4 C 0.7988(2) 0.6267(2) 0.30537(7)
H9_4 H 0.817 0.7264 0.304
H10_4 H 0.6978 0.6137 0.3107
C9_4 C 0.8745(2) 0.5669(2) 0.35331(8)
C10_4 C 0.8099(2) 0.4819(2) 0.39006(9)
H11_4 H 0.715 0.4585 0.3851
C11_4 C 0.8817(2) 0.4304(2) 0.43408(8)
H12_4 H 0.8346 0.3724 0.459
N1_4 N 0.91257(17) 0.47266(17) 0.05036(7)
O1_4 O 0.89535(15) 0.25204(16) 0.94586(6)
P1_4 P 0.77020(5) 0.16146(5) 0.94700(2)
H15_4 H 0.6983(11) 0.1903(4) 0.9020(7)
loop_
_geom_bond_atom_site_label_1
_geom_bond_atom_site_label_2
_geom_bond_site_symmetry_1
_geom_bond_site_symmetry_2
O1 P1 1_555 1_555
O3 P1 1_555 1_555
O4 P1 1_555 1_555
P1 H15 1_555 1_555
Zn4 O4 1_555 1_555
O1 Zn1 1_555 1_555
C1 H1 1_555 1_555
C2 C1 1_555 1_555
H2 C2 1_555 1_555
H11 C10 1_555 1_555
C11 C10 1_555 1_555
H12 C11 1_555 1_555
N1 C1 1_555 1_555
N2 C11 1_555 1_555
Zn2 N2 1_555 1_555
O9 Zn2 1_555 1_555
O10 Zn2 1_555 1_555
O2 P2 1_555 1_555
O5 P2 1_555 1_555
O6 P2 1_555 1_555
P2 H16 1_555 1_555
Zn4 O6 1_555 1_555
C4 C3 1_555 1_555
H3 C4 1_555 1_555
C5 C4 1_555 1_555
H4 C5 1_555 1_555
C6 C3 1_555 1_555
H5 C6 1_555 1_555
H6 C6 1_555 1_555
C7 C6 1_555 1_555
H7 C7 1_555 1_555
C8 C7 1_555 1_555
H9 C8 1_555 1_555
H10 C8 1_555 1_555
C9 C8 1_555 1_555
C12 H13 1_555 1_555
C13 C9 1_555 1_555
H14 C13 1_555 1_555
C12 C13 1_555 1_555
C4_2 C3_2 1_555 1_555
H3_2 C4_2 1_555 1_555
C5_2 C4_2 1_555 1_555
C6_2 C3_2 1_555 1_555
H5_2 C6_2 1_555 1_555
H6_2 C6_2 1_555 1_555
C7_2 C6_2 1_555 1_555
H7_2 C7_2 1_555 1_555
C8_2 C7_2 1_555 1_555
H9_2 C8_2 1_555 1_555
H10_2 C8_2 1_555 1_555
C9_2 C8_2 1_555 1_555
Zn6 O6_2 1_555 1_555
C1_2 H1_2 1_555 1_555
C2_2 C1_2 1_555 1_555
H2_2 C2_2 1_555 1_555
H11_2 C10_2 1_555 1_555
C11_2 C10_2 1_555 1_555
H12_2 C11_2 1_555 1_555
N1_2 C1_2 1_555 1_555
O1_2 P1_2 1_555 1_555
O3_2 P1_2 1_555 1_555
O4_2 P1_2 1_555 1_555
P1_2 H15_2 1_555 1_555
Zn1_2 N1_2 1_555 1_555
Zn3_2 O3_2 1_555 1_555
Zn6 O4_2 1_555 1_555
O1_2 Zn1_2 1_555 1_555
C12_2 H13_2 1_555 1_555
H14_2 C13_2 1_555 1_555
O2_2 P2_2 1_555 1_555
O9 P2_2 1_555 1_555
P2_2 H16_2 1_555 1_555
C12_2 C13_2 1_555 1_555
O10_2 Zn5 1_555 1_555
C1_3 H1_3 1_555 1_555
C2_3 C1_3 1_555 1_555
H2_3 C2_3 1_555 1_555
C3_3 C2_3 1_555 1_555
C4_3 C3_3 1_555 1_555
H3_3 C4_3 1_555 1_555
C5_3 C4_3 1_555 1_555
H4_3 C5_3 1_555 1_555
C6_3 C3_3 1_555 1_555
H5_3 C6_3 1_555 1_555
H6_3 C6_3 1_555 1_555
C7_3 C6_3 1_555 1_555
H7_3 C7_3 1_555 1_555
H8_3 C7_3 1_555 1_555
C8_3 C7_3 1_555 1_555
H9_3 C8_3 1_555 1_555
H10_3 C8_3 1_555 1_555
C9_3 C8_3 1_555 1_555
C10_3 C9_3 1_555 1_555
H11_3 C10_3 1_555 1_555
C11_3 C10_3 1_555 1_555
H12_3 C11_3 1_555 1_555
C12_3 H13_3 1_555 1_555
C13_3 C9_3 1_555 1_555
H14_3 C13_3 1_555 1_555
N1_3 C1_3 1_555 1_555
N2_3 C11_3 1_555 1_555
O1_3 P1_3 1_555 1_555
O2_3 P2_3 1_555 1_555
O7_2 P1_3 1_555 1_555
O8 P1_3 1_555 1_555
O5_2 P2_3 1_555 1_555
O10 P2_3 1_555 1_555
P1_3 H15_3 1_555 1_555
P2_3 H16_3 1_555 1_555
Zn3_2 N1_3 1_555 1_555
Zn6 O5_2 1_555 1_555
C5_3 N1_3 1_555 1_555
C12_3 C13_3 1_555 1_555
C12_3 N2_3 1_555 1_555
O1_3 Zn3_2 1_555 1_555
O2_3 Zn3_2 1_555 1_555
C12_4 H13_4 1_555 1_555
H14_4 C13_4 1_555 1_555
Zn6 N2_4 1_555 1_555
C12_4 C13_4 1_555 1_555
C12_4 N2_4 1_555 1_555
O2_4 P2_4 1_555 1_555
O9_2 P2_4 1_555 1_555
P2_4 H16_4 1_555 1_555
C1_4 H1_4 1_555 1_555
C2_4 C1_4 1_555 1_555
H2_4 C2_4 1_555 1_555
C3_4 C2_4 1_555 1_555
C4_4 C3_4 1_555 1_555
H3_4 C4_4 1_555 1_555
C5_4 C4_4 1_555 1_555
C6_4 C3_4 1_555 1_555
H5_4 C6_4 1_555 1_555
H6_4 C6_4 1_555 1_555
C7_4 C6_4 1_555 1_555
H7_4 C7_4 1_555 1_555
H8_4 C7_4 1_555 1_555
C8_4 C7_4 1_555 1_555
H9_4 C8_4 1_555 1_555
H10_4 C8_4 1_555 1_555
C9_4 C8_4 1_555 1_555
C10_4 C9_4 1_555 1_555
H11_4 C10_4 1_555 1_555
C11_4 C10_4 1_555 1_555
H12_4 C11_4 1_555 1_555
N1_4 C1_4 1_555 1_555
C5_4 N1_4 1_555 1_555
O1_4 P1_4 1_555 1_555
O7 P1_4 1_555 1_555
O8_2 P1_4 1_555 1_555
P1_4 H15_4 1_555 1_555
O1_4 Zn3 1_555 1_555

#END
