
###############################################################################
#
# This file contains modified crystal structure data generated from the
# MOF subset of the Cambridge Structural Database (CSD) v543 
# hosted by the Cambridge Crystallographic Data Centre (CCDC).
#
# This work is licensed under the Creative Commons
# Attribution-NonCommercial-ShareAlike 4.0 International License.
# To view a copy of this license, visit
# http://creativecommons.org/licenses/by-nc-sa/4.0/
# or send a letter to
# Creative Commons, PO Box 1866, Mountain View, CA 94042, USA.
#
# CIF created using the CSD Python API on 29 September 2022
# The structure has been converted into the P1 space group
# The structure has a 3D framework
# The original CSD entry OGAXUR is in the rhombohedral crystal system
# The original CSD entry OGAXUR is in a Sohncke space group
# The framework has been calculated to contain at least 10.0% void space
# The void calculation uses a probe of radius 1.32A, grid spacing 0.4
#
###############################################################################

data_OGAXUR
_chemical_formula_moiety         '(C171 H234 Co18 N18 O87)n'
_symmetry_cell_setting           triclinic
_symmetry_space_group_name_H-M   'P 1'
_symmetry_Int_Tables_number      1
_space_group_name_Hall           'P 1'
loop_
_symmetry_equiv_pos_site_id
_symmetry_equiv_pos_as_xyz
1 x,y,z
_cell_length_a                   29.4556(4)
_cell_length_b                   29.4556(4)
_cell_length_c                   8.3849(4)
_cell_angle_alpha                90
_cell_angle_beta                 90
_cell_angle_gamma                120
_cell_volume                     6300.34
loop_
_atom_site_label
_atom_site_type_symbol
_atom_site_fract_x
_atom_site_fract_y
_atom_site_fract_z
O8 O 0.1888(3) 0.5135(3) 0.0454(9)
C5 C 0.1484(5) 0.3149(4) 0.0136(14)
H5 H 0.1389 0.3094 0.1206
H6 H 0.0642 0.2327 0.0768
C8 C 0.2248(6) 0.3974(5) 0.1001(16)
H9 H 0.2299 0.4315 0.0770
H10 H 0.2583 0.3992 0.1054
H11 H 0.2071 0.3854 0.2005
Co4 Co 0.20849(5) 0.57088(7) 0.22589(11)
Co6 Co 0.12394(5) 0.09535(7) 0.05890(10)
Co1 Co 0.02905(5) 0.12484(5) 0.55922(11)
Co2 Co 0.30475(5) 0.54273(5) 0.72557(10)
N1 N 0.1016(3) 0.2020(3) 0.5616(9)
N2 N 0.2315(4) 0.4635(3) 0.7219(10)
O1 O 0.0713(3) 0.1143(3) 0.7411(10)
O3 O 0.3599(3) 0.6235(3) 0.7226(10)
H3 H 0.3819 0.6444 0.6549
H4 H 0.3833 0.6339 0.7948
O4 O 0.1458(3) 0.1509(3) 0.8800(9)
O5 O 0.0735(3) 0.1152(3) 0.3829(9)
O6 O 0.1399(3) 0.1583(3) 0.2129(10)
O7 O 0.2646(3) 0.5512(3) 0.9123(9)
O9 O 0.2591(3) 0.5528(3) 0.5531(9)
O10 O 0.1939(3) 0.5108(3) 0.3786(10)
C1 C 0.1291(3) 0.2851(3) 0.7402(12)
C2 C 0.1739(3) 0.3326(3) 0.6954(11)
C3 C 0.2039(4) 0.3703(4) 0.8072(11)
C4 C 0.1927(5) 0.3603(4) 0.9722(13)
C6 C 0.1167(4) 0.2765(4) 0.9045(12)
C7 C 0.0681(6) 0.2289(5) 0.9647(16)
H7 H 0.0710 0.1983 0.9468
H8 H 0.0380 0.2255 0.9090
C9 C 0.2499(3) 0.4250(3) 0.7649(13)
H12 H 0.2737 0.4386 0.8550
H13 H 0.2691 0.4219 0.6755
C10 C 0.1918(4) 0.3388(4) 0.5194(12)
H14 H 0.1845 0.3635 0.4671
H15 H 0.1732 0.3055 0.4665
H16 H 0.2288 0.3513 0.5154
C11 C 0.0945(4) 0.2470(3) 0.6187(12)
H17 H 0.0964 0.2671 0.5249
H18 H 0.0590 0.2316 0.6590
C12 C 0.1407(4) 0.1966(4) 0.6585(11)
H19 H 0.1610 0.2284 0.7200
H20 H 0.1646 0.1927 0.5878
C13 C 0.1161(4) 0.1506(4) 0.7704(12)
C14 C 0.1110(4) 0.1552(4) 0.3297(13)
C15 C 0.1189(4) 0.2087(3) 0.3879(11)
H21 H 0.1555 0.2356 0.3786
H22 H 0.0981 0.2190 0.3239
C16 C 0.1961(3) 0.4663(3) 0.8303(11)
H23 H 0.1801 0.4345 0.8937
H24 H 0.1684 0.4668 0.7693
C17 C 0.2190(4) 0.5128(4) 0.9434(13)
C18 C 0.2226(4) 0.5129(4) 0.4955(13)
C19 C 0.2155(3) 0.4595(3) 0.5535(10)
H25 H 0.1791 0.4324 0.5423
H26 H 0.2367 0.4499 0.4885
O11 O 0.3384(4) 0.5209(3) 0.5467(9)
O12 O 0.3517(4) 0.5268(3) 0.8796(10)
O2 O 0.9758(3) 0.0461(3) 0.5542(10)
H1 H 0.9531 0.0278 0.6242
H2 H 0.9577 0.0320 0.4709
O13 O 0.9914(4) 0.1445(3) 0.3787(9)
O14 O 0.9836(4) 0.1394(3) 0.7119(10)
Co6_2 Co 0.90465(7) 0.02858(9) 0.05890(10)
O8_2 O 0.4865(3) 0.6753(4) 0.0454(9)
C5_2 C 0.6851(4) 0.8335(6) 0.0136(14)
H5_2 H 0.6906 0.8295 0.1206
H6_2 H 0.7673 0.8315 0.0768
C8_2 C 0.6026(5) 0.8274(8) 0.1001(16)
H9_2 H 0.5685 0.7984 0.0770
H10_2 H 0.6008 0.8591 0.1054
H11_2 H 0.6146 0.8217 0.2005
Co4_2 Co 0.42912(7) 0.63762(9) 0.22589(11)
Co1_2 Co 0.87516(5) 0.90421(7) 0.55922(11)
Co2_2 Co 0.45727(5) 0.76202(7) 0.72557(10)
N1_2 N 0.7980(3) 0.8996(4) 0.5616(9)
N2_2 N 0.5365(3) 0.7680(5) 0.7219(10)
O1_2 O 0.8857(3) 0.9570(4) 0.7411(10)
O2_2 O 0.9539(3) 0.9297(4) 0.5542(10)
H1_2 H 0.9722 0.9253 0.6242
H2_2 H 0.9680 0.9257 0.4709
O3_2 O 0.3765(3) 0.7364(4) 0.7226(10)
H3_2 H 0.3556 0.7375 0.6549
H4_2 H 0.3661 0.7494 0.7948
O4_2 O 0.8491(3) 0.9949(4) 0.8800(9)
O5_2 O 0.8848(3) 0.9583(4) 0.3829(9)
O6_2 O 0.8417(3) 0.9816(4) 0.2129(10)
O7_2 O 0.4488(3) 0.7134(4) 0.9123(9)
O9_2 O 0.4472(3) 0.7063(4) 0.5531(9)
O10_2 O 0.4892(3) 0.6831(4) 0.3786(10)
C1_2 C 0.7149(3) 0.8440(4) 0.7402(12)
C2_2 C 0.6674(3) 0.8413(4) 0.6954(11)
C3_2 C 0.6297(4) 0.8336(6) 0.8072(11)
C4_2 C 0.6397(4) 0.8324(6) 0.9722(13)
C6_2 C 0.7235(4) 0.8402(6) 0.9045(12)
C7_2 C 0.7711(5) 0.8392(8) 0.9647(16)
H7_2 H 0.8017 0.8727 0.9468
H8_2 H 0.7745 0.8125 0.9090
C9_2 C 0.5750(3) 0.8249(4) 0.7649(13)
H12_2 H 0.5614 0.8351 0.8550
H13_2 H 0.5781 0.8472 0.6755
C10_2 C 0.6612(4) 0.8530(6) 0.5194(12)
H14_2 H 0.6365 0.8210 0.4671
H15_2 H 0.6945 0.8677 0.4665
H16_2 H 0.6487 0.8775 0.5154
C11_2 C 0.7530(3) 0.8475(5) 0.6187(12)
H17_2 H 0.7329 0.8293 0.5249
H18_2 H 0.7684 0.8274 0.6590
C12_2 C 0.8034(4) 0.9441(6) 0.6585(11)
H19_2 H 0.7716 0.9326 0.7200
H20_2 H 0.8073 0.9719 0.5878
C13_2 C 0.8494(4) 0.9655(6) 0.7704(12)
C14_2 C 0.8448(4) 0.9558(6) 0.3297(13)
C15_2 C 0.7913(3) 0.9102(5) 0.3879(11)
H21_2 H 0.7644 0.9199 0.3786
H22_2 H 0.7810 0.8791 0.3239
C16_2 C 0.5337(3) 0.7298(4) 0.8303(11)
H23_2 H 0.5655 0.7456 0.8937
H24_2 H 0.5332 0.7016 0.7693
C17_2 C 0.4872(4) 0.7062(6) 0.9434(13)
C18_2 C 0.4871(4) 0.7097(6) 0.4955(13)
C19_2 C 0.5405(3) 0.7560(4) 0.5535(10)
H25_2 H 0.5676 0.7467 0.5423
H26_2 H 0.5501 0.7868 0.4885
O11_2 O 0.4791(3) 0.8176(5) 0.5467(9)
O12_2 O 0.4732(3) 0.8250(5) 0.8796(10)
O13_2 O 0.8555(3) 0.8468(5) 0.3787(9)
O14_2 O 0.8606(3) 0.8441(5) 0.7119(10)
O2_3 O 0.0703(4) 0.0242(3) 0.5542(10)
H1_3 H 0.0747 0.0469 0.6242
H2_3 H 0.0743 0.0423 0.4709
O13_3 O 0.1532(5) 0.0086(4) 0.3787(9)
O14_3 O 0.1559(5) 0.0164(4) 0.7119(10)
O8_3 O 0.3247(4) 0.8112(3) 0.0454(9)
C5_3 C 0.1665(6) 0.8516(5) 0.0136(14)
H5_3 H 0.1705 0.8611 0.1206
H6_3 H 0.1685 0.9358 0.0768
C8_3 C 0.1726(8) 0.7752(6) 0.1001(16)
H9_3 H 0.2016 0.7701 0.0770
H10_3 H 0.1409 0.7417 0.1054
H11_3 H 0.1783 0.7929 0.2005
Co4_3 Co 0.36238(9) 0.79151(5) 0.22589(11)
Co1_3 Co 0.09579(7) 0.97095(5) 0.55922(11)
Co2_3 Co 0.23798(7) 0.69525(5) 0.72557(10)
N1_3 N 0.1004(4) 0.8984(3) 0.5616(9)
N2_3 N 0.2320(5) 0.7685(4) 0.7219(10)
O1_3 O 0.0430(4) 0.9287(3) 0.7411(10)
O3_3 O 0.2636(4) 0.6401(3) 0.7226(10)
H3_3 H 0.2625 0.6181 0.6549
H4_3 H 0.2506 0.6167 0.7948
O4_3 O 0.0051(4) 0.8542(3) 0.8800(9)
O5_3 O 0.0417(4) 0.9265(3) 0.3829(9)
O6_3 O 0.0184(4) 0.8601(3) 0.2129(10)
O7_3 O 0.2866(4) 0.7354(3) 0.9123(9)
O9_3 O 0.2937(4) 0.7409(3) 0.5531(9)
O10_3 O 0.3169(4) 0.8061(3) 0.3786(10)
C1_3 C 0.1560(4) 0.8709(3) 0.7402(12)
C2_3 C 0.1587(4) 0.8261(3) 0.6954(11)
C3_3 C 0.1664(6) 0.7961(4) 0.8072(11)
C4_3 C 0.1676(6) 0.8073(5) 0.9722(13)
C6_3 C 0.1598(6) 0.8833(4) 0.9045(12)
C7_3 C 0.1608(8) 0.9319(6) 0.9647(16)
H7_3 H 0.1273 0.9290 0.9468
H8_3 H 0.1875 0.9620 0.9090
C9_3 C 0.1751(4) 0.7501(3) 0.7649(13)
H12_3 H 0.1649 0.7263 0.8550
H13_3 H 0.1528 0.7309 0.6755
C10_3 C 0.1470(6) 0.8082(4) 0.5194(12)
H14_3 H 0.1790 0.8155 0.4671
H15_3 H 0.1323 0.8268 0.4665
H16_3 H 0.1225 0.7712 0.5154
C11_3 C 0.1525(5) 0.9055(4) 0.6187(12)
H17_3 H 0.1707 0.9036 0.5249
H18_3 H 0.1726 0.9410 0.6590
C12_3 C 0.0559(6) 0.8593(4) 0.6585(11)
H19_3 H 0.0674 0.8390 0.7200
H20_3 H 0.0281 0.8354 0.5878
C13_3 C 0.0345(6) 0.8839(4) 0.7704(12)
C14_3 C 0.0442(6) 0.8890(4) 0.3297(13)
C15_3 C 0.0898(5) 0.8811(4) 0.3879(11)
H21_3 H 0.0801 0.8445 0.3786
H22_3 H 0.1209 0.9019 0.3239
C16_3 C 0.2702(4) 0.8039(3) 0.8303(11)
H23_3 H 0.2544 0.8199 0.8937
H24_3 H 0.2984 0.8316 0.7693
C17_3 C 0.2938(6) 0.7810(4) 0.9434(13)
C18_3 C 0.2903(6) 0.7774(4) 0.4955(13)
C19_3 C 0.2440(4) 0.7845(3) 0.5535(10)
H25_3 H 0.2533 0.8209 0.5423
H26_3 H 0.2132 0.7633 0.4885
O11_3 O 0.1824(5) 0.6616(4) 0.5467(9)
O12_3 O 0.1750(5) 0.6483(4) 0.8796(10)
Co6_3 Co 0.97142(9) 0.87606(5) 0.05890(10)
O3_4 O 0.0266(3) 0.9568(3) 0.0559(10)
H4_4 H 0.0500 0.9672 0.1281
H3_4 H 0.0486 0.9777 0.9882
N2_4 N 0.8982(4) 0.7968(3) 0.0552(10)
O1_4 O 0.7380(3) 0.4476(3) 0.0744(10)
O4_4 O 0.8125(3) 0.4842(3) 0.2133(9)
O7_4 O 0.9313(3) 0.8845(3) 0.2456(9)
C1_4 C 0.7958(3) 0.6184(3) 0.0735(12)
C2_4 C 0.8406(3) 0.6659(3) 0.0287(11)
C3_4 C 0.8706(4) 0.7036(4) 0.1405(11)
C4_4 C 0.8594(5) 0.6936(4) 0.3055(13)
C5_4 C 0.8151(5) 0.6482(4) 0.3469(14)
H5_4 H 0.8056 0.6427 0.4539
C6_4 C 0.7834(4) 0.6098(4) 0.2378(12)
C7_4 C 0.7348(6) 0.5622(5) 0.2980(16)
H6_4 H 0.7309 0.5660 0.4101
H7_4 H 0.7377 0.5316 0.2801
H8_4 H 0.7047 0.5588 0.2423
C8_4 C 0.8915(6) 0.7307(5) 0.4334(16)
H9_4 H 0.8966 0.7648 0.4103
H10_4 H 0.9250 0.7325 0.4387
H11_4 H 0.8738 0.7187 0.5338
C9_4 C 0.9166(3) 0.7583(3) 0.0982(13)
H12_4 H 0.9404 0.7719 0.1883
H13_4 H 0.9358 0.7552 0.0088
H19_4 H 0.8277 0.5617 0.0533
C13_4 C 0.7828(4) 0.4839(4) 0.1037(12)
C16_4 C 0.8628(3) 0.7996(3) 0.1636(11)
H23_4 H 0.8468 0.7678 0.2270
H24_4 H 0.8351 0.8001 0.1026
C17_4 C 0.8857(4) 0.8461(4) 0.2767(13)
Co6_4 Co 0.79060(5) 0.42869(7) 0.39224(10)
O14_4 O 0.6502(4) 0.4728(3) 0.0453(10)
Co1_4 Co 0.69572(5) 0.45817(5) 0.89255(11)
N1_4 N 0.7683(3) 0.5353(3) 0.8949(9)
O2_4 O 0.6425(3) 0.3794(3) 0.8875(10)
H1_4 H 0.6198 0.3611 0.9575
H2_4 H 0.6244 0.3653 0.8042
O5_4 O 0.7402(3) 0.4485(3) 0.7162(9)
O6_4 O 0.8066(3) 0.4916(3) 0.5462(10)
O9_4 O 0.9258(3) 0.8861(3) 0.8864(9)
C10_4 C 0.8585(4) 0.6721(4) 0.8527(12)
H14_4 H 0.8512 0.6968 0.8004
H15_4 H 0.8399 0.6388 0.7998
H16_4 H 0.8955 0.6846 0.8487
C11_4 C 0.7612(4) 0.5803(3) 0.9520(12)
H17_4 H 0.7631 0.6004 0.8582
H18_4 H 0.7257 0.5649 0.9923
C12_4 C 0.8074(4) 0.5299(4) 0.9918(11)
H20_4 H 0.8313 0.5260 0.9211
C14_4 C 0.7777(4) 0.4885(4) 0.6630(13)
C15_4 C 0.7856(4) 0.5420(3) 0.7212(11)
H21_4 H 0.8222 0.5689 0.7119
H22_4 H 0.7648 0.5523 0.6572
C18_4 C 0.8893(4) 0.8462(4) 0.8288(13)
C19_4 C 0.8822(3) 0.7928(3) 0.8868(10)
H25_4 H 0.8458 0.7657 0.8756
H26_4 H 0.9034 0.7832 0.8218
O13_4 O 0.6580(4) 0.4779(3) 0.7121(9)
N2_5 N 0.2032(3) 0.1013(5) 0.0552(10)
O1_5 O 0.5524(3) 0.2903(4) 0.0744(10)
O3_5 O 0.0432(3) 0.0697(4) 0.0559(10)
H4_5 H 0.0328 0.0827 0.1281
O4_5 O 0.5158(3) 0.3282(4) 0.2133(9)
O7_5 O 0.1155(3) 0.0467(4) 0.2456(9)
C1_5 C 0.3816(3) 0.1773(4) 0.0735(12)
C2_5 C 0.3341(3) 0.1746(4) 0.0287(11)
C3_5 C 0.2964(4) 0.1669(6) 0.1405(11)
C4_5 C 0.3064(4) 0.1657(6) 0.3055(13)
C5_5 C 0.3518(4) 0.1668(6) 0.3469(14)
H5_5 H 0.3573 0.1628 0.4539
C6_5 C 0.3902(4) 0.1735(6) 0.2378(12)
C7_5 C 0.4378(5) 0.1725(8) 0.2980(16)
H6_5 H 0.4340 0.1648 0.4101
H7_5 H 0.4684 0.2060 0.2801
H8_5 H 0.4412 0.1458 0.2423
C8_5 C 0.2693(5) 0.1607(8) 0.4334(16)
H9_5 H 0.2352 0.1317 0.4103
H10_5 H 0.2675 0.1924 0.4387
H11_5 H 0.2813 0.1550 0.5338
C9_5 C 0.2417(3) 0.1582(4) 0.0982(13)
H12_5 H 0.2281 0.1684 0.1883
H13_5 H 0.2448 0.1805 0.0088
H19_5 H 0.4383 0.2659 0.0533
C13_5 C 0.5161(4) 0.2988(6) 0.1037(12)
C16_5 C 0.2004(3) 0.0631(4) 0.1636(11)
H23_5 H 0.2322 0.0789 0.2270
H24_5 H 0.1999 0.0349 0.1026
C17_5 C 0.1539(4) 0.0395(6) 0.2767(13)
Co6_5 Co 0.57131(7) 0.36192(9) 0.39224(10)
O14_5 O 0.5272(3) 0.1775(5) 0.0453(10)
Co1_5 Co 0.54183(5) 0.23754(7) 0.89255(11)
N1_5 N 0.4647(3) 0.2329(4) 0.8949(9)
O2_5 O 0.6206(3) 0.2630(4) 0.8875(10)
H1_5 H 0.6389 0.2586 0.9575
H2_5 H 0.6347 0.2590 0.8042
H3_5 H 0.0223 0.0708 0.9882
O5_5 O 0.5515(3) 0.2916(4) 0.7162(9)
O6_5 O 0.5084(3) 0.3149(4) 0.5462(10)
O9_5 O 0.1139(3) 0.0396(4) 0.8864(9)
C10_5 C 0.3279(4) 0.1863(6) 0.8527(12)
H14_5 H 0.3032 0.1543 0.8004
H15_5 H 0.3612 0.2010 0.7998
H16_5 H 0.3154 0.2108 0.8487
C11_5 C 0.4197(3) 0.1808(5) 0.9520(12)
H17_5 H 0.3996 0.1626 0.8582
H18_5 H 0.4351 0.1607 0.9923
C12_5 C 0.4701(4) 0.2774(6) 0.9918(11)
H20_5 H 0.4740 0.3052 0.9211
C14_5 C 0.5115(4) 0.2891(6) 0.6630(13)
C15_5 C 0.4580(3) 0.2435(5) 0.7212(11)
H21_5 H 0.4311 0.2532 0.7119
H22_5 H 0.4477 0.2124 0.6572
C18_5 C 0.1538(4) 0.0430(6) 0.8288(13)
C19_5 C 0.2072(3) 0.0893(4) 0.8868(10)
H25_5 H 0.2343 0.0800 0.8756
H26_5 H 0.2168 0.1201 0.8218
O13_5 O 0.5221(3) 0.1802(5) 0.7121(9)
N2_6 N 0.8987(5) 0.1018(4) 0.0552(10)
O1_6 O 0.7097(4) 0.2620(3) 0.0744(10)
O4_6 O 0.6718(4) 0.1875(3) 0.2133(9)
O7_6 O 0.9533(4) 0.0687(3) 0.2456(9)
C1_6 C 0.8227(4) 0.2042(3) 0.0735(12)
C2_6 C 0.8254(4) 0.1594(3) 0.0287(11)
C3_6 C 0.8331(6) 0.1294(4) 0.1405(11)
C4_6 C 0.8343(6) 0.1406(5) 0.3055(13)
C5_6 C 0.8332(6) 0.1849(5) 0.3469(14)
H5_6 H 0.8372 0.1944 0.4539
C6_6 C 0.8265(6) 0.2166(4) 0.2378(12)
C7_6 C 0.8275(8) 0.2652(6) 0.2980(16)
H6_6 H 0.8352 0.2691 0.4101
H7_6 H 0.7940 0.2623 0.2801
H8_6 H 0.8542 0.2953 0.2423
C8_6 C 0.8393(8) 0.1085(6) 0.4334(16)
H9_6 H 0.8683 0.1034 0.4103
H10_6 H 0.8076 0.0750 0.4387
H11_6 H 0.8450 0.1262 0.5338
C9_6 C 0.8418(4) 0.0834(3) 0.0982(13)
H12_6 H 0.8316 0.0596 0.1883
H13_6 H 0.8195 0.0642 0.0088
H19_6 H 0.7341 0.1723 0.0533
C13_6 C 0.7012(6) 0.2172(4) 0.1037(12)
C16_6 C 0.9369(4) 0.1372(3) 0.1636(11)
H23_6 H 0.9211 0.1532 0.2270
H24_6 H 0.9651 0.1649 0.1026
C17_6 C 0.9605(6) 0.1143(4) 0.2767(13)
Co6_6 Co 0.63808(9) 0.20940(5) 0.39224(10)
O14_6 O 0.8225(5) 0.3498(4) 0.0453(10)
Co1_6 Co 0.76246(7) 0.30428(5) 0.89255(11)
N1_6 N 0.7671(4) 0.2317(3) 0.8949(9)
O2_6 O 0.7370(4) 0.3575(3) 0.8875(10)
H1_6 H 0.7414 0.3802 0.9575
H2_6 H 0.7410 0.3756 0.8042
O5_6 O 0.7084(4) 0.2598(3) 0.7162(9)
O6_6 O 0.6851(4) 0.1934(3) 0.5462(10)
O9_6 O 0.9604(4) 0.0742(3) 0.8864(9)
C10_6 C 0.8137(6) 0.1415(4) 0.8527(12)
H14_6 H 0.8457 0.1488 0.8004
H15_6 H 0.7990 0.1601 0.7998
H16_6 H 0.7892 0.1045 0.8487
C11_6 C 0.8192(5) 0.2388(4) 0.9520(12)
H17_6 H 0.8374 0.2369 0.8582
H18_6 H 0.8393 0.2743 0.9923
C12_6 C 0.7226(6) 0.1926(4) 0.9918(11)
H20_6 H 0.6948 0.1687 0.9211
C14_6 C 0.7109(6) 0.2223(4) 0.6630(13)
C15_6 C 0.7565(5) 0.2144(4) 0.7212(11)
H21_6 H 0.7468 0.1778 0.7119
H22_6 H 0.7876 0.2352 0.6572
C18_6 C 0.9570(6) 0.1107(4) 0.8288(13)
C19_6 C 0.9107(4) 0.1178(3) 0.8868(10)
H25_6 H 0.9200 0.1542 0.8756
H26_6 H 0.8799 0.0966 0.8218
O13_6 O 0.8198(5) 0.3420(4) 0.7121(9)
O3_6 O 0.9303(4) 0.9734(3) 0.0559(10)
H4_6 H 0.9173 0.9500 0.1281
H3_6 H 0.9292 0.9514 0.9882
N2_7 N 0.5648(4) 0.1302(3) 0.3886(10)
O3_7 O 0.6932(3) 0.2902(3) 0.3893(10)
H3_7 H 0.7152 0.3111 0.3216
H4_7 H 0.7166 0.3006 0.4615
O7_7 O 0.5979(3) 0.2179(3) 0.5790(9)
O9_7 O 0.5924(3) 0.2195(3) 0.2198(9)
C3_7 C 0.5372(4) 0.0370(4) 0.4739(11)
C4_7 C 0.5260(5) 0.0270(4) 0.6389(13)
C8_7 C 0.5581(6) 0.0641(5) 0.7668(16)
H9_7 H 0.5632 0.0982 0.7437
H10_7 H 0.5916 0.0659 0.7721
H11_7 H 0.5404 0.0521 0.8672
C9_7 C 0.5832(3) 0.0917(3) 0.4316(13)
H12_7 H 0.6070 0.1053 0.5217
H13_7 H 0.6024 0.0886 0.3422
C10_7 C 0.5251(4) 0.0055(4) 0.1861(12)
H14_7 H 0.5178 0.0302 0.1338
H16_7 H 0.5621 0.0180 0.1821
C16_7 C 0.5294(3) 0.1330(3) 0.4970(11)
H23_7 H 0.5134 0.1012 0.5604
H24_7 H 0.5017 0.1335 0.4360
C17_7 C 0.5523(4) 0.1795(4) 0.6101(13)
C18_7 C 0.5559(4) 0.1796(4) 0.1622(13)
C19_7 C 0.5488(3) 0.1262(3) 0.2202(10)
H25_7 H 0.5124 0.0991 0.2090
H26_7 H 0.5700 0.1166 0.1552
N1_7 N 0.4349(3) 0.8687(3) 0.2283(9)
O1_7 O 0.4046(3) 0.7810(3) 0.4078(10)
O2_7 O 0.3091(3) 0.7128(3) 0.2209(10)
H1_7 H 0.2864 0.6945 0.2909
H2_7 H 0.2910 0.6987 0.1376
O5_7 O 0.4068(3) 0.7819(3) 0.0496(9)
C1_7 C 0.4624(3) 0.9518(3) 0.4069(12)
C2_7 C 0.5072(3) 0.9993(3) 0.3621(11)
C5_7 C 0.4817(5) 0.9816(4) 0.6803(14)
H5_7 H 0.4722 0.9761 0.7873
C6_7 C 0.4500(4) 0.9432(4) 0.5712(12)
C7_7 C 0.4014(6) 0.8956(5) 0.6314(16)
H6_7 H 0.3975 0.8994 0.7435
H7_7 H 0.4043 0.8650 0.6135
H8_7 H 0.3713 0.8922 0.5757
H15_7 H 0.5065 0.9722 0.1332
C11_7 C 0.4278(4) 0.9137(3) 0.2854(12)
H17_7 H 0.4297 0.9338 0.1916
H18_7 H 0.3923 0.8983 0.3257
C12_7 C 0.4740(4) 0.8633(4) 0.3252(11)
H19_7 H 0.4943 0.8951 0.3867
H20_7 H 0.4979 0.8594 0.2545
C13_7 C 0.4494(4) 0.8173(4) 0.4371(12)
C15_7 C 0.4522(4) 0.8754(3) 0.0546(11)
H21_7 H 0.4888 0.9023 0.0453
C14_7 C 0.4443(4) 0.8219(4) 0.9964(13)
H22_7 H 0.4314 0.8857 0.9906
N1_8 N 0.1313(3) 0.5663(4) 0.2283(9)
O1_8 O 0.2190(3) 0.6237(4) 0.4078(10)
O2_8 O 0.2872(3) 0.5964(4) 0.2209(10)
H1_8 H 0.3055 0.5920 0.2909
H2_8 H 0.3013 0.5924 0.1376
O5_8 O 0.2181(3) 0.6250(4) 0.0496(9)
C1_8 C 0.0482(3) 0.5107(4) 0.4069(12)
C2_8 C 0.0007(3) 0.5080(4) 0.3621(11)
C5_8 C 0.0184(4) 0.5002(6) 0.6803(14)
H5_8 H 0.0239 0.4962 0.7873
C6_8 C 0.0568(4) 0.5069(6) 0.5712(12)
C7_8 C 0.1044(5) 0.5059(8) 0.6314(16)
H6_8 H 0.1006 0.4982 0.7435
H7_8 H 0.1350 0.5394 0.6135
H8_8 H 0.1078 0.4792 0.5757
H15_8 H 0.0278 0.5344 0.1332
C11_8 C 0.0863(3) 0.5142(5) 0.2854(12)
H17_8 H 0.0662 0.4960 0.1916
H18_8 H 0.1017 0.4941 0.3257
C12_8 C 0.1367(4) 0.6108(6) 0.3252(11)
H19_8 H 0.1049 0.5993 0.3867
H20_8 H 0.1406 0.6386 0.2545
C13_8 C 0.1827(4) 0.6322(6) 0.4371(12)
C15_8 C 0.1246(3) 0.5769(5) 0.0546(11)
H21_8 H 0.0977 0.5866 0.0453
C14_8 C 0.1781(4) 0.6225(6) 0.9964(13)
H22_8 H 0.1143 0.5458 0.9906
N2_8 N 0.8698(3) 0.4347(5) 0.3886(10)
O3_8 O 0.7098(3) 0.4031(4) 0.3893(10)
H3_8 H 0.6889 0.4042 0.3216
H4_8 H 0.6994 0.4161 0.4615
O7_8 O 0.7821(3) 0.3801(4) 0.5790(9)
O9_8 O 0.7805(3) 0.3730(4) 0.2198(9)
C3_8 C 0.9630(4) 0.5003(6) 0.4739(11)
C4_8 C 0.9730(4) 0.4991(6) 0.6389(13)
C8_8 C 0.9359(5) 0.4941(8) 0.7668(16)
H9_8 H 0.9018 0.4651 0.7437
H10_8 H 0.9341 0.5258 0.7721
H11_8 H 0.9479 0.4884 0.8672
C9_8 C 0.9083(3) 0.4916(4) 0.4316(13)
H12_8 H 0.8947 0.5018 0.5217
H13_8 H 0.9114 0.5139 0.3422
C10_8 C 0.9945(4) 0.5197(6) 0.1861(12)
H14_8 H 0.9698 0.4877 0.1338
H16_8 H 0.9820 0.5442 0.1821
C16_8 C 0.8670(3) 0.3965(4) 0.4970(11)
H23_8 H 0.8988 0.4123 0.5604
H24_8 H 0.8665 0.3683 0.4360
C17_8 C 0.8205(4) 0.3729(6) 0.6101(13)
C18_8 C 0.8204(4) 0.3764(6) 0.1622(13)
C19_8 C 0.8738(3) 0.4227(4) 0.2202(10)
H25_8 H 0.9009 0.4134 0.2090
H26_8 H 0.8834 0.4535 0.1552
N1_9 N 0.4337(4) 0.5651(3) 0.2283(9)
N2_9 N 0.5653(5) 0.4352(4) 0.3886(10)
O1_9 O 0.3763(4) 0.5954(3) 0.4078(10)
O2_9 O 0.4036(4) 0.6909(3) 0.2209(10)
H1_9 H 0.4080 0.7136 0.2909
H2_9 H 0.4076 0.7090 0.1376
O3_9 O 0.5969(4) 0.3068(3) 0.3893(10)
H3_9 H 0.5958 0.2848 0.3216
H4_9 H 0.5839 0.2834 0.4615
O5_9 O 0.3750(4) 0.5932(3) 0.0496(9)
O7_9 O 0.6199(4) 0.4021(3) 0.5790(9)
O9_9 O 0.6270(4) 0.4076(3) 0.2198(9)
C1_9 C 0.4893(4) 0.5376(3) 0.4069(12)
C2_9 C 0.4920(4) 0.4928(3) 0.3621(11)
C3_9 C 0.4997(6) 0.4628(4) 0.4739(11)
C4_9 C 0.5009(6) 0.4740(5) 0.6389(13)
C5_9 C 0.4998(6) 0.5183(5) 0.6803(14)
H5_9 H 0.5038 0.5278 0.7873
C6_9 C 0.4931(6) 0.5500(4) 0.5712(12)
C7_9 C 0.4941(8) 0.5986(6) 0.6314(16)
H6_9 H 0.5018 0.6025 0.7435
H7_9 H 0.4606 0.5957 0.6135
H8_9 H 0.5208 0.6287 0.5757
C8_9 C 0.5059(8) 0.4419(6) 0.7668(16)
H9_9 H 0.5349 0.4368 0.7437
H10_9 H 0.4742 0.4084 0.7721
H11_9 H 0.5116 0.4596 0.8672
C9_9 C 0.5084(4) 0.4168(3) 0.4316(13)
H12_9 H 0.4982 0.3930 0.5217
H13_9 H 0.4861 0.3976 0.3422
C10_9 C 0.4803(6) 0.4749(4) 0.1861(12)
H14_9 H 0.5123 0.4822 0.1338
H15_9 H 0.4656 0.4935 0.1332
H16_9 H 0.4558 0.4379 0.1821
C11_9 C 0.4858(5) 0.5722(4) 0.2854(12)
H17_9 H 0.5040 0.5703 0.1916
H18_9 H 0.5059 0.6077 0.3257
C12_9 C 0.3892(6) 0.5260(4) 0.3252(11)
H19_9 H 0.4007 0.5057 0.3867
H20_9 H 0.3614 0.5021 0.2545
C13_9 C 0.3678(6) 0.5506(4) 0.4371(12)
C15_9 C 0.4231(5) 0.5478(4) 0.0546(11)
H21_9 H 0.4134 0.5112 0.0453
C16_9 C 0.6035(4) 0.4706(3) 0.4970(11)
H23_9 H 0.5877 0.4866 0.5604
H24_9 H 0.6317 0.4983 0.4360
C17_9 C 0.6271(6) 0.4477(4) 0.6101(13)
C18_9 C 0.6236(6) 0.4441(4) 0.1622(13)
C19_9 C 0.5773(4) 0.4512(3) 0.2202(10)
H25_9 H 0.5866 0.4876 0.2090
H26_9 H 0.5465 0.4300 0.1552
C14_9 C 0.3775(6) 0.5557(4) 0.9964(13)
H22_9 H 0.4542 0.5686 0.9906
loop_
_geom_bond_atom_site_label_1
_geom_bond_atom_site_label_2
_geom_bond_site_symmetry_1
_geom_bond_site_symmetry_2
C5 H5 1_555 1_555
H9 C8 1_555 1_555
H10 C8 1_555 1_555
H11 C8 1_555 1_555
Co4 O8 1_555 1_555
Co1 N1 1_555 1_555
Co2 N2 1_555 1_555
N1 C11 1_555 1_555
N2 C9 1_555 1_555
O1 Co1 1_555 1_555
O3 Co2 1_555 1_555
H3 O3 1_555 1_555
H4 O3 1_555 1_555
O4 C13 1_555 1_555
O5 Co1 1_555 1_555
O6 C14 1_555 1_555
O7 Co2 1_555 1_555
O9 Co2 1_555 1_555
O10 C18 1_555 1_555
C1 C2 1_555 1_555
C2 C3 1_555 1_555
C3 C4 1_555 1_555
C6 C1 1_555 1_555
C7 C6 1_555 1_555
H7 C7 1_555 1_555
H8 C7 1_555 1_555
C9 C3 1_555 1_555
H12 C9 1_555 1_555
H13 C9 1_555 1_555
C10 C2 1_555 1_555
H14 C10 1_555 1_555
H15 C10 1_555 1_555
H16 C10 1_555 1_555
C11 C1 1_555 1_555
H17 C11 1_555 1_555
H18 C11 1_555 1_555
C12 N1 1_555 1_555
H19 C12 1_555 1_555
H20 C12 1_555 1_555
C13 O1 1_555 1_555
C14 O5 1_555 1_555
C15 N1 1_555 1_555
H21 C15 1_555 1_555
H22 C15 1_555 1_555
C16 N2 1_555 1_555
H23 C16 1_555 1_555
H24 C16 1_555 1_555
C17 O7 1_555 1_555
C18 O9 1_555 1_555
C19 N2 1_555 1_555
H25 C19 1_555 1_555
H26 C19 1_555 1_555
Co4 O10 1_555 1_555
Co6 O6 1_555 1_555
O11 Co2 1_555 1_555
O12 Co2 1_555 1_555
C12 C13 1_555 1_555
C14 C15 1_555 1_555
C16 C17 1_555 1_555
C18 C19 1_555 1_555
H1 O2 1_555 1_555
H2 O2 1_555 1_555
C5_2 H5_2 1_555 1_555
H9_2 C8_2 1_555 1_555
H10_2 C8_2 1_555 1_555
H11_2 C8_2 1_555 1_555
Co4_2 O8_2 1_555 1_555
Co1_2 N1_2 1_555 1_555
Co2_2 N2_2 1_555 1_555
N1_2 C11_2 1_555 1_555
N2_2 C9_2 1_555 1_555
O1_2 Co1_2 1_555 1_555
O2_2 Co1_2 1_555 1_555
H1_2 O2_2 1_555 1_555
H2_2 O2_2 1_555 1_555
O3_2 Co2_2 1_555 1_555
H3_2 O3_2 1_555 1_555
H4_2 O3_2 1_555 1_555
O4_2 C13_2 1_555 1_555
O5_2 Co1_2 1_555 1_555
O6_2 C14_2 1_555 1_555
O7_2 Co2_2 1_555 1_555
O9_2 Co2_2 1_555 1_555
O10_2 C18_2 1_555 1_555
C1_2 C2_2 1_555 1_555
C2_2 C3_2 1_555 1_555
C3_2 C4_2 1_555 1_555
C6_2 C1_2 1_555 1_555
C7_2 C6_2 1_555 1_555
H7_2 C7_2 1_555 1_555
H8_2 C7_2 1_555 1_555
C9_2 C3_2 1_555 1_555
H12_2 C9_2 1_555 1_555
H13_2 C9_2 1_555 1_555
C10_2 C2_2 1_555 1_555
H14_2 C10_2 1_555 1_555
H15_2 C10_2 1_555 1_555
H16_2 C10_2 1_555 1_555
C11_2 C1_2 1_555 1_555
H17_2 C11_2 1_555 1_555
H18_2 C11_2 1_555 1_555
C12_2 N1_2 1_555 1_555
H19_2 C12_2 1_555 1_555
H20_2 C12_2 1_555 1_555
C13_2 O1_2 1_555 1_555
C14_2 O5_2 1_555 1_555
C15_2 N1_2 1_555 1_555
H21_2 C15_2 1_555 1_555
H22_2 C15_2 1_555 1_555
C16_2 N2_2 1_555 1_555
H23_2 C16_2 1_555 1_555
H24_2 C16_2 1_555 1_555
C17_2 O7_2 1_555 1_555
C18_2 O9_2 1_555 1_555
C19_2 N2_2 1_555 1_555
H25_2 C19_2 1_555 1_555
H26_2 C19_2 1_555 1_555
Co4_2 O10_2 1_555 1_555
O11_2 Co2_2 1_555 1_555
O12_2 Co2_2 1_555 1_555
O13_2 Co1_2 1_555 1_555
O14_2 Co1_2 1_555 1_555
C12_2 C13_2 1_555 1_555
C14_2 C15_2 1_555 1_555
C16_2 C17_2 1_555 1_555
C18_2 C19_2 1_555 1_555
H1_3 O2_3 1_555 1_555
H2_3 O2_3 1_555 1_555
C5_3 H5_3 1_555 1_555
H9_3 C8_3 1_555 1_555
H10_3 C8_3 1_555 1_555
H11_3 C8_3 1_555 1_555
Co4_3 O8_3 1_555 1_555
Co1_3 N1_3 1_555 1_555
Co2_3 N2_3 1_555 1_555
N1_3 C11_3 1_555 1_555
N2_3 C9_3 1_555 1_555
O1_3 Co1_3 1_555 1_555
O3_3 Co2_3 1_555 1_555
H3_3 O3_3 1_555 1_555
H4_3 O3_3 1_555 1_555
O4_3 C13_3 1_555 1_555
O5_3 Co1_3 1_555 1_555
O6_3 C14_3 1_555 1_555
O7_3 Co2_3 1_555 1_555
O9_3 Co2_3 1_555 1_555
O10_3 C18_3 1_555 1_555
C1_3 C2_3 1_555 1_555
C2_3 C3_3 1_555 1_555
C3_3 C4_3 1_555 1_555
C6_3 C1_3 1_555 1_555
C7_3 C6_3 1_555 1_555
H7_3 C7_3 1_555 1_555
H8_3 C7_3 1_555 1_555
C9_3 C3_3 1_555 1_555
H12_3 C9_3 1_555 1_555
H13_3 C9_3 1_555 1_555
C10_3 C2_3 1_555 1_555
H14_3 C10_3 1_555 1_555
H15_3 C10_3 1_555 1_555
H16_3 C10_3 1_555 1_555
C11_3 C1_3 1_555 1_555
H17_3 C11_3 1_555 1_555
H18_3 C11_3 1_555 1_555
C12_3 N1_3 1_555 1_555
H19_3 C12_3 1_555 1_555
H20_3 C12_3 1_555 1_555
C13_3 O1_3 1_555 1_555
C14_3 O5_3 1_555 1_555
C15_3 N1_3 1_555 1_555
H21_3 C15_3 1_555 1_555
H22_3 C15_3 1_555 1_555
C16_3 N2_3 1_555 1_555
H23_3 C16_3 1_555 1_555
H24_3 C16_3 1_555 1_555
C17_3 O7_3 1_555 1_555
C18_3 O9_3 1_555 1_555
C19_3 N2_3 1_555 1_555
H25_3 C19_3 1_555 1_555
H26_3 C19_3 1_555 1_555
Co4_3 O10_3 1_555 1_555
O11_3 Co2_3 1_555 1_555
O12_3 Co2_3 1_555 1_555
C12_3 C13_3 1_555 1_555
C14_3 C15_3 1_555 1_555
C16_3 C17_3 1_555 1_555
C18_3 C19_3 1_555 1_555
H4_4 O3_4 1_555 1_555
Co6_3 N2_4 1_555 1_555
N2_4 C9_4 1_555 1_555
O4_4 C13_4 1_555 1_555
O7_4 Co6_3 1_555 1_555
O13_2 C17_4 1_555 1_555
C1_4 C2_4 1_555 1_555
C2_4 C3_4 1_555 1_555
C3_4 C4_4 1_555 1_555
C4_4 C5_4 1_555 1_555
C5_4 H5_4 1_555 1_555
C6_4 C1_4 1_555 1_555
C7_4 C6_4 1_555 1_555
H6_4 C7_4 1_555 1_555
H7_4 C7_4 1_555 1_555
H8_4 C7_4 1_555 1_555
C8_4 C4_4 1_555 1_555
H9_4 C8_4 1_555 1_555
H10_4 C8_4 1_555 1_555
H11_4 C8_4 1_555 1_555
C9_4 C3_4 1_555 1_555
H12_4 C9_4 1_555 1_555
H13_4 C9_4 1_555 1_555
C13_4 O1_4 1_555 1_555
C16_4 N2_4 1_555 1_555
H23_4 C16_4 1_555 1_555
H24_4 C16_4 1_555 1_555
C17_4 O7_4 1_555 1_555
Co6_4 O4_4 1_555 1_555
C5_4 C6_4 1_555 1_555
C16_4 C17_4 1_555 1_555
Co1_4 N1_4 1_555 1_555
N1_4 C11_4 1_555 1_555
O2_4 Co1_4 1_555 1_555
H1_4 O2_4 1_555 1_555
H2_4 O2_4 1_555 1_555
O5_4 Co1_4 1_555 1_555
O6_4 C14_4 1_555 1_555
O14_2 C18_4 1_555 1_555
H14_4 C10_4 1_555 1_555
H15_4 C10_4 1_555 1_555
H16_4 C10_4 1_555 1_555
H17_4 C11_4 1_555 1_555
H18_4 C11_4 1_555 1_555
C12_4 N1_4 1_555 1_555
H20_4 C12_4 1_555 1_555
C14_4 O5_4 1_555 1_555
C15_4 N1_4 1_555 1_555
H21_4 C15_4 1_555 1_555
H22_4 C15_4 1_555 1_555
C18_4 O9_4 1_555 1_555
H25_4 C19_4 1_555 1_555
H26_4 C19_4 1_555 1_555
Co6_4 O6_4 1_555 1_555
O13_4 Co1_4 1_555 1_555
C14_4 C15_4 1_555 1_555
C18_4 C19_4 1_555 1_555
Co6 N2_5 1_555 1_555
N2_5 C9_5 1_555 1_555
O3_5 Co6 1_555 1_555
H4_5 O3_5 1_555 1_555
O4_5 C13_5 1_555 1_555
O7_5 Co6 1_555 1_555
O13_3 C17_5 1_555 1_555
C1_5 C2_5 1_555 1_555
C2_5 C3_5 1_555 1_555
C3_5 C4_5 1_555 1_555
C4_5 C5_5 1_555 1_555
C5_5 H5_5 1_555 1_555
C6_5 C1_5 1_555 1_555
C7_5 C6_5 1_555 1_555
H6_5 C7_5 1_555 1_555
H7_5 C7_5 1_555 1_555
H8_5 C7_5 1_555 1_555
C8_5 C4_5 1_555 1_555
H9_5 C8_5 1_555 1_555
H10_5 C8_5 1_555 1_555
H11_5 C8_5 1_555 1_555
C9_5 C3_5 1_555 1_555
H12_5 C9_5 1_555 1_555
H13_5 C9_5 1_555 1_555
C13_5 O1_5 1_555 1_555
C16_5 N2_5 1_555 1_555
H23_5 C16_5 1_555 1_555
H24_5 C16_5 1_555 1_555
C17_5 O7_5 1_555 1_555
Co6_5 O4_5 1_555 1_555
C5_5 C6_5 1_555 1_555
C16_5 C17_5 1_555 1_555
Co1_5 N1_5 1_555 1_555
N1_5 C11_5 1_555 1_555
O2_5 Co1_5 1_555 1_555
H1_5 O2_5 1_555 1_555
H2_5 O2_5 1_555 1_555
O5_5 Co1_5 1_555 1_555
O6_5 C14_5 1_555 1_555
O14_3 C18_5 1_555 1_555
H14_5 C10_5 1_555 1_555
H15_5 C10_5 1_555 1_555
H16_5 C10_5 1_555 1_555
H17_5 C11_5 1_555 1_555
H18_5 C11_5 1_555 1_555
C12_5 N1_5 1_555 1_555
H20_5 C12_5 1_555 1_555
C14_5 O5_5 1_555 1_555
C15_5 N1_5 1_555 1_555
H21_5 C15_5 1_555 1_555
H22_5 C15_5 1_555 1_555
C18_5 O9_5 1_555 1_555
H25_5 C19_5 1_555 1_555
H26_5 C19_5 1_555 1_555
Co6_5 O6_5 1_555 1_555
O13_5 Co1_5 1_555 1_555
C14_5 C15_5 1_555 1_555
C18_5 C19_5 1_555 1_555
Co6_2 N2_6 1_555 1_555
N2_6 C9_6 1_555 1_555
O4_6 C13_6 1_555 1_555
O7_6 Co6_2 1_555 1_555
O13 C17_6 1_555 1_555
C1_6 C2_6 1_555 1_555
C2_6 C3_6 1_555 1_555
C3_6 C4_6 1_555 1_555
C4_6 C5_6 1_555 1_555
C5_6 H5_6 1_555 1_555
C6_6 C1_6 1_555 1_555
C7_6 C6_6 1_555 1_555
H6_6 C7_6 1_555 1_555
H7_6 C7_6 1_555 1_555
H8_6 C7_6 1_555 1_555
C8_6 C4_6 1_555 1_555
H9_6 C8_6 1_555 1_555
H10_6 C8_6 1_555 1_555
H11_6 C8_6 1_555 1_555
C9_6 C3_6 1_555 1_555
H12_6 C9_6 1_555 1_555
H13_6 C9_6 1_555 1_555
C13_6 O1_6 1_555 1_555
C16_6 N2_6 1_555 1_555
H23_6 C16_6 1_555 1_555
H24_6 C16_6 1_555 1_555
C17_6 O7_6 1_555 1_555
Co6_6 O4_6 1_555 1_555
C5_6 C6_6 1_555 1_555
C16_6 C17_6 1_555 1_555
Co1_6 N1_6 1_555 1_555
N1_6 C11_6 1_555 1_555
O2_6 Co1_6 1_555 1_555
H1_6 O2_6 1_555 1_555
H2_6 O2_6 1_555 1_555
O5_6 Co1_6 1_555 1_555
O6_6 C14_6 1_555 1_555
O14 C18_6 1_555 1_555
H14_6 C10_6 1_555 1_555
H15_6 C10_6 1_555 1_555
H16_6 C10_6 1_555 1_555
H17_6 C11_6 1_555 1_555
H18_6 C11_6 1_555 1_555
C12_6 N1_6 1_555 1_555
H20_6 C12_6 1_555 1_555
C14_6 O5_6 1_555 1_555
C15_6 N1_6 1_555 1_555
H21_6 C15_6 1_555 1_555
H22_6 C15_6 1_555 1_555
C18_6 O9_6 1_555 1_555
H25_6 C19_6 1_555 1_555
H26_6 C19_6 1_555 1_555
Co6_6 O6_6 1_555 1_555
O13_6 Co1_6 1_555 1_555
C14_6 C15_6 1_555 1_555
C18_6 C19_6 1_555 1_555
H4_6 O3_6 1_555 1_555
Co6_6 N2_7 1_555 1_555
N2_7 C9_7 1_555 1_555
O3_7 Co6_6 1_555 1_555
H3_7 O3_7 1_555 1_555
H4_7 O3_7 1_555 1_555
O7_7 Co6_6 1_555 1_555
O13_5 C17_7 1_555 1_555
O9_7 Co6_6 1_555 1_555
O14_5 C18_7 1_555 1_555
C3_7 C4_7 1_555 1_555
C8_7 C4_7 1_555 1_555
H9_7 C8_7 1_555 1_555
H10_7 C8_7 1_555 1_555
H11_7 C8_7 1_555 1_555
C9_7 C3_7 1_555 1_555
H12_7 C9_7 1_555 1_555
H13_7 C9_7 1_555 1_555
H14_7 C10_7 1_555 1_555
H16_7 C10_7 1_555 1_555
C16_7 N2_7 1_555 1_555
H23_7 C16_7 1_555 1_555
H24_7 C16_7 1_555 1_555
C17_7 O7_7 1_555 1_555
C18_7 O9_7 1_555 1_555
C19_7 N2_7 1_555 1_555
H25_7 C19_7 1_555 1_555
H26_7 C19_7 1_555 1_555
C16_7 C17_7 1_555 1_555
C18_7 C19_7 1_555 1_555
Co4_3 N1_7 1_555 1_555
N1_7 C11_7 1_555 1_555
O1_7 Co4_3 1_555 1_555
O2_7 Co4_3 1_555 1_555
H1_7 O2_7 1_555 1_555
H2_7 O2_7 1_555 1_555
O11_2 C13_7 1_555 1_555
O5_7 Co4_3 1_555 1_555
C1_7 C2_7 1_555 1_555
C5_7 H5_7 1_555 1_555
C6_7 C1_7 1_555 1_555
C7_7 C6_7 1_555 1_555
H6_7 C7_7 1_555 1_555
H7_7 C7_7 1_555 1_555
H8_7 C7_7 1_555 1_555
C11_7 C1_7 1_555 1_555
H17_7 C11_7 1_555 1_555
H18_7 C11_7 1_555 1_555
C12_7 N1_7 1_555 1_555
H19_7 C12_7 1_555 1_555
H20_7 C12_7 1_555 1_555
C13_7 O1_7 1_555 1_555
C15_7 N1_7 1_555 1_555
H21_7 C15_7 1_555 1_555
C5_7 C6_7 1_555 1_555
C12_7 C13_7 1_555 1_555
O12_2 C14_7 1_555 1_555
Co4 N1_8 1_555 1_555
N1_8 C11_8 1_555 1_555
O1_8 Co4 1_555 1_555
O2_8 Co4 1_555 1_555
H1_8 O2_8 1_555 1_555
H2_8 O2_8 1_555 1_555
O11_3 C13_8 1_555 1_555
O5_8 Co4 1_555 1_555
C1_8 C2_8 1_555 1_555
C5_8 H5_8 1_555 1_555
C6_8 C1_8 1_555 1_555
C7_8 C6_8 1_555 1_555
H6_8 C7_8 1_555 1_555
H7_8 C7_8 1_555 1_555
H8_8 C7_8 1_555 1_555
C11_8 C1_8 1_555 1_555
H17_8 C11_8 1_555 1_555
H18_8 C11_8 1_555 1_555
C12_8 N1_8 1_555 1_555
H19_8 C12_8 1_555 1_555
H20_8 C12_8 1_555 1_555
C13_8 O1_8 1_555 1_555
C15_8 N1_8 1_555 1_555
H21_8 C15_8 1_555 1_555
C5_8 C6_8 1_555 1_555
C12_8 C13_8 1_555 1_555
O12_3 C14_8 1_555 1_555
Co6_4 N2_8 1_555 1_555
N2_8 C9_8 1_555 1_555
O3_8 Co6_4 1_555 1_555
H3_8 O3_8 1_555 1_555
H4_8 O3_8 1_555 1_555
O7_8 Co6_4 1_555 1_555
O13_6 C17_8 1_555 1_555
O9_8 Co6_4 1_555 1_555
O14_6 C18_8 1_555 1_555
C3_8 C4_8 1_555 1_555
C8_8 C4_8 1_555 1_555
H9_8 C8_8 1_555 1_555
H10_8 C8_8 1_555 1_555
H11_8 C8_8 1_555 1_555
C9_8 C3_8 1_555 1_555
H12_8 C9_8 1_555 1_555
H13_8 C9_8 1_555 1_555
H14_8 C10_8 1_555 1_555
H16_8 C10_8 1_555 1_555
C16_8 N2_8 1_555 1_555
H23_8 C16_8 1_555 1_555
H24_8 C16_8 1_555 1_555
C17_8 O7_8 1_555 1_555
C18_8 O9_8 1_555 1_555
C19_8 N2_8 1_555 1_555
H25_8 C19_8 1_555 1_555
H26_8 C19_8 1_555 1_555
C16_8 C17_8 1_555 1_555
C18_8 C19_8 1_555 1_555
Co4_2 N1_9 1_555 1_555
Co6_5 N2_9 1_555 1_555
N1_9 C11_9 1_555 1_555
N2_9 C9_9 1_555 1_555
O1_9 Co4_2 1_555 1_555
O2_9 Co4_2 1_555 1_555
H1_9 O2_9 1_555 1_555
H2_9 O2_9 1_555 1_555
O3_9 Co6_5 1_555 1_555
H3_9 O3_9 1_555 1_555
H4_9 O3_9 1_555 1_555
O11 C13_9 1_555 1_555
O5_9 Co4_2 1_555 1_555
O7_9 Co6_5 1_555 1_555
O13_4 C17_9 1_555 1_555
O9_9 Co6_5 1_555 1_555
O14_4 C18_9 1_555 1_555
C1_9 C2_9 1_555 1_555
C2_9 C3_9 1_555 1_555
C3_9 C4_9 1_555 1_555
C4_9 C5_9 1_555 1_555
C5_9 H5_9 1_555 1_555
C6_9 C1_9 1_555 1_555
C7_9 C6_9 1_555 1_555
H6_9 C7_9 1_555 1_555
H7_9 C7_9 1_555 1_555
H8_9 C7_9 1_555 1_555
C8_9 C4_9 1_555 1_555
H9_9 C8_9 1_555 1_555
H10_9 C8_9 1_555 1_555
H11_9 C8_9 1_555 1_555
C9_9 C3_9 1_555 1_555
H12_9 C9_9 1_555 1_555
H13_9 C9_9 1_555 1_555
C10_9 C2_9 1_555 1_555
H14_9 C10_9 1_555 1_555
H15_9 C10_9 1_555 1_555
H16_9 C10_9 1_555 1_555
C11_9 C1_9 1_555 1_555
H17_9 C11_9 1_555 1_555
H18_9 C11_9 1_555 1_555
C12_9 N1_9 1_555 1_555
H19_9 C12_9 1_555 1_555
H20_9 C12_9 1_555 1_555
C13_9 O1_9 1_555 1_555
C15_9 N1_9 1_555 1_555
H21_9 C15_9 1_555 1_555
C16_9 N2_9 1_555 1_555
H23_9 C16_9 1_555 1_555
H24_9 C16_9 1_555 1_555
C17_9 O7_9 1_555 1_555
C18_9 O9_9 1_555 1_555
C19_9 N2_9 1_555 1_555
H25_9 C19_9 1_555 1_555
H26_9 C19_9 1_555 1_555
C5_9 C6_9 1_555 1_555
C12_9 C13_9 1_555 1_555
C16_9 C17_9 1_555 1_555
C18_9 C19_9 1_555 1_555
O12 C14_9 1_555 1_555

#END
