
###############################################################################
#
# This file contains modified crystal structure data generated from the
# MOF subset of the Cambridge Structural Database (CSD) v543 
# hosted by the Cambridge Crystallographic Data Centre (CCDC).
#
# This work is licensed under the Creative Commons
# Attribution-NonCommercial-ShareAlike 4.0 International License.
# To view a copy of this license, visit
# http://creativecommons.org/licenses/by-nc-sa/4.0/
# or send a letter to
# Creative Commons, PO Box 1866, Mountain View, CA 94042, USA.
#
# CIF created using the CSD Python API on 29 September 2022
# The structure has been converted into the P1 space group
# The structure has a 3D framework
# The original CSD entry OGEBAF is in the hexagonal crystal system
# The framework has been calculated to contain at least 10.0% void space
# The void calculation uses a probe of radius 1.32A, grid spacing 0.4
# H atom positions have been added when not included in the experimental data
# Generated hydrogen atom positions removed from atoms on special positions
#
###############################################################################

data_OGEBAF
_chemical_formula_moiety         '(C204 H216 Cu18 O79)n'
_symmetry_cell_setting           triclinic
_symmetry_space_group_name_H-M   'P 1'
_symmetry_Int_Tables_number      1
_space_group_name_Hall           'P 1'
loop_
_symmetry_equiv_pos_site_id
_symmetry_equiv_pos_as_xyz
1 x,y,z
_cell_length_a                   18.961(4)
_cell_length_b                   18.961(4)
_cell_length_c                   50.901(10)
_cell_angle_alpha                90
_cell_angle_beta                 90
_cell_angle_gamma                120
_cell_volume                     15848.2
loop_
_atom_site_label
_atom_site_type_symbol
_atom_site_fract_x
_atom_site_fract_y
_atom_site_fract_z
Cu1 Cu 0.06030(11) 0.1206(2) 0.2500
O1 O 0.1323(6) 0.1200(6) 0.2230(2)
O3 O 0.4447(3) 0.0353(3) 0.03185(10)
O5 O 0.1363(10) 0.273(2) 0.2500
C1 C 0.1302(16) 0.0651(8) 0.2147(3)
C2 C 0.1926(11) 0.0963(5) 0.1879(3)
C3 C 0.2113(10) 0.0451(8) 0.1757(2)
C4 C 0.2496(11) 0.0622(8) 0.1518(3)
H2 H 0.2612 0.0252 0.1437
C5 C 0.2703(13) 0.1352(6) 0.1401(3)
C6 C 0.3109(12) 0.1554(6) 0.1140(3)
C7 C 0.3415(11) 0.1707(6) 0.0937(3)
C8 C 0.3768(9) 0.1884(4) 0.0678(2)
C9 C 0.3962(6) 0.1342(5) 0.05557(16)
H3 H 0.3857 0.0865 0.0641
C10 C 0.4316(5) 0.1520(5) 0.03032(14)
C11 C 0.4486(7) 0.2243(3) 0.0183(2)
H4 H 0.4720 0.2360 0.0016
C12 C 0.4547(5) 0.0946(4) 0.01860(14)
O6 O 0.1323(6) 0.0123(8) 0.2230(2)
O8 O 0.4447(3) 0.4094(4) 0.03185(10)
C13 C 0.2113(10) 0.1662(13) 0.1757(2)
H5 H 0.1977 0.2018 0.1838
C14 C 0.2496(11) 0.1874(14) 0.1518(3)
H6 H 0.2612 0.2360 0.1437
C15 C 0.3962(6) 0.2620(8) 0.05557(16)
H7 H 0.3857 0.2992 0.0641
C16 C 0.4316(5) 0.2796(7) 0.03032(14)
C17 C 0.4547(5) 0.3601(6) 0.01860(14)
H8 H 0.0041 0.2018 0.1838
Cu10 Cu 0.04429(7) 0.52214(3) 0.02190(2)
Cu11 Cu 0.47786(3) 0.52215(8) 0.02190(2)
O17 O 0.1323(6) 0.1200(6) 0.2770(2)
O23 O 0.5906(4) 0.0353(3) 0.03185(10)
Cu2 Cu 0.52214(3) 0.04429(7) 0.97810(2)
O2 O 0.4835(3) 0.1113(3) 0.99531(10)
O4 O 0.5515(3) 0.1031(5) 0.94043(16)
O7 O 0.4835(3) 0.3722(4) 0.99531(10)
Cu8 Cu 0.52215(8) 0.47786(3) 0.97810(2)
O20 O 0.6278(4) 0.1113(3) 0.99531(10)
H1 H 0.1977 0.9959 0.1838
Cu3 Cu 0.47785(8) 0.95571(7) 0.02190(2)
O15 O 0.4484(6) 0.8969(5) 0.05957(16)
Cu5 Cu 0.06030(23) 0.93970(11) 0.2500
O18 O 0.3722(4) 0.8887(3) 0.00469(10)
O19 O 0.5165(3) 0.8887(3) 0.00469(10)
O21 O 0.4094(4) 0.9647(3) 0.96815(10)
O22 O 0.5553(3) 0.9647(3) 0.96815(10)
O9 O 0.8800(6) 0.0123(8) 0.2230(2)
O11 O 0.9647(3) 0.4094(4) 0.03185(10)
C18 C 0.9349(8) 0.0651(18) 0.2147(3)
C19 C 0.9037(5) 0.0963(12) 0.1879(3)
C20 C 0.9549(8) 0.1662(13) 0.1757(2)
C21 C 0.9378(8) 0.1874(14) 0.1518(3)
H9 H 0.9748 0.2360 0.1437
C22 C 0.8648(6) 0.1351(14) 0.1401(3)
C23 C 0.8446(6) 0.1555(13) 0.1140(3)
C24 C 0.8293(6) 0.1708(13) 0.0937(3)
C25 C 0.8116(4) 0.1884(10) 0.0678(2)
C26 C 0.8658(5) 0.2620(8) 0.05557(16)
H10 H 0.9135 0.2992 0.0641
C27 C 0.8480(5) 0.2796(7) 0.03032(14)
C28 C 0.7757(3) 0.2243(8) 0.0183(2)
H11 H 0.7640 0.2360 0.0016
C29 C 0.9054(4) 0.3601(6) 0.01860(14)
O12 O 0.9877(8) 0.1200(6) 0.2230(2)
C30 C 0.8338(13) 0.0451(8) 0.1757(2)
C31 C 0.8126(14) 0.0622(8) 0.1518(3)
H13 H 0.7640 0.0252 0.1437
C32 C 0.7380(8) 0.1342(5) 0.05557(16)
H14 H 0.7008 0.0865 0.0641
C33 C 0.7204(7) 0.1520(5) 0.03032(14)
C34 C 0.6399(6) 0.0946(4) 0.01860(14)
O16 O 0.9877(8) 0.1200(6) 0.2770(2)
O10 O 0.8887(3) 0.3722(4) 0.99531(10)
Cu7 Cu 0.95571(7) 0.47785(8) 0.97810(2)
H12 H 0.7982 0.9959 0.1838
Cu4 Cu 0.8794(2) 0.93970(23) 0.2500
Cu2_2 Cu 0.47785(8) 0.52214(3) 0.47810(2)
O1_2 O 0.0123(8) 0.1323(6) 0.7230(2)
O2_2 O 0.3722(4) 0.4835(3) 0.49531(10)
O3_2 O 0.4094(4) 0.4447(3) 0.53185(10)
O4_2 O 0.4484(6) 0.5515(3) 0.44043(16)
C1_2 C 0.0651(18) 0.1302(16) 0.7147(3)
C2_2 C 0.0963(12) 0.1926(11) 0.6879(3)
C3_2 C 0.1662(13) 0.2113(10) 0.6757(2)
H1_2 H 0.2018 0.1977 0.6838
C4_2 C 0.1874(14) 0.2496(11) 0.6518(3)
H2_2 H 0.2360 0.2612 0.6437
C5_2 C 0.1351(14) 0.2703(13) 0.6401(3)
C6_2 C 0.1555(13) 0.3109(12) 0.6140(3)
C7_2 C 0.1708(13) 0.3415(11) 0.5937(3)
C8_2 C 0.1884(10) 0.3768(9) 0.5678(2)
C9_2 C 0.2620(8) 0.3962(6) 0.55557(16)
H3_2 H 0.2992 0.3857 0.5641
C10_2 C 0.2796(7) 0.4316(5) 0.53032(14)
C11_2 C 0.2243(8) 0.4486(7) 0.5183(2)
H4_2 H 0.2360 0.4720 0.5016
C12_2 C 0.3601(6) 0.4547(5) 0.51860(14)
O6_2 O 0.1200(10) 0.1323(6) 0.7230(2)
O7_2 O 0.1113(5) 0.4835(3) 0.49531(10)
O8_2 O 0.0353(5) 0.4447(3) 0.53185(10)
C13_2 C 0.0451(16) 0.2113(10) 0.6757(2)
C14_2 C 0.0622(18) 0.2496(11) 0.6518(3)
H6_2 H 0.0252 0.2612 0.6437
C15_2 C 0.1342(10) 0.3962(6) 0.55557(16)
H7_2 H 0.0865 0.3857 0.5641
C16_2 C 0.1520(9) 0.4316(5) 0.53032(14)
C17_2 C 0.0946(8) 0.4547(5) 0.51860(14)
Cu3_2 Cu 0.52214(11) 0.47785(8) 0.52190(2)
O15_2 O 0.5515(8) 0.4484(6) 0.55957(16)
Cu5_2 Cu 0.12060(25) 0.06030(23) 0.7500
Cu8_2 Cu 0.04429(9) 0.52215(8) 0.47810(2)
O17_2 O 0.0123(8) 0.1323(6) 0.7770(2)
O18_2 O 0.4835(5) 0.3722(4) 0.50469(10)
O19_2 O 0.6278(4) 0.5165(3) 0.50469(10)
O20_2 O 0.5165(5) 0.6278(4) 0.49531(10)
O21_2 O 0.4447(5) 0.4094(4) 0.46815(10)
O22_2 O 0.5906(4) 0.5553(3) 0.46815(10)
O23_2 O 0.5553(5) 0.5906(4) 0.53185(10)
Cu1_2 Cu 0.93970(23) 0.06030(11) 0.7500
O5_2 O 0.8633(22) 0.1363(10) 0.7500
H5_2 H 0.9959 0.1977 0.6838
H8_2 H 0.8023 0.0041 0.6838
Cu10_2 Cu 0.52215(8) 0.04429(7) 0.52190(2)
Cu11_2 Cu 0.95571(9) 0.47786(3) 0.52190(2)
O9_2 O 0.8677(10) 0.8800(6) 0.7230(2)
O10_2 O 0.5165(5) 0.8887(3) 0.49531(10)
O11_2 O 0.5553(5) 0.9647(3) 0.53185(10)
C18_2 C 0.8698(20) 0.9349(8) 0.7147(3)
C19_2 C 0.8074(13) 0.9037(5) 0.6879(3)
C20_2 C 0.7887(15) 0.9549(8) 0.6757(2)
C21_2 C 0.7504(16) 0.9378(8) 0.6518(3)
H9_2 H 0.7388 0.9748 0.6437
C22_2 C 0.7297(15) 0.8648(6) 0.6401(3)
C23_2 C 0.6891(14) 0.8446(6) 0.6140(3)
C24_2 C 0.6585(14) 0.8293(6) 0.5937(3)
C25_2 C 0.6232(11) 0.8116(4) 0.5678(2)
C26_2 C 0.6038(9) 0.8658(5) 0.55557(16)
H10_2 H 0.6143 0.9135 0.5641
C27_2 C 0.5684(9) 0.8480(5) 0.53032(14)
C28_2 C 0.5514(9) 0.7757(3) 0.5183(2)
H11_2 H 0.5280 0.7640 0.5016
C29_2 C 0.5453(7) 0.9054(4) 0.51860(14)
O12_2 O 0.8677(10) 0.9877(8) 0.7230(2)
C30_2 C 0.7887(15) 0.8338(13) 0.6757(2)
H12_2 H 0.8023 0.7982 0.6838
C31_2 C 0.7504(16) 0.8126(14) 0.6518(3)
H13_2 H 0.7388 0.7640 0.6437
C32_2 C 0.6038(9) 0.7380(8) 0.55557(16)
H14_2 H 0.6143 0.7008 0.5641
C33_2 C 0.5684(9) 0.7204(7) 0.53032(14)
C34_2 C 0.5453(7) 0.6399(6) 0.51860(14)
Cu4_2 Cu 0.93970(30) 0.8794(2) 0.7500
Cu7_2 Cu 0.47786(11) 0.95571(7) 0.47810(2)
O16_2 O 0.8677(10) 0.9877(8) 0.7770(2)
O15_3 O 0.1031(5) 0.5515(8) 0.05957(16)
O18_3 O 0.1113(3) 0.4835(5) 0.00469(10)
O19_3 O 0.1113(3) 0.6278(4) 0.00469(10)
O21_3 O 0.0353(3) 0.4447(5) 0.96815(10)
O22_3 O 0.0353(3) 0.5906(4) 0.96815(10)
H12_3 H 0.0041 0.8023 0.1838
O17_3 O 0.8800(6) 0.0123(8) 0.2770(2)
O23_3 O 0.9647(3) 0.5553(5) 0.03185(10)
O4_3 O 0.8969(5) 0.4484(6) 0.94043(16)
O20_3 O 0.8887(3) 0.5165(5) 0.99531(10)
O5_3 O 0.727(2) 0.8633(22) 0.2500
O9_3 O 0.9877(8) 0.8677(10) 0.2230(2)
O11_3 O 0.5906(4) 0.5553(5) 0.03185(10)
C18_3 C 0.9349(18) 0.8698(20) 0.2147(3)
C19_3 C 0.9037(12) 0.8074(13) 0.1879(3)
C20_3 C 0.8338(13) 0.7887(15) 0.1757(2)
H8_3 H 0.7982 0.8023 0.1838
C21_3 C 0.8126(14) 0.7504(16) 0.1518(3)
H9_3 H 0.7640 0.7388 0.1437
C22_3 C 0.8649(14) 0.7297(15) 0.1401(3)
C23_3 C 0.8445(13) 0.6891(14) 0.1140(3)
C24_3 C 0.8292(13) 0.6585(14) 0.0937(3)
C25_3 C 0.8116(10) 0.6232(11) 0.0678(2)
C26_3 C 0.7380(8) 0.6038(9) 0.05557(16)
H10_3 H 0.7008 0.6143 0.0641
C27_3 C 0.7204(7) 0.5684(9) 0.03032(14)
C28_3 C 0.7757(8) 0.5514(9) 0.0183(2)
H11_3 H 0.7640 0.5280 0.0016
C29_3 C 0.6399(6) 0.5453(7) 0.01860(14)
O12_3 O 0.8800(6) 0.8677(10) 0.2230(2)
C30_3 C 0.9549(8) 0.7887(15) 0.1757(2)
C31_3 C 0.9378(8) 0.7504(16) 0.1518(3)
H13_3 H 0.9748 0.7388 0.1437
C32_3 C 0.8658(5) 0.6038(9) 0.05557(16)
H14_3 H 0.9135 0.6143 0.0641
C33_3 C 0.8480(5) 0.5684(9) 0.03032(14)
C34_3 C 0.9054(4) 0.5453(7) 0.01860(14)
O16_3 O 0.8800(6) 0.8677(10) 0.2770(2)
O10_3 O 0.6278(4) 0.5165(5) 0.99531(10)
H12_4 H 0.2018 0.0041 0.6838
O9_4 O 0.1200(6) 0.9877(8) 0.7230(2)
O10_4 O 0.1113(3) 0.6278(4) 0.49531(10)
O11_4 O 0.0353(3) 0.5906(4) 0.53185(10)
C18_4 C 0.0651(8) 0.9349(18) 0.7147(3)
C19_4 C 0.0963(5) 0.9037(12) 0.6879(3)
C20_4 C 0.0451(8) 0.8338(13) 0.6757(2)
C21_4 C 0.0622(8) 0.8126(14) 0.6518(3)
H9_4 H 0.0252 0.7640 0.6437
C22_4 C 0.1352(6) 0.8649(14) 0.6401(3)
C23_4 C 0.1554(6) 0.8445(13) 0.6140(3)
C24_4 C 0.1707(6) 0.8292(13) 0.5937(3)
C25_4 C 0.1884(4) 0.8116(10) 0.5678(2)
C26_4 C 0.1342(5) 0.7380(8) 0.55557(16)
H10_4 H 0.0865 0.7008 0.5641
C27_4 C 0.1520(5) 0.7204(7) 0.53032(14)
C28_4 C 0.2243(3) 0.7757(8) 0.5183(2)
H11_4 H 0.2360 0.7640 0.5016
C29_4 C 0.0946(4) 0.6399(6) 0.51860(14)
O12_4 O 0.0123(8) 0.8800(6) 0.7230(2)
O13 O 0.3722(4) 0.8887(3) 0.49531(10)
O14 O 0.4094(4) 0.9647(3) 0.53185(10)
C30_4 C 0.1662(13) 0.9549(8) 0.6757(2)
C31_4 C 0.1874(14) 0.9378(8) 0.6518(3)
H13_4 H 0.2360 0.9748 0.6437
C32_4 C 0.2620(8) 0.8658(5) 0.55557(16)
H14_4 H 0.2992 0.9135 0.5641
C33_4 C 0.2796(7) 0.8480(5) 0.53032(14)
C34_4 C 0.3601(6) 0.9054(4) 0.51860(14)
O16_4 O 0.0123(8) 0.8800(6) 0.7770(2)
O15_4 O 0.5516(6) 0.1031(5) 0.55957(16)
O18_4 O 0.6278(4) 0.1113(3) 0.50469(10)
O19_4 O 0.4835(3) 0.1113(3) 0.50469(10)
O21_4 O 0.5906(4) 0.0353(3) 0.46815(10)
O22_4 O 0.4447(3) 0.0353(3) 0.46815(10)
O4_4 O 0.4485(3) 0.8969(5) 0.44043(16)
O5_4 O 0.8637(10) 0.727(2) 0.7500
H8_4 H 0.9959 0.7982 0.6838
O17_4 O 0.8677(6) 0.8800(6) 0.7770(2)
O16_5 O 0.1323(10) 0.0123(8) 0.2770(2)
O5_5 O 0.1367(22) 0.8637(10) 0.2500
O15_5 O 0.4485(8) 0.5516(6) 0.05957(16)
O17_5 O 0.9877(8) 0.8677(6) 0.2770(2)
O18_5 O 0.5165(5) 0.6278(4) 0.00469(10)
O19_5 O 0.3722(4) 0.4835(3) 0.00469(10)
O4_5 O 0.5516(6) 0.4485(3) 0.94043(16)
O21_5 O 0.5553(5) 0.5906(4) 0.96815(10)
O22_5 O 0.4094(4) 0.4447(3) 0.96815(10)
O5_6 O 0.273(2) 0.1367(22) 0.7500
O16_6 O 0.1200(6) 0.1323(10) 0.7770(2)
O4_6 O 0.1031(5) 0.5516(6) 0.44043(16)
O17_6 O 0.1200(6) 0.9877(8) 0.7770(2)
O15_6 O 0.8969(5) 0.4485(8) 0.55957(16)
O18_6 O 0.8887(3) 0.5165(5) 0.50469(10)
O19_6 O 0.8887(3) 0.3722(4) 0.50469(10)
O21_6 O 0.9647(3) 0.5553(5) 0.46815(10)
O22_6 O 0.9647(3) 0.4094(4) 0.46815(10)
H12_5 H 0.0041 0.2018 0.3162
H1_3 H 0.0041 0.8023 0.3162
C18_5 C 0.9349(18) 0.0651(8) 0.2853(3)
C19_5 C 0.9037(12) 0.0963(5) 0.3121(3)
C20_5 C 0.8338(13) 0.0451(8) 0.3243(2)
C21_5 C 0.8126(14) 0.0622(8) 0.3482(3)
H9_5 H 0.7640 0.0252 0.3563
C22_5 C 0.8649(14) 0.1352(6) 0.3599(3)
C23_5 C 0.8445(13) 0.1554(6) 0.3860(3)
C24_5 C 0.8292(13) 0.1707(6) 0.4063(3)
C25_5 C 0.8116(10) 0.1884(4) 0.4322(2)
C26_5 C 0.7380(8) 0.1342(5) 0.44443(16)
H10_5 H 0.7008 0.0865 0.4359
C27_5 C 0.7204(7) 0.1520(5) 0.46968(14)
C28_5 C 0.7757(8) 0.2243(3) 0.4817(2)
H11_5 H 0.7640 0.2360 0.4984
C29_5 C 0.6399(6) 0.0946(4) 0.48140(14)
C30_5 C 0.9549(8) 0.1662(13) 0.3243(2)
C31_5 C 0.9378(8) 0.1874(14) 0.3482(3)
H13_5 H 0.9748 0.2360 0.3563
C32_5 C 0.8658(5) 0.2620(8) 0.44443(16)
H14_5 H 0.9135 0.2992 0.4359
C33_5 C 0.8480(5) 0.2796(7) 0.46968(14)
C34_5 C 0.9054(4) 0.3601(6) 0.48140(14)
C1_3 C 0.9349(8) 0.8698(16) 0.2853(3)
C2_3 C 0.9037(5) 0.8074(11) 0.3121(3)
C3_3 C 0.9549(8) 0.7887(10) 0.3243(2)
C4_3 C 0.9378(8) 0.7504(11) 0.3482(3)
H2_3 H 0.9748 0.7388 0.3563
C5_3 C 0.8648(6) 0.7297(13) 0.3599(3)
C6_3 C 0.8446(6) 0.6891(12) 0.3860(3)
C7_3 C 0.8293(6) 0.6585(11) 0.4063(3)
C8_3 C 0.8116(4) 0.6232(9) 0.4322(2)
C9_3 C 0.8658(5) 0.6038(6) 0.44443(16)
H3_3 H 0.9135 0.6143 0.4359
C10_3 C 0.8480(5) 0.5684(5) 0.46968(14)
C11_3 C 0.7757(3) 0.5514(7) 0.4817(2)
H4_3 H 0.7640 0.5280 0.4984
C12_3 C 0.9054(4) 0.5453(5) 0.48140(14)
C13_3 C 0.8338(13) 0.7887(10) 0.3243(2)
H5_3 H 0.7982 0.8023 0.3162
C14_3 C 0.8126(14) 0.7504(11) 0.3482(3)
H6_3 H 0.7640 0.7388 0.3563
C15_3 C 0.7380(8) 0.6038(6) 0.44443(16)
H7_3 H 0.7008 0.6143 0.4359
C16_3 C 0.7204(7) 0.5684(5) 0.46968(14)
C17_3 C 0.6399(6) 0.5453(5) 0.48140(14)
H8_5 H 0.7982 0.9959 0.3162
H1_4 H 0.2018 0.0041 0.8162
C1_4 C 0.0651(18) 0.9349(8) 0.7853(3)
C2_4 C 0.0963(12) 0.9037(5) 0.8121(3)
C3_4 C 0.1662(13) 0.9549(8) 0.8243(2)
C4_4 C 0.1874(14) 0.9378(8) 0.8482(3)
H2_4 H 0.2360 0.9748 0.8563
C5_4 C 0.1351(14) 0.8648(6) 0.8599(3)
C6_4 C 0.1555(13) 0.8446(6) 0.8860(3)
C7_4 C 0.1708(13) 0.8293(6) 0.9063(3)
C8_4 C 0.1884(10) 0.8116(4) 0.9322(2)
C9_4 C 0.2620(8) 0.8658(5) 0.94443(16)
H3_4 H 0.2992 0.9135 0.9359
C10_4 C 0.2796(7) 0.8480(5) 0.96968(14)
C11_4 C 0.2243(8) 0.7757(3) 0.9817(2)
H4_4 H 0.2360 0.7640 0.9984
C12_4 C 0.3601(6) 0.9054(4) 0.98140(14)
C13_4 C 0.0451(16) 0.8338(13) 0.8243(2)
C14_4 C 0.0622(18) 0.8126(14) 0.8482(3)
H6_4 H 0.0252 0.7640 0.8563
C15_4 C 0.1342(10) 0.7380(8) 0.94443(16)
H7_4 H 0.0865 0.7008 0.9359
C16_4 C 0.1520(9) 0.7204(7) 0.96968(14)
C17_4 C 0.0946(8) 0.6399(6) 0.98140(14)
H12_6 H 0.8023 0.0041 0.8162
H5_4 H 0.9959 0.7982 0.8162
C18_6 C 0.8698(20) 0.9349(18) 0.7853(3)
C19_6 C 0.8074(13) 0.9037(12) 0.8121(3)
C20_6 C 0.7887(15) 0.8338(13) 0.8243(2)
H8_6 H 0.8023 0.7982 0.8162
C21_6 C 0.7504(16) 0.8126(14) 0.8482(3)
H9_6 H 0.7388 0.7640 0.8563
C22_6 C 0.7297(15) 0.8649(14) 0.8599(3)
C23_6 C 0.6891(14) 0.8445(13) 0.8860(3)
C24_6 C 0.6585(14) 0.8292(13) 0.9063(3)
C25_6 C 0.6232(11) 0.8116(10) 0.9322(2)
C26_6 C 0.6038(9) 0.7380(8) 0.94443(16)
H10_6 H 0.6143 0.7008 0.9359
C27_6 C 0.5684(9) 0.7204(7) 0.96968(14)
C28_6 C 0.5514(9) 0.7757(8) 0.9817(2)
H11_6 H 0.5280 0.7640 0.9984
C29_6 C 0.5453(7) 0.6399(6) 0.98140(14)
C30_6 C 0.7887(15) 0.9549(8) 0.8243(2)
C31_6 C 0.7504(16) 0.9378(8) 0.8482(3)
H13_6 H 0.7388 0.9748 0.8563
C32_6 C 0.6038(9) 0.8658(5) 0.94443(16)
H14_6 H 0.6143 0.9135 0.9359
C33_6 C 0.5684(9) 0.8480(5) 0.96968(14)
C34_6 C 0.5453(7) 0.9054(4) 0.98140(14)
C1_5 C 0.1302(16) 0.0651(18) 0.2853(3)
C2_5 C 0.1926(11) 0.0963(12) 0.3121(3)
C3_5 C 0.2113(10) 0.1662(13) 0.3243(2)
H1_5 H 0.1977 0.2018 0.3162
C4_5 C 0.2496(11) 0.1874(14) 0.3482(3)
H2_5 H 0.2612 0.2360 0.3563
C5_5 C 0.2703(13) 0.1351(14) 0.3599(3)
C6_5 C 0.3109(12) 0.1555(13) 0.3860(3)
C7_5 C 0.3415(11) 0.1708(13) 0.4063(3)
C8_5 C 0.3768(9) 0.1884(10) 0.4322(2)
C9_5 C 0.3962(6) 0.2620(8) 0.44443(16)
H3_5 H 0.3857 0.2992 0.4359
C10_5 C 0.4316(5) 0.2796(7) 0.46968(14)
C11_5 C 0.4486(7) 0.2243(8) 0.4817(2)
H4_5 H 0.4720 0.2360 0.4984
C12_5 C 0.4547(5) 0.3601(6) 0.48140(14)
C13_5 C 0.2113(10) 0.0451(16) 0.3243(2)
C14_5 C 0.2496(11) 0.0622(18) 0.3482(3)
H6_5 H 0.2612 0.0252 0.3563
C15_5 C 0.3962(6) 0.1342(10) 0.44443(16)
H7_5 H 0.3857 0.0865 0.4359
C16_5 C 0.4316(5) 0.1520(9) 0.46968(14)
C17_5 C 0.4547(5) 0.0946(8) 0.48140(14)
H5_5 H 0.1977 0.9959 0.3162
C1_6 C 0.0651(8) 0.1302(16) 0.7853(3)
C2_6 C 0.0963(5) 0.1926(11) 0.8121(3)
C3_6 C 0.0451(8) 0.2113(10) 0.8243(2)
C4_6 C 0.0622(8) 0.2496(11) 0.8482(3)
H2_6 H 0.0252 0.2612 0.8563
C5_6 C 0.1352(6) 0.2703(13) 0.8599(3)
C6_6 C 0.1554(6) 0.3109(12) 0.8860(3)
C7_6 C 0.1707(6) 0.3415(11) 0.9063(3)
C8_6 C 0.1884(4) 0.3768(9) 0.9322(2)
C9_6 C 0.1342(5) 0.3962(6) 0.94443(16)
H3_6 H 0.0865 0.3857 0.9359
C10_6 C 0.1520(5) 0.4316(5) 0.96968(14)
C11_6 C 0.2243(3) 0.4486(7) 0.9817(2)
H4_6 H 0.2360 0.4720 0.9984
C12_6 C 0.0946(4) 0.4547(5) 0.98140(14)
C13_6 C 0.1662(13) 0.2113(10) 0.8243(2)
H5_6 H 0.2018 0.1977 0.8162
C14_6 C 0.1874(14) 0.2496(11) 0.8482(3)
H6_6 H 0.2360 0.2612 0.8563
C15_6 C 0.2620(8) 0.3962(6) 0.94443(16)
H7_6 H 0.2992 0.3857 0.9359
C16_6 C 0.2796(7) 0.4316(5) 0.96968(14)
C17_6 C 0.3601(6) 0.4547(5) 0.98140(14)
H1_6 H 0.9959 0.1977 0.8162
loop_
_geom_bond_atom_site_label_1
_geom_bond_atom_site_label_2
_geom_bond_site_symmetry_1
_geom_bond_site_symmetry_2
Cu1 O1 1_555 1_555
O1 C1 1_555 1_555
O3 C12 1_555 1_555
O5 Cu1 1_555 1_555
C1 C2 1_555 1_555
C2 C3 1_555 1_555
C4 C3 1_555 1_555
H2 C4 1_555 1_555
C5 C4 1_555 1_555
C6 C5 1_555 1_555
C7 C6 1_555 1_555
C8 C7 1_555 1_555
C9 C8 1_555 1_555
H3 C9 1_555 1_555
C10 C9 1_555 1_555
C11 C10 1_555 1_555
H4 C11 1_555 1_555
C12 C10 1_555 1_555
O6 C1 1_555 1_555
O8 C17 1_555 1_555
C13 C2 1_555 1_555
H5 C13 1_555 1_555
C14 C5 1_555 1_555
H6 C14 1_555 1_555
C15 C8 1_555 1_555
H7 C15 1_555 1_555
C16 C11 1_555 1_555
C17 C16 1_555 1_555
Cu11 O8 1_555 1_555
O17 Cu1 1_555 1_555
C13 C14 1_555 1_555
C15 C16 1_555 1_555
Cu2 O2 1_555 1_555
O4 Cu2 1_555 1_555
Cu8 O7 1_555 1_555
O20 Cu2 1_555 1_555
O15 Cu3 1_555 1_555
O18 Cu3 1_555 1_555
O19 Cu3 1_555 1_555
O9 C18 1_555 1_555
O11 C29 1_555 1_555
C18 C19 1_555 1_555
C19 C20 1_555 1_555
C21 C20 1_555 1_555
H9 C21 1_555 1_555
C22 C21 1_555 1_555
C23 C22 1_555 1_555
C24 C23 1_555 1_555
C25 C24 1_555 1_555
C26 C25 1_555 1_555
H10 C26 1_555 1_555
C27 C26 1_555 1_555
C28 C27 1_555 1_555
H11 C28 1_555 1_555
C29 C27 1_555 1_555
O23 C34 1_555 1_555
C30 C19 1_555 1_555
C31 C22 1_555 1_555
H13 C31 1_555 1_555
C32 C25 1_555 1_555
H14 C32 1_555 1_555
C33 C28 1_555 1_555
C34 C33 1_555 1_555
C18 O12 1_555 1_555
C30 C31 1_555 1_555
C32 C33 1_555 1_555
Cu7 O10 1_555 1_555
Cu2_2 O2_2 1_555 1_555
O1_2 C1_2 1_555 1_555
O2_2 C12_2 1_555 1_555
O3_2 C12_2 1_555 1_555
O4_2 Cu2_2 1_555 1_555
C1_2 C2_2 1_555 1_555
C2_2 C3_2 1_555 1_555
C3_2 H1_2 1_555 1_555
C4_2 C3_2 1_555 1_555
H2_2 C4_2 1_555 1_555
C5_2 C4_2 1_555 1_555
C6_2 C5_2 1_555 1_555
C7_2 C6_2 1_555 1_555
C8_2 C7_2 1_555 1_555
C9_2 C8_2 1_555 1_555
H3_2 C9_2 1_555 1_555
C10_2 C9_2 1_555 1_555
C11_2 C10_2 1_555 1_555
H4_2 C11_2 1_555 1_555
C12_2 C10_2 1_555 1_555
O6_2 C1_2 1_555 1_555
O7_2 C17_2 1_555 1_555
O8_2 C17_2 1_555 1_555
C13_2 C2_2 1_555 1_555
C14_2 C5_2 1_555 1_555
H6_2 C14_2 1_555 1_555
C15_2 C8_2 1_555 1_555
H7_2 C15_2 1_555 1_555
C16_2 C11_2 1_555 1_555
C17_2 C16_2 1_555 1_555
Cu3_2 Cu2_2 1_555 1_555
O15_2 Cu3_2 1_555 1_555
Cu5_2 O6_2 1_555 1_555
Cu8_2 O7_2 1_555 1_555
O18_2 Cu3_2 1_555 1_555
O19_2 Cu3_2 1_555 1_555
O20_2 Cu2_2 1_555 1_555
O21_2 Cu2_2 1_555 1_555
O22_2 Cu2_2 1_555 1_555
O23_2 Cu3_2 1_555 1_555
O3_2 Cu3_2 1_555 1_555
C13_2 C14_2 1_555 1_555
C15_2 C16_2 1_555 1_555
O5_2 Cu1_2 1_555 1_555
O9_2 C18_2 1_555 1_555
O10_2 C29_2 1_555 1_555
O11_2 C29_2 1_555 1_555
C18_2 C19_2 1_555 1_555
C19_2 C20_2 1_555 1_555
C21_2 C20_2 1_555 1_555
H9_2 C21_2 1_555 1_555
C22_2 C21_2 1_555 1_555
C23_2 C22_2 1_555 1_555
C24_2 C23_2 1_555 1_555
C25_2 C24_2 1_555 1_555
C26_2 C25_2 1_555 1_555
H10_2 C26_2 1_555 1_555
C27_2 C26_2 1_555 1_555
C28_2 C27_2 1_555 1_555
H11_2 C28_2 1_555 1_555
C29_2 C27_2 1_555 1_555
O20_2 C34_2 1_555 1_555
O23_2 C34_2 1_555 1_555
C30_2 C19_2 1_555 1_555
H12_2 C30_2 1_555 1_555
C31_2 C22_2 1_555 1_555
H13_2 C31_2 1_555 1_555
C32_2 C25_2 1_555 1_555
H14_2 C32_2 1_555 1_555
C33_2 C28_2 1_555 1_555
C34_2 C33_2 1_555 1_555
Cu4_2 O9_2 1_555 1_555
Cu7_2 O10_2 1_555 1_555
C18_2 O12_2 1_555 1_555
C30_2 C31_2 1_555 1_555
C32_2 C33_2 1_555 1_555
O15_3 Cu10 1_555 1_555
O18_3 Cu10 1_555 1_555
O19_3 Cu10 1_555 1_555
O4_3 Cu7 1_555 1_555
O20_3 Cu7 1_555 1_555
O5_3 Cu4 1_555 1_555
O9_3 C18_3 1_555 1_555
O11_3 C29_3 1_555 1_555
C18_3 C19_3 1_555 1_555
C19_3 C20_3 1_555 1_555
C20_3 H8_3 1_555 1_555
C21_3 C20_3 1_555 1_555
H9_3 C21_3 1_555 1_555
C22_3 C21_3 1_555 1_555
C23_3 C22_3 1_555 1_555
C24_3 C23_3 1_555 1_555
C25_3 C24_3 1_555 1_555
C26_3 C25_3 1_555 1_555
H10_3 C26_3 1_555 1_555
C27_3 C26_3 1_555 1_555
C28_3 C27_3 1_555 1_555
H11_3 C28_3 1_555 1_555
C29_3 C27_3 1_555 1_555
O12_3 Cu4 1_555 1_555
O23_3 C34_3 1_555 1_555
C30_3 C19_3 1_555 1_555
C31_3 C22_3 1_555 1_555
H13_3 C31_3 1_555 1_555
C32_3 C25_3 1_555 1_555
H14_3 C32_3 1_555 1_555
C33_3 C28_3 1_555 1_555
C34_3 C33_3 1_555 1_555
Cu11 O11_3 1_555 1_555
O16_3 Cu4 1_555 1_555
C18_3 O12_3 1_555 1_555
C30_3 C31_3 1_555 1_555
C32_3 C33_3 1_555 1_555
Cu8 O10_3 1_555 1_555
O9_4 C18_4 1_555 1_555
O10_4 C29_4 1_555 1_555
O11_4 C29_4 1_555 1_555
C18_4 C19_4 1_555 1_555
C19_4 C20_4 1_555 1_555
C21_4 C20_4 1_555 1_555
H9_4 C21_4 1_555 1_555
C22_4 C21_4 1_555 1_555
C23_4 C22_4 1_555 1_555
C24_4 C23_4 1_555 1_555
C25_4 C24_4 1_555 1_555
C26_4 C25_4 1_555 1_555
H10_4 C26_4 1_555 1_555
C27_4 C26_4 1_555 1_555
C28_4 C27_4 1_555 1_555
H11_4 C28_4 1_555 1_555
C29_4 C27_4 1_555 1_555
O13 C34_4 1_555 1_555
O14 C34_4 1_555 1_555
C30_4 C19_4 1_555 1_555
C31_4 C22_4 1_555 1_555
H13_4 C31_4 1_555 1_555
C32_4 C25_4 1_555 1_555
H14_4 C32_4 1_555 1_555
C33_4 C28_4 1_555 1_555
C34_4 C33_4 1_555 1_555
Cu7_2 O13 1_555 1_555
Cu8_2 O10_4 1_555 1_555
C18_4 O12_4 1_555 1_555
C30_4 C31_4 1_555 1_555
C32_4 C33_4 1_555 1_555
O15_4 Cu10_2 1_555 1_555
O18_4 Cu10_2 1_555 1_555
O19_4 Cu10_2 1_555 1_555
O4_4 Cu7_2 1_555 1_555
O5_4 Cu4_2 1_555 1_555
O17_4 Cu4_2 1_555 1_555
O5_5 Cu5 1_555 1_555
O15_5 Cu11 1_555 1_555
O18_5 Cu11 1_555 1_555
O19_5 Cu11 1_555 1_555
O4_5 Cu8 1_555 1_555
O21_5 Cu8 1_555 1_555
O22_5 Cu8 1_555 1_555
O5_6 Cu5_2 1_555 1_555
O16_6 Cu5_2 1_555 1_555
O4_6 Cu8_2 1_555 1_555
O15_6 Cu11_2 1_555 1_555
O18_6 Cu11_2 1_555 1_555
O19_6 Cu11_2 1_555 1_555
O16 C18_5 1_555 1_555
O18_4 C29_5 1_555 1_555
O21_4 C29_5 1_555 1_555
C18_5 C19_5 1_555 1_555
C19_5 C20_5 1_555 1_555
C21_5 C20_5 1_555 1_555
H9_5 C21_5 1_555 1_555
C22_5 C21_5 1_555 1_555
C23_5 C22_5 1_555 1_555
C24_5 C23_5 1_555 1_555
C25_5 C24_5 1_555 1_555
C26_5 C25_5 1_555 1_555
H10_5 C26_5 1_555 1_555
C27_5 C26_5 1_555 1_555
C28_5 C27_5 1_555 1_555
H11_5 C28_5 1_555 1_555
C29_5 C27_5 1_555 1_555
O19_6 C34_5 1_555 1_555
O22_6 C34_5 1_555 1_555
C30_5 C19_5 1_555 1_555
C31_5 C22_5 1_555 1_555
H13_5 C31_5 1_555 1_555
C32_5 C25_5 1_555 1_555
H14_5 C32_5 1_555 1_555
C33_5 C28_5 1_555 1_555
C34_5 C33_5 1_555 1_555
C18_5 O17_3 1_555 1_555
C30_5 C31_5 1_555 1_555
C32_5 C33_5 1_555 1_555
O16_3 C1_3 1_555 1_555
O18_6 C12_3 1_555 1_555
O21_6 C12_3 1_555 1_555
C1_3 C2_3 1_555 1_555
C2_3 C3_3 1_555 1_555
C4_3 C3_3 1_555 1_555
H2_3 C4_3 1_555 1_555
C5_3 C4_3 1_555 1_555
C6_3 C5_3 1_555 1_555
C7_3 C6_3 1_555 1_555
C8_3 C7_3 1_555 1_555
C9_3 C8_3 1_555 1_555
H3_3 C9_3 1_555 1_555
C10_3 C9_3 1_555 1_555
C11_3 C10_3 1_555 1_555
H4_3 C11_3 1_555 1_555
C12_3 C10_3 1_555 1_555
O17_5 C1_3 1_555 1_555
O19_2 C17_3 1_555 1_555
O22_2 C17_3 1_555 1_555
C13_3 C2_3 1_555 1_555
H5_3 C13_3 1_555 1_555
C14_3 C5_3 1_555 1_555
H6_3 C14_3 1_555 1_555
C15_3 C8_3 1_555 1_555
H7_3 C15_3 1_555 1_555
C16_3 C11_3 1_555 1_555
C17_3 C16_3 1_555 1_555
C13_3 C14_3 1_555 1_555
C15_3 C16_3 1_555 1_555
O16_4 C1_4 1_555 1_555
O21 C12_4 1_555 1_555
C1_4 C2_4 1_555 1_555
C2_4 C3_4 1_555 1_555
C4_4 C3_4 1_555 1_555
H2_4 C4_4 1_555 1_555
C5_4 C4_4 1_555 1_555
C6_4 C5_4 1_555 1_555
C7_4 C6_4 1_555 1_555
C8_4 C7_4 1_555 1_555
C9_4 C8_4 1_555 1_555
H3_4 C9_4 1_555 1_555
C10_4 C9_4 1_555 1_555
C11_4 C10_4 1_555 1_555
H4_4 C11_4 1_555 1_555
C12_4 C10_4 1_555 1_555
O17_6 C1_4 1_555 1_555
O22_3 C17_4 1_555 1_555
C13_4 C2_4 1_555 1_555
C14_4 C5_4 1_555 1_555
H6_4 C14_4 1_555 1_555
C15_4 C8_4 1_555 1_555
H7_4 C15_4 1_555 1_555
C16_4 C11_4 1_555 1_555
C17_4 C16_4 1_555 1_555
C13_4 C14_4 1_555 1_555
C15_4 C16_4 1_555 1_555
O16_2 C18_6 1_555 1_555
O21_5 C29_6 1_555 1_555
C18_6 C19_6 1_555 1_555
C19_6 C20_6 1_555 1_555
C20_6 H8_6 1_555 1_555
C21_6 C20_6 1_555 1_555
H9_6 C21_6 1_555 1_555
C22_6 C21_6 1_555 1_555
C23_6 C22_6 1_555 1_555
C24_6 C23_6 1_555 1_555
C25_6 C24_6 1_555 1_555
C26_6 C25_6 1_555 1_555
H10_6 C26_6 1_555 1_555
C27_6 C26_6 1_555 1_555
C28_6 C27_6 1_555 1_555
H11_6 C28_6 1_555 1_555
C29_6 C27_6 1_555 1_555
O22 C34_6 1_555 1_555
C30_6 C19_6 1_555 1_555
C31_6 C22_6 1_555 1_555
H13_6 C31_6 1_555 1_555
C32_6 C25_6 1_555 1_555
H14_6 C32_6 1_555 1_555
C33_6 C28_6 1_555 1_555
C34_6 C33_6 1_555 1_555
C18_6 O17_4 1_555 1_555
C30_6 C31_6 1_555 1_555
C32_6 C33_6 1_555 1_555
O16_5 C1_5 1_555 1_555
O18_2 C12_5 1_555 1_555
O21_2 C12_5 1_555 1_555
C1_5 C2_5 1_555 1_555
C2_5 C3_5 1_555 1_555
C3_5 H1_5 1_555 1_555
C4_5 C3_5 1_555 1_555
H2_5 C4_5 1_555 1_555
C5_5 C4_5 1_555 1_555
C6_5 C5_5 1_555 1_555
C7_5 C6_5 1_555 1_555
C8_5 C7_5 1_555 1_555
C9_5 C8_5 1_555 1_555
H3_5 C9_5 1_555 1_555
C10_5 C9_5 1_555 1_555
C11_5 C10_5 1_555 1_555
H4_5 C11_5 1_555 1_555
C12_5 C10_5 1_555 1_555
O17 C1_5 1_555 1_555
O19_4 C17_5 1_555 1_555
O22_4 C17_5 1_555 1_555
C13_5 C2_5 1_555 1_555
C14_5 C5_5 1_555 1_555
H6_5 C14_5 1_555 1_555
C15_5 C8_5 1_555 1_555
H7_5 C15_5 1_555 1_555
C16_5 C11_5 1_555 1_555
C17_5 C16_5 1_555 1_555
C13_5 C14_5 1_555 1_555
C15_5 C16_5 1_555 1_555
O16_6 C1_6 1_555 1_555
O21_3 C12_6 1_555 1_555
C1_6 C2_6 1_555 1_555
C2_6 C3_6 1_555 1_555
C4_6 C3_6 1_555 1_555
H2_6 C4_6 1_555 1_555
C5_6 C4_6 1_555 1_555
C6_6 C5_6 1_555 1_555
C7_6 C6_6 1_555 1_555
C8_6 C7_6 1_555 1_555
C9_6 C8_6 1_555 1_555
H3_6 C9_6 1_555 1_555
C10_6 C9_6 1_555 1_555
C11_6 C10_6 1_555 1_555
H4_6 C11_6 1_555 1_555
C12_6 C10_6 1_555 1_555
O17_2 C1_6 1_555 1_555
O22_5 C17_6 1_555 1_555
C13_6 C2_6 1_555 1_555
H5_6 C13_6 1_555 1_555
C14_6 C5_6 1_555 1_555
H6_6 C14_6 1_555 1_555
C15_6 C8_6 1_555 1_555
H7_6 C15_6 1_555 1_555
C16_6 C11_6 1_555 1_555
C17_6 C16_6 1_555 1_555
C13_6 C14_6 1_555 1_555
C15_6 C16_6 1_555 1_555

#END
