
###############################################################################
#
# This file contains modified crystal structure data generated from the
# MOF subset of the Cambridge Structural Database (CSD) v543 
# hosted by the Cambridge Crystallographic Data Centre (CCDC).
#
# This work is licensed under the Creative Commons
# Attribution-NonCommercial-ShareAlike 4.0 International License.
# To view a copy of this license, visit
# http://creativecommons.org/licenses/by-nc-sa/4.0/
# or send a letter to
# Creative Commons, PO Box 1866, Mountain View, CA 94042, USA.
#
# CIF created using the CSD Python API on 29 September 2022
# The structure has been converted into the P1 space group
# The structure has a 3D framework
# The original CSD entry OGEBAF01 is in the hexagonal crystal system
# The framework has been calculated to contain at least 10.0% void space
# The void calculation uses a probe of radius 1.32A, grid spacing 0.4
# H atom positions have been added when not included in the experimental data
# Generated hydrogen atom positions removed from atoms on special positions
#
###############################################################################

data_OGEBAF01
_chemical_formula_moiety         '(C204 H228 Cu18 O79)n'
_symmetry_cell_setting           triclinic
_symmetry_space_group_name_H-M   'P 1'
_symmetry_Int_Tables_number      1
_space_group_name_Hall           'P 1'
loop_
_symmetry_equiv_pos_site_id
_symmetry_equiv_pos_as_xyz
1 x,y,z
_cell_length_a                   18.8028(8)
_cell_length_b                   18.8028(8)
_cell_length_c                   51.883(3)
_cell_angle_alpha                90
_cell_angle_beta                 90
_cell_angle_gamma                120
_cell_volume                     15885.5
loop_
_atom_site_label
_atom_site_type_symbol
_atom_site_fract_x
_atom_site_fract_y
_atom_site_fract_z
Cu1 Cu 0.05991(7) 0.11982(15) 0.2500
O1 O 0.1377(3) 0.1270(3) 0.22288(9)
O2 O 0.1255(5) 0.2510(11) 0.2500
O5 O 0.4429(3) 0.0325(2) 0.03258(7)
C1 C 0.1563(7) 0.0782(3) 0.21379(19)
C2 C 0.1960(8) 0.0980(4) 0.1884(2)
C3 C 0.2149(7) 0.1694(6) 0.17554(17)
H1 H 0.2026 0.2061 0.1836
C4 C 0.2518(8) 0.1902(6) 0.15099(18)
H2 H 0.2615 0.2381 0.1427
C5 C 0.2733(9) 0.1367(5) 0.1394(2)
C6 C 0.3091(10) 0.1545(5) 0.1139(2)
C7 C 0.3401(9) 0.1701(4) 0.0939(2)
C8 C 0.3777(6) 0.1888(3) 0.06831(17)
C9 C 0.3965(4) 0.1353(4) 0.05595(13)
H3 H 0.3853 0.0867 0.0641
C10 C 0.4318(3) 0.1520(3) 0.03168(11)
C11 C 0.4481(5) 0.2241(2) 0.01956(16)
H4 H 0.4704 0.2352 0.0031
C12 C 0.4544(3) 0.0931(3) 0.01864(11)
O6 O 0.1377(3) 0.0107(4) 0.22288(9)
O8 O 0.4429(3) 0.4104(4) 0.03258(7)
C13 C 0.2149(7) 0.0455(9) 0.17554(17)
C14 C 0.2518(8) 0.0616(10) 0.15099(18)
H6 H 0.2615 0.0234 0.1427
C15 C 0.3965(4) 0.2612(6) 0.05595(13)
H7 H 0.3853 0.2986 0.0641
C16 C 0.4318(3) 0.2798(4) 0.03168(11)
C17 C 0.4544(3) 0.3613(4) 0.01864(11)
H12 H 0.0035 0.2061 0.1836
Cu3 Cu 0.04586(5) 0.52293(3) 0.021203(18)
O15 O 0.1145(4) 0.5572(2) 0.05757(12)
Cu11 Cu 0.47707(3) 0.52293(6) 0.021203(18)
O17 O 0.1377(3) 0.1270(3) 0.27712(9)
O18 O 0.1114(2) 0.4832(2) 0.00332(8)
O19 O 0.1114(2) 0.6282(3) 0.00332(8)
Cu2 Cu 0.52293(3) 0.04586(5) 0.978797(18)
O3 O 0.4832(2) 0.1114(2) 0.99668(8)
O4 O 0.5572(2) 0.1145(4) 0.94243(12)
O7 O 0.4832(2) 0.3718(3) 0.99668(8)
Cu8 Cu 0.52293(6) 0.47707(3) 0.978797(18)
O20 O 0.6282(3) 0.1114(2) 0.99668(8)
H5 H 0.2026 0.9965 0.1836
Cu5 Cu 0.05991(17) 0.94009(7) 0.2500
Cu10 Cu 0.47707(6) 0.95414(5) 0.021203(18)
O21 O 0.4104(4) 0.9675(2) 0.96742(7)
O22 O 0.5571(3) 0.9675(2) 0.96742(7)
O9 O 0.8730(3) 0.0107(4) 0.22288(9)
O11 O 0.9675(2) 0.4104(4) 0.03258(7)
C18 C 0.9218(3) 0.0781(8) 0.21379(19)
C19 C 0.9020(4) 0.0980(9) 0.1884(2)
C20 C 0.8306(6) 0.0455(9) 0.17554(17)
C21 C 0.8098(6) 0.0616(10) 0.15099(18)
H9 H 0.7619 0.0234 0.1427
C22 C 0.8633(5) 0.1366(10) 0.1394(2)
C23 C 0.8455(5) 0.1546(11) 0.1139(2)
C24 C 0.8299(4) 0.1700(10) 0.0939(2)
C25 C 0.8112(3) 0.1889(7) 0.06831(17)
C26 C 0.8647(4) 0.2612(6) 0.05595(13)
H10 H 0.9133 0.2986 0.0641
C27 C 0.8480(3) 0.2798(4) 0.03168(11)
C28 C 0.7759(2) 0.2240(5) 0.01956(16)
H11 H 0.7648 0.2352 0.0031
C29 C 0.9069(3) 0.3613(4) 0.01864(11)
O12 O 0.9893(4) 0.1270(3) 0.22288(9)
O14 O 0.5896(4) 0.0325(2) 0.03258(7)
C30 C 0.9545(9) 0.1694(6) 0.17554(17)
C31 C 0.9384(10) 0.1902(6) 0.15099(18)
H13 H 0.9766 0.2381 0.1427
C32 C 0.7388(6) 0.1353(4) 0.05595(13)
H14 H 0.7014 0.0867 0.0641
C33 C 0.7202(4) 0.1520(3) 0.03168(11)
C34 C 0.6387(4) 0.0931(3) 0.01864(11)
O16 O 0.9893(4) 0.1270(3) 0.27712(9)
O23 O 0.9675(2) 0.5571(3) 0.03258(7)
O10 O 0.8886(2) 0.3718(3) 0.99668(8)
Cu7 Cu 0.95414(5) 0.47707(6) 0.978797(18)
H8 H 0.7939 0.9965 0.1836
Cu4 Cu 0.88018(15) 0.94009(17) 0.2500
O21_2 O 0.0325(2) 0.4429(4) 0.96742(7)
O22_2 O 0.0325(2) 0.5896(4) 0.96742(7)
H8_2 H 0.0035 0.7974 0.1836
O17_2 O 0.8730(3) 0.0107(4) 0.27712(9)
O4_2 O 0.8855(4) 0.4427(4) 0.94243(12)
O20_2 O 0.8886(2) 0.5168(4) 0.99668(8)
O2_2 O 0.7490(11) 0.8745(12) 0.2500
O9_2 O 0.9893(4) 0.8623(5) 0.22288(9)
O11_2 O 0.5896(4) 0.5571(4) 0.03258(7)
C18_2 C 0.9219(8) 0.8437(9) 0.21379(19)
C19_2 C 0.9020(9) 0.8040(10) 0.1884(2)
C20_2 C 0.9545(9) 0.7851(11) 0.17554(17)
C21_2 C 0.9384(10) 0.7482(12) 0.15099(18)
H9_2 H 0.9766 0.7385 0.1427
C22_2 C 0.8634(10) 0.7267(11) 0.1394(2)
C23_2 C 0.8454(11) 0.6909(12) 0.1139(2)
C24_2 C 0.8300(10) 0.6599(11) 0.0939(2)
C25_2 C 0.8111(7) 0.6223(8) 0.06831(17)
C26_2 C 0.7388(6) 0.6035(7) 0.05595(13)
H10_2 H 0.7014 0.6147 0.0641
C27_2 C 0.7202(4) 0.5682(5) 0.03168(11)
C28_2 C 0.7760(5) 0.5519(5) 0.01956(16)
H11_2 H 0.7648 0.5296 0.0031
C29_2 C 0.6387(4) 0.5456(5) 0.01864(11)
O12_2 O 0.8730(3) 0.8623(5) 0.22288(9)
C30_2 C 0.8306(6) 0.7851(11) 0.17554(17)
H12_2 H 0.7939 0.7974 0.1836
C31_2 C 0.8098(6) 0.7482(12) 0.15099(18)
H13_2 H 0.7619 0.7385 0.1427
C32_2 C 0.8647(4) 0.6035(7) 0.05595(13)
H14_2 H 0.9133 0.6147 0.0641
C33_2 C 0.8480(3) 0.5682(5) 0.03168(11)
C34_2 C 0.9069(3) 0.5456(5) 0.01864(11)
O15_2 O 0.4428(2) 0.5573(4) 0.05757(12)
O16_2 O 0.8730(3) 0.8623(5) 0.27712(9)
O18_2 O 0.5168(2) 0.6282(3) 0.00332(8)
O19_2 O 0.3718(3) 0.4832(4) 0.00332(8)
O10_2 O 0.6282(3) 0.5168(4) 0.99668(8)
O16_3 O 0.1377(5) 0.0107(4) 0.27712(9)
O2_3 O 0.1255(12) 0.8745(5) 0.2500
O15_3 O 0.4427(4) 0.8855(4) 0.05757(12)
O18_3 O 0.3718(3) 0.8886(2) 0.00332(8)
O19_3 O 0.5168(4) 0.8886(2) 0.00332(8)
O17_3 O 0.9893(4) 0.8623(3) 0.27712(9)
O4_3 O 0.5573(4) 0.4428(2) 0.94243(12)
O21_3 O 0.5571(4) 0.5896(4) 0.96742(7)
O22_3 O 0.4104(4) 0.4429(3) 0.96742(7)
H8_3 H 0.2061 0.0035 0.6836
Cu4_2 Cu 0.11982(15) 0.05991(17) 0.7500
Cu9 Cu 0.52293(6) 0.04586(5) 0.521203(18)
O9_3 O 0.1270(3) 0.9893(4) 0.72288(9)
O10_3 O 0.1114(2) 0.6282(3) 0.49668(8)
O11_3 O 0.0325(2) 0.5896(4) 0.53258(7)
C18_3 C 0.0782(3) 0.9219(8) 0.71379(19)
C19_3 C 0.0980(4) 0.9020(9) 0.6884(2)
C20_3 C 0.1694(6) 0.9545(9) 0.67554(17)
C21_3 C 0.1902(6) 0.9384(10) 0.65099(18)
H9_3 H 0.2381 0.9766 0.6427
C22_3 C 0.1367(5) 0.8634(10) 0.6394(2)
C23_3 C 0.1545(5) 0.8454(11) 0.6139(2)
C24_3 C 0.1701(4) 0.8300(10) 0.5939(2)
C25_3 C 0.1888(3) 0.8111(7) 0.56831(17)
C26_3 C 0.1353(4) 0.7388(6) 0.55595(13)
H10_3 H 0.0867 0.7014 0.5641
C27_3 C 0.1520(3) 0.7202(4) 0.53168(11)
C28_3 C 0.2241(2) 0.7760(5) 0.51956(16)
H11_3 H 0.2352 0.7648 0.5031
C29_3 C 0.0931(3) 0.6387(4) 0.51864(11)
O12_3 O 0.0107(4) 0.8730(3) 0.72288(9)
O13 O 0.3718(3) 0.8886(2) 0.49668(8)
O14_2 O 0.4104(4) 0.9675(2) 0.53258(7)
C30_3 C 0.0455(9) 0.8306(6) 0.67554(17)
C31_3 C 0.0616(10) 0.8098(6) 0.65099(18)
H13_3 H 0.0234 0.7619 0.6427
C32_3 C 0.2612(6) 0.8647(4) 0.55595(13)
H14_3 H 0.2986 0.9133 0.5641
C33_3 C 0.2798(4) 0.8480(3) 0.53168(11)
C34_3 C 0.3613(4) 0.9069(3) 0.51864(11)
Cu6 Cu 0.47707(3) 0.95414(5) 0.478797(18)
Cu7_2 Cu 0.04586(5) 0.52293(6) 0.478797(18)
O16_4 O 0.0107(4) 0.8730(3) 0.77712(9)
O23_2 O 0.0325(2) 0.4429(3) 0.53258(7)
H5_2 H 0.7974 0.0035 0.6836
Cu5_2 Cu 0.94009(17) 0.05991(7) 0.7500
O21_4 O 0.5896(4) 0.0325(2) 0.46742(7)
O22_4 O 0.4429(3) 0.0325(2) 0.46742(7)
Cu1_2 Cu 0.94009(7) 0.88018(15) 0.7500
O1_2 O 0.8623(3) 0.8730(3) 0.72288(9)
O2_4 O 0.8745(5) 0.7490(11) 0.7500
O3_2 O 0.5168(2) 0.8886(2) 0.49668(8)
O4_4 O 0.4428(2) 0.8855(4) 0.44243(12)
O5_2 O 0.5571(3) 0.9675(2) 0.53258(7)
C1_2 C 0.8437(7) 0.9218(3) 0.71379(19)
C2_2 C 0.8040(8) 0.9020(4) 0.6884(2)
C3_2 C 0.7851(7) 0.8306(6) 0.67554(17)
H1_2 H 0.7974 0.7939 0.6836
C4_2 C 0.7482(8) 0.8098(6) 0.65099(18)
H2_2 H 0.7385 0.7619 0.6427
C5_2 C 0.7267(9) 0.8633(5) 0.6394(2)
C6_2 C 0.6909(10) 0.8455(5) 0.6139(2)
C7_2 C 0.6599(9) 0.8299(4) 0.5939(2)
C8_2 C 0.6223(6) 0.8112(3) 0.56831(17)
C9_2 C 0.6035(4) 0.8647(4) 0.55595(13)
H3_2 H 0.6147 0.9133 0.5641
C10_2 C 0.5682(3) 0.8480(3) 0.53168(11)
C11_2 C 0.5519(5) 0.7759(2) 0.51956(16)
H4_2 H 0.5296 0.7648 0.5031
C12_2 C 0.5456(3) 0.9069(3) 0.51864(11)
O6_2 O 0.8623(3) 0.9893(4) 0.72288(9)
O7_2 O 0.5168(2) 0.6282(3) 0.49668(8)
O8_2 O 0.5571(3) 0.5896(4) 0.53258(7)
C13_2 C 0.7851(7) 0.9545(9) 0.67554(17)
C14_2 C 0.7482(8) 0.9384(10) 0.65099(18)
H6_2 H 0.7385 0.9766 0.6427
C15_2 C 0.6035(4) 0.7388(6) 0.55595(13)
H7_2 H 0.6147 0.7014 0.5641
C16_2 C 0.5682(3) 0.7202(4) 0.53168(11)
C17_2 C 0.5456(3) 0.6387(4) 0.51864(11)
H12_3 H 0.9965 0.7939 0.6836
Cu3_2 Cu 0.95414(5) 0.47707(3) 0.521203(18)
O15_4 O 0.8855(4) 0.4428(2) 0.55757(12)
Cu8_2 Cu 0.47707(6) 0.52293(3) 0.478797(18)
Cu11_2 Cu 0.52293(3) 0.47707(6) 0.521203(18)
O17_4 O 0.8623(3) 0.8730(3) 0.77712(9)
O18_4 O 0.8886(2) 0.5168(2) 0.50332(8)
O19_4 O 0.8886(2) 0.3718(3) 0.50332(8)
O2_5 O 0.2510(11) 0.1255(12) 0.7500
O9_4 O 0.0107(4) 0.1377(5) 0.72288(9)
O10_4 O 0.3718(3) 0.4832(4) 0.49668(8)
O11_4 O 0.4104(4) 0.4429(4) 0.53258(7)
C18_4 C 0.0781(8) 0.1563(9) 0.71379(19)
C19_4 C 0.0980(9) 0.1960(10) 0.6884(2)
C20_4 C 0.0455(9) 0.2149(11) 0.67554(17)
C21_4 C 0.0616(10) 0.2518(12) 0.65099(18)
H9_4 H 0.0234 0.2615 0.6427
C22_4 C 0.1366(10) 0.2733(11) 0.6394(2)
C23_4 C 0.1546(11) 0.3091(12) 0.6139(2)
C24_4 C 0.1700(10) 0.3401(11) 0.5939(2)
C25_4 C 0.1889(7) 0.3777(8) 0.56831(17)
C26_4 C 0.2612(6) 0.3965(7) 0.55595(13)
H10_4 H 0.2986 0.3853 0.5641
C27_4 C 0.2798(4) 0.4318(5) 0.53168(11)
C28_4 C 0.2240(5) 0.4481(5) 0.51956(16)
H11_4 H 0.2352 0.4704 0.5031
C29_4 C 0.3613(4) 0.4544(5) 0.51864(11)
O12_4 O 0.1270(3) 0.1377(5) 0.72288(9)
O13_2 O 0.1114(2) 0.4832(4) 0.49668(8)
C30_4 C 0.1694(6) 0.2149(11) 0.67554(17)
H12_4 H 0.2061 0.2026 0.6836
C31_4 C 0.1902(6) 0.2518(12) 0.65099(18)
H13_4 H 0.2381 0.2615 0.6427
C32_4 C 0.1353(4) 0.3965(7) 0.55595(13)
H14_4 H 0.0867 0.3853 0.5641
C33_4 C 0.1520(3) 0.4318(5) 0.53168(11)
C34_4 C 0.0931(3) 0.4544(5) 0.51864(11)
O15_5 O 0.5572(2) 0.4427(4) 0.55757(12)
O16_5 O 0.1270(3) 0.1377(5) 0.77712(9)
O18_5 O 0.4832(2) 0.3718(3) 0.50332(8)
O19_5 O 0.6282(3) 0.5168(4) 0.50332(8)
O4_5 O 0.1145(4) 0.5573(4) 0.44243(12)
O17_5 O 0.1270(3) 0.9893(4) 0.77712(9)
H8_4 H 0.9965 0.2026 0.6836
O21_5 O 0.9675(2) 0.5571(4) 0.46742(7)
O22_5 O 0.9675(2) 0.4104(4) 0.46742(7)
O4_6 O 0.4427(4) 0.5572(2) 0.44243(12)
O17_6 O 0.0107(4) 0.1377(3) 0.77712(9)
O21_6 O 0.4429(4) 0.4104(4) 0.46742(7)
O22_6 O 0.5896(4) 0.5571(3) 0.46742(7)
O2_6 O 0.8745(12) 0.1255(5) 0.7500
O15_6 O 0.5573(4) 0.1145(4) 0.55757(12)
O18_6 O 0.6282(3) 0.1114(2) 0.50332(8)
O19_6 O 0.4832(4) 0.1114(2) 0.50332(8)
O16_6 O 0.8623(5) 0.9893(4) 0.77712(9)
C1_3 C 0.0782(3) 0.1563(7) 0.78621(19)
C2_3 C 0.0980(4) 0.1960(8) 0.8116(2)
C3_3 C 0.1694(6) 0.2149(7) 0.82446(17)
H1_3 H 0.2061 0.2026 0.8164
C4_3 C 0.1902(6) 0.2518(8) 0.84901(18)
H2_3 H 0.2381 0.2615 0.8573
C5_3 C 0.1367(5) 0.2733(9) 0.8606(2)
C6_3 C 0.1545(5) 0.3091(10) 0.8861(2)
C7_3 C 0.1701(4) 0.3401(9) 0.9061(2)
C8_3 C 0.1888(3) 0.3777(6) 0.93169(17)
C9_3 C 0.1353(4) 0.3965(4) 0.94405(13)
H3_3 H 0.0867 0.3853 0.9359
C10_3 C 0.1520(3) 0.4318(3) 0.96832(11)
C11_3 C 0.2241(2) 0.4481(5) 0.98044(16)
H4_3 H 0.2352 0.4704 0.9969
C12_3 C 0.0931(3) 0.4544(3) 0.98136(11)
C13_3 C 0.0455(9) 0.2149(7) 0.82446(17)
C14_3 C 0.0616(10) 0.2518(8) 0.84901(18)
H6_3 H 0.0234 0.2615 0.8573
C15_3 C 0.2612(6) 0.3965(4) 0.94405(13)
H7_3 H 0.2986 0.3853 0.9359
C16_3 C 0.2798(4) 0.4318(3) 0.96832(11)
C17_3 C 0.3613(4) 0.4544(3) 0.98136(11)
H12_5 H 0.2061 0.0035 0.8164
C18_5 C 0.0781(8) 0.9218(3) 0.78621(19)
C19_5 C 0.0980(9) 0.9020(4) 0.8116(2)
C20_5 C 0.0455(9) 0.8306(6) 0.82446(17)
C21_5 C 0.0616(10) 0.8098(6) 0.84901(18)
H9_5 H 0.0234 0.7619 0.8573
C22_5 C 0.1366(10) 0.8633(5) 0.8606(2)
C23_5 C 0.1546(11) 0.8455(5) 0.8861(2)
C24_5 C 0.1700(10) 0.8299(4) 0.9061(2)
C25_5 C 0.1889(7) 0.8112(3) 0.93169(17)
C26_5 C 0.2612(6) 0.8647(4) 0.94405(13)
H10_5 H 0.2986 0.9133 0.9359
C27_5 C 0.2798(4) 0.8480(3) 0.96832(11)
C28_5 C 0.2240(5) 0.7759(2) 0.98044(16)
H11_5 H 0.2352 0.7648 0.9969
C29_5 C 0.3613(4) 0.9069(3) 0.98136(11)
C30_5 C 0.1694(6) 0.9545(9) 0.82446(17)
C31_5 C 0.1902(6) 0.9384(10) 0.84901(18)
H13_5 H 0.2381 0.9766 0.8573
C32_5 C 0.1353(4) 0.7388(6) 0.94405(13)
H14_5 H 0.0867 0.7014 0.9359
C33_5 C 0.1520(3) 0.7202(4) 0.96832(11)
C34_5 C 0.0931(3) 0.6387(4) 0.98136(11)
H5_3 H 0.9965 0.2026 0.8164
H8_5 H 0.9965 0.7939 0.8164
H8_6 H 0.7974 0.0035 0.8164
C18_6 C 0.8437(9) 0.9219(8) 0.78621(19)
C19_6 C 0.8040(10) 0.9020(9) 0.8116(2)
C20_6 C 0.7851(11) 0.9545(9) 0.82446(17)
C21_6 C 0.7482(12) 0.9384(10) 0.84901(18)
H9_6 H 0.7385 0.9766 0.8573
C22_6 C 0.7267(11) 0.8634(10) 0.8606(2)
C23_6 C 0.6909(12) 0.8454(11) 0.8861(2)
C24_6 C 0.6599(11) 0.8300(10) 0.9061(2)
C25_6 C 0.6223(8) 0.8111(7) 0.93169(17)
C26_6 C 0.6035(7) 0.7388(6) 0.94405(13)
H10_6 H 0.6147 0.7014 0.9359
C27_6 C 0.5682(5) 0.7202(4) 0.96832(11)
C28_6 C 0.5519(5) 0.7760(5) 0.98044(16)
H11_6 H 0.5296 0.7648 0.9969
C29_6 C 0.5456(5) 0.6387(4) 0.98136(11)
C30_6 C 0.7851(11) 0.8306(6) 0.82446(17)
H12_6 H 0.7974 0.7939 0.8164
C31_6 C 0.7482(12) 0.8098(6) 0.84901(18)
H13_6 H 0.7385 0.7619 0.8573
C32_6 C 0.6035(7) 0.8647(4) 0.94405(13)
H14_6 H 0.6147 0.9133 0.9359
C33_6 C 0.5682(5) 0.8480(3) 0.96832(11)
C34_6 C 0.5456(5) 0.9069(3) 0.98136(11)
H8_7 H 0.0035 0.2061 0.3164
H5_4 H 0.0035 0.7974 0.3164
C18_7 C 0.9219(8) 0.0782(3) 0.28621(19)
C19_7 C 0.9020(9) 0.0980(4) 0.3116(2)
C20_7 C 0.9545(9) 0.1694(6) 0.32446(17)
C21_7 C 0.9384(10) 0.1902(6) 0.34901(18)
H9_7 H 0.9766 0.2381 0.3573
C22_7 C 0.8634(10) 0.1367(5) 0.3606(2)
C23_7 C 0.8454(11) 0.1545(5) 0.3861(2)
C24_7 C 0.8300(10) 0.1701(4) 0.4061(2)
C25_7 C 0.8111(7) 0.1888(3) 0.43169(17)
C26_7 C 0.7388(6) 0.1353(4) 0.44405(13)
H10_7 H 0.7014 0.0867 0.4359
C27_7 C 0.7202(4) 0.1520(3) 0.46832(11)
C28_7 C 0.7760(5) 0.2241(2) 0.48044(16)
H11_7 H 0.7648 0.2352 0.4969
C29_7 C 0.6387(4) 0.0931(3) 0.48136(11)
C30_7 C 0.8306(6) 0.0455(9) 0.32446(17)
C31_7 C 0.8098(6) 0.0616(10) 0.34901(18)
H13_7 H 0.7619 0.0234 0.3573
C32_7 C 0.8647(4) 0.2612(6) 0.44405(13)
H14_7 H 0.9133 0.2986 0.4359
C33_7 C 0.8480(3) 0.2798(4) 0.46832(11)
C34_7 C 0.9069(3) 0.3613(4) 0.48136(11)
C1_4 C 0.9218(3) 0.8437(7) 0.28621(19)
C2_4 C 0.9020(4) 0.8040(8) 0.3116(2)
C3_4 C 0.8306(6) 0.7851(7) 0.32446(17)
H1_4 H 0.7939 0.7974 0.3164
C4_4 C 0.8098(6) 0.7482(8) 0.34901(18)
H2_4 H 0.7619 0.7385 0.3573
C5_4 C 0.8633(5) 0.7267(9) 0.3606(2)
C6_4 C 0.8455(5) 0.6909(10) 0.3861(2)
C7_4 C 0.8299(4) 0.6599(9) 0.4061(2)
C8_4 C 0.8112(3) 0.6223(6) 0.43169(17)
C9_4 C 0.8647(4) 0.6035(4) 0.44405(13)
H3_4 H 0.9133 0.6147 0.4359
C10_4 C 0.8480(3) 0.5682(3) 0.46832(11)
C11_4 C 0.7759(2) 0.5519(5) 0.48044(16)
H4_4 H 0.7648 0.5296 0.4969
C12_4 C 0.9069(3) 0.5456(3) 0.48136(11)
C13_4 C 0.9545(9) 0.7851(7) 0.32446(17)
C14_4 C 0.9384(10) 0.7482(8) 0.34901(18)
H6_4 H 0.9766 0.7385 0.3573
C15_4 C 0.7388(6) 0.6035(4) 0.44405(13)
H7_4 H 0.7014 0.6147 0.4359
C16_4 C 0.7202(4) 0.5682(3) 0.46832(11)
C17_4 C 0.6387(4) 0.5456(3) 0.48136(11)
H12_7 H 0.7939 0.9965 0.3164
C18_8 C 0.1563(9) 0.0781(8) 0.28621(19)
C19_8 C 0.1960(10) 0.0980(9) 0.3116(2)
C20_8 C 0.2149(11) 0.0455(9) 0.32446(17)
C21_8 C 0.2518(12) 0.0616(10) 0.34901(18)
H9_8 H 0.2615 0.0234 0.3573
C22_8 C 0.2733(11) 0.1366(10) 0.3606(2)
C23_8 C 0.3091(12) 0.1546(11) 0.3861(2)
C24_8 C 0.3401(11) 0.1700(10) 0.4061(2)
C25_8 C 0.3777(8) 0.1889(7) 0.43169(17)
C26_8 C 0.3965(7) 0.2612(6) 0.44405(13)
H10_8 H 0.3853 0.2986 0.4359
C27_8 C 0.4318(5) 0.2798(4) 0.46832(11)
C28_8 C 0.4481(5) 0.2240(5) 0.48044(16)
H11_8 H 0.4704 0.2352 0.4969
C29_8 C 0.4544(5) 0.3613(4) 0.48136(11)
C30_8 C 0.2149(11) 0.1694(6) 0.32446(17)
H12_8 H 0.2026 0.2061 0.3164
C31_8 C 0.2518(12) 0.1902(6) 0.34901(18)
H13_8 H 0.2615 0.2381 0.3573
C32_8 C 0.3965(7) 0.1353(4) 0.44405(13)
H14_8 H 0.3853 0.0867 0.4359
C33_8 C 0.4318(5) 0.1520(3) 0.46832(11)
C34_8 C 0.4544(5) 0.0931(3) 0.48136(11)
H8_8 H 0.2026 0.9965 0.3164
loop_
_geom_bond_atom_site_label_1
_geom_bond_atom_site_label_2
_geom_bond_site_symmetry_1
_geom_bond_site_symmetry_2
Cu1 O1 1_555 1_555
O1 C1 1_555 1_555
O2 Cu1 1_555 1_555
O5 C12 1_555 1_555
C1 C2 1_555 1_555
C2 C3 1_555 1_555
C3 H1 1_555 1_555
C4 C3 1_555 1_555
H2 C4 1_555 1_555
C5 C4 1_555 1_555
C6 C5 1_555 1_555
C7 C6 1_555 1_555
C8 C7 1_555 1_555
C9 C8 1_555 1_555
H3 C9 1_555 1_555
C10 C9 1_555 1_555
C11 C10 1_555 1_555
H4 C11 1_555 1_555
C12 C10 1_555 1_555
O6 C1 1_555 1_555
O8 C17 1_555 1_555
C13 C2 1_555 1_555
C14 C5 1_555 1_555
H6 C14 1_555 1_555
C15 C8 1_555 1_555
H7 C15 1_555 1_555
C16 C11 1_555 1_555
C17 C16 1_555 1_555
O15 Cu3 1_555 1_555
Cu11 O8 1_555 1_555
O17 Cu1 1_555 1_555
O18 Cu3 1_555 1_555
O19 Cu3 1_555 1_555
C13 C14 1_555 1_555
C15 C16 1_555 1_555
Cu2 O3 1_555 1_555
O4 Cu2 1_555 1_555
Cu8 O7 1_555 1_555
O20 Cu2 1_555 1_555
O9 C18 1_555 1_555
O11 C29 1_555 1_555
C18 C19 1_555 1_555
C19 C20 1_555 1_555
C21 C20 1_555 1_555
H9 C21 1_555 1_555
C22 C21 1_555 1_555
C23 C22 1_555 1_555
C24 C23 1_555 1_555
C25 C24 1_555 1_555
C26 C25 1_555 1_555
H10 C26 1_555 1_555
C27 C26 1_555 1_555
C28 C27 1_555 1_555
H11 C28 1_555 1_555
C29 C27 1_555 1_555
O14 C34 1_555 1_555
C30 C19 1_555 1_555
C31 C22 1_555 1_555
H13 C31 1_555 1_555
C32 C25 1_555 1_555
H14 C32 1_555 1_555
C33 C28 1_555 1_555
C34 C33 1_555 1_555
C18 O12 1_555 1_555
C30 C31 1_555 1_555
C32 C33 1_555 1_555
Cu7 O10 1_555 1_555
O4_2 Cu7 1_555 1_555
O20_2 Cu7 1_555 1_555
O2_2 Cu4 1_555 1_555
O9_2 C18_2 1_555 1_555
O11_2 C29_2 1_555 1_555
C18_2 C19_2 1_555 1_555
C19_2 C20_2 1_555 1_555
C21_2 C20_2 1_555 1_555
H9_2 C21_2 1_555 1_555
C22_2 C21_2 1_555 1_555
C23_2 C22_2 1_555 1_555
C24_2 C23_2 1_555 1_555
C25_2 C24_2 1_555 1_555
C26_2 C25_2 1_555 1_555
H10_2 C26_2 1_555 1_555
C27_2 C26_2 1_555 1_555
C28_2 C27_2 1_555 1_555
H11_2 C28_2 1_555 1_555
C29_2 C27_2 1_555 1_555
O12_2 Cu4 1_555 1_555
O23 C34_2 1_555 1_555
C30_2 C19_2 1_555 1_555
H12_2 C30_2 1_555 1_555
C31_2 C22_2 1_555 1_555
H13_2 C31_2 1_555 1_555
C32_2 C25_2 1_555 1_555
H14_2 C32_2 1_555 1_555
C33_2 C28_2 1_555 1_555
C34_2 C33_2 1_555 1_555
Cu11 O11_2 1_555 1_555
O15_2 Cu11 1_555 1_555
O16_2 Cu4 1_555 1_555
O18_2 Cu11 1_555 1_555
O19_2 Cu11 1_555 1_555
C18_2 O12_2 1_555 1_555
C30_2 C31_2 1_555 1_555
C32_2 C33_2 1_555 1_555
Cu8 O10_2 1_555 1_555
O2_3 Cu5 1_555 1_555
O15_3 Cu10 1_555 1_555
O18_3 Cu10 1_555 1_555
O19_3 Cu10 1_555 1_555
O4_3 Cu8 1_555 1_555
O21_3 Cu8 1_555 1_555
O22_3 Cu8 1_555 1_555
O9_3 C18_3 1_555 1_555
O10_3 C29_3 1_555 1_555
O11_3 C29_3 1_555 1_555
C18_3 C19_3 1_555 1_555
C19_3 C20_3 1_555 1_555
C21_3 C20_3 1_555 1_555
H9_3 C21_3 1_555 1_555
C22_3 C21_3 1_555 1_555
C23_3 C22_3 1_555 1_555
C24_3 C23_3 1_555 1_555
C25_3 C24_3 1_555 1_555
C26_3 C25_3 1_555 1_555
H10_3 C26_3 1_555 1_555
C27_3 C26_3 1_555 1_555
C28_3 C27_3 1_555 1_555
H11_3 C28_3 1_555 1_555
C29_3 C27_3 1_555 1_555
O13 C34_3 1_555 1_555
O14_2 C34_3 1_555 1_555
C30_3 C19_3 1_555 1_555
C31_3 C22_3 1_555 1_555
H13_3 C31_3 1_555 1_555
C32_3 C25_3 1_555 1_555
H14_3 C32_3 1_555 1_555
C33_3 C28_3 1_555 1_555
C34_3 C33_3 1_555 1_555
Cu6 O13 1_555 1_555
Cu7_2 O10_3 1_555 1_555
C18_3 O12_3 1_555 1_555
C30_3 C31_3 1_555 1_555
C32_3 C33_3 1_555 1_555
Cu1_2 O1_2 1_555 1_555
Cu6 O3_2 1_555 1_555
O1_2 C1_2 1_555 1_555
O2_4 Cu1_2 1_555 1_555
O3_2 C12_2 1_555 1_555
O4_4 Cu6 1_555 1_555
O5_2 C12_2 1_555 1_555
C1_2 C2_2 1_555 1_555
C2_2 C3_2 1_555 1_555
C3_2 H1_2 1_555 1_555
C4_2 C3_2 1_555 1_555
H2_2 C4_2 1_555 1_555
C5_2 C4_2 1_555 1_555
C6_2 C5_2 1_555 1_555
C7_2 C6_2 1_555 1_555
C8_2 C7_2 1_555 1_555
C9_2 C8_2 1_555 1_555
H3_2 C9_2 1_555 1_555
C10_2 C9_2 1_555 1_555
C11_2 C10_2 1_555 1_555
H4_2 C11_2 1_555 1_555
C12_2 C10_2 1_555 1_555
O6_2 C1_2 1_555 1_555
O7_2 C17_2 1_555 1_555
O8_2 C17_2 1_555 1_555
C13_2 C2_2 1_555 1_555
C14_2 C5_2 1_555 1_555
H6_2 C14_2 1_555 1_555
C15_2 C8_2 1_555 1_555
H7_2 C15_2 1_555 1_555
C16_2 C11_2 1_555 1_555
C17_2 C16_2 1_555 1_555
O15_4 Cu3_2 1_555 1_555
Cu8_2 O7_2 1_555 1_555
Cu11_2 O8_2 1_555 1_555
O17_4 Cu1_2 1_555 1_555
O18_4 Cu3_2 1_555 1_555
O19_4 Cu3_2 1_555 1_555
C13_2 C14_2 1_555 1_555
C15_2 C16_2 1_555 1_555
O2_5 Cu4_2 1_555 1_555
O9_4 C18_4 1_555 1_555
O10_4 C29_4 1_555 1_555
O11_4 C29_4 1_555 1_555
C18_4 C19_4 1_555 1_555
C19_4 C20_4 1_555 1_555
C21_4 C20_4 1_555 1_555
H9_4 C21_4 1_555 1_555
C22_4 C21_4 1_555 1_555
C23_4 C22_4 1_555 1_555
C24_4 C23_4 1_555 1_555
C25_4 C24_4 1_555 1_555
C26_4 C25_4 1_555 1_555
H10_4 C26_4 1_555 1_555
C27_4 C26_4 1_555 1_555
C28_4 C27_4 1_555 1_555
H11_4 C28_4 1_555 1_555
C29_4 C27_4 1_555 1_555
O12_4 Cu4_2 1_555 1_555
O13_2 C34_4 1_555 1_555
O23_2 C34_4 1_555 1_555
C30_4 C19_4 1_555 1_555
H12_4 C30_4 1_555 1_555
C31_4 C22_4 1_555 1_555
H13_4 C31_4 1_555 1_555
C32_4 C25_4 1_555 1_555
H14_4 C32_4 1_555 1_555
C33_4 C28_4 1_555 1_555
C34_4 C33_4 1_555 1_555
Cu11_2 O11_4 1_555 1_555
O15_5 Cu11_2 1_555 1_555
Cu7_2 O13_2 1_555 1_555
Cu8_2 O10_4 1_555 1_555
O16_5 Cu4_2 1_555 1_555
O18_5 Cu11_2 1_555 1_555
O19_5 Cu11_2 1_555 1_555
C18_4 O12_4 1_555 1_555
C30_4 C31_4 1_555 1_555
C32_4 C33_4 1_555 1_555
O4_5 Cu7_2 1_555 1_555
O4_6 Cu8_2 1_555 1_555
O21_6 Cu8_2 1_555 1_555
O22_6 Cu8_2 1_555 1_555
O2_6 Cu5_2 1_555 1_555
O15_6 Cu9 1_555 1_555
O18_6 Cu9 1_555 1_555
O19_6 Cu9 1_555 1_555
O16_5 C1_3 1_555 1_555
O21_2 C12_3 1_555 1_555
C1_3 C2_3 1_555 1_555
C2_3 C3_3 1_555 1_555
C3_3 H1_3 1_555 1_555
C4_3 C3_3 1_555 1_555
H2_3 C4_3 1_555 1_555
C5_3 C4_3 1_555 1_555
C6_3 C5_3 1_555 1_555
C7_3 C6_3 1_555 1_555
C8_3 C7_3 1_555 1_555
C9_3 C8_3 1_555 1_555
H3_3 C9_3 1_555 1_555
C10_3 C9_3 1_555 1_555
C11_3 C10_3 1_555 1_555
H4_3 C11_3 1_555 1_555
C12_3 C10_3 1_555 1_555
O17_6 C1_3 1_555 1_555
O22_3 C17_3 1_555 1_555
C13_3 C2_3 1_555 1_555
C14_3 C5_3 1_555 1_555
H6_3 C14_3 1_555 1_555
C15_3 C8_3 1_555 1_555
H7_3 C15_3 1_555 1_555
C16_3 C11_3 1_555 1_555
C17_3 C16_3 1_555 1_555
C13_3 C14_3 1_555 1_555
C15_3 C16_3 1_555 1_555
O16_4 C18_5 1_555 1_555
O21 C29_5 1_555 1_555
C18_5 C19_5 1_555 1_555
C19_5 C20_5 1_555 1_555
C21_5 C20_5 1_555 1_555
H9_5 C21_5 1_555 1_555
C22_5 C21_5 1_555 1_555
C23_5 C22_5 1_555 1_555
C24_5 C23_5 1_555 1_555
C25_5 C24_5 1_555 1_555
C26_5 C25_5 1_555 1_555
H10_5 C26_5 1_555 1_555
C27_5 C26_5 1_555 1_555
C28_5 C27_5 1_555 1_555
H11_5 C28_5 1_555 1_555
C29_5 C27_5 1_555 1_555
O22_2 C34_5 1_555 1_555
C30_5 C19_5 1_555 1_555
C31_5 C22_5 1_555 1_555
H13_5 C31_5 1_555 1_555
C32_5 C25_5 1_555 1_555
H14_5 C32_5 1_555 1_555
C33_5 C28_5 1_555 1_555
C34_5 C33_5 1_555 1_555
C18_5 O17_5 1_555 1_555
C30_5 C31_5 1_555 1_555
C32_5 C33_5 1_555 1_555
O16_6 C18_6 1_555 1_555
O21_3 C29_6 1_555 1_555
C18_6 C19_6 1_555 1_555
C19_6 C20_6 1_555 1_555
C21_6 C20_6 1_555 1_555
H9_6 C21_6 1_555 1_555
C22_6 C21_6 1_555 1_555
C23_6 C22_6 1_555 1_555
C24_6 C23_6 1_555 1_555
C25_6 C24_6 1_555 1_555
C26_6 C25_6 1_555 1_555
H10_6 C26_6 1_555 1_555
C27_6 C26_6 1_555 1_555
C28_6 C27_6 1_555 1_555
H11_6 C28_6 1_555 1_555
C29_6 C27_6 1_555 1_555
O22 C34_6 1_555 1_555
C30_6 C19_6 1_555 1_555
H12_6 C30_6 1_555 1_555
C31_6 C22_6 1_555 1_555
H13_6 C31_6 1_555 1_555
C32_6 C25_6 1_555 1_555
H14_6 C32_6 1_555 1_555
C33_6 C28_6 1_555 1_555
C34_6 C33_6 1_555 1_555
C18_6 O17_4 1_555 1_555
C30_6 C31_6 1_555 1_555
C32_6 C33_6 1_555 1_555
O16 C18_7 1_555 1_555
O18_6 C29_7 1_555 1_555
O21_4 C29_7 1_555 1_555
C18_7 C19_7 1_555 1_555
C19_7 C20_7 1_555 1_555
C21_7 C20_7 1_555 1_555
H9_7 C21_7 1_555 1_555
C22_7 C21_7 1_555 1_555
C23_7 C22_7 1_555 1_555
C24_7 C23_7 1_555 1_555
C25_7 C24_7 1_555 1_555
C26_7 C25_7 1_555 1_555
H10_7 C26_7 1_555 1_555
C27_7 C26_7 1_555 1_555
C28_7 C27_7 1_555 1_555
H11_7 C28_7 1_555 1_555
C29_7 C27_7 1_555 1_555
O19_4 C34_7 1_555 1_555
O22_5 C34_7 1_555 1_555
C30_7 C19_7 1_555 1_555
C31_7 C22_7 1_555 1_555
H13_7 C31_7 1_555 1_555
C32_7 C25_7 1_555 1_555
H14_7 C32_7 1_555 1_555
C33_7 C28_7 1_555 1_555
C34_7 C33_7 1_555 1_555
C18_7 O17_2 1_555 1_555
C30_7 C31_7 1_555 1_555
C32_7 C33_7 1_555 1_555
O16_2 C1_4 1_555 1_555
O18_4 C12_4 1_555 1_555
O21_5 C12_4 1_555 1_555
C1_4 C2_4 1_555 1_555
C2_4 C3_4 1_555 1_555
C3_4 H1_4 1_555 1_555
C4_4 C3_4 1_555 1_555
H2_4 C4_4 1_555 1_555
C5_4 C4_4 1_555 1_555
C6_4 C5_4 1_555 1_555
C7_4 C6_4 1_555 1_555
C8_4 C7_4 1_555 1_555
C9_4 C8_4 1_555 1_555
H3_4 C9_4 1_555 1_555
C10_4 C9_4 1_555 1_555
C11_4 C10_4 1_555 1_555
H4_4 C11_4 1_555 1_555
C12_4 C10_4 1_555 1_555
O17_3 C1_4 1_555 1_555
O19_5 C17_4 1_555 1_555
O22_6 C17_4 1_555 1_555
C13_4 C2_4 1_555 1_555
C14_4 C5_4 1_555 1_555
H6_4 C14_4 1_555 1_555
C15_4 C8_4 1_555 1_555
H7_4 C15_4 1_555 1_555
C16_4 C11_4 1_555 1_555
C17_4 C16_4 1_555 1_555
C13_4 C14_4 1_555 1_555
C15_4 C16_4 1_555 1_555
O16_3 C18_8 1_555 1_555
O18_5 C29_8 1_555 1_555
O21_6 C29_8 1_555 1_555
C18_8 C19_8 1_555 1_555
C19_8 C20_8 1_555 1_555
C21_8 C20_8 1_555 1_555
H9_8 C21_8 1_555 1_555
C22_8 C21_8 1_555 1_555
C23_8 C22_8 1_555 1_555
C24_8 C23_8 1_555 1_555
C25_8 C24_8 1_555 1_555
C26_8 C25_8 1_555 1_555
H10_8 C26_8 1_555 1_555
C27_8 C26_8 1_555 1_555
C28_8 C27_8 1_555 1_555
H11_8 C28_8 1_555 1_555
C29_8 C27_8 1_555 1_555
O19_6 C34_8 1_555 1_555
O22_4 C34_8 1_555 1_555
C30_8 C19_8 1_555 1_555
H12_8 C30_8 1_555 1_555
C31_8 C22_8 1_555 1_555
H13_8 C31_8 1_555 1_555
C32_8 C25_8 1_555 1_555
H14_8 C32_8 1_555 1_555
C33_8 C28_8 1_555 1_555
C34_8 C33_8 1_555 1_555
C18_8 O17 1_555 1_555
C30_8 C31_8 1_555 1_555
C32_8 C33_8 1_555 1_555

#END
