
###############################################################################
#
# This file contains modified crystal structure data generated from the
# MOF subset of the Cambridge Structural Database (CSD) v543 
# hosted by the Cambridge Crystallographic Data Centre (CCDC).
#
# This work is licensed under the Creative Commons
# Attribution-NonCommercial-ShareAlike 4.0 International License.
# To view a copy of this license, visit
# http://creativecommons.org/licenses/by-nc-sa/4.0/
# or send a letter to
# Creative Commons, PO Box 1866, Mountain View, CA 94042, USA.
#
# CIF created using the CSD Python API on 29 September 2022
# The structure has been converted into the P1 space group
# The structure has a 3D framework
# The original CSD entry OGECOU is in the rhombohedral crystal system
# The original CSD entry OGECOU is in a Sohncke space group
# The framework has been calculated to contain at least 10.0% void space
# The void calculation uses a probe of radius 1.32A, grid spacing 0.4
#
###############################################################################

data_OGECOU
_chemical_formula_moiety         '(C171 H234 N18 Ni18 O84)n'
_symmetry_cell_setting           triclinic
_symmetry_space_group_name_H-M   'P 1'
_symmetry_Int_Tables_number      1
_space_group_name_Hall           'P 1'
loop_
_symmetry_equiv_pos_site_id
_symmetry_equiv_pos_as_xyz
1 x,y,z
_cell_length_a                   29.269(3)
_cell_length_b                   29.269(3)
_cell_length_c                   8.3065(16)
_cell_angle_alpha                90
_cell_angle_beta                 90
_cell_angle_gamma                120
_cell_volume                     6162.61
loop_
_atom_site_label
_atom_site_type_symbol
_atom_site_fract_x
_atom_site_fract_y
_atom_site_fract_z
Ni2 Ni 0.30255(9) 0.54215(8) 0.09983(14)
N2 N 0.2307(5) 0.4657(5) 0.0972(15)
O1 O 0.0760(4) 0.1124(4) 0.1018(12)
O3 O 0.3577(5) 0.6197(4) 0.1037(15)
H3 H 0.3665 0.6401 0.1848
H4 H 0.3749 0.6312 0.0164
O4 O 0.1389(4) 0.1541(4) 0.2778(13)
O9 O 0.1928(5) 0.5114(4) 0.4414(13)
O10 O 0.2590(4) 0.5549(4) 0.2654(13)
C1 C 0.1095(6) 0.1489(6) 0.1636(19)
C2 C 0.1189(5) 0.2052(5) 0.1063(16)
H5 H 0.1002 0.2166 0.1772
H6 H 0.1562 0.2310 0.1114
C12 C 0.1438(6) 0.3256(6) 0.1430(16)
H12 H 0.1060 0.3051 0.1487
H13 H 0.1558 0.3590 0.1947
H14 H 0.1588 0.3070 0.1962
C15 C 0.2401(5) 0.4216(4) 0.0448(15)
H21 H 0.2761 0.4377 0.0054
H22 H 0.2382 0.4016 0.1403
H24 H 0.1690 0.4764 0.0691
C18 C 0.2210(7) 0.5136(7) 0.323(2)
C19 C 0.2132(5) 0.4604(4) 0.2689(13)
H25 H 0.2340 0.4503 0.3357
H26 H 0.1764 0.4334 0.2783
Ni4 Ni 0.20949(8) 0.57317(12) 0.59881(13)
Ni6 Ni 0.12452(8) 0.09373(12) 0.43316(14)
O12 O 0.3382(7) 0.5219(5) 0.2779(13)
Ni1 Ni 0.03034(9) 0.12384(8) 0.93214(13)
N1 N 0.0997(5) 0.2012(5) 0.9398(14)
O5 O 0.0699(5) 0.1132(4) 0.7482(12)
O6 O 0.1448(5) 0.1497(5) 0.6112(13)
O7 O 0.1870(4) 0.5178(5) 0.7771(13)
O8 O 0.2646(4) 0.5555(4) 0.9175(12)
C3 C 0.1363(5) 0.1978(6) 0.8266(17)
H7 H 0.1646 0.1981 0.8887
H8 H 0.1520 0.2294 0.7609
C4 C 0.1143(7) 0.1504(7) 0.714(2)
C5 C 0.0834(5) 0.2409(4) 0.8986(16)
H9 H 0.0654 0.2451 0.9906
H10 H 0.0584 0.2273 0.8102
C6 C 0.1289(4) 0.2947(4) 0.8516(13)
C7 C 0.1399(6) 0.3064(5) 0.6881(15)
C8 C 0.1822(6) 0.3539(5) 0.6469(16)
H11 H 0.1884 0.3621 0.5381
C9 C 0.2163(6) 0.3904(5) 0.7563(15)
C10 C 0.2055(5) 0.3832(4) 0.9211(14)
C11 C 0.1611(6) 0.3346(5) 0.9663(14)
C13 C 0.1061(7) 0.2684(5) 0.5493(17)
H15 H 0.0701 0.2477 0.5837
H16 H 0.1196 0.2454 0.5226
H17 H 0.1079 0.2887 0.4564
C14 C 0.2636(7) 0.4424(6) 0.6996(18)
H18 H 0.2570 0.4504 0.5930
H19 H 0.2946 0.4391 0.6987
H20 H 0.2688 0.4703 0.7716
C16 C 0.1926(4) 0.4714(4) 0.9988(14)
H23 H 0.1717 0.4391 0.9388
C17 C 0.2167(6) 0.5152(6) 0.8867(18)
O11 O 0.3485(6) 0.5278(4) 0.9445(13)
H1 H 0.9683 0.0373 0.0313
O13 O 0.9975(6) 0.1463(4) 0.1104(13)
O2 O 0.9743(5) 0.0458(4) 0.9325(15)
H2 H 0.9658 0.0251 0.8523
O14 O 0.9853(6) 0.1405(5) 0.7747(13)
Ni6_2 Ni 0.90627(12) 0.03078(14) 0.43316(14)
Ni2_2 Ni 0.45785(8) 0.76040(12) 0.09983(14)
N2_2 N 0.5343(5) 0.7650(7) 0.0972(15)
O1_2 O 0.8876(4) 0.9636(6) 0.1018(12)
H1_2 H 0.9627 0.9310 0.0313
O3_2 O 0.3803(4) 0.7380(6) 0.1037(15)
H3_2 H 0.3599 0.7264 0.1848
H4_2 H 0.3688 0.7437 0.0164
O4_2 O 0.8459(4) 0.9848(6) 0.2778(13)
O9_2 O 0.4886(4) 0.6814(6) 0.4414(13)
O10_2 O 0.4451(4) 0.7041(6) 0.2654(13)
C1_2 C 0.8511(6) 0.9606(8) 0.1636(19)
C2_2 C 0.7948(5) 0.9137(7) 0.1063(16)
H5_2 H 0.7834 0.8836 0.1772
H6_2 H 0.7690 0.9252 0.1114
C12_2 C 0.6744(6) 0.8182(8) 0.1430(16)
H12_2 H 0.6949 0.8009 0.1487
H13_2 H 0.6410 0.7968 0.1947
H14_2 H 0.6930 0.8518 0.1962
C15_2 C 0.5784(4) 0.8185(6) 0.0448(15)
H21_2 H 0.5623 0.8384 0.0054
H22_2 H 0.5984 0.8366 0.1403
H24_2 H 0.5236 0.6926 0.0691
C18_2 C 0.4864(7) 0.7074(10) 0.323(2)
C19_2 C 0.5396(4) 0.7528(6) 0.2689(13)
H25_2 H 0.5497 0.7837 0.3357
H26_2 H 0.5666 0.7430 0.2783
Ni4_2 Ni 0.42683(12) 0.63633(14) 0.59881(13)
O12_2 O 0.4781(5) 0.8164(9) 0.2779(13)
O13_2 O 0.8537(4) 0.8511(7) 0.1104(13)
Ni1_2 Ni 0.87616(8) 0.90650(12) 0.93214(13)
N1_2 N 0.7988(5) 0.8985(7) 0.9398(14)
O2_2 O 0.9542(4) 0.9285(6) 0.9325(15)
H2_2 H 0.9749 0.9407 0.8523
O5_2 O 0.8868(4) 0.9567(6) 0.7482(12)
O6_2 O 0.8503(5) 0.9951(7) 0.6112(13)
O7_2 O 0.4822(5) 0.6692(6) 0.7771(13)
O8_2 O 0.4445(4) 0.7091(6) 0.9175(12)
C3_2 C 0.8022(6) 0.9385(8) 0.8266(17)
H7_2 H 0.8019 0.9665 0.8887
H8_2 H 0.7706 0.9226 0.7609
C4_2 C 0.8496(7) 0.9639(10) 0.714(2)
C5_2 C 0.7591(4) 0.8425(6) 0.8986(16)
H9_2 H 0.7549 0.8203 0.9906
H10_2 H 0.7727 0.8311 0.8102
C6_2 C 0.7053(4) 0.8342(6) 0.8516(13)
C7_2 C 0.6936(5) 0.8335(8) 0.6881(15)
C8_2 C 0.6461(5) 0.8283(8) 0.6469(16)
H11_2 H 0.6379 0.8263 0.5381
C9_2 C 0.6096(5) 0.8259(8) 0.7563(15)
C10_2 C 0.6168(4) 0.8223(6) 0.9211(14)
C11_2 C 0.6654(5) 0.8265(8) 0.9663(14)
C13_2 C 0.7316(5) 0.8377(9) 0.5493(17)
H15_2 H 0.7523 0.8224 0.5837
H16_2 H 0.7546 0.8742 0.5226
H17_2 H 0.7113 0.8192 0.4564
C14_2 C 0.5576(6) 0.8212(9) 0.6996(18)
H18_2 H 0.5496 0.8066 0.5930
H19_2 H 0.5609 0.8555 0.6987
H20_2 H 0.5297 0.7985 0.7716
C16_2 C 0.5286(4) 0.7212(6) 0.9988(14)
H23_2 H 0.5609 0.7326 0.9388
C17_2 C 0.4848(6) 0.7015(8) 0.8867(18)
O11_2 O 0.4722(4) 0.8208(7) 0.9445(13)
O14_2 O 0.8595(5) 0.8447(8) 0.7747(13)
H1_3 H 0.0690 0.0317 0.0313
O13_3 O 0.1489(7) 0.0025(6) 0.1104(13)
O2_3 O 0.0715(6) 0.0257(5) 0.9325(15)
H2_3 H 0.0593 0.0342 0.8523
O14_3 O 0.1553(8) 0.0147(6) 0.7747(13)
Ni2_3 Ni 0.23960(12) 0.69745(9) 0.09983(14)
N2_3 N 0.2350(7) 0.7693(5) 0.0972(15)
O1_3 O 0.0364(6) 0.9240(4) 0.1018(12)
O3_3 O 0.2620(6) 0.6423(5) 0.1037(15)
H3_3 H 0.2736 0.6335 0.1848
H4_3 H 0.2563 0.6251 0.0164
O4_3 O 0.0152(6) 0.8611(4) 0.2778(13)
O9_3 O 0.3186(6) 0.8072(5) 0.4414(13)
O10_3 O 0.2959(6) 0.7410(4) 0.2654(13)
C1_3 C 0.0394(8) 0.8905(6) 0.1636(19)
C2_3 C 0.0863(7) 0.8811(5) 0.1063(16)
H5_3 H 0.1164 0.8998 0.1772
H6_3 H 0.0748 0.8438 0.1114
C12_3 C 0.1818(8) 0.8562(6) 0.1430(16)
H12_3 H 0.1991 0.8940 0.1487
H13_3 H 0.2032 0.8442 0.1947
H14_3 H 0.1482 0.8412 0.1962
C15_3 C 0.1815(6) 0.7599(5) 0.0448(15)
H21_3 H 0.1616 0.7239 0.0054
H22_3 H 0.1634 0.7618 0.1403
H24_3 H 0.3074 0.8310 0.0691
C18_3 C 0.2926(10) 0.7790(7) 0.323(2)
C19_3 C 0.2472(6) 0.7868(5) 0.2689(13)
H25_3 H 0.2163 0.7660 0.3357
H26_3 H 0.2570 0.8236 0.2783
Ni4_3 Ni 0.36367(14) 0.79051(8) 0.59881(13)
O12_3 O 0.1836(9) 0.6618(7) 0.2779(13)
Ni1_3 Ni 0.09350(12) 0.96966(9) 0.93214(13)
N1_3 N 0.1015(7) 0.9003(5) 0.9398(14)
O5_3 O 0.0433(6) 0.9301(5) 0.7482(12)
O6_3 O 0.0049(7) 0.8552(5) 0.6112(13)
O7_3 O 0.3308(6) 0.8130(4) 0.7771(13)
O8_3 O 0.2909(6) 0.7354(4) 0.9175(12)
C3_3 C 0.0615(8) 0.8637(5) 0.8266(17)
H7_3 H 0.0335 0.8354 0.8887
H8_3 H 0.0774 0.8480 0.7609
C4_3 C 0.0361(10) 0.8857(7) 0.714(2)
C5_3 C 0.1575(6) 0.9166(5) 0.8986(16)
H9_3 H 0.1797 0.9346 0.9906
H10_3 H 0.1689 0.9416 0.8102
C6_3 C 0.1658(6) 0.8711(4) 0.8516(13)
C7_3 C 0.1665(8) 0.8601(6) 0.6881(15)
C8_3 C 0.1717(8) 0.8178(6) 0.6469(16)
H11_3 H 0.1737 0.8116 0.5381
C9_3 C 0.1741(8) 0.7837(6) 0.7563(15)
C10_3 C 0.1777(6) 0.7945(5) 0.9211(14)
C11_3 C 0.1735(8) 0.8389(6) 0.9663(14)
C13_3 C 0.1623(9) 0.8939(7) 0.5493(17)
H15_3 H 0.1776 0.9299 0.5837
H16_3 H 0.1258 0.8804 0.5226
H17_3 H 0.1808 0.8921 0.4564
C14_3 C 0.1788(9) 0.7364(7) 0.6996(18)
H18_3 H 0.1934 0.7430 0.5930
H19_3 H 0.1445 0.7054 0.6987
H20_3 H 0.2015 0.7312 0.7716
C16_3 C 0.2788(6) 0.8074(4) 0.9988(14)
H23_3 H 0.2674 0.8283 0.9388
C17_3 C 0.2985(8) 0.7833(6) 0.8867(18)
O11_3 O 0.1792(7) 0.6515(6) 0.9445(13)
Ni6_3 Ni 0.96922(14) 0.87548(8) 0.43316(14)
O3_4 O 0.0244(5) 0.9530(4) 0.4370(15)
H3_4 H 0.0332 0.9734 0.5181
H4_4 H 0.0416 0.9645 0.3497
Ni1_4 Ni 0.69701(9) 0.45717(8) 0.26547(13)
N1_4 N 0.7664(5) 0.5345(5) 0.2731(14)
N2_4 N 0.8974(5) 0.7990(5) 0.4305(15)
O1_4 O 0.7427(4) 0.4457(4) 0.4351(12)
O2_4 O 0.6410(5) 0.3791(4) 0.2658(15)
H1_4 H 0.6350 0.3706 0.3646
H2_4 H 0.6325 0.3584 0.1856
O4_4 O 0.8056(4) 0.4874(4) 0.6111(13)
O5_4 O 0.7366(5) 0.4465(4) 0.0815(12)
O8_4 O 0.9313(4) 0.8888(4) 0.2508(12)
O10_4 O 0.9257(4) 0.8882(4) 0.5987(13)
C1_4 C 0.7762(6) 0.4822(6) 0.4969(19)
C2_4 C 0.7856(5) 0.5385(5) 0.4396(16)
H5_4 H 0.7669 0.5499 0.5105
H6_4 H 0.8229 0.5643 0.4447
C3_4 C 0.8030(5) 0.5311(6) 0.1599(17)
H7_4 H 0.8313 0.5314 0.2220
H8_4 H 0.8187 0.5627 0.0942
C4_4 C 0.7810(7) 0.4837(7) 0.047(2)
C5_4 C 0.7501(5) 0.5742(4) 0.2319(16)
H9_4 H 0.7321 0.5784 0.3239
H10_4 H 0.7251 0.5606 0.1435
C6_4 C 0.7956(4) 0.6280(4) 0.1849(13)
C7_4 C 0.8066(6) 0.6397(5) 0.0214(15)
C9_4 C 0.8830(6) 0.7237(5) 0.0896(15)
C10_4 C 0.8722(5) 0.7165(4) 0.2544(14)
C11_4 C 0.8278(6) 0.6679(5) 0.2996(14)
C12_4 C 0.8105(6) 0.6589(6) 0.4763(16)
H12_4 H 0.7727 0.6384 0.4820
H13_4 H 0.8225 0.6923 0.5280
H14_4 H 0.8255 0.6403 0.5295
C14_4 C 0.9303(7) 0.7757(6) 0.0329(18)
H19_4 H 0.9613 0.7724 0.0320
H20_4 H 0.9355 0.8036 0.1049
C15_4 C 0.9068(5) 0.7549(4) 0.3781(15)
H21_4 H 0.9428 0.7710 0.3387
H22_4 H 0.9049 0.7349 0.4736
C16_4 C 0.8593(4) 0.8047(4) 0.3321(14)
H23_4 H 0.8384 0.7724 0.2721
H24_4 H 0.8357 0.8097 0.4024
C17_4 C 0.8834(6) 0.8485(6) 0.2200(18)
C18_4 C 0.8877(7) 0.8469(7) 0.656(2)
C19_4 C 0.8799(5) 0.7937(4) 0.6022(13)
H25_4 H 0.9007 0.7836 0.6690
H26_4 H 0.8431 0.7667 0.6116
Ni6_4 Ni 0.79118(8) 0.42707(12) 0.76650(14)
O13_4 O 0.6641(6) 0.4797(4) 0.4438(13)
O14_4 O 0.6519(6) 0.4739(5) 0.1081(13)
O6_4 O 0.8115(5) 0.4830(5) 0.9445(13)
C8_4 C 0.8489(6) 0.6872(5) 0.9802(16)
H11_4 H 0.8551 0.6954 0.8714
C13_4 C 0.7728(7) 0.6017(5) 0.8826(17)
H15_4 H 0.7368 0.5810 0.9170
H16_4 H 0.7863 0.5787 0.8559
H17_4 H 0.7746 0.6220 0.7897
H18_4 H 0.9237 0.7837 0.9263
Ni1_5 Ni 0.54283(8) 0.23983(12) 0.26547(13)
N1_5 N 0.4655(5) 0.2318(7) 0.2731(14)
N2_5 N 0.2010(5) 0.0983(7) 0.4305(15)
O1_5 O 0.5543(4) 0.2969(6) 0.4351(12)
O2_5 O 0.6209(4) 0.2618(6) 0.2658(15)
H1_5 H 0.6294 0.2643 0.3646
H2_5 H 0.6416 0.2740 0.1856
O3_5 O 0.0470(4) 0.0713(6) 0.4370(15)
H3_5 H 0.0266 0.0597 0.5181
H4_5 H 0.0355 0.0770 0.3497
O4_5 O 0.5126(4) 0.3181(6) 0.6111(13)
O5_5 O 0.5535(4) 0.2900(6) 0.0815(12)
O8_5 O 0.1112(4) 0.0424(6) 0.2508(12)
O10_5 O 0.1118(4) 0.0374(6) 0.5987(13)
C1_5 C 0.5178(6) 0.2939(8) 0.4969(19)
C2_5 C 0.4615(5) 0.2470(7) 0.4396(16)
H5_5 H 0.4501 0.2169 0.5105
H6_5 H 0.4357 0.2585 0.4447
C3_5 C 0.4689(6) 0.2718(8) 0.1599(17)
H7_5 H 0.4686 0.2998 0.2220
H8_5 H 0.4373 0.2559 0.0942
C4_5 C 0.5163(7) 0.2972(10) 0.047(2)
C5_5 C 0.4258(4) 0.1758(6) 0.2319(16)
H9_5 H 0.4216 0.1536 0.3239
H10_5 H 0.4394 0.1644 0.1435
C6_5 C 0.3720(4) 0.1675(6) 0.1849(13)
C7_5 C 0.3603(5) 0.1668(8) 0.0214(15)
C9_5 C 0.2763(5) 0.1592(8) 0.0896(15)
C10_5 C 0.2835(4) 0.1556(6) 0.2544(14)
C11_5 C 0.3321(5) 0.1598(8) 0.2996(14)
C12_5 C 0.3411(6) 0.1515(8) 0.4763(16)
H12_5 H 0.3616 0.1342 0.4820
H13_5 H 0.3077 0.1301 0.5280
H14_5 H 0.3597 0.1851 0.5295
C14_5 C 0.2243(6) 0.1545(9) 0.0329(18)
H19_5 H 0.2276 0.1888 0.0320
H20_5 H 0.1964 0.1318 0.1049
C15_5 C 0.2451(4) 0.1518(6) 0.3781(15)
H21_5 H 0.2290 0.1717 0.3387
H22_5 H 0.2651 0.1699 0.4736
C16_5 C 0.1953(4) 0.0545(6) 0.3321(14)
H23_5 H 0.2276 0.0659 0.2721
H24_5 H 0.1903 0.0259 0.4024
C17_5 C 0.1515(6) 0.0348(8) 0.2200(18)
C18_5 C 0.1531(7) 0.0407(10) 0.656(2)
C19_5 C 0.2063(4) 0.0861(6) 0.6022(13)
H25_5 H 0.2164 0.1170 0.6690
H26_5 H 0.2333 0.0763 0.6116
Ni6_5 Ni 0.57293(12) 0.36412(14) 0.76650(14)
O13_5 O 0.5203(4) 0.1845(7) 0.4438(13)
O14_5 O 0.5261(5) 0.1781(8) 0.1081(13)
O6_5 O 0.5170(5) 0.3284(7) 0.9445(13)
C8_5 C 0.3128(5) 0.1616(8) 0.9802(16)
H11_5 H 0.3046 0.1596 0.8714
C13_5 C 0.3983(5) 0.1710(9) 0.8826(17)
H15_5 H 0.4190 0.1557 0.9170
H16_5 H 0.4213 0.2075 0.8559
H17_5 H 0.3780 0.1525 0.7897
H18_5 H 0.2163 0.1399 0.9263
Ni1_6 Ni 0.76017(12) 0.30299(9) 0.26547(13)
N1_6 N 0.7682(7) 0.2336(5) 0.2731(14)
N2_6 N 0.9017(7) 0.1026(5) 0.4305(15)
O1_6 O 0.7031(6) 0.2573(4) 0.4351(12)
O2_6 O 0.7382(6) 0.3590(5) 0.2658(15)
H1_6 H 0.7357 0.3650 0.3646
H2_6 H 0.7260 0.3675 0.1856
O4_6 O 0.6819(6) 0.1944(4) 0.6111(13)
O5_6 O 0.7100(6) 0.2634(5) 0.0815(12)
O8_6 O 0.9576(6) 0.0687(4) 0.2508(12)
O10_6 O 0.9626(6) 0.0743(4) 0.5987(13)
C1_6 C 0.7061(8) 0.2238(6) 0.4969(19)
C2_6 C 0.7530(7) 0.2144(5) 0.4396(16)
H5_6 H 0.7831 0.2331 0.5105
H6_6 H 0.7415 0.1771 0.4447
C3_6 C 0.7282(8) 0.1970(5) 0.1599(17)
H7_6 H 0.7002 0.1687 0.2220
H8_6 H 0.7441 0.1813 0.0942
C4_6 C 0.7028(10) 0.2190(7) 0.047(2)
C5_6 C 0.8242(6) 0.2499(5) 0.2319(16)
H9_6 H 0.8464 0.2679 0.3239
H10_6 H 0.8356 0.2749 0.1435
C6_6 C 0.8325(6) 0.2044(4) 0.1849(13)
C7_6 C 0.8332(8) 0.1934(6) 0.0214(15)
C9_6 C 0.8408(8) 0.1170(6) 0.0896(15)
C10_6 C 0.8444(6) 0.1278(5) 0.2544(14)
C11_6 C 0.8402(8) 0.1722(6) 0.2996(14)
C12_6 C 0.8485(8) 0.1895(6) 0.4763(16)
H12_6 H 0.8658 0.2273 0.4820
H13_6 H 0.8699 0.1775 0.5280
H14_6 H 0.8149 0.1745 0.5295
C14_6 C 0.8455(9) 0.0697(7) 0.0329(18)
H19_6 H 0.8112 0.0387 0.0320
H20_6 H 0.8682 0.0645 0.1049
C15_6 C 0.8482(6) 0.0932(5) 0.3781(15)
H21_6 H 0.8283 0.0572 0.3387
H22_6 H 0.8301 0.0951 0.4736
C16_6 C 0.9455(6) 0.1407(4) 0.3321(14)
H23_6 H 0.9341 0.1616 0.2721
H24_6 H 0.9741 0.1643 0.4024
C17_6 C 0.9652(8) 0.1166(6) 0.2200(18)
C18_6 C 0.9593(10) 0.1123(7) 0.656(2)
C19_6 C 0.9139(6) 0.1201(5) 0.6022(13)
H25_6 H 0.8830 0.0993 0.6690
H26_6 H 0.9237 0.1569 0.6116
Ni6_6 Ni 0.63588(14) 0.20882(8) 0.76650(14)
O13_6 O 0.8155(7) 0.3359(6) 0.4438(13)
O14_6 O 0.8219(8) 0.3481(6) 0.1081(13)
O6_6 O 0.6716(7) 0.1885(5) 0.9445(13)
C8_6 C 0.8384(8) 0.1511(6) 0.9802(16)
H11_6 H 0.8404 0.1449 0.8714
C13_6 C 0.8290(9) 0.2272(7) 0.8826(17)
H15_6 H 0.8443 0.2632 0.9170
H16_6 H 0.7925 0.2137 0.8559
H17_6 H 0.8475 0.2254 0.7897
H18_6 H 0.8601 0.0763 0.9263
O3_6 O 0.9287(6) 0.9756(5) 0.4370(15)
H3_6 H 0.9403 0.9668 0.5181
H4_6 H 0.9230 0.9584 0.3497
H25_7 H 0.5673 0.1170 0.0024
N2_7 N 0.5640(5) 0.1324(5) 0.7639(15)
O3_7 O 0.6910(5) 0.2864(4) 0.7704(15)
H3_7 H 0.6998 0.3068 0.8515
H4_7 H 0.7082 0.2979 0.6831
O8_7 O 0.5979(4) 0.2222(4) 0.5842(12)
O10_7 O 0.5923(4) 0.2216(4) 0.9321(13)
C8_7 C 0.5155(6) 0.0206(5) 0.3136(16)
H11_7 H 0.5217 0.0288 0.2048
C9_7 C 0.5496(6) 0.0571(5) 0.4230(15)
C10_7 C 0.5388(5) 0.0499(4) 0.5878(14)
C11_7 C 0.4944(6) 0.0013(5) 0.6330(14)
H13_7 H 0.4891 0.0257 0.8614
C14_7 C 0.5969(7) 0.1091(6) 0.3663(18)
H18_7 H 0.5903 0.1171 0.2597
H19_7 H 0.6279 0.1058 0.3654
H20_7 H 0.6021 0.1370 0.4383
C15_7 C 0.5734(5) 0.0883(4) 0.7115(15)
H21_7 H 0.6094 0.1044 0.6721
H22_7 H 0.5715 0.0683 0.8070
C16_7 C 0.5259(4) 0.1381(4) 0.6655(14)
H23_7 H 0.5050 0.1058 0.6055
H24_7 H 0.5023 0.1431 0.7358
C17_7 C 0.5500(6) 0.1819(6) 0.5534(18)
C18_7 C 0.5543(7) 0.1803(7) 0.990(2)
C19_7 C 0.5465(5) 0.1271(4) 0.9356(13)
H26_7 H 0.5097 0.1001 0.9450
N1_7 N 0.4330(5) 0.8679(5) 0.6065(14)
O1_7 O 0.4093(4) 0.7791(4) 0.7685(12)
O2_7 O 0.3076(5) 0.7125(4) 0.5992(15)
H1_7 H 0.3016 0.7040 0.6980
H2_7 H 0.2991 0.6918 0.5190
O5_7 O 0.4032(5) 0.7799(4) 0.4149(12)
C1_7 C 0.4428(6) 0.8156(6) 0.8303(19)
C2_7 C 0.4522(5) 0.8719(5) 0.7730(16)
H5_7 H 0.4335 0.8833 0.8439
H6_7 H 0.4895 0.8977 0.7781
C3_7 C 0.4696(5) 0.8645(6) 0.4933(17)
H7_7 H 0.4979 0.8648 0.5554
H8_7 H 0.4853 0.8961 0.4276
C4_7 C 0.4476(7) 0.8171(7) 0.381(2)
C5_7 C 0.4167(5) 0.9076(4) 0.5653(16)
H9_7 H 0.3987 0.9118 0.6573
H10_7 H 0.3917 0.8940 0.4769
C6_7 C 0.4622(4) 0.9614(4) 0.5183(13)
C7_7 C 0.4732(6) 0.9731(5) 0.3548(15)
C12_7 C 0.4771(6) 0.9923(6) 0.8097(16)
H12_7 H 0.4393 0.9718 0.8154
H14_7 H 0.4921 0.9737 0.8629
C13_7 C 0.4394(7) 0.9351(5) 0.2160(17)
H15_7 H 0.4034 0.9144 0.2504
H16_7 H 0.4529 0.9121 0.1893
H17_7 H 0.4412 0.9554 0.1231
N1_8 N 0.1321(5) 0.5652(7) 0.6065(14)
O1_8 O 0.2209(4) 0.6303(6) 0.7685(12)
O2_8 O 0.2875(4) 0.5952(6) 0.5992(15)
H1_8 H 0.2960 0.5977 0.6980
H2_8 H 0.3082 0.6074 0.5190
O5_8 O 0.2201(4) 0.6234(6) 0.4149(12)
C1_8 C 0.1844(6) 0.6273(8) 0.8303(19)
C2_8 C 0.1281(5) 0.5804(7) 0.7730(16)
H5_8 H 0.1167 0.5503 0.8439
H6_8 H 0.1023 0.5919 0.7781
C3_8 C 0.1355(6) 0.6052(8) 0.4933(17)
H7_8 H 0.1352 0.6332 0.5554
H8_8 H 0.1039 0.5893 0.4276
C4_8 C 0.1829(7) 0.6306(10) 0.381(2)
C5_8 C 0.0924(4) 0.5092(6) 0.5653(16)
H9_8 H 0.0882 0.4870 0.6573
H10_8 H 0.1060 0.4978 0.4769
C6_8 C 0.0386(4) 0.5009(6) 0.5183(13)
C7_8 C 0.0269(5) 0.5002(8) 0.3548(15)
C12_8 C 0.0077(6) 0.4849(8) 0.8097(16)
H12_8 H 0.0282 0.4676 0.8154
H14_8 H 0.0263 0.5185 0.8629
C13_8 C 0.0649(5) 0.5044(9) 0.2160(17)
H15_8 H 0.0856 0.4891 0.2504
H16_8 H 0.0879 0.5409 0.1893
H17_8 H 0.0446 0.4859 0.1231
H25_8 H 0.8830 0.4504 0.0024
N2_8 N 0.8676(5) 0.4317(7) 0.7639(15)
O3_8 O 0.7136(4) 0.4047(6) 0.7704(15)
H3_8 H 0.6932 0.3931 0.8515
H4_8 H 0.7021 0.4104 0.6831
O8_8 O 0.7778(4) 0.3758(6) 0.5842(12)
O10_8 O 0.7784(4) 0.3708(6) 0.9321(13)
C8_8 C 0.9794(5) 0.4950(8) 0.3136(16)
H11_8 H 0.9712 0.4930 0.2048
C9_8 C 0.9429(5) 0.4926(8) 0.4230(15)
C10_8 C 0.9501(4) 0.4890(6) 0.5878(14)
C11_8 C 0.9987(5) 0.4932(8) 0.6330(14)
H13_8 H 0.9743 0.4635 0.8614
C14_8 C 0.8909(6) 0.4879(9) 0.3663(18)
H18_8 H 0.8829 0.4733 0.2597
H19_8 H 0.8942 0.5222 0.3654
H20_8 H 0.8630 0.4652 0.4383
C15_8 C 0.9117(4) 0.4852(6) 0.7115(15)
H21_8 H 0.8956 0.5051 0.6721
H22_8 H 0.9317 0.5033 0.8070
C16_8 C 0.8619(4) 0.3879(6) 0.6655(14)
H23_8 H 0.8942 0.3993 0.6055
H24_8 H 0.8569 0.3593 0.7358
C17_8 C 0.8181(6) 0.3682(8) 0.5534(18)
C18_8 C 0.8197(7) 0.3741(10) 0.990(2)
C19_8 C 0.8729(4) 0.4195(6) 0.9356(13)
H26_8 H 0.8999 0.4097 0.9450
H25_9 H 0.5496 0.4327 0.0024
N1_9 N 0.4348(7) 0.5670(5) 0.6065(14)
N2_9 N 0.5683(7) 0.4360(5) 0.7639(15)
O1_9 O 0.3697(6) 0.5907(4) 0.7685(12)
O2_9 O 0.4048(6) 0.6924(5) 0.5992(15)
H1_9 H 0.4023 0.6984 0.6980
H2_9 H 0.3926 0.7009 0.5190
O3_9 O 0.5953(6) 0.3090(5) 0.7704(15)
H3_9 H 0.6069 0.3002 0.8515
H4_9 H 0.5896 0.2918 0.6831
O5_9 O 0.3766(6) 0.5968(5) 0.4149(12)
O8_9 O 0.6242(6) 0.4021(4) 0.5842(12)
O10_9 O 0.6292(6) 0.4077(4) 0.9321(13)
C1_9 C 0.3727(8) 0.5572(6) 0.8303(19)
C2_9 C 0.4196(7) 0.5478(5) 0.7730(16)
H5_9 H 0.4497 0.5665 0.8439
H6_9 H 0.4081 0.5105 0.7781
C3_9 C 0.3948(8) 0.5304(5) 0.4933(17)
H7_9 H 0.3668 0.5021 0.5554
H8_9 H 0.4107 0.5147 0.4276
C4_9 C 0.3694(10) 0.5524(7) 0.381(2)
C5_9 C 0.4908(6) 0.5833(5) 0.5653(16)
H9_9 H 0.5130 0.6013 0.6573
H10_9 H 0.5022 0.6083 0.4769
C6_9 C 0.4991(6) 0.5378(4) 0.5183(13)
C7_9 C 0.4998(8) 0.5268(6) 0.3548(15)
C8_9 C 0.5050(8) 0.4845(6) 0.3136(16)
H11_9 H 0.5070 0.4783 0.2048
C9_9 C 0.5074(8) 0.4504(6) 0.4230(15)
C10_9 C 0.5110(6) 0.4612(5) 0.5878(14)
C11_9 C 0.5068(8) 0.5056(6) 0.6330(14)
C12_9 C 0.5151(8) 0.5229(6) 0.8097(16)
H12_9 H 0.5324 0.5607 0.8154
H13_9 H 0.5365 0.5109 0.8614
H14_9 H 0.4815 0.5079 0.8629
C13_9 C 0.4956(9) 0.5606(7) 0.2160(17)
H15_9 H 0.5109 0.5966 0.2504
H16_9 H 0.4591 0.5471 0.1893
H17_9 H 0.5141 0.5588 0.1231
C14_9 C 0.5121(9) 0.4031(7) 0.3663(18)
H18_9 H 0.5267 0.4097 0.2597
H19_9 H 0.4778 0.3721 0.3654
H20_9 H 0.5348 0.3979 0.4383
C15_9 C 0.5148(6) 0.4266(5) 0.7115(15)
H21_9 H 0.4949 0.3906 0.6721
H22_9 H 0.4967 0.4285 0.8070
C16_9 C 0.6121(6) 0.4741(4) 0.6655(14)
H23_9 H 0.6007 0.4950 0.6055
H24_9 H 0.6407 0.4977 0.7358
C17_9 C 0.6318(8) 0.4500(6) 0.5534(18)
C18_9 C 0.6259(10) 0.4457(7) 0.990(2)
C19_9 C 0.5805(6) 0.4535(5) 0.9356(13)
H26_9 H 0.5903 0.4903 0.9450
loop_
_geom_bond_atom_site_label_1
_geom_bond_atom_site_label_2
_geom_bond_site_symmetry_1
_geom_bond_site_symmetry_2
Ni2 N2 1_555 1_555
N2 C15 1_555 1_555
O3 Ni2 1_555 1_555
H3 O3 1_555 1_555
H4 O3 1_555 1_555
O4 C1 1_555 1_555
O9 C18 1_555 1_555
O10 Ni2 1_555 1_555
C1 O1 1_555 1_555
C2 C1 1_555 1_555
H5 C2 1_555 1_555
H6 C2 1_555 1_555
H12 C12 1_555 1_555
H13 C12 1_555 1_555
H14 C12 1_555 1_555
H21 C15 1_555 1_555
H22 C15 1_555 1_555
C18 O10 1_555 1_555
C19 N2 1_555 1_555
H25 C19 1_555 1_555
H26 C19 1_555 1_555
Ni4 O9 1_555 1_555
Ni6 O4 1_555 1_555
O12 Ni2 1_555 1_555
C18 C19 1_555 1_555
Ni1 N1 1_555 1_555
O5 Ni1 1_555 1_555
O6 C4 1_555 1_555
O7 C17 1_555 1_555
C3 N1 1_555 1_555
H7 C3 1_555 1_555
H8 C3 1_555 1_555
C4 O5 1_555 1_555
C5 N1 1_555 1_555
H9 C5 1_555 1_555
H10 C5 1_555 1_555
C6 C5 1_555 1_555
C7 C6 1_555 1_555
C8 C7 1_555 1_555
H11 C8 1_555 1_555
C9 C8 1_555 1_555
C10 C9 1_555 1_555
C11 C6 1_555 1_555
C13 C7 1_555 1_555
H15 C13 1_555 1_555
H16 C13 1_555 1_555
H17 C13 1_555 1_555
C14 C9 1_555 1_555
H18 C14 1_555 1_555
H19 C14 1_555 1_555
H20 C14 1_555 1_555
H23 C16 1_555 1_555
C17 O8 1_555 1_555
Ni4 O7 1_555 1_555
Ni6 O6 1_555 1_555
C3 C4 1_555 1_555
C10 C11 1_555 1_555
C16 C17 1_555 1_555
H2 O2 1_555 1_555
Ni2_2 N2_2 1_555 1_555
N2_2 C15_2 1_555 1_555
O3_2 Ni2_2 1_555 1_555
H3_2 O3_2 1_555 1_555
H4_2 O3_2 1_555 1_555
O4_2 C1_2 1_555 1_555
O9_2 C18_2 1_555 1_555
O10_2 Ni2_2 1_555 1_555
C1_2 O1_2 1_555 1_555
C2_2 C1_2 1_555 1_555
H5_2 C2_2 1_555 1_555
H6_2 C2_2 1_555 1_555
H12_2 C12_2 1_555 1_555
H13_2 C12_2 1_555 1_555
H14_2 C12_2 1_555 1_555
H21_2 C15_2 1_555 1_555
H22_2 C15_2 1_555 1_555
C18_2 O10_2 1_555 1_555
C19_2 N2_2 1_555 1_555
H25_2 C19_2 1_555 1_555
H26_2 C19_2 1_555 1_555
Ni4_2 O9_2 1_555 1_555
O12_2 Ni2_2 1_555 1_555
C18_2 C19_2 1_555 1_555
Ni1_2 N1_2 1_555 1_555
O2_2 Ni1_2 1_555 1_555
H2_2 O2_2 1_555 1_555
O5_2 Ni1_2 1_555 1_555
O6_2 C4_2 1_555 1_555
O7_2 C17_2 1_555 1_555
C3_2 N1_2 1_555 1_555
H7_2 C3_2 1_555 1_555
H8_2 C3_2 1_555 1_555
C4_2 O5_2 1_555 1_555
C5_2 N1_2 1_555 1_555
H9_2 C5_2 1_555 1_555
H10_2 C5_2 1_555 1_555
C6_2 C5_2 1_555 1_555
C7_2 C6_2 1_555 1_555
C8_2 C7_2 1_555 1_555
H11_2 C8_2 1_555 1_555
C9_2 C8_2 1_555 1_555
C10_2 C9_2 1_555 1_555
C11_2 C6_2 1_555 1_555
C13_2 C7_2 1_555 1_555
H15_2 C13_2 1_555 1_555
H16_2 C13_2 1_555 1_555
H17_2 C13_2 1_555 1_555
C14_2 C9_2 1_555 1_555
H18_2 C14_2 1_555 1_555
H19_2 C14_2 1_555 1_555
H20_2 C14_2 1_555 1_555
H23_2 C16_2 1_555 1_555
C17_2 O8_2 1_555 1_555
Ni4_2 O7_2 1_555 1_555
O14_2 Ni1_2 1_555 1_555
C3_2 C4_2 1_555 1_555
C10_2 C11_2 1_555 1_555
C16_2 C17_2 1_555 1_555
H2_3 O2_3 1_555 1_555
Ni2_3 N2_3 1_555 1_555
N2_3 C15_3 1_555 1_555
O3_3 Ni2_3 1_555 1_555
H3_3 O3_3 1_555 1_555
H4_3 O3_3 1_555 1_555
O4_3 C1_3 1_555 1_555
O9_3 C18_3 1_555 1_555
O10_3 Ni2_3 1_555 1_555
C1_3 O1_3 1_555 1_555
C2_3 C1_3 1_555 1_555
H5_3 C2_3 1_555 1_555
H6_3 C2_3 1_555 1_555
H12_3 C12_3 1_555 1_555
H13_3 C12_3 1_555 1_555
H14_3 C12_3 1_555 1_555
H21_3 C15_3 1_555 1_555
H22_3 C15_3 1_555 1_555
C18_3 O10_3 1_555 1_555
C19_3 N2_3 1_555 1_555
H25_3 C19_3 1_555 1_555
H26_3 C19_3 1_555 1_555
Ni4_3 O9_3 1_555 1_555
O12_3 Ni2_3 1_555 1_555
C18_3 C19_3 1_555 1_555
Ni1_3 N1_3 1_555 1_555
O5_3 Ni1_3 1_555 1_555
O6_3 C4_3 1_555 1_555
O7_3 C17_3 1_555 1_555
C3_3 N1_3 1_555 1_555
H7_3 C3_3 1_555 1_555
H8_3 C3_3 1_555 1_555
C4_3 O5_3 1_555 1_555
C5_3 N1_3 1_555 1_555
H9_3 C5_3 1_555 1_555
H10_3 C5_3 1_555 1_555
C6_3 C5_3 1_555 1_555
C7_3 C6_3 1_555 1_555
C8_3 C7_3 1_555 1_555
H11_3 C8_3 1_555 1_555
C9_3 C8_3 1_555 1_555
C10_3 C9_3 1_555 1_555
C11_3 C6_3 1_555 1_555
C13_3 C7_3 1_555 1_555
H15_3 C13_3 1_555 1_555
H16_3 C13_3 1_555 1_555
H17_3 C13_3 1_555 1_555
C14_3 C9_3 1_555 1_555
H18_3 C14_3 1_555 1_555
H19_3 C14_3 1_555 1_555
H20_3 C14_3 1_555 1_555
H23_3 C16_3 1_555 1_555
C17_3 O8_3 1_555 1_555
Ni4_3 O7_3 1_555 1_555
C3_3 C4_3 1_555 1_555
C10_3 C11_3 1_555 1_555
C16_3 C17_3 1_555 1_555
H3_4 O3_4 1_555 1_555
H4_4 O3_4 1_555 1_555
Ni1_4 N1_4 1_555 1_555
Ni6_3 N2_4 1_555 1_555
N1_4 C2_4 1_555 1_555
N2_4 C15_4 1_555 1_555
O1_4 Ni1_4 1_555 1_555
O2_4 Ni1_4 1_555 1_555
H1_4 O2_4 1_555 1_555
H2_4 O2_4 1_555 1_555
O4_4 C1_4 1_555 1_555
O5_4 Ni1_4 1_555 1_555
O13_2 C17_4 1_555 1_555
O8_4 Ni6_3 1_555 1_555
O14_2 C18_4 1_555 1_555
O10_4 Ni6_3 1_555 1_555
C1_4 O1_4 1_555 1_555
C2_4 C1_4 1_555 1_555
H5_4 C2_4 1_555 1_555
H6_4 C2_4 1_555 1_555
C3_4 N1_4 1_555 1_555
H7_4 C3_4 1_555 1_555
H8_4 C3_4 1_555 1_555
C4_4 O5_4 1_555 1_555
C5_4 N1_4 1_555 1_555
H9_4 C5_4 1_555 1_555
H10_4 C5_4 1_555 1_555
C6_4 C5_4 1_555 1_555
C7_4 C6_4 1_555 1_555
C10_4 C9_4 1_555 1_555
C11_4 C6_4 1_555 1_555
C12_4 C11_4 1_555 1_555
H12_4 C12_4 1_555 1_555
H13_4 C12_4 1_555 1_555
H14_4 C12_4 1_555 1_555
C14_4 C9_4 1_555 1_555
H19_4 C14_4 1_555 1_555
H20_4 C14_4 1_555 1_555
C15_4 C10_4 1_555 1_555
H21_4 C15_4 1_555 1_555
H22_4 C15_4 1_555 1_555
C16_4 N2_4 1_555 1_555
H23_4 C16_4 1_555 1_555
H24_4 C16_4 1_555 1_555
C17_4 O8_4 1_555 1_555
C18_4 O10_4 1_555 1_555
C19_4 N2_4 1_555 1_555
H25_4 C19_4 1_555 1_555
H26_4 C19_4 1_555 1_555
Ni6_4 O4_4 1_555 1_555
O13_4 Ni1_4 1_555 1_555
O14_4 Ni1_4 1_555 1_555
C3_4 C4_4 1_555 1_555
C10_4 C11_4 1_555 1_555
C16_4 C17_4 1_555 1_555
C18_4 C19_4 1_555 1_555
H11_4 C8_4 1_555 1_555
H15_4 C13_4 1_555 1_555
H16_4 C13_4 1_555 1_555
H17_4 C13_4 1_555 1_555
Ni6_4 O6_4 1_555 1_555
Ni1_5 N1_5 1_555 1_555
Ni6 N2_5 1_555 1_555
N1_5 C2_5 1_555 1_555
N2_5 C15_5 1_555 1_555
O1_5 Ni1_5 1_555 1_555
O2_5 Ni1_5 1_555 1_555
H1_5 O2_5 1_555 1_555
H2_5 O2_5 1_555 1_555
O3_5 Ni6 1_555 1_555
H3_5 O3_5 1_555 1_555
H4_5 O3_5 1_555 1_555
O4_5 C1_5 1_555 1_555
O5_5 Ni1_5 1_555 1_555
O13_3 C17_5 1_555 1_555
O8_5 Ni6 1_555 1_555
O14_3 C18_5 1_555 1_555
O10_5 Ni6 1_555 1_555
C1_5 O1_5 1_555 1_555
C2_5 C1_5 1_555 1_555
H5_5 C2_5 1_555 1_555
H6_5 C2_5 1_555 1_555
C3_5 N1_5 1_555 1_555
H7_5 C3_5 1_555 1_555
H8_5 C3_5 1_555 1_555
C4_5 O5_5 1_555 1_555
C5_5 N1_5 1_555 1_555
H9_5 C5_5 1_555 1_555
H10_5 C5_5 1_555 1_555
C6_5 C5_5 1_555 1_555
C7_5 C6_5 1_555 1_555
C10_5 C9_5 1_555 1_555
C11_5 C6_5 1_555 1_555
C12_5 C11_5 1_555 1_555
H12_5 C12_5 1_555 1_555
H13_5 C12_5 1_555 1_555
H14_5 C12_5 1_555 1_555
C14_5 C9_5 1_555 1_555
H19_5 C14_5 1_555 1_555
H20_5 C14_5 1_555 1_555
C15_5 C10_5 1_555 1_555
H21_5 C15_5 1_555 1_555
H22_5 C15_5 1_555 1_555
C16_5 N2_5 1_555 1_555
H23_5 C16_5 1_555 1_555
H24_5 C16_5 1_555 1_555
C17_5 O8_5 1_555 1_555
C18_5 O10_5 1_555 1_555
C19_5 N2_5 1_555 1_555
H25_5 C19_5 1_555 1_555
H26_5 C19_5 1_555 1_555
Ni6_5 O4_5 1_555 1_555
O13_5 Ni1_5 1_555 1_555
O14_5 Ni1_5 1_555 1_555
C3_5 C4_5 1_555 1_555
C10_5 C11_5 1_555 1_555
C16_5 C17_5 1_555 1_555
C18_5 C19_5 1_555 1_555
H11_5 C8_5 1_555 1_555
H15_5 C13_5 1_555 1_555
H16_5 C13_5 1_555 1_555
H17_5 C13_5 1_555 1_555
Ni6_5 O6_5 1_555 1_555
Ni1_6 N1_6 1_555 1_555
Ni6_2 N2_6 1_555 1_555
N1_6 C2_6 1_555 1_555
N2_6 C15_6 1_555 1_555
O1_6 Ni1_6 1_555 1_555
O2_6 Ni1_6 1_555 1_555
H1_6 O2_6 1_555 1_555
H2_6 O2_6 1_555 1_555
O4_6 C1_6 1_555 1_555
O5_6 Ni1_6 1_555 1_555
O13 C17_6 1_555 1_555
O8_6 Ni6_2 1_555 1_555
O14 C18_6 1_555 1_555
O10_6 Ni6_2 1_555 1_555
C1_6 O1_6 1_555 1_555
C2_6 C1_6 1_555 1_555
H5_6 C2_6 1_555 1_555
H6_6 C2_6 1_555 1_555
C3_6 N1_6 1_555 1_555
H7_6 C3_6 1_555 1_555
H8_6 C3_6 1_555 1_555
C4_6 O5_6 1_555 1_555
C5_6 N1_6 1_555 1_555
H9_6 C5_6 1_555 1_555
H10_6 C5_6 1_555 1_555
C6_6 C5_6 1_555 1_555
C7_6 C6_6 1_555 1_555
C10_6 C9_6 1_555 1_555
C11_6 C6_6 1_555 1_555
C12_6 C11_6 1_555 1_555
H12_6 C12_6 1_555 1_555
H13_6 C12_6 1_555 1_555
H14_6 C12_6 1_555 1_555
C14_6 C9_6 1_555 1_555
H19_6 C14_6 1_555 1_555
H20_6 C14_6 1_555 1_555
C15_6 C10_6 1_555 1_555
H21_6 C15_6 1_555 1_555
H22_6 C15_6 1_555 1_555
C16_6 N2_6 1_555 1_555
H23_6 C16_6 1_555 1_555
H24_6 C16_6 1_555 1_555
C17_6 O8_6 1_555 1_555
C18_6 O10_6 1_555 1_555
C19_6 N2_6 1_555 1_555
H25_6 C19_6 1_555 1_555
H26_6 C19_6 1_555 1_555
Ni6_6 O4_6 1_555 1_555
O13_6 Ni1_6 1_555 1_555
O14_6 Ni1_6 1_555 1_555
C3_6 C4_6 1_555 1_555
C10_6 C11_6 1_555 1_555
C16_6 C17_6 1_555 1_555
C18_6 C19_6 1_555 1_555
H11_6 C8_6 1_555 1_555
H15_6 C13_6 1_555 1_555
H16_6 C13_6 1_555 1_555
H17_6 C13_6 1_555 1_555
Ni6_6 O6_6 1_555 1_555
H3_6 O3_6 1_555 1_555
H4_6 O3_6 1_555 1_555
Ni6_6 N2_7 1_555 1_555
N2_7 C15_7 1_555 1_555
O3_7 Ni6_6 1_555 1_555
H3_7 O3_7 1_555 1_555
H4_7 O3_7 1_555 1_555
O13_5 C17_7 1_555 1_555
O8_7 Ni6_6 1_555 1_555
O10_7 Ni6_6 1_555 1_555
H11_7 C8_7 1_555 1_555
C9_7 C8_7 1_555 1_555
C10_7 C9_7 1_555 1_555
C14_7 C9_7 1_555 1_555
H18_7 C14_7 1_555 1_555
H19_7 C14_7 1_555 1_555
H20_7 C14_7 1_555 1_555
C15_7 C10_7 1_555 1_555
H21_7 C15_7 1_555 1_555
H22_7 C15_7 1_555 1_555
C16_7 N2_7 1_555 1_555
H23_7 C16_7 1_555 1_555
H24_7 C16_7 1_555 1_555
C17_7 O8_7 1_555 1_555
C18_7 O10_7 1_555 1_555
C19_7 N2_7 1_555 1_555
H26_7 C19_7 1_555 1_555
C10_7 C11_7 1_555 1_555
C16_7 C17_7 1_555 1_555
C18_7 C19_7 1_555 1_555
Ni4_3 N1_7 1_555 1_555
N1_7 C2_7 1_555 1_555
O1_7 Ni4_3 1_555 1_555
O2_7 Ni4_3 1_555 1_555
H1_7 O2_7 1_555 1_555
H2_7 O2_7 1_555 1_555
O11_2 C1_7 1_555 1_555
O5_7 Ni4_3 1_555 1_555
O12_2 C4_7 1_555 1_555
C1_7 O1_7 1_555 1_555
C2_7 C1_7 1_555 1_555
H5_7 C2_7 1_555 1_555
H6_7 C2_7 1_555 1_555
C3_7 N1_7 1_555 1_555
H7_7 C3_7 1_555 1_555
H8_7 C3_7 1_555 1_555
C4_7 O5_7 1_555 1_555
C5_7 N1_7 1_555 1_555
H9_7 C5_7 1_555 1_555
H10_7 C5_7 1_555 1_555
C6_7 C5_7 1_555 1_555
C7_7 C6_7 1_555 1_555
H12_7 C12_7 1_555 1_555
H14_7 C12_7 1_555 1_555
C13_7 C7_7 1_555 1_555
H15_7 C13_7 1_555 1_555
H16_7 C13_7 1_555 1_555
H17_7 C13_7 1_555 1_555
C3_7 C4_7 1_555 1_555
Ni4 N1_8 1_555 1_555
N1_8 C2_8 1_555 1_555
O1_8 Ni4 1_555 1_555
O2_8 Ni4 1_555 1_555
H1_8 O2_8 1_555 1_555
H2_8 O2_8 1_555 1_555
O11_3 C1_8 1_555 1_555
O5_8 Ni4 1_555 1_555
O12_3 C4_8 1_555 1_555
C1_8 O1_8 1_555 1_555
C2_8 C1_8 1_555 1_555
H5_8 C2_8 1_555 1_555
H6_8 C2_8 1_555 1_555
C3_8 N1_8 1_555 1_555
H7_8 C3_8 1_555 1_555
H8_8 C3_8 1_555 1_555
C4_8 O5_8 1_555 1_555
C5_8 N1_8 1_555 1_555
H9_8 C5_8 1_555 1_555
H10_8 C5_8 1_555 1_555
C6_8 C5_8 1_555 1_555
C7_8 C6_8 1_555 1_555
H12_8 C12_8 1_555 1_555
H14_8 C12_8 1_555 1_555
C13_8 C7_8 1_555 1_555
H15_8 C13_8 1_555 1_555
H16_8 C13_8 1_555 1_555
H17_8 C13_8 1_555 1_555
C3_8 C4_8 1_555 1_555
Ni6_4 N2_8 1_555 1_555
N2_8 C15_8 1_555 1_555
O3_8 Ni6_4 1_555 1_555
H3_8 O3_8 1_555 1_555
H4_8 O3_8 1_555 1_555
O13_6 C17_8 1_555 1_555
O8_8 Ni6_4 1_555 1_555
O10_8 Ni6_4 1_555 1_555
H11_8 C8_8 1_555 1_555
C9_8 C8_8 1_555 1_555
C10_8 C9_8 1_555 1_555
C14_8 C9_8 1_555 1_555
H18_8 C14_8 1_555 1_555
H19_8 C14_8 1_555 1_555
H20_8 C14_8 1_555 1_555
C15_8 C10_8 1_555 1_555
H21_8 C15_8 1_555 1_555
H22_8 C15_8 1_555 1_555
C16_8 N2_8 1_555 1_555
H23_8 C16_8 1_555 1_555
H24_8 C16_8 1_555 1_555
C17_8 O8_8 1_555 1_555
C18_8 O10_8 1_555 1_555
C19_8 N2_8 1_555 1_555
H26_8 C19_8 1_555 1_555
C10_8 C11_8 1_555 1_555
C16_8 C17_8 1_555 1_555
C18_8 C19_8 1_555 1_555
Ni4_2 N1_9 1_555 1_555
Ni6_5 N2_9 1_555 1_555
N1_9 C2_9 1_555 1_555
N2_9 C15_9 1_555 1_555
O1_9 Ni4_2 1_555 1_555
O2_9 Ni4_2 1_555 1_555
H1_9 O2_9 1_555 1_555
H2_9 O2_9 1_555 1_555
O3_9 Ni6_5 1_555 1_555
H3_9 O3_9 1_555 1_555
H4_9 O3_9 1_555 1_555
O11 C1_9 1_555 1_555
O5_9 Ni4_2 1_555 1_555
O12 C4_9 1_555 1_555
O13_4 C17_9 1_555 1_555
O8_9 Ni6_5 1_555 1_555
O10_9 Ni6_5 1_555 1_555
C1_9 O1_9 1_555 1_555
C2_9 C1_9 1_555 1_555
H5_9 C2_9 1_555 1_555
H6_9 C2_9 1_555 1_555
C3_9 N1_9 1_555 1_555
H7_9 C3_9 1_555 1_555
H8_9 C3_9 1_555 1_555
C4_9 O5_9 1_555 1_555
C5_9 N1_9 1_555 1_555
H9_9 C5_9 1_555 1_555
H10_9 C5_9 1_555 1_555
C6_9 C5_9 1_555 1_555
C7_9 C6_9 1_555 1_555
C8_9 C7_9 1_555 1_555
H11_9 C8_9 1_555 1_555
C9_9 C8_9 1_555 1_555
C10_9 C9_9 1_555 1_555
C11_9 C6_9 1_555 1_555
C12_9 C11_9 1_555 1_555
H12_9 C12_9 1_555 1_555
H13_9 C12_9 1_555 1_555
H14_9 C12_9 1_555 1_555
C13_9 C7_9 1_555 1_555
H15_9 C13_9 1_555 1_555
H16_9 C13_9 1_555 1_555
H17_9 C13_9 1_555 1_555
C14_9 C9_9 1_555 1_555
H18_9 C14_9 1_555 1_555
H19_9 C14_9 1_555 1_555
H20_9 C14_9 1_555 1_555
C15_9 C10_9 1_555 1_555
H21_9 C15_9 1_555 1_555
H22_9 C15_9 1_555 1_555
C16_9 N2_9 1_555 1_555
H23_9 C16_9 1_555 1_555
H24_9 C16_9 1_555 1_555
C17_9 O8_9 1_555 1_555
C18_9 O10_9 1_555 1_555
C19_9 N2_9 1_555 1_555
H26_9 C19_9 1_555 1_555
C3_9 C4_9 1_555 1_555
C10_9 C11_9 1_555 1_555
C16_9 C17_9 1_555 1_555
C18_9 C19_9 1_555 1_555

#END
