
###############################################################################
#
# This file contains modified crystal structure data generated from the
# MOF subset of the Cambridge Structural Database (CSD) v543 
# hosted by the Cambridge Crystallographic Data Centre (CCDC).
#
# This work is licensed under the Creative Commons
# Attribution-NonCommercial-ShareAlike 4.0 International License.
# To view a copy of this license, visit
# http://creativecommons.org/licenses/by-nc-sa/4.0/
# or send a letter to
# Creative Commons, PO Box 1866, Mountain View, CA 94042, USA.
#
# CIF created using the CSD Python API on 29 September 2022
# The structure has been converted into the P1 space group
# The structure has a 3D framework
# The original CSD entry OGESOJ is in the tetragonal crystal system
# The framework has been calculated to contain at least 10.0% void space
# The void calculation uses a probe of radius 1.32A, grid spacing 0.4
# The framework is charged, counterions have been retained in the structure
# H atom positions have been added when not included in the experimental data
#
###############################################################################

data_OGESOJ
_chemical_formula_moiety         '(C20 H72 Bi6 N6 O37 5-)n'
_symmetry_cell_setting           triclinic
_symmetry_space_group_name_H-M   'P 1'
_symmetry_Int_Tables_number      1
_space_group_name_Hall           'P 1'
loop_
_symmetry_equiv_pos_site_id
_symmetry_equiv_pos_as_xyz
1 x,y,z
_cell_length_a                   11.7026(17)
_cell_length_b                   11.7026(17)
_cell_length_c                   9.2233(18)
_cell_angle_alpha                90
_cell_angle_beta                 90
_cell_angle_gamma                90
_cell_volume                     1263.14
loop_
_atom_site_label
_atom_site_type_symbol
_atom_site_fract_x
_atom_site_fract_y
_atom_site_fract_z
Bi1 Bi 0.5000 0.2500 0.6250
O1 O 0.5000 0.1300(4) 0.4082(5)
C1 C 0.5000 0.0245(6) 0.4223(7)
Bi3 Bi -0.0000 0.2500 0.8750
O4 O 0.3800(4) 0.2500 0.8418(5)
O5 O 0.1200(4) 0.2500 0.6582(5)
O6 O 0.5000 0.3700(4) 0.4082(5)
O7 O 0.6200(4) 0.2500 0.8418(5)
O8 O 0.5000 0.0477(5) 0.6787(6)
O9 O 0.2023(5) 0.2500 0.9287(6)
O10 O 0.2977(5) 0.2500 0.5713(6)
O11 O 0.7023(5) 0.2500 0.5713(6)
O12 O 0.5000 0.4523(5) 0.6787(6)
C3 C 0.2745(6) 0.2500 0.8277(7)
C4 C 0.2255(6) 0.2500 0.6723(7)
O2 O 0.5000 0.9523(5) 0.3213(6)
Bi2 Bi 0.5000 0.7500 0.3750
O3 O 0.5000 0.8700(4) 0.5918(5)
C2 C 0.5000 0.9755(6) 0.5777(7)
Bi3_2 Bi 1.0000 0.2500 0.8750
O4_2 O 0.0000 0.1300(4) 0.0918(5)
O7_2 O 0.0000 0.3700(4) 0.0918(5)
C3_2 C 0.0000 0.0245(6) 0.0777(7)
O10_2 O -0.0000 0.0477(5) 0.8213(6)
O11_2 O -0.0000 0.4523(5) 0.8213(6)
Bi3_3 Bi 0.0000 0.7500 0.1250
O9_2 O -0.0000 0.9523(5) 0.1787(6)
O5_2 O 0.0000 0.8700(4) 0.9082(5)
C4_2 C -0.0000 0.9755(6) 0.9223(7)
O4_3 O 1.0000 0.1300(4) 0.0918(5)
O7_3 O 1.0000 0.3700(4) 0.0918(5)
C3_3 C 1.0000 0.0245(6) 0.0777(7)
O6_2 O 0.8800(4) 0.2500 0.6582(5)
O10_3 O 1.0000 0.0477(5) 0.8213(6)
O11_3 O 1.0000 0.4523(5) 0.8213(6)
O12_2 O 0.7977(5) 0.2500 0.9287(6)
Bi3_4 Bi 1.0000 0.7500 0.1250
O9_3 O 1.0000 0.9523(5) 0.1787(6)
O5_3 O 1.0000 0.8700(4) 0.9082(5)
C4_3 C 1.0000 0.9755(6) 0.9223(7)
O1_2 O 0.3800(4) 0.7500 0.1582(5)
O2_2 O 0.2023(5) 0.7500 0.0713(6)
C1_2 C 0.2745(6) 0.7500 0.1723(7)
O3_2 O 0.1200(4) 0.7500 0.3418(5)
O6_3 O 0.6200(4) 0.7500 0.1582(5)
O7_4 O 0.5000 0.6300(4) 0.5918(5)
O8_2 O 0.2977(5) 0.7500 0.4287(6)
O11_4 O 0.5000 0.5477(5) 0.3213(6)
O12_3 O 0.7023(5) 0.7500 0.4287(6)
C2_2 C 0.2255(6) 0.7500 0.3277(7)
O8_3 O -0.0000 0.5477(5) 0.1787(6)
C2_3 C -0.0000 0.4755(6) 0.0777(7)
O1_3 O -0.0000 0.6300(4) 0.9082(5)
C1_3 C 0.0000 0.5245(6) 0.9223(7)
O4_4 O 0.8800(4) 0.7500 0.3418(5)
O8_4 O 1.0000 0.5477(5) 0.1787(6)
O10_4 O 0.7977(5) 0.7500 0.0713(6)
C2_4 C 1.0000 0.4755(6) 0.0777(7)
C3_4 C 0.7745(6) 0.7500 0.3277(7)
C4_4 C 0.7255(6) 0.7500 0.1723(7)
O1_4 O 1.0000 0.6300(4) 0.9082(5)
C1_4 C 1.0000 0.5245(6) 0.9223(7)
C3_5 C 0.5000 0.5245(6) 0.5777(7)
C4_5 C 0.5000 0.4755(6) 0.4223(7)
C1_5 C 0.7745(6) 0.2500 0.6723(7)
C2_5 C 0.7255(6) 0.2500 0.8277(7)
N1 N 0.5000 0.2500 0.1250
H1 H 0.586733 0.25 0.125
H2 H 0.471089 0.320817 0.0731232
H3 H 0.471089 0.179183 0.0731232
H4 H 0.471089 0.25 0.228754
H1_2 H 0.5 0.336733 0.125
H2_2 H 0.570817 0.221089 0.176877
H3_2 H 0.429183 0.221089 0.176877
H4_2 H 0.5 0.221089 0.0212463
H1_3 H 0.413267 0.25 0.125
H2_3 H 0.528911 0.179183 0.0731232
H3_3 H 0.528911 0.320817 0.0731232
H4_3 H 0.528911 0.25 0.228754
H1_4 H 0.5 0.163267 0.125
H2_4 H 0.429183 0.278911 0.176877
H3_4 H 0.570817 0.278911 0.176877
H4_4 H 0.5 0.278911 0.0212463
N1_2 N 0.0000 0.2500 0.3750
H1_5 H 6.16298e-33 0.336733 0.375
H3_5 H 0.0708171 0.221089 0.323123
H4_5 H -3.08149e-33 0.221089 0.478754
H1_6 H 3.08149e-33 0.163267 0.375
H2_5 H 0.0708171 0.278911 0.323123
H4_6 H 0 0.278911 0.478754
H1_7 H 0.0867329 0.25 0.375
H2_6 H 0.028911 0.320817 0.426877
H3_6 H 0.028911 0.179183 0.426877
H4_7 H 0.028911 0.25 0.271246
N1_3 N 1.0000 0.2500 0.3750
H1_8 H 1 0.336733 0.375
H2_7 H 0.929183 0.221089 0.323123
H4_8 H 1 0.221089 0.478754
H1_9 H 1 0.163267 0.375
H3_7 H 0.929183 0.278911 0.323123
H4_9 H 1 0.278911 0.478754
H2_8 H 0.971089 0.179183 0.426877
H3_8 H 0.971089 0.320817 0.426877
H4_10 H 0.971089 0.25 0.271246
H1_10 H 0.913267 0.25 0.375
N1_4 N 0.5000 0.7500 0.8750
H1_11 H 0.5 0.663267 0.875
H2_9 H 0.570817 0.778911 0.823123
H3_9 H 0.429183 0.778911 0.823123
H4_11 H 0.5 0.778911 0.978754
H1_12 H 0.5 0.836733 0.875
H2_10 H 0.429183 0.721089 0.823123
H3_10 H 0.570817 0.721089 0.823123
H4_12 H 0.5 0.721089 0.978754
H1_13 H 0.586733 0.75 0.875
H2_11 H 0.471089 0.679183 0.926877
H3_11 H 0.471089 0.820817 0.926877
H4_13 H 0.471089 0.75 0.771246
H1_14 H 0.413267 0.75 0.875
H2_12 H 0.528911 0.820817 0.926877
H3_12 H 0.528911 0.679183 0.926877
H4_14 H 0.528911 0.75 0.771246
N1_5 N 0.0000 0.7500 0.6250
H1_15 H 0.0867329 0.75 0.625
H1_16 H 0 0.836733 0.625
H2_13 H 0.0708171 0.721089 0.676877
H4_15 H -3.08149e-33 0.721089 0.521246
H1_17 H 0 0.663267 0.625
H3_13 H 0.0708171 0.778911 0.676877
H4_16 H -3.08149e-33 0.778911 0.521246
H2_14 H 0.028911 0.679183 0.573123
H3_14 H 0.028911 0.820817 0.573123
H4_17 H 0.028911 0.75 0.728754
N1_6 N 1.0000 0.7500 0.6250
H2_15 H 0.971089 0.820817 0.573123
H3_15 H 0.971089 0.679183 0.573123
H4_18 H 0.971089 0.75 0.728754
H1_18 H 1 0.836733 0.625
H3_16 H 0.929183 0.721089 0.676877
H4_19 H 1 0.721089 0.521246
H1_19 H 1 0.663267 0.625
H2_16 H 0.929183 0.778911 0.676877
H4_20 H 1 0.778911 0.521246
H1_20 H 0.913267 0.75 0.625
loop_
_geom_bond_atom_site_label_1
_geom_bond_atom_site_label_2
_geom_bond_site_symmetry_1
_geom_bond_site_symmetry_2
Bi1 O1 1_555 1_555
O1 C1 1_555 1_555
Bi3 O5 1_555 1_555
O4 Bi1 1_555 1_555
O5 C4 1_555 1_555
O6 Bi1 1_555 1_555
O7 Bi1 1_555 1_555
O8 Bi1 1_555 1_555
O9 Bi3 1_555 1_555
O10 Bi1 1_555 1_555
O11 Bi1 1_555 1_555
O12 Bi1 1_555 1_555
C3 O4 1_555 1_555
C4 O10 1_555 1_555
O9 C3 1_555 1_555
C3 C4 1_555 1_555
Bi2 O2 1_555 1_555
O3 Bi2 1_555 1_555
C2 O3 1_555 1_555
C3_2 O4_2 1_555 1_555
O10_2 Bi3 1_555 1_555
O11_2 Bi3 1_555 1_555
O9_2 Bi3_3 1_555 1_555
O5_2 C4_2 1_555 1_555
C3_3 O4_3 1_555 1_555
O6_2 Bi3_2 1_555 1_555
O10_3 Bi3_2 1_555 1_555
O11_3 Bi3_2 1_555 1_555
O12_2 Bi3_2 1_555 1_555
O9_3 Bi3_4 1_555 1_555
O5_3 C4_3 1_555 1_555
Bi2 O1_2 1_555 1_555
O1_2 C1_2 1_555 1_555
O2_2 C1_2 1_555 1_555
C1_2 C2_2 1_555 1_555
Bi3_3 O2_2 1_555 1_555
O3_2 Bi3_3 1_555 1_555
O6_3 Bi2 1_555 1_555
O7_4 Bi2 1_555 1_555
O8_2 Bi2 1_555 1_555
O11_4 Bi2 1_555 1_555
O12_3 Bi2 1_555 1_555
C2_2 O3_2 1_555 1_555
O8_2 C2_2 1_555 1_555
O8_3 Bi3_3 1_555 1_555
C2_3 O7_2 1_555 1_555
O8_3 C2_3 1_555 1_555
O1_3 C1_3 1_555 1_555
O11_2 C1_3 1_555 1_555
O4_4 Bi3_4 1_555 1_555
O6_3 C4_4 1_555 1_555
O8_4 Bi3_4 1_555 1_555
O10_4 Bi3_4 1_555 1_555
C2_4 O7_3 1_555 1_555
C3_4 O4_4 1_555 1_555
C4_4 O10_4 1_555 1_555
O8_4 C2_4 1_555 1_555
O12_3 C3_4 1_555 1_555
C3_4 C4_4 1_555 1_555
O1_4 C1_4 1_555 1_555
O11_3 C1_4 1_555 1_555
O6 C4_5 1_555 1_555
C3_5 O7_4 1_555 1_555
C4_5 O11_4 1_555 1_555
O12 C3_5 1_555 1_555
C3_5 C4_5 1_555 1_555
O6_2 C1_5 1_555 1_555
O11 C1_5 1_555 1_555
C1_5 C2_5 1_555 1_555
C2_5 O7 1_555 1_555
O12_2 C2_5 1_555 1_555
N1 H1 1_555 1_555
N1 H2 1_555 1_555
N1 H3 1_555 1_555
N1 H4 1_555 1_555
N1 H1_2 1_555 1_555
N1 H2_2 1_555 1_555
N1 H3_2 1_555 1_555
N1 H4_2 1_555 1_555
N1 H1_3 1_555 1_555
N1 H2_3 1_555 1_555
N1 H3_3 1_555 1_555
N1 H4_3 1_555 1_555
N1 H1_4 1_555 1_555
N1 H2_4 1_555 1_555
N1 H3_4 1_555 1_555
N1 H4_4 1_555 1_555
N1_2 H1_5 1_555 1_555
N1_2 H3_5 1_555 1_555
N1_2 H4_5 1_555 1_555
N1_2 H1_6 1_555 1_555
N1_2 H2_5 1_555 1_555
N1_2 H4_6 1_555 1_555
N1_2 H1_7 1_555 1_555
N1_2 H2_6 1_555 1_555
N1_2 H3_6 1_555 1_555
N1_2 H4_7 1_555 1_555
N1_3 H1_8 1_555 1_555
N1_3 H2_7 1_555 1_555
N1_3 H4_8 1_555 1_555
N1_3 H1_9 1_555 1_555
N1_3 H3_7 1_555 1_555
N1_3 H4_9 1_555 1_555
N1_3 H2_8 1_555 1_555
N1_3 H3_8 1_555 1_555
N1_3 H4_10 1_555 1_555
N1_3 H1_10 1_555 1_555
N1_4 H1_11 1_555 1_555
N1_4 H2_9 1_555 1_555
N1_4 H3_9 1_555 1_555
N1_4 H4_11 1_555 1_555
N1_4 H1_12 1_555 1_555
N1_4 H2_10 1_555 1_555
N1_4 H3_10 1_555 1_555
N1_4 H4_12 1_555 1_555
N1_4 H1_13 1_555 1_555
N1_4 H2_11 1_555 1_555
N1_4 H3_11 1_555 1_555
N1_4 H4_13 1_555 1_555
N1_4 H1_14 1_555 1_555
N1_4 H2_12 1_555 1_555
N1_4 H3_12 1_555 1_555
N1_4 H4_14 1_555 1_555
N1_5 H1_15 1_555 1_555
N1_5 H1_16 1_555 1_555
N1_5 H2_13 1_555 1_555
N1_5 H4_15 1_555 1_555
N1_5 H1_17 1_555 1_555
N1_5 H3_13 1_555 1_555
N1_5 H4_16 1_555 1_555
N1_5 H2_14 1_555 1_555
N1_5 H3_14 1_555 1_555
N1_5 H4_17 1_555 1_555
N1_6 H2_15 1_555 1_555
N1_6 H3_15 1_555 1_555
N1_6 H4_18 1_555 1_555
N1_6 H1_18 1_555 1_555
N1_6 H3_16 1_555 1_555
N1_6 H4_19 1_555 1_555
N1_6 H1_19 1_555 1_555
N1_6 H2_16 1_555 1_555
N1_6 H4_20 1_555 1_555
N1_6 H1_20 1_555 1_555

#END
