
###############################################################################
#
# This file contains modified crystal structure data generated from the
# MOF subset of the Cambridge Structural Database (CSD) v543 
# hosted by the Cambridge Crystallographic Data Centre (CCDC).
#
# This work is licensed under the Creative Commons
# Attribution-NonCommercial-ShareAlike 4.0 International License.
# To view a copy of this license, visit
# http://creativecommons.org/licenses/by-nc-sa/4.0/
# or send a letter to
# Creative Commons, PO Box 1866, Mountain View, CA 94042, USA.
#
# CIF created using the CSD Python API on 29 September 2022
# The structure has been converted into the P1 space group
# The structure has a 3D framework
# The original CSD entry OGIBUD is in the monoclinic crystal system
# The framework has been calculated to contain at least 10.0% void space
# The void calculation uses a probe of radius 1.32A, grid spacing 0.4
#
###############################################################################

data_OGIBUD
_chemical_formula_moiety         '(C40 H8 O32 Zn4)n'
_symmetry_cell_setting           triclinic
_symmetry_space_group_name_H-M   'P 1'
_symmetry_Int_Tables_number      1
_space_group_name_Hall           'P 1'
loop_
_symmetry_equiv_pos_site_id
_symmetry_equiv_pos_as_xyz
1 x,y,z
_cell_length_a                   9.5741(3)
_cell_length_b                   14.5044(4)
_cell_length_c                   13.7329(5)
_cell_angle_alpha                90
_cell_angle_beta                 100.582(4)
_cell_angle_gamma                90
_cell_volume                     1874.61
loop_
_atom_site_label
_atom_site_type_symbol
_atom_site_fract_x
_atom_site_fract_y
_atom_site_fract_z
O2 O 0.5682(3) 0.1197(2) 0.2827(2)
O6 O 0.3431(4) 0.1495(2) 0.2943(3)
C7 C 0.4610(5) 0.1173(3) 0.3251(3)
C10 C 0.4857(5) 0.0604(3) 0.4193(3)
O9 O 0.5413(3) 0.22215(19) 0.6260(2)
C11 C 0.5136(5) 0.0959(3) 0.5151(3)
C12 C 0.5281(5) 0.1972(3) 0.5336(3)
C14 C 0.5302(5) 0.0351(3) 0.5955(3)
H3 H 0.5521 0.0583 0.6596
O12 O 0.5279(4) 0.2511(2) 0.4645(2)
Zn4 Zn 0.53768(4) 0.14207(3) 0.13953(3)
Zn6 Zn 0.53768(4) 0.35793(3) 0.63953(3)
Zn1 Zn 0.46232(4) 0.64207(3) 0.36047(3)
O1 O 0.4587(3) 0.77785(19) 0.3740(2)
O3 O 0.3320(3) 0.5604(2) 0.4167(2)
C1 C 0.1019(4) 0.5436(3) 0.4545(3)
C2 C 0.2065(4) 0.5922(3) 0.4019(3)
O4 O 0.1677(4) 0.6571(3) 0.3471(3)
C5 C 0.4864(5) 0.9041(3) 0.4849(3)
C6 C 0.4719(5) 0.8028(3) 0.4664(3)
C8 C 0.4698(5) 0.9649(3) 0.4045(3)
H2 H 0.4479 0.9417 0.3404
O8 O 0.4721(4) 0.7489(2) 0.5355(2)
O10 O 0.4318(3) 0.8803(2) 0.7173(2)
O11 O 0.6569(4) 0.8505(2) 0.7057(3)
C13 C 0.5390(5) 0.8827(3) 0.6749(3)
C15 C 0.5143(5) 0.9396(3) 0.5807(3)
C18 C 0.0427(4) 0.4436(3) 0.5800(3)
H4 H 0.0717 0.4045 0.6336
O15 O 0.3505(3) 0.3950(2) 0.5621(2)
C19 C 0.2978(4) 0.4713(3) 0.5830(3)
O16 O 0.3638(3) 0.5297(2) 0.6418(2)
C20 C 0.1450(4) 0.4872(3) 0.5370(3)
Zn7 Zn 0.46232(4) 0.85793(3) 0.86047(3)
O18 O 0.4318(3) 0.6197(2) 0.2173(2)
O20 O 0.6495(3) 0.6050(2) 0.4379(2)
C3 C 0.9573(4) 0.5564(3) 0.4200(3)
H1 H 0.9283 0.5955 0.3664
C4 C 0.7022(4) 0.5287(3) 0.4170(3)
O7 O 0.6362(3) 0.4703(2) 0.3582(2)
C9 C 0.8550(4) 0.5128(3) 0.4630(3)
O13 O 0.6680(3) 0.4396(2) 0.5833(2)
C16 C 0.8981(4) 0.4564(3) 0.5455(3)
C17 C 0.7935(4) 0.4078(3) 0.5981(3)
O14 O 0.8323(4) 0.3429(3) 0.6529(3)
O19 O 0.5682(3) 0.3803(2) 0.7827(2)
C3_2 C 0.0427(4) 0.0564(3) 0.0800(3)
H1_2 H 0.0717 0.0955 0.1336
O5 O 0.3505(3) 0.1050(2) 0.0621(2)
C4_2 C 0.2978(4) 0.0287(3) 0.0830(3)
C9_2 C 0.1450(4) 0.0128(3) 0.0370(3)
O7_2 O 0.3638(3) 0.9703(2) 0.1418(2)
O13_2 O 0.3320(3) 0.9396(2) 0.9167(2)
C16_2 C 0.1019(4) 0.9564(3) 0.9545(3)
C17_2 C 0.2065(4) 0.9078(3) 0.9019(3)
O14_2 O 0.1677(4) 0.8429(3) 0.8471(3)
O17 O 0.4587(3) 0.72215(19) 0.8740(2)
O21 O 0.6495(3) 0.8950(2) 0.9379(2)
O1_2 O 0.5413(3) 0.27785(19) 0.1260(2)
O3_2 O 0.6680(3) 0.0604(2) 0.0833(2)
C1_2 C 0.8981(4) 0.0436(3) 0.0455(3)
C2_2 C 0.7935(4) 0.0922(3) 0.0981(3)
O4_2 O 0.8323(4) 0.1571(3) 0.1529(3)
O6_2 O 0.6569(4) 0.6495(2) 0.2057(3)
C5_2 C 0.5136(5) 0.4041(3) 0.0151(3)
C6_2 C 0.5281(5) 0.3028(3) 0.0336(3)
C7_2 C 0.5390(5) 0.6173(3) 0.1749(3)
C8_2 C 0.5302(5) 0.4649(3) 0.0955(3)
H2_2 H 0.5521 0.4417 0.1596
C10_2 C 0.5143(5) 0.5604(3) 0.0807(3)
O12_2 O 0.4721(4) 0.7511(2) 0.0355(2)
O8_2 O 0.5279(4) 0.2489(2) 0.9645(2)
O11_2 O 0.3431(4) 0.3505(2) 0.7943(3)
C11_2 C 0.4864(5) 0.5959(3) 0.9849(3)
C12_2 C 0.4719(5) 0.6972(3) 0.9664(3)
C13_2 C 0.4610(5) 0.3827(3) 0.8251(3)
C14_2 C 0.4698(5) 0.5351(3) 0.9045(3)
H3_2 H 0.4479 0.5583 0.8404
C15_2 C 0.4857(5) 0.4396(3) 0.9193(3)
O16_2 O 0.6362(3) 0.0297(2) 0.8582(2)
C18_2 C 0.9573(4) 0.9436(3) 0.9200(3)
H4_2 H 0.9283 0.9045 0.8664
C19_2 C 0.7022(4) 0.9713(3) 0.9170(3)
C20_2 C 0.8550(4) 0.9872(3) 0.9630(3)
loop_
_geom_bond_atom_site_label_1
_geom_bond_atom_site_label_2
_geom_bond_site_symmetry_1
_geom_bond_site_symmetry_2
O2 C7 1_555 1_555
O6 C7 1_555 1_555
C7 C10 1_555 1_555
O9 C12 1_555 1_555
C11 C10 1_555 1_555
C12 C11 1_555 1_555
C14 C11 1_555 1_555
H3 C14 1_555 1_555
O12 C12 1_555 1_555
Zn4 O2 1_555 1_555
Zn6 O9 1_555 1_555
Zn1 O1 1_555 1_555
O1 C6 1_555 1_555
O3 Zn1 1_555 1_555
C1 C2 1_555 1_555
C2 O3 1_555 1_555
O4 C2 1_555 1_555
C5 C6 1_555 1_555
C6 O8 1_555 1_555
C8 C5 1_555 1_555
H2 C8 1_555 1_555
O10 C13 1_555 1_555
O11 C13 1_555 1_555
C13 C15 1_555 1_555
C15 C5 1_555 1_555
H4 C18 1_555 1_555
O15 C19 1_555 1_555
C19 O16 1_555 1_555
C20 C1 1_555 1_555
Zn6 O15 1_555 1_555
Zn7 O10 1_555 1_555
O18 Zn1 1_555 1_555
O20 Zn1 1_555 1_555
C18 C20 1_555 1_555
C19 C20 1_555 1_555
H1 C3 1_555 1_555
O20 C4 1_555 1_555
C4 O7 1_555 1_555
C9 C3 1_555 1_555
O13 C17 1_555 1_555
C16 C9 1_555 1_555
C17 C16 1_555 1_555
O14 C17 1_555 1_555
Zn6 O13 1_555 1_555
O19 Zn6 1_555 1_555
C4 C9 1_555 1_555
H1_2 C3_2 1_555 1_555
O5 C4_2 1_555 1_555
C9_2 C3_2 1_555 1_555
Zn4 O5 1_555 1_555
C4_2 C9_2 1_555 1_555
O13_2 C17_2 1_555 1_555
C17_2 C16_2 1_555 1_555
O14_2 C17_2 1_555 1_555
Zn7 O13_2 1_555 1_555
O17 Zn7 1_555 1_555
O21 Zn7 1_555 1_555
Zn4 O1_2 1_555 1_555
O1_2 C6_2 1_555 1_555
O18 C7_2 1_555 1_555
O3_2 Zn4 1_555 1_555
C1_2 C2_2 1_555 1_555
C2_2 O3_2 1_555 1_555
O4_2 C2_2 1_555 1_555
O6_2 C7_2 1_555 1_555
C5_2 C6_2 1_555 1_555
C7_2 C10_2 1_555 1_555
C8_2 C5_2 1_555 1_555
H2_2 C8_2 1_555 1_555
C10_2 C8_2 1_555 1_555
O17 C12_2 1_555 1_555
O19 C13_2 1_555 1_555
O11_2 C13_2 1_555 1_555
C12_2 C11_2 1_555 1_555
C13_2 C15_2 1_555 1_555
C14_2 C11_2 1_555 1_555
H3_2 C14_2 1_555 1_555
C14_2 C15_2 1_555 1_555
H4_2 C18_2 1_555 1_555
O21 C19_2 1_555 1_555
C18_2 C20_2 1_555 1_555
C19_2 C20_2 1_555 1_555

#END
