
###############################################################################
#
# This file contains modified crystal structure data generated from the
# MOF subset of the Cambridge Structural Database (CSD) v543 
# hosted by the Cambridge Crystallographic Data Centre (CCDC).
#
# This work is licensed under the Creative Commons
# Attribution-NonCommercial-ShareAlike 4.0 International License.
# To view a copy of this license, visit
# http://creativecommons.org/licenses/by-nc-sa/4.0/
# or send a letter to
# Creative Commons, PO Box 1866, Mountain View, CA 94042, USA.
#
# CIF created using the CSD Python API on 29 September 2022
# The structure has been converted into the P1 space group
# The structure has a 3D framework
# The original CSD entry OGIYUZ is in the tetragonal crystal system
# The framework has been calculated to contain at least 10.0% void space
# The void calculation uses a probe of radius 1.32A, grid spacing 0.4
# The framework is charged, counterions have been retained in the structure
# H atom positions have been added when not included in the experimental data
#
###############################################################################

data_OGIYUZ
_chemical_formula_moiety         '(C212 H168 Eu8 N16 O64 S16 4-)n'
_symmetry_cell_setting           triclinic
_symmetry_space_group_name_H-M   'P 1'
_symmetry_Int_Tables_number      1
_space_group_name_Hall           'P 1'
loop_
_symmetry_equiv_pos_site_id
_symmetry_equiv_pos_as_xyz
1 x,y,z
_cell_length_a                   19.1147(4)
_cell_length_b                   19.1147(4)
_cell_length_c                   21.1495(7)
_cell_angle_alpha                90
_cell_angle_beta                 90
_cell_angle_gamma                90
_cell_volume                     7727.43
loop_
_atom_site_label
_atom_site_type_symbol
_atom_site_fract_x
_atom_site_fract_y
_atom_site_fract_z
Eu2 Eu -0.0000 0.5000 0.2500
N5 N 0.1158(3) 0.4568(2) 0.3017(2)
N6 N 0.1158(3) 0.5432(2) 0.1983(2)
C66 C 0.1171(4) 0.4140(4) 0.3519(3)
C67 C 0.1171(4) 0.5860(4) 0.1481(3)
H40 H 0.0738 0.3997 0.3698
H41 H 0.0738 0.6003 0.1302
C73 C 0.1788(3) 0.3895(4) 0.3791(4)
C74 C 0.1788(3) 0.6105(4) 0.1209(4)
H47 H 0.1772 0.3589 0.4144
H48 H 0.1772 0.6411 0.0856
C80 C 0.2403(3) 0.4098(3) 0.3550(3)
C81 C 0.2403(3) 0.5902(3) 0.1450(3)
H54 H 0.2828 0.3936 0.3732
H55 H 0.2828 0.6064 0.1268
C87 C 0.2418(3) 0.4547(3) 0.3029(3)
C88 C 0.2418(3) 0.5453(3) 0.1971(3)
C94 C 0.3073(3) 0.4790(3) 0.2754(3)
C95 C 0.3073(3) 0.5210(3) 0.2246(3)
H61 H 0.3505 0.4650 0.2937
H62 H 0.3505 0.5350 0.2063
C101 C 0.1781(3) 0.4766(3) 0.2765(3)
C102 C 0.1781(3) 0.5234(3) 0.2235(3)
O28 O 0.0350(3) 0.4106(2) 0.18248(19)
O30 O 0.0350(3) 0.5894(2) 0.31752(19)
Eu3 Eu -0.0000 0.5000 0.7500
Eu1 Eu 0.5000 -0.0000 0.2500
N1 N 0.4568(2) 0.1158(3) 0.3017(2)
C9 C 0.4140(4) 0.1171(4) 0.3519(3)
H7 H 0.3997 0.0738 0.3698
C10 C 0.3895(4) 0.1788(3) 0.3791(4)
H8 H 0.3589 0.1772 0.4144
C11 C 0.4098(3) 0.2403(3) 0.3550(3)
H9 H 0.3936 0.2828 0.3732
C12 C 0.4547(3) 0.2418(3) 0.3029(3)
C13 C 0.4790(3) 0.3073(3) 0.2754(3)
H10 H 0.4650 0.3505 0.2937
C14 C 0.4766(3) 0.1781(3) 0.2765(3)
S5 S 0.34597(9) 0.07317(8) 0.16741(7)
S6 S 0.07317(8) 0.34597(9) 0.16741(7)
N2 N 0.5432(2) 0.1158(3) 0.1983(2)
C16 C 0.3475(3) 0.3475(3) 0.1694(3)
H12 H 0.3839 0.3839 0.1644
H15 H 0.3401 0.3401 0.2153
C21 C 0.3733(3) 0.2802(3) 0.1402(2)
C22 C 0.2802(3) 0.3733(3) 0.1402(2)
C28 C 0.3516(3) 0.2164(3) 0.1646(2)
C29 C 0.2164(3) 0.3516(3) 0.1646(2)
H20 H 0.3218 0.2151 0.2006
H21 H 0.2151 0.3218 0.2006
C35 C 0.3737(3) 0.1540(3) 0.1364(3)
C36 C 0.1540(3) 0.3737(3) 0.1364(3)
C42 C 0.4180(3) 0.1553(3) 0.0845(2)
C43 C 0.1553(3) 0.4180(3) 0.0845(2)
H27 H 0.4337 0.1127 0.0664
H28 H 0.1127 0.4337 0.0664
C49 C 0.4390(3) 0.2177(3) 0.0594(2)
C50 C 0.2177(3) 0.4390(3) 0.0594(2)
C56 C 0.4169(3) 0.2800(3) 0.0869(2)
C59 C 0.2800(3) 0.4169(3) 0.0869(2)
C61 C 0.4848(4) 0.2173(5) 0.0000
C62 C 0.2173(5) 0.4848(4) 0.0000
H32 H 0.5155 0.2590 0.0000
H33 H 0.2590 0.5155 0.0000
H35 H 0.5148 0.1751 0.0000
H36 H 0.1751 0.5148 0.0000
C63 C 0.5860(4) 0.1171(4) 0.1481(3)
H37 H 0.6003 0.0738 0.1302
C70 C 0.6105(4) 0.1788(3) 0.1209(4)
H44 H 0.6411 0.1772 0.0856
C77 C 0.5902(3) 0.2403(3) 0.1450(3)
H51 H 0.6064 0.2828 0.1268
C84 C 0.5453(3) 0.2418(3) 0.1971(3)
C91 C 0.5210(3) 0.3073(3) 0.2246(3)
H58 H 0.5350 0.3505 0.2063
C98 C 0.5234(3) 0.1781(3) 0.2235(3)
O8 O 0.4389(2) 0.3428(2) 0.06306(19)
O11 O 0.3428(2) 0.4389(2) 0.06306(19)
O15 O 0.3090(3) 0.0372(2) 0.1163(2)
O16 O 0.0372(2) 0.3090(3) 0.1163(2)
O22 O 0.4106(2) 0.0350(3) 0.18248(19)
O27 O 0.5894(2) 0.0350(3) 0.31752(19)
O34 O 0.3043(3) 0.0875(2) 0.2225(2)
O35 O 0.0875(2) 0.3043(3) 0.2225(2)
H68 H 0.46583 0.368364 0.0958964
H71 H 0.371072 0.397655 0.0503343
Eu4 Eu 0.5000 0.0000 0.7500
S7 S 0.07317(8) 0.34597(9) 0.83259(7)
S8 S 0.34597(9) 0.07317(8) 0.83259(7)
C17 C 0.3475(3) 0.3475(3) 0.8306(3)
H13 H 0.3839 0.3839 0.8356
H16 H 0.3401 0.3401 0.7847
C23 C 0.2802(3) 0.3733(3) 0.8598(2)
C24 C 0.3733(3) 0.2802(3) 0.8598(2)
C30 C 0.2164(3) 0.3516(3) 0.8354(2)
C31 C 0.3516(3) 0.2164(3) 0.8354(2)
H22 H 0.3218 0.2151 0.7994
H23 H 0.2151 0.3218 0.7994
C37 C 0.1540(3) 0.3737(3) 0.8636(3)
C38 C 0.3737(3) 0.1540(3) 0.8636(3)
C44 C 0.1553(3) 0.4180(3) 0.9155(2)
C45 C 0.4180(3) 0.1553(3) 0.9155(2)
H29 H 0.4337 0.1127 0.9336
H30 H 0.1127 0.4337 0.9336
C51 C 0.2177(3) 0.4390(3) 0.9406(2)
C52 C 0.4390(3) 0.2177(3) 0.9406(2)
C57 C 0.4169(3) 0.2800(3) 0.9131(2)
C58 C 0.2800(3) 0.4169(3) 0.9131(2)
C61_2 C 0.4848(4) 0.2173(5) 1.0000
C62_2 C 0.2173(5) 0.4848(4) 1.0000
H32_2 H 0.5155 0.2590 1.0000
H33_2 H 0.2590 0.5155 1.0000
H35_2 H 0.5148 0.1751 1.0000
H36_2 H 0.1751 0.5148 1.0000
O9 O 0.4389(2) 0.3428(2) 0.93694(19)
O10 O 0.3428(2) 0.4389(2) 0.93694(19)
O17 O 0.0372(2) 0.3090(3) 0.8837(2)
O18 O 0.3090(3) 0.0372(2) 0.8837(2)
O24 O 0.0350(3) 0.4106(2) 0.81752(19)
O25 O 0.4106(2) 0.0350(3) 0.81752(19)
O36 O 0.0875(2) 0.3043(3) 0.7775(2)
O37 O 0.3043(3) 0.0875(2) 0.7775(2)
H69 H 0.368364 0.46583 0.904104
H70 H 0.397655 0.371072 0.949666
Eu1_2 Eu 0.5000 1.0000 0.2500
S1 S 0.65403(9) 0.92683(8) 0.16741(7)
C1 C 0.6525(3) 0.6525(3) 0.1694(3)
H1 H 0.6161 0.6161 0.1644
H2 H 0.6599 0.6599 0.2153
C2 C 0.6267(3) 0.7198(3) 0.1402(2)
C3 C 0.6484(3) 0.7836(3) 0.1646(2)
H3 H 0.6782 0.7849 0.2006
C4 C 0.6263(3) 0.8460(3) 0.1364(3)
C5 C 0.5820(3) 0.8447(3) 0.0845(2)
H4 H 0.5663 0.8873 0.0664
C6 C 0.5610(3) 0.7823(3) 0.0594(2)
C7 C 0.5831(3) 0.7200(3) 0.0869(2)
C8 C 0.5152(4) 0.7827(5) 0.0000
H5 H 0.4845 0.7410 0.0000
H6 H 0.4852 0.8249 0.0000
O1 O 0.5611(2) 0.6572(2) 0.06306(19)
O2 O 0.6910(3) 0.9628(2) 0.1163(2)
O3 O 0.5894(2) 0.9650(3) 0.18248(19)
O4 O 0.6957(3) 0.9125(2) 0.2225(2)
Eu2_2 Eu 1.0000 0.5000 0.2500
S2 S 0.92683(8) 0.65403(9) 0.16741(7)
N3 N 0.5432(2) 0.8842(3) 0.3017(2)
N4 N 0.4568(2) 0.8842(3) 0.1983(2)
N7 N 0.8842(3) 0.5432(2) 0.3017(2)
N8 N 0.8842(3) 0.4568(2) 0.1983(2)
C18 C 0.7198(3) 0.6267(3) 0.1402(2)
C25 C 0.7836(3) 0.6484(3) 0.1646(2)
H17 H 0.7849 0.6782 0.2006
C32 C 0.8460(3) 0.6263(3) 0.1364(3)
C39 C 0.8447(3) 0.5820(3) 0.0845(2)
H24 H 0.8873 0.5663 0.0664
C46 C 0.7823(3) 0.5610(3) 0.0594(2)
C55 C 0.7200(3) 0.5831(3) 0.0869(2)
C60 C 0.7827(5) 0.5152(4) 0.0000
H31 H 0.7410 0.4845 0.0000
H34 H 0.8249 0.4852 0.0000
C64 C 0.5860(4) 0.8829(4) 0.3519(3)
C65 C 0.4140(4) 0.8829(4) 0.1481(3)
C68 C 0.8829(4) 0.5860(4) 0.3519(3)
C69 C 0.8829(4) 0.4140(4) 0.1481(3)
H38 H 0.6003 0.9262 0.3698
H39 H 0.3997 0.9262 0.1302
H42 H 0.9262 0.6003 0.3698
H43 H 0.9262 0.3997 0.1302
C71 C 0.6105(4) 0.8212(3) 0.3791(4)
C72 C 0.3895(4) 0.8212(3) 0.1209(4)
C75 C 0.8212(3) 0.6105(4) 0.3791(4)
C76 C 0.8212(3) 0.3895(4) 0.1209(4)
H45 H 0.6411 0.8228 0.4144
H46 H 0.3589 0.8228 0.0856
H49 H 0.8228 0.6411 0.4144
H50 H 0.8228 0.3589 0.0856
C78 C 0.5902(3) 0.7597(3) 0.3550(3)
C79 C 0.4098(3) 0.7597(3) 0.1450(3)
C82 C 0.7597(3) 0.5902(3) 0.3550(3)
C83 C 0.7597(3) 0.4098(3) 0.1450(3)
H52 H 0.6064 0.7172 0.3732
H53 H 0.3936 0.7172 0.1268
H56 H 0.7172 0.6064 0.3732
H57 H 0.7172 0.3936 0.1268
C85 C 0.5453(3) 0.7582(3) 0.3029(3)
C86 C 0.4547(3) 0.7582(3) 0.1971(3)
C89 C 0.7582(3) 0.5453(3) 0.3029(3)
C90 C 0.7582(3) 0.4547(3) 0.1971(3)
C92 C 0.5210(3) 0.6927(3) 0.2754(3)
C93 C 0.4790(3) 0.6927(3) 0.2246(3)
C96 C 0.6927(3) 0.5210(3) 0.2754(3)
C97 C 0.6927(3) 0.4790(3) 0.2246(3)
H59 H 0.5350 0.6495 0.2937
H60 H 0.4650 0.6495 0.2063
H63 H 0.6495 0.5350 0.2937
H64 H 0.6495 0.4650 0.2063
C99 C 0.5234(3) 0.8219(3) 0.2765(3)
C100 C 0.4766(3) 0.8219(3) 0.2235(3)
C103 C 0.8219(3) 0.5234(3) 0.2765(3)
C104 C 0.8219(3) 0.4766(3) 0.2235(3)
O7 O 0.6572(2) 0.5611(2) 0.06306(19)
O12 O 0.9628(2) 0.6910(3) 0.1163(2)
O19 O 0.9650(3) 0.5894(2) 0.18248(19)
O26 O 0.4106(2) 0.9650(3) 0.31752(19)
O29 O 0.9650(3) 0.4106(2) 0.31752(19)
O31 O 0.9125(2) 0.6957(3) 0.2225(2)
H66 H 0.628928 0.602345 0.0503343
H72 H 0.53417 0.631636 0.0958964
C8_2 C 0.5152(4) 0.7827(5) 1.0000
H5_2 H 0.4845 0.7410 1.0000
H6_2 H 0.4852 0.8249 1.0000
Eu3_2 Eu 1.0000 0.5000 0.7500
Eu4_2 Eu 0.5000 1.0000 0.7500
S3 S 0.92683(8) 0.65403(9) 0.83259(7)
S4 S 0.65403(9) 0.92683(8) 0.83259(7)
C15 C 0.6525(3) 0.6525(3) 0.8306(3)
H11 H 0.6161 0.6161 0.8356
H14 H 0.6599 0.6599 0.7847
C19 C 0.7198(3) 0.6267(3) 0.8598(2)
C20 C 0.6267(3) 0.7198(3) 0.8598(2)
C26 C 0.7836(3) 0.6484(3) 0.8354(2)
C27 C 0.6484(3) 0.7836(3) 0.8354(2)
H18 H 0.6782 0.7849 0.7994
H19 H 0.7849 0.6782 0.7994
C33 C 0.8460(3) 0.6263(3) 0.8636(3)
C34 C 0.6263(3) 0.8460(3) 0.8636(3)
C40 C 0.8447(3) 0.5820(3) 0.9155(2)
C41 C 0.5820(3) 0.8447(3) 0.9155(2)
H25 H 0.5663 0.8873 0.9336
H26 H 0.8873 0.5663 0.9336
C47 C 0.7823(3) 0.5610(3) 0.9406(2)
C48 C 0.5610(3) 0.7823(3) 0.9406(2)
C53 C 0.5831(3) 0.7200(3) 0.9131(2)
C54 C 0.7200(3) 0.5831(3) 0.9131(2)
C60_2 C 0.7827(5) 0.5152(4) 1.0000
H31_2 H 0.7410 0.4845 1.0000
H34_2 H 0.8249 0.4852 1.0000
O5 O 0.5611(2) 0.6572(2) 0.93694(19)
O6 O 0.6572(2) 0.5611(2) 0.93694(19)
O13 O 0.9628(2) 0.6910(3) 0.8837(2)
O14 O 0.6910(3) 0.9628(2) 0.8837(2)
O20 O 0.9650(3) 0.5894(2) 0.81752(19)
O21 O 0.5894(2) 0.9650(3) 0.81752(19)
O32 O 0.9125(2) 0.6957(3) 0.7775(2)
O33 O 0.6957(3) 0.9125(2) 0.7775(2)
H65 H 0.631636 0.53417 0.904104
H67 H 0.602345 0.628928 0.949666
N5_2 N 0.5432(2) 0.1158(3) 0.8017(2)
N6_2 N 0.4568(2) 0.1158(3) 0.6983(2)
C66_2 C 0.5860(4) 0.1171(4) 0.8519(3)
C67_2 C 0.4140(4) 0.1171(4) 0.6481(3)
H40_2 H 0.6003 0.0738 0.8698
H41_2 H 0.3997 0.0738 0.6302
C73_2 C 0.6105(4) 0.1788(3) 0.8791(4)
C74_2 C 0.3895(4) 0.1788(3) 0.6209(4)
H47_2 H 0.6411 0.1772 0.9144
H48_2 H 0.3589 0.1772 0.5856
C80_2 C 0.5902(3) 0.2403(3) 0.8550(3)
C81_2 C 0.4098(3) 0.2403(3) 0.6450(3)
H54_2 H 0.6064 0.2828 0.8732
H55_2 H 0.3936 0.2828 0.6268
C87_2 C 0.5453(3) 0.2418(3) 0.8029(3)
C88_2 C 0.4547(3) 0.2418(3) 0.6971(3)
C94_2 C 0.5210(3) 0.3073(3) 0.7754(3)
C95_2 C 0.4790(3) 0.3073(3) 0.7246(3)
H61_2 H 0.5350 0.3505 0.7937
H62_2 H 0.4650 0.3505 0.7063
C101_2 C 0.5234(3) 0.1781(3) 0.7765(3)
C102_2 C 0.4766(3) 0.1781(3) 0.7235(3)
O28_2 O 0.5894(2) 0.0350(3) 0.68248(19)
S1_2 S 0.07317(8) 0.65403(9) 0.66741(7)
C1_2 C 0.3475(3) 0.6525(3) 0.6694(3)
H1_2 H 0.3839 0.6161 0.6644
H2_2 H 0.3401 0.6599 0.7153
C2_2 C 0.2802(3) 0.6267(3) 0.6402(2)
C3_2 C 0.2164(3) 0.6484(3) 0.6646(2)
H3_2 H 0.2151 0.6782 0.7006
C4_2 C 0.1540(3) 0.6263(3) 0.6364(3)
C5_2 C 0.1553(3) 0.5820(3) 0.5845(2)
H4_2 H 0.1127 0.5663 0.5664
C6_2 C 0.2177(3) 0.5610(3) 0.5594(2)
C7_2 C 0.2800(3) 0.5831(3) 0.5869(2)
C8_3 C 0.2173(5) 0.5152(4) 0.5000
H5_3 H 0.2590 0.4845 0.5000
H6_3 H 0.1751 0.4852 0.5000
O1_2 O 0.3428(2) 0.5611(2) 0.56306(19)
O2_2 O 0.0372(2) 0.6910(3) 0.6163(2)
O3_2 O 0.0350(3) 0.5894(2) 0.68248(19)
O4_2 O 0.0875(2) 0.6957(3) 0.7225(2)
S2_2 S 0.34597(9) 0.92683(8) 0.66741(7)
S3_2 S 0.34597(9) 0.92683(8) 0.33259(7)
S4_2 S 0.07317(8) 0.65403(9) 0.33259(7)
N3_2 N 0.1158(3) 0.5432(2) 0.8017(2)
N4_2 N 0.1158(3) 0.4568(2) 0.6983(2)
N7_2 N 0.4568(2) 0.8842(3) 0.8017(2)
N8_2 N 0.5432(2) 0.8842(3) 0.6983(2)
C15_2 C 0.3475(3) 0.6525(3) 0.3306(3)
H11_2 H 0.3839 0.6161 0.3356
H14_2 H 0.3401 0.6599 0.2847
C18_2 C 0.3733(3) 0.7198(3) 0.6402(2)
C19_2 C 0.3733(3) 0.7198(3) 0.3598(2)
C20_2 C 0.2802(3) 0.6267(3) 0.3598(2)
C25_2 C 0.3516(3) 0.7836(3) 0.6646(2)
C26_2 C 0.3516(3) 0.7836(3) 0.3354(2)
C27_2 C 0.2164(3) 0.6484(3) 0.3354(2)
H17_2 H 0.3218 0.7849 0.7006
H18_2 H 0.2151 0.6782 0.2994
H19_2 H 0.3218 0.7849 0.2994
C32_2 C 0.3737(3) 0.8460(3) 0.6364(3)
C33_2 C 0.3737(3) 0.8460(3) 0.3636(3)
C34_2 C 0.1540(3) 0.6263(3) 0.3636(3)
C39_2 C 0.4180(3) 0.8447(3) 0.5845(2)
C40_2 C 0.4180(3) 0.8447(3) 0.4155(2)
C41_2 C 0.1553(3) 0.5820(3) 0.4155(2)
H24_2 H 0.4337 0.8873 0.5664
H25_2 H 0.1127 0.5663 0.4336
H26_2 H 0.4337 0.8873 0.4336
C46_2 C 0.4390(3) 0.7823(3) 0.5594(2)
C47_2 C 0.4390(3) 0.7823(3) 0.4406(2)
C48_2 C 0.2177(3) 0.5610(3) 0.4406(2)
C53_2 C 0.2800(3) 0.5831(3) 0.4131(2)
C54_2 C 0.4169(3) 0.7200(3) 0.4131(2)
C55_2 C 0.4169(3) 0.7200(3) 0.5869(2)
C60_3 C 0.4848(4) 0.7827(5) 0.5000
H31_3 H 0.5155 0.7410 0.5000
H34_3 H 0.5148 0.8249 0.5000
C64_2 C 0.1171(4) 0.5860(4) 0.8519(3)
C65_2 C 0.1171(4) 0.4140(4) 0.6481(3)
C68_2 C 0.4140(4) 0.8829(4) 0.8519(3)
C69_2 C 0.5860(4) 0.8829(4) 0.6481(3)
H38_2 H 0.0738 0.6003 0.8698
H39_2 H 0.0738 0.3997 0.6302
H42_2 H 0.3997 0.9262 0.8698
H43_2 H 0.6003 0.9262 0.6302
C71_2 C 0.1788(3) 0.6105(4) 0.8791(4)
C72_2 C 0.1788(3) 0.3895(4) 0.6209(4)
C75_2 C 0.3895(4) 0.8212(3) 0.8791(4)
C76_2 C 0.6105(4) 0.8212(3) 0.6209(4)
H45_2 H 0.1772 0.6411 0.9144
H46_2 H 0.1772 0.3589 0.5856
H49_2 H 0.3589 0.8228 0.9144
H50_2 H 0.6411 0.8228 0.5856
C78_2 C 0.2403(3) 0.5902(3) 0.8550(3)
C79_2 C 0.2403(3) 0.4098(3) 0.6450(3)
C82_2 C 0.4098(3) 0.7597(3) 0.8550(3)
C83_2 C 0.5902(3) 0.7597(3) 0.6450(3)
H52_2 H 0.2828 0.6064 0.8732
H53_2 H 0.2828 0.3936 0.6268
H56_2 H 0.3936 0.7172 0.8732
H57_2 H 0.6064 0.7172 0.6268
C85_2 C 0.2418(3) 0.5453(3) 0.8029(3)
C86_2 C 0.2418(3) 0.4547(3) 0.6971(3)
C89_2 C 0.4547(3) 0.7582(3) 0.8029(3)
C90_2 C 0.5453(3) 0.7582(3) 0.6971(3)
C92_2 C 0.3073(3) 0.5210(3) 0.7754(3)
C93_2 C 0.3073(3) 0.4790(3) 0.7246(3)
C96_2 C 0.4790(3) 0.6927(3) 0.7754(3)
C97_2 C 0.5210(3) 0.6927(3) 0.7246(3)
H59_2 H 0.3505 0.5350 0.7937
H60_2 H 0.3505 0.4650 0.7063
H63_2 H 0.4650 0.6495 0.7937
H64_2 H 0.5350 0.6495 0.7063
C99_2 C 0.1781(3) 0.5234(3) 0.7765(3)
C100_2 C 0.1781(3) 0.4766(3) 0.7235(3)
C103_2 C 0.4766(3) 0.8219(3) 0.7765(3)
C104_2 C 0.5234(3) 0.8219(3) 0.7235(3)
O5_2 O 0.3428(2) 0.5611(2) 0.43694(19)
O6_2 O 0.4389(2) 0.6572(2) 0.43694(19)
O7_2 O 0.4389(2) 0.6572(2) 0.56306(19)
O12_2 O 0.3090(3) 0.9628(2) 0.6163(2)
O13_2 O 0.3090(3) 0.9628(2) 0.3837(2)
O14_2 O 0.0372(2) 0.6910(3) 0.3837(2)
O19_2 O 0.4106(2) 0.9650(3) 0.68248(19)
O31_2 O 0.3043(3) 0.9125(2) 0.7225(2)
O32_2 O 0.3043(3) 0.9125(2) 0.2775(2)
O33_2 O 0.0875(2) 0.6957(3) 0.2775(2)
H65_2 H 0.46583 0.631636 0.404104
H66_2 H 0.397655 0.628928 0.550334
H67_2 H 0.371072 0.602345 0.449666
H72_2 H 0.368364 0.53417 0.595896
N1_2 N 0.8842(3) 0.4568(2) 0.8017(2)
C9_2 C 0.8829(4) 0.4140(4) 0.8519(3)
H7_2 H 0.9262 0.3997 0.8698
C10_2 C 0.8212(3) 0.3895(4) 0.8791(4)
H8_2 H 0.8228 0.3589 0.9144
C11_2 C 0.7597(3) 0.4098(3) 0.8550(3)
H9_2 H 0.7172 0.3936 0.8732
C12_2 C 0.7582(3) 0.4547(3) 0.8029(3)
C13_2 C 0.6927(3) 0.4790(3) 0.7754(3)
H10_2 H 0.6495 0.4650 0.7937
C14_2 C 0.8219(3) 0.4766(3) 0.7765(3)
S5_2 S 0.92683(8) 0.34597(9) 0.66741(7)
S6_2 S 0.65403(9) 0.07317(8) 0.66741(7)
S7_2 S 0.65403(9) 0.07317(8) 0.33259(7)
S8_2 S 0.92683(8) 0.34597(9) 0.33259(7)
N2_2 N 0.8842(3) 0.5432(2) 0.6983(2)
C16_2 C 0.6525(3) 0.3475(3) 0.6694(3)
C17_2 C 0.6525(3) 0.3475(3) 0.3306(3)
H12_2 H 0.6161 0.3839 0.6644
H13_2 H 0.6161 0.3839 0.3356
H15_2 H 0.6599 0.3401 0.7153
H16_2 H 0.6599 0.3401 0.2847
C21_2 C 0.7198(3) 0.3733(3) 0.6402(2)
C22_2 C 0.6267(3) 0.2802(3) 0.6402(2)
C23_2 C 0.6267(3) 0.2802(3) 0.3598(2)
C24_2 C 0.7198(3) 0.3733(3) 0.3598(2)
C28_2 C 0.7836(3) 0.3516(3) 0.6646(2)
C29_2 C 0.6484(3) 0.2164(3) 0.6646(2)
C30_2 C 0.6484(3) 0.2164(3) 0.3354(2)
C31_2 C 0.7836(3) 0.3516(3) 0.3354(2)
H20_2 H 0.7849 0.3218 0.7006
H21_2 H 0.6782 0.2151 0.7006
H22_2 H 0.7849 0.3218 0.2994
H23_2 H 0.6782 0.2151 0.2994
C35_2 C 0.8460(3) 0.3737(3) 0.6364(3)
C36_2 C 0.6263(3) 0.1540(3) 0.6364(3)
C37_2 C 0.6263(3) 0.1540(3) 0.3636(3)
C38_2 C 0.8460(3) 0.3737(3) 0.3636(3)
C42_2 C 0.8447(3) 0.4180(3) 0.5845(2)
C43_2 C 0.5820(3) 0.1553(3) 0.5845(2)
C44_2 C 0.5820(3) 0.1553(3) 0.4155(2)
C45_2 C 0.8447(3) 0.4180(3) 0.4155(2)
H27_2 H 0.8873 0.4337 0.5664
H28_2 H 0.5663 0.1127 0.5664
H29_2 H 0.8873 0.4337 0.4336
H30_2 H 0.5663 0.1127 0.4336
C49_2 C 0.7823(3) 0.4390(3) 0.5594(2)
C50_2 C 0.5610(3) 0.2177(3) 0.5594(2)
C51_2 C 0.5610(3) 0.2177(3) 0.4406(2)
C52_2 C 0.7823(3) 0.4390(3) 0.4406(2)
C56_2 C 0.7200(3) 0.4169(3) 0.5869(2)
C57_2 C 0.7200(3) 0.4169(3) 0.4131(2)
C58_2 C 0.5831(3) 0.2800(3) 0.4131(2)
C59_2 C 0.5831(3) 0.2800(3) 0.5869(2)
C61_3 C 0.7827(5) 0.4848(4) 0.5000
C62_3 C 0.5152(4) 0.2173(5) 0.5000
H32_3 H 0.7410 0.5155 0.5000
H33_3 H 0.4845 0.2590 0.5000
H35_3 H 0.8249 0.5148 0.5000
H36_3 H 0.4852 0.1751 0.5000
C63_2 C 0.8829(4) 0.5860(4) 0.6481(3)
H37_2 H 0.9262 0.6003 0.6302
C70_2 C 0.8212(3) 0.6105(4) 0.6209(4)
H44_2 H 0.8228 0.6411 0.5856
C77_2 C 0.7597(3) 0.5902(3) 0.6450(3)
H51_2 H 0.7172 0.6064 0.6268
C84_2 C 0.7582(3) 0.5453(3) 0.6971(3)
C91_2 C 0.6927(3) 0.5210(3) 0.7246(3)
H58_2 H 0.6495 0.5350 0.7063
C98_2 C 0.8219(3) 0.5234(3) 0.7235(3)
O8_2 O 0.6572(2) 0.4389(2) 0.56306(19)
O9_2 O 0.6572(2) 0.4389(2) 0.43694(19)
O10_2 O 0.5611(2) 0.3428(2) 0.43694(19)
O11_2 O 0.5611(2) 0.3428(2) 0.56306(19)
O15_2 O 0.9628(2) 0.3090(3) 0.6163(2)
O16_2 O 0.6910(3) 0.0372(2) 0.6163(2)
O17_2 O 0.6910(3) 0.0372(2) 0.3837(2)
O18_2 O 0.9628(2) 0.3090(3) 0.3837(2)
O22_2 O 0.9650(3) 0.4106(2) 0.68248(19)
O34_2 O 0.9125(2) 0.3043(3) 0.7225(2)
O35_2 O 0.6957(3) 0.0875(2) 0.7225(2)
O36_2 O 0.6957(3) 0.0875(2) 0.2775(2)
O37_2 O 0.9125(2) 0.3043(3) 0.2775(2)
H68_2 H 0.631636 0.46583 0.595896
H69_2 H 0.53417 0.368364 0.404104
H70_2 H 0.628928 0.397655 0.449666
H71_2 H 0.602345 0.371072 0.550334
H65_3 H 0.368364 0.46583 0.0958964
H67_3 H 0.397655 0.371072 0.0503343
H66_3 H 0.371072 0.397655 0.949666
H72_3 H 0.46583 0.368364 0.904104
H69_3 H 0.631636 0.53417 0.0958964
H70_3 H 0.602345 0.628928 0.0503343
H68_3 H 0.53417 0.631636 0.904104
H71_3 H 0.628928 0.602345 0.949666
H68_4 H 0.368364 0.53417 0.404104
H69_4 H 0.46583 0.631636 0.595896
H70_4 H 0.371072 0.602345 0.550334
H71_4 H 0.397655 0.628928 0.449666
H65_4 H 0.53417 0.368364 0.595896
H66_4 H 0.602345 0.371072 0.449666
H67_4 H 0.628928 0.397655 0.550334
H72_4 H 0.631636 0.46583 0.404104
loop_
_geom_bond_atom_site_label_1
_geom_bond_atom_site_label_2
_geom_bond_site_symmetry_1
_geom_bond_site_symmetry_2
Eu2 N5 1_555 1_555
N5 C66 1_555 1_555
N6 Eu2 1_555 1_555
C66 H40 1_555 1_555
C67 N6 1_555 1_555
H41 C67 1_555 1_555
C73 C66 1_555 1_555
C74 C67 1_555 1_555
H47 C73 1_555 1_555
H48 C74 1_555 1_555
C80 C73 1_555 1_555
C81 C74 1_555 1_555
H54 C80 1_555 1_555
H55 C81 1_555 1_555
C87 C80 1_555 1_555
C88 C81 1_555 1_555
C94 C87 1_555 1_555
C95 C88 1_555 1_555
H61 C94 1_555 1_555
H62 C95 1_555 1_555
C101 N5 1_555 1_555
C102 N6 1_555 1_555
O28 Eu2 1_555 1_555
O30 Eu2 1_555 1_555
C87 C101 1_555 1_555
C88 C102 1_555 1_555
C94 C95 1_555 1_555
C101 C102 1_555 1_555
Eu1 N1 1_555 1_555
N1 C9 1_555 1_555
C9 H7 1_555 1_555
C10 C9 1_555 1_555
H8 C10 1_555 1_555
C11 C10 1_555 1_555
H9 C11 1_555 1_555
C12 C11 1_555 1_555
C13 C12 1_555 1_555
H10 C13 1_555 1_555
C14 N1 1_555 1_555
S5 C35 1_555 1_555
S6 C36 1_555 1_555
N2 Eu1 1_555 1_555
C16 H12 1_555 1_555
H15 C16 1_555 1_555
C21 C16 1_555 1_555
C22 C16 1_555 1_555
C28 C21 1_555 1_555
C29 C22 1_555 1_555
H20 C28 1_555 1_555
H21 C29 1_555 1_555
C35 C28 1_555 1_555
C36 C29 1_555 1_555
C42 C35 1_555 1_555
C43 C36 1_555 1_555
H27 C42 1_555 1_555
H28 C43 1_555 1_555
C49 C42 1_555 1_555
C50 C43 1_555 1_555
C56 C21 1_555 1_555
C59 C22 1_555 1_555
C61 C49 1_555 1_555
C62 C50 1_555 1_555
H32 C61 1_555 1_555
H33 C62 1_555 1_555
H35 C61 1_555 1_555
H36 C62 1_555 1_555
C63 N2 1_555 1_555
H37 C63 1_555 1_555
C70 C63 1_555 1_555
H44 C70 1_555 1_555
C77 C70 1_555 1_555
H51 C77 1_555 1_555
C84 C77 1_555 1_555
C91 C13 1_555 1_555
H58 C91 1_555 1_555
C98 C14 1_555 1_555
O8 C56 1_555 1_555
O11 C59 1_555 1_555
O15 S5 1_555 1_555
O16 S6 1_555 1_555
O22 Eu1 1_555 1_555
O28 S6 1_555 1_555
O27 Eu1 1_555 1_555
O34 S5 1_555 1_555
O35 S6 1_555 1_555
C12 C14 1_555 1_555
S5 O22 1_555 1_555
N2 C98 1_555 1_555
C49 C56 1_555 1_555
C50 C59 1_555 1_555
C84 C91 1_555 1_555
C84 C98 1_555 1_555
O8 H68 1_555 1_555
O11 H71 1_555 1_555
Eu3 O24 1_555 1_555
S7 C37 1_555 1_555
S8 C38 1_555 1_555
C17 H13 1_555 1_555
H16 C17 1_555 1_555
C23 C17 1_555 1_555
C24 C17 1_555 1_555
C30 C23 1_555 1_555
C31 C24 1_555 1_555
H22 C31 1_555 1_555
H23 C30 1_555 1_555
C37 C30 1_555 1_555
C38 C31 1_555 1_555
C44 C37 1_555 1_555
C45 C38 1_555 1_555
H29 C45 1_555 1_555
H30 C44 1_555 1_555
C51 C44 1_555 1_555
C52 C45 1_555 1_555
C57 C24 1_555 1_555
C58 C23 1_555 1_555
H32_2 C61_2 1_555 1_555
H33_2 C62_2 1_555 1_555
H35_2 C61_2 1_555 1_555
H36_2 C62_2 1_555 1_555
O9 C57 1_555 1_555
O10 C58 1_555 1_555
O17 S7 1_555 1_555
O18 S8 1_555 1_555
O24 S7 1_555 1_555
O25 Eu4 1_555 1_555
O36 S7 1_555 1_555
O37 S8 1_555 1_555
S8 O25 1_555 1_555
C51 C58 1_555 1_555
C51 C62_2 1_555 1_555
C52 C57 1_555 1_555
C52 C61_2 1_555 1_555
O10 H69 1_555 1_555
O9 H70 1_555 1_555
S1 C4 1_555 1_555
C1 H1 1_555 1_555
H2 C1 1_555 1_555
C2 C1 1_555 1_555
C3 C2 1_555 1_555
H3 C3 1_555 1_555
C4 C3 1_555 1_555
C5 C4 1_555 1_555
H4 C5 1_555 1_555
C6 C5 1_555 1_555
C7 C2 1_555 1_555
C8 C6 1_555 1_555
H5 C8 1_555 1_555
H6 C8 1_555 1_555
O1 C7 1_555 1_555
O2 S1 1_555 1_555
O3 Eu1_2 1_555 1_555
O4 S1 1_555 1_555
S2 C32 1_555 1_555
N3 Eu1_2 1_555 1_555
N4 Eu1_2 1_555 1_555
N7 Eu2_2 1_555 1_555
N8 Eu2_2 1_555 1_555
C18 C1 1_555 1_555
C25 C18 1_555 1_555
H17 C25 1_555 1_555
C32 C25 1_555 1_555
C39 C32 1_555 1_555
H24 C39 1_555 1_555
C46 C39 1_555 1_555
C55 C18 1_555 1_555
C60 C46 1_555 1_555
H31 C60 1_555 1_555
H34 C60 1_555 1_555
C64 N3 1_555 1_555
C65 N4 1_555 1_555
C68 N7 1_555 1_555
C69 N8 1_555 1_555
H38 C64 1_555 1_555
H39 C65 1_555 1_555
H42 C68 1_555 1_555
H43 C69 1_555 1_555
C71 C64 1_555 1_555
C72 C65 1_555 1_555
C75 C68 1_555 1_555
C76 C69 1_555 1_555
H45 C71 1_555 1_555
H46 C72 1_555 1_555
H49 C75 1_555 1_555
H50 C76 1_555 1_555
C78 C71 1_555 1_555
C79 C72 1_555 1_555
C82 C75 1_555 1_555
C83 C76 1_555 1_555
H52 C78 1_555 1_555
H53 C79 1_555 1_555
H56 C82 1_555 1_555
H57 C83 1_555 1_555
C85 C78 1_555 1_555
C86 C79 1_555 1_555
C89 C82 1_555 1_555
C90 C83 1_555 1_555
C92 C85 1_555 1_555
C93 C86 1_555 1_555
C96 C89 1_555 1_555
C97 C90 1_555 1_555
H59 C92 1_555 1_555
H60 C93 1_555 1_555
H63 C96 1_555 1_555
H64 C97 1_555 1_555
C99 N3 1_555 1_555
C100 N4 1_555 1_555
C103 N7 1_555 1_555
C104 N8 1_555 1_555
O7 C55 1_555 1_555
O12 S2 1_555 1_555
O19 Eu2_2 1_555 1_555
O26 Eu1_2 1_555 1_555
O29 Eu2_2 1_555 1_555
O31 S2 1_555 1_555
S1 O3 1_555 1_555
C6 C7 1_555 1_555
S2 O19 1_555 1_555
C46 C55 1_555 1_555
C85 C99 1_555 1_555
C86 C100 1_555 1_555
C89 C103 1_555 1_555
C90 C104 1_555 1_555
C92 C93 1_555 1_555
C96 C97 1_555 1_555
C99 C100 1_555 1_555
C103 C104 1_555 1_555
O7 H66 1_555 1_555
O1 H72 1_555 1_555
H5_2 C8_2 1_555 1_555
H6_2 C8_2 1_555 1_555
Eu3_2 O20 1_555 1_555
Eu4_2 O21 1_555 1_555
S3 C33 1_555 1_555
S4 C34 1_555 1_555
C15 H11 1_555 1_555
H14 C15 1_555 1_555
C19 C15 1_555 1_555
C20 C15 1_555 1_555
C26 C19 1_555 1_555
C27 C20 1_555 1_555
H18 C27 1_555 1_555
H19 C26 1_555 1_555
C33 C26 1_555 1_555
C34 C27 1_555 1_555
C40 C33 1_555 1_555
C41 C34 1_555 1_555
H25 C41 1_555 1_555
H26 C40 1_555 1_555
C47 C40 1_555 1_555
C48 C8_2 1_555 1_555
C53 C20 1_555 1_555
C54 C19 1_555 1_555
H31_2 C60_2 1_555 1_555
H34_2 C60_2 1_555 1_555
O5 C53 1_555 1_555
O6 C54 1_555 1_555
O13 S3 1_555 1_555
O14 S4 1_555 1_555
O20 S3 1_555 1_555
O21 S4 1_555 1_555
O32 S3 1_555 1_555
O33 S4 1_555 1_555
C41 C48 1_555 1_555
C47 C54 1_555 1_555
C47 C60_2 1_555 1_555
C48 C53 1_555 1_555
O6 H65 1_555 1_555
O5 H67 1_555 1_555
Eu4 N5_2 1_555 1_555
N5_2 C66_2 1_555 1_555
N6_2 Eu4 1_555 1_555
C66_2 H40_2 1_555 1_555
C67_2 N6_2 1_555 1_555
H41_2 C67_2 1_555 1_555
C73_2 C66_2 1_555 1_555
C74_2 C67_2 1_555 1_555
H47_2 C73_2 1_555 1_555
H48_2 C74_2 1_555 1_555
C80_2 C73_2 1_555 1_555
C81_2 C74_2 1_555 1_555
H54_2 C80_2 1_555 1_555
H55_2 C81_2 1_555 1_555
C87_2 C80_2 1_555 1_555
C88_2 C81_2 1_555 1_555
C94_2 C87_2 1_555 1_555
C95_2 C88_2 1_555 1_555
H61_2 C94_2 1_555 1_555
H62_2 C95_2 1_555 1_555
C101_2 N5_2 1_555 1_555
C102_2 N6_2 1_555 1_555
O28_2 Eu4 1_555 1_555
C87_2 C101_2 1_555 1_555
C88_2 C102_2 1_555 1_555
C94_2 C95_2 1_555 1_555
C101_2 C102_2 1_555 1_555
S1_2 C4_2 1_555 1_555
C1_2 H1_2 1_555 1_555
H2_2 C1_2 1_555 1_555
C2_2 C1_2 1_555 1_555
C3_2 C2_2 1_555 1_555
H3_2 C3_2 1_555 1_555
C4_2 C3_2 1_555 1_555
C5_2 C4_2 1_555 1_555
H4_2 C5_2 1_555 1_555
C6_2 C5_2 1_555 1_555
C7_2 C2_2 1_555 1_555
C8_3 C6_2 1_555 1_555
H5_3 C8_3 1_555 1_555
H6_3 C8_3 1_555 1_555
O1_2 C7_2 1_555 1_555
O2_2 S1_2 1_555 1_555
O3_2 Eu3 1_555 1_555
O4_2 S1_2 1_555 1_555
S2_2 C32_2 1_555 1_555
S3_2 C33_2 1_555 1_555
S4_2 C34_2 1_555 1_555
N3_2 Eu3 1_555 1_555
N4_2 Eu3 1_555 1_555
N7_2 Eu4_2 1_555 1_555
N8_2 Eu4_2 1_555 1_555
C15_2 H11_2 1_555 1_555
H14_2 C15_2 1_555 1_555
C18_2 C1_2 1_555 1_555
C19_2 C15_2 1_555 1_555
C20_2 C15_2 1_555 1_555
C25_2 C18_2 1_555 1_555
C26_2 C19_2 1_555 1_555
C27_2 C20_2 1_555 1_555
H17_2 C25_2 1_555 1_555
H18_2 C27_2 1_555 1_555
H19_2 C26_2 1_555 1_555
C32_2 C25_2 1_555 1_555
C33_2 C26_2 1_555 1_555
C34_2 C27_2 1_555 1_555
C39_2 C32_2 1_555 1_555
C40_2 C33_2 1_555 1_555
C41_2 C34_2 1_555 1_555
H24_2 C39_2 1_555 1_555
H25_2 C41_2 1_555 1_555
H26_2 C40_2 1_555 1_555
C46_2 C39_2 1_555 1_555
C47_2 C40_2 1_555 1_555
C48_2 C8_3 1_555 1_555
C53_2 C20_2 1_555 1_555
C54_2 C19_2 1_555 1_555
C55_2 C18_2 1_555 1_555
C60_3 C46_2 1_555 1_555
H31_3 C60_3 1_555 1_555
H34_3 C60_3 1_555 1_555
C64_2 N3_2 1_555 1_555
C65_2 N4_2 1_555 1_555
C68_2 N7_2 1_555 1_555
C69_2 N8_2 1_555 1_555
H38_2 C64_2 1_555 1_555
H39_2 C65_2 1_555 1_555
H42_2 C68_2 1_555 1_555
H43_2 C69_2 1_555 1_555
C71_2 C64_2 1_555 1_555
C72_2 C65_2 1_555 1_555
C75_2 C68_2 1_555 1_555
C76_2 C69_2 1_555 1_555
H45_2 C71_2 1_555 1_555
H46_2 C72_2 1_555 1_555
H49_2 C75_2 1_555 1_555
H50_2 C76_2 1_555 1_555
C78_2 C71_2 1_555 1_555
C79_2 C72_2 1_555 1_555
C82_2 C75_2 1_555 1_555
C83_2 C76_2 1_555 1_555
H52_2 C78_2 1_555 1_555
H53_2 C79_2 1_555 1_555
H56_2 C82_2 1_555 1_555
H57_2 C83_2 1_555 1_555
C85_2 C78_2 1_555 1_555
C86_2 C79_2 1_555 1_555
C89_2 C82_2 1_555 1_555
C90_2 C83_2 1_555 1_555
C92_2 C85_2 1_555 1_555
C93_2 C86_2 1_555 1_555
C96_2 C89_2 1_555 1_555
C97_2 C90_2 1_555 1_555
H59_2 C92_2 1_555 1_555
H60_2 C93_2 1_555 1_555
H63_2 C96_2 1_555 1_555
H64_2 C97_2 1_555 1_555
C99_2 N3_2 1_555 1_555
C100_2 N4_2 1_555 1_555
C103_2 N7_2 1_555 1_555
C104_2 N8_2 1_555 1_555
O5_2 C53_2 1_555 1_555
O6_2 C54_2 1_555 1_555
O7_2 C55_2 1_555 1_555
O12_2 S2_2 1_555 1_555
O13_2 S3_2 1_555 1_555
O14_2 S4_2 1_555 1_555
O19_2 Eu4_2 1_555 1_555
O26 S3_2 1_555 1_555
O30 S4_2 1_555 1_555
O31_2 S2_2 1_555 1_555
O32_2 S3_2 1_555 1_555
O33_2 S4_2 1_555 1_555
S1_2 O3_2 1_555 1_555
C6_2 C7_2 1_555 1_555
S2_2 O19_2 1_555 1_555
C41_2 C48_2 1_555 1_555
C46_2 C55_2 1_555 1_555
C47_2 C54_2 1_555 1_555
C47_2 C60_3 1_555 1_555
C48_2 C53_2 1_555 1_555
C85_2 C99_2 1_555 1_555
C86_2 C100_2 1_555 1_555
C89_2 C103_2 1_555 1_555
C90_2 C104_2 1_555 1_555
C92_2 C93_2 1_555 1_555
C96_2 C97_2 1_555 1_555
C99_2 C100_2 1_555 1_555
C103_2 C104_2 1_555 1_555
O6_2 H65_2 1_555 1_555
O7_2 H66_2 1_555 1_555
O5_2 H67_2 1_555 1_555
O1_2 H72_2 1_555 1_555
Eu3_2 N1_2 1_555 1_555
N1_2 C9_2 1_555 1_555
C9_2 H7_2 1_555 1_555
C10_2 C9_2 1_555 1_555
H8_2 C10_2 1_555 1_555
C11_2 C10_2 1_555 1_555
H9_2 C11_2 1_555 1_555
C12_2 C11_2 1_555 1_555
C13_2 C12_2 1_555 1_555
H10_2 C13_2 1_555 1_555
C14_2 N1_2 1_555 1_555
S5_2 C35_2 1_555 1_555
S6_2 C36_2 1_555 1_555
S7_2 C37_2 1_555 1_555
S8_2 C38_2 1_555 1_555
N2_2 Eu3_2 1_555 1_555
C16_2 H12_2 1_555 1_555
C17_2 H13_2 1_555 1_555
H15_2 C16_2 1_555 1_555
H16_2 C17_2 1_555 1_555
C21_2 C16_2 1_555 1_555
C22_2 C16_2 1_555 1_555
C23_2 C17_2 1_555 1_555
C24_2 C17_2 1_555 1_555
C28_2 C21_2 1_555 1_555
C29_2 C22_2 1_555 1_555
C30_2 C23_2 1_555 1_555
C31_2 C24_2 1_555 1_555
H20_2 C28_2 1_555 1_555
H21_2 C29_2 1_555 1_555
H22_2 C31_2 1_555 1_555
H23_2 C30_2 1_555 1_555
C35_2 C28_2 1_555 1_555
C36_2 C29_2 1_555 1_555
C37_2 C30_2 1_555 1_555
C38_2 C31_2 1_555 1_555
C42_2 C35_2 1_555 1_555
C43_2 C36_2 1_555 1_555
C44_2 C37_2 1_555 1_555
C45_2 C38_2 1_555 1_555
H27_2 C42_2 1_555 1_555
H28_2 C43_2 1_555 1_555
H29_2 C45_2 1_555 1_555
H30_2 C44_2 1_555 1_555
C49_2 C42_2 1_555 1_555
C50_2 C43_2 1_555 1_555
C51_2 C44_2 1_555 1_555
C52_2 C45_2 1_555 1_555
C56_2 C21_2 1_555 1_555
C57_2 C24_2 1_555 1_555
C58_2 C23_2 1_555 1_555
C59_2 C22_2 1_555 1_555
C61_3 C49_2 1_555 1_555
C62_3 C50_2 1_555 1_555
H32_3 C61_3 1_555 1_555
H33_3 C62_3 1_555 1_555
H35_3 C61_3 1_555 1_555
H36_3 C62_3 1_555 1_555
C63_2 N2_2 1_555 1_555
H37_2 C63_2 1_555 1_555
C70_2 C63_2 1_555 1_555
H44_2 C70_2 1_555 1_555
C77_2 C70_2 1_555 1_555
H51_2 C77_2 1_555 1_555
C84_2 C77_2 1_555 1_555
C91_2 C13_2 1_555 1_555
H58_2 C91_2 1_555 1_555
C98_2 C14_2 1_555 1_555
O8_2 C56_2 1_555 1_555
O9_2 C57_2 1_555 1_555
O10_2 C58_2 1_555 1_555
O11_2 C59_2 1_555 1_555
O15_2 S5_2 1_555 1_555
O16_2 S6_2 1_555 1_555
O17_2 S7_2 1_555 1_555
O18_2 S8_2 1_555 1_555
O22_2 Eu3_2 1_555 1_555
O28_2 S6_2 1_555 1_555
O27 S7_2 1_555 1_555
O34_2 S5_2 1_555 1_555
O35_2 S6_2 1_555 1_555
O36_2 S7_2 1_555 1_555
O37_2 S8_2 1_555 1_555
C12_2 C14_2 1_555 1_555
S5_2 O22_2 1_555 1_555
S8_2 O29 1_555 1_555
N2_2 C98_2 1_555 1_555
C49_2 C56_2 1_555 1_555
C50_2 C59_2 1_555 1_555
C51_2 C58_2 1_555 1_555
C51_2 C62_3 1_555 1_555
C52_2 C57_2 1_555 1_555
C52_2 C61_3 1_555 1_555
C84_2 C91_2 1_555 1_555
C84_2 C98_2 1_555 1_555
O8_2 H68_2 1_555 1_555
O10_2 H69_2 1_555 1_555
O9_2 H70_2 1_555 1_555
O11_2 H71_2 1_555 1_555
O11 H65_3 1_555 1_555
O8 H67_3 1_555 1_555
O10 H66_3 1_555 1_555
O9 H72_3 1_555 1_555
O7 H69_3 1_555 1_555
O1 H70_3 1_555 1_555
O5 H68_3 1_555 1_555
O6 H71_3 1_555 1_555
O5_2 H68_4 1_555 1_555
O7_2 H69_4 1_555 1_555
O1_2 H70_4 1_555 1_555
O6_2 H71_4 1_555 1_555
O11_2 H65_4 1_555 1_555
O10_2 H66_4 1_555 1_555
O8_2 H67_4 1_555 1_555
O9_2 H72_4 1_555 1_555

#END
