
###############################################################################
#
# This file contains modified crystal structure data generated from the
# MOF subset of the Cambridge Structural Database (CSD) v543 
# hosted by the Cambridge Crystallographic Data Centre (CCDC).
#
# This work is licensed under the Creative Commons
# Attribution-NonCommercial-ShareAlike 4.0 International License.
# To view a copy of this license, visit
# http://creativecommons.org/licenses/by-nc-sa/4.0/
# or send a letter to
# Creative Commons, PO Box 1866, Mountain View, CA 94042, USA.
#
# CIF created using the CSD Python API on 29 September 2022
# The structure has been converted into the P1 space group
# The structure has a 3D framework
# The original CSD entry OGOWAJ is in the monoclinic crystal system
# The framework has been calculated to contain at least 10.0% void space
# The void calculation uses a probe of radius 1.32A, grid spacing 0.4
#
###############################################################################

data_OGOWAJ
_chemical_formula_moiety         '(C352 H256 N16 O60 Zn16)n'
_symmetry_cell_setting           triclinic
_symmetry_space_group_name_H-M   'P 1'
_symmetry_Int_Tables_number      1
_space_group_name_Hall           'P 1'
loop_
_symmetry_equiv_pos_site_id
_symmetry_equiv_pos_as_xyz
1 x,y,z
_cell_length_a                   33.894(5)
_cell_length_b                   21.734(5)
_cell_length_c                   20.420(5)
_cell_angle_alpha                90
_cell_angle_beta                 124.565(5)
_cell_angle_gamma                90
_cell_volume                     12387.2
loop_
_atom_site_label
_atom_site_type_symbol
_atom_site_fract_x
_atom_site_fract_y
_atom_site_fract_z
C18 C 0.3403(2) 0.5913(3) 0.2749(4)
H13 H 0.3087 0.6000 0.2564
C19 C 0.3780(3) 0.6228(3) 0.3411(4)
C20 C 0.4246(3) 0.6086(4) 0.3694(5)
H14 H 0.4494 0.6298 0.4132
C21 C 0.4353(3) 0.5647(5) 0.3352(6)
H15 H 0.4671 0.5557 0.3555
C22 C 0.4364(3) 0.4510(5) 0.2298(5)
H16 H 0.4678 0.4610 0.2702
C23 C 0.4275(3) 0.4047(4) 0.1779(5)
H17 H 0.4528 0.3830 0.1834
C24 C 0.3803(2) 0.3896(3) 0.1163(4)
C25 C 0.3425(2) 0.4231(3) 0.1088(4)
H18 H 0.3110 0.4140 0.0679
C26 C 0.3164(2) 0.5087(4) 0.1654(4)
C27 C 0.3502(2) 0.5481(4) 0.2381(4)
C28 C 0.3984(3) 0.5329(4) 0.2691(5)
C29 C 0.3990(2) 0.4831(4) 0.2226(5)
C30 C 0.3518(2) 0.4688(3) 0.1615(4)
C31 C 0.2841(3) 0.4699(5) 0.1796(7)
H19 H 0.2622 0.4964 0.1817
H20 H 0.2664 0.4410 0.1369
H21 H 0.3035 0.4481 0.2290
C32 C 0.2870(4) 0.5476(5) 0.0909(5)
H22 H 0.2649 0.5723 0.0945
H23 H 0.3080 0.5738 0.0859
H24 H 0.2697 0.5212 0.0453
C33 C 0.3672(3) 0.6704(3) 0.3826(4)
C34 C 0.3707(2) 0.3381(3) 0.0606(4)
C35 C 0.7083(2) 0.2640(4) 0.3594(5)
H25 H 0.7232 0.2881 0.4051
C36 C 0.6590(3) 0.2644(4) 0.3097(5)
H26 H 0.6415 0.2890 0.3217
C37 C 0.6361(2) 0.2289(3) 0.2435(4)
C38 C 0.6643(2) 0.1942(5) 0.2301(5)
H27 H 0.6502 0.1684 0.1861
C39 C 0.7133(2) 0.1971(4) 0.2811(4)
H28 H 0.7316 0.1738 0.2695
C40 C 0.5834(3) 0.2280(3) 0.1907(4)
C41 C 0.5554(4) 0.2352(4) 0.2177(6)
H29 H 0.5694 0.2400 0.2719
C42 C 0.5061(4) 0.2354(4) 0.1653(6)
H30 H 0.4879 0.2408 0.1858
C43 C 0.5100(3) 0.2164(4) 0.0627(6)
H31 H 0.4947 0.2061 0.0093
C44 C 0.5599(4) 0.2180(5) 0.1103(6)
H32 H 0.5772 0.2123 0.0880
N1 N 0.73544(17) 0.2312(2) 0.3453(3)
N2 N 0.48378(19) 0.2285(2) 0.0890(3)
O5 O 0.32493(17) 0.6792(2) 0.3589(3)
O6 O 0.40275(17) 0.6989(2) 0.4381(3)
O7 O 0.32876(16) 0.3315(2) 0.0010(3)
O8 O 0.40571(17) 0.3047(2) 0.0793(3)
Zn1 Zn 0.41102(2) 0.23565(3) 0.01605(4)
O10 O 0.39018(17) 0.1774(2) 0.0692(3)
Zn4 Zn 0.41102(2) 0.76435(3) 0.51605(4)
Zn5 Zn 0.80824(2) 0.23572(3) 0.41856(4)
Zn7 Zn 0.30824(2) 0.73572(3) 0.41856(4)
C1 C 0.3806(2) 0.0816(4) 0.8231(4)
H1 H 0.4122 0.0938 0.8592
C2 C 0.3429(2) 0.1108(3) 0.8219(4)
C3 C 0.2965(3) 0.0910(4) 0.7699(5)
H2 H 0.2720 0.1104 0.7700
C4 C 0.2855(3) 0.0437(4) 0.7185(5)
H3 H 0.2540 0.0303 0.6847
C10 C 0.3697(2) 0.0349(4) 0.7702(5)
C11 C 0.3219(3) 0.0154(3) 0.7169(4)
C14 C 0.4301(4) 0.0380(5) 0.7359(8)
H7 H 0.4512 0.0131 0.7297
H8 H 0.4485 0.0685 0.7762
H9 H 0.4073 0.0580 0.6864
C16 C 0.3534(3) 0.1620(3) 0.8783(4)
O1 O 0.39679(18) 0.1711(2) 0.9343(3)
O2 O 0.31879(17) 0.1915(2) 0.8673(3)
Zn2 Zn 0.30824(2) 0.26428(3) 0.91856(4)
N3 N 0.23544(17) 0.2688(2) 0.8453(3)
O9 O 0.31319(16) 0.2035(2) 0.9988(3)
O11 O 0.32493(17) 0.3208(2) 0.8589(3)
O12 O 0.40275(17) 0.3011(2) 0.9381(3)
C5 C 0.2831(2) 0.9313(3) 0.6085(4)
H4 H 0.2520 0.9379 0.5939
C6 C 0.2931(2) 0.8862(3) 0.5716(4)
H5 H 0.2681 0.8624 0.5317
C7 C 0.3393(2) 0.8758(3) 0.5928(4)
C8 C 0.3771(2) 0.9102(3) 0.6539(4)
H6 H 0.4083 0.9029 0.6694
C9 C 0.4037(3) 0.9972(4) 0.7603(6)
C12 C 0.3208(2) 0.9661(3) 0.6674(4)
C13 C 0.3681(2) 0.9544(4) 0.6908(4)
C15 C 0.4380(3) 0.9590(5) 0.8355(6)
H10 H 0.4591 0.9356 0.8279
H11 H 0.4197 0.9316 0.8454
H12 H 0.4565 0.9861 0.8802
C17 C 0.3484(2) 0.8278(3) 0.5506(4)
O3 O 0.31319(16) 0.7965(2) 0.4988(3)
O4 O 0.39018(17) 0.8226(2) 0.5692(3)
C35_2 C 0.2083(2) 0.7640(4) 0.3594(5)
H25_2 H 0.2232 0.7881 0.4051
C36_2 C 0.1590(3) 0.7644(4) 0.3097(5)
H26_2 H 0.1415 0.7890 0.3217
C37_2 C 0.1361(2) 0.7289(3) 0.2435(4)
C38_2 C 0.1643(2) 0.6942(5) 0.2301(5)
H27_2 H 0.1502 0.6684 0.1861
C39_2 C 0.2133(2) 0.6971(4) 0.2811(4)
H28_2 H 0.2316 0.6738 0.2695
C40_2 C 0.0834(3) 0.7280(3) 0.1907(4)
C41_2 C 0.0554(4) 0.7352(4) 0.2177(6)
H29_2 H 0.0694 0.7400 0.2719
C42_2 C 0.0061(4) 0.7354(4) 0.1653(6)
C43_2 C 0.0100(3) 0.7164(4) 0.0627(6)
C44_2 C 0.0599(4) 0.7180(5) 0.1103(6)
H32_2 H 0.0772 0.7123 0.0880
N1_2 N 0.23544(17) 0.7312(2) 0.3453(3)
C18_2 C 0.8403(2) 0.0913(3) 0.2749(4)
H13_2 H 0.8087 0.1000 0.2564
C19_2 C 0.8780(3) 0.1228(3) 0.3411(4)
C20_2 C 0.9246(3) 0.1086(4) 0.3694(5)
H14_2 H 0.9494 0.1298 0.4132
C21_2 C 0.9353(3) 0.0647(5) 0.3352(6)
H15_2 H 0.9671 0.0557 0.3555
C26_2 C 0.8164(2) 0.0087(4) 0.1654(4)
C27_2 C 0.8502(2) 0.0481(4) 0.2381(4)
C28_2 C 0.8984(3) 0.0329(4) 0.2691(5)
C32_2 C 0.7870(4) 0.0476(5) 0.0909(5)
H22_2 H 0.7649 0.0723 0.0945
H23_2 H 0.8080 0.0738 0.0859
H24_2 H 0.7697 0.0212 0.0453
C33_2 C 0.8672(3) 0.1704(3) 0.3826(4)
O5_2 O 0.82493(17) 0.1792(2) 0.3589(3)
O6_2 O 0.90275(17) 0.1989(2) 0.4381(3)
Zn4_2 Zn 0.91102(2) 0.26435(3) 0.51605(4)
C22_2 C 0.9364(3) 0.9510(5) 0.2298(5)
H16_2 H 0.9678 0.9610 0.2702
C23_2 C 0.9275(3) 0.9047(4) 0.1779(5)
H17_2 H 0.9528 0.8830 0.1834
C24_2 C 0.8803(2) 0.8896(3) 0.1163(4)
C25_2 C 0.8425(2) 0.9231(3) 0.1088(4)
H18_2 H 0.8110 0.9140 0.0679
C29_2 C 0.8990(2) 0.9831(4) 0.2226(5)
C30_2 C 0.8518(2) 0.9688(3) 0.1615(4)
C31_2 C 0.7841(3) 0.9699(5) 0.1796(7)
H19_2 H 0.7622 0.9964 0.1817
H20_2 H 0.7664 0.9410 0.1369
H21_2 H 0.8035 0.9481 0.2290
C34_2 C 0.8707(2) 0.8381(3) 0.0606(4)
H30_2 H 0.9879 0.7408 0.1858
H31_2 H 0.9947 0.7061 0.0093
N2_2 N 0.98378(19) 0.7285(2) 0.0890(3)
O7_2 O 0.82876(16) 0.8315(2) 0.0010(3)
O8_2 O 0.90571(17) 0.8047(2) 0.0793(3)
Zn1_2 Zn 0.91102(2) 0.73565(3) 0.01605(4)
O10_2 O 0.89018(17) 0.6774(2) 0.0692(3)
C1_2 C 0.8806(2) 0.5816(4) 0.8231(4)
H1_2 H 0.9122 0.5938 0.8592
C2_2 C 0.8429(2) 0.6108(3) 0.8219(4)
C3_2 C 0.7965(3) 0.5910(4) 0.7699(5)
H2_2 H 0.7720 0.6104 0.7700
C4_2 C 0.7855(3) 0.5437(4) 0.7185(5)
H3_2 H 0.7540 0.5303 0.6847
C5_2 C 0.7831(2) 0.4313(3) 0.6085(4)
H4_2 H 0.7520 0.4379 0.5939
C6_2 C 0.7931(2) 0.3862(3) 0.5716(4)
H5_2 H 0.7681 0.3624 0.5317
C7_2 C 0.8393(2) 0.3758(3) 0.5928(4)
C8_2 C 0.8771(2) 0.4102(3) 0.6539(4)
H6_2 H 0.9083 0.4029 0.6694
C9_2 C 0.9037(3) 0.4972(4) 0.7603(6)
C10_2 C 0.8697(2) 0.5349(4) 0.7702(5)
C11_2 C 0.8219(3) 0.5154(3) 0.7169(4)
C12_2 C 0.8208(2) 0.4661(3) 0.6674(4)
C13_2 C 0.8681(2) 0.4544(4) 0.6908(4)
C14_2 C 0.9301(4) 0.5380(5) 0.7359(8)
H7_2 H 0.9512 0.5131 0.7297
H8_2 H 0.9485 0.5685 0.7762
H9_2 H 0.9073 0.5580 0.6864
C15_2 C 0.9380(3) 0.4590(5) 0.8355(6)
H10_2 H 0.9591 0.4356 0.8279
H11_2 H 0.9197 0.4316 0.8454
H12_2 H 0.9565 0.4861 0.8802
C16_2 C 0.8534(3) 0.6620(3) 0.8783(4)
C17_2 C 0.8484(2) 0.3278(3) 0.5506(4)
O1_2 O 0.89679(18) 0.6711(2) 0.9343(3)
O2_2 O 0.81879(17) 0.6915(2) 0.8673(3)
O3_2 O 0.81319(16) 0.2965(2) 0.4988(3)
O4_2 O 0.89018(17) 0.3226(2) 0.5692(3)
Zn2_2 Zn 0.80824(2) 0.76428(3) 0.91856(4)
N3_2 N 0.73544(17) 0.7688(2) 0.8453(3)
O9_2 O 0.81319(16) 0.7035(2) 0.9988(3)
O11_2 O 0.82493(17) 0.8208(2) 0.8589(3)
O12_2 O 0.90275(17) 0.8011(2) 0.9381(3)
C5_3 C 0.2831(2) 0.0687(3) 0.1085(4)
H4_3 H 0.2520 0.0621 0.0939
C6_3 C 0.2931(2) 0.1138(3) 0.0716(4)
H5_3 H 0.2681 0.1376 0.0317
C7_3 C 0.3393(2) 0.1242(3) 0.0928(4)
C8_3 C 0.3771(2) 0.0898(3) 0.1539(4)
H6_3 H 0.4083 0.0971 0.1694
C9_3 C 0.4037(3) 0.0028(4) 0.2603(6)
C12_3 C 0.3208(2) 0.0339(3) 0.1674(4)
C13_3 C 0.3681(2) 0.0456(4) 0.1908(4)
C15_3 C 0.4380(3) 0.0410(5) 0.3355(6)
H10_3 H 0.4591 0.0644 0.3279
H11_3 H 0.4197 0.0684 0.3454
H12_3 H 0.4565 0.0139 0.3802
C17_3 C 0.3484(2) 0.1722(3) 0.0506(4)
C1_3 C 0.3806(2) 0.9184(4) 0.3231(4)
H1_3 H 0.4122 0.9062 0.3592
C2_3 C 0.3429(2) 0.8892(3) 0.3219(4)
C3_3 C 0.2965(3) 0.9090(4) 0.2699(5)
H2_3 H 0.2720 0.8896 0.2700
C4_3 C 0.2855(3) 0.9563(4) 0.2185(5)
H3_3 H 0.2540 0.9697 0.1847
C10_3 C 0.3697(2) 0.9651(4) 0.2702(5)
C11_3 C 0.3219(3) 0.9846(3) 0.2169(4)
C14_3 C 0.4301(4) 0.9620(5) 0.2359(8)
H7_3 H 0.4512 0.9869 0.2297
H8_3 H 0.4485 0.9315 0.2762
H9_3 H 0.4073 0.9420 0.1864
C16_3 C 0.3534(3) 0.8380(3) 0.3783(4)
C18_3 C 0.3403(2) 0.4087(3) 0.7749(4)
H13_3 H 0.3087 0.4000 0.7564
C19_3 C 0.3780(3) 0.3772(3) 0.8411(4)
C20_3 C 0.4246(3) 0.3914(4) 0.8694(5)
H14_3 H 0.4494 0.3702 0.9132
C21_3 C 0.4353(3) 0.4353(5) 0.8352(6)
H15_3 H 0.4671 0.4443 0.8555
C22_3 C 0.4364(3) 0.5490(5) 0.7298(5)
H16_3 H 0.4678 0.5390 0.7702
C23_3 C 0.4275(3) 0.5953(4) 0.6779(5)
H17_3 H 0.4528 0.6170 0.6834
C24_3 C 0.3803(2) 0.6104(3) 0.6163(4)
C25_3 C 0.3425(2) 0.5769(3) 0.6088(4)
H18_3 H 0.3110 0.5860 0.5679
C26_3 C 0.3164(2) 0.4913(4) 0.6654(4)
C27_3 C 0.3502(2) 0.4519(4) 0.7381(4)
C28_3 C 0.3984(3) 0.4671(4) 0.7691(5)
C29_3 C 0.3990(2) 0.5169(4) 0.7226(5)
C30_3 C 0.3518(2) 0.5312(3) 0.6615(4)
C31_3 C 0.2841(3) 0.5301(5) 0.6796(7)
H19_3 H 0.2622 0.5036 0.6817
H20_3 H 0.2664 0.5590 0.6369
H21_3 H 0.3035 0.5519 0.7290
C32_3 C 0.2870(4) 0.4524(5) 0.5909(5)
H22_3 H 0.2649 0.4277 0.5945
H23_3 H 0.3080 0.4262 0.5859
H24_3 H 0.2697 0.4788 0.5453
C33_3 C 0.3672(3) 0.3296(3) 0.8826(4)
C34_3 C 0.3707(2) 0.6619(3) 0.5606(4)
C35_3 C 0.7083(2) 0.7360(4) 0.8594(5)
H25_3 H 0.7232 0.7119 0.9051
C36_3 C 0.6590(3) 0.7356(4) 0.8097(5)
H26_3 H 0.6415 0.7110 0.8217
C37_3 C 0.6361(2) 0.7711(3) 0.7435(4)
C38_3 C 0.6643(2) 0.8058(5) 0.7301(5)
H27_3 H 0.6502 0.8316 0.6861
C39_3 C 0.7133(2) 0.8029(4) 0.7811(4)
H28_3 H 0.7316 0.8262 0.7695
C40_3 C 0.5834(3) 0.7720(3) 0.6907(4)
C41_3 C 0.5554(4) 0.7648(4) 0.7177(6)
H29_3 H 0.5694 0.7600 0.7719
C42_3 C 0.5061(4) 0.7646(4) 0.6653(6)
H30_3 H 0.4879 0.7592 0.6858
C43_3 C 0.5100(3) 0.7836(4) 0.5627(6)
H31_3 H 0.4947 0.7939 0.5093
C44_3 C 0.5599(4) 0.7820(5) 0.6103(6)
H32_3 H 0.5772 0.7877 0.5880
N2_3 N 0.48378(19) 0.7715(2) 0.5890(3)
O1_3 O 0.39679(18) 0.8289(2) 0.4343(3)
O2_3 O 0.31879(17) 0.8085(2) 0.3673(3)
O7_3 O 0.32876(16) 0.6685(2) 0.5010(3)
O8_3 O 0.40571(17) 0.6953(2) 0.5793(3)
C35_4 C 0.2083(2) 0.2360(4) 0.8594(5)
H25_4 H 0.2232 0.2119 0.9051
C36_4 C 0.1590(3) 0.2356(4) 0.8097(5)
H26_4 H 0.1415 0.2110 0.8217
C37_4 C 0.1361(2) 0.2711(3) 0.7435(4)
C38_4 C 0.1643(2) 0.3058(5) 0.7301(5)
H27_4 H 0.1502 0.3316 0.6861
C39_4 C 0.2133(2) 0.3029(4) 0.7811(4)
H28_4 H 0.2316 0.3262 0.7695
C40_4 C 0.0834(3) 0.2720(3) 0.6907(4)
C41_4 C 0.0554(4) 0.2648(4) 0.7177(6)
H29_4 H 0.0694 0.2600 0.7719
C42_4 C 0.0061(4) 0.2646(4) 0.6653(6)
C43_4 C 0.0100(3) 0.2836(4) 0.5627(6)
C44_4 C 0.0599(4) 0.2820(5) 0.6103(6)
H32_4 H 0.0772 0.2877 0.5880
C1_4 C 0.8806(2) 0.4184(4) 0.3231(4)
H1_4 H 0.9122 0.4062 0.3592
C2_4 C 0.8429(2) 0.3892(3) 0.3219(4)
C3_4 C 0.7965(3) 0.4090(4) 0.2699(5)
H2_4 H 0.7720 0.3896 0.2700
C4_4 C 0.7855(3) 0.4563(4) 0.2185(5)
H3_4 H 0.7540 0.4697 0.1847
C5_4 C 0.7831(2) 0.5687(3) 0.1085(4)
H4_4 H 0.7520 0.5621 0.0939
C6_4 C 0.7931(2) 0.6138(3) 0.0716(4)
H5_4 H 0.7681 0.6376 0.0317
C7_4 C 0.8393(2) 0.6242(3) 0.0928(4)
C8_4 C 0.8771(2) 0.5898(3) 0.1539(4)
H6_4 H 0.9083 0.5971 0.1694
C9_4 C 0.9037(3) 0.5028(4) 0.2603(6)
C10_4 C 0.8697(2) 0.4651(4) 0.2702(5)
C11_4 C 0.8219(3) 0.4846(3) 0.2169(4)
C12_4 C 0.8208(2) 0.5339(3) 0.1674(4)
C13_4 C 0.8681(2) 0.5456(4) 0.1908(4)
C14_4 C 0.9301(4) 0.4620(5) 0.2359(8)
H7_4 H 0.9512 0.4869 0.2297
H8_4 H 0.9485 0.4315 0.2762
H9_4 H 0.9073 0.4420 0.1864
C15_4 C 0.9380(3) 0.5410(5) 0.3355(6)
H10_4 H 0.9591 0.5644 0.3279
H11_4 H 0.9197 0.5684 0.3454
H12_4 H 0.9565 0.5139 0.3802
C16_4 C 0.8534(3) 0.3380(3) 0.3783(4)
C17_4 C 0.8484(2) 0.6722(3) 0.0506(4)
C22_4 C 0.9364(3) 0.0490(5) 0.7298(5)
H16_4 H 0.9678 0.0390 0.7702
C23_4 C 0.9275(3) 0.0953(4) 0.6779(5)
H17_4 H 0.9528 0.1170 0.6834
C24_4 C 0.8803(2) 0.1104(3) 0.6163(4)
C25_4 C 0.8425(2) 0.0769(3) 0.6088(4)
H18_4 H 0.8110 0.0860 0.5679
C29_4 C 0.8990(2) 0.0169(4) 0.7226(5)
C30_4 C 0.8518(2) 0.0312(3) 0.6615(4)
C31_4 C 0.7841(3) 0.0301(5) 0.6796(7)
H19_4 H 0.7622 0.0036 0.6817
H20_4 H 0.7664 0.0590 0.6369
H21_4 H 0.8035 0.0519 0.7290
C34_4 C 0.8707(2) 0.1619(3) 0.5606(4)
H30_4 H 0.9879 0.2592 0.6858
H31_4 H 0.9947 0.2939 0.5093
N2_4 N 0.98378(19) 0.2715(2) 0.5890(3)
O1_4 O 0.89679(18) 0.3289(2) 0.4343(3)
O2_4 O 0.81879(17) 0.3085(2) 0.3673(3)
O7_4 O 0.82876(16) 0.1685(2) 0.5010(3)
O8_4 O 0.90571(17) 0.1953(2) 0.5793(3)
C18_4 C 0.8403(2) 0.9087(3) 0.7749(4)
H13_4 H 0.8087 0.9000 0.7564
C19_4 C 0.8780(3) 0.8772(3) 0.8411(4)
C20_4 C 0.9246(3) 0.8914(4) 0.8694(5)
H14_4 H 0.9494 0.8702 0.9132
C21_4 C 0.9353(3) 0.9353(5) 0.8352(6)
H15_4 H 0.9671 0.9443 0.8555
C26_4 C 0.8164(2) 0.9913(4) 0.6654(4)
C27_4 C 0.8502(2) 0.9519(4) 0.7381(4)
C28_4 C 0.8984(3) 0.9671(4) 0.7691(5)
C32_4 C 0.7870(4) 0.9524(5) 0.5909(5)
H22_4 H 0.7649 0.9277 0.5945
H23_4 H 0.8080 0.9262 0.5859
H24_4 H 0.7697 0.9788 0.5453
C33_4 C 0.8672(3) 0.8296(3) 0.8826(4)
C1_5 C 0.6194(2) 0.0816(4) 0.6769(4)
H1_5 H 0.5878 0.0938 0.6408
C2_5 C 0.6571(2) 0.1108(3) 0.6781(4)
C3_5 C 0.7035(3) 0.0910(4) 0.7301(5)
H2_5 H 0.7280 0.1104 0.7300
C4_5 C 0.7145(3) 0.0437(4) 0.7815(5)
H3_5 H 0.7460 0.0303 0.8153
C10_5 C 0.6303(2) 0.0349(4) 0.7298(5)
C11_5 C 0.6781(3) 0.0154(3) 0.7831(4)
C14_5 C 0.5699(4) 0.0380(5) 0.7641(8)
H7_5 H 0.5488 0.0131 0.7703
H8_5 H 0.5515 0.0685 0.7238
H9_5 H 0.5927 0.0580 0.8136
C16_5 C 0.6466(3) 0.1620(3) 0.6217(4)
C18_5 C 0.6597(2) 0.5913(3) 0.2251(4)
H13_5 H 0.6913 0.6000 0.2436
C19_5 C 0.6220(3) 0.6228(3) 0.1589(4)
C20_5 C 0.5754(3) 0.6086(4) 0.1306(5)
H14_5 H 0.5506 0.6298 0.0868
C21_5 C 0.5647(3) 0.5647(5) 0.1648(6)
H15_5 H 0.5329 0.5557 0.1445
C22_5 C 0.5636(3) 0.4510(5) 0.2702(5)
H16_5 H 0.5322 0.4610 0.2298
C23_5 C 0.5725(3) 0.4047(4) 0.3221(5)
H17_5 H 0.5472 0.3830 0.3166
C24_5 C 0.6197(2) 0.3896(3) 0.3837(4)
C25_5 C 0.6575(2) 0.4231(3) 0.3912(4)
H18_5 H 0.6890 0.4140 0.4321
C26_5 C 0.6836(2) 0.5087(4) 0.3346(4)
C27_5 C 0.6498(2) 0.5481(4) 0.2619(4)
C28_5 C 0.6016(3) 0.5329(4) 0.2309(5)
C29_5 C 0.6010(2) 0.4831(4) 0.2774(5)
C30_5 C 0.6482(2) 0.4688(3) 0.3385(4)
C31_5 C 0.7159(3) 0.4699(5) 0.3204(7)
H19_5 H 0.7378 0.4964 0.3183
H20_5 H 0.7336 0.4410 0.3631
H21_5 H 0.6965 0.4481 0.2710
C32_5 C 0.7130(4) 0.5476(5) 0.4091(5)
H22_5 H 0.7351 0.5723 0.4055
H23_5 H 0.6920 0.5738 0.4141
H24_5 H 0.7303 0.5212 0.4547
C33_5 C 0.6328(3) 0.6704(3) 0.1174(4)
C34_5 C 0.6293(2) 0.3381(3) 0.4394(4)
C35_5 C 0.2917(2) 0.2640(4) 0.1406(5)
H25_5 H 0.2768 0.2881 0.0949
C36_5 C 0.3410(3) 0.2644(4) 0.1903(5)
H26_5 H 0.3585 0.2890 0.1783
C37_5 C 0.3639(2) 0.2289(3) 0.2565(4)
C38_5 C 0.3357(2) 0.1942(5) 0.2699(5)
H27_5 H 0.3498 0.1684 0.3139
C39_5 C 0.2867(2) 0.1971(4) 0.2189(4)
H28_5 H 0.2684 0.1738 0.2305
C40_5 C 0.4166(3) 0.2280(3) 0.3093(4)
C41_5 C 0.4446(4) 0.2352(4) 0.2823(6)
H29_5 H 0.4306 0.2400 0.2281
C42_5 C 0.4939(4) 0.2354(4) 0.3347(6)
H30_5 H 0.5121 0.2408 0.3142
C43_5 C 0.4900(3) 0.2164(4) 0.4373(6)
H31_5 H 0.5053 0.2061 0.4907
C44_5 C 0.4401(4) 0.2180(5) 0.3897(6)
H32_5 H 0.4228 0.2123 0.4120
N1_3 N 0.26456(17) 0.2312(2) 0.1547(3)
N2_5 N 0.51622(19) 0.2285(2) 0.4110(3)
O1_5 O 0.60321(18) 0.1711(2) 0.5657(3)
O2_5 O 0.68121(17) 0.1915(2) 0.6327(3)
O5_3 O 0.67507(17) 0.6792(2) 0.1411(3)
O6_3 O 0.59725(17) 0.6989(2) 0.0619(3)
O7_5 O 0.67124(16) 0.3315(2) 0.4990(3)
O8_5 O 0.59429(17) 0.3047(2) 0.4207(3)
Zn1_3 Zn 0.58898(2) 0.23565(3) 0.48395(4)
Zn2_3 Zn 0.69176(2) 0.26428(3) 0.58144(4)
N3_3 N 0.76456(17) 0.2688(2) 0.6547(3)
O9_3 O 0.68681(16) 0.2035(2) 0.5012(3)
O10_3 O 0.60982(17) 0.1774(2) 0.4308(3)
O11_3 O 0.67507(17) 0.3208(2) 0.6411(3)
O12_3 O 0.59725(17) 0.3011(2) 0.5619(3)
Zn5_2 Zn 0.19176(2) 0.23572(3) 0.08144(4)
Zn7_2 Zn 0.69176(2) 0.73572(3) 0.08144(4)
Zn4_3 Zn 0.58898(2) 0.76435(3) 0.98395(4)
O3_3 O 0.68681(16) 0.7965(2) 0.0012(3)
C5_5 C 0.7169(2) 0.9313(3) 0.8915(4)
H4_5 H 0.7480 0.9379 0.9061
C6_5 C 0.7069(2) 0.8862(3) 0.9284(4)
H5_5 H 0.7319 0.8624 0.9683
C7_5 C 0.6607(2) 0.8758(3) 0.9072(4)
C8_5 C 0.6229(2) 0.9102(3) 0.8461(4)
H6_5 H 0.5917 0.9029 0.8306
C9_5 C 0.5963(3) 0.9972(4) 0.7397(6)
C12_5 C 0.6792(2) 0.9661(3) 0.8326(4)
C13_5 C 0.6319(2) 0.9544(4) 0.8092(4)
C15_5 C 0.5620(3) 0.9590(5) 0.6645(6)
H10_5 H 0.5409 0.9356 0.6721
H11_5 H 0.5803 0.9316 0.6546
H12_5 H 0.5435 0.9861 0.6198
C17_5 C 0.6516(2) 0.8278(3) 0.9494(4)
O4_3 O 0.60982(17) 0.8226(2) 0.9308(3)
C18_6 C 0.1597(2) 0.0913(3) 0.2251(4)
H13_6 H 0.1913 0.1000 0.2436
C19_6 C 0.1220(3) 0.1228(3) 0.1589(4)
C20_6 C 0.0754(3) 0.1086(4) 0.1306(5)
H14_6 H 0.0506 0.1298 0.0868
C21_6 C 0.0647(3) 0.0647(5) 0.1648(6)
H15_6 H 0.0329 0.0557 0.1445
C26_6 C 0.1836(2) 0.0087(4) 0.3346(4)
C27_6 C 0.1498(2) 0.0481(4) 0.2619(4)
C28_6 C 0.1016(3) 0.0329(4) 0.2309(5)
C32_6 C 0.2130(4) 0.0476(5) 0.4091(5)
H22_6 H 0.2351 0.0723 0.4055
H23_6 H 0.1920 0.0738 0.4141
H24_6 H 0.2303 0.0212 0.4547
C33_6 C 0.1328(3) 0.1704(3) 0.1174(4)
O5_4 O 0.17507(17) 0.1792(2) 0.1411(3)
O6_4 O 0.09725(17) 0.1989(2) 0.0619(3)
Zn4_4 Zn 0.08898(2) 0.26435(3) 0.98395(4)
O3_4 O 0.18681(16) 0.2965(2) 0.0012(3)
C1_6 C 0.1194(2) 0.5816(4) 0.6769(4)
H1_6 H 0.0878 0.5938 0.6408
C2_6 C 0.1571(2) 0.6108(3) 0.6781(4)
C3_6 C 0.2035(3) 0.5910(4) 0.7301(5)
H2_6 H 0.2280 0.6104 0.7300
C4_6 C 0.2145(3) 0.5437(4) 0.7815(5)
H3_6 H 0.2460 0.5303 0.8153
C5_6 C 0.2169(2) 0.4313(3) 0.8915(4)
H4_6 H 0.2480 0.4379 0.9061
C6_6 C 0.2069(2) 0.3862(3) 0.9284(4)
H5_6 H 0.2319 0.3624 0.9683
C7_6 C 0.1607(2) 0.3758(3) 0.9072(4)
C8_6 C 0.1229(2) 0.4102(3) 0.8461(4)
H6_6 H 0.0917 0.4029 0.8306
C9_6 C 0.0963(3) 0.4972(4) 0.7397(6)
C10_6 C 0.1303(2) 0.5349(4) 0.7298(5)
C11_6 C 0.1781(3) 0.5154(3) 0.7831(4)
C12_6 C 0.1792(2) 0.4661(3) 0.8326(4)
C13_6 C 0.1319(2) 0.4544(4) 0.8092(4)
C14_6 C 0.0699(4) 0.5380(5) 0.7641(8)
H7_6 H 0.0488 0.5131 0.7703
H8_6 H 0.0515 0.5685 0.7238
H9_6 H 0.0927 0.5580 0.8136
C15_6 C 0.0620(3) 0.4590(5) 0.6645(6)
H10_6 H 0.0409 0.4356 0.6721
H11_6 H 0.0803 0.4316 0.6546
H12_6 H 0.0435 0.4861 0.6198
C16_6 C 0.1466(3) 0.6620(3) 0.6217(4)
C17_6 C 0.1516(2) 0.3278(3) 0.9494(4)
C22_6 C 0.0636(3) 0.9510(5) 0.2702(5)
H16_6 H 0.0322 0.9610 0.2298
C23_6 C 0.0725(3) 0.9047(4) 0.3221(5)
H17_6 H 0.0472 0.8830 0.3166
C24_6 C 0.1197(2) 0.8896(3) 0.3837(4)
C25_6 C 0.1575(2) 0.9231(3) 0.3912(4)
H18_6 H 0.1890 0.9140 0.4321
C29_6 C 0.1010(2) 0.9831(4) 0.2774(5)
C30_6 C 0.1482(2) 0.9688(3) 0.3385(4)
C31_6 C 0.2159(3) 0.9699(5) 0.3204(7)
H19_6 H 0.2378 0.9964 0.3183
H20_6 H 0.2336 0.9410 0.3631
H21_6 H 0.1965 0.9481 0.2710
C34_6 C 0.1293(2) 0.8381(3) 0.4394(4)
H30_6 H 0.0121 0.7408 0.3142
H31_6 H 0.0053 0.7061 0.4907
N2_6 N 0.01622(19) 0.7285(2) 0.4110(3)
O1_6 O 0.10321(18) 0.6711(2) 0.5657(3)
O2_6 O 0.18121(17) 0.6915(2) 0.6327(3)
O4_4 O 0.10982(17) 0.3226(2) 0.9308(3)
O7_6 O 0.17124(16) 0.8315(2) 0.4990(3)
O8_6 O 0.09429(17) 0.8047(2) 0.4207(3)
Zn1_4 Zn 0.08898(2) 0.73565(3) 0.48395(4)
Zn2_4 Zn 0.19176(2) 0.76428(3) 0.58144(4)
N3_4 N 0.26456(17) 0.7688(2) 0.6547(3)
O9_4 O 0.18681(16) 0.7035(2) 0.5012(3)
O10_4 O 0.10982(17) 0.6774(2) 0.4308(3)
O11_4 O 0.17507(17) 0.8208(2) 0.6411(3)
O12_4 O 0.09725(17) 0.8011(2) 0.5619(3)
C35_6 C 0.7917(2) 0.7640(4) 0.1406(5)
H25_6 H 0.7768 0.7881 0.0949
C36_6 C 0.8410(3) 0.7644(4) 0.1903(5)
H26_6 H 0.8585 0.7890 0.1783
C37_6 C 0.8639(2) 0.7289(3) 0.2565(4)
C38_6 C 0.8357(2) 0.6942(5) 0.2699(5)
H27_6 H 0.8498 0.6684 0.3139
C39_6 C 0.7867(2) 0.6971(4) 0.2189(4)
H28_6 H 0.7684 0.6738 0.2305
C40_6 C 0.9166(3) 0.7280(3) 0.3093(4)
C41_6 C 0.9446(4) 0.7352(4) 0.2823(6)
H29_6 H 0.9306 0.7400 0.2281
C42_6 C 0.9939(4) 0.7354(4) 0.3347(6)
C43_6 C 0.9900(3) 0.7164(4) 0.4373(6)
C44_6 C 0.9401(4) 0.7180(5) 0.3897(6)
H32_6 H 0.9228 0.7123 0.4120
N1_4 N 0.76456(17) 0.7312(2) 0.1547(3)
C5_7 C 0.7169(2) 0.0687(3) 0.3915(4)
H4_7 H 0.7480 0.0621 0.4061
C6_7 C 0.7069(2) 0.1138(3) 0.4284(4)
H5_7 H 0.7319 0.1376 0.4683
C7_7 C 0.6607(2) 0.1242(3) 0.4072(4)
C8_7 C 0.6229(2) 0.0898(3) 0.3461(4)
H6_7 H 0.5917 0.0971 0.3306
C9_7 C 0.5963(3) 0.0028(4) 0.2397(6)
C12_7 C 0.6792(2) 0.0339(3) 0.3326(4)
C13_7 C 0.6319(2) 0.0456(4) 0.3092(4)
C15_7 C 0.5620(3) 0.0410(5) 0.1645(6)
H10_7 H 0.5409 0.0644 0.1721
H11_7 H 0.5803 0.0684 0.1546
H12_7 H 0.5435 0.0139 0.1198
C17_7 C 0.6516(2) 0.1722(3) 0.4494(4)
C1_7 C 0.6194(2) 0.9184(4) 0.1769(4)
H1_7 H 0.5878 0.9062 0.1408
C2_7 C 0.6571(2) 0.8892(3) 0.1781(4)
C3_7 C 0.7035(3) 0.9090(4) 0.2301(5)
H2_7 H 0.7280 0.8896 0.2300
C4_7 C 0.7145(3) 0.9563(4) 0.2815(5)
H3_7 H 0.7460 0.9697 0.3153
C10_7 C 0.6303(2) 0.9651(4) 0.2298(5)
C11_7 C 0.6781(3) 0.9846(3) 0.2831(4)
C14_7 C 0.5699(4) 0.9620(5) 0.2641(8)
H7_7 H 0.5488 0.9869 0.2703
H8_7 H 0.5515 0.9315 0.2238
H9_7 H 0.5927 0.9420 0.3136
C16_7 C 0.6466(3) 0.8380(3) 0.1217(4)
O1_7 O 0.60321(18) 0.8289(2) 0.0657(3)
O2_7 O 0.68121(17) 0.8085(2) 0.1327(3)
C18_7 C 0.6597(2) 0.4087(3) 0.7251(4)
H13_7 H 0.6913 0.4000 0.7436
C19_7 C 0.6220(3) 0.3772(3) 0.6589(4)
C20_7 C 0.5754(3) 0.3914(4) 0.6306(5)
H14_7 H 0.5506 0.3702 0.5868
C21_7 C 0.5647(3) 0.4353(5) 0.6648(6)
H15_7 H 0.5329 0.4443 0.6445
C22_7 C 0.5636(3) 0.5490(5) 0.7702(5)
H16_7 H 0.5322 0.5390 0.7298
C23_7 C 0.5725(3) 0.5953(4) 0.8221(5)
H17_7 H 0.5472 0.6170 0.8166
C24_7 C 0.6197(2) 0.6104(3) 0.8837(4)
C25_7 C 0.6575(2) 0.5769(3) 0.8912(4)
H18_7 H 0.6890 0.5860 0.9321
C26_7 C 0.6836(2) 0.4913(4) 0.8346(4)
C27_7 C 0.6498(2) 0.4519(4) 0.7619(4)
C28_7 C 0.6016(3) 0.4671(4) 0.7309(5)
C29_7 C 0.6010(2) 0.5169(4) 0.7774(5)
C30_7 C 0.6482(2) 0.5312(3) 0.8385(4)
C31_7 C 0.7159(3) 0.5301(5) 0.8204(7)
H19_7 H 0.7378 0.5036 0.8183
H20_7 H 0.7336 0.5590 0.8631
H21_7 H 0.6965 0.5519 0.7710
C32_7 C 0.7130(4) 0.4524(5) 0.9091(5)
H22_7 H 0.7351 0.4277 0.9055
H23_7 H 0.6920 0.4262 0.9141
H24_7 H 0.7303 0.4788 0.9547
C33_7 C 0.6328(3) 0.3296(3) 0.6174(4)
C34_7 C 0.6293(2) 0.6619(3) 0.9394(4)
C35_7 C 0.2917(2) 0.7360(4) 0.6406(5)
H25_7 H 0.2768 0.7119 0.5949
C36_7 C 0.3410(3) 0.7356(4) 0.6903(5)
H26_7 H 0.3585 0.7110 0.6783
C37_7 C 0.3639(2) 0.7711(3) 0.7565(4)
C38_7 C 0.3357(2) 0.8058(5) 0.7699(5)
H27_7 H 0.3498 0.8316 0.8139
C39_7 C 0.2867(2) 0.8029(4) 0.7189(4)
H28_7 H 0.2684 0.8262 0.7305
C40_7 C 0.4166(3) 0.7720(3) 0.8093(4)
C41_7 C 0.4446(4) 0.7648(4) 0.7823(6)
H29_7 H 0.4306 0.7600 0.7281
C42_7 C 0.4939(4) 0.7646(4) 0.8347(6)
H30_7 H 0.5121 0.7592 0.8142
C43_7 C 0.4900(3) 0.7836(4) 0.9373(6)
H31_7 H 0.5053 0.7939 0.9907
C44_7 C 0.4401(4) 0.7820(5) 0.8897(6)
H32_7 H 0.4228 0.7877 0.9120
N2_7 N 0.51622(19) 0.7715(2) 0.9110(3)
O7_7 O 0.67124(16) 0.6685(2) 0.9990(3)
O8_7 O 0.59429(17) 0.6953(2) 0.9207(3)
C1_8 C 0.1194(2) 0.4184(4) 0.1769(4)
H1_8 H 0.0878 0.4062 0.1408
C2_8 C 0.1571(2) 0.3892(3) 0.1781(4)
C3_8 C 0.2035(3) 0.4090(4) 0.2301(5)
H2_8 H 0.2280 0.3896 0.2300
C4_8 C 0.2145(3) 0.4563(4) 0.2815(5)
H3_8 H 0.2460 0.4697 0.3153
C5_8 C 0.2169(2) 0.5687(3) 0.3915(4)
H4_8 H 0.2480 0.5621 0.4061
C6_8 C 0.2069(2) 0.6138(3) 0.4284(4)
H5_8 H 0.2319 0.6376 0.4683
C7_8 C 0.1607(2) 0.6242(3) 0.4072(4)
C8_8 C 0.1229(2) 0.5898(3) 0.3461(4)
H6_8 H 0.0917 0.5971 0.3306
C9_8 C 0.0963(3) 0.5028(4) 0.2397(6)
C10_8 C 0.1303(2) 0.4651(4) 0.2298(5)
C11_8 C 0.1781(3) 0.4846(3) 0.2831(4)
C12_8 C 0.1792(2) 0.5339(3) 0.3326(4)
C13_8 C 0.1319(2) 0.5456(4) 0.3092(4)
C14_8 C 0.0699(4) 0.4620(5) 0.2641(8)
H7_8 H 0.0488 0.4869 0.2703
H8_8 H 0.0515 0.4315 0.2238
H9_8 H 0.0927 0.4420 0.3136
C15_8 C 0.0620(3) 0.5410(5) 0.1645(6)
H10_8 H 0.0409 0.5644 0.1721
H11_8 H 0.0803 0.5684 0.1546
H12_8 H 0.0435 0.5139 0.1198
C16_8 C 0.1466(3) 0.3380(3) 0.1217(4)
C17_8 C 0.1516(2) 0.6722(3) 0.4494(4)
O1_8 O 0.10321(18) 0.3289(2) 0.0657(3)
O2_8 O 0.18121(17) 0.3085(2) 0.1327(3)
C22_8 C 0.0636(3) 0.0490(5) 0.7702(5)
H16_8 H 0.0322 0.0390 0.7298
C23_8 C 0.0725(3) 0.0953(4) 0.8221(5)
H17_8 H 0.0472 0.1170 0.8166
C24_8 C 0.1197(2) 0.1104(3) 0.8837(4)
C25_8 C 0.1575(2) 0.0769(3) 0.8912(4)
H18_8 H 0.1890 0.0860 0.9321
C29_8 C 0.1010(2) 0.0169(4) 0.7774(5)
C30_8 C 0.1482(2) 0.0312(3) 0.8385(4)
C31_8 C 0.2159(3) 0.0301(5) 0.8204(7)
H19_8 H 0.2378 0.0036 0.8183
H20_8 H 0.2336 0.0590 0.8631
H21_8 H 0.1965 0.0519 0.7710
C34_8 C 0.1293(2) 0.1619(3) 0.9394(4)
H30_8 H 0.0121 0.2592 0.8142
H31_8 H 0.0053 0.2939 0.9907
N2_8 N 0.01622(19) 0.2715(2) 0.9110(3)
O7_8 O 0.17124(16) 0.1685(2) 0.9990(3)
O8_8 O 0.09429(17) 0.1953(2) 0.9207(3)
C18_8 C 0.1597(2) 0.9087(3) 0.7251(4)
H13_8 H 0.1913 0.9000 0.7436
C19_8 C 0.1220(3) 0.8772(3) 0.6589(4)
C20_8 C 0.0754(3) 0.8914(4) 0.6306(5)
H14_8 H 0.0506 0.8702 0.5868
C21_8 C 0.0647(3) 0.9353(5) 0.6648(6)
H15_8 H 0.0329 0.9443 0.6445
C26_8 C 0.1836(2) 0.9913(4) 0.8346(4)
C27_8 C 0.1498(2) 0.9519(4) 0.7619(4)
C28_8 C 0.1016(3) 0.9671(4) 0.7309(5)
C32_8 C 0.2130(4) 0.9524(5) 0.9091(5)
H22_8 H 0.2351 0.9277 0.9055
H23_8 H 0.1920 0.9262 0.9141
H24_8 H 0.2303 0.9788 0.9547
C33_8 C 0.1328(3) 0.8296(3) 0.6174(4)
C35_8 C 0.7917(2) 0.2360(4) 0.6406(5)
H25_8 H 0.7768 0.2119 0.5949
C36_8 C 0.8410(3) 0.2356(4) 0.6903(5)
H26_8 H 0.8585 0.2110 0.6783
C37_8 C 0.8639(2) 0.2711(3) 0.7565(4)
C38_8 C 0.8357(2) 0.3058(5) 0.7699(5)
H27_8 H 0.8498 0.3316 0.8139
C39_8 C 0.7867(2) 0.3029(4) 0.7189(4)
H28_8 H 0.7684 0.3262 0.7305
C40_8 C 0.9166(3) 0.2720(3) 0.8093(4)
C41_8 C 0.9446(4) 0.2648(4) 0.7823(6)
H29_8 H 0.9306 0.2600 0.7281
C42_8 C 0.9939(4) 0.2646(4) 0.8347(6)
C43_8 C 0.9900(3) 0.2836(4) 0.9373(6)
C44_8 C 0.9401(4) 0.2820(5) 0.8897(6)
H32_8 H 0.9228 0.2877 0.9120
loop_
_geom_bond_atom_site_label_1
_geom_bond_atom_site_label_2
_geom_bond_site_symmetry_1
_geom_bond_site_symmetry_2
C18 H13 1_555 1_555
C19 C18 1_555 1_555
C20 C19 1_555 1_555
H14 C20 1_555 1_555
C21 C20 1_555 1_555
H15 C21 1_555 1_555
C22 H16 1_555 1_555
C23 C22 1_555 1_555
H17 C23 1_555 1_555
C24 C23 1_555 1_555
C25 C24 1_555 1_555
H18 C25 1_555 1_555
C26 C27 1_555 1_555
C27 C18 1_555 1_555
C28 C21 1_555 1_555
C29 C22 1_555 1_555
C30 C25 1_555 1_555
C31 C26 1_555 1_555
H19 C31 1_555 1_555
H20 C31 1_555 1_555
H21 C31 1_555 1_555
C32 C26 1_555 1_555
H22 C32 1_555 1_555
H23 C32 1_555 1_555
H24 C32 1_555 1_555
C33 C19 1_555 1_555
C34 C24 1_555 1_555
C35 H25 1_555 1_555
C36 C35 1_555 1_555
H26 C36 1_555 1_555
C37 C36 1_555 1_555
C38 C37 1_555 1_555
H27 C38 1_555 1_555
C39 C38 1_555 1_555
H28 C39 1_555 1_555
C40 C37 1_555 1_555
C41 C40 1_555 1_555
H29 C41 1_555 1_555
C42 C41 1_555 1_555
H30 C42 1_555 1_555
C43 H31 1_555 1_555
C44 C40 1_555 1_555
H32 C44 1_555 1_555
N1 C35 1_555 1_555
N2 C42 1_555 1_555
O5 C33 1_555 1_555
O6 C33 1_555 1_555
O7 C34 1_555 1_555
O8 C34 1_555 1_555
Zn1 N2 1_555 1_555
O10 Zn1 1_555 1_555
Zn4 O6 1_555 1_555
Zn5 N1 1_555 1_555
Zn7 O5 1_555 1_555
C26 C30 1_555 1_555
C27 C28 1_555 1_555
C28 C29 1_555 1_555
C29 C30 1_555 1_555
C39 N1 1_555 1_555
C43 C44 1_555 1_555
C43 N2 1_555 1_555
O8 Zn1 1_555 1_555
C1 H1 1_555 1_555
C2 C1 1_555 1_555
C3 C2 1_555 1_555
H2 C3 1_555 1_555
C4 C3 1_555 1_555
H3 C4 1_555 1_555
C10 C1 1_555 1_555
C11 C4 1_555 1_555
H7 C14 1_555 1_555
H8 C14 1_555 1_555
H9 C14 1_555 1_555
C16 C2 1_555 1_555
O1 C16 1_555 1_555
O2 C16 1_555 1_555
Zn2 O2 1_555 1_555
N3 Zn2 1_555 1_555
O9 Zn2 1_555 1_555
O11 Zn2 1_555 1_555
C10 C11 1_555 1_555
C5 H4 1_555 1_555
C6 C5 1_555 1_555
H5 C6 1_555 1_555
C7 C6 1_555 1_555
C8 C7 1_555 1_555
H6 C8 1_555 1_555
C12 C5 1_555 1_555
C13 C8 1_555 1_555
C15 C9 1_555 1_555
H10 C15 1_555 1_555
H11 C15 1_555 1_555
H12 C15 1_555 1_555
C17 C7 1_555 1_555
O3 C17 1_555 1_555
O4 C17 1_555 1_555
Zn4 O4 1_555 1_555
Zn7 O3 1_555 1_555
C9 C13 1_555 1_555
C12 C13 1_555 1_555
C35_2 H25_2 1_555 1_555
C36_2 C35_2 1_555 1_555
H26_2 C36_2 1_555 1_555
C37_2 C36_2 1_555 1_555
C38_2 C37_2 1_555 1_555
H27_2 C38_2 1_555 1_555
C39_2 C38_2 1_555 1_555
H28_2 C39_2 1_555 1_555
C40_2 C37_2 1_555 1_555
C41_2 C40_2 1_555 1_555
H29_2 C41_2 1_555 1_555
C42_2 C41_2 1_555 1_555
C44_2 C40_2 1_555 1_555
H32_2 C44_2 1_555 1_555
N1_2 C35_2 1_555 1_555
Zn7 N1_2 1_555 1_555
C39_2 N1_2 1_555 1_555
C43_2 C44_2 1_555 1_555
C18_2 H13_2 1_555 1_555
C19_2 C18_2 1_555 1_555
C20_2 C19_2 1_555 1_555
H14_2 C20_2 1_555 1_555
C21_2 C20_2 1_555 1_555
H15_2 C21_2 1_555 1_555
C26_2 C27_2 1_555 1_555
C27_2 C18_2 1_555 1_555
C28_2 C21_2 1_555 1_555
C32_2 C26_2 1_555 1_555
H22_2 C32_2 1_555 1_555
H23_2 C32_2 1_555 1_555
H24_2 C32_2 1_555 1_555
C33_2 C19_2 1_555 1_555
O5_2 C33_2 1_555 1_555
O6_2 C33_2 1_555 1_555
Zn4_2 O6_2 1_555 1_555
Zn5 O5_2 1_555 1_555
C27_2 C28_2 1_555 1_555
C22_2 H16_2 1_555 1_555
C23_2 C22_2 1_555 1_555
H17_2 C23_2 1_555 1_555
C24_2 C23_2 1_555 1_555
C25_2 C24_2 1_555 1_555
H18_2 C25_2 1_555 1_555
C29_2 C22_2 1_555 1_555
C30_2 C25_2 1_555 1_555
H19_2 C31_2 1_555 1_555
H20_2 C31_2 1_555 1_555
H21_2 C31_2 1_555 1_555
C34_2 C24_2 1_555 1_555
O7_2 C34_2 1_555 1_555
O8_2 C34_2 1_555 1_555
Zn1_2 N2_2 1_555 1_555
O10_2 Zn1_2 1_555 1_555
C29_2 C30_2 1_555 1_555
O8_2 Zn1_2 1_555 1_555
C1_2 H1_2 1_555 1_555
C2_2 C1_2 1_555 1_555
C3_2 C2_2 1_555 1_555
H2_2 C3_2 1_555 1_555
C4_2 C3_2 1_555 1_555
H3_2 C4_2 1_555 1_555
C5_2 H4_2 1_555 1_555
C6_2 C5_2 1_555 1_555
H5_2 C6_2 1_555 1_555
C7_2 C6_2 1_555 1_555
C8_2 C7_2 1_555 1_555
H6_2 C8_2 1_555 1_555
C9_2 C10_2 1_555 1_555
C10_2 C1_2 1_555 1_555
C11_2 C4_2 1_555 1_555
C12_2 C5_2 1_555 1_555
C13_2 C8_2 1_555 1_555
C14_2 C9_2 1_555 1_555
H7_2 C14_2 1_555 1_555
H8_2 C14_2 1_555 1_555
H9_2 C14_2 1_555 1_555
C15_2 C9_2 1_555 1_555
H10_2 C15_2 1_555 1_555
H11_2 C15_2 1_555 1_555
H12_2 C15_2 1_555 1_555
C16_2 C2_2 1_555 1_555
C17_2 C7_2 1_555 1_555
O1_2 C16_2 1_555 1_555
O2_2 C16_2 1_555 1_555
O3_2 C17_2 1_555 1_555
O4_2 C17_2 1_555 1_555
Zn2_2 O2_2 1_555 1_555
N3_2 Zn2_2 1_555 1_555
O9_2 Zn2_2 1_555 1_555
O11_2 Zn2_2 1_555 1_555
Zn4_2 O4_2 1_555 1_555
Zn5 O3_2 1_555 1_555
C9_2 C13_2 1_555 1_555
C10_2 C11_2 1_555 1_555
C11_2 C12_2 1_555 1_555
C12_2 C13_2 1_555 1_555
C5_3 H4_3 1_555 1_555
C6_3 C5_3 1_555 1_555
H5_3 C6_3 1_555 1_555
C7_3 C6_3 1_555 1_555
C8_3 C7_3 1_555 1_555
H6_3 C8_3 1_555 1_555
C12_3 C5_3 1_555 1_555
C13_3 C8_3 1_555 1_555
C15_3 C9_3 1_555 1_555
H10_3 C15_3 1_555 1_555
H11_3 C15_3 1_555 1_555
H12_3 C15_3 1_555 1_555
C17_3 C7_3 1_555 1_555
O10 C17_3 1_555 1_555
C9_3 C13_3 1_555 1_555
C12_3 C13_3 1_555 1_555
C1_3 H1_3 1_555 1_555
C2_3 C1_3 1_555 1_555
C3_3 C2_3 1_555 1_555
H2_3 C3_3 1_555 1_555
C4_3 C3_3 1_555 1_555
H3_3 C4_3 1_555 1_555
C10_3 C1_3 1_555 1_555
C11_3 C4_3 1_555 1_555
H7_3 C14_3 1_555 1_555
H8_3 C14_3 1_555 1_555
H9_3 C14_3 1_555 1_555
C16_3 C2_3 1_555 1_555
C18_3 H13_3 1_555 1_555
C19_3 C18_3 1_555 1_555
C20_3 C19_3 1_555 1_555
H14_3 C20_3 1_555 1_555
C21_3 C20_3 1_555 1_555
H15_3 C21_3 1_555 1_555
C22_3 H16_3 1_555 1_555
C23_3 C22_3 1_555 1_555
H17_3 C23_3 1_555 1_555
C24_3 C23_3 1_555 1_555
C25_3 C24_3 1_555 1_555
H18_3 C25_3 1_555 1_555
C26_3 C27_3 1_555 1_555
C27_3 C18_3 1_555 1_555
C28_3 C21_3 1_555 1_555
C29_3 C22_3 1_555 1_555
C30_3 C25_3 1_555 1_555
C31_3 C26_3 1_555 1_555
H19_3 C31_3 1_555 1_555
H20_3 C31_3 1_555 1_555
H21_3 C31_3 1_555 1_555
C32_3 C26_3 1_555 1_555
H22_3 C32_3 1_555 1_555
H23_3 C32_3 1_555 1_555
H24_3 C32_3 1_555 1_555
C33_3 C19_3 1_555 1_555
C34_3 C24_3 1_555 1_555
C35_3 H25_3 1_555 1_555
C36_3 C35_3 1_555 1_555
H26_3 C36_3 1_555 1_555
C37_3 C36_3 1_555 1_555
C38_3 C37_3 1_555 1_555
H27_3 C38_3 1_555 1_555
C39_3 C38_3 1_555 1_555
H28_3 C39_3 1_555 1_555
C40_3 C37_3 1_555 1_555
C41_3 C40_3 1_555 1_555
H29_3 C41_3 1_555 1_555
C42_3 C41_3 1_555 1_555
H30_3 C42_3 1_555 1_555
C43_3 H31_3 1_555 1_555
C44_3 C40_3 1_555 1_555
H32_3 C44_3 1_555 1_555
N3_2 C35_3 1_555 1_555
N2_3 C42_3 1_555 1_555
O1_3 C16_3 1_555 1_555
O2_3 C16_3 1_555 1_555
O11 C33_3 1_555 1_555
O12 C33_3 1_555 1_555
O7_3 C34_3 1_555 1_555
O8_3 C34_3 1_555 1_555
Zn4 N2_3 1_555 1_555
Zn7 O2_3 1_555 1_555
C10_3 C11_3 1_555 1_555
C26_3 C30_3 1_555 1_555
C27_3 C28_3 1_555 1_555
C28_3 C29_3 1_555 1_555
C29_3 C30_3 1_555 1_555
C39_3 N3_2 1_555 1_555
C43_3 C44_3 1_555 1_555
C43_3 N2_3 1_555 1_555
O1_3 Zn4 1_555 1_555
O7_3 Zn7 1_555 1_555
O8_3 Zn4 1_555 1_555
C35_4 H25_4 1_555 1_555
C36_4 C35_4 1_555 1_555
H26_4 C36_4 1_555 1_555
C37_4 C36_4 1_555 1_555
C38_4 C37_4 1_555 1_555
H27_4 C38_4 1_555 1_555
C39_4 C38_4 1_555 1_555
H28_4 C39_4 1_555 1_555
C40_4 C37_4 1_555 1_555
C41_4 C40_4 1_555 1_555
H29_4 C41_4 1_555 1_555
C42_4 C41_4 1_555 1_555
C44_4 C40_4 1_555 1_555
H32_4 C44_4 1_555 1_555
N3 C35_4 1_555 1_555
C39_4 N3 1_555 1_555
C43_4 C44_4 1_555 1_555
C1_4 H1_4 1_555 1_555
C2_4 C1_4 1_555 1_555
C3_4 C2_4 1_555 1_555
H2_4 C3_4 1_555 1_555
C4_4 C3_4 1_555 1_555
H3_4 C4_4 1_555 1_555
C5_4 H4_4 1_555 1_555
C6_4 C5_4 1_555 1_555
H5_4 C6_4 1_555 1_555
C7_4 C6_4 1_555 1_555
C8_4 C7_4 1_555 1_555
H6_4 C8_4 1_555 1_555
C9_4 C10_4 1_555 1_555
C10_4 C1_4 1_555 1_555
C11_4 C4_4 1_555 1_555
C12_4 C5_4 1_555 1_555
C13_4 C8_4 1_555 1_555
C14_4 C9_4 1_555 1_555
H7_4 C14_4 1_555 1_555
H8_4 C14_4 1_555 1_555
H9_4 C14_4 1_555 1_555
C15_4 C9_4 1_555 1_555
H10_4 C15_4 1_555 1_555
H11_4 C15_4 1_555 1_555
H12_4 C15_4 1_555 1_555
C16_4 C2_4 1_555 1_555
C17_4 C7_4 1_555 1_555
C22_4 H16_4 1_555 1_555
C23_4 C22_4 1_555 1_555
H17_4 C23_4 1_555 1_555
C24_4 C23_4 1_555 1_555
C25_4 C24_4 1_555 1_555
H18_4 C25_4 1_555 1_555
C29_4 C22_4 1_555 1_555
C30_4 C25_4 1_555 1_555
H19_4 C31_4 1_555 1_555
H20_4 C31_4 1_555 1_555
H21_4 C31_4 1_555 1_555
C34_4 C24_4 1_555 1_555
O1_4 C16_4 1_555 1_555
O2_4 C16_4 1_555 1_555
O10_2 C17_4 1_555 1_555
O7_4 C34_4 1_555 1_555
O8_4 C34_4 1_555 1_555
Zn4_2 N2_4 1_555 1_555
Zn5 O2_4 1_555 1_555
C9_4 C13_4 1_555 1_555
C10_4 C11_4 1_555 1_555
C11_4 C12_4 1_555 1_555
C12_4 C13_4 1_555 1_555
C29_4 C30_4 1_555 1_555
O1_4 Zn4_2 1_555 1_555
O7_4 Zn5 1_555 1_555
O8_4 Zn4_2 1_555 1_555
C18_4 H13_4 1_555 1_555
C19_4 C18_4 1_555 1_555
C20_4 C19_4 1_555 1_555
H14_4 C20_4 1_555 1_555
C21_4 C20_4 1_555 1_555
H15_4 C21_4 1_555 1_555
C26_4 C27_4 1_555 1_555
C27_4 C18_4 1_555 1_555
C28_4 C21_4 1_555 1_555
C32_4 C26_4 1_555 1_555
H22_4 C32_4 1_555 1_555
H23_4 C32_4 1_555 1_555
H24_4 C32_4 1_555 1_555
C33_4 C19_4 1_555 1_555
O11_2 C33_4 1_555 1_555
O12_2 C33_4 1_555 1_555
C27_4 C28_4 1_555 1_555
C1_5 H1_5 1_555 1_555
C2_5 C1_5 1_555 1_555
C3_5 C2_5 1_555 1_555
H2_5 C3_5 1_555 1_555
C4_5 C3_5 1_555 1_555
H3_5 C4_5 1_555 1_555
C10_5 C1_5 1_555 1_555
C11_5 C4_5 1_555 1_555
H7_5 C14_5 1_555 1_555
H8_5 C14_5 1_555 1_555
H9_5 C14_5 1_555 1_555
C16_5 C2_5 1_555 1_555
C18_5 H13_5 1_555 1_555
C19_5 C18_5 1_555 1_555
C20_5 C19_5 1_555 1_555
H14_5 C20_5 1_555 1_555
C21_5 C20_5 1_555 1_555
H15_5 C21_5 1_555 1_555
C22_5 H16_5 1_555 1_555
C23_5 C22_5 1_555 1_555
H17_5 C23_5 1_555 1_555
C24_5 C23_5 1_555 1_555
C25_5 C24_5 1_555 1_555
H18_5 C25_5 1_555 1_555
C26_5 C27_5 1_555 1_555
C27_5 C18_5 1_555 1_555
C28_5 C21_5 1_555 1_555
C29_5 C22_5 1_555 1_555
C30_5 C25_5 1_555 1_555
C31_5 C26_5 1_555 1_555
H19_5 C31_5 1_555 1_555
H20_5 C31_5 1_555 1_555
H21_5 C31_5 1_555 1_555
C32_5 C26_5 1_555 1_555
H22_5 C32_5 1_555 1_555
H23_5 C32_5 1_555 1_555
H24_5 C32_5 1_555 1_555
C33_5 C19_5 1_555 1_555
C34_5 C24_5 1_555 1_555
C35_5 H25_5 1_555 1_555
C36_5 C35_5 1_555 1_555
H26_5 C36_5 1_555 1_555
C37_5 C36_5 1_555 1_555
C38_5 C37_5 1_555 1_555
H27_5 C38_5 1_555 1_555
C39_5 C38_5 1_555 1_555
H28_5 C39_5 1_555 1_555
C40_5 C37_5 1_555 1_555
C41_5 C40_5 1_555 1_555
H29_5 C41_5 1_555 1_555
C42_5 C41_5 1_555 1_555
H30_5 C42_5 1_555 1_555
C43_5 H31_5 1_555 1_555
C44_5 C40_5 1_555 1_555
H32_5 C44_5 1_555 1_555
N1_3 C35_5 1_555 1_555
N2_5 C42_5 1_555 1_555
O1_5 C16_5 1_555 1_555
O2_5 C16_5 1_555 1_555
O5_3 C33_5 1_555 1_555
O6_3 C33_5 1_555 1_555
O7_5 C34_5 1_555 1_555
O8_5 C34_5 1_555 1_555
Zn1_3 N2_5 1_555 1_555
Zn2_3 O2_5 1_555 1_555
N3_3 Zn2_3 1_555 1_555
O9_3 Zn2_3 1_555 1_555
O10_3 Zn1_3 1_555 1_555
O11_3 Zn2_3 1_555 1_555
O12_3 Zn1_3 1_555 1_555
Zn5_2 N1_3 1_555 1_555
Zn7_2 O5_3 1_555 1_555
C10_5 C11_5 1_555 1_555
C26_5 C30_5 1_555 1_555
C27_5 C28_5 1_555 1_555
C28_5 C29_5 1_555 1_555
C29_5 C30_5 1_555 1_555
C39_5 N1_3 1_555 1_555
C43_5 C44_5 1_555 1_555
C43_5 N2_5 1_555 1_555
O1_5 Zn1_3 1_555 1_555
O7_5 Zn2_3 1_555 1_555
O8_5 Zn1_3 1_555 1_555
Zn7_2 O3_3 1_555 1_555
C5_5 H4_5 1_555 1_555
C6_5 C5_5 1_555 1_555
H5_5 C6_5 1_555 1_555
C7_5 C6_5 1_555 1_555
C8_5 C7_5 1_555 1_555
H6_5 C8_5 1_555 1_555
C12_5 C5_5 1_555 1_555
C13_5 C8_5 1_555 1_555
C15_5 C9_5 1_555 1_555
H10_5 C15_5 1_555 1_555
H11_5 C15_5 1_555 1_555
H12_5 C15_5 1_555 1_555
C17_5 C7_5 1_555 1_555
O4_3 C17_5 1_555 1_555
Zn4_3 O4_3 1_555 1_555
C9_5 C13_5 1_555 1_555
C12_5 C13_5 1_555 1_555
C18_6 H13_6 1_555 1_555
C19_6 C18_6 1_555 1_555
C20_6 C19_6 1_555 1_555
H14_6 C20_6 1_555 1_555
C21_6 C20_6 1_555 1_555
H15_6 C21_6 1_555 1_555
C26_6 C27_6 1_555 1_555
C27_6 C18_6 1_555 1_555
C28_6 C21_6 1_555 1_555
C32_6 C26_6 1_555 1_555
H22_6 C32_6 1_555 1_555
H23_6 C32_6 1_555 1_555
H24_6 C32_6 1_555 1_555
C33_6 C19_6 1_555 1_555
O5_4 C33_6 1_555 1_555
O6_4 C33_6 1_555 1_555
Zn5_2 O5_4 1_555 1_555
C27_6 C28_6 1_555 1_555
Zn5_2 O3_4 1_555 1_555
C1_6 H1_6 1_555 1_555
C2_6 C1_6 1_555 1_555
C3_6 C2_6 1_555 1_555
H2_6 C3_6 1_555 1_555
C4_6 C3_6 1_555 1_555
H3_6 C4_6 1_555 1_555
C5_6 H4_6 1_555 1_555
C6_6 C5_6 1_555 1_555
H5_6 C6_6 1_555 1_555
C7_6 C6_6 1_555 1_555
C8_6 C7_6 1_555 1_555
H6_6 C8_6 1_555 1_555
C9_6 C10_6 1_555 1_555
C10_6 C1_6 1_555 1_555
C11_6 C4_6 1_555 1_555
C12_6 C5_6 1_555 1_555
C13_6 C8_6 1_555 1_555
C14_6 C9_6 1_555 1_555
H7_6 C14_6 1_555 1_555
H8_6 C14_6 1_555 1_555
H9_6 C14_6 1_555 1_555
C15_6 C9_6 1_555 1_555
H10_6 C15_6 1_555 1_555
H11_6 C15_6 1_555 1_555
H12_6 C15_6 1_555 1_555
C16_6 C2_6 1_555 1_555
C17_6 C7_6 1_555 1_555
C22_6 H16_6 1_555 1_555
C23_6 C22_6 1_555 1_555
H17_6 C23_6 1_555 1_555
C24_6 C23_6 1_555 1_555
C25_6 C24_6 1_555 1_555
H18_6 C25_6 1_555 1_555
C29_6 C22_6 1_555 1_555
C30_6 C25_6 1_555 1_555
H19_6 C31_6 1_555 1_555
H20_6 C31_6 1_555 1_555
H21_6 C31_6 1_555 1_555
C34_6 C24_6 1_555 1_555
O1_6 C16_6 1_555 1_555
O2_6 C16_6 1_555 1_555
O4_4 C17_6 1_555 1_555
O7_6 C34_6 1_555 1_555
O8_6 C34_6 1_555 1_555
Zn1_4 N2_6 1_555 1_555
Zn2_4 O2_6 1_555 1_555
N3_4 Zn2_4 1_555 1_555
O9_4 Zn2_4 1_555 1_555
O10_4 Zn1_4 1_555 1_555
O11_4 Zn2_4 1_555 1_555
O12_4 Zn1_4 1_555 1_555
Zn4_4 O4_4 1_555 1_555
C9_6 C13_6 1_555 1_555
C10_6 C11_6 1_555 1_555
C11_6 C12_6 1_555 1_555
C12_6 C13_6 1_555 1_555
C29_6 C30_6 1_555 1_555
O1_6 Zn1_4 1_555 1_555
O7_6 Zn2_4 1_555 1_555
O8_6 Zn1_4 1_555 1_555
C35_6 H25_6 1_555 1_555
C36_6 C35_6 1_555 1_555
H26_6 C36_6 1_555 1_555
C37_6 C36_6 1_555 1_555
C38_6 C37_6 1_555 1_555
H27_6 C38_6 1_555 1_555
C39_6 C38_6 1_555 1_555
H28_6 C39_6 1_555 1_555
C40_6 C37_6 1_555 1_555
C41_6 C40_6 1_555 1_555
H29_6 C41_6 1_555 1_555
C42_6 C41_6 1_555 1_555
C44_6 C40_6 1_555 1_555
H32_6 C44_6 1_555 1_555
N1_4 C35_6 1_555 1_555
Zn7_2 N1_4 1_555 1_555
C39_6 N1_4 1_555 1_555
C43_6 C44_6 1_555 1_555
C5_7 H4_7 1_555 1_555
C6_7 C5_7 1_555 1_555
H5_7 C6_7 1_555 1_555
C7_7 C6_7 1_555 1_555
C8_7 C7_7 1_555 1_555
H6_7 C8_7 1_555 1_555
C12_7 C5_7 1_555 1_555
C13_7 C8_7 1_555 1_555
C15_7 C9_7 1_555 1_555
H10_7 C15_7 1_555 1_555
H11_7 C15_7 1_555 1_555
H12_7 C15_7 1_555 1_555
C17_7 C7_7 1_555 1_555
O9_3 C17_7 1_555 1_555
O10_3 C17_7 1_555 1_555
C9_7 C13_7 1_555 1_555
C12_7 C13_7 1_555 1_555
C1_7 H1_7 1_555 1_555
C2_7 C1_7 1_555 1_555
C3_7 C2_7 1_555 1_555
H2_7 C3_7 1_555 1_555
C4_7 C3_7 1_555 1_555
H3_7 C4_7 1_555 1_555
C10_7 C1_7 1_555 1_555
C11_7 C4_7 1_555 1_555
H7_7 C14_7 1_555 1_555
H8_7 C14_7 1_555 1_555
H9_7 C14_7 1_555 1_555
C16_7 C2_7 1_555 1_555
O1_7 C16_7 1_555 1_555
O2_7 C16_7 1_555 1_555
Zn7_2 O2_7 1_555 1_555
C10_7 C11_7 1_555 1_555
C18_7 H13_7 1_555 1_555
C19_7 C18_7 1_555 1_555
C20_7 C19_7 1_555 1_555
H14_7 C20_7 1_555 1_555
C21_7 C20_7 1_555 1_555
H15_7 C21_7 1_555 1_555
C22_7 H16_7 1_555 1_555
C23_7 C22_7 1_555 1_555
H17_7 C23_7 1_555 1_555
C24_7 C23_7 1_555 1_555
C25_7 C24_7 1_555 1_555
H18_7 C25_7 1_555 1_555
C26_7 C27_7 1_555 1_555
C27_7 C18_7 1_555 1_555
C28_7 C21_7 1_555 1_555
C29_7 C22_7 1_555 1_555
C30_7 C25_7 1_555 1_555
C31_7 C26_7 1_555 1_555
H19_7 C31_7 1_555 1_555
H20_7 C31_7 1_555 1_555
H21_7 C31_7 1_555 1_555
C32_7 C26_7 1_555 1_555
H22_7 C32_7 1_555 1_555
H23_7 C32_7 1_555 1_555
H24_7 C32_7 1_555 1_555
C33_7 C19_7 1_555 1_555
C34_7 C24_7 1_555 1_555
C35_7 H25_7 1_555 1_555
C36_7 C35_7 1_555 1_555
H26_7 C36_7 1_555 1_555
C37_7 C36_7 1_555 1_555
C38_7 C37_7 1_555 1_555
H27_7 C38_7 1_555 1_555
C39_7 C38_7 1_555 1_555
H28_7 C39_7 1_555 1_555
C40_7 C37_7 1_555 1_555
C41_7 C40_7 1_555 1_555
H29_7 C41_7 1_555 1_555
C42_7 C41_7 1_555 1_555
H30_7 C42_7 1_555 1_555
C43_7 H31_7 1_555 1_555
C44_7 C40_7 1_555 1_555
H32_7 C44_7 1_555 1_555
N3_4 C35_7 1_555 1_555
N2_7 C42_7 1_555 1_555
O11_3 C33_7 1_555 1_555
O12_3 C33_7 1_555 1_555
O7_7 C34_7 1_555 1_555
O8_7 C34_7 1_555 1_555
Zn4_3 N2_7 1_555 1_555
C26_7 C30_7 1_555 1_555
C27_7 C28_7 1_555 1_555
C28_7 C29_7 1_555 1_555
C29_7 C30_7 1_555 1_555
C39_7 N3_4 1_555 1_555
C43_7 C44_7 1_555 1_555
C43_7 N2_7 1_555 1_555
O8_7 Zn4_3 1_555 1_555
C1_8 H1_8 1_555 1_555
C2_8 C1_8 1_555 1_555
C3_8 C2_8 1_555 1_555
H2_8 C3_8 1_555 1_555
C4_8 C3_8 1_555 1_555
H3_8 C4_8 1_555 1_555
C5_8 H4_8 1_555 1_555
C6_8 C5_8 1_555 1_555
H5_8 C6_8 1_555 1_555
C7_8 C6_8 1_555 1_555
C8_8 C7_8 1_555 1_555
H6_8 C8_8 1_555 1_555
C9_8 C10_8 1_555 1_555
C10_8 C1_8 1_555 1_555
C11_8 C4_8 1_555 1_555
C12_8 C5_8 1_555 1_555
C13_8 C8_8 1_555 1_555
C14_8 C9_8 1_555 1_555
H7_8 C14_8 1_555 1_555
H8_8 C14_8 1_555 1_555
H9_8 C14_8 1_555 1_555
C15_8 C9_8 1_555 1_555
H10_8 C15_8 1_555 1_555
H11_8 C15_8 1_555 1_555
H12_8 C15_8 1_555 1_555
C16_8 C2_8 1_555 1_555
C17_8 C7_8 1_555 1_555
O1_8 C16_8 1_555 1_555
O2_8 C16_8 1_555 1_555
O9_4 C17_8 1_555 1_555
O10_4 C17_8 1_555 1_555
Zn5_2 O2_8 1_555 1_555
C9_8 C13_8 1_555 1_555
C10_8 C11_8 1_555 1_555
C11_8 C12_8 1_555 1_555
C12_8 C13_8 1_555 1_555
C22_8 H16_8 1_555 1_555
C23_8 C22_8 1_555 1_555
H17_8 C23_8 1_555 1_555
C24_8 C23_8 1_555 1_555
C25_8 C24_8 1_555 1_555
H18_8 C25_8 1_555 1_555
C29_8 C22_8 1_555 1_555
C30_8 C25_8 1_555 1_555
H19_8 C31_8 1_555 1_555
H20_8 C31_8 1_555 1_555
H21_8 C31_8 1_555 1_555
C34_8 C24_8 1_555 1_555
O7_8 C34_8 1_555 1_555
O8_8 C34_8 1_555 1_555
Zn4_4 N2_8 1_555 1_555
C29_8 C30_8 1_555 1_555
O8_8 Zn4_4 1_555 1_555
C18_8 H13_8 1_555 1_555
C19_8 C18_8 1_555 1_555
C20_8 C19_8 1_555 1_555
H14_8 C20_8 1_555 1_555
C21_8 C20_8 1_555 1_555
H15_8 C21_8 1_555 1_555
C26_8 C27_8 1_555 1_555
C27_8 C18_8 1_555 1_555
C28_8 C21_8 1_555 1_555
C32_8 C26_8 1_555 1_555
H22_8 C32_8 1_555 1_555
H23_8 C32_8 1_555 1_555
H24_8 C32_8 1_555 1_555
C33_8 C19_8 1_555 1_555
O11_4 C33_8 1_555 1_555
O12_4 C33_8 1_555 1_555
C27_8 C28_8 1_555 1_555
C35_8 H25_8 1_555 1_555
C36_8 C35_8 1_555 1_555
H26_8 C36_8 1_555 1_555
C37_8 C36_8 1_555 1_555
C38_8 C37_8 1_555 1_555
H27_8 C38_8 1_555 1_555
C39_8 C38_8 1_555 1_555
H28_8 C39_8 1_555 1_555
C40_8 C37_8 1_555 1_555
C41_8 C40_8 1_555 1_555
H29_8 C41_8 1_555 1_555
C42_8 C41_8 1_555 1_555
C44_8 C40_8 1_555 1_555
H32_8 C44_8 1_555 1_555
N3_3 C35_8 1_555 1_555
C39_8 N3_3 1_555 1_555
C43_8 C44_8 1_555 1_555

#END
