
###############################################################################
#
# This file contains modified crystal structure data generated from the
# MOF subset of the Cambridge Structural Database (CSD) v543 
# hosted by the Cambridge Crystallographic Data Centre (CCDC).
#
# This work is licensed under the Creative Commons
# Attribution-NonCommercial-ShareAlike 4.0 International License.
# To view a copy of this license, visit
# http://creativecommons.org/licenses/by-nc-sa/4.0/
# or send a letter to
# Creative Commons, PO Box 1866, Mountain View, CA 94042, USA.
#
# CIF created using the CSD Python API on 29 September 2022
# The structure has been converted into the P1 space group
# The structure has a 3D framework
# The original CSD entry OGUJOR is in the triclinic crystal system
# The framework has been calculated to contain at least 10.0% void space
# The void calculation uses a probe of radius 1.32A, grid spacing 0.4
# The framework is charged, counterions have been retained in the structure
#
###############################################################################

data_OGUJOR
_chemical_formula_moiety         '(C12 H12 B2 Cu2 F8 N24 2+)n'
_symmetry_cell_setting           triclinic
_symmetry_space_group_name_H-M   'P 1'
_symmetry_Int_Tables_number      1
_space_group_name_Hall           'P 1'
loop_
_symmetry_equiv_pos_site_id
_symmetry_equiv_pos_as_xyz
1 x,y,z
_cell_length_a                   8.3592(7)
_cell_length_b                   8.5498(7)
_cell_length_c                   11.5516(9)
_cell_angle_alpha                111.219(2)
_cell_angle_beta                 106.8930(10)
_cell_angle_gamma                92.670(2)
_cell_volume                     725.67
loop_
_atom_site_label
_atom_site_type_symbol
_atom_site_fract_x
_atom_site_fract_y
_atom_site_fract_z
Cu4 Cu 0.5000 0.0000 0.0000
N18 N 0.4156(5) 0.6596(5) 0.9966(4)
C9 C 0.2977(6) 0.5563(6) 0.9969(5)
H9 H 0.3066 0.4473 0.9948
Cu4_2 Cu 0.5000 1.0000 1.0000
N6 N 0.5844(5) 0.3404(5) 0.0034(4)
N9 N 0.4532(5) 0.1674(5) 0.1577(3)
N10 N 0.2907(5) 0.1786(6) 0.1621(4)
N11 N 0.4720(5) 0.3593(5) 0.3450(4)
N12 N 0.5533(6) 0.4779(6) 0.4726(4)
C3 C 0.7023(6) 0.4437(6) 0.0031(5)
H3 H 0.6934 0.5527 0.0052
C5 C 0.3055(7) 0.2940(7) 0.2757(5)
H5 H 0.2157 0.3275 0.3056
C6 C 0.5599(6) 0.2775(7) 0.2673(5)
H6 H 0.6773 0.2965 0.2885
N21 N 0.5468(5) 0.8326(5) 0.8423(3)
N22 N 0.7093(5) 0.8214(6) 0.8379(4)
N23 N 0.5280(5) 0.6407(5) 0.6550(4)
N24 N 0.4467(6) 0.5221(6) 0.5274(4)
C11 C 0.6945(7) 0.7060(7) 0.7243(5)
H11 H 0.7843 0.6725 0.6944
C12 C 0.4401(6) 0.7225(7) 0.7327(5)
H12 H 0.3227 0.7035 0.7115
Cu4_3 Cu 0.5000 0.0000 1.0000
N1 N 0.1058(5) 0.0335(6) 0.6589(4)
N2 N 0.2577(5) 0.0526(6) 0.8515(4)
N3 N 0.0869(5) 0.0115(6) 0.8360(4)
N4 N 0.0755(6) 0.0271(6) 0.5318(4)
N5 N 0.6499(4) 0.1918(4) 0.9994(3)
N7 N 0.8425(4) 0.3676(4) 0.9991(4)
N8 N 0.9984(4) 0.4265(5) 0.9986(4)
C1 C 0.2632(6) 0.0680(8) 0.7457(5)
H1 H 0.3618 0.0986 0.7314
C4 C 0.8031(5) 0.2106(5) 0.9972(4)
H4 H 0.8745 0.1301 0.9946
C8 C 0.0003(7) 0.0006(8) 0.2803(5)
H8 H 0.1178 0.0284 0.3169
N17 N 0.3501(4) 0.8082(4) 0.0006(3)
N19 N 0.1575(4) 0.6324(4) 0.0009(4)
N20 N 0.0016(4) 0.5735(5) 0.0014(4)
C10 C 0.1969(5) 0.7894(5) 0.0028(4)
H10 H 0.1255 0.8699 0.0054
Cu4_4 Cu 0.5000 1.0000 0.0000
N25 N 0.7423(5) 0.9474(6) 0.1485(4)
C2 C 0.9997(7) 0.9994(8) 0.7197(5)
H2 H 0.8822 0.9716 0.6831
N13 N 0.8942(5) 0.9665(6) 0.3411(4)
N15 N 0.9131(5) 0.9885(6) 0.1640(4)
N16 N 0.9245(6) 0.9729(6) 0.4682(4)
C7 C 0.7368(6) 0.9320(8) 0.2543(5)
H7 H 0.6382 0.9014 0.2686
B1 B 0.0160(8) 0.4335(7) 0.6188(6)
F2 F 0.0258(10) 0.5982(7) 0.6340(9)
F4 F 0.1739(9) 0.3974(12) 0.6547(11)
F1 F 0.9326(12) 0.3326(10) 0.4914(7)
F3 F 0.9315(14) 0.4057(14) 0.6948(10)
F1_2 F 0.0674(12) 0.6674(10) 0.5086(7)
F3_2 F 0.0685(14) 0.5943(14) 0.3052(10)
B1_2 B 0.9840(8) 0.5665(7) 0.3812(6)
F2_2 F 0.9742(10) 0.4018(7) 0.3660(9)
F4_2 F 0.8261(9) 0.6026(12) 0.3453(11)
loop_
_geom_bond_atom_site_label_1
_geom_bond_atom_site_label_2
_geom_bond_site_symmetry_1
_geom_bond_site_symmetry_2
N18 C9 1_555 1_555
H9 C9 1_555 1_555
N9 Cu4 1_555 1_555
N10 N9 1_555 1_555
N11 N12 1_555 1_555
N12 N24 1_555 1_555
C3 N6 1_555 1_555
H3 C3 1_555 1_555
C5 N10 1_555 1_555
H5 C5 1_555 1_555
C6 N9 1_555 1_555
H6 C6 1_555 1_555
N21 N22 1_555 1_555
N22 C11 1_555 1_555
N23 N24 1_555 1_555
C11 N23 1_555 1_555
H11 C11 1_555 1_555
C12 N21 1_555 1_555
H12 C12 1_555 1_555
Cu4_2 N21 1_555 1_555
N11 C5 1_555 1_555
N11 C6 1_555 1_555
N23 C12 1_555 1_555
Cu4_3 N2 1_555 1_555
N1 N4 1_555 1_555
N2 N3 1_555 1_555
N5 Cu4_3 1_555 1_555
N7 N8 1_555 1_555
C1 N1 1_555 1_555
H1 C1 1_555 1_555
C4 N5 1_555 1_555
H4 C4 1_555 1_555
H8 C8 1_555 1_555
N2 C1 1_555 1_555
N7 C4 1_555 1_555
N19 N20 1_555 1_555
C10 N17 1_555 1_555
H10 C10 1_555 1_555
Cu4_4 N17 1_555 1_555
N19 C10 1_555 1_555
N25 Cu4_4 1_555 1_555
H2 C2 1_555 1_555
N13 N16 1_555 1_555
N25 N15 1_555 1_555
C7 N13 1_555 1_555
H7 C7 1_555 1_555
N25 C7 1_555 1_555
F2 B1 1_555 1_555
F4 B1 1_555 1_555
F2_2 B1_2 1_555 1_555
F4_2 B1_2 1_555 1_555

#END
