
###############################################################################
#
# This file contains modified crystal structure data generated from the
# MOF subset of the Cambridge Structural Database (CSD) v543 
# hosted by the Cambridge Crystallographic Data Centre (CCDC).
#
# This work is licensed under the Creative Commons
# Attribution-NonCommercial-ShareAlike 4.0 International License.
# To view a copy of this license, visit
# http://creativecommons.org/licenses/by-nc-sa/4.0/
# or send a letter to
# Creative Commons, PO Box 1866, Mountain View, CA 94042, USA.
#
# CIF created using the CSD Python API on 29 September 2022
# The structure has been converted into the P1 space group
# The structure has a 3D framework
# The original CSD entry OGUJUY is in the orthorhombic crystal system
# The framework has been calculated to contain at least 10.0% void space
# The void calculation uses a probe of radius 1.32A, grid spacing 0.4
#
###############################################################################

data_OGUJUY
_chemical_formula_moiety         '(C432 H252 Al18 O138)n'
_symmetry_cell_setting           triclinic
_symmetry_space_group_name_H-M   'P 1'
_symmetry_Int_Tables_number      1
_space_group_name_Hall           'P 1'
loop_
_symmetry_equiv_pos_site_id
_symmetry_equiv_pos_as_xyz
1 x,y,z
_cell_length_a                   28.5691(11)
_cell_length_b                   28.7275(11)
_cell_length_c                   17.1480(6)
_cell_angle_alpha                90
_cell_angle_beta                 90
_cell_angle_gamma                90
_cell_volume                     14073.7
loop_
_atom_site_label
_atom_site_type_symbol
_atom_site_fract_x
_atom_site_fract_y
_atom_site_fract_z
Al1 Al 0.52401(5) 0.05798(5) 0.16300(9)
Al2 Al 0.000000 0.000000 0.000000
C1 C 0.07798(19) 0.4782(2) 0.1074(3)
C2 C 0.11718(19) 0.44620(19) 0.1229(3)
C3 C 0.1396(2) 0.44701(19) 0.1936(4)
H1 H 0.128637 0.467127 0.233609
C4 C 0.1784(2) 0.4184(2) 0.2073(4)
H2 H 0.194607 0.419469 0.255599
C5 C 0.19267(19) 0.38829(19) 0.1483(4)
C6 C 0.1707(2) 0.3870(2) 0.0777(4)
H3 H 0.181531 0.367020 0.037332
C7 C 0.1324(2) 0.4152(2) 0.0664(4)
H4 H 0.115944 0.413358 0.018349
C8 C 0.19205(19) 0.2892(2) 0.1600(3)
H5 H 0.164643 0.303608 0.179952
C9 C 0.23091(19) 0.31509(19) 0.1458(3)
C10 C 0.2705(2) 0.2948(2) 0.1154(3)
H6 H 0.297569 0.312845 0.104332
C11 C 0.2699(2) 0.2481(2) 0.1015(3)
C12 C 0.2313(2) 0.2199(2) 0.1155(3)
H7 H 0.231711 0.187431 0.104899
C13 C 0.1923(2) 0.2419(2) 0.1456(3)
C14 C 0.34113(19) 0.20195(19) 0.1054(3)
C15 C 0.3364(2) 0.1905(2) 0.1836(3)
H8 H 0.310828 0.202041 0.213299
C16 C 0.36935(19) 0.1623(2) 0.2172(3)
H9 H 0.366075 0.154026 0.270514
C17 C 0.40746(18) 0.14537(19) 0.1755(3)
C18 C 0.4118(2) 0.1597(2) 0.0966(3)
H10 H 0.438201 0.149955 0.067082
C19 C 0.37913(19) 0.18683(19) 0.0631(3)
H11 H 0.382308 0.195609 0.009921
C20 C 0.4424(2) 0.1131(2) 0.2084(3)
C21 C 0.1344(2) 0.1839(2) 0.1229(4)
C22 C 0.1332(2) 0.1875(2) 0.0437(4)
H12 H 0.149134 0.212044 0.017664
C23 C 0.10779(19) 0.15420(19) 0.0015(3)
C24 C 0.08475(18) 0.11859(19) 0.0366(3)
C25 C 0.0868(2) 0.1152(2) 0.1190(3)
H14 H 0.071306 0.090369 0.144939
C26 C 0.1109(2) 0.1473(2) 0.1607(4)
H15 H 0.111893 0.145122 0.215946
O1 O 0.05335(13) 0.47029(13) 0.0469(2)
O2 O 0.23314(13) 0.36193(13) 0.1625(2)
O3 O 0.30986(13) 0.22870(13) 0.0641(2)
O4 O 0.15385(14) 0.21714(14) 0.1695(2)
O5 O 0.48008(12) 0.10699(12) 0.1710(2)
O6 O 0.07123(12) 0.51167(13) 0.1541(2)
O7 O 0.43319(12) 0.09402(12) 0.2755(2)
O9 O 0.03785(12) 0.05134(12) 0.0290(2)
O10 O 0.48523(11) 0.02635(11) 0.09373(19)
H16 H 0.463401 0.046005 0.083690
O11 O 0.500000 0.02945(16) 0.250000
Al5 Al 0.47599(5) 0.05798(5) 0.33700(9)
Al6 Al 0.02401(5) 0.55798(5) 0.16300(9)
Al10 Al 0.000000 0.500000 0.000000
Al12 Al 0.500000 0.000000 0.000000
O23 O 0.57123(12) 0.01167(13) 0.1541(2)
O26 O 0.56681(12) 0.09402(12) 0.2245(2)
O28 O 0.55254(11) 0.09161(12) 0.0807(2)
Al2_2 Al 0.000000 0.000000 1.000000
H13 H 0.106678 0.156627 0.946315
C27 C 0.05639(18) 0.08509(19) 0.9923(4)
O8 O 0.05254(11) 0.09161(12) 0.9193(2)
Al9 Al 0.02401(5) 0.05798(5) 0.83700(9)
Al10_2 Al 0.000000 0.500000 1.000000
Al12_2 Al 0.500000 0.000000 1.000000
Al2_3 Al 0.000000 1.000000 0.000000
H17 H 0.500000 0.992667 0.250000
Al12_3 Al 0.500000 1.000000 0.000000
O30 O 0.01477(11) 0.97365(11) 0.09373(19)
Al2_4 Al -0.000000 1.000000 1.000000
Al12_4 Al 0.500000 1.000000 1.000000
O22 O 0.05335(13) 0.97029(13) 0.9531(2)
Al2_5 Al 1.000000 0.000000 0.000000
Al3 Al 0.47599(5) 0.44202(5) 0.16300(9)
C28 C 0.92202(19) 0.0218(2) 0.1074(3)
C29 C 0.88282(19) 0.05380(19) 0.1229(3)
C30 C 0.8604(2) 0.05299(19) 0.1936(4)
H18 H 0.871363 0.032873 0.233609
C31 C 0.8216(2) 0.0816(2) 0.2073(4)
H19 H 0.805393 0.080531 0.255599
C32 C 0.80733(19) 0.11171(19) 0.1483(4)
C33 C 0.8293(2) 0.1130(2) 0.0777(4)
H20 H 0.818469 0.132980 0.037332
C34 C 0.8676(2) 0.0848(2) 0.0664(4)
H21 H 0.884056 0.086642 0.018349
C35 C 0.80795(19) 0.2108(2) 0.1600(3)
H22 H 0.835357 0.196392 0.179952
C36 C 0.76909(19) 0.18491(19) 0.1458(3)
C37 C 0.7295(2) 0.2052(2) 0.1154(3)
H23 H 0.702431 0.187155 0.104332
C38 C 0.7301(2) 0.2519(2) 0.1015(3)
C39 C 0.7687(2) 0.2801(2) 0.1155(3)
H24 H 0.768289 0.312569 0.104899
C40 C 0.8077(2) 0.2581(2) 0.1456(3)
C41 C 0.65887(19) 0.29805(19) 0.1054(3)
C42 C 0.6636(2) 0.3095(2) 0.1836(3)
H25 H 0.689172 0.297959 0.213299
C43 C 0.63065(19) 0.3377(2) 0.2172(3)
H26 H 0.633925 0.345974 0.270514
C44 C 0.59254(18) 0.35463(19) 0.1755(3)
C45 C 0.5882(2) 0.3403(2) 0.0966(3)
H27 H 0.561799 0.350045 0.067082
C46 C 0.62087(19) 0.31317(19) 0.0631(3)
H28 H 0.617692 0.304391 0.009921
C47 C 0.5576(2) 0.3869(2) 0.2084(3)
C48 C 0.8656(2) 0.3161(2) 0.1229(4)
C49 C 0.8668(2) 0.3125(2) 0.0437(4)
H29 H 0.850866 0.287956 0.017664
C50 C 0.89221(19) 0.34580(19) 0.0015(3)
C51 C 0.91525(18) 0.38141(19) 0.0366(3)
C52 C 0.9132(2) 0.3848(2) 0.1190(3)
H31 H 0.928694 0.409631 0.144939
C53 C 0.8891(2) 0.3527(2) 0.1607(4)
H32 H 0.888107 0.354878 0.215946
O12 O 0.94665(13) 0.02971(13) 0.0469(2)
O13 O 0.76686(13) 0.13807(13) 0.1625(2)
O14 O 0.69014(13) 0.27130(13) 0.0641(2)
O15 O 0.84615(14) 0.28286(14) 0.1695(2)
O16 O 0.51992(12) 0.39301(12) 0.1710(2)
O18 O 0.56681(12) 0.40598(12) 0.2755(2)
O20 O 0.96215(12) 0.44866(12) 0.0290(2)
O21 O 0.51477(11) 0.47365(11) 0.09373(19)
H33 H 0.536599 0.453995 0.083690
Al4 Al 0.52401(5) 0.44202(5) 0.33700(9)
Al10_3 Al 1.000000 0.500000 0.000000
Al11 Al 0.500000 0.500000 0.000000
O24 O 0.42877(12) 0.48833(13) 0.1541(2)
O25 O 0.43319(12) 0.40598(12) 0.2245(2)
O27 O 0.44746(11) 0.40839(12) 0.0807(2)
O32 O 0.500000 0.47055(16) 0.250000
Al2_6 Al 1.000000 0.000000 1.000000
H30 H 0.893322 0.343373 0.946315
C54 C 0.94361(18) 0.41491(19) 0.9923(4)
O19 O 0.94746(11) 0.40839(12) 0.9193(2)
Al8 Al 0.97599(5) 0.44202(5) 0.83700(9)
Al10_4 Al 1.000000 0.500000 1.000000
Al11_2 Al 0.500000 0.500000 1.000000
O31 O 0.98523(11) 0.02635(11) 0.90627(19)
Al2_7 Al 1.000000 1.000000 0.000000
O17 O 0.92877(12) 0.98833(13) 0.1541(2)
Al7 Al 0.97599(5) 0.94202(5) 0.16300(9)
Al2_8 Al 1.000000 1.000000 1.000000
O29 O 0.96215(12) 0.94866(12) 0.9710(2)
O29_2 O 0.03785(12) 0.55134(12) 0.9710(2)
O31_2 O 0.01477(11) 0.47365(11) 0.90627(19)
H17_2 H 0.500000 0.507333 0.250000
O30_2 O 0.98523(11) 0.52635(11) 0.09373(19)
O22_2 O 0.94665(13) 0.52971(13) 0.9531(2)
Al2_9 Al -0.000000 0.500000 0.500000
C1_2 C 0.07798(19) 0.0218(2) 0.3926(3)
C2_2 C 0.11718(19) 0.05380(19) 0.3771(3)
C3_2 C 0.1396(2) 0.05299(19) 0.3064(4)
H1_2 H 0.128637 0.032873 0.266391
C4_2 C 0.1784(2) 0.0816(2) 0.2927(4)
H2_2 H 0.194607 0.080531 0.244401
C5_2 C 0.19267(19) 0.11171(19) 0.3517(4)
C6_2 C 0.1707(2) 0.1130(2) 0.4223(4)
H3_2 H 0.181531 0.132980 0.462668
C7_2 C 0.1324(2) 0.0848(2) 0.4336(4)
H4_2 H 0.115944 0.086642 0.481651
C8_2 C 0.19205(19) 0.2108(2) 0.3400(3)
H5_2 H 0.164643 0.196392 0.320048
C9_2 C 0.23091(19) 0.18491(19) 0.3542(3)
C10_2 C 0.2705(2) 0.2052(2) 0.3846(3)
H6_2 H 0.297569 0.187155 0.395668
C11_2 C 0.2699(2) 0.2519(2) 0.3985(3)
C12_2 C 0.2313(2) 0.2801(2) 0.3845(3)
H7_2 H 0.231711 0.312569 0.395101
C13_2 C 0.1923(2) 0.2581(2) 0.3544(3)
C14_2 C 0.34113(19) 0.29805(19) 0.3946(3)
C15_2 C 0.3364(2) 0.3095(2) 0.3164(3)
H8_2 H 0.310828 0.297959 0.286701
C16_2 C 0.36935(19) 0.3377(2) 0.2828(3)
H9_2 H 0.366075 0.345974 0.229486
C17_2 C 0.40746(18) 0.35463(19) 0.3245(3)
C18_2 C 0.4118(2) 0.3403(2) 0.4034(3)
H10_2 H 0.438201 0.350045 0.432918
C19_2 C 0.37913(19) 0.31317(19) 0.4369(3)
H11_2 H 0.382308 0.304391 0.490079
C20_2 C 0.4424(2) 0.3869(2) 0.2916(3)
C21_2 C 0.1344(2) 0.3161(2) 0.3771(4)
C22_2 C 0.1332(2) 0.3125(2) 0.4563(4)
H12_2 H 0.149134 0.287956 0.482336
C23_2 C 0.10779(19) 0.34580(19) 0.4985(3)
H13_2 H 0.106678 0.343373 0.553685
C24_2 C 0.08475(18) 0.38141(19) 0.4634(3)
C25_2 C 0.0868(2) 0.3848(2) 0.3810(3)
H14_2 H 0.071306 0.409631 0.355061
C26_2 C 0.1109(2) 0.3527(2) 0.3393(4)
H15_2 H 0.111893 0.354878 0.284054
C27_2 C 0.05639(18) 0.41491(19) 0.5077(4)
O1_2 O 0.05335(13) 0.02971(13) 0.4531(2)
O2_2 O 0.23314(13) 0.13807(13) 0.3375(2)
O3_2 O 0.30986(13) 0.27130(13) 0.4359(2)
O4_2 O 0.15385(14) 0.28286(14) 0.3305(2)
O5_2 O 0.48008(12) 0.39301(12) 0.3290(2)
O8_2 O 0.05254(11) 0.40839(12) 0.5807(2)
O9_2 O 0.03785(12) 0.44866(12) 0.4710(2)
O10_2 O 0.48523(11) 0.47365(11) 0.40627(19)
H16_2 H 0.463401 0.453995 0.416310
Al9_2 Al 0.02401(5) 0.44202(5) 0.66300(9)
Al10_5 Al 0.000000 0.000000 0.500000
Al12_5 Al 0.500000 0.500000 0.500000
O22_3 O 0.05335(13) 0.52971(13) 0.5469(2)
O23_2 O 0.57123(12) 0.48833(13) 0.3459(2)
O28_2 O 0.55254(11) 0.40839(12) 0.4193(2)
O30_3 O 0.01477(11) 0.52635(11) 0.40627(19)
O6_2 O 0.07123(12) 0.98833(13) 0.3459(2)
Al6_2 Al 0.02401(5) 0.94202(5) 0.33700(9)
Al10_6 Al 0.000000 1.000000 0.500000
Al2_10 Al 1.000000 0.500000 0.500000
C28_2 C 0.92202(19) 0.4782(2) 0.3926(3)
C29_2 C 0.88282(19) 0.44620(19) 0.3771(3)
C30_2 C 0.8604(2) 0.44701(19) 0.3064(4)
H18_2 H 0.871363 0.467127 0.266391
C31_2 C 0.8216(2) 0.4184(2) 0.2927(4)
H19_2 H 0.805393 0.419469 0.244401
C32_2 C 0.80733(19) 0.38829(19) 0.3517(4)
C33_2 C 0.8293(2) 0.3870(2) 0.4223(4)
H20_2 H 0.818469 0.367020 0.462668
C34_2 C 0.8676(2) 0.4152(2) 0.4336(4)
H21_2 H 0.884056 0.413358 0.481651
C35_2 C 0.80795(19) 0.2892(2) 0.3400(3)
H22_2 H 0.835357 0.303608 0.320048
C36_2 C 0.76909(19) 0.31509(19) 0.3542(3)
C37_2 C 0.7295(2) 0.2948(2) 0.3846(3)
H23_2 H 0.702431 0.312845 0.395668
C38_2 C 0.7301(2) 0.2481(2) 0.3985(3)
C39_2 C 0.7687(2) 0.2199(2) 0.3845(3)
H24_2 H 0.768289 0.187431 0.395101
C40_2 C 0.8077(2) 0.2419(2) 0.3544(3)
C41_2 C 0.65887(19) 0.20195(19) 0.3946(3)
C42_2 C 0.6636(2) 0.1905(2) 0.3164(3)
H25_2 H 0.689172 0.202041 0.286701
C43_2 C 0.63065(19) 0.1623(2) 0.2828(3)
H26_2 H 0.633925 0.154026 0.229486
C44_2 C 0.59254(18) 0.14537(19) 0.3245(3)
C45_2 C 0.5882(2) 0.1597(2) 0.4034(3)
H27_2 H 0.561799 0.149955 0.432918
C46_2 C 0.62087(19) 0.18683(19) 0.4369(3)
H28_2 H 0.617692 0.195609 0.490079
C47_2 C 0.5576(2) 0.1131(2) 0.2916(3)
C48_2 C 0.8656(2) 0.1839(2) 0.3771(4)
C49_2 C 0.8668(2) 0.1875(2) 0.4563(4)
H29_2 H 0.850866 0.212044 0.482336
C50_2 C 0.89221(19) 0.15420(19) 0.4985(3)
H30_2 H 0.893322 0.156627 0.553685
C51_2 C 0.91525(18) 0.11859(19) 0.4634(3)
C52_2 C 0.9132(2) 0.1152(2) 0.3810(3)
H31_2 H 0.928694 0.090369 0.355061
C53_2 C 0.8891(2) 0.1473(2) 0.3393(4)
H32_2 H 0.888107 0.145122 0.284054
C54_2 C 0.94361(18) 0.08509(19) 0.5077(4)
O12_2 O 0.94665(13) 0.47029(13) 0.4531(2)
O13_2 O 0.76686(13) 0.36193(13) 0.3375(2)
O14_2 O 0.69014(13) 0.22870(13) 0.4359(2)
O15_2 O 0.84615(14) 0.21714(14) 0.3305(2)
O16_2 O 0.51992(12) 0.10699(12) 0.3290(2)
O17_2 O 0.92877(12) 0.51167(13) 0.3459(2)
O19_2 O 0.94746(11) 0.09161(12) 0.5807(2)
O20_2 O 0.96215(12) 0.05134(12) 0.4710(2)
O21_2 O 0.51477(11) 0.02635(11) 0.40627(19)
H33_2 H 0.536599 0.046005 0.416310
Al7_2 Al 0.97599(5) 0.55798(5) 0.33700(9)
Al8_2 Al 0.97599(5) 0.05798(5) 0.66300(9)
Al10_7 Al 1.000000 0.000000 0.500000
Al11_3 Al 0.500000 0.000000 0.500000
O24_2 O 0.42877(12) 0.01167(13) 0.3459(2)
O27_2 O 0.44746(11) 0.09161(12) 0.4193(2)
O29_3 O 0.96215(12) 0.55134(12) 0.5290(2)
O31_3 O 0.98523(11) 0.47365(11) 0.59373(19)
Al10_8 Al 1.000000 1.000000 0.500000
Al11_4 Al 0.500000 1.000000 0.500000
O31_4 O 0.01477(11) 0.02635(11) 0.59373(19)
O29_4 O 0.03785(12) 0.94866(12) 0.5290(2)
O22_4 O 0.94665(13) 0.97029(13) 0.5469(2)
O30_4 O 0.98523(11) 0.97365(11) 0.40627(19)
O11_2 O 0.000000 0.52945(16) 0.250000
H17_3 H 0.000000 0.492667 0.250000
O26_2 O 0.06681(12) 0.59402(12) 0.2245(2)
O28_3 O 0.05254(11) 0.59161(12) 0.0807(2)
C1_3 C 0.57798(19) 0.9782(2) 0.1074(3)
C2_3 C 0.61718(19) 0.94620(19) 0.1229(3)
C3_3 C 0.6396(2) 0.94701(19) 0.1936(4)
H1_3 H 0.628637 0.967127 0.233609
C4_3 C 0.6784(2) 0.9184(2) 0.2073(4)
H2_3 H 0.694607 0.919469 0.255599
C5_3 C 0.69267(19) 0.88829(19) 0.1483(4)
C6_3 C 0.6707(2) 0.8870(2) 0.0777(4)
H3_3 H 0.681531 0.867020 0.037332
C7_3 C 0.6324(2) 0.9152(2) 0.0664(4)
H4_3 H 0.615944 0.913358 0.018349
C8_3 C 0.69205(19) 0.7892(2) 0.1600(3)
H5_3 H 0.664643 0.803608 0.179952
C9_3 C 0.73091(19) 0.81509(19) 0.1458(3)
C10_3 C 0.7705(2) 0.7948(2) 0.1154(3)
H6_3 H 0.797569 0.812845 0.104332
C11_3 C 0.7699(2) 0.7481(2) 0.1015(3)
C12_3 C 0.7313(2) 0.7199(2) 0.1155(3)
H7_3 H 0.731711 0.687431 0.104899
C13_3 C 0.6923(2) 0.7419(2) 0.1456(3)
C14_3 C 0.84113(19) 0.70195(19) 0.1054(3)
C15_3 C 0.8364(2) 0.6905(2) 0.1836(3)
H8_3 H 0.810828 0.702041 0.213299
C16_3 C 0.86935(19) 0.6623(2) 0.2172(3)
H9_3 H 0.866075 0.654026 0.270514
C17_3 C 0.90746(18) 0.64537(19) 0.1755(3)
C18_3 C 0.9118(2) 0.6597(2) 0.0966(3)
H10_3 H 0.938201 0.649955 0.067082
C19_3 C 0.87913(19) 0.68683(19) 0.0631(3)
H11_3 H 0.882308 0.695609 0.009921
C20_3 C 0.9424(2) 0.6131(2) 0.2084(3)
C21_3 C 0.6344(2) 0.6839(2) 0.1229(4)
C22_3 C 0.6332(2) 0.6875(2) 0.0437(4)
H12_3 H 0.649134 0.712044 0.017664
C23_3 C 0.60779(19) 0.65420(19) 0.0015(3)
C24_3 C 0.58475(18) 0.61859(19) 0.0366(3)
C25_3 C 0.5868(2) 0.6152(2) 0.1190(3)
H14_3 H 0.571306 0.590369 0.144939
C26_3 C 0.6109(2) 0.6473(2) 0.1607(4)
H15_3 H 0.611893 0.645122 0.215946
O1_3 O 0.55335(13) 0.97029(13) 0.0469(2)
O2_3 O 0.73314(13) 0.86193(13) 0.1625(2)
O3_3 O 0.80986(13) 0.72870(13) 0.0641(2)
O4_3 O 0.65385(14) 0.71714(14) 0.1695(2)
O5_3 O 0.98008(12) 0.60699(12) 0.1710(2)
O7_2 O 0.93319(12) 0.59402(12) 0.2755(2)
O9_3 O 0.53785(12) 0.55134(12) 0.0290(2)
H16_3 H 0.963401 0.546005 0.083690
O11_3 O 1.000000 0.52945(16) 0.250000
H17_4 H 1.000000 0.492667 0.250000
C28_3 C 0.42202(19) 0.5218(2) 0.1074(3)
C29_3 C 0.38282(19) 0.55380(19) 0.1229(3)
C30_3 C 0.3604(2) 0.55299(19) 0.1936(4)
H18_3 H 0.371363 0.532873 0.233609
C31_3 C 0.3216(2) 0.5816(2) 0.2073(4)
H19_3 H 0.305393 0.580531 0.255599
C32_3 C 0.30733(19) 0.61171(19) 0.1483(4)
C33_3 C 0.3293(2) 0.6130(2) 0.0777(4)
H20_3 H 0.318469 0.632980 0.037332
C34_3 C 0.3676(2) 0.5848(2) 0.0664(4)
H21_3 H 0.384056 0.586642 0.018349
C35_3 C 0.30795(19) 0.7108(2) 0.1600(3)
H22_3 H 0.335357 0.696392 0.179952
C36_3 C 0.26909(19) 0.68491(19) 0.1458(3)
C37_3 C 0.2295(2) 0.7052(2) 0.1154(3)
H23_3 H 0.202431 0.687155 0.104332
C38_3 C 0.2301(2) 0.7519(2) 0.1015(3)
C39_3 C 0.2687(2) 0.7801(2) 0.1155(3)
H24_3 H 0.268289 0.812569 0.104899
C40_3 C 0.3077(2) 0.7581(2) 0.1456(3)
C41_3 C 0.15887(19) 0.79805(19) 0.1054(3)
C42_3 C 0.1636(2) 0.8095(2) 0.1836(3)
H25_3 H 0.189172 0.797959 0.213299
C43_3 C 0.13065(19) 0.8377(2) 0.2172(3)
H26_3 H 0.133925 0.845974 0.270514
C44_3 C 0.09254(18) 0.85463(19) 0.1755(3)
C45_3 C 0.0882(2) 0.8403(2) 0.0966(3)
H27_3 H 0.061799 0.850045 0.067082
C46_3 C 0.12087(19) 0.81317(19) 0.0631(3)
H28_3 H 0.117692 0.804391 0.009921
C47_3 C 0.0576(2) 0.8869(2) 0.2084(3)
C48_3 C 0.3656(2) 0.8161(2) 0.1229(4)
C49_3 C 0.3668(2) 0.8125(2) 0.0437(4)
H29_3 H 0.350866 0.787956 0.017664
C50_3 C 0.39221(19) 0.84580(19) 0.0015(3)
C51_3 C 0.41525(18) 0.88141(19) 0.0366(3)
C52_3 C 0.4132(2) 0.8848(2) 0.1190(3)
H31_3 H 0.428694 0.909631 0.144939
C53_3 C 0.3891(2) 0.8527(2) 0.1607(4)
H32_3 H 0.388107 0.854878 0.215946
O12_3 O 0.44665(13) 0.52971(13) 0.0469(2)
O13_3 O 0.26686(13) 0.63807(13) 0.1625(2)
O14_3 O 0.19014(13) 0.77130(13) 0.0641(2)
O15_3 O 0.34615(14) 0.78286(14) 0.1695(2)
O16_3 O 0.01992(12) 0.89301(12) 0.1710(2)
O18_2 O 0.06681(12) 0.90598(12) 0.2755(2)
O20_3 O 0.46215(12) 0.94866(12) 0.0290(2)
H33_3 H 0.036599 0.953995 0.083690
O32_2 O -0.000000 0.97055(16) 0.250000
H13_3 H 0.606678 0.656627 0.946315
C27_3 C 0.55639(18) 0.58509(19) 0.9923(4)
O8_3 O 0.55254(11) 0.59161(12) 0.9193(2)
H30_3 H 0.393322 0.843373 0.946315
C54_3 C 0.44361(18) 0.91491(19) 0.9923(4)
O19_3 O 0.44746(11) 0.90839(12) 0.9193(2)
Al8_3 Al 0.47599(5) 0.94202(5) 0.83700(9)
Al9_3 Al 0.52401(5) 0.55798(5) 0.83700(9)
O22_5 O 0.55335(13) 0.47029(13) 0.9531(2)
O29_5 O 0.46215(12) 0.44866(12) 0.9710(2)
O31_5 O 0.48523(11) 0.52635(11) 0.90627(19)
O25_2 O 0.93319(12) 0.90598(12) 0.2245(2)
O27_3 O 0.94746(11) 0.90839(12) 0.0807(2)
O32_3 O 1.000000 0.97055(16) 0.250000
H17_5 H -0.000000 0.007333 0.250000
O22_6 O 0.44665(13) 0.02971(13) 0.9531(2)
O29_6 O 0.53785(12) 0.05134(12) 0.9710(2)
O31_6 O 0.51477(11) 0.97365(11) 0.90627(19)
H17_6 H 1.000000 0.007333 0.250000
O28_4 O 0.05254(11) 0.90839(12) 0.4193(2)
O22_7 O 0.55335(13) 0.02971(13) 0.5469(2)
O29_7 O 0.46215(12) 0.05134(12) 0.5290(2)
C1_4 C 0.57798(19) 0.5218(2) 0.3926(3)
C2_4 C 0.61718(19) 0.55380(19) 0.3771(3)
C3_4 C 0.6396(2) 0.55299(19) 0.3064(4)
H1_4 H 0.628637 0.532873 0.266391
C4_4 C 0.6784(2) 0.5816(2) 0.2927(4)
H2_4 H 0.694607 0.580531 0.244401
C5_4 C 0.69267(19) 0.61171(19) 0.3517(4)
C6_4 C 0.6707(2) 0.6130(2) 0.4223(4)
H3_4 H 0.681531 0.632980 0.462668
C7_4 C 0.6324(2) 0.5848(2) 0.4336(4)
H4_4 H 0.615944 0.586642 0.481651
C8_4 C 0.69205(19) 0.7108(2) 0.3400(3)
H5_4 H 0.664643 0.696392 0.320048
C9_4 C 0.73091(19) 0.68491(19) 0.3542(3)
C10_4 C 0.7705(2) 0.7052(2) 0.3846(3)
H6_4 H 0.797569 0.687155 0.395668
C11_4 C 0.7699(2) 0.7519(2) 0.3985(3)
C12_4 C 0.7313(2) 0.7801(2) 0.3845(3)
H7_4 H 0.731711 0.812569 0.395101
C13_4 C 0.6923(2) 0.7581(2) 0.3544(3)
C14_4 C 0.84113(19) 0.79805(19) 0.3946(3)
C15_4 C 0.8364(2) 0.8095(2) 0.3164(3)
H8_4 H 0.810828 0.797959 0.286701
C16_4 C 0.86935(19) 0.8377(2) 0.2828(3)
H9_4 H 0.866075 0.845974 0.229486
C17_4 C 0.90746(18) 0.85463(19) 0.3245(3)
C18_4 C 0.9118(2) 0.8403(2) 0.4034(3)
H10_4 H 0.938201 0.850045 0.432918
C19_4 C 0.87913(19) 0.81317(19) 0.4369(3)
H11_4 H 0.882308 0.804391 0.490079
C20_4 C 0.9424(2) 0.8869(2) 0.2916(3)
C21_4 C 0.6344(2) 0.8161(2) 0.3771(4)
C22_4 C 0.6332(2) 0.8125(2) 0.4563(4)
H12_4 H 0.649134 0.787956 0.482336
C23_4 C 0.60779(19) 0.84580(19) 0.4985(3)
H13_4 H 0.606678 0.843373 0.553685
C24_4 C 0.58475(18) 0.88141(19) 0.4634(3)
C25_4 C 0.5868(2) 0.8848(2) 0.3810(3)
H14_4 H 0.571306 0.909631 0.355061
C26_4 C 0.6109(2) 0.8527(2) 0.3393(4)
H15_4 H 0.611893 0.854878 0.284054
C27_4 C 0.55639(18) 0.91491(19) 0.5077(4)
O1_4 O 0.55335(13) 0.52971(13) 0.4531(2)
O2_4 O 0.73314(13) 0.63807(13) 0.3375(2)
O3_4 O 0.80986(13) 0.77130(13) 0.4359(2)
O4_4 O 0.65385(14) 0.78286(14) 0.3305(2)
O5_4 O 0.98008(12) 0.89301(12) 0.3290(2)
O8_4 O 0.55254(11) 0.90839(12) 0.5807(2)
O9_4 O 0.53785(12) 0.94866(12) 0.4710(2)
H16_4 H 0.963401 0.953995 0.416310
C28_4 C 0.42202(19) 0.9782(2) 0.3926(3)
C29_4 C 0.38282(19) 0.94620(19) 0.3771(3)
C30_4 C 0.3604(2) 0.94701(19) 0.3064(4)
H18_4 H 0.371363 0.967127 0.266391
C31_4 C 0.3216(2) 0.9184(2) 0.2927(4)
H19_4 H 0.305393 0.919469 0.244401
C32_4 C 0.30733(19) 0.88829(19) 0.3517(4)
C33_4 C 0.3293(2) 0.8870(2) 0.4223(4)
H20_4 H 0.318469 0.867020 0.462668
C34_4 C 0.3676(2) 0.9152(2) 0.4336(4)
H21_4 H 0.384056 0.913358 0.481651
C35_4 C 0.30795(19) 0.7892(2) 0.3400(3)
H22_4 H 0.335357 0.803608 0.320048
C36_4 C 0.26909(19) 0.81509(19) 0.3542(3)
C37_4 C 0.2295(2) 0.7948(2) 0.3846(3)
H23_4 H 0.202431 0.812845 0.395668
C38_4 C 0.2301(2) 0.7481(2) 0.3985(3)
C39_4 C 0.2687(2) 0.7199(2) 0.3845(3)
H24_4 H 0.268289 0.687431 0.395101
C40_4 C 0.3077(2) 0.7419(2) 0.3544(3)
C41_4 C 0.15887(19) 0.70195(19) 0.3946(3)
C42_4 C 0.1636(2) 0.6905(2) 0.3164(3)
H25_4 H 0.189172 0.702041 0.286701
C43_4 C 0.13065(19) 0.6623(2) 0.2828(3)
H26_4 H 0.133925 0.654026 0.229486
C44_4 C 0.09254(18) 0.64537(19) 0.3245(3)
C45_4 C 0.0882(2) 0.6597(2) 0.4034(3)
H27_4 H 0.061799 0.649955 0.432918
C46_4 C 0.12087(19) 0.68683(19) 0.4369(3)
H28_4 H 0.117692 0.695609 0.490079
C47_4 C 0.0576(2) 0.6131(2) 0.2916(3)
C48_4 C 0.3656(2) 0.6839(2) 0.3771(4)
C49_4 C 0.3668(2) 0.6875(2) 0.4563(4)
H29_4 H 0.350866 0.712044 0.482336
C50_4 C 0.39221(19) 0.65420(19) 0.4985(3)
H30_4 H 0.393322 0.656627 0.553685
C51_4 C 0.41525(18) 0.61859(19) 0.4634(3)
C52_4 C 0.4132(2) 0.6152(2) 0.3810(3)
H31_4 H 0.428694 0.590369 0.355061
C53_4 C 0.3891(2) 0.6473(2) 0.3393(4)
H32_4 H 0.388107 0.645122 0.284054
C54_4 C 0.44361(18) 0.58509(19) 0.5077(4)
O12_4 O 0.44665(13) 0.97029(13) 0.4531(2)
O13_4 O 0.26686(13) 0.86193(13) 0.3375(2)
O14_4 O 0.19014(13) 0.72870(13) 0.4359(2)
O15_4 O 0.34615(14) 0.71714(14) 0.3305(2)
O16_4 O 0.01992(12) 0.60699(12) 0.3290(2)
O19_4 O 0.44746(11) 0.59161(12) 0.5807(2)
O20_4 O 0.46215(12) 0.55134(12) 0.4710(2)
H33_4 H 0.036599 0.546005 0.416310
Al8_4 Al 0.47599(5) 0.55798(5) 0.66300(9)
Al9_4 Al 0.52401(5) 0.94202(5) 0.66300(9)
O31_7 O 0.48523(11) 0.97365(11) 0.59373(19)
O27_4 O 0.94746(11) 0.59161(12) 0.4193(2)
O22_8 O 0.44665(13) 0.47029(13) 0.5469(2)
O29_8 O 0.53785(12) 0.44866(12) 0.5290(2)
O31_8 O 0.51477(11) 0.52635(11) 0.59373(19)
O17_3 O 0.07123(12) 0.01167(13) 0.8459(2)
H30_5 H 0.106678 0.656627 0.053685
C54_5 C 0.05639(18) 0.58509(19) 0.0077(4)
C28_5 C 0.07798(19) 0.9782(2) 0.8926(3)
C29_5 C 0.11718(19) 0.94620(19) 0.8771(3)
C30_5 C 0.1396(2) 0.94701(19) 0.8064(4)
H18_5 H 0.128637 0.967127 0.766391
C31_5 C 0.1784(2) 0.9184(2) 0.7927(4)
H19_5 H 0.194607 0.919469 0.744401
C32_5 C 0.19267(19) 0.88829(19) 0.8517(4)
C33_5 C 0.1707(2) 0.8870(2) 0.9223(4)
H20_5 H 0.181531 0.867020 0.962668
C34_5 C 0.1324(2) 0.9152(2) 0.9336(4)
H21_5 H 0.115944 0.913358 0.981651
C35_5 C 0.19205(19) 0.7892(2) 0.8400(3)
H22_5 H 0.164643 0.803608 0.820048
C36_5 C 0.23091(19) 0.81509(19) 0.8542(3)
C37_5 C 0.2705(2) 0.7948(2) 0.8846(3)
H23_5 H 0.297569 0.812845 0.895668
C38_5 C 0.2699(2) 0.7481(2) 0.8985(3)
C39_5 C 0.2313(2) 0.7199(2) 0.8845(3)
H24_5 H 0.231711 0.687431 0.895101
C40_5 C 0.1923(2) 0.7419(2) 0.8544(3)
C41_5 C 0.34113(19) 0.70195(19) 0.8946(3)
C42_5 C 0.3364(2) 0.6905(2) 0.8164(3)
H25_5 H 0.310828 0.702041 0.786701
C43_5 C 0.36935(19) 0.6623(2) 0.7828(3)
H26_5 H 0.366075 0.654026 0.729486
C44_5 C 0.40746(18) 0.64537(19) 0.8245(3)
C45_5 C 0.4118(2) 0.6597(2) 0.9034(3)
H27_5 H 0.438201 0.649955 0.932918
C46_5 C 0.37913(19) 0.68683(19) 0.9369(3)
H28_5 H 0.382308 0.695609 0.990079
C47_5 C 0.4424(2) 0.6131(2) 0.7916(3)
C48_5 C 0.1344(2) 0.6839(2) 0.8771(4)
C49_5 C 0.1332(2) 0.6875(2) 0.9563(4)
H29_5 H 0.149134 0.712044 0.982336
C50_5 C 0.10779(19) 0.65420(19) 0.9985(3)
C51_5 C 0.08475(18) 0.61859(19) 0.9634(3)
C52_5 C 0.0868(2) 0.6152(2) 0.8810(3)
H31_5 H 0.071306 0.590369 0.855061
C53_5 C 0.1109(2) 0.6473(2) 0.8393(4)
H32_5 H 0.111893 0.645122 0.784054
O13_5 O 0.23314(13) 0.86193(13) 0.8375(2)
O14_5 O 0.30986(13) 0.72870(13) 0.9359(2)
O15_5 O 0.15385(14) 0.71714(14) 0.8305(2)
O16_5 O 0.48008(12) 0.60699(12) 0.8290(2)
O18_3 O 0.43319(12) 0.59402(12) 0.7245(2)
H33_5 H 0.463401 0.546005 0.916310
O24_3 O 0.57123(12) 0.51167(13) 0.8459(2)
O25_3 O 0.56681(12) 0.59402(12) 0.7755(2)
O32_4 O 0.500000 0.52945(16) 0.750000
H17_7 H 0.500000 0.007333 0.750000
H13_5 H 0.893322 0.843373 0.053685
C27_5 C 0.94361(18) 0.91491(19) 0.0077(4)
C1_5 C 0.92202(19) 0.5218(2) 0.8926(3)
C2_5 C 0.88282(19) 0.55380(19) 0.8771(3)
C3_5 C 0.8604(2) 0.55299(19) 0.8064(4)
H1_5 H 0.871363 0.532873 0.766391
C4_5 C 0.8216(2) 0.5816(2) 0.7927(4)
H2_5 H 0.805393 0.580531 0.744401
C5_5 C 0.80733(19) 0.61171(19) 0.8517(4)
C6_5 C 0.8293(2) 0.6130(2) 0.9223(4)
H3_5 H 0.818469 0.632980 0.962668
C7_5 C 0.8676(2) 0.5848(2) 0.9336(4)
H4_5 H 0.884056 0.586642 0.981651
C8_5 C 0.80795(19) 0.7108(2) 0.8400(3)
H5_5 H 0.835357 0.696392 0.820048
C9_5 C 0.76909(19) 0.68491(19) 0.8542(3)
C10_5 C 0.7295(2) 0.7052(2) 0.8846(3)
H6_5 H 0.702431 0.687155 0.895668
C11_5 C 0.7301(2) 0.7519(2) 0.8985(3)
C12_5 C 0.7687(2) 0.7801(2) 0.8845(3)
H7_5 H 0.768289 0.812569 0.895101
C13_5 C 0.8077(2) 0.7581(2) 0.8544(3)
C14_5 C 0.65887(19) 0.79805(19) 0.8946(3)
C15_5 C 0.6636(2) 0.8095(2) 0.8164(3)
H8_5 H 0.689172 0.797959 0.786701
C16_5 C 0.63065(19) 0.8377(2) 0.7828(3)
H9_5 H 0.633925 0.845974 0.729486
C17_5 C 0.59254(18) 0.85463(19) 0.8245(3)
C18_5 C 0.5882(2) 0.8403(2) 0.9034(3)
H10_5 H 0.561799 0.850045 0.932918
C19_5 C 0.62087(19) 0.81317(19) 0.9369(3)
H11_5 H 0.617692 0.804391 0.990079
C20_5 C 0.5576(2) 0.8869(2) 0.7916(3)
C21_5 C 0.8656(2) 0.8161(2) 0.8771(4)
C22_5 C 0.8668(2) 0.8125(2) 0.9563(4)
H12_5 H 0.850866 0.787956 0.982336
C23_5 C 0.89221(19) 0.84580(19) 0.9985(3)
C24_5 C 0.91525(18) 0.88141(19) 0.9634(3)
C25_5 C 0.9132(2) 0.8848(2) 0.8810(3)
H14_5 H 0.928694 0.909631 0.855061
C26_5 C 0.8891(2) 0.8527(2) 0.8393(4)
H15_5 H 0.888107 0.854878 0.784054
O2_5 O 0.76686(13) 0.63807(13) 0.8375(2)
O3_5 O 0.69014(13) 0.77130(13) 0.9359(2)
O4_5 O 0.84615(14) 0.78286(14) 0.8305(2)
O5_5 O 0.51992(12) 0.89301(12) 0.8290(2)
O6_3 O 0.92877(12) 0.48833(13) 0.8459(2)
O7_3 O 0.56681(12) 0.90598(12) 0.7245(2)
H16_5 H 0.536599 0.953995 0.916310
O11_4 O 0.500000 0.97055(16) 0.750000
O23_3 O 0.42877(12) 0.98833(13) 0.8459(2)
O26_3 O 0.43319(12) 0.90598(12) 0.7755(2)
H17_8 H 0.500000 0.492667 0.750000
C28_6 C 0.07798(19) 0.5218(2) 0.6074(3)
C29_6 C 0.11718(19) 0.55380(19) 0.6229(3)
C30_6 C 0.1396(2) 0.55299(19) 0.6936(4)
H18_6 H 0.128637 0.532873 0.733609
C31_6 C 0.1784(2) 0.5816(2) 0.7073(4)
H19_6 H 0.194607 0.580531 0.755599
C32_6 C 0.19267(19) 0.61171(19) 0.6483(4)
C33_6 C 0.1707(2) 0.6130(2) 0.5777(4)
H20_6 H 0.181531 0.632980 0.537332
C34_6 C 0.1324(2) 0.5848(2) 0.5664(4)
H21_6 H 0.115944 0.586642 0.518349
C35_6 C 0.19205(19) 0.7108(2) 0.6600(3)
H22_6 H 0.164643 0.696392 0.679952
C36_6 C 0.23091(19) 0.68491(19) 0.6458(3)
C37_6 C 0.2705(2) 0.7052(2) 0.6154(3)
H23_6 H 0.297569 0.687155 0.604332
C38_6 C 0.2699(2) 0.7519(2) 0.6015(3)
C39_6 C 0.2313(2) 0.7801(2) 0.6155(3)
H24_6 H 0.231711 0.812569 0.604899
C40_6 C 0.1923(2) 0.7581(2) 0.6456(3)
C41_6 C 0.34113(19) 0.79805(19) 0.6054(3)
C42_6 C 0.3364(2) 0.8095(2) 0.6836(3)
H25_6 H 0.310828 0.797959 0.713299
C43_6 C 0.36935(19) 0.8377(2) 0.7172(3)
H26_6 H 0.366075 0.845974 0.770514
C44_6 C 0.40746(18) 0.85463(19) 0.6755(3)
C45_6 C 0.4118(2) 0.8403(2) 0.5966(3)
H27_6 H 0.438201 0.850045 0.567082
C46_6 C 0.37913(19) 0.81317(19) 0.5631(3)
H28_6 H 0.382308 0.804391 0.509921
C47_6 C 0.4424(2) 0.8869(2) 0.7084(3)
C48_6 C 0.1344(2) 0.8161(2) 0.6229(4)
C49_6 C 0.1332(2) 0.8125(2) 0.5437(4)
H29_6 H 0.149134 0.787956 0.517664
C50_6 C 0.10779(19) 0.84580(19) 0.5015(3)
H30_6 H 0.106678 0.843373 0.446315
C51_6 C 0.08475(18) 0.88141(19) 0.5366(3)
C52_6 C 0.0868(2) 0.8848(2) 0.6190(3)
H31_6 H 0.071306 0.909631 0.644939
C53_6 C 0.1109(2) 0.8527(2) 0.6607(4)
H32_6 H 0.111893 0.854878 0.715946
C54_6 C 0.05639(18) 0.91491(19) 0.4923(4)
O13_6 O 0.23314(13) 0.63807(13) 0.6625(2)
O14_6 O 0.30986(13) 0.77130(13) 0.5641(2)
O15_6 O 0.15385(14) 0.78286(14) 0.6695(2)
O16_6 O 0.48008(12) 0.89301(12) 0.6710(2)
O17_4 O 0.07123(12) 0.48833(13) 0.6541(2)
H33_6 H 0.463401 0.953995 0.583690
O24_4 O 0.57123(12) 0.98833(13) 0.6541(2)
O6_4 O 0.92877(12) 0.01167(13) 0.6541(2)
C1_6 C 0.92202(19) 0.9782(2) 0.6074(3)
C2_6 C 0.88282(19) 0.94620(19) 0.6229(3)
C3_6 C 0.8604(2) 0.94701(19) 0.6936(4)
H1_6 H 0.871363 0.967127 0.733609
C4_6 C 0.8216(2) 0.9184(2) 0.7073(4)
H2_6 H 0.805393 0.919469 0.755599
C5_6 C 0.80733(19) 0.88829(19) 0.6483(4)
C6_6 C 0.8293(2) 0.8870(2) 0.5777(4)
H3_6 H 0.818469 0.867020 0.537332
C7_6 C 0.8676(2) 0.9152(2) 0.5664(4)
H4_6 H 0.884056 0.913358 0.518349
C8_6 C 0.80795(19) 0.7892(2) 0.6600(3)
H5_6 H 0.835357 0.803608 0.679952
C9_6 C 0.76909(19) 0.81509(19) 0.6458(3)
C10_6 C 0.7295(2) 0.7948(2) 0.6154(3)
H6_6 H 0.702431 0.812845 0.604332
C11_6 C 0.7301(2) 0.7481(2) 0.6015(3)
C12_6 C 0.7687(2) 0.7199(2) 0.6155(3)
H7_6 H 0.768289 0.687431 0.604899
C13_6 C 0.8077(2) 0.7419(2) 0.6456(3)
C14_6 C 0.65887(19) 0.70195(19) 0.6054(3)
C15_6 C 0.6636(2) 0.6905(2) 0.6836(3)
H8_6 H 0.689172 0.702041 0.713299
C16_6 C 0.63065(19) 0.6623(2) 0.7172(3)
H9_6 H 0.633925 0.654026 0.770514
C17_6 C 0.59254(18) 0.64537(19) 0.6755(3)
C18_6 C 0.5882(2) 0.6597(2) 0.5966(3)
H10_6 H 0.561799 0.649955 0.567082
C19_6 C 0.62087(19) 0.68683(19) 0.5631(3)
H11_6 H 0.617692 0.695609 0.509921
C20_6 C 0.5576(2) 0.6131(2) 0.7084(3)
C21_6 C 0.8656(2) 0.6839(2) 0.6229(4)
C22_6 C 0.8668(2) 0.6875(2) 0.5437(4)
H12_6 H 0.850866 0.712044 0.517664
C23_6 C 0.89221(19) 0.65420(19) 0.5015(3)
H13_6 H 0.893322 0.656627 0.446315
C24_6 C 0.91525(18) 0.61859(19) 0.5366(3)
C25_6 C 0.9132(2) 0.6152(2) 0.6190(3)
H14_6 H 0.928694 0.590369 0.644939
C26_6 C 0.8891(2) 0.6473(2) 0.6607(4)
H15_6 H 0.888107 0.645122 0.715946
C27_6 C 0.94361(18) 0.58509(19) 0.4923(4)
O2_6 O 0.76686(13) 0.86193(13) 0.6625(2)
O3_6 O 0.69014(13) 0.72870(13) 0.5641(2)
O4_6 O 0.84615(14) 0.71714(14) 0.6695(2)
O5_6 O 0.51992(12) 0.60699(12) 0.6710(2)
H16_6 H 0.536599 0.546005 0.583690
O23_4 O 0.42877(12) 0.51167(13) 0.6541(2)
O25_4 O 0.06681(12) 0.09402(12) 0.7755(2)
O32_5 O -0.000000 0.02945(16) 0.750000
H13_7 H 0.393322 0.343373 0.053685
C27_7 C 0.44361(18) 0.41491(19) 0.0077(4)
H30_7 H 0.606678 0.156627 0.053685
C54_7 C 0.55639(18) 0.08509(19) 0.0077(4)
C1_7 C 0.42202(19) 0.0218(2) 0.8926(3)
C2_7 C 0.38282(19) 0.05380(19) 0.8771(3)
C3_7 C 0.3604(2) 0.05299(19) 0.8064(4)
H1_7 H 0.371363 0.032873 0.766391
C4_7 C 0.3216(2) 0.0816(2) 0.7927(4)
H2_7 H 0.305393 0.080531 0.744401
C5_7 C 0.30733(19) 0.11171(19) 0.8517(4)
C6_7 C 0.3293(2) 0.1130(2) 0.9223(4)
H3_7 H 0.318469 0.132980 0.962668
C7_7 C 0.3676(2) 0.0848(2) 0.9336(4)
H4_7 H 0.384056 0.086642 0.981651
C8_7 C 0.30795(19) 0.2108(2) 0.8400(3)
H5_7 H 0.335357 0.196392 0.820048
C9_7 C 0.26909(19) 0.18491(19) 0.8542(3)
C10_7 C 0.2295(2) 0.2052(2) 0.8846(3)
H6_7 H 0.202431 0.187155 0.895668
C11_7 C 0.2301(2) 0.2519(2) 0.8985(3)
C12_7 C 0.2687(2) 0.2801(2) 0.8845(3)
H7_7 H 0.268289 0.312569 0.895101
C13_7 C 0.3077(2) 0.2581(2) 0.8544(3)
C14_7 C 0.15887(19) 0.29805(19) 0.8946(3)
C15_7 C 0.1636(2) 0.3095(2) 0.8164(3)
H8_7 H 0.189172 0.297959 0.786701
C16_7 C 0.13065(19) 0.3377(2) 0.7828(3)
H9_7 H 0.133925 0.345974 0.729486
C17_7 C 0.09254(18) 0.35463(19) 0.8245(3)
C18_7 C 0.0882(2) 0.3403(2) 0.9034(3)
H10_7 H 0.061799 0.350045 0.932918
C19_7 C 0.12087(19) 0.31317(19) 0.9369(3)
H11_7 H 0.117692 0.304391 0.990079
C20_7 C 0.0576(2) 0.3869(2) 0.7916(3)
C21_7 C 0.3656(2) 0.3161(2) 0.8771(4)
C22_7 C 0.3668(2) 0.3125(2) 0.9563(4)
H12_7 H 0.350866 0.287956 0.982336
C23_7 C 0.39221(19) 0.34580(19) 0.9985(3)
C24_7 C 0.41525(18) 0.38141(19) 0.9634(3)
C25_7 C 0.4132(2) 0.3848(2) 0.8810(3)
H14_7 H 0.428694 0.409631 0.855061
C26_7 C 0.3891(2) 0.3527(2) 0.8393(4)
H15_7 H 0.388107 0.354878 0.784054
O2_7 O 0.26686(13) 0.13807(13) 0.8375(2)
O3_7 O 0.19014(13) 0.27130(13) 0.9359(2)
O4_7 O 0.34615(14) 0.28286(14) 0.8305(2)
O5_7 O 0.01992(12) 0.39301(12) 0.8290(2)
O7_4 O 0.06681(12) 0.40598(12) 0.7245(2)
H16_7 H 0.036599 0.453995 0.916310
O11_5 O 0.000000 0.47055(16) 0.750000
H17_9 H 0.000000 0.507333 0.750000
C28_7 C 0.57798(19) 0.4782(2) 0.8926(3)
C29_7 C 0.61718(19) 0.44620(19) 0.8771(3)
C30_7 C 0.6396(2) 0.44701(19) 0.8064(4)
H18_7 H 0.628637 0.467127 0.766391
C31_7 C 0.6784(2) 0.4184(2) 0.7927(4)
H19_7 H 0.694607 0.419469 0.744401
C32_7 C 0.69267(19) 0.38829(19) 0.8517(4)
C33_7 C 0.6707(2) 0.3870(2) 0.9223(4)
H20_7 H 0.681531 0.367020 0.962668
C34_7 C 0.6324(2) 0.4152(2) 0.9336(4)
H21_7 H 0.615944 0.413358 0.981651
C35_7 C 0.69205(19) 0.2892(2) 0.8400(3)
H22_7 H 0.664643 0.303608 0.820048
C36_7 C 0.73091(19) 0.31509(19) 0.8542(3)
C37_7 C 0.7705(2) 0.2948(2) 0.8846(3)
H23_7 H 0.797569 0.312845 0.895668
C38_7 C 0.7699(2) 0.2481(2) 0.8985(3)
C39_7 C 0.7313(2) 0.2199(2) 0.8845(3)
H24_7 H 0.731711 0.187431 0.895101
C40_7 C 0.6923(2) 0.2419(2) 0.8544(3)
C41_7 C 0.84113(19) 0.20195(19) 0.8946(3)
C42_7 C 0.8364(2) 0.1905(2) 0.8164(3)
H25_7 H 0.810828 0.202041 0.786701
C43_7 C 0.86935(19) 0.1623(2) 0.7828(3)
H26_7 H 0.866075 0.154026 0.729486
C44_7 C 0.90746(18) 0.14537(19) 0.8245(3)
C45_7 C 0.9118(2) 0.1597(2) 0.9034(3)
H27_7 H 0.938201 0.149955 0.932918
C46_7 C 0.87913(19) 0.18683(19) 0.9369(3)
H28_7 H 0.882308 0.195609 0.990079
C47_7 C 0.9424(2) 0.1131(2) 0.7916(3)
C48_7 C 0.6344(2) 0.1839(2) 0.8771(4)
C49_7 C 0.6332(2) 0.1875(2) 0.9563(4)
H29_7 H 0.649134 0.212044 0.982336
C50_7 C 0.60779(19) 0.15420(19) 0.9985(3)
C51_7 C 0.58475(18) 0.11859(19) 0.9634(3)
C52_7 C 0.5868(2) 0.1152(2) 0.8810(3)
H31_7 H 0.571306 0.090369 0.855061
C53_7 C 0.6109(2) 0.1473(2) 0.8393(4)
H32_7 H 0.611893 0.145122 0.784054
O13_7 O 0.73314(13) 0.36193(13) 0.8375(2)
O14_7 O 0.80986(13) 0.22870(13) 0.9359(2)
O15_7 O 0.65385(14) 0.21714(14) 0.8305(2)
O16_7 O 0.98008(12) 0.10699(12) 0.8290(2)
O18_4 O 0.93319(12) 0.09402(12) 0.7245(2)
H33_7 H 0.963401 0.046005 0.916310
O32_6 O 1.000000 0.02945(16) 0.750000
O11_6 O 1.000000 0.47055(16) 0.750000
H17_10 H 1.000000 0.507333 0.750000
O26_4 O 0.93319(12) 0.40598(12) 0.7755(2)
H17_11 H -0.000000 0.992667 0.750000
H17_12 H 1.000000 0.992667 0.750000
C1_8 C 0.42202(19) 0.4782(2) 0.6074(3)
C2_8 C 0.38282(19) 0.44620(19) 0.6229(3)
C3_8 C 0.3604(2) 0.44701(19) 0.6936(4)
H1_8 H 0.371363 0.467127 0.733609
C4_8 C 0.3216(2) 0.4184(2) 0.7073(4)
H2_8 H 0.305393 0.419469 0.755599
C5_8 C 0.30733(19) 0.38829(19) 0.6483(4)
C6_8 C 0.3293(2) 0.3870(2) 0.5777(4)
H3_8 H 0.318469 0.367020 0.537332
C7_8 C 0.3676(2) 0.4152(2) 0.5664(4)
H4_8 H 0.384056 0.413358 0.518349
C8_8 C 0.30795(19) 0.2892(2) 0.6600(3)
H5_8 H 0.335357 0.303608 0.679952
C9_8 C 0.26909(19) 0.31509(19) 0.6458(3)
C10_8 C 0.2295(2) 0.2948(2) 0.6154(3)
H6_8 H 0.202431 0.312845 0.604332
C11_8 C 0.2301(2) 0.2481(2) 0.6015(3)
C12_8 C 0.2687(2) 0.2199(2) 0.6155(3)
H7_8 H 0.268289 0.187431 0.604899
C13_8 C 0.3077(2) 0.2419(2) 0.6456(3)
C14_8 C 0.15887(19) 0.20195(19) 0.6054(3)
C15_8 C 0.1636(2) 0.1905(2) 0.6836(3)
H8_8 H 0.189172 0.202041 0.713299
C16_8 C 0.13065(19) 0.1623(2) 0.7172(3)
H9_8 H 0.133925 0.154026 0.770514
C17_8 C 0.09254(18) 0.14537(19) 0.6755(3)
C18_8 C 0.0882(2) 0.1597(2) 0.5966(3)
H10_8 H 0.061799 0.149955 0.567082
C19_8 C 0.12087(19) 0.18683(19) 0.5631(3)
H11_8 H 0.117692 0.195609 0.509921
C20_8 C 0.0576(2) 0.1131(2) 0.7084(3)
C21_8 C 0.3656(2) 0.1839(2) 0.6229(4)
C22_8 C 0.3668(2) 0.1875(2) 0.5437(4)
H12_8 H 0.350866 0.212044 0.517664
C23_8 C 0.39221(19) 0.15420(19) 0.5015(3)
H13_8 H 0.393322 0.156627 0.446315
C24_8 C 0.41525(18) 0.11859(19) 0.5366(3)
C25_8 C 0.4132(2) 0.1152(2) 0.6190(3)
H14_8 H 0.428694 0.090369 0.644939
C26_8 C 0.3891(2) 0.1473(2) 0.6607(4)
H15_8 H 0.388107 0.145122 0.715946
C27_8 C 0.44361(18) 0.08509(19) 0.4923(4)
O2_8 O 0.26686(13) 0.36193(13) 0.6625(2)
O3_8 O 0.19014(13) 0.22870(13) 0.5641(2)
O4_8 O 0.34615(14) 0.21714(14) 0.6695(2)
O5_8 O 0.01992(12) 0.10699(12) 0.6710(2)
H16_8 H 0.036599 0.046005 0.583690
C28_8 C 0.57798(19) 0.0218(2) 0.6074(3)
C29_8 C 0.61718(19) 0.05380(19) 0.6229(3)
C30_8 C 0.6396(2) 0.05299(19) 0.6936(4)
H18_8 H 0.628637 0.032873 0.733609
C31_8 C 0.6784(2) 0.0816(2) 0.7073(4)
H19_8 H 0.694607 0.080531 0.755599
C32_8 C 0.69267(19) 0.11171(19) 0.6483(4)
C33_8 C 0.6707(2) 0.1130(2) 0.5777(4)
H20_8 H 0.681531 0.132980 0.537332
C34_8 C 0.6324(2) 0.0848(2) 0.5664(4)
H21_8 H 0.615944 0.086642 0.518349
C35_8 C 0.69205(19) 0.2108(2) 0.6600(3)
H22_8 H 0.664643 0.196392 0.679952
C36_8 C 0.73091(19) 0.18491(19) 0.6458(3)
C37_8 C 0.7705(2) 0.2052(2) 0.6154(3)
H23_8 H 0.797569 0.187155 0.604332
C38_8 C 0.7699(2) 0.2519(2) 0.6015(3)
C39_8 C 0.7313(2) 0.2801(2) 0.6155(3)
H24_8 H 0.731711 0.312569 0.604899
C40_8 C 0.6923(2) 0.2581(2) 0.6456(3)
C41_8 C 0.84113(19) 0.29805(19) 0.6054(3)
C42_8 C 0.8364(2) 0.3095(2) 0.6836(3)
H25_8 H 0.810828 0.297959 0.713299
C43_8 C 0.86935(19) 0.3377(2) 0.7172(3)
H26_8 H 0.866075 0.345974 0.770514
C44_8 C 0.90746(18) 0.35463(19) 0.6755(3)
C45_8 C 0.9118(2) 0.3403(2) 0.5966(3)
H27_8 H 0.938201 0.350045 0.567082
C46_8 C 0.87913(19) 0.31317(19) 0.5631(3)
H28_8 H 0.882308 0.304391 0.509921
C47_8 C 0.9424(2) 0.3869(2) 0.7084(3)
C48_8 C 0.6344(2) 0.3161(2) 0.6229(4)
C49_8 C 0.6332(2) 0.3125(2) 0.5437(4)
H29_8 H 0.649134 0.287956 0.517664
C50_8 C 0.60779(19) 0.34580(19) 0.5015(3)
H30_8 H 0.606678 0.343373 0.446315
C51_8 C 0.58475(18) 0.38141(19) 0.5366(3)
C52_8 C 0.5868(2) 0.3848(2) 0.6190(3)
H31_8 H 0.571306 0.409631 0.644939
C53_8 C 0.6109(2) 0.3527(2) 0.6607(4)
H32_8 H 0.611893 0.354878 0.715946
C54_8 C 0.55639(18) 0.41491(19) 0.4923(4)
O13_8 O 0.73314(13) 0.13807(13) 0.6625(2)
O14_8 O 0.80986(13) 0.27130(13) 0.5641(2)
O15_8 O 0.65385(14) 0.28286(14) 0.6695(2)
O16_8 O 0.98008(12) 0.39301(12) 0.6710(2)
H33_8 H 0.963401 0.453995 0.583690
loop_
_geom_bond_atom_site_label_1
_geom_bond_atom_site_label_2
_geom_bond_site_symmetry_1
_geom_bond_site_symmetry_2
Al1 O5 1_555 1_555
Al2 O9 1_555 1_555
C1 C2 1_555 1_555
C2 C3 1_555 1_555
C3 H1 1_555 1_555
C4 C3 1_555 1_555
H2 C4 1_555 1_555
C5 C4 1_555 1_555
C6 C5 1_555 1_555
H3 C6 1_555 1_555
C7 C2 1_555 1_555
H4 C7 1_555 1_555
C8 H5 1_555 1_555
C9 C8 1_555 1_555
C10 C9 1_555 1_555
H6 C10 1_555 1_555
C11 C10 1_555 1_555
C12 C11 1_555 1_555
H7 C12 1_555 1_555
C13 C8 1_555 1_555
C14 C15 1_555 1_555
C15 H8 1_555 1_555
C16 C15 1_555 1_555
H9 C16 1_555 1_555
C17 C16 1_555 1_555
C18 C17 1_555 1_555
H10 C18 1_555 1_555
C19 C14 1_555 1_555
H11 C19 1_555 1_555
C20 C17 1_555 1_555
C21 C22 1_555 1_555
C22 H12 1_555 1_555
C23 C22 1_555 1_555
C24 C23 1_555 1_555
C25 C24 1_555 1_555
H14 C25 1_555 1_555
C26 C21 1_555 1_555
H15 C26 1_555 1_555
O1 C1 1_555 1_555
O2 C5 1_555 1_555
O3 C11 1_555 1_555
O4 C13 1_555 1_555
O5 C20 1_555 1_555
O6 C1 1_555 1_555
O7 C20 1_555 1_555
O10 Al1 1_555 1_555
H16 O10 1_555 1_555
O11 Al1 1_555 1_555
Al5 O7 1_555 1_555
Al6 O6 1_555 1_555
Al10 O1 1_555 1_555
Al12 O10 1_555 1_555
O23 Al1 1_555 1_555
O26 Al1 1_555 1_555
O28 Al1 1_555 1_555
C6 C7 1_555 1_555
C9 O2 1_555 1_555
C12 C13 1_555 1_555
C14 O3 1_555 1_555
C18 C19 1_555 1_555
C21 O4 1_555 1_555
C25 C26 1_555 1_555
O11 Al5 1_555 1_555
O8 C27 1_555 1_555
Al9 O8 1_555 1_555
O30 Al2_3 1_555 1_555
O22 Al2_4 1_555 1_555
Al3 O16 1_555 1_555
C28 C29 1_555 1_555
C29 C30 1_555 1_555
C30 H18 1_555 1_555
C31 C30 1_555 1_555
H19 C31 1_555 1_555
C32 C31 1_555 1_555
C33 C32 1_555 1_555
H20 C33 1_555 1_555
C34 C29 1_555 1_555
H21 C34 1_555 1_555
C35 H22 1_555 1_555
C36 C35 1_555 1_555
C37 C36 1_555 1_555
H23 C37 1_555 1_555
C38 C37 1_555 1_555
C39 C38 1_555 1_555
H24 C39 1_555 1_555
C40 C35 1_555 1_555
C41 C42 1_555 1_555
C42 H25 1_555 1_555
C43 C42 1_555 1_555
H26 C43 1_555 1_555
C44 C43 1_555 1_555
C45 C44 1_555 1_555
H27 C45 1_555 1_555
C46 C41 1_555 1_555
H28 C46 1_555 1_555
C47 C44 1_555 1_555
C48 C49 1_555 1_555
C49 H29 1_555 1_555
C50 C49 1_555 1_555
C51 C50 1_555 1_555
C52 C51 1_555 1_555
H31 C52 1_555 1_555
C53 C48 1_555 1_555
H32 C53 1_555 1_555
O12 Al2_5 1_555 1_555
O13 C32 1_555 1_555
O14 C38 1_555 1_555
O15 C40 1_555 1_555
O16 C47 1_555 1_555
O18 C47 1_555 1_555
O21 Al3 1_555 1_555
H33 O21 1_555 1_555
Al4 O18 1_555 1_555
Al11 O21 1_555 1_555
O24 Al3 1_555 1_555
O25 Al3 1_555 1_555
O27 Al3 1_555 1_555
O32 Al3 1_555 1_555
C28 O12 1_555 1_555
C33 C34 1_555 1_555
C36 O13 1_555 1_555
C39 C40 1_555 1_555
C41 O14 1_555 1_555
C45 C46 1_555 1_555
C48 O15 1_555 1_555
C52 C53 1_555 1_555
O20 Al10_3 1_555 1_555
Al4 O32 1_555 1_555
O19 C54 1_555 1_555
Al8 O19 1_555 1_555
O31 Al2_6 1_555 1_555
Al7 O17 1_555 1_555
O29 Al2_8 1_555 1_555
O29_2 Al10_2 1_555 1_555
O31_2 Al10_2 1_555 1_555
H17_2 O32 1_555 1_555
O30_2 Al10_3 1_555 1_555
O22_2 Al10_4 1_555 1_555
Al4 O5_2 1_555 1_555
Al2_9 O9_2 1_555 1_555
C1_2 C2_2 1_555 1_555
C2_2 C3_2 1_555 1_555
C3_2 H1_2 1_555 1_555
C4_2 C3_2 1_555 1_555
H2_2 C4_2 1_555 1_555
C5_2 C4_2 1_555 1_555
C6_2 C5_2 1_555 1_555
H3_2 C6_2 1_555 1_555
C7_2 C2_2 1_555 1_555
H4_2 C7_2 1_555 1_555
C8_2 H5_2 1_555 1_555
C9_2 C8_2 1_555 1_555
C10_2 C9_2 1_555 1_555
H6_2 C10_2 1_555 1_555
C11_2 C10_2 1_555 1_555
C12_2 C11_2 1_555 1_555
H7_2 C12_2 1_555 1_555
C13_2 C8_2 1_555 1_555
C14_2 C15_2 1_555 1_555
C15_2 H8_2 1_555 1_555
C16_2 C15_2 1_555 1_555
H9_2 C16_2 1_555 1_555
C17_2 C16_2 1_555 1_555
C18_2 C17_2 1_555 1_555
H10_2 C18_2 1_555 1_555
C19_2 C14_2 1_555 1_555
H11_2 C19_2 1_555 1_555
C20_2 C17_2 1_555 1_555
C21_2 C22_2 1_555 1_555
C22_2 H12_2 1_555 1_555
C23_2 C22_2 1_555 1_555
H13_2 C23_2 1_555 1_555
C24_2 C23_2 1_555 1_555
C25_2 C24_2 1_555 1_555
H14_2 C25_2 1_555 1_555
C26_2 C21_2 1_555 1_555
H15_2 C26_2 1_555 1_555
C27_2 C24_2 1_555 1_555
O1_2 C1_2 1_555 1_555
O2_2 C5_2 1_555 1_555
O3_2 C11_2 1_555 1_555
O4_2 C13_2 1_555 1_555
O5_2 C20_2 1_555 1_555
O25 C20_2 1_555 1_555
O8_2 C27_2 1_555 1_555
O9_2 C27_2 1_555 1_555
O10_2 Al4 1_555 1_555
H16_2 O10_2 1_555 1_555
Al9_2 O8_2 1_555 1_555
Al10_5 O1_2 1_555 1_555
Al12_5 O10_2 1_555 1_555
O22_3 Al2_9 1_555 1_555
O23_2 Al4 1_555 1_555
O28_2 Al4 1_555 1_555
O30_3 Al2_9 1_555 1_555
C6_2 C7_2 1_555 1_555
C9_2 O2_2 1_555 1_555
C12_2 C13_2 1_555 1_555
C14_2 O3_2 1_555 1_555
C18_2 C19_2 1_555 1_555
C21_2 O4_2 1_555 1_555
C25_2 C26_2 1_555 1_555
Al6_2 O6_2 1_555 1_555
Al5 O16_2 1_555 1_555
C28_2 C29_2 1_555 1_555
C29_2 C30_2 1_555 1_555
C30_2 H18_2 1_555 1_555
C31_2 C30_2 1_555 1_555
H19_2 C31_2 1_555 1_555
C32_2 C31_2 1_555 1_555
C33_2 C32_2 1_555 1_555
H20_2 C33_2 1_555 1_555
C34_2 C29_2 1_555 1_555
H21_2 C34_2 1_555 1_555
C35_2 H22_2 1_555 1_555
C36_2 C35_2 1_555 1_555
C37_2 C36_2 1_555 1_555
H23_2 C37_2 1_555 1_555
C38_2 C37_2 1_555 1_555
C39_2 C38_2 1_555 1_555
H24_2 C39_2 1_555 1_555
C40_2 C35_2 1_555 1_555
C41_2 C42_2 1_555 1_555
C42_2 H25_2 1_555 1_555
C43_2 C42_2 1_555 1_555
H26_2 C43_2 1_555 1_555
C44_2 C43_2 1_555 1_555
C45_2 C44_2 1_555 1_555
H27_2 C45_2 1_555 1_555
C46_2 C41_2 1_555 1_555
H28_2 C46_2 1_555 1_555
C47_2 C44_2 1_555 1_555
C48_2 C49_2 1_555 1_555
C49_2 H29_2 1_555 1_555
C50_2 C49_2 1_555 1_555
H30_2 C50_2 1_555 1_555
C51_2 C50_2 1_555 1_555
C52_2 C51_2 1_555 1_555
H31_2 C52_2 1_555 1_555
C53_2 C48_2 1_555 1_555
H32_2 C53_2 1_555 1_555
C54_2 C51_2 1_555 1_555
O12_2 Al2_10 1_555 1_555
O13_2 C32_2 1_555 1_555
O14_2 C38_2 1_555 1_555
O15_2 C40_2 1_555 1_555
O16_2 C47_2 1_555 1_555
O17_2 C28_2 1_555 1_555
O26 C47_2 1_555 1_555
O19_2 C54_2 1_555 1_555
O20_2 C54_2 1_555 1_555
O21_2 Al5 1_555 1_555
H33_2 O21_2 1_555 1_555
Al7_2 O17_2 1_555 1_555
Al8_2 O19_2 1_555 1_555
Al11_3 O21_2 1_555 1_555
O24_2 Al5 1_555 1_555
O27_2 Al5 1_555 1_555
O29_3 Al2_10 1_555 1_555
O31_3 Al2_10 1_555 1_555
C28_2 O12_2 1_555 1_555
C33_2 C34_2 1_555 1_555
C36_2 O13_2 1_555 1_555
C39_2 C40_2 1_555 1_555
C41_2 O14_2 1_555 1_555
C45_2 C46_2 1_555 1_555
C48_2 O15_2 1_555 1_555
C52_2 C53_2 1_555 1_555
O20_2 Al10_7 1_555 1_555
O31_4 Al10_5 1_555 1_555
O29_4 Al10_6 1_555 1_555
O22_4 Al10_8 1_555 1_555
O30_4 Al10_8 1_555 1_555
O11_2 Al6 1_555 1_555
H17_3 O11_2 1_555 1_555
O26_2 Al6 1_555 1_555
O28_3 Al6 1_555 1_555
Al11 O9_3 1_555 1_555
C1_3 C2_3 1_555 1_555
C2_3 C3_3 1_555 1_555
C3_3 H1_3 1_555 1_555
C4_3 C3_3 1_555 1_555
H2_3 C4_3 1_555 1_555
C5_3 C4_3 1_555 1_555
C6_3 C5_3 1_555 1_555
H3_3 C6_3 1_555 1_555
C7_3 C2_3 1_555 1_555
H4_3 C7_3 1_555 1_555
C8_3 H5_3 1_555 1_555
C9_3 C8_3 1_555 1_555
C10_3 C9_3 1_555 1_555
H6_3 C10_3 1_555 1_555
C11_3 C10_3 1_555 1_555
C12_3 C11_3 1_555 1_555
H7_3 C12_3 1_555 1_555
C13_3 C8_3 1_555 1_555
C14_3 C15_3 1_555 1_555
C15_3 H8_3 1_555 1_555
C16_3 C15_3 1_555 1_555
H9_3 C16_3 1_555 1_555
C17_3 C16_3 1_555 1_555
C18_3 C17_3 1_555 1_555
H10_3 C18_3 1_555 1_555
C19_3 C14_3 1_555 1_555
H11_3 C19_3 1_555 1_555
C20_3 C17_3 1_555 1_555
C21_3 C22_3 1_555 1_555
C22_3 H12_3 1_555 1_555
C23_3 C22_3 1_555 1_555
C24_3 C23_3 1_555 1_555
C25_3 C24_3 1_555 1_555
H14_3 C25_3 1_555 1_555
C26_3 C21_3 1_555 1_555
H15_3 C26_3 1_555 1_555
O1_3 C1_3 1_555 1_555
O2_3 C5_3 1_555 1_555
O3_3 C11_3 1_555 1_555
O4_3 C13_3 1_555 1_555
O5_3 C20_3 1_555 1_555
O7_2 C20_3 1_555 1_555
H16_3 O30_2 1_555 1_555
H17_4 O11_3 1_555 1_555
C28_3 C29_3 1_555 1_555
C29_3 C30_3 1_555 1_555
C30_3 H18_3 1_555 1_555
C31_3 C30_3 1_555 1_555
H19_3 C31_3 1_555 1_555
C32_3 C31_3 1_555 1_555
C33_3 C32_3 1_555 1_555
H20_3 C33_3 1_555 1_555
C34_3 C29_3 1_555 1_555
H21_3 C34_3 1_555 1_555
C35_3 H22_3 1_555 1_555
C36_3 C35_3 1_555 1_555
C37_3 C36_3 1_555 1_555
H23_3 C37_3 1_555 1_555
C38_3 C37_3 1_555 1_555
C39_3 C38_3 1_555 1_555
H24_3 C39_3 1_555 1_555
C40_3 C35_3 1_555 1_555
C41_3 C42_3 1_555 1_555
C42_3 H25_3 1_555 1_555
C43_3 C42_3 1_555 1_555
H26_3 C43_3 1_555 1_555
C44_3 C43_3 1_555 1_555
C45_3 C44_3 1_555 1_555
H27_3 C45_3 1_555 1_555
C46_3 C41_3 1_555 1_555
H28_3 C46_3 1_555 1_555
C47_3 C44_3 1_555 1_555
C48_3 C49_3 1_555 1_555
C49_3 H29_3 1_555 1_555
C50_3 C49_3 1_555 1_555
C51_3 C50_3 1_555 1_555
C52_3 C51_3 1_555 1_555
H31_3 C52_3 1_555 1_555
C53_3 C48_3 1_555 1_555
H32_3 C53_3 1_555 1_555
O12_3 Al11 1_555 1_555
O13_3 C32_3 1_555 1_555
O14_3 C38_3 1_555 1_555
O15_3 C40_3 1_555 1_555
O16_3 C47_3 1_555 1_555
O24 C28_3 1_555 1_555
O18_2 C47_3 1_555 1_555
H33_3 O30 1_555 1_555
Al6_2 O18_2 1_555 1_555
Al7_2 O7_2 1_555 1_555
Al12_3 O1_3 1_555 1_555
C6_3 C7_3 1_555 1_555
C9_3 O2_3 1_555 1_555
C12_3 C13_3 1_555 1_555
C14_3 O3_3 1_555 1_555
C18_3 C19_3 1_555 1_555
C21_3 O4_3 1_555 1_555
C25_3 C26_3 1_555 1_555
O11_3 Al7_2 1_555 1_555
C28_3 O12_3 1_555 1_555
C33_3 C34_3 1_555 1_555
C36_3 O13_3 1_555 1_555
C39_3 C40_3 1_555 1_555
C41_3 O14_3 1_555 1_555
C45_3 C46_3 1_555 1_555
C48_3 O15_3 1_555 1_555
C52_3 C53_3 1_555 1_555
O20_3 Al12_3 1_555 1_555
Al6_2 O32_2 1_555 1_555
O8_3 C27_3 1_555 1_555
O19_3 C54_3 1_555 1_555
Al8_3 O19_3 1_555 1_555
Al9_3 O8_3 1_555 1_555
O22_5 Al11_2 1_555 1_555
O29_5 Al11_2 1_555 1_555
O31_5 Al11_2 1_555 1_555
Al9_3 O31_5 1_555 1_555
O25_2 Al7 1_555 1_555
O27_3 Al7 1_555 1_555
O32_3 Al7 1_555 1_555
O22_6 Al12_2 1_555 1_555
O29_6 Al12_2 1_555 1_555
O31_6 Al12_4 1_555 1_555
Al8_3 O31_6 1_555 1_555
O28_4 Al6_2 1_555 1_555
O22_7 Al11_3 1_555 1_555
O29_7 Al11_3 1_555 1_555
Al11_4 O9_4 1_555 1_555
C1_4 C2_4 1_555 1_555
C2_4 C3_4 1_555 1_555
C3_4 H1_4 1_555 1_555
C4_4 C3_4 1_555 1_555
H2_4 C4_4 1_555 1_555
C5_4 C4_4 1_555 1_555
C6_4 C5_4 1_555 1_555
H3_4 C6_4 1_555 1_555
C7_4 C2_4 1_555 1_555
H4_4 C7_4 1_555 1_555
C8_4 H5_4 1_555 1_555
C9_4 C8_4 1_555 1_555
C10_4 C9_4 1_555 1_555
H6_4 C10_4 1_555 1_555
C11_4 C10_4 1_555 1_555
C12_4 C11_4 1_555 1_555
H7_4 C12_4 1_555 1_555
C13_4 C8_4 1_555 1_555
C14_4 C15_4 1_555 1_555
C15_4 H8_4 1_555 1_555
C16_4 C15_4 1_555 1_555
H9_4 C16_4 1_555 1_555
C17_4 C16_4 1_555 1_555
C18_4 C17_4 1_555 1_555
H10_4 C18_4 1_555 1_555
C19_4 C14_4 1_555 1_555
H11_4 C19_4 1_555 1_555
C20_4 C17_4 1_555 1_555
C21_4 C22_4 1_555 1_555
C22_4 H12_4 1_555 1_555
C23_4 C22_4 1_555 1_555
H13_4 C23_4 1_555 1_555
C24_4 C23_4 1_555 1_555
C25_4 C24_4 1_555 1_555
H14_4 C25_4 1_555 1_555
C26_4 C21_4 1_555 1_555
H15_4 C26_4 1_555 1_555
C27_4 C24_4 1_555 1_555
O1_4 C1_4 1_555 1_555
O2_4 C5_4 1_555 1_555
O3_4 C11_4 1_555 1_555
O4_4 C13_4 1_555 1_555
O5_4 C20_4 1_555 1_555
O23_2 C1_4 1_555 1_555
O25_2 C20_4 1_555 1_555
O8_4 C27_4 1_555 1_555
O9_4 C27_4 1_555 1_555
H16_4 O30_4 1_555 1_555
C28_4 C29_4 1_555 1_555
C29_4 C30_4 1_555 1_555
C30_4 H18_4 1_555 1_555
C31_4 C30_4 1_555 1_555
H19_4 C31_4 1_555 1_555
C32_4 C31_4 1_555 1_555
C33_4 C32_4 1_555 1_555
H20_4 C33_4 1_555 1_555
C34_4 C29_4 1_555 1_555
H21_4 C34_4 1_555 1_555
C35_4 H22_4 1_555 1_555
C36_4 C35_4 1_555 1_555
C37_4 C36_4 1_555 1_555
H23_4 C37_4 1_555 1_555
C38_4 C37_4 1_555 1_555
C39_4 C38_4 1_555 1_555
H24_4 C39_4 1_555 1_555
C40_4 C35_4 1_555 1_555
C41_4 C42_4 1_555 1_555
C42_4 H25_4 1_555 1_555
C43_4 C42_4 1_555 1_555
H26_4 C43_4 1_555 1_555
C44_4 C43_4 1_555 1_555
C45_4 C44_4 1_555 1_555
H27_4 C45_4 1_555 1_555
C46_4 C41_4 1_555 1_555
H28_4 C46_4 1_555 1_555
C47_4 C44_4 1_555 1_555
C48_4 C49_4 1_555 1_555
C49_4 H29_4 1_555 1_555
C50_4 C49_4 1_555 1_555
H30_4 C50_4 1_555 1_555
C51_4 C50_4 1_555 1_555
C52_4 C51_4 1_555 1_555
H31_4 C52_4 1_555 1_555
C53_4 C48_4 1_555 1_555
H32_4 C53_4 1_555 1_555
C54_4 C51_4 1_555 1_555
O12_4 Al11_4 1_555 1_555
O13_4 C32_4 1_555 1_555
O14_4 C38_4 1_555 1_555
O15_4 C40_4 1_555 1_555
O16_4 C47_4 1_555 1_555
O26_2 C47_4 1_555 1_555
O19_4 C54_4 1_555 1_555
O20_4 C54_4 1_555 1_555
H33_4 O30_3 1_555 1_555
Al8_4 O19_4 1_555 1_555
Al9_4 O8_4 1_555 1_555
Al12_5 O1_4 1_555 1_555
O31_7 Al11_4 1_555 1_555
C6_4 C7_4 1_555 1_555
C9_4 O2_4 1_555 1_555
C12_4 C13_4 1_555 1_555
C14_4 O3_4 1_555 1_555
C18_4 C19_4 1_555 1_555
C21_4 O4_4 1_555 1_555
C25_4 C26_4 1_555 1_555
C28_4 O12_4 1_555 1_555
C33_4 C34_4 1_555 1_555
C36_4 O13_4 1_555 1_555
C39_4 C40_4 1_555 1_555
C41_4 O14_4 1_555 1_555
C45_4 C46_4 1_555 1_555
C48_4 O15_4 1_555 1_555
C52_4 C53_4 1_555 1_555
O20_4 Al12_5 1_555 1_555
Al9_4 O31_7 1_555 1_555
O27_4 Al7_2 1_555 1_555
O22_8 Al12_5 1_555 1_555
O29_8 Al12_5 1_555 1_555
O31_8 Al12_5 1_555 1_555
Al8_4 O31_8 1_555 1_555
Al9 O17_3 1_555 1_555
O28_3 C54_5 1_555 1_555
Al9_3 O16_5 1_555 1_555
C28_5 C29_5 1_555 1_555
C29_5 C30_5 1_555 1_555
C30_5 H18_5 1_555 1_555
C31_5 C30_5 1_555 1_555
H19_5 C31_5 1_555 1_555
C32_5 C31_5 1_555 1_555
C33_5 C32_5 1_555 1_555
H20_5 C33_5 1_555 1_555
C34_5 C29_5 1_555 1_555
H21_5 C34_5 1_555 1_555
C35_5 H22_5 1_555 1_555
C36_5 C35_5 1_555 1_555
C37_5 C36_5 1_555 1_555
H23_5 C37_5 1_555 1_555
C38_5 C37_5 1_555 1_555
C39_5 C38_5 1_555 1_555
H24_5 C39_5 1_555 1_555
C40_5 C35_5 1_555 1_555
C41_5 C42_5 1_555 1_555
C42_5 H25_5 1_555 1_555
C43_5 C42_5 1_555 1_555
H26_5 C43_5 1_555 1_555
C44_5 C43_5 1_555 1_555
C45_5 C44_5 1_555 1_555
H27_5 C45_5 1_555 1_555
C46_5 C41_5 1_555 1_555
H28_5 C46_5 1_555 1_555
C47_5 C44_5 1_555 1_555
C48_5 C49_5 1_555 1_555
C49_5 H29_5 1_555 1_555
C50_5 C49_5 1_555 1_555
C51_5 C50_5 1_555 1_555
C52_5 C51_5 1_555 1_555
H31_5 C52_5 1_555 1_555
C53_5 C48_5 1_555 1_555
H32_5 C53_5 1_555 1_555
O13_5 C32_5 1_555 1_555
O14_5 C38_5 1_555 1_555
O15_5 C40_5 1_555 1_555
O16_5 C47_5 1_555 1_555
O18_3 C47_5 1_555 1_555
H33_5 O31_5 1_555 1_555
Al8_4 O18_3 1_555 1_555
O24_3 Al9_3 1_555 1_555
O25_3 Al9_3 1_555 1_555
O32_4 Al9_3 1_555 1_555
C28_5 O22 1_555 1_555
C33_5 C34_5 1_555 1_555
C36_5 O13_5 1_555 1_555
C39_5 C40_5 1_555 1_555
C41_5 O14_5 1_555 1_555
C45_5 C46_5 1_555 1_555
C48_5 O15_5 1_555 1_555
C52_5 C53_5 1_555 1_555
Al8_4 O32_4 1_555 1_555
O27_3 C27_5 1_555 1_555
Al8_3 O5_5 1_555 1_555
C1_5 C2_5 1_555 1_555
C2_5 C3_5 1_555 1_555
C3_5 H1_5 1_555 1_555
C4_5 C3_5 1_555 1_555
H2_5 C4_5 1_555 1_555
C5_5 C4_5 1_555 1_555
C6_5 C5_5 1_555 1_555
H3_5 C6_5 1_555 1_555
C7_5 C2_5 1_555 1_555
H4_5 C7_5 1_555 1_555
C8_5 H5_5 1_555 1_555
C9_5 C8_5 1_555 1_555
C10_5 C9_5 1_555 1_555
H6_5 C10_5 1_555 1_555
C11_5 C10_5 1_555 1_555
C12_5 C11_5 1_555 1_555
H7_5 C12_5 1_555 1_555
C13_5 C8_5 1_555 1_555
C14_5 C15_5 1_555 1_555
C15_5 H8_5 1_555 1_555
C16_5 C15_5 1_555 1_555
H9_5 C16_5 1_555 1_555
C17_5 C16_5 1_555 1_555
C18_5 C17_5 1_555 1_555
H10_5 C18_5 1_555 1_555
C19_5 C14_5 1_555 1_555
H11_5 C19_5 1_555 1_555
C20_5 C17_5 1_555 1_555
C21_5 C22_5 1_555 1_555
C22_5 H12_5 1_555 1_555
C23_5 C22_5 1_555 1_555
C24_5 C23_5 1_555 1_555
C25_5 C24_5 1_555 1_555
H14_5 C25_5 1_555 1_555
C26_5 C21_5 1_555 1_555
H15_5 C26_5 1_555 1_555
O22_2 C1_5 1_555 1_555
O2_5 C5_5 1_555 1_555
O3_5 C11_5 1_555 1_555
O4_5 C13_5 1_555 1_555
O5_5 C20_5 1_555 1_555
O6_3 C1_5 1_555 1_555
O7_3 C20_5 1_555 1_555
H16_5 O31_6 1_555 1_555
O11_4 Al8_3 1_555 1_555
Al9_4 O7_3 1_555 1_555
Al8 O6_3 1_555 1_555
O23_3 Al8_3 1_555 1_555
O26_3 Al8_3 1_555 1_555
C6_5 C7_5 1_555 1_555
C9_5 O2_5 1_555 1_555
C12_5 C13_5 1_555 1_555
C14_5 O3_5 1_555 1_555
C18_5 C19_5 1_555 1_555
C21_5 O4_5 1_555 1_555
C25_5 C26_5 1_555 1_555
O11_4 Al9_4 1_555 1_555
H17_8 O32_4 1_555 1_555
Al9_4 O16_6 1_555 1_555
C28_6 C29_6 1_555 1_555
C29_6 C30_6 1_555 1_555
C30_6 H18_6 1_555 1_555
C31_6 C30_6 1_555 1_555
H19_6 C31_6 1_555 1_555
C32_6 C31_6 1_555 1_555
C33_6 C32_6 1_555 1_555
H20_6 C33_6 1_555 1_555
C34_6 C29_6 1_555 1_555
H21_6 C34_6 1_555 1_555
C35_6 H22_6 1_555 1_555
C36_6 C35_6 1_555 1_555
C37_6 C36_6 1_555 1_555
H23_6 C37_6 1_555 1_555
C38_6 C37_6 1_555 1_555
C39_6 C38_6 1_555 1_555
H24_6 C39_6 1_555 1_555
C40_6 C35_6 1_555 1_555
C41_6 C42_6 1_555 1_555
C42_6 H25_6 1_555 1_555
C43_6 C42_6 1_555 1_555
H26_6 C43_6 1_555 1_555
C44_6 C43_6 1_555 1_555
C45_6 C44_6 1_555 1_555
H27_6 C45_6 1_555 1_555
C46_6 C41_6 1_555 1_555
H28_6 C46_6 1_555 1_555
C47_6 C44_6 1_555 1_555
C48_6 C49_6 1_555 1_555
C49_6 H29_6 1_555 1_555
C50_6 C49_6 1_555 1_555
H30_6 C50_6 1_555 1_555
C51_6 C50_6 1_555 1_555
C52_6 C51_6 1_555 1_555
H31_6 C52_6 1_555 1_555
C53_6 C48_6 1_555 1_555
H32_6 C53_6 1_555 1_555
C54_6 C51_6 1_555 1_555
O13_6 C32_6 1_555 1_555
O14_6 C38_6 1_555 1_555
O15_6 C40_6 1_555 1_555
O16_6 C47_6 1_555 1_555
O17_4 C28_6 1_555 1_555
O26_3 C47_6 1_555 1_555
O28_4 C54_6 1_555 1_555
O29_4 C54_6 1_555 1_555
H33_6 O31_7 1_555 1_555
Al9_2 O17_4 1_555 1_555
O24_4 Al9_4 1_555 1_555
C28_6 O22_3 1_555 1_555
C33_6 C34_6 1_555 1_555
C36_6 O13_6 1_555 1_555
C39_6 C40_6 1_555 1_555
C41_6 O14_6 1_555 1_555
C45_6 C46_6 1_555 1_555
C48_6 O15_6 1_555 1_555
C52_6 C53_6 1_555 1_555
Al8_2 O6_4 1_555 1_555
Al8_4 O5_6 1_555 1_555
C1_6 C2_6 1_555 1_555
C2_6 C3_6 1_555 1_555
C3_6 H1_6 1_555 1_555
C4_6 C3_6 1_555 1_555
H2_6 C4_6 1_555 1_555
C5_6 C4_6 1_555 1_555
C6_6 C5_6 1_555 1_555
H3_6 C6_6 1_555 1_555
C7_6 C2_6 1_555 1_555
H4_6 C7_6 1_555 1_555
C8_6 H5_6 1_555 1_555
C9_6 C8_6 1_555 1_555
C10_6 C9_6 1_555 1_555
H6_6 C10_6 1_555 1_555
C11_6 C10_6 1_555 1_555
C12_6 C11_6 1_555 1_555
H7_6 C12_6 1_555 1_555
C13_6 C8_6 1_555 1_555
C14_6 C15_6 1_555 1_555
C15_6 H8_6 1_555 1_555
C16_6 C15_6 1_555 1_555
H9_6 C16_6 1_555 1_555
C17_6 C16_6 1_555 1_555
C18_6 C17_6 1_555 1_555
H10_6 C18_6 1_555 1_555
C19_6 C14_6 1_555 1_555
H11_6 C19_6 1_555 1_555
C20_6 C17_6 1_555 1_555
C21_6 C22_6 1_555 1_555
C22_6 H12_6 1_555 1_555
C23_6 C22_6 1_555 1_555
H13_6 C23_6 1_555 1_555
C24_6 C23_6 1_555 1_555
C25_6 C24_6 1_555 1_555
H14_6 C25_6 1_555 1_555
C26_6 C21_6 1_555 1_555
H15_6 C26_6 1_555 1_555
C27_6 C24_6 1_555 1_555
O22_4 C1_6 1_555 1_555
O2_6 C5_6 1_555 1_555
O3_6 C11_6 1_555 1_555
O4_6 C13_6 1_555 1_555
O5_6 C20_6 1_555 1_555
O25_3 C20_6 1_555 1_555
O27_4 C27_6 1_555 1_555
O29_3 C27_6 1_555 1_555
H16_6 O31_8 1_555 1_555
O23_4 Al8_4 1_555 1_555
C6_6 C7_6 1_555 1_555
C9_6 O2_6 1_555 1_555
C12_6 C13_6 1_555 1_555
C14_6 O3_6 1_555 1_555
C18_6 C19_6 1_555 1_555
C21_6 O4_6 1_555 1_555
C25_6 C26_6 1_555 1_555
O25_4 Al9 1_555 1_555
O32_5 Al9 1_555 1_555
O27 C27_7 1_555 1_555
O28 C54_7 1_555 1_555
C1_7 C2_7 1_555 1_555
C2_7 C3_7 1_555 1_555
C3_7 H1_7 1_555 1_555
C4_7 C3_7 1_555 1_555
H2_7 C4_7 1_555 1_555
C5_7 C4_7 1_555 1_555
C6_7 C5_7 1_555 1_555
H3_7 C6_7 1_555 1_555
C7_7 C2_7 1_555 1_555
H4_7 C7_7 1_555 1_555
C8_7 H5_7 1_555 1_555
C9_7 C8_7 1_555 1_555
C10_7 C9_7 1_555 1_555
H6_7 C10_7 1_555 1_555
C11_7 C10_7 1_555 1_555
C12_7 C11_7 1_555 1_555
H7_7 C12_7 1_555 1_555
C13_7 C8_7 1_555 1_555
C14_7 C15_7 1_555 1_555
C15_7 H8_7 1_555 1_555
C16_7 C15_7 1_555 1_555
H9_7 C16_7 1_555 1_555
C17_7 C16_7 1_555 1_555
C18_7 C17_7 1_555 1_555
H10_7 C18_7 1_555 1_555
C19_7 C14_7 1_555 1_555
H11_7 C19_7 1_555 1_555
C20_7 C17_7 1_555 1_555
C21_7 C22_7 1_555 1_555
C22_7 H12_7 1_555 1_555
C23_7 C22_7 1_555 1_555
C24_7 C23_7 1_555 1_555
C25_7 C24_7 1_555 1_555
H14_7 C25_7 1_555 1_555
C26_7 C21_7 1_555 1_555
H15_7 C26_7 1_555 1_555
O22_6 C1_7 1_555 1_555
O2_7 C5_7 1_555 1_555
O3_7 C11_7 1_555 1_555
O4_7 C13_7 1_555 1_555
O5_7 C20_7 1_555 1_555
O7_4 C20_7 1_555 1_555
H16_7 O31_2 1_555 1_555
H17_9 O11_5 1_555 1_555
C28_7 C29_7 1_555 1_555
C29_7 C30_7 1_555 1_555
C30_7 H18_7 1_555 1_555
C31_7 C30_7 1_555 1_555
H19_7 C31_7 1_555 1_555
C32_7 C31_7 1_555 1_555
C33_7 C32_7 1_555 1_555
H20_7 C33_7 1_555 1_555
C34_7 C29_7 1_555 1_555
H21_7 C34_7 1_555 1_555
C35_7 H22_7 1_555 1_555
C36_7 C35_7 1_555 1_555
C37_7 C36_7 1_555 1_555
H23_7 C37_7 1_555 1_555
C38_7 C37_7 1_555 1_555
C39_7 C38_7 1_555 1_555
H24_7 C39_7 1_555 1_555
C40_7 C35_7 1_555 1_555
C41_7 C42_7 1_555 1_555
C42_7 H25_7 1_555 1_555
C43_7 C42_7 1_555 1_555
H26_7 C43_7 1_555 1_555
C44_7 C43_7 1_555 1_555
C45_7 C44_7 1_555 1_555
H27_7 C45_7 1_555 1_555
C46_7 C41_7 1_555 1_555
H28_7 C46_7 1_555 1_555
C47_7 C44_7 1_555 1_555
C48_7 C49_7 1_555 1_555
C49_7 H29_7 1_555 1_555
C50_7 C49_7 1_555 1_555
C51_7 C50_7 1_555 1_555
C52_7 C51_7 1_555 1_555
H31_7 C52_7 1_555 1_555
C53_7 C48_7 1_555 1_555
H32_7 C53_7 1_555 1_555
O13_7 C32_7 1_555 1_555
O14_7 C38_7 1_555 1_555
O15_7 C40_7 1_555 1_555
O16_7 C47_7 1_555 1_555
O24_3 C28_7 1_555 1_555
O18_4 C47_7 1_555 1_555
H33_7 O31 1_555 1_555
Al8_2 O18_4 1_555 1_555
Al9_2 O7_4 1_555 1_555
C6_7 C7_7 1_555 1_555
C9_7 O2_7 1_555 1_555
C12_7 C13_7 1_555 1_555
C14_7 O3_7 1_555 1_555
C18_7 C19_7 1_555 1_555
C21_7 O4_7 1_555 1_555
C25_7 C26_7 1_555 1_555
O11_5 Al9_2 1_555 1_555
C28_7 O22_5 1_555 1_555
C33_7 C34_7 1_555 1_555
C36_7 O13_7 1_555 1_555
C39_7 C40_7 1_555 1_555
C41_7 O14_7 1_555 1_555
C45_7 C46_7 1_555 1_555
C48_7 O15_7 1_555 1_555
C52_7 C53_7 1_555 1_555
Al8_2 O32_6 1_555 1_555
O11_6 Al8 1_555 1_555
H17_10 O11_6 1_555 1_555
O26_4 Al8 1_555 1_555
C1_8 C2_8 1_555 1_555
C2_8 C3_8 1_555 1_555
C3_8 H1_8 1_555 1_555
C4_8 C3_8 1_555 1_555
H2_8 C4_8 1_555 1_555
C5_8 C4_8 1_555 1_555
C6_8 C5_8 1_555 1_555
H3_8 C6_8 1_555 1_555
C7_8 C2_8 1_555 1_555
H4_8 C7_8 1_555 1_555
C8_8 H5_8 1_555 1_555
C9_8 C8_8 1_555 1_555
C10_8 C9_8 1_555 1_555
H6_8 C10_8 1_555 1_555
C11_8 C10_8 1_555 1_555
C12_8 C11_8 1_555 1_555
H7_8 C12_8 1_555 1_555
C13_8 C8_8 1_555 1_555
C14_8 C15_8 1_555 1_555
C15_8 H8_8 1_555 1_555
C16_8 C15_8 1_555 1_555
H9_8 C16_8 1_555 1_555
C17_8 C16_8 1_555 1_555
C18_8 C17_8 1_555 1_555
H10_8 C18_8 1_555 1_555
C19_8 C14_8 1_555 1_555
H11_8 C19_8 1_555 1_555
C20_8 C17_8 1_555 1_555
C21_8 C22_8 1_555 1_555
C22_8 H12_8 1_555 1_555
C23_8 C22_8 1_555 1_555
H13_8 C23_8 1_555 1_555
C24_8 C23_8 1_555 1_555
C25_8 C24_8 1_555 1_555
H14_8 C25_8 1_555 1_555
C26_8 C21_8 1_555 1_555
H15_8 C26_8 1_555 1_555
C27_8 C24_8 1_555 1_555
O22_8 C1_8 1_555 1_555
O2_8 C5_8 1_555 1_555
O3_8 C11_8 1_555 1_555
O4_8 C13_8 1_555 1_555
O5_8 C20_8 1_555 1_555
O23_4 C1_8 1_555 1_555
O25_4 C20_8 1_555 1_555
O27_2 C27_8 1_555 1_555
O29_7 C27_8 1_555 1_555
H16_8 O31_4 1_555 1_555
C28_8 C29_8 1_555 1_555
C29_8 C30_8 1_555 1_555
C30_8 H18_8 1_555 1_555
C31_8 C30_8 1_555 1_555
H19_8 C31_8 1_555 1_555
C32_8 C31_8 1_555 1_555
C33_8 C32_8 1_555 1_555
H20_8 C33_8 1_555 1_555
C34_8 C29_8 1_555 1_555
H21_8 C34_8 1_555 1_555
C35_8 H22_8 1_555 1_555
C36_8 C35_8 1_555 1_555
C37_8 C36_8 1_555 1_555
H23_8 C37_8 1_555 1_555
C38_8 C37_8 1_555 1_555
C39_8 C38_8 1_555 1_555
H24_8 C39_8 1_555 1_555
C40_8 C35_8 1_555 1_555
C41_8 C42_8 1_555 1_555
C42_8 H25_8 1_555 1_555
C43_8 C42_8 1_555 1_555
H26_8 C43_8 1_555 1_555
C44_8 C43_8 1_555 1_555
C45_8 C44_8 1_555 1_555
H27_8 C45_8 1_555 1_555
C46_8 C41_8 1_555 1_555
H28_8 C46_8 1_555 1_555
C47_8 C44_8 1_555 1_555
C48_8 C49_8 1_555 1_555
C49_8 H29_8 1_555 1_555
C50_8 C49_8 1_555 1_555
H30_8 C50_8 1_555 1_555
C51_8 C50_8 1_555 1_555
C52_8 C51_8 1_555 1_555
H31_8 C52_8 1_555 1_555
C53_8 C48_8 1_555 1_555
H32_8 C53_8 1_555 1_555
C54_8 C51_8 1_555 1_555
O13_8 C32_8 1_555 1_555
O14_8 C38_8 1_555 1_555
O15_8 C40_8 1_555 1_555
O16_8 C47_8 1_555 1_555
O26_4 C47_8 1_555 1_555
O28_2 C54_8 1_555 1_555
O29_8 C54_8 1_555 1_555
H33_8 O31_3 1_555 1_555
C6_8 C7_8 1_555 1_555
C9_8 O2_8 1_555 1_555
C12_8 C13_8 1_555 1_555
C14_8 O3_8 1_555 1_555
C18_8 C19_8 1_555 1_555
C21_8 O4_8 1_555 1_555
C25_8 C26_8 1_555 1_555
C28_8 O22_7 1_555 1_555
C33_8 C34_8 1_555 1_555
C36_8 O13_8 1_555 1_555
C39_8 C40_8 1_555 1_555
C41_8 O14_8 1_555 1_555
C45_8 C46_8 1_555 1_555
C48_8 O15_8 1_555 1_555
C52_8 C53_8 1_555 1_555

#END
