
###############################################################################
#
# This file contains modified crystal structure data generated from the
# MOF subset of the Cambridge Structural Database (CSD) v543 
# hosted by the Cambridge Crystallographic Data Centre (CCDC).
#
# This work is licensed under the Creative Commons
# Attribution-NonCommercial-ShareAlike 4.0 International License.
# To view a copy of this license, visit
# http://creativecommons.org/licenses/by-nc-sa/4.0/
# or send a letter to
# Creative Commons, PO Box 1866, Mountain View, CA 94042, USA.
#
# CIF created using the CSD Python API on 29 September 2022
# The structure has been converted into the P1 space group
# The structure has a 3D framework
# The original CSD entry OGUKAF is in the orthorhombic crystal system
# The framework has been calculated to contain at least 10.0% void space
# The void calculation uses a probe of radius 1.32A, grid spacing 0.4
#
###############################################################################

data_OGUKAF
_chemical_formula_moiety         '(C432 H254 Al18 O140)n'
_symmetry_cell_setting           triclinic
_symmetry_space_group_name_H-M   'P 1'
_symmetry_Int_Tables_number      1
_space_group_name_Hall           'P 1'
loop_
_symmetry_equiv_pos_site_id
_symmetry_equiv_pos_as_xyz
1 x,y,z
_cell_length_a                   27.1607(7)
_cell_length_b                   29.9510(6)
_cell_length_c                   17.1169(4)
_cell_angle_alpha                90
_cell_angle_beta                 90
_cell_angle_gamma                90
_cell_volume                     13924.4
loop_
_atom_site_label
_atom_site_type_symbol
_atom_site_fract_x
_atom_site_fract_y
_atom_site_fract_z
O18 O 0.42431(8) 0.01099(7) 0.65416(13)
Al6 Al 0.500000 -0.000000 0.500000
Al10 Al 0.47377(4) 0.05564(3) 0.66364(6)
Al1 Al 0.500000 0.500000 0.500000
Al2 Al 0.52623(4) 0.44436(3) 0.66364(6)
C1 C 0.44057(12) 0.39087(11) 0.7093(2)
C2 C 0.40572(13) 0.35808(11) 0.67451(19)
C3 C 0.41340(13) 0.34366(12) 0.5987(2)
H1 H 0.441118 0.354285 0.570428
C4 C 0.38127(13) 0.31399(11) 0.5635(2)
H2 H 0.386596 0.304525 0.511220
C5 C 0.34151(13) 0.29834(11) 0.6052(2)
C6 C 0.33338(14) 0.31111(12) 0.6818(2)
H3 H 0.306346 0.299473 0.710497
C7 C 0.36581(13) 0.34146(12) 0.7157(2)
H4 H 0.360476 0.350933 0.768006
C8 C 0.27003(13) 0.25150(12) 0.6004(2)
C9 C 0.27177(13) 0.20659(11) 0.6190(2)
H5 H 0.300699 0.189513 0.610035
C10 C 0.23021(13) 0.18734(11) 0.6509(2)
C11 C 0.18793(13) 0.21204(12) 0.6645(2)
H6 H 0.159496 0.198610 0.686686
C12 C 0.18839(13) 0.25692(11) 0.6449(2)
C13 C 0.22885(13) 0.27730(12) 0.6117(2)
H7 H 0.228264 0.307938 0.597365
C14 C 0.08195(12) 0.02029(11) 0.6066(2)
C15 C 0.12210(12) 0.05276(11) 0.6234(2)
C16 C 0.12979(14) 0.08921(12) 0.5749(2)
H8 H 0.109760 0.092954 0.529876
C17 C 0.16618(15) 0.12025(12) 0.5911(2)
H9 H 0.170693 0.145370 0.557966
C18 C 0.19582(13) 0.11438(11) 0.6557(2)
C19 C 0.18904(15) 0.07809(13) 0.7042(2)
H10 H 0.209483 0.074235 0.748766
C20 C 0.15238(15) 0.04734(13) 0.6880(2)
H11 H 0.147932 0.022303 0.721300
C21 C 0.05709(12) 0.41744(11) 0.4922(2)
C22 C 0.08382(13) 0.38237(11) 0.5375(2)
C23 C 0.09239(15) 0.38733(12) 0.6162(2)
H12 H 0.082504 0.413986 0.641871
C24 C 0.11529(14) 0.35385(12) 0.6583(2)
H13 H 0.121213 0.357317 0.712677
C25 C 0.12943(13) 0.31526(12) 0.6202(2)
C26 C 0.12260(15) 0.31019(12) 0.5408(2)
H14 H 0.133581 0.283962 0.514867
C27 C 0.09961(14) 0.34379(11) 0.4996(2)
H15 H 0.094475 0.340621 0.445002
O1 O 0.47965(8) 0.39749(7) 0.67106(12)
O2 O 0.42953(8) 0.40986(7) 0.77298(13)
O3 O 0.31154(9) 0.26956(8) 0.56375(14)
O4 O 0.23382(9) 0.14301(7) 0.67389(15)
O5 O 0.14607(9) 0.28022(8) 0.66637(14)
O6 O 0.05697(9) 0.02740(7) 0.54528(13)
O8 O 0.05515(8) 0.41223(7) 0.41941(13)
O9 O 0.03881(9) 0.44963(7) 0.53035(13)
O10 O 0.48501(8) 0.47439(7) 0.59475(13)
H16 H 0.449502 0.473833 0.606844
O11 O 0.500000 0.47248(10) 0.750000
H17 H 0.500000 0.507835 0.750000
C28 C 0.05943(12) 0.60913(11) 0.7093(2)
C29 C 0.09428(13) 0.64192(11) 0.67451(19)
C30 C 0.08660(13) 0.65634(12) 0.5987(2)
H18 H 0.058882 0.645715 0.570428
C31 C 0.11873(13) 0.68601(11) 0.5635(2)
H19 H 0.113404 0.695475 0.511220
C32 C 0.15849(13) 0.70166(11) 0.6052(2)
C33 C 0.16662(14) 0.68889(12) 0.6818(2)
H20 H 0.193654 0.700527 0.710497
C34 C 0.13419(13) 0.65854(12) 0.7157(2)
H21 H 0.139524 0.649067 0.768006
C35 C 0.22997(13) 0.74850(12) 0.6004(2)
C36 C 0.22823(13) 0.79341(11) 0.6190(2)
H22 H 0.199301 0.810487 0.610035
C37 C 0.26979(13) 0.81266(11) 0.6509(2)
C38 C 0.31207(13) 0.78796(12) 0.6645(2)
H23 H 0.340504 0.801390 0.686686
C39 C 0.31161(13) 0.74308(11) 0.6449(2)
C40 C 0.27115(13) 0.72270(12) 0.6117(2)
H24 H 0.271736 0.692062 0.597365
C41 C 0.41805(12) 0.97971(11) 0.6066(2)
C42 C 0.37790(12) 0.94724(11) 0.6234(2)
C43 C 0.37021(14) 0.91079(12) 0.5749(2)
H25 H 0.390240 0.907046 0.529876
C44 C 0.33382(15) 0.87975(12) 0.5911(2)
H26 H 0.329307 0.854630 0.557966
C45 C 0.30418(13) 0.88562(11) 0.6557(2)
C46 C 0.31096(15) 0.92191(13) 0.7042(2)
H27 H 0.290517 0.925765 0.748766
C47 C 0.34762(15) 0.95266(13) 0.6880(2)
H28 H 0.352068 0.977697 0.721300
C48 C 0.44291(12) 0.58256(11) 0.4922(2)
C49 C 0.41618(13) 0.61763(11) 0.5375(2)
C50 C 0.40761(15) 0.61267(12) 0.6162(2)
H29 H 0.417496 0.586014 0.641871
C51 C 0.38471(14) 0.64615(12) 0.6583(2)
H30 H 0.378787 0.642683 0.712677
C52 C 0.37057(13) 0.68474(12) 0.6202(2)
C53 C 0.37740(15) 0.68981(12) 0.5408(2)
H31 H 0.366419 0.716038 0.514867
C54 C 0.40039(14) 0.65621(11) 0.4996(2)
H32 H 0.405525 0.659379 0.445002
O12 O 0.02035(8) 0.60251(7) 0.67106(12)
O13 O 0.07047(8) 0.59014(7) 0.77298(13)
O14 O 0.18846(9) 0.73044(8) 0.56375(14)
O15 O 0.26618(9) 0.85699(7) 0.67389(15)
O16 O 0.35393(9) 0.71978(8) 0.66637(14)
O17 O 0.44303(9) 0.97260(7) 0.54528(13)
O19 O 0.44485(8) 0.58777(7) 0.41941(13)
O20 O 0.46119(9) 0.55037(7) 0.53035(13)
O21 O 0.01499(8) 0.52561(7) 0.59475(13)
H33 H 0.050498 0.526167 0.606844
Al4 Al -0.000000 0.500000 0.500000
Al5 Al 0.000000 -0.000000 0.500000
Al6_2 Al 0.500000 1.000000 0.500000
Al7 Al 0.47377(4) 0.44436(3) 0.83636(6)
Al8 Al 0.02623(4) 0.55564(3) 0.83636(6)
Al11 Al 0.47377(4) 0.55564(3) 0.33636(6)
Al12 Al 0.02623(4) 0.44436(3) 0.33636(6)
O22 O 0.57047(8) 0.40986(7) 0.72702(13)
O24 O 0.55697(9) 0.52740(7) 0.54528(13)
O25 O 0.44303(9) 0.47260(7) 0.45472(13)
O26 O 0.57569(8) 0.48901(7) 0.65416(13)
O29 O 0.55515(8) 0.41223(7) 0.58059(13)
O30 O 0.53881(9) 0.44963(7) 0.46965(13)
O31 O 0.51499(8) 0.52561(7) 0.40525(13)
O32 O 0.000000 0.52752(10) 0.750000
O7 O 0.07569(8) 0.98901(7) 0.65416(13)
Al5_2 Al -0.000000 1.000000 0.500000
Al9 Al 0.02623(4) 0.94436(3) 0.66364(6)
Al3 Al 0.97377(4) 0.55564(3) 0.66364(6)
Al4_2 Al 1.000000 0.500000 0.500000
Al5_3 Al 1.000000 -0.000000 0.500000
O23 O 0.92953(8) 0.59014(7) 0.72702(13)
O27 O 0.92431(8) 0.51099(7) 0.65416(13)
O28 O 0.94485(8) 0.58777(7) 0.58059(13)
O32_2 O 1.000000 0.52752(10) 0.750000
Al5_4 Al 1.000000 1.000000 0.500000
H17_2 H 0.000000 0.492165 0.750000
O25_2 O 0.05697(9) 0.52740(7) 0.45472(13)
H17_3 H 1.000000 0.492165 0.750000
O24_2 O 0.94303(9) 0.47260(7) 0.54528(13)
O30_2 O 0.96119(9) 0.55037(7) 0.46965(13)
O31_2 O 0.98501(8) 0.47439(7) 0.40525(13)
Al4_3 Al 0.000000 0.500000 0.000000
Al5_5 Al 0.000000 -0.000000 0.000000
Al4_4 Al 0.000000 0.500000 1.000000
Al5_6 Al 0.000000 -0.000000 1.000000
O27_2 O 0.07569(8) 0.51099(7) 0.84584(13)
O28_2 O 0.05515(8) 0.58777(7) 0.91941(13)
Al5_7 Al -0.000000 1.000000 0.000000
Al5_8 Al -0.000000 1.000000 1.000000
Al6_3 Al 0.500000 -0.000000 0.000000
O18_2 O 0.57569(8) 0.01099(7) 0.84584(13)
Al6_4 Al 0.500000 -0.000000 1.000000
Al10_2 Al 0.52623(4) 0.05564(3) 0.83636(6)
Al1_2 Al 0.500000 0.500000 0.000000
C21_2 C 0.94291(12) 0.41744(11) 0.0078(2)
C27_2 C 0.90039(14) 0.34379(11) 0.0004(2)
H15_2 H 0.905525 0.340621 0.054998
O8_2 O 0.94485(8) 0.41223(7) 0.08059(13)
C48_2 C 0.55709(12) 0.58256(11) 0.0078(2)
C54_2 C 0.59961(14) 0.65621(11) 0.0004(2)
H32_2 H 0.594475 0.659379 0.054998
O19_2 O 0.55515(8) 0.58777(7) 0.08059(13)
Al4_5 Al 1.000000 0.500000 0.000000
Al5_9 Al 1.000000 -0.000000 0.000000
Al6_5 Al 0.500000 1.000000 0.000000
Al11_2 Al 0.52623(4) 0.55564(3) 0.16364(6)
Al12_2 Al 0.97377(4) 0.44436(3) 0.16364(6)
O25_3 O 0.55697(9) 0.47260(7) 0.04528(13)
O30_3 O 0.46119(9) 0.44963(7) 0.03035(13)
O31_3 O 0.48501(8) 0.52561(7) 0.09475(13)
Al1_3 Al 0.500000 0.500000 1.000000
C1_2 C 0.55943(12) 0.39087(11) 0.7907(2)
C2_2 C 0.59428(13) 0.35808(11) 0.82549(19)
C3_2 C 0.58660(13) 0.34366(12) 0.9013(2)
H1_2 H 0.558882 0.354285 0.929572
C4_2 C 0.61873(13) 0.31399(11) 0.9365(2)
H2_2 H 0.613404 0.304525 0.988780
C5_2 C 0.65849(13) 0.29834(11) 0.8948(2)
C6_2 C 0.66662(14) 0.31111(12) 0.8182(2)
H3_2 H 0.693654 0.299473 0.789503
C7_2 C 0.63419(13) 0.34146(12) 0.7843(2)
H4_2 H 0.639524 0.350933 0.731994
C8_2 C 0.72997(13) 0.25150(12) 0.8996(2)
C9_2 C 0.72823(13) 0.20659(11) 0.8810(2)
H5_2 H 0.699301 0.189513 0.889965
C10_2 C 0.76979(13) 0.18734(11) 0.8491(2)
C11_2 C 0.81207(13) 0.21204(12) 0.8355(2)
H6_2 H 0.840504 0.198610 0.813314
C12_2 C 0.81161(13) 0.25692(11) 0.8551(2)
C13_2 C 0.77115(13) 0.27730(12) 0.8883(2)
H7_2 H 0.771736 0.307938 0.902635
C14_2 C 0.91805(12) 0.02029(11) 0.8934(2)
C15_2 C 0.87790(12) 0.05276(11) 0.8766(2)
C16_2 C 0.87021(14) 0.08921(12) 0.9251(2)
H8_2 H 0.890240 0.092954 0.970124
C17_2 C 0.83382(15) 0.12025(12) 0.9089(2)
H9_2 H 0.829307 0.145370 0.942034
C18_2 C 0.80418(13) 0.11438(11) 0.8443(2)
C19_2 C 0.81096(15) 0.07809(13) 0.7958(2)
H10_2 H 0.790517 0.074235 0.751234
C20_2 C 0.84762(15) 0.04734(13) 0.8120(2)
H11_2 H 0.852068 0.022303 0.778700
C22_2 C 0.91618(13) 0.38237(11) 0.9625(2)
C23_2 C 0.90761(15) 0.38733(12) 0.8838(2)
H12_2 H 0.917496 0.413986 0.858129
C24_2 C 0.88471(14) 0.35385(12) 0.8417(2)
H13_2 H 0.878787 0.357317 0.787323
C25_2 C 0.87057(13) 0.31526(12) 0.8798(2)
C26_2 C 0.87740(15) 0.31019(12) 0.9592(2)
H14_2 H 0.866419 0.283962 0.985133
O1_2 O 0.52035(8) 0.39749(7) 0.82894(12)
O3_2 O 0.68846(9) 0.26956(8) 0.93625(14)
O4_2 O 0.76618(9) 0.14301(7) 0.82611(15)
O5_2 O 0.85393(9) 0.28022(8) 0.83363(14)
O6_2 O 0.94303(9) 0.02740(7) 0.95472(13)
O9_2 O 0.96119(9) 0.44963(7) 0.96965(13)
O10_2 O 0.51499(8) 0.47439(7) 0.90525(13)
H16_2 H 0.550498 0.473833 0.893156
C28_2 C 0.94057(12) 0.60913(11) 0.7907(2)
C29_2 C 0.90572(13) 0.64192(11) 0.82549(19)
C30_2 C 0.91340(13) 0.65634(12) 0.9013(2)
H18_2 H 0.941118 0.645715 0.929572
C31_2 C 0.88127(13) 0.68601(11) 0.9365(2)
H19_2 H 0.886596 0.695475 0.988780
C32_2 C 0.84151(13) 0.70166(11) 0.8948(2)
C33_2 C 0.83338(14) 0.68889(12) 0.8182(2)
H20_2 H 0.806346 0.700527 0.789503
C34_2 C 0.86581(13) 0.65854(12) 0.7843(2)
H21_2 H 0.860476 0.649067 0.731994
C35_2 C 0.77003(13) 0.74850(12) 0.8996(2)
C36_2 C 0.77177(13) 0.79341(11) 0.8810(2)
H22_2 H 0.800699 0.810487 0.889965
C37_2 C 0.73021(13) 0.81266(11) 0.8491(2)
C38_2 C 0.68793(13) 0.78796(12) 0.8355(2)
H23_2 H 0.659496 0.801390 0.813314
C39_2 C 0.68839(13) 0.74308(11) 0.8551(2)
C40_2 C 0.72885(13) 0.72270(12) 0.8883(2)
H24_2 H 0.728264 0.692062 0.902635
C41_2 C 0.58195(12) 0.97971(11) 0.8934(2)
C42_2 C 0.62210(12) 0.94724(11) 0.8766(2)
C43_2 C 0.62979(14) 0.91079(12) 0.9251(2)
H25_2 H 0.609760 0.907046 0.970124
C44_2 C 0.66618(15) 0.87975(12) 0.9089(2)
H26_2 H 0.670693 0.854630 0.942034
C45_2 C 0.69582(13) 0.88562(11) 0.8443(2)
C46_2 C 0.68904(15) 0.92191(13) 0.7958(2)
H27_2 H 0.709483 0.925765 0.751234
C47_2 C 0.65238(15) 0.95266(13) 0.8120(2)
H28_2 H 0.647932 0.977697 0.778700
C49_2 C 0.58382(13) 0.61763(11) 0.9625(2)
C50_2 C 0.59239(15) 0.61267(12) 0.8838(2)
H29_2 H 0.582504 0.586014 0.858129
C51_2 C 0.61529(14) 0.64615(12) 0.8417(2)
H30_2 H 0.621213 0.642683 0.787323
C52_2 C 0.62943(13) 0.68474(12) 0.8798(2)
C53_2 C 0.62260(15) 0.68981(12) 0.9592(2)
H31_2 H 0.633581 0.716038 0.985133
O12_2 O 0.97965(8) 0.60251(7) 0.82894(12)
O14_2 O 0.81154(9) 0.73044(8) 0.93625(14)
O15_2 O 0.73382(9) 0.85699(7) 0.82611(15)
O16_2 O 0.64607(9) 0.71978(8) 0.83363(14)
O17_2 O 0.55697(9) 0.97260(7) 0.95472(13)
O20_2 O 0.53881(9) 0.55037(7) 0.96965(13)
O21_2 O 0.98501(8) 0.52561(7) 0.90525(13)
H33_2 H 0.949502 0.526167 0.893156
Al4_6 Al 1.000000 0.500000 1.000000
Al5_10 Al 1.000000 -0.000000 1.000000
Al6_6 Al 0.500000 1.000000 1.000000
O24_3 O 0.44303(9) 0.52740(7) 0.95472(13)
O26_2 O 0.42431(8) 0.48901(7) 0.84584(13)
O29_2 O 0.44485(8) 0.41223(7) 0.91941(13)
Al5_11 Al 1.000000 1.000000 0.000000
O7_2 O 0.92431(8) 0.98901(7) 0.84584(13)
Al5_12 Al 1.000000 1.000000 1.000000
Al9_2 Al 0.97377(4) 0.94436(3) 0.83636(6)
O30_4 O 0.03881(9) 0.55037(7) 0.03035(13)
O31_4 O 0.01499(8) 0.47439(7) 0.09475(13)
O24_4 O 0.05697(9) 0.47260(7) 0.95472(13)
O25_4 O 0.94303(9) 0.52740(7) 0.04528(13)
H17_4 H -0.000000 0.007835 0.750000
O31_5 O 0.01499(8) 0.02561(7) 0.40525(13)
O11_2 O -0.000000 0.97248(10) 0.750000
O22_2 O 0.07047(8) 0.90986(7) 0.72702(13)
O29_3 O 0.05515(8) 0.91223(7) 0.58059(13)
O30_5 O 0.03881(9) 0.94963(7) 0.46965(13)
H17_5 H 1.000000 0.007835 0.750000
C28_3 C 0.55943(12) 0.10913(11) 0.7093(2)
C29_3 C 0.59428(13) 0.14192(11) 0.67451(19)
C30_3 C 0.58660(13) 0.15634(12) 0.5987(2)
H18_3 H 0.558882 0.145715 0.570428
C31_3 C 0.61873(13) 0.18601(11) 0.5635(2)
H19_3 H 0.613404 0.195475 0.511220
C32_3 C 0.65849(13) 0.20166(11) 0.6052(2)
C33_3 C 0.66662(14) 0.18889(12) 0.6818(2)
H20_3 H 0.693654 0.200527 0.710497
C34_3 C 0.63419(13) 0.15854(12) 0.7157(2)
H21_3 H 0.639524 0.149067 0.768006
C35_3 C 0.72997(13) 0.24850(12) 0.6004(2)
C36_3 C 0.72823(13) 0.29341(11) 0.6190(2)
H22_3 H 0.699301 0.310487 0.610035
C37_3 C 0.76979(13) 0.31266(11) 0.6509(2)
C38_3 C 0.81207(13) 0.28796(12) 0.6645(2)
H23_3 H 0.840504 0.301390 0.686686
C39_3 C 0.81161(13) 0.24308(11) 0.6449(2)
C40_3 C 0.77115(13) 0.22270(12) 0.6117(2)
H24_3 H 0.771736 0.192062 0.597365
C41_3 C 0.91805(12) 0.47971(11) 0.6066(2)
C42_3 C 0.87790(12) 0.44724(11) 0.6234(2)
C43_3 C 0.87021(14) 0.41079(12) 0.5749(2)
H25_3 H 0.890240 0.407046 0.529876
C44_3 C 0.83382(15) 0.37975(12) 0.5911(2)
H26_3 H 0.829307 0.354630 0.557966
C45_3 C 0.80418(13) 0.38562(11) 0.6557(2)
C46_3 C 0.81096(15) 0.42191(13) 0.7042(2)
H27_3 H 0.790517 0.425765 0.748766
C47_3 C 0.84762(15) 0.45266(13) 0.6880(2)
H28_3 H 0.852068 0.477697 0.721300
C48_3 C 0.94291(12) 0.08256(11) 0.4922(2)
C49_3 C 0.91618(13) 0.11763(11) 0.5375(2)
C50_3 C 0.90761(15) 0.11267(12) 0.6162(2)
H29_3 H 0.917496 0.086014 0.641871
C51_3 C 0.88471(14) 0.14615(12) 0.6583(2)
H30_3 H 0.878787 0.142683 0.712677
C52_3 C 0.87057(13) 0.18474(12) 0.6202(2)
C53_3 C 0.87740(15) 0.18981(12) 0.5408(2)
H31_3 H 0.866419 0.216038 0.514867
C54_3 C 0.90039(14) 0.15621(11) 0.4996(2)
H32_3 H 0.905525 0.159379 0.445002
O12_3 O 0.52035(8) 0.10251(7) 0.67106(12)
O13_2 O 0.57047(8) 0.09014(7) 0.77298(13)
O14_3 O 0.68846(9) 0.23044(8) 0.56375(14)
O15_3 O 0.76618(9) 0.35699(7) 0.67389(15)
O16_3 O 0.85393(9) 0.21978(8) 0.66637(14)
O19_3 O 0.94485(8) 0.08777(7) 0.41941(13)
O20_3 O 0.96119(9) 0.05037(7) 0.53035(13)
O21_3 O 0.51499(8) 0.02561(7) 0.59475(13)
H33_3 H 0.550498 0.026167 0.606844
Al11_3 Al 0.97377(4) 0.05564(3) 0.33636(6)
O23_2 O 0.42953(8) 0.09014(7) 0.72702(13)
O28_3 O 0.44485(8) 0.08777(7) 0.58059(13)
O32_3 O 0.500000 0.02752(10) 0.750000
C1_3 C 0.94057(12) 0.89087(11) 0.7093(2)
C2_3 C 0.90572(13) 0.85808(11) 0.67451(19)
C3_3 C 0.91340(13) 0.84366(12) 0.5987(2)
H1_3 H 0.941118 0.854285 0.570428
C4_3 C 0.88127(13) 0.81399(11) 0.5635(2)
H2_3 H 0.886596 0.804525 0.511220
C5_3 C 0.84151(13) 0.79834(11) 0.6052(2)
C6_3 C 0.83338(14) 0.81111(12) 0.6818(2)
H3_3 H 0.806346 0.799473 0.710497
C7_3 C 0.86581(13) 0.84146(12) 0.7157(2)
H4_3 H 0.860476 0.850933 0.768006
C8_3 C 0.77003(13) 0.75150(12) 0.6004(2)
C9_3 C 0.77177(13) 0.70659(11) 0.6190(2)
H5_3 H 0.800699 0.689513 0.610035
C10_3 C 0.73021(13) 0.68734(11) 0.6509(2)
C11_3 C 0.68793(13) 0.71204(12) 0.6645(2)
H6_3 H 0.659496 0.698610 0.686686
C12_3 C 0.68839(13) 0.75692(11) 0.6449(2)
C13_3 C 0.72885(13) 0.77730(12) 0.6117(2)
H7_3 H 0.728264 0.807938 0.597365
C14_3 C 0.58195(12) 0.52029(11) 0.6066(2)
C15_3 C 0.62210(12) 0.55276(11) 0.6234(2)
C16_3 C 0.62979(14) 0.58921(12) 0.5749(2)
H8_3 H 0.609760 0.592954 0.529876
C17_3 C 0.66618(15) 0.62025(12) 0.5911(2)
H9_3 H 0.670693 0.645370 0.557966
C18_3 C 0.69582(13) 0.61438(11) 0.6557(2)
C19_3 C 0.68904(15) 0.57809(13) 0.7042(2)
H10_3 H 0.709483 0.574235 0.748766
C20_3 C 0.65238(15) 0.54734(13) 0.6880(2)
H11_3 H 0.647932 0.522303 0.721300
C21_3 C 0.55709(12) 0.91744(11) 0.4922(2)
C22_3 C 0.58382(13) 0.88237(11) 0.5375(2)
C23_3 C 0.59239(15) 0.88733(12) 0.6162(2)
H12_3 H 0.582504 0.913986 0.641871
C24_3 C 0.61529(14) 0.85385(12) 0.6583(2)
H13_3 H 0.621213 0.857317 0.712677
C25_3 C 0.62943(13) 0.81526(12) 0.6202(2)
C26_3 C 0.62260(15) 0.81019(12) 0.5408(2)
H14_3 H 0.633581 0.783962 0.514867
C27_3 C 0.59961(14) 0.84379(11) 0.4996(2)
H15_3 H 0.594475 0.840621 0.445002
O1_3 O 0.97965(8) 0.89749(7) 0.67106(12)
O2_2 O 0.92953(8) 0.90986(7) 0.77298(13)
O3_3 O 0.81154(9) 0.76956(8) 0.56375(14)
O4_3 O 0.73382(9) 0.64301(7) 0.67389(15)
O5_3 O 0.64607(9) 0.78022(8) 0.66637(14)
O8_3 O 0.55515(8) 0.91223(7) 0.41941(13)
O9_3 O 0.53881(9) 0.94963(7) 0.53035(13)
O10_3 O 0.98501(8) 0.97439(7) 0.59475(13)
H16_3 H 0.949502 0.973833 0.606844
O11_3 O 1.000000 0.97248(10) 0.750000
Al12_3 Al 0.52623(4) 0.94436(3) 0.33636(6)
O25_5 O 0.94303(9) 0.97260(7) 0.45472(13)
O25_6 O 0.55697(9) 0.02740(7) 0.45472(13)
O30_6 O 0.46119(9) 0.05037(7) 0.46965(13)
H17_6 H 0.500000 0.992165 0.750000
O31_6 O 0.48501(8) 0.97439(7) 0.40525(13)
C48_4 C 0.05709(12) 0.08256(11) 0.0078(2)
C54_4 C 0.09961(14) 0.15621(11) 0.0004(2)
H32_4 H 0.094475 0.159379 0.054998
O19_4 O 0.05515(8) 0.08777(7) 0.08059(13)
Al11_4 Al 0.02623(4) 0.05564(3) 0.16364(6)
C28_4 C 0.44057(12) 0.10913(11) 0.7907(2)
C29_4 C 0.40572(13) 0.14192(11) 0.82549(19)
C30_4 C 0.41340(13) 0.15634(12) 0.9013(2)
H18_4 H 0.441118 0.145715 0.929572
C31_4 C 0.38127(13) 0.18601(11) 0.9365(2)
H19_4 H 0.386596 0.195475 0.988780
C32_4 C 0.34151(13) 0.20166(11) 0.8948(2)
C33_4 C 0.33338(14) 0.18889(12) 0.8182(2)
H20_4 H 0.306346 0.200527 0.789503
C34_4 C 0.36581(13) 0.15854(12) 0.7843(2)
H21_4 H 0.360476 0.149067 0.731994
C35_4 C 0.27003(13) 0.24850(12) 0.8996(2)
C36_4 C 0.27177(13) 0.29341(11) 0.8810(2)
H22_4 H 0.300699 0.310487 0.889965
C37_4 C 0.23021(13) 0.31266(11) 0.8491(2)
C38_4 C 0.18793(13) 0.28796(12) 0.8355(2)
H23_4 H 0.159496 0.301390 0.813314
C39_4 C 0.18839(13) 0.24308(11) 0.8551(2)
C40_4 C 0.22885(13) 0.22270(12) 0.8883(2)
H24_4 H 0.228264 0.192062 0.902635
C41_4 C 0.08195(12) 0.47971(11) 0.8934(2)
C42_4 C 0.12210(12) 0.44724(11) 0.8766(2)
C43_4 C 0.12979(14) 0.41079(12) 0.9251(2)
H25_4 H 0.109760 0.407046 0.970124
C44_4 C 0.16618(15) 0.37975(12) 0.9089(2)
H26_4 H 0.170693 0.354630 0.942034
C45_4 C 0.19582(13) 0.38562(11) 0.8443(2)
C46_4 C 0.18904(15) 0.42191(13) 0.7958(2)
H27_4 H 0.209483 0.425765 0.751234
C47_4 C 0.15238(15) 0.45266(13) 0.8120(2)
H28_4 H 0.147932 0.477697 0.778700
C49_4 C 0.08382(13) 0.11763(11) 0.9625(2)
C50_4 C 0.09239(15) 0.11267(12) 0.8838(2)
H29_4 H 0.082504 0.086014 0.858129
C51_4 C 0.11529(14) 0.14615(12) 0.8417(2)
H30_4 H 0.121213 0.142683 0.787323
C52_4 C 0.12943(13) 0.18474(12) 0.8798(2)
C53_4 C 0.12260(15) 0.18981(12) 0.9592(2)
H31_4 H 0.133581 0.216038 0.985133
O12_4 O 0.47965(8) 0.10251(7) 0.82894(12)
O14_4 O 0.31154(9) 0.23044(8) 0.93625(14)
O15_4 O 0.23382(9) 0.35699(7) 0.82611(15)
O16_4 O 0.14607(9) 0.21978(8) 0.83363(14)
O20_4 O 0.03881(9) 0.05037(7) 0.96965(13)
O21_4 O 0.48501(8) 0.02561(7) 0.90525(13)
H33_4 H 0.449502 0.026167 0.893156
O28_4 O 0.55515(8) 0.08777(7) 0.91941(13)
C21_4 C 0.44291(12) 0.91744(11) 0.0078(2)
C27_4 C 0.40039(14) 0.84379(11) 0.0004(2)
H15_4 H 0.405525 0.840621 0.054998
O8_4 O 0.44485(8) 0.91223(7) 0.08059(13)
Al12_4 Al 0.47377(4) 0.94436(3) 0.16364(6)
O25_7 O 0.05697(9) 0.97260(7) 0.04528(13)
C1_4 C 0.05943(12) 0.89087(11) 0.7907(2)
C2_4 C 0.09428(13) 0.85808(11) 0.82549(19)
C3_4 C 0.08660(13) 0.84366(12) 0.9013(2)
H1_4 H 0.058882 0.854285 0.929572
C4_4 C 0.11873(13) 0.81399(11) 0.9365(2)
H2_4 H 0.113404 0.804525 0.988780
C5_4 C 0.15849(13) 0.79834(11) 0.8948(2)
C6_4 C 0.16662(14) 0.81111(12) 0.8182(2)
H3_4 H 0.193654 0.799473 0.789503
C7_4 C 0.13419(13) 0.84146(12) 0.7843(2)
H4_4 H 0.139524 0.850933 0.731994
C8_4 C 0.22997(13) 0.75150(12) 0.8996(2)
C9_4 C 0.22823(13) 0.70659(11) 0.8810(2)
H5_4 H 0.199301 0.689513 0.889965
C10_4 C 0.26979(13) 0.68734(11) 0.8491(2)
C11_4 C 0.31207(13) 0.71204(12) 0.8355(2)
H6_4 H 0.340504 0.698610 0.813314
C12_4 C 0.31161(13) 0.75692(11) 0.8551(2)
C13_4 C 0.27115(13) 0.77730(12) 0.8883(2)
H7_4 H 0.271736 0.807938 0.902635
C14_4 C 0.41805(12) 0.52029(11) 0.8934(2)
C15_4 C 0.37790(12) 0.55276(11) 0.8766(2)
C16_4 C 0.37021(14) 0.58921(12) 0.9251(2)
H8_4 H 0.390240 0.592954 0.970124
C17_4 C 0.33382(15) 0.62025(12) 0.9089(2)
H9_4 H 0.329307 0.645370 0.942034
C18_4 C 0.30418(13) 0.61438(11) 0.8443(2)
C19_4 C 0.31096(15) 0.57809(13) 0.7958(2)
H10_4 H 0.290517 0.574235 0.751234
C20_4 C 0.34762(15) 0.54734(13) 0.8120(2)
H11_4 H 0.352068 0.522303 0.778700
C22_4 C 0.41618(13) 0.88237(11) 0.9625(2)
C23_4 C 0.40761(15) 0.88733(12) 0.8838(2)
H12_4 H 0.417496 0.913986 0.858129
C24_4 C 0.38471(14) 0.85385(12) 0.8417(2)
H13_4 H 0.378787 0.857317 0.787323
C25_4 C 0.37057(13) 0.81526(12) 0.8798(2)
C26_4 C 0.37740(15) 0.81019(12) 0.9592(2)
H14_4 H 0.366419 0.783962 0.985133
O1_4 O 0.02035(8) 0.89749(7) 0.82894(12)
O3_4 O 0.18846(9) 0.76956(8) 0.93625(14)
O4_4 O 0.26618(9) 0.64301(7) 0.82611(15)
O5_4 O 0.35393(9) 0.78022(8) 0.83363(14)
O9_4 O 0.46119(9) 0.94963(7) 0.96965(13)
O10_4 O 0.01499(8) 0.97439(7) 0.90525(13)
H16_4 H 0.050498 0.973833 0.893156
O31_7 O 0.98501(8) 0.02561(7) 0.09475(13)
O30_7 O 0.96119(9) 0.94963(7) 0.03035(13)
O29_4 O 0.94485(8) 0.91223(7) 0.91941(13)
O25_8 O 0.44303(9) 0.02740(7) 0.04528(13)
O30_8 O 0.53881(9) 0.05037(7) 0.03035(13)
O31_8 O 0.51499(8) 0.97439(7) 0.09475(13)
O23_3 O 0.07047(8) 0.40986(7) 0.27298(13)
O27_3 O 0.07569(8) 0.48901(7) 0.34584(13)
O32_4 O 0.000000 0.47248(10) 0.250000
O7_3 O 0.92431(8) 0.01099(7) 0.34584(13)
C1_5 C 0.55943(12) 0.60913(11) 0.2907(2)
C2_5 C 0.59428(13) 0.64192(11) 0.32549(19)
C3_5 C 0.58660(13) 0.65634(12) 0.4013(2)
H1_5 H 0.558882 0.645715 0.429572
C4_5 C 0.61873(13) 0.68601(11) 0.4365(2)
H2_5 H 0.613404 0.695475 0.488780
C5_5 C 0.65849(13) 0.70166(11) 0.3948(2)
C6_5 C 0.66662(14) 0.68889(12) 0.3182(2)
H3_5 H 0.693654 0.700527 0.289503
C7_5 C 0.63419(13) 0.65854(12) 0.2843(2)
H4_5 H 0.639524 0.649067 0.231994
C8_5 C 0.72997(13) 0.74850(12) 0.3996(2)
C9_5 C 0.72823(13) 0.79341(11) 0.3810(2)
H5_5 H 0.699301 0.810487 0.389965
C10_5 C 0.76979(13) 0.81266(11) 0.3491(2)
C11_5 C 0.81207(13) 0.78796(12) 0.3355(2)
H6_5 H 0.840504 0.801390 0.313314
C12_5 C 0.81161(13) 0.74308(11) 0.3551(2)
C13_5 C 0.77115(13) 0.72270(12) 0.3883(2)
H7_5 H 0.771736 0.692062 0.402635
C14_5 C 0.91805(12) 0.97971(11) 0.3934(2)
C15_5 C 0.87790(12) 0.94724(11) 0.3766(2)
C16_5 C 0.87021(14) 0.91079(12) 0.4251(2)
H8_5 H 0.890240 0.907046 0.470124
C17_5 C 0.83382(15) 0.87975(12) 0.4089(2)
H9_5 H 0.829307 0.854630 0.442034
C18_5 C 0.80418(13) 0.88562(11) 0.3443(2)
C19_5 C 0.81096(15) 0.92191(13) 0.2958(2)
H10_5 H 0.790517 0.925765 0.251234
C20_5 C 0.84762(15) 0.95266(13) 0.3120(2)
H11_5 H 0.852068 0.977697 0.278700
C21_5 C 0.94291(12) 0.58256(11) 0.5078(2)
C22_5 C 0.91618(13) 0.61763(11) 0.4625(2)
C23_5 C 0.90761(15) 0.61267(12) 0.3838(2)
H12_5 H 0.917496 0.586014 0.358129
C24_5 C 0.88471(14) 0.64615(12) 0.3417(2)
H13_5 H 0.878787 0.642683 0.287323
C25_5 C 0.87057(13) 0.68474(12) 0.3798(2)
C26_5 C 0.87740(15) 0.68981(12) 0.4592(2)
H14_5 H 0.866419 0.716038 0.485133
C27_5 C 0.90039(14) 0.65621(11) 0.5004(2)
H15_5 H 0.905525 0.659379 0.554998
O1_5 O 0.52035(8) 0.60251(7) 0.32894(12)
O2_3 O 0.57047(8) 0.59014(7) 0.22702(13)
O3_5 O 0.68846(9) 0.73044(8) 0.43625(14)
O4_5 O 0.76618(9) 0.85699(7) 0.32611(15)
O5_5 O 0.85393(9) 0.71978(8) 0.33363(14)
H16_5 H 0.550498 0.526167 0.393156
O11_4 O 0.500000 0.52752(10) 0.250000
H17_7 H 0.500000 0.492165 0.250000
C28_5 C 0.94057(12) 0.39087(11) 0.2907(2)
C29_5 C 0.90572(13) 0.35808(11) 0.32549(19)
C30_5 C 0.91340(13) 0.34366(12) 0.4013(2)
H18_5 H 0.941118 0.354285 0.429572
C31_5 C 0.88127(13) 0.31399(11) 0.4365(2)
H19_5 H 0.886596 0.304525 0.488780
C32_5 C 0.84151(13) 0.29834(11) 0.3948(2)
C33_5 C 0.83338(14) 0.31111(12) 0.3182(2)
H20_5 H 0.806346 0.299473 0.289503
C34_5 C 0.86581(13) 0.34146(12) 0.2843(2)
H21_5 H 0.860476 0.350933 0.231994
C35_5 C 0.77003(13) 0.25150(12) 0.3996(2)
C36_5 C 0.77177(13) 0.20659(11) 0.3810(2)
H22_5 H 0.800699 0.189513 0.389965
C37_5 C 0.73021(13) 0.18734(11) 0.3491(2)
C38_5 C 0.68793(13) 0.21204(12) 0.3355(2)
H23_5 H 0.659496 0.198610 0.313314
C39_5 C 0.68839(13) 0.25692(11) 0.3551(2)
C40_5 C 0.72885(13) 0.27730(12) 0.3883(2)
H24_5 H 0.728264 0.307938 0.402635
C41_5 C 0.58195(12) 0.02029(11) 0.3934(2)
C42_5 C 0.62210(12) 0.05276(11) 0.3766(2)
C43_5 C 0.62979(14) 0.08921(12) 0.4251(2)
H25_5 H 0.609760 0.092954 0.470124
C44_5 C 0.66618(15) 0.12025(12) 0.4089(2)
H26_5 H 0.670693 0.145370 0.442034
C45_5 C 0.69582(13) 0.11438(11) 0.3443(2)
C46_5 C 0.68904(15) 0.07809(13) 0.2958(2)
H27_5 H 0.709483 0.074235 0.251234
C47_5 C 0.65238(15) 0.04734(13) 0.3120(2)
H28_5 H 0.647932 0.022303 0.278700
C48_5 C 0.55709(12) 0.41744(11) 0.5078(2)
C49_5 C 0.58382(13) 0.38237(11) 0.4625(2)
C50_5 C 0.59239(15) 0.38733(12) 0.3838(2)
H29_5 H 0.582504 0.413986 0.358129
C51_5 C 0.61529(14) 0.35385(12) 0.3417(2)
H30_5 H 0.621213 0.357317 0.287323
C52_5 C 0.62943(13) 0.31526(12) 0.3798(2)
C53_5 C 0.62260(15) 0.31019(12) 0.4592(2)
H31_5 H 0.633581 0.283962 0.485133
C54_5 C 0.59961(14) 0.34379(11) 0.5004(2)
H32_5 H 0.594475 0.340621 0.554998
O12_5 O 0.97965(8) 0.39749(7) 0.32894(12)
O13_3 O 0.92953(8) 0.40986(7) 0.22702(13)
O14_5 O 0.81154(9) 0.26956(8) 0.43625(14)
O15_5 O 0.73382(9) 0.14301(7) 0.32611(15)
O16_5 O 0.64607(9) 0.28022(8) 0.33363(14)
H33_5 H 0.949502 0.473833 0.393156
O22_3 O 0.42953(8) 0.59014(7) 0.27298(13)
O26_3 O 0.42431(8) 0.51099(7) 0.34584(13)
O32_5 O 1.000000 0.47248(10) 0.250000
O18_3 O 0.57569(8) 0.98901(7) 0.34584(13)
H17_8 H -0.000000 0.507835 0.250000
H17_9 H 1.000000 0.507835 0.250000
O7_4 O 0.07569(8) 0.01099(7) 0.15416(13)
C1_6 C 0.44057(12) 0.60913(11) 0.2093(2)
C2_6 C 0.40572(13) 0.64192(11) 0.17451(19)
C3_6 C 0.41340(13) 0.65634(12) 0.0987(2)
H1_6 H 0.441118 0.645715 0.070428
C4_6 C 0.38127(13) 0.68601(11) 0.0635(2)
H2_6 H 0.386596 0.695475 0.011220
C5_6 C 0.34151(13) 0.70166(11) 0.1052(2)
C6_6 C 0.33338(14) 0.68889(12) 0.1818(2)
H3_6 H 0.306346 0.700527 0.210497
C7_6 C 0.36581(13) 0.65854(12) 0.2157(2)
H4_6 H 0.360476 0.649067 0.268006
C8_6 C 0.27003(13) 0.74850(12) 0.1004(2)
C9_6 C 0.27177(13) 0.79341(11) 0.1190(2)
H5_6 H 0.300699 0.810487 0.110035
C10_6 C 0.23021(13) 0.81266(11) 0.1509(2)
C11_6 C 0.18793(13) 0.78796(12) 0.1645(2)
H6_6 H 0.159496 0.801390 0.186686
C12_6 C 0.18839(13) 0.74308(11) 0.1449(2)
C13_6 C 0.22885(13) 0.72270(12) 0.1117(2)
H7_6 H 0.228264 0.692062 0.097365
C14_6 C 0.08195(12) 0.97971(11) 0.1066(2)
C15_6 C 0.12210(12) 0.94724(11) 0.1234(2)
C16_6 C 0.12979(14) 0.91079(12) 0.0749(2)
H8_6 H 0.109760 0.907046 0.029876
C17_6 C 0.16618(15) 0.87975(12) 0.0911(2)
H9_6 H 0.170693 0.854630 0.057966
C18_6 C 0.19582(13) 0.88562(11) 0.1557(2)
C19_6 C 0.18904(15) 0.92191(13) 0.2042(2)
H10_6 H 0.209483 0.925765 0.248766
C20_6 C 0.15238(15) 0.95266(13) 0.1880(2)
H11_6 H 0.147932 0.977697 0.221300
C22_6 C 0.08382(13) 0.61763(11) 0.0375(2)
C23_6 C 0.09239(15) 0.61267(12) 0.1162(2)
H12_6 H 0.082504 0.586014 0.141871
C24_6 C 0.11529(14) 0.64615(12) 0.1583(2)
H13_6 H 0.121213 0.642683 0.212677
C25_6 C 0.12943(13) 0.68474(12) 0.1202(2)
C26_6 C 0.12260(15) 0.68981(12) 0.0408(2)
H14_6 H 0.133581 0.716038 0.014867
O1_6 O 0.47965(8) 0.60251(7) 0.17106(12)
O3_6 O 0.31154(9) 0.73044(8) 0.06375(14)
O4_6 O 0.23382(9) 0.85699(7) 0.17389(15)
O5_6 O 0.14607(9) 0.71978(8) 0.16637(14)
H16_6 H 0.449502 0.526167 0.106844
C28_6 C 0.05943(12) 0.39087(11) 0.2093(2)
C29_6 C 0.09428(13) 0.35808(11) 0.17451(19)
C30_6 C 0.08660(13) 0.34366(12) 0.0987(2)
H18_6 H 0.058882 0.354285 0.070428
C31_6 C 0.11873(13) 0.31399(11) 0.0635(2)
H19_6 H 0.113404 0.304525 0.011220
C32_6 C 0.15849(13) 0.29834(11) 0.1052(2)
C33_6 C 0.16662(14) 0.31111(12) 0.1818(2)
H20_6 H 0.193654 0.299473 0.210497
C34_6 C 0.13419(13) 0.34146(12) 0.2157(2)
H21_6 H 0.139524 0.350933 0.268006
C35_6 C 0.22997(13) 0.25150(12) 0.1004(2)
C36_6 C 0.22823(13) 0.20659(11) 0.1190(2)
H22_6 H 0.199301 0.189513 0.110035
C37_6 C 0.26979(13) 0.18734(11) 0.1509(2)
C38_6 C 0.31207(13) 0.21204(12) 0.1645(2)
H23_6 H 0.340504 0.198610 0.186686
C39_6 C 0.31161(13) 0.25692(11) 0.1449(2)
C40_6 C 0.27115(13) 0.27730(12) 0.1117(2)
H24_6 H 0.271736 0.307938 0.097365
C41_6 C 0.41805(12) 0.02029(11) 0.1066(2)
C42_6 C 0.37790(12) 0.05276(11) 0.1234(2)
C43_6 C 0.37021(14) 0.08921(12) 0.0749(2)
H25_6 H 0.390240 0.092954 0.029876
C44_6 C 0.33382(15) 0.12025(12) 0.0911(2)
H26_6 H 0.329307 0.145370 0.057966
C45_6 C 0.30418(13) 0.11438(11) 0.1557(2)
C46_6 C 0.31096(15) 0.07809(13) 0.2042(2)
H27_6 H 0.290517 0.074235 0.248766
C47_6 C 0.34762(15) 0.04734(13) 0.1880(2)
H28_6 H 0.352068 0.022303 0.221300
C49_6 C 0.41618(13) 0.38237(11) 0.0375(2)
C50_6 C 0.40761(15) 0.38733(12) 0.1162(2)
H29_6 H 0.417496 0.413986 0.141871
C51_6 C 0.38471(14) 0.35385(12) 0.1583(2)
H30_6 H 0.378787 0.357317 0.212677
C52_6 C 0.37057(13) 0.31526(12) 0.1202(2)
C53_6 C 0.37740(15) 0.31019(12) 0.0408(2)
H31_6 H 0.366419 0.283962 0.014867
O12_6 O 0.02035(8) 0.39749(7) 0.17106(12)
O14_6 O 0.18846(9) 0.26956(8) 0.06375(14)
O15_6 O 0.26618(9) 0.14301(7) 0.17389(15)
O16_6 O 0.35393(9) 0.28022(8) 0.16637(14)
H33_6 H 0.050498 0.473833 0.106844
O26_4 O 0.57569(8) 0.51099(7) 0.15416(13)
C21_6 C 0.05709(12) 0.58256(11) 0.9922(2)
C27_6 C 0.09961(14) 0.65621(11) 0.9996(2)
H15_6 H 0.094475 0.659379 0.945002
C48_6 C 0.44291(12) 0.41744(11) 0.9922(2)
C54_6 C 0.40039(14) 0.34379(11) 0.9996(2)
H32_6 H 0.405525 0.340621 0.945002
O18_4 O 0.42431(8) 0.98901(7) 0.15416(13)
O27_4 O 0.92431(8) 0.48901(7) 0.15416(13)
C1_7 C 0.05943(12) 0.10913(11) 0.2907(2)
C2_7 C 0.09428(13) 0.14192(11) 0.32549(19)
C3_7 C 0.08660(13) 0.15634(12) 0.4013(2)
H1_7 H 0.058882 0.145715 0.429572
C4_7 C 0.11873(13) 0.18601(11) 0.4365(2)
H2_7 H 0.113404 0.195475 0.488780
C5_7 C 0.15849(13) 0.20166(11) 0.3948(2)
C6_7 C 0.16662(14) 0.18889(12) 0.3182(2)
H3_7 H 0.193654 0.200527 0.289503
C7_7 C 0.13419(13) 0.15854(12) 0.2843(2)
H4_7 H 0.139524 0.149067 0.231994
C8_7 C 0.22997(13) 0.24850(12) 0.3996(2)
C9_7 C 0.22823(13) 0.29341(11) 0.3810(2)
H5_7 H 0.199301 0.310487 0.389965
C10_7 C 0.26979(13) 0.31266(11) 0.3491(2)
C11_7 C 0.31207(13) 0.28796(12) 0.3355(2)
H6_7 H 0.340504 0.301390 0.313314
C12_7 C 0.31161(13) 0.24308(11) 0.3551(2)
C13_7 C 0.27115(13) 0.22270(12) 0.3883(2)
H7_7 H 0.271736 0.192062 0.402635
C14_7 C 0.41805(12) 0.47971(11) 0.3934(2)
C15_7 C 0.37790(12) 0.44724(11) 0.3766(2)
C16_7 C 0.37021(14) 0.41079(12) 0.4251(2)
H8_7 H 0.390240 0.407046 0.470124
C17_7 C 0.33382(15) 0.37975(12) 0.4089(2)
H9_7 H 0.329307 0.354630 0.442034
C18_7 C 0.30418(13) 0.38562(11) 0.3443(2)
C19_7 C 0.31096(15) 0.42191(13) 0.2958(2)
H10_7 H 0.290517 0.425765 0.251234
C20_7 C 0.34762(15) 0.45266(13) 0.3120(2)
H11_7 H 0.352068 0.477697 0.278700
C21_7 C 0.44291(12) 0.08256(11) 0.5078(2)
C22_7 C 0.41618(13) 0.11763(11) 0.4625(2)
C23_7 C 0.40761(15) 0.11267(12) 0.3838(2)
H12_7 H 0.417496 0.086014 0.358129
C24_7 C 0.38471(14) 0.14615(12) 0.3417(2)
H13_7 H 0.378787 0.142683 0.287323
C25_7 C 0.37057(13) 0.18474(12) 0.3798(2)
C26_7 C 0.37740(15) 0.18981(12) 0.4592(2)
H14_7 H 0.366419 0.216038 0.485133
C27_7 C 0.40039(14) 0.15621(11) 0.5004(2)
H15_7 H 0.405525 0.159379 0.554998
O1_7 O 0.02035(8) 0.10251(7) 0.32894(12)
O2_4 O 0.07047(8) 0.09014(7) 0.22702(13)
O3_7 O 0.18846(9) 0.23044(8) 0.43625(14)
O4_7 O 0.26618(9) 0.35699(7) 0.32611(15)
O5_7 O 0.35393(9) 0.21978(8) 0.33363(14)
H16_7 H 0.050498 0.026167 0.393156
O11_5 O 0.000000 0.02752(10) 0.250000
H17_10 H 0.000000 0.992165 0.250000
C28_7 C 0.44057(12) 0.89087(11) 0.2907(2)
C29_7 C 0.40572(13) 0.85808(11) 0.32549(19)
C30_7 C 0.41340(13) 0.84366(12) 0.4013(2)
H18_7 H 0.441118 0.854285 0.429572
C31_7 C 0.38127(13) 0.81399(11) 0.4365(2)
H19_7 H 0.386596 0.804525 0.488780
C32_7 C 0.34151(13) 0.79834(11) 0.3948(2)
C33_7 C 0.33338(14) 0.81111(12) 0.3182(2)
H20_7 H 0.306346 0.799473 0.289503
C34_7 C 0.36581(13) 0.84146(12) 0.2843(2)
H21_7 H 0.360476 0.850933 0.231994
C35_7 C 0.27003(13) 0.75150(12) 0.3996(2)
C36_7 C 0.27177(13) 0.70659(11) 0.3810(2)
H22_7 H 0.300699 0.689513 0.389965
C37_7 C 0.23021(13) 0.68734(11) 0.3491(2)
C38_7 C 0.18793(13) 0.71204(12) 0.3355(2)
H23_7 H 0.159496 0.698610 0.313314
C39_7 C 0.18839(13) 0.75692(11) 0.3551(2)
C40_7 C 0.22885(13) 0.77730(12) 0.3883(2)
H24_7 H 0.228264 0.807938 0.402635
C41_7 C 0.08195(12) 0.52029(11) 0.3934(2)
C42_7 C 0.12210(12) 0.55276(11) 0.3766(2)
C43_7 C 0.12979(14) 0.58921(12) 0.4251(2)
H25_7 H 0.109760 0.592954 0.470124
C44_7 C 0.16618(15) 0.62025(12) 0.4089(2)
H26_7 H 0.170693 0.645370 0.442034
C45_7 C 0.19582(13) 0.61438(11) 0.3443(2)
C46_7 C 0.18904(15) 0.57809(13) 0.2958(2)
H27_7 H 0.209483 0.574235 0.251234
C47_7 C 0.15238(15) 0.54734(13) 0.3120(2)
H28_7 H 0.147932 0.522303 0.278700
C48_7 C 0.05709(12) 0.91744(11) 0.5078(2)
C49_7 C 0.08382(13) 0.88237(11) 0.4625(2)
C50_7 C 0.09239(15) 0.88733(12) 0.3838(2)
H29_7 H 0.082504 0.913986 0.358129
C51_7 C 0.11529(14) 0.85385(12) 0.3417(2)
H30_7 H 0.121213 0.857317 0.287323
C52_7 C 0.12943(13) 0.81526(12) 0.3798(2)
C53_7 C 0.12260(15) 0.81019(12) 0.4592(2)
H31_7 H 0.133581 0.783962 0.485133
C54_7 C 0.09961(14) 0.84379(11) 0.5004(2)
H32_7 H 0.094475 0.840621 0.554998
O12_7 O 0.47965(8) 0.89749(7) 0.32894(12)
O13_4 O 0.42953(8) 0.90986(7) 0.22702(13)
O14_7 O 0.31154(9) 0.76956(8) 0.43625(14)
O15_7 O 0.23382(9) 0.64301(7) 0.32611(15)
O16_7 O 0.14607(9) 0.78022(8) 0.33363(14)
H33_7 H 0.449502 0.973833 0.393156
O23_4 O 0.57047(8) 0.90986(7) 0.27298(13)
O32_6 O 0.500000 0.97248(10) 0.250000
O11_6 O 1.000000 0.02752(10) 0.250000
O22_4 O 0.92953(8) 0.09014(7) 0.27298(13)
H17_11 H 1.000000 0.992165 0.250000
H17_12 H 0.500000 0.007835 0.250000
C1_8 C 0.94057(12) 0.10913(11) 0.2093(2)
C2_8 C 0.90572(13) 0.14192(11) 0.17451(19)
C3_8 C 0.91340(13) 0.15634(12) 0.0987(2)
H1_8 H 0.941118 0.145715 0.070428
C4_8 C 0.88127(13) 0.18601(11) 0.0635(2)
H2_8 H 0.886596 0.195475 0.011220
C5_8 C 0.84151(13) 0.20166(11) 0.1052(2)
C6_8 C 0.83338(14) 0.18889(12) 0.1818(2)
H3_8 H 0.806346 0.200527 0.210497
C7_8 C 0.86581(13) 0.15854(12) 0.2157(2)
H4_8 H 0.860476 0.149067 0.268006
C8_8 C 0.77003(13) 0.24850(12) 0.1004(2)
C9_8 C 0.77177(13) 0.29341(11) 0.1190(2)
H5_8 H 0.800699 0.310487 0.110035
C10_8 C 0.73021(13) 0.31266(11) 0.1509(2)
C11_8 C 0.68793(13) 0.28796(12) 0.1645(2)
H6_8 H 0.659496 0.301390 0.186686
C12_8 C 0.68839(13) 0.24308(11) 0.1449(2)
C13_8 C 0.72885(13) 0.22270(12) 0.1117(2)
H7_8 H 0.728264 0.192062 0.097365
C14_8 C 0.58195(12) 0.47971(11) 0.1066(2)
C15_8 C 0.62210(12) 0.44724(11) 0.1234(2)
C16_8 C 0.62979(14) 0.41079(12) 0.0749(2)
H8_8 H 0.609760 0.407046 0.029876
C17_8 C 0.66618(15) 0.37975(12) 0.0911(2)
H9_8 H 0.670693 0.354630 0.057966
C18_8 C 0.69582(13) 0.38562(11) 0.1557(2)
C19_8 C 0.68904(15) 0.42191(13) 0.2042(2)
H10_8 H 0.709483 0.425765 0.248766
C20_8 C 0.65238(15) 0.45266(13) 0.1880(2)
H11_8 H 0.647932 0.477697 0.221300
C22_8 C 0.58382(13) 0.11763(11) 0.0375(2)
C23_8 C 0.59239(15) 0.11267(12) 0.1162(2)
H12_8 H 0.582504 0.086014 0.141871
C24_8 C 0.61529(14) 0.14615(12) 0.1583(2)
H13_8 H 0.621213 0.142683 0.212677
C25_8 C 0.62943(13) 0.18474(12) 0.1202(2)
C26_8 C 0.62260(15) 0.18981(12) 0.0408(2)
H14_8 H 0.633581 0.216038 0.014867
O1_8 O 0.97965(8) 0.10251(7) 0.17106(12)
O3_8 O 0.81154(9) 0.23044(8) 0.06375(14)
O4_8 O 0.73382(9) 0.35699(7) 0.17389(15)
O5_8 O 0.64607(9) 0.21978(8) 0.16637(14)
H16_8 H 0.949502 0.026167 0.106844
C21_8 C 0.55709(12) 0.08256(11) 0.9922(2)
C27_8 C 0.59961(14) 0.15621(11) 0.9996(2)
H15_8 H 0.594475 0.159379 0.945002
C28_8 C 0.55943(12) 0.89087(11) 0.2093(2)
C29_8 C 0.59428(13) 0.85808(11) 0.17451(19)
C30_8 C 0.58660(13) 0.84366(12) 0.0987(2)
H18_8 H 0.558882 0.854285 0.070428
C31_8 C 0.61873(13) 0.81399(11) 0.0635(2)
H19_8 H 0.613404 0.804525 0.011220
C32_8 C 0.65849(13) 0.79834(11) 0.1052(2)
C33_8 C 0.66662(14) 0.81111(12) 0.1818(2)
H20_8 H 0.693654 0.799473 0.210497
C34_8 C 0.63419(13) 0.84146(12) 0.2157(2)
H21_8 H 0.639524 0.850933 0.268006
C35_8 C 0.72997(13) 0.75150(12) 0.1004(2)
C36_8 C 0.72823(13) 0.70659(11) 0.1190(2)
H22_8 H 0.699301 0.689513 0.110035
C37_8 C 0.76979(13) 0.68734(11) 0.1509(2)
C38_8 C 0.81207(13) 0.71204(12) 0.1645(2)
H23_8 H 0.840504 0.698610 0.186686
C39_8 C 0.81161(13) 0.75692(11) 0.1449(2)
C40_8 C 0.77115(13) 0.77730(12) 0.1117(2)
H24_8 H 0.771736 0.807938 0.097365
C41_8 C 0.91805(12) 0.52029(11) 0.1066(2)
C42_8 C 0.87790(12) 0.55276(11) 0.1234(2)
C43_8 C 0.87021(14) 0.58921(12) 0.0749(2)
H25_8 H 0.890240 0.592954 0.029876
C44_8 C 0.83382(15) 0.62025(12) 0.0911(2)
H26_8 H 0.829307 0.645370 0.057966
C45_8 C 0.80418(13) 0.61438(11) 0.1557(2)
C46_8 C 0.81096(15) 0.57809(13) 0.2042(2)
H27_8 H 0.790517 0.574235 0.248766
C47_8 C 0.84762(15) 0.54734(13) 0.1880(2)
H28_8 H 0.852068 0.522303 0.221300
C49_8 C 0.91618(13) 0.88237(11) 0.0375(2)
C50_8 C 0.90761(15) 0.88733(12) 0.1162(2)
H29_8 H 0.917496 0.913986 0.141871
C51_8 C 0.88471(14) 0.85385(12) 0.1583(2)
H30_8 H 0.878787 0.857317 0.212677
C52_8 C 0.87057(13) 0.81526(12) 0.1202(2)
C53_8 C 0.87740(15) 0.81019(12) 0.0408(2)
H31_8 H 0.866419 0.783962 0.014867
O12_8 O 0.52035(8) 0.89749(7) 0.17106(12)
O14_8 O 0.68846(9) 0.76956(8) 0.06375(14)
O15_8 O 0.76618(9) 0.64301(7) 0.17389(15)
O16_8 O 0.85393(9) 0.78022(8) 0.16637(14)
H33_8 H 0.550498 0.973833 0.106844
C48_8 C 0.94291(12) 0.91744(11) 0.9922(2)
C54_8 C 0.90039(14) 0.84379(11) 0.9996(2)
H32_8 H 0.905525 0.840621 0.945002
loop_
_geom_bond_atom_site_label_1
_geom_bond_atom_site_label_2
_geom_bond_site_symmetry_1
_geom_bond_site_symmetry_2
Al10 O18 1_555 1_555
Al1 O10 1_555 1_555
Al2 O1 1_555 1_555
C1 C2 1_555 1_555
C2 C3 1_555 1_555
C3 H1 1_555 1_555
C4 C3 1_555 1_555
H2 C4 1_555 1_555
C5 C4 1_555 1_555
C6 C5 1_555 1_555
H3 C6 1_555 1_555
C7 C2 1_555 1_555
H4 C7 1_555 1_555
C8 C9 1_555 1_555
C9 H5 1_555 1_555
C10 C9 1_555 1_555
C11 C10 1_555 1_555
H6 C11 1_555 1_555
C12 C11 1_555 1_555
C13 C8 1_555 1_555
H7 C13 1_555 1_555
C14 C15 1_555 1_555
C15 C16 1_555 1_555
C16 H8 1_555 1_555
C17 C16 1_555 1_555
H9 C17 1_555 1_555
C18 C17 1_555 1_555
C19 C18 1_555 1_555
H10 C19 1_555 1_555
C20 C15 1_555 1_555
H11 C20 1_555 1_555
C21 C22 1_555 1_555
C22 C23 1_555 1_555
C23 H12 1_555 1_555
C24 C23 1_555 1_555
H13 C24 1_555 1_555
C25 C24 1_555 1_555
C26 C25 1_555 1_555
H14 C26 1_555 1_555
C27 C22 1_555 1_555
H15 C27 1_555 1_555
O1 C1 1_555 1_555
O2 C1 1_555 1_555
O3 C5 1_555 1_555
O4 C10 1_555 1_555
O5 C12 1_555 1_555
O6 C14 1_555 1_555
O8 C21 1_555 1_555
O9 C21 1_555 1_555
O10 Al2 1_555 1_555
H16 O10 1_555 1_555
O11 Al2 1_555 1_555
H17 O11 1_555 1_555
C28 C29 1_555 1_555
C29 C30 1_555 1_555
C30 H18 1_555 1_555
C31 C30 1_555 1_555
H19 C31 1_555 1_555
C32 C31 1_555 1_555
C33 C32 1_555 1_555
H20 C33 1_555 1_555
C34 C29 1_555 1_555
H21 C34 1_555 1_555
C35 C36 1_555 1_555
C36 H22 1_555 1_555
C37 C36 1_555 1_555
C38 C37 1_555 1_555
H23 C38 1_555 1_555
C39 C38 1_555 1_555
C40 C35 1_555 1_555
H24 C40 1_555 1_555
C41 C42 1_555 1_555
C42 C43 1_555 1_555
C43 H25 1_555 1_555
C44 C43 1_555 1_555
H26 C44 1_555 1_555
C45 C44 1_555 1_555
C46 C45 1_555 1_555
H27 C46 1_555 1_555
C47 C42 1_555 1_555
H28 C47 1_555 1_555
C48 C49 1_555 1_555
C49 C50 1_555 1_555
C50 H29 1_555 1_555
C51 C50 1_555 1_555
H30 C51 1_555 1_555
C52 C51 1_555 1_555
C53 C52 1_555 1_555
H31 C53 1_555 1_555
C54 C49 1_555 1_555
H32 C54 1_555 1_555
O12 C28 1_555 1_555
O13 C28 1_555 1_555
O14 C32 1_555 1_555
O15 C37 1_555 1_555
O16 C39 1_555 1_555
O17 C41 1_555 1_555
O19 C48 1_555 1_555
O20 Al1 1_555 1_555
H33 O21 1_555 1_555
Al4 O9 1_555 1_555
Al5 O6 1_555 1_555
Al6_2 O17 1_555 1_555
Al7 O2 1_555 1_555
Al8 O13 1_555 1_555
Al11 O19 1_555 1_555
Al12 O8 1_555 1_555
O22 Al2 1_555 1_555
O24 Al1 1_555 1_555
O25 Al1 1_555 1_555
O26 Al2 1_555 1_555
O29 Al2 1_555 1_555
O30 Al1 1_555 1_555
O31 Al1 1_555 1_555
C6 C7 1_555 1_555
C8 O3 1_555 1_555
C12 C13 1_555 1_555
C18 O4 1_555 1_555
C19 C20 1_555 1_555
C25 O5 1_555 1_555
C26 C27 1_555 1_555
O11 Al7 1_555 1_555
C33 C34 1_555 1_555
C35 O14 1_555 1_555
C39 C40 1_555 1_555
C45 O15 1_555 1_555
C46 C47 1_555 1_555
C48 O20 1_555 1_555
C52 O16 1_555 1_555
C53 C54 1_555 1_555
O21 Al4 1_555 1_555
Al8 O32 1_555 1_555
Al11 O31 1_555 1_555
Al9 O7 1_555 1_555
O23 Al3 1_555 1_555
O27 Al3 1_555 1_555
O28 Al3 1_555 1_555
O32_2 Al3 1_555 1_555
H17_2 O32 1_555 1_555
O25_2 Al4 1_555 1_555
H17_3 O32_2 1_555 1_555
O24_2 Al4_2 1_555 1_555
O30_2 Al4_2 1_555 1_555
O31_2 Al4_2 1_555 1_555
O27_2 Al8 1_555 1_555
O28_2 Al8 1_555 1_555
Al10_2 O18_2 1_555 1_555
H15_2 C27_2 1_555 1_555
O8_2 C21_2 1_555 1_555
H32_2 C54_2 1_555 1_555
O19_2 C48_2 1_555 1_555
Al11_2 O19_2 1_555 1_555
Al12_2 O8_2 1_555 1_555
O25_3 Al1_2 1_555 1_555
O30_3 Al1_2 1_555 1_555
O31_3 Al1_2 1_555 1_555
Al11_2 O31_3 1_555 1_555
Al1_3 O10_2 1_555 1_555
Al7 O1_2 1_555 1_555
C1_2 C2_2 1_555 1_555
C2_2 C3_2 1_555 1_555
C3_2 H1_2 1_555 1_555
C4_2 C3_2 1_555 1_555
H2_2 C4_2 1_555 1_555
C5_2 C4_2 1_555 1_555
C6_2 C5_2 1_555 1_555
H3_2 C6_2 1_555 1_555
C7_2 C2_2 1_555 1_555
H4_2 C7_2 1_555 1_555
C8_2 C9_2 1_555 1_555
C9_2 H5_2 1_555 1_555
C10_2 C9_2 1_555 1_555
C11_2 C10_2 1_555 1_555
H6_2 C11_2 1_555 1_555
C12_2 C11_2 1_555 1_555
C13_2 C8_2 1_555 1_555
H7_2 C13_2 1_555 1_555
C14_2 C15_2 1_555 1_555
C15_2 C16_2 1_555 1_555
C16_2 H8_2 1_555 1_555
C17_2 C16_2 1_555 1_555
H9_2 C17_2 1_555 1_555
C18_2 C17_2 1_555 1_555
C19_2 C18_2 1_555 1_555
H10_2 C19_2 1_555 1_555
C20_2 C15_2 1_555 1_555
H11_2 C20_2 1_555 1_555
C22_2 C23_2 1_555 1_555
C23_2 H12_2 1_555 1_555
C24_2 C23_2 1_555 1_555
H13_2 C24_2 1_555 1_555
C25_2 C24_2 1_555 1_555
C26_2 C25_2 1_555 1_555
H14_2 C26_2 1_555 1_555
O1_2 C1_2 1_555 1_555
O22 C1_2 1_555 1_555
O3_2 C5_2 1_555 1_555
O4_2 C10_2 1_555 1_555
O5_2 C12_2 1_555 1_555
O6_2 C14_2 1_555 1_555
O10_2 Al7 1_555 1_555
H16_2 O10_2 1_555 1_555
C28_2 C29_2 1_555 1_555
C29_2 C30_2 1_555 1_555
C30_2 H18_2 1_555 1_555
C31_2 C30_2 1_555 1_555
H19_2 C31_2 1_555 1_555
C32_2 C31_2 1_555 1_555
C33_2 C32_2 1_555 1_555
H20_2 C33_2 1_555 1_555
C34_2 C29_2 1_555 1_555
H21_2 C34_2 1_555 1_555
C35_2 C36_2 1_555 1_555
C36_2 H22_2 1_555 1_555
C37_2 C36_2 1_555 1_555
C38_2 C37_2 1_555 1_555
H23_2 C38_2 1_555 1_555
C39_2 C38_2 1_555 1_555
C40_2 C35_2 1_555 1_555
H24_2 C40_2 1_555 1_555
C41_2 C42_2 1_555 1_555
C42_2 C43_2 1_555 1_555
C43_2 H25_2 1_555 1_555
C44_2 C43_2 1_555 1_555
H26_2 C44_2 1_555 1_555
C45_2 C44_2 1_555 1_555
C46_2 C45_2 1_555 1_555
H27_2 C46_2 1_555 1_555
C47_2 C42_2 1_555 1_555
H28_2 C47_2 1_555 1_555
C49_2 C50_2 1_555 1_555
C50_2 H29_2 1_555 1_555
C51_2 C50_2 1_555 1_555
H30_2 C51_2 1_555 1_555
C52_2 C51_2 1_555 1_555
C53_2 C52_2 1_555 1_555
H31_2 C53_2 1_555 1_555
O12_2 C28_2 1_555 1_555
O23 C28_2 1_555 1_555
O14_2 C32_2 1_555 1_555
O15_2 C37_2 1_555 1_555
O16_2 C39_2 1_555 1_555
O17_2 C41_2 1_555 1_555
O20_2 Al1_3 1_555 1_555
H33_2 O21_2 1_555 1_555
Al4_6 O9_2 1_555 1_555
Al5_10 O6_2 1_555 1_555
Al6_6 O17_2 1_555 1_555
O24_3 Al1_3 1_555 1_555
O26_2 Al7 1_555 1_555
O29_2 Al7 1_555 1_555
C6_2 C7_2 1_555 1_555
C8_2 O3_2 1_555 1_555
C12_2 C13_2 1_555 1_555
C18_2 O4_2 1_555 1_555
C19_2 C20_2 1_555 1_555
C25_2 O5_2 1_555 1_555
C33_2 C34_2 1_555 1_555
C35_2 O14_2 1_555 1_555
C39_2 C40_2 1_555 1_555
C45_2 O15_2 1_555 1_555
C46_2 C47_2 1_555 1_555
C52_2 O16_2 1_555 1_555
O21_2 Al4_6 1_555 1_555
Al9_2 O7_2 1_555 1_555
O30_4 Al4_3 1_555 1_555
O31_4 Al4_3 1_555 1_555
O24_4 Al4_4 1_555 1_555
O25_4 Al4_5 1_555 1_555
O31_5 Al5 1_555 1_555
O11_2 Al9 1_555 1_555
O22_2 Al9 1_555 1_555
O29_3 Al9 1_555 1_555
O30_5 Al5_2 1_555 1_555
Al10 O12_3 1_555 1_555
C28_3 C29_3 1_555 1_555
C29_3 C30_3 1_555 1_555
C30_3 H18_3 1_555 1_555
C31_3 C30_3 1_555 1_555
H19_3 C31_3 1_555 1_555
C32_3 C31_3 1_555 1_555
C33_3 C32_3 1_555 1_555
H20_3 C33_3 1_555 1_555
C34_3 C29_3 1_555 1_555
H21_3 C34_3 1_555 1_555
C35_3 C36_3 1_555 1_555
C36_3 H22_3 1_555 1_555
C37_3 C36_3 1_555 1_555
C38_3 C37_3 1_555 1_555
H23_3 C38_3 1_555 1_555
C39_3 C38_3 1_555 1_555
C40_3 C35_3 1_555 1_555
H24_3 C40_3 1_555 1_555
C41_3 C42_3 1_555 1_555
C42_3 C43_3 1_555 1_555
C43_3 H25_3 1_555 1_555
C44_3 C43_3 1_555 1_555
H26_3 C44_3 1_555 1_555
C45_3 C44_3 1_555 1_555
C46_3 C45_3 1_555 1_555
H27_3 C46_3 1_555 1_555
C47_3 C42_3 1_555 1_555
H28_3 C47_3 1_555 1_555
C48_3 C49_3 1_555 1_555
C49_3 C50_3 1_555 1_555
C50_3 H29_3 1_555 1_555
C51_3 C50_3 1_555 1_555
H30_3 C51_3 1_555 1_555
C52_3 C51_3 1_555 1_555
C53_3 C52_3 1_555 1_555
H31_3 C53_3 1_555 1_555
C54_3 C49_3 1_555 1_555
H32_3 C54_3 1_555 1_555
O12_3 C28_3 1_555 1_555
O13_2 C28_3 1_555 1_555
O14_3 C32_3 1_555 1_555
O15_3 C37_3 1_555 1_555
O16_3 C39_3 1_555 1_555
O24_2 C41_3 1_555 1_555
O27 C41_3 1_555 1_555
O19_3 C48_3 1_555 1_555
O20_3 Al5_3 1_555 1_555
O21_3 Al10 1_555 1_555
H33_3 O21_3 1_555 1_555
Al10_2 O13_2 1_555 1_555
Al11_3 O19_3 1_555 1_555
O23_2 Al10 1_555 1_555
O28_3 Al10 1_555 1_555
O32_3 Al10 1_555 1_555
C33_3 C34_3 1_555 1_555
C35_3 O14_3 1_555 1_555
C39_3 C40_3 1_555 1_555
C45_3 O15_3 1_555 1_555
C46_3 C47_3 1_555 1_555
C48_3 O20_3 1_555 1_555
C52_3 O16_3 1_555 1_555
C53_3 C54_3 1_555 1_555
O21_3 Al6 1_555 1_555
Al10_2 O32_3 1_555 1_555
Al5_4 O10_3 1_555 1_555
C1_3 C2_3 1_555 1_555
C2_3 C3_3 1_555 1_555
C3_3 H1_3 1_555 1_555
C4_3 C3_3 1_555 1_555
H2_3 C4_3 1_555 1_555
C5_3 C4_3 1_555 1_555
C6_3 C5_3 1_555 1_555
H3_3 C6_3 1_555 1_555
C7_3 C2_3 1_555 1_555
H4_3 C7_3 1_555 1_555
C8_3 C9_3 1_555 1_555
C9_3 H5_3 1_555 1_555
C10_3 C9_3 1_555 1_555
C11_3 C10_3 1_555 1_555
H6_3 C11_3 1_555 1_555
C12_3 C11_3 1_555 1_555
C13_3 C8_3 1_555 1_555
H7_3 C13_3 1_555 1_555
C14_3 C15_3 1_555 1_555
C15_3 C16_3 1_555 1_555
C16_3 H8_3 1_555 1_555
C17_3 C16_3 1_555 1_555
H9_3 C17_3 1_555 1_555
C18_3 C17_3 1_555 1_555
C19_3 C18_3 1_555 1_555
H10_3 C19_3 1_555 1_555
C20_3 C15_3 1_555 1_555
H11_3 C20_3 1_555 1_555
C21_3 C22_3 1_555 1_555
C22_3 C23_3 1_555 1_555
C23_3 H12_3 1_555 1_555
C24_3 C23_3 1_555 1_555
H13_3 C24_3 1_555 1_555
C25_3 C24_3 1_555 1_555
C26_3 C25_3 1_555 1_555
H14_3 C26_3 1_555 1_555
C27_3 C22_3 1_555 1_555
H15_3 C27_3 1_555 1_555
O1_3 C1_3 1_555 1_555
O2_2 C1_3 1_555 1_555
O3_3 C5_3 1_555 1_555
O4_3 C10_3 1_555 1_555
O5_3 C12_3 1_555 1_555
O24 C14_3 1_555 1_555
O26 C14_3 1_555 1_555
O8_3 C21_3 1_555 1_555
O9_3 C21_3 1_555 1_555
H16_3 O10_3 1_555 1_555
Al6_2 O9_3 1_555 1_555
Al9_2 O2_2 1_555 1_555
Al12_3 O8_3 1_555 1_555
O25_5 Al5_4 1_555 1_555
C6_3 C7_3 1_555 1_555
C8_3 O3_3 1_555 1_555
C12_3 C13_3 1_555 1_555
C18_3 O4_3 1_555 1_555
C19_3 C20_3 1_555 1_555
C25_3 O5_3 1_555 1_555
C26_3 C27_3 1_555 1_555
O11_3 Al9_2 1_555 1_555
O25_6 Al6 1_555 1_555
O30_6 Al6 1_555 1_555
O31_6 Al6_2 1_555 1_555
Al12_3 O31_6 1_555 1_555
H32_4 C54_4 1_555 1_555
O19_4 C48_4 1_555 1_555
Al11_4 O19_4 1_555 1_555
Al10_2 O12_4 1_555 1_555
C28_4 C29_4 1_555 1_555
C29_4 C30_4 1_555 1_555
C30_4 H18_4 1_555 1_555
C31_4 C30_4 1_555 1_555
H19_4 C31_4 1_555 1_555
C32_4 C31_4 1_555 1_555
C33_4 C32_4 1_555 1_555
H20_4 C33_4 1_555 1_555
C34_4 C29_4 1_555 1_555
H21_4 C34_4 1_555 1_555
C35_4 C36_4 1_555 1_555
C36_4 H22_4 1_555 1_555
C37_4 C36_4 1_555 1_555
C38_4 C37_4 1_555 1_555
H23_4 C38_4 1_555 1_555
C39_4 C38_4 1_555 1_555
C40_4 C35_4 1_555 1_555
H24_4 C40_4 1_555 1_555
C41_4 C42_4 1_555 1_555
C42_4 C43_4 1_555 1_555
C43_4 H25_4 1_555 1_555
C44_4 C43_4 1_555 1_555
H26_4 C44_4 1_555 1_555
C45_4 C44_4 1_555 1_555
C46_4 C45_4 1_555 1_555
H27_4 C46_4 1_555 1_555
C47_4 C42_4 1_555 1_555
H28_4 C47_4 1_555 1_555
C49_4 C50_4 1_555 1_555
C50_4 H29_4 1_555 1_555
C51_4 C50_4 1_555 1_555
H30_4 C51_4 1_555 1_555
C52_4 C51_4 1_555 1_555
C53_4 C52_4 1_555 1_555
H31_4 C53_4 1_555 1_555
O12_4 C28_4 1_555 1_555
O23_2 C28_4 1_555 1_555
O14_4 C32_4 1_555 1_555
O15_4 C37_4 1_555 1_555
O16_4 C39_4 1_555 1_555
O24_4 C41_4 1_555 1_555
O27_2 C41_4 1_555 1_555
O20_4 Al5_6 1_555 1_555
O21_4 Al10_2 1_555 1_555
H33_4 O21_4 1_555 1_555
O28_4 Al10_2 1_555 1_555
C33_4 C34_4 1_555 1_555
C35_4 O14_4 1_555 1_555
C39_4 C40_4 1_555 1_555
C45_4 O15_4 1_555 1_555
C46_4 C47_4 1_555 1_555
C52_4 O16_4 1_555 1_555
O21_4 Al6_4 1_555 1_555
H15_4 C27_4 1_555 1_555
O8_4 C21_4 1_555 1_555
Al12_4 O8_4 1_555 1_555
O25_7 Al5_7 1_555 1_555
Al5_8 O10_4 1_555 1_555
C1_4 C2_4 1_555 1_555
C2_4 C3_4 1_555 1_555
C3_4 H1_4 1_555 1_555
C4_4 C3_4 1_555 1_555
H2_4 C4_4 1_555 1_555
C5_4 C4_4 1_555 1_555
C6_4 C5_4 1_555 1_555
H3_4 C6_4 1_555 1_555
C7_4 C2_4 1_555 1_555
H4_4 C7_4 1_555 1_555
C8_4 C9_4 1_555 1_555
C9_4 H5_4 1_555 1_555
C10_4 C9_4 1_555 1_555
C11_4 C10_4 1_555 1_555
H6_4 C11_4 1_555 1_555
C12_4 C11_4 1_555 1_555
C13_4 C8_4 1_555 1_555
H7_4 C13_4 1_555 1_555
C14_4 C15_4 1_555 1_555
C15_4 C16_4 1_555 1_555
C16_4 H8_4 1_555 1_555
C17_4 C16_4 1_555 1_555
H9_4 C17_4 1_555 1_555
C18_4 C17_4 1_555 1_555
C19_4 C18_4 1_555 1_555
H10_4 C19_4 1_555 1_555
C20_4 C15_4 1_555 1_555
H11_4 C20_4 1_555 1_555
C22_4 C23_4 1_555 1_555
C23_4 H12_4 1_555 1_555
C24_4 C23_4 1_555 1_555
H13_4 C24_4 1_555 1_555
C25_4 C24_4 1_555 1_555
C26_4 C25_4 1_555 1_555
H14_4 C26_4 1_555 1_555
O1_4 C1_4 1_555 1_555
O22_2 C1_4 1_555 1_555
O3_4 C5_4 1_555 1_555
O4_4 C10_4 1_555 1_555
O5_4 C12_4 1_555 1_555
O24_3 C14_4 1_555 1_555
O26_2 C14_4 1_555 1_555
H16_4 O10_4 1_555 1_555
Al6_6 O9_4 1_555 1_555
C6_4 C7_4 1_555 1_555
C8_4 O3_4 1_555 1_555
C12_4 C13_4 1_555 1_555
C18_4 O4_4 1_555 1_555
C19_4 C20_4 1_555 1_555
C25_4 O5_4 1_555 1_555
O31_7 Al5_9 1_555 1_555
O30_7 Al5_11 1_555 1_555
O29_4 Al9_2 1_555 1_555
O25_8 Al6_3 1_555 1_555
O30_8 Al6_3 1_555 1_555
O31_8 Al6_5 1_555 1_555
Al12_4 O31_8 1_555 1_555
O23_3 Al12 1_555 1_555
O27_3 Al12 1_555 1_555
O32_4 Al12 1_555 1_555
Al11_3 O7_3 1_555 1_555
Al11 O1_5 1_555 1_555
C1_5 C2_5 1_555 1_555
C2_5 C3_5 1_555 1_555
C3_5 H1_5 1_555 1_555
C4_5 C3_5 1_555 1_555
H2_5 C4_5 1_555 1_555
C5_5 C4_5 1_555 1_555
C6_5 C5_5 1_555 1_555
H3_5 C6_5 1_555 1_555
C7_5 C2_5 1_555 1_555
H4_5 C7_5 1_555 1_555
C8_5 C9_5 1_555 1_555
C9_5 H5_5 1_555 1_555
C10_5 C9_5 1_555 1_555
C11_5 C10_5 1_555 1_555
H6_5 C11_5 1_555 1_555
C12_5 C11_5 1_555 1_555
C13_5 C8_5 1_555 1_555
H7_5 C13_5 1_555 1_555
C14_5 C15_5 1_555 1_555
C15_5 C16_5 1_555 1_555
C16_5 H8_5 1_555 1_555
C17_5 C16_5 1_555 1_555
H9_5 C17_5 1_555 1_555
C18_5 C17_5 1_555 1_555
C19_5 C18_5 1_555 1_555
H10_5 C19_5 1_555 1_555
C20_5 C15_5 1_555 1_555
H11_5 C20_5 1_555 1_555
C21_5 C22_5 1_555 1_555
C22_5 C23_5 1_555 1_555
C23_5 H12_5 1_555 1_555
C24_5 C23_5 1_555 1_555
H13_5 C24_5 1_555 1_555
C25_5 C24_5 1_555 1_555
C26_5 C25_5 1_555 1_555
H14_5 C26_5 1_555 1_555
C27_5 C22_5 1_555 1_555
H15_5 C27_5 1_555 1_555
O1_5 C1_5 1_555 1_555
O2_3 C1_5 1_555 1_555
O3_5 C5_5 1_555 1_555
O4_5 C10_5 1_555 1_555
O5_5 C12_5 1_555 1_555
O25_5 C14_5 1_555 1_555
O28 C21_5 1_555 1_555
O30_2 C21_5 1_555 1_555
H16_5 O31 1_555 1_555
O11_4 Al11 1_555 1_555
H17_7 O11_4 1_555 1_555
C28_5 C29_5 1_555 1_555
C29_5 C30_5 1_555 1_555
C30_5 H18_5 1_555 1_555
C31_5 C30_5 1_555 1_555
H19_5 C31_5 1_555 1_555
C32_5 C31_5 1_555 1_555
C33_5 C32_5 1_555 1_555
H20_5 C33_5 1_555 1_555
C34_5 C29_5 1_555 1_555
H21_5 C34_5 1_555 1_555
C35_5 C36_5 1_555 1_555
C36_5 H22_5 1_555 1_555
C37_5 C36_5 1_555 1_555
C38_5 C37_5 1_555 1_555
H23_5 C38_5 1_555 1_555
C39_5 C38_5 1_555 1_555
C40_5 C35_5 1_555 1_555
H24_5 C40_5 1_555 1_555
C41_5 C42_5 1_555 1_555
C42_5 C43_5 1_555 1_555
C43_5 H25_5 1_555 1_555
C44_5 C43_5 1_555 1_555
H26_5 C44_5 1_555 1_555
C45_5 C44_5 1_555 1_555
C46_5 C45_5 1_555 1_555
H27_5 C46_5 1_555 1_555
C47_5 C42_5 1_555 1_555
H28_5 C47_5 1_555 1_555
C48_5 C49_5 1_555 1_555
C49_5 C50_5 1_555 1_555
C50_5 H29_5 1_555 1_555
C51_5 C50_5 1_555 1_555
H30_5 C51_5 1_555 1_555
C52_5 C51_5 1_555 1_555
C53_5 C52_5 1_555 1_555
H31_5 C53_5 1_555 1_555
C54_5 C49_5 1_555 1_555
H32_5 C54_5 1_555 1_555
O12_5 C28_5 1_555 1_555
O13_3 C28_5 1_555 1_555
O14_5 C32_5 1_555 1_555
O15_5 C37_5 1_555 1_555
O16_5 C39_5 1_555 1_555
O25_6 C41_5 1_555 1_555
O29 C48_5 1_555 1_555
H33_5 O31_2 1_555 1_555
Al11_2 O2_3 1_555 1_555
Al12_2 O13_3 1_555 1_555
O22_3 Al11 1_555 1_555
O26_3 Al11 1_555 1_555
C6_5 C7_5 1_555 1_555
C8_5 O3_5 1_555 1_555
C12_5 C13_5 1_555 1_555
C18_5 O4_5 1_555 1_555
C19_5 C20_5 1_555 1_555
C25_5 O5_5 1_555 1_555
C26_5 C27_5 1_555 1_555
O11_4 Al11_2 1_555 1_555
C33_5 C34_5 1_555 1_555
C35_5 O14_5 1_555 1_555
C39_5 C40_5 1_555 1_555
C45_5 O15_5 1_555 1_555
C46_5 C47_5 1_555 1_555
C48_5 O30 1_555 1_555
C52_5 O16_5 1_555 1_555
C53_5 C54_5 1_555 1_555
Al12_2 O32_5 1_555 1_555
Al12_3 O18_3 1_555 1_555
H17_8 O32_4 1_555 1_555
H17_9 O32_5 1_555 1_555
Al11_4 O7_4 1_555 1_555
Al11_2 O1_6 1_555 1_555
C1_6 C2_6 1_555 1_555
C2_6 C3_6 1_555 1_555
C3_6 H1_6 1_555 1_555
C4_6 C3_6 1_555 1_555
H2_6 C4_6 1_555 1_555
C5_6 C4_6 1_555 1_555
C6_6 C5_6 1_555 1_555
H3_6 C6_6 1_555 1_555
C7_6 C2_6 1_555 1_555
H4_6 C7_6 1_555 1_555
C8_6 C9_6 1_555 1_555
C9_6 H5_6 1_555 1_555
C10_6 C9_6 1_555 1_555
C11_6 C10_6 1_555 1_555
H6_6 C11_6 1_555 1_555
C12_6 C11_6 1_555 1_555
C13_6 C8_6 1_555 1_555
H7_6 C13_6 1_555 1_555
C14_6 C15_6 1_555 1_555
C15_6 C16_6 1_555 1_555
C16_6 H8_6 1_555 1_555
C17_6 C16_6 1_555 1_555
H9_6 C17_6 1_555 1_555
C18_6 C17_6 1_555 1_555
C19_6 C18_6 1_555 1_555
H10_6 C19_6 1_555 1_555
C20_6 C15_6 1_555 1_555
H11_6 C20_6 1_555 1_555
C22_6 C23_6 1_555 1_555
C23_6 H12_6 1_555 1_555
C24_6 C23_6 1_555 1_555
H13_6 C24_6 1_555 1_555
C25_6 C24_6 1_555 1_555
C26_6 C25_6 1_555 1_555
H14_6 C26_6 1_555 1_555
O1_6 C1_6 1_555 1_555
O22_3 C1_6 1_555 1_555
O3_6 C5_6 1_555 1_555
O4_6 C10_6 1_555 1_555
O5_6 C12_6 1_555 1_555
O25_7 C14_6 1_555 1_555
H16_6 O31_3 1_555 1_555
C28_6 C29_6 1_555 1_555
C29_6 C30_6 1_555 1_555
C30_6 H18_6 1_555 1_555
C31_6 C30_6 1_555 1_555
H19_6 C31_6 1_555 1_555
C32_6 C31_6 1_555 1_555
C33_6 C32_6 1_555 1_555
H20_6 C33_6 1_555 1_555
C34_6 C29_6 1_555 1_555
H21_6 C34_6 1_555 1_555
C35_6 C36_6 1_555 1_555
C36_6 H22_6 1_555 1_555
C37_6 C36_6 1_555 1_555
C38_6 C37_6 1_555 1_555
H23_6 C38_6 1_555 1_555
C39_6 C38_6 1_555 1_555
C40_6 C35_6 1_555 1_555
H24_6 C40_6 1_555 1_555
C41_6 C42_6 1_555 1_555
C42_6 C43_6 1_555 1_555
C43_6 H25_6 1_555 1_555
C44_6 C43_6 1_555 1_555
H26_6 C44_6 1_555 1_555
C45_6 C44_6 1_555 1_555
C46_6 C45_6 1_555 1_555
H27_6 C46_6 1_555 1_555
C47_6 C42_6 1_555 1_555
H28_6 C47_6 1_555 1_555
C49_6 C50_6 1_555 1_555
C50_6 H29_6 1_555 1_555
C51_6 C50_6 1_555 1_555
H30_6 C51_6 1_555 1_555
C52_6 C51_6 1_555 1_555
C53_6 C52_6 1_555 1_555
H31_6 C53_6 1_555 1_555
O12_6 C28_6 1_555 1_555
O23_3 C28_6 1_555 1_555
O14_6 C32_6 1_555 1_555
O15_6 C37_6 1_555 1_555
O16_6 C39_6 1_555 1_555
O25_8 C41_6 1_555 1_555
H33_6 O31_4 1_555 1_555
O26_4 Al11_2 1_555 1_555
C6_6 C7_6 1_555 1_555
C8_6 O3_6 1_555 1_555
C12_6 C13_6 1_555 1_555
C18_6 O4_6 1_555 1_555
C19_6 C20_6 1_555 1_555
C25_6 O5_6 1_555 1_555
C33_6 C34_6 1_555 1_555
C35_6 O14_6 1_555 1_555
C39_6 C40_6 1_555 1_555
C45_6 O15_6 1_555 1_555
C46_6 C47_6 1_555 1_555
C52_6 O16_6 1_555 1_555
H15_6 C27_6 1_555 1_555
O28_2 C21_6 1_555 1_555
H32_6 C54_6 1_555 1_555
O29_2 C48_6 1_555 1_555
Al12_4 O18_4 1_555 1_555
O27_4 Al12_2 1_555 1_555
C1_7 C2_7 1_555 1_555
C2_7 C3_7 1_555 1_555
C3_7 H1_7 1_555 1_555
C4_7 C3_7 1_555 1_555
H2_7 C4_7 1_555 1_555
C5_7 C4_7 1_555 1_555
C6_7 C5_7 1_555 1_555
H3_7 C6_7 1_555 1_555
C7_7 C2_7 1_555 1_555
H4_7 C7_7 1_555 1_555
C8_7 C9_7 1_555 1_555
C9_7 H5_7 1_555 1_555
C10_7 C9_7 1_555 1_555
C11_7 C10_7 1_555 1_555
H6_7 C11_7 1_555 1_555
C12_7 C11_7 1_555 1_555
C13_7 C8_7 1_555 1_555
H7_7 C13_7 1_555 1_555
C14_7 C15_7 1_555 1_555
C15_7 C16_7 1_555 1_555
C16_7 H8_7 1_555 1_555
C17_7 C16_7 1_555 1_555
H9_7 C17_7 1_555 1_555
C18_7 C17_7 1_555 1_555
C19_7 C18_7 1_555 1_555
H10_7 C19_7 1_555 1_555
C20_7 C15_7 1_555 1_555
H11_7 C20_7 1_555 1_555
C21_7 C22_7 1_555 1_555
C22_7 C23_7 1_555 1_555
C23_7 H12_7 1_555 1_555
C24_7 C23_7 1_555 1_555
H13_7 C24_7 1_555 1_555
C25_7 C24_7 1_555 1_555
C26_7 C25_7 1_555 1_555
H14_7 C26_7 1_555 1_555
C27_7 C22_7 1_555 1_555
H15_7 C27_7 1_555 1_555
O1_7 C1_7 1_555 1_555
O2_4 C1_7 1_555 1_555
O3_7 C5_7 1_555 1_555
O4_7 C10_7 1_555 1_555
O5_7 C12_7 1_555 1_555
O25 C14_7 1_555 1_555
O26_3 C14_7 1_555 1_555
O28_3 C21_7 1_555 1_555
O30_6 C21_7 1_555 1_555
H16_7 O31_5 1_555 1_555
Al11_4 O2_4 1_555 1_555
C6_7 C7_7 1_555 1_555
C8_7 O3_7 1_555 1_555
C12_7 C13_7 1_555 1_555
C18_7 O4_7 1_555 1_555
C19_7 C20_7 1_555 1_555
C25_7 O5_7 1_555 1_555
C26_7 C27_7 1_555 1_555
O11_5 Al11_4 1_555 1_555
Al12_3 O12_7 1_555 1_555
C28_7 C29_7 1_555 1_555
C29_7 C30_7 1_555 1_555
C30_7 H18_7 1_555 1_555
C31_7 C30_7 1_555 1_555
H19_7 C31_7 1_555 1_555
C32_7 C31_7 1_555 1_555
C33_7 C32_7 1_555 1_555
H20_7 C33_7 1_555 1_555
C34_7 C29_7 1_555 1_555
H21_7 C34_7 1_555 1_555
C35_7 C36_7 1_555 1_555
C36_7 H22_7 1_555 1_555
C37_7 C36_7 1_555 1_555
C38_7 C37_7 1_555 1_555
H23_7 C38_7 1_555 1_555
C39_7 C38_7 1_555 1_555
C40_7 C35_7 1_555 1_555
H24_7 C40_7 1_555 1_555
C41_7 C42_7 1_555 1_555
C42_7 C43_7 1_555 1_555
C43_7 H25_7 1_555 1_555
C44_7 C43_7 1_555 1_555
H26_7 C44_7 1_555 1_555
C45_7 C44_7 1_555 1_555
C46_7 C45_7 1_555 1_555
H27_7 C46_7 1_555 1_555
C47_7 C42_7 1_555 1_555
H28_7 C47_7 1_555 1_555
C48_7 C49_7 1_555 1_555
C49_7 C50_7 1_555 1_555
C50_7 H29_7 1_555 1_555
C51_7 C50_7 1_555 1_555
H30_7 C51_7 1_555 1_555
C52_7 C51_7 1_555 1_555
C53_7 C52_7 1_555 1_555
H31_7 C53_7 1_555 1_555
C54_7 C49_7 1_555 1_555
H32_7 C54_7 1_555 1_555
O12_7 C28_7 1_555 1_555
O13_4 C28_7 1_555 1_555
O14_7 C32_7 1_555 1_555
O15_7 C37_7 1_555 1_555
O16_7 C39_7 1_555 1_555
O25_2 C41_7 1_555 1_555
O27_3 C41_7 1_555 1_555
O29_3 C48_7 1_555 1_555
H33_7 O31_6 1_555 1_555
Al12_4 O13_4 1_555 1_555
O23_4 Al12_3 1_555 1_555
O32_6 Al12_3 1_555 1_555
C33_7 C34_7 1_555 1_555
C35_7 O14_7 1_555 1_555
C39_7 C40_7 1_555 1_555
C45_7 O15_7 1_555 1_555
C46_7 C47_7 1_555 1_555
C48_7 O30_5 1_555 1_555
C52_7 O16_7 1_555 1_555
C53_7 C54_7 1_555 1_555
Al12_4 O32_6 1_555 1_555
O11_6 Al11_3 1_555 1_555
O22_4 Al11_3 1_555 1_555
C1_8 C2_8 1_555 1_555
C2_8 C3_8 1_555 1_555
C3_8 H1_8 1_555 1_555
C4_8 C3_8 1_555 1_555
H2_8 C4_8 1_555 1_555
C5_8 C4_8 1_555 1_555
C6_8 C5_8 1_555 1_555
H3_8 C6_8 1_555 1_555
C7_8 C2_8 1_555 1_555
H4_8 C7_8 1_555 1_555
C8_8 C9_8 1_555 1_555
C9_8 H5_8 1_555 1_555
C10_8 C9_8 1_555 1_555
C11_8 C10_8 1_555 1_555
H6_8 C11_8 1_555 1_555
C12_8 C11_8 1_555 1_555
C13_8 C8_8 1_555 1_555
H7_8 C13_8 1_555 1_555
C14_8 C15_8 1_555 1_555
C15_8 C16_8 1_555 1_555
C16_8 H8_8 1_555 1_555
C17_8 C16_8 1_555 1_555
H9_8 C17_8 1_555 1_555
C18_8 C17_8 1_555 1_555
C19_8 C18_8 1_555 1_555
H10_8 C19_8 1_555 1_555
C20_8 C15_8 1_555 1_555
H11_8 C20_8 1_555 1_555
C22_8 C23_8 1_555 1_555
C23_8 H12_8 1_555 1_555
C24_8 C23_8 1_555 1_555
H13_8 C24_8 1_555 1_555
C25_8 C24_8 1_555 1_555
C26_8 C25_8 1_555 1_555
H14_8 C26_8 1_555 1_555
O1_8 C1_8 1_555 1_555
O22_4 C1_8 1_555 1_555
O3_8 C5_8 1_555 1_555
O4_8 C10_8 1_555 1_555
O5_8 C12_8 1_555 1_555
O25_3 C14_8 1_555 1_555
O26_4 C14_8 1_555 1_555
H16_8 O31_7 1_555 1_555
C6_8 C7_8 1_555 1_555
C8_8 O3_8 1_555 1_555
C12_8 C13_8 1_555 1_555
C18_8 O4_8 1_555 1_555
C19_8 C20_8 1_555 1_555
C25_8 O5_8 1_555 1_555
H15_8 C27_8 1_555 1_555
O28_4 C21_8 1_555 1_555
Al12_4 O12_8 1_555 1_555
C28_8 C29_8 1_555 1_555
C29_8 C30_8 1_555 1_555
C30_8 H18_8 1_555 1_555
C31_8 C30_8 1_555 1_555
H19_8 C31_8 1_555 1_555
C32_8 C31_8 1_555 1_555
C33_8 C32_8 1_555 1_555
H20_8 C33_8 1_555 1_555
C34_8 C29_8 1_555 1_555
H21_8 C34_8 1_555 1_555
C35_8 C36_8 1_555 1_555
C36_8 H22_8 1_555 1_555
C37_8 C36_8 1_555 1_555
C38_8 C37_8 1_555 1_555
H23_8 C38_8 1_555 1_555
C39_8 C38_8 1_555 1_555
C40_8 C35_8 1_555 1_555
H24_8 C40_8 1_555 1_555
C41_8 C42_8 1_555 1_555
C42_8 C43_8 1_555 1_555
C43_8 H25_8 1_555 1_555
C44_8 C43_8 1_555 1_555
H26_8 C44_8 1_555 1_555
C45_8 C44_8 1_555 1_555
C46_8 C45_8 1_555 1_555
H27_8 C46_8 1_555 1_555
C47_8 C42_8 1_555 1_555
H28_8 C47_8 1_555 1_555
C49_8 C50_8 1_555 1_555
C50_8 H29_8 1_555 1_555
C51_8 C50_8 1_555 1_555
H30_8 C51_8 1_555 1_555
C52_8 C51_8 1_555 1_555
C53_8 C52_8 1_555 1_555
H31_8 C53_8 1_555 1_555
O12_8 C28_8 1_555 1_555
O23_4 C28_8 1_555 1_555
O14_8 C32_8 1_555 1_555
O15_8 C37_8 1_555 1_555
O16_8 C39_8 1_555 1_555
O25_4 C41_8 1_555 1_555
O27_4 C41_8 1_555 1_555
H33_8 O31_8 1_555 1_555
C33_8 C34_8 1_555 1_555
C35_8 O14_8 1_555 1_555
C39_8 C40_8 1_555 1_555
C45_8 O15_8 1_555 1_555
C46_8 C47_8 1_555 1_555
C52_8 O16_8 1_555 1_555
H32_8 C54_8 1_555 1_555
O29_4 C48_8 1_555 1_555

#END
