
###############################################################################
#
# This file contains modified crystal structure data generated from the
# MOF subset of the Cambridge Structural Database (CSD) v543 
# hosted by the Cambridge Crystallographic Data Centre (CCDC).
#
# This work is licensed under the Creative Commons
# Attribution-NonCommercial-ShareAlike 4.0 International License.
# To view a copy of this license, visit
# http://creativecommons.org/licenses/by-nc-sa/4.0/
# or send a letter to
# Creative Commons, PO Box 1866, Mountain View, CA 94042, USA.
#
# CIF created using the CSD Python API on 29 September 2022
# The structure has been converted into the P1 space group
# The structure has a 3D framework
# The original CSD entry OGUKEJ is in the orthorhombic crystal system
# The framework has been calculated to contain at least 10.0% void space
# The void calculation uses a probe of radius 1.32A, grid spacing 0.4
#
###############################################################################

data_OGUKEJ
_chemical_formula_moiety         '(C432 H254 Al18 O140)n'
_symmetry_cell_setting           triclinic
_symmetry_space_group_name_H-M   'P 1'
_symmetry_Int_Tables_number      1
_space_group_name_Hall           'P 1'
loop_
_symmetry_equiv_pos_site_id
_symmetry_equiv_pos_as_xyz
1 x,y,z
_cell_length_a                   26.6176(9)
_cell_length_b                   30.3718(10)
_cell_length_c                   17.1433(5)
_cell_angle_alpha                90
_cell_angle_beta                 90
_cell_angle_gamma                90
_cell_volume                     13859.1
loop_
_atom_site_label
_atom_site_type_symbol
_atom_site_fract_x
_atom_site_fract_y
_atom_site_fract_z
Al3 Al 0.02668(5) 0.55271(4) 0.33594(7)
Al10 Al 0.000000 0.500000 0.500000
Al11 Al 0.000000 -0.000000 0.500000
O25 O 0.07680(11) 0.50819(10) 0.34429(16)
O27 O 0.05742(11) 0.58504(10) 0.41778(16)
O30 O 0.07238(11) 0.58602(9) 0.27101(16)
O31 O 0.000000 0.52496(13) 0.250000
Al11_2 Al 0.000000 1.000000 0.500000
O13 O 0.57680(11) 0.00819(10) 0.34429(16)
Al7 Al 0.52668(5) 0.05271(4) 0.33594(7)
Al12 Al 0.500000 -0.000000 0.500000
Al1 Al 0.47332(5) 0.44729(4) 0.33594(7)
Al2 Al 0.500000 0.500000 0.500000
C1 C 0.91656(17) 0.02205(14) 0.3939(2)
C2 C 0.87622(18) 0.05521(15) 0.3764(3)
C3 C 0.8648(2) 0.08731(17) 0.4309(3)
H1 H 0.882357 0.088116 0.479099
C4 C 0.8280(2) 0.11810(19) 0.4158(3)
H2 H 0.819879 0.139841 0.453557
C5 C 0.80323(18) 0.11708(15) 0.3455(3)
C6 C 0.8146(2) 0.08563(17) 0.2902(3)
H3 H 0.797490 0.085269 0.241563
C7 C 0.85104(19) 0.05474(16) 0.3065(3)
H4 H 0.858854 0.032827 0.268850
C8 C 0.76974(19) 0.18987(15) 0.3502(3)
C9 C 0.81389(18) 0.21228(15) 0.3373(3)
H5 H 0.842227 0.197973 0.315068
C10 C 0.81568(18) 0.25673(16) 0.3579(3)
C11 C 0.77461(18) 0.27837(16) 0.3899(3)
H6 H 0.776193 0.308648 0.403567
C12 C 0.73194(18) 0.25439(15) 0.4007(3)
C13 C 0.72823(19) 0.21016(15) 0.3811(3)
H7 H 0.697819 0.194392 0.388907
C14 C 0.87555(19) 0.31357(16) 0.3834(3)
C15 C 0.8887(2) 0.35171(17) 0.3447(3)
H8 H 0.883235 0.354218 0.290125
C16 C 0.9098(2) 0.38614(16) 0.3856(3)
H9 H 0.918757 0.412488 0.359187
C17 C 0.91785(17) 0.38237(15) 0.4651(2)
C18 C 0.90378(19) 0.34430(15) 0.5036(3)
H10 H 0.908692 0.341888 0.558366
C19 C 0.8825(2) 0.30960(17) 0.4625(3)
H11 H 0.872805 0.283400 0.488794
C20 C 0.94263(16) 0.41846(14) 0.5094(2)
C21 C 0.56033(17) 0.39465(14) 0.2914(2)
C22 C 0.59647(17) 0.36249(15) 0.3272(2)
C23 C 0.58655(19) 0.34630(16) 0.4010(3)
H12 H 0.557329 0.355856 0.427956
C24 C 0.61803(18) 0.31686(16) 0.4356(3)
H13 H 0.610866 0.306084 0.486465
C25 C 0.66058(19) 0.30270(15) 0.3964(3)
C26 C 0.6710(2) 0.31827(18) 0.3225(3)
H14 H 0.700047 0.308423 0.295486
C27 C 0.63870(19) 0.34840(16) 0.2879(3)
H15 H 0.645716 0.359307 0.237074
O1 O 0.94077(12) 0.02669(10) 0.45627(17)
O3 O 0.76456(13) 0.14635(10) 0.3274(2)
O4 O 0.86013(14) 0.27816(12) 0.33779(19)
O5 O 0.69021(13) 0.27341(11) 0.43755(18)
O6 O 0.96208(13) 0.44934(10) 0.47061(17)
O7 O 0.94258(11) 0.41496(10) 0.58222(16)
O8 O 0.51967(11) 0.40037(10) 0.32820(16)
O9 O 0.57238(11) 0.41398(9) 0.22899(16)
O10 O 0.500000 0.47504(13) 0.250000
H16 H 0.500000 0.506990 0.250000
O11 O 0.51536(11) 0.47573(9) 0.40524(16)
H17 H 0.548758 0.476024 0.383776
C28 C 0.58344(17) 0.97795(14) 0.3939(2)
C29 C 0.62378(18) 0.94479(15) 0.3764(3)
C30 C 0.6352(2) 0.91269(17) 0.4309(3)
H18 H 0.617643 0.911884 0.479099
C31 C 0.6720(2) 0.88190(19) 0.4158(3)
H19 H 0.680121 0.860159 0.453557
C32 C 0.69677(18) 0.88292(15) 0.3455(3)
C33 C 0.6854(2) 0.91437(17) 0.2902(3)
H20 H 0.702510 0.914731 0.241563
C34 C 0.64896(19) 0.94526(16) 0.3065(3)
H21 H 0.641146 0.967173 0.268850
C35 C 0.73026(19) 0.81013(15) 0.3502(3)
C36 C 0.68611(18) 0.78772(15) 0.3373(3)
H22 H 0.657773 0.802027 0.315068
C37 C 0.68432(18) 0.74327(16) 0.3579(3)
C38 C 0.72539(18) 0.72163(16) 0.3899(3)
H23 H 0.723807 0.691352 0.403567
C39 C 0.76806(18) 0.74561(15) 0.4007(3)
C40 C 0.77177(19) 0.78984(15) 0.3811(3)
H24 H 0.802181 0.805608 0.388907
C41 C 0.62445(19) 0.68643(16) 0.3834(3)
C42 C 0.6113(2) 0.64829(17) 0.3447(3)
H25 H 0.616765 0.645782 0.290125
C43 C 0.5902(2) 0.61386(16) 0.3856(3)
H26 H 0.581243 0.587512 0.359187
C44 C 0.58215(17) 0.61763(15) 0.4651(2)
C45 C 0.59622(19) 0.65570(15) 0.5036(3)
H27 H 0.591308 0.658112 0.558366
C46 C 0.6175(2) 0.69040(17) 0.4625(3)
H28 H 0.627195 0.716600 0.488794
C47 C 0.55737(16) 0.58154(14) 0.5094(2)
C48 C 0.93967(17) 0.60535(14) 0.2914(2)
C49 C 0.90353(17) 0.63751(15) 0.3272(2)
C50 C 0.91345(19) 0.65370(16) 0.4010(3)
H29 H 0.942671 0.644144 0.427956
C51 C 0.88197(18) 0.68314(16) 0.4356(3)
H30 H 0.889134 0.693916 0.486465
C52 C 0.83942(19) 0.69730(15) 0.3964(3)
C53 C 0.8290(2) 0.68173(18) 0.3225(3)
H31 H 0.799953 0.691577 0.295486
C54 C 0.86130(19) 0.65160(16) 0.2879(3)
H32 H 0.854284 0.640693 0.237074
O12 O 0.55923(12) 0.97331(10) 0.45627(17)
O14 O 0.73544(13) 0.85365(10) 0.3274(2)
O15 O 0.63987(14) 0.72184(12) 0.33779(19)
O16 O 0.80979(13) 0.72659(11) 0.43755(18)
O17 O 0.53792(13) 0.55066(10) 0.47061(17)
O18 O 0.55742(11) 0.58504(10) 0.58222(16)
O19 O 0.98033(11) 0.59963(10) 0.32820(16)
O20 O 0.92762(11) 0.58602(9) 0.22899(16)
O21 O 0.98464(11) 0.52427(9) 0.40524(16)
H33 H 0.951242 0.523976 0.383776
Al4 Al 0.52668(5) 0.44729(4) 0.16406(7)
Al5 Al 0.97332(5) 0.55271(4) 0.16406(7)
Al8 Al 0.52668(5) 0.55271(4) 0.66406(7)
Al9 Al 0.97332(5) 0.44729(4) 0.66406(7)
Al10_2 Al 1.000000 0.500000 0.500000
Al11_3 Al 1.000000 -0.000000 0.500000
Al12_2 Al 0.500000 1.000000 0.500000
O22 O 0.44077(12) 0.52669(10) 0.45627(17)
O23 O 0.55923(12) 0.47331(10) 0.54373(17)
O24 O 0.42320(11) 0.49181(10) 0.34429(16)
O26 O 0.46208(13) 0.44934(10) 0.52939(17)
O28 O 0.44258(11) 0.41496(10) 0.41778(16)
O29 O 0.42762(11) 0.41398(9) 0.27101(16)
O31_2 O 1.000000 0.52496(13) 0.250000
O32 O 0.48464(11) 0.52427(9) 0.59476(16)
O2 O 0.92320(11) 0.99181(10) 0.34429(16)
Al6 Al 0.97332(5) 0.94729(4) 0.33594(7)
Al11_4 Al 1.000000 1.000000 0.500000
H16_2 H -0.000000 0.493010 0.250000
O22_2 O 0.05923(12) 0.47331(10) 0.45627(17)
O26_2 O 0.03792(13) 0.55066(10) 0.52939(17)
O32_2 O 0.01536(11) 0.47573(9) 0.59476(16)
H16_3 H 1.000000 0.493010 0.250000
O23_2 O 0.94077(12) 0.52669(10) 0.54373(17)
O13_2 O 0.42320(11) 0.00819(10) 0.15571(16)
Al7_2 Al 0.47332(5) 0.05271(4) 0.16406(7)
Al12_3 Al 0.500000 -0.000000 0.000000
Al12_4 Al 0.500000 -0.000000 1.000000
Al2_2 Al 0.500000 0.500000 0.000000
C1_2 C 0.08344(17) 0.02205(14) 0.1061(2)
C2_2 C 0.12378(18) 0.05521(15) 0.1236(3)
C3_2 C 0.1352(2) 0.08731(17) 0.0691(3)
H1_2 H 0.117643 0.088116 0.020901
C4_2 C 0.1720(2) 0.11810(19) 0.0842(3)
H2_2 H 0.180121 0.139841 0.046443
C5_2 C 0.19677(18) 0.11708(15) 0.1545(3)
C6_2 C 0.1854(2) 0.08563(17) 0.2098(3)
H3_2 H 0.202510 0.085269 0.258437
C7_2 C 0.14896(19) 0.05474(16) 0.1935(3)
H4_2 H 0.141146 0.032827 0.231150
C8_2 C 0.23026(19) 0.18987(15) 0.1498(3)
C9_2 C 0.18611(18) 0.21228(15) 0.1627(3)
H5_2 H 0.157773 0.197973 0.184932
C10_2 C 0.18432(18) 0.25673(16) 0.1421(3)
C11_2 C 0.22539(18) 0.27837(16) 0.1101(3)
H6_2 H 0.223807 0.308648 0.096433
C12_2 C 0.26806(18) 0.25439(15) 0.0993(3)
C13_2 C 0.27177(19) 0.21016(15) 0.1189(3)
H7_2 H 0.302181 0.194392 0.111093
C14_2 C 0.12445(19) 0.31357(16) 0.1166(3)
C15_2 C 0.1113(2) 0.35171(17) 0.1553(3)
H8_2 H 0.116765 0.354218 0.209875
C16_2 C 0.0902(2) 0.38614(16) 0.1144(3)
H9_2 H 0.081243 0.412488 0.140813
C17_2 C 0.08215(17) 0.38237(15) 0.0349(2)
C19_2 C 0.1175(2) 0.30960(17) 0.0375(3)
H11_2 H 0.127195 0.283400 0.011206
C21_2 C 0.43967(17) 0.39465(14) 0.2086(2)
C22_2 C 0.40353(17) 0.36249(15) 0.1728(2)
C23_2 C 0.41345(19) 0.34630(16) 0.0990(3)
H12_2 H 0.442671 0.355856 0.072044
C24_2 C 0.38197(18) 0.31686(16) 0.0644(3)
H13_2 H 0.389134 0.306084 0.013535
C25_2 C 0.33942(19) 0.30270(15) 0.1036(3)
C26_2 C 0.3290(2) 0.31827(18) 0.1775(3)
H14_2 H 0.299953 0.308423 0.204514
C27_2 C 0.36130(19) 0.34840(16) 0.2121(3)
H15_2 H 0.354284 0.359307 0.262926
O1_2 O 0.05923(12) 0.02669(10) 0.04373(17)
O3_2 O 0.23544(13) 0.14635(10) 0.1726(2)
O4_2 O 0.13987(14) 0.27816(12) 0.16221(19)
O5_2 O 0.30979(13) 0.27341(11) 0.06245(18)
O6_2 O 0.03792(13) 0.44934(10) 0.02939(17)
O8_2 O 0.48033(11) 0.40037(10) 0.17180(16)
O11_2 O 0.48464(11) 0.47573(9) 0.09476(16)
H17_2 H 0.451242 0.476024 0.116224
C28_2 C 0.41656(17) 0.97795(14) 0.1061(2)
C29_2 C 0.37622(18) 0.94479(15) 0.1236(3)
C30_2 C 0.3648(2) 0.91269(17) 0.0691(3)
H18_2 H 0.382357 0.911884 0.020901
C31_2 C 0.3280(2) 0.88190(19) 0.0842(3)
H19_2 H 0.319879 0.860159 0.046443
C32_2 C 0.30323(18) 0.88292(15) 0.1545(3)
C33_2 C 0.3146(2) 0.91437(17) 0.2098(3)
H20_2 H 0.297490 0.914731 0.258437
C34_2 C 0.35104(19) 0.94526(16) 0.1935(3)
H21_2 H 0.358854 0.967173 0.231150
C35_2 C 0.26974(19) 0.81013(15) 0.1498(3)
C36_2 C 0.31389(18) 0.78772(15) 0.1627(3)
H22_2 H 0.342227 0.802027 0.184932
C37_2 C 0.31568(18) 0.74327(16) 0.1421(3)
C38_2 C 0.27461(18) 0.72163(16) 0.1101(3)
H23_2 H 0.276193 0.691352 0.096433
C39_2 C 0.23194(18) 0.74561(15) 0.0993(3)
C40_2 C 0.22823(19) 0.78984(15) 0.1189(3)
H24_2 H 0.197819 0.805608 0.111093
C41_2 C 0.37555(19) 0.68643(16) 0.1166(3)
C42_2 C 0.3887(2) 0.64829(17) 0.1553(3)
H25_2 H 0.383235 0.645782 0.209875
C43_2 C 0.4098(2) 0.61386(16) 0.1144(3)
H26_2 H 0.418757 0.587512 0.140813
C44_2 C 0.41785(17) 0.61763(15) 0.0349(2)
C46_2 C 0.3825(2) 0.69040(17) 0.0375(3)
H28_2 H 0.372805 0.716600 0.011206
C48_2 C 0.06033(17) 0.60535(14) 0.2086(2)
C49_2 C 0.09647(17) 0.63751(15) 0.1728(2)
C50_2 C 0.08655(19) 0.65370(16) 0.0990(3)
H29_2 H 0.057329 0.644144 0.072044
C51_2 C 0.11803(18) 0.68314(16) 0.0644(3)
H30_2 H 0.110866 0.693916 0.013535
C52_2 C 0.16058(19) 0.69730(15) 0.1036(3)
C53_2 C 0.1710(2) 0.68173(18) 0.1775(3)
H31_2 H 0.200047 0.691577 0.204514
C54_2 C 0.13870(19) 0.65160(16) 0.2121(3)
H32_2 H 0.145716 0.640693 0.262926
O12_2 O 0.44077(12) 0.97331(10) 0.04373(17)
O14_2 O 0.26456(13) 0.85365(10) 0.1726(2)
O15_2 O 0.36013(14) 0.72184(12) 0.16221(19)
O16_2 O 0.19021(13) 0.72659(11) 0.06245(18)
O17_2 O 0.46208(13) 0.55066(10) 0.02939(17)
O19_2 O 0.01967(11) 0.59963(10) 0.17180(16)
O21_2 O 0.01536(11) 0.52427(9) 0.09476(16)
H33_2 H 0.048758 0.523976 0.116224
Al10_3 Al 0.000000 0.500000 0.000000
Al11_5 Al 0.000000 -0.000000 0.000000
Al12_5 Al 0.500000 1.000000 0.000000
O22_3 O 0.55923(12) 0.52669(10) 0.04373(17)
O24_2 O 0.57680(11) 0.49181(10) 0.15571(16)
O28_2 O 0.55742(11) 0.41496(10) 0.08222(16)
Al2_3 Al 0.500000 0.500000 1.000000
C18_2 C 0.09622(19) 0.34430(15) 0.9964(3)
H10_2 H 0.091308 0.341888 0.941634
C20_2 C 0.05737(16) 0.41846(14) 0.9906(2)
O7_2 O 0.05742(11) 0.41496(10) 0.91778(16)
C45_2 C 0.40378(19) 0.65570(15) 0.9964(3)
H27_2 H 0.408692 0.658112 0.941634
C47_2 C 0.44263(16) 0.58154(14) 0.9906(2)
O18_2 O 0.44258(11) 0.58504(10) 0.91778(16)
Al8_2 Al 0.47332(5) 0.55271(4) 0.83594(7)
Al9_2 Al 0.02668(5) 0.44729(4) 0.83594(7)
Al10_4 Al -0.000000 0.500000 1.000000
Al11_6 Al 0.000000 -0.000000 1.000000
Al12_6 Al 0.500000 1.000000 1.000000
O23_3 O 0.44077(12) 0.47331(10) 0.95627(17)
O26_3 O 0.53792(13) 0.44934(10) 0.97061(17)
O32_3 O 0.51536(11) 0.52427(9) 0.90524(16)
O2_2 O 0.07680(11) 0.99181(10) 0.15571(16)
Al6_2 Al 0.02668(5) 0.94729(4) 0.16406(7)
Al11_7 Al 0.000000 1.000000 0.000000
Al11_8 Al 0.000000 1.000000 1.000000
Al10_5 Al 1.000000 0.500000 0.000000
Al11_9 Al 1.000000 -0.000000 0.000000
O25_2 O 0.92320(11) 0.50819(10) 0.15571(16)
O27_2 O 0.94258(11) 0.58504(10) 0.08222(16)
Al10_6 Al 1.000000 0.500000 1.000000
Al11_10 Al 1.000000 -0.000000 1.000000
Al11_11 Al 1.000000 1.000000 0.000000
Al11_12 Al 1.000000 1.000000 1.000000
O23_4 O 0.05923(12) 0.52669(10) 0.95627(17)
O22_4 O 0.94077(12) 0.47331(10) 0.04373(17)
O26_4 O 0.96208(13) 0.55066(10) 0.97061(17)
O32_4 O 0.98464(11) 0.47573(9) 0.90524(16)
H16_4 H 0.000000 0.006990 0.250000
C28_3 C 0.08344(17) 0.47795(14) 0.3939(2)
C29_3 C 0.12378(18) 0.44479(15) 0.3764(3)
C30_3 C 0.1352(2) 0.41269(17) 0.4309(3)
H18_3 H 0.117643 0.411884 0.479099
C31_3 C 0.1720(2) 0.38190(19) 0.4158(3)
H19_3 H 0.180121 0.360159 0.453557
C32_3 C 0.19677(18) 0.38292(15) 0.3455(3)
C33_3 C 0.1854(2) 0.41437(17) 0.2902(3)
H20_3 H 0.202510 0.414731 0.241563
C34_3 C 0.14896(19) 0.44526(16) 0.3065(3)
H21_3 H 0.141146 0.467173 0.268850
C35_3 C 0.23026(19) 0.31013(15) 0.3502(3)
C36_3 C 0.18611(18) 0.28772(15) 0.3373(3)
H22_3 H 0.157773 0.302027 0.315068
C37_3 C 0.18432(18) 0.24327(16) 0.3579(3)
C38_3 C 0.22539(18) 0.22163(16) 0.3899(3)
H23_3 H 0.223807 0.191352 0.403567
C39_3 C 0.26806(18) 0.24561(15) 0.4007(3)
C40_3 C 0.27177(19) 0.28984(15) 0.3811(3)
H24_3 H 0.302181 0.305608 0.388907
C41_3 C 0.12445(19) 0.18643(16) 0.3834(3)
C42_3 C 0.1113(2) 0.14829(17) 0.3447(3)
H25_3 H 0.116765 0.145782 0.290125
C43_3 C 0.0902(2) 0.11386(16) 0.3856(3)
H26_3 H 0.081243 0.087512 0.359187
C44_3 C 0.08215(17) 0.11763(15) 0.4651(2)
C45_3 C 0.09622(19) 0.15570(15) 0.5036(3)
H27_3 H 0.091308 0.158112 0.558366
C46_3 C 0.1175(2) 0.19040(17) 0.4625(3)
H28_3 H 0.127195 0.216600 0.488794
C47_3 C 0.05737(16) 0.08154(14) 0.5094(2)
C48_3 C 0.43967(17) 0.10535(14) 0.2914(2)
C49_3 C 0.40353(17) 0.13751(15) 0.3272(2)
C50_3 C 0.41345(19) 0.15370(16) 0.4010(3)
H29_3 H 0.442671 0.144144 0.427956
C51_3 C 0.38197(18) 0.18314(16) 0.4356(3)
H30_3 H 0.389134 0.193916 0.486465
C52_3 C 0.33942(19) 0.19730(15) 0.3964(3)
C53_3 C 0.3290(2) 0.18173(18) 0.3225(3)
H31_3 H 0.299953 0.191577 0.295486
C54_3 C 0.36130(19) 0.15160(16) 0.2879(3)
H32_3 H 0.354284 0.140693 0.237074
O14_3 O 0.23544(13) 0.35365(10) 0.3274(2)
O15_3 O 0.13987(14) 0.22184(12) 0.33779(19)
O16_3 O 0.30979(13) 0.22659(11) 0.43755(18)
O17_3 O 0.03792(13) 0.05066(10) 0.47061(17)
O18_3 O 0.05742(11) 0.08504(10) 0.58222(16)
O19_3 O 0.48033(11) 0.09963(10) 0.32820(16)
O20_2 O 0.42762(11) 0.08602(9) 0.22899(16)
O21_3 O 0.48464(11) 0.02427(9) 0.40524(16)
H33_3 H 0.451242 0.023976 0.383776
Al8_3 Al 0.02668(5) 0.05271(4) 0.66406(7)
O27_3 O 0.55742(11) 0.08504(10) 0.41778(16)
O30_2 O 0.57238(11) 0.08602(9) 0.27101(16)
O31_3 O 0.500000 0.02496(13) 0.250000
C1_3 C 0.41656(17) 0.52205(14) 0.3939(2)
C2_3 C 0.37622(18) 0.55521(15) 0.3764(3)
C3_3 C 0.3648(2) 0.58731(17) 0.4309(3)
H1_3 H 0.382357 0.588116 0.479099
C4_3 C 0.3280(2) 0.61810(19) 0.4158(3)
H2_3 H 0.319879 0.639841 0.453557
C5_3 C 0.30323(18) 0.61708(15) 0.3455(3)
C6_3 C 0.3146(2) 0.58563(17) 0.2902(3)
H3_3 H 0.297490 0.585269 0.241563
C7_3 C 0.35104(19) 0.55474(16) 0.3065(3)
H4_3 H 0.358854 0.532827 0.268850
C8_3 C 0.26974(19) 0.68987(15) 0.3502(3)
C9_3 C 0.31389(18) 0.71228(15) 0.3373(3)
H5_3 H 0.342227 0.697973 0.315068
C10_3 C 0.31568(18) 0.75673(16) 0.3579(3)
C11_3 C 0.27461(18) 0.77837(16) 0.3899(3)
H6_3 H 0.276193 0.808648 0.403567
C12_3 C 0.23194(18) 0.75439(15) 0.4007(3)
C13_3 C 0.22823(19) 0.71016(15) 0.3811(3)
H7_3 H 0.197819 0.694392 0.388907
C14_3 C 0.37555(19) 0.81357(16) 0.3834(3)
C15_3 C 0.3887(2) 0.85171(17) 0.3447(3)
H8_3 H 0.383235 0.854218 0.290125
C16_3 C 0.4098(2) 0.88614(16) 0.3856(3)
H9_3 H 0.418757 0.912488 0.359187
C17_3 C 0.41785(17) 0.88237(15) 0.4651(2)
C18_3 C 0.40378(19) 0.84430(15) 0.5036(3)
H10_3 H 0.408692 0.841888 0.558366
C19_3 C 0.3825(2) 0.80960(17) 0.4625(3)
H11_3 H 0.372805 0.783400 0.488794
C20_3 C 0.44263(16) 0.91846(14) 0.5094(2)
C21_3 C 0.06033(17) 0.89465(14) 0.2914(2)
C22_3 C 0.09647(17) 0.86249(15) 0.3272(2)
C23_3 C 0.08655(19) 0.84630(16) 0.4010(3)
H12_3 H 0.057329 0.855856 0.427956
C24_3 C 0.11803(18) 0.81686(16) 0.4356(3)
H13_3 H 0.110866 0.806084 0.486465
C25_3 C 0.16058(19) 0.80270(15) 0.3964(3)
C26_3 C 0.1710(2) 0.81827(18) 0.3225(3)
H14_3 H 0.200047 0.808423 0.295486
C27_3 C 0.13870(19) 0.84840(16) 0.2879(3)
H15_3 H 0.145716 0.859307 0.237074
O3_3 O 0.26456(13) 0.64635(10) 0.3274(2)
O4_3 O 0.36013(14) 0.77816(12) 0.33779(19)
O5_3 O 0.19021(13) 0.77341(11) 0.43755(18)
O6_3 O 0.46208(13) 0.94934(10) 0.47061(17)
O7_3 O 0.44258(11) 0.91496(10) 0.58222(16)
O8_3 O 0.01967(11) 0.90037(10) 0.32820(16)
O9_2 O 0.07238(11) 0.91398(9) 0.22899(16)
O10_2 O -0.000000 0.97504(13) 0.250000
O11_3 O 0.01536(11) 0.97573(9) 0.40524(16)
H17_3 H 0.048758 0.976024 0.383776
Al9_3 Al 0.47332(5) 0.94729(4) 0.66406(7)
O23_5 O 0.05923(12) 0.97331(10) 0.54373(17)
H16_5 H 1.000000 0.006990 0.250000
O32_5 O 0.98464(11) 0.02427(9) 0.59476(16)
O10_3 O 1.000000 0.97504(13) 0.250000
O26_5 O 0.96208(13) 0.94934(10) 0.52939(17)
O28_3 O 0.94258(11) 0.91496(10) 0.41778(16)
O29_2 O 0.92762(11) 0.91398(9) 0.27101(16)
O23_6 O 0.44077(12) 0.02669(10) 0.54373(17)
O26_6 O 0.53792(13) 0.05066(10) 0.52939(17)
H16_6 H 0.500000 0.993010 0.250000
O32_6 O 0.51536(11) 0.97573(9) 0.59476(16)
O32_7 O 0.01536(11) 0.02427(9) 0.90524(16)
O28_4 O 0.05742(11) 0.91496(10) 0.08222(16)
O26_7 O 0.03792(13) 0.94934(10) 0.97061(17)
C28_4 C 0.91656(17) 0.47795(14) 0.1061(2)
C29_4 C 0.87622(18) 0.44479(15) 0.1236(3)
C30_4 C 0.8648(2) 0.41269(17) 0.0691(3)
H18_4 H 0.882357 0.411884 0.020901
C31_4 C 0.8280(2) 0.38190(19) 0.0842(3)
H19_4 H 0.819879 0.360159 0.046443
C32_4 C 0.80323(18) 0.38292(15) 0.1545(3)
C33_4 C 0.8146(2) 0.41437(17) 0.2098(3)
H20_4 H 0.797490 0.414731 0.258437
C34_4 C 0.85104(19) 0.44526(16) 0.1935(3)
H21_4 H 0.858854 0.467173 0.231150
C35_4 C 0.76974(19) 0.31013(15) 0.1498(3)
C36_4 C 0.81389(18) 0.28772(15) 0.1627(3)
H22_4 H 0.842227 0.302027 0.184932
C37_4 C 0.81568(18) 0.24327(16) 0.1421(3)
C38_4 C 0.77461(18) 0.22163(16) 0.1101(3)
H23_4 H 0.776193 0.191352 0.096433
C39_4 C 0.73194(18) 0.24561(15) 0.0993(3)
C40_4 C 0.72823(19) 0.28984(15) 0.1189(3)
H24_4 H 0.697819 0.305608 0.111093
C41_4 C 0.87555(19) 0.18643(16) 0.1166(3)
C42_4 C 0.8887(2) 0.14829(17) 0.1553(3)
H25_4 H 0.883235 0.145782 0.209875
C43_4 C 0.9098(2) 0.11386(16) 0.1144(3)
H26_4 H 0.918757 0.087512 0.140813
C44_4 C 0.91785(17) 0.11763(15) 0.0349(2)
C46_4 C 0.8825(2) 0.19040(17) 0.0375(3)
H28_4 H 0.872805 0.216600 0.011206
C48_4 C 0.56033(17) 0.10535(14) 0.2086(2)
C49_4 C 0.59647(17) 0.13751(15) 0.1728(2)
C50_4 C 0.58655(19) 0.15370(16) 0.0990(3)
H29_4 H 0.557329 0.144144 0.072044
C51_4 C 0.61803(18) 0.18314(16) 0.0644(3)
H30_4 H 0.610866 0.193916 0.013535
C52_4 C 0.66058(19) 0.19730(15) 0.1036(3)
C53_4 C 0.6710(2) 0.18173(18) 0.1775(3)
H31_4 H 0.700047 0.191577 0.204514
C54_4 C 0.63870(19) 0.15160(16) 0.2121(3)
H32_4 H 0.645716 0.140693 0.262926
O14_4 O 0.76456(13) 0.35365(10) 0.1726(2)
O15_4 O 0.86013(14) 0.22184(12) 0.16221(19)
O16_4 O 0.69021(13) 0.22659(11) 0.06245(18)
O17_4 O 0.96208(13) 0.05066(10) 0.02939(17)
O19_4 O 0.51967(11) 0.09963(10) 0.17180(16)
O21_4 O 0.51536(11) 0.02427(9) 0.09476(16)
H33_4 H 0.548758 0.023976 0.116224
O27_4 O 0.44258(11) 0.08504(10) 0.08222(16)
C45_4 C 0.90378(19) 0.15570(15) 0.9964(3)
H27_4 H 0.908692 0.158112 0.941634
C47_4 C 0.94263(16) 0.08154(14) 0.9906(2)
O18_4 O 0.94258(11) 0.08504(10) 0.91778(16)
Al8_4 Al 0.97332(5) 0.05271(4) 0.83594(7)
C1_4 C 0.58344(17) 0.52205(14) 0.1061(2)
C2_4 C 0.62378(18) 0.55521(15) 0.1236(3)
C3_4 C 0.6352(2) 0.58731(17) 0.0691(3)
H1_4 H 0.617643 0.588116 0.020901
C4_4 C 0.6720(2) 0.61810(19) 0.0842(3)
H2_4 H 0.680121 0.639841 0.046443
C5_4 C 0.69677(18) 0.61708(15) 0.1545(3)
C6_4 C 0.6854(2) 0.58563(17) 0.2098(3)
H3_4 H 0.702510 0.585269 0.258437
C7_4 C 0.64896(19) 0.55474(16) 0.1935(3)
H4_4 H 0.641146 0.532827 0.231150
C8_4 C 0.73026(19) 0.68987(15) 0.1498(3)
C9_4 C 0.68611(18) 0.71228(15) 0.1627(3)
H5_4 H 0.657773 0.697973 0.184932
C10_4 C 0.68432(18) 0.75673(16) 0.1421(3)
C11_4 C 0.72539(18) 0.77837(16) 0.1101(3)
H6_4 H 0.723807 0.808648 0.096433
C12_4 C 0.76806(18) 0.75439(15) 0.0993(3)
C13_4 C 0.77177(19) 0.71016(15) 0.1189(3)
H7_4 H 0.802181 0.694392 0.111093
C14_4 C 0.62445(19) 0.81357(16) 0.1166(3)
C15_4 C 0.6113(2) 0.85171(17) 0.1553(3)
H8_4 H 0.616765 0.854218 0.209875
C16_4 C 0.5902(2) 0.88614(16) 0.1144(3)
H9_4 H 0.581243 0.912488 0.140813
C17_4 C 0.58215(17) 0.88237(15) 0.0349(2)
C19_4 C 0.6175(2) 0.80960(17) 0.0375(3)
H11_4 H 0.627195 0.783400 0.011206
C21_4 C 0.93967(17) 0.89465(14) 0.2086(2)
C22_4 C 0.90353(17) 0.86249(15) 0.1728(2)
C23_4 C 0.91345(19) 0.84630(16) 0.0990(3)
H12_4 H 0.942671 0.855856 0.072044
C24_4 C 0.88197(18) 0.81686(16) 0.0644(3)
H13_4 H 0.889134 0.806084 0.013535
C25_4 C 0.83942(19) 0.80270(15) 0.1036(3)
C26_4 C 0.8290(2) 0.81827(18) 0.1775(3)
H14_4 H 0.799953 0.808423 0.204514
C27_4 C 0.86130(19) 0.84840(16) 0.2121(3)
H15_4 H 0.854284 0.859307 0.262926
O3_4 O 0.73544(13) 0.64635(10) 0.1726(2)
O4_4 O 0.63987(14) 0.77816(12) 0.16221(19)
O5_4 O 0.80979(13) 0.77341(11) 0.06245(18)
O6_4 O 0.53792(13) 0.94934(10) 0.02939(17)
O8_4 O 0.98033(11) 0.90037(10) 0.17180(16)
O11_4 O 0.98464(11) 0.97573(9) 0.09476(16)
H17_4 H 0.951242 0.976024 0.116224
C18_4 C 0.59622(19) 0.84430(15) 0.9964(3)
H10_4 H 0.591308 0.841888 0.941634
C20_4 C 0.55737(16) 0.91846(14) 0.9906(2)
O7_4 O 0.55742(11) 0.91496(10) 0.91778(16)
Al9_4 Al 0.52668(5) 0.94729(4) 0.83594(7)
O23_7 O 0.94077(12) 0.97331(10) 0.95627(17)
O23_8 O 0.55923(12) 0.02669(10) 0.95627(17)
O26_8 O 0.46208(13) 0.05066(10) 0.97061(17)
O32_8 O 0.48464(11) 0.97573(9) 0.90524(16)
O2_3 O 0.07680(11) 0.00819(10) 0.65571(16)
C1_5 C 0.08344(17) 0.97795(14) 0.6061(2)
C2_5 C 0.12378(18) 0.94479(15) 0.6236(3)
C3_5 C 0.1352(2) 0.91269(17) 0.5691(3)
H1_5 H 0.117643 0.911884 0.520901
C4_5 C 0.1720(2) 0.88190(19) 0.5842(3)
H2_5 H 0.180121 0.860159 0.546443
C5_5 C 0.19677(18) 0.88292(15) 0.6545(3)
C6_5 C 0.1854(2) 0.91437(17) 0.7098(3)
H3_5 H 0.202510 0.914731 0.758437
C7_5 C 0.14896(19) 0.94526(16) 0.6935(3)
H4_5 H 0.141146 0.967173 0.731150
C8_5 C 0.23026(19) 0.81013(15) 0.6498(3)
C9_5 C 0.18611(18) 0.78772(15) 0.6627(3)
H5_5 H 0.157773 0.802027 0.684932
C10_5 C 0.18432(18) 0.74327(16) 0.6421(3)
C11_5 C 0.22539(18) 0.72163(16) 0.6101(3)
H6_5 H 0.223807 0.691352 0.596433
C12_5 C 0.26806(18) 0.74561(15) 0.5993(3)
C13_5 C 0.27177(19) 0.78984(15) 0.6189(3)
H7_5 H 0.302181 0.805608 0.611093
C14_5 C 0.12445(19) 0.68643(16) 0.6166(3)
C15_5 C 0.1113(2) 0.64829(17) 0.6553(3)
H8_5 H 0.116765 0.645782 0.709875
C16_5 C 0.0902(2) 0.61386(16) 0.6144(3)
H9_5 H 0.081243 0.587512 0.640813
C17_5 C 0.08215(17) 0.61763(15) 0.5349(2)
C18_5 C 0.09622(19) 0.65570(15) 0.4964(3)
H10_5 H 0.091308 0.658112 0.441634
C19_5 C 0.1175(2) 0.69040(17) 0.5375(3)
H11_5 H 0.127195 0.716600 0.511206
C20_5 C 0.05737(16) 0.58154(14) 0.4906(2)
C21_5 C 0.43967(17) 0.60535(14) 0.7086(2)
C22_5 C 0.40353(17) 0.63751(15) 0.6728(2)
C23_5 C 0.41345(19) 0.65370(16) 0.5990(3)
H12_5 H 0.442671 0.644144 0.572044
C24_5 C 0.38197(18) 0.68314(16) 0.5644(3)
H13_5 H 0.389134 0.693916 0.513535
C25_5 C 0.33942(19) 0.69730(15) 0.6036(3)
C26_5 C 0.3290(2) 0.68173(18) 0.6775(3)
H14_5 H 0.299953 0.691577 0.704514
C27_5 C 0.36130(19) 0.65160(16) 0.7121(3)
H15_5 H 0.354284 0.640693 0.762926
O3_5 O 0.23544(13) 0.85365(10) 0.6726(2)
O4_5 O 0.13987(14) 0.72184(12) 0.66221(19)
O5_5 O 0.30979(13) 0.72659(11) 0.56245(18)
O8_5 O 0.48033(11) 0.59963(10) 0.67180(16)
O9_3 O 0.42762(11) 0.58602(9) 0.77101(16)
O10_4 O 0.500000 0.52496(13) 0.750000
H16_7 H 0.500000 0.493010 0.750000
H17_5 H 0.451242 0.523976 0.616224
C28_5 C 0.41656(17) 0.02205(14) 0.6061(2)
C29_5 C 0.37622(18) 0.05521(15) 0.6236(3)
C30_5 C 0.3648(2) 0.08731(17) 0.5691(3)
H18_5 H 0.382357 0.088116 0.520901
C31_5 C 0.3280(2) 0.11810(19) 0.5842(3)
H19_5 H 0.319879 0.139841 0.546443
C32_5 C 0.30323(18) 0.11708(15) 0.6545(3)
C33_5 C 0.3146(2) 0.08563(17) 0.7098(3)
H20_5 H 0.297490 0.085269 0.758437
C34_5 C 0.35104(19) 0.05474(16) 0.6935(3)
H21_5 H 0.358854 0.032827 0.731150
C35_5 C 0.26974(19) 0.18987(15) 0.6498(3)
C36_5 C 0.31389(18) 0.21228(15) 0.6627(3)
H22_5 H 0.342227 0.197973 0.684932
C37_5 C 0.31568(18) 0.25673(16) 0.6421(3)
C38_5 C 0.27461(18) 0.27837(16) 0.6101(3)
H23_5 H 0.276193 0.308648 0.596433
C39_5 C 0.23194(18) 0.25439(15) 0.5993(3)
C40_5 C 0.22823(19) 0.21016(15) 0.6189(3)
H24_5 H 0.197819 0.194392 0.611093
C41_5 C 0.37555(19) 0.31357(16) 0.6166(3)
C42_5 C 0.3887(2) 0.35171(17) 0.6553(3)
H25_5 H 0.383235 0.354218 0.709875
C43_5 C 0.4098(2) 0.38614(16) 0.6144(3)
H26_5 H 0.418757 0.412488 0.640813
C44_5 C 0.41785(17) 0.38237(15) 0.5349(2)
C45_5 C 0.40378(19) 0.34430(15) 0.4964(3)
H27_5 H 0.408692 0.341888 0.441634
C46_5 C 0.3825(2) 0.30960(17) 0.5375(3)
H28_5 H 0.372805 0.283400 0.511206
C47_5 C 0.44263(16) 0.41846(14) 0.4906(2)
C48_5 C 0.06033(17) 0.39465(14) 0.7086(2)
C49_5 C 0.09647(17) 0.36249(15) 0.6728(2)
C50_5 C 0.08655(19) 0.34630(16) 0.5990(3)
H29_5 H 0.057329 0.355856 0.572044
C51_5 C 0.11803(18) 0.31686(16) 0.5644(3)
H30_5 H 0.110866 0.306084 0.513535
C52_5 C 0.16058(19) 0.30270(15) 0.6036(3)
C53_5 C 0.1710(2) 0.31827(18) 0.6775(3)
H31_5 H 0.200047 0.308423 0.704514
C54_5 C 0.13870(19) 0.34840(16) 0.7121(3)
H32_5 H 0.145716 0.359307 0.762926
O14_5 O 0.26456(13) 0.14635(10) 0.6726(2)
O15_5 O 0.36013(14) 0.27816(12) 0.66221(19)
O16_5 O 0.19021(13) 0.27341(11) 0.56245(18)
O19_5 O 0.01967(11) 0.40037(10) 0.67180(16)
O20_3 O 0.07238(11) 0.41398(9) 0.77101(16)
H33_5 H 0.048758 0.476024 0.616224
O24_3 O 0.57680(11) 0.50819(10) 0.65571(16)
O29_3 O 0.57238(11) 0.58602(9) 0.72899(16)
O31_4 O 0.000000 0.47504(13) 0.750000
O13_3 O 0.42320(11) 0.99181(10) 0.65571(16)
O25_3 O 0.92320(11) 0.49181(10) 0.65571(16)
O30_3 O 0.92762(11) 0.41398(9) 0.72899(16)
O31_5 O 1.000000 0.47504(13) 0.750000
H16_8 H 0.000000 0.506990 0.750000
H16_9 H 1.000000 0.506990 0.750000
O25_4 O 0.07680(11) 0.49181(10) 0.84429(16)
O2_4 O 0.92320(11) 0.00819(10) 0.84429(16)
C18_6 C 0.90378(19) 0.65570(15) 0.0036(3)
H10_6 H 0.908692 0.658112 0.058366
C20_6 C 0.94263(16) 0.58154(14) 0.0094(2)
C45_6 C 0.59622(19) 0.34430(15) 0.0036(3)
H27_6 H 0.591308 0.341888 0.058366
C47_6 C 0.55737(16) 0.41846(14) 0.0094(2)
C1_6 C 0.91656(17) 0.97795(14) 0.8939(2)
C2_6 C 0.87622(18) 0.94479(15) 0.8764(3)
C3_6 C 0.8648(2) 0.91269(17) 0.9309(3)
H1_6 H 0.882357 0.911884 0.979099
C4_6 C 0.8280(2) 0.88190(19) 0.9158(3)
H2_6 H 0.819879 0.860159 0.953557
C5_6 C 0.80323(18) 0.88292(15) 0.8455(3)
C6_6 C 0.8146(2) 0.91437(17) 0.7902(3)
H3_6 H 0.797490 0.914731 0.741563
C7_6 C 0.85104(19) 0.94526(16) 0.8065(3)
H4_6 H 0.858854 0.967173 0.768850
C8_6 C 0.76974(19) 0.81013(15) 0.8502(3)
C9_6 C 0.81389(18) 0.78772(15) 0.8373(3)
H5_6 H 0.842227 0.802027 0.815068
C10_6 C 0.81568(18) 0.74327(16) 0.8579(3)
C11_6 C 0.77461(18) 0.72163(16) 0.8899(3)
H6_6 H 0.776193 0.691352 0.903567
C12_6 C 0.73194(18) 0.74561(15) 0.9007(3)
C13_6 C 0.72823(19) 0.78984(15) 0.8811(3)
H7_6 H 0.697819 0.805608 0.888907
C14_6 C 0.87555(19) 0.68643(16) 0.8834(3)
C15_6 C 0.8887(2) 0.64829(17) 0.8447(3)
H8_6 H 0.883235 0.645782 0.790125
C16_6 C 0.9098(2) 0.61386(16) 0.8856(3)
H9_6 H 0.918757 0.587512 0.859187
C17_6 C 0.91785(17) 0.61763(15) 0.9651(2)
C19_6 C 0.8825(2) 0.69040(17) 0.9625(3)
H11_6 H 0.872805 0.716600 0.988794
C21_6 C 0.56033(17) 0.60535(14) 0.7914(2)
C22_6 C 0.59647(17) 0.63751(15) 0.8272(2)
C23_6 C 0.58655(19) 0.65370(16) 0.9010(3)
H12_6 H 0.557329 0.644144 0.927956
C24_6 C 0.61803(18) 0.68314(16) 0.9356(3)
H13_6 H 0.610866 0.693916 0.986465
C25_6 C 0.66058(19) 0.69730(15) 0.8964(3)
C26_6 C 0.6710(2) 0.68173(18) 0.8225(3)
H14_6 H 0.700047 0.691577 0.795486
C27_6 C 0.63870(19) 0.65160(16) 0.7879(3)
H15_6 H 0.645716 0.640693 0.737074
O3_6 O 0.76456(13) 0.85365(10) 0.8274(2)
O4_6 O 0.86013(14) 0.72184(12) 0.83779(19)
O5_6 O 0.69021(13) 0.72659(11) 0.93755(18)
O8_6 O 0.51967(11) 0.59963(10) 0.82820(16)
H17_6 H 0.548758 0.523976 0.883776
C28_6 C 0.58344(17) 0.02205(14) 0.8939(2)
C29_6 C 0.62378(18) 0.05521(15) 0.8764(3)
C30_6 C 0.6352(2) 0.08731(17) 0.9309(3)
H18_6 H 0.617643 0.088116 0.979099
C31_6 C 0.6720(2) 0.11810(19) 0.9158(3)
H19_6 H 0.680121 0.139841 0.953557
C32_6 C 0.69677(18) 0.11708(15) 0.8455(3)
C33_6 C 0.6854(2) 0.08563(17) 0.7902(3)
H20_6 H 0.702510 0.085269 0.741563
C34_6 C 0.64896(19) 0.05474(16) 0.8065(3)
H21_6 H 0.641146 0.032827 0.768850
C35_6 C 0.73026(19) 0.18987(15) 0.8502(3)
C36_6 C 0.68611(18) 0.21228(15) 0.8373(3)
H22_6 H 0.657773 0.197973 0.815068
C37_6 C 0.68432(18) 0.25673(16) 0.8579(3)
C38_6 C 0.72539(18) 0.27837(16) 0.8899(3)
H23_6 H 0.723807 0.308648 0.903567
C39_6 C 0.76806(18) 0.25439(15) 0.9007(3)
C40_6 C 0.77177(19) 0.21016(15) 0.8811(3)
H24_6 H 0.802181 0.194392 0.888907
C41_6 C 0.62445(19) 0.31357(16) 0.8834(3)
C42_6 C 0.6113(2) 0.35171(17) 0.8447(3)
H25_6 H 0.616765 0.354218 0.790125
C43_6 C 0.5902(2) 0.38614(16) 0.8856(3)
H26_6 H 0.581243 0.412488 0.859187
C44_6 C 0.58215(17) 0.38237(15) 0.9651(2)
C46_6 C 0.6175(2) 0.30960(17) 0.9625(3)
H28_6 H 0.627195 0.283400 0.988794
C48_6 C 0.93967(17) 0.39465(14) 0.7914(2)
C49_6 C 0.90353(17) 0.36249(15) 0.8272(2)
C50_6 C 0.91345(19) 0.34630(16) 0.9010(3)
H29_6 H 0.942671 0.355856 0.927956
C51_6 C 0.88197(18) 0.31686(16) 0.9356(3)
H30_6 H 0.889134 0.306084 0.986465
C52_6 C 0.83942(19) 0.30270(15) 0.8964(3)
C53_6 C 0.8290(2) 0.31827(18) 0.8225(3)
H31_6 H 0.799953 0.308423 0.795486
C54_6 C 0.86130(19) 0.34840(16) 0.7879(3)
H32_6 H 0.854284 0.359307 0.737074
O14_6 O 0.73544(13) 0.14635(10) 0.8274(2)
O15_6 O 0.63987(14) 0.27816(12) 0.83779(19)
O16_6 O 0.80979(13) 0.27341(11) 0.93755(18)
O19_6 O 0.98033(11) 0.40037(10) 0.82820(16)
H33_6 H 0.951242 0.476024 0.883776
O24_4 O 0.42320(11) 0.50819(10) 0.84429(16)
O13_4 O 0.57680(11) 0.99181(10) 0.84429(16)
O10_5 O 0.000000 0.02496(13) 0.750000
O29_4 O 0.07238(11) 0.08602(9) 0.72899(16)
H16_10 H -0.000000 0.993010 0.750000
C1_7 C 0.58344(17) 0.47795(14) 0.6061(2)
C2_7 C 0.62378(18) 0.44479(15) 0.6236(3)
C3_7 C 0.6352(2) 0.41269(17) 0.5691(3)
H1_7 H 0.617643 0.411884 0.520901
C4_7 C 0.6720(2) 0.38190(19) 0.5842(3)
H2_7 H 0.680121 0.360159 0.546443
C5_7 C 0.69677(18) 0.38292(15) 0.6545(3)
C6_7 C 0.6854(2) 0.41437(17) 0.7098(3)
H3_7 H 0.702510 0.414731 0.758437
C7_7 C 0.64896(19) 0.44526(16) 0.6935(3)
H4_7 H 0.641146 0.467173 0.731150
C8_7 C 0.73026(19) 0.31013(15) 0.6498(3)
C9_7 C 0.68611(18) 0.28772(15) 0.6627(3)
H5_7 H 0.657773 0.302027 0.684932
C10_7 C 0.68432(18) 0.24327(16) 0.6421(3)
C11_7 C 0.72539(18) 0.22163(16) 0.6101(3)
H6_7 H 0.723807 0.191352 0.596433
C12_7 C 0.76806(18) 0.24561(15) 0.5993(3)
C13_7 C 0.77177(19) 0.28984(15) 0.6189(3)
H7_7 H 0.802181 0.305608 0.611093
C14_7 C 0.62445(19) 0.18643(16) 0.6166(3)
C15_7 C 0.6113(2) 0.14829(17) 0.6553(3)
H8_7 H 0.616765 0.145782 0.709875
C16_7 C 0.5902(2) 0.11386(16) 0.6144(3)
H9_7 H 0.581243 0.087512 0.640813
C17_7 C 0.58215(17) 0.11763(15) 0.5349(2)
C18_7 C 0.59622(19) 0.15570(15) 0.4964(3)
H10_7 H 0.591308 0.158112 0.441634
C19_7 C 0.6175(2) 0.19040(17) 0.5375(3)
H11_7 H 0.627195 0.216600 0.511206
C20_7 C 0.55737(16) 0.08154(14) 0.4906(2)
C21_7 C 0.93967(17) 0.10535(14) 0.7086(2)
C22_7 C 0.90353(17) 0.13751(15) 0.6728(2)
C23_7 C 0.91345(19) 0.15370(16) 0.5990(3)
H12_7 H 0.942671 0.144144 0.572044
C24_7 C 0.88197(18) 0.18314(16) 0.5644(3)
H13_7 H 0.889134 0.193916 0.513535
C25_7 C 0.83942(19) 0.19730(15) 0.6036(3)
C26_7 C 0.8290(2) 0.18173(18) 0.6775(3)
H14_7 H 0.799953 0.191577 0.704514
C27_7 C 0.86130(19) 0.15160(16) 0.7121(3)
H15_7 H 0.854284 0.140693 0.762926
O3_7 O 0.73544(13) 0.35365(10) 0.6726(2)
O4_7 O 0.63987(14) 0.22184(12) 0.66221(19)
O5_7 O 0.80979(13) 0.22659(11) 0.56245(18)
O8_7 O 0.98033(11) 0.09963(10) 0.67180(16)
O9_4 O 0.92762(11) 0.08602(9) 0.77101(16)
O10_6 O 1.000000 0.02496(13) 0.750000
H17_7 H 0.951242 0.023976 0.616224
H16_11 H 1.000000 0.993010 0.750000
C28_7 C 0.91656(17) 0.52205(14) 0.6061(2)
C29_7 C 0.87622(18) 0.55521(15) 0.6236(3)
C30_7 C 0.8648(2) 0.58731(17) 0.5691(3)
H18_7 H 0.882357 0.588116 0.520901
C31_7 C 0.8280(2) 0.61810(19) 0.5842(3)
H19_7 H 0.819879 0.639841 0.546443
C32_7 C 0.80323(18) 0.61708(15) 0.6545(3)
C33_7 C 0.8146(2) 0.58563(17) 0.7098(3)
H20_7 H 0.797490 0.585269 0.758437
C34_7 C 0.85104(19) 0.55474(16) 0.6935(3)
H21_7 H 0.858854 0.532827 0.731150
C35_7 C 0.76974(19) 0.68987(15) 0.6498(3)
C36_7 C 0.81389(18) 0.71228(15) 0.6627(3)
H22_7 H 0.842227 0.697973 0.684932
C37_7 C 0.81568(18) 0.75673(16) 0.6421(3)
C38_7 C 0.77461(18) 0.77837(16) 0.6101(3)
H23_7 H 0.776193 0.808648 0.596433
C39_7 C 0.73194(18) 0.75439(15) 0.5993(3)
C40_7 C 0.72823(19) 0.71016(15) 0.6189(3)
H24_7 H 0.697819 0.694392 0.611093
C41_7 C 0.87555(19) 0.81357(16) 0.6166(3)
C42_7 C 0.8887(2) 0.85171(17) 0.6553(3)
H25_7 H 0.883235 0.854218 0.709875
C43_7 C 0.9098(2) 0.88614(16) 0.6144(3)
H26_7 H 0.918757 0.912488 0.640813
C44_7 C 0.91785(17) 0.88237(15) 0.5349(2)
C45_7 C 0.90378(19) 0.84430(15) 0.4964(3)
H27_7 H 0.908692 0.841888 0.441634
C46_7 C 0.8825(2) 0.80960(17) 0.5375(3)
H28_7 H 0.872805 0.783400 0.511206
C47_7 C 0.94263(16) 0.91846(14) 0.4906(2)
C48_7 C 0.56033(17) 0.89465(14) 0.7086(2)
C49_7 C 0.59647(17) 0.86249(15) 0.6728(2)
C50_7 C 0.58655(19) 0.84630(16) 0.5990(3)
H29_7 H 0.557329 0.855856 0.572044
C51_7 C 0.61803(18) 0.81686(16) 0.5644(3)
H30_7 H 0.610866 0.806084 0.513535
C52_7 C 0.66058(19) 0.80270(15) 0.6036(3)
C53_7 C 0.6710(2) 0.81827(18) 0.6775(3)
H31_7 H 0.700047 0.808423 0.704514
C54_7 C 0.63870(19) 0.84840(16) 0.7121(3)
H32_7 H 0.645716 0.859307 0.762926
O14_7 O 0.76456(13) 0.64635(10) 0.6726(2)
O15_7 O 0.86013(14) 0.77816(12) 0.66221(19)
O16_7 O 0.69021(13) 0.77341(11) 0.56245(18)
O19_7 O 0.51967(11) 0.90037(10) 0.67180(16)
O20_4 O 0.57238(11) 0.91398(9) 0.77101(16)
H33_7 H 0.548758 0.976024 0.616224
O30_4 O 0.42762(11) 0.91398(9) 0.72899(16)
O31_6 O 0.500000 0.97504(13) 0.750000
H16_12 H 0.500000 0.006990 0.750000
C18_8 C 0.40378(19) 0.15570(15) 0.0036(3)
H10_8 H 0.408692 0.158112 0.058366
C20_8 C 0.44263(16) 0.08154(14) 0.0094(2)
C1_8 C 0.41656(17) 0.47795(14) 0.8939(2)
C2_8 C 0.37622(18) 0.44479(15) 0.8764(3)
C3_8 C 0.3648(2) 0.41269(17) 0.9309(3)
H1_8 H 0.382357 0.411884 0.979099
C4_8 C 0.3280(2) 0.38190(19) 0.9158(3)
H2_8 H 0.319879 0.360159 0.953557
C5_8 C 0.30323(18) 0.38292(15) 0.8455(3)
C6_8 C 0.3146(2) 0.41437(17) 0.7902(3)
H3_8 H 0.297490 0.414731 0.741563
C7_8 C 0.35104(19) 0.44526(16) 0.8065(3)
H4_8 H 0.358854 0.467173 0.768850
C8_8 C 0.26974(19) 0.31013(15) 0.8502(3)
C9_8 C 0.31389(18) 0.28772(15) 0.8373(3)
H5_8 H 0.342227 0.302027 0.815068
C10_8 C 0.31568(18) 0.24327(16) 0.8579(3)
C11_8 C 0.27461(18) 0.22163(16) 0.8899(3)
H6_8 H 0.276193 0.191352 0.903567
C12_8 C 0.23194(18) 0.24561(15) 0.9007(3)
C13_8 C 0.22823(19) 0.28984(15) 0.8811(3)
H7_8 H 0.197819 0.305608 0.888907
C14_8 C 0.37555(19) 0.18643(16) 0.8834(3)
C15_8 C 0.3887(2) 0.14829(17) 0.8447(3)
H8_8 H 0.383235 0.145782 0.790125
C16_8 C 0.4098(2) 0.11386(16) 0.8856(3)
H9_8 H 0.418757 0.087512 0.859187
C17_8 C 0.41785(17) 0.11763(15) 0.9651(2)
C19_8 C 0.3825(2) 0.19040(17) 0.9625(3)
H11_8 H 0.372805 0.216600 0.988794
C21_8 C 0.06033(17) 0.10535(14) 0.7914(2)
C22_8 C 0.09647(17) 0.13751(15) 0.8272(2)
C23_8 C 0.08655(19) 0.15370(16) 0.9010(3)
H12_8 H 0.057329 0.144144 0.927956
C24_8 C 0.11803(18) 0.18314(16) 0.9356(3)
H13_8 H 0.110866 0.193916 0.986465
C25_8 C 0.16058(19) 0.19730(15) 0.8964(3)
C26_8 C 0.1710(2) 0.18173(18) 0.8225(3)
H14_8 H 0.200047 0.191577 0.795486
C27_8 C 0.13870(19) 0.15160(16) 0.7879(3)
H15_8 H 0.145716 0.140693 0.737074
O3_8 O 0.26456(13) 0.35365(10) 0.8274(2)
O4_8 O 0.36013(14) 0.22184(12) 0.83779(19)
O5_8 O 0.19021(13) 0.22659(11) 0.93755(18)
O8_8 O 0.01967(11) 0.09963(10) 0.82820(16)
H17_8 H 0.048758 0.023976 0.883776
C45_8 C 0.09622(19) 0.84430(15) 0.0036(3)
H27_8 H 0.091308 0.841888 0.058366
C47_8 C 0.05737(16) 0.91846(14) 0.0094(2)
C28_8 C 0.08344(17) 0.52205(14) 0.8939(2)
C29_8 C 0.12378(18) 0.55521(15) 0.8764(3)
C30_8 C 0.1352(2) 0.58731(17) 0.9309(3)
H18_8 H 0.117643 0.588116 0.979099
C31_8 C 0.1720(2) 0.61810(19) 0.9158(3)
H19_8 H 0.180121 0.639841 0.953557
C32_8 C 0.19677(18) 0.61708(15) 0.8455(3)
C33_8 C 0.1854(2) 0.58563(17) 0.7902(3)
H20_8 H 0.202510 0.585269 0.741563
C34_8 C 0.14896(19) 0.55474(16) 0.8065(3)
H21_8 H 0.141146 0.532827 0.768850
C35_8 C 0.23026(19) 0.68987(15) 0.8502(3)
C36_8 C 0.18611(18) 0.71228(15) 0.8373(3)
H22_8 H 0.157773 0.697973 0.815068
C37_8 C 0.18432(18) 0.75673(16) 0.8579(3)
C38_8 C 0.22539(18) 0.77837(16) 0.8899(3)
H23_8 H 0.223807 0.808648 0.903567
C39_8 C 0.26806(18) 0.75439(15) 0.9007(3)
C40_8 C 0.27177(19) 0.71016(15) 0.8811(3)
H24_8 H 0.302181 0.694392 0.888907
C41_8 C 0.12445(19) 0.81357(16) 0.8834(3)
C42_8 C 0.1113(2) 0.85171(17) 0.8447(3)
H25_8 H 0.116765 0.854218 0.790125
C43_8 C 0.0902(2) 0.88614(16) 0.8856(3)
H26_8 H 0.081243 0.912488 0.859187
C44_8 C 0.08215(17) 0.88237(15) 0.9651(2)
C46_8 C 0.1175(2) 0.80960(17) 0.9625(3)
H28_8 H 0.127195 0.783400 0.988794
C48_8 C 0.43967(17) 0.89465(14) 0.7914(2)
C49_8 C 0.40353(17) 0.86249(15) 0.8272(2)
C50_8 C 0.41345(19) 0.84630(16) 0.9010(3)
H29_8 H 0.442671 0.855856 0.927956
C51_8 C 0.38197(18) 0.81686(16) 0.9356(3)
H30_8 H 0.389134 0.806084 0.986465
C52_8 C 0.33942(19) 0.80270(15) 0.8964(3)
C53_8 C 0.3290(2) 0.81827(18) 0.8225(3)
H31_8 H 0.299953 0.808423 0.795486
C54_8 C 0.36130(19) 0.84840(16) 0.7879(3)
H32_8 H 0.354284 0.859307 0.737074
O14_8 O 0.23544(13) 0.64635(10) 0.8274(2)
O15_8 O 0.13987(14) 0.77816(12) 0.83779(19)
O16_8 O 0.30979(13) 0.77341(11) 0.93755(18)
O19_8 O 0.48033(11) 0.90037(10) 0.82820(16)
H33_8 H 0.451242 0.976024 0.883776
loop_
_geom_bond_atom_site_label_1
_geom_bond_atom_site_label_2
_geom_bond_site_symmetry_1
_geom_bond_site_symmetry_2
O25 Al3 1_555 1_555
O27 Al3 1_555 1_555
O30 Al3 1_555 1_555
O31 Al3 1_555 1_555
Al7 O13 1_555 1_555
Al1 O8 1_555 1_555
Al2 O11 1_555 1_555
C1 C2 1_555 1_555
C2 C3 1_555 1_555
C3 H1 1_555 1_555
C4 C3 1_555 1_555
H2 C4 1_555 1_555
C5 C4 1_555 1_555
C6 C5 1_555 1_555
H3 C6 1_555 1_555
C7 C2 1_555 1_555
H4 C7 1_555 1_555
C8 C9 1_555 1_555
C9 H5 1_555 1_555
C10 C9 1_555 1_555
C11 C10 1_555 1_555
H6 C11 1_555 1_555
C12 C11 1_555 1_555
C13 C8 1_555 1_555
H7 C13 1_555 1_555
C14 C15 1_555 1_555
C15 H8 1_555 1_555
C16 C15 1_555 1_555
H9 C16 1_555 1_555
C17 C16 1_555 1_555
C18 C17 1_555 1_555
H10 C18 1_555 1_555
C19 C14 1_555 1_555
H11 C19 1_555 1_555
C20 C17 1_555 1_555
C21 C22 1_555 1_555
C22 C23 1_555 1_555
C23 H12 1_555 1_555
C24 C23 1_555 1_555
H13 C24 1_555 1_555
C25 C24 1_555 1_555
C26 C25 1_555 1_555
H14 C26 1_555 1_555
C27 C22 1_555 1_555
H15 C27 1_555 1_555
O1 C1 1_555 1_555
O3 C5 1_555 1_555
O4 C10 1_555 1_555
O5 C12 1_555 1_555
O6 C20 1_555 1_555
O7 C20 1_555 1_555
O8 C21 1_555 1_555
O9 C21 1_555 1_555
O10 Al1 1_555 1_555
H16 O10 1_555 1_555
O11 Al1 1_555 1_555
H17 O11 1_555 1_555
C28 C29 1_555 1_555
C29 C30 1_555 1_555
C30 H18 1_555 1_555
C31 C30 1_555 1_555
H19 C31 1_555 1_555
C32 C31 1_555 1_555
C33 C32 1_555 1_555
H20 C33 1_555 1_555
C34 C29 1_555 1_555
H21 C34 1_555 1_555
C35 C36 1_555 1_555
C36 H22 1_555 1_555
C37 C36 1_555 1_555
C38 C37 1_555 1_555
H23 C38 1_555 1_555
C39 C38 1_555 1_555
C40 C35 1_555 1_555
H24 C40 1_555 1_555
C41 C42 1_555 1_555
C42 H25 1_555 1_555
C43 C42 1_555 1_555
H26 C43 1_555 1_555
C44 C43 1_555 1_555
C45 C44 1_555 1_555
H27 C45 1_555 1_555
C46 C41 1_555 1_555
H28 C46 1_555 1_555
C47 C44 1_555 1_555
C48 C49 1_555 1_555
C49 C50 1_555 1_555
C50 H29 1_555 1_555
C51 C50 1_555 1_555
H30 C51 1_555 1_555
C52 C51 1_555 1_555
C53 C52 1_555 1_555
H31 C53 1_555 1_555
C54 C49 1_555 1_555
H32 C54 1_555 1_555
O12 C28 1_555 1_555
O14 C32 1_555 1_555
O15 C37 1_555 1_555
O16 C39 1_555 1_555
O17 Al2 1_555 1_555
O18 C47 1_555 1_555
O19 C48 1_555 1_555
O20 C48 1_555 1_555
H33 O21 1_555 1_555
Al4 O9 1_555 1_555
Al5 O20 1_555 1_555
Al8 O18 1_555 1_555
Al9 O7 1_555 1_555
Al10_2 O6 1_555 1_555
Al11_3 O1 1_555 1_555
Al12_2 O12 1_555 1_555
O22 Al2 1_555 1_555
O23 Al2 1_555 1_555
O24 Al1 1_555 1_555
O26 Al2 1_555 1_555
O28 Al1 1_555 1_555
O29 Al1 1_555 1_555
O32 Al2 1_555 1_555
C6 C7 1_555 1_555
C8 O3 1_555 1_555
C12 C13 1_555 1_555
C14 O4 1_555 1_555
C18 C19 1_555 1_555
C25 O5 1_555 1_555
C26 C27 1_555 1_555
O10 Al4 1_555 1_555
C33 C34 1_555 1_555
C35 O14 1_555 1_555
C39 C40 1_555 1_555
C41 O15 1_555 1_555
C45 C46 1_555 1_555
C47 O17 1_555 1_555
C52 O16 1_555 1_555
C53 C54 1_555 1_555
O21 Al10_2 1_555 1_555
Al5 O31_2 1_555 1_555
Al8 O32 1_555 1_555
Al6 O2 1_555 1_555
H16_2 O31 1_555 1_555
O22_2 Al10 1_555 1_555
O26_2 Al10 1_555 1_555
O32_2 Al10 1_555 1_555
H16_3 O31_2 1_555 1_555
O23_2 Al10_2 1_555 1_555
Al7_2 O13_2 1_555 1_555
Al4 O8_2 1_555 1_555
Al2_2 O11_2 1_555 1_555
C1_2 C2_2 1_555 1_555
C2_2 C3_2 1_555 1_555
C3_2 H1_2 1_555 1_555
C4_2 C3_2 1_555 1_555
H2_2 C4_2 1_555 1_555
C5_2 C4_2 1_555 1_555
C6_2 C5_2 1_555 1_555
H3_2 C6_2 1_555 1_555
C7_2 C2_2 1_555 1_555
H4_2 C7_2 1_555 1_555
C8_2 C9_2 1_555 1_555
C9_2 H5_2 1_555 1_555
C10_2 C9_2 1_555 1_555
C11_2 C10_2 1_555 1_555
H6_2 C11_2 1_555 1_555
C12_2 C11_2 1_555 1_555
C13_2 C8_2 1_555 1_555
H7_2 C13_2 1_555 1_555
C14_2 C15_2 1_555 1_555
C15_2 H8_2 1_555 1_555
C16_2 C15_2 1_555 1_555
H9_2 C16_2 1_555 1_555
C17_2 C16_2 1_555 1_555
C19_2 C14_2 1_555 1_555
H11_2 C19_2 1_555 1_555
C21_2 C22_2 1_555 1_555
C22_2 C23_2 1_555 1_555
C23_2 H12_2 1_555 1_555
C24_2 C23_2 1_555 1_555
H13_2 C24_2 1_555 1_555
C25_2 C24_2 1_555 1_555
C26_2 C25_2 1_555 1_555
H14_2 C26_2 1_555 1_555
C27_2 C22_2 1_555 1_555
H15_2 C27_2 1_555 1_555
O1_2 C1_2 1_555 1_555
O3_2 C5_2 1_555 1_555
O4_2 C10_2 1_555 1_555
O5_2 C12_2 1_555 1_555
O8_2 C21_2 1_555 1_555
O29 C21_2 1_555 1_555
O11_2 Al4 1_555 1_555
H17_2 O11_2 1_555 1_555
C28_2 C29_2 1_555 1_555
C29_2 C30_2 1_555 1_555
C30_2 H18_2 1_555 1_555
C31_2 C30_2 1_555 1_555
H19_2 C31_2 1_555 1_555
C32_2 C31_2 1_555 1_555
C33_2 C32_2 1_555 1_555
H20_2 C33_2 1_555 1_555
C34_2 C29_2 1_555 1_555
H21_2 C34_2 1_555 1_555
C35_2 C36_2 1_555 1_555
C36_2 H22_2 1_555 1_555
C37_2 C36_2 1_555 1_555
C38_2 C37_2 1_555 1_555
H23_2 C38_2 1_555 1_555
C39_2 C38_2 1_555 1_555
C40_2 C35_2 1_555 1_555
H24_2 C40_2 1_555 1_555
C41_2 C42_2 1_555 1_555
C42_2 H25_2 1_555 1_555
C43_2 C42_2 1_555 1_555
H26_2 C43_2 1_555 1_555
C44_2 C43_2 1_555 1_555
C46_2 C41_2 1_555 1_555
H28_2 C46_2 1_555 1_555
C48_2 C49_2 1_555 1_555
C49_2 C50_2 1_555 1_555
C50_2 H29_2 1_555 1_555
C51_2 C50_2 1_555 1_555
H30_2 C51_2 1_555 1_555
C52_2 C51_2 1_555 1_555
C53_2 C52_2 1_555 1_555
H31_2 C53_2 1_555 1_555
C54_2 C49_2 1_555 1_555
H32_2 C54_2 1_555 1_555
O12_2 C28_2 1_555 1_555
O14_2 C32_2 1_555 1_555
O15_2 C37_2 1_555 1_555
O16_2 C39_2 1_555 1_555
O17_2 Al2_2 1_555 1_555
O19_2 C48_2 1_555 1_555
O30 C48_2 1_555 1_555
H33_2 O21_2 1_555 1_555
Al10_3 O6_2 1_555 1_555
Al11_5 O1_2 1_555 1_555
Al12_5 O12_2 1_555 1_555
O22_3 Al2_2 1_555 1_555
O24_2 Al4 1_555 1_555
O28_2 Al4 1_555 1_555
C6_2 C7_2 1_555 1_555
C8_2 O3_2 1_555 1_555
C12_2 C13_2 1_555 1_555
C14_2 O4_2 1_555 1_555
C25_2 O5_2 1_555 1_555
C26_2 C27_2 1_555 1_555
C33_2 C34_2 1_555 1_555
C35_2 O14_2 1_555 1_555
C39_2 C40_2 1_555 1_555
C41_2 O15_2 1_555 1_555
C52_2 O16_2 1_555 1_555
C53_2 C54_2 1_555 1_555
O21_2 Al10_3 1_555 1_555
H10_2 C18_2 1_555 1_555
O7_2 C20_2 1_555 1_555
H27_2 C45_2 1_555 1_555
O18_2 C47_2 1_555 1_555
Al8_2 O18_2 1_555 1_555
Al9_2 O7_2 1_555 1_555
O23_3 Al2_3 1_555 1_555
O26_3 Al2_3 1_555 1_555
O32_3 Al2_3 1_555 1_555
Al8_2 O32_3 1_555 1_555
Al6_2 O2_2 1_555 1_555
O25_2 Al5 1_555 1_555
O27_2 Al5 1_555 1_555
O23_4 Al10_4 1_555 1_555
O22_4 Al10_5 1_555 1_555
O26_4 Al10_6 1_555 1_555
O32_4 Al10_6 1_555 1_555
Al7 O19_3 1_555 1_555
C28_3 C29_3 1_555 1_555
C29_3 C30_3 1_555 1_555
C30_3 H18_3 1_555 1_555
C31_3 C30_3 1_555 1_555
H19_3 C31_3 1_555 1_555
C32_3 C31_3 1_555 1_555
C33_3 C32_3 1_555 1_555
H20_3 C33_3 1_555 1_555
C34_3 C29_3 1_555 1_555
H21_3 C34_3 1_555 1_555
C35_3 C36_3 1_555 1_555
C36_3 H22_3 1_555 1_555
C37_3 C36_3 1_555 1_555
C38_3 C37_3 1_555 1_555
H23_3 C38_3 1_555 1_555
C39_3 C38_3 1_555 1_555
C40_3 C35_3 1_555 1_555
H24_3 C40_3 1_555 1_555
C41_3 C42_3 1_555 1_555
C42_3 H25_3 1_555 1_555
C43_3 C42_3 1_555 1_555
H26_3 C43_3 1_555 1_555
C44_3 C43_3 1_555 1_555
C45_3 C44_3 1_555 1_555
H27_3 C45_3 1_555 1_555
C46_3 C41_3 1_555 1_555
H28_3 C46_3 1_555 1_555
C47_3 C44_3 1_555 1_555
C48_3 C49_3 1_555 1_555
C49_3 C50_3 1_555 1_555
C50_3 H29_3 1_555 1_555
C51_3 C50_3 1_555 1_555
H30_3 C51_3 1_555 1_555
C52_3 C51_3 1_555 1_555
C53_3 C52_3 1_555 1_555
H31_3 C53_3 1_555 1_555
C54_3 C49_3 1_555 1_555
H32_3 C54_3 1_555 1_555
O22_2 C28_3 1_555 1_555
O25 C28_3 1_555 1_555
O14_3 C32_3 1_555 1_555
O15_3 C37_3 1_555 1_555
O16_3 C39_3 1_555 1_555
O17_3 Al11 1_555 1_555
O18_3 C47_3 1_555 1_555
O19_3 C48_3 1_555 1_555
O20_2 C48_3 1_555 1_555
O21_3 Al7 1_555 1_555
H33_3 O21_3 1_555 1_555
Al7_2 O20_2 1_555 1_555
Al8_3 O18_3 1_555 1_555
O27_3 Al7 1_555 1_555
O30_2 Al7 1_555 1_555
O31_3 Al7 1_555 1_555
C33_3 C34_3 1_555 1_555
C35_3 O14_3 1_555 1_555
C39_3 C40_3 1_555 1_555
C41_3 O15_3 1_555 1_555
C45_3 C46_3 1_555 1_555
C47_3 O17_3 1_555 1_555
C52_3 O16_3 1_555 1_555
C53_3 C54_3 1_555 1_555
O21_3 Al12 1_555 1_555
Al7_2 O31_3 1_555 1_555
Al11_2 O11_3 1_555 1_555
C1_3 C2_3 1_555 1_555
C2_3 C3_3 1_555 1_555
C3_3 H1_3 1_555 1_555
C4_3 C3_3 1_555 1_555
H2_3 C4_3 1_555 1_555
C5_3 C4_3 1_555 1_555
C6_3 C5_3 1_555 1_555
H3_3 C6_3 1_555 1_555
C7_3 C2_3 1_555 1_555
H4_3 C7_3 1_555 1_555
C8_3 C9_3 1_555 1_555
C9_3 H5_3 1_555 1_555
C10_3 C9_3 1_555 1_555
C11_3 C10_3 1_555 1_555
H6_3 C11_3 1_555 1_555
C12_3 C11_3 1_555 1_555
C13_3 C8_3 1_555 1_555
H7_3 C13_3 1_555 1_555
C14_3 C15_3 1_555 1_555
C15_3 H8_3 1_555 1_555
C16_3 C15_3 1_555 1_555
H9_3 C16_3 1_555 1_555
C17_3 C16_3 1_555 1_555
C18_3 C17_3 1_555 1_555
H10_3 C18_3 1_555 1_555
C19_3 C14_3 1_555 1_555
H11_3 C19_3 1_555 1_555
C20_3 C17_3 1_555 1_555
C21_3 C22_3 1_555 1_555
C22_3 C23_3 1_555 1_555
C23_3 H12_3 1_555 1_555
C24_3 C23_3 1_555 1_555
H13_3 C24_3 1_555 1_555
C25_3 C24_3 1_555 1_555
C26_3 C25_3 1_555 1_555
H14_3 C26_3 1_555 1_555
C27_3 C22_3 1_555 1_555
H15_3 C27_3 1_555 1_555
O22 C1_3 1_555 1_555
O24 C1_3 1_555 1_555
O3_3 C5_3 1_555 1_555
O4_3 C10_3 1_555 1_555
O5_3 C12_3 1_555 1_555
O6_3 C20_3 1_555 1_555
O7_3 C20_3 1_555 1_555
O8_3 C21_3 1_555 1_555
O9_2 C21_3 1_555 1_555
H17_3 O11_3 1_555 1_555
Al6_2 O9_2 1_555 1_555
Al9_3 O7_3 1_555 1_555
Al12_2 O6_3 1_555 1_555
O23_5 Al11_2 1_555 1_555
C6_3 C7_3 1_555 1_555
C8_3 O3_3 1_555 1_555
C12_3 C13_3 1_555 1_555
C14_3 O4_3 1_555 1_555
C18_3 C19_3 1_555 1_555
C25_3 O5_3 1_555 1_555
C26_3 C27_3 1_555 1_555
O10_2 Al6_2 1_555 1_555
O32_5 Al11_3 1_555 1_555
O10_3 Al6 1_555 1_555
O26_5 Al11_4 1_555 1_555
O28_3 Al6 1_555 1_555
O29_2 Al6 1_555 1_555
O23_6 Al12 1_555 1_555
O26_6 Al12 1_555 1_555
O32_6 Al12_2 1_555 1_555
Al9_3 O32_6 1_555 1_555
O32_7 Al11_6 1_555 1_555
O28_4 Al6_2 1_555 1_555
O26_7 Al11_8 1_555 1_555
Al7_2 O19_4 1_555 1_555
C28_4 C29_4 1_555 1_555
C29_4 C30_4 1_555 1_555
C30_4 H18_4 1_555 1_555
C31_4 C30_4 1_555 1_555
H19_4 C31_4 1_555 1_555
C32_4 C31_4 1_555 1_555
C33_4 C32_4 1_555 1_555
H20_4 C33_4 1_555 1_555
C34_4 C29_4 1_555 1_555
H21_4 C34_4 1_555 1_555
C35_4 C36_4 1_555 1_555
C36_4 H22_4 1_555 1_555
C37_4 C36_4 1_555 1_555
C38_4 C37_4 1_555 1_555
H23_4 C38_4 1_555 1_555
C39_4 C38_4 1_555 1_555
C40_4 C35_4 1_555 1_555
H24_4 C40_4 1_555 1_555
C41_4 C42_4 1_555 1_555
C42_4 H25_4 1_555 1_555
C43_4 C42_4 1_555 1_555
H26_4 C43_4 1_555 1_555
C44_4 C43_4 1_555 1_555
C46_4 C41_4 1_555 1_555
H28_4 C46_4 1_555 1_555
C48_4 C49_4 1_555 1_555
C49_4 C50_4 1_555 1_555
C50_4 H29_4 1_555 1_555
C51_4 C50_4 1_555 1_555
H30_4 C51_4 1_555 1_555
C52_4 C51_4 1_555 1_555
C53_4 C52_4 1_555 1_555
H31_4 C53_4 1_555 1_555
C54_4 C49_4 1_555 1_555
H32_4 C54_4 1_555 1_555
O22_4 C28_4 1_555 1_555
O25_2 C28_4 1_555 1_555
O14_4 C32_4 1_555 1_555
O15_4 C37_4 1_555 1_555
O16_4 C39_4 1_555 1_555
O17_4 Al11_9 1_555 1_555
O19_4 C48_4 1_555 1_555
O30_2 C48_4 1_555 1_555
O21_4 Al7_2 1_555 1_555
H33_4 O21_4 1_555 1_555
O27_4 Al7_2 1_555 1_555
C33_4 C34_4 1_555 1_555
C35_4 O14_4 1_555 1_555
C39_4 C40_4 1_555 1_555
C41_4 O15_4 1_555 1_555
C52_4 O16_4 1_555 1_555
C53_4 C54_4 1_555 1_555
O21_4 Al12_3 1_555 1_555
H27_4 C45_4 1_555 1_555
O18_4 C47_4 1_555 1_555
Al8_4 O18_4 1_555 1_555
Al11_11 O11_4 1_555 1_555
C1_4 C2_4 1_555 1_555
C2_4 C3_4 1_555 1_555
C3_4 H1_4 1_555 1_555
C4_4 C3_4 1_555 1_555
H2_4 C4_4 1_555 1_555
C5_4 C4_4 1_555 1_555
C6_4 C5_4 1_555 1_555
H3_4 C6_4 1_555 1_555
C7_4 C2_4 1_555 1_555
H4_4 C7_4 1_555 1_555
C8_4 C9_4 1_555 1_555
C9_4 H5_4 1_555 1_555
C10_4 C9_4 1_555 1_555
C11_4 C10_4 1_555 1_555
H6_4 C11_4 1_555 1_555
C12_4 C11_4 1_555 1_555
C13_4 C8_4 1_555 1_555
H7_4 C13_4 1_555 1_555
C14_4 C15_4 1_555 1_555
C15_4 H8_4 1_555 1_555
C16_4 C15_4 1_555 1_555
H9_4 C16_4 1_555 1_555
C17_4 C16_4 1_555 1_555
C19_4 C14_4 1_555 1_555
H11_4 C19_4 1_555 1_555
C21_4 C22_4 1_555 1_555
C22_4 C23_4 1_555 1_555
C23_4 H12_4 1_555 1_555
C24_4 C23_4 1_555 1_555
H13_4 C24_4 1_555 1_555
C25_4 C24_4 1_555 1_555
C26_4 C25_4 1_555 1_555
H14_4 C26_4 1_555 1_555
C27_4 C22_4 1_555 1_555
H15_4 C27_4 1_555 1_555
O22_3 C1_4 1_555 1_555
O24_2 C1_4 1_555 1_555
O3_4 C5_4 1_555 1_555
O4_4 C10_4 1_555 1_555
O5_4 C12_4 1_555 1_555
O8_4 C21_4 1_555 1_555
O29_2 C21_4 1_555 1_555
H17_4 O11_4 1_555 1_555
Al12_5 O6_4 1_555 1_555
C6_4 C7_4 1_555 1_555
C8_4 O3_4 1_555 1_555
C12_4 C13_4 1_555 1_555
C14_4 O4_4 1_555 1_555
C25_4 O5_4 1_555 1_555
C26_4 C27_4 1_555 1_555
H10_4 C18_4 1_555 1_555
O7_4 C20_4 1_555 1_555
Al9_4 O7_4 1_555 1_555
O23_7 Al11_12 1_555 1_555
O23_8 Al12_4 1_555 1_555
O26_8 Al12_4 1_555 1_555
O32_8 Al12_6 1_555 1_555
Al9_4 O32_8 1_555 1_555
Al8_3 O2_3 1_555 1_555
Al8 O8_5 1_555 1_555
C1_5 C2_5 1_555 1_555
C2_5 C3_5 1_555 1_555
C3_5 H1_5 1_555 1_555
C4_5 C3_5 1_555 1_555
H2_5 C4_5 1_555 1_555
C5_5 C4_5 1_555 1_555
C6_5 C5_5 1_555 1_555
H3_5 C6_5 1_555 1_555
C7_5 C2_5 1_555 1_555
H4_5 C7_5 1_555 1_555
C8_5 C9_5 1_555 1_555
C9_5 H5_5 1_555 1_555
C10_5 C9_5 1_555 1_555
C11_5 C10_5 1_555 1_555
H6_5 C11_5 1_555 1_555
C12_5 C11_5 1_555 1_555
C13_5 C8_5 1_555 1_555
H7_5 C13_5 1_555 1_555
C14_5 C15_5 1_555 1_555
C15_5 H8_5 1_555 1_555
C16_5 C15_5 1_555 1_555
H9_5 C16_5 1_555 1_555
C17_5 C16_5 1_555 1_555
C18_5 C17_5 1_555 1_555
H10_5 C18_5 1_555 1_555
C19_5 C14_5 1_555 1_555
H11_5 C19_5 1_555 1_555
C20_5 C17_5 1_555 1_555
C21_5 C22_5 1_555 1_555
C22_5 C23_5 1_555 1_555
C23_5 H12_5 1_555 1_555
C24_5 C23_5 1_555 1_555
H13_5 C24_5 1_555 1_555
C25_5 C24_5 1_555 1_555
C26_5 C25_5 1_555 1_555
H14_5 C26_5 1_555 1_555
C27_5 C22_5 1_555 1_555
H15_5 C27_5 1_555 1_555
O23_5 C1_5 1_555 1_555
O3_5 C5_5 1_555 1_555
O4_5 C10_5 1_555 1_555
O5_5 C12_5 1_555 1_555
O26_2 C20_5 1_555 1_555
O27 C20_5 1_555 1_555
O8_5 C21_5 1_555 1_555
O9_3 C21_5 1_555 1_555
O10_4 Al8 1_555 1_555
H16_7 O10_4 1_555 1_555
H17_5 O32 1_555 1_555
C28_5 C29_5 1_555 1_555
C29_5 C30_5 1_555 1_555
C30_5 H18_5 1_555 1_555
C31_5 C30_5 1_555 1_555
H19_5 C31_5 1_555 1_555
C32_5 C31_5 1_555 1_555
C33_5 C32_5 1_555 1_555
H20_5 C33_5 1_555 1_555
C34_5 C29_5 1_555 1_555
H21_5 C34_5 1_555 1_555
C35_5 C36_5 1_555 1_555
C36_5 H22_5 1_555 1_555
C37_5 C36_5 1_555 1_555
C38_5 C37_5 1_555 1_555
H23_5 C38_5 1_555 1_555
C39_5 C38_5 1_555 1_555
C40_5 C35_5 1_555 1_555
H24_5 C40_5 1_555 1_555
C41_5 C42_5 1_555 1_555
C42_5 H25_5 1_555 1_555
C43_5 C42_5 1_555 1_555
H26_5 C43_5 1_555 1_555
C44_5 C43_5 1_555 1_555
C45_5 C44_5 1_555 1_555
H27_5 C45_5 1_555 1_555
C46_5 C41_5 1_555 1_555
H28_5 C46_5 1_555 1_555
C47_5 C44_5 1_555 1_555
C48_5 C49_5 1_555 1_555
C49_5 C50_5 1_555 1_555
C50_5 H29_5 1_555 1_555
C51_5 C50_5 1_555 1_555
H30_5 C51_5 1_555 1_555
C52_5 C51_5 1_555 1_555
C53_5 C52_5 1_555 1_555
H31_5 C53_5 1_555 1_555
C54_5 C49_5 1_555 1_555
H32_5 C54_5 1_555 1_555
O23_6 C28_5 1_555 1_555
O14_5 C32_5 1_555 1_555
O15_5 C37_5 1_555 1_555
O16_5 C39_5 1_555 1_555
O28 C47_5 1_555 1_555
O19_5 C48_5 1_555 1_555
O20_3 C48_5 1_555 1_555
H33_5 O32_2 1_555 1_555
Al8_2 O9_3 1_555 1_555
Al9_2 O20_3 1_555 1_555
O24_3 Al8 1_555 1_555
O29_3 Al8 1_555 1_555
C6_5 C7_5 1_555 1_555
C8_5 O3_5 1_555 1_555
C12_5 C13_5 1_555 1_555
C14_5 O4_5 1_555 1_555
C18_5 C19_5 1_555 1_555
C25_5 O5_5 1_555 1_555
C26_5 C27_5 1_555 1_555
O10_4 Al8_2 1_555 1_555
C33_5 C34_5 1_555 1_555
C35_5 O14_5 1_555 1_555
C39_5 C40_5 1_555 1_555
C41_5 O15_5 1_555 1_555
C45_5 C46_5 1_555 1_555
C47_5 O26 1_555 1_555
C52_5 O16_5 1_555 1_555
C53_5 C54_5 1_555 1_555
Al9_2 O31_4 1_555 1_555
Al9_3 O13_3 1_555 1_555
O25_3 Al9 1_555 1_555
O30_3 Al9 1_555 1_555
O31_5 Al9 1_555 1_555
H16_8 O31_4 1_555 1_555
H16_9 O31_5 1_555 1_555
O25_4 Al9_2 1_555 1_555
Al8_4 O2_4 1_555 1_555
H10_6 C18_6 1_555 1_555
O27_2 C20_6 1_555 1_555
H27_6 C45_6 1_555 1_555
O28_2 C47_6 1_555 1_555
Al8_2 O8_6 1_555 1_555
C1_6 C2_6 1_555 1_555
C2_6 C3_6 1_555 1_555
C3_6 H1_6 1_555 1_555
C4_6 C3_6 1_555 1_555
H2_6 C4_6 1_555 1_555
C5_6 C4_6 1_555 1_555
C6_6 C5_6 1_555 1_555
H3_6 C6_6 1_555 1_555
C7_6 C2_6 1_555 1_555
H4_6 C7_6 1_555 1_555
C8_6 C9_6 1_555 1_555
C9_6 H5_6 1_555 1_555
C10_6 C9_6 1_555 1_555
C11_6 C10_6 1_555 1_555
H6_6 C11_6 1_555 1_555
C12_6 C11_6 1_555 1_555
C13_6 C8_6 1_555 1_555
H7_6 C13_6 1_555 1_555
C14_6 C15_6 1_555 1_555
C15_6 H8_6 1_555 1_555
C16_6 C15_6 1_555 1_555
H9_6 C16_6 1_555 1_555
C17_6 C16_6 1_555 1_555
C19_6 C14_6 1_555 1_555
H11_6 C19_6 1_555 1_555
C21_6 C22_6 1_555 1_555
C22_6 C23_6 1_555 1_555
C23_6 H12_6 1_555 1_555
C24_6 C23_6 1_555 1_555
H13_6 C24_6 1_555 1_555
C25_6 C24_6 1_555 1_555
C26_6 C25_6 1_555 1_555
H14_6 C26_6 1_555 1_555
C27_6 C22_6 1_555 1_555
H15_6 C27_6 1_555 1_555
O23_7 C1_6 1_555 1_555
O3_6 C5_6 1_555 1_555
O4_6 C10_6 1_555 1_555
O5_6 C12_6 1_555 1_555
O8_6 C21_6 1_555 1_555
O29_3 C21_6 1_555 1_555
H17_6 O32_3 1_555 1_555
C28_6 C29_6 1_555 1_555
C29_6 C30_6 1_555 1_555
C30_6 H18_6 1_555 1_555
C31_6 C30_6 1_555 1_555
H19_6 C31_6 1_555 1_555
C32_6 C31_6 1_555 1_555
C33_6 C32_6 1_555 1_555
H20_6 C33_6 1_555 1_555
C34_6 C29_6 1_555 1_555
H21_6 C34_6 1_555 1_555
C35_6 C36_6 1_555 1_555
C36_6 H22_6 1_555 1_555
C37_6 C36_6 1_555 1_555
C38_6 C37_6 1_555 1_555
H23_6 C38_6 1_555 1_555
C39_6 C38_6 1_555 1_555
C40_6 C35_6 1_555 1_555
H24_6 C40_6 1_555 1_555
C41_6 C42_6 1_555 1_555
C42_6 H25_6 1_555 1_555
C43_6 C42_6 1_555 1_555
H26_6 C43_6 1_555 1_555
C44_6 C43_6 1_555 1_555
C46_6 C41_6 1_555 1_555
H28_6 C46_6 1_555 1_555
C48_6 C49_6 1_555 1_555
C49_6 C50_6 1_555 1_555
C50_6 H29_6 1_555 1_555
C51_6 C50_6 1_555 1_555
H30_6 C51_6 1_555 1_555
C52_6 C51_6 1_555 1_555
C53_6 C52_6 1_555 1_555
H31_6 C53_6 1_555 1_555
C54_6 C49_6 1_555 1_555
H32_6 C54_6 1_555 1_555
O23_8 C28_6 1_555 1_555
O14_6 C32_6 1_555 1_555
O15_6 C37_6 1_555 1_555
O16_6 C39_6 1_555 1_555
O19_6 C48_6 1_555 1_555
O30_3 C48_6 1_555 1_555
H33_6 O32_4 1_555 1_555
O24_4 Al8_2 1_555 1_555
C6_6 C7_6 1_555 1_555
C8_6 O3_6 1_555 1_555
C12_6 C13_6 1_555 1_555
C14_6 O4_6 1_555 1_555
C25_6 O5_6 1_555 1_555
C26_6 C27_6 1_555 1_555
C33_6 C34_6 1_555 1_555
C35_6 O14_6 1_555 1_555
C39_6 C40_6 1_555 1_555
C41_6 O15_6 1_555 1_555
C52_6 O16_6 1_555 1_555
C53_6 C54_6 1_555 1_555
Al9_4 O13_4 1_555 1_555
O10_5 Al8_3 1_555 1_555
O29_4 Al8_3 1_555 1_555
C1_7 C2_7 1_555 1_555
C2_7 C3_7 1_555 1_555
C3_7 H1_7 1_555 1_555
C4_7 C3_7 1_555 1_555
H2_7 C4_7 1_555 1_555
C5_7 C4_7 1_555 1_555
C6_7 C5_7 1_555 1_555
H3_7 C6_7 1_555 1_555
C7_7 C2_7 1_555 1_555
H4_7 C7_7 1_555 1_555
C8_7 C9_7 1_555 1_555
C9_7 H5_7 1_555 1_555
C10_7 C9_7 1_555 1_555
C11_7 C10_7 1_555 1_555
H6_7 C11_7 1_555 1_555
C12_7 C11_7 1_555 1_555
C13_7 C8_7 1_555 1_555
H7_7 C13_7 1_555 1_555
C14_7 C15_7 1_555 1_555
C15_7 H8_7 1_555 1_555
C16_7 C15_7 1_555 1_555
H9_7 C16_7 1_555 1_555
C17_7 C16_7 1_555 1_555
C18_7 C17_7 1_555 1_555
H10_7 C18_7 1_555 1_555
C19_7 C14_7 1_555 1_555
H11_7 C19_7 1_555 1_555
C20_7 C17_7 1_555 1_555
C21_7 C22_7 1_555 1_555
C22_7 C23_7 1_555 1_555
C23_7 H12_7 1_555 1_555
C24_7 C23_7 1_555 1_555
H13_7 C24_7 1_555 1_555
C25_7 C24_7 1_555 1_555
C26_7 C25_7 1_555 1_555
H14_7 C26_7 1_555 1_555
C27_7 C22_7 1_555 1_555
H15_7 C27_7 1_555 1_555
O23 C1_7 1_555 1_555
O24_3 C1_7 1_555 1_555
O3_7 C5_7 1_555 1_555
O4_7 C10_7 1_555 1_555
O5_7 C12_7 1_555 1_555
O26_6 C20_7 1_555 1_555
O27_3 C20_7 1_555 1_555
O8_7 C21_7 1_555 1_555
O9_4 C21_7 1_555 1_555
H17_7 O32_5 1_555 1_555
Al8_4 O9_4 1_555 1_555
C6_7 C7_7 1_555 1_555
C8_7 O3_7 1_555 1_555
C12_7 C13_7 1_555 1_555
C14_7 O4_7 1_555 1_555
C18_7 C19_7 1_555 1_555
C25_7 O5_7 1_555 1_555
C26_7 C27_7 1_555 1_555
O10_6 Al8_4 1_555 1_555
Al9_3 O19_7 1_555 1_555
C28_7 C29_7 1_555 1_555
C29_7 C30_7 1_555 1_555
C30_7 H18_7 1_555 1_555
C31_7 C30_7 1_555 1_555
H19_7 C31_7 1_555 1_555
C32_7 C31_7 1_555 1_555
C33_7 C32_7 1_555 1_555
H20_7 C33_7 1_555 1_555
C34_7 C29_7 1_555 1_555
H21_7 C34_7 1_555 1_555
C35_7 C36_7 1_555 1_555
C36_7 H22_7 1_555 1_555
C37_7 C36_7 1_555 1_555
C38_7 C37_7 1_555 1_555
H23_7 C38_7 1_555 1_555
C39_7 C38_7 1_555 1_555
C40_7 C35_7 1_555 1_555
H24_7 C40_7 1_555 1_555
C41_7 C42_7 1_555 1_555
C42_7 H25_7 1_555 1_555
C43_7 C42_7 1_555 1_555
H26_7 C43_7 1_555 1_555
C44_7 C43_7 1_555 1_555
C45_7 C44_7 1_555 1_555
H27_7 C45_7 1_555 1_555
C46_7 C41_7 1_555 1_555
H28_7 C46_7 1_555 1_555
C47_7 C44_7 1_555 1_555
C48_7 C49_7 1_555 1_555
C49_7 C50_7 1_555 1_555
C50_7 H29_7 1_555 1_555
C51_7 C50_7 1_555 1_555
H30_7 C51_7 1_555 1_555
C52_7 C51_7 1_555 1_555
C53_7 C52_7 1_555 1_555
H31_7 C53_7 1_555 1_555
C54_7 C49_7 1_555 1_555
H32_7 C54_7 1_555 1_555
O23_2 C28_7 1_555 1_555
O25_3 C28_7 1_555 1_555
O14_7 C32_7 1_555 1_555
O15_7 C37_7 1_555 1_555
O16_7 C39_7 1_555 1_555
O28_3 C47_7 1_555 1_555
O19_7 C48_7 1_555 1_555
O20_4 C48_7 1_555 1_555
H33_7 O32_6 1_555 1_555
Al9_4 O20_4 1_555 1_555
O30_4 Al9_3 1_555 1_555
O31_6 Al9_3 1_555 1_555
C33_7 C34_7 1_555 1_555
C35_7 O14_7 1_555 1_555
C39_7 C40_7 1_555 1_555
C41_7 O15_7 1_555 1_555
C45_7 C46_7 1_555 1_555
C47_7 O26_5 1_555 1_555
C52_7 O16_7 1_555 1_555
C53_7 C54_7 1_555 1_555
Al9_4 O31_6 1_555 1_555
H10_8 C18_8 1_555 1_555
O27_4 C20_8 1_555 1_555
C1_8 C2_8 1_555 1_555
C2_8 C3_8 1_555 1_555
C3_8 H1_8 1_555 1_555
C4_8 C3_8 1_555 1_555
H2_8 C4_8 1_555 1_555
C5_8 C4_8 1_555 1_555
C6_8 C5_8 1_555 1_555
H3_8 C6_8 1_555 1_555
C7_8 C2_8 1_555 1_555
H4_8 C7_8 1_555 1_555
C8_8 C9_8 1_555 1_555
C9_8 H5_8 1_555 1_555
C10_8 C9_8 1_555 1_555
C11_8 C10_8 1_555 1_555
H6_8 C11_8 1_555 1_555
C12_8 C11_8 1_555 1_555
C13_8 C8_8 1_555 1_555
H7_8 C13_8 1_555 1_555
C14_8 C15_8 1_555 1_555
C15_8 H8_8 1_555 1_555
C16_8 C15_8 1_555 1_555
H9_8 C16_8 1_555 1_555
C17_8 C16_8 1_555 1_555
C19_8 C14_8 1_555 1_555
H11_8 C19_8 1_555 1_555
C21_8 C22_8 1_555 1_555
C22_8 C23_8 1_555 1_555
C23_8 H12_8 1_555 1_555
C24_8 C23_8 1_555 1_555
H13_8 C24_8 1_555 1_555
C25_8 C24_8 1_555 1_555
C26_8 C25_8 1_555 1_555
H14_8 C26_8 1_555 1_555
C27_8 C22_8 1_555 1_555
H15_8 C27_8 1_555 1_555
O23_3 C1_8 1_555 1_555
O24_4 C1_8 1_555 1_555
O3_8 C5_8 1_555 1_555
O4_8 C10_8 1_555 1_555
O5_8 C12_8 1_555 1_555
O8_8 C21_8 1_555 1_555
O29_4 C21_8 1_555 1_555
H17_8 O32_7 1_555 1_555
C6_8 C7_8 1_555 1_555
C8_8 O3_8 1_555 1_555
C12_8 C13_8 1_555 1_555
C14_8 O4_8 1_555 1_555
C25_8 O5_8 1_555 1_555
C26_8 C27_8 1_555 1_555
H27_8 C45_8 1_555 1_555
O28_4 C47_8 1_555 1_555
Al9_4 O19_8 1_555 1_555
C28_8 C29_8 1_555 1_555
C29_8 C30_8 1_555 1_555
C30_8 H18_8 1_555 1_555
C31_8 C30_8 1_555 1_555
H19_8 C31_8 1_555 1_555
C32_8 C31_8 1_555 1_555
C33_8 C32_8 1_555 1_555
H20_8 C33_8 1_555 1_555
C34_8 C29_8 1_555 1_555
H21_8 C34_8 1_555 1_555
C35_8 C36_8 1_555 1_555
C36_8 H22_8 1_555 1_555
C37_8 C36_8 1_555 1_555
C38_8 C37_8 1_555 1_555
H23_8 C38_8 1_555 1_555
C39_8 C38_8 1_555 1_555
C40_8 C35_8 1_555 1_555
H24_8 C40_8 1_555 1_555
C41_8 C42_8 1_555 1_555
C42_8 H25_8 1_555 1_555
C43_8 C42_8 1_555 1_555
H26_8 C43_8 1_555 1_555
C44_8 C43_8 1_555 1_555
C46_8 C41_8 1_555 1_555
H28_8 C46_8 1_555 1_555
C48_8 C49_8 1_555 1_555
C49_8 C50_8 1_555 1_555
C50_8 H29_8 1_555 1_555
C51_8 C50_8 1_555 1_555
H30_8 C51_8 1_555 1_555
C52_8 C51_8 1_555 1_555
C53_8 C52_8 1_555 1_555
H31_8 C53_8 1_555 1_555
C54_8 C49_8 1_555 1_555
H32_8 C54_8 1_555 1_555
O23_4 C28_8 1_555 1_555
O25_4 C28_8 1_555 1_555
O14_8 C32_8 1_555 1_555
O15_8 C37_8 1_555 1_555
O16_8 C39_8 1_555 1_555
O19_8 C48_8 1_555 1_555
O30_4 C48_8 1_555 1_555
H33_8 O32_8 1_555 1_555
C33_8 C34_8 1_555 1_555
C35_8 O14_8 1_555 1_555
C39_8 C40_8 1_555 1_555
C41_8 O15_8 1_555 1_555
C52_8 O16_8 1_555 1_555
C53_8 C54_8 1_555 1_555

#END
