
###############################################################################
#
# This file contains modified crystal structure data generated from the
# MOF subset of the Cambridge Structural Database (CSD) v543 
# hosted by the Cambridge Crystallographic Data Centre (CCDC).
#
# This work is licensed under the Creative Commons
# Attribution-NonCommercial-ShareAlike 4.0 International License.
# To view a copy of this license, visit
# http://creativecommons.org/licenses/by-nc-sa/4.0/
# or send a letter to
# Creative Commons, PO Box 1866, Mountain View, CA 94042, USA.
#
# CIF created using the CSD Python API on 29 September 2022
# The structure has been converted into the P1 space group
# The structure has a 3D framework
# The original CSD entry OGUMAH is in the cubic crystal system
# The original CSD entry OGUMAH is in a Sohncke space group
# The framework has been calculated to contain at least 10.0% void space
# The void calculation uses a probe of radius 1.32A, grid spacing 0.4
#
###############################################################################

data_OGUMAH
_chemical_formula_moiety         '(C384 H240 Fe20 N96 O192)n'
_symmetry_cell_setting           triclinic
_symmetry_space_group_name_H-M   'P 1'
_symmetry_Int_Tables_number      1
_space_group_name_Hall           'P 1'
loop_
_symmetry_equiv_pos_site_id
_symmetry_equiv_pos_as_xyz
1 x,y,z
_cell_length_a                   34.4309(7)
_cell_length_b                   34.4309(7)
_cell_length_c                   34.4309(7)
_cell_angle_alpha                90
_cell_angle_beta                 90
_cell_angle_gamma                90
_cell_volume                     40817.4
loop_
_atom_site_label
_atom_site_type_symbol
_atom_site_fract_x
_atom_site_fract_y
_atom_site_fract_z
Fe1 Fe 0.65847(2) 0.34153(2) 0.34153(2)
O1 O 0.70000(6) 0.36117(5) 0.30379(7)
O2 O 0.63451(6) 0.39077(7) 0.32384(7)
N1 N 0.65967(7) 0.41215(8) 0.30370(10)
H1 H 0.654430 0.436375 0.297450
C1 C 0.750000 0.47825(10) 0.250000
C2 C 0.72189(10) 0.45739(9) 0.26891(12)
H2 H 0.701650 0.470815 0.282002
C3 C 0.72233(9) 0.41765(8) 0.26937(11)
C4 C 0.69379(9) 0.39521(9) 0.29312(10)
C5 C 0.750000 0.39790(11) 0.250000
H3 H 0.750000 0.370312 0.250000
O3 O 0.69621(7) 0.63883(5) 0.30000(6)
O4 O 0.67616(7) 0.60923(7) 0.36549(6)
N2 N 0.69630(10) 0.58785(8) 0.34033(7)
H4 H 0.702550 0.563625 0.345570
C6 C 0.750000 0.52175(10) 0.250000
C7 C 0.73109(12) 0.54261(9) 0.27811(10)
H5 H 0.717998 0.529185 0.298350
C8 C 0.73063(11) 0.58235(8) 0.27767(9)
C9 C 0.70688(10) 0.60479(9) 0.30621(9)
C10 C 0.750000 0.60210(11) 0.250000
H6 H 0.750000 0.629688 0.250000
O5 O 0.80000(6) 0.36117(5) 0.19621(7)
O6 O 0.86549(6) 0.39077(7) 0.17616(7)
N3 N 0.84033(7) 0.41215(8) 0.19630(10)
H7 H 0.845570 0.436375 0.202550
C11 C 0.77811(10) 0.45739(9) 0.23109(12)
H8 H 0.798350 0.470815 0.217998
C12 C 0.77767(9) 0.41765(8) 0.23063(11)
C13 C 0.80621(9) 0.39521(9) 0.20688(10)
O7 O 0.80379(7) 0.63883(5) 0.20000(6)
O8 O 0.82384(7) 0.60923(7) 0.13451(6)
N4 N 0.80370(10) 0.58785(8) 0.15967(7)
H9 H 0.797450 0.563625 0.154430
C14 C 0.76891(12) 0.54261(9) 0.22189(10)
H10 H 0.782002 0.529185 0.201650
C15 C 0.76937(11) 0.58235(8) 0.22233(9)
C16 C 0.79312(10) 0.60479(9) 0.19379(9)
O9 O 0.69621(7) 0.30000(6) 0.36117(5)
O10 O 0.67616(7) 0.36549(6) 0.39077(7)
N5 N 0.69630(10) 0.34033(7) 0.41215(8)
H11 H 0.702550 0.345570 0.436375
C17 C 0.750000 0.250000 0.47825(10)
C18 C 0.73109(12) 0.27811(10) 0.45739(9)
H12 H 0.717998 0.298350 0.470815
C19 C 0.73063(11) 0.27767(9) 0.41765(8)
C20 C 0.70688(10) 0.30621(9) 0.39521(9)
C21 C 0.750000 0.250000 0.39790(11)
H13 H 0.750000 0.250000 0.370312
O11 O 0.70000(6) 0.30379(7) 0.63883(5)
O12 O 0.63451(6) 0.32384(7) 0.60923(7)
N6 N 0.65967(7) 0.30370(10) 0.58785(8)
H14 H 0.654430 0.297450 0.563625
C22 C 0.750000 0.250000 0.52175(10)
C23 C 0.72189(10) 0.26891(12) 0.54261(9)
H15 H 0.701650 0.282002 0.529185
C24 C 0.72233(9) 0.26937(11) 0.58235(8)
C25 C 0.69379(9) 0.29312(10) 0.60479(9)
C26 C 0.750000 0.250000 0.60210(11)
H16 H 0.750000 0.250000 0.629688
O13 O 0.80379(7) 0.20000(6) 0.36117(5)
O14 O 0.82384(7) 0.13451(6) 0.39077(7)
N7 N 0.80370(10) 0.15967(7) 0.41215(8)
H17 H 0.797450 0.154430 0.436375
C27 C 0.76891(12) 0.22189(10) 0.45739(9)
H18 H 0.782002 0.201650 0.470815
C28 C 0.76937(11) 0.22233(9) 0.41765(8)
C29 C 0.79312(10) 0.19379(9) 0.39521(9)
O15 O 0.80000(6) 0.19621(7) 0.63883(5)
O16 O 0.86549(6) 0.17616(7) 0.60923(7)
N8 N 0.84033(7) 0.19630(10) 0.58785(8)
H19 H 0.845570 0.202550 0.563625
C30 C 0.77811(10) 0.23109(12) 0.54261(9)
H20 H 0.798350 0.217998 0.529185
C31 C 0.77767(9) 0.23063(11) 0.58235(8)
C32 C 0.80621(9) 0.20688(10) 0.60479(9)
O17 O 0.63883(5) 0.30379(7) 0.30000(6)
O18 O 0.60923(7) 0.32384(7) 0.36549(6)
N9 N 0.58785(8) 0.30370(10) 0.34033(7)
H21 H 0.563625 0.297450 0.345570
C33 C 0.52175(10) 0.250000 0.250000
C34 C 0.54261(9) 0.26891(12) 0.27811(10)
H22 H 0.529185 0.282002 0.298350
C35 C 0.58235(8) 0.26937(11) 0.27767(9)
C36 C 0.60479(9) 0.29312(10) 0.30621(9)
C37 C 0.60210(11) 0.250000 0.250000
H23 H 0.629688 0.250000 0.250000
O19 O 0.36117(5) 0.30000(6) 0.30379(7)
O20 O 0.39077(7) 0.36549(6) 0.32384(7)
N10 N 0.41215(8) 0.34033(7) 0.30370(10)
H24 H 0.436375 0.345570 0.297450
C38 C 0.47825(10) 0.250000 0.250000
C39 C 0.45739(9) 0.27811(10) 0.26891(12)
H25 H 0.470815 0.298350 0.282002
C40 C 0.41765(8) 0.27767(9) 0.26937(11)
C41 C 0.39521(9) 0.30621(9) 0.29312(10)
C42 C 0.39790(11) 0.250000 0.250000
H26 H 0.370312 0.250000 0.250000
O21 O 0.63883(5) 0.19621(7) 0.20000(6)
O22 O 0.60923(7) 0.17616(7) 0.13451(6)
N11 N 0.58785(8) 0.19630(10) 0.15967(7)
H27 H 0.563625 0.202550 0.154430
C43 C 0.54261(9) 0.23109(12) 0.22189(10)
H28 H 0.529185 0.217998 0.201650
C44 C 0.58235(8) 0.23063(11) 0.22233(9)
C45 C 0.60479(9) 0.20688(10) 0.19379(9)
O23 O 0.36117(5) 0.20000(6) 0.19621(7)
O24 O 0.39077(7) 0.13451(6) 0.17616(7)
N12 N 0.41215(8) 0.15967(7) 0.19630(10)
H29 H 0.436375 0.154430 0.202550
C46 C 0.45739(9) 0.22189(10) 0.23109(12)
H30 H 0.470815 0.201650 0.217998
C47 C 0.41765(8) 0.22233(9) 0.23063(11)
C48 C 0.39521(9) 0.19379(9) 0.20688(10)
Fe2 Fe 0.34153(2) 0.34153(2) 0.34153(2)
Fe3 Fe 0.65847(2) 0.65847(2) 0.34153(2)
Fe4 Fe 0.65847(2) 0.34153(2) 0.65847(2)
Fe5 Fe 0.65847(2) 0.15847(2) 0.15847(2)
Fe6 Fe 0.34153(2) 0.15847(2) 0.15847(2)
Fe7 Fe 0.84153(2) 0.34153(2) 0.15847(2)
Fe8 Fe 0.84153(2) 0.65847(2) 0.15847(2)
Fe9 Fe 0.84153(2) 0.15847(2) 0.34153(2)
Fe10 Fe 0.84153(2) 0.15847(2) 0.65847(2)
O25 O 0.63883(5) 0.30000(6) 0.69621(7)
O26 O 0.63883(5) 0.70000(6) 0.30379(7)
O27 O 0.30000(6) 0.30379(7) 0.36117(5)
O28 O 0.70000(6) 0.69621(7) 0.36117(5)
O29 O 0.30379(7) 0.36117(5) 0.30000(6)
O30 O 0.69621(7) 0.36117(5) 0.70000(6)
O31 O 0.60923(7) 0.36549(6) 0.67616(7)
O32 O 0.60923(7) 0.63451(6) 0.32384(7)
O33 O 0.36549(6) 0.32384(7) 0.39077(7)
O34 O 0.63451(6) 0.67616(7) 0.39077(7)
O35 O 0.32384(7) 0.39077(7) 0.36549(6)
O36 O 0.67616(7) 0.39077(7) 0.63451(6)
Fe1_2 Fe 0.34153(2) 0.65847(2) 0.34153(2)
O1_2 O 0.30000(6) 0.63883(5) 0.30379(7)
O2_2 O 0.36549(6) 0.60923(7) 0.32384(7)
N1_2 N 0.34033(7) 0.58785(8) 0.30370(10)
H1_2 H 0.345570 0.563625 0.297450
C1_2 C 0.250000 0.52175(10) 0.250000
C2_2 C 0.27811(10) 0.54261(9) 0.26891(12)
H2_2 H 0.298350 0.529185 0.282002
C3_2 C 0.27767(9) 0.58235(8) 0.26937(11)
C4_2 C 0.30621(9) 0.60479(9) 0.29312(10)
C5_2 C 0.250000 0.60210(11) 0.250000
H3_2 H 0.250000 0.629688 0.250000
N2_2 N 0.30370(10) 0.41215(8) 0.34033(7)
H4_2 H 0.297450 0.436375 0.345570
C6_2 C 0.250000 0.47825(10) 0.250000
C7_2 C 0.26891(12) 0.45739(9) 0.27811(10)
H5_2 H 0.282002 0.470815 0.298350
C8_2 C 0.26937(11) 0.41765(8) 0.27767(9)
C9_2 C 0.29312(10) 0.39521(9) 0.30621(9)
C10_2 C 0.250000 0.39790(11) 0.250000
H6_2 H 0.250000 0.370312 0.250000
O5_2 O 0.20000(6) 0.63883(5) 0.19621(7)
O6_2 O 0.13451(6) 0.60923(7) 0.17616(7)
N3_2 N 0.15967(7) 0.58785(8) 0.19630(10)
H7_2 H 0.154430 0.563625 0.202550
C11_2 C 0.22189(10) 0.54261(9) 0.23109(12)
H8_2 H 0.201650 0.529185 0.217998
C12_2 C 0.22233(9) 0.58235(8) 0.23063(11)
C13_2 C 0.19379(9) 0.60479(9) 0.20688(10)
O7_2 O 0.19621(7) 0.36117(5) 0.20000(6)
O8_2 O 0.17616(7) 0.39077(7) 0.13451(6)
N4_2 N 0.19630(10) 0.41215(8) 0.15967(7)
H9_2 H 0.202550 0.436375 0.154430
C14_2 C 0.23109(12) 0.45739(9) 0.22189(10)
H10_2 H 0.217998 0.470815 0.201650
C15_2 C 0.23063(11) 0.41765(8) 0.22233(9)
C16_2 C 0.20688(10) 0.39521(9) 0.19379(9)
O9_2 O 0.30379(7) 0.70000(6) 0.36117(5)
O10_2 O 0.32384(7) 0.63451(6) 0.39077(7)
N5_2 N 0.30370(10) 0.65967(7) 0.41215(8)
H11_2 H 0.297450 0.654430 0.436375
C17_2 C 0.250000 0.750000 0.47825(10)
C18_2 C 0.26891(12) 0.72189(10) 0.45739(9)
H12_2 H 0.282002 0.701650 0.470815
C19_2 C 0.26937(11) 0.72233(9) 0.41765(8)
C20_2 C 0.29312(10) 0.69379(9) 0.39521(9)
C21_2 C 0.250000 0.750000 0.39790(11)
H13_2 H 0.250000 0.750000 0.370312
O11_2 O 0.30000(6) 0.69621(7) 0.63883(5)
O12_2 O 0.36549(6) 0.67616(7) 0.60923(7)
N6_2 N 0.34033(7) 0.69630(10) 0.58785(8)
H14_2 H 0.345570 0.702550 0.563625
C22_2 C 0.250000 0.750000 0.52175(10)
C23_2 C 0.27811(10) 0.73109(12) 0.54261(9)
H15_2 H 0.298350 0.717998 0.529185
C24_2 C 0.27767(9) 0.73063(11) 0.58235(8)
C25_2 C 0.30621(9) 0.70688(10) 0.60479(9)
C26_2 C 0.250000 0.750000 0.60210(11)
H16_2 H 0.250000 0.750000 0.629688
O13_2 O 0.19621(7) 0.80000(6) 0.36117(5)
O14_2 O 0.17616(7) 0.86549(6) 0.39077(7)
N7_2 N 0.19630(10) 0.84033(7) 0.41215(8)
H17_2 H 0.202550 0.845570 0.436375
C27_2 C 0.23109(12) 0.77811(10) 0.45739(9)
H18_2 H 0.217998 0.798350 0.470815
C28_2 C 0.23063(11) 0.77767(9) 0.41765(8)
C29_2 C 0.20688(10) 0.80621(9) 0.39521(9)
O15_2 O 0.20000(6) 0.80379(7) 0.63883(5)
O16_2 O 0.13451(6) 0.82384(7) 0.60923(7)
N8_2 N 0.15967(7) 0.80370(10) 0.58785(8)
H19_2 H 0.154430 0.797450 0.563625
C30_2 C 0.22189(10) 0.76891(12) 0.54261(9)
H20_2 H 0.201650 0.782002 0.529185
C31_2 C 0.22233(9) 0.76937(11) 0.58235(8)
C32_2 C 0.19379(9) 0.79312(10) 0.60479(9)
O17_2 O 0.36117(5) 0.69621(7) 0.30000(6)
O18_2 O 0.39077(7) 0.67616(7) 0.36549(6)
N9_2 N 0.41215(8) 0.69630(10) 0.34033(7)
H21_2 H 0.436375 0.702550 0.345570
C33_2 C 0.47825(10) 0.750000 0.250000
C34_2 C 0.45739(9) 0.73109(12) 0.27811(10)
H22_2 H 0.470815 0.717998 0.298350
C35_2 C 0.41765(8) 0.73063(11) 0.27767(9)
C36_2 C 0.39521(9) 0.70688(10) 0.30621(9)
C37_2 C 0.39790(11) 0.750000 0.250000
H23_2 H 0.370312 0.750000 0.250000
N10_2 N 0.58785(8) 0.65967(7) 0.30370(10)
H24_2 H 0.563625 0.654430 0.297450
C38_2 C 0.52175(10) 0.750000 0.250000
C39_2 C 0.54261(9) 0.72189(10) 0.26891(12)
H25_2 H 0.529185 0.701650 0.282002
C40_2 C 0.58235(8) 0.72233(9) 0.26937(11)
C41_2 C 0.60479(9) 0.69379(9) 0.29312(10)
C42_2 C 0.60210(11) 0.750000 0.250000
H26_2 H 0.629688 0.750000 0.250000
O21_2 O 0.36117(5) 0.80379(7) 0.20000(6)
O22_2 O 0.39077(7) 0.82384(7) 0.13451(6)
N11_2 N 0.41215(8) 0.80370(10) 0.15967(7)
H27_2 H 0.436375 0.797450 0.154430
C43_2 C 0.45739(9) 0.76891(12) 0.22189(10)
H28_2 H 0.470815 0.782002 0.201650
C44_2 C 0.41765(8) 0.76937(11) 0.22233(9)
C45_2 C 0.39521(9) 0.79312(10) 0.19379(9)
O23_2 O 0.63883(5) 0.80000(6) 0.19621(7)
O24_2 O 0.60923(7) 0.86549(6) 0.17616(7)
N12_2 N 0.58785(8) 0.84033(7) 0.19630(10)
H29_2 H 0.563625 0.845570 0.202550
C46_2 C 0.54261(9) 0.77811(10) 0.23109(12)
H30_2 H 0.529185 0.798350 0.217998
C47_2 C 0.58235(8) 0.77767(9) 0.23063(11)
C48_2 C 0.60479(9) 0.80621(9) 0.20688(10)
Fe4_2 Fe 0.34153(2) 0.65847(2) 0.65847(2)
Fe5_2 Fe 0.34153(2) 0.84153(2) 0.15847(2)
Fe6_2 Fe 0.65847(2) 0.84153(2) 0.15847(2)
Fe7_2 Fe 0.15847(2) 0.65847(2) 0.15847(2)
Fe8_2 Fe 0.15847(2) 0.34153(2) 0.15847(2)
Fe9_2 Fe 0.15847(2) 0.84153(2) 0.34153(2)
Fe10_2 Fe 0.15847(2) 0.84153(2) 0.65847(2)
O25_2 O 0.36117(5) 0.70000(6) 0.69621(7)
O30_2 O 0.30379(7) 0.63883(5) 0.70000(6)
O31_2 O 0.39077(7) 0.63451(6) 0.67616(7)
O36_2 O 0.32384(7) 0.60923(7) 0.63451(6)
Fe1_3 Fe 0.34153(2) 0.34153(2) 0.65847(2)
O1_3 O 0.30000(6) 0.36117(5) 0.69621(7)
O2_3 O 0.36549(6) 0.39077(7) 0.67616(7)
N1_3 N 0.34033(7) 0.41215(8) 0.69630(10)
H1_3 H 0.345570 0.436375 0.702550
C1_3 C 0.250000 0.47825(10) 0.750000
C2_3 C 0.27811(10) 0.45739(9) 0.73109(12)
H2_3 H 0.298350 0.470815 0.717998
C3_3 C 0.27767(9) 0.41765(8) 0.73063(11)
C4_3 C 0.30621(9) 0.39521(9) 0.70688(10)
C5_3 C 0.250000 0.39790(11) 0.750000
H3_3 H 0.250000 0.370312 0.750000
N2_3 N 0.30370(10) 0.58785(8) 0.65967(7)
H4_3 H 0.297450 0.563625 0.654430
C6_3 C 0.250000 0.52175(10) 0.750000
C7_3 C 0.26891(12) 0.54261(9) 0.72189(10)
H5_3 H 0.282002 0.529185 0.701650
C8_3 C 0.26937(11) 0.58235(8) 0.72233(9)
C9_3 C 0.29312(10) 0.60479(9) 0.69379(9)
C10_3 C 0.250000 0.60210(11) 0.750000
H6_3 H 0.250000 0.629688 0.750000
O5_3 O 0.20000(6) 0.36117(5) 0.80379(7)
O6_3 O 0.13451(6) 0.39077(7) 0.82384(7)
N3_3 N 0.15967(7) 0.41215(8) 0.80370(10)
H7_3 H 0.154430 0.436375 0.797450
C11_3 C 0.22189(10) 0.45739(9) 0.76891(12)
H8_3 H 0.201650 0.470815 0.782002
C12_3 C 0.22233(9) 0.41765(8) 0.76937(11)
C13_3 C 0.19379(9) 0.39521(9) 0.79312(10)
O7_3 O 0.19621(7) 0.63883(5) 0.80000(6)
O8_3 O 0.17616(7) 0.60923(7) 0.86549(6)
N4_3 N 0.19630(10) 0.58785(8) 0.84033(7)
H9_3 H 0.202550 0.563625 0.845570
C14_3 C 0.23109(12) 0.54261(9) 0.77811(10)
H10_3 H 0.217998 0.529185 0.798350
C15_3 C 0.23063(11) 0.58235(8) 0.77767(9)
C16_3 C 0.20688(10) 0.60479(9) 0.80621(9)
O9_3 O 0.30379(7) 0.30000(6) 0.63883(5)
O10_3 O 0.32384(7) 0.36549(6) 0.60923(7)
N5_3 N 0.30370(10) 0.34033(7) 0.58785(8)
H11_3 H 0.297450 0.345570 0.563625
C17_3 C 0.250000 0.250000 0.52175(10)
C18_3 C 0.26891(12) 0.27811(10) 0.54261(9)
H12_3 H 0.282002 0.298350 0.529185
C19_3 C 0.26937(11) 0.27767(9) 0.58235(8)
C20_3 C 0.29312(10) 0.30621(9) 0.60479(9)
C21_3 C 0.250000 0.250000 0.60210(11)
H13_3 H 0.250000 0.250000 0.629688
N6_3 N 0.34033(7) 0.30370(10) 0.41215(8)
H14_3 H 0.345570 0.297450 0.436375
C22_3 C 0.250000 0.250000 0.47825(10)
C23_3 C 0.27811(10) 0.26891(12) 0.45739(9)
H15_3 H 0.298350 0.282002 0.470815
C24_3 C 0.27767(9) 0.26937(11) 0.41765(8)
C25_3 C 0.30621(9) 0.29312(10) 0.39521(9)
C26_3 C 0.250000 0.250000 0.39790(11)
H16_3 H 0.250000 0.250000 0.370312
O13_3 O 0.19621(7) 0.20000(6) 0.63883(5)
O14_3 O 0.17616(7) 0.13451(6) 0.60923(7)
N7_3 N 0.19630(10) 0.15967(7) 0.58785(8)
H17_3 H 0.202550 0.154430 0.563625
C27_3 C 0.23109(12) 0.22189(10) 0.54261(9)
H18_3 H 0.217998 0.201650 0.529185
C28_3 C 0.23063(11) 0.22233(9) 0.58235(8)
C29_3 C 0.20688(10) 0.19379(9) 0.60479(9)
O15_3 O 0.20000(6) 0.19621(7) 0.36117(5)
O16_3 O 0.13451(6) 0.17616(7) 0.39077(7)
N8_3 N 0.15967(7) 0.19630(10) 0.41215(8)
H19_3 H 0.154430 0.202550 0.436375
C30_3 C 0.22189(10) 0.23109(12) 0.45739(9)
H20_3 H 0.201650 0.217998 0.470815
C31_3 C 0.22233(9) 0.23063(11) 0.41765(8)
C32_3 C 0.19379(9) 0.20688(10) 0.39521(9)
O17_3 O 0.36117(5) 0.30379(7) 0.70000(6)
O18_3 O 0.39077(7) 0.32384(7) 0.63451(6)
N9_3 N 0.41215(8) 0.30370(10) 0.65967(7)
H21_3 H 0.436375 0.297450 0.654430
C33_3 C 0.47825(10) 0.250000 0.750000
C34_3 C 0.45739(9) 0.26891(12) 0.72189(10)
H22_3 H 0.470815 0.282002 0.701650
C35_3 C 0.41765(8) 0.26937(11) 0.72233(9)
C36_3 C 0.39521(9) 0.29312(10) 0.69379(9)
C37_3 C 0.39790(11) 0.250000 0.750000
H23_3 H 0.370312 0.250000 0.750000
N10_3 N 0.58785(8) 0.34033(7) 0.69630(10)
H24_3 H 0.563625 0.345570 0.702550
C38_3 C 0.52175(10) 0.250000 0.750000
C39_3 C 0.54261(9) 0.27811(10) 0.73109(12)
H25_3 H 0.529185 0.298350 0.717998
C40_3 C 0.58235(8) 0.27767(9) 0.73063(11)
C41_3 C 0.60479(9) 0.30621(9) 0.70688(10)
C42_3 C 0.60210(11) 0.250000 0.750000
H26_3 H 0.629688 0.250000 0.750000
O21_3 O 0.36117(5) 0.19621(7) 0.80000(6)
O22_3 O 0.39077(7) 0.17616(7) 0.86549(6)
N11_3 N 0.41215(8) 0.19630(10) 0.84033(7)
H27_3 H 0.436375 0.202550 0.845570
C43_3 C 0.45739(9) 0.23109(12) 0.77811(10)
H28_3 H 0.470815 0.217998 0.798350
C44_3 C 0.41765(8) 0.23063(11) 0.77767(9)
C45_3 C 0.39521(9) 0.20688(10) 0.80621(9)
O23_3 O 0.63883(5) 0.20000(6) 0.80379(7)
O24_3 O 0.60923(7) 0.13451(6) 0.82384(7)
N12_3 N 0.58785(8) 0.15967(7) 0.80370(10)
H29_3 H 0.563625 0.154430 0.797450
C46_3 C 0.54261(9) 0.22189(10) 0.76891(12)
H30_3 H 0.529185 0.201650 0.782002
C47_3 C 0.58235(8) 0.22233(9) 0.76937(11)
C48_3 C 0.60479(9) 0.19379(9) 0.79312(10)
Fe5_3 Fe 0.34153(2) 0.15847(2) 0.84153(2)
Fe6_3 Fe 0.65847(2) 0.15847(2) 0.84153(2)
Fe7_3 Fe 0.15847(2) 0.34153(2) 0.84153(2)
Fe8_3 Fe 0.15847(2) 0.65847(2) 0.84153(2)
Fe9_3 Fe 0.15847(2) 0.15847(2) 0.65847(2)
Fe10_3 Fe 0.15847(2) 0.15847(2) 0.34153(2)
Fe1_4 Fe 0.65847(2) 0.65847(2) 0.65847(2)
O1_4 O 0.70000(6) 0.63883(5) 0.69621(7)
O2_4 O 0.63451(6) 0.60923(7) 0.67616(7)
N1_4 N 0.65967(7) 0.58785(8) 0.69630(10)
H1_4 H 0.654430 0.563625 0.702550
C1_4 C 0.750000 0.52175(10) 0.750000
C2_4 C 0.72189(10) 0.54261(9) 0.73109(12)
H2_4 H 0.701650 0.529185 0.717998
C3_4 C 0.72233(9) 0.58235(8) 0.73063(11)
C4_4 C 0.69379(9) 0.60479(9) 0.70688(10)
C5_4 C 0.750000 0.60210(11) 0.750000
H3_4 H 0.750000 0.629688 0.750000
N2_4 N 0.69630(10) 0.41215(8) 0.65967(7)
H4_4 H 0.702550 0.436375 0.654430
C6_4 C 0.750000 0.47825(10) 0.750000
C7_4 C 0.73109(12) 0.45739(9) 0.72189(10)
H5_4 H 0.717998 0.470815 0.701650
C8_4 C 0.73063(11) 0.41765(8) 0.72233(9)
C9_4 C 0.70688(10) 0.39521(9) 0.69379(9)
C10_4 C 0.750000 0.39790(11) 0.750000
H6_4 H 0.750000 0.370312 0.750000
O5_4 O 0.80000(6) 0.63883(5) 0.80379(7)
O6_4 O 0.86549(6) 0.60923(7) 0.82384(7)
N3_4 N 0.84033(7) 0.58785(8) 0.80370(10)
H7_4 H 0.845570 0.563625 0.797450
C11_4 C 0.77811(10) 0.54261(9) 0.76891(12)
H8_4 H 0.798350 0.529185 0.782002
C12_4 C 0.77767(9) 0.58235(8) 0.76937(11)
C13_4 C 0.80621(9) 0.60479(9) 0.79312(10)
O7_4 O 0.80379(7) 0.36117(5) 0.80000(6)
O8_4 O 0.82384(7) 0.39077(7) 0.86549(6)
N4_4 N 0.80370(10) 0.41215(8) 0.84033(7)
H9_4 H 0.797450 0.436375 0.845570
C14_4 C 0.76891(12) 0.45739(9) 0.77811(10)
H10_4 H 0.782002 0.470815 0.798350
C15_4 C 0.76937(11) 0.41765(8) 0.77767(9)
C16_4 C 0.79312(10) 0.39521(9) 0.80621(9)
O9_4 O 0.69621(7) 0.70000(6) 0.63883(5)
O10_4 O 0.67616(7) 0.63451(6) 0.60923(7)
N5_4 N 0.69630(10) 0.65967(7) 0.58785(8)
H11_4 H 0.702550 0.654430 0.563625
C17_4 C 0.750000 0.750000 0.52175(10)
C18_4 C 0.73109(12) 0.72189(10) 0.54261(9)
H12_4 H 0.717998 0.701650 0.529185
C19_4 C 0.73063(11) 0.72233(9) 0.58235(8)
C20_4 C 0.70688(10) 0.69379(9) 0.60479(9)
C21_4 C 0.750000 0.750000 0.60210(11)
H13_4 H 0.750000 0.750000 0.629688
N6_4 N 0.65967(7) 0.69630(10) 0.41215(8)
H14_4 H 0.654430 0.702550 0.436375
C22_4 C 0.750000 0.750000 0.47825(10)
C23_4 C 0.72189(10) 0.73109(12) 0.45739(9)
H15_4 H 0.701650 0.717998 0.470815
C24_4 C 0.72233(9) 0.73063(11) 0.41765(8)
C25_4 C 0.69379(9) 0.70688(10) 0.39521(9)
C26_4 C 0.750000 0.750000 0.39790(11)
H16_4 H 0.750000 0.750000 0.370312
O13_4 O 0.80379(7) 0.80000(6) 0.63883(5)
O14_4 O 0.82384(7) 0.86549(6) 0.60923(7)
N7_4 N 0.80370(10) 0.84033(7) 0.58785(8)
H17_4 H 0.797450 0.845570 0.563625
C27_4 C 0.76891(12) 0.77811(10) 0.54261(9)
H18_4 H 0.782002 0.798350 0.529185
C28_4 C 0.76937(11) 0.77767(9) 0.58235(8)
C29_4 C 0.79312(10) 0.80621(9) 0.60479(9)
O15_4 O 0.80000(6) 0.80379(7) 0.36117(5)
O16_4 O 0.86549(6) 0.82384(7) 0.39077(7)
N8_4 N 0.84033(7) 0.80370(10) 0.41215(8)
H19_4 H 0.845570 0.797450 0.436375
C30_4 C 0.77811(10) 0.76891(12) 0.45739(9)
H20_4 H 0.798350 0.782002 0.470815
C31_4 C 0.77767(9) 0.76937(11) 0.41765(8)
C32_4 C 0.80621(9) 0.79312(10) 0.39521(9)
O17_4 O 0.63883(5) 0.69621(7) 0.70000(6)
O18_4 O 0.60923(7) 0.67616(7) 0.63451(6)
N9_4 N 0.58785(8) 0.69630(10) 0.65967(7)
H21_4 H 0.563625 0.702550 0.654430
C33_4 C 0.52175(10) 0.750000 0.750000
C34_4 C 0.54261(9) 0.73109(12) 0.72189(10)
H22_4 H 0.529185 0.717998 0.701650
C35_4 C 0.58235(8) 0.73063(11) 0.72233(9)
C36_4 C 0.60479(9) 0.70688(10) 0.69379(9)
C37_4 C 0.60210(11) 0.750000 0.750000
H23_4 H 0.629688 0.750000 0.750000
N10_4 N 0.41215(8) 0.65967(7) 0.69630(10)
H24_4 H 0.436375 0.654430 0.702550
C38_4 C 0.47825(10) 0.750000 0.750000
C39_4 C 0.45739(9) 0.72189(10) 0.73109(12)
H25_4 H 0.470815 0.701650 0.717998
C40_4 C 0.41765(8) 0.72233(9) 0.73063(11)
C41_4 C 0.39521(9) 0.69379(9) 0.70688(10)
C42_4 C 0.39790(11) 0.750000 0.750000
H26_4 H 0.370312 0.750000 0.750000
O21_4 O 0.63883(5) 0.80379(7) 0.80000(6)
O22_4 O 0.60923(7) 0.82384(7) 0.86549(6)
N11_4 N 0.58785(8) 0.80370(10) 0.84033(7)
H27_4 H 0.563625 0.797450 0.845570
C43_4 C 0.54261(9) 0.76891(12) 0.77811(10)
H28_4 H 0.529185 0.782002 0.798350
C44_4 C 0.58235(8) 0.76937(11) 0.77767(9)
C45_4 C 0.60479(9) 0.79312(10) 0.80621(9)
O23_4 O 0.36117(5) 0.80000(6) 0.80379(7)
O24_4 O 0.39077(7) 0.86549(6) 0.82384(7)
N12_4 N 0.41215(8) 0.84033(7) 0.80370(10)
H29_4 H 0.436375 0.845570 0.797450
C46_4 C 0.45739(9) 0.77811(10) 0.76891(12)
H30_4 H 0.470815 0.798350 0.782002
C47_4 C 0.41765(8) 0.77767(9) 0.76937(11)
C48_4 C 0.39521(9) 0.80621(9) 0.79312(10)
Fe5_4 Fe 0.65847(2) 0.84153(2) 0.84153(2)
Fe6_4 Fe 0.34153(2) 0.84153(2) 0.84153(2)
Fe7_4 Fe 0.84153(2) 0.65847(2) 0.84153(2)
Fe8_4 Fe 0.84153(2) 0.34153(2) 0.84153(2)
Fe9_4 Fe 0.84153(2) 0.84153(2) 0.65847(2)
Fe10_4 Fe 0.84153(2) 0.84153(2) 0.34153(2)
O3_2 O 0.69621(7) 0.13883(5) 0.80000(6)
O4_2 O 0.67616(7) 0.10923(7) 0.86549(6)
N2_5 N 0.69630(10) 0.08785(8) 0.84033(7)
H4_5 H 0.702550 0.063625 0.845570
C6_5 C 0.750000 0.02175(10) 0.750000
C7_5 C 0.73109(12) 0.04261(9) 0.77811(10)
H5_5 H 0.717998 0.029185 0.798350
C8_5 C 0.73063(11) 0.08235(8) 0.77767(9)
C9_5 C 0.70688(10) 0.10479(9) 0.80621(9)
C10_5 C 0.750000 0.10210(11) 0.750000
H6_5 H 0.750000 0.129688 0.750000
O7_5 O 0.80379(7) 0.13883(5) 0.70000(6)
O8_5 O 0.82384(7) 0.10923(7) 0.63451(6)
N4_5 N 0.80370(10) 0.08785(8) 0.65967(7)
H9_5 H 0.797450 0.063625 0.654430
C14_5 C 0.76891(12) 0.04261(9) 0.72189(10)
H10_5 H 0.782002 0.029185 0.701650
C15_5 C 0.76937(11) 0.08235(8) 0.72233(9)
C16_5 C 0.79312(10) 0.10479(9) 0.69379(9)
O28_2 O 0.70000(6) 0.19621(7) 0.86117(5)
O34_2 O 0.63451(6) 0.17616(7) 0.89077(7)
O11_3 O 0.70000(6) 0.80379(7) 0.13883(5)
O12_3 O 0.63451(6) 0.82384(7) 0.10923(7)
N6_5 N 0.65967(7) 0.80370(10) 0.08785(8)
H14_5 H 0.654430 0.797450 0.063625
C22_5 C 0.750000 0.750000 0.02175(10)
C23_5 C 0.72189(10) 0.76891(12) 0.04261(9)
H15_5 H 0.701650 0.782002 0.029185
C24_5 C 0.72233(9) 0.76937(11) 0.08235(8)
C25_5 C 0.69379(9) 0.79312(10) 0.10479(9)
C26_5 C 0.750000 0.750000 0.10210(11)
H16_5 H 0.750000 0.750000 0.129688
O15_5 O 0.80000(6) 0.69621(7) 0.13883(5)
O16_5 O 0.86549(6) 0.67616(7) 0.10923(7)
N8_5 N 0.84033(7) 0.69630(10) 0.08785(8)
H19_5 H 0.845570 0.702550 0.063625
C30_5 C 0.77811(10) 0.73109(12) 0.04261(9)
H20_5 H 0.798350 0.717998 0.029185
C31_5 C 0.77767(9) 0.73063(11) 0.08235(8)
C32_5 C 0.80621(9) 0.70688(10) 0.10479(9)
O30_3 O 0.69621(7) 0.86117(5) 0.20000(6)
O36_3 O 0.67616(7) 0.89077(7) 0.13451(6)
O1_5 O 0.70000(6) 0.86117(5) 0.80379(7)
O2_5 O 0.63451(6) 0.89077(7) 0.82384(7)
N1_5 N 0.65967(7) 0.91215(8) 0.80370(10)
H1_5 H 0.654430 0.936375 0.797450
C1_5 C 0.750000 0.97825(10) 0.750000
C2_5 C 0.72189(10) 0.95739(9) 0.76891(12)
H2_5 H 0.701650 0.970815 0.782002
C3_5 C 0.72233(9) 0.91765(8) 0.76937(11)
C4_5 C 0.69379(9) 0.89521(9) 0.79312(10)
C5_5 C 0.750000 0.89790(11) 0.750000
H3_5 H 0.750000 0.870312 0.750000
O5_5 O 0.80000(6) 0.86117(5) 0.69621(7)
O6_5 O 0.86549(6) 0.89077(7) 0.67616(7)
N3_5 N 0.84033(7) 0.91215(8) 0.69630(10)
H7_5 H 0.845570 0.936375 0.702550
C11_5 C 0.77811(10) 0.95739(9) 0.73109(12)
H8_5 H 0.798350 0.970815 0.717998
C12_5 C 0.77767(9) 0.91765(8) 0.73063(11)
C13_5 C 0.80621(9) 0.89521(9) 0.70688(10)
O9_5 O 0.69621(7) 0.80000(6) 0.86117(5)
O10_5 O 0.67616(7) 0.86549(6) 0.89077(7)
N5_5 N 0.69630(10) 0.84033(7) 0.91215(8)
H11_5 H 0.702550 0.845570 0.936375
C17_5 C 0.750000 0.750000 0.97825(10)
C18_5 C 0.73109(12) 0.77811(10) 0.95739(9)
H12_5 H 0.717998 0.798350 0.970815
C19_5 C 0.73063(11) 0.77767(9) 0.91765(8)
C20_5 C 0.70688(10) 0.80621(9) 0.89521(9)
C21_5 C 0.750000 0.750000 0.89790(11)
H13_5 H 0.750000 0.750000 0.870312
O13_5 O 0.80379(7) 0.70000(6) 0.86117(5)
O14_5 O 0.82384(7) 0.63451(6) 0.89077(7)
N7_5 N 0.80370(10) 0.65967(7) 0.91215(8)
H17_5 H 0.797450 0.654430 0.936375
C27_5 C 0.76891(12) 0.72189(10) 0.95739(9)
H18_5 H 0.782002 0.701650 0.970815
C28_5 C 0.76937(11) 0.72233(9) 0.91765(8)
C29_5 C 0.79312(10) 0.69379(9) 0.89521(9)
O27_2 O 0.30000(6) 0.80379(7) 0.86117(5)
O29_2 O 0.30379(7) 0.86117(5) 0.80000(6)
O33_2 O 0.36549(6) 0.82384(7) 0.89077(7)
O35_2 O 0.32384(7) 0.89077(7) 0.86549(6)
O11_4 O 0.30000(6) 0.19621(7) 0.13883(5)
O12_4 O 0.36549(6) 0.17616(7) 0.10923(7)
N6_6 N 0.34033(7) 0.19630(10) 0.08785(8)
H14_6 H 0.345570 0.202550 0.063625
C22_6 C 0.250000 0.250000 0.02175(10)
C23_6 C 0.27811(10) 0.23109(12) 0.04261(9)
H15_6 H 0.298350 0.217998 0.029185
C24_6 C 0.27767(9) 0.23063(11) 0.08235(8)
C25_6 C 0.30621(9) 0.20688(10) 0.10479(9)
C26_6 C 0.250000 0.250000 0.10210(11)
H16_6 H 0.250000 0.250000 0.129688
O15_6 O 0.20000(6) 0.30379(7) 0.13883(5)
O16_6 O 0.13451(6) 0.32384(7) 0.10923(7)
N8_6 N 0.15967(7) 0.30370(10) 0.08785(8)
H19_6 H 0.154430 0.297450 0.063625
C30_6 C 0.22189(10) 0.26891(12) 0.04261(9)
H20_6 H 0.201650 0.282002 0.029185
C31_6 C 0.22233(9) 0.26937(11) 0.08235(8)
C32_6 C 0.19379(9) 0.29312(10) 0.10479(9)
O30_4 O 0.30379(7) 0.13883(5) 0.20000(6)
O36_4 O 0.32384(7) 0.10923(7) 0.13451(6)
O1_6 O 0.30000(6) 0.13883(5) 0.80379(7)
O2_6 O 0.36549(6) 0.10923(7) 0.82384(7)
N1_6 N 0.34033(7) 0.08785(8) 0.80370(10)
H1_6 H 0.345570 0.063625 0.797450
C1_6 C 0.250000 0.02175(10) 0.750000
C2_6 C 0.27811(10) 0.04261(9) 0.76891(12)
H2_6 H 0.298350 0.029185 0.782002
C3_6 C 0.27767(9) 0.08235(8) 0.76937(11)
C4_6 C 0.30621(9) 0.10479(9) 0.79312(10)
C5_6 C 0.250000 0.10210(11) 0.750000
H3_6 H 0.250000 0.129688 0.750000
O5_6 O 0.20000(6) 0.13883(5) 0.69621(7)
O6_6 O 0.13451(6) 0.10923(7) 0.67616(7)
N3_6 N 0.15967(7) 0.08785(8) 0.69630(10)
H7_6 H 0.154430 0.063625 0.702550
C11_6 C 0.22189(10) 0.04261(9) 0.73109(12)
H8_6 H 0.201650 0.029185 0.717998
C12_6 C 0.22233(9) 0.08235(8) 0.73063(11)
C13_6 C 0.19379(9) 0.10479(9) 0.70688(10)
O9_6 O 0.30379(7) 0.20000(6) 0.86117(5)
O10_6 O 0.32384(7) 0.13451(6) 0.89077(7)
N5_6 N 0.30370(10) 0.15967(7) 0.91215(8)
H11_6 H 0.297450 0.154430 0.936375
C17_6 C 0.250000 0.250000 0.97825(10)
C18_6 C 0.26891(12) 0.22189(10) 0.95739(9)
H12_6 H 0.282002 0.201650 0.970815
C19_6 C 0.26937(11) 0.22233(9) 0.91765(8)
C20_6 C 0.29312(10) 0.19379(9) 0.89521(9)
C21_6 C 0.250000 0.250000 0.89790(11)
H13_6 H 0.250000 0.250000 0.870312
O13_6 O 0.19621(7) 0.30000(6) 0.86117(5)
O14_6 O 0.17616(7) 0.36549(6) 0.89077(7)
N7_6 N 0.19630(10) 0.34033(7) 0.91215(8)
H17_6 H 0.202550 0.345570 0.936375
C27_6 C 0.23109(12) 0.27811(10) 0.95739(9)
H18_6 H 0.217998 0.298350 0.970815
C28_6 C 0.23063(11) 0.27767(9) 0.91765(8)
C29_6 C 0.20688(10) 0.30621(9) 0.89521(9)
N2_6 N 0.30370(10) 0.91215(8) 0.84033(7)
H4_6 H 0.297450 0.936375 0.845570
C6_6 C 0.250000 0.97825(10) 0.750000
C7_6 C 0.26891(12) 0.95739(9) 0.77811(10)
H5_6 H 0.282002 0.970815 0.798350
C8_6 C 0.26937(11) 0.91765(8) 0.77767(9)
C9_6 C 0.29312(10) 0.89521(9) 0.80621(9)
C10_6 C 0.250000 0.89790(11) 0.750000
H6_6 H 0.250000 0.870312 0.750000
O7_6 O 0.19621(7) 0.86117(5) 0.70000(6)
O8_6 O 0.17616(7) 0.89077(7) 0.63451(6)
N4_6 N 0.19630(10) 0.91215(8) 0.65967(7)
H9_6 H 0.202550 0.936375 0.654430
C14_6 C 0.23109(12) 0.95739(9) 0.72189(10)
H10_6 H 0.217998 0.970815 0.701650
C15_6 C 0.23063(11) 0.91765(8) 0.72233(9)
C16_6 C 0.20688(10) 0.89521(9) 0.69379(9)
N2_7 N 0.30370(10) 0.08785(8) 0.15967(7)
H4_7 H 0.297450 0.063625 0.154430
C6_7 C 0.250000 0.02175(10) 0.250000
C7_7 C 0.26891(12) 0.04261(9) 0.22189(10)
H5_7 H 0.282002 0.029185 0.201650
C8_7 C 0.26937(11) 0.08235(8) 0.22233(9)
C9_7 C 0.29312(10) 0.10479(9) 0.19379(9)
C10_7 C 0.250000 0.10210(11) 0.250000
H6_7 H 0.250000 0.129688 0.250000
O7_7 O 0.19621(7) 0.13883(5) 0.30000(6)
O8_7 O 0.17616(7) 0.10923(7) 0.36549(6)
N4_7 N 0.19630(10) 0.08785(8) 0.34033(7)
H9_7 H 0.202550 0.063625 0.345570
C14_7 C 0.23109(12) 0.04261(9) 0.27811(10)
H10_7 H 0.217998 0.029185 0.298350
C15_7 C 0.23063(11) 0.08235(8) 0.27767(9)
C16_7 C 0.20688(10) 0.10479(9) 0.30621(9)
O1_7 O 0.30000(6) 0.86117(5) 0.19621(7)
O2_7 O 0.36549(6) 0.89077(7) 0.17616(7)
N1_7 N 0.34033(7) 0.91215(8) 0.19630(10)
H1_7 H 0.345570 0.936375 0.202550
C1_7 C 0.250000 0.97825(10) 0.250000
C2_7 C 0.27811(10) 0.95739(9) 0.23109(12)
H2_7 H 0.298350 0.970815 0.217998
C3_7 C 0.27767(9) 0.91765(8) 0.23063(11)
C4_7 C 0.30621(9) 0.89521(9) 0.20688(10)
C5_7 C 0.250000 0.89790(11) 0.250000
H3_7 H 0.250000 0.870312 0.250000
O5_7 O 0.20000(6) 0.86117(5) 0.30379(7)
O6_7 O 0.13451(6) 0.89077(7) 0.32384(7)
N3_7 N 0.15967(7) 0.91215(8) 0.30370(10)
H7_7 H 0.154430 0.936375 0.297450
C11_7 C 0.22189(10) 0.95739(9) 0.26891(12)
H8_7 H 0.201650 0.970815 0.282002
C12_7 C 0.22233(9) 0.91765(8) 0.26937(11)
C13_7 C 0.19379(9) 0.89521(9) 0.29312(10)
O9_7 O 0.30379(7) 0.80000(6) 0.13883(5)
O10_7 O 0.32384(7) 0.86549(6) 0.10923(7)
N5_7 N 0.30370(10) 0.84033(7) 0.08785(8)
H11_7 H 0.297450 0.845570 0.063625
C17_7 C 0.250000 0.750000 0.02175(10)
C18_7 C 0.26891(12) 0.77811(10) 0.04261(9)
H12_7 H 0.282002 0.798350 0.029185
C19_7 C 0.26937(11) 0.77767(9) 0.08235(8)
C20_7 C 0.29312(10) 0.80621(9) 0.10479(9)
C21_7 C 0.250000 0.750000 0.10210(11)
H13_7 H 0.250000 0.750000 0.129688
O13_7 O 0.19621(7) 0.70000(6) 0.13883(5)
O14_7 O 0.17616(7) 0.63451(6) 0.10923(7)
N7_7 N 0.19630(10) 0.65967(7) 0.08785(8)
H17_7 H 0.202550 0.654430 0.063625
C27_7 C 0.23109(12) 0.72189(10) 0.04261(9)
H18_7 H 0.217998 0.701650 0.029185
C28_7 C 0.23063(11) 0.72233(9) 0.08235(8)
C29_7 C 0.20688(10) 0.69379(9) 0.10479(9)
N6_7 N 0.34033(7) 0.80370(10) 0.91215(8)
H14_7 H 0.345570 0.797450 0.936375
C22_7 C 0.250000 0.750000 0.97825(10)
C23_7 C 0.27811(10) 0.76891(12) 0.95739(9)
H15_7 H 0.298350 0.782002 0.970815
C24_7 C 0.27767(9) 0.76937(11) 0.91765(8)
C25_7 C 0.30621(9) 0.79312(10) 0.89521(9)
C26_7 C 0.250000 0.750000 0.89790(11)
H16_7 H 0.250000 0.750000 0.870312
O15_7 O 0.20000(6) 0.69621(7) 0.86117(5)
O16_7 O 0.13451(6) 0.67616(7) 0.89077(7)
N8_7 N 0.15967(7) 0.69630(10) 0.91215(8)
H19_7 H 0.154430 0.702550 0.936375
C30_7 C 0.22189(10) 0.73109(12) 0.95739(9)
H20_7 H 0.201650 0.717998 0.970815
C31_7 C 0.22233(9) 0.73063(11) 0.91765(8)
C32_7 C 0.19379(9) 0.70688(10) 0.89521(9)
O1_8 O 0.70000(6) 0.13883(5) 0.19621(7)
O2_8 O 0.63451(6) 0.10923(7) 0.17616(7)
N1_8 N 0.65967(7) 0.08785(8) 0.19630(10)
H1_8 H 0.654430 0.063625 0.202550
C1_8 C 0.750000 0.02175(10) 0.250000
C2_8 C 0.72189(10) 0.04261(9) 0.23109(12)
H2_8 H 0.701650 0.029185 0.217998
C3_8 C 0.72233(9) 0.08235(8) 0.23063(11)
C4_8 C 0.69379(9) 0.10479(9) 0.20688(10)
C5_8 C 0.750000 0.10210(11) 0.250000
H3_8 H 0.750000 0.129688 0.250000
O5_8 O 0.80000(6) 0.13883(5) 0.30379(7)
O6_8 O 0.86549(6) 0.10923(7) 0.32384(7)
N3_8 N 0.84033(7) 0.08785(8) 0.30370(10)
H7_8 H 0.845570 0.063625 0.297450
C11_8 C 0.77811(10) 0.04261(9) 0.26891(12)
H8_8 H 0.798350 0.029185 0.282002
C12_8 C 0.77767(9) 0.08235(8) 0.26937(11)
C13_8 C 0.80621(9) 0.10479(9) 0.29312(10)
O9_8 O 0.69621(7) 0.20000(6) 0.13883(5)
O10_8 O 0.67616(7) 0.13451(6) 0.10923(7)
N5_8 N 0.69630(10) 0.15967(7) 0.08785(8)
H11_8 H 0.702550 0.154430 0.063625
C17_8 C 0.750000 0.250000 0.02175(10)
C18_8 C 0.73109(12) 0.22189(10) 0.04261(9)
H12_8 H 0.717998 0.201650 0.029185
C19_8 C 0.73063(11) 0.22233(9) 0.08235(8)
C20_8 C 0.70688(10) 0.19379(9) 0.10479(9)
C21_8 C 0.750000 0.250000 0.10210(11)
H13_8 H 0.750000 0.250000 0.129688
O13_8 O 0.80379(7) 0.30000(6) 0.13883(5)
O14_8 O 0.82384(7) 0.36549(6) 0.10923(7)
N7_8 N 0.80370(10) 0.34033(7) 0.08785(8)
H17_8 H 0.797450 0.345570 0.063625
C27_8 C 0.76891(12) 0.27811(10) 0.04261(9)
H18_8 H 0.782002 0.298350 0.029185
C28_8 C 0.76937(11) 0.27767(9) 0.08235(8)
C29_8 C 0.79312(10) 0.30621(9) 0.10479(9)
N6_8 N 0.65967(7) 0.19630(10) 0.91215(8)
H14_8 H 0.654430 0.202550 0.936375
C22_8 C 0.750000 0.250000 0.97825(10)
C23_8 C 0.72189(10) 0.23109(12) 0.95739(9)
H15_8 H 0.701650 0.217998 0.970815
C24_8 C 0.72233(9) 0.23063(11) 0.91765(8)
C25_8 C 0.69379(9) 0.20688(10) 0.89521(9)
C26_8 C 0.750000 0.250000 0.89790(11)
H16_8 H 0.750000 0.250000 0.870312
O15_8 O 0.80000(6) 0.30379(7) 0.86117(5)
O16_8 O 0.86549(6) 0.32384(7) 0.89077(7)
N8_8 N 0.84033(7) 0.30370(10) 0.91215(8)
H19_8 H 0.845570 0.297450 0.936375
C30_8 C 0.77811(10) 0.26891(12) 0.95739(9)
H20_8 H 0.798350 0.282002 0.970815
C31_8 C 0.77767(9) 0.26937(11) 0.91765(8)
C32_8 C 0.80621(9) 0.29312(10) 0.89521(9)
N2_8 N 0.69630(10) 0.91215(8) 0.15967(7)
H4_8 H 0.702550 0.936375 0.154430
C6_8 C 0.750000 0.97825(10) 0.250000
C7_8 C 0.73109(12) 0.95739(9) 0.22189(10)
H5_8 H 0.717998 0.970815 0.201650
C8_8 C 0.73063(11) 0.91765(8) 0.22233(9)
C9_8 C 0.70688(10) 0.89521(9) 0.19379(9)
C10_8 C 0.750000 0.89790(11) 0.250000
H6_8 H 0.750000 0.870312 0.250000
O7_8 O 0.80379(7) 0.86117(5) 0.30000(6)
O8_8 O 0.82384(7) 0.89077(7) 0.36549(6)
N4_8 N 0.80370(10) 0.91215(8) 0.34033(7)
H9_8 H 0.797450 0.936375 0.345570
C14_8 C 0.76891(12) 0.95739(9) 0.27811(10)
H10_8 H 0.782002 0.970815 0.298350
C15_8 C 0.76937(11) 0.91765(8) 0.27767(9)
C16_8 C 0.79312(10) 0.89521(9) 0.30621(9)
O25_3 O 0.13883(5) 0.30000(6) 0.19621(7)
O31_3 O 0.10923(7) 0.36549(6) 0.17616(7)
O17_5 O 0.13883(5) 0.30379(7) 0.80000(6)
O18_5 O 0.10923(7) 0.32384(7) 0.86549(6)
N9_5 N 0.08785(8) 0.30370(10) 0.84033(7)
H21_5 H 0.063625 0.297450 0.845570
C33_5 C 0.02175(10) 0.250000 0.750000
C34_5 C 0.04261(9) 0.26891(12) 0.77811(10)
H22_5 H 0.029185 0.282002 0.798350
C35_5 C 0.08235(8) 0.26937(11) 0.77767(9)
C36_5 C 0.10479(9) 0.29312(10) 0.80621(9)
C37_5 C 0.10210(11) 0.250000 0.750000
H23_5 H 0.129688 0.250000 0.750000
O21_5 O 0.13883(5) 0.19621(7) 0.70000(6)
O22_5 O 0.10923(7) 0.17616(7) 0.63451(6)
N11_5 N 0.08785(8) 0.19630(10) 0.65967(7)
H27_5 H 0.063625 0.202550 0.654430
C43_5 C 0.04261(9) 0.23109(12) 0.72189(10)
H28_5 H 0.029185 0.217998 0.701650
C44_5 C 0.08235(8) 0.23063(11) 0.72233(9)
C45_5 C 0.10479(9) 0.20688(10) 0.69379(9)
O26_2 O 0.13883(5) 0.70000(6) 0.80379(7)
O32_2 O 0.10923(7) 0.63451(6) 0.82384(7)
O19_2 O 0.86117(5) 0.30000(6) 0.80379(7)
O20_2 O 0.89077(7) 0.36549(6) 0.82384(7)
N10_5 N 0.91215(8) 0.34033(7) 0.80370(10)
H24_5 H 0.936375 0.345570 0.797450
C38_5 C 0.97825(10) 0.250000 0.750000
C39_5 C 0.95739(9) 0.27811(10) 0.76891(12)
H25_5 H 0.970815 0.298350 0.782002
C40_5 C 0.91765(8) 0.27767(9) 0.76937(11)
C41_5 C 0.89521(9) 0.30621(9) 0.79312(10)
C42_5 C 0.89790(11) 0.250000 0.750000
H26_5 H 0.870312 0.250000 0.750000
O23_5 O 0.86117(5) 0.20000(6) 0.69621(7)
O24_5 O 0.89077(7) 0.13451(6) 0.67616(7)
N12_5 N 0.91215(8) 0.15967(7) 0.69630(10)
H29_5 H 0.936375 0.154430 0.702550
C46_5 C 0.95739(9) 0.22189(10) 0.73109(12)
H30_5 H 0.970815 0.201650 0.717998
C47_5 C 0.91765(8) 0.22233(9) 0.73063(11)
C48_5 C 0.89521(9) 0.19379(9) 0.70688(10)
N10_6 N 0.08785(8) 0.65967(7) 0.80370(10)
H24_6 H 0.063625 0.654430 0.797450
C38_6 C 0.02175(10) 0.750000 0.750000
C39_6 C 0.04261(9) 0.72189(10) 0.76891(12)
H25_6 H 0.029185 0.701650 0.782002
C40_6 C 0.08235(8) 0.72233(9) 0.76937(11)
C41_6 C 0.10479(9) 0.69379(9) 0.79312(10)
C42_6 C 0.10210(11) 0.750000 0.750000
H26_6 H 0.129688 0.750000 0.750000
O23_6 O 0.13883(5) 0.80000(6) 0.69621(7)
O24_6 O 0.10923(7) 0.86549(6) 0.67616(7)
N12_6 N 0.08785(8) 0.84033(7) 0.69630(10)
H29_6 H 0.063625 0.845570 0.702550
C46_6 C 0.04261(9) 0.77811(10) 0.73109(12)
H30_6 H 0.029185 0.798350 0.717998
C47_6 C 0.08235(8) 0.77767(9) 0.73063(11)
C48_6 C 0.10479(9) 0.80621(9) 0.70688(10)
O25_4 O 0.86117(5) 0.70000(6) 0.19621(7)
O31_4 O 0.89077(7) 0.63451(6) 0.17616(7)
O17_6 O 0.86117(5) 0.69621(7) 0.80000(6)
O18_6 O 0.89077(7) 0.67616(7) 0.86549(6)
N9_6 N 0.91215(8) 0.69630(10) 0.84033(7)
H21_6 H 0.936375 0.702550 0.845570
C33_6 C 0.97825(10) 0.750000 0.750000
C34_6 C 0.95739(9) 0.73109(12) 0.77811(10)
H22_6 H 0.970815 0.717998 0.798350
C35_6 C 0.91765(8) 0.73063(11) 0.77767(9)
C36_6 C 0.89521(9) 0.70688(10) 0.80621(9)
C37_6 C 0.89790(11) 0.750000 0.750000
H23_6 H 0.870312 0.750000 0.750000
O21_6 O 0.86117(5) 0.80379(7) 0.70000(6)
O22_6 O 0.89077(7) 0.82384(7) 0.63451(6)
N11_6 N 0.91215(8) 0.80370(10) 0.65967(7)
H27_6 H 0.936375 0.797450 0.654430
C43_6 C 0.95739(9) 0.76891(12) 0.72189(10)
H28_6 H 0.970815 0.782002 0.701650
C44_6 C 0.91765(8) 0.76937(11) 0.72233(9)
C45_6 C 0.89521(9) 0.79312(10) 0.69379(9)
N10_7 N 0.08785(8) 0.34033(7) 0.19630(10)
H24_7 H 0.063625 0.345570 0.202550
C38_7 C 0.02175(10) 0.250000 0.250000
C39_7 C 0.04261(9) 0.27811(10) 0.23109(12)
H25_7 H 0.029185 0.298350 0.217998
C40_7 C 0.08235(8) 0.27767(9) 0.23063(11)
C41_7 C 0.10479(9) 0.30621(9) 0.20688(10)
C42_7 C 0.10210(11) 0.250000 0.250000
H26_7 H 0.129688 0.250000 0.250000
O23_7 O 0.13883(5) 0.20000(6) 0.30379(7)
O24_7 O 0.10923(7) 0.13451(6) 0.32384(7)
N12_7 N 0.08785(8) 0.15967(7) 0.30370(10)
H29_7 H 0.063625 0.154430 0.297450
C46_7 C 0.04261(9) 0.22189(10) 0.26891(12)
H30_7 H 0.029185 0.201650 0.282002
C47_7 C 0.08235(8) 0.22233(9) 0.26937(11)
C48_7 C 0.10479(9) 0.19379(9) 0.29312(10)
O17_7 O 0.86117(5) 0.30379(7) 0.20000(6)
O18_7 O 0.89077(7) 0.32384(7) 0.13451(6)
N9_7 N 0.91215(8) 0.30370(10) 0.15967(7)
H21_7 H 0.936375 0.297450 0.154430
C33_7 C 0.97825(10) 0.250000 0.250000
C34_7 C 0.95739(9) 0.26891(12) 0.22189(10)
H22_7 H 0.970815 0.282002 0.201650
C35_7 C 0.91765(8) 0.26937(11) 0.22233(9)
C36_7 C 0.89521(9) 0.29312(10) 0.19379(9)
C37_7 C 0.89790(11) 0.250000 0.250000
H23_7 H 0.870312 0.250000 0.250000
O21_7 O 0.86117(5) 0.19621(7) 0.30000(6)
O22_7 O 0.89077(7) 0.17616(7) 0.36549(6)
N11_7 N 0.91215(8) 0.19630(10) 0.34033(7)
H27_7 H 0.936375 0.202550 0.345570
C43_7 C 0.95739(9) 0.23109(12) 0.27811(10)
H28_7 H 0.970815 0.217998 0.298350
C44_7 C 0.91765(8) 0.23063(11) 0.27767(9)
C45_7 C 0.89521(9) 0.20688(10) 0.30621(9)
O17_8 O 0.13883(5) 0.69621(7) 0.20000(6)
O18_8 O 0.10923(7) 0.67616(7) 0.13451(6)
N9_8 N 0.08785(8) 0.69630(10) 0.15967(7)
H21_8 H 0.063625 0.702550 0.154430
C33_8 C 0.02175(10) 0.750000 0.250000
C34_8 C 0.04261(9) 0.73109(12) 0.22189(10)
H22_8 H 0.029185 0.717998 0.201650
C35_8 C 0.08235(8) 0.73063(11) 0.22233(9)
C36_8 C 0.10479(9) 0.70688(10) 0.19379(9)
C37_8 C 0.10210(11) 0.750000 0.250000
H23_8 H 0.129688 0.750000 0.250000
O21_8 O 0.13883(5) 0.80379(7) 0.30000(6)
O22_8 O 0.10923(7) 0.82384(7) 0.36549(6)
N11_8 N 0.08785(8) 0.80370(10) 0.34033(7)
H27_8 H 0.063625 0.797450 0.345570
C43_8 C 0.04261(9) 0.76891(12) 0.27811(10)
H28_8 H 0.029185 0.782002 0.298350
C44_8 C 0.08235(8) 0.76937(11) 0.27767(9)
C45_8 C 0.10479(9) 0.79312(10) 0.30621(9)
N10_8 N 0.91215(8) 0.65967(7) 0.19630(10)
H24_8 H 0.936375 0.654430 0.202550
C38_8 C 0.97825(10) 0.750000 0.250000
C39_8 C 0.95739(9) 0.72189(10) 0.23109(12)
H25_8 H 0.970815 0.701650 0.217998
C40_8 C 0.91765(8) 0.72233(9) 0.23063(11)
C41_8 C 0.89521(9) 0.69379(9) 0.20688(10)
C42_8 C 0.89790(11) 0.750000 0.250000
H26_8 H 0.870312 0.750000 0.250000
O23_8 O 0.86117(5) 0.80000(6) 0.30379(7)
O24_8 O 0.89077(7) 0.86549(6) 0.32384(7)
N12_8 N 0.91215(8) 0.84033(7) 0.30370(10)
H29_8 H 0.936375 0.845570 0.297450
C46_8 C 0.95739(9) 0.77811(10) 0.26891(12)
H30_8 H 0.970815 0.798350 0.282002
C47_8 C 0.91765(8) 0.77767(9) 0.26937(11)
C48_8 C 0.89521(9) 0.80621(9) 0.29312(10)
loop_
_geom_bond_atom_site_label_1
_geom_bond_atom_site_label_2
_geom_bond_site_symmetry_1
_geom_bond_site_symmetry_2
Fe1 O1 1_555 1_555
O1 C4 1_555 1_555
O2 Fe1 1_555 1_555
N1 O2 1_555 1_555
H1 N1 1_555 1_555
C1 C2 1_555 1_555
C2 H2 1_555 1_555
C3 C2 1_555 1_555
C4 N1 1_555 1_555
C5 C3 1_555 1_555
H3 C5 1_555 1_555
O3 C9 1_555 1_555
O4 N2 1_555 1_555
N2 H4 1_555 1_555
C6 C1 1_555 1_555
C7 C6 1_555 1_555
H5 C7 1_555 1_555
C8 C7 1_555 1_555
C9 N2 1_555 1_555
C10 C8 1_555 1_555
H6 C10 1_555 1_555
O5 C13 1_555 1_555
O6 N3 1_555 1_555
N3 H7 1_555 1_555
C11 C1 1_555 1_555
H8 C11 1_555 1_555
C12 C5 1_555 1_555
C13 N3 1_555 1_555
O7 C16 1_555 1_555
O8 N4 1_555 1_555
N4 H9 1_555 1_555
C14 C6 1_555 1_555
H10 C14 1_555 1_555
C15 C10 1_555 1_555
C16 N4 1_555 1_555
O9 Fe1 1_555 1_555
O10 Fe1 1_555 1_555
N5 O10 1_555 1_555
H11 N5 1_555 1_555
C17 C18 1_555 1_555
C18 H12 1_555 1_555
C19 C18 1_555 1_555
C20 O9 1_555 1_555
C21 C19 1_555 1_555
H13 C21 1_555 1_555
O11 C25 1_555 1_555
O12 N6 1_555 1_555
N6 H14 1_555 1_555
C22 C17 1_555 1_555
C23 C22 1_555 1_555
H15 C23 1_555 1_555
C24 C23 1_555 1_555
C25 N6 1_555 1_555
C26 C24 1_555 1_555
H16 C26 1_555 1_555
O13 C29 1_555 1_555
O14 N7 1_555 1_555
N7 H17 1_555 1_555
C27 C17 1_555 1_555
H18 C27 1_555 1_555
C28 C21 1_555 1_555
C29 N7 1_555 1_555
O15 C32 1_555 1_555
O16 N8 1_555 1_555
N8 H19 1_555 1_555
C30 C22 1_555 1_555
H20 C30 1_555 1_555
C31 C26 1_555 1_555
C32 N8 1_555 1_555
O17 Fe1 1_555 1_555
O18 Fe1 1_555 1_555
N9 O18 1_555 1_555
H21 N9 1_555 1_555
C33 C34 1_555 1_555
C34 H22 1_555 1_555
C35 C34 1_555 1_555
C36 O17 1_555 1_555
C37 C35 1_555 1_555
H23 C37 1_555 1_555
O19 C41 1_555 1_555
O20 N10 1_555 1_555
N10 H24 1_555 1_555
C38 C33 1_555 1_555
C39 C38 1_555 1_555
H25 C39 1_555 1_555
C40 C39 1_555 1_555
C41 N10 1_555 1_555
C42 C40 1_555 1_555
H26 C42 1_555 1_555
O21 C45 1_555 1_555
O22 N11 1_555 1_555
N11 H27 1_555 1_555
C43 C33 1_555 1_555
H28 C43 1_555 1_555
C44 C37 1_555 1_555
C45 N11 1_555 1_555
O23 C48 1_555 1_555
O24 N12 1_555 1_555
N12 H29 1_555 1_555
C46 C38 1_555 1_555
H30 C46 1_555 1_555
C47 C42 1_555 1_555
C48 N12 1_555 1_555
Fe2 O19 1_555 1_555
Fe3 O3 1_555 1_555
Fe4 O11 1_555 1_555
Fe5 O21 1_555 1_555
Fe6 O23 1_555 1_555
Fe7 O5 1_555 1_555
Fe8 O7 1_555 1_555
Fe9 O13 1_555 1_555
Fe10 O15 1_555 1_555
O25 Fe4 1_555 1_555
O26 Fe3 1_555 1_555
O27 Fe2 1_555 1_555
O28 Fe3 1_555 1_555
O29 Fe2 1_555 1_555
O30 Fe4 1_555 1_555
O31 Fe4 1_555 1_555
O32 Fe3 1_555 1_555
O33 Fe2 1_555 1_555
O34 Fe3 1_555 1_555
O35 Fe2 1_555 1_555
O36 Fe4 1_555 1_555
C3 C4 1_555 1_555
O4 Fe3 1_555 1_555
C8 C9 1_555 1_555
O6 Fe7 1_555 1_555
C11 C12 1_555 1_555
C12 C13 1_555 1_555
O8 Fe8 1_555 1_555
C14 C15 1_555 1_555
C15 C16 1_555 1_555
N5 C20 1_555 1_555
C19 C20 1_555 1_555
O12 Fe4 1_555 1_555
C24 C25 1_555 1_555
O14 Fe9 1_555 1_555
C27 C28 1_555 1_555
C28 C29 1_555 1_555
O16 Fe10 1_555 1_555
C30 C31 1_555 1_555
C31 C32 1_555 1_555
N9 C36 1_555 1_555
C35 C36 1_555 1_555
O20 Fe2 1_555 1_555
C40 C41 1_555 1_555
O22 Fe5 1_555 1_555
C43 C44 1_555 1_555
C44 C45 1_555 1_555
O24 Fe6 1_555 1_555
C46 C47 1_555 1_555
C47 C48 1_555 1_555
Fe1_2 O1_2 1_555 1_555
O1_2 C4_2 1_555 1_555
O2_2 Fe1_2 1_555 1_555
N1_2 O2_2 1_555 1_555
H1_2 N1_2 1_555 1_555
C1_2 C2_2 1_555 1_555
C2_2 H2_2 1_555 1_555
C3_2 C2_2 1_555 1_555
C4_2 N1_2 1_555 1_555
C5_2 C3_2 1_555 1_555
H3_2 C5_2 1_555 1_555
O29 C9_2 1_555 1_555
O35 N2_2 1_555 1_555
N2_2 H4_2 1_555 1_555
C6_2 C1_2 1_555 1_555
C7_2 C6_2 1_555 1_555
H5_2 C7_2 1_555 1_555
C8_2 C7_2 1_555 1_555
C9_2 N2_2 1_555 1_555
C10_2 C8_2 1_555 1_555
H6_2 C10_2 1_555 1_555
O5_2 C13_2 1_555 1_555
O6_2 N3_2 1_555 1_555
N3_2 H7_2 1_555 1_555
C11_2 C1_2 1_555 1_555
H8_2 C11_2 1_555 1_555
C12_2 C5_2 1_555 1_555
C13_2 N3_2 1_555 1_555
O7_2 C16_2 1_555 1_555
O8_2 N4_2 1_555 1_555
N4_2 H9_2 1_555 1_555
C14_2 C6_2 1_555 1_555
H10_2 C14_2 1_555 1_555
C15_2 C10_2 1_555 1_555
C16_2 N4_2 1_555 1_555
O9_2 Fe1_2 1_555 1_555
O10_2 Fe1_2 1_555 1_555
N5_2 O10_2 1_555 1_555
H11_2 N5_2 1_555 1_555
C17_2 C18_2 1_555 1_555
C18_2 H12_2 1_555 1_555
C19_2 C18_2 1_555 1_555
C20_2 O9_2 1_555 1_555
C21_2 C19_2 1_555 1_555
H13_2 C21_2 1_555 1_555
O11_2 C25_2 1_555 1_555
O12_2 N6_2 1_555 1_555
N6_2 H14_2 1_555 1_555
C22_2 C17_2 1_555 1_555
C23_2 C22_2 1_555 1_555
H15_2 C23_2 1_555 1_555
C24_2 C23_2 1_555 1_555
C25_2 N6_2 1_555 1_555
C26_2 C24_2 1_555 1_555
H16_2 C26_2 1_555 1_555
O13_2 C29_2 1_555 1_555
O14_2 N7_2 1_555 1_555
N7_2 H17_2 1_555 1_555
C27_2 C17_2 1_555 1_555
H18_2 C27_2 1_555 1_555
C28_2 C21_2 1_555 1_555
C29_2 N7_2 1_555 1_555
O15_2 C32_2 1_555 1_555
O16_2 N8_2 1_555 1_555
N8_2 H19_2 1_555 1_555
C30_2 C22_2 1_555 1_555
H20_2 C30_2 1_555 1_555
C31_2 C26_2 1_555 1_555
C32_2 N8_2 1_555 1_555
O17_2 Fe1_2 1_555 1_555
O18_2 Fe1_2 1_555 1_555
N9_2 O18_2 1_555 1_555
H21_2 N9_2 1_555 1_555
C33_2 C34_2 1_555 1_555
C34_2 H22_2 1_555 1_555
C35_2 C34_2 1_555 1_555
C36_2 O17_2 1_555 1_555
C37_2 C35_2 1_555 1_555
H23_2 C37_2 1_555 1_555
O26 C41_2 1_555 1_555
O32 N10_2 1_555 1_555
N10_2 H24_2 1_555 1_555
C38_2 C33_2 1_555 1_555
C39_2 C38_2 1_555 1_555
H25_2 C39_2 1_555 1_555
C40_2 C39_2 1_555 1_555
C41_2 N10_2 1_555 1_555
C42_2 C40_2 1_555 1_555
H26_2 C42_2 1_555 1_555
O21_2 C45_2 1_555 1_555
O22_2 N11_2 1_555 1_555
N11_2 H27_2 1_555 1_555
C43_2 C33_2 1_555 1_555
H28_2 C43_2 1_555 1_555
C44_2 C37_2 1_555 1_555
C45_2 N11_2 1_555 1_555
O23_2 C48_2 1_555 1_555
O24_2 N12_2 1_555 1_555
N12_2 H29_2 1_555 1_555
C46_2 C38_2 1_555 1_555
H30_2 C46_2 1_555 1_555
C47_2 C42_2 1_555 1_555
C48_2 N12_2 1_555 1_555
Fe4_2 O11_2 1_555 1_555
Fe5_2 O21_2 1_555 1_555
Fe6_2 O23_2 1_555 1_555
Fe7_2 O5_2 1_555 1_555
Fe8_2 O7_2 1_555 1_555
Fe9_2 O13_2 1_555 1_555
Fe10_2 O15_2 1_555 1_555
O25_2 Fe4_2 1_555 1_555
O30_2 Fe4_2 1_555 1_555
O31_2 Fe4_2 1_555 1_555
O36_2 Fe4_2 1_555 1_555
C3_2 C4_2 1_555 1_555
C8_2 C9_2 1_555 1_555
O6_2 Fe7_2 1_555 1_555
C11_2 C12_2 1_555 1_555
C12_2 C13_2 1_555 1_555
O8_2 Fe8_2 1_555 1_555
C14_2 C15_2 1_555 1_555
C15_2 C16_2 1_555 1_555
N5_2 C20_2 1_555 1_555
C19_2 C20_2 1_555 1_555
O12_2 Fe4_2 1_555 1_555
C24_2 C25_2 1_555 1_555
O14_2 Fe9_2 1_555 1_555
C27_2 C28_2 1_555 1_555
C28_2 C29_2 1_555 1_555
O16_2 Fe10_2 1_555 1_555
C30_2 C31_2 1_555 1_555
C31_2 C32_2 1_555 1_555
N9_2 C36_2 1_555 1_555
C35_2 C36_2 1_555 1_555
C40_2 C41_2 1_555 1_555
O22_2 Fe5_2 1_555 1_555
C43_2 C44_2 1_555 1_555
C44_2 C45_2 1_555 1_555
O24_2 Fe6_2 1_555 1_555
C46_2 C47_2 1_555 1_555
C47_2 C48_2 1_555 1_555
Fe1_3 O1_3 1_555 1_555
O1_3 C4_3 1_555 1_555
O2_3 Fe1_3 1_555 1_555
N1_3 O2_3 1_555 1_555
H1_3 N1_3 1_555 1_555
C1_3 C2_3 1_555 1_555
C2_3 H2_3 1_555 1_555
C3_3 C2_3 1_555 1_555
C4_3 N1_3 1_555 1_555
C5_3 C3_3 1_555 1_555
H3_3 C5_3 1_555 1_555
O30_2 C9_3 1_555 1_555
O36_2 N2_3 1_555 1_555
N2_3 H4_3 1_555 1_555
C6_3 C1_3 1_555 1_555
C7_3 C6_3 1_555 1_555
H5_3 C7_3 1_555 1_555
C8_3 C7_3 1_555 1_555
C9_3 N2_3 1_555 1_555
C10_3 C8_3 1_555 1_555
H6_3 C10_3 1_555 1_555
O5_3 C13_3 1_555 1_555
O6_3 N3_3 1_555 1_555
N3_3 H7_3 1_555 1_555
C11_3 C1_3 1_555 1_555
H8_3 C11_3 1_555 1_555
C12_3 C5_3 1_555 1_555
C13_3 N3_3 1_555 1_555
O7_3 C16_3 1_555 1_555
O8_3 N4_3 1_555 1_555
N4_3 H9_3 1_555 1_555
C14_3 C6_3 1_555 1_555
H10_3 C14_3 1_555 1_555
C15_3 C10_3 1_555 1_555
C16_3 N4_3 1_555 1_555
O9_3 Fe1_3 1_555 1_555
O10_3 Fe1_3 1_555 1_555
N5_3 O10_3 1_555 1_555
H11_3 N5_3 1_555 1_555
C17_3 C18_3 1_555 1_555
C18_3 H12_3 1_555 1_555
C19_3 C18_3 1_555 1_555
C20_3 O9_3 1_555 1_555
C21_3 C19_3 1_555 1_555
H13_3 C21_3 1_555 1_555
O27 C25_3 1_555 1_555
O33 N6_3 1_555 1_555
N6_3 H14_3 1_555 1_555
C22_3 C17_3 1_555 1_555
C23_3 C22_3 1_555 1_555
H15_3 C23_3 1_555 1_555
C24_3 C23_3 1_555 1_555
C25_3 N6_3 1_555 1_555
C26_3 C24_3 1_555 1_555
H16_3 C26_3 1_555 1_555
O13_3 C29_3 1_555 1_555
O14_3 N7_3 1_555 1_555
N7_3 H17_3 1_555 1_555
C27_3 C17_3 1_555 1_555
H18_3 C27_3 1_555 1_555
C28_3 C21_3 1_555 1_555
C29_3 N7_3 1_555 1_555
O15_3 C32_3 1_555 1_555
O16_3 N8_3 1_555 1_555
N8_3 H19_3 1_555 1_555
C30_3 C22_3 1_555 1_555
H20_3 C30_3 1_555 1_555
C31_3 C26_3 1_555 1_555
C32_3 N8_3 1_555 1_555
O17_3 Fe1_3 1_555 1_555
O18_3 Fe1_3 1_555 1_555
N9_3 O18_3 1_555 1_555
H21_3 N9_3 1_555 1_555
C33_3 C34_3 1_555 1_555
C34_3 H22_3 1_555 1_555
C35_3 C34_3 1_555 1_555
C36_3 O17_3 1_555 1_555
C37_3 C35_3 1_555 1_555
H23_3 C37_3 1_555 1_555
O25 C41_3 1_555 1_555
O31 N10_3 1_555 1_555
N10_3 H24_3 1_555 1_555
C38_3 C33_3 1_555 1_555
C39_3 C38_3 1_555 1_555
H25_3 C39_3 1_555 1_555
C40_3 C39_3 1_555 1_555
C41_3 N10_3 1_555 1_555
C42_3 C40_3 1_555 1_555
H26_3 C42_3 1_555 1_555
O21_3 C45_3 1_555 1_555
O22_3 N11_3 1_555 1_555
N11_3 H27_3 1_555 1_555
C43_3 C33_3 1_555 1_555
H28_3 C43_3 1_555 1_555
C44_3 C37_3 1_555 1_555
C45_3 N11_3 1_555 1_555
O23_3 C48_3 1_555 1_555
O24_3 N12_3 1_555 1_555
N12_3 H29_3 1_555 1_555
C46_3 C38_3 1_555 1_555
H30_3 C46_3 1_555 1_555
C47_3 C42_3 1_555 1_555
C48_3 N12_3 1_555 1_555
Fe5_3 O21_3 1_555 1_555
Fe6_3 O23_3 1_555 1_555
Fe7_3 O5_3 1_555 1_555
Fe8_3 O7_3 1_555 1_555
Fe9_3 O13_3 1_555 1_555
Fe10_3 O15_3 1_555 1_555
C3_3 C4_3 1_555 1_555
C8_3 C9_3 1_555 1_555
O6_3 Fe7_3 1_555 1_555
C11_3 C12_3 1_555 1_555
C12_3 C13_3 1_555 1_555
O8_3 Fe8_3 1_555 1_555
C14_3 C15_3 1_555 1_555
C15_3 C16_3 1_555 1_555
N5_3 C20_3 1_555 1_555
C19_3 C20_3 1_555 1_555
C24_3 C25_3 1_555 1_555
O14_3 Fe9_3 1_555 1_555
C27_3 C28_3 1_555 1_555
C28_3 C29_3 1_555 1_555
O16_3 Fe10_3 1_555 1_555
C30_3 C31_3 1_555 1_555
C31_3 C32_3 1_555 1_555
N9_3 C36_3 1_555 1_555
C35_3 C36_3 1_555 1_555
C40_3 C41_3 1_555 1_555
O22_3 Fe5_3 1_555 1_555
C43_3 C44_3 1_555 1_555
C44_3 C45_3 1_555 1_555
O24_3 Fe6_3 1_555 1_555
C46_3 C47_3 1_555 1_555
C47_3 C48_3 1_555 1_555
Fe1_4 O1_4 1_555 1_555
O1_4 C4_4 1_555 1_555
O2_4 Fe1_4 1_555 1_555
N1_4 O2_4 1_555 1_555
H1_4 N1_4 1_555 1_555
C1_4 C2_4 1_555 1_555
C2_4 H2_4 1_555 1_555
C3_4 C2_4 1_555 1_555
C4_4 N1_4 1_555 1_555
C5_4 C3_4 1_555 1_555
H3_4 C5_4 1_555 1_555
O30 C9_4 1_555 1_555
O36 N2_4 1_555 1_555
N2_4 H4_4 1_555 1_555
C6_4 C1_4 1_555 1_555
C7_4 C6_4 1_555 1_555
H5_4 C7_4 1_555 1_555
C8_4 C7_4 1_555 1_555
C9_4 N2_4 1_555 1_555
C10_4 C8_4 1_555 1_555
H6_4 C10_4 1_555 1_555
O5_4 C13_4 1_555 1_555
O6_4 N3_4 1_555 1_555
N3_4 H7_4 1_555 1_555
C11_4 C1_4 1_555 1_555
H8_4 C11_4 1_555 1_555
C12_4 C5_4 1_555 1_555
C13_4 N3_4 1_555 1_555
O7_4 C16_4 1_555 1_555
O8_4 N4_4 1_555 1_555
N4_4 H9_4 1_555 1_555
C14_4 C6_4 1_555 1_555
H10_4 C14_4 1_555 1_555
C15_4 C10_4 1_555 1_555
C16_4 N4_4 1_555 1_555
O9_4 Fe1_4 1_555 1_555
O10_4 Fe1_4 1_555 1_555
N5_4 O10_4 1_555 1_555
H11_4 N5_4 1_555 1_555
C17_4 C18_4 1_555 1_555
C18_4 H12_4 1_555 1_555
C19_4 C18_4 1_555 1_555
C20_4 O9_4 1_555 1_555
C21_4 C19_4 1_555 1_555
H13_4 C21_4 1_555 1_555
O28 C25_4 1_555 1_555
O34 N6_4 1_555 1_555
N6_4 H14_4 1_555 1_555
C22_4 C17_4 1_555 1_555
C23_4 C22_4 1_555 1_555
H15_4 C23_4 1_555 1_555
C24_4 C23_4 1_555 1_555
C25_4 N6_4 1_555 1_555
C26_4 C24_4 1_555 1_555
H16_4 C26_4 1_555 1_555
O13_4 C29_4 1_555 1_555
O14_4 N7_4 1_555 1_555
N7_4 H17_4 1_555 1_555
C27_4 C17_4 1_555 1_555
H18_4 C27_4 1_555 1_555
C28_4 C21_4 1_555 1_555
C29_4 N7_4 1_555 1_555
O15_4 C32_4 1_555 1_555
O16_4 N8_4 1_555 1_555
N8_4 H19_4 1_555 1_555
C30_4 C22_4 1_555 1_555
H20_4 C30_4 1_555 1_555
C31_4 C26_4 1_555 1_555
C32_4 N8_4 1_555 1_555
O17_4 Fe1_4 1_555 1_555
O18_4 Fe1_4 1_555 1_555
N9_4 O18_4 1_555 1_555
H21_4 N9_4 1_555 1_555
C33_4 C34_4 1_555 1_555
C34_4 H22_4 1_555 1_555
C35_4 C34_4 1_555 1_555
C36_4 O17_4 1_555 1_555
C37_4 C35_4 1_555 1_555
H23_4 C37_4 1_555 1_555
O25_2 C41_4 1_555 1_555
O31_2 N10_4 1_555 1_555
N10_4 H24_4 1_555 1_555
C38_4 C33_4 1_555 1_555
C39_4 C38_4 1_555 1_555
H25_4 C39_4 1_555 1_555
C40_4 C39_4 1_555 1_555
C41_4 N10_4 1_555 1_555
C42_4 C40_4 1_555 1_555
H26_4 C42_4 1_555 1_555
O21_4 C45_4 1_555 1_555
O22_4 N11_4 1_555 1_555
N11_4 H27_4 1_555 1_555
C43_4 C33_4 1_555 1_555
H28_4 C43_4 1_555 1_555
C44_4 C37_4 1_555 1_555
C45_4 N11_4 1_555 1_555
O23_4 C48_4 1_555 1_555
O24_4 N12_4 1_555 1_555
N12_4 H29_4 1_555 1_555
C46_4 C38_4 1_555 1_555
H30_4 C46_4 1_555 1_555
C47_4 C42_4 1_555 1_555
C48_4 N12_4 1_555 1_555
Fe5_4 O21_4 1_555 1_555
Fe6_4 O23_4 1_555 1_555
Fe7_4 O5_4 1_555 1_555
Fe8_4 O7_4 1_555 1_555
Fe9_4 O13_4 1_555 1_555
Fe10_4 O15_4 1_555 1_555
C3_4 C4_4 1_555 1_555
C8_4 C9_4 1_555 1_555
O6_4 Fe7_4 1_555 1_555
C11_4 C12_4 1_555 1_555
C12_4 C13_4 1_555 1_555
O8_4 Fe8_4 1_555 1_555
C14_4 C15_4 1_555 1_555
C15_4 C16_4 1_555 1_555
N5_4 C20_4 1_555 1_555
C19_4 C20_4 1_555 1_555
C24_4 C25_4 1_555 1_555
O14_4 Fe9_4 1_555 1_555
C27_4 C28_4 1_555 1_555
C28_4 C29_4 1_555 1_555
O16_4 Fe10_4 1_555 1_555
C30_4 C31_4 1_555 1_555
C31_4 C32_4 1_555 1_555
N9_4 C36_4 1_555 1_555
C35_4 C36_4 1_555 1_555
C40_4 C41_4 1_555 1_555
O22_4 Fe5_4 1_555 1_555
C43_4 C44_4 1_555 1_555
C44_4 C45_4 1_555 1_555
O24_4 Fe6_4 1_555 1_555
C46_4 C47_4 1_555 1_555
C47_4 C48_4 1_555 1_555
O3_2 C9_5 1_555 1_555
O4_2 N2_5 1_555 1_555
N2_5 H4_5 1_555 1_555
C7_5 C6_5 1_555 1_555
H5_5 C7_5 1_555 1_555
C8_5 C7_5 1_555 1_555
C9_5 N2_5 1_555 1_555
C10_5 C8_5 1_555 1_555
H6_5 C10_5 1_555 1_555
O7_5 C16_5 1_555 1_555
O8_5 N4_5 1_555 1_555
N4_5 H9_5 1_555 1_555
C14_5 C6_5 1_555 1_555
H10_5 C14_5 1_555 1_555
C15_5 C10_5 1_555 1_555
C16_5 N4_5 1_555 1_555
Fe6_3 O3_2 1_555 1_555
Fe10 O7_5 1_555 1_555
O28_2 Fe6_3 1_555 1_555
O34_2 Fe6_3 1_555 1_555
O4_2 Fe6_3 1_555 1_555
C8_5 C9_5 1_555 1_555
O8_5 Fe10 1_555 1_555
C14_5 C15_5 1_555 1_555
C15_5 C16_5 1_555 1_555
O11_3 C25_5 1_555 1_555
O12_3 N6_5 1_555 1_555
N6_5 H14_5 1_555 1_555
C23_5 C22_5 1_555 1_555
H15_5 C23_5 1_555 1_555
C24_5 C23_5 1_555 1_555
C25_5 N6_5 1_555 1_555
C26_5 C24_5 1_555 1_555
H16_5 C26_5 1_555 1_555
O15_5 C32_5 1_555 1_555
O16_5 N8_5 1_555 1_555
N8_5 H19_5 1_555 1_555
C30_5 C22_5 1_555 1_555
H20_5 C30_5 1_555 1_555
C31_5 C26_5 1_555 1_555
C32_5 N8_5 1_555 1_555
Fe6_2 O11_3 1_555 1_555
Fe8 O15_5 1_555 1_555
O30_3 Fe6_2 1_555 1_555
O36_3 Fe6_2 1_555 1_555
O12_3 Fe6_2 1_555 1_555
C24_5 C25_5 1_555 1_555
O16_5 Fe8 1_555 1_555
C30_5 C31_5 1_555 1_555
C31_5 C32_5 1_555 1_555
Fe5_4 O1_5 1_555 1_555
O1_5 C4_5 1_555 1_555
O2_5 Fe5_4 1_555 1_555
N1_5 O2_5 1_555 1_555
H1_5 N1_5 1_555 1_555
C1_5 C2_5 1_555 1_555
C2_5 H2_5 1_555 1_555
C3_5 C2_5 1_555 1_555
C4_5 N1_5 1_555 1_555
C5_5 C3_5 1_555 1_555
H3_5 C5_5 1_555 1_555
O5_5 C13_5 1_555 1_555
O6_5 N3_5 1_555 1_555
N3_5 H7_5 1_555 1_555
C11_5 C1_5 1_555 1_555
H8_5 C11_5 1_555 1_555
C12_5 C5_5 1_555 1_555
C13_5 N3_5 1_555 1_555
O9_5 Fe5_4 1_555 1_555
O10_5 Fe5_4 1_555 1_555
N5_5 O10_5 1_555 1_555
H11_5 N5_5 1_555 1_555
C17_5 C18_5 1_555 1_555
C18_5 H12_5 1_555 1_555
C19_5 C18_5 1_555 1_555
C20_5 O9_5 1_555 1_555
C21_5 C19_5 1_555 1_555
H13_5 C21_5 1_555 1_555
O13_5 C29_5 1_555 1_555
O14_5 N7_5 1_555 1_555
N7_5 H17_5 1_555 1_555
C27_5 C17_5 1_555 1_555
H18_5 C27_5 1_555 1_555
C28_5 C21_5 1_555 1_555
C29_5 N7_5 1_555 1_555
Fe9_4 O5_5 1_555 1_555
Fe7_4 O13_5 1_555 1_555
O27_2 Fe6_4 1_555 1_555
O29_2 Fe6_4 1_555 1_555
O33_2 Fe6_4 1_555 1_555
O35_2 Fe6_4 1_555 1_555
C3_5 C4_5 1_555 1_555
O6_5 Fe9_4 1_555 1_555
C11_5 C12_5 1_555 1_555
C12_5 C13_5 1_555 1_555
N5_5 C20_5 1_555 1_555
C19_5 C20_5 1_555 1_555
O14_5 Fe7_4 1_555 1_555
C27_5 C28_5 1_555 1_555
C28_5 C29_5 1_555 1_555
O11_4 C25_6 1_555 1_555
O12_4 N6_6 1_555 1_555
N6_6 H14_6 1_555 1_555
C23_6 C22_6 1_555 1_555
H15_6 C23_6 1_555 1_555
C24_6 C23_6 1_555 1_555
C25_6 N6_6 1_555 1_555
C26_6 C24_6 1_555 1_555
H16_6 C26_6 1_555 1_555
O15_6 C32_6 1_555 1_555
O16_6 N8_6 1_555 1_555
N8_6 H19_6 1_555 1_555
C30_6 C22_6 1_555 1_555
H20_6 C30_6 1_555 1_555
C31_6 C26_6 1_555 1_555
C32_6 N8_6 1_555 1_555
Fe6 O11_4 1_555 1_555
Fe8_2 O15_6 1_555 1_555
O30_4 Fe6 1_555 1_555
O36_4 Fe6 1_555 1_555
O12_4 Fe6 1_555 1_555
C24_6 C25_6 1_555 1_555
O16_6 Fe8_2 1_555 1_555
C30_6 C31_6 1_555 1_555
C31_6 C32_6 1_555 1_555
Fe5_3 O1_6 1_555 1_555
O1_6 C4_6 1_555 1_555
O2_6 Fe5_3 1_555 1_555
N1_6 O2_6 1_555 1_555
H1_6 N1_6 1_555 1_555
C1_6 C2_6 1_555 1_555
C2_6 H2_6 1_555 1_555
C3_6 C2_6 1_555 1_555
C4_6 N1_6 1_555 1_555
C5_6 C3_6 1_555 1_555
H3_6 C5_6 1_555 1_555
O5_6 C13_6 1_555 1_555
O6_6 N3_6 1_555 1_555
N3_6 H7_6 1_555 1_555
C11_6 C1_6 1_555 1_555
H8_6 C11_6 1_555 1_555
C12_6 C5_6 1_555 1_555
C13_6 N3_6 1_555 1_555
O9_6 Fe5_3 1_555 1_555
O10_6 Fe5_3 1_555 1_555
N5_6 O10_6 1_555 1_555
H11_6 N5_6 1_555 1_555
C17_6 C18_6 1_555 1_555
C18_6 H12_6 1_555 1_555
C19_6 C18_6 1_555 1_555
C20_6 O9_6 1_555 1_555
C21_6 C19_6 1_555 1_555
H13_6 C21_6 1_555 1_555
O13_6 C29_6 1_555 1_555
O14_6 N7_6 1_555 1_555
N7_6 H17_6 1_555 1_555
C27_6 C17_6 1_555 1_555
H18_6 C27_6 1_555 1_555
C28_6 C21_6 1_555 1_555
C29_6 N7_6 1_555 1_555
Fe9_3 O5_6 1_555 1_555
Fe7_3 O13_6 1_555 1_555
C3_6 C4_6 1_555 1_555
O6_6 Fe9_3 1_555 1_555
C11_6 C12_6 1_555 1_555
C12_6 C13_6 1_555 1_555
N5_6 C20_6 1_555 1_555
C19_6 C20_6 1_555 1_555
O14_6 Fe7_3 1_555 1_555
C27_6 C28_6 1_555 1_555
C28_6 C29_6 1_555 1_555
O29_2 C9_6 1_555 1_555
O35_2 N2_6 1_555 1_555
N2_6 H4_6 1_555 1_555
C7_6 C6_6 1_555 1_555
H5_6 C7_6 1_555 1_555
C8_6 C7_6 1_555 1_555
C9_6 N2_6 1_555 1_555
C10_6 C8_6 1_555 1_555
H6_6 C10_6 1_555 1_555
O7_6 C16_6 1_555 1_555
O8_6 N4_6 1_555 1_555
N4_6 H9_6 1_555 1_555
C14_6 C6_6 1_555 1_555
H10_6 C14_6 1_555 1_555
C15_6 C10_6 1_555 1_555
C16_6 N4_6 1_555 1_555
Fe10_2 O7_6 1_555 1_555
C8_6 C9_6 1_555 1_555
O8_6 Fe10_2 1_555 1_555
C14_6 C15_6 1_555 1_555
C15_6 C16_6 1_555 1_555
O30_4 C9_7 1_555 1_555
O36_4 N2_7 1_555 1_555
N2_7 H4_7 1_555 1_555
C7_7 C6_7 1_555 1_555
H5_7 C7_7 1_555 1_555
C8_7 C7_7 1_555 1_555
C9_7 N2_7 1_555 1_555
C10_7 C8_7 1_555 1_555
H6_7 C10_7 1_555 1_555
O7_7 C16_7 1_555 1_555
O8_7 N4_7 1_555 1_555
N4_7 H9_7 1_555 1_555
C14_7 C6_7 1_555 1_555
H10_7 C14_7 1_555 1_555
C15_7 C10_7 1_555 1_555
C16_7 N4_7 1_555 1_555
Fe10_3 O7_7 1_555 1_555
C8_7 C9_7 1_555 1_555
O8_7 Fe10_3 1_555 1_555
C14_7 C15_7 1_555 1_555
C15_7 C16_7 1_555 1_555
Fe5_2 O1_7 1_555 1_555
O1_7 C4_7 1_555 1_555
O2_7 Fe5_2 1_555 1_555
N1_7 O2_7 1_555 1_555
H1_7 N1_7 1_555 1_555
C1_7 C2_7 1_555 1_555
C2_7 H2_7 1_555 1_555
C3_7 C2_7 1_555 1_555
C4_7 N1_7 1_555 1_555
C5_7 C3_7 1_555 1_555
H3_7 C5_7 1_555 1_555
O5_7 C13_7 1_555 1_555
O6_7 N3_7 1_555 1_555
N3_7 H7_7 1_555 1_555
C11_7 C1_7 1_555 1_555
H8_7 C11_7 1_555 1_555
C12_7 C5_7 1_555 1_555
C13_7 N3_7 1_555 1_555
O9_7 Fe5_2 1_555 1_555
O10_7 Fe5_2 1_555 1_555
N5_7 O10_7 1_555 1_555
H11_7 N5_7 1_555 1_555
C17_7 C18_7 1_555 1_555
C18_7 H12_7 1_555 1_555
C19_7 C18_7 1_555 1_555
C20_7 O9_7 1_555 1_555
C21_7 C19_7 1_555 1_555
H13_7 C21_7 1_555 1_555
O13_7 C29_7 1_555 1_555
O14_7 N7_7 1_555 1_555
N7_7 H17_7 1_555 1_555
C27_7 C17_7 1_555 1_555
H18_7 C27_7 1_555 1_555
C28_7 C21_7 1_555 1_555
C29_7 N7_7 1_555 1_555
Fe9_2 O5_7 1_555 1_555
Fe7_2 O13_7 1_555 1_555
C3_7 C4_7 1_555 1_555
O6_7 Fe9_2 1_555 1_555
C11_7 C12_7 1_555 1_555
C12_7 C13_7 1_555 1_555
N5_7 C20_7 1_555 1_555
C19_7 C20_7 1_555 1_555
O14_7 Fe7_2 1_555 1_555
C27_7 C28_7 1_555 1_555
C28_7 C29_7 1_555 1_555
O27_2 C25_7 1_555 1_555
O33_2 N6_7 1_555 1_555
N6_7 H14_7 1_555 1_555
C23_7 C22_7 1_555 1_555
H15_7 C23_7 1_555 1_555
C24_7 C23_7 1_555 1_555
C25_7 N6_7 1_555 1_555
C26_7 C24_7 1_555 1_555
H16_7 C26_7 1_555 1_555
O15_7 C32_7 1_555 1_555
O16_7 N8_7 1_555 1_555
N8_7 H19_7 1_555 1_555
C30_7 C22_7 1_555 1_555
H20_7 C30_7 1_555 1_555
C31_7 C26_7 1_555 1_555
C32_7 N8_7 1_555 1_555
Fe8_3 O15_7 1_555 1_555
C24_7 C25_7 1_555 1_555
O16_7 Fe8_3 1_555 1_555
C30_7 C31_7 1_555 1_555
C31_7 C32_7 1_555 1_555
Fe5 O1_8 1_555 1_555
O1_8 C4_8 1_555 1_555
O2_8 Fe5 1_555 1_555
N1_8 O2_8 1_555 1_555
H1_8 N1_8 1_555 1_555
C1_8 C2_8 1_555 1_555
C2_8 H2_8 1_555 1_555
C3_8 C2_8 1_555 1_555
C4_8 N1_8 1_555 1_555
C5_8 C3_8 1_555 1_555
H3_8 C5_8 1_555 1_555
O5_8 C13_8 1_555 1_555
O6_8 N3_8 1_555 1_555
N3_8 H7_8 1_555 1_555
C11_8 C1_8 1_555 1_555
H8_8 C11_8 1_555 1_555
C12_8 C5_8 1_555 1_555
C13_8 N3_8 1_555 1_555
O9_8 Fe5 1_555 1_555
O10_8 Fe5 1_555 1_555
N5_8 O10_8 1_555 1_555
H11_8 N5_8 1_555 1_555
C17_8 C18_8 1_555 1_555
C18_8 H12_8 1_555 1_555
C19_8 C18_8 1_555 1_555
C20_8 O9_8 1_555 1_555
C21_8 C19_8 1_555 1_555
H13_8 C21_8 1_555 1_555
O13_8 C29_8 1_555 1_555
O14_8 N7_8 1_555 1_555
N7_8 H17_8 1_555 1_555
C27_8 C17_8 1_555 1_555
H18_8 C27_8 1_555 1_555
C28_8 C21_8 1_555 1_555
C29_8 N7_8 1_555 1_555
Fe9 O5_8 1_555 1_555
Fe7 O13_8 1_555 1_555
C3_8 C4_8 1_555 1_555
O6_8 Fe9 1_555 1_555
C11_8 C12_8 1_555 1_555
C12_8 C13_8 1_555 1_555
N5_8 C20_8 1_555 1_555
C19_8 C20_8 1_555 1_555
O14_8 Fe7 1_555 1_555
C27_8 C28_8 1_555 1_555
C28_8 C29_8 1_555 1_555
O28_2 C25_8 1_555 1_555
O34_2 N6_8 1_555 1_555
N6_8 H14_8 1_555 1_555
C23_8 C22_8 1_555 1_555
H15_8 C23_8 1_555 1_555
C24_8 C23_8 1_555 1_555
C25_8 N6_8 1_555 1_555
C26_8 C24_8 1_555 1_555
H16_8 C26_8 1_555 1_555
O15_8 C32_8 1_555 1_555
O16_8 N8_8 1_555 1_555
N8_8 H19_8 1_555 1_555
C30_8 C22_8 1_555 1_555
H20_8 C30_8 1_555 1_555
C31_8 C26_8 1_555 1_555
C32_8 N8_8 1_555 1_555
Fe8_4 O15_8 1_555 1_555
C24_8 C25_8 1_555 1_555
O16_8 Fe8_4 1_555 1_555
C30_8 C31_8 1_555 1_555
C31_8 C32_8 1_555 1_555
O30_3 C9_8 1_555 1_555
O36_3 N2_8 1_555 1_555
N2_8 H4_8 1_555 1_555
C7_8 C6_8 1_555 1_555
H5_8 C7_8 1_555 1_555
C8_8 C7_8 1_555 1_555
C9_8 N2_8 1_555 1_555
C10_8 C8_8 1_555 1_555
H6_8 C10_8 1_555 1_555
O7_8 C16_8 1_555 1_555
O8_8 N4_8 1_555 1_555
N4_8 H9_8 1_555 1_555
C14_8 C6_8 1_555 1_555
H10_8 C14_8 1_555 1_555
C15_8 C10_8 1_555 1_555
C16_8 N4_8 1_555 1_555
Fe10_4 O7_8 1_555 1_555
C8_8 C9_8 1_555 1_555
O8_8 Fe10_4 1_555 1_555
C14_8 C15_8 1_555 1_555
C15_8 C16_8 1_555 1_555
O25_3 Fe8_2 1_555 1_555
O31_3 Fe8_2 1_555 1_555
O17_5 Fe7_3 1_555 1_555
O18_5 Fe7_3 1_555 1_555
N9_5 O18_5 1_555 1_555
H21_5 N9_5 1_555 1_555
C33_5 C34_5 1_555 1_555
C34_5 H22_5 1_555 1_555
C35_5 C34_5 1_555 1_555
C36_5 O17_5 1_555 1_555
C37_5 C35_5 1_555 1_555
H23_5 C37_5 1_555 1_555
O21_5 C45_5 1_555 1_555
O22_5 N11_5 1_555 1_555
N11_5 H27_5 1_555 1_555
C43_5 C33_5 1_555 1_555
H28_5 C43_5 1_555 1_555
C44_5 C37_5 1_555 1_555
C45_5 N11_5 1_555 1_555
Fe9_3 O21_5 1_555 1_555
O26_2 Fe8_3 1_555 1_555
O32_2 Fe8_3 1_555 1_555
N9_5 C36_5 1_555 1_555
C35_5 C36_5 1_555 1_555
O22_5 Fe9_3 1_555 1_555
C43_5 C44_5 1_555 1_555
C44_5 C45_5 1_555 1_555
O19_2 C41_5 1_555 1_555
O20_2 N10_5 1_555 1_555
N10_5 H24_5 1_555 1_555
C39_5 C38_5 1_555 1_555
H25_5 C39_5 1_555 1_555
C40_5 C39_5 1_555 1_555
C41_5 N10_5 1_555 1_555
C42_5 C40_5 1_555 1_555
H26_5 C42_5 1_555 1_555
O23_5 C48_5 1_555 1_555
O24_5 N12_5 1_555 1_555
N12_5 H29_5 1_555 1_555
C46_5 C38_5 1_555 1_555
H30_5 C46_5 1_555 1_555
C47_5 C42_5 1_555 1_555
C48_5 N12_5 1_555 1_555
Fe8_4 O19_2 1_555 1_555
Fe10 O23_5 1_555 1_555
O20_2 Fe8_4 1_555 1_555
C40_5 C41_5 1_555 1_555
O24_5 Fe10 1_555 1_555
C46_5 C47_5 1_555 1_555
C47_5 C48_5 1_555 1_555
O26_2 C41_6 1_555 1_555
O32_2 N10_6 1_555 1_555
N10_6 H24_6 1_555 1_555
C39_6 C38_6 1_555 1_555
H25_6 C39_6 1_555 1_555
C40_6 C39_6 1_555 1_555
C41_6 N10_6 1_555 1_555
C42_6 C40_6 1_555 1_555
H26_6 C42_6 1_555 1_555
O23_6 C48_6 1_555 1_555
O24_6 N12_6 1_555 1_555
N12_6 H29_6 1_555 1_555
C46_6 C38_6 1_555 1_555
H30_6 C46_6 1_555 1_555
C47_6 C42_6 1_555 1_555
C48_6 N12_6 1_555 1_555
Fe10_2 O23_6 1_555 1_555
C40_6 C41_6 1_555 1_555
O24_6 Fe10_2 1_555 1_555
C46_6 C47_6 1_555 1_555
C47_6 C48_6 1_555 1_555
O25_4 Fe8 1_555 1_555
O31_4 Fe8 1_555 1_555
O17_6 Fe7_4 1_555 1_555
O18_6 Fe7_4 1_555 1_555
N9_6 O18_6 1_555 1_555
H21_6 N9_6 1_555 1_555
C33_6 C34_6 1_555 1_555
C34_6 H22_6 1_555 1_555
C35_6 C34_6 1_555 1_555
C36_6 O17_6 1_555 1_555
C37_6 C35_6 1_555 1_555
H23_6 C37_6 1_555 1_555
O21_6 C45_6 1_555 1_555
O22_6 N11_6 1_555 1_555
N11_6 H27_6 1_555 1_555
C43_6 C33_6 1_555 1_555
H28_6 C43_6 1_555 1_555
C44_6 C37_6 1_555 1_555
C45_6 N11_6 1_555 1_555
Fe9_4 O21_6 1_555 1_555
N9_6 C36_6 1_555 1_555
C35_6 C36_6 1_555 1_555
O22_6 Fe9_4 1_555 1_555
C43_6 C44_6 1_555 1_555
C44_6 C45_6 1_555 1_555
O25_3 C41_7 1_555 1_555
O31_3 N10_7 1_555 1_555
N10_7 H24_7 1_555 1_555
C39_7 C38_7 1_555 1_555
H25_7 C39_7 1_555 1_555
C40_7 C39_7 1_555 1_555
C41_7 N10_7 1_555 1_555
C42_7 C40_7 1_555 1_555
H26_7 C42_7 1_555 1_555
O23_7 C48_7 1_555 1_555
O24_7 N12_7 1_555 1_555
N12_7 H29_7 1_555 1_555
C46_7 C38_7 1_555 1_555
H30_7 C46_7 1_555 1_555
C47_7 C42_7 1_555 1_555
C48_7 N12_7 1_555 1_555
Fe10_3 O23_7 1_555 1_555
C40_7 C41_7 1_555 1_555
O24_7 Fe10_3 1_555 1_555
C46_7 C47_7 1_555 1_555
C47_7 C48_7 1_555 1_555
O17_7 Fe7 1_555 1_555
O18_7 Fe7 1_555 1_555
N9_7 O18_7 1_555 1_555
H21_7 N9_7 1_555 1_555
C33_7 C34_7 1_555 1_555
C34_7 H22_7 1_555 1_555
C35_7 C34_7 1_555 1_555
C36_7 O17_7 1_555 1_555
C37_7 C35_7 1_555 1_555
H23_7 C37_7 1_555 1_555
O21_7 C45_7 1_555 1_555
O22_7 N11_7 1_555 1_555
N11_7 H27_7 1_555 1_555
C43_7 C33_7 1_555 1_555
H28_7 C43_7 1_555 1_555
C44_7 C37_7 1_555 1_555
C45_7 N11_7 1_555 1_555
Fe9 O21_7 1_555 1_555
N9_7 C36_7 1_555 1_555
C35_7 C36_7 1_555 1_555
O22_7 Fe9 1_555 1_555
C43_7 C44_7 1_555 1_555
C44_7 C45_7 1_555 1_555
O17_8 Fe7_2 1_555 1_555
O18_8 Fe7_2 1_555 1_555
N9_8 O18_8 1_555 1_555
H21_8 N9_8 1_555 1_555
C33_8 C34_8 1_555 1_555
C34_8 H22_8 1_555 1_555
C35_8 C34_8 1_555 1_555
C36_8 O17_8 1_555 1_555
C37_8 C35_8 1_555 1_555
H23_8 C37_8 1_555 1_555
O21_8 C45_8 1_555 1_555
O22_8 N11_8 1_555 1_555
N11_8 H27_8 1_555 1_555
C43_8 C33_8 1_555 1_555
H28_8 C43_8 1_555 1_555
C44_8 C37_8 1_555 1_555
C45_8 N11_8 1_555 1_555
Fe9_2 O21_8 1_555 1_555
N9_8 C36_8 1_555 1_555
C35_8 C36_8 1_555 1_555
O22_8 Fe9_2 1_555 1_555
C43_8 C44_8 1_555 1_555
C44_8 C45_8 1_555 1_555
O25_4 C41_8 1_555 1_555
O31_4 N10_8 1_555 1_555
N10_8 H24_8 1_555 1_555
C39_8 C38_8 1_555 1_555
H25_8 C39_8 1_555 1_555
C40_8 C39_8 1_555 1_555
C41_8 N10_8 1_555 1_555
C42_8 C40_8 1_555 1_555
H26_8 C42_8 1_555 1_555
O23_8 C48_8 1_555 1_555
O24_8 N12_8 1_555 1_555
N12_8 H29_8 1_555 1_555
C46_8 C38_8 1_555 1_555
H30_8 C46_8 1_555 1_555
C47_8 C42_8 1_555 1_555
C48_8 N12_8 1_555 1_555
Fe10_4 O23_8 1_555 1_555
C40_8 C41_8 1_555 1_555
O24_8 Fe10_4 1_555 1_555
C46_8 C47_8 1_555 1_555
C47_8 C48_8 1_555 1_555

#END
