
###############################################################################
#
# This file contains modified crystal structure data generated from the
# MOF subset of the Cambridge Structural Database (CSD) v543 
# hosted by the Cambridge Crystallographic Data Centre (CCDC).
#
# This work is licensed under the Creative Commons
# Attribution-NonCommercial-ShareAlike 4.0 International License.
# To view a copy of this license, visit
# http://creativecommons.org/licenses/by-nc-sa/4.0/
# or send a letter to
# Creative Commons, PO Box 1866, Mountain View, CA 94042, USA.
#
# CIF created using the CSD Python API on 29 September 2022
# The structure has been converted into the P1 space group
# The structure has a 3D framework
# The original CSD entry OGUMEL is in the cubic crystal system
# The original CSD entry OGUMEL is in a Sohncke space group
# The framework has been calculated to contain at least 10.0% void space
# The void calculation uses a probe of radius 1.32A, grid spacing 0.4
#
###############################################################################

data_OGUMEL
_chemical_formula_moiety         '(C384 H240 Fe24 N96 O192)n'
_symmetry_cell_setting           triclinic
_symmetry_space_group_name_H-M   'P 1'
_symmetry_Int_Tables_number      1
_space_group_name_Hall           'P 1'
loop_
_symmetry_equiv_pos_site_id
_symmetry_equiv_pos_as_xyz
1 x,y,z
_cell_length_a                   34.4159(19)
_cell_length_b                   34.4159(19)
_cell_length_c                   34.4159(19)
_cell_angle_alpha                90
_cell_angle_beta                 90
_cell_angle_gamma                90
_cell_volume                     40764.1
loop_
_atom_site_label
_atom_site_type_symbol
_atom_site_fract_x
_atom_site_fract_y
_atom_site_fract_z
O11 O 0.80032(6) 0.30380(7) 0.13895(5)
O12 O 0.86513(7) 0.32431(8) 0.10923(7)
N6 N 0.84010(7) 0.30324(9) 0.08764(8)
H14 H 0.845499 0.296535 0.063564
C22 C 0.750000 0.250000 0.02172(10)
C23 C 0.77788(10) 0.26950(11) 0.04232(8)
H15 H 0.797682 0.282991 0.028617
C24 C 0.77804(9) 0.27011(10) 0.08225(8)
C25 C 0.80666(8) 0.29303(9) 0.10463(8)
C26 C 0.750000 0.250000 0.10255(12)
H16 H 0.750000 0.250001 0.130156
O15 O 0.69968(6) 0.19620(7) 0.13895(5)
O16 O 0.63487(7) 0.17569(8) 0.10923(7)
N8 N 0.65990(7) 0.19676(9) 0.08764(8)
H19 H 0.654501 0.203465 0.063564
C30 C 0.72212(10) 0.23050(11) 0.04232(8)
H20 H 0.702318 0.217009 0.028617
C31 C 0.72196(9) 0.22989(10) 0.08225(8)
C32 C 0.69334(8) 0.20697(9) 0.10463(8)
Fe3 Fe 0.84133(2) 0.65867(2) 0.15867(2)
O17 O 0.80380(7) 0.69968(6) 0.13895(5)
O18 O 0.82431(8) 0.63487(7) 0.10923(7)
N9 N 0.80324(9) 0.65990(7) 0.08764(8)
H21 H 0.796535 0.654501 0.063564
C33 C 0.750000 0.750000 0.02172(10)
C34 C 0.76950(11) 0.72212(10) 0.04232(8)
H22 H 0.782991 0.702318 0.028617
C35 C 0.77011(10) 0.72196(9) 0.08225(8)
C36 C 0.79303(9) 0.69334(8) 0.10463(8)
C37 C 0.750000 0.750000 0.10255(12)
H23 H 0.750001 0.750000 0.130156
O21 O 0.69620(7) 0.80032(6) 0.13895(5)
O22 O 0.67569(8) 0.86513(7) 0.10923(7)
N11 N 0.69676(9) 0.84010(7) 0.08764(8)
H27 H 0.703465 0.845499 0.063564
C43 C 0.73050(11) 0.77788(10) 0.04232(8)
H28 H 0.717009 0.797682 0.028617
C44 C 0.72989(10) 0.77804(9) 0.08225(8)
C45 C 0.70697(9) 0.80666(8) 0.10463(8)
Fe4 Fe 0.84133(2) 0.34133(2) 0.15867(2)
Fe5 Fe 0.65867(2) 0.84133(2) 0.15867(2)
Fe7 Fe 0.65867(2) 0.15867(2) 0.15867(2)
O25 O 0.80032(6) 0.63895(5) 0.19620(7)
O26 O 0.80380(7) 0.36105(5) 0.19968(6)
O28 O 0.86105(5) 0.69620(7) 0.19968(6)
O29 O 0.86105(5) 0.30032(6) 0.19620(7)
O31 O 0.86513(7) 0.60923(7) 0.17569(8)
O32 O 0.82431(8) 0.39077(7) 0.13487(7)
O34 O 0.89077(7) 0.67569(8) 0.13487(7)
O35 O 0.89077(7) 0.36513(7) 0.17569(8)
Fe1 Fe 0.84133(2) 0.34133(2) 0.84133(2)
O1 O 0.80032(6) 0.36105(5) 0.80380(7)
O2 O 0.86513(7) 0.39077(7) 0.82431(8)
N1 N 0.84010(7) 0.41236(8) 0.80324(9)
H1 H 0.845499 0.436436 0.796535
C1 C 0.750000 0.47828(10) 0.750000
C2 C 0.77788(10) 0.45768(8) 0.76950(11)
H2 H 0.797682 0.471383 0.782991
C3 C 0.77804(9) 0.41775(8) 0.77011(10)
C4 C 0.80666(8) 0.39537(8) 0.79303(9)
C5 C 0.750000 0.39745(12) 0.750000
H3 H 0.750000 0.369844 0.750001
O3 O 0.80380(7) 0.63895(5) 0.80032(6)
O4 O 0.82431(8) 0.60923(7) 0.86513(7)
N2 N 0.80324(9) 0.58764(8) 0.84010(7)
H4 H 0.796535 0.563564 0.845499
C6 C 0.750000 0.52172(10) 0.750000
C7 C 0.76950(11) 0.54232(8) 0.77788(10)
H5 H 0.782991 0.528617 0.797682
C8 C 0.77011(10) 0.58225(8) 0.77804(9)
C9 C 0.79303(9) 0.60463(8) 0.80666(8)
C10 C 0.750000 0.60255(12) 0.750000
H6 H 0.750001 0.630156 0.750000
O5 O 0.69968(6) 0.36105(5) 0.69620(7)
O6 O 0.63487(7) 0.39077(7) 0.67569(8)
N3 N 0.65990(7) 0.41236(8) 0.69676(9)
H7 H 0.654501 0.436436 0.703465
C11 C 0.72212(10) 0.45768(8) 0.73050(11)
H8 H 0.702318 0.471383 0.717009
C12 C 0.72196(9) 0.41775(8) 0.72989(10)
C13 C 0.69334(8) 0.39537(8) 0.70697(9)
O7 O 0.69620(7) 0.63895(5) 0.69968(6)
O8 O 0.67569(8) 0.60923(7) 0.63487(7)
N4 N 0.69676(9) 0.58764(8) 0.65990(7)
H9 H 0.703465 0.563564 0.654501
C14 C 0.73050(11) 0.54232(8) 0.72212(10)
H10 H 0.717009 0.528617 0.702318
C15 C 0.72989(10) 0.58225(8) 0.72196(9)
C16 C 0.70697(9) 0.60463(8) 0.69334(8)
Fe2 Fe 0.84133(2) 0.65867(2) 0.84133(2)
O9 O 0.80380(7) 0.30032(6) 0.86105(5)
O10 O 0.82431(8) 0.36513(7) 0.89077(7)
N5 N 0.80324(9) 0.34010(7) 0.91236(8)
H11 H 0.796535 0.345499 0.936436
C17 C 0.750000 0.250000 0.97828(10)
C18 C 0.76950(11) 0.27788(10) 0.95768(8)
H12 H 0.782991 0.297682 0.971383
C19 C 0.77011(10) 0.27804(9) 0.91775(8)
C20 C 0.79303(9) 0.30666(8) 0.89537(8)
C21 C 0.750000 0.250000 0.89745(12)
H13 H 0.750001 0.250000 0.869844
O13 O 0.69620(7) 0.19968(6) 0.86105(5)
O14 O 0.67569(8) 0.13487(7) 0.89077(7)
N7 N 0.69676(9) 0.15990(7) 0.91236(8)
H17 H 0.703465 0.154501 0.936436
C27 C 0.73050(11) 0.22212(10) 0.95768(8)
H18 H 0.717009 0.202318 0.971383
C28 C 0.72989(10) 0.22196(9) 0.91775(8)
C29 C 0.70697(9) 0.19334(8) 0.89537(8)
O19 O 0.80032(6) 0.69620(7) 0.86105(5)
O20 O 0.86513(7) 0.67569(8) 0.89077(7)
N10 N 0.84010(7) 0.69676(9) 0.91236(8)
H24 H 0.845499 0.703465 0.936436
C38 C 0.750000 0.750000 0.97828(10)
C39 C 0.77788(10) 0.73050(11) 0.95768(8)
H25 H 0.797682 0.717009 0.971383
C40 C 0.77804(9) 0.72989(10) 0.91775(8)
C41 C 0.80666(8) 0.70697(9) 0.89537(8)
C42 C 0.750000 0.750000 0.89745(12)
H26 H 0.750000 0.749999 0.869844
O23 O 0.69968(6) 0.80380(7) 0.86105(5)
O24 O 0.63487(7) 0.82431(8) 0.89077(7)
N12 N 0.65990(7) 0.80324(9) 0.91236(8)
H29 H 0.654501 0.796535 0.936436
C46 C 0.72212(10) 0.76950(11) 0.95768(8)
H30 H 0.702318 0.782991 0.971383
C47 C 0.72196(9) 0.77011(10) 0.91775(8)
C48 C 0.69334(8) 0.79303(9) 0.89537(8)
Fe6 Fe 0.65867(2) 0.15867(2) 0.84133(2)
Fe8 Fe 0.65867(2) 0.84133(2) 0.84133(2)
Fe9 Fe 0.65867(2) 0.34133(2) 0.65867(2)
Fe10 Fe 0.65867(2) 0.65867(2) 0.65867(2)
O27 O 0.86105(5) 0.30380(7) 0.80032(6)
O30 O 0.86105(5) 0.69968(6) 0.80380(7)
O33 O 0.89077(7) 0.32431(8) 0.86513(7)
O36 O 0.89077(7) 0.63487(7) 0.82431(8)
O11_2 O 0.19968(6) 0.69620(7) 0.13895(5)
O12_2 O 0.13487(7) 0.67569(8) 0.10923(7)
N6_2 N 0.15990(7) 0.69676(9) 0.08764(8)
H14_2 H 0.154501 0.703465 0.063564
C22_2 C 0.250000 0.750000 0.02172(10)
C23_2 C 0.22212(10) 0.73050(11) 0.04232(8)
H15_2 H 0.202318 0.717009 0.028617
C24_2 C 0.22196(9) 0.72989(10) 0.08225(8)
C25_2 C 0.19334(8) 0.70697(9) 0.10463(8)
C26_2 C 0.250000 0.750000 0.10255(12)
H16_2 H 0.250000 0.749999 0.130156
O15_2 O 0.30032(6) 0.80380(7) 0.13895(5)
O16_2 O 0.36513(7) 0.82431(8) 0.10923(7)
N8_2 N 0.34010(7) 0.80324(9) 0.08764(8)
H19_2 H 0.345499 0.796535 0.063564
C30_2 C 0.27788(10) 0.76950(11) 0.04232(8)
H20_2 H 0.297682 0.782991 0.028617
C31_2 C 0.27804(9) 0.77011(10) 0.08225(8)
C32_2 C 0.30666(8) 0.79303(9) 0.10463(8)
Fe3_2 Fe 0.15867(2) 0.34133(2) 0.15867(2)
O17_2 O 0.19620(7) 0.30032(6) 0.13895(5)
O18_2 O 0.17569(8) 0.36513(7) 0.10923(7)
N9_2 N 0.19676(9) 0.34010(7) 0.08764(8)
H21_2 H 0.203465 0.345499 0.063564
C33_2 C 0.250000 0.250000 0.02172(10)
C34_2 C 0.23050(11) 0.27788(10) 0.04232(8)
H22_2 H 0.217009 0.297682 0.028617
C35_2 C 0.22989(10) 0.27804(9) 0.08225(8)
C36_2 C 0.20697(9) 0.30666(8) 0.10463(8)
C37_2 C 0.250000 0.250000 0.10255(12)
H23_2 H 0.249999 0.250000 0.130156
O21_2 O 0.30380(7) 0.19968(6) 0.13895(5)
O22_2 O 0.32431(8) 0.13487(7) 0.10923(7)
N11_2 N 0.30324(9) 0.15990(7) 0.08764(8)
H27_2 H 0.296535 0.154501 0.063564
C43_2 C 0.26950(11) 0.22212(10) 0.04232(8)
H28_2 H 0.282991 0.202318 0.028617
C44_2 C 0.27011(10) 0.22196(9) 0.08225(8)
C45_2 C 0.29303(9) 0.19334(8) 0.10463(8)
Fe4_2 Fe 0.15867(2) 0.65867(2) 0.15867(2)
Fe5_2 Fe 0.34133(2) 0.15867(2) 0.15867(2)
Fe7_2 Fe 0.34133(2) 0.84133(2) 0.15867(2)
O25_2 O 0.19968(6) 0.36105(5) 0.19620(7)
O26_2 O 0.19620(7) 0.63895(5) 0.19968(6)
O28_2 O 0.13895(5) 0.30380(7) 0.19968(6)
O29_2 O 0.13895(5) 0.69968(6) 0.19620(7)
O31_2 O 0.13487(7) 0.39077(7) 0.17569(8)
O32_2 O 0.17569(8) 0.60923(7) 0.13487(7)
O34_2 O 0.10923(7) 0.32431(8) 0.13487(7)
O35_2 O 0.10923(7) 0.63487(7) 0.17569(8)
Fe1_2 Fe 0.15867(2) 0.65867(2) 0.84133(2)
O1_2 O 0.19968(6) 0.63895(5) 0.80380(7)
O2_2 O 0.13487(7) 0.60923(7) 0.82431(8)
N1_2 N 0.15990(7) 0.58764(8) 0.80324(9)
H1_2 H 0.154501 0.563564 0.796535
C1_2 C 0.250000 0.52172(10) 0.750000
C2_2 C 0.22212(10) 0.54232(8) 0.76950(11)
H2_2 H 0.202318 0.528617 0.782991
C3_2 C 0.22196(9) 0.58225(8) 0.77011(10)
C4_2 C 0.19334(8) 0.60463(8) 0.79303(9)
C5_2 C 0.250000 0.60255(12) 0.750000
H3_2 H 0.250000 0.630156 0.750001
O3_2 O 0.19620(7) 0.36105(5) 0.80032(6)
O4_2 O 0.17569(8) 0.39077(7) 0.86513(7)
N2_2 N 0.19676(9) 0.41236(8) 0.84010(7)
H4_2 H 0.203465 0.436436 0.845499
C6_2 C 0.250000 0.47828(10) 0.750000
C7_2 C 0.23050(11) 0.45768(8) 0.77788(10)
H5_2 H 0.217009 0.471383 0.797682
C8_2 C 0.22989(10) 0.41775(8) 0.77804(9)
C9_2 C 0.20697(9) 0.39537(8) 0.80666(8)
C10_2 C 0.250000 0.39745(12) 0.750000
H6_2 H 0.249999 0.369844 0.750000
O5_2 O 0.30032(6) 0.63895(5) 0.69620(7)
O6_2 O 0.36513(7) 0.60923(7) 0.67569(8)
N3_2 N 0.34010(7) 0.58764(8) 0.69676(9)
H7_2 H 0.345499 0.563564 0.703465
C11_2 C 0.27788(10) 0.54232(8) 0.73050(11)
H8_2 H 0.297682 0.528617 0.717009
C12_2 C 0.27804(9) 0.58225(8) 0.72989(10)
C13_2 C 0.30666(8) 0.60463(8) 0.70697(9)
O7_2 O 0.30380(7) 0.36105(5) 0.69968(6)
O8_2 O 0.32431(8) 0.39077(7) 0.63487(7)
N4_2 N 0.30324(9) 0.41236(8) 0.65990(7)
H9_2 H 0.296535 0.436436 0.654501
C14_2 C 0.26950(11) 0.45768(8) 0.72212(10)
H10_2 H 0.282991 0.471383 0.702318
C15_2 C 0.27011(10) 0.41775(8) 0.72196(9)
C16_2 C 0.29303(9) 0.39537(8) 0.69334(8)
Fe2_2 Fe 0.15867(2) 0.34133(2) 0.84133(2)
O9_2 O 0.19620(7) 0.69968(6) 0.86105(5)
O10_2 O 0.17569(8) 0.63487(7) 0.89077(7)
N5_2 N 0.19676(9) 0.65990(7) 0.91236(8)
H11_2 H 0.203465 0.654501 0.936436
C17_2 C 0.250000 0.750000 0.97828(10)
C18_2 C 0.23050(11) 0.72212(10) 0.95768(8)
H12_2 H 0.217009 0.702318 0.971383
C19_2 C 0.22989(10) 0.72196(9) 0.91775(8)
C20_2 C 0.20697(9) 0.69334(8) 0.89537(8)
C21_2 C 0.250000 0.750000 0.89745(12)
H13_2 H 0.249999 0.750000 0.869844
O13_2 O 0.30380(7) 0.80032(6) 0.86105(5)
O14_2 O 0.32431(8) 0.86513(7) 0.89077(7)
N7_2 N 0.30324(9) 0.84010(7) 0.91236(8)
H17_2 H 0.296535 0.845499 0.936436
C27_2 C 0.26950(11) 0.77788(10) 0.95768(8)
H18_2 H 0.282991 0.797682 0.971383
C28_2 C 0.27011(10) 0.77804(9) 0.91775(8)
C29_2 C 0.29303(9) 0.80666(8) 0.89537(8)
O19_2 O 0.19968(6) 0.30380(7) 0.86105(5)
O20_2 O 0.13487(7) 0.32431(8) 0.89077(7)
N10_2 N 0.15990(7) 0.30324(9) 0.91236(8)
H24_2 H 0.154501 0.296535 0.936436
C38_2 C 0.250000 0.250000 0.97828(10)
C39_2 C 0.22212(10) 0.26950(11) 0.95768(8)
H25_2 H 0.202318 0.282991 0.971383
C40_2 C 0.22196(9) 0.27011(10) 0.91775(8)
C41_2 C 0.19334(8) 0.29303(9) 0.89537(8)
C42_2 C 0.250000 0.250000 0.89745(12)
H26_2 H 0.250000 0.250001 0.869844
O23_2 O 0.30032(6) 0.19620(7) 0.86105(5)
O24_2 O 0.36513(7) 0.17569(8) 0.89077(7)
N12_2 N 0.34010(7) 0.19676(9) 0.91236(8)
H29_2 H 0.345499 0.203465 0.936436
C46_2 C 0.27788(10) 0.23050(11) 0.95768(8)
H30_2 H 0.297682 0.217009 0.971383
C47_2 C 0.27804(9) 0.22989(10) 0.91775(8)
C48_2 C 0.30666(8) 0.20697(9) 0.89537(8)
Fe6_2 Fe 0.34133(2) 0.84133(2) 0.84133(2)
Fe8_2 Fe 0.34133(2) 0.15867(2) 0.84133(2)
Fe9_2 Fe 0.34133(2) 0.65867(2) 0.65867(2)
Fe10_2 Fe 0.34133(2) 0.34133(2) 0.65867(2)
O27_2 O 0.13895(5) 0.69620(7) 0.80032(6)
O30_2 O 0.13895(5) 0.30032(6) 0.80380(7)
O33_2 O 0.10923(7) 0.67569(8) 0.86513(7)
O36_2 O 0.10923(7) 0.36513(7) 0.82431(8)
N1_3 N 0.15990(7) 0.41236(8) 0.19676(9)
H1_3 H 0.154501 0.436436 0.203465
C1_3 C 0.250000 0.47828(10) 0.250000
C2_3 C 0.22212(10) 0.45768(8) 0.23050(11)
H2_3 H 0.202318 0.471383 0.217009
C3_3 C 0.22196(9) 0.41775(8) 0.22989(10)
C4_3 C 0.19334(8) 0.39537(8) 0.20697(9)
C5_3 C 0.250000 0.39745(12) 0.250000
H3_3 H 0.250000 0.369844 0.249999
N2_3 N 0.19676(9) 0.58764(8) 0.15990(7)
H4_3 H 0.203465 0.563564 0.154501
C6_3 C 0.250000 0.52172(10) 0.250000
C7_3 C 0.23050(11) 0.54232(8) 0.22212(10)
H5_3 H 0.217009 0.528617 0.202318
C8_3 C 0.22989(10) 0.58225(8) 0.22196(9)
C9_3 C 0.20697(9) 0.60463(8) 0.19334(8)
C10_3 C 0.250000 0.60255(12) 0.250000
H6_3 H 0.249999 0.630156 0.250000
O5_3 O 0.30032(6) 0.36105(5) 0.30380(7)
O6_3 O 0.36513(7) 0.39077(7) 0.32431(8)
N3_3 N 0.34010(7) 0.41236(8) 0.30324(9)
H7_3 H 0.345499 0.436436 0.296535
C11_3 C 0.27788(10) 0.45768(8) 0.26950(11)
H8_3 H 0.297682 0.471383 0.282991
C12_3 C 0.27804(9) 0.41775(8) 0.27011(10)
C13_3 C 0.30666(8) 0.39537(8) 0.29303(9)
O7_3 O 0.30380(7) 0.63895(5) 0.30032(6)
O8_3 O 0.32431(8) 0.60923(7) 0.36513(7)
N4_3 N 0.30324(9) 0.58764(8) 0.34010(7)
H9_3 H 0.296535 0.563564 0.345499
C14_3 C 0.26950(11) 0.54232(8) 0.27788(10)
H10_3 H 0.282991 0.528617 0.297682
C15_3 C 0.27011(10) 0.58225(8) 0.27804(9)
C16_3 C 0.29303(9) 0.60463(8) 0.30666(8)
Fe9_3 Fe 0.34133(2) 0.34133(2) 0.34133(2)
Fe10_3 Fe 0.34133(2) 0.65867(2) 0.34133(2)
N1_4 N 0.84010(7) 0.58764(8) 0.19676(9)
H1_4 H 0.845499 0.563564 0.203465
C1_4 C 0.750000 0.52172(10) 0.250000
C2_4 C 0.77788(10) 0.54232(8) 0.23050(11)
H2_4 H 0.797682 0.528617 0.217009
C3_4 C 0.77804(9) 0.58225(8) 0.22989(10)
C4_4 C 0.80666(8) 0.60463(8) 0.20697(9)
C5_4 C 0.750000 0.60255(12) 0.250000
H3_4 H 0.750000 0.630156 0.249999
N2_4 N 0.80324(9) 0.41236(8) 0.15990(7)
H4_4 H 0.796535 0.436436 0.154501
C6_4 C 0.750000 0.47828(10) 0.250000
C7_4 C 0.76950(11) 0.45768(8) 0.22212(10)
H5_4 H 0.782991 0.471383 0.202318
C8_4 C 0.77011(10) 0.41775(8) 0.22196(9)
C9_4 C 0.79303(9) 0.39537(8) 0.19334(8)
C10_4 C 0.750000 0.39745(12) 0.250000
H6_4 H 0.750001 0.369844 0.250000
O5_4 O 0.69968(6) 0.63895(5) 0.30380(7)
O6_4 O 0.63487(7) 0.60923(7) 0.32431(8)
N3_4 N 0.65990(7) 0.58764(8) 0.30324(9)
H7_4 H 0.654501 0.563564 0.296535
C11_4 C 0.72212(10) 0.54232(8) 0.26950(11)
H8_4 H 0.702318 0.528617 0.282991
C12_4 C 0.72196(9) 0.58225(8) 0.27011(10)
C13_4 C 0.69334(8) 0.60463(8) 0.29303(9)
O7_4 O 0.69620(7) 0.36105(5) 0.30032(6)
O8_4 O 0.67569(8) 0.39077(7) 0.36513(7)
N4_4 N 0.69676(9) 0.41236(8) 0.34010(7)
H9_4 H 0.703465 0.436436 0.345499
C14_4 C 0.73050(11) 0.45768(8) 0.27788(10)
H10_4 H 0.717009 0.471383 0.297682
C15_4 C 0.72989(10) 0.41775(8) 0.27804(9)
C16_4 C 0.70697(9) 0.39537(8) 0.30666(8)
Fe9_4 Fe 0.65867(2) 0.65867(2) 0.34133(2)
Fe10_4 Fe 0.65867(2) 0.34133(2) 0.34133(2)
O11_3 O 0.13895(5) 0.80032(6) 0.30380(7)
O12_3 O 0.10923(7) 0.86513(7) 0.32431(8)
N6_3 N 0.08764(8) 0.84010(7) 0.30324(9)
H14_3 H 0.063564 0.845499 0.296535
C22_3 C 0.02172(10) 0.750000 0.250000
C23_3 C 0.04232(8) 0.77788(10) 0.26950(11)
H15_3 H 0.028617 0.797682 0.282991
C24_3 C 0.08225(8) 0.77804(9) 0.27011(10)
C25_3 C 0.10463(8) 0.80666(8) 0.29303(9)
C26_3 C 0.10255(12) 0.750000 0.250000
H16_3 H 0.130156 0.750000 0.250001
N8_3 N 0.08764(8) 0.65990(7) 0.19676(9)
H19_3 H 0.063564 0.654501 0.203465
C30_3 C 0.04232(8) 0.72212(10) 0.23050(11)
H20_3 H 0.028617 0.702318 0.217009
C31_3 C 0.08225(8) 0.72196(9) 0.22989(10)
C32_3 C 0.10463(8) 0.69334(8) 0.20697(9)
Fe3_3 Fe 0.15867(2) 0.84133(2) 0.65867(2)
O17_3 O 0.13895(5) 0.80380(7) 0.69968(6)
O18_3 O 0.10923(7) 0.82431(8) 0.63487(7)
N9_3 N 0.08764(8) 0.80324(9) 0.65990(7)
H21_3 H 0.063564 0.796535 0.654501
C33_3 C 0.02172(10) 0.750000 0.750000
C34_3 C 0.04232(8) 0.76950(11) 0.72212(10)
H22_3 H 0.028617 0.782991 0.702318
C35_3 C 0.08225(8) 0.77011(10) 0.72196(9)
C36_3 C 0.10463(8) 0.79303(9) 0.69334(8)
C37_3 C 0.10255(12) 0.750000 0.750000
H23_3 H 0.130156 0.750001 0.750000
N11_3 N 0.08764(8) 0.69676(9) 0.84010(7)
H27_3 H 0.063564 0.703465 0.845499
C43_3 C 0.04232(8) 0.73050(11) 0.77788(10)
H28_3 H 0.028617 0.717009 0.797682
C44_3 C 0.08225(8) 0.72989(10) 0.77804(9)
C45_3 C 0.10463(8) 0.70697(9) 0.80666(8)
Fe4_3 Fe 0.15867(2) 0.84133(2) 0.34133(2)
O25_3 O 0.19620(7) 0.80032(6) 0.63895(5)
O26_3 O 0.19968(6) 0.80380(7) 0.36105(5)
O28_3 O 0.19968(6) 0.86105(5) 0.69620(7)
O29_3 O 0.19620(7) 0.86105(5) 0.30032(6)
O31_3 O 0.17569(8) 0.86513(7) 0.60923(7)
O32_3 O 0.13487(7) 0.82431(8) 0.39077(7)
O34_3 O 0.13487(7) 0.89077(7) 0.67569(8)
O35_3 O 0.17569(8) 0.89077(7) 0.36513(7)
Fe1_3 Fe 0.84133(2) 0.84133(2) 0.34133(2)
O1_3 O 0.80380(7) 0.80032(6) 0.36105(5)
O2_3 O 0.82431(8) 0.86513(7) 0.39077(7)
N1_5 N 0.80324(9) 0.84010(7) 0.41236(8)
H1_5 H 0.796535 0.845499 0.436436
C1_5 C 0.750000 0.750000 0.47828(10)
C2_5 C 0.76950(11) 0.77788(10) 0.45768(8)
H2_5 H 0.782991 0.797682 0.471383
C3_5 C 0.77011(10) 0.77804(9) 0.41775(8)
C4_5 C 0.79303(9) 0.80666(8) 0.39537(8)
C5_5 C 0.750000 0.750000 0.39745(12)
H3_5 H 0.750001 0.750000 0.369844
O3_3 O 0.80032(6) 0.80380(7) 0.63895(5)
O4_3 O 0.86513(7) 0.82431(8) 0.60923(7)
N2_5 N 0.84010(7) 0.80324(9) 0.58764(8)
H4_5 H 0.845499 0.796535 0.563564
C6_5 C 0.750000 0.750000 0.52172(10)
C7_5 C 0.77788(10) 0.76950(11) 0.54232(8)
H5_5 H 0.797682 0.782991 0.528617
C8_5 C 0.77804(9) 0.77011(10) 0.58225(8)
C9_5 C 0.80666(8) 0.79303(9) 0.60463(8)
C10_5 C 0.750000 0.750000 0.60255(12)
H6_5 H 0.750000 0.750001 0.630156
O5_5 O 0.69620(7) 0.69968(6) 0.36105(5)
O6_5 O 0.67569(8) 0.63487(7) 0.39077(7)
N3_5 N 0.69676(9) 0.65990(7) 0.41236(8)
H7_5 H 0.703465 0.654501 0.436436
C11_5 C 0.73050(11) 0.72212(10) 0.45768(8)
H8_5 H 0.717009 0.702318 0.471383
C12_5 C 0.72989(10) 0.72196(9) 0.41775(8)
C13_5 C 0.70697(9) 0.69334(8) 0.39537(8)
O7_5 O 0.69968(6) 0.69620(7) 0.63895(5)
O8_5 O 0.63487(7) 0.67569(8) 0.60923(7)
N4_5 N 0.65990(7) 0.69676(9) 0.58764(8)
H9_5 H 0.654501 0.703465 0.563564
C14_5 C 0.72212(10) 0.73050(11) 0.54232(8)
H10_5 H 0.702318 0.717009 0.528617
C15_5 C 0.72196(9) 0.72989(10) 0.58225(8)
C16_5 C 0.69334(8) 0.70697(9) 0.60463(8)
Fe2_3 Fe 0.84133(2) 0.84133(2) 0.65867(2)
O9_3 O 0.86105(5) 0.80380(7) 0.30032(6)
O10_3 O 0.89077(7) 0.82431(8) 0.36513(7)
N5_3 N 0.91236(8) 0.80324(9) 0.34010(7)
H11_3 H 0.936436 0.796535 0.345499
C17_3 C 0.97828(10) 0.750000 0.250000
C18_3 C 0.95768(8) 0.76950(11) 0.27788(10)
H12_3 H 0.971383 0.782991 0.297682
C19_3 C 0.91775(8) 0.77011(10) 0.27804(9)
C20_3 C 0.89537(8) 0.79303(9) 0.30666(8)
C21_3 C 0.89745(12) 0.750000 0.250000
H13_3 H 0.869844 0.750001 0.250000
N7_3 N 0.91236(8) 0.69676(9) 0.15990(7)
H17_3 H 0.936436 0.703465 0.154501
C27_3 C 0.95768(8) 0.73050(11) 0.22212(10)
H18_3 H 0.971383 0.717009 0.202318
C28_3 C 0.91775(8) 0.72989(10) 0.22196(9)
C29_3 C 0.89537(8) 0.70697(9) 0.19334(8)
O19_3 O 0.86105(5) 0.80032(6) 0.69620(7)
O20_3 O 0.89077(7) 0.86513(7) 0.67569(8)
N10_3 N 0.91236(8) 0.84010(7) 0.69676(9)
H24_3 H 0.936436 0.845499 0.703465
C38_3 C 0.97828(10) 0.750000 0.750000
C39_3 C 0.95768(8) 0.77788(10) 0.73050(11)
H25_3 H 0.971383 0.797682 0.717009
C40_3 C 0.91775(8) 0.77804(9) 0.72989(10)
C41_3 C 0.89537(8) 0.80666(8) 0.70697(9)
C42_3 C 0.89745(12) 0.750000 0.750000
H26_3 H 0.869844 0.750000 0.749999
N12_3 N 0.91236(8) 0.65990(7) 0.80324(9)
H29_3 H 0.936436 0.654501 0.796535
C46_3 C 0.95768(8) 0.72212(10) 0.76950(11)
H30_3 H 0.971383 0.702318 0.782991
C47_3 C 0.91775(8) 0.72196(9) 0.77011(10)
C48_3 C 0.89537(8) 0.69334(8) 0.79303(9)
O27_3 O 0.80032(6) 0.86105(5) 0.30380(7)
O30_3 O 0.80380(7) 0.86105(5) 0.69968(6)
O33_3 O 0.86513(7) 0.89077(7) 0.32431(8)
O36_3 O 0.82431(8) 0.89077(7) 0.63487(7)
O11_4 O 0.13895(5) 0.19968(6) 0.69620(7)
O12_4 O 0.10923(7) 0.13487(7) 0.67569(8)
N6_4 N 0.08764(8) 0.15990(7) 0.69676(9)
H14_4 H 0.063564 0.154501 0.703465
C22_4 C 0.02172(10) 0.250000 0.750000
C23_4 C 0.04232(8) 0.22212(10) 0.73050(11)
H15_4 H 0.028617 0.202318 0.717009
C24_4 C 0.08225(8) 0.22196(9) 0.72989(10)
C25_4 C 0.10463(8) 0.19334(8) 0.70697(9)
C26_4 C 0.10255(12) 0.250000 0.750000
H16_4 H 0.130156 0.250000 0.749999
N8_4 N 0.08764(8) 0.34010(7) 0.80324(9)
H19_4 H 0.063564 0.345499 0.796535
C30_4 C 0.04232(8) 0.27788(10) 0.76950(11)
H20_4 H 0.028617 0.297682 0.782991
C31_4 C 0.08225(8) 0.27804(9) 0.77011(10)
C32_4 C 0.10463(8) 0.30666(8) 0.79303(9)
Fe3_4 Fe 0.15867(2) 0.15867(2) 0.34133(2)
O17_4 O 0.13895(5) 0.19620(7) 0.30032(6)
O18_4 O 0.10923(7) 0.17569(8) 0.36513(7)
N9_4 N 0.08764(8) 0.19676(9) 0.34010(7)
H21_4 H 0.063564 0.203465 0.345499
C33_4 C 0.02172(10) 0.250000 0.250000
C34_4 C 0.04232(8) 0.23050(11) 0.27788(10)
H22_4 H 0.028617 0.217009 0.297682
C35_4 C 0.08225(8) 0.22989(10) 0.27804(9)
C36_4 C 0.10463(8) 0.20697(9) 0.30666(8)
C37_4 C 0.10255(12) 0.250000 0.250000
H23_4 H 0.130156 0.249999 0.250000
N11_4 N 0.08764(8) 0.30324(9) 0.15990(7)
H27_4 H 0.063564 0.296535 0.154501
C43_4 C 0.04232(8) 0.26950(11) 0.22212(10)
H28_4 H 0.028617 0.282991 0.202318
C44_4 C 0.08225(8) 0.27011(10) 0.22196(9)
C45_4 C 0.10463(8) 0.29303(9) 0.19334(8)
Fe4_4 Fe 0.15867(2) 0.15867(2) 0.65867(2)
O25_4 O 0.19620(7) 0.19968(6) 0.36105(5)
O26_4 O 0.19968(6) 0.19620(7) 0.63895(5)
O28_4 O 0.19968(6) 0.13895(5) 0.30380(7)
O29_4 O 0.19620(7) 0.13895(5) 0.69968(6)
O31_4 O 0.17569(8) 0.13487(7) 0.39077(7)
O32_4 O 0.13487(7) 0.17569(8) 0.60923(7)
O34_4 O 0.13487(7) 0.10923(7) 0.32431(8)
O35_4 O 0.17569(8) 0.10923(7) 0.63487(7)
Fe1_4 Fe 0.84133(2) 0.15867(2) 0.65867(2)
O1_4 O 0.80380(7) 0.19968(6) 0.63895(5)
O2_4 O 0.82431(8) 0.13487(7) 0.60923(7)
N1_6 N 0.80324(9) 0.15990(7) 0.58764(8)
H1_6 H 0.796535 0.154501 0.563564
C1_6 C 0.750000 0.250000 0.52172(10)
C2_6 C 0.76950(11) 0.22212(10) 0.54232(8)
H2_6 H 0.782991 0.202318 0.528617
C3_6 C 0.77011(10) 0.22196(9) 0.58225(8)
C4_6 C 0.79303(9) 0.19334(8) 0.60463(8)
C5_6 C 0.750000 0.250000 0.60255(12)
H3_6 H 0.750001 0.250000 0.630156
O3_4 O 0.80032(6) 0.19620(7) 0.36105(5)
O4_4 O 0.86513(7) 0.17569(8) 0.39077(7)
N2_6 N 0.84010(7) 0.19676(9) 0.41236(8)
H4_6 H 0.845499 0.203465 0.436436
C6_6 C 0.750000 0.250000 0.47828(10)
C7_6 C 0.77788(10) 0.23050(11) 0.45768(8)
H5_6 H 0.797682 0.217009 0.471383
C8_6 C 0.77804(9) 0.22989(10) 0.41775(8)
C9_6 C 0.80666(8) 0.20697(9) 0.39537(8)
C10_6 C 0.750000 0.250000 0.39745(12)
H6_6 H 0.750000 0.249999 0.369844
O5_6 O 0.69620(7) 0.30032(6) 0.63895(5)
O6_6 O 0.67569(8) 0.36513(7) 0.60923(7)
N3_6 N 0.69676(9) 0.34010(7) 0.58764(8)
H7_6 H 0.703465 0.345499 0.563564
C11_6 C 0.73050(11) 0.27788(10) 0.54232(8)
H8_6 H 0.717009 0.297682 0.528617
C12_6 C 0.72989(10) 0.27804(9) 0.58225(8)
C13_6 C 0.70697(9) 0.30666(8) 0.60463(8)
O7_6 O 0.69968(6) 0.30380(7) 0.36105(5)
O8_6 O 0.63487(7) 0.32431(8) 0.39077(7)
N4_6 N 0.65990(7) 0.30324(9) 0.41236(8)
H9_6 H 0.654501 0.296535 0.436436
C14_6 C 0.72212(10) 0.26950(11) 0.45768(8)
H10_6 H 0.702318 0.282991 0.471383
C15_6 C 0.72196(9) 0.27011(10) 0.41775(8)
C16_6 C 0.69334(8) 0.29303(9) 0.39537(8)
Fe2_4 Fe 0.84133(2) 0.15867(2) 0.34133(2)
O9_4 O 0.86105(5) 0.19620(7) 0.69968(6)
O10_4 O 0.89077(7) 0.17569(8) 0.63487(7)
N5_4 N 0.91236(8) 0.19676(9) 0.65990(7)
H11_4 H 0.936436 0.203465 0.654501
C17_4 C 0.97828(10) 0.250000 0.750000
C18_4 C 0.95768(8) 0.23050(11) 0.72212(10)
H12_4 H 0.971383 0.217009 0.702318
C19_4 C 0.91775(8) 0.22989(10) 0.72196(9)
C20_4 C 0.89537(8) 0.20697(9) 0.69334(8)
C21_4 C 0.89745(12) 0.250000 0.750000
H13_4 H 0.869844 0.249999 0.750000
N7_4 N 0.91236(8) 0.30324(9) 0.84010(7)
H17_4 H 0.936436 0.296535 0.845499
C27_4 C 0.95768(8) 0.26950(11) 0.77788(10)
H18_4 H 0.971383 0.282991 0.797682
C28_4 C 0.91775(8) 0.27011(10) 0.77804(9)
C29_4 C 0.89537(8) 0.29303(9) 0.80666(8)
O19_4 O 0.86105(5) 0.19968(6) 0.30380(7)
O20_4 O 0.89077(7) 0.13487(7) 0.32431(8)
N10_4 N 0.91236(8) 0.15990(7) 0.30324(9)
H24_4 H 0.936436 0.154501 0.296535
C38_4 C 0.97828(10) 0.250000 0.250000
C39_4 C 0.95768(8) 0.22212(10) 0.26950(11)
H25_4 H 0.971383 0.202318 0.282991
C40_4 C 0.91775(8) 0.22196(9) 0.27011(10)
C41_4 C 0.89537(8) 0.19334(8) 0.29303(9)
C42_4 C 0.89745(12) 0.250000 0.250000
H26_4 H 0.869844 0.250000 0.250001
N12_4 N 0.91236(8) 0.34010(7) 0.19676(9)
H29_4 H 0.936436 0.345499 0.203465
C46_4 C 0.95768(8) 0.27788(10) 0.23050(11)
H30_4 H 0.971383 0.297682 0.217009
C47_4 C 0.91775(8) 0.27804(9) 0.22989(10)
C48_4 C 0.89537(8) 0.30666(8) 0.20697(9)
O27_4 O 0.80032(6) 0.13895(5) 0.69620(7)
O30_4 O 0.80380(7) 0.13895(5) 0.30032(6)
O33_4 O 0.86513(7) 0.10923(7) 0.67569(8)
O36_4 O 0.82431(8) 0.10923(7) 0.36513(7)
N1_7 N 0.19676(9) 0.15990(7) 0.41236(8)
H1_7 H 0.203465 0.154501 0.436436
C1_7 C 0.250000 0.250000 0.47828(10)
C2_7 C 0.23050(11) 0.22212(10) 0.45768(8)
H2_7 H 0.217009 0.202318 0.471383
C3_7 C 0.22989(10) 0.22196(9) 0.41775(8)
C4_7 C 0.20697(9) 0.19334(8) 0.39537(8)
C5_7 C 0.250000 0.250000 0.39745(12)
H3_7 H 0.249999 0.250000 0.369844
N2_7 N 0.15990(7) 0.19676(9) 0.58764(8)
H4_7 H 0.154501 0.203465 0.563564
C6_7 C 0.250000 0.250000 0.52172(10)
C7_7 C 0.22212(10) 0.23050(11) 0.54232(8)
H5_7 H 0.202318 0.217009 0.528617
C8_7 C 0.22196(9) 0.22989(10) 0.58225(8)
C9_7 C 0.19334(8) 0.20697(9) 0.60463(8)
C10_7 C 0.250000 0.250000 0.60255(12)
H6_7 H 0.250000 0.249999 0.630156
O5_7 O 0.30380(7) 0.30032(6) 0.36105(5)
O6_7 O 0.32431(8) 0.36513(7) 0.39077(7)
N3_7 N 0.30324(9) 0.34010(7) 0.41236(8)
H7_7 H 0.296535 0.345499 0.436436
C11_7 C 0.26950(11) 0.27788(10) 0.45768(8)
H8_7 H 0.282991 0.297682 0.471383
C12_7 C 0.27011(10) 0.27804(9) 0.41775(8)
C13_7 C 0.29303(9) 0.30666(8) 0.39537(8)
O7_7 O 0.30032(6) 0.30380(7) 0.63895(5)
O8_7 O 0.36513(7) 0.32431(8) 0.60923(7)
N4_7 N 0.34010(7) 0.30324(9) 0.58764(8)
H9_7 H 0.345499 0.296535 0.563564
C14_7 C 0.27788(10) 0.26950(11) 0.54232(8)
H10_7 H 0.297682 0.282991 0.528617
C15_7 C 0.27804(9) 0.27011(10) 0.58225(8)
C16_7 C 0.30666(8) 0.29303(9) 0.60463(8)
N1_8 N 0.19676(9) 0.84010(7) 0.58764(8)
H1_8 H 0.203465 0.845499 0.563564
C1_8 C 0.250000 0.750000 0.52172(10)
C2_8 C 0.23050(11) 0.77788(10) 0.54232(8)
H2_8 H 0.217009 0.797682 0.528617
C3_8 C 0.22989(10) 0.77804(9) 0.58225(8)
C4_8 C 0.20697(9) 0.80666(8) 0.60463(8)
C5_8 C 0.250000 0.750000 0.60255(12)
H3_8 H 0.249999 0.750000 0.630156
N2_8 N 0.15990(7) 0.80324(9) 0.41236(8)
H4_8 H 0.154501 0.796535 0.436436
C6_8 C 0.250000 0.750000 0.47828(10)
C7_8 C 0.22212(10) 0.76950(11) 0.45768(8)
H5_8 H 0.202318 0.782991 0.471383
C8_8 C 0.22196(9) 0.77011(10) 0.41775(8)
C9_8 C 0.19334(8) 0.79303(9) 0.39537(8)
C10_8 C 0.250000 0.750000 0.39745(12)
H6_8 H 0.250000 0.750001 0.369844
O5_8 O 0.30380(7) 0.69968(6) 0.63895(5)
O6_8 O 0.32431(8) 0.63487(7) 0.60923(7)
N3_8 N 0.30324(9) 0.65990(7) 0.58764(8)
H7_8 H 0.296535 0.654501 0.563564
C11_8 C 0.26950(11) 0.72212(10) 0.54232(8)
H8_8 H 0.282991 0.702318 0.528617
C12_8 C 0.27011(10) 0.72196(9) 0.58225(8)
C13_8 C 0.29303(9) 0.69334(8) 0.60463(8)
O7_8 O 0.30032(6) 0.69620(7) 0.36105(5)
O8_8 O 0.36513(7) 0.67569(8) 0.39077(7)
N4_8 N 0.34010(7) 0.69676(9) 0.41236(8)
H9_8 H 0.345499 0.703465 0.436436
C14_8 C 0.27788(10) 0.73050(11) 0.45768(8)
H10_8 H 0.297682 0.717009 0.471383
C15_8 C 0.27804(9) 0.72989(10) 0.41775(8)
C16_8 C 0.30666(8) 0.70697(9) 0.39537(8)
O11_5 O 0.30380(7) 0.13895(5) 0.80032(6)
O12_5 O 0.32431(8) 0.10923(7) 0.86513(7)
N6_5 N 0.30324(9) 0.08764(8) 0.84010(7)
H14_5 H 0.296535 0.063564 0.845499
C22_5 C 0.250000 0.02172(10) 0.750000
C23_5 C 0.26950(11) 0.04232(8) 0.77788(10)
H15_5 H 0.282991 0.028617 0.797682
C24_5 C 0.27011(10) 0.08225(8) 0.77804(9)
C25_5 C 0.29303(9) 0.10463(8) 0.80666(8)
C26_5 C 0.250000 0.10255(12) 0.750000
H16_5 H 0.250001 0.130156 0.750000
N8_5 N 0.19676(9) 0.08764(8) 0.65990(7)
H19_5 H 0.203465 0.063564 0.654501
C30_5 C 0.23050(11) 0.04232(8) 0.72212(10)
H20_5 H 0.217009 0.028617 0.702318
C31_5 C 0.22989(10) 0.08225(8) 0.72196(9)
C32_5 C 0.20697(9) 0.10463(8) 0.69334(8)
O17_5 O 0.69968(6) 0.13895(5) 0.80380(7)
O18_5 O 0.63487(7) 0.10923(7) 0.82431(8)
N9_5 N 0.65990(7) 0.08764(8) 0.80324(9)
H21_5 H 0.654501 0.063564 0.796535
C33_5 C 0.750000 0.02172(10) 0.750000
C34_5 C 0.72212(10) 0.04232(8) 0.76950(11)
H22_5 H 0.702318 0.028617 0.782991
C35_5 C 0.72196(9) 0.08225(8) 0.77011(10)
C36_5 C 0.69334(8) 0.10463(8) 0.79303(9)
C37_5 C 0.750000 0.10255(12) 0.750000
H23_5 H 0.750000 0.130156 0.750001
N11_5 N 0.84010(7) 0.08764(8) 0.69676(9)
H27_5 H 0.845499 0.063564 0.703465
C43_5 C 0.77788(10) 0.04232(8) 0.73050(11)
H28_5 H 0.797682 0.028617 0.717009
C44_5 C 0.77804(9) 0.08225(8) 0.72989(10)
C45_5 C 0.80666(8) 0.10463(8) 0.70697(9)
O25_5 O 0.63895(5) 0.19620(7) 0.80032(6)
O26_5 O 0.36105(5) 0.19968(6) 0.80380(7)
O31_5 O 0.60923(7) 0.17569(8) 0.86513(7)
O32_5 O 0.39077(7) 0.13487(7) 0.82431(8)
O1_5 O 0.36105(5) 0.80380(7) 0.80032(6)
O2_5 O 0.39077(7) 0.82431(8) 0.86513(7)
N1_9 N 0.41236(8) 0.80324(9) 0.84010(7)
H1_9 H 0.436436 0.796535 0.845499
C1_9 C 0.47828(10) 0.750000 0.750000
C2_9 C 0.45768(8) 0.76950(11) 0.77788(10)
H2_9 H 0.471383 0.782991 0.797682
C3_9 C 0.41775(8) 0.77011(10) 0.77804(9)
C4_9 C 0.39537(8) 0.79303(9) 0.80666(8)
C5_9 C 0.39745(12) 0.750000 0.750000
H3_9 H 0.369844 0.750001 0.750000
O3_5 O 0.63895(5) 0.80032(6) 0.80380(7)
O4_5 O 0.60923(7) 0.86513(7) 0.82431(8)
N2_9 N 0.58764(8) 0.84010(7) 0.80324(9)
H4_9 H 0.563564 0.845499 0.796535
C6_9 C 0.52172(10) 0.750000 0.750000
C7_9 C 0.54232(8) 0.77788(10) 0.76950(11)
H5_9 H 0.528617 0.797682 0.782991
C8_9 C 0.58225(8) 0.77804(9) 0.77011(10)
C9_9 C 0.60463(8) 0.80666(8) 0.79303(9)
C10_9 C 0.60255(12) 0.750000 0.750000
H6_9 H 0.630156 0.750000 0.750001
O5_9 O 0.36105(5) 0.69620(7) 0.69968(6)
O6_9 O 0.39077(7) 0.67569(8) 0.63487(7)
N3_9 N 0.41236(8) 0.69676(9) 0.65990(7)
H7_9 H 0.436436 0.703465 0.654501
C11_9 C 0.45768(8) 0.73050(11) 0.72212(10)
H8_9 H 0.471383 0.717009 0.702318
C12_9 C 0.41775(8) 0.72989(10) 0.72196(9)
C13_9 C 0.39537(8) 0.70697(9) 0.69334(8)
O7_9 O 0.63895(5) 0.69968(6) 0.69620(7)
O8_9 O 0.60923(7) 0.63487(7) 0.67569(8)
N4_9 N 0.58764(8) 0.65990(7) 0.69676(9)
H9_9 H 0.563564 0.654501 0.703465
C14_9 C 0.54232(8) 0.72212(10) 0.73050(11)
H10_9 H 0.528617 0.702318 0.717009
C15_9 C 0.58225(8) 0.72196(9) 0.72989(10)
C16_9 C 0.60463(8) 0.69334(8) 0.70697(9)
O9_5 O 0.30032(6) 0.86105(5) 0.80380(7)
O10_5 O 0.36513(7) 0.89077(7) 0.82431(8)
N5_5 N 0.34010(7) 0.91236(8) 0.80324(9)
H11_5 H 0.345499 0.936436 0.796535
C17_5 C 0.250000 0.97828(10) 0.750000
C18_5 C 0.27788(10) 0.95768(8) 0.76950(11)
H12_5 H 0.297682 0.971383 0.782991
C19_5 C 0.27804(9) 0.91775(8) 0.77011(10)
C20_5 C 0.30666(8) 0.89537(8) 0.79303(9)
C21_5 C 0.250000 0.89745(12) 0.750000
H13_5 H 0.250000 0.869844 0.750001
N7_5 N 0.15990(7) 0.91236(8) 0.69676(9)
H17_5 H 0.154501 0.936436 0.703465
C27_5 C 0.22212(10) 0.95768(8) 0.73050(11)
H18_5 H 0.202318 0.971383 0.717009
C28_5 C 0.22196(9) 0.91775(8) 0.72989(10)
C29_5 C 0.19334(8) 0.89537(8) 0.70697(9)
O19_5 O 0.69620(7) 0.86105(5) 0.80032(6)
O20_5 O 0.67569(8) 0.89077(7) 0.86513(7)
N10_5 N 0.69676(9) 0.91236(8) 0.84010(7)
H24_5 H 0.703465 0.936436 0.845499
C38_5 C 0.750000 0.97828(10) 0.750000
C39_5 C 0.73050(11) 0.95768(8) 0.77788(10)
H25_5 H 0.717009 0.971383 0.797682
C40_5 C 0.72989(10) 0.91775(8) 0.77804(9)
C41_5 C 0.70697(9) 0.89537(8) 0.80666(8)
C42_5 C 0.750000 0.89745(12) 0.750000
H26_5 H 0.749999 0.869844 0.750000
N12_5 N 0.80324(9) 0.91236(8) 0.65990(7)
H29_5 H 0.796535 0.936436 0.654501
C46_5 C 0.76950(11) 0.95768(8) 0.72212(10)
H30_5 H 0.782991 0.971383 0.702318
C47_5 C 0.77011(10) 0.91775(8) 0.72196(9)
C48_5 C 0.79303(9) 0.89537(8) 0.69334(8)
O11_6 O 0.69620(7) 0.13895(5) 0.19968(6)
O12_6 O 0.67569(8) 0.10923(7) 0.13487(7)
N6_6 N 0.69676(9) 0.08764(8) 0.15990(7)
H14_6 H 0.703465 0.063564 0.154501
C22_6 C 0.750000 0.02172(10) 0.250000
C23_6 C 0.73050(11) 0.04232(8) 0.22212(10)
H15_6 H 0.717009 0.028617 0.202318
C24_6 C 0.72989(10) 0.08225(8) 0.22196(9)
C25_6 C 0.70697(9) 0.10463(8) 0.19334(8)
C26_6 C 0.750000 0.10255(12) 0.250000
H16_6 H 0.749999 0.130156 0.250000
N8_6 N 0.80324(9) 0.08764(8) 0.34010(7)
H19_6 H 0.796535 0.063564 0.345499
C30_6 C 0.76950(11) 0.04232(8) 0.27788(10)
H20_6 H 0.782991 0.028617 0.297682
C31_6 C 0.77011(10) 0.08225(8) 0.27804(9)
C32_6 C 0.79303(9) 0.10463(8) 0.30666(8)
O17_6 O 0.30032(6) 0.13895(5) 0.19620(7)
O18_6 O 0.36513(7) 0.10923(7) 0.17569(8)
N9_6 N 0.34010(7) 0.08764(8) 0.19676(9)
H21_6 H 0.345499 0.063564 0.203465
C33_6 C 0.250000 0.02172(10) 0.250000
C34_6 C 0.27788(10) 0.04232(8) 0.23050(11)
H22_6 H 0.297682 0.028617 0.217009
C35_6 C 0.27804(9) 0.08225(8) 0.22989(10)
C36_6 C 0.30666(8) 0.10463(8) 0.20697(9)
C37_6 C 0.250000 0.10255(12) 0.250000
H23_6 H 0.250000 0.130156 0.249999
N11_6 N 0.15990(7) 0.08764(8) 0.30324(9)
H27_6 H 0.154501 0.063564 0.296535
C43_6 C 0.22212(10) 0.04232(8) 0.26950(11)
H28_6 H 0.202318 0.028617 0.282991
C44_6 C 0.22196(9) 0.08225(8) 0.27011(10)
C45_6 C 0.19334(8) 0.10463(8) 0.29303(9)
O25_6 O 0.36105(5) 0.19620(7) 0.19968(6)
O26_6 O 0.63895(5) 0.19968(6) 0.19620(7)
O31_6 O 0.39077(7) 0.17569(8) 0.13487(7)
O32_6 O 0.60923(7) 0.13487(7) 0.17569(8)
O1_6 O 0.63895(5) 0.80380(7) 0.19968(6)
O2_6 O 0.60923(7) 0.82431(8) 0.13487(7)
N1_10 N 0.58764(8) 0.80324(9) 0.15990(7)
H1_10 H 0.563564 0.796535 0.154501
C1_10 C 0.52172(10) 0.750000 0.250000
C2_10 C 0.54232(8) 0.76950(11) 0.22212(10)
H2_10 H 0.528617 0.782991 0.202318
C3_10 C 0.58225(8) 0.77011(10) 0.22196(9)
C4_10 C 0.60463(8) 0.79303(9) 0.19334(8)
C5_10 C 0.60255(12) 0.750000 0.250000
H3_10 H 0.630156 0.750001 0.250000
O3_6 O 0.36105(5) 0.80032(6) 0.19620(7)
O4_6 O 0.39077(7) 0.86513(7) 0.17569(8)
N2_10 N 0.41236(8) 0.84010(7) 0.19676(9)
H4_10 H 0.436436 0.845499 0.203465
C6_10 C 0.47828(10) 0.750000 0.250000
C7_10 C 0.45768(8) 0.77788(10) 0.23050(11)
H5_10 H 0.471383 0.797682 0.217009
C8_10 C 0.41775(8) 0.77804(9) 0.22989(10)
C9_10 C 0.39537(8) 0.80666(8) 0.20697(9)
C10_10 C 0.39745(12) 0.750000 0.250000
H6_10 H 0.369844 0.750000 0.249999
O5_10 O 0.63895(5) 0.69620(7) 0.30032(6)
O6_10 O 0.60923(7) 0.67569(8) 0.36513(7)
N3_10 N 0.58764(8) 0.69676(9) 0.34010(7)
H7_10 H 0.563564 0.703465 0.345499
C11_10 C 0.54232(8) 0.73050(11) 0.27788(10)
H8_10 H 0.528617 0.717009 0.297682
C12_10 C 0.58225(8) 0.72989(10) 0.27804(9)
C13_10 C 0.60463(8) 0.70697(9) 0.30666(8)
O7_10 O 0.36105(5) 0.69968(6) 0.30380(7)
O8_10 O 0.39077(7) 0.63487(7) 0.32431(8)
N4_10 N 0.41236(8) 0.65990(7) 0.30324(9)
H9_10 H 0.436436 0.654501 0.296535
C14_10 C 0.45768(8) 0.72212(10) 0.26950(11)
H10_10 H 0.471383 0.702318 0.282991
C15_10 C 0.41775(8) 0.72196(9) 0.27011(10)
C16_10 C 0.39537(8) 0.69334(8) 0.29303(9)
O9_6 O 0.69968(6) 0.86105(5) 0.19620(7)
O10_6 O 0.63487(7) 0.89077(7) 0.17569(8)
N5_6 N 0.65990(7) 0.91236(8) 0.19676(9)
H11_6 H 0.654501 0.936436 0.203465
C17_6 C 0.750000 0.97828(10) 0.250000
C18_6 C 0.72212(10) 0.95768(8) 0.23050(11)
H12_6 H 0.702318 0.971383 0.217009
C19_6 C 0.72196(9) 0.91775(8) 0.22989(10)
C20_6 C 0.69334(8) 0.89537(8) 0.20697(9)
C21_6 C 0.750000 0.89745(12) 0.250000
H13_6 H 0.750000 0.869844 0.249999
N7_6 N 0.84010(7) 0.91236(8) 0.30324(9)
H17_6 H 0.845499 0.936436 0.296535
C27_6 C 0.77788(10) 0.95768(8) 0.26950(11)
H18_6 H 0.797682 0.971383 0.282991
C28_6 C 0.77804(9) 0.91775(8) 0.27011(10)
C29_6 C 0.80666(8) 0.89537(8) 0.29303(9)
O19_6 O 0.30380(7) 0.86105(5) 0.19968(6)
O20_6 O 0.32431(8) 0.89077(7) 0.13487(7)
N10_6 N 0.30324(9) 0.91236(8) 0.15990(7)
H24_6 H 0.296535 0.936436 0.154501
C38_6 C 0.250000 0.97828(10) 0.250000
C39_6 C 0.26950(11) 0.95768(8) 0.22212(10)
H25_6 H 0.282991 0.971383 0.202318
C40_6 C 0.27011(10) 0.91775(8) 0.22196(9)
C41_6 C 0.29303(9) 0.89537(8) 0.19334(8)
C42_6 C 0.250000 0.89745(12) 0.250000
H26_6 H 0.250001 0.869844 0.250000
N12_6 N 0.19676(9) 0.91236(8) 0.34010(7)
H29_6 H 0.203465 0.936436 0.345499
C46_6 C 0.23050(11) 0.95768(8) 0.27788(10)
H30_6 H 0.217009 0.971383 0.297682
C47_6 C 0.22989(10) 0.91775(8) 0.27804(9)
C48_6 C 0.20697(9) 0.89537(8) 0.30666(8)
N1_11 N 0.41236(8) 0.19676(9) 0.15990(7)
H1_11 H 0.436436 0.203465 0.154501
C1_11 C 0.47828(10) 0.250000 0.250000
C2_11 C 0.45768(8) 0.23050(11) 0.22212(10)
H2_11 H 0.471383 0.217009 0.202318
C3_11 C 0.41775(8) 0.22989(10) 0.22196(9)
C4_11 C 0.39537(8) 0.20697(9) 0.19334(8)
C5_11 C 0.39745(12) 0.250000 0.250000
H3_11 H 0.369844 0.249999 0.250000
N2_11 N 0.58764(8) 0.15990(7) 0.19676(9)
H4_11 H 0.563564 0.154501 0.203465
C6_11 C 0.52172(10) 0.250000 0.250000
C7_11 C 0.54232(8) 0.22212(10) 0.23050(11)
H5_11 H 0.528617 0.202318 0.217009
C8_11 C 0.58225(8) 0.22196(9) 0.22989(10)
C9_11 C 0.60463(8) 0.19334(8) 0.20697(9)
C10_11 C 0.60255(12) 0.250000 0.250000
H6_11 H 0.630156 0.250000 0.249999
O5_11 O 0.36105(5) 0.30380(7) 0.30032(6)
O6_11 O 0.39077(7) 0.32431(8) 0.36513(7)
N3_11 N 0.41236(8) 0.30324(9) 0.34010(7)
H7_11 H 0.436436 0.296535 0.345499
C11_11 C 0.45768(8) 0.26950(11) 0.27788(10)
H8_11 H 0.471383 0.282991 0.297682
C12_11 C 0.41775(8) 0.27011(10) 0.27804(9)
C13_11 C 0.39537(8) 0.29303(9) 0.30666(8)
O7_11 O 0.63895(5) 0.30032(6) 0.30380(7)
O8_11 O 0.60923(7) 0.36513(7) 0.32431(8)
N4_11 N 0.58764(8) 0.34010(7) 0.30324(9)
H9_11 H 0.563564 0.345499 0.296535
C14_11 C 0.54232(8) 0.27788(10) 0.26950(11)
H10_11 H 0.528617 0.297682 0.282991
C15_11 C 0.58225(8) 0.27804(9) 0.27011(10)
C16_11 C 0.60463(8) 0.30666(8) 0.29303(9)
N1_12 N 0.58764(8) 0.19676(9) 0.84010(7)
H1_12 H 0.563564 0.203465 0.845499
C1_12 C 0.52172(10) 0.250000 0.750000
C2_12 C 0.54232(8) 0.23050(11) 0.77788(10)
H2_12 H 0.528617 0.217009 0.797682
C3_12 C 0.58225(8) 0.22989(10) 0.77804(9)
C4_12 C 0.60463(8) 0.20697(9) 0.80666(8)
C5_12 C 0.60255(12) 0.250000 0.750000
H3_12 H 0.630156 0.249999 0.750000
N2_12 N 0.41236(8) 0.15990(7) 0.80324(9)
H4_12 H 0.436436 0.154501 0.796535
C6_12 C 0.47828(10) 0.250000 0.750000
C7_12 C 0.45768(8) 0.22212(10) 0.76950(11)
H5_12 H 0.471383 0.202318 0.782991
C8_12 C 0.41775(8) 0.22196(9) 0.77011(10)
C9_12 C 0.39537(8) 0.19334(8) 0.79303(9)
C10_12 C 0.39745(12) 0.250000 0.750000
H6_12 H 0.369844 0.250000 0.750001
O5_12 O 0.63895(5) 0.30380(7) 0.69968(6)
O6_12 O 0.60923(7) 0.32431(8) 0.63487(7)
N3_12 N 0.58764(8) 0.30324(9) 0.65990(7)
H7_12 H 0.563564 0.296535 0.654501
C11_12 C 0.54232(8) 0.26950(11) 0.72212(10)
H8_12 H 0.528617 0.282991 0.702318
C12_12 C 0.58225(8) 0.27011(10) 0.72196(9)
C13_12 C 0.60463(8) 0.29303(9) 0.69334(8)
O7_12 O 0.36105(5) 0.30032(6) 0.69620(7)
O8_12 O 0.39077(7) 0.36513(7) 0.67569(8)
N4_12 N 0.41236(8) 0.34010(7) 0.69676(9)
H9_12 H 0.436436 0.345499 0.703465
C14_12 C 0.45768(8) 0.27788(10) 0.73050(11)
H10_12 H 0.471383 0.297682 0.717009
C15_12 C 0.41775(8) 0.27804(9) 0.72989(10)
C16_12 C 0.39537(8) 0.30666(8) 0.70697(9)
loop_
_geom_bond_atom_site_label_1
_geom_bond_atom_site_label_2
_geom_bond_site_symmetry_1
_geom_bond_site_symmetry_2
O11 C25 1_555 1_555
O12 N6 1_555 1_555
N6 H14 1_555 1_555
C23 C22 1_555 1_555
H15 C23 1_555 1_555
C24 C23 1_555 1_555
C25 N6 1_555 1_555
C26 C24 1_555 1_555
H16 C26 1_555 1_555
O15 C32 1_555 1_555
O16 N8 1_555 1_555
N8 H19 1_555 1_555
C30 C22 1_555 1_555
H20 C30 1_555 1_555
C31 C26 1_555 1_555
C32 N8 1_555 1_555
Fe3 O17 1_555 1_555
O17 C36 1_555 1_555
O18 Fe3 1_555 1_555
N9 O18 1_555 1_555
H21 N9 1_555 1_555
C33 C34 1_555 1_555
C34 H22 1_555 1_555
C35 C34 1_555 1_555
C36 N9 1_555 1_555
C37 C35 1_555 1_555
H23 C37 1_555 1_555
O21 C45 1_555 1_555
O22 N11 1_555 1_555
N11 H27 1_555 1_555
C43 C33 1_555 1_555
H28 C43 1_555 1_555
C44 C37 1_555 1_555
C45 N11 1_555 1_555
Fe4 O11 1_555 1_555
Fe5 O21 1_555 1_555
Fe7 O15 1_555 1_555
O25 Fe3 1_555 1_555
O26 Fe4 1_555 1_555
O28 Fe3 1_555 1_555
O29 Fe4 1_555 1_555
O31 Fe3 1_555 1_555
O32 Fe4 1_555 1_555
O34 Fe3 1_555 1_555
O35 Fe4 1_555 1_555
O12 Fe4 1_555 1_555
C24 C25 1_555 1_555
O16 Fe7 1_555 1_555
C30 C31 1_555 1_555
C31 C32 1_555 1_555
C35 C36 1_555 1_555
O22 Fe5 1_555 1_555
C43 C44 1_555 1_555
C44 C45 1_555 1_555
Fe1 O1 1_555 1_555
O1 C4 1_555 1_555
O2 Fe1 1_555 1_555
N1 O2 1_555 1_555
H1 N1 1_555 1_555
C1 C2 1_555 1_555
C2 H2 1_555 1_555
C3 C2 1_555 1_555
C4 N1 1_555 1_555
C5 C3 1_555 1_555
H3 C5 1_555 1_555
O3 C9 1_555 1_555
O4 N2 1_555 1_555
N2 H4 1_555 1_555
C6 C1 1_555 1_555
C7 C6 1_555 1_555
H5 C7 1_555 1_555
C8 C7 1_555 1_555
C9 N2 1_555 1_555
C10 C8 1_555 1_555
H6 C10 1_555 1_555
O5 C13 1_555 1_555
O6 N3 1_555 1_555
N3 H7 1_555 1_555
C11 C1 1_555 1_555
H8 C11 1_555 1_555
C12 C5 1_555 1_555
C13 N3 1_555 1_555
O7 C16 1_555 1_555
O8 N4 1_555 1_555
N4 H9 1_555 1_555
C14 C6 1_555 1_555
H10 C14 1_555 1_555
C15 C10 1_555 1_555
C16 N4 1_555 1_555
Fe2 O3 1_555 1_555
O9 Fe1 1_555 1_555
O10 Fe1 1_555 1_555
N5 O10 1_555 1_555
H11 N5 1_555 1_555
C17 C18 1_555 1_555
C18 H12 1_555 1_555
C19 C18 1_555 1_555
C20 O9 1_555 1_555
C21 C19 1_555 1_555
H13 C21 1_555 1_555
O13 C29 1_555 1_555
O14 N7 1_555 1_555
N7 H17 1_555 1_555
C27 C17 1_555 1_555
H18 C27 1_555 1_555
C28 C21 1_555 1_555
C29 N7 1_555 1_555
O19 Fe2 1_555 1_555
O20 Fe2 1_555 1_555
N10 O20 1_555 1_555
H24 N10 1_555 1_555
C39 C38 1_555 1_555
H25 C39 1_555 1_555
C40 C39 1_555 1_555
C41 O19 1_555 1_555
C42 C40 1_555 1_555
H26 C42 1_555 1_555
O23 C48 1_555 1_555
O24 N12 1_555 1_555
N12 H29 1_555 1_555
C46 C38 1_555 1_555
H30 C46 1_555 1_555
C47 C42 1_555 1_555
C48 N12 1_555 1_555
Fe6 O13 1_555 1_555
Fe8 O23 1_555 1_555
Fe9 O5 1_555 1_555
Fe10 O7 1_555 1_555
O27 Fe1 1_555 1_555
O30 Fe2 1_555 1_555
O33 Fe1 1_555 1_555
O36 Fe2 1_555 1_555
C3 C4 1_555 1_555
O4 Fe2 1_555 1_555
C8 C9 1_555 1_555
O6 Fe9 1_555 1_555
C11 C12 1_555 1_555
C12 C13 1_555 1_555
O8 Fe10 1_555 1_555
C14 C15 1_555 1_555
C15 C16 1_555 1_555
N5 C20 1_555 1_555
C19 C20 1_555 1_555
O14 Fe6 1_555 1_555
C27 C28 1_555 1_555
C28 C29 1_555 1_555
N10 C41 1_555 1_555
C40 C41 1_555 1_555
O24 Fe8 1_555 1_555
C46 C47 1_555 1_555
C47 C48 1_555 1_555
O11_2 C25_2 1_555 1_555
O12_2 N6_2 1_555 1_555
N6_2 H14_2 1_555 1_555
C23_2 C22_2 1_555 1_555
H15_2 C23_2 1_555 1_555
C24_2 C23_2 1_555 1_555
C25_2 N6_2 1_555 1_555
C26_2 C24_2 1_555 1_555
H16_2 C26_2 1_555 1_555
O15_2 C32_2 1_555 1_555
O16_2 N8_2 1_555 1_555
N8_2 H19_2 1_555 1_555
C30_2 C22_2 1_555 1_555
H20_2 C30_2 1_555 1_555
C31_2 C26_2 1_555 1_555
C32_2 N8_2 1_555 1_555
Fe3_2 O17_2 1_555 1_555
O17_2 C36_2 1_555 1_555
O18_2 Fe3_2 1_555 1_555
N9_2 O18_2 1_555 1_555
H21_2 N9_2 1_555 1_555
C33_2 C34_2 1_555 1_555
C34_2 H22_2 1_555 1_555
C35_2 C34_2 1_555 1_555
C36_2 N9_2 1_555 1_555
C37_2 C35_2 1_555 1_555
H23_2 C37_2 1_555 1_555
O21_2 C45_2 1_555 1_555
O22_2 N11_2 1_555 1_555
N11_2 H27_2 1_555 1_555
C43_2 C33_2 1_555 1_555
H28_2 C43_2 1_555 1_555
C44_2 C37_2 1_555 1_555
C45_2 N11_2 1_555 1_555
Fe4_2 O11_2 1_555 1_555
Fe5_2 O21_2 1_555 1_555
Fe7_2 O15_2 1_555 1_555
O25_2 Fe3_2 1_555 1_555
O26_2 Fe4_2 1_555 1_555
O28_2 Fe3_2 1_555 1_555
O29_2 Fe4_2 1_555 1_555
O31_2 Fe3_2 1_555 1_555
O32_2 Fe4_2 1_555 1_555
O34_2 Fe3_2 1_555 1_555
O35_2 Fe4_2 1_555 1_555
O12_2 Fe4_2 1_555 1_555
C24_2 C25_2 1_555 1_555
O16_2 Fe7_2 1_555 1_555
C30_2 C31_2 1_555 1_555
C31_2 C32_2 1_555 1_555
C35_2 C36_2 1_555 1_555
O22_2 Fe5_2 1_555 1_555
C43_2 C44_2 1_555 1_555
C44_2 C45_2 1_555 1_555
Fe1_2 O1_2 1_555 1_555
O1_2 C4_2 1_555 1_555
O2_2 Fe1_2 1_555 1_555
N1_2 O2_2 1_555 1_555
H1_2 N1_2 1_555 1_555
C1_2 C2_2 1_555 1_555
C2_2 H2_2 1_555 1_555
C3_2 C2_2 1_555 1_555
C4_2 N1_2 1_555 1_555
C5_2 C3_2 1_555 1_555
H3_2 C5_2 1_555 1_555
O3_2 C9_2 1_555 1_555
O4_2 N2_2 1_555 1_555
N2_2 H4_2 1_555 1_555
C6_2 C1_2 1_555 1_555
C7_2 C6_2 1_555 1_555
H5_2 C7_2 1_555 1_555
C8_2 C7_2 1_555 1_555
C9_2 N2_2 1_555 1_555
C10_2 C8_2 1_555 1_555
H6_2 C10_2 1_555 1_555
O5_2 C13_2 1_555 1_555
O6_2 N3_2 1_555 1_555
N3_2 H7_2 1_555 1_555
C11_2 C1_2 1_555 1_555
H8_2 C11_2 1_555 1_555
C12_2 C5_2 1_555 1_555
C13_2 N3_2 1_555 1_555
O7_2 C16_2 1_555 1_555
O8_2 N4_2 1_555 1_555
N4_2 H9_2 1_555 1_555
C14_2 C6_2 1_555 1_555
H10_2 C14_2 1_555 1_555
C15_2 C10_2 1_555 1_555
C16_2 N4_2 1_555 1_555
Fe2_2 O3_2 1_555 1_555
O9_2 Fe1_2 1_555 1_555
O10_2 Fe1_2 1_555 1_555
N5_2 O10_2 1_555 1_555
H11_2 N5_2 1_555 1_555
C17_2 C18_2 1_555 1_555
C18_2 H12_2 1_555 1_555
C19_2 C18_2 1_555 1_555
C20_2 O9_2 1_555 1_555
C21_2 C19_2 1_555 1_555
H13_2 C21_2 1_555 1_555
O13_2 C29_2 1_555 1_555
O14_2 N7_2 1_555 1_555
N7_2 H17_2 1_555 1_555
C27_2 C17_2 1_555 1_555
H18_2 C27_2 1_555 1_555
C28_2 C21_2 1_555 1_555
C29_2 N7_2 1_555 1_555
O19_2 Fe2_2 1_555 1_555
O20_2 Fe2_2 1_555 1_555
N10_2 O20_2 1_555 1_555
H24_2 N10_2 1_555 1_555
C39_2 C38_2 1_555 1_555
H25_2 C39_2 1_555 1_555
C40_2 C39_2 1_555 1_555
C41_2 O19_2 1_555 1_555
C42_2 C40_2 1_555 1_555
H26_2 C42_2 1_555 1_555
O23_2 C48_2 1_555 1_555
O24_2 N12_2 1_555 1_555
N12_2 H29_2 1_555 1_555
C46_2 C38_2 1_555 1_555
H30_2 C46_2 1_555 1_555
C47_2 C42_2 1_555 1_555
C48_2 N12_2 1_555 1_555
Fe6_2 O13_2 1_555 1_555
Fe8_2 O23_2 1_555 1_555
Fe9_2 O5_2 1_555 1_555
Fe10_2 O7_2 1_555 1_555
O27_2 Fe1_2 1_555 1_555
O30_2 Fe2_2 1_555 1_555
O33_2 Fe1_2 1_555 1_555
O36_2 Fe2_2 1_555 1_555
C3_2 C4_2 1_555 1_555
O4_2 Fe2_2 1_555 1_555
C8_2 C9_2 1_555 1_555
O6_2 Fe9_2 1_555 1_555
C11_2 C12_2 1_555 1_555
C12_2 C13_2 1_555 1_555
O8_2 Fe10_2 1_555 1_555
C14_2 C15_2 1_555 1_555
C15_2 C16_2 1_555 1_555
N5_2 C20_2 1_555 1_555
C19_2 C20_2 1_555 1_555
O14_2 Fe6_2 1_555 1_555
C27_2 C28_2 1_555 1_555
C28_2 C29_2 1_555 1_555
N10_2 C41_2 1_555 1_555
C40_2 C41_2 1_555 1_555
O24_2 Fe8_2 1_555 1_555
C46_2 C47_2 1_555 1_555
C47_2 C48_2 1_555 1_555
O25_2 C4_3 1_555 1_555
N1_3 O31_2 1_555 1_555
H1_3 N1_3 1_555 1_555
C1_3 C2_3 1_555 1_555
C2_3 H2_3 1_555 1_555
C3_3 C2_3 1_555 1_555
C4_3 N1_3 1_555 1_555
C5_3 C3_3 1_555 1_555
H3_3 C5_3 1_555 1_555
O26_2 C9_3 1_555 1_555
O32_2 N2_3 1_555 1_555
N2_3 H4_3 1_555 1_555
C6_3 C1_3 1_555 1_555
C7_3 C6_3 1_555 1_555
H5_3 C7_3 1_555 1_555
C8_3 C7_3 1_555 1_555
C9_3 N2_3 1_555 1_555
C10_3 C8_3 1_555 1_555
H6_3 C10_3 1_555 1_555
O5_3 C13_3 1_555 1_555
O6_3 N3_3 1_555 1_555
N3_3 H7_3 1_555 1_555
C11_3 C1_3 1_555 1_555
H8_3 C11_3 1_555 1_555
C12_3 C5_3 1_555 1_555
C13_3 N3_3 1_555 1_555
O7_3 C16_3 1_555 1_555
O8_3 N4_3 1_555 1_555
N4_3 H9_3 1_555 1_555
C14_3 C6_3 1_555 1_555
H10_3 C14_3 1_555 1_555
C15_3 C10_3 1_555 1_555
C16_3 N4_3 1_555 1_555
Fe9_3 O5_3 1_555 1_555
Fe10_3 O7_3 1_555 1_555
C3_3 C4_3 1_555 1_555
C8_3 C9_3 1_555 1_555
O6_3 Fe9_3 1_555 1_555
C11_3 C12_3 1_555 1_555
C12_3 C13_3 1_555 1_555
O8_3 Fe10_3 1_555 1_555
C14_3 C15_3 1_555 1_555
C15_3 C16_3 1_555 1_555
O25 C4_4 1_555 1_555
N1_4 O31 1_555 1_555
H1_4 N1_4 1_555 1_555
C1_4 C2_4 1_555 1_555
C2_4 H2_4 1_555 1_555
C3_4 C2_4 1_555 1_555
C4_4 N1_4 1_555 1_555
C5_4 C3_4 1_555 1_555
H3_4 C5_4 1_555 1_555
O26 C9_4 1_555 1_555
O32 N2_4 1_555 1_555
N2_4 H4_4 1_555 1_555
C6_4 C1_4 1_555 1_555
C7_4 C6_4 1_555 1_555
H5_4 C7_4 1_555 1_555
C8_4 C7_4 1_555 1_555
C9_4 N2_4 1_555 1_555
C10_4 C8_4 1_555 1_555
H6_4 C10_4 1_555 1_555
O5_4 C13_4 1_555 1_555
O6_4 N3_4 1_555 1_555
N3_4 H7_4 1_555 1_555
C11_4 C1_4 1_555 1_555
H8_4 C11_4 1_555 1_555
C12_4 C5_4 1_555 1_555
C13_4 N3_4 1_555 1_555
O7_4 C16_4 1_555 1_555
O8_4 N4_4 1_555 1_555
N4_4 H9_4 1_555 1_555
C14_4 C6_4 1_555 1_555
H10_4 C14_4 1_555 1_555
C15_4 C10_4 1_555 1_555
C16_4 N4_4 1_555 1_555
Fe9_4 O5_4 1_555 1_555
Fe10_4 O7_4 1_555 1_555
C3_4 C4_4 1_555 1_555
C8_4 C9_4 1_555 1_555
O6_4 Fe9_4 1_555 1_555
C11_4 C12_4 1_555 1_555
C12_4 C13_4 1_555 1_555
O8_4 Fe10_4 1_555 1_555
C14_4 C15_4 1_555 1_555
C15_4 C16_4 1_555 1_555
O11_3 C25_3 1_555 1_555
O12_3 N6_3 1_555 1_555
N6_3 H14_3 1_555 1_555
C23_3 C22_3 1_555 1_555
H15_3 C23_3 1_555 1_555
C24_3 C23_3 1_555 1_555
C25_3 N6_3 1_555 1_555
C26_3 C24_3 1_555 1_555
H16_3 C26_3 1_555 1_555
O29_2 C32_3 1_555 1_555
O35_2 N8_3 1_555 1_555
N8_3 H19_3 1_555 1_555
C30_3 C22_3 1_555 1_555
H20_3 C30_3 1_555 1_555
C31_3 C26_3 1_555 1_555
C32_3 N8_3 1_555 1_555
Fe3_3 O17_3 1_555 1_555
O17_3 C36_3 1_555 1_555
O18_3 Fe3_3 1_555 1_555
N9_3 O18_3 1_555 1_555
H21_3 N9_3 1_555 1_555
C33_3 C34_3 1_555 1_555
C34_3 H22_3 1_555 1_555
C35_3 C34_3 1_555 1_555
C36_3 N9_3 1_555 1_555
C37_3 C35_3 1_555 1_555
H23_3 C37_3 1_555 1_555
O27_2 C45_3 1_555 1_555
O33_2 N11_3 1_555 1_555
N11_3 H27_3 1_555 1_555
C43_3 C33_3 1_555 1_555
H28_3 C43_3 1_555 1_555
C44_3 C37_3 1_555 1_555
C45_3 N11_3 1_555 1_555
Fe4_3 O11_3 1_555 1_555
O25_3 Fe3_3 1_555 1_555
O26_3 Fe4_3 1_555 1_555
O28_3 Fe3_3 1_555 1_555
O29_3 Fe4_3 1_555 1_555
O31_3 Fe3_3 1_555 1_555
O32_3 Fe4_3 1_555 1_555
O34_3 Fe3_3 1_555 1_555
O35_3 Fe4_3 1_555 1_555
O12_3 Fe4_3 1_555 1_555
C24_3 C25_3 1_555 1_555
C30_3 C31_3 1_555 1_555
C31_3 C32_3 1_555 1_555
C35_3 C36_3 1_555 1_555
C43_3 C44_3 1_555 1_555
C44_3 C45_3 1_555 1_555
Fe1_3 O1_3 1_555 1_555
O1_3 C4_5 1_555 1_555
O2_3 Fe1_3 1_555 1_555
N1_5 O2_3 1_555 1_555
H1_5 N1_5 1_555 1_555
C1_5 C2_5 1_555 1_555
C2_5 H2_5 1_555 1_555
C3_5 C2_5 1_555 1_555
C4_5 N1_5 1_555 1_555
C5_5 C3_5 1_555 1_555
H3_5 C5_5 1_555 1_555
O3_3 C9_5 1_555 1_555
O4_3 N2_5 1_555 1_555
N2_5 H4_5 1_555 1_555
C6_5 C1_5 1_555 1_555
C7_5 C6_5 1_555 1_555
H5_5 C7_5 1_555 1_555
C8_5 C7_5 1_555 1_555
C9_5 N2_5 1_555 1_555
C10_5 C8_5 1_555 1_555
H6_5 C10_5 1_555 1_555
O5_5 C13_5 1_555 1_555
O6_5 N3_5 1_555 1_555
N3_5 H7_5 1_555 1_555
C11_5 C1_5 1_555 1_555
H8_5 C11_5 1_555 1_555
C12_5 C5_5 1_555 1_555
C13_5 N3_5 1_555 1_555
O7_5 C16_5 1_555 1_555
O8_5 N4_5 1_555 1_555
N4_5 H9_5 1_555 1_555
C14_5 C6_5 1_555 1_555
H10_5 C14_5 1_555 1_555
C15_5 C10_5 1_555 1_555
C16_5 N4_5 1_555 1_555
Fe2_3 O3_3 1_555 1_555
O9_3 Fe1_3 1_555 1_555
O10_3 Fe1_3 1_555 1_555
N5_3 O10_3 1_555 1_555
H11_3 N5_3 1_555 1_555
C17_3 C18_3 1_555 1_555
C18_3 H12_3 1_555 1_555
C19_3 C18_3 1_555 1_555
C20_3 O9_3 1_555 1_555
C21_3 C19_3 1_555 1_555
H13_3 C21_3 1_555 1_555
O28 C29_3 1_555 1_555
O34 N7_3 1_555 1_555
N7_3 H17_3 1_555 1_555
C27_3 C17_3 1_555 1_555
H18_3 C27_3 1_555 1_555
C28_3 C21_3 1_555 1_555
C29_3 N7_3 1_555 1_555
O19_3 Fe2_3 1_555 1_555
O20_3 Fe2_3 1_555 1_555
N10_3 O20_3 1_555 1_555
H24_3 N10_3 1_555 1_555
C39_3 C38_3 1_555 1_555
H25_3 C39_3 1_555 1_555
C40_3 C39_3 1_555 1_555
C41_3 O19_3 1_555 1_555
C42_3 C40_3 1_555 1_555
H26_3 C42_3 1_555 1_555
O30 C48_3 1_555 1_555
O36 N12_3 1_555 1_555
N12_3 H29_3 1_555 1_555
C46_3 C38_3 1_555 1_555
H30_3 C46_3 1_555 1_555
C47_3 C42_3 1_555 1_555
C48_3 N12_3 1_555 1_555
Fe9_4 O5_5 1_555 1_555
Fe10 O7_5 1_555 1_555
O27_3 Fe1_3 1_555 1_555
O30_3 Fe2_3 1_555 1_555
O33_3 Fe1_3 1_555 1_555
O36_3 Fe2_3 1_555 1_555
C3_5 C4_5 1_555 1_555
O4_3 Fe2_3 1_555 1_555
C8_5 C9_5 1_555 1_555
O6_5 Fe9_4 1_555 1_555
C11_5 C12_5 1_555 1_555
C12_5 C13_5 1_555 1_555
O8_5 Fe10 1_555 1_555
C14_5 C15_5 1_555 1_555
C15_5 C16_5 1_555 1_555
N5_3 C20_3 1_555 1_555
C19_3 C20_3 1_555 1_555
C27_3 C28_3 1_555 1_555
C28_3 C29_3 1_555 1_555
N10_3 C41_3 1_555 1_555
C40_3 C41_3 1_555 1_555
C46_3 C47_3 1_555 1_555
C47_3 C48_3 1_555 1_555
O11_4 C25_4 1_555 1_555
O12_4 N6_4 1_555 1_555
N6_4 H14_4 1_555 1_555
C23_4 C22_4 1_555 1_555
H15_4 C23_4 1_555 1_555
C24_4 C23_4 1_555 1_555
C25_4 N6_4 1_555 1_555
C26_4 C24_4 1_555 1_555
H16_4 C26_4 1_555 1_555
O30_2 C32_4 1_555 1_555
O36_2 N8_4 1_555 1_555
N8_4 H19_4 1_555 1_555
C30_4 C22_4 1_555 1_555
H20_4 C30_4 1_555 1_555
C31_4 C26_4 1_555 1_555
C32_4 N8_4 1_555 1_555
Fe3_4 O17_4 1_555 1_555
O17_4 C36_4 1_555 1_555
O18_4 Fe3_4 1_555 1_555
N9_4 O18_4 1_555 1_555
H21_4 N9_4 1_555 1_555
C33_4 C34_4 1_555 1_555
C34_4 H22_4 1_555 1_555
C35_4 C34_4 1_555 1_555
C36_4 N9_4 1_555 1_555
C37_4 C35_4 1_555 1_555
H23_4 C37_4 1_555 1_555
O28_2 C45_4 1_555 1_555
O34_2 N11_4 1_555 1_555
N11_4 H27_4 1_555 1_555
C43_4 C33_4 1_555 1_555
H28_4 C43_4 1_555 1_555
C44_4 C37_4 1_555 1_555
C45_4 N11_4 1_555 1_555
Fe4_4 O11_4 1_555 1_555
O25_4 Fe3_4 1_555 1_555
O26_4 Fe4_4 1_555 1_555
O28_4 Fe3_4 1_555 1_555
O29_4 Fe4_4 1_555 1_555
O31_4 Fe3_4 1_555 1_555
O32_4 Fe4_4 1_555 1_555
O34_4 Fe3_4 1_555 1_555
O35_4 Fe4_4 1_555 1_555
O12_4 Fe4_4 1_555 1_555
C24_4 C25_4 1_555 1_555
C30_4 C31_4 1_555 1_555
C31_4 C32_4 1_555 1_555
C35_4 C36_4 1_555 1_555
C43_4 C44_4 1_555 1_555
C44_4 C45_4 1_555 1_555
Fe1_4 O1_4 1_555 1_555
O1_4 C4_6 1_555 1_555
O2_4 Fe1_4 1_555 1_555
N1_6 O2_4 1_555 1_555
H1_6 N1_6 1_555 1_555
C1_6 C2_6 1_555 1_555
C2_6 H2_6 1_555 1_555
C3_6 C2_6 1_555 1_555
C4_6 N1_6 1_555 1_555
C5_6 C3_6 1_555 1_555
H3_6 C5_6 1_555 1_555
O3_4 C9_6 1_555 1_555
O4_4 N2_6 1_555 1_555
N2_6 H4_6 1_555 1_555
C6_6 C1_6 1_555 1_555
C7_6 C6_6 1_555 1_555
H5_6 C7_6 1_555 1_555
C8_6 C7_6 1_555 1_555
C9_6 N2_6 1_555 1_555
C10_6 C8_6 1_555 1_555
H6_6 C10_6 1_555 1_555
O5_6 C13_6 1_555 1_555
O6_6 N3_6 1_555 1_555
N3_6 H7_6 1_555 1_555
C11_6 C1_6 1_555 1_555
H8_6 C11_6 1_555 1_555
C12_6 C5_6 1_555 1_555
C13_6 N3_6 1_555 1_555
O7_6 C16_6 1_555 1_555
O8_6 N4_6 1_555 1_555
N4_6 H9_6 1_555 1_555
C14_6 C6_6 1_555 1_555
H10_6 C14_6 1_555 1_555
C15_6 C10_6 1_555 1_555
C16_6 N4_6 1_555 1_555
Fe2_4 O3_4 1_555 1_555
O9_4 Fe1_4 1_555 1_555
O10_4 Fe1_4 1_555 1_555
N5_4 O10_4 1_555 1_555
H11_4 N5_4 1_555 1_555
C17_4 C18_4 1_555 1_555
C18_4 H12_4 1_555 1_555
C19_4 C18_4 1_555 1_555
C20_4 O9_4 1_555 1_555
C21_4 C19_4 1_555 1_555
H13_4 C21_4 1_555 1_555
O27 C29_4 1_555 1_555
O33 N7_4 1_555 1_555
N7_4 H17_4 1_555 1_555
C27_4 C17_4 1_555 1_555
H18_4 C27_4 1_555 1_555
C28_4 C21_4 1_555 1_555
C29_4 N7_4 1_555 1_555
O19_4 Fe2_4 1_555 1_555
O20_4 Fe2_4 1_555 1_555
N10_4 O20_4 1_555 1_555
H24_4 N10_4 1_555 1_555
C39_4 C38_4 1_555 1_555
H25_4 C39_4 1_555 1_555
C40_4 C39_4 1_555 1_555
C41_4 O19_4 1_555 1_555
C42_4 C40_4 1_555 1_555
H26_4 C42_4 1_555 1_555
O29 C48_4 1_555 1_555
O35 N12_4 1_555 1_555
N12_4 H29_4 1_555 1_555
C46_4 C38_4 1_555 1_555
H30_4 C46_4 1_555 1_555
C47_4 C42_4 1_555 1_555
C48_4 N12_4 1_555 1_555
Fe9 O5_6 1_555 1_555
Fe10_4 O7_6 1_555 1_555
O27_4 Fe1_4 1_555 1_555
O30_4 Fe2_4 1_555 1_555
O33_4 Fe1_4 1_555 1_555
O36_4 Fe2_4 1_555 1_555
C3_6 C4_6 1_555 1_555
O4_4 Fe2_4 1_555 1_555
C8_6 C9_6 1_555 1_555
O6_6 Fe9 1_555 1_555
C11_6 C12_6 1_555 1_555
C12_6 C13_6 1_555 1_555
O8_6 Fe10_4 1_555 1_555
C14_6 C15_6 1_555 1_555
C15_6 C16_6 1_555 1_555
N5_4 C20_4 1_555 1_555
C19_4 C20_4 1_555 1_555
C27_4 C28_4 1_555 1_555
C28_4 C29_4 1_555 1_555
N10_4 C41_4 1_555 1_555
C40_4 C41_4 1_555 1_555
C46_4 C47_4 1_555 1_555
C47_4 C48_4 1_555 1_555
O25_4 C4_7 1_555 1_555
N1_7 O31_4 1_555 1_555
H1_7 N1_7 1_555 1_555
C1_7 C2_7 1_555 1_555
C2_7 H2_7 1_555 1_555
C3_7 C2_7 1_555 1_555
C4_7 N1_7 1_555 1_555
C5_7 C3_7 1_555 1_555
H3_7 C5_7 1_555 1_555
O26_4 C9_7 1_555 1_555
O32_4 N2_7 1_555 1_555
N2_7 H4_7 1_555 1_555
C6_7 C1_7 1_555 1_555
C7_7 C6_7 1_555 1_555
H5_7 C7_7 1_555 1_555
C8_7 C7_7 1_555 1_555
C9_7 N2_7 1_555 1_555
C10_7 C8_7 1_555 1_555
H6_7 C10_7 1_555 1_555
O5_7 C13_7 1_555 1_555
O6_7 N3_7 1_555 1_555
N3_7 H7_7 1_555 1_555
C11_7 C1_7 1_555 1_555
H8_7 C11_7 1_555 1_555
C12_7 C5_7 1_555 1_555
C13_7 N3_7 1_555 1_555
O7_7 C16_7 1_555 1_555
O8_7 N4_7 1_555 1_555
N4_7 H9_7 1_555 1_555
C14_7 C6_7 1_555 1_555
H10_7 C14_7 1_555 1_555
C15_7 C10_7 1_555 1_555
C16_7 N4_7 1_555 1_555
Fe9_3 O5_7 1_555 1_555
Fe10_2 O7_7 1_555 1_555
C3_7 C4_7 1_555 1_555
C8_7 C9_7 1_555 1_555
O6_7 Fe9_3 1_555 1_555
C11_7 C12_7 1_555 1_555
C12_7 C13_7 1_555 1_555
O8_7 Fe10_2 1_555 1_555
C14_7 C15_7 1_555 1_555
C15_7 C16_7 1_555 1_555
O25_3 C4_8 1_555 1_555
N1_8 O31_3 1_555 1_555
H1_8 N1_8 1_555 1_555
C1_8 C2_8 1_555 1_555
C2_8 H2_8 1_555 1_555
C3_8 C2_8 1_555 1_555
C4_8 N1_8 1_555 1_555
C5_8 C3_8 1_555 1_555
H3_8 C5_8 1_555 1_555
O26_3 C9_8 1_555 1_555
O32_3 N2_8 1_555 1_555
N2_8 H4_8 1_555 1_555
C6_8 C1_8 1_555 1_555
C7_8 C6_8 1_555 1_555
H5_8 C7_8 1_555 1_555
C8_8 C7_8 1_555 1_555
C9_8 N2_8 1_555 1_555
C10_8 C8_8 1_555 1_555
H6_8 C10_8 1_555 1_555
O5_8 C13_8 1_555 1_555
O6_8 N3_8 1_555 1_555
N3_8 H7_8 1_555 1_555
C11_8 C1_8 1_555 1_555
H8_8 C11_8 1_555 1_555
C12_8 C5_8 1_555 1_555
C13_8 N3_8 1_555 1_555
O7_8 C16_8 1_555 1_555
O8_8 N4_8 1_555 1_555
N4_8 H9_8 1_555 1_555
C14_8 C6_8 1_555 1_555
H10_8 C14_8 1_555 1_555
C15_8 C10_8 1_555 1_555
C16_8 N4_8 1_555 1_555
Fe9_2 O5_8 1_555 1_555
Fe10_3 O7_8 1_555 1_555
C3_8 C4_8 1_555 1_555
C8_8 C9_8 1_555 1_555
O6_8 Fe9_2 1_555 1_555
C11_8 C12_8 1_555 1_555
C12_8 C13_8 1_555 1_555
O8_8 Fe10_3 1_555 1_555
C14_8 C15_8 1_555 1_555
C15_8 C16_8 1_555 1_555
O11_5 C25_5 1_555 1_555
O12_5 N6_5 1_555 1_555
N6_5 H14_5 1_555 1_555
C23_5 C22_5 1_555 1_555
H15_5 C23_5 1_555 1_555
C24_5 C23_5 1_555 1_555
C25_5 N6_5 1_555 1_555
C26_5 C24_5 1_555 1_555
H16_5 C26_5 1_555 1_555
O29_4 C32_5 1_555 1_555
O35_4 N8_5 1_555 1_555
N8_5 H19_5 1_555 1_555
C30_5 C22_5 1_555 1_555
H20_5 C30_5 1_555 1_555
C31_5 C26_5 1_555 1_555
C32_5 N8_5 1_555 1_555
Fe6 O17_5 1_555 1_555
O17_5 C36_5 1_555 1_555
O18_5 Fe6 1_555 1_555
N9_5 O18_5 1_555 1_555
H21_5 N9_5 1_555 1_555
C33_5 C34_5 1_555 1_555
C34_5 H22_5 1_555 1_555
C35_5 C34_5 1_555 1_555
C36_5 N9_5 1_555 1_555
C37_5 C35_5 1_555 1_555
H23_5 C37_5 1_555 1_555
O27_4 C45_5 1_555 1_555
O33_4 N11_5 1_555 1_555
N11_5 H27_5 1_555 1_555
C43_5 C33_5 1_555 1_555
H28_5 C43_5 1_555 1_555
C44_5 C37_5 1_555 1_555
C45_5 N11_5 1_555 1_555
Fe8_2 O11_5 1_555 1_555
O25_5 Fe6 1_555 1_555
O26_5 Fe8_2 1_555 1_555
O31_5 Fe6 1_555 1_555
O32_5 Fe8_2 1_555 1_555
O12_5 Fe8_2 1_555 1_555
C24_5 C25_5 1_555 1_555
C30_5 C31_5 1_555 1_555
C31_5 C32_5 1_555 1_555
C35_5 C36_5 1_555 1_555
C43_5 C44_5 1_555 1_555
C44_5 C45_5 1_555 1_555
Fe6_2 O1_5 1_555 1_555
O1_5 C4_9 1_555 1_555
O2_5 Fe6_2 1_555 1_555
N1_9 O2_5 1_555 1_555
H1_9 N1_9 1_555 1_555
C1_9 C2_9 1_555 1_555
C2_9 H2_9 1_555 1_555
C3_9 C2_9 1_555 1_555
C4_9 N1_9 1_555 1_555
C5_9 C3_9 1_555 1_555
H3_9 C5_9 1_555 1_555
O3_5 C9_9 1_555 1_555
O4_5 N2_9 1_555 1_555
N2_9 H4_9 1_555 1_555
C6_9 C1_9 1_555 1_555
C7_9 C6_9 1_555 1_555
H5_9 C7_9 1_555 1_555
C8_9 C7_9 1_555 1_555
C9_9 N2_9 1_555 1_555
C10_9 C8_9 1_555 1_555
H6_9 C10_9 1_555 1_555
O5_9 C13_9 1_555 1_555
O6_9 N3_9 1_555 1_555
N3_9 H7_9 1_555 1_555
C11_9 C1_9 1_555 1_555
H8_9 C11_9 1_555 1_555
C12_9 C5_9 1_555 1_555
C13_9 N3_9 1_555 1_555
O7_9 C16_9 1_555 1_555
O8_9 N4_9 1_555 1_555
N4_9 H9_9 1_555 1_555
C14_9 C6_9 1_555 1_555
H10_9 C14_9 1_555 1_555
C15_9 C10_9 1_555 1_555
C16_9 N4_9 1_555 1_555
Fe8 O3_5 1_555 1_555
O9_5 Fe6_2 1_555 1_555
O10_5 Fe6_2 1_555 1_555
N5_5 O10_5 1_555 1_555
H11_5 N5_5 1_555 1_555
C17_5 C18_5 1_555 1_555
C18_5 H12_5 1_555 1_555
C19_5 C18_5 1_555 1_555
C20_5 O9_5 1_555 1_555
C21_5 C19_5 1_555 1_555
H13_5 C21_5 1_555 1_555
O28_3 C29_5 1_555 1_555
O34_3 N7_5 1_555 1_555
N7_5 H17_5 1_555 1_555
C27_5 C17_5 1_555 1_555
H18_5 C27_5 1_555 1_555
C28_5 C21_5 1_555 1_555
C29_5 N7_5 1_555 1_555
O19_5 Fe8 1_555 1_555
O20_5 Fe8 1_555 1_555
N10_5 O20_5 1_555 1_555
H24_5 N10_5 1_555 1_555
C39_5 C38_5 1_555 1_555
H25_5 C39_5 1_555 1_555
C40_5 C39_5 1_555 1_555
C41_5 O19_5 1_555 1_555
C42_5 C40_5 1_555 1_555
H26_5 C42_5 1_555 1_555
O30_3 C48_5 1_555 1_555
O36_3 N12_5 1_555 1_555
N12_5 H29_5 1_555 1_555
C46_5 C38_5 1_555 1_555
H30_5 C46_5 1_555 1_555
C47_5 C42_5 1_555 1_555
C48_5 N12_5 1_555 1_555
Fe9_2 O5_9 1_555 1_555
Fe10 O7_9 1_555 1_555
C3_9 C4_9 1_555 1_555
O4_5 Fe8 1_555 1_555
C8_9 C9_9 1_555 1_555
O6_9 Fe9_2 1_555 1_555
C11_9 C12_9 1_555 1_555
C12_9 C13_9 1_555 1_555
O8_9 Fe10 1_555 1_555
C14_9 C15_9 1_555 1_555
C15_9 C16_9 1_555 1_555
N5_5 C20_5 1_555 1_555
C19_5 C20_5 1_555 1_555
C27_5 C28_5 1_555 1_555
C28_5 C29_5 1_555 1_555
N10_5 C41_5 1_555 1_555
C40_5 C41_5 1_555 1_555
C46_5 C47_5 1_555 1_555
C47_5 C48_5 1_555 1_555
O11_6 C25_6 1_555 1_555
O12_6 N6_6 1_555 1_555
N6_6 H14_6 1_555 1_555
C23_6 C22_6 1_555 1_555
H15_6 C23_6 1_555 1_555
C24_6 C23_6 1_555 1_555
C25_6 N6_6 1_555 1_555
C26_6 C24_6 1_555 1_555
H16_6 C26_6 1_555 1_555
O30_4 C32_6 1_555 1_555
O36_4 N8_6 1_555 1_555
N8_6 H19_6 1_555 1_555
C30_6 C22_6 1_555 1_555
H20_6 C30_6 1_555 1_555
C31_6 C26_6 1_555 1_555
C32_6 N8_6 1_555 1_555
Fe5_2 O17_6 1_555 1_555
O17_6 C36_6 1_555 1_555
O18_6 Fe5_2 1_555 1_555
N9_6 O18_6 1_555 1_555
H21_6 N9_6 1_555 1_555
C33_6 C34_6 1_555 1_555
C34_6 H22_6 1_555 1_555
C35_6 C34_6 1_555 1_555
C36_6 N9_6 1_555 1_555
C37_6 C35_6 1_555 1_555
H23_6 C37_6 1_555 1_555
O28_4 C45_6 1_555 1_555
O34_4 N11_6 1_555 1_555
N11_6 H27_6 1_555 1_555
C43_6 C33_6 1_555 1_555
H28_6 C43_6 1_555 1_555
C44_6 C37_6 1_555 1_555
C45_6 N11_6 1_555 1_555
Fe7 O11_6 1_555 1_555
O25_6 Fe5_2 1_555 1_555
O26_6 Fe7 1_555 1_555
O31_6 Fe5_2 1_555 1_555
O32_6 Fe7 1_555 1_555
O12_6 Fe7 1_555 1_555
C24_6 C25_6 1_555 1_555
C30_6 C31_6 1_555 1_555
C31_6 C32_6 1_555 1_555
C35_6 C36_6 1_555 1_555
C43_6 C44_6 1_555 1_555
C44_6 C45_6 1_555 1_555
Fe5 O1_6 1_555 1_555
O1_6 C4_10 1_555 1_555
O2_6 Fe5 1_555 1_555
N1_10 O2_6 1_555 1_555
H1_10 N1_10 1_555 1_555
C1_10 C2_10 1_555 1_555
C2_10 H2_10 1_555 1_555
C3_10 C2_10 1_555 1_555
C4_10 N1_10 1_555 1_555
C5_10 C3_10 1_555 1_555
H3_10 C5_10 1_555 1_555
O3_6 C9_10 1_555 1_555
O4_6 N2_10 1_555 1_555
N2_10 H4_10 1_555 1_555
C6_10 C1_10 1_555 1_555
C7_10 C6_10 1_555 1_555
H5_10 C7_10 1_555 1_555
C8_10 C7_10 1_555 1_555
C9_10 N2_10 1_555 1_555
C10_10 C8_10 1_555 1_555
H6_10 C10_10 1_555 1_555
O5_10 C13_10 1_555 1_555
O6_10 N3_10 1_555 1_555
N3_10 H7_10 1_555 1_555
C11_10 C1_10 1_555 1_555
H8_10 C11_10 1_555 1_555
C12_10 C5_10 1_555 1_555
C13_10 N3_10 1_555 1_555
O7_10 C16_10 1_555 1_555
O8_10 N4_10 1_555 1_555
N4_10 H9_10 1_555 1_555
C14_10 C6_10 1_555 1_555
H10_10 C14_10 1_555 1_555
C15_10 C10_10 1_555 1_555
C16_10 N4_10 1_555 1_555
Fe7_2 O3_6 1_555 1_555
O9_6 Fe5 1_555 1_555
O10_6 Fe5 1_555 1_555
N5_6 O10_6 1_555 1_555
H11_6 N5_6 1_555 1_555
C17_6 C18_6 1_555 1_555
C18_6 H12_6 1_555 1_555
C19_6 C18_6 1_555 1_555
C20_6 O9_6 1_555 1_555
C21_6 C19_6 1_555 1_555
H13_6 C21_6 1_555 1_555
O27_3 C29_6 1_555 1_555
O33_3 N7_6 1_555 1_555
N7_6 H17_6 1_555 1_555
C27_6 C17_6 1_555 1_555
H18_6 C27_6 1_555 1_555
C28_6 C21_6 1_555 1_555
C29_6 N7_6 1_555 1_555
O19_6 Fe7_2 1_555 1_555
O20_6 Fe7_2 1_555 1_555
N10_6 O20_6 1_555 1_555
H24_6 N10_6 1_555 1_555
C39_6 C38_6 1_555 1_555
H25_6 C39_6 1_555 1_555
C40_6 C39_6 1_555 1_555
C41_6 O19_6 1_555 1_555
C42_6 C40_6 1_555 1_555
H26_6 C42_6 1_555 1_555
O29_3 C48_6 1_555 1_555
O35_3 N12_6 1_555 1_555
N12_6 H29_6 1_555 1_555
C46_6 C38_6 1_555 1_555
H30_6 C46_6 1_555 1_555
C47_6 C42_6 1_555 1_555
C48_6 N12_6 1_555 1_555
Fe9_4 O5_10 1_555 1_555
Fe10_3 O7_10 1_555 1_555
C3_10 C4_10 1_555 1_555
O4_6 Fe7_2 1_555 1_555
C8_10 C9_10 1_555 1_555
O6_10 Fe9_4 1_555 1_555
C11_10 C12_10 1_555 1_555
C12_10 C13_10 1_555 1_555
O8_10 Fe10_3 1_555 1_555
C14_10 C15_10 1_555 1_555
C15_10 C16_10 1_555 1_555
N5_6 C20_6 1_555 1_555
C19_6 C20_6 1_555 1_555
C27_6 C28_6 1_555 1_555
C28_6 C29_6 1_555 1_555
N10_6 C41_6 1_555 1_555
C40_6 C41_6 1_555 1_555
C46_6 C47_6 1_555 1_555
C47_6 C48_6 1_555 1_555
O25_6 C4_11 1_555 1_555
N1_11 O31_6 1_555 1_555
H1_11 N1_11 1_555 1_555
C1_11 C2_11 1_555 1_555
C2_11 H2_11 1_555 1_555
C3_11 C2_11 1_555 1_555
C4_11 N1_11 1_555 1_555
C5_11 C3_11 1_555 1_555
H3_11 C5_11 1_555 1_555
O26_6 C9_11 1_555 1_555
O32_6 N2_11 1_555 1_555
N2_11 H4_11 1_555 1_555
C6_11 C1_11 1_555 1_555
C7_11 C6_11 1_555 1_555
H5_11 C7_11 1_555 1_555
C8_11 C7_11 1_555 1_555
C9_11 N2_11 1_555 1_555
C10_11 C8_11 1_555 1_555
H6_11 C10_11 1_555 1_555
O5_11 C13_11 1_555 1_555
O6_11 N3_11 1_555 1_555
N3_11 H7_11 1_555 1_555
C11_11 C1_11 1_555 1_555
H8_11 C11_11 1_555 1_555
C12_11 C5_11 1_555 1_555
C13_11 N3_11 1_555 1_555
O7_11 C16_11 1_555 1_555
O8_11 N4_11 1_555 1_555
N4_11 H9_11 1_555 1_555
C14_11 C6_11 1_555 1_555
H10_11 C14_11 1_555 1_555
C15_11 C10_11 1_555 1_555
C16_11 N4_11 1_555 1_555
Fe9_3 O5_11 1_555 1_555
Fe10_4 O7_11 1_555 1_555
C3_11 C4_11 1_555 1_555
C8_11 C9_11 1_555 1_555
O6_11 Fe9_3 1_555 1_555
C11_11 C12_11 1_555 1_555
C12_11 C13_11 1_555 1_555
O8_11 Fe10_4 1_555 1_555
C14_11 C15_11 1_555 1_555
C15_11 C16_11 1_555 1_555
O25_5 C4_12 1_555 1_555
N1_12 O31_5 1_555 1_555
H1_12 N1_12 1_555 1_555
C1_12 C2_12 1_555 1_555
C2_12 H2_12 1_555 1_555
C3_12 C2_12 1_555 1_555
C4_12 N1_12 1_555 1_555
C5_12 C3_12 1_555 1_555
H3_12 C5_12 1_555 1_555
O26_5 C9_12 1_555 1_555
O32_5 N2_12 1_555 1_555
N2_12 H4_12 1_555 1_555
C6_12 C1_12 1_555 1_555
C7_12 C6_12 1_555 1_555
H5_12 C7_12 1_555 1_555
C8_12 C7_12 1_555 1_555
C9_12 N2_12 1_555 1_555
C10_12 C8_12 1_555 1_555
H6_12 C10_12 1_555 1_555
O5_12 C13_12 1_555 1_555
O6_12 N3_12 1_555 1_555
N3_12 H7_12 1_555 1_555
C11_12 C1_12 1_555 1_555
H8_12 C11_12 1_555 1_555
C12_12 C5_12 1_555 1_555
C13_12 N3_12 1_555 1_555
O7_12 C16_12 1_555 1_555
O8_12 N4_12 1_555 1_555
N4_12 H9_12 1_555 1_555
C14_12 C6_12 1_555 1_555
H10_12 C14_12 1_555 1_555
C15_12 C10_12 1_555 1_555
C16_12 N4_12 1_555 1_555
Fe9 O5_12 1_555 1_555
Fe10_2 O7_12 1_555 1_555
C3_12 C4_12 1_555 1_555
C8_12 C9_12 1_555 1_555
O6_12 Fe9 1_555 1_555
C11_12 C12_12 1_555 1_555
C12_12 C13_12 1_555 1_555
O8_12 Fe10_2 1_555 1_555
C14_12 C15_12 1_555 1_555
C15_12 C16_12 1_555 1_555

#END
