
###############################################################################
#
# This file contains modified crystal structure data generated from the
# MOF subset of the Cambridge Structural Database (CSD) v543 
# hosted by the Cambridge Crystallographic Data Centre (CCDC).
#
# This work is licensed under the Creative Commons
# Attribution-NonCommercial-ShareAlike 4.0 International License.
# To view a copy of this license, visit
# http://creativecommons.org/licenses/by-nc-sa/4.0/
# or send a letter to
# Creative Commons, PO Box 1866, Mountain View, CA 94042, USA.
#
# CIF created using the CSD Python API on 29 September 2022
# The structure has been converted into the P1 space group
# The structure has a 3D framework
# The original CSD entry OGUPOW is in the monoclinic crystal system
# The framework has been calculated to contain at least 10.0% void space
# The void calculation uses a probe of radius 1.32A, grid spacing 0.4
# H atom positions have been added when not included in the experimental data
#
###############################################################################

data_OGUPOW
_chemical_formula_moiety         '(C296 H236 Co38 N34 O137)n'
_symmetry_cell_setting           triclinic
_symmetry_space_group_name_H-M   'P 1'
_symmetry_Int_Tables_number      1
_space_group_name_Hall           'P 1'
loop_
_symmetry_equiv_pos_site_id
_symmetry_equiv_pos_as_xyz
1 x,y,z
_cell_length_a                   35.715(2)
_cell_length_b                   11.1336(7)
_cell_length_c                   22.1455(15)
_cell_angle_alpha                90
_cell_angle_beta                 93.091(2)
_cell_angle_gamma                90
_cell_volume                     8793.05
loop_
_atom_site_label
_atom_site_type_symbol
_atom_site_fract_x
_atom_site_fract_y
_atom_site_fract_z
Co26 Co 0.57161(3) 0.25041(11) 0.49432(6)
O33 O 0.68497(17) 0.1045(5) 0.7636(3)
O34 O 0.56053(18) 0.0716(6) 0.4967(3)
Co25 Co 0.42839(3) 0.25041(11) 0.00568(6)
Co3 Co 0.37651(3) 0.07143(11) 0.63689(6)
Co4 Co 0.63957(4) 0.37964(11) 0.43568(7)
O4 O 0.43086(17) 0.0846(6) 0.6640(3)
O10 O 0.39257(18) 0.0071(6) 0.5526(3)
O11 O 0.38889(19) 0.4665(6) 0.5628(3)
O12 O 0.42765(19) 0.5636(6) 0.5043(4)
O13 O 0.62143(18) 0.2127(6) 0.5464(3)
O14 O 0.66294(19) 0.3470(6) 0.5184(3)
O15 O 0.80108(19) 0.2778(6) 0.5899(4)
O16 O 0.81206(17) 0.0807(6) 0.5970(3)
N1 N 0.5494(2) 0.2768(7) 0.5841(4)
H5 H 0.5665 0.3231 0.6062
H6 H 0.5279 0.3219 0.5787
N3 N 0.5204(2) 0.2638(7) 0.4359(4)
H9 H 0.5211 0.3358 0.4156
H10 H 0.5210 0.2038 0.4074
N5 N 0.3294(2) 0.1363(8) 0.5853(4)
C3 C 0.49481(11) 0.0357(5) 0.6556(3)
C4 C 0.50341(13) 0.1410(5) 0.6256(3)
H14 H 0.4839 0.1897 0.6080
C5 C 0.54061(15) 0.1752(4) 0.6213(3)
C6 C 0.56921(11) 0.1040(5) 0.6470(3)
H15 H 0.5946 0.1273 0.6440
C8 C 0.4549(3) 0.0020(10) 0.6612(4)
C17 C 0.43702(16) 0.1379(4) 0.5076(3)
C18 C 0.41947(14) 0.2424(5) 0.5255(3)
H19 H 0.3970 0.2377 0.5466
C19 C 0.43474(16) 0.3538(4) 0.5127(3)
C20 C 0.46757(16) 0.3607(4) 0.4819(3)
H20 H 0.4780 0.4368 0.4732
C21 C 0.48513(14) 0.2562(5) 0.4640(3)
C22 C 0.46985(16) 0.1448(4) 0.4768(3)
H21 H 0.4819 0.0734 0.4645
C23 C 0.4214(3) 0.0162(8) 0.5221(4)
C24 C 0.4158(3) 0.4690(8) 0.5281(5)
C25 C 0.68457(14) 0.1812(5) 0.5785(3)
C26 C 0.72186(16) 0.2148(5) 0.5747(3)
H22 H 0.7280 0.2864 0.5540
C27 C 0.75022(12) 0.1436(5) 0.6011(3)
C28 C 0.74130(14) 0.0389(5) 0.6314(3)
C29 C 0.70402(16) 0.0054(4) 0.6352(3)
C30 C 0.67565(12) 0.0765(5) 0.6088(3)
H24 H 0.6502 0.0536 0.6114
C31 C 0.6538(3) 0.2524(9) 0.5454(5)
C32 C 0.7903(3) 0.1711(9) 0.5944(5)
C33 C 0.3067(3) 0.0644(10) 0.5527(6)
C34 C 0.2752(3) 0.1056(10) 0.5181(6)
H26 H 0.2597 0.0508 0.4954
C35 C 0.2671(3) 0.2265(9) 0.5174(5)
C36 C 0.2909(3) 0.3017(9) 0.5498(5)
H27 H 0.2865 0.3858 0.5491
C37 C 0.3207(3) 0.2563(9) 0.5830(6)
H28 H 0.3364 0.3105 0.6057
Co6 Co 0.67313(3) 0.92602(11) 0.75966(6)
Co9 Co 0.82687(3) 0.42602(11) 0.74034(6)
Co11 Co 0.82687(3) 0.57398(11) 0.24034(6)
Co12 Co 0.59787(3) 0.78359(11) 0.82180(6)
Co14 Co 0.59787(3) 0.21641(11) 0.32180(6)
Co16 Co 0.62349(3) 0.07143(11) 0.86311(6)
Co17 Co 0.12349(3) 0.42857(11) 0.36311(6)
Co18 Co 0.62349(3) 0.92857(11) 0.36311(6)
Co19 Co 0.86043(4) 0.12036(11) 0.56432(7)
Co20 Co 0.36043(4) 0.62036(11) 0.56432(7)
Co23 Co 0.42839(3) 0.74959(11) 0.50568(6)
Co27 Co 0.92839(3) 0.24959(11) 0.50568(6)
O21 O 0.62406(17) 0.9706(6) 0.7098(3)
O23 O 0.58331(19) 0.8274(6) 0.7329(3)
O25 O 0.55212(17) 0.8910(6) 0.8408(3)
O26 O 0.56914(17) 0.0846(6) 0.8360(3)
O28 O 0.67969(19) 0.7439(6) 0.7561(4)
O29 O 0.63398(19) 0.6458(5) 0.8004(3)
O30 O 0.63547(17) 0.1975(6) 0.7992(3)
O31 O 0.36453(17) 0.1975(6) 0.7008(3)
O36 O 0.60743(18) 0.9929(6) 0.4474(3)
O38 O 0.61111(19) 0.5335(6) 0.4372(3)
O40 O 0.57235(19) 0.4364(6) 0.4957(4)
O42 O 0.87857(18) 0.2873(6) 0.4536(3)
O44 O 0.83706(19) 0.1530(6) 0.4816(3)
O45 O 0.69892(19) 0.2222(6) 0.4101(4)
O46 O 0.68794(17) 0.4193(6) 0.4030(3)
O48 O 0.64321(16) 0.9130(5) 0.8364(3)
H30 H 0.6606 0.8816 0.8697
O50 O 0.60478(16) 0.2485(5) 0.4157(3)
O51 O 0.60478(16) 0.7515(5) 0.9157(3)
O52 O 0.89522(16) 0.2515(5) 0.5843(3)
H32 H 0.6216 0.1793 0.4270
H33 H 0.6216 0.8207 0.9270
H34 H 0.8784 0.3207 0.5730
O54 O 0.5581(2) 0.6391(7) 0.8157(4)
H36 H 0.5711 0.5783 0.8068
H37 H 0.5395 0.6485 0.7909
N6 N 0.4506(2) 0.2768(7) 0.9159(4)
H38 H 0.4335 0.3231 0.8938
H40 H 0.4721 0.3219 0.9213
N8 N 0.7688(2) 0.4276(7) 0.6867(4)
N10 N 0.7312(2) 0.9276(7) 0.8133(4)
H42 H 0.7687 0.4947 0.6624
H44 H 0.7313 0.9947 0.8376
H45 H 0.7687 0.3624 0.6612
H47 H 0.7313 0.8624 0.8388
N11 N 0.4796(2) 0.7362(7) 0.5641(4)
H48 H 0.4789 0.6642 0.5844
H50 H 0.4790 0.7962 0.5926
N13 N 0.8048(2) 0.5959(7) 0.3305(4)
N14 N 0.6952(2) 0.9041(7) 0.6695(4)
H52 H 0.8220 0.6403 0.3533
H53 H 0.6780 0.8597 0.6467
H54 H 0.7834 0.6418 0.3259
H55 H 0.7166 0.8582 0.6741
N15 N 0.1706(2) 0.3637(8) 0.4147(4)
C40 C 0.50519(11) 0.0357(5) 0.8444(3)
C41 C 0.49659(13) 0.1410(5) 0.8744(3)
H57 H 0.5161 0.1897 0.8920
C42 C 0.45939(15) 0.1752(4) 0.8787(3)
C43 C 0.43079(11) 0.1040(5) 0.8530(3)
H58 H 0.4054 0.1273 0.8560
C45 C 0.5451(3) 0.0020(10) 0.8388(4)
C46 C 0.68241(16) 0.5325(4) 0.7586(3)
C47 C 0.66600(13) 0.4237(5) 0.7730(3)
H59 H 0.6431 0.4229 0.7930
C48 C 0.68310(15) 0.3162(4) 0.7584(3)
C49 C 0.71660(15) 0.3175(4) 0.7292(3)
H60 H 0.7283 0.2440 0.7192
C50 C 0.73301(13) 0.4262(5) 0.7147(3)
C51 C 0.71591(16) 0.5337(4) 0.7294(3)
H61 H 0.7271 0.6080 0.7195
C52 C 0.6637(3) 0.6513(8) 0.7737(5)
C53 C 0.6668(3) 0.1978(9) 0.7749(5)
C54 C 0.56298(16) 0.8621(4) 0.4924(3)
C55 C 0.58053(14) 0.7576(5) 0.4745(3)
H62 H 0.6030 0.7623 0.4534
C56 C 0.56526(16) 0.6462(4) 0.4873(3)
C57 C 0.53243(16) 0.6393(4) 0.5181(3)
H63 H 0.5220 0.5632 0.5268
C58 C 0.51487(14) 0.7438(5) 0.5360(3)
C59 C 0.53015(16) 0.8552(4) 0.5232(3)
H64 H 0.5181 0.9266 0.5355
C60 C 0.5786(3) 0.9838(8) 0.4779(4)
C61 C 0.5842(3) 0.5310(8) 0.4719(5)
C62 C 0.81543(14) 0.3188(5) 0.4215(3)
C63 C 0.77814(16) 0.2852(5) 0.4253(3)
H65 H 0.7720 0.2136 0.4460
C64 C 0.74978(12) 0.3564(5) 0.3989(3)
C65 C 0.75870(14) 0.4611(5) 0.3686(3)
H66 H 0.7393 0.5097 0.3506
C66 C 0.79598(16) 0.4946(4) 0.3648(3)
C67 C 0.82435(12) 0.4235(5) 0.3912(3)
H67 H 0.8498 0.4464 0.3886
C68 C 0.8462(3) 0.2476(9) 0.4546(5)
C69 C 0.7097(3) 0.3289(9) 0.4056(5)
C70 C 0.1933(3) 0.4356(10) 0.4473(6)
H68 H 0.1880 0.5193 0.4473
C71 C 0.2248(3) 0.3944(10) 0.4819(6)
H69 H 0.2403 0.4492 0.5046
C72 C 0.2329(3) 0.2735(9) 0.4826(5)
C73 C 0.2091(3) 0.1983(9) 0.4502(5)
H70 H 0.2135 0.1142 0.4509
C74 C 0.1793(3) 0.2437(9) 0.4170(6)
H71 H 0.1636 0.1895 0.3943
H74 H 0.752987 0.926518 0.78571
H75 H 0.617002 0.672975 0.924806
H76 H 0.700286 0.984513 0.649962
O3 O 0.44788(17) 0.8910(6) 0.6592(3)
O9 O 0.43947(18) 0.9284(6) 0.5033(3)
C1 C 0.56060(13) 0.9987(5) 0.6770(3)
C2 C 0.52341(15) 0.9646(4) 0.6813(3)
H13 H 0.5175 0.8926 0.7018
C7 C 0.5916(3) 0.9282(9) 0.7089(4)
H23 H 0.7607 0.9903 0.6494
H25 H 0.3120 0.9807 0.5527
Co10 Co 0.32687(3) 0.92602(11) 0.74034(6)
Co13 Co 0.40213(3) 0.78359(11) 0.67820(6)
Co21 Co 0.63957(4) 0.62036(11) 0.93568(7)
Co24 Co 0.57161(3) 0.74959(11) 0.99432(6)
O20 O 0.37594(17) 0.9706(6) 0.7902(3)
O22 O 0.41669(19) 0.8274(6) 0.7671(3)
O37 O 0.60743(18) 0.0071(6) 0.9474(3)
O39 O 0.88889(19) 0.9665(6) 0.5628(3)
O43 O 0.37857(18) 0.7873(6) 0.4536(3)
O47 O 0.35679(16) 0.9130(5) 0.6636(3)
H29 H 0.3394 0.8816 0.6303
O53 O 0.39522(16) 0.7515(5) 0.5843(3)
H35 H 0.3784 0.8207 0.5730
N7 N 0.4506(2) 0.7232(7) 0.4159(4)
H39 H 0.4335 0.6769 0.3938
H41 H 0.4721 0.6781 0.4213
N16 N 0.6706(2) 0.1363(8) 0.9147(4)
C38 C 0.43940(13) 0.9987(5) 0.8230(3)
C39 C 0.47659(15) 0.9646(4) 0.8187(3)
H56 H 0.4825 0.8926 0.7982
C44 C 0.4084(3) 0.9282(9) 0.7911(4)
H72 H 0.455465 0.80254 0.395151
H77 H 0.502829 0.742475 0.539826
O34_2 O 0.43947(18) 0.0716(6) 0.0033(3)
O33_2 O 0.31503(17) 0.1045(5) 0.7364(3)
Co4_2 Co 0.36043(4) 0.37964(11) 0.06432(7)
N3_2 N 0.4796(2) 0.2638(7) 0.0641(4)
H9_2 H 0.4789 0.3358 0.0844
H10_2 H 0.4790 0.2038 0.0926
C20_2 C 0.53243(16) 0.3607(4) 0.0181(3)
H20_2 H 0.5220 0.4368 0.0268
C21_2 C 0.51487(14) 0.2562(5) 0.0360(3)
C22_2 C 0.53015(16) 0.1448(4) 0.0232(3)
H21_2 H 0.5181 0.0734 0.0355
H26_2 H 0.7403 0.0508 0.0046
Co11_2 Co 0.17313(3) 0.57398(11) 0.25966(6)
Co14_2 Co 0.40213(3) 0.21641(11) 0.17820(6)
Co17_2 Co 0.87651(3) 0.42857(11) 0.13689(6)
Co18_2 Co 0.37651(3) 0.92857(11) 0.13689(6)
O36_2 O 0.39257(18) 0.9929(6) 0.0526(3)
O38_2 O 0.38889(19) 0.5335(6) 0.0628(3)
O40_2 O 0.42765(19) 0.4364(6) 0.0043(4)
O42_2 O 0.12143(18) 0.2873(6) 0.0464(3)
O44_2 O 0.16294(19) 0.1530(6) 0.0184(3)
O45_2 O 0.30108(19) 0.2222(6) 0.0899(4)
O46_2 O 0.31206(17) 0.4193(6) 0.0970(3)
O50_2 O 0.39522(16) 0.2485(5) 0.0843(3)
H32_2 H 0.3784 0.1793 0.0730
N13_2 N 0.1952(2) 0.5959(7) 0.1695(4)
H52_2 H 0.1780 0.6403 0.1467
H54_2 H 0.2166 0.6418 0.1741
N15_2 N 0.8294(2) 0.3637(8) 0.0853(4)
C54_2 C 0.43702(16) 0.8621(4) 0.0076(3)
C55_2 C 0.41947(14) 0.7576(5) 0.0255(3)
H62_2 H 0.3970 0.7623 0.0466
C56_2 C 0.43474(16) 0.6462(4) 0.0127(3)
C60_2 C 0.4214(3) 0.9838(8) 0.0221(4)
C61_2 C 0.4158(3) 0.5310(8) 0.0281(5)
C62_2 C 0.18457(14) 0.3188(5) 0.0785(3)
C63_2 C 0.22186(16) 0.2852(5) 0.0747(3)
H65_2 H 0.2280 0.2136 0.0540
C64_2 C 0.25022(12) 0.3564(5) 0.1011(3)
C65_2 C 0.24130(14) 0.4611(5) 0.1314(3)
H66_2 H 0.2607 0.5097 0.1494
C66_2 C 0.20402(16) 0.4946(4) 0.1352(3)
C67_2 C 0.17565(12) 0.4235(5) 0.1088(3)
H67_2 H 0.1502 0.4464 0.1114
C68_2 C 0.1538(3) 0.2476(9) 0.0454(5)
C69_2 C 0.2903(3) 0.3289(9) 0.0944(5)
C70_2 C 0.8067(3) 0.4356(10) 0.0527(6)
H68_2 H 0.8120 0.5193 0.0527
C71_2 C 0.7752(3) 0.3944(10) 0.0181(6)
C72_2 C 0.7671(3) 0.2735(9) 0.0174(5)
C73_2 C 0.7909(3) 0.1983(9) 0.0498(5)
H70_2 H 0.7865 0.1142 0.0491
C74_2 C 0.8207(3) 0.2437(9) 0.0830(6)
H71_2 H 0.8364 0.1895 0.1057
O11_2 O 0.61111(19) 0.4665(6) 0.9372(3)
O12_2 O 0.57235(19) 0.5636(6) 0.9957(4)
O13_2 O 0.37857(18) 0.2127(6) 0.9536(3)
O14_2 O 0.33706(19) 0.3470(6) 0.9816(3)
O15_2 O 0.19892(19) 0.2778(6) 0.9101(4)
O16_2 O 0.18794(17) 0.0807(6) 0.9030(3)
C17_2 C 0.56298(16) 0.1379(4) 0.9924(3)
C18_2 C 0.58053(14) 0.2424(5) 0.9745(3)
H19_2 H 0.6030 0.2377 0.9534
C19_2 C 0.56526(16) 0.3538(4) 0.9873(3)
C23_2 C 0.5786(3) 0.0162(8) 0.9779(4)
C24_2 C 0.5842(3) 0.4690(8) 0.9719(5)
C25_2 C 0.31543(14) 0.1812(5) 0.9215(3)
C26_2 C 0.27814(16) 0.2148(5) 0.9253(3)
H22_2 H 0.2720 0.2864 0.9460
C27_2 C 0.24978(12) 0.1436(5) 0.8989(3)
C28_2 C 0.25870(14) 0.0389(5) 0.8686(3)
C29_2 C 0.29598(16) 0.0054(4) 0.8648(3)
C30_2 C 0.32435(12) 0.0765(5) 0.8912(3)
H24_2 H 0.3498 0.0536 0.8886
C31_2 C 0.3462(3) 0.2524(9) 0.9546(5)
C32_2 C 0.2097(3) 0.1711(9) 0.9056(5)
C33_2 C 0.6933(3) 0.0644(10) 0.9473(6)
C34_2 C 0.7248(3) 0.1056(10) 0.9819(6)
C35_2 C 0.7329(3) 0.2265(9) 0.9826(5)
C36_2 C 0.7091(3) 0.3017(9) 0.9502(5)
H27_2 H 0.7135 0.3858 0.9509
C37_2 C 0.6793(3) 0.2563(9) 0.9170(6)
H28_2 H 0.6636 0.3105 0.8943
Co9_2 Co 0.17313(3) 0.42602(11) 0.75966(6)
Co19_2 Co 0.13957(4) 0.12036(11) 0.93568(7)
Co27_2 Co 0.07161(3) 0.24959(11) 0.99432(6)
O28_2 O 0.32031(19) 0.7439(6) 0.7439(4)
O29_2 O 0.36602(19) 0.6458(5) 0.6996(3)
O52_2 O 0.10478(16) 0.2515(5) 0.9157(3)
H34_2 H 0.1216 0.3207 0.9270
O54_2 O 0.4419(2) 0.6391(7) 0.6843(4)
H36_2 H 0.4289 0.5783 0.6932
H37_2 H 0.4605 0.6485 0.7091
N8_2 N 0.2312(2) 0.4276(7) 0.8133(4)
N10_2 N 0.2688(2) 0.9276(7) 0.6867(4)
H42_2 H 0.2313 0.4947 0.8376
H44_2 H 0.2687 0.9947 0.6624
H45_2 H 0.2313 0.3624 0.8388
H47_2 H 0.2687 0.8624 0.6612
N11_2 N 0.5204(2) 0.7362(7) 0.9359(4)
H48_2 H 0.5211 0.6642 0.9156
H50_2 H 0.5210 0.7962 0.9074
N14_2 N 0.3048(2) 0.9041(7) 0.8305(4)
H53_2 H 0.3220 0.8597 0.8533
H55_2 H 0.2834 0.8582 0.8259
C46_2 C 0.31759(16) 0.5325(4) 0.7414(3)
C47_2 C 0.33400(13) 0.4237(5) 0.7270(3)
H59_2 H 0.3569 0.4229 0.7070
C48_2 C 0.31690(15) 0.3162(4) 0.7416(3)
C49_2 C 0.28340(15) 0.3175(4) 0.7708(3)
H60_2 H 0.2717 0.2440 0.7808
C50_2 C 0.26699(13) 0.4262(5) 0.7853(3)
C51_2 C 0.28409(16) 0.5337(4) 0.7706(3)
H61_2 H 0.2729 0.6080 0.7805
C52_2 C 0.3363(3) 0.6513(8) 0.7263(5)
C53_2 C 0.3332(3) 0.1978(9) 0.7251(5)
C57_2 C 0.46757(16) 0.6393(4) 0.9819(3)
H63_2 H 0.4780 0.5632 0.9732
C58_2 C 0.48513(14) 0.7438(5) 0.9640(3)
C59_2 C 0.46985(16) 0.8552(4) 0.9768(3)
H64_2 H 0.4819 0.9266 0.9645
H69_2 H 0.7597 0.4492 0.9954
H74_2 H 0.247013 0.926518 0.71429
H75_2 H 0.382998 0.672975 0.575194
H76_2 H 0.299714 0.984513 0.850038
O43_2 O 0.62143(18) 0.7873(6) 0.0464(3)
N7_2 N 0.5494(2) 0.7232(7) 0.0841(4)
H39_2 H 0.5665 0.6769 0.1062
H41_2 H 0.5279 0.6781 0.0787
H72_2 H 0.544535 0.80254 0.104849
O9_2 O 0.56053(18) 0.9284(6) 0.9967(3)
H23_2 H 0.2393 0.9903 0.8506
H25_2 H 0.6880 0.9807 0.9473
O39_2 O 0.11111(19) 0.9665(6) 0.9372(3)
H77_2 H 0.497171 0.742475 0.960174
Co11_3 Co 0.32687(3) 0.07398(11) 0.24034(6)
Co12_2 Co 0.09787(3) 0.28359(11) 0.82180(6)
Co26_2 Co 0.07161(3) 0.75041(11) 0.49432(6)
O21_2 O 0.12406(17) 0.4706(6) 0.7098(3)
O23_2 O 0.08331(19) 0.3274(6) 0.7329(3)
O25_2 O 0.05212(17) 0.3910(6) 0.8408(3)
O28_3 O 0.17969(19) 0.2439(6) 0.7561(4)
O29_3 O 0.13398(19) 0.1458(5) 0.8004(3)
O33_3 O 0.18497(17) 0.6045(5) 0.7636(3)
O34_3 O 0.06053(18) 0.5716(6) 0.4967(3)
O36_3 O 0.10743(18) 0.4929(6) 0.4474(3)
O38_3 O 0.11111(19) 0.0335(6) 0.4372(3)
O48_2 O 0.14321(16) 0.4130(5) 0.8364(3)
H30_2 H 0.1606 0.3816 0.8697
O54_3 O 0.0581(2) 0.1391(7) 0.8157(4)
H36_3 H 0.0711 0.0783 0.8068
H37_3 H 0.0395 0.1485 0.7909
N13_3 N 0.3048(2) 0.0959(7) 0.3305(4)
N14_3 N 0.1952(2) 0.4041(7) 0.6695(4)
H52_3 H 0.3220 0.1403 0.3533
H53_3 H 0.1780 0.3597 0.6467
H54_3 H 0.2834 0.1418 0.3259
H55_3 H 0.2166 0.3582 0.6741
C46_3 C 0.18241(16) 0.0325(4) 0.7586(3)
C51_3 C 0.21591(16) 0.0337(4) 0.7294(3)
H61_3 H 0.2271 0.1080 0.7195
C52_3 C 0.1637(3) 0.1513(8) 0.7737(5)
C54_3 C 0.06298(16) 0.3621(4) 0.4924(3)
C55_3 C 0.08053(14) 0.2576(5) 0.4745(3)
H62_3 H 0.1030 0.2623 0.4534
C56_3 C 0.06526(16) 0.1462(4) 0.4873(3)
C57_3 C 0.03243(16) 0.1393(4) 0.5181(3)
H63_3 H 0.0220 0.0632 0.5268
C58_3 C 0.01487(14) 0.2438(5) 0.5360(3)
C59_3 C 0.03015(16) 0.3552(4) 0.5232(3)
H64_3 H 0.0181 0.4266 0.5355
C60_3 C 0.0786(3) 0.4838(8) 0.4779(4)
C61_3 C 0.0842(3) 0.0310(8) 0.4719(5)
H66_3 H 0.2393 0.0097 0.3506
H74_3 H 0.252987 0.426518 0.78571
H75_3 H 0.117002 0.172975 0.924806
H76_3 H 0.200286 0.484513 0.649962
Co4_3 Co 0.13957(4) 0.87964(11) 0.43568(7)
O13_3 O 0.12143(18) 0.7127(6) 0.5464(3)
O14_3 O 0.16294(19) 0.8470(6) 0.5184(3)
O15_3 O 0.30108(19) 0.7778(6) 0.5899(4)
O16_3 O 0.31206(17) 0.5807(6) 0.5970(3)
N1_2 N 0.0494(2) 0.7768(7) 0.5841(4)
H5_2 H 0.0665 0.8231 0.6062
H6_2 H 0.0279 0.8219 0.5787
N3_3 N 0.0204(2) 0.7638(7) 0.4359(4)
H9_3 H 0.0211 0.8358 0.4156
H10_3 H 0.0210 0.7038 0.4074
C1_2 C 0.06060(13) 0.4987(5) 0.6770(3)
C2_2 C 0.02341(15) 0.4646(4) 0.6813(3)
H13_2 H 0.0175 0.3926 0.7018
C4_2 C 0.00341(13) 0.6410(5) 0.6256(3)
C5_2 C 0.04061(15) 0.6752(4) 0.6213(3)
C6_2 C 0.06921(11) 0.6040(5) 0.6470(3)
H15_2 H 0.0946 0.6273 0.6440
C7_2 C 0.0916(3) 0.4282(9) 0.7089(4)
C25_3 C 0.18457(14) 0.6812(5) 0.5785(3)
C26_3 C 0.22186(16) 0.7148(5) 0.5747(3)
H22_3 H 0.2280 0.7864 0.5540
C27_3 C 0.25022(12) 0.6436(5) 0.6011(3)
C28_3 C 0.24130(14) 0.5389(5) 0.6314(3)
H23_3 H 0.2607 0.4903 0.6494
C29_3 C 0.20402(16) 0.5054(4) 0.6352(3)
C30_3 C 0.17565(12) 0.5765(5) 0.6088(3)
H24_3 H 0.1502 0.5536 0.6114
C31_3 C 0.1538(3) 0.7524(9) 0.5454(5)
C32_3 C 0.2903(3) 0.6711(9) 0.5944(5)
Co14_3 Co 0.09787(3) 0.71641(11) 0.32180(6)
Co16_2 Co 0.12349(3) 0.57143(11) 0.86311(6)
O26_2 O 0.06914(17) 0.5846(6) 0.8360(3)
O30_2 O 0.13547(17) 0.6975(6) 0.7992(3)
O40_3 O 0.07235(19) 0.9364(6) 0.4957(4)
O44_3 O 0.33706(19) 0.6530(6) 0.4816(3)
O45_3 O 0.19892(19) 0.7222(6) 0.4101(4)
O46_3 O 0.18794(17) 0.9193(6) 0.4030(3)
O50_3 O 0.10478(16) 0.7485(5) 0.4157(3)
H32_3 H 0.1216 0.6793 0.4270
C40_2 C 0.00519(11) 0.5357(5) 0.8444(3)
H57_2 H 0.0161 0.6897 0.8920
C45_2 C 0.0451(3) 0.5020(10) 0.8388(4)
C47_3 C 0.16600(13) 0.9237(5) 0.7730(3)
H59_3 H 0.1431 0.9229 0.7930
C48_3 C 0.18310(15) 0.8162(4) 0.7584(3)
C49_3 C 0.21660(15) 0.8175(4) 0.7292(3)
H60_3 H 0.2283 0.7440 0.7192
C50_3 C 0.23301(13) 0.9262(5) 0.7147(3)
C53_3 C 0.1668(3) 0.6978(9) 0.7749(5)
C62_3 C 0.31543(14) 0.8188(5) 0.4215(3)
C63_3 C 0.27814(16) 0.7852(5) 0.4253(3)
H65_3 H 0.2720 0.7136 0.4460
C64_3 C 0.24978(12) 0.8564(5) 0.3989(3)
C65_3 C 0.25870(14) 0.9611(5) 0.3686(3)
C66_3 C 0.29598(16) 0.9946(4) 0.3648(3)
C67_3 C 0.32435(12) 0.9235(5) 0.3912(3)
H67_3 H 0.3498 0.9464 0.3886
C68_3 C 0.3462(3) 0.7476(9) 0.4546(5)
C69_3 C 0.2097(3) 0.8289(9) 0.4056(5)
H77_3 H 0.00282911 0.242475 0.539826
O37_2 O 0.10743(18) 0.5071(6) 0.9474(3)
N16_2 N 0.1706(2) 0.6363(8) 0.9147(4)
O12_3 O 0.92765(19) 0.0636(6) 0.5043(4)
N11_3 N 0.9796(2) 0.2362(7) 0.5641(4)
H48_3 H 0.9789 0.1642 0.5844
H50_3 H 0.9790 0.2962 0.5926
H68_3 H 0.6880 0.0193 0.4473
Co25_2 Co 0.92839(3) 0.75041(11) 0.00568(6)
Co3_2 Co 0.87651(3) 0.57143(11) 0.63689(6)
O3_2 O 0.94788(17) 0.3910(6) 0.6592(3)
O4_2 O 0.93086(17) 0.5846(6) 0.6640(3)
O9_3 O 0.93947(18) 0.4284(6) 0.5033(3)
O10_2 O 0.89257(18) 0.5071(6) 0.5526(3)
N5_2 N 0.8294(2) 0.6363(8) 0.5853(4)
C3_2 C 0.99481(11) 0.5357(5) 0.6556(3)
H14_2 H 0.9839 0.6897 0.6080
C8_2 C 0.9549(3) 0.5020(10) 0.6612(4)
C17_3 C 0.93702(16) 0.6379(4) 0.5076(3)
C18_3 C 0.91947(14) 0.7424(5) 0.5255(3)
H19_3 H 0.8970 0.7377 0.5466
C19_3 C 0.93474(16) 0.8538(4) 0.5127(3)
C20_3 C 0.96757(16) 0.8607(4) 0.4819(3)
H20_3 H 0.9780 0.9368 0.4732
C21_3 C 0.98513(14) 0.7562(5) 0.4640(3)
C22_3 C 0.96985(16) 0.6448(4) 0.4768(3)
H21_3 H 0.9819 0.5734 0.4645
C23_3 C 0.9214(3) 0.5162(8) 0.5221(4)
C24_3 C 0.9158(3) 0.9690(8) 0.5281(5)
C33_3 C 0.8067(3) 0.5644(10) 0.5527(6)
H25_3 H 0.8120 0.4807 0.5527
C34_3 C 0.7752(3) 0.6056(10) 0.5181(6)
H26_3 H 0.7597 0.5508 0.4954
C35_3 C 0.7671(3) 0.7265(9) 0.5174(5)
C36_3 C 0.7909(3) 0.8017(9) 0.5498(5)
H27_3 H 0.7865 0.8858 0.5491
C37_3 C 0.8207(3) 0.7563(9) 0.5830(6)
H28_3 H 0.8364 0.8105 0.6057
Co13_2 Co 0.90213(3) 0.28359(11) 0.67820(6)
O20_2 O 0.87594(17) 0.4706(6) 0.7902(3)
O22_2 O 0.91669(19) 0.3274(6) 0.7671(3)
O31_2 O 0.86453(17) 0.6975(6) 0.7008(3)
O47_2 O 0.85679(16) 0.4130(5) 0.6636(3)
H29_2 H 0.8394 0.3816 0.6303
N6_2 N 0.9506(2) 0.7768(7) 0.9159(4)
N7_3 N 0.9506(2) 0.2232(7) 0.4159(4)
H38_2 H 0.9335 0.8231 0.8938
H39_3 H 0.9335 0.1769 0.3938
H40_2 H 0.9721 0.8219 0.9213
H41_3 H 0.9721 0.1781 0.4213
N15_3 N 0.6706(2) 0.8637(8) 0.4147(4)
C38_2 C 0.93940(13) 0.4987(5) 0.8230(3)
C39_2 C 0.97659(15) 0.4646(4) 0.8187(3)
H56_2 H 0.9825 0.3926 0.7982
C41_2 C 0.99659(13) 0.6410(5) 0.8744(3)
C42_2 C 0.95939(15) 0.6752(4) 0.8787(3)
C43_2 C 0.93079(11) 0.6040(5) 0.8530(3)
H58_2 H 0.9054 0.6273 0.8560
C44_2 C 0.9084(3) 0.4282(9) 0.7911(4)
C70_3 C 0.6933(3) 0.9356(10) 0.4473(6)
C71_3 C 0.7248(3) 0.8944(10) 0.4819(6)
H69_3 H 0.7403 0.9492 0.5046
C72_3 C 0.7329(3) 0.7735(9) 0.4826(5)
C73_3 C 0.7091(3) 0.6983(9) 0.4502(5)
H70_3 H 0.7135 0.6142 0.4509
C74_3 C 0.6793(3) 0.7437(9) 0.4170(6)
H71_3 H 0.6636 0.6895 0.3943
H72_3 H 0.955465 0.30254 0.395151
H68_4 H 0.3120 0.0193 0.0527
O12_4 O 0.07235(19) 0.0636(6) 0.9957(4)
N11_4 N 0.0204(2) 0.2362(7) 0.9359(4)
H48_4 H 0.0211 0.1642 0.9156
H50_4 H 0.0210 0.2962 0.9074
C20_4 C 0.03243(16) 0.8607(4) 0.0181(3)
H20_4 H 0.0220 0.9368 0.0268
C21_4 C 0.01487(14) 0.7562(5) 0.0360(3)
C22_4 C 0.03015(16) 0.6448(4) 0.0232(3)
H21_4 H 0.0181 0.5734 0.0355
H26_4 H 0.2403 0.5508 0.0046
N7_4 N 0.0494(2) 0.2232(7) 0.0841(4)
H39_4 H 0.0665 0.1769 0.1062
H41_4 H 0.0279 0.1781 0.0787
N15_4 N 0.3294(2) 0.8637(8) 0.0853(4)
C70_4 C 0.3067(3) 0.9356(10) 0.0527(6)
C71_4 C 0.2752(3) 0.8944(10) 0.0181(6)
C72_4 C 0.2671(3) 0.7735(9) 0.0174(5)
C73_4 C 0.2909(3) 0.6983(9) 0.0498(5)
H70_4 H 0.2865 0.6142 0.0491
C74_4 C 0.3207(3) 0.7437(9) 0.0830(6)
H71_4 H 0.3364 0.6895 0.1057
H72_4 H 0.0445347 0.30254 0.104849
O9_4 O 0.06053(18) 0.4284(6) 0.9967(3)
C17_4 C 0.06298(16) 0.6379(4) 0.9924(3)
C18_4 C 0.08053(14) 0.7424(5) 0.9745(3)
H19_4 H 0.1030 0.7377 0.9534
C19_4 C 0.06526(16) 0.8538(4) 0.9873(3)
C23_4 C 0.0786(3) 0.5162(8) 0.9779(4)
C24_4 C 0.0842(3) 0.9690(8) 0.9719(5)
C33_4 C 0.1933(3) 0.5644(10) 0.9473(6)
H25_4 H 0.1880 0.4807 0.9473
C34_4 C 0.2248(3) 0.6056(10) 0.9819(6)
C35_4 C 0.2329(3) 0.7265(9) 0.9826(5)
C36_4 C 0.2091(3) 0.8017(9) 0.9502(5)
H27_4 H 0.2135 0.8858 0.9509
C37_4 C 0.1793(3) 0.7563(9) 0.9170(6)
H28_4 H 0.1636 0.8105 0.8943
H69_4 H 0.2597 0.9492 0.9954
Co11_4 Co 0.67313(3) 0.07398(11) 0.25966(6)
O34_4 O 0.93947(18) 0.5716(6) 0.0033(3)
O36_4 O 0.89257(18) 0.4929(6) 0.0526(3)
O38_4 O 0.88889(19) 0.0335(6) 0.0628(3)
N13_4 N 0.6952(2) 0.0959(7) 0.1695(4)
H52_4 H 0.6780 0.1403 0.1467
H54_4 H 0.7166 0.1418 0.1741
C54_4 C 0.93702(16) 0.3621(4) 0.0076(3)
C55_4 C 0.91947(14) 0.2576(5) 0.0255(3)
H62_4 H 0.8970 0.2623 0.0466
C56_4 C 0.93474(16) 0.1462(4) 0.0127(3)
C60_4 C 0.9214(3) 0.4838(8) 0.0221(4)
C61_4 C 0.9158(3) 0.0310(8) 0.0281(5)
H66_4 H 0.7607 0.0097 0.1494
O28_4 O 0.82031(19) 0.2439(6) 0.7439(4)
O29_4 O 0.86602(19) 0.1458(5) 0.6996(3)
O33_4 O 0.81503(17) 0.6045(5) 0.7364(3)
O54_4 O 0.9419(2) 0.1391(7) 0.6843(4)
H36_4 H 0.9289 0.0783 0.6932
H37_4 H 0.9605 0.1485 0.7091
N14_4 N 0.8048(2) 0.4041(7) 0.8305(4)
H53_4 H 0.8220 0.3597 0.8533
H55_4 H 0.7834 0.3582 0.8259
C46_4 C 0.81759(16) 0.0325(4) 0.7414(3)
C51_4 C 0.78409(16) 0.0337(4) 0.7706(3)
H61_4 H 0.7729 0.1080 0.7805
C52_4 C 0.8363(3) 0.1513(8) 0.7263(5)
C57_4 C 0.96757(16) 0.1393(4) 0.9819(3)
H63_4 H 0.9780 0.0632 0.9732
C58_4 C 0.98513(14) 0.2438(5) 0.9640(3)
C59_4 C 0.96985(16) 0.3552(4) 0.9768(3)
H64_4 H 0.9819 0.4266 0.9645
H74_4 H 0.747013 0.426518 0.71429
H75_4 H 0.882998 0.172975 0.575194
H76_4 H 0.799714 0.484513 0.850038
Co4_4 Co 0.86043(4) 0.87964(11) 0.06432(7)
N3_4 N 0.9796(2) 0.7638(7) 0.0641(4)
H9_4 H 0.9789 0.8358 0.0844
H10_4 H 0.9790 0.7038 0.0926
Co14_4 Co 0.90213(3) 0.71641(11) 0.17820(6)
O40_4 O 0.92765(19) 0.9364(6) 0.0043(4)
O44_4 O 0.66294(19) 0.6530(6) 0.0184(3)
O45_4 O 0.80108(19) 0.7222(6) 0.0899(4)
O46_4 O 0.81206(17) 0.9193(6) 0.0970(3)
O50_4 O 0.89522(16) 0.7485(5) 0.0843(3)
H32_4 H 0.8784 0.6793 0.0730
C62_4 C 0.68457(14) 0.8188(5) 0.0785(3)
C63_4 C 0.72186(16) 0.7852(5) 0.0747(3)
H65_4 H 0.7280 0.7136 0.0540
C64_4 C 0.75022(12) 0.8564(5) 0.1011(3)
C65_4 C 0.74130(14) 0.9611(5) 0.1314(3)
C66_4 C 0.70402(16) 0.9946(4) 0.1352(3)
C67_4 C 0.67565(12) 0.9235(5) 0.1088(3)
H67_4 H 0.6502 0.9464 0.1114
C68_4 C 0.6538(3) 0.7476(9) 0.0454(5)
C69_4 C 0.7903(3) 0.8289(9) 0.0944(5)
O13_4 O 0.87857(18) 0.7127(6) 0.9536(3)
O14_4 O 0.83706(19) 0.8470(6) 0.9816(3)
O15_4 O 0.69892(19) 0.7778(6) 0.9101(4)
O16_4 O 0.68794(17) 0.5807(6) 0.9030(3)
C25_4 C 0.81543(14) 0.6812(5) 0.9215(3)
C26_4 C 0.77814(16) 0.7148(5) 0.9253(3)
H22_4 H 0.7720 0.7864 0.9460
C27_4 C 0.74978(12) 0.6436(5) 0.8989(3)
C28_4 C 0.75870(14) 0.5389(5) 0.8686(3)
H23_4 H 0.7393 0.4903 0.8506
C29_4 C 0.79598(16) 0.5054(4) 0.8648(3)
C30_4 C 0.82435(12) 0.5765(5) 0.8912(3)
H24_4 H 0.8498 0.5536 0.8886
C31_4 C 0.8462(3) 0.7524(9) 0.9546(5)
C32_4 C 0.7097(3) 0.6711(9) 0.9056(5)
C47_4 C 0.83400(13) 0.9237(5) 0.7270(3)
H59_4 H 0.8569 0.9229 0.7070
C48_4 C 0.81690(15) 0.8162(4) 0.7416(3)
C49_4 C 0.78340(15) 0.8175(4) 0.7708(3)
H60_4 H 0.7717 0.7440 0.7808
C50_4 C 0.76699(13) 0.9262(5) 0.7853(3)
C53_4 C 0.8332(3) 0.6978(9) 0.7251(5)
H77_4 H 0.997171 0.242475 0.960174
O49 O 0.35679(16) 0.0870(5) 0.1636(3)
H31 H 0.3394 0.1184 0.1303
O1 O 0.37594(17) 0.0294(6) 0.2902(3)
O2 O 0.41669(19) 0.1726(6) 0.2671(3)
O3_3 O 0.55212(17) 0.1090(6) 0.3408(3)
O5 O 0.32031(19) 0.2561(6) 0.2439(4)
O6 O 0.36602(19) 0.3542(5) 0.1996(3)
O7 O 0.36453(17) 0.8025(6) 0.2008(3)
O8 O 0.31503(17) 0.8955(5) 0.2364(3)
O19 O 0.4419(2) 0.3609(7) 0.1843(4)
H3 H 0.4289 0.4217 0.1932
H4 H 0.4605 0.3515 0.2091
N2 N 0.2312(2) 0.5724(7) 0.3133(4)
H7 H 0.2313 0.5053 0.3376
H8 H 0.2313 0.6376 0.3388
C1_3 C 0.43940(13) 0.0013(5) 0.3230(3)
C2_3 C 0.47659(15) 0.0354(4) 0.3187(3)
H13_3 H 0.4825 0.1074 0.2982
C7_3 C 0.4084(3) 0.0718(9) 0.2911(4)
C9 C 0.31759(16) 0.4675(4) 0.2414(3)
C10 C 0.33400(13) 0.5763(5) 0.2270(3)
H16 H 0.3569 0.5771 0.2070
C11 C 0.31690(15) 0.6838(4) 0.2416(3)
C12 C 0.28340(15) 0.6825(4) 0.2708(3)
H17 H 0.2717 0.7560 0.2808
C13 C 0.26699(13) 0.5738(5) 0.2853(3)
C14 C 0.28409(16) 0.4663(4) 0.2706(3)
H18 H 0.2729 0.3920 0.2805
C15 C 0.3363(3) 0.3487(8) 0.2263(5)
C16 C 0.3332(3) 0.8022(9) 0.2251(5)
O20_3 O 0.62406(17) 0.0294(6) 0.2098(3)
O22_3 O 0.58331(19) 0.1726(6) 0.2329(3)
O24 O 0.44788(17) 0.1090(6) 0.1592(3)
O27 O 0.43086(17) 0.9154(6) 0.1640(3)
O47_3 O 0.64321(16) 0.0870(5) 0.3364(3)
H29_3 H 0.6606 0.1184 0.3697
N9 N 0.2688(2) 0.0724(7) 0.1867(4)
H43 H 0.2687 0.0053 0.1624
H46 H 0.2687 0.1376 0.1612
C38_3 C 0.56060(13) 0.0013(5) 0.1770(3)
C39_3 C 0.52341(15) 0.0354(4) 0.1813(3)
H56_3 H 0.5175 0.1074 0.2018
C44_3 C 0.5916(3) 0.0718(9) 0.2089(4)
H72_5 H 0.544535 0.19746 0.604849
H73 H 0.247013 0.073482 0.21429
H77_5 H 0.497171 0.257525 0.460174
O4_3 O 0.56914(17) 0.9154(6) 0.3360(3)
C3_3 C 0.50519(11) 0.9643(5) 0.3444(3)
C4_3 C 0.49659(13) 0.8590(5) 0.3744(3)
H14_3 H 0.5161 0.8103 0.3920
C5_3 C 0.45939(15) 0.8248(4) 0.3787(3)
C6_3 C 0.43079(11) 0.8960(5) 0.3530(3)
H15_3 H 0.4054 0.8727 0.3560
C8_3 C 0.5451(3) 0.9980(10) 0.3388(4)
O31_3 O 0.63547(17) 0.8025(6) 0.2992(3)
C40_3 C 0.49481(11) 0.9643(5) 0.1556(3)
C41_3 C 0.50341(13) 0.8590(5) 0.1256(3)
H57_3 H 0.4839 0.8103 0.1080
C42_3 C 0.54061(15) 0.8248(4) 0.1213(3)
C43_3 C 0.56921(11) 0.8960(5) 0.1470(3)
H58_3 H 0.5946 0.8727 0.1440
C45_3 C 0.4549(3) 0.9980(10) 0.1612(4)
H75_5 H 0.382998 0.327025 0.0751939
H76_5 H 0.299714 0.0154866 0.350038
O5_2 O 0.67969(19) 0.2561(6) 0.2561(4)
O6_2 O 0.63398(19) 0.3542(5) 0.3004(3)
O8_2 O 0.68497(17) 0.8955(5) 0.2636(3)
O19_2 O 0.5581(2) 0.3609(7) 0.3157(4)
H3_2 H 0.5711 0.4217 0.3068
H4_2 H 0.5395 0.3515 0.2909
N2_2 N 0.7688(2) 0.5724(7) 0.1867(4)
H7_2 H 0.7687 0.5053 0.1624
H8_2 H 0.7687 0.6376 0.1612
C9_2 C 0.68241(16) 0.4675(4) 0.2586(3)
C10_2 C 0.66600(13) 0.5763(5) 0.2730(3)
H16_2 H 0.6431 0.5771 0.2930
C11_2 C 0.68310(15) 0.6838(4) 0.2584(3)
C12_2 C 0.71660(15) 0.6825(4) 0.2292(3)
H17_2 H 0.7283 0.7560 0.2192
C13_2 C 0.73301(13) 0.5738(5) 0.2147(3)
C14_2 C 0.71591(16) 0.4663(4) 0.2294(3)
H18_2 H 0.7271 0.3920 0.2195
C15_2 C 0.6637(3) 0.3487(8) 0.2737(5)
C16_2 C 0.6668(3) 0.8022(9) 0.2749(5)
N9_2 N 0.7312(2) 0.0724(7) 0.3133(4)
H43_2 H 0.7313 0.0053 0.3376
H46_2 H 0.7313 0.1376 0.3388
H73_2 H 0.752987 0.073482 0.28571
H77_6 H 0.502829 0.257525 0.0398262
H72_6 H 0.455465 0.19746 0.895151
H75_6 H 0.617002 0.327025 0.424806
H76_6 H 0.700286 0.0154866 0.149962
O3_4 O 0.05212(17) 0.6090(6) 0.3408(3)
O4_4 O 0.06914(17) 0.4154(6) 0.3360(3)
C3_4 C 0.00519(11) 0.4643(5) 0.3444(3)
H14_4 H 0.0161 0.3103 0.3920
C8_4 C 0.0451(3) 0.4980(10) 0.3388(4)
O20_4 O 0.12406(17) 0.5294(6) 0.2098(3)
O22_4 O 0.08331(19) 0.6726(6) 0.2329(3)
O31_4 O 0.13547(17) 0.3025(6) 0.2992(3)
O47_4 O 0.14321(16) 0.5870(5) 0.3364(3)
H29_4 H 0.1606 0.6184 0.3697
C38_4 C 0.06060(13) 0.5013(5) 0.1770(3)
C39_4 C 0.02341(15) 0.5354(4) 0.1813(3)
H56_4 H 0.0175 0.6074 0.2018
C41_4 C 0.00341(13) 0.3590(5) 0.1256(3)
C42_4 C 0.04061(15) 0.3248(4) 0.1213(3)
C43_4 C 0.06921(11) 0.3960(5) 0.1470(3)
H58_4 H 0.0946 0.3727 0.1440
C44_4 C 0.0916(3) 0.5718(9) 0.2089(4)
H72_7 H 0.0445347 0.69746 0.604849
O7_2 O 0.86453(17) 0.3025(6) 0.2008(3)
O8_3 O 0.81503(17) 0.3955(5) 0.2364(3)
C10_3 C 0.83400(13) 0.0763(5) 0.2270(3)
H16_3 H 0.8569 0.0771 0.2070
C11_3 C 0.81690(15) 0.1838(4) 0.2416(3)
C12_3 C 0.78340(15) 0.1825(4) 0.2708(3)
H17_3 H 0.7717 0.2560 0.2808
C13_3 C 0.76699(13) 0.0738(5) 0.2853(3)
C16_3 C 0.8332(3) 0.3022(9) 0.2251(5)
O27_2 O 0.93086(17) 0.4154(6) 0.1640(3)
O49_2 O 0.85679(16) 0.5870(5) 0.1636(3)
H31_2 H 0.8394 0.6184 0.1303
O1_2 O 0.87594(17) 0.5294(6) 0.2902(3)
O2_2 O 0.91669(19) 0.6726(6) 0.2671(3)
O5_3 O 0.82031(19) 0.7561(6) 0.2439(4)
O6_3 O 0.86602(19) 0.8542(5) 0.1996(3)
O19_3 O 0.9419(2) 0.8609(7) 0.1843(4)
H3_3 H 0.9289 0.9217 0.1932
H4_3 H 0.9605 0.8515 0.2091
C1_4 C 0.93940(13) 0.5013(5) 0.3230(3)
C2_4 C 0.97659(15) 0.5354(4) 0.3187(3)
H13_4 H 0.9825 0.6074 0.2982
C4_4 C 0.99659(13) 0.3590(5) 0.3744(3)
C5_4 C 0.95939(15) 0.3248(4) 0.3787(3)
C6_4 C 0.93079(11) 0.3960(5) 0.3530(3)
H15_4 H 0.9054 0.3727 0.3560
C7_4 C 0.9084(3) 0.5718(9) 0.2911(4)
C9_3 C 0.81759(16) 0.9675(4) 0.2414(3)
C14_3 C 0.78409(16) 0.9663(4) 0.2706(3)
H18_3 H 0.7729 0.8920 0.2805
C15_3 C 0.8363(3) 0.8487(8) 0.2263(5)
O24_2 O 0.94788(17) 0.6090(6) 0.1592(3)
C40_4 C 0.99481(11) 0.4643(5) 0.1556(3)
H57_4 H 0.9839 0.3103 0.1080
C45_4 C 0.9549(3) 0.4980(10) 0.1612(4)
H73_3 H 0.747013 0.573482 0.21429
H77_7 H 0.997171 0.757525 0.460174
H75_7 H 0.882998 0.827025 0.0751939
H76_7 H 0.799714 0.515487 0.350038
O8_4 O 0.18497(17) 0.3955(5) 0.2636(3)
C10_4 C 0.16600(13) 0.0763(5) 0.2730(3)
H16_4 H 0.1431 0.0771 0.2930
C11_4 C 0.18310(15) 0.1838(4) 0.2584(3)
C12_4 C 0.21660(15) 0.1825(4) 0.2292(3)
H17_4 H 0.2283 0.2560 0.2192
C13_4 C 0.23301(13) 0.0738(5) 0.2147(3)
C16_4 C 0.1668(3) 0.3022(9) 0.2749(5)
O5_4 O 0.17969(19) 0.7561(6) 0.2561(4)
O6_4 O 0.13398(19) 0.8542(5) 0.3004(3)
O19_4 O 0.0581(2) 0.8609(7) 0.3157(4)
H3_4 H 0.0711 0.9217 0.3068
H4_4 H 0.0395 0.8515 0.2909
C9_4 C 0.18241(16) 0.9675(4) 0.2586(3)
C14_4 C 0.21591(16) 0.9663(4) 0.2294(3)
H18_4 H 0.2271 0.8920 0.2195
C15_4 C 0.1637(3) 0.8487(8) 0.2737(5)
H73_4 H 0.252987 0.573482 0.28571
H77_8 H 0.00282911 0.757525 0.0398262
H75_8 H 0.117002 0.827025 0.424806
H76_8 H 0.200286 0.515487 0.149962
H72_8 H 0.955465 0.69746 0.895151
loop_
_geom_bond_atom_site_label_1
_geom_bond_atom_site_label_2
_geom_bond_site_symmetry_1
_geom_bond_site_symmetry_2
Co26 O34 1_555 1_555
Co3 O4 1_555 1_555
Co4 O14 1_555 1_555
Co26 O13 1_555 1_555
O4 C8 1_555 1_555
O10 Co3 1_555 1_555
O11 C24 1_555 1_555
O12 C24 1_555 1_555
O13 C31 1_555 1_555
O14 C31 1_555 1_555
O15 C32 1_555 1_555
O16 C32 1_555 1_555
N1 Co26 1_555 1_555
H5 N1 1_555 1_555
H6 N1 1_555 1_555
N3 Co26 1_555 1_555
H9 N3 1_555 1_555
H10 N3 1_555 1_555
N5 Co3 1_555 1_555
C4 C3 1_555 1_555
H14 C4 1_555 1_555
C5 N1 1_555 1_555
H15 C6 1_555 1_555
C8 C3 1_555 1_555
C17 C18 1_555 1_555
C18 H19 1_555 1_555
C19 C18 1_555 1_555
C20 C19 1_555 1_555
H20 C20 1_555 1_555
C21 N3 1_555 1_555
C22 C17 1_555 1_555
H21 C22 1_555 1_555
C23 O10 1_555 1_555
C24 C19 1_555 1_555
C25 C26 1_555 1_555
C26 H22 1_555 1_555
C27 C26 1_555 1_555
C28 C27 1_555 1_555
C30 C25 1_555 1_555
H24 C30 1_555 1_555
C31 C25 1_555 1_555
C32 C27 1_555 1_555
C33 N5 1_555 1_555
C34 C33 1_555 1_555
H26 C34 1_555 1_555
C35 C34 1_555 1_555
C36 C35 1_555 1_555
H27 C36 1_555 1_555
C37 N5 1_555 1_555
H28 C37 1_555 1_555
Co6 O21 1_555 1_555
Co9 N8 1_555 1_555
Co11 N13 1_555 1_555
Co12 O23 1_555 1_555
Co14 O50 1_555 1_555
Co17 N15 1_555 1_555
Co18 O36 1_555 1_555
Co19 O16 1_555 1_555
Co20 O11 1_555 1_555
Co23 O12 1_555 1_555
Co27 O42 1_555 1_555
O25 Co12 1_555 1_555
O26 Co16 1_555 1_555
O28 Co6 1_555 1_555
O29 Co12 1_555 1_555
O30 Co16 1_555 1_555
O31 Co3 1_555 1_555
O36 C60 1_555 1_555
O38 Co4 1_555 1_555
O40 Co26 1_555 1_555
O42 C68 1_555 1_555
O44 Co19 1_555 1_555
O45 C69 1_555 1_555
O46 Co4 1_555 1_555
O48 Co6 1_555 1_555
H30 O48 1_555 1_555
O50 Co4 1_555 1_555
O51 Co12 1_555 1_555
O52 Co19 1_555 1_555
H32 O50 1_555 1_555
H33 O51 1_555 1_555
H34 O52 1_555 1_555
O54 Co12 1_555 1_555
H36 O54 1_555 1_555
H37 O54 1_555 1_555
N6 H38 1_555 1_555
H40 N6 1_555 1_555
N8 H42 1_555 1_555
N10 Co6 1_555 1_555
H44 N10 1_555 1_555
H45 N8 1_555 1_555
H47 N10 1_555 1_555
N11 Co23 1_555 1_555
H48 N11 1_555 1_555
H50 N11 1_555 1_555
N13 H52 1_555 1_555
N14 Co6 1_555 1_555
H53 N14 1_555 1_555
H54 N13 1_555 1_555
H55 N14 1_555 1_555
N15 C70 1_555 1_555
C41 C40 1_555 1_555
H57 C41 1_555 1_555
C42 N6 1_555 1_555
H58 C43 1_555 1_555
C46 C47 1_555 1_555
C47 H59 1_555 1_555
C48 C47 1_555 1_555
C49 C48 1_555 1_555
H60 C49 1_555 1_555
C50 N8 1_555 1_555
C51 C46 1_555 1_555
H61 C51 1_555 1_555
C52 O28 1_555 1_555
C53 O30 1_555 1_555
C54 C55 1_555 1_555
C55 H62 1_555 1_555
C56 C55 1_555 1_555
C57 C56 1_555 1_555
H63 C57 1_555 1_555
C58 N11 1_555 1_555
C59 C54 1_555 1_555
H64 C59 1_555 1_555
C60 C54 1_555 1_555
C61 O38 1_555 1_555
C62 C63 1_555 1_555
C63 H65 1_555 1_555
C64 C63 1_555 1_555
C65 C64 1_555 1_555
H66 C65 1_555 1_555
C66 N13 1_555 1_555
C67 C62 1_555 1_555
H67 C67 1_555 1_555
C68 O44 1_555 1_555
C69 O46 1_555 1_555
C70 H68 1_555 1_555
C71 C70 1_555 1_555
H69 C71 1_555 1_555
C72 C35 1_555 1_555
C73 C72 1_555 1_555
H70 C73 1_555 1_555
C74 N15 1_555 1_555
H71 C74 1_555 1_555
Co26 O50 1_555 1_555
C4 C5 1_555 1_555
C5 C6 1_555 1_555
C17 C23 1_555 1_555
C20 C21 1_555 1_555
C21 C22 1_555 1_555
C28 C29 1_555 1_555
C29 C30 1_555 1_555
C36 C37 1_555 1_555
Co12 O48 1_555 1_555
Co27 O52 1_555 1_555
O26 C45 1_555 1_555
O29 C52 1_555 1_555
O33 C53 1_555 1_555
O40 C61 1_555 1_555
C40 C45 1_555 1_555
C41 C42 1_555 1_555
C42 C43 1_555 1_555
C46 C52 1_555 1_555
C48 C53 1_555 1_555
C49 C50 1_555 1_555
C50 C51 1_555 1_555
C56 C61 1_555 1_555
C57 C58 1_555 1_555
C58 C59 1_555 1_555
C62 C68 1_555 1_555
C64 C69 1_555 1_555
C65 C66 1_555 1_555
C66 C67 1_555 1_555
C71 C72 1_555 1_555
C73 C74 1_555 1_555
N10 H74 1_555 1_555
O51 H75 1_555 1_555
N14 H76 1_555 1_555
O21 C7 1_555 1_555
O23 C7 1_555 1_555
C1 C2 1_555 1_555
C2 H13 1_555 1_555
C7 C1 1_555 1_555
Co10 O20 1_555 1_555
Co13 O3 1_555 1_555
Co21 O51 1_555 1_555
Co23 O9 1_555 1_555
Co24 O51 1_555 1_555
O20 C44 1_555 1_555
O22 Co13 1_555 1_555
O37 Co16 1_555 1_555
O43 Co23 1_555 1_555
H29 O47 1_555 1_555
O53 Co13 1_555 1_555
H35 O53 1_555 1_555
N7 Co23 1_555 1_555
H39 N7 1_555 1_555
H41 N7 1_555 1_555
N16 Co16 1_555 1_555
C38 C39 1_555 1_555
C39 H56 1_555 1_555
C44 O22 1_555 1_555
Co10 O47 1_555 1_555
Co13 O47 1_555 1_555
Co23 O53 1_555 1_555
C38 C44 1_555 1_555
N7 H72 1_555 1_555
N11 H77 1_555 1_555
Co25 O34_2 1_555 1_555
N3_2 Co25 1_555 1_555
H9_2 N3_2 1_555 1_555
H10_2 N3_2 1_555 1_555
H20_2 C20_2 1_555 1_555
C21_2 N3_2 1_555 1_555
H21_2 C22_2 1_555 1_555
Co11_2 N13_2 1_555 1_555
Co14_2 O50_2 1_555 1_555
Co17_2 N15_2 1_555 1_555
Co18_2 O36_2 1_555 1_555
O36_2 C60_2 1_555 1_555
O38_2 Co4_2 1_555 1_555
O40_2 Co25 1_555 1_555
O42_2 C68_2 1_555 1_555
O45_2 C69_2 1_555 1_555
O46_2 Co4_2 1_555 1_555
O50_2 Co4_2 1_555 1_555
H32_2 O50_2 1_555 1_555
N13_2 H52_2 1_555 1_555
H54_2 N13_2 1_555 1_555
N15_2 C70_2 1_555 1_555
C54_2 C55_2 1_555 1_555
C55_2 H62_2 1_555 1_555
C56_2 C55_2 1_555 1_555
C60_2 C54_2 1_555 1_555
C61_2 O38_2 1_555 1_555
C62_2 C63_2 1_555 1_555
C63_2 H65_2 1_555 1_555
C64_2 C63_2 1_555 1_555
C65_2 C64_2 1_555 1_555
H66_2 C65_2 1_555 1_555
C66_2 N13_2 1_555 1_555
C67_2 C62_2 1_555 1_555
H67_2 C67_2 1_555 1_555
C68_2 O44_2 1_555 1_555
C69_2 O46_2 1_555 1_555
C70_2 H68_2 1_555 1_555
C71_2 C70_2 1_555 1_555
C73_2 C72_2 1_555 1_555
H70_2 C73_2 1_555 1_555
C74_2 N15_2 1_555 1_555
H71_2 C74_2 1_555 1_555
Co25 O50_2 1_555 1_555
C20_2 C21_2 1_555 1_555
C21_2 C22_2 1_555 1_555
O40_2 C61_2 1_555 1_555
C56_2 C61_2 1_555 1_555
C62_2 C68_2 1_555 1_555
C64_2 C69_2 1_555 1_555
C65_2 C66_2 1_555 1_555
C66_2 C67_2 1_555 1_555
C71_2 C72_2 1_555 1_555
C73_2 C74_2 1_555 1_555
O11_2 C24_2 1_555 1_555
O12_2 C24_2 1_555 1_555
O13_2 C31_2 1_555 1_555
O14_2 C31_2 1_555 1_555
O15_2 C32_2 1_555 1_555
O16_2 C32_2 1_555 1_555
C17_2 C18_2 1_555 1_555
C18_2 H19_2 1_555 1_555
C19_2 C18_2 1_555 1_555
C23_2 O37 1_555 1_555
C24_2 C19_2 1_555 1_555
C25_2 C26_2 1_555 1_555
C26_2 H22_2 1_555 1_555
C27_2 C26_2 1_555 1_555
C28_2 C27_2 1_555 1_555
C30_2 C25_2 1_555 1_555
H24_2 C30_2 1_555 1_555
C31_2 C25_2 1_555 1_555
C32_2 C27_2 1_555 1_555
C33_2 N16 1_555 1_555
C34_2 C33_2 1_555 1_555
C35_2 C34_2 1_555 1_555
C36_2 C35_2 1_555 1_555
H27_2 C36_2 1_555 1_555
C37_2 N16 1_555 1_555
H28_2 C37_2 1_555 1_555
Co9_2 N8_2 1_555 1_555
Co19_2 O16_2 1_555 1_555
Co21 O11_2 1_555 1_555
Co24 O12_2 1_555 1_555
O28_2 Co10 1_555 1_555
O29_2 Co13 1_555 1_555
O52_2 Co19_2 1_555 1_555
H34_2 O52_2 1_555 1_555
O54_2 Co13 1_555 1_555
H36_2 O54_2 1_555 1_555
H37_2 O54_2 1_555 1_555
N8_2 H42_2 1_555 1_555
N10_2 Co10 1_555 1_555
H44_2 N10_2 1_555 1_555
H45_2 N8_2 1_555 1_555
H47_2 N10_2 1_555 1_555
N11_2 Co24 1_555 1_555
H48_2 N11_2 1_555 1_555
H50_2 N11_2 1_555 1_555
N14_2 Co10 1_555 1_555
H53_2 N14_2 1_555 1_555
H55_2 N14_2 1_555 1_555
C46_2 C47_2 1_555 1_555
C47_2 H59_2 1_555 1_555
C48_2 C47_2 1_555 1_555
C49_2 C48_2 1_555 1_555
H60_2 C49_2 1_555 1_555
C50_2 N8_2 1_555 1_555
C51_2 C46_2 1_555 1_555
H61_2 C51_2 1_555 1_555
C52_2 O28_2 1_555 1_555
C53_2 O31 1_555 1_555
H63_2 C57_2 1_555 1_555
C58_2 N11_2 1_555 1_555
H64_2 C59_2 1_555 1_555
C17_2 C23_2 1_555 1_555
C28_2 C29_2 1_555 1_555
C29_2 C30_2 1_555 1_555
C36_2 C37_2 1_555 1_555
Co27_2 O52_2 1_555 1_555
O29_2 C52_2 1_555 1_555
O33_2 C53_2 1_555 1_555
C46_2 C52_2 1_555 1_555
C48_2 C53_2 1_555 1_555
C49_2 C50_2 1_555 1_555
C50_2 C51_2 1_555 1_555
C57_2 C58_2 1_555 1_555
C58_2 C59_2 1_555 1_555
N10_2 H74_2 1_555 1_555
O53 H75_2 1_555 1_555
N14_2 H76_2 1_555 1_555
H39_2 N7_2 1_555 1_555
H41_2 N7_2 1_555 1_555
N7_2 H72_2 1_555 1_555
Co20 O53 1_555 1_555
Co24 O9_2 1_555 1_555
N11_2 H77_2 1_555 1_555
Co9_2 O21_2 1_555 1_555
Co11_3 N13_3 1_555 1_555
Co12_2 O23_2 1_555 1_555
Co17 O36_3 1_555 1_555
Co26_2 O34_3 1_555 1_555
O25_2 Co12_2 1_555 1_555
O28_3 Co9_2 1_555 1_555
O29_3 Co12_2 1_555 1_555
O33_3 Co9_2 1_555 1_555
O34_3 C60_3 1_555 1_555
O36_3 C60_3 1_555 1_555
O48_2 Co9_2 1_555 1_555
H30_2 O48_2 1_555 1_555
O52_2 Co12_2 1_555 1_555
O54_3 Co12_2 1_555 1_555
H36_3 O54_3 1_555 1_555
H37_3 O54_3 1_555 1_555
N13_3 H52_3 1_555 1_555
N14_3 Co9_2 1_555 1_555
H53_3 N14_3 1_555 1_555
H54_3 N13_3 1_555 1_555
H55_3 N14_3 1_555 1_555
C51_3 C46_3 1_555 1_555
H61_3 C51_3 1_555 1_555
C52_3 O28_3 1_555 1_555
C54_3 C55_3 1_555 1_555
C55_3 H62_3 1_555 1_555
C56_3 C55_3 1_555 1_555
C57_3 C56_3 1_555 1_555
H63_3 C57_3 1_555 1_555
C59_3 C54_3 1_555 1_555
H64_3 C59_3 1_555 1_555
C60_3 C54_3 1_555 1_555
C61_3 O38_3 1_555 1_555
Co12_2 O48_2 1_555 1_555
O29_3 C52_3 1_555 1_555
C46_3 C52_3 1_555 1_555
C56_3 C61_3 1_555 1_555
C57_3 C58_3 1_555 1_555
C58_3 C59_3 1_555 1_555
N8_2 H74_3 1_555 1_555
O52_2 H75_3 1_555 1_555
N14_3 H76_3 1_555 1_555
Co4_3 O14_3 1_555 1_555
Co26_2 O13_3 1_555 1_555
O21_2 C7_2 1_555 1_555
O23_2 C7_2 1_555 1_555
O13_3 C31_3 1_555 1_555
O14_3 C31_3 1_555 1_555
O15_3 C32_3 1_555 1_555
O16_3 C32_3 1_555 1_555
N1_2 Co26_2 1_555 1_555
H5_2 N1_2 1_555 1_555
H6_2 N1_2 1_555 1_555
N3_3 Co26_2 1_555 1_555
H9_3 N3_3 1_555 1_555
H10_3 N3_3 1_555 1_555
C1_2 C2_2 1_555 1_555
C2_2 H13_2 1_555 1_555
C5_2 N1_2 1_555 1_555
C6_2 C1_2 1_555 1_555
H15_2 C6_2 1_555 1_555
C7_2 C1_2 1_555 1_555
C25_3 C26_3 1_555 1_555
C26_3 H22_3 1_555 1_555
C27_3 C26_3 1_555 1_555
C28_3 C27_3 1_555 1_555
H23_3 C28_3 1_555 1_555
C29_3 N14_3 1_555 1_555
C30_3 C25_3 1_555 1_555
H24_3 C30_3 1_555 1_555
C31_3 C25_3 1_555 1_555
C32_3 C27_3 1_555 1_555
Co14_3 O50_3 1_555 1_555
Co16_2 O48_2 1_555 1_555
Co20 O16_3 1_555 1_555
O26_2 Co16_2 1_555 1_555
O30_2 Co16_2 1_555 1_555
O40_3 Co26_2 1_555 1_555
O43 C68_3 1_555 1_555
O44_3 Co20 1_555 1_555
O45_3 C69_3 1_555 1_555
O46_3 Co4_3 1_555 1_555
O50_3 Co4_3 1_555 1_555
H32_3 O50_3 1_555 1_555
C45_2 O25_2 1_555 1_555
C47_3 H59_3 1_555 1_555
C48_3 C47_3 1_555 1_555
C49_3 C48_3 1_555 1_555
H60_3 C49_3 1_555 1_555
C50_3 N10_2 1_555 1_555
C53_3 O30_2 1_555 1_555
C62_3 C63_3 1_555 1_555
C63_3 H65_3 1_555 1_555
C64_3 C63_3 1_555 1_555
C65_3 C64_3 1_555 1_555
C67_3 C62_3 1_555 1_555
H67_3 C67_3 1_555 1_555
C68_3 O44_3 1_555 1_555
C69_3 O46_3 1_555 1_555
Co26_2 O50_3 1_555 1_555
C4_2 C5_2 1_555 1_555
C5_2 C6_2 1_555 1_555
C28_3 C29_3 1_555 1_555
C29_3 C30_3 1_555 1_555
O26_2 C45_2 1_555 1_555
O33_3 C53_3 1_555 1_555
C40_2 C45_2 1_555 1_555
C48_3 C53_3 1_555 1_555
C49_3 C50_3 1_555 1_555
C62_3 C68_3 1_555 1_555
C64_3 C69_3 1_555 1_555
C65_3 C66_3 1_555 1_555
C66_3 C67_3 1_555 1_555
O37_2 Co16_2 1_555 1_555
N16_2 Co16_2 1_555 1_555
Co27 O12_3 1_555 1_555
N11_3 Co27 1_555 1_555
H48_3 N11_3 1_555 1_555
H50_3 N11_3 1_555 1_555
Co3_2 O4_2 1_555 1_555
O3_2 C8_2 1_555 1_555
O4_2 C8_2 1_555 1_555
O9_3 C23_3 1_555 1_555
O10_2 Co3_2 1_555 1_555
O39 C24_3 1_555 1_555
N5_2 Co3_2 1_555 1_555
C8_2 C3_2 1_555 1_555
C17_3 C18_3 1_555 1_555
C18_3 H19_3 1_555 1_555
C19_3 C18_3 1_555 1_555
C20_3 C19_3 1_555 1_555
H20_3 C20_3 1_555 1_555
C22_3 C17_3 1_555 1_555
H21_3 C22_3 1_555 1_555
C23_3 O10_2 1_555 1_555
C24_3 C19_3 1_555 1_555
C33_3 N5_2 1_555 1_555
H25_3 C33_3 1_555 1_555
C34_3 C33_3 1_555 1_555
H26_3 C34_3 1_555 1_555
C35_3 C34_3 1_555 1_555
C36_3 C35_3 1_555 1_555
H27_3 C36_3 1_555 1_555
C37_3 N5_2 1_555 1_555
H28_3 C37_3 1_555 1_555
Co9 O20_2 1_555 1_555
Co13_2 O3_2 1_555 1_555
Co18 N15_3 1_555 1_555
Co27 O9_3 1_555 1_555
O20_2 C44_2 1_555 1_555
O22_2 Co13_2 1_555 1_555
O31_2 Co3_2 1_555 1_555
O47_2 Co3_2 1_555 1_555
H29_2 O47_2 1_555 1_555
O52 Co13_2 1_555 1_555
N6_2 H38_2 1_555 1_555
N7_3 Co27 1_555 1_555
H39_3 N7_3 1_555 1_555
H40_2 N6_2 1_555 1_555
H41_3 N7_3 1_555 1_555
N15_3 C70_3 1_555 1_555
C38_2 C39_2 1_555 1_555
C39_2 H56_2 1_555 1_555
C42_2 N6_2 1_555 1_555
C43_2 C38_2 1_555 1_555
H58_2 C43_2 1_555 1_555
C44_2 O22_2 1_555 1_555
C71_3 C70_3 1_555 1_555
H69_3 C71_3 1_555 1_555
C72_3 C35_3 1_555 1_555
C73_3 C72_3 1_555 1_555
H70_3 C73_3 1_555 1_555
C74_3 N15_3 1_555 1_555
H71_3 C74_3 1_555 1_555
C17_3 C23_3 1_555 1_555
C20_3 C21_3 1_555 1_555
C21_3 C22_3 1_555 1_555
C36_3 C37_3 1_555 1_555
Co9 O47_2 1_555 1_555
Co13_2 O47_2 1_555 1_555
C38_2 C44_2 1_555 1_555
C41_2 C42_2 1_555 1_555
C42_2 C43_2 1_555 1_555
C71_3 C72_3 1_555 1_555
C73_3 C74_3 1_555 1_555
N7_3 H72_3 1_555 1_555
Co27_2 O12_4 1_555 1_555
N11_4 Co27_2 1_555 1_555
H48_4 N11_4 1_555 1_555
H50_4 N11_4 1_555 1_555
H20_4 C20_4 1_555 1_555
H21_4 C22_4 1_555 1_555
Co18_2 N15_4 1_555 1_555
H39_4 N7_4 1_555 1_555
H41_4 N7_4 1_555 1_555
N15_4 C70_4 1_555 1_555
C71_4 C70_4 1_555 1_555
C73_4 C72_4 1_555 1_555
H70_4 C73_4 1_555 1_555
C74_4 N15_4 1_555 1_555
H71_4 C74_4 1_555 1_555
C20_4 C21_4 1_555 1_555
C21_4 C22_4 1_555 1_555
C71_4 C72_4 1_555 1_555
C73_4 C74_4 1_555 1_555
N7_4 H72_4 1_555 1_555
O9_4 C23_4 1_555 1_555
O39_2 C24_4 1_555 1_555
C17_4 C18_4 1_555 1_555
C18_4 H19_4 1_555 1_555
C19_4 C18_4 1_555 1_555
C23_4 O37_2 1_555 1_555
C24_4 C19_4 1_555 1_555
C33_4 N16_2 1_555 1_555
H25_4 C33_4 1_555 1_555
C34_4 C33_4 1_555 1_555
C35_4 C34_4 1_555 1_555
C36_4 C35_4 1_555 1_555
H27_4 C36_4 1_555 1_555
C37_4 N16_2 1_555 1_555
H28_4 C37_4 1_555 1_555
Co27_2 O9_4 1_555 1_555
C17_4 C23_4 1_555 1_555
C36_4 C37_4 1_555 1_555
Co11_4 N13_4 1_555 1_555
Co17_2 O36_4 1_555 1_555
Co25_2 O34_4 1_555 1_555
O34_4 C60_4 1_555 1_555
O36_4 C60_4 1_555 1_555
N13_4 H52_4 1_555 1_555
H54_4 N13_4 1_555 1_555
C54_4 C55_4 1_555 1_555
C55_4 H62_4 1_555 1_555
C56_4 C55_4 1_555 1_555
C60_4 C54_4 1_555 1_555
C61_4 O38_4 1_555 1_555
C56_4 C61_4 1_555 1_555
O28_4 Co9 1_555 1_555
O29_4 Co13_2 1_555 1_555
O33_4 Co9 1_555 1_555
O54_4 Co13_2 1_555 1_555
H36_4 O54_4 1_555 1_555
H37_4 O54_4 1_555 1_555
N14_4 Co9 1_555 1_555
H53_4 N14_4 1_555 1_555
H55_4 N14_4 1_555 1_555
C51_4 C46_4 1_555 1_555
H61_4 C51_4 1_555 1_555
C52_4 O28_4 1_555 1_555
H63_4 C57_4 1_555 1_555
H64_4 C59_4 1_555 1_555
O29_4 C52_4 1_555 1_555
C46_4 C52_4 1_555 1_555
C57_4 C58_4 1_555 1_555
C58_4 C59_4 1_555 1_555
N8 H74_4 1_555 1_555
O52 H75_4 1_555 1_555
N14_4 H76_4 1_555 1_555
N3_4 Co25_2 1_555 1_555
H9_4 N3_4 1_555 1_555
H10_4 N3_4 1_555 1_555
Co14_4 O50_4 1_555 1_555
O40_4 Co25_2 1_555 1_555
O43_2 C68_4 1_555 1_555
O45_4 C69_4 1_555 1_555
O46_4 Co4_4 1_555 1_555
O50_4 Co4_4 1_555 1_555
H32_4 O50_4 1_555 1_555
C62_4 C63_4 1_555 1_555
C63_4 H65_4 1_555 1_555
C64_4 C63_4 1_555 1_555
C65_4 C64_4 1_555 1_555
C67_4 C62_4 1_555 1_555
H67_4 C67_4 1_555 1_555
C68_4 O44_4 1_555 1_555
C69_4 O46_4 1_555 1_555
Co25_2 O50_4 1_555 1_555
C62_4 C68_4 1_555 1_555
C64_4 C69_4 1_555 1_555
C65_4 C66_4 1_555 1_555
C66_4 C67_4 1_555 1_555
O13_4 C31_4 1_555 1_555
O14_4 C31_4 1_555 1_555
O15_4 C32_4 1_555 1_555
O16_4 C32_4 1_555 1_555
C25_4 C26_4 1_555 1_555
C26_4 H22_4 1_555 1_555
C27_4 C26_4 1_555 1_555
C28_4 C27_4 1_555 1_555
H23_4 C28_4 1_555 1_555
C29_4 N14_4 1_555 1_555
C30_4 C25_4 1_555 1_555
H24_4 C30_4 1_555 1_555
C31_4 C25_4 1_555 1_555
C32_4 C27_4 1_555 1_555
Co21 O16_4 1_555 1_555
C47_4 H59_4 1_555 1_555
C48_4 C47_4 1_555 1_555
C49_4 C48_4 1_555 1_555
H60_4 C49_4 1_555 1_555
C50_4 N10 1_555 1_555
C53_4 O31_2 1_555 1_555
C28_4 C29_4 1_555 1_555
C29_4 C30_4 1_555 1_555
O33_4 C53_4 1_555 1_555
C48_4 C53_4 1_555 1_555
C49_4 C50_4 1_555 1_555
O49 Co11_3 1_555 1_555
H31 O49 1_555 1_555
Co11_3 O1 1_555 1_555
Co14_2 O2 1_555 1_555
O1 C7_3 1_555 1_555
O2 C7_3 1_555 1_555
O5 Co11_3 1_555 1_555
O6 Co14_2 1_555 1_555
O7 C16 1_555 1_555
O8 C16 1_555 1_555
O19 Co14_2 1_555 1_555
H3 O19 1_555 1_555
H4 O19 1_555 1_555
N2 H7 1_555 1_555
H8 N2 1_555 1_555
C1_3 C2_3 1_555 1_555
C2_3 H13_3 1_555 1_555
C7_3 C1_3 1_555 1_555
C9 C10 1_555 1_555
C10 H16 1_555 1_555
C11 C10 1_555 1_555
C12 C11 1_555 1_555
H17 C12 1_555 1_555
C13 N2 1_555 1_555
C14 C9 1_555 1_555
H18 C14 1_555 1_555
C15 O5 1_555 1_555
C16 C11 1_555 1_555
Co11_2 N2 1_555 1_555
Co11_4 O20_3 1_555 1_555
Co14 O3_3 1_555 1_555
Co18_2 O7 1_555 1_555
O20_3 C44_3 1_555 1_555
O22_3 Co14 1_555 1_555
O24 Co14_2 1_555 1_555
O27 Co18_2 1_555 1_555
H29_3 O47_3 1_555 1_555
N9 Co11_3 1_555 1_555
H43 N9 1_555 1_555
H46 N9 1_555 1_555
C38_3 C39_3 1_555 1_555
C39_3 H56_3 1_555 1_555
C44_3 O22_3 1_555 1_555
Co14_2 O49 1_555 1_555
O6 C15 1_555 1_555
C9 C15 1_555 1_555
C12 C13 1_555 1_555
C13 C14 1_555 1_555
Co11_4 O47_3 1_555 1_555
Co14 O47_3 1_555 1_555
C38_3 C44_3 1_555 1_555
N1 H72_5 1_555 1_555
N9 H73 1_555 1_555
N3 H77_5 1_555 1_555
Co18 O4_3 1_555 1_555
O4_3 C8_3 1_555 1_555
C4_3 C3_3 1_555 1_555
H14_3 C4_3 1_555 1_555
C5_3 N7 1_555 1_555
H15_3 C6_3 1_555 1_555
C8_3 C3_3 1_555 1_555
O31_3 Co18 1_555 1_555
C41_3 C40_3 1_555 1_555
H57_3 C41_3 1_555 1_555
C42_3 N7_2 1_555 1_555
H58_3 C43_3 1_555 1_555
C4_3 C5_3 1_555 1_555
C5_3 C6_3 1_555 1_555
O27 C45_3 1_555 1_555
C40_3 C45_3 1_555 1_555
C41_3 C42_3 1_555 1_555
C42_3 C43_3 1_555 1_555
O50_2 H75_5 1_555 1_555
N13_3 H76_5 1_555 1_555
O5_2 Co11_4 1_555 1_555
O6_2 Co14 1_555 1_555
O31_3 C16_2 1_555 1_555
O8_2 C16_2 1_555 1_555
O19_2 Co14 1_555 1_555
H3_2 O19_2 1_555 1_555
H4_2 O19_2 1_555 1_555
N2_2 H7_2 1_555 1_555
H8_2 N2_2 1_555 1_555
C9_2 C10_2 1_555 1_555
C10_2 H16_2 1_555 1_555
C11_2 C10_2 1_555 1_555
C12_2 C11_2 1_555 1_555
H17_2 C12_2 1_555 1_555
C13_2 N2_2 1_555 1_555
C14_2 C9_2 1_555 1_555
H18_2 C14_2 1_555 1_555
C15_2 O5_2 1_555 1_555
C16_2 C11_2 1_555 1_555
Co11 N2_2 1_555 1_555
N9_2 Co11_4 1_555 1_555
H43_2 N9_2 1_555 1_555
H46_2 N9_2 1_555 1_555
O6_2 C15_2 1_555 1_555
C9_2 C15_2 1_555 1_555
C12_2 C13_2 1_555 1_555
C13_2 C14_2 1_555 1_555
N9_2 H73_2 1_555 1_555
N3_2 H77_6 1_555 1_555
N6 H72_6 1_555 1_555
O50 H75_6 1_555 1_555
N13_4 H76_6 1_555 1_555
Co17 O4_4 1_555 1_555
O3_4 C8_4 1_555 1_555
O4_4 C8_4 1_555 1_555
C8_4 C3_4 1_555 1_555
Co11_2 O20_4 1_555 1_555
Co14_3 O3_4 1_555 1_555
O20_4 C44_4 1_555 1_555
O22_4 Co14_3 1_555 1_555
O31_4 Co17 1_555 1_555
O47_4 Co17 1_555 1_555
H29_4 O47_4 1_555 1_555
C38_4 C39_4 1_555 1_555
C39_4 H56_4 1_555 1_555
C42_4 N7_4 1_555 1_555
C43_4 C38_4 1_555 1_555
H58_4 C43_4 1_555 1_555
C44_4 O22_4 1_555 1_555
Co11_2 O47_4 1_555 1_555
Co14_3 O47_4 1_555 1_555
C38_4 C44_4 1_555 1_555
C41_4 C42_4 1_555 1_555
C42_4 C43_4 1_555 1_555
N1_2 H72_7 1_555 1_555
O7_2 C16_3 1_555 1_555
O8_3 C16_3 1_555 1_555
C10_3 H16_3 1_555 1_555
C11_3 C10_3 1_555 1_555
C12_3 C11_3 1_555 1_555
H17_3 C12_3 1_555 1_555
C13_3 N9_2 1_555 1_555
C16_3 C11_3 1_555 1_555
Co11 O8_3 1_555 1_555
Co17_2 O7_2 1_555 1_555
O27_2 Co17_2 1_555 1_555
O49_2 Co11 1_555 1_555
H31_2 O49_2 1_555 1_555
C12_3 C13_3 1_555 1_555
Co17_2 O49_2 1_555 1_555
Co11 O1_2 1_555 1_555
Co14_4 O2_2 1_555 1_555
O1_2 C7_4 1_555 1_555
O2_2 C7_4 1_555 1_555
O5_3 Co11 1_555 1_555
O6_3 Co14_4 1_555 1_555
O19_3 Co14_4 1_555 1_555
H3_3 O19_3 1_555 1_555
H4_3 O19_3 1_555 1_555
C1_4 C2_4 1_555 1_555
C2_4 H13_4 1_555 1_555
C5_4 N7_3 1_555 1_555
C6_4 C1_4 1_555 1_555
H15_4 C6_4 1_555 1_555
C7_4 C1_4 1_555 1_555
C14_3 C9_3 1_555 1_555
H18_3 C14_3 1_555 1_555
C15_3 O5_3 1_555 1_555
O24_2 Co14_4 1_555 1_555
C45_4 O24_2 1_555 1_555
Co14_4 O49_2 1_555 1_555
O6_3 C15_3 1_555 1_555
C4_4 C5_4 1_555 1_555
C5_4 C6_4 1_555 1_555
C9_3 C15_3 1_555 1_555
O27_2 C45_4 1_555 1_555
C40_4 C45_4 1_555 1_555
N2_2 H73_3 1_555 1_555
O50_4 H75_7 1_555 1_555
N13 H76_7 1_555 1_555
O31_4 C16_4 1_555 1_555
O8_4 C16_4 1_555 1_555
C10_4 H16_4 1_555 1_555
C11_4 C10_4 1_555 1_555
C12_4 C11_4 1_555 1_555
H17_4 C12_4 1_555 1_555
C13_4 N9 1_555 1_555
C16_4 C11_4 1_555 1_555
Co11_2 O8_4 1_555 1_555
C12_4 C13_4 1_555 1_555
O5_4 Co11_2 1_555 1_555
O6_4 Co14_3 1_555 1_555
O19_4 Co14_3 1_555 1_555
H3_4 O19_4 1_555 1_555
H4_4 O19_4 1_555 1_555
C14_4 C9_4 1_555 1_555
H18_4 C14_4 1_555 1_555
C15_4 O5_4 1_555 1_555
O6_4 C15_4 1_555 1_555
C9_4 C15_4 1_555 1_555
N2 H73_4 1_555 1_555
O50_3 H75_8 1_555 1_555
N13_2 H76_8 1_555 1_555
N6_2 H72_8 1_555 1_555

#END
