
###############################################################################
#
# This file contains modified crystal structure data generated from the
# MOF subset of the Cambridge Structural Database (CSD) v543 
# hosted by the Cambridge Crystallographic Data Centre (CCDC).
#
# This work is licensed under the Creative Commons
# Attribution-NonCommercial-ShareAlike 4.0 International License.
# To view a copy of this license, visit
# http://creativecommons.org/licenses/by-nc-sa/4.0/
# or send a letter to
# Creative Commons, PO Box 1866, Mountain View, CA 94042, USA.
#
# CIF created using the CSD Python API on 29 September 2022
# The structure has been converted into the P1 space group
# The structure has a 3D framework
# The original CSD entry OGUPIQ is in the monoclinic crystal system
# The framework has been calculated to contain at least 10.0% void space
# The void calculation uses a probe of radius 1.32A, grid spacing 0.4
# H atom positions have been added when not included in the experimental data
#
###############################################################################

data_OGUPIQ
_chemical_formula_moiety         '(C256 H216 Co36 N32 O148)n'
_symmetry_cell_setting           triclinic
_symmetry_space_group_name_H-M   'P 1'
_symmetry_Int_Tables_number      1
_space_group_name_Hall           'P 1'
loop_
_symmetry_equiv_pos_site_id
_symmetry_equiv_pos_as_xyz
1 x,y,z
_cell_length_a                   35.432(2)
_cell_length_b                   11.1832(7)
_cell_length_c                   21.4750(14)
_cell_angle_alpha                90
_cell_angle_beta                 94.8360(10)
_cell_angle_gamma                90
_cell_volume                     8479.03
loop_
_atom_site_label
_atom_site_type_symbol
_atom_site_fract_x
_atom_site_fract_y
_atom_site_fract_z
Co3 Co 0.37128(2) 0.05198(8) 0.62658(5)
Co4 Co 0.63948(2) 0.38569(8) 0.43624(5)
Co5 Co 0.57030(2) 0.25543(8) 0.49540(4)
O4 O 0.42653(12) 0.0819(4) 0.6603(2)
O10 O 0.38905(12) 0.0060(4) 0.5429(2)
O11 O 0.38999(13) 0.4624(4) 0.5629(2)
O12 O 0.42834(14) 0.5586(4) 0.5037(2)
O13 O 0.61949(12) 0.2243(5) 0.5524(2)
O14 O 0.66173(12) 0.3573(4) 0.5251(2)
O15 O 0.80196(13) 0.2629(5) 0.5846(3)
O16 O 0.81169(13) 0.0673(5) 0.5906(2)
N1 N 0.54573(14) 0.2821(5) 0.5852(3)
H3 H 0.5620 0.3309 0.6093
H4 H 0.5235 0.3240 0.5770
N3 N 0.51922(14) 0.2616(5) 0.4325(3)
H7 H 0.5191 0.3328 0.4109
H8 H 0.5205 0.2011 0.4037
C1 C 0.55873(9) 0.0020(3) 0.6776(2)
C3 C 0.49198(8) 0.0402(4) 0.6569(2)
C4 C 0.50004(9) 0.1468(3) 0.6275(2)
H12 H 0.4800 0.1963 0.6103
C5 C 0.53745(10) 0.1810(3) 0.6231(2)
C6 C 0.56679(8) 0.1086(4) 0.6482(2)
H13 H 0.5924 0.1320 0.6452
C8 C 0.45202(17) 0.0031(6) 0.6601(3)
C17 C 0.43492(11) 0.1353(3) 0.5023(2)
C18 C 0.41779(9) 0.2399(3) 0.5206(2)
H17 H 0.3952 0.2361 0.5414
C19 C 0.43375(10) 0.3502(3) 0.5086(2)
C20 C 0.46683(10) 0.3558(3) 0.4782(2)
H18 H 0.4777 0.4312 0.4700
C21 C 0.48396(9) 0.2512(3) 0.4599(2)
C22 C 0.46801(10) 0.1409(3) 0.4720(2)
H19 H 0.4797 0.0694 0.4595
C23 C 0.41963(18) 0.0135(6) 0.5170(3)
C24 C 0.41601(17) 0.4662(6) 0.5261(3)
C25 C 0.68373(9) 0.1849(3) 0.5811(2)
C26 C 0.72151(11) 0.2123(3) 0.5751(2)
H20 H 0.7280 0.2844 0.5552
C27 C 0.74982(8) 0.1340(4) 0.5981(2)
C28 C 0.74034(10) 0.0284(4) 0.6271(2)
C29 C 0.70256(11) 0.0010(3) 0.6332(2)
C30 C 0.67425(8) 0.0793(4) 0.6102(2)
H22 H 0.6484 0.0606 0.6143
C31 C 0.65279(18) 0.2621(6) 0.5514(3)
C32 C 0.79027(18) 0.1582(7) 0.5899(3)
O20 O 0.31493(19) 0.0468(7) 0.5710(3)
H26 H 0.3120(14) 0.111(4) 0.549(3)
Co10 Co 0.62872(2) 0.05198(8) 0.87342(5)
Co11 Co 0.36052(2) 0.61431(8) 0.56376(5)
Co12 Co 0.86052(2) 0.11431(8) 0.56376(5)
Co15 Co 0.42970(2) 0.74457(8) 0.50460(4)
O22 O 0.35270(15) 0.1960(4) 0.6680(3)
O23 O 0.68389(13) 0.0995(4) 0.7689(3)
O24 O 0.56134(13) 0.0735(4) 0.4977(2)
O25 O 0.61001(13) 0.5376(4) 0.4371(2)
O26 O 0.57166(14) 0.4414(4) 0.4963(2)
O27 O 0.68831(13) 0.4327(5) 0.4094(2)
O29 O 0.60442(11) 0.2521(4) 0.4178(2)
H28 H 0.6215 0.1838 0.4307
Co1 Co 0.67402(2) 0.91933(8) 0.76004(4)
Co2 Co 0.59773(2) 0.77741(8) 0.81984(4)
O1 O 0.62321(12) 0.9726(5) 0.7105(3)
O2 O 0.58345(13) 0.8231(4) 0.7265(2)
O3 O 0.44575(12) 0.8923(4) 0.6613(2)
O5 O 0.67817(14) 0.7334(4) 0.7549(2)
O6 O 0.63359(12) 0.6376(4) 0.8023(2)
O7 O 0.64730(15) 0.1960(4) 0.8320(3)
O9 O 0.43866(13) 0.9265(4) 0.5023(2)
O17 O 0.64376(11) 0.8985(4) 0.8374(2)
H1 H 0.6615 0.8598 0.8701
O18 O 0.60442(11) 0.7479(4) 0.9178(2)
H2 H 0.6215 0.8162 0.9307
N2 N 0.76740(14) 0.4166(5) 0.6860(3)
H5 H 0.7664 0.4816 0.6596
H6 H 0.7667 0.3497 0.6609
N4 N 0.69323(16) 0.8974(5) 0.6676(3)
H9 H 0.6747 0.8565 0.6437
H10 H 0.7143 0.8490 0.6713
C2 C 0.52132(10) 0.9678(3) 0.6819(2)
H11 H 0.5158 0.8950 0.7020
C7 C 0.59102(18) 0.9270(7) 0.7071(3)
C9 C 0.68271(11) 0.5241(3) 0.7615(2)
C10 C 0.66851(10) 0.4168(3) 0.7824(2)
H14 H 0.6466 0.4167 0.8051
C11 C 0.68637(11) 0.3097(3) 0.7702(2)
C12 C 0.71843(11) 0.3098(3) 0.7371(2)
H15 H 0.7306 0.2366 0.7288
C13 C 0.73263(10) 0.4171(3) 0.7162(2)
C14 C 0.71478(11) 0.5242(3) 0.7284(2)
H16 H 0.7245 0.5975 0.7141
C15 C 0.66295(18) 0.6407(6) 0.7740(3)
C16 C 0.67143(19) 0.1915(6) 0.7914(3)
H21 H 0.7597 0.9749 0.6428
O19 O 0.55469(19) 0.6453(6) 0.8073(4)
H23 H 0.5635(11) 0.5765(18) 0.815(4)
H24 H 0.5426(17) 0.651(5) 0.773(2)
H25 H 0.3144(13) 0.987(5) 0.546(3)
Co7 Co 0.82598(2) 0.41933(8) 0.73996(4)
Co8 Co 0.40227(2) 0.77741(8) 0.68016(4)
Co13 Co 0.63948(2) 0.61431(8) 0.93624(5)
Co16 Co 0.57030(2) 0.74457(8) 0.99540(4)
O21 O 0.55425(12) 0.8923(4) 0.8387(2)
O28 O 0.35624(11) 0.8985(4) 0.6626(2)
H27 H 0.3385 0.8598 0.6299
N5 N 0.73260(14) 0.9166(5) 0.8140(3)
H29 H 0.7336 0.9816 0.8404
H30 H 0.7333 0.8497 0.8391
H31 H 0.753857 0.91725 0.785136
Co4_2 Co 0.36052(2) 0.38569(8) 0.06376(5)
Co5_2 Co 0.42970(2) 0.25543(8) 0.00460(4)
N3_2 N 0.48078(14) 0.2616(5) 0.0675(3)
H7_2 H 0.4809 0.3328 0.0891
H8_2 H 0.4795 0.2011 0.0963
C20_2 C 0.53317(10) 0.3558(3) 0.0218(2)
H18_2 H 0.5223 0.4312 0.0300
C21_2 C 0.51604(9) 0.2512(3) 0.0401(2)
C22_2 C 0.53199(10) 0.1409(3) 0.0280(2)
H19_2 H 0.5203 0.0694 0.0405
O24_2 O 0.43866(13) 0.0735(4) 0.0023(2)
O25_2 O 0.38999(13) 0.5376(4) 0.0629(2)
O26_2 O 0.42834(14) 0.4414(4) 0.0037(2)
O27_2 O 0.31169(13) 0.4327(5) 0.0906(2)
O29_2 O 0.39558(11) 0.2521(4) 0.0822(2)
H28_2 H 0.3785 0.1838 0.0693
O4_2 O 0.57347(12) 0.0819(4) 0.8397(2)
O10_2 O 0.61095(12) 0.0060(4) 0.9571(2)
O11_2 O 0.61001(13) 0.4624(4) 0.9371(2)
O12_2 O 0.57166(14) 0.5586(4) 0.9963(2)
O13_2 O 0.38051(12) 0.2243(5) 0.9476(2)
O14_2 O 0.33827(12) 0.3573(4) 0.9749(2)
O15_2 O 0.19804(13) 0.2629(5) 0.9154(3)
O16_2 O 0.18831(13) 0.0673(5) 0.9094(2)
N1_2 N 0.45427(14) 0.2821(5) 0.9148(3)
H3_2 H 0.4380 0.3309 0.8907
H4_2 H 0.4765 0.3240 0.9230
C1_2 C 0.44127(9) 0.0020(3) 0.8224(2)
C3_2 C 0.50802(8) 0.0402(4) 0.8431(2)
C4_2 C 0.49996(9) 0.1468(3) 0.8725(2)
H12_2 H 0.5200 0.1963 0.8897
C5_2 C 0.46255(10) 0.1810(3) 0.8769(2)
C6_2 C 0.43321(8) 0.1086(4) 0.8518(2)
H13_2 H 0.4076 0.1320 0.8548
C8_2 C 0.54798(17) 0.0031(6) 0.8399(3)
C17_2 C 0.56508(11) 0.1353(3) 0.9977(2)
C18_2 C 0.58221(9) 0.2399(3) 0.9794(2)
H17_2 H 0.6048 0.2361 0.9586
C19_2 C 0.56625(10) 0.3502(3) 0.9914(2)
C23_2 C 0.58037(18) 0.0135(6) 0.9830(3)
C24_2 C 0.58399(17) 0.4662(6) 0.9739(3)
C25_2 C 0.31627(9) 0.1849(3) 0.9189(2)
C26_2 C 0.27849(11) 0.2123(3) 0.9249(2)
H20_2 H 0.2720 0.2844 0.9448
C27_2 C 0.25018(8) 0.1340(4) 0.9019(2)
C28_2 C 0.25966(10) 0.0284(4) 0.8729(2)
C29_2 C 0.29744(11) 0.0010(3) 0.8668(2)
C30_2 C 0.32575(8) 0.0793(4) 0.8898(2)
H22_2 H 0.3516 0.0606 0.8857
C31_2 C 0.34721(18) 0.2621(6) 0.9486(3)
C32_2 C 0.20973(18) 0.1582(7) 0.9101(3)
O20_2 O 0.68507(19) 0.0468(7) 0.9290(3)
H26_2 H 0.6880(14) 0.111(4) 0.951(3)
Co12_2 Co 0.13948(2) 0.11431(8) 0.93624(5)
O23_2 O 0.31611(13) 0.0995(4) 0.7311(3)
Co1_2 Co 0.32598(2) 0.91933(8) 0.73996(4)
O1_2 O 0.37679(12) 0.9726(5) 0.7895(3)
O2_2 O 0.41655(13) 0.8231(4) 0.7735(2)
O5_2 O 0.32183(14) 0.7334(4) 0.7451(2)
O6_2 O 0.36641(12) 0.6376(4) 0.6977(2)
O9_2 O 0.56134(13) 0.9265(4) 0.9977(2)
O18_2 O 0.39558(11) 0.7479(4) 0.5822(2)
H2_2 H 0.3785 0.8162 0.5693
N2_2 N 0.23260(14) 0.4166(5) 0.8140(3)
H5_2 H 0.2336 0.4816 0.8404
H6_2 H 0.2333 0.3497 0.8391
N4_2 N 0.30677(16) 0.8974(5) 0.8324(3)
H9_2 H 0.3253 0.8565 0.8563
H10_2 H 0.2857 0.8490 0.8287
C2_2 C 0.47868(10) 0.9678(3) 0.8181(2)
H11_2 H 0.4842 0.8950 0.7980
C7_2 C 0.40898(18) 0.9270(7) 0.7929(3)
C9_2 C 0.31729(11) 0.5241(3) 0.7385(2)
C10_2 C 0.33149(10) 0.4168(3) 0.7176(2)
H14_2 H 0.3534 0.4167 0.6949
C11_2 C 0.31363(11) 0.3097(3) 0.7298(2)
C12_2 C 0.28157(11) 0.3098(3) 0.7629(2)
H15_2 H 0.2694 0.2366 0.7712
C13_2 C 0.26737(10) 0.4171(3) 0.7838(2)
C14_2 C 0.28522(11) 0.5242(3) 0.7716(2)
H16_2 H 0.2755 0.5975 0.7859
C15_2 C 0.33705(18) 0.6407(6) 0.7260(3)
C16_2 C 0.32857(19) 0.1915(6) 0.7086(3)
H21_2 H 0.2403 0.9749 0.8572
O19_2 O 0.44531(19) 0.6453(6) 0.6927(4)
H23_2 H 0.4365(11) 0.5765(18) 0.685(4)
H24_2 H 0.4574(17) 0.651(5) 0.727(2)
H25_2 H 0.6856(13) 0.987(5) 0.954(3)
Co7_2 Co 0.17402(2) 0.41933(8) 0.76004(4)
N5_2 N 0.26740(14) 0.9166(5) 0.6860(3)
H29_2 H 0.2664 0.9816 0.6596
H30_2 H 0.2667 0.8497 0.6609
H31_2 H 0.246143 0.91725 0.714864
O25_3 O 0.11001(13) 0.0376(4) 0.4371(2)
Co2_2 Co 0.09773(2) 0.27741(8) 0.81984(4)
Co4_3 Co 0.13948(2) 0.88569(8) 0.43624(5)
Co5_3 Co 0.07030(2) 0.75543(8) 0.49540(4)
O1_3 O 0.12321(12) 0.4726(5) 0.7105(3)
O2_3 O 0.08345(13) 0.3231(4) 0.7265(2)
O5_3 O 0.17817(14) 0.2334(4) 0.7549(2)
O6_3 O 0.13359(12) 0.1376(4) 0.8023(2)
O13_3 O 0.11949(12) 0.7243(5) 0.5524(2)
O14_3 O 0.16173(12) 0.8573(4) 0.5251(2)
O15_3 O 0.30196(13) 0.7629(5) 0.5846(3)
O16_3 O 0.31169(13) 0.5673(5) 0.5906(2)
O17_2 O 0.14376(11) 0.3985(4) 0.8374(2)
H1_2 H 0.1615 0.3598 0.8701
O18_3 O 0.10442(11) 0.2479(4) 0.9178(2)
H2_3 H 0.1215 0.3162 0.9307
N1_3 N 0.04573(14) 0.7821(5) 0.5852(3)
H3_3 H 0.0620 0.8309 0.6093
H4_3 H 0.0235 0.8240 0.5770
N3_3 N 0.01922(14) 0.7616(5) 0.4325(3)
H7_3 H 0.0191 0.8328 0.4109
H8_3 H 0.0205 0.7011 0.4037
N4_3 N 0.19323(16) 0.3974(5) 0.6676(3)
H9_3 H 0.1747 0.3565 0.6437
H10_3 H 0.2143 0.3490 0.6713
C1_3 C 0.05873(9) 0.5020(3) 0.6776(2)
C2_3 C 0.02132(10) 0.4678(3) 0.6819(2)
H11_3 H 0.0158 0.3950 0.7020
C4_3 C 0.00004(9) 0.6468(3) 0.6275(2)
C5_3 C 0.03745(10) 0.6810(3) 0.6231(2)
C6_3 C 0.06679(8) 0.6086(4) 0.6482(2)
H13_3 H 0.0924 0.6320 0.6452
C7_3 C 0.09102(18) 0.4270(7) 0.7071(3)
C9_3 C 0.18271(11) 0.0241(3) 0.7615(2)
C14_3 C 0.21478(11) 0.0242(3) 0.7284(2)
H16_3 H 0.2245 0.0975 0.7141
C15_3 C 0.16295(18) 0.1407(6) 0.7740(3)
C25_3 C 0.18373(9) 0.6849(3) 0.5811(2)
C26_3 C 0.22151(11) 0.7123(3) 0.5751(2)
H20_3 H 0.2280 0.7844 0.5552
C27_3 C 0.24982(8) 0.6340(4) 0.5981(2)
C28_3 C 0.24034(10) 0.5284(4) 0.6271(2)
H21_3 H 0.2597 0.4749 0.6428
C29_3 C 0.20256(11) 0.5010(3) 0.6332(2)
C30_3 C 0.17425(8) 0.5793(4) 0.6102(2)
H22_3 H 0.1484 0.5606 0.6143
C31_3 C 0.15279(18) 0.7621(6) 0.5514(3)
C32_3 C 0.29027(18) 0.6582(7) 0.5899(3)
O19_3 O 0.05469(19) 0.1453(6) 0.8073(4)
H23_3 H 0.0635(11) 0.0765(18) 0.815(4)
H24_3 H 0.0426(17) 0.151(5) 0.773(2)
Co10_2 Co 0.12872(2) 0.55198(8) 0.87342(5)
Co16_2 Co 0.07030(2) 0.24457(8) 0.99540(4)
O21_2 O 0.05425(12) 0.3923(4) 0.8387(2)
O23_3 O 0.18389(13) 0.5995(4) 0.7689(3)
O24_3 O 0.06134(13) 0.5735(4) 0.4977(2)
O26_3 O 0.07166(14) 0.9414(4) 0.4963(2)
O27_3 O 0.18831(13) 0.9327(5) 0.4094(2)
O29_3 O 0.10442(11) 0.7521(4) 0.4178(2)
H28_3 H 0.1215 0.6838 0.4307
H31_3 H 0.253857 0.41725 0.785136
O7_2 O 0.14730(15) 0.6960(4) 0.8320(3)
C10_3 C 0.16851(10) 0.9168(3) 0.7824(2)
H14_3 H 0.1466 0.9167 0.8051
C11_3 C 0.18637(11) 0.8097(3) 0.7702(2)
C12_3 C 0.21843(11) 0.8098(3) 0.7371(2)
H15_3 H 0.2306 0.7366 0.7288
C13_3 C 0.23263(10) 0.9171(3) 0.7162(2)
C16_3 C 0.17143(19) 0.6915(6) 0.7914(3)
O12_3 O 0.92834(14) 0.0586(4) 0.5037(2)
Co15_2 Co 0.92970(2) 0.24457(8) 0.50460(4)
Co3_2 Co 0.87128(2) 0.55198(8) 0.62658(5)
O3_2 O 0.94575(12) 0.3923(4) 0.6613(2)
O4_3 O 0.92653(12) 0.5819(4) 0.6603(2)
O9_3 O 0.93866(13) 0.4265(4) 0.5023(2)
O10_3 O 0.88905(12) 0.5060(4) 0.5429(2)
O11_3 O 0.88999(13) 0.9624(4) 0.5629(2)
C3_3 C 0.99198(8) 0.5402(4) 0.6569(2)
H12_3 H 0.9800 0.6963 0.6103
C8_3 C 0.95202(17) 0.5031(6) 0.6601(3)
C17_3 C 0.93492(11) 0.6353(3) 0.5023(2)
C18_3 C 0.91779(9) 0.7399(3) 0.5206(2)
H17_3 H 0.8952 0.7361 0.5414
C19_3 C 0.93375(10) 0.8502(3) 0.5086(2)
C20_3 C 0.96683(10) 0.8558(3) 0.4782(2)
H18_3 H 0.9777 0.9312 0.4700
C21_3 C 0.98396(9) 0.7512(3) 0.4599(2)
C22_3 C 0.96801(10) 0.6409(3) 0.4720(2)
H19_3 H 0.9797 0.5694 0.4595
C23_3 C 0.91963(18) 0.5135(6) 0.5170(3)
C24_3 C 0.91601(17) 0.9662(6) 0.5261(3)
O20_3 O 0.81493(19) 0.5468(7) 0.5710(3)
H25_3 H 0.8144(13) 0.487(5) 0.546(3)
H26_3 H 0.8120(14) 0.611(4) 0.549(3)
Co8_2 Co 0.90227(2) 0.27741(8) 0.68016(4)
O22_2 O 0.85270(15) 0.6960(4) 0.6680(3)
O28_2 O 0.85624(11) 0.3985(4) 0.6626(2)
H27_2 H 0.8385 0.3598 0.6299
O12_4 O 0.07166(14) 0.0586(4) 0.9963(2)
O4_4 O 0.07347(12) 0.5819(4) 0.8397(2)
O9_4 O 0.06134(13) 0.4265(4) 0.9977(2)
O10_4 O 0.11095(12) 0.5060(4) 0.9571(2)
O11_4 O 0.11001(13) 0.9624(4) 0.9371(2)
C3_4 C 0.00802(8) 0.5402(4) 0.8431(2)
H12_4 H 0.0200 0.6963 0.8897
C8_4 C 0.04798(17) 0.5031(6) 0.8399(3)
C17_4 C 0.06508(11) 0.6353(3) 0.9977(2)
C18_4 C 0.08221(9) 0.7399(3) 0.9794(2)
H17_4 H 0.1048 0.7361 0.9586
C19_4 C 0.06625(10) 0.8502(3) 0.9914(2)
C23_4 C 0.08037(18) 0.5135(6) 0.9830(3)
C24_4 C 0.08399(17) 0.9662(6) 0.9739(3)
O20_4 O 0.18507(19) 0.5468(7) 0.9290(3)
H25_4 H 0.1856(13) 0.487(5) 0.954(3)
H26_4 H 0.1880(14) 0.611(4) 0.951(3)
O25_4 O 0.88999(13) 0.0376(4) 0.0629(2)
Co4_4 Co 0.86052(2) 0.88569(8) 0.06376(5)
Co5_4 Co 0.92970(2) 0.75543(8) 0.00460(4)
N3_4 N 0.98078(14) 0.7616(5) 0.0675(3)
H7_4 H 0.9809 0.8328 0.0891
H8_4 H 0.9795 0.7011 0.0963
O24_4 O 0.93866(13) 0.5735(4) 0.0023(2)
O26_4 O 0.92834(14) 0.9414(4) 0.0037(2)
O27_4 O 0.81169(13) 0.9327(5) 0.0906(2)
O29_4 O 0.89558(11) 0.7521(4) 0.0822(2)
H28_4 H 0.8785 0.6838 0.0693
O1_4 O 0.87679(12) 0.4726(5) 0.7895(3)
O2_4 O 0.91655(13) 0.3231(4) 0.7735(2)
O5_4 O 0.82183(14) 0.2334(4) 0.7451(2)
O6_4 O 0.86641(12) 0.1376(4) 0.6977(2)
O13_4 O 0.88051(12) 0.7243(5) 0.9476(2)
O14_4 O 0.83827(12) 0.8573(4) 0.9749(2)
O15_4 O 0.69804(13) 0.7629(5) 0.9154(3)
O16_4 O 0.68831(13) 0.5673(5) 0.9094(2)
O18_4 O 0.89558(11) 0.2479(4) 0.5822(2)
H2_4 H 0.8785 0.3162 0.5693
N1_4 N 0.95427(14) 0.7821(5) 0.9148(3)
H3_4 H 0.9380 0.8309 0.8907
H4_4 H 0.9765 0.8240 0.9230
N4_4 N 0.80677(16) 0.3974(5) 0.8324(3)
H9_4 H 0.8253 0.3565 0.8563
H10_4 H 0.7857 0.3490 0.8287
C1_4 C 0.94127(9) 0.5020(3) 0.8224(2)
C2_4 C 0.97868(10) 0.4678(3) 0.8181(2)
H11_4 H 0.9842 0.3950 0.7980
C4_4 C 0.99996(9) 0.6468(3) 0.8725(2)
C5_4 C 0.96255(10) 0.6810(3) 0.8769(2)
C6_4 C 0.93321(8) 0.6086(4) 0.8518(2)
H13_4 H 0.9076 0.6320 0.8548
C7_4 C 0.90898(18) 0.4270(7) 0.7929(3)
C9_4 C 0.81729(11) 0.0241(3) 0.7385(2)
C14_4 C 0.78522(11) 0.0242(3) 0.7716(2)
H16_4 H 0.7755 0.0975 0.7859
C15_4 C 0.83705(18) 0.1407(6) 0.7260(3)
C25_4 C 0.81627(9) 0.6849(3) 0.9189(2)
C26_4 C 0.77849(11) 0.7123(3) 0.9249(2)
H20_4 H 0.7720 0.7844 0.9448
C27_4 C 0.75018(8) 0.6340(4) 0.9019(2)
C28_4 C 0.75966(10) 0.5284(4) 0.8729(2)
H21_4 H 0.7403 0.4749 0.8572
C29_4 C 0.79744(11) 0.5010(3) 0.8668(2)
C30_4 C 0.82575(8) 0.5793(4) 0.8898(2)
H22_4 H 0.8516 0.5606 0.8857
C31_4 C 0.84721(18) 0.7621(6) 0.9486(3)
C32_4 C 0.70973(18) 0.6582(7) 0.9101(3)
O19_4 O 0.94531(19) 0.1453(6) 0.6927(4)
H23_4 H 0.9365(11) 0.0765(18) 0.685(4)
H24_4 H 0.9574(17) 0.151(5) 0.727(2)
O23_4 O 0.81611(13) 0.5995(4) 0.7311(3)
H31_4 H 0.746143 0.41725 0.714864
C10_4 C 0.83149(10) 0.9168(3) 0.7176(2)
H14_4 H 0.8534 0.9167 0.6949
C11_4 C 0.81363(11) 0.8097(3) 0.7298(2)
C12_4 C 0.78157(11) 0.8098(3) 0.7629(2)
H15_4 H 0.7694 0.7366 0.7712
C13_4 C 0.76737(10) 0.9171(3) 0.7838(2)
C16_4 C 0.82857(19) 0.6915(6) 0.7086(3)
Co6 Co 0.32598(2) 0.08067(8) 0.23996(4)
Co2_3 Co 0.40227(2) 0.22259(8) 0.18016(4)
O1_5 O 0.37679(12) 0.0274(5) 0.2895(3)
O2_5 O 0.41655(13) 0.1769(4) 0.2735(2)
O3_3 O 0.55425(12) 0.1077(4) 0.3387(2)
O5_5 O 0.32183(14) 0.2666(4) 0.2451(2)
O6_5 O 0.36641(12) 0.3624(4) 0.1977(2)
O7_3 O 0.35270(15) 0.8040(4) 0.1680(3)
O8 O 0.31611(13) 0.9005(4) 0.2311(3)
O17_3 O 0.35624(11) 0.1015(4) 0.1626(2)
H1_3 H 0.3385 0.1402 0.1299
N2_3 N 0.23260(14) 0.5834(5) 0.3140(3)
H5_3 H 0.2336 0.5184 0.3404
H6_3 H 0.2333 0.6503 0.3391
N4_5 N 0.30677(16) 0.1026(5) 0.3324(3)
H9_5 H 0.3253 0.1435 0.3563
H10_5 H 0.2857 0.1510 0.3287
C2_5 C 0.47868(10) 0.0322(3) 0.3181(2)
H11_5 H 0.4842 0.1050 0.2980
C7_5 C 0.40898(18) 0.0730(7) 0.2929(3)
C9_5 C 0.31729(11) 0.4759(3) 0.2385(2)
C10_5 C 0.33149(10) 0.5832(3) 0.2176(2)
H14_5 H 0.3534 0.5833 0.1949
C11_5 C 0.31363(11) 0.6903(3) 0.2298(2)
C12_5 C 0.28157(11) 0.6902(3) 0.2629(2)
H15_5 H 0.2694 0.7634 0.2712
C13_5 C 0.26737(10) 0.5829(3) 0.2838(2)
C14_5 C 0.28522(11) 0.4758(3) 0.2716(2)
H16_5 H 0.2755 0.4025 0.2859
C15_5 C 0.33705(18) 0.3593(6) 0.2260(3)
C16_5 C 0.32857(19) 0.8085(6) 0.2086(3)
H21_5 H 0.2403 0.0251 0.3572
O19_5 O 0.44531(19) 0.3547(6) 0.1927(4)
H23_5 H 0.4365(11) 0.4235(18) 0.185(4)
H24_5 H 0.4574(17) 0.349(5) 0.227(2)
H25_5 H 0.6856(13) 0.013(5) 0.454(3)
Co7_3 Co 0.17402(2) 0.58067(8) 0.26004(4)
Co8_3 Co 0.59773(2) 0.22259(8) 0.31984(4)
Co9 Co 0.37128(2) 0.94802(8) 0.12658(5)
O21_3 O 0.44575(12) 0.1077(4) 0.1613(2)
O28_3 O 0.64376(11) 0.1015(4) 0.3374(2)
H27_3 H 0.6615 0.1402 0.3701
N5_3 N 0.26740(14) 0.0834(5) 0.1860(3)
H29_3 H 0.2664 0.0184 0.1596
H30_3 H 0.2667 0.1503 0.1609
H31_5 H 0.246143 0.0827504 0.214864
Co3_3 Co 0.62872(2) 0.94802(8) 0.37342(5)
O4_5 O 0.57347(12) 0.9181(4) 0.3397(2)
O10_5 O 0.61095(12) 0.9940(4) 0.4571(2)
O13_5 O 0.38051(12) 0.7757(5) 0.4476(2)
O14_5 O 0.33827(12) 0.6427(4) 0.4749(2)
O15_5 O 0.19804(13) 0.7371(5) 0.4154(3)
N1_5 N 0.45427(14) 0.7179(5) 0.4148(3)
H3_5 H 0.4380 0.6691 0.3907
H4_5 H 0.4765 0.6760 0.4230
N3_5 N 0.48078(14) 0.7384(5) 0.5675(3)
H7_5 H 0.4809 0.6672 0.5891
H8_5 H 0.4795 0.7989 0.5963
C1_5 C 0.44127(9) 0.9980(3) 0.3224(2)
C3_5 C 0.50802(8) 0.9598(4) 0.3431(2)
C4_5 C 0.49996(9) 0.8532(3) 0.3725(2)
H12_5 H 0.5200 0.8037 0.3897
C5_5 C 0.46255(10) 0.8190(3) 0.3769(2)
C6_5 C 0.43321(8) 0.8914(4) 0.3518(2)
H13_5 H 0.4076 0.8680 0.3548
C8_5 C 0.54798(17) 0.9969(6) 0.3399(3)
C17_5 C 0.56508(11) 0.8647(3) 0.4977(2)
C18_5 C 0.58221(9) 0.7601(3) 0.4794(2)
H17_5 H 0.6048 0.7639 0.4586
C19_5 C 0.56625(10) 0.6498(3) 0.4914(2)
C20_4 C 0.53317(10) 0.6442(3) 0.5218(2)
H18_4 H 0.5223 0.5688 0.5300
C21_4 C 0.51604(9) 0.7488(3) 0.5401(2)
C22_4 C 0.53199(10) 0.8591(3) 0.5280(2)
H19_4 H 0.5203 0.9306 0.5405
C23_5 C 0.58037(18) 0.9865(6) 0.4830(3)
C24_5 C 0.58399(17) 0.5338(6) 0.4739(3)
C25_5 C 0.31627(9) 0.8151(3) 0.4189(2)
C26_5 C 0.27849(11) 0.7877(3) 0.4249(2)
H20_5 H 0.2720 0.7156 0.4448
C27_5 C 0.25018(8) 0.8660(4) 0.4019(2)
C28_5 C 0.25966(10) 0.9716(4) 0.3729(2)
C29_5 C 0.29744(11) 0.9990(3) 0.3668(2)
C30_5 C 0.32575(8) 0.9207(4) 0.3898(2)
H22_5 H 0.3516 0.9394 0.3857
C31_5 C 0.34721(18) 0.7379(6) 0.4486(3)
C32_5 C 0.20973(18) 0.8418(7) 0.4101(3)
O20_5 O 0.68507(19) 0.9532(7) 0.4290(3)
H26_5 H 0.6880(14) 0.889(4) 0.451(3)
O22_3 O 0.64730(15) 0.8040(4) 0.3320(3)
Co6_2 Co 0.67402(2) 0.08067(8) 0.26004(4)
O1_6 O 0.62321(12) 0.0274(5) 0.2105(3)
O2_6 O 0.58345(13) 0.1769(4) 0.2265(2)
O5_6 O 0.67817(14) 0.2666(4) 0.2549(2)
O6_6 O 0.63359(12) 0.3624(4) 0.3023(2)
O8_2 O 0.68389(13) 0.9005(4) 0.2689(3)
N2_4 N 0.76740(14) 0.5834(5) 0.1860(3)
H5_4 H 0.7664 0.5184 0.1596
H6_4 H 0.7667 0.6503 0.1609
N4_6 N 0.69323(16) 0.1026(5) 0.1676(3)
H9_6 H 0.6747 0.1435 0.1437
H10_6 H 0.7143 0.1510 0.1713
C2_6 C 0.52132(10) 0.0322(3) 0.1819(2)
H11_6 H 0.5158 0.1050 0.2020
C7_6 C 0.59102(18) 0.0730(7) 0.2071(3)
C9_6 C 0.68271(11) 0.4759(3) 0.2615(2)
C10_6 C 0.66851(10) 0.5832(3) 0.2824(2)
H14_6 H 0.6466 0.5833 0.3051
C11_6 C 0.68637(11) 0.6903(3) 0.2702(2)
C12_6 C 0.71843(11) 0.6902(3) 0.2371(2)
H15_6 H 0.7306 0.7634 0.2288
C13_6 C 0.73263(10) 0.5829(3) 0.2162(2)
C14_6 C 0.71478(11) 0.4758(3) 0.2284(2)
H16_6 H 0.7245 0.4025 0.2141
C15_6 C 0.66295(18) 0.3593(6) 0.2740(3)
C16_6 C 0.67143(19) 0.8085(6) 0.2914(3)
H21_6 H 0.7597 0.0251 0.1428
O19_6 O 0.55469(19) 0.3547(6) 0.3073(4)
H23_6 H 0.5635(11) 0.4235(18) 0.315(4)
H24_6 H 0.5426(17) 0.349(5) 0.273(2)
H25_6 H 0.3144(13) 0.013(5) 0.046(3)
Co7_4 Co 0.82598(2) 0.58067(8) 0.23996(4)
N5_4 N 0.73260(14) 0.0834(5) 0.3140(3)
H29_4 H 0.7336 0.0184 0.3404
H30_4 H 0.7333 0.1503 0.3391
H31_6 H 0.753857 0.0827504 0.285136
O4_6 O 0.42653(12) 0.9181(4) 0.1603(2)
O10_6 O 0.38905(12) 0.9940(4) 0.0429(2)
O13_6 O 0.61949(12) 0.7757(5) 0.0524(2)
O14_6 O 0.66173(12) 0.6427(4) 0.0251(2)
O15_6 O 0.80196(13) 0.7371(5) 0.0846(3)
N1_6 N 0.54573(14) 0.7179(5) 0.0852(3)
H3_6 H 0.5620 0.6691 0.1093
H4_6 H 0.5235 0.6760 0.0770
C1_6 C 0.55873(9) 0.9980(3) 0.1776(2)
C3_6 C 0.49198(8) 0.9598(4) 0.1569(2)
C4_6 C 0.50004(9) 0.8532(3) 0.1275(2)
H12_6 H 0.4800 0.8037 0.1103
C5_6 C 0.53745(10) 0.8190(3) 0.1231(2)
C6_6 C 0.56679(8) 0.8914(4) 0.1482(2)
H13_6 H 0.5924 0.8680 0.1452
C8_6 C 0.45202(17) 0.9969(6) 0.1601(3)
C17_6 C 0.43492(11) 0.8647(3) 0.0023(2)
C18_6 C 0.41779(9) 0.7601(3) 0.0206(2)
H17_6 H 0.3952 0.7639 0.0414
C19_6 C 0.43375(10) 0.6498(3) 0.0086(2)
C23_6 C 0.41963(18) 0.9865(6) 0.0170(3)
C24_6 C 0.41601(17) 0.5338(6) 0.0261(3)
C25_6 C 0.68373(9) 0.8151(3) 0.0811(2)
C26_6 C 0.72151(11) 0.7877(3) 0.0751(2)
H20_6 H 0.7280 0.7156 0.0552
C27_6 C 0.74982(8) 0.8660(4) 0.0981(2)
C28_6 C 0.74034(10) 0.9716(4) 0.1271(2)
C29_6 C 0.70256(11) 0.9990(3) 0.1332(2)
C30_6 C 0.67425(8) 0.9207(4) 0.1102(2)
H22_6 H 0.6484 0.9394 0.1143
C31_6 C 0.65279(18) 0.7379(6) 0.0514(3)
C32_6 C 0.79027(18) 0.8418(7) 0.0899(3)
O20_6 O 0.31493(19) 0.9532(7) 0.0710(3)
H26_6 H 0.3120(14) 0.889(4) 0.049(3)
N3_6 N 0.51922(14) 0.7384(5) 0.9325(3)
H7_6 H 0.5191 0.6672 0.9109
H8_6 H 0.5205 0.7989 0.9037
C20_5 C 0.46683(10) 0.6442(3) 0.9782(2)
H18_5 H 0.4777 0.5688 0.9700
C21_5 C 0.48396(9) 0.7488(3) 0.9599(2)
C22_5 C 0.46801(10) 0.8591(3) 0.9720(2)
H19_5 H 0.4797 0.9306 0.9595
Co3_4 Co 0.12872(2) 0.44802(8) 0.37342(5)
O3_4 O 0.05425(12) 0.6077(4) 0.3387(2)
O4_7 O 0.07347(12) 0.4181(4) 0.3397(2)
O10_7 O 0.11095(12) 0.4940(4) 0.4571(2)
C3_7 C 0.00802(8) 0.4598(4) 0.3431(2)
H12_7 H 0.0200 0.3037 0.3897
C8_7 C 0.04798(17) 0.4969(6) 0.3399(3)
C17_7 C 0.06508(11) 0.3647(3) 0.4977(2)
C18_7 C 0.08221(9) 0.2601(3) 0.4794(2)
H17_7 H 0.1048 0.2639 0.4586
C19_7 C 0.06625(10) 0.1498(3) 0.4914(2)
C20_6 C 0.03317(10) 0.1442(3) 0.5218(2)
H18_6 H 0.0223 0.0688 0.5300
C21_6 C 0.01604(9) 0.2488(3) 0.5401(2)
C22_6 C 0.03199(10) 0.3591(3) 0.5280(2)
H19_6 H 0.0203 0.4306 0.5405
C23_7 C 0.08037(18) 0.4865(6) 0.4830(3)
C24_7 C 0.08399(17) 0.0338(6) 0.4739(3)
O20_7 O 0.18507(19) 0.4532(7) 0.4290(3)
H25_7 H 0.1856(13) 0.513(5) 0.454(3)
H26_7 H 0.1880(14) 0.389(4) 0.451(3)
Co8_4 Co 0.09773(2) 0.72259(8) 0.31984(4)
O22_4 O 0.14730(15) 0.3040(4) 0.3320(3)
O28_4 O 0.14376(11) 0.6015(4) 0.3374(2)
H27_4 H 0.1615 0.6402 0.3701
O7_4 O 0.85270(15) 0.3040(4) 0.1680(3)
O8_3 O 0.81611(13) 0.4005(4) 0.2311(3)
C10_7 C 0.83149(10) 0.0832(3) 0.2176(2)
H14_7 H 0.8534 0.0833 0.1949
C11_7 C 0.81363(11) 0.1903(3) 0.2298(2)
C12_7 C 0.78157(11) 0.1902(3) 0.2629(2)
H15_7 H 0.7694 0.2634 0.2712
C13_7 C 0.76737(10) 0.0829(3) 0.2838(2)
C16_7 C 0.82857(19) 0.3085(6) 0.2086(3)
Co9_2 Co 0.87128(2) 0.44802(8) 0.12658(5)
Co2_4 Co 0.90227(2) 0.72259(8) 0.18016(4)
O1_7 O 0.87679(12) 0.5274(5) 0.2895(3)
O2_7 O 0.91655(13) 0.6769(4) 0.2735(2)
O5_7 O 0.82183(14) 0.7666(4) 0.2451(2)
O6_7 O 0.86641(12) 0.8624(4) 0.1977(2)
O13_7 O 0.88051(12) 0.2757(5) 0.4476(2)
O14_7 O 0.83827(12) 0.1427(4) 0.4749(2)
O15_7 O 0.69804(13) 0.2371(5) 0.4154(3)
O17_4 O 0.85624(11) 0.6015(4) 0.1626(2)
H1_4 H 0.8385 0.6402 0.1299
N1_7 N 0.95427(14) 0.2179(5) 0.4148(3)
H3_7 H 0.9380 0.1691 0.3907
H4_7 H 0.9765 0.1760 0.4230
N3_7 N 0.98078(14) 0.2384(5) 0.5675(3)
H7_7 H 0.9809 0.1672 0.5891
H8_7 H 0.9795 0.2989 0.5963
N4_7 N 0.80677(16) 0.6026(5) 0.3324(3)
H9_7 H 0.8253 0.6435 0.3563
H10_7 H 0.7857 0.6510 0.3287
C1_7 C 0.94127(9) 0.4980(3) 0.3224(2)
C2_7 C 0.97868(10) 0.5322(3) 0.3181(2)
H11_7 H 0.9842 0.6050 0.2980
C4_7 C 0.99996(9) 0.3532(3) 0.3725(2)
C5_7 C 0.96255(10) 0.3190(3) 0.3769(2)
C6_7 C 0.93321(8) 0.3914(4) 0.3518(2)
H13_7 H 0.9076 0.3680 0.3548
C7_7 C 0.90898(18) 0.5730(7) 0.2929(3)
C9_7 C 0.81729(11) 0.9759(3) 0.2385(2)
C14_7 C 0.78522(11) 0.9758(3) 0.2716(2)
H16_7 H 0.7755 0.9025 0.2859
C15_7 C 0.83705(18) 0.8593(6) 0.2260(3)
C25_7 C 0.81627(9) 0.3151(3) 0.4189(2)
C26_7 C 0.77849(11) 0.2877(3) 0.4249(2)
H20_7 H 0.7720 0.2156 0.4448
C27_7 C 0.75018(8) 0.3660(4) 0.4019(2)
C28_7 C 0.75966(10) 0.4716(4) 0.3729(2)
H21_7 H 0.7403 0.5251 0.3572
C29_7 C 0.79744(11) 0.4990(3) 0.3668(2)
C30_7 C 0.82575(8) 0.4207(4) 0.3898(2)
H22_7 H 0.8516 0.4394 0.3857
C31_7 C 0.84721(18) 0.2379(6) 0.4486(3)
C32_7 C 0.70973(18) 0.3418(7) 0.4101(3)
O19_7 O 0.94531(19) 0.8547(6) 0.1927(4)
H23_7 H 0.9365(11) 0.9235(18) 0.185(4)
H24_7 H 0.9574(17) 0.849(5) 0.227(2)
O21_4 O 0.94575(12) 0.6077(4) 0.1613(2)
H31_7 H 0.746143 0.58275 0.214864
O8_4 O 0.18389(13) 0.4005(4) 0.2689(3)
C10_8 C 0.16851(10) 0.0832(3) 0.2824(2)
H14_8 H 0.1466 0.0833 0.3051
C11_8 C 0.18637(11) 0.1903(3) 0.2702(2)
C12_8 C 0.21843(11) 0.1902(3) 0.2371(2)
H15_8 H 0.2306 0.2634 0.2288
C13_8 C 0.23263(10) 0.0829(3) 0.2162(2)
C16_8 C 0.17143(19) 0.3085(6) 0.2914(3)
O1_8 O 0.12321(12) 0.5274(5) 0.2105(3)
O2_8 O 0.08345(13) 0.6769(4) 0.2265(2)
O5_8 O 0.17817(14) 0.7666(4) 0.2549(2)
O6_8 O 0.13359(12) 0.8624(4) 0.3023(2)
O13_8 O 0.11949(12) 0.2757(5) 0.0524(2)
O14_8 O 0.16173(12) 0.1427(4) 0.0251(2)
O15_8 O 0.30196(13) 0.2371(5) 0.0846(3)
N1_8 N 0.04573(14) 0.2179(5) 0.0852(3)
H3_8 H 0.0620 0.1691 0.1093
H4_8 H 0.0235 0.1760 0.0770
N4_8 N 0.19323(16) 0.6026(5) 0.1676(3)
H9_8 H 0.1747 0.6435 0.1437
H10_8 H 0.2143 0.6510 0.1713
C1_8 C 0.05873(9) 0.4980(3) 0.1776(2)
C2_8 C 0.02132(10) 0.5322(3) 0.1819(2)
H11_8 H 0.0158 0.6050 0.2020
C4_8 C 0.00004(9) 0.3532(3) 0.1275(2)
C5_8 C 0.03745(10) 0.3190(3) 0.1231(2)
C6_8 C 0.06679(8) 0.3914(4) 0.1482(2)
H13_8 H 0.0924 0.3680 0.1452
C7_8 C 0.09102(18) 0.5730(7) 0.2071(3)
C9_8 C 0.18271(11) 0.9759(3) 0.2615(2)
C14_8 C 0.21478(11) 0.9758(3) 0.2284(2)
H16_8 H 0.2245 0.9025 0.2141
C15_8 C 0.16295(18) 0.8593(6) 0.2740(3)
C25_8 C 0.18373(9) 0.3151(3) 0.0811(2)
C26_8 C 0.22151(11) 0.2877(3) 0.0751(2)
H20_8 H 0.2280 0.2156 0.0552
C27_8 C 0.24982(8) 0.3660(4) 0.0981(2)
C28_8 C 0.24034(10) 0.4716(4) 0.1271(2)
H21_8 H 0.2597 0.5251 0.1428
C29_8 C 0.20256(11) 0.4990(3) 0.1332(2)
C30_8 C 0.17425(8) 0.4207(4) 0.1102(2)
H22_8 H 0.1484 0.4394 0.1143
C31_8 C 0.15279(18) 0.2379(6) 0.0514(3)
C32_8 C 0.29027(18) 0.3418(7) 0.0899(3)
O19_8 O 0.05469(19) 0.8547(6) 0.3073(4)
H23_8 H 0.0635(11) 0.9235(18) 0.315(4)
H24_8 H 0.0426(17) 0.849(5) 0.273(2)
H31_8 H 0.253857 0.58275 0.285136
N3_8 N 0.01922(14) 0.2384(5) 0.9325(3)
H7_8 H 0.0191 0.1672 0.9109
H8_8 H 0.0205 0.2989 0.9037
O4_8 O 0.92653(12) 0.4181(4) 0.1603(2)
O10_8 O 0.88905(12) 0.4940(4) 0.0429(2)
C3_8 C 0.99198(8) 0.4598(4) 0.1569(2)
H12_8 H 0.9800 0.3037 0.1103
C8_8 C 0.95202(17) 0.4969(6) 0.1601(3)
C17_8 C 0.93492(11) 0.3647(3) 0.0023(2)
C18_8 C 0.91779(9) 0.2601(3) 0.0206(2)
H17_8 H 0.8952 0.2639 0.0414
C19_8 C 0.93375(10) 0.1498(3) 0.0086(2)
C23_8 C 0.91963(18) 0.4865(6) 0.0170(3)
C24_8 C 0.91601(17) 0.0338(6) 0.0261(3)
O20_8 O 0.81493(19) 0.4532(7) 0.0710(3)
H25_8 H 0.8144(13) 0.513(5) 0.046(3)
H26_8 H 0.8120(14) 0.389(4) 0.049(3)
C20_7 C 0.03317(10) 0.8558(3) 0.0218(2)
H18_7 H 0.0223 0.9312 0.0300
C21_7 C 0.01604(9) 0.7512(3) 0.0401(2)
C22_7 C 0.03199(10) 0.6409(3) 0.0280(2)
H19_7 H 0.0203 0.5694 0.0405
C20_8 C 0.96683(10) 0.1442(3) 0.9782(2)
H18_8 H 0.9777 0.0688 0.9700
C21_8 C 0.98396(9) 0.2488(3) 0.9599(2)
C22_8 C 0.96801(10) 0.3591(3) 0.9720(2)
H19_8 H 0.9797 0.4306 0.9595
loop_
_geom_bond_atom_site_label_1
_geom_bond_atom_site_label_2
_geom_bond_site_symmetry_1
_geom_bond_site_symmetry_2
Co3 O4 1_555 1_555
Co4 O14 1_555 1_555
Co5 O13 1_555 1_555
O4 C8 1_555 1_555
O10 Co3 1_555 1_555
O11 C24 1_555 1_555
O12 C24 1_555 1_555
O13 C31 1_555 1_555
O14 C31 1_555 1_555
O15 C32 1_555 1_555
O16 C32 1_555 1_555
N1 Co5 1_555 1_555
H3 N1 1_555 1_555
H4 N1 1_555 1_555
N3 Co5 1_555 1_555
H7 N3 1_555 1_555
H8 N3 1_555 1_555
C4 C3 1_555 1_555
H12 C4 1_555 1_555
C5 N1 1_555 1_555
C6 C1 1_555 1_555
H13 C6 1_555 1_555
C8 C3 1_555 1_555
C17 C18 1_555 1_555
C18 H17 1_555 1_555
C19 C18 1_555 1_555
C20 C19 1_555 1_555
H18 C20 1_555 1_555
C21 N3 1_555 1_555
C22 C17 1_555 1_555
H19 C22 1_555 1_555
C23 O10 1_555 1_555
C24 C19 1_555 1_555
C25 C26 1_555 1_555
C26 H20 1_555 1_555
C27 C26 1_555 1_555
C28 C27 1_555 1_555
C30 C25 1_555 1_555
H22 C30 1_555 1_555
C31 C25 1_555 1_555
C32 C27 1_555 1_555
O20 Co3 1_555 1_555
H26 O20 1_555 1_555
Co11 O11 1_555 1_555
Co12 O16 1_555 1_555
Co15 O12 1_555 1_555
O22 Co3 1_555 1_555
O24 Co5 1_555 1_555
O25 Co4 1_555 1_555
O26 Co5 1_555 1_555
O27 Co4 1_555 1_555
O29 Co4 1_555 1_555
H28 O29 1_555 1_555
Co5 O29 1_555 1_555
C4 C5 1_555 1_555
C5 C6 1_555 1_555
C17 C23 1_555 1_555
C20 C21 1_555 1_555
C21 C22 1_555 1_555
C28 C29 1_555 1_555
C29 C30 1_555 1_555
Co1 O1 1_555 1_555
Co2 O2 1_555 1_555
O1 C7 1_555 1_555
O2 C7 1_555 1_555
O5 Co1 1_555 1_555
O6 Co2 1_555 1_555
O7 C16 1_555 1_555
O23 C16 1_555 1_555
O17 Co1 1_555 1_555
H1 O17 1_555 1_555
O18 Co2 1_555 1_555
H2 O18 1_555 1_555
N2 H5 1_555 1_555
H6 N2 1_555 1_555
N4 Co1 1_555 1_555
H9 N4 1_555 1_555
H10 N4 1_555 1_555
C2 H11 1_555 1_555
C9 C10 1_555 1_555
C10 H14 1_555 1_555
C11 C10 1_555 1_555
C12 C11 1_555 1_555
H15 C12 1_555 1_555
C13 N2 1_555 1_555
C14 C9 1_555 1_555
H16 C14 1_555 1_555
C15 O5 1_555 1_555
C16 C11 1_555 1_555
O19 Co2 1_555 1_555
H23 O19 1_555 1_555
H24 O19 1_555 1_555
Co7 N2 1_555 1_555
Co8 O3 1_555 1_555
Co10 O7 1_555 1_555
Co13 O18 1_555 1_555
Co15 O9 1_555 1_555
Co16 O18 1_555 1_555
O21 Co2 1_555 1_555
H27 O28 1_555 1_555
N5 Co1 1_555 1_555
H29 N5 1_555 1_555
H30 N5 1_555 1_555
Co2 O17 1_555 1_555
O6 C15 1_555 1_555
C9 C15 1_555 1_555
C12 C13 1_555 1_555
C13 C14 1_555 1_555
Co8 O28 1_555 1_555
N5 H31 1_555 1_555
N3_2 Co5_2 1_555 1_555
H7_2 N3_2 1_555 1_555
H8_2 N3_2 1_555 1_555
H18_2 C20_2 1_555 1_555
C21_2 N3_2 1_555 1_555
H19_2 C22_2 1_555 1_555
O24_2 Co5_2 1_555 1_555
O25_2 Co4_2 1_555 1_555
O26_2 Co5_2 1_555 1_555
O27_2 Co4_2 1_555 1_555
O29_2 Co4_2 1_555 1_555
H28_2 O29_2 1_555 1_555
Co5_2 O29_2 1_555 1_555
C20_2 C21_2 1_555 1_555
C21_2 C22_2 1_555 1_555
Co10 O4_2 1_555 1_555
O4_2 C8_2 1_555 1_555
O10_2 Co10 1_555 1_555
O11_2 C24_2 1_555 1_555
O12_2 C24_2 1_555 1_555
O13_2 C31_2 1_555 1_555
O14_2 C31_2 1_555 1_555
O15_2 C32_2 1_555 1_555
O16_2 C32_2 1_555 1_555
H3_2 N1_2 1_555 1_555
H4_2 N1_2 1_555 1_555
C4_2 C3_2 1_555 1_555
H12_2 C4_2 1_555 1_555
C5_2 N1_2 1_555 1_555
C6_2 C1_2 1_555 1_555
H13_2 C6_2 1_555 1_555
C8_2 C3_2 1_555 1_555
C17_2 C18_2 1_555 1_555
C18_2 H17_2 1_555 1_555
C19_2 C18_2 1_555 1_555
C23_2 O10_2 1_555 1_555
C24_2 C19_2 1_555 1_555
C25_2 C26_2 1_555 1_555
C26_2 H20_2 1_555 1_555
C27_2 C26_2 1_555 1_555
C28_2 C27_2 1_555 1_555
C30_2 C25_2 1_555 1_555
H22_2 C30_2 1_555 1_555
C31_2 C25_2 1_555 1_555
C32_2 C27_2 1_555 1_555
O20_2 Co10 1_555 1_555
H26_2 O20_2 1_555 1_555
Co13 O11_2 1_555 1_555
Co12_2 O16_2 1_555 1_555
Co16 O12_2 1_555 1_555
C4_2 C5_2 1_555 1_555
C5_2 C6_2 1_555 1_555
C17_2 C23_2 1_555 1_555
C28_2 C29_2 1_555 1_555
C29_2 C30_2 1_555 1_555
Co1_2 O1_2 1_555 1_555
Co8 O2_2 1_555 1_555
O1_2 C7_2 1_555 1_555
O2_2 C7_2 1_555 1_555
O5_2 Co1_2 1_555 1_555
O6_2 Co8 1_555 1_555
O22 C16_2 1_555 1_555
O23_2 C16_2 1_555 1_555
O28 Co1_2 1_555 1_555
O18_2 Co8 1_555 1_555
H2_2 O18_2 1_555 1_555
N2_2 H5_2 1_555 1_555
H6_2 N2_2 1_555 1_555
N4_2 Co1_2 1_555 1_555
H9_2 N4_2 1_555 1_555
H10_2 N4_2 1_555 1_555
C2_2 H11_2 1_555 1_555
C9_2 C10_2 1_555 1_555
C10_2 H14_2 1_555 1_555
C11_2 C10_2 1_555 1_555
C12_2 C11_2 1_555 1_555
H15_2 C12_2 1_555 1_555
C13_2 N2_2 1_555 1_555
C14_2 C9_2 1_555 1_555
H16_2 C14_2 1_555 1_555
C15_2 O5_2 1_555 1_555
C16_2 C11_2 1_555 1_555
O19_2 Co8 1_555 1_555
H23_2 O19_2 1_555 1_555
H24_2 O19_2 1_555 1_555
Co7_2 N2_2 1_555 1_555
Co11 O18_2 1_555 1_555
Co16 O9_2 1_555 1_555
Co15 O18_2 1_555 1_555
N5_2 Co1_2 1_555 1_555
H29_2 N5_2 1_555 1_555
H30_2 N5_2 1_555 1_555
O6_2 C15_2 1_555 1_555
C9_2 C15_2 1_555 1_555
C12_2 C13_2 1_555 1_555
C13_2 C14_2 1_555 1_555
N5_2 H31_2 1_555 1_555
Co7_2 O1_3 1_555 1_555
Co2_2 O2_3 1_555 1_555
Co4_3 O14_3 1_555 1_555
Co5_3 O13_3 1_555 1_555
O1_3 C7_3 1_555 1_555
O2_3 C7_3 1_555 1_555
O5_3 Co7_2 1_555 1_555
O6_3 Co2_2 1_555 1_555
O13_3 C31_3 1_555 1_555
O14_3 C31_3 1_555 1_555
O15_3 C32_3 1_555 1_555
O16_3 C32_3 1_555 1_555
O17_2 Co7_2 1_555 1_555
H1_2 O17_2 1_555 1_555
O18_3 Co2_2 1_555 1_555
H2_3 O18_3 1_555 1_555
N1_3 Co5_3 1_555 1_555
H3_3 N1_3 1_555 1_555
H4_3 N1_3 1_555 1_555
N3_3 Co5_3 1_555 1_555
H7_3 N3_3 1_555 1_555
H8_3 N3_3 1_555 1_555
N4_3 Co7_2 1_555 1_555
H9_3 N4_3 1_555 1_555
H10_3 N4_3 1_555 1_555
C1_3 C2_3 1_555 1_555
C2_3 H11_3 1_555 1_555
C5_3 N1_3 1_555 1_555
C6_3 C1_3 1_555 1_555
H13_3 C6_3 1_555 1_555
C7_3 C1_3 1_555 1_555
C14_3 C9_3 1_555 1_555
H16_3 C14_3 1_555 1_555
C15_3 O5_3 1_555 1_555
C25_3 C26_3 1_555 1_555
C26_3 H20_3 1_555 1_555
C27_3 C26_3 1_555 1_555
C28_3 C27_3 1_555 1_555
H21_3 C28_3 1_555 1_555
C29_3 N4_3 1_555 1_555
C30_3 C25_3 1_555 1_555
H22_3 C30_3 1_555 1_555
C31_3 C25_3 1_555 1_555
C32_3 C27_3 1_555 1_555
O19_3 Co2_2 1_555 1_555
H23_3 O19_3 1_555 1_555
H24_3 O19_3 1_555 1_555
Co10_2 O17_2 1_555 1_555
Co11 O16_3 1_555 1_555
Co12_2 O18_3 1_555 1_555
Co16_2 O18_3 1_555 1_555
O21_2 Co2_2 1_555 1_555
O23_3 Co7_2 1_555 1_555
O24_3 Co5_3 1_555 1_555
O26_3 Co5_3 1_555 1_555
O27_3 Co4_3 1_555 1_555
O29_3 Co4_3 1_555 1_555
H28_3 O29_3 1_555 1_555
Co2_2 O17_2 1_555 1_555
Co5_3 O29_3 1_555 1_555
O6_3 C15_3 1_555 1_555
C4_3 C5_3 1_555 1_555
C5_3 C6_3 1_555 1_555
C9_3 C15_3 1_555 1_555
C28_3 C29_3 1_555 1_555
C29_3 C30_3 1_555 1_555
N2_2 H31_3 1_555 1_555
O7_2 C16_3 1_555 1_555
O23_3 C16_3 1_555 1_555
C10_3 H14_3 1_555 1_555
C11_3 C10_3 1_555 1_555
C12_3 C11_3 1_555 1_555
H15_3 C12_3 1_555 1_555
C13_3 N5_2 1_555 1_555
C16_3 C11_3 1_555 1_555
Co10_2 O7_2 1_555 1_555
C12_3 C13_3 1_555 1_555
Co15_2 O12_3 1_555 1_555
Co3_2 O4_3 1_555 1_555
O3_2 C8_3 1_555 1_555
O4_3 C8_3 1_555 1_555
O9_3 C23_3 1_555 1_555
O10_3 Co3_2 1_555 1_555
O11_3 C24_3 1_555 1_555
C8_3 C3_3 1_555 1_555
C17_3 C18_3 1_555 1_555
C18_3 H17_3 1_555 1_555
C19_3 C18_3 1_555 1_555
C20_3 C19_3 1_555 1_555
H18_3 C20_3 1_555 1_555
C22_3 C17_3 1_555 1_555
H19_3 C22_3 1_555 1_555
C23_3 O10_3 1_555 1_555
C24_3 C19_3 1_555 1_555
O20_3 Co3_2 1_555 1_555
H25_3 O20_3 1_555 1_555
H26_3 O20_3 1_555 1_555
Co8_2 O3_2 1_555 1_555
Co15_2 O9_3 1_555 1_555
O22_2 Co3_2 1_555 1_555
O28_2 Co3_2 1_555 1_555
H27_2 O28_2 1_555 1_555
C17_3 C23_3 1_555 1_555
C20_3 C21_3 1_555 1_555
C21_3 C22_3 1_555 1_555
Co8_2 O28_2 1_555 1_555
Co16_2 O12_4 1_555 1_555
Co10_2 O4_4 1_555 1_555
O21_2 C8_4 1_555 1_555
O4_4 C8_4 1_555 1_555
O9_4 C23_4 1_555 1_555
O10_4 Co10_2 1_555 1_555
O11_4 C24_4 1_555 1_555
C8_4 C3_4 1_555 1_555
C17_4 C18_4 1_555 1_555
C18_4 H17_4 1_555 1_555
C19_4 C18_4 1_555 1_555
C23_4 O10_4 1_555 1_555
C24_4 C19_4 1_555 1_555
O20_4 Co10_2 1_555 1_555
H25_4 O20_4 1_555 1_555
H26_4 O20_4 1_555 1_555
Co16_2 O9_4 1_555 1_555
C17_4 C23_4 1_555 1_555
N3_4 Co5_4 1_555 1_555
H7_4 N3_4 1_555 1_555
H8_4 N3_4 1_555 1_555
O24_4 Co5_4 1_555 1_555
O26_4 Co5_4 1_555 1_555
O27_4 Co4_4 1_555 1_555
O29_4 Co4_4 1_555 1_555
H28_4 O29_4 1_555 1_555
Co5_4 O29_4 1_555 1_555
Co7 O1_4 1_555 1_555
Co8_2 O2_4 1_555 1_555
O1_4 C7_4 1_555 1_555
O2_4 C7_4 1_555 1_555
O5_4 Co7 1_555 1_555
O6_4 Co8_2 1_555 1_555
O13_4 C31_4 1_555 1_555
O14_4 C31_4 1_555 1_555
O15_4 C32_4 1_555 1_555
O16_4 C32_4 1_555 1_555
O28_2 Co7 1_555 1_555
O18_4 Co8_2 1_555 1_555
H2_4 O18_4 1_555 1_555
H3_4 N1_4 1_555 1_555
H4_4 N1_4 1_555 1_555
N4_4 Co7 1_555 1_555
H9_4 N4_4 1_555 1_555
H10_4 N4_4 1_555 1_555
C1_4 C2_4 1_555 1_555
C2_4 H11_4 1_555 1_555
C5_4 N1_4 1_555 1_555
C6_4 C1_4 1_555 1_555
H13_4 C6_4 1_555 1_555
C7_4 C1_4 1_555 1_555
C14_4 C9_4 1_555 1_555
H16_4 C14_4 1_555 1_555
C15_4 O5_4 1_555 1_555
C25_4 C26_4 1_555 1_555
C26_4 H20_4 1_555 1_555
C27_4 C26_4 1_555 1_555
C28_4 C27_4 1_555 1_555
H21_4 C28_4 1_555 1_555
C29_4 N4_4 1_555 1_555
C30_4 C25_4 1_555 1_555
H22_4 C30_4 1_555 1_555
C31_4 C25_4 1_555 1_555
C32_4 C27_4 1_555 1_555
O19_4 Co8_2 1_555 1_555
H23_4 O19_4 1_555 1_555
H24_4 O19_4 1_555 1_555
Co13 O16_4 1_555 1_555
Co12 O18_4 1_555 1_555
Co15_2 O18_4 1_555 1_555
O23_4 Co7 1_555 1_555
O6_4 C15_4 1_555 1_555
C4_4 C5_4 1_555 1_555
C5_4 C6_4 1_555 1_555
C9_4 C15_4 1_555 1_555
C28_4 C29_4 1_555 1_555
C29_4 C30_4 1_555 1_555
N2 H31_4 1_555 1_555
O22_2 C16_4 1_555 1_555
O23_4 C16_4 1_555 1_555
C10_4 H14_4 1_555 1_555
C11_4 C10_4 1_555 1_555
C12_4 C11_4 1_555 1_555
H15_4 C12_4 1_555 1_555
C13_4 N5 1_555 1_555
C16_4 C11_4 1_555 1_555
C12_4 C13_4 1_555 1_555
Co6 O1_5 1_555 1_555
Co2_3 O2_5 1_555 1_555
O1_5 C7_5 1_555 1_555
O2_5 C7_5 1_555 1_555
O5_5 Co6 1_555 1_555
O6_5 Co2_3 1_555 1_555
O7_3 C16_5 1_555 1_555
O8 C16_5 1_555 1_555
O17_3 Co6 1_555 1_555
H1_3 O17_3 1_555 1_555
O29_2 Co2_3 1_555 1_555
N2_3 H5_3 1_555 1_555
H6_3 N2_3 1_555 1_555
N4_5 Co6 1_555 1_555
H9_5 N4_5 1_555 1_555
H10_5 N4_5 1_555 1_555
C2_5 H11_5 1_555 1_555
C9_5 C10_5 1_555 1_555
C10_5 H14_5 1_555 1_555
C11_5 C10_5 1_555 1_555
C12_5 C11_5 1_555 1_555
H15_5 C12_5 1_555 1_555
C13_5 N2_3 1_555 1_555
C14_5 C9_5 1_555 1_555
H16_5 C14_5 1_555 1_555
C15_5 O5_5 1_555 1_555
C16_5 C11_5 1_555 1_555
O19_5 Co2_3 1_555 1_555
H23_5 O19_5 1_555 1_555
H24_5 O19_5 1_555 1_555
Co7_3 N2_3 1_555 1_555
Co8_3 O3_3 1_555 1_555
Co9 O7_3 1_555 1_555
O21_3 Co2_3 1_555 1_555
H27_3 O28_3 1_555 1_555
N5_3 Co6 1_555 1_555
H29_3 N5_3 1_555 1_555
H30_3 N5_3 1_555 1_555
Co2_3 O17_3 1_555 1_555
O6_5 C15_5 1_555 1_555
C9_5 C15_5 1_555 1_555
C12_5 C13_5 1_555 1_555
C13_5 C14_5 1_555 1_555
Co8_3 O28_3 1_555 1_555
N5_3 H31_5 1_555 1_555
Co3_3 O4_5 1_555 1_555
Co11 O14_5 1_555 1_555
Co15 O13_5 1_555 1_555
O4_5 C8_5 1_555 1_555
O10_5 Co3_3 1_555 1_555
O25 C24_5 1_555 1_555
O26 C24_5 1_555 1_555
O13_5 C31_5 1_555 1_555
O14_5 C31_5 1_555 1_555
O15_5 C32_5 1_555 1_555
O27_3 C32_5 1_555 1_555
N1_5 Co15 1_555 1_555
H3_5 N1_5 1_555 1_555
H4_5 N1_5 1_555 1_555
N3_5 Co15 1_555 1_555
H7_5 N3_5 1_555 1_555
H8_5 N3_5 1_555 1_555
C4_5 C3_5 1_555 1_555
H12_5 C4_5 1_555 1_555
C5_5 N1_5 1_555 1_555
C6_5 C1_5 1_555 1_555
H13_5 C6_5 1_555 1_555
C8_5 C3_5 1_555 1_555
C17_5 C18_5 1_555 1_555
C18_5 H17_5 1_555 1_555
C19_5 C18_5 1_555 1_555
C20_4 C19_5 1_555 1_555
H18_4 C20_4 1_555 1_555
C21_4 N3_5 1_555 1_555
C22_4 C17_5 1_555 1_555
H19_4 C22_4 1_555 1_555
C23_5 O10_5 1_555 1_555
C24_5 C19_5 1_555 1_555
C25_5 C26_5 1_555 1_555
C26_5 H20_5 1_555 1_555
C27_5 C26_5 1_555 1_555
C28_5 C27_5 1_555 1_555
C30_5 C25_5 1_555 1_555
H22_5 C30_5 1_555 1_555
C31_5 C25_5 1_555 1_555
C32_5 C27_5 1_555 1_555
O20_5 Co3_3 1_555 1_555
H26_5 O20_5 1_555 1_555
O22_3 Co3_3 1_555 1_555
C4_5 C5_5 1_555 1_555
C5_5 C6_5 1_555 1_555
C17_5 C23_5 1_555 1_555
C20_4 C21_4 1_555 1_555
C21_4 C22_4 1_555 1_555
C28_5 C29_5 1_555 1_555
C29_5 C30_5 1_555 1_555
Co6_2 O1_6 1_555 1_555
Co8_3 O2_6 1_555 1_555
O1_6 C7_6 1_555 1_555
O2_6 C7_6 1_555 1_555
O5_6 Co6_2 1_555 1_555
O6_6 Co8_3 1_555 1_555
O22_3 C16_6 1_555 1_555
O8_2 C16_6 1_555 1_555
O28_3 Co6_2 1_555 1_555
O29 Co8_3 1_555 1_555
N2_4 H5_4 1_555 1_555
H6_4 N2_4 1_555 1_555
N4_6 Co6_2 1_555 1_555
H9_6 N4_6 1_555 1_555
H10_6 N4_6 1_555 1_555
C2_6 H11_6 1_555 1_555
C9_6 C10_6 1_555 1_555
C10_6 H14_6 1_555 1_555
C11_6 C10_6 1_555 1_555
C12_6 C11_6 1_555 1_555
H15_6 C12_6 1_555 1_555
C13_6 N2_4 1_555 1_555
C14_6 C9_6 1_555 1_555
H16_6 C14_6 1_555 1_555
C15_6 O5_6 1_555 1_555
C16_6 C11_6 1_555 1_555
O19_6 Co8_3 1_555 1_555
H23_6 O19_6 1_555 1_555
H24_6 O19_6 1_555 1_555
Co7_4 N2_4 1_555 1_555
N5_4 Co6_2 1_555 1_555
H29_4 N5_4 1_555 1_555
H30_4 N5_4 1_555 1_555
O6_6 C15_6 1_555 1_555
C9_6 C15_6 1_555 1_555
C12_6 C13_6 1_555 1_555
C13_6 C14_6 1_555 1_555
N5_4 H31_6 1_555 1_555
Co9 O4_6 1_555 1_555
O4_6 C8_6 1_555 1_555
O10_6 Co9 1_555 1_555
O25_2 C24_6 1_555 1_555
O26_2 C24_6 1_555 1_555
O13_6 C31_6 1_555 1_555
O14_6 C31_6 1_555 1_555
O15_6 C32_6 1_555 1_555
O27_4 C32_6 1_555 1_555
H3_6 N1_6 1_555 1_555
H4_6 N1_6 1_555 1_555
C4_6 C3_6 1_555 1_555
H12_6 C4_6 1_555 1_555
C5_6 N1_6 1_555 1_555
C6_6 C1_6 1_555 1_555
H13_6 C6_6 1_555 1_555
C8_6 C3_6 1_555 1_555
C17_6 C18_6 1_555 1_555
C18_6 H17_6 1_555 1_555
C19_6 C18_6 1_555 1_555
C23_6 O10_6 1_555 1_555
C24_6 C19_6 1_555 1_555
C25_6 C26_6 1_555 1_555
C26_6 H20_6 1_555 1_555
C27_6 C26_6 1_555 1_555
C28_6 C27_6 1_555 1_555
C30_6 C25_6 1_555 1_555
H22_6 C30_6 1_555 1_555
C31_6 C25_6 1_555 1_555
C32_6 C27_6 1_555 1_555
O20_6 Co9 1_555 1_555
H26_6 O20_6 1_555 1_555
C4_6 C5_6 1_555 1_555
C5_6 C6_6 1_555 1_555
C17_6 C23_6 1_555 1_555
C28_6 C29_6 1_555 1_555
C29_6 C30_6 1_555 1_555
N3_6 Co16 1_555 1_555
H7_6 N3_6 1_555 1_555
H8_6 N3_6 1_555 1_555
H18_5 C20_5 1_555 1_555
C21_5 N3_6 1_555 1_555
H19_5 C22_5 1_555 1_555
C20_5 C21_5 1_555 1_555
C21_5 C22_5 1_555 1_555
Co3_4 O4_7 1_555 1_555
O3_4 C8_7 1_555 1_555
O4_7 C8_7 1_555 1_555
O24_3 C23_7 1_555 1_555
O10_7 Co3_4 1_555 1_555
O25_3 C24_7 1_555 1_555
C8_7 C3_7 1_555 1_555
C17_7 C18_7 1_555 1_555
C18_7 H17_7 1_555 1_555
C19_7 C18_7 1_555 1_555
C20_6 C19_7 1_555 1_555
H18_6 C20_6 1_555 1_555
C22_6 C17_7 1_555 1_555
H19_6 C22_6 1_555 1_555
C23_7 O10_7 1_555 1_555
C24_7 C19_7 1_555 1_555
O20_7 Co3_4 1_555 1_555
H25_7 O20_7 1_555 1_555
H26_7 O20_7 1_555 1_555
Co8_4 O3_4 1_555 1_555
O22_4 Co3_4 1_555 1_555
O28_4 Co3_4 1_555 1_555
H27_4 O28_4 1_555 1_555
C17_7 C23_7 1_555 1_555
C20_6 C21_6 1_555 1_555
C21_6 C22_6 1_555 1_555
Co8_4 O28_4 1_555 1_555
O7_4 C16_7 1_555 1_555
O8_3 C16_7 1_555 1_555
C10_7 H14_7 1_555 1_555
C11_7 C10_7 1_555 1_555
C12_7 C11_7 1_555 1_555
H15_7 C12_7 1_555 1_555
C13_7 N5_4 1_555 1_555
C16_7 C11_7 1_555 1_555
Co7_4 O8_3 1_555 1_555
Co9_2 O7_4 1_555 1_555
C12_7 C13_7 1_555 1_555
Co7_4 O1_7 1_555 1_555
Co2_4 O2_7 1_555 1_555
Co12 O14_7 1_555 1_555
Co15_2 O13_7 1_555 1_555
O1_7 C7_7 1_555 1_555
O2_7 C7_7 1_555 1_555
O5_7 Co7_4 1_555 1_555
O6_7 Co2_4 1_555 1_555
O13_7 C31_7 1_555 1_555
O14_7 C31_7 1_555 1_555
O15_7 C32_7 1_555 1_555
O27 C32_7 1_555 1_555
O17_4 Co7_4 1_555 1_555
H1_4 O17_4 1_555 1_555
O29_4 Co2_4 1_555 1_555
N1_7 Co15_2 1_555 1_555
H3_7 N1_7 1_555 1_555
H4_7 N1_7 1_555 1_555
N3_7 Co15_2 1_555 1_555
H7_7 N3_7 1_555 1_555
H8_7 N3_7 1_555 1_555
N4_7 Co7_4 1_555 1_555
H9_7 N4_7 1_555 1_555
H10_7 N4_7 1_555 1_555
C1_7 C2_7 1_555 1_555
C2_7 H11_7 1_555 1_555
C5_7 N1_7 1_555 1_555
C6_7 C1_7 1_555 1_555
H13_7 C6_7 1_555 1_555
C7_7 C1_7 1_555 1_555
C14_7 C9_7 1_555 1_555
H16_7 C14_7 1_555 1_555
C15_7 O5_7 1_555 1_555
C25_7 C26_7 1_555 1_555
C26_7 H20_7 1_555 1_555
C27_7 C26_7 1_555 1_555
C28_7 C27_7 1_555 1_555
H21_7 C28_7 1_555 1_555
C29_7 N4_7 1_555 1_555
C30_7 C25_7 1_555 1_555
H22_7 C30_7 1_555 1_555
C31_7 C25_7 1_555 1_555
C32_7 C27_7 1_555 1_555
O19_7 Co2_4 1_555 1_555
H23_7 O19_7 1_555 1_555
H24_7 O19_7 1_555 1_555
Co9_2 O17_4 1_555 1_555
O21_4 Co2_4 1_555 1_555
Co2_4 O17_4 1_555 1_555
O6_7 C15_7 1_555 1_555
C4_7 C5_7 1_555 1_555
C5_7 C6_7 1_555 1_555
C9_7 C15_7 1_555 1_555
C28_7 C29_7 1_555 1_555
C29_7 C30_7 1_555 1_555
N2_4 H31_7 1_555 1_555
O22_4 C16_8 1_555 1_555
O8_4 C16_8 1_555 1_555
C10_8 H14_8 1_555 1_555
C11_8 C10_8 1_555 1_555
C12_8 C11_8 1_555 1_555
H15_8 C12_8 1_555 1_555
C13_8 N5_3 1_555 1_555
C16_8 C11_8 1_555 1_555
Co7_3 O8_4 1_555 1_555
C12_8 C13_8 1_555 1_555
Co7_3 O1_8 1_555 1_555
Co8_4 O2_8 1_555 1_555
O1_8 C7_8 1_555 1_555
O2_8 C7_8 1_555 1_555
O5_8 Co7_3 1_555 1_555
O6_8 Co8_4 1_555 1_555
O13_8 C31_8 1_555 1_555
O14_8 C31_8 1_555 1_555
O15_8 C32_8 1_555 1_555
O27_2 C32_8 1_555 1_555
O28_4 Co7_3 1_555 1_555
O29_3 Co8_4 1_555 1_555
H3_8 N1_8 1_555 1_555
H4_8 N1_8 1_555 1_555
N4_8 Co7_3 1_555 1_555
H9_8 N4_8 1_555 1_555
H10_8 N4_8 1_555 1_555
C1_8 C2_8 1_555 1_555
C2_8 H11_8 1_555 1_555
C5_8 N1_8 1_555 1_555
C6_8 C1_8 1_555 1_555
H13_8 C6_8 1_555 1_555
C7_8 C1_8 1_555 1_555
C14_8 C9_8 1_555 1_555
H16_8 C14_8 1_555 1_555
C15_8 O5_8 1_555 1_555
C25_8 C26_8 1_555 1_555
C26_8 H20_8 1_555 1_555
C27_8 C26_8 1_555 1_555
C28_8 C27_8 1_555 1_555
H21_8 C28_8 1_555 1_555
C29_8 N4_8 1_555 1_555
C30_8 C25_8 1_555 1_555
H22_8 C30_8 1_555 1_555
C31_8 C25_8 1_555 1_555
C32_8 C27_8 1_555 1_555
O19_8 Co8_4 1_555 1_555
H23_8 O19_8 1_555 1_555
H24_8 O19_8 1_555 1_555
O6_8 C15_8 1_555 1_555
C4_8 C5_8 1_555 1_555
C5_8 C6_8 1_555 1_555
C9_8 C15_8 1_555 1_555
C28_8 C29_8 1_555 1_555
C29_8 C30_8 1_555 1_555
N2_3 H31_8 1_555 1_555
N3_8 Co16_2 1_555 1_555
H7_8 N3_8 1_555 1_555
H8_8 N3_8 1_555 1_555
Co9_2 O4_8 1_555 1_555
O21_4 C8_8 1_555 1_555
O4_8 C8_8 1_555 1_555
O24_4 C23_8 1_555 1_555
O10_8 Co9_2 1_555 1_555
O25_4 C24_8 1_555 1_555
C8_8 C3_8 1_555 1_555
C17_8 C18_8 1_555 1_555
C18_8 H17_8 1_555 1_555
C19_8 C18_8 1_555 1_555
C23_8 O10_8 1_555 1_555
C24_8 C19_8 1_555 1_555
O20_8 Co9_2 1_555 1_555
H25_8 O20_8 1_555 1_555
H26_8 O20_8 1_555 1_555
C17_8 C23_8 1_555 1_555
H18_7 C20_7 1_555 1_555
H19_7 C22_7 1_555 1_555
C20_7 C21_7 1_555 1_555
C21_7 C22_7 1_555 1_555
H18_8 C20_8 1_555 1_555
H19_8 C22_8 1_555 1_555
C20_8 C21_8 1_555 1_555
C21_8 C22_8 1_555 1_555

#END
