
###############################################################################
#
# This file contains modified crystal structure data generated from the
# MOF subset of the Cambridge Structural Database (CSD) v543 
# hosted by the Cambridge Crystallographic Data Centre (CCDC).
#
# This work is licensed under the Creative Commons
# Attribution-NonCommercial-ShareAlike 4.0 International License.
# To view a copy of this license, visit
# http://creativecommons.org/licenses/by-nc-sa/4.0/
# or send a letter to
# Creative Commons, PO Box 1866, Mountain View, CA 94042, USA.
#
# CIF created using the CSD Python API on 29 September 2022
# The structure has been converted into the P1 space group
# The structure has a 3D framework
# The original CSD entry OGUQAL is in the monoclinic crystal system
# The framework has been calculated to contain at least 10.0% void space
# The void calculation uses a probe of radius 1.32A, grid spacing 0.4
#
###############################################################################

data_OGUQAL
_chemical_formula_moiety         '(C184 H160 N8 O36 Zn8)n'
_symmetry_cell_setting           triclinic
_symmetry_space_group_name_H-M   'P 1'
_symmetry_Int_Tables_number      1
_space_group_name_Hall           'P 1'
loop_
_symmetry_equiv_pos_site_id
_symmetry_equiv_pos_as_xyz
1 x,y,z
_cell_length_a                   10.0061(3)
_cell_length_b                   25.6847(7)
_cell_length_c                   19.0916(6)
_cell_angle_alpha                90
_cell_angle_beta                 90.775(3)
_cell_angle_gamma                90
_cell_volume                     4906.16
loop_
_atom_site_label
_atom_site_type_symbol
_atom_site_fract_x
_atom_site_fract_y
_atom_site_fract_z
Zn6 Zn 0.26447(4) 0.03385(2) 0.31126(2)
C42 C 0.0170(4) 0.14481(15) 0.1605(2)
H36 H 0.050444 0.154585 0.204205
H37 H 0.001754 0.047734 0.053789
C45 C 0.0406(3) 0.09535(14) 0.13584(19)
C46 C 0.1244(3) 0.05782(15) 0.1769(2)
O7 O 0.1632(2) 0.07210(10) 0.23690(14)
O8 O 0.1503(3) 0.01496(10) 0.14954(14)
O2 O 0.3582(3) 0.09206(12) 0.3533(2)
H1 H 0.973669 0.161913 0.443383
N2 N 0.8771(3) 0.24558(13) 0.50056(17)
C9 C 0.4284(4) 0.07233(19) 0.3994(2)
C11 C 0.7295(3) 0.16660(15) 0.49768(19)
C13 C 0.9701(3) 0.24039(15) 0.44746(18)
C16 C 0.5355(4) 0.10471(15) 0.4328(2)
C28 C 0.8298(4) 0.19996(17) 0.5369(2)
H16 H 0.906398 0.178462 0.549006
H17 H 0.789772 0.211127 0.580384
C29 C 0.7056(4) 0.11616(16) 0.5197(2)
H18 H 0.755309 0.102673 0.557004
C32 C 0.5603(4) 0.15401(16) 0.4093(2)
H22 H 0.511254 0.167112 0.371533
C33 C 0.6571(4) 0.18464(15) 0.4410(2)
H23 H 0.673551 0.217867 0.423837
O4 O 0.4138(4) 0.02628(15) 0.41618(19)
C35 C 0.8115(4) 0.29505(16) 0.5121(2)
H25 H 0.791509 0.310751 0.466942
H26 H 0.727230 0.288639 0.535037
C36 C 0.6106(4) 0.08574(17) 0.4880(2)
H27 H 0.596614 0.051956 0.503779
C39 C 0.8917(3) 0.33373(16) 0.5559(2)
C40 C 0.9440(4) 0.31988(15) 0.6209(2)
H34 H 0.929776 0.286480 0.638098
C41 C 0.9127(4) 0.38358(16) 0.5327(2)
H35 H 0.875595 0.393837 0.489992
C43 C 0.9873(4) 0.41895(15) 0.57119(19)
C2 C 0.0889(3) 0.94536(14) 0.31698(19)
C5 C 0.0111(4) 0.30829(16) 0.9241(2)
C12 C 0.1656(4) 0.27040(18) 0.8426(2)
C20 C 0.1227(4) 0.22224(18) 0.8652(2)
H9 H 0.158869 0.192512 0.845138
C23 C 0.1066(4) 0.31317(17) 0.8728(2)
H11 H 0.131781 0.346275 0.858318
C24 C 0.0283(4) 0.21664(16) 0.9164(2)
H12 H 0.003142 0.183406 0.930332
C37 C 0.2711(5) 0.2758(2) 0.7873(2)
H28 H 0.345089 0.253346 0.798604
H29 H 0.301382 0.311208 0.785714
H30 H 0.233990 0.266163 0.742541
O5 O 0.1276(2) 0.92944(10) 0.25843(13)
O6 O 0.1270(2) 0.98633(10) 0.34692(13)
Zn4 Zn 0.25958(4) 0.95988(2) 0.19160(2)
O1 O 0.3194(2) 0.90108(10) 0.13732(14)
C1 C 0.4993(3) 0.88309(15) 0.06219(19)
C3 C 0.4155(4) 0.92015(16) 0.1026(2)
O3 O 0.4415(3) 0.96697(11) 0.10315(18)
C8 C 0.4911(3) 0.83022(15) 0.0736(2)
H3 H 0.435558 0.817518 0.108355
C27 C 0.5644(4) 0.79616(16) 0.0342(2)
H15 H 0.558724 0.760638 0.043132
H19 H 0.732026 0.691622 0.001922
C34 C 0.5846(4) 0.90080(18) 0.0115(2)
H24 H 0.593425 0.936387 0.003815
O9 O 0.3889(2) 0.98783(10) 0.26062(13)
H39 H 0.415998 0.965996 0.291829
H40 H 0.459948 0.998236 0.241379
N2_2 N 0.8771(3) 0.25442(13) 0.00056(17)
C28_2 C 0.8298(4) 0.30004(17) 0.0369(2)
H16_2 H 0.906398 0.321538 0.049006
H17_2 H 0.789772 0.288873 0.080384
C29_2 C 0.7056(4) 0.38384(16) 0.0197(2)
H18_2 H 0.755309 0.397327 0.057004
C35_2 C 0.8115(4) 0.20495(16) 0.0121(2)
H26_2 H 0.727230 0.211361 0.035037
H27_2 H 0.596614 0.448044 0.003779
C39_2 C 0.8917(3) 0.16627(16) 0.0559(2)
C40_2 C 0.9440(4) 0.18012(15) 0.1209(2)
H34_2 H 0.929776 0.213520 0.138098
C41_2 C 0.9127(4) 0.11642(16) 0.0327(2)
C43_2 C 0.9873(4) 0.08105(15) 0.07119(19)
Zn1 Zn 0.25958(4) 0.54012(2) 0.69160(2)
Zn2 Zn 0.26447(4) 0.46615(2) 0.81126(2)
O1_2 O 0.3194(2) 0.59892(10) 0.63732(14)
C1_2 C 0.4993(3) 0.61691(15) 0.56219(19)
O2_2 O 0.3582(3) 0.40794(12) 0.8533(2)
C3_2 C 0.4155(4) 0.57985(16) 0.6026(2)
C4 C 0.9871(3) 0.91287(13) 0.35318(18)
N1 N 0.6499(3) 0.77274(13) 0.42119(17)
H1_2 H 0.973669 0.338087 0.943383
C6 C 0.9475(3) 0.86595(14) 0.32500(19)
H2 H 0.984955 0.854448 0.283470
O3_2 O 0.4415(3) 0.53303(11) 0.60315(18)
C7 C 0.5452(3) 0.77427(15) 0.37286(19)
C8_2 C 0.4911(3) 0.66978(15) 0.5736(2)
H3_2 H 0.435558 0.682482 0.608355
C9_2 C 0.4284(4) 0.42767(19) 0.8994(2)
C10 C 0.7962(3) 0.85171(16) 0.41925(19)
C11_2 C 0.7295(3) 0.33340(15) 0.99768(19)
C13_2 C 0.9701(3) 0.25961(15) 0.94746(18)
C14 C 0.6459(3) 0.68643(17) 0.4818(2)
C15 C 0.8525(4) 0.83571(15) 0.3577(2)
H4 H 0.826499 0.804177 0.337844
C16_2 C 0.5355(4) 0.39529(15) 0.9328(2)
C17 C 0.4907(4) 0.82103(16) 0.3493(2)
H5 H 0.525449 0.852328 0.365876
C18 C 0.8366(4) 0.89834(17) 0.4477(2)
H6 H 0.799461 0.909595 0.489438
C19 C 0.7200(4) 0.72453(18) 0.4356(2)
H7 H 0.805161 0.732741 0.457850
H8 H 0.738682 0.707565 0.391374
C21 C 0.3304(4) 0.77703(17) 0.2750(2)
C22 C 0.9313(4) 0.92877(15) 0.4155(2)
H10 H 0.957673 0.960117 0.435731
C25 C 0.3862(4) 0.82168(17) 0.3017(2)
H13 H 0.352044 0.853634 0.287200
C26 C 0.4889(4) 0.72919(16) 0.3452(2)
H14 H 0.522411 0.697042 0.359413
C27_2 C 0.5644(4) 0.70384(16) 0.5342(2)
H15_2 H 0.558724 0.739362 0.543132
C30 C 0.6940(4) 0.81864(18) 0.4570(2)
H19_2 H 0.732026 0.808378 0.501922
H20 H 0.616495 0.840121 0.466233
C31 C 0.3850(4) 0.73084(17) 0.2976(2)
H21 H 0.350594 0.699748 0.280097
C32_2 C 0.5603(4) 0.34599(16) 0.9093(2)
H22_2 H 0.511254 0.332888 0.871533
C33_2 C 0.6571(4) 0.31536(15) 0.9410(2)
H23_2 H 0.673551 0.282133 0.923837
C34_2 C 0.5846(4) 0.59920(18) 0.5115(2)
H24_2 H 0.593425 0.563613 0.503815
O4_2 O 0.4138(4) 0.47372(15) 0.91618(19)
H25_2 H 0.791509 0.189249 0.966942
C36_2 C 0.6106(4) 0.41426(17) 0.9880(2)
C38 C 0.2141(4) 0.7786(2) 0.2235(2)
H31 H 0.132829 0.770839 0.247489
H32 H 0.227823 0.753260 0.187296
H33 H 0.207963 0.812648 0.202985
H35_2 H 0.875595 0.106163 0.989992
C44 C 0.6569(4) 0.63372(19) 0.4720(2)
H38 H 0.714302 0.621092 0.438046
O9_2 O 0.3889(2) 0.51217(10) 0.76062(13)
H39_2 H 0.415998 0.534004 0.791829
H40_2 H 0.459948 0.501764 0.741379
O10 O 0.1276(2) 0.57056(10) 0.75843(13)
O11 O 0.1270(2) 0.51367(10) 0.84692(13)
O12 O 0.1632(2) 0.42790(10) 0.73690(14)
O13 O 0.1503(3) 0.48504(10) 0.64954(14)
C5_2 C 0.0111(4) 0.19171(16) 0.4241(2)
C12_2 C 0.1656(4) 0.22960(18) 0.3426(2)
C20_2 C 0.1227(4) 0.27776(18) 0.3652(2)
H9_2 H 0.158869 0.307488 0.345138
C23_2 C 0.1066(4) 0.18683(17) 0.3728(2)
H11_2 H 0.131781 0.153725 0.358318
C24_2 C 0.0283(4) 0.28336(16) 0.4164(2)
H12_2 H 0.003142 0.316594 0.430332
C37_2 C 0.2711(5) 0.2242(2) 0.2873(2)
H28_2 H 0.345089 0.246654 0.298604
H29_2 H 0.301382 0.188792 0.285714
H30_2 H 0.233990 0.233837 0.242541
C42_2 C 0.0170(4) 0.35519(15) 0.6605(2)
H36_2 H 0.050444 0.345415 0.704205
H37_2 H 0.001754 0.452266 0.553789
C45_2 C 0.0406(3) 0.40465(14) 0.63584(19)
C46_2 C 0.1244(3) 0.44218(15) 0.6769(2)
C2_2 C 0.0889(3) 0.55464(14) 0.81698(19)
C4_2 C 0.0129(3) 0.41287(13) 0.14682(18)
N1_2 N 0.3501(3) 0.27274(13) 0.07881(17)
C6_2 C 0.0525(3) 0.36595(14) 0.17500(19)
H2_2 H 0.015045 0.354448 0.216530
C7_2 C 0.4548(3) 0.27427(15) 0.12714(19)
C10_2 C 0.2038(3) 0.35171(16) 0.08075(19)
C14_2 C 0.3541(3) 0.18643(17) 0.0182(2)
C15_2 C 0.1475(4) 0.33571(15) 0.1423(2)
H4_2 H 0.173501 0.304177 0.162156
C17_2 C 0.5093(4) 0.32103(16) 0.1507(2)
H5_2 H 0.474551 0.352328 0.134124
C18_2 C 0.1634(4) 0.39834(17) 0.0523(2)
H6_2 H 0.200539 0.409595 0.010562
C19_2 C 0.2800(4) 0.22453(18) 0.0644(2)
H7_2 H 0.194839 0.232741 0.042150
H8_2 H 0.261318 0.207565 0.108626
C21_2 C 0.6696(4) 0.27703(17) 0.2250(2)
C22_2 C 0.0687(4) 0.42877(15) 0.0845(2)
H10_2 H 0.042327 0.460117 0.064269
C25_2 C 0.6138(4) 0.32168(17) 0.1983(2)
H13_2 H 0.647956 0.353634 0.212800
C26_2 C 0.5111(4) 0.22919(16) 0.1548(2)
H14_2 H 0.477589 0.197042 0.140587
C30_2 C 0.3060(4) 0.31864(18) 0.0430(2)
H20_2 H 0.383505 0.340121 0.033767
C31_2 C 0.6150(4) 0.23084(17) 0.2024(2)
H21_2 H 0.649406 0.199748 0.219903
C38_2 C 0.7859(4) 0.2786(2) 0.2765(2)
H31_2 H 0.867171 0.270839 0.252511
H32_2 H 0.772177 0.253260 0.312704
H33_2 H 0.792037 0.312648 0.297015
C44_2 C 0.3431(4) 0.13372(19) 0.0280(2)
H38_2 H 0.285698 0.121092 0.061954
Zn1_2 Zn 0.74042(4) 0.04012(2) 0.80840(2)
O1_3 O 0.6806(2) 0.09892(10) 0.86268(14)
C1_3 C 0.5007(3) 0.11691(15) 0.93781(19)
C3_3 C 0.5845(4) 0.07985(16) 0.8974(2)
O3_3 O 0.5585(3) 0.03303(11) 0.89685(18)
C8_3 C 0.5089(3) 0.16978(15) 0.9264(2)
H3_3 H 0.564442 0.182482 0.891645
C27_3 C 0.4356(4) 0.20384(16) 0.9658(2)
H15_3 H 0.441276 0.239362 0.956868
H19_3 H 0.267974 0.308378 0.998078
C34_3 C 0.4154(4) 0.09920(18) 0.9885(2)
H24_3 H 0.406575 0.063613 0.996185
O9_3 O 0.6111(2) 0.01217(10) 0.73938(13)
H39_3 H 0.584002 0.034004 0.708171
H40_3 H 0.540052 0.001764 0.758621
O10_2 O 0.8724(2) 0.07056(10) 0.74157(13)
O11_2 O 0.8730(2) 0.01367(10) 0.65308(13)
C2_3 C 0.9111(3) 0.05464(14) 0.68302(19)
C5_3 C 0.9889(4) 0.69171(16) 0.0759(2)
C12_3 C 0.8344(4) 0.72960(18) 0.1574(2)
C20_3 C 0.8773(4) 0.77776(18) 0.1348(2)
H9_3 H 0.841131 0.807488 0.154862
C23_3 C 0.8934(4) 0.68683(17) 0.1272(2)
H11_3 H 0.868219 0.653725 0.141682
C24_3 C 0.9717(4) 0.78336(16) 0.0836(2)
H12_3 H 0.996858 0.816594 0.069668
C37_3 C 0.7289(5) 0.7242(2) 0.2127(2)
H28_3 H 0.654911 0.746654 0.201396
H29_3 H 0.698618 0.688792 0.214286
H30_3 H 0.766010 0.733837 0.257459
Zn2_2 Zn 0.73553(4) 0.96615(2) 0.68874(2)
O2_3 O 0.6418(3) 0.90794(12) 0.6467(2)
H1_3 H 0.026331 0.838087 0.556617
N2_3 N 0.1229(3) 0.75442(13) 0.49944(17)
C9_3 C 0.5716(4) 0.92767(19) 0.6006(2)
C11_3 C 0.2705(3) 0.83340(15) 0.50232(19)
C13_3 C 0.0299(3) 0.75961(15) 0.55254(18)
C16_3 C 0.4645(4) 0.89529(15) 0.5672(2)
C28_3 C 0.1702(4) 0.80004(17) 0.4631(2)
H16_3 H 0.093602 0.821538 0.450994
H17_3 H 0.210228 0.788873 0.419616
C29_3 C 0.2944(4) 0.88384(16) 0.4803(2)
H18_3 H 0.244691 0.897327 0.442996
C32_3 C 0.4397(4) 0.84599(16) 0.5907(2)
H22_3 H 0.488746 0.832888 0.628467
C33_3 C 0.3429(4) 0.81536(15) 0.5590(2)
H23_3 H 0.326449 0.782133 0.576163
O4_3 O 0.5862(4) 0.97372(15) 0.58382(19)
C35_3 C 0.1885(4) 0.70495(16) 0.4879(2)
H25_3 H 0.208491 0.689249 0.533058
H26_3 H 0.272770 0.711361 0.464963
C36_3 C 0.3894(4) 0.91426(17) 0.5120(2)
H27_3 H 0.403386 0.948044 0.496221
C39_3 C 0.1083(3) 0.66627(16) 0.4441(2)
C40_3 C 0.0560(4) 0.68012(15) 0.3791(2)
H34_3 H 0.070224 0.713520 0.361902
C41_3 C 0.0873(4) 0.61642(16) 0.4673(2)
H35_3 H 0.124405 0.606163 0.510008
C43_3 C 0.0127(4) 0.58105(15) 0.42881(19)
O12_2 O 0.8368(2) 0.92790(10) 0.76310(14)
O13_2 O 0.8497(3) 0.98504(10) 0.85046(14)
C42_3 C 0.9830(4) 0.85519(15) 0.8395(2)
H36_3 H 0.949556 0.845415 0.795795
H37_3 H 0.998246 0.952266 0.946211
C45_3 C 0.9594(3) 0.90465(14) 0.86416(19)
C46_3 C 0.8756(3) 0.94218(15) 0.8231(2)
C2_4 C 0.9111(3) 0.44536(14) 0.18302(19)
O5_2 O 0.8724(2) 0.42944(10) 0.24157(13)
O6_2 O 0.8730(2) 0.48633(10) 0.15308(13)
Zn4_2 Zn 0.74042(4) 0.45988(2) 0.30840(2)
Zn6_2 Zn 0.73553(4) 0.53385(2) 0.18874(2)
C5_4 C 0.9889(4) 0.80829(16) 0.5759(2)
C12_4 C 0.8344(4) 0.77040(18) 0.6574(2)
C20_4 C 0.8773(4) 0.72224(18) 0.6348(2)
H9_4 H 0.841131 0.692512 0.654862
C23_4 C 0.8934(4) 0.81317(17) 0.6272(2)
H11_4 H 0.868219 0.846275 0.641682
C24_4 C 0.9717(4) 0.71664(16) 0.5836(2)
H12_4 H 0.996858 0.683406 0.569668
C37_4 C 0.7289(5) 0.7758(2) 0.7127(2)
H28_4 H 0.654911 0.753346 0.701396
H29_4 H 0.698618 0.811208 0.714286
H30_4 H 0.766010 0.766163 0.757459
C42_4 C 0.9830(4) 0.64481(15) 0.3395(2)
H36_4 H 0.949556 0.654585 0.295795
H37_4 H 0.998246 0.547734 0.446211
C45_4 C 0.9594(3) 0.59535(14) 0.36416(19)
C46_4 C 0.8756(3) 0.55782(15) 0.3231(2)
O7_2 O 0.8368(2) 0.57210(10) 0.26310(14)
O8_2 O 0.8497(3) 0.51496(10) 0.35046(14)
O1_4 O 0.6806(2) 0.40108(10) 0.36268(14)
C1_4 C 0.5007(3) 0.38309(15) 0.43781(19)
O2_4 O 0.6418(3) 0.59206(12) 0.1467(2)
C3_4 C 0.5845(4) 0.42015(16) 0.3974(2)
C4_3 C 0.0129(3) 0.08713(13) 0.64682(18)
N1_3 N 0.3501(3) 0.22726(13) 0.57881(17)
H1_4 H 0.026331 0.661913 0.056617
C6_3 C 0.0525(3) 0.13405(14) 0.67500(19)
H2_3 H 0.015045 0.145552 0.716530
O3_4 O 0.5585(3) 0.46697(11) 0.39685(18)
C7_3 C 0.4548(3) 0.22573(15) 0.62714(19)
C8_4 C 0.5089(3) 0.33022(15) 0.4264(2)
H3_4 H 0.564442 0.317518 0.391645
C9_4 C 0.5716(4) 0.57233(19) 0.1006(2)
C10_3 C 0.2038(3) 0.14829(16) 0.58075(19)
C11_4 C 0.2705(3) 0.66660(15) 0.00232(19)
C13_4 C 0.0299(3) 0.74039(15) 0.05254(18)
C14_3 C 0.3541(3) 0.31357(17) 0.5182(2)
C15_3 C 0.1475(4) 0.16429(15) 0.6423(2)
H4_3 H 0.173501 0.195823 0.662156
C16_4 C 0.4645(4) 0.60471(15) 0.0672(2)
C17_3 C 0.5093(4) 0.17897(16) 0.6507(2)
H5_3 H 0.474551 0.147672 0.634124
C18_3 C 0.1634(4) 0.10166(17) 0.5523(2)
H6_3 H 0.200539 0.090405 0.510562
C19_3 C 0.2800(4) 0.27547(18) 0.5644(2)
H7_3 H 0.194839 0.267259 0.542150
H8_3 H 0.261318 0.292435 0.608626
C21_3 C 0.6696(4) 0.22297(17) 0.7250(2)
C22_3 C 0.0687(4) 0.07123(15) 0.5845(2)
H10_3 H 0.042327 0.039883 0.564269
C25_3 C 0.6138(4) 0.17832(17) 0.6983(2)
H13_3 H 0.647956 0.146366 0.712800
C26_3 C 0.5111(4) 0.27081(16) 0.6548(2)
H14_3 H 0.477589 0.302958 0.640587
C27_4 C 0.4356(4) 0.29616(16) 0.4658(2)
H15_4 H 0.441276 0.260638 0.456868
C30_3 C 0.3060(4) 0.18136(18) 0.5430(2)
H19_4 H 0.267974 0.191622 0.498078
H20_3 H 0.383505 0.159879 0.533767
C31_3 C 0.6150(4) 0.26916(17) 0.7024(2)
H21_3 H 0.649406 0.300252 0.719903
C32_4 C 0.4397(4) 0.65401(16) 0.0907(2)
H22_4 H 0.488746 0.667112 0.128467
C33_4 C 0.3429(4) 0.68464(15) 0.0590(2)
H23_4 H 0.326449 0.717867 0.076163
C34_4 C 0.4154(4) 0.40080(18) 0.4885(2)
H24_4 H 0.406575 0.436387 0.496185
O4_4 O 0.5862(4) 0.52628(15) 0.08382(19)
H25_4 H 0.208491 0.810751 0.033058
C36_4 C 0.3894(4) 0.58574(17) 0.0120(2)
C38_3 C 0.7859(4) 0.2214(2) 0.7765(2)
H31_3 H 0.867171 0.229161 0.752511
H32_3 H 0.772177 0.246740 0.812704
H33_3 H 0.792037 0.187352 0.797015
H35_4 H 0.124405 0.893837 0.010008
C44_3 C 0.3431(4) 0.36628(19) 0.5280(2)
H38_3 H 0.285698 0.378908 0.561954
O9_4 O 0.6111(2) 0.48783(10) 0.23938(13)
H39_4 H 0.584002 0.465996 0.208171
H40_4 H 0.540052 0.498236 0.258621
N2_4 N 0.1229(3) 0.74558(13) 0.99944(17)
C28_4 C 0.1702(4) 0.69996(17) 0.9631(2)
H16_4 H 0.093602 0.678462 0.950994
H17_4 H 0.210228 0.711127 0.919616
C29_4 C 0.2944(4) 0.61616(16) 0.9803(2)
H18_4 H 0.244691 0.602673 0.942996
C35_4 C 0.1885(4) 0.79505(16) 0.9879(2)
H26_4 H 0.272770 0.788639 0.964963
H27_4 H 0.403386 0.551956 0.996221
C39_4 C 0.1083(3) 0.83373(16) 0.9441(2)
C40_4 C 0.0560(4) 0.81988(15) 0.8791(2)
H34_4 H 0.070224 0.786480 0.861902
C41_4 C 0.0873(4) 0.88358(16) 0.9673(2)
C43_4 C 0.0127(4) 0.91895(15) 0.92881(19)
C4_4 C 0.9871(3) 0.58713(13) 0.85318(18)
N1_4 N 0.6499(3) 0.72726(13) 0.92119(17)
C6_4 C 0.9475(3) 0.63405(14) 0.82500(19)
H2_4 H 0.984955 0.645552 0.783470
C7_4 C 0.5452(3) 0.72573(15) 0.87286(19)
C10_4 C 0.7962(3) 0.64829(16) 0.91925(19)
C14_4 C 0.6459(3) 0.81357(17) 0.9818(2)
C15_4 C 0.8525(4) 0.66429(15) 0.8577(2)
H4_4 H 0.826499 0.695823 0.837844
C17_4 C 0.4907(4) 0.67897(16) 0.8493(2)
H5_4 H 0.525449 0.647672 0.865876
C18_4 C 0.8366(4) 0.60166(17) 0.9477(2)
H6_4 H 0.799461 0.590405 0.989438
C19_4 C 0.7200(4) 0.77547(18) 0.9356(2)
H7_4 H 0.805161 0.767259 0.957850
H8_4 H 0.738682 0.792435 0.891374
C21_4 C 0.3304(4) 0.72297(17) 0.7750(2)
C22_4 C 0.9313(4) 0.57123(15) 0.9155(2)
H10_4 H 0.957673 0.539883 0.935731
C25_4 C 0.3862(4) 0.67832(17) 0.8017(2)
H13_4 H 0.352044 0.646366 0.787200
C26_4 C 0.4889(4) 0.77081(16) 0.8452(2)
H14_4 H 0.522411 0.802958 0.859413
C30_4 C 0.6940(4) 0.68136(18) 0.9570(2)
H20_4 H 0.616495 0.659879 0.966233
C31_4 C 0.3850(4) 0.76916(17) 0.7976(2)
H21_4 H 0.350594 0.800252 0.780097
C38_4 C 0.2141(4) 0.7214(2) 0.7235(2)
H31_4 H 0.132829 0.729161 0.747489
H32_4 H 0.227823 0.746740 0.687296
H33_4 H 0.207963 0.687352 0.702985
C44_4 C 0.6569(4) 0.86628(19) 0.9720(2)
H38_4 H 0.714302 0.878908 0.938046
loop_
_geom_bond_atom_site_label_1
_geom_bond_atom_site_label_2
_geom_bond_site_symmetry_1
_geom_bond_site_symmetry_2
H36 C42 1_555 1_555
C45 C42 1_555 1_555
C46 C45 1_555 1_555
O7 C46 1_555 1_555
O8 C46 1_555 1_555
Zn6 O7 1_555 1_555
Zn6 O2 1_555 1_555
O2 C9 1_555 1_555
N2 C13 1_555 1_555
C9 C16 1_555 1_555
C11 C28 1_555 1_555
C16 C32 1_555 1_555
C28 N2 1_555 1_555
H16 C28 1_555 1_555
H17 C28 1_555 1_555
C29 C11 1_555 1_555
H18 C29 1_555 1_555
C32 H22 1_555 1_555
C33 C11 1_555 1_555
H23 C33 1_555 1_555
O4 Zn6 1_555 1_555
C35 N2 1_555 1_555
H25 C35 1_555 1_555
H26 C35 1_555 1_555
C36 C16 1_555 1_555
H27 C36 1_555 1_555
C39 C35 1_555 1_555
C40 C39 1_555 1_555
H34 C40 1_555 1_555
C41 C39 1_555 1_555
H35 C41 1_555 1_555
C43 C41 1_555 1_555
C9 O4 1_555 1_555
C29 C36 1_555 1_555
C32 C33 1_555 1_555
C12 C20 1_555 1_555
C20 H9 1_555 1_555
C23 C5 1_555 1_555
H11 C23 1_555 1_555
H12 C24 1_555 1_555
C37 C12 1_555 1_555
H28 C37 1_555 1_555
H29 C37 1_555 1_555
H30 C37 1_555 1_555
O5 C2 1_555 1_555
O6 C2 1_555 1_555
Zn4 O5 1_555 1_555
C12 C23 1_555 1_555
C20 C24 1_555 1_555
Zn4 O1 1_555 1_555
O1 C3 1_555 1_555
C1 C3 1_555 1_555
C3 O3 1_555 1_555
O3 Zn4 1_555 1_555
C8 C1 1_555 1_555
H3 C8 1_555 1_555
C27 C8 1_555 1_555
H15 C27 1_555 1_555
C34 C1 1_555 1_555
H24 C34 1_555 1_555
O9 Zn4 1_555 1_555
H39 O9 1_555 1_555
H40 O9 1_555 1_555
C28_2 N2_2 1_555 1_555
H16_2 C28_2 1_555 1_555
H17_2 C28_2 1_555 1_555
H18_2 C29_2 1_555 1_555
C35_2 N2_2 1_555 1_555
H26_2 C35_2 1_555 1_555
C39_2 C35_2 1_555 1_555
C40_2 C39_2 1_555 1_555
H34_2 C40_2 1_555 1_555
C41_2 C39_2 1_555 1_555
C43_2 C41_2 1_555 1_555
Zn1 O1_2 1_555 1_555
Zn2 O2_2 1_555 1_555
O1_2 C3_2 1_555 1_555
C1_2 C3_2 1_555 1_555
O2_2 C9_2 1_555 1_555
C3_2 O3_2 1_555 1_555
C4 C6 1_555 1_555
N1 C7 1_555 1_555
C6 H2 1_555 1_555
O3_2 Zn1 1_555 1_555
C7 C17 1_555 1_555
C8_2 C1_2 1_555 1_555
H3_2 C8_2 1_555 1_555
C9_2 C16_2 1_555 1_555
C10 C15 1_555 1_555
C14 C19 1_555 1_555
C15 C6 1_555 1_555
H4 C15 1_555 1_555
C16_2 C32_2 1_555 1_555
C17 H5 1_555 1_555
C18 C10 1_555 1_555
H6 C18 1_555 1_555
C19 N1 1_555 1_555
H7 C19 1_555 1_555
H8 C19 1_555 1_555
C21 C25 1_555 1_555
C22 C4 1_555 1_555
H10 C22 1_555 1_555
C25 C17 1_555 1_555
H13 C25 1_555 1_555
C26 C7 1_555 1_555
H14 C26 1_555 1_555
C27_2 C8_2 1_555 1_555
H15_2 C27_2 1_555 1_555
C30 N1 1_555 1_555
H19_2 C30 1_555 1_555
H20 C30 1_555 1_555
C31 C21 1_555 1_555
H21 C31 1_555 1_555
C32_2 H22_2 1_555 1_555
C33_2 C11_2 1_555 1_555
H23_2 C33_2 1_555 1_555
C34_2 C1_2 1_555 1_555
H24_2 C34_2 1_555 1_555
O4_2 Zn2 1_555 1_555
C36_2 C16_2 1_555 1_555
C38 C21 1_555 1_555
H31 C38 1_555 1_555
H32 C38 1_555 1_555
H33 C38 1_555 1_555
C44 C14 1_555 1_555
H38 C44 1_555 1_555
O9_2 Zn1 1_555 1_555
H39_2 O9_2 1_555 1_555
H40_2 O9_2 1_555 1_555
O10 Zn1 1_555 1_555
O11 Zn2 1_555 1_555
O12 Zn2 1_555 1_555
O13 Zn1 1_555 1_555
Zn2 O9_2 1_555 1_555
C9_2 O4_2 1_555 1_555
C10 C30 1_555 1_555
C14 C27_2 1_555 1_555
C18 C22 1_555 1_555
C26 C31 1_555 1_555
C32_2 C33_2 1_555 1_555
C34_2 C44 1_555 1_555
C12_2 C20_2 1_555 1_555
C20_2 H9_2 1_555 1_555
C23_2 C5_2 1_555 1_555
H11_2 C23_2 1_555 1_555
H12_2 C24_2 1_555 1_555
C37_2 C12_2 1_555 1_555
H28_2 C37_2 1_555 1_555
H29_2 C37_2 1_555 1_555
H30_2 C37_2 1_555 1_555
H36_2 C42_2 1_555 1_555
C45_2 C42_2 1_555 1_555
C46_2 C45_2 1_555 1_555
O12 C46_2 1_555 1_555
O13 C46_2 1_555 1_555
C12_2 C23_2 1_555 1_555
C20_2 C24_2 1_555 1_555
O10 C2_2 1_555 1_555
O11 C2_2 1_555 1_555
C4_2 C6_2 1_555 1_555
N1_2 C7_2 1_555 1_555
C6_2 H2_2 1_555 1_555
C7_2 C17_2 1_555 1_555
C10_2 C15_2 1_555 1_555
C14_2 C19_2 1_555 1_555
C15_2 C6_2 1_555 1_555
H4_2 C15_2 1_555 1_555
C17_2 H5_2 1_555 1_555
C18_2 C10_2 1_555 1_555
H6_2 C18_2 1_555 1_555
C19_2 N1_2 1_555 1_555
H7_2 C19_2 1_555 1_555
H8_2 C19_2 1_555 1_555
C21_2 C25_2 1_555 1_555
C22_2 C4_2 1_555 1_555
H10_2 C22_2 1_555 1_555
C25_2 C17_2 1_555 1_555
H13_2 C25_2 1_555 1_555
C26_2 C7_2 1_555 1_555
H14_2 C26_2 1_555 1_555
C30_2 N1_2 1_555 1_555
H20_2 C30_2 1_555 1_555
C31_2 C21_2 1_555 1_555
H21_2 C31_2 1_555 1_555
C38_2 C21_2 1_555 1_555
H31_2 C38_2 1_555 1_555
H32_2 C38_2 1_555 1_555
H33_2 C38_2 1_555 1_555
C44_2 C14_2 1_555 1_555
H38_2 C44_2 1_555 1_555
C10_2 C30_2 1_555 1_555
C18_2 C22_2 1_555 1_555
C26_2 C31_2 1_555 1_555
Zn1_2 O1_3 1_555 1_555
O1_3 C3_3 1_555 1_555
C1_3 C3_3 1_555 1_555
C3_3 O3_3 1_555 1_555
O3_3 Zn1_2 1_555 1_555
C8_3 C1_3 1_555 1_555
H3_3 C8_3 1_555 1_555
C27_3 C8_3 1_555 1_555
H15_3 C27_3 1_555 1_555
C34_3 C1_3 1_555 1_555
H24_3 C34_3 1_555 1_555
O9_3 Zn1_2 1_555 1_555
H39_3 O9_3 1_555 1_555
H40_3 O9_3 1_555 1_555
O10_2 Zn1_2 1_555 1_555
C12_3 C20_3 1_555 1_555
C20_3 H9_3 1_555 1_555
C23_3 C5_3 1_555 1_555
H11_3 C23_3 1_555 1_555
H12_3 C24_3 1_555 1_555
C37_3 C12_3 1_555 1_555
H28_3 C37_3 1_555 1_555
H29_3 C37_3 1_555 1_555
H30_3 C37_3 1_555 1_555
O10_2 C2_3 1_555 1_555
O11_2 C2_3 1_555 1_555
C12_3 C23_3 1_555 1_555
C20_3 C24_3 1_555 1_555
Zn2_2 O2_3 1_555 1_555
O2_3 C9_3 1_555 1_555
N2_3 C13_3 1_555 1_555
C9_3 C16_3 1_555 1_555
C11_3 C28_3 1_555 1_555
C16_3 C32_3 1_555 1_555
C28_3 N2_3 1_555 1_555
H16_3 C28_3 1_555 1_555
H17_3 C28_3 1_555 1_555
C29_3 C11_3 1_555 1_555
H18_3 C29_3 1_555 1_555
C32_3 H22_3 1_555 1_555
C33_3 C11_3 1_555 1_555
H23_3 C33_3 1_555 1_555
O4_3 Zn2_2 1_555 1_555
C35_3 N2_3 1_555 1_555
H25_3 C35_3 1_555 1_555
H26_3 C35_3 1_555 1_555
C36_3 C16_3 1_555 1_555
H27_3 C36_3 1_555 1_555
C39_3 C35_3 1_555 1_555
C40_3 C39_3 1_555 1_555
H34_3 C40_3 1_555 1_555
C41_3 C39_3 1_555 1_555
H35_3 C41_3 1_555 1_555
C43_3 C41_3 1_555 1_555
O12_2 Zn2_2 1_555 1_555
C9_3 O4_3 1_555 1_555
C29_3 C36_3 1_555 1_555
C32_3 C33_3 1_555 1_555
H36_3 C42_3 1_555 1_555
C45_3 C42_3 1_555 1_555
C46_3 C45_3 1_555 1_555
O12_2 C46_3 1_555 1_555
O13_2 C46_3 1_555 1_555
O5_2 C2_4 1_555 1_555
O6_2 C2_4 1_555 1_555
Zn4_2 O5_2 1_555 1_555
Zn6_2 O6_2 1_555 1_555
C12_4 C20_4 1_555 1_555
C20_4 H9_4 1_555 1_555
C23_4 C5_4 1_555 1_555
H11_4 C23_4 1_555 1_555
H12_4 C24_4 1_555 1_555
C37_4 C12_4 1_555 1_555
H28_4 C37_4 1_555 1_555
H29_4 C37_4 1_555 1_555
H30_4 C37_4 1_555 1_555
H36_4 C42_4 1_555 1_555
C45_4 C42_4 1_555 1_555
C46_4 C45_4 1_555 1_555
O7_2 C46_4 1_555 1_555
O8_2 C46_4 1_555 1_555
Zn4_2 O8_2 1_555 1_555
Zn6_2 O7_2 1_555 1_555
C12_4 C23_4 1_555 1_555
C20_4 C24_4 1_555 1_555
Zn4_2 O1_4 1_555 1_555
Zn6_2 O2_4 1_555 1_555
O1_4 C3_4 1_555 1_555
C1_4 C3_4 1_555 1_555
O2_4 C9_4 1_555 1_555
C3_4 O3_4 1_555 1_555
C4_3 C6_3 1_555 1_555
N1_3 C7_3 1_555 1_555
C6_3 H2_3 1_555 1_555
O3_4 Zn4_2 1_555 1_555
C7_3 C17_3 1_555 1_555
C8_4 C1_4 1_555 1_555
H3_4 C8_4 1_555 1_555
C9_4 C16_4 1_555 1_555
C10_3 C15_3 1_555 1_555
C14_3 C19_3 1_555 1_555
C15_3 C6_3 1_555 1_555
H4_3 C15_3 1_555 1_555
C16_4 C32_4 1_555 1_555
C17_3 H5_3 1_555 1_555
C18_3 C10_3 1_555 1_555
H6_3 C18_3 1_555 1_555
C19_3 N1_3 1_555 1_555
H7_3 C19_3 1_555 1_555
H8_3 C19_3 1_555 1_555
C21_3 C25_3 1_555 1_555
C22_3 C4_3 1_555 1_555
H10_3 C22_3 1_555 1_555
C25_3 C17_3 1_555 1_555
H13_3 C25_3 1_555 1_555
C26_3 C7_3 1_555 1_555
H14_3 C26_3 1_555 1_555
C27_4 C8_4 1_555 1_555
H15_4 C27_4 1_555 1_555
C30_3 N1_3 1_555 1_555
H19_4 C30_3 1_555 1_555
H20_3 C30_3 1_555 1_555
C31_3 C21_3 1_555 1_555
H21_3 C31_3 1_555 1_555
C32_4 H22_4 1_555 1_555
C33_4 C11_4 1_555 1_555
H23_4 C33_4 1_555 1_555
C34_4 C1_4 1_555 1_555
H24_4 C34_4 1_555 1_555
O4_4 Zn6_2 1_555 1_555
C36_4 C16_4 1_555 1_555
C38_3 C21_3 1_555 1_555
H31_3 C38_3 1_555 1_555
H32_3 C38_3 1_555 1_555
H33_3 C38_3 1_555 1_555
C44_3 C14_3 1_555 1_555
H38_3 C44_3 1_555 1_555
O9_4 Zn4_2 1_555 1_555
H39_4 O9_4 1_555 1_555
H40_4 O9_4 1_555 1_555
Zn6_2 O9_4 1_555 1_555
C9_4 O4_4 1_555 1_555
C10_3 C30_3 1_555 1_555
C14_3 C27_4 1_555 1_555
C18_3 C22_3 1_555 1_555
C26_3 C31_3 1_555 1_555
C32_4 C33_4 1_555 1_555
C34_4 C44_3 1_555 1_555
C28_4 N2_4 1_555 1_555
H16_4 C28_4 1_555 1_555
H17_4 C28_4 1_555 1_555
H18_4 C29_4 1_555 1_555
C35_4 N2_4 1_555 1_555
H26_4 C35_4 1_555 1_555
C39_4 C35_4 1_555 1_555
C40_4 C39_4 1_555 1_555
H34_4 C40_4 1_555 1_555
C41_4 C39_4 1_555 1_555
C43_4 C41_4 1_555 1_555
C4_4 C6_4 1_555 1_555
N1_4 C7_4 1_555 1_555
C6_4 H2_4 1_555 1_555
C7_4 C17_4 1_555 1_555
C10_4 C15_4 1_555 1_555
C14_4 C19_4 1_555 1_555
C15_4 C6_4 1_555 1_555
H4_4 C15_4 1_555 1_555
C17_4 H5_4 1_555 1_555
C18_4 C10_4 1_555 1_555
H6_4 C18_4 1_555 1_555
C19_4 N1_4 1_555 1_555
H7_4 C19_4 1_555 1_555
H8_4 C19_4 1_555 1_555
C21_4 C25_4 1_555 1_555
C22_4 C4_4 1_555 1_555
H10_4 C22_4 1_555 1_555
C25_4 C17_4 1_555 1_555
H13_4 C25_4 1_555 1_555
C26_4 C7_4 1_555 1_555
H14_4 C26_4 1_555 1_555
C30_4 N1_4 1_555 1_555
H20_4 C30_4 1_555 1_555
C31_4 C21_4 1_555 1_555
H21_4 C31_4 1_555 1_555
C38_4 C21_4 1_555 1_555
H31_4 C38_4 1_555 1_555
H32_4 C38_4 1_555 1_555
H33_4 C38_4 1_555 1_555
C44_4 C14_4 1_555 1_555
H38_4 C44_4 1_555 1_555
C10_4 C30_4 1_555 1_555
C18_4 C22_4 1_555 1_555
C26_4 C31_4 1_555 1_555

#END
