
###############################################################################
#
# This file contains modified crystal structure data generated from the
# MOF subset of the Cambridge Structural Database (CSD) v543 
# hosted by the Cambridge Crystallographic Data Centre (CCDC).
#
# This work is licensed under the Creative Commons
# Attribution-NonCommercial-ShareAlike 4.0 International License.
# To view a copy of this license, visit
# http://creativecommons.org/licenses/by-nc-sa/4.0/
# or send a letter to
# Creative Commons, PO Box 1866, Mountain View, CA 94042, USA.
#
# CIF created using the CSD Python API on 29 September 2022
# The structure has been converted into the P1 space group
# The structure has a 3D framework
# The original CSD entry OGURAK is in the orthorhombic crystal system
# The framework has been calculated to contain at least 10.0% void space
# The void calculation uses a probe of radius 1.32A, grid spacing 0.4
# The framework is charged, counterions have been retained in the structure
# H atom positions have been added when not included in the experimental data
# Generated hydrogen atom positions removed from atoms on special positions
#
###############################################################################

data_OGURAK
_chemical_formula_moiety         '(C64 H60 Cl4 Cu12 N32 O28 4-)n'
_symmetry_cell_setting           triclinic
_symmetry_space_group_name_H-M   'P 1'
_symmetry_Int_Tables_number      1
_space_group_name_Hall           'P 1'
loop_
_symmetry_equiv_pos_site_id
_symmetry_equiv_pos_as_xyz
1 x,y,z
_cell_length_a                   13.179(1)
_cell_length_b                   13.178(1)
_cell_length_c                   20.568(1)
_cell_angle_alpha                90
_cell_angle_beta                 90
_cell_angle_gamma                90
_cell_volume                     3572.1
loop_
_atom_site_label
_atom_site_type_symbol
_atom_site_fract_x
_atom_site_fract_y
_atom_site_fract_z
Cu1 Cu 0.19517(4) -0.0000 0.08941(4)
Cl1 Cl -0.0000 -0.0000 0.09778(15)
O4 O 0.3795(4) -0.0000 0.0749(4)
Cu6 Cu 0.30483(4) 0.5000 0.58941(4)
Cu8 Cu 0.0000 0.19516(4) 0.08945(4)
Cu10 Cu 0.5000 0.30484(4) 0.58945(4)
O5 O 0.2114(4) 0.0971(3) 0.1584(2)
O9 O 0.0963(4) 0.2106(4) 0.1579(2)
O14 O 0.0000 0.3790(5) 0.0750(5)
N5 N 0.3875(4) 0.3127(4) 0.5198(2)
N6 N 0.1125(4) 0.1873(4) 0.0198(2)
N10 N 0.3146(4) 0.3881(4) 0.5201(2)
N11 N 0.1854(4) 0.1119(4) 0.0201(2)
N15 N 0.3779(3) 0.2597(3) 0.46947(18)
N18 N 0.2606(3) 0.3789(3) 0.46949(18)
C9 C 0.3023(4) 0.3018(4) 0.4314(2)
C12 C 0.1712(3) 0.1716(3) 0.1833(2)
C15 C 0.2646(4) 0.2638(4) 0.3744(2)
C18 C 0.2989(5) 0.1762(5) 0.3428(3)
H5 H 0.3411 0.1307 0.3664
C21 C 0.1767(5) 0.2997(5) 0.3422(3)
H8 H 0.1317 0.3420 0.3659
C24 C 0.2754(7) 0.1528(7) 0.2812(4)
H11 H 0.3099 0.0972 0.2618
C27 C 0.1530(6) 0.2780(7) 0.2807(4)
H14 H 0.0988 0.3142 0.2609
C30 C 0.2041(5) 0.2041(5) 0.2435(3)
H17 H 0.400097 0.0615254 0.0503486
H18 H 0.41309 8.7003e-18 0.118116
H22 H -8.69964e-18 0.412581 0.118219
Cl2 Cl 0.5000 0.5000 0.59778(15)
O6 O 0.2886(4) 0.4029(3) 0.6584(2)
O8 O 0.2886(4) 0.5971(3) 0.6584(2)
O10 O 0.4037(4) 0.2894(4) 0.6579(2)
O15 O 0.1205(4) 0.5000 0.5749(4)
N13 N 0.3146(4) 0.6119(4) 0.5201(2)
N16 N 0.1221(3) 0.2403(3) 0.96947(18)
N19 N 0.2394(3) 0.1211(3) 0.96949(18)
C10 C 0.1977(4) 0.1982(4) 0.9314(2)
C13 C 0.3288(3) 0.3284(3) 0.6833(2)
C16 C 0.2354(4) 0.2362(4) 0.8744(2)
C19 C 0.2011(5) 0.3238(5) 0.8428(3)
H6 H 0.1589 0.3693 0.8664
C22 C 0.3233(5) 0.2003(5) 0.8422(3)
H9 H 0.3683 0.1580 0.8659
C25 C 0.2246(7) 0.3472(7) 0.7812(4)
H12 H 0.1901 0.4028 0.7618
C28 C 0.3470(6) 0.2220(7) 0.7807(4)
H15 H 0.4012 0.1858 0.7609
C31 C 0.2959(5) 0.2959(5) 0.7435(3)
Cu1_2 Cu 0.19517(4) 1.0000 0.08941(4)
Cu2 Cu 0.0000 0.80484(4) 0.08945(4)
Cl1_2 Cl -0.0000 1.0000 0.09778(15)
O1 O 0.2114(4) 0.9029(3) 0.1584(2)
O2 O 0.0963(4) 0.7894(4) 0.1579(2)
O3 O -0.0000 0.6210(5) 0.0750(5)
O4_2 O 0.3795(4) 1.0000 0.0749(4)
N1 N 0.3875(4) 0.6873(4) 0.5198(2)
N3 N 0.3779(3) 0.7403(3) 0.46947(18)
N4 N 0.2606(3) 0.6211(3) 0.46949(18)
C1 C 0.3023(4) 0.6982(4) 0.4314(2)
C2 C 0.1712(3) 0.8284(3) 0.1833(2)
C3 C 0.2646(4) 0.7362(4) 0.3744(2)
C4 C 0.2989(5) 0.8238(5) 0.3428(3)
H1 H 0.3411 0.8693 0.3664
C5 C 0.1767(5) 0.7003(5) 0.3422(3)
H2 H 0.1317 0.6580 0.3659
C6 C 0.2754(7) 0.8472(7) 0.2812(4)
H3 H 0.3099 0.9028 0.2618
C7 C 0.1530(6) 0.7220(7) 0.2807(4)
H4 H 0.0988 0.6858 0.2609
C8 C 0.2041(5) 0.7959(5) 0.2435(3)
Cu9 Cu 0.5000 0.69516(4) 0.58945(4)
N7 N 0.1125(4) 0.8127(4) 0.0198(2)
N12 N 0.1854(4) 0.8881(4) 0.0201(2)
H18_2 H 0.41309 1 0.118116
H19 H 0.0615207 0.600395 0.0504509
H20 H 8.69964e-18 0.587419 0.118219
O11 O 0.4037(4) 0.7106(4) 0.6579(2)
N17 N 0.1221(3) 0.7597(3) 0.96947(18)
N20 N 0.2394(3) 0.8789(3) 0.96949(18)
C11 C 0.1977(4) 0.8018(4) 0.9314(2)
C14 C 0.3288(3) 0.6716(3) 0.6833(2)
C17 C 0.2354(4) 0.7638(4) 0.8744(2)
C20 C 0.2011(5) 0.6762(5) 0.8428(3)
H7 H 0.1589 0.6307 0.8664
C23 C 0.3233(5) 0.7997(5) 0.8422(3)
H10 H 0.3683 0.8420 0.8659
C26 C 0.2246(7) 0.6528(7) 0.7812(4)
H13 H 0.1901 0.5972 0.7618
C29 C 0.3470(6) 0.7780(7) 0.7807(4)
H16 H 0.4012 0.8142 0.7609
C32 C 0.2959(5) 0.7041(5) 0.7435(3)
Cl1_3 Cl 1.0000 -0.0000 0.09778(15)
Cu4 Cu 0.80483(4) -0.0000 0.08941(4)
Cu8_2 Cu 1.0000 0.19516(4) 0.08945(4)
O13 O 0.9037(4) 0.2106(4) 0.1579(2)
O14_2 O 1.0000 0.3790(5) 0.0750(5)
N9 N 0.8875(4) 0.1873(4) 0.0198(2)
H21 H 0.938479 0.399605 0.0504509
H22_2 H 1 0.412581 0.118219
Cu2_2 Cu 1.0000 0.80484(4) 0.08945(4)
Cl1_4 Cl 1.0000 1.0000 0.09778(15)
O3_2 O 1.0000 0.6210(5) 0.0750(5)
Cu4_2 Cu 0.80483(4) 1.0000 0.08941(4)
O12 O 0.9037(4) 0.7894(4) 0.1579(2)
N8 N 0.8875(4) 0.8127(4) 0.0198(2)
H20_2 H 1 0.587419 0.118219
O1_2 O 0.7886(4) 0.0971(3) 0.1584(2)
O4_3 O 0.6205(4) 0.0000 0.0749(4)
N1_2 N 0.6125(4) 0.3127(4) 0.5198(2)
N2 N 0.6854(4) 0.3881(4) 0.5201(2)
N3_2 N 0.6221(3) 0.2597(3) 0.46947(18)
N4_2 N 0.7394(3) 0.3789(3) 0.46949(18)
C1_2 C 0.6977(4) 0.3018(4) 0.4314(2)
C2_2 C 0.8288(3) 0.1716(3) 0.1833(2)
C3_2 C 0.7354(4) 0.2638(4) 0.3744(2)
C4_2 C 0.7011(5) 0.1762(5) 0.3428(3)
H1_2 H 0.6589 0.1307 0.3664
C5_2 C 0.8233(5) 0.2997(5) 0.3422(3)
H2_2 H 0.8683 0.3420 0.3659
C6_2 C 0.7246(7) 0.1528(7) 0.2812(4)
H3_2 H 0.6901 0.0972 0.2618
C7_2 C 0.8470(6) 0.2780(7) 0.2807(4)
H4_2 H 0.9012 0.3142 0.2609
C8_2 C 0.7959(5) 0.2041(5) 0.2435(3)
Cu5 Cu 0.69517(4) 0.5000 0.58941(4)
N12_2 N 0.8146(4) 0.1119(4) 0.0201(2)
H18_3 H 0.58691 -8.7003e-18 0.118116
O7 O 0.7114(4) 0.4029(3) 0.6584(2)
O11_2 O 0.5963(4) 0.2894(4) 0.6579(2)
N17_2 N 0.8779(3) 0.2403(3) 0.96947(18)
N20_2 N 0.7606(3) 0.1211(3) 0.96949(18)
C11_2 C 0.8023(4) 0.1982(4) 0.9314(2)
C14_2 C 0.6712(3) 0.3284(3) 0.6833(2)
C17_2 C 0.7646(4) 0.2362(4) 0.8744(2)
C20_2 C 0.7989(5) 0.3238(5) 0.8428(3)
H7_2 H 0.8411 0.3693 0.8664
C23_2 C 0.6767(5) 0.2003(5) 0.8422(3)
H10_2 H 0.6317 0.1580 0.8659
C26_2 C 0.7754(7) 0.3472(7) 0.7812(4)
H13_2 H 0.8099 0.4028 0.7618
C29_2 C 0.6530(6) 0.2220(7) 0.7807(4)
H16_2 H 0.5988 0.1858 0.7609
C32_2 C 0.7041(5) 0.2959(5) 0.7435(3)
O4_4 O 0.6205(4) 1.0000 0.0749(4)
O5_2 O 0.7886(4) 0.9029(3) 0.1584(2)
N5_2 N 0.6125(4) 0.6873(4) 0.5198(2)
N10_2 N 0.6854(4) 0.6119(4) 0.5201(2)
N11_2 N 0.8146(4) 0.8881(4) 0.0201(2)
N15_2 N 0.6221(3) 0.7403(3) 0.46947(18)
N18_2 N 0.7394(3) 0.6211(3) 0.46949(18)
C9_2 C 0.6977(4) 0.6982(4) 0.4314(2)
C12_2 C 0.8288(3) 0.8284(3) 0.1833(2)
C15_2 C 0.7354(4) 0.7362(4) 0.3744(2)
C18_2 C 0.7011(5) 0.8238(5) 0.3428(3)
H5_2 H 0.6589 0.8693 0.3664
C21_2 C 0.8233(5) 0.7003(5) 0.3422(3)
H8_2 H 0.8683 0.6580 0.3659
C24_2 C 0.7246(7) 0.8472(7) 0.2812(4)
H11_2 H 0.6901 0.9028 0.2618
C27_2 C 0.8470(6) 0.7220(7) 0.2807(4)
H14_2 H 0.9012 0.6858 0.2609
C30_2 C 0.7959(5) 0.7959(5) 0.2435(3)
H17_2 H 0.599903 0.938475 0.0503486
H18_4 H 0.58691 1 0.118116
O6_2 O 0.7114(4) 0.5971(3) 0.6584(2)
O10_2 O 0.5963(4) 0.7106(4) 0.6579(2)
O15_2 O 0.8795(4) 0.5000 0.5749(4)
N16_2 N 0.8779(3) 0.7597(3) 0.96947(18)
N19_2 N 0.7606(3) 0.8789(3) 0.96949(18)
C10_2 C 0.8023(4) 0.8018(4) 0.9314(2)
C13_2 C 0.6712(3) 0.6716(3) 0.6833(2)
C16_2 C 0.7646(4) 0.7638(4) 0.8744(2)
C19_2 C 0.7989(5) 0.6762(5) 0.8428(3)
H6_2 H 0.8411 0.6307 0.8664
C22_2 C 0.6767(5) 0.7997(5) 0.8422(3)
H9_2 H 0.6317 0.8420 0.8659
C25_2 C 0.7754(7) 0.6528(7) 0.7812(4)
H12_2 H 0.8099 0.5972 0.7618
C28_2 C 0.6530(6) 0.7780(7) 0.7807(4)
H15_2 H 0.5988 0.8142 0.7609
C31_2 C 0.7041(5) 0.7041(5) 0.7435(3)
H19_2 H 0.0615207 0.399605 0.0504509
H17_3 H 0.400097 0.938475 0.0503486
H21_2 H 0.938479 0.600395 0.0504509
H17_4 H 0.599903 0.0615254 0.0503486
O3_3 O 0.5000 0.1210(5) 0.5750(5)
O14_3 O 0.5000 0.8790(5) 0.5750(5)
loop_
_geom_bond_atom_site_label_1
_geom_bond_atom_site_label_2
_geom_bond_site_symmetry_1
_geom_bond_site_symmetry_2
Cu1 Cl1 1_555 1_555
O4 Cu1 1_555 1_555
Cu6 N10 1_555 1_555
Cu8 Cl1 1_555 1_555
Cu10 N5 1_555 1_555
O5 Cu1 1_555 1_555
O9 Cu8 1_555 1_555
O14 Cu8 1_555 1_555
N5 N10 1_555 1_555
N6 Cu8 1_555 1_555
N10 N18 1_555 1_555
N11 Cu1 1_555 1_555
N15 N5 1_555 1_555
N18 C9 1_555 1_555
C9 N15 1_555 1_555
C12 O5 1_555 1_555
C15 C9 1_555 1_555
C18 C15 1_555 1_555
H5 C18 1_555 1_555
C21 C15 1_555 1_555
H8 C21 1_555 1_555
C24 C18 1_555 1_555
H11 C24 1_555 1_555
C27 C21 1_555 1_555
H14 C27 1_555 1_555
C30 C12 1_555 1_555
O9 C12 1_555 1_555
N6 N11 1_555 1_555
C24 C30 1_555 1_555
C27 C30 1_555 1_555
O4 H17 1_555 1_555
O4 H18 1_555 1_555
O14 H22 1_555 1_555
Cu6 Cl2 1_555 1_555
Cu10 Cl2 1_555 1_555
O6 Cu6 1_555 1_555
O8 Cu6 1_555 1_555
O10 Cu10 1_555 1_555
O15 Cu6 1_555 1_555
N13 Cu6 1_555 1_555
C10 N16 1_555 1_555
C13 O6 1_555 1_555
C16 C10 1_555 1_555
C19 C16 1_555 1_555
H6 C19 1_555 1_555
C22 C16 1_555 1_555
H9 C22 1_555 1_555
C25 C19 1_555 1_555
H12 C25 1_555 1_555
C28 C22 1_555 1_555
H15 C28 1_555 1_555
C31 C13 1_555 1_555
O10 C13 1_555 1_555
N19 C10 1_555 1_555
C25 C31 1_555 1_555
C28 C31 1_555 1_555
Cu1_2 Cl1_2 1_555 1_555
Cu2 Cl1_2 1_555 1_555
O1 Cu1_2 1_555 1_555
O2 Cu2 1_555 1_555
O3 Cu2 1_555 1_555
O4_2 Cu1_2 1_555 1_555
N1 N13 1_555 1_555
N13 N4 1_555 1_555
N3 N1 1_555 1_555
N4 C1 1_555 1_555
C1 N3 1_555 1_555
C2 O1 1_555 1_555
C3 C1 1_555 1_555
C4 C3 1_555 1_555
H1 C4 1_555 1_555
C5 C3 1_555 1_555
H2 C5 1_555 1_555
C6 C4 1_555 1_555
H3 C6 1_555 1_555
C7 C5 1_555 1_555
H4 C7 1_555 1_555
C8 C2 1_555 1_555
Cu9 N1 1_555 1_555
N7 Cu2 1_555 1_555
N12 Cu1_2 1_555 1_555
O2 C2 1_555 1_555
C6 C8 1_555 1_555
C7 C8 1_555 1_555
N7 N12 1_555 1_555
O4_2 H18_2 1_555 1_555
O3 H19 1_555 1_555
O3 H20 1_555 1_555
Cu9 O11 1_555 1_555
O8 C14 1_555 1_555
O11 C14 1_555 1_555
C11 N17 1_555 1_555
C14 C32 1_555 1_555
C17 C11 1_555 1_555
C20 C17 1_555 1_555
H7 C20 1_555 1_555
C23 C17 1_555 1_555
H10 C23 1_555 1_555
C26 C20 1_555 1_555
H13 C26 1_555 1_555
C29 C23 1_555 1_555
H16 C29 1_555 1_555
C32 C26 1_555 1_555
N20 C11 1_555 1_555
C29 C32 1_555 1_555
Cl1_3 Cu4 1_555 1_555
Cu8_2 Cl1_3 1_555 1_555
O13 Cu8_2 1_555 1_555
O14_2 Cu8_2 1_555 1_555
N9 Cu8_2 1_555 1_555
O14_2 H21 1_555 1_555
O14_2 H22_2 1_555 1_555
Cu2_2 Cl1_4 1_555 1_555
Cl1_4 Cu4_2 1_555 1_555
O3_2 Cu2_2 1_555 1_555
O12 Cu2_2 1_555 1_555
N8 Cu2_2 1_555 1_555
O3_2 H20_2 1_555 1_555
O1_2 Cu4 1_555 1_555
O4_3 Cu4 1_555 1_555
N1_2 N2 1_555 1_555
N2 N4_2 1_555 1_555
N3_2 N1_2 1_555 1_555
N4_2 C1_2 1_555 1_555
C1_2 N3_2 1_555 1_555
C2_2 O1_2 1_555 1_555
C3_2 C1_2 1_555 1_555
C4_2 C3_2 1_555 1_555
H1_2 C4_2 1_555 1_555
C5_2 C3_2 1_555 1_555
H2_2 C5_2 1_555 1_555
C6_2 C4_2 1_555 1_555
H3_2 C6_2 1_555 1_555
C7_2 C5_2 1_555 1_555
H4_2 C7_2 1_555 1_555
C8_2 C2_2 1_555 1_555
Cu5 N2 1_555 1_555
Cu10 N1_2 1_555 1_555
N12_2 Cu4 1_555 1_555
O13 C2_2 1_555 1_555
C6_2 C8_2 1_555 1_555
C7_2 C8_2 1_555 1_555
N9 N12_2 1_555 1_555
O4_3 H18_3 1_555 1_555
Cu5 O7 1_555 1_555
Cu10 O11_2 1_555 1_555
O7 C14_2 1_555 1_555
O11_2 C14_2 1_555 1_555
C11_2 N17_2 1_555 1_555
C14_2 C32_2 1_555 1_555
C17_2 C11_2 1_555 1_555
C20_2 C17_2 1_555 1_555
H7_2 C20_2 1_555 1_555
C23_2 C17_2 1_555 1_555
H10_2 C23_2 1_555 1_555
C26_2 C20_2 1_555 1_555
H13_2 C26_2 1_555 1_555
C29_2 C23_2 1_555 1_555
H16_2 C29_2 1_555 1_555
C32_2 C26_2 1_555 1_555
N20_2 C11_2 1_555 1_555
C29_2 C32_2 1_555 1_555
O4_4 Cu4_2 1_555 1_555
Cu5 N10_2 1_555 1_555
Cu9 N5_2 1_555 1_555
O5_2 Cu4_2 1_555 1_555
N5_2 N10_2 1_555 1_555
N10_2 N18_2 1_555 1_555
N11_2 Cu4_2 1_555 1_555
N15_2 N5_2 1_555 1_555
N18_2 C9_2 1_555 1_555
C9_2 N15_2 1_555 1_555
C12_2 O5_2 1_555 1_555
C15_2 C9_2 1_555 1_555
C18_2 C15_2 1_555 1_555
H5_2 C18_2 1_555 1_555
C21_2 C15_2 1_555 1_555
H8_2 C21_2 1_555 1_555
C24_2 C18_2 1_555 1_555
H11_2 C24_2 1_555 1_555
C27_2 C21_2 1_555 1_555
H14_2 C27_2 1_555 1_555
C30_2 C12_2 1_555 1_555
O12 C12_2 1_555 1_555
N8 N11_2 1_555 1_555
C24_2 C30_2 1_555 1_555
C27_2 C30_2 1_555 1_555
O4_4 H17_2 1_555 1_555
O4_4 H18_4 1_555 1_555
Cu5 Cl2 1_555 1_555
Cu9 Cl2 1_555 1_555
O6_2 Cu5 1_555 1_555
O10_2 Cu9 1_555 1_555
O15_2 Cu5 1_555 1_555
C10_2 N16_2 1_555 1_555
C13_2 O6_2 1_555 1_555
C16_2 C10_2 1_555 1_555
C19_2 C16_2 1_555 1_555
H6_2 C19_2 1_555 1_555
C22_2 C16_2 1_555 1_555
H9_2 C22_2 1_555 1_555
C25_2 C19_2 1_555 1_555
H12_2 C25_2 1_555 1_555
C28_2 C22_2 1_555 1_555
H15_2 C28_2 1_555 1_555
C31_2 C13_2 1_555 1_555
O10_2 C13_2 1_555 1_555
N19_2 C10_2 1_555 1_555
C25_2 C31_2 1_555 1_555
C28_2 C31_2 1_555 1_555
O14 H19_2 1_555 1_555
O4_2 H17_3 1_555 1_555
O3_2 H21_2 1_555 1_555
O4_3 H17_4 1_555 1_555
O3_3 Cu10 1_555 1_555
O14_3 Cu9 1_555 1_555

#END
