
###############################################################################
#
# This file contains modified crystal structure data generated from the
# MOF subset of the Cambridge Structural Database (CSD) v543 
# hosted by the Cambridge Crystallographic Data Centre (CCDC).
#
# This work is licensed under the Creative Commons
# Attribution-NonCommercial-ShareAlike 4.0 International License.
# To view a copy of this license, visit
# http://creativecommons.org/licenses/by-nc-sa/4.0/
# or send a letter to
# Creative Commons, PO Box 1866, Mountain View, CA 94042, USA.
#
# CIF created using the CSD Python API on 29 September 2022
# The structure has been converted into the P1 space group
# The structure has a 3D framework
# The original CSD entry OGUSIU is in the triclinic crystal system
# The framework has been calculated to contain at least 10.0% void space
# The void calculation uses a probe of radius 1.32A, grid spacing 0.4
#
###############################################################################

data_OGUSIU
_chemical_formula_moiety         '(C44 H28 Mn4 O20)n'
_symmetry_cell_setting           triclinic
_symmetry_space_group_name_H-M   'P 1'
_symmetry_Int_Tables_number      1
_space_group_name_Hall           'P 1'
loop_
_symmetry_equiv_pos_site_id
_symmetry_equiv_pos_as_xyz
1 x,y,z
_cell_length_a                   9.870(2)
_cell_length_b                   10.291(2)
_cell_length_c                   12.654(3)
_cell_angle_alpha                111.95(3)
_cell_angle_beta                 99.96(3)
_cell_angle_gamma                90.86(3)
_cell_volume                     1169.68
loop_
_atom_site_label
_atom_site_type_symbol
_atom_site_fract_x
_atom_site_fract_y
_atom_site_fract_z
Mn1 Mn 0.62692(4) 0.38783(4) 0.44131(4)
Mn2 Mn 0.56253(4) 0.08404(4) 0.21356(4)
O1 O 0.3749(2) 0.3961(2) 0.4525(2)
O2 O 0.45627(19) 0.2023(2) 0.35224(18)
O3 O 0.3707(3) 0.0017(3) 0.0811(2)
H1 H 0.3878 0.0448 0.0386
H2 H 0.3368 0.0672 0.1306
O4 O 0.6389(3) 0.3527(3) 0.6014(2)
H3 H 0.5846 0.2841 0.5949
H4 H 0.6945 0.3984 0.6647
C1 C 0.3570(3) 0.2676(3) 0.3939(2)
C2 C 0.2207(3) 0.1870(3) 0.3725(2)
C3 C 0.2142(3) 0.0408(3) 0.3304(3)
C7 C 0.1024(3) 0.2565(3) 0.3961(3)
H7 H 0.1065 0.3542 0.4259
Mn5 Mn 0.37308(4) 0.61217(4) 0.55869(4)
O11 O 0.6251(2) 0.6039(2) 0.5475(2)
O12 O 0.8506(2) 0.3781(2) 0.4406(2)
O13 O 0.7332(2) 0.1708(2) 0.3571(2)
O16 O 0.5789(3) 0.4252(2) 0.28415(18)
O17 O 0.6109(3) 0.2294(2) 0.13801(19)
H5 H 0.2939 0.9963 0.3147
C4 C 0.0917(3) 0.9592(3) 0.3112(2)
C9 C 0.0870(3) 0.8040(3) 0.2638(3)
C10 C 0.1631(3) 0.7371(3) 0.1767(3)
H8 H 0.2166 0.7925 0.1531
C11 C 0.1611(3) 0.5913(3) 0.1245(2)
C12 C 0.0823(3) 0.5114(3) 0.1639(3)
H9 H 0.0785 0.4138 0.1305
C13 C 0.0093(3) 0.5749(3) 0.2520(3)
C14 C 0.0091(3) 0.7209(3) 0.3001(3)
C15 C 0.2381(3) 0.5260(3) 0.0278(2)
H14 H 0.2452 0.3306 0.0309
O14 O 0.6747(3) 0.9017(2) 0.09278(19)
O15 O 0.5576(3) 0.8720(2) 0.2157(2)
O7 O 0.3253(3) 0.0983(2) 0.90722(19)
O8 O 0.4424(3) 0.1280(2) 0.7843(2)
O9 O 0.4211(3) 0.5748(2) 0.71585(18)
O10 O 0.3891(3) 0.7706(2) 0.86199(19)
C16 C 0.2805(3) 0.6059(3) 0.9687(3)
H12 H 0.2609 0.6994 0.9909
C17 C 0.3511(3) 0.5494(3) 0.8777(2)
C18 C 0.3790(3) 0.4091(3) 0.8434(3)
H13 H 0.4245 0.3695 0.7818
C19 C 0.3394(3) 0.3292(3) 0.9004(2)
C20 C 0.2701(3) 0.3861(3) 0.9926(3)
C21 C 0.3707(3) 0.1766(3) 0.8627(3)
C22 C 0.3916(3) 0.6384(3) 0.8145(3)
Mn8 Mn 0.43747(4) 0.91596(4) 0.78644(4)
C5 C 0.9720(3) 0.0293(3) 0.3334(3)
C6 C 0.9775(3) 0.1760(3) 0.3741(3)
C8 C 0.8465(3) 0.2463(3) 0.3912(3)
O5 O 0.1494(2) 0.6219(2) 0.5594(2)
O6 O 0.2668(2) 0.8292(2) 0.6429(2)
C5_2 C 0.0280(3) 0.9707(3) 0.6666(3)
C6_2 C 0.0225(3) 0.8240(3) 0.6259(3)
C8_2 C 0.1535(3) 0.7537(3) 0.6088(3)
C16_2 C 0.7195(3) 0.3941(3) 0.0313(3)
H12_2 H 0.7391 0.3006 0.0091
C17_2 C 0.6489(3) 0.4506(3) 0.1223(2)
C18_2 C 0.6210(3) 0.5909(3) 0.1566(3)
H13_2 H 0.5755 0.6305 0.2182
C19_2 C 0.6606(3) 0.6708(3) 0.0996(2)
C20_2 C 0.7299(3) 0.6139(3) 0.0074(3)
C21_2 C 0.6293(3) 0.8234(3) 0.1373(3)
C22_2 C 0.6084(3) 0.3616(3) 0.1855(3)
H5_2 H 0.7061 0.0037 0.6853
C4_2 C 0.9083(3) 0.0408(3) 0.6888(2)
C9_2 C 0.9130(3) 0.1960(3) 0.7362(3)
C10_2 C 0.8369(3) 0.2629(3) 0.8233(3)
H8_2 H 0.7834 0.2075 0.8469
C11_2 C 0.8389(3) 0.4087(3) 0.8755(2)
C12_2 C 0.9177(3) 0.4886(3) 0.8361(3)
H9_2 H 0.9215 0.5862 0.8695
C13_2 C 0.9907(3) 0.4251(3) 0.7480(3)
C14_2 C 0.9909(3) 0.2791(3) 0.6999(3)
C15_2 C 0.7619(3) 0.4740(3) 0.9722(2)
H14_2 H 0.7548 0.6694 0.9691
O2_2 O 0.54373(19) 0.7977(2) 0.64776(18)
O3_2 O 0.6293(3) 0.9983(3) 0.9189(2)
H1_2 H 0.6122 0.9552 0.9614
H2_2 H 0.6632 0.9328 0.8694
O4_2 O 0.3611(3) 0.6473(3) 0.3986(2)
H3_2 H 0.4154 0.7159 0.4051
H4_2 H 0.3055 0.6016 0.3353
C1_2 C 0.6430(3) 0.7324(3) 0.6061(2)
C2_2 C 0.7793(3) 0.8130(3) 0.6275(2)
C3_2 C 0.7858(3) 0.9592(3) 0.6696(3)
C7_2 C 0.8976(3) 0.7435(3) 0.6039(3)
H7_2 H 0.8935 0.6458 0.5741
H6 H 0.8886 0.9776 0.3209
H10 H 0.9604 0.5197 0.2789
H11 H 0.9568 0.7626 0.3565
H6_2 H 0.1114 0.0224 0.6791
H10_2 H 0.0396 0.4803 0.7211
H11_2 H 0.0432 0.2374 0.6435
loop_
_geom_bond_atom_site_label_1
_geom_bond_atom_site_label_2
_geom_bond_site_symmetry_1
_geom_bond_site_symmetry_2
Mn1 O2 1_555 1_555
Mn2 O2 1_555 1_555
O1 C1 1_555 1_555
O2 C1 1_555 1_555
O3 Mn2 1_555 1_555
H1 O3 1_555 1_555
H2 O3 1_555 1_555
O4 Mn1 1_555 1_555
H3 O4 1_555 1_555
H4 O4 1_555 1_555
C1 C2 1_555 1_555
C2 C3 1_555 1_555
C7 C2 1_555 1_555
H7 C7 1_555 1_555
Mn5 O1 1_555 1_555
O11 Mn1 1_555 1_555
O12 Mn1 1_555 1_555
O13 Mn1 1_555 1_555
O16 Mn1 1_555 1_555
O17 Mn2 1_555 1_555
Mn2 O13 1_555 1_555
C9 C4 1_555 1_555
C10 C9 1_555 1_555
H8 C10 1_555 1_555
C11 C10 1_555 1_555
C12 C11 1_555 1_555
H9 C12 1_555 1_555
C13 C12 1_555 1_555
C14 C9 1_555 1_555
C15 C11 1_555 1_555
C13 C14 1_555 1_555
O7 C21 1_555 1_555
O8 C21 1_555 1_555
O9 C22 1_555 1_555
O10 C22 1_555 1_555
H12 C16 1_555 1_555
C17 C16 1_555 1_555
C18 C17 1_555 1_555
H13 C18 1_555 1_555
C19 C18 1_555 1_555
C21 C19 1_555 1_555
C22 C17 1_555 1_555
Mn5 O9 1_555 1_555
Mn8 O10 1_555 1_555
C19 C20 1_555 1_555
O12 C8 1_555 1_555
O13 C8 1_555 1_555
C6 C5 1_555 1_555
C8 C6 1_555 1_555
O5 C8_2 1_555 1_555
O6 C8_2 1_555 1_555
C6_2 C5_2 1_555 1_555
C8_2 C6_2 1_555 1_555
Mn5 O5 1_555 1_555
Mn8 O6 1_555 1_555
O6 Mn5 1_555 1_555
O14 C21_2 1_555 1_555
O15 C21_2 1_555 1_555
O16 C22_2 1_555 1_555
O17 C22_2 1_555 1_555
H12_2 C16_2 1_555 1_555
C17_2 C16_2 1_555 1_555
C18_2 C17_2 1_555 1_555
H13_2 C18_2 1_555 1_555
C19_2 C18_2 1_555 1_555
C21_2 C19_2 1_555 1_555
C22_2 C17_2 1_555 1_555
C19_2 C20_2 1_555 1_555
C9_2 C4_2 1_555 1_555
C10_2 C9_2 1_555 1_555
H8_2 C10_2 1_555 1_555
C11_2 C10_2 1_555 1_555
C12_2 C11_2 1_555 1_555
H9_2 C12_2 1_555 1_555
C13_2 C12_2 1_555 1_555
C14_2 C9_2 1_555 1_555
C15_2 C11_2 1_555 1_555
C13_2 C14_2 1_555 1_555
Mn5 O2_2 1_555 1_555
Mn8 O2_2 1_555 1_555
O11 C1_2 1_555 1_555
O2_2 C1_2 1_555 1_555
O3_2 Mn8 1_555 1_555
H1_2 O3_2 1_555 1_555
H2_2 O3_2 1_555 1_555
O4_2 Mn5 1_555 1_555
H3_2 O4_2 1_555 1_555
H4_2 O4_2 1_555 1_555
C1_2 C2_2 1_555 1_555
C2_2 C3_2 1_555 1_555
C7_2 C2_2 1_555 1_555
H7_2 C7_2 1_555 1_555

#END
