
###############################################################################
#
# This file contains modified crystal structure data generated from the
# MOF subset of the Cambridge Structural Database (CSD) v543 
# hosted by the Cambridge Crystallographic Data Centre (CCDC).
#
# This work is licensed under the Creative Commons
# Attribution-NonCommercial-ShareAlike 4.0 International License.
# To view a copy of this license, visit
# http://creativecommons.org/licenses/by-nc-sa/4.0/
# or send a letter to
# Creative Commons, PO Box 1866, Mountain View, CA 94042, USA.
#
# CIF created using the CSD Python API on 29 September 2022
# The structure has been converted into the P1 space group
# The structure has a 3D framework
# The original CSD entry OGUTOC is in the rhombohedral crystal system
# The framework has been calculated to contain at least 10.0% void space
# The void calculation uses a probe of radius 1.32A, grid spacing 0.4
# The framework is charged, counterions have been retained in the structure
#
###############################################################################

data_OGUTOC
_chemical_formula_moiety         '(C144 H180 Cd18 N87 O72)n'
_symmetry_cell_setting           triclinic
_symmetry_space_group_name_H-M   'P 1'
_symmetry_Int_Tables_number      1
_space_group_name_Hall           'P 1'
loop_
_symmetry_equiv_pos_site_id
_symmetry_equiv_pos_as_xyz
1 x,y,z
_cell_length_a                   32.068(3)
_cell_length_b                   32.068(3)
_cell_length_c                   8.2440(10)
_cell_angle_alpha                90
_cell_angle_beta                 90
_cell_angle_gamma                120
_cell_volume                     7341.97
loop_
_atom_site_label
_atom_site_type_symbol
_atom_site_fract_x
_atom_site_fract_y
_atom_site_fract_z
N1 N 0.2961(7) 0.4604(7) 0.770(4)
H1 H 0.2744 0.4679 0.8115
H2 H 0.2899 0.4542 0.6621
C1 C 0.2914(10) 0.4178(7) 0.852(4)
H3 H 0.2763 0.4143 0.9577
H4 H 0.3234 0.4215 0.8662
H5 H 0.2715 0.3892 0.7856
C2 C 0.3451(10) 0.5011(8) 0.792(6)
H6 H 0.3435 0.5293 0.8286
H7 H 0.3627 0.5083 0.6896
H8 H 0.3618 0.4927 0.8744
N1_2 N 0.5396(7) 0.8357(10) 0.770(4)
H1_2 H 0.5321 0.8065 0.8115
H2_2 H 0.5458 0.8357 0.6621
C1_2 C 0.5822(7) 0.8736(12) 0.852(4)
H3_2 H 0.5857 0.8620 0.9577
H4_2 H 0.5785 0.9019 0.8662
H5_2 H 0.6108 0.8823 0.7856
C2_2 C 0.4989(8) 0.8440(13) 0.792(6)
H6_2 H 0.4707 0.8142 0.8286
H7_2 H 0.4917 0.8544 0.6896
H8_2 H 0.5073 0.8691 0.8744
N1_3 N 0.1643(10) 0.7039(7) 0.770(4)
H1_3 H 0.1935 0.7256 0.8115
H2_3 H 0.1643 0.7101 0.6621
C1_3 C 0.1264(12) 0.7086(10) 0.852(4)
H3_3 H 0.1380 0.7237 0.9577
H4_3 H 0.0981 0.6766 0.8662
H5_3 H 0.1177 0.7285 0.7856
C2_3 C 0.1560(13) 0.6549(10) 0.792(6)
H6_3 H 0.1858 0.6565 0.8286
H7_3 H 0.1456 0.6373 0.6896
H8_3 H 0.1309 0.6382 0.8744
C2_4 C 0.0118(10) 0.8344(8) 0.125(6)
H6_4 H 0.0102 0.8626 0.1619
H7_4 H 0.0294 0.8416 0.0229
H8_4 H 0.0285 0.8260 0.2077
N1_4 N 0.9628(7) 0.7937(7) 0.103(4)
H1_4 H 0.9411 0.8012 0.1448
C1_4 C 0.9581(10) 0.7511(7) 0.185(4)
H3_4 H 0.9430 0.7476 0.2910
H4_4 H 0.9901 0.7548 0.1995
H5_4 H 0.9382 0.7225 0.1189
H2_4 H 0.9566 0.7875 0.9954
N1_5 N 0.2063(7) 0.1690(10) 0.103(4)
H1_5 H 0.1988 0.1398 0.1448
C1_5 C 0.2489(7) 0.2069(12) 0.185(4)
H3_5 H 0.2524 0.1953 0.2910
H4_5 H 0.2452 0.2352 0.1995
H5_5 H 0.2775 0.2156 0.1189
C2_5 C 0.1656(8) 0.1773(13) 0.125(6)
H6_5 H 0.1374 0.1475 0.1619
H7_5 H 0.1584 0.1877 0.0229
H8_5 H 0.1740 0.2024 0.2077
H2_5 H 0.2125 0.1690 0.9954
N1_6 N 0.8310(10) 0.0372(7) 0.103(4)
H1_6 H 0.8602 0.0589 0.1448
C1_6 C 0.7931(12) 0.0419(10) 0.185(4)
H3_6 H 0.8047 0.0570 0.2910
H4_6 H 0.7648 0.0099 0.1995
H5_6 H 0.7844 0.0618 0.1189
H2_6 H 0.8310 0.0434 0.9954
C2_6 C 0.8227(13) 0.9882(10) 0.125(6)
H6_6 H 0.8525 0.9898 0.1619
H7_6 H 0.8123 0.9706 0.0229
H8_6 H 0.7976 0.9715 0.2077
N1_7 N 0.6294(7) 0.1271(7) 0.437(4)
H1_7 H 0.6077 0.1346 0.4782
H2_7 H 0.6232 0.1209 0.3288
C1_7 C 0.6247(10) 0.0845(7) 0.519(4)
H3_7 H 0.6096 0.0810 0.6244
H4_7 H 0.6567 0.0882 0.5329
H5_7 H 0.6048 0.0559 0.4523
C2_7 C 0.6784(10) 0.1678(8) 0.459(6)
H6_7 H 0.6768 0.1960 0.4953
H7_7 H 0.6960 0.1750 0.3563
H8_7 H 0.6951 0.1594 0.5411
N1_8 N 0.8729(7) 0.5024(10) 0.437(4)
H1_8 H 0.8654 0.4732 0.4782
H2_8 H 0.8791 0.5024 0.3288
C1_8 C 0.9155(7) 0.5403(12) 0.519(4)
H3_8 H 0.9190 0.5287 0.6244
H4_8 H 0.9118 0.5686 0.5329
H5_8 H 0.9441 0.5490 0.4523
C2_8 C 0.8322(8) 0.5107(13) 0.459(6)
H6_8 H 0.8040 0.4809 0.4953
H7_8 H 0.8250 0.5211 0.3563
H8_8 H 0.8406 0.5358 0.5411
N1_9 N 0.4976(10) 0.3706(7) 0.437(4)
H1_9 H 0.5268 0.3923 0.4782
H2_9 H 0.4976 0.3768 0.3288
C1_9 C 0.4597(12) 0.3753(10) 0.519(4)
H3_9 H 0.4713 0.3904 0.6244
H4_9 H 0.4314 0.3433 0.5329
H5_9 H 0.4510 0.3952 0.4523
C2_9 C 0.4893(13) 0.3216(10) 0.459(6)
H6_9 H 0.5191 0.3232 0.4953
H7_9 H 0.4789 0.3040 0.3563
H8_9 H 0.4642 0.3049 0.5411
N1_10 N 0.7039(7) 0.5396(7) 0.230(4)
H1_10 H 0.7256 0.5321 0.1885
H2_10 H 0.7101 0.5458 0.3379
C1_10 C 0.7086(10) 0.5822(7) 0.148(4)
H3_10 H 0.7237 0.5857 0.0423
H4_10 H 0.6766 0.5785 0.1338
H5_10 H 0.7285 0.6108 0.2144
C2_10 C 0.6549(10) 0.4989(8) 0.208(6)
H6_10 H 0.6565 0.4707 0.1714
H7_10 H 0.6373 0.4917 0.3104
H8_10 H 0.6382 0.5073 0.1256
N1_11 N 0.4604(7) 0.1643(10) 0.230(4)
H1_11 H 0.4679 0.1935 0.1885
H2_11 H 0.4542 0.1643 0.3379
C1_11 C 0.4178(7) 0.1264(12) 0.148(4)
H3_11 H 0.4143 0.1380 0.0423
H4_11 H 0.4215 0.0981 0.1338
H5_11 H 0.3892 0.1177 0.2144
C2_11 C 0.5011(8) 0.1560(13) 0.208(6)
H6_11 H 0.5293 0.1858 0.1714
H7_11 H 0.5083 0.1456 0.3104
H8_11 H 0.4927 0.1309 0.1256
N1_12 N 0.8357(10) 0.2961(7) 0.230(4)
H1_12 H 0.8065 0.2744 0.1885
H2_12 H 0.8357 0.2899 0.3379
C1_12 C 0.8736(12) 0.2914(10) 0.148(4)
H3_12 H 0.8620 0.2763 0.0423
H4_12 H 0.9019 0.3234 0.1338
H5_12 H 0.8823 0.2715 0.2144
C2_12 C 0.8440(13) 0.3451(10) 0.208(6)
H6_12 H 0.8142 0.3435 0.1714
H7_12 H 0.8544 0.3627 0.3104
H8_12 H 0.8691 0.3618 0.1256
H2_13 H 0.0434 0.2125 0.0046
N1_13 N 0.0372(7) 0.2063(7) 0.897(4)
H1_13 H 0.0589 0.1988 0.8552
C1_13 C 0.0419(10) 0.2489(7) 0.815(4)
H3_13 H 0.0570 0.2524 0.7090
H4_13 H 0.0099 0.2452 0.8005
H5_13 H 0.0618 0.2775 0.8811
C2_13 C 0.9882(10) 0.1656(8) 0.875(6)
H6_13 H 0.9898 0.1374 0.8381
H7_13 H 0.9706 0.1584 0.9771
H8_13 H 0.9715 0.1740 0.7923
H2_14 H 0.7875 0.8310 0.0046
N1_14 N 0.7937(7) 0.8310(10) 0.897(4)
H1_14 H 0.8012 0.8602 0.8552
C1_14 C 0.7511(7) 0.7931(12) 0.815(4)
H3_14 H 0.7476 0.8047 0.7090
H4_14 H 0.7548 0.7648 0.8005
H5_14 H 0.7225 0.7844 0.8811
C2_14 C 0.8344(8) 0.8227(13) 0.875(6)
H6_14 H 0.8626 0.8525 0.8381
H7_14 H 0.8416 0.8123 0.9771
H8_14 H 0.8260 0.7976 0.7923
C2_15 C 0.1773(13) 0.0118(10) 0.875(6)
H6_15 H 0.1475 0.0102 0.8381
H7_15 H 0.1877 0.0294 0.9771
H8_15 H 0.2024 0.0285 0.7923
H2_15 H 0.1690 0.9566 0.0046
N1_15 N 0.1690(10) 0.9628(7) 0.897(4)
H1_15 H 0.1398 0.9411 0.8552
C1_15 C 0.2069(12) 0.9581(10) 0.815(4)
H3_15 H 0.1953 0.9430 0.7090
H4_15 H 0.2352 0.9901 0.8005
H5_15 H 0.2156 0.9382 0.8811
N1_16 N 0.3706(7) 0.8729(7) 0.563(4)
H1_16 H 0.3923 0.8654 0.5218
H2_16 H 0.3768 0.8791 0.6712
C1_16 C 0.3753(10) 0.9155(7) 0.481(4)
H3_16 H 0.3904 0.9190 0.3756
H4_16 H 0.3433 0.9118 0.4671
H5_16 H 0.3952 0.9441 0.5477
C2_16 C 0.3216(10) 0.8322(8) 0.541(6)
H6_16 H 0.3232 0.8040 0.5047
H7_16 H 0.3040 0.8250 0.6437
H8_16 H 0.3049 0.8406 0.4589
N1_17 N 0.1271(7) 0.4976(10) 0.563(4)
H1_17 H 0.1346 0.5268 0.5218
H2_17 H 0.1209 0.4976 0.6712
C1_17 C 0.0845(7) 0.4597(12) 0.481(4)
H3_17 H 0.0810 0.4713 0.3756
H4_17 H 0.0882 0.4314 0.4671
H5_17 H 0.0559 0.4510 0.5477
C2_17 C 0.1678(8) 0.4893(13) 0.541(6)
H6_17 H 0.1960 0.5191 0.5047
H7_17 H 0.1750 0.4789 0.6437
H8_17 H 0.1594 0.4642 0.4589
N1_18 N 0.5024(10) 0.6294(7) 0.563(4)
H1_18 H 0.4732 0.6077 0.5218
H2_18 H 0.5024 0.6232 0.6712
C1_18 C 0.5403(12) 0.6247(10) 0.481(4)
H3_18 H 0.5287 0.6096 0.3756
H4_18 H 0.5686 0.6567 0.4671
H5_18 H 0.5490 0.6048 0.5477
C2_18 C 0.5107(13) 0.6784(10) 0.541(6)
H6_18 H 0.4809 0.6768 0.5047
H7_18 H 0.5211 0.6960 0.6437
H8_18 H 0.5358 0.6951 0.4589
Cd1 Cd 0.32999(3) 0.38802(3) 0.37032(11)
O1 O 0.2687(3) 0.3333(4) 0.5435(12)
O2 O 0.2085(5) 0.2609(5) 0.544(2)
N2 N 0.2809(4) 0.3390(4) 0.1715(11)
N3 N 0.3001(4) 0.3278(4) 0.0449(13)
C3 C 0.2268(5) 0.3035(5) 0.5004(15)
C4 C 0.1973(4) 0.3203(5) 0.4113(15)
C5 C 0.1998(4) 0.3270(4) 0.2397(14)
C6 C 0.1646(5) 0.3283(5) 0.4961(16)
H9 H 0.1641 0.3256 0.6109
C7 C 0.2334(4) 0.3214(5) 0.1384(14)
O3 O 0.3065(7) 0.4408(6) 0.450(2)
C8 C 0.2908(9) 0.4573(9) 0.357(4)
H10 H 0.2904 0.4857 0.3871
O4 O 0.2748(8) 0.4394(7) 0.223(3)
O5 O 0.0646(3) 0.3334(4) 0.1232(12)
O6 O 0.1248(5) 0.4058(5) 0.123(2)
N6 N 0.0524(4) 0.3277(4) 0.4952(11)
N7 N 0.0332(4) 0.3389(4) 0.6218(13)
N8 N 0.0681(4) 0.3628(4) 0.7246(12)
N9 N 0.1108(4) 0.3676(5) 0.6729(13)
C9 C 0.1065(5) 0.3632(5) 0.1663(15)
C10 C 0.1360(4) 0.3464(5) 0.2554(15)
C11 C 0.1335(4) 0.3397(4) 0.4270(14)
C12 C 0.1687(5) 0.3384(5) 0.1706(16)
H11 H 0.1692 0.3411 0.0558
C13 C 0.0999(4) 0.3453(5) 0.5283(14)
Cd2 Cd 0.27865(3) 0.27530(4) 0.70365(11)
O7 O 0.2259(6) 0.1990(9) 0.783(2)
C14 C 0.2094(9) 0.1668(13) 0.690(4)
H12 H 0.1810 0.1380 0.7204
O8 O 0.2273(7) 0.1687(11) 0.556(3)
Cd4 Cd 0.39136(4) 0.33668(3) 0.03699(11)
Cd7 Cd 0.05469(3) 0.39136(4) 0.96301(11)
Cd8 Cd 0.00334(3) 0.27865(3) 0.29635(11)
O9 O 0.3334(4) 0.2687(5) 0.8768(12)
O10 O 0.3979(5) 0.3980(3) 0.2102(12)
O11 O 0.3857(7) 0.4582(5) 0.211(2)
N10 N 0.3277(4) 0.2752(6) 0.5048(11)
N11 N 0.3389(4) 0.3056(6) 0.3782(13)
N12 N 0.3610(6) 0.3666(4) 0.7116(13)
N13 N 0.2652(4) 0.3039(4) 0.9421(12)
N14 N 0.3720(6) 0.4015(4) 0.6088(12)
N5 N 0.2225(4) 0.2991(5) 0.9938(13)
Cd5 Cd 0.94197(4) 0.32999(3) 0.62968(11)
Cd2_2 Cd 0.72470(4) 0.00334(5) 0.70365(11)
O7_2 O 0.8010(9) 0.0268(11) 0.783(2)
C14_2 C 0.8332(13) 0.0425(16) 0.690(4)
H12_2 H 0.8620 0.0429 0.7204
O8_2 O 0.8313(11) 0.0585(13) 0.556(3)
Cd4_2 Cd 0.66332(3) 0.05469(5) 0.03699(11)
O9_2 O 0.7313(5) 0.0646(6) 0.8768(12)
N10_2 N 0.7248(6) 0.0524(7) 0.5048(11)
N11_2 N 0.6944(6) 0.0332(7) 0.3782(13)
Cd1_2 Cd 0.61198(3) 0.94197(4) 0.37032(11)
O1_2 O 0.6667(4) 0.9354(5) 0.5435(12)
O2_2 O 0.7391(5) 0.9476(7) 0.544(2)
N2_2 N 0.6610(4) 0.9419(6) 0.1715(11)
N3_2 N 0.6722(4) 0.9723(6) 0.0449(13)
C3_2 C 0.6965(5) 0.9233(7) 0.5004(15)
C4_2 C 0.6797(5) 0.8770(6) 0.4113(15)
C5_2 C 0.6730(4) 0.8728(6) 0.2397(14)
C6_2 C 0.6717(5) 0.8363(7) 0.4961(16)
H9_2 H 0.6744 0.8385 0.6109
C7_2 C 0.6786(5) 0.9120(6) 0.1384(14)
O3_2 O 0.5592(6) 0.8657(9) 0.450(2)
C8_2 C 0.5427(9) 0.8335(13) 0.357(4)
H10_2 H 0.5143 0.8047 0.3871
O4_2 O 0.5606(7) 0.8354(11) 0.223(3)
O5_2 O 0.6666(4) 0.7313(5) 0.1232(12)
O6_2 O 0.5942(5) 0.7191(7) 0.123(2)
N6_2 N 0.6723(4) 0.7248(6) 0.4952(11)
N7_2 N 0.6611(4) 0.6944(6) 0.6218(13)
N8_2 N 0.6372(4) 0.7054(6) 0.7246(12)
N9_2 N 0.6324(5) 0.7433(6) 0.6729(13)
C9_2 C 0.6368(5) 0.7434(7) 0.1663(15)
C10_2 C 0.6536(5) 0.7897(6) 0.2554(15)
C11_2 C 0.6603(4) 0.7939(6) 0.4270(14)
C12_2 C 0.6616(5) 0.8304(7) 0.1706(16)
H11_2 H 0.6589 0.8282 0.0558
C13_2 C 0.6547(5) 0.7547(6) 0.5283(14)
Cd5_2 Cd 0.67001(3) 0.61198(5) 0.62968(11)
Cd7_2 Cd 0.60864(4) 0.66332(5) 0.96301(11)
Cd8_2 Cd 0.72135(3) 0.72470(4) 0.29635(11)
O10_2 O 0.6020(3) 1.0000(6) 0.2102(12)
O11_2 O 0.5418(5) 0.9276(9) 0.211(2)
N12_2 N 0.6334(4) 0.9945(7) 0.7116(13)
N13_2 N 0.6961(4) 0.9613(6) 0.9421(12)
N14_2 N 0.5985(4) 0.9706(7) 0.6088(12)
N5_2 N 0.7009(5) 0.9234(6) 0.9938(13)
Cd5_3 Cd 0.38802(5) 0.05803(4) 0.62968(11)
Cd1_3 Cd 0.05803(4) 0.67001(3) 0.37032(11)
O1_3 O 0.0646(5) 0.7313(3) 0.5435(12)
O2_3 O 0.0524(7) 0.7915(5) 0.544(2)
N2_3 N 0.0581(6) 0.7191(4) 0.1715(11)
N3_3 N 0.0277(6) 0.6999(4) 0.0449(13)
C3_3 C 0.0767(7) 0.7732(5) 0.5004(15)
C4_3 C 0.1230(6) 0.8027(4) 0.4113(15)
C5_3 C 0.1272(6) 0.8002(4) 0.2397(14)
C6_3 C 0.1637(7) 0.8354(5) 0.4961(16)
H9_3 H 0.1615 0.8359 0.6109
C7_3 C 0.0880(6) 0.7666(4) 0.1384(14)
O3_3 O 0.1343(9) 0.6935(7) 0.450(2)
C8_3 C 0.1665(13) 0.7092(9) 0.357(4)
H10_3 H 0.1953 0.7096 0.3871
O4_3 O 0.1646(11) 0.7252(8) 0.223(3)
O5_3 O 0.2687(5) 0.9354(3) 0.1232(12)
O6_3 O 0.2809(7) 0.8752(5) 0.123(2)
N6_3 N 0.2752(6) 0.9476(4) 0.4952(11)
N7_3 N 0.3056(6) 0.9668(4) 0.6218(13)
N8_3 N 0.2946(6) 0.9319(4) 0.7246(12)
N9_3 N 0.2567(6) 0.8892(4) 0.6729(13)
C9_3 C 0.2566(7) 0.8935(5) 0.1663(15)
C10_3 C 0.2103(6) 0.8640(4) 0.2554(15)
C11_3 C 0.2061(6) 0.8665(4) 0.4270(14)
C12_3 C 0.1696(7) 0.8313(5) 0.1706(16)
H11_3 H 0.1718 0.8308 0.0558
C13_3 C 0.2453(6) 0.9001(4) 0.5283(14)
Cd7_3 Cd 0.33668(5) 0.94531(3) 0.96301(11)
Cd8_3 Cd 0.27530(4) 0.99666(3) 0.29635(11)
O10_3 O 0.0000(6) 0.6021(5) 0.2102(12)
O11_3 O 0.0724(9) 0.6143(7) 0.211(2)
N12_3 N 0.0055(7) 0.6390(6) 0.7116(13)
N13_3 N 0.0387(6) 0.7348(4) 0.9421(12)
N14_3 N 0.0294(7) 0.6280(6) 0.6088(12)
N5_3 N 0.0766(6) 0.7775(4) 0.9938(13)
Cd2_3 Cd 0.99666(5) 0.72135(3) 0.70365(11)
O7_3 O 0.9732(11) 0.7741(6) 0.783(2)
C14_3 C 0.9575(16) 0.7906(9) 0.690(4)
H12_3 H 0.9571 0.8190 0.7204
O8_3 O 0.9415(13) 0.7727(7) 0.556(3)
Cd4_3 Cd 0.94531(5) 0.60864(4) 0.03699(11)
O9_3 O 0.9354(6) 0.6666(4) 0.8768(12)
N10_3 N 0.9476(7) 0.6723(4) 0.5048(11)
N11_3 N 0.9668(7) 0.6611(4) 0.3782(13)
N8_4 N 0.7348(4) 0.6961(4) 0.0579(12)
N9_4 N 0.7775(4) 0.7009(5) 0.0062(13)
O7_4 O 0.8925(6) 0.5324(9) 0.117(2)
C14_4 C 0.8760(9) 0.5002(13) 0.024(4)
H12_4 H 0.8476 0.4714 0.0538
N13_4 N 0.9319(4) 0.6372(4) 0.2754(12)
O2_4 O 0.8752(5) 0.5942(5) 0.877(2)
N5_4 N 0.8892(4) 0.6324(5) 0.3271(13)
C3_4 C 0.8935(5) 0.6368(5) 0.8337(15)
C4_4 C 0.8640(4) 0.6536(5) 0.7446(15)
C5_4 C 0.8665(4) 0.6603(4) 0.5730(14)
C6_4 C 0.8313(5) 0.6616(5) 0.8294(16)
H9_4 H 0.8308 0.6589 0.9442
C7_4 C 0.9001(4) 0.6547(5) 0.4717(14)
O5_4 O 0.7313(3) 0.6667(4) 0.4565(12)
O6_4 O 0.7915(5) 0.7391(5) 0.456(2)
N6_4 N 0.7191(4) 0.6610(4) 0.8285(11)
N7_4 N 0.6999(4) 0.6722(4) 0.9551(13)
C9_4 C 0.7732(5) 0.6965(5) 0.4996(15)
C10_4 C 0.8027(4) 0.6797(5) 0.5887(15)
C11_4 C 0.8002(4) 0.6730(4) 0.7603(14)
C12_4 C 0.8354(5) 0.6717(5) 0.5039(16)
H11_4 H 0.8359 0.6744 0.3891
C13_4 C 0.7666(4) 0.6786(5) 0.8616(14)
O8_4 O 0.8939(7) 0.5021(11) 0.890(3)
N10_4 N 0.9943(4) 0.6086(6) 0.8382(11)
N8_5 N 0.3039(4) 0.0387(6) 0.0579(12)
N9_5 N 0.2991(5) 0.0766(6) 0.0062(13)
O7_5 O 0.4676(9) 0.3602(11) 0.117(2)
C14_5 C 0.4998(13) 0.3759(16) 0.024(4)
H12_5 H 0.5286 0.3763 0.0538
N13_5 N 0.3628(4) 0.2946(6) 0.2754(12)
O2_5 O 0.4058(5) 0.2809(7) 0.877(2)
N5_5 N 0.3676(5) 0.2567(6) 0.3271(13)
C3_5 C 0.3632(5) 0.2566(7) 0.8337(15)
C4_5 C 0.3464(5) 0.2103(6) 0.7446(15)
C5_5 C 0.3397(4) 0.2061(6) 0.5730(14)
C6_5 C 0.3384(5) 0.1696(7) 0.8294(16)
H9_5 H 0.3411 0.1718 0.9442
C7_5 C 0.3453(5) 0.2453(6) 0.4717(14)
O5_5 O 0.3333(4) 0.0646(5) 0.4565(12)
O6_5 O 0.2609(5) 0.0524(7) 0.456(2)
N6_5 N 0.3390(4) 0.0581(6) 0.8285(11)
N7_5 N 0.3278(4) 0.0277(6) 0.9551(13)
C9_5 C 0.3035(5) 0.0767(7) 0.4996(15)
C10_5 C 0.3203(5) 0.1230(6) 0.5887(15)
C11_5 C 0.3270(4) 0.1272(6) 0.7603(14)
C12_5 C 0.3283(5) 0.1637(7) 0.5039(16)
H11_5 H 0.3256 0.1615 0.3891
C13_5 C 0.3214(5) 0.0880(6) 0.8616(14)
O8_5 O 0.4979(11) 0.3919(13) 0.890(3)
N10_5 N 0.3914(6) 0.3858(7) 0.8382(11)
N8_6 N 0.9613(6) 0.2652(4) 0.0579(12)
N9_6 N 0.9234(6) 0.2225(4) 0.0062(13)
O7_6 O 0.6398(11) 0.1075(6) 0.117(2)
C14_6 C 0.6241(16) 0.1240(9) 0.024(4)
H12_6 H 0.6237 0.1524 0.0538
N13_6 N 0.7054(6) 0.0681(4) 0.2754(12)
O2_6 O 0.7191(7) 0.1248(5) 0.877(2)
N5_6 N 0.7433(6) 0.1108(4) 0.3271(13)
C3_6 C 0.7434(7) 0.1065(5) 0.8337(15)
C4_6 C 0.7897(6) 0.1360(4) 0.7446(15)
C5_6 C 0.7939(6) 0.1335(4) 0.5730(14)
C6_6 C 0.8304(7) 0.1687(5) 0.8294(16)
H9_6 H 0.8282 0.1692 0.9442
C7_6 C 0.7547(6) 0.0999(4) 0.4717(14)
O5_6 O 0.9354(5) 0.2687(3) 0.4565(12)
O6_6 O 0.9476(7) 0.2085(5) 0.456(2)
N6_6 N 0.9419(6) 0.2809(4) 0.8285(11)
N7_6 N 0.9723(6) 0.3001(4) 0.9551(13)
C9_6 C 0.9233(7) 0.2268(5) 0.4996(15)
C10_6 C 0.8770(6) 0.1973(4) 0.5887(15)
C11_6 C 0.8728(6) 0.1998(4) 0.7603(14)
C12_6 C 0.8363(7) 0.1646(5) 0.5039(16)
H11_6 H 0.8385 0.1641 0.3891
C13_6 C 0.9120(6) 0.2334(4) 0.8616(14)
O8_6 O 0.6081(13) 0.1061(7) 0.890(3)
N10_6 N 0.6142(7) 0.0057(4) 0.8382(11)
N7_7 N 0.3666(4) 0.0055(4) 0.2884(13)
N8_7 N 0.4015(4) 0.0294(4) 0.3912(12)
N9_7 N 0.4442(4) 0.0342(5) 0.3395(13)
C11_7 C 0.4669(4) 0.0063(4) 0.0936(14)
C13_7 C 0.4333(4) 0.0119(5) 0.1949(14)
O5_7 O 0.3980(3) 0.0000(4) 0.7898(12)
O6_7 O 0.4582(5) 0.0724(5) 0.789(2)
C9_7 C 0.4399(5) 0.0298(5) 0.8329(15)
C10_7 C 0.4694(4) 0.0130(5) 0.9220(15)
C12_7 C 0.5021(5) 0.0050(5) 0.8372(16)
H11_7 H 0.5026 0.0077 0.7224
C3_7 C 0.5601(5) 0.9702(5) 0.1671(15)
C4_7 C 0.5306(4) 0.9870(5) 0.0780(15)
C6_7 C 0.4979(5) 0.9950(5) 0.1628(16)
H9_7 H 0.4974 0.9923 0.2776
N6_7 N 0.3858(4) 0.9943(4) 0.1618(11)
N5_7 N 0.5558(4) 0.9658(5) 0.6605(13)
C5_7 C 0.5331(4) 0.9937(4) 0.9064(14)
C7_7 C 0.5667(4) 0.9881(5) 0.8051(14)
C3_8 C 0.0298(5) 0.5900(7) 0.1671(15)
C4_8 C 0.0130(5) 0.5437(6) 0.0780(15)
C6_8 C 0.0050(5) 0.5030(7) 0.1628(16)
H9_8 H 0.0077 0.5052 0.2776
N6_8 N 0.0057(4) 0.3914(6) 0.1618(11)
N5_8 N 0.0342(5) 0.5901(6) 0.6605(13)
C5_8 C 0.0063(4) 0.5395(6) 0.9064(14)
C7_8 C 0.0119(5) 0.5787(6) 0.8051(14)
N7_8 N 0.9945(4) 0.3610(6) 0.2884(13)
N8_8 N 0.9706(4) 0.3720(6) 0.3912(12)
N9_8 N 0.9658(5) 0.4099(6) 0.3395(13)
C11_8 C 0.9937(4) 0.4605(6) 0.0936(14)
C13_8 C 0.9881(5) 0.4213(6) 0.1949(14)
O5_8 O 1.0000(4) 0.3979(5) 0.7898(12)
O6_8 O 0.9276(5) 0.3857(7) 0.789(2)
C9_8 C 0.9702(5) 0.4100(7) 0.8329(15)
C10_8 C 0.9870(5) 0.4563(6) 0.9220(15)
C12_8 C 0.9950(5) 0.4970(7) 0.8372(16)
H11_8 H 0.9923 0.4948 0.7224
C3_9 C 0.4100(7) 0.4399(5) 0.1671(15)
C4_9 C 0.4563(6) 0.4694(4) 0.0780(15)
C6_9 C 0.4970(7) 0.5021(5) 0.1628(16)
H9_9 H 0.4948 0.5026 0.2776
N6_9 N 0.6086(6) 0.6142(4) 0.1618(11)
N7_9 N 0.6390(6) 0.6334(4) 0.2884(13)
N8_9 N 0.6280(6) 0.5985(4) 0.3912(12)
N9_9 N 0.5901(6) 0.5558(4) 0.3395(13)
C11_9 C 0.5395(6) 0.5331(4) 0.0936(14)
C13_9 C 0.5787(6) 0.5667(4) 0.1949(14)
N5_9 N 0.4099(6) 0.4442(4) 0.6605(13)
C5_9 C 0.4605(6) 0.4669(4) 0.9064(14)
C7_9 C 0.4213(6) 0.4333(4) 0.8051(14)
O5_9 O 0.6021(5) 0.6020(3) 0.7898(12)
O6_9 O 0.6143(7) 0.5418(5) 0.789(2)
C9_9 C 0.5900(7) 0.5601(5) 0.8329(15)
C10_9 C 0.5437(6) 0.5306(4) 0.9220(15)
C12_9 C 0.5030(7) 0.4979(5) 0.8372(16)
H11_9 H 0.5052 0.4974 0.7224
O3_4 O 0.6935(7) 0.5592(6) 0.550(2)
C8_4 C 0.7092(9) 0.5427(9) 0.643(4)
H10_4 H 0.7096 0.5143 0.6129
O4_4 O 0.7252(8) 0.5606(7) 0.777(3)
O7_7 O 0.7741(6) 0.8010(9) 0.217(2)
C14_7 C 0.7906(9) 0.8332(13) 0.310(4)
H12_7 H 0.8190 0.8620 0.2796
O8_7 O 0.7727(7) 0.8313(11) 0.444(3)
O3_5 O 0.4408(6) 0.1343(9) 0.550(2)
C8_5 C 0.4573(9) 0.1665(13) 0.643(4)
H10_5 H 0.4857 0.1953 0.6129
O4_5 O 0.4394(7) 0.1646(11) 0.777(3)
O7_8 O 0.1990(9) 0.9732(11) 0.217(2)
C14_8 C 0.1668(13) 0.9575(16) 0.310(4)
H12_8 H 0.1380 0.9571 0.2796
O8_8 O 0.1687(11) 0.9415(13) 0.444(3)
O7_9 O 0.0268(11) 0.2259(6) 0.217(2)
C14_9 C 0.0425(16) 0.2094(9) 0.310(4)
H12_9 H 0.0429 0.1810 0.2796
O8_9 O 0.0585(13) 0.2273(7) 0.444(3)
O3_6 O 0.8657(9) 0.3065(7) 0.550(2)
C8_6 C 0.8335(13) 0.2908(9) 0.643(4)
H10_6 H 0.8047 0.2904 0.6129
O4_6 O 0.8354(11) 0.2748(8) 0.777(3)
O8_10 O 0.1061(7) 0.4979(11) 0.110(3)
O7_10 O 0.1075(6) 0.4676(9) 0.883(2)
C14_10 C 0.1240(9) 0.4998(13) 0.976(4)
H12_10 H 0.1524 0.5286 0.9462
O8_11 O 0.5021(11) 0.6081(13) 0.110(3)
O7_11 O 0.5324(9) 0.6398(11) 0.883(2)
C14_11 C 0.5002(13) 0.6241(16) 0.976(4)
H12_11 H 0.4714 0.6237 0.9462
O8_12 O 0.3919(13) 0.8939(7) 0.110(3)
O7_12 O 0.3602(11) 0.8925(6) 0.883(2)
C14_12 C 0.3759(16) 0.8760(9) 0.976(4)
H12_12 H 0.3763 0.8476 0.9462
loop_
_geom_bond_atom_site_label_1
_geom_bond_atom_site_label_2
_geom_bond_site_symmetry_1
_geom_bond_site_symmetry_2
N1 H1 1_555 1_555
H2 N1 1_555 1_555
C1 N1 1_555 1_555
H3 C1 1_555 1_555
H4 C1 1_555 1_555
H5 C1 1_555 1_555
C2 N1 1_555 1_555
H6 C2 1_555 1_555
H7 C2 1_555 1_555
H8 C2 1_555 1_555
N1_2 H1_2 1_555 1_555
H2_2 N1_2 1_555 1_555
C1_2 N1_2 1_555 1_555
H3_2 C1_2 1_555 1_555
H4_2 C1_2 1_555 1_555
H5_2 C1_2 1_555 1_555
C2_2 N1_2 1_555 1_555
H6_2 C2_2 1_555 1_555
H7_2 C2_2 1_555 1_555
H8_2 C2_2 1_555 1_555
N1_3 H1_3 1_555 1_555
H2_3 N1_3 1_555 1_555
C1_3 N1_3 1_555 1_555
H3_3 C1_3 1_555 1_555
H4_3 C1_3 1_555 1_555
H5_3 C1_3 1_555 1_555
C2_3 N1_3 1_555 1_555
H6_3 C2_3 1_555 1_555
H7_3 C2_3 1_555 1_555
H8_3 C2_3 1_555 1_555
H6_4 C2_4 1_555 1_555
H7_4 C2_4 1_555 1_555
H8_4 C2_4 1_555 1_555
N1_4 H1_4 1_555 1_555
C1_4 N1_4 1_555 1_555
H3_4 C1_4 1_555 1_555
H4_4 C1_4 1_555 1_555
H5_4 C1_4 1_555 1_555
N1_5 H1_5 1_555 1_555
C1_5 N1_5 1_555 1_555
H3_5 C1_5 1_555 1_555
H4_5 C1_5 1_555 1_555
H5_5 C1_5 1_555 1_555
C2_5 N1_5 1_555 1_555
H6_5 C2_5 1_555 1_555
H7_5 C2_5 1_555 1_555
H8_5 C2_5 1_555 1_555
N1_6 H1_6 1_555 1_555
C1_6 N1_6 1_555 1_555
H3_6 C1_6 1_555 1_555
H4_6 C1_6 1_555 1_555
H5_6 C1_6 1_555 1_555
H6_6 C2_6 1_555 1_555
H7_6 C2_6 1_555 1_555
H8_6 C2_6 1_555 1_555
N1_7 H1_7 1_555 1_555
H2_7 N1_7 1_555 1_555
C1_7 N1_7 1_555 1_555
H3_7 C1_7 1_555 1_555
H4_7 C1_7 1_555 1_555
H5_7 C1_7 1_555 1_555
C2_7 N1_7 1_555 1_555
H6_7 C2_7 1_555 1_555
H7_7 C2_7 1_555 1_555
H8_7 C2_7 1_555 1_555
N1_8 H1_8 1_555 1_555
H2_8 N1_8 1_555 1_555
C1_8 N1_8 1_555 1_555
H3_8 C1_8 1_555 1_555
H4_8 C1_8 1_555 1_555
H5_8 C1_8 1_555 1_555
C2_8 N1_8 1_555 1_555
H6_8 C2_8 1_555 1_555
H7_8 C2_8 1_555 1_555
H8_8 C2_8 1_555 1_555
N1_9 H1_9 1_555 1_555
H2_9 N1_9 1_555 1_555
C1_9 N1_9 1_555 1_555
H3_9 C1_9 1_555 1_555
H4_9 C1_9 1_555 1_555
H5_9 C1_9 1_555 1_555
C2_9 N1_9 1_555 1_555
H6_9 C2_9 1_555 1_555
H7_9 C2_9 1_555 1_555
H8_9 C2_9 1_555 1_555
N1_10 H1_10 1_555 1_555
H2_10 N1_10 1_555 1_555
C1_10 N1_10 1_555 1_555
H3_10 C1_10 1_555 1_555
H4_10 C1_10 1_555 1_555
H5_10 C1_10 1_555 1_555
C2_10 N1_10 1_555 1_555
H6_10 C2_10 1_555 1_555
H7_10 C2_10 1_555 1_555
H8_10 C2_10 1_555 1_555
N1_11 H1_11 1_555 1_555
H2_11 N1_11 1_555 1_555
C1_11 N1_11 1_555 1_555
H3_11 C1_11 1_555 1_555
H4_11 C1_11 1_555 1_555
H5_11 C1_11 1_555 1_555
C2_11 N1_11 1_555 1_555
H6_11 C2_11 1_555 1_555
H7_11 C2_11 1_555 1_555
H8_11 C2_11 1_555 1_555
N1_12 H1_12 1_555 1_555
H2_12 N1_12 1_555 1_555
C1_12 N1_12 1_555 1_555
H3_12 C1_12 1_555 1_555
H4_12 C1_12 1_555 1_555
H5_12 C1_12 1_555 1_555
C2_12 N1_12 1_555 1_555
H6_12 C2_12 1_555 1_555
H7_12 C2_12 1_555 1_555
H8_12 C2_12 1_555 1_555
N1_13 H1_13 1_555 1_555
C1_13 N1_13 1_555 1_555
H3_13 C1_13 1_555 1_555
H4_13 C1_13 1_555 1_555
H5_13 C1_13 1_555 1_555
H6_13 C2_13 1_555 1_555
H7_13 C2_13 1_555 1_555
H8_13 C2_13 1_555 1_555
N1_14 H1_14 1_555 1_555
C1_14 N1_14 1_555 1_555
H3_14 C1_14 1_555 1_555
H4_14 C1_14 1_555 1_555
H5_14 C1_14 1_555 1_555
C2_14 N1_14 1_555 1_555
H6_14 C2_14 1_555 1_555
H7_14 C2_14 1_555 1_555
H8_14 C2_14 1_555 1_555
H6_15 C2_15 1_555 1_555
H7_15 C2_15 1_555 1_555
H8_15 C2_15 1_555 1_555
N1_15 H1_15 1_555 1_555
C1_15 N1_15 1_555 1_555
H3_15 C1_15 1_555 1_555
H4_15 C1_15 1_555 1_555
H5_15 C1_15 1_555 1_555
N1_16 H1_16 1_555 1_555
H2_16 N1_16 1_555 1_555
C1_16 N1_16 1_555 1_555
H3_16 C1_16 1_555 1_555
H4_16 C1_16 1_555 1_555
H5_16 C1_16 1_555 1_555
C2_16 N1_16 1_555 1_555
H6_16 C2_16 1_555 1_555
H7_16 C2_16 1_555 1_555
H8_16 C2_16 1_555 1_555
N1_17 H1_17 1_555 1_555
H2_17 N1_17 1_555 1_555
C1_17 N1_17 1_555 1_555
H3_17 C1_17 1_555 1_555
H4_17 C1_17 1_555 1_555
H5_17 C1_17 1_555 1_555
C2_17 N1_17 1_555 1_555
H6_17 C2_17 1_555 1_555
H7_17 C2_17 1_555 1_555
H8_17 C2_17 1_555 1_555
N1_18 H1_18 1_555 1_555
H2_18 N1_18 1_555 1_555
C1_18 N1_18 1_555 1_555
H3_18 C1_18 1_555 1_555
H4_18 C1_18 1_555 1_555
H5_18 C1_18 1_555 1_555
C2_18 N1_18 1_555 1_555
H6_18 C2_18 1_555 1_555
H7_18 C2_18 1_555 1_555
H8_18 C2_18 1_555 1_555
Cd1 O1 1_555 1_555
O1 C3 1_555 1_555
O2 C3 1_555 1_555
N2 Cd1 1_555 1_555
N3 N2 1_555 1_555
C3 C4 1_555 1_555
C4 C5 1_555 1_555
C5 C7 1_555 1_555
C6 C4 1_555 1_555
H9 C6 1_555 1_555
C7 N2 1_555 1_555
O3 Cd1 1_555 1_555
C8 O3 1_555 1_555
H10 C8 1_555 1_555
O4 C8 1_555 1_555
O5 C9 1_555 1_555
O6 C9 1_555 1_555
N6 N7 1_555 1_555
N7 N8 1_555 1_555
N8 N9 1_555 1_555
N9 C13 1_555 1_555
C9 C10 1_555 1_555
C10 C11 1_555 1_555
C11 C6 1_555 1_555
C12 C5 1_555 1_555
H11 C12 1_555 1_555
C13 N6 1_555 1_555
Cd2 O1 1_555 1_555
O7 Cd2 1_555 1_555
C14 O7 1_555 1_555
H12 C14 1_555 1_555
O8 C14 1_555 1_555
Cd4 N3 1_555 1_555
Cd7 N8 1_555 1_555
Cd8 O5 1_555 1_555
O9 Cd2 1_555 1_555
O10 Cd1 1_555 1_555
O11 Cd1 1_555 1_555
N10 Cd2 1_555 1_555
N11 Cd1 1_555 1_555
N12 Cd2 1_555 1_555
N13 Cd2 1_555 1_555
N14 Cd1 1_555 1_555
O2 Cd2 1_555 1_555
N6 Cd8 1_555 1_555
C10 C12 1_555 1_555
C11 C13 1_555 1_555
Cd4 O10 1_555 1_555
N10 N11 1_555 1_555
N12 N14 1_555 1_555
N5 N13 1_555 1_555
O7_2 Cd2_2 1_555 1_555
C14_2 O7_2 1_555 1_555
H12_2 C14_2 1_555 1_555
O8_2 C14_2 1_555 1_555
O9_2 Cd2_2 1_555 1_555
N10_2 Cd2_2 1_555 1_555
N10_2 N11_2 1_555 1_555
Cd1_2 O1_2 1_555 1_555
O1_2 C3_2 1_555 1_555
O2_2 C3_2 1_555 1_555
N2_2 Cd1_2 1_555 1_555
N3_2 N2_2 1_555 1_555
C3_2 C4_2 1_555 1_555
C4_2 C5_2 1_555 1_555
C5_2 C7_2 1_555 1_555
C6_2 C4_2 1_555 1_555
H9_2 C6_2 1_555 1_555
C7_2 N2_2 1_555 1_555
O3_2 Cd1_2 1_555 1_555
C8_2 O3_2 1_555 1_555
H10_2 C8_2 1_555 1_555
O4_2 C8_2 1_555 1_555
O5_2 C9_2 1_555 1_555
O6_2 C9_2 1_555 1_555
N6_2 N7_2 1_555 1_555
N7_2 N8_2 1_555 1_555
N8_2 N9_2 1_555 1_555
N9_2 C13_2 1_555 1_555
C9_2 C10_2 1_555 1_555
C10_2 C11_2 1_555 1_555
C11_2 C6_2 1_555 1_555
C12_2 C5_2 1_555 1_555
H11_2 C12_2 1_555 1_555
C13_2 N6_2 1_555 1_555
Cd5_2 N7_2 1_555 1_555
Cd7_2 N8_2 1_555 1_555
Cd8_2 O5_2 1_555 1_555
O10_2 Cd1_2 1_555 1_555
O11_2 Cd1_2 1_555 1_555
N14_2 Cd1_2 1_555 1_555
N6_2 Cd8_2 1_555 1_555
C10_2 C12_2 1_555 1_555
C11_2 C13_2 1_555 1_555
N12_2 N14_2 1_555 1_555
N5_2 N13_2 1_555 1_555
Cd1_3 O1_3 1_555 1_555
O1_3 C3_3 1_555 1_555
O2_3 C3_3 1_555 1_555
N2_3 Cd1_3 1_555 1_555
N3_3 N2_3 1_555 1_555
C3_3 C4_3 1_555 1_555
C4_3 C5_3 1_555 1_555
C5_3 C7_3 1_555 1_555
C6_3 C4_3 1_555 1_555
H9_3 C6_3 1_555 1_555
C7_3 N2_3 1_555 1_555
O3_3 Cd1_3 1_555 1_555
C8_3 O3_3 1_555 1_555
H10_3 C8_3 1_555 1_555
O4_3 C8_3 1_555 1_555
O5_3 C9_3 1_555 1_555
O6_3 C9_3 1_555 1_555
N6_3 N7_3 1_555 1_555
N7_3 N8_3 1_555 1_555
N8_3 N9_3 1_555 1_555
N9_3 C13_3 1_555 1_555
C9_3 C10_3 1_555 1_555
C10_3 C11_3 1_555 1_555
C11_3 C6_3 1_555 1_555
C12_3 C5_3 1_555 1_555
H11_3 C12_3 1_555 1_555
C13_3 N6_3 1_555 1_555
Cd7_3 N8_3 1_555 1_555
Cd8_3 O5_3 1_555 1_555
O10_3 Cd1_3 1_555 1_555
O11_3 Cd1_3 1_555 1_555
N14_3 Cd1_3 1_555 1_555
N6_3 Cd8_3 1_555 1_555
C10_3 C12_3 1_555 1_555
C11_3 C13_3 1_555 1_555
N12_3 N14_3 1_555 1_555
N5_3 N13_3 1_555 1_555
O7_3 Cd2_3 1_555 1_555
C14_3 O7_3 1_555 1_555
H12_3 C14_3 1_555 1_555
O8_3 C14_3 1_555 1_555
O9_3 Cd2_3 1_555 1_555
N10_3 Cd2_3 1_555 1_555
N10_3 N11_3 1_555 1_555
N8_4 N9_4 1_555 1_555
O7_4 Cd4_3 1_555 1_555
C14_4 O7_4 1_555 1_555
H12_4 C14_4 1_555 1_555
Cd8_2 N8_4 1_555 1_555
N13_4 Cd4_3 1_555 1_555
O9_3 C3_4 1_555 1_555
O2_4 C3_4 1_555 1_555
N13_4 N11_3 1_555 1_555
N5_4 N13_4 1_555 1_555
C3_4 C4_4 1_555 1_555
C4_4 C5_4 1_555 1_555
C5_4 C7_4 1_555 1_555
C6_4 C4_4 1_555 1_555
H9_4 C6_4 1_555 1_555
C7_4 N10_3 1_555 1_555
O5_4 C9_4 1_555 1_555
O6_4 C9_4 1_555 1_555
N6_4 N7_4 1_555 1_555
C9_4 C10_4 1_555 1_555
C10_4 C11_4 1_555 1_555
C11_4 C6_4 1_555 1_555
C12_4 C5_4 1_555 1_555
H11_4 C12_4 1_555 1_555
C13_4 N6_4 1_555 1_555
Cd7_2 N7_4 1_555 1_555
Cd8_2 O5_4 1_555 1_555
Cd5_2 O5_4 1_555 1_555
N5_4 C7_4 1_555 1_555
O6_4 Cd8_2 1_555 1_555
N6_4 Cd5_2 1_555 1_555
C10_4 C12_4 1_555 1_555
C11_4 C13_4 1_555 1_555
N8_5 N9_5 1_555 1_555
O7_5 Cd4 1_555 1_555
C14_5 O7_5 1_555 1_555
H12_5 C14_5 1_555 1_555
N13_5 Cd4 1_555 1_555
O9 C3_5 1_555 1_555
O2_5 C3_5 1_555 1_555
N13_5 N11 1_555 1_555
N5_5 N13_5 1_555 1_555
C3_5 C4_5 1_555 1_555
C4_5 C5_5 1_555 1_555
C5_5 C7_5 1_555 1_555
C6_5 C4_5 1_555 1_555
H9_5 C6_5 1_555 1_555
C7_5 N10 1_555 1_555
O5_5 C9_5 1_555 1_555
O6_5 C9_5 1_555 1_555
N6_5 N7_5 1_555 1_555
C9_5 C10_5 1_555 1_555
C10_5 C11_5 1_555 1_555
C11_5 C6_5 1_555 1_555
C12_5 C5_5 1_555 1_555
H11_5 C12_5 1_555 1_555
C13_5 N6_5 1_555 1_555
Cd5_3 O5_5 1_555 1_555
N5_5 C7_5 1_555 1_555
N6_5 Cd5_3 1_555 1_555
C10_5 C12_5 1_555 1_555
C11_5 C13_5 1_555 1_555
N10_5 N12 1_555 1_555
N8_6 N9_6 1_555 1_555
O7_6 Cd4_2 1_555 1_555
C14_6 O7_6 1_555 1_555
H12_6 C14_6 1_555 1_555
N13_6 Cd4_2 1_555 1_555
O9_2 C3_6 1_555 1_555
O2_6 C3_6 1_555 1_555
N13_6 N11_2 1_555 1_555
N5_6 N13_6 1_555 1_555
C3_6 C4_6 1_555 1_555
C4_6 C5_6 1_555 1_555
C5_6 C7_6 1_555 1_555
C6_6 C4_6 1_555 1_555
H9_6 C6_6 1_555 1_555
C7_6 N10_2 1_555 1_555
O5_6 C9_6 1_555 1_555
O6_6 C9_6 1_555 1_555
N6_6 N7_6 1_555 1_555
C9_6 C10_6 1_555 1_555
C10_6 C11_6 1_555 1_555
C11_6 C6_6 1_555 1_555
C12_6 C5_6 1_555 1_555
H11_6 C12_6 1_555 1_555
C13_6 N6_6 1_555 1_555
Cd5 O5_6 1_555 1_555
N5_6 C7_6 1_555 1_555
N6_6 Cd5 1_555 1_555
C10_6 C12_6 1_555 1_555
C11_6 C13_6 1_555 1_555
N7_7 N8_7 1_555 1_555
N8_7 N9_7 1_555 1_555
N9_7 C13_7 1_555 1_555
Cd5_3 N8_7 1_555 1_555
C11_7 C13_7 1_555 1_555
O5_7 C9_7 1_555 1_555
O6_7 C9_7 1_555 1_555
C9_7 C10_7 1_555 1_555
H11_7 C12_7 1_555 1_555
Cd5_3 O5_7 1_555 1_555
O6_7 Cd5_3 1_555 1_555
C10_7 C12_7 1_555 1_555
O10_2 C3_7 1_555 1_555
O11_2 C3_7 1_555 1_555
C3_7 C4_7 1_555 1_555
C6_7 C4_7 1_555 1_555
H9_7 C6_7 1_555 1_555
N5_7 N14_2 1_555 1_555
C5_7 C7_7 1_555 1_555
N5_7 C7_7 1_555 1_555
O10_3 C3_8 1_555 1_555
O11_3 C3_8 1_555 1_555
C3_8 C4_8 1_555 1_555
C6_8 C4_8 1_555 1_555
H9_8 C6_8 1_555 1_555
N5_8 N14_3 1_555 1_555
C5_8 C7_8 1_555 1_555
N5_8 C7_8 1_555 1_555
N7_8 N8_8 1_555 1_555
N8_8 N9_8 1_555 1_555
N9_8 C13_8 1_555 1_555
Cd5 N8_8 1_555 1_555
C11_8 C13_8 1_555 1_555
O5_8 C9_8 1_555 1_555
O6_8 C9_8 1_555 1_555
C9_8 C10_8 1_555 1_555
H11_8 C12_8 1_555 1_555
Cd5 O5_8 1_555 1_555
O6_8 Cd5 1_555 1_555
C10_8 C12_8 1_555 1_555
O10 C3_9 1_555 1_555
O11 C3_9 1_555 1_555
C3_9 C4_9 1_555 1_555
C6_9 C4_9 1_555 1_555
H9_9 C6_9 1_555 1_555
N6_9 N7_9 1_555 1_555
N7_9 N8_9 1_555 1_555
N8_9 N9_9 1_555 1_555
N9_9 C13_9 1_555 1_555
C11_9 C6_9 1_555 1_555
C13_9 N6_9 1_555 1_555
Cd8_2 N7_9 1_555 1_555
Cd5_2 N8_9 1_555 1_555
C11_9 C13_9 1_555 1_555
N5_9 N14 1_555 1_555
C5_9 C7_9 1_555 1_555
C7_9 N10_5 1_555 1_555
O5_9 C9_9 1_555 1_555
O6_9 C9_9 1_555 1_555
C9_9 C10_9 1_555 1_555
C12_9 C5_9 1_555 1_555
H11_9 C12_9 1_555 1_555
Cd5_2 O5_9 1_555 1_555
Cd7_2 O5_9 1_555 1_555
N5_9 C7_9 1_555 1_555
O6_9 Cd5_2 1_555 1_555
C10_9 C12_9 1_555 1_555
O3_4 Cd5_2 1_555 1_555
C8_4 O3_4 1_555 1_555
H10_4 C8_4 1_555 1_555
O4_4 C8_4 1_555 1_555
O7_7 Cd8_2 1_555 1_555
C14_7 O7_7 1_555 1_555
H12_7 C14_7 1_555 1_555
O8_7 C14_7 1_555 1_555
O3_5 Cd5_3 1_555 1_555
C8_5 O3_5 1_555 1_555
H10_5 C8_5 1_555 1_555
O4_5 C8_5 1_555 1_555
O7_8 Cd8_3 1_555 1_555
C14_8 O7_8 1_555 1_555
H12_8 C14_8 1_555 1_555
O8_8 C14_8 1_555 1_555
O7_9 Cd8 1_555 1_555
C14_9 O7_9 1_555 1_555
H12_9 C14_9 1_555 1_555
O8_9 C14_9 1_555 1_555
O3_6 Cd5 1_555 1_555
C8_6 O3_6 1_555 1_555
H10_6 C8_6 1_555 1_555
O4_6 C8_6 1_555 1_555
O7_10 Cd7 1_555 1_555
C14_10 O7_10 1_555 1_555
H12_10 C14_10 1_555 1_555
O7_11 Cd7_2 1_555 1_555
C14_11 O7_11 1_555 1_555
H12_11 C14_11 1_555 1_555
O7_12 Cd7_3 1_555 1_555
C14_12 O7_12 1_555 1_555
H12_12 C14_12 1_555 1_555

#END
