
###############################################################################
#
# This file contains modified crystal structure data generated from the
# MOF subset of the Cambridge Structural Database (CSD) v543 
# hosted by the Cambridge Crystallographic Data Centre (CCDC).
#
# This work is licensed under the Creative Commons
# Attribution-NonCommercial-ShareAlike 4.0 International License.
# To view a copy of this license, visit
# http://creativecommons.org/licenses/by-nc-sa/4.0/
# or send a letter to
# Creative Commons, PO Box 1866, Mountain View, CA 94042, USA.
#
# CIF created using the CSD Python API on 29 September 2022
# The structure has been converted into the P1 space group
# The structure has a 3D framework
# The original CSD entry OGUZIA is in the triclinic crystal system
# The framework has been calculated to contain at least 10.0% void space
# The void calculation uses a probe of radius 1.32A, grid spacing 0.4
# The framework is charged, counterions have been retained in the structure
# H atom positions have been added when not included in the experimental data
#
###############################################################################

data_OGUZIA
_chemical_formula_moiety         '(C16 H30 O49 P8 Zn10 2-)n'
_symmetry_cell_setting           triclinic
_symmetry_space_group_name_H-M   'P 1'
_symmetry_Int_Tables_number      1
_space_group_name_Hall           'P 1'
loop_
_symmetry_equiv_pos_site_id
_symmetry_equiv_pos_as_xyz
1 x,y,z
_cell_length_a                   10.1800(14)
_cell_length_b                   11.0600(16)
_cell_length_c                   14.0137(15)
_cell_angle_alpha                68.297(4)
_cell_angle_beta                 78.859(5)
_cell_angle_gamma                72.300(7)
_cell_volume                     1390.74
loop_
_atom_site_label
_atom_site_type_symbol
_atom_site_fract_x
_atom_site_fract_y
_atom_site_fract_z
_atom_site_U_iso_or_equiv
_atom_site_thermal_displace_type
Zn3 Zn 0.37564(3) 0.01330(3) 0.17730(2) 0.0126 Uani
Zn4 Zn 0.02476(12) 0.22077(11) 0.48851(10) 0.0112 Uani
P4 P 0.15665(8) 0.47441(7) 0.37991(6) 0.0135 Uani
O1 O 0.3144(3) 0.2111(2) 0.1581(2) 0.0250 Uani
H1 H 0.365(5) 0.238(5) 0.160(4) 0.0480 Uiso
H2 H 0.257(5) 0.269(5) 0.114(4) 0.0480 Uiso
O11 O 0.3285(2) 0.0027(2) 0.05536(17) 0.0208 Uani
O16 O 0.1725(2) 0.0974(2) 0.42081(16) 0.0183 Uani
O18 O 0.0238(2) 0.1596(2) 0.21489(17) 0.0183 Uani
H7 H 0.007(5) 0.218(5) 0.229(4) 0.0510 Uiso
O21 O 0.1270(2) 0.3586(2) 0.47185(16) 0.0202 Uani
O22 O 0.1722(2) 0.5874(2) 0.41544(19) 0.0237 Uani
H8 H 0.259(6) 0.598(5) 0.394(4) 0.0810 Uiso
O23 O 0.2801(2) 0.4346(2) 0.30876(16) 0.0209 Uani
O24 O 0.0161(2) 0.6598(2) 0.21726(18) 0.0216 Uani
H9 H 0.004(5) 0.713(4) 0.241(3) 0.0390 Uiso
C5 C 0.0058(3) 0.0565(3) 0.3103(2) 0.0120 Uani
Zn18 Zn 0.38149(3) 0.50945(3) 0.17641(2) 0.0127 Uani
O28 O 0.3342(2) 0.5058(2) 0.05102(17) 0.0190 Uani
O45 O 0.5808(2) 0.0300(2) 0.15960(18) 0.0188 Uani
H21 H 0.617(5) 0.082(4) 0.155(3) 0.0420 Uiso
O58 O 0.0289(2) 0.0404(2) 0.80698(15) 0.0151 Uani
O60 O 0.0613(3) 0.1502(2) 0.64136(16) 0.0248 Uani
C14 C 0.0308(3) 0.0525(3) 0.7137(2) 0.0125 Uani
H32 H 0.618952 0.00767771 0.0956383 . .
P2 P 0.22200(7) 0.03026(7) 0.98437(5) 0.0092 Uani
O9 O 0.0996(2) 0.15040(18) 0.98740(15) 0.0126 Uani
O13 O 0.4912(2) 0.1866(2) 0.80011(17) 0.0175 Uani
O14 O 0.2805(2) 0.3098(2) 0.82946(17) 0.0171 Uani
C3 C 0.3066(3) 0.0798(3) 0.8525(2) 0.0114 Uani
H11 H 0.241(3) 0.105(3) 0.803(2) 0.0100 Uiso
C4 C 0.3645(3) 0.2000(3) 0.8261(2) 0.0109 Uani
Zn7 Zn 0.07753(3) 0.85376(3) 0.91398(2) 0.0105 Uani
Zn9 Zn 0.07846(3) 0.35199(3) 0.91696(2) 0.0111 Uani
Zn19 Zn 0.61851(3) 0.49055(3) 0.82359(2) 0.0127 Uani
P5 P 0.22506(7) 0.53133(7) 0.98225(5) 0.0088 Uani
O30 O 0.1813(2) 0.40503(19) 0.99914(15) 0.0130 Uani
O32 O 0.1015(2) 0.65048(19) 0.98643(15) 0.0129 Uani
O34 O 0.4158(2) 0.4768(2) 0.83028(19) 0.0197 Uani
H18 H 0.389(5) 0.416(5) 0.838(4) 0.0530 Uiso
O36 O 0.4889(2) 0.69135(19) 0.79784(16) 0.0152 Uani
O38 O 0.2780(2) 0.81305(19) 0.82770(16) 0.0157 Uani
O67 O 0.0668(2) 0.6546(2) 0.64714(17) 0.0240 Uani
O69 O 0.0332(2) 0.5387(2) 0.81084(15) 0.0163 Uani
C9 C 0.3050(3) 0.5829(3) 0.8492(2) 0.0106 Uani
H27 H 0.235(3) 0.613(3) 0.803(2) 0.0080 Uiso
C10 C 0.3618(3) 0.7035(3) 0.8232(2) 0.0110 Uani
C15 C 0.0005(3) 0.4481(3) 0.6894(2) 0.0146 Uani
H30 H 0.078(4) 0.422(3) 0.642(3) 0.0140 Uiso
C16 C 0.0361(3) 0.5544(3) 0.7177(2) 0.0131 Uani
P3 P 0.15964(7) 0.98644(7) 0.38524(6) 0.0123 Uani
O15 O 0.2868(2) 0.9457(2) 0.31540(16) 0.0196 Uani
O17 O 0.1320(2) 0.8654(2) 0.47591(16) 0.0181 Uani
O48 O 0.5088(2) 0.8134(2) 0.19989(17) 0.0175 Uani
H29 H 0.069(4) 0.912(3) 0.644(3) 0.0220 Uiso
O10 O 0.1776(2) 0.90503(19) 0.99925(15) 0.0127 Uani
O12 O 0.4192(2) 0.9700(2) 0.84040(18) 0.0188 Uani
H6 H 0.383(5) 0.918(4) 0.845(3) 0.0420 Uiso
Zn12 Zn 0.62436(3) 0.98670(3) 0.82270(2) 0.0126 Uani
Zn1 Zn 0.92247(3) 0.14624(3) 0.08602(2) 0.0105 Uani
Zn2 Zn 0.92154(3) 0.64801(3) 0.08304(2) 0.0111 Uani
P1 P 0.77494(7) 0.46867(7) 0.01775(5) 0.0088 Uani
O3 O 0.8187(2) 0.59497(19) 0.00086(15) 0.0130 Uani
O5 O 0.8985(2) 0.34952(19) 0.01357(15) 0.0129 Uani
O6 O 0.5842(2) 0.5232(2) 0.16972(19) 0.0197 Uani
H5 H 0.611(5) 0.584(5) 0.162(4) 0.0530 Uiso
O7 O 0.5111(2) 0.30865(19) 0.20216(16) 0.0152 Uani
O8 O 0.7220(2) 0.18695(19) 0.17230(16) 0.0157 Uani
O25 O 0.9332(2) 0.3454(2) 0.35286(17) 0.0240 Uani
O26 O 0.9668(2) 0.4613(2) 0.18916(15) 0.0163 Uani
C1 C 0.6950(3) 0.4171(3) 0.1508(2) 0.0106 Uani
H10 H 0.765(3) 0.387(3) 0.197(2) 0.0080 Uiso
C2 C 0.6382(3) 0.2965(3) 0.1768(2) 0.0110 Uani
H12 H 0.931(4) 0.088(3) 0.356(3) 0.0220 Uiso
C7 C 0.9995(3) 0.5519(3) 0.3106(2) 0.0146 Uani
H13 H 0.922(4) 0.578(3) 0.358(3) 0.0140 Uiso
C8 C 0.9639(3) 0.4456(3) 0.2823(2) 0.0131 Uani
P7 P 0.84036(7) 0.01356(7) 0.61476(6) 0.0123 Uani
O31 O 0.3146(3) 0.7069(2) 0.1598(2) 0.0243 Uani
H16 H 0.379(5) 0.738(5) 0.163(4) 0.0570 Uiso
H17 H 0.269(4) 0.750(4) 0.126(3) 0.0230 Uiso
O41 O 0.9004(2) 0.84960(18) 0.01260(15) 0.0126 Uani
O42 O 0.8224(2) 0.09497(19) 0.00075(15) 0.0127 Uani
O51 O 0.7195(2) 0.6902(2) 0.17054(17) 0.0171 Uani
O52 O 0.7132(2) 0.0543(2) 0.68460(16) 0.0196 Uani
O55 O 0.8680(2) 0.1346(2) 0.52409(16) 0.0181 Uani
O2 O 0.6658(2) 0.4942(2) 0.94898(17) 0.0190 Uani
O4 O 0.6854(3) 0.2931(2) 0.8402(2) 0.0243 Uani
H3 H 0.621(5) 0.262(5) 0.837(4) 0.0570 Uiso
H4 H 0.731(4) 0.250(4) 0.874(3) 0.0230 Uiso
Zn16 Zn 0.97524(12) 0.77923(11) 0.51149(10) 0.0112 Uani
P8 P 0.84335(8) 0.52559(7) 0.62009(6) 0.0135 Uani
O61 O 0.8730(2) 0.6414(2) 0.52815(16) 0.0202 Uani
O63 O 0.8278(2) 0.4126(2) 0.58456(19) 0.0237 Uani
H25 H 0.741(6) 0.402(5) 0.606(4) 0.0810 Uiso
O64 O 0.7199(2) 0.5654(2) 0.69124(16) 0.0209 Uani
O66 O 0.9839(2) 0.3402(2) 0.78274(18) 0.0216 Uani
H26 H 0.996(5) 0.287(4) 0.759(3) 0.0390 Uiso
H31 H 0.38236 0.542595 0.763694 . .
H34 H 0.379128 0.0458438 0.78004 . .
O19 O 0.9711(2) 0.9596(2) 0.19302(15) 0.0151 Uani
O20 O 0.9387(3) 0.8498(2) 0.35864(16) 0.0248 Uani
C6 C 0.9692(3) 0.9475(3) 0.2863(2) 0.0125 Uani
P6 P 0.77800(7) 0.96974(7) 0.01563(5) 0.0092 Uani
O54 O 0.8275(2) 0.9026(2) 0.57919(16) 0.0183 Uani
O56 O 0.9762(2) 0.8404(2) 0.78511(17) 0.0183 Uani
H23 H 0.993(5) 0.782(5) 0.771(4) 0.0510 Uiso
C11 C 0.6934(3) 0.9202(3) 0.1475(2) 0.0114 Uani
H28 H 0.759(3) 0.895(3) 0.197(2) 0.0100 Uiso
C12 C 0.6355(3) 0.8000(3) 0.1739(2) 0.0109 Uani
C13 C 0.9942(3) 0.9435(3) 0.6897(2) 0.0120 Uani
O27 O 0.6856(3) 0.7889(2) 0.8419(2) 0.0250 Uani
H14 H 0.635(5) 0.762(5) 0.840(4) 0.0480 Uiso
H15 H 0.743(5) 0.731(5) 0.886(4) 0.0480 Uiso
O43 O 0.6715(2) 0.9973(2) 0.94464(17) 0.0208 Uani
H33 H 0.996093 0.913562 0.721548 . .
H33_2 H 0.00390724 0.0864377 0.278452 . .
H31_2 H 0.61764 0.457405 0.236306 . .
H34_2 H 0.620872 0.954156 0.21996 . .
H32_2 H 0.381048 0.992322 0.904362 . .
loop_
_atom_site_aniso_label
_atom_site_aniso_U_11
_atom_site_aniso_U_22
_atom_site_aniso_U_33
_atom_site_aniso_U_23
_atom_site_aniso_U_13
_atom_site_aniso_U_12
Zn3 0.0122 0.01372 0.01206 -0.00428 -0.00095 -0.00378
Zn4 0.0113 0.0125 0.0094 -0.0045 0.0016 -0.0029
P4 0.0125 0.0152 0.0115 -0.0027 0 -0.0046
O1 0.026 0.0108 0.0371 -0.0016 -0.0163 -0.0029
O11 0.0165 0.0273 0.0227 -0.0121 -0.0088 -0.0021
O16 0.0145 0.022 0.0202 -0.0087 -0.0007 -0.0057
O18 0.0266 0.0118 0.0161 0.0004 -0.0069 -0.0075
O21 0.023 0.0248 0.0128 -0.0007 -0.0017 -0.0129
O22 0.019 0.0289 0.0303 -0.0164 0.0012 -0.0099
O23 0.0182 0.0218 0.016 -0.0028 0.0042 -0.0038
O24 0.0282 0.014 0.022 -0.002 -0.0062 -0.0069
C5 0.0109 0.015 0.0086 -0.0024 -0.0011 -0.003
Zn18 0.01104 0.01343 0.013 -0.00384 -0.00091 -0.00314
O28 0.0147 0.0239 0.0205 -0.0093 -0.0086 -0.0011
O45 0.0123 0.0154 0.0332 -0.0163 0.0079 -0.0056
O58 0.0179 0.0164 0.0114 -0.0041 -0.003 -0.0046
O60 0.0386 0.0244 0.013 0.0032 -0.0066 -0.0195
C14 0.0102 0.0128 0.0138 -0.0029 -0.0026 -0.0031
P2 0.0069 0.0098 0.0106 -0.0044 -0.0007 -0.0006
O9 0.0097 0.0081 0.015 -0.0031 0.0062 -0.0009
O13 0.0086 0.0142 0.0299 -0.0089 0.0022 -0.0037
O14 0.012 0.0139 0.0252 -0.0095 0.0047 -0.0034
C3 0.0081 0.0139 0.0149 -0.0088 0.0001 -0.0023
C4 0.0119 0.0131 0.0097 -0.0064 0.0007 -0.0037
Zn7 0.00869 0.00978 0.01125 -0.00213 0.00043 -0.00229
Zn9 0.00955 0.00973 0.01201 -0.00188 0.00054 -0.00262
Zn19 0.01104 0.01343 0.013 -0.00384 -0.00091 -0.00314
P5 0.0064 0.0088 0.0103 -0.0033 -0.0009 -0.0005
O30 0.0145 0.0105 0.0136 -0.0023 -0.0035 -0.0035
O32 0.0091 0.0097 0.015 -0.0024 0.0037 -0.0008
O34 0.011 0.0159 0.0369 -0.0187 0.0094 -0.0049
O36 0.0075 0.0141 0.0243 -0.0067 0.0012 -0.0044
O38 0.0114 0.012 0.0235 -0.0085 0.0047 -0.0033
O67 0.0315 0.021 0.018 0.0066 -0.0102 -0.0162
O69 0.0204 0.0137 0.0138 -0.0026 -0.0042 -0.0037
C9 0.0056 0.0112 0.0166 -0.0092 0.0011 0.0001
C10 0.012 0.0116 0.0085 -0.0023 0.0003 -0.0038
C15 0.0142 0.0129 0.0142 -0.0036 -0.0001 -0.0017
C16 0.0097 0.0135 0.0128 -0.0004 -0.0034 -0.0018
P3 0.0096 0.0161 0.0095 -0.0024 0.0003 -0.0039
O15 0.0144 0.0219 0.0156 -0.0032 0.0034 -0.0018
O17 0.0145 0.0238 0.0124 0.0004 -0.001 -0.0079
O48 0.0086 0.0142 0.0299 -0.0089 0.0022 -0.0037
O10 0.0139 0.0101 0.0134 -0.0035 -0.001 -0.0029
O12 0.0123 0.0154 0.0332 -0.0163 0.0079 -0.0056
Zn12 0.0122 0.01372 0.01206 -0.00428 -0.00095 -0.00378
Zn1 0.00869 0.00978 0.01125 -0.00213 0.00043 -0.00229
Zn2 0.00955 0.00973 0.01201 -0.00188 0.00054 -0.00262
P1 0.0064 0.0088 0.0103 -0.0033 -0.0009 -0.0005
O3 0.0145 0.0105 0.0136 -0.0023 -0.0035 -0.0035
O5 0.0091 0.0097 0.015 -0.0024 0.0037 -0.0008
O6 0.011 0.0159 0.0369 -0.0187 0.0094 -0.0049
O7 0.0075 0.0141 0.0243 -0.0067 0.0012 -0.0044
O8 0.0114 0.012 0.0235 -0.0085 0.0047 -0.0033
O25 0.0315 0.021 0.018 0.0066 -0.0102 -0.0162
O26 0.0204 0.0137 0.0138 -0.0026 -0.0042 -0.0037
C1 0.0056 0.0112 0.0166 -0.0092 0.0011 0.0001
C2 0.012 0.0116 0.0085 -0.0023 0.0003 -0.0038
C7 0.0142 0.0129 0.0142 -0.0036 -0.0001 -0.0017
C8 0.0097 0.0135 0.0128 -0.0004 -0.0034 -0.0018
P7 0.0096 0.0161 0.0095 -0.0024 0.0003 -0.0039
O31 0.0233 0.0144 0.0357 -0.0038 -0.0145 -0.0039
O41 0.0097 0.0081 0.015 -0.0031 0.0062 -0.0009
O42 0.0139 0.0101 0.0134 -0.0035 -0.001 -0.0029
O51 0.012 0.0139 0.0252 -0.0095 0.0047 -0.0034
O52 0.0144 0.0219 0.0156 -0.0032 0.0034 -0.0018
O55 0.0145 0.0238 0.0124 0.0004 -0.001 -0.0079
O2 0.0147 0.0239 0.0205 -0.0093 -0.0086 -0.0011
O4 0.0233 0.0144 0.0357 -0.0038 -0.0145 -0.0039
Zn16 0.0113 0.0125 0.0094 -0.0045 0.0016 -0.0029
P8 0.0125 0.0152 0.0115 -0.0027 0 -0.0046
O61 0.023 0.0248 0.0128 -0.0007 -0.0017 -0.0129
O63 0.019 0.0289 0.0303 -0.0164 0.0012 -0.0099
O64 0.0182 0.0218 0.016 -0.0028 0.0042 -0.0038
O66 0.0282 0.014 0.022 -0.002 -0.0062 -0.0069
O19 0.0179 0.0164 0.0114 -0.0041 -0.003 -0.0046
O20 0.0386 0.0244 0.013 0.0032 -0.0066 -0.0195
C6 0.0102 0.0128 0.0138 -0.0029 -0.0026 -0.0031
P6 0.0069 0.0098 0.0106 -0.0044 -0.0007 -0.0006
O54 0.0145 0.022 0.0202 -0.0087 -0.0007 -0.0057
O56 0.0266 0.0118 0.0161 0.0004 -0.0069 -0.0075
C11 0.0081 0.0139 0.0149 -0.0088 0.0001 -0.0023
C12 0.0119 0.0131 0.0097 -0.0064 0.0007 -0.0037
C13 0.0109 0.015 0.0086 -0.0024 -0.0011 -0.003
O27 0.026 0.0108 0.0371 -0.0016 -0.0163 -0.0029
O43 0.0165 0.0273 0.0227 -0.0121 -0.0088 -0.0021
loop_
_geom_bond_atom_site_label_1
_geom_bond_atom_site_label_2
_geom_bond_site_symmetry_1
_geom_bond_site_symmetry_2
Zn3 O1 1_555 1_555
Zn4 O16 1_555 1_555
P4 O21 1_555 1_555
O1 H1 1_555 1_555
H2 O1 1_555 1_555
O11 Zn3 1_555 1_555
H7 O18 1_555 1_555
O21 Zn4 1_555 1_555
O22 P4 1_555 1_555
H8 O22 1_555 1_555
O23 P4 1_555 1_555
O24 H9 1_555 1_555
Zn18 O23 1_555 1_555
O28 Zn18 1_555 1_555
O45 Zn3 1_555 1_555
H21 O45 1_555 1_555
O60 Zn4 1_555 1_555
C14 O58 1_555 1_555
O18 C5 1_555 1_555
O60 C14 1_555 1_555
O45 H32 1_555 1_555
P2 O9 1_555 1_555
O13 C4 1_555 1_555
O14 C4 1_555 1_555
C3 P2 1_555 1_555
H11 C3 1_555 1_555
C4 C3 1_555 1_555
Zn7 O32 1_555 1_555
Zn19 O34 1_555 1_555
O30 Zn9 1_555 1_555
O34 H18 1_555 1_555
O36 Zn19 1_555 1_555
O38 Zn7 1_555 1_555
O69 Zn9 1_555 1_555
C9 P5 1_555 1_555
H27 C9 1_555 1_555
C10 O36 1_555 1_555
H30 C15 1_555 1_555
C16 O67 1_555 1_555
O9 Zn9 1_555 1_555
O14 Zn9 1_555 1_555
P5 O30 1_555 1_555
P5 O32 1_555 1_555
O34 C9 1_555 1_555
O38 C10 1_555 1_555
O69 C16 1_555 1_555
C9 C10 1_555 1_555
C15 C16 1_555 1_555
P3 O15 1_555 1_555
O17 P3 1_555 1_555
O12 H6 1_555 1_555
Zn7 O10 1_555 1_555
Zn12 O12 1_555 1_555
Zn1 O5 1_555 1_555
Zn2 O3 1_555 1_555
O3 P1 1_555 1_555
O5 P1 1_555 1_555
O6 H5 1_555 1_555
O7 C2 1_555 1_555
O8 Zn1 1_555 1_555
O26 Zn2 1_555 1_555
C1 P1 1_555 1_555
H10 C1 1_555 1_555
C2 O8 1_555 1_555
H13 C7 1_555 1_555
C8 O25 1_555 1_555
Zn18 O6 1_555 1_555
P7 O52 1_555 1_555
O31 Zn18 1_555 1_555
H16 O31 1_555 1_555
H17 O31 1_555 1_555
O41 Zn2 1_555 1_555
O42 Zn1 1_555 1_555
O51 Zn2 1_555 1_555
O6 C1 1_555 1_555
O7 Zn18 1_555 1_555
O26 C8 1_555 1_555
C1 C2 1_555 1_555
C7 C8 1_555 1_555
P7 O55 1_555 1_555
Zn19 O2 1_555 1_555
O4 Zn19 1_555 1_555
H3 O4 1_555 1_555
H4 O4 1_555 1_555
Zn16 O61 1_555 1_555
P8 O61 1_555 1_555
O63 P8 1_555 1_555
H25 O63 1_555 1_555
O64 Zn19 1_555 1_555
O66 H26 1_555 1_555
P8 O64 1_555 1_555
O34 H31 1_555 1_555
O20 C6 1_555 1_555
C6 O19 1_555 1_555
P6 O41 1_555 1_555
O54 Zn16 1_555 1_555
O56 H23 1_555 1_555
C11 P6 1_555 1_555
H28 C11 1_555 1_555
C12 O48 1_555 1_555
O20 Zn16 1_555 1_555
O51 C12 1_555 1_555
O56 C13 1_555 1_555
C11 C12 1_555 1_555
Zn12 O27 1_555 1_555
O27 H14 1_555 1_555
H15 O27 1_555 1_555
O43 Zn12 1_555 1_555
O56 H33 1_555 1_555
O18 H33_2 1_555 1_555
O6 H31_2 1_555 1_555
O12 H32_2 1_555 1_555

#END
