
###############################################################################
#
# This file contains modified crystal structure data generated from the
# MOF subset of the Cambridge Structural Database (CSD) v543 
# hosted by the Cambridge Crystallographic Data Centre (CCDC).
#
# This work is licensed under the Creative Commons
# Attribution-NonCommercial-ShareAlike 4.0 International License.
# To view a copy of this license, visit
# http://creativecommons.org/licenses/by-nc-sa/4.0/
# or send a letter to
# Creative Commons, PO Box 1866, Mountain View, CA 94042, USA.
#
# CIF created using the CSD Python API on 29 September 2022
# The structure has been converted into the P1 space group
# The structure has a 3D framework
# The original CSD entry OHAFUA is in the rhombohedral crystal system
# The framework has been calculated to contain at least 10.0% void space
# The void calculation uses a probe of radius 1.32A, grid spacing 0.4
#
###############################################################################

data_OHAFUA
_chemical_formula_moiety         '(C360 H234 Cu14 N54 O90)n'
_symmetry_cell_setting           triclinic
_symmetry_space_group_name_H-M   'P 1'
_symmetry_Int_Tables_number      1
_space_group_name_Hall           'P 1'
loop_
_symmetry_equiv_pos_site_id
_symmetry_equiv_pos_as_xyz
1 x,y,z
_cell_length_a                   18.5000
_cell_length_b                   18.5000
_cell_length_c                   48.6000
_cell_angle_alpha                90
_cell_angle_beta                 90
_cell_angle_gamma                120
_cell_volume                     14404.9
loop_
_atom_site_label
_atom_site_type_symbol
_atom_site_fract_x
_atom_site_fract_y
_atom_site_fract_z
Cu2 Cu 0.03646 0.51929 0.47523
N1 N 0.84659 0.70413 0.41591
N2 N 0.78423 0.69596 0.40229
Cu1 Cu 0.48071 0.51717 0.47523
N3 N 0.86026 0.74457 0.22890
O1 O 0.89939 0.52356 0.51155
O2 O 0.61880 0.51187 0.50868
O3 O 0.58638 0.54227 0.46816
C1 C 0.78626 0.73567 0.37720
C2 C 0.82849 0.66105 0.44167
O4 O 0.96297 0.55575 0.47157
C3 C 0.90993 0.55512 0.48774
C4 C 0.63852 0.54032 0.48453
C5 C 0.70967 0.72038 0.36667
C6 C 0.86076 0.79127 0.36392
C7 C 0.70676 0.76146 0.34324
H1 H 0.65204 0.67733 0.37701
C8 C 0.85789 0.83233 0.34020
H2 H 0.92039 0.80351 0.37199
H3 H 0.64704 0.74891 0.33519
H4 H 0.91609 0.87544 0.33030
C9 C 0.78029 0.81810 0.33000
O5 O 0.77323 0.85725 0.30761
C10 C 0.83362 0.89739 0.28797
C11 C 0.84729 0.83690 0.27112
H5 H 0.89228 0.94601 0.29769
C12 C 0.92066 0.86662 0.25600
C13 C 0.78415 0.75413 0.26714
C14 C 0.92592 0.82076 0.23448
H6 H 0.97187 0.92643 0.25961
C15 C 0.79351 0.70763 0.24636
H7 H 0.72647 0.72712 0.27872
C16 C 0.88438 0.64156 0.45422
C17 C 0.74967 0.63086 0.45326
C18 C 0.85883 0.58842 0.47751
H8 H 0.94551 0.66444 0.44520
C19 C 0.72388 0.57645 0.47547
H9 H 0.70663 0.64786 0.44428
C20 C 0.77898 0.55705 0.48826
H10 H 0.75812 0.51370 0.50539
H11 H 0.97955 0.84893 0.22102
H12 H 0.74361 0.64462 0.24299
H13 H 0.81142 0.92930 0.27386
Cu3 Cu 0.51929 0.48283 0.52477
Cu4 Cu 0.96354 0.48071 0.52477
Cu5 Cu 0.85050 0.70313 0.19144
N4 N 0.44902 0.52693 0.43777
O6 O 0.52356 0.62417 0.48845
O7 O 0.38120 0.48813 0.49132
O8 O 0.44425 0.40722 0.47157
N1_2 N 0.29587 0.14246 0.41591
N2_2 N 0.30404 0.08827 0.40229
N3_2 N 0.25543 0.11569 0.22890
O1_2 O 0.47644 0.37583 0.51155
O2_2 O 0.48813 0.10693 0.50868
O3_2 O 0.45773 0.04411 0.46816
C1_2 C 0.26433 0.05059 0.37720
C2_2 C 0.33895 0.16744 0.44167
C3_2 C 0.44488 0.35481 0.48774
C4_2 C 0.45968 0.09820 0.48453
C6_2 C 0.20873 0.06949 0.36392
C8_2 C 0.16767 0.02556 0.34020
H2_2 H 0.19649 0.11688 0.37199
H4_2 H 0.12456 0.04065 0.33030
C11_2 C 0.16310 0.01039 0.27112
C12_2 C 0.13338 0.05404 0.25600
C13_2 C 0.24587 0.03002 0.26714
C14_2 C 0.17924 0.10516 0.23448
H6_2 H 0.07357 0.04544 0.25961
C15_2 C 0.29237 0.08588 0.24636
C16_2 C 0.35844 0.24282 0.45422
C17_2 C 0.36914 0.11881 0.45326
C18_2 C 0.41158 0.27041 0.47751
H8_2 H 0.33556 0.28107 0.44520
C19_2 C 0.42355 0.14743 0.47547
H9_2 H 0.35214 0.05877 0.44428
C20_2 C 0.44295 0.22193 0.48826
H10_2 H 0.48630 0.24442 0.50539
H11_2 H 0.15107 0.13062 0.22102
H12_2 H 0.35538 0.09899 0.24299
Cu3_2 Cu 0.51717 0.03646 0.52477
Cu5_2 Cu 0.29687 0.14738 0.19144
O8_2 O 0.59278 0.03703 0.47157
Cu1_2 Cu 0.48283 0.96354 0.47523
C5_2 C 0.27962 0.98929 0.36667
C7_2 C 0.23854 0.94530 0.34324
H1_2 H 0.32267 0.97471 0.37701
H3_2 H 0.25109 0.89813 0.33519
C9_2 C 0.18190 0.96219 0.33000
O5_2 O 0.14275 0.91598 0.30761
C10_2 C 0.10261 0.93623 0.28797
H5_2 H 0.05399 0.94627 0.29769
H7_2 H 0.27288 0.99935 0.27872
H13_2 H 0.07070 0.88212 0.27386
N4_2 N 0.47307 0.92210 0.43777
O6_2 O 0.37583 0.89939 0.48845
O7_2 O 0.51187 0.89307 0.49132
C5_3 C 0.01071 0.29033 0.36667
C7_3 C 0.05470 0.29324 0.34324
H1_3 H 0.02529 0.34796 0.37701
H3_3 H 0.10187 0.35296 0.33519
C9_3 C 0.03781 0.21971 0.33000
O5_3 O 0.08402 0.22677 0.30761
C10_3 C 0.06377 0.16638 0.28797
H5_3 H 0.05373 0.10772 0.29769
H7_3 H 0.00065 0.27353 0.27872
H13_3 H 0.11788 0.18858 0.27386
N4_3 N 0.07790 0.55098 0.43777
O6_3 O 0.10061 0.47644 0.48845
O7_3 O 0.10693 0.61880 0.49132
N1_3 N 0.85754 0.15341 0.41591
N2_3 N 0.91173 0.21577 0.40229
N3_3 N 0.88431 0.13974 0.22890
O1_3 O 0.62417 0.10061 0.51155
O2_3 O 0.89307 0.38120 0.50868
O3_3 O 0.95589 0.41362 0.46816
C1_3 C 0.94941 0.21374 0.37720
C2_3 C 0.83256 0.17151 0.44167
C3_3 C 0.64519 0.09007 0.48774
C4_3 C 0.90180 0.36148 0.48453
C6_3 C 0.93051 0.13924 0.36392
C8_3 C 0.97444 0.14211 0.34020
H2_3 H 0.88312 0.07961 0.37199
H4_3 H 0.95935 0.08391 0.33030
C11_3 C 0.98961 0.15271 0.27112
C12_3 C 0.94596 0.07934 0.25600
C13_3 C 0.96998 0.21585 0.26714
C14_3 C 0.89484 0.07408 0.23448
H6_3 H 0.95456 0.02813 0.25961
C15_3 C 0.91412 0.20649 0.24636
C16_3 C 0.75718 0.11562 0.45422
C17_3 C 0.88119 0.25033 0.45326
C18_3 C 0.72959 0.14117 0.47751
H8_3 H 0.71893 0.05449 0.44520
C19_3 C 0.85257 0.27612 0.47547
H9_3 H 0.94123 0.29337 0.44428
C20_3 C 0.77807 0.22102 0.48826
H10_3 H 0.75558 0.24188 0.50539
H11_3 H 0.86938 0.02045 0.22102
H12_3 H 0.90101 0.25639 0.24299
Cu5_3 Cu 0.85262 0.14950 0.19144
N1_4 N 0.51326 0.03746 0.74924
N2_4 N 0.45090 0.02929 0.73562
N3_4 N 0.52693 0.07790 0.56223
C1_4 C 0.45293 0.06900 0.71053
C5_4 C 0.37634 0.05371 0.70000
C6_4 C 0.52743 0.12460 0.69725
C7_4 C 0.37343 0.09479 0.67657
H1_4 H 0.31871 0.01066 0.71034
C8_4 C 0.52456 0.16566 0.67353
H2_4 H 0.58706 0.13684 0.70532
H3_4 H 0.31371 0.08224 0.66852
H4_4 H 0.58276 0.20877 0.66363
C9_4 C 0.44696 0.15143 0.66333
O5_4 O 0.43990 0.19058 0.64094
C10_4 C 0.50029 0.23072 0.62130
C11_4 C 0.51396 0.17023 0.60445
H5_4 H 0.55895 0.27934 0.63102
C12_4 C 0.58733 0.19995 0.58933
C13_4 C 0.45082 0.08746 0.60047
C14_4 C 0.59259 0.15409 0.56781
H6_4 H 0.63854 0.25976 0.59294
C15_4 C 0.46018 0.04096 0.57969
H7_4 H 0.39314 0.06045 0.61205
H11_4 H 0.64622 0.18226 0.55435
H13_4 H 0.47809 0.26263 0.60719
Cu1_3 Cu 0.14738 0.85050 0.80856
O1_4 O 0.56606 0.85689 0.84488
O2_4 O 0.28547 0.84520 0.84201
O3_4 O 0.25305 0.87560 0.80149
C2_4 C 0.49516 0.99438 0.77500
O4_2 O 0.62964 0.88908 0.80490
C3_4 C 0.57660 0.88845 0.82107
C4_4 C 0.30519 0.87365 0.81786
C16_4 C 0.55105 0.97489 0.78755
C17_4 C 0.41634 0.96419 0.78659
C18_4 C 0.52550 0.92175 0.81084
H8_4 H 0.61218 0.99777 0.77853
C19_4 C 0.39055 0.90978 0.80880
H9_4 H 0.37330 0.98119 0.77761
C20_4 C 0.44565 0.89038 0.82159
H10_4 H 0.42479 0.84703 0.83872
H12_4 H 0.41028 0.97795 0.57632
Cu2_2 Cu 0.70313 0.85262 0.80856
Cu3_3 Cu 0.18596 0.81616 0.85810
Cu4_2 Cu 0.63021 0.81404 0.85810
N4_4 N 0.11569 0.86026 0.77110
O6_4 O 0.19023 0.95750 0.82178
O7_4 O 0.04787 0.82146 0.82465
O8_3 O 0.11092 0.74055 0.80490
Cu1_4 Cu 0.14950 0.29687 0.80856
O1_5 O 0.14311 0.70916 0.84488
O2_5 O 0.15480 0.44026 0.84201
O3_5 O 0.12440 0.37744 0.80149
C2_5 C 0.00562 0.50077 0.77500
C3_5 C 0.11155 0.68814 0.82107
C4_5 C 0.12635 0.43153 0.81786
C16_5 C 0.02511 0.57615 0.78755
C17_5 C 0.03581 0.45214 0.78659
C18_5 C 0.07825 0.60374 0.81084
H8_5 H 0.00223 0.61440 0.77853
C19_5 C 0.09022 0.48076 0.80880
H9_5 H 0.01881 0.39210 0.77761
C20_5 C 0.10962 0.55526 0.82159
H10_5 H 0.15297 0.57775 0.83872
H12_5 H 0.02205 0.43232 0.57632
Cu3_4 Cu 0.18384 0.36979 0.85810
N4_5 N 0.13974 0.25543 0.77110
O6_5 O 0.04250 0.23272 0.82178
O7_5 O 0.17854 0.22640 0.82465
O8_4 O 0.25945 0.37036 0.80490
N1_5 N 0.96254 0.47579 0.74924
N2_5 N 0.97071 0.42160 0.73562
N3_5 N 0.92210 0.44902 0.56223
C1_5 C 0.93100 0.38392 0.71053
C5_5 C 0.94629 0.32262 0.70000
C6_5 C 0.87540 0.40282 0.69725
C7_5 C 0.90521 0.27863 0.67657
H1_5 H 0.98934 0.30804 0.71034
C8_5 C 0.83434 0.35889 0.67353
H2_5 H 0.86316 0.45021 0.70532
H3_5 H 0.91776 0.23146 0.66852
H4_5 H 0.79123 0.37398 0.66363
C9_5 C 0.84857 0.29552 0.66333
O5_5 O 0.80942 0.24931 0.64094
C10_5 C 0.76928 0.26956 0.62130
C11_5 C 0.82977 0.34372 0.60445
H5_5 H 0.72066 0.27960 0.63102
C12_5 C 0.80005 0.38737 0.58933
C13_5 C 0.91254 0.36335 0.60047
C14_5 C 0.84591 0.43849 0.56781
H6_5 H 0.74024 0.37877 0.59294
C15_5 C 0.95904 0.41921 0.57969
H7_5 H 0.93955 0.33268 0.61205
H11_5 H 0.81774 0.46395 0.55435
H13_5 H 0.73737 0.21545 0.60719
N1_6 N 0.52421 0.48674 0.74924
N2_6 N 0.57840 0.54910 0.73562
N3_6 N 0.55098 0.47307 0.56223
O1_6 O 0.29084 0.43394 0.84488
O2_6 O 0.55974 0.71453 0.84201
O3_6 O 0.62256 0.74695 0.80149
C1_6 C 0.61608 0.54707 0.71053
C2_6 C 0.49923 0.50484 0.77500
C3_6 C 0.31186 0.42340 0.82107
C4_6 C 0.56847 0.69481 0.81786
C5_6 C 0.67738 0.62366 0.70000
C6_6 C 0.59718 0.47257 0.69725
C7_6 C 0.72137 0.62657 0.67657
H1_6 H 0.69196 0.68129 0.71034
C8_6 C 0.64111 0.47544 0.67353
H2_6 H 0.54979 0.41294 0.70532
H3_6 H 0.76854 0.68629 0.66852
H4_6 H 0.62602 0.41724 0.66363
C9_6 C 0.70448 0.55304 0.66333
O5_6 O 0.75069 0.56010 0.64094
C10_6 C 0.73044 0.49971 0.62130
C11_6 C 0.65628 0.48604 0.60445
H5_6 H 0.72040 0.44105 0.63102
C12_6 C 0.61263 0.41267 0.58933
C13_6 C 0.63665 0.54918 0.60047
C14_6 C 0.56151 0.40741 0.56781
H6_6 H 0.62123 0.36146 0.59294
C15_6 C 0.58079 0.53982 0.57969
H7_6 H 0.66732 0.60686 0.61205
C16_6 C 0.42385 0.44895 0.78755
C17_6 C 0.54786 0.58366 0.78659
C18_6 C 0.39626 0.47450 0.81084
H8_6 H 0.38560 0.38782 0.77853
C19_6 C 0.51924 0.60945 0.80880
H9_6 H 0.60790 0.62670 0.77761
C20_6 C 0.44474 0.55435 0.82159
H10_6 H 0.42225 0.57521 0.83872
H11_6 H 0.53605 0.35378 0.55435
H12_6 H 0.56768 0.58972 0.57632
H13_6 H 0.78455 0.52191 0.60719
N4_6 N 0.74457 0.88431 0.77110
O6_6 O 0.76728 0.80977 0.82178
O7_6 O 0.77360 0.95213 0.82465
N1_7 N 0.17992 0.37080 0.08258
N2_7 N 0.11756 0.36263 0.06896
O1_7 O 0.23272 0.19023 0.17822
C1_7 C 0.11959 0.40234 0.04387
C2_7 C 0.16182 0.32772 0.10834
O4_3 O 0.29630 0.22242 0.13824
C3_7 C 0.24326 0.22179 0.15441
C5_7 C 0.04300 0.38705 0.03334
C6_7 C 0.19409 0.45794 0.03059
C7_7 C 0.04009 0.42813 0.00991
C8_7 C 0.19122 0.49900 0.00687
H2_7 H 0.25372 0.47018 0.03866
C16_7 C 0.21771 0.30823 0.12089
C17_7 C 0.08300 0.29753 0.11993
C18_7 C 0.19216 0.25509 0.14418
H8_7 H 0.27884 0.33111 0.11187
C19_7 C 0.05721 0.24312 0.14214
H9_7 H 0.03996 0.31453 0.11095
C20_7 C 0.11231 0.22372 0.15493
H10_7 H 0.09145 0.18037 0.17206
Cu2_3 Cu 0.36979 0.18596 0.14190
N3_7 N 0.19359 0.41124 0.89557
H4_7 H 0.24942 0.54211 0.99697
C9_7 C 0.11362 0.48477 0.99667
O5_7 O 0.10656 0.52392 0.97428
C10_7 C 0.16695 0.56406 0.95464
C11_7 C 0.18062 0.50357 0.93779
H5_7 H 0.22561 0.61268 0.96436
C12_7 C 0.25399 0.53329 0.92267
C13_7 C 0.11748 0.42080 0.93381
C14_7 C 0.25925 0.48743 0.90115
H6_7 H 0.30520 0.59310 0.92628
C15_7 C 0.12684 0.37430 0.91303
H7_7 H 0.05980 0.39379 0.94539
H11_7 H 0.31288 0.51560 0.88769
H12_7 H 0.07694 0.31129 0.90966
H13_7 H 0.14475 0.59597 0.94053
Cu1_5 Cu 0.81404 0.18384 0.14190
O2_7 O 0.95213 0.17854 0.17535
O3_7 O 0.91971 0.20894 0.13483
C4_7 C 0.97185 0.20699 0.15120
H1_7 H 0.98537 0.34400 0.04368
H3_7 H 0.98037 0.41558 0.00186
N4_7 N 0.78236 0.19359 0.10443
O6_7 O 0.85689 0.29084 0.15512
O7_7 O 0.71453 0.15480 0.15799
O8_5 O 0.77758 0.07389 0.13824
O1_8 O 0.80977 0.04250 0.17822
C3_8 C 0.77821 0.02148 0.15441
N1_8 N 0.62920 0.80913 0.08258
N2_8 N 0.63737 0.75494 0.06896
Cu1_6 Cu 0.81616 0.63021 0.14190
O2_8 O 0.82146 0.77360 0.17535
O3_8 O 0.79106 0.71078 0.13483
C1_8 C 0.59766 0.71726 0.04387
C2_8 C 0.67228 0.83411 0.10834
C4_8 C 0.79301 0.76487 0.15120
C5_8 C 0.61295 0.65596 0.03334
C6_8 C 0.54206 0.73616 0.03059
C7_8 C 0.57187 0.61197 0.00991
H1_8 H 0.65600 0.64138 0.04368
C8_8 C 0.50100 0.69223 0.00687
H2_8 H 0.52982 0.78355 0.03866
H3_8 H 0.58442 0.56480 0.00186
C16_8 C 0.69177 0.90949 0.12089
C17_8 C 0.70247 0.78548 0.11993
C18_8 C 0.74491 0.93708 0.14418
H8_8 H 0.66889 0.94774 0.11187
C19_8 C 0.75688 0.81410 0.14214
H9_8 H 0.68547 0.72544 0.11095
C20_8 C 0.77628 0.88860 0.15493
H10_8 H 0.81963 0.91109 0.17206
N4_8 N 0.80641 0.58876 0.10443
O6_8 O 0.70916 0.56606 0.15512
O7_8 O 0.84520 0.55974 0.15799
O8_6 O 0.92611 0.70370 0.13824
N3_8 N 0.58876 0.78236 0.89557
H4_8 H 0.45789 0.70732 0.99697
C9_8 C 0.51523 0.62886 0.99667
O5_8 O 0.47608 0.58265 0.97428
C10_8 C 0.43594 0.60290 0.95464
C11_8 C 0.49643 0.67706 0.93779
H5_8 H 0.38732 0.61294 0.96436
C12_8 C 0.46671 0.72071 0.92267
C13_8 C 0.57920 0.69669 0.93381
C14_8 C 0.51257 0.77183 0.90115
H6_8 H 0.40690 0.71211 0.92628
C15_8 C 0.62570 0.75255 0.91303
H7_8 H 0.60621 0.66602 0.94539
H11_8 H 0.48440 0.79729 0.88769
H12_8 H 0.68871 0.76566 0.90966
H13_8 H 0.40403 0.54879 0.94053
O2_9 O 0.22640 0.04787 0.17535
O3_9 O 0.28922 0.08029 0.13483
C4_9 C 0.23513 0.02815 0.15120
H1_9 H 0.35862 0.01463 0.04368
H3_9 H 0.43520 0.01963 0.00186
N4_9 N 0.41124 0.21764 0.10443
O6_9 O 0.43394 0.14311 0.15512
O7_9 O 0.44026 0.28547 0.15799
N3_9 N 0.21764 0.80641 0.89557
H4_9 H 0.29268 0.75058 0.99697
C9_9 C 0.37114 0.88638 0.99667
O5_9 O 0.41735 0.89344 0.97428
C10_9 C 0.39710 0.83305 0.95464
C11_9 C 0.32294 0.81938 0.93779
H5_9 H 0.38706 0.77439 0.96436
C12_9 C 0.27929 0.74601 0.92267
C13_9 C 0.30331 0.88252 0.93381
C14_9 C 0.22817 0.74075 0.90115
H6_9 H 0.28789 0.69480 0.92628
C15_9 C 0.24745 0.87316 0.91303
H7_9 H 0.33398 0.94020 0.94539
H11_9 H 0.20271 0.68712 0.88769
H12_9 H 0.23434 0.92306 0.90966
H13_9 H 0.45121 0.85525 0.94053
O1_9 O 0.95750 0.76728 0.17822
C3_9 C 0.97852 0.75674 0.15441
N1_9 N 0.15341 0.29587 0.58409
N2_9 N 0.21577 0.30404 0.59771
O3_10 O 0.41362 0.45773 0.53184
C1_9 C 0.21374 0.26433 0.62280
C2_9 C 0.17151 0.33895 0.55833
O4_4 O 0.03703 0.44425 0.52843
C3_10 C 0.09007 0.44488 0.51226
C4_10 C 0.36148 0.45968 0.51547
C5_9 C 0.29033 0.27962 0.63333
C6_9 C 0.13924 0.20873 0.63608
C7_9 C 0.29324 0.23854 0.65676
H1_10 H 0.34796 0.32267 0.62299
C8_9 C 0.14211 0.16767 0.65980
H2_9 H 0.07961 0.19649 0.62801
H3_10 H 0.35296 0.25109 0.66481
H4_10 H 0.08391 0.12456 0.66970
C9_10 C 0.21971 0.18190 0.67000
O5_10 O 0.22677 0.14275 0.69239
C10_10 C 0.16638 0.10261 0.71203
C11_10 C 0.15271 0.16310 0.72888
H5_10 H 0.10772 0.05399 0.70231
C12_10 C 0.07934 0.13338 0.74400
C13_10 C 0.21585 0.24587 0.73286
C14_10 C 0.07408 0.17924 0.76552
H6_10 H 0.02813 0.07357 0.74039
C15_10 C 0.20649 0.29237 0.75364
H7_10 H 0.27353 0.27288 0.72128
C16_9 C 0.11562 0.35844 0.54578
C17_9 C 0.25033 0.36914 0.54674
C18_9 C 0.14117 0.41158 0.52249
H8_9 H 0.05449 0.33556 0.55480
C19_9 C 0.27612 0.42355 0.52453
H9_9 H 0.29337 0.35214 0.55572
C20_9 C 0.22102 0.44295 0.51174
H10_9 H 0.24188 0.48630 0.49461
H11_10 H 0.02045 0.15107 0.77898
H12_10 H 0.25639 0.35538 0.75701
H13_10 H 0.18858 0.07070 0.72614
O8_7 O 0.55575 0.59278 0.52843
C5_10 C 0.72038 0.01071 0.63333
C7_10 C 0.76146 0.05470 0.65676
H1_11 H 0.67733 0.02529 0.62299
H3_11 H 0.74891 0.10187 0.66481
C9_11 C 0.81810 0.03781 0.67000
O5_11 O 0.85725 0.08402 0.69239
C10_11 C 0.89739 0.06377 0.71203
H5_11 H 0.94601 0.05373 0.70231
H7_11 H 0.72712 0.00065 0.72128
H13_11 H 0.92930 0.11788 0.72614
N1_10 N 0.70413 0.85754 0.58409
N2_10 N 0.69596 0.91173 0.59771
O3_11 O 0.54227 0.95589 0.53184
C1_10 C 0.73567 0.94941 0.62280
C2_10 C 0.66105 0.83256 0.55833
C3_11 C 0.55512 0.64519 0.51226
C4_11 C 0.54032 0.90180 0.51547
C6_10 C 0.79127 0.93051 0.63608
C8_10 C 0.83233 0.97444 0.65980
H2_10 H 0.80351 0.88312 0.62801
H4_11 H 0.87544 0.95935 0.66970
C11_11 C 0.83690 0.98961 0.72888
C12_11 C 0.86662 0.94596 0.74400
C13_11 C 0.75413 0.96998 0.73286
C14_11 C 0.82076 0.89484 0.76552
H6_11 H 0.92643 0.95456 0.74039
C15_11 C 0.70763 0.91412 0.75364
C16_10 C 0.64156 0.75718 0.54578
C17_10 C 0.63086 0.88119 0.54674
C18_10 C 0.58842 0.72959 0.52249
H8_10 H 0.66444 0.71893 0.55480
C19_10 C 0.57645 0.85257 0.52453
H9_10 H 0.64786 0.94123 0.55572
C20_10 C 0.55705 0.77807 0.51174
H10_10 H 0.51370 0.75558 0.49461
H11_11 H 0.84893 0.86938 0.77898
H12_11 H 0.64462 0.90101 0.75701
O8_8 O 0.40722 0.96297 0.52843
N1_11 N 0.14246 0.84659 0.58409
N2_11 N 0.08827 0.78423 0.59771
O3_12 O 0.04411 0.58638 0.53184
C1_11 C 0.05059 0.78626 0.62280
C2_11 C 0.16744 0.82849 0.55833
C3_12 C 0.35481 0.90993 0.51226
C4_12 C 0.09820 0.63852 0.51547
C6_11 C 0.06949 0.86076 0.63608
C8_11 C 0.02556 0.85789 0.65980
H2_11 H 0.11688 0.92039 0.62801
H4_12 H 0.04065 0.91609 0.66970
C11_12 C 0.01039 0.84729 0.72888
C12_12 C 0.05404 0.92066 0.74400
C13_12 C 0.03002 0.78415 0.73286
C14_12 C 0.10516 0.92592 0.76552
H6_12 H 0.04544 0.97187 0.74039
C15_12 C 0.08588 0.79351 0.75364
C16_11 C 0.24282 0.88438 0.54578
C17_11 C 0.11881 0.74967 0.54674
C18_11 C 0.27041 0.85883 0.52249
H8_11 H 0.28107 0.94551 0.55480
C19_11 C 0.14743 0.72388 0.52453
H9_11 H 0.05877 0.70663 0.55572
C20_11 C 0.22193 0.77898 0.51174
H10_11 H 0.24442 0.75812 0.49461
H11_12 H 0.13062 0.97955 0.77898
H12_12 H 0.09899 0.74361 0.75701
C5_11 C 0.98929 0.70967 0.63333
C7_11 C 0.94530 0.70676 0.65676
H1_12 H 0.97471 0.65204 0.62299
H3_12 H 0.89813 0.64704 0.66481
C9_12 C 0.96219 0.78029 0.67000
O5_12 O 0.91598 0.77323 0.69239
C10_12 C 0.93623 0.83362 0.71203
H5_12 H 0.94627 0.89228 0.70231
H7_12 H 0.99935 0.72647 0.72128
H13_12 H 0.88212 0.81142 0.72614
O3_13 O 0.74695 0.12440 0.19851
C2_12 C 0.50484 0.00562 0.22500
O4_5 O 0.37036 0.11092 0.19510
C3_13 C 0.42340 0.11155 0.17893
C4_13 C 0.69481 0.12635 0.18214
C16_12 C 0.44895 0.02511 0.21245
C17_12 C 0.58366 0.03581 0.21341
C18_12 C 0.47450 0.07825 0.18916
H8_12 H 0.38782 0.00223 0.22147
C19_12 C 0.60945 0.09022 0.19120
H9_12 H 0.62670 0.01881 0.22239
C20_12 C 0.55435 0.10962 0.17841
H10_12 H 0.57521 0.15297 0.16128
H12_13 H 0.58972 0.02205 0.42368
O8_9 O 0.88908 0.25945 0.19510
N1_12 N 0.48674 0.96254 0.25076
N2_12 N 0.54910 0.97071 0.26438
C1_12 C 0.54707 0.93100 0.28947
C5_12 C 0.62366 0.94629 0.30000
C6_12 C 0.47257 0.87540 0.30275
C7_12 C 0.62657 0.90521 0.32343
H1_13 H 0.68129 0.98934 0.28966
C8_12 C 0.47544 0.83434 0.32647
H2_12 H 0.41294 0.86316 0.29468
H3_13 H 0.68629 0.91776 0.33148
H4_13 H 0.41724 0.79123 0.33637
C9_13 C 0.55304 0.84857 0.33667
O5_13 O 0.56010 0.80942 0.35906
C10_13 C 0.49971 0.76928 0.37870
C11_13 C 0.48604 0.82977 0.39555
H5_13 H 0.44105 0.72066 0.36898
C12_13 C 0.41267 0.80005 0.41067
C13_13 C 0.54918 0.91254 0.39953
C14_13 C 0.40741 0.84591 0.43219
H6_13 H 0.36146 0.74024 0.40706
C15_13 C 0.53982 0.95904 0.42031
H7_13 H 0.60686 0.93955 0.38795
H11_13 H 0.35378 0.81774 0.44565
H13_13 H 0.52191 0.73737 0.39281
N1_13 N 0.03746 0.52421 0.25076
N2_13 N 0.02929 0.57840 0.26438
C1_13 C 0.06900 0.61608 0.28947
C5_13 C 0.05371 0.67738 0.30000
C6_13 C 0.12460 0.59718 0.30275
C7_13 C 0.09479 0.72137 0.32343
H1_14 H 0.01066 0.69196 0.28966
C8_13 C 0.16566 0.64111 0.32647
H2_13 H 0.13684 0.54979 0.29468
H3_14 H 0.08224 0.76854 0.33148
H4_14 H 0.20877 0.62602 0.33637
C9_14 C 0.15143 0.70448 0.33667
O5_14 O 0.19058 0.75069 0.35906
C10_14 C 0.23072 0.73044 0.37870
C11_14 C 0.17023 0.65628 0.39555
H5_14 H 0.27934 0.72040 0.36898
C12_14 C 0.19995 0.61263 0.41067
C13_14 C 0.08746 0.63665 0.39953
C14_14 C 0.15409 0.56151 0.43219
H6_14 H 0.25976 0.62123 0.40706
C15_14 C 0.04096 0.58079 0.42031
H7_14 H 0.06045 0.66732 0.38795
H11_14 H 0.18226 0.53605 0.44565
H13_14 H 0.26263 0.78455 0.39281
O3_14 O 0.87560 0.62256 0.19851
C2_13 C 0.99438 0.49923 0.22500
C3_14 C 0.88845 0.31186 0.17893
C4_14 C 0.87365 0.56847 0.18214
C16_13 C 0.97489 0.42385 0.21245
C17_13 C 0.96419 0.54786 0.21341
C18_13 C 0.92175 0.39626 0.18916
H8_13 H 0.99777 0.38560 0.22147
C19_13 C 0.90978 0.51924 0.19120
H9_13 H 0.98119 0.60790 0.22239
C20_13 C 0.89038 0.44474 0.17841
H10_13 H 0.84703 0.42225 0.16128
H12_14 H 0.97795 0.56768 0.42368
O8_10 O 0.74055 0.62964 0.19510
N1_14 N 0.47579 0.51326 0.25076
N2_14 N 0.42160 0.45090 0.26438
O3_15 O 0.37744 0.25305 0.19851
C1_14 C 0.38392 0.45293 0.28947
C2_14 C 0.50077 0.49516 0.22500
C3_15 C 0.68814 0.57660 0.17893
C4_15 C 0.43153 0.30519 0.18214
C5_14 C 0.32262 0.37634 0.30000
C6_14 C 0.40282 0.52743 0.30275
C7_14 C 0.27863 0.37343 0.32343
H1_15 H 0.30804 0.31871 0.28966
C8_14 C 0.35889 0.52456 0.32647
H2_14 H 0.45021 0.58706 0.29468
H3_15 H 0.23146 0.31371 0.33148
H4_15 H 0.37398 0.58276 0.33637
C9_15 C 0.29552 0.44696 0.33667
O5_15 O 0.24931 0.43990 0.35906
C10_15 C 0.26956 0.50029 0.37870
C11_15 C 0.34372 0.51396 0.39555
H5_15 H 0.27960 0.55895 0.36898
C12_15 C 0.38737 0.58733 0.41067
C13_15 C 0.36335 0.45082 0.39953
C14_15 C 0.43849 0.59259 0.43219
H6_15 H 0.37877 0.63854 0.40706
C15_15 C 0.41921 0.46018 0.42031
H7_15 H 0.33268 0.39314 0.38795
C16_14 C 0.57615 0.55105 0.21245
C17_14 C 0.45214 0.41634 0.21341
C18_14 C 0.60374 0.52550 0.18916
H8_14 H 0.61440 0.61218 0.22147
C19_14 C 0.48076 0.39055 0.19120
H9_14 H 0.39210 0.37330 0.22239
C20_14 C 0.55526 0.44565 0.17841
H10_14 H 0.57775 0.42479 0.16128
H11_15 H 0.46395 0.64622 0.44565
H12_15 H 0.43232 0.41028 0.42368
H13_15 H 0.21545 0.47809 0.39281
O3_16 O 0.08029 0.79106 0.86517
C4_16 C 0.02815 0.79301 0.84880
H1_16 H 0.01463 0.65600 0.95632
H3_16 H 0.01963 0.58442 0.99814
O8_11 O 0.22242 0.92611 0.86176
H4_16 H 0.75058 0.45789 0.00303
C9_16 C 0.88638 0.51523 0.00333
O5_16 O 0.89344 0.47608 0.02572
C10_16 C 0.83305 0.43594 0.04536
C11_16 C 0.81938 0.49643 0.06221
H5_16 H 0.77439 0.38732 0.03564
C12_16 C 0.74601 0.46671 0.07733
C13_16 C 0.88252 0.57920 0.06619
C14_16 C 0.74075 0.51257 0.09885
H6_16 H 0.69480 0.40690 0.07372
C15_16 C 0.87316 0.62570 0.08697
H7_16 H 0.94020 0.60621 0.05461
H11_16 H 0.68712 0.48440 0.11231
H12_16 H 0.92306 0.68871 0.09034
H13_16 H 0.85525 0.40403 0.05947
N1_15 N 0.82008 0.62920 0.91742
N2_15 N 0.88244 0.63737 0.93104
C1_15 C 0.88041 0.59766 0.95613
C2_15 C 0.83818 0.67228 0.89166
O4_6 O 0.70370 0.77758 0.86176
C3_16 C 0.75674 0.77821 0.84559
C5_15 C 0.95700 0.61295 0.96666
C6_15 C 0.80591 0.54206 0.96941
C7_15 C 0.95991 0.57187 0.99009
C8_15 C 0.80878 0.50100 0.99313
H2_15 H 0.74628 0.52982 0.96134
C16_15 C 0.78229 0.69177 0.87911
C17_15 C 0.91700 0.70247 0.88007
C18_15 C 0.80784 0.74491 0.85582
H8_15 H 0.72116 0.66889 0.88813
C19_15 C 0.94279 0.75688 0.85786
H9_15 H 0.96004 0.68547 0.88905
C20_15 C 0.88769 0.77628 0.84507
H10_15 H 0.90855 0.81963 0.82794
H4_17 H 0.54211 0.29268 0.00303
C9_17 C 0.48477 0.37114 0.00333
O5_17 O 0.52392 0.41735 0.02572
C10_17 C 0.56406 0.39710 0.04536
C11_17 C 0.50357 0.32294 0.06221
H5_17 H 0.61268 0.38706 0.03564
C12_17 C 0.53329 0.27929 0.07733
C13_17 C 0.42080 0.30331 0.06619
C14_17 C 0.48743 0.22817 0.09885
H6_17 H 0.59310 0.28789 0.07372
C15_17 C 0.37430 0.24745 0.08697
H7_17 H 0.39379 0.33398 0.05461
H11_17 H 0.51560 0.20271 0.11231
H12_17 H 0.31129 0.23434 0.09034
H13_17 H 0.59597 0.45121 0.05947
N1_16 N 0.37080 0.19087 0.91742
N2_16 N 0.36263 0.24506 0.93104
O3_17 O 0.20894 0.28922 0.86517
C1_16 C 0.40234 0.28274 0.95613
C2_16 C 0.32772 0.16589 0.89166
C4_17 C 0.20699 0.23513 0.84880
C5_16 C 0.38705 0.34404 0.96666
C6_16 C 0.45794 0.26384 0.96941
C7_16 C 0.42813 0.38803 0.99009
H1_17 H 0.34400 0.35862 0.95632
C8_16 C 0.49900 0.30777 0.99313
H2_16 H 0.47018 0.21645 0.96134
H3_17 H 0.41558 0.43520 0.99814
C16_16 C 0.30823 0.09051 0.87911
C17_16 C 0.29753 0.21452 0.88007
C18_16 C 0.25509 0.06292 0.85582
H8_16 H 0.33111 0.05226 0.88813
C19_16 C 0.24312 0.18590 0.85786
H9_16 H 0.31453 0.27456 0.88905
C20_16 C 0.22372 0.11140 0.84507
H10_16 H 0.18037 0.08891 0.82794
O8_12 O 0.07389 0.29630 0.86176
C3_17 C 0.22179 0.97852 0.84559
C3_18 C 0.02148 0.24326 0.84559
H4_18 H 0.70732 0.24942 0.00303
C9_18 C 0.62886 0.11362 0.00333
O5_18 O 0.58265 0.10656 0.02572
C10_18 C 0.60290 0.16695 0.04536
C11_18 C 0.67706 0.18062 0.06221
H5_18 H 0.61294 0.22561 0.03564
C12_18 C 0.72071 0.25399 0.07733
C13_18 C 0.69669 0.11748 0.06619
C14_18 C 0.77183 0.25925 0.09885
H6_18 H 0.71211 0.30520 0.07372
C15_18 C 0.75255 0.12684 0.08697
H7_18 H 0.66602 0.05980 0.05461
H11_18 H 0.79729 0.31288 0.11231
H12_18 H 0.76566 0.07694 0.09034
H13_18 H 0.54879 0.14475 0.05947
O3_18 O 0.71078 0.91971 0.86517
C4_18 C 0.76487 0.97185 0.84880
H1_18 H 0.64138 0.98537 0.95632
H3_18 H 0.56480 0.98037 0.99814
N1_17 N 0.19087 0.82008 0.08258
N2_17 N 0.24506 0.88244 0.06896
C1_17 C 0.28274 0.88041 0.04387
C2_17 C 0.16589 0.83818 0.10834
C5_17 C 0.34404 0.95700 0.03334
C6_17 C 0.26384 0.80591 0.03059
C7_17 C 0.38803 0.95991 0.00991
C8_17 C 0.30777 0.80878 0.00687
H2_17 H 0.21645 0.74628 0.03866
C16_17 C 0.09051 0.78229 0.12089
C17_17 C 0.21452 0.91700 0.11993
C18_17 C 0.06292 0.80784 0.14418
H8_17 H 0.05226 0.72116 0.11187
C19_17 C 0.18590 0.94279 0.14214
H9_17 H 0.27456 0.96004 0.11095
C20_17 C 0.11140 0.88769 0.15493
H10_17 H 0.08891 0.90855 0.17206
N1_18 N 0.80913 0.17992 0.91742
N2_18 N 0.75494 0.11756 0.93104
C1_18 C 0.71726 0.11959 0.95613
C2_18 C 0.83411 0.16182 0.89166
C5_18 C 0.65596 0.04300 0.96666
C6_18 C 0.73616 0.19409 0.96941
C7_18 C 0.61197 0.04009 0.99009
C8_18 C 0.69223 0.19122 0.99313
H2_18 H 0.78355 0.25372 0.96134
C16_18 C 0.90949 0.21771 0.87911
C17_18 C 0.78548 0.08300 0.88007
C18_18 C 0.93708 0.19216 0.85582
H8_18 H 0.94774 0.27884 0.88813
C19_18 C 0.81410 0.05721 0.85786
H9_18 H 0.72544 0.03996 0.88905
C20_18 C 0.88860 0.11231 0.84507
H10_18 H 0.91109 0.09145 0.82794
loop_
_geom_bond_atom_site_label_1
_geom_bond_atom_site_label_2
_geom_bond_site_symmetry_1
_geom_bond_site_symmetry_2
N1 N2 1_555 1_555
N2 C1 1_555 1_555
Cu1 O3 1_555 1_555
N3 C14 1_555 1_555
O1 C3 1_555 1_555
O2 C4 1_555 1_555
O3 C4 1_555 1_555
C1 C5 1_555 1_555
C2 N1 1_555 1_555
O4 C3 1_555 1_555
C3 C18 1_555 1_555
C4 C19 1_555 1_555
C5 C7 1_555 1_555
C6 C1 1_555 1_555
C7 H3 1_555 1_555
H1 C5 1_555 1_555
C8 C6 1_555 1_555
H2 C6 1_555 1_555
H4 C8 1_555 1_555
C9 C7 1_555 1_555
O5 C9 1_555 1_555
C10 O5 1_555 1_555
C11 C10 1_555 1_555
H5 C10 1_555 1_555
C12 C11 1_555 1_555
C13 C11 1_555 1_555
C14 C12 1_555 1_555
H6 C12 1_555 1_555
C15 N3 1_555 1_555
H7 C13 1_555 1_555
C16 C2 1_555 1_555
C17 C2 1_555 1_555
C18 C16 1_555 1_555
H8 C16 1_555 1_555
C19 C17 1_555 1_555
H9 C17 1_555 1_555
C20 C18 1_555 1_555
H10 C20 1_555 1_555
H11 C14 1_555 1_555
H12 C15 1_555 1_555
H13 C10 1_555 1_555
Cu3 O2 1_555 1_555
Cu4 O1 1_555 1_555
Cu5 N3 1_555 1_555
N4 Cu1 1_555 1_555
O6 Cu1 1_555 1_555
O7 Cu1 1_555 1_555
O8 Cu1 1_555 1_555
C8 C9 1_555 1_555
C13 C15 1_555 1_555
C19 C20 1_555 1_555
N1_2 N2_2 1_555 1_555
N2_2 C1_2 1_555 1_555
N3_2 C14_2 1_555 1_555
O1_2 C3_2 1_555 1_555
O2_2 C4_2 1_555 1_555
O3_2 C4_2 1_555 1_555
C2_2 N1_2 1_555 1_555
O8 C3_2 1_555 1_555
C3_2 C18_2 1_555 1_555
C4_2 C19_2 1_555 1_555
C6_2 C1_2 1_555 1_555
C8_2 C6_2 1_555 1_555
H2_2 C6_2 1_555 1_555
H4_2 C8_2 1_555 1_555
C12_2 C11_2 1_555 1_555
C13_2 C11_2 1_555 1_555
C14_2 C12_2 1_555 1_555
H6_2 C12_2 1_555 1_555
C15_2 N3_2 1_555 1_555
C16_2 C2_2 1_555 1_555
C17_2 C2_2 1_555 1_555
C18_2 C16_2 1_555 1_555
H8_2 C16_2 1_555 1_555
C19_2 C17_2 1_555 1_555
H9_2 C17_2 1_555 1_555
C20_2 C18_2 1_555 1_555
H10_2 C20_2 1_555 1_555
H11_2 C14_2 1_555 1_555
H12_2 C15_2 1_555 1_555
Cu3_2 O2_2 1_555 1_555
Cu3 O1_2 1_555 1_555
Cu5_2 N3_2 1_555 1_555
C13_2 C15_2 1_555 1_555
C19_2 C20_2 1_555 1_555
C5_2 C7_2 1_555 1_555
C7_2 H3_2 1_555 1_555
H1_2 C5_2 1_555 1_555
C9_2 C7_2 1_555 1_555
O5_2 C9_2 1_555 1_555
C10_2 O5_2 1_555 1_555
H5_2 C10_2 1_555 1_555
H13_2 C10_2 1_555 1_555
N4_2 Cu1_2 1_555 1_555
O6_2 Cu1_2 1_555 1_555
O7_2 Cu1_2 1_555 1_555
C5_3 C7_3 1_555 1_555
C7_3 H3_3 1_555 1_555
H1_3 C5_3 1_555 1_555
C9_3 C7_3 1_555 1_555
O5_3 C9_3 1_555 1_555
C10_3 O5_3 1_555 1_555
H5_3 C10_3 1_555 1_555
H13_3 C10_3 1_555 1_555
N4_3 Cu2 1_555 1_555
O6_3 Cu2 1_555 1_555
O7_3 Cu2 1_555 1_555
N1_3 N2_3 1_555 1_555
N2_3 C1_3 1_555 1_555
N3_3 C14_3 1_555 1_555
O1_3 C3_3 1_555 1_555
O2_3 C4_3 1_555 1_555
O3_3 C4_3 1_555 1_555
C2_3 N1_3 1_555 1_555
O8_2 C3_3 1_555 1_555
C3_3 C18_3 1_555 1_555
C4_3 C19_3 1_555 1_555
C6_3 C1_3 1_555 1_555
C8_3 C6_3 1_555 1_555
H2_3 C6_3 1_555 1_555
H4_3 C8_3 1_555 1_555
C12_3 C11_3 1_555 1_555
C13_3 C11_3 1_555 1_555
C14_3 C12_3 1_555 1_555
H6_3 C12_3 1_555 1_555
C15_3 N3_3 1_555 1_555
C16_3 C2_3 1_555 1_555
C17_3 C2_3 1_555 1_555
C18_3 C16_3 1_555 1_555
H8_3 C16_3 1_555 1_555
C19_3 C17_3 1_555 1_555
H9_3 C17_3 1_555 1_555
C20_3 C18_3 1_555 1_555
H10_3 C20_3 1_555 1_555
H11_3 C14_3 1_555 1_555
H12_3 C15_3 1_555 1_555
Cu4 O2_3 1_555 1_555
Cu3_2 O1_3 1_555 1_555
Cu5_3 N3_3 1_555 1_555
C13_3 C15_3 1_555 1_555
C19_3 C20_3 1_555 1_555
N1_4 N2_4 1_555 1_555
N2_4 C1_4 1_555 1_555
N3_4 C14_4 1_555 1_555
C1_4 C5_4 1_555 1_555
C5_4 C7_4 1_555 1_555
C6_4 C1_4 1_555 1_555
C7_4 H3_4 1_555 1_555
H1_4 C5_4 1_555 1_555
C8_4 C6_4 1_555 1_555
H2_4 C6_4 1_555 1_555
H4_4 C8_4 1_555 1_555
C9_4 C7_4 1_555 1_555
O5_4 C9_4 1_555 1_555
C10_4 O5_4 1_555 1_555
C11_4 C10_4 1_555 1_555
H5_4 C10_4 1_555 1_555
C12_4 C11_4 1_555 1_555
C13_4 C11_4 1_555 1_555
C14_4 C12_4 1_555 1_555
H6_4 C12_4 1_555 1_555
C15_4 N3_4 1_555 1_555
H7_4 C13_4 1_555 1_555
H11_4 C14_4 1_555 1_555
H13_4 C10_4 1_555 1_555
Cu3_2 N3_4 1_555 1_555
C8_4 C9_4 1_555 1_555
C13_4 C15_4 1_555 1_555
Cu1_3 O3_4 1_555 1_555
O1_4 C3_4 1_555 1_555
O2_4 C4_4 1_555 1_555
O3_4 C4_4 1_555 1_555
O4_2 C3_4 1_555 1_555
C3_4 C18_4 1_555 1_555
C4_4 C19_4 1_555 1_555
C16_4 C2_4 1_555 1_555
C17_4 C2_4 1_555 1_555
C18_4 C16_4 1_555 1_555
H8_4 C16_4 1_555 1_555
C19_4 C17_4 1_555 1_555
H9_4 C17_4 1_555 1_555
C20_4 C18_4 1_555 1_555
H10_4 C20_4 1_555 1_555
Cu2_2 O4_2 1_555 1_555
Cu3_3 O2_4 1_555 1_555
Cu4_2 O1_4 1_555 1_555
N4_4 Cu1_3 1_555 1_555
O6_4 Cu1_3 1_555 1_555
O7_4 Cu1_3 1_555 1_555
O8_3 Cu1_3 1_555 1_555
C19_4 C20_4 1_555 1_555
Cu1_4 O3_5 1_555 1_555
O1_5 C3_5 1_555 1_555
O2_5 C4_5 1_555 1_555
O3_5 C4_5 1_555 1_555
O8_3 C3_5 1_555 1_555
C3_5 C18_5 1_555 1_555
C4_5 C19_5 1_555 1_555
C16_5 C2_5 1_555 1_555
C17_5 C2_5 1_555 1_555
C18_5 C16_5 1_555 1_555
H8_5 C16_5 1_555 1_555
C19_5 C17_5 1_555 1_555
H9_5 C17_5 1_555 1_555
C20_5 C18_5 1_555 1_555
H10_5 C20_5 1_555 1_555
Cu3_4 O2_5 1_555 1_555
Cu3_3 O1_5 1_555 1_555
N4_5 Cu1_4 1_555 1_555
O6_5 Cu1_4 1_555 1_555
O7_5 Cu1_4 1_555 1_555
O8_4 Cu1_4 1_555 1_555
C19_5 C20_5 1_555 1_555
N1_5 N2_5 1_555 1_555
N2_5 C1_5 1_555 1_555
N3_5 C14_5 1_555 1_555
C1_5 C5_5 1_555 1_555
C5_5 C7_5 1_555 1_555
C6_5 C1_5 1_555 1_555
C7_5 H3_5 1_555 1_555
H1_5 C5_5 1_555 1_555
C8_5 C6_5 1_555 1_555
H2_5 C6_5 1_555 1_555
H4_5 C8_5 1_555 1_555
C9_5 C7_5 1_555 1_555
O5_5 C9_5 1_555 1_555
C10_5 O5_5 1_555 1_555
C11_5 C10_5 1_555 1_555
H5_5 C10_5 1_555 1_555
C12_5 C11_5 1_555 1_555
C13_5 C11_5 1_555 1_555
C14_5 C12_5 1_555 1_555
H6_5 C12_5 1_555 1_555
C15_5 N3_5 1_555 1_555
H7_5 C13_5 1_555 1_555
H11_5 C14_5 1_555 1_555
H13_5 C10_5 1_555 1_555
Cu4 N3_5 1_555 1_555
C8_5 C9_5 1_555 1_555
C13_5 C15_5 1_555 1_555
N1_6 N2_6 1_555 1_555
N2_6 C1_6 1_555 1_555
Cu2_2 O3_6 1_555 1_555
N3_6 C14_6 1_555 1_555
O1_6 C3_6 1_555 1_555
O2_6 C4_6 1_555 1_555
O3_6 C4_6 1_555 1_555
C1_6 C5_6 1_555 1_555
C2_6 N1_6 1_555 1_555
O8_4 C3_6 1_555 1_555
C3_6 C18_6 1_555 1_555
C4_6 C19_6 1_555 1_555
C5_6 C7_6 1_555 1_555
C6_6 C1_6 1_555 1_555
C7_6 H3_6 1_555 1_555
H1_6 C5_6 1_555 1_555
C8_6 C6_6 1_555 1_555
H2_6 C6_6 1_555 1_555
H4_6 C8_6 1_555 1_555
C9_6 C7_6 1_555 1_555
O5_6 C9_6 1_555 1_555
C10_6 O5_6 1_555 1_555
C11_6 C10_6 1_555 1_555
H5_6 C10_6 1_555 1_555
C12_6 C11_6 1_555 1_555
C13_6 C11_6 1_555 1_555
C14_6 C12_6 1_555 1_555
H6_6 C12_6 1_555 1_555
C15_6 N3_6 1_555 1_555
H7_6 C13_6 1_555 1_555
C16_6 C2_6 1_555 1_555
C17_6 C2_6 1_555 1_555
C18_6 C16_6 1_555 1_555
H8_6 C16_6 1_555 1_555
C19_6 C17_6 1_555 1_555
H9_6 C17_6 1_555 1_555
C20_6 C18_6 1_555 1_555
H10_6 C20_6 1_555 1_555
H11_6 C14_6 1_555 1_555
H12_6 C15_6 1_555 1_555
H13_6 C10_6 1_555 1_555
Cu4_2 O2_6 1_555 1_555
Cu3_4 O1_6 1_555 1_555
Cu3 N3_6 1_555 1_555
N4_6 Cu2_2 1_555 1_555
O6_6 Cu2_2 1_555 1_555
O7_6 Cu2_2 1_555 1_555
C8_6 C9_6 1_555 1_555
C13_6 C15_6 1_555 1_555
C19_6 C20_6 1_555 1_555
N1_7 N2_7 1_555 1_555
N2_7 C1_7 1_555 1_555
O1_7 C3_7 1_555 1_555
C1_7 C5_7 1_555 1_555
C2_7 N1_7 1_555 1_555
O4_3 C3_7 1_555 1_555
C3_7 C18_7 1_555 1_555
C5_7 C7_7 1_555 1_555
C6_7 C1_7 1_555 1_555
C8_7 C6_7 1_555 1_555
H2_7 C6_7 1_555 1_555
C16_7 C2_7 1_555 1_555
C17_7 C2_7 1_555 1_555
C18_7 C16_7 1_555 1_555
H8_7 C16_7 1_555 1_555
C19_7 C17_7 1_555 1_555
H9_7 C17_7 1_555 1_555
C20_7 C18_7 1_555 1_555
H10_7 C20_7 1_555 1_555
Cu2_3 O4_3 1_555 1_555
Cu5_2 O1_7 1_555 1_555
C19_7 C20_7 1_555 1_555
N3_7 C14_7 1_555 1_555
O5_7 C9_7 1_555 1_555
C10_7 O5_7 1_555 1_555
C11_7 C10_7 1_555 1_555
H5_7 C10_7 1_555 1_555
C12_7 C11_7 1_555 1_555
C13_7 C11_7 1_555 1_555
C14_7 C12_7 1_555 1_555
H6_7 C12_7 1_555 1_555
C15_7 N3_7 1_555 1_555
H7_7 C13_7 1_555 1_555
H11_7 C14_7 1_555 1_555
H12_7 C15_7 1_555 1_555
H13_7 C10_7 1_555 1_555
Cu3_4 N3_7 1_555 1_555
C13_7 C15_7 1_555 1_555
Cu1_5 O3_7 1_555 1_555
O2_7 C4_7 1_555 1_555
O3_7 C4_7 1_555 1_555
Cu5_3 O2_7 1_555 1_555
N4_7 Cu1_5 1_555 1_555
O6_7 Cu1_5 1_555 1_555
O7_7 Cu1_5 1_555 1_555
O8_5 Cu1_5 1_555 1_555
O1_8 C3_8 1_555 1_555
O8_5 C3_8 1_555 1_555
Cu5_3 O1_8 1_555 1_555
N1_8 N2_8 1_555 1_555
N2_8 C1_8 1_555 1_555
Cu1_6 O3_8 1_555 1_555
O2_8 C4_8 1_555 1_555
O3_8 C4_8 1_555 1_555
C1_8 C5_8 1_555 1_555
C2_8 N1_8 1_555 1_555
C4_8 C19_8 1_555 1_555
C5_8 C7_8 1_555 1_555
C6_8 C1_8 1_555 1_555
C7_8 H3_8 1_555 1_555
H1_8 C5_8 1_555 1_555
C8_8 C6_8 1_555 1_555
H2_8 C6_8 1_555 1_555
C16_8 C2_8 1_555 1_555
C17_8 C2_8 1_555 1_555
C18_8 C16_8 1_555 1_555
H8_8 C16_8 1_555 1_555
C19_8 C17_8 1_555 1_555
H9_8 C17_8 1_555 1_555
C20_8 C18_8 1_555 1_555
H10_8 C20_8 1_555 1_555
Cu5 O2_8 1_555 1_555
N4_8 Cu1_6 1_555 1_555
O6_8 Cu1_6 1_555 1_555
O7_8 Cu1_6 1_555 1_555
O8_6 Cu1_6 1_555 1_555
C19_8 C20_8 1_555 1_555
N3_8 C14_8 1_555 1_555
O5_8 C9_8 1_555 1_555
C10_8 O5_8 1_555 1_555
C11_8 C10_8 1_555 1_555
H5_8 C10_8 1_555 1_555
C12_8 C11_8 1_555 1_555
C13_8 C11_8 1_555 1_555
C14_8 C12_8 1_555 1_555
H6_8 C12_8 1_555 1_555
C15_8 N3_8 1_555 1_555
H7_8 C13_8 1_555 1_555
H11_8 C14_8 1_555 1_555
H12_8 C15_8 1_555 1_555
H13_8 C10_8 1_555 1_555
Cu4_2 N3_8 1_555 1_555
C13_8 C15_8 1_555 1_555
Cu2_3 O3_9 1_555 1_555
O2_9 C4_9 1_555 1_555
O3_9 C4_9 1_555 1_555
Cu5_2 O2_9 1_555 1_555
N4_9 Cu2_3 1_555 1_555
O6_9 Cu2_3 1_555 1_555
O7_9 Cu2_3 1_555 1_555
N3_9 C14_9 1_555 1_555
O5_9 C9_9 1_555 1_555
C10_9 O5_9 1_555 1_555
C11_9 C10_9 1_555 1_555
H5_9 C10_9 1_555 1_555
C12_9 C11_9 1_555 1_555
C13_9 C11_9 1_555 1_555
C14_9 C12_9 1_555 1_555
H6_9 C12_9 1_555 1_555
C15_9 N3_9 1_555 1_555
H7_9 C13_9 1_555 1_555
H11_9 C14_9 1_555 1_555
H12_9 C15_9 1_555 1_555
H13_9 C10_9 1_555 1_555
Cu3_3 N3_9 1_555 1_555
C13_9 C15_9 1_555 1_555
O1_9 C3_9 1_555 1_555
O8_6 C3_9 1_555 1_555
Cu5 O1_9 1_555 1_555
N1_9 N2_9 1_555 1_555
N2_9 C1_9 1_555 1_555
Cu3 O3_10 1_555 1_555
N4_5 C14_10 1_555 1_555
O6_3 C3_10 1_555 1_555
O7 C4_10 1_555 1_555
O3_10 C4_10 1_555 1_555
C1_9 C5_9 1_555 1_555
C2_9 N1_9 1_555 1_555
O4_4 C3_10 1_555 1_555
C3_10 C18_9 1_555 1_555
C4_10 C19_9 1_555 1_555
C5_9 C7_9 1_555 1_555
C6_9 C1_9 1_555 1_555
C7_9 H3_10 1_555 1_555
H1_10 C5_9 1_555 1_555
C8_9 C6_9 1_555 1_555
H2_9 C6_9 1_555 1_555
H4_10 C8_9 1_555 1_555
C9_10 C7_9 1_555 1_555
O5_10 C9_10 1_555 1_555
C10_10 O5_10 1_555 1_555
C11_10 C10_10 1_555 1_555
H5_10 C10_10 1_555 1_555
C12_10 C11_10 1_555 1_555
C13_10 C11_10 1_555 1_555
C14_10 C12_10 1_555 1_555
H6_10 C12_10 1_555 1_555
C15_10 N4_5 1_555 1_555
H7_10 C13_10 1_555 1_555
C16_9 C2_9 1_555 1_555
C17_9 C2_9 1_555 1_555
C18_9 C16_9 1_555 1_555
H8_9 C16_9 1_555 1_555
C19_9 C17_9 1_555 1_555
H9_9 C17_9 1_555 1_555
C20_9 C18_9 1_555 1_555
H10_9 C20_9 1_555 1_555
H11_10 C14_10 1_555 1_555
H12_10 C15_10 1_555 1_555
H13_10 C10_10 1_555 1_555
O8_7 Cu3 1_555 1_555
C8_9 C9_10 1_555 1_555
C13_10 C15_10 1_555 1_555
C19_9 C20_9 1_555 1_555
C5_10 C7_10 1_555 1_555
C7_10 H3_11 1_555 1_555
H1_11 C5_10 1_555 1_555
C9_11 C7_10 1_555 1_555
O5_11 C9_11 1_555 1_555
C10_11 O5_11 1_555 1_555
H5_11 C10_11 1_555 1_555
H13_11 C10_11 1_555 1_555
N1_10 N2_10 1_555 1_555
N2_10 C1_10 1_555 1_555
N4_6 C14_11 1_555 1_555
O6 C3_11 1_555 1_555
O7_2 C4_11 1_555 1_555
O3_11 C4_11 1_555 1_555
C2_10 N1_10 1_555 1_555
O8_7 C3_11 1_555 1_555
C3_11 C18_10 1_555 1_555
C4_11 C19_10 1_555 1_555
C6_10 C1_10 1_555 1_555
C8_10 C6_10 1_555 1_555
H2_10 C6_10 1_555 1_555
H4_11 C8_10 1_555 1_555
C12_11 C11_11 1_555 1_555
C13_11 C11_11 1_555 1_555
C14_11 C12_11 1_555 1_555
H6_11 C12_11 1_555 1_555
C15_11 N4_6 1_555 1_555
C16_10 C2_10 1_555 1_555
C17_10 C2_10 1_555 1_555
C18_10 C16_10 1_555 1_555
H8_10 C16_10 1_555 1_555
C19_10 C17_10 1_555 1_555
H9_10 C17_10 1_555 1_555
C20_10 C18_10 1_555 1_555
H10_10 C20_10 1_555 1_555
H11_11 C14_11 1_555 1_555
H12_11 C15_11 1_555 1_555
C13_11 C15_11 1_555 1_555
C19_10 C20_10 1_555 1_555
N1_11 N2_11 1_555 1_555
N2_11 C1_11 1_555 1_555
N4_4 C14_12 1_555 1_555
O6_2 C3_12 1_555 1_555
O7_3 C4_12 1_555 1_555
O3_12 C4_12 1_555 1_555
C2_11 N1_11 1_555 1_555
O8_8 C3_12 1_555 1_555
C3_12 C18_11 1_555 1_555
C4_12 C19_11 1_555 1_555
C6_11 C1_11 1_555 1_555
C8_11 C6_11 1_555 1_555
H2_11 C6_11 1_555 1_555
H4_12 C8_11 1_555 1_555
C12_12 C11_12 1_555 1_555
C13_12 C11_12 1_555 1_555
C14_12 C12_12 1_555 1_555
H6_12 C12_12 1_555 1_555
C15_12 N4_4 1_555 1_555
C16_11 C2_11 1_555 1_555
C17_11 C2_11 1_555 1_555
C18_11 C16_11 1_555 1_555
H8_11 C16_11 1_555 1_555
C19_11 C17_11 1_555 1_555
H9_11 C17_11 1_555 1_555
C20_11 C18_11 1_555 1_555
H10_11 C20_11 1_555 1_555
H11_12 C14_12 1_555 1_555
H12_12 C15_12 1_555 1_555
C13_12 C15_12 1_555 1_555
C19_11 C20_11 1_555 1_555
C5_11 C7_11 1_555 1_555
C7_11 H3_12 1_555 1_555
H1_12 C5_11 1_555 1_555
C9_12 C7_11 1_555 1_555
O5_12 C9_12 1_555 1_555
C10_12 O5_12 1_555 1_555
H5_12 C10_12 1_555 1_555
H13_12 C10_12 1_555 1_555
Cu5_3 O3_13 1_555 1_555
O6_9 C3_13 1_555 1_555
O7_7 C4_13 1_555 1_555
O3_13 C4_13 1_555 1_555
O4_5 C3_13 1_555 1_555
C3_13 C18_12 1_555 1_555
C4_13 C19_12 1_555 1_555
C16_12 C2_12 1_555 1_555
C17_12 C2_12 1_555 1_555
C18_12 C16_12 1_555 1_555
H8_12 C16_12 1_555 1_555
C19_12 C17_12 1_555 1_555
H9_12 C17_12 1_555 1_555
C20_12 C18_12 1_555 1_555
H10_12 C20_12 1_555 1_555
Cu5_2 O4_5 1_555 1_555
O8_9 Cu5_3 1_555 1_555
C19_12 C20_12 1_555 1_555
N1_12 N2_12 1_555 1_555
N2_12 C1_12 1_555 1_555
N4_2 C14_13 1_555 1_555
C1_12 C5_12 1_555 1_555
C5_12 C7_12 1_555 1_555
C6_12 C1_12 1_555 1_555
C7_12 H3_13 1_555 1_555
H1_13 C5_12 1_555 1_555
C8_12 C6_12 1_555 1_555
H2_12 C6_12 1_555 1_555
H4_13 C8_12 1_555 1_555
C9_13 C7_12 1_555 1_555
O5_13 C9_13 1_555 1_555
C10_13 O5_13 1_555 1_555
C11_13 C10_13 1_555 1_555
H5_13 C10_13 1_555 1_555
C12_13 C11_13 1_555 1_555
C13_13 C11_13 1_555 1_555
C14_13 C12_13 1_555 1_555
H6_13 C12_13 1_555 1_555
C15_13 N4_2 1_555 1_555
H7_13 C13_13 1_555 1_555
H11_13 C14_13 1_555 1_555
H13_13 C10_13 1_555 1_555
C8_12 C9_13 1_555 1_555
C13_13 C15_13 1_555 1_555
N1_13 N2_13 1_555 1_555
N2_13 C1_13 1_555 1_555
N4_3 C14_14 1_555 1_555
C1_13 C5_13 1_555 1_555
C5_13 C7_13 1_555 1_555
C6_13 C1_13 1_555 1_555
C7_13 H3_14 1_555 1_555
H1_14 C5_13 1_555 1_555
C8_13 C6_13 1_555 1_555
H2_13 C6_13 1_555 1_555
H4_14 C8_13 1_555 1_555
C9_14 C7_13 1_555 1_555
O5_14 C9_14 1_555 1_555
C10_14 O5_14 1_555 1_555
C11_14 C10_14 1_555 1_555
H5_14 C10_14 1_555 1_555
C12_14 C11_14 1_555 1_555
C13_14 C11_14 1_555 1_555
C14_14 C12_14 1_555 1_555
H6_14 C12_14 1_555 1_555
C15_14 N4_3 1_555 1_555
H7_14 C13_14 1_555 1_555
H11_14 C14_14 1_555 1_555
H13_14 C10_14 1_555 1_555
C8_13 C9_14 1_555 1_555
C13_14 C15_14 1_555 1_555
Cu5 O3_14 1_555 1_555
O6_7 C3_14 1_555 1_555
O7_8 C4_14 1_555 1_555
O3_14 C4_14 1_555 1_555
O8_9 C3_14 1_555 1_555
C3_14 C18_13 1_555 1_555
C4_14 C19_13 1_555 1_555
C16_13 C2_13 1_555 1_555
C17_13 C2_13 1_555 1_555
C18_13 C16_13 1_555 1_555
H8_13 C16_13 1_555 1_555
C19_13 C17_13 1_555 1_555
H9_13 C17_13 1_555 1_555
C20_13 C18_13 1_555 1_555
H10_13 C20_13 1_555 1_555
O8_10 Cu5 1_555 1_555
C19_13 C20_13 1_555 1_555
N1_14 N2_14 1_555 1_555
N2_14 C1_14 1_555 1_555
Cu5_2 O3_15 1_555 1_555
N4 C14_15 1_555 1_555
O6_8 C3_15 1_555 1_555
O7_9 C4_15 1_555 1_555
O3_15 C4_15 1_555 1_555
C1_14 C5_14 1_555 1_555
C2_14 N1_14 1_555 1_555
O8_10 C3_15 1_555 1_555
C3_15 C18_14 1_555 1_555
C4_15 C19_14 1_555 1_555
C5_14 C7_14 1_555 1_555
C6_14 C1_14 1_555 1_555
C7_14 H3_15 1_555 1_555
H1_15 C5_14 1_555 1_555
C8_14 C6_14 1_555 1_555
H2_14 C6_14 1_555 1_555
H4_15 C8_14 1_555 1_555
C9_15 C7_14 1_555 1_555
O5_15 C9_15 1_555 1_555
C10_15 O5_15 1_555 1_555
C11_15 C10_15 1_555 1_555
H5_15 C10_15 1_555 1_555
C12_15 C11_15 1_555 1_555
C13_15 C11_15 1_555 1_555
C14_15 C12_15 1_555 1_555
H6_15 C12_15 1_555 1_555
C15_15 N4 1_555 1_555
H7_15 C13_15 1_555 1_555
C16_14 C2_14 1_555 1_555
C17_14 C2_14 1_555 1_555
C18_14 C16_14 1_555 1_555
H8_14 C16_14 1_555 1_555
C19_14 C17_14 1_555 1_555
H9_14 C17_14 1_555 1_555
C20_14 C18_14 1_555 1_555
H10_14 C20_14 1_555 1_555
H11_15 C14_15 1_555 1_555
H12_15 C15_15 1_555 1_555
H13_15 C10_15 1_555 1_555
C8_14 C9_15 1_555 1_555
C13_15 C15_15 1_555 1_555
C19_14 C20_14 1_555 1_555
Cu3_3 O3_16 1_555 1_555
O7_4 C4_16 1_555 1_555
O3_16 C4_16 1_555 1_555
O8_11 Cu3_3 1_555 1_555
N4_8 C14_16 1_555 1_555
O5_16 C9_16 1_555 1_555
C10_16 O5_16 1_555 1_555
C11_16 C10_16 1_555 1_555
H5_16 C10_16 1_555 1_555
C12_16 C11_16 1_555 1_555
C13_16 C11_16 1_555 1_555
C14_16 C12_16 1_555 1_555
H6_16 C12_16 1_555 1_555
C15_16 N4_8 1_555 1_555
H7_16 C13_16 1_555 1_555
H11_16 C14_16 1_555 1_555
H12_16 C15_16 1_555 1_555
H13_16 C10_16 1_555 1_555
C13_16 C15_16 1_555 1_555
N1_15 N2_15 1_555 1_555
N2_15 C1_15 1_555 1_555
O6_6 C3_16 1_555 1_555
C1_15 C5_15 1_555 1_555
C2_15 N1_15 1_555 1_555
O4_6 C3_16 1_555 1_555
C3_16 C18_15 1_555 1_555
C5_15 C7_15 1_555 1_555
C6_15 C1_15 1_555 1_555
C8_15 C6_15 1_555 1_555
H2_15 C6_15 1_555 1_555
C16_15 C2_15 1_555 1_555
C17_15 C2_15 1_555 1_555
C18_15 C16_15 1_555 1_555
H8_15 C16_15 1_555 1_555
C19_15 C17_15 1_555 1_555
H9_15 C17_15 1_555 1_555
C20_15 C18_15 1_555 1_555
H10_15 C20_15 1_555 1_555
Cu4_2 O4_6 1_555 1_555
C19_15 C20_15 1_555 1_555
N4_9 C14_17 1_555 1_555
O5_17 C9_17 1_555 1_555
C10_17 O5_17 1_555 1_555
C11_17 C10_17 1_555 1_555
H5_17 C10_17 1_555 1_555
C12_17 C11_17 1_555 1_555
C13_17 C11_17 1_555 1_555
C14_17 C12_17 1_555 1_555
H6_17 C12_17 1_555 1_555
C15_17 N4_9 1_555 1_555
H7_17 C13_17 1_555 1_555
H11_17 C14_17 1_555 1_555
H12_17 C15_17 1_555 1_555
H13_17 C10_17 1_555 1_555
C13_17 C15_17 1_555 1_555
N1_16 N2_16 1_555 1_555
N2_16 C1_16 1_555 1_555
Cu3_4 O3_17 1_555 1_555
O7_5 C4_17 1_555 1_555
O3_17 C4_17 1_555 1_555
C1_16 C5_16 1_555 1_555
C2_16 N1_16 1_555 1_555
C4_17 C19_16 1_555 1_555
C5_16 C7_16 1_555 1_555
C6_16 C1_16 1_555 1_555
C7_16 H3_17 1_555 1_555
H1_17 C5_16 1_555 1_555
C8_16 C6_16 1_555 1_555
H2_16 C6_16 1_555 1_555
C16_16 C2_16 1_555 1_555
C17_16 C2_16 1_555 1_555
C18_16 C16_16 1_555 1_555
H8_16 C16_16 1_555 1_555
C19_16 C17_16 1_555 1_555
H9_16 C17_16 1_555 1_555
C20_16 C18_16 1_555 1_555
H10_16 C20_16 1_555 1_555
O8_12 Cu3_4 1_555 1_555
C19_16 C20_16 1_555 1_555
O6_4 C3_17 1_555 1_555
O8_11 C3_17 1_555 1_555
O6_5 C3_18 1_555 1_555
O8_12 C3_18 1_555 1_555
N4_7 C14_18 1_555 1_555
O5_18 C9_18 1_555 1_555
C10_18 O5_18 1_555 1_555
C11_18 C10_18 1_555 1_555
H5_18 C10_18 1_555 1_555
C12_18 C11_18 1_555 1_555
C13_18 C11_18 1_555 1_555
C14_18 C12_18 1_555 1_555
H6_18 C12_18 1_555 1_555
C15_18 N4_7 1_555 1_555
H7_18 C13_18 1_555 1_555
H11_18 C14_18 1_555 1_555
H12_18 C15_18 1_555 1_555
H13_18 C10_18 1_555 1_555
C13_18 C15_18 1_555 1_555
Cu4_2 O3_18 1_555 1_555
O7_6 C4_18 1_555 1_555
O3_18 C4_18 1_555 1_555
N1_17 N2_17 1_555 1_555
N2_17 C1_17 1_555 1_555
C1_17 C5_17 1_555 1_555
C2_17 N1_17 1_555 1_555
C5_17 C7_17 1_555 1_555
C6_17 C1_17 1_555 1_555
C8_17 C6_17 1_555 1_555
H2_17 C6_17 1_555 1_555
C16_17 C2_17 1_555 1_555
C17_17 C2_17 1_555 1_555
C18_17 C16_17 1_555 1_555
H8_17 C16_17 1_555 1_555
C19_17 C17_17 1_555 1_555
H9_17 C17_17 1_555 1_555
C20_17 C18_17 1_555 1_555
H10_17 C20_17 1_555 1_555
C19_17 C20_17 1_555 1_555
N1_18 N2_18 1_555 1_555
N2_18 C1_18 1_555 1_555
C1_18 C5_18 1_555 1_555
C2_18 N1_18 1_555 1_555
C5_18 C7_18 1_555 1_555
C6_18 C1_18 1_555 1_555
C8_18 C6_18 1_555 1_555
H2_18 C6_18 1_555 1_555
C16_18 C2_18 1_555 1_555
C17_18 C2_18 1_555 1_555
C18_18 C16_18 1_555 1_555
H8_18 C16_18 1_555 1_555
C19_18 C17_18 1_555 1_555
H9_18 C17_18 1_555 1_555
C20_18 C18_18 1_555 1_555
H10_18 C20_18 1_555 1_555
C19_18 C20_18 1_555 1_555

#END
