
###############################################################################
#
# This file contains modified crystal structure data generated from the
# MOF subset of the Cambridge Structural Database (CSD) v543 
# hosted by the Cambridge Crystallographic Data Centre (CCDC).
#
# This work is licensed under the Creative Commons
# Attribution-NonCommercial-ShareAlike 4.0 International License.
# To view a copy of this license, visit
# http://creativecommons.org/licenses/by-nc-sa/4.0/
# or send a letter to
# Creative Commons, PO Box 1866, Mountain View, CA 94042, USA.
#
# CIF created using the CSD Python API on 29 September 2022
# The structure has been converted into the P1 space group
# The structure has a 3D framework
# The original CSD entry OHAGAH is in the orthorhombic crystal system
# The framework has been calculated to contain at least 10.0% void space
# The void calculation uses a probe of radius 1.32A, grid spacing 0.4
#
###############################################################################

data_OHAGAH
_chemical_formula_moiety         '(C112 H72 Cu8 N8 O40)n'
_symmetry_cell_setting           triclinic
_symmetry_space_group_name_H-M   'P 1'
_symmetry_Int_Tables_number      1
_space_group_name_Hall           'P 1'
loop_
_symmetry_equiv_pos_site_id
_symmetry_equiv_pos_as_xyz
1 x,y,z
_cell_length_a                   12.9805(7)
_cell_length_b                   14.1040(9)
_cell_length_c                   25.6051(13)
_cell_angle_alpha                90
_cell_angle_beta                 90
_cell_angle_gamma                90
_cell_volume                     4687.7
loop_
_atom_site_label
_atom_site_type_symbol
_atom_site_fract_x
_atom_site_fract_y
_atom_site_fract_z
Cu2 Cu 0.06183(3) 0.82863(3) 0.291331(17)
O6 O 0.0397(2) 0.73576(19) 0.18379(10)
O8 O 0.0317(2) 0.9286(2) 0.18551(10)
Cu1 Cu 0.93817(3) 0.82863(3) 0.208669(17)
O1 O 0.8626(2) 0.7280(2) 0.24515(9)
O2 O 0.9603(2) 0.73576(19) 0.31621(10)
O3 O 0.7193(3) 0.5971(3) 0.45269(12)
O4 O 0.6421(2) 0.4234(2) 0.24702(9)
O5 O 0.5317(2) 0.4286(2) 0.31449(10)
N1 N 0.6430(2) 0.6713(2) 0.63530(11)
C1 C 0.7437(4) 0.6652(4) 0.62932(17)
H1 H 0.7862 0.6634 0.6595
C2 C 0.5877(4) 0.6722(5) 0.5918(2)
H2 H 0.5148 0.6735 0.5951
C3 C 0.8856(3) 0.7062(3) 0.29075(15)
C4 C 0.8121(3) 0.6412(3) 0.31876(14)
C5 C 0.8078(4) 0.6483(4) 0.37334(15)
H3 H 0.8531 0.6894 0.3916
C6 C 0.7348(4) 0.5930(4) 0.40057(17)
C7 C 0.6714(4) 0.5299(4) 0.37226(17)
H4 H 0.6221 0.4921 0.3901
C8 C 0.6809(3) 0.5229(3) 0.31905(15)
C9 C 0.7501(3) 0.5791(3) 0.29107(15)
H5 H 0.7545 0.5749 0.2541
C10 C 0.6136(3) 0.4521(3) 0.29099(15)
C11 C 0.7804(4) 0.6592(4) 0.48259(18)
H6 H 0.7818 0.7228 0.4663
H7 H 0.8519 0.6351 0.4848
C12 C 0.7330(4) 0.6648(3) 0.53678(17)
C13 C 0.6278(5) 0.6713(5) 0.54279(19)
H8 H 0.5840 0.6751 0.5131
C14 C 0.7898(4) 0.6614(4) 0.58021(18)
H9 H 0.8626 0.6563 0.5776
Cu3 Cu 0.56183(3) 0.67137(3) 0.708669(17)
Cu4 Cu 0.56183(3) 0.32863(3) 0.208669(17)
Cu5 Cu 0.43817(3) 0.32863(3) 0.291331(17)
O7 O 0.8579(2) 0.9234(2) 0.24702(9)
N2 N 0.8570(2) 0.8287(2) 0.13530(11)
O4_2 O 0.1421(2) 0.0766(2) 0.75298(9)
O5_2 O 0.0317(2) 0.0714(2) 0.68551(10)
H4_2 H 0.1221 0.0079 0.6099
C10_2 C 0.1136(3) 0.0479(3) 0.70901(15)
Cu4_2 Cu 0.06183(3) 0.17137(3) 0.791331(17)
Cu1_2 Cu 0.43817(3) 0.67137(3) 0.791331(17)
O1_2 O 0.3626(2) 0.7720(2) 0.75485(9)
O2_2 O 0.4603(2) 0.76424(19) 0.68379(10)
O3_2 O 0.2193(3) 0.9029(3) 0.54731(12)
N1_2 N 0.1430(2) 0.8287(2) 0.36470(11)
C1_2 C 0.2437(4) 0.8348(4) 0.37068(17)
H1_2 H 0.2862 0.8366 0.3405
C2_2 C 0.0877(4) 0.8278(5) 0.4082(2)
H2_2 H 0.0148 0.8265 0.4049
C3_2 C 0.3856(3) 0.7938(3) 0.70925(15)
C4_2 C 0.3121(3) 0.8588(3) 0.68124(14)
C5_2 C 0.3078(4) 0.8517(4) 0.62666(15)
H3_2 H 0.3531 0.8106 0.6084
C6_2 C 0.2348(4) 0.9070(4) 0.59943(17)
C7_2 C 0.1714(4) 0.9701(4) 0.62774(17)
C8_2 C 0.1809(3) 0.9771(3) 0.68095(15)
C9_2 C 0.2501(3) 0.9209(3) 0.70893(15)
H5_2 H 0.2545 0.9251 0.7459
C11_2 C 0.2804(4) 0.8408(4) 0.51741(18)
H6_2 H 0.2818 0.7772 0.5337
H7_2 H 0.3519 0.8649 0.5152
C12_2 C 0.2330(4) 0.8352(3) 0.46322(17)
C13_2 C 0.1278(5) 0.8287(5) 0.45721(19)
H8_2 H 0.0840 0.8249 0.4869
C14_2 C 0.2898(4) 0.8386(4) 0.41979(18)
H9_2 H 0.3626 0.8437 0.4224
O6_2 O 0.5397(2) 0.76424(19) 0.81621(10)
O7_2 O 0.3579(2) 0.5766(2) 0.75298(9)
O8_2 O 0.5317(2) 0.5714(2) 0.81449(10)
N2_2 N 0.3570(2) 0.6713(2) 0.86470(11)
Cu5_2 Cu 0.93817(3) 0.17137(3) 0.708669(17)
O1_3 O 0.1374(2) 0.7280(2) 0.25485(9)
O3_3 O 0.2807(3) 0.5971(3) 0.04731(12)
O4_3 O 0.3579(2) 0.4234(2) 0.25298(9)
O5_3 O 0.4683(2) 0.4286(2) 0.18551(10)
C3_3 C 0.1144(3) 0.7062(3) 0.20925(15)
C4_3 C 0.1879(3) 0.6412(3) 0.18124(14)
C5_3 C 0.1922(4) 0.6483(4) 0.12666(15)
H3_3 H 0.1469 0.6894 0.1084
C6_3 C 0.2652(4) 0.5930(4) 0.09943(17)
C7_3 C 0.3286(4) 0.5299(4) 0.12774(17)
H4_3 H 0.3779 0.4921 0.1099
C8_3 C 0.3191(3) 0.5229(3) 0.18095(15)
C9_3 C 0.2499(3) 0.5791(3) 0.20893(15)
H5_3 H 0.2455 0.5749 0.2459
C10_3 C 0.3864(3) 0.4521(3) 0.20901(15)
C11_3 C 0.2196(4) 0.6592(4) 0.01741(18)
H6_3 H 0.2182 0.7228 0.0337
H7_3 H 0.1481 0.6351 0.0152
O7_3 O 0.1421(2) 0.9234(2) 0.25298(9)
C1_3 C 0.2563(4) 0.6652(4) 0.87068(17)
H1_3 H 0.2138 0.6634 0.8405
C2_3 C 0.4123(4) 0.6722(5) 0.9082(2)
H2_3 H 0.4852 0.6735 0.9049
C12_3 C 0.2670(4) 0.6648(3) 0.96322(17)
C13_3 C 0.3722(5) 0.6713(5) 0.95721(19)
H8_3 H 0.4160 0.6751 0.9869
C14_3 C 0.2102(4) 0.6614(4) 0.91979(18)
H9_3 H 0.1374 0.6563 0.9224
O8_3 O 0.9683(2) 0.9286(2) 0.31449(10)
O4_4 O 0.8579(2) 0.0766(2) 0.74702(9)
O5_4 O 0.9683(2) 0.0714(2) 0.81449(10)
H4_4 H 0.8779 0.0079 0.8901
C10_4 C 0.8864(3) 0.0479(3) 0.79099(15)
C1_4 C 0.7563(4) 0.8348(4) 0.12932(17)
H1_4 H 0.7138 0.8366 0.1595
C2_4 C 0.9123(4) 0.8278(5) 0.0918(2)
H2_4 H 0.9852 0.8265 0.0951
C12_4 C 0.7670(4) 0.8352(3) 0.03678(17)
C13_4 C 0.8722(5) 0.8287(5) 0.04279(19)
H8_4 H 0.9160 0.8249 0.0131
C14_4 C 0.7102(4) 0.8386(4) 0.08021(18)
H9_4 H 0.6374 0.8437 0.0776
O1_4 O 0.6374(2) 0.7720(2) 0.74515(9)
O3_4 O 0.7807(3) 0.9029(3) 0.95269(12)
C3_4 C 0.6144(3) 0.7938(3) 0.79075(15)
C4_4 C 0.6879(3) 0.8588(3) 0.81876(14)
C5_4 C 0.6922(4) 0.8517(4) 0.87334(15)
H3_4 H 0.6469 0.8106 0.8916
C6_4 C 0.7652(4) 0.9070(4) 0.90057(17)
C7_4 C 0.8286(4) 0.9701(4) 0.87226(17)
C8_4 C 0.8191(3) 0.9771(3) 0.81905(15)
C9_4 C 0.7499(3) 0.9209(3) 0.79107(15)
H5_4 H 0.7455 0.9251 0.7541
C11_4 C 0.7196(4) 0.8408(4) 0.98259(18)
H6_4 H 0.7182 0.7772 0.9663
H7_4 H 0.6481 0.8649 0.9848
O7_4 O 0.6421(2) 0.5766(2) 0.74702(9)
O8_4 O 0.4683(2) 0.5714(2) 0.68551(10)
O1_5 O 0.1374(2) 0.2720(2) 0.75485(9)
O2_3 O 0.0397(2) 0.26424(19) 0.68379(10)
O3_5 O 0.2807(3) 0.4029(3) 0.54731(12)
N1_3 N 0.3570(2) 0.3287(2) 0.36470(11)
C1_5 C 0.2563(4) 0.3348(4) 0.37068(17)
H1_5 H 0.2138 0.3366 0.3405
C2_5 C 0.4123(4) 0.3278(5) 0.4082(2)
H2_5 H 0.4852 0.3265 0.4049
C3_5 C 0.1144(3) 0.2938(3) 0.70925(15)
C4_5 C 0.1879(3) 0.3588(3) 0.68124(14)
C5_5 C 0.1922(4) 0.3517(4) 0.62666(15)
H3_5 H 0.1469 0.3106 0.6084
C6_5 C 0.2652(4) 0.4070(4) 0.59943(17)
C7_5 C 0.3286(4) 0.4701(4) 0.62774(17)
H4_5 H 0.3779 0.5079 0.6099
C8_5 C 0.3191(3) 0.4771(3) 0.68095(15)
C9_5 C 0.2499(3) 0.4209(3) 0.70893(15)
H5_5 H 0.2455 0.4251 0.7459
C10_5 C 0.3864(3) 0.5479(3) 0.70901(15)
C11_5 C 0.2196(4) 0.3408(4) 0.51741(18)
H6_5 H 0.2182 0.2772 0.5337
H7_5 H 0.1481 0.3649 0.5152
C12_5 C 0.2670(4) 0.3352(3) 0.46322(17)
C13_5 C 0.3722(5) 0.3287(5) 0.45721(19)
H8_5 H 0.4160 0.3249 0.4869
C14_5 C 0.2102(4) 0.3386(4) 0.41979(18)
H9_5 H 0.1374 0.3437 0.4224
N2_3 N 0.1430(2) 0.1713(2) 0.86470(11)
O6_3 O 0.9603(2) 0.26424(19) 0.81621(10)
O1_6 O 0.6374(2) 0.2280(2) 0.24515(9)
O2_4 O 0.5397(2) 0.23576(19) 0.31621(10)
O3_6 O 0.7807(3) 0.0971(3) 0.45269(12)
N1_4 N 0.8570(2) 0.1713(2) 0.63530(11)
C1_6 C 0.7563(4) 0.1652(4) 0.62932(17)
H1_6 H 0.7138 0.1634 0.6595
C2_6 C 0.9123(4) 0.1722(5) 0.5918(2)
H2_6 H 0.9852 0.1735 0.5951
C3_6 C 0.6144(3) 0.2062(3) 0.29075(15)
C4_6 C 0.6879(3) 0.1412(3) 0.31876(14)
C5_6 C 0.6922(4) 0.1483(4) 0.37334(15)
H3_6 H 0.6469 0.1894 0.3916
C6_6 C 0.7652(4) 0.0930(4) 0.40057(17)
C7_6 C 0.8286(4) 0.0299(4) 0.37226(17)
C8_6 C 0.8191(3) 0.0229(3) 0.31905(15)
C9_6 C 0.7499(3) 0.0791(3) 0.29107(15)
H5_6 H 0.7455 0.0749 0.2541
C11_6 C 0.7196(4) 0.1592(4) 0.48259(18)
H6_6 H 0.7182 0.2228 0.4663
H7_6 H 0.6481 0.1351 0.4848
C12_6 C 0.7670(4) 0.1648(3) 0.53678(17)
C13_6 C 0.8722(5) 0.1713(5) 0.54279(19)
H8_6 H 0.9160 0.1751 0.5131
C14_6 C 0.7102(4) 0.1614(4) 0.58021(18)
H9_6 H 0.6374 0.1563 0.5776
O6_4 O 0.4603(2) 0.23576(19) 0.18379(10)
N2_4 N 0.6430(2) 0.3287(2) 0.13530(11)
H4_6 H 0.8779 0.9921 0.3901
C10_6 C 0.8864(3) 0.9521(3) 0.29099(15)
C1_7 C 0.7437(4) 0.3348(4) 0.12932(17)
H1_7 H 0.7862 0.3366 0.1595
C2_7 C 0.5877(4) 0.3278(5) 0.0918(2)
H2_7 H 0.5148 0.3265 0.0951
C12_7 C 0.7330(4) 0.3352(3) 0.03678(17)
C13_7 C 0.6278(5) 0.3287(5) 0.04279(19)
H8_7 H 0.5840 0.3249 0.0131
C14_7 C 0.7898(4) 0.3386(4) 0.08021(18)
H9_7 H 0.8626 0.3437 0.0776
O1_7 O 0.8626(2) 0.2720(2) 0.74515(9)
O3_7 O 0.7193(3) 0.4029(3) 0.95269(12)
C3_7 C 0.8856(3) 0.2938(3) 0.79075(15)
C4_7 C 0.8121(3) 0.3588(3) 0.81876(14)
C5_7 C 0.8078(4) 0.3517(4) 0.87334(15)
H3_7 H 0.8531 0.3106 0.8916
C6_7 C 0.7348(4) 0.4070(4) 0.90057(17)
C7_7 C 0.6714(4) 0.4701(4) 0.87226(17)
H4_7 H 0.6221 0.5079 0.8901
C8_7 C 0.6809(3) 0.4771(3) 0.81905(15)
C9_7 C 0.7501(3) 0.4209(3) 0.79107(15)
H5_7 H 0.7545 0.4251 0.7541
C10_7 C 0.6136(3) 0.5479(3) 0.79099(15)
C11_7 C 0.7804(4) 0.3408(4) 0.98259(18)
H6_7 H 0.7818 0.2772 0.9663
H7_7 H 0.8519 0.3649 0.9848
O1_8 O 0.3626(2) 0.2280(2) 0.25485(9)
O3_8 O 0.2193(3) 0.0971(3) 0.04731(12)
C3_8 C 0.3856(3) 0.2062(3) 0.20925(15)
C4_8 C 0.3121(3) 0.1412(3) 0.18124(14)
C5_8 C 0.3078(4) 0.1483(4) 0.12666(15)
H3_8 H 0.3531 0.1894 0.1084
C6_8 C 0.2348(4) 0.0930(4) 0.09943(17)
C7_8 C 0.1714(4) 0.0299(4) 0.12774(17)
C8_8 C 0.1809(3) 0.0229(3) 0.18095(15)
C9_8 C 0.2501(3) 0.0791(3) 0.20893(15)
H5_8 H 0.2545 0.0749 0.2459
C11_8 C 0.2804(4) 0.1592(4) 0.01741(18)
H6_8 H 0.2818 0.2228 0.0337
H7_8 H 0.3519 0.1351 0.0152
C1_8 C 0.2437(4) 0.1652(4) 0.87068(17)
H1_8 H 0.2862 0.1634 0.8405
C2_8 C 0.0877(4) 0.1722(5) 0.9082(2)
H2_8 H 0.0148 0.1735 0.9049
C12_8 C 0.2330(4) 0.1648(3) 0.96322(17)
C13_8 C 0.1278(5) 0.1713(5) 0.95721(19)
H8_8 H 0.0840 0.1751 0.9869
C14_8 C 0.2898(4) 0.1614(4) 0.91979(18)
H9_8 H 0.3626 0.1563 0.9224
H4_8 H 0.1221 0.9921 0.1099
C10_8 C 0.1136(3) 0.9521(3) 0.20901(15)
loop_
_geom_bond_atom_site_label_1
_geom_bond_atom_site_label_2
_geom_bond_site_symmetry_1
_geom_bond_site_symmetry_2
Cu1 O1 1_555 1_555
O1 C3 1_555 1_555
O2 C3 1_555 1_555
O3 C6 1_555 1_555
O4 C10 1_555 1_555
O5 C10 1_555 1_555
N1 C1 1_555 1_555
C1 H1 1_555 1_555
C2 N1 1_555 1_555
H2 C2 1_555 1_555
C3 C4 1_555 1_555
C4 C5 1_555 1_555
C5 H3 1_555 1_555
C6 C5 1_555 1_555
C7 C6 1_555 1_555
H4 C7 1_555 1_555
C8 C7 1_555 1_555
C9 C4 1_555 1_555
H5 C9 1_555 1_555
C10 C8 1_555 1_555
C11 O3 1_555 1_555
H6 C11 1_555 1_555
H7 C11 1_555 1_555
C12 C11 1_555 1_555
C13 C2 1_555 1_555
H8 C13 1_555 1_555
C14 C1 1_555 1_555
H9 C14 1_555 1_555
Cu3 N1 1_555 1_555
Cu4 O4 1_555 1_555
Cu5 O5 1_555 1_555
O7 Cu1 1_555 1_555
N2 Cu1 1_555 1_555
C8 C9 1_555 1_555
C12 C13 1_555 1_555
C12 C14 1_555 1_555
Cu4 Cu5 1_555 1_555
O4_2 C10_2 1_555 1_555
O5_2 C10_2 1_555 1_555
Cu4_2 O4_2 1_555 1_555
Cu1_2 O1_2 1_555 1_555
O1_2 C3_2 1_555 1_555
O2_2 C3_2 1_555 1_555
O3_2 C6_2 1_555 1_555
N1_2 C1_2 1_555 1_555
C1_2 H1_2 1_555 1_555
C2_2 N1_2 1_555 1_555
H2_2 C2_2 1_555 1_555
C3_2 C4_2 1_555 1_555
C4_2 C5_2 1_555 1_555
C5_2 H3_2 1_555 1_555
C6_2 C5_2 1_555 1_555
C7_2 C6_2 1_555 1_555
C8_2 C7_2 1_555 1_555
C9_2 C4_2 1_555 1_555
H5_2 C9_2 1_555 1_555
C11_2 O3_2 1_555 1_555
H6_2 C11_2 1_555 1_555
H7_2 C11_2 1_555 1_555
C12_2 C11_2 1_555 1_555
C13_2 C2_2 1_555 1_555
H8_2 C13_2 1_555 1_555
C14_2 C1_2 1_555 1_555
H9_2 C14_2 1_555 1_555
Cu3 Cu1_2 1_555 1_555
Cu2 N1_2 1_555 1_555
O6_2 Cu1_2 1_555 1_555
O7_2 Cu1_2 1_555 1_555
O8_2 Cu1_2 1_555 1_555
N2_2 Cu1_2 1_555 1_555
O2_2 Cu3 1_555 1_555
C8_2 C9_2 1_555 1_555
C12_2 C13_2 1_555 1_555
C12_2 C14_2 1_555 1_555
Cu2 O1_3 1_555 1_555
O1_3 C3_3 1_555 1_555
O6 C3_3 1_555 1_555
O3_3 C6_3 1_555 1_555
O4_3 C10_3 1_555 1_555
O5_3 C10_3 1_555 1_555
C3_3 C4_3 1_555 1_555
C4_3 C5_3 1_555 1_555
C5_3 H3_3 1_555 1_555
C6_3 C5_3 1_555 1_555
C7_3 C6_3 1_555 1_555
H4_3 C7_3 1_555 1_555
C8_3 C7_3 1_555 1_555
C9_3 C4_3 1_555 1_555
H5_3 C9_3 1_555 1_555
C10_3 C8_3 1_555 1_555
C11_3 O3_3 1_555 1_555
H6_3 C11_3 1_555 1_555
H7_3 C11_3 1_555 1_555
Cu5 O4_3 1_555 1_555
Cu4 O5_3 1_555 1_555
O7_3 Cu2 1_555 1_555
C8_3 C9_3 1_555 1_555
N2_2 C1_3 1_555 1_555
C1_3 H1_3 1_555 1_555
C2_3 N2_2 1_555 1_555
H2_3 C2_3 1_555 1_555
C13_3 C2_3 1_555 1_555
H8_3 C13_3 1_555 1_555
C14_3 C1_3 1_555 1_555
H9_3 C14_3 1_555 1_555
C12_3 C13_3 1_555 1_555
C12_3 C14_3 1_555 1_555
O4_4 C10_4 1_555 1_555
O5_4 C10_4 1_555 1_555
Cu5_2 O4_4 1_555 1_555
N2 C1_4 1_555 1_555
C1_4 H1_4 1_555 1_555
C2_4 N2 1_555 1_555
H2_4 C2_4 1_555 1_555
C13_4 C2_4 1_555 1_555
H8_4 C13_4 1_555 1_555
C14_4 C1_4 1_555 1_555
H9_4 C14_4 1_555 1_555
C12_4 C13_4 1_555 1_555
C12_4 C14_4 1_555 1_555
Cu3 O1_4 1_555 1_555
O1_4 C3_4 1_555 1_555
O6_2 C3_4 1_555 1_555
O3_4 C6_4 1_555 1_555
C3_4 C4_4 1_555 1_555
C4_4 C5_4 1_555 1_555
C5_4 H3_4 1_555 1_555
C6_4 C5_4 1_555 1_555
C7_4 C6_4 1_555 1_555
C8_4 C7_4 1_555 1_555
C9_4 C4_4 1_555 1_555
H5_4 C9_4 1_555 1_555
C11_4 O3_4 1_555 1_555
H6_4 C11_4 1_555 1_555
H7_4 C11_4 1_555 1_555
O7_4 Cu3 1_555 1_555
O8_4 Cu3 1_555 1_555
C8_4 C9_4 1_555 1_555
Cu4_2 O1_5 1_555 1_555
O1_5 C3_5 1_555 1_555
O2_3 C3_5 1_555 1_555
O3_5 C6_5 1_555 1_555
O7_2 C10_5 1_555 1_555
O8_4 C10_5 1_555 1_555
N1_3 C1_5 1_555 1_555
C1_5 H1_5 1_555 1_555
C2_5 N1_3 1_555 1_555
H2_5 C2_5 1_555 1_555
C3_5 C4_5 1_555 1_555
C4_5 C5_5 1_555 1_555
C5_5 H3_5 1_555 1_555
C6_5 C5_5 1_555 1_555
C7_5 C6_5 1_555 1_555
H4_5 C7_5 1_555 1_555
C8_5 C7_5 1_555 1_555
C9_5 C4_5 1_555 1_555
H5_5 C9_5 1_555 1_555
C10_5 C8_5 1_555 1_555
C11_5 O3_5 1_555 1_555
H6_5 C11_5 1_555 1_555
H7_5 C11_5 1_555 1_555
C12_5 C11_5 1_555 1_555
C13_5 C2_5 1_555 1_555
H8_5 C13_5 1_555 1_555
C14_5 C1_5 1_555 1_555
H9_5 C14_5 1_555 1_555
Cu5 N1_3 1_555 1_555
N2_3 Cu4_2 1_555 1_555
C8_5 C9_5 1_555 1_555
C12_5 C13_5 1_555 1_555
C12_5 C14_5 1_555 1_555
Cu4 O1_6 1_555 1_555
O1_6 C3_6 1_555 1_555
O2_4 C3_6 1_555 1_555
O3_6 C6_6 1_555 1_555
N1_4 C1_6 1_555 1_555
C1_6 H1_6 1_555 1_555
C2_6 N1_4 1_555 1_555
H2_6 C2_6 1_555 1_555
C3_6 C4_6 1_555 1_555
C4_6 C5_6 1_555 1_555
C5_6 H3_6 1_555 1_555
C6_6 C5_6 1_555 1_555
C7_6 C6_6 1_555 1_555
C8_6 C7_6 1_555 1_555
C9_6 C4_6 1_555 1_555
H5_6 C9_6 1_555 1_555
C11_6 O3_6 1_555 1_555
H6_6 C11_6 1_555 1_555
H7_6 C11_6 1_555 1_555
C12_6 C11_6 1_555 1_555
C13_6 C2_6 1_555 1_555
H8_6 C13_6 1_555 1_555
C14_6 C1_6 1_555 1_555
H9_6 C14_6 1_555 1_555
Cu5_2 N1_4 1_555 1_555
O6_4 Cu4 1_555 1_555
N2_4 Cu4 1_555 1_555
O2_4 Cu5 1_555 1_555
C8_6 C9_6 1_555 1_555
C12_6 C13_6 1_555 1_555
C12_6 C14_6 1_555 1_555
O7 C10_6 1_555 1_555
O8_3 C10_6 1_555 1_555
N2_4 C1_7 1_555 1_555
C1_7 H1_7 1_555 1_555
C2_7 N2_4 1_555 1_555
H2_7 C2_7 1_555 1_555
C13_7 C2_7 1_555 1_555
H8_7 C13_7 1_555 1_555
C14_7 C1_7 1_555 1_555
H9_7 C14_7 1_555 1_555
C12_7 C13_7 1_555 1_555
C12_7 C14_7 1_555 1_555
Cu5_2 O1_7 1_555 1_555
O1_7 C3_7 1_555 1_555
O6_3 C3_7 1_555 1_555
O3_7 C6_7 1_555 1_555
O7_4 C10_7 1_555 1_555
O8_2 C10_7 1_555 1_555
C3_7 C4_7 1_555 1_555
C4_7 C5_7 1_555 1_555
C5_7 H3_7 1_555 1_555
C6_7 C5_7 1_555 1_555
C7_7 C6_7 1_555 1_555
H4_7 C7_7 1_555 1_555
C8_7 C7_7 1_555 1_555
C9_7 C4_7 1_555 1_555
H5_7 C9_7 1_555 1_555
C10_7 C8_7 1_555 1_555
C11_7 O3_7 1_555 1_555
H6_7 C11_7 1_555 1_555
H7_7 C11_7 1_555 1_555
C8_7 C9_7 1_555 1_555
Cu5 O1_8 1_555 1_555
O1_8 C3_8 1_555 1_555
O6_4 C3_8 1_555 1_555
O3_8 C6_8 1_555 1_555
C3_8 C4_8 1_555 1_555
C4_8 C5_8 1_555 1_555
C5_8 H3_8 1_555 1_555
C6_8 C5_8 1_555 1_555
C7_8 C6_8 1_555 1_555
C8_8 C7_8 1_555 1_555
C9_8 C4_8 1_555 1_555
H5_8 C9_8 1_555 1_555
C11_8 O3_8 1_555 1_555
H6_8 C11_8 1_555 1_555
H7_8 C11_8 1_555 1_555
C8_8 C9_8 1_555 1_555
N2_3 C1_8 1_555 1_555
C1_8 H1_8 1_555 1_555
C2_8 N2_3 1_555 1_555
H2_8 C2_8 1_555 1_555
C13_8 C2_8 1_555 1_555
H8_8 C13_8 1_555 1_555
C14_8 C1_8 1_555 1_555
H9_8 C14_8 1_555 1_555
C12_8 C13_8 1_555 1_555
C12_8 C14_8 1_555 1_555
O7_3 C10_8 1_555 1_555
O8 C10_8 1_555 1_555

#END
