
###############################################################################
#
# This file contains modified crystal structure data generated from the
# MOF subset of the Cambridge Structural Database (CSD) v543 
# hosted by the Cambridge Crystallographic Data Centre (CCDC).
#
# This work is licensed under the Creative Commons
# Attribution-NonCommercial-ShareAlike 4.0 International License.
# To view a copy of this license, visit
# http://creativecommons.org/licenses/by-nc-sa/4.0/
# or send a letter to
# Creative Commons, PO Box 1866, Mountain View, CA 94042, USA.
#
# CIF created using the CSD Python API on 29 September 2022
# The structure has been converted into the P1 space group
# The structure has a 3D framework
# The original CSD entry OHAGOV is in the monoclinic crystal system
# The framework has been calculated to contain at least 10.0% void space
# The void calculation uses a probe of radius 1.32A, grid spacing 0.4
#
###############################################################################

data_OHAGOV
_chemical_formula_moiety         '(C40 H20 Cu2 N12 O16)n'
_symmetry_cell_setting           triclinic
_symmetry_space_group_name_H-M   'P 1'
_symmetry_Int_Tables_number      1
_space_group_name_Hall           'P 1'
loop_
_symmetry_equiv_pos_site_id
_symmetry_equiv_pos_as_xyz
1 x,y,z
_cell_length_a                   10.884(5)
_cell_length_b                   12.049(6)
_cell_length_c                   14.338(7)
_cell_angle_alpha                90
_cell_angle_beta                 109.552(7)
_cell_angle_gamma                90
_cell_volume                     1771.88
loop_
_atom_site_label
_atom_site_type_symbol
_atom_site_fract_x
_atom_site_fract_y
_atom_site_fract_z
Cu1 Cu 0.09808(7) 0.57435(6) 0.02657(5)
O1 O 0.1753(5) 0.4726(4) 0.1390(3)
O2 O 0.1747(4) 0.0214(4) 0.4499(4)
O3 O 0.0089(4) 0.3523(4) 0.0966(4)
O4 O 0.0093(4) 0.1426(4) 0.4023(3)
C1 C 0.1198(6) 0.3879(6) 0.1491(5)
C2 C 0.1197(6) 0.1081(5) 0.4066(5)
C3 C 0.1918(7) 0.1754(6) 0.3552(6)
C4 C 0.1276(6) 0.2427(4) 0.2780(4)
H1 H 0.0350 0.2404 0.2531
C5 C 0.1917(7) 0.3144(6) 0.2344(6)
C6 C 0.3288(7) 0.3124(6) 0.2694(6)
H2 H 0.3771 0.3590 0.2410
C7 C 0.3917(6) 0.2412(5) 0.3459(5)
C8 C 0.3260(7) 0.1713(6) 0.3888(5)
H3 H 0.3718 0.1215 0.4400
C9 C 0.6149(6) 0.1518(5) 0.4029(4)
H4 H 0.5875 0.0765 0.3964
N1 N 0.5334(5) 0.2414(4) 0.3816(4)
N2 N 0.7356(5) 0.1848(4) 0.4333(4)
N3 N 0.7374(5) 0.3026(4) 0.4330(4)
C10 C 0.6138(6) 0.3305(5) 0.4003(5)
H5 H 0.5840 0.4051 0.3908
Cu3 Cu 0.90192(7) 0.07435(6) 0.47343(5)
N4 N 0.2644(5) 0.6848(4) 0.0667(4)
O5 O 0.1747(4) 0.4786(4) 0.9499(4)
Cu5 Cu 0.09808(7) 0.92565(6) 0.52657(5)
O7 O 0.9907(4) 0.6426(4) 0.0977(3)
Cu4 Cu 0.90192(7) 0.42565(6) 0.97343(5)
O6 O 0.9911(4) 0.6477(4) 0.9034(4)
O6_2 O 0.0089(4) 0.1477(4) 0.5966(4)
O1_2 O 0.8247(5) 0.9726(4) 0.3610(3)
O2_2 O 0.8253(4) 0.5214(4) 0.0501(4)
O3_2 O 0.9911(4) 0.8523(4) 0.4034(4)
C1_2 C 0.8802(6) 0.8879(6) 0.3509(5)
C2_2 C 0.8803(6) 0.6081(5) 0.0934(5)
C3_2 C 0.8082(7) 0.6754(6) 0.1448(6)
C4_2 C 0.8724(6) 0.7427(4) 0.2220(4)
H1_2 H 0.9650 0.7404 0.2469
C5_2 C 0.8083(7) 0.8144(6) 0.2656(6)
C6_2 C 0.6712(7) 0.8124(6) 0.2306(6)
H2_2 H 0.6229 0.8590 0.2590
C7_2 C 0.6083(6) 0.7412(5) 0.1541(5)
C8_2 C 0.6740(7) 0.6713(6) 0.1112(5)
H3_2 H 0.6282 0.6215 0.0600
C9_2 C 0.3851(6) 0.6518(5) 0.0971(4)
H4_2 H 0.4125 0.5765 0.1036
N1_2 N 0.4666(5) 0.7414(4) 0.1184(4)
N3_2 N 0.2626(5) 0.8026(4) 0.0670(4)
C10_2 C 0.3862(6) 0.8305(5) 0.0997(5)
H5_2 H 0.4160 0.9051 0.1092
O5_2 O 0.8253(4) 0.9786(4) 0.5501(4)
O7_2 O 0.0093(4) 0.3574(4) 0.9023(3)
O1_3 O 0.8247(5) 0.5274(4) 0.8610(3)
O4_2 O 0.9907(4) 0.8574(4) 0.5977(3)
C1_3 C 0.8802(6) 0.6121(6) 0.8509(5)
C2_3 C 0.8803(6) 0.8919(5) 0.5934(5)
C3_3 C 0.8082(7) 0.8246(6) 0.6448(6)
C4_3 C 0.8724(6) 0.7573(4) 0.7220(4)
H1_3 H 0.9650 0.7596 0.7469
C5_3 C 0.8083(7) 0.6856(6) 0.7656(6)
C6_3 C 0.6712(7) 0.6876(6) 0.7306(6)
H2_3 H 0.6229 0.6410 0.7590
C7_3 C 0.6083(6) 0.7588(5) 0.6541(5)
C8_3 C 0.6740(7) 0.8287(6) 0.6112(5)
H3_3 H 0.6282 0.8785 0.5600
C9_3 C 0.3851(6) 0.8482(5) 0.5971(4)
H4_3 H 0.4125 0.9235 0.6036
N1_3 N 0.4666(5) 0.7586(4) 0.6184(4)
N2_2 N 0.2644(5) 0.8152(4) 0.5667(4)
N3_3 N 0.2626(5) 0.6974(4) 0.5670(4)
C10_3 C 0.3862(6) 0.6695(5) 0.5997(5)
H5_3 H 0.4160 0.5949 0.6092
N4_2 N 0.7356(5) 0.3152(4) 0.9333(4)
O1_4 O 0.1753(5) 0.0274(4) 0.6390(3)
C1_4 C 0.1198(6) 0.1121(6) 0.6491(5)
C2_4 C 0.1197(6) 0.3919(5) 0.9066(5)
C3_4 C 0.1918(7) 0.3246(6) 0.8552(6)
C4_4 C 0.1276(6) 0.2573(4) 0.7780(4)
H1_4 H 0.0350 0.2596 0.7531
C5_4 C 0.1917(7) 0.1856(6) 0.7344(6)
C6_4 C 0.3288(7) 0.1876(6) 0.7694(6)
H2_4 H 0.3771 0.1410 0.7410
C7_4 C 0.3917(6) 0.2588(5) 0.8459(5)
C8_4 C 0.3260(7) 0.3287(6) 0.8888(5)
H3_4 H 0.3718 0.3785 0.9400
C9_4 C 0.6149(6) 0.3482(5) 0.9029(4)
H4_4 H 0.5875 0.4235 0.8964
N1_4 N 0.5334(5) 0.2586(4) 0.8816(4)
N3_4 N 0.7374(5) 0.1974(4) 0.9330(4)
C10_4 C 0.6138(6) 0.1695(5) 0.9003(5)
H5_4 H 0.5840 0.0949 0.8908
loop_
_geom_bond_atom_site_label_1
_geom_bond_atom_site_label_2
_geom_bond_site_symmetry_1
_geom_bond_site_symmetry_2
Cu1 O1 1_555 1_555
O1 C1 1_555 1_555
O2 C2 1_555 1_555
O3 C1 1_555 1_555
O4 C2 1_555 1_555
C1 C5 1_555 1_555
C2 C3 1_555 1_555
C3 C4 1_555 1_555
C4 H1 1_555 1_555
C5 C4 1_555 1_555
C6 C5 1_555 1_555
H2 C6 1_555 1_555
C7 C6 1_555 1_555
C8 C3 1_555 1_555
H3 C8 1_555 1_555
C9 H4 1_555 1_555
N1 C7 1_555 1_555
N2 C9 1_555 1_555
N3 N2 1_555 1_555
C10 N1 1_555 1_555
H5 C10 1_555 1_555
Cu3 N2 1_555 1_555
N4 Cu1 1_555 1_555
C7 C8 1_555 1_555
C9 N1 1_555 1_555
N3 C10 1_555 1_555
O1_2 C1_2 1_555 1_555
O2_2 C2_2 1_555 1_555
O3_2 C1_2 1_555 1_555
O7 C2_2 1_555 1_555
C1_2 C5_2 1_555 1_555
C2_2 C3_2 1_555 1_555
C3_2 C4_2 1_555 1_555
C4_2 H1_2 1_555 1_555
C5_2 C4_2 1_555 1_555
C6_2 C5_2 1_555 1_555
H2_2 C6_2 1_555 1_555
C7_2 C6_2 1_555 1_555
C8_2 C3_2 1_555 1_555
H3_2 C8_2 1_555 1_555
C9_2 H4_2 1_555 1_555
N1_2 C7_2 1_555 1_555
N4 C9_2 1_555 1_555
N3_2 N4 1_555 1_555
C10_2 N1_2 1_555 1_555
H5_2 C10_2 1_555 1_555
C7_2 C8_2 1_555 1_555
C9_2 N1_2 1_555 1_555
N3_2 C10_2 1_555 1_555
Cu4 O1_3 1_555 1_555
O1_3 C1_3 1_555 1_555
O5_2 C2_3 1_555 1_555
O6 C1_3 1_555 1_555
O4_2 C2_3 1_555 1_555
C1_3 C5_3 1_555 1_555
C2_3 C3_3 1_555 1_555
C3_3 C4_3 1_555 1_555
C4_3 H1_3 1_555 1_555
C5_3 C4_3 1_555 1_555
C6_3 C5_3 1_555 1_555
H2_3 C6_3 1_555 1_555
C7_3 C6_3 1_555 1_555
C8_3 C3_3 1_555 1_555
H3_3 C8_3 1_555 1_555
C9_3 H4_3 1_555 1_555
N1_3 C7_3 1_555 1_555
N2_2 C9_3 1_555 1_555
N3_3 N2_2 1_555 1_555
C10_3 N1_3 1_555 1_555
H5_3 C10_3 1_555 1_555
Cu5 N2_2 1_555 1_555
N4_2 Cu4 1_555 1_555
C7_3 C8_3 1_555 1_555
C9_3 N1_3 1_555 1_555
N3_3 C10_3 1_555 1_555
O1_4 C1_4 1_555 1_555
O5 C2_4 1_555 1_555
O6_2 C1_4 1_555 1_555
O7_2 C2_4 1_555 1_555
C1_4 C5_4 1_555 1_555
C2_4 C3_4 1_555 1_555
C3_4 C4_4 1_555 1_555
C4_4 H1_4 1_555 1_555
C5_4 C4_4 1_555 1_555
C6_4 C5_4 1_555 1_555
H2_4 C6_4 1_555 1_555
C7_4 C6_4 1_555 1_555
C8_4 C3_4 1_555 1_555
H3_4 C8_4 1_555 1_555
C9_4 H4_4 1_555 1_555
N1_4 C7_4 1_555 1_555
N4_2 C9_4 1_555 1_555
N3_4 N4_2 1_555 1_555
C10_4 N1_4 1_555 1_555
H5_4 C10_4 1_555 1_555
C7_4 C8_4 1_555 1_555
C9_4 N1_4 1_555 1_555
N3_4 C10_4 1_555 1_555

#END
