
###############################################################################
#
# This file contains modified crystal structure data generated from the
# MOF subset of the Cambridge Structural Database (CSD) v543 
# hosted by the Cambridge Crystallographic Data Centre (CCDC).
#
# This work is licensed under the Creative Commons
# Attribution-NonCommercial-ShareAlike 4.0 International License.
# To view a copy of this license, visit
# http://creativecommons.org/licenses/by-nc-sa/4.0/
# or send a letter to
# Creative Commons, PO Box 1866, Mountain View, CA 94042, USA.
#
# CIF created using the CSD Python API on 29 September 2022
# The structure has been converted into the P1 space group
# The structure has a 3D framework
# The original CSD entry OHAGEL is in the rhombohedral crystal system
# The framework has been calculated to contain at least 10.0% void space
# The void calculation uses a probe of radius 1.32A, grid spacing 0.4
#
###############################################################################

data_OHAGEL
_chemical_formula_moiety         '(C252 H162 Cu18 N18 O90)n'
_symmetry_cell_setting           triclinic
_symmetry_space_group_name_H-M   'P 1'
_symmetry_Int_Tables_number      1
_space_group_name_Hall           'P 1'
loop_
_symmetry_equiv_pos_site_id
_symmetry_equiv_pos_as_xyz
1 x,y,z
_cell_length_a                   18.456(16)
_cell_length_b                   18.456(16)
_cell_length_c                   34.59(3)
_cell_angle_alpha                90
_cell_angle_beta                 90
_cell_angle_gamma                120
_cell_volume                     10203.7
loop_
_atom_site_label
_atom_site_type_symbol
_atom_site_fract_x
_atom_site_fract_y
_atom_site_fract_z
C10 C 0.4536(11) 0.2126(11) 0.0128(5)
C11 C 0.4218(14) 0.1858(14) 0.0494(5)
H6 H 0.3699 0.1349 0.0512
N1 N 0.4579(11) 0.2257(11) 0.0837(5)
C12 C 0.5272(14) 0.2987(13) 0.0781(6)
H7 H 0.5544 0.3290 0.1008
C13 C 0.5655(14) 0.3368(13) 0.0431(6)
H8 H 0.6149 0.3899 0.0413
C14 C 0.5223(13) 0.2874(12) 0.0106(5)
Cu3 Cu 0.3810(3) 0.1897(2) 0.13568(8)
O3 O 0.1899(8) 0.2261(11) 0.8291(4)
O4 O 0.2277(8) 0.3053(11) 0.8835(4)
O5 O 0.3685(11) 0.1977(11) 0.9637(5)
C1 C 0.2164(13) 0.2419(19) 0.8623(6)
C3 C 0.2475(14) 0.1922(14) 0.8814(6)
C4 C 0.2966(12) 0.2116(13) 0.9139(6)
H1 H 0.3132 0.2636 0.9262
C5 C 0.3235(13) 0.1602(12) 0.9298(6)
C6 C 0.3018(14) 0.0828(13) 0.9156(6)
H2 H 0.3206 0.0482 0.9269
C7 C 0.2459(13) 0.0570(14) 0.8809(6)
C8 C 0.2228(13) 0.1153(13) 0.8631(6)
H3 H 0.1916 0.1011 0.8398
C9 C 0.4077(14) 0.1585(13) 0.9779(5)
H4 H 0.4473 0.1577 0.9588
H5 H 0.3672 0.1004 0.9857
H9 H 0.5437 0.3090 0.9856
Cu2 Cu 0.1421(2) 0.2857(3) 0.80235(8)
Cu5 Cu 0.1912(2) 0.3810(3) 0.86432(8)
Cu1 Cu 0.1436(2) 0.8579(2) 0.80235(8)
O1 O 0.1832(8) 0.9637(8) 0.8300(4)
O2 O 0.2278(9) 0.9252(9) 0.8829(4)
C2 C 0.2145(15) 0.9750(15) 0.8616(7)
Cu4 Cu 0.1897(2) 0.8088(2) 0.86432(8)
O6 O 0.1055(9) 0.7415(9) 0.7838(4)
O7 O 0.0362(14) 0.8101(8) 0.8291(4)
O8 O 0.2557(14) 0.8944(8) 0.7832(4)
N2 N 0.1076(11) 0.8989(16) 0.7504(5)
O1_2 O 0.0363(8) 0.2195(11) 0.8300(4)
O2_2 O 0.0748(9) 0.3026(13) 0.8829(4)
C2_2 C 0.0250(15) 0.2395(21) 0.8616(7)
O6_2 O 0.2585(9) 0.3641(13) 0.7838(4)
O8_2 O 0.1056(8) 0.3614(16) 0.7832(4)
N2_2 N 0.1011(16) 0.2088(19) 0.7504(5)
C10_2 C 0.7874(11) 0.2410(16) 0.0128(5)
C11_2 C 0.8142(14) 0.2360(20) 0.0494(5)
H6_2 H 0.8651 0.2350 0.0512
N1_2 N 0.7743(11) 0.2322(16) 0.0837(5)
C12_2 C 0.7013(13) 0.2285(19) 0.0781(6)
H7_2 H 0.6710 0.2254 0.1008
C13_2 C 0.6632(13) 0.2287(19) 0.0431(6)
H8_2 H 0.6101 0.2250 0.0413
C14_2 C 0.7126(12) 0.2349(18) 0.0106(5)
Cu3_2 Cu 0.8103(2) 0.1912(4) 0.13568(8)
O3_2 O 0.7739(11) 0.9638(14) 0.8291(4)
O4_2 O 0.6947(11) 0.9224(14) 0.8835(4)
C1_2 C 0.7581(19) 0.9745(23) 0.8623(6)
Cu2_2 Cu 0.7143(3) 0.8564(4) 0.80235(8)
Cu5_2 Cu 0.6190(3) 0.8103(4) 0.86432(8)
O4_3 O 0.0776(14) 0.7723(8) 0.8835(4)
C1_3 C 0.0255(23) 0.7836(13) 0.8623(6)
C10_3 C 0.7590(16) 0.5464(11) 0.0128(5)
C11_3 C 0.7640(20) 0.5782(14) 0.0494(5)
H6_3 H 0.7650 0.6301 0.0512
N1_3 N 0.7678(16) 0.5421(11) 0.0837(5)
C12_3 C 0.7715(19) 0.4728(14) 0.0781(6)
H7_3 H 0.7746 0.4456 0.1008
C13_3 C 0.7713(19) 0.4345(14) 0.0431(6)
H8_3 H 0.7750 0.3851 0.0413
C14_3 C 0.7651(18) 0.4777(13) 0.0106(5)
Cu3_3 Cu 0.8088(4) 0.6190(3) 0.13568(8)
O1_3 O 0.7805(11) 0.8168(8) 0.8300(4)
O2_3 O 0.6974(13) 0.7722(9) 0.8829(4)
O5_2 O 0.8292(16) 0.6315(11) 0.9637(5)
C2_3 C 0.7605(21) 0.7855(15) 0.8616(7)
C3_2 C 0.9447(20) 0.7525(14) 0.8814(6)
C4_2 C 0.9150(18) 0.7034(12) 0.9139(6)
H1_2 H 0.9504 0.6868 0.9262
C5_2 C 0.8367(18) 0.6765(13) 0.9298(6)
C6_2 C 0.7810(19) 0.6982(14) 0.9156(6)
H2_2 H 0.7276 0.6794 0.9269
C7_2 C 0.8111(19) 0.7541(13) 0.8809(6)
C8_2 C 0.8925(18) 0.7772(13) 0.8631(6)
H3_2 H 0.9095 0.8084 0.8398
C9_2 C 0.7508(19) 0.5923(14) 0.9779(5)
H4_2 H 0.7104 0.5527 0.9588
H5_2 H 0.7332 0.6328 0.9857
H9_2 H 0.7653 0.4563 0.9856
O6_3 O 0.6359(13) 0.8945(9) 0.7838(4)
O8_3 O 0.6386(16) 0.7443(14) 0.7832(4)
N2_3 N 0.7912(19) 0.8924(11) 0.7504(5)
O5_3 O 0.0352(11) 0.5310(11) 0.2970(5)
C9_3 C 0.0744(14) 0.4918(13) 0.3112(5)
H4_3 H 0.1140 0.4910 0.2921
H5_3 H 0.0339 0.4337 0.3190
C10_4 C 0.1203(11) 0.5459(11) 0.3461(5)
C11_4 C 0.0885(14) 0.5191(14) 0.3827(5)
H6_4 H 0.0366 0.4682 0.3845
N1_4 N 0.1246(11) 0.5590(11) 0.4170(5)
C12_4 C 0.1939(14) 0.6320(13) 0.4114(6)
H7_4 H 0.2211 0.6623 0.4341
C13_4 C 0.2322(14) 0.6701(13) 0.3764(6)
H8_4 H 0.2816 0.7232 0.3746
C14_4 C 0.1890(13) 0.6207(12) 0.3439(5)
H9_3 H 0.2104 0.6423 0.3189
Cu3_4 Cu 0.0476(3) 0.5231(2) 0.46902(8)
O1_4 O 0.8499(8) 0.2970(8) 0.1633(4)
O2_4 O 0.8945(9) 0.2585(9) 0.2162(4)
O3_3 O 0.8566(8) 0.5594(11) 0.1624(4)
O4_4 O 0.8944(8) 0.6386(11) 0.2168(4)
C1_4 C 0.8831(13) 0.5752(19) 0.1956(6)
C2_4 C 0.8812(15) 0.3083(15) 0.1949(7)
C3_3 C 0.9142(14) 0.5255(14) 0.2147(6)
C4_3 C 0.9633(12) 0.5449(13) 0.2472(6)
H1_3 H 0.9799 0.5969 0.2595
C5_3 C 0.9902(13) 0.4935(12) 0.2631(6)
C6_3 C 0.9685(14) 0.4161(13) 0.2489(6)
H2_3 H 0.9873 0.3815 0.2602
C7_3 C 0.9126(13) 0.3903(14) 0.2142(6)
C8_3 C 0.8895(13) 0.4486(13) 0.1964(6)
H3_3 H 0.8583 0.4344 0.1731
Cu4_2 Cu 0.8564(2) 0.1421(2) 0.19765(8)
Cu5_3 Cu 0.8579(2) 0.7143(3) 0.19765(8)
O6_4 O 0.7722(9) 0.0748(9) 0.1171(4)
O7_2 O 0.7029(14) 0.1434(8) 0.1624(4)
O8_4 O 0.9224(14) 0.2277(8) 0.1165(4)
O1_5 O 0.7030(8) 0.5528(11) 0.1633(4)
O2_5 O 0.7415(9) 0.6359(13) 0.2162(4)
O3_4 O 0.4406(11) 0.2971(14) 0.1624(4)
O4_5 O 0.3614(11) 0.2557(14) 0.2168(4)
O5_4 O 0.4690(11) 0.5041(16) 0.2970(5)
C1_5 C 0.4248(19) 0.3078(23) 0.1956(6)
C2_5 C 0.6917(15) 0.5728(21) 0.1949(7)
C3_4 C 0.4745(14) 0.3886(20) 0.2147(6)
C4_4 C 0.4551(13) 0.4183(18) 0.2472(6)
H1_4 H 0.4031 0.3829 0.2595
C5_4 C 0.5065(12) 0.4966(18) 0.2631(6)
C6_4 C 0.5839(13) 0.5523(19) 0.2489(6)
H2_4 H 0.6185 0.6057 0.2602
C7_4 C 0.6097(14) 0.5222(19) 0.2142(6)
C8_4 C 0.5514(13) 0.4408(18) 0.1964(6)
H3_4 H 0.5656 0.4238 0.1731
C9_4 C 0.5082(13) 0.5825(19) 0.3112(5)
H4_4 H 0.5090 0.6229 0.2921
H5_4 H 0.5663 0.6001 0.3190
C10_5 C 0.4541(11) 0.5743(16) 0.3461(5)
C11_5 C 0.4809(14) 0.5693(20) 0.3827(5)
H6_5 H 0.5318 0.5683 0.3845
N1_5 N 0.4410(11) 0.5655(16) 0.4170(5)
C12_5 C 0.3680(13) 0.5618(19) 0.4114(6)
H7_5 H 0.3377 0.5587 0.4341
C13_5 C 0.3299(13) 0.5620(19) 0.3764(6)
H8_5 H 0.2768 0.5583 0.3746
C14_5 C 0.3793(12) 0.5682(18) 0.3439(5)
H9_4 H 0.3577 0.5680 0.3189
Cu3_5 Cu 0.4769(2) 0.5246(4) 0.46902(8)
Cu5_4 Cu 0.2857(3) 0.1436(4) 0.19765(8)
O6_5 O 0.9252(9) 0.6974(13) 0.1171(4)
O8_5 O 0.7723(8) 0.6947(16) 0.1165(4)
O1_6 O 0.4472(11) 0.1501(8) 0.1633(4)
O2_6 O 0.3641(13) 0.1055(9) 0.2162(4)
O4_6 O 0.7443(14) 0.1056(8) 0.2168(4)
C1_6 C 0.6922(23) 0.1169(13) 0.1956(6)
C2_6 C 0.4272(21) 0.1188(15) 0.1949(7)
C3_5 C 0.6114(20) 0.0858(14) 0.2147(6)
C4_5 C 0.5817(18) 0.0367(12) 0.2472(6)
H1_5 H 0.6171 0.0201 0.2595
C5_5 C 0.5034(18) 0.0098(13) 0.2631(6)
C6_5 C 0.4477(19) 0.0315(14) 0.2489(6)
H2_5 H 0.3943 0.0127 0.2602
C7_5 C 0.4778(19) 0.0874(13) 0.2142(6)
C8_5 C 0.5592(18) 0.1105(13) 0.1964(6)
H3_5 H 0.5762 0.1417 0.1731
O6_6 O 0.3026(13) 0.2278(9) 0.1171(4)
O8_6 O 0.3053(16) 0.0776(14) 0.1165(4)
O5_5 O 0.4959(16) 0.9648(11) 0.2970(5)
C9_5 C 0.4175(19) 0.9256(14) 0.3112(5)
H4_5 H 0.3771 0.8860 0.2921
H5_5 H 0.3999 0.9661 0.3190
C10_6 C 0.4257(16) 0.8797(11) 0.3461(5)
C11_6 C 0.4307(20) 0.9115(14) 0.3827(5)
H6_6 H 0.4317 0.9634 0.3845
N1_6 N 0.4345(16) 0.8754(11) 0.4170(5)
C12_6 C 0.4382(19) 0.8061(14) 0.4114(6)
H7_6 H 0.4413 0.7789 0.4341
C13_6 C 0.4380(19) 0.7678(14) 0.3764(6)
H8_6 H 0.4417 0.7184 0.3746
C14_6 C 0.4318(18) 0.8110(13) 0.3439(5)
H9_5 H 0.4320 0.7896 0.3189
Cu3_6 Cu 0.4754(4) 0.9524(3) 0.46902(8)
C13_7 C 0.8988(14) 0.0035(13) 0.7098(6)
H8_7 H 0.9482 0.0566 0.7080
Cu5_5 Cu 0.5246(2) 0.0476(3) 0.53098(8)
O1_7 O 0.5165(8) 0.6304(8) 0.4967(4)
O2_7 O 0.5611(9) 0.5919(9) 0.5496(4)
O3_5 O 0.5232(8) 0.8928(11) 0.4958(4)
O4_7 O 0.5610(8) 0.9720(11) 0.5502(4)
O5_6 O 0.7018(11) 0.8644(11) 0.6304(5)
C1_7 C 0.5497(13) 0.9086(19) 0.5290(6)
C2_7 C 0.5478(15) 0.6417(15) 0.5283(7)
C3_6 C 0.5808(14) 0.8589(14) 0.5481(6)
C4_6 C 0.6299(12) 0.8783(13) 0.5806(6)
H1_6 H 0.6465 0.9303 0.5929
C5_6 C 0.6568(13) 0.8269(12) 0.5965(6)
C6_6 C 0.6351(14) 0.7495(13) 0.5823(6)
H2_6 H 0.6539 0.7149 0.5936
C7_6 C 0.5792(13) 0.7237(14) 0.5476(6)
C8_6 C 0.5561(13) 0.7820(13) 0.5298(6)
H3_6 H 0.5249 0.7678 0.5065
C9_6 C 0.7410(14) 0.8252(13) 0.6446(5)
H4_6 H 0.7806 0.8244 0.6255
H5_6 H 0.7005 0.7671 0.6524
C10_7 C 0.7869(11) 0.8793(11) 0.6795(5)
C11_7 C 0.7551(14) 0.8525(14) 0.7161(5)
H6_7 H 0.7032 0.8016 0.7179
C12_7 C 0.8605(14) 0.9654(13) 0.7448(6)
H7_7 H 0.8877 0.9957 0.7675
C14_7 C 0.8556(13) 0.9541(12) 0.6773(5)
H9_6 H 0.8770 0.9757 0.6523
Cu4_3 Cu 0.5231(2) 0.4754(2) 0.53098(8)
O6_7 O 0.4389(9) 0.4081(9) 0.4504(4)
O7_3 O 0.3695(14) 0.4768(8) 0.4958(4)
O8_7 O 0.5891(14) 0.5610(8) 0.4498(4)
O6_8 O 0.5919(9) 0.0307(13) 0.4504(4)
O8_8 O 0.4390(8) 0.0280(16) 0.4498(4)
O1_8 O 0.3696(8) 0.8862(11) 0.4967(4)
O2_8 O 0.4081(9) 0.9693(13) 0.5496(4)
O3_6 O 0.1072(11) 0.6305(14) 0.4958(4)
O4_8 O 0.0280(11) 0.5891(14) 0.5502(4)
O5_7 O 0.1356(11) 0.8375(16) 0.6304(5)
C1_8 C 0.0914(19) 0.6412(23) 0.5290(6)
C2_8 C 0.3583(15) 0.9062(21) 0.5283(7)
C3_7 C 0.1411(14) 0.7220(20) 0.5481(6)
C4_7 C 0.1217(13) 0.7517(18) 0.5806(6)
H1_7 H 0.0697 0.7163 0.5929
C5_7 C 0.1731(12) 0.8300(18) 0.5965(6)
C6_7 C 0.2505(13) 0.8857(19) 0.5823(6)
H2_7 H 0.2851 0.9391 0.5936
C7_7 C 0.2763(14) 0.8556(19) 0.5476(6)
C8_7 C 0.2180(13) 0.7742(18) 0.5298(6)
H3_7 H 0.2322 0.7572 0.5065
C9_7 C 0.1748(13) 0.9159(19) 0.6446(5)
H4_7 H 0.1756 0.9563 0.6255
H5_7 H 0.2329 0.9335 0.6524
C10_8 C 0.1207(11) 0.9077(16) 0.6795(5)
C11_8 C 0.1475(14) 0.9027(20) 0.7161(5)
H6_8 H 0.1984 0.9017 0.7179
C12_8 C 0.0346(13) 0.8952(19) 0.7448(6)
H7_8 H 0.0043 0.8921 0.7675
C14_8 C 0.0459(12) 0.9016(18) 0.6773(5)
H9_7 H 0.0243 0.9014 0.6523
C13_8 C 0.9965(13) 0.8954(19) 0.7098(6)
H8_8 H 0.9434 0.8917 0.7080
Cu5_6 Cu 0.9524(3) 0.4769(4) 0.53098(8)
O1_9 O 0.1138(11) 0.4835(8) 0.4967(4)
O2_9 O 0.0307(13) 0.4389(9) 0.5496(4)
O4_9 O 0.4109(14) 0.4390(8) 0.5502(4)
O5_8 O 0.1625(16) 0.2982(11) 0.6304(5)
C1_9 C 0.3588(23) 0.4503(13) 0.5290(6)
C2_9 C 0.0938(21) 0.4522(15) 0.5283(7)
C3_8 C 0.2780(20) 0.4192(14) 0.5481(6)
C4_8 C 0.2483(18) 0.3701(12) 0.5806(6)
H1_8 H 0.2837 0.3535 0.5929
C5_8 C 0.1700(18) 0.3432(13) 0.5965(6)
C6_8 C 0.1143(19) 0.3649(14) 0.5823(6)
H2_8 H 0.0609 0.3461 0.5936
C7_8 C 0.1444(19) 0.4208(13) 0.5476(6)
C8_8 C 0.2258(18) 0.4439(13) 0.5298(6)
H3_8 H 0.2428 0.4751 0.5065
C9_8 C 0.0841(19) 0.2590(14) 0.6446(5)
H4_8 H 0.0437 0.2194 0.6255
H5_8 H 0.0665 0.2995 0.6524
C10_9 C 0.0923(16) 0.2131(11) 0.6795(5)
C11_9 C 0.0973(20) 0.2449(14) 0.7161(5)
H6_9 H 0.0983 0.2968 0.7179
C12_9 C 0.1048(19) 0.1395(14) 0.7448(6)
H7_9 H 0.1079 0.1123 0.7675
C13_9 C 0.1046(19) 0.1012(14) 0.7098(6)
H8_9 H 0.1083 0.0518 0.7080
C14_9 C 0.0984(18) 0.1444(13) 0.6773(5)
H9_8 H 0.0986 0.1230 0.6523
O6_9 O 0.9693(13) 0.5611(9) 0.4504(4)
O8_9 O 0.9720(16) 0.4109(14) 0.4498(4)
O1_10 O 0.8168(8) 0.0363(8) 0.1700(4)
C2_10 C 0.7855(15) 0.0250(15) 0.1384(7)
O7_4 O 0.9638(14) 0.1899(8) 0.1709(4)
N2_4 N 0.8924(11) 0.1011(16) 0.2496(5)
O3_7 O 0.8101(8) 0.7739(11) 0.1709(4)
O5_9 O 0.6315(11) 0.8023(11) 0.0363(5)
C1_10 C 0.7836(13) 0.7581(19) 0.1377(6)
C3_9 C 0.7525(14) 0.8078(14) 0.1186(6)
C4_9 C 0.7034(12) 0.7884(13) 0.0861(6)
H1_9 H 0.6868 0.7364 0.0738
C5_9 C 0.6765(13) 0.8398(12) 0.0702(6)
C6_9 C 0.6982(14) 0.9172(13) 0.0844(6)
H2_9 H 0.6794 0.9518 0.0731
C7_9 C 0.7541(13) 0.9430(14) 0.1191(6)
C8_9 C 0.7772(13) 0.8847(13) 0.1369(6)
H3_9 H 0.8084 0.8989 0.1602
C9_9 C 0.5923(14) 0.8415(13) 0.0221(5)
H4_9 H 0.5527 0.8423 0.0412
H5_9 H 0.6328 0.8996 0.0143
H9_9 H 0.4563 0.6910 0.0144
C10_10 C 0.5464(11) 0.7874(11) 0.9872(5)
C11_10 C 0.5782(14) 0.8142(14) 0.9506(5)
H6_10 H 0.6301 0.8651 0.9488
N1_7 N 0.5421(11) 0.7743(11) 0.9163(5)
C12_10 C 0.4728(14) 0.7013(13) 0.9219(6)
H7_10 H 0.4456 0.6710 0.8992
C13_10 C 0.4345(14) 0.6632(13) 0.9569(6)
H8_10 H 0.3851 0.6101 0.9587
C14_10 C 0.4777(13) 0.7126(12) 0.9894(5)
O3_8 O 0.2261(11) 0.0362(14) 0.1709(4)
C1_11 C 0.2419(19) 0.0255(23) 0.1377(6)
C10_11 C 0.2126(11) 0.7590(16) 0.9872(5)
C11_11 C 0.1858(14) 0.7640(20) 0.9506(5)
H6_11 H 0.1349 0.7650 0.9488
N1_8 N 0.2257(11) 0.7678(16) 0.9163(5)
C12_11 C 0.2987(13) 0.7715(19) 0.9219(6)
H7_11 H 0.3290 0.7746 0.8992
C13_11 C 0.3368(13) 0.7713(19) 0.9569(6)
H8_11 H 0.3899 0.7750 0.9587
C14_11 C 0.2874(12) 0.7651(18) 0.9894(5)
O1_11 O 0.9637(8) 0.7805(11) 0.1700(4)
C2_11 C 0.9750(15) 0.7605(21) 0.1384(7)
N2_5 N 0.8989(16) 0.7912(19) 0.2496(5)
O1_12 O 0.2195(11) 0.1832(8) 0.1700(4)
O5_10 O 0.1708(16) 0.3685(11) 0.0363(5)
C2_12 C 0.2395(21) 0.2145(15) 0.1384(7)
C3_10 C 0.0553(20) 0.2475(14) 0.1186(6)
C4_10 C 0.0850(18) 0.2966(12) 0.0861(6)
H1_10 H 0.0496 0.3132 0.0738
C5_10 C 0.1633(18) 0.3235(13) 0.0702(6)
C6_10 C 0.2190(19) 0.3018(14) 0.0844(6)
H2_10 H 0.2724 0.3206 0.0731
C7_10 C 0.1889(19) 0.2459(13) 0.1191(6)
C8_10 C 0.1075(18) 0.2228(13) 0.1369(6)
H3_10 H 0.0905 0.1916 0.1602
C9_10 C 0.2492(19) 0.4077(14) 0.0221(5)
H4_10 H 0.2896 0.4473 0.0412
H5_10 H 0.2668 0.3672 0.0143
H9_10 H 0.2347 0.5437 0.0144
N2_6 N 0.2088(19) 0.1076(11) 0.2496(5)
C10_12 C 0.2410(16) 0.4536(11) 0.9872(5)
C11_12 C 0.2360(20) 0.4218(14) 0.9506(5)
H6_12 H 0.2350 0.3699 0.9488
N1_9 N 0.2322(16) 0.4579(11) 0.9163(5)
C12_12 C 0.2285(19) 0.5272(14) 0.9219(6)
H7_12 H 0.2254 0.5544 0.8992
C13_12 C 0.2287(19) 0.5655(14) 0.9569(6)
H8_12 H 0.2250 0.6149 0.9587
C14_12 C 0.2349(18) 0.5223(13) 0.9894(5)
C1_12 C 0.9745(23) 0.2164(13) 0.1377(6)
O1_13 O 0.1501(8) 0.7030(8) 0.8367(4)
O3_9 O 0.1434(8) 0.4406(11) 0.8376(4)
C1_13 C 0.1169(13) 0.4248(19) 0.8044(6)
C2_13 C 0.1188(15) 0.6917(15) 0.8051(7)
C3_11 C 0.0858(14) 0.4745(14) 0.7853(6)
C4_11 C 0.0367(12) 0.4551(13) 0.7528(6)
H1_11 H 0.0201 0.4031 0.7405
C5_11 C 0.0098(13) 0.5065(12) 0.7369(6)
C6_11 C 0.0315(14) 0.5839(13) 0.7511(6)
H2_11 H 0.0127 0.6185 0.7398
C7_11 C 0.0874(13) 0.6097(14) 0.7858(6)
C8_11 C 0.1105(13) 0.5514(13) 0.8036(6)
H3_11 H 0.1417 0.5656 0.8269
O7_5 O 0.2971(14) 0.8566(8) 0.8376(4)
O5_11 O 0.9648(11) 0.4690(11) 0.7030(5)
C9_11 C 0.9256(14) 0.5082(13) 0.6888(5)
H4_11 H 0.8860 0.5090 0.7079
H5_11 H 0.9661 0.5663 0.6810
C10_13 C 0.8797(11) 0.4541(11) 0.6539(5)
C11_13 C 0.9115(14) 0.4809(14) 0.6173(5)
H6_13 H 0.9634 0.5318 0.6155
N1_10 N 0.8754(11) 0.4410(11) 0.5830(5)
C12_13 C 0.8061(14) 0.3680(13) 0.5886(6)
H7_13 H 0.7789 0.3377 0.5659
C13_13 C 0.7678(14) 0.3299(13) 0.6236(6)
H8_13 H 0.7184 0.2768 0.6254
C14_13 C 0.8110(13) 0.3793(12) 0.6561(5)
H9_11 H 0.7896 0.3577 0.6811
O1_14 O 0.2970(8) 0.4472(11) 0.8367(4)
O3_10 O 0.5594(11) 0.7029(14) 0.8376(4)
O5_12 O 0.5310(11) 0.4959(16) 0.7030(5)
C1_14 C 0.5752(19) 0.6922(23) 0.8044(6)
C2_14 C 0.3083(15) 0.4272(21) 0.8051(7)
C3_12 C 0.5255(14) 0.6114(20) 0.7853(6)
C4_12 C 0.5449(13) 0.5817(18) 0.7528(6)
H1_12 H 0.5969 0.6171 0.7405
C5_12 C 0.4935(12) 0.5034(18) 0.7369(6)
C6_12 C 0.4161(13) 0.4477(19) 0.7511(6)
H2_12 H 0.3815 0.3943 0.7398
C7_12 C 0.3903(14) 0.4778(19) 0.7858(6)
C8_12 C 0.4486(13) 0.5592(18) 0.8036(6)
H3_12 H 0.4344 0.5762 0.8269
C9_12 C 0.4918(13) 0.4175(19) 0.6888(5)
H4_12 H 0.4910 0.3771 0.7079
H5_12 H 0.4337 0.3999 0.6810
C10_14 C 0.5459(11) 0.4257(16) 0.6539(5)
C11_14 C 0.5191(14) 0.4307(20) 0.6173(5)
H6_14 H 0.4682 0.4317 0.6155
N1_11 N 0.5590(11) 0.4345(16) 0.5830(5)
C12_14 C 0.6320(13) 0.4382(19) 0.5886(6)
H7_14 H 0.6623 0.4413 0.5659
C13_14 C 0.6701(13) 0.4380(19) 0.6236(6)
H8_14 H 0.7232 0.4417 0.6254
C14_14 C 0.6207(12) 0.4318(18) 0.6561(5)
H9_12 H 0.6423 0.4320 0.6811
O5_13 O 0.5041(16) 0.0352(11) 0.7030(5)
C9_13 C 0.5825(19) 0.0744(14) 0.6888(5)
H4_13 H 0.6229 0.1140 0.7079
H5_13 H 0.6001 0.0339 0.6810
C10_15 C 0.5743(16) 0.1203(11) 0.6539(5)
C11_15 C 0.5693(20) 0.0885(14) 0.6173(5)
H6_15 H 0.5683 0.0366 0.6155
N1_12 N 0.5655(16) 0.1246(11) 0.5830(5)
C12_15 C 0.5618(19) 0.1939(14) 0.5886(6)
H7_15 H 0.5587 0.2211 0.5659
C13_15 C 0.5620(19) 0.2322(14) 0.6236(6)
H8_15 H 0.5583 0.2816 0.6254
C14_15 C 0.5682(18) 0.1890(13) 0.6561(5)
H9_13 H 0.5680 0.2104 0.6811
O1_15 O 0.5528(11) 0.8499(8) 0.8367(4)
C1_15 C 0.3078(23) 0.8831(13) 0.8044(6)
C2_15 C 0.5728(21) 0.8812(15) 0.8051(7)
C3_13 C 0.3886(20) 0.9142(14) 0.7853(6)
C4_13 C 0.4183(18) 0.9633(12) 0.7528(6)
H1_13 H 0.3829 0.9799 0.7405
C5_13 C 0.4966(18) 0.9902(13) 0.7369(6)
C6_13 C 0.5523(19) 0.9685(14) 0.7511(6)
H2_13 H 0.6057 0.9873 0.7398
C7_13 C 0.5222(19) 0.9126(13) 0.7858(6)
C8_13 C 0.4408(18) 0.8895(13) 0.8036(6)
H3_13 H 0.4238 0.8583 0.8269
O1_16 O 0.4835(8) 0.3696(8) 0.5033(4)
O3_11 O 0.4768(8) 0.1072(11) 0.5042(4)
O5_14 O 0.2982(11) 0.1356(11) 0.3696(5)
C1_16 C 0.4503(13) 0.0914(19) 0.4710(6)
C2_16 C 0.4522(15) 0.3583(15) 0.4717(7)
C3_14 C 0.4192(14) 0.1411(14) 0.4519(6)
C4_14 C 0.3701(12) 0.1217(13) 0.4194(6)
H1_14 H 0.3535 0.0697 0.4071
C5_14 C 0.3432(13) 0.1731(12) 0.4035(6)
C6_14 C 0.3649(14) 0.2505(13) 0.4177(6)
H2_14 H 0.3461 0.2851 0.4064
C7_14 C 0.4208(13) 0.2763(14) 0.4524(6)
C8_14 C 0.4439(13) 0.2180(13) 0.4702(6)
H3_14 H 0.4751 0.2322 0.4935
C9_14 C 0.2590(14) 0.1748(13) 0.3554(5)
H4_14 H 0.2194 0.1756 0.3745
H5_14 H 0.2995 0.2329 0.3476
C10_16 C 0.2131(11) 0.1207(11) 0.3205(5)
C11_16 C 0.2449(14) 0.1475(14) 0.2839(5)
H6_16 H 0.2968 0.1984 0.2821
C12_16 C 0.1395(14) 0.0346(13) 0.2552(6)
H7_16 H 0.1123 0.0043 0.2325
C14_16 C 0.1444(13) 0.0459(12) 0.3227(5)
H9_14 H 0.1230 0.0243 0.3477
O7_6 O 0.6305(14) 0.5232(8) 0.5042(4)
C13_16 C 0.1012(14) 0.9965(13) 0.2902(6)
H8_16 H 0.0518 0.9434 0.2920
C13_17 C 0.0035(13) 0.1046(19) 0.2902(6)
H8_17 H 0.0566 0.1083 0.2920
O1_17 O 0.6304(8) 0.1138(11) 0.5033(4)
O3_12 O 0.8928(11) 0.3695(14) 0.5042(4)
O5_15 O 0.8644(11) 0.1625(16) 0.3696(5)
C1_17 C 0.9086(19) 0.3588(23) 0.4710(6)
C2_17 C 0.6417(15) 0.0938(21) 0.4717(7)
C3_15 C 0.8589(14) 0.2780(20) 0.4519(6)
C4_15 C 0.8783(13) 0.2483(18) 0.4194(6)
H1_15 H 0.9303 0.2837 0.4071
C5_15 C 0.8269(12) 0.1700(18) 0.4035(6)
C6_15 C 0.7495(13) 0.1143(19) 0.4177(6)
H2_15 H 0.7149 0.0609 0.4064
C7_15 C 0.7237(14) 0.1444(19) 0.4524(6)
C8_15 C 0.7820(13) 0.2258(18) 0.4702(6)
H3_15 H 0.7678 0.2428 0.4935
C9_15 C 0.8252(13) 0.0841(19) 0.3554(5)
H4_15 H 0.8244 0.0437 0.3745
H5_15 H 0.7671 0.0665 0.3476
C10_17 C 0.8793(11) 0.0923(16) 0.3205(5)
C11_17 C 0.8525(14) 0.0973(20) 0.2839(5)
H6_17 H 0.8016 0.0983 0.2821
C12_17 C 0.9654(13) 0.1048(19) 0.2552(6)
H7_17 H 0.9957 0.1079 0.2325
C14_17 C 0.9541(12) 0.0984(18) 0.3227(5)
H9_15 H 0.9757 0.0986 0.3477
O1_18 O 0.8862(11) 0.5165(8) 0.5033(4)
O5_16 O 0.8375(16) 0.7018(11) 0.3696(5)
C1_18 C 0.6412(23) 0.5497(13) 0.4710(6)
C2_18 C 0.9062(21) 0.5478(15) 0.4717(7)
C3_16 C 0.7220(20) 0.5808(14) 0.4519(6)
C4_16 C 0.7517(18) 0.6299(12) 0.4194(6)
H1_16 H 0.7163 0.6465 0.4071
C5_16 C 0.8300(18) 0.6568(13) 0.4035(6)
C6_16 C 0.8857(19) 0.6351(14) 0.4177(6)
H2_16 H 0.9391 0.6539 0.4064
C7_16 C 0.8556(19) 0.5792(13) 0.4524(6)
C8_16 C 0.7742(18) 0.5561(13) 0.4702(6)
H3_16 H 0.7572 0.5249 0.4935
C9_16 C 0.9159(19) 0.7410(14) 0.3554(5)
H4_16 H 0.9563 0.7806 0.3745
H5_16 H 0.9335 0.7005 0.3476
C10_18 C 0.9077(16) 0.7869(11) 0.3205(5)
C11_18 C 0.9027(20) 0.7551(14) 0.2839(5)
H6_18 H 0.9017 0.7032 0.2821
C12_18 C 0.8952(19) 0.8605(14) 0.2552(6)
H7_18 H 0.8921 0.8877 0.2325
C13_18 C 0.8954(19) 0.8988(14) 0.2902(6)
H8_18 H 0.8917 0.9482 0.2920
C14_18 C 0.9016(18) 0.8556(13) 0.3227(5)
H9_16 H 0.9014 0.8770 0.3477
O5_17 O 0.8023(11) 0.1708(16) 0.9637(5)
C3_17 C 0.8078(14) 0.0553(20) 0.8814(6)
C4_17 C 0.7884(13) 0.0850(18) 0.9139(6)
H1_17 H 0.7364 0.0496 0.9262
C5_17 C 0.8398(12) 0.1633(18) 0.9298(6)
C6_17 C 0.9172(13) 0.2190(19) 0.9156(6)
H2_17 H 0.9518 0.2724 0.9269
C7_17 C 0.9430(14) 0.1889(19) 0.8809(6)
C8_17 C 0.8847(13) 0.1075(18) 0.8631(6)
H3_17 H 0.8989 0.0905 0.8398
C9_17 C 0.8415(13) 0.2492(19) 0.9779(5)
H4_17 H 0.8423 0.2896 0.9588
H5_17 H 0.8996 0.2668 0.9857
H9_17 H 0.6910 0.2347 0.9856
O5_18 O 0.1977(11) 0.8292(16) 0.0363(5)
C3_18 C 0.1922(14) 0.9447(20) 0.1186(6)
C4_18 C 0.2116(13) 0.9150(18) 0.0861(6)
H1_18 H 0.2636 0.9504 0.0738
C5_18 C 0.1602(12) 0.8367(18) 0.0702(6)
C6_18 C 0.0828(13) 0.7810(19) 0.0844(6)
H2_18 H 0.0482 0.7276 0.0731
C7_18 C 0.0570(14) 0.8111(19) 0.1191(6)
C8_18 C 0.1153(13) 0.8925(18) 0.1369(6)
H3_18 H 0.1011 0.9095 0.1602
C9_18 C 0.1585(13) 0.7508(19) 0.0221(5)
H4_18 H 0.1577 0.7104 0.0412
H5_18 H 0.1004 0.7332 0.0143
H9_18 H 0.3090 0.7653 0.0144
loop_
_geom_bond_atom_site_label_1
_geom_bond_atom_site_label_2
_geom_bond_site_symmetry_1
_geom_bond_site_symmetry_2
C11 C10 1_555 1_555
H6 C11 1_555 1_555
N1 C11 1_555 1_555
C12 N1 1_555 1_555
H7 C12 1_555 1_555
C13 C12 1_555 1_555
H8 C13 1_555 1_555
C14 C10 1_555 1_555
Cu3 N1 1_555 1_555
C13 C14 1_555 1_555
O3 C1 1_555 1_555
O4 C1 1_555 1_555
O5 C5 1_555 1_555
C1 C3 1_555 1_555
C3 C4 1_555 1_555
C4 H1 1_555 1_555
C5 C4 1_555 1_555
C6 C5 1_555 1_555
H2 C6 1_555 1_555
C7 C6 1_555 1_555
C8 C3 1_555 1_555
H3 C8 1_555 1_555
C9 O5 1_555 1_555
H4 C9 1_555 1_555
H5 C9 1_555 1_555
Cu2 O3 1_555 1_555
Cu5 O4 1_555 1_555
C7 C8 1_555 1_555
Cu2 Cu5 1_555 1_555
Cu1 O1 1_555 1_555
O1 C2 1_555 1_555
O2 C2 1_555 1_555
Cu4 Cu1 1_555 1_555
O6 Cu1 1_555 1_555
O7 Cu1 1_555 1_555
O8 Cu1 1_555 1_555
N2 Cu1 1_555 1_555
O2 Cu4 1_555 1_555
Cu2 O1_2 1_555 1_555
O1_2 C2_2 1_555 1_555
O2_2 C2_2 1_555 1_555
O6_2 Cu2 1_555 1_555
O8_2 Cu2 1_555 1_555
N2_2 Cu2 1_555 1_555
O2_2 Cu5 1_555 1_555
C11_2 C10_2 1_555 1_555
H6_2 C11_2 1_555 1_555
N1_2 C11_2 1_555 1_555
C12_2 N1_2 1_555 1_555
H7_2 C12_2 1_555 1_555
C13_2 C12_2 1_555 1_555
H8_2 C13_2 1_555 1_555
C14_2 C10_2 1_555 1_555
Cu3_2 N1_2 1_555 1_555
C13_2 C14_2 1_555 1_555
O3_2 C1_2 1_555 1_555
O4_2 C1_2 1_555 1_555
Cu2_2 O3_2 1_555 1_555
Cu5_2 O4_2 1_555 1_555
Cu2_2 Cu5_2 1_555 1_555
O7 C1_3 1_555 1_555
O4_3 C1_3 1_555 1_555
Cu4 O4_3 1_555 1_555
C11_3 C10_3 1_555 1_555
H6_3 C11_3 1_555 1_555
N1_3 C11_3 1_555 1_555
C12_3 N1_3 1_555 1_555
H7_3 C12_3 1_555 1_555
C13_3 C12_3 1_555 1_555
H8_3 C13_3 1_555 1_555
C14_3 C10_3 1_555 1_555
Cu3_3 N1_3 1_555 1_555
C13_3 C14_3 1_555 1_555
Cu2_2 O1_3 1_555 1_555
O1_3 C2_3 1_555 1_555
O2_3 C2_3 1_555 1_555
O5_2 C5_2 1_555 1_555
C2_3 C7_2 1_555 1_555
C3_2 C4_2 1_555 1_555
C4_2 H1_2 1_555 1_555
C5_2 C4_2 1_555 1_555
C6_2 C5_2 1_555 1_555
H2_2 C6_2 1_555 1_555
C7_2 C6_2 1_555 1_555
C8_2 C3_2 1_555 1_555
H3_2 C8_2 1_555 1_555
C9_2 O5_2 1_555 1_555
H4_2 C9_2 1_555 1_555
H5_2 C9_2 1_555 1_555
O6_3 Cu2_2 1_555 1_555
O8_3 Cu2_2 1_555 1_555
N2_3 Cu2_2 1_555 1_555
O2_3 Cu5_2 1_555 1_555
C7_2 C8_2 1_555 1_555
C9_3 O5_3 1_555 1_555
H4_3 C9_3 1_555 1_555
H5_3 C9_3 1_555 1_555
C10_4 C9_3 1_555 1_555
C11_4 C10_4 1_555 1_555
H6_4 C11_4 1_555 1_555
N1_4 C11_4 1_555 1_555
C12_4 N1_4 1_555 1_555
H7_4 C12_4 1_555 1_555
C13_4 C12_4 1_555 1_555
H8_4 C13_4 1_555 1_555
C14_4 C10_4 1_555 1_555
H9_3 C14_4 1_555 1_555
Cu3_4 N1_4 1_555 1_555
C13_4 C14_4 1_555 1_555
Cu3_2 O1_4 1_555 1_555
O1_4 C2_4 1_555 1_555
O2_4 C2_4 1_555 1_555
O3_3 C1_4 1_555 1_555
O4_4 C1_4 1_555 1_555
C1_4 C3_3 1_555 1_555
C2_4 C7_3 1_555 1_555
C3_3 C4_3 1_555 1_555
C4_3 H1_3 1_555 1_555
C5_3 C4_3 1_555 1_555
C6_3 C5_3 1_555 1_555
H2_3 C6_3 1_555 1_555
C7_3 C6_3 1_555 1_555
C8_3 C3_3 1_555 1_555
H3_3 C8_3 1_555 1_555
Cu3_3 O3_3 1_555 1_555
Cu4_2 Cu3_2 1_555 1_555
Cu5_3 O4_4 1_555 1_555
O6_4 Cu3_2 1_555 1_555
O7_2 Cu3_2 1_555 1_555
O8_4 Cu3_2 1_555 1_555
O2_4 Cu4_2 1_555 1_555
C7_3 C8_3 1_555 1_555
Cu3_3 Cu5_3 1_555 1_555
Cu3_3 O1_5 1_555 1_555
O1_5 C2_5 1_555 1_555
O2_5 C2_5 1_555 1_555
O3_4 C1_5 1_555 1_555
O4_5 C1_5 1_555 1_555
O5_4 C5_4 1_555 1_555
C1_5 C3_4 1_555 1_555
C2_5 C7_4 1_555 1_555
C3_4 C4_4 1_555 1_555
C4_4 H1_4 1_555 1_555
C5_4 C4_4 1_555 1_555
C6_4 C5_4 1_555 1_555
H2_4 C6_4 1_555 1_555
C7_4 C6_4 1_555 1_555
C8_4 C3_4 1_555 1_555
H3_4 C8_4 1_555 1_555
C9_4 O5_4 1_555 1_555
H4_4 C9_4 1_555 1_555
H5_4 C9_4 1_555 1_555
C10_5 C9_4 1_555 1_555
C11_5 C10_5 1_555 1_555
H6_5 C11_5 1_555 1_555
N1_5 C11_5 1_555 1_555
C12_5 N1_5 1_555 1_555
H7_5 C12_5 1_555 1_555
C13_5 C12_5 1_555 1_555
H8_5 C13_5 1_555 1_555
C14_5 C10_5 1_555 1_555
H9_4 C14_5 1_555 1_555
Cu3 O3_4 1_555 1_555
Cu3_5 N1_5 1_555 1_555
Cu5_4 O4_5 1_555 1_555
O6_5 Cu3_3 1_555 1_555
O8_5 Cu3_3 1_555 1_555
O2_5 Cu5_3 1_555 1_555
C7_4 C8_4 1_555 1_555
C13_5 C14_5 1_555 1_555
Cu3 Cu5_4 1_555 1_555
Cu3 O1_6 1_555 1_555
O1_6 C2_6 1_555 1_555
O2_6 C2_6 1_555 1_555
O7_2 C1_6 1_555 1_555
O4_6 C1_6 1_555 1_555
C1_6 C3_5 1_555 1_555
C2_6 C7_5 1_555 1_555
C3_5 C4_5 1_555 1_555
C4_5 H1_5 1_555 1_555
C5_5 C4_5 1_555 1_555
C6_5 C5_5 1_555 1_555
H2_5 C6_5 1_555 1_555
C7_5 C6_5 1_555 1_555
C8_5 C3_5 1_555 1_555
H3_5 C8_5 1_555 1_555
Cu4_2 O4_6 1_555 1_555
O6_6 Cu3 1_555 1_555
O8_6 Cu3 1_555 1_555
O2_6 Cu5_4 1_555 1_555
C7_5 C8_5 1_555 1_555
C9_5 O5_5 1_555 1_555
H4_5 C9_5 1_555 1_555
H5_5 C9_5 1_555 1_555
C10_6 C9_5 1_555 1_555
C11_6 C10_6 1_555 1_555
H6_6 C11_6 1_555 1_555
N1_6 C11_6 1_555 1_555
C12_6 N1_6 1_555 1_555
H7_6 C12_6 1_555 1_555
C13_6 C12_6 1_555 1_555
H8_6 C13_6 1_555 1_555
C14_6 C10_6 1_555 1_555
H9_5 C14_6 1_555 1_555
Cu3_6 N1_6 1_555 1_555
C13_6 C14_6 1_555 1_555
H8_7 C13_7 1_555 1_555
Cu3_5 O1_7 1_555 1_555
O1_7 C2_7 1_555 1_555
O2_7 C2_7 1_555 1_555
O3_5 C1_7 1_555 1_555
O4_7 C1_7 1_555 1_555
O5_6 C5_6 1_555 1_555
C1_7 C3_6 1_555 1_555
C2_7 C7_6 1_555 1_555
C3_6 C4_6 1_555 1_555
C4_6 H1_6 1_555 1_555
C5_6 C4_6 1_555 1_555
C6_6 C5_6 1_555 1_555
H2_6 C6_6 1_555 1_555
C7_6 C6_6 1_555 1_555
C8_6 C3_6 1_555 1_555
H3_6 C8_6 1_555 1_555
C9_6 O5_6 1_555 1_555
H4_6 C9_6 1_555 1_555
H5_6 C9_6 1_555 1_555
C10_7 C9_6 1_555 1_555
C11_7 C10_7 1_555 1_555
H6_7 C11_7 1_555 1_555
N2_3 C11_7 1_555 1_555
C12_7 N2_3 1_555 1_555
H7_7 C12_7 1_555 1_555
C14_7 C10_7 1_555 1_555
H9_6 C14_7 1_555 1_555
Cu3_6 O3_5 1_555 1_555
Cu4_3 Cu3_5 1_555 1_555
O6_7 Cu3_5 1_555 1_555
O7_3 Cu3_5 1_555 1_555
O8_7 Cu3_5 1_555 1_555
O2_7 Cu4_3 1_555 1_555
C7_6 C8_6 1_555 1_555
Cu3_6 O1_8 1_555 1_555
O1_8 C2_8 1_555 1_555
O2_8 C2_8 1_555 1_555
O3_6 C1_8 1_555 1_555
O4_8 C1_8 1_555 1_555
O5_7 C5_7 1_555 1_555
C1_8 C3_7 1_555 1_555
C2_8 C7_7 1_555 1_555
C3_7 C4_7 1_555 1_555
C4_7 H1_7 1_555 1_555
C5_7 C4_7 1_555 1_555
C6_7 C5_7 1_555 1_555
H2_7 C6_7 1_555 1_555
C7_7 C6_7 1_555 1_555
C8_7 C3_7 1_555 1_555
H3_7 C8_7 1_555 1_555
C9_7 O5_7 1_555 1_555
H4_7 C9_7 1_555 1_555
H5_7 C9_7 1_555 1_555
C10_8 C9_7 1_555 1_555
C11_8 C10_8 1_555 1_555
H6_8 C11_8 1_555 1_555
N2 C11_8 1_555 1_555
C12_8 N2 1_555 1_555
H7_8 C12_8 1_555 1_555
C14_8 C10_8 1_555 1_555
H9_7 C14_8 1_555 1_555
Cu3_4 O3_6 1_555 1_555
C7_7 C8_7 1_555 1_555
H8_8 C13_8 1_555 1_555
Cu3_4 O1_9 1_555 1_555
O1_9 C2_9 1_555 1_555
O2_9 C2_9 1_555 1_555
O7_3 C1_9 1_555 1_555
O4_9 C1_9 1_555 1_555
O5_8 C5_8 1_555 1_555
C1_9 C3_8 1_555 1_555
C2_9 C7_8 1_555 1_555
C3_8 C4_8 1_555 1_555
C4_8 H1_8 1_555 1_555
C5_8 C4_8 1_555 1_555
C6_8 C5_8 1_555 1_555
H2_8 C6_8 1_555 1_555
C7_8 C6_8 1_555 1_555
C8_8 C3_8 1_555 1_555
H3_8 C8_8 1_555 1_555
C9_8 O5_8 1_555 1_555
H4_8 C9_8 1_555 1_555
H5_8 C9_8 1_555 1_555
C10_9 C9_8 1_555 1_555
C11_9 C10_9 1_555 1_555
H6_9 C11_9 1_555 1_555
N2_2 C11_9 1_555 1_555
C12_9 N2_2 1_555 1_555
H7_9 C12_9 1_555 1_555
C13_9 C12_9 1_555 1_555
H8_9 C13_9 1_555 1_555
C14_9 C10_9 1_555 1_555
H9_8 C14_9 1_555 1_555
Cu4_3 O4_9 1_555 1_555
C7_8 C8_8 1_555 1_555
C13_9 C14_9 1_555 1_555
Cu4_2 O1_10 1_555 1_555
O1_10 C2_10 1_555 1_555
O6_4 C2_10 1_555 1_555
O7_4 Cu4_2 1_555 1_555
N2_4 Cu4_2 1_555 1_555
O3_7 C1_10 1_555 1_555
O8_5 C1_10 1_555 1_555
O5_9 C5_9 1_555 1_555
C1_10 C3_9 1_555 1_555
C3_9 C4_9 1_555 1_555
C4_9 H1_9 1_555 1_555
C5_9 C4_9 1_555 1_555
C6_9 C5_9 1_555 1_555
H2_9 C6_9 1_555 1_555
C7_9 C6_9 1_555 1_555
C8_9 C3_9 1_555 1_555
H3_9 C8_9 1_555 1_555
C9_9 O5_9 1_555 1_555
H4_9 C9_9 1_555 1_555
H5_9 C9_9 1_555 1_555
Cu5_3 O3_7 1_555 1_555
C7_9 C8_9 1_555 1_555
C11_10 C10_10 1_555 1_555
H6_10 C11_10 1_555 1_555
N1_7 C11_10 1_555 1_555
C12_10 N1_7 1_555 1_555
H7_10 C12_10 1_555 1_555
C13_10 C12_10 1_555 1_555
H8_10 C13_10 1_555 1_555
C14_10 C10_10 1_555 1_555
Cu5_2 N1_7 1_555 1_555
C13_10 C14_10 1_555 1_555
O3_8 C1_11 1_555 1_555
O8_6 C1_11 1_555 1_555
Cu5_4 O3_8 1_555 1_555
C11_11 C10_11 1_555 1_555
H6_11 C11_11 1_555 1_555
N1_8 C11_11 1_555 1_555
C12_11 N1_8 1_555 1_555
H7_11 C12_11 1_555 1_555
C13_11 C12_11 1_555 1_555
H8_11 C13_11 1_555 1_555
C14_11 C10_11 1_555 1_555
Cu4 N1_8 1_555 1_555
C13_11 C14_11 1_555 1_555
Cu5_3 O1_11 1_555 1_555
O1_11 C2_11 1_555 1_555
O6_5 C2_11 1_555 1_555
N2_5 Cu5_3 1_555 1_555
Cu5_4 O1_12 1_555 1_555
O1_12 C2_12 1_555 1_555
O6_6 C2_12 1_555 1_555
O5_10 C5_10 1_555 1_555
C2_12 C7_10 1_555 1_555
C3_10 C4_10 1_555 1_555
C4_10 H1_10 1_555 1_555
C5_10 C4_10 1_555 1_555
C6_10 C5_10 1_555 1_555
H2_10 C6_10 1_555 1_555
C7_10 C6_10 1_555 1_555
C8_10 C3_10 1_555 1_555
H3_10 C8_10 1_555 1_555
C9_10 O5_10 1_555 1_555
H4_10 C9_10 1_555 1_555
H5_10 C9_10 1_555 1_555
N2_6 Cu5_4 1_555 1_555
C7_10 C8_10 1_555 1_555
C11_12 C10_12 1_555 1_555
H6_12 C11_12 1_555 1_555
N1_9 C11_12 1_555 1_555
C12_12 N1_9 1_555 1_555
H7_12 C12_12 1_555 1_555
C13_12 C12_12 1_555 1_555
H8_12 C13_12 1_555 1_555
C14_12 C10_12 1_555 1_555
Cu5 N1_9 1_555 1_555
C13_12 C14_12 1_555 1_555
O7_4 C1_12 1_555 1_555
O8_4 C1_12 1_555 1_555
Cu4 O1_13 1_555 1_555
O1_13 C2_13 1_555 1_555
O6 C2_13 1_555 1_555
O3_9 C1_13 1_555 1_555
O8_2 C1_13 1_555 1_555
C1_13 C3_11 1_555 1_555
C2_13 C7_11 1_555 1_555
C3_11 C4_11 1_555 1_555
C4_11 H1_11 1_555 1_555
C5_11 C4_11 1_555 1_555
C6_11 C5_11 1_555 1_555
H2_11 C6_11 1_555 1_555
C7_11 C6_11 1_555 1_555
C8_11 C3_11 1_555 1_555
H3_11 C8_11 1_555 1_555
Cu5 O3_9 1_555 1_555
O7_5 Cu4 1_555 1_555
C7_11 C8_11 1_555 1_555
C9_11 O5_11 1_555 1_555
H4_11 C9_11 1_555 1_555
H5_11 C9_11 1_555 1_555
C10_13 C9_11 1_555 1_555
C11_13 C10_13 1_555 1_555
H6_13 C11_13 1_555 1_555
N1_10 C11_13 1_555 1_555
C12_13 N1_10 1_555 1_555
H7_13 C12_13 1_555 1_555
C13_13 C12_13 1_555 1_555
H8_13 C13_13 1_555 1_555
C14_13 C10_13 1_555 1_555
H9_11 C14_13 1_555 1_555
Cu5_6 N1_10 1_555 1_555
C13_13 C14_13 1_555 1_555
Cu5 O1_14 1_555 1_555
O1_14 C2_14 1_555 1_555
O6_2 C2_14 1_555 1_555
O3_10 C1_14 1_555 1_555
O8_3 C1_14 1_555 1_555
O5_12 C5_12 1_555 1_555
C1_14 C3_12 1_555 1_555
C2_14 C7_12 1_555 1_555
C3_12 C4_12 1_555 1_555
C4_12 H1_12 1_555 1_555
C5_12 C4_12 1_555 1_555
C6_12 C5_12 1_555 1_555
H2_12 C6_12 1_555 1_555
C7_12 C6_12 1_555 1_555
C8_12 C3_12 1_555 1_555
H3_12 C8_12 1_555 1_555
C9_12 O5_12 1_555 1_555
H4_12 C9_12 1_555 1_555
H5_12 C9_12 1_555 1_555
C10_14 C9_12 1_555 1_555
C11_14 C10_14 1_555 1_555
H6_14 C11_14 1_555 1_555
N1_11 C11_14 1_555 1_555
C12_14 N1_11 1_555 1_555
H7_14 C12_14 1_555 1_555
C13_14 C12_14 1_555 1_555
H8_14 C13_14 1_555 1_555
C14_14 C10_14 1_555 1_555
H9_12 C14_14 1_555 1_555
Cu5_2 O3_10 1_555 1_555
Cu4_3 N1_11 1_555 1_555
C7_12 C8_12 1_555 1_555
C13_14 C14_14 1_555 1_555
C9_13 O5_13 1_555 1_555
H4_13 C9_13 1_555 1_555
H5_13 C9_13 1_555 1_555
C10_15 C9_13 1_555 1_555
C11_15 C10_15 1_555 1_555
H6_15 C11_15 1_555 1_555
N1_12 C11_15 1_555 1_555
C12_15 N1_12 1_555 1_555
H7_15 C12_15 1_555 1_555
C13_15 C12_15 1_555 1_555
H8_15 C13_15 1_555 1_555
C14_15 C10_15 1_555 1_555
H9_13 C14_15 1_555 1_555
Cu5_5 N1_12 1_555 1_555
C13_15 C14_15 1_555 1_555
Cu5_2 O1_15 1_555 1_555
O1_15 C2_15 1_555 1_555
O6_3 C2_15 1_555 1_555
O7_5 C1_15 1_555 1_555
O8 C1_15 1_555 1_555
C1_15 C3_13 1_555 1_555
C2_15 C7_13 1_555 1_555
C3_13 C4_13 1_555 1_555
C4_13 H1_13 1_555 1_555
C5_13 C4_13 1_555 1_555
C6_13 C5_13 1_555 1_555
H2_13 C6_13 1_555 1_555
C7_13 C6_13 1_555 1_555
C8_13 C3_13 1_555 1_555
H3_13 C8_13 1_555 1_555
C7_13 C8_13 1_555 1_555
Cu4_3 O1_16 1_555 1_555
O1_16 C2_16 1_555 1_555
O6_7 C2_16 1_555 1_555
O3_11 C1_16 1_555 1_555
O8_8 C1_16 1_555 1_555
O5_14 C5_14 1_555 1_555
C1_16 C3_14 1_555 1_555
C2_16 C7_14 1_555 1_555
C3_14 C4_14 1_555 1_555
C4_14 H1_14 1_555 1_555
C5_14 C4_14 1_555 1_555
C6_14 C5_14 1_555 1_555
H2_14 C6_14 1_555 1_555
C7_14 C6_14 1_555 1_555
C8_14 C3_14 1_555 1_555
H3_14 C8_14 1_555 1_555
C9_14 O5_14 1_555 1_555
H4_14 C9_14 1_555 1_555
H5_14 C9_14 1_555 1_555
C10_16 C9_14 1_555 1_555
C11_16 C10_16 1_555 1_555
H6_16 C11_16 1_555 1_555
N2_6 C11_16 1_555 1_555
C12_16 N2_6 1_555 1_555
H7_16 C12_16 1_555 1_555
C14_16 C10_16 1_555 1_555
H9_14 C14_16 1_555 1_555
Cu5_5 O3_11 1_555 1_555
O7_6 Cu4_3 1_555 1_555
C7_14 C8_14 1_555 1_555
H8_16 C13_16 1_555 1_555
H8_17 C13_17 1_555 1_555
Cu5_5 O1_17 1_555 1_555
O1_17 C2_17 1_555 1_555
O6_8 C2_17 1_555 1_555
O3_12 C1_17 1_555 1_555
O8_9 C1_17 1_555 1_555
O5_15 C5_15 1_555 1_555
C1_17 C3_15 1_555 1_555
C2_17 C7_15 1_555 1_555
C3_15 C4_15 1_555 1_555
C4_15 H1_15 1_555 1_555
C5_15 C4_15 1_555 1_555
C6_15 C5_15 1_555 1_555
H2_15 C6_15 1_555 1_555
C7_15 C6_15 1_555 1_555
C8_15 C3_15 1_555 1_555
H3_15 C8_15 1_555 1_555
C9_15 O5_15 1_555 1_555
H4_15 C9_15 1_555 1_555
H5_15 C9_15 1_555 1_555
C10_17 C9_15 1_555 1_555
C11_17 C10_17 1_555 1_555
H6_17 C11_17 1_555 1_555
N2_4 C11_17 1_555 1_555
C12_17 N2_4 1_555 1_555
H7_17 C12_17 1_555 1_555
C14_17 C10_17 1_555 1_555
H9_15 C14_17 1_555 1_555
Cu5_6 O3_12 1_555 1_555
C7_15 C8_15 1_555 1_555
Cu5_6 O1_18 1_555 1_555
O1_18 C2_18 1_555 1_555
O6_9 C2_18 1_555 1_555
O7_6 C1_18 1_555 1_555
O8_7 C1_18 1_555 1_555
O5_16 C5_16 1_555 1_555
C1_18 C3_16 1_555 1_555
C2_18 C7_16 1_555 1_555
C3_16 C4_16 1_555 1_555
C4_16 H1_16 1_555 1_555
C5_16 C4_16 1_555 1_555
C6_16 C5_16 1_555 1_555
H2_16 C6_16 1_555 1_555
C7_16 C6_16 1_555 1_555
C8_16 C3_16 1_555 1_555
H3_16 C8_16 1_555 1_555
C9_16 O5_16 1_555 1_555
H4_16 C9_16 1_555 1_555
H5_16 C9_16 1_555 1_555
C10_18 C9_16 1_555 1_555
C11_18 C10_18 1_555 1_555
H6_18 C11_18 1_555 1_555
N2_5 C11_18 1_555 1_555
C12_18 N2_5 1_555 1_555
H7_18 C12_18 1_555 1_555
C13_18 C12_18 1_555 1_555
H8_18 C13_18 1_555 1_555
C14_18 C10_18 1_555 1_555
H9_16 C14_18 1_555 1_555
C7_16 C8_16 1_555 1_555
C13_18 C14_18 1_555 1_555
O5_17 C5_17 1_555 1_555
C3_17 C4_17 1_555 1_555
C4_17 H1_17 1_555 1_555
C5_17 C4_17 1_555 1_555
C6_17 C5_17 1_555 1_555
H2_17 C6_17 1_555 1_555
C7_17 C6_17 1_555 1_555
C8_17 C3_17 1_555 1_555
H3_17 C8_17 1_555 1_555
C9_17 O5_17 1_555 1_555
H4_17 C9_17 1_555 1_555
H5_17 C9_17 1_555 1_555
C7_17 C8_17 1_555 1_555
O5_18 C5_18 1_555 1_555
C3_18 C4_18 1_555 1_555
C4_18 H1_18 1_555 1_555
C5_18 C4_18 1_555 1_555
C6_18 C5_18 1_555 1_555
H2_18 C6_18 1_555 1_555
C7_18 C6_18 1_555 1_555
C8_18 C3_18 1_555 1_555
H3_18 C8_18 1_555 1_555
C9_18 O5_18 1_555 1_555
H4_18 C9_18 1_555 1_555
H5_18 C9_18 1_555 1_555
C7_18 C8_18 1_555 1_555

#END
