
###############################################################################
#
# This file contains modified crystal structure data generated from the
# MOF subset of the Cambridge Structural Database (CSD) v543 
# hosted by the Cambridge Crystallographic Data Centre (CCDC).
#
# This work is licensed under the Creative Commons
# Attribution-NonCommercial-ShareAlike 4.0 International License.
# To view a copy of this license, visit
# http://creativecommons.org/licenses/by-nc-sa/4.0/
# or send a letter to
# Creative Commons, PO Box 1866, Mountain View, CA 94042, USA.
#
# CIF created using the CSD Python API on 29 September 2022
# The structure has been converted into the P1 space group
# The structure has a 3D framework
# The original CSD entry OHAKOY is in the orthorhombic crystal system
# The framework has been calculated to contain at least 10.0% void space
# The void calculation uses a probe of radius 1.32A, grid spacing 0.4
#
###############################################################################

data_OHAKOY
_chemical_formula_moiety         '(C160 H128 Cd8 N32 O32)n'
_symmetry_cell_setting           triclinic
_symmetry_space_group_name_H-M   'P 1'
_symmetry_Int_Tables_number      1
_space_group_name_Hall           'P 1'
loop_
_symmetry_equiv_pos_site_id
_symmetry_equiv_pos_as_xyz
1 x,y,z
_cell_length_a                   15.540(4)
_cell_length_b                   17.665(3)
_cell_length_c                   17.519(6)
_cell_angle_alpha                90
_cell_angle_beta                 90
_cell_angle_gamma                90
_cell_volume                     4809.21
loop_
_atom_site_label
_atom_site_type_symbol
_atom_site_fract_x
_atom_site_fract_y
_atom_site_fract_z
Cd1 Cd 0.680400(19) 0.014180(17) 0.041170(17)
O3 O 0.7809(2) 0.35707(17) 0.51716(18)
O4 O 0.8560(2) 0.41272(16) 0.42556(18)
N1 N 0.7280(2) 0.0290(2) 0.1638(2)
N2 N 0.7501(2) 0.0964(2) 0.26792(19)
C2 C 0.7115(3) 0.0297(3) 0.2909(2)
H2 H 0.6972 0.0161 0.3405
C3 C 0.7574(3) 0.0935(2) 0.1909(2)
H3 H 0.7802 0.1322 0.1611
C4 C 0.7677(3) 0.1612(2) 0.3141(2)
C5 C 0.8411(3) 0.2036(2) 0.3010(2)
H4 H 0.8802 0.1886 0.2638
C6 C 0.8562(3) 0.2689(2) 0.3435(3)
H5 H 0.9037 0.2991 0.3330
C7 C 0.7996(3) 0.2885(2) 0.4018(2)
C8 C 0.7273(3) 0.2443(3) 0.4146(3)
H6 H 0.6896 0.2573 0.4537
C9 C 0.7099(3) 0.1813(3) 0.3705(3)
H7 H 0.6603 0.1529 0.3787
C10 C 0.8142(3) 0.3575(3) 0.4510(2)
O5 O 0.5488(2) 0.05472(18) 0.09507(19)
H15 H 0.505(3) 0.055(3) 0.070(3)
H16 H 0.554(10) 0.076(8) 0.136(4)
Cd3 Cd 0.819600(19) 0.485820(17) 0.541170(17)
O6 O 0.7191(2) 0.14293(17) 0.01716(18)
O7 O 0.6440(2) 0.08728(16) 0.92556(18)
C21 C 0.6858(3) 0.1425(3) 0.9510(2)
N3 N 0.0772(2) 0.9097(2) 0.5378(2)
N4 N 0.1896(2) 0.9817(2) 0.5137(2)
C15 C 0.0243(3) 0.8431(2) 0.5384(3)
C16 C 0.0307(3) 0.7927(2) 0.4779(3)
H10 H 0.0647 0.8043 0.4358
C18 C 0.0616(3) 0.9790(3) 0.5720(3)
H12 H 0.0132 0.9930 0.5998
C20 C 0.1548(3) 0.9146(3) 0.5036(3)
H14 H 0.1804 0.8755 0.4763
O1 O 0.82297(19) 0.62632(17) 0.58961(18)
O2 O 0.90741(19) 0.58200(16) 0.49820(17)
N1_2 N 0.7720(2) 0.4710(2) 0.6638(2)
N2_2 N 0.7499(2) 0.4036(2) 0.76792(19)
C1 C 0.8018(3) 0.5121(3) 0.7268(3)
H1 H 0.8265 0.5600 0.7251
C2_2 C 0.7885(3) 0.4703(3) 0.7909(2)
H2_2 H 0.8028 0.4839 0.8405
C3_2 C 0.7426(3) 0.4065(2) 0.6909(2)
H3_2 H 0.7198 0.3678 0.6611
C4_2 C 0.7323(3) 0.3388(2) 0.8141(2)
C5_2 C 0.6589(3) 0.2964(2) 0.8010(2)
H4_2 H 0.6198 0.3114 0.7638
C6_2 C 0.6438(3) 0.2311(2) 0.8435(3)
H5_2 H 0.5963 0.2009 0.8330
C7_2 C 0.7004(3) 0.2115(2) 0.9018(2)
C8_2 C 0.7727(3) 0.2557(3) 0.9146(3)
H6_2 H 0.8104 0.2427 0.9537
C9_2 C 0.7901(3) 0.3187(3) 0.8705(3)
H7_2 H 0.8397 0.3471 0.8787
C11 C 0.8852(3) 0.6340(2) 0.5446(2)
C12 C 0.9342(3) 0.7075(3) 0.5426(2)
C13 C 0.9261(3) 0.7591(3) 0.6014(3)
H8 H 0.8905 0.7479 0.6426
C14 C 0.9705(3) 0.8275(3) 0.6001(3)
H9 H 0.9644 0.8622 0.6396
C17 C 0.9861(3) 0.7250(3) 0.4806(3)
H11 H 0.9909 0.6908 0.4405
O5_2 O 0.9512(2) 0.44528(18) 0.59507(19)
H15_2 H 0.995(3) 0.445(3) 0.570(3)
H16_2 H 0.946(10) 0.424(8) 0.636(4)
N5 N 0.6896(2) 0.5183(2) 0.4863(2)
O1_2 O 0.32297(19) 0.87368(17) 0.41039(18)
O2_2 O 0.40741(19) 0.91800(16) 0.50180(17)
N3_2 N 0.5772(2) 0.5903(2) 0.4622(2)
C1_2 C 0.3018(3) 0.9879(3) 0.2732(3)
H1_2 H 0.3265 0.9400 0.2749
C11_2 C 0.3852(3) 0.8660(2) 0.4554(2)
C12_2 C 0.4342(3) 0.7925(3) 0.4574(2)
C13_2 C 0.4261(3) 0.7409(3) 0.3986(3)
H8_2 H 0.3905 0.7521 0.3574
C14_2 C 0.4705(3) 0.6725(3) 0.3999(3)
H9_2 H 0.4644 0.6378 0.3604
C15_2 C 0.5243(3) 0.6569(2) 0.4616(3)
C16_2 C 0.5307(3) 0.7073(2) 0.5221(3)
H10_2 H 0.5647 0.6957 0.5642
C17_2 C 0.4861(3) 0.7750(3) 0.5194(3)
H11_2 H 0.4909 0.8092 0.5595
C18_2 C 0.5616(3) 0.5210(3) 0.4280(3)
H12_2 H 0.5132 0.5070 0.4002
C19 C 0.6310(3) 0.4778(3) 0.4433(3)
H13 H 0.6384 0.4280 0.4273
C20_2 C 0.6548(3) 0.5854(3) 0.4964(3)
H14_2 H 0.6804 0.6245 0.5237
O1_3 O 0.67703(19) 0.87368(17) 0.08961(18)
N3_3 N 0.4228(2) 0.5903(2) 0.0378(2)
N4_2 N 0.3104(2) 0.5183(2) 0.0137(2)
C1_3 C 0.6982(3) 0.9879(3) 0.2268(3)
H1_3 H 0.6735 0.9400 0.2251
C11_3 C 0.6148(3) 0.8660(2) 0.0446(2)
C12_3 C 0.5658(3) 0.7925(3) 0.0426(2)
C13_3 C 0.5739(3) 0.7409(3) 0.1014(3)
H8_3 H 0.6095 0.7521 0.1426
C14_3 C 0.5295(3) 0.6725(3) 0.1001(3)
H9_3 H 0.5356 0.6378 0.1396
C15_3 C 0.4757(3) 0.6569(2) 0.0384(3)
C18_3 C 0.4384(3) 0.5210(3) 0.0720(3)
H12_3 H 0.4868 0.5070 0.0998
C19_2 C 0.3690(3) 0.4778(3) 0.0567(3)
H13_2 H 0.3616 0.4280 0.0727
C20_3 C 0.3452(3) 0.5854(3) 0.0036(3)
O2_3 O 0.59259(19) 0.91800(16) 0.99820(17)
C16_3 C 0.4693(3) 0.7073(2) 0.9779(3)
H10_3 H 0.4353 0.6957 0.9358
C17_3 C 0.5139(3) 0.7750(3) 0.9806(3)
H11_3 H 0.5091 0.8092 0.9405
H14_3 H 0.3196 0.6245 0.9763
Cd2 Cd 0.180400(19) 0.485820(17) 0.958830(17)
N5_2 N 0.8104(2) 0.9817(2) 0.9863(2)
C19_3 C 0.1310(3) 0.0222(3) 0.5567(3)
H13_3 H 0.1384 0.0720 0.5727
Cd2_2 Cd 0.319600(19) 0.014180(17) 0.458830(17)
O2_4 O 0.09259(19) 0.58200(16) 0.00180(17)
C17_4 C 0.0139(3) 0.7250(3) 0.0194(3)
H11_4 H 0.0091 0.6908 0.0595
O7_2 O 0.1440(2) 0.41272(16) 0.07444(18)
C21_2 C 0.1858(3) 0.3575(3) 0.0490(2)
O1_4 O 0.17703(19) 0.62632(17) 0.91039(18)
O3_2 O 0.2809(2) 0.14293(17) 0.48284(18)
O4_2 O 0.3560(2) 0.08728(16) 0.57444(18)
N1_3 N 0.2280(2) 0.4710(2) 0.8362(2)
N2_3 N 0.2501(2) 0.4036(2) 0.73208(19)
C1_4 C 0.1982(3) 0.5121(3) 0.7732(3)
H1_4 H 0.1735 0.5600 0.7749
C2_3 C 0.2115(3) 0.4703(3) 0.7091(2)
H2_3 H 0.1972 0.4839 0.6595
C3_3 C 0.2574(3) 0.4065(2) 0.8091(2)
H3_3 H 0.2802 0.3678 0.8389
C4_3 C 0.2677(3) 0.3388(2) 0.6859(2)
C5_3 C 0.3411(3) 0.2964(2) 0.6990(2)
H4_3 H 0.3802 0.3114 0.7362
C6_3 C 0.3562(3) 0.2311(2) 0.6565(3)
H5_3 H 0.4037 0.2009 0.6670
C7_3 C 0.2996(3) 0.2115(2) 0.5982(2)
C8_3 C 0.2273(3) 0.2557(3) 0.5854(3)
H6_3 H 0.1896 0.2427 0.5463
C9_3 C 0.2099(3) 0.3187(3) 0.6295(3)
H7_3 H 0.1603 0.3471 0.6213
C10_2 C 0.3142(3) 0.1425(3) 0.5490(2)
C11_4 C 0.1148(3) 0.6340(2) 0.9554(2)
C12_4 C 0.0658(3) 0.7075(3) 0.9574(2)
C13_4 C 0.0739(3) 0.7591(3) 0.8986(3)
H8_4 H 0.1095 0.7479 0.8574
C14_4 C 0.0295(3) 0.8275(3) 0.8999(3)
H9_4 H 0.0356 0.8622 0.8604
O5_3 O 0.0488(2) 0.44528(18) 0.90493(19)
H15_3 H 0.005(3) 0.445(3) 0.930(3)
H16_3 H 0.054(10) 0.424(8) 0.864(4)
O6_2 O 0.2191(2) 0.35707(17) 0.98284(18)
N3_4 N 0.9228(2) 0.9097(2) 0.9622(2)
C15_4 C 0.9757(3) 0.8431(2) 0.9616(3)
C18_4 C 0.9384(3) 0.9790(3) 0.9280(3)
H12_4 H 0.9868 0.9930 0.9002
C20_4 C 0.8452(3) 0.9146(3) 0.9964(3)
N1_4 N 0.2720(2) 0.0290(2) 0.3362(2)
N2_4 N 0.2499(2) 0.0964(2) 0.23208(19)
C2_4 C 0.2885(3) 0.0297(3) 0.2091(2)
H2_4 H 0.3028 0.0161 0.1595
C3_4 C 0.2426(3) 0.0935(2) 0.3091(2)
H3_4 H 0.2198 0.1322 0.3389
C4_4 C 0.2323(3) 0.1612(2) 0.1859(2)
C5_4 C 0.1589(3) 0.2036(2) 0.1990(2)
H4_4 H 0.1198 0.1886 0.2362
C6_4 C 0.1438(3) 0.2689(2) 0.1565(3)
H5_4 H 0.0963 0.2991 0.1670
C7_4 C 0.2004(3) 0.2885(2) 0.0982(2)
C8_4 C 0.2727(3) 0.2443(3) 0.0854(3)
H6_4 H 0.3104 0.2573 0.0463
C9_4 C 0.2901(3) 0.1813(3) 0.1295(3)
H7_4 H 0.3397 0.1529 0.1213
O5_4 O 0.4512(2) 0.05472(18) 0.40493(19)
H15_4 H 0.495(3) 0.055(3) 0.430(3)
H16_4 H 0.446(10) 0.076(8) 0.364(4)
C19_4 C 0.8690(3) 0.0222(3) 0.9433(3)
H13_4 H 0.8616 0.0720 0.9273
C16_4 C 0.9693(3) 0.7927(2) 0.0221(3)
H10_4 H 0.9353 0.8043 0.0642
H14_4 H 0.8196 0.8755 0.0237
O2_5 O 0.40741(19) 0.08200(16) 0.00180(17)
C16_5 C 0.5307(3) 0.2927(2) 0.0221(3)
H10_5 H 0.5647 0.3043 0.0642
C17_5 C 0.4861(3) 0.2250(3) 0.0194(3)
H11_5 H 0.4909 0.1908 0.0595
H14_5 H 0.6804 0.3755 0.0237
Cd2_3 Cd 0.819600(19) 0.514180(17) 0.041170(17)
N5_3 N 0.1896(2) 0.0183(2) 0.0137(2)
O1_5 O 0.32297(19) 0.12632(17) 0.91039(18)
N3_5 N 0.5772(2) 0.4097(2) 0.9622(2)
N4_3 N 0.6896(2) 0.4817(2) 0.9863(2)
C1_5 C 0.3018(3) 0.0121(3) 0.7732(3)
H1_5 H 0.3265 0.0600 0.7749
C11_5 C 0.3852(3) 0.1340(2) 0.9554(2)
C12_5 C 0.4342(3) 0.2075(3) 0.9574(2)
C13_5 C 0.4261(3) 0.2591(3) 0.8986(3)
H8_5 H 0.3905 0.2479 0.8574
C14_5 C 0.4705(3) 0.3275(3) 0.8999(3)
H9_5 H 0.4644 0.3622 0.8604
C15_5 C 0.5243(3) 0.3431(2) 0.9616(3)
C18_5 C 0.5616(3) 0.4790(3) 0.9280(3)
H12_5 H 0.5132 0.4930 0.9002
C19_5 C 0.6310(3) 0.5222(3) 0.9433(3)
H13_5 H 0.6384 0.5720 0.9273
C20_5 C 0.6548(3) 0.4146(3) 0.9964(3)
C19_6 C 0.8690(3) 0.9778(3) 0.4433(3)
H13_6 H 0.8616 0.9280 0.4273
Cd2_4 Cd 0.680400(19) 0.985820(17) 0.541170(17)
N3_6 N 0.0772(2) 0.0903(2) 0.0378(2)
C15_6 C 0.0243(3) 0.1569(2) 0.0384(3)
C18_6 C 0.0616(3) 0.0210(3) 0.0720(3)
H12_6 H 0.0132 0.0070 0.0998
C20_6 C 0.1548(3) 0.0854(3) 0.0036(3)
O1_6 O 0.82297(19) 0.37368(17) 0.08961(18)
O3_3 O 0.7191(2) 0.85707(17) 0.51716(18)
O4_3 O 0.6440(2) 0.91272(16) 0.42556(18)
N1_5 N 0.7720(2) 0.5290(2) 0.1638(2)
N2_5 N 0.7499(2) 0.5964(2) 0.26792(19)
C1_6 C 0.8018(3) 0.4879(3) 0.2268(3)
H1_6 H 0.8265 0.4400 0.2251
C2_5 C 0.7885(3) 0.5297(3) 0.2909(2)
H2_5 H 0.8028 0.5161 0.3405
C3_5 C 0.7426(3) 0.5935(2) 0.1909(2)
H3_5 H 0.7198 0.6322 0.1611
C4_5 C 0.7323(3) 0.6612(2) 0.3141(2)
C5_5 C 0.6589(3) 0.7036(2) 0.3010(2)
H4_5 H 0.6198 0.6886 0.2638
C6_5 C 0.6438(3) 0.7689(2) 0.3435(3)
H5_5 H 0.5963 0.7991 0.3330
C7_5 C 0.7004(3) 0.7885(2) 0.4018(2)
C8_5 C 0.7727(3) 0.7443(3) 0.4146(3)
H6_5 H 0.8104 0.7573 0.4537
C9_5 C 0.7901(3) 0.6813(3) 0.3705(3)
H7_5 H 0.8397 0.6529 0.3787
C10_3 C 0.6858(3) 0.8575(3) 0.4510(2)
C11_6 C 0.8852(3) 0.3660(2) 0.0446(2)
C12_6 C 0.9342(3) 0.2925(3) 0.0426(2)
C13_6 C 0.9261(3) 0.2409(3) 0.1014(3)
H8_6 H 0.8905 0.2521 0.1426
C14_6 C 0.9705(3) 0.1725(3) 0.1001(3)
H9_6 H 0.9644 0.1378 0.1396
O5_5 O 0.9512(2) 0.55472(18) 0.09507(19)
H15_5 H 0.995(3) 0.555(3) 0.070(3)
H16_5 H 0.946(10) 0.576(8) 0.136(4)
O6_3 O 0.7809(2) 0.64293(17) 0.01716(18)
O2_6 O 0.90741(19) 0.41800(16) 0.99820(17)
C17_6 C 0.9861(3) 0.2750(3) 0.9806(3)
H11_6 H 0.9909 0.3092 0.9405
O7_3 O 0.8560(2) 0.58728(16) 0.92556(18)
C21_3 C 0.8142(3) 0.6425(3) 0.9510(2)
N1_6 N 0.7280(2) 0.9710(2) 0.6638(2)
N2_6 N 0.7501(2) 0.9036(2) 0.76792(19)
C2_6 C 0.7115(3) 0.9703(3) 0.7909(2)
H2_6 H 0.6972 0.9839 0.8405
C3_6 C 0.7574(3) 0.9065(2) 0.6909(2)
H3_6 H 0.7802 0.8678 0.6611
C4_6 C 0.7677(3) 0.8388(2) 0.8141(2)
C5_6 C 0.8411(3) 0.7964(2) 0.8010(2)
H4_6 H 0.8802 0.8114 0.7638
C6_6 C 0.8562(3) 0.7311(2) 0.8435(3)
H5_6 H 0.9037 0.7009 0.8330
C7_6 C 0.7996(3) 0.7115(2) 0.9018(2)
C8_6 C 0.7273(3) 0.7557(3) 0.9146(3)
H6_6 H 0.6896 0.7427 0.9537
C9_6 C 0.7099(3) 0.8187(3) 0.8705(3)
H7_6 H 0.6603 0.8471 0.8787
O5_6 O 0.5488(2) 0.94528(18) 0.59507(19)
H15_6 H 0.505(3) 0.945(3) 0.570(3)
H16_6 H 0.554(10) 0.924(8) 0.636(4)
O7_4 O 0.3560(2) 0.91272(16) 0.07444(18)
C21_4 C 0.3142(3) 0.8575(3) 0.0490(2)
Cd1_2 Cd 0.319600(19) 0.985820(17) 0.958830(17)
O3_4 O 0.2191(2) 0.64293(17) 0.48284(18)
O4_4 O 0.1440(2) 0.58728(16) 0.57444(18)
N1_7 N 0.2720(2) 0.9710(2) 0.8362(2)
N2_7 N 0.2499(2) 0.9036(2) 0.73208(19)
C2_7 C 0.2885(3) 0.9703(3) 0.7091(2)
H2_7 H 0.3028 0.9839 0.6595
C3_7 C 0.2426(3) 0.9065(2) 0.8091(2)
H3_7 H 0.2198 0.8678 0.8389
C4_7 C 0.2323(3) 0.8388(2) 0.6859(2)
C5_7 C 0.1589(3) 0.7964(2) 0.6990(2)
H4_7 H 0.1198 0.8114 0.7362
C6_7 C 0.1438(3) 0.7311(2) 0.6565(3)
H5_7 H 0.0963 0.7009 0.6670
C7_7 C 0.2004(3) 0.7115(2) 0.5982(2)
C8_7 C 0.2727(3) 0.7557(3) 0.5854(3)
H6_7 H 0.3104 0.7427 0.5463
C9_7 C 0.2901(3) 0.8187(3) 0.6295(3)
H7_7 H 0.3397 0.8471 0.6213
C10_4 C 0.1858(3) 0.6425(3) 0.5490(2)
O5_7 O 0.4512(2) 0.94528(18) 0.90493(19)
H15_7 H 0.495(3) 0.945(3) 0.930(3)
H16_7 H 0.446(10) 0.924(8) 0.864(4)
Cd3_2 Cd 0.180400(19) 0.514180(17) 0.458830(17)
O6_4 O 0.2809(2) 0.85707(17) 0.98284(18)
O1_7 O 0.17703(19) 0.37368(17) 0.41039(18)
O2_7 O 0.09259(19) 0.41800(16) 0.50180(17)
N1_8 N 0.2280(2) 0.5290(2) 0.3362(2)
N2_8 N 0.2501(2) 0.5964(2) 0.23208(19)
C1_7 C 0.1982(3) 0.4879(3) 0.2732(3)
H1_7 H 0.1735 0.4400 0.2749
C2_8 C 0.2115(3) 0.5297(3) 0.2091(2)
H2_8 H 0.1972 0.5161 0.1595
C3_8 C 0.2574(3) 0.5935(2) 0.3091(2)
H3_8 H 0.2802 0.6322 0.3389
C4_8 C 0.2677(3) 0.6612(2) 0.1859(2)
C5_8 C 0.3411(3) 0.7036(2) 0.1990(2)
H4_8 H 0.3802 0.6886 0.2362
C6_8 C 0.3562(3) 0.7689(2) 0.1565(3)
H5_8 H 0.4037 0.7991 0.1670
C7_8 C 0.2996(3) 0.7885(2) 0.0982(2)
C8_8 C 0.2273(3) 0.7443(3) 0.0854(3)
H6_8 H 0.1896 0.7573 0.0463
C9_8 C 0.2099(3) 0.6813(3) 0.1295(3)
H7_8 H 0.1603 0.6529 0.1213
C11_7 C 0.1148(3) 0.3660(2) 0.4554(2)
C12_7 C 0.0658(3) 0.2925(3) 0.4574(2)
C13_7 C 0.0739(3) 0.2409(3) 0.3986(3)
H8_7 H 0.1095 0.2521 0.3574
C14_7 C 0.0295(3) 0.1725(3) 0.3999(3)
H9_7 H 0.0356 0.1378 0.3604
C17_7 C 0.0139(3) 0.2750(3) 0.5194(3)
H11_7 H 0.0091 0.3092 0.5595
O5_8 O 0.0488(2) 0.55472(18) 0.40493(19)
H15_8 H 0.005(3) 0.555(3) 0.430(3)
H16_8 H 0.054(10) 0.576(8) 0.364(4)
N5_4 N 0.3104(2) 0.4817(2) 0.5137(2)
N3_7 N 0.9228(2) 0.0903(2) 0.4622(2)
N4_4 N 0.8104(2) 0.0183(2) 0.4863(2)
C15_7 C 0.9757(3) 0.1569(2) 0.4616(3)
C16_6 C 0.9693(3) 0.2073(2) 0.5221(3)
H10_6 H 0.9353 0.1957 0.5642
C18_7 C 0.9384(3) 0.0210(3) 0.4280(3)
H12_7 H 0.9868 0.0070 0.4002
C20_7 C 0.8452(3) 0.0854(3) 0.4964(3)
H14_6 H 0.8196 0.1245 0.5237
O1_8 O 0.67703(19) 0.12632(17) 0.58961(18)
O2_8 O 0.59259(19) 0.08200(16) 0.49820(17)
N3_8 N 0.4228(2) 0.4097(2) 0.5378(2)
C1_8 C 0.6982(3) 0.0121(3) 0.7268(3)
H1_8 H 0.6735 0.0600 0.7251
C11_8 C 0.6148(3) 0.1340(2) 0.5446(2)
C12_8 C 0.5658(3) 0.2075(3) 0.5426(2)
C13_8 C 0.5739(3) 0.2591(3) 0.6014(3)
H8_8 H 0.6095 0.2479 0.6426
C14_8 C 0.5295(3) 0.3275(3) 0.6001(3)
H9_8 H 0.5356 0.3622 0.6396
C15_8 C 0.4757(3) 0.3431(2) 0.5384(3)
C16_7 C 0.4693(3) 0.2927(2) 0.4779(3)
H10_7 H 0.4353 0.3043 0.4358
C17_8 C 0.5139(3) 0.2250(3) 0.4806(3)
H11_8 H 0.5091 0.1908 0.4405
C18_8 C 0.4384(3) 0.4790(3) 0.5720(3)
H12_8 H 0.4868 0.4930 0.5998
C19_7 C 0.3690(3) 0.5222(3) 0.5567(3)
H13_7 H 0.3616 0.5720 0.5727
C20_8 C 0.3452(3) 0.4146(3) 0.5036(3)
H14_7 H 0.3196 0.3755 0.4763
C16_8 C 0.0307(3) 0.2073(2) 0.9779(3)
H10_8 H 0.0647 0.1957 0.9358
H14_8 H 0.1804 0.1245 0.9763
C19_8 C 0.1310(3) 0.9778(3) 0.0567(3)
H13_8 H 0.1384 0.9280 0.0727
loop_
_geom_bond_atom_site_label_1
_geom_bond_atom_site_label_2
_geom_bond_site_symmetry_1
_geom_bond_site_symmetry_2
O3 C10 1_555 1_555
O4 C10 1_555 1_555
N1 Cd1 1_555 1_555
N2 C2 1_555 1_555
H2 C2 1_555 1_555
C3 N1 1_555 1_555
H3 C3 1_555 1_555
C4 N2 1_555 1_555
C5 C4 1_555 1_555
H4 C5 1_555 1_555
C6 C5 1_555 1_555
H5 C6 1_555 1_555
C7 C6 1_555 1_555
C8 C7 1_555 1_555
H6 C8 1_555 1_555
C9 C4 1_555 1_555
H7 C9 1_555 1_555
C10 C7 1_555 1_555
O5 Cd1 1_555 1_555
H15 O5 1_555 1_555
H16 O5 1_555 1_555
Cd3 O3 1_555 1_555
O6 Cd1 1_555 1_555
O4 Cd3 1_555 1_555
N2 C3 1_555 1_555
C8 C9 1_555 1_555
O7 C21 1_555 1_555
N3 C15 1_555 1_555
C16 C15 1_555 1_555
H10 C16 1_555 1_555
C18 N3 1_555 1_555
H12 C18 1_555 1_555
C20 N3 1_555 1_555
H14 C20 1_555 1_555
N4 C20 1_555 1_555
Cd3 O1 1_555 1_555
O1 C11 1_555 1_555
O2 Cd3 1_555 1_555
N1_2 Cd3 1_555 1_555
N2_2 C2_2 1_555 1_555
C1 N1_2 1_555 1_555
H1 C1 1_555 1_555
C2_2 C1 1_555 1_555
H2_2 C2_2 1_555 1_555
C3_2 N1_2 1_555 1_555
H3_2 C3_2 1_555 1_555
C4_2 N2_2 1_555 1_555
C5_2 C4_2 1_555 1_555
H4_2 C5_2 1_555 1_555
C6_2 C5_2 1_555 1_555
H5_2 C6_2 1_555 1_555
C7_2 C6_2 1_555 1_555
C8_2 C7_2 1_555 1_555
H6_2 C8_2 1_555 1_555
C9_2 C4_2 1_555 1_555
H7_2 C9_2 1_555 1_555
C21 C7_2 1_555 1_555
C11 O2 1_555 1_555
C12 C11 1_555 1_555
C13 C12 1_555 1_555
H8 C13 1_555 1_555
C14 C13 1_555 1_555
H9 C14 1_555 1_555
C17 C12 1_555 1_555
H11 C17 1_555 1_555
O5_2 Cd3 1_555 1_555
H15_2 O5_2 1_555 1_555
H16_2 O5_2 1_555 1_555
N5 Cd3 1_555 1_555
N2_2 C3_2 1_555 1_555
C8_2 C9_2 1_555 1_555
O1_2 C11_2 1_555 1_555
N3_2 C15_2 1_555 1_555
N5 C19 1_555 1_555
H1_2 C1_2 1_555 1_555
C11_2 O2_2 1_555 1_555
C12_2 C11_2 1_555 1_555
C13_2 C12_2 1_555 1_555
H8_2 C13_2 1_555 1_555
C14_2 C13_2 1_555 1_555
H9_2 C14_2 1_555 1_555
C15_2 C14_2 1_555 1_555
C16_2 C15_2 1_555 1_555
H10_2 C16_2 1_555 1_555
C17_2 C12_2 1_555 1_555
H11_2 C17_2 1_555 1_555
C18_2 N3_2 1_555 1_555
H12_2 C18_2 1_555 1_555
C19 C18_2 1_555 1_555
H13 C19 1_555 1_555
C20_2 N3_2 1_555 1_555
H14_2 C20_2 1_555 1_555
N5 C20_2 1_555 1_555
C16_2 C17_2 1_555 1_555
O1_3 C11_3 1_555 1_555
N3_3 C15_3 1_555 1_555
N4_2 C19_2 1_555 1_555
H1_3 C1_3 1_555 1_555
C12_3 C11_3 1_555 1_555
C13_3 C12_3 1_555 1_555
H8_3 C13_3 1_555 1_555
C14_3 C13_3 1_555 1_555
H9_3 C14_3 1_555 1_555
C15_3 C14_3 1_555 1_555
C18_3 N3_3 1_555 1_555
H12_3 C18_3 1_555 1_555
C19_2 C18_3 1_555 1_555
H13_2 C19_2 1_555 1_555
C20_3 N3_3 1_555 1_555
N4_2 C20_3 1_555 1_555
H10_3 C16_3 1_555 1_555
H11_3 C17_3 1_555 1_555
C16_3 C17_3 1_555 1_555
H13_3 C19_3 1_555 1_555
H11_4 C17_4 1_555 1_555
O7_2 C21_2 1_555 1_555
Cd2 O1_4 1_555 1_555
O1_4 C11_4 1_555 1_555
O3_2 C10_2 1_555 1_555
O4_2 C10_2 1_555 1_555
N1_3 Cd2 1_555 1_555
N2_3 C2_3 1_555 1_555
C1_4 N1_3 1_555 1_555
H1_4 C1_4 1_555 1_555
C2_3 C1_4 1_555 1_555
H2_3 C2_3 1_555 1_555
C3_3 N1_3 1_555 1_555
H3_3 C3_3 1_555 1_555
C4_3 N2_3 1_555 1_555
C5_3 C4_3 1_555 1_555
H4_3 C5_3 1_555 1_555
C6_3 C5_3 1_555 1_555
H5_3 C6_3 1_555 1_555
C7_3 C6_3 1_555 1_555
C8_3 C7_3 1_555 1_555
H6_3 C8_3 1_555 1_555
C9_3 C4_3 1_555 1_555
H7_3 C9_3 1_555 1_555
C10_2 C7_3 1_555 1_555
C12_4 C11_4 1_555 1_555
C13_4 C12_4 1_555 1_555
H8_4 C13_4 1_555 1_555
C14_4 C13_4 1_555 1_555
H9_4 C14_4 1_555 1_555
O5_3 Cd2 1_555 1_555
H15_3 O5_3 1_555 1_555
H16_3 O5_3 1_555 1_555
Cd2_2 O3_2 1_555 1_555
O6_2 Cd2 1_555 1_555
O4_2 Cd2_2 1_555 1_555
N2_3 C3_3 1_555 1_555
C8_3 C9_3 1_555 1_555
N3_4 C15_4 1_555 1_555
C18_4 N3_4 1_555 1_555
H12_4 C18_4 1_555 1_555
C20_4 N3_4 1_555 1_555
N5_2 C20_4 1_555 1_555
N1_4 Cd2_2 1_555 1_555
N2_4 C2_4 1_555 1_555
H2_4 C2_4 1_555 1_555
C3_4 N1_4 1_555 1_555
H3_4 C3_4 1_555 1_555
C4_4 N2_4 1_555 1_555
C5_4 C4_4 1_555 1_555
H4_4 C5_4 1_555 1_555
C6_4 C5_4 1_555 1_555
H5_4 C6_4 1_555 1_555
C7_4 C6_4 1_555 1_555
C8_4 C7_4 1_555 1_555
H6_4 C8_4 1_555 1_555
C9_4 C4_4 1_555 1_555
H7_4 C9_4 1_555 1_555
C21_2 C7_4 1_555 1_555
O5_4 Cd2_2 1_555 1_555
H15_4 O5_4 1_555 1_555
H16_4 O5_4 1_555 1_555
N2_4 C3_4 1_555 1_555
C8_4 C9_4 1_555 1_555
H13_4 C19_4 1_555 1_555
H10_4 C16_4 1_555 1_555
H10_5 C16_5 1_555 1_555
H11_5 C17_5 1_555 1_555
C16_5 C17_5 1_555 1_555
O1_5 C11_5 1_555 1_555
N3_5 C15_5 1_555 1_555
N4_3 C19_5 1_555 1_555
H1_5 C1_5 1_555 1_555
C12_5 C11_5 1_555 1_555
C13_5 C12_5 1_555 1_555
H8_5 C13_5 1_555 1_555
C14_5 C13_5 1_555 1_555
H9_5 C14_5 1_555 1_555
C15_5 C14_5 1_555 1_555
C18_5 N3_5 1_555 1_555
H12_5 C18_5 1_555 1_555
C19_5 C18_5 1_555 1_555
H13_5 C19_5 1_555 1_555
C20_5 N3_5 1_555 1_555
N4_3 C20_5 1_555 1_555
H13_6 C19_6 1_555 1_555
N3_6 C15_6 1_555 1_555
C18_6 N3_6 1_555 1_555
H12_6 C18_6 1_555 1_555
C20_6 N3_6 1_555 1_555
N5_3 C20_6 1_555 1_555
Cd2_3 O1_6 1_555 1_555
O1_6 C11_6 1_555 1_555
O3_3 C10_3 1_555 1_555
O4_3 C10_3 1_555 1_555
N1_5 Cd2_3 1_555 1_555
N2_5 C2_5 1_555 1_555
C1_6 N1_5 1_555 1_555
H1_6 C1_6 1_555 1_555
C2_5 C1_6 1_555 1_555
H2_5 C2_5 1_555 1_555
C3_5 N1_5 1_555 1_555
H3_5 C3_5 1_555 1_555
C4_5 N2_5 1_555 1_555
C5_5 C4_5 1_555 1_555
H4_5 C5_5 1_555 1_555
C6_5 C5_5 1_555 1_555
H5_5 C6_5 1_555 1_555
C7_5 C6_5 1_555 1_555
C8_5 C7_5 1_555 1_555
H6_5 C8_5 1_555 1_555
C9_5 C4_5 1_555 1_555
H7_5 C9_5 1_555 1_555
C10_3 C7_5 1_555 1_555
C12_6 C11_6 1_555 1_555
C13_6 C12_6 1_555 1_555
H8_6 C13_6 1_555 1_555
C14_6 C13_6 1_555 1_555
H9_6 C14_6 1_555 1_555
O5_5 Cd2_3 1_555 1_555
H15_5 O5_5 1_555 1_555
H16_5 O5_5 1_555 1_555
Cd2_4 O3_3 1_555 1_555
O6_3 Cd2_3 1_555 1_555
O4_3 Cd2_4 1_555 1_555
N2_5 C3_5 1_555 1_555
C8_5 C9_5 1_555 1_555
H11_6 C17_6 1_555 1_555
O7_3 C21_3 1_555 1_555
N1_6 Cd2_4 1_555 1_555
N2_6 C2_6 1_555 1_555
H2_6 C2_6 1_555 1_555
C3_6 N1_6 1_555 1_555
H3_6 C3_6 1_555 1_555
C4_6 N2_6 1_555 1_555
C5_6 C4_6 1_555 1_555
H4_6 C5_6 1_555 1_555
C6_6 C5_6 1_555 1_555
H5_6 C6_6 1_555 1_555
C7_6 C6_6 1_555 1_555
C8_6 C7_6 1_555 1_555
H6_6 C8_6 1_555 1_555
C9_6 C4_6 1_555 1_555
H7_6 C9_6 1_555 1_555
C21_3 C7_6 1_555 1_555
O5_6 Cd2_4 1_555 1_555
H15_6 O5_6 1_555 1_555
H16_6 O5_6 1_555 1_555
N2_6 C3_6 1_555 1_555
C8_6 C9_6 1_555 1_555
O7_4 C21_4 1_555 1_555
O3_4 C10_4 1_555 1_555
O4_4 C10_4 1_555 1_555
N1_7 Cd1_2 1_555 1_555
N2_7 C2_7 1_555 1_555
H2_7 C2_7 1_555 1_555
C3_7 N1_7 1_555 1_555
H3_7 C3_7 1_555 1_555
C4_7 N2_7 1_555 1_555
C5_7 C4_7 1_555 1_555
H4_7 C5_7 1_555 1_555
C6_7 C5_7 1_555 1_555
H5_7 C6_7 1_555 1_555
C7_7 C6_7 1_555 1_555
C8_7 C7_7 1_555 1_555
H6_7 C8_7 1_555 1_555
C9_7 C4_7 1_555 1_555
H7_7 C9_7 1_555 1_555
C10_4 C7_7 1_555 1_555
O5_7 Cd1_2 1_555 1_555
H15_7 O5_7 1_555 1_555
H16_7 O5_7 1_555 1_555
Cd3_2 O3_4 1_555 1_555
O6_4 Cd1_2 1_555 1_555
O4_4 Cd3_2 1_555 1_555
N2_7 C3_7 1_555 1_555
C8_7 C9_7 1_555 1_555
Cd3_2 O1_7 1_555 1_555
O1_7 C11_7 1_555 1_555
O2_7 Cd3_2 1_555 1_555
N1_8 Cd3_2 1_555 1_555
N2_8 C2_8 1_555 1_555
C1_7 N1_8 1_555 1_555
H1_7 C1_7 1_555 1_555
C2_8 C1_7 1_555 1_555
H2_8 C2_8 1_555 1_555
C3_8 N1_8 1_555 1_555
H3_8 C3_8 1_555 1_555
C4_8 N2_8 1_555 1_555
C5_8 C4_8 1_555 1_555
H4_8 C5_8 1_555 1_555
C6_8 C5_8 1_555 1_555
H5_8 C6_8 1_555 1_555
C7_8 C6_8 1_555 1_555
C8_8 C7_8 1_555 1_555
H6_8 C8_8 1_555 1_555
C9_8 C4_8 1_555 1_555
H7_8 C9_8 1_555 1_555
C21_4 C7_8 1_555 1_555
C11_7 O2_7 1_555 1_555
C12_7 C11_7 1_555 1_555
C13_7 C12_7 1_555 1_555
H8_7 C13_7 1_555 1_555
C14_7 C13_7 1_555 1_555
H9_7 C14_7 1_555 1_555
C17_7 C12_7 1_555 1_555
H11_7 C17_7 1_555 1_555
O5_8 Cd3_2 1_555 1_555
H15_8 O5_8 1_555 1_555
H16_8 O5_8 1_555 1_555
N5_4 Cd3_2 1_555 1_555
N2_8 C3_8 1_555 1_555
C8_8 C9_8 1_555 1_555
N3_7 C15_7 1_555 1_555
C16_6 C15_7 1_555 1_555
H10_6 C16_6 1_555 1_555
C18_7 N3_7 1_555 1_555
H12_7 C18_7 1_555 1_555
C20_7 N3_7 1_555 1_555
H14_6 C20_7 1_555 1_555
N4_4 C20_7 1_555 1_555
O1_8 C11_8 1_555 1_555
N3_8 C15_8 1_555 1_555
N5_4 C19_7 1_555 1_555
H1_8 C1_8 1_555 1_555
C11_8 O2_8 1_555 1_555
C12_8 C11_8 1_555 1_555
C13_8 C12_8 1_555 1_555
H8_8 C13_8 1_555 1_555
C14_8 C13_8 1_555 1_555
H9_8 C14_8 1_555 1_555
C15_8 C14_8 1_555 1_555
C16_7 C15_8 1_555 1_555
H10_7 C16_7 1_555 1_555
C17_8 C12_8 1_555 1_555
H11_8 C17_8 1_555 1_555
C18_8 N3_8 1_555 1_555
H12_8 C18_8 1_555 1_555
C19_7 C18_8 1_555 1_555
H13_7 C19_7 1_555 1_555
C20_8 N3_8 1_555 1_555
H14_7 C20_8 1_555 1_555
N5_4 C20_8 1_555 1_555
C16_7 C17_8 1_555 1_555
H10_8 C16_8 1_555 1_555
H13_8 C19_8 1_555 1_555

#END
