
###############################################################################
#
# This file contains modified crystal structure data generated from the
# MOF subset of the Cambridge Structural Database (CSD) v543 
# hosted by the Cambridge Crystallographic Data Centre (CCDC).
#
# This work is licensed under the Creative Commons
# Attribution-NonCommercial-ShareAlike 4.0 International License.
# To view a copy of this license, visit
# http://creativecommons.org/licenses/by-nc-sa/4.0/
# or send a letter to
# Creative Commons, PO Box 1866, Mountain View, CA 94042, USA.
#
# CIF created using the CSD Python API on 29 September 2022
# The structure has been converted into the P1 space group
# The structure has a 3D framework
# The original CSD entry OHAKIS is in the orthorhombic crystal system
# The framework has been calculated to contain at least 10.0% void space
# The void calculation uses a probe of radius 1.32A, grid spacing 0.4
#
###############################################################################

data_OHAKIS
_chemical_formula_moiety         '(C160 H112 Cd6 N32 O16)n'
_symmetry_cell_setting           triclinic
_symmetry_space_group_name_H-M   'P 1'
_symmetry_Int_Tables_number      1
_space_group_name_Hall           'P 1'
loop_
_symmetry_equiv_pos_site_id
_symmetry_equiv_pos_as_xyz
1 x,y,z
_cell_length_a                   16.720(6)
_cell_length_b                   17.081(5)
_cell_length_c                   18.432(7)
_cell_angle_alpha                90
_cell_angle_beta                 90
_cell_angle_gamma                90
_cell_volume                     5264.07
loop_
_atom_site_label
_atom_site_type_symbol
_atom_site_fract_x
_atom_site_fract_y
_atom_site_fract_z
Cd1 Cd 0.22313(2) 0.00850(2) 0.48090(2)
N3 N 0.2406(3) 0.0416(3) 0.5980(2)
N4 N 0.2436(3) 0.1115(3) 0.6981(2)
O3 O 0.2013(2) 0.3555(2) 0.9593(2)
O4 O 0.2100(2) 0.4366(2) 0.8663(2)
C1 C 0.4086(4) 0.0131(3) 0.4100(4)
H1 H 0.4025 0.0608 0.3864
C11 C 0.2854(4) 0.0019(3) 0.6490(3)
C12 C 0.2873(4) 0.0442(3) 0.7116(3)
H9 H 0.3128 0.0306 0.7547
C13 C 0.2171(3) 0.1067(3) 0.6290(3)
H10 H 0.1861 0.1447 0.6063
C14 C 0.2318(3) 0.1753(3) 0.7473(3)
C15 C 0.2244(4) 0.2515(3) 0.7183(3)
H11 H 0.2261 0.2604 0.6686
C16 C 0.2147(4) 0.3126(3) 0.7674(3)
H12 H 0.2084 0.3632 0.7498
C17 C 0.2140(3) 0.3003(3) 0.8410(3)
C18 C 0.2229(3) 0.2240(3) 0.8675(3)
H13 H 0.2234 0.2154 0.9173
C19 C 0.2309(3) 0.1614(3) 0.8206(3)
H14 H 0.2356 0.1107 0.8384
C20 C 0.2072(3) 0.3690(3) 0.8916(3)
Cd3 Cd 0.22313(2) 0.49150(2) 0.98090(2)
O7 O 0.2013(2) 0.1445(2) 0.4593(2)
O8 O 0.2100(2) 0.0634(2) 0.3663(2)
C22 C 0.2072(3) 0.1310(3) 0.3916(3)
O2 O 0.2210(2) 0.6320(3) 0.0222(2)
H2 H 0.0214 0.9777 0.1190
C4 C 0.0060(3) 0.8339(3) 0.0417(3)
C5 C 0.0880(3) 0.8388(3) 0.0442(3)
H4 H 0.1127 0.8866 0.0532
C6 C 0.1337(3) 0.7724(3) 0.0334(3)
H5 H 0.1892 0.7759 0.0349
C7 C 0.0976(3) 0.7004(3) 0.0203(3)
C8 C 0.0142(3) 0.6961(3) 0.0187(3)
C10 C 0.1476(3) 0.6295(3) 0.0084(3)
O1 O 0.1153(3) 0.5681(3) 0.9834(2)
N1 N 0.8513(3) 0.9787(3) 0.0459(3)
N2 N 0.9574(3) 0.9014(3) 0.0519(2)
C2 C 0.9744(4) 0.9674(4) 0.0938(4)
C3 C 0.8841(3) 0.9121(3) 0.0240(3)
H6 H 0.9895 0.6484 0.0096
C9 C 0.9684(3) 0.7614(3) 0.0303(3)
H7 H 0.9130 0.7577 0.0306
O5 O 0.6153(3) 0.9319(3) 0.0166(2)
H3 H 0.8592 0.8769 0.9928
H8 H 0.8103 0.9539 0.8582
O6 O 0.7210(2) 0.8680(3) 0.9778(2)
C21 C 0.6476(3) 0.8705(3) 0.9916(3)
N3_2 N 0.2406(3) 0.4584(3) 0.0980(2)
N4_2 N 0.2436(3) 0.3885(3) 0.1981(2)
H3_2 H 0.3592 0.6231 0.0072
C11_2 C 0.2854(4) 0.4981(3) 0.1490(3)
H8_2 H 0.3103 0.5461 0.1418
C12_2 C 0.2873(4) 0.4558(3) 0.2116(3)
H9_2 H 0.3128 0.4694 0.2547
C13_2 C 0.2171(3) 0.3933(3) 0.1290(3)
H10_2 H 0.1861 0.3553 0.1063
C14_2 C 0.2318(3) 0.3247(3) 0.2473(3)
C15_2 C 0.2244(4) 0.2485(3) 0.2183(3)
H11_2 H 0.2261 0.2396 0.1686
C16_2 C 0.2147(4) 0.1874(3) 0.2674(3)
H12_2 H 0.2084 0.1368 0.2498
C17_2 C 0.2140(3) 0.1997(3) 0.3410(3)
C18_2 C 0.2229(3) 0.2760(3) 0.3675(3)
H13_2 H 0.2234 0.2846 0.4173
C19_2 C 0.2309(3) 0.3386(3) 0.3206(3)
H14_2 H 0.2356 0.3893 0.3384
N1_2 N 0.3513(3) 0.5213(3) 0.9541(3)
N2_2 N 0.4574(3) 0.5986(3) 0.9481(2)
C1_2 C 0.4086(4) 0.4869(3) 0.9100(4)
H1_2 H 0.4025 0.4392 0.8864
C2_2 C 0.4744(4) 0.5326(4) 0.9062(4)
H2_2 H 0.5214 0.5223 0.8810
C3_2 C 0.3841(3) 0.5879(3) 0.9760(3)
C4_2 C 0.5060(3) 0.6661(3) 0.9583(3)
C5_2 C 0.5880(3) 0.6612(3) 0.9558(3)
H4_2 H 0.6127 0.6134 0.9468
C6_2 C 0.6337(3) 0.7276(3) 0.9666(3)
H5_2 H 0.6892 0.7241 0.9651
C7_2 C 0.5976(3) 0.7996(3) 0.9797(3)
C8_2 C 0.5142(3) 0.8039(3) 0.9813(3)
H6_2 H 0.4895 0.8516 0.9904
C9_2 C 0.4684(3) 0.7386(3) 0.9697(3)
H7_2 H 0.4130 0.7423 0.9694
N1_3 N 0.3513(3) 0.9787(3) 0.4541(3)
N2_3 N 0.4574(3) 0.9014(3) 0.4481(2)
O1_2 O 0.6153(3) 0.5681(3) 0.5166(2)
O2_2 O 0.7210(2) 0.6320(3) 0.4778(2)
C2_3 C 0.4744(4) 0.9674(4) 0.4062(4)
H2_3 H 0.5214 0.9777 0.3810
C3_3 C 0.3841(3) 0.9121(3) 0.4760(3)
H3_3 H 0.3592 0.8769 0.5072
C4_3 C 0.5060(3) 0.8339(3) 0.4583(3)
C5_3 C 0.5880(3) 0.8388(3) 0.4558(3)
H4_3 H 0.6127 0.8866 0.4468
C6_3 C 0.6337(3) 0.7724(3) 0.4666(3)
H5_3 H 0.6892 0.7759 0.4651
C7_3 C 0.5976(3) 0.7004(3) 0.4797(3)
C8_3 C 0.5142(3) 0.6961(3) 0.4813(3)
H6_3 H 0.4895 0.6484 0.4904
C9_3 C 0.4684(3) 0.7614(3) 0.4697(3)
H7_3 H 0.4130 0.7577 0.4694
C10_2 C 0.6476(3) 0.6295(3) 0.4916(3)
H8_3 H 0.3103 0.9539 0.6418
Cd2 Cd 0.72313(2) 0.49150(2) 0.51910(2)
O5_2 O 0.1153(3) 0.9319(3) 0.4834(2)
O6_2 O 0.2210(2) 0.8680(3) 0.5222(2)
C21_2 C 0.1476(3) 0.8705(3) 0.5084(3)
H2_4 H 0.0214 0.5223 0.6190
C4_4 C 0.0060(3) 0.6661(3) 0.5417(3)
C5_4 C 0.0880(3) 0.6612(3) 0.5442(3)
H4_4 H 0.1127 0.6134 0.5532
C6_4 C 0.1337(3) 0.7276(3) 0.5334(3)
H5_4 H 0.1892 0.7241 0.5349
C7_4 C 0.0976(3) 0.7996(3) 0.5203(3)
C8_4 C 0.0142(3) 0.8039(3) 0.5187(3)
N1_4 N 0.8513(3) 0.5213(3) 0.5459(3)
N2_4 N 0.9574(3) 0.5986(3) 0.5519(2)
N3_3 N 0.7406(3) 0.4584(3) 0.4020(2)
N4_3 N 0.7436(3) 0.3885(3) 0.3019(2)
O3_2 O 0.7013(2) 0.1445(2) 0.0407(2)
O4_2 O 0.7100(2) 0.0634(2) 0.1337(2)
C1_3 C 0.9086(4) 0.4869(3) 0.5900(4)
H1_3 H 0.9025 0.4392 0.6136
C2_4 C 0.9744(4) 0.5326(4) 0.5938(4)
C3_4 C 0.8841(3) 0.5879(3) 0.5240(3)
H3_4 H 0.8592 0.6231 0.4928
H6_4 H 0.9895 0.8516 0.5096
C9_4 C 0.9684(3) 0.7386(3) 0.5303(3)
H7_4 H 0.9130 0.7423 0.5306
C11_3 C 0.7854(4) 0.4981(3) 0.3510(3)
H8_4 H 0.8103 0.5461 0.3582
C12_3 C 0.7873(4) 0.4558(3) 0.2884(3)
H9_3 H 0.8128 0.4694 0.2453
C13_3 C 0.7171(3) 0.3933(3) 0.3710(3)
H10_3 H 0.6861 0.3553 0.3937
C14_3 C 0.7318(3) 0.3247(3) 0.2527(3)
C15_3 C 0.7244(4) 0.2485(3) 0.2817(3)
H11_3 H 0.7261 0.2396 0.3314
C16_3 C 0.7147(4) 0.1874(3) 0.2326(3)
H12_3 H 0.7084 0.1368 0.2502
C17_3 C 0.7140(3) 0.1997(3) 0.1590(3)
C18_3 C 0.7229(3) 0.2760(3) 0.1325(3)
H13_3 H 0.7234 0.2846 0.0827
C19_3 C 0.7309(3) 0.3386(3) 0.1794(3)
H14_3 H 0.7356 0.3893 0.1616
C20_2 C 0.7072(3) 0.1310(3) 0.1084(3)
Cd3_2 Cd 0.72313(2) 0.00850(2) 0.01910(2)
O7_2 O 0.7013(2) 0.3555(2) 0.5407(2)
O8_2 O 0.7100(2) 0.4366(2) 0.6337(2)
C22_2 C 0.7072(3) 0.3690(3) 0.6084(3)
C1_4 C 0.9086(4) 0.0131(3) 0.0900(4)
H1_4 H 0.9025 0.0608 0.1136
N3_4 N 0.7406(3) 0.0416(3) 0.9020(2)
N4_4 N 0.7436(3) 0.1115(3) 0.8019(2)
C11_4 C 0.7854(4) 0.0019(3) 0.8510(3)
C12_4 C 0.7873(4) 0.0442(3) 0.7884(3)
H9_4 H 0.8128 0.0306 0.7453
C13_4 C 0.7171(3) 0.1067(3) 0.8710(3)
H10_4 H 0.6861 0.1447 0.8937
C14_4 C 0.7318(3) 0.1753(3) 0.7527(3)
C15_4 C 0.7244(4) 0.2515(3) 0.7817(3)
H11_4 H 0.7261 0.2604 0.8314
C16_4 C 0.7147(4) 0.3126(3) 0.7326(3)
H12_4 H 0.7084 0.3632 0.7502
C17_4 C 0.7140(3) 0.3003(3) 0.6590(3)
C18_4 C 0.7229(3) 0.2240(3) 0.6325(3)
H13_4 H 0.7234 0.2154 0.5827
C19_4 C 0.7309(3) 0.1614(3) 0.6794(3)
H14_4 H 0.7356 0.1107 0.6616
H3_5 H 0.1408 0.1231 0.0072
H8_5 H 0.1897 0.0461 0.1418
O6_3 O 0.2790(2) 0.1320(3) 0.0222(2)
C21_3 C 0.3524(3) 0.1295(3) 0.0084(3)
N1_5 N 0.1487(3) 0.0213(3) 0.9541(3)
N2_5 N 0.0426(3) 0.0986(3) 0.9481(2)
C2_5 C 0.0256(4) 0.0326(4) 0.9062(4)
C3_5 C 0.1159(3) 0.0879(3) 0.9760(3)
H6_5 H 0.0105 0.3516 0.9904
C9_5 C 0.0316(3) 0.2386(3) 0.9697(3)
H7_5 H 0.0870 0.2423 0.9694
O5_3 O 0.3847(3) 0.0681(3) 0.9834(2)
O1_3 O 0.8847(3) 0.4319(3) 0.0166(2)
Cd2_2 Cd 0.77687(2) 0.50850(2) 0.01910(2)
O2_3 O 0.7790(2) 0.3680(3) 0.9778(2)
H2_5 H 0.9786 0.0223 0.8810
C4_5 C 0.9940(3) 0.1661(3) 0.9583(3)
C5_5 C 0.9120(3) 0.1612(3) 0.9558(3)
H4_5 H 0.8873 0.1134 0.9468
C6_5 C 0.8663(3) 0.2276(3) 0.9666(3)
H5_5 H 0.8108 0.2241 0.9651
C7_5 C 0.9024(3) 0.2996(3) 0.9797(3)
C8_5 C 0.9858(3) 0.3039(3) 0.9813(3)
C10_3 C 0.8524(3) 0.3705(3) 0.9916(3)
N1_6 N 0.6487(3) 0.4787(3) 0.0459(3)
N2_6 N 0.5426(3) 0.4014(3) 0.0519(2)
C1_5 C 0.5914(4) 0.5131(3) 0.0900(4)
H1_5 H 0.5975 0.5608 0.1136
C2_6 C 0.5256(4) 0.4674(4) 0.0938(4)
H2_6 H 0.4786 0.4777 0.1190
C3_6 C 0.6159(3) 0.4121(3) 0.0240(3)
C4_6 C 0.4940(3) 0.3339(3) 0.0417(3)
C5_6 C 0.4120(3) 0.3388(3) 0.0442(3)
H4_6 H 0.3873 0.3866 0.0532
C6_6 C 0.3663(3) 0.2724(3) 0.0334(3)
H5_6 H 0.3108 0.2759 0.0349
C7_6 C 0.4024(3) 0.2004(3) 0.0203(3)
C8_6 C 0.4858(3) 0.1961(3) 0.0187(3)
H6_6 H 0.5105 0.1484 0.0096
C9_6 C 0.5316(3) 0.2614(3) 0.0303(3)
H7_6 H 0.5870 0.2577 0.0306
O7_3 O 0.7987(2) 0.6445(2) 0.0407(2)
O8_3 O 0.7900(2) 0.5634(2) 0.1337(2)
C22_3 C 0.7928(3) 0.6310(3) 0.1084(3)
N3_5 N 0.7594(3) 0.5416(3) 0.9020(2)
N4_5 N 0.7564(3) 0.6115(3) 0.8019(2)
O3_3 O 0.7987(2) 0.8555(2) 0.5407(2)
O4_3 O 0.7900(2) 0.9366(2) 0.6337(2)
H3_6 H 0.6408 0.3769 0.9928
C11_5 C 0.7146(4) 0.5019(3) 0.8510(3)
H8_6 H 0.6897 0.4539 0.8582
C12_5 C 0.7127(4) 0.5442(3) 0.7884(3)
H9_5 H 0.6872 0.5306 0.7453
C13_5 C 0.7829(3) 0.6067(3) 0.8710(3)
H10_5 H 0.8139 0.6447 0.8937
C14_5 C 0.7682(3) 0.6753(3) 0.7527(3)
C15_5 C 0.7756(4) 0.7515(3) 0.7817(3)
H11_5 H 0.7739 0.7604 0.8314
C16_5 C 0.7853(4) 0.8126(3) 0.7326(3)
H12_5 H 0.7916 0.8632 0.7502
C17_5 C 0.7860(3) 0.8003(3) 0.6590(3)
C18_5 C 0.7771(3) 0.7240(3) 0.6325(3)
H13_5 H 0.7766 0.7154 0.5827
C19_5 C 0.7691(3) 0.6614(3) 0.6794(3)
H14_5 H 0.7644 0.6107 0.6616
C20_3 C 0.7928(3) 0.8690(3) 0.6084(3)
Cd3_3 Cd 0.77687(2) 0.99150(2) 0.51910(2)
N3_6 N 0.7594(3) 0.9584(3) 0.4020(2)
N4_6 N 0.7564(3) 0.8885(3) 0.3019(2)
C1_6 C 0.5914(4) 0.9869(3) 0.5900(4)
H1_6 H 0.5975 0.9392 0.6136
C11_6 C 0.7146(4) 0.9981(3) 0.3510(3)
C12_6 C 0.7127(4) 0.9558(3) 0.2884(3)
H9_6 H 0.6872 0.9694 0.2453
C13_6 C 0.7829(3) 0.8933(3) 0.3710(3)
H10_6 H 0.8139 0.8553 0.3937
C14_6 C 0.7682(3) 0.8247(3) 0.2527(3)
C15_6 C 0.7756(4) 0.7485(3) 0.2817(3)
H11_6 H 0.7739 0.7396 0.3314
C16_6 C 0.7853(4) 0.6874(3) 0.2326(3)
H12_6 H 0.7916 0.6368 0.2502
C17_6 C 0.7860(3) 0.6997(3) 0.1590(3)
C18_6 C 0.7771(3) 0.7760(3) 0.1325(3)
H13_6 H 0.7766 0.7846 0.0827
C19_6 C 0.7691(3) 0.8386(3) 0.1794(3)
H14_6 H 0.7644 0.8893 0.1616
N3_7 N 0.2594(3) 0.9584(3) 0.0980(2)
N4_7 N 0.2564(3) 0.8885(3) 0.1981(2)
O3_4 O 0.2987(2) 0.6445(2) 0.4593(2)
O4_4 O 0.2900(2) 0.5634(2) 0.3663(2)
C11_7 C 0.2146(4) 0.9981(3) 0.1490(3)
C12_7 C 0.2127(4) 0.9558(3) 0.2116(3)
H9_7 H 0.1872 0.9694 0.2547
C13_7 C 0.2829(3) 0.8933(3) 0.1290(3)
H10_7 H 0.3139 0.8553 0.1063
C14_7 C 0.2682(3) 0.8247(3) 0.2473(3)
C15_7 C 0.2756(4) 0.7485(3) 0.2183(3)
H11_7 H 0.2739 0.7396 0.1686
C16_7 C 0.2853(4) 0.6874(3) 0.2674(3)
H12_7 H 0.2916 0.6368 0.2498
C17_7 C 0.2860(3) 0.6997(3) 0.3410(3)
C18_7 C 0.2771(3) 0.7760(3) 0.3675(3)
H13_7 H 0.2766 0.7846 0.4173
C19_7 C 0.2691(3) 0.8386(3) 0.3206(3)
H14_7 H 0.2644 0.8893 0.3384
C20_4 C 0.2928(3) 0.6310(3) 0.3916(3)
Cd3_4 Cd 0.27687(2) 0.50850(2) 0.48090(2)
Cd1_2 Cd 0.27687(2) 0.99150(2) 0.98090(2)
C1_7 C 0.0914(4) 0.9869(3) 0.9100(4)
H1_7 H 0.0975 0.9392 0.8864
O7_4 O 0.2987(2) 0.8555(2) 0.9593(2)
O8_4 O 0.2900(2) 0.9366(2) 0.8663(2)
C22_4 C 0.2928(3) 0.8690(3) 0.8916(3)
N1_7 N 0.6487(3) 0.0213(3) 0.5459(3)
N2_7 N 0.5426(3) 0.0986(3) 0.5519(2)
O1_4 O 0.3847(3) 0.4319(3) 0.4834(2)
O2_4 O 0.2790(2) 0.3680(3) 0.5222(2)
C2_7 C 0.5256(4) 0.0326(4) 0.5938(4)
H2_7 H 0.4786 0.0223 0.6190
C3_7 C 0.6159(3) 0.0879(3) 0.5240(3)
H3_7 H 0.6408 0.1231 0.4928
C4_7 C 0.4940(3) 0.1661(3) 0.5417(3)
C5_7 C 0.4120(3) 0.1612(3) 0.5442(3)
H4_7 H 0.3873 0.1134 0.5532
C6_7 C 0.3663(3) 0.2276(3) 0.5334(3)
H5_7 H 0.3108 0.2241 0.5349
C7_7 C 0.4024(3) 0.2996(3) 0.5203(3)
C8_7 C 0.4858(3) 0.3039(3) 0.5187(3)
H6_7 H 0.5105 0.3516 0.5096
C9_7 C 0.5316(3) 0.2386(3) 0.5303(3)
H7_7 H 0.5870 0.2423 0.5306
C10_4 C 0.3524(3) 0.3705(3) 0.5084(3)
H8_7 H 0.6897 0.0461 0.3582
O5_4 O 0.8847(3) 0.0681(3) 0.5166(2)
O6_4 O 0.7790(2) 0.1320(3) 0.4778(2)
C21_4 C 0.8524(3) 0.1295(3) 0.4916(3)
N1_8 N 0.1487(3) 0.4787(3) 0.4541(3)
N2_8 N 0.0426(3) 0.4014(3) 0.4481(2)
N3_8 N 0.2594(3) 0.5416(3) 0.5980(2)
N4_8 N 0.2564(3) 0.6115(3) 0.6981(2)
C1_8 C 0.0914(4) 0.5131(3) 0.4100(4)
H1_8 H 0.0975 0.5608 0.3864
C2_8 C 0.0256(4) 0.4674(4) 0.4062(4)
C3_8 C 0.1159(3) 0.4121(3) 0.4760(3)
H3_8 H 0.1408 0.3769 0.5072
H6_8 H 0.0105 0.1484 0.4904
C9_8 C 0.0316(3) 0.2614(3) 0.4697(3)
H7_8 H 0.0870 0.2577 0.4694
C11_8 C 0.2146(4) 0.5019(3) 0.6490(3)
H8_8 H 0.1897 0.4539 0.6418
C12_8 C 0.2127(4) 0.5442(3) 0.7116(3)
H9_8 H 0.1872 0.5306 0.7547
C13_8 C 0.2829(3) 0.6067(3) 0.6290(3)
H10_8 H 0.3139 0.6447 0.6063
C14_8 C 0.2682(3) 0.6753(3) 0.7473(3)
C15_8 C 0.2756(4) 0.7515(3) 0.7183(3)
H11_8 H 0.2739 0.7604 0.6686
C16_8 C 0.2853(4) 0.8126(3) 0.7674(3)
H12_8 H 0.2916 0.8632 0.7498
C17_8 C 0.2860(3) 0.8003(3) 0.8410(3)
C18_8 C 0.2771(3) 0.7240(3) 0.8675(3)
H13_8 H 0.2766 0.7154 0.9173
C19_8 C 0.2691(3) 0.6614(3) 0.8206(3)
H14_8 H 0.2644 0.6107 0.8384
H2_8 H 0.9786 0.4777 0.3810
C4_8 C 0.9940(3) 0.3339(3) 0.4583(3)
C5_8 C 0.9120(3) 0.3388(3) 0.4558(3)
H4_8 H 0.8873 0.3866 0.4468
C6_8 C 0.8663(3) 0.2724(3) 0.4666(3)
H5_8 H 0.8108 0.2759 0.4651
C7_8 C 0.9024(3) 0.2004(3) 0.4797(3)
C8_8 C 0.9858(3) 0.1961(3) 0.4813(3)
loop_
_geom_bond_atom_site_label_1
_geom_bond_atom_site_label_2
_geom_bond_site_symmetry_1
_geom_bond_site_symmetry_2
N3 Cd1 1_555 1_555
N4 C12 1_555 1_555
O3 C20 1_555 1_555
O4 C20 1_555 1_555
C1 H1 1_555 1_555
C11 N3 1_555 1_555
C12 C11 1_555 1_555
H9 C12 1_555 1_555
C13 N3 1_555 1_555
H10 C13 1_555 1_555
C14 N4 1_555 1_555
C15 C14 1_555 1_555
H11 C15 1_555 1_555
C16 C15 1_555 1_555
H12 C16 1_555 1_555
C17 C16 1_555 1_555
C18 C17 1_555 1_555
H13 C18 1_555 1_555
C19 C14 1_555 1_555
H14 C19 1_555 1_555
C20 C17 1_555 1_555
Cd3 O3 1_555 1_555
O7 Cd1 1_555 1_555
O8 Cd1 1_555 1_555
C22 O7 1_555 1_555
N4 C13 1_555 1_555
O4 Cd3 1_555 1_555
C18 C19 1_555 1_555
O8 C22 1_555 1_555
O2 C10 1_555 1_555
C5 C4 1_555 1_555
H4 C5 1_555 1_555
C6 C5 1_555 1_555
H5 C6 1_555 1_555
C7 C6 1_555 1_555
C8 C7 1_555 1_555
C10 C7 1_555 1_555
Cd3 O1 1_555 1_555
N2 C2 1_555 1_555
C3 N1 1_555 1_555
H7 C9 1_555 1_555
N2 C3 1_555 1_555
O6 C21 1_555 1_555
N4_2 C12_2 1_555 1_555
C11_2 N3_2 1_555 1_555
H8_2 C11_2 1_555 1_555
C12_2 C11_2 1_555 1_555
H9_2 C12_2 1_555 1_555
C13_2 N3_2 1_555 1_555
H10_2 C13_2 1_555 1_555
C14_2 N4_2 1_555 1_555
C15_2 C14_2 1_555 1_555
H11_2 C15_2 1_555 1_555
C16_2 C15_2 1_555 1_555
H12_2 C16_2 1_555 1_555
C17_2 C16_2 1_555 1_555
C18_2 C17_2 1_555 1_555
H13_2 C18_2 1_555 1_555
C19_2 C14_2 1_555 1_555
H14_2 C19_2 1_555 1_555
C22 C17_2 1_555 1_555
N4_2 C13_2 1_555 1_555
C18_2 C19_2 1_555 1_555
Cd3 N1_2 1_555 1_555
N1_2 C1_2 1_555 1_555
N2_2 C2_2 1_555 1_555
C1_2 H1_2 1_555 1_555
C2_2 C1_2 1_555 1_555
H2_2 C2_2 1_555 1_555
C3_2 N1_2 1_555 1_555
C4_2 N2_2 1_555 1_555
C5_2 C4_2 1_555 1_555
H4_2 C5_2 1_555 1_555
C6_2 C5_2 1_555 1_555
H5_2 C6_2 1_555 1_555
C7_2 C6_2 1_555 1_555
C8_2 C7_2 1_555 1_555
H6_2 C8_2 1_555 1_555
C9_2 C4_2 1_555 1_555
H7_2 C9_2 1_555 1_555
C21 C7_2 1_555 1_555
N2_2 C3_2 1_555 1_555
C8_2 C9_2 1_555 1_555
N2_3 C2_3 1_555 1_555
O1_2 C10_2 1_555 1_555
O2_2 C10_2 1_555 1_555
H2_3 C2_3 1_555 1_555
C3_3 N1_3 1_555 1_555
H3_3 C3_3 1_555 1_555
C4_3 N2_3 1_555 1_555
C5_3 C4_3 1_555 1_555
H4_3 C5_3 1_555 1_555
C6_3 C5_3 1_555 1_555
H5_3 C6_3 1_555 1_555
C7_3 C6_3 1_555 1_555
C8_3 C7_3 1_555 1_555
H6_3 C8_3 1_555 1_555
C9_3 C4_3 1_555 1_555
H7_3 C9_3 1_555 1_555
C10_2 C7_3 1_555 1_555
Cd2 O1_2 1_555 1_555
C21_2 O5_2 1_555 1_555
N2_3 C3_3 1_555 1_555
O2_2 Cd2 1_555 1_555
C8_3 C9_3 1_555 1_555
O6_2 C21_2 1_555 1_555
C5_4 C4_4 1_555 1_555
H4_4 C5_4 1_555 1_555
C6_4 C5_4 1_555 1_555
H5_4 C6_4 1_555 1_555
C7_4 C6_4 1_555 1_555
C8_4 C7_4 1_555 1_555
C21_2 C7_4 1_555 1_555
Cd2 N1_4 1_555 1_555
N1_4 C1_3 1_555 1_555
N2_4 C2_4 1_555 1_555
N3_3 Cd2 1_555 1_555
N4_3 C12_3 1_555 1_555
O3_2 C20_2 1_555 1_555
O4_2 C20_2 1_555 1_555
C1_3 H1_3 1_555 1_555
C2_4 C1_3 1_555 1_555
C3_4 N1_4 1_555 1_555
H3_4 C3_4 1_555 1_555
H7_4 C9_4 1_555 1_555
C11_3 N3_3 1_555 1_555
H8_4 C11_3 1_555 1_555
C12_3 C11_3 1_555 1_555
H9_3 C12_3 1_555 1_555
C13_3 N3_3 1_555 1_555
H10_3 C13_3 1_555 1_555
C14_3 N4_3 1_555 1_555
C15_3 C14_3 1_555 1_555
H11_3 C15_3 1_555 1_555
C16_3 C15_3 1_555 1_555
H12_3 C16_3 1_555 1_555
C17_3 C16_3 1_555 1_555
C18_3 C17_3 1_555 1_555
H13_3 C18_3 1_555 1_555
C19_3 C14_3 1_555 1_555
H14_3 C19_3 1_555 1_555
C20_2 C17_3 1_555 1_555
Cd3_2 O3_2 1_555 1_555
O7_2 Cd2 1_555 1_555
O8_2 Cd2 1_555 1_555
C22_2 O7_2 1_555 1_555
N2_4 C3_4 1_555 1_555
N4_3 C13_3 1_555 1_555
O4_2 Cd3_2 1_555 1_555
C18_3 C19_3 1_555 1_555
O8_2 C22_2 1_555 1_555
C1_4 H1_4 1_555 1_555
N4_4 C12_4 1_555 1_555
C11_4 N3_4 1_555 1_555
C12_4 C11_4 1_555 1_555
H9_4 C12_4 1_555 1_555
C13_4 N3_4 1_555 1_555
H10_4 C13_4 1_555 1_555
C14_4 N4_4 1_555 1_555
C15_4 C14_4 1_555 1_555
H11_4 C15_4 1_555 1_555
C16_4 C15_4 1_555 1_555
H12_4 C16_4 1_555 1_555
C17_4 C16_4 1_555 1_555
C18_4 C17_4 1_555 1_555
H13_4 C18_4 1_555 1_555
C19_4 C14_4 1_555 1_555
H14_4 C19_4 1_555 1_555
C22_2 C17_4 1_555 1_555
N4_4 C13_4 1_555 1_555
C18_4 C19_4 1_555 1_555
O6_3 C21_3 1_555 1_555
N2_5 C2_5 1_555 1_555
C3_5 N1_5 1_555 1_555
H7_5 C9_5 1_555 1_555
N2_5 C3_5 1_555 1_555
Cd2_2 O1_3 1_555 1_555
O2_3 C10_3 1_555 1_555
C5_5 C4_5 1_555 1_555
H4_5 C5_5 1_555 1_555
C6_5 C5_5 1_555 1_555
H5_5 C6_5 1_555 1_555
C7_5 C6_5 1_555 1_555
C8_5 C7_5 1_555 1_555
C10_3 C7_5 1_555 1_555
Cd2_2 N1_6 1_555 1_555
N1_6 C1_5 1_555 1_555
N2_6 C2_6 1_555 1_555
C1_5 H1_5 1_555 1_555
C2_6 C1_5 1_555 1_555
H2_6 C2_6 1_555 1_555
C3_6 N1_6 1_555 1_555
C4_6 N2_6 1_555 1_555
C5_6 C4_6 1_555 1_555
H4_6 C5_6 1_555 1_555
C6_6 C5_6 1_555 1_555
H5_6 C6_6 1_555 1_555
C7_6 C6_6 1_555 1_555
C8_6 C7_6 1_555 1_555
H6_6 C8_6 1_555 1_555
C9_6 C4_6 1_555 1_555
H7_6 C9_6 1_555 1_555
C21_3 C7_6 1_555 1_555
O7_3 Cd2_2 1_555 1_555
O8_3 Cd2_2 1_555 1_555
C22_3 O7_3 1_555 1_555
N2_6 C3_6 1_555 1_555
C8_6 C9_6 1_555 1_555
O8_3 C22_3 1_555 1_555
N4_5 C12_5 1_555 1_555
O3_3 C20_3 1_555 1_555
O4_3 C20_3 1_555 1_555
C11_5 N3_5 1_555 1_555
H8_6 C11_5 1_555 1_555
C12_5 C11_5 1_555 1_555
H9_5 C12_5 1_555 1_555
C13_5 N3_5 1_555 1_555
H10_5 C13_5 1_555 1_555
C14_5 N4_5 1_555 1_555
C15_5 C14_5 1_555 1_555
H11_5 C15_5 1_555 1_555
C16_5 C15_5 1_555 1_555
H12_5 C16_5 1_555 1_555
C17_5 C16_5 1_555 1_555
C18_5 C17_5 1_555 1_555
H13_5 C18_5 1_555 1_555
C19_5 C14_5 1_555 1_555
H14_5 C19_5 1_555 1_555
C20_3 C17_5 1_555 1_555
Cd3_3 O3_3 1_555 1_555
N4_5 C13_5 1_555 1_555
O4_3 Cd3_3 1_555 1_555
C18_5 C19_5 1_555 1_555
N3_6 Cd3_3 1_555 1_555
N4_6 C12_6 1_555 1_555
C1_6 H1_6 1_555 1_555
C11_6 N3_6 1_555 1_555
C12_6 C11_6 1_555 1_555
H9_6 C12_6 1_555 1_555
C13_6 N3_6 1_555 1_555
H10_6 C13_6 1_555 1_555
C14_6 N4_6 1_555 1_555
C15_6 C14_6 1_555 1_555
H11_6 C15_6 1_555 1_555
C16_6 C15_6 1_555 1_555
H12_6 C16_6 1_555 1_555
C17_6 C16_6 1_555 1_555
C18_6 C17_6 1_555 1_555
H13_6 C18_6 1_555 1_555
C19_6 C14_6 1_555 1_555
H14_6 C19_6 1_555 1_555
C22_3 C17_6 1_555 1_555
N4_6 C13_6 1_555 1_555
C18_6 C19_6 1_555 1_555
N4_7 C12_7 1_555 1_555
O3_4 C20_4 1_555 1_555
O4_4 C20_4 1_555 1_555
C11_7 N3_7 1_555 1_555
C12_7 C11_7 1_555 1_555
H9_7 C12_7 1_555 1_555
C13_7 N3_7 1_555 1_555
H10_7 C13_7 1_555 1_555
C14_7 N4_7 1_555 1_555
C15_7 C14_7 1_555 1_555
H11_7 C15_7 1_555 1_555
C16_7 C15_7 1_555 1_555
H12_7 C16_7 1_555 1_555
C17_7 C16_7 1_555 1_555
C18_7 C17_7 1_555 1_555
H13_7 C18_7 1_555 1_555
C19_7 C14_7 1_555 1_555
H14_7 C19_7 1_555 1_555
C20_4 C17_7 1_555 1_555
Cd3_4 O3_4 1_555 1_555
N4_7 C13_7 1_555 1_555
O4_4 Cd3_4 1_555 1_555
C18_7 C19_7 1_555 1_555
C1_7 H1_7 1_555 1_555
O7_4 Cd1_2 1_555 1_555
O8_4 Cd1_2 1_555 1_555
C22_4 O7_4 1_555 1_555
O8_4 C22_4 1_555 1_555
N2_7 C2_7 1_555 1_555
O1_4 C10_4 1_555 1_555
O2_4 C10_4 1_555 1_555
H2_7 C2_7 1_555 1_555
C3_7 N1_7 1_555 1_555
H3_7 C3_7 1_555 1_555
C4_7 N2_7 1_555 1_555
C5_7 C4_7 1_555 1_555
H4_7 C5_7 1_555 1_555
C6_7 C5_7 1_555 1_555
H5_7 C6_7 1_555 1_555
C7_7 C6_7 1_555 1_555
C8_7 C7_7 1_555 1_555
H6_7 C8_7 1_555 1_555
C9_7 C4_7 1_555 1_555
H7_7 C9_7 1_555 1_555
C10_4 C7_7 1_555 1_555
Cd3_4 O1_4 1_555 1_555
C21_4 O5_4 1_555 1_555
N2_7 C3_7 1_555 1_555
O2_4 Cd3_4 1_555 1_555
C8_7 C9_7 1_555 1_555
O6_4 C21_4 1_555 1_555
Cd3_4 N1_8 1_555 1_555
N1_8 C1_8 1_555 1_555
N2_8 C2_8 1_555 1_555
N3_8 Cd3_4 1_555 1_555
N4_8 C12_8 1_555 1_555
C1_8 H1_8 1_555 1_555
C2_8 C1_8 1_555 1_555
C3_8 N1_8 1_555 1_555
H3_8 C3_8 1_555 1_555
H7_8 C9_8 1_555 1_555
C11_8 N3_8 1_555 1_555
H8_8 C11_8 1_555 1_555
C12_8 C11_8 1_555 1_555
H9_8 C12_8 1_555 1_555
C13_8 N3_8 1_555 1_555
H10_8 C13_8 1_555 1_555
C14_8 N4_8 1_555 1_555
C15_8 C14_8 1_555 1_555
H11_8 C15_8 1_555 1_555
C16_8 C15_8 1_555 1_555
H12_8 C16_8 1_555 1_555
C17_8 C16_8 1_555 1_555
C18_8 C17_8 1_555 1_555
H13_8 C18_8 1_555 1_555
C19_8 C14_8 1_555 1_555
H14_8 C19_8 1_555 1_555
C22_4 C17_8 1_555 1_555
N2_8 C3_8 1_555 1_555
N4_8 C13_8 1_555 1_555
C18_8 C19_8 1_555 1_555
C5_8 C4_8 1_555 1_555
H4_8 C5_8 1_555 1_555
C6_8 C5_8 1_555 1_555
H5_8 C6_8 1_555 1_555
C7_8 C6_8 1_555 1_555
C8_8 C7_8 1_555 1_555
C21_4 C7_8 1_555 1_555

#END
