
###############################################################################
#
# This file contains modified crystal structure data generated from the
# MOF subset of the Cambridge Structural Database (CSD) v543 
# hosted by the Cambridge Crystallographic Data Centre (CCDC).
#
# This work is licensed under the Creative Commons
# Attribution-NonCommercial-ShareAlike 4.0 International License.
# To view a copy of this license, visit
# http://creativecommons.org/licenses/by-nc-sa/4.0/
# or send a letter to
# Creative Commons, PO Box 1866, Mountain View, CA 94042, USA.
#
# CIF created using the CSD Python API on 29 September 2022
# The structure has been converted into the P1 space group
# The structure has a 3D framework
# The original CSD entry OHAMOB is in the monoclinic crystal system
# The framework has been calculated to contain at least 10.0% void space
# The void calculation uses a probe of radius 1.32A, grid spacing 0.4
#
###############################################################################

data_OHAMOB
_chemical_formula_moiety         '(C224 H184 N24 O32 Zn8)n'
_symmetry_cell_setting           triclinic
_symmetry_space_group_name_H-M   'P 1'
_symmetry_Int_Tables_number      1
_space_group_name_Hall           'P 1'
loop_
_symmetry_equiv_pos_site_id
_symmetry_equiv_pos_as_xyz
1 x,y,z
_cell_length_a                   29.139(18)
_cell_length_b                   8.292(6)
_cell_length_c                   22.798(15)
_cell_angle_alpha                90
_cell_angle_beta                 94.970(11)
_cell_angle_gamma                90
_cell_volume                     5487.76
loop_
_atom_site_label
_atom_site_type_symbol
_atom_site_fract_x
_atom_site_fract_y
_atom_site_fract_z
Zn4 Zn 0.035495(12) 0.37684(4) 0.997527(15)
C16 C 0.06251(13) 0.9564(5) 0.89877(16)
H11 H 0.0380 0.9952 0.9182
C17 C 0.07632(12) 0.7980(5) 0.90665(15)
C18 C 0.11314(13) 0.7435(5) 0.87812(17)
H12 H 0.1235 0.6382 0.8838
C19 C 0.13476(14) 0.8450(6) 0.84100(19)
H13 H 0.1594 0.8074 0.8215
C20 C 0.05067(12) 0.6856(4) 0.94265(15)
O1 O 0.06715(9) 0.5482(3) 0.95247(11)
O2 O 0.01367(8) 0.7365(3) 0.95981(11)
C25 C 0.12913(13) 0.2468(6) 0.99793(18)
H17 H 0.1324 0.3278 0.9704
O4 O 0.00282(9) 0.2979(3) 0.92125(10)
C1 C 0.03400(12) 0.3651(4) 0.59575(14)
C2 C 0.06154(13) 0.2985(5) 0.64788(16)
C3 C 0.04652(13) 0.1665(5) 0.67747(16)
H1 H 0.0181 0.1209 0.6654
C4 C 0.07271(14) 0.1008(5) 0.72458(18)
H2 H 0.0621 0.0104 0.7434
C5 C 0.11427(14) 0.1673(6) 0.74398(18)
C6 C 0.12928(15) 0.3001(6) 0.7149(2)
H3 H 0.1574 0.3470 0.7275
C7 C 0.10333(15) 0.3640(5) 0.66744(18)
H4 H 0.1142 0.4533 0.6482
C8 C 0.18939(14) 0.1109(6) 0.79740(18)
C9 C 0.21290(17) 0.1362(7) 0.8502(2)
H5 H 0.1972 0.1485 0.8837
C10 C 0.2610(2) 0.1439(8) 0.8544(3)
H6 H 0.2773 0.1602 0.8908
C11 C 0.2837(2) 0.1278(8) 0.8058(4)
H7 H 0.3156 0.1378 0.8085
C12 C 0.2610(2) 0.0981(10) 0.7544(4)
H8 H 0.2771 0.0844 0.7212
C13 C 0.21459(19) 0.0874(8) 0.7494(2)
H9 H 0.1992 0.0638 0.7130
C14 C 0.11992(13) 0.0006(5) 0.83284(17)
C15 C 0.08459(14) 0.0574(5) 0.86261(17)
H10 H 0.0755 0.1646 0.8584
N1 N 0.14118(11) 0.1011(5) 0.79252(16)
O3 O 0.05028(9) 0.4861(3) 0.57169(10)
O8 O 0.00282(9) 0.7021(3) 0.42125(10)
Zn2 Zn 0.035495(12) 0.62316(4) 0.497527(15)
N7 N 0.08868(10) 0.7757(3) 0.51805(12)
O10 O 0.06715(9) 0.4518(3) 0.45247(11)
O12 O 0.01367(8) 0.2635(3) 0.45981(11)
C21 C 0.91457(16) 0.1095(6) 0.4428(2)
H14 H 0.9429 0.0923 0.4279
C22 C 0.87798(17) 0.0139(7) 0.4230(2)
C23 C 0.83677(15) 0.0349(5) 0.44333(17)
C24 C 0.83328(14) 0.1540(6) 0.4836(2)
H16 H 0.8052 0.1730 0.4988
C25_2 C 0.87087(13) 0.2468(6) 0.50207(18)
H17_2 H 0.8676 0.3278 0.5296
H22 H 0.7746 0.0036 0.3967
N2 N 0.91132(10) 0.2243(3) 0.48195(12)
O4_2 O 0.99718(9) 0.2979(3) 0.57875(10)
Zn1 Zn 0.964505(12) 0.37684(4) 0.502473(15)
C37 C 0.96600(12) 0.6349(4) 0.40425(14)
C38 C 0.93846(13) 0.7015(5) 0.35212(16)
C39 C 0.95348(13) 0.8335(5) 0.32253(16)
H34 H 0.9819 0.8791 0.3346
C40 C 0.92729(14) 0.8992(5) 0.27542(18)
H35 H 0.9379 0.9896 0.2566
C41 C 0.88573(14) 0.8327(6) 0.25602(18)
C42 C 0.87072(15) 0.6999(6) 0.2851(2)
H36 H 0.8426 0.6530 0.2725
C43 C 0.89667(15) 0.6360(5) 0.33256(18)
H37 H 0.8858 0.5467 0.3518
C44 C 0.81061(14) 0.8891(6) 0.20260(18)
C45 C 0.78710(17) 0.8638(7) 0.1498(2)
H38 H 0.8028 0.8515 0.1163
C46 C 0.7390(2) 0.8561(8) 0.1456(3)
H39 H 0.7227 0.8398 0.1092
C47 C 0.7163(2) 0.8722(8) 0.1942(4)
H40 H 0.6844 0.8622 0.1915
C48 C 0.7390(2) 0.9019(10) 0.2456(4)
H41 H 0.7229 0.9156 0.2788
C49 C 0.78541(19) 0.9126(8) 0.2506(2)
H42 H 0.8008 0.9362 0.2870
C50 C 0.88008(13) 0.9994(5) 0.16716(17)
C51 C 0.91541(14) 0.9426(5) 0.13739(17)
H43 H 0.9245 0.8354 0.1416
N6 N 0.85882(11) 0.8989(5) 0.20748(16)
O7 O 0.94972(9) 0.5139(3) 0.42831(10)
O9 O 0.93285(9) 0.5482(3) 0.54753(11)
O11 O 0.98633(8) 0.7365(3) 0.54019(11)
H15 H 0.8819 0.9339 0.3953
C26 C 0.79792(15) 0.7509(6) 0.5015(2)
H18 H 0.8276 0.7944 0.5162
H19 H 0.8032 0.6620 0.4753
C27 C 0.77311(15) 0.6909(7) 0.5520(2)
H20 H 0.7913 0.6080 0.5731
H21 H 0.7689 0.7788 0.5791
C28 C 0.79543(17) 0.9369(7) 0.42175(19)
H23 H 0.8052 0.8478 0.3983
N3 N 0.77138(12) 0.8746(5) 0.46936(15)
C29 C 0.58543(16) 0.3905(6) 0.5572(2)
H24 H 0.5571 0.4077 0.5721
C30 C 0.62202(17) 0.4861(7) 0.5770(2)
H25 H 0.6181 0.5661 0.6047
C31 C 0.66323(15) 0.4651(5) 0.55667(17)
C32 C 0.66672(14) 0.3460(6) 0.5164(2)
H26 H 0.6948 0.3270 0.5012
C33 C 0.62913(13) 0.2532(6) 0.49793(18)
H27 H 0.6324 0.1722 0.4704
C34 C 0.70208(15) 0.7491(6) 0.4985(2)
H28 H 0.6724 0.7056 0.4838
H29 H 0.6968 0.8380 0.5247
C35 C 0.72689(15) 0.8091(7) 0.4480(2)
H30 H 0.7087 0.8920 0.4269
H31 H 0.7311 0.7212 0.4209
C36 C 0.70457(17) 0.5631(7) 0.57825(19)
H32 H 0.7254 0.4964 0.6033
H33 H 0.6948 0.6522 0.6017
N4 N 0.58868(10) 0.2757(3) 0.51805(12)
N5 N 0.72862(12) 0.6254(5) 0.53064(15)
Zn7 Zn 0.535495(12) 0.12316(4) 0.497527(15)
C52 C 0.06251(13) 0.0436(5) 0.39877(16)
H44 H 0.0380 0.0048 0.4182
C53 C 0.07632(12) 0.2020(5) 0.40665(15)
C54 C 0.11314(13) 0.2565(5) 0.37812(17)
H45 H 0.1235 0.3618 0.3838
C55 C 0.13476(14) 0.1550(6) 0.34100(19)
H46 H 0.1594 0.1926 0.3215
C56 C 0.05067(12) 0.3144(4) 0.44265(15)
C21_2 C 0.08543(16) 0.1095(6) 0.0572(2)
H14_2 H 0.0571 0.0923 0.0721
C22_2 C 0.12202(17) 0.0139(7) 0.0770(2)
C23_2 C 0.16323(15) 0.0349(5) 0.05667(17)
C24_2 C 0.16672(14) 0.1540(6) 0.0164(2)
H16_2 H 0.1948 0.1730 0.0012
H22_2 H 0.2254 0.0036 0.1033
N2_2 N 0.08868(10) 0.2243(3) 0.01805(12)
C37_2 C 0.03400(12) 0.6349(4) 0.09575(14)
C38_2 C 0.06154(13) 0.7015(5) 0.14788(16)
C39_2 C 0.04652(13) 0.8335(5) 0.17747(16)
H34_2 H 0.0181 0.8791 0.1654
C40_2 C 0.07271(14) 0.8992(5) 0.22458(18)
H35_2 H 0.0621 0.9896 0.2434
C41_2 C 0.11427(14) 0.8327(6) 0.24398(18)
C42_2 C 0.12928(15) 0.6999(6) 0.2149(2)
H36_2 H 0.1574 0.6530 0.2275
C43_2 C 0.10333(15) 0.6360(5) 0.16744(18)
H37_2 H 0.1142 0.5467 0.1482
C44_2 C 0.18939(14) 0.8891(6) 0.29740(18)
C45_2 C 0.21290(17) 0.8638(7) 0.3502(2)
H38_2 H 0.1972 0.8515 0.3837
C46_2 C 0.2610(2) 0.8561(8) 0.3544(3)
H39_2 H 0.2773 0.8398 0.3908
C47_2 C 0.2837(2) 0.8722(8) 0.3058(4)
H40_2 H 0.3156 0.8622 0.3085
C48_2 C 0.2610(2) 0.9019(10) 0.2544(4)
H41_2 H 0.2771 0.9156 0.2212
C49_2 C 0.21459(19) 0.9126(8) 0.2494(2)
H42_2 H 0.1992 0.9362 0.2130
C50_2 C 0.11992(13) 0.9994(5) 0.33284(17)
C51_2 C 0.08459(14) 0.9426(5) 0.36261(17)
H43_2 H 0.0755 0.8354 0.3584
N6_2 N 0.14118(11) 0.8989(5) 0.29252(16)
O7_2 O 0.05028(9) 0.5139(3) 0.07169(10)
H15_2 H 0.1181 0.9339 0.1047
H19_2 H 0.1968 0.6620 0.0247
C28_2 C 0.20457(17) 0.9369(7) 0.07825(19)
H23_2 H 0.1948 0.8478 0.1017
N3_2 N 0.22862(12) 0.8746(5) 0.03064(15)
C33_2 C 0.37087(13) 0.2532(6) 0.00207(18)
H27_2 H 0.3676 0.1722 0.0296
C34_2 C 0.29792(15) 0.7491(6) 0.0015(2)
H28_2 H 0.3276 0.7056 0.0162
C35_2 C 0.27311(15) 0.8091(7) 0.0520(2)
H30_2 H 0.2913 0.8920 0.0731
H31_2 H 0.2689 0.7212 0.0791
Zn7_2 Zn 0.464505(12) 0.12316(4) 0.002473(15)
C26_2 C 0.20208(15) 0.7509(6) 0.9985(2)
H18_2 H 0.1724 0.7944 0.9838
C27_2 C 0.22689(15) 0.6909(7) 0.9480(2)
H20_2 H 0.2087 0.6080 0.9269
H21_2 H 0.2311 0.7788 0.9209
C29_2 C 0.41457(16) 0.3905(6) 0.9428(2)
H24_2 H 0.4429 0.4077 0.9279
C30_2 C 0.37798(17) 0.4861(7) 0.9230(2)
H25_2 H 0.3819 0.5661 0.8953
C31_2 C 0.33677(15) 0.4651(5) 0.94333(17)
C32_2 C 0.33328(14) 0.3460(6) 0.9836(2)
H26_2 H 0.3052 0.3270 0.9988
H29_2 H 0.3032 0.8380 0.9753
C36_2 C 0.29543(17) 0.5631(7) 0.92175(19)
H32_2 H 0.2746 0.4964 0.8967
H33_2 H 0.3052 0.6522 0.8983
N4_2 N 0.41132(10) 0.2757(3) 0.98195(12)
N5_2 N 0.27138(12) 0.6254(5) 0.96936(15)
C1_2 C 0.96600(12) 0.3651(4) 0.90425(14)
C2_2 C 0.93846(13) 0.2985(5) 0.85212(16)
C3_2 C 0.95348(13) 0.1665(5) 0.82253(16)
H1_2 H 0.9819 0.1209 0.8346
C4_2 C 0.92729(14) 0.1008(5) 0.77542(18)
H2_2 H 0.9379 0.0104 0.7566
C5_2 C 0.88573(14) 0.1673(6) 0.75602(18)
C6_2 C 0.87072(15) 0.3001(6) 0.7851(2)
H3_2 H 0.8426 0.3470 0.7725
C7_2 C 0.89667(15) 0.3640(5) 0.83256(18)
H4_2 H 0.8858 0.4533 0.8518
C8_2 C 0.81061(14) 0.1109(6) 0.70260(18)
C9_2 C 0.78710(17) 0.1362(7) 0.6498(2)
H5_2 H 0.8028 0.1485 0.6163
C10_2 C 0.7390(2) 0.1439(8) 0.6456(3)
H6_2 H 0.7227 0.1602 0.6092
C11_2 C 0.7163(2) 0.1278(8) 0.6942(4)
H7_2 H 0.6844 0.1378 0.6915
C12_2 C 0.7390(2) 0.0981(10) 0.7456(4)
H8_2 H 0.7229 0.0844 0.7788
C13_2 C 0.78541(19) 0.0874(8) 0.7506(2)
H9_2 H 0.8008 0.0638 0.7870
C14_2 C 0.88008(13) 0.0006(5) 0.66716(17)
C15_2 C 0.91541(14) 0.0574(5) 0.63739(17)
H10_2 H 0.9245 0.1646 0.6416
N1_2 N 0.85882(11) 0.1011(5) 0.70748(16)
O3_2 O 0.94972(9) 0.4861(3) 0.92831(10)
N7_2 N 0.91132(10) 0.7757(3) 0.98195(12)
C16_2 C 0.93749(13) 0.9564(5) 0.60123(16)
H11_2 H 0.9620 0.9952 0.5818
C17_2 C 0.92368(12) 0.7980(5) 0.59335(15)
C18_2 C 0.88686(13) 0.7435(5) 0.62188(17)
H12_2 H 0.8765 0.6382 0.6162
C19_2 C 0.86524(14) 0.8450(6) 0.65900(19)
H13_2 H 0.8406 0.8074 0.6785
C20_2 C 0.94933(12) 0.6856(4) 0.55735(15)
C37_3 C 0.46600(12) 0.1349(4) 0.40425(14)
C38_3 C 0.43846(13) 0.2015(5) 0.35212(16)
C39_3 C 0.45348(13) 0.3335(5) 0.32253(16)
H34_3 H 0.4819 0.3791 0.3346
C40_3 C 0.42729(14) 0.3992(5) 0.27542(18)
H35_3 H 0.4379 0.4896 0.2566
C41_3 C 0.38573(14) 0.3327(6) 0.25602(18)
C42_3 C 0.37072(15) 0.1999(6) 0.2851(2)
H36_3 H 0.3426 0.1530 0.2725
C43_3 C 0.39667(15) 0.1360(5) 0.33256(18)
H37_3 H 0.3858 0.0467 0.3518
C44_3 C 0.31061(14) 0.3891(6) 0.20260(18)
C45_3 C 0.28710(17) 0.3638(7) 0.1498(2)
H38_3 H 0.3028 0.3515 0.1163
C46_3 C 0.2390(2) 0.3561(8) 0.1456(3)
H39_3 H 0.2227 0.3398 0.1092
C47_3 C 0.2163(2) 0.3722(8) 0.1942(4)
H40_3 H 0.1844 0.3622 0.1915
C48_3 C 0.2390(2) 0.4019(10) 0.2456(4)
H41_3 H 0.2229 0.4156 0.2788
C49_3 C 0.28541(19) 0.4126(8) 0.2506(2)
H42_3 H 0.3008 0.4362 0.2870
C50_3 C 0.38008(13) 0.4994(5) 0.16716(17)
C51_3 C 0.41541(14) 0.4426(5) 0.13739(17)
H43_3 H 0.4245 0.3354 0.1416
C52_2 C 0.43749(13) 0.5436(5) 0.10123(16)
H44_2 H 0.4620 0.5048 0.0818
C53_2 C 0.42368(12) 0.7020(5) 0.09335(15)
C54_2 C 0.38686(13) 0.7565(5) 0.12188(17)
H45_2 H 0.3765 0.8618 0.1162
C55_2 C 0.36524(14) 0.6550(6) 0.15900(19)
H46_2 H 0.3406 0.6926 0.1785
C56_2 C 0.44933(12) 0.8144(4) 0.05735(15)
N6_3 N 0.35882(11) 0.3989(5) 0.20748(16)
O5 O 0.43285(9) 0.9518(3) 0.04753(11)
O6 O 0.48633(8) 0.7635(3) 0.04019(11)
O7_3 O 0.44972(9) 0.0139(3) 0.42831(10)
O8_2 O 0.50282(9) 0.2021(3) 0.42125(10)
O9_2 O 0.43285(9) 0.0482(3) 0.54753(11)
O11_2 O 0.48633(8) 0.2365(3) 0.54019(11)
Zn4_2 Zn 0.535495(12) 0.87684(4) 0.997527(15)
C1_3 C 0.53400(12) 0.8651(4) 0.59575(14)
C2_3 C 0.56154(13) 0.7985(5) 0.64788(16)
C3_3 C 0.54652(13) 0.6665(5) 0.67747(16)
H1_3 H 0.5181 0.6209 0.6654
C4_3 C 0.57271(14) 0.6008(5) 0.72458(18)
H2_3 H 0.5621 0.5104 0.7434
C5_3 C 0.61427(14) 0.6673(6) 0.74398(18)
C6_3 C 0.62928(15) 0.8001(6) 0.7149(2)
H3_3 H 0.6574 0.8470 0.7275
C7_3 C 0.60333(15) 0.8640(5) 0.66744(18)
H4_3 H 0.6142 0.9533 0.6482
C8_3 C 0.68939(14) 0.6109(6) 0.79740(18)
C9_3 C 0.71290(17) 0.6362(7) 0.8502(2)
H5_3 H 0.6972 0.6485 0.8837
C10_3 C 0.7610(2) 0.6439(8) 0.8544(3)
H6_3 H 0.7773 0.6602 0.8908
C11_3 C 0.7837(2) 0.6278(8) 0.8058(4)
H7_3 H 0.8156 0.6378 0.8085
C12_3 C 0.7610(2) 0.5981(10) 0.7544(4)
H8_3 H 0.7771 0.5844 0.7212
C13_3 C 0.71459(19) 0.5874(8) 0.7494(2)
H9_3 H 0.6992 0.5638 0.7130
C14_3 C 0.61992(13) 0.5006(5) 0.83284(17)
C15_3 C 0.58459(14) 0.5574(5) 0.86261(17)
H10_3 H 0.5755 0.6646 0.8584
C16_3 C 0.56251(13) 0.4564(5) 0.89877(16)
H11_3 H 0.5380 0.4952 0.9182
C17_3 C 0.57632(12) 0.2980(5) 0.90665(15)
C18_3 C 0.61314(13) 0.2435(5) 0.87812(17)
H12_3 H 0.6235 0.1382 0.8838
C19_3 C 0.63476(14) 0.3450(6) 0.84100(19)
H13_3 H 0.6594 0.3074 0.8215
C20_3 C 0.55067(12) 0.1856(4) 0.94265(15)
C21_3 C 0.41457(16) 0.6095(6) 0.4428(2)
H14_3 H 0.4429 0.5923 0.4279
C22_3 C 0.37798(17) 0.5139(7) 0.4230(2)
H15_3 H 0.3819 0.4339 0.3953
C23_3 C 0.33677(15) 0.5349(5) 0.44333(17)
C24_3 C 0.33328(14) 0.6540(6) 0.4836(2)
H16_3 H 0.3052 0.6730 0.4988
C25_3 C 0.37087(13) 0.7468(6) 0.50207(18)
H17_3 H 0.3676 0.8278 0.5296
C26_3 C 0.29792(15) 0.2509(6) 0.5015(2)
H18_3 H 0.3276 0.2944 0.5162
H19_3 H 0.3032 0.1620 0.4753
C27_3 C 0.27311(15) 0.1909(7) 0.5520(2)
H20_3 H 0.2913 0.1080 0.5731
H21_3 H 0.2689 0.2788 0.5791
C28_3 C 0.29543(17) 0.4369(7) 0.42175(19)
H22_3 H 0.2746 0.5036 0.3967
H23_3 H 0.3052 0.3478 0.3983
N1_3 N 0.64118(11) 0.6011(5) 0.79252(16)
N2_3 N 0.41132(10) 0.7243(3) 0.48195(12)
N3_3 N 0.27138(12) 0.3746(5) 0.46936(15)
O1_2 O 0.56715(9) 0.0482(3) 0.95247(11)
O2_2 O 0.51367(8) 0.2365(3) 0.95981(11)
O3_3 O 0.55028(9) 0.9861(3) 0.57169(10)
O4_3 O 0.49718(9) 0.7979(3) 0.57875(10)
Zn1_2 Zn 0.464505(12) 0.87684(4) 0.502473(15)
H25_3 H 0.1181 0.0661 0.6047
C34_3 C 0.20208(15) 0.2491(6) 0.4985(2)
H28_3 H 0.1724 0.2056 0.4838
H29_3 H 0.1968 0.3380 0.5247
C35_3 C 0.22689(15) 0.3091(7) 0.4480(2)
H30_3 H 0.2087 0.3920 0.4269
H31_3 H 0.2311 0.2212 0.4209
C36_3 C 0.20457(17) 0.0631(7) 0.57825(19)
H33_3 H 0.1948 0.1522 0.6017
N5_3 N 0.22862(12) 0.1254(5) 0.53064(15)
O10_2 O 0.56715(9) 0.9518(3) 0.45247(11)
O12_2 O 0.51367(8) 0.7635(3) 0.45981(11)
C29_3 C 0.08543(16) 0.8905(6) 0.5572(2)
H24_3 H 0.0571 0.9077 0.5721
C30_3 C 0.12202(17) 0.9861(7) 0.5770(2)
C31_3 C 0.16323(15) 0.9651(5) 0.55667(17)
C32_3 C 0.16672(14) 0.8460(6) 0.5164(2)
H26_3 H 0.1948 0.8270 0.5012
C33_3 C 0.12913(13) 0.7532(6) 0.49793(18)
H27_3 H 0.1324 0.6722 0.4704
H32_3 H 0.2254 0.9964 0.6033
C37_4 C 0.53400(12) 0.1349(4) 0.09575(14)
C38_4 C 0.56154(13) 0.2015(5) 0.14788(16)
C39_4 C 0.54652(13) 0.3335(5) 0.17747(16)
H34_4 H 0.5181 0.3791 0.1654
C40_4 C 0.57271(14) 0.3992(5) 0.22458(18)
H35_4 H 0.5621 0.4896 0.2434
C41_4 C 0.61427(14) 0.3327(6) 0.24398(18)
C42_4 C 0.62928(15) 0.1999(6) 0.2149(2)
H36_4 H 0.6574 0.1530 0.2275
C43_4 C 0.60333(15) 0.1360(5) 0.16744(18)
H37_4 H 0.6142 0.0467 0.1482
C44_4 C 0.68939(14) 0.3891(6) 0.29740(18)
C45_4 C 0.71290(17) 0.3638(7) 0.3502(2)
H38_4 H 0.6972 0.3515 0.3837
C46_4 C 0.7610(2) 0.3561(8) 0.3544(3)
H39_4 H 0.7773 0.3398 0.3908
C47_4 C 0.7837(2) 0.3722(8) 0.3058(4)
H40_4 H 0.8156 0.3622 0.3085
C48_4 C 0.7610(2) 0.4019(10) 0.2544(4)
H41_4 H 0.7771 0.4156 0.2212
C49_4 C 0.71459(19) 0.4126(8) 0.2494(2)
H42_4 H 0.6992 0.4362 0.2130
C50_4 C 0.61992(13) 0.4994(5) 0.33284(17)
C51_4 C 0.58459(14) 0.4426(5) 0.36261(17)
H43_4 H 0.5755 0.3354 0.3584
C52_3 C 0.56251(13) 0.5436(5) 0.39877(16)
H44_3 H 0.5380 0.5048 0.4182
C53_3 C 0.57632(12) 0.7020(5) 0.40665(15)
C54_3 C 0.61314(13) 0.7565(5) 0.37812(17)
H45_3 H 0.6235 0.8618 0.3838
C55_3 C 0.63476(14) 0.6550(6) 0.34100(19)
H46_3 H 0.6594 0.6926 0.3215
C56_3 C 0.55067(12) 0.8144(4) 0.44265(15)
N6_4 N 0.64118(11) 0.3989(5) 0.29252(16)
O7_4 O 0.55028(9) 0.0139(3) 0.07169(10)
O8_3 O 0.49718(9) 0.2021(3) 0.07875(10)
C21_4 C 0.58543(16) 0.6095(6) 0.0572(2)
H14_4 H 0.5571 0.5923 0.0721
C22_4 C 0.62202(17) 0.5139(7) 0.0770(2)
H15_4 H 0.6181 0.4339 0.1047
C23_4 C 0.66323(15) 0.5349(5) 0.05667(17)
C24_4 C 0.66672(14) 0.6540(6) 0.0164(2)
H16_4 H 0.6948 0.6730 0.0012
H19_4 H 0.6968 0.1620 0.0247
C28_4 C 0.70457(17) 0.4369(7) 0.07825(19)
H22_4 H 0.7254 0.5036 0.1033
H23_4 H 0.6948 0.3478 0.1017
N2_4 N 0.58868(10) 0.7243(3) 0.01805(12)
N3_4 N 0.72862(12) 0.3746(5) 0.03064(15)
C34_4 C 0.79792(15) 0.2491(6) 0.0015(2)
H28_4 H 0.8276 0.2056 0.0162
C35_4 C 0.77311(15) 0.3091(7) 0.0520(2)
H30_4 H 0.7913 0.3920 0.0731
H31_4 H 0.7689 0.2212 0.0791
C1_4 C 0.46600(12) 0.8651(4) 0.90425(14)
C2_4 C 0.43846(13) 0.7985(5) 0.85212(16)
C3_4 C 0.45348(13) 0.6665(5) 0.82253(16)
H1_4 H 0.4819 0.6209 0.8346
C4_4 C 0.42729(14) 0.6008(5) 0.77542(18)
H2_4 H 0.4379 0.5104 0.7566
C5_4 C 0.38573(14) 0.6673(6) 0.75602(18)
C6_4 C 0.37072(15) 0.8001(6) 0.7851(2)
H3_4 H 0.3426 0.8470 0.7725
C7_4 C 0.39667(15) 0.8640(5) 0.83256(18)
H4_4 H 0.3858 0.9533 0.8518
C8_4 C 0.31061(14) 0.6109(6) 0.70260(18)
C9_4 C 0.28710(17) 0.6362(7) 0.6498(2)
H5_4 H 0.3028 0.6485 0.6163
C10_4 C 0.2390(2) 0.6439(8) 0.6456(3)
H6_4 H 0.2227 0.6602 0.6092
C11_4 C 0.2163(2) 0.6278(8) 0.6942(4)
H7_4 H 0.1844 0.6378 0.6915
C12_4 C 0.2390(2) 0.5981(10) 0.7456(4)
H8_4 H 0.2229 0.5844 0.7788
C13_4 C 0.28541(19) 0.5874(8) 0.7506(2)
H9_4 H 0.3008 0.5638 0.7870
C14_4 C 0.38008(13) 0.5006(5) 0.66716(17)
C15_4 C 0.41541(14) 0.5574(5) 0.63739(17)
H10_4 H 0.4245 0.6646 0.6416
C16_4 C 0.43749(13) 0.4564(5) 0.60123(16)
H11_4 H 0.4620 0.4952 0.5818
C17_4 C 0.42368(12) 0.2980(5) 0.59335(15)
C18_4 C 0.38686(13) 0.2435(5) 0.62188(17)
H12_4 H 0.3765 0.1382 0.6162
C19_4 C 0.36524(14) 0.3450(6) 0.65900(19)
H13_4 H 0.3406 0.3074 0.6785
C20_4 C 0.44933(12) 0.1856(4) 0.55735(15)
C25_4 C 0.62913(13) 0.7468(6) 0.99793(18)
H17_4 H 0.6324 0.8278 0.9704
C26_4 C 0.70208(15) 0.2509(6) 0.9985(2)
H18_4 H 0.6724 0.2944 0.9838
C27_4 C 0.72689(15) 0.1909(7) 0.9480(2)
H20_4 H 0.7087 0.1080 0.9269
H21_4 H 0.7311 0.2788 0.9209
N1_4 N 0.35882(11) 0.6011(5) 0.70748(16)
O3_4 O 0.44972(9) 0.9861(3) 0.92831(10)
O4_4 O 0.50282(9) 0.7979(3) 0.92125(10)
H25_4 H 0.8819 0.0661 0.8953
H29_4 H 0.8032 0.3380 0.9753
C36_4 C 0.79543(17) 0.0631(7) 0.92175(19)
H33_4 H 0.8052 0.1522 0.8983
N5_4 N 0.77138(12) 0.1254(5) 0.96936(15)
C29_4 C 0.91457(16) 0.8905(6) 0.9428(2)
H24_4 H 0.9429 0.9077 0.9279
C30_4 C 0.87798(17) 0.9861(7) 0.9230(2)
C31_4 C 0.83677(15) 0.9651(5) 0.94333(17)
C32_4 C 0.83328(14) 0.8460(6) 0.9836(2)
H26_4 H 0.8052 0.8270 0.9988
H32_4 H 0.7746 0.9964 0.8967
C52_4 C 0.93749(13) 0.0436(5) 0.10123(16)
H44_4 H 0.9620 0.0048 0.0818
C53_4 C 0.92368(12) 0.2020(5) 0.09335(15)
C54_4 C 0.88686(13) 0.2565(5) 0.12188(17)
H45_4 H 0.8765 0.3618 0.1162
C55_4 C 0.86524(14) 0.1550(6) 0.15900(19)
H46_4 H 0.8406 0.1926 0.1785
C56_4 C 0.94933(12) 0.3144(4) 0.05735(15)
O5_2 O 0.93285(9) 0.4518(3) 0.04753(11)
O6_2 O 0.98633(8) 0.2635(3) 0.04019(11)
Zn6 Zn 0.964505(12) 0.62316(4) 0.002473(15)
O8_4 O 0.99718(9) 0.7021(3) 0.07875(10)
C33_4 C 0.87087(13) 0.7532(6) 0.00207(18)
H27_4 H 0.8676 0.6722 0.0296
loop_
_geom_bond_atom_site_label_1
_geom_bond_atom_site_label_2
_geom_bond_site_symmetry_1
_geom_bond_site_symmetry_2
H11 C16 1_555 1_555
C17 C16 1_555 1_555
C18 C17 1_555 1_555
H12 C18 1_555 1_555
H13 C19 1_555 1_555
C20 C17 1_555 1_555
O1 C20 1_555 1_555
O2 C20 1_555 1_555
Zn4 O1 1_555 1_555
C18 C19 1_555 1_555
H17 C25 1_555 1_555
O4 Zn4 1_555 1_555
C1 C2 1_555 1_555
C2 C3 1_555 1_555
C3 H1 1_555 1_555
C4 C3 1_555 1_555
H2 C4 1_555 1_555
C5 C4 1_555 1_555
C6 C5 1_555 1_555
H3 C6 1_555 1_555
C7 C2 1_555 1_555
H4 C7 1_555 1_555
C8 C9 1_555 1_555
C9 H5 1_555 1_555
C10 C9 1_555 1_555
H6 C10 1_555 1_555
C11 C10 1_555 1_555
H7 C11 1_555 1_555
C12 C11 1_555 1_555
H8 C12 1_555 1_555
C13 C8 1_555 1_555
H9 C13 1_555 1_555
C14 C15 1_555 1_555
C15 H10 1_555 1_555
N1 C5 1_555 1_555
O3 C1 1_555 1_555
Zn2 O3 1_555 1_555
N7 Zn2 1_555 1_555
O10 Zn2 1_555 1_555
C6 C7 1_555 1_555
C8 N1 1_555 1_555
C12 C13 1_555 1_555
C14 N1 1_555 1_555
O8 Zn2 1_555 1_555
C21 H14 1_555 1_555
C22 C21 1_555 1_555
C23 C22 1_555 1_555
C24 C23 1_555 1_555
H16 C24 1_555 1_555
C25_2 C24 1_555 1_555
H17_2 C25_2 1_555 1_555
N2 C21 1_555 1_555
Zn1 N2 1_555 1_555
C37 C38 1_555 1_555
C38 C39 1_555 1_555
C39 H34 1_555 1_555
C40 C39 1_555 1_555
H35 C40 1_555 1_555
C41 C40 1_555 1_555
C42 C41 1_555 1_555
H36 C42 1_555 1_555
C43 C38 1_555 1_555
H37 C43 1_555 1_555
C44 C45 1_555 1_555
C45 H38 1_555 1_555
C46 C45 1_555 1_555
H39 C46 1_555 1_555
C47 C46 1_555 1_555
H40 C47 1_555 1_555
C48 C47 1_555 1_555
H41 C48 1_555 1_555
C49 C44 1_555 1_555
H42 C49 1_555 1_555
C50 C51 1_555 1_555
C51 H43 1_555 1_555
N6 C41 1_555 1_555
O7 Zn1 1_555 1_555
O9 Zn1 1_555 1_555
C25_2 N2 1_555 1_555
O4_2 Zn1 1_555 1_555
C37 O7 1_555 1_555
C42 C43 1_555 1_555
C44 N6 1_555 1_555
C48 C49 1_555 1_555
C50 N6 1_555 1_555
C26 H18 1_555 1_555
H19 C26 1_555 1_555
C27 C26 1_555 1_555
H20 C27 1_555 1_555
H21 C27 1_555 1_555
H23 C28 1_555 1_555
N3 C26 1_555 1_555
C29 H24 1_555 1_555
C30 C29 1_555 1_555
H25 C30 1_555 1_555
C31 C30 1_555 1_555
C32 C31 1_555 1_555
H26 C32 1_555 1_555
C33 C32 1_555 1_555
H27 C33 1_555 1_555
C34 H28 1_555 1_555
H29 C34 1_555 1_555
C35 N3 1_555 1_555
H30 C35 1_555 1_555
H31 C35 1_555 1_555
C36 C31 1_555 1_555
H32 C36 1_555 1_555
H33 C36 1_555 1_555
N4 C29 1_555 1_555
N5 C27 1_555 1_555
Zn7 N4 1_555 1_555
C28 N3 1_555 1_555
C33 N4 1_555 1_555
C34 C35 1_555 1_555
C34 N5 1_555 1_555
C36 N5 1_555 1_555
H44 C52 1_555 1_555
C53 C52 1_555 1_555
C54 C53 1_555 1_555
H45 C54 1_555 1_555
H46 C55 1_555 1_555
C56 C53 1_555 1_555
O10 C56 1_555 1_555
O12 C56 1_555 1_555
C54 C55 1_555 1_555
C21_2 H14_2 1_555 1_555
C22_2 C21_2 1_555 1_555
C23_2 C22_2 1_555 1_555
C24_2 C23_2 1_555 1_555
H16_2 C24_2 1_555 1_555
N2_2 C21_2 1_555 1_555
C37_2 C38_2 1_555 1_555
C38_2 C39_2 1_555 1_555
C39_2 H34_2 1_555 1_555
C40_2 C39_2 1_555 1_555
H35_2 C40_2 1_555 1_555
C41_2 C40_2 1_555 1_555
C42_2 C41_2 1_555 1_555
H36_2 C42_2 1_555 1_555
C43_2 C38_2 1_555 1_555
H37_2 C43_2 1_555 1_555
C44_2 C45_2 1_555 1_555
C45_2 H38_2 1_555 1_555
C46_2 C45_2 1_555 1_555
H39_2 C46_2 1_555 1_555
C47_2 C46_2 1_555 1_555
H40_2 C47_2 1_555 1_555
C48_2 C47_2 1_555 1_555
H41_2 C48_2 1_555 1_555
C49_2 C44_2 1_555 1_555
H42_2 C49_2 1_555 1_555
C50_2 C51_2 1_555 1_555
C51_2 H43_2 1_555 1_555
N6_2 C41_2 1_555 1_555
C37_2 O7_2 1_555 1_555
C42_2 C43_2 1_555 1_555
C44_2 N6_2 1_555 1_555
C48_2 C49_2 1_555 1_555
C50_2 N6_2 1_555 1_555
H23_2 C28_2 1_555 1_555
H27_2 C33_2 1_555 1_555
C34_2 H28_2 1_555 1_555
C35_2 N3_2 1_555 1_555
H30_2 C35_2 1_555 1_555
H31_2 C35_2 1_555 1_555
C28_2 N3_2 1_555 1_555
C34_2 C35_2 1_555 1_555
C26_2 H18_2 1_555 1_555
C27_2 C26_2 1_555 1_555
H20_2 C27_2 1_555 1_555
H21_2 C27_2 1_555 1_555
C29_2 H24_2 1_555 1_555
C30_2 C29_2 1_555 1_555
H25_2 C30_2 1_555 1_555
C31_2 C30_2 1_555 1_555
C32_2 C31_2 1_555 1_555
H26_2 C32_2 1_555 1_555
C36_2 C31_2 1_555 1_555
H32_2 C36_2 1_555 1_555
H33_2 C36_2 1_555 1_555
N4_2 C29_2 1_555 1_555
N5_2 C27_2 1_555 1_555
C36_2 N5_2 1_555 1_555
C1_2 C2_2 1_555 1_555
C2_2 C3_2 1_555 1_555
C3_2 H1_2 1_555 1_555
C4_2 C3_2 1_555 1_555
H2_2 C4_2 1_555 1_555
C5_2 C4_2 1_555 1_555
C6_2 C5_2 1_555 1_555
H3_2 C6_2 1_555 1_555
C7_2 C2_2 1_555 1_555
H4_2 C7_2 1_555 1_555
C8_2 C9_2 1_555 1_555
C9_2 H5_2 1_555 1_555
C10_2 C9_2 1_555 1_555
H6_2 C10_2 1_555 1_555
C11_2 C10_2 1_555 1_555
H7_2 C11_2 1_555 1_555
C12_2 C11_2 1_555 1_555
H8_2 C12_2 1_555 1_555
C13_2 C8_2 1_555 1_555
H9_2 C13_2 1_555 1_555
C14_2 C15_2 1_555 1_555
C15_2 H10_2 1_555 1_555
N1_2 C5_2 1_555 1_555
O3_2 C1_2 1_555 1_555
C6_2 C7_2 1_555 1_555
C8_2 N1_2 1_555 1_555
C12_2 C13_2 1_555 1_555
C14_2 N1_2 1_555 1_555
H11_2 C16_2 1_555 1_555
C17_2 C16_2 1_555 1_555
C18_2 C17_2 1_555 1_555
H12_2 C18_2 1_555 1_555
H13_2 C19_2 1_555 1_555
C20_2 C17_2 1_555 1_555
O9 C20_2 1_555 1_555
O11 C20_2 1_555 1_555
C18_2 C19_2 1_555 1_555
C37_3 C38_3 1_555 1_555
C38_3 C39_3 1_555 1_555
C39_3 H34_3 1_555 1_555
C40_3 C39_3 1_555 1_555
H35_3 C40_3 1_555 1_555
C41_3 C40_3 1_555 1_555
C42_3 C41_3 1_555 1_555
H36_3 C42_3 1_555 1_555
C43_3 C38_3 1_555 1_555
H37_3 C43_3 1_555 1_555
C44_3 C45_3 1_555 1_555
C45_3 H38_3 1_555 1_555
C46_3 C45_3 1_555 1_555
H39_3 C46_3 1_555 1_555
C47_3 C46_3 1_555 1_555
H40_3 C47_3 1_555 1_555
C48_3 C47_3 1_555 1_555
H41_3 C48_3 1_555 1_555
C49_3 C44_3 1_555 1_555
H42_3 C49_3 1_555 1_555
C50_3 C51_3 1_555 1_555
C51_3 H43_3 1_555 1_555
C52_2 C51_3 1_555 1_555
H44_2 C52_2 1_555 1_555
C53_2 C52_2 1_555 1_555
C54_2 C53_2 1_555 1_555
H45_2 C54_2 1_555 1_555
C55_2 C50_3 1_555 1_555
H46_2 C55_2 1_555 1_555
C56_2 C53_2 1_555 1_555
N6_3 C41_3 1_555 1_555
O5 C56_2 1_555 1_555
O6 C56_2 1_555 1_555
O8_2 C37_3 1_555 1_555
O11_2 Zn7 1_555 1_555
C37_3 O7_3 1_555 1_555
C42_3 C43_3 1_555 1_555
C44_3 N6_3 1_555 1_555
C48_3 C49_3 1_555 1_555
C50_3 N6_3 1_555 1_555
C54_2 C55_2 1_555 1_555
O8_2 Zn7 1_555 1_555
C1_3 C2_3 1_555 1_555
C2_3 C3_3 1_555 1_555
C3_3 H1_3 1_555 1_555
C4_3 C3_3 1_555 1_555
H2_3 C4_3 1_555 1_555
C5_3 C4_3 1_555 1_555
C6_3 C5_3 1_555 1_555
H3_3 C6_3 1_555 1_555
C7_3 C2_3 1_555 1_555
H4_3 C7_3 1_555 1_555
C8_3 C9_3 1_555 1_555
C9_3 H5_3 1_555 1_555
C10_3 C9_3 1_555 1_555
H6_3 C10_3 1_555 1_555
C11_3 C10_3 1_555 1_555
H7_3 C11_3 1_555 1_555
C12_3 C11_3 1_555 1_555
H8_3 C12_3 1_555 1_555
C13_3 C8_3 1_555 1_555
H9_3 C13_3 1_555 1_555
C14_3 C15_3 1_555 1_555
C15_3 H10_3 1_555 1_555
C16_3 C15_3 1_555 1_555
H11_3 C16_3 1_555 1_555
C17_3 C16_3 1_555 1_555
C18_3 C17_3 1_555 1_555
H12_3 C18_3 1_555 1_555
C19_3 C14_3 1_555 1_555
H13_3 C19_3 1_555 1_555
C20_3 C17_3 1_555 1_555
C21_3 H14_3 1_555 1_555
C22_3 C21_3 1_555 1_555
H15_3 C22_3 1_555 1_555
C23_3 C22_3 1_555 1_555
C24_3 C23_3 1_555 1_555
H16_3 C24_3 1_555 1_555
C25_3 C24_3 1_555 1_555
H17_3 C25_3 1_555 1_555
C26_3 H18_3 1_555 1_555
H19_3 C26_3 1_555 1_555
C27_3 C26_3 1_555 1_555
H20_3 C27_3 1_555 1_555
H21_3 C27_3 1_555 1_555
C28_3 C23_3 1_555 1_555
H22_3 C28_3 1_555 1_555
H23_3 C28_3 1_555 1_555
N1_3 C5_3 1_555 1_555
N2_3 C21_3 1_555 1_555
N3_3 C26_3 1_555 1_555
O1_2 C20_3 1_555 1_555
O2_2 C20_3 1_555 1_555
O3_3 C1_3 1_555 1_555
O4_3 C1_3 1_555 1_555
Zn1_2 N2_3 1_555 1_555
C34_3 H28_3 1_555 1_555
H29_3 C34_3 1_555 1_555
C35_3 N3_3 1_555 1_555
H30_3 C35_3 1_555 1_555
H31_3 C35_3 1_555 1_555
H33_3 C36_3 1_555 1_555
N5_3 C27_3 1_555 1_555
O12_2 Zn1_2 1_555 1_555
C6_3 C7_3 1_555 1_555
C8_3 N1_3 1_555 1_555
C12_3 C13_3 1_555 1_555
C14_3 N1_3 1_555 1_555
C18_3 C19_3 1_555 1_555
C25_3 N2_3 1_555 1_555
C28_3 N3_3 1_555 1_555
O4_3 Zn1_2 1_555 1_555
C34_3 C35_3 1_555 1_555
C34_3 N5_3 1_555 1_555
C36_3 N5_3 1_555 1_555
C29_3 H24_3 1_555 1_555
C30_3 C29_3 1_555 1_555
C31_3 C30_3 1_555 1_555
C32_3 C31_3 1_555 1_555
H26_3 C32_3 1_555 1_555
C33_3 C32_3 1_555 1_555
H27_3 C33_3 1_555 1_555
N7 C29_3 1_555 1_555
C33_3 N7 1_555 1_555
C37_4 C38_4 1_555 1_555
C38_4 C39_4 1_555 1_555
C39_4 H34_4 1_555 1_555
C40_4 C39_4 1_555 1_555
H35_4 C40_4 1_555 1_555
C41_4 C40_4 1_555 1_555
C42_4 C41_4 1_555 1_555
H36_4 C42_4 1_555 1_555
C43_4 C38_4 1_555 1_555
H37_4 C43_4 1_555 1_555
C44_4 C45_4 1_555 1_555
C45_4 H38_4 1_555 1_555
C46_4 C45_4 1_555 1_555
H39_4 C46_4 1_555 1_555
C47_4 C46_4 1_555 1_555
H40_4 C47_4 1_555 1_555
C48_4 C47_4 1_555 1_555
H41_4 C48_4 1_555 1_555
C49_4 C44_4 1_555 1_555
H42_4 C49_4 1_555 1_555
C50_4 C51_4 1_555 1_555
C51_4 H43_4 1_555 1_555
C52_3 C51_4 1_555 1_555
H44_3 C52_3 1_555 1_555
C53_3 C52_3 1_555 1_555
C54_3 C53_3 1_555 1_555
H45_3 C54_3 1_555 1_555
C55_3 C50_4 1_555 1_555
H46_3 C55_3 1_555 1_555
C56_3 C53_3 1_555 1_555
N6_4 C41_4 1_555 1_555
O10_2 C56_3 1_555 1_555
O12_2 C56_3 1_555 1_555
O8_3 C37_4 1_555 1_555
C37_4 O7_4 1_555 1_555
C42_4 C43_4 1_555 1_555
C44_4 N6_4 1_555 1_555
C48_4 C49_4 1_555 1_555
C50_4 N6_4 1_555 1_555
C54_3 C55_3 1_555 1_555
O8_3 Zn7_2 1_555 1_555
C21_4 H14_4 1_555 1_555
C22_4 C21_4 1_555 1_555
H15_4 C22_4 1_555 1_555
C23_4 C22_4 1_555 1_555
C24_4 C23_4 1_555 1_555
H16_4 C24_4 1_555 1_555
C28_4 C23_4 1_555 1_555
H22_4 C28_4 1_555 1_555
H23_4 C28_4 1_555 1_555
N2_4 C21_4 1_555 1_555
C34_4 H28_4 1_555 1_555
C35_4 N3_4 1_555 1_555
H30_4 C35_4 1_555 1_555
H31_4 C35_4 1_555 1_555
C28_4 N3_4 1_555 1_555
C34_4 C35_4 1_555 1_555
C1_4 C2_4 1_555 1_555
C2_4 C3_4 1_555 1_555
C3_4 H1_4 1_555 1_555
C4_4 C3_4 1_555 1_555
H2_4 C4_4 1_555 1_555
C5_4 C4_4 1_555 1_555
C6_4 C5_4 1_555 1_555
H3_4 C6_4 1_555 1_555
C7_4 C2_4 1_555 1_555
H4_4 C7_4 1_555 1_555
C8_4 C9_4 1_555 1_555
C9_4 H5_4 1_555 1_555
C10_4 C9_4 1_555 1_555
H6_4 C10_4 1_555 1_555
C11_4 C10_4 1_555 1_555
H7_4 C11_4 1_555 1_555
C12_4 C11_4 1_555 1_555
H8_4 C12_4 1_555 1_555
C13_4 C8_4 1_555 1_555
H9_4 C13_4 1_555 1_555
C14_4 C15_4 1_555 1_555
C15_4 H10_4 1_555 1_555
C16_4 C15_4 1_555 1_555
H11_4 C16_4 1_555 1_555
C17_4 C16_4 1_555 1_555
C18_4 C17_4 1_555 1_555
H12_4 C18_4 1_555 1_555
C19_4 C14_4 1_555 1_555
H13_4 C19_4 1_555 1_555
C20_4 C17_4 1_555 1_555
H17_4 C25_4 1_555 1_555
C26_4 H18_4 1_555 1_555
C27_4 C26_4 1_555 1_555
H20_4 C27_4 1_555 1_555
H21_4 C27_4 1_555 1_555
N1_4 C5_4 1_555 1_555
O9_2 C20_4 1_555 1_555
O11_2 C20_4 1_555 1_555
O3_4 C1_4 1_555 1_555
O4_4 C1_4 1_555 1_555
H33_4 C36_4 1_555 1_555
N5_4 C27_4 1_555 1_555
C6_4 C7_4 1_555 1_555
C8_4 N1_4 1_555 1_555
C12_4 C13_4 1_555 1_555
C14_4 N1_4 1_555 1_555
C18_4 C19_4 1_555 1_555
O4_4 Zn4_2 1_555 1_555
C36_4 N5_4 1_555 1_555
C29_4 H24_4 1_555 1_555
C30_4 C29_4 1_555 1_555
C31_4 C30_4 1_555 1_555
C32_4 C31_4 1_555 1_555
H26_4 C32_4 1_555 1_555
N7_2 C29_4 1_555 1_555
H44_4 C52_4 1_555 1_555
C53_4 C52_4 1_555 1_555
C54_4 C53_4 1_555 1_555
H45_4 C54_4 1_555 1_555
H46_4 C55_4 1_555 1_555
C56_4 C53_4 1_555 1_555
O5_2 C56_4 1_555 1_555
O6_2 C56_4 1_555 1_555
Zn6 O5_2 1_555 1_555
C54_4 C55_4 1_555 1_555
O8_4 Zn6 1_555 1_555
H27_4 C33_4 1_555 1_555

#END
