
###############################################################################
#
# This file contains modified crystal structure data generated from the
# MOF subset of the Cambridge Structural Database (CSD) v543 
# hosted by the Cambridge Crystallographic Data Centre (CCDC).
#
# This work is licensed under the Creative Commons
# Attribution-NonCommercial-ShareAlike 4.0 International License.
# To view a copy of this license, visit
# http://creativecommons.org/licenses/by-nc-sa/4.0/
# or send a letter to
# Creative Commons, PO Box 1866, Mountain View, CA 94042, USA.
#
# CIF created using the CSD Python API on 29 September 2022
# The structure has been converted into the P1 space group
# The structure has a 3D framework
# The original CSD entry OHATEY is in the monoclinic crystal system
# The framework has been calculated to contain at least 10.0% void space
# The void calculation uses a probe of radius 1.32A, grid spacing 0.4
# The framework is charged, counterions have been retained in the structure
#
###############################################################################

data_OHATEY
_chemical_formula_moiety         '(C104 H128 Cu8 Hg8 N24 O8 8+)n'
_symmetry_cell_setting           triclinic
_symmetry_space_group_name_H-M   'P 1'
_symmetry_Int_Tables_number      1
_space_group_name_Hall           'P 1'
loop_
_symmetry_equiv_pos_site_id
_symmetry_equiv_pos_as_xyz
1 x,y,z
_cell_length_a                   10.5149(11)
_cell_length_b                   12.0894(12)
_cell_length_c                   29.347(3)
_cell_angle_alpha                90
_cell_angle_beta                 92.740(8)
_cell_angle_gamma                90
_cell_volume                     3726.29
loop_
_atom_site_label
_atom_site_type_symbol
_atom_site_fract_x
_atom_site_fract_y
_atom_site_fract_z
Hg3 Hg 0.00470(6) 0.20697(5) 0.63593(2)
H6 H 0.1086 0.0042 0.6949
C15 C 0.1879(18) 0.0564(12) 0.5927(6)
H17 H 0.1746 0.1047 0.5683
C16 C 0.1302(15) 0.0753(16) 0.6339(7)
H26 H 0.7179 0.0249 0.6392
C1 C 0.809(2) 0.8858(13) 0.6502(8)
H1 H 0.8045 0.8896 0.6831
H2 H 0.8889 0.9198 0.6424
C2 C 0.4495 0.5100 0.6022
H3 H 0.5080 0.4561 0.6158
H4 H 0.4607 0.5102 0.5696
C3 C 0.7461(15) 0.4703(11) 0.6740(5)
H5 H 0.6993 0.4872 0.6992
C4 C 0.1475(17) 0.9970(14) 0.6673(6)
C5 C 0.2667(17) 0.9626(13) 0.5888(6)
H7 H 0.3111 0.9547 0.5623
C6 C 0.8207(18) 0.3711(13) 0.6742(5)
H8 H 0.8223 0.3254 0.6997
C7 C 0.3264(16) 0.7855(14) 0.4572(5)
H9 H 0.2581 0.7994 0.4367
C8 C 0.5158(14) 0.7546(14) 0.5196(4)
H10 H 0.5822 0.7467 0.5415
C9 C 0.3067(14) 0.7744(13) 0.5024(4)
H11 H 0.2234 0.7784 0.5116
C10 C 0.5463(15) 0.7613(13) 0.4755(4)
H12 H 0.6307 0.7563 0.4675
C11 C 0.4555(14) 0.8310(12) 0.2722(5)
H13 H 0.3709 0.8436 0.2784
C12 C 0.4910(14) 0.8461(13) 0.2298(4)
H14 H 0.4326 0.8766 0.2086
C13 C 0.6573(18) 0.7648(13) 0.2937(4)
H15 H 0.7149 0.7328 0.3148
C14 C 0.6909(15) 0.7807(15) 0.2473(5)
H16 H 0.7729 0.7636 0.2390
C17 C 0.2257(15) 0.9050(12) 0.6590(5)
H18 H 0.2392 0.8541 0.6825
C18 C 0.3140(16) 0.4744(14) 0.6107(7)
H19 H 0.3017 0.3990 0.6002
H20 H 0.3022 0.4754 0.6433
C19 C 0.2190(17) 0.5443(15) 0.5883(7)
H21 H 0.1364 0.5089 0.5894
H22 H 0.2382 0.5525 0.5565
C20 C 0.8824(14) 0.4113(13) 0.6010(6)
H23 H 0.9288 0.3978 0.5754
C21 C 0.8014(15) 0.5077(13) 0.6021(5)
H24 H 0.7900 0.5505 0.5759
C22 C 0.707(2) 0.9485(15) 0.6298(8)
H25 H 0.7137 0.9461 0.5970
C23 C 0.5798(18) 0.9139(13) 0.6403(6)
H27 H 0.5717 0.9210 0.6729
H28 H 0.5199 0.9651 0.6256
C24 C 0.4480(15) 0.7759(11) 0.4418(4)
C25 C 0.5365(17) 0.7981(12) 0.3067(4)
C26 C 0.8918(16) 0.3411(12) 0.6364(5)
N1 N 0.3982(12) 0.7583(10) 0.5342(3)
N2 N 0.8119 0.7653 0.6362
H29 H 0.8765 0.7280 0.6553
H30 H 0.8383 0.7614 0.6050
N3 N 0.2128(11) 0.6601(9) 0.6106(4)
H31 H 0.1881 0.6513 0.6418
H32 H 0.1468 0.7027 0.5944
N4 N 0.6070(12) 0.8195(9) 0.2160(3)
N5 N 0.2812(11) 0.8857(9) 0.6204(4)
N6 N 0.7426(11) 0.5372(10) 0.6393(4)
O1 O 0.5438(8) 0.8087(7) 0.6278(2)
O2 O 0.4814(7) 0.6173(7) 0.6202(2)
Cu1 Cu 0.6476 0.6811 0.6400
Cu2 Cu 0.37677(15) 0.74654(12) 0.61093(5)
Hg1 Hg 0.49018(7) 0.78369(5) 0.37360(2)
N7 N 0.6070(12) 0.6805(9) 0.7160(3)
Cu3 Cu 0.6476 0.8189 0.1400
Hg3_2 Hg 0.00470(6) 0.29303(5) 0.13593(2)
C1_2 C 0.809(2) 0.6142(13) 0.1502(8)
H1_2 H 0.8045 0.6104 0.1831
H2_2 H 0.8889 0.5802 0.1424
C2_2 C 0.4495 0.9900 0.1022
H4_2 H 0.4607 0.9898 0.0696
C4_2 C 0.1475(17) 0.5030(14) 0.1673(6)
H6_2 H 0.1086 0.4958 0.1949
C5_2 C 0.2667(17) 0.5374(13) 0.0888(6)
H7_2 H 0.3111 0.5453 0.0623
C8_2 C 0.5158(14) 0.7454(14) 0.0196(4)
H10_2 H 0.5822 0.7533 0.0415
C9_2 C 0.3067(14) 0.7256(13) 0.0024(4)
H11_2 H 0.2234 0.7216 0.0116
C15_2 C 0.1879(18) 0.4436(12) 0.0927(6)
H17_2 H 0.1746 0.3953 0.0683
C16_2 C 0.1302(15) 0.4247(16) 0.1339(7)
C17_2 C 0.2257(15) 0.5950(12) 0.1590(5)
H18_2 H 0.2392 0.6459 0.1825
C19_2 C 0.2190(17) 0.9557(15) 0.0883(7)
H21_2 H 0.1364 0.9911 0.0894
H22_2 H 0.2382 0.9475 0.0565
C21_2 C 0.8014(15) 0.9923(13) 0.1021(5)
H24_2 H 0.7900 0.9495 0.0759
C22_2 C 0.707(2) 0.5515(15) 0.1298(8)
H25_2 H 0.7137 0.5539 0.0970
H26_2 H 0.7179 0.4751 0.1392
C23_2 C 0.5798(18) 0.5861(13) 0.1403(6)
H27_2 H 0.5717 0.5790 0.1729
H28_2 H 0.5199 0.5349 0.1256
N1_2 N 0.3982(12) 0.7417(10) 0.0342(3)
N2_2 N 0.8119 0.7347 0.1362
H29_2 H 0.8765 0.7720 0.1553
H30_2 H 0.8383 0.7386 0.1050
N3_2 N 0.2128(11) 0.8399(9) 0.1106(4)
H31_2 H 0.1881 0.8487 0.1418
H32_2 H 0.1468 0.7973 0.0944
N5_2 N 0.2812(11) 0.6143(9) 0.1204(4)
N6_2 N 0.7426(11) 0.9628(10) 0.1393(4)
O1_2 O 0.5438(8) 0.6913(7) 0.1278(2)
O2_2 O 0.4814(7) 0.8827(7) 0.1202(2)
Cu2_2 Cu 0.37677(15) 0.75346(12) 0.11093(5)
C7_2 C 0.3264(16) 0.7145(14) 0.9572(5)
H9_2 H 0.2581 0.7006 0.9367
C10_2 C 0.5463(15) 0.7387(13) 0.9755(4)
H12_2 H 0.6307 0.7437 0.9675
C11_2 C 0.4555(14) 0.6690(12) 0.7722(5)
H13_2 H 0.3709 0.6564 0.7784
C12_2 C 0.4910(14) 0.6539(13) 0.7298(4)
H14_2 H 0.4326 0.6234 0.7086
C13_2 C 0.6573(18) 0.7352(13) 0.7937(4)
H15_2 H 0.7149 0.7672 0.8148
C14_2 C 0.6909(15) 0.7193(15) 0.7473(5)
H16_2 H 0.7729 0.7364 0.7390
C24_2 C 0.4480(15) 0.7241(11) 0.9418(4)
C25_2 C 0.5365(17) 0.7019(12) 0.8067(4)
Hg1_2 Hg 0.49018(7) 0.71631(5) 0.87360(2)
C27 C 0.1082(16) 0.8411(12) 0.8636(5)
H3_2 H 0.4920 0.9561 0.8842
C3_2 C 0.2539(15) 0.9703(11) 0.8260(5)
H5_2 H 0.3007 0.9872 0.8008
C6_2 C 0.1793(18) 0.8711(13) 0.8258(5)
H8_2 H 0.1777 0.8254 0.8003
C18_2 C 0.6860(16) 0.9744(14) 0.8893(7)
H19_2 H 0.6983 0.8990 0.8998
H20_2 H 0.6978 0.9754 0.8567
C20_2 C 0.1176(14) 0.9113(13) 0.8990(6)
H23_2 H 0.0712 0.8978 0.9246
C7_3 C 0.6736(16) 0.2855(14) 0.0428(5)
H9_3 H 0.7419 0.2994 0.0633
C10_3 C 0.4537(15) 0.2613(13) 0.0245(4)
H12_3 H 0.3693 0.2563 0.0325
C11_3 C 0.5445(14) 0.3310(12) 0.2278(5)
H13_3 H 0.6291 0.3436 0.2216
C12_3 C 0.5090(14) 0.3461(13) 0.2702(4)
H14_3 H 0.5674 0.3766 0.2914
C13_3 C 0.3427(18) 0.2648(13) 0.2063(4)
H15_3 H 0.2851 0.2328 0.1852
C14_3 C 0.3091(15) 0.2807(15) 0.2527(5)
H16_3 H 0.2271 0.2636 0.2610
C24_3 C 0.5520(15) 0.2759(11) 0.0582(4)
C25_3 C 0.4635(17) 0.2981(12) 0.1933(4)
N4_2 N 0.3930(12) 0.3195(9) 0.2840(3)
Hg1_3 Hg 0.50982(7) 0.28369(5) 0.12640(2)
Cu3_2 Cu 0.3524 0.3189 0.3600
C1_3 C 0.191(2) 0.3858(13) 0.8498(8)
H1_3 H 0.1955 0.3896 0.8169
H2_3 H 0.1111 0.4198 0.8576
C2_3 C 0.5505 0.0100 0.8978
H4_3 H 0.5393 0.0102 0.9304
C4_3 C 0.8525(17) 0.4970(14) 0.8327(6)
H6_3 H 0.8914 0.5042 0.8051
C5_3 C 0.7333(17) 0.4626(13) 0.9112(6)
H7_3 H 0.6889 0.4547 0.9377
C8_3 C 0.4842(14) 0.2546(14) 0.9804(4)
H10_3 H 0.4178 0.2467 0.9585
C9_3 C 0.6933(14) 0.2744(13) 0.9976(4)
H11_3 H 0.7766 0.2784 0.9884
C15_3 C 0.8121(18) 0.5564(12) 0.9073(6)
H17_3 H 0.8254 0.6047 0.9317
C16_3 C 0.8698(15) 0.5753(16) 0.8661(7)
C17_3 C 0.7743(15) 0.4050(12) 0.8410(5)
H18_3 H 0.7608 0.3541 0.8175
C19_3 C 0.7810(17) 0.0443(15) 0.9117(7)
H21_3 H 0.8636 0.0089 0.9106
H22_3 H 0.7618 0.0525 0.9435
C21_3 C 0.1986(15) 0.0077(13) 0.8979(5)
H24_3 H 0.2100 0.0505 0.9241
C22_3 C 0.293(2) 0.4485(15) 0.8702(8)
H25_3 H 0.2863 0.4461 0.9030
H26_3 H 0.2821 0.5249 0.8608
C23_3 C 0.4202(18) 0.4139(13) 0.8597(6)
H27_3 H 0.4283 0.4210 0.8271
H28_3 H 0.4801 0.4651 0.8744
N1_3 N 0.6018(12) 0.2583(10) 0.9658(3)
N2_3 N 0.1881 0.2653 0.8638
H29_3 H 0.1235 0.2280 0.8447
H30_3 H 0.1617 0.2614 0.8950
N3_3 N 0.7872(11) 0.1601(9) 0.8894(4)
H31_3 H 0.8119 0.1513 0.8582
H32_3 H 0.8532 0.2027 0.9056
N5_3 N 0.7188(11) 0.3857(9) 0.8796(4)
N6_3 N 0.2574(11) 0.0372(10) 0.8607(4)
O1_3 O 0.4562(8) 0.3087(7) 0.8722(2)
O2_3 O 0.5186(7) 0.1173(7) 0.8798(2)
Cu1_2 Cu 0.3524 0.1811 0.8600
Cu2_3 Cu 0.62323(15) 0.24654(12) 0.88907(5)
Hg2 Hg 0.99530(6) 0.70697(5) 0.86407(2)
N7_2 N 0.3930(12) 0.1805(9) 0.7840(3)
C27_2 C 0.1082(16) 0.6589(12) 0.3636(5)
C1_4 C 0.191(2) 0.1142(13) 0.3498(8)
H1_4 H 0.1955 0.1104 0.3169
H2_4 H 0.1111 0.0802 0.3576
C2_4 C 0.5505 0.4900 0.3978
H3_3 H 0.4920 0.5439 0.3842
H4_4 H 0.5393 0.4898 0.4304
C3_3 C 0.2539(15) 0.5297(11) 0.3260(5)
H5_3 H 0.3007 0.5128 0.3008
C4_4 C 0.8525(17) 0.0030(14) 0.3327(6)
C5_4 C 0.7333(17) 0.0374(13) 0.4112(6)
H7_4 H 0.6889 0.0453 0.4377
C6_3 C 0.1793(18) 0.6289(13) 0.3258(5)
H8_3 H 0.1777 0.6746 0.3003
C7_4 C 0.6736(16) 0.2145(14) 0.5428(5)
H9_4 H 0.7419 0.2006 0.5633
C8_4 C 0.4842(14) 0.2454(14) 0.4804(4)
H10_4 H 0.4178 0.2533 0.4585
C9_4 C 0.6933(14) 0.2256(13) 0.4976(4)
H11_4 H 0.7766 0.2216 0.4884
C10_4 C 0.4537(15) 0.2387(13) 0.5245(4)
H12_4 H 0.3693 0.2437 0.5325
C11_4 C 0.5445(14) 0.1690(12) 0.7278(5)
H13_4 H 0.6291 0.1564 0.7216
C12_4 C 0.5090(14) 0.1539(13) 0.7702(4)
H14_4 H 0.5674 0.1234 0.7914
C13_4 C 0.3427(18) 0.2352(13) 0.7063(4)
H15_4 H 0.2851 0.2672 0.6852
C14_4 C 0.3091(15) 0.2193(15) 0.7527(5)
H16_4 H 0.2271 0.2364 0.7610
C17_4 C 0.7743(15) 0.0950(12) 0.3410(5)
H18_4 H 0.7608 0.1459 0.3175
C18_3 C 0.6860(16) 0.5256(14) 0.3893(7)
H19_3 H 0.6983 0.6010 0.3998
H20_3 H 0.6978 0.5246 0.3567
C19_4 C 0.7810(17) 0.4557(15) 0.4117(7)
H21_4 H 0.8636 0.4911 0.4106
H22_4 H 0.7618 0.4475 0.4435
C20_3 C 0.1176(14) 0.5887(13) 0.3990(6)
H23_3 H 0.0712 0.6022 0.4246
C21_4 C 0.1986(15) 0.4923(13) 0.3979(5)
H24_4 H 0.2100 0.4495 0.4241
C22_4 C 0.293(2) 0.0515(15) 0.3702(8)
H25_4 H 0.2863 0.0539 0.4030
C23_4 C 0.4202(18) 0.0861(13) 0.3597(6)
H27_4 H 0.4283 0.0790 0.3271
H28_4 H 0.4801 0.0349 0.3744
C24_4 C 0.5520(15) 0.2241(11) 0.5582(4)
C25_4 C 0.4635(17) 0.2019(12) 0.6933(4)
N1_4 N 0.6018(12) 0.2417(10) 0.4658(3)
N2_4 N 0.1881 0.2347 0.3638
H29_4 H 0.1235 0.2720 0.3447
H30_4 H 0.1617 0.2386 0.3950
N3_4 N 0.7872(11) 0.3399(9) 0.3894(4)
H31_4 H 0.8119 0.3487 0.3582
H32_4 H 0.8532 0.2973 0.4056
N5_4 N 0.7188(11) 0.1143(9) 0.3796(4)
N6_4 N 0.2574(11) 0.4628(10) 0.3607(4)
O1_4 O 0.4562(8) 0.1913(7) 0.3722(2)
O2_4 O 0.5186(7) 0.3827(7) 0.3798(2)
Cu2_4 Cu 0.62323(15) 0.25346(12) 0.38907(5)
Hg1_4 Hg 0.50982(7) 0.21631(5) 0.62640(2)
H6_4 H 0.8914 0.9958 0.3051
C15_4 C 0.8121(18) 0.9436(12) 0.4073(6)
H17_4 H 0.8254 0.8953 0.4317
C16_4 C 0.8698(15) 0.9247(16) 0.3661(7)
H26_4 H 0.2821 0.9751 0.3608
Hg2_2 Hg 0.99530(6) 0.79303(5) 0.36407(2)
H3_4 H 0.5080 0.0439 0.1158
C3_4 C 0.7461(15) 0.0297(11) 0.1740(5)
H5_4 H 0.6993 0.0128 0.1992
C6_4 C 0.8207(18) 0.1289(13) 0.1742(5)
H8_4 H 0.8223 0.1746 0.1997
C18_4 C 0.3140(16) 0.0256(14) 0.1107(7)
H19_4 H 0.3017 0.1010 0.1002
H20_4 H 0.3022 0.0246 0.1433
C20_4 C 0.8824(14) 0.0887(13) 0.1010(6)
H23_4 H 0.9288 0.1022 0.0754
C26_2 C 0.8918(16) 0.1589(12) 0.1364(5)
loop_
_geom_bond_atom_site_label_1
_geom_bond_atom_site_label_2
_geom_bond_site_symmetry_1
_geom_bond_site_symmetry_2
H17 C15 1_555 1_555
Hg3 C16 1_555 1_555
C15 C16 1_555 1_555
C1 H1 1_555 1_555
H2 C1 1_555 1_555
C2 H3 1_555 1_555
H4 C2 1_555 1_555
C3 H5 1_555 1_555
C5 H7 1_555 1_555
C6 C3 1_555 1_555
H8 C6 1_555 1_555
C7 H9 1_555 1_555
C8 H10 1_555 1_555
C9 C7 1_555 1_555
H11 C9 1_555 1_555
C10 C8 1_555 1_555
H12 C10 1_555 1_555
C11 H13 1_555 1_555
C12 C11 1_555 1_555
H14 C12 1_555 1_555
C13 H15 1_555 1_555
C14 C13 1_555 1_555
H16 C14 1_555 1_555
C17 C4 1_555 1_555
H18 C17 1_555 1_555
C18 C2 1_555 1_555
H19 C18 1_555 1_555
H20 C18 1_555 1_555
C19 C18 1_555 1_555
H21 C19 1_555 1_555
H22 C19 1_555 1_555
C20 H23 1_555 1_555
C21 C20 1_555 1_555
H24 C21 1_555 1_555
C22 C1 1_555 1_555
H25 C22 1_555 1_555
C23 C22 1_555 1_555
H27 C23 1_555 1_555
H28 C23 1_555 1_555
C24 C7 1_555 1_555
C25 C11 1_555 1_555
C26 C6 1_555 1_555
N1 C8 1_555 1_555
N2 C1 1_555 1_555
H29 N2 1_555 1_555
H30 N2 1_555 1_555
N3 C19 1_555 1_555
H31 N3 1_555 1_555
H32 N3 1_555 1_555
N4 C12 1_555 1_555
N5 C5 1_555 1_555
N6 C3 1_555 1_555
O1 C23 1_555 1_555
O2 C2 1_555 1_555
Cu1 N2 1_555 1_555
Cu2 N1 1_555 1_555
Hg1 C24 1_555 1_555
N7 Cu1 1_555 1_555
Cu3 N4 1_555 1_555
C9 N1 1_555 1_555
C10 C24 1_555 1_555
C13 C25 1_555 1_555
C14 N4 1_555 1_555
C17 N5 1_555 1_555
C20 C26 1_555 1_555
C21 N6 1_555 1_555
C25 Hg1 1_555 1_555
N3 Cu2 1_555 1_555
N5 Cu2 1_555 1_555
N6 Cu1 1_555 1_555
O1 Cu1 1_555 1_555
O1 Cu2 1_555 1_555
O2 Cu1 1_555 1_555
O2 Cu2 1_555 1_555
C1_2 H1_2 1_555 1_555
H2_2 C1_2 1_555 1_555
H4_2 C2_2 1_555 1_555
C4_2 H6_2 1_555 1_555
C5_2 H7_2 1_555 1_555
C8_2 H10_2 1_555 1_555
H11_2 C9_2 1_555 1_555
C15_2 C5_2 1_555 1_555
H17_2 C15_2 1_555 1_555
C16_2 C4_2 1_555 1_555
C17_2 C4_2 1_555 1_555
H18_2 C17_2 1_555 1_555
H21_2 C19_2 1_555 1_555
H22_2 C19_2 1_555 1_555
H24_2 C21_2 1_555 1_555
C22_2 C1_2 1_555 1_555
H25_2 C22_2 1_555 1_555
H26_2 C22_2 1_555 1_555
C23_2 C22_2 1_555 1_555
H27_2 C23_2 1_555 1_555
H28_2 C23_2 1_555 1_555
N1_2 C8_2 1_555 1_555
N2_2 C1_2 1_555 1_555
H29_2 N2_2 1_555 1_555
H30_2 N2_2 1_555 1_555
N3_2 C19_2 1_555 1_555
H31_2 N3_2 1_555 1_555
H32_2 N3_2 1_555 1_555
N5_2 C5_2 1_555 1_555
O1_2 C23_2 1_555 1_555
O2_2 C2_2 1_555 1_555
Cu3 N2_2 1_555 1_555
Cu2_2 N1_2 1_555 1_555
Hg3_2 C16_2 1_555 1_555
C9_2 N1_2 1_555 1_555
C15_2 C16_2 1_555 1_555
C17_2 N5_2 1_555 1_555
C21_2 N6_2 1_555 1_555
N3_2 Cu2_2 1_555 1_555
N5_2 Cu2_2 1_555 1_555
N6_2 Cu3 1_555 1_555
O1_2 Cu3 1_555 1_555
O1_2 Cu2_2 1_555 1_555
O2_2 Cu3 1_555 1_555
O2_2 Cu2_2 1_555 1_555
C7_2 H9_2 1_555 1_555
H12_2 C10_2 1_555 1_555
C11_2 H13_2 1_555 1_555
C12_2 C11_2 1_555 1_555
H14_2 C12_2 1_555 1_555
C13_2 H15_2 1_555 1_555
C14_2 C13_2 1_555 1_555
H16_2 C14_2 1_555 1_555
C24_2 C7_2 1_555 1_555
C25_2 C11_2 1_555 1_555
N7 C12_2 1_555 1_555
Hg1_2 C24_2 1_555 1_555
C10_2 C24_2 1_555 1_555
C13_2 C25_2 1_555 1_555
C14_2 N7 1_555 1_555
C25_2 Hg1_2 1_555 1_555
C3_2 H5_2 1_555 1_555
C6_2 C3_2 1_555 1_555
H8_2 C6_2 1_555 1_555
H19_2 C18_2 1_555 1_555
H20_2 C18_2 1_555 1_555
C20_2 H23_2 1_555 1_555
C27 C6_2 1_555 1_555
C20_2 C27 1_555 1_555
C7_3 H9_3 1_555 1_555
H12_3 C10_3 1_555 1_555
C11_3 H13_3 1_555 1_555
C12_3 C11_3 1_555 1_555
H14_3 C12_3 1_555 1_555
C13_3 H15_3 1_555 1_555
C14_3 C13_3 1_555 1_555
H16_3 C14_3 1_555 1_555
C24_3 C7_3 1_555 1_555
C25_3 C11_3 1_555 1_555
N4_2 C12_3 1_555 1_555
Hg1_3 C24_3 1_555 1_555
Cu3_2 N4_2 1_555 1_555
C10_3 C24_3 1_555 1_555
C13_3 C25_3 1_555 1_555
C14_3 N4_2 1_555 1_555
C25_3 Hg1_3 1_555 1_555
C1_3 H1_3 1_555 1_555
H2_3 C1_3 1_555 1_555
H4_3 C2_3 1_555 1_555
C4_3 H6_3 1_555 1_555
C5_3 H7_3 1_555 1_555
C8_3 H10_3 1_555 1_555
H11_3 C9_3 1_555 1_555
C15_3 C5_3 1_555 1_555
H17_3 C15_3 1_555 1_555
C16_3 C4_3 1_555 1_555
C17_3 C4_3 1_555 1_555
H18_3 C17_3 1_555 1_555
H21_3 C19_3 1_555 1_555
H22_3 C19_3 1_555 1_555
H24_3 C21_3 1_555 1_555
C22_3 C1_3 1_555 1_555
H25_3 C22_3 1_555 1_555
H26_3 C22_3 1_555 1_555
C23_3 C22_3 1_555 1_555
H27_3 C23_3 1_555 1_555
H28_3 C23_3 1_555 1_555
N1_3 C8_3 1_555 1_555
N2_3 C1_3 1_555 1_555
H29_3 N2_3 1_555 1_555
H30_3 N2_3 1_555 1_555
N3_3 C19_3 1_555 1_555
H31_3 N3_3 1_555 1_555
H32_3 N3_3 1_555 1_555
N5_3 C5_3 1_555 1_555
O1_3 C23_3 1_555 1_555
O2_3 C2_3 1_555 1_555
Cu1_2 N2_3 1_555 1_555
Cu2_3 N1_3 1_555 1_555
Hg2 C16_3 1_555 1_555
N7_2 Cu1_2 1_555 1_555
C9_3 N1_3 1_555 1_555
C15_3 C16_3 1_555 1_555
C17_3 N5_3 1_555 1_555
C21_3 N6_3 1_555 1_555
N3_3 Cu2_3 1_555 1_555
N5_3 Cu2_3 1_555 1_555
N6_3 Cu1_2 1_555 1_555
O1_3 Cu1_2 1_555 1_555
O1_3 Cu2_3 1_555 1_555
O2_3 Cu1_2 1_555 1_555
O2_3 Cu2_3 1_555 1_555
C1_4 H1_4 1_555 1_555
H2_4 C1_4 1_555 1_555
C2_4 H3_3 1_555 1_555
H4_4 C2_4 1_555 1_555
C3_3 H5_3 1_555 1_555
C5_4 H7_4 1_555 1_555
C6_3 C3_3 1_555 1_555
H8_3 C6_3 1_555 1_555
C7_4 H9_4 1_555 1_555
C8_4 H10_4 1_555 1_555
C9_4 C7_4 1_555 1_555
H11_4 C9_4 1_555 1_555
C10_4 C8_4 1_555 1_555
H12_4 C10_4 1_555 1_555
C11_4 H13_4 1_555 1_555
C12_4 C11_4 1_555 1_555
H14_4 C12_4 1_555 1_555
C13_4 H15_4 1_555 1_555
C14_4 C13_4 1_555 1_555
H16_4 C14_4 1_555 1_555
C17_4 C4_4 1_555 1_555
H18_4 C17_4 1_555 1_555
C18_3 C2_4 1_555 1_555
H19_3 C18_3 1_555 1_555
H20_3 C18_3 1_555 1_555
C19_4 C18_3 1_555 1_555
H21_4 C19_4 1_555 1_555
H22_4 C19_4 1_555 1_555
C20_3 H23_3 1_555 1_555
C21_4 C20_3 1_555 1_555
H24_4 C21_4 1_555 1_555
C22_4 C1_4 1_555 1_555
H25_4 C22_4 1_555 1_555
C23_4 C22_4 1_555 1_555
H27_4 C23_4 1_555 1_555
H28_4 C23_4 1_555 1_555
C24_4 C7_4 1_555 1_555
C25_4 C11_4 1_555 1_555
C27_2 C6_3 1_555 1_555
N1_4 C8_4 1_555 1_555
N2_4 C1_4 1_555 1_555
H29_4 N2_4 1_555 1_555
H30_4 N2_4 1_555 1_555
N3_4 C19_4 1_555 1_555
H31_4 N3_4 1_555 1_555
H32_4 N3_4 1_555 1_555
N7_2 C12_4 1_555 1_555
N5_4 C5_4 1_555 1_555
N6_4 C3_3 1_555 1_555
O1_4 C23_4 1_555 1_555
O2_4 C2_4 1_555 1_555
Cu3_2 N2_4 1_555 1_555
Cu2_4 N1_4 1_555 1_555
Hg1_4 C24_4 1_555 1_555
C9_4 N1_4 1_555 1_555
C10_4 C24_4 1_555 1_555
C13_4 C25_4 1_555 1_555
C14_4 N7_2 1_555 1_555
C17_4 N5_4 1_555 1_555
C20_3 C27_2 1_555 1_555
C21_4 N6_4 1_555 1_555
C25_4 Hg1_4 1_555 1_555
N3_4 Cu2_4 1_555 1_555
N5_4 Cu2_4 1_555 1_555
N6_4 Cu3_2 1_555 1_555
O1_4 Cu3_2 1_555 1_555
O1_4 Cu2_4 1_555 1_555
O2_4 Cu3_2 1_555 1_555
O2_4 Cu2_4 1_555 1_555
H17_4 C15_4 1_555 1_555
Hg2_2 C16_4 1_555 1_555
C15_4 C16_4 1_555 1_555
C3_4 H5_4 1_555 1_555
C6_4 C3_4 1_555 1_555
H8_4 C6_4 1_555 1_555
H19_4 C18_4 1_555 1_555
H20_4 C18_4 1_555 1_555
C20_4 H23_4 1_555 1_555
C26_2 C6_4 1_555 1_555
C20_4 C26_2 1_555 1_555

#END
