
###############################################################################
#
# This file contains modified crystal structure data generated from the
# MOF subset of the Cambridge Structural Database (CSD) v543 
# hosted by the Cambridge Crystallographic Data Centre (CCDC).
#
# This work is licensed under the Creative Commons
# Attribution-NonCommercial-ShareAlike 4.0 International License.
# To view a copy of this license, visit
# http://creativecommons.org/licenses/by-nc-sa/4.0/
# or send a letter to
# Creative Commons, PO Box 1866, Mountain View, CA 94042, USA.
#
# CIF created using the CSD Python API on 29 September 2022
# The structure has been converted into the P1 space group
# The structure has a 3D framework
# The original CSD entry OHEQUP04 is in the monoclinic crystal system
# The original CSD entry OHEQUP04 is in a Sohncke space group
# The framework has been calculated to contain at least 10.0% void space
# The void calculation uses a probe of radius 1.32A, grid spacing 0.4
#
###############################################################################

data_OHEQUP04
_chemical_formula_moiety         '(C204 H120 Co12 N12 O44)n'
_symmetry_cell_setting           triclinic
_symmetry_space_group_name_H-M   'P 1'
_symmetry_Int_Tables_number      1
_space_group_name_Hall           'P 1'
loop_
_symmetry_equiv_pos_site_id
_symmetry_equiv_pos_as_xyz
1 x,y,z
_cell_length_a                   17.173(6)
_cell_length_b                   19.784(7)
_cell_length_c                   13.887(5)
_cell_angle_alpha                90
_cell_angle_beta                 95.771(4)
_cell_angle_gamma                90
_cell_volume                     4694.2
loop_
_atom_site_label
_atom_site_type_symbol
_atom_site_fract_x
_atom_site_fract_y
_atom_site_fract_z
C16 C 0.0595(2) 0.1934(3) 0.4029(3)
H9 H 0.1014 0.1743 0.4411
C17 C 0.0593(2) 0.1942(3) 0.3027(3)
H10 H 0.1010 0.1756 0.2740
N2 N 0.0033(3) 0.2228(3) 0.7544(2)
C18 C 0.0656(3) 0.2506(3) 0.7114(3)
H11 H 0.1075 0.2697 0.7496
C19 C 0.0653(3) 0.2498(3) 0.6112(3)
H12 H 0.1070 0.2684 0.5825
C20 C 0.0027(3) 0.2212(3) 0.5541(2)
C23 C 0.1027(6) 0.3211(4) 0.0185(7)
C24 C 0.1577(6) 0.3807(4) 0.0266(7)
C25 C 0.1650(5) 0.4172(3) 0.1149(5)
H15 H 0.1397 0.4028 0.1673
C26 C 0.2100(5) 0.4735(4) 0.1207(5)
H16 H 0.2161 0.4977 0.1784
C27 C 0.2481(6) 0.4966(4) 0.0402(6)
C33 C 0.2991(6) 0.5554(4) 0.0470(7)
H20 H 0.3017 0.5825 0.1020
O5 O 0.0811(3) 0.2966(3) 0.0948(4)
O7 O 0.4101(4) 0.6563(2) 0.0671(5)
O11 O 0.0769(3) 0.1509(3) 0.0904(5)
Co3 Co 0.00381(5) 0.22634(3) 0.90232(7)
Co5 Co 0.49619(5) 0.72634(3) 0.09768(7)
C28 C 0.2476(5) 0.4554(4) 0.9579(6)
C29 C 0.2018(5) 0.3983(4) 0.9541(6)
H17 H 0.2008 0.3705 0.9000
C30 C 0.2972(5) 0.4701(4) 0.8866(7)
H18 H 0.2983 0.4420 0.8331
C31 C 0.3436(4) 0.5253(4) 0.8959(6)
H19 H 0.3774 0.5332 0.8488
C32 C 0.3437(4) 0.5716(3) 0.9727(6)
C34 C 0.3967(4) 0.6307(3) 0.9840(6)
O6 O 0.0842(4) 0.2996(3) 0.9323(5)
O8 O 0.4231(3) 0.6509(3) 0.9096(5)
O9 O 0.0899(4) 0.1563(2) 0.9329(5)
Co7 Co 0.50381(5) 0.72634(3) 0.90232(7)
C6 C 0.7524(5) 0.4554(4) 0.0421(6)
C7 C 0.7982(5) 0.3983(4) 0.0459(6)
H3 H 0.7992 0.3705 0.1000
C8 C 0.7028(5) 0.4701(4) 0.1134(7)
H4 H 0.7017 0.4420 0.1669
C9 C 0.6564(4) 0.5253(4) 0.1041(6)
H5 H 0.6226 0.5332 0.1512
C10 C 0.6563(4) 0.5716(3) 0.0273(6)
C12 C 0.6033(4) 0.6307(3) 0.0160(6)
N1 N 0.9967(3) 0.2228(3) 0.2456(2)
C13 C 0.9344(3) 0.2506(3) 0.2886(3)
H7 H 0.8925 0.2697 0.2504
C14 C 0.9347(3) 0.2498(3) 0.3888(3)
H8 H 0.8930 0.2684 0.4175
C15 C 0.9973(3) 0.2212(3) 0.4459(2)
O2 O 0.9158(4) 0.2996(3) 0.0677(5)
O4 O 0.5769(3) 0.6509(3) 0.0904(5)
Co1 Co 0.99619(5) 0.22634(3) 0.09768(7)
C21 C 0.9405(2) 0.1934(3) 0.5971(3)
H13 H 0.8986 0.1743 0.5589
C22 C 0.9407(2) 0.1942(3) 0.6973(3)
H14 H 0.8990 0.1756 0.7260
O10 O 0.9101(4) 0.1563(2) 0.0671(5)
C1 C 0.8973(6) 0.3211(4) 0.9815(7)
C2 C 0.8423(6) 0.3807(4) 0.9734(7)
C3 C 0.8350(5) 0.4172(3) 0.8851(5)
H1 H 0.8603 0.4028 0.8327
C4 C 0.7900(5) 0.4735(4) 0.8793(5)
H2 H 0.7839 0.4977 0.8216
C5 C 0.7519(6) 0.4966(4) 0.9598(6)
C11 C 0.7009(6) 0.5554(4) 0.9530(7)
H6 H 0.6983 0.5825 0.8980
O1 O 0.9189(3) 0.2966(3) 0.9052(4)
O3 O 0.5899(4) 0.6563(2) 0.9329(5)
O12 O 0.9231(3) 0.1509(3) 0.9096(5)
C9_2 C 0.1564(4) 0.0253(4) 0.1041(6)
H5_2 H 0.1226 0.0332 0.1512
C10_2 C 0.1563(4) 0.0716(3) 0.0273(6)
C12_2 C 0.1033(4) 0.1307(3) 0.0160(6)
C33_2 C 0.7991(6) 0.0554(4) 0.0470(7)
H20_2 H 0.8017 0.0825 0.1020
C11_2 C 0.2009(6) 0.0554(4) 0.9530(7)
H6_2 H 0.1983 0.0825 0.8980
C31_2 C 0.8436(4) 0.0253(4) 0.8959(6)
H19_2 H 0.8774 0.0332 0.8488
C32_2 C 0.8437(4) 0.0716(3) 0.9727(6)
C34_2 C 0.8967(4) 0.1307(3) 0.9840(6)
C6_2 C 0.2524(5) 0.9554(4) 0.0421(6)
C7_2 C 0.2982(5) 0.8983(4) 0.0459(6)
H3_2 H 0.2992 0.8705 0.1000
C8_2 C 0.2028(5) 0.9701(4) 0.1134(7)
H4_2 H 0.2017 0.9420 0.1669
N1_2 N 0.4967(3) 0.7228(3) 0.2456(2)
C13_2 C 0.4344(3) 0.7506(3) 0.2886(3)
H7_2 H 0.3925 0.7697 0.2504
C14_2 C 0.4347(3) 0.7498(3) 0.3888(3)
H8_2 H 0.3930 0.7684 0.4175
C15_2 C 0.4973(3) 0.7212(3) 0.4459(2)
C16_2 C 0.5595(2) 0.6934(3) 0.4029(3)
H9_2 H 0.6014 0.6743 0.4411
C17_2 C 0.5593(2) 0.6942(3) 0.3027(3)
H10_2 H 0.6010 0.6756 0.2740
O2_2 O 0.4158(4) 0.7996(3) 0.0677(5)
N2_2 N 0.5033(3) 0.7228(3) 0.7544(2)
C18_2 C 0.5656(3) 0.7506(3) 0.7114(3)
H11_2 H 0.6075 0.7697 0.7496
C19_2 C 0.5653(3) 0.7498(3) 0.6112(3)
H12_2 H 0.6070 0.7684 0.5825
C20_2 C 0.5027(3) 0.7212(3) 0.5541(2)
C21_2 C 0.4405(2) 0.6934(3) 0.5971(3)
H13_2 H 0.3986 0.6743 0.5589
C22_2 C 0.4407(2) 0.6942(3) 0.6973(3)
H14_2 H 0.3990 0.6756 0.7260
C23_2 C 0.6027(6) 0.8211(4) 0.0185(7)
C24_2 C 0.6577(6) 0.8807(4) 0.0266(7)
C25_2 C 0.6650(5) 0.9172(3) 0.1149(5)
H15_2 H 0.6397 0.9028 0.1673
C26_2 C 0.7100(5) 0.9735(4) 0.1207(5)
H16_2 H 0.7161 0.9977 0.1784
C27_2 C 0.7481(6) 0.9966(4) 0.0402(6)
O5_2 O 0.5811(3) 0.7966(3) 0.0948(4)
C1_2 C 0.3973(6) 0.8211(4) 0.9815(7)
C2_2 C 0.3423(6) 0.8807(4) 0.9734(7)
C3_2 C 0.3350(5) 0.9172(3) 0.8851(5)
H1_2 H 0.3603 0.9028 0.8327
C4_2 C 0.2900(5) 0.9735(4) 0.8793(5)
H2_2 H 0.2839 0.9977 0.8216
C5_2 C 0.2519(6) 0.9966(4) 0.9598(6)
O1_2 O 0.4189(3) 0.7966(3) 0.9052(4)
C28_2 C 0.7476(5) 0.9554(4) 0.9579(6)
C29_2 C 0.7018(5) 0.8983(4) 0.9541(6)
H17_2 H 0.7008 0.8705 0.9000
C30_2 C 0.7972(5) 0.9701(4) 0.8866(7)
H18_2 H 0.7983 0.9420 0.8331
O6_2 O 0.5842(4) 0.7996(3) 0.9323(5)
C43 C 0.0171(6) 0.5510(5) 0.2308(7)
H25 H 0.0522 0.5583 0.1850
C44 C 0.0134(4) 0.5987(4) 0.3073(6)
C46 C 0.0641(4) 0.6590(4) 0.3212(6)
O15 O 0.0896(4) 0.6801(3) 0.2457(5)
O16 O 0.0800(4) 0.6803(3) 0.4035(5)
Co11 Co 0.17245(5) 0.75411(4) 0.23701(6)
Co14 Co 0.16377(5) 0.75286(4) 0.43292(6)
C55 C 0.0034(5) 0.9483(4) 0.2248(6)
H31 H 0.0287 0.9344 0.1721
C56 C 0.0088(5) 0.9084(4) 0.3120(7)
C58 C 0.0638(5) 0.8496(4) 0.3189(7)
O19 O 0.0818(4) 0.8238(3) 0.4026(5)
O20 O 0.0904(4) 0.8277(3) 0.2422(4)
C35 C 0.7715(5) 0.3497(4) 0.3524(6)
C36 C 0.8271(6) 0.4099(4) 0.3590(8)
C37 C 0.8715(6) 0.4262(5) 0.2876(7)
H21 H 0.8706 0.3981 0.2338
C38 C 0.9170(5) 0.4818(5) 0.2912(6)
C39 C 0.9162(6) 0.5264(5) 0.3728(7)
C40 C 0.8735(5) 0.5038(5) 0.4498(7)
H22 H 0.8745 0.5299 0.5055
C41 C 0.8315(5) 0.4458(4) 0.4445(7)
H23 H 0.8065 0.4307 0.4968
C42 C 0.9717(6) 0.4964(5) 0.2229(7)
H24 H 0.9757 0.4668 0.1716
C45 C 0.9650(5) 0.5862(5) 0.3793(7)
H26 H 0.9638 0.6158 0.4312
C47 C 0.7716(4) 0.1579(4) 0.3513(6)
C48 C 0.8228(4) 0.0984(4) 0.3618(6)
C49 C 0.8179(4) 0.0496(4) 0.4378(5)
H27 H 0.7821 0.0567 0.4829
C52 C 0.9216(4) 0.0260(4) 0.2980(6)
C53 C 0.8699(4) 0.0847(4) 0.2911(6)
H29 H 0.8691 0.1131 0.2377
C54 C 0.9617(5) 0.0056(4) 0.2201(6)
H30 H 0.9594 0.0321 0.1645
N4 N 0.6703(2) 0.2571(3) 0.0893(2)
C59 C 0.7312(2) 0.2271(3) 0.0461(3)
H33 H 0.7722 0.2067 0.0842
C63 C 0.6090(2) 0.2877(3) 0.0324(3)
H36 H 0.5683 0.3078 0.0613
O13 O 0.7553(4) 0.3240(3) 0.2688(5)
O14 O 0.7456(4) 0.3260(3) 0.4283(5)
O17 O 0.7562(4) 0.1817(3) 0.2692(5)
O18 O 0.7473(4) 0.1796(3) 0.4259(5)
Co8 Co 0.67245(5) 0.25411(4) 0.23701(6)
Co9 Co 0.66377(5) 0.25286(4) 0.43292(6)
N6 N 0.6673(2) 0.2577(3) 0.58026(18)
O21 O 0.5896(4) 0.1801(3) 0.2457(5)
O22 O 0.5800(4) 0.1803(3) 0.4035(5)
O23 O 0.5818(4) 0.3238(3) 0.4026(5)
O24 O 0.5904(4) 0.3277(3) 0.2422(4)
C60 C 0.7308(2) 0.2276(3) 0.9460(3)
H34 H 0.7715 0.2075 0.9171
C61 C 0.6695(3) 0.2582(3) 0.8890(2)
C62 C 0.6086(3) 0.2882(3) 0.9322(3)
H35 H 0.5676 0.3087 0.8941
C64 C 0.6707(2) 0.2614(3) 0.78076(18)
C65 C 0.59995(19) 0.2530(3) 0.7240(3)
H37 H 0.5538 0.2487 0.7532
C66 C 0.59822(17) 0.2512(3) 0.6238(2)
H38 H 0.5509 0.2456 0.5859
C67 C 0.73803(17) 0.2661(3) 0.6370(2)
H39 H 0.7842 0.2704 0.6078
C68 C 0.73976(18) 0.2679(3) 0.7372(2)
H40 H 0.7871 0.2735 0.7752
C39_2 C 0.4162(6) 0.0264(5) 0.3728(7)
C40_2 C 0.3735(5) 0.0038(5) 0.4498(7)
H22_2 H 0.3745 0.0299 0.5055
C43_2 C 0.5171(6) 0.0510(5) 0.2308(7)
H25_2 H 0.5522 0.0583 0.1850
C44_2 C 0.5134(4) 0.0987(4) 0.3073(6)
C45_2 C 0.4650(5) 0.0862(5) 0.3793(7)
H26_2 H 0.4638 0.1158 0.4312
C46_2 C 0.5641(4) 0.1590(4) 0.3212(6)
C35_2 C 0.2715(5) 0.8497(4) 0.3524(6)
C36_2 C 0.3271(6) 0.9099(4) 0.3590(8)
C37_2 C 0.3715(6) 0.9262(5) 0.2876(7)
H21_2 H 0.3706 0.8981 0.2338
C38_2 C 0.4170(5) 0.9818(5) 0.2912(6)
C41_2 C 0.3315(5) 0.9458(4) 0.4445(7)
H23_2 H 0.3065 0.9307 0.4968
C42_2 C 0.4717(6) 0.9964(5) 0.2229(7)
H24_2 H 0.4757 0.9668 0.1716
C47_2 C 0.2716(4) 0.6579(4) 0.3513(6)
C48_2 C 0.3228(4) 0.5984(4) 0.3618(6)
C49_2 C 0.3179(4) 0.5496(4) 0.4378(5)
H27_2 H 0.2821 0.5567 0.4829
C50 C 0.3642(4) 0.4929(3) 0.4462(5)
H28 H 0.3594 0.4622 0.4959
C51 C 0.4195(4) 0.4817(3) 0.3783(5)
C52_2 C 0.4216(4) 0.5260(4) 0.2980(6)
C53_2 C 0.3699(4) 0.5847(4) 0.2911(6)
H29_2 H 0.3691 0.6131 0.2377
C54_2 C 0.4617(5) 0.5056(4) 0.2201(6)
H30_2 H 0.4594 0.5321 0.1645
C55_2 C 0.5034(5) 0.4483(4) 0.2248(6)
H31_2 H 0.5287 0.4344 0.1721
C56_2 C 0.5088(5) 0.4084(4) 0.3120(7)
C57 C 0.4617(5) 0.4237(4) 0.3810(7)
H32 H 0.4580 0.3936 0.4318
C58_2 C 0.5638(5) 0.3496(4) 0.3189(7)
N4_2 N 0.1703(2) 0.7571(3) 0.0893(2)
C59_2 C 0.2312(2) 0.7271(3) 0.0461(3)
H33_2 H 0.2722 0.7067 0.0842
C63_2 C 0.1090(2) 0.7877(3) 0.0324(3)
H36_2 H 0.0683 0.8078 0.0613
O13_2 O 0.2553(4) 0.8240(3) 0.2688(5)
O14_2 O 0.2456(4) 0.8260(3) 0.4283(5)
O17_2 O 0.2562(4) 0.6817(3) 0.2692(5)
O18_2 O 0.2473(4) 0.6796(3) 0.4259(5)
N6_2 N 0.1673(2) 0.7577(3) 0.58026(18)
C60_2 C 0.2308(2) 0.7276(3) 0.9460(3)
H34_2 H 0.2715 0.7075 0.9171
C61_2 C 0.1695(3) 0.7582(3) 0.8890(2)
C62_2 C 0.1086(3) 0.7882(3) 0.9322(3)
H35_2 H 0.0676 0.8087 0.8941
C64_2 C 0.1707(2) 0.7614(3) 0.78076(18)
C65_2 C 0.09995(19) 0.7530(3) 0.7240(3)
H37_2 H 0.0538 0.7487 0.7532
C66_2 C 0.09822(17) 0.7512(3) 0.6238(2)
H38_2 H 0.0509 0.7456 0.5859
C67_2 C 0.23803(17) 0.7661(3) 0.6370(2)
H39_2 H 0.2842 0.7704 0.6078
C68_2 C 0.23976(18) 0.7679(3) 0.7372(2)
H40_2 H 0.2871 0.7735 0.7752
C50_2 C 0.8642(4) 0.9929(3) 0.4462(5)
H28_2 H 0.8594 0.9622 0.4959
C51_2 C 0.9195(4) 0.9817(3) 0.3783(5)
C57_2 C 0.9617(5) 0.9237(4) 0.3810(7)
H32_2 H 0.9580 0.8936 0.4318
C60_3 C 0.2692(2) 0.2276(3) 0.0540(3)
H34_3 H 0.2285 0.2075 0.0829
C61_3 C 0.3305(3) 0.2582(3) 0.1110(2)
C62_3 C 0.3914(3) 0.2882(3) 0.0678(3)
H35_3 H 0.4324 0.3087 0.1059
C64_3 C 0.3293(2) 0.2614(3) 0.21924(18)
C65_3 C 0.40005(19) 0.2530(3) 0.2760(3)
H37_3 H 0.4462 0.2487 0.2468
C66_3 C 0.40178(17) 0.2512(3) 0.3762(2)
H38_3 H 0.4491 0.2456 0.4141
N5 N 0.3327(2) 0.2577(3) 0.41974(18)
C67_3 C 0.26197(17) 0.2661(3) 0.3630(2)
H39_3 H 0.2158 0.2704 0.3922
C68_3 C 0.26024(18) 0.2679(3) 0.2628(2)
H40_3 H 0.2129 0.2735 0.2248
Co12 Co 0.33623(5) 0.25286(4) 0.56708(6)
C35_3 C 0.2285(5) 0.3497(4) 0.6476(6)
C36_3 C 0.1729(6) 0.4099(4) 0.6410(8)
C37_3 C 0.1285(6) 0.4262(5) 0.7124(7)
H21_3 H 0.1294 0.3981 0.7662
C38_3 C 0.0830(5) 0.4818(5) 0.7088(6)
C39_3 C 0.0838(6) 0.5264(5) 0.6272(7)
C40_3 C 0.1265(5) 0.5038(5) 0.5502(7)
H22_3 H 0.1255 0.5299 0.4945
C41_3 C 0.1685(5) 0.4458(4) 0.5555(7)
H23_3 H 0.1935 0.4307 0.5032
C42_3 C 0.0283(6) 0.4964(5) 0.7771(7)
H24_3 H 0.0243 0.4668 0.8284
C45_3 C 0.0350(5) 0.5862(5) 0.6207(7)
H26_3 H 0.0362 0.6158 0.5688
C47_3 C 0.2284(4) 0.1579(4) 0.6487(6)
C48_3 C 0.1772(4) 0.0984(4) 0.6382(6)
C49_3 C 0.1821(4) 0.0496(4) 0.5622(5)
H27_3 H 0.2179 0.0567 0.5171
C52_3 C 0.0784(4) 0.0260(4) 0.7020(6)
C53_3 C 0.1301(4) 0.0847(4) 0.7089(6)
H29_3 H 0.1309 0.1131 0.7623
C54_3 C 0.0383(5) 0.0056(4) 0.7799(6)
H30_3 H 0.0406 0.0321 0.8355
N4_3 N 0.3297(2) 0.2571(3) 0.9107(2)
C59_3 C 0.2688(2) 0.2271(3) 0.9539(3)
H33_3 H 0.2278 0.2067 0.9158
C63_3 C 0.3910(2) 0.2877(3) 0.9676(3)
H36_3 H 0.4317 0.3078 0.9387
O13_3 O 0.2447(4) 0.3240(3) 0.7312(5)
O14_3 O 0.2544(4) 0.3260(3) 0.5717(5)
O17_3 O 0.2438(4) 0.1817(3) 0.7308(5)
O18_3 O 0.2527(4) 0.1796(3) 0.5741(5)
Co8_2 Co 0.32755(5) 0.25411(4) 0.76299(6)
O21_2 O 0.4104(4) 0.1801(3) 0.7543(5)
O22_2 O 0.4200(4) 0.1803(3) 0.5965(5)
O23_2 O 0.4182(4) 0.3238(3) 0.5974(5)
O24_2 O 0.4096(4) 0.3277(3) 0.7578(4)
C43_3 C 0.9829(6) 0.5510(5) 0.7692(7)
H25_3 H 0.9478 0.5583 0.8150
C44_3 C 0.9866(4) 0.5987(4) 0.6927(6)
C46_3 C 0.9359(4) 0.6590(4) 0.6788(6)
O15_2 O 0.9104(4) 0.6801(3) 0.7543(5)
O16_2 O 0.9200(4) 0.6803(3) 0.5965(5)
Co11_2 Co 0.82755(5) 0.75411(4) 0.76299(6)
Co14_2 Co 0.83623(5) 0.75286(4) 0.56708(6)
C55_3 C 0.9966(5) 0.9483(4) 0.7752(6)
H31_3 H 0.9713 0.9344 0.8279
C56_3 C 0.9912(5) 0.9084(4) 0.6880(7)
C58_3 C 0.9362(5) 0.8496(4) 0.6811(7)
O19_2 O 0.9182(4) 0.8238(3) 0.5974(5)
O20_2 O 0.9096(4) 0.8277(3) 0.7578(4)
C39_4 C 0.5838(6) 0.0264(5) 0.6272(7)
C40_4 C 0.6265(5) 0.0038(5) 0.5502(7)
H22_4 H 0.6255 0.0299 0.4945
C43_4 C 0.4829(6) 0.0510(5) 0.7692(7)
H25_4 H 0.4478 0.0583 0.8150
C44_4 C 0.4866(4) 0.0987(4) 0.6927(6)
C45_4 C 0.5350(5) 0.0862(5) 0.6207(7)
H26_4 H 0.5362 0.1158 0.5688
C46_4 C 0.4359(4) 0.1590(4) 0.6788(6)
C60_4 C 0.7692(2) 0.7276(3) 0.0540(3)
H34_4 H 0.7285 0.7075 0.0829
C61_4 C 0.8305(3) 0.7582(3) 0.1110(2)
C62_4 C 0.8914(3) 0.7882(3) 0.0678(3)
H35_4 H 0.9324 0.8087 0.1059
C64_4 C 0.8293(2) 0.7614(3) 0.21924(18)
C65_4 C 0.90005(19) 0.7530(3) 0.2760(3)
H37_4 H 0.9462 0.7487 0.2468
C66_4 C 0.90178(17) 0.7512(3) 0.3762(2)
H38_4 H 0.9491 0.7456 0.4141
N5_2 N 0.8327(2) 0.7577(3) 0.41974(18)
C67_4 C 0.76197(17) 0.7661(3) 0.3630(2)
H39_4 H 0.7158 0.7704 0.3922
C68_4 C 0.76024(18) 0.7679(3) 0.2628(2)
H40_4 H 0.7129 0.7735 0.2248
C35_4 C 0.7285(5) 0.8497(4) 0.6476(6)
C36_4 C 0.6729(6) 0.9099(4) 0.6410(8)
C37_4 C 0.6285(6) 0.9262(5) 0.7124(7)
H21_4 H 0.6294 0.8981 0.7662
C38_4 C 0.5830(5) 0.9818(5) 0.7088(6)
C41_4 C 0.6685(5) 0.9458(4) 0.5555(7)
H23_4 H 0.6935 0.9307 0.5032
C42_4 C 0.5283(6) 0.9964(5) 0.7771(7)
H24_4 H 0.5243 0.9668 0.8284
C47_4 C 0.7284(4) 0.6579(4) 0.6487(6)
C48_4 C 0.6772(4) 0.5984(4) 0.6382(6)
C49_4 C 0.6821(4) 0.5496(4) 0.5622(5)
H27_4 H 0.7179 0.5567 0.5171
C50_3 C 0.6358(4) 0.4929(3) 0.5538(5)
H28_3 H 0.6406 0.4622 0.5041
C51_3 C 0.5805(4) 0.4817(3) 0.6217(5)
C52_4 C 0.5784(4) 0.5260(4) 0.7020(6)
C53_4 C 0.6301(4) 0.5847(4) 0.7089(6)
H29_4 H 0.6309 0.6131 0.7623
C54_4 C 0.5383(5) 0.5056(4) 0.7799(6)
H30_4 H 0.5406 0.5321 0.8355
C55_4 C 0.4966(5) 0.4483(4) 0.7752(6)
H31_4 H 0.4713 0.4344 0.8279
C56_4 C 0.4912(5) 0.4084(4) 0.6880(7)
C57_3 C 0.5383(5) 0.4237(4) 0.6190(7)
H32_3 H 0.5420 0.3936 0.5682
C58_4 C 0.4362(5) 0.3496(4) 0.6811(7)
N4_4 N 0.8297(2) 0.7571(3) 0.9107(2)
C59_4 C 0.7688(2) 0.7271(3) 0.9539(3)
H33_4 H 0.7278 0.7067 0.9158
C63_4 C 0.8910(2) 0.7877(3) 0.9676(3)
H36_4 H 0.9317 0.8078 0.9387
O13_4 O 0.7447(4) 0.8240(3) 0.7312(5)
O14_4 O 0.7544(4) 0.8260(3) 0.5717(5)
O17_4 O 0.7438(4) 0.6817(3) 0.7308(5)
O18_4 O 0.7527(4) 0.6796(3) 0.5741(5)
C50_4 C 0.1358(4) 0.9929(3) 0.5538(5)
H28_4 H 0.1406 0.9622 0.5041
C51_4 C 0.0805(4) 0.9817(3) 0.6217(5)
C57_4 C 0.0383(5) 0.9237(4) 0.6190(7)
H32_4 H 0.0420 0.8936 0.5682
loop_
_geom_bond_atom_site_label_1
_geom_bond_atom_site_label_2
_geom_bond_site_symmetry_1
_geom_bond_site_symmetry_2
H9 C16 1_555 1_555
H10 C17 1_555 1_555
N2 C18 1_555 1_555
C18 H11 1_555 1_555
C19 C18 1_555 1_555
H12 C19 1_555 1_555
C23 C24 1_555 1_555
C24 C25 1_555 1_555
C25 H15 1_555 1_555
C26 C25 1_555 1_555
H16 C26 1_555 1_555
C27 C26 1_555 1_555
C33 C27 1_555 1_555
H20 C33 1_555 1_555
Co3 N2 1_555 1_555
Co5 O7 1_555 1_555
C16 C17 1_555 1_555
C19 C20 1_555 1_555
C23 O5 1_555 1_555
H17 C29 1_555 1_555
C30 C28 1_555 1_555
H18 C30 1_555 1_555
C31 C30 1_555 1_555
H19 C31 1_555 1_555
C32 C31 1_555 1_555
C34 C32 1_555 1_555
O8 C34 1_555 1_555
O9 Co3 1_555 1_555
Co7 O8 1_555 1_555
C28 C29 1_555 1_555
O6 Co3 1_555 1_555
H3 C7 1_555 1_555
C8 C6 1_555 1_555
H4 C8 1_555 1_555
C9 C8 1_555 1_555
H5 C9 1_555 1_555
C10 C9 1_555 1_555
C12 C10 1_555 1_555
N1 C13 1_555 1_555
C13 H7 1_555 1_555
C14 C13 1_555 1_555
H8 C14 1_555 1_555
C15 C14 1_555 1_555
O4 C12 1_555 1_555
Co1 N1 1_555 1_555
H13 C21 1_555 1_555
H14 C22 1_555 1_555
O10 Co1 1_555 1_555
Co5 O4 1_555 1_555
C6 C7 1_555 1_555
O2 Co1 1_555 1_555
C21 C22 1_555 1_555
C1 C2 1_555 1_555
C2 C3 1_555 1_555
C3 H1 1_555 1_555
C4 C3 1_555 1_555
H2 C4 1_555 1_555
C5 C4 1_555 1_555
C11 C5 1_555 1_555
H6 C11 1_555 1_555
O1 C1 1_555 1_555
Co7 O3 1_555 1_555
H5_2 C9_2 1_555 1_555
C10_2 C9_2 1_555 1_555
C12_2 C10_2 1_555 1_555
O11 C12_2 1_555 1_555
H20_2 C33_2 1_555 1_555
H6_2 C11_2 1_555 1_555
H19_2 C31_2 1_555 1_555
C32_2 C31_2 1_555 1_555
C34_2 C32_2 1_555 1_555
O12 C34_2 1_555 1_555
H3_2 C7_2 1_555 1_555
C8_2 C6_2 1_555 1_555
H4_2 C8_2 1_555 1_555
N1_2 C13_2 1_555 1_555
C13_2 H7_2 1_555 1_555
C14_2 C13_2 1_555 1_555
H8_2 C14_2 1_555 1_555
C15_2 C14_2 1_555 1_555
C16_2 C15_2 1_555 1_555
H9_2 C16_2 1_555 1_555
C17_2 N1_2 1_555 1_555
H10_2 C17_2 1_555 1_555
Co5 N1_2 1_555 1_555
N2_2 C18_2 1_555 1_555
C18_2 H11_2 1_555 1_555
C19_2 C18_2 1_555 1_555
H12_2 C19_2 1_555 1_555
C20_2 C15_2 1_555 1_555
C21_2 C20_2 1_555 1_555
H13_2 C21_2 1_555 1_555
C22_2 N2_2 1_555 1_555
H14_2 C22_2 1_555 1_555
C23_2 C24_2 1_555 1_555
C24_2 C25_2 1_555 1_555
C25_2 H15_2 1_555 1_555
C26_2 C25_2 1_555 1_555
H16_2 C26_2 1_555 1_555
C27_2 C26_2 1_555 1_555
O5_2 Co5 1_555 1_555
Co7 N2_2 1_555 1_555
C6_2 C7_2 1_555 1_555
C16_2 C17_2 1_555 1_555
O2_2 Co5 1_555 1_555
C19_2 C20_2 1_555 1_555
C21_2 C22_2 1_555 1_555
C23_2 O5_2 1_555 1_555
C1_2 C2_2 1_555 1_555
C2_2 C3_2 1_555 1_555
C3_2 H1_2 1_555 1_555
C4_2 C3_2 1_555 1_555
H2_2 C4_2 1_555 1_555
C5_2 C4_2 1_555 1_555
O1_2 C1_2 1_555 1_555
H17_2 C29_2 1_555 1_555
C30_2 C28_2 1_555 1_555
H18_2 C30_2 1_555 1_555
Co7 O1_2 1_555 1_555
C28_2 C29_2 1_555 1_555
O6_2 Co7 1_555 1_555
H25 C43 1_555 1_555
C44 C43 1_555 1_555
C46 C44 1_555 1_555
O15 C46 1_555 1_555
O16 C46 1_555 1_555
Co11 O15 1_555 1_555
Co14 O16 1_555 1_555
Co11 Co14 1_555 1_555
H31 C55 1_555 1_555
C56 C55 1_555 1_555
C58 C56 1_555 1_555
O19 C58 1_555 1_555
O20 C58 1_555 1_555
Co11 O20 1_555 1_555
Co14 O19 1_555 1_555
C35 C36 1_555 1_555
C36 C37 1_555 1_555
C37 H21 1_555 1_555
C38 C37 1_555 1_555
C39 C38 1_555 1_555
C40 C39 1_555 1_555
H22 C40 1_555 1_555
C41 C36 1_555 1_555
H23 C41 1_555 1_555
C42 C38 1_555 1_555
H24 C42 1_555 1_555
C45 C39 1_555 1_555
H26 C45 1_555 1_555
C47 C48 1_555 1_555
C48 C49 1_555 1_555
C49 H27 1_555 1_555
C53 C48 1_555 1_555
H29 C53 1_555 1_555
C54 C52 1_555 1_555
H30 C54 1_555 1_555
N4 C59 1_555 1_555
C59 H33 1_555 1_555
C63 N4 1_555 1_555
H36 C63 1_555 1_555
O13 C35 1_555 1_555
O14 C35 1_555 1_555
O17 C47 1_555 1_555
O18 C47 1_555 1_555
Co8 N4 1_555 1_555
Co9 O14 1_555 1_555
N6 Co9 1_555 1_555
O21 Co8 1_555 1_555
O22 Co9 1_555 1_555
O23 Co9 1_555 1_555
O24 Co8 1_555 1_555
C40 C41 1_555 1_555
C52 C53 1_555 1_555
O13 Co8 1_555 1_555
O17 Co8 1_555 1_555
O18 Co9 1_555 1_555
Co8 Co9 1_555 1_555
H34 C60 1_555 1_555
C61 C60 1_555 1_555
C62 C61 1_555 1_555
H35 C62 1_555 1_555
C64 C61 1_555 1_555
C65 C64 1_555 1_555
H37 C65 1_555 1_555
C66 C65 1_555 1_555
H38 C66 1_555 1_555
N6 C66 1_555 1_555
C67 N6 1_555 1_555
H39 C67 1_555 1_555
C68 C64 1_555 1_555
H40 C68 1_555 1_555
C67 C68 1_555 1_555
C40_2 C39_2 1_555 1_555
H22_2 C40_2 1_555 1_555
H25_2 C43_2 1_555 1_555
C44_2 C43_2 1_555 1_555
C45_2 C39_2 1_555 1_555
H26_2 C45_2 1_555 1_555
C46_2 C44_2 1_555 1_555
O21 C46_2 1_555 1_555
O22 C46_2 1_555 1_555
C44_2 C45_2 1_555 1_555
C35_2 C36_2 1_555 1_555
C36_2 C37_2 1_555 1_555
C37_2 H21_2 1_555 1_555
C38_2 C37_2 1_555 1_555
C41_2 C36_2 1_555 1_555
H23_2 C41_2 1_555 1_555
C42_2 C38_2 1_555 1_555
H24_2 C42_2 1_555 1_555
C47_2 C48_2 1_555 1_555
C48_2 C49_2 1_555 1_555
C49_2 H27_2 1_555 1_555
C50 C49_2 1_555 1_555
H28 C50 1_555 1_555
C51 C50 1_555 1_555
C52_2 C51 1_555 1_555
C53_2 C48_2 1_555 1_555
H29_2 C53_2 1_555 1_555
C54_2 C52_2 1_555 1_555
H30_2 C54_2 1_555 1_555
C55_2 C54_2 1_555 1_555
H31_2 C55_2 1_555 1_555
C56_2 C55_2 1_555 1_555
C57 C51 1_555 1_555
H32 C57 1_555 1_555
C58_2 C56_2 1_555 1_555
N4_2 C59_2 1_555 1_555
C59_2 H33_2 1_555 1_555
C63_2 N4_2 1_555 1_555
H36_2 C63_2 1_555 1_555
O13_2 C35_2 1_555 1_555
O14_2 C35_2 1_555 1_555
O17_2 C47_2 1_555 1_555
O18_2 C47_2 1_555 1_555
O23 C58_2 1_555 1_555
O24 C58_2 1_555 1_555
Co11 N4_2 1_555 1_555
Co14 O14_2 1_555 1_555
N6_2 Co14 1_555 1_555
C52_2 C53_2 1_555 1_555
C56_2 C57 1_555 1_555
O13_2 Co11 1_555 1_555
O17_2 Co11 1_555 1_555
O18_2 Co14 1_555 1_555
H34_2 C60_2 1_555 1_555
C61_2 C60_2 1_555 1_555
C62_2 C61_2 1_555 1_555
H35_2 C62_2 1_555 1_555
C64_2 C61_2 1_555 1_555
C65_2 C64_2 1_555 1_555
H37_2 C65_2 1_555 1_555
C66_2 C65_2 1_555 1_555
H38_2 C66_2 1_555 1_555
N6_2 C66_2 1_555 1_555
C67_2 N6_2 1_555 1_555
H39_2 C67_2 1_555 1_555
C68_2 C64_2 1_555 1_555
H40_2 C68_2 1_555 1_555
C67_2 C68_2 1_555 1_555
H28_2 C50_2 1_555 1_555
C51_2 C50_2 1_555 1_555
C57_2 C51_2 1_555 1_555
H32_2 C57_2 1_555 1_555
H34_3 C60_3 1_555 1_555
C61_3 C60_3 1_555 1_555
C62_3 C61_3 1_555 1_555
H35_3 C62_3 1_555 1_555
C64_3 C61_3 1_555 1_555
C65_3 C64_3 1_555 1_555
H37_3 C65_3 1_555 1_555
C66_3 C65_3 1_555 1_555
H38_3 C66_3 1_555 1_555
N5 C66_3 1_555 1_555
C67_3 N5 1_555 1_555
H39_3 C67_3 1_555 1_555
C68_3 C64_3 1_555 1_555
H40_3 C68_3 1_555 1_555
Co12 N5 1_555 1_555
C67_3 C68_3 1_555 1_555
C35_3 C36_3 1_555 1_555
C36_3 C37_3 1_555 1_555
C37_3 H21_3 1_555 1_555
C38_3 C37_3 1_555 1_555
C39_3 C38_3 1_555 1_555
C40_3 C39_3 1_555 1_555
H22_3 C40_3 1_555 1_555
C41_3 C36_3 1_555 1_555
H23_3 C41_3 1_555 1_555
C42_3 C38_3 1_555 1_555
H24_3 C42_3 1_555 1_555
C45_3 C39_3 1_555 1_555
H26_3 C45_3 1_555 1_555
C47_3 C48_3 1_555 1_555
C48_3 C49_3 1_555 1_555
C49_3 H27_3 1_555 1_555
C53_3 C48_3 1_555 1_555
H29_3 C53_3 1_555 1_555
C54_3 C52_3 1_555 1_555
H30_3 C54_3 1_555 1_555
N4_3 C59_3 1_555 1_555
C59_3 H33_3 1_555 1_555
C63_3 N4_3 1_555 1_555
H36_3 C63_3 1_555 1_555
O13_3 C35_3 1_555 1_555
O14_3 C35_3 1_555 1_555
O17_3 C47_3 1_555 1_555
O18_3 C47_3 1_555 1_555
Co8_2 N4_3 1_555 1_555
Co12 O14_3 1_555 1_555
O21_2 Co8_2 1_555 1_555
O22_2 Co12 1_555 1_555
O23_2 Co12 1_555 1_555
O24_2 Co8_2 1_555 1_555
C40_3 C41_3 1_555 1_555
C52_3 C53_3 1_555 1_555
O13_3 Co8_2 1_555 1_555
O17_3 Co8_2 1_555 1_555
O18_3 Co12 1_555 1_555
Co8_2 Co12 1_555 1_555
H25_3 C43_3 1_555 1_555
C44_3 C43_3 1_555 1_555
C46_3 C44_3 1_555 1_555
O15_2 C46_3 1_555 1_555
O16_2 C46_3 1_555 1_555
Co11_2 O15_2 1_555 1_555
Co14_2 O16_2 1_555 1_555
Co11_2 Co14_2 1_555 1_555
H31_3 C55_3 1_555 1_555
C56_3 C55_3 1_555 1_555
C58_3 C56_3 1_555 1_555
O19_2 C58_3 1_555 1_555
O20_2 C58_3 1_555 1_555
Co11_2 O20_2 1_555 1_555
Co14_2 O19_2 1_555 1_555
C40_4 C39_4 1_555 1_555
H22_4 C40_4 1_555 1_555
H25_4 C43_4 1_555 1_555
C44_4 C43_4 1_555 1_555
C45_4 C39_4 1_555 1_555
H26_4 C45_4 1_555 1_555
C46_4 C44_4 1_555 1_555
O21_2 C46_4 1_555 1_555
O22_2 C46_4 1_555 1_555
C44_4 C45_4 1_555 1_555
H34_4 C60_4 1_555 1_555
C61_4 C60_4 1_555 1_555
C62_4 C61_4 1_555 1_555
H35_4 C62_4 1_555 1_555
C64_4 C61_4 1_555 1_555
C65_4 C64_4 1_555 1_555
H37_4 C65_4 1_555 1_555
C66_4 C65_4 1_555 1_555
H38_4 C66_4 1_555 1_555
N5_2 C66_4 1_555 1_555
C67_4 N5_2 1_555 1_555
H39_4 C67_4 1_555 1_555
C68_4 C64_4 1_555 1_555
H40_4 C68_4 1_555 1_555
Co14_2 N5_2 1_555 1_555
C67_4 C68_4 1_555 1_555
C35_4 C36_4 1_555 1_555
C36_4 C37_4 1_555 1_555
C37_4 H21_4 1_555 1_555
C38_4 C37_4 1_555 1_555
C41_4 C36_4 1_555 1_555
H23_4 C41_4 1_555 1_555
C42_4 C38_4 1_555 1_555
H24_4 C42_4 1_555 1_555
C47_4 C48_4 1_555 1_555
C48_4 C49_4 1_555 1_555
C49_4 H27_4 1_555 1_555
C50_3 C49_4 1_555 1_555
H28_3 C50_3 1_555 1_555
C51_3 C50_3 1_555 1_555
C52_4 C51_3 1_555 1_555
C53_4 C48_4 1_555 1_555
H29_4 C53_4 1_555 1_555
C54_4 C52_4 1_555 1_555
H30_4 C54_4 1_555 1_555
C55_4 C54_4 1_555 1_555
H31_4 C55_4 1_555 1_555
C56_4 C55_4 1_555 1_555
C57_3 C51_3 1_555 1_555
H32_3 C57_3 1_555 1_555
C58_4 C56_4 1_555 1_555
N4_4 C59_4 1_555 1_555
C59_4 H33_4 1_555 1_555
C63_4 N4_4 1_555 1_555
H36_4 C63_4 1_555 1_555
O13_4 C35_4 1_555 1_555
O14_4 C35_4 1_555 1_555
O17_4 C47_4 1_555 1_555
O18_4 C47_4 1_555 1_555
O23_2 C58_4 1_555 1_555
O24_2 C58_4 1_555 1_555
Co11_2 N4_4 1_555 1_555
Co14_2 O14_4 1_555 1_555
C52_4 C53_4 1_555 1_555
C56_4 C57_3 1_555 1_555
O13_4 Co11_2 1_555 1_555
O17_4 Co11_2 1_555 1_555
O18_4 Co14_2 1_555 1_555
H28_4 C50_4 1_555 1_555
C51_4 C50_4 1_555 1_555
C57_4 C51_4 1_555 1_555
H32_4 C57_4 1_555 1_555

#END
