
###############################################################################
#
# This file contains modified crystal structure data generated from the
# MOF subset of the Cambridge Structural Database (CSD) v543 
# hosted by the Cambridge Crystallographic Data Centre (CCDC).
#
# This work is licensed under the Creative Commons
# Attribution-NonCommercial-ShareAlike 4.0 International License.
# To view a copy of this license, visit
# http://creativecommons.org/licenses/by-nc-sa/4.0/
# or send a letter to
# Creative Commons, PO Box 1866, Mountain View, CA 94042, USA.
#
# CIF created using the CSD Python API on 29 September 2022
# The structure has been converted into the P1 space group
# The structure has a 3D framework
# The original CSD entry OHEQUP05 is in the monoclinic crystal system
# The original CSD entry OHEQUP05 is in a Sohncke space group
# The framework has been calculated to contain at least 10.0% void space
# The void calculation uses a probe of radius 1.32A, grid spacing 0.4
#
###############################################################################

data_OHEQUP05
_chemical_formula_moiety         '(C204 H120 Co12 N12 O44)n'
_symmetry_cell_setting           triclinic
_symmetry_space_group_name_H-M   'P 1'
_symmetry_Int_Tables_number      1
_space_group_name_Hall           'P 1'
loop_
_symmetry_equiv_pos_site_id
_symmetry_equiv_pos_as_xyz
1 x,y,z
_cell_length_a                   17.0391(8)
_cell_length_b                   20.0278(10)
_cell_length_c                   13.8334(7)
_cell_angle_alpha                90
_cell_angle_beta                 96.243(3)
_cell_angle_gamma                90
_cell_volume                     4692.73
loop_
_atom_site_label
_atom_site_type_symbol
_atom_site_fract_x
_atom_site_fract_y
_atom_site_fract_z
O7 O 0.0876(4) 0.7866(4) 0.2426(6)
O8 O 0.0812(4) 0.7865(4) 0.4054(5)
C9 C 0.0097(5) 0.0572(4) 0.2285(6)
H5 H 0.0426 0.0475 0.1791
C10 C 0.0064(4) 0.0118(4) 0.3084(7)
C21 C 0.0162(6) 0.6590(5) 0.2279(7)
H11 H 0.0480 0.6698 0.1778
C22 C 0.0134(5) 0.7031(5) 0.3096(7)
C24 C 0.0646(5) 0.7643(5) 0.3188(8)
Co4 Co 0.17238(5) 0.8598(2) 0.24000(6)
Co7 Co 0.16498(5) 0.8585(2) 0.43112(6)
O3 O 0.0918(4) 0.9327(4) 0.2445(5)
O4 O 0.0795(4) 0.9282(4) 0.4023(5)
C12 C 0.0624(5) 0.9539(5) 0.3190(7)
Co1 Co 0.67238(5) 0.3598(2) 0.24000(6)
O1 O 0.7555(4) 0.2866(3) 0.2672(5)
C1 C 0.7724(5) 0.2643(5) 0.3526(8)
Co2 Co 0.66498(5) 0.3585(2) 0.43112(6)
O2 O 0.7508(4) 0.2856(4) 0.4306(5)
C2 C 0.8229(3) 0.2031(4) 0.3621(6)
C3 C 0.8713(3) 0.1885(3) 0.2898(6)
H1 H 0.8736 0.2184 0.2369
C4 C 0.9168(4) 0.1296(3) 0.2950(6)
O5 O 0.7581(4) 0.4281(4) 0.2689(5)
C5 C 0.9130(4) 0.0847(4) 0.3753(6)
O6 O 0.7451(4) 0.4317(4) 0.4274(5)
C6 C 0.8643(4) 0.0992(4) 0.4480(6)
H2 H 0.8618 0.0695 0.5010
C7 C 0.8208(4) 0.1561(4) 0.4420(6)
H3 H 0.7880 0.1656 0.4916
C8 C 0.9660(4) 0.1139(4) 0.2231(6)
H4 H 0.9688 0.1435 0.1699
C11 C 0.9598(4) 0.0256(4) 0.3782(7)
C13 C 0.7744(5) 0.4549(5) 0.3523(7)
C14 C 0.8286(5) 0.5142(4) 0.3620(8)
C15 C 0.8744(5) 0.5284(4) 0.2919(8)
H7 H 0.8750 0.4982 0.2391
C16 C 0.9223(5) 0.5870(4) 0.2932(7)
C17 C 0.9194(5) 0.6309(4) 0.3748(7)
C18 C 0.8705(5) 0.6114(5) 0.4491(7)
H8 H 0.8688 0.6392 0.5044
C19 C 0.8268(6) 0.5541(5) 0.4418(8)
H9 H 0.7954 0.5421 0.4917
C20 C 0.9735(6) 0.6027(5) 0.2233(7)
H10 H 0.9779 0.5724 0.1712
C23 C 0.9643(5) 0.6895(4) 0.3801(7)
H12 H 0.9609 0.7199 0.4322
N1 N 0.6722(2) 0.3635(4) 0.0915(2)
C25 C 0.6143(2) 0.3991(3) 0.0346(3)
H13 H 0.5749 0.4226 0.0645
C29 C 0.7299(2) 0.3292(4) 0.0479(3)
H16 H 0.7695 0.3049 0.0868
O9 O 0.5918(4) 0.4327(4) 0.2445(5)
O10 O 0.5795(4) 0.4282(4) 0.4023(5)
O11 O 0.5876(4) 0.2866(4) 0.2426(6)
O12 O 0.5812(4) 0.2865(4) 0.4054(5)
N3 N 0.6672(2) 0.3622(4) 0.57941(17)
C26 C 0.6141(2) 0.4004(3) 0.9342(3)
H14 H 0.5746 0.4248 0.8953
C27 C 0.6718(3) 0.3661(4) 0.8905(2)
C28 C 0.7297(2) 0.3305(4) 0.9474(3)
H15 H 0.7692 0.3070 0.9176
C30 C 0.6708(2) 0.3664(3) 0.78070(17)
C31 C 0.74047(17) 0.3721(3) 0.7377(2)
H17 H 0.7893 0.3775 0.7771
C32 C 0.73872(16) 0.3700(3) 0.6370(2)
H18 H 0.7864 0.3739 0.6076
C33 C 0.59753(16) 0.3565(4) 0.6224(2)
H19 H 0.5487 0.3511 0.5830
C34 C 0.59928(17) 0.3586(4) 0.7231(2)
H20 H 0.5516 0.3547 0.7525
C14_2 C 0.3286(5) 0.0142(4) 0.3620(8)
C15_2 C 0.3744(5) 0.0284(4) 0.2919(8)
C16_2 C 0.4223(5) 0.0870(4) 0.2932(7)
C17_2 C 0.4194(5) 0.1309(4) 0.3748(7)
C18_2 C 0.3705(5) 0.1114(5) 0.4491(7)
H8_2 H 0.3688 0.1392 0.5044
C19_2 C 0.3268(6) 0.0541(5) 0.4418(8)
H9_2 H 0.2954 0.0421 0.4917
C20_2 C 0.4735(6) 0.1027(5) 0.2233(7)
H10_2 H 0.4779 0.0724 0.1712
C21_2 C 0.5162(6) 0.1590(5) 0.2279(7)
H11_2 H 0.5480 0.1698 0.1778
C22_2 C 0.5134(5) 0.2031(5) 0.3096(7)
C23_2 C 0.4643(5) 0.1895(4) 0.3801(7)
H12_2 H 0.4609 0.2199 0.4322
C24_2 C 0.5646(5) 0.2643(5) 0.3188(8)
O1_2 O 0.2555(4) 0.7866(3) 0.2672(5)
C1_2 C 0.2724(5) 0.7643(5) 0.3526(8)
O2_2 O 0.2508(4) 0.7856(4) 0.4306(5)
C2_2 C 0.3229(3) 0.7031(4) 0.3621(6)
C3_2 C 0.3713(3) 0.6885(3) 0.2898(6)
H1_2 H 0.3736 0.7184 0.2369
C4_2 C 0.4168(4) 0.6296(3) 0.2950(6)
O5_2 O 0.2581(4) 0.9281(4) 0.2689(5)
C5_2 C 0.4130(4) 0.5847(4) 0.3753(6)
O6_2 O 0.2451(4) 0.9317(4) 0.4274(5)
C6_2 C 0.3643(4) 0.5992(4) 0.4480(6)
H2_2 H 0.3618 0.5695 0.5010
C7_2 C 0.3208(4) 0.6561(4) 0.4420(6)
H3_2 H 0.2880 0.6656 0.4916
C8_2 C 0.4660(4) 0.6139(4) 0.2231(6)
H4_2 H 0.4688 0.6435 0.1699
C9_2 C 0.5097(5) 0.5572(4) 0.2285(6)
H5_2 H 0.5426 0.5475 0.1791
C10_2 C 0.5064(4) 0.5118(4) 0.3084(7)
C11_2 C 0.4598(4) 0.5256(4) 0.3782(7)
H6 H 0.4580 0.4953 0.4307
C12_2 C 0.5624(5) 0.4539(5) 0.3190(7)
C13_2 C 0.2744(5) 0.9549(5) 0.3523(7)
H7_2 H 0.3750 0.9982 0.2391
N1_2 N 0.1722(2) 0.8635(4) 0.0915(2)
C25_2 C 0.1143(2) 0.8991(3) 0.0346(3)
H13_2 H 0.0749 0.9226 0.0645
C29_2 C 0.2299(2) 0.8292(4) 0.0479(3)
H16_2 H 0.2695 0.8049 0.0868
N3_2 N 0.1672(2) 0.8622(4) 0.57941(17)
C26_2 C 0.1141(2) 0.9004(3) 0.9342(3)
H14_2 H 0.0746 0.9248 0.8953
C27_2 C 0.1718(3) 0.8661(4) 0.8905(2)
C28_2 C 0.2297(2) 0.8305(4) 0.9474(3)
H15_2 H 0.2692 0.8070 0.9176
C30_2 C 0.1708(2) 0.8664(3) 0.78070(17)
C31_2 C 0.24047(17) 0.8721(3) 0.7377(2)
H17_2 H 0.2893 0.8775 0.7771
C32_2 C 0.23872(16) 0.8700(3) 0.6370(2)
H18_2 H 0.2864 0.8739 0.6076
C33_2 C 0.09753(16) 0.8565(4) 0.6224(2)
H19_2 H 0.0487 0.8511 0.5830
C34_2 C 0.09928(17) 0.8586(4) 0.7231(2)
H20_2 H 0.0516 0.8547 0.7525
H6_2 H 0.9580 0.9953 0.4307
C26_3 C 0.3859(2) 0.4004(3) 0.0658(3)
H14_3 H 0.4254 0.4248 0.1047
C27_3 C 0.3282(3) 0.3661(4) 0.1095(2)
C28_3 C 0.2703(2) 0.3305(4) 0.0526(3)
H15_3 H 0.2308 0.3070 0.0824
C30_3 C 0.3292(2) 0.3664(3) 0.21930(17)
C31_3 C 0.25953(17) 0.3721(3) 0.2623(2)
H17_3 H 0.2107 0.3775 0.2229
C32_3 C 0.26128(16) 0.3700(3) 0.3630(2)
H18_3 H 0.2136 0.3739 0.3924
N2 N 0.3328(2) 0.3622(4) 0.42059(17)
C33_3 C 0.40247(16) 0.3565(4) 0.3776(2)
H19_3 H 0.4513 0.3511 0.4170
C34_3 C 0.40072(17) 0.3586(4) 0.2769(2)
H20_3 H 0.4484 0.3547 0.2475
Co5 Co 0.33502(5) 0.3585(2) 0.56888(6)
Co1_2 Co 0.32762(5) 0.3598(2) 0.76000(6)
O1_3 O 0.2445(4) 0.2866(3) 0.7328(5)
C1_3 C 0.2276(5) 0.2643(5) 0.6474(8)
O2_3 O 0.2492(4) 0.2856(4) 0.5694(5)
C2_3 C 0.1771(3) 0.2031(4) 0.6379(6)
C3_3 C 0.1287(3) 0.1885(3) 0.7102(6)
H1_3 H 0.1264 0.2184 0.7631
C4_3 C 0.0832(4) 0.1296(3) 0.7050(6)
O5_3 O 0.2419(4) 0.4281(4) 0.7311(5)
C5_3 C 0.0870(4) 0.0847(4) 0.6247(6)
O6_3 O 0.2549(4) 0.4317(4) 0.5726(5)
C6_3 C 0.1357(4) 0.0992(4) 0.5520(6)
H2_3 H 0.1382 0.0695 0.4990
C7_3 C 0.1792(4) 0.1561(4) 0.5580(6)
H3_3 H 0.2120 0.1656 0.5084
C8_3 C 0.0340(4) 0.1139(4) 0.7769(6)
H4_3 H 0.0312 0.1435 0.8301
C11_3 C 0.0402(4) 0.0256(4) 0.6218(7)
C13_3 C 0.2256(5) 0.4549(5) 0.6477(7)
C14_3 C 0.1714(5) 0.5142(4) 0.6380(8)
C15_3 C 0.1256(5) 0.5284(4) 0.7081(8)
H7_3 H 0.1250 0.4982 0.7609
C16_3 C 0.0777(5) 0.5870(4) 0.7068(7)
C17_3 C 0.0806(5) 0.6309(4) 0.6252(7)
C18_3 C 0.1295(5) 0.6114(5) 0.5509(7)
H8_3 H 0.1312 0.6392 0.4956
C19_3 C 0.1732(6) 0.5541(5) 0.5582(8)
H9_3 H 0.2046 0.5421 0.5083
C20_3 C 0.0265(6) 0.6027(5) 0.7767(7)
H10_3 H 0.0221 0.5724 0.8288
C23_3 C 0.0357(5) 0.6895(4) 0.6199(7)
H12_3 H 0.0391 0.7199 0.5678
N1_3 N 0.3278(2) 0.3635(4) 0.9085(2)
C25_3 C 0.3857(2) 0.3991(3) 0.9654(3)
H13_3 H 0.4251 0.4226 0.9355
C29_3 C 0.2701(2) 0.3292(4) 0.9521(3)
H16_3 H 0.2305 0.3049 0.9132
O9_2 O 0.4082(4) 0.4327(4) 0.7555(5)
O10_2 O 0.4205(4) 0.4282(4) 0.5977(5)
O11_2 O 0.4124(4) 0.2866(4) 0.7574(6)
O12_2 O 0.4188(4) 0.2865(4) 0.5946(5)
O7_2 O 0.9124(4) 0.7866(4) 0.7574(6)
O8_2 O 0.9188(4) 0.7865(4) 0.5946(5)
C9_3 C 0.9903(5) 0.0572(4) 0.7715(6)
H5_3 H 0.9574 0.0475 0.8209
C10_3 C 0.9936(4) 0.0118(4) 0.6916(7)
C21_3 C 0.9838(6) 0.6590(5) 0.7721(7)
H11_3 H 0.9520 0.6698 0.8222
C22_3 C 0.9866(5) 0.7031(5) 0.6904(7)
C24_3 C 0.9354(5) 0.7643(5) 0.6812(8)
Co4_2 Co 0.82762(5) 0.8598(2) 0.76000(6)
Co7_2 Co 0.83502(5) 0.8585(2) 0.56888(6)
O3_2 O 0.9082(4) 0.9327(4) 0.7555(5)
O4_2 O 0.9205(4) 0.9282(4) 0.5977(5)
C12_3 C 0.9376(5) 0.9539(5) 0.6810(7)
C14_4 C 0.6714(5) 0.0142(4) 0.6380(8)
C15_4 C 0.6256(5) 0.0284(4) 0.7081(8)
C16_4 C 0.5777(5) 0.0870(4) 0.7068(7)
C17_4 C 0.5806(5) 0.1309(4) 0.6252(7)
C18_4 C 0.6295(5) 0.1114(5) 0.5509(7)
H8_4 H 0.6312 0.1392 0.4956
C19_4 C 0.6732(6) 0.0541(5) 0.5582(8)
H9_4 H 0.7046 0.0421 0.5083
C20_4 C 0.5265(6) 0.1027(5) 0.7767(7)
H10_4 H 0.5221 0.0724 0.8288
C21_4 C 0.4838(6) 0.1590(5) 0.7721(7)
H11_4 H 0.4520 0.1698 0.8222
C22_4 C 0.4866(5) 0.2031(5) 0.6904(7)
C23_4 C 0.5357(5) 0.1895(4) 0.6199(7)
H12_4 H 0.5391 0.2199 0.5678
C24_4 C 0.4354(5) 0.2643(5) 0.6812(8)
C26_4 C 0.8859(2) 0.9004(3) 0.0658(3)
H14_4 H 0.9254 0.9248 0.1047
C27_4 C 0.8282(3) 0.8661(4) 0.1095(2)
C28_4 C 0.7703(2) 0.8305(4) 0.0526(3)
H15_4 H 0.7308 0.8070 0.0824
C30_4 C 0.8292(2) 0.8664(3) 0.21930(17)
C31_4 C 0.75953(17) 0.8721(3) 0.2623(2)
H17_4 H 0.7107 0.8775 0.2229
C32_4 C 0.76128(16) 0.8700(3) 0.3630(2)
H18_4 H 0.7136 0.8739 0.3924
N2_2 N 0.8328(2) 0.8622(4) 0.42059(17)
C33_4 C 0.90247(16) 0.8565(4) 0.3776(2)
H19_4 H 0.9513 0.8511 0.4170
C34_4 C 0.90072(17) 0.8586(4) 0.2769(2)
H20_4 H 0.9484 0.8547 0.2475
O1_4 O 0.7445(4) 0.7866(3) 0.7328(5)
C1_4 C 0.7276(5) 0.7643(5) 0.6474(8)
O2_4 O 0.7492(4) 0.7856(4) 0.5694(5)
C2_4 C 0.6771(3) 0.7031(4) 0.6379(6)
C3_4 C 0.6287(3) 0.6885(3) 0.7102(6)
H1_4 H 0.6264 0.7184 0.7631
C4_4 C 0.5832(4) 0.6296(3) 0.7050(6)
O5_4 O 0.7419(4) 0.9281(4) 0.7311(5)
C5_4 C 0.5870(4) 0.5847(4) 0.6247(6)
O6_4 O 0.7549(4) 0.9317(4) 0.5726(5)
C6_4 C 0.6357(4) 0.5992(4) 0.5520(6)
H2_4 H 0.6382 0.5695 0.4990
C7_4 C 0.6792(4) 0.6561(4) 0.5580(6)
H3_4 H 0.7120 0.6656 0.5084
C8_4 C 0.5340(4) 0.6139(4) 0.7769(6)
H4_4 H 0.5312 0.6435 0.8301
C9_4 C 0.4903(5) 0.5572(4) 0.7715(6)
H5_4 H 0.4574 0.5475 0.8209
C10_4 C 0.4936(4) 0.5118(4) 0.6916(7)
C11_4 C 0.5402(4) 0.5256(4) 0.6218(7)
H6_3 H 0.5420 0.4953 0.5693
C12_4 C 0.4376(5) 0.4539(5) 0.6810(7)
C13_4 C 0.7256(5) 0.9549(5) 0.6477(7)
H7_4 H 0.6250 0.9982 0.7609
N1_4 N 0.8278(2) 0.8635(4) 0.9085(2)
C25_4 C 0.8857(2) 0.8991(3) 0.9654(3)
H13_4 H 0.9251 0.9226 0.9355
C29_4 C 0.7701(2) 0.8292(4) 0.9521(3)
H16_4 H 0.7305 0.8049 0.9132
H6_4 H 0.0420 0.9953 0.5693
C50 C 0.0631(2) 0.2996(3) 0.4038(3)
H29 H 0.1071 0.2818 0.4436
C51 C 0.0625(2) 0.2997(3) 0.3033(3)
H30 H 0.1060 0.2818 0.2743
N5 N 0.0018(2) 0.3258(3) 0.7549(2)
C52 C 0.0655(2) 0.3520(3) 0.7126(3)
H31 H 0.1094 0.3699 0.7524
C53 C 0.0648(2) 0.3520(3) 0.6120(3)
H32 H 0.1084 0.3698 0.5831
C54 C 0.0005(3) 0.3258(3) 0.5538(2)
O17 O 0.0816(4) 0.3966(4) 0.0946(5)
O19 O 0.4091(4) 0.7585(3) 0.0678(5)
C57 C 0.1051(6) 0.4234(5) 0.0176(8)
C58 C 0.1584(5) 0.4820(5) 0.0284(7)
C59 C 0.1616(5) 0.5206(5) 0.1129(6)
H35 H 0.1321 0.5080 0.1643
C60 C 0.2086(5) 0.5775(5) 0.1209(6)
H36 H 0.2116 0.6035 0.1786
C61 C 0.2527(5) 0.5975(4) 0.0432(6)
C64 C 0.2991(5) 0.6555(4) 0.0504(6)
H38 H 0.2999 0.6830 0.1064
Co10 Co 0.00331(6) 0.3284(2) 0.90494(8)
Co12 Co 0.49669(6) 0.8284(2) 0.09506(8)
O23 O 0.0771(4) 0.2518(4) 0.0923(5)
O18 O 0.0842(4) 0.4007(4) 0.9344(5)
O20 O 0.4229(4) 0.7518(4) 0.9077(5)
C62 C 0.2502(5) 0.5565(4) 0.9603(7)
C63 C 0.2024(5) 0.4985(4) 0.9550(7)
H37 H 0.2009 0.4706 0.8993
C65 C 0.3443(5) 0.6731(4) 0.9757(6)
C66 C 0.3399(5) 0.6314(5) 0.8908(7)
H39 H 0.3686 0.6436 0.8383
C67 C 0.2954(5) 0.5748(5) 0.8844(7)
H40 H 0.2946 0.5473 0.8283
C68 C 0.3960(5) 0.7328(4) 0.9844(7)
Co14 Co 0.50331(6) 0.8284(2) 0.90494(8)
O21 O 0.0909(4) 0.2585(3) 0.9322(5)
Co8 Co 0.99669(6) 0.3284(2) 0.09506(8)
O14 O 0.9158(4) 0.4007(4) 0.0656(5)
O16 O 0.5771(4) 0.7518(4) 0.0923(5)
C40 C 0.7498(5) 0.5565(4) 0.0397(7)
C41 C 0.7976(5) 0.4985(4) 0.0450(7)
H23 H 0.7991 0.4706 0.1007
C43 C 0.6557(5) 0.6731(4) 0.0243(6)
C44 C 0.6601(5) 0.6314(5) 0.1092(7)
H25 H 0.6314 0.6436 0.1617
C45 C 0.7046(5) 0.5748(5) 0.1156(7)
H26 H 0.7054 0.5473 0.1717
C46 C 0.6040(5) 0.7328(4) 0.0156(7)
N4 N 0.9982(2) 0.3258(3) 0.2451(2)
C47 C 0.9345(2) 0.3520(3) 0.2874(3)
H27 H 0.8906 0.3699 0.2476
C48 C 0.9352(2) 0.3520(3) 0.3880(3)
H28 H 0.8916 0.3698 0.4169
C49 C 0.9995(3) 0.3258(3) 0.4462(2)
C55 C 0.9369(2) 0.2996(3) 0.5962(3)
H33 H 0.8929 0.2818 0.5564
C56 C 0.9375(2) 0.2997(3) 0.6967(3)
H34 H 0.8940 0.2818 0.7257
O22 O 0.9091(4) 0.2585(3) 0.0678(5)
O13 O 0.9184(4) 0.3966(4) 0.9054(5)
O15 O 0.5909(4) 0.7585(3) 0.9322(5)
C35 C 0.8949(6) 0.4234(5) 0.9824(8)
C36 C 0.8416(5) 0.4820(5) 0.9716(7)
C37 C 0.8384(5) 0.5206(5) 0.8871(6)
H21 H 0.8679 0.5080 0.8357
C38 C 0.7914(5) 0.5775(5) 0.8791(6)
H22 H 0.7884 0.6035 0.8214
C39 C 0.7473(5) 0.5975(4) 0.9568(6)
C42 C 0.7009(5) 0.6555(4) 0.9496(6)
H24 H 0.7001 0.6830 0.8936
O24 O 0.9229(4) 0.2518(4) 0.9077(5)
C40_2 C 0.2498(5) 0.0565(4) 0.0397(7)
C43_2 C 0.1557(5) 0.1731(4) 0.0243(6)
C44_2 C 0.1601(5) 0.1314(5) 0.1092(7)
H25_2 H 0.1314 0.1436 0.1617
C45_2 C 0.2046(5) 0.0748(5) 0.1156(7)
H26_2 H 0.2054 0.0473 0.1717
C46_2 C 0.1040(5) 0.2328(4) 0.0156(7)
C59_2 C 0.6616(5) 0.0206(5) 0.1129(6)
H35_2 H 0.6321 0.0080 0.1643
C60_2 C 0.7086(5) 0.0775(5) 0.1209(6)
H36_2 H 0.7116 0.1035 0.1786
C61_2 C 0.7527(5) 0.0975(4) 0.0432(6)
C64_2 C 0.7991(5) 0.1555(4) 0.0504(6)
H38_2 H 0.7999 0.1830 0.1064
C37_2 C 0.3384(5) 0.0206(5) 0.8871(6)
H21_2 H 0.3679 0.0080 0.8357
C38_2 C 0.2914(5) 0.0775(5) 0.8791(6)
H22_2 H 0.2884 0.1035 0.8214
C39_2 C 0.2473(5) 0.0975(4) 0.9568(6)
C42_2 C 0.2009(5) 0.1555(4) 0.9496(6)
H24_2 H 0.2001 0.1830 0.8936
C62_2 C 0.7502(5) 0.0565(4) 0.9603(7)
C65_2 C 0.8443(5) 0.1731(4) 0.9757(6)
C66_2 C 0.8399(5) 0.1314(5) 0.8908(7)
H39_2 H 0.8686 0.1436 0.8383
C67_2 C 0.7954(5) 0.0748(5) 0.8844(7)
H40_2 H 0.7946 0.0473 0.8283
C68_2 C 0.8960(5) 0.2328(4) 0.9844(7)
O14_2 O 0.4158(4) 0.9007(4) 0.0656(5)
C41_2 C 0.2976(5) 0.9985(4) 0.0450(7)
H23_2 H 0.2991 0.9706 0.1007
N4_2 N 0.4982(2) 0.8258(3) 0.2451(2)
C47_2 C 0.4345(2) 0.8520(3) 0.2874(3)
H27_2 H 0.3906 0.8699 0.2476
C48_2 C 0.4352(2) 0.8520(3) 0.3880(3)
H28_2 H 0.3916 0.8698 0.4169
C49_2 C 0.4995(3) 0.8258(3) 0.4462(2)
C50_2 C 0.5631(2) 0.7996(3) 0.4038(3)
H29_2 H 0.6071 0.7818 0.4436
C51_2 C 0.5625(2) 0.7997(3) 0.3033(3)
H30_2 H 0.6060 0.7818 0.2743
N5_2 N 0.5018(2) 0.8258(3) 0.7549(2)
C52_2 C 0.5655(2) 0.8520(3) 0.7126(3)
H31_2 H 0.6094 0.8699 0.7524
C53_2 C 0.5648(2) 0.8520(3) 0.6120(3)
H32_2 H 0.6084 0.8698 0.5831
C54_2 C 0.5005(3) 0.8258(3) 0.5538(2)
C55_2 C 0.4369(2) 0.7996(3) 0.5962(3)
H33_2 H 0.3929 0.7818 0.5564
C56_2 C 0.4375(2) 0.7997(3) 0.6967(3)
H34_2 H 0.3940 0.7818 0.7257
O17_2 O 0.5816(4) 0.8966(4) 0.0946(5)
C57_2 C 0.6051(6) 0.9234(5) 0.0176(8)
C58_2 C 0.6584(5) 0.9820(5) 0.0284(7)
O13_2 O 0.4184(4) 0.8966(4) 0.9054(5)
C35_2 C 0.3949(6) 0.9234(5) 0.9824(8)
C36_2 C 0.3416(5) 0.9820(5) 0.9716(7)
O18_2 O 0.5842(4) 0.9007(4) 0.9344(5)
C63_2 C 0.7024(5) 0.9985(4) 0.9550(7)
H37_2 H 0.7009 0.9706 0.8993
loop_
_geom_bond_atom_site_label_1
_geom_bond_atom_site_label_2
_geom_bond_site_symmetry_1
_geom_bond_site_symmetry_2
O7 C24 1_555 1_555
O8 C24 1_555 1_555
H5 C9 1_555 1_555
C10 C9 1_555 1_555
H11 C21 1_555 1_555
C22 C21 1_555 1_555
C24 C22 1_555 1_555
Co4 O7 1_555 1_555
Co7 O8 1_555 1_555
Co4 Co7 1_555 1_555
O3 C12 1_555 1_555
O4 C12 1_555 1_555
Co4 O3 1_555 1_555
Co7 O4 1_555 1_555
Co1 O1 1_555 1_555
O1 C1 1_555 1_555
C1 O2 1_555 1_555
Co2 Co1 1_555 1_555
O2 Co2 1_555 1_555
C2 C1 1_555 1_555
C3 C2 1_555 1_555
H1 C3 1_555 1_555
C4 C3 1_555 1_555
O5 Co1 1_555 1_555
C5 C4 1_555 1_555
O6 Co2 1_555 1_555
C6 C5 1_555 1_555
H2 C6 1_555 1_555
C7 C2 1_555 1_555
H3 C7 1_555 1_555
C8 C4 1_555 1_555
H4 C8 1_555 1_555
C11 C5 1_555 1_555
C13 O5 1_555 1_555
C14 C13 1_555 1_555
C15 C14 1_555 1_555
H7 C15 1_555 1_555
C16 C15 1_555 1_555
C17 C16 1_555 1_555
C18 C17 1_555 1_555
H8 C18 1_555 1_555
C19 C14 1_555 1_555
H9 C19 1_555 1_555
C20 C16 1_555 1_555
H10 C20 1_555 1_555
C23 C17 1_555 1_555
H12 C23 1_555 1_555
N1 Co1 1_555 1_555
C25 N1 1_555 1_555
H13 C25 1_555 1_555
C29 N1 1_555 1_555
H16 C29 1_555 1_555
O9 Co1 1_555 1_555
O10 Co2 1_555 1_555
O11 Co1 1_555 1_555
O12 Co2 1_555 1_555
N3 Co2 1_555 1_555
O6 C13 1_555 1_555
C6 C7 1_555 1_555
C18 C19 1_555 1_555
H14 C26 1_555 1_555
C27 C26 1_555 1_555
C28 C27 1_555 1_555
H15 C28 1_555 1_555
C30 C27 1_555 1_555
C31 C30 1_555 1_555
H17 C31 1_555 1_555
C32 C31 1_555 1_555
H18 C32 1_555 1_555
N3 C32 1_555 1_555
C33 N3 1_555 1_555
H19 C33 1_555 1_555
C34 C30 1_555 1_555
H20 C34 1_555 1_555
C33 C34 1_555 1_555
O11 C24_2 1_555 1_555
O12 C24_2 1_555 1_555
C15_2 C14_2 1_555 1_555
C16_2 C15_2 1_555 1_555
C17_2 C16_2 1_555 1_555
C18_2 C17_2 1_555 1_555
H8_2 C18_2 1_555 1_555
C19_2 C14_2 1_555 1_555
H9_2 C19_2 1_555 1_555
C20_2 C16_2 1_555 1_555
H10_2 C20_2 1_555 1_555
C21_2 C20_2 1_555 1_555
H11_2 C21_2 1_555 1_555
C22_2 C21_2 1_555 1_555
C23_2 C17_2 1_555 1_555
H12_2 C23_2 1_555 1_555
C24_2 C22_2 1_555 1_555
C18_2 C19_2 1_555 1_555
C22_2 C23_2 1_555 1_555
Co4 O1_2 1_555 1_555
O1_2 C1_2 1_555 1_555
C1_2 O2_2 1_555 1_555
O2_2 Co7 1_555 1_555
C2_2 C1_2 1_555 1_555
O9 C12_2 1_555 1_555
C3_2 C2_2 1_555 1_555
H1_2 C3_2 1_555 1_555
O10 C12_2 1_555 1_555
C4_2 C3_2 1_555 1_555
O5_2 Co4 1_555 1_555
C5_2 C4_2 1_555 1_555
O6_2 Co7 1_555 1_555
C6_2 C5_2 1_555 1_555
H2_2 C6_2 1_555 1_555
C7_2 C2_2 1_555 1_555
H3_2 C7_2 1_555 1_555
C8_2 C4_2 1_555 1_555
H4_2 C8_2 1_555 1_555
C9_2 C8_2 1_555 1_555
H5_2 C9_2 1_555 1_555
C10_2 C9_2 1_555 1_555
C11_2 C5_2 1_555 1_555
H6 C11_2 1_555 1_555
C12_2 C10_2 1_555 1_555
C13_2 O5_2 1_555 1_555
N1_2 Co4 1_555 1_555
C25_2 N1_2 1_555 1_555
H13_2 C25_2 1_555 1_555
C29_2 N1_2 1_555 1_555
H16_2 C29_2 1_555 1_555
N3_2 Co7 1_555 1_555
O6_2 C13_2 1_555 1_555
C6_2 C7_2 1_555 1_555
C10_2 C11_2 1_555 1_555
H14_2 C26_2 1_555 1_555
C27_2 C26_2 1_555 1_555
C28_2 C27_2 1_555 1_555
H15_2 C28_2 1_555 1_555
C30_2 C27_2 1_555 1_555
C31_2 C30_2 1_555 1_555
H17_2 C31_2 1_555 1_555
C32_2 C31_2 1_555 1_555
H18_2 C32_2 1_555 1_555
N3_2 C32_2 1_555 1_555
C33_2 N3_2 1_555 1_555
H19_2 C33_2 1_555 1_555
C34_2 C30_2 1_555 1_555
H20_2 C34_2 1_555 1_555
C33_2 C34_2 1_555 1_555
H14_3 C26_3 1_555 1_555
C27_3 C26_3 1_555 1_555
C28_3 C27_3 1_555 1_555
H15_3 C28_3 1_555 1_555
C30_3 C27_3 1_555 1_555
C31_3 C30_3 1_555 1_555
H17_3 C31_3 1_555 1_555
C32_3 C31_3 1_555 1_555
H18_3 C32_3 1_555 1_555
N2 C32_3 1_555 1_555
C33_3 N2 1_555 1_555
H19_3 C33_3 1_555 1_555
C34_3 C30_3 1_555 1_555
H20_3 C34_3 1_555 1_555
Co5 N2 1_555 1_555
C33_3 C34_3 1_555 1_555
Co1_2 O1_3 1_555 1_555
O1_3 C1_3 1_555 1_555
C1_3 O2_3 1_555 1_555
Co5 Co1_2 1_555 1_555
O2_3 Co5 1_555 1_555
C2_3 C1_3 1_555 1_555
C3_3 C2_3 1_555 1_555
H1_3 C3_3 1_555 1_555
C4_3 C3_3 1_555 1_555
O5_3 Co1_2 1_555 1_555
C5_3 C4_3 1_555 1_555
O6_3 Co5 1_555 1_555
C6_3 C5_3 1_555 1_555
H2_3 C6_3 1_555 1_555
C7_3 C2_3 1_555 1_555
H3_3 C7_3 1_555 1_555
C8_3 C4_3 1_555 1_555
H4_3 C8_3 1_555 1_555
C11_3 C5_3 1_555 1_555
C13_3 O5_3 1_555 1_555
C14_3 C13_3 1_555 1_555
C15_3 C14_3 1_555 1_555
H7_3 C15_3 1_555 1_555
C16_3 C15_3 1_555 1_555
C17_3 C16_3 1_555 1_555
C18_3 C17_3 1_555 1_555
H8_3 C18_3 1_555 1_555
C19_3 C14_3 1_555 1_555
H9_3 C19_3 1_555 1_555
C20_3 C16_3 1_555 1_555
H10_3 C20_3 1_555 1_555
C23_3 C17_3 1_555 1_555
H12_3 C23_3 1_555 1_555
N1_3 Co1_2 1_555 1_555
C25_3 N1_3 1_555 1_555
H13_3 C25_3 1_555 1_555
C29_3 N1_3 1_555 1_555
H16_3 C29_3 1_555 1_555
O9_2 Co1_2 1_555 1_555
O10_2 Co5 1_555 1_555
O11_2 Co1_2 1_555 1_555
O12_2 Co5 1_555 1_555
O6_3 C13_3 1_555 1_555
C6_3 C7_3 1_555 1_555
C18_3 C19_3 1_555 1_555
O7_2 C24_3 1_555 1_555
O8_2 C24_3 1_555 1_555
H5_3 C9_3 1_555 1_555
C10_3 C9_3 1_555 1_555
H11_3 C21_3 1_555 1_555
C22_3 C21_3 1_555 1_555
C24_3 C22_3 1_555 1_555
Co4_2 O7_2 1_555 1_555
Co7_2 O8_2 1_555 1_555
Co4_2 Co7_2 1_555 1_555
O3_2 C12_3 1_555 1_555
O4_2 C12_3 1_555 1_555
Co4_2 O3_2 1_555 1_555
Co7_2 O4_2 1_555 1_555
O11_2 C24_4 1_555 1_555
O12_2 C24_4 1_555 1_555
C15_4 C14_4 1_555 1_555
C16_4 C15_4 1_555 1_555
C17_4 C16_4 1_555 1_555
C18_4 C17_4 1_555 1_555
H8_4 C18_4 1_555 1_555
C19_4 C14_4 1_555 1_555
H9_4 C19_4 1_555 1_555
C20_4 C16_4 1_555 1_555
H10_4 C20_4 1_555 1_555
C21_4 C20_4 1_555 1_555
H11_4 C21_4 1_555 1_555
C22_4 C21_4 1_555 1_555
C23_4 C17_4 1_555 1_555
H12_4 C23_4 1_555 1_555
C24_4 C22_4 1_555 1_555
C18_4 C19_4 1_555 1_555
C22_4 C23_4 1_555 1_555
H14_4 C26_4 1_555 1_555
C27_4 C26_4 1_555 1_555
C28_4 C27_4 1_555 1_555
H15_4 C28_4 1_555 1_555
C30_4 C27_4 1_555 1_555
C31_4 C30_4 1_555 1_555
H17_4 C31_4 1_555 1_555
C32_4 C31_4 1_555 1_555
H18_4 C32_4 1_555 1_555
N2_2 C32_4 1_555 1_555
C33_4 N2_2 1_555 1_555
H19_4 C33_4 1_555 1_555
C34_4 C30_4 1_555 1_555
H20_4 C34_4 1_555 1_555
Co7_2 N2_2 1_555 1_555
C33_4 C34_4 1_555 1_555
Co4_2 O1_4 1_555 1_555
O1_4 C1_4 1_555 1_555
C1_4 O2_4 1_555 1_555
O2_4 Co7_2 1_555 1_555
C2_4 C1_4 1_555 1_555
O9_2 C12_4 1_555 1_555
C3_4 C2_4 1_555 1_555
H1_4 C3_4 1_555 1_555
O10_2 C12_4 1_555 1_555
C4_4 C3_4 1_555 1_555
O5_4 Co4_2 1_555 1_555
C5_4 C4_4 1_555 1_555
O6_4 Co7_2 1_555 1_555
C6_4 C5_4 1_555 1_555
H2_4 C6_4 1_555 1_555
C7_4 C2_4 1_555 1_555
H3_4 C7_4 1_555 1_555
C8_4 C4_4 1_555 1_555
H4_4 C8_4 1_555 1_555
C9_4 C8_4 1_555 1_555
H5_4 C9_4 1_555 1_555
C10_4 C9_4 1_555 1_555
C11_4 C5_4 1_555 1_555
H6_3 C11_4 1_555 1_555
C12_4 C10_4 1_555 1_555
C13_4 O5_4 1_555 1_555
N1_4 Co4_2 1_555 1_555
C25_4 N1_4 1_555 1_555
H13_4 C25_4 1_555 1_555
C29_4 N1_4 1_555 1_555
H16_4 C29_4 1_555 1_555
O6_4 C13_4 1_555 1_555
C6_4 C7_4 1_555 1_555
C10_4 C11_4 1_555 1_555
H29 C50 1_555 1_555
H30 C51 1_555 1_555
N5 C52 1_555 1_555
C52 H31 1_555 1_555
C53 C52 1_555 1_555
H32 C53 1_555 1_555
C57 O17 1_555 1_555
C58 C57 1_555 1_555
C59 C58 1_555 1_555
H35 C59 1_555 1_555
C60 C59 1_555 1_555
H36 C60 1_555 1_555
C61 C60 1_555 1_555
C64 C61 1_555 1_555
H38 C64 1_555 1_555
Co10 N5 1_555 1_555
Co12 O19 1_555 1_555
C50 C51 1_555 1_555
C53 C54 1_555 1_555
O18 Co10 1_555 1_555
O20 C68 1_555 1_555
H37 C63 1_555 1_555
C66 C65 1_555 1_555
H39 C66 1_555 1_555
C67 C62 1_555 1_555
H40 C67 1_555 1_555
C68 C65 1_555 1_555
Co14 O20 1_555 1_555
O21 Co10 1_555 1_555
C62 C63 1_555 1_555
C66 C67 1_555 1_555
Co8 O14 1_555 1_555
O16 C46 1_555 1_555
H23 C41 1_555 1_555
C44 C43 1_555 1_555
H25 C44 1_555 1_555
C45 C40 1_555 1_555
H26 C45 1_555 1_555
C46 C43 1_555 1_555
N4 Co8 1_555 1_555
C47 N4 1_555 1_555
H27 C47 1_555 1_555
C48 C47 1_555 1_555
H28 C48 1_555 1_555
C49 C48 1_555 1_555
H33 C55 1_555 1_555
H34 C56 1_555 1_555
Co12 O16 1_555 1_555
O22 Co8 1_555 1_555
C40 C41 1_555 1_555
C44 C45 1_555 1_555
C55 C56 1_555 1_555
O13 C35 1_555 1_555
C35 C36 1_555 1_555
C36 C37 1_555 1_555
C37 H21 1_555 1_555
C38 C37 1_555 1_555
H22 C38 1_555 1_555
C39 C38 1_555 1_555
C42 C39 1_555 1_555
H24 C42 1_555 1_555
Co14 O15 1_555 1_555
O23 C46_2 1_555 1_555
C44_2 C43_2 1_555 1_555
H25_2 C44_2 1_555 1_555
C45_2 C40_2 1_555 1_555
H26_2 C45_2 1_555 1_555
C46_2 C43_2 1_555 1_555
H35_2 C59_2 1_555 1_555
C60_2 C59_2 1_555 1_555
H36_2 C60_2 1_555 1_555
C61_2 C60_2 1_555 1_555
C64_2 C61_2 1_555 1_555
H38_2 C64_2 1_555 1_555
C44_2 C45_2 1_555 1_555
C37_2 H21_2 1_555 1_555
C38_2 C37_2 1_555 1_555
H22_2 C38_2 1_555 1_555
C39_2 C38_2 1_555 1_555
C42_2 C39_2 1_555 1_555
H24_2 C42_2 1_555 1_555
O24 C68_2 1_555 1_555
C66_2 C65_2 1_555 1_555
H39_2 C66_2 1_555 1_555
C67_2 C62_2 1_555 1_555
H40_2 C67_2 1_555 1_555
C68_2 C65_2 1_555 1_555
C66_2 C67_2 1_555 1_555
Co12 O14_2 1_555 1_555
H23_2 C41_2 1_555 1_555
N4_2 Co12 1_555 1_555
C47_2 N4_2 1_555 1_555
H27_2 C47_2 1_555 1_555
C48_2 C47_2 1_555 1_555
H28_2 C48_2 1_555 1_555
C49_2 C48_2 1_555 1_555
C50_2 C49_2 1_555 1_555
H29_2 C50_2 1_555 1_555
C51_2 N4_2 1_555 1_555
H30_2 C51_2 1_555 1_555
N5_2 C52_2 1_555 1_555
C52_2 H31_2 1_555 1_555
C53_2 C52_2 1_555 1_555
H32_2 C53_2 1_555 1_555
C54_2 C49_2 1_555 1_555
C55_2 C54_2 1_555 1_555
H33_2 C55_2 1_555 1_555
C56_2 N5_2 1_555 1_555
H34_2 C56_2 1_555 1_555
O17_2 Co12 1_555 1_555
C57_2 O17_2 1_555 1_555
C58_2 C57_2 1_555 1_555
Co14 N5_2 1_555 1_555
C50_2 C51_2 1_555 1_555
C53_2 C54_2 1_555 1_555
C55_2 C56_2 1_555 1_555
O13_2 C35_2 1_555 1_555
C35_2 C36_2 1_555 1_555
O18_2 Co14 1_555 1_555
H37_2 C63_2 1_555 1_555
O13_2 Co14 1_555 1_555

#END
