
###############################################################################
#
# This file contains modified crystal structure data generated from the
# MOF subset of the Cambridge Structural Database (CSD) v543 
# hosted by the Cambridge Crystallographic Data Centre (CCDC).
#
# This work is licensed under the Creative Commons
# Attribution-NonCommercial-ShareAlike 4.0 International License.
# To view a copy of this license, visit
# http://creativecommons.org/licenses/by-nc-sa/4.0/
# or send a letter to
# Creative Commons, PO Box 1866, Mountain View, CA 94042, USA.
#
# CIF created using the CSD Python API on 29 September 2022
# The structure has been converted into the P1 space group
# The structure has a 3D framework
# The original CSD entry OHEVAZ is in the monoclinic crystal system
# The framework has been calculated to contain at least 10.0% void space
# The void calculation uses a probe of radius 1.32A, grid spacing 0.4
#
###############################################################################

data_OHEVAZ
_chemical_formula_moiety         '(C152 H112 Mn4 N16 O30 S8)n'
_symmetry_cell_setting           triclinic
_symmetry_space_group_name_H-M   'P 1'
_symmetry_Int_Tables_number      1
_space_group_name_Hall           'P 1'
loop_
_symmetry_equiv_pos_site_id
_symmetry_equiv_pos_as_xyz
1 x,y,z
_cell_length_a                   15.442(3)
_cell_length_b                   13.224(3)
_cell_length_c                   23.711(5)
_cell_angle_alpha                90
_cell_angle_beta                 107.445(2)
_cell_angle_gamma                90
_cell_volume                     4619.2
loop_
_atom_site_label
_atom_site_type_symbol
_atom_site_fract_x
_atom_site_fract_y
_atom_site_fract_z
Mn1 Mn 0.63749(3) 0.00712(3) 0.52568(2)
H10 H 0.5766 0.0296 0.3836
H11 H 0.6822 0.0285 0.1639
O5 O 0.53364(17) 0.10428(18) 0.47637(12)
O6 O 0.74300(16) 0.1144(2) 0.51671(14)
N3 N 0.6289(2) 0.0834(2) 0.61091(13)
S1 S 0.64325(12) 0.74263(9) 0.27951(5)
O1 O 0.61264(15) 0.86340(17) 0.56081(11)
O2 O 0.46636(17) 0.89572(18) 0.52363(12)
O3 O 0.24300(16) 0.6144(2) 0.51671(14)
O4 O 0.29273(18) 0.4698(2) 0.55802(14)
N1 N 0.62704(19) 0.9220(2) 0.43978(13)
N2 N 0.6289(2) 0.9166(2) 0.11091(13)
C1 C 0.5095(2) 0.7270(2) 0.55310(14)
C2 C 0.4204(2) 0.6934(2) 0.54178(14)
H1 H 0.3723 0.7384 0.5284
C3 C 0.4036(2) 0.5916(2) 0.55062(15)
C4 C 0.4758(2) 0.5241(3) 0.56931(17)
H2 H 0.4641 0.4564 0.5748
C5 C 0.5654(2) 0.5560(3) 0.57997(16)
C6 C 0.5810(2) 0.6580(2) 0.57190(15)
H3 H 0.6403 0.6807 0.5792
C7 C 0.5308(2) 0.8364(2) 0.54535(13)
C8 C 0.3076(2) 0.5556(3) 0.54104(16)
C9 C 0.6437(3) 0.4831(3) 0.6014(2)
H4 H 0.6264 0.4181 0.5836
H5 H 0.6950 0.5079 0.5906
H6 H 0.6596 0.4769 0.6436
C10 C 0.6588(2) 0.8266(3) 0.44218(16)
H7 H 0.6779 0.7950 0.4789
C11 C 0.6646(3) 0.7729(3) 0.39379(17)
H8 H 0.6870 0.7071 0.3978
C12 C 0.6362(3) 0.8194(3) 0.33855(16)
C13 C 0.6009(3) 0.9170(3) 0.33504(17)
H9 H 0.5792 0.9497 0.2988
C14 C 0.5990(2) 0.9639(3) 0.38637(16)
C15 C 0.6614(3) 0.9624(3) 0.16338(17)
C16 C 0.6662(3) 0.9176(3) 0.21680(18)
H12 H 0.6913 0.9520 0.2522
C17 C 0.6325(3) 0.8197(3) 0.21655(17)
C18 C 0.5964(3) 0.7734(3) 0.16272(18)
H13 H 0.5721 0.7087 0.1608
C19 C 0.5964(3) 0.8223(3) 0.11199(17)
H14 H 0.5726 0.7887 0.0762
Mn2 Mn 0.36251(3) 0.99288(3) 0.47432(2)
Mn3 Mn 0.13749(3) 0.50712(3) 0.52568(2)
Mn4 Mn 0.63749(3) 0.99288(3) 0.02568(2)
O7 O 0.79273(18) 0.9698(2) 0.55802(14)
H10_2 H 0.4234 0.0296 0.1164
H11_2 H 0.3178 0.0285 0.3361
O5_2 O 0.46636(17) 0.10428(18) 0.02363(12)
Mn1_2 Mn 0.36251(3) 0.00712(3) 0.97432(2)
O6_2 O 0.25700(16) 0.1144(2) 0.98329(14)
N3_2 N 0.3711(2) 0.0834(2) 0.88909(13)
S1_2 S 0.35675(12) 0.74263(9) 0.22049(5)
N1_2 N 0.37296(19) 0.9220(2) 0.06022(13)
N2_2 N 0.3711(2) 0.9166(2) 0.38909(13)
C10_2 C 0.3412(2) 0.8266(3) 0.05782(16)
H7_2 H 0.3221 0.7950 0.0211
C11_2 C 0.3354(3) 0.7729(3) 0.10621(17)
H8_2 H 0.3130 0.7071 0.1022
C12_2 C 0.3638(3) 0.8194(3) 0.16145(16)
C13_2 C 0.3991(3) 0.9170(3) 0.16496(17)
H9_2 H 0.4208 0.9497 0.2012
C14_2 C 0.4010(2) 0.9639(3) 0.11363(16)
C15_2 C 0.3386(3) 0.9624(3) 0.33662(17)
C16_2 C 0.3338(3) 0.9176(3) 0.28320(18)
H12_2 H 0.3087 0.9520 0.2478
C17_2 C 0.3675(3) 0.8197(3) 0.28345(17)
C18_2 C 0.4036(3) 0.7734(3) 0.33728(18)
H13_2 H 0.4279 0.7087 0.3392
C19_2 C 0.4036(3) 0.8223(3) 0.38801(17)
H14_2 H 0.4274 0.7887 0.4238
O1_2 O 0.38736(15) 0.86340(17) 0.93919(11)
O2_2 O 0.53364(17) 0.89572(18) 0.97637(12)
O3_2 O 0.75700(16) 0.6144(2) 0.98329(14)
O4_2 O 0.70727(18) 0.4698(2) 0.94198(14)
C1_2 C 0.4905(2) 0.7270(2) 0.94690(14)
C2_2 C 0.5796(2) 0.6934(2) 0.95822(14)
H1_2 H 0.6277 0.7384 0.9716
C3_2 C 0.5964(2) 0.5916(2) 0.94938(15)
C4_2 C 0.5242(2) 0.5241(3) 0.93069(17)
H2_2 H 0.5359 0.4564 0.9252
C5_2 C 0.4346(2) 0.5560(3) 0.92003(16)
C6_2 C 0.4190(2) 0.6580(2) 0.92810(15)
H3_2 H 0.3597 0.6807 0.9208
C7_2 C 0.4692(2) 0.8364(2) 0.95465(13)
C8_2 C 0.6924(2) 0.5556(3) 0.95896(16)
C9_2 C 0.3563(3) 0.4831(3) 0.8986(2)
H4_2 H 0.3736 0.4181 0.9164
H5_2 H 0.3050 0.5079 0.9094
H6_2 H 0.3404 0.4769 0.8564
Mn3_2 Mn 0.86251(3) 0.50712(3) 0.97432(2)
O7_2 O 0.20727(18) 0.9698(2) 0.94198(14)
S1_3 S 0.14325(12) 0.24263(9) 0.27951(5)
O1_3 O 0.11264(15) 0.36340(17) 0.56081(11)
N1_3 N 0.12704(19) 0.4220(2) 0.43978(13)
N2_3 N 0.1289(2) 0.4166(2) 0.11091(13)
C1_3 C 0.0095(2) 0.2270(2) 0.55310(14)
C5_3 C 0.0654(2) 0.0560(3) 0.57997(16)
C6_3 C 0.0810(2) 0.1580(2) 0.57190(15)
H3_3 H 0.1403 0.1807 0.5792
C7_3 C 0.0308(2) 0.3364(2) 0.54535(13)
H5_3 H 0.1950 0.0079 0.5906
C10_3 C 0.1588(2) 0.3266(3) 0.44218(16)
H7_3 H 0.1779 0.2950 0.4789
C11_3 C 0.1646(3) 0.2729(3) 0.39379(17)
H8_3 H 0.1870 0.2071 0.3978
C12_3 C 0.1362(3) 0.3194(3) 0.33855(16)
C13_3 C 0.1009(3) 0.4170(3) 0.33504(17)
H9_3 H 0.0792 0.4497 0.2988
C14_3 C 0.0990(2) 0.4639(3) 0.38637(16)
H10_3 H 0.0766 0.5296 0.3836
C15_3 C 0.1614(3) 0.4624(3) 0.16338(17)
H11_3 H 0.1822 0.5285 0.1639
C16_3 C 0.1662(3) 0.4176(3) 0.21680(18)
H12_3 H 0.1913 0.4520 0.2522
C17_3 C 0.1325(3) 0.3197(3) 0.21655(17)
C18_3 C 0.0964(3) 0.2734(3) 0.16272(18)
H13_3 H 0.0721 0.2087 0.1608
C19_3 C 0.0964(3) 0.3223(3) 0.11199(17)
H14_3 H 0.0726 0.2887 0.0762
Mn4_2 Mn 0.13749(3) 0.49288(3) 0.02568(2)
O5_3 O 0.03364(17) 0.60428(18) 0.47637(12)
N3_3 N 0.1289(2) 0.5834(2) 0.61091(13)
O2_3 O 0.96636(17) 0.39572(18) 0.52363(12)
C2_3 C 0.9204(2) 0.1934(2) 0.54178(14)
H1_3 H 0.8723 0.2384 0.5284
C3_3 C 0.9036(2) 0.0916(2) 0.55062(15)
C4_3 C 0.9758(2) 0.0241(3) 0.56931(17)
C8_3 C 0.8076(2) 0.0556(3) 0.54104(16)
Mn2_2 Mn 0.86251(3) 0.49288(3) 0.47432(2)
H2_3 H 0.9641 0.9564 0.5748
O2_4 O 0.03364(17) 0.39572(18) 0.97637(12)
C2_4 C 0.0796(2) 0.1934(2) 0.95822(14)
H1_4 H 0.1277 0.2384 0.9716
C3_4 C 0.0964(2) 0.0916(2) 0.94938(15)
C4_4 C 0.0242(2) 0.0241(3) 0.93069(17)
C8_4 C 0.1924(2) 0.0556(3) 0.95896(16)
H2_4 H 0.0359 0.9564 0.9252
S1_4 S 0.85675(12) 0.24263(9) 0.22049(5)
N1_4 N 0.87296(19) 0.4220(2) 0.06022(13)
N2_4 N 0.8711(2) 0.4166(2) 0.38909(13)
C10_4 C 0.8412(2) 0.3266(3) 0.05782(16)
H7_4 H 0.8221 0.2950 0.0211
C11_4 C 0.8354(3) 0.2729(3) 0.10621(17)
H8_4 H 0.8130 0.2071 0.1022
C12_4 C 0.8638(3) 0.3194(3) 0.16145(16)
C13_4 C 0.8991(3) 0.4170(3) 0.16496(17)
H9_4 H 0.9208 0.4497 0.2012
C14_4 C 0.9010(2) 0.4639(3) 0.11363(16)
H10_4 H 0.9234 0.5296 0.1164
C15_4 C 0.8386(3) 0.4624(3) 0.33662(17)
H11_4 H 0.8178 0.5285 0.3361
C16_4 C 0.8338(3) 0.4176(3) 0.28320(18)
H12_4 H 0.8087 0.4520 0.2478
C17_4 C 0.8675(3) 0.3197(3) 0.28345(17)
C18_4 C 0.9036(3) 0.2734(3) 0.33728(18)
H13_4 H 0.9279 0.2087 0.3392
C19_4 C 0.9036(3) 0.3223(3) 0.38801(17)
H14_4 H 0.9274 0.2887 0.4238
O5_4 O 0.96636(17) 0.60428(18) 0.02363(12)
O1_4 O 0.88736(15) 0.36340(17) 0.93919(11)
C1_4 C 0.9905(2) 0.2270(2) 0.94690(14)
C5_4 C 0.9346(2) 0.0560(3) 0.92003(16)
C6_4 C 0.9190(2) 0.1580(2) 0.92810(15)
H3_4 H 0.8597 0.1807 0.9208
C7_4 C 0.9692(2) 0.3364(2) 0.95465(13)
H5_4 H 0.8050 0.0079 0.9094
N3_4 N 0.8711(2) 0.5834(2) 0.88909(13)
S1_5 S 0.35675(12) 0.25737(9) 0.72049(5)
O1_5 O 0.38736(15) 0.13660(17) 0.43919(11)
O3_3 O 0.75700(16) 0.3856(2) 0.48329(14)
O4_3 O 0.70727(18) 0.5302(2) 0.44198(14)
N1_5 N 0.37296(19) 0.0780(2) 0.56022(13)
C1_5 C 0.4905(2) 0.2730(2) 0.44690(14)
C2_5 C 0.5796(2) 0.3066(2) 0.45822(14)
H1_5 H 0.6277 0.2616 0.4716
C3_5 C 0.5964(2) 0.4084(2) 0.44938(15)
C4_5 C 0.5242(2) 0.4759(3) 0.43069(17)
H2_5 H 0.5359 0.5436 0.4252
C5_5 C 0.4346(2) 0.4440(3) 0.42003(16)
C6_5 C 0.4190(2) 0.3420(2) 0.42810(15)
H3_5 H 0.3597 0.3193 0.4208
C7_5 C 0.4692(2) 0.1636(2) 0.45465(13)
C8_5 C 0.6924(2) 0.4444(3) 0.45896(16)
C9_3 C 0.3563(3) 0.5169(3) 0.3986(2)
H4_3 H 0.3736 0.5819 0.4164
H5_5 H 0.3050 0.4921 0.4094
H6_3 H 0.3404 0.5231 0.3564
C10_5 C 0.3412(2) 0.1734(3) 0.55782(16)
H7_5 H 0.3221 0.2050 0.5211
C11_5 C 0.3354(3) 0.2271(3) 0.60621(17)
H8_5 H 0.3130 0.2929 0.6022
C12_5 C 0.3638(3) 0.1806(3) 0.66145(16)
C13_5 C 0.3991(3) 0.0830(3) 0.66496(17)
H9_5 H 0.4208 0.0503 0.7012
C14_5 C 0.4010(2) 0.0361(3) 0.61363(16)
C15_5 C 0.3386(3) 0.0376(3) 0.83662(17)
C16_5 C 0.3338(3) 0.0824(3) 0.78320(18)
H12_5 H 0.3087 0.0480 0.7478
C17_5 C 0.3675(3) 0.1803(3) 0.78345(17)
C18_5 C 0.4036(3) 0.2266(3) 0.83728(18)
H13_5 H 0.4279 0.2913 0.8392
C19_5 C 0.4036(3) 0.1777(3) 0.88801(17)
H14_5 H 0.4274 0.2113 0.9238
O7_3 O 0.20727(18) 0.0302(2) 0.44198(14)
H10_5 H 0.4234 0.9704 0.6164
H11_5 H 0.3178 0.9715 0.8361
O6_3 O 0.25700(16) 0.8856(2) 0.48329(14)
O1_6 O 0.61264(15) 0.13660(17) 0.06081(11)
O3_4 O 0.24300(16) 0.3856(2) 0.01671(14)
O4_4 O 0.29273(18) 0.5302(2) 0.05802(14)
C1_6 C 0.5095(2) 0.2730(2) 0.05310(14)
C2_6 C 0.4204(2) 0.3066(2) 0.04178(14)
H1_6 H 0.3723 0.2616 0.0284
C3_6 C 0.4036(2) 0.4084(2) 0.05062(15)
C4_6 C 0.4758(2) 0.4759(3) 0.06931(17)
H2_6 H 0.4641 0.5436 0.0748
C5_6 C 0.5654(2) 0.4440(3) 0.07997(16)
C6_6 C 0.5810(2) 0.3420(2) 0.07190(15)
H3_6 H 0.6403 0.3193 0.0792
C7_6 C 0.5308(2) 0.1636(2) 0.04535(13)
C8_6 C 0.3076(2) 0.4444(3) 0.04104(16)
C9_4 C 0.6437(3) 0.5169(3) 0.1014(2)
H4_4 H 0.6264 0.5819 0.0836
H5_6 H 0.6950 0.4921 0.0906
H6_4 H 0.6596 0.5231 0.1436
O7_4 O 0.79273(18) 0.0302(2) 0.05802(14)
S1_6 S 0.64325(12) 0.25737(9) 0.77951(5)
N1_6 N 0.62704(19) 0.0780(2) 0.93978(13)
C10_6 C 0.6588(2) 0.1734(3) 0.94218(16)
H7_6 H 0.6779 0.2050 0.9789
C11_6 C 0.6646(3) 0.2271(3) 0.89379(17)
H8_6 H 0.6870 0.2929 0.8978
C12_6 C 0.6362(3) 0.1806(3) 0.83855(16)
C13_6 C 0.6009(3) 0.0830(3) 0.83504(17)
H9_6 H 0.5792 0.0503 0.7988
C14_6 C 0.5990(2) 0.0361(3) 0.88637(16)
C15_6 C 0.6614(3) 0.0376(3) 0.66338(17)
C16_6 C 0.6662(3) 0.0824(3) 0.71680(18)
H12_6 H 0.6913 0.0480 0.7522
C17_6 C 0.6325(3) 0.1803(3) 0.71655(17)
C18_6 C 0.5964(3) 0.2266(3) 0.66272(18)
H13_6 H 0.5721 0.2913 0.6608
C19_6 C 0.5964(3) 0.1777(3) 0.61199(17)
H14_6 H 0.5726 0.2113 0.5762
O6_4 O 0.74300(16) 0.8856(2) 0.01671(14)
H10_6 H 0.5766 0.9704 0.8836
H11_6 H 0.6822 0.9715 0.6639
H2_7 H 0.0359 0.0436 0.4252
C2_7 C 0.0796(2) 0.8066(2) 0.45822(14)
H1_7 H 0.1277 0.7616 0.4716
C3_7 C 0.0964(2) 0.9084(2) 0.44938(15)
C4_7 C 0.0242(2) 0.9759(3) 0.43069(17)
C8_7 C 0.1924(2) 0.9444(3) 0.45896(16)
S1_7 S 0.85675(12) 0.75737(9) 0.72049(5)
O1_7 O 0.88736(15) 0.63660(17) 0.43919(11)
N1_7 N 0.87296(19) 0.5780(2) 0.56022(13)
C1_7 C 0.9905(2) 0.7730(2) 0.44690(14)
C5_7 C 0.9346(2) 0.9440(3) 0.42003(16)
C6_7 C 0.9190(2) 0.8420(2) 0.42810(15)
H3_7 H 0.8597 0.8193 0.4208
C7_7 C 0.9692(2) 0.6636(2) 0.45465(13)
H5_7 H 0.8050 0.9921 0.4094
C10_7 C 0.8412(2) 0.6734(3) 0.55782(16)
H7_7 H 0.8221 0.7050 0.5211
C11_7 C 0.8354(3) 0.7271(3) 0.60621(17)
H8_7 H 0.8130 0.7929 0.6022
C12_7 C 0.8638(3) 0.6806(3) 0.66145(16)
C13_7 C 0.8991(3) 0.5830(3) 0.66496(17)
H9_7 H 0.9208 0.5503 0.7012
C14_7 C 0.9010(2) 0.5361(3) 0.61363(16)
H10_7 H 0.9234 0.4704 0.6164
C15_7 C 0.8386(3) 0.5376(3) 0.83662(17)
H11_7 H 0.8178 0.4715 0.8361
C16_7 C 0.8338(3) 0.5824(3) 0.78320(18)
H12_7 H 0.8087 0.5480 0.7478
C17_7 C 0.8675(3) 0.6803(3) 0.78345(17)
C18_7 C 0.9036(3) 0.7266(3) 0.83728(18)
H13_7 H 0.9279 0.7913 0.8392
C19_7 C 0.9036(3) 0.6777(3) 0.88801(17)
H14_7 H 0.9274 0.7113 0.9238
O1_8 O 0.11264(15) 0.63660(17) 0.06081(11)
C1_8 C 0.0095(2) 0.7730(2) 0.05310(14)
C5_8 C 0.0654(2) 0.9440(3) 0.07997(16)
C6_8 C 0.0810(2) 0.8420(2) 0.07190(15)
H3_8 H 0.1403 0.8193 0.0792
C7_8 C 0.0308(2) 0.6636(2) 0.04535(13)
H5_8 H 0.1950 0.9921 0.0906
S1_8 S 0.14325(12) 0.75737(9) 0.77951(5)
N1_8 N 0.12704(19) 0.5780(2) 0.93978(13)
C10_8 C 0.1588(2) 0.6734(3) 0.94218(16)
H7_8 H 0.1779 0.7050 0.9789
C11_8 C 0.1646(3) 0.7271(3) 0.89379(17)
H8_8 H 0.1870 0.7929 0.8978
C12_8 C 0.1362(3) 0.6806(3) 0.83855(16)
C13_8 C 0.1009(3) 0.5830(3) 0.83504(17)
H9_8 H 0.0792 0.5503 0.7988
C14_8 C 0.0990(2) 0.5361(3) 0.88637(16)
H10_8 H 0.0766 0.4704 0.8836
C15_8 C 0.1614(3) 0.5376(3) 0.66338(17)
H11_8 H 0.1822 0.4715 0.6639
C16_8 C 0.1662(3) 0.5824(3) 0.71680(18)
H12_8 H 0.1913 0.5480 0.7522
C17_8 C 0.1325(3) 0.6803(3) 0.71655(17)
C18_8 C 0.0964(3) 0.7266(3) 0.66272(18)
H13_8 H 0.0721 0.7913 0.6608
C19_8 C 0.0964(3) 0.6777(3) 0.61199(17)
H14_8 H 0.0726 0.7113 0.5762
H2_8 H 0.9641 0.0436 0.0748
C2_8 C 0.9204(2) 0.8066(2) 0.04178(14)
H1_8 H 0.8723 0.7616 0.0284
C3_8 C 0.9036(2) 0.9084(2) 0.05062(15)
C4_8 C 0.9758(2) 0.9759(3) 0.06931(17)
C8_8 C 0.8076(2) 0.9444(3) 0.04104(16)
C9_5 C 0.1437(3) 0.9831(3) 0.6014(2)
H4_5 H 0.1264 0.9181 0.5836
H6_5 H 0.1596 0.9769 0.6436
C9_6 C 0.8563(3) 0.9831(3) 0.8986(2)
H4_6 H 0.8736 0.9181 0.9164
H6_6 H 0.8404 0.9769 0.8564
C9_7 C 0.8563(3) 0.0169(3) 0.3986(2)
H4_7 H 0.8736 0.0819 0.4164
H6_7 H 0.8404 0.0231 0.3564
C9_8 C 0.1437(3) 0.0169(3) 0.1014(2)
H4_8 H 0.1264 0.0819 0.0836
H6_8 H 0.1596 0.0231 0.1436
loop_
_geom_bond_atom_site_label_1
_geom_bond_atom_site_label_2
_geom_bond_site_symmetry_1
_geom_bond_site_symmetry_2
O5 Mn1 1_555 1_555
O6 Mn1 1_555 1_555
N3 Mn1 1_555 1_555
S1 C12 1_555 1_555
O1 C7 1_555 1_555
O2 C7 1_555 1_555
O3 C8 1_555 1_555
O4 C8 1_555 1_555
N2 C15 1_555 1_555
C1 C2 1_555 1_555
C2 H1 1_555 1_555
C3 C2 1_555 1_555
C4 C3 1_555 1_555
H2 C4 1_555 1_555
C5 C4 1_555 1_555
C6 C1 1_555 1_555
H3 C6 1_555 1_555
C7 C1 1_555 1_555
C8 C3 1_555 1_555
C9 C5 1_555 1_555
H4 C9 1_555 1_555
H5 C9 1_555 1_555
H6 C9 1_555 1_555
C10 N1 1_555 1_555
H7 C10 1_555 1_555
C11 C10 1_555 1_555
H8 C11 1_555 1_555
C12 C11 1_555 1_555
C13 C12 1_555 1_555
H9 C13 1_555 1_555
C14 N1 1_555 1_555
C16 C15 1_555 1_555
H12 C16 1_555 1_555
C17 S1 1_555 1_555
C18 C17 1_555 1_555
H13 C18 1_555 1_555
C19 N2 1_555 1_555
H14 C19 1_555 1_555
Mn2 O2 1_555 1_555
Mn3 O3 1_555 1_555
Mn4 N2 1_555 1_555
O4 Mn3 1_555 1_555
C5 C6 1_555 1_555
C13 C14 1_555 1_555
C16 C17 1_555 1_555
C18 C19 1_555 1_555
O6_2 Mn1_2 1_555 1_555
N3_2 Mn1_2 1_555 1_555
S1_2 C12_2 1_555 1_555
N2_2 C15_2 1_555 1_555
C10_2 N1_2 1_555 1_555
H7_2 C10_2 1_555 1_555
C11_2 C10_2 1_555 1_555
H8_2 C11_2 1_555 1_555
C12_2 C11_2 1_555 1_555
C13_2 C12_2 1_555 1_555
H9_2 C13_2 1_555 1_555
C14_2 N1_2 1_555 1_555
C16_2 C15_2 1_555 1_555
H12_2 C16_2 1_555 1_555
C17_2 S1_2 1_555 1_555
C18_2 C17_2 1_555 1_555
H13_2 C18_2 1_555 1_555
C19_2 N2_2 1_555 1_555
H14_2 C19_2 1_555 1_555
Mn2 N2_2 1_555 1_555
C13_2 C14_2 1_555 1_555
C16_2 C17_2 1_555 1_555
C18_2 C19_2 1_555 1_555
O1_2 C7_2 1_555 1_555
O2_2 C7_2 1_555 1_555
O3_2 C8_2 1_555 1_555
O4_2 C8_2 1_555 1_555
C1_2 C2_2 1_555 1_555
C2_2 H1_2 1_555 1_555
C3_2 C2_2 1_555 1_555
C4_2 C3_2 1_555 1_555
H2_2 C4_2 1_555 1_555
C5_2 C4_2 1_555 1_555
C6_2 C1_2 1_555 1_555
H3_2 C6_2 1_555 1_555
C7_2 C1_2 1_555 1_555
C8_2 C3_2 1_555 1_555
C9_2 C5_2 1_555 1_555
H4_2 C9_2 1_555 1_555
H5_2 C9_2 1_555 1_555
H6_2 C9_2 1_555 1_555
Mn3_2 O3_2 1_555 1_555
O4_2 Mn3_2 1_555 1_555
C5_2 C6_2 1_555 1_555
Mn3 O1_3 1_555 1_555
S1_3 C12_3 1_555 1_555
O1_3 C7_3 1_555 1_555
N1_3 Mn3 1_555 1_555
N2_3 C15_3 1_555 1_555
C6_3 C1_3 1_555 1_555
H3_3 C6_3 1_555 1_555
C7_3 C1_3 1_555 1_555
C10_3 N1_3 1_555 1_555
H7_3 C10_3 1_555 1_555
C11_3 C10_3 1_555 1_555
H8_3 C11_3 1_555 1_555
C12_3 C11_3 1_555 1_555
C13_3 C12_3 1_555 1_555
H9_3 C13_3 1_555 1_555
C14_3 N1_3 1_555 1_555
H10_3 C14_3 1_555 1_555
C15_3 H11_3 1_555 1_555
C16_3 C15_3 1_555 1_555
H12_3 C16_3 1_555 1_555
C17_3 S1_3 1_555 1_555
C18_3 C17_3 1_555 1_555
H13_3 C18_3 1_555 1_555
C19_3 N2_3 1_555 1_555
H14_3 C19_3 1_555 1_555
Mn4_2 N2_3 1_555 1_555
O5_3 Mn3 1_555 1_555
N3_3 Mn3 1_555 1_555
C5_3 C6_3 1_555 1_555
C13_3 C14_3 1_555 1_555
C16_3 C17_3 1_555 1_555
C18_3 C19_3 1_555 1_555
O6 C8_3 1_555 1_555
C2_3 H1_3 1_555 1_555
C3_3 C2_3 1_555 1_555
C4_3 C3_3 1_555 1_555
C8_3 C3_3 1_555 1_555
Mn2_2 O2_3 1_555 1_555
O6_2 C8_4 1_555 1_555
C2_4 H1_4 1_555 1_555
C3_4 C2_4 1_555 1_555
C4_4 C3_4 1_555 1_555
C8_4 C3_4 1_555 1_555
S1_4 C12_4 1_555 1_555
N2_4 C15_4 1_555 1_555
C10_4 N1_4 1_555 1_555
H7_4 C10_4 1_555 1_555
C11_4 C10_4 1_555 1_555
H8_4 C11_4 1_555 1_555
C12_4 C11_4 1_555 1_555
C13_4 C12_4 1_555 1_555
H9_4 C13_4 1_555 1_555
C14_4 N1_4 1_555 1_555
H10_4 C14_4 1_555 1_555
C15_4 H11_4 1_555 1_555
C16_4 C15_4 1_555 1_555
H12_4 C16_4 1_555 1_555
C17_4 S1_4 1_555 1_555
C18_4 C17_4 1_555 1_555
H13_4 C18_4 1_555 1_555
C19_4 N2_4 1_555 1_555
H14_4 C19_4 1_555 1_555
Mn2_2 N2_4 1_555 1_555
C13_4 C14_4 1_555 1_555
C16_4 C17_4 1_555 1_555
C18_4 C19_4 1_555 1_555
Mn3_2 O1_4 1_555 1_555
O1_4 C7_4 1_555 1_555
C6_4 C1_4 1_555 1_555
H3_4 C6_4 1_555 1_555
C7_4 C1_4 1_555 1_555
N3_4 Mn3_2 1_555 1_555
C5_4 C6_4 1_555 1_555
S1_5 C12_5 1_555 1_555
O1_5 C7_5 1_555 1_555
O5 C7_5 1_555 1_555
O3_3 C8_5 1_555 1_555
O4_3 C8_5 1_555 1_555
N3_2 C15_5 1_555 1_555
C1_5 C2_5 1_555 1_555
C2_5 H1_5 1_555 1_555
C3_5 C2_5 1_555 1_555
C4_5 C3_5 1_555 1_555
H2_5 C4_5 1_555 1_555
C5_5 C4_5 1_555 1_555
C6_5 C1_5 1_555 1_555
H3_5 C6_5 1_555 1_555
C7_5 C1_5 1_555 1_555
C8_5 C3_5 1_555 1_555
C9_3 C5_5 1_555 1_555
H4_3 C9_3 1_555 1_555
H5_5 C9_3 1_555 1_555
H6_3 C9_3 1_555 1_555
C10_5 N1_5 1_555 1_555
H7_5 C10_5 1_555 1_555
C11_5 C10_5 1_555 1_555
H8_5 C11_5 1_555 1_555
C12_5 C11_5 1_555 1_555
C13_5 C12_5 1_555 1_555
H9_5 C13_5 1_555 1_555
C14_5 N1_5 1_555 1_555
C16_5 C15_5 1_555 1_555
H12_5 C16_5 1_555 1_555
C17_5 S1_5 1_555 1_555
C18_5 C17_5 1_555 1_555
H13_5 C18_5 1_555 1_555
C19_5 N3_2 1_555 1_555
H14_5 C19_5 1_555 1_555
Mn2_2 O3_3 1_555 1_555
O4_3 Mn2_2 1_555 1_555
C5_5 C6_5 1_555 1_555
C13_5 C14_5 1_555 1_555
C16_5 C17_5 1_555 1_555
C18_5 C19_5 1_555 1_555
O6_3 Mn2 1_555 1_555
O1_6 C7_6 1_555 1_555
O5_2 C7_6 1_555 1_555
O3_4 C8_6 1_555 1_555
O4_4 C8_6 1_555 1_555
C1_6 C2_6 1_555 1_555
C2_6 H1_6 1_555 1_555
C3_6 C2_6 1_555 1_555
C4_6 C3_6 1_555 1_555
H2_6 C4_6 1_555 1_555
C5_6 C4_6 1_555 1_555
C6_6 C1_6 1_555 1_555
H3_6 C6_6 1_555 1_555
C7_6 C1_6 1_555 1_555
C8_6 C3_6 1_555 1_555
C9_4 C5_6 1_555 1_555
H4_4 C9_4 1_555 1_555
H5_6 C9_4 1_555 1_555
H6_4 C9_4 1_555 1_555
Mn4_2 O3_4 1_555 1_555
O4_4 Mn4_2 1_555 1_555
C5_6 C6_6 1_555 1_555
S1_6 C12_6 1_555 1_555
N3 C15_6 1_555 1_555
C10_6 N1_6 1_555 1_555
H7_6 C10_6 1_555 1_555
C11_6 C10_6 1_555 1_555
H8_6 C11_6 1_555 1_555
C12_6 C11_6 1_555 1_555
C13_6 C12_6 1_555 1_555
H9_6 C13_6 1_555 1_555
C14_6 N1_6 1_555 1_555
C16_6 C15_6 1_555 1_555
H12_6 C16_6 1_555 1_555
C17_6 S1_6 1_555 1_555
C18_6 C17_6 1_555 1_555
H13_6 C18_6 1_555 1_555
C19_6 N3 1_555 1_555
H14_6 C19_6 1_555 1_555
C13_6 C14_6 1_555 1_555
C16_6 C17_6 1_555 1_555
C18_6 C19_6 1_555 1_555
O6_4 Mn4 1_555 1_555
O6_3 C8_7 1_555 1_555
C2_7 H1_7 1_555 1_555
C3_7 C2_7 1_555 1_555
C4_7 C3_7 1_555 1_555
C8_7 C3_7 1_555 1_555
Mn2_2 O1_7 1_555 1_555
S1_7 C12_7 1_555 1_555
O1_7 C7_7 1_555 1_555
N1_7 Mn2_2 1_555 1_555
N3_4 C15_7 1_555 1_555
C6_7 C1_7 1_555 1_555
H3_7 C6_7 1_555 1_555
C7_7 C1_7 1_555 1_555
C10_7 N1_7 1_555 1_555
H7_7 C10_7 1_555 1_555
C11_7 C10_7 1_555 1_555
H8_7 C11_7 1_555 1_555
C12_7 C11_7 1_555 1_555
C13_7 C12_7 1_555 1_555
H9_7 C13_7 1_555 1_555
C14_7 N1_7 1_555 1_555
H10_7 C14_7 1_555 1_555
C15_7 H11_7 1_555 1_555
C16_7 C15_7 1_555 1_555
H12_7 C16_7 1_555 1_555
C17_7 S1_7 1_555 1_555
C18_7 C17_7 1_555 1_555
H13_7 C18_7 1_555 1_555
C19_7 N3_4 1_555 1_555
H14_7 C19_7 1_555 1_555
C5_7 C6_7 1_555 1_555
C13_7 C14_7 1_555 1_555
C16_7 C17_7 1_555 1_555
C18_7 C19_7 1_555 1_555
Mn4_2 O1_8 1_555 1_555
O1_8 C7_8 1_555 1_555
C6_8 C1_8 1_555 1_555
H3_8 C6_8 1_555 1_555
C7_8 C1_8 1_555 1_555
C5_8 C6_8 1_555 1_555
S1_8 C12_8 1_555 1_555
N3_3 C15_8 1_555 1_555
C10_8 N1_8 1_555 1_555
H7_8 C10_8 1_555 1_555
C11_8 C10_8 1_555 1_555
H8_8 C11_8 1_555 1_555
C12_8 C11_8 1_555 1_555
C13_8 C12_8 1_555 1_555
H9_8 C13_8 1_555 1_555
C14_8 N1_8 1_555 1_555
H10_8 C14_8 1_555 1_555
C15_8 H11_8 1_555 1_555
C16_8 C15_8 1_555 1_555
H12_8 C16_8 1_555 1_555
C17_8 S1_8 1_555 1_555
C18_8 C17_8 1_555 1_555
H13_8 C18_8 1_555 1_555
C19_8 N3_3 1_555 1_555
H14_8 C19_8 1_555 1_555
C13_8 C14_8 1_555 1_555
C16_8 C17_8 1_555 1_555
C18_8 C19_8 1_555 1_555
O6_4 C8_8 1_555 1_555
C2_8 H1_8 1_555 1_555
C3_8 C2_8 1_555 1_555
C4_8 C3_8 1_555 1_555
C8_8 C3_8 1_555 1_555
H4_5 C9_5 1_555 1_555
H6_5 C9_5 1_555 1_555
H4_6 C9_6 1_555 1_555
H6_6 C9_6 1_555 1_555
H4_7 C9_7 1_555 1_555
H6_7 C9_7 1_555 1_555
H4_8 C9_8 1_555 1_555
H6_8 C9_8 1_555 1_555

#END
