
###############################################################################
#
# This file contains modified crystal structure data generated from the
# MOF subset of the Cambridge Structural Database (CSD) v543 
# hosted by the Cambridge Crystallographic Data Centre (CCDC).
#
# This work is licensed under the Creative Commons
# Attribution-NonCommercial-ShareAlike 4.0 International License.
# To view a copy of this license, visit
# http://creativecommons.org/licenses/by-nc-sa/4.0/
# or send a letter to
# Creative Commons, PO Box 1866, Mountain View, CA 94042, USA.
#
# CIF created using the CSD Python API on 29 September 2022
# The structure has been converted into the P1 space group
# The structure has a 3D framework
# The original CSD entry OHIQEE is in the tetragonal crystal system
# The framework has been calculated to contain at least 10.0% void space
# The void calculation uses a probe of radius 1.32A, grid spacing 0.4
# The framework is charged, counterions have been retained in the structure
#
###############################################################################

data_OHIQEE
_chemical_formula_moiety         '(C288 H224 Mn16 N48 O47)n'
_symmetry_cell_setting           triclinic
_symmetry_space_group_name_H-M   'P 1'
_symmetry_Int_Tables_number      1
_space_group_name_Hall           'P 1'
loop_
_symmetry_equiv_pos_site_id
_symmetry_equiv_pos_as_xyz
1 x,y,z
_cell_length_a                   29.1685(13)
_cell_length_b                   29.1685(13)
_cell_length_c                   8.8458(5)
_cell_angle_alpha                90
_cell_angle_beta                 90
_cell_angle_gamma                90
_cell_volume                     7526.02
loop_
_atom_site_label
_atom_site_type_symbol
_atom_site_fract_x
_atom_site_fract_y
_atom_site_fract_z
C5 C 0.11156(8) 0.23906(8) 0.0455(3)
H2 H 0.1186 0.2478 0.1463
C6 C 0.07107(8) 0.21524(8) 0.0153(3)
H3 H 0.0501 0.2087 0.0946
Mn1 Mn 0.22671(2) 0.28550(2) 0.35967(3)
O1 O 0.17239(5) 0.24923(5) 0.38262(16)
O2 O 0.27948(5) 0.32440(5) 0.37906(16)
O3 O 0.23281(5) 0.27984(5) 0.14672(16)
N1 N 0.22799(6) 0.29427(6) 0.5801(2)
N2 N 0.26288(6) 0.32347(6) 0.6343(2)
N3 N 0.40032(6) 0.42754(6) 0.5876(2)
C1 C 0.14957(7) 0.23722(7) 0.5041(2)
C2 C 0.16069(7) 0.25115(7) 0.6527(2)
C3 C 0.13198(7) 0.23793(7) 0.7786(2)
C4 C 0.14128(7) 0.24989(7) 0.9301(3)
H1 H 0.1688 0.2658 0.9530
C7 C 0.06175(8) 0.20135(8) 0.8711(3)
H4 H 0.0346 0.1843 0.8514
C8 C 0.09181(7) 0.21187(7) 0.7506(3)
C9 C 0.08290(8) 0.19678(8) 0.6004(3)
H5 H 0.0568 0.1781 0.5818
C10 C 0.11060(7) 0.20840(7) 0.4828(3)
H6 H 0.1039 0.1971 0.3846
C11 C 0.19927(7) 0.27940(7) 0.6809(2)
H7 H 0.2046 0.2882 0.7827
C12 C 0.28721(7) 0.33662(7) 0.5191(2)
C13 C 0.32659(7) 0.36782(7) 0.5458(2)
C14 C 0.33227(9) 0.39136(9) 0.6803(3)
H8 H 0.3113 0.3872 0.7612
C15 C 0.36885(9) 0.42092(10) 0.6952(3)
H9 H 0.3719 0.4375 0.7870
C16 C 0.39541(8) 0.40342(8) 0.4609(3)
H10 H 0.4181 0.4065 0.3845
C17 C 0.35894(8) 0.37397(8) 0.4345(3)
H11 H 0.3563 0.3583 0.3408
C18 C 0.25169(8) 0.31732(8) 0.0596(3)
H12 H 0.2284 0.3413 0.0476
H14 H 0.2784 0.3300 0.1124
Mn2 Mn 0.46450(2) 0.47671(2) 0.60967(3)
Mn3 Mn 0.27329(2) 0.21450(2) 0.14033(3)
O4 O 0.26719(5) 0.22016(5) 0.35328(16)
N4 N 0.17754(6) 0.34968(6) 0.3376(2)
N1_2 N 0.27201(6) 0.70573(6) 0.0801(2)
N2_2 N 0.23712(6) 0.67653(6) 0.1343(2)
N3_2 N 0.09968(6) 0.57246(6) 0.0876(2)
C1_2 C 0.35043(7) 0.76278(7) 0.0041(2)
C2_2 C 0.33931(7) 0.74885(7) 0.1527(2)
C3_2 C 0.36802(7) 0.76207(7) 0.2786(2)
C4_2 C 0.35872(7) 0.75011(7) 0.4301(3)
H1_2 H 0.3312 0.7342 0.4530
C5_2 C 0.38844(8) 0.76094(8) 0.5455(3)
H2_2 H 0.3814 0.7522 0.6463
C6_2 C 0.42893(8) 0.78476(8) 0.5153(3)
H3_2 H 0.4499 0.7913 0.5946
C7_2 C 0.43825(8) 0.79865(8) 0.3711(3)
H4_2 H 0.4654 0.8157 0.3514
C8_2 C 0.40819(7) 0.78813(7) 0.2506(3)
C9_2 C 0.41710(8) 0.80322(8) 0.1004(3)
H5_2 H 0.4432 0.8219 0.0818
C11_2 C 0.30073(7) 0.72060(7) 0.1809(2)
H7_2 H 0.2954 0.7118 0.2827
C12_2 C 0.21279(7) 0.66338(7) 0.0191(2)
C13_2 C 0.17341(7) 0.63218(7) 0.0458(2)
C14_2 C 0.16773(9) 0.60864(9) 0.1803(3)
H8_2 H 0.1887 0.6128 0.2612
C15_2 C 0.13115(9) 0.57908(10) 0.1952(3)
H9_2 H 0.1281 0.5625 0.2870
Mn2_2 Mn 0.03550(2) 0.52329(2) 0.10967(3)
Mn1_2 Mn 0.27329(2) 0.71450(2) 0.85967(3)
O1_2 O 0.32761(5) 0.75077(5) 0.88262(16)
O2_2 O 0.22052(5) 0.67560(5) 0.87906(16)
O3_2 O 0.26719(5) 0.72016(5) 0.64672(16)
C10_2 C 0.38940(7) 0.79160(7) 0.9828(3)
H6_2 H 0.3961 0.8029 0.8846
C16_2 C 0.10459(8) 0.59658(8) 0.9609(3)
H10_2 H 0.0819 0.5935 0.8845
C17_2 C 0.14106(8) 0.62603(8) 0.9345(3)
H11_2 H 0.1437 0.6417 0.8408
C18_2 C 0.24831(8) 0.68268(8) 0.5596(3)
H12_2 H 0.2716 0.6587 0.5476
H13 H 0.2390 0.6939 0.4598
H14_2 H 0.2216 0.6700 0.6124
Mn3_2 Mn 0.22671(2) 0.78550(2) 0.64033(3)
O4_2 O 0.23281(5) 0.77984(5) 0.85328(16)
N4_2 N 0.32246(6) 0.65032(6) 0.8376(2)
O1_3 O 0.50077(5) 0.42239(5) 0.63262(16)
O2_3 O 0.42560(5) 0.52948(5) 0.62906(16)
O3_3 O 0.47016(5) 0.48281(5) 0.39672(16)
N1_3 N 0.45573(6) 0.47799(6) 0.8301(2)
N2_3 N 0.42653(6) 0.51288(6) 0.8843(2)
C1_3 C 0.51278(7) 0.39957(7) 0.7541(2)
C2_3 C 0.49885(7) 0.41069(7) 0.9027(2)
C9_3 C 0.55322(8) 0.33290(8) 0.8504(3)
H5_3 H 0.5719 0.3068 0.8318
C10_3 C 0.54160(7) 0.36060(7) 0.7328(3)
H6_3 H 0.5529 0.3539 0.6346
C11_3 C 0.47060(7) 0.44927(7) 0.9309(2)
C12_3 C 0.41338(7) 0.53721(7) 0.7691(2)
C13_3 C 0.38218(7) 0.57659(7) 0.7958(2)
C14_3 C 0.35864(9) 0.58227(9) 0.9303(3)
C15_3 C 0.32908(10) 0.61885(9) 0.9452(3)
C16_3 C 0.34658(8) 0.64541(8) 0.7109(3)
H10_3 H 0.3435 0.6681 0.6345
C17_3 C 0.37603(8) 0.60894(8) 0.6845(3)
H11_3 H 0.3917 0.6063 0.5908
C18_3 C 0.43268(8) 0.50169(8) 0.3096(3)
H12_3 H 0.4087 0.4784 0.2976
H13_2 H 0.4439 0.5110 0.2098
H14_3 H 0.4200 0.5284 0.3624
Mn3_3 Mn 0.53550(2) 0.52329(2) 0.39033(3)
O4_3 O 0.52984(5) 0.51719(5) 0.60328(16)
O2_4 O 0.07440(5) 0.47052(5) 0.12906(16)
N1_4 N 0.04427(6) 0.52201(6) 0.3301(2)
N2_4 N 0.07347(6) 0.48712(6) 0.3843(2)
C2_4 C 0.00115(7) 0.58931(7) 0.4027(2)
H1_3 H 0.0158 0.5812 0.7030
C11_4 C 0.02940(7) 0.55073(7) 0.4309(2)
H7_3 H 0.0382 0.5454 0.5327
C12_4 C 0.08662(7) 0.46279(7) 0.2691(2)
C13_4 C 0.11782(7) 0.42341(7) 0.2958(2)
C14_4 C 0.14136(9) 0.41773(9) 0.4303(3)
H8_3 H 0.1372 0.4387 0.5112
C15_4 C 0.17092(10) 0.38115(9) 0.4452(3)
H9_3 H 0.1875 0.3781 0.5370
C16_4 C 0.15342(8) 0.35459(8) 0.2109(3)
H10_4 H 0.1565 0.3319 0.1345
C17_4 C 0.12397(8) 0.39106(8) 0.1845(3)
H11_4 H 0.1083 0.3937 0.0908
Mn3_4 Mn 0.96450(2) 0.47671(2) 0.89033(3)
Mn1_3 Mn 0.72671(2) 0.78550(2) 0.85967(3)
O1_4 O 0.67239(5) 0.74923(5) 0.88262(16)
O2_5 O 0.77948(5) 0.82440(5) 0.87906(16)
O3_4 O 0.73281(5) 0.77984(5) 0.64672(16)
C10_4 C 0.61060(7) 0.70840(7) 0.9828(3)
H6_4 H 0.6039 0.6971 0.8846
C16_5 C 0.89541(8) 0.90342(8) 0.9609(3)
H10_5 H 0.9181 0.9065 0.8845
C17_5 C 0.85894(8) 0.87397(8) 0.9345(3)
H11_5 H 0.8563 0.8583 0.8408
C18_4 C 0.75169(8) 0.81732(8) 0.5596(3)
H12_4 H 0.7284 0.8413 0.5476
H13_3 H 0.7610 0.8061 0.4598
H14_4 H 0.7784 0.8300 0.6124
Mn3_5 Mn 0.77329(2) 0.71450(2) 0.64033(3)
O4_4 O 0.76719(5) 0.72016(5) 0.85328(16)
N4_3 N 0.67754(6) 0.84968(6) 0.8376(2)
Mn1_4 Mn 0.77329(2) 0.21450(2) 0.35967(3)
O1_5 O 0.82761(5) 0.25077(5) 0.38262(16)
O2_6 O 0.72052(5) 0.17560(5) 0.37906(16)
O3_5 O 0.76719(5) 0.22016(5) 0.14672(16)
N1_5 N 0.77201(6) 0.20573(6) 0.5801(2)
N2_5 N 0.73712(6) 0.17653(6) 0.6343(2)
N3_3 N 0.59968(6) 0.07246(6) 0.5876(2)
C1_4 C 0.85043(7) 0.26278(7) 0.5041(2)
C2_5 C 0.83931(7) 0.24885(7) 0.6527(2)
C3_3 C 0.86802(7) 0.26207(7) 0.7786(2)
C4_3 C 0.85872(7) 0.25011(7) 0.9301(3)
H1_4 H 0.8312 0.2342 0.9530
C7_3 C 0.93825(8) 0.29865(8) 0.8711(3)
H4_3 H 0.9654 0.3157 0.8514
C8_3 C 0.90819(7) 0.28813(7) 0.7506(3)
C9_4 C 0.91710(8) 0.30322(8) 0.6004(3)
H5_4 H 0.9432 0.3219 0.5818
C10_5 C 0.88940(7) 0.29160(7) 0.4828(3)
H6_5 H 0.8961 0.3029 0.3846
C11_5 C 0.80073(7) 0.22060(7) 0.6809(2)
H7_4 H 0.7954 0.2118 0.7827
C12_5 C 0.71279(7) 0.16338(7) 0.5191(2)
C13_5 C 0.67341(7) 0.13218(7) 0.5458(2)
C14_5 C 0.66773(9) 0.10864(9) 0.6803(3)
H8_4 H 0.6887 0.1128 0.7612
C15_5 C 0.63115(9) 0.07908(10) 0.6952(3)
H9_4 H 0.6281 0.0625 0.7870
C16_6 C 0.60459(8) 0.09658(8) 0.4609(3)
H10_6 H 0.5819 0.0935 0.3845
C17_6 C 0.64106(8) 0.12603(8) 0.4345(3)
H11_6 H 0.6437 0.1417 0.3408
C18_5 C 0.74831(8) 0.18268(8) 0.0596(3)
H12_5 H 0.7716 0.1587 0.0476
H14_5 H 0.7216 0.1700 0.1124
Mn2_3 Mn 0.53550(2) 0.02329(2) 0.60967(3)
Mn3_6 Mn 0.72671(2) 0.28550(2) 0.14033(3)
O4_5 O 0.73281(5) 0.27984(5) 0.35328(16)
N4_4 N 0.82246(6) 0.15032(6) 0.3376(2)
O2_7 O 0.92560(5) 0.02948(5) 0.12906(16)
N2_6 N 0.92653(6) 0.01288(6) 0.3843(2)
C12_6 C 0.91338(7) 0.03721(7) 0.2691(2)
C13_6 C 0.88218(7) 0.07659(7) 0.2958(2)
C14_6 C 0.85864(9) 0.08227(9) 0.4303(3)
H8_5 H 0.8628 0.0613 0.5112
C15_6 C 0.82908(10) 0.11885(9) 0.4452(3)
H9_5 H 0.8125 0.1219 0.5370
C16_7 C 0.84658(8) 0.14541(8) 0.2109(3)
H10_7 H 0.8435 0.1681 0.1345
C17_7 C 0.87603(8) 0.10894(8) 0.1845(3)
H11_7 H 0.8917 0.1063 0.0908
O1_6 O 0.49923(5) 0.07761(5) 0.63262(16)
O3_6 O 0.52984(5) 0.01719(5) 0.39672(16)
N1_6 N 0.54427(6) 0.02201(6) 0.8301(2)
C1_5 C 0.48722(7) 0.10043(7) 0.7541(2)
C2_6 C 0.50115(7) 0.08931(7) 0.9027(2)
C9_5 C 0.44678(8) 0.16710(8) 0.8504(3)
H5_5 H 0.4281 0.1932 0.8318
C10_6 C 0.45840(7) 0.13940(7) 0.7328(3)
H6_6 H 0.4471 0.1461 0.6346
C11_6 C 0.52940(7) 0.05073(7) 0.9309(2)
H12_6 H 0.5913 0.0216 0.2976
O2_8 O 0.57440(5) 0.97052(5) 0.62906(16)
N2_7 N 0.57347(6) 0.98712(6) 0.8843(2)
C12_7 C 0.58662(7) 0.96279(7) 0.7691(2)
C13_7 C 0.61782(7) 0.92341(7) 0.7958(2)
C14_7 C 0.64136(9) 0.91773(9) 0.9303(3)
C15_7 C 0.67092(10) 0.88115(9) 0.9452(3)
C16_8 C 0.65342(8) 0.85459(8) 0.7109(3)
H10_8 H 0.6565 0.8319 0.6345
C17_8 C 0.62397(8) 0.89106(8) 0.6845(3)
H11_8 H 0.6083 0.8937 0.5908
C18_6 C 0.56732(8) 0.99831(8) 0.3096(3)
H13_4 H 0.5561 0.9890 0.2098
H14_6 H 0.5800 0.9716 0.3624
Mn3_7 Mn 0.46450(2) 0.97671(2) 0.39033(3)
O4_6 O 0.47016(5) 0.98281(5) 0.60328(16)
O1_7 O 0.82761(5) 0.75077(5) 0.61738(16)
O2_9 O 0.72052(5) 0.67560(5) 0.62094(16)
N1_7 N 0.77201(6) 0.70573(6) 0.4199(2)
N2_8 N 0.73712(6) 0.67653(6) 0.3657(2)
N3_4 N 0.59968(6) 0.57246(6) 0.4124(2)
C1_6 C 0.85043(7) 0.76278(7) 0.4959(2)
C2_7 C 0.83931(7) 0.74885(7) 0.3473(2)
C3_4 C 0.86802(7) 0.76207(7) 0.2214(2)
C4_4 C 0.85872(7) 0.75011(7) 0.0699(3)
H1_5 H 0.8312 0.7342 0.0470
C7_4 C 0.93825(8) 0.79865(8) 0.1289(3)
H4_4 H 0.9654 0.8157 0.1486
C8_4 C 0.90819(7) 0.78813(7) 0.2494(3)
C9_6 C 0.91710(8) 0.80322(8) 0.3996(3)
H5_6 H 0.9432 0.8219 0.4182
C10_7 C 0.88940(7) 0.79160(7) 0.5172(3)
H6_7 H 0.8961 0.8029 0.6154
C11_7 C 0.80073(7) 0.72060(7) 0.3191(2)
H7_5 H 0.7954 0.7118 0.2173
C12_8 C 0.71279(7) 0.66338(7) 0.4809(2)
C13_8 C 0.67341(7) 0.63218(7) 0.4542(2)
C14_8 C 0.66773(9) 0.60864(9) 0.3197(3)
H8_6 H 0.6887 0.6128 0.2388
C15_8 C 0.63115(9) 0.57908(10) 0.3048(3)
H9_6 H 0.6281 0.5625 0.2130
C16_9 C 0.60459(8) 0.59658(8) 0.5391(3)
H10_9 H 0.5819 0.5935 0.6155
C17_9 C 0.64106(8) 0.62603(8) 0.5655(3)
H11_9 H 0.6437 0.6417 0.6592
C18_7 C 0.74831(8) 0.68268(8) 0.9404(3)
H12_7 H 0.7716 0.6587 0.9524
H14_7 H 0.7216 0.6700 0.8876
N4_5 N 0.82246(6) 0.65032(6) 0.6624(2)
O1_8 O 0.67239(5) 0.24923(5) 0.11738(16)
O2_10 O 0.77948(5) 0.32440(5) 0.12094(16)
C10_8 C 0.61060(7) 0.20840(7) 0.0172(3)
H6_8 H 0.6039 0.1971 0.1154
C16_10 C 0.89541(8) 0.40342(8) 0.0391(3)
H10_10 H 0.9181 0.4065 0.1155
C17_10 C 0.85894(8) 0.37397(8) 0.0655(3)
H11_10 H 0.8563 0.3583 0.1592
C18_8 C 0.75169(8) 0.31732(8) 0.4404(3)
H12_8 H 0.7284 0.3413 0.4524
H13_5 H 0.7610 0.3061 0.5402
H14_8 H 0.7784 0.3300 0.3876
N4_6 N 0.67754(6) 0.34968(6) 0.1624(2)
N1_8 N 0.72799(6) 0.29427(6) 0.9199(2)
N2_9 N 0.76288(6) 0.32347(6) 0.8657(2)
N3_5 N 0.90032(6) 0.42754(6) 0.9124(2)
C1_7 C 0.64957(7) 0.23722(7) 0.9959(2)
C2_8 C 0.66069(7) 0.25115(7) 0.8473(2)
C3_5 C 0.63198(7) 0.23793(7) 0.7214(2)
C4_5 C 0.64128(7) 0.24989(7) 0.5699(3)
H1_6 H 0.6688 0.2658 0.5470
C5_3 C 0.61156(8) 0.23906(8) 0.4545(3)
H2_3 H 0.6186 0.2478 0.3537
C6_3 C 0.57107(8) 0.21524(8) 0.4847(3)
H3_3 H 0.5501 0.2087 0.4054
C7_5 C 0.56175(8) 0.20135(8) 0.6289(3)
H4_5 H 0.5346 0.1843 0.6486
C8_5 C 0.59181(7) 0.21187(7) 0.7494(3)
C9_7 C 0.58290(8) 0.19678(8) 0.8996(3)
H5_7 H 0.5568 0.1781 0.9182
C11_8 C 0.69927(7) 0.27940(7) 0.8191(2)
H7_6 H 0.7046 0.2882 0.7173
C12_9 C 0.78721(7) 0.33662(7) 0.9809(2)
C13_9 C 0.82659(7) 0.36782(7) 0.9542(2)
C14_9 C 0.83227(9) 0.39136(9) 0.8197(3)
H8_7 H 0.8113 0.3872 0.7388
C15_9 C 0.86885(9) 0.42092(10) 0.8048(3)
H9_7 H 0.8719 0.4375 0.7130
O1_9 O 0.49923(5) 0.57761(5) 0.36738(16)
O2_11 O 0.57440(5) 0.47052(5) 0.37094(16)
N1_9 N 0.54427(6) 0.52201(6) 0.1699(2)
N2_10 N 0.57347(6) 0.48712(6) 0.1157(2)
C1_8 C 0.48722(7) 0.60043(7) 0.2459(2)
C2_9 C 0.50115(7) 0.58931(7) 0.0973(2)
C9_8 C 0.44678(8) 0.66710(8) 0.1496(3)
H5_8 H 0.4281 0.6932 0.1682
C10_9 C 0.45840(7) 0.63940(7) 0.2672(3)
H6_9 H 0.4471 0.6461 0.3654
C11_9 C 0.52940(7) 0.55073(7) 0.0691(2)
C12_10 C 0.58662(7) 0.46279(7) 0.2309(2)
C13_10 C 0.61782(7) 0.42341(7) 0.2042(2)
C14_10 C 0.64136(9) 0.41773(9) 0.0697(3)
C15_10 C 0.67092(10) 0.38115(9) 0.0548(3)
C16_11 C 0.65342(8) 0.35459(8) 0.2891(3)
H10_11 H 0.6565 0.3319 0.3655
C17_11 C 0.62397(8) 0.39106(8) 0.3155(3)
H11_11 H 0.6083 0.3937 0.4092
C18_9 C 0.56732(8) 0.49831(8) 0.6904(3)
H12_9 H 0.5913 0.5216 0.7024
H13_6 H 0.5561 0.4890 0.7902
H14_9 H 0.5800 0.4716 0.6376
O2_12 O 0.92560(5) 0.52948(5) 0.87094(16)
N1_10 N 0.95573(6) 0.47799(6) 0.6699(2)
N2_11 N 0.92653(6) 0.51288(6) 0.6157(2)
C2_10 C 0.99885(7) 0.41069(7) 0.5973(2)
H1_7 H 0.9842 0.4188 0.2970
C11_10 C 0.97060(7) 0.44927(7) 0.5691(2)
H7_7 H 0.9618 0.4546 0.4673
C12_11 C 0.91338(7) 0.53721(7) 0.7309(2)
C13_11 C 0.88218(7) 0.57659(7) 0.7042(2)
C14_11 C 0.85864(9) 0.58227(9) 0.5697(3)
H8_8 H 0.8628 0.5613 0.4888
C15_11 C 0.82908(10) 0.61885(9) 0.5548(3)
H9_8 H 0.8125 0.6219 0.4630
C16_12 C 0.84658(8) 0.64541(8) 0.7891(3)
H10_12 H 0.8435 0.6681 0.8655
C17_12 C 0.87603(8) 0.60894(8) 0.8155(3)
H11_12 H 0.8917 0.6063 0.9092
O1_10 O 0.32761(5) 0.25077(5) 0.11738(16)
O2_13 O 0.22052(5) 0.17560(5) 0.12094(16)
C10_10 C 0.38940(7) 0.29160(7) 0.0172(3)
H6_10 H 0.3961 0.3029 0.1154
C16_13 C 0.10459(8) 0.09658(8) 0.0391(3)
H10_13 H 0.0819 0.0935 0.1155
C17_13 C 0.14106(8) 0.12603(8) 0.0655(3)
H11_13 H 0.1437 0.1417 0.1592
C18_10 C 0.24831(8) 0.18268(8) 0.4404(3)
H12_10 H 0.2716 0.1587 0.4524
H13_7 H 0.2390 0.1939 0.5402
H14_10 H 0.2216 0.1700 0.3876
N4_7 N 0.32246(6) 0.15032(6) 0.1624(2)
O1_11 O 0.17239(5) 0.74923(5) 0.61738(16)
O2_14 O 0.27948(5) 0.82440(5) 0.62094(16)
N1_11 N 0.22799(6) 0.79427(6) 0.4199(2)
N2_12 N 0.26288(6) 0.82347(6) 0.3657(2)
N3_6 N 0.40032(6) 0.92754(6) 0.4124(2)
C1_9 C 0.14957(7) 0.73722(7) 0.4959(2)
C2_11 C 0.16069(7) 0.75115(7) 0.3473(2)
C3_6 C 0.13198(7) 0.73793(7) 0.2214(2)
C4_6 C 0.14128(7) 0.74989(7) 0.0699(3)
H1_8 H 0.1688 0.7658 0.0470
C7_6 C 0.06175(8) 0.70135(8) 0.1289(3)
H4_6 H 0.0346 0.6843 0.1486
C8_6 C 0.09181(7) 0.71187(7) 0.2494(3)
C9_9 C 0.08290(8) 0.69678(8) 0.3996(3)
H5_9 H 0.0568 0.6781 0.4182
C10_11 C 0.11060(7) 0.70840(7) 0.5172(3)
H6_11 H 0.1039 0.6971 0.6154
C11_11 C 0.19927(7) 0.77940(7) 0.3191(2)
H7_8 H 0.2046 0.7882 0.2173
C12_12 C 0.28721(7) 0.83662(7) 0.4809(2)
C13_12 C 0.32659(7) 0.86782(7) 0.4542(2)
C14_12 C 0.33227(9) 0.89136(9) 0.3197(3)
H8_9 H 0.3113 0.8872 0.2388
C15_12 C 0.36885(9) 0.92092(10) 0.3048(3)
H9_9 H 0.3719 0.9375 0.2130
C16_14 C 0.39541(8) 0.90342(8) 0.5391(3)
H10_14 H 0.4181 0.9065 0.6155
C17_14 C 0.35894(8) 0.87397(8) 0.5655(3)
H11_14 H 0.3563 0.8583 0.6592
C18_11 C 0.25169(8) 0.81732(8) 0.9404(3)
H12_11 H 0.2284 0.8413 0.9524
H14_11 H 0.2784 0.8300 0.8876
N4_8 N 0.17754(6) 0.84968(6) 0.6624(2)
O2_15 O 0.07440(5) 0.97052(5) 0.87094(16)
N2_13 N 0.07347(6) 0.98712(6) 0.6157(2)
C12_13 C 0.08662(7) 0.96279(7) 0.7309(2)
C13_13 C 0.11782(7) 0.92341(7) 0.7042(2)
C14_13 C 0.14136(9) 0.91773(9) 0.5697(3)
H8_10 H 0.1372 0.9387 0.4888
C15_13 C 0.17092(10) 0.88115(9) 0.5548(3)
H9_10 H 0.1875 0.8781 0.4630
C16_15 C 0.15342(8) 0.85459(8) 0.7891(3)
H10_15 H 0.1565 0.8319 0.8655
C17_15 C 0.12397(8) 0.89106(8) 0.8155(3)
H11_15 H 0.1083 0.8937 0.9092
O2_16 O 0.42560(5) 0.02948(5) 0.37094(16)
N2_14 N 0.42653(6) 0.01288(6) 0.1157(2)
C12_14 C 0.41338(7) 0.03721(7) 0.2309(2)
C13_14 C 0.38218(7) 0.07659(7) 0.2042(2)
C14_14 C 0.35864(9) 0.08227(9) 0.0697(3)
C15_14 C 0.32908(10) 0.11885(9) 0.0548(3)
C16_16 C 0.34658(8) 0.14541(8) 0.2891(3)
H10_16 H 0.3435 0.1681 0.3655
C17_16 C 0.37603(8) 0.10894(8) 0.3155(3)
H11_16 H 0.3917 0.1063 0.4092
C18_12 C 0.43268(8) 0.00169(8) 0.6904(3)
H13_8 H 0.4439 0.0110 0.7902
H14_12 H 0.4200 0.0284 0.6376
O1_12 O 0.50077(5) 0.92239(5) 0.36738(16)
N1_12 N 0.45573(6) 0.97799(6) 0.1699(2)
C1_10 C 0.51278(7) 0.89957(7) 0.2459(2)
C2_12 C 0.49885(7) 0.91069(7) 0.0973(2)
C9_10 C 0.55322(8) 0.83290(8) 0.1496(3)
H5_10 H 0.5719 0.8068 0.1682
C10_12 C 0.54160(7) 0.86060(7) 0.2672(3)
H6_12 H 0.5529 0.8539 0.3654
C11_12 C 0.47060(7) 0.94927(7) 0.0691(2)
H12_12 H 0.4087 0.9784 0.7024
H13_9 H 0.2610 0.3061 0.9598
C3_7 C 0.51207(7) 0.38198(7) 0.0286(2)
C4_7 C 0.50011(7) 0.39128(7) 0.1801(3)
H1_9 H 0.4842 0.4188 0.2030
C5_4 C 0.51094(8) 0.36156(8) 0.2955(3)
H2_4 H 0.5022 0.3686 0.3963
C6_4 C 0.53476(8) 0.32107(8) 0.2653(3)
H3_4 H 0.5413 0.3001 0.3446
C7_7 C 0.54865(8) 0.31175(8) 0.1211(3)
H4_7 H 0.5657 0.2846 0.1014
C8_7 C 0.53813(7) 0.34181(7) 0.0006(3)
H7_9 H 0.4618 0.4546 0.0327
H8_11 H 0.3628 0.5613 0.0112
H9_11 H 0.3125 0.6219 0.0370
O3_7 O 0.02984(5) 0.51719(5) 0.89672(16)
C18_13 C 0.06732(8) 0.49831(8) 0.8096(3)
H12_13 H 0.0913 0.5216 0.7976
H13_10 H 0.0561 0.4890 0.7098
H14_13 H 0.0800 0.4716 0.8624
O1_13 O 0.00077(5) 0.42239(5) 0.86738(16)
C1_11 C 0.01278(7) 0.39957(7) 0.7459(2)
C3_8 C 0.01207(7) 0.38198(7) 0.4714(2)
C4_8 C 0.00011(7) 0.39128(7) 0.3199(3)
C5_5 C 0.01094(8) 0.36156(8) 0.2045(3)
H2_5 H 0.0022 0.3686 0.1037
C6_5 C 0.03476(8) 0.32107(8) 0.2347(3)
H3_5 H 0.0413 0.3001 0.1554
C7_8 C 0.04865(8) 0.31175(8) 0.3789(3)
H4_8 H 0.0657 0.2846 0.3986
C8_8 C 0.03813(7) 0.34181(7) 0.4994(3)
C9_11 C 0.05322(8) 0.33290(8) 0.6496(3)
H5_11 H 0.0719 0.3068 0.6682
C10_13 C 0.04160(7) 0.36060(7) 0.7672(3)
H6_13 H 0.0529 0.3539 0.8654
O1_14 O 0.99923(5) 0.57761(5) 0.13262(16)
C1_12 C 0.98722(7) 0.60043(7) 0.2541(2)
C3_9 C 0.98793(7) 0.61802(7) 0.5286(2)
C4_9 C 0.99989(7) 0.60872(7) 0.6801(3)
C5_6 C 0.98906(8) 0.63844(8) 0.7955(3)
H2_6 H 0.9978 0.6314 0.8963
C6_6 C 0.96524(8) 0.67893(8) 0.7653(3)
H3_6 H 0.9587 0.6999 0.8446
C7_9 C 0.95135(8) 0.68825(8) 0.6211(3)
H4_9 H 0.9343 0.7154 0.6014
C8_9 C 0.96187(7) 0.65819(7) 0.5006(3)
C9_12 C 0.94678(8) 0.66710(8) 0.3504(3)
H5_12 H 0.9281 0.6932 0.3318
C10_14 C 0.95840(7) 0.63940(7) 0.2328(3)
H6_14 H 0.9471 0.6461 0.1346
O4_7 O 0.97016(5) 0.48281(5) 0.10328(16)
C18_14 C 0.93268(8) 0.50169(8) 0.1904(3)
H12_14 H 0.9087 0.4784 0.2024
H13_11 H 0.9439 0.5110 0.2902
H14_14 H 0.9200 0.5284 0.1376
N1_13 N 0.72799(6) 0.79427(6) 0.0801(2)
N2_15 N 0.76288(6) 0.82347(6) 0.1343(2)
N3_7 N 0.90032(6) 0.92754(6) 0.0876(2)
C1_13 C 0.64957(7) 0.73722(7) 0.0041(2)
C2_13 C 0.66069(7) 0.75115(7) 0.1527(2)
C3_10 C 0.63198(7) 0.73793(7) 0.2786(2)
C4_10 C 0.64128(7) 0.74989(7) 0.4301(3)
H1_10 H 0.6688 0.7658 0.4530
C5_7 C 0.61156(8) 0.73906(8) 0.5455(3)
H2_7 H 0.6186 0.7478 0.6463
C6_7 C 0.57107(8) 0.71524(8) 0.5153(3)
H3_7 H 0.5501 0.7087 0.5946
C7_10 C 0.56175(8) 0.70135(8) 0.3711(3)
H4_10 H 0.5346 0.6843 0.3514
C8_10 C 0.59181(7) 0.71187(7) 0.2506(3)
C9_13 C 0.58290(8) 0.69678(8) 0.1004(3)
H5_13 H 0.5568 0.6781 0.0818
C11_13 C 0.69927(7) 0.77940(7) 0.1809(2)
H7_10 H 0.7046 0.7882 0.2827
C12_15 C 0.78721(7) 0.83662(7) 0.0191(2)
C13_15 C 0.82659(7) 0.86782(7) 0.0458(2)
C14_15 C 0.83227(9) 0.89136(9) 0.1803(3)
H8_12 H 0.8113 0.8872 0.2612
C15_15 C 0.86885(9) 0.92092(10) 0.1952(3)
H9_12 H 0.8719 0.9375 0.2870
Mn2_4 Mn 0.96450(2) 0.97671(2) 0.10967(3)
N1_14 N 0.95573(6) 0.97799(6) 0.3301(2)
C2_14 C 0.99885(7) 0.91069(7) 0.4027(2)
H1_11 H 0.9842 0.9188 0.7030
C11_14 C 0.97060(7) 0.94927(7) 0.4309(2)
H7_11 H 0.9618 0.9546 0.5327
C5_8 C 0.88844(8) 0.26094(8) 0.0455(3)
H2_8 H 0.8814 0.2522 0.1463
C6_8 C 0.92893(8) 0.28476(8) 0.0153(3)
H3_8 H 0.9499 0.2913 0.0946
H13_12 H 0.7390 0.1939 0.9598
O4_8 O 0.02984(5) 0.01719(5) 0.10328(16)
H12_15 H 0.0913 0.0216 0.2024
Mn3_8 Mn 0.03550(2) 0.02329(2) 0.89033(3)
N1_15 N 0.27201(6) 0.20573(6) 0.9199(2)
N2_16 N 0.23712(6) 0.17653(6) 0.8657(2)
N3_8 N 0.09968(6) 0.07246(6) 0.9124(2)
C1_14 C 0.35043(7) 0.26278(7) 0.9959(2)
C2_15 C 0.33931(7) 0.24885(7) 0.8473(2)
C3_11 C 0.36802(7) 0.26207(7) 0.7214(2)
C4_11 C 0.35872(7) 0.25011(7) 0.5699(3)
H1_12 H 0.3312 0.2342 0.5470
C5_9 C 0.38844(8) 0.26094(8) 0.4545(3)
H2_9 H 0.3814 0.2522 0.3537
C6_9 C 0.42893(8) 0.28476(8) 0.4847(3)
H3_9 H 0.4499 0.2913 0.4054
C7_11 C 0.43825(8) 0.29865(8) 0.6289(3)
H4_11 H 0.4654 0.3157 0.6486
C8_11 C 0.40819(7) 0.28813(7) 0.7494(3)
C9_14 C 0.41710(8) 0.30322(8) 0.8996(3)
H5_14 H 0.4432 0.3219 0.9182
C11_15 C 0.30073(7) 0.22060(7) 0.8191(2)
H7_12 H 0.2954 0.2118 0.7173
C12_16 C 0.21279(7) 0.16338(7) 0.9809(2)
C13_16 C 0.17341(7) 0.13218(7) 0.9542(2)
C14_16 C 0.16773(9) 0.10864(9) 0.8197(3)
H8_13 H 0.1887 0.1128 0.7388
C15_16 C 0.13115(9) 0.07908(10) 0.8048(3)
H9_13 H 0.1281 0.0625 0.7130
N1_16 N 0.04427(6) 0.02201(6) 0.6699(2)
C2_16 C 0.00115(7) 0.08931(7) 0.5973(2)
H1_13 H 0.0158 0.0812 0.2970
C11_16 C 0.02940(7) 0.05073(7) 0.5691(2)
H7_13 H 0.0382 0.0454 0.4673
O1_15 O 0.00077(5) 0.92239(5) 0.13262(16)
C1_15 C 0.01278(7) 0.89957(7) 0.2541(2)
C3_12 C 0.01207(7) 0.88198(7) 0.5286(2)
C4_12 C 0.00011(7) 0.89128(7) 0.6801(3)
C5_10 C 0.01094(8) 0.86156(8) 0.7955(3)
H2_10 H 0.0022 0.8686 0.8963
C6_10 C 0.03476(8) 0.82107(8) 0.7653(3)
H3_10 H 0.0413 0.8001 0.8446
C7_12 C 0.04865(8) 0.81175(8) 0.6211(3)
H4_12 H 0.0657 0.7846 0.6014
C8_12 C 0.03813(7) 0.84181(7) 0.5006(3)
C9_15 C 0.05322(8) 0.83290(8) 0.3504(3)
H5_15 H 0.0719 0.8068 0.3318
C10_15 C 0.04160(7) 0.86060(7) 0.2328(3)
H6_15 H 0.0529 0.8539 0.1346
C18_15 C 0.93268(8) 0.00169(8) 0.8096(3)
H13_13 H 0.9439 0.0110 0.7098
H14_15 H 0.9200 0.0284 0.8624
O3_8 O 0.97016(5) 0.98281(5) 0.89672(16)
H12_16 H 0.9087 0.9784 0.7976
C3_13 C 0.48793(7) 0.11802(7) 0.0286(2)
C4_13 C 0.49989(7) 0.10872(7) 0.1801(3)
H1_14 H 0.5158 0.0812 0.2030
C5_11 C 0.48906(8) 0.13844(8) 0.2955(3)
H2_11 H 0.4978 0.1314 0.3963
C6_11 C 0.46524(8) 0.17893(8) 0.2653(3)
H3_11 H 0.4587 0.1999 0.3446
C7_13 C 0.45135(8) 0.18825(8) 0.1211(3)
H4_13 H 0.4343 0.2154 0.1014
C8_13 C 0.46187(7) 0.15819(7) 0.0006(3)
H7_14 H 0.5382 0.0454 0.0327
H8_14 H 0.6372 0.9387 0.0112
H9_14 H 0.6875 0.8781 0.0370
H13_14 H 0.7390 0.6939 0.0402
C5_12 C 0.88844(8) 0.76094(8) 0.9545(3)
H2_12 H 0.8814 0.7522 0.8537
C6_12 C 0.92893(8) 0.78476(8) 0.9847(3)
H3_12 H 0.9499 0.7913 0.9054
C3_14 C 0.48793(7) 0.61802(7) 0.9714(2)
C4_14 C 0.49989(7) 0.60872(7) 0.8199(3)
H1_15 H 0.5158 0.5812 0.7970
C5_13 C 0.48906(8) 0.63844(8) 0.7045(3)
H2_13 H 0.4978 0.6314 0.6037
C6_13 C 0.46524(8) 0.67893(8) 0.7347(3)
H3_13 H 0.4587 0.6999 0.6554
C7_14 C 0.45135(8) 0.68825(8) 0.8789(3)
H4_14 H 0.4343 0.7154 0.8986
C8_14 C 0.46187(7) 0.65819(7) 0.9994(3)
H7_15 H 0.5382 0.5454 0.9673
H8_15 H 0.6372 0.4387 0.9888
H9_15 H 0.6875 0.3781 0.9630
H13_15 H 0.2610 0.8061 0.0402
C5_14 C 0.11156(8) 0.73906(8) 0.9545(3)
H2_14 H 0.1186 0.7478 0.8537
C6_14 C 0.07107(8) 0.71524(8) 0.9847(3)
H3_14 H 0.0501 0.7087 0.9054
C18_16 C 0.06732(8) 0.99831(8) 0.1904(3)
H13_16 H 0.0561 0.9890 0.2902
H14_16 H 0.0800 0.9716 0.1376
O1_16 O 0.99923(5) 0.07761(5) 0.86738(16)
C1_16 C 0.98722(7) 0.10043(7) 0.7459(2)
C3_15 C 0.98793(7) 0.11802(7) 0.4714(2)
C4_15 C 0.99989(7) 0.10872(7) 0.3199(3)
C5_15 C 0.98906(8) 0.13844(8) 0.2045(3)
H2_15 H 0.9978 0.1314 0.1037
C6_15 C 0.96524(8) 0.17893(8) 0.2347(3)
H3_15 H 0.9587 0.1999 0.1554
C7_15 C 0.95135(8) 0.18825(8) 0.3789(3)
H4_15 H 0.9343 0.2154 0.3986
C8_15 C 0.96187(7) 0.15819(7) 0.4994(3)
C9_16 C 0.94678(8) 0.16710(8) 0.6496(3)
H5_16 H 0.9281 0.1932 0.6682
C10_16 C 0.95840(7) 0.13940(7) 0.7672(3)
H6_16 H 0.9471 0.1461 0.8654
H8_16 H 0.3628 0.0613 0.9888
H9_16 H 0.3125 0.1219 0.9630
C3_16 C 0.51207(7) 0.88198(7) 0.9714(2)
C4_16 C 0.50011(7) 0.89128(7) 0.8199(3)
H1_16 H 0.4842 0.9188 0.7970
C5_16 C 0.51094(8) 0.86156(8) 0.7045(3)
H2_16 H 0.5022 0.8686 0.6037
C6_16 C 0.53476(8) 0.82107(8) 0.7347(3)
H3_16 H 0.5413 0.8001 0.6554
C7_16 C 0.54865(8) 0.81175(8) 0.8789(3)
H4_16 H 0.5657 0.7846 0.8986
C8_16 C 0.53813(7) 0.84181(7) 0.9994(3)
H7_16 H 0.4618 0.9546 0.9673
loop_
_geom_bond_atom_site_label_1
_geom_bond_atom_site_label_2
_geom_bond_site_symmetry_1
_geom_bond_site_symmetry_2
H2 C5 1_555 1_555
C6 C5 1_555 1_555
H3 C6 1_555 1_555
Mn1 O1 1_555 1_555
O1 C1 1_555 1_555
O2 Mn1 1_555 1_555
O3 Mn1 1_555 1_555
N1 Mn1 1_555 1_555
N2 N1 1_555 1_555
N3 C15 1_555 1_555
C1 C2 1_555 1_555
C2 C3 1_555 1_555
C3 C4 1_555 1_555
C4 H1 1_555 1_555
H4 C7 1_555 1_555
C8 C3 1_555 1_555
C9 C8 1_555 1_555
H5 C9 1_555 1_555
C10 C1 1_555 1_555
H6 C10 1_555 1_555
C11 N1 1_555 1_555
H7 C11 1_555 1_555
C12 O2 1_555 1_555
C13 C12 1_555 1_555
C14 C13 1_555 1_555
H8 C14 1_555 1_555
C15 C14 1_555 1_555
H9 C15 1_555 1_555
C16 N3 1_555 1_555
H10 C16 1_555 1_555
C17 C13 1_555 1_555
H11 C17 1_555 1_555
C18 O3 1_555 1_555
H12 C18 1_555 1_555
H14 C18 1_555 1_555
Mn2 N3 1_555 1_555
Mn3 O3 1_555 1_555
O4 Mn1 1_555 1_555
N4 Mn1 1_555 1_555
N2 C12 1_555 1_555
C2 C11 1_555 1_555
C7 C8 1_555 1_555
C9 C10 1_555 1_555
C16 C17 1_555 1_555
Mn3 O4 1_555 1_555
N2_2 N1_2 1_555 1_555
N3_2 C15_2 1_555 1_555
C1_2 C2_2 1_555 1_555
C2_2 C3_2 1_555 1_555
C3_2 C4_2 1_555 1_555
C4_2 H1_2 1_555 1_555
C5_2 C4_2 1_555 1_555
H2_2 C5_2 1_555 1_555
C6_2 C5_2 1_555 1_555
H3_2 C6_2 1_555 1_555
C7_2 C6_2 1_555 1_555
H4_2 C7_2 1_555 1_555
C8_2 C3_2 1_555 1_555
C9_2 C8_2 1_555 1_555
H5_2 C9_2 1_555 1_555
C11_2 N1_2 1_555 1_555
H7_2 C11_2 1_555 1_555
C13_2 C12_2 1_555 1_555
C14_2 C13_2 1_555 1_555
H8_2 C14_2 1_555 1_555
C15_2 C14_2 1_555 1_555
H9_2 C15_2 1_555 1_555
Mn2_2 N3_2 1_555 1_555
N2_2 C12_2 1_555 1_555
C2_2 C11_2 1_555 1_555
C7_2 C8_2 1_555 1_555
Mn1_2 O1_2 1_555 1_555
O2_2 Mn1_2 1_555 1_555
O3_2 Mn1_2 1_555 1_555
H6_2 C10_2 1_555 1_555
H10_2 C16_2 1_555 1_555
H11_2 C17_2 1_555 1_555
C18_2 O3_2 1_555 1_555
H12_2 C18_2 1_555 1_555
H13 C18_2 1_555 1_555
H14_2 C18_2 1_555 1_555
Mn3_2 O3_2 1_555 1_555
O4_2 Mn1_2 1_555 1_555
N4_2 Mn1_2 1_555 1_555
C16_2 C17_2 1_555 1_555
Mn3_2 O4_2 1_555 1_555
Mn2 O1_3 1_555 1_555
O1_3 C1_3 1_555 1_555
O2_3 Mn2 1_555 1_555
O3_3 Mn2 1_555 1_555
N1_3 Mn2 1_555 1_555
N2_3 N1_3 1_555 1_555
N4_2 C15_3 1_555 1_555
C1_3 C2_3 1_555 1_555
H5_3 C9_3 1_555 1_555
C10_3 C1_3 1_555 1_555
H6_3 C10_3 1_555 1_555
C11_3 N1_3 1_555 1_555
C12_3 O2_3 1_555 1_555
C13_3 C12_3 1_555 1_555
C14_3 C13_3 1_555 1_555
C15_3 C14_3 1_555 1_555
C16_3 N4_2 1_555 1_555
H10_3 C16_3 1_555 1_555
C17_3 C13_3 1_555 1_555
H11_3 C17_3 1_555 1_555
C18_3 O3_3 1_555 1_555
H12_3 C18_3 1_555 1_555
H13_2 C18_3 1_555 1_555
H14_3 C18_3 1_555 1_555
Mn3_3 O3_3 1_555 1_555
O4_3 Mn2 1_555 1_555
N2_3 C12_3 1_555 1_555
C2_3 C11_3 1_555 1_555
C9_3 C10_3 1_555 1_555
C16_3 C17_3 1_555 1_555
Mn3_3 O4_3 1_555 1_555
O2_4 Mn2_2 1_555 1_555
N1_4 Mn2_2 1_555 1_555
N2_4 N1_4 1_555 1_555
N4 C15_4 1_555 1_555
C11_4 N1_4 1_555 1_555
H7_3 C11_4 1_555 1_555
C12_4 O2_4 1_555 1_555
C13_4 C12_4 1_555 1_555
C14_4 C13_4 1_555 1_555
H8_3 C14_4 1_555 1_555
C15_4 C14_4 1_555 1_555
H9_3 C15_4 1_555 1_555
C16_4 N4 1_555 1_555
H10_4 C16_4 1_555 1_555
C17_4 C13_4 1_555 1_555
H11_4 C17_4 1_555 1_555
N2_4 C12_4 1_555 1_555
C2_4 C11_4 1_555 1_555
C16_4 C17_4 1_555 1_555
Mn1_3 O1_4 1_555 1_555
O2_5 Mn1_3 1_555 1_555
O3_4 Mn1_3 1_555 1_555
H6_4 C10_4 1_555 1_555
H10_5 C16_5 1_555 1_555
H11_5 C17_5 1_555 1_555
C18_4 O3_4 1_555 1_555
H12_4 C18_4 1_555 1_555
H13_3 C18_4 1_555 1_555
H14_4 C18_4 1_555 1_555
Mn3_5 O3_4 1_555 1_555
O4_4 Mn1_3 1_555 1_555
N4_3 Mn1_3 1_555 1_555
C16_5 C17_5 1_555 1_555
Mn3_5 O4_4 1_555 1_555
Mn1_4 O1_5 1_555 1_555
O1_5 C1_4 1_555 1_555
O2_6 Mn1_4 1_555 1_555
O3_5 Mn1_4 1_555 1_555
N1_5 Mn1_4 1_555 1_555
N2_5 N1_5 1_555 1_555
N3_3 C15_5 1_555 1_555
C1_4 C2_5 1_555 1_555
C2_5 C3_3 1_555 1_555
C3_3 C4_3 1_555 1_555
C4_3 H1_4 1_555 1_555
H4_3 C7_3 1_555 1_555
C8_3 C3_3 1_555 1_555
C9_4 C8_3 1_555 1_555
H5_4 C9_4 1_555 1_555
C10_5 C1_4 1_555 1_555
H6_5 C10_5 1_555 1_555
C11_5 N1_5 1_555 1_555
H7_4 C11_5 1_555 1_555
C12_5 O2_6 1_555 1_555
C13_5 C12_5 1_555 1_555
C14_5 C13_5 1_555 1_555
H8_4 C14_5 1_555 1_555
C15_5 C14_5 1_555 1_555
H9_4 C15_5 1_555 1_555
C16_6 N3_3 1_555 1_555
H10_6 C16_6 1_555 1_555
C17_6 C13_5 1_555 1_555
H11_6 C17_6 1_555 1_555
C18_5 O3_5 1_555 1_555
H12_5 C18_5 1_555 1_555
H14_5 C18_5 1_555 1_555
Mn2_3 N3_3 1_555 1_555
Mn3_6 O3_5 1_555 1_555
O4_5 Mn1_4 1_555 1_555
N4_4 Mn1_4 1_555 1_555
N2_5 C12_5 1_555 1_555
C2_5 C11_5 1_555 1_555
C7_3 C8_3 1_555 1_555
C9_4 C10_5 1_555 1_555
C16_6 C17_6 1_555 1_555
Mn3_6 O4_5 1_555 1_555
N4_4 C15_6 1_555 1_555
C12_6 O2_7 1_555 1_555
C13_6 C12_6 1_555 1_555
C14_6 C13_6 1_555 1_555
H8_5 C14_6 1_555 1_555
C15_6 C14_6 1_555 1_555
H9_5 C15_6 1_555 1_555
C16_7 N4_4 1_555 1_555
H10_7 C16_7 1_555 1_555
C17_7 C13_6 1_555 1_555
H11_7 C17_7 1_555 1_555
N2_6 C12_6 1_555 1_555
C16_7 C17_7 1_555 1_555
Mn2_3 O1_6 1_555 1_555
O1_6 C1_5 1_555 1_555
O3_6 Mn2_3 1_555 1_555
N1_6 Mn2_3 1_555 1_555
C1_5 C2_6 1_555 1_555
H5_5 C9_5 1_555 1_555
C10_6 C1_5 1_555 1_555
H6_6 C10_6 1_555 1_555
C11_6 N1_6 1_555 1_555
C2_6 C11_6 1_555 1_555
C9_5 C10_6 1_555 1_555
N4_3 C15_7 1_555 1_555
C12_7 O2_8 1_555 1_555
C13_7 C12_7 1_555 1_555
C14_7 C13_7 1_555 1_555
C15_7 C14_7 1_555 1_555
C16_8 N4_3 1_555 1_555
H10_8 C16_8 1_555 1_555
C17_8 C13_7 1_555 1_555
H11_8 C17_8 1_555 1_555
H13_4 C18_6 1_555 1_555
H14_6 C18_6 1_555 1_555
N2_7 C12_7 1_555 1_555
C16_8 C17_8 1_555 1_555
Mn3_7 O4_6 1_555 1_555
Mn3_5 O1_7 1_555 1_555
O1_7 C1_6 1_555 1_555
O2_9 Mn3_5 1_555 1_555
N1_7 Mn3_5 1_555 1_555
N2_8 N1_7 1_555 1_555
N3_4 C15_8 1_555 1_555
C1_6 C2_7 1_555 1_555
C2_7 C3_4 1_555 1_555
C3_4 C4_4 1_555 1_555
C4_4 H1_5 1_555 1_555
H4_4 C7_4 1_555 1_555
C8_4 C3_4 1_555 1_555
C9_6 C8_4 1_555 1_555
H5_6 C9_6 1_555 1_555
C10_7 C1_6 1_555 1_555
H6_7 C10_7 1_555 1_555
C11_7 N1_7 1_555 1_555
H7_5 C11_7 1_555 1_555
C12_8 O2_9 1_555 1_555
C13_8 C12_8 1_555 1_555
C14_8 C13_8 1_555 1_555
H8_6 C14_8 1_555 1_555
C15_8 C14_8 1_555 1_555
H9_6 C15_8 1_555 1_555
C16_9 N3_4 1_555 1_555
H10_9 C16_9 1_555 1_555
C17_9 C13_8 1_555 1_555
H11_9 C17_9 1_555 1_555
C18_7 O4_4 1_555 1_555
H12_7 C18_7 1_555 1_555
H14_7 C18_7 1_555 1_555
Mn3_3 N3_4 1_555 1_555
N4_5 Mn3_5 1_555 1_555
N2_8 C12_8 1_555 1_555
C2_7 C11_7 1_555 1_555
C7_4 C8_4 1_555 1_555
C9_6 C10_7 1_555 1_555
C16_9 C17_9 1_555 1_555
Mn3_6 O1_8 1_555 1_555
O2_10 Mn3_6 1_555 1_555
H6_8 C10_8 1_555 1_555
H10_10 C16_10 1_555 1_555
H11_10 C17_10 1_555 1_555
C18_8 O4_5 1_555 1_555
H12_8 C18_8 1_555 1_555
H13_5 C18_8 1_555 1_555
H14_8 C18_8 1_555 1_555
N4_6 Mn3_6 1_555 1_555
C16_10 C17_10 1_555 1_555
N2_9 N1_8 1_555 1_555
N3_5 C15_9 1_555 1_555
C1_7 C2_8 1_555 1_555
C2_8 C3_5 1_555 1_555
C3_5 C4_5 1_555 1_555
C4_5 H1_6 1_555 1_555
C5_3 C4_5 1_555 1_555
H2_3 C5_3 1_555 1_555
C6_3 C5_3 1_555 1_555
H3_3 C6_3 1_555 1_555
C7_5 C6_3 1_555 1_555
H4_5 C7_5 1_555 1_555
C8_5 C3_5 1_555 1_555
C9_7 C8_5 1_555 1_555
H5_7 C9_7 1_555 1_555
C11_8 N1_8 1_555 1_555
H7_6 C11_8 1_555 1_555
C13_9 C12_9 1_555 1_555
C14_9 C13_9 1_555 1_555
H8_7 C14_9 1_555 1_555
C15_9 C14_9 1_555 1_555
H9_7 C15_9 1_555 1_555
Mn3_4 N3_5 1_555 1_555
N2_9 C12_9 1_555 1_555
C2_8 C11_8 1_555 1_555
C7_5 C8_5 1_555 1_555
Mn3_3 O1_9 1_555 1_555
O1_9 C1_8 1_555 1_555
O2_11 Mn3_3 1_555 1_555
N1_9 Mn3_3 1_555 1_555
N2_10 N1_9 1_555 1_555
N4_6 C15_10 1_555 1_555
C1_8 C2_9 1_555 1_555
H5_8 C9_8 1_555 1_555
C10_9 C1_8 1_555 1_555
H6_9 C10_9 1_555 1_555
C11_9 N1_9 1_555 1_555
C12_10 O2_11 1_555 1_555
C13_10 C12_10 1_555 1_555
C14_10 C13_10 1_555 1_555
C15_10 C14_10 1_555 1_555
C16_11 N4_6 1_555 1_555
H10_11 C16_11 1_555 1_555
C17_11 C13_10 1_555 1_555
H11_11 C17_11 1_555 1_555
C18_9 O4_3 1_555 1_555
H12_9 C18_9 1_555 1_555
H13_6 C18_9 1_555 1_555
H14_9 C18_9 1_555 1_555
N2_10 C12_10 1_555 1_555
C2_9 C11_9 1_555 1_555
C9_8 C10_9 1_555 1_555
C16_11 C17_11 1_555 1_555
O2_12 Mn3_4 1_555 1_555
N1_10 Mn3_4 1_555 1_555
N2_11 N1_10 1_555 1_555
N4_5 C15_11 1_555 1_555
C11_10 N1_10 1_555 1_555
H7_7 C11_10 1_555 1_555
C12_11 O2_12 1_555 1_555
C13_11 C12_11 1_555 1_555
C14_11 C13_11 1_555 1_555
H8_8 C14_11 1_555 1_555
C15_11 C14_11 1_555 1_555
H9_8 C15_11 1_555 1_555
C16_12 N4_5 1_555 1_555
H10_12 C16_12 1_555 1_555
C17_12 C13_11 1_555 1_555
H11_12 C17_12 1_555 1_555
N2_11 C12_11 1_555 1_555
C2_10 C11_10 1_555 1_555
C16_12 C17_12 1_555 1_555
Mn3 O1_10 1_555 1_555
O2_13 Mn3 1_555 1_555
H6_10 C10_10 1_555 1_555
H10_13 C16_13 1_555 1_555
H11_13 C17_13 1_555 1_555
C18_10 O4 1_555 1_555
H12_10 C18_10 1_555 1_555
H13_7 C18_10 1_555 1_555
H14_10 C18_10 1_555 1_555
N4_7 Mn3 1_555 1_555
C16_13 C17_13 1_555 1_555
Mn3_2 O1_11 1_555 1_555
O1_11 C1_9 1_555 1_555
O2_14 Mn3_2 1_555 1_555
N1_11 Mn3_2 1_555 1_555
N2_12 N1_11 1_555 1_555
N3_6 C15_12 1_555 1_555
C1_9 C2_11 1_555 1_555
C2_11 C3_6 1_555 1_555
C3_6 C4_6 1_555 1_555
C4_6 H1_8 1_555 1_555
H4_6 C7_6 1_555 1_555
C8_6 C3_6 1_555 1_555
C9_9 C8_6 1_555 1_555
H5_9 C9_9 1_555 1_555
C10_11 C1_9 1_555 1_555
H6_11 C10_11 1_555 1_555
C11_11 N1_11 1_555 1_555
H7_8 C11_11 1_555 1_555
C12_12 O2_14 1_555 1_555
C13_12 C12_12 1_555 1_555
C14_12 C13_12 1_555 1_555
H8_9 C14_12 1_555 1_555
C15_12 C14_12 1_555 1_555
H9_9 C15_12 1_555 1_555
C16_14 N3_6 1_555 1_555
H10_14 C16_14 1_555 1_555
C17_14 C13_12 1_555 1_555
H11_14 C17_14 1_555 1_555
C18_11 O4_2 1_555 1_555
H12_11 C18_11 1_555 1_555
H14_11 C18_11 1_555 1_555
Mn3_7 N3_6 1_555 1_555
N4_8 Mn3_2 1_555 1_555
N2_12 C12_12 1_555 1_555
C2_11 C11_11 1_555 1_555
C7_6 C8_6 1_555 1_555
C9_9 C10_11 1_555 1_555
C16_14 C17_14 1_555 1_555
N4_8 C15_13 1_555 1_555
C12_13 O2_15 1_555 1_555
C13_13 C12_13 1_555 1_555
C14_13 C13_13 1_555 1_555
H8_10 C14_13 1_555 1_555
C15_13 C14_13 1_555 1_555
H9_10 C15_13 1_555 1_555
C16_15 N4_8 1_555 1_555
H10_15 C16_15 1_555 1_555
C17_15 C13_13 1_555 1_555
H11_15 C17_15 1_555 1_555
N2_13 C12_13 1_555 1_555
C16_15 C17_15 1_555 1_555
N4_7 C15_14 1_555 1_555
C12_14 O2_16 1_555 1_555
C13_14 C12_14 1_555 1_555
C14_14 C13_14 1_555 1_555
C15_14 C14_14 1_555 1_555
C16_16 N4_7 1_555 1_555
H10_16 C16_16 1_555 1_555
C17_16 C13_14 1_555 1_555
H11_16 C17_16 1_555 1_555
H13_8 C18_12 1_555 1_555
H14_12 C18_12 1_555 1_555
N2_14 C12_14 1_555 1_555
C16_16 C17_16 1_555 1_555
Mn3_7 O1_12 1_555 1_555
O1_12 C1_10 1_555 1_555
N1_12 Mn3_7 1_555 1_555
C1_10 C2_12 1_555 1_555
H5_10 C9_10 1_555 1_555
C10_12 C1_10 1_555 1_555
H6_12 C10_12 1_555 1_555
C11_12 N1_12 1_555 1_555
C2_12 C11_12 1_555 1_555
C9_10 C10_12 1_555 1_555
C3_7 C4_7 1_555 1_555
C4_7 H1_9 1_555 1_555
C5_4 C4_7 1_555 1_555
H2_4 C5_4 1_555 1_555
C6_4 C5_4 1_555 1_555
H3_4 C6_4 1_555 1_555
C7_7 C6_4 1_555 1_555
H4_7 C7_7 1_555 1_555
C8_7 C3_7 1_555 1_555
C7_7 C8_7 1_555 1_555
C18_13 O3_7 1_555 1_555
H12_13 C18_13 1_555 1_555
H13_10 C18_13 1_555 1_555
H14_13 C18_13 1_555 1_555
O1_13 C1_11 1_555 1_555
C3_8 C4_8 1_555 1_555
C5_5 C4_8 1_555 1_555
H2_5 C5_5 1_555 1_555
C6_5 C5_5 1_555 1_555
H3_5 C6_5 1_555 1_555
C7_8 C6_5 1_555 1_555
H4_8 C7_8 1_555 1_555
C8_8 C3_8 1_555 1_555
C9_11 C8_8 1_555 1_555
H5_11 C9_11 1_555 1_555
C10_13 C1_11 1_555 1_555
H6_13 C10_13 1_555 1_555
C7_8 C8_8 1_555 1_555
C9_11 C10_13 1_555 1_555
O1_14 C1_12 1_555 1_555
C3_9 C4_9 1_555 1_555
C5_6 C4_9 1_555 1_555
H2_6 C5_6 1_555 1_555
C6_6 C5_6 1_555 1_555
H3_6 C6_6 1_555 1_555
C7_9 C6_6 1_555 1_555
H4_9 C7_9 1_555 1_555
C8_9 C3_9 1_555 1_555
C9_12 C8_9 1_555 1_555
H5_12 C9_12 1_555 1_555
C10_14 C1_12 1_555 1_555
H6_14 C10_14 1_555 1_555
C7_9 C8_9 1_555 1_555
C9_12 C10_14 1_555 1_555
C18_14 O4_7 1_555 1_555
H12_14 C18_14 1_555 1_555
H13_11 C18_14 1_555 1_555
H14_14 C18_14 1_555 1_555
N2_15 N1_13 1_555 1_555
N3_7 C15_15 1_555 1_555
C1_13 C2_13 1_555 1_555
C2_13 C3_10 1_555 1_555
C3_10 C4_10 1_555 1_555
C4_10 H1_10 1_555 1_555
C5_7 C4_10 1_555 1_555
H2_7 C5_7 1_555 1_555
C6_7 C5_7 1_555 1_555
H3_7 C6_7 1_555 1_555
C7_10 C6_7 1_555 1_555
H4_10 C7_10 1_555 1_555
C8_10 C3_10 1_555 1_555
C9_13 C8_10 1_555 1_555
H5_13 C9_13 1_555 1_555
C11_13 N1_13 1_555 1_555
H7_10 C11_13 1_555 1_555
C13_15 C12_15 1_555 1_555
C14_15 C13_15 1_555 1_555
H8_12 C14_15 1_555 1_555
C15_15 C14_15 1_555 1_555
H9_12 C15_15 1_555 1_555
Mn2_4 N3_7 1_555 1_555
N2_15 C12_15 1_555 1_555
C2_13 C11_13 1_555 1_555
C7_10 C8_10 1_555 1_555
N1_14 Mn2_4 1_555 1_555
C11_14 N1_14 1_555 1_555
H7_11 C11_14 1_555 1_555
C2_14 C11_14 1_555 1_555
H2_8 C5_8 1_555 1_555
C6_8 C5_8 1_555 1_555
H3_8 C6_8 1_555 1_555
N2_16 N1_15 1_555 1_555
N3_8 C15_16 1_555 1_555
C1_14 C2_15 1_555 1_555
C2_15 C3_11 1_555 1_555
C3_11 C4_11 1_555 1_555
C4_11 H1_12 1_555 1_555
C5_9 C4_11 1_555 1_555
H2_9 C5_9 1_555 1_555
C6_9 C5_9 1_555 1_555
H3_9 C6_9 1_555 1_555
C7_11 C6_9 1_555 1_555
H4_11 C7_11 1_555 1_555
C8_11 C3_11 1_555 1_555
C9_14 C8_11 1_555 1_555
H5_14 C9_14 1_555 1_555
C11_15 N1_15 1_555 1_555
H7_12 C11_15 1_555 1_555
C13_16 C12_16 1_555 1_555
C14_16 C13_16 1_555 1_555
H8_13 C14_16 1_555 1_555
C15_16 C14_16 1_555 1_555
H9_13 C15_16 1_555 1_555
Mn3_8 N3_8 1_555 1_555
N2_16 C12_16 1_555 1_555
C2_15 C11_15 1_555 1_555
C7_11 C8_11 1_555 1_555
N1_16 Mn3_8 1_555 1_555
C11_16 N1_16 1_555 1_555
H7_13 C11_16 1_555 1_555
C2_16 C11_16 1_555 1_555
O1_15 C1_15 1_555 1_555
C3_12 C4_12 1_555 1_555
C5_10 C4_12 1_555 1_555
H2_10 C5_10 1_555 1_555
C6_10 C5_10 1_555 1_555
H3_10 C6_10 1_555 1_555
C7_12 C6_10 1_555 1_555
H4_12 C7_12 1_555 1_555
C8_12 C3_12 1_555 1_555
C9_15 C8_12 1_555 1_555
H5_15 C9_15 1_555 1_555
C10_15 C1_15 1_555 1_555
H6_15 C10_15 1_555 1_555
C7_12 C8_12 1_555 1_555
C9_15 C10_15 1_555 1_555
H13_13 C18_15 1_555 1_555
H14_15 C18_15 1_555 1_555
C3_13 C4_13 1_555 1_555
C4_13 H1_14 1_555 1_555
C5_11 C4_13 1_555 1_555
H2_11 C5_11 1_555 1_555
C6_11 C5_11 1_555 1_555
H3_11 C6_11 1_555 1_555
C7_13 C6_11 1_555 1_555
H4_13 C7_13 1_555 1_555
C8_13 C3_13 1_555 1_555
C7_13 C8_13 1_555 1_555
H2_12 C5_12 1_555 1_555
C6_12 C5_12 1_555 1_555
H3_12 C6_12 1_555 1_555
C3_14 C4_14 1_555 1_555
C4_14 H1_15 1_555 1_555
C5_13 C4_14 1_555 1_555
H2_13 C5_13 1_555 1_555
C6_13 C5_13 1_555 1_555
H3_13 C6_13 1_555 1_555
C7_14 C6_13 1_555 1_555
H4_14 C7_14 1_555 1_555
C8_14 C3_14 1_555 1_555
C7_14 C8_14 1_555 1_555
H2_14 C5_14 1_555 1_555
C6_14 C5_14 1_555 1_555
H3_14 C6_14 1_555 1_555
H13_16 C18_16 1_555 1_555
H14_16 C18_16 1_555 1_555
O1_16 C1_16 1_555 1_555
C3_15 C4_15 1_555 1_555
C5_15 C4_15 1_555 1_555
H2_15 C5_15 1_555 1_555
C6_15 C5_15 1_555 1_555
H3_15 C6_15 1_555 1_555
C7_15 C6_15 1_555 1_555
H4_15 C7_15 1_555 1_555
C8_15 C3_15 1_555 1_555
C9_16 C8_15 1_555 1_555
H5_16 C9_16 1_555 1_555
C10_16 C1_16 1_555 1_555
H6_16 C10_16 1_555 1_555
C7_15 C8_15 1_555 1_555
C9_16 C10_16 1_555 1_555
C3_16 C4_16 1_555 1_555
C4_16 H1_16 1_555 1_555
C5_16 C4_16 1_555 1_555
H2_16 C5_16 1_555 1_555
C6_16 C5_16 1_555 1_555
H3_16 C6_16 1_555 1_555
C7_16 C6_16 1_555 1_555
H4_16 C7_16 1_555 1_555
C8_16 C3_16 1_555 1_555
C7_16 C8_16 1_555 1_555

#END
