
###############################################################################
#
# This file contains modified crystal structure data generated from the
# MOF subset of the Cambridge Structural Database (CSD) v543 
# hosted by the Cambridge Crystallographic Data Centre (CCDC).
#
# This work is licensed under the Creative Commons
# Attribution-NonCommercial-ShareAlike 4.0 International License.
# To view a copy of this license, visit
# http://creativecommons.org/licenses/by-nc-sa/4.0/
# or send a letter to
# Creative Commons, PO Box 1866, Mountain View, CA 94042, USA.
#
# CIF created using the CSD Python API on 29 September 2022
# The structure has been converted into the P1 space group
# The structure has a 3D framework
# The original CSD entry OHOFOG is in the trigonal crystal system
# The original CSD entry OHOFOG is in a Sohncke space group
# The framework has been calculated to contain at least 10.0% void space
# The void calculation uses a probe of radius 1.32A, grid spacing 0.4
# H atom positions have been added when not included in the experimental data
#
###############################################################################

data_OHOFOG
_chemical_formula_moiety         '(C60 H84 N24 O18 S6 Zn5)n'
_symmetry_cell_setting           triclinic
_symmetry_space_group_name_H-M   'P 1'
_symmetry_Int_Tables_number      1
_space_group_name_Hall           'P 1'
loop_
_symmetry_equiv_pos_site_id
_symmetry_equiv_pos_as_xyz
1 x,y,z
_cell_length_a                   19.298(4)
_cell_length_b                   19.298(4)
_cell_length_c                   7.967(2)
_cell_angle_alpha                90
_cell_angle_beta                 90
_cell_angle_gamma                120
_cell_volume                     2569.51
loop_
_atom_site_label
_atom_site_type_symbol
_atom_site_fract_x
_atom_site_fract_y
_atom_site_fract_z
Zn2 Zn 0.4616 0.00000(6) 0.5000
Zn1 Zn -0.00000(6) 0.4616 0.5000
S1 S 0.05122(12) 0.43171(11) 0.0834(3)
O1 O 0.0294(2) 0.4710(2) 0.2109(7)
N1 N 0.3403(3) 0.9098(3) 0.5293(9)
N2 N 0.2919(4) 0.9246(4) 0.6354(9)
H1 H 0.3036(52) 0.9756(54) 0.715(13)
N3 N 0.1175(4) 0.5888(4) 0.7302(10)
N4 N 0.0819(3) 0.5786(3) 0.5778(11)
C1 C 0.2997(4) 0.8304(4) 0.5085(12)
C2 C 0.2282(4) 0.7947(4) 0.5967(11)
C3 C 0.2258(4) 0.8572(4) 0.6810(12)
C4 C 0.3307(5) 0.7895(4) 0.3981(13)
H2 H 0.3816(5) 0.8284(4) 0.3526(13)
H3 H 0.2937(5) 0.7629(4) 0.3083(13)
H4 H 0.3370(5) 0.7510(4) 0.4627(13)
C6 C 0.1731(5) 0.6656(4) 0.7600(12)
C7 C 0.1723(5) 0.7082(4) 0.6194(12)
Zn2_2 Zn 0.4616 1.00000(6) 0.5000
N9 N 0.0902(3) 0.4305(4) 0.5293(9)
O6 O 0.0572(3) 0.3652(4) 0.1467(7)
C17 C 0.1160(4) 0.6532(6) 0.5083(13)
C18 C 0.0920(5) 0.6684(6) 0.3382(13)
H18 H 0.0515(5) 0.6187(6) 0.2909(13)
H19 H 0.1378(5) 0.6920(6) 0.2656(13)
H20 H 0.0712(5) 0.7042(6) 0.3497(13)
C19 C 0.2206(5) 0.6912(6) 0.9198(14)
H21 H 0.2054(5) 0.6452(6) 0.9896(14)
H22 H 0.2102(5) 0.7286(6) 0.9779(14)
H23 H 0.2766(5) 0.7160(6) 0.8941(14)
C20 C 0.1671(5) 0.8589(7) 0.7991(13)
H24 H 0.1852(5) 0.9131(7) 0.8324(13)
H25 H 0.1622(5) 0.8274(7) 0.8965(13)
H26 H 0.1160(5) 0.8372(7) 0.7449(13)
H28 H 0.103692 0.543533 0.812401
O7 O 0.1171(3) 0.4862(4) 0.9793(8)
Zn1_2 Zn 1.00000(6) 0.4616 0.5000
O3 O 0.8829(3) 0.3691(3) 0.0207(8)
C5 C 0.8329(5) 0.6918(5) 0.2009(13)
H5 H 0.8148(5) 0.7279(5) 0.1676(13)
H6 H 0.8378(5) 0.6652(5) 0.1035(13)
H7 H 0.8840(5) 0.7212(5) 0.2551(13)
C8 C 0.8840(4) 0.5372(4) 0.4917(13)
C9 C 0.7794(5) 0.4706(4) 0.0802(14)
H8 H 0.7946(5) 0.4398(4) 0.0104(14)
H9 H 0.7898(5) 0.5184(4) 0.0221(14)
H10 H 0.7234(5) 0.4394(4) 0.1059(14)
C10 C 0.9080(5) 0.5764(4) 0.6618(13)
H11 H 0.9485(5) 0.5672(4) 0.7091(13)
H12 H 0.8622(5) 0.5542(4) 0.7344(13)
H13 H 0.9288(5) 0.6330(4) 0.6503(13)
Zn4 Zn 0.5384 0.53840(6) 0.5000
N5 N 0.6597(3) 0.5695(4) 0.4707(9)
N6 N 0.7081(4) 0.6327(6) 0.3646(9)
H14 H 0.6964(52) 0.6720(75) 0.285(13)
C11 C 0.7742(4) 0.6314(6) 0.3190(12)
C12 C 0.7718(4) 0.5665(6) 0.4033(11)
C13 C 0.7003(4) 0.5307(6) 0.4915(12)
C14 C 0.6693(5) 0.4588(6) 0.6019(13)
H15 H 0.6184(5) 0.4468(6) 0.6474(13)
H16 H 0.7063(5) 0.4692(6) 0.6917(13)
H17 H 0.6630(5) 0.4140(6) 0.5373(13)
C15 C 0.8277(5) 0.5359(6) 0.3806(12)
C16 C 0.8269(5) 0.4925(6) 0.2400(12)
N7 N 0.8825(4) 0.4713(6) 0.2698(10)
N8 N 0.9181(3) 0.4967(4) 0.4222(11)
O5 O 0.9706(2) 0.4416(3) 0.7891(7)
N10 N 0.9098(3) 0.3403(3) 0.4707(9)
H27 H 0.896308 0.439841 0.187599
O2 O 0.9428(3) 0.3080(3) 0.8533(7)
S2 S 0.94878(12) 0.38049(16) 0.9166(3)
S1_2 S 0.56829(11) 0.61951(16) 0.0834(3)
O1_2 O 0.5290(2) 0.5584(3) 0.2109(7)
O3_2 O 0.6309(3) 0.5138(4) 0.0207(8)
N2_2 N 0.0754(4) 0.3673(6) 0.6354(9)
H1_2 H 0.0244(54) 0.3280(75) 0.715(13)
N3_2 N 0.4112(4) 0.5287(6) 0.7302(10)
N4_2 N 0.4214(3) 0.5033(4) 0.5778(11)
C1_2 C 0.1696(4) 0.4693(6) 0.5085(12)
C2_2 C 0.2053(4) 0.4335(6) 0.5967(11)
C3_2 C 0.1428(4) 0.3686(6) 0.6810(12)
C4_2 C 0.2105(4) 0.5412(6) 0.3981(13)
H2_2 H 0.1716(4) 0.5532(6) 0.3526(13)
H3_2 H 0.2371(4) 0.5308(6) 0.3083(13)
H4_2 H 0.2490(4) 0.5860(6) 0.4627(13)
C5_2 C 0.3082(5) 0.1411(7) 0.2009(13)
H5_2 H 0.2721(5) 0.0869(7) 0.1676(13)
H6_2 H 0.3348(5) 0.1726(7) 0.1035(13)
H7_2 H 0.2788(5) 0.1628(7) 0.2551(13)
C6_2 C 0.3344(4) 0.5075(6) 0.7600(12)
C7_2 C 0.2918(4) 0.4641(6) 0.6194(12)
C8_2 C 0.4628(4) 0.3468(6) 0.4917(13)
C9_2 C 0.5294(4) 0.3088(6) 0.0802(14)
H8_2 H 0.5602(4) 0.3548(6) 0.0104(14)
H9_2 H 0.4816(4) 0.2714(6) 0.0221(14)
H10_2 H 0.5606(4) 0.2840(6) 0.1059(14)
C10_2 C 0.4236(4) 0.3316(6) 0.6618(13)
H11_2 H 0.4328(4) 0.3813(6) 0.7091(13)
H12_2 H 0.4458(4) 0.3080(6) 0.7344(13)
H13_2 H 0.3670(4) 0.2958(6) 0.6503(13)
N5_2 N 0.4305(4) 0.0902(5) 0.4707(9)
N6_2 N 0.3673(6) 0.0754(7) 0.3646(9)
H14_2 H 0.3280(75) 0.0244(91) 0.285(13)
C11_2 C 0.3686(6) 0.1428(7) 0.3190(12)
C12_2 C 0.4335(6) 0.2053(7) 0.4033(11)
C13_2 C 0.4693(6) 0.1696(7) 0.4915(12)
C14_2 C 0.5412(6) 0.2105(8) 0.6019(13)
H15_2 H 0.5532(6) 0.1716(8) 0.6474(13)
H16_2 H 0.5308(6) 0.2371(8) 0.6917(13)
H17_2 H 0.5860(6) 0.2490(8) 0.5373(13)
C15_2 C 0.4641(6) 0.2918(8) 0.3806(12)
C16_2 C 0.5075(6) 0.3344(8) 0.2400(12)
N7_2 N 0.5287(6) 0.4112(7) 0.2698(10)
N8_2 N 0.5033(4) 0.4214(5) 0.4222(11)
O5_2 O 0.5584(3) 0.5290(4) 0.7891(7)
N9_2 N 0.5695(4) 0.6597(5) 0.5293(9)
O6_2 O 0.6348(4) 0.6920(5) 0.1467(7)
C17_2 C 0.3468(6) 0.4628(7) 0.5083(13)
C18_2 C 0.3316(6) 0.4236(8) 0.3382(13)
H18_2 H 0.3813(6) 0.4328(8) 0.2909(13)
H19_2 H 0.3080(6) 0.4458(8) 0.2656(13)
H20_2 H 0.2958(6) 0.3670(8) 0.3497(13)
C19_2 C 0.3088(6) 0.5294(8) 0.9198(14)
H21_2 H 0.3548(6) 0.5602(8) 0.9896(14)
H22_2 H 0.2714(6) 0.4816(8) 0.9779(14)
H23_2 H 0.2840(6) 0.5606(8) 0.8941(14)
C20_2 C 0.1411(7) 0.3082(9) 0.7991(13)
H24_2 H 0.0869(7) 0.2721(9) 0.8324(13)
H25_2 H 0.1726(7) 0.3348(9) 0.8965(13)
H26_2 H 0.1628(7) 0.2788(9) 0.7449(13)
H27_2 H 0.560159 0.456467 0.187599
H28_2 H 0.456467 0.560159 0.812401
O2_2 O 0.6920(3) 0.6348(4) 0.8533(7)
S2_2 S 0.61951(16) 0.56829(20) 0.9166(3)
O7_2 O 0.5138(4) 0.6309(5) 0.9793(8)
O7_3 O 0.4862(4) 0.1171(3) 0.0207(8)
S1_3 S 0.43171(11) 0.05122(12) 0.9166(3)
O1_3 O 0.4710(2) 0.0294(2) 0.7891(7)
N2_3 N 0.9246(4) 0.2919(4) 0.3646(9)
H1_3 H 0.9756(54) 0.3036(52) 0.285(13)
N3_3 N 0.5888(4) 0.1175(4) 0.2698(10)
N4_3 N 0.5786(3) 0.0819(3) 0.4222(11)
C1_3 C 0.8304(4) 0.2997(4) 0.4915(12)
C2_3 C 0.7947(4) 0.2282(4) 0.4033(11)
C3_3 C 0.8572(4) 0.2258(4) 0.3190(12)
C4_3 C 0.7895(4) 0.3307(5) 0.6019(13)
H2_3 H 0.8284(4) 0.3816(5) 0.6474(13)
H3_3 H 0.7629(4) 0.2937(5) 0.6917(13)
H4_3 H 0.7510(4) 0.3370(5) 0.5373(13)
C6_3 C 0.6656(4) 0.1731(5) 0.2400(12)
C7_3 C 0.7082(4) 0.1723(5) 0.3806(12)
O6_3 O 0.3652(4) 0.0572(3) 0.8533(7)
C17_3 C 0.6532(6) 0.1160(4) 0.4917(13)
C18_3 C 0.6684(6) 0.0920(5) 0.6618(13)
H18_3 H 0.6187(6) 0.0515(5) 0.7091(13)
H19_3 H 0.6920(6) 0.1378(5) 0.7344(13)
H20_3 H 0.7042(6) 0.0712(5) 0.6503(13)
C19_3 C 0.6912(6) 0.2206(5) 0.0802(14)
H21_3 H 0.6452(6) 0.2054(5) 0.0104(14)
H22_3 H 0.7286(6) 0.2102(5) 0.0221(14)
H23_3 H 0.7160(6) 0.2766(5) 0.1059(14)
C20_3 C 0.8589(7) 0.1671(5) 0.2009(13)
H24_3 H 0.9131(7) 0.1852(5) 0.1676(13)
H25_3 H 0.8274(7) 0.1622(5) 0.1035(13)
H26_3 H 0.8372(7) 0.1160(5) 0.2551(13)
H28_3 H 0.543533 0.103692 0.187599
O2_3 O 0.3080(3) 0.9428(3) 0.1467(7)
S2_3 S 0.38049(16) 0.94878(12) 0.0834(3)
O4 O 0.4416(3) 0.9706(2) 0.2109(7)
O3_3 O 0.3691(3) 0.8829(3) 0.9793(8)
C5_3 C 0.6918(5) 0.8329(5) 0.7991(13)
H5_3 H 0.7279(5) 0.8148(5) 0.8324(13)
H6_3 H 0.6652(5) 0.8378(5) 0.8965(13)
H7_3 H 0.7212(5) 0.8840(5) 0.7449(13)
C8_3 C 0.5372(4) 0.8840(4) 0.5083(13)
C9_3 C 0.4706(4) 0.7794(5) 0.9198(14)
H8_3 H 0.4398(4) 0.7946(5) 0.9896(14)
H9_3 H 0.5184(4) 0.7898(5) 0.9779(14)
H10_3 H 0.4394(4) 0.7234(5) 0.8941(14)
C10_3 C 0.5764(4) 0.9080(5) 0.3382(13)
H11_3 H 0.5672(4) 0.9485(5) 0.2909(13)
H12_3 H 0.5542(4) 0.8622(5) 0.2656(13)
H13_3 H 0.6330(4) 0.9288(5) 0.3497(13)
N6_3 N 0.6327(6) 0.7081(4) 0.6354(9)
H14_3 H 0.6720(75) 0.6964(52) 0.715(13)
C11_3 C 0.6314(6) 0.7742(4) 0.6810(12)
C12_3 C 0.5665(6) 0.7718(4) 0.5967(11)
C13_3 C 0.5307(6) 0.7003(4) 0.5085(12)
C14_3 C 0.4588(6) 0.6693(5) 0.3981(13)
H15_3 H 0.4468(6) 0.6184(5) 0.3526(13)
H16_3 H 0.4692(6) 0.7063(5) 0.3083(13)
H17_3 H 0.4140(6) 0.6630(5) 0.4627(13)
C15_3 C 0.5359(6) 0.8277(5) 0.6194(12)
C16_3 C 0.4925(6) 0.8269(5) 0.7600(12)
N7_3 N 0.4713(6) 0.8825(4) 0.7302(10)
N8_3 N 0.4967(4) 0.9181(3) 0.5778(11)
H27_3 H 0.439841 0.896308 0.812401
loop_
_geom_bond_atom_site_label_1
_geom_bond_atom_site_label_2
_geom_bond_site_symmetry_1
_geom_bond_site_symmetry_2
Zn1 O1 1_555 1_555
S1 O1 1_555 1_555
N1 N2 1_555 1_555
N2 H1 1_555 1_555
N3 N4 1_555 1_555
N4 Zn1 1_555 1_555
C1 N1 1_555 1_555
C2 C1 1_555 1_555
C3 N2 1_555 1_555
C4 C1 1_555 1_555
H2 C4 1_555 1_555
H3 C4 1_555 1_555
H4 C4 1_555 1_555
C6 N3 1_555 1_555
C7 C2 1_555 1_555
Zn2_2 N1 1_555 1_555
N9 Zn1 1_555 1_555
O6 S1 1_555 1_555
C17 N4 1_555 1_555
C18 C17 1_555 1_555
H18 C18 1_555 1_555
H19 C18 1_555 1_555
H20 C18 1_555 1_555
C19 C6 1_555 1_555
H21 C19 1_555 1_555
H22 C19 1_555 1_555
H23 C19 1_555 1_555
C20 C3 1_555 1_555
H24 C20 1_555 1_555
H25 C20 1_555 1_555
H26 C20 1_555 1_555
C2 C3 1_555 1_555
C6 C7 1_555 1_555
C7 C17 1_555 1_555
N3 H28 1_555 1_555
C5 H5 1_555 1_555
H6 C5 1_555 1_555
H7 C5 1_555 1_555
C8 C10 1_555 1_555
C9 H8 1_555 1_555
H9 C9 1_555 1_555
H10 C9 1_555 1_555
C10 H11 1_555 1_555
H12 C10 1_555 1_555
H13 C10 1_555 1_555
Zn4 N5 1_555 1_555
N5 N6 1_555 1_555
N6 H14 1_555 1_555
C11 C5 1_555 1_555
C12 C11 1_555 1_555
C13 N5 1_555 1_555
C14 C13 1_555 1_555
H15 C14 1_555 1_555
H16 C14 1_555 1_555
H17 C14 1_555 1_555
C15 C8 1_555 1_555
C16 C9 1_555 1_555
N7 C16 1_555 1_555
N8 Zn1_2 1_555 1_555
O5 Zn1_2 1_555 1_555
N10 Zn1_2 1_555 1_555
C8 N8 1_555 1_555
N6 C11 1_555 1_555
C12 C13 1_555 1_555
C12 C15 1_555 1_555
C15 C16 1_555 1_555
N7 N8 1_555 1_555
N7 H27 1_555 1_555
O2 S2 1_555 1_555
O5 S2 1_555 1_555
Zn4 O1_2 1_555 1_555
S1_2 O1_2 1_555 1_555
N9 N2_2 1_555 1_555
N2_2 H1_2 1_555 1_555
N3_2 N4_2 1_555 1_555
N4_2 Zn4 1_555 1_555
C1_2 N9 1_555 1_555
C2_2 C1_2 1_555 1_555
C3_2 N2_2 1_555 1_555
C4_2 C1_2 1_555 1_555
H2_2 C4_2 1_555 1_555
H3_2 C4_2 1_555 1_555
H4_2 C4_2 1_555 1_555
C5_2 H5_2 1_555 1_555
H6_2 C5_2 1_555 1_555
H7_2 C5_2 1_555 1_555
C6_2 N3_2 1_555 1_555
C7_2 C2_2 1_555 1_555
C8_2 C10_2 1_555 1_555
C9_2 H8_2 1_555 1_555
H9_2 C9_2 1_555 1_555
H10_2 C9_2 1_555 1_555
C10_2 H11_2 1_555 1_555
H12_2 C10_2 1_555 1_555
H13_2 C10_2 1_555 1_555
Zn2 N5_2 1_555 1_555
N5_2 N6_2 1_555 1_555
N6_2 H14_2 1_555 1_555
C11_2 C5_2 1_555 1_555
C12_2 C11_2 1_555 1_555
C13_2 N5_2 1_555 1_555
C14_2 C13_2 1_555 1_555
H15_2 C14_2 1_555 1_555
H16_2 C14_2 1_555 1_555
H17_2 C14_2 1_555 1_555
C15_2 C8_2 1_555 1_555
C16_2 C9_2 1_555 1_555
N7_2 C16_2 1_555 1_555
N8_2 Zn4 1_555 1_555
O5_2 Zn4 1_555 1_555
N9_2 Zn4 1_555 1_555
O6_2 S1_2 1_555 1_555
C17_2 N4_2 1_555 1_555
C18_2 C17_2 1_555 1_555
H18_2 C18_2 1_555 1_555
H19_2 C18_2 1_555 1_555
H20_2 C18_2 1_555 1_555
C19_2 C6_2 1_555 1_555
H21_2 C19_2 1_555 1_555
H22_2 C19_2 1_555 1_555
H23_2 C19_2 1_555 1_555
C20_2 C3_2 1_555 1_555
H24_2 C20_2 1_555 1_555
H25_2 C20_2 1_555 1_555
H26_2 C20_2 1_555 1_555
C2_2 C3_2 1_555 1_555
C6_2 C7_2 1_555 1_555
C7_2 C17_2 1_555 1_555
C8_2 N8_2 1_555 1_555
N6_2 C11_2 1_555 1_555
C12_2 C13_2 1_555 1_555
C12_2 C15_2 1_555 1_555
C15_2 C16_2 1_555 1_555
N7_2 N8_2 1_555 1_555
N7_2 H27_2 1_555 1_555
N3_2 H28_2 1_555 1_555
O2_2 S2_2 1_555 1_555
O5_2 S2_2 1_555 1_555
Zn2 O1_3 1_555 1_555
S1_3 O1_3 1_555 1_555
N10 N2_3 1_555 1_555
N2_3 H1_3 1_555 1_555
N3_3 N4_3 1_555 1_555
N4_3 Zn2 1_555 1_555
C1_3 N10 1_555 1_555
C2_3 C1_3 1_555 1_555
C3_3 N2_3 1_555 1_555
C4_3 C1_3 1_555 1_555
H2_3 C4_3 1_555 1_555
H3_3 C4_3 1_555 1_555
H4_3 C4_3 1_555 1_555
C6_3 N3_3 1_555 1_555
C7_3 C2_3 1_555 1_555
O6_3 S1_3 1_555 1_555
C17_3 N4_3 1_555 1_555
C18_3 C17_3 1_555 1_555
H18_3 C18_3 1_555 1_555
H19_3 C18_3 1_555 1_555
H20_3 C18_3 1_555 1_555
C19_3 C6_3 1_555 1_555
H21_3 C19_3 1_555 1_555
H22_3 C19_3 1_555 1_555
H23_3 C19_3 1_555 1_555
C20_3 C3_3 1_555 1_555
H24_3 C20_3 1_555 1_555
H25_3 C20_3 1_555 1_555
H26_3 C20_3 1_555 1_555
C2_3 C3_3 1_555 1_555
C6_3 C7_3 1_555 1_555
C7_3 C17_3 1_555 1_555
N3_3 H28_3 1_555 1_555
O2_3 S2_3 1_555 1_555
O4 S2_3 1_555 1_555
Zn2_2 O4 1_555 1_555
C5_3 H5_3 1_555 1_555
H6_3 C5_3 1_555 1_555
H7_3 C5_3 1_555 1_555
C8_3 C10_3 1_555 1_555
C9_3 H8_3 1_555 1_555
H9_3 C9_3 1_555 1_555
H10_3 C9_3 1_555 1_555
C10_3 H11_3 1_555 1_555
H12_3 C10_3 1_555 1_555
H13_3 C10_3 1_555 1_555
N9_2 N6_3 1_555 1_555
N6_3 H14_3 1_555 1_555
C11_3 C5_3 1_555 1_555
C12_3 C11_3 1_555 1_555
C13_3 N9_2 1_555 1_555
C14_3 C13_3 1_555 1_555
H15_3 C14_3 1_555 1_555
H16_3 C14_3 1_555 1_555
H17_3 C14_3 1_555 1_555
C15_3 C8_3 1_555 1_555
C16_3 C9_3 1_555 1_555
N7_3 C16_3 1_555 1_555
N8_3 Zn2_2 1_555 1_555
C8_3 N8_3 1_555 1_555
N6_3 C11_3 1_555 1_555
C12_3 C13_3 1_555 1_555
C12_3 C15_3 1_555 1_555
C15_3 C16_3 1_555 1_555
N7_3 N8_3 1_555 1_555
N7_3 H27_3 1_555 1_555

#END
