
###############################################################################
#
# This file contains modified crystal structure data generated from the
# MOF subset of the Cambridge Structural Database (CSD) v543 
# hosted by the Cambridge Crystallographic Data Centre (CCDC).
#
# This work is licensed under the Creative Commons
# Attribution-NonCommercial-ShareAlike 4.0 International License.
# To view a copy of this license, visit
# http://creativecommons.org/licenses/by-nc-sa/4.0/
# or send a letter to
# Creative Commons, PO Box 1866, Mountain View, CA 94042, USA.
#
# CIF created using the CSD Python API on 29 September 2022
# The structure has been converted into the P1 space group
# The structure has a 3D framework
# The original CSD entry OHOLIH is in the monoclinic crystal system
# The framework has been calculated to contain at least 10.0% void space
# The void calculation uses a probe of radius 1.32A, grid spacing 0.4
#
###############################################################################

data_OHOLIH
_chemical_formula_moiety         '(C96 H48 O28 Zn11)n'
_symmetry_cell_setting           triclinic
_symmetry_space_group_name_H-M   'P 1'
_symmetry_Int_Tables_number      1
_space_group_name_Hall           'P 1'
loop_
_symmetry_equiv_pos_site_id
_symmetry_equiv_pos_as_xyz
1 x,y,z
_cell_length_a                   18.000(3)
_cell_length_b                   16.177(3)
_cell_length_c                   10.673(2)
_cell_angle_alpha                90
_cell_angle_beta                 109.770(3)
_cell_angle_gamma                90
_cell_volume                     2924.65
loop_
_atom_site_label
_atom_site_type_symbol
_atom_site_fract_x
_atom_site_fract_y
_atom_site_fract_z
Zn2 Zn 0.0000 0.0000 0.0000
O14 O 0.0924(2) 0.0175(3) 0.1993(5)
Zn1 Zn 0.0000 0.11388(5) 0.7500
Zn2_2 Zn 0.0000 0.0000 1.0000
O1 O 0.0763(2) 0.0398(3) 0.8797(5)
Zn6 Zn 0.0000 0.0000 0.5000
O9 O 0.0666(3) 0.1876(3) 0.6878(6)
Zn2_3 Zn -0.0000 1.0000 0.0000
O3 O 0.4687(3) 0.6217(4) 0.0076(6)
C3 C 0.2102(4) 0.9605(4) 0.0533(7)
H1 H 0.1847 0.9999 0.0892
C4 C 0.2704(4) 0.9172(5) 0.1340(7)
H2 H 0.2861 0.9259 0.2264
C5 C 0.3113(4) 0.8583(5) 0.0829(7)
C11 C 0.4071(5) 0.7490(5) 0.1160(8)
H5 H 0.4443 0.7128 0.1729
C12 C 0.3712(5) 0.8069(5) 0.1693(8)
H6 H 0.3859 0.8128 0.2621
Zn5 Zn 0.5000 0.5000 0.0000
Zn2_4 Zn 0.0000 1.0000 1.0000
O2 O 0.4334(3) 0.6876(3) 0.8122(6)
O4 O 0.0924(2) 0.9825(3) 0.6993(5)
C1 C 0.1122(3) 0.9917(4) 0.8206(7)
C2 C 0.1839(3) 0.9476(4) 0.9113(6)
C6 C 0.2892(3) 0.8472(4) 0.9449(6)
C7 C 0.2234(4) 0.8931(4) 0.8605(7)
H3 H 0.2073 0.8854 0.7678
C8 C 0.3306(4) 0.7889(4) 0.8943(7)
H4 H 0.3169 0.7822 0.8018
C9 C 0.4333(4) 0.6787(4) 0.9271(8)
C10 C 0.3894(4) 0.7426(4) 0.9770(7)
Zn3 Zn 0.5000 0.61388(5) 0.7500
Zn5_2 Zn 0.5000 0.5000 1.0000
Zn6_2 Zn 0.0000 1.0000 0.5000
O12 O 0.0313(3) 0.8783(4) 0.9924(6)
Zn2_5 Zn 1.0000 0.0000 0.0000
O11 O 0.9687(3) 0.1217(4) 0.0076(6)
Zn1_2 Zn 1.0000 0.11388(5) 0.7500
Zn2_6 Zn 1.0000 0.0000 1.0000
Zn6_3 Zn 1.0000 0.0000 0.5000
O5 O 0.9237(2) 0.0398(3) 0.6203(5)
O8 O 0.9334(3) 0.1876(3) 0.8122(6)
Zn2_7 Zn 1.0000 1.0000 0.0000
O6 O 0.9237(2) 0.9602(3) 0.1203(5)
Zn2_8 Zn 1.0000 1.0000 1.0000
Zn6_4 Zn 1.0000 1.0000 0.5000
Zn7 Zn 0.5000 0.5000 0.5000
O7 O 0.5666(3) 0.6876(3) 0.6878(6)
O10 O 0.5313(3) 0.6217(4) 0.4924(6)
O13 O 0.9076(2) 0.9825(3) 0.8007(5)
C13 C 0.8878(3) 0.9917(4) 0.6794(7)
C14 C 0.8161(3) 0.9476(4) 0.5887(6)
C15 C 0.7898(4) 0.9605(4) 0.4467(7)
H7 H 0.8153 0.9999 0.4108
C16 C 0.7296(4) 0.9172(5) 0.3660(7)
H8 H 0.7139 0.9259 0.2736
C17 C 0.6887(4) 0.8583(5) 0.4171(7)
C18 C 0.7108(3) 0.8472(4) 0.5551(6)
C19 C 0.7766(4) 0.8931(4) 0.6395(7)
H9 H 0.7927 0.8854 0.7322
C20 C 0.6694(4) 0.7889(4) 0.6057(7)
H10 H 0.6831 0.7822 0.6982
C21 C 0.5667(4) 0.6787(4) 0.5729(8)
C22 C 0.6106(4) 0.7426(4) 0.5230(7)
C23 C 0.5929(5) 0.7490(5) 0.3840(8)
H11 H 0.5557 0.7128 0.3271
C24 C 0.6288(5) 0.8069(5) 0.3307(8)
H12 H 0.6141 0.8128 0.2379
O11_2 O 0.0313(3) 0.1217(4) 0.4924(6)
O6_2 O 0.0763(2) 0.9602(3) 0.3797(5)
O14_2 O 0.9076(2) 0.0175(3) 0.3007(5)
O12_2 O 0.9687(3) 0.8783(4) 0.5076(6)
C3_2 C 0.7102(4) 0.4605(4) 0.0533(7)
H1_2 H 0.6847 0.4999 0.0892
C4_2 C 0.7704(4) 0.4172(5) 0.1340(7)
H2_2 H 0.7861 0.4259 0.2264
C5_2 C 0.8113(4) 0.3583(5) 0.0829(7)
C11_2 C 0.9071(5) 0.2490(5) 0.1160(8)
H5_2 H 0.9443 0.2128 0.1729
C12_2 C 0.8712(5) 0.3069(5) 0.1693(8)
H6_2 H 0.8859 0.3128 0.2621
O6_3 O 0.4237(2) 0.4602(3) 0.1203(5)
O14_3 O 0.5924(2) 0.5175(3) 0.1993(5)
O1_2 O 0.5763(2) 0.5398(3) 0.8797(5)
O4_2 O 0.5924(2) 0.4825(3) 0.6993(5)
C1_2 C 0.6122(3) 0.4917(4) 0.8206(7)
C2_2 C 0.6839(3) 0.4476(4) 0.9113(6)
C6_2 C 0.7892(3) 0.3472(4) 0.9449(6)
C7_2 C 0.7234(4) 0.3931(4) 0.8605(7)
H3_2 H 0.7073 0.3854 0.7678
C8_2 C 0.8306(4) 0.2889(4) 0.8943(7)
H4_2 H 0.8169 0.2822 0.8018
C9_2 C 0.9333(4) 0.1787(4) 0.9271(8)
C10_2 C 0.8894(4) 0.2426(4) 0.9770(7)
O5_2 O 0.4237(2) 0.5398(3) 0.6203(5)
O12_3 O 0.5313(3) 0.3783(4) 0.9924(6)
O13_2 O 0.4076(2) 0.4825(3) 0.8007(5)
C13_2 C 0.3878(3) 0.4917(4) 0.6794(7)
C14_2 C 0.3161(3) 0.4476(4) 0.5887(6)
C15_2 C 0.2898(4) 0.4605(4) 0.4467(7)
H7_2 H 0.3153 0.4999 0.4108
C16_2 C 0.2296(4) 0.4172(5) 0.3660(7)
H8_2 H 0.2139 0.4259 0.2736
C17_2 C 0.1887(4) 0.3583(5) 0.4171(7)
C18_2 C 0.2108(3) 0.3472(4) 0.5551(6)
C19_2 C 0.2766(4) 0.3931(4) 0.6395(7)
H9_2 H 0.2927 0.3854 0.7322
C20_2 C 0.1694(4) 0.2889(4) 0.6057(7)
H10_2 H 0.1831 0.2822 0.6982
C21_2 C 0.0667(4) 0.1787(4) 0.5729(8)
C22_2 C 0.1106(4) 0.2426(4) 0.5230(7)
C23_2 C 0.0929(5) 0.2490(5) 0.3840(8)
H11_2 H 0.0557 0.2128 0.3271
C24_2 C 0.1288(5) 0.3069(5) 0.3307(8)
H12_2 H 0.1141 0.3128 0.2379
O6_4 O 0.5763(2) 0.4602(3) 0.3797(5)
O12_4 O 0.4687(3) 0.3783(4) 0.5076(6)
O14_4 O 0.4076(2) 0.5175(3) 0.3007(5)
Zn4 Zn 0.5000 0.38612(5) 0.2500
O7_2 O 0.4334(3) 0.3124(3) 0.3122(6)
C13_3 C 0.1122(3) 0.0083(4) 0.3206(7)
C14_3 C 0.1839(3) 0.0524(4) 0.4113(6)
C15_3 C 0.2102(4) 0.0395(4) 0.5533(7)
H7_3 H 0.1847 0.0001 0.5892
C16_3 C 0.2704(4) 0.0828(5) 0.6340(7)
H8_3 H 0.2861 0.0741 0.7264
C17_3 C 0.3113(4) 0.1417(5) 0.5829(7)
C18_3 C 0.2892(3) 0.1528(4) 0.4449(6)
C19_3 C 0.2234(4) 0.1069(4) 0.3605(7)
H9_3 H 0.2073 0.1146 0.2678
C20_3 C 0.3306(4) 0.2111(4) 0.3943(7)
H10_3 H 0.3169 0.2178 0.3018
C21_3 C 0.4333(4) 0.3213(4) 0.4271(8)
C22_3 C 0.3894(4) 0.2574(4) 0.4770(7)
C23_3 C 0.4071(5) 0.2510(5) 0.6160(8)
H11_3 H 0.4443 0.2872 0.6729
C24_3 C 0.3712(5) 0.1931(5) 0.6693(8)
H12_3 H 0.3859 0.1872 0.7621
Zn1_3 Zn 0.0000 0.88612(5) 0.2500
O8_2 O 0.0666(3) 0.8124(3) 0.1878(6)
O2_2 O 0.5666(3) 0.3124(3) 0.1878(6)
C1_3 C 0.8878(3) 0.0083(4) 0.1794(7)
C2_3 C 0.8161(3) 0.0524(4) 0.0887(6)
C6_3 C 0.7108(3) 0.1528(4) 0.0551(6)
C7_3 C 0.7766(4) 0.1069(4) 0.1395(7)
H3_3 H 0.7927 0.1146 0.2322
C8_3 C 0.6694(4) 0.2111(4) 0.1057(7)
H4_3 H 0.6831 0.2178 0.1982
C9_3 C 0.5667(4) 0.3213(4) 0.0729(8)
C10_3 C 0.6106(4) 0.2574(4) 0.0230(7)
C3_3 C 0.7898(4) 0.0395(4) 0.9467(7)
H1_3 H 0.8153 0.0001 0.9108
C4_3 C 0.7296(4) 0.0828(5) 0.8660(7)
H2_3 H 0.7139 0.0741 0.7736
C5_3 C 0.6887(4) 0.1417(5) 0.9171(7)
C11_3 C 0.5929(5) 0.2510(5) 0.8840(8)
H5_3 H 0.5557 0.2872 0.8271
C12_3 C 0.6288(5) 0.1931(5) 0.8307(8)
H6_3 H 0.6141 0.1872 0.7379
Zn1_4 Zn 1.0000 0.88612(5) 0.2500
O9_2 O 0.9334(3) 0.8124(3) 0.3122(6)
C1_4 C 0.3878(3) 0.5083(4) 0.1794(7)
C2_4 C 0.3161(3) 0.5524(4) 0.0887(6)
C6_4 C 0.2108(3) 0.6528(4) 0.0551(6)
C7_4 C 0.2766(4) 0.6069(4) 0.1395(7)
H3_4 H 0.2927 0.6146 0.2322
C8_4 C 0.1694(4) 0.7111(4) 0.1057(7)
H4_4 H 0.1831 0.7178 0.1982
C9_4 C 0.0667(4) 0.8213(4) 0.0729(8)
C10_4 C 0.1106(4) 0.7574(4) 0.0230(7)
C13_4 C 0.6122(3) 0.5083(4) 0.3206(7)
C14_4 C 0.6839(3) 0.5524(4) 0.4113(6)
C15_4 C 0.7102(4) 0.5395(4) 0.5533(7)
H7_4 H 0.6847 0.5001 0.5892
C16_4 C 0.7704(4) 0.5828(5) 0.6340(7)
H8_4 H 0.7861 0.5741 0.7264
C17_4 C 0.8113(4) 0.6417(5) 0.5829(7)
C18_4 C 0.7892(3) 0.6528(4) 0.4449(6)
C19_4 C 0.7234(4) 0.6069(4) 0.3605(7)
H9_4 H 0.7073 0.6146 0.2678
C20_4 C 0.8306(4) 0.7111(4) 0.3943(7)
H10_4 H 0.8169 0.7178 0.3018
C21_4 C 0.9333(4) 0.8213(4) 0.4271(8)
C22_4 C 0.8894(4) 0.7574(4) 0.4770(7)
C23_4 C 0.9071(5) 0.7510(5) 0.6160(8)
H11_4 H 0.9443 0.7872 0.6729
C24_4 C 0.8712(5) 0.6931(5) 0.6693(8)
H12_4 H 0.8859 0.6872 0.7621
C3_4 C 0.2898(4) 0.5395(4) 0.9467(7)
H1_4 H 0.3153 0.5001 0.9108
C4_4 C 0.2296(4) 0.5828(5) 0.8660(7)
H2_4 H 0.2139 0.5741 0.7736
C5_4 C 0.1887(4) 0.6417(5) 0.9171(7)
C11_4 C 0.0929(5) 0.7510(5) 0.8840(8)
H5_4 H 0.0557 0.7872 0.8271
C12_4 C 0.1288(5) 0.6931(5) 0.8307(8)
H6_4 H 0.1141 0.6872 0.7379
loop_
_geom_bond_atom_site_label_1
_geom_bond_atom_site_label_2
_geom_bond_site_symmetry_1
_geom_bond_site_symmetry_2
O14 Zn2 1_555 1_555
Zn1 O1 1_555 1_555
Zn2_2 O1 1_555 1_555
O9 Zn1 1_555 1_555
C3 H1 1_555 1_555
C4 C3 1_555 1_555
H2 C4 1_555 1_555
C5 C4 1_555 1_555
H5 C11 1_555 1_555
C12 C5 1_555 1_555
H6 C12 1_555 1_555
Zn5 O3 1_555 1_555
C11 C12 1_555 1_555
O2 C9 1_555 1_555
O4 C1 1_555 1_555
C1 C2 1_555 1_555
C7 C2 1_555 1_555
H3 C7 1_555 1_555
C8 C6 1_555 1_555
H4 C8 1_555 1_555
C9 C10 1_555 1_555
C10 C8 1_555 1_555
Zn3 O2 1_555 1_555
Zn6_2 O4 1_555 1_555
O12 Zn2_4 1_555 1_555
C6 C7 1_555 1_555
O11 Zn2_5 1_555 1_555
O5 Zn1_2 1_555 1_555
O8 Zn1_2 1_555 1_555
Zn6_3 O5 1_555 1_555
O6 Zn2_7 1_555 1_555
Zn3 O7 1_555 1_555
Zn7 O10 1_555 1_555
O7 C21 1_555 1_555
O10 C21 1_555 1_555
O13 Zn2_8 1_555 1_555
C14 C13 1_555 1_555
C15 C14 1_555 1_555
H7 C15 1_555 1_555
C16 C15 1_555 1_555
H8 C16 1_555 1_555
C17 C16 1_555 1_555
C18 C17 1_555 1_555
C19 C14 1_555 1_555
H9 C19 1_555 1_555
C20 C18 1_555 1_555
H10 C20 1_555 1_555
C21 C22 1_555 1_555
C22 C20 1_555 1_555
C23 C22 1_555 1_555
H11 C23 1_555 1_555
C24 C17 1_555 1_555
H12 C24 1_555 1_555
O13 C13 1_555 1_555
C18 C19 1_555 1_555
C23 C24 1_555 1_555
O11_2 Zn6 1_555 1_555
O6_2 Zn6_2 1_555 1_555
O14_2 Zn6_3 1_555 1_555
O12_2 Zn6_4 1_555 1_555
C3_2 H1_2 1_555 1_555
C4_2 C3_2 1_555 1_555
H2_2 C4_2 1_555 1_555
C5_2 C4_2 1_555 1_555
H5_2 C11_2 1_555 1_555
C12_2 C5_2 1_555 1_555
H6_2 C12_2 1_555 1_555
O6_3 Zn5 1_555 1_555
O14_3 Zn5 1_555 1_555
C11_2 C12_2 1_555 1_555
Zn3 O1_2 1_555 1_555
Zn5_2 O1_2 1_555 1_555
O1_2 C1_2 1_555 1_555
O8 C9_2 1_555 1_555
O4_2 C1_2 1_555 1_555
C1_2 C2_2 1_555 1_555
C7_2 C2_2 1_555 1_555
H3_2 C7_2 1_555 1_555
C8_2 C6_2 1_555 1_555
H4_2 C8_2 1_555 1_555
C9_2 C10_2 1_555 1_555
C10_2 C8_2 1_555 1_555
Zn7 O4_2 1_555 1_555
O5_2 Zn3 1_555 1_555
O9 C21_2 1_555 1_555
O11_2 C21_2 1_555 1_555
O12_3 Zn5_2 1_555 1_555
O13_2 Zn5_2 1_555 1_555
C13_2 O5_2 1_555 1_555
C14_2 C13_2 1_555 1_555
C15_2 C14_2 1_555 1_555
H7_2 C15_2 1_555 1_555
C16_2 C15_2 1_555 1_555
H8_2 C16_2 1_555 1_555
C17_2 C16_2 1_555 1_555
C18_2 C17_2 1_555 1_555
C19_2 C14_2 1_555 1_555
H9_2 C19_2 1_555 1_555
C20_2 C18_2 1_555 1_555
H10_2 C20_2 1_555 1_555
C21_2 C22_2 1_555 1_555
C22_2 C20_2 1_555 1_555
C23_2 C22_2 1_555 1_555
H11_2 C23_2 1_555 1_555
C24_2 C17_2 1_555 1_555
H12_2 C24_2 1_555 1_555
C6_2 C7_2 1_555 1_555
Zn7 O5_2 1_555 1_555
O13_2 C13_2 1_555 1_555
C18_2 C19_2 1_555 1_555
C23_2 C24_2 1_555 1_555
O6_4 Zn7 1_555 1_555
O12_4 Zn7 1_555 1_555
O14_4 Zn7 1_555 1_555
Zn4 O7_2 1_555 1_555
O7_2 C21_3 1_555 1_555
O12_4 C21_3 1_555 1_555
C14_3 C13_3 1_555 1_555
C15_3 C14_3 1_555 1_555
H7_3 C15_3 1_555 1_555
C16_3 C15_3 1_555 1_555
H8_3 C16_3 1_555 1_555
C17_3 C16_3 1_555 1_555
C18_3 C17_3 1_555 1_555
C19_3 C14_3 1_555 1_555
H9_3 C19_3 1_555 1_555
C20_3 C18_3 1_555 1_555
H10_3 C20_3 1_555 1_555
C21_3 C22_3 1_555 1_555
C22_3 C20_3 1_555 1_555
C23_3 C22_3 1_555 1_555
H11_3 C23_3 1_555 1_555
C24_3 C17_3 1_555 1_555
H12_3 C24_3 1_555 1_555
O14 C13_3 1_555 1_555
C18_3 C19_3 1_555 1_555
C23_3 C24_3 1_555 1_555
O6_2 Zn1_3 1_555 1_555
O8_2 Zn1_3 1_555 1_555
O2_2 C9_3 1_555 1_555
O14_2 C1_3 1_555 1_555
C1_3 C2_3 1_555 1_555
C7_3 C2_3 1_555 1_555
H3_3 C7_3 1_555 1_555
C8_3 C6_3 1_555 1_555
H4_3 C8_3 1_555 1_555
C9_3 C10_3 1_555 1_555
C10_3 C8_3 1_555 1_555
Zn4 O2_2 1_555 1_555
C6_3 C7_3 1_555 1_555
C3_3 H1_3 1_555 1_555
C4_3 C3_3 1_555 1_555
H2_3 C4_3 1_555 1_555
C5_3 C4_3 1_555 1_555
H5_3 C11_3 1_555 1_555
C12_3 C5_3 1_555 1_555
H6_3 C12_3 1_555 1_555
C11_3 C12_3 1_555 1_555
Zn1_4 O6 1_555 1_555
O9_2 Zn1_4 1_555 1_555
Zn4 O6_3 1_555 1_555
O6_3 C1_4 1_555 1_555
O8_2 C9_4 1_555 1_555
O14_4 C1_4 1_555 1_555
C1_4 C2_4 1_555 1_555
C7_4 C2_4 1_555 1_555
H3_4 C7_4 1_555 1_555
C8_4 C6_4 1_555 1_555
H4_4 C8_4 1_555 1_555
C9_4 C10_4 1_555 1_555
C10_4 C8_4 1_555 1_555
O6_4 Zn4 1_555 1_555
O9_2 C21_4 1_555 1_555
O12_2 C21_4 1_555 1_555
C13_4 O6_4 1_555 1_555
C14_4 C13_4 1_555 1_555
C15_4 C14_4 1_555 1_555
H7_4 C15_4 1_555 1_555
C16_4 C15_4 1_555 1_555
H8_4 C16_4 1_555 1_555
C17_4 C16_4 1_555 1_555
C18_4 C17_4 1_555 1_555
C19_4 C14_4 1_555 1_555
H9_4 C19_4 1_555 1_555
C20_4 C18_4 1_555 1_555
H10_4 C20_4 1_555 1_555
C21_4 C22_4 1_555 1_555
C22_4 C20_4 1_555 1_555
C23_4 C22_4 1_555 1_555
H11_4 C23_4 1_555 1_555
C24_4 C17_4 1_555 1_555
H12_4 C24_4 1_555 1_555
C6_4 C7_4 1_555 1_555
O14_3 C13_4 1_555 1_555
C18_4 C19_4 1_555 1_555
C23_4 C24_4 1_555 1_555
C3_4 H1_4 1_555 1_555
C4_4 C3_4 1_555 1_555
H2_4 C4_4 1_555 1_555
C5_4 C4_4 1_555 1_555
H5_4 C11_4 1_555 1_555
C12_4 C5_4 1_555 1_555
H6_4 C12_4 1_555 1_555
C11_4 C12_4 1_555 1_555

#END
