
###############################################################################
#
# This file contains modified crystal structure data generated from the
# MOF subset of the Cambridge Structural Database (CSD) v543 
# hosted by the Cambridge Crystallographic Data Centre (CCDC).
#
# This work is licensed under the Creative Commons
# Attribution-NonCommercial-ShareAlike 4.0 International License.
# To view a copy of this license, visit
# http://creativecommons.org/licenses/by-nc-sa/4.0/
# or send a letter to
# Creative Commons, PO Box 1866, Mountain View, CA 94042, USA.
#
# CIF created using the CSD Python API on 29 September 2022
# The structure has been converted into the P1 space group
# The structure has a 3D framework
# The original CSD entry OHONUX is in the trigonal crystal system
# The original CSD entry OHONUX is in a Sohncke space group
# The framework has been calculated to contain at least 10.0% void space
# The void calculation uses a probe of radius 1.32A, grid spacing 0.4
#
###############################################################################

data_OHONUX
_chemical_formula_moiety         '(C78 H84 Mo36 N12 O120 P5 Zn12)n'
_symmetry_cell_setting           triclinic
_symmetry_space_group_name_H-M   'P 1'
_symmetry_Int_Tables_number      1
_space_group_name_Hall           'P 1'
loop_
_symmetry_equiv_pos_site_id
_symmetry_equiv_pos_as_xyz
1 x,y,z
_cell_length_a                   22.777(8)
_cell_length_b                   22.777(8)
_cell_length_c                   13.338(5)
_cell_angle_alpha                90
_cell_angle_beta                 90
_cell_angle_gamma                120
_cell_volume                     5992.59
loop_
_atom_site_label
_atom_site_type_symbol
_atom_site_fract_x
_atom_site_fract_y
_atom_site_fract_z
Mo2 Mo 0.06574(7) 0.52317(7) 0.19381(9)
Mo4 Mo 0.17630(7) 0.46867(7) 0.10954(10)
Mo5 Mo 0.02116(7) 0.19808(7) 0.07216(10)
P1 P -0.0000 0.3363(2) 0.1667
O4 O 0.0204(5) 0.3059(5) 0.0763(7)
O5 O 0.1654(5) 0.3773(6) 0.1266(8)
O6 O 0.0193(5) 0.4873(5) 0.0645(7)
O9 O 0.0800(7) 0.6036(6) 0.1988(9)
O10 O 0.1476(6) 0.5361(6) 0.1311(7)
O13 O 0.1071(6) 0.2654(5) 0.0049(8)
O16 O 0.0268(7) 0.1286(6) 0.0521(9)
O18 O 0.2542(6) 0.5184(7) 0.0676(10)
O22 O 0.0603(5) 0.4059(7) 0.1951(7)
Mo9 Mo 0.02957(7) 0.30324(10) 0.43819(9)
Mo12 Mo 0.13188(7) 0.45430(10) 0.35848(10)
Zn4 Zn 0.14278(10) 0.32248(14) 0.24925(14)
O23 O 0.0701(6) 0.2352(8) 0.2006(8)
O24 O 0.1152(5) 0.3568(8) 0.3602(8)
O28 O 0.0380(5) 0.3947(7) 0.4173(7)
O31 O 0.0252(6) 0.2256(8) 0.3900(8)
O32 O 0.1943(6) 0.4732(8) 0.2613(8)
O37 O 0.0581(7) 0.3115(10) 0.5582(8)
O39 O 0.1068(6) 0.5168(8) 0.3248(7)
O40 O 0.1795(7) 0.4845(11) 0.4649(9)
C14 C 0.2774(11) 0.3507(16) 0.3344(14)
H15 H 0.2702 0.3745 0.3849
C15 C 0.3367(9) 0.3514(13) 0.3319(12)
H16 H 0.3672 0.3715 0.3844
C16 C 0.3535(9) 0.3233(12) 0.2537(12)
C17 C 0.3041(9) 0.2895(13) 0.1834(15)
H17 H 0.3114 0.2670 0.1309
C18 C 0.2427(10) 0.2889(14) 0.1905(15)
H18 H 0.2107 0.2679 0.1399
C20 C 0.5878(11) 0.4887(16) 0.0155(14)
H20 H 0.6105 0.5104 0.0739
C21 C 0.5427(8) 0.4210(12) 0.0181(13)
C24 C 0.4229(8) 0.3306(13) 0.2405(11)
H23 H 0.4190 0.2867 0.2294
H24 H 0.4505 0.3509 0.2996
C25 C 0.4554(11) 0.3772(15) 0.1475(16)
H25 H 0.4228 0.3607 0.0930
H26 H 0.4648 0.4225 0.1640
C26 C 0.5209(8) 0.3810(12) 0.1112(12)
H27 H 0.5558 0.4022 0.1619
H28 H 0.5132 0.3357 0.0988
N3 N 0.2280(7) 0.3169(10) 0.2667(11)
Mo1 Mo 0.13465(7) 0.36406(7) 0.98641(10)
Zn1 Zn 0.03768(10) 0.44565(9) 0.95105(12)
O3 O 0.1183(5) 0.4408(5) 0.9909(7)
O14 O 0.2036(7) 0.3894(6) 0.9176(9)
O15 O 0.0618(6) 0.3294(6) 0.8780(7)
C19 C 0.6013(11) 0.5276(16) 0.9246(13)
H19 H 0.6327 0.5738 0.9249
C22 C 0.5129(11) 0.3925(15) 0.9265(14)
H21 H 0.4831 0.3460 0.9228
C23 C 0.5267(10) 0.4320(14) 0.8391(13)
H22 H 0.5054 0.4112 0.7793
N4 N 0.5692(7) 0.4978(10) 0.8407(10)
Zn6 Zn 0.59203(13) 0.55435(9) 0.71562(12)
N5 N 0.0714(7) 0.5022(10) 0.8259(10)
C3 C 0.0302(8) 0.6767(12) 0.4129(12)
C4 C 0.0146(9) 0.7105(13) 0.4832(15)
H3 H 0.0444 0.7330 0.5357
C6 C 0.0737(12) 0.4724(16) 0.7420(13)
H5 H 0.0589 0.4262 0.7417
C7 C 0.0991(11) 0.5113(16) 0.6511(14)
H6 H 0.1001 0.4896 0.5927
C8 C 0.1217(9) 0.5790(12) 0.6485(13)
C9 C 0.1204(10) 0.6075(15) 0.7401(14)
H7 H 0.1371 0.6540 0.7438
C10 C 0.0947(10) 0.5680(14) 0.8275(13)
H8 H 0.0942 0.5888 0.8873
C11 C 0.0923(10) 0.6694(13) 0.4261(11)
H9 H 0.1323 0.7133 0.4372
H10 H 0.0996 0.6491 0.3670
C12 C 0.0782(10) 0.6228(15) 0.5191(16)
H11 H 0.0621 0.6393 0.5736
H12 H 0.0423 0.5775 0.5026
C13 C 0.1399(9) 0.6190(12) 0.5554(12)
H13 H 0.1536 0.5978 0.5047
H14 H 0.1775 0.6643 0.5678
C16_2 C 0.6767(12) 0.0302(15) 0.5871(12)
C17_2 C 0.7105(13) 0.0146(16) 0.5168(15)
H17_2 H 0.7330 0.0444 0.4643
C19_2 C 0.4724(16) 0.0737(19) 0.2580(13)
H19_2 H 0.4262 0.0589 0.2583
C20_2 C 0.5113(16) 0.0991(19) 0.3489(14)
H20_2 H 0.4896 0.1001 0.4073
C21_2 C 0.5790(12) 0.1217(14) 0.3515(13)
C22_2 C 0.6075(15) 0.1204(19) 0.2599(14)
H21_2 H 0.6540 0.1371 0.2562
C23_2 C 0.5680(14) 0.0947(17) 0.1725(13)
H22_2 H 0.5888 0.0942 0.1127
C24_2 C 0.6694(13) 0.0923(15) 0.5739(11)
H23_2 H 0.7133 0.1323 0.5628
H24_2 H 0.6491 0.0996 0.6330
C25_2 C 0.6228(15) 0.0782(19) 0.4809(16)
H25_2 H 0.6393 0.0621 0.4264
H26_2 H 0.5775 0.0423 0.4974
C26_2 C 0.6190(12) 0.1399(14) 0.4446(12)
H27_2 H 0.5978 0.1536 0.4953
H28_2 H 0.6643 0.1775 0.4322
N4_2 N 0.5022(10) 0.0714(12) 0.1741(10)
Zn6_2 Zn 0.44565(9) 0.03768(16) 0.04895(12)
Mo1_2 Mo 0.63594(7) 0.77059(10) 0.31974(10)
Mo2_2 Mo 0.47683(7) 0.54257(10) 0.52714(9)
Mo3 Mo 0.72633(7) 0.69676(10) 0.22847(9)
Mo4_2 Mo 0.53133(7) 0.70763(10) 0.44287(10)
Mo5_2 Mo 0.80192(7) 0.82308(10) 0.40549(10)
Mo6 Mo 0.67758(7) 0.54570(10) 0.30818(10)
Zn1_2 Zn 0.55435(9) 0.59203(13) 0.28438(12)
Zn2 Zn 0.82030(10) 0.67752(14) 0.41741(14)
P1_2 P 0.6637(2) 0.6637(2) 0.5000
O1 O 0.8349(5) 0.7648(8) 0.4660(8)
O2 O 0.7584(6) 0.6432(8) 0.3064(8)
O3_2 O 0.5592(5) 0.6775(7) 0.3242(7)
O4_2 O 0.6941(5) 0.7145(7) 0.4096(7)
O5_2 O 0.6227(6) 0.7881(8) 0.4599(8)
O6_2 O 0.5127(5) 0.5320(7) 0.3978(7)
O7 O 0.6433(5) 0.6053(7) 0.2493(7)
O8 O 0.6544(5) 0.5941(7) 0.4715(7)
O9_2 O 0.3964(6) 0.4764(9) 0.5321(9)
O10_2 O 0.4639(6) 0.6115(8) 0.4644(7)
O11 O 0.7996(5) 0.7744(8) 0.2766(8)
O12 O 0.7211(6) 0.5268(8) 0.4053(8)
O13_2 O 0.7346(5) 0.8417(8) 0.3382(8)
O14_2 O 0.6106(6) 0.8142(9) 0.2509(9)
O15_2 O 0.6706(6) 0.7324(8) 0.2113(7)
O16_2 O 0.8714(6) 0.8982(9) 0.3854(9)
O17 O 0.7466(7) 0.6885(10) 0.1084(8)
O18_2 O 0.4816(7) 0.7358(9) 0.4009(10)
O19 O 0.5900(6) 0.4832(8) 0.3418(7)
O20 O 0.6950(8) 0.5155(11) 0.2017(9)
C1 C 0.9267(12) 0.6493(16) 0.3322(14)
H1 H 0.8957 0.6255 0.2817
C2 C 0.9853(10) 0.6486(13) 0.3347(12)
H2 H 0.9957 0.6285 0.2822
C5 C 0.9538(10) 0.7111(14) 0.4761(15)
H4 H 0.9428 0.7321 0.5267
N1 N 0.9111(7) 0.6831(10) 0.3999(11)
O21 O 0.7145(7) 0.6941(9) 0.5904(7)
O22_2 O 0.5941(7) 0.6544(9) 0.5285(7)
Mo7 Mo 0.77059(10) 0.63594(12) 0.68026(10)
Mo8 Mo 0.54257(10) 0.47683(12) 0.47286(9)
Mo9_2 Mo 0.69676(10) 0.72633(12) 0.77153(9)
Mo10 Mo 0.70763(10) 0.53133(12) 0.55713(10)
Mo11 Mo 0.82308(10) 0.80192(12) 0.59451(10)
Mo12_2 Mo 0.54570(10) 0.67758(12) 0.69182(10)
Zn4_2 Zn 0.67752(14) 0.82030(17) 0.58259(14)
O23_2 O 0.7648(8) 0.8349(10) 0.5340(8)
O24_2 O 0.6432(8) 0.7584(9) 0.6936(8)
O25 O 0.6775(7) 0.5592(9) 0.6758(7)
O26 O 0.7881(8) 0.6227(9) 0.5401(8)
O27 O 0.5320(7) 0.5127(9) 0.6022(7)
O28_2 O 0.6053(7) 0.6433(9) 0.7507(7)
O29 O 0.4764(9) 0.3964(11) 0.4679(9)
O30 O 0.6115(8) 0.4639(10) 0.5356(7)
O31_2 O 0.7744(8) 0.7996(10) 0.7234(8)
O32_2 O 0.5268(8) 0.7211(10) 0.5947(8)
O33 O 0.8417(8) 0.7346(10) 0.6618(8)
O34 O 0.8142(9) 0.6106(11) 0.7491(9)
O35 O 0.7324(8) 0.6706(10) 0.7887(7)
O36 O 0.8982(9) 0.8714(11) 0.6146(9)
O37_2 O 0.6885(10) 0.7466(12) 0.8916(8)
O38 O 0.7358(9) 0.4816(11) 0.5991(10)
O39_2 O 0.4832(8) 0.5900(10) 0.6582(7)
O40_2 O 0.5155(11) 0.6950(13) 0.7983(9)
C14_2 C 0.6493(16) 0.9267(19) 0.6678(14)
H15_2 H 0.6255 0.8957 0.7183
C15_2 C 0.6486(13) 0.9853(16) 0.6653(12)
H16_2 H 0.6285 0.9957 0.7178
C18_2 C 0.7111(14) 0.9538(17) 0.5239(15)
H18_2 H 0.7321 0.9428 0.4733
N3_2 N 0.6831(10) 0.9111(12) 0.6001(11)
N5_2 N 0.4978(10) 0.5692(12) 0.1593(10)
C6_2 C 0.5276(16) 0.6013(11) 0.0754(13)
H5_2 H 0.5738 0.6327 0.0751
C9_2 C 0.3925(15) 0.5129(11) 0.0735(14)
H7_2 H 0.3460 0.4831 0.0772
C10_2 C 0.4320(14) 0.5267(10) 0.1609(13)
H8_2 H 0.4112 0.5054 0.2207
Mo7_2 Mo 0.36406(12) 0.13465(7) 0.01359(10)
O25_2 O 0.4408(9) 0.1183(5) 0.0091(7)
O34_2 O 0.3894(11) 0.2036(7) 0.0824(9)
O35_2 O 0.3294(10) 0.0618(6) 0.1220(7)
Zn2_2 Zn 0.85722(10) 0.17970(10) 0.08408(14)
P1_3 P 1.0000 0.3363(2) 0.1667
O1_2 O 0.9299(6) 0.1651(5) 0.1327(8)
O8_2 O 0.9397(5) 0.3456(5) 0.1382(7)
O12_2 O 0.8057(6) 0.2789(6) 0.0720(8)
O19_2 O 0.8932(6) 0.4100(6) 0.0085(7)
C2_2 C 0.6633(9) 0.0147(10) 0.0014(12)
C5_2 C 0.7573(10) 0.0462(10) 0.1428(15)
H4_2 H 0.7893 0.0572 0.1934
N1_2 N 0.7720(7) 0.0889(7) 0.0666(11)
O21_2 O 0.9796(5) 0.2855(7) 0.2570(7)
Mo7_3 Mo 0.86535(7) 0.22941(10) 0.34692(10)
Mo8_2 Mo 0.93426(7) 0.45743(10) 0.13952(9)
Mo10_2 Mo 0.82370(7) 0.29237(10) 0.22379(10)
Mo11_2 Mo 0.97884(7) 0.17692(10) 0.26117(10)
Zn3 Zn 0.96232(10) 0.40797(13) 0.38228(12)
O25_3 O 0.8817(5) 0.3225(7) 0.3424(7)
O26_2 O 0.8346(5) 0.2119(8) 0.2067(8)
O27_2 O 0.9807(5) 0.4680(7) 0.2688(7)
O29_2 O 0.9200(7) 0.5236(9) 0.1345(9)
O30_2 O 0.8524(6) 0.3885(8) 0.2022(7)
O33_2 O 0.8929(6) 0.1583(8) 0.3284(8)
O34_3 O 0.7964(7) 0.1858(9) 0.4157(9)
O35_3 O 0.9382(6) 0.2676(8) 0.4553(7)
O36_2 O 0.9732(7) 0.1018(9) 0.2812(9)
O38_2 O 0.7458(6) 0.2642(9) 0.2657(10)
N6 N 0.9286(7) 0.4308(7) 0.5074(10)
C16_3 C 0.9698(15) 0.6465(9) 0.9204(12)
C17_3 C 0.9854(16) 0.6959(9) 0.8501(15)
H17_3 H 0.9556 0.6886 0.7976
C19_3 C 0.9263(19) 0.3987(11) 0.5913(13)
H19_3 H 0.9411 0.3673 0.5916
C20_3 C 0.9009(19) 0.4122(11) 0.6822(14)
H20_3 H 0.8999 0.3895 0.7406
C21_3 C 0.8783(14) 0.4573(8) 0.6848(13)
C22_3 C 0.8796(19) 0.4871(11) 0.5932(14)
H21_3 H 0.8629 0.5169 0.5895
C23_3 C 0.9053(17) 0.4733(10) 0.5058(13)
H22_3 H 0.9058 0.4946 0.4460
C24_3 C 0.9077(15) 0.5771(8) 0.9072(11)
H23_3 H 0.8677 0.5810 0.8961
H24_3 H 0.9004 0.5495 0.9663
C25_3 C 0.9218(19) 0.5446(11) 0.8142(16)
H25_3 H 0.9379 0.5772 0.7597
H26_3 H 0.9577 0.5352 0.8307
C26_3 C 0.8601(14) 0.4791(8) 0.7779(12)
H27_3 H 0.8464 0.4442 0.8286
H28_3 H 0.8225 0.4868 0.7655
Mo3_2 Mo 0.97043(7) 0.27367(7) 0.89514(9)
Mo6_2 Mo 0.86812(7) 0.32242(7) 0.97485(10)
O2_2 O 0.8848(5) 0.2416(6) 0.9731(8)
O7_2 O 0.9620(5) 0.3567(5) 0.9160(7)
O11_2 O 0.9748(6) 0.2004(5) 0.9433(8)
O17_2 O 0.9419(7) 0.2534(7) 0.7751(8)
O20_2 O 0.8205(7) 0.3050(8) 0.8684(9)
C1_2 C 0.7226(11) 0.0733(12) 0.9989(14)
H1_2 H 0.7298 0.1043 0.9484
H2_2 H 0.6328 0.0043 0.9489
C3_2 C 0.6465(9) 0.9698(8) 0.0796(12)
C4_2 C 0.6959(9) 0.9854(9) 0.1499(15)
H3_2 H 0.6886 0.9556 0.2024
C6_3 C 0.3987(11) 0.9263(12) 0.4087(13)
H5_3 H 0.3673 0.9411 0.4084
C7_2 C 0.4122(11) 0.9009(11) 0.3178(14)
H6_2 H 0.3895 0.8999 0.2594
C8_2 C 0.4573(8) 0.8783(9) 0.3152(13)
C9_3 C 0.4871(11) 0.8796(10) 0.4068(14)
H7_3 H 0.5169 0.8629 0.4105
C10_3 C 0.4733(10) 0.9053(10) 0.4942(13)
H8_3 H 0.4946 0.9058 0.5540
C11_2 C 0.5771(8) 0.9077(10) 0.0928(11)
H9_2 H 0.5810 0.8677 0.1039
H10_2 H 0.5495 0.9004 0.0337
C12_2 C 0.5446(11) 0.9218(10) 0.1858(16)
H11_2 H 0.5772 0.9379 0.2403
H12_2 H 0.5352 0.9577 0.1693
C13_2 C 0.4791(8) 0.8601(9) 0.2221(12)
H13_2 H 0.4442 0.8464 0.1714
H14_2 H 0.4868 0.8225 0.2345
N2 N 0.4308(7) 0.9286(7) 0.4926(10)
Zn5 Zn 0.40797(13) 0.96232(10) 0.61772(12)
Mo1_3 Mo 0.22941(10) 0.86535(7) 0.65308(10)
Mo2_3 Mo 0.45743(10) 0.93426(7) 0.86048(9)
Mo4_3 Mo 0.29237(10) 0.82370(7) 0.77621(10)
Mo5_3 Mo 0.17692(10) 0.97884(7) 0.73883(10)
P1_4 P 0.3363(2) 1.0000 0.8334
O3_3 O 0.3225(7) 0.8817(5) 0.6576(7)
O4_3 O 0.2855(7) 0.9796(5) 0.7430(7)
O5_3 O 0.2119(8) 0.8346(5) 0.7933(8)
O6_3 O 0.4680(7) 0.9807(5) 0.7312(7)
O9_3 O 0.5236(9) 0.9200(7) 0.8655(9)
O10_3 O 0.3885(8) 0.8524(6) 0.7978(7)
O13_3 O 0.1583(8) 0.8929(6) 0.6716(8)
O14_3 O 0.1858(9) 0.7964(7) 0.5843(9)
O15_3 O 0.2676(8) 0.9382(6) 0.5447(7)
O16_3 O 0.1018(9) 0.9732(7) 0.7188(9)
O18_3 O 0.2642(9) 0.7458(6) 0.7343(10)
O22_3 O 0.3456(9) 0.9397(5) 0.8618(7)
Zn4_3 Zn 0.17970(17) 0.85722(10) 0.91592(14)
O23_3 O 0.1651(10) 0.9299(6) 0.8673(8)
O32_3 O 0.2789(10) 0.8057(6) 0.9280(8)
O39_3 O 0.4100(10) 0.8932(6) 0.9915(7)
C15_3 C 0.0147(16) 0.6633(9) 0.9986(12)
C18_3 C 0.0462(17) 0.7573(10) 0.8572(15)
H18_3 H 0.0572 0.7893 0.8066
N3_3 N 0.0889(12) 0.7720(7) 0.9334(11)
Mo3_3 Mo 0.30324(10) 0.02957(7) 0.56181(9)
Mo6_3 Mo 0.45430(10) 0.13188(7) 0.64152(10)
Zn2_3 Zn 0.32248(14) 0.14278(10) 0.75075(14)
P1_5 P 0.3363(2) 0.0000 0.8334
O1_3 O 0.2352(8) 0.0701(6) 0.7994(8)
O2_3 O 0.3568(8) 0.1152(5) 0.6398(8)
O7_3 O 0.3947(7) 0.0380(5) 0.5827(7)
O8_3 O 0.4059(7) 0.0603(5) 0.8049(7)
O11_3 O 0.2256(8) 0.0252(6) 0.6100(8)
O12_3 O 0.4732(8) 0.1943(6) 0.7387(8)
O17_3 O 0.3115(10) 0.0581(7) 0.4418(8)
O19_3 O 0.5168(8) 0.1068(6) 0.6752(7)
O20_3 O 0.4845(11) 0.1795(7) 0.5351(9)
C1_3 C 0.3507(16) 0.2774(11) 0.6656(14)
H1_3 H 0.3745 0.2702 0.6151
C2_3 C 0.3514(13) 0.3367(9) 0.6681(12)
H2_3 H 0.3715 0.3672 0.6156
C3_3 C 0.3233(12) 0.3535(9) 0.7463(12)
C4_3 C 0.2895(13) 0.3041(9) 0.8166(15)
H3_3 H 0.2670 0.3114 0.8691
C5_3 C 0.2889(14) 0.2427(10) 0.8095(15)
H4_3 H 0.2679 0.2107 0.8601
C7_3 C 0.4887(16) 0.5878(11) 0.9845(14)
H6_3 H 0.5104 0.6105 0.9261
C8_3 C 0.4210(12) 0.5427(8) 0.9819(13)
C11_3 C 0.3306(13) 0.4229(8) 0.7595(11)
H9_3 H 0.2867 0.4190 0.7706
H10_3 H 0.3509 0.4505 0.7004
C12_3 C 0.3772(15) 0.4554(11) 0.8525(16)
H11_3 H 0.3607 0.4228 0.9070
H12_3 H 0.4225 0.4648 0.8360
C13_3 C 0.3810(12) 0.5209(8) 0.8888(12)
H13_3 H 0.4022 0.5558 0.8381
H14_3 H 0.3357 0.5132 0.9012
N1_3 N 0.3169(10) 0.2280(7) 0.7333(11)
O21_3 O 0.3059(9) 0.0204(5) 0.9237(7)
Mo8_3 Mo 0.52317(12) 0.06574(7) 0.80619(9)
Mo10_3 Mo 0.46867(12) 0.17630(7) 0.89046(10)
Mo11_3 Mo 0.19808(12) 0.02116(7) 0.92784(10)
O26_3 O 0.3773(9) 0.1654(5) 0.8734(8)
O27_3 O 0.4873(9) 0.0193(5) 0.9355(7)
O29_3 O 0.6036(11) 0.0800(7) 0.8012(9)
O30_3 O 0.5361(10) 0.1476(6) 0.8689(7)
O33_3 O 0.2654(10) 0.1071(6) 0.9951(8)
O36_3 O 0.1286(11) 0.0268(7) 0.9479(9)
O38_3 O 0.5184(11) 0.2542(6) 0.9324(10)
Mo9_3 Mo 0.27367(12) 0.97043(7) 0.10486(9)
Mo12_3 Mo 0.32242(12) 0.86812(7) 0.02515(10)
O24_3 O 0.2416(9) 0.8848(5) 0.0269(8)
O28_3 O 0.3567(9) 0.9620(5) 0.0840(7)
O31_3 O 0.2004(10) 0.9748(6) 0.0567(8)
O37_3 O 0.2534(12) 0.9419(7) 0.2249(8)
O40_3 O 0.3050(13) 0.8205(7) 0.1316(9)
C14_3 C 0.0733(19) 0.7226(11) 0.0011(14)
H15_3 H 0.1043 0.7298 0.0516
H16_3 H 0.0043 0.6328 0.0511
loop_
_geom_bond_atom_site_label_1
_geom_bond_atom_site_label_2
_geom_bond_site_symmetry_1
_geom_bond_site_symmetry_2
Mo2 O6 1_555 1_555
P1 O4 1_555 1_555
O9 Mo2 1_555 1_555
O10 Mo2 1_555 1_555
O16 Mo5 1_555 1_555
O18 Mo4 1_555 1_555
O22 Mo2 1_555 1_555
Mo12 O22 1_555 1_555
Zn4 O5 1_555 1_555
O23 Mo5 1_555 1_555
O24 Mo9 1_555 1_555
O28 Mo9 1_555 1_555
O31 Mo9 1_555 1_555
O32 Mo4 1_555 1_555
O37 Mo9 1_555 1_555
O39 Mo2 1_555 1_555
O40 Mo12 1_555 1_555
C14 H15 1_555 1_555
C15 C14 1_555 1_555
H16 C15 1_555 1_555
C16 C15 1_555 1_555
C17 C16 1_555 1_555
H17 C17 1_555 1_555
C18 C17 1_555 1_555
H18 C18 1_555 1_555
H20 C20 1_555 1_555
C21 C20 1_555 1_555
C24 C16 1_555 1_555
H23 C24 1_555 1_555
H24 C24 1_555 1_555
C25 C24 1_555 1_555
H25 C25 1_555 1_555
H26 C25 1_555 1_555
C26 C21 1_555 1_555
H27 C26 1_555 1_555
H28 C26 1_555 1_555
N3 Zn4 1_555 1_555
Mo4 O5 1_555 1_555
Mo4 O10 1_555 1_555
Mo4 O22 1_555 1_555
Mo5 O4 1_555 1_555
Mo5 O13 1_555 1_555
P1 O22 1_555 1_555
Mo12 O24 1_555 1_555
Mo12 O28 1_555 1_555
Mo12 O32 1_555 1_555
Mo12 O39 1_555 1_555
Zn4 O23 1_555 1_555
Zn4 O24 1_555 1_555
C14 N3 1_555 1_555
C18 N3 1_555 1_555
C25 C26 1_555 1_555
Mo1 O3 1_555 1_555
Zn1 O3 1_555 1_555
O14 Mo1 1_555 1_555
O15 Mo1 1_555 1_555
C19 H19 1_555 1_555
H21 C22 1_555 1_555
C23 C22 1_555 1_555
H22 C23 1_555 1_555
N4 C19 1_555 1_555
Zn6 N4 1_555 1_555
N5 Zn1 1_555 1_555
C23 N4 1_555 1_555
C4 C3 1_555 1_555
H3 C4 1_555 1_555
C6 H5 1_555 1_555
C7 C6 1_555 1_555
H6 C7 1_555 1_555
C8 C7 1_555 1_555
C9 C8 1_555 1_555
H7 C9 1_555 1_555
C10 C9 1_555 1_555
H8 C10 1_555 1_555
C11 C3 1_555 1_555
H9 C11 1_555 1_555
H10 C11 1_555 1_555
C12 C11 1_555 1_555
H11 C12 1_555 1_555
H12 C12 1_555 1_555
C13 C8 1_555 1_555
H13 C13 1_555 1_555
H14 C13 1_555 1_555
N5 C6 1_555 1_555
C10 N5 1_555 1_555
C12 C13 1_555 1_555
C17_2 C16_2 1_555 1_555
H17_2 C17_2 1_555 1_555
C19_2 H19_2 1_555 1_555
C20_2 C19_2 1_555 1_555
H20_2 C20_2 1_555 1_555
C21_2 C20_2 1_555 1_555
C22_2 C21_2 1_555 1_555
H21_2 C22_2 1_555 1_555
C23_2 C22_2 1_555 1_555
H22_2 C23_2 1_555 1_555
C24_2 C16_2 1_555 1_555
H23_2 C24_2 1_555 1_555
H24_2 C24_2 1_555 1_555
C25_2 C24_2 1_555 1_555
H25_2 C25_2 1_555 1_555
H26_2 C25_2 1_555 1_555
C26_2 C21_2 1_555 1_555
H27_2 C26_2 1_555 1_555
H28_2 C26_2 1_555 1_555
N4_2 C19_2 1_555 1_555
Zn6_2 N4_2 1_555 1_555
C23_2 N4_2 1_555 1_555
C25_2 C26_2 1_555 1_555
Mo1_2 O3_2 1_555 1_555
Mo2_2 O6_2 1_555 1_555
Mo3 O2 1_555 1_555
Mo4_2 O3_2 1_555 1_555
Mo5_2 O1 1_555 1_555
Mo6 O2 1_555 1_555
Zn1_2 O3_2 1_555 1_555
Zn2 O1 1_555 1_555
P1_2 O4_2 1_555 1_555
O1 Mo11 1_555 1_555
O2 Zn2 1_555 1_555
O4_2 Mo1_2 1_555 1_555
O5_2 Mo1_2 1_555 1_555
O6_2 Zn1_2 1_555 1_555
O7 Mo3 1_555 1_555
O8 Mo6 1_555 1_555
O9_2 Mo2_2 1_555 1_555
O10_2 Mo2_2 1_555 1_555
O11 Mo3 1_555 1_555
O12 Mo6 1_555 1_555
O13_2 Mo1_2 1_555 1_555
O14_2 Mo1_2 1_555 1_555
O15_2 Mo1_2 1_555 1_555
O16_2 Mo5_2 1_555 1_555
O17 Mo3 1_555 1_555
O18_2 Mo4_2 1_555 1_555
O19 Mo6 1_555 1_555
O20 Mo6 1_555 1_555
C1 H1 1_555 1_555
C2 C1 1_555 1_555
H2 C2 1_555 1_555
H4 C5 1_555 1_555
N1 Zn2 1_555 1_555
O21 P1_2 1_555 1_555
O22_2 Mo2_2 1_555 1_555
Mo7 O21 1_555 1_555
Mo8 O6_2 1_555 1_555
Mo9_2 O21 1_555 1_555
Mo10 O8 1_555 1_555
Mo11 O21 1_555 1_555
Mo12_2 O22_2 1_555 1_555
Zn6 O25 1_555 1_555
Zn4_2 O5_2 1_555 1_555
O23_2 Mo5_2 1_555 1_555
O24_2 Mo9_2 1_555 1_555
O25 Mo7 1_555 1_555
O26 Zn2 1_555 1_555
O27 Mo2_2 1_555 1_555
O28_2 Mo9_2 1_555 1_555
O29 Mo8 1_555 1_555
O30 Mo8 1_555 1_555
O31_2 Mo9_2 1_555 1_555
O32_2 Mo4_2 1_555 1_555
O33 Mo7 1_555 1_555
O34 Mo7 1_555 1_555
O35 Mo7 1_555 1_555
O36 Mo11 1_555 1_555
O37_2 Mo9_2 1_555 1_555
O38 Mo10 1_555 1_555
O39_2 Mo2_2 1_555 1_555
O40_2 Mo12_2 1_555 1_555
C14_2 H15_2 1_555 1_555
C15_2 C14_2 1_555 1_555
H16_2 C15_2 1_555 1_555
H18_2 C18_2 1_555 1_555
N3_2 Zn4_2 1_555 1_555
N5_2 Zn1_2 1_555 1_555
Mo3 O4_2 1_555 1_555
Mo3 O15_2 1_555 1_555
Mo4_2 O5_2 1_555 1_555
Mo4_2 O10_2 1_555 1_555
Mo4_2 O22_2 1_555 1_555
Mo5_2 O4_2 1_555 1_555
Mo5_2 O11 1_555 1_555
Mo5_2 O13_2 1_555 1_555
Mo6 O7 1_555 1_555
Zn1_2 O7 1_555 1_555
P1_2 O8 1_555 1_555
P1_2 O22_2 1_555 1_555
O8 Mo8 1_555 1_555
O12 Mo10 1_555 1_555
O19 Mo8 1_555 1_555
C1 N1 1_555 1_555
C5 N1 1_555 1_555
Mo7 O26 1_555 1_555
Mo8 O27 1_555 1_555
Mo9_2 O35 1_555 1_555
Mo10 O25 1_555 1_555
Mo10 O26 1_555 1_555
Mo10 O30 1_555 1_555
Mo11 O23_2 1_555 1_555
Mo11 O31_2 1_555 1_555
Mo11 O33 1_555 1_555
Mo12_2 O24_2 1_555 1_555
Mo12_2 O28_2 1_555 1_555
Mo12_2 O32_2 1_555 1_555
Mo12_2 O39_2 1_555 1_555
Zn6 O27 1_555 1_555
Zn6 O28_2 1_555 1_555
Zn4_2 O23_2 1_555 1_555
Zn4_2 O24_2 1_555 1_555
C14_2 N3_2 1_555 1_555
C18_2 N3_2 1_555 1_555
C6_2 H5_2 1_555 1_555
H7_2 C9_2 1_555 1_555
C10_2 C9_2 1_555 1_555
H8_2 C10_2 1_555 1_555
N5_2 C6_2 1_555 1_555
Zn6_2 O25_2 1_555 1_555
O25_2 Mo7_2 1_555 1_555
O34_2 Mo7_2 1_555 1_555
O35_2 Mo7_2 1_555 1_555
C10_2 N5_2 1_555 1_555
Zn2_2 O1_2 1_555 1_555
O1_2 Mo11_2 1_555 1_555
H4_2 C5_2 1_555 1_555
N1_2 Zn2_2 1_555 1_555
O21_2 P1_3 1_555 1_555
Mo7_3 O21_2 1_555 1_555
Mo10_2 O8_2 1_555 1_555
Mo11_2 O21_2 1_555 1_555
Zn3 O25_3 1_555 1_555
O25_3 Mo7_3 1_555 1_555
O26_2 Zn2_2 1_555 1_555
O29_2 Mo8_2 1_555 1_555
O30_2 Mo8_2 1_555 1_555
O33_2 Mo7_3 1_555 1_555
O34_3 Mo7_3 1_555 1_555
O35_3 Mo7_3 1_555 1_555
O36_2 Mo11_2 1_555 1_555
O38_2 Mo10_2 1_555 1_555
N6 Zn3 1_555 1_555
P1_3 O8_2 1_555 1_555
O8_2 Mo8_2 1_555 1_555
O12_2 Mo10_2 1_555 1_555
O19_2 Mo8_2 1_555 1_555
C5_2 N1_2 1_555 1_555
Mo7_3 O26_2 1_555 1_555
Mo8_2 O27_2 1_555 1_555
Mo10_2 O25_3 1_555 1_555
Mo10_2 O26_2 1_555 1_555
Mo10_2 O30_2 1_555 1_555
Mo11_2 O33_2 1_555 1_555
Zn3 O27_2 1_555 1_555
C17_3 C16_3 1_555 1_555
H17_3 C17_3 1_555 1_555
C19_3 H19_3 1_555 1_555
C20_3 C19_3 1_555 1_555
H20_3 C20_3 1_555 1_555
C21_3 C20_3 1_555 1_555
C22_3 C21_3 1_555 1_555
H21_3 C22_3 1_555 1_555
C23_3 C22_3 1_555 1_555
H22_3 C23_3 1_555 1_555
C24_3 C16_3 1_555 1_555
H23_3 C24_3 1_555 1_555
H24_3 C24_3 1_555 1_555
C25_3 C24_3 1_555 1_555
H25_3 C25_3 1_555 1_555
H26_3 C25_3 1_555 1_555
C26_3 C21_3 1_555 1_555
H27_3 C26_3 1_555 1_555
H28_3 C26_3 1_555 1_555
N6 C19_3 1_555 1_555
C23_3 N6 1_555 1_555
C25_3 C26_3 1_555 1_555
Mo3_2 O2_2 1_555 1_555
Mo6_2 O2_2 1_555 1_555
O7_2 Mo3_2 1_555 1_555
O11_2 Mo3_2 1_555 1_555
O17_2 Mo3_2 1_555 1_555
O20_2 Mo6_2 1_555 1_555
C1_2 H1_2 1_555 1_555
Mo6_2 O7_2 1_555 1_555
C4_2 C3_2 1_555 1_555
H3_2 C4_2 1_555 1_555
C6_3 H5_3 1_555 1_555
C7_2 C6_3 1_555 1_555
H6_2 C7_2 1_555 1_555
C8_2 C7_2 1_555 1_555
C9_3 C8_2 1_555 1_555
H7_3 C9_3 1_555 1_555
C10_3 C9_3 1_555 1_555
H8_3 C10_3 1_555 1_555
C11_2 C3_2 1_555 1_555
H9_2 C11_2 1_555 1_555
H10_2 C11_2 1_555 1_555
C12_2 C11_2 1_555 1_555
H11_2 C12_2 1_555 1_555
H12_2 C12_2 1_555 1_555
C13_2 C8_2 1_555 1_555
H13_2 C13_2 1_555 1_555
H14_2 C13_2 1_555 1_555
N2 C6_3 1_555 1_555
Zn5 N2 1_555 1_555
C10_3 N2 1_555 1_555
C12_2 C13_2 1_555 1_555
Mo1_3 O3_3 1_555 1_555
Mo2_3 O6_3 1_555 1_555
Mo4_3 O3_3 1_555 1_555
Zn5 O3_3 1_555 1_555
P1_4 O4_3 1_555 1_555
O4_3 Mo1_3 1_555 1_555
O5_3 Mo1_3 1_555 1_555
O6_3 Zn5 1_555 1_555
O9_3 Mo2_3 1_555 1_555
O10_3 Mo2_3 1_555 1_555
O13_3 Mo1_3 1_555 1_555
O14_3 Mo1_3 1_555 1_555
O15_3 Mo1_3 1_555 1_555
O16_3 Mo5_3 1_555 1_555
O18_3 Mo4_3 1_555 1_555
O22_3 Mo2_3 1_555 1_555
Zn4_3 O5_3 1_555 1_555
O23_3 Mo5_3 1_555 1_555
O32_3 Mo4_3 1_555 1_555
O39_3 Mo2_3 1_555 1_555
H18_3 C18_3 1_555 1_555
N3_3 Zn4_3 1_555 1_555
Mo4_3 O5_3 1_555 1_555
Mo4_3 O10_3 1_555 1_555
Mo4_3 O22_3 1_555 1_555
Mo5_3 O4_3 1_555 1_555
Mo5_3 O13_3 1_555 1_555
P1_4 O22_3 1_555 1_555
Zn4_3 O23_3 1_555 1_555
C18_3 N3_3 1_555 1_555
Mo3_3 O2_3 1_555 1_555
Mo6_3 O2_3 1_555 1_555
Zn2_3 O1_3 1_555 1_555
O1_3 Mo11_3 1_555 1_555
O2_3 Zn2_3 1_555 1_555
O7_3 Mo3_3 1_555 1_555
O8_3 Mo6_3 1_555 1_555
O11_3 Mo3_3 1_555 1_555
O12_3 Mo6_3 1_555 1_555
O17_3 Mo3_3 1_555 1_555
O19_3 Mo6_3 1_555 1_555
O20_3 Mo6_3 1_555 1_555
C1_3 H1_3 1_555 1_555
C2_3 C1_3 1_555 1_555
H2_3 C2_3 1_555 1_555
C3_3 C2_3 1_555 1_555
C4_3 C3_3 1_555 1_555
H3_3 C4_3 1_555 1_555
C5_3 C4_3 1_555 1_555
H4_3 C5_3 1_555 1_555
H6_3 C7_3 1_555 1_555
C8_3 C7_3 1_555 1_555
C11_3 C3_3 1_555 1_555
H9_3 C11_3 1_555 1_555
H10_3 C11_3 1_555 1_555
C12_3 C11_3 1_555 1_555
H11_3 C12_3 1_555 1_555
H12_3 C12_3 1_555 1_555
C13_3 C8_3 1_555 1_555
H13_3 C13_3 1_555 1_555
H14_3 C13_3 1_555 1_555
N1_3 Zn2_3 1_555 1_555
O21_3 P1_5 1_555 1_555
Mo10_3 O8_3 1_555 1_555
Mo11_3 O21_3 1_555 1_555
O26_3 Zn2_3 1_555 1_555
O29_3 Mo8_3 1_555 1_555
O30_3 Mo8_3 1_555 1_555
O36_3 Mo11_3 1_555 1_555
O38_3 Mo10_3 1_555 1_555
Mo6_3 O7_3 1_555 1_555
P1_5 O8_3 1_555 1_555
O8_3 Mo8_3 1_555 1_555
O12_3 Mo10_3 1_555 1_555
O19_3 Mo8_3 1_555 1_555
C1_3 N1_3 1_555 1_555
C5_3 N1_3 1_555 1_555
C12_3 C13_3 1_555 1_555
Mo8_3 O27_3 1_555 1_555
Mo10_3 O26_3 1_555 1_555
Mo10_3 O30_3 1_555 1_555
Mo11_3 O33_3 1_555 1_555
O24_3 Mo9_3 1_555 1_555
O28_3 Mo9_3 1_555 1_555
O31_3 Mo9_3 1_555 1_555
O37_3 Mo9_3 1_555 1_555
O40_3 Mo12_3 1_555 1_555
C14_3 H15_3 1_555 1_555
Mo12_3 O24_3 1_555 1_555
Mo12_3 O28_3 1_555 1_555

#END
