
###############################################################################
#
# This file contains modified crystal structure data generated from the
# MOF subset of the Cambridge Structural Database (CSD) v543 
# hosted by the Cambridge Crystallographic Data Centre (CCDC).
#
# This work is licensed under the Creative Commons
# Attribution-NonCommercial-ShareAlike 4.0 International License.
# To view a copy of this license, visit
# http://creativecommons.org/licenses/by-nc-sa/4.0/
# or send a letter to
# Creative Commons, PO Box 1866, Mountain View, CA 94042, USA.
#
# CIF created using the CSD Python API on 29 September 2022
# The structure has been converted into the P1 space group
# The structure has a 3D framework
# The original CSD entry OHOPAF is in the trigonal crystal system
# The original CSD entry OHOPAF is in a Sohncke space group
# The framework has been calculated to contain at least 10.0% void space
# The void calculation uses a probe of radius 1.32A, grid spacing 0.4
#
###############################################################################

data_OHOPAF
_chemical_formula_moiety         '(C78 H84 Mo36 N12 O120 P5 Zn12)n'
_symmetry_cell_setting           triclinic
_symmetry_space_group_name_H-M   'P 1'
_symmetry_Int_Tables_number      1
_space_group_name_Hall           'P 1'
loop_
_symmetry_equiv_pos_site_id
_symmetry_equiv_pos_as_xyz
1 x,y,z
_cell_length_a                   22.711(3)
_cell_length_b                   22.711(3)
_cell_length_c                   13.3033(19)
_cell_angle_alpha                90
_cell_angle_beta                 90
_cell_angle_gamma                120
_cell_volume                     5942.41
loop_
_atom_site_label
_atom_site_type_symbol
_atom_site_fract_x
_atom_site_fract_y
_atom_site_fract_z
Mo3 Mo 0.30346(9) 0.02974(9) 0.43821(11)
P1 P 0.3365(3) 0.0000 0.1667
O7 O 0.2349(7) 0.0703(6) 0.2008(8)
O9 O 0.2271(8) 0.0267(7) 0.3901(10)
O10 O 0.3572(7) 0.1151(7) 0.3604(9)
O11 O 0.3938(7) 0.0378(7) 0.4174(8)
O12 O 0.3114(7) 0.0575(8) 0.5563(9)
O13 O 0.4063(6) 0.0600(6) 0.1954(8)
Mo5 Mo 0.45408(10) 0.13190(10) 0.35862(12)
Mo6 Mo 0.52330(13) 0.06570(10) 0.19369(12)
O18 O 0.5174(7) 0.1058(7) 0.3256(9)
O19 O 0.4857(10) 0.1805(8) 0.4654(11)
O20 O 0.6025(11) 0.0794(8) 0.1998(11)
O22 O 0.3060(10) 0.0193(7) 0.0757(8)
Mo7 Mo 0.19804(13) 0.02106(10) 0.07215(12)
Zn3 Zn 0.32229(18) 0.14273(13) 0.24935(17)
Mo8 Mo 0.46863(13) 0.17637(9) 0.10971(13)
O25 O 0.2646(10) 0.1070(7) 0.0050(10)
O26 O 0.1295(13) 0.0268(10) 0.0518(11)
O28 O 0.3783(10) 0.1660(7) 0.1266(10)
N3 N 0.3166(13) 0.2270(9) 0.2693(13)
O29 O 0.4731(12) 0.1949(7) 0.2619(10)
O30 O 0.4865(9) 0.0192(6) 0.0660(9)
O31 O 0.5354(11) 0.1483(8) 0.1317(9)
O33 O 0.5171(11) 0.2546(7) 0.0670(12)
C14 C 0.2900(19) 0.2431(12) 0.1864(19)
C15 C 0.3503(22) 0.2792(16) 0.3382(18)
C16 C 0.2899(16) 0.3062(11) 0.1848(17)
H15 H 0.2725 0.2132 0.1325
C17 C 0.3538(16) 0.3397(12) 0.3378(18)
H16 H 0.3726 0.2711 0.3902
C18 C 0.3245(15) 0.3550(10) 0.2538(15)
H17 H 0.2654 0.3135 0.1351
H18 H 0.3745 0.3706 0.3900
C19 C 0.3278(16) 0.4206(12) 0.2401(14)
H19 H 0.3441 0.4476 0.3009
C20 C 0.3791(18) 0.4578(13) 0.1496(19)
H20 H 0.2832 0.4139 0.2242
C21 C 0.3818(16) 0.5240(11) 0.1099(16)
H21 H 0.3667 0.4260 0.0942
H22 H 0.4244 0.4692 0.1711
C22 C 0.4212(15) 0.5447(11) 0.0163(15)
H23 H 0.3361 0.5155 0.0976
H24 H 0.4030 0.5599 0.1595
C23 C 0.4879(19) 0.5872(14) 0.0136(17)
H25 H 0.5102 0.6074 0.0733
Mo9 Mo 0.36418(13) 0.13465(9) 0.98626(12)
O32 O 0.4416(9) 0.1179(6) 0.9901(9)
O34 O 0.3291(10) 0.0616(7) 0.8781(9)
O35 O 0.3890(12) 0.2034(8) 0.9180(11)
Zn4 Zn 0.44554(18) 0.03770(13) 0.95090(16)
N4 N 0.5008(13) 0.0726(9) 0.8275(13)
C24 C 0.3921(21) 0.5140(14) 0.9271(19)
C25 C 0.5259(20) 0.6028(15) 0.9257(16)
C26 C 0.4294(18) 0.5242(12) 0.8424(16)
H26 H 0.3452 0.4852 0.9243
H27 H 0.5716 0.6361 0.9275
N6 N 0.4992(13) 0.5718(9) 0.8391(13)
H28 H 0.4082 0.4990 0.7852
Zn6 Zn 0.55446(18) 0.59216(12) 0.71576(16)
Mo1 Mo 0.13465(9) 0.36418(13) 0.01374(12)
O2 O 0.1179(6) 0.4416(9) 0.0099(9)
O5 O 0.0616(7) 0.3291(10) 0.1219(9)
O6 O 0.2034(8) 0.3890(12) 0.0820(11)
Zn1 Zn 0.03770(13) 0.44554(18) 0.04910(16)
N1 N 0.0726(9) 0.5008(13) 0.1725(13)
C11 C 0.5140(14) 0.3921(21) 0.0729(19)
C12 C 0.6028(15) 0.5259(20) 0.0743(16)
C13 C 0.5242(12) 0.4294(18) 0.1576(16)
H12 H 0.4852 0.3452 0.0757
H13 H 0.6361 0.5716 0.0725
H14 H 0.4990 0.4082 0.2148
N5 N 0.5718(9) 0.4992(13) 0.1609(13)
Zn5 Zn 0.59216(12) 0.55446(18) 0.28424(16)
C16_2 C 0.0163(19) 0.7101(16) 0.5182(17)
C18_2 C 0.0305(18) 0.6755(15) 0.5872(15)
H17_2 H 0.0481 0.7346 0.4685
C19_2 C 0.0928(20) 0.6722(16) 0.5735(14)
H19_2 H 0.1035 0.6559 0.6343
C20_2 C 0.0787(22) 0.6209(18) 0.4830(19)
H20_2 H 0.1307 0.7168 0.5576
C21_2 C 0.1422(19) 0.6182(16) 0.4433(16)
H21_2 H 0.0593 0.6333 0.4276
H22_2 H 0.0448 0.5756 0.5045
C22_2 C 0.1235(19) 0.5788(15) 0.3497(15)
H23_2 H 0.1794 0.6639 0.4310
H24_2 H 0.1569 0.5970 0.4929
C23_2 C 0.0993(24) 0.5121(19) 0.3470(17)
C24_2 C 0.1219(25) 0.6079(21) 0.2605(19)
C25_2 C 0.0769(25) 0.4741(20) 0.2591(16)
H25_2 H 0.0972 0.4898 0.4067
C26_2 C 0.0948(22) 0.5706(18) 0.1758(16)
H26_2 H 0.1400 0.6548 0.2577
H27_2 H 0.0645 0.4284 0.2609
H28_2 H 0.0908 0.5918 0.1186
C3 C 0.7101(16) 0.0163(11) 0.4818(17)
C5 C 0.6755(15) 0.0305(11) 0.4128(15)
H3 H 0.7346 0.0481 0.5315
C6 C 0.6722(16) 0.0928(11) 0.4265(14)
H5 H 0.6559 0.1035 0.3657
C7 C 0.6209(18) 0.0787(12) 0.5170(19)
H6 H 0.7168 0.1307 0.4424
C8 C 0.6182(16) 0.1422(12) 0.5567(16)
H7 H 0.6333 0.0593 0.5724
H8 H 0.5756 0.0448 0.4955
C9 C 0.5788(15) 0.1235(10) 0.6503(15)
H9 H 0.6639 0.1794 0.5690
H10 H 0.5970 0.1569 0.5071
C10 C 0.5121(19) 0.0993(13) 0.6530(17)
C11_2 C 0.6079(21) 0.1219(16) 0.7395(19)
C12_2 C 0.4741(20) 0.0769(13) 0.7409(16)
H11 H 0.4898 0.0972 0.5933
C13_2 C 0.5706(18) 0.0948(13) 0.8242(16)
H12_2 H 0.6548 0.1400 0.7423
H13_2 H 0.4284 0.0645 0.7391
H14_2 H 0.5918 0.0908 0.8814
Mo1_2 Mo 0.63582(13) 0.77047(9) 0.68040(12)
O1 O 0.6940(10) 0.7133(7) 0.5909(8)
O2_2 O 0.5584(9) 0.6763(7) 0.6765(9)
O3 O 0.6217(10) 0.7877(7) 0.5400(10)
O4 O 0.7354(10) 0.8424(7) 0.6616(10)
O5_2 O 0.6709(10) 0.7325(7) 0.7885(9)
O6_2 O 0.6110(12) 0.8144(9) 0.7486(11)
Mo2 Mo 0.80196(13) 0.82302(9) 0.59451(12)
Mo3_2 Mo 0.72628(13) 0.69654(9) 0.77154(11)
P1_2 P 0.6635(3) 0.6635(3) 0.5000
Mo4 Mo 0.53137(13) 0.70774(10) 0.55695(13)
Zn2 Zn 0.67771(18) 0.82044(13) 0.41731(17)
O7_2 O 0.8354(9) 0.7651(7) 0.5341(8)
O8 O 0.8705(13) 0.8973(9) 0.6148(11)
O9_2 O 0.7996(11) 0.7729(8) 0.7234(10)
O10_2 O 0.7579(10) 0.6428(7) 0.6937(9)
O11_2 O 0.6440(10) 0.6062(7) 0.7507(8)
O12_2 O 0.7461(11) 0.6886(7) 0.8896(9)
O13_2 O 0.6537(8) 0.5937(6) 0.5287(8)
O14 O 0.4646(11) 0.6129(7) 0.5349(9)
O15 O 0.4829(11) 0.7375(8) 0.5996(12)
O16 O 0.5269(12) 0.7218(10) 0.4047(10)
O17 O 0.5135(9) 0.5327(7) 0.6006(9)
N2 N 0.6834(13) 0.9104(9) 0.3973(13)
Mo5_2 Mo 0.67782(14) 0.54592(10) 0.69195(12)
Mo6_2 Mo 0.54240(16) 0.47670(13) 0.52702(12)
C1 C 0.7100(19) 0.9531(15) 0.4802(19)
C2 C 0.6497(22) 0.9289(15) 0.3284(18)
O18_2 O 0.5884(10) 0.4826(7) 0.6589(9)
O19_2 O 0.6948(13) 0.5143(10) 0.7987(11)
O20_2 O 0.4769(14) 0.3975(11) 0.5331(11)
H1 H 0.7275 0.9407 0.5341
C4 C 0.6462(16) 0.9859(10) 0.3288(18)
H2 H 0.6274 0.8985 0.2764
H4 H 0.6255 0.9961 0.2766
O21 O 0.7651(11) 0.8354(9) 0.4659(8)
O22_2 O 0.7133(12) 0.6940(10) 0.4091(8)
O23 O 0.5937(10) 0.6537(8) 0.4713(8)
O24 O 0.6428(12) 0.7579(10) 0.3063(9)
Mo7_2 Mo 0.82302(16) 0.80196(13) 0.40549(12)
Zn3_2 Zn 0.82044(22) 0.67771(18) 0.58269(17)
Mo8_2 Mo 0.70774(16) 0.53137(13) 0.44305(13)
Mo9_2 Mo 0.77047(16) 0.63582(13) 0.31960(12)
Mo10 Mo 0.69654(16) 0.72628(13) 0.22846(11)
Mo11 Mo 0.47670(19) 0.54240(16) 0.47298(12)
Mo12 Mo 0.54592(17) 0.67782(14) 0.30805(12)
O25_2 O 0.8424(12) 0.7354(10) 0.3384(10)
O26_2 O 0.8973(16) 0.8705(13) 0.3852(11)
O27 O 0.7729(13) 0.7996(11) 0.2766(10)
O28_2 O 0.7877(12) 0.6217(10) 0.4600(10)
N3_2 N 0.9104(16) 0.6834(13) 0.6027(13)
O29_2 O 0.7218(14) 0.5269(12) 0.5953(10)
O30_2 O 0.5327(11) 0.5135(9) 0.3994(9)
O31_2 O 0.6129(14) 0.4646(11) 0.4651(9)
O32_2 O 0.6763(11) 0.5584(9) 0.3235(9)
O33_2 O 0.7375(13) 0.4829(11) 0.4004(12)
O34_2 O 0.7325(12) 0.6709(10) 0.2115(9)
O35_2 O 0.8144(14) 0.6110(12) 0.2514(11)
O36 O 0.6062(12) 0.6440(10) 0.2493(8)
O37 O 0.6886(14) 0.7461(11) 0.1104(9)
O38 O 0.3975(16) 0.4769(14) 0.4669(11)
O39 O 0.4826(12) 0.5884(10) 0.3411(9)
O40 O 0.5143(15) 0.6948(13) 0.2013(11)
C14_2 C 0.9531(22) 0.7100(19) 0.5198(19)
C15_2 C 0.9289(27) 0.6497(22) 0.6716(18)
H15_2 H 0.9407 0.7275 0.4659
C17_2 C 0.9859(20) 0.6462(16) 0.6712(18)
H16_2 H 0.8985 0.6274 0.7236
H18_2 H 0.9961 0.6255 0.7234
Mo1_3 Mo 0.22953(9) 0.86535(9) 0.34707(12)
O1_2 O 0.2867(7) 0.9807(7) 0.2576(8)
O2_3 O 0.3237(7) 0.8821(6) 0.3432(9)
O3_2 O 0.2123(7) 0.8340(7) 0.2067(10)
O4_2 O 0.1576(7) 0.8930(7) 0.3283(10)
O5_3 O 0.2675(7) 0.9384(7) 0.4552(9)
O6_3 O 0.1856(9) 0.7966(8) 0.4153(11)
Mo2_2 Mo 0.17698(9) 0.97894(10) 0.26118(12)
P1_3 P 0.3365(3) 1.0000 0.1667
Mo4_2 Mo 0.29226(10) 0.82363(9) 0.22362(13)
Zn1_2 Zn 0.40784(12) 0.96230(13) 0.38243(16)
Zn2_2 Zn 0.17956(13) 0.85727(13) 0.08398(17)
O8_2 O 0.1027(9) 0.9732(10) 0.2815(11)
O14_2 O 0.3871(7) 0.8517(8) 0.2016(9)
O15_2 O 0.2625(8) 0.7454(7) 0.2663(12)
O16_2 O 0.2782(10) 0.8051(7) 0.0714(10)
O17_2 O 0.4673(7) 0.9808(6) 0.2673(9)
N1_2 N 0.4282(9) 0.9274(9) 0.5058(13)
N2_2 N 0.0896(9) 0.7730(9) 0.0640(13)
C1_2 C 0.0469(15) 0.7569(12) 0.1469(19)
H1_2 H 0.0593 0.7868 0.2008
O21_2 O 0.1646(9) 0.9297(6) 0.1325(8)
O23_2 O 0.3463(8) 0.9400(6) 0.1379(8)
Mo11_2 Mo 0.45760(16) 0.93430(10) 0.13964(12)
O38_2 O 0.5231(14) 0.9206(8) 0.1335(11)
O39_2 O 0.4116(10) 0.8942(7) 0.0077(9)
C16_3 C 0.6938(11) 0.9837(19) 0.8515(17)
C18_3 C 0.6450(10) 0.9695(18) 0.9205(15)
H17_3 H 0.6865 0.9519 0.8018
C19_3 C 0.5794(12) 0.9072(20) 0.9068(14)
H19_3 H 0.5524 0.8965 0.9676
C20_3 C 0.5422(13) 0.9213(22) 0.8163(19)
H20_3 H 0.5861 0.8693 0.8909
C21_3 C 0.4760(11) 0.8578(19) 0.7766(16)
H21_3 H 0.5740 0.9407 0.7609
H22_3 H 0.5308 0.9552 0.8378
C22_3 C 0.4553(11) 0.8765(19) 0.6830(15)
H23_3 H 0.4845 0.8206 0.7643
H24_3 H 0.4401 0.8431 0.8262
C23_3 C 0.4128(14) 0.9007(24) 0.6803(17)
C24_3 C 0.4860(14) 0.8781(25) 0.5938(19)
C25_3 C 0.3972(15) 0.9231(25) 0.5924(16)
H25_3 H 0.3926 0.9028 0.7400
C26_3 C 0.4758(12) 0.9052(22) 0.5091(16)
H26_3 H 0.5148 0.8600 0.5910
H27_3 H 0.3639 0.9355 0.5942
H28_3 H 0.5010 0.9092 0.4519
C2_2 C 0.0711(15) 0.7208(16) 0.9951(18)
C4_2 C 0.0141(10) 0.6603(12) 0.9955(18)
H2_2 H 0.1015 0.7289 0.9431
H4_2 H 0.0039 0.6294 0.9433
O24_2 O 0.2421(10) 0.8849(7) 0.9729(9)
Mo10_2 Mo 0.27372(13) 0.97026(9) 0.89512(11)
Mo12_2 Mo 0.32218(14) 0.86810(10) 0.97471(12)
O27_2 O 0.2004(11) 0.9733(7) 0.9432(10)
O36_2 O 0.3560(10) 0.9622(7) 0.9159(8)
O37_2 O 0.2539(11) 0.9425(8) 0.7770(9)
O40_2 O 0.3052(13) 0.8195(8) 0.8679(11)
C3_2 C 0.9837(11) 0.6938(11) 0.1485(17)
C5_2 C 0.9695(11) 0.6450(10) 0.0795(15)
H3_2 H 0.9519 0.6865 0.1982
C6_2 C 0.9072(11) 0.5794(12) 0.0932(14)
H5_2 H 0.8965 0.5524 0.0324
C7_2 C 0.9213(12) 0.5422(13) 0.1837(19)
H6_2 H 0.8693 0.5861 0.1091
C8_2 C 0.8578(12) 0.4760(11) 0.2234(16)
H7_2 H 0.9407 0.5740 0.2391
H8_2 H 0.9552 0.5308 0.1622
C9_2 C 0.8765(10) 0.4553(11) 0.3170(15)
H9_2 H 0.8206 0.4845 0.2357
H10_2 H 0.8431 0.4401 0.1738
C10_2 C 0.9007(13) 0.4128(14) 0.3197(17)
C11_3 C 0.8781(16) 0.4860(14) 0.4062(19)
C12_3 C 0.9231(13) 0.3972(15) 0.4076(16)
H11_2 H 0.9028 0.3926 0.2600
C13_3 C 0.9052(13) 0.4758(12) 0.4909(16)
H12_3 H 0.8600 0.5148 0.4090
H13_3 H 0.9355 0.3639 0.4058
H14_3 H 0.9092 0.5010 0.5481
N5_2 N 0.9274(9) 0.4282(9) 0.4942(13)
Zn5_2 Zn 0.96230(13) 0.40784(12) 0.61757(16)
P1_4 P 1.0000 0.3365(3) 0.8334
O7_3 O 0.9297(6) 0.1646(9) 0.8675(8)
O13_3 O 0.9400(6) 0.3463(8) 0.8621(8)
Mo6_3 Mo 0.93430(10) 0.45760(16) 0.86036(12)
O18_3 O 0.8942(7) 0.4116(10) 0.9923(9)
O20_3 O 0.9206(8) 0.5231(14) 0.8665(11)
O22_3 O 0.9807(7) 0.2867(12) 0.7424(8)
Mo7_3 Mo 0.97894(10) 0.17698(16) 0.73882(12)
Zn3_3 Zn 0.85727(13) 0.17956(22) 0.91602(17)
Mo8_3 Mo 0.82363(9) 0.29226(16) 0.77638(13)
Mo9_3 Mo 0.86535(9) 0.22953(16) 0.65293(12)
O25_3 O 0.8930(7) 0.1576(12) 0.6717(10)
O26_3 O 0.9732(10) 0.1027(16) 0.7185(11)
O28_3 O 0.8340(7) 0.2123(12) 0.7933(10)
N3_3 N 0.7730(9) 0.0896(16) 0.9360(13)
O29_3 O 0.8051(7) 0.2782(14) 0.9286(10)
O30_3 O 0.9808(6) 0.4673(11) 0.7327(9)
O31_3 O 0.8517(8) 0.3871(14) 0.7984(9)
O32_3 O 0.8821(6) 0.3237(11) 0.6568(9)
O33_3 O 0.7454(7) 0.2625(13) 0.7337(12)
O34_3 O 0.9384(7) 0.2675(12) 0.5448(9)
O35_3 O 0.7966(8) 0.1856(14) 0.5847(11)
C14_3 C 0.7569(12) 0.0469(22) 0.8531(19)
H15_3 H 0.7868 0.0593 0.7992
O1_3 O 0.0193(7) 0.3060(10) 0.9243(8)
O3_3 O 0.1660(7) 0.3783(10) 0.8734(10)
O4_3 O 0.1070(7) 0.2646(10) 0.9950(10)
Mo2_3 Mo 0.02106(10) 0.19804(13) 0.92785(12)
P1_5 P -0.0000 0.3365(3) 0.8334
Mo4_3 Mo 0.17637(9) 0.46863(13) 0.89029(13)
Zn2_3 Zn 0.14273(13) 0.32229(18) 0.75065(17)
O8_3 O 0.0268(10) 0.1295(13) 0.9482(11)
O14_3 O 0.1483(8) 0.5354(11) 0.8683(9)
O15_3 O 0.2546(7) 0.5171(11) 0.9330(12)
O16_3 O 0.1949(7) 0.4731(12) 0.7381(10)
O17_3 O 0.0192(6) 0.4865(9) 0.9340(9)
N2_3 N 0.2270(9) 0.3166(13) 0.7307(13)
C1_3 C 0.2431(12) 0.2900(19) 0.8136(19)
C2_3 C 0.2792(16) 0.3503(22) 0.6618(18)
C3_3 C 0.3062(11) 0.2899(16) 0.8152(17)
H1_3 H 0.2132 0.2725 0.8675
C4_3 C 0.3397(12) 0.3538(16) 0.6622(18)
H2_3 H 0.2711 0.3726 0.6098
C5_3 C 0.3550(10) 0.3245(15) 0.7462(15)
H3_3 H 0.3135 0.2654 0.8649
H4_3 H 0.3706 0.3745 0.6100
C6_3 C 0.4206(12) 0.3278(16) 0.7599(14)
H5_3 H 0.4476 0.3441 0.6991
C7_3 C 0.4578(13) 0.3791(18) 0.8504(19)
H6_3 H 0.4139 0.2832 0.7758
C8_3 C 0.5240(11) 0.3818(16) 0.8901(16)
H7_3 H 0.4260 0.3667 0.9058
H8_3 H 0.4692 0.4244 0.8289
C9_3 C 0.5447(11) 0.4212(15) 0.9837(15)
H9_3 H 0.5155 0.3361 0.9024
H10_3 H 0.5599 0.4030 0.8405
C10_3 C 0.5872(14) 0.4879(19) 0.9864(17)
H11_3 H 0.6074 0.5102 0.9267
O21_3 O 0.0703(6) 0.2349(11) 0.7992(8)
O23_3 O 0.0600(6) 0.4063(10) 0.8046(8)
O24_3 O 0.1151(7) 0.3572(12) 0.6396(9)
Mo10_3 Mo 0.02974(9) 0.30346(16) 0.56179(11)
Mo11_3 Mo 0.06570(10) 0.52330(19) 0.80631(12)
Mo12_3 Mo 0.13190(10) 0.45408(17) 0.64138(12)
O27_3 O 0.0267(7) 0.2271(13) 0.6099(10)
O36_3 O 0.0378(7) 0.3938(12) 0.5826(8)
O37_3 O 0.0575(8) 0.3114(14) 0.4437(9)
O38_3 O 0.0794(8) 0.6025(16) 0.8002(11)
O39_3 O 0.1058(7) 0.5174(12) 0.6744(9)
O40_3 O 0.1805(8) 0.4857(15) 0.5346(11)
Mo3_3 Mo 0.97026(9) 0.27372(13) 0.10488(11)
O9_3 O 0.9733(7) 0.2004(11) 0.0568(10)
O10_3 O 0.8849(7) 0.2421(10) 0.0271(9)
O11_3 O 0.9622(7) 0.3560(10) 0.0841(8)
O12_3 O 0.9425(8) 0.2539(11) 0.2230(9)
Mo5_3 Mo 0.86810(10) 0.32218(14) 0.02529(12)
O19_3 O 0.8195(8) 0.3052(13) 0.1321(11)
C15_3 C 0.7208(16) 0.0711(27) 0.0049(18)
C17_3 C 0.6603(12) 0.0141(20) 0.0045(18)
H16_3 H 0.7289 0.1015 0.0569
H18_3 H 0.6294 0.0039 0.0567
loop_
_geom_bond_atom_site_label_1
_geom_bond_atom_site_label_2
_geom_bond_site_symmetry_1
_geom_bond_site_symmetry_2
O10 Mo3 1_555 1_555
O11 Mo3 1_555 1_555
O12 Mo3 1_555 1_555
O13 P1 1_555 1_555
Mo5 O10 1_555 1_555
Mo6 O13 1_555 1_555
O18 Mo5 1_555 1_555
O19 Mo5 1_555 1_555
O20 Mo6 1_555 1_555
O22 P1 1_555 1_555
Mo7 O7 1_555 1_555
Zn3 O7 1_555 1_555
Mo8 O13 1_555 1_555
O25 Mo7 1_555 1_555
O26 Mo7 1_555 1_555
O28 Zn3 1_555 1_555
N3 Zn3 1_555 1_555
O29 Mo5 1_555 1_555
O30 Mo6 1_555 1_555
O31 Mo6 1_555 1_555
O33 Mo8 1_555 1_555
C14 N3 1_555 1_555
C15 N3 1_555 1_555
C16 C14 1_555 1_555
H15 C14 1_555 1_555
C17 C15 1_555 1_555
H16 C15 1_555 1_555
C18 C16 1_555 1_555
H17 C16 1_555 1_555
H18 C17 1_555 1_555
C19 C18 1_555 1_555
H19 C19 1_555 1_555
C20 C19 1_555 1_555
H20 C19 1_555 1_555
C21 C20 1_555 1_555
H21 C20 1_555 1_555
H22 C20 1_555 1_555
C22 C21 1_555 1_555
H23 C21 1_555 1_555
H24 C21 1_555 1_555
C23 C22 1_555 1_555
H25 C23 1_555 1_555
Mo3 O9 1_555 1_555
O10 Zn3 1_555 1_555
O11 Mo5 1_555 1_555
O13 Mo5 1_555 1_555
Mo6 O18 1_555 1_555
O22 Mo7 1_555 1_555
Mo8 O28 1_555 1_555
Mo8 O29 1_555 1_555
Mo8 O31 1_555 1_555
C17 C18 1_555 1_555
O34 Mo9 1_555 1_555
O35 Mo9 1_555 1_555
N4 Zn4 1_555 1_555
C26 C24 1_555 1_555
H26 C24 1_555 1_555
H27 C25 1_555 1_555
N6 C25 1_555 1_555
H28 C26 1_555 1_555
Zn6 N6 1_555 1_555
Mo9 O32 1_555 1_555
O32 Zn4 1_555 1_555
C26 N6 1_555 1_555
O2 Mo1 1_555 1_555
O5 Mo1 1_555 1_555
O6 Mo1 1_555 1_555
Zn1 O2 1_555 1_555
N1 Zn1 1_555 1_555
C13 C11 1_555 1_555
H12 C11 1_555 1_555
H13 C12 1_555 1_555
H14 C13 1_555 1_555
N5 C12 1_555 1_555
Zn5 N5 1_555 1_555
C13 N5 1_555 1_555
C18_2 C16_2 1_555 1_555
H17_2 C16_2 1_555 1_555
C19_2 C18_2 1_555 1_555
H19_2 C19_2 1_555 1_555
C20_2 C19_2 1_555 1_555
H20_2 C19_2 1_555 1_555
C21_2 C20_2 1_555 1_555
H21_2 C20_2 1_555 1_555
H22_2 C20_2 1_555 1_555
C22_2 C21_2 1_555 1_555
H23_2 C21_2 1_555 1_555
H24_2 C21_2 1_555 1_555
C23_2 C22_2 1_555 1_555
C24_2 C22_2 1_555 1_555
C25_2 C23_2 1_555 1_555
H25_2 C23_2 1_555 1_555
C26_2 C24_2 1_555 1_555
H26_2 C24_2 1_555 1_555
H27_2 C25_2 1_555 1_555
N1 C25_2 1_555 1_555
H28_2 C26_2 1_555 1_555
C26_2 N1 1_555 1_555
C5 C3 1_555 1_555
H3 C3 1_555 1_555
C6 C5 1_555 1_555
H5 C6 1_555 1_555
C7 C6 1_555 1_555
H6 C6 1_555 1_555
C8 C7 1_555 1_555
H7 C7 1_555 1_555
H8 C7 1_555 1_555
C9 C8 1_555 1_555
H9 C8 1_555 1_555
H10 C8 1_555 1_555
C10 C9 1_555 1_555
C11_2 C9 1_555 1_555
C12_2 C10 1_555 1_555
H11 C10 1_555 1_555
C13_2 C11_2 1_555 1_555
H12_2 C11_2 1_555 1_555
H13_2 C12_2 1_555 1_555
H14_2 C13_2 1_555 1_555
N4 C12_2 1_555 1_555
C13_2 N4 1_555 1_555
Mo1_2 O1 1_555 1_555
O1 Mo2 1_555 1_555
O2_2 Mo1_2 1_555 1_555
O3 Mo1_2 1_555 1_555
O4 Mo1_2 1_555 1_555
O5_2 Mo1_2 1_555 1_555
O6_2 Mo1_2 1_555 1_555
Mo2 O4 1_555 1_555
Mo3_2 O1 1_555 1_555
P1_2 O1 1_555 1_555
Mo4 O2_2 1_555 1_555
Zn6 O2_2 1_555 1_555
Zn2 O3 1_555 1_555
O7_2 Mo2 1_555 1_555
O8 Mo2 1_555 1_555
O9_2 Mo2 1_555 1_555
O10_2 Mo3_2 1_555 1_555
O11_2 Mo3_2 1_555 1_555
O12_2 Mo3_2 1_555 1_555
O13_2 P1_2 1_555 1_555
O14 Mo4 1_555 1_555
O15 Mo4 1_555 1_555
O16 Mo4 1_555 1_555
O17 Zn6 1_555 1_555
N2 Zn2 1_555 1_555
Mo5_2 O10_2 1_555 1_555
Mo6_2 O13_2 1_555 1_555
C1 N2 1_555 1_555
C2 N2 1_555 1_555
O18_2 Mo5_2 1_555 1_555
O19_2 Mo5_2 1_555 1_555
O20_2 Mo6_2 1_555 1_555
H1 C1 1_555 1_555
C4 C2 1_555 1_555
H2 C2 1_555 1_555
H4 C4 1_555 1_555
O21 Mo2 1_555 1_555
O22_2 P1_2 1_555 1_555
O23 P1_2 1_555 1_555
O24 Zn2 1_555 1_555
Mo7_2 O7_2 1_555 1_555
Zn3_2 O7_2 1_555 1_555
Mo8_2 O13_2 1_555 1_555
Mo9_2 O22_2 1_555 1_555
Mo10 O22_2 1_555 1_555
Mo11 O14 1_555 1_555
Mo12 O16 1_555 1_555
O25_2 Mo7_2 1_555 1_555
O26_2 Mo7_2 1_555 1_555
O27 Mo7_2 1_555 1_555
O28_2 Zn3_2 1_555 1_555
N3_2 Zn3_2 1_555 1_555
O29_2 Mo5_2 1_555 1_555
O30_2 Mo6_2 1_555 1_555
O31_2 Mo6_2 1_555 1_555
O32_2 Mo8_2 1_555 1_555
O33_2 Mo8_2 1_555 1_555
O34_2 Mo9_2 1_555 1_555
O35_2 Mo9_2 1_555 1_555
O36 Mo10 1_555 1_555
O37 Mo10 1_555 1_555
O38 Mo11 1_555 1_555
O39 Mo11 1_555 1_555
O40 Mo12 1_555 1_555
C14_2 N3_2 1_555 1_555
C15_2 N3_2 1_555 1_555
Zn5 O30_2 1_555 1_555
H15_2 C14_2 1_555 1_555
C17_2 C15_2 1_555 1_555
H16_2 C15_2 1_555 1_555
H18_2 C17_2 1_555 1_555
O3 Mo4 1_555 1_555
O5_2 Mo3_2 1_555 1_555
Mo3_2 O9_2 1_555 1_555
Mo4 O23 1_555 1_555
Zn6 O11_2 1_555 1_555
Zn2 O21 1_555 1_555
O10_2 Zn3_2 1_555 1_555
O11_2 Mo5_2 1_555 1_555
O13_2 Mo5_2 1_555 1_555
O17 Mo6_2 1_555 1_555
O17 Mo11 1_555 1_555
Mo6_2 O18_2 1_555 1_555
O21 Mo7_2 1_555 1_555
O22_2 Mo7_2 1_555 1_555
O23 Mo11 1_555 1_555
O23 Mo12 1_555 1_555
O24 Mo10 1_555 1_555
O24 Mo12 1_555 1_555
Mo8_2 O28_2 1_555 1_555
Mo8_2 O29_2 1_555 1_555
Mo8_2 O31_2 1_555 1_555
Mo9_2 O25_2 1_555 1_555
Mo9_2 O28_2 1_555 1_555
Mo9_2 O32_2 1_555 1_555
Mo10 O27 1_555 1_555
Mo10 O34_2 1_555 1_555
Mo11 O30_2 1_555 1_555
Mo12 O36 1_555 1_555
Mo12 O39 1_555 1_555
O32_2 Zn5 1_555 1_555
O36 Zn5 1_555 1_555
Mo1_3 O1_2 1_555 1_555
O1_2 Mo2_2 1_555 1_555
O2_3 Mo1_3 1_555 1_555
O3_2 Mo1_3 1_555 1_555
O4_2 Mo1_3 1_555 1_555
O5_3 Mo1_3 1_555 1_555
O6_3 Mo1_3 1_555 1_555
Mo2_2 O4_2 1_555 1_555
P1_3 O1_2 1_555 1_555
Mo4_2 O2_3 1_555 1_555
Zn1_2 O2_3 1_555 1_555
Zn2_2 O3_2 1_555 1_555
O8_2 Mo2_2 1_555 1_555
O14_2 Mo4_2 1_555 1_555
O15_2 Mo4_2 1_555 1_555
O16_2 Mo4_2 1_555 1_555
O17_2 Zn1_2 1_555 1_555
N1_2 Zn1_2 1_555 1_555
N2_2 Zn2_2 1_555 1_555
C1_2 N2_2 1_555 1_555
H1_2 C1_2 1_555 1_555
O21_2 Mo2_2 1_555 1_555
O23_2 P1_3 1_555 1_555
Mo11_2 O14_2 1_555 1_555
O38_2 Mo11_2 1_555 1_555
O39_2 Mo11_2 1_555 1_555
O3_2 Mo4_2 1_555 1_555
Mo4_2 O23_2 1_555 1_555
Zn2_2 O21_2 1_555 1_555
O17_2 Mo11_2 1_555 1_555
O23_2 Mo11_2 1_555 1_555
C18_3 C16_3 1_555 1_555
H17_3 C16_3 1_555 1_555
C19_3 C18_3 1_555 1_555
H19_3 C19_3 1_555 1_555
C20_3 C19_3 1_555 1_555
H20_3 C19_3 1_555 1_555
C21_3 C20_3 1_555 1_555
H21_3 C20_3 1_555 1_555
H22_3 C20_3 1_555 1_555
C22_3 C21_3 1_555 1_555
H23_3 C21_3 1_555 1_555
H24_3 C21_3 1_555 1_555
C23_3 C22_3 1_555 1_555
C24_3 C22_3 1_555 1_555
C25_3 C23_3 1_555 1_555
H25_3 C23_3 1_555 1_555
C26_3 C24_3 1_555 1_555
H26_3 C24_3 1_555 1_555
H27_3 C25_3 1_555 1_555
N1_2 C25_3 1_555 1_555
H28_3 C26_3 1_555 1_555
C26_3 N1_2 1_555 1_555
C4_2 C2_2 1_555 1_555
H2_2 C2_2 1_555 1_555
H4_2 C4_2 1_555 1_555
O36_2 Mo10_2 1_555 1_555
O37_2 Mo10_2 1_555 1_555
O40_2 Mo12_2 1_555 1_555
O24_2 Mo10_2 1_555 1_555
O24_2 Mo12_2 1_555 1_555
Mo10_2 O27_2 1_555 1_555
Mo12_2 O36_2 1_555 1_555
C5_2 C3_2 1_555 1_555
H3_2 C3_2 1_555 1_555
C6_2 C5_2 1_555 1_555
H5_2 C6_2 1_555 1_555
C7_2 C6_2 1_555 1_555
H6_2 C6_2 1_555 1_555
C8_2 C7_2 1_555 1_555
H7_2 C7_2 1_555 1_555
H8_2 C7_2 1_555 1_555
C9_2 C8_2 1_555 1_555
H9_2 C8_2 1_555 1_555
H10_2 C8_2 1_555 1_555
C10_2 C9_2 1_555 1_555
C11_3 C9_2 1_555 1_555
C12_3 C10_2 1_555 1_555
H11_2 C10_2 1_555 1_555
C13_3 C11_3 1_555 1_555
H12_3 C11_3 1_555 1_555
H13_3 C12_3 1_555 1_555
H14_3 C13_3 1_555 1_555
N5_2 C12_3 1_555 1_555
Zn5_2 N5_2 1_555 1_555
C13_3 N5_2 1_555 1_555
O13_3 P1_4 1_555 1_555
Mo6_3 O13_3 1_555 1_555
O20_3 Mo6_3 1_555 1_555
O22_3 P1_4 1_555 1_555
Mo7_3 O7_3 1_555 1_555
Zn3_3 O7_3 1_555 1_555
Mo8_3 O13_3 1_555 1_555
Mo9_3 O22_3 1_555 1_555
O25_3 Mo7_3 1_555 1_555
O26_3 Mo7_3 1_555 1_555
O28_3 Zn3_3 1_555 1_555
N3_3 Zn3_3 1_555 1_555
O30_3 Mo6_3 1_555 1_555
O31_3 Mo6_3 1_555 1_555
O32_3 Mo8_3 1_555 1_555
O33_3 Mo8_3 1_555 1_555
O34_3 Mo9_3 1_555 1_555
O35_3 Mo9_3 1_555 1_555
C14_3 N3_3 1_555 1_555
Zn5_2 O30_3 1_555 1_555
H15_3 C14_3 1_555 1_555
Mo6_3 O18_3 1_555 1_555
O22_3 Mo7_3 1_555 1_555
Mo8_3 O28_3 1_555 1_555
Mo8_3 O29_3 1_555 1_555
Mo8_3 O31_3 1_555 1_555
Mo9_3 O25_3 1_555 1_555
Mo9_3 O28_3 1_555 1_555
Mo9_3 O32_3 1_555 1_555
O32_3 Zn5_2 1_555 1_555
O1_3 Mo2_3 1_555 1_555
Mo2_3 O4_3 1_555 1_555
P1_5 O1_3 1_555 1_555
Zn2_3 O3_3 1_555 1_555
O8_3 Mo2_3 1_555 1_555
O14_3 Mo4_3 1_555 1_555
O15_3 Mo4_3 1_555 1_555
O16_3 Mo4_3 1_555 1_555
N2_3 Zn2_3 1_555 1_555
C1_3 N2_3 1_555 1_555
C2_3 N2_3 1_555 1_555
C3_3 C1_3 1_555 1_555
H1_3 C1_3 1_555 1_555
C4_3 C2_3 1_555 1_555
H2_3 C2_3 1_555 1_555
C5_3 C3_3 1_555 1_555
H3_3 C3_3 1_555 1_555
H4_3 C4_3 1_555 1_555
C6_3 C5_3 1_555 1_555
H5_3 C6_3 1_555 1_555
C7_3 C6_3 1_555 1_555
H6_3 C6_3 1_555 1_555
C8_3 C7_3 1_555 1_555
H7_3 C7_3 1_555 1_555
H8_3 C7_3 1_555 1_555
C9_3 C8_3 1_555 1_555
H9_3 C8_3 1_555 1_555
H10_3 C8_3 1_555 1_555
C10_3 C9_3 1_555 1_555
H11_3 C10_3 1_555 1_555
O21_3 Mo2_3 1_555 1_555
O23_3 P1_5 1_555 1_555
O24_3 Zn2_3 1_555 1_555
Mo11_3 O14_3 1_555 1_555
Mo12_3 O16_3 1_555 1_555
O36_3 Mo10_3 1_555 1_555
O37_3 Mo10_3 1_555 1_555
O38_3 Mo11_3 1_555 1_555
O39_3 Mo11_3 1_555 1_555
O40_3 Mo12_3 1_555 1_555
O3_3 Mo4_3 1_555 1_555
Mo4_3 O23_3 1_555 1_555
Zn2_3 O21_3 1_555 1_555
O17_3 Mo11_3 1_555 1_555
C4_3 C5_3 1_555 1_555
O23_3 Mo11_3 1_555 1_555
O23_3 Mo12_3 1_555 1_555
O24_3 Mo10_3 1_555 1_555
O24_3 Mo12_3 1_555 1_555
Mo10_3 O27_3 1_555 1_555
Mo12_3 O36_3 1_555 1_555
Mo12_3 O39_3 1_555 1_555
O10_3 Mo3_3 1_555 1_555
O11_3 Mo3_3 1_555 1_555
O12_3 Mo3_3 1_555 1_555
Mo5_3 O10_3 1_555 1_555
O19_3 Mo5_3 1_555 1_555
C17_3 C15_3 1_555 1_555
H16_3 C15_3 1_555 1_555
H18_3 C17_3 1_555 1_555
Mo3_3 O9_3 1_555 1_555
O11_3 Mo5_3 1_555 1_555

#END
