
###############################################################################
#
# This file contains modified crystal structure data generated from the
# MOF subset of the Cambridge Structural Database (CSD) v543 
# hosted by the Cambridge Crystallographic Data Centre (CCDC).
#
# This work is licensed under the Creative Commons
# Attribution-NonCommercial-ShareAlike 4.0 International License.
# To view a copy of this license, visit
# http://creativecommons.org/licenses/by-nc-sa/4.0/
# or send a letter to
# Creative Commons, PO Box 1866, Mountain View, CA 94042, USA.
#
# CIF created using the CSD Python API on 29 September 2022
# The structure has been converted into the P1 space group
# The structure has a 3D framework
# The original CSD entry OHUKIM is in the tetragonal crystal system
# The framework has been calculated to contain at least 10.0% void space
# The void calculation uses a probe of radius 1.32A, grid spacing 0.4
# H atom positions have been added when not included in the experimental data
# Generated hydrogen atom positions removed from atoms on special positions
#
###############################################################################

data_OHUKIM
_chemical_formula_moiety         '(C432 H306 Be48 O122)n'
_symmetry_cell_setting           triclinic
_symmetry_space_group_name_H-M   'P 1'
_symmetry_Int_Tables_number      1
_space_group_name_Hall           'P 1'
loop_
_symmetry_equiv_pos_site_id
_symmetry_equiv_pos_as_xyz
1 x,y,z
_cell_length_a                   24.3013(9)
_cell_length_b                   24.3013(9)
_cell_length_c                   54.570(3)
_cell_angle_alpha                90
_cell_angle_beta                 90
_cell_angle_gamma                90
_cell_volume                     32226.5
loop_
_atom_site_label
_atom_site_type_symbol
_atom_site_fract_x
_atom_site_fract_y
_atom_site_fract_z
O1 O 0.06521(4) 0.76597(4) 0.24416(2)
O3 O 0.33916(5) 0.39774(4) 0.477950(18)
H1 H 0.3574 0.3900 0.4629
O4 O 0.33751(4) 0.50240(4) 0.489030(17)
H2 H 0.3687 0.4978 0.4993
O5 O 0.01615(3) 0.16199(4) 0.239710(16)
H3 H 0.0199 0.1326 0.2511
O6 O 0.07904(4) 0.25049(4) 0.249290(19)
O7 O 0.29836(4) 0.55345(5) 0.450910(17)
O8 O 0.36254(5) 0.60804(5) 0.482690(18)
O10 O 0.13355(4) 0.80596(4) 0.263870(16)
O11 O 0.29393(5) 0.65639(5) 0.51226(2)
O12 O 0.16099(5) 0.22661(5) 0.26231(2)
C1 C 0.24944(7) 0.51386(7) 0.41845(3)
O13 O 0.26357(5) 0.57879(4) 0.49495(2)
C2 C 0.11119(6) 0.71371(6) 0.27338(2)
C4 C 0.10379(6) 0.76545(6) 0.25997(2)
O14 O 0.08830(4) 0.86601(4) 0.230650(16)
H5 H 0.0862 0.8973 0.2202
C5 C 0.20384(7) 0.62774(8) 0.52236(3)
O15 O 0.05214(5) 0.77374(5) 0.704600(19)
C6 C 0.08526(8) 0.62183(7) 0.28366(3)
H6 H 0.0604 0.5920 0.2817
C7 C 0.12936(7) 0.61692(6) 0.29971(3)
C8 C 0.16440(8) 0.56373(7) 0.33509(3)
H7 H 0.1706 0.5981 0.3429
C9 C 0.20107(8) 0.51571(7) 0.37249(3)
Be1 Be 0.34227(11) 0.35606(11) 0.49932(4)
C10 C 0.09193(8) 0.40271(7) 0.28512(3)
H8 H 0.0640 0.4299 0.2838
C11 C 0.14133(7) 0.56389(7) 0.31200(3)
C12 C 0.12635(7) 0.31238(7) 0.27419(3)
C14 C 0.00823(7) 0.75234(7) 0.66825(3)
C15 C 0.16497(8) 0.66008(7) 0.30172(3)
H10 H 0.1964 0.6562 0.3119
Be2 Be 0.32031(10) 0.56063(9) 0.48072(4)
C17 C 0.08735(7) 0.35282(8) 0.27261(3)
H11 H 0.0559 0.3467 0.2626
C18 C 0.00859(8) 0.77566(7) 0.69260(3)
C21 C 0.17897(9) 0.51648(7) 0.34750(4)
C22 C 0.17771(8) 0.37260(7) 0.30070(3)
H14 H 0.2093 0.3795 0.3105
C25 C 0.11515(7) 0.59484(8) 0.53224(3)
H16 H 0.0875 0.5674 0.5307
C26 C 0.07726(7) 0.66961(6) 0.27062(3)
H17 H 0.0474 0.6719 0.2594
C27 C 0.17425(8) 0.32189(7) 0.28814(3)
H18 H 0.2029 0.2954 0.2891
C28 C 0.10572(7) 0.63948(9) 0.54677(3)
O17 O 0.12178(4) 0.16218(6) 0.229360(19)
H20 H 0.1276 0.1385 0.2158
C31 C 0.13307(8) 0.51478(7) 0.30126(3)
H21 H 0.1178 0.5142 0.2852
C32 C 0.13818(9) 0.41185(7) 0.29953(3)
C33 C 0.00366(7) 0.63232(8) 0.54950(4)
H22 H 0.0030 0.6157 0.5337
C34 C 0.05287(9) 0.64708(9) 0.55955(4)
C36 C 0.05484(9) 0.67131(8) 0.58504(3)
H24 H 0.0884 0.6816 0.5927
C37 C 0.15706(7) 0.70933(6) 0.28945(3)
H25 H 0.1816 0.7394 0.2917
Be3 Be 0.30554(10) 0.45348(10) 0.48107(4)
C38 C 0.14543(8) 0.46604(7) 0.31210(3)
C39 C 0.16898(8) 0.46650(7) 0.33449(3)
H26 H 0.1792 0.4326 0.3418
C40 C 0.16342(7) 0.58879(7) 0.51988(3)
H27 H 0.1691 0.5578 0.5096
C41 C 0.25797(9) 0.61931(7) 0.50857(3)
C42 C 0.00381(9) 0.67756(8) 0.59662(4)
Be4 Be 0.06732(9) 0.19840(9) 0.23072(3)
C43 C 0.27712(7) 0.51123(6) 0.44335(3)
C44 C 0.00480(8) 0.70502(9) 0.62151(4)
C45 C 0.14790(9) 0.67768(9) 0.54970(3)
H28 H 0.1435 0.7080 0.5605
C46 C 0.04770(9) 0.69708(13) 0.63663(4)
H29 H 0.0773 0.6744 0.6314
Be5 Be 0.16521(8) 0.16521(8) 0.2500
C47 C 0.04987(8) 0.72123(12) 0.65974(4)
H30 H 0.0814 0.7156 0.6697
C48 C 0.23334(10) 0.55828(8) 0.38022(3)
H31 H 0.2397 0.5889 0.3698
C49 C 0.19343(11) 0.47356(9) 0.38728(4)
H32 H 0.1711 0.4434 0.3823
Be6 Be 0.04402(8) 0.82027(8) 0.22760(3)
Be7 Be 0.13646(8) 0.86354(8) 0.2500
O18 O 0.27488(5) 0.46697(5) 0.45423(2)
C51 C 0.12122(7) 0.25999(7) 0.26115(3)
C52 C 0.21979(9) 0.47371(10) 0.41145(3)
H34 H 0.2146 0.4432 0.4221
C53 C 0.25734(8) 0.55666(10) 0.40398(3)
H35 H 0.2792 0.5866 0.4095
C54 C 0.19619(8) 0.67108(8) 0.53676(4)
H36 H 0.2244 0.6980 0.5382
O19 O 0.76597(4) 0.06521(4) 0.25584(2)
O20 O 0.03367(4) 0.20184(5) 0.701130(17)
O21 O 0.03367(4) 0.79816(5) 0.201130(17)
O22 O 0.79816(5) 0.03367(4) 0.298870(17)
O23 O 0.39774(4) 0.33916(5) 0.022050(18)
H37 H 0.3900 0.3574 0.0371
O24 O 0.50240(4) 0.33751(4) 0.010970(17)
H38 H 0.4978 0.3687 0.0007
O26 O 0.16199(4) 0.01615(3) 0.260290(16)
H40 H 0.1326 0.0199 0.2489
O28 O 0.25049(4) 0.07904(4) 0.250710(19)
O29 O 0.55345(5) 0.29836(4) 0.049090(17)
O30 O 0.60804(5) 0.36254(5) 0.017310(18)
O31 O 0.39196(5) 0.36254(5) 0.517310(18)
O33 O 0.25241(4) 0.43854(4) 0.49854(2)
O34 O 0.43854(4) 0.25241(4) 0.00146(2)
O35 O 0.80596(4) 0.13355(4) 0.236130(16)
O36 O 0.19404(4) 0.86645(4) 0.236130(16)
O38 O 0.34361(5) 0.29393(5) 0.48774(2)
O39 O 0.29393(5) 0.34361(5) 0.01226(2)
O40 O 0.22661(5) 0.16099(5) 0.23769(2)
C55 C 0.51386(7) 0.24944(7) 0.08155(3)
O42 O 0.57879(4) 0.26357(5) 0.00505(2)
C56 C 0.71371(6) 0.11119(6) 0.22662(2)
C57 C 0.19723(7) 0.38858(8) 0.52578(3)
C58 C 0.76545(6) 0.10379(6) 0.24003(2)
O43 O 0.13399(4) 0.91170(4) 0.269350(16)
O44 O 0.86601(4) 0.08830(4) 0.269350(16)
H45 H 0.1027 0.9138 0.2798
H46 H 0.8973 0.0862 0.2798
O46 O 0.05214(5) 0.22626(5) 0.204600(19)
O47 O 0.22626(5) 0.05214(5) 0.295400(19)
O48 O 0.28505(5) 0.36142(5) 0.515160(19)
C60 C 0.62183(7) 0.08526(8) 0.21634(3)
H47 H 0.5920 0.0604 0.2183
C61 C 0.61692(6) 0.12936(7) 0.20029(3)
C62 C 0.56373(7) 0.16440(8) 0.16491(3)
H48 H 0.5981 0.1706 0.1571
C63 C 0.51571(7) 0.20107(8) 0.12751(3)
Be8 Be 0.35606(11) 0.34227(11) 0.00068(4)
Be9 Be 0.35606(11) 0.65773(11) 0.50068(4)
C64 C 0.40271(7) 0.09193(8) 0.21488(3)
H49 H 0.4299 0.0640 0.2162
C65 C 0.56389(7) 0.14133(7) 0.18800(3)
C66 C 0.31238(7) 0.12635(7) 0.22581(3)
C67 C 0.10506(8) 0.41508(8) 0.53478(3)
H50 H 0.0751 0.4396 0.5323
C69 C 0.66008(7) 0.16497(8) 0.19828(3)
H51 H 0.6562 0.1964 0.1881
C70 C 0.24904(7) 0.39700(8) 0.51128(3)
Be13 Be 0.56063(9) 0.32031(10) 0.01928(4)
C71 C 0.35282(8) 0.08735(7) 0.22739(3)
H52 H 0.3467 0.0559 0.2374
C73 C 0.14362(8) 0.33399(8) 0.55271(3)
H53 H 0.1396 0.3022 0.5627
C74 C 0.04598(9) 0.33468(9) 0.58606(4)
H54 H 0.0795 0.3274 0.5944
C75 C 0.51648(7) 0.17897(9) 0.15250(4)
C76 C 0.37260(7) 0.17771(8) 0.19930(3)
H55 H 0.3795 0.2093 0.1895
C77 C 0.09822(8) 0.37103(10) 0.54996(3)
C78 C 0.19200(8) 0.34356(8) 0.54137(3)
H56 H 0.2224 0.3197 0.5440
C80 C 0.66961(6) 0.07726(7) 0.22938(3)
H58 H 0.6719 0.0474 0.2406
C81 C 0.32189(7) 0.17425(8) 0.21186(3)
H59 H 0.2954 0.2029 0.2109
C83 C 0.03864(9) 0.27028(11) 0.63053(3)
H60 H 0.0721 0.2719 0.6215
C84 C 0.04585(8) 0.35891(9) 0.56189(4)
O50 O 0.16218(6) 0.12178(4) 0.270640(19)
H61 H 0.1385 0.1276 0.2842
C85 C 0.51478(7) 0.13307(8) 0.19874(3)
H62 H 0.5142 0.1178 0.2148
C86 C 0.41185(7) 0.13818(9) 0.20047(3)
C89 C 0.15381(8) 0.42499(8) 0.52294(3)
H64 H 0.1578 0.4566 0.5129
C91 C 0.70933(6) 0.15706(7) 0.21055(3)
H66 H 0.7394 0.1816 0.2083
Be15 Be 0.45348(10) 0.30554(10) 0.01893(4)
C92 C 0.46604(7) 0.14543(8) 0.18790(3)
C93 C 0.46650(7) 0.16898(8) 0.16551(3)
H67 H 0.4326 0.1792 0.1582
Be17 Be 0.19840(9) 0.06732(9) 0.26928(3)
Be18 Be 0.06732(9) 0.80160(9) 0.73072(3)
C97 C 0.51123(6) 0.27712(7) 0.05665(3)
C102 C 0.55828(8) 0.23334(10) 0.11978(3)
H72 H 0.5889 0.2397 0.1302
C103 C 0.47356(9) 0.19343(11) 0.11272(4)
H73 H 0.4434 0.1711 0.1177
Be21 Be 0.82027(8) 0.04402(8) 0.27240(3)
Be24 Be 0.04402(8) 0.17973(8) 0.72760(3)
Be25 Be 0.17973(8) 0.95598(8) 0.27240(3)
C104 C 0.03823(8) 0.24173(9) 0.65273(3)
H74 H 0.0683 0.2189 0.6573
Be26 Be 0.86354(8) 0.13646(8) 0.2500
O51 O 0.46697(5) 0.27488(5) 0.04577(2)
C105 C 0.25999(7) 0.12122(7) 0.23885(3)
C106 C 0.47371(10) 0.21979(9) 0.08855(3)
H75 H 0.4432 0.2146 0.0779
C107 C 0.55666(10) 0.25734(8) 0.09602(3)
H76 H 0.5866 0.2792 0.0905
O32 O 0.36254(5) 0.39196(5) 0.982690(18)
O49 O 0.36142(5) 0.28505(5) 0.984840(19)
Be12 Be 0.65773(11) 0.35606(11) 0.99932(4)
O27 O 0.83801(4) 0.98385(3) 0.260290(16)
H41 H 0.8674 0.9801 0.2489
H78 H 0.847206 0.959467 0.274306
H79 H 0.18814 0.989523 0.25288
O2 O 0.96633(4) 0.79816(5) 0.701130(17)
O9 O 0.74759(4) 0.56146(4) 0.49854(2)
C3 C 0.80277(7) 0.61142(8) 0.52578(3)
O16 O 0.71495(5) 0.63858(5) 0.515160(19)
C13 C 0.89494(8) 0.58492(8) 0.53478(3)
H9 H 0.9249 0.5604 0.5323
C16 C 0.75096(7) 0.60300(8) 0.51128(3)
C19 C 0.85638(8) 0.66601(8) 0.55271(3)
H12 H 0.8604 0.6978 0.5627
C20 C 0.95402(9) 0.66532(9) 0.58606(4)
H13 H 0.9205 0.6726 0.5944
C23 C 0.90178(8) 0.62897(10) 0.54996(3)
C24 C 0.80800(8) 0.65644(8) 0.54137(3)
H15 H 0.7776 0.6803 0.5440
C29 C 0.96136(9) 0.72972(11) 0.63053(3)
H19 H 0.9279 0.7281 0.6215
C30 C 0.95415(8) 0.64109(9) 0.56189(4)
C35 C 0.84619(8) 0.57501(8) 0.52294(3)
H23 H 0.8422 0.5434 0.5129
C50 C 0.96177(8) 0.75827(9) 0.65273(3)
H33 H 0.9317 0.7811 0.6573
O25 O 0.98385(3) 0.83801(4) 0.239710(16)
H39 H 0.9801 0.8674 0.2511
O37 O 0.70607(5) 0.34361(5) 0.51226(2)
O41 O 0.73643(5) 0.42121(4) 0.49495(2)
C59 C 0.79616(7) 0.37226(8) 0.52236(3)
O45 O 0.94786(5) 0.22626(5) 0.704600(19)
Be10 Be 0.65773(11) 0.64394(11) 0.49932(4)
Be11 Be 0.64394(11) 0.34227(11) 0.50068(4)
C68 C 0.99177(7) 0.24766(7) 0.66825(3)
Be14 Be 0.67969(10) 0.43937(9) 0.48072(4)
C72 C 0.99141(8) 0.22434(7) 0.69260(3)
C79 C 0.88485(7) 0.40516(8) 0.53224(3)
H57 H 0.9125 0.4326 0.5307
C82 C 0.89428(7) 0.36052(9) 0.54677(3)
C87 C 0.99634(7) 0.36768(8) 0.54950(4)
H63 H 0.9970 0.3843 0.5337
C88 C 0.94713(9) 0.35292(9) 0.55955(4)
C90 C 0.94516(9) 0.32869(8) 0.58504(3)
H65 H 0.9116 0.3184 0.5927
Be16 Be 0.69446(10) 0.54652(10) 0.48107(4)
C94 C 0.83658(7) 0.41121(7) 0.51988(3)
H68 H 0.8309 0.4422 0.5096
C95 C 0.74203(9) 0.38069(7) 0.50857(3)
C96 C 0.99619(9) 0.32244(8) 0.59662(4)
Be19 Be 0.93268(9) 0.19840(9) 0.73072(3)
Be20 Be 0.93268(9) 0.80160(9) 0.23072(3)
C98 C 0.99520(8) 0.29498(9) 0.62151(4)
C99 C 0.85210(9) 0.32232(9) 0.54970(3)
H69 H 0.8565 0.2920 0.5605
C100 C 0.95230(9) 0.30292(13) 0.63663(4)
H70 H 0.9227 0.3256 0.6314
C101 C 0.95013(8) 0.27877(12) 0.65974(4)
H71 H 0.9186 0.2844 0.6697
Be22 Be 0.95598(8) 0.82027(8) 0.72760(3)
Be23 Be 0.95598(8) 0.17973(8) 0.22760(3)
C108 C 0.80381(8) 0.32892(8) 0.53676(4)
H77 H 0.7756 0.3020 0.5382
H78_2 H 0.152794 0.0405331 0.274306
H79_2 H 0.81186 0.0104765 0.25288
O1_2 O 0.93479(4) 0.23403(4) 0.24416(2)
O3_2 O 0.66084(5) 0.60226(4) 0.477950(18)
H1_2 H 0.6426 0.6100 0.4629
O4_2 O 0.66249(4) 0.49760(4) 0.489030(17)
H2_2 H 0.6313 0.5022 0.4993
O6_2 O 0.92096(4) 0.74951(4) 0.249290(19)
O7_2 O 0.70164(4) 0.44655(5) 0.450910(17)
O8_2 O 0.63746(5) 0.39196(5) 0.482690(18)
O10_2 O 0.86645(4) 0.19404(4) 0.263870(16)
O12_2 O 0.83901(5) 0.77339(5) 0.26231(2)
C1_2 C 0.75056(7) 0.48614(7) 0.41845(3)
C2_2 C 0.88881(6) 0.28629(6) 0.27338(2)
C4_2 C 0.89621(6) 0.23455(6) 0.25997(2)
O14_2 O 0.91170(4) 0.13399(4) 0.230650(16)
H5_2 H 0.9138 0.1027 0.2202
C6_2 C 0.91474(8) 0.37817(7) 0.28366(3)
H6_2 H 0.9396 0.4080 0.2817
C7_2 C 0.87064(7) 0.38308(6) 0.29971(3)
C8_2 C 0.83560(8) 0.43627(7) 0.33509(3)
H7_2 H 0.8294 0.4019 0.3429
C9_2 C 0.79893(8) 0.48429(7) 0.37249(3)
C10_2 C 0.90807(8) 0.59729(7) 0.28512(3)
H8_2 H 0.9360 0.5701 0.2838
C11_2 C 0.85867(7) 0.43611(7) 0.31200(3)
C12_2 C 0.87365(7) 0.68762(7) 0.27419(3)
C15_2 C 0.83503(8) 0.33992(7) 0.30172(3)
H10_2 H 0.8036 0.3438 0.3119
C17_2 C 0.91265(7) 0.64718(8) 0.27261(3)
H11_2 H 0.9441 0.6533 0.2626
C21_2 C 0.82103(9) 0.48352(7) 0.34750(4)
C22_2 C 0.82229(8) 0.62740(7) 0.30070(3)
H14_2 H 0.7907 0.6205 0.3105
C26_2 C 0.92274(7) 0.33039(6) 0.27062(3)
H17_2 H 0.9526 0.3281 0.2594
C27_2 C 0.82575(8) 0.67811(7) 0.28814(3)
H18_2 H 0.7971 0.7046 0.2891
O17_2 O 0.87822(4) 0.83782(6) 0.229360(19)
H20_2 H 0.8724 0.8615 0.2158
C31_2 C 0.86693(8) 0.48522(7) 0.30126(3)
H21_2 H 0.8822 0.4858 0.2852
C32_2 C 0.86182(9) 0.58815(7) 0.29953(3)
C37_2 C 0.84294(7) 0.29067(6) 0.28945(3)
H25_2 H 0.8184 0.2606 0.2917
C38_2 C 0.85457(8) 0.53396(7) 0.31210(3)
C39_2 C 0.83102(8) 0.53350(7) 0.33449(3)
H26_2 H 0.8208 0.5674 0.3418
C43_2 C 0.72288(7) 0.48877(6) 0.44335(3)
Be5_2 Be 0.83479(8) 0.83479(8) 0.2500
C48_2 C 0.76666(10) 0.44172(8) 0.38022(3)
H31_2 H 0.7603 0.4111 0.3698
C49_2 C 0.80657(11) 0.52644(9) 0.38728(4)
H32_2 H 0.8289 0.5566 0.3823
O18_2 O 0.72512(5) 0.53303(5) 0.45423(2)
C51_2 C 0.87878(7) 0.74001(7) 0.26115(3)
C52_2 C 0.78021(9) 0.52629(10) 0.41145(3)
H34_2 H 0.7854 0.5568 0.4221
C53_2 C 0.74266(8) 0.44334(10) 0.40398(3)
H35_2 H 0.7208 0.4134 0.4095
O19_2 O 0.23403(4) 0.93479(4) 0.25584(2)
O21_2 O 0.96633(4) 0.20184(5) 0.201130(17)
O22_2 O 0.20184(5) 0.96633(4) 0.298870(17)
O23_2 O 0.60226(4) 0.66084(5) 0.022050(18)
H37_2 H 0.6100 0.6426 0.0371
O24_2 O 0.49760(4) 0.66249(4) 0.010970(17)
H38_2 H 0.5022 0.6313 0.0007
O28_2 O 0.74951(4) 0.92096(4) 0.250710(19)
O29_2 O 0.44655(5) 0.70164(4) 0.049090(17)
O30_2 O 0.39196(5) 0.63746(5) 0.017310(18)
O31_2 O 0.60804(5) 0.63746(5) 0.517310(18)
O34_2 O 0.56146(4) 0.74759(4) 0.00146(2)
O38_2 O 0.65639(5) 0.70607(5) 0.48774(2)
O39_2 O 0.70607(5) 0.65639(5) 0.01226(2)
O40_2 O 0.77339(5) 0.83901(5) 0.23769(2)
C55_2 C 0.48614(7) 0.75056(7) 0.08155(3)
O42_2 O 0.42121(4) 0.73643(5) 0.00505(2)
C56_2 C 0.28629(6) 0.88881(6) 0.22662(2)
C58_2 C 0.23455(6) 0.89621(6) 0.24003(2)
O46_2 O 0.94786(5) 0.77374(5) 0.204600(19)
O47_2 O 0.77374(5) 0.94786(5) 0.295400(19)
C60_2 C 0.37817(7) 0.91474(8) 0.21634(3)
H47_2 H 0.4080 0.9396 0.2183
C61_2 C 0.38308(6) 0.87064(7) 0.20029(3)
C62_2 C 0.43627(7) 0.83560(8) 0.16491(3)
H48_2 H 0.4019 0.8294 0.1571
C63_2 C 0.48429(7) 0.79893(8) 0.12751(3)
Be8_2 Be 0.64394(11) 0.65773(11) 0.00068(4)
C64_2 C 0.59729(7) 0.90807(8) 0.21488(3)
H49_2 H 0.5701 0.9360 0.2162
C65_2 C 0.43611(7) 0.85867(7) 0.18800(3)
C66_2 C 0.68762(7) 0.87365(7) 0.22581(3)
C69_2 C 0.33992(7) 0.83503(8) 0.19828(3)
H51_2 H 0.3438 0.8036 0.1881
Be13_2 Be 0.43937(9) 0.67969(10) 0.01928(4)
C71_2 C 0.64718(8) 0.91265(7) 0.22739(3)
H52_2 H 0.6533 0.9441 0.2374
C75_2 C 0.48352(7) 0.82103(9) 0.15250(4)
C76_2 C 0.62740(7) 0.82229(8) 0.19930(3)
H55_2 H 0.6205 0.7907 0.1895
C80_2 C 0.33039(6) 0.92274(7) 0.22938(3)
H58_2 H 0.3281 0.9526 0.2406
C81_2 C 0.67811(7) 0.82575(8) 0.21186(3)
H59_2 H 0.7046 0.7971 0.2109
O50_2 O 0.83782(6) 0.87822(4) 0.270640(19)
H61_2 H 0.8615 0.8724 0.2842
C85_2 C 0.48522(7) 0.86693(8) 0.19874(3)
H62_2 H 0.4858 0.8822 0.2148
C86_2 C 0.58815(7) 0.86182(9) 0.20047(3)
C91_2 C 0.29067(6) 0.84294(7) 0.21055(3)
H66_2 H 0.2606 0.8184 0.2083
Be15_2 Be 0.54652(10) 0.69446(10) 0.01893(4)
C92_2 C 0.53396(7) 0.85457(8) 0.18790(3)
C93_2 C 0.53350(7) 0.83102(8) 0.16551(3)
H67_2 H 0.5674 0.8208 0.1582
Be17_2 Be 0.80160(9) 0.93268(9) 0.26928(3)
C97_2 C 0.48877(6) 0.72288(7) 0.05665(3)
C102_2 C 0.44172(8) 0.76666(10) 0.11978(3)
H72_2 H 0.4111 0.7603 0.1302
C103_2 C 0.52644(9) 0.80657(11) 0.11272(4)
H73_2 H 0.5566 0.8289 0.1177
O51_2 O 0.53303(5) 0.72512(5) 0.04577(2)
C105_2 C 0.74001(7) 0.87878(7) 0.23885(3)
C106_2 C 0.52629(10) 0.78021(9) 0.08855(3)
H75_2 H 0.5568 0.7854 0.0779
C107_2 C 0.44334(10) 0.74266(8) 0.09602(3)
H76_2 H 0.4134 0.7208 0.0905
O32_2 O 0.63746(5) 0.60804(5) 0.982690(18)
O49_2 O 0.63858(5) 0.71495(5) 0.984840(19)
Be12_2 Be 0.34227(11) 0.64394(11) 0.99932(4)
H78_3 H 0.0405331 0.152794 0.225694
H79_3 H 0.0104765 0.81186 0.24712
O2_2 O 0.20184(5) 0.03367(4) 0.798870(17)
C3_2 C 0.38858(8) 0.19723(7) 0.97422(3)
C13_2 C 0.41508(8) 0.10506(8) 0.96522(3)
H9_2 H 0.4396 0.0751 0.9677
C16_2 C 0.39700(8) 0.24904(7) 0.98872(3)
C19_2 C 0.33399(8) 0.14362(8) 0.94729(3)
H12_2 H 0.3022 0.1396 0.9373
C20_2 C 0.33468(9) 0.04598(9) 0.91394(4)
H13_2 H 0.3274 0.0795 0.9056
C23_2 C 0.37103(10) 0.09822(8) 0.95004(3)
C24_2 C 0.34356(8) 0.19200(8) 0.95863(3)
H15_2 H 0.3197 0.2224 0.9560
C29_2 C 0.27028(11) 0.03864(9) 0.86947(3)
H19_2 H 0.2719 0.0721 0.8785
C30_2 C 0.35891(9) 0.04585(8) 0.93811(4)
C35_2 C 0.42499(8) 0.15381(8) 0.97706(3)
H23_2 H 0.4566 0.1578 0.9871
C50_2 C 0.24173(9) 0.03823(8) 0.84727(3)
H33_2 H 0.2189 0.0683 0.8427
O37_2 O 0.65639(5) 0.29393(5) 0.98774(2)
C59_2 C 0.62774(8) 0.20384(7) 0.97764(3)
O45_2 O 0.77374(5) 0.05214(5) 0.795400(19)
C68_2 C 0.75234(7) 0.00823(7) 0.83175(3)
C72_2 C 0.77566(7) 0.00859(8) 0.80740(3)
C79_2 C 0.59484(8) 0.11515(7) 0.96776(3)
H57_2 H 0.5674 0.0875 0.9693
C82_2 C 0.63948(9) 0.10572(7) 0.95323(3)
C87_2 C 0.63232(8) 0.00366(7) 0.95050(4)
H63_2 H 0.6157 0.0030 0.9663
C88_2 C 0.64708(9) 0.05287(9) 0.94045(4)
C90_2 C 0.67131(8) 0.05484(9) 0.91496(3)
H65_2 H 0.6816 0.0884 0.9073
C94_2 C 0.58879(7) 0.16342(7) 0.98012(3)
H68_2 H 0.5578 0.1691 0.9904
C95_2 C 0.61931(7) 0.25797(9) 0.99143(3)
C96_2 C 0.67756(8) 0.00381(9) 0.90338(4)
Be19_2 Be 0.80160(9) 0.06732(9) 0.76928(3)
C98_2 C 0.70502(9) 0.00480(8) 0.87849(4)
C99_2 C 0.67768(9) 0.14790(9) 0.95030(3)
H69_2 H 0.7080 0.1435 0.9395
C100_2 C 0.69708(13) 0.04770(9) 0.86337(4)
H70_2 H 0.6744 0.0773 0.8686
C101_2 C 0.72123(12) 0.04987(8) 0.84026(4)
H71_2 H 0.7156 0.0814 0.8303
Be22_2 Be 0.17973(8) 0.04402(8) 0.77240(3)
C108_2 C 0.67108(8) 0.19619(8) 0.96324(4)
H77_2 H 0.6980 0.2244 0.9618
O11_2 O 0.34361(5) 0.70607(5) 0.98774(2)
C5_2 C 0.37226(8) 0.79616(7) 0.97764(3)
O15_2 O 0.22626(5) 0.94786(5) 0.795400(19)
C14_2 C 0.24766(7) 0.99177(7) 0.83175(3)
C18_2 C 0.22434(7) 0.99141(8) 0.80740(3)
C25_2 C 0.40516(8) 0.88485(7) 0.96776(3)
H16_2 H 0.4326 0.9125 0.9693
C28_2 C 0.36052(9) 0.89428(7) 0.95323(3)
C33_2 C 0.36768(8) 0.99634(7) 0.95050(4)
H22_2 H 0.3843 0.9970 0.9663
C34_2 C 0.35292(9) 0.94713(9) 0.94045(4)
C36_2 C 0.32869(8) 0.94516(9) 0.91496(3)
H24_2 H 0.3184 0.9116 0.9073
C40_2 C 0.41121(7) 0.83658(7) 0.98012(3)
H27_2 H 0.4422 0.8309 0.9904
C41_2 C 0.38069(7) 0.74203(9) 0.99143(3)
C42_2 C 0.32244(8) 0.99619(9) 0.90338(4)
C44_2 C 0.29498(9) 0.99520(8) 0.87849(4)
C45_2 C 0.32232(9) 0.85210(9) 0.95030(3)
H28_2 H 0.2920 0.8565 0.9395
C46_2 C 0.30292(13) 0.95230(9) 0.86337(4)
H29_2 H 0.3256 0.9227 0.8686
C47_2 C 0.27877(12) 0.95013(8) 0.84026(4)
H30_2 H 0.2844 0.9186 0.8303
C54_2 C 0.32892(8) 0.80381(8) 0.96324(4)
H36_2 H 0.3020 0.7756 0.9618
O20_2 O 0.79816(5) 0.96633(4) 0.798870(17)
C57_2 C 0.61142(8) 0.80277(7) 0.97422(3)
C67_2 C 0.58492(8) 0.89494(8) 0.96522(3)
H50_2 H 0.5604 0.9249 0.9677
C70_2 C 0.60300(8) 0.75096(7) 0.98872(3)
C73_2 C 0.66601(8) 0.85638(8) 0.94729(3)
H53_2 H 0.6978 0.8604 0.9373
C74_2 C 0.66532(9) 0.95402(9) 0.91394(4)
H54_2 H 0.6726 0.9205 0.9056
C77_2 C 0.62897(10) 0.90178(8) 0.95004(3)
C78_2 C 0.65644(8) 0.80800(8) 0.95863(3)
H56_2 H 0.6803 0.7776 0.9560
C83_2 C 0.72972(11) 0.96136(9) 0.86947(3)
H60_2 H 0.7281 0.9279 0.8785
C84_2 C 0.64109(9) 0.95415(8) 0.93811(4)
C89_2 C 0.57501(8) 0.84619(8) 0.97706(3)
H64_2 H 0.5434 0.8422 0.9871
Be18_2 Be 0.19840(9) 0.93268(9) 0.76928(3)
Be24_2 Be 0.82027(8) 0.95598(8) 0.77240(3)
C104_2 C 0.75827(9) 0.96177(8) 0.84727(3)
H74_2 H 0.7811 0.9317 0.8427
H78_4 H 0.959467 0.847206 0.225694
H79_4 H 0.989523 0.18814 0.24712
C3_3 C 0.19723(7) 0.61142(8) 0.02578(3)
O16_2 O 0.28505(5) 0.63858(5) 0.015160(19)
C13_3 C 0.10506(8) 0.58492(8) 0.03478(3)
H9_3 H 0.0751 0.5604 0.0323
C16_3 C 0.24904(7) 0.60300(8) 0.01128(3)
C19_3 C 0.14362(8) 0.66601(8) 0.05271(3)
H12_3 H 0.1396 0.6978 0.0627
C20_3 C 0.04598(9) 0.66532(9) 0.08606(4)
H13_3 H 0.0795 0.6726 0.0944
C23_3 C 0.09822(8) 0.62897(10) 0.04996(3)
C24_3 C 0.19200(8) 0.65644(8) 0.04137(3)
H15_3 H 0.2224 0.6803 0.0440
C29_3 C 0.03864(9) 0.72972(11) 0.13053(3)
H19_3 H 0.0721 0.7281 0.1215
C30_3 C 0.04585(8) 0.64109(9) 0.06189(4)
C35_3 C 0.15381(8) 0.57501(8) 0.02294(3)
H23_3 H 0.1578 0.5434 0.0129
C50_3 C 0.03823(8) 0.75827(9) 0.15273(3)
H33_3 H 0.0683 0.7811 0.1573
C59_3 C 0.20384(7) 0.37226(8) 0.02236(3)
C68_3 C 0.00823(7) 0.24766(7) 0.16825(3)
C72_3 C 0.00859(8) 0.22434(7) 0.19260(3)
C79_3 C 0.11515(7) 0.40516(8) 0.03224(3)
H57_3 H 0.0875 0.4326 0.0307
C82_3 C 0.10572(7) 0.36052(9) 0.04677(3)
C87_3 C 0.00366(7) 0.36768(8) 0.04950(4)
H63_3 H 0.0030 0.3843 0.0337
C88_3 C 0.05287(9) 0.35292(9) 0.05955(4)
C90_3 C 0.05484(9) 0.32869(8) 0.08504(3)
H65_3 H 0.0884 0.3184 0.0927
C94_3 C 0.16342(7) 0.41121(7) 0.01988(3)
H68_3 H 0.1691 0.4422 0.0096
C95_3 C 0.25797(9) 0.38069(7) 0.00857(3)
C96_3 C 0.00381(9) 0.32244(8) 0.09662(4)
C98_3 C 0.00480(8) 0.29498(9) 0.12151(4)
C99_3 C 0.14790(9) 0.32232(9) 0.04970(3)
H69_3 H 0.1435 0.2920 0.0605
C100_3 C 0.04770(9) 0.30292(13) 0.13663(4)
H70_3 H 0.0773 0.3256 0.1314
C101_3 C 0.04987(8) 0.27877(12) 0.15974(4)
H71_3 H 0.0814 0.2844 0.1697
C108_3 C 0.19619(8) 0.32892(8) 0.03676(4)
H77_3 H 0.2244 0.3020 0.0382
O9_2 O 0.25241(4) 0.56146(4) 0.99854(2)
O25_2 O 0.01615(3) 0.83801(4) 0.739710(16)
H39_2 H 0.0199 0.8674 0.7511
O41_2 O 0.26357(5) 0.42121(4) 0.99495(2)
Be14_2 Be 0.32031(10) 0.43937(9) 0.98072(4)
Be16_2 Be 0.30554(10) 0.54652(10) 0.98107(4)
C5_3 C 0.79616(7) 0.62774(8) 0.02236(3)
C14_3 C 0.99177(7) 0.75234(7) 0.16825(3)
C18_3 C 0.99141(8) 0.77566(7) 0.19260(3)
C25_3 C 0.88485(7) 0.59484(8) 0.03224(3)
H16_3 H 0.9125 0.5674 0.0307
C28_3 C 0.89428(7) 0.63948(9) 0.04677(3)
C33_3 C 0.99634(7) 0.63232(8) 0.04950(4)
H22_3 H 0.9970 0.6157 0.0337
C34_3 C 0.94713(9) 0.64708(9) 0.05955(4)
C36_3 C 0.94516(9) 0.67131(8) 0.08504(3)
H24_3 H 0.9116 0.6816 0.0927
C40_3 C 0.83658(7) 0.58879(7) 0.01988(3)
H27_3 H 0.8309 0.5578 0.0096
C41_3 C 0.74203(9) 0.61931(7) 0.00857(3)
C42_3 C 0.99619(9) 0.67756(8) 0.09662(4)
C44_3 C 0.99520(8) 0.70502(9) 0.12151(4)
C45_3 C 0.85210(9) 0.67768(9) 0.04970(3)
H28_3 H 0.8565 0.7080 0.0605
C46_3 C 0.95230(9) 0.69708(13) 0.13663(4)
H29_3 H 0.9227 0.6744 0.1314
C47_3 C 0.95013(8) 0.72123(12) 0.15974(4)
H30_3 H 0.9186 0.7156 0.1697
C54_3 C 0.80381(8) 0.67108(8) 0.03676(4)
H36_3 H 0.7756 0.6980 0.0382
C57_3 C 0.80277(7) 0.38858(8) 0.02578(3)
O48_2 O 0.71495(5) 0.36142(5) 0.015160(19)
C67_3 C 0.89494(8) 0.41508(8) 0.03478(3)
H50_3 H 0.9249 0.4396 0.0323
C70_3 C 0.75096(7) 0.39700(8) 0.01128(3)
C73_3 C 0.85638(8) 0.33399(8) 0.05271(3)
H53_3 H 0.8604 0.3022 0.0627
C74_3 C 0.95402(9) 0.33468(9) 0.08606(4)
H54_3 H 0.9205 0.3274 0.0944
C77_3 C 0.90178(8) 0.37103(10) 0.04996(3)
C78_3 C 0.80800(8) 0.34356(8) 0.04137(3)
H56_3 H 0.7776 0.3197 0.0440
C83_3 C 0.96136(9) 0.27028(11) 0.13053(3)
H60_3 H 0.9279 0.2719 0.1215
C84_3 C 0.95415(8) 0.35891(9) 0.06189(4)
C89_3 C 0.84619(8) 0.42499(8) 0.02294(3)
H64_3 H 0.8422 0.4566 0.0129
C104_3 C 0.96177(8) 0.24173(9) 0.15273(3)
H74_3 H 0.9317 0.2189 0.1573
O1_3 O 0.93479(4) 0.76597(4) 0.74416(2)
O3_3 O 0.66084(5) 0.39774(4) 0.977950(18)
H1_3 H 0.6426 0.3900 0.9629
O4_3 O 0.66249(4) 0.50240(4) 0.989030(17)
H2_3 H 0.6313 0.4978 0.9993
O5_2 O 0.98385(3) 0.16199(4) 0.739710(16)
H3_2 H 0.9801 0.1326 0.7511
O6_3 O 0.92096(4) 0.25049(4) 0.749290(19)
O7_3 O 0.70164(4) 0.55345(5) 0.950910(17)
O10_3 O 0.86645(4) 0.80596(4) 0.763870(16)
O12_3 O 0.83901(5) 0.22661(5) 0.76231(2)
C1_3 C 0.75056(7) 0.51386(7) 0.91845(3)
O13_2 O 0.73643(5) 0.57879(4) 0.99495(2)
C2_3 C 0.88881(6) 0.71371(6) 0.77338(2)
C4_3 C 0.89621(6) 0.76545(6) 0.75997(2)
O14_3 O 0.91170(4) 0.86601(4) 0.730650(16)
H5_3 H 0.9138 0.8973 0.7202
C6_3 C 0.91474(8) 0.62183(7) 0.78366(3)
H6_3 H 0.9396 0.5920 0.7817
C7_3 C 0.87064(7) 0.61692(6) 0.79971(3)
C8_3 C 0.83560(8) 0.56373(7) 0.83509(3)
H7_3 H 0.8294 0.5981 0.8429
C9_3 C 0.79893(8) 0.51571(7) 0.87249(3)
C10_3 C 0.90807(8) 0.40271(7) 0.78512(3)
H8_3 H 0.9360 0.4299 0.7838
C11_3 C 0.85867(7) 0.56389(7) 0.81200(3)
C12_3 C 0.87365(7) 0.31238(7) 0.77419(3)
C15_3 C 0.83503(8) 0.66008(7) 0.80172(3)
H10_3 H 0.8036 0.6562 0.8119
Be2_2 Be 0.67969(10) 0.56063(9) 0.98072(4)
C17_3 C 0.91265(7) 0.35282(8) 0.77261(3)
H11_3 H 0.9441 0.3467 0.7626
C21_3 C 0.82103(9) 0.51648(7) 0.84750(4)
C22_3 C 0.82229(8) 0.37260(7) 0.80070(3)
H14_3 H 0.7907 0.3795 0.8105
C26_3 C 0.92274(7) 0.66961(6) 0.77062(3)
H17_3 H 0.9526 0.6719 0.7594
C27_3 C 0.82575(8) 0.32189(7) 0.78814(3)
H18_3 H 0.7971 0.2954 0.7891
O17_3 O 0.87822(4) 0.16218(6) 0.729360(19)
H20_3 H 0.8724 0.1385 0.7158
C31_3 C 0.86693(8) 0.51478(7) 0.80126(3)
H21_3 H 0.8822 0.5142 0.7852
C32_3 C 0.86182(9) 0.41185(7) 0.79953(3)
C37_3 C 0.84294(7) 0.70933(6) 0.78945(3)
H25_3 H 0.8184 0.7394 0.7917
Be3_2 Be 0.69446(10) 0.45348(10) 0.98107(4)
C38_3 C 0.85457(8) 0.46604(7) 0.81210(3)
C39_3 C 0.83102(8) 0.46650(7) 0.83449(3)
H26_3 H 0.8208 0.4326 0.8418
C43_3 C 0.72288(7) 0.51123(6) 0.94335(3)
Be5_3 Be 0.83479(8) 0.16521(8) 0.7500
C48_3 C 0.76666(10) 0.55828(8) 0.88022(3)
H31_3 H 0.7603 0.5889 0.8698
C49_3 C 0.80657(11) 0.47356(9) 0.88728(4)
H32_3 H 0.8289 0.4434 0.8823
Be7_2 Be 0.86354(8) 0.86354(8) 0.7500
O18_3 O 0.72512(5) 0.46697(5) 0.95423(2)
C51_3 C 0.87878(7) 0.25999(7) 0.76115(3)
C52_3 C 0.78021(9) 0.47371(10) 0.91145(3)
H34_3 H 0.7854 0.4432 0.9221
C53_3 C 0.74266(8) 0.55666(10) 0.90398(3)
H35_3 H 0.7208 0.5866 0.9095
O19_3 O 0.23403(4) 0.06521(4) 0.75584(2)
O23_3 O 0.60226(4) 0.33916(5) 0.522050(18)
H37_3 H 0.6100 0.3574 0.5371
O24_3 O 0.49760(4) 0.33751(4) 0.510970(17)
H38_3 H 0.5022 0.3687 0.5007
O26_2 O 0.83801(4) 0.01615(3) 0.760290(16)
H40_2 H 0.8674 0.0199 0.7489
O28_3 O 0.74951(4) 0.07904(4) 0.750710(19)
O29_3 O 0.44655(5) 0.29836(4) 0.549090(17)
O33_2 O 0.74759(4) 0.43854(4) 0.99854(2)
O34_3 O 0.56146(4) 0.25241(4) 0.50146(2)
O35_2 O 0.19404(4) 0.13355(4) 0.736130(16)
O36_2 O 0.80596(4) 0.86645(4) 0.736130(16)
O40_3 O 0.77339(5) 0.16099(5) 0.73769(2)
C55_3 C 0.48614(7) 0.24944(7) 0.58155(3)
O42_3 O 0.42121(4) 0.26357(5) 0.50505(2)
C56_3 C 0.28629(6) 0.11119(6) 0.72662(2)
C58_3 C 0.23455(6) 0.10379(6) 0.74003(2)
O43_2 O 0.86601(4) 0.91170(4) 0.769350(16)
O44_2 O 0.13399(4) 0.08830(4) 0.769350(16)
H45_2 H 0.8973 0.9138 0.7798
H46_2 H 0.1027 0.0862 0.7798
O49_3 O 0.63858(5) 0.28505(5) 0.484840(19)
C60_3 C 0.37817(7) 0.08526(8) 0.71634(3)
H47_3 H 0.4080 0.0604 0.7183
C61_3 C 0.38308(6) 0.12936(7) 0.70029(3)
C62_3 C 0.43627(7) 0.16440(8) 0.66491(3)
H48_3 H 0.4019 0.1706 0.6571
C63_3 C 0.48429(7) 0.20107(8) 0.62751(3)
C64_3 C 0.59729(7) 0.09193(8) 0.71488(3)
H49_3 H 0.5701 0.0640 0.7162
C65_3 C 0.43611(7) 0.14133(7) 0.68800(3)
C66_3 C 0.68762(7) 0.12635(7) 0.72581(3)
C69_3 C 0.33992(7) 0.16497(8) 0.69828(3)
H51_3 H 0.3438 0.1964 0.6881
Be13_3 Be 0.43937(9) 0.32031(10) 0.51928(4)
C71_3 C 0.64718(8) 0.08735(7) 0.72739(3)
H52_3 H 0.6533 0.0559 0.7374
C75_3 C 0.48352(7) 0.17897(9) 0.65250(4)
C76_3 C 0.62740(7) 0.17771(8) 0.69930(3)
H55_3 H 0.6205 0.2093 0.6895
C80_3 C 0.33039(6) 0.07726(7) 0.72938(3)
H58_3 H 0.3281 0.0474 0.7406
C81_3 C 0.67811(7) 0.17425(8) 0.71186(3)
H59_3 H 0.7046 0.2029 0.7109
O50_3 O 0.83782(6) 0.12178(4) 0.770640(19)
H61_3 H 0.8615 0.1276 0.7842
C85_3 C 0.48522(7) 0.13307(8) 0.69874(3)
H62_3 H 0.4858 0.1178 0.7148
C86_3 C 0.58815(7) 0.13818(9) 0.70047(3)
C91_3 C 0.29067(6) 0.15706(7) 0.71055(3)
H66_3 H 0.2606 0.1816 0.7083
Be15_3 Be 0.54652(10) 0.30554(10) 0.51893(4)
C92_3 C 0.53396(7) 0.14543(8) 0.68790(3)
C93_3 C 0.53350(7) 0.16898(8) 0.66551(3)
H67_3 H 0.5674 0.1792 0.6582
C97_3 C 0.48877(6) 0.27712(7) 0.55665(3)
C102_3 C 0.44172(8) 0.23334(10) 0.61978(3)
H72_3 H 0.4111 0.2397 0.6302
C103_3 C 0.52644(9) 0.19343(11) 0.61272(4)
H73_3 H 0.5566 0.1711 0.6177
Be26_2 Be 0.13646(8) 0.13646(8) 0.7500
O51_3 O 0.53303(5) 0.27488(5) 0.54577(2)
C105_3 C 0.74001(7) 0.12122(7) 0.73885(3)
C106_3 C 0.52629(10) 0.21979(9) 0.58855(3)
H75_3 H 0.5568 0.2146 0.5779
C107_3 C 0.44334(10) 0.25734(8) 0.59602(3)
H76_3 H 0.4134 0.2792 0.5905
O27_2 O 0.16199(4) 0.98385(3) 0.760290(16)
H41_2 H 0.1326 0.9801 0.7489
H78_5 H 0.152794 0.959467 0.774306
H79_5 H 0.81186 0.989523 0.75288
H78_6 H 0.847206 0.0405331 0.774306
H79_6 H 0.18814 0.0104765 0.75288
O1_4 O 0.06521(4) 0.23403(4) 0.74416(2)
O3_4 O 0.33916(5) 0.60226(4) 0.977950(18)
H1_4 H 0.3574 0.6100 0.9629
O4_4 O 0.33751(4) 0.49760(4) 0.989030(17)
H2_4 H 0.3687 0.5022 0.9993
O6_4 O 0.07904(4) 0.74951(4) 0.749290(19)
O7_4 O 0.29836(4) 0.44655(5) 0.950910(17)
O10_4 O 0.13355(4) 0.19404(4) 0.763870(16)
O12_4 O 0.16099(5) 0.77339(5) 0.76231(2)
C1_4 C 0.24944(7) 0.48614(7) 0.91845(3)
C2_4 C 0.11119(6) 0.28629(6) 0.77338(2)
C4_4 C 0.10379(6) 0.23455(6) 0.75997(2)
O14_4 O 0.08830(4) 0.13399(4) 0.730650(16)
H5_4 H 0.0862 0.1027 0.7202
C6_4 C 0.08526(8) 0.37817(7) 0.78366(3)
H6_4 H 0.0604 0.4080 0.7817
C7_4 C 0.12936(7) 0.38308(6) 0.79971(3)
C8_4 C 0.16440(8) 0.43627(7) 0.83509(3)
H7_4 H 0.1706 0.4019 0.8429
C9_4 C 0.20107(8) 0.48429(7) 0.87249(3)
C10_4 C 0.09193(8) 0.59729(7) 0.78512(3)
H8_4 H 0.0640 0.5701 0.7838
C11_4 C 0.14133(7) 0.43611(7) 0.81200(3)
C12_4 C 0.12635(7) 0.68762(7) 0.77419(3)
C15_4 C 0.16497(8) 0.33992(7) 0.80172(3)
H10_4 H 0.1964 0.3438 0.8119
C17_4 C 0.08735(7) 0.64718(8) 0.77261(3)
H11_4 H 0.0559 0.6533 0.7626
C21_4 C 0.17897(9) 0.48352(7) 0.84750(4)
C22_4 C 0.17771(8) 0.62740(7) 0.80070(3)
H14_4 H 0.2093 0.6205 0.8105
C26_4 C 0.07726(7) 0.33039(6) 0.77062(3)
H17_4 H 0.0474 0.3281 0.7594
C27_4 C 0.17425(8) 0.67811(7) 0.78814(3)
H18_4 H 0.2029 0.7046 0.7891
O17_4 O 0.12178(4) 0.83782(6) 0.729360(19)
H20_4 H 0.1276 0.8615 0.7158
C31_4 C 0.13307(8) 0.48522(7) 0.80126(3)
H21_4 H 0.1178 0.4858 0.7852
C32_4 C 0.13818(9) 0.58815(7) 0.79953(3)
C37_4 C 0.15706(7) 0.29067(6) 0.78945(3)
H25_4 H 0.1816 0.2606 0.7917
C38_4 C 0.14543(8) 0.53396(7) 0.81210(3)
C39_4 C 0.16898(8) 0.53350(7) 0.83449(3)
H26_4 H 0.1792 0.5674 0.8418
C43_4 C 0.27712(7) 0.48877(6) 0.94335(3)
Be5_4 Be 0.16521(8) 0.83479(8) 0.7500
C48_4 C 0.23334(10) 0.44172(8) 0.88022(3)
H31_4 H 0.2397 0.4111 0.8698
C49_4 C 0.19343(11) 0.52644(9) 0.88728(4)
H32_4 H 0.1711 0.5566 0.8823
O18_4 O 0.27488(5) 0.53303(5) 0.95423(2)
C51_4 C 0.12122(7) 0.74001(7) 0.76115(3)
C52_4 C 0.21979(9) 0.52629(10) 0.91145(3)
H34_4 H 0.2146 0.5568 0.9221
C53_4 C 0.25734(8) 0.44334(10) 0.90398(3)
H35_4 H 0.2792 0.4134 0.9095
O19_4 O 0.76597(4) 0.93479(4) 0.75584(2)
O23_4 O 0.39774(4) 0.66084(5) 0.522050(18)
H37_4 H 0.3900 0.6426 0.5371
O24_4 O 0.50240(4) 0.66249(4) 0.510970(17)
H38_4 H 0.4978 0.6313 0.5007
O28_4 O 0.25049(4) 0.92096(4) 0.750710(19)
O29_4 O 0.55345(5) 0.70164(4) 0.549090(17)
O34_4 O 0.43854(4) 0.74759(4) 0.50146(2)
O40_4 O 0.22661(5) 0.83901(5) 0.73769(2)
C55_4 C 0.51386(7) 0.75056(7) 0.58155(3)
O42_4 O 0.57879(4) 0.73643(5) 0.50505(2)
C56_4 C 0.71371(6) 0.88881(6) 0.72662(2)
C58_4 C 0.76545(6) 0.89621(6) 0.74003(2)
O49_4 O 0.36142(5) 0.71495(5) 0.484840(19)
C60_4 C 0.62183(7) 0.91474(8) 0.71634(3)
H47_4 H 0.5920 0.9396 0.7183
C61_4 C 0.61692(6) 0.87064(7) 0.70029(3)
C62_4 C 0.56373(7) 0.83560(8) 0.66491(3)
H48_4 H 0.5981 0.8294 0.6571
C63_4 C 0.51571(7) 0.79893(8) 0.62751(3)
C64_4 C 0.40271(7) 0.90807(8) 0.71488(3)
H49_4 H 0.4299 0.9360 0.7162
C65_4 C 0.56389(7) 0.85867(7) 0.68800(3)
C66_4 C 0.31238(7) 0.87365(7) 0.72581(3)
C69_4 C 0.66008(7) 0.83503(8) 0.69828(3)
H51_4 H 0.6562 0.8036 0.6881
Be13_4 Be 0.56063(9) 0.67969(10) 0.51928(4)
C71_4 C 0.35282(8) 0.91265(7) 0.72739(3)
H52_4 H 0.3467 0.9441 0.7374
C75_4 C 0.51648(7) 0.82103(9) 0.65250(4)
C76_4 C 0.37260(7) 0.82229(8) 0.69930(3)
H55_4 H 0.3795 0.7907 0.6895
C80_4 C 0.66961(6) 0.92274(7) 0.72938(3)
H58_4 H 0.6719 0.9526 0.7406
C81_4 C 0.32189(7) 0.82575(8) 0.71186(3)
H59_4 H 0.2954 0.7971 0.7109
O50_4 O 0.16218(6) 0.87822(4) 0.770640(19)
H61_4 H 0.1385 0.8724 0.7842
C85_4 C 0.51478(7) 0.86693(8) 0.69874(3)
H62_4 H 0.5142 0.8822 0.7148
C86_4 C 0.41185(7) 0.86182(9) 0.70047(3)
C91_4 C 0.70933(6) 0.84294(7) 0.71055(3)
H66_4 H 0.7394 0.8184 0.7083
Be15_4 Be 0.45348(10) 0.69446(10) 0.51893(4)
C92_4 C 0.46604(7) 0.85457(8) 0.68790(3)
C93_4 C 0.46650(7) 0.83102(8) 0.66551(3)
H67_4 H 0.4326 0.8208 0.6582
C97_4 C 0.51123(6) 0.72288(7) 0.55665(3)
C102_4 C 0.55828(8) 0.76666(10) 0.61978(3)
H72_4 H 0.5889 0.7603 0.6302
C103_4 C 0.47356(9) 0.80657(11) 0.61272(4)
H73_4 H 0.4434 0.8289 0.6177
O51_4 O 0.46697(5) 0.72512(5) 0.54577(2)
C105_4 C 0.25999(7) 0.87878(7) 0.73885(3)
C106_4 C 0.47371(10) 0.78021(9) 0.58855(3)
H75_4 H 0.4432 0.7854 0.5779
C107_4 C 0.55666(10) 0.74266(8) 0.59602(3)
H76_4 H 0.5866 0.7208 0.5905
H78_7 H 0.0405331 0.847206 0.725694
H79_7 H 0.0104765 0.18814 0.74712
C5_4 C 0.37226(8) 0.20384(7) 0.47764(3)
C14_4 C 0.24766(7) 0.00823(7) 0.33175(3)
C18_4 C 0.22434(7) 0.00859(8) 0.30740(3)
C25_4 C 0.40516(8) 0.11515(7) 0.46776(3)
H16_4 H 0.4326 0.0875 0.4693
C28_4 C 0.36052(9) 0.10572(7) 0.45323(3)
C33_4 C 0.36768(8) 0.00366(7) 0.45050(4)
H22_4 H 0.3843 0.0030 0.4663
C34_4 C 0.35292(9) 0.05287(9) 0.44045(4)
C36_4 C 0.32869(8) 0.05484(9) 0.41496(3)
H24_4 H 0.3184 0.0884 0.4073
C40_4 C 0.41121(7) 0.16342(7) 0.48012(3)
H27_4 H 0.4422 0.1691 0.4904
C41_4 C 0.38069(7) 0.25797(9) 0.49143(3)
C42_4 C 0.32244(8) 0.00381(9) 0.40338(4)
C44_4 C 0.29498(9) 0.00480(8) 0.37849(4)
C45_4 C 0.32232(9) 0.14790(9) 0.45030(3)
H28_4 H 0.2920 0.1435 0.4395
C46_4 C 0.30292(13) 0.04770(9) 0.36337(4)
H29_4 H 0.3256 0.0773 0.3686
C47_4 C 0.27877(12) 0.04987(8) 0.34026(4)
H30_4 H 0.2844 0.0814 0.3303
C54_4 C 0.32892(8) 0.19619(8) 0.46324(4)
H36_4 H 0.3020 0.2244 0.4618
C57_4 C 0.61142(8) 0.19723(7) 0.47422(3)
C67_4 C 0.58492(8) 0.10506(8) 0.46522(3)
H50_4 H 0.5604 0.0751 0.4677
C70_4 C 0.60300(8) 0.24904(7) 0.48872(3)
C73_4 C 0.66601(8) 0.14362(8) 0.44729(3)
H53_4 H 0.6978 0.1396 0.4373
C74_4 C 0.66532(9) 0.04598(9) 0.41394(4)
H54_4 H 0.6726 0.0795 0.4056
C77_4 C 0.62897(10) 0.09822(8) 0.45004(3)
C78_4 C 0.65644(8) 0.19200(8) 0.45863(3)
H56_4 H 0.6803 0.2224 0.4560
C83_4 C 0.72972(11) 0.03864(9) 0.36947(3)
H60_4 H 0.7281 0.0721 0.3785
C84_4 C 0.64109(9) 0.04585(8) 0.43811(4)
C89_4 C 0.57501(8) 0.15381(8) 0.47706(3)
H64_4 H 0.5434 0.1578 0.4871
C104_4 C 0.75827(9) 0.03823(8) 0.34727(3)
H74_4 H 0.7811 0.0683 0.3427
C3_4 C 0.38858(8) 0.80277(7) 0.47422(3)
C13_4 C 0.41508(8) 0.89494(8) 0.46522(3)
H9_4 H 0.4396 0.9249 0.4677
C16_4 C 0.39700(8) 0.75096(7) 0.48872(3)
C19_4 C 0.33399(8) 0.85638(8) 0.44729(3)
H12_4 H 0.3022 0.8604 0.4373
C20_4 C 0.33468(9) 0.95402(9) 0.41394(4)
H13_4 H 0.3274 0.9205 0.4056
C23_4 C 0.37103(10) 0.90178(8) 0.45004(3)
C24_4 C 0.34356(8) 0.80800(8) 0.45863(3)
H15_4 H 0.3197 0.7776 0.4560
C29_4 C 0.27028(11) 0.96136(9) 0.36947(3)
H19_4 H 0.2719 0.9279 0.3785
C30_4 C 0.35891(9) 0.95415(8) 0.43811(4)
C35_4 C 0.42499(8) 0.84619(8) 0.47706(3)
H23_4 H 0.4566 0.8422 0.4871
C50_4 C 0.24173(9) 0.96177(8) 0.34727(3)
H33_4 H 0.2189 0.9317 0.3427
C59_4 C 0.62774(8) 0.79616(7) 0.47764(3)
C68_4 C 0.75234(7) 0.99177(7) 0.33175(3)
C72_4 C 0.77566(7) 0.99141(8) 0.30740(3)
C79_4 C 0.59484(8) 0.88485(7) 0.46776(3)
H57_4 H 0.5674 0.9125 0.4693
C82_4 C 0.63948(9) 0.89428(7) 0.45323(3)
C87_4 C 0.63232(8) 0.99634(7) 0.45050(4)
H63_4 H 0.6157 0.9970 0.4663
C88_4 C 0.64708(9) 0.94713(9) 0.44045(4)
C90_4 C 0.67131(8) 0.94516(9) 0.41496(3)
H65_4 H 0.6816 0.9116 0.4073
C94_4 C 0.58879(7) 0.83658(7) 0.48012(3)
H68_4 H 0.5578 0.8309 0.4904
C95_4 C 0.61931(7) 0.74203(9) 0.49143(3)
C96_4 C 0.67756(8) 0.99619(9) 0.40338(4)
C98_4 C 0.70502(9) 0.99520(8) 0.37849(4)
C99_4 C 0.67768(9) 0.85210(9) 0.45030(3)
H69_4 H 0.7080 0.8565 0.4395
C100_4 C 0.69708(13) 0.95230(9) 0.36337(4)
H70_4 H 0.6744 0.9227 0.3686
C101_4 C 0.72123(12) 0.95013(8) 0.34026(4)
H71_4 H 0.7156 0.9186 0.3303
C108_4 C 0.67108(8) 0.80381(8) 0.46324(4)
H77_4 H 0.6980 0.7756 0.4618
H78_8 H 0.959467 0.152794 0.725694
H79_8 H 0.989523 0.81186 0.74712
loop_
_geom_bond_atom_site_label_1
_geom_bond_atom_site_label_2
_geom_bond_site_symmetry_1
_geom_bond_site_symmetry_2
O1 C4 1_555 1_555
O3 H1 1_555 1_555
O4 H2 1_555 1_555
O5 H3 1_555 1_555
O6 Be4 1_555 1_555
O7 Be2 1_555 1_555
O10 C4 1_555 1_555
O11 C41 1_555 1_555
O12 Be5 1_555 1_555
C1 C43 1_555 1_555
O13 Be2 1_555 1_555
C2 C4 1_555 1_555
O14 H5 1_555 1_555
C5 C40 1_555 1_555
O15 C18 1_555 1_555
C6 H6 1_555 1_555
C7 C6 1_555 1_555
C8 H7 1_555 1_555
C9 C21 1_555 1_555
Be1 O3 1_555 1_555
C10 H8 1_555 1_555
C11 C7 1_555 1_555
C12 C17 1_555 1_555
C14 C18 1_555 1_555
C15 C7 1_555 1_555
H10 C15 1_555 1_555
Be2 O4 1_555 1_555
C17 C10 1_555 1_555
H11 C17 1_555 1_555
C21 C8 1_555 1_555
C22 H14 1_555 1_555
C25 H16 1_555 1_555
C26 C2 1_555 1_555
H17 C26 1_555 1_555
C27 C12 1_555 1_555
H18 C27 1_555 1_555
C28 C25 1_555 1_555
O17 H20 1_555 1_555
C31 C11 1_555 1_555
H21 C31 1_555 1_555
C32 C10 1_555 1_555
H22 C33 1_555 1_555
C34 C28 1_555 1_555
C36 C34 1_555 1_555
H24 C36 1_555 1_555
C37 C2 1_555 1_555
H25 C37 1_555 1_555
Be3 O3 1_555 1_555
C38 C31 1_555 1_555
C39 C21 1_555 1_555
H26 C39 1_555 1_555
C40 C25 1_555 1_555
H27 C40 1_555 1_555
C41 O13 1_555 1_555
Be4 O5 1_555 1_555
C43 O7 1_555 1_555
C45 C28 1_555 1_555
H28 C45 1_555 1_555
C46 C44 1_555 1_555
H29 C46 1_555 1_555
Be5 O17 1_555 1_555
C47 C14 1_555 1_555
H30 C47 1_555 1_555
C48 C9 1_555 1_555
H31 C48 1_555 1_555
C49 C9 1_555 1_555
H32 C49 1_555 1_555
Be6 O1 1_555 1_555
Be7 O10 1_555 1_555
O18 Be3 1_555 1_555
C51 O6 1_555 1_555
C52 C1 1_555 1_555
H34 C52 1_555 1_555
C53 C1 1_555 1_555
H35 C53 1_555 1_555
C54 C5 1_555 1_555
H36 C54 1_555 1_555
O19 C58 1_555 1_555
O21 Be6 1_555 1_555
O22 Be21 1_555 1_555
O23 H37 1_555 1_555
O24 H38 1_555 1_555
O26 H40 1_555 1_555
O28 Be17 1_555 1_555
O29 Be13 1_555 1_555
O31 Be1 1_555 1_555
O33 Be3 1_555 1_555
O34 Be15 1_555 1_555
O35 C58 1_555 1_555
O36 Be7 1_555 1_555
O38 Be1 1_555 1_555
O39 Be8 1_555 1_555
O40 Be5 1_555 1_555
C55 C97 1_555 1_555
O42 Be13 1_555 1_555
C56 C58 1_555 1_555
C57 C70 1_555 1_555
O43 Be7 1_555 1_555
O44 H46 1_555 1_555
H45 O43 1_555 1_555
O46 Be4 1_555 1_555
O47 Be17 1_555 1_555
O48 Be1 1_555 1_555
C60 H47 1_555 1_555
C61 C60 1_555 1_555
C62 H48 1_555 1_555
C63 C75 1_555 1_555
Be8 O23 1_555 1_555
Be9 O8 1_555 1_555
C64 H49 1_555 1_555
C65 C61 1_555 1_555
C66 C71 1_555 1_555
C67 H50 1_555 1_555
C69 C61 1_555 1_555
H51 C69 1_555 1_555
C70 O33 1_555 1_555
Be13 O24 1_555 1_555
C71 C64 1_555 1_555
H52 C71 1_555 1_555
C73 H53 1_555 1_555
C74 H54 1_555 1_555
C75 C62 1_555 1_555
C76 H55 1_555 1_555
C77 C67 1_555 1_555
C78 C57 1_555 1_555
H56 C78 1_555 1_555
C80 C56 1_555 1_555
H58 C80 1_555 1_555
C81 C66 1_555 1_555
H59 C81 1_555 1_555
C83 H60 1_555 1_555
C84 C74 1_555 1_555
O50 Be5 1_555 1_555
H61 O50 1_555 1_555
C85 C65 1_555 1_555
H62 C85 1_555 1_555
C86 C64 1_555 1_555
C89 C57 1_555 1_555
H64 C89 1_555 1_555
C91 C56 1_555 1_555
H66 C91 1_555 1_555
Be15 O23 1_555 1_555
C92 C85 1_555 1_555
C93 C75 1_555 1_555
H67 C93 1_555 1_555
Be17 O26 1_555 1_555
Be18 O15 1_555 1_555
C97 O29 1_555 1_555
C102 C63 1_555 1_555
H72 C102 1_555 1_555
C103 C63 1_555 1_555
H73 C103 1_555 1_555
Be21 O19 1_555 1_555
Be24 O20 1_555 1_555
Be25 O43 1_555 1_555
H74 C104 1_555 1_555
Be26 O35 1_555 1_555
O51 Be15 1_555 1_555
C105 O28 1_555 1_555
C106 C55 1_555 1_555
H75 C106 1_555 1_555
C107 C55 1_555 1_555
H76 C107 1_555 1_555
O4 Be3 1_555 1_555
O8 Be2 1_555 1_555
O11 Be9 1_555 1_555
O12 C51 1_555 1_555
O14 Be6 1_555 1_555
O14 Be7 1_555 1_555
C5 C41 1_555 1_555
C6 C26 1_555 1_555
C8 C11 1_555 1_555
C12 C51 1_555 1_555
C15 C37 1_555 1_555
C22 C27 1_555 1_555
C22 C32 1_555 1_555
O17 Be4 1_555 1_555
C32 C38 1_555 1_555
C33 C34 1_555 1_555
C36 C42 1_555 1_555
C38 C39 1_555 1_555
C42 C44 1_555 1_555
C43 O18 1_555 1_555
C45 C54 1_555 1_555
C46 C47 1_555 1_555
C48 C53 1_555 1_555
C49 C52 1_555 1_555
O24 Be15 1_555 1_555
O30 Be13 1_555 1_555
O40 C105 1_555 1_555
O44 Be21 1_555 1_555
O44 Be26 1_555 1_555
O48 C70 1_555 1_555
C60 C80 1_555 1_555
C62 C65 1_555 1_555
C66 C105 1_555 1_555
C67 C89 1_555 1_555
C69 C91 1_555 1_555
C73 C77 1_555 1_555
C73 C78 1_555 1_555
C76 C81 1_555 1_555
C76 C86 1_555 1_555
C77 C84 1_555 1_555
C83 C104 1_555 1_555
O50 Be17 1_555 1_555
C86 C92 1_555 1_555
C92 C93 1_555 1_555
C97 O51 1_555 1_555
C102 C107 1_555 1_555
C103 C106 1_555 1_555
O27 H41 1_555 1_555
O27 H78 1_555 1_555
O9 C16 1_555 1_555
C3 C16 1_555 1_555
O16 C16 1_555 1_555
C13 H9 1_555 1_555
C19 H12 1_555 1_555
C20 H13 1_555 1_555
C23 C13 1_555 1_555
C24 C3 1_555 1_555
H15 C24 1_555 1_555
C29 H19 1_555 1_555
C30 C20 1_555 1_555
C35 C3 1_555 1_555
H23 C35 1_555 1_555
H33 C50 1_555 1_555
H39 O25 1_555 1_555
O37 Be11 1_555 1_555
O41 Be14 1_555 1_555
C59 C94 1_555 1_555
O45 C72 1_555 1_555
Be10 O16 1_555 1_555
C68 C72 1_555 1_555
C79 H57 1_555 1_555
C82 C79 1_555 1_555
H63 C87 1_555 1_555
C88 C82 1_555 1_555
C90 C88 1_555 1_555
H65 C90 1_555 1_555
Be16 O9 1_555 1_555
C94 C79 1_555 1_555
H68 C94 1_555 1_555
C95 O37 1_555 1_555
Be19 O45 1_555 1_555
Be20 O25 1_555 1_555
C99 C82 1_555 1_555
H69 C99 1_555 1_555
C100 C98 1_555 1_555
H70 C100 1_555 1_555
C101 C68 1_555 1_555
H71 C101 1_555 1_555
Be22 O2 1_555 1_555
C108 C59 1_555 1_555
H77 C108 1_555 1_555
C13 C35 1_555 1_555
C19 C23 1_555 1_555
C19 C24 1_555 1_555
C23 C30 1_555 1_555
C29 C50 1_555 1_555
O41 C95 1_555 1_555
C59 C95 1_555 1_555
C87 C88 1_555 1_555
C90 C96 1_555 1_555
C96 C98 1_555 1_555
C99 C108 1_555 1_555
C100 C101 1_555 1_555
O26 H78_2 1_555 1_555
O1_2 C4_2 1_555 1_555
O3_2 H1_2 1_555 1_555
O4_2 H2_2 1_555 1_555
O6_2 Be20 1_555 1_555
O7_2 Be14 1_555 1_555
O10_2 C4_2 1_555 1_555
O12_2 Be5_2 1_555 1_555
C1_2 C43_2 1_555 1_555
C2_2 C4_2 1_555 1_555
O14_2 H5_2 1_555 1_555
C6_2 H6_2 1_555 1_555
C7_2 C6_2 1_555 1_555
C8_2 H7_2 1_555 1_555
C9_2 C21_2 1_555 1_555
Be10 O3_2 1_555 1_555
C10_2 H8_2 1_555 1_555
C11_2 C7_2 1_555 1_555
C12_2 C17_2 1_555 1_555
C15_2 C7_2 1_555 1_555
H10_2 C15_2 1_555 1_555
Be14 O4_2 1_555 1_555
C17_2 C10_2 1_555 1_555
H11_2 C17_2 1_555 1_555
C21_2 C8_2 1_555 1_555
C22_2 H14_2 1_555 1_555
C26_2 C2_2 1_555 1_555
H17_2 C26_2 1_555 1_555
C27_2 C12_2 1_555 1_555
H18_2 C27_2 1_555 1_555
O17_2 H20_2 1_555 1_555
C31_2 C11_2 1_555 1_555
H21_2 C31_2 1_555 1_555
C32_2 C10_2 1_555 1_555
C37_2 C2_2 1_555 1_555
H25_2 C37_2 1_555 1_555
Be16 O3_2 1_555 1_555
C38_2 C31_2 1_555 1_555
C39_2 C21_2 1_555 1_555
H26_2 C39_2 1_555 1_555
C43_2 O7_2 1_555 1_555
Be5_2 O17_2 1_555 1_555
C48_2 C9_2 1_555 1_555
H31_2 C48_2 1_555 1_555
C49_2 C9_2 1_555 1_555
H32_2 C49_2 1_555 1_555
Be23 O1_2 1_555 1_555
Be26 O10_2 1_555 1_555
O18_2 Be16 1_555 1_555
C51_2 O6_2 1_555 1_555
C52_2 C1_2 1_555 1_555
H34_2 C52_2 1_555 1_555
C53_2 C1_2 1_555 1_555
H35_2 C53_2 1_555 1_555
O19_2 C58_2 1_555 1_555
O21_2 Be23 1_555 1_555
O22_2 Be25 1_555 1_555
O23_2 H37_2 1_555 1_555
O24_2 H38_2 1_555 1_555
O28_2 Be17_2 1_555 1_555
O29_2 Be13_2 1_555 1_555
O31_2 Be10 1_555 1_555
O34_2 Be15_2 1_555 1_555
O36 C58_2 1_555 1_555
O38_2 Be10 1_555 1_555
O39_2 Be8_2 1_555 1_555
O40_2 Be5_2 1_555 1_555
C55_2 C97_2 1_555 1_555
O42_2 Be13_2 1_555 1_555
C56_2 C58_2 1_555 1_555
O46_2 Be20 1_555 1_555
O47_2 Be17_2 1_555 1_555
C60_2 H47_2 1_555 1_555
C61_2 C60_2 1_555 1_555
C62_2 H48_2 1_555 1_555
C63_2 C75_2 1_555 1_555
Be8_2 O23_2 1_555 1_555
Be11 O8_2 1_555 1_555
C64_2 H49_2 1_555 1_555
C65_2 C61_2 1_555 1_555
C66_2 C71_2 1_555 1_555
C69_2 C61_2 1_555 1_555
H51_2 C69_2 1_555 1_555
Be13_2 O24_2 1_555 1_555
C71_2 C64_2 1_555 1_555
H52_2 C71_2 1_555 1_555
C75_2 C62_2 1_555 1_555
C76_2 H55_2 1_555 1_555
C80_2 C56_2 1_555 1_555
H58_2 C80_2 1_555 1_555
C81_2 C66_2 1_555 1_555
H59_2 C81_2 1_555 1_555
O50_2 Be5_2 1_555 1_555
H61_2 O50_2 1_555 1_555
C85_2 C65_2 1_555 1_555
H62_2 C85_2 1_555 1_555
C86_2 C64_2 1_555 1_555
C91_2 C56_2 1_555 1_555
H66_2 C91_2 1_555 1_555
Be15_2 O23_2 1_555 1_555
C92_2 C85_2 1_555 1_555
C93_2 C75_2 1_555 1_555
H67_2 C93_2 1_555 1_555
Be17_2 O27 1_555 1_555
C97_2 O29_2 1_555 1_555
C102_2 C63_2 1_555 1_555
H72_2 C102_2 1_555 1_555
C103_2 C63_2 1_555 1_555
H73_2 C103_2 1_555 1_555
Be25 O19_2 1_555 1_555
O51_2 Be15_2 1_555 1_555
C105_2 O28_2 1_555 1_555
C106_2 C55_2 1_555 1_555
H75_2 C106_2 1_555 1_555
C107_2 C55_2 1_555 1_555
H76_2 C107_2 1_555 1_555
O4_2 Be16 1_555 1_555
O8_2 Be14 1_555 1_555
O12_2 C51_2 1_555 1_555
O14_2 Be23 1_555 1_555
O14_2 Be26 1_555 1_555
C6_2 C26_2 1_555 1_555
C8_2 C11_2 1_555 1_555
C12_2 C51_2 1_555 1_555
C15_2 C37_2 1_555 1_555
C22_2 C27_2 1_555 1_555
C22_2 C32_2 1_555 1_555
O17_2 Be20 1_555 1_555
C32_2 C38_2 1_555 1_555
C38_2 C39_2 1_555 1_555
C43_2 O18_2 1_555 1_555
C48_2 C53_2 1_555 1_555
C49_2 C52_2 1_555 1_555
O24_2 Be15_2 1_555 1_555
O30_2 Be13_2 1_555 1_555
O40_2 C105_2 1_555 1_555
C60_2 C80_2 1_555 1_555
C62_2 C65_2 1_555 1_555
C66_2 C105_2 1_555 1_555
C69_2 C91_2 1_555 1_555
C76_2 C81_2 1_555 1_555
C76_2 C86_2 1_555 1_555
O50_2 Be17_2 1_555 1_555
C86_2 C92_2 1_555 1_555
C92_2 C93_2 1_555 1_555
C97_2 O51_2 1_555 1_555
C102_2 C107_2 1_555 1_555
C103_2 C106_2 1_555 1_555
O5 H78_3 1_555 1_555
C3_2 C16_2 1_555 1_555
O49 C16_2 1_555 1_555
C13_2 H9_2 1_555 1_555
C19_2 H12_2 1_555 1_555
C20_2 H13_2 1_555 1_555
C23_2 C13_2 1_555 1_555
C24_2 C3_2 1_555 1_555
H15_2 C24_2 1_555 1_555
C29_2 H19_2 1_555 1_555
C30_2 C20_2 1_555 1_555
C35_2 C3_2 1_555 1_555
H23_2 C35_2 1_555 1_555
H33_2 C50_2 1_555 1_555
O37_2 Be12 1_555 1_555
C59_2 C94_2 1_555 1_555
O45_2 C72_2 1_555 1_555
C68_2 C72_2 1_555 1_555
C79_2 H57_2 1_555 1_555
C82_2 C79_2 1_555 1_555
H63_2 C87_2 1_555 1_555
C88_2 C82_2 1_555 1_555
C90_2 C88_2 1_555 1_555
H65_2 C90_2 1_555 1_555
C94_2 C79_2 1_555 1_555
H68_2 C94_2 1_555 1_555
C95_2 O37_2 1_555 1_555
Be19_2 O45_2 1_555 1_555
C99_2 C82_2 1_555 1_555
H69_2 C99_2 1_555 1_555
C100_2 C98_2 1_555 1_555
H70_2 C100_2 1_555 1_555
C101_2 C68_2 1_555 1_555
H71_2 C101_2 1_555 1_555
Be22_2 O2_2 1_555 1_555
C108_2 C59_2 1_555 1_555
H77_2 C108_2 1_555 1_555
C13_2 C35_2 1_555 1_555
C19_2 C23_2 1_555 1_555
C19_2 C24_2 1_555 1_555
C23_2 C30_2 1_555 1_555
C29_2 C50_2 1_555 1_555
C59_2 C95_2 1_555 1_555
C87_2 C88_2 1_555 1_555
C90_2 C96_2 1_555 1_555
C96_2 C98_2 1_555 1_555
C99_2 C108_2 1_555 1_555
C100_2 C101_2 1_555 1_555
O11_2 C41_2 1_555 1_555
C5_2 C40_2 1_555 1_555
O15_2 C18_2 1_555 1_555
C14_2 C18_2 1_555 1_555
C25_2 H16_2 1_555 1_555
C28_2 C25_2 1_555 1_555
H22_2 C33_2 1_555 1_555
C34_2 C28_2 1_555 1_555
C36_2 C34_2 1_555 1_555
H24_2 C36_2 1_555 1_555
C40_2 C25_2 1_555 1_555
H27_2 C40_2 1_555 1_555
C45_2 C28_2 1_555 1_555
H28_2 C45_2 1_555 1_555
C46_2 C44_2 1_555 1_555
H29_2 C46_2 1_555 1_555
C47_2 C14_2 1_555 1_555
H30_2 C47_2 1_555 1_555
C54_2 C5_2 1_555 1_555
H36_2 C54_2 1_555 1_555
C57_2 C70_2 1_555 1_555
C67_2 H50_2 1_555 1_555
C73_2 H53_2 1_555 1_555
C74_2 H54_2 1_555 1_555
C77_2 C67_2 1_555 1_555
C78_2 C57_2 1_555 1_555
H56_2 C78_2 1_555 1_555
C83_2 H60_2 1_555 1_555
C84_2 C74_2 1_555 1_555
C89_2 C57_2 1_555 1_555
H64_2 C89_2 1_555 1_555
Be18_2 O15_2 1_555 1_555
Be24_2 O20_2 1_555 1_555
H74_2 C104_2 1_555 1_555
O11_2 Be12_2 1_555 1_555
C5_2 C41_2 1_555 1_555
C33_2 C34_2 1_555 1_555
C36_2 C42_2 1_555 1_555
C42_2 C44_2 1_555 1_555
C45_2 C54_2 1_555 1_555
C46_2 C47_2 1_555 1_555
O49_2 C70_2 1_555 1_555
C67_2 C89_2 1_555 1_555
C73_2 C77_2 1_555 1_555
C73_2 C78_2 1_555 1_555
C77_2 C84_2 1_555 1_555
C83_2 C104_2 1_555 1_555
O25 H78_4 1_555 1_555
C3_3 C16_3 1_555 1_555
O16_2 C16_3 1_555 1_555
C13_3 H9_3 1_555 1_555
C19_3 H12_3 1_555 1_555
C20_3 H13_3 1_555 1_555
C23_3 C13_3 1_555 1_555
C24_3 C3_3 1_555 1_555
H15_3 C24_3 1_555 1_555
C29_3 H19_3 1_555 1_555
C30_3 C20_3 1_555 1_555
C35_3 C3_3 1_555 1_555
H23_3 C35_3 1_555 1_555
H33_3 C50_3 1_555 1_555
C59_3 C94_3 1_555 1_555
O46 C72_3 1_555 1_555
C68_3 C72_3 1_555 1_555
C79_3 H57_3 1_555 1_555
C82_3 C79_3 1_555 1_555
H63_3 C87_3 1_555 1_555
C88_3 C82_3 1_555 1_555
C90_3 C88_3 1_555 1_555
H65_3 C90_3 1_555 1_555
C94_3 C79_3 1_555 1_555
H68_3 C94_3 1_555 1_555
C95_3 O39 1_555 1_555
C99_3 C82_3 1_555 1_555
H69_3 C99_3 1_555 1_555
C100_3 C98_3 1_555 1_555
H70_3 C100_3 1_555 1_555
C101_3 C68_3 1_555 1_555
H71_3 C101_3 1_555 1_555
C108_3 C59_3 1_555 1_555
H77_3 C108_3 1_555 1_555
C13_3 C35_3 1_555 1_555
C19_3 C23_3 1_555 1_555
C19_3 C24_3 1_555 1_555
C23_3 C30_3 1_555 1_555
C29_3 C50_3 1_555 1_555
C59_3 C95_3 1_555 1_555
C87_3 C88_3 1_555 1_555
C90_3 C96_3 1_555 1_555
C96_3 C98_3 1_555 1_555
C99_3 C108_3 1_555 1_555
C100_3 C101_3 1_555 1_555
H39_2 O25_2 1_555 1_555
O41_2 Be14_2 1_555 1_555
Be16_2 O9_2 1_555 1_555
Be18 O25_2 1_555 1_555
O39_2 C41_3 1_555 1_555
C5_3 C40_3 1_555 1_555
O46_2 C18_3 1_555 1_555
C14_3 C18_3 1_555 1_555
C25_3 H16_3 1_555 1_555
C28_3 C25_3 1_555 1_555
H22_3 C33_3 1_555 1_555
C34_3 C28_3 1_555 1_555
C36_3 C34_3 1_555 1_555
H24_3 C36_3 1_555 1_555
C40_3 C25_3 1_555 1_555
H27_3 C40_3 1_555 1_555
C45_3 C28_3 1_555 1_555
H28_3 C45_3 1_555 1_555
C46_3 C44_3 1_555 1_555
H29_3 C46_3 1_555 1_555
C47_3 C14_3 1_555 1_555
H30_3 C47_3 1_555 1_555
C54_3 C5_3 1_555 1_555
H36_3 C54_3 1_555 1_555
C57_3 C70_3 1_555 1_555
C67_3 H50_3 1_555 1_555
C73_3 H53_3 1_555 1_555
C74_3 H54_3 1_555 1_555
C77_3 C67_3 1_555 1_555
C78_3 C57_3 1_555 1_555
H56_3 C78_3 1_555 1_555
C83_3 H60_3 1_555 1_555
C84_3 C74_3 1_555 1_555
C89_3 C57_3 1_555 1_555
H64_3 C89_3 1_555 1_555
H74_3 C104_3 1_555 1_555
C5_3 C41_3 1_555 1_555
C33_3 C34_3 1_555 1_555
C36_3 C42_3 1_555 1_555
C42_3 C44_3 1_555 1_555
C45_3 C54_3 1_555 1_555
C46_3 C47_3 1_555 1_555
O48_2 C70_3 1_555 1_555
C67_3 C89_3 1_555 1_555
C73_3 C77_3 1_555 1_555
C73_3 C78_3 1_555 1_555
C77_3 C84_3 1_555 1_555
C83_3 C104_3 1_555 1_555
O1_3 C4_3 1_555 1_555
O3_3 H1_3 1_555 1_555
O4_3 H2_3 1_555 1_555
O5_2 H3_2 1_555 1_555
O6_3 Be19 1_555 1_555
O7_3 Be2_2 1_555 1_555
O10_3 C4_3 1_555 1_555
O12_3 Be5_3 1_555 1_555
C1_3 C43_3 1_555 1_555
O13_2 Be2_2 1_555 1_555
C2_3 C4_3 1_555 1_555
O14_3 H5_3 1_555 1_555
C6_3 H6_3 1_555 1_555
C7_3 C6_3 1_555 1_555
C8_3 H7_3 1_555 1_555
C9_3 C21_3 1_555 1_555
Be12 O3_3 1_555 1_555
C10_3 H8_3 1_555 1_555
C11_3 C7_3 1_555 1_555
C12_3 C17_3 1_555 1_555
C15_3 C7_3 1_555 1_555
H10_3 C15_3 1_555 1_555
Be2_2 O4_3 1_555 1_555
C17_3 C10_3 1_555 1_555
H11_3 C17_3 1_555 1_555
C21_3 C8_3 1_555 1_555
C22_3 H14_3 1_555 1_555
C26_3 C2_3 1_555 1_555
H17_3 C26_3 1_555 1_555
C27_3 C12_3 1_555 1_555
H18_3 C27_3 1_555 1_555
O17_3 H20_3 1_555 1_555
C31_3 C11_3 1_555 1_555
H21_3 C31_3 1_555 1_555
C32_3 C10_3 1_555 1_555
C37_3 C2_3 1_555 1_555
H25_3 C37_3 1_555 1_555
Be3_2 O3_3 1_555 1_555
C38_3 C31_3 1_555 1_555
C39_3 C21_3 1_555 1_555
H26_3 C39_3 1_555 1_555
Be19 O5_2 1_555 1_555
C43_3 O7_3 1_555 1_555
Be5_3 O17_3 1_555 1_555
C48_3 C9_3 1_555 1_555
H31_3 C48_3 1_555 1_555
C49_3 C9_3 1_555 1_555
H32_3 C49_3 1_555 1_555
Be22 O1_3 1_555 1_555
Be7_2 O10_3 1_555 1_555
O18_3 Be3_2 1_555 1_555
C51_3 O6_3 1_555 1_555
C52_3 C1_3 1_555 1_555
H34_3 C52_3 1_555 1_555
C53_3 C1_3 1_555 1_555
H35_3 C53_3 1_555 1_555
O19_3 C58_3 1_555 1_555
O23_3 H37_3 1_555 1_555
O24_3 H38_3 1_555 1_555
O26_2 H40_2 1_555 1_555
O28_3 Be19_2 1_555 1_555
O29_3 Be13_3 1_555 1_555
O33_2 Be3_2 1_555 1_555
O34_3 Be15_3 1_555 1_555
O35_2 C58_3 1_555 1_555
O36_2 Be7_2 1_555 1_555
O40_3 Be5_3 1_555 1_555
C55_3 C97_3 1_555 1_555
O42_3 Be13_3 1_555 1_555
C56_3 C58_3 1_555 1_555
O43_2 Be7_2 1_555 1_555
O44_2 H46_2 1_555 1_555
H45_2 O43_2 1_555 1_555
O49_3 Be11 1_555 1_555
C60_3 H47_3 1_555 1_555
C61_3 C60_3 1_555 1_555
C62_3 H48_3 1_555 1_555
C63_3 C75_3 1_555 1_555
Be11 O23_3 1_555 1_555
C64_3 H49_3 1_555 1_555
C65_3 C61_3 1_555 1_555
C66_3 C71_3 1_555 1_555
C69_3 C61_3 1_555 1_555
H51_3 C69_3 1_555 1_555
Be13_3 O24_3 1_555 1_555
C71_3 C64_3 1_555 1_555
H52_3 C71_3 1_555 1_555
C75_3 C62_3 1_555 1_555
C76_3 H55_3 1_555 1_555
C80_3 C56_3 1_555 1_555
H58_3 C80_3 1_555 1_555
C81_3 C66_3 1_555 1_555
H59_3 C81_3 1_555 1_555
O50_3 Be5_3 1_555 1_555
H61_3 O50_3 1_555 1_555
C85_3 C65_3 1_555 1_555
H62_3 C85_3 1_555 1_555
C86_3 C64_3 1_555 1_555
C91_3 C56_3 1_555 1_555
H66_3 C91_3 1_555 1_555
Be15_3 O23_3 1_555 1_555
C92_3 C85_3 1_555 1_555
C93_3 C75_3 1_555 1_555
H67_3 C93_3 1_555 1_555
Be19_2 O26_2 1_555 1_555
C97_3 O29_3 1_555 1_555
C102_3 C63_3 1_555 1_555
H72_3 C102_3 1_555 1_555
C103_3 C63_3 1_555 1_555
H73_3 C103_3 1_555 1_555
Be22_2 O19_3 1_555 1_555
Be24_2 O43_2 1_555 1_555
Be26_2 O35_2 1_555 1_555
O51_3 Be15_3 1_555 1_555
C105_3 O28_3 1_555 1_555
C106_3 C55_3 1_555 1_555
H75_3 C106_3 1_555 1_555
C107_3 C55_3 1_555 1_555
H76_3 C107_3 1_555 1_555
O4_3 Be3_2 1_555 1_555
O32_2 Be2_2 1_555 1_555
O12_3 C51_3 1_555 1_555
O14_3 Be22 1_555 1_555
O14_3 Be7_2 1_555 1_555
C6_3 C26_3 1_555 1_555
C8_3 C11_3 1_555 1_555
C12_3 C51_3 1_555 1_555
C15_3 C37_3 1_555 1_555
C22_3 C27_3 1_555 1_555
C22_3 C32_3 1_555 1_555
O17_3 Be19 1_555 1_555
C32_3 C38_3 1_555 1_555
C38_3 C39_3 1_555 1_555
C43_3 O18_3 1_555 1_555
C48_3 C53_3 1_555 1_555
C49_3 C52_3 1_555 1_555
O24_3 Be15_3 1_555 1_555
O31 Be13_3 1_555 1_555
O40_3 C105_3 1_555 1_555
O44_2 Be22_2 1_555 1_555
O44_2 Be26_2 1_555 1_555
C60_3 C80_3 1_555 1_555
C62_3 C65_3 1_555 1_555
C66_3 C105_3 1_555 1_555
C69_3 C91_3 1_555 1_555
C76_3 C81_3 1_555 1_555
C76_3 C86_3 1_555 1_555
O50_3 Be19_2 1_555 1_555
C86_3 C92_3 1_555 1_555
C92_3 C93_3 1_555 1_555
C97_3 O51_3 1_555 1_555
C102_3 C107_3 1_555 1_555
C103_3 C106_3 1_555 1_555
O27_2 H41_2 1_555 1_555
O27_2 H78_5 1_555 1_555
O26_2 H78_6 1_555 1_555
O1_4 C4_4 1_555 1_555
O3_4 H1_4 1_555 1_555
O4_4 H2_4 1_555 1_555
O6_4 Be18 1_555 1_555
O7_4 Be14_2 1_555 1_555
O10_4 C4_4 1_555 1_555
O12_4 Be5_4 1_555 1_555
C1_4 C43_4 1_555 1_555
C2_4 C4_4 1_555 1_555
O14_4 H5_4 1_555 1_555
C6_4 H6_4 1_555 1_555
C7_4 C6_4 1_555 1_555
C8_4 H7_4 1_555 1_555
C9_4 C21_4 1_555 1_555
Be12_2 O3_4 1_555 1_555
C10_4 H8_4 1_555 1_555
C11_4 C7_4 1_555 1_555
C12_4 C17_4 1_555 1_555
C15_4 C7_4 1_555 1_555
H10_4 C15_4 1_555 1_555
Be14_2 O4_4 1_555 1_555
C17_4 C10_4 1_555 1_555
H11_4 C17_4 1_555 1_555
C21_4 C8_4 1_555 1_555
C22_4 H14_4 1_555 1_555
C26_4 C2_4 1_555 1_555
H17_4 C26_4 1_555 1_555
C27_4 C12_4 1_555 1_555
H18_4 C27_4 1_555 1_555
O17_4 H20_4 1_555 1_555
C31_4 C11_4 1_555 1_555
H21_4 C31_4 1_555 1_555
C32_4 C10_4 1_555 1_555
C37_4 C2_4 1_555 1_555
H25_4 C37_4 1_555 1_555
Be16_2 O3_4 1_555 1_555
C38_4 C31_4 1_555 1_555
C39_4 C21_4 1_555 1_555
H26_4 C39_4 1_555 1_555
C43_4 O7_4 1_555 1_555
Be5_4 O17_4 1_555 1_555
C48_4 C9_4 1_555 1_555
H31_4 C48_4 1_555 1_555
C49_4 C9_4 1_555 1_555
H32_4 C49_4 1_555 1_555
Be24 O1_4 1_555 1_555
Be26_2 O10_4 1_555 1_555
O18_4 Be16_2 1_555 1_555
C51_4 O6_4 1_555 1_555
C52_4 C1_4 1_555 1_555
H34_4 C52_4 1_555 1_555
C53_4 C1_4 1_555 1_555
H35_4 C53_4 1_555 1_555
O19_4 C58_4 1_555 1_555
O23_4 H37_4 1_555 1_555
O24_4 H38_4 1_555 1_555
O28_4 Be18_2 1_555 1_555
O29_4 Be13_4 1_555 1_555
O34_4 Be15_4 1_555 1_555
O36_2 C58_4 1_555 1_555
O40_4 Be5_4 1_555 1_555
C55_4 C97_4 1_555 1_555
O42_4 Be13_4 1_555 1_555
C56_4 C58_4 1_555 1_555
O49_4 Be9 1_555 1_555
C60_4 H47_4 1_555 1_555
C61_4 C60_4 1_555 1_555
C62_4 H48_4 1_555 1_555
C63_4 C75_4 1_555 1_555
Be9 O23_4 1_555 1_555
C64_4 H49_4 1_555 1_555
C65_4 C61_4 1_555 1_555
C66_4 C71_4 1_555 1_555
C69_4 C61_4 1_555 1_555
H51_4 C69_4 1_555 1_555
Be13_4 O24_4 1_555 1_555
C71_4 C64_4 1_555 1_555
H52_4 C71_4 1_555 1_555
C75_4 C62_4 1_555 1_555
C76_4 H55_4 1_555 1_555
C80_4 C56_4 1_555 1_555
H58_4 C80_4 1_555 1_555
C81_4 C66_4 1_555 1_555
H59_4 C81_4 1_555 1_555
O50_4 Be5_4 1_555 1_555
H61_4 O50_4 1_555 1_555
C85_4 C65_4 1_555 1_555
H62_4 C85_4 1_555 1_555
C86_4 C64_4 1_555 1_555
C91_4 C56_4 1_555 1_555
H66_4 C91_4 1_555 1_555
Be15_4 O23_4 1_555 1_555
C92_4 C85_4 1_555 1_555
C93_4 C75_4 1_555 1_555
H67_4 C93_4 1_555 1_555
Be18_2 O27_2 1_555 1_555
C97_4 O29_4 1_555 1_555
C102_4 C63_4 1_555 1_555
H72_4 C102_4 1_555 1_555
C103_4 C63_4 1_555 1_555
H73_4 C103_4 1_555 1_555
Be24_2 O19_4 1_555 1_555
O51_4 Be15_4 1_555 1_555
C105_4 O28_4 1_555 1_555
C106_4 C55_4 1_555 1_555
H75_4 C106_4 1_555 1_555
C107_4 C55_4 1_555 1_555
H76_4 C107_4 1_555 1_555
O4_4 Be16_2 1_555 1_555
O32 Be14_2 1_555 1_555
O12_4 C51_4 1_555 1_555
O14_4 Be24 1_555 1_555
O14_4 Be26_2 1_555 1_555
C6_4 C26_4 1_555 1_555
C8_4 C11_4 1_555 1_555
C12_4 C51_4 1_555 1_555
C15_4 C37_4 1_555 1_555
C22_4 C27_4 1_555 1_555
C22_4 C32_4 1_555 1_555
O17_4 Be18 1_555 1_555
C32_4 C38_4 1_555 1_555
C38_4 C39_4 1_555 1_555
C43_4 O18_4 1_555 1_555
C48_4 C53_4 1_555 1_555
C49_4 C52_4 1_555 1_555
O24_4 Be15_4 1_555 1_555
O31_2 Be13_4 1_555 1_555
O40_4 C105_4 1_555 1_555
C60_4 C80_4 1_555 1_555
C62_4 C65_4 1_555 1_555
C66_4 C105_4 1_555 1_555
C69_4 C91_4 1_555 1_555
C76_4 C81_4 1_555 1_555
C76_4 C86_4 1_555 1_555
O50_4 Be18_2 1_555 1_555
C86_4 C92_4 1_555 1_555
C92_4 C93_4 1_555 1_555
C97_4 O51_4 1_555 1_555
C102_4 C107_4 1_555 1_555
C103_4 C106_4 1_555 1_555
O25_2 H78_7 1_555 1_555
O38 C41_4 1_555 1_555
C5_4 C40_4 1_555 1_555
O47 C18_4 1_555 1_555
C14_4 C18_4 1_555 1_555
C25_4 H16_4 1_555 1_555
C28_4 C25_4 1_555 1_555
H22_4 C33_4 1_555 1_555
C34_4 C28_4 1_555 1_555
C36_4 C34_4 1_555 1_555
H24_4 C36_4 1_555 1_555
C40_4 C25_4 1_555 1_555
H27_4 C40_4 1_555 1_555
C41_4 O42_3 1_555 1_555
C45_4 C28_4 1_555 1_555
H28_4 C45_4 1_555 1_555
C46_4 C44_4 1_555 1_555
H29_4 C46_4 1_555 1_555
C47_4 C14_4 1_555 1_555
H30_4 C47_4 1_555 1_555
C54_4 C5_4 1_555 1_555
H36_4 C54_4 1_555 1_555
C57_4 C70_4 1_555 1_555
C67_4 H50_4 1_555 1_555
C70_4 O34_3 1_555 1_555
C73_4 H53_4 1_555 1_555
C74_4 H54_4 1_555 1_555
C77_4 C67_4 1_555 1_555
C78_4 C57_4 1_555 1_555
H56_4 C78_4 1_555 1_555
C83_4 H60_4 1_555 1_555
C84_4 C74_4 1_555 1_555
C89_4 C57_4 1_555 1_555
H64_4 C89_4 1_555 1_555
H74_4 C104_4 1_555 1_555
C5_4 C41_4 1_555 1_555
C33_4 C34_4 1_555 1_555
C36_4 C42_4 1_555 1_555
C42_4 C44_4 1_555 1_555
C45_4 C54_4 1_555 1_555
C46_4 C47_4 1_555 1_555
O49_3 C70_4 1_555 1_555
C67_4 C89_4 1_555 1_555
C73_4 C77_4 1_555 1_555
C73_4 C78_4 1_555 1_555
C77_4 C84_4 1_555 1_555
C83_4 C104_4 1_555 1_555
O34_4 C16_4 1_555 1_555
C3_4 C16_4 1_555 1_555
O49_4 C16_4 1_555 1_555
C13_4 H9_4 1_555 1_555
C19_4 H12_4 1_555 1_555
C20_4 H13_4 1_555 1_555
C23_4 C13_4 1_555 1_555
C24_4 C3_4 1_555 1_555
H15_4 C24_4 1_555 1_555
C29_4 H19_4 1_555 1_555
C30_4 C20_4 1_555 1_555
C35_4 C3_4 1_555 1_555
H23_4 C35_4 1_555 1_555
H33_4 C50_4 1_555 1_555
C59_4 C94_4 1_555 1_555
O47_2 C72_4 1_555 1_555
C68_4 C72_4 1_555 1_555
C79_4 H57_4 1_555 1_555
C82_4 C79_4 1_555 1_555
H63_4 C87_4 1_555 1_555
C88_4 C82_4 1_555 1_555
C90_4 C88_4 1_555 1_555
H65_4 C90_4 1_555 1_555
C94_4 C79_4 1_555 1_555
H68_4 C94_4 1_555 1_555
C95_4 O38_2 1_555 1_555
C99_4 C82_4 1_555 1_555
H69_4 C99_4 1_555 1_555
C100_4 C98_4 1_555 1_555
H70_4 C100_4 1_555 1_555
C101_4 C68_4 1_555 1_555
H71_4 C101_4 1_555 1_555
C108_4 C59_4 1_555 1_555
H77_4 C108_4 1_555 1_555
C13_4 C35_4 1_555 1_555
C19_4 C23_4 1_555 1_555
C19_4 C24_4 1_555 1_555
C23_4 C30_4 1_555 1_555
C29_4 C50_4 1_555 1_555
O42_4 C95_4 1_555 1_555
C59_4 C95_4 1_555 1_555
C87_4 C88_4 1_555 1_555
C90_4 C96_4 1_555 1_555
C96_4 C98_4 1_555 1_555
C99_4 C108_4 1_555 1_555
C100_4 C101_4 1_555 1_555
O5_2 H78_8 1_555 1_555

#END
