
###############################################################################
#
# This file contains modified crystal structure data generated from the
# MOF subset of the Cambridge Structural Database (CSD) v543 
# hosted by the Cambridge Crystallographic Data Centre (CCDC).
#
# This work is licensed under the Creative Commons
# Attribution-NonCommercial-ShareAlike 4.0 International License.
# To view a copy of this license, visit
# http://creativecommons.org/licenses/by-nc-sa/4.0/
# or send a letter to
# Creative Commons, PO Box 1866, Mountain View, CA 94042, USA.
#
# CIF created using the CSD Python API on 29 September 2022
# The structure has been converted into the P1 space group
# The structure has a 3D framework
# The original CSD entry OJAKOA is in the monoclinic crystal system
# The framework has been calculated to contain at least 10.0% void space
# The void calculation uses a probe of radius 1.32A, grid spacing 0.4
#
###############################################################################

data_OJAKOA
_chemical_formula_moiety         '(C84 H60 O48)n'
_symmetry_cell_setting           triclinic
_symmetry_space_group_name_H-M   'P 1'
_symmetry_Int_Tables_number      1
_space_group_name_Hall           'P 1'
loop_
_symmetry_equiv_pos_site_id
_symmetry_equiv_pos_as_xyz
1 x,y,z
_cell_length_a                   15.1313(16)
_cell_length_b                   16.8284(17)
_cell_length_c                   9.0167(10)
_cell_angle_alpha                90
_cell_angle_beta                 103.841(2)
_cell_angle_gamma                90
_cell_volume                     2229.31
loop_
_atom_site_label
_atom_site_type_symbol
_atom_site_fract_x
_atom_site_fract_y
_atom_site_fract_z
Pr4 Pr 0.038542(17) 0.890867(14) 0.43271(3)
O1 O 0.0073(2) 0.0171(2) 0.7818(4)
O4 O 0.4071(3) 0.1309(3) 0.5704(6)
O5 O 0.6480(2) 0.01547(19) 0.7254(3)
O6 O 0.79920(19) 0.04860(17) 0.6120(4)
O9 O 0.79655(19) 0.17065(18) 0.4279(3)
O10 O 0.9011(2) 0.3196(2) 0.2520(4)
O11 O 0.9558(2) 0.24159(19) 0.4518(4)
C4 C 0.2666(3) 0.0211(3) 0.8559(6)
H3 H 0.2163 0.0533 0.8537
C5 C 0.3379(3) 0.0489(3) 0.7979(6)
H4 H 0.3344 0.1000 0.7577
C6 C 0.4144(3) 0.0031(3) 0.7978(5)
C9 C 0.4795(3) 0.0961(3) 0.6223(6)
C10 C 0.4909(3) 0.0316(3) 0.7336(5)
C12 C 0.6423(3) 0.0752(3) 0.6222(5)
C13 C 0.7199(3) 0.0911(3) 0.5681(5)
C14 C 0.7169(3) 0.1551(3) 0.4696(5)
C15 C 0.6363(3) 0.1985(3) 0.4172(5)
H8 H 0.6343 0.2400 0.3484
C16 C 0.5606(3) 0.1795(3) 0.4677(6)
H9 H 0.5073 0.2083 0.4318
C17 C 0.5616(3) 0.1183(3) 0.5715(5)
C20 C 0.7983(3) 0.2359(3) 0.3265(6)
H12 H 0.7598 0.2784 0.3479
H13 H 0.7745 0.2188 0.2219
C21 C 0.8941(3) 0.2663(3) 0.3454(5)
O12 O 0.0889(3) 0.1824(3) 0.7512(6)
H14 H 0.0708 0.1919 0.8317
H15 H 0.1281 0.1453 0.7718
Pr3 Pr 0.961458(17) 0.109133(14) 0.56729(3)
Pr5 Pr 0.961458(17) 0.390867(14) 0.06729(3)
O15 O 0.0904(2) 0.0273(2) 0.5221(4)
O2 O 0.0699(2) 0.9067(2) 0.7133(4)
O3 O 0.2047(2) 0.91075(19) 0.9779(4)
O7 O 0.8707(3) 0.8544(2) 0.5370(6)
O8 O 0.9096(2) 0.9727(2) 0.4779(4)
C1 C 0.0623(3) 0.9603(3) 0.8060(5)
C2 C 0.1226(3) 0.9553(3) 0.9672(5)
C3 C 0.2704(3) 0.9454(3) 0.9171(5)
C7 C 0.4176(3) 0.9272(3) 0.8623(5)
H5 H 0.4678 0.8949 0.8654
C8 C 0.3472(3) 0.8994(3) 0.9216(6)
H6 H 0.3513 0.8490 0.9652
C11 C 0.5732(3) 0.9969(3) 0.7768(5)
H7 H 0.5795 0.9564 0.8488
C18 C 0.7906(3) 0.9618(3) 0.6083(6)
H10 H 0.7304 0.9469 0.5497
H11 H 0.7982 0.9416 0.7114
C19 C 0.8623(3) 0.9263(3) 0.5363(6)
O13 O 0.9301(2) 0.0933(2) 0.2867(4)
O18 O 0.9011(2) 0.1804(2) 0.7520(4)
O13_2 O 0.0699(2) 0.5933(2) 0.2133(4)
O16 O 0.0904(2) 0.4727(2) 0.0221(4)
O17 O 0.20345(19) 0.67065(18) 0.0721(3)
O19 O 0.0442(2) 0.74159(19) 0.0482(4)
Pr1 Pr 0.038542(17) 0.609133(14) 0.93271(3)
O14 O 0.20080(19) 0.54860(17) 0.8880(4)
O18_2 O 0.0989(2) 0.6804(2) 0.7480(4)
O10_2 O 0.0989(2) 0.8196(2) 0.2480(4)
C14_2 C 0.2831(3) 0.6551(3) 0.0304(5)
C15_2 C 0.3637(3) 0.6985(3) 0.0828(5)
H8_2 H 0.3657 0.7400 0.1516
C16_2 C 0.4394(3) 0.6795(3) 0.0323(6)
H9_2 H 0.4927 0.7083 0.0682
C20_2 C 0.2017(3) 0.7359(3) 0.1735(6)
H12_2 H 0.2402 0.7784 0.1521
H13_2 H 0.2255 0.7188 0.2781
C21_2 C 0.1059(3) 0.7663(3) 0.1546(5)
O1_2 O 0.9927(2) 0.5171(2) 0.7182(4)
O2_2 O 0.9301(2) 0.4067(2) 0.7867(4)
O3_2 O 0.7953(2) 0.41075(19) 0.5221(4)
O4_2 O 0.5929(3) 0.6309(3) 0.9296(6)
O5_2 O 0.3520(2) 0.51547(19) 0.7746(3)
O7_2 O 0.1293(3) 0.3544(2) 0.9630(6)
C1_2 C 0.9377(3) 0.4603(3) 0.6940(5)
C2_2 C 0.8774(3) 0.4553(3) 0.5328(5)
H1 H 0.8615 0.5088 0.4956
H2 H 0.9119 0.4310 0.4669
C3_2 C 0.7296(3) 0.4454(3) 0.5829(5)
C4_2 C 0.7334(3) 0.5211(3) 0.6441(6)
H3_2 H 0.7837 0.5533 0.6463
C5_2 C 0.6621(3) 0.5489(3) 0.7021(6)
H4_2 H 0.6656 0.6000 0.7423
C6_2 C 0.5856(3) 0.5031(3) 0.7022(5)
C7_2 C 0.5824(3) 0.4272(3) 0.6377(5)
H5_2 H 0.5322 0.3949 0.6346
C8_2 C 0.6528(3) 0.3994(3) 0.5784(6)
H6_2 H 0.6487 0.3490 0.5348
C9_2 C 0.5205(3) 0.5961(3) 0.8777(6)
C10_2 C 0.5091(3) 0.5316(3) 0.7664(5)
C11_2 C 0.4268(3) 0.4969(3) 0.7232(5)
H7_2 H 0.4205 0.4564 0.6512
C12_2 C 0.3577(3) 0.5752(3) 0.8778(5)
C13_2 C 0.2801(3) 0.5911(3) 0.9319(5)
C17_2 C 0.4384(3) 0.6183(3) 0.9285(5)
C18_2 C 0.2094(3) 0.4618(3) 0.8917(6)
H10_2 H 0.2696 0.4469 0.9503
H11_2 H 0.2018 0.4416 0.7886
C19_2 C 0.1377(3) 0.4263(3) 0.9637(6)
O12_2 O 0.9111(3) 0.6824(3) 0.7488(6)
H14_2 H 0.9292 0.6919 0.6683
H15_2 H 0.8719 0.6453 0.7282
O15_2 O 0.9096(2) 0.5273(2) 0.9779(4)
O14_2 O 0.20080(19) 0.95140(17) 0.3880(4)
O17_2 O 0.20345(19) 0.82935(18) 0.5721(3)
O19_2 O 0.0442(2) 0.75841(19) 0.5482(4)
O3_3 O 0.7953(2) 0.08925(19) 0.0221(4)
O7_3 O 0.1293(3) 0.1456(2) 0.4630(6)
C1_3 C 0.9377(3) 0.0397(3) 0.1940(5)
C2_3 C 0.8774(3) 0.0447(3) 0.0328(5)
C3_3 C 0.7296(3) 0.0546(3) 0.0829(5)
C7_3 C 0.5824(3) 0.0728(3) 0.1377(5)
H5_3 H 0.5322 0.1051 0.1346
C8_3 C 0.6528(3) 0.1006(3) 0.0784(6)
H6_3 H 0.6487 0.1510 0.0348
C11_3 C 0.4268(3) 0.0031(3) 0.2232(5)
H7_3 H 0.4205 0.0436 0.1512
C18_3 C 0.2094(3) 0.0382(3) 0.3917(6)
H10_3 H 0.2696 0.0531 0.4503
H11_3 H 0.2018 0.0584 0.2886
C19_3 C 0.1377(3) 0.0737(3) 0.4637(6)
O1_3 O 0.9927(2) 0.9829(2) 0.2182(4)
O4_3 O 0.5929(3) 0.8691(3) 0.4296(6)
O5_3 O 0.3520(2) 0.98453(19) 0.2746(3)
C4_3 C 0.7334(3) 0.9789(3) 0.1441(6)
H3_3 H 0.7837 0.9467 0.1463
C5_3 C 0.6621(3) 0.9511(3) 0.2021(6)
H4_3 H 0.6656 0.9000 0.2423
C6_3 C 0.5856(3) 0.9969(3) 0.2022(5)
C9_3 C 0.5205(3) 0.9039(3) 0.3777(6)
C10_3 C 0.5091(3) 0.9684(3) 0.2664(5)
C12_3 C 0.3577(3) 0.9248(3) 0.3778(5)
C13_3 C 0.2801(3) 0.9089(3) 0.4319(5)
C14_3 C 0.2831(3) 0.8449(3) 0.5304(5)
C15_3 C 0.3637(3) 0.8015(3) 0.5828(5)
H8_3 H 0.3657 0.7600 0.6516
C16_3 C 0.4394(3) 0.8205(3) 0.5323(6)
H9_3 H 0.4927 0.7917 0.5682
C17_3 C 0.4384(3) 0.8817(3) 0.4285(5)
C20_3 C 0.2017(3) 0.7641(3) 0.6735(6)
H12_3 H 0.2402 0.7216 0.6521
H13_3 H 0.2255 0.7812 0.7781
C21_3 C 0.1059(3) 0.7337(3) 0.6546(5)
O12_3 O 0.9111(3) 0.8176(3) 0.2488(6)
H14_3 H 0.9292 0.8081 0.1683
H15_3 H 0.8719 0.8547 0.2282
O1_4 O 0.0073(2) 0.4829(2) 0.2818(4)
O3_4 O 0.2047(2) 0.58925(19) 0.4779(4)
O4_4 O 0.4071(3) 0.3691(3) 0.0704(6)
O5_4 O 0.6480(2) 0.48453(19) 0.2254(3)
O6_2 O 0.79920(19) 0.45140(17) 0.1120(4)
O7_4 O 0.8707(3) 0.6456(2) 0.0370(6)
C1_4 C 0.0623(3) 0.5397(3) 0.3060(5)
C2_4 C 0.1226(3) 0.5447(3) 0.4672(5)
H1_2 H 0.1385 0.4912 0.5044
H2_2 H 0.0881 0.5690 0.5331
C3_4 C 0.2704(3) 0.5546(3) 0.4171(5)
C4_4 C 0.2666(3) 0.4789(3) 0.3559(6)
H3_4 H 0.2163 0.4467 0.3537
C5_4 C 0.3379(3) 0.4511(3) 0.2979(6)
H4_4 H 0.3344 0.4000 0.2577
C6_4 C 0.4144(3) 0.4969(3) 0.2978(5)
C7_4 C 0.4176(3) 0.5728(3) 0.3623(5)
H5_4 H 0.4678 0.6051 0.3654
C8_4 C 0.3472(3) 0.6006(3) 0.4216(6)
H6_4 H 0.3513 0.6510 0.4652
C9_4 C 0.4795(3) 0.4039(3) 0.1223(6)
C10_4 C 0.4909(3) 0.4684(3) 0.2336(5)
C11_4 C 0.5732(3) 0.5031(3) 0.2768(5)
H7_4 H 0.5795 0.5436 0.3488
C12_4 C 0.6423(3) 0.4248(3) 0.1222(5)
C13_4 C 0.7199(3) 0.4089(3) 0.0681(5)
C17_4 C 0.5616(3) 0.3817(3) 0.0715(5)
C18_4 C 0.7906(3) 0.5382(3) 0.1083(6)
H10_4 H 0.7304 0.5531 0.0497
H11_4 H 0.7982 0.5584 0.2114
C19_4 C 0.8623(3) 0.5737(3) 0.0363(6)
O12_4 O 0.0889(3) 0.3176(3) 0.2512(6)
H14_4 H 0.0708 0.3081 0.3317
H15_4 H 0.1281 0.3547 0.2718
O9_2 O 0.79655(19) 0.32935(18) 0.9279(3)
O11_2 O 0.9558(2) 0.25841(19) 0.9518(4)
C14_4 C 0.7169(3) 0.3449(3) 0.9696(5)
C15_4 C 0.6363(3) 0.3015(3) 0.9172(5)
H8_4 H 0.6343 0.2600 0.8484
C16_4 C 0.5606(3) 0.3205(3) 0.9677(6)
H9_4 H 0.5073 0.2917 0.9318
C20_4 C 0.7983(3) 0.2641(3) 0.8265(6)
H12_4 H 0.7598 0.2216 0.8479
H13_4 H 0.7745 0.2812 0.7219
C21_4 C 0.8941(3) 0.2337(3) 0.8454(5)
H1_3 H 0.1385 0.0088 0.0044
H2_3 H 0.0881 0.9310 0.0331
H2_4 H 0.9119 0.0690 0.9669
H1_4 H 0.8615 0.9912 0.9956
loop_
_geom_bond_atom_site_label_1
_geom_bond_atom_site_label_2
_geom_bond_site_symmetry_1
_geom_bond_site_symmetry_2
O4 C9 1_555 1_555
O6 C13 1_555 1_555
O9 C14 1_555 1_555
O10 C21 1_555 1_555
O11 C21 1_555 1_555
H3 C4 1_555 1_555
C5 C4 1_555 1_555
H4 C5 1_555 1_555
C6 C5 1_555 1_555
C9 C10 1_555 1_555
C10 C6 1_555 1_555
C12 O5 1_555 1_555
C13 C12 1_555 1_555
C14 C13 1_555 1_555
C15 C14 1_555 1_555
H8 C15 1_555 1_555
C16 C15 1_555 1_555
H9 C16 1_555 1_555
C17 C9 1_555 1_555
C20 O9 1_555 1_555
H12 C20 1_555 1_555
H13 C20 1_555 1_555
C21 C20 1_555 1_555
H14 O12 1_555 1_555
H15 O12 1_555 1_555
Pr3 O6 1_555 1_555
Pr5 O10 1_555 1_555
O9 Pr3 1_555 1_555
O11 Pr3 1_555 1_555
C12 C17 1_555 1_555
C16 C17 1_555 1_555
O2 C1 1_555 1_555
O3 C2 1_555 1_555
O7 C19 1_555 1_555
O8 C19 1_555 1_555
C1 C2 1_555 1_555
C3 O3 1_555 1_555
H5 C7 1_555 1_555
C8 C3 1_555 1_555
H6 C8 1_555 1_555
H7 C11 1_555 1_555
H10 C18 1_555 1_555
H11 C18 1_555 1_555
C19 C18 1_555 1_555
Pr4 O2 1_555 1_555
C7 C8 1_555 1_555
O13 Pr3 1_555 1_555
O18 Pr3 1_555 1_555
O14 Pr1 1_555 1_555
O18_2 Pr1 1_555 1_555
O17 C14_2 1_555 1_555
O10_2 C21_2 1_555 1_555
O19 C21_2 1_555 1_555
C15_2 C14_2 1_555 1_555
H8_2 C15_2 1_555 1_555
C16_2 C15_2 1_555 1_555
H9_2 C16_2 1_555 1_555
C20_2 O17 1_555 1_555
H12_2 C20_2 1_555 1_555
H13_2 C20_2 1_555 1_555
C21_2 C20_2 1_555 1_555
Pr4 O10_2 1_555 1_555
O1_2 C1_2 1_555 1_555
O2_2 C1_2 1_555 1_555
O3_2 C2_2 1_555 1_555
O4_2 C9_2 1_555 1_555
O5_2 C11_2 1_555 1_555
O14 C13_2 1_555 1_555
O7_2 C19_2 1_555 1_555
C1_2 C2_2 1_555 1_555
C2_2 H1 1_555 1_555
H2 C2_2 1_555 1_555
C3_2 O3_2 1_555 1_555
C4_2 C3_2 1_555 1_555
H3_2 C4_2 1_555 1_555
C5_2 C4_2 1_555 1_555
H4_2 C5_2 1_555 1_555
C6_2 C5_2 1_555 1_555
C7_2 C6_2 1_555 1_555
H5_2 C7_2 1_555 1_555
C8_2 C3_2 1_555 1_555
H6_2 C8_2 1_555 1_555
C9_2 C10_2 1_555 1_555
C10_2 C6_2 1_555 1_555
C11_2 C10_2 1_555 1_555
H7_2 C11_2 1_555 1_555
C12_2 O5_2 1_555 1_555
C13_2 C12_2 1_555 1_555
C17_2 C9_2 1_555 1_555
C18_2 O14 1_555 1_555
H10_2 C18_2 1_555 1_555
H11_2 C18_2 1_555 1_555
C19_2 C18_2 1_555 1_555
H14_2 O12_2 1_555 1_555
H15_2 O12_2 1_555 1_555
C7_2 C8_2 1_555 1_555
C12_2 C17_2 1_555 1_555
O14_2 Pr4 1_555 1_555
O17_2 Pr4 1_555 1_555
O19_2 Pr4 1_555 1_555
O13 C1_3 1_555 1_555
O3_3 C2_3 1_555 1_555
O7_3 C19_3 1_555 1_555
O15 C19_3 1_555 1_555
C1_3 C2_3 1_555 1_555
C3_3 O3_3 1_555 1_555
H5_3 C7_3 1_555 1_555
C8_3 C3_3 1_555 1_555
H6_3 C8_3 1_555 1_555
H7_3 C11_3 1_555 1_555
H10_3 C18_3 1_555 1_555
H11_3 C18_3 1_555 1_555
C19_3 C18_3 1_555 1_555
C7_3 C8_3 1_555 1_555
O4_3 C9_3 1_555 1_555
O14_2 C13_3 1_555 1_555
O17_2 C14_3 1_555 1_555
O18_2 C21_3 1_555 1_555
O19_2 C21_3 1_555 1_555
H3_3 C4_3 1_555 1_555
C5_3 C4_3 1_555 1_555
H4_3 C5_3 1_555 1_555
C6_3 C5_3 1_555 1_555
C9_3 C10_3 1_555 1_555
C10_3 C6_3 1_555 1_555
C12_3 O5_3 1_555 1_555
C13_3 C12_3 1_555 1_555
C14_3 C13_3 1_555 1_555
C15_3 C14_3 1_555 1_555
H8_3 C15_3 1_555 1_555
C16_3 C15_3 1_555 1_555
H9_3 C16_3 1_555 1_555
C17_3 C9_3 1_555 1_555
C20_3 O17_2 1_555 1_555
H12_3 C20_3 1_555 1_555
H13_3 C20_3 1_555 1_555
C21_3 C20_3 1_555 1_555
H14_3 O12_3 1_555 1_555
H15_3 O12_3 1_555 1_555
C12_3 C17_3 1_555 1_555
C16_3 C17_3 1_555 1_555
O1_4 C1_4 1_555 1_555
O13_2 C1_4 1_555 1_555
O3_4 C2_4 1_555 1_555
O4_4 C9_4 1_555 1_555
O5_4 C11_4 1_555 1_555
O6_2 C13_4 1_555 1_555
O7_4 C19_4 1_555 1_555
C1_4 C2_4 1_555 1_555
C2_4 H1_2 1_555 1_555
H2_2 C2_4 1_555 1_555
C3_4 O3_4 1_555 1_555
C4_4 C3_4 1_555 1_555
H3_4 C4_4 1_555 1_555
C5_4 C4_4 1_555 1_555
H4_4 C5_4 1_555 1_555
C6_4 C5_4 1_555 1_555
C7_4 C6_4 1_555 1_555
H5_4 C7_4 1_555 1_555
C8_4 C3_4 1_555 1_555
H6_4 C8_4 1_555 1_555
C9_4 C10_4 1_555 1_555
C10_4 C6_4 1_555 1_555
C11_4 C10_4 1_555 1_555
H7_4 C11_4 1_555 1_555
C12_4 O5_4 1_555 1_555
C13_4 C12_4 1_555 1_555
C17_4 C9_4 1_555 1_555
C18_4 O6_2 1_555 1_555
H10_4 C18_4 1_555 1_555
H11_4 C18_4 1_555 1_555
C19_4 C18_4 1_555 1_555
H14_4 O12_4 1_555 1_555
H15_4 O12_4 1_555 1_555
Pr5 O6_2 1_555 1_555
C7_4 C8_4 1_555 1_555
C12_4 C17_4 1_555 1_555
O9_2 C14_4 1_555 1_555
O18 C21_4 1_555 1_555
O11_2 C21_4 1_555 1_555
C15_4 C14_4 1_555 1_555
H8_4 C15_4 1_555 1_555
C16_4 C15_4 1_555 1_555
H9_4 C16_4 1_555 1_555
C20_4 O9_2 1_555 1_555
H12_4 C20_4 1_555 1_555
H13_4 C20_4 1_555 1_555
C21_4 C20_4 1_555 1_555

#END
