
###############################################################################
#
# This file contains modified crystal structure data generated from the
# MOF subset of the Cambridge Structural Database (CSD) v543 
# hosted by the Cambridge Crystallographic Data Centre (CCDC).
#
# This work is licensed under the Creative Commons
# Attribution-NonCommercial-ShareAlike 4.0 International License.
# To view a copy of this license, visit
# http://creativecommons.org/licenses/by-nc-sa/4.0/
# or send a letter to
# Creative Commons, PO Box 1866, Mountain View, CA 94042, USA.
#
# CIF created using the CSD Python API on 29 September 2022
# The structure has been converted into the P1 space group
# The structure has a 3D framework
# The original CSD entry OJAWII is in the trigonal crystal system
# The framework has been calculated to contain at least 10.0% void space
# The void calculation uses a probe of radius 1.32A, grid spacing 0.4
#
###############################################################################

data_OJAWII
_chemical_formula_moiety         '(C144 H108 Fe2 O24 P12)n'
_symmetry_cell_setting           triclinic
_symmetry_space_group_name_H-M   'P 1'
_symmetry_Int_Tables_number      1
_space_group_name_Hall           'P 1'
loop_
_symmetry_equiv_pos_site_id
_symmetry_equiv_pos_as_xyz
1 x,y,z
_cell_length_a                   25.0259(11)
_cell_length_b                   25.0259(11)
_cell_length_c                   9.5800(8)
_cell_angle_alpha                90
_cell_angle_beta                 90
_cell_angle_gamma                120
_cell_volume                     5196.08
loop_
_atom_site_label
_atom_site_type_symbol
_atom_site_fract_x
_atom_site_fract_y
_atom_site_fract_z
_atom_site_U_iso_or_equiv
_atom_site_thermal_displace_type
P4 P 0.2461(6) 0.5658(8) 0.2785(9) 0.0370 Uiso
O7 O 0.2661(11) 0.6089(14) 0.3954(18) 0.0370 Uiso
O8 O 0.2699(9) 0.5989(11) 0.1510(19) 0.0370 Uiso
C37 C 0.1620(6) 0.5230(7) 0.2711(7) 0.0370 Uiso
C38 C 0.1283(9) 0.5126(11) 0.3908(8) 0.0370 Uiso
C39 C 0.1327(8) 0.4995(10) 0.1467(8) 0.0370 Uiso
C40 C 0.2742(6) 0.5120(7) 0.3024(8) 0.0370 Uiso
C41 C 0.3040(9) 0.5015(10) 0.1959(11) 0.0370 Uiso
C42 C 0.3194(14) 0.4570(15) 0.2085(14) 0.0370 Uiso
C43 C 0.3060(13) 0.4233(14) 0.3287(19) 0.0370 Uiso
C44 C 0.2767(10) 0.4341(12) 0.4354(12) 0.0370 Uiso
C45 C 0.2625(11) 0.4796(12) 0.4240(10) 0.0370 Uiso
C46 C 0.0697(8) 0.4661(10) 0.1417(8) 0.0370 Uiso
C47 C 0.0653(8) 0.4785(9) 0.3860(7) 0.0370 Uiso
C48 C 0.0359(6) 0.4576(7) 0.2606(7) 0.0370 Uiso
H28 H 0.148760 0.529129 0.478076 0.0438 Uiso
H29 H 0.156399 0.506476 0.062947 0.0438 Uiso
H30 H 0.313954 0.525639 0.112076 0.0438 Uiso
H31 H 0.339798 0.449164 0.132997 0.0438 Uiso
H32 H 0.317199 0.391920 0.337893 0.0438 Uiso
H33 H 0.266167 0.409615 0.518757 0.0438 Uiso
H34 H 0.244290 0.489037 0.50136 0.0438 Uiso
H35 H 0.049156 0.448674 0.054963 0.0438 Uiso
H36 H 0.041697 0.469327 0.470483 0.0438 Uiso
Fe5 Fe 0.333333 0.666667 0.031(3) 0.0640 Uiso
Fe8 Fe 0.333333 0.666667 0.5302(14) 0.0640 Uiso
P1 P 0.5636(5) 0.2439(4) 0.2115(10) 0.0370 Uiso
O1 O 0.6029(6) 0.2651(7) 0.0895(19) 0.0370 Uiso
O2 O 0.5993(6) 0.2756(6) 0.3352(18) 0.0370 Uiso
C1 C 0.5314(6) 0.1606(3) 0.2319(8) 0.0370 Uiso
C2 C 0.5087(12) 0.1333(4) 0.3588(8) 0.0370 Uiso
C3 C 0.5248(10) 0.1248(4) 0.1174(11) 0.0370 Uiso
C4 C 0.5002(3) 0.2601(4) 0.1901(10) 0.0370 Uiso
C5 C 0.4516(5) 0.2238(4) 0.1045(13) 0.0370 Uiso
C6 C 0.4006(5) 0.2299(8) 0.1040(17) 0.0370 Uiso
C7 C 0.3992(4) 0.2745(6) 0.183(2) 0.0370 Uiso
C8 C 0.4490(5) 0.3127(5) 0.2642(18) 0.0370 Uiso
C9 C 0.4995(4) 0.3057(6) 0.2667(16) 0.0370 Uiso
C10 C 0.4897(17) 0.0619(4) 0.1264(11) 0.0370 Uiso
C11 C 0.4733(15) 0.0705(5) 0.3681(10) 0.0370 Uiso
C12 C 0.4633(7) 0.0347(3) 0.2515(7) 0.0370 Uiso
H1 H 0.517519 0.158278 0.441077 0.0438 Uiso
H2 H 0.544667 0.143841 0.031095 0.0438 Uiso
H3 H 0.453519 0.193958 0.044805 0.0438 Uiso
H4 H 0.36561 0.202841 0.047898 0.0438 Uiso
H5 H 0.363408 0.279108 0.182036 0.0438 Uiso
H6 H 0.448231 0.344349 0.319158 0.0438 Uiso
H7 H 0.534597 0.332852 0.322399 0.0438 Uiso
H8 H 0.483565 0.036902 0.045461 0.0438 Uiso
H9 H 0.455493 0.051414 0.455917 0.0438 Uiso
Fe2 Fe 0.666667 0.333333 0.4698(14) 0.0640 Uiso
P3 P 0.7561(4) 0.3197(6) 0.2115(10) 0.0370 Uiso
O5 O 0.7349(7) 0.3378(9) 0.0895(19) 0.0370 Uiso
O6 O 0.7244(6) 0.3237(8) 0.3352(18) 0.0370 Uiso
C25 C 0.8394(3) 0.3708(7) 0.2319(8) 0.0370 Uiso
C26 C 0.8667(4) 0.3754(13) 0.3588(8) 0.0370 Uiso
C27 C 0.8752(4) 0.4000(11) 0.1174(11) 0.0370 Uiso
C28 C 0.7399(4) 0.2401(5) 0.1901(10) 0.0370 Uiso
C29 C 0.7762(4) 0.2278(6) 0.1045(13) 0.0370 Uiso
C30 C 0.7701(8) 0.1707(9) 0.1040(17) 0.0370 Uiso
C31 C 0.7255(6) 0.1247(7) 0.183(2) 0.0370 Uiso
C32 C 0.6873(5) 0.1363(7) 0.2642(18) 0.0370 Uiso
C33 C 0.6943(6) 0.1938(7) 0.2667(16) 0.0370 Uiso
C34 C 0.9381(4) 0.4278(17) 0.1264(11) 0.0370 Uiso
C35 C 0.9295(5) 0.4028(16) 0.3681(10) 0.0370 Uiso
C36 C 0.9653(3) 0.4286(8) 0.2515(7) 0.0370 Uiso
H19 H 0.841722 0.359241 0.441077 0.0438 Uiso
H20 H 0.856159 0.400826 0.031095 0.0438 Uiso
H21 H 0.806042 0.259561 0.044805 0.0438 Uiso
H22 H 0.797159 0.162769 0.047898 0.0438 Uiso
H23 H 0.720892 0.084300 0.182036 0.0438 Uiso
H24 H 0.655651 0.103882 0.319158 0.0438 Uiso
H25 H 0.667148 0.201745 0.322399 0.0438 Uiso
H26 H 0.963098 0.446663 0.045461 0.0438 Uiso
H27 H 0.948586 0.404079 0.455917 0.0438 Uiso
P5 P 0.6803(6) 0.4364(5) 0.2115(10) 0.0370 Uiso
O9 O 0.6622(9) 0.3971(6) 0.0895(19) 0.0370 Uiso
O10 O 0.6763(8) 0.4007(6) 0.3352(18) 0.0370 Uiso
C49 C 0.6292(7) 0.4686(6) 0.2319(8) 0.0370 Uiso
C50 C 0.6246(13) 0.4913(12) 0.3588(8) 0.0370 Uiso
C51 C 0.6000(11) 0.4752(10) 0.1174(11) 0.0370 Uiso
C52 C 0.7599(5) 0.4998(3) 0.1901(10) 0.0370 Uiso
C53 C 0.7722(6) 0.5484(5) 0.1045(13) 0.0370 Uiso
C54 C 0.8293(9) 0.5994(5) 0.1040(17) 0.0370 Uiso
C55 C 0.8753(7) 0.6008(4) 0.183(2) 0.0370 Uiso
C56 C 0.8637(7) 0.5510(5) 0.2642(18) 0.0370 Uiso
C57 C 0.8062(7) 0.5005(4) 0.2667(16) 0.0370 Uiso
C58 C 0.5722(17) 0.5103(17) 0.1264(11) 0.0370 Uiso
C59 C 0.5972(16) 0.5267(15) 0.3681(10) 0.0370 Uiso
C60 C 0.5714(8) 0.5367(7) 0.2515(7) 0.0370 Uiso
P6 P 0.4342(8) 0.6803(5) 0.2785(9) 0.0370 Uiso
O11 O 0.3911(14) 0.6572(8) 0.3954(18) 0.0370 Uiso
O12 O 0.4011(11) 0.6710(6) 0.1510(19) 0.0370 Uiso
C61 C 0.4770(7) 0.6390(4) 0.2711(7) 0.0370 Uiso
C62 C 0.4874(11) 0.6157(7) 0.3908(8) 0.0370 Uiso
C63 C 0.5005(10) 0.6332(6) 0.1467(8) 0.0370 Uiso
C64 C 0.4880(7) 0.7622(3) 0.3024(8) 0.0370 Uiso
C65 C 0.4985(10) 0.8025(5) 0.1959(11) 0.0370 Uiso
C66 C 0.5430(15) 0.8624(5) 0.2085(14) 0.0370 Uiso
C67 C 0.5767(14) 0.8827(5) 0.3287(19) 0.0370 Uiso
C68 C 0.5659(12) 0.8426(6) 0.4354(12) 0.0370 Uiso
C69 C 0.5204(12) 0.7829(4) 0.4240(10) 0.0370 Uiso
C70 C 0.5339(10) 0.6036(6) 0.1417(8) 0.0370 Uiso
C71 C 0.5215(9) 0.5868(5) 0.3860(7) 0.0370 Uiso
C72 C 0.5424(7) 0.5783(4) 0.2606(7) 0.0370 Uiso
H37 H 0.640759 0.482481 0.441077 0.0438 Uiso
H38 H 0.599174 0.455333 0.031095 0.0438 Uiso
H39 H 0.740439 0.546481 0.044805 0.0438 Uiso
H40 H 0.837231 0.63439 0.047898 0.0438 Uiso
H41 H 0.915700 0.636592 0.182036 0.0438 Uiso
H42 H 0.896118 0.551769 0.319158 0.0438 Uiso
H43 H 0.798255 0.465403 0.322399 0.0438 Uiso
H44 H 0.553337 0.516435 0.045461 0.0438 Uiso
H45 H 0.595921 0.544507 0.455917 0.0438 Uiso
H46 H 0.470871 0.619631 0.478076 0.0438 Uiso
H47 H 0.493524 0.649923 0.062947 0.0438 Uiso
H48 H 0.474361 0.788315 0.112076 0.0438 Uiso
H49 H 0.550836 0.890634 0.132997 0.0438 Uiso
H50 H 0.608080 0.925279 0.337893 0.0438 Uiso
H51 H 0.590385 0.856552 0.518757 0.0438 Uiso
H52 H 0.510963 0.755253 0.50136 0.0438 Uiso
H53 H 0.551326 0.600482 0.054963 0.0438 Uiso
H54 H 0.530673 0.57237 0.470483 0.0438 Uiso
O13 O 0.6572(8) 0.2661(11) 0.6046(18) 0.0370 Uiso
O14 O 0.7339(11) 0.3911(14) 0.6046(18) 0.0370 Uiso
O15 O 0.6089(14) 0.3428(8) 0.6046(18) 0.0370 Uiso
Fe1 Fe 0.666667 0.333333 0.969(3) 0.0640 Uiso
O16 O 0.6710(6) 0.2699(9) 0.8490(19) 0.0370 Uiso
O17 O 0.7301(9) 0.4011(11) 0.8490(19) 0.0370 Uiso
O18 O 0.5989(11) 0.3290(6) 0.8490(19) 0.0370 Uiso
P2 P 0.3197(5) 0.7539(6) 0.2785(9) 0.0370 Uiso
O3 O 0.3428(8) 0.7339(11) 0.3954(18) 0.0370 Uiso
O4 O 0.3290(6) 0.7301(9) 0.1510(19) 0.0370 Uiso
C13 C 0.3610(4) 0.8380(6) 0.2711(7) 0.0370 Uiso
C14 C 0.3843(7) 0.8717(9) 0.3908(8) 0.0370 Uiso
C15 C 0.3668(6) 0.8673(8) 0.1467(8) 0.0370 Uiso
C16 C 0.2378(3) 0.7258(6) 0.3024(8) 0.0370 Uiso
C17 C 0.1975(5) 0.6960(9) 0.1959(11) 0.0370 Uiso
C18 C 0.1376(5) 0.6806(14) 0.2085(14) 0.0370 Uiso
C19 C 0.1173(5) 0.6940(13) 0.3287(19) 0.0370 Uiso
C20 C 0.1574(6) 0.7233(10) 0.4354(12) 0.0370 Uiso
C21 C 0.2171(4) 0.7375(11) 0.4240(10) 0.0370 Uiso
C22 C 0.3964(6) 0.9303(8) 0.1417(8) 0.0370 Uiso
C23 C 0.4132(5) 0.9347(8) 0.3860(7) 0.0370 Uiso
C24 C 0.4217(4) 0.9641(6) 0.2606(7) 0.0370 Uiso
H10 H 0.380369 0.851240 0.478076 0.0438 Uiso
H11 H 0.350077 0.843601 0.062947 0.0438 Uiso
H12 H 0.211685 0.686046 0.112076 0.0438 Uiso
H13 H 0.109366 0.660202 0.132997 0.0438 Uiso
H14 H 0.074721 0.682801 0.337893 0.0438 Uiso
H15 H 0.143448 0.733833 0.518757 0.0438 Uiso
H16 H 0.244747 0.755710 0.50136 0.0438 Uiso
H17 H 0.399518 0.950844 0.054963 0.0438 Uiso
H18 H 0.42763 0.958303 0.470483 0.0438 Uiso
P2_2 P 0.6803(5) 0.2461(6) 0.7215(9) 0.0370 Uiso
C13_2 C 0.6390(4) 0.1620(6) 0.7289(7) 0.0370 Uiso
C14_2 C 0.6157(7) 0.1283(9) 0.6092(8) 0.0370 Uiso
C15_2 C 0.6332(6) 0.1327(8) 0.8533(8) 0.0370 Uiso
C16_2 C 0.7622(3) 0.2742(6) 0.6976(8) 0.0370 Uiso
C17_2 C 0.8025(5) 0.3040(9) 0.8041(11) 0.0370 Uiso
C18_2 C 0.8624(5) 0.3194(14) 0.7915(14) 0.0370 Uiso
C19_2 C 0.8827(5) 0.3060(13) 0.6713(19) 0.0370 Uiso
C20_2 C 0.8426(6) 0.2767(10) 0.5646(12) 0.0370 Uiso
C21_2 C 0.7829(4) 0.2625(11) 0.5760(10) 0.0370 Uiso
C22_2 C 0.6036(6) 0.0697(8) 0.8583(8) 0.0370 Uiso
C23_2 C 0.5868(5) 0.0653(8) 0.6140(7) 0.0370 Uiso
C24_2 C 0.5783(4) 0.0359(6) 0.7394(7) 0.0370 Uiso
H10_2 H 0.619631 0.148760 0.521924 0.0438 Uiso
H11_2 H 0.649923 0.156399 0.937053 0.0438 Uiso
H12_2 H 0.788315 0.313954 0.887924 0.0438 Uiso
H13_2 H 0.890634 0.339798 0.867003 0.0438 Uiso
H14_2 H 0.925279 0.317199 0.662107 0.0438 Uiso
H15_2 H 0.856552 0.266167 0.481243 0.0438 Uiso
H16_2 H 0.755253 0.244290 0.49864 0.0438 Uiso
H17_2 H 0.600482 0.049156 0.945037 0.0438 Uiso
H18_2 H 0.57237 0.041697 0.529517 0.0438 Uiso
P1_2 P 0.4364(5) 0.7561(4) 0.7885(10) 0.0370 Uiso
O1_2 O 0.3971(6) 0.7349(7) 0.9105(19) 0.0370 Uiso
O2_2 O 0.4007(6) 0.7244(6) 0.6648(18) 0.0370 Uiso
C1_2 C 0.4686(6) 0.8394(3) 0.7681(8) 0.0370 Uiso
C2_2 C 0.4913(12) 0.8667(4) 0.6412(8) 0.0370 Uiso
C3_2 C 0.4752(10) 0.8752(4) 0.8826(11) 0.0370 Uiso
C4_2 C 0.4998(3) 0.7399(4) 0.8099(10) 0.0370 Uiso
C5_2 C 0.5484(5) 0.7762(4) 0.8955(13) 0.0370 Uiso
C6_2 C 0.5994(5) 0.7701(8) 0.8960(17) 0.0370 Uiso
C7_2 C 0.6008(4) 0.7255(6) 0.817(2) 0.0370 Uiso
C8_2 C 0.5510(5) 0.6873(5) 0.7358(18) 0.0370 Uiso
C9_2 C 0.5005(4) 0.6943(6) 0.7333(16) 0.0370 Uiso
C10_2 C 0.5103(17) 0.9381(4) 0.8736(11) 0.0370 Uiso
C11_2 C 0.5267(15) 0.9295(5) 0.6319(10) 0.0370 Uiso
C12_2 C 0.5367(7) 0.9653(3) 0.7485(7) 0.0370 Uiso
H1_2 H 0.482481 0.841722 0.558923 0.0438 Uiso
H2_2 H 0.455333 0.856159 0.968905 0.0438 Uiso
H3_2 H 0.546481 0.806042 0.955195 0.0438 Uiso
H4_2 H 0.63439 0.797159 0.952102 0.0438 Uiso
H5_2 H 0.636592 0.720892 0.817964 0.0438 Uiso
H6_2 H 0.551769 0.655651 0.680842 0.0438 Uiso
H7_2 H 0.465403 0.667148 0.677601 0.0438 Uiso
H8_2 H 0.516435 0.963098 0.954539 0.0438 Uiso
H9_2 H 0.544507 0.948586 0.544083 0.0438 Uiso
P3_2 P 0.2439(4) 0.6803(6) 0.7885(10) 0.0370 Uiso
O5_2 O 0.2651(7) 0.6622(9) 0.9105(19) 0.0370 Uiso
O6_2 O 0.2756(6) 0.6763(8) 0.6648(18) 0.0370 Uiso
C25_2 C 0.1606(3) 0.6292(7) 0.7681(8) 0.0370 Uiso
C26_2 C 0.1333(4) 0.6246(13) 0.6412(8) 0.0370 Uiso
C27_2 C 0.1248(4) 0.6000(11) 0.8826(11) 0.0370 Uiso
C28_2 C 0.2601(4) 0.7599(5) 0.8099(10) 0.0370 Uiso
C29_2 C 0.2238(4) 0.7722(6) 0.8955(13) 0.0370 Uiso
C30_2 C 0.2299(8) 0.8293(9) 0.8960(17) 0.0370 Uiso
C31_2 C 0.2745(6) 0.8753(7) 0.817(2) 0.0370 Uiso
C32_2 C 0.3127(5) 0.8637(7) 0.7358(18) 0.0370 Uiso
C33_2 C 0.3057(6) 0.8062(7) 0.7333(16) 0.0370 Uiso
C34_2 C 0.0619(4) 0.5722(17) 0.8736(11) 0.0370 Uiso
C35_2 C 0.0705(5) 0.5972(16) 0.6319(10) 0.0370 Uiso
C36_2 C 0.0347(3) 0.5714(8) 0.7485(7) 0.0370 Uiso
H19_2 H 0.158278 0.640759 0.558923 0.0438 Uiso
H20_2 H 0.143841 0.599174 0.968905 0.0438 Uiso
H21_2 H 0.193958 0.740439 0.955195 0.0438 Uiso
H22_2 H 0.202841 0.837231 0.952102 0.0438 Uiso
H23_2 H 0.279108 0.915700 0.817964 0.0438 Uiso
H24_2 H 0.344349 0.896118 0.680842 0.0438 Uiso
H25_2 H 0.332852 0.798255 0.677601 0.0438 Uiso
H26_2 H 0.036902 0.553337 0.954539 0.0438 Uiso
H27_2 H 0.051414 0.595921 0.544083 0.0438 Uiso
P5_2 P 0.3197(6) 0.5636(5) 0.7885(10) 0.0370 Uiso
O9_2 O 0.3378(9) 0.6029(6) 0.9105(19) 0.0370 Uiso
O10_2 O 0.3237(8) 0.5993(6) 0.6648(18) 0.0370 Uiso
C49_2 C 0.3708(7) 0.5314(6) 0.7681(8) 0.0370 Uiso
C50_2 C 0.3754(13) 0.5087(12) 0.6412(8) 0.0370 Uiso
C51_2 C 0.4000(11) 0.5248(10) 0.8826(11) 0.0370 Uiso
C52_2 C 0.2401(5) 0.5002(3) 0.8099(10) 0.0370 Uiso
C53_2 C 0.2278(6) 0.4516(5) 0.8955(13) 0.0370 Uiso
C54_2 C 0.1707(9) 0.4006(5) 0.8960(17) 0.0370 Uiso
C55_2 C 0.1247(7) 0.3992(4) 0.817(2) 0.0370 Uiso
C56_2 C 0.1363(7) 0.4490(5) 0.7358(18) 0.0370 Uiso
C57_2 C 0.1938(7) 0.4995(4) 0.7333(16) 0.0370 Uiso
C58_2 C 0.4278(17) 0.4897(17) 0.8736(11) 0.0370 Uiso
C59_2 C 0.4028(16) 0.4733(15) 0.6319(10) 0.0370 Uiso
C60_2 C 0.4286(8) 0.4633(7) 0.7485(7) 0.0370 Uiso
P6_2 P 0.5658(8) 0.3197(5) 0.7215(9) 0.0370 Uiso
C61_2 C 0.5230(7) 0.3610(4) 0.7289(7) 0.0370 Uiso
C62_2 C 0.5126(11) 0.3843(7) 0.6092(8) 0.0370 Uiso
C63_2 C 0.4995(10) 0.3668(6) 0.8533(8) 0.0370 Uiso
C64_2 C 0.5120(7) 0.2378(3) 0.6976(8) 0.0370 Uiso
C65_2 C 0.5015(10) 0.1975(5) 0.8041(11) 0.0370 Uiso
C66_2 C 0.4570(15) 0.1376(5) 0.7915(14) 0.0370 Uiso
C67_2 C 0.4233(14) 0.1173(5) 0.6713(19) 0.0370 Uiso
C68_2 C 0.4341(12) 0.1574(6) 0.5646(12) 0.0370 Uiso
C69_2 C 0.4796(12) 0.2171(4) 0.5760(10) 0.0370 Uiso
C70_2 C 0.4661(10) 0.3964(6) 0.8583(8) 0.0370 Uiso
C71_2 C 0.4785(9) 0.4132(5) 0.6140(7) 0.0370 Uiso
C72_2 C 0.4576(7) 0.4217(4) 0.7394(7) 0.0370 Uiso
H37_2 H 0.359241 0.517519 0.558923 0.0438 Uiso
H38_2 H 0.400826 0.544667 0.968905 0.0438 Uiso
H39_2 H 0.259561 0.453519 0.955195 0.0438 Uiso
H40_2 H 0.162769 0.36561 0.952102 0.0438 Uiso
H41_2 H 0.084300 0.363408 0.817964 0.0438 Uiso
H42_2 H 0.103882 0.448231 0.680842 0.0438 Uiso
H43_2 H 0.201745 0.534597 0.677601 0.0438 Uiso
H44_2 H 0.446663 0.483565 0.954539 0.0438 Uiso
H45_2 H 0.404079 0.455493 0.544083 0.0438 Uiso
H46_2 H 0.529129 0.380369 0.521924 0.0438 Uiso
H47_2 H 0.506476 0.350077 0.937053 0.0438 Uiso
H48_2 H 0.525639 0.211685 0.887924 0.0438 Uiso
H49_2 H 0.449164 0.109366 0.867003 0.0438 Uiso
H50_2 H 0.391920 0.074721 0.662107 0.0438 Uiso
H51_2 H 0.409615 0.143448 0.481243 0.0438 Uiso
H52_2 H 0.489037 0.244747 0.49864 0.0438 Uiso
H53_2 H 0.448674 0.399518 0.945037 0.0438 Uiso
H54_2 H 0.469327 0.42763 0.529517 0.0438 Uiso
P4_2 P 0.7539(6) 0.4342(8) 0.7215(9) 0.0370 Uiso
C37_2 C 0.8380(6) 0.4770(7) 0.7289(7) 0.0370 Uiso
C38_2 C 0.8717(9) 0.4874(11) 0.6092(8) 0.0370 Uiso
C39_2 C 0.8673(8) 0.5005(10) 0.8533(8) 0.0370 Uiso
C40_2 C 0.7258(6) 0.4880(7) 0.6976(8) 0.0370 Uiso
C41_2 C 0.6960(9) 0.4985(10) 0.8041(11) 0.0370 Uiso
C42_2 C 0.6806(14) 0.5430(15) 0.7915(14) 0.0370 Uiso
C43_2 C 0.6940(13) 0.5767(14) 0.6713(19) 0.0370 Uiso
C44_2 C 0.7233(10) 0.5659(12) 0.5646(12) 0.0370 Uiso
C45_2 C 0.7375(11) 0.5204(12) 0.5760(10) 0.0370 Uiso
C46_2 C 0.9303(8) 0.5339(10) 0.8583(8) 0.0370 Uiso
C47_2 C 0.9347(8) 0.5215(9) 0.6140(7) 0.0370 Uiso
C48_2 C 0.9641(6) 0.5424(7) 0.7394(7) 0.0370 Uiso
H28_2 H 0.851240 0.470871 0.521924 0.0438 Uiso
H29_2 H 0.843601 0.493524 0.937053 0.0438 Uiso
H30_2 H 0.686046 0.474361 0.887924 0.0438 Uiso
H31_2 H 0.660202 0.550836 0.867003 0.0438 Uiso
H32_2 H 0.682801 0.608080 0.662107 0.0438 Uiso
H33_2 H 0.733833 0.590385 0.481243 0.0438 Uiso
H34_2 H 0.755710 0.510963 0.49864 0.0438 Uiso
H35_2 H 0.950844 0.551326 0.945037 0.0438 Uiso
H36_2 H 0.958303 0.530673 0.529517 0.0438 Uiso
loop_
_geom_bond_atom_site_label_1
_geom_bond_atom_site_label_2
_geom_bond_site_symmetry_1
_geom_bond_site_symmetry_2
P4 O7 1_555 1_555
O7 Fe8 1_555 1_555
O8 P4 1_555 1_555
C37 P4 1_555 1_555
C38 C37 1_555 1_555
C39 C37 1_555 1_555
C40 P4 1_555 1_555
C41 C40 1_555 1_555
C42 C41 1_555 1_555
C43 C42 1_555 1_555
C44 C43 1_555 1_555
C45 C40 1_555 1_555
C46 C39 1_555 1_555
C47 C38 1_555 1_555
H28 C38 1_555 1_555
H29 C39 1_555 1_555
H30 C41 1_555 1_555
H31 C42 1_555 1_555
H32 C43 1_555 1_555
H33 C44 1_555 1_555
H34 C45 1_555 1_555
H35 C46 1_555 1_555
H36 C47 1_555 1_555
Fe5 O8 1_555 1_555
C44 C45 1_555 1_555
C46 C48 1_555 1_555
C47 C48 1_555 1_555
P1 O1 1_555 1_555
O2 P1 1_555 1_555
C1 P1 1_555 1_555
C2 C1 1_555 1_555
C3 C1 1_555 1_555
C4 P1 1_555 1_555
C5 C4 1_555 1_555
C6 C5 1_555 1_555
C7 C6 1_555 1_555
C8 C7 1_555 1_555
C9 C4 1_555 1_555
C10 C3 1_555 1_555
C11 C2 1_555 1_555
C12 C10 1_555 1_555
H1 C2 1_555 1_555
H2 C3 1_555 1_555
H3 C5 1_555 1_555
H4 C6 1_555 1_555
H5 C7 1_555 1_555
H6 C8 1_555 1_555
H7 C9 1_555 1_555
H8 C10 1_555 1_555
H9 C11 1_555 1_555
Fe2 O2 1_555 1_555
P3 O5 1_555 1_555
O6 Fe2 1_555 1_555
C25 P3 1_555 1_555
C26 C25 1_555 1_555
C27 C25 1_555 1_555
C28 P3 1_555 1_555
C29 C28 1_555 1_555
C30 C29 1_555 1_555
C31 C30 1_555 1_555
C32 C31 1_555 1_555
C33 C28 1_555 1_555
C34 C27 1_555 1_555
C35 C26 1_555 1_555
C36 C34 1_555 1_555
H19 C26 1_555 1_555
H20 C27 1_555 1_555
H21 C29 1_555 1_555
H22 C30 1_555 1_555
H23 C31 1_555 1_555
H24 C32 1_555 1_555
H25 C33 1_555 1_555
H26 C34 1_555 1_555
H27 C35 1_555 1_555
P5 O9 1_555 1_555
O10 Fe2 1_555 1_555
C49 P5 1_555 1_555
C50 C49 1_555 1_555
C51 C49 1_555 1_555
C52 P5 1_555 1_555
C53 C52 1_555 1_555
C54 C53 1_555 1_555
C55 C54 1_555 1_555
C56 C55 1_555 1_555
C57 C52 1_555 1_555
C58 C51 1_555 1_555
C59 C50 1_555 1_555
C60 C58 1_555 1_555
P6 O11 1_555 1_555
O11 Fe8 1_555 1_555
O12 P6 1_555 1_555
C61 P6 1_555 1_555
C62 C61 1_555 1_555
C63 C61 1_555 1_555
C64 P6 1_555 1_555
C65 C64 1_555 1_555
C66 C65 1_555 1_555
C67 C66 1_555 1_555
C68 C67 1_555 1_555
C69 C64 1_555 1_555
C70 C63 1_555 1_555
C71 C62 1_555 1_555
C72 C60 1_555 1_555
H37 C50 1_555 1_555
H38 C51 1_555 1_555
H39 C53 1_555 1_555
H40 C54 1_555 1_555
H41 C55 1_555 1_555
H42 C56 1_555 1_555
H43 C57 1_555 1_555
H44 C58 1_555 1_555
H45 C59 1_555 1_555
H46 C62 1_555 1_555
H47 C63 1_555 1_555
H48 C65 1_555 1_555
H49 C66 1_555 1_555
H50 C67 1_555 1_555
H51 C68 1_555 1_555
H52 C69 1_555 1_555
H53 C70 1_555 1_555
H54 C71 1_555 1_555
Fe5 O12 1_555 1_555
O13 Fe2 1_555 1_555
O14 Fe2 1_555 1_555
O15 Fe2 1_555 1_555
C8 C9 1_555 1_555
C11 C12 1_555 1_555
P3 O6 1_555 1_555
C32 C33 1_555 1_555
C35 C36 1_555 1_555
P5 O10 1_555 1_555
C56 C57 1_555 1_555
C59 C60 1_555 1_555
C68 C69 1_555 1_555
C70 C72 1_555 1_555
C71 C72 1_555 1_555
O16 Fe1 1_555 1_555
O17 Fe1 1_555 1_555
O18 Fe1 1_555 1_555
P2 O3 1_555 1_555
O3 Fe8 1_555 1_555
O4 P2 1_555 1_555
C13 P2 1_555 1_555
C14 C13 1_555 1_555
C15 C13 1_555 1_555
C16 P2 1_555 1_555
C17 C16 1_555 1_555
C18 C17 1_555 1_555
C19 C18 1_555 1_555
C20 C19 1_555 1_555
C21 C16 1_555 1_555
C22 C15 1_555 1_555
C23 C14 1_555 1_555
H10 C14 1_555 1_555
H11 C15 1_555 1_555
H12 C17 1_555 1_555
H13 C18 1_555 1_555
H14 C19 1_555 1_555
H15 C20 1_555 1_555
H16 C21 1_555 1_555
H17 C22 1_555 1_555
H18 C23 1_555 1_555
Fe5 O4 1_555 1_555
C20 C21 1_555 1_555
C22 C24 1_555 1_555
C23 C24 1_555 1_555
P2_2 O13 1_555 1_555
O16 P2_2 1_555 1_555
C13_2 P2_2 1_555 1_555
C14_2 C13_2 1_555 1_555
C15_2 C13_2 1_555 1_555
C16_2 P2_2 1_555 1_555
C17_2 C16_2 1_555 1_555
C18_2 C17_2 1_555 1_555
C19_2 C18_2 1_555 1_555
C20_2 C19_2 1_555 1_555
C21_2 C16_2 1_555 1_555
C22_2 C15_2 1_555 1_555
C23_2 C14_2 1_555 1_555
H10_2 C14_2 1_555 1_555
H11_2 C15_2 1_555 1_555
H12_2 C17_2 1_555 1_555
H13_2 C18_2 1_555 1_555
H14_2 C19_2 1_555 1_555
H15_2 C20_2 1_555 1_555
H16_2 C21_2 1_555 1_555
H17_2 C22_2 1_555 1_555
H18_2 C23_2 1_555 1_555
C20_2 C21_2 1_555 1_555
C22_2 C24_2 1_555 1_555
C23_2 C24_2 1_555 1_555
P1_2 O1_2 1_555 1_555
O2_2 P1_2 1_555 1_555
C1_2 P1_2 1_555 1_555
C2_2 C1_2 1_555 1_555
C3_2 C1_2 1_555 1_555
C4_2 P1_2 1_555 1_555
C5_2 C4_2 1_555 1_555
C6_2 C5_2 1_555 1_555
C7_2 C6_2 1_555 1_555
C8_2 C7_2 1_555 1_555
C9_2 C4_2 1_555 1_555
C10_2 C3_2 1_555 1_555
C11_2 C2_2 1_555 1_555
C12_2 C10_2 1_555 1_555
H1_2 C2_2 1_555 1_555
H2_2 C3_2 1_555 1_555
H3_2 C5_2 1_555 1_555
H4_2 C6_2 1_555 1_555
H5_2 C7_2 1_555 1_555
H6_2 C8_2 1_555 1_555
H7_2 C9_2 1_555 1_555
H8_2 C10_2 1_555 1_555
H9_2 C11_2 1_555 1_555
Fe8 O2_2 1_555 1_555
P3_2 O5_2 1_555 1_555
O6_2 Fe8 1_555 1_555
C25_2 P3_2 1_555 1_555
C26_2 C25_2 1_555 1_555
C27_2 C25_2 1_555 1_555
C28_2 P3_2 1_555 1_555
C29_2 C28_2 1_555 1_555
C30_2 C29_2 1_555 1_555
C31_2 C30_2 1_555 1_555
C32_2 C31_2 1_555 1_555
C33_2 C28_2 1_555 1_555
C34_2 C27_2 1_555 1_555
C35_2 C26_2 1_555 1_555
C36_2 C34_2 1_555 1_555
H19_2 C26_2 1_555 1_555
H20_2 C27_2 1_555 1_555
H21_2 C29_2 1_555 1_555
H22_2 C30_2 1_555 1_555
H23_2 C31_2 1_555 1_555
H24_2 C32_2 1_555 1_555
H25_2 C33_2 1_555 1_555
H26_2 C34_2 1_555 1_555
H27_2 C35_2 1_555 1_555
P5_2 O9_2 1_555 1_555
O10_2 Fe8 1_555 1_555
C49_2 P5_2 1_555 1_555
C50_2 C49_2 1_555 1_555
C51_2 C49_2 1_555 1_555
C52_2 P5_2 1_555 1_555
C53_2 C52_2 1_555 1_555
C54_2 C53_2 1_555 1_555
C55_2 C54_2 1_555 1_555
C56_2 C55_2 1_555 1_555
C57_2 C52_2 1_555 1_555
C58_2 C51_2 1_555 1_555
C59_2 C50_2 1_555 1_555
C60_2 C58_2 1_555 1_555
P6_2 O15 1_555 1_555
O18 P6_2 1_555 1_555
C61_2 P6_2 1_555 1_555
C62_2 C61_2 1_555 1_555
C63_2 C61_2 1_555 1_555
C64_2 P6_2 1_555 1_555
C65_2 C64_2 1_555 1_555
C66_2 C65_2 1_555 1_555
C67_2 C66_2 1_555 1_555
C68_2 C67_2 1_555 1_555
C69_2 C64_2 1_555 1_555
C70_2 C63_2 1_555 1_555
C71_2 C62_2 1_555 1_555
C72_2 C60_2 1_555 1_555
H37_2 C50_2 1_555 1_555
H38_2 C51_2 1_555 1_555
H39_2 C53_2 1_555 1_555
H40_2 C54_2 1_555 1_555
H41_2 C55_2 1_555 1_555
H42_2 C56_2 1_555 1_555
H43_2 C57_2 1_555 1_555
H44_2 C58_2 1_555 1_555
H45_2 C59_2 1_555 1_555
H46_2 C62_2 1_555 1_555
H47_2 C63_2 1_555 1_555
H48_2 C65_2 1_555 1_555
H49_2 C66_2 1_555 1_555
H50_2 C67_2 1_555 1_555
H51_2 C68_2 1_555 1_555
H52_2 C69_2 1_555 1_555
H53_2 C70_2 1_555 1_555
H54_2 C71_2 1_555 1_555
C8_2 C9_2 1_555 1_555
C11_2 C12_2 1_555 1_555
P3_2 O6_2 1_555 1_555
C32_2 C33_2 1_555 1_555
C35_2 C36_2 1_555 1_555
P5_2 O10_2 1_555 1_555
C56_2 C57_2 1_555 1_555
C59_2 C60_2 1_555 1_555
C68_2 C69_2 1_555 1_555
C70_2 C72_2 1_555 1_555
C71_2 C72_2 1_555 1_555
P4_2 O14 1_555 1_555
O17 P4_2 1_555 1_555
C37_2 P4_2 1_555 1_555
C38_2 C37_2 1_555 1_555
C39_2 C37_2 1_555 1_555
C40_2 P4_2 1_555 1_555
C41_2 C40_2 1_555 1_555
C42_2 C41_2 1_555 1_555
C43_2 C42_2 1_555 1_555
C44_2 C43_2 1_555 1_555
C45_2 C40_2 1_555 1_555
C46_2 C39_2 1_555 1_555
C47_2 C38_2 1_555 1_555
H28_2 C38_2 1_555 1_555
H29_2 C39_2 1_555 1_555
H30_2 C41_2 1_555 1_555
H31_2 C42_2 1_555 1_555
H32_2 C43_2 1_555 1_555
H33_2 C44_2 1_555 1_555
H34_2 C45_2 1_555 1_555
H35_2 C46_2 1_555 1_555
H36_2 C47_2 1_555 1_555
C44_2 C45_2 1_555 1_555
C46_2 C48_2 1_555 1_555
C47_2 C48_2 1_555 1_555

#END
