
###############################################################################
#
# This file contains modified crystal structure data generated from the
# MOF subset of the Cambridge Structural Database (CSD) v543 
# hosted by the Cambridge Crystallographic Data Centre (CCDC).
#
# This work is licensed under the Creative Commons
# Attribution-NonCommercial-ShareAlike 4.0 International License.
# To view a copy of this license, visit
# http://creativecommons.org/licenses/by-nc-sa/4.0/
# or send a letter to
# Creative Commons, PO Box 1866, Mountain View, CA 94042, USA.
#
# CIF created using the CSD Python API on 29 September 2022
# The structure has been converted into the P1 space group
# The structure has a 3D framework
# The original CSD entry OJAXUV is in the hexagonal crystal system
# The original CSD entry OJAXUV is in a Sohncke space group
# The framework has been calculated to contain at least 10.0% void space
# The void calculation uses a probe of radius 1.32A, grid spacing 0.4
# H atom positions have been added when not included in the experimental data
# Generated hydrogen atom positions removed from atoms on special positions
#
###############################################################################

data_OJAXUV
_chemical_formula_moiety         '(C192 H180 N24 Ni6 O83 Zn12)n'
_symmetry_cell_setting           triclinic
_symmetry_space_group_name_H-M   'P 1'
_symmetry_Int_Tables_number      1
_space_group_name_Hall           'P 1'
loop_
_symmetry_equiv_pos_site_id
_symmetry_equiv_pos_as_xyz
1 x,y,z
_cell_length_a                   18.6946(4)
_cell_length_b                   18.6946(4)
_cell_length_c                   20.9489(7)
_cell_angle_alpha                90
_cell_angle_beta                 90
_cell_angle_gamma                120
_cell_volume                     6340.51
loop_
_atom_site_label
_atom_site_type_symbol
_atom_site_fract_x
_atom_site_fract_y
_atom_site_fract_z
Zn1 Zn 0.57299(6) 0.28649(3) 0.416667
C1 C 0.0793(3) 0.2006(3) 0.5710(3)
N1 N 0.0001(3) 0.1520(3) 0.5780(2)
N2 N 0.0751(3) 0.0749(3) 0.5779(3)
C2 C 0.1242(4) 0.1538(4) 0.5694(3)
O2 O 0.1058(3) 0.0236(3) 0.5804(3)
Zn2 Zn 0.63455(3) 0.36545(3) 0.583333
C3 C 0.2134(3) 0.1902(4) 0.5590(3)
O3 O 0.2848(2) 0.5931(2) 0.5068(2)
O4 O 0.2232(3) 0.5929(3) 0.5970(2)
C4 C 0.2379(3) 0.5555(4) 0.5532(3)
C5 C 0.1798(3) 0.3339(3) 0.5189(3)
H1 H 0.193925 0.304305 0.489445
C6 C 0.2177(4) 0.4197(4) 0.5149(3)
H2 H 0.257376 0.448255 0.482419
C7 C 0.1979(3) 0.4646(4) 0.5586(3)
C8 C 0.1408(4) 0.4212(4) 0.6061(3)
H3 H 0.127968 0.450780 0.636517
C9 C 0.1020(4) 0.3361(4) 0.6104(3)
H4 H 0.062652 0.307721 0.643106
C10 C 0.1212(3) 0.2919(3) 0.5662(3)
C11 C 0.2399(4) 0.1506(5) 0.5144(3)
H5 H 0.200546 0.101731 0.493170
C12 C 0.3222(4) 0.1835(5) 0.5025(3)
H6 H 0.339844 0.159010 0.471102
C13 C 0.3810(4) 0.2530(4) 0.5361(3)
C14 C 0.3544(3) 0.2899(4) 0.5805(3)
H7 H 0.393957 0.336767 0.603763
C15 C 0.2718(3) 0.2597(3) 0.5913(3)
H8 H 0.254639 0.286467 0.621005
C16 C 0.4706(4) 0.2845(4) 0.5258(4)
O5 O 0.4885(3) 0.2474(4) 0.4828(4)
O6 O 0.5210(2) 0.3426(3) 0.5593(2)
O7 O 0.7463(6) 0.3742(9) 0.6036(4)
O14 O 0.6258(9) 0.2537(6) 0.5631(4)
Zn5 Zn 0.28649(3) 0.71350(7) 0.583334
Zn8 Zn 0.26910(4) 0.63455(3) 0.416666
O15 O 0.5931(2) 0.3083(3) 0.6735(2)
O16 O 0.6917(3) 0.4069(2) 0.4932(2)
O17 O 0.6303(4) 0.2232(3) 0.4303(2)
O18 O 0.6303(4) 0.4071(3) 0.4030(2)
O19 O 0.4885(3) 0.2411(5) 0.3505(4)
O20 O 0.6574(3) 0.4790(2) 0.6074(2)
C17 C 0.7994(3) 0.9207(3) 0.5957(3)
N3 N 0.8480(3) 0.9999(3) 0.5887(2)
N4 N 0.9251(3) 0.9249(3) 0.5888(3)
C18 C 0.8462(4) 0.8758(4) 0.5973(3)
O9 O 0.9764(3) 0.8942(3) 0.5863(3)
C19 C 0.8098(4) 0.7866(3) 0.6077(3)
O10 O 0.4069(2) 0.7152(2) 0.6599(2)
O11 O 0.4071(3) 0.7768(3) 0.5697(2)
C20 C 0.4445(4) 0.7621(3) 0.6135(3)
C21 C 0.6661(3) 0.8202(3) 0.6478(3)
H9 H 0.695695 0.806075 0.677222
C22 C 0.5803(4) 0.7823(4) 0.6518(3)
H10 H 0.551745 0.742624 0.684248
C23 C 0.5354(4) 0.8021(3) 0.6081(3)
C24 C 0.5788(4) 0.8592(4) 0.5606(3)
H11 H 0.549220 0.872032 0.530150
C25 C 0.6639(4) 0.8980(4) 0.5563(3)
H12 H 0.692279 0.937348 0.523561
C26 C 0.7081(3) 0.8788(3) 0.6005(3)
C27 C 0.8494(5) 0.7601(4) 0.6523(3)
H13 H 0.898269 0.799454 0.673497
C28 C 0.8165(5) 0.6778(4) 0.6642(3)
H14 H 0.840990 0.660156 0.695565
C29 C 0.7470(4) 0.6190(4) 0.6306(3)
C30 C 0.7101(4) 0.6456(3) 0.5862(3)
H15 H 0.663233 0.606043 0.562904
C31 C 0.7403(3) 0.7282(3) 0.5754(3)
H16 H 0.713533 0.745361 0.545662
C32 C 0.7155(4) 0.5294(4) 0.6409(4)
O12 O 0.7526(4) 0.5115(3) 0.6839(4)
Zn3 Zn 0.71350(7) 0.42701(6) 0.750000
Zn7 Zn 0.36545(3) 0.73090(4) 0.750000
N4_2 N 0.0751(3) 0.0002(4) 0.2554(3)
O9_2 O 0.1058(3) 0.0822(4) 0.2529(3)
C19_2 C 0.2134(3) 0.0232(5) 0.2743(3)
C27_2 C 0.2399(4) 0.0893(6) 0.3189(3)
H13_2 H 0.200546 0.098815 0.340163
C28_2 C 0.3222(4) 0.1387(6) 0.3308(3)
H14_2 H 0.339844 0.180834 0.362231
C29_2 C 0.3810(4) 0.1280(6) 0.2972(3)
C30_2 C 0.3544(3) 0.0645(5) 0.2528(3)
H15_2 H 0.393957 0.057190 0.229570
C31_2 C 0.2718(3) 0.0121(4) 0.2420(3)
C32_2 C 0.4706(4) 0.1861(6) 0.3075(4)
O13 O 0.5210(2) 0.1784(4) 0.2740(2)
Zn6 Zn 0.63455(3) 0.26910(4) 0.250000
H18 H 0.0166219 0.0994002 0.211376
H22 H 0.0827779 0.0994002 0.288624
C17_2 C 0.0793(3) 0.8787(4) 0.2623(3)
N3_2 N 0.0001(3) 0.8481(4) 0.2553(2)
C18_2 C 0.1242(4) 0.9704(6) 0.2639(3)
O10_2 O 0.2848(2) 0.6917(3) 0.3265(2)
O11_2 O 0.2232(3) 0.6303(4) 0.2363(2)
C20_2 C 0.2379(3) 0.6824(5) 0.2801(3)
C21_2 C 0.1798(3) 0.8459(4) 0.3144(3)
H9_2 H 0.193925 0.889620 0.343888
C22_2 C 0.2177(4) 0.7980(6) 0.3184(3)
H10_2 H 0.257376 0.809121 0.350914
C23_2 C 0.1979(3) 0.7333(5) 0.2747(3)
C24_2 C 0.1408(4) 0.7196(6) 0.2272(3)
H11_2 H 0.127968 0.677188 0.196816
C25_2 C 0.1020(4) 0.7659(6) 0.2229(3)
H12_2 H 0.062652 0.754931 0.190227
C26_2 C 0.1212(3) 0.8293(4) 0.2671(3)
H16_2 H 0.254639 0.968172 0.212328
Zn4 Zn 0.28650(7) 0.57299(8) 0.250000
Zn1_2 Zn 0.71351(3) 0.28650(7) 0.083334
N2_2 N 0.9251(3) 0.0002(4) 0.2446(3)
O2_2 O 0.9764(3) 0.0822(4) 0.2471(3)
C3_2 C 0.8098(4) 0.0232(5) 0.2257(3)
C11_2 C 0.8494(5) 0.0893(6) 0.1811(3)
H5_2 H 0.898269 0.098815 0.159837
C12_2 C 0.8165(5) 0.1387(6) 0.1692(3)
H6_2 H 0.840990 0.180834 0.137769
C13_2 C 0.7470(4) 0.1280(6) 0.2028(3)
C14_2 C 0.7101(4) 0.0645(5) 0.2472(3)
H7_2 H 0.663233 0.057190 0.270430
C15_2 C 0.7403(3) 0.0121(4) 0.2580(3)
C16_2 C 0.7155(4) 0.1861(6) 0.1925(4)
O5_2 O 0.7526(4) 0.2411(5) 0.1495(4)
O6_2 O 0.6574(3) 0.1784(4) 0.2260(2)
O7_2 O 0.6258(9) 0.3721(11) 0.2703(4)
O14_2 O 0.7463(6) 0.3721(11) 0.2297(4)
O15_2 O 0.6917(3) 0.2848(4) 0.3401(2)
O16_2 O 0.5931(2) 0.2848(4) 0.1599(2)
O17_2 O 0.7768(3) 0.4071(5) 0.0970(2)
O18_2 O 0.5929(3) 0.2232(5) 0.0697(2)
O19_2 O 0.7589(5) 0.2474(6) 0.0172(4)
C1_2 C 0.7994(3) 0.8787(4) 0.2377(3)
O1 O 0.8179(2) 0.7667(3) 0.2454(2)
N1_2 N 0.8480(3) 0.8481(4) 0.2447(2)
Ni1 Ni 0.96192(4) 0.92384(6) 0.250000
C2_2 C 0.8462(4) 0.9704(6) 0.2361(3)
O3_2 O 0.4069(2) 0.6917(3) 0.1735(2)
O4_2 O 0.4071(3) 0.6303(4) 0.2637(2)
C4_2 C 0.4445(4) 0.6824(5) 0.2199(3)
C5_2 C 0.6661(3) 0.8459(4) 0.1856(3)
H1_2 H 0.695695 0.889620 0.156112
C6_2 C 0.5803(4) 0.7980(6) 0.1816(3)
H2_2 H 0.551745 0.809121 0.149086
C7_2 C 0.5354(4) 0.7333(5) 0.2253(3)
C8_2 C 0.5788(4) 0.7196(6) 0.2728(3)
H3_2 H 0.549220 0.677188 0.303184
C9_2 C 0.6639(4) 0.7659(6) 0.2771(3)
H4_2 H 0.692279 0.754931 0.309773
C10_2 C 0.7081(3) 0.8293(4) 0.2329(3)
H8_2 H 0.713533 0.968172 0.287672
O8 O 0.9488(2) 0.7667(3) 0.2546(2)
Zn8_2 Zn 0.36545(3) 0.63455(5) 0.083333
H17 H 0.789325 0.742567 0.204355
H19 H 0.91689 0.750764 0.214152
H9_3 H 0.110380 0.304305 0.010555
H10_3 H 0.190879 0.448255 0.017581
O1_2 O 0.2333(3) 0.0512(2) 0.9120(2)
Ni1_2 Ni 0.07616(6) 0.03808(4) 0.916666
C17_3 C 0.1213(4) 0.2006(3) 0.9290(3)
O8_2 O 0.2333(3) 0.1821(2) 0.9213(2)
N3_3 N 0.1519(4) 0.1520(3) 0.9220(2)
C18_3 C 0.0296(6) 0.1538(4) 0.9306(3)
O10_3 O 0.3083(3) 0.5931(2) 0.9932(2)
O11_3 O 0.3697(4) 0.5929(3) 0.9030(2)
C20_3 C 0.3176(5) 0.5555(4) 0.9468(3)
C21_3 C 0.1541(4) 0.3339(3) 0.9811(3)
C22_3 C 0.2020(6) 0.4197(4) 0.9851(3)
C23_3 C 0.2667(5) 0.4646(4) 0.9414(3)
C24_3 C 0.2804(6) 0.4212(4) 0.8939(3)
H11_3 H 0.322812 0.450780 0.863483
C25_3 C 0.2341(6) 0.3361(4) 0.8896(3)
H12_3 H 0.245069 0.307721 0.856894
C26_3 C 0.1707(4) 0.2919(3) 0.9338(3)
H16_3 H 0.031828 0.286467 0.878995
Zn4_2 Zn 0.42701(8) 0.71351(3) 0.916667
H17_2 H 0.257433 0.0467578 0.871021
H19_2 H 0.249236 0.166126 0.880819
C1_3 C 0.1213(4) 0.9207(3) 0.9043(3)
N1_3 N 0.1519(4) 0.9999(3) 0.9113(2)
C2_3 C 0.0296(6) 0.8758(4) 0.9027(3)
O3_3 O 0.3083(3) 0.7152(2) 0.8401(2)
O4_3 O 0.3697(4) 0.7768(3) 0.9303(2)
C4_3 C 0.3176(5) 0.7621(3) 0.8865(3)
C5_3 C 0.1541(4) 0.8202(3) 0.8522(3)
H1_3 H 0.110380 0.806075 0.822778
C6_3 C 0.2020(6) 0.7823(4) 0.8482(3)
H2_3 H 0.190879 0.742624 0.815752
C7_3 C 0.2667(5) 0.8021(3) 0.8919(3)
C8_3 C 0.2804(6) 0.8592(4) 0.9394(3)
H3_3 H 0.322812 0.872032 0.969850
C9_3 C 0.2341(6) 0.8980(4) 0.9437(3)
H4_3 H 0.245069 0.937348 0.976439
C10_3 C 0.1707(4) 0.8788(3) 0.8995(3)
H8_3 H 0.031828 0.745361 0.954338
H13_3 H 0.901185 0.101731 0.006830
H14_3 H 0.819166 0.159010 0.028898
N4_3 N 0.9998(4) 0.0749(3) 0.9221(3)
O9_3 O 0.9178(4) 0.0236(3) 0.9196(3)
C19_3 C 0.9768(5) 0.1902(4) 0.9410(3)
C27_3 C 0.9107(6) 0.1506(5) 0.9856(3)
C28_3 C 0.8613(6) 0.1835(5) 0.9975(3)
C29_3 C 0.8720(6) 0.2530(4) 0.9639(3)
C30_3 C 0.9355(5) 0.2899(4) 0.9195(3)
H15_3 H 0.942810 0.336767 0.896237
C31_3 C 0.9879(4) 0.2597(3) 0.9087(3)
C32_3 C 0.8139(6) 0.2845(4) 0.9742(4)
O13_2 O 0.8216(4) 0.3426(3) 0.9407(2)
Zn6_2 Zn 0.73090(4) 0.36545(3) 0.916666
O15_3 O 0.7152(4) 0.4069(2) 0.0068(2)
N2_3 N 0.9998(4) 0.9249(3) 0.9112(3)
O2_3 O 0.9178(4) 0.8942(3) 0.9137(3)
C3_3 C 0.9768(5) 0.7866(3) 0.8923(3)
C11_3 C 0.9107(6) 0.7601(4) 0.8477(3)
H5_3 H 0.901185 0.799454 0.826503
C12_3 C 0.8613(6) 0.6778(4) 0.8358(3)
H6_3 H 0.819166 0.660156 0.804435
C13_3 C 0.8720(6) 0.6190(4) 0.8694(3)
C14_3 C 0.9355(5) 0.6456(3) 0.9138(3)
H7_3 H 0.942810 0.606043 0.937096
C15_3 C 0.9879(4) 0.7282(3) 0.9246(3)
C16_3 C 0.8139(6) 0.5294(4) 0.8591(4)
O5_3 O 0.7589(5) 0.5115(3) 0.8161(4)
O6_3 O 0.8216(4) 0.4790(2) 0.8926(2)
O7_3 O 0.6279(11) 0.2537(6) 0.9369(4)
O14_3 O 0.6279(11) 0.3742(9) 0.8964(4)
O16_3 O 0.7152(4) 0.3083(3) 0.8265(2)
O17_3 O 0.5929(5) 0.3697(4) 0.7637(2)
O18_3 O 0.7768(5) 0.3697(4) 0.7363(2)
H18_2 H 0.9006 0.917222 0.878042
H22_2 H 0.9006 0.983378 0.955291
C17_4 C 0.2006(3) 0.0793(3) 0.0957(3)
N3_4 N 0.1520(3) 0.0001(3) 0.0887(2)
N4_4 N 0.0749(3) 0.0751(3) 0.0888(3)
C18_4 C 0.1538(4) 0.1242(4) 0.0973(3)
O9_4 O 0.0236(3) 0.1058(3) 0.0863(3)
C19_4 C 0.1902(4) 0.2134(3) 0.1077(3)
C20_4 C 0.5555(4) 0.2379(3) 0.1135(3)
C21_4 C 0.3339(3) 0.1798(3) 0.1478(3)
H9_4 H 0.304305 0.193925 0.177222
C22_4 C 0.4197(4) 0.2177(4) 0.1518(3)
H10_4 H 0.448255 0.257376 0.184248
C23_4 C 0.4646(4) 0.1979(3) 0.1081(3)
C24_4 C 0.4212(4) 0.1408(4) 0.0606(3)
H11_4 H 0.450780 0.127968 0.030150
C25_4 C 0.3361(4) 0.1020(4) 0.0563(3)
H12_4 H 0.307721 0.062652 0.023561
C26_4 C 0.2919(3) 0.1212(3) 0.1005(3)
C27_4 C 0.1506(5) 0.2399(4) 0.1523(3)
H13_4 H 0.101731 0.200546 0.173497
C28_4 C 0.1835(5) 0.3222(4) 0.1642(3)
H14_4 H 0.159010 0.339844 0.195565
C29_4 C 0.2530(4) 0.3810(4) 0.1306(3)
C30_4 C 0.2899(4) 0.3544(3) 0.0862(3)
H15_4 H 0.336767 0.393957 0.062904
C31_4 C 0.2597(3) 0.2718(3) 0.0754(3)
H16_4 H 0.286467 0.254639 0.045662
C32_4 C 0.2845(4) 0.4706(4) 0.1409(4)
O12_2 O 0.2474(4) 0.4885(3) 0.1839(4)
O13_3 O 0.3426(3) 0.5210(2) 0.1074(2)
C1_4 C 0.9207(3) 0.7994(3) 0.0710(3)
N1_4 N 0.9999(3) 0.8480(3) 0.0780(2)
N2_4 N 0.9249(3) 0.9251(3) 0.0779(3)
C2_4 C 0.8758(4) 0.8462(4) 0.0694(3)
O2_4 O 0.8942(3) 0.9764(3) 0.0804(3)
C3_4 C 0.7866(3) 0.8098(4) 0.0590(3)
C4_4 C 0.7621(3) 0.4445(4) 0.0532(3)
C5_4 C 0.8202(3) 0.6661(3) 0.0189(3)
C6_4 C 0.7823(4) 0.5803(4) 0.0149(3)
C7_4 C 0.8021(3) 0.5354(4) 0.0586(3)
C8_4 C 0.8592(4) 0.5788(4) 0.1061(3)
H3_4 H 0.872032 0.549220 0.136517
C9_4 C 0.8980(4) 0.6639(4) 0.1104(3)
H4_4 H 0.937348 0.692279 0.143106
C10_4 C 0.8788(3) 0.7081(3) 0.0662(3)
C11_4 C 0.7601(4) 0.8494(5) 0.0144(3)
C12_4 C 0.6778(4) 0.8165(5) 0.0025(3)
C13_4 C 0.6190(4) 0.7470(4) 0.0361(3)
C14_4 C 0.6456(3) 0.7101(4) 0.0805(3)
H7_4 H 0.606043 0.663233 0.103763
C15_4 C 0.7282(3) 0.7403(3) 0.0913(3)
H8_4 H 0.745361 0.713533 0.121005
C16_4 C 0.5294(4) 0.7155(4) 0.0258(4)
O6_4 O 0.4790(2) 0.6574(3) 0.0593(2)
O7_4 O 0.2537(6) 0.6258(9) 0.1036(4)
O14_4 O 0.3742(9) 0.7463(6) 0.0631(4)
H1_4 H 0.806075 0.695695 0.989445
H2_4 H 0.742624 0.551745 0.982419
H5_4 H 0.799454 0.898269 0.993170
H6_4 H 0.660156 0.840990 0.971102
O5_4 O 0.5115(3) 0.7526(4) 0.9828(4)
O19_3 O 0.5115(3) 0.7589(5) 0.8505(4)
C1_5 C 0.2006(3) 0.1213(4) 0.7377(3)
O1_3 O 0.1821(2) 0.2333(3) 0.7454(2)
N1_5 N 0.1520(3) 0.1519(4) 0.7447(2)
Ni1_3 Ni 0.03808(4) 0.07616(6) 0.750000
C2_5 C 0.1538(4) 0.0296(6) 0.7361(3)
C4_5 C 0.5555(4) 0.3176(5) 0.7199(3)
C5_5 C 0.3339(3) 0.1541(4) 0.6856(3)
H1_5 H 0.304305 0.110380 0.656112
C6_5 C 0.4197(4) 0.2020(6) 0.6816(3)
H2_5 H 0.448255 0.190879 0.649086
C7_5 C 0.4646(4) 0.2667(5) 0.7253(3)
C8_5 C 0.4212(4) 0.2804(6) 0.7728(3)
H3_5 H 0.450780 0.322812 0.803184
C9_5 C 0.3361(4) 0.2341(6) 0.7771(3)
H4_5 H 0.307721 0.245069 0.809773
C10_5 C 0.2919(3) 0.1707(4) 0.7329(3)
H8_5 H 0.286467 0.031828 0.787672
O8_3 O 0.0512(2) 0.2333(3) 0.7546(2)
H17_3 H 0.210675 0.257433 0.704355
H19_3 H 0.0831097 0.249236 0.714152
N2_5 N 0.0749(3) 0.9998(4) 0.7446(3)
O2_5 O 0.0236(3) 0.9178(4) 0.7471(3)
C3_5 C 0.1902(4) 0.9768(5) 0.7257(3)
C11_5 C 0.1506(5) 0.9107(6) 0.6811(3)
H5_5 H 0.101731 0.901185 0.659837
C12_5 C 0.1835(5) 0.8613(6) 0.6692(3)
H6_5 H 0.159010 0.819166 0.637769
C13_5 C 0.2530(4) 0.8720(6) 0.7028(3)
C14_5 C 0.2899(4) 0.9355(5) 0.7472(3)
H7_5 H 0.336767 0.942810 0.770430
C15_5 C 0.2597(3) 0.9879(4) 0.7580(3)
C16_5 C 0.2845(4) 0.8139(6) 0.6925(4)
O5_5 O 0.2474(4) 0.7589(5) 0.6495(4)
O6_5 O 0.3426(3) 0.8216(4) 0.7260(2)
O7_5 O 0.3742(9) 0.6279(11) 0.7703(4)
O14_5 O 0.2537(6) 0.6279(11) 0.7297(4)
O19_4 O 0.2411(5) 0.7526(6) 0.5172(4)
O20_2 O 0.4790(2) 0.8216(4) 0.7740(2)
C17_5 C 0.9207(3) 0.1213(4) 0.7623(3)
N3_5 N 0.9999(3) 0.1519(4) 0.7553(2)
C18_5 C 0.8758(4) 0.0296(6) 0.7639(3)
C20_5 C 0.7621(3) 0.3176(5) 0.7801(3)
C21_5 C 0.8202(3) 0.1541(4) 0.8144(3)
H9_5 H 0.806075 0.110380 0.843888
C22_5 C 0.7823(4) 0.2020(6) 0.8184(3)
H10_5 H 0.742624 0.190879 0.850914
C23_5 C 0.8021(3) 0.2667(5) 0.7747(3)
C24_5 C 0.8592(4) 0.2804(6) 0.7272(3)
H11_5 H 0.872032 0.322812 0.696816
C25_5 C 0.8980(4) 0.2341(6) 0.7229(3)
H12_5 H 0.937348 0.245069 0.690227
C26_5 C 0.8788(3) 0.1707(4) 0.7671(3)
H16_5 H 0.745361 0.031828 0.712328
N4_5 N 0.9249(3) 0.9998(4) 0.7554(3)
O9_5 O 0.8942(3) 0.9178(4) 0.7529(3)
C19_5 C 0.7866(3) 0.9768(5) 0.7743(3)
C27_5 C 0.7601(4) 0.9107(6) 0.8189(3)
H13_5 H 0.799454 0.901185 0.840163
C28_5 C 0.6778(4) 0.8613(6) 0.8308(3)
H14_5 H 0.660156 0.819166 0.862231
C29_5 C 0.6190(4) 0.8720(6) 0.7972(3)
C30_5 C 0.6456(3) 0.9355(5) 0.7528(3)
H15_5 H 0.606043 0.942810 0.729570
C31_5 C 0.7282(3) 0.9879(4) 0.7420(3)
C32_5 C 0.5294(4) 0.8139(6) 0.8075(4)
H18_3 H 0.983378 0.9006 0.711376
H22_3 H 0.917222 0.9006 0.788624
N2_6 N 0.0002(4) 0.0751(3) 0.4112(3)
O2_6 O 0.0822(4) 0.1058(3) 0.4137(3)
C3_6 C 0.0232(5) 0.2134(3) 0.3923(3)
C11_6 C 0.0893(6) 0.2399(4) 0.3477(3)
H5_6 H 0.098815 0.200546 0.326503
C12_6 C 0.1387(6) 0.3222(4) 0.3358(3)
H6_6 H 0.180834 0.339844 0.304435
C13_6 C 0.1280(6) 0.3810(4) 0.3694(3)
C14_6 C 0.0645(5) 0.3544(3) 0.4138(3)
H7_6 H 0.057190 0.393957 0.437096
C15_6 C 0.0121(4) 0.2718(3) 0.4246(3)
C16_6 C 0.1861(6) 0.4706(4) 0.3591(4)
O5_6 O 0.2411(5) 0.4885(3) 0.3161(4)
O6_6 O 0.1784(4) 0.5210(2) 0.3926(2)
O7_6 O 0.3721(11) 0.7463(6) 0.4369(4)
O14_6 O 0.3721(11) 0.6258(9) 0.3964(4)
O20_3 O 0.1784(4) 0.6574(3) 0.4407(2)
H18_4 H 0.0994002 0.0827783 0.378042
H22_4 H 0.0994002 0.0166222 0.455291
N4_6 N 0.0002(4) 0.9251(3) 0.4221(3)
O9_6 O 0.0822(4) 0.9764(3) 0.4196(3)
C19_6 C 0.0232(5) 0.8098(4) 0.4410(3)
C27_6 C 0.0893(6) 0.8494(5) 0.4856(3)
H13_6 H 0.098815 0.898269 0.506830
C28_6 C 0.1387(6) 0.8165(5) 0.4975(3)
H14_6 H 0.180834 0.840990 0.528898
C29_6 C 0.1280(6) 0.7470(4) 0.4639(3)
C30_6 C 0.0645(5) 0.7101(4) 0.4195(3)
H15_6 H 0.057190 0.663233 0.396237
C31_6 C 0.0121(4) 0.7403(3) 0.4087(3)
C32_6 C 0.1861(6) 0.7155(4) 0.4742(4)
C1_6 C 0.8787(4) 0.0793(3) 0.4043(3)
N1_6 N 0.8481(4) 0.0001(3) 0.4113(2)
C2_6 C 0.9704(6) 0.1242(4) 0.4027(3)
C4_6 C 0.6824(5) 0.2379(3) 0.3865(3)
C5_6 C 0.8459(4) 0.1798(3) 0.3522(3)
H1_6 H 0.889620 0.193925 0.322778
C6_6 C 0.7980(6) 0.2177(4) 0.3482(3)
H2_6 H 0.809121 0.257376 0.315752
C7_6 C 0.7333(5) 0.1979(3) 0.3919(3)
C8_6 C 0.7196(6) 0.1408(4) 0.4394(3)
H3_6 H 0.677188 0.127968 0.469850
C9_6 C 0.7659(6) 0.1020(4) 0.4437(3)
H4_6 H 0.754931 0.062652 0.476439
C10_6 C 0.8293(4) 0.1212(3) 0.3995(3)
H8_6 H 0.968172 0.254639 0.454338
O1_4 O 0.7667(3) 0.9488(2) 0.4120(2)
Ni1_4 Ni 0.92384(6) 0.96192(4) 0.416666
C17_6 C 0.8787(4) 0.7994(3) 0.4290(3)
O8_4 O 0.7667(3) 0.8179(2) 0.4213(2)
N3_6 N 0.8481(4) 0.8480(3) 0.4220(2)
C18_6 C 0.9704(6) 0.8462(4) 0.4306(3)
C20_6 C 0.6824(5) 0.4445(4) 0.4468(3)
C21_6 C 0.8459(4) 0.6661(3) 0.4811(3)
H9_6 H 0.889620 0.695695 0.510555
C22_6 C 0.7980(6) 0.5803(4) 0.4851(3)
H10_6 H 0.809121 0.551745 0.517581
C23_6 C 0.7333(5) 0.5354(4) 0.4414(3)
C24_6 C 0.7196(6) 0.5788(4) 0.3939(3)
H11_6 H 0.677188 0.549220 0.363483
C25_6 C 0.7659(6) 0.6639(4) 0.3896(3)
H12_6 H 0.754931 0.692279 0.356894
C26_6 C 0.8293(4) 0.7081(3) 0.4338(3)
H16_6 H 0.968172 0.713533 0.378995
H17_4 H 0.742567 0.953242 0.371021
H19_4 H 0.750764 0.833874 0.380819
H17_5 H 0.742567 0.789325 0.462312
H19_5 H 0.750764 0.91689 0.452514
H17_6 H 0.0467578 0.257433 0.795645
H19_6 H 0.166126 0.249236 0.785848
H17_7 H 0.257433 0.210675 0.962312
H19_7 H 0.249236 0.0831097 0.952514
H17_8 H 0.953242 0.742567 0.295645
H19_8 H 0.833874 0.750764 0.285848
H18_5 H 0.0827783 0.983378 0.544709
H22_5 H 0.0166222 0.917222 0.621957
O1_5 O 0.9488(2) 0.1821(2) 0.5787(2)
Ni1_5 Ni 0.96192(4) 0.03808(4) 0.583333
O8_5 O 0.8179(2) 0.0512(2) 0.5880(2)
H17_9 H 0.953242 0.210675 0.537688
H19_9 H 0.833874 0.0831097 0.547486
H17_10 H 0.789325 0.0467578 0.628979
H19_10 H 0.91689 0.166126 0.619181
O1_6 O 0.0512(2) 0.8179(2) 0.0787(2)
Ni1_6 Ni 0.03808(4) 0.96192(4) 0.083333
O8_6 O 0.1821(2) 0.9488(2) 0.0880(2)
H17_11 H 0.0467578 0.789325 0.037688
H19_11 H 0.166126 0.91689 0.0474858
H17_12 H 0.210675 0.953242 0.128979
H19_12 H 0.0831097 0.833874 0.119181
H18_6 H 0.917222 0.0166219 0.044709
H22_6 H 0.983378 0.0827779 0.121957
loop_
_geom_bond_atom_site_label_1
_geom_bond_atom_site_label_2
_geom_bond_site_symmetry_1
_geom_bond_site_symmetry_2
Zn1 O5 1_555 1_555
C1 N1 1_555 1_555
N2 C2 1_555 1_555
C2 C1 1_555 1_555
O2 N2 1_555 1_555
Zn2 O6 1_555 1_555
C3 C2 1_555 1_555
O3 C4 1_555 1_555
O4 C4 1_555 1_555
C4 C7 1_555 1_555
C5 H1 1_555 1_555
C6 C5 1_555 1_555
H2 C6 1_555 1_555
C7 C6 1_555 1_555
C8 C7 1_555 1_555
H3 C8 1_555 1_555
C9 C8 1_555 1_555
H4 C9 1_555 1_555
C10 C1 1_555 1_555
C11 C3 1_555 1_555
H5 C11 1_555 1_555
C12 C11 1_555 1_555
H6 C12 1_555 1_555
C13 C12 1_555 1_555
C14 C13 1_555 1_555
H7 C14 1_555 1_555
C15 C3 1_555 1_555
H8 C15 1_555 1_555
C16 C13 1_555 1_555
O5 C16 1_555 1_555
O6 C16 1_555 1_555
O7 Zn2 1_555 1_555
O14 Zn2 1_555 1_555
Zn5 O4 1_555 1_555
Zn8 O3 1_555 1_555
O15 Zn2 1_555 1_555
O16 Zn2 1_555 1_555
O17 Zn1 1_555 1_555
O18 Zn1 1_555 1_555
O19 Zn1 1_555 1_555
O20 Zn2 1_555 1_555
C5 C10 1_555 1_555
C9 C10 1_555 1_555
C14 C15 1_555 1_555
C17 N3 1_555 1_555
C18 C17 1_555 1_555
O9 N4 1_555 1_555
C19 C18 1_555 1_555
O10 C20 1_555 1_555
O11 C20 1_555 1_555
C20 C23 1_555 1_555
C21 H9 1_555 1_555
C22 C21 1_555 1_555
H10 C22 1_555 1_555
C23 C22 1_555 1_555
C24 C23 1_555 1_555
H11 C24 1_555 1_555
C25 C24 1_555 1_555
H12 C25 1_555 1_555
C26 C17 1_555 1_555
C27 C19 1_555 1_555
H13 C27 1_555 1_555
C28 C27 1_555 1_555
H14 C28 1_555 1_555
C29 C28 1_555 1_555
C30 C29 1_555 1_555
H15 C30 1_555 1_555
C31 C19 1_555 1_555
H16 C31 1_555 1_555
C32 C29 1_555 1_555
O12 C32 1_555 1_555
O20 C32 1_555 1_555
Zn3 O12 1_555 1_555
Zn5 O11 1_555 1_555
Zn7 O10 1_555 1_555
N4 C18 1_555 1_555
C21 C26 1_555 1_555
C25 C26 1_555 1_555
C30 C31 1_555 1_555
O9_2 N4_2 1_555 1_555
C27_2 C19_2 1_555 1_555
H13_2 C27_2 1_555 1_555
C28_2 C27_2 1_555 1_555
H14_2 C28_2 1_555 1_555
C29_2 C28_2 1_555 1_555
C30_2 C29_2 1_555 1_555
H15_2 C30_2 1_555 1_555
C31_2 C19_2 1_555 1_555
C32_2 C29_2 1_555 1_555
O19 C32_2 1_555 1_555
O13 C32_2 1_555 1_555
Zn6 O13 1_555 1_555
C30_2 C31_2 1_555 1_555
O9_2 H22 1_555 1_555
C17_2 N3_2 1_555 1_555
C18_2 C17_2 1_555 1_555
O10_2 C20_2 1_555 1_555
O11_2 C20_2 1_555 1_555
C20_2 C23_2 1_555 1_555
C21_2 H9_2 1_555 1_555
C22_2 C21_2 1_555 1_555
H10_2 C22_2 1_555 1_555
C23_2 C22_2 1_555 1_555
C24_2 C23_2 1_555 1_555
H11_2 C24_2 1_555 1_555
C25_2 C24_2 1_555 1_555
H12_2 C25_2 1_555 1_555
C26_2 C17_2 1_555 1_555
Zn4 O11_2 1_555 1_555
Zn8 O10_2 1_555 1_555
C21_2 C26_2 1_555 1_555
C25_2 C26_2 1_555 1_555
Zn1_2 O5_2 1_555 1_555
O2_2 N2_2 1_555 1_555
Zn6 O6_2 1_555 1_555
C11_2 C3_2 1_555 1_555
H5_2 C11_2 1_555 1_555
C12_2 C11_2 1_555 1_555
H6_2 C12_2 1_555 1_555
C13_2 C12_2 1_555 1_555
C14_2 C13_2 1_555 1_555
H7_2 C14_2 1_555 1_555
C15_2 C3_2 1_555 1_555
C16_2 C13_2 1_555 1_555
O5_2 C16_2 1_555 1_555
O6_2 C16_2 1_555 1_555
O7_2 Zn6 1_555 1_555
O14_2 Zn6 1_555 1_555
O15_2 Zn6 1_555 1_555
O16_2 Zn6 1_555 1_555
O17_2 Zn1_2 1_555 1_555
O18_2 Zn1_2 1_555 1_555
O19_2 Zn1_2 1_555 1_555
C14_2 C15_2 1_555 1_555
C1_2 N1_2 1_555 1_555
O1 N1_2 1_555 1_555
N1_2 Ni1 1_555 1_555
C2_2 C1_2 1_555 1_555
O3_2 C4_2 1_555 1_555
O4_2 C4_2 1_555 1_555
C4_2 C7_2 1_555 1_555
C5_2 H1_2 1_555 1_555
C6_2 C5_2 1_555 1_555
H2_2 C6_2 1_555 1_555
C7_2 C6_2 1_555 1_555
C8_2 C7_2 1_555 1_555
H3_2 C8_2 1_555 1_555
C9_2 C8_2 1_555 1_555
H4_2 C9_2 1_555 1_555
C10_2 C1_2 1_555 1_555
Zn4 O4_2 1_555 1_555
Zn8_2 O3_2 1_555 1_555
C5_2 C10_2 1_555 1_555
C9_2 C10_2 1_555 1_555
O1 H17 1_555 1_555
O8 H19 1_555 1_555
C17_3 N3_3 1_555 1_555
O8_2 N3_3 1_555 1_555
N3_3 Ni1_2 1_555 1_555
C18_3 C17_3 1_555 1_555
O10_3 C20_3 1_555 1_555
O11_3 C20_3 1_555 1_555
C20_3 C23_3 1_555 1_555
C22_3 C21_3 1_555 1_555
C23_3 C22_3 1_555 1_555
C24_3 C23_3 1_555 1_555
H11_3 C24_3 1_555 1_555
C25_3 C24_3 1_555 1_555
H12_3 C25_3 1_555 1_555
C26_3 C17_3 1_555 1_555
Zn4_2 O11_3 1_555 1_555
C21_3 C26_3 1_555 1_555
C25_3 C26_3 1_555 1_555
O1_2 H17_2 1_555 1_555
O8_2 H19_2 1_555 1_555
C1_3 N1_3 1_555 1_555
C2_3 C1_3 1_555 1_555
O3_3 C4_3 1_555 1_555
O4_3 C4_3 1_555 1_555
C4_3 C7_3 1_555 1_555
C5_3 H1_3 1_555 1_555
C6_3 C5_3 1_555 1_555
H2_3 C6_3 1_555 1_555
C7_3 C6_3 1_555 1_555
C8_3 C7_3 1_555 1_555
H3_3 C8_3 1_555 1_555
C9_3 C8_3 1_555 1_555
H4_3 C9_3 1_555 1_555
C10_3 C1_3 1_555 1_555
Zn4_2 O4_3 1_555 1_555
Zn7 O3_3 1_555 1_555
C5_3 C10_3 1_555 1_555
C9_3 C10_3 1_555 1_555
O9_3 N4_3 1_555 1_555
C27_3 C19_3 1_555 1_555
C28_3 C27_3 1_555 1_555
C29_3 C28_3 1_555 1_555
C30_3 C29_3 1_555 1_555
H15_3 C30_3 1_555 1_555
C31_3 C19_3 1_555 1_555
C32_3 C29_3 1_555 1_555
O13_2 C32_3 1_555 1_555
Zn6_2 O13_2 1_555 1_555
C30_3 C31_3 1_555 1_555
Zn3 O5_3 1_555 1_555
O2_3 N2_3 1_555 1_555
Zn6_2 O6_3 1_555 1_555
C11_3 C3_3 1_555 1_555
H5_3 C11_3 1_555 1_555
C12_3 C11_3 1_555 1_555
H6_3 C12_3 1_555 1_555
C13_3 C12_3 1_555 1_555
C14_3 C13_3 1_555 1_555
H7_3 C14_3 1_555 1_555
C15_3 C3_3 1_555 1_555
C16_3 C13_3 1_555 1_555
O5_3 C16_3 1_555 1_555
O6_3 C16_3 1_555 1_555
O7_3 Zn6_2 1_555 1_555
O14_3 Zn6_2 1_555 1_555
O16_3 Zn6_2 1_555 1_555
O17_3 Zn3 1_555 1_555
O18_3 Zn3 1_555 1_555
C14_3 C15_3 1_555 1_555
O2_3 H18_2 1_555 1_555
C17_4 N3_4 1_555 1_555
C18_4 C17_4 1_555 1_555
O9_4 N4_4 1_555 1_555
C19_4 C18_4 1_555 1_555
O16_2 C20_4 1_555 1_555
O18_2 C20_4 1_555 1_555
C20_4 C23_4 1_555 1_555
C21_4 H9_4 1_555 1_555
C22_4 C21_4 1_555 1_555
H10_4 C22_4 1_555 1_555
C23_4 C22_4 1_555 1_555
C24_4 C23_4 1_555 1_555
H11_4 C24_4 1_555 1_555
C25_4 C24_4 1_555 1_555
H12_4 C25_4 1_555 1_555
C26_4 C17_4 1_555 1_555
C27_4 C19_4 1_555 1_555
H13_4 C27_4 1_555 1_555
C28_4 C27_4 1_555 1_555
H14_4 C28_4 1_555 1_555
C29_4 C28_4 1_555 1_555
C30_4 C29_4 1_555 1_555
H15_4 C30_4 1_555 1_555
C31_4 C19_4 1_555 1_555
H16_4 C31_4 1_555 1_555
C32_4 C29_4 1_555 1_555
O12_2 C32_4 1_555 1_555
O13_3 C32_4 1_555 1_555
Zn4 O12_2 1_555 1_555
Zn8_2 O13_3 1_555 1_555
N4_4 C18_4 1_555 1_555
C21_4 C26_4 1_555 1_555
C25_4 C26_4 1_555 1_555
C30_4 C31_4 1_555 1_555
C1_4 N1_4 1_555 1_555
N2_4 C2_4 1_555 1_555
C2_4 C1_4 1_555 1_555
O2_4 N2_4 1_555 1_555
Zn8_2 O6_4 1_555 1_555
C3_4 C2_4 1_555 1_555
O15_3 C4_4 1_555 1_555
O17_2 C4_4 1_555 1_555
C4_4 C7_4 1_555 1_555
C6_4 C5_4 1_555 1_555
C7_4 C6_4 1_555 1_555
C8_4 C7_4 1_555 1_555
H3_4 C8_4 1_555 1_555
C9_4 C8_4 1_555 1_555
H4_4 C9_4 1_555 1_555
C10_4 C1_4 1_555 1_555
C11_4 C3_4 1_555 1_555
C12_4 C11_4 1_555 1_555
C13_4 C12_4 1_555 1_555
C14_4 C13_4 1_555 1_555
H7_4 C14_4 1_555 1_555
C15_4 C3_4 1_555 1_555
H8_4 C15_4 1_555 1_555
C16_4 C13_4 1_555 1_555
O6_4 C16_4 1_555 1_555
O7_4 Zn8_2 1_555 1_555
O14_4 Zn8_2 1_555 1_555
C5_4 C10_4 1_555 1_555
C9_4 C10_4 1_555 1_555
C14_4 C15_4 1_555 1_555
Zn4_2 O5_4 1_555 1_555
O19_3 Zn4_2 1_555 1_555
C1_5 N1_5 1_555 1_555
O1_3 N1_5 1_555 1_555
N1_5 Ni1_3 1_555 1_555
C2_5 C1_5 1_555 1_555
O15 C4_5 1_555 1_555
O17_3 C4_5 1_555 1_555
C4_5 C7_5 1_555 1_555
C5_5 H1_5 1_555 1_555
C6_5 C5_5 1_555 1_555
H2_5 C6_5 1_555 1_555
C7_5 C6_5 1_555 1_555
C8_5 C7_5 1_555 1_555
H3_5 C8_5 1_555 1_555
C9_5 C8_5 1_555 1_555
H4_5 C9_5 1_555 1_555
C10_5 C1_5 1_555 1_555
C5_5 C10_5 1_555 1_555
C9_5 C10_5 1_555 1_555
O1_3 H17_3 1_555 1_555
O8_3 H19_3 1_555 1_555
Zn5 O5_5 1_555 1_555
O2_5 N2_5 1_555 1_555
Zn7 O6_5 1_555 1_555
C11_5 C3_5 1_555 1_555
H5_5 C11_5 1_555 1_555
C12_5 C11_5 1_555 1_555
H6_5 C12_5 1_555 1_555
C13_5 C12_5 1_555 1_555
C14_5 C13_5 1_555 1_555
H7_5 C14_5 1_555 1_555
C15_5 C3_5 1_555 1_555
C16_5 C13_5 1_555 1_555
O5_5 C16_5 1_555 1_555
O6_5 C16_5 1_555 1_555
O7_5 Zn7 1_555 1_555
O14_5 Zn7 1_555 1_555
O19_4 Zn5 1_555 1_555
O20_2 Zn7 1_555 1_555
C14_5 C15_5 1_555 1_555
C17_5 N3_5 1_555 1_555
C18_5 C17_5 1_555 1_555
O16_3 C20_5 1_555 1_555
O18_3 C20_5 1_555 1_555
C20_5 C23_5 1_555 1_555
C21_5 H9_5 1_555 1_555
C22_5 C21_5 1_555 1_555
H10_5 C22_5 1_555 1_555
C23_5 C22_5 1_555 1_555
C24_5 C23_5 1_555 1_555
H11_5 C24_5 1_555 1_555
C25_5 C24_5 1_555 1_555
H12_5 C25_5 1_555 1_555
C26_5 C17_5 1_555 1_555
C21_5 C26_5 1_555 1_555
C25_5 C26_5 1_555 1_555
O9_5 N4_5 1_555 1_555
C27_5 C19_5 1_555 1_555
H13_5 C27_5 1_555 1_555
C28_5 C27_5 1_555 1_555
H14_5 C28_5 1_555 1_555
C29_5 C28_5 1_555 1_555
C30_5 C29_5 1_555 1_555
H15_5 C30_5 1_555 1_555
C31_5 C19_5 1_555 1_555
C32_5 C29_5 1_555 1_555
O19_3 C32_5 1_555 1_555
O20_2 C32_5 1_555 1_555
C30_5 C31_5 1_555 1_555
O9_5 H22_3 1_555 1_555
Zn4 O5_6 1_555 1_555
O2_6 N2_6 1_555 1_555
Zn8 O6_6 1_555 1_555
C11_6 C3_6 1_555 1_555
H5_6 C11_6 1_555 1_555
C12_6 C11_6 1_555 1_555
H6_6 C12_6 1_555 1_555
C13_6 C12_6 1_555 1_555
C14_6 C13_6 1_555 1_555
H7_6 C14_6 1_555 1_555
C15_6 C3_6 1_555 1_555
C16_6 C13_6 1_555 1_555
O5_6 C16_6 1_555 1_555
O6_6 C16_6 1_555 1_555
O7_6 Zn8 1_555 1_555
O14_6 Zn8 1_555 1_555
O20_3 Zn8 1_555 1_555
C14_6 C15_6 1_555 1_555
O2_6 H18_4 1_555 1_555
O9_6 N4_6 1_555 1_555
C27_6 C19_6 1_555 1_555
H13_6 C27_6 1_555 1_555
C28_6 C27_6 1_555 1_555
H14_6 C28_6 1_555 1_555
C29_6 C28_6 1_555 1_555
C30_6 C29_6 1_555 1_555
H15_6 C30_6 1_555 1_555
C31_6 C19_6 1_555 1_555
C32_6 C29_6 1_555 1_555
O19_4 C32_6 1_555 1_555
O20_3 C32_6 1_555 1_555
C30_6 C31_6 1_555 1_555
C1_6 N1_6 1_555 1_555
C2_6 C1_6 1_555 1_555
O15_2 C4_6 1_555 1_555
O17 C4_6 1_555 1_555
C4_6 C7_6 1_555 1_555
C5_6 H1_6 1_555 1_555
C6_6 C5_6 1_555 1_555
H2_6 C6_6 1_555 1_555
C7_6 C6_6 1_555 1_555
C8_6 C7_6 1_555 1_555
H3_6 C8_6 1_555 1_555
C9_6 C8_6 1_555 1_555
H4_6 C9_6 1_555 1_555
C10_6 C1_6 1_555 1_555
C5_6 C10_6 1_555 1_555
C9_6 C10_6 1_555 1_555
C17_6 N3_6 1_555 1_555
O8_4 N3_6 1_555 1_555
N3_6 Ni1_4 1_555 1_555
C18_6 C17_6 1_555 1_555
O16 C20_6 1_555 1_555
O18 C20_6 1_555 1_555
C20_6 C23_6 1_555 1_555
C21_6 H9_6 1_555 1_555
C22_6 C21_6 1_555 1_555
H10_6 C22_6 1_555 1_555
C23_6 C22_6 1_555 1_555
C24_6 C23_6 1_555 1_555
H11_6 C24_6 1_555 1_555
C25_6 C24_6 1_555 1_555
H12_6 C25_6 1_555 1_555
C26_6 C17_6 1_555 1_555
C21_6 C26_6 1_555 1_555
C25_6 C26_6 1_555 1_555
O1_4 H17_4 1_555 1_555
O8_4 H19_4 1_555 1_555
O8_4 H17_5 1_555 1_555
O1_4 H19_5 1_555 1_555
O8_3 H17_6 1_555 1_555
O1_3 H19_6 1_555 1_555
O8_2 H17_7 1_555 1_555
O1_2 H19_7 1_555 1_555
O8 H17_8 1_555 1_555
O1 H19_8 1_555 1_555
O1_5 H17_9 1_555 1_555
O8_5 H19_9 1_555 1_555
O8_5 H17_10 1_555 1_555
O1_5 H19_10 1_555 1_555
O1_6 H17_11 1_555 1_555
O8_6 H19_11 1_555 1_555
O8_6 H17_12 1_555 1_555
O1_6 H19_12 1_555 1_555

#END
