
###############################################################################
#
# This file contains modified crystal structure data generated from the
# MOF subset of the Cambridge Structural Database (CSD) v543 
# hosted by the Cambridge Crystallographic Data Centre (CCDC).
#
# This work is licensed under the Creative Commons
# Attribution-NonCommercial-ShareAlike 4.0 International License.
# To view a copy of this license, visit
# http://creativecommons.org/licenses/by-nc-sa/4.0/
# or send a letter to
# Creative Commons, PO Box 1866, Mountain View, CA 94042, USA.
#
# CIF created using the CSD Python API on 29 September 2022
# The structure has been converted into the P1 space group
# The structure has a 3D framework
# The original CSD entry OJAXOP is in the hexagonal crystal system
# The original CSD entry OJAXOP is in a Sohncke space group
# The framework has been calculated to contain at least 10.0% void space
# The void calculation uses a probe of radius 1.32A, grid spacing 0.4
# H atom positions have been added when not included in the experimental data
#
###############################################################################

data_OJAXOP
_chemical_formula_moiety         '(C196 H132 Mn12 N24 Ni6 O76)n'
_symmetry_cell_setting           triclinic
_symmetry_space_group_name_H-M   'P 1'
_symmetry_Int_Tables_number      1
_space_group_name_Hall           'P 1'
loop_
_symmetry_equiv_pos_site_id
_symmetry_equiv_pos_as_xyz
1 x,y,z
_cell_length_a                   18.867(3)
_cell_length_b                   18.867(3)
_cell_length_c                   21.249(3)
_cell_angle_alpha                90
_cell_angle_beta                 90
_cell_angle_gamma                120
_cell_volume                     6550.51
loop_
_atom_site_label
_atom_site_type_symbol
_atom_site_fract_x
_atom_site_fract_y
_atom_site_fract_z
O1 O 0.0416(6) 0.2416(5) 0.5333(5)
Ni1 Ni 0.02513(12) 0.08425(11) 0.52681(9)
C2 C 0.1833(9) 0.1263(9) 0.5144(7)
O2 O 0.1700(6) 0.2390(5) 0.5238(5)
N2 N 0.1384(7) 0.1580(7) 0.5215(5)
N4 N 0.0594(8) 0.0062(7) 0.5201(6)
C5 C 0.1352(9) 0.0329(9) 0.5135(7)
O7 O 0.5752(9) 0.3615(12) 0.5423(6)
O8 O 0.5723(8) 0.2951(8) 0.4523(5)
C13 C 0.5345(10) 0.3062(13) 0.4984(8)
H5 H 0.268945 0.038379 0.565438
C27 C 0.2758(9) 0.1735(10) 0.5116(7)
C28 C 0.3143(10) 0.1508(10) 0.4608(7)
H13 H 0.282721 0.108712 0.431389
C29 C 0.3993(10) 0.1945(10) 0.4583(7)
H14 H 0.426925 0.182333 0.426397
C30 C 0.4455(10) 0.2569(12) 0.5028(8)
C31 C 0.4069(10) 0.2756(12) 0.5508(8)
H15 H 0.438378 0.314758 0.582106
C32 C 0.3237(9) 0.2371(11) 0.5520(7)
H16 H 0.297771 0.254502 0.581631
Mn5 Mn 0.69561(16) 0.43233(23) 0.54582(12)
Mn6 Mn 0.61587(13) 0.35357(18) 0.36398(11)
H17 H 0.155115 0.25419 0.564408
H18 H 0.037771 0.264654 0.574333
Mn1 Mn 0.26328(17) 0.69561(16) 0.37915(12)
O4 O 0.0048(6) 0.9247(6) 0.5191(6)
C12 C 0.1715(10) 0.9797(9) 0.5025(6)
C15 C 0.2442(9) 0.9957(9) 0.5352(8)
C17 C 0.2768(11) 0.9467(10) 0.5212(8)
H7 H 0.324550 0.955829 0.543059
C19 C 0.2451(11) 0.8880(10) 0.4791(7)
C21 C 0.1741(12) 0.8724(12) 0.4497(7)
H9 H 0.148177 0.827967 0.421054
C23 C 0.1398(11) 0.9213(10) 0.4616(7)
H11 H 0.092181 0.911570 0.439254
C24 C 0.2773(10) 0.8298(10) 0.4679(8)
O9 O 0.3282(7) 0.8335(7) 0.5043(5)
O10 O 0.2481(9) 0.7859(9) 0.4196(6)
Mn8 Mn 0.35357(18) 0.73770(13) 0.53064(11)
O14 O 0.3890(8) 0.7214(6) 0.4345(5)
O15 O 0.3921(11) 0.7716(8) 0.3402(5)
O16 O 0.2137(15) 0.5752(9) 0.3756(6)
O20 O 0.2139(11) 0.7175(13) 0.2991(8)
N1 N 0.9901(7) 0.1621(7) 0.5327(5)
C1 C 0.9123(9) 0.1324(9) 0.5397(8)
Mn2 Mn 0.73770(13) 0.38413(13) 0.69731(11)
N3 N 0.9133(7) 0.0125(7) 0.5330(6)
C3 C 0.8651(9) 0.0421(8) 0.5414(6)
C4 C 0.8720(9) 0.1839(8) 0.5445(6)
C6 C 0.8187(9) 0.1711(10) 0.5929(7)
H1 H 0.804315 0.128362 0.622609
C7 C 0.7853(9) 0.2252(9) 0.5970(7)
H2 H 0.752287 0.221931 0.631855
C8 C 0.8020(9) 0.2815(9) 0.5498(6)
C9 C 0.8476(9) 0.2875(10) 0.5033(7)
H3 H 0.855117 0.325460 0.470961
C10 C 0.8866(10) 0.2428(9) 0.4969(7)
H4 H 0.921662 0.250832 0.462206
C11 C 0.7613(8) 0.3377(9) 0.5541(7)
O5 O 0.7214(6) 0.3324(6) 0.6012(5)
O6 O 0.7716(8) 0.3795(7) 0.5069(5)
C25 C 0.7187(9) 0.0000(8) 0.5187(6)
H12 H 0.737139 0.042937 0.488671
O13 O 0.6392(8) 0.2632(7) 0.7190(6)
O17 O 0.7228(11) 0.4277(8) 0.7856(5)
O18 O 0.8335(7) 0.5053(10) 0.6710(5)
O19 O 0.8362(6) 0.3633(9) 0.7150(5)
H21 H 0.656211 0.222436 0.709051
H22 H 0.625563 0.259955 0.764429
O3 O 0.8779(6) 0.9275(5) 0.5275(6)
C14 C 0.7744(9) 0.9886(8) 0.5532(6)
C16 C 0.7494(10) 0.9326(9) 0.6006(8)
H6 H 0.788195 0.926825 0.625299
C18 C 0.6675(10) 0.8848(10) 0.6120(8)
H8 H 0.649588 0.846228 0.645428
C20 C 0.6094(9) 0.8916(8) 0.5754(6)
C22 C 0.6390(9) 0.9502(9) 0.5280(6)
H10 H 0.601075 0.954898 0.501437
C25_2 C 0.7187(9) 1.0000(8) 0.5187(6)
C26 C 0.5256(9) 0.8388(10) 0.5872(8)
O11 O 0.4729(7) 0.8362(6) 0.5483(5)
O12 O 0.5036(7) 0.7861(11) 0.6324(8)
Mn3 Mn 0.43233(23) 0.73672(17) 0.71248(12)
H19 H 0.967492 0.911804 0.482566
H20 H 0.90009 0.907045 0.560786
Mn1_2 Mn 0.30439(16) 0.56767(23) 0.04582(12)
O4_2 O 0.0753(6) 0.0801(8) 0.1858(6)
C12_2 C 0.0203(9) 0.1918(13) 0.1692(6)
C15_2 C 0.0043(9) 0.2485(13) 0.2019(8)
C17_2 C 0.0533(10) 0.3301(15) 0.1879(8)
H7_2 H 0.044171 0.368721 0.209726
C19_2 C 0.1120(10) 0.3571(15) 0.1458(7)
C21_2 C 0.1276(12) 0.3017(17) 0.1164(7)
H9_2 H 0.172033 0.320210 0.087721
C23_2 C 0.0787(10) 0.2185(15) 0.1283(7)
H11_2 H 0.088430 0.180611 0.105921
C24_2 C 0.1702(10) 0.4475(14) 0.1346(8)
O9_2 O 0.1665(7) 0.4947(10) 0.1710(5)
O10_2 O 0.2141(9) 0.4622(13) 0.0863(6)
Mn8_2 Mn 0.26230(13) 0.61587(22) 0.19731(11)
O14_2 O 0.2786(6) 0.6676(10) 0.1012(5)
O15_2 O 0.2284(8) 0.6205(14) 0.0069(5)
O16_2 O 0.4248(9) 0.6385(17) 0.0423(6)
H19_2 H 0.0881963 0.0556883 0.149233
O20_2 O 0.2825(13) 0.4964(17) 0.9657(8)
O3_2 O 0.0725(5) 0.9504(8) 0.1942(6)
C14_2 C 0.0114(8) 0.7858(12) 0.2199(6)
C16_2 C 0.0674(9) 0.8168(13) 0.2673(8)
H6_2 H 0.073175 0.861370 0.291966
C18_2 C 0.1152(10) 0.7827(14) 0.2787(8)
H8_2 H 0.153772 0.803360 0.312095
C20_2 C 0.1084(8) 0.7178(12) 0.2421(6)
C22_2 C 0.0498(9) 0.6888(13) 0.1947(6)
H10_2 H 0.045102 0.646177 0.168104
C25_3 C -0.0000(8) 0.7187(12) 0.1854(6)
C26_2 C 0.1612(10) 0.6868(13) 0.2539(8)
O11_2 O 0.1638(6) 0.6367(9) 0.2150(5)
H20_2 H 0.0929553 0.993046 0.227452
C2_2 C 0.8737(9) 0.0570(13) 0.1811(7)
N4_2 N 0.9938(7) 0.0532(11) 0.1868(6)
C5_2 C 0.9671(9) 0.1023(13) 0.1802(7)
O7_2 O 0.6385(12) 0.2137(15) 0.2090(6)
O8_2 O 0.7049(8) 0.2772(11) 0.1190(5)
C13_2 C 0.6938(13) 0.2283(16) 0.1651(8)
H5_2 H 0.961621 0.230566 0.232105
C27_2 C 0.8265(10) 0.1023(13) 0.1783(7)
C28_2 C 0.8492(10) 0.1635(14) 0.1275(7)
H13_2 H 0.891288 0.174009 0.098056
C29_2 C 0.8055(10) 0.2048(14) 0.1250(7)
H14_2 H 0.817667 0.244592 0.093064
C30_2 C 0.7431(12) 0.1886(16) 0.1695(8)
C31_2 C 0.7244(12) 0.1313(16) 0.2175(8)
H15_2 H 0.685242 0.123620 0.248773
C32_2 C 0.7629(11) 0.0866(14) 0.2187(7)
H16_2 H 0.745498 0.043269 0.248298
Mn5_2 Mn 0.56767(23) 0.26328(28) 0.21248(12)
Mn6_2 Mn 0.64643(18) 0.26230(22) 0.03064(11)
O1_2 O 0.7584(5) 0.8000(8) 0.2000(5)
N1_2 N 0.8379(7) 0.8280(10) 0.1994(5)
C1_2 C 0.8676(9) 0.7799(13) 0.2064(8)
Ni1_2 Ni 0.91575(11) 0.94088(16) 0.19348(9)
O2_2 O 0.7610(5) 0.9310(8) 0.1905(5)
N2_2 N 0.8420(7) 0.9804(10) 0.1882(5)
N3_2 N 0.9875(7) 0.9008(10) 0.1997(6)
C3_2 C 0.9579(8) 0.8230(12) 0.2081(6)
C4_2 C 0.8161(8) 0.6881(12) 0.2112(6)
C6_2 C 0.8289(10) 0.6476(13) 0.2596(7)
H1_2 H 0.871638 0.675953 0.289276
C7_2 C 0.7748(9) 0.5601(13) 0.2637(7)
H2_2 H 0.778069 0.530356 0.298522
C8_2 C 0.7185(9) 0.5205(13) 0.2165(6)
C9_2 C 0.7125(10) 0.5601(13) 0.1700(7)
H3_2 H 0.674540 0.529657 0.137628
C10_2 C 0.7572(9) 0.6438(13) 0.1636(7)
H4_2 H 0.749168 0.670830 0.128873
C11_2 C 0.6623(9) 0.4236(12) 0.2208(7)
O5_2 O 0.6676(6) 0.3890(8) 0.2679(5)
O6_2 O 0.6205(7) 0.3921(11) 0.1736(5)
C25_4 C 1.0000(8) 0.7187(12) 0.1854(6)
H12_2 H 0.957063 0.694202 0.155338
O13_2 O 0.7368(7) 0.3760(11) 0.3857(6)
O18_2 O 0.4947(10) 0.3282(12) 0.3376(5)
O19_2 O 0.6367(9) 0.4729(11) 0.3816(5)
H17_2 H 0.74581 0.900924 0.231074
H18_2 H 0.735346 0.773117 0.240999
H21_2 H 0.777564 0.433775 0.375718
H22_2 H 0.740045 0.365608 0.431096
O13_3 O 0.6240(11) 0.3608(8) 0.0523(6)
O18_3 O 0.6718(12) 0.1665(7) 0.0043(5)
O19_3 O 0.5271(11) 0.1638(6) 0.0483(5)
H21_3 H 0.566225 0.343789 0.0423843
H22_3 H 0.634392 0.374437 0.0977626
N1_3 N 0.1720(10) 0.0099(7) 0.8660(5)
C1_3 C 0.2201(13) 0.0877(9) 0.8730(8)
N3_3 N 0.0992(10) 0.0867(7) 0.8663(6)
C3_3 C 0.1770(12) 0.1349(9) 0.8747(6)
O3_3 O 0.0496(8) 0.1221(6) 0.8608(6)
C4_3 C 0.3119(12) 0.1280(9) 0.8778(6)
C6_3 C 0.3524(13) 0.1813(9) 0.9262(7)
H1_3 H 0.324047 0.195685 0.955942
C7_3 C 0.4399(13) 0.2147(9) 0.9303(7)
H2_3 H 0.469644 0.247713 0.965188
C8_3 C 0.4795(13) 0.1980(9) 0.8831(6)
C9_3 C 0.4399(13) 0.1524(9) 0.8366(7)
H3_3 H 0.470343 0.144883 0.804294
C10_3 C 0.3562(13) 0.1134(10) 0.8302(7)
H4_3 H 0.329170 0.078338 0.795539
C11_3 C 0.5764(12) 0.2387(8) 0.8874(7)
O5_3 O 0.6110(8) 0.2786(6) 0.9345(5)
O6_3 O 0.6079(11) 0.2284(8) 0.8402(5)
C14_3 C 0.2142(12) 0.2256(9) 0.8865(6)
C16_3 C 0.1832(13) 0.2506(10) 0.9339(8)
H6_3 H 0.138630 0.211805 0.958632
C18_3 C 0.2173(14) 0.3325(10) 0.9453(8)
H8_3 H 0.196640 0.350412 0.978761
C20_3 C 0.2822(12) 0.3906(9) 0.9087(6)
C22_3 C 0.3112(13) 0.3610(9) 0.8613(6)
H10_3 H 0.353823 0.398925 0.834770
C25_5 C 0.2813(12) 0.2813(9) 0.8520(6)
H12_3 H 0.305798 0.262861 0.822004
C26_3 C 0.3132(13) 0.4744(9) 0.9205(8)
O11_3 O 0.3633(9) 0.5271(7) 0.8816(5)
Mn4 Mn 0.73672(28) 0.30439(16) 0.87915(12)
Mn7 Mn 0.38413(22) 0.64643(18) 0.86398(11)
H20_3 H 0.00695436 0.0999096 0.894119
C2_3 C 0.9430(13) 0.8167(9) 0.8477(7)
N4_3 N 0.9468(11) 0.9406(8) 0.8534(6)
O4_3 O 0.9199(8) 0.9952(6) 0.8524(6)
C5_3 C 0.8977(13) 0.8648(9) 0.8468(7)
C12_3 C 0.8082(13) 0.8285(10) 0.8358(6)
O7_3 O 0.7863(15) 0.4248(9) 0.8756(6)
C13_3 C 0.7717(16) 0.4655(10) 0.8317(8)
C15_3 C 0.7515(13) 0.7558(9) 0.8685(8)
H5_3 H 0.769434 0.731055 0.898771
C17_3 C 0.6699(15) 0.7232(11) 0.8545(8)
H7_3 H 0.631279 0.675450 0.876392
C19_3 C 0.6429(15) 0.7549(11) 0.8124(7)
C21_3 C 0.6983(17) 0.8259(12) 0.7830(7)
H9_3 H 0.679790 0.851823 0.754387
C23_3 C 0.7815(15) 0.8602(11) 0.7949(7)
H11_3 H 0.819389 0.907819 0.772587
C24_3 C 0.5525(14) 0.7227(10) 0.8012(8)
O9_3 O 0.5053(10) 0.6718(7) 0.8376(5)
O10_3 O 0.5378(13) 0.7519(9) 0.7529(6)
C27_3 C 0.8977(13) 0.7242(9) 0.8449(7)
C28_3 C 0.8365(14) 0.6857(10) 0.7941(7)
H13_3 H 0.825991 0.717279 0.764722
C29_3 C 0.7952(14) 0.6007(10) 0.7916(7)
H14_3 H 0.755408 0.573075 0.759730
C30_3 C 0.8114(16) 0.5545(10) 0.8361(8)
C31_3 C 0.8687(16) 0.5931(10) 0.8841(8)
H15_3 H 0.876380 0.561622 0.915439
C32_3 C 0.9134(14) 0.6763(9) 0.8853(7)
H16_3 H 0.956731 0.702229 0.914964
O14_3 O 0.3324(10) 0.6110(8) 0.7679(5)
O15_3 O 0.3795(14) 0.6079(11) 0.6736(5)
O16_3 O 0.3615(17) 0.7863(15) 0.7090(6)
O3_4 O 0.1221(6) 0.0725(5) 0.0275(6)
C14_4 C 0.2256(9) 0.0114(8) 0.0532(6)
C16_4 C 0.2506(10) 0.0674(9) 0.1006(8)
H6_4 H 0.211805 0.073175 0.125299
C18_4 C 0.3325(10) 0.1152(10) 0.1120(8)
H8_4 H 0.350412 0.153772 0.145428
C20_4 C 0.3906(9) 0.1084(8) 0.0754(6)
C22_4 C 0.3610(9) 0.0498(9) 0.0280(6)
H10_4 H 0.398925 0.045102 0.001437
C25_6 C 0.2813(9) -0.0000(8) 0.0187(6)
C26_4 C 0.4744(9) 0.1612(10) 0.0872(8)
O12_2 O 0.4964(7) 0.2139(11) 0.1324(8)
H20_4 H 0.0999096 0.0929553 0.0607855
N1_4 N 0.0099(7) 0.8379(7) 0.0327(5)
C1_4 C 0.0877(9) 0.8676(9) 0.0397(8)
N3_4 N 0.0867(7) 0.9875(7) 0.0330(6)
C3_4 C 0.1349(9) 0.9579(8) 0.0414(6)
C4_4 C 0.1280(9) 0.8161(8) 0.0445(6)
C6_4 C 0.1813(9) 0.8289(10) 0.0929(7)
H1_4 H 0.195685 0.871638 0.122609
C7_4 C 0.2147(9) 0.7748(9) 0.0970(7)
H2_4 H 0.247713 0.778069 0.131855
C8_4 C 0.1980(9) 0.7185(9) 0.0498(6)
C9_4 C 0.1524(9) 0.7125(10) 0.0033(7)
C11_4 C 0.2387(8) 0.6623(9) 0.0541(7)
C25_7 C 0.2813(9) 1.0000(8) 0.0187(6)
O13_4 O 0.3608(8) 0.7368(7) 0.2190(6)
O17_2 O 0.2772(11) 0.5723(8) 0.2856(5)
H21_4 H 0.343789 0.777564 0.209051
H22_4 H 0.374437 0.740045 0.264429
O4_4 O 0.9952(6) 0.0753(6) 0.0191(6)
C12_4 C 0.8285(10) 0.0203(9) 0.0025(6)
C15_4 C 0.7558(9) 0.0043(9) 0.0352(8)
C17_4 C 0.7232(11) 0.0533(10) 0.0212(8)
H7_4 H 0.675450 0.044171 0.043059
C19_4 C 0.7549(11) 0.1120(10) 0.9791(7)
C21_4 C 0.8259(12) 0.1276(12) 0.9497(7)
H9_4 H 0.851823 0.172033 0.921054
C23_4 C 0.8602(11) 0.0787(10) 0.9616(7)
H11_4 H 0.907819 0.088430 0.939254
C24_4 C 0.7227(10) 0.1702(10) 0.9679(8)
O10_4 O 0.7519(9) 0.2141(9) 0.9196(6)
O20_3 O 0.7861(11) 0.2825(13) 0.7991(8)
O1_3 O 0.9584(6) 0.7584(5) 0.0333(5)
Ni1_3 Ni 0.97487(12) 0.91575(11) 0.02681(9)
C2_4 C 0.8167(9) 0.8737(9) 0.0144(7)
O2_3 O 0.8300(6) 0.7610(5) 0.0238(5)
N2_3 N 0.8616(7) 0.8420(7) 0.0215(5)
N4_4 N 0.9406(8) 0.9938(7) 0.0201(6)
C5_4 C 0.8648(9) 0.9671(9) 0.0135(7)
H5_4 H 0.731055 0.961621 0.065438
C27_4 C 0.7242(9) 0.8265(10) 0.0116(7)
C30_4 C 0.5545(10) 0.7431(12) 0.0028(8)
C31_4 C 0.5931(10) 0.7244(12) 0.0508(8)
H15_4 H 0.561622 0.685242 0.082106
C32_4 C 0.6763(9) 0.7629(11) 0.0520(7)
H16_4 H 0.702229 0.745498 0.081631
H17_3 H 0.844885 0.74581 0.0644078
H18_3 H 0.962229 0.735346 0.0743327
O8_3 O 0.4277(8) 0.7049(8) 0.9523(5)
C13_4 C 0.4655(10) 0.6938(13) 0.9984(8)
C28_4 C 0.6857(10) 0.8492(10) 0.9608(7)
H13_4 H 0.717279 0.891288 0.931389
C29_4 C 0.6007(10) 0.8055(10) 0.9583(7)
H14_4 H 0.573075 0.817667 0.926397
O1_4 O 0.2416(5) 0.2000(8) 0.7000(5)
N1_5 N 0.1621(7) 0.1720(10) 0.6994(5)
C1_5 C 0.1324(9) 0.2201(13) 0.7064(8)
Ni1_4 Ni 0.08425(11) 0.05912(16) 0.69348(9)
O2_4 O 0.2390(5) 0.0690(8) 0.6905(5)
N2_4 N 0.1580(7) 0.0196(10) 0.6882(5)
N3_5 N 0.0125(7) 0.0992(10) 0.6997(6)
C3_5 C 0.0421(8) 0.1770(12) 0.7081(6)
C4_5 C 0.1839(8) 0.3119(12) 0.7112(6)
C6_5 C 0.1711(10) 0.3524(13) 0.7596(7)
H1_5 H 0.128362 0.324047 0.789276
C7_5 C 0.2252(9) 0.4399(13) 0.7637(7)
H2_5 H 0.221931 0.469644 0.798522
C8_5 C 0.2815(9) 0.4795(13) 0.7165(6)
C9_5 C 0.2875(10) 0.4399(13) 0.6700(7)
H3_4 H 0.325460 0.470343 0.637628
C10_4 C 0.2428(9) 0.3562(13) 0.6636(7)
H4_4 H 0.250832 0.329170 0.628873
C11_5 C 0.3377(9) 0.5764(12) 0.7208(7)
C25_8 C -0.0000(8) 0.2813(12) 0.6854(6)
H12_4 H 0.042937 0.305798 0.655338
O13_5 O 0.2632(7) 0.6240(11) 0.8857(6)
H17_4 H 0.25419 0.0990756 0.731074
H18_4 H 0.264654 0.226883 0.740999
H21_5 H 0.222436 0.566225 0.875718
H22_5 H 0.259955 0.634392 0.931096
C2_5 C 0.1263(9) 0.9430(13) 0.6811(7)
N4_5 N 0.0062(7) 0.9468(11) 0.6868(6)
C5_5 C 0.0329(9) 0.8977(13) 0.6802(7)
O8_4 O 0.2951(8) 0.7228(11) 0.6190(5)
C13_5 C 0.3062(13) 0.7717(16) 0.6651(8)
H5_5 H 0.038379 0.769434 0.732105
C27_5 C 0.1735(10) 0.8977(13) 0.6783(7)
C28_5 C 0.1508(10) 0.8365(14) 0.6275(7)
H13_5 H 0.108712 0.825991 0.598056
C29_5 C 0.1945(10) 0.7952(14) 0.6250(7)
H14_5 H 0.182333 0.755408 0.593064
C30_5 C 0.2569(12) 0.8114(16) 0.6695(8)
C31_5 C 0.2756(12) 0.8687(16) 0.7175(8)
H15_5 H 0.314758 0.876380 0.748773
C32_5 C 0.2371(11) 0.9134(14) 0.7187(7)
H16_5 H 0.254502 0.956731 0.748298
O3_5 O 0.9275(5) 0.0496(8) 0.6942(6)
C14_5 C 0.9886(8) 0.2142(12) 0.7199(6)
C16_5 C 0.9326(9) 0.1832(13) 0.7673(8)
H6_5 H 0.926825 0.138630 0.791966
C18_5 C 0.8848(10) 0.2173(14) 0.7787(8)
H8_5 H 0.846228 0.196640 0.812095
C20_5 C 0.8916(8) 0.2822(12) 0.7421(6)
C22_5 C 0.9502(9) 0.3112(13) 0.6947(6)
H10_5 H 0.954898 0.353823 0.668104
C25_9 C 1.0000(8) 0.2813(12) 0.6854(6)
C26_5 C 0.8388(10) 0.3132(13) 0.7539(8)
H20_5 H 0.907045 0.00695436 0.727452
O4_5 O 0.9247(6) 0.9199(8) 0.6858(6)
C12_5 C 0.9797(9) 0.8082(13) 0.6692(6)
C15_5 C 0.9957(9) 0.7515(13) 0.7019(8)
C17_5 C 0.9467(10) 0.6699(15) 0.6879(8)
H7_5 H 0.955829 0.631279 0.709726
C19_5 C 0.8880(10) 0.6429(15) 0.6458(7)
C21_5 C 0.8724(12) 0.6983(17) 0.6164(7)
H9_5 H 0.827967 0.679790 0.587721
C23_5 C 0.9213(10) 0.7815(15) 0.6283(7)
H11_5 H 0.911570 0.819389 0.605921
C24_5 C 0.8298(10) 0.5525(14) 0.6346(8)
O10_5 O 0.7859(9) 0.5378(13) 0.5863(6)
O20_4 O 0.7175(13) 0.5036(17) 0.4657(8)
H19_3 H 0.911804 0.944312 0.649233
C2_6 C 0.0570(13) 0.1833(9) 0.3477(7)
N4_6 N 0.0532(11) 0.0594(8) 0.3534(6)
O4_6 O 0.0801(8) 0.0048(6) 0.3524(6)
C5_6 C 0.1023(13) 0.1352(9) 0.3468(7)
C12_6 C 0.1918(13) 0.1715(10) 0.3358(6)
C13_6 C 0.2283(16) 0.5345(10) 0.3317(8)
C15_6 C 0.2485(13) 0.2442(9) 0.3685(8)
H5_6 H 0.230566 0.268945 0.398771
C17_6 C 0.3301(15) 0.2768(11) 0.3545(8)
H7_6 H 0.368721 0.324550 0.376392
C19_6 C 0.3571(15) 0.2451(11) 0.3124(7)
C21_6 C 0.3017(17) 0.1741(12) 0.2830(7)
H9_6 H 0.320210 0.148177 0.254387
C23_6 C 0.2185(15) 0.1398(11) 0.2949(7)
H11_6 H 0.180611 0.092181 0.272587
C24_6 C 0.4475(14) 0.2773(10) 0.3012(8)
O10_6 O 0.4622(13) 0.2481(9) 0.2529(6)
C27_6 C 0.1023(13) 0.2758(9) 0.3449(7)
C28_6 C 0.1635(14) 0.3143(10) 0.2941(7)
H13_6 H 0.174009 0.282721 0.264722
C29_6 C 0.2048(14) 0.3993(10) 0.2916(7)
H14_6 H 0.244592 0.426925 0.259730
C30_6 C 0.1886(16) 0.4455(10) 0.3361(8)
C31_6 C 0.1313(16) 0.4069(10) 0.3841(8)
H15_6 H 0.123620 0.438378 0.415439
C32_6 C 0.0866(14) 0.3237(9) 0.3853(7)
H16_6 H 0.043269 0.297771 0.414964
N1_6 N 0.8280(10) 0.9901(7) 0.3660(5)
C1_6 C 0.7799(13) 0.9123(9) 0.3730(8)
N3_6 N 0.9008(10) 0.9133(7) 0.3663(6)
C3_6 C 0.8230(12) 0.8651(9) 0.3747(6)
O3_6 O 0.9504(8) 0.8779(6) 0.3608(6)
C4_6 C 0.6881(12) 0.8720(9) 0.3778(6)
C6_6 C 0.6476(13) 0.8187(9) 0.4262(7)
H1_6 H 0.675953 0.804315 0.455942
C7_6 C 0.5601(13) 0.7853(9) 0.4303(7)
H2_6 H 0.530356 0.752287 0.465188
C8_6 C 0.5205(13) 0.8020(9) 0.3831(6)
C9_6 C 0.5601(13) 0.8476(9) 0.3366(7)
H3_5 H 0.529657 0.855117 0.304294
C10_5 C 0.6438(13) 0.8866(10) 0.3302(7)
H4_5 H 0.670830 0.921662 0.295539
C11_6 C 0.4236(12) 0.7613(8) 0.3874(7)
C14_6 C 0.7858(12) 0.7744(9) 0.3865(6)
C16_6 C 0.8168(13) 0.7494(10) 0.4339(8)
H6_6 H 0.861370 0.788195 0.458632
C18_6 C 0.7827(14) 0.6675(10) 0.4453(8)
H8_6 H 0.803360 0.649588 0.478761
C20_6 C 0.7178(12) 0.6094(9) 0.4087(6)
C22_6 C 0.6888(13) 0.6390(9) 0.3613(6)
H10_6 H 0.646177 0.601075 0.334770
C25_10 C 0.7187(12) 0.7187(9) 0.3520(6)
H12_5 H 0.694202 0.737139 0.322004
C26_6 C 0.6868(13) 0.5256(9) 0.4205(8)
O13_6 O 0.3760(11) 0.6392(8) 0.5523(6)
H20_6 H 0.993046 0.90009 0.394119
H21_6 H 0.433775 0.656211 0.542384
H22_6 H 0.365608 0.625563 0.597763
O1_5 O 0.2000(8) 0.9584(6) 0.8666(5)
Ni1_5 Ni 0.05912(16) 0.97487(12) 0.86014(9)
O2_5 O 0.0690(8) 0.8300(6) 0.8571(5)
N2_5 N 0.0196(10) 0.8616(7) 0.8548(5)
H17_5 H 0.0990756 0.844885 0.897741
H18_5 H 0.226883 0.962229 0.907666
H19_4 H 0.944312 0.0325079 0.815899
H19_5 H 0.0325079 0.0881963 0.982566
H3_6 H 0.144883 0.674540 0.970961
C10_6 C 0.1134(10) 0.7572(9) 0.9969(7)
H4_6 H 0.078338 0.749168 0.962206
H12_6 H 0.262861 0.957063 0.988671
H19_6 H 0.0556883 0.967492 0.315899
O1_6 O 0.8000(8) 0.0416(6) 0.3666(5)
Ni1_6 Ni 0.94088(16) 0.02513(12) 0.36014(9)
O2_6 O 0.9310(8) 0.1700(6) 0.3571(5)
N2_6 N 0.9804(10) 0.1384(7) 0.3548(5)
H17_6 H 0.900924 0.155115 0.397741
H18_6 H 0.773117 0.037771 0.407666
loop_
_geom_bond_atom_site_label_1
_geom_bond_atom_site_label_2
_geom_bond_site_symmetry_1
_geom_bond_site_symmetry_2
C2 N2 1_555 1_555
O2 N2 1_555 1_555
N2 Ni1 1_555 1_555
N4 Ni1 1_555 1_555
C5 C2 1_555 1_555
O7 C13 1_555 1_555
O8 C13 1_555 1_555
C13 C30 1_555 1_555
C27 C2 1_555 1_555
C28 C27 1_555 1_555
H13 C28 1_555 1_555
C29 C28 1_555 1_555
H14 C29 1_555 1_555
C30 C29 1_555 1_555
C31 C30 1_555 1_555
H15 C31 1_555 1_555
C32 C27 1_555 1_555
H16 C32 1_555 1_555
Mn5 O7 1_555 1_555
Mn6 O8 1_555 1_555
N4 C5 1_555 1_555
C31 C32 1_555 1_555
O2 H17 1_555 1_555
O1 H18 1_555 1_555
Mn1 O10 1_555 1_555
C15 C12 1_555 1_555
C17 C15 1_555 1_555
H7 C17 1_555 1_555
C19 C17 1_555 1_555
C21 C19 1_555 1_555
H9 C21 1_555 1_555
C23 C12 1_555 1_555
H11 C23 1_555 1_555
C24 C19 1_555 1_555
O9 C24 1_555 1_555
O10 C24 1_555 1_555
Mn8 O9 1_555 1_555
O14 Mn1 1_555 1_555
O15 Mn1 1_555 1_555
O16 Mn1 1_555 1_555
O20 Mn1 1_555 1_555
C21 C23 1_555 1_555
Mn8 O14 1_555 1_555
N1 C1 1_555 1_555
C1 C3 1_555 1_555
Mn2 O5 1_555 1_555
C3 N3 1_555 1_555
C4 C1 1_555 1_555
C6 C4 1_555 1_555
H1 C6 1_555 1_555
C7 C6 1_555 1_555
H2 C7 1_555 1_555
C8 C7 1_555 1_555
C9 C8 1_555 1_555
H3 C9 1_555 1_555
C10 C4 1_555 1_555
H4 C10 1_555 1_555
C11 C8 1_555 1_555
O5 C11 1_555 1_555
O6 C11 1_555 1_555
H12 C25 1_555 1_555
O13 Mn2 1_555 1_555
Mn5 O5 1_555 1_555
O17 Mn2 1_555 1_555
O18 Mn2 1_555 1_555
O19 Mn2 1_555 1_555
C9 C10 1_555 1_555
O6 Mn5 1_555 1_555
O13 H21 1_555 1_555
O13 H22 1_555 1_555
C16 C14 1_555 1_555
H6 C16 1_555 1_555
C18 C16 1_555 1_555
H8 C18 1_555 1_555
C20 C18 1_555 1_555
C22 C20 1_555 1_555
H10 C22 1_555 1_555
C25_2 C14 1_555 1_555
C26 C20 1_555 1_555
O11 C26 1_555 1_555
O12 C26 1_555 1_555
Mn3 O12 1_555 1_555
Mn8 O11 1_555 1_555
C22 C25_2 1_555 1_555
O3 H20 1_555 1_555
Mn1_2 O10_2 1_555 1_555
C15_2 C12_2 1_555 1_555
C17_2 C15_2 1_555 1_555
H7_2 C17_2 1_555 1_555
C19_2 C17_2 1_555 1_555
C21_2 C19_2 1_555 1_555
H9_2 C21_2 1_555 1_555
C23_2 C12_2 1_555 1_555
H11_2 C23_2 1_555 1_555
C24_2 C19_2 1_555 1_555
O9_2 C24_2 1_555 1_555
O10_2 C24_2 1_555 1_555
Mn8_2 O9_2 1_555 1_555
O14_2 Mn1_2 1_555 1_555
O15_2 Mn1_2 1_555 1_555
O16_2 Mn1_2 1_555 1_555
C21_2 C23_2 1_555 1_555
Mn8_2 O14_2 1_555 1_555
O4_2 H19_2 1_555 1_555
C16_2 C14_2 1_555 1_555
H6_2 C16_2 1_555 1_555
C18_2 C16_2 1_555 1_555
H8_2 C18_2 1_555 1_555
C20_2 C18_2 1_555 1_555
C22_2 C20_2 1_555 1_555
H10_2 C22_2 1_555 1_555
C25_3 C14_2 1_555 1_555
C26_2 C20_2 1_555 1_555
O11_2 C26_2 1_555 1_555
O20 C26_2 1_555 1_555
Mn8_2 O11_2 1_555 1_555
C22_2 C25_3 1_555 1_555
O3_2 H20_2 1_555 1_555
C5_2 C2_2 1_555 1_555
O7_2 C13_2 1_555 1_555
O8_2 C13_2 1_555 1_555
C13_2 C30_2 1_555 1_555
C27_2 C2_2 1_555 1_555
C28_2 C27_2 1_555 1_555
H13_2 C28_2 1_555 1_555
C29_2 C28_2 1_555 1_555
H14_2 C29_2 1_555 1_555
C30_2 C29_2 1_555 1_555
C31_2 C30_2 1_555 1_555
H15_2 C31_2 1_555 1_555
C32_2 C27_2 1_555 1_555
H16_2 C32_2 1_555 1_555
Mn5_2 O7_2 1_555 1_555
Mn6_2 O8_2 1_555 1_555
N4_2 C5_2 1_555 1_555
C31_2 C32_2 1_555 1_555
O1_2 N1_2 1_555 1_555
N1_2 C1_2 1_555 1_555
C1_2 C3_2 1_555 1_555
Ni1_2 N1_2 1_555 1_555
O2_2 N2_2 1_555 1_555
N2_2 Ni1_2 1_555 1_555
Mn6 O5_2 1_555 1_555
N3_2 Ni1_2 1_555 1_555
C3_2 N3_2 1_555 1_555
C4_2 C1_2 1_555 1_555
C6_2 C4_2 1_555 1_555
H1_2 C6_2 1_555 1_555
C7_2 C6_2 1_555 1_555
H2_2 C7_2 1_555 1_555
C8_2 C7_2 1_555 1_555
C9_2 C8_2 1_555 1_555
H3_2 C9_2 1_555 1_555
C10_2 C4_2 1_555 1_555
H4_2 C10_2 1_555 1_555
C11_2 C8_2 1_555 1_555
O5_2 C11_2 1_555 1_555
O6_2 C11_2 1_555 1_555
H12_2 C25_4 1_555 1_555
O13_2 Mn6 1_555 1_555
Mn5_2 O5_2 1_555 1_555
O18_2 Mn6 1_555 1_555
O19_2 Mn6 1_555 1_555
C9_2 C10_2 1_555 1_555
O6_2 Mn5_2 1_555 1_555
O2_2 H17_2 1_555 1_555
O1_2 H18_2 1_555 1_555
O13_2 H21_2 1_555 1_555
O13_2 H22_2 1_555 1_555
O13_3 Mn6_2 1_555 1_555
O18_3 Mn6_2 1_555 1_555
O19_3 Mn6_2 1_555 1_555
O13_3 H21_3 1_555 1_555
O13_3 H22_3 1_555 1_555
N1_3 C1_3 1_555 1_555
C1_3 C3_3 1_555 1_555
C3_3 N3_3 1_555 1_555
O3_3 N3_3 1_555 1_555
C4_3 C1_3 1_555 1_555
C6_3 C4_3 1_555 1_555
H1_3 C6_3 1_555 1_555
C7_3 C6_3 1_555 1_555
H2_3 C7_3 1_555 1_555
C8_3 C7_3 1_555 1_555
C9_3 C8_3 1_555 1_555
H3_3 C9_3 1_555 1_555
C10_3 C4_3 1_555 1_555
H4_3 C10_3 1_555 1_555
C11_3 C8_3 1_555 1_555
O5_3 C11_3 1_555 1_555
O6_3 C11_3 1_555 1_555
C14_3 C3_3 1_555 1_555
C16_3 C14_3 1_555 1_555
H6_3 C16_3 1_555 1_555
C18_3 C16_3 1_555 1_555
H8_3 C18_3 1_555 1_555
C20_3 C18_3 1_555 1_555
C22_3 C20_3 1_555 1_555
H10_3 C22_3 1_555 1_555
C25_5 C14_3 1_555 1_555
H12_3 C25_5 1_555 1_555
C26_3 C20_3 1_555 1_555
O11_3 C26_3 1_555 1_555
O20_2 C26_3 1_555 1_555
Mn4 O5_3 1_555 1_555
Mn7 O11_3 1_555 1_555
C9_3 C10_3 1_555 1_555
O6_3 Mn4 1_555 1_555
C22_3 C25_5 1_555 1_555
O3_3 H20_3 1_555 1_555
Mn3 O10_3 1_555 1_555
O4_3 N4_3 1_555 1_555
C5_3 C2_3 1_555 1_555
C12_3 C5_3 1_555 1_555
O7_3 C13_3 1_555 1_555
O17 C13_3 1_555 1_555
C13_3 C30_3 1_555 1_555
C15_3 C12_3 1_555 1_555
H5_3 C15_3 1_555 1_555
C17_3 C15_3 1_555 1_555
H7_3 C17_3 1_555 1_555
C19_3 C17_3 1_555 1_555
C21_3 C19_3 1_555 1_555
H9_3 C21_3 1_555 1_555
C23_3 C12_3 1_555 1_555
H11_3 C23_3 1_555 1_555
C24_3 C19_3 1_555 1_555
O9_3 C24_3 1_555 1_555
O10_3 C24_3 1_555 1_555
C27_3 C2_3 1_555 1_555
C28_3 C27_3 1_555 1_555
H13_3 C28_3 1_555 1_555
C29_3 C28_3 1_555 1_555
H14_3 C29_3 1_555 1_555
C30_3 C29_3 1_555 1_555
C31_3 C30_3 1_555 1_555
H15_3 C31_3 1_555 1_555
C32_3 C27_3 1_555 1_555
H16_3 C32_3 1_555 1_555
Mn4 O7_3 1_555 1_555
Mn7 O9_3 1_555 1_555
O14_3 Mn3 1_555 1_555
O15_3 Mn3 1_555 1_555
O16_3 Mn3 1_555 1_555
N4_3 C5_3 1_555 1_555
C21_3 C23_3 1_555 1_555
C31_3 C32_3 1_555 1_555
Mn7 O14_3 1_555 1_555
C16_4 C14_4 1_555 1_555
H6_4 C16_4 1_555 1_555
C18_4 C16_4 1_555 1_555
H8_4 C18_4 1_555 1_555
C20_4 C18_4 1_555 1_555
C22_4 C20_4 1_555 1_555
H10_4 C22_4 1_555 1_555
C25_6 C14_4 1_555 1_555
C26_4 C20_4 1_555 1_555
O19_3 C26_4 1_555 1_555
O12_2 C26_4 1_555 1_555
Mn5_2 O12_2 1_555 1_555
C22_4 C25_6 1_555 1_555
O3_4 H20_4 1_555 1_555
N1_4 C1_4 1_555 1_555
C1_4 C3_4 1_555 1_555
C3_4 N3_4 1_555 1_555
C4_4 C1_4 1_555 1_555
C6_4 C4_4 1_555 1_555
H1_4 C6_4 1_555 1_555
C7_4 C6_4 1_555 1_555
H2_4 C7_4 1_555 1_555
C8_4 C7_4 1_555 1_555
C9_4 C8_4 1_555 1_555
C11_4 C8_4 1_555 1_555
O14_2 C11_4 1_555 1_555
O15_2 C11_4 1_555 1_555
O13_4 Mn8_2 1_555 1_555
O17_2 Mn8_2 1_555 1_555
O13_4 H21_4 1_555 1_555
O13_4 H22_4 1_555 1_555
C15_4 C12_4 1_555 1_555
C17_4 C15_4 1_555 1_555
H7_4 C17_4 1_555 1_555
Mn4 O10_4 1_555 1_555
C21_4 C19_4 1_555 1_555
H9_4 C21_4 1_555 1_555
H11_4 C23_4 1_555 1_555
C24_4 C19_4 1_555 1_555
O10_4 C24_4 1_555 1_555
O20_3 Mn4 1_555 1_555
C21_4 C23_4 1_555 1_555
C2_4 N2_3 1_555 1_555
O2_3 N2_3 1_555 1_555
N2_3 Ni1_3 1_555 1_555
N4_4 Ni1_3 1_555 1_555
C5_4 C2_4 1_555 1_555
C27_4 C2_4 1_555 1_555
C31_4 C30_4 1_555 1_555
H15_4 C31_4 1_555 1_555
C32_4 C27_4 1_555 1_555
H16_4 C32_4 1_555 1_555
N4_4 C5_4 1_555 1_555
C31_4 C32_4 1_555 1_555
O2_3 H17_3 1_555 1_555
O1_3 H18_3 1_555 1_555
O8_3 C13_4 1_555 1_555
H13_4 C28_4 1_555 1_555
C29_4 C28_4 1_555 1_555
H14_4 C29_4 1_555 1_555
Mn7 O8_3 1_555 1_555
O1_4 N1_5 1_555 1_555
N1_5 C1_5 1_555 1_555
C1_5 C3_5 1_555 1_555
Ni1_4 N1_5 1_555 1_555
O2_4 N2_4 1_555 1_555
N2_4 Ni1_4 1_555 1_555
N3_5 Ni1_4 1_555 1_555
C3_5 N3_5 1_555 1_555
C4_5 C1_5 1_555 1_555
C6_5 C4_5 1_555 1_555
H1_5 C6_5 1_555 1_555
C7_5 C6_5 1_555 1_555
H2_5 C7_5 1_555 1_555
C8_5 C7_5 1_555 1_555
C9_5 C8_5 1_555 1_555
H3_4 C9_5 1_555 1_555
C10_4 C4_5 1_555 1_555
H4_4 C10_4 1_555 1_555
C11_5 C8_5 1_555 1_555
O14_3 C11_5 1_555 1_555
O15_3 C11_5 1_555 1_555
H12_4 C25_8 1_555 1_555
O13_5 Mn7 1_555 1_555
C9_5 C10_4 1_555 1_555
O2_4 H17_4 1_555 1_555
O1_4 H18_4 1_555 1_555
O13_5 H21_5 1_555 1_555
O13_5 H22_5 1_555 1_555
C5_5 C2_5 1_555 1_555
O16_3 C13_5 1_555 1_555
O8_4 C13_5 1_555 1_555
C13_5 C30_5 1_555 1_555
C27_5 C2_5 1_555 1_555
C28_5 C27_5 1_555 1_555
H13_5 C28_5 1_555 1_555
C29_5 C28_5 1_555 1_555
H14_5 C29_5 1_555 1_555
C30_5 C29_5 1_555 1_555
C31_5 C30_5 1_555 1_555
H15_5 C31_5 1_555 1_555
C32_5 C27_5 1_555 1_555
H16_5 C32_5 1_555 1_555
Mn8 O8_4 1_555 1_555
N4_5 C5_5 1_555 1_555
C31_5 C32_5 1_555 1_555
C16_5 C14_5 1_555 1_555
H6_5 C16_5 1_555 1_555
C18_5 C16_5 1_555 1_555
H8_5 C18_5 1_555 1_555
C20_5 C18_5 1_555 1_555
C22_5 C20_5 1_555 1_555
H10_5 C22_5 1_555 1_555
C25_9 C14_5 1_555 1_555
C26_5 C20_5 1_555 1_555
O19 C26_5 1_555 1_555
O20_3 C26_5 1_555 1_555
C22_5 C25_9 1_555 1_555
O3_5 H20_5 1_555 1_555
Mn5 O10_5 1_555 1_555
C15_5 C12_5 1_555 1_555
C17_5 C15_5 1_555 1_555
H7_5 C17_5 1_555 1_555
C19_5 C17_5 1_555 1_555
C21_5 C19_5 1_555 1_555
H9_5 C21_5 1_555 1_555
C23_5 C12_5 1_555 1_555
H11_5 C23_5 1_555 1_555
C24_5 C19_5 1_555 1_555
O18 C24_5 1_555 1_555
O10_5 C24_5 1_555 1_555
O20_4 Mn5 1_555 1_555
C21_5 C23_5 1_555 1_555
O4_5 H19_3 1_555 1_555
Mn5_2 O10_6 1_555 1_555
O4_6 N4_6 1_555 1_555
C5_6 C2_6 1_555 1_555
C12_6 C5_6 1_555 1_555
O16 C13_6 1_555 1_555
O17_2 C13_6 1_555 1_555
C13_6 C30_6 1_555 1_555
C15_6 C12_6 1_555 1_555
H5_6 C15_6 1_555 1_555
C17_6 C15_6 1_555 1_555
H7_6 C17_6 1_555 1_555
C19_6 C17_6 1_555 1_555
C21_6 C19_6 1_555 1_555
H9_6 C21_6 1_555 1_555
C23_6 C12_6 1_555 1_555
H11_6 C23_6 1_555 1_555
C24_6 C19_6 1_555 1_555
O18_2 C24_6 1_555 1_555
O10_6 C24_6 1_555 1_555
C27_6 C2_6 1_555 1_555
C28_6 C27_6 1_555 1_555
H13_6 C28_6 1_555 1_555
C29_6 C28_6 1_555 1_555
H14_6 C29_6 1_555 1_555
C30_6 C29_6 1_555 1_555
C31_6 C30_6 1_555 1_555
H15_6 C31_6 1_555 1_555
C32_6 C27_6 1_555 1_555
H16_6 C32_6 1_555 1_555
N4_6 C5_6 1_555 1_555
C21_6 C23_6 1_555 1_555
C31_6 C32_6 1_555 1_555
N1_6 C1_6 1_555 1_555
C1_6 C3_6 1_555 1_555
C3_6 N3_6 1_555 1_555
O3_6 N3_6 1_555 1_555
C4_6 C1_6 1_555 1_555
C6_6 C4_6 1_555 1_555
H1_6 C6_6 1_555 1_555
C7_6 C6_6 1_555 1_555
H2_6 C7_6 1_555 1_555
C8_6 C7_6 1_555 1_555
C9_6 C8_6 1_555 1_555
H3_5 C9_6 1_555 1_555
C10_5 C4_6 1_555 1_555
H4_5 C10_5 1_555 1_555
C11_6 C8_6 1_555 1_555
O14 C11_6 1_555 1_555
O15 C11_6 1_555 1_555
C14_6 C3_6 1_555 1_555
C16_6 C14_6 1_555 1_555
H6_6 C16_6 1_555 1_555
C18_6 C16_6 1_555 1_555
H8_6 C18_6 1_555 1_555
C20_6 C18_6 1_555 1_555
C22_6 C20_6 1_555 1_555
H10_6 C22_6 1_555 1_555
C25_10 C14_6 1_555 1_555
H12_5 C25_10 1_555 1_555
C26_6 C20_6 1_555 1_555
O19_2 C26_6 1_555 1_555
O20_4 C26_6 1_555 1_555
O13_6 Mn8 1_555 1_555
C9_6 C10_5 1_555 1_555
C22_6 C25_10 1_555 1_555
O3_6 H20_6 1_555 1_555
O13_6 H21_6 1_555 1_555
O13_6 H22_6 1_555 1_555
O2_5 N2_5 1_555 1_555
N2_5 Ni1_5 1_555 1_555
O2_5 H17_5 1_555 1_555
O1_5 H18_5 1_555 1_555
H4_6 C10_6 1_555 1_555
O2_6 N2_6 1_555 1_555
N2_6 Ni1_6 1_555 1_555
O2_6 H17_6 1_555 1_555
O1_6 H18_6 1_555 1_555

#END
