
###############################################################################
#
# This file contains modified crystal structure data generated from the
# MOF subset of the Cambridge Structural Database (CSD) v543 
# hosted by the Cambridge Crystallographic Data Centre (CCDC).
#
# This work is licensed under the Creative Commons
# Attribution-NonCommercial-ShareAlike 4.0 International License.
# To view a copy of this license, visit
# http://creativecommons.org/licenses/by-nc-sa/4.0/
# or send a letter to
# Creative Commons, PO Box 1866, Mountain View, CA 94042, USA.
#
# CIF created using the CSD Python API on 29 September 2022
# The structure has been converted into the P1 space group
# The structure has a 3D framework
# The original CSD entry OJAYAC is in the hexagonal crystal system
# The original CSD entry OJAYAC is in a Sohncke space group
# The framework has been calculated to contain at least 10.0% void space
# The void calculation uses a probe of radius 1.32A, grid spacing 0.4
# H atom positions have been added when not included in the experimental data
#
###############################################################################

data_OJAYAC
_chemical_formula_moiety         '(C192 H132 Cd12 N24 Ni6 O81)n'
_symmetry_cell_setting           triclinic
_symmetry_space_group_name_H-M   'P 1'
_symmetry_Int_Tables_number      1
_space_group_name_Hall           'P 1'
loop_
_symmetry_equiv_pos_site_id
_symmetry_equiv_pos_as_xyz
1 x,y,z
_cell_length_a                   18.9948(8)
_cell_length_b                   18.9948(8)
_cell_length_c                   21.0109(15)
_cell_angle_alpha                90
_cell_angle_beta                 90
_cell_angle_gamma                120
_cell_volume                     6565.15
loop_
_atom_site_label
_atom_site_type_symbol
_atom_site_fract_x
_atom_site_fract_y
_atom_site_fract_z
O3 O 0.2343(6) 0.1662(6) 0.2332(6)
N1 N 0.1530(8) 0.1349(7) 0.2344(6)
C1 C 0.1231(10) 0.1809(10) 0.2409(7)
Cd1 Cd 0.42867(6) 0.69217(7) 0.21763(5)
Ni1 Ni 0.08217(14) 0.02237(15) 0.22606(15)
O4 O 0.2404(5) 0.0425(6) 0.2202(6)
N3 N 0.0047(7) 0.0559(8) 0.2347(6)
C3 C 0.0321(9) 0.1326(10) 0.2421(7)
C5 C 0.1673(11) 0.2705(10) 0.2459(8)
C6 C 0.1530(11) 0.3134(10) 0.2942(8)
H1 H 0.111524 0.284117 0.324691
C7 C 0.1974(12) 0.3961(11) 0.2979(8)
H2 H 0.184947 0.423720 0.329761
C8 C 0.2623(13) 0.4416(11) 0.2545(9)
C9 C 0.2734(14) 0.3949(12) 0.2059(10)
H3 H 0.313576 0.423126 0.174259
C10 C 0.2300(12) 0.3132(11) 0.2029(9)
H4 H 0.242145 0.284932 0.171400
C11 C 0.3124(15) 0.5290(12) 0.2599(11)
O7 O 0.3712(12) 0.5622(9) 0.2209(9)
O8 O 0.2944(9) 0.5696(8) 0.2967(7)
H9 H 0.034410 0.268082 0.195007
O15 O 0.4127(13) 0.6408(10) 0.0974(10)
Cd8 Cd 0.35447(6) 0.61769(8) 0.39375(5)
O17 O 0.3850(8) 0.7791(8) 0.2525(6)
O18 O 0.3280(7) 0.7154(6) 0.1644(6)
O21 O 0.5463(13) 0.7789(9) 0.1784(7)
O22 O 0.4948(8) 0.7177(11) 0.3122(6)
H17 H 0.255395 0.0730438 0.260964
H18 H 0.25819 0.195173 0.273781
C2 C 0.1333(9) 0.9122(9) 0.2122(7)
N2 N 0.1599(7) 0.9897(7) 0.2194(6)
C4 C 0.0431(8) 0.8672(9) 0.2096(7)
N4 N 0.0102(7) 0.9092(8) 0.2196(7)
C12 C 0.1845(9) 0.8741(9) 0.2091(7)
C13 C 0.2418(10) 0.8909(11) 0.2575(8)
H5 H 0.247661 0.927016 0.291003
C14 C 0.2912(11) 0.8541(11) 0.2566(9)
H6 H 0.330268 0.865434 0.289037
C15 C 0.2810(9) 0.8018(9) 0.2078(8)
C16 C 0.2252(9) 0.7857(9) 0.1613(7)
H7 H 0.219229 0.749220 0.128035
C17 C 0.1770(9) 0.8211(9) 0.1614(8)
H8 H 0.138474 0.808927 0.128272
C18 C 0.3356(9) 0.7639(8) 0.2082(8)
C31 C 0.0063(9) 0.7231(9) 0.2372(8)
H16 H 0.048866 0.743918 0.267697
Cd9 Cd 0.38231(8) 0.73678(6) 0.06041(5)
O5 O 0.9249(6) 0.0026(8) 0.2341(7)
C19 C 0.9771(10) 0.1642(10) 0.2538(7)
C20 C 0.9912(10) 0.2400(10) 0.2244(8)
C21 C 0.9413(10) 0.2693(11) 0.2399(8)
H10 H 0.949484 0.317944 0.220249
C22 C 0.8807(12) 0.2317(12) 0.2821(8)
C23 C 0.8643(12) 0.1581(12) 0.3103(8)
H11 H 0.821256 0.132166 0.340150
C24 C 0.9098(12) 0.1240(12) 0.2951(8)
H12 H 0.896283 0.072523 0.312301
C25 C 0.8235(12) 0.2645(13) 0.2973(9)
O11 O 0.8270(8) 0.3183(8) 0.2637(7)
O12 O 0.7789(9) 0.2326(10) 0.3451(7)
Cd5 Cd 0.69217(7) 0.26350(9) 0.38430(5)
Cd7 Cd 0.73678(6) 0.35447(6) 0.22708(5)
O1 O 0.6408(10) 0.2281(9) 0.2641(10)
O2 O 0.6273(9) 0.3717(11) 0.2126(7)
O6 O 0.9296(6) 0.8760(7) 0.2209(7)
C26 C 0.9955(9) 0.7759(9) 0.1999(7)
C27 C 0.9340(9) 0.7447(10) 0.1532(8)
H13 H 0.926495 0.780803 0.126451
C28 C 0.8852(10) 0.6629(10) 0.1465(8)
H14 H 0.842805 0.642072 0.115838
C29 C 0.8971(9) 0.6096(9) 0.1842(8)
C30 C 0.9566(8) 0.6404(9) 0.2313(7)
H15 H 0.962802 0.604540 0.259169
C32 C 0.8369(9) 0.5200(9) 0.1810(8)
O13 O 0.8506(7) 0.4739(6) 0.2160(7)
O14 O 0.7771(7) 0.4948(8) 0.1455(6)
Cd6 Cd 0.73650(9) 0.42867(6) 0.05096(5)
O16 O 0.7248(12) 0.2944(9) 0.1300(7)
O19 O 0.7154(6) 0.3874(9) 0.3311(6)
H19 H 0.60002 0.366236 0.254107
H20 H 0.645716 0.426599 0.194726
H21 H 0.912002 0.897642 0.185033
H22 H 0.911222 0.963359 0.269609
O1_2 O 0.7719(9) 0.4127(13) 0.9308(10)
O2_2 O 0.6283(11) 0.2556(14) 0.8793(7)
C2_2 C 0.0878(9) 0.2211(13) 0.8789(7)
N2_2 N 0.0103(7) 0.1702(10) 0.8861(6)
Cd2 Cd 0.64553(6) 0.38231(8) 0.89375(5)
C4_2 C 0.1328(9) 0.1759(12) 0.8763(7)
O6_2 O 0.1240(7) 0.0536(9) 0.8876(7)
N4_2 N 0.0908(8) 0.1010(11) 0.8863(7)
C12_2 C 0.1259(9) 0.3104(13) 0.8758(7)
C13_2 C 0.1091(11) 0.3509(15) 0.9242(8)
H5_2 H 0.072984 0.320645 0.957670
C14_2 C 0.1459(11) 0.4371(16) 0.9233(9)
H6_2 H 0.134566 0.464834 0.955704
C15_2 C 0.1982(9) 0.4792(13) 0.8745(8)
C16_2 C 0.2143(9) 0.4395(13) 0.8280(7)
H7_2 H 0.250780 0.470009 0.794702
C17_2 C 0.1789(9) 0.3559(13) 0.8281(8)
H8_2 H 0.191073 0.329547 0.794939
C18_2 C 0.2361(8) 0.5717(12) 0.8749(8)
O9 O 0.2209(8) 0.6059(11) 0.9192(6)
O10 O 0.2846(6) 0.6126(9) 0.8311(6)
C26_2 C 0.2241(9) 0.2196(13) 0.8666(7)
C27_2 C 0.2553(10) 0.1893(13) 0.8199(8)
H13_2 H 0.219197 0.145692 0.793118
C28_2 C 0.3371(10) 0.2223(14) 0.8132(8)
H14_2 H 0.357928 0.200733 0.782505
C29_2 C 0.3904(9) 0.2875(13) 0.8509(8)
C30_2 C 0.3596(9) 0.3162(12) 0.8980(7)
H15_2 H 0.395460 0.358262 0.925836
C31_2 C 0.2769(9) 0.2832(13) 0.9039(8)
H16_2 H 0.256082 0.304948 0.934364
C32_2 C 0.4800(9) 0.3169(13) 0.8477(8)
O13_2 O 0.5261(6) 0.3767(9) 0.8827(7)
O14_2 O 0.5052(8) 0.2823(11) 0.8122(6)
Cd3 Cd 0.30783(7) 0.73650(9) 0.88430(5)
Cd6_2 Cd 0.57133(6) 0.30783(11) 0.71763(5)
Cd9_2 Cd 0.26322(6) 0.64553(10) 0.72708(5)
O16_2 O 0.7056(9) 0.4304(15) 0.7967(7)
O19_2 O 0.6126(9) 0.3280(11) 0.9977(6)
O20 O 0.6817(8) 0.5087(11) 0.9304(7)
H19_2 H 0.633764 0.233785 0.920774
H20_2 H 0.573401 0.219117 0.861392
H21_2 H 0.102358 0.0143599 0.8517
H11_2 H 0.867834 0.689090 0.006817
O12_2 O 0.7674(10) 0.5463(13) 0.0118(7)
C1_2 C 0.8191(10) 0.9422(14) 0.9076(7)
N3_2 N 0.9441(8) 0.9488(11) 0.9014(6)
C3_2 C 0.8674(10) 0.8995(13) 0.9088(7)
O5_2 O 0.9974(8) 0.9223(10) 0.9008(7)
C5_2 C 0.7295(10) 0.8968(15) 0.9126(8)
C6_2 C 0.6866(10) 0.8396(15) 0.9609(8)
H1_2 H 0.715883 0.827407 0.991358
C7_2 C 0.6039(11) 0.8013(16) 0.9646(8)
H2_2 H 0.576280 0.761227 0.996428
C8_2 C 0.5584(11) 0.8207(17) 0.9212(9)
C9_2 C 0.6051(12) 0.8785(18) 0.8726(10)
H3_2 H 0.576874 0.890450 0.840926
C10_2 C 0.6868(11) 0.9168(16) 0.8696(9)
H4_2 H 0.715068 0.957213 0.838067
C11_2 C 0.4710(12) 0.7834(19) 0.9266(11)
O7_2 O 0.4378(9) 0.8090(15) 0.8876(9)
O8_2 O 0.4304(8) 0.7248(12) 0.9634(7)
C19_2 C 0.8358(10) 0.8129(14) 0.9205(7)
C20_2 C 0.7600(10) 0.7512(14) 0.8911(8)
H9_2 H 0.731918 0.766328 0.861674
C21_2 C 0.7307(11) 0.6720(15) 0.9066(8)
H10_2 H 0.682056 0.631540 0.886916
C22_2 C 0.7683(12) 0.6490(17) 0.9488(8)
C23_2 C 0.8419(12) 0.7062(17) 0.9770(8)
C24_2 C 0.8760(12) 0.7858(17) 0.9618(8)
H12_2 H 0.927477 0.823760 0.978968
C25_2 C 0.7355(13) 0.5590(18) 0.9640(9)
O15_2 O 0.3592(10) 0.7719(16) 0.7641(10)
O21_2 O 0.2211(9) 0.7674(16) 0.8451(7)
O22_2 O 0.2823(11) 0.7771(14) 0.9788(6)
O5_3 O 0.0777(10) 0.0751(6) 0.5674(7)
C19_3 C 0.1871(14) 0.0229(10) 0.5871(7)
C20_3 C 0.2488(14) 0.0088(10) 0.5577(8)
C21_3 C 0.3280(15) 0.0587(10) 0.5732(8)
H10_3 H 0.368460 0.050516 0.553582
C22_3 C 0.3510(17) 0.1193(12) 0.6154(8)
C23_3 C 0.2938(17) 0.1357(12) 0.6436(8)
H11_3 H 0.310910 0.178744 0.673483
C24_3 C 0.2142(17) 0.0902(12) 0.6284(8)
H12_3 H 0.176240 0.103717 0.645634
C25_3 C 0.4410(18) 0.1765(12) 0.6306(9)
O11_2 O 0.4913(11) 0.1730(8) 0.5970(7)
O12_3 O 0.4537(13) 0.2211(9) 0.6784(7)
Cd7_2 Cd 0.61769(8) 0.26322(6) 0.56041(5)
H22_2 H 0.0521369 0.0887782 0.602942
C1_3 C 0.0578(14) 0.8769(10) 0.5742(7)
Cd1_2 Cd 0.26350(9) 0.57133(6) 0.55096(5)
N3_3 N 0.0512(11) 0.9953(7) 0.5680(6)
C3_3 C 0.1005(13) 0.9679(9) 0.5754(7)
C5_3 C 0.1032(15) 0.8327(11) 0.5792(8)
C6_3 C 0.1604(15) 0.8470(11) 0.6275(8)
H1_3 H 0.172593 0.888476 0.658024
C7_3 C 0.1987(16) 0.8026(12) 0.6312(8)
H2_3 H 0.238773 0.815053 0.663094
C8_3 C 0.1793(17) 0.7377(13) 0.5878(9)
C9_3 C 0.1215(18) 0.7266(14) 0.5392(10)
H3_3 H 0.109550 0.686424 0.507592
C10_3 C 0.0832(16) 0.7700(12) 0.5362(9)
H4_3 H 0.042787 0.757855 0.504733
C11_3 C 0.2166(19) 0.6876(15) 0.5932(11)
O7_3 O 0.1910(15) 0.6288(12) 0.5542(9)
O8_3 O 0.2752(12) 0.7056(9) 0.6300(7)
H9_3 H 0.233672 0.965590 0.528340
O15_3 O 0.2281(16) 0.5873(13) 0.4308(10)
O17_2 O 0.3941(11) 0.6150(8) 0.5858(6)
O18_2 O 0.3874(9) 0.6720(7) 0.4977(6)
O21_3 O 0.2326(16) 0.4537(13) 0.5118(7)
O22_3 O 0.2229(14) 0.5052(8) 0.6455(6)
O1_3 O 0.5873(13) 0.3592(10) 0.5974(10)
O2_3 O 0.7444(14) 0.3727(9) 0.5459(7)
O6_3 O 0.9464(9) 0.0704(6) 0.5542(7)
C26_3 C 0.7804(13) 0.0045(9) 0.5332(7)
C27_3 C 0.8107(13) 0.0660(9) 0.4865(8)
H13_3 H 0.854308 0.073505 0.459784
C28_3 C 0.7777(14) 0.1148(10) 0.4798(8)
H14_3 H 0.799267 0.157195 0.449171
C29_3 C 0.7125(13) 0.1029(9) 0.5175(8)
C30_3 C 0.6838(12) 0.0434(8) 0.5646(7)
H15_3 H 0.641738 0.037198 0.592502
C32_3 C 0.6831(13) 0.1631(9) 0.5143(8)
O13_3 O 0.6233(9) 0.1494(7) 0.5493(7)
O14_3 O 0.7177(11) 0.2229(7) 0.4788(6)
O16_3 O 0.5696(15) 0.2752(12) 0.4634(7)
O19_3 O 0.6720(11) 0.2846(6) 0.6644(6)
H19_3 H 0.766215 0.39998 0.58744
H20_3 H 0.780883 0.354284 0.528059
H21_3 H 0.98564 0.0879981 0.518367
O3_2 O 0.9319(8) 0.7657(6) 0.5665(6)
N1_2 N 0.9819(11) 0.8470(8) 0.5677(6)
Ni1_2 Ni 0.94020(21) 0.91783(14) 0.55939(15)
O4_2 O 0.8021(8) 0.7596(5) 0.5535(6)
C2_3 C 0.7789(13) 0.8667(9) 0.5455(7)
N2_3 N 0.8298(10) 0.8401(7) 0.5527(6)
C4_3 C 0.8241(12) 0.9569(8) 0.5429(7)
N4_3 N 0.8990(11) 0.9898(7) 0.5529(7)
C12_3 C 0.6896(13) 0.8155(9) 0.5424(7)
C13_3 C 0.6491(15) 0.7582(10) 0.5908(8)
H5_3 H 0.679355 0.752339 0.624336
C14_3 C 0.5629(16) 0.7088(11) 0.5899(9)
H6_3 H 0.535166 0.669732 0.622370
C15_3 C 0.5208(13) 0.7190(9) 0.5411(8)
C16_3 C 0.5605(13) 0.7748(9) 0.4946(7)
H7_3 H 0.529991 0.780771 0.461368
C17_3 C 0.6441(13) 0.8230(9) 0.4947(8)
H8_3 H 0.670453 0.861526 0.461605
C18_3 C 0.4283(12) 0.6644(9) 0.5415(8)
C31_3 C 0.7168(13) 0.9937(9) 0.5705(8)
H16_3 H 0.695052 0.951134 0.601030
H17_2 H 0.817649 0.744605 0.594297
H18_2 H 0.936983 0.74181 0.607114
O2_4 O 0.3727(9) 0.6283(11) 0.7126(7)
O6_4 O 0.0704(6) 0.1240(7) 0.7209(7)
C26_4 C 0.0045(9) 0.2241(9) 0.6999(7)
C27_4 C 0.0660(9) 0.2553(10) 0.6532(8)
H13_4 H 0.073505 0.219197 0.626451
C28_4 C 0.1148(10) 0.3371(10) 0.6465(8)
H14_4 H 0.157195 0.357928 0.615838
C29_4 C 0.1029(9) 0.3904(9) 0.6842(8)
C30_4 C 0.0434(8) 0.3596(9) 0.7313(7)
H15_4 H 0.037198 0.395460 0.759169
C32_4 C 0.1631(9) 0.4800(9) 0.6810(8)
O13_4 O 0.1494(7) 0.5261(6) 0.7160(7)
O20_2 O 0.1730(8) 0.6817(8) 0.7637(7)
H19_4 H 0.39998 0.633764 0.754107
H20_4 H 0.354284 0.573401 0.694726
H21_4 H 0.0879981 0.102358 0.685033
H22_3 H 0.0887782 0.0366413 0.769609
O5_4 O 0.0751(6) 0.9974(8) 0.7341(7)
C19_4 C 0.0229(10) 0.8358(10) 0.7538(7)
C20_4 C 0.0088(10) 0.7600(10) 0.7244(8)
C21_4 C 0.0587(10) 0.7307(11) 0.7399(8)
H10_4 H 0.050516 0.682056 0.720249
C22_4 C 0.1193(12) 0.7683(12) 0.7821(8)
C23_4 C 0.1357(12) 0.8419(12) 0.8103(8)
H11_4 H 0.178744 0.867834 0.840150
C24_4 C 0.0902(12) 0.8760(12) 0.7951(8)
H12_4 H 0.103717 0.927477 0.812301
C25_4 C 0.1765(12) 0.7355(13) 0.7973(9)
C2_4 C 0.8667(9) 0.0878(9) 0.7122(7)
N2_4 N 0.8401(7) 0.0103(7) 0.7194(6)
C4_4 C 0.9569(8) 0.1328(9) 0.7096(7)
N4_4 N 0.9898(7) 0.0908(8) 0.7196(7)
C12_4 C 0.8155(9) 0.1259(9) 0.7091(7)
C13_4 C 0.7582(10) 0.1091(11) 0.7575(8)
H5_4 H 0.752339 0.072984 0.791003
C14_4 C 0.7088(11) 0.1459(11) 0.7566(9)
H6_4 H 0.669732 0.134566 0.789037
C15_4 C 0.7190(9) 0.1982(9) 0.7078(8)
C16_4 C 0.7748(9) 0.2143(9) 0.6613(7)
H7_4 H 0.780771 0.250780 0.628035
C17_4 C 0.8230(9) 0.1789(9) 0.6614(8)
H8_4 H 0.861526 0.191073 0.628272
C18_4 C 0.6644(9) 0.2361(8) 0.7082(8)
O9_2 O 0.6150(8) 0.2209(8) 0.7525(6)
C31_4 C 0.9937(9) 0.2769(9) 0.7372(8)
H16_4 H 0.951134 0.256082 0.767697
O3_3 O 0.7657(6) 0.8338(6) 0.7332(6)
N1_3 N 0.8470(8) 0.8651(7) 0.7344(6)
C1_4 C 0.8769(10) 0.8191(10) 0.7409(7)
Ni1_3 Ni 0.91783(14) 0.97763(15) 0.72606(15)
O4_3 O 0.7596(5) 0.9575(6) 0.7202(6)
N3_4 N 0.9953(7) 0.9441(8) 0.7347(6)
C3_4 C 0.9679(9) 0.8674(10) 0.7421(7)
C5_4 C 0.8327(11) 0.7295(10) 0.7459(8)
C6_4 C 0.8470(11) 0.6866(10) 0.7942(8)
H1_4 H 0.888476 0.715883 0.824691
C7_4 C 0.8026(12) 0.6039(11) 0.7979(8)
H2_4 H 0.815053 0.576280 0.829761
C8_4 C 0.7377(13) 0.5584(11) 0.7545(9)
C9_4 C 0.7266(14) 0.6051(12) 0.7059(10)
H3_4 H 0.686424 0.576874 0.674259
C10_4 C 0.7700(12) 0.6868(11) 0.7029(9)
H4_4 H 0.757855 0.715068 0.671400
C11_4 C 0.6876(15) 0.4710(12) 0.7599(11)
O7_4 O 0.6288(12) 0.4378(9) 0.7209(9)
H9_4 H 0.965590 0.731918 0.695007
H17_3 H 0.744605 0.926956 0.760964
H18_3 H 0.74181 0.804827 0.773781
C1_5 C 0.1809(10) 0.0578(14) 0.4076(7)
N3_5 N 0.0559(8) 0.0512(11) 0.4014(6)
C3_5 C 0.1326(10) 0.1005(13) 0.4088(7)
O5_5 O 0.0026(8) 0.0777(10) 0.4008(7)
C5_5 C 0.2705(10) 0.1032(15) 0.4126(8)
C6_5 C 0.3134(10) 0.1604(15) 0.4609(8)
H1_5 H 0.284117 0.172593 0.491358
C7_5 C 0.3961(11) 0.1987(16) 0.4646(8)
H2_5 H 0.423720 0.238773 0.496428
C8_5 C 0.4416(11) 0.1793(17) 0.4212(9)
C9_5 C 0.3949(12) 0.1215(18) 0.3726(10)
H3_5 H 0.423126 0.109550 0.340926
C10_5 C 0.3132(11) 0.0832(16) 0.3696(9)
H4_5 H 0.284932 0.042787 0.338067
C11_5 C 0.5290(12) 0.2166(19) 0.4266(11)
O7_5 O 0.5622(9) 0.1910(15) 0.3876(9)
C19_5 C 0.1642(10) 0.1871(14) 0.4205(7)
C20_5 C 0.2400(10) 0.2488(14) 0.3911(8)
H9_5 H 0.268082 0.233672 0.361674
C21_5 C 0.2693(11) 0.3280(15) 0.4066(8)
H10_5 H 0.317944 0.368460 0.386916
C22_5 C 0.2317(12) 0.3510(17) 0.4488(8)
C23_5 C 0.1581(12) 0.2938(17) 0.4770(8)
H11_5 H 0.132166 0.310910 0.506817
C24_5 C 0.1240(12) 0.2142(17) 0.4618(8)
H12_5 H 0.072523 0.176240 0.478968
C25_5 C 0.2645(13) 0.4410(18) 0.4640(9)
O11_3 O 0.3183(8) 0.4913(11) 0.4304(7)
O17_3 O 0.7791(8) 0.3941(11) 0.4192(6)
O2_5 O 0.3717(11) 0.7444(14) 0.3793(7)
C2_5 C 0.9122(9) 0.7789(13) 0.3789(7)
N2_5 N 0.9897(7) 0.8298(10) 0.3861(6)
C4_5 C 0.8672(9) 0.8241(12) 0.3763(7)
O6_5 O 0.8760(7) 0.9464(9) 0.3876(7)
N4_5 N 0.9092(8) 0.8990(11) 0.3863(7)
C12_5 C 0.8741(9) 0.6896(13) 0.3758(7)
C13_5 C 0.8909(11) 0.6491(15) 0.4242(8)
H5_5 H 0.927016 0.679355 0.457670
C14_5 C 0.8541(11) 0.5629(16) 0.4233(9)
H6_5 H 0.865434 0.535166 0.455704
C15_5 C 0.8018(9) 0.5208(13) 0.3745(8)
C16_5 C 0.7857(9) 0.5605(13) 0.3280(7)
H7_5 H 0.749220 0.529991 0.294702
C17_5 C 0.8211(9) 0.6441(13) 0.3281(8)
H8_5 H 0.808927 0.670453 0.294939
C18_5 C 0.7639(8) 0.4283(12) 0.3749(8)
C26_5 C 0.7759(9) 0.7804(13) 0.3666(7)
C27_5 C 0.7447(10) 0.8107(13) 0.3199(8)
H13_5 H 0.780803 0.854308 0.293118
C28_5 C 0.6629(10) 0.7777(14) 0.3132(8)
H14_5 H 0.642072 0.799267 0.282505
C29_5 C 0.6096(9) 0.7125(13) 0.3509(8)
C30_5 C 0.6404(9) 0.6838(12) 0.3980(7)
H15_5 H 0.604540 0.641738 0.425836
C31_5 C 0.7231(9) 0.7168(13) 0.4039(8)
H16_5 H 0.743918 0.695052 0.434364
C32_5 C 0.5200(9) 0.6831(13) 0.3477(8)
O13_5 O 0.4739(6) 0.6233(9) 0.3827(7)
H19_5 H 0.366236 0.766215 0.420774
H20_5 H 0.426599 0.780883 0.361392
H21_5 H 0.897642 0.98564 0.3517
O3_4 O 0.0681(8) 0.2343(6) 0.0665(6)
N1_4 N 0.0181(11) 0.1530(8) 0.0677(6)
Ni1_4 Ni 0.05980(21) 0.08217(14) 0.05939(15)
O4_4 O 0.1979(8) 0.2404(5) 0.0535(6)
C2_6 C 0.2211(13) 0.1333(9) 0.0455(7)
N2_6 N 0.1702(10) 0.1599(7) 0.0527(6)
C4_6 C 0.1759(12) 0.0431(8) 0.0429(7)
N4_6 N 0.1010(11) 0.0102(7) 0.0529(7)
C12_6 C 0.3104(13) 0.1845(9) 0.0424(7)
C13_6 C 0.3509(15) 0.2418(10) 0.0908(8)
H5_6 H 0.320645 0.247661 0.124336
C14_6 C 0.4371(16) 0.2912(11) 0.0899(9)
H6_6 H 0.464834 0.330268 0.122370
C15_6 C 0.4792(13) 0.2810(9) 0.0411(8)
C18_6 C 0.5717(12) 0.3356(9) 0.0415(8)
O9_3 O 0.6059(11) 0.3850(8) 0.0858(6)
C31_6 C 0.2832(13) 0.0063(9) 0.0705(8)
H16_6 H 0.304948 0.048866 0.101030
H17_4 H 0.182351 0.255395 0.0942973
H18_4 H 0.0630168 0.25819 0.107114
C16_6 C 0.4395(13) 0.2252(9) 0.9946(7)
H7_6 H 0.470009 0.219229 0.961368
C17_6 C 0.3559(13) 0.1770(9) 0.9947(8)
H8_6 H 0.329547 0.138474 0.961605
O2_6 O 0.2556(14) 0.6273(9) 0.0459(7)
O6_6 O 0.0536(9) 0.9296(6) 0.0542(7)
C26_6 C 0.2196(13) 0.9955(9) 0.0332(7)
C29_6 C 0.2875(13) 0.8971(9) 0.0175(8)
C30_6 C 0.3162(12) 0.9566(8) 0.0646(7)
H15_6 H 0.358262 0.962802 0.092502
C32_6 C 0.3169(13) 0.8369(9) 0.0143(8)
O13_6 O 0.3767(9) 0.8506(7) 0.0493(7)
O20_3 O 0.5087(11) 0.8270(8) 0.0970(7)
H19_6 H 0.233785 0.60002 0.0874403
H20_6 H 0.219117 0.645716 0.0280591
H21_6 H 0.0143599 0.912002 0.0183665
C27_6 C 0.1893(13) 0.9340(9) 0.9865(8)
H13_6 H 0.145692 0.926495 0.959784
C28_6 C 0.2223(14) 0.8852(10) 0.9798(8)
H14_6 H 0.200733 0.842805 0.949171
C1_6 C 0.9422(14) 0.1231(10) 0.0742(7)
N3_6 N 0.9488(11) 0.0047(7) 0.0680(6)
C3_6 C 0.8995(13) 0.0321(9) 0.0754(7)
C5_6 C 0.8968(15) 0.1673(11) 0.0792(8)
C6_6 C 0.8396(15) 0.1530(11) 0.1275(8)
H1_6 H 0.827407 0.111524 0.158024
C7_6 C 0.8013(16) 0.1974(12) 0.1312(8)
H2_6 H 0.761227 0.184947 0.163094
C8_6 C 0.8207(17) 0.2623(13) 0.0878(9)
C9_6 C 0.8785(18) 0.2734(14) 0.0392(10)
H3_6 H 0.890450 0.313576 0.007592
C10_6 C 0.9168(16) 0.2300(12) 0.0362(9)
H4_6 H 0.957213 0.242145 0.004733
C11_6 C 0.7834(19) 0.3124(15) 0.0932(11)
O7_6 O 0.8090(15) 0.3712(12) 0.0542(9)
H9_6 H 0.766328 0.034410 0.028340
O5_6 O 0.9223(10) 0.9249(6) 0.0674(7)
C19_6 C 0.8129(14) 0.9771(10) 0.0871(7)
C20_6 C 0.7512(14) 0.9912(10) 0.0577(8)
C21_6 C 0.6720(15) 0.9413(10) 0.0732(8)
H10_6 H 0.631540 0.949484 0.053582
C22_6 C 0.6490(17) 0.8807(12) 0.1154(8)
C23_6 C 0.7062(17) 0.8643(12) 0.1436(8)
H11_6 H 0.689090 0.821256 0.173483
C24_6 C 0.7858(17) 0.9098(12) 0.1284(8)
H12_6 H 0.823760 0.896283 0.145634
C25_6 C 0.5590(18) 0.8235(12) 0.1306(9)
H22_4 H 0.947863 0.911222 0.102942
H22_5 H 0.0366413 0.947863 0.936275
O3_5 O 0.8338(6) 0.0681(8) 0.8999(6)
N1_5 N 0.8651(7) 0.0181(11) 0.9011(6)
Ni1_5 Ni 0.97763(15) 0.05980(21) 0.89273(15)
O4_5 O 0.9575(6) 0.1979(8) 0.8869(6)
H17_5 H 0.926956 0.182351 0.927631
H18_5 H 0.804827 0.0630168 0.940447
O3_6 O 0.1662(6) 0.9319(8) 0.3999(6)
N1_6 N 0.1349(7) 0.9819(11) 0.4011(6)
Ni1_6 Ni 0.02237(15) 0.94020(21) 0.39273(15)
O4_6 O 0.0425(6) 0.8021(8) 0.3869(6)
H17_6 H 0.0730438 0.817649 0.427631
H18_6 H 0.195173 0.936983 0.440447
H22_6 H 0.963359 0.0521369 0.436275
loop_
_geom_bond_atom_site_label_1
_geom_bond_atom_site_label_2
_geom_bond_site_symmetry_1
_geom_bond_site_symmetry_2
O3 N1 1_555 1_555
N1 C1 1_555 1_555
C1 C3 1_555 1_555
Cd1 O7 1_555 1_555
Ni1 N1 1_555 1_555
N3 Ni1 1_555 1_555
C3 N3 1_555 1_555
C5 C1 1_555 1_555
C6 C5 1_555 1_555
H1 C6 1_555 1_555
C7 C6 1_555 1_555
H2 C7 1_555 1_555
C8 C7 1_555 1_555
C9 C8 1_555 1_555
H3 C9 1_555 1_555
C10 C5 1_555 1_555
H4 C10 1_555 1_555
C11 C8 1_555 1_555
O7 C11 1_555 1_555
O8 C11 1_555 1_555
O15 Cd1 1_555 1_555
Cd8 O8 1_555 1_555
O17 Cd1 1_555 1_555
O18 Cd1 1_555 1_555
O21 Cd1 1_555 1_555
O22 Cd1 1_555 1_555
C9 C10 1_555 1_555
O4 H17 1_555 1_555
O3 H18 1_555 1_555
C2 N2 1_555 1_555
C4 C2 1_555 1_555
C12 C2 1_555 1_555
C13 C12 1_555 1_555
H5 C13 1_555 1_555
C14 C13 1_555 1_555
H6 C14 1_555 1_555
C15 C14 1_555 1_555
C16 C15 1_555 1_555
H7 C16 1_555 1_555
C17 C12 1_555 1_555
H8 C17 1_555 1_555
C18 C15 1_555 1_555
O17 C18 1_555 1_555
O18 C18 1_555 1_555
H16 C31 1_555 1_555
Cd9 O18 1_555 1_555
C4 N4 1_555 1_555
C16 C17 1_555 1_555
C20 C19 1_555 1_555
C21 C20 1_555 1_555
H10 C21 1_555 1_555
C22 C21 1_555 1_555
C23 C22 1_555 1_555
H11 C23 1_555 1_555
C24 C19 1_555 1_555
H12 C24 1_555 1_555
C25 C22 1_555 1_555
O11 C25 1_555 1_555
O12 C25 1_555 1_555
Cd5 O12 1_555 1_555
Cd7 O11 1_555 1_555
C23 C24 1_555 1_555
O1 Cd7 1_555 1_555
O2 Cd7 1_555 1_555
Cd7 O13 1_555 1_555
C27 C26 1_555 1_555
H13 C27 1_555 1_555
C28 C27 1_555 1_555
H14 C28 1_555 1_555
C29 C28 1_555 1_555
C30 C29 1_555 1_555
H15 C30 1_555 1_555
C32 C29 1_555 1_555
O13 C32 1_555 1_555
O14 C32 1_555 1_555
Cd5 O1 1_555 1_555
Cd6 O14 1_555 1_555
O16 Cd7 1_555 1_555
O19 Cd7 1_555 1_555
Cd5 O19 1_555 1_555
O2 H19 1_555 1_555
O2 H20 1_555 1_555
O6 H21 1_555 1_555
O1_2 Cd2 1_555 1_555
O2_2 Cd2 1_555 1_555
C2_2 N2_2 1_555 1_555
Cd2 O13_2 1_555 1_555
C4_2 C2_2 1_555 1_555
O6_2 N4_2 1_555 1_555
C12_2 C2_2 1_555 1_555
C13_2 C12_2 1_555 1_555
H5_2 C13_2 1_555 1_555
C14_2 C13_2 1_555 1_555
H6_2 C14_2 1_555 1_555
C15_2 C14_2 1_555 1_555
C16_2 C15_2 1_555 1_555
H7_2 C16_2 1_555 1_555
C17_2 C12_2 1_555 1_555
H8_2 C17_2 1_555 1_555
C18_2 C15_2 1_555 1_555
O9 C18_2 1_555 1_555
O10 C18_2 1_555 1_555
C26_2 C4_2 1_555 1_555
C27_2 C26_2 1_555 1_555
H13_2 C27_2 1_555 1_555
C28_2 C27_2 1_555 1_555
H14_2 C28_2 1_555 1_555
C29_2 C28_2 1_555 1_555
C30_2 C29_2 1_555 1_555
H15_2 C30_2 1_555 1_555
C31_2 C26_2 1_555 1_555
H16_2 C31_2 1_555 1_555
C32_2 C29_2 1_555 1_555
O13_2 C32_2 1_555 1_555
O14_2 C32_2 1_555 1_555
Cd3 O9 1_555 1_555
Cd6_2 O14_2 1_555 1_555
Cd9_2 O10 1_555 1_555
O16_2 Cd2 1_555 1_555
O19_2 Cd2 1_555 1_555
O20 Cd2 1_555 1_555
C4_2 N4_2 1_555 1_555
C16_2 C17_2 1_555 1_555
O10 Cd3 1_555 1_555
C30_2 C31_2 1_555 1_555
O2_2 H19_2 1_555 1_555
O2_2 H20_2 1_555 1_555
O6_2 H21_2 1_555 1_555
Cd6 O12_2 1_555 1_555
C1_2 C3_2 1_555 1_555
Cd3 O7_2 1_555 1_555
C3_2 N3_2 1_555 1_555
O5_2 N3_2 1_555 1_555
C5_2 C1_2 1_555 1_555
C6_2 C5_2 1_555 1_555
H1_2 C6_2 1_555 1_555
C7_2 C6_2 1_555 1_555
H2_2 C7_2 1_555 1_555
C8_2 C7_2 1_555 1_555
C9_2 C8_2 1_555 1_555
H3_2 C9_2 1_555 1_555
C10_2 C5_2 1_555 1_555
H4_2 C10_2 1_555 1_555
C11_2 C8_2 1_555 1_555
O7_2 C11_2 1_555 1_555
O8_2 C11_2 1_555 1_555
C19_2 C3_2 1_555 1_555
C20_2 C19_2 1_555 1_555
H9_2 C20_2 1_555 1_555
C21_2 C20_2 1_555 1_555
H10_2 C21_2 1_555 1_555
C22_2 C21_2 1_555 1_555
C23_2 C22_2 1_555 1_555
C24_2 C19_2 1_555 1_555
H12_2 C24_2 1_555 1_555
C25_2 C22_2 1_555 1_555
O20 C25_2 1_555 1_555
O15_2 Cd3 1_555 1_555
O21_2 Cd3 1_555 1_555
O22_2 Cd3 1_555 1_555
C9_2 C10_2 1_555 1_555
C23_2 C24_2 1_555 1_555
C20_3 C19_3 1_555 1_555
C21_3 C20_3 1_555 1_555
H10_3 C21_3 1_555 1_555
C22_3 C21_3 1_555 1_555
C23_3 C22_3 1_555 1_555
H11_3 C23_3 1_555 1_555
C24_3 C19_3 1_555 1_555
H12_3 C24_3 1_555 1_555
C25_3 C22_3 1_555 1_555
O11_2 C25_3 1_555 1_555
O12_3 C25_3 1_555 1_555
Cd6_2 O12_3 1_555 1_555
Cd7_2 O11_2 1_555 1_555
C23_3 C24_3 1_555 1_555
O5_3 H22_2 1_555 1_555
C1_3 C3_3 1_555 1_555
Cd1_2 O7_3 1_555 1_555
C3_3 N3_3 1_555 1_555
C5_3 C1_3 1_555 1_555
C6_3 C5_3 1_555 1_555
H1_3 C6_3 1_555 1_555
C7_3 C6_3 1_555 1_555
H2_3 C7_3 1_555 1_555
C8_3 C7_3 1_555 1_555
C9_3 C8_3 1_555 1_555
H3_3 C9_3 1_555 1_555
C10_3 C5_3 1_555 1_555
H4_3 C10_3 1_555 1_555
C11_3 C8_3 1_555 1_555
O7_3 C11_3 1_555 1_555
O8_3 C11_3 1_555 1_555
O15_3 Cd1_2 1_555 1_555
Cd9_2 O8_3 1_555 1_555
O17_2 Cd1_2 1_555 1_555
O18_2 Cd1_2 1_555 1_555
O21_3 Cd1_2 1_555 1_555
O22_3 Cd1_2 1_555 1_555
C9_3 C10_3 1_555 1_555
O1_3 Cd7_2 1_555 1_555
O2_3 Cd7_2 1_555 1_555
Cd7_2 O13_3 1_555 1_555
C27_3 C26_3 1_555 1_555
H13_3 C27_3 1_555 1_555
C28_3 C27_3 1_555 1_555
H14_3 C28_3 1_555 1_555
C29_3 C28_3 1_555 1_555
C30_3 C29_3 1_555 1_555
H15_3 C30_3 1_555 1_555
C32_3 C29_3 1_555 1_555
O13_3 C32_3 1_555 1_555
O14_3 C32_3 1_555 1_555
Cd6_2 O1_3 1_555 1_555
Cd5 O14_3 1_555 1_555
O16_3 Cd7_2 1_555 1_555
O19_3 Cd7_2 1_555 1_555
Cd6_2 O19_3 1_555 1_555
O2_3 H19_3 1_555 1_555
O2_3 H20_3 1_555 1_555
O6_3 H21_3 1_555 1_555
O3_2 N1_2 1_555 1_555
Ni1_2 N1_2 1_555 1_555
O4_2 N2_3 1_555 1_555
C2_3 N2_3 1_555 1_555
N2_3 Ni1_2 1_555 1_555
C4_3 C2_3 1_555 1_555
N4_3 Ni1_2 1_555 1_555
C12_3 C2_3 1_555 1_555
C13_3 C12_3 1_555 1_555
H5_3 C13_3 1_555 1_555
C14_3 C13_3 1_555 1_555
H6_3 C14_3 1_555 1_555
C15_3 C14_3 1_555 1_555
C16_3 C15_3 1_555 1_555
H7_3 C16_3 1_555 1_555
C17_3 C12_3 1_555 1_555
H8_3 C17_3 1_555 1_555
C18_3 C15_3 1_555 1_555
O17_2 C18_3 1_555 1_555
O18_2 C18_3 1_555 1_555
H16_3 C31_3 1_555 1_555
Cd8 O18_2 1_555 1_555
C4_3 N4_3 1_555 1_555
C16_3 C17_3 1_555 1_555
O4_2 H17_2 1_555 1_555
O3_2 H18_2 1_555 1_555
O15_2 Cd9_2 1_555 1_555
O2_4 Cd9_2 1_555 1_555
Cd9_2 O13_4 1_555 1_555
C27_4 C26_4 1_555 1_555
H13_4 C27_4 1_555 1_555
C28_4 C27_4 1_555 1_555
H14_4 C28_4 1_555 1_555
C29_4 C28_4 1_555 1_555
C30_4 C29_4 1_555 1_555
H15_4 C30_4 1_555 1_555
C32_4 C29_4 1_555 1_555
O13_4 C32_4 1_555 1_555
O22_3 C32_4 1_555 1_555
O20_2 Cd9_2 1_555 1_555
O2_4 H19_4 1_555 1_555
O2_4 H20_4 1_555 1_555
O6_4 H21_4 1_555 1_555
C20_4 C19_4 1_555 1_555
C21_4 C20_4 1_555 1_555
H10_4 C21_4 1_555 1_555
C22_4 C21_4 1_555 1_555
C23_4 C22_4 1_555 1_555
H11_4 C23_4 1_555 1_555
C24_4 C19_4 1_555 1_555
H12_4 C24_4 1_555 1_555
C25_4 C22_4 1_555 1_555
O20_2 C25_4 1_555 1_555
O21_2 C25_4 1_555 1_555
C23_4 C24_4 1_555 1_555
C2_4 N2_4 1_555 1_555
C4_4 C2_4 1_555 1_555
C12_4 C2_4 1_555 1_555
C13_4 C12_4 1_555 1_555
H5_4 C13_4 1_555 1_555
C14_4 C13_4 1_555 1_555
H6_4 C14_4 1_555 1_555
C15_4 C14_4 1_555 1_555
C16_4 C15_4 1_555 1_555
H7_4 C16_4 1_555 1_555
C17_4 C12_4 1_555 1_555
H8_4 C17_4 1_555 1_555
C18_4 C15_4 1_555 1_555
O9_2 C18_4 1_555 1_555
O19_3 C18_4 1_555 1_555
H16_4 C31_4 1_555 1_555
Cd6_2 O9_2 1_555 1_555
C4_4 N4_4 1_555 1_555
C16_4 C17_4 1_555 1_555
O3_3 N1_3 1_555 1_555
N1_3 C1_4 1_555 1_555
C1_4 C3_4 1_555 1_555
Cd6_2 O7_4 1_555 1_555
Ni1_3 N1_3 1_555 1_555
N3_4 Ni1_3 1_555 1_555
C3_4 N3_4 1_555 1_555
C5_4 C1_4 1_555 1_555
C6_4 C5_4 1_555 1_555
H1_4 C6_4 1_555 1_555
C7_4 C6_4 1_555 1_555
H2_4 C7_4 1_555 1_555
C8_4 C7_4 1_555 1_555
C9_4 C8_4 1_555 1_555
H3_4 C9_4 1_555 1_555
C10_4 C5_4 1_555 1_555
H4_4 C10_4 1_555 1_555
C11_4 C8_4 1_555 1_555
O7_4 C11_4 1_555 1_555
O16_2 C11_4 1_555 1_555
C9_4 C10_4 1_555 1_555
O4_3 H17_3 1_555 1_555
O3_3 H18_3 1_555 1_555
C1_5 C3_5 1_555 1_555
Cd5 O7_5 1_555 1_555
C3_5 N3_5 1_555 1_555
O5_5 N3_5 1_555 1_555
C5_5 C1_5 1_555 1_555
C6_5 C5_5 1_555 1_555
H1_5 C6_5 1_555 1_555
C7_5 C6_5 1_555 1_555
H2_5 C7_5 1_555 1_555
C8_5 C7_5 1_555 1_555
C9_5 C8_5 1_555 1_555
H3_5 C9_5 1_555 1_555
C10_5 C5_5 1_555 1_555
H4_5 C10_5 1_555 1_555
C11_5 C8_5 1_555 1_555
O7_5 C11_5 1_555 1_555
O16_3 C11_5 1_555 1_555
C19_5 C3_5 1_555 1_555
C20_5 C19_5 1_555 1_555
H9_5 C20_5 1_555 1_555
C21_5 C20_5 1_555 1_555
H10_5 C21_5 1_555 1_555
C22_5 C21_5 1_555 1_555
C23_5 C22_5 1_555 1_555
H11_5 C23_5 1_555 1_555
C24_5 C19_5 1_555 1_555
H12_5 C24_5 1_555 1_555
C25_5 C22_5 1_555 1_555
O11_3 C25_5 1_555 1_555
O21_3 C25_5 1_555 1_555
Cd8 O11_3 1_555 1_555
O17_3 Cd5 1_555 1_555
C9_5 C10_5 1_555 1_555
C23_5 C24_5 1_555 1_555
O15_3 Cd8 1_555 1_555
O2_5 Cd8 1_555 1_555
C2_5 N2_5 1_555 1_555
Cd8 O13_5 1_555 1_555
C4_5 C2_5 1_555 1_555
O6_5 N4_5 1_555 1_555
C12_5 C2_5 1_555 1_555
C13_5 C12_5 1_555 1_555
H5_5 C13_5 1_555 1_555
C14_5 C13_5 1_555 1_555
H6_5 C14_5 1_555 1_555
C15_5 C14_5 1_555 1_555
C16_5 C15_5 1_555 1_555
H7_5 C16_5 1_555 1_555
C17_5 C12_5 1_555 1_555
H8_5 C17_5 1_555 1_555
C18_5 C15_5 1_555 1_555
O17_3 C18_5 1_555 1_555
O19 C18_5 1_555 1_555
C26_5 C4_5 1_555 1_555
C27_5 C26_5 1_555 1_555
H13_5 C27_5 1_555 1_555
C28_5 C27_5 1_555 1_555
H14_5 C28_5 1_555 1_555
C29_5 C28_5 1_555 1_555
C30_5 C29_5 1_555 1_555
H15_5 C30_5 1_555 1_555
C31_5 C26_5 1_555 1_555
H16_5 C31_5 1_555 1_555
C32_5 C29_5 1_555 1_555
O13_5 C32_5 1_555 1_555
O22 C32_5 1_555 1_555
C4_5 N4_5 1_555 1_555
C16_5 C17_5 1_555 1_555
C30_5 C31_5 1_555 1_555
O2_5 H19_5 1_555 1_555
O2_5 H20_5 1_555 1_555
O6_5 H21_5 1_555 1_555
O3_4 N1_4 1_555 1_555
Ni1_4 N1_4 1_555 1_555
O4_4 N2_6 1_555 1_555
C2_6 N2_6 1_555 1_555
N2_6 Ni1_4 1_555 1_555
C4_6 C2_6 1_555 1_555
N4_6 Ni1_4 1_555 1_555
C12_6 C2_6 1_555 1_555
C13_6 C12_6 1_555 1_555
H5_6 C13_6 1_555 1_555
C14_6 C13_6 1_555 1_555
H6_6 C14_6 1_555 1_555
C15_6 C14_6 1_555 1_555
C18_6 C15_6 1_555 1_555
O9_3 C18_6 1_555 1_555
H16_6 C31_6 1_555 1_555
Cd6 O9_3 1_555 1_555
C4_6 N4_6 1_555 1_555
O4_4 H17_4 1_555 1_555
O3_4 H18_4 1_555 1_555
H7_6 C16_6 1_555 1_555
H8_6 C17_6 1_555 1_555
C16_6 C17_6 1_555 1_555
O15 Cd9 1_555 1_555
O2_6 Cd9 1_555 1_555
Cd9 O13_6 1_555 1_555
C30_6 C29_6 1_555 1_555
H15_6 C30_6 1_555 1_555
C32_6 C29_6 1_555 1_555
O13_6 C32_6 1_555 1_555
O20_3 Cd9 1_555 1_555
O2_6 H19_6 1_555 1_555
O2_6 H20_6 1_555 1_555
O6_6 H21_6 1_555 1_555
H13_6 C27_6 1_555 1_555
C28_6 C27_6 1_555 1_555
H14_6 C28_6 1_555 1_555
C1_6 C3_6 1_555 1_555
Cd6 O7_6 1_555 1_555
C3_6 N3_6 1_555 1_555
C5_6 C1_6 1_555 1_555
C6_6 C5_6 1_555 1_555
H1_6 C6_6 1_555 1_555
C7_6 C6_6 1_555 1_555
H2_6 C7_6 1_555 1_555
C8_6 C7_6 1_555 1_555
C9_6 C8_6 1_555 1_555
H3_6 C9_6 1_555 1_555
C10_6 C5_6 1_555 1_555
H4_6 C10_6 1_555 1_555
C11_6 C8_6 1_555 1_555
O7_6 C11_6 1_555 1_555
O16 C11_6 1_555 1_555
C9_6 C10_6 1_555 1_555
C20_6 C19_6 1_555 1_555
C21_6 C20_6 1_555 1_555
H10_6 C21_6 1_555 1_555
C22_6 C21_6 1_555 1_555
C23_6 C22_6 1_555 1_555
H11_6 C23_6 1_555 1_555
C24_6 C19_6 1_555 1_555
H12_6 C24_6 1_555 1_555
C25_6 C22_6 1_555 1_555
O20_3 C25_6 1_555 1_555
O21 C25_6 1_555 1_555
C23_6 C24_6 1_555 1_555
O5_6 H22_4 1_555 1_555
O3_5 N1_5 1_555 1_555
Ni1_5 N1_5 1_555 1_555
O4_5 H17_5 1_555 1_555
O3_5 H18_5 1_555 1_555
O3_6 N1_6 1_555 1_555
Ni1_6 N1_6 1_555 1_555
O4_6 H17_6 1_555 1_555
O3_6 H18_6 1_555 1_555

#END
