
###############################################################################
#
# This file contains modified crystal structure data generated from the
# MOF subset of the Cambridge Structural Database (CSD) v543 
# hosted by the Cambridge Crystallographic Data Centre (CCDC).
#
# This work is licensed under the Creative Commons
# Attribution-NonCommercial-ShareAlike 4.0 International License.
# To view a copy of this license, visit
# http://creativecommons.org/licenses/by-nc-sa/4.0/
# or send a letter to
# Creative Commons, PO Box 1866, Mountain View, CA 94042, USA.
#
# CIF created using the CSD Python API on 29 September 2022
# The structure has been converted into the P1 space group
# The structure has a 3D framework
# The original CSD entry OJEPAW is in the rhombohedral crystal system
# The framework has been calculated to contain at least 10.0% void space
# The void calculation uses a probe of radius 1.32A, grid spacing 0.4
# The framework is charged, counterions have been retained in the structure
#
###############################################################################

data_OJEPAW
_chemical_formula_moiety         '(C126 H54 N36 O72 Zn18 18-)n'
_symmetry_cell_setting           triclinic
_symmetry_space_group_name_H-M   'P 1'
_symmetry_Int_Tables_number      1
_space_group_name_Hall           'P 1'
loop_
_symmetry_equiv_pos_site_id
_symmetry_equiv_pos_as_xyz
1 x,y,z
_cell_length_a                   21.417(3)
_cell_length_b                   21.417(3)
_cell_length_c                   19.428(4)
_cell_angle_alpha                90
_cell_angle_beta                 90
_cell_angle_gamma                120
_cell_volume                     7717.49
loop_
_atom_site_label
_atom_site_type_symbol
_atom_site_fract_x
_atom_site_fract_y
_atom_site_fract_z
C14 C 0.02306(15) 0.43061(21) 0.19638(15)
C15 C 0.06368(15) 0.40289(21) 0.23472(13)
C16 C 0.09288(15) 0.36267(26) 0.21054(13)
H6 H 0.0899 0.3475 0.1652
C17 C 0.08173(16) 0.41181(28) 0.30387(14)
H7 H 0.0694 0.4370 0.3349
N3 N 0.11905(12) 0.37963(21) 0.31971(10)
N4 N 0.12628(12) 0.34857(21) 0.26153(10)
O9 O 0.01005(11) 0.41051(15) 0.13347(10)
O10 O 0.00488(14) 0.47143(18) 0.22391(11)
N12 N 0.01524(21) 0.55562(17) 0.07180(10)
Zn4 Zn 0.156041(14) 0.374259(15) 0.413073(14)
Zn7 Zn 0.177293(14) 0.292407(15) 0.253593(14)
C1 C 0.54742(16) 0.18676(15) 0.11124(17)
C2 C 0.60958(14) 0.26277(14) 0.11680(15)
C3 C 0.67975(15) 0.27615(15) 0.11705(15)
H1 H 0.6886 0.2379 0.1174
O1 O 0.48521(12) 0.17616(13) 0.10629(17)
O2 O 0.56399(10) 0.13762(9) 0.10766(11)
Zn1 Zn 0.489374(14) 0.040926(15) 0.079740(14)
C8 C 0.81324(15) 0.36066(22) 0.11124(17)
C9 C 0.73723(14) 0.34681(20) 0.11680(15)
C10 C 0.72385(15) 0.40360(21) 0.11705(15)
H4 H 0.7621 0.4507 0.1174
O5 O 0.82384(13) 0.30905(18) 0.10629(17)
O6 O 0.86238(9) 0.42637(13) 0.10766(11)
C11 C 0.63934(22) 0.45258(16) 0.11124(17)
C12 C 0.65319(20) 0.39042(14) 0.11680(15)
C13 C 0.59640(21) 0.32025(15) 0.11705(15)
H5 H 0.5493 0.3114 0.1174
O7 O 0.69095(18) 0.51479(12) 0.10629(17)
O8 O 0.57363(13) 0.43601(10) 0.10766(11)
Zn2 Zn 0.959074(15) 0.448448(21) 0.079740(14)
C18 C 0.56939(21) 0.59245(15) 0.19638(15)
C19 C 0.59711(21) 0.66079(14) 0.23472(13)
C20 C 0.63733(26) 0.73021(21) 0.21054(13)
H8 H 0.6525 0.7424 0.1652
C21 C 0.58819(28) 0.66992(23) 0.30387(14)
H9 H 0.5630 0.6324 0.3349
N5 N 0.62037(21) 0.73942(17) 0.31971(10)
N6 N 0.65143(21) 0.77771(17) 0.26153(10)
O11 O 0.58949(15) 0.59954(10) 0.13347(10)
O12 O 0.52857(18) 0.53345(11) 0.22391(11)
Zn3 Zn 0.551552(21) 0.510626(14) 0.079740(14)
N10 N 0.44438(17) 0.45961(12) 0.07180(10)
Zn5 Zn 0.625741(15) 0.781781(21) 0.413073(14)
Zn8 Zn 0.707593(15) 0.884885(21) 0.253593(14)
N7 N 0.59391(17) 0.54762(12) 0.98638(10)
N8 N 0.45238(12) 0.04630(21) 0.98638(10)
N9 N 0.95370(21) 0.40609(17) 0.98638(10)
C4 C 0.40755(15) 0.97694(15) 0.19638(15)
C5 C 0.33921(14) 0.93632(15) 0.23472(13)
C6 C 0.26979(21) 0.90712(15) 0.21054(13)
H2 H 0.2576 0.9101 0.1652
C7 C 0.33008(23) 0.91827(16) 0.30387(14)
H3 H 0.3676 0.9306 0.3349
N1 N 0.26058(17) 0.88095(12) 0.31971(10)
N2 N 0.22229(17) 0.87372(12) 0.26153(10)
O3 O 0.40046(10) 0.98995(11) 0.13347(10)
O4 O 0.46655(11) 0.99512(14) 0.22391(11)
N11 N 0.54039(12) 0.98476(21) 0.07180(10)
Zn6 Zn 0.218219(21) 0.843959(14) 0.413073(14)
Zn9 Zn 0.115115(21) 0.822707(14) 0.253593(14)
C20_2 C 0.30400(26) 0.06354(21) 0.54387(13)
H8_2 H 0.3192 0.0757 0.4985
C21_2 C 0.25486(28) 0.00325(23) 0.63720(14)
N5_2 N 0.28704(21) 0.07275(17) 0.65304(10)
N6_2 N 0.31810(21) 0.11104(17) 0.59486(10)
Zn5_2 Zn 0.292407(15) 0.115115(21) 0.746407(14)
Zn8_2 Zn 0.374259(15) 0.218219(21) 0.586927(14)
C1_2 C 0.21409(16) 0.52009(15) 0.44457(17)
C2_2 C 0.27625(14) 0.59610(14) 0.45013(15)
C3_2 C 0.34642(15) 0.60948(15) 0.45038(15)
H1_2 H 0.3553 0.5712 0.4507
C4_2 C 0.07422(15) 0.31027(15) 0.52971(15)
C5_2 C 0.00588(14) 0.26965(15) 0.56805(13)
H3_2 H 0.0343 0.2639 0.6682
O1_2 O 0.15188(12) 0.50949(13) 0.43962(17)
O2_2 O 0.23066(10) 0.47095(9) 0.44099(11)
O3_2 O 0.06713(10) 0.32328(11) 0.46680(10)
O4_2 O 0.13322(11) 0.32845(14) 0.55724(11)
C8_2 C 0.47991(15) 0.69399(22) 0.44457(17)
C9_2 C 0.40390(14) 0.68014(20) 0.45013(15)
C10_2 C 0.39052(15) 0.73693(21) 0.45038(15)
H4_2 H 0.4288 0.7840 0.4507
O5_2 O 0.49051(13) 0.64238(18) 0.43962(17)
O6_2 O 0.52905(9) 0.75970(13) 0.44099(11)
C11_2 C 0.30601(22) 0.78591(16) 0.44457(17)
C12_2 C 0.31986(20) 0.72375(14) 0.45013(15)
C13_2 C 0.26307(21) 0.65358(15) 0.45038(15)
H5_2 H 0.2160 0.6447 0.4507
O7_2 O 0.35762(18) 0.84812(12) 0.43962(17)
O8_2 O 0.24030(13) 0.76934(10) 0.44099(11)
C14_2 C 0.68973(15) 0.76394(21) 0.52971(15)
C15_2 C 0.73035(15) 0.73622(21) 0.56805(13)
C16_2 C 0.75955(15) 0.69600(26) 0.54387(13)
H6_2 H 0.7566 0.6808 0.4985
C17_2 C 0.74840(16) 0.74514(28) 0.63720(14)
H7_2 H 0.7361 0.7703 0.6682
N3_2 N 0.78572(12) 0.71296(21) 0.65304(10)
N4_2 N 0.79295(12) 0.68190(21) 0.59486(10)
O9_2 O 0.67672(11) 0.74384(15) 0.46680(10)
O10_2 O 0.67155(14) 0.80476(18) 0.55724(11)
C18_2 C 0.23606(21) 0.92578(15) 0.52971(15)
C19_2 C 0.26378(21) 0.99412(14) 0.56805(13)
H9_2 H 0.2297 0.9657 0.6682
O11_2 O 0.25616(15) 0.93287(10) 0.46680(10)
O12_2 O 0.19524(18) 0.86678(11) 0.55724(11)
N10_2 N 0.11104(17) 0.79295(12) 0.40514(10)
N11_2 N 0.20705(12) 0.31810(21) 0.40514(10)
N12_2 N 0.68190(21) 0.88896(17) 0.40514(10)
Zn4_2 Zn 0.822707(14) 0.707593(15) 0.746407(14)
Zn7_2 Zn 0.843959(14) 0.625741(15) 0.586927(14)
C6_2 C 0.93646(21) 0.24045(15) 0.54387(13)
H2_2 H 0.9243 0.2434 0.4985
C7_2 C 0.99675(23) 0.25160(16) 0.63720(14)
N1_2 N 0.92725(17) 0.21428(12) 0.65304(10)
N2_2 N 0.88896(17) 0.20705(12) 0.59486(10)
Zn6_2 Zn 0.884885(21) 0.177293(14) 0.746407(14)
Zn9_2 Zn 0.781781(21) 0.156041(14) 0.586927(14)
H7_3 H 0.4027 0.1037 0.0016
C8_3 C 0.14657(15) 0.02733(22) 0.77791(17)
C9_3 C 0.07056(14) 0.01348(20) 0.78347(15)
C10_3 C 0.05718(15) 0.07027(21) 0.78372(15)
H4_3 H 0.0954 0.1174 0.7841
O6_3 O 0.19571(9) 0.09304(13) 0.77433(11)
O7_3 O 0.02428(18) 0.18146(12) 0.77296(17)
C14_3 C 0.35639(15) 0.09728(21) 0.86305(15)
C15_3 C 0.39701(15) 0.06956(21) 0.90139(13)
C16_3 C 0.42621(15) 0.02934(26) 0.87721(13)
H6_3 H 0.4232 0.0142 0.8319
C17_3 C 0.41506(16) 0.07848(28) 0.97054(14)
N4_3 N 0.45961(12) 0.01524(21) 0.92820(10)
O9_3 O 0.34338(11) 0.07718(15) 0.80014(10)
O10_3 O 0.33821(14) 0.13810(18) 0.89058(11)
N12_3 N 0.34857(21) 0.22229(17) 0.73847(10)
Zn8_3 Zn 0.040926(15) 0.551552(21) 0.920260(14)
C3_3 C 0.01308(15) 0.94282(15) 0.78372(15)
H1_3 H 0.0219 0.9046 0.7841
O5_3 O 0.15717(13) 0.97572(18) 0.77296(17)
Zn7_3 Zn 0.510626(14) 0.959074(15) 0.920260(14)
H9_3 H 0.8963 0.2991 0.0016
C11_3 C 0.97267(22) 0.11925(16) 0.77791(17)
C12_3 C 0.98652(20) 0.05709(14) 0.78347(15)
O8_3 O 0.90696(13) 0.10268(10) 0.77433(11)
C18_3 C 0.90272(21) 0.25912(15) 0.86305(15)
C19_3 C 0.93044(21) 0.32746(14) 0.90139(13)
C20_3 C 0.97066(26) 0.39688(21) 0.87721(13)
H8_3 H 0.9858 0.4091 0.8319
C21_3 C 0.92152(28) 0.33659(23) 0.97054(14)
N6_3 N 0.98476(21) 0.44438(17) 0.92820(10)
O11_3 O 0.92282(15) 0.26621(10) 0.80014(10)
O12_3 O 0.86190(18) 0.20012(11) 0.89058(11)
N10_3 N 0.77771(17) 0.12628(12) 0.73847(10)
H3_3 H 0.7009 0.5973 0.0016
C1_3 C 0.88075(16) 0.85343(15) 0.77791(17)
C2_3 C 0.94291(14) 0.92944(14) 0.78347(15)
C4_3 C 0.74088(15) 0.64361(15) 0.86305(15)
C5_3 C 0.67254(14) 0.60299(15) 0.90139(13)
C6_3 C 0.60312(21) 0.57379(15) 0.87721(13)
H2_3 H 0.5909 0.5768 0.8319
C7_3 C 0.66341(23) 0.58494(16) 0.97054(14)
N2_3 N 0.55562(17) 0.54039(12) 0.92820(10)
O1_3 O 0.81854(12) 0.84283(13) 0.77296(17)
O2_3 O 0.89732(10) 0.80429(9) 0.77433(11)
O3_3 O 0.73379(10) 0.65662(11) 0.80014(10)
O4_3 O 0.79988(11) 0.66179(14) 0.89058(11)
C13_3 C 0.92973(21) 0.98692(15) 0.78372(15)
H5_3 H 0.8826 0.9781 0.7841
N11_3 N 0.87372(12) 0.65143(21) 0.73847(10)
Zn9_3 Zn 0.448448(21) 0.489374(14) 0.920260(14)
C4_4 C 0.59245(15) 0.02306(15) 0.80362(15)
C5_4 C 0.66079(14) 0.06368(15) 0.76528(13)
C6_4 C 0.73021(21) 0.09288(15) 0.78946(13)
H2_4 H 0.7424 0.0899 0.8348
C7_4 C 0.66992(23) 0.08173(16) 0.69613(14)
H3_4 H 0.6324 0.0694 0.6651
N1_3 N 0.73942(17) 0.11905(12) 0.68029(10)
O3_4 O 0.59954(10) 0.01005(11) 0.86653(10)
O4_4 O 0.53345(11) 0.00488(14) 0.77609(11)
N7_2 N 0.40609(17) 0.45238(12) 0.01362(10)
N8_2 N 0.54762(12) 0.95370(21) 0.01362(10)
N9_2 N 0.04630(21) 0.59391(17) 0.01362(10)
C1_4 C 0.45258(16) 0.81324(15) 0.88876(17)
C2_4 C 0.39042(14) 0.73723(14) 0.88320(15)
C3_4 C 0.32025(15) 0.72385(15) 0.88295(15)
H1_4 H 0.3114 0.7621 0.8826
O1_4 O 0.51479(12) 0.82384(13) 0.89371(17)
O2_4 O 0.43601(10) 0.86238(9) 0.89234(11)
C8_4 C 0.18676(15) 0.63934(22) 0.88876(17)
C9_4 C 0.26277(14) 0.65319(20) 0.88320(15)
C10_4 C 0.27615(15) 0.59640(21) 0.88295(15)
H4_4 H 0.2379 0.5493 0.8826
O5_4 O 0.17616(13) 0.69095(18) 0.89371(17)
O6_4 O 0.13762(9) 0.57363(13) 0.89234(11)
C11_4 C 0.36066(22) 0.54742(16) 0.88876(17)
C12_4 C 0.34681(20) 0.60958(14) 0.88320(15)
C13_4 C 0.40360(21) 0.67975(15) 0.88295(15)
H5_4 H 0.4507 0.6886 0.8826
O7_4 O 0.30905(18) 0.48521(12) 0.89371(17)
O8_4 O 0.42637(13) 0.56399(10) 0.89234(11)
C18_4 C 0.43061(21) 0.40755(15) 0.80362(15)
C19_4 C 0.40289(21) 0.33921(14) 0.76528(13)
C20_4 C 0.36267(26) 0.26979(21) 0.78946(13)
H8_4 H 0.3475 0.2576 0.8348
C21_4 C 0.41181(28) 0.33008(23) 0.69613(14)
H9_4 H 0.4370 0.3676 0.6651
N5_3 N 0.37963(21) 0.26058(17) 0.68029(10)
O11_4 O 0.41051(15) 0.40046(10) 0.86653(10)
O12_4 O 0.47143(18) 0.46655(11) 0.77609(11)
C14_4 C 0.97694(15) 0.56939(21) 0.80362(15)
C15_4 C 0.93632(15) 0.59711(21) 0.76528(13)
C16_4 C 0.90712(15) 0.63733(26) 0.78946(13)
H6_4 H 0.9101 0.6525 0.8348
C17_4 C 0.91827(16) 0.58819(28) 0.69613(14)
H7_4 H 0.9306 0.5630 0.6651
N3_3 N 0.88095(12) 0.62037(21) 0.68029(10)
O9_4 O 0.98995(11) 0.58949(15) 0.86653(10)
O10_4 O 0.99512(14) 0.52857(18) 0.77609(11)
C6_5 C 0.06354(21) 0.75955(15) 0.45613(13)
H2_5 H 0.0757 0.7566 0.5015
C7_5 C 0.00325(23) 0.74840(16) 0.36280(14)
N1_4 N 0.07275(17) 0.78572(12) 0.34696(10)
C1_5 C 0.78591(16) 0.47991(15) 0.55543(17)
C2_5 C 0.72375(14) 0.40390(14) 0.54987(15)
C3_5 C 0.65358(15) 0.39052(15) 0.54962(15)
H1_5 H 0.6447 0.4288 0.5493
C4_5 C 0.92578(15) 0.68973(15) 0.47029(15)
C5_5 C 0.99412(14) 0.73035(15) 0.43195(13)
H3_5 H 0.9657 0.7361 0.3318
O1_5 O 0.84812(12) 0.49051(13) 0.56038(17)
O2_5 O 0.76934(10) 0.52905(9) 0.55901(11)
O3_5 O 0.93287(10) 0.67672(11) 0.53320(10)
O4_5 O 0.86678(11) 0.67155(14) 0.44276(11)
C8_5 C 0.52009(15) 0.30601(22) 0.55543(17)
C9_5 C 0.59610(14) 0.31986(20) 0.54987(15)
C10_5 C 0.60948(15) 0.26307(21) 0.54962(15)
H4_5 H 0.5712 0.2160 0.5493
O5_5 O 0.50949(13) 0.35762(18) 0.56038(17)
O6_5 O 0.47095(9) 0.24030(13) 0.55901(11)
C11_5 C 0.69399(22) 0.21409(16) 0.55543(17)
C12_5 C 0.68014(20) 0.27625(14) 0.54987(15)
C13_5 C 0.73693(21) 0.34642(15) 0.54962(15)
H5_5 H 0.7840 0.3553 0.5493
O7_5 O 0.64238(18) 0.15188(12) 0.56038(17)
O8_5 O 0.75970(13) 0.23066(10) 0.55901(11)
C14_5 C 0.31027(15) 0.23606(21) 0.47029(15)
C15_5 C 0.26965(15) 0.26378(21) 0.43195(13)
C16_5 C 0.24045(15) 0.30400(26) 0.45613(13)
H6_5 H 0.2434 0.3192 0.5015
C17_5 C 0.25160(16) 0.25486(28) 0.36280(14)
H7_5 H 0.2639 0.2297 0.3318
N3_4 N 0.21428(12) 0.28704(21) 0.34696(10)
O9_5 O 0.32328(11) 0.25616(15) 0.53320(10)
O10_5 O 0.32845(14) 0.19524(18) 0.44276(11)
C18_5 C 0.76394(21) 0.07422(15) 0.47029(15)
C19_5 C 0.73622(21) 0.00588(14) 0.43195(13)
H9_5 H 0.7703 0.0343 0.3318
O11_5 O 0.74384(15) 0.06713(10) 0.53320(10)
O12_5 O 0.80476(18) 0.13322(11) 0.44276(11)
C20_5 C 0.69600(26) 0.93646(21) 0.45613(13)
H8_5 H 0.6808 0.9243 0.5015
C21_5 C 0.74514(28) 0.99675(23) 0.36280(14)
N5_4 N 0.71296(21) 0.92725(17) 0.34696(10)
C1_6 C 0.11925(16) 0.14657(15) 0.22209(17)
C2_6 C 0.05709(14) 0.07056(14) 0.21653(15)
C4_6 C 0.25912(15) 0.35639(15) 0.13695(15)
C5_6 C 0.32746(14) 0.39701(15) 0.09861(13)
C6_6 C 0.39688(21) 0.42621(15) 0.12279(13)
H2_6 H 0.4091 0.4232 0.1681
C7_6 C 0.33659(23) 0.41506(16) 0.02946(14)
O1_6 O 0.18146(12) 0.15717(13) 0.22704(17)
O2_6 O 0.10268(10) 0.19571(9) 0.22567(11)
O3_6 O 0.26621(10) 0.34338(11) 0.19986(10)
O4_6 O 0.20012(11) 0.33821(14) 0.10942(11)
C13_6 C 0.07027(21) 0.01308(15) 0.21628(15)
H5_6 H 0.1174 0.0219 0.2159
H3_6 H 0.2991 0.4027 0.9984
C11_6 C 0.02733(22) 0.88075(16) 0.22209(17)
C12_6 C 0.01348(20) 0.94291(14) 0.21653(15)
O8_6 O 0.09304(13) 0.89732(10) 0.22567(11)
C18_6 C 0.09728(21) 0.74088(15) 0.13695(15)
C19_6 C 0.06956(21) 0.67254(14) 0.09861(13)
C20_6 C 0.02934(26) 0.60312(21) 0.12279(13)
H8_6 H 0.0142 0.5909 0.1681
C21_6 C 0.07848(28) 0.66341(23) 0.02946(14)
O11_6 O 0.07718(15) 0.73379(10) 0.19986(10)
O12_6 O 0.13810(18) 0.79988(11) 0.10942(11)
H9_6 H 0.1037 0.7009 0.9984
C3_6 C 0.98692(15) 0.05718(15) 0.21628(15)
H1_6 H 0.9781 0.0954 0.2159
O5_6 O 0.84283(13) 0.02428(18) 0.22704(17)
C8_6 C 0.85343(15) 0.97267(22) 0.22209(17)
C9_6 C 0.92944(14) 0.98652(20) 0.21653(15)
C10_6 C 0.94282(15) 0.92973(21) 0.21628(15)
H4_6 H 0.9046 0.8826 0.2159
O6_6 O 0.80429(9) 0.90696(13) 0.22567(11)
O7_6 O 0.97572(18) 0.81854(12) 0.22704(17)
C14_6 C 0.64361(15) 0.90272(21) 0.13695(15)
C15_6 C 0.60299(15) 0.93044(21) 0.09861(13)
C16_6 C 0.57379(15) 0.97066(26) 0.12279(13)
H6_6 H 0.5768 0.9858 0.1681
C17_6 C 0.58494(16) 0.92152(28) 0.02946(14)
O9_6 O 0.65662(11) 0.92282(15) 0.19986(10)
O10_6 O 0.66179(14) 0.86190(18) 0.10942(11)
H7_6 H 0.5973 0.8963 0.9984
loop_
_geom_bond_atom_site_label_1
_geom_bond_atom_site_label_2
_geom_bond_site_symmetry_1
_geom_bond_site_symmetry_2
C14 C15 1_555 1_555
C15 C16 1_555 1_555
C16 H6 1_555 1_555
C17 C15 1_555 1_555
H7 C17 1_555 1_555
N3 C17 1_555 1_555
N4 C16 1_555 1_555
O9 C14 1_555 1_555
O10 C14 1_555 1_555
Zn4 N3 1_555 1_555
Zn7 N4 1_555 1_555
N3 N4 1_555 1_555
C1 C2 1_555 1_555
C2 C3 1_555 1_555
C3 H1 1_555 1_555
O1 C1 1_555 1_555
O2 C1 1_555 1_555
Zn1 O2 1_555 1_555
C8 C9 1_555 1_555
C9 C3 1_555 1_555
C10 C9 1_555 1_555
H4 C10 1_555 1_555
O5 C8 1_555 1_555
O6 C8 1_555 1_555
C11 C12 1_555 1_555
C12 C10 1_555 1_555
C13 C2 1_555 1_555
H5 C13 1_555 1_555
O7 C11 1_555 1_555
O8 C11 1_555 1_555
Zn2 O6 1_555 1_555
C18 C19 1_555 1_555
C19 C20 1_555 1_555
C20 H8 1_555 1_555
C21 C19 1_555 1_555
H9 C21 1_555 1_555
N5 C21 1_555 1_555
N6 C20 1_555 1_555
O11 C18 1_555 1_555
O12 C18 1_555 1_555
Zn3 O8 1_555 1_555
N10 Zn3 1_555 1_555
Zn5 N5 1_555 1_555
Zn8 N6 1_555 1_555
C12 C13 1_555 1_555
N5 N6 1_555 1_555
O11 Zn3 1_555 1_555
C4 C5 1_555 1_555
C5 C6 1_555 1_555
C6 H2 1_555 1_555
C7 C5 1_555 1_555
H3 C7 1_555 1_555
N1 C7 1_555 1_555
N2 C6 1_555 1_555
O3 C4 1_555 1_555
O4 C4 1_555 1_555
Zn6 N1 1_555 1_555
Zn9 N2 1_555 1_555
N1 N2 1_555 1_555
C20_2 H8_2 1_555 1_555
N5_2 C21_2 1_555 1_555
N6_2 C20_2 1_555 1_555
Zn5_2 N5_2 1_555 1_555
Zn8_2 N6_2 1_555 1_555
N5_2 N6_2 1_555 1_555
C1_2 C2_2 1_555 1_555
C2_2 C3_2 1_555 1_555
C3_2 H1_2 1_555 1_555
C4_2 C5_2 1_555 1_555
O1_2 C1_2 1_555 1_555
O2_2 C1_2 1_555 1_555
O3_2 C4_2 1_555 1_555
O4_2 C4_2 1_555 1_555
Zn4 O2_2 1_555 1_555
C8_2 C9_2 1_555 1_555
C9_2 C3_2 1_555 1_555
C10_2 C9_2 1_555 1_555
H4_2 C10_2 1_555 1_555
O5_2 C8_2 1_555 1_555
O6_2 C8_2 1_555 1_555
C11_2 C12_2 1_555 1_555
C12_2 C10_2 1_555 1_555
C13_2 C2_2 1_555 1_555
H5_2 C13_2 1_555 1_555
O7_2 C11_2 1_555 1_555
O8_2 C11_2 1_555 1_555
C14_2 C15_2 1_555 1_555
C15_2 C16_2 1_555 1_555
C16_2 H6_2 1_555 1_555
C17_2 C15_2 1_555 1_555
H7_2 C17_2 1_555 1_555
N3_2 C17_2 1_555 1_555
N4_2 C16_2 1_555 1_555
O9_2 C14_2 1_555 1_555
O10_2 C14_2 1_555 1_555
Zn5 O6_2 1_555 1_555
C18_2 C19_2 1_555 1_555
O11_2 C18_2 1_555 1_555
O12_2 C18_2 1_555 1_555
Zn6 O8_2 1_555 1_555
N10_2 Zn6 1_555 1_555
N11_2 Zn4 1_555 1_555
N12_2 Zn5 1_555 1_555
Zn4_2 N3_2 1_555 1_555
Zn7_2 N4_2 1_555 1_555
O3_2 Zn4 1_555 1_555
C12_2 C13_2 1_555 1_555
N3_2 N4_2 1_555 1_555
O9_2 Zn5 1_555 1_555
O11_2 Zn6 1_555 1_555
C6_2 H2_2 1_555 1_555
N1_2 C7_2 1_555 1_555
N2_2 C6_2 1_555 1_555
Zn6_2 N1_2 1_555 1_555
Zn9_2 N2_2 1_555 1_555
N1_2 N2_2 1_555 1_555
C8_3 C9_3 1_555 1_555
C10_3 C9_3 1_555 1_555
H4_3 C10_3 1_555 1_555
O6_3 C8_3 1_555 1_555
C14_3 C15_3 1_555 1_555
C15_3 C16_3 1_555 1_555
C16_3 H6_3 1_555 1_555
C17_3 C15_3 1_555 1_555
N8 C17_3 1_555 1_555
N4_3 C16_3 1_555 1_555
O9_3 C14_3 1_555 1_555
O10_3 C14_3 1_555 1_555
Zn5_2 O6_3 1_555 1_555
N12_3 Zn5_2 1_555 1_555
N8 N4_3 1_555 1_555
O9_3 Zn5_2 1_555 1_555
C3_3 H1_3 1_555 1_555
C11_3 C12_3 1_555 1_555
O8_3 C11_3 1_555 1_555
C18_3 C19_3 1_555 1_555
C19_3 C20_3 1_555 1_555
C20_3 H8_3 1_555 1_555
C21_3 C19_3 1_555 1_555
N9 C21_3 1_555 1_555
N6_3 C20_3 1_555 1_555
O11_3 C18_3 1_555 1_555
O12_3 C18_3 1_555 1_555
Zn6_2 O8_3 1_555 1_555
N10_3 Zn6_2 1_555 1_555
N9 N6_3 1_555 1_555
O11_3 Zn6_2 1_555 1_555
C1_3 C2_3 1_555 1_555
C4_3 C5_3 1_555 1_555
C5_3 C6_3 1_555 1_555
C6_3 H2_3 1_555 1_555
C7_3 C5_3 1_555 1_555
N7 C7_3 1_555 1_555
N2_3 C6_3 1_555 1_555
O1_3 C1_3 1_555 1_555
O2_3 C1_3 1_555 1_555
O3_3 C4_3 1_555 1_555
O4_3 C4_3 1_555 1_555
Zn4_2 O2_3 1_555 1_555
C13_3 C2_3 1_555 1_555
H5_3 C13_3 1_555 1_555
N11_3 Zn4_2 1_555 1_555
Zn9_3 N2_3 1_555 1_555
N7 N2_3 1_555 1_555
O3_3 Zn4_2 1_555 1_555
C4_4 C5_4 1_555 1_555
C5_4 C6_4 1_555 1_555
C6_4 H2_4 1_555 1_555
C7_4 C5_4 1_555 1_555
H3_4 C7_4 1_555 1_555
N1_3 C7_4 1_555 1_555
N10_3 C6_4 1_555 1_555
O3_4 C4_4 1_555 1_555
O4_4 C4_4 1_555 1_555
Zn9_2 N1_3 1_555 1_555
N1_3 N10_3 1_555 1_555
C1_4 C2_4 1_555 1_555
C2_4 C3_4 1_555 1_555
C3_4 H1_4 1_555 1_555
O1_4 C1_4 1_555 1_555
O2_4 C1_4 1_555 1_555
Zn7_3 O2_4 1_555 1_555
C8_4 C9_4 1_555 1_555
C9_4 C3_4 1_555 1_555
C10_4 C9_4 1_555 1_555
H4_4 C10_4 1_555 1_555
O5_4 C8_4 1_555 1_555
O6_4 C8_4 1_555 1_555
C11_4 C12_4 1_555 1_555
C12_4 C10_4 1_555 1_555
C13_4 C2_4 1_555 1_555
H5_4 C13_4 1_555 1_555
O7_4 C11_4 1_555 1_555
O8_4 C11_4 1_555 1_555
Zn8_3 O6_4 1_555 1_555
C18_4 C19_4 1_555 1_555
C19_4 C20_4 1_555 1_555
C20_4 H8_4 1_555 1_555
C21_4 C19_4 1_555 1_555
H9_4 C21_4 1_555 1_555
N5_3 C21_4 1_555 1_555
N12_3 C20_4 1_555 1_555
O11_4 C18_4 1_555 1_555
O12_4 C18_4 1_555 1_555
Zn9_3 O8_4 1_555 1_555
Zn8_2 N5_3 1_555 1_555
C12_4 C13_4 1_555 1_555
N5_3 N12_3 1_555 1_555
O11_4 Zn9_3 1_555 1_555
C14_4 C15_4 1_555 1_555
C15_4 C16_4 1_555 1_555
C16_4 H6_4 1_555 1_555
C17_4 C15_4 1_555 1_555
H7_4 C17_4 1_555 1_555
N3_3 C17_4 1_555 1_555
N11_3 C16_4 1_555 1_555
O9_4 C14_4 1_555 1_555
O10_4 C14_4 1_555 1_555
Zn7_2 N3_3 1_555 1_555
N3_3 N11_3 1_555 1_555
C6_5 H2_5 1_555 1_555
N1_4 C7_5 1_555 1_555
N10_2 C6_5 1_555 1_555
Zn9 N1_4 1_555 1_555
N1_4 N10_2 1_555 1_555
C1_5 C2_5 1_555 1_555
C2_5 C3_5 1_555 1_555
C3_5 H1_5 1_555 1_555
C4_5 C5_5 1_555 1_555
O1_5 C1_5 1_555 1_555
O2_5 C1_5 1_555 1_555
O3_5 C4_5 1_555 1_555
O4_5 C4_5 1_555 1_555
Zn7_2 O2_5 1_555 1_555
C8_5 C9_5 1_555 1_555
C9_5 C3_5 1_555 1_555
C10_5 C9_5 1_555 1_555
H4_5 C10_5 1_555 1_555
O5_5 C8_5 1_555 1_555
O6_5 C8_5 1_555 1_555
C11_5 C12_5 1_555 1_555
C12_5 C10_5 1_555 1_555
C13_5 C2_5 1_555 1_555
H5_5 C13_5 1_555 1_555
O7_5 C11_5 1_555 1_555
O8_5 C11_5 1_555 1_555
C14_5 C15_5 1_555 1_555
C15_5 C16_5 1_555 1_555
C16_5 H6_5 1_555 1_555
C17_5 C15_5 1_555 1_555
H7_5 C17_5 1_555 1_555
N3_4 C17_5 1_555 1_555
N11_2 C16_5 1_555 1_555
O9_5 C14_5 1_555 1_555
O10_5 C14_5 1_555 1_555
Zn8_2 O6_5 1_555 1_555
C18_5 C19_5 1_555 1_555
O11_5 C18_5 1_555 1_555
O12_5 C18_5 1_555 1_555
Zn9_2 O8_5 1_555 1_555
Zn7 N3_4 1_555 1_555
O3_5 Zn7_2 1_555 1_555
C12_5 C13_5 1_555 1_555
N3_4 N11_2 1_555 1_555
O9_5 Zn8_2 1_555 1_555
O11_5 Zn9_2 1_555 1_555
C20_5 H8_5 1_555 1_555
N5_4 C21_5 1_555 1_555
N12_2 C20_5 1_555 1_555
Zn8 N5_4 1_555 1_555
N5_4 N12_2 1_555 1_555
C1_6 C2_6 1_555 1_555
C4_6 C5_6 1_555 1_555
C5_6 C6_6 1_555 1_555
C6_6 H2_6 1_555 1_555
C7_6 C5_6 1_555 1_555
N7_2 C7_6 1_555 1_555
N10 C6_6 1_555 1_555
O1_6 C1_6 1_555 1_555
O2_6 C1_6 1_555 1_555
O3_6 C4_6 1_555 1_555
O4_6 C4_6 1_555 1_555
Zn7 O2_6 1_555 1_555
C13_6 C2_6 1_555 1_555
H5_6 C13_6 1_555 1_555
N7_2 N10 1_555 1_555
O3_6 Zn7 1_555 1_555
C11_6 C12_6 1_555 1_555
O8_6 C11_6 1_555 1_555
C18_6 C19_6 1_555 1_555
C19_6 C20_6 1_555 1_555
C20_6 H8_6 1_555 1_555
C21_6 C19_6 1_555 1_555
N9_2 C21_6 1_555 1_555
N12 C20_6 1_555 1_555
O11_6 C18_6 1_555 1_555
O12_6 C18_6 1_555 1_555
Zn9 O8_6 1_555 1_555
N9_2 N12 1_555 1_555
O11_6 Zn9 1_555 1_555
C3_6 H1_6 1_555 1_555
C8_6 C9_6 1_555 1_555
C10_6 C9_6 1_555 1_555
H4_6 C10_6 1_555 1_555
O6_6 C8_6 1_555 1_555
C14_6 C15_6 1_555 1_555
C15_6 C16_6 1_555 1_555
C16_6 H6_6 1_555 1_555
C17_6 C15_6 1_555 1_555
N8_2 C17_6 1_555 1_555
N11 C16_6 1_555 1_555
O9_6 C14_6 1_555 1_555
O10_6 C14_6 1_555 1_555
Zn8 O6_6 1_555 1_555
N8_2 N11 1_555 1_555
O9_6 Zn8 1_555 1_555

#END
