
###############################################################################
#
# This file contains modified crystal structure data generated from the
# MOF subset of the Cambridge Structural Database (CSD) v543 
# hosted by the Cambridge Crystallographic Data Centre (CCDC).
#
# This work is licensed under the Creative Commons
# Attribution-NonCommercial-ShareAlike 4.0 International License.
# To view a copy of this license, visit
# http://creativecommons.org/licenses/by-nc-sa/4.0/
# or send a letter to
# Creative Commons, PO Box 1866, Mountain View, CA 94042, USA.
#
# CIF created using the CSD Python API on 29 September 2022
# The structure has been converted into the P1 space group
# The structure has a 3D framework
# The original CSD entry OJEVIK is in the trigonal crystal system
# The original CSD entry OJEVIK is in a Sohncke space group
# The framework has been calculated to contain at least 10.0% void space
# The void calculation uses a probe of radius 1.32A, grid spacing 0.4
# The framework is charged, counterions have been retained in the structure
#
###############################################################################

data_OJEVIK
_chemical_formula_moiety         '(C78 H30 N12 O44 Zn8 6-)n'
_symmetry_cell_setting           triclinic
_symmetry_space_group_name_H-M   'P 1'
_symmetry_Int_Tables_number      1
_space_group_name_Hall           'P 1'
loop_
_symmetry_equiv_pos_site_id
_symmetry_equiv_pos_as_xyz
1 x,y,z
_cell_length_a                   13.698(3)
_cell_length_b                   13.698(3)
_cell_length_c                   34.212(10)
_cell_angle_alpha                90
_cell_angle_beta                 90
_cell_angle_gamma                120
_cell_volume                     5559.34
loop_
_atom_site_label
_atom_site_type_symbol
_atom_site_fract_x
_atom_site_fract_y
_atom_site_fract_z
C1 C 0.0818(3) 0.4455(3) 0.18680(9)
H1 H 0.0829 0.4148 0.2109
C2 C 0.1767(3) 0.5233(3) 0.16642(9)
C3 C 0.1338(3) 0.5467(3) 0.13354(8)
H2 H 0.1769 0.5985 0.1143
C4 C 0.2950(4) 0.5669(3) 0.17733(9)
N2 N 0.0224(2) 0.4849(2) 0.13327(7)
O1 O 0.3679(3) 0.6392(2) 0.15499(7)
O2 O 0.3131(3) 0.5281(2) 0.20771(6)
Zn5 Zn 0.43873(4) 0.53400(3) 0.237793(8)
Zn7 Zn 0.52897(4) 0.69680(3) 0.159566(8)
C7 C 0.7888(4) 0.1949(3) 0.24592(9)
C8 C 0.7195(4) 0.0856(3) 0.26756(9)
C13 C 0.6952(4) 0.0855(3) 0.30684(9)
H5 H 0.7245 0.1533 0.3203
N1 N 0.9898(2) 0.4216(2) 0.16693(7)
O5 O 0.7943(2) 0.18260(19) 0.20938(6)
O6 O 0.8232(5) 0.2849(2) 0.26197(8)
O7 O 0.63854(28) 0.0809(2) 0.38465(6)
Zn1 Zn 0.90473(3) 0.46600(3) 0.095540(8)
Zn2 Zn 0.83217(3) 0.30320(3) 0.173767(8)
O9 O 0.7287(4) 0.3608(2) 0.17834(7)
O10 O 0.7850(4) 0.4719(2) 0.12562(6)
O11 O 0.79270(32) 0.21410(18) 0.12515(6)
O12 O 0.83170(32) 0.31591(18) 0.07043(6)
O13 O 0.9191(2) 0.55764(34) 0.05132(6)
Zn3 Zn 0.56127(4) 0.09527(3) 0.428873(8)
C5 C 0.5662(4) 0.7759(2) 0.24431(8)
C6 C 0.5904(4) 0.9845(3) 0.36782(9)
C9 C 0.6794(3) 0.9837(3) 0.24790(8)
H3 H 0.6971 0.9834 0.2217
C10 C 0.6130(3) 0.8824(3) 0.26726(8)
C11 C 0.5867(3) 0.8820(3) 0.30642(9)
H4 H 0.5426 0.8141 0.3194
C12 C 0.6271(3) 0.9843(3) 0.32629(8)
O3 O 0.57860(27) 0.78590(18) 0.20818(6)
O4 O 0.51579(27) 0.68409(18) 0.26290(6)
O8 O 0.5169(5) 0.8990(3) 0.38259(8)
C5_2 C 0.2241(2) 0.7903(4) 0.91098(8)
C9_2 C 0.0163(3) 0.6957(4) 0.91457(8)
H3_2 H 0.0166 0.7137 0.8884
C10_2 C 0.1176(3) 0.7306(4) 0.93393(8)
C11_2 C 0.1180(3) 0.7047(4) 0.97309(9)
H4_2 H 0.1859 0.7285 0.9861
C12_2 C 0.0157(3) 0.6428(4) 0.99296(8)
O3_2 O 0.21410(18) 0.79270(32) 0.87485(6)
O4_2 O 0.31591(18) 0.83170(32) 0.92957(6)
Zn4 Zn 0.46600(3) 0.90473(5) 0.904460(8)
Zn6 Zn 0.30320(3) 0.83217(5) 0.826233(8)
C1_2 C 0.5545(3) 0.6363(4) 0.85347(9)
H1_2 H 0.5852 0.6681 0.8776
C2_2 C 0.4767(3) 0.6534(4) 0.83309(9)
C3_2 C 0.4533(3) 0.5871(4) 0.80021(8)
H2_2 H 0.4015 0.5784 0.7810
C4_2 C 0.4331(3) 0.7281(5) 0.84400(9)
C7_2 C 0.8051(3) 0.5939(5) 0.91259(9)
C8_2 C 0.9144(3) 0.6339(5) 0.93423(9)
C13_2 C 0.9145(3) 0.6097(5) 0.97351(9)
H5_2 H 0.8467 0.5712 0.9870
N1_2 N 0.5784(2) 0.5682(3) 0.83360(7)
N2_2 N 0.5151(2) 0.5375(3) 0.79994(7)
O1_2 O 0.3608(2) 0.7287(4) 0.82166(7)
O2_2 O 0.4719(2) 0.7850(4) 0.87438(6)
O5_2 O 0.81740(19) 0.61170(28) 0.87605(6)
O6_2 O 0.7151(2) 0.5383(5) 0.92864(8)
Zn1_2 Zn 0.53400(3) 0.43873(4) 0.762207(8)
Zn2_2 Zn 0.69680(3) 0.52897(4) 0.840434(8)
O9_2 O 0.6392(2) 0.3679(4) 0.84501(7)
O10_2 O 0.5281(2) 0.3131(4) 0.79229(6)
O11_2 O 0.78590(18) 0.57860(37) 0.79182(6)
O12_2 O 0.68409(18) 0.51579(37) 0.73710(6)
O13_2 O 0.44236(34) 0.36146(39) 0.71798(6)
C5_3 C 0.2097(4) 0.4338(4) 0.57764(8)
C6_2 C 0.3941(5) 0.4096(4) 0.70115(9)
C7_3 C 0.4061(5) 0.2112(4) 0.57925(9)
C8_3 C 0.3661(5) 0.2805(4) 0.60089(9)
C9_3 C 0.3043(4) 0.3206(3) 0.58123(8)
H3_3 H 0.2863 0.3029 0.5550
C10_3 C 0.2694(4) 0.3870(3) 0.60059(8)
C11_3 C 0.2953(4) 0.4133(3) 0.63975(9)
H4_3 H 0.2715 0.4574 0.6527
C12_3 C 0.3572(4) 0.3729(3) 0.65962(8)
C13_3 C 0.3903(5) 0.3048(4) 0.64017(9)
H5_3 H 0.4288 0.2755 0.6536
N1_3 N 0.4318(3) 0.0102(2) 0.50026(7)
O3_3 O 0.20730(32) 0.42140(27) 0.54151(6)
O4_3 O 0.16830(32) 0.48421(27) 0.59623(6)
O5_3 O 0.38830(28) 0.2057(2) 0.54271(6)
O6_3 O 0.4617(5) 0.1768(5) 0.59530(8)
O8_2 O 0.3821(6) 0.4831(5) 0.71592(8)
Zn2_3 Zn 0.47103(4) 0.16783(3) 0.507100(8)
O9_3 O 0.6321(4) 0.2713(4) 0.51168(7)
O10_3 O 0.6869(4) 0.2150(4) 0.45896(6)
O11_3 O 0.42140(37) 0.20730(32) 0.45849(6)
O12_3 O 0.48421(37) 0.16830(32) 0.40377(6)
Zn4_2 Zn 0.09527(5) 0.56127(4) 0.571127(8)
Zn6_2 Zn 0.16783(5) 0.47103(4) 0.492900(8)
C1_3 C 0.3637(4) 0.9182(3) 0.52013(9)
H1_3 H 0.3319 0.9171 0.5442
C2_3 C 0.3466(4) 0.8233(3) 0.49975(9)
C3_3 C 0.4129(4) 0.8662(3) 0.46687(8)
H2_3 H 0.4216 0.8231 0.4476
C4_3 C 0.2719(5) 0.7050(4) 0.51066(9)
N2_3 N 0.4625(3) 0.9776(2) 0.46660(7)
O1_3 O 0.2713(4) 0.6321(3) 0.48832(7)
O2_3 O 0.2150(4) 0.6869(3) 0.54104(6)
C1_4 C 0.4455(3) 0.0818(3) 0.81320(9)
H1_4 H 0.4148 0.0829 0.7891
C2_4 C 0.5233(3) 0.1767(3) 0.83358(9)
C3_4 C 0.5467(3) 0.1338(3) 0.86646(8)
H2_4 H 0.5985 0.1769 0.8857
C4_4 C 0.5669(3) 0.2950(4) 0.82267(9)
N2_4 N 0.4849(2) 0.0224(2) 0.86673(7)
C7_4 C 0.1949(3) 0.7888(4) 0.75408(9)
C8_4 C 0.0856(3) 0.7195(4) 0.73244(9)
C13_4 C 0.0855(3) 0.6952(4) 0.69316(9)
H5_4 H 0.1533 0.7245 0.6797
N1_4 N 0.4216(2) 0.9898(2) 0.83307(7)
O5_4 O 0.18260(19) 0.7943(2) 0.79062(6)
O6_4 O 0.2849(2) 0.8232(5) 0.73803(8)
O7_2 O 0.0809(2) 0.63854(28) 0.61535(6)
O13_3 O 0.55764(34) 0.9191(2) 0.94868(6)
C5_4 C 0.7759(2) 0.5662(4) 0.75569(8)
C6_3 C 0.9845(3) 0.5904(4) 0.63218(9)
C9_4 C 0.9837(3) 0.6794(3) 0.75210(8)
H3_4 H 0.9834 0.6971 0.7783
C10_4 C 0.8824(3) 0.6130(3) 0.73274(8)
C11_4 C 0.8820(3) 0.5867(3) 0.69358(9)
H4_4 H 0.8141 0.5426 0.6806
C12_4 C 0.9843(3) 0.6271(3) 0.67371(8)
O8_3 O 0.8990(3) 0.5169(5) 0.61741(8)
C5_5 C 0.7903(4) 0.2241(2) 0.08902(8)
C9_5 C 0.6957(4) 0.0163(3) 0.08543(8)
H3_5 H 0.7137 0.0166 0.1116
C10_5 C 0.7306(4) 0.1176(3) 0.06607(8)
C11_5 C 0.7047(4) 0.1180(3) 0.02691(9)
H4_5 H 0.7285 0.1859 0.0139
C12_5 C 0.6428(4) 0.0157(3) 0.00704(8)
C1_5 C 0.6363(4) 0.5545(3) 0.14653(9)
H1_5 H 0.6681 0.5852 0.1224
C2_5 C 0.6534(4) 0.4767(3) 0.16691(9)
C3_5 C 0.5871(4) 0.4533(3) 0.19979(8)
H2_5 H 0.5784 0.4015 0.2190
C4_5 C 0.7281(5) 0.4331(3) 0.15600(9)
C7_5 C 0.5939(5) 0.8051(3) 0.08741(9)
C8_5 C 0.6339(5) 0.9144(3) 0.06577(9)
C13_5 C 0.6097(5) 0.9145(3) 0.02649(9)
H5_5 H 0.5712 0.8467 0.0130
N1_5 N 0.5682(3) 0.5784(2) 0.16640(7)
N2_5 N 0.5375(3) 0.5151(2) 0.20006(7)
O5_5 O 0.61170(28) 0.81740(19) 0.12395(6)
O6_5 O 0.5383(5) 0.7151(2) 0.07136(8)
O13_4 O 0.36146(39) 0.44236(34) 0.28202(6)
C5_6 C 0.4338(4) 0.2097(4) 0.42236(8)
C6_4 C 0.4096(4) 0.3941(5) 0.29885(9)
C7_6 C 0.2112(4) 0.4061(5) 0.42075(9)
C8_6 C 0.2805(4) 0.3661(5) 0.39911(9)
C9_6 C 0.3206(3) 0.3043(4) 0.41877(8)
H3_6 H 0.3029 0.2863 0.4450
C10_6 C 0.3870(3) 0.2694(4) 0.39941(8)
C11_6 C 0.4133(3) 0.2953(4) 0.36025(9)
H4_6 H 0.4574 0.2715 0.3473
C12_6 C 0.3729(3) 0.3572(4) 0.34038(8)
C13_6 C 0.3048(4) 0.3903(5) 0.35983(9)
H5_6 H 0.2755 0.4288 0.3464
N1_6 N 0.0102(2) 0.4318(3) 0.49974(7)
O5_6 O 0.2057(2) 0.38830(28) 0.45729(6)
O6_6 O 0.1768(5) 0.4617(5) 0.40470(8)
O8_4 O 0.4831(5) 0.3821(6) 0.28408(8)
C1_6 C 0.9182(3) 0.3637(4) 0.47987(9)
H1_6 H 0.9171 0.3319 0.4558
C2_6 C 0.8233(3) 0.3466(4) 0.50025(9)
C3_6 C 0.8662(3) 0.4129(4) 0.53313(8)
H2_6 H 0.8231 0.4216 0.5524
C4_6 C 0.7050(4) 0.2719(5) 0.48934(9)
N2_6 N 0.9776(2) 0.4625(3) 0.53340(7)
C6_5 C 0.0155(3) 0.6059(5) 0.03449(9)
O8_5 O 0.1010(3) 0.6179(6) 0.04926(8)
C6_6 C 0.6059(5) 0.0155(3) 0.96551(9)
O8_6 O 0.6179(6) 0.1010(3) 0.95074(8)
loop_
_geom_bond_atom_site_label_1
_geom_bond_atom_site_label_2
_geom_bond_site_symmetry_1
_geom_bond_site_symmetry_2
C1 H1 1_555 1_555
C2 C1 1_555 1_555
C3 C2 1_555 1_555
H2 C3 1_555 1_555
C4 C2 1_555 1_555
N2 C3 1_555 1_555
O1 C4 1_555 1_555
O2 C4 1_555 1_555
Zn5 O2 1_555 1_555
Zn7 O1 1_555 1_555
C7 C8 1_555 1_555
C13 C8 1_555 1_555
H5 C13 1_555 1_555
O5 C7 1_555 1_555
O6 C7 1_555 1_555
Zn2 N1 1_555 1_555
O9 Zn2 1_555 1_555
O10 Zn1 1_555 1_555
O11 Zn2 1_555 1_555
O12 Zn1 1_555 1_555
O13 Zn1 1_555 1_555
Zn3 O7 1_555 1_555
O5 Zn2 1_555 1_555
C5 C10 1_555 1_555
C6 C12 1_555 1_555
C9 H3 1_555 1_555
C10 C9 1_555 1_555
C11 C10 1_555 1_555
H4 C11 1_555 1_555
C12 C11 1_555 1_555
O3 C5 1_555 1_555
O4 C5 1_555 1_555
O8 C6 1_555 1_555
Zn5 O4 1_555 1_555
Zn7 O3 1_555 1_555
C5_2 C10_2 1_555 1_555
C9_2 H3_2 1_555 1_555
C10_2 C9_2 1_555 1_555
C11_2 C10_2 1_555 1_555
H4_2 C11_2 1_555 1_555
C12_2 C11_2 1_555 1_555
O3_2 C5_2 1_555 1_555
O4_2 C5_2 1_555 1_555
Zn4 O4_2 1_555 1_555
Zn6 O3_2 1_555 1_555
C1_2 H1_2 1_555 1_555
C2_2 C1_2 1_555 1_555
C3_2 C2_2 1_555 1_555
H2_2 C3_2 1_555 1_555
C4_2 C2_2 1_555 1_555
C7_2 C8_2 1_555 1_555
C13_2 C8_2 1_555 1_555
H5_2 C13_2 1_555 1_555
N1_2 C1_2 1_555 1_555
N2_2 C3_2 1_555 1_555
O1_2 C4_2 1_555 1_555
O2_2 C4_2 1_555 1_555
O5_2 C7_2 1_555 1_555
O6_2 C7_2 1_555 1_555
Zn1_2 N2_2 1_555 1_555
Zn2_2 N1_2 1_555 1_555
O9_2 Zn2_2 1_555 1_555
O10_2 Zn1_2 1_555 1_555
O11_2 Zn2_2 1_555 1_555
O12_2 Zn1_2 1_555 1_555
O13_2 Zn1_2 1_555 1_555
Zn4 O2_2 1_555 1_555
Zn6 O1_2 1_555 1_555
N1_2 N2_2 1_555 1_555
O5_2 Zn2_2 1_555 1_555
C5_3 C10_3 1_555 1_555
C6_2 C12_3 1_555 1_555
C7_3 C8_3 1_555 1_555
C8_3 C9_3 1_555 1_555
C9_3 H3_3 1_555 1_555
C10_3 C9_3 1_555 1_555
C11_3 C10_3 1_555 1_555
H4_3 C11_3 1_555 1_555
C12_3 C11_3 1_555 1_555
C13_3 C8_3 1_555 1_555
H5_3 C13_3 1_555 1_555
O3_3 C5_3 1_555 1_555
O4_3 C5_3 1_555 1_555
O5_3 C7_3 1_555 1_555
O6_3 C7_3 1_555 1_555
O13_2 C6_2 1_555 1_555
O8_2 C6_2 1_555 1_555
Zn2_3 N1_3 1_555 1_555
O9_3 Zn2_3 1_555 1_555
O10_3 Zn3 1_555 1_555
O11_3 Zn2_3 1_555 1_555
O12_3 Zn3 1_555 1_555
Zn4_2 O4_3 1_555 1_555
Zn6_2 O3_3 1_555 1_555
C12_3 C13_3 1_555 1_555
O5_3 Zn2_3 1_555 1_555
C1_3 H1_3 1_555 1_555
C2_3 C1_3 1_555 1_555
C3_3 C2_3 1_555 1_555
H2_3 C3_3 1_555 1_555
C4_3 C2_3 1_555 1_555
N2_3 C3_3 1_555 1_555
O1_3 C4_3 1_555 1_555
O2_3 C4_3 1_555 1_555
Zn4_2 O2_3 1_555 1_555
Zn6_2 O1_3 1_555 1_555
C1_4 H1_4 1_555 1_555
C2_4 C1_4 1_555 1_555
C3_4 C2_4 1_555 1_555
H2_4 C3_4 1_555 1_555
C4_4 C2_4 1_555 1_555
N2_4 C3_4 1_555 1_555
O9_2 C4_4 1_555 1_555
O10_2 C4_4 1_555 1_555
C7_4 C8_4 1_555 1_555
C13_4 C8_4 1_555 1_555
H5_4 C13_4 1_555 1_555
O5_4 C7_4 1_555 1_555
O6_4 C7_4 1_555 1_555
Zn6 N1_4 1_555 1_555
O13_3 Zn4 1_555 1_555
Zn4_2 O7_2 1_555 1_555
O5_4 Zn6 1_555 1_555
C5_4 C10_4 1_555 1_555
C6_3 C12_4 1_555 1_555
C9_4 H3_4 1_555 1_555
C10_4 C9_4 1_555 1_555
C11_4 C10_4 1_555 1_555
H4_4 C11_4 1_555 1_555
C12_4 C11_4 1_555 1_555
O11_2 C5_4 1_555 1_555
O12_2 C5_4 1_555 1_555
O8_3 C6_3 1_555 1_555
C5_5 C10_5 1_555 1_555
C9_5 H3_5 1_555 1_555
C10_5 C9_5 1_555 1_555
C11_5 C10_5 1_555 1_555
H4_5 C11_5 1_555 1_555
C12_5 C11_5 1_555 1_555
O11 C5_5 1_555 1_555
O12 C5_5 1_555 1_555
C1_5 H1_5 1_555 1_555
C2_5 C1_5 1_555 1_555
C3_5 C2_5 1_555 1_555
H2_5 C3_5 1_555 1_555
C4_5 C2_5 1_555 1_555
C7_5 C8_5 1_555 1_555
C13_5 C8_5 1_555 1_555
H5_5 C13_5 1_555 1_555
N1_5 C1_5 1_555 1_555
N2_5 C3_5 1_555 1_555
O9 C4_5 1_555 1_555
O10 C4_5 1_555 1_555
O5_5 C7_5 1_555 1_555
O6_5 C7_5 1_555 1_555
Zn5 N2_5 1_555 1_555
Zn7 N1_5 1_555 1_555
O13_4 Zn5 1_555 1_555
N1_5 N2_5 1_555 1_555
O5_5 Zn7 1_555 1_555
C5_6 C10_6 1_555 1_555
C6_4 C12_6 1_555 1_555
C7_6 C8_6 1_555 1_555
C8_6 C9_6 1_555 1_555
C9_6 H3_6 1_555 1_555
C10_6 C9_6 1_555 1_555
C11_6 C10_6 1_555 1_555
H4_6 C11_6 1_555 1_555
C12_6 C11_6 1_555 1_555
C13_6 C8_6 1_555 1_555
H5_6 C13_6 1_555 1_555
O11_3 C5_6 1_555 1_555
O12_3 C5_6 1_555 1_555
O5_6 C7_6 1_555 1_555
O6_6 C7_6 1_555 1_555
O13_4 C6_4 1_555 1_555
O8_4 C6_4 1_555 1_555
Zn6_2 N1_6 1_555 1_555
C12_6 C13_6 1_555 1_555
O5_6 Zn6_2 1_555 1_555
C1_6 H1_6 1_555 1_555
C2_6 C1_6 1_555 1_555
C3_6 C2_6 1_555 1_555
H2_6 C3_6 1_555 1_555
C4_6 C2_6 1_555 1_555
N2_6 C3_6 1_555 1_555
O9_3 C4_6 1_555 1_555
O10_3 C4_6 1_555 1_555
O8_5 C6_5 1_555 1_555
O8_6 C6_6 1_555 1_555

#END
