
###############################################################################
#
# This file contains modified crystal structure data generated from the
# MOF subset of the Cambridge Structural Database (CSD) v543 
# hosted by the Cambridge Crystallographic Data Centre (CCDC).
#
# This work is licensed under the Creative Commons
# Attribution-NonCommercial-ShareAlike 4.0 International License.
# To view a copy of this license, visit
# http://creativecommons.org/licenses/by-nc-sa/4.0/
# or send a letter to
# Creative Commons, PO Box 1866, Mountain View, CA 94042, USA.
#
# CIF created using the CSD Python API on 29 September 2022
# The structure has been converted into the P1 space group
# The structure has a 3D framework
# The original CSD entry OJICEQ is in the orthorhombic crystal system
# The framework has been calculated to contain at least 10.0% void space
# The void calculation uses a probe of radius 1.32A, grid spacing 0.4
# The framework is charged, counterions have been retained in the structure
#
###############################################################################

data_OJICEQ
_chemical_formula_moiety         '(C392 H496 N24 O184 S28 Zn14 4+)n'
_symmetry_cell_setting           triclinic
_symmetry_space_group_name_H-M   'P 1'
_symmetry_Int_Tables_number      1
_space_group_name_Hall           'P 1'
loop_
_symmetry_equiv_pos_site_id
_symmetry_equiv_pos_as_xyz
1 x,y,z
_cell_length_a                   35.882(6)
_cell_length_b                   24.607(4)
_cell_length_c                   21.956(4)
_cell_angle_alpha                90
_cell_angle_beta                 90
_cell_angle_gamma                90
_cell_volume                     19386
loop_
_atom_site_label
_atom_site_type_symbol
_atom_site_fract_x
_atom_site_fract_y
_atom_site_fract_z
S1 S 0.63533(17) 0.3249(3) 0.0068(4)
O9 O 0.6514(4) 0.3707(6) 0.0358(9)
O10 O 0.6199(5) 0.2845(8) 0.0447(7)
S2 S 0.63077(16) 0.3171(3) 0.4804(4)
O1 O 0.7533(3) 0.1960(3) 0.8912(6)
O2 O 0.7823(3) 0.1268(4) 0.7944(3)
O3 O 0.7471(3) 0.1313(4) 0.6675(3)
O4 O 0.7478(4) 0.2250(4) 0.5827(6)
O5 O 0.7784(3) 0.3204(4) 0.5961(6)
O6 O 0.8254(2) 0.3591(7) 0.6953(3)
O7 O 0.8155(3) 0.3597(7) 0.8209(4)
O8 O 0.7684(3) 0.2982(4) 0.8984(6)
O11 O 0.6105(3) 0.3403(4) 0.9558(5)
O12 O 0.6039(3) 0.3273(5) 0.5267(6)
O13 O 0.6320(4) 0.3574(5) 0.4362(6)
O14 O 0.6263(4) 0.2631(5) 0.4560(7)
C1 C 0.7341(3) 0.2799(4) 0.9280(6)
C2 C 0.7066(4) 0.3127(3) 0.9531(6)
H1 H 0.7103 0.3509 0.9559
C3 C 0.6736(3) 0.2898(6) 0.9742(5)
C4 C 0.6681(2) 0.2339(6) 0.9701(5)
H2 H 0.6456 0.2182 0.9844
C5 C 0.6957(3) 0.2011(4) 0.9449(5)
H3 H 0.6919 0.1630 0.9421
C6 C 0.7286(3) 0.2241(4) 0.9239(5)
C7 C 0.7509(3) 0.1385(3) 0.8891(5)
H4 H 0.7282 0.1274 0.8665
H5 H 0.7492 0.1237 0.9309
C8 C 0.7848(3) 0.1163(5) 0.8579(3)
H6 H 0.8075 0.1337 0.8747
H7 H 0.7867 0.0767 0.8650
C9 C 0.7606(4) 0.0882(5) 0.7620(3)
H8 H 0.7337 0.0959 0.7680
H9 H 0.7658 0.0512 0.7775
C10 C 0.7700(4) 0.0915(5) 0.6956(3)
H10 H 0.7966 0.1013 0.6906
H11 H 0.7659 0.0557 0.6761
C11 C 0.7482(5) 0.1300(4) 0.6028(3)
H12 H 0.7375 0.0953 0.5879
H13 H 0.7743 0.1324 0.5885
C12 C 0.7261(3) 0.1769(3) 0.5782(4)
H14 H 0.7195 0.1700 0.5352
H15 H 0.7028 0.1811 0.6018
C13 C 0.7265(2) 0.2720(3) 0.5585(5)
C14 C 0.6919(2) 0.2732(3) 0.5300(5)
H16 H 0.6790 0.2403 0.5219
C15 C 0.6762(2) 0.3227(5) 0.5132(5)
C16 C 0.6951(3) 0.3709(3) 0.5250(5)
H17 H 0.6843 0.4046 0.5136
C17 C 0.7296(3) 0.3696(3) 0.5536(5)
H18 H 0.7425 0.4026 0.5616
C18 C 0.7453(2) 0.3202(4) 0.5703(5)
C19 C 0.8012(3) 0.3677(4) 0.5948(5)
H19 H 0.7871 0.3991 0.6111
H20 H 0.8084 0.3760 0.5523
C20 C 0.8353(2) 0.3580(7) 0.6327(3)
H21 H 0.8463 0.3223 0.6223
H22 H 0.8541 0.3865 0.6242
C21 C 0.8563(3) 0.3580(9) 0.7355(3)
H23 H 0.8779 0.3761 0.7163
H24 H 0.8633 0.3199 0.7444
C22 C 0.8462(5) 0.3866(8) 0.7934(3)
H25 H 0.8677 0.3866 0.8216
H26 H 0.8395 0.4249 0.7846
C23 C 0.8116(3) 0.3704(7) 0.8841(3)
H27 H 0.8161 0.4095 0.8922
H28 H 0.8302 0.3491 0.9074
C24 C 0.7730(3) 0.3552(4) 0.9040(5)
H29 H 0.7691 0.3664 0.9469
H30 H 0.7544 0.3743 0.8784
S1_2 S 0.36467(17) 0.6751(3) 0.5068(4)
O1_2 O 0.2467(3) 0.8040(3) 0.3912(6)
O2_2 O 0.2177(3) 0.8732(4) 0.2944(3)
O3_2 O 0.2529(3) 0.8687(4) 0.1675(3)
O4_2 O 0.2522(4) 0.7750(4) 0.0827(6)
O5_2 O 0.2216(3) 0.6796(4) 0.0961(6)
O6_2 O 0.1746(2) 0.6409(7) 0.1953(3)
O7_2 O 0.1845(3) 0.6403(7) 0.3209(4)
O8_2 O 0.2316(3) 0.7018(4) 0.3984(6)
O9_2 O 0.3486(4) 0.6293(6) 0.5358(9)
O10_2 O 0.3801(5) 0.7155(8) 0.5447(7)
O11_2 O 0.3895(3) 0.6597(4) 0.4558(5)
O12_2 O 0.3961(3) 0.6727(5) 0.0267(6)
C1_2 C 0.2659(3) 0.7201(4) 0.4280(6)
C2_2 C 0.2934(4) 0.6873(3) 0.4531(6)
H1_2 H 0.2897 0.6491 0.4559
C3_2 C 0.3264(3) 0.7102(6) 0.4742(5)
C4_2 C 0.3319(2) 0.7661(6) 0.4701(5)
H2_2 H 0.3544 0.7818 0.4844
C5_2 C 0.3043(3) 0.7989(4) 0.4449(5)
H3_2 H 0.3081 0.8370 0.4421
C6_2 C 0.2714(3) 0.7759(4) 0.4239(5)
C7_2 C 0.2491(3) 0.8615(3) 0.3891(5)
H4_2 H 0.2718 0.8726 0.3665
H5_2 H 0.2508 0.8763 0.4309
C8_2 C 0.2152(3) 0.8837(5) 0.3579(3)
H6_2 H 0.1925 0.8663 0.3747
H7_2 H 0.2133 0.9233 0.3650
C9_2 C 0.2394(4) 0.9118(5) 0.2620(3)
H8_2 H 0.2663 0.9041 0.2680
H9_2 H 0.2342 0.9488 0.2775
C10_2 C 0.2300(4) 0.9085(5) 0.1956(3)
H10_2 H 0.2034 0.8987 0.1906
H11_2 H 0.2341 0.9443 0.1761
C11_2 C 0.2518(5) 0.8700(4) 0.1028(3)
H12_2 H 0.2625 0.9047 0.0879
H13_2 H 0.2257 0.8676 0.0885
C12_2 C 0.2739(3) 0.8231(3) 0.0782(4)
H14_2 H 0.2805 0.8300 0.0352
H15_2 H 0.2972 0.8189 0.1018
C13_2 C 0.2735(2) 0.7280(3) 0.0585(5)
C14_2 C 0.3081(2) 0.7268(3) 0.0300(5)
H16_2 H 0.3210 0.7597 0.0219
C15_2 C 0.3238(2) 0.6773(5) 0.0132(5)
C16_2 C 0.3049(3) 0.6291(3) 0.0250(5)
H17_2 H 0.3157 0.5954 0.0136
C17_2 C 0.2704(3) 0.6304(3) 0.0536(5)
H18_2 H 0.2575 0.5974 0.0616
C18_2 C 0.2547(2) 0.6798(4) 0.0703(5)
C19_2 C 0.1988(3) 0.6323(4) 0.0948(5)
H19_2 H 0.2129 0.6009 0.1111
H20_2 H 0.1916 0.6240 0.0523
C20_2 C 0.1647(2) 0.6420(7) 0.1327(3)
H21_2 H 0.1537 0.6777 0.1223
H22_2 H 0.1459 0.6135 0.1242
C21_2 C 0.1437(3) 0.6420(9) 0.2355(3)
H23_2 H 0.1221 0.6239 0.2163
H24_2 H 0.1367 0.6801 0.2444
C22_2 C 0.1538(5) 0.6134(8) 0.2934(3)
H25_2 H 0.1323 0.6134 0.3216
H26_2 H 0.1605 0.5751 0.2846
C23_2 C 0.1884(3) 0.6296(7) 0.3841(3)
H27_2 H 0.1839 0.5905 0.3922
H28_2 H 0.1698 0.6509 0.4074
C24_2 C 0.2270(3) 0.6448(4) 0.4040(5)
H29_2 H 0.2309 0.6336 0.4469
H30_2 H 0.2456 0.6257 0.3784
S2_2 S 0.36923(16) 0.6829(3) 0.9804(4)
O13_2 O 0.3680(4) 0.6426(5) 0.9362(6)
O14_2 O 0.3737(4) 0.7369(5) 0.9560(7)
S1_3 S 0.63533(17) 0.6751(3) 0.5068(4)
O1_3 O 0.7533(3) 0.8040(3) 0.3912(6)
O2_3 O 0.7823(3) 0.8732(4) 0.2944(3)
O3_3 O 0.7471(3) 0.8687(4) 0.1675(3)
O4_3 O 0.7478(4) 0.7750(4) 0.0827(6)
O5_3 O 0.7784(3) 0.6796(4) 0.0961(6)
O6_3 O 0.8254(2) 0.6409(7) 0.1953(3)
O7_3 O 0.8155(3) 0.6403(7) 0.3209(4)
O8_3 O 0.7684(3) 0.7018(4) 0.3984(6)
O9_3 O 0.6514(4) 0.6293(6) 0.5358(9)
O10_3 O 0.6199(5) 0.7155(8) 0.5447(7)
O11_3 O 0.6105(3) 0.6597(4) 0.4558(5)
O12_3 O 0.6039(3) 0.6727(5) 0.0267(6)
C1_3 C 0.7341(3) 0.7201(4) 0.4280(6)
C2_3 C 0.7066(4) 0.6873(3) 0.4531(6)
H1_3 H 0.7103 0.6491 0.4559
C3_3 C 0.6736(3) 0.7102(6) 0.4742(5)
C4_3 C 0.6681(2) 0.7661(6) 0.4701(5)
H2_3 H 0.6456 0.7818 0.4844
C5_3 C 0.6957(3) 0.7989(4) 0.4449(5)
H3_3 H 0.6919 0.8370 0.4421
C6_3 C 0.7286(3) 0.7759(4) 0.4239(5)
C7_3 C 0.7509(3) 0.8615(3) 0.3891(5)
H4_3 H 0.7282 0.8726 0.3665
H5_3 H 0.7492 0.8763 0.4309
C8_3 C 0.7848(3) 0.8837(5) 0.3579(3)
H6_3 H 0.8075 0.8663 0.3747
H7_3 H 0.7867 0.9233 0.3650
C9_3 C 0.7606(4) 0.9118(5) 0.2620(3)
H8_3 H 0.7337 0.9041 0.2680
H9_3 H 0.7658 0.9488 0.2775
C10_3 C 0.7700(4) 0.9085(5) 0.1956(3)
H10_3 H 0.7966 0.8987 0.1906
H11_3 H 0.7659 0.9443 0.1761
C11_3 C 0.7482(5) 0.8700(4) 0.1028(3)
H12_3 H 0.7375 0.9047 0.0879
H13_3 H 0.7743 0.8676 0.0885
C12_3 C 0.7261(3) 0.8231(3) 0.0782(4)
H14_3 H 0.7195 0.8300 0.0352
H15_3 H 0.7028 0.8189 0.1018
C13_3 C 0.7265(2) 0.7280(3) 0.0585(5)
C14_3 C 0.6919(2) 0.7268(3) 0.0300(5)
H16_3 H 0.6790 0.7597 0.0219
C15_3 C 0.6762(2) 0.6773(5) 0.0132(5)
C16_3 C 0.6951(3) 0.6291(3) 0.0250(5)
H17_3 H 0.6843 0.5954 0.0136
C17_3 C 0.7296(3) 0.6304(3) 0.0536(5)
H18_3 H 0.7425 0.5974 0.0616
C18_3 C 0.7453(2) 0.6798(4) 0.0703(5)
C19_3 C 0.8012(3) 0.6323(4) 0.0948(5)
H19_3 H 0.7871 0.6009 0.1111
H20_3 H 0.8084 0.6240 0.0523
C20_3 C 0.8353(2) 0.6420(7) 0.1327(3)
H21_3 H 0.8463 0.6777 0.1223
H22_3 H 0.8541 0.6135 0.1242
C21_3 C 0.8563(3) 0.6420(9) 0.2355(3)
H23_3 H 0.8779 0.6239 0.2163
H24_3 H 0.8633 0.6801 0.2444
C22_3 C 0.8462(5) 0.6134(8) 0.2934(3)
H25_3 H 0.8677 0.6134 0.3216
H26_3 H 0.8395 0.5751 0.2846
C23_3 C 0.8116(3) 0.6296(7) 0.3841(3)
H27_3 H 0.8161 0.5905 0.3922
H28_3 H 0.8302 0.6509 0.4074
C24_3 C 0.7730(3) 0.6448(4) 0.4040(5)
H29_3 H 0.7691 0.6336 0.4469
H30_3 H 0.7544 0.6257 0.3784
S2_3 S 0.63077(16) 0.6829(3) 0.9804(4)
O13_3 O 0.6320(4) 0.6426(5) 0.9362(6)
O14_3 O 0.6263(4) 0.7369(5) 0.9560(7)
S1_4 S 0.36467(17) 0.3249(3) 0.0068(4)
O9_4 O 0.3486(4) 0.3707(6) 0.0358(9)
O10_4 O 0.3801(5) 0.2845(8) 0.0447(7)
S2_4 S 0.36923(16) 0.3171(3) 0.4804(4)
O1_4 O 0.2467(3) 0.1960(3) 0.8912(6)
O2_4 O 0.2177(3) 0.1268(4) 0.7944(3)
O3_4 O 0.2529(3) 0.1313(4) 0.6675(3)
O4_4 O 0.2522(4) 0.2250(4) 0.5827(6)
O5_4 O 0.2216(3) 0.3204(4) 0.5961(6)
O6_4 O 0.1746(2) 0.3591(7) 0.6953(3)
O7_4 O 0.1845(3) 0.3597(7) 0.8209(4)
O8_4 O 0.2316(3) 0.2982(4) 0.8984(6)
O11_4 O 0.3895(3) 0.3403(4) 0.9558(5)
O12_4 O 0.3961(3) 0.3273(5) 0.5267(6)
O13_4 O 0.3680(4) 0.3574(5) 0.4362(6)
O14_4 O 0.3737(4) 0.2631(5) 0.4560(7)
C1_4 C 0.2659(3) 0.2799(4) 0.9280(6)
C2_4 C 0.2934(4) 0.3127(3) 0.9531(6)
H1_4 H 0.2897 0.3509 0.9559
C3_4 C 0.3264(3) 0.2898(6) 0.9742(5)
C4_4 C 0.3319(2) 0.2339(6) 0.9701(5)
H2_4 H 0.3544 0.2182 0.9844
C5_4 C 0.3043(3) 0.2011(4) 0.9449(5)
H3_4 H 0.3081 0.1630 0.9421
C6_4 C 0.2714(3) 0.2241(4) 0.9239(5)
C7_4 C 0.2491(3) 0.1385(3) 0.8891(5)
H4_4 H 0.2718 0.1274 0.8665
H5_4 H 0.2508 0.1237 0.9309
C8_4 C 0.2152(3) 0.1163(5) 0.8579(3)
H6_4 H 0.1925 0.1337 0.8747
H7_4 H 0.2133 0.0767 0.8650
C9_4 C 0.2394(4) 0.0882(5) 0.7620(3)
H8_4 H 0.2663 0.0959 0.7680
H9_4 H 0.2342 0.0512 0.7775
C10_4 C 0.2300(4) 0.0915(5) 0.6956(3)
H10_4 H 0.2034 0.1013 0.6906
H11_4 H 0.2341 0.0557 0.6761
C11_4 C 0.2518(5) 0.1300(4) 0.6028(3)
H12_4 H 0.2625 0.0953 0.5879
H13_4 H 0.2257 0.1324 0.5885
C12_4 C 0.2739(3) 0.1769(3) 0.5782(4)
H14_4 H 0.2805 0.1700 0.5352
H15_4 H 0.2972 0.1811 0.6018
C13_4 C 0.2735(2) 0.2720(3) 0.5585(5)
C14_4 C 0.3081(2) 0.2732(3) 0.5300(5)
H16_4 H 0.3210 0.2403 0.5219
C15_4 C 0.3238(2) 0.3227(5) 0.5132(5)
C16_4 C 0.3049(3) 0.3709(3) 0.5250(5)
H17_4 H 0.3157 0.4046 0.5136
C17_4 C 0.2704(3) 0.3696(3) 0.5536(5)
H18_4 H 0.2575 0.4026 0.5616
C18_4 C 0.2547(2) 0.3202(4) 0.5703(5)
C19_4 C 0.1988(3) 0.3677(4) 0.5948(5)
H19_4 H 0.2129 0.3991 0.6111
H20_4 H 0.1916 0.3760 0.5523
C20_4 C 0.1647(2) 0.3580(7) 0.6327(3)
H21_4 H 0.1537 0.3223 0.6223
H22_4 H 0.1459 0.3865 0.6242
C21_4 C 0.1437(3) 0.3580(9) 0.7355(3)
H23_4 H 0.1221 0.3761 0.7163
H24_4 H 0.1367 0.3199 0.7444
C22_4 C 0.1538(5) 0.3866(8) 0.7934(3)
H25_4 H 0.1323 0.3866 0.8216
H26_4 H 0.1605 0.4249 0.7846
C23_4 C 0.1884(3) 0.3704(7) 0.8841(3)
H27_4 H 0.1839 0.4095 0.8922
H28_4 H 0.1698 0.3491 0.9074
C24_4 C 0.2270(3) 0.3552(4) 0.9040(5)
H29_4 H 0.2309 0.3664 0.9469
H30_4 H 0.2456 0.3743 0.8784
S1_5 S 0.13533(17) 0.8249(3) 0.0068(4)
O9_5 O 0.1514(4) 0.8707(6) 0.0358(9)
O10_5 O 0.1199(5) 0.7845(8) 0.0447(7)
S2_5 S 0.13077(16) 0.8171(3) 0.4804(4)
O1_5 O 0.2533(3) 0.6960(3) 0.8912(6)
O2_5 O 0.2823(3) 0.6268(4) 0.7944(3)
O3_5 O 0.2471(3) 0.6313(4) 0.6675(3)
O4_5 O 0.2478(4) 0.7250(4) 0.5827(6)
O5_5 O 0.2784(3) 0.8204(4) 0.5961(6)
O6_5 O 0.3254(2) 0.8591(7) 0.6953(3)
O7_5 O 0.3155(3) 0.8597(7) 0.8209(4)
O8_5 O 0.2684(3) 0.7982(4) 0.8984(6)
O11_5 O 0.1105(3) 0.8403(4) 0.9558(5)
O12_5 O 0.1039(3) 0.8273(5) 0.5267(6)
O13_5 O 0.1320(4) 0.8574(5) 0.4362(6)
O14_5 O 0.1263(4) 0.7631(5) 0.4560(7)
C1_5 C 0.2341(3) 0.7799(4) 0.9280(6)
C2_5 C 0.2066(4) 0.8127(3) 0.9531(6)
H1_5 H 0.2103 0.8509 0.9559
C3_5 C 0.1736(3) 0.7898(6) 0.9742(5)
C4_5 C 0.1681(2) 0.7339(6) 0.9701(5)
H2_5 H 0.1456 0.7182 0.9844
C5_5 C 0.1957(3) 0.7011(4) 0.9449(5)
H3_5 H 0.1919 0.6630 0.9421
C6_5 C 0.2286(3) 0.7241(4) 0.9239(5)
C7_5 C 0.2509(3) 0.6385(3) 0.8891(5)
H4_5 H 0.2282 0.6274 0.8665
H5_5 H 0.2492 0.6237 0.9309
C8_5 C 0.2848(3) 0.6163(5) 0.8579(3)
H6_5 H 0.3075 0.6337 0.8747
H7_5 H 0.2867 0.5767 0.8650
C9_5 C 0.2606(4) 0.5882(5) 0.7620(3)
H8_5 H 0.2337 0.5959 0.7680
H9_5 H 0.2658 0.5512 0.7775
C10_5 C 0.2700(4) 0.5915(5) 0.6956(3)
H10_5 H 0.2966 0.6013 0.6906
H11_5 H 0.2659 0.5557 0.6761
C11_5 C 0.2482(5) 0.6300(4) 0.6028(3)
H12_5 H 0.2375 0.5953 0.5879
H13_5 H 0.2743 0.6324 0.5885
C12_5 C 0.2261(3) 0.6769(3) 0.5782(4)
H14_5 H 0.2195 0.6700 0.5352
H15_5 H 0.2028 0.6811 0.6018
C13_5 C 0.2265(2) 0.7720(3) 0.5585(5)
C14_5 C 0.1919(2) 0.7732(3) 0.5300(5)
H16_5 H 0.1790 0.7403 0.5219
C15_5 C 0.1762(2) 0.8227(5) 0.5132(5)
C16_5 C 0.1951(3) 0.8709(3) 0.5250(5)
H17_5 H 0.1843 0.9046 0.5136
C17_5 C 0.2296(3) 0.8696(3) 0.5536(5)
H18_5 H 0.2425 0.9026 0.5616
C18_5 C 0.2453(2) 0.8202(4) 0.5703(5)
C19_5 C 0.3012(3) 0.8677(4) 0.5948(5)
H19_5 H 0.2871 0.8991 0.6111
H20_5 H 0.3084 0.8760 0.5523
C20_5 C 0.3353(2) 0.8580(7) 0.6327(3)
H21_5 H 0.3463 0.8223 0.6223
H22_5 H 0.3541 0.8865 0.6242
C21_5 C 0.3563(3) 0.8580(9) 0.7355(3)
H23_5 H 0.3779 0.8761 0.7163
H24_5 H 0.3633 0.8199 0.7444
C22_5 C 0.3462(5) 0.8866(8) 0.7934(3)
H25_5 H 0.3677 0.8866 0.8216
H26_5 H 0.3395 0.9249 0.7846
C23_5 C 0.3116(3) 0.8704(7) 0.8841(3)
H27_5 H 0.3161 0.9095 0.8922
H28_5 H 0.3302 0.8491 0.9074
C24_5 C 0.2730(3) 0.8552(4) 0.9040(5)
H29_5 H 0.2691 0.8664 0.9469
H30_5 H 0.2544 0.8743 0.8784
S1_6 S 0.86467(17) 0.1751(3) 0.5068(4)
O1_6 O 0.7467(3) 0.3040(3) 0.3912(6)
O2_6 O 0.7177(3) 0.3732(4) 0.2944(3)
O3_6 O 0.7529(3) 0.3687(4) 0.1675(3)
O4_6 O 0.7522(4) 0.2750(4) 0.0827(6)
O5_6 O 0.7216(3) 0.1796(4) 0.0961(6)
O6_6 O 0.6746(2) 0.1409(7) 0.1953(3)
O7_6 O 0.6845(3) 0.1403(7) 0.3209(4)
O8_6 O 0.7316(3) 0.2018(4) 0.3984(6)
O9_6 O 0.8486(4) 0.1293(6) 0.5358(9)
O10_6 O 0.8801(5) 0.2155(8) 0.5447(7)
O11_6 O 0.8895(3) 0.1597(4) 0.4558(5)
O12_6 O 0.8961(3) 0.1727(5) 0.0267(6)
C1_6 C 0.7659(3) 0.2201(4) 0.4280(6)
C2_6 C 0.7934(4) 0.1873(3) 0.4531(6)
H1_6 H 0.7897 0.1491 0.4559
C3_6 C 0.8264(3) 0.2102(6) 0.4742(5)
C4_6 C 0.8319(2) 0.2661(6) 0.4701(5)
H2_6 H 0.8544 0.2818 0.4844
C5_6 C 0.8043(3) 0.2989(4) 0.4449(5)
H3_6 H 0.8081 0.3370 0.4421
C6_6 C 0.7714(3) 0.2759(4) 0.4239(5)
C7_6 C 0.7491(3) 0.3615(3) 0.3891(5)
H4_6 H 0.7718 0.3726 0.3665
H5_6 H 0.7508 0.3763 0.4309
C8_6 C 0.7152(3) 0.3837(5) 0.3579(3)
H6_6 H 0.6925 0.3663 0.3747
H7_6 H 0.7133 0.4233 0.3650
C9_6 C 0.7394(4) 0.4118(5) 0.2620(3)
H8_6 H 0.7663 0.4041 0.2680
H9_6 H 0.7342 0.4488 0.2775
C10_6 C 0.7300(4) 0.4085(5) 0.1956(3)
H10_6 H 0.7034 0.3987 0.1906
H11_6 H 0.7341 0.4443 0.1761
C11_6 C 0.7518(5) 0.3700(4) 0.1028(3)
H12_6 H 0.7625 0.4047 0.0879
H13_6 H 0.7257 0.3676 0.0885
C12_6 C 0.7739(3) 0.3231(3) 0.0782(4)
H14_6 H 0.7805 0.3300 0.0352
H15_6 H 0.7972 0.3189 0.1018
C13_6 C 0.7735(2) 0.2280(3) 0.0585(5)
C14_6 C 0.8081(2) 0.2268(3) 0.0300(5)
H16_6 H 0.8210 0.2597 0.0219
C15_6 C 0.8238(2) 0.1773(5) 0.0132(5)
C16_6 C 0.8049(3) 0.1291(3) 0.0250(5)
H17_6 H 0.8157 0.0954 0.0136
C17_6 C 0.7704(3) 0.1304(3) 0.0536(5)
H18_6 H 0.7575 0.0974 0.0616
C18_6 C 0.7547(2) 0.1798(4) 0.0703(5)
C19_6 C 0.6988(3) 0.1323(4) 0.0948(5)
H19_6 H 0.7129 0.1009 0.1111
H20_6 H 0.6916 0.1240 0.0523
C20_6 C 0.6647(2) 0.1420(7) 0.1327(3)
H21_6 H 0.6537 0.1777 0.1223
H22_6 H 0.6459 0.1135 0.1242
C21_6 C 0.6437(3) 0.1420(9) 0.2355(3)
H23_6 H 0.6221 0.1239 0.2163
H24_6 H 0.6367 0.1801 0.2444
C22_6 C 0.6538(5) 0.1134(8) 0.2934(3)
H25_6 H 0.6323 0.1134 0.3216
H26_6 H 0.6605 0.0751 0.2846
C23_6 C 0.6884(3) 0.1296(7) 0.3841(3)
H27_6 H 0.6839 0.0905 0.3922
H28_6 H 0.6698 0.1509 0.4074
C24_6 C 0.7270(3) 0.1448(4) 0.4040(5)
H29_6 H 0.7309 0.1336 0.4469
H30_6 H 0.7456 0.1257 0.3784
S2_6 S 0.86923(16) 0.1829(3) 0.9804(4)
O13_6 O 0.8680(4) 0.1426(5) 0.9362(6)
O14_6 O 0.8737(4) 0.2369(5) 0.9560(7)
S1_7 S 0.13533(17) 0.1751(3) 0.5068(4)
O1_7 O 0.2533(3) 0.3040(3) 0.3912(6)
O2_7 O 0.2823(3) 0.3732(4) 0.2944(3)
O3_7 O 0.2471(3) 0.3687(4) 0.1675(3)
O4_7 O 0.2478(4) 0.2750(4) 0.0827(6)
O5_7 O 0.2784(3) 0.1796(4) 0.0961(6)
O6_7 O 0.3254(2) 0.1409(7) 0.1953(3)
O7_7 O 0.3155(3) 0.1403(7) 0.3209(4)
O8_7 O 0.2684(3) 0.2018(4) 0.3984(6)
O9_7 O 0.1514(4) 0.1293(6) 0.5358(9)
O10_7 O 0.1199(5) 0.2155(8) 0.5447(7)
O11_7 O 0.1105(3) 0.1597(4) 0.4558(5)
O12_7 O 0.1039(3) 0.1727(5) 0.0267(6)
C1_7 C 0.2341(3) 0.2201(4) 0.4280(6)
C2_7 C 0.2066(4) 0.1873(3) 0.4531(6)
H1_7 H 0.2103 0.1491 0.4559
C3_7 C 0.1736(3) 0.2102(6) 0.4742(5)
C4_7 C 0.1681(2) 0.2661(6) 0.4701(5)
H2_7 H 0.1456 0.2818 0.4844
C5_7 C 0.1957(3) 0.2989(4) 0.4449(5)
H3_7 H 0.1919 0.3370 0.4421
C6_7 C 0.2286(3) 0.2759(4) 0.4239(5)
C7_7 C 0.2509(3) 0.3615(3) 0.3891(5)
H4_7 H 0.2282 0.3726 0.3665
H5_7 H 0.2492 0.3763 0.4309
C8_7 C 0.2848(3) 0.3837(5) 0.3579(3)
H6_7 H 0.3075 0.3663 0.3747
H7_7 H 0.2867 0.4233 0.3650
C9_7 C 0.2606(4) 0.4118(5) 0.2620(3)
H8_7 H 0.2337 0.4041 0.2680
H9_7 H 0.2658 0.4488 0.2775
C10_7 C 0.2700(4) 0.4085(5) 0.1956(3)
H10_7 H 0.2966 0.3987 0.1906
H11_7 H 0.2659 0.4443 0.1761
C11_7 C 0.2482(5) 0.3700(4) 0.1028(3)
H12_7 H 0.2375 0.4047 0.0879
H13_7 H 0.2743 0.3676 0.0885
C12_7 C 0.2261(3) 0.3231(3) 0.0782(4)
H14_7 H 0.2195 0.3300 0.0352
H15_7 H 0.2028 0.3189 0.1018
C13_7 C 0.2265(2) 0.2280(3) 0.0585(5)
C14_7 C 0.1919(2) 0.2268(3) 0.0300(5)
H16_7 H 0.1790 0.2597 0.0219
C15_7 C 0.1762(2) 0.1773(5) 0.0132(5)
C16_7 C 0.1951(3) 0.1291(3) 0.0250(5)
H17_7 H 0.1843 0.0954 0.0136
C17_7 C 0.2296(3) 0.1304(3) 0.0536(5)
H18_7 H 0.2425 0.0974 0.0616
C18_7 C 0.2453(2) 0.1798(4) 0.0703(5)
C19_7 C 0.3012(3) 0.1323(4) 0.0948(5)
H19_7 H 0.2871 0.1009 0.1111
H20_7 H 0.3084 0.1240 0.0523
C20_7 C 0.3353(2) 0.1420(7) 0.1327(3)
H21_7 H 0.3463 0.1777 0.1223
H22_7 H 0.3541 0.1135 0.1242
C21_7 C 0.3563(3) 0.1420(9) 0.2355(3)
H23_7 H 0.3779 0.1239 0.2163
H24_7 H 0.3633 0.1801 0.2444
C22_7 C 0.3462(5) 0.1134(8) 0.2934(3)
H25_7 H 0.3677 0.1134 0.3216
H26_7 H 0.3395 0.0751 0.2846
C23_7 C 0.3116(3) 0.1296(7) 0.3841(3)
H27_7 H 0.3161 0.0905 0.3922
H28_7 H 0.3302 0.1509 0.4074
C24_7 C 0.2730(3) 0.1448(4) 0.4040(5)
H29_7 H 0.2691 0.1336 0.4469
H30_7 H 0.2544 0.1257 0.3784
S2_7 S 0.13077(16) 0.1829(3) 0.9804(4)
O13_7 O 0.1320(4) 0.1426(5) 0.9362(6)
O14_7 O 0.1263(4) 0.2369(5) 0.9560(7)
S1_8 S 0.86467(17) 0.8249(3) 0.0068(4)
O9_8 O 0.8486(4) 0.8707(6) 0.0358(9)
O10_8 O 0.8801(5) 0.7845(8) 0.0447(7)
S2_8 S 0.86923(16) 0.8171(3) 0.4804(4)
O1_8 O 0.7467(3) 0.6960(3) 0.8912(6)
O2_8 O 0.7177(3) 0.6268(4) 0.7944(3)
O3_8 O 0.7529(3) 0.6313(4) 0.6675(3)
O4_8 O 0.7522(4) 0.7250(4) 0.5827(6)
O5_8 O 0.7216(3) 0.8204(4) 0.5961(6)
O6_8 O 0.6746(2) 0.8591(7) 0.6953(3)
O7_8 O 0.6845(3) 0.8597(7) 0.8209(4)
O8_8 O 0.7316(3) 0.7982(4) 0.8984(6)
O11_8 O 0.8895(3) 0.8403(4) 0.9558(5)
O12_8 O 0.8961(3) 0.8273(5) 0.5267(6)
O13_8 O 0.8680(4) 0.8574(5) 0.4362(6)
O14_8 O 0.8737(4) 0.7631(5) 0.4560(7)
C1_8 C 0.7659(3) 0.7799(4) 0.9280(6)
C2_8 C 0.7934(4) 0.8127(3) 0.9531(6)
H1_8 H 0.7897 0.8509 0.9559
C3_8 C 0.8264(3) 0.7898(6) 0.9742(5)
C4_8 C 0.8319(2) 0.7339(6) 0.9701(5)
H2_8 H 0.8544 0.7182 0.9844
C5_8 C 0.8043(3) 0.7011(4) 0.9449(5)
H3_8 H 0.8081 0.6630 0.9421
C6_8 C 0.7714(3) 0.7241(4) 0.9239(5)
C7_8 C 0.7491(3) 0.6385(3) 0.8891(5)
H4_8 H 0.7718 0.6274 0.8665
H5_8 H 0.7508 0.6237 0.9309
C8_8 C 0.7152(3) 0.6163(5) 0.8579(3)
H6_8 H 0.6925 0.6337 0.8747
H7_8 H 0.7133 0.5767 0.8650
C9_8 C 0.7394(4) 0.5882(5) 0.7620(3)
H8_8 H 0.7663 0.5959 0.7680
H9_8 H 0.7342 0.5512 0.7775
C10_8 C 0.7300(4) 0.5915(5) 0.6956(3)
H10_8 H 0.7034 0.6013 0.6906
H11_8 H 0.7341 0.5557 0.6761
C11_8 C 0.7518(5) 0.6300(4) 0.6028(3)
H12_8 H 0.7625 0.5953 0.5879
H13_8 H 0.7257 0.6324 0.5885
C12_8 C 0.7739(3) 0.6769(3) 0.5782(4)
H14_8 H 0.7805 0.6700 0.5352
H15_8 H 0.7972 0.6811 0.6018
C13_8 C 0.7735(2) 0.7720(3) 0.5585(5)
C14_8 C 0.8081(2) 0.7732(3) 0.5300(5)
H16_8 H 0.8210 0.7403 0.5219
C15_8 C 0.8238(2) 0.8227(5) 0.5132(5)
C16_8 C 0.8049(3) 0.8709(3) 0.5250(5)
H17_8 H 0.8157 0.9046 0.5136
C17_8 C 0.7704(3) 0.8696(3) 0.5536(5)
H18_8 H 0.7575 0.9026 0.5616
C18_8 C 0.7547(2) 0.8202(4) 0.5703(5)
C19_8 C 0.6988(3) 0.8677(4) 0.5948(5)
H19_8 H 0.7129 0.8991 0.6111
H20_8 H 0.6916 0.8760 0.5523
C20_8 C 0.6647(2) 0.8580(7) 0.6327(3)
H21_8 H 0.6537 0.8223 0.6223
H22_8 H 0.6459 0.8865 0.6242
C21_8 C 0.6437(3) 0.8580(9) 0.7355(3)
H23_8 H 0.6221 0.8761 0.7163
H24_8 H 0.6367 0.8199 0.7444
C22_8 C 0.6538(5) 0.8866(8) 0.7934(3)
H25_8 H 0.6323 0.8866 0.8216
H26_8 H 0.6605 0.9249 0.7846
C23_8 C 0.6884(3) 0.8704(7) 0.8841(3)
H27_8 H 0.6839 0.9095 0.8922
H28_8 H 0.6698 0.8491 0.9074
C24_8 C 0.7270(3) 0.8552(4) 0.9040(5)
H29_8 H 0.7309 0.8664 0.9469
H30_8 H 0.7456 0.8743 0.8784
Zn3 Zn 0.0000 0.02140(6) 0.7431(2)
Zn3_2 Zn 1.0000 0.02140(6) 0.7431(2)
O21 O 0.6152(3) 0.4661(6) 0.0551(5)
H31 H 0.6289 0.4465 0.0322
C25 C 0.6439(6) 0.4984(10) 0.0822(13)
H32 H 0.6605 0.4750 0.1061
H33 H 0.6326 0.5257 0.1090
H34 H 0.6582 0.5166 0.0502
O24 O 0.5710(2) 0.5675(4) 0.0438(5)
H41 H 0.5959 0.5841 0.0441
H42 H 0.5637 0.5583 0.0856
O27 O 0.5316(2) 0.4702(3) 0.0550(4)
O28 O 0.4684(2) 0.4702(3) 0.0550(4)
O29 O 0.3848(3) 0.4661(6) 0.0551(5)
H63 H 0.3711 0.4465 0.0322
C50 C 0.3561(6) 0.4984(10) 0.0822(13)
H64 H 0.3395 0.4750 0.1061
H65 H 0.3674 0.5257 0.1090
H66 H 0.3418 0.5166 0.0502
O32 O 0.4290(2) 0.5675(4) 0.0438(5)
H73 H 0.4041 0.5841 0.0441
H74 H 0.4363 0.5583 0.0856
Zn1 Zn 0.5000 0.52140(6) 0.7431(2)
Zn2 Zn 0.57329(3) 0.50051(13) 0.9950(3)
S3 S 0.5000 0.5054(3) 0.9063(4)
S4 S 0.5000 0.5084(2) 0.5846(3)
O15 O 0.5000 0.5231(5) 0.8393(6)
O16 O 0.5363(3) 0.5315(5) 0.9347(5)
O17 O 0.5000 0.4467(6) 0.9098(6)
O18 O 0.4684(2) 0.5298(3) 0.5550(4)
O19 O 0.5000 0.4526(4) 0.5783(5)
O20 O 0.5000 0.5267(5) 0.6452(6)
O22 O 0.6168(3) 0.5282(6) 0.9450(6)
H35 H 0.6070 0.5520 0.9219
C26 C 0.6326(8) 0.5035(11) 0.8920(8)
H36 H 0.6503 0.5288 0.8730
H37 H 0.6128 0.4947 0.8630
H38 H 0.6457 0.4702 0.9037
O23 O 0.5713(3) 0.4243(5) 0.9427(5)
H39 H 0.5452 0.4176 0.9315
H40 H 0.5804 0.3944 0.9681
N1 N 0.5429(2) 0.5822(3) 0.7477(8)
C27 C 0.5566(5) 0.6050(8) 0.7950(8)
H43 H 0.5449 0.5971 0.8328
C28 C 0.5857(6) 0.6387(9) 0.7966(8)
H44 H 0.5928 0.6550 0.8341
C29 C 0.6063(3) 0.6504(4) 0.7435(10)
C30 C 0.5930(6) 0.6304(7) 0.6893(9)
H45 H 0.6040 0.6410 0.6517
C31 C 0.5634(6) 0.5945(8) 0.6904(10)
H46 H 0.5560 0.5772 0.6537
C32 C 0.6414(3) 0.6842(5) 0.7401(10)
C33 C 0.6570(4) 0.7057(6) 0.8004(6)
H47 H 0.6448 0.6995 0.8383
C34 C 0.6894(5) 0.7342(8) 0.7964(11)
H48 H 0.7008 0.7462 0.8330
N2 N 0.7054(3) 0.7457(4) 0.7458(10)
C35 C 0.6878(7) 0.7268(9) 0.6885(11)
H49 H 0.6986 0.7347 0.6500
C36 C 0.6557(7) 0.6980(9) 0.6928(13)
H50 H 0.6436 0.6879 0.6559
C37 C 0.7399(3) 0.7748(5) 0.7401(9)
H51 H 0.7430 0.7991 0.7757
H52 H 0.7391 0.7977 0.7030
C38 C 0.7744(4) 0.7347(5) 0.7361(9)
H53 H 0.7740 0.7087 0.7704
H54 H 0.7738 0.7140 0.6974
C39 C 0.8100(3) 0.7709(5) 0.7390(10)
C40 C 0.8298(5) 0.7830(7) 0.7980(8)
H55 H 0.8217 0.7679 0.8356
C41 C 0.8584(5) 0.8151(7) 0.7947(10)
H56 H 0.8717 0.8211 0.8315
C42 C 0.8711(3) 0.8406(4) 0.7456(10)
C43 C 0.8540(3) 0.8247(6) 0.6903(6)
H57 H 0.8634 0.8381 0.6528
C44 C 0.8234(5) 0.7898(7) 0.6904(9)
H58 H 0.8124 0.7798 0.6526
C45 C 0.9008(3) 0.8837(5) 0.7473(9)
C46 C 0.9265(5) 0.8826(7) 0.7861(10)
H59 H 0.9275 0.8542 0.8153
C47 C 0.9538(3) 0.9237(6) 0.7861(6)
H60 H 0.9702 0.9251 0.8200
N3 N 0.95829(19) 0.9602(3) 0.7428(7)
C48 C 0.9328(5) 0.9550(7) 0.6976(7)
H61 H 0.9335 0.9796 0.6642
C49 C 0.9061(5) 0.9157(7) 0.6988(8)
H62 H 0.8908 0.9108 0.6639
Zn5 Zn 0.42671(3) 0.50051(13) 0.9950(3)
Zn6 Zn 0.42671(3) 0.49949(13) 0.4950(3)
Zn7 Zn 0.57329(3) 0.49949(13) 0.4950(3)
O25 O 0.4637(3) 0.5315(5) 0.9347(5)
O26 O 0.5316(2) 0.5298(3) 0.5550(4)
O30 O 0.3832(3) 0.5282(6) 0.9450(6)
H67 H 0.3930 0.5520 0.9219
C51 C 0.3674(8) 0.5035(11) 0.8920(8)
H68 H 0.3497 0.5288 0.8730
H69 H 0.3872 0.4947 0.8630
H70 H 0.3543 0.4702 0.9037
O31 O 0.4287(3) 0.4243(5) 0.9427(5)
H71 H 0.4548 0.4176 0.9315
H72 H 0.4196 0.3944 0.9681
N4 N 0.0429(2) 0.0822(3) 0.7477(8)
N5 N 0.4571(2) 0.5822(3) 0.7477(8)
C52 C 0.0566(5) 0.1050(8) 0.7950(8)
H75 H 0.0449 0.0971 0.8328
C53 C 0.0857(6) 0.1387(9) 0.7966(8)
H76 H 0.0928 0.1550 0.8341
C54 C 0.1063(3) 0.1504(4) 0.7435(10)
C55 C 0.0930(6) 0.1304(7) 0.6893(9)
H77 H 0.1040 0.1410 0.6517
C56 C 0.0634(6) 0.0945(8) 0.6904(10)
H78 H 0.0560 0.0772 0.6537
C57 C 0.1414(3) 0.1842(5) 0.7401(10)
C58 C 0.1570(4) 0.2057(6) 0.8004(6)
H79 H 0.1448 0.1995 0.8383
C59 C 0.1894(5) 0.2342(8) 0.7964(11)
H80 H 0.2008 0.2462 0.8330
N6 N 0.2054(3) 0.2457(4) 0.7458(10)
C60 C 0.1878(7) 0.2268(9) 0.6885(11)
H81 H 0.1986 0.2347 0.6500
C61 C 0.1557(7) 0.1980(9) 0.6928(13)
H82 H 0.1436 0.1879 0.6559
C62 C 0.2399(3) 0.2748(5) 0.7401(9)
H83 H 0.2430 0.2991 0.7757
H84 H 0.2391 0.2977 0.7030
C63 C 0.2744(4) 0.2347(5) 0.7361(9)
H85 H 0.2740 0.2087 0.7704
H86 H 0.2738 0.2140 0.6974
C64 C 0.3100(3) 0.2709(5) 0.7390(10)
C65 C 0.3298(5) 0.2830(7) 0.7980(8)
H87 H 0.3217 0.2679 0.8356
C66 C 0.3584(5) 0.3151(7) 0.7947(10)
H88 H 0.3717 0.3211 0.8315
C67 C 0.3711(3) 0.3406(4) 0.7456(10)
C68 C 0.3540(3) 0.3247(6) 0.6903(6)
H89 H 0.3634 0.3381 0.6528
C69 C 0.3234(5) 0.2898(7) 0.6904(9)
H90 H 0.3124 0.2798 0.6526
C70 C 0.4008(3) 0.3837(5) 0.7473(9)
C71 C 0.4265(5) 0.3826(7) 0.7861(10)
H91 H 0.4275 0.3542 0.8153
C72 C 0.4538(3) 0.4237(6) 0.7861(6)
H92 H 0.4702 0.4251 0.8200
N7 N 0.45829(19) 0.4602(3) 0.7428(7)
N8 N 0.54171(19) 0.4602(3) 0.7428(7)
C73 C 0.4328(5) 0.4550(7) 0.6976(7)
H93 H 0.4335 0.4796 0.6642
C74 C 0.4061(5) 0.4157(7) 0.6988(8)
H94 H 0.3908 0.4108 0.6639
Zn4 Zn -0.0000 0.97860(6) 0.2431(2)
Zn1_2 Zn 0.5000 0.47860(6) 0.2431(2)
S3_2 S 0.5000 0.4946(3) 0.4063(4)
S4_2 S 0.5000 0.4916(2) 0.0846(3)
O15_2 O 0.5000 0.4769(5) 0.3393(6)
O16_2 O 0.4637(3) 0.4685(5) 0.4347(5)
O17_2 O 0.5000 0.5533(6) 0.4098(6)
O19_2 O 0.5000 0.5474(4) 0.0783(5)
O20_2 O 0.5000 0.4733(5) 0.1452(6)
O21_2 O 0.3848(3) 0.5339(6) 0.5551(5)
H31_2 H 0.3711 0.5535 0.5322
C25_2 C 0.3561(6) 0.5016(10) 0.5822(13)
H32_2 H 0.3395 0.5250 0.6061
H33_2 H 0.3674 0.4743 0.6090
H34_2 H 0.3418 0.4834 0.5502
O22_2 O 0.3832(3) 0.4718(6) 0.4450(6)
H35_2 H 0.3930 0.4480 0.4219
C26_2 C 0.3674(8) 0.4965(11) 0.3920(8)
H36_2 H 0.3497 0.4712 0.3730
H37_2 H 0.3872 0.5053 0.3630
H38_2 H 0.3543 0.5298 0.4037
O23_2 O 0.4287(3) 0.5757(5) 0.4427(5)
H39_2 H 0.4548 0.5824 0.4315
H40_2 H 0.4196 0.6056 0.4681
O24_2 O 0.4290(2) 0.4325(4) 0.5438(5)
H41_2 H 0.4041 0.4159 0.5441
H42_2 H 0.4363 0.4417 0.5856
N1_2 N 0.4571(2) 0.4178(3) 0.2477(8)
C27_2 C 0.4434(5) 0.3950(8) 0.2950(8)
H43_2 H 0.4551 0.4029 0.3328
C28_2 C 0.4143(6) 0.3613(9) 0.2966(8)
H44_2 H 0.4072 0.3450 0.3341
C29_2 C 0.3937(3) 0.3496(4) 0.2435(10)
C30_2 C 0.4070(6) 0.3696(7) 0.1893(9)
H45_2 H 0.3960 0.3590 0.1517
C31_2 C 0.4366(6) 0.4055(8) 0.1904(10)
H46_2 H 0.4440 0.4228 0.1537
C32_2 C 0.3586(3) 0.3158(5) 0.2401(10)
C33_2 C 0.3430(4) 0.2943(6) 0.3004(6)
H47_2 H 0.3552 0.3005 0.3383
C34_2 C 0.3106(5) 0.2658(8) 0.2964(11)
H48_2 H 0.2992 0.2538 0.3330
N2_2 N 0.2946(3) 0.2543(4) 0.2458(10)
C35_2 C 0.3122(7) 0.2732(9) 0.1885(11)
H49_2 H 0.3014 0.2653 0.1500
C36_2 C 0.3443(7) 0.3020(9) 0.1928(13)
H50_2 H 0.3564 0.3121 0.1559
C37_2 C 0.2601(3) 0.2252(5) 0.2401(9)
H51_2 H 0.2570 0.2009 0.2757
H52_2 H 0.2609 0.2023 0.2030
C38_2 C 0.2256(4) 0.2653(5) 0.2361(9)
H53_2 H 0.2260 0.2913 0.2704
H54_2 H 0.2262 0.2860 0.1974
C39_2 C 0.1900(3) 0.2291(5) 0.2390(10)
C40_2 C 0.1702(5) 0.2170(7) 0.2980(8)
H55_2 H 0.1783 0.2321 0.3356
C41_2 C 0.1416(5) 0.1849(7) 0.2947(10)
H56_2 H 0.1283 0.1789 0.3315
C42_2 C 0.1289(3) 0.1594(4) 0.2456(10)
C43_2 C 0.1460(3) 0.1753(6) 0.1903(6)
H57_2 H 0.1366 0.1619 0.1528
C44_2 C 0.1766(5) 0.2102(7) 0.1904(9)
H58_2 H 0.1876 0.2202 0.1526
C45_2 C 0.0992(3) 0.1163(5) 0.2473(9)
C46_2 C 0.0735(5) 0.1174(7) 0.2861(10)
H59_2 H 0.0725 0.1458 0.3153
C47_2 C 0.0462(3) 0.0763(6) 0.2861(6)
H60_2 H 0.0298 0.0749 0.3200
N3_2 N 0.04171(19) 0.0398(3) 0.2428(7)
C48_2 C 0.0672(5) 0.0450(7) 0.1976(7)
H61_2 H 0.0665 0.0204 0.1642
C49_2 C 0.0939(5) 0.0843(7) 0.1988(8)
H62_2 H 0.1092 0.0892 0.1639
Zn4_2 Zn 1.0000 0.97860(6) 0.2431(2)
O25_2 O 0.5363(3) 0.4685(5) 0.4347(5)
O29_2 O 0.6152(3) 0.5339(6) 0.5551(5)
H63_2 H 0.6289 0.5535 0.5322
C50_2 C 0.6439(6) 0.5016(10) 0.5822(13)
H64_2 H 0.6605 0.5250 0.6061
H65_2 H 0.6326 0.4743 0.6090
H66_2 H 0.6582 0.4834 0.5502
O30_2 O 0.6168(3) 0.4718(6) 0.4450(6)
H67_2 H 0.6070 0.4480 0.4219
C51_2 C 0.6326(8) 0.4965(11) 0.3920(8)
H68_2 H 0.6503 0.4712 0.3730
H69_2 H 0.6128 0.5053 0.3630
H70_2 H 0.6457 0.5298 0.4037
O31_2 O 0.5713(3) 0.5757(5) 0.4427(5)
H71_2 H 0.5452 0.5824 0.4315
H72_2 H 0.5804 0.6056 0.4681
O32_2 O 0.5710(2) 0.4325(4) 0.5438(5)
H73_2 H 0.5959 0.4159 0.5441
H74_2 H 0.5637 0.4417 0.5856
N4_2 N 0.9571(2) 0.9178(3) 0.2477(8)
N5_2 N 0.5429(2) 0.4178(3) 0.2477(8)
C52_2 C 0.9434(5) 0.8950(8) 0.2950(8)
H75_2 H 0.9551 0.9029 0.3328
C53_2 C 0.9143(6) 0.8613(9) 0.2966(8)
H76_2 H 0.9072 0.8450 0.3341
C54_2 C 0.8937(3) 0.8496(4) 0.2435(10)
C55_2 C 0.9070(6) 0.8696(7) 0.1893(9)
H77_2 H 0.8960 0.8590 0.1517
C56_2 C 0.9366(6) 0.9055(8) 0.1904(10)
H78_2 H 0.9440 0.9228 0.1537
C57_2 C 0.8586(3) 0.8158(5) 0.2401(10)
C58_2 C 0.8430(4) 0.7943(6) 0.3004(6)
H79_2 H 0.8552 0.8005 0.3383
C59_2 C 0.8106(5) 0.7658(8) 0.2964(11)
H80_2 H 0.7992 0.7538 0.3330
N6_2 N 0.7946(3) 0.7543(4) 0.2458(10)
C60_2 C 0.8122(7) 0.7732(9) 0.1885(11)
H81_2 H 0.8014 0.7653 0.1500
C61_2 C 0.8443(7) 0.8020(9) 0.1928(13)
H82_2 H 0.8564 0.8121 0.1559
C62_2 C 0.7601(3) 0.7252(5) 0.2401(9)
H83_2 H 0.7570 0.7009 0.2757
H84_2 H 0.7609 0.7023 0.2030
C63_2 C 0.7256(4) 0.7653(5) 0.2361(9)
H85_2 H 0.7260 0.7913 0.2704
H86_2 H 0.7262 0.7860 0.1974
C64_2 C 0.6900(3) 0.7291(5) 0.2390(10)
C65_2 C 0.6702(5) 0.7170(7) 0.2980(8)
H87_2 H 0.6783 0.7321 0.3356
C66_2 C 0.6416(5) 0.6849(7) 0.2947(10)
H88_2 H 0.6283 0.6789 0.3315
C67_2 C 0.6289(3) 0.6594(4) 0.2456(10)
C68_2 C 0.6460(3) 0.6753(6) 0.1903(6)
H89_2 H 0.6366 0.6619 0.1528
C69_2 C 0.6766(5) 0.7102(7) 0.1904(9)
H90_2 H 0.6876 0.7202 0.1526
C70_2 C 0.5992(3) 0.6163(5) 0.2473(9)
C71_2 C 0.5735(5) 0.6174(7) 0.2861(10)
H91_2 H 0.5725 0.6458 0.3153
C72_2 C 0.5462(3) 0.5763(6) 0.2861(6)
H92_2 H 0.5298 0.5749 0.3200
N7_2 N 0.54171(19) 0.5398(3) 0.2428(7)
N8_2 N 0.45829(19) 0.5398(3) 0.2428(7)
C73_2 C 0.5672(5) 0.5450(7) 0.1976(7)
H93_2 H 0.5665 0.5204 0.1642
C74_2 C 0.5939(5) 0.5843(7) 0.1988(8)
H94_2 H 0.6092 0.5892 0.1639
C27_3 C 0.5566(5) 0.3950(8) 0.2950(8)
H43_3 H 0.5449 0.4029 0.3328
C28_3 C 0.5857(6) 0.3613(9) 0.2966(8)
H44_3 H 0.5928 0.3450 0.3341
C29_3 C 0.6063(3) 0.3496(4) 0.2435(10)
C30_3 C 0.5930(6) 0.3696(7) 0.1893(9)
H45_3 H 0.6040 0.3590 0.1517
C31_3 C 0.5634(6) 0.4055(8) 0.1904(10)
H46_3 H 0.5560 0.4228 0.1537
C32_3 C 0.6414(3) 0.3158(5) 0.2401(10)
C33_3 C 0.6570(4) 0.2943(6) 0.3004(6)
H47_3 H 0.6448 0.3005 0.3383
C34_3 C 0.6894(5) 0.2658(8) 0.2964(11)
H48_3 H 0.7008 0.2538 0.3330
N2_3 N 0.7054(3) 0.2543(4) 0.2458(10)
C35_3 C 0.6878(7) 0.2732(9) 0.1885(11)
H49_3 H 0.6986 0.2653 0.1500
C36_3 C 0.6557(7) 0.3020(9) 0.1928(13)
H50_3 H 0.6436 0.3121 0.1559
C37_3 C 0.7399(3) 0.2252(5) 0.2401(9)
H51_3 H 0.7430 0.2009 0.2757
H52_3 H 0.7391 0.2023 0.2030
C38_3 C 0.7744(4) 0.2653(5) 0.2361(9)
H53_3 H 0.7740 0.2913 0.2704
H54_3 H 0.7738 0.2860 0.1974
C39_3 C 0.8100(3) 0.2291(5) 0.2390(10)
C40_3 C 0.8298(5) 0.2170(7) 0.2980(8)
H55_3 H 0.8217 0.2321 0.3356
C41_3 C 0.8584(5) 0.1849(7) 0.2947(10)
H56_3 H 0.8717 0.1789 0.3315
C42_3 C 0.8711(3) 0.1594(4) 0.2456(10)
C43_3 C 0.8540(3) 0.1753(6) 0.1903(6)
H57_3 H 0.8634 0.1619 0.1528
C44_3 C 0.8234(5) 0.2102(7) 0.1904(9)
H58_3 H 0.8124 0.2202 0.1526
C45_3 C 0.9008(3) 0.1163(5) 0.2473(9)
C46_3 C 0.9265(5) 0.1174(7) 0.2861(10)
H59_3 H 0.9275 0.1458 0.3153
C47_3 C 0.9538(3) 0.0763(6) 0.2861(6)
H60_3 H 0.9702 0.0749 0.3200
N3_3 N 0.95829(19) 0.0398(3) 0.2428(7)
C48_3 C 0.9328(5) 0.0450(7) 0.1976(7)
H61_3 H 0.9335 0.0204 0.1642
C49_3 C 0.9061(5) 0.0843(7) 0.1988(8)
H62_3 H 0.8908 0.0892 0.1639
N4_3 N 0.0429(2) 0.9178(3) 0.2477(8)
C52_3 C 0.0566(5) 0.8950(8) 0.2950(8)
H75_3 H 0.0449 0.9029 0.3328
C53_3 C 0.0857(6) 0.8613(9) 0.2966(8)
H76_3 H 0.0928 0.8450 0.3341
C54_3 C 0.1063(3) 0.8496(4) 0.2435(10)
C55_3 C 0.0930(6) 0.8696(7) 0.1893(9)
H77_3 H 0.1040 0.8590 0.1517
C56_3 C 0.0634(6) 0.9055(8) 0.1904(10)
H78_3 H 0.0560 0.9228 0.1537
C57_3 C 0.1414(3) 0.8158(5) 0.2401(10)
C58_3 C 0.1570(4) 0.7943(6) 0.3004(6)
H79_3 H 0.1448 0.8005 0.3383
C59_3 C 0.1894(5) 0.7658(8) 0.2964(11)
H80_3 H 0.2008 0.7538 0.3330
N6_3 N 0.2054(3) 0.7543(4) 0.2458(10)
C60_3 C 0.1878(7) 0.7732(9) 0.1885(11)
H81_3 H 0.1986 0.7653 0.1500
C61_3 C 0.1557(7) 0.8020(9) 0.1928(13)
H82_3 H 0.1436 0.8121 0.1559
C62_3 C 0.2399(3) 0.7252(5) 0.2401(9)
H83_3 H 0.2430 0.7009 0.2757
H84_3 H 0.2391 0.7023 0.2030
C63_3 C 0.2744(4) 0.7653(5) 0.2361(9)
H85_3 H 0.2740 0.7913 0.2704
H86_3 H 0.2738 0.7860 0.1974
C64_3 C 0.3100(3) 0.7291(5) 0.2390(10)
C65_3 C 0.3298(5) 0.7170(7) 0.2980(8)
H87_3 H 0.3217 0.7321 0.3356
C66_3 C 0.3584(5) 0.6849(7) 0.2947(10)
H88_3 H 0.3717 0.6789 0.3315
C67_3 C 0.3711(3) 0.6594(4) 0.2456(10)
C68_3 C 0.3540(3) 0.6753(6) 0.1903(6)
H89_3 H 0.3634 0.6619 0.1528
C69_3 C 0.3234(5) 0.7102(7) 0.1904(9)
H90_3 H 0.3124 0.7202 0.1526
C70_3 C 0.4008(3) 0.6163(5) 0.2473(9)
C71_3 C 0.4265(5) 0.6174(7) 0.2861(10)
H91_3 H 0.4275 0.6458 0.3153
C72_3 C 0.4538(3) 0.5763(6) 0.2861(6)
H92_3 H 0.4702 0.5749 0.3200
C73_3 C 0.4328(5) 0.5450(7) 0.1976(7)
H93_3 H 0.4335 0.5204 0.1642
C74_3 C 0.4061(5) 0.5843(7) 0.1988(8)
H94_3 H 0.3908 0.5892 0.1639
C27_4 C 0.4434(5) 0.6050(8) 0.7950(8)
H43_4 H 0.4551 0.5971 0.8328
C28_4 C 0.4143(6) 0.6387(9) 0.7966(8)
H44_4 H 0.4072 0.6550 0.8341
C29_4 C 0.3937(3) 0.6504(4) 0.7435(10)
C30_4 C 0.4070(6) 0.6304(7) 0.6893(9)
H45_4 H 0.3960 0.6410 0.6517
C31_4 C 0.4366(6) 0.5945(8) 0.6904(10)
H46_4 H 0.4440 0.5772 0.6537
C32_4 C 0.3586(3) 0.6842(5) 0.7401(10)
C33_4 C 0.3430(4) 0.7057(6) 0.8004(6)
H47_4 H 0.3552 0.6995 0.8383
C34_4 C 0.3106(5) 0.7342(8) 0.7964(11)
H48_4 H 0.2992 0.7462 0.8330
N2_4 N 0.2946(3) 0.7457(4) 0.7458(10)
C35_4 C 0.3122(7) 0.7268(9) 0.6885(11)
H49_4 H 0.3014 0.7347 0.6500
C36_4 C 0.3443(7) 0.6980(9) 0.6928(13)
H50_4 H 0.3564 0.6879 0.6559
C37_4 C 0.2601(3) 0.7748(5) 0.7401(9)
H51_4 H 0.2570 0.7991 0.7757
H52_4 H 0.2609 0.7977 0.7030
C38_4 C 0.2256(4) 0.7347(5) 0.7361(9)
H53_4 H 0.2260 0.7087 0.7704
H54_4 H 0.2262 0.7140 0.6974
C39_4 C 0.1900(3) 0.7709(5) 0.7390(10)
C40_4 C 0.1702(5) 0.7830(7) 0.7980(8)
H55_4 H 0.1783 0.7679 0.8356
C41_4 C 0.1416(5) 0.8151(7) 0.7947(10)
H56_4 H 0.1283 0.8211 0.8315
C42_4 C 0.1289(3) 0.8406(4) 0.7456(10)
C43_4 C 0.1460(3) 0.8247(6) 0.6903(6)
H57_4 H 0.1366 0.8381 0.6528
C44_4 C 0.1766(5) 0.7898(7) 0.6904(9)
H58_4 H 0.1876 0.7798 0.6526
C45_4 C 0.0992(3) 0.8837(5) 0.7473(9)
C46_4 C 0.0735(5) 0.8826(7) 0.7861(10)
H59_4 H 0.0725 0.8542 0.8153
C47_4 C 0.0462(3) 0.9237(6) 0.7861(6)
H60_4 H 0.0298 0.9251 0.8200
N3_4 N 0.04171(19) 0.9602(3) 0.7428(7)
C48_4 C 0.0672(5) 0.9550(7) 0.6976(7)
H61_4 H 0.0665 0.9796 0.6642
C49_4 C 0.0939(5) 0.9157(7) 0.6988(8)
H62_4 H 0.1092 0.9108 0.6639
N4_4 N 0.9571(2) 0.0822(3) 0.7477(8)
C52_4 C 0.9434(5) 0.1050(8) 0.7950(8)
H75_4 H 0.9551 0.0971 0.8328
C53_4 C 0.9143(6) 0.1387(9) 0.7966(8)
H76_4 H 0.9072 0.1550 0.8341
C54_4 C 0.8937(3) 0.1504(4) 0.7435(10)
C55_4 C 0.9070(6) 0.1304(7) 0.6893(9)
H77_4 H 0.8960 0.1410 0.6517
C56_4 C 0.9366(6) 0.0945(8) 0.6904(10)
H78_4 H 0.9440 0.0772 0.6537
C57_4 C 0.8586(3) 0.1842(5) 0.7401(10)
C58_4 C 0.8430(4) 0.2057(6) 0.8004(6)
H79_4 H 0.8552 0.1995 0.8383
C59_4 C 0.8106(5) 0.2342(8) 0.7964(11)
H80_4 H 0.7992 0.2462 0.8330
N6_4 N 0.7946(3) 0.2457(4) 0.7458(10)
C60_4 C 0.8122(7) 0.2268(9) 0.6885(11)
H81_4 H 0.8014 0.2347 0.6500
C61_4 C 0.8443(7) 0.1980(9) 0.6928(13)
H82_4 H 0.8564 0.1879 0.6559
C62_4 C 0.7601(3) 0.2748(5) 0.7401(9)
H83_4 H 0.7570 0.2991 0.7757
H84_4 H 0.7609 0.2977 0.7030
C63_4 C 0.7256(4) 0.2347(5) 0.7361(9)
H85_4 H 0.7260 0.2087 0.7704
H86_4 H 0.7262 0.2140 0.6974
C64_4 C 0.6900(3) 0.2709(5) 0.7390(10)
C65_4 C 0.6702(5) 0.2830(7) 0.7980(8)
H87_4 H 0.6783 0.2679 0.8356
C66_4 C 0.6416(5) 0.3151(7) 0.7947(10)
H88_4 H 0.6283 0.3211 0.8315
C67_4 C 0.6289(3) 0.3406(4) 0.7456(10)
C68_4 C 0.6460(3) 0.3247(6) 0.6903(6)
H89_4 H 0.6366 0.3381 0.6528
C69_4 C 0.6766(5) 0.2898(7) 0.6904(9)
H90_4 H 0.6876 0.2798 0.6526
C70_4 C 0.5992(3) 0.3837(5) 0.7473(9)
C71_4 C 0.5735(5) 0.3826(7) 0.7861(10)
H91_4 H 0.5725 0.3542 0.8153
C72_4 C 0.5462(3) 0.4237(6) 0.7861(6)
H92_4 H 0.5298 0.4251 0.8200
C73_4 C 0.5672(5) 0.4550(7) 0.6976(7)
H93_4 H 0.5665 0.4796 0.6642
C74_4 C 0.5939(5) 0.4157(7) 0.6988(8)
H94_4 H 0.6092 0.4108 0.6639
Zn2_2 Zn 0.07329(3) 0.00051(13) 0.9950(3)
S3_3 S -0.0000 0.0054(3) 0.9063(4)
S4_3 S 0.0000 0.0084(2) 0.5846(3)
O15_3 O 0.0000 0.0231(5) 0.8393(6)
O16_3 O 0.0363(3) 0.0315(5) 0.9347(5)
O20_3 O 0.0000 0.0267(5) 0.6452(6)
O22_3 O 0.1168(3) 0.0282(6) 0.9450(6)
H35_3 H 0.1070 0.0520 0.9219
C26_3 C 0.1326(8) 0.0035(11) 0.8920(8)
H36_3 H 0.1503 0.0288 0.8730
O26_2 O 0.0316(2) 0.0298(3) 0.5550(4)
O21_3 O 0.1152(3) 0.9661(6) 0.0551(5)
H31_3 H 0.1289 0.9465 0.0322
C25_3 C 0.1439(6) 0.9984(10) 0.0822(13)
H32_3 H 0.1605 0.9750 0.1061
O27_2 O 0.0316(2) 0.9702(3) 0.0550(4)
O17_3 O 0.0000 0.9467(6) 0.9098(6)
O19_3 O 0.0000 0.9526(4) 0.5783(5)
H37_3 H 0.1128 0.9947 0.8630
H38_3 H 0.1457 0.9702 0.9037
O23_3 O 0.0713(3) 0.9243(5) 0.9427(5)
H39_3 H 0.0452 0.9176 0.9315
H40_3 H 0.0804 0.8944 0.9681
Zn7_2 Zn 0.07329(3) 0.99949(13) 0.4950(3)
S3_4 S 1.0000 0.0054(3) 0.9063(4)
S4_4 S 1.0000 0.0084(2) 0.5846(3)
O15_4 O 1.0000 0.0231(5) 0.8393(6)
O18_2 O 0.9684(2) 0.0298(3) 0.5550(4)
O20_4 O 1.0000 0.0267(5) 0.6452(6)
Zn5_2 Zn 0.92671(3) 0.00051(13) 0.9950(3)
O25_3 O 0.9637(3) 0.0315(5) 0.9347(5)
O30_3 O 0.8832(3) 0.0282(6) 0.9450(6)
H67_3 H 0.8930 0.0520 0.9219
C51_3 C 0.8674(8) 0.0035(11) 0.8920(8)
H68_3 H 0.8497 0.0288 0.8730
O28_2 O 0.9684(2) 0.9702(3) 0.0550(4)
O29_3 O 0.8848(3) 0.9661(6) 0.0551(5)
H63_3 H 0.8711 0.9465 0.0322
C50_3 C 0.8561(6) 0.9984(10) 0.0822(13)
H64_3 H 0.8395 0.9750 0.1061
O17_4 O 1.0000 0.9467(6) 0.9098(6)
O19_4 O 1.0000 0.9526(4) 0.5783(5)
Zn6_2 Zn 0.92671(3) 0.99949(13) 0.4950(3)
H69_3 H 0.8872 0.9947 0.8630
H70_3 H 0.8543 0.9702 0.9037
O31_3 O 0.9287(3) 0.9243(5) 0.9427(5)
H71_3 H 0.9548 0.9176 0.9315
H72_3 H 0.9196 0.8944 0.9681
O17_5 O 0.0000 0.0533(6) 0.4098(6)
O19_5 O 0.0000 0.0474(4) 0.0783(5)
O29_4 O 0.1152(3) 0.0339(6) 0.5551(5)
H63_4 H 0.1289 0.0535 0.5322
C50_4 C 0.1439(6) 0.0016(10) 0.5822(13)
H64_4 H 0.1605 0.0250 0.6061
H69_4 H 0.1128 0.0053 0.3630
H70_4 H 0.1457 0.0298 0.4037
O31_4 O 0.0713(3) 0.0757(5) 0.4427(5)
H71_4 H 0.0452 0.0824 0.4315
H72_4 H 0.0804 0.1056 0.4681
S3_5 S 0.0000 0.9946(3) 0.4063(4)
S4_5 S 0.0000 0.9916(2) 0.0846(3)
O15_5 O 0.0000 0.9769(5) 0.3393(6)
O20_5 O 0.0000 0.9733(5) 0.1452(6)
O25_4 O 0.0363(3) 0.9685(5) 0.4347(5)
H65_3 H 0.1326 0.9743 0.6090
H66_3 H 0.1582 0.9834 0.5502
O30_4 O 0.1168(3) 0.9718(6) 0.4450(6)
H67_4 H 0.1070 0.9480 0.4219
C51_4 C 0.1326(8) 0.9965(11) 0.3920(8)
H68_4 H 0.1503 0.9712 0.3730
O32_3 O 0.0710(2) 0.9325(4) 0.5438(5)
H73_3 H 0.0959 0.9159 0.5441
H74_3 H 0.0637 0.9417 0.5856
O17_6 O 1.0000 0.0533(6) 0.4098(6)
O19_6 O 1.0000 0.0474(4) 0.0783(5)
O21_4 O 0.8848(3) 0.0339(6) 0.5551(5)
H31_4 H 0.8711 0.0535 0.5322
C25_4 C 0.8561(6) 0.0016(10) 0.5822(13)
H32_4 H 0.8395 0.0250 0.6061
H37_4 H 0.8872 0.0053 0.3630
H38_4 H 0.8543 0.0298 0.4037
O23_4 O 0.9287(3) 0.0757(5) 0.4427(5)
H39_4 H 0.9548 0.0824 0.4315
H40_4 H 0.9196 0.1056 0.4681
S3_6 S 1.0000 0.9946(3) 0.4063(4)
S4_6 S 1.0000 0.9916(2) 0.0846(3)
O15_6 O 1.0000 0.9769(5) 0.3393(6)
O16_4 O 0.9637(3) 0.9685(5) 0.4347(5)
O20_6 O 1.0000 0.9733(5) 0.1452(6)
H33_3 H 0.8674 0.9743 0.6090
H34_3 H 0.8418 0.9834 0.5502
O22_4 O 0.8832(3) 0.9718(6) 0.4450(6)
H35_4 H 0.8930 0.9480 0.4219
C26_4 C 0.8674(8) 0.9965(11) 0.3920(8)
H36_4 H 0.8497 0.9712 0.3730
O24_3 O 0.9290(2) 0.9325(4) 0.5438(5)
H41_3 H 0.9041 0.9159 0.5441
H42_3 H 0.9363 0.9417 0.5856
H33_4 H 0.1326 0.0257 0.1090
H34_4 H 0.1582 0.0166 0.0502
O24_4 O 0.0710(2) 0.0675(4) 0.0438(5)
H41_4 H 0.0959 0.0841 0.0441
H42_4 H 0.0637 0.0583 0.0856
H65_4 H 0.8674 0.0257 0.1090
H66_4 H 0.8418 0.0166 0.0502
O32_4 O 0.9290(2) 0.0675(4) 0.0438(5)
H73_4 H 0.9041 0.0841 0.0441
H74_4 H 0.9363 0.0583 0.0856
loop_
_geom_bond_atom_site_label_1
_geom_bond_atom_site_label_2
_geom_bond_site_symmetry_1
_geom_bond_site_symmetry_2
S1 O9 1_555 1_555
O10 S1 1_555 1_555
S2 O12 1_555 1_555
O1 C6 1_555 1_555
O2 C8 1_555 1_555
O3 C10 1_555 1_555
O4 C12 1_555 1_555
O5 C18 1_555 1_555
O6 C20 1_555 1_555
O7 C22 1_555 1_555
O8 C1 1_555 1_555
O13 S2 1_555 1_555
O14 S2 1_555 1_555
C1 C2 1_555 1_555
C2 H1 1_555 1_555
C4 C3 1_555 1_555
H2 C4 1_555 1_555
C5 C4 1_555 1_555
H3 C5 1_555 1_555
C6 C1 1_555 1_555
C7 O1 1_555 1_555
H4 C7 1_555 1_555
H5 C7 1_555 1_555
C8 C7 1_555 1_555
H6 C8 1_555 1_555
H7 C8 1_555 1_555
C9 O2 1_555 1_555
H8 C9 1_555 1_555
H9 C9 1_555 1_555
C10 C9 1_555 1_555
H10 C10 1_555 1_555
H11 C10 1_555 1_555
C11 O3 1_555 1_555
H12 C11 1_555 1_555
H13 C11 1_555 1_555
C12 C11 1_555 1_555
H14 C12 1_555 1_555
H15 C12 1_555 1_555
C13 O4 1_555 1_555
C14 C13 1_555 1_555
H16 C14 1_555 1_555
C15 S2 1_555 1_555
C16 C15 1_555 1_555
H17 C16 1_555 1_555
C17 C16 1_555 1_555
H18 C17 1_555 1_555
C18 C13 1_555 1_555
C19 O5 1_555 1_555
H19 C19 1_555 1_555
H20 C19 1_555 1_555
C20 C19 1_555 1_555
H21 C20 1_555 1_555
H22 C20 1_555 1_555
C21 O6 1_555 1_555
H23 C21 1_555 1_555
H24 C21 1_555 1_555
C22 C21 1_555 1_555
H25 C22 1_555 1_555
H26 C22 1_555 1_555
C23 O7 1_555 1_555
H27 C23 1_555 1_555
H28 C23 1_555 1_555
C24 O8 1_555 1_555
H29 C24 1_555 1_555
H30 C24 1_555 1_555
C2 C3 1_555 1_555
C5 C6 1_555 1_555
C14 C15 1_555 1_555
C17 C18 1_555 1_555
C23 C24 1_555 1_555
S1_2 O9_2 1_555 1_555
O1_2 C6_2 1_555 1_555
O2_2 C8_2 1_555 1_555
O3_2 C10_2 1_555 1_555
O4_2 C12_2 1_555 1_555
O5_2 C18_2 1_555 1_555
O6_2 C20_2 1_555 1_555
O7_2 C22_2 1_555 1_555
O8_2 C1_2 1_555 1_555
O10_2 S1_2 1_555 1_555
O11_2 S1_2 1_555 1_555
C1_2 C2_2 1_555 1_555
C2_2 H1_2 1_555 1_555
C3_2 S1_2 1_555 1_555
C4_2 C3_2 1_555 1_555
H2_2 C4_2 1_555 1_555
C5_2 C4_2 1_555 1_555
H3_2 C5_2 1_555 1_555
C6_2 C1_2 1_555 1_555
C7_2 O1_2 1_555 1_555
H4_2 C7_2 1_555 1_555
H5_2 C7_2 1_555 1_555
C8_2 C7_2 1_555 1_555
H6_2 C8_2 1_555 1_555
H7_2 C8_2 1_555 1_555
C9_2 O2_2 1_555 1_555
H8_2 C9_2 1_555 1_555
H9_2 C9_2 1_555 1_555
C10_2 C9_2 1_555 1_555
H10_2 C10_2 1_555 1_555
H11_2 C10_2 1_555 1_555
C11_2 O3_2 1_555 1_555
H12_2 C11_2 1_555 1_555
H13_2 C11_2 1_555 1_555
C12_2 C11_2 1_555 1_555
H14_2 C12_2 1_555 1_555
H15_2 C12_2 1_555 1_555
C13_2 O4_2 1_555 1_555
C14_2 C13_2 1_555 1_555
H16_2 C14_2 1_555 1_555
C16_2 C15_2 1_555 1_555
H17_2 C16_2 1_555 1_555
C17_2 C16_2 1_555 1_555
H18_2 C17_2 1_555 1_555
C18_2 C13_2 1_555 1_555
C19_2 O5_2 1_555 1_555
H19_2 C19_2 1_555 1_555
H20_2 C19_2 1_555 1_555
C20_2 C19_2 1_555 1_555
H21_2 C20_2 1_555 1_555
H22_2 C20_2 1_555 1_555
C21_2 O6_2 1_555 1_555
H23_2 C21_2 1_555 1_555
H24_2 C21_2 1_555 1_555
C22_2 C21_2 1_555 1_555
H25_2 C22_2 1_555 1_555
H26_2 C22_2 1_555 1_555
C23_2 O7_2 1_555 1_555
H27_2 C23_2 1_555 1_555
H28_2 C23_2 1_555 1_555
C24_2 O8_2 1_555 1_555
H29_2 C24_2 1_555 1_555
H30_2 C24_2 1_555 1_555
C2_2 C3_2 1_555 1_555
C5_2 C6_2 1_555 1_555
C14_2 C15_2 1_555 1_555
C17_2 C18_2 1_555 1_555
C23_2 C24_2 1_555 1_555
O13_2 S2_2 1_555 1_555
O14_2 S2_2 1_555 1_555
S1_3 O9_3 1_555 1_555
O1_3 C6_3 1_555 1_555
O2_3 C8_3 1_555 1_555
O3_3 C10_3 1_555 1_555
O4_3 C12_3 1_555 1_555
O5_3 C18_3 1_555 1_555
O6_3 C20_3 1_555 1_555
O7_3 C22_3 1_555 1_555
O8_3 C1_3 1_555 1_555
O10_3 S1_3 1_555 1_555
O11_3 S1_3 1_555 1_555
C1_3 C2_3 1_555 1_555
C2_3 H1_3 1_555 1_555
C3_3 S1_3 1_555 1_555
C4_3 C3_3 1_555 1_555
H2_3 C4_3 1_555 1_555
C5_3 C4_3 1_555 1_555
H3_3 C5_3 1_555 1_555
C6_3 C1_3 1_555 1_555
C7_3 O1_3 1_555 1_555
H4_3 C7_3 1_555 1_555
H5_3 C7_3 1_555 1_555
C8_3 C7_3 1_555 1_555
H6_3 C8_3 1_555 1_555
H7_3 C8_3 1_555 1_555
C9_3 O2_3 1_555 1_555
H8_3 C9_3 1_555 1_555
H9_3 C9_3 1_555 1_555
C10_3 C9_3 1_555 1_555
H10_3 C10_3 1_555 1_555
H11_3 C10_3 1_555 1_555
C11_3 O3_3 1_555 1_555
H12_3 C11_3 1_555 1_555
H13_3 C11_3 1_555 1_555
C12_3 C11_3 1_555 1_555
H14_3 C12_3 1_555 1_555
H15_3 C12_3 1_555 1_555
C13_3 O4_3 1_555 1_555
C14_3 C13_3 1_555 1_555
H16_3 C14_3 1_555 1_555
C16_3 C15_3 1_555 1_555
H17_3 C16_3 1_555 1_555
C17_3 C16_3 1_555 1_555
H18_3 C17_3 1_555 1_555
C18_3 C13_3 1_555 1_555
C19_3 O5_3 1_555 1_555
H19_3 C19_3 1_555 1_555
H20_3 C19_3 1_555 1_555
C20_3 C19_3 1_555 1_555
H21_3 C20_3 1_555 1_555
H22_3 C20_3 1_555 1_555
C21_3 O6_3 1_555 1_555
H23_3 C21_3 1_555 1_555
H24_3 C21_3 1_555 1_555
C22_3 C21_3 1_555 1_555
H25_3 C22_3 1_555 1_555
H26_3 C22_3 1_555 1_555
C23_3 O7_3 1_555 1_555
H27_3 C23_3 1_555 1_555
H28_3 C23_3 1_555 1_555
C24_3 O8_3 1_555 1_555
H29_3 C24_3 1_555 1_555
H30_3 C24_3 1_555 1_555
C2_3 C3_3 1_555 1_555
C5_3 C6_3 1_555 1_555
C14_3 C15_3 1_555 1_555
C17_3 C18_3 1_555 1_555
C23_3 C24_3 1_555 1_555
O13_3 S2_3 1_555 1_555
O14_3 S2_3 1_555 1_555
S1_4 O9_4 1_555 1_555
O10_4 S1_4 1_555 1_555
S2_4 O12_4 1_555 1_555
O1_4 C6_4 1_555 1_555
O2_4 C8_4 1_555 1_555
O3_4 C10_4 1_555 1_555
O4_4 C12_4 1_555 1_555
O5_4 C18_4 1_555 1_555
O6_4 C20_4 1_555 1_555
O7_4 C22_4 1_555 1_555
O8_4 C1_4 1_555 1_555
O13_4 S2_4 1_555 1_555
O14_4 S2_4 1_555 1_555
C1_4 C2_4 1_555 1_555
C2_4 H1_4 1_555 1_555
C4_4 C3_4 1_555 1_555
H2_4 C4_4 1_555 1_555
C5_4 C4_4 1_555 1_555
H3_4 C5_4 1_555 1_555
C6_4 C1_4 1_555 1_555
C7_4 O1_4 1_555 1_555
H4_4 C7_4 1_555 1_555
H5_4 C7_4 1_555 1_555
C8_4 C7_4 1_555 1_555
H6_4 C8_4 1_555 1_555
H7_4 C8_4 1_555 1_555
C9_4 O2_4 1_555 1_555
H8_4 C9_4 1_555 1_555
H9_4 C9_4 1_555 1_555
C10_4 C9_4 1_555 1_555
H10_4 C10_4 1_555 1_555
H11_4 C10_4 1_555 1_555
C11_4 O3_4 1_555 1_555
H12_4 C11_4 1_555 1_555
H13_4 C11_4 1_555 1_555
C12_4 C11_4 1_555 1_555
H14_4 C12_4 1_555 1_555
H15_4 C12_4 1_555 1_555
C13_4 O4_4 1_555 1_555
C14_4 C13_4 1_555 1_555
H16_4 C14_4 1_555 1_555
C15_4 S2_4 1_555 1_555
C16_4 C15_4 1_555 1_555
H17_4 C16_4 1_555 1_555
C17_4 C16_4 1_555 1_555
H18_4 C17_4 1_555 1_555
C18_4 C13_4 1_555 1_555
C19_4 O5_4 1_555 1_555
H19_4 C19_4 1_555 1_555
H20_4 C19_4 1_555 1_555
C20_4 C19_4 1_555 1_555
H21_4 C20_4 1_555 1_555
H22_4 C20_4 1_555 1_555
C21_4 O6_4 1_555 1_555
H23_4 C21_4 1_555 1_555
H24_4 C21_4 1_555 1_555
C22_4 C21_4 1_555 1_555
H25_4 C22_4 1_555 1_555
H26_4 C22_4 1_555 1_555
C23_4 O7_4 1_555 1_555
H27_4 C23_4 1_555 1_555
H28_4 C23_4 1_555 1_555
C24_4 O8_4 1_555 1_555
H29_4 C24_4 1_555 1_555
H30_4 C24_4 1_555 1_555
C2_4 C3_4 1_555 1_555
C5_4 C6_4 1_555 1_555
C14_4 C15_4 1_555 1_555
C17_4 C18_4 1_555 1_555
C23_4 C24_4 1_555 1_555
S1_5 O9_5 1_555 1_555
O10_5 S1_5 1_555 1_555
S2_5 O12_5 1_555 1_555
O1_5 C6_5 1_555 1_555
O2_5 C8_5 1_555 1_555
O3_5 C10_5 1_555 1_555
O4_5 C12_5 1_555 1_555
O5_5 C18_5 1_555 1_555
O6_5 C20_5 1_555 1_555
O7_5 C22_5 1_555 1_555
O8_5 C1_5 1_555 1_555
O13_5 S2_5 1_555 1_555
O14_5 S2_5 1_555 1_555
C1_5 C2_5 1_555 1_555
C2_5 H1_5 1_555 1_555
C4_5 C3_5 1_555 1_555
H2_5 C4_5 1_555 1_555
C5_5 C4_5 1_555 1_555
H3_5 C5_5 1_555 1_555
C6_5 C1_5 1_555 1_555
C7_5 O1_5 1_555 1_555
H4_5 C7_5 1_555 1_555
H5_5 C7_5 1_555 1_555
C8_5 C7_5 1_555 1_555
H6_5 C8_5 1_555 1_555
H7_5 C8_5 1_555 1_555
C9_5 O2_5 1_555 1_555
H8_5 C9_5 1_555 1_555
H9_5 C9_5 1_555 1_555
C10_5 C9_5 1_555 1_555
H10_5 C10_5 1_555 1_555
H11_5 C10_5 1_555 1_555
C11_5 O3_5 1_555 1_555
H12_5 C11_5 1_555 1_555
H13_5 C11_5 1_555 1_555
C12_5 C11_5 1_555 1_555
H14_5 C12_5 1_555 1_555
H15_5 C12_5 1_555 1_555
C13_5 O4_5 1_555 1_555
C14_5 C13_5 1_555 1_555
H16_5 C14_5 1_555 1_555
C15_5 S2_5 1_555 1_555
C16_5 C15_5 1_555 1_555
H17_5 C16_5 1_555 1_555
C17_5 C16_5 1_555 1_555
H18_5 C17_5 1_555 1_555
C18_5 C13_5 1_555 1_555
C19_5 O5_5 1_555 1_555
H19_5 C19_5 1_555 1_555
H20_5 C19_5 1_555 1_555
C20_5 C19_5 1_555 1_555
H21_5 C20_5 1_555 1_555
H22_5 C20_5 1_555 1_555
C21_5 O6_5 1_555 1_555
H23_5 C21_5 1_555 1_555
H24_5 C21_5 1_555 1_555
C22_5 C21_5 1_555 1_555
H25_5 C22_5 1_555 1_555
H26_5 C22_5 1_555 1_555
C23_5 O7_5 1_555 1_555
H27_5 C23_5 1_555 1_555
H28_5 C23_5 1_555 1_555
C24_5 O8_5 1_555 1_555
H29_5 C24_5 1_555 1_555
H30_5 C24_5 1_555 1_555
C2_5 C3_5 1_555 1_555
C5_5 C6_5 1_555 1_555
C14_5 C15_5 1_555 1_555
C17_5 C18_5 1_555 1_555
C23_5 C24_5 1_555 1_555
S1_6 O9_6 1_555 1_555
O1_6 C6_6 1_555 1_555
O2_6 C8_6 1_555 1_555
O3_6 C10_6 1_555 1_555
O4_6 C12_6 1_555 1_555
O5_6 C18_6 1_555 1_555
O6_6 C20_6 1_555 1_555
O7_6 C22_6 1_555 1_555
O8_6 C1_6 1_555 1_555
O10_6 S1_6 1_555 1_555
O11_6 S1_6 1_555 1_555
C1_6 C2_6 1_555 1_555
C2_6 H1_6 1_555 1_555
C3_6 S1_6 1_555 1_555
C4_6 C3_6 1_555 1_555
H2_6 C4_6 1_555 1_555
C5_6 C4_6 1_555 1_555
H3_6 C5_6 1_555 1_555
C6_6 C1_6 1_555 1_555
C7_6 O1_6 1_555 1_555
H4_6 C7_6 1_555 1_555
H5_6 C7_6 1_555 1_555
C8_6 C7_6 1_555 1_555
H6_6 C8_6 1_555 1_555
H7_6 C8_6 1_555 1_555
C9_6 O2_6 1_555 1_555
H8_6 C9_6 1_555 1_555
H9_6 C9_6 1_555 1_555
C10_6 C9_6 1_555 1_555
H10_6 C10_6 1_555 1_555
H11_6 C10_6 1_555 1_555
C11_6 O3_6 1_555 1_555
H12_6 C11_6 1_555 1_555
H13_6 C11_6 1_555 1_555
C12_6 C11_6 1_555 1_555
H14_6 C12_6 1_555 1_555
H15_6 C12_6 1_555 1_555
C13_6 O4_6 1_555 1_555
C14_6 C13_6 1_555 1_555
H16_6 C14_6 1_555 1_555
C16_6 C15_6 1_555 1_555
H17_6 C16_6 1_555 1_555
C17_6 C16_6 1_555 1_555
H18_6 C17_6 1_555 1_555
C18_6 C13_6 1_555 1_555
C19_6 O5_6 1_555 1_555
H19_6 C19_6 1_555 1_555
H20_6 C19_6 1_555 1_555
C20_6 C19_6 1_555 1_555
H21_6 C20_6 1_555 1_555
H22_6 C20_6 1_555 1_555
C21_6 O6_6 1_555 1_555
H23_6 C21_6 1_555 1_555
H24_6 C21_6 1_555 1_555
C22_6 C21_6 1_555 1_555
H25_6 C22_6 1_555 1_555
H26_6 C22_6 1_555 1_555
C23_6 O7_6 1_555 1_555
H27_6 C23_6 1_555 1_555
H28_6 C23_6 1_555 1_555
C24_6 O8_6 1_555 1_555
H29_6 C24_6 1_555 1_555
H30_6 C24_6 1_555 1_555
C2_6 C3_6 1_555 1_555
C5_6 C6_6 1_555 1_555
C14_6 C15_6 1_555 1_555
C17_6 C18_6 1_555 1_555
C23_6 C24_6 1_555 1_555
O13_6 S2_6 1_555 1_555
O14_6 S2_6 1_555 1_555
S1_7 O9_7 1_555 1_555
O1_7 C6_7 1_555 1_555
O2_7 C8_7 1_555 1_555
O3_7 C10_7 1_555 1_555
O4_7 C12_7 1_555 1_555
O5_7 C18_7 1_555 1_555
O6_7 C20_7 1_555 1_555
O7_7 C22_7 1_555 1_555
O8_7 C1_7 1_555 1_555
O10_7 S1_7 1_555 1_555
O11_7 S1_7 1_555 1_555
C1_7 C2_7 1_555 1_555
C2_7 H1_7 1_555 1_555
C3_7 S1_7 1_555 1_555
C4_7 C3_7 1_555 1_555
H2_7 C4_7 1_555 1_555
C5_7 C4_7 1_555 1_555
H3_7 C5_7 1_555 1_555
C6_7 C1_7 1_555 1_555
C7_7 O1_7 1_555 1_555
H4_7 C7_7 1_555 1_555
H5_7 C7_7 1_555 1_555
C8_7 C7_7 1_555 1_555
H6_7 C8_7 1_555 1_555
H7_7 C8_7 1_555 1_555
C9_7 O2_7 1_555 1_555
H8_7 C9_7 1_555 1_555
H9_7 C9_7 1_555 1_555
C10_7 C9_7 1_555 1_555
H10_7 C10_7 1_555 1_555
H11_7 C10_7 1_555 1_555
C11_7 O3_7 1_555 1_555
H12_7 C11_7 1_555 1_555
H13_7 C11_7 1_555 1_555
C12_7 C11_7 1_555 1_555
H14_7 C12_7 1_555 1_555
H15_7 C12_7 1_555 1_555
C13_7 O4_7 1_555 1_555
C14_7 C13_7 1_555 1_555
H16_7 C14_7 1_555 1_555
C16_7 C15_7 1_555 1_555
H17_7 C16_7 1_555 1_555
C17_7 C16_7 1_555 1_555
H18_7 C17_7 1_555 1_555
C18_7 C13_7 1_555 1_555
C19_7 O5_7 1_555 1_555
H19_7 C19_7 1_555 1_555
H20_7 C19_7 1_555 1_555
C20_7 C19_7 1_555 1_555
H21_7 C20_7 1_555 1_555
H22_7 C20_7 1_555 1_555
C21_7 O6_7 1_555 1_555
H23_7 C21_7 1_555 1_555
H24_7 C21_7 1_555 1_555
C22_7 C21_7 1_555 1_555
H25_7 C22_7 1_555 1_555
H26_7 C22_7 1_555 1_555
C23_7 O7_7 1_555 1_555
H27_7 C23_7 1_555 1_555
H28_7 C23_7 1_555 1_555
C24_7 O8_7 1_555 1_555
H29_7 C24_7 1_555 1_555
H30_7 C24_7 1_555 1_555
C2_7 C3_7 1_555 1_555
C5_7 C6_7 1_555 1_555
C14_7 C15_7 1_555 1_555
C17_7 C18_7 1_555 1_555
C23_7 C24_7 1_555 1_555
O13_7 S2_7 1_555 1_555
O14_7 S2_7 1_555 1_555
S1_8 O9_8 1_555 1_555
O10_8 S1_8 1_555 1_555
S2_8 O12_8 1_555 1_555
O1_8 C6_8 1_555 1_555
O2_8 C8_8 1_555 1_555
O3_8 C10_8 1_555 1_555
O4_8 C12_8 1_555 1_555
O5_8 C18_8 1_555 1_555
O6_8 C20_8 1_555 1_555
O7_8 C22_8 1_555 1_555
O8_8 C1_8 1_555 1_555
O13_8 S2_8 1_555 1_555
O14_8 S2_8 1_555 1_555
C1_8 C2_8 1_555 1_555
C2_8 H1_8 1_555 1_555
C4_8 C3_8 1_555 1_555
H2_8 C4_8 1_555 1_555
C5_8 C4_8 1_555 1_555
H3_8 C5_8 1_555 1_555
C6_8 C1_8 1_555 1_555
C7_8 O1_8 1_555 1_555
H4_8 C7_8 1_555 1_555
H5_8 C7_8 1_555 1_555
C8_8 C7_8 1_555 1_555
H6_8 C8_8 1_555 1_555
H7_8 C8_8 1_555 1_555
C9_8 O2_8 1_555 1_555
H8_8 C9_8 1_555 1_555
H9_8 C9_8 1_555 1_555
C10_8 C9_8 1_555 1_555
H10_8 C10_8 1_555 1_555
H11_8 C10_8 1_555 1_555
C11_8 O3_8 1_555 1_555
H12_8 C11_8 1_555 1_555
H13_8 C11_8 1_555 1_555
C12_8 C11_8 1_555 1_555
H14_8 C12_8 1_555 1_555
H15_8 C12_8 1_555 1_555
C13_8 O4_8 1_555 1_555
C14_8 C13_8 1_555 1_555
H16_8 C14_8 1_555 1_555
C15_8 S2_8 1_555 1_555
C16_8 C15_8 1_555 1_555
H17_8 C16_8 1_555 1_555
C17_8 C16_8 1_555 1_555
H18_8 C17_8 1_555 1_555
C18_8 C13_8 1_555 1_555
C19_8 O5_8 1_555 1_555
H19_8 C19_8 1_555 1_555
H20_8 C19_8 1_555 1_555
C20_8 C19_8 1_555 1_555
H21_8 C20_8 1_555 1_555
H22_8 C20_8 1_555 1_555
C21_8 O6_8 1_555 1_555
H23_8 C21_8 1_555 1_555
H24_8 C21_8 1_555 1_555
C22_8 C21_8 1_555 1_555
H25_8 C22_8 1_555 1_555
H26_8 C22_8 1_555 1_555
C23_8 O7_8 1_555 1_555
H27_8 C23_8 1_555 1_555
H28_8 C23_8 1_555 1_555
C24_8 O8_8 1_555 1_555
H29_8 C24_8 1_555 1_555
H30_8 C24_8 1_555 1_555
C2_8 C3_8 1_555 1_555
C5_8 C6_8 1_555 1_555
C14_8 C15_8 1_555 1_555
C17_8 C18_8 1_555 1_555
C23_8 C24_8 1_555 1_555
H31 O21 1_555 1_555
C25 O21 1_555 1_555
H32 C25 1_555 1_555
H33 C25 1_555 1_555
H34 C25 1_555 1_555
H41 O24 1_555 1_555
H42 O24 1_555 1_555
H63 O29 1_555 1_555
C50 O29 1_555 1_555
H64 C50 1_555 1_555
H65 C50 1_555 1_555
H66 C50 1_555 1_555
H73 O32 1_555 1_555
H74 O32 1_555 1_555
Zn1 O15 1_555 1_555
Zn2 O16 1_555 1_555
S3 O15 1_555 1_555
S4 O18 1_555 1_555
O16 S3 1_555 1_555
O17 S3 1_555 1_555
O18 Zn6 1_555 1_555
O19 S4 1_555 1_555
O20 Zn1 1_555 1_555
O22 Zn2 1_555 1_555
H35 O22 1_555 1_555
C26 O22 1_555 1_555
H36 C26 1_555 1_555
H37 C26 1_555 1_555
H38 C26 1_555 1_555
O23 Zn2 1_555 1_555
H39 O23 1_555 1_555
H40 O23 1_555 1_555
N1 Zn1 1_555 1_555
C27 N1 1_555 1_555
H43 C27 1_555 1_555
C28 C27 1_555 1_555
H44 C28 1_555 1_555
C29 C28 1_555 1_555
C30 C29 1_555 1_555
H45 C30 1_555 1_555
C31 N1 1_555 1_555
H46 C31 1_555 1_555
C32 C29 1_555 1_555
C33 C32 1_555 1_555
H47 C33 1_555 1_555
C34 C33 1_555 1_555
H48 C34 1_555 1_555
N2 C34 1_555 1_555
C35 N2 1_555 1_555
H49 C35 1_555 1_555
C36 C32 1_555 1_555
H50 C36 1_555 1_555
C37 N2 1_555 1_555
H51 C37 1_555 1_555
H52 C37 1_555 1_555
C38 C37 1_555 1_555
H53 C38 1_555 1_555
H54 C38 1_555 1_555
C39 C38 1_555 1_555
C40 C39 1_555 1_555
H55 C40 1_555 1_555
C41 C40 1_555 1_555
H56 C41 1_555 1_555
C42 C41 1_555 1_555
C43 C42 1_555 1_555
H57 C43 1_555 1_555
C44 C39 1_555 1_555
H58 C44 1_555 1_555
C45 C42 1_555 1_555
C46 C45 1_555 1_555
H59 C46 1_555 1_555
C47 C46 1_555 1_555
H60 C47 1_555 1_555
N3 C47 1_555 1_555
C48 N3 1_555 1_555
H61 C48 1_555 1_555
C49 C45 1_555 1_555
H62 C49 1_555 1_555
Zn3 N4 1_555 1_555
Zn5 O25 1_555 1_555
Zn7 O26 1_555 1_555
O25 S3 1_555 1_555
O26 S4 1_555 1_555
O30 Zn5 1_555 1_555
H67 O30 1_555 1_555
C51 O30 1_555 1_555
H68 C51 1_555 1_555
H69 C51 1_555 1_555
H70 C51 1_555 1_555
O31 Zn5 1_555 1_555
H71 O31 1_555 1_555
H72 O31 1_555 1_555
N4 C52 1_555 1_555
N5 Zn1 1_555 1_555
C52 H75 1_555 1_555
C53 C52 1_555 1_555
H76 C53 1_555 1_555
C54 C53 1_555 1_555
C55 C54 1_555 1_555
H77 C55 1_555 1_555
C56 N4 1_555 1_555
H78 C56 1_555 1_555
C57 C54 1_555 1_555
C58 C57 1_555 1_555
H79 C58 1_555 1_555
C59 C58 1_555 1_555
H80 C59 1_555 1_555
N6 C59 1_555 1_555
C60 N6 1_555 1_555
H81 C60 1_555 1_555
C61 C57 1_555 1_555
H82 C61 1_555 1_555
C62 N6 1_555 1_555
H83 C62 1_555 1_555
H84 C62 1_555 1_555
C63 C62 1_555 1_555
H85 C63 1_555 1_555
H86 C63 1_555 1_555
C64 C63 1_555 1_555
C65 C64 1_555 1_555
H87 C65 1_555 1_555
C66 C65 1_555 1_555
H88 C66 1_555 1_555
C67 C66 1_555 1_555
C68 C67 1_555 1_555
H89 C68 1_555 1_555
C69 C64 1_555 1_555
H90 C69 1_555 1_555
C70 C67 1_555 1_555
C71 C70 1_555 1_555
H91 C71 1_555 1_555
C72 C71 1_555 1_555
H92 C72 1_555 1_555
N7 Zn1 1_555 1_555
N8 Zn1 1_555 1_555
C73 N7 1_555 1_555
H93 C73 1_555 1_555
C74 C70 1_555 1_555
H94 C74 1_555 1_555
S4 O20 1_555 1_555
C30 C31 1_555 1_555
C35 C36 1_555 1_555
C43 C44 1_555 1_555
C48 C49 1_555 1_555
C55 C56 1_555 1_555
C60 C61 1_555 1_555
C68 C69 1_555 1_555
C72 N7 1_555 1_555
C73 C74 1_555 1_555
Zn1_2 O15_2 1_555 1_555
Zn6 O16_2 1_555 1_555
S3_2 O15_2 1_555 1_555
S4_2 O27 1_555 1_555
O16_2 S3_2 1_555 1_555
O17_2 S3_2 1_555 1_555
O19_2 S4_2 1_555 1_555
O20_2 Zn1_2 1_555 1_555
O21_2 Zn6 1_555 1_555
H31_2 O21_2 1_555 1_555
C25_2 O21_2 1_555 1_555
H32_2 C25_2 1_555 1_555
H33_2 C25_2 1_555 1_555
H34_2 C25_2 1_555 1_555
O22_2 Zn6 1_555 1_555
H35_2 O22_2 1_555 1_555
C26_2 O22_2 1_555 1_555
H36_2 C26_2 1_555 1_555
H37_2 C26_2 1_555 1_555
H38_2 C26_2 1_555 1_555
O23_2 Zn6 1_555 1_555
H39_2 O23_2 1_555 1_555
H40_2 O23_2 1_555 1_555
O24_2 Zn6 1_555 1_555
H41_2 O24_2 1_555 1_555
H42_2 O24_2 1_555 1_555
N1_2 Zn1_2 1_555 1_555
C27_2 N1_2 1_555 1_555
H43_2 C27_2 1_555 1_555
C28_2 C27_2 1_555 1_555
H44_2 C28_2 1_555 1_555
C29_2 C28_2 1_555 1_555
C30_2 C29_2 1_555 1_555
H45_2 C30_2 1_555 1_555
C31_2 N1_2 1_555 1_555
H46_2 C31_2 1_555 1_555
C32_2 C29_2 1_555 1_555
C33_2 C32_2 1_555 1_555
H47_2 C33_2 1_555 1_555
C34_2 C33_2 1_555 1_555
H48_2 C34_2 1_555 1_555
N2_2 C34_2 1_555 1_555
C35_2 N2_2 1_555 1_555
H49_2 C35_2 1_555 1_555
C36_2 C32_2 1_555 1_555
H50_2 C36_2 1_555 1_555
C37_2 N2_2 1_555 1_555
H51_2 C37_2 1_555 1_555
H52_2 C37_2 1_555 1_555
C38_2 C37_2 1_555 1_555
H53_2 C38_2 1_555 1_555
H54_2 C38_2 1_555 1_555
C39_2 C38_2 1_555 1_555
C40_2 C39_2 1_555 1_555
H55_2 C40_2 1_555 1_555
C41_2 C40_2 1_555 1_555
H56_2 C41_2 1_555 1_555
C42_2 C41_2 1_555 1_555
C43_2 C42_2 1_555 1_555
H57_2 C43_2 1_555 1_555
C44_2 C39_2 1_555 1_555
H58_2 C44_2 1_555 1_555
C45_2 C42_2 1_555 1_555
C46_2 C45_2 1_555 1_555
H59_2 C46_2 1_555 1_555
C47_2 C46_2 1_555 1_555
H60_2 C47_2 1_555 1_555
N3_2 C47_2 1_555 1_555
C48_2 N3_2 1_555 1_555
H61_2 C48_2 1_555 1_555
C49_2 C45_2 1_555 1_555
H62_2 C49_2 1_555 1_555
Zn4_2 N4_2 1_555 1_555
Zn7 O25_2 1_555 1_555
O25_2 S3_2 1_555 1_555
O28 S4_2 1_555 1_555
O29_2 Zn7 1_555 1_555
H63_2 O29_2 1_555 1_555
C50_2 O29_2 1_555 1_555
H64_2 C50_2 1_555 1_555
H65_2 C50_2 1_555 1_555
H66_2 C50_2 1_555 1_555
O30_2 Zn7 1_555 1_555
H67_2 O30_2 1_555 1_555
C51_2 O30_2 1_555 1_555
H68_2 C51_2 1_555 1_555
H69_2 C51_2 1_555 1_555
H70_2 C51_2 1_555 1_555
O31_2 Zn7 1_555 1_555
H71_2 O31_2 1_555 1_555
H72_2 O31_2 1_555 1_555
O32_2 Zn7 1_555 1_555
H73_2 O32_2 1_555 1_555
H74_2 O32_2 1_555 1_555
N4_2 C52_2 1_555 1_555
N5_2 Zn1_2 1_555 1_555
C52_2 H75_2 1_555 1_555
C53_2 C52_2 1_555 1_555
H76_2 C53_2 1_555 1_555
C54_2 C53_2 1_555 1_555
C55_2 C54_2 1_555 1_555
H77_2 C55_2 1_555 1_555
C56_2 N4_2 1_555 1_555
H78_2 C56_2 1_555 1_555
C57_2 C54_2 1_555 1_555
C58_2 C57_2 1_555 1_555
H79_2 C58_2 1_555 1_555
C59_2 C58_2 1_555 1_555
H80_2 C59_2 1_555 1_555
N6_2 C59_2 1_555 1_555
C60_2 N6_2 1_555 1_555
H81_2 C60_2 1_555 1_555
C61_2 C57_2 1_555 1_555
H82_2 C61_2 1_555 1_555
C62_2 N6_2 1_555 1_555
H83_2 C62_2 1_555 1_555
H84_2 C62_2 1_555 1_555
C63_2 C62_2 1_555 1_555
H85_2 C63_2 1_555 1_555
H86_2 C63_2 1_555 1_555
C64_2 C63_2 1_555 1_555
C65_2 C64_2 1_555 1_555
H87_2 C65_2 1_555 1_555
C66_2 C65_2 1_555 1_555
H88_2 C66_2 1_555 1_555
C67_2 C66_2 1_555 1_555
C68_2 C67_2 1_555 1_555
H89_2 C68_2 1_555 1_555
C69_2 C64_2 1_555 1_555
H90_2 C69_2 1_555 1_555
C70_2 C67_2 1_555 1_555
C71_2 C70_2 1_555 1_555
H91_2 C71_2 1_555 1_555
C72_2 C71_2 1_555 1_555
H92_2 C72_2 1_555 1_555
N7_2 Zn1_2 1_555 1_555
N8_2 Zn1_2 1_555 1_555
C73_2 N7_2 1_555 1_555
H93_2 C73_2 1_555 1_555
C74_2 C70_2 1_555 1_555
H94_2 C74_2 1_555 1_555
S4_2 O20_2 1_555 1_555
C30_2 C31_2 1_555 1_555
C35_2 C36_2 1_555 1_555
C43_2 C44_2 1_555 1_555
C48_2 C49_2 1_555 1_555
C55_2 C56_2 1_555 1_555
C60_2 C61_2 1_555 1_555
C68_2 C69_2 1_555 1_555
C72_2 N7_2 1_555 1_555
C73_2 C74_2 1_555 1_555
C27_3 N5_2 1_555 1_555
H43_3 C27_3 1_555 1_555
C28_3 C27_3 1_555 1_555
H44_3 C28_3 1_555 1_555
C29_3 C28_3 1_555 1_555
C30_3 C29_3 1_555 1_555
H45_3 C30_3 1_555 1_555
C31_3 N5_2 1_555 1_555
H46_3 C31_3 1_555 1_555
C32_3 C29_3 1_555 1_555
C33_3 C32_3 1_555 1_555
H47_3 C33_3 1_555 1_555
C34_3 C33_3 1_555 1_555
H48_3 C34_3 1_555 1_555
N2_3 C34_3 1_555 1_555
C35_3 N2_3 1_555 1_555
H49_3 C35_3 1_555 1_555
C36_3 C32_3 1_555 1_555
H50_3 C36_3 1_555 1_555
C37_3 N2_3 1_555 1_555
H51_3 C37_3 1_555 1_555
H52_3 C37_3 1_555 1_555
C38_3 C37_3 1_555 1_555
H53_3 C38_3 1_555 1_555
H54_3 C38_3 1_555 1_555
C39_3 C38_3 1_555 1_555
C40_3 C39_3 1_555 1_555
H55_3 C40_3 1_555 1_555
C41_3 C40_3 1_555 1_555
H56_3 C41_3 1_555 1_555
C42_3 C41_3 1_555 1_555
C43_3 C42_3 1_555 1_555
H57_3 C43_3 1_555 1_555
C44_3 C39_3 1_555 1_555
H58_3 C44_3 1_555 1_555
C45_3 C42_3 1_555 1_555
C46_3 C45_3 1_555 1_555
H59_3 C46_3 1_555 1_555
C47_3 C46_3 1_555 1_555
H60_3 C47_3 1_555 1_555
N3_3 C47_3 1_555 1_555
C48_3 N3_3 1_555 1_555
H61_3 C48_3 1_555 1_555
C49_3 C45_3 1_555 1_555
H62_3 C49_3 1_555 1_555
Zn4 N4_3 1_555 1_555
N4_3 C52_3 1_555 1_555
C52_3 H75_3 1_555 1_555
C53_3 C52_3 1_555 1_555
H76_3 C53_3 1_555 1_555
C54_3 C53_3 1_555 1_555
C55_3 C54_3 1_555 1_555
H77_3 C55_3 1_555 1_555
C56_3 N4_3 1_555 1_555
H78_3 C56_3 1_555 1_555
C57_3 C54_3 1_555 1_555
C58_3 C57_3 1_555 1_555
H79_3 C58_3 1_555 1_555
C59_3 C58_3 1_555 1_555
H80_3 C59_3 1_555 1_555
N6_3 C59_3 1_555 1_555
C60_3 N6_3 1_555 1_555
H81_3 C60_3 1_555 1_555
C61_3 C57_3 1_555 1_555
H82_3 C61_3 1_555 1_555
C62_3 N6_3 1_555 1_555
H83_3 C62_3 1_555 1_555
H84_3 C62_3 1_555 1_555
C63_3 C62_3 1_555 1_555
H85_3 C63_3 1_555 1_555
H86_3 C63_3 1_555 1_555
C64_3 C63_3 1_555 1_555
C65_3 C64_3 1_555 1_555
H87_3 C65_3 1_555 1_555
C66_3 C65_3 1_555 1_555
H88_3 C66_3 1_555 1_555
C67_3 C66_3 1_555 1_555
C68_3 C67_3 1_555 1_555
H89_3 C68_3 1_555 1_555
C69_3 C64_3 1_555 1_555
H90_3 C69_3 1_555 1_555
C70_3 C67_3 1_555 1_555
C71_3 C70_3 1_555 1_555
H91_3 C71_3 1_555 1_555
C72_3 C71_3 1_555 1_555
H92_3 C72_3 1_555 1_555
C73_3 N8_2 1_555 1_555
H93_3 C73_3 1_555 1_555
C74_3 C70_3 1_555 1_555
H94_3 C74_3 1_555 1_555
C30_3 C31_3 1_555 1_555
C35_3 C36_3 1_555 1_555
C43_3 C44_3 1_555 1_555
C48_3 C49_3 1_555 1_555
C55_3 C56_3 1_555 1_555
C60_3 C61_3 1_555 1_555
C68_3 C69_3 1_555 1_555
C72_3 N8_2 1_555 1_555
C73_3 C74_3 1_555 1_555
C27_4 N5 1_555 1_555
H43_4 C27_4 1_555 1_555
C28_4 C27_4 1_555 1_555
H44_4 C28_4 1_555 1_555
C29_4 C28_4 1_555 1_555
C30_4 C29_4 1_555 1_555
H45_4 C30_4 1_555 1_555
C31_4 N5 1_555 1_555
H46_4 C31_4 1_555 1_555
C32_4 C29_4 1_555 1_555
C33_4 C32_4 1_555 1_555
H47_4 C33_4 1_555 1_555
C34_4 C33_4 1_555 1_555
H48_4 C34_4 1_555 1_555
N2_4 C34_4 1_555 1_555
C35_4 N2_4 1_555 1_555
H49_4 C35_4 1_555 1_555
C36_4 C32_4 1_555 1_555
H50_4 C36_4 1_555 1_555
C37_4 N2_4 1_555 1_555
H51_4 C37_4 1_555 1_555
H52_4 C37_4 1_555 1_555
C38_4 C37_4 1_555 1_555
H53_4 C38_4 1_555 1_555
H54_4 C38_4 1_555 1_555
C39_4 C38_4 1_555 1_555
C40_4 C39_4 1_555 1_555
H55_4 C40_4 1_555 1_555
C41_4 C40_4 1_555 1_555
H56_4 C41_4 1_555 1_555
C42_4 C41_4 1_555 1_555
C43_4 C42_4 1_555 1_555
H57_4 C43_4 1_555 1_555
C44_4 C39_4 1_555 1_555
H58_4 C44_4 1_555 1_555
C45_4 C42_4 1_555 1_555
C46_4 C45_4 1_555 1_555
H59_4 C46_4 1_555 1_555
C47_4 C46_4 1_555 1_555
H60_4 C47_4 1_555 1_555
N3_4 C47_4 1_555 1_555
C48_4 N3_4 1_555 1_555
H61_4 C48_4 1_555 1_555
C49_4 C45_4 1_555 1_555
H62_4 C49_4 1_555 1_555
Zn3_2 N4_4 1_555 1_555
N4_4 C52_4 1_555 1_555
C52_4 H75_4 1_555 1_555
C53_4 C52_4 1_555 1_555
H76_4 C53_4 1_555 1_555
C54_4 C53_4 1_555 1_555
C55_4 C54_4 1_555 1_555
H77_4 C55_4 1_555 1_555
C56_4 N4_4 1_555 1_555
H78_4 C56_4 1_555 1_555
C57_4 C54_4 1_555 1_555
C58_4 C57_4 1_555 1_555
H79_4 C58_4 1_555 1_555
C59_4 C58_4 1_555 1_555
H80_4 C59_4 1_555 1_555
N6_4 C59_4 1_555 1_555
C60_4 N6_4 1_555 1_555
H81_4 C60_4 1_555 1_555
C61_4 C57_4 1_555 1_555
H82_4 C61_4 1_555 1_555
C62_4 N6_4 1_555 1_555
H83_4 C62_4 1_555 1_555
H84_4 C62_4 1_555 1_555
C63_4 C62_4 1_555 1_555
H85_4 C63_4 1_555 1_555
H86_4 C63_4 1_555 1_555
C64_4 C63_4 1_555 1_555
C65_4 C64_4 1_555 1_555
H87_4 C65_4 1_555 1_555
C66_4 C65_4 1_555 1_555
H88_4 C66_4 1_555 1_555
C67_4 C66_4 1_555 1_555
C68_4 C67_4 1_555 1_555
H89_4 C68_4 1_555 1_555
C69_4 C64_4 1_555 1_555
H90_4 C69_4 1_555 1_555
C70_4 C67_4 1_555 1_555
C71_4 C70_4 1_555 1_555
H91_4 C71_4 1_555 1_555
C72_4 C71_4 1_555 1_555
H92_4 C72_4 1_555 1_555
C73_4 N8 1_555 1_555
H93_4 C73_4 1_555 1_555
C74_4 C70_4 1_555 1_555
H94_4 C74_4 1_555 1_555
C30_4 C31_4 1_555 1_555
C35_4 C36_4 1_555 1_555
C43_4 C44_4 1_555 1_555
C48_4 C49_4 1_555 1_555
C55_4 C56_4 1_555 1_555
C60_4 C61_4 1_555 1_555
C68_4 C69_4 1_555 1_555
C72_4 N8 1_555 1_555
C73_4 C74_4 1_555 1_555
Zn3 O15_3 1_555 1_555
Zn2_2 O16_3 1_555 1_555
S3_3 O15_3 1_555 1_555
O16_3 S3_3 1_555 1_555
O20_3 Zn3 1_555 1_555
O22_3 Zn2_2 1_555 1_555
H35_3 O22_3 1_555 1_555
C26_3 O22_3 1_555 1_555
H36_3 C26_3 1_555 1_555
O26_2 S4_3 1_555 1_555
S4_3 O20_3 1_555 1_555
H31_3 O21_3 1_555 1_555
C25_3 O21_3 1_555 1_555
H32_3 C25_3 1_555 1_555
H39_3 O23_3 1_555 1_555
H40_3 O23_3 1_555 1_555
Zn3_2 O15_4 1_555 1_555
S3_4 O15_4 1_555 1_555
S4_4 O18_2 1_555 1_555
O20_4 Zn3_2 1_555 1_555
Zn5_2 O25_3 1_555 1_555
O25_3 S3_4 1_555 1_555
O30_3 Zn5_2 1_555 1_555
H67_3 O30_3 1_555 1_555
C51_3 O30_3 1_555 1_555
H68_3 C51_3 1_555 1_555
S4_4 O20_4 1_555 1_555
H63_3 O29_3 1_555 1_555
C50_3 O29_3 1_555 1_555
H64_3 C50_3 1_555 1_555
H71_3 O31_3 1_555 1_555
H72_3 O31_3 1_555 1_555
H63_4 O29_4 1_555 1_555
C50_4 O29_4 1_555 1_555
H64_4 C50_4 1_555 1_555
H71_4 O31_4 1_555 1_555
H72_4 O31_4 1_555 1_555
Zn4 O15_5 1_555 1_555
S3_5 O15_5 1_555 1_555
S4_5 O27_2 1_555 1_555
O20_5 Zn4 1_555 1_555
Zn7_2 O25_4 1_555 1_555
O25_4 S3_5 1_555 1_555
O30_4 Zn7_2 1_555 1_555
H67_4 O30_4 1_555 1_555
C51_4 O30_4 1_555 1_555
H68_4 C51_4 1_555 1_555
O32_3 Zn7_2 1_555 1_555
H73_3 O32_3 1_555 1_555
H74_3 O32_3 1_555 1_555
S4_5 O20_5 1_555 1_555
H31_4 O21_4 1_555 1_555
C25_4 O21_4 1_555 1_555
H32_4 C25_4 1_555 1_555
H39_4 O23_4 1_555 1_555
H40_4 O23_4 1_555 1_555
Zn4_2 O15_6 1_555 1_555
Zn6_2 O16_4 1_555 1_555
S3_6 O15_6 1_555 1_555
O16_4 S3_6 1_555 1_555
O20_6 Zn4_2 1_555 1_555
O22_4 Zn6_2 1_555 1_555
H35_4 O22_4 1_555 1_555
C26_4 O22_4 1_555 1_555
H36_4 C26_4 1_555 1_555
O24_3 Zn6_2 1_555 1_555
H41_3 O24_3 1_555 1_555
H42_3 O24_3 1_555 1_555
O28_2 S4_6 1_555 1_555
S4_6 O20_6 1_555 1_555
H41_4 O24_4 1_555 1_555
H42_4 O24_4 1_555 1_555
H73_4 O32_4 1_555 1_555
H74_4 O32_4 1_555 1_555

#END
