
###############################################################################
#
# This file contains modified crystal structure data generated from the
# MOF subset of the Cambridge Structural Database (CSD) v543 
# hosted by the Cambridge Crystallographic Data Centre (CCDC).
#
# This work is licensed under the Creative Commons
# Attribution-NonCommercial-ShareAlike 4.0 International License.
# To view a copy of this license, visit
# http://creativecommons.org/licenses/by-nc-sa/4.0/
# or send a letter to
# Creative Commons, PO Box 1866, Mountain View, CA 94042, USA.
#
# CIF created using the CSD Python API on 29 September 2022
# The structure has been converted into the P1 space group
# The structure has a 3D framework
# The original CSD entry OJICUG is in the hexagonal crystal system
# The framework has been calculated to contain at least 10.0% void space
# The void calculation uses a probe of radius 1.32A, grid spacing 0.4
# The framework is charged, counterions have been retained in the structure
#
###############################################################################

data_OJICUG
_chemical_formula_moiety         '(C48 H36 O32 Sc6 1+)n'
_symmetry_cell_setting           triclinic
_symmetry_space_group_name_H-M   'P 1'
_symmetry_Int_Tables_number      1
_space_group_name_Hall           'P 1'
loop_
_symmetry_equiv_pos_site_id
_symmetry_equiv_pos_as_xyz
1 x,y,z
_cell_length_a                   14.056(1)
_cell_length_b                   14.056(1)
_cell_length_c                   18.099(3)
_cell_angle_alpha                90
_cell_angle_beta                 90
_cell_angle_gamma                120
_cell_volume                     3096.77
loop_
_atom_site_label
_atom_site_type_symbol
_atom_site_fract_x
_atom_site_fract_y
_atom_site_fract_z
Sc6 Sc 0.50028(4) 0.25014(3) 0.7500
Sc8 Sc 0.74986(3) 0.25014(3) 0.7500
O14 O 0.65063(14) 0.14133(14) 0.66659(9)
O15 O 0.49070(20) 0.14133(14) 0.66659(9)
C8 C 0.55819(13) 0.1164(3) 0.63882(18)
C17 C 0.4283(2) 0.0276(2) 0.53362(14)
C18 C 0.5993(3) 0.0276(2) 0.53362(14)
H11 H 0.3791 0.0462 0.5567
H12 H 0.6671 0.0462 0.5567
C24 C 0.52769(15) 0.0554(3) 0.56706(19)
O6 O 0.49070(20) 0.14133(14) 0.83341(9)
O7 O 0.65063(14) 0.14133(14) 0.83341(9)
C4 C 0.55821(33) 0.1164(3) 0.86118(18)
C9 C 0.5993(3) 0.0276(2) 0.96638(14)
C10 C 0.4283(2) 0.0276(2) 0.96638(14)
H3 H 0.6671 0.0462 0.9433
H4 H 0.3791 0.0462 0.9433
C20 C 0.52771(34) 0.0554(3) 0.93294(19)
Sc1 Sc 0.25014(3) 0.74986(3) 0.2500
O1 O 0.3333 0.6667 0.2500
O2 O 0.16380(14) 0.83620(14) 0.2500
O3 O 0.34937(14) 0.85867(14) 0.16659(9)
C1 C 0.44181(13) 0.8836(3) 0.13882(18)
C2 C 0.5717(2) 0.9724(2) 0.03362(14)
H1 H 0.6209 0.9538 0.0567
C3 C 0.47231(15) 0.9446(3) 0.06706(19)
H2 H 0.1409(14) 0.8591(14) 0.2135(17)
Sc2 Sc 0.25014(3) 0.50028(4) 0.2500
Sc3 Sc 0.49972(4) 0.74986(3) 0.2500
Sc9 Sc 0.74986(3) 0.49972(4) 0.7500
O4 O 0.16380(14) 0.32760(20) 0.2500
O5 O 0.67240(20) 0.83620(14) 0.2500
O8 O 0.50930(20) 0.85867(14) 0.16659(9)
O9 O 0.34937(14) 0.49070(20) 0.33341(9)
O10 O 0.49070(20) 0.34937(14) 0.66659(9)
O11 O 0.65063(14) 0.50930(20) 0.66659(9)
O12 O 0.50930(20) 0.65063(14) 0.33341(9)
O13 O 0.50930(20) 0.85867(14) 0.33341(9)
O16 O 0.34937(14) 0.85867(14) 0.33341(9)
O17 O 0.14133(14) 0.65063(14) 0.33341(9)
O18 O 0.14133(14) 0.49070(20) 0.16659(9)
O19 O 0.50930(20) 0.65063(14) 0.16659(9)
O20 O 0.14133(14) 0.65063(14) 0.16659(9)
O21 O 0.34937(14) 0.49070(20) 0.16659(9)
O22 O 0.14133(14) 0.49070(20) 0.33341(9)
C5 C 0.44181(13) 0.55821(33) 0.36118(18)
C6 C 0.55821(33) 0.44181(13) 0.63882(18)
C7 C 0.44179(33) 0.8836(3) 0.36118(18)
C11 C 0.4007(3) 0.9724(2) 0.03362(14)
C12 C 0.5717(2) 0.5993(3) 0.46638(14)
C13 C 0.5993(3) 0.5717(2) 0.53362(14)
C14 C 0.4283(2) 0.4007(3) 0.53362(14)
C15 C 0.4007(3) 0.4283(2) 0.46638(14)
C16 C 0.4007(3) 0.9724(2) 0.46638(14)
C19 C 0.5717(2) 0.9724(2) 0.46638(14)
H5 H 0.3329 0.9538 0.0567
H6 H 0.6209 0.6671 0.4433
H7 H 0.6671 0.6209 0.5567
H8 H 0.3791 0.3329 0.5567
H9 H 0.3329 0.3791 0.4433
H10 H 0.3329 0.9538 0.4433
H13 H 0.6209 0.9538 0.4433
C21 C 0.47231(15) 0.52771(34) 0.43294(19)
C22 C 0.52771(34) 0.47231(15) 0.56706(19)
C23 C 0.47229(34) 0.9446(3) 0.43294(19)
H14 H 0.1409(14) 0.8591(14) 0.2865(17)
H15 H 0.1409(14) 0.2818(20) 0.2135(17)
H16 H 0.1409(14) 0.2818(20) 0.2865(17)
H17 H 0.7182(20) 0.8591(14) 0.2135(17)
H18 H 0.7182(20) 0.8591(14) 0.2865(17)
C6_2 C 0.11640(35) 0.55821(33) 0.13882(18)
C13_2 C 0.0276(4) 0.5993(3) 0.03362(14)
C14_2 C 0.0276(4) 0.4283(2) 0.03362(14)
H7_2 H 0.0462 0.6671 0.0567
H8_2 H 0.0462 0.3791 0.0567
C22_2 C 0.05540(37) 0.52771(34) 0.06706(19)
C8_2 C 0.44179(33) 0.55819(13) 0.13882(18)
C17_2 C 0.4007(3) 0.4283(2) 0.03362(14)
C18_2 C 0.5717(4) 0.5993(3) 0.03362(14)
H11_2 H 0.3329 0.3791 0.0567
H12_2 H 0.6209 0.6671 0.0567
C24_2 C 0.47229(34) 0.52769(15) 0.06706(19)
O1_2 O 0.6666 0.3333 0.7500
O2_2 O 0.32760(20) 0.16380(14) 0.7500
H2_2 H 0.2818(20) 0.1409(14) 0.7135(17)
O4_2 O 0.83620(24) 0.16380(14) 0.7500
O5_2 O 0.83620(24) 0.67240(20) 0.7500
O9_2 O 0.85867(24) 0.34937(14) 0.83341(9)
O12_2 O 0.85867(24) 0.50930(20) 0.83341(9)
O13_2 O 0.65063(24) 0.50930(20) 0.83341(9)
O16_2 O 0.49070(20) 0.34937(14) 0.83341(9)
O19_2 O 0.85867(24) 0.50930(20) 0.66659(9)
O21_2 O 0.85867(24) 0.34937(14) 0.66659(9)
C5_2 C 0.88360(35) 0.44181(13) 0.86118(18)
C7_2 C 0.55819(45) 0.44179(33) 0.86118(18)
C12_2 C 0.9724(4) 0.5717(2) 0.96638(14)
C15_2 C 0.9724(4) 0.4007(3) 0.96638(14)
C16_2 C 0.4283(4) 0.4007(3) 0.96638(14)
C19_2 C 0.5993(3) 0.5717(2) 0.96638(14)
H6_2 H 0.9538 0.6209 0.9433
H9_2 H 0.9538 0.3329 0.9433
H10_2 H 0.3791 0.3329 0.9433
H13_2 H 0.6671 0.6209 0.9433
C21_2 C 0.94460(37) 0.47231(15) 0.93294(19)
C23_2 C 0.52769(45) 0.47229(34) 0.93294(19)
H14_2 H 0.2818(20) 0.1409(14) 0.7865(17)
H15_2 H 0.8591(24) 0.1409(14) 0.7135(17)
H16_2 H 0.8591(24) 0.1409(14) 0.7865(17)
H17_2 H 0.8591(24) 0.7182(20) 0.7135(17)
H18_2 H 0.8591(24) 0.7182(20) 0.7865(17)
C7_3 C 0.1164(3) 0.55819(45) 0.36118(18)
C16_3 C 0.0276(2) 0.4283(4) 0.46638(14)
C19_3 C 0.0276(2) 0.5993(3) 0.46638(14)
H10_3 H 0.0462 0.3791 0.4433
H13_3 H 0.0462 0.6671 0.4433
C23_3 C 0.0554(3) 0.52769(45) 0.43294(19)
C8_3 C 0.8836(3) 0.44179(33) 0.63882(18)
C17_3 C 0.9724(2) 0.4007(3) 0.53362(14)
C18_3 C 0.9724(2) 0.5717(4) 0.53362(14)
H11_3 H 0.9538 0.3329 0.5567
H12_3 H 0.9538 0.6209 0.5567
C24_3 C 0.9446(3) 0.47229(34) 0.56706(19)
loop_
_geom_bond_atom_site_label_1
_geom_bond_atom_site_label_2
_geom_bond_site_symmetry_1
_geom_bond_site_symmetry_2
Sc6 O15 1_555 1_555
Sc8 O14 1_555 1_555
O14 C8 1_555 1_555
O15 C8 1_555 1_555
C8 C24 1_555 1_555
C17 H11 1_555 1_555
H12 C18 1_555 1_555
C24 C17 1_555 1_555
C18 C24 1_555 1_555
Sc6 O6 1_555 1_555
Sc8 O7 1_555 1_555
O6 C4 1_555 1_555
O7 C4 1_555 1_555
C4 C20 1_555 1_555
H3 C9 1_555 1_555
H4 C10 1_555 1_555
C20 C9 1_555 1_555
C10 C20 1_555 1_555
Sc1 O1 1_555 1_555
O1 Sc2 1_555 1_555
O2 Sc1 1_555 1_555
O3 Sc1 1_555 1_555
C1 O3 1_555 1_555
C2 H1 1_555 1_555
C3 C1 1_555 1_555
H2 O2 1_555 1_555
Sc2 O4 1_555 1_555
Sc3 O1 1_555 1_555
Sc6 O10 1_555 1_555
Sc9 O11 1_555 1_555
O4 H15 1_555 1_555
O5 Sc3 1_555 1_555
O8 C1 1_555 1_555
O9 Sc2 1_555 1_555
O10 C6 1_555 1_555
O11 C6 1_555 1_555
O12 Sc3 1_555 1_555
O13 Sc3 1_555 1_555
O16 Sc1 1_555 1_555
O17 Sc1 1_555 1_555
O18 Sc2 1_555 1_555
O19 Sc3 1_555 1_555
O20 Sc1 1_555 1_555
O21 Sc2 1_555 1_555
O22 Sc2 1_555 1_555
C5 O9 1_555 1_555
C6 C22 1_555 1_555
C7 O13 1_555 1_555
C11 C3 1_555 1_555
C12 C13 1_555 1_555
C13 H7 1_555 1_555
C14 C15 1_555 1_555
C15 H9 1_555 1_555
C19 H13 1_555 1_555
H5 C11 1_555 1_555
H6 C12 1_555 1_555
H8 C14 1_555 1_555
H10 C16 1_555 1_555
C21 C5 1_555 1_555
C22 C13 1_555 1_555
C23 C7 1_555 1_555
H14 O2 1_555 1_555
H16 O4 1_555 1_555
H17 O5 1_555 1_555
H18 O5 1_555 1_555
C2 C3 1_555 1_555
Sc3 O8 1_555 1_555
O12 C5 1_555 1_555
O16 C7 1_555 1_555
C12 C21 1_555 1_555
C14 C22 1_555 1_555
C15 C21 1_555 1_555
C16 C23 1_555 1_555
C19 C23 1_555 1_555
O18 C6_2 1_555 1_555
O20 C6_2 1_555 1_555
C6_2 C22_2 1_555 1_555
C13_2 H7_2 1_555 1_555
H8_2 C14_2 1_555 1_555
C22_2 C13_2 1_555 1_555
C14_2 C22_2 1_555 1_555
O19 C8_2 1_555 1_555
O21 C8_2 1_555 1_555
C8_2 C24_2 1_555 1_555
C17_2 H11_2 1_555 1_555
H12_2 C18_2 1_555 1_555
C24_2 C17_2 1_555 1_555
C18_2 C24_2 1_555 1_555
Sc6 O1_2 1_555 1_555
O1_2 Sc8 1_555 1_555
O2_2 Sc6 1_555 1_555
H2_2 O2_2 1_555 1_555
Sc8 O4_2 1_555 1_555
Sc9 O1_2 1_555 1_555
O4_2 H15_2 1_555 1_555
O5_2 Sc9 1_555 1_555
O9_2 Sc8 1_555 1_555
O12_2 Sc9 1_555 1_555
O13_2 Sc9 1_555 1_555
O16_2 Sc6 1_555 1_555
O19_2 Sc9 1_555 1_555
O21_2 Sc8 1_555 1_555
C5_2 O9_2 1_555 1_555
C7_2 O13_2 1_555 1_555
C15_2 H9_2 1_555 1_555
C19_2 H13_2 1_555 1_555
H6_2 C12_2 1_555 1_555
H10_2 C16_2 1_555 1_555
C21_2 C5_2 1_555 1_555
C23_2 C7_2 1_555 1_555
H14_2 O2_2 1_555 1_555
H16_2 O4_2 1_555 1_555
H17_2 O5_2 1_555 1_555
H18_2 O5_2 1_555 1_555
O12_2 C5_2 1_555 1_555
O16_2 C7_2 1_555 1_555
C12_2 C21_2 1_555 1_555
C15_2 C21_2 1_555 1_555
C16_2 C23_2 1_555 1_555
C19_2 C23_2 1_555 1_555
C7_3 O17 1_555 1_555
C19_3 H13_3 1_555 1_555
H10_3 C16_3 1_555 1_555
C23_3 C7_3 1_555 1_555
O22 C7_3 1_555 1_555
C16_3 C23_3 1_555 1_555
C19_3 C23_3 1_555 1_555
O19_2 C8_3 1_555 1_555
O21_2 C8_3 1_555 1_555
C8_3 C24_3 1_555 1_555
C17_3 H11_3 1_555 1_555
H12_3 C18_3 1_555 1_555
C24_3 C17_3 1_555 1_555
C18_3 C24_3 1_555 1_555

#END
