
###############################################################################
#
# This file contains modified crystal structure data generated from the
# MOF subset of the Cambridge Structural Database (CSD) v543 
# hosted by the Cambridge Crystallographic Data Centre (CCDC).
#
# This work is licensed under the Creative Commons
# Attribution-NonCommercial-ShareAlike 4.0 International License.
# To view a copy of this license, visit
# http://creativecommons.org/licenses/by-nc-sa/4.0/
# or send a letter to
# Creative Commons, PO Box 1866, Mountain View, CA 94042, USA.
#
# CIF created using the CSD Python API on 29 September 2022
# The structure has been converted into the P1 space group
# The structure has a 3D framework
# The original CSD entry OJIPAB is in the rhombohedral crystal system
# The framework has been calculated to contain at least 10.0% void space
# The void calculation uses a probe of radius 1.32A, grid spacing 0.4
# The framework is charged, counterions have been retained in the structure
#
###############################################################################

data_OJIPAB
_chemical_formula_moiety         '(C216 H108 Cl12 Cu20 N36 O72 12+)n'
_symmetry_cell_setting           triclinic
_symmetry_space_group_name_H-M   'P 1'
_symmetry_Int_Tables_number      1
_space_group_name_Hall           'P 1'
loop_
_symmetry_equiv_pos_site_id
_symmetry_equiv_pos_as_xyz
1 x,y,z
_cell_length_a                   18.6356(4)
_cell_length_b                   18.6356(4)
_cell_length_c                   28.6177(7)
_cell_angle_alpha                90
_cell_angle_beta                 90
_cell_angle_gamma                120
_cell_volume                     8607.01
loop_
_atom_site_label
_atom_site_type_symbol
_atom_site_fract_x
_atom_site_fract_y
_atom_site_fract_z
Cu1 Cu 0.52326(2) 0.47674(2) 0.53766(2)
Cu2 Cu 0.0000 0.0000 0.34649(2)
Cl1 Cl 0.0000 0.0000 0.42823(5)
O1 O 0.44065(12) 0.40910(11) 0.44203(6)
O2 O 0.48240(12) 0.37084(11) 0.50608(6)
N1 N 0.23125(17) 0.11562(9) 0.27436(9)
N2 N 0.12323(18) 0.06161(9) 0.32969(9)
C1 C 0.2650(2) 0.13250(11) 0.35478(11)
C2 C 0.44931(15) 0.35761(14) 0.46630(8)
C3 C 0.28726(19) 0.14363(10) 0.30846(12)
H1 H 0.3444 0.1722 0.3005
C4 C 0.3293(2) 0.16466(10) 0.39269(10)
C5 C 0.4450(2) 0.22250(10) 0.46467(10)
H2 H 0.4834 0.2417 0.4898
C6 C 0.41728(15) 0.27311(15) 0.44649(8)
C7 C 0.35881(16) 0.24406(15) 0.41025(8)
H3 H 0.3394 0.2785 0.3977
C8 C 0.1520(2) 0.07599(11) 0.28603(12)
H4 H 0.1125 0.0563 0.2614
C9 C 0.1802(2) 0.09008(11) 0.36386(12)
H5 H 0.1620 0.0810 0.3954
O3 O 0.44065(12) 0.03155(16) 0.44203(6)
O4 O 0.48240(12) 0.11156(16) 0.50608(6)
C10 C 0.44931(15) 0.09170(21) 0.46630(8)
C11 C 0.41728(15) 0.14417(21) 0.44649(8)
C12 C 0.35881(16) 0.11475(22) 0.41025(8)
H6 H 0.3394 0.0609 0.3977
Cu3 Cu 0.47674(2) 0.52326(2) 0.46234(2)
Cu7 Cu 0.52326(2) 0.04652(3) 0.53766(2)
Cu11 Cu 0.04652(3) 0.52326(2) 0.46234(2)
Cu16 Cu 0.28681(3) 0.14341(2) 0.20433(2)
O13 O 0.40910(11) 0.44065(12) 0.55797(6)
O14 O 0.55935(12) 0.59090(11) 0.55797(6)
O15 O 0.59090(11) 0.55935(12) 0.44203(6)
O17 O 0.37084(11) 0.48240(12) 0.49392(6)
O19 O 0.51760(12) 0.62916(11) 0.49392(6)
O21 O 0.62916(11) 0.51760(12) 0.50608(6)
N7 N 0.55105(9) 0.44896(19) 0.60769(9)
N8 N 0.44896(19) 0.55105(9) 0.39231(9)
Cu2_2 Cu -0.0000 1.0000 0.34649(2)
Cl1_2 Cl -0.0000 1.0000 0.42823(5)
Cu13 Cu 0.47674(2) 0.95348(3) 0.46234(2)
O18 O 0.11156(16) 0.62916(11) 0.49392(6)
O20 O 0.11156(16) 0.48240(12) 0.49392(6)
N9 N 0.10208(17) 0.55104(19) 0.39231(9)
Cu2_3 Cu 1.0000 0.0000 0.34649(2)
Cl1_3 Cl 1.0000 0.0000 0.42823(5)
O5 O 0.59090(11) 0.03155(16) 0.44203(6)
O6 O 0.62916(11) 0.11156(16) 0.50608(6)
N3 N 0.88438(9) 0.11563(19) 0.27436(9)
N4 N 0.93839(9) 0.06162(20) 0.32969(9)
C13 C 0.86750(11) 0.13250(23) 0.35478(11)
C14 C 0.64239(14) 0.09170(21) 0.46630(8)
C15 C 0.85637(10) 0.14363(21) 0.30846(12)
H7 H 0.8278 0.1722 0.3005
C16 C 0.83534(10) 0.16464(22) 0.39269(10)
C17 C 0.77750(10) 0.22250(22) 0.46467(10)
H8 H 0.7583 0.2417 0.4898
C18 C 0.72689(15) 0.14417(21) 0.44649(8)
C19 C 0.75594(15) 0.11475(22) 0.41025(8)
H9 H 0.7215 0.0609 0.3977
C20 C 0.92401(11) 0.07601(23) 0.28603(12)
H10 H 0.9437 0.0562 0.2614
C21 C 0.90992(11) 0.09012(23) 0.36386(12)
H11 H 0.9190 0.0810 0.3954
O7 O 0.96845(16) 0.40910(11) 0.44203(6)
O8 O 0.88844(16) 0.37084(11) 0.50608(6)
C22 C 0.90830(21) 0.35761(14) 0.46630(8)
C23 C 0.85583(21) 0.27311(15) 0.44649(8)
C24 C 0.88525(22) 0.24406(15) 0.41025(8)
H12 H 0.9391 0.2785 0.3977
Cu9 Cu 0.95348(3) 0.47674(2) 0.53766(2)
Cu14 Cu 0.85659(2) 0.14341(2) 0.20433(2)
Cu2_4 Cu 1.0000 1.0000 0.34649(2)
Cl1_4 Cl 1.0000 1.0000 0.42823(5)
O9 O 0.96845(16) 0.55935(12) 0.44203(6)
O10 O 0.88844(16) 0.51760(12) 0.50608(6)
N5 N 0.88437(19) 0.76875(17) 0.27436(9)
N6 N 0.93838(20) 0.87677(18) 0.32969(9)
C25 C 0.86750(23) 0.7350(2) 0.35478(11)
C26 C 0.90830(21) 0.55069(15) 0.46630(8)
C27 C 0.85637(21) 0.71274(19) 0.30846(12)
H13 H 0.8278 0.6556 0.3005
C28 C 0.83536(22) 0.6707(2) 0.39269(10)
C29 C 0.77750(22) 0.5550(2) 0.46467(10)
H14 H 0.7583 0.5166 0.4898
C30 C 0.85583(21) 0.58272(15) 0.44649(8)
C31 C 0.88525(22) 0.64119(16) 0.41025(8)
H15 H 0.9391 0.6606 0.3977
C32 C 0.92399(23) 0.8480(2) 0.28603(12)
H16 H 0.9438 0.8875 0.2614
C33 C 0.90988(23) 0.8198(2) 0.36386(12)
H17 H 0.9190 0.8380 0.3954
C34 C 0.64239(14) 0.55069(15) 0.46630(8)
C35 C 0.72689(15) 0.58272(15) 0.44649(8)
C36 C 0.75594(15) 0.64119(16) 0.41025(8)
H18 H 0.7215 0.6606 0.3977
Cu15 Cu 0.85659(2) 0.71319(3) 0.20433(2)
N7_2 N 0.55104(19) 0.10208(21) 0.60769(9)
O13_2 O 0.55935(12) 0.96845(16) 0.55797(6)
O14_2 O 0.40910(11) 0.96845(16) 0.55797(6)
O17_2 O 0.51760(12) 0.88844(16) 0.49392(6)
O19_2 O 0.37084(11) 0.88844(16) 0.49392(6)
N8_2 N 0.44895(9) 0.89792(21) 0.39231(9)
O13_3 O 0.03155(16) 0.59090(11) 0.55797(6)
O14_3 O 0.03155(16) 0.44065(12) 0.55797(6)
N7_3 N 0.89792(21) 0.44895(9) 0.60769(9)
Cu2_5 Cu 0.0000 0.0000 0.65351(2)
Cl1_5 Cl 0.0000 0.0000 0.57177(5)
N1_2 N 0.11562(9) 0.23125(17) 0.72564(9)
N2_2 N 0.06161(9) 0.12323(18) 0.67031(9)
C1_2 C 0.13250(11) 0.2650(2) 0.64522(11)
C2_2 C 0.35761(14) 0.44931(15) 0.53370(8)
C3_2 C 0.14363(10) 0.28726(19) 0.69154(12)
H1_2 H 0.1722 0.3444 0.6995
C4_2 C 0.16466(10) 0.3293(2) 0.60731(10)
C5_2 C 0.22250(10) 0.4450(2) 0.53533(10)
H2_2 H 0.2417 0.4834 0.5102
C6_2 C 0.27311(15) 0.41728(15) 0.55351(8)
C7_2 C 0.24406(15) 0.35881(16) 0.58975(8)
H3_2 H 0.2785 0.3394 0.6023
C8_2 C 0.07599(11) 0.1520(2) 0.71397(12)
H4_2 H 0.0563 0.1125 0.7386
C9_2 C 0.09008(11) 0.1802(2) 0.63614(12)
H5_2 H 0.0810 0.1620 0.6046
C10_2 C 0.09170(21) 0.44931(15) 0.53370(8)
C11_2 C 0.14417(21) 0.41728(15) 0.55351(8)
C12_2 C 0.11475(22) 0.35881(16) 0.58975(8)
H6_2 H 0.0609 0.3394 0.6023
Cu16_2 Cu 0.14341(2) 0.28681(3) 0.79567(2)
Cu2_6 Cu 0.0000 1.0000 0.65351(2)
Cl1_6 Cl 0.0000 1.0000 0.57177(5)
N3_2 N 0.11563(19) 0.88438(9) 0.72564(9)
N4_2 N 0.06162(20) 0.93839(9) 0.67031(9)
C13_2 C 0.13250(23) 0.86750(11) 0.64522(11)
C14_2 C 0.09170(21) 0.64239(14) 0.53370(8)
C15_2 C 0.14363(21) 0.85637(10) 0.69154(12)
H7_2 H 0.1722 0.8278 0.6995
C16_2 C 0.16464(22) 0.83534(10) 0.60731(10)
C17_2 C 0.22250(22) 0.77750(10) 0.53533(10)
H8_2 H 0.2417 0.7583 0.5102
C18_2 C 0.14417(21) 0.72689(15) 0.55351(8)
C19_2 C 0.11475(22) 0.75594(15) 0.58975(8)
H9_2 H 0.0609 0.7215 0.6023
C20_2 C 0.07601(23) 0.92401(11) 0.71397(12)
H10_2 H 0.0562 0.9437 0.7386
C21_2 C 0.09012(23) 0.90992(11) 0.63614(12)
H11_2 H 0.0810 0.9190 0.6046
C22_2 C 0.35761(14) 0.90830(21) 0.53370(8)
C23_2 C 0.27311(15) 0.85583(21) 0.55351(8)
C24_2 C 0.24406(15) 0.88525(22) 0.58975(8)
H12_2 H 0.2785 0.9391 0.6023
Cu14_2 Cu 0.14341(2) 0.85659(2) 0.79567(2)
Cu2_7 Cu 1.0000 0.0000 0.65351(2)
Cl1_7 Cl 1.0000 0.0000 0.57177(5)
Cu2_8 Cu 1.0000 1.0000 0.65351(2)
Cl1_8 Cl 1.0000 1.0000 0.57177(5)
N5_2 N 0.76875(17) 0.88437(19) 0.72564(9)
N6_2 N 0.87677(18) 0.93838(20) 0.67031(9)
C25_2 C 0.7350(2) 0.86750(23) 0.64522(11)
C26_2 C 0.55069(15) 0.90830(21) 0.53370(8)
C27_2 C 0.71274(19) 0.85637(21) 0.69154(12)
H13_2 H 0.6556 0.8278 0.6995
C28_2 C 0.6707(2) 0.83536(22) 0.60731(10)
C29_2 C 0.5550(2) 0.77750(22) 0.53533(10)
H14_2 H 0.5166 0.7583 0.5102
C30_2 C 0.58272(15) 0.85583(21) 0.55351(8)
C31_2 C 0.64119(16) 0.88525(22) 0.58975(8)
H15_2 H 0.6606 0.9391 0.6023
C32_2 C 0.8480(2) 0.92399(23) 0.71397(12)
H16_2 H 0.8875 0.9438 0.7386
C33_2 C 0.8198(2) 0.90988(23) 0.63614(12)
H17_2 H 0.8380 0.9190 0.6046
C34_2 C 0.55069(15) 0.64239(14) 0.53370(8)
C35_2 C 0.58272(15) 0.72689(15) 0.55351(8)
C36_2 C 0.64119(16) 0.75594(15) 0.58975(8)
H18_2 H 0.6606 0.7215 0.6023
Cu15_2 Cu 0.71319(3) 0.85659(2) 0.79567(2)
Cu1_2 Cu 0.18993(2) 0.81007(2) 0.87099(2)
O1_2 O 0.10732(12) 0.74243(11) 0.77536(6)
O2_2 O 0.14907(12) 0.70417(11) 0.83941(6)
C2_3 C 0.11598(15) 0.69094(14) 0.79963(8)
H1_3 H 0.0111 0.5055 0.6338
C5_3 C 0.1117(2) 0.55583(10) 0.79800(10)
H2_3 H 0.1501 0.5750 0.8231
C6_3 C 0.08395(15) 0.60644(15) 0.77982(8)
C7_3 C 0.02548(16) 0.57739(15) 0.74358(8)
H3_3 H 0.0061 0.6118 0.7310
O3_2 O 0.10732(12) 0.36488(16) 0.77536(6)
O4_2 O 0.14907(12) 0.44489(16) 0.83941(6)
C10_3 C 0.11598(15) 0.42503(21) 0.79963(8)
C11_3 C 0.08395(15) 0.47750(21) 0.77982(8)
C12_3 C 0.02548(16) 0.44808(22) 0.74358(8)
H6_3 H 0.0061 0.3942 0.7310
Cu7_2 Cu 0.18993(2) 0.37985(3) 0.87099(2)
O13_4 O 0.07577(11) 0.77398(12) 0.89130(6)
O14_4 O 0.22602(12) 0.92423(11) 0.89130(6)
O15_2 O 0.25757(11) 0.89268(12) 0.77536(6)
O17_3 O 0.03751(11) 0.81573(12) 0.82725(6)
O19_3 O 0.18427(12) 0.96249(11) 0.82725(6)
O21_2 O 0.29583(11) 0.85093(12) 0.83941(6)
N7_4 N 0.21771(9) 0.78230(19) 0.94103(9)
Cu2_9 Cu 0.6667 0.3333 0.67982(2)
Cl1_9 Cl 0.6667 0.3333 0.76156(5)
N2_3 N 0.78990(18) 0.39494(9) 0.66302(9)
C1_3 C 0.9317(2) 0.46583(11) 0.68811(11)
C3_3 C 0.95393(19) 0.47696(10) 0.64179(12)
C4_3 C 0.9960(2) 0.49799(10) 0.72602(10)
C8_3 C 0.8187(2) 0.40932(11) 0.61936(12)
H4_3 H 0.7792 0.3896 0.5947
C9_3 C 0.8469(2) 0.42341(11) 0.69719(12)
H5_3 H 0.8287 0.4143 0.7287
O5_2 O 0.25757(11) 0.36488(16) 0.77536(6)
O6_2 O 0.29583(11) 0.44489(16) 0.83941(6)
N4_3 N 0.60506(9) 0.39495(20) 0.66302(9)
C13_3 C 0.53417(11) 0.46583(23) 0.68811(11)
C14_3 C 0.30906(14) 0.42503(21) 0.79963(8)
C15_3 C 0.52304(10) 0.47696(21) 0.64179(12)
H7_3 H 0.4945 0.5055 0.6338
C16_3 C 0.50201(10) 0.49797(22) 0.72602(10)
C17_3 C 0.44417(10) 0.55583(22) 0.79800(10)
H8_3 H 0.4250 0.5750 0.8231
C18_3 C 0.39356(15) 0.47750(21) 0.77982(8)
C19_3 C 0.42261(15) 0.44808(22) 0.74358(8)
H9_3 H 0.3882 0.3942 0.7310
C20_3 C 0.59068(11) 0.40934(23) 0.61936(12)
H10_3 H 0.6104 0.3895 0.5947
C21_3 C 0.57659(11) 0.42345(23) 0.69719(12)
H11_3 H 0.5857 0.4143 0.7287
O7_2 O 0.63512(16) 0.74243(11) 0.77536(6)
O8_2 O 0.55511(16) 0.70417(11) 0.83941(6)
C22_3 C 0.57497(21) 0.69094(14) 0.79963(8)
C23_3 C 0.52250(21) 0.60644(15) 0.77982(8)
C24_3 C 0.55192(22) 0.57739(15) 0.74358(8)
H12_3 H 0.6058 0.6118 0.7310
N6_3 N 0.60505(20) 0.21010(18) 0.66302(9)
C25_3 C 0.53417(23) 0.0683(2) 0.68811(11)
C27_3 C 0.52304(21) 0.04607(19) 0.64179(12)
C28_3 C 0.50203(22) 0.0040(2) 0.72602(10)
C32_3 C 0.59066(23) 0.1813(2) 0.61936(12)
H16_3 H 0.6105 0.2208 0.5947
C33_3 C 0.57655(23) 0.1531(2) 0.69719(12)
H17_3 H 0.5857 0.1713 0.7287
Cu9_2 Cu 0.62015(3) 0.81007(2) 0.87099(2)
O9_2 O 0.63512(16) 0.89268(12) 0.77536(6)
O10_2 O 0.55511(16) 0.85093(12) 0.83941(6)
C26_3 C 0.57497(21) 0.88402(15) 0.79963(8)
H13_3 H 0.4945 0.9889 0.6338
C29_3 C 0.44417(22) 0.8883(2) 0.79800(10)
H14_3 H 0.4250 0.8499 0.8231
C30_3 C 0.52250(21) 0.91605(15) 0.77982(8)
C31_3 C 0.55192(22) 0.97452(16) 0.74358(8)
H15_3 H 0.6058 0.9939 0.7310
C34_3 C 0.30906(14) 0.88402(15) 0.79963(8)
C35_3 C 0.39356(15) 0.91605(15) 0.77982(8)
C36_3 C 0.42261(15) 0.97452(16) 0.74358(8)
H18_3 H 0.3882 0.9939 0.7310
O18_2 O 0.77823(16) 0.96249(11) 0.82725(6)
O20_2 O 0.77823(16) 0.81573(12) 0.82725(6)
O13_5 O 0.22602(12) 0.30178(16) 0.89130(6)
O14_5 O 0.07577(11) 0.30178(16) 0.89130(6)
O17_4 O 0.18427(12) 0.22177(16) 0.82725(6)
O19_4 O 0.03751(11) 0.22177(16) 0.82725(6)
N7_5 N 0.21770(19) 0.43542(21) 0.94103(9)
O13_6 O 0.69822(16) 0.92423(11) 0.89130(6)
O14_6 O 0.69822(16) 0.77398(12) 0.89130(6)
N7_6 N 0.56458(21) 0.78229(9) 0.94103(9)
C2_4 C 0.02428(14) 0.78264(15) 0.86703(8)
C22_4 C 0.02428(14) 0.24163(21) 0.86703(8)
N1_3 N 0.78229(9) 0.56458(17) 0.05897(9)
N2_4 N 0.72828(9) 0.45656(18) 0.00364(9)
C3_4 C 0.81030(10) 0.62059(19) 0.02487(12)
H1_4 H 0.8389 0.6777 0.0328
C8_4 C 0.74266(11) 0.4853(2) 0.04730(12)
H4_4 H 0.7230 0.4458 0.0719
N3_3 N 0.78230(19) 0.21771(9) 0.05897(9)
N4_4 N 0.72829(20) 0.27172(9) 0.00364(9)
C15_4 C 0.81030(21) 0.18970(10) 0.02487(12)
H7_4 H 0.8389 0.1611 0.0328
C20_4 C 0.74268(23) 0.25734(11) 0.04730(12)
H10_4 H 0.7229 0.2770 0.0719
N5_3 N 0.43542(17) 0.21770(19) 0.05897(9)
N6_4 N 0.54344(18) 0.27171(20) 0.00364(9)
C27_4 C 0.37941(19) 0.18970(21) 0.02487(12)
H13_4 H 0.3223 0.1611 0.0328
C32_4 C 0.5147(2) 0.25732(23) 0.04730(12)
H16_4 H 0.5542 0.2771 0.0719
Cu14_3 Cu 0.81007(2) 0.18993(2) 0.12901(2)
Cu15_3 Cu 0.37985(3) 0.18993(2) 0.12901(2)
Cu16_3 Cu 0.81007(2) 0.62015(3) 0.12901(2)
Cu2_10 Cu 0.6667 0.3333 0.98684(2)
Cl1_10 Cl 0.6667 0.3333 0.90510(5)
C1_4 C 0.79917(11) 0.5983(2) 0.97855(11)
C4_4 C 0.83133(10) 0.6626(2) 0.94064(10)
C5_4 C 0.88917(10) 0.7783(2) 0.86866(10)
H2_4 H 0.9084 0.8167 0.8435
C6_4 C 0.93978(15) 0.75061(15) 0.88684(8)
C7_4 C 0.91073(15) 0.69214(16) 0.92308(8)
H3_4 H 0.9452 0.6727 0.9356
C9_4 C 0.75675(11) 0.5135(2) 0.96947(12)
H5_4 H 0.7477 0.4953 0.9379
C10_4 C 0.75837(21) 0.78264(15) 0.86703(8)
C11_4 C 0.81084(21) 0.75061(15) 0.88684(8)
C12_4 C 0.78142(22) 0.69214(16) 0.92308(8)
H6_4 H 0.7276 0.6727 0.9356
C13_4 C 0.79917(23) 0.20083(11) 0.97855(11)
C16_4 C 0.83131(22) 0.16867(10) 0.94064(10)
C17_4 C 0.88917(22) 0.11083(10) 0.86866(10)
H8_4 H 0.9084 0.0916 0.8435
C18_4 C 0.81084(21) 0.06022(15) 0.88684(8)
C19_4 C 0.78142(22) 0.08927(15) 0.92308(8)
H9_4 H 0.7276 0.0548 0.9356
C21_4 C 0.75679(23) 0.24325(11) 0.96947(12)
H11_4 H 0.7477 0.2523 0.9379
C23_4 C 0.93978(15) 0.18916(21) 0.88684(8)
C24_4 C 0.91073(15) 0.21858(22) 0.92308(8)
H12_4 H 0.9452 0.2724 0.9356
C25_4 C 0.4017(2) 0.20083(23) 0.97855(11)
C26_4 C 0.21736(15) 0.24163(21) 0.86703(8)
C28_4 C 0.3374(2) 0.16869(22) 0.94064(10)
C29_4 C 0.2217(2) 0.11083(22) 0.86866(10)
H14_4 H 0.1833 0.0916 0.8435
C30_4 C 0.24939(15) 0.18916(21) 0.88684(8)
C31_4 C 0.30786(16) 0.21858(22) 0.92308(8)
H15_4 H 0.3273 0.2724 0.9356
C33_4 C 0.4865(2) 0.24321(23) 0.96947(12)
H17_4 H 0.5047 0.2523 0.9379
C35_4 C 0.24939(15) 0.06022(15) 0.88684(8)
C36_4 C 0.30786(16) 0.08927(15) 0.92308(8)
H18_4 H 0.3273 0.0548 0.9356
C14_4 C 0.75837(21) 0.97572(14) 0.86703(8)
C34_4 C 0.21736(15) 0.97572(14) 0.86703(8)
O1_3 O 0.77398(12) 0.07577(11) 0.10870(6)
O2_3 O 0.81573(12) 0.03751(11) 0.17275(6)
C2_5 C 0.78264(15) 0.02428(14) 0.13297(8)
O7_3 O 0.30178(16) 0.07577(11) 0.10870(6)
O8_3 O 0.22177(16) 0.03751(11) 0.17275(6)
C22_5 C 0.24163(21) 0.02428(14) 0.13297(8)
O13_7 O 0.74243(11) 0.10732(12) 0.22464(6)
O14_7 O 0.89268(12) 0.25757(11) 0.22464(6)
O15_3 O 0.92423(11) 0.22602(12) 0.10870(6)
O17_5 O 0.70417(11) 0.14907(12) 0.16059(6)
O19_5 O 0.85093(12) 0.29583(11) 0.16059(6)
O21_3 O 0.96249(11) 0.18427(12) 0.17275(6)
Cu2_11 Cu 0.3333 0.6667 0.01316(2)
Cl1_11 Cl 0.3333 0.6667 0.09490(5)
C1_5 C 0.5983(2) 0.79917(11) 0.02145(11)
C4_5 C 0.6626(2) 0.83133(10) 0.05936(10)
C5_5 C 0.7783(2) 0.88917(10) 0.13134(10)
H2_5 H 0.8167 0.9084 0.1565
C6_5 C 0.75061(15) 0.93978(15) 0.11316(8)
C7_5 C 0.69214(16) 0.91073(15) 0.07692(8)
H3_5 H 0.6727 0.9452 0.0644
C9_5 C 0.5135(2) 0.75675(11) 0.03053(12)
H5_5 H 0.4953 0.7477 0.0621
O3_3 O 0.77398(12) 0.69822(16) 0.10870(6)
O4_3 O 0.81573(12) 0.77823(16) 0.17275(6)
C10_5 C 0.78264(15) 0.75837(21) 0.13297(8)
C11_5 C 0.75061(15) 0.81084(21) 0.11316(8)
C12_5 C 0.69214(16) 0.78142(22) 0.07692(8)
H6_5 H 0.6727 0.7276 0.0644
C13_5 C 0.20083(11) 0.79917(23) 0.02145(11)
C16_5 C 0.16867(10) 0.83131(22) 0.05936(10)
C17_5 C 0.11083(10) 0.88917(22) 0.13134(10)
H8_5 H 0.0916 0.9084 0.1565
C18_5 C 0.06022(15) 0.81084(21) 0.11316(8)
C19_5 C 0.08927(15) 0.78142(22) 0.07692(8)
H9_5 H 0.0548 0.7276 0.0644
C21_5 C 0.24325(11) 0.75679(23) 0.03053(12)
H11_5 H 0.2523 0.7477 0.0621
C23_5 C 0.18916(21) 0.93978(15) 0.11316(8)
C24_5 C 0.21858(22) 0.91073(15) 0.07692(8)
H12_5 H 0.2724 0.9452 0.0644
O9_3 O 0.30178(16) 0.22602(12) 0.10870(6)
O10_3 O 0.22177(16) 0.18427(12) 0.17275(6)
C25_5 C 0.20083(23) 0.4017(2) 0.02145(11)
C26_5 C 0.24163(21) 0.21736(15) 0.13297(8)
C28_5 C 0.16869(22) 0.3374(2) 0.05936(10)
C29_5 C 0.11083(22) 0.2217(2) 0.13134(10)
H14_5 H 0.0916 0.1833 0.1565
C30_5 C 0.18916(21) 0.24939(15) 0.11316(8)
C31_5 C 0.21858(22) 0.30786(16) 0.07692(8)
H15_5 H 0.2724 0.3273 0.0644
C33_5 C 0.24321(23) 0.4865(2) 0.03053(12)
H17_5 H 0.2523 0.5047 0.0621
C35_5 C 0.06022(15) 0.24939(15) 0.11316(8)
C36_5 C 0.08927(15) 0.30786(16) 0.07692(8)
H18_5 H 0.0548 0.3273 0.0644
O18_3 O 0.44489(16) 0.29583(11) 0.16059(6)
O20_3 O 0.44489(16) 0.14907(12) 0.16059(6)
N2_5 N 0.45656(18) 0.72828(9) 0.99636(9)
C3_5 C 0.62059(19) 0.81030(10) 0.97513(12)
H1_5 H 0.6777 0.8389 0.9672
C8_5 C 0.4853(2) 0.74266(11) 0.95270(12)
H4_5 H 0.4458 0.7230 0.9281
N4_5 N 0.27172(9) 0.72829(20) 0.99636(9)
C15_5 C 0.18970(10) 0.81030(21) 0.97513(12)
H7_5 H 0.1611 0.8389 0.9672
C20_5 C 0.25734(11) 0.74268(23) 0.95270(12)
H10_5 H 0.2770 0.7229 0.9281
N6_5 N 0.27171(20) 0.54344(18) 0.99636(9)
C27_5 C 0.18970(21) 0.37941(19) 0.97513(12)
H13_5 H 0.1611 0.3223 0.9672
C32_5 C 0.25732(23) 0.5147(2) 0.95270(12)
H16_5 H 0.2771 0.5542 0.9281
O5_3 O 0.92423(11) 0.69822(16) 0.10870(6)
O6_3 O 0.96249(11) 0.77823(16) 0.17275(6)
C14_5 C 0.97572(14) 0.75837(21) 0.13297(8)
C34_5 C 0.97572(14) 0.21736(15) 0.13297(8)
O13_8 O 0.89268(12) 0.63512(16) 0.22464(6)
O14_8 O 0.74243(11) 0.63512(16) 0.22464(6)
O17_6 O 0.85093(12) 0.55511(16) 0.16059(6)
O19_6 O 0.70417(11) 0.55511(16) 0.16059(6)
O13_9 O 0.36488(16) 0.25757(11) 0.22464(6)
O14_9 O 0.36488(16) 0.10732(12) 0.22464(6)
C2_6 C 0.69094(14) 0.11598(15) 0.20037(8)
H1_6 H 0.5055 0.0111 0.3662
C5_6 C 0.55583(10) 0.1117(2) 0.20200(10)
H2_6 H 0.5750 0.1501 0.1769
C6_6 C 0.60644(15) 0.08395(15) 0.22018(8)
C7_6 C 0.57739(15) 0.02548(16) 0.25642(8)
H3_6 H 0.6118 0.0061 0.2690
C10_6 C 0.42503(21) 0.11598(15) 0.20037(8)
C11_6 C 0.47750(21) 0.08395(15) 0.22018(8)
C12_6 C 0.44808(22) 0.02548(16) 0.25642(8)
H6_6 H 0.3942 0.0061 0.2690
Cu2_12 Cu 0.3333 0.6667 0.32018(2)
Cl1_12 Cl 0.3333 0.6667 0.23844(5)
N2_6 N 0.39494(9) 0.78990(18) 0.33698(9)
C1_6 C 0.46583(11) 0.9317(2) 0.31189(11)
C3_6 C 0.47696(10) 0.95393(19) 0.35821(12)
C4_6 C 0.49799(10) 0.9960(2) 0.27398(10)
C8_6 C 0.40932(11) 0.8187(2) 0.38064(12)
H4_6 H 0.3896 0.7792 0.4053
C9_6 C 0.42341(11) 0.8469(2) 0.30281(12)
H5_6 H 0.4143 0.8287 0.2713
N4_6 N 0.39495(20) 0.60506(9) 0.33698(9)
C13_6 C 0.46583(23) 0.53417(11) 0.31189(11)
C14_6 C 0.42503(21) 0.30906(14) 0.20037(8)
C15_6 C 0.47696(21) 0.52304(10) 0.35821(12)
H7_6 H 0.5055 0.4945 0.3662
C16_6 C 0.49797(22) 0.50201(10) 0.27398(10)
C17_6 C 0.55583(22) 0.44417(10) 0.20200(10)
H8_6 H 0.5750 0.4250 0.1769
C18_6 C 0.47750(21) 0.39356(15) 0.22018(8)
C19_6 C 0.44808(22) 0.42261(15) 0.25642(8)
H9_6 H 0.3942 0.3882 0.2690
C20_6 C 0.40934(23) 0.59068(11) 0.38064(12)
H10_6 H 0.3895 0.6104 0.4053
C21_6 C 0.42345(23) 0.57659(11) 0.30281(12)
H11_6 H 0.4143 0.5857 0.2713
C22_6 C 0.69094(14) 0.57497(21) 0.20037(8)
C23_6 C 0.60644(15) 0.52250(21) 0.22018(8)
C24_6 C 0.57739(15) 0.55192(22) 0.25642(8)
H12_6 H 0.6118 0.6058 0.2690
N6_6 N 0.21010(18) 0.60505(20) 0.33698(9)
C25_6 C 0.0683(2) 0.53417(23) 0.31189(11)
C27_6 C 0.04607(19) 0.52304(21) 0.35821(12)
C28_6 C 0.0040(2) 0.50203(22) 0.27398(10)
C32_6 C 0.1813(2) 0.59066(23) 0.38064(12)
H16_6 H 0.2208 0.6105 0.4053
C33_6 C 0.1531(2) 0.57655(23) 0.30281(12)
H17_6 H 0.1713 0.5857 0.2713
C26_6 C 0.88402(15) 0.57497(21) 0.20037(8)
H13_6 H 0.9889 0.4945 0.3662
C29_6 C 0.8883(2) 0.44417(22) 0.20200(10)
H14_6 H 0.8499 0.4250 0.1769
C30_6 C 0.91605(15) 0.52250(21) 0.22018(8)
C31_6 C 0.97452(16) 0.55192(22) 0.25642(8)
H15_6 H 0.9939 0.6058 0.2690
C34_6 C 0.88402(15) 0.30906(14) 0.20037(8)
C35_6 C 0.91605(15) 0.39356(15) 0.22018(8)
C36_6 C 0.97452(16) 0.42261(15) 0.25642(8)
H18_6 H 0.9939 0.3882 0.2690
loop_
_geom_bond_atom_site_label_1
_geom_bond_atom_site_label_2
_geom_bond_site_symmetry_1
_geom_bond_site_symmetry_2
Cu1 O2 1_555 1_555
Cu2 Cl1 1_555 1_555
O1 C2 1_555 1_555
O2 C2 1_555 1_555
N1 C3 1_555 1_555
N2 Cu2 1_555 1_555
C1 C3 1_555 1_555
C2 C6 1_555 1_555
C3 H1 1_555 1_555
C4 C1 1_555 1_555
C5 H2 1_555 1_555
C6 C5 1_555 1_555
C7 C4 1_555 1_555
H3 C7 1_555 1_555
C8 N1 1_555 1_555
H4 C8 1_555 1_555
C9 N2 1_555 1_555
H5 C9 1_555 1_555
O3 C10 1_555 1_555
O4 C10 1_555 1_555
C10 C11 1_555 1_555
C11 C5 1_555 1_555
C12 C4 1_555 1_555
H6 C12 1_555 1_555
Cu3 O1 1_555 1_555
Cu7 O4 1_555 1_555
Cu16 N1 1_555 1_555
O13 Cu1 1_555 1_555
O14 Cu1 1_555 1_555
O15 Cu3 1_555 1_555
O17 Cu3 1_555 1_555
O19 Cu3 1_555 1_555
O21 Cu1 1_555 1_555
N7 Cu1 1_555 1_555
N8 Cu3 1_555 1_555
N2 C8 1_555 1_555
C1 C9 1_555 1_555
C6 C7 1_555 1_555
C11 C12 1_555 1_555
Cu2_2 Cl1_2 1_555 1_555
O18 Cu11 1_555 1_555
O20 Cu11 1_555 1_555
N9 Cu11 1_555 1_555
Cu2_3 Cl1_3 1_555 1_555
O5 C14 1_555 1_555
O6 C14 1_555 1_555
N3 C15 1_555 1_555
N4 Cu2_3 1_555 1_555
C13 C15 1_555 1_555
C14 C18 1_555 1_555
C15 H7 1_555 1_555
C16 C13 1_555 1_555
C17 H8 1_555 1_555
C18 C17 1_555 1_555
C19 C16 1_555 1_555
H9 C19 1_555 1_555
C20 N3 1_555 1_555
H10 C20 1_555 1_555
C21 N4 1_555 1_555
H11 C21 1_555 1_555
O7 C22 1_555 1_555
O8 C22 1_555 1_555
C22 C23 1_555 1_555
C23 C17 1_555 1_555
C24 C16 1_555 1_555
H12 C24 1_555 1_555
Cu7 O6 1_555 1_555
Cu9 O8 1_555 1_555
Cu14 N3 1_555 1_555
N4 C20 1_555 1_555
C13 C21 1_555 1_555
C18 C19 1_555 1_555
C23 C24 1_555 1_555
Cu2_4 Cl1_4 1_555 1_555
O9 C26 1_555 1_555
O10 C26 1_555 1_555
N5 C27 1_555 1_555
N6 Cu2_4 1_555 1_555
C25 C27 1_555 1_555
C26 C30 1_555 1_555
C27 H13 1_555 1_555
C28 C25 1_555 1_555
C29 H14 1_555 1_555
C30 C29 1_555 1_555
C31 C28 1_555 1_555
H15 C31 1_555 1_555
C32 N5 1_555 1_555
H16 C32 1_555 1_555
C33 N6 1_555 1_555
H17 C33 1_555 1_555
O15 C34 1_555 1_555
O21 C34 1_555 1_555
C34 C35 1_555 1_555
C35 C29 1_555 1_555
C36 C28 1_555 1_555
H18 C36 1_555 1_555
Cu9 O10 1_555 1_555
Cu15 N5 1_555 1_555
N6 C32 1_555 1_555
C25 C33 1_555 1_555
C30 C31 1_555 1_555
C35 C36 1_555 1_555
N7_2 Cu7 1_555 1_555
O17_2 Cu13 1_555 1_555
O19_2 Cu13 1_555 1_555
N8_2 Cu13 1_555 1_555
N7_3 Cu9 1_555 1_555
Cu2_5 Cl1_5 1_555 1_555
O13 C2_2 1_555 1_555
O17 C2_2 1_555 1_555
N1_2 C3_2 1_555 1_555
N2_2 Cu2_5 1_555 1_555
C1_2 C3_2 1_555 1_555
C2_2 C6_2 1_555 1_555
C3_2 H1_2 1_555 1_555
C4_2 C1_2 1_555 1_555
C5_2 H2_2 1_555 1_555
C6_2 C5_2 1_555 1_555
C7_2 C4_2 1_555 1_555
H3_2 C7_2 1_555 1_555
C8_2 N1_2 1_555 1_555
H4_2 C8_2 1_555 1_555
C9_2 N2_2 1_555 1_555
H5_2 C9_2 1_555 1_555
O14_3 C10_2 1_555 1_555
O20 C10_2 1_555 1_555
C10_2 C11_2 1_555 1_555
C11_2 C5_2 1_555 1_555
C12_2 C4_2 1_555 1_555
H6_2 C12_2 1_555 1_555
Cu16_2 N1_2 1_555 1_555
N2_2 C8_2 1_555 1_555
C1_2 C9_2 1_555 1_555
C6_2 C7_2 1_555 1_555
C11_2 C12_2 1_555 1_555
Cu2_6 Cl1_6 1_555 1_555
O13_3 C14_2 1_555 1_555
O18 C14_2 1_555 1_555
N3_2 C15_2 1_555 1_555
N4_2 Cu2_6 1_555 1_555
C13_2 C15_2 1_555 1_555
C14_2 C18_2 1_555 1_555
C15_2 H7_2 1_555 1_555
C16_2 C13_2 1_555 1_555
C17_2 H8_2 1_555 1_555
C18_2 C17_2 1_555 1_555
C19_2 C16_2 1_555 1_555
H9_2 C19_2 1_555 1_555
C20_2 N3_2 1_555 1_555
H10_2 C20_2 1_555 1_555
C21_2 N4_2 1_555 1_555
H11_2 C21_2 1_555 1_555
O14_2 C22_2 1_555 1_555
O19_2 C22_2 1_555 1_555
C22_2 C23_2 1_555 1_555
C23_2 C17_2 1_555 1_555
C24_2 C16_2 1_555 1_555
H12_2 C24_2 1_555 1_555
Cu14_2 N3_2 1_555 1_555
N4_2 C20_2 1_555 1_555
C13_2 C21_2 1_555 1_555
C18_2 C19_2 1_555 1_555
C23_2 C24_2 1_555 1_555
Cu2_7 Cl1_7 1_555 1_555
Cu2_8 Cl1_8 1_555 1_555
O13_2 C26_2 1_555 1_555
O17_2 C26_2 1_555 1_555
N5_2 C27_2 1_555 1_555
N6_2 Cu2_8 1_555 1_555
C25_2 C27_2 1_555 1_555
C26_2 C30_2 1_555 1_555
C27_2 H13_2 1_555 1_555
C28_2 C25_2 1_555 1_555
C29_2 H14_2 1_555 1_555
C30_2 C29_2 1_555 1_555
C31_2 C28_2 1_555 1_555
H15_2 C31_2 1_555 1_555
C32_2 N5_2 1_555 1_555
H16_2 C32_2 1_555 1_555
C33_2 N6_2 1_555 1_555
H17_2 C33_2 1_555 1_555
O14 C34_2 1_555 1_555
O19 C34_2 1_555 1_555
C34_2 C35_2 1_555 1_555
C35_2 C29_2 1_555 1_555
C36_2 C28_2 1_555 1_555
H18_2 C36_2 1_555 1_555
Cu15_2 N5_2 1_555 1_555
N6_2 C32_2 1_555 1_555
C25_2 C33_2 1_555 1_555
C30_2 C31_2 1_555 1_555
C35_2 C36_2 1_555 1_555
Cu1_2 O2_2 1_555 1_555
O1_2 C2_3 1_555 1_555
O2_2 C2_3 1_555 1_555
C2_3 C6_3 1_555 1_555
C5_3 H2_3 1_555 1_555
C6_3 C5_3 1_555 1_555
H3_3 C7_3 1_555 1_555
O3_2 C10_3 1_555 1_555
O4_2 C10_3 1_555 1_555
C10_3 C11_3 1_555 1_555
C11_3 C5_3 1_555 1_555
H6_3 C12_3 1_555 1_555
Cu14_2 O1_2 1_555 1_555
Cu7_2 O4_2 1_555 1_555
Cu16_2 O3_2 1_555 1_555
O13_4 Cu1_2 1_555 1_555
O14_4 Cu1_2 1_555 1_555
O15_2 Cu14_2 1_555 1_555
O17_3 Cu14_2 1_555 1_555
O19_3 Cu14_2 1_555 1_555
O21_2 Cu1_2 1_555 1_555
N7_4 Cu1_2 1_555 1_555
C6_3 C7_3 1_555 1_555
C11_3 C12_3 1_555 1_555
Cu2_9 Cl1_9 1_555 1_555
N7_3 C3_3 1_555 1_555
N2_3 Cu2_9 1_555 1_555
C1_3 C3_3 1_555 1_555
C4_3 C1_3 1_555 1_555
C8_3 N7_3 1_555 1_555
H4_3 C8_3 1_555 1_555
C9_3 N2_3 1_555 1_555
H5_3 C9_3 1_555 1_555
O5_2 C14_3 1_555 1_555
O6_2 C14_3 1_555 1_555
N7 C15_3 1_555 1_555
N4_3 Cu2_9 1_555 1_555
C13_3 C15_3 1_555 1_555
C14_3 C18_3 1_555 1_555
C15_3 H7_3 1_555 1_555
C16_3 C13_3 1_555 1_555
C17_3 H8_3 1_555 1_555
C18_3 C17_3 1_555 1_555
C19_3 C16_3 1_555 1_555
H9_3 C19_3 1_555 1_555
C20_3 N7 1_555 1_555
H10_3 C20_3 1_555 1_555
C21_3 N4_3 1_555 1_555
H11_3 C21_3 1_555 1_555
O7_2 C22_3 1_555 1_555
O8_2 C22_3 1_555 1_555
C22_3 C23_3 1_555 1_555
C23_3 C17_3 1_555 1_555
C24_3 C16_3 1_555 1_555
H12_3 C24_3 1_555 1_555
N7_2 C27_3 1_555 1_555
N6_3 Cu2_9 1_555 1_555
C25_3 C27_3 1_555 1_555
C28_3 C25_3 1_555 1_555
C32_3 N7_2 1_555 1_555
H16_3 C32_3 1_555 1_555
C33_3 N6_3 1_555 1_555
H17_3 C33_3 1_555 1_555
Cu7_2 O6_2 1_555 1_555
Cu9_2 O8_2 1_555 1_555
Cu15_2 O7_2 1_555 1_555
Cu16_2 O5_2 1_555 1_555
N2_3 C8_3 1_555 1_555
C1_3 C9_3 1_555 1_555
N4_3 C20_3 1_555 1_555
C13_3 C21_3 1_555 1_555
C18_3 C19_3 1_555 1_555
C23_3 C24_3 1_555 1_555
N6_3 C32_3 1_555 1_555
C25_3 C33_3 1_555 1_555
O9_2 C26_3 1_555 1_555
O10_2 C26_3 1_555 1_555
C26_3 C30_3 1_555 1_555
C29_3 H14_3 1_555 1_555
C30_3 C29_3 1_555 1_555
H15_3 C31_3 1_555 1_555
O15_2 C34_3 1_555 1_555
O21_2 C34_3 1_555 1_555
C34_3 C35_3 1_555 1_555
C35_3 C29_3 1_555 1_555
H18_3 C36_3 1_555 1_555
Cu15_2 O9_2 1_555 1_555
Cu9_2 O10_2 1_555 1_555
O18_2 Cu15_2 1_555 1_555
O20_2 Cu15_2 1_555 1_555
C30_3 C31_3 1_555 1_555
C35_3 C36_3 1_555 1_555
O13_5 Cu7_2 1_555 1_555
O14_5 Cu7_2 1_555 1_555
O17_4 Cu16_2 1_555 1_555
O19_4 Cu16_2 1_555 1_555
N7_5 Cu7_2 1_555 1_555
O13_6 Cu9_2 1_555 1_555
O14_6 Cu9_2 1_555 1_555
N7_6 Cu9_2 1_555 1_555
O13_4 C2_4 1_555 1_555
O17_3 C2_4 1_555 1_555
O14_5 C22_4 1_555 1_555
O19_4 C22_4 1_555 1_555
N1_3 C3_4 1_555 1_555
C3_4 H1_4 1_555 1_555
C8_4 N1_3 1_555 1_555
H4_4 C8_4 1_555 1_555
N3_3 C15_4 1_555 1_555
C15_4 H7_4 1_555 1_555
C20_4 N3_3 1_555 1_555
H10_4 C20_4 1_555 1_555
N5_3 C27_4 1_555 1_555
C27_4 H13_4 1_555 1_555
C32_4 N5_3 1_555 1_555
H16_4 C32_4 1_555 1_555
Cu14_3 N3_3 1_555 1_555
Cu15_3 N5_3 1_555 1_555
Cu16_3 N1_3 1_555 1_555
N2_4 C8_4 1_555 1_555
N4_4 C20_4 1_555 1_555
N6_4 C32_4 1_555 1_555
Cu2_10 Cl1_10 1_555 1_555
C4_4 C1_4 1_555 1_555
C5_4 H2_4 1_555 1_555
C6_4 C5_4 1_555 1_555
C7_4 C4_4 1_555 1_555
H3_4 C7_4 1_555 1_555
H5_4 C9_4 1_555 1_555
O14_6 C10_4 1_555 1_555
O20_2 C10_4 1_555 1_555
C10_4 C11_4 1_555 1_555
C11_4 C5_4 1_555 1_555
C12_4 C4_4 1_555 1_555
H6_4 C12_4 1_555 1_555
C16_4 C13_4 1_555 1_555
C17_4 H8_4 1_555 1_555
C18_4 C17_4 1_555 1_555
C19_4 C16_4 1_555 1_555
H9_4 C19_4 1_555 1_555
H11_4 C21_4 1_555 1_555
C23_4 C17_4 1_555 1_555
C24_4 C16_4 1_555 1_555
H12_4 C24_4 1_555 1_555
O13_5 C26_4 1_555 1_555
O17_4 C26_4 1_555 1_555
C26_4 C30_4 1_555 1_555
C28_4 C25_4 1_555 1_555
C29_4 H14_4 1_555 1_555
C30_4 C29_4 1_555 1_555
C31_4 C28_4 1_555 1_555
H15_4 C31_4 1_555 1_555
H17_4 C33_4 1_555 1_555
C35_4 C29_4 1_555 1_555
C36_4 C28_4 1_555 1_555
H18_4 C36_4 1_555 1_555
C1_4 C9_4 1_555 1_555
C6_4 C7_4 1_555 1_555
C11_4 C12_4 1_555 1_555
C13_4 C21_4 1_555 1_555
C18_4 C19_4 1_555 1_555
C23_4 C24_4 1_555 1_555
C25_4 C33_4 1_555 1_555
C30_4 C31_4 1_555 1_555
C35_4 C36_4 1_555 1_555
O13_6 C14_4 1_555 1_555
O18_2 C14_4 1_555 1_555
O14_4 C34_4 1_555 1_555
O19_3 C34_4 1_555 1_555
Cu14 O2_3 1_555 1_555
O1_3 C2_5 1_555 1_555
O2_3 C2_5 1_555 1_555
O7_3 C22_5 1_555 1_555
O8_3 C22_5 1_555 1_555
Cu14_3 O1_3 1_555 1_555
Cu16 O8_3 1_555 1_555
Cu15_3 O7_3 1_555 1_555
O13_7 Cu14 1_555 1_555
O14_7 Cu14 1_555 1_555
O15_3 Cu14_3 1_555 1_555
O17_5 Cu14_3 1_555 1_555
O19_5 Cu14_3 1_555 1_555
O21_3 Cu14 1_555 1_555
Cu2_11 Cl1_11 1_555 1_555
C4_5 C1_5 1_555 1_555
C5_5 H2_5 1_555 1_555
C6_5 C5_5 1_555 1_555
C7_5 C4_5 1_555 1_555
H3_5 C7_5 1_555 1_555
H5_5 C9_5 1_555 1_555
O3_3 C10_5 1_555 1_555
O4_3 C10_5 1_555 1_555
C10_5 C11_5 1_555 1_555
C11_5 C5_5 1_555 1_555
C12_5 C4_5 1_555 1_555
H6_5 C12_5 1_555 1_555
C16_5 C13_5 1_555 1_555
C17_5 H8_5 1_555 1_555
C18_5 C17_5 1_555 1_555
C19_5 C16_5 1_555 1_555
H9_5 C19_5 1_555 1_555
H11_5 C21_5 1_555 1_555
C23_5 C17_5 1_555 1_555
C24_5 C16_5 1_555 1_555
H12_5 C24_5 1_555 1_555
O9_3 C26_5 1_555 1_555
O10_3 C26_5 1_555 1_555
C26_5 C30_5 1_555 1_555
C28_5 C25_5 1_555 1_555
C29_5 H14_5 1_555 1_555
C30_5 C29_5 1_555 1_555
C31_5 C28_5 1_555 1_555
H15_5 C31_5 1_555 1_555
H17_5 C33_5 1_555 1_555
C35_5 C29_5 1_555 1_555
C36_5 C28_5 1_555 1_555
H18_5 C36_5 1_555 1_555
Cu15_3 O9_3 1_555 1_555
Cu15 O4_3 1_555 1_555
Cu16 O10_3 1_555 1_555
Cu16_3 O3_3 1_555 1_555
O18_3 Cu15_3 1_555 1_555
O20_3 Cu15_3 1_555 1_555
C1_5 C9_5 1_555 1_555
C6_5 C7_5 1_555 1_555
C11_5 C12_5 1_555 1_555
C13_5 C21_5 1_555 1_555
C18_5 C19_5 1_555 1_555
C23_5 C24_5 1_555 1_555
C25_5 C33_5 1_555 1_555
C30_5 C31_5 1_555 1_555
C35_5 C36_5 1_555 1_555
N7_6 C3_5 1_555 1_555
C3_5 H1_5 1_555 1_555
C8_5 N7_6 1_555 1_555
H4_5 C8_5 1_555 1_555
N7_4 C15_5 1_555 1_555
C15_5 H7_5 1_555 1_555
C20_5 N7_4 1_555 1_555
H10_5 C20_5 1_555 1_555
N7_5 C27_5 1_555 1_555
C27_5 H13_5 1_555 1_555
C32_5 N7_5 1_555 1_555
H16_5 C32_5 1_555 1_555
N2_5 C8_5 1_555 1_555
N4_5 C20_5 1_555 1_555
N6_5 C32_5 1_555 1_555
O5_3 C14_5 1_555 1_555
O6_3 C14_5 1_555 1_555
O15_3 C34_5 1_555 1_555
O21_3 C34_5 1_555 1_555
Cu15 O6_3 1_555 1_555
Cu16_3 O5_3 1_555 1_555
O13_8 Cu15 1_555 1_555
O14_8 Cu15 1_555 1_555
O17_6 Cu16_3 1_555 1_555
O19_6 Cu16_3 1_555 1_555
O13_9 Cu16 1_555 1_555
O14_9 Cu16 1_555 1_555
O13_7 C2_6 1_555 1_555
O17_5 C2_6 1_555 1_555
C2_6 C6_6 1_555 1_555
C5_6 H2_6 1_555 1_555
C6_6 C5_6 1_555 1_555
H3_6 C7_6 1_555 1_555
O14_9 C10_6 1_555 1_555
O20_3 C10_6 1_555 1_555
C10_6 C11_6 1_555 1_555
C11_6 C5_6 1_555 1_555
H6_6 C12_6 1_555 1_555
C6_6 C7_6 1_555 1_555
C11_6 C12_6 1_555 1_555
Cu2_12 Cl1_12 1_555 1_555
N8_2 C3_6 1_555 1_555
N2_6 Cu2_12 1_555 1_555
C1_6 C3_6 1_555 1_555
C4_6 C1_6 1_555 1_555
C8_6 N8_2 1_555 1_555
H4_6 C8_6 1_555 1_555
C9_6 N2_6 1_555 1_555
H5_6 C9_6 1_555 1_555
O13_9 C14_6 1_555 1_555
O18_3 C14_6 1_555 1_555
N8 C15_6 1_555 1_555
N4_6 Cu2_12 1_555 1_555
C13_6 C15_6 1_555 1_555
C14_6 C18_6 1_555 1_555
C15_6 H7_6 1_555 1_555
C16_6 C13_6 1_555 1_555
C17_6 H8_6 1_555 1_555
C18_6 C17_6 1_555 1_555
C19_6 C16_6 1_555 1_555
H9_6 C19_6 1_555 1_555
C20_6 N8 1_555 1_555
H10_6 C20_6 1_555 1_555
C21_6 N4_6 1_555 1_555
H11_6 C21_6 1_555 1_555
O14_8 C22_6 1_555 1_555
O19_6 C22_6 1_555 1_555
C22_6 C23_6 1_555 1_555
C23_6 C17_6 1_555 1_555
C24_6 C16_6 1_555 1_555
H12_6 C24_6 1_555 1_555
N9 C27_6 1_555 1_555
N6_6 Cu2_12 1_555 1_555
C25_6 C27_6 1_555 1_555
C28_6 C25_6 1_555 1_555
C32_6 N9 1_555 1_555
H16_6 C32_6 1_555 1_555
C33_6 N6_6 1_555 1_555
H17_6 C33_6 1_555 1_555
N2_6 C8_6 1_555 1_555
C1_6 C9_6 1_555 1_555
N4_6 C20_6 1_555 1_555
C13_6 C21_6 1_555 1_555
C18_6 C19_6 1_555 1_555
C23_6 C24_6 1_555 1_555
N6_6 C32_6 1_555 1_555
C25_6 C33_6 1_555 1_555
O13_8 C26_6 1_555 1_555
O17_6 C26_6 1_555 1_555
C26_6 C30_6 1_555 1_555
C29_6 H14_6 1_555 1_555
C30_6 C29_6 1_555 1_555
H15_6 C31_6 1_555 1_555
O14_7 C34_6 1_555 1_555
O19_5 C34_6 1_555 1_555
C34_6 C35_6 1_555 1_555
C35_6 C29_6 1_555 1_555
H18_6 C36_6 1_555 1_555
C30_6 C31_6 1_555 1_555
C35_6 C36_6 1_555 1_555

#END
