
###############################################################################
#
# This file contains modified crystal structure data generated from the
# MOF subset of the Cambridge Structural Database (CSD) v543 
# hosted by the Cambridge Crystallographic Data Centre (CCDC).
#
# This work is licensed under the Creative Commons
# Attribution-NonCommercial-ShareAlike 4.0 International License.
# To view a copy of this license, visit
# http://creativecommons.org/licenses/by-nc-sa/4.0/
# or send a letter to
# Creative Commons, PO Box 1866, Mountain View, CA 94042, USA.
#
# CIF created using the CSD Python API on 29 September 2022
# The structure has been converted into the P1 space group
# The structure has a 3D framework
# The original CSD entry OJIWIO is in the monoclinic crystal system
# The framework has been calculated to contain at least 10.0% void space
# The void calculation uses a probe of radius 1.32A, grid spacing 0.4
#
###############################################################################

data_OJIWIO
_chemical_formula_moiety         '(C80 H40 N8 O20 Zn4)n'
_symmetry_cell_setting           triclinic
_symmetry_space_group_name_H-M   'P 1'
_symmetry_Int_Tables_number      1
_space_group_name_Hall           'P 1'
loop_
_symmetry_equiv_pos_site_id
_symmetry_equiv_pos_as_xyz
1 x,y,z
_cell_length_a                   11.217(12)
_cell_length_b                   17.703(18)
_cell_length_c                   11.526(13)
_cell_angle_alpha                90
_cell_angle_beta                 106.917(17)
_cell_angle_gamma                90
_cell_volume                     2189.73
loop_
_atom_site_label
_atom_site_type_symbol
_atom_site_fract_x
_atom_site_fract_y
_atom_site_fract_z
C29 C 0.2473(9) 0.0153(5) 0.6482(8)
H15 H 0.2124 0.0354 0.7064
C30 C 0.1775(9) 0.0179(6) 0.5261(8)
H16 H 0.0972 0.0391 0.5028
C34 C 0.1890(9) 0.0528(5) 0.2444(8)
C35 C 0.1190(7) 0.0561(4) 0.1156(7)
C40 C 0.1433(8) 0.1142(5) 0.0453(8)
H20 H 0.2015 0.1518 0.0811
O15 O 0.2715(6) 0.0978(3) 0.2980(5)
C31 C 0.2282(7) 0.9891(5) 0.4413(7)
C32 C 0.3445(9) 0.9555(6) 0.4806(8)
H17 H 0.3804 0.9338 0.4243
C33 C 0.4072(8) 0.9543(5) 0.6025(8)
H18 H 0.4854 0.9305 0.6283
C36 C 0.0320(7) 0.9988(4) 0.0646(7)
C37 C 0.0033(7) 0.9385(4) 0.1337(7)
C38 C 0.0679(8) 0.9368(5) 0.2667(8)
N3 N 0.3607(6) 0.9857(3) 0.6856(6)
N5 N 0.1600(6) 0.9920(4) 0.3119(6)
O16 O 0.0447(7) 0.8890(4) 0.3352(6)
Zn5 Zn 0.45895(9) 0.99223(5) 0.86465(8)
C1 C 0.1840(8) 0.4335(4) 0.9559(9)
C2 C 0.2593(7) 0.3613(4) 0.9604(8)
C5 C 0.3742(7) 0.2186(4) 0.9762(7)
C6 C 0.3042(8) 0.2472(5) 0.8654(8)
H3 H 0.2964 0.2189 0.7945
C7 C 0.2444(8) 0.3181(4) 0.8568(8)
H4 H 0.1949 0.336 0.7813
C8 C 0.4235(7) 0.1376(4) 0.9856(8)
O2 O 0.1239(5) 0.4592(3) 0.8536(6)
O4 O 0.4091(5) 0.1021(3) 0.8889(5)
O12 O 0.6239(5) 0.0408(3) 0.8536(6)
C23 C 0.6629(8) 0.6650(4) 0.9286(8)
H11 H 0.6483 0.6348 0.8589
C24 C 0.6068(8) 0.7363(4) 0.9212(8)
H12 H 0.5559 0.7538 0.8461
O7 O 0.8175(5) 0.5391(3) 0.9422(6)
O8 O 0.3175(5) 0.9609(3) 0.9422(6)
O13 O 0.5293(5) 0.8875(3) 0.9070(5)
Zn4 Zn 0.95895(9) 0.50777(5) 0.86465(8)
C3 C 0.1629(8) 0.8350(4) 0.9286(8)
H1 H 0.1483 0.8652 0.8589
C4 C 0.1068(8) 0.7637(4) 0.9212(8)
H2 H 0.0559 0.7462 0.8461
O3 O 0.0293(5) 0.6125(3) 0.9070(5)
C9 C 0.7473(9) 0.4847(5) 0.6482(8)
H5 H 0.7124 0.4646 0.7064
C10 C 0.6775(9) 0.4821(6) 0.5261(8)
H6 H 0.5972 0.4609 0.5028
C11 C 0.7282(7) 0.5109(5) 0.4413(7)
C12 C 0.8445(9) 0.5445(6) 0.4806(8)
H7 H 0.8804 0.5662 0.4243
C13 C 0.9072(8) 0.5457(5) 0.6025(8)
H8 H 0.9854 0.5695 0.6283
C14 C 0.6890(9) 0.4472(5) 0.2444(8)
C15 C 0.6190(7) 0.4439(4) 0.1156(7)
C16 C 0.5320(7) 0.5012(4) 0.0646(7)
C17 C 0.5033(7) 0.5615(4) 0.1337(7)
C18 C 0.5679(8) 0.5632(5) 0.2667(8)
C19 C 0.4187(8) 0.6169(5) 0.0793(8)
H9 H 0.4026 0.6569 0.1263
C20 C 0.6433(8) 0.3858(5) 0.0453(8)
H10 H 0.7015 0.3482 0.0811
N1 N 0.8607(6) 0.5143(3) 0.6856(6)
N2 N 0.6600(6) 0.5080(4) 0.3119(6)
O5 O 0.7715(6) 0.4022(3) 0.2980(5)
O6 O 0.5447(7) 0.6110(4) 0.3352(6)
C21 C 0.6840(8) 0.0665(4) 0.9559(9)
C22 C 0.7593(7) 0.1387(4) 0.9604(8)
C25 C 0.8742(7) 0.2814(4) 0.9762(7)
C26 C 0.8042(8) 0.2528(5) 0.8654(8)
H13 H 0.7964 0.2811 0.7945
C27 C 0.7444(8) 0.1819(4) 0.8568(8)
H14 H 0.6949 0.164 0.7813
C28 C 0.9235(7) 0.3624(4) 0.9856(8)
O14 O 0.9091(5) 0.3979(3) 0.8889(5)
C19_2 C 0.0813(8) 0.1169(5) 0.9207(8)
H9_2 H 0.0974 0.1569 0.8737
Zn7 Zn 0.04105(9) 0.49223(5) 0.13535(8)
C3_2 C 0.3371(8) 0.3350(4) 0.0714(8)
H1_2 H 0.3517 0.3652 0.1411
C4_2 C 0.3932(8) 0.2637(4) 0.0788(8)
H2_2 H 0.4441 0.2462 0.1539
C11_2 C 0.7718(7) 0.0109(5) 0.5587(7)
C12_2 C 0.6555(9) 0.0445(6) 0.5194(8)
H7_2 H 0.6196 0.0662 0.5757
C13_2 C 0.5928(8) 0.0457(5) 0.3975(8)
H8_2 H 0.5146 0.0695 0.3717
C16_2 C 0.9680(7) 0.0012(4) 0.9354(7)
C17_2 C 0.9967(7) 0.0615(4) 0.8663(7)
C18_2 C 0.9321(8) 0.0632(5) 0.7333(8)
N1_2 N 0.6393(6) 0.0143(3) 0.3144(6)
N2_2 N 0.8400(6) 0.0080(4) 0.6881(6)
O1 O 0.1825(5) 0.4609(3) 0.0578(6)
O3_2 O 0.4707(5) 0.1125(3) 0.0930(5)
O6_2 O 0.9553(7) 0.1110(4) 0.6648(6)
Zn1 Zn 0.54105(9) 0.00777(5) 0.13535(8)
O9 O 0.6825(5) 0.0391(3) 0.0578(6)
C9_2 C 0.7527(9) 0.9847(5) 0.3518(8)
H5_2 H 0.7876 0.9646 0.2936
C10_2 C 0.8225(9) 0.9821(6) 0.4739(8)
H6_2 H 0.9028 0.9609 0.4972
C14_2 C 0.8110(9) 0.9472(5) 0.7556(8)
C15_2 C 0.8810(7) 0.9439(4) 0.8844(7)
C20_2 C 0.8567(8) 0.8858(5) 0.9547(8)
H10_2 H 0.7985 0.8482 0.9189
O5_2 O 0.7285(6) 0.9022(3) 0.7020(5)
C21_2 C 0.8160(8) 0.5665(4) 0.0441(9)
C22_2 C 0.7407(7) 0.6387(4) 0.0396(8)
C25_2 C 0.6258(7) 0.7814(4) 0.0238(7)
C26_2 C 0.6958(8) 0.7528(5) 0.1346(8)
H13_2 H 0.7036 0.7811 0.2055
C27_2 C 0.7556(8) 0.6819(4) 0.1432(8)
H14_2 H 0.8051 0.664 0.2187
C28_2 C 0.5765(7) 0.8624(4) 0.0144(8)
O10 O 0.8761(5) 0.5408(3) 0.1464(6)
O11 O 0.3761(5) 0.9592(3) 0.1464(6)
O14_2 O 0.5909(5) 0.8979(3) 0.1111(5)
C1_2 C 0.3160(8) 0.9335(4) 0.0441(9)
C2_2 C 0.2407(7) 0.8613(4) 0.0396(8)
C5_2 C 0.1258(7) 0.7186(4) 0.0238(7)
C6_2 C 0.1958(8) 0.7472(5) 0.1346(8)
H3_2 H 0.2036 0.7189 0.2055
C7_2 C 0.2556(8) 0.8181(4) 0.1432(8)
H4_2 H 0.3051 0.836 0.2187
C8_2 C 0.0765(7) 0.6376(4) 0.0144(8)
O4_2 O 0.0909(5) 0.6021(3) 0.1111(5)
N4 N 0.1393(6) 0.4857(3) 0.3144(6)
C23_2 C 0.8371(8) 0.1650(4) 0.0714(8)
H11_2 H 0.8517 0.1348 0.1411
C24_2 C 0.8932(8) 0.2363(4) 0.0788(8)
H12_2 H 0.9441 0.2538 0.1539
O13_2 O 0.9707(5) 0.3875(3) 0.0930(5)
C29_2 C 0.2527(9) 0.5153(5) 0.3518(8)
H15_2 H 0.2876 0.5354 0.2936
C30_2 C 0.3225(9) 0.5179(6) 0.4739(8)
H16_2 H 0.4028 0.5391 0.4972
C31_2 C 0.2718(7) 0.4891(5) 0.5587(7)
C32_2 C 0.1555(9) 0.4555(6) 0.5194(8)
H17_2 H 0.1196 0.4338 0.5757
C33_2 C 0.0928(8) 0.4543(5) 0.3975(8)
H18_2 H 0.0146 0.4305 0.3717
C34_2 C 0.3110(9) 0.5528(5) 0.7556(8)
C35_2 C 0.3810(7) 0.5561(4) 0.8844(7)
C36_2 C 0.4680(7) 0.4988(4) 0.9354(7)
C37_2 C 0.4967(7) 0.4385(4) 0.8663(7)
C38_2 C 0.4321(8) 0.4368(5) 0.7333(8)
C39 C 0.5813(8) 0.3831(5) 0.9207(8)
H19 H 0.5974 0.3431 0.8737
C40_2 C 0.3567(8) 0.6142(5) 0.9547(8)
H20_2 H 0.2985 0.6518 0.9189
N5_2 N 0.3400(6) 0.4920(4) 0.6881(6)
O15_2 O 0.2285(6) 0.5978(3) 0.7020(5)
O16_2 O 0.4553(7) 0.3890(4) 0.6648(6)
C39_2 C 0.9187(8) 0.8831(5) 0.0793(8)
H19_2 H 0.9026 0.8431 0.1263
loop_
_geom_bond_atom_site_label_1
_geom_bond_atom_site_label_2
_geom_bond_site_symmetry_1
_geom_bond_site_symmetry_2
C29 H15 1_555 1_555
C30 C29 1_555 1_555
H16 C30 1_555 1_555
C34 C35 1_555 1_555
H20 C40 1_555 1_555
O15 C34 1_555 1_555
C35 C40 1_555 1_555
C32 C31 1_555 1_555
H17 C32 1_555 1_555
C33 C32 1_555 1_555
H18 C33 1_555 1_555
C37 C36 1_555 1_555
C38 C37 1_555 1_555
N5 C31 1_555 1_555
O16 C38 1_555 1_555
Zn5 N3 1_555 1_555
C33 N3 1_555 1_555
C38 N5 1_555 1_555
C1 C2 1_555 1_555
C6 C5 1_555 1_555
H3 C6 1_555 1_555
C7 C2 1_555 1_555
H4 C7 1_555 1_555
C8 C5 1_555 1_555
O2 C1 1_555 1_555
O4 C8 1_555 1_555
C6 C7 1_555 1_555
C23 H11 1_555 1_555
C24 C23 1_555 1_555
H12 C24 1_555 1_555
O8 Zn5 1_555 1_555
Zn4 O7 1_555 1_555
O13 Zn5 1_555 1_555
C3 H1 1_555 1_555
C4 C3 1_555 1_555
H2 C4 1_555 1_555
C9 H5 1_555 1_555
C10 C9 1_555 1_555
H6 C10 1_555 1_555
C11 C10 1_555 1_555
C12 C11 1_555 1_555
H7 C12 1_555 1_555
C13 C12 1_555 1_555
H8 C13 1_555 1_555
C14 C15 1_555 1_555
C15 C16 1_555 1_555
C16 C17 1_555 1_555
C17 C18 1_555 1_555
C18 N2 1_555 1_555
C19 C17 1_555 1_555
H9 C19 1_555 1_555
C20 C15 1_555 1_555
H10 C20 1_555 1_555
N1 C9 1_555 1_555
N2 C11 1_555 1_555
O5 C14 1_555 1_555
O6 C18 1_555 1_555
Zn4 N1 1_555 1_555
C21 C22 1_555 1_555
C26 C25 1_555 1_555
H13 C26 1_555 1_555
C27 C22 1_555 1_555
H14 C27 1_555 1_555
C28 C25 1_555 1_555
O12 C21 1_555 1_555
O14 Zn4 1_555 1_555
C13 N1 1_555 1_555
C14 N2 1_555 1_555
C26 C27 1_555 1_555
C28 O14 1_555 1_555
H9_2 C19_2 1_555 1_555
C3_2 H1_2 1_555 1_555
C4_2 C3_2 1_555 1_555
H2_2 C4_2 1_555 1_555
C12_2 C11_2 1_555 1_555
H7_2 C12_2 1_555 1_555
C13_2 C12_2 1_555 1_555
H8_2 C13_2 1_555 1_555
C16_2 C17_2 1_555 1_555
C17_2 C18_2 1_555 1_555
C18_2 N2_2 1_555 1_555
N2_2 C11_2 1_555 1_555
O6_2 C18_2 1_555 1_555
Zn1 N1_2 1_555 1_555
O9 Zn1 1_555 1_555
Zn7 O1 1_555 1_555
C13_2 N1_2 1_555 1_555
O3_2 Zn1 1_555 1_555
C9_2 H5_2 1_555 1_555
C10_2 C9_2 1_555 1_555
H6_2 C10_2 1_555 1_555
C14_2 C15_2 1_555 1_555
C20_2 C15_2 1_555 1_555
H10_2 C20_2 1_555 1_555
O5_2 C14_2 1_555 1_555
C21_2 C22_2 1_555 1_555
C26_2 C25_2 1_555 1_555
H13_2 C26_2 1_555 1_555
C27_2 C22_2 1_555 1_555
H14_2 C27_2 1_555 1_555
C28_2 C25_2 1_555 1_555
O10 C21_2 1_555 1_555
C26_2 C27_2 1_555 1_555
C28_2 O14_2 1_555 1_555
C1_2 C2_2 1_555 1_555
C6_2 C5_2 1_555 1_555
H3_2 C6_2 1_555 1_555
C7_2 C2_2 1_555 1_555
H4_2 C7_2 1_555 1_555
C8_2 C5_2 1_555 1_555
O11 C1_2 1_555 1_555
O4_2 C8_2 1_555 1_555
N4 Zn7 1_555 1_555
Zn7 O4_2 1_555 1_555
C6_2 C7_2 1_555 1_555
C23_2 H11_2 1_555 1_555
C24_2 C23_2 1_555 1_555
H12_2 C24_2 1_555 1_555
C29_2 H15_2 1_555 1_555
C30_2 C29_2 1_555 1_555
H16_2 C30_2 1_555 1_555
C31_2 C30_2 1_555 1_555
C32_2 C31_2 1_555 1_555
H17_2 C32_2 1_555 1_555
C33_2 C32_2 1_555 1_555
H18_2 C33_2 1_555 1_555
C34_2 C35_2 1_555 1_555
C35_2 C36_2 1_555 1_555
C37_2 C36_2 1_555 1_555
C38_2 C37_2 1_555 1_555
H19 C39 1_555 1_555
H20_2 C40_2 1_555 1_555
N4 C29_2 1_555 1_555
N5_2 C31_2 1_555 1_555
O15_2 C34_2 1_555 1_555
O16_2 C38_2 1_555 1_555
C33_2 N4 1_555 1_555
C34_2 N5_2 1_555 1_555
C35_2 C40_2 1_555 1_555
C37_2 C39 1_555 1_555
C38_2 N5_2 1_555 1_555
H19_2 C39_2 1_555 1_555

#END
