
###############################################################################
#
# This file contains modified crystal structure data generated from the
# MOF subset of the Cambridge Structural Database (CSD) v543 
# hosted by the Cambridge Crystallographic Data Centre (CCDC).
#
# This work is licensed under the Creative Commons
# Attribution-NonCommercial-ShareAlike 4.0 International License.
# To view a copy of this license, visit
# http://creativecommons.org/licenses/by-nc-sa/4.0/
# or send a letter to
# Creative Commons, PO Box 1866, Mountain View, CA 94042, USA.
#
# CIF created using the CSD Python API on 29 September 2022
# The structure has been converted into the P1 space group
# The structure has a 3D framework
# The original CSD entry OJORUC is in the monoclinic crystal system
# The framework has been calculated to contain at least 10.0% void space
# The void calculation uses a probe of radius 1.32A, grid spacing 0.4
#
###############################################################################

data_OJORUC
_chemical_formula_moiety         '(C144 H140 N20 O36 Zn8)n'
_symmetry_cell_setting           triclinic
_symmetry_space_group_name_H-M   'P 1'
_symmetry_Int_Tables_number      1
_space_group_name_Hall           'P 1'
loop_
_symmetry_equiv_pos_site_id
_symmetry_equiv_pos_as_xyz
1 x,y,z
_cell_length_a                   15.954(2)
_cell_length_b                   19.226(3)
_cell_length_c                   16.734(3)
_cell_angle_alpha                90
_cell_angle_beta                 96.828(14)
_cell_angle_gamma                90
_cell_volume                     5096.44
loop_
_atom_site_label
_atom_site_type_symbol
_atom_site_fract_x
_atom_site_fract_y
_atom_site_fract_z
Zn8 Zn 0.53449(4) 0.07268(3) 0.03330(4)
Zn10 Zn 0.33372(4) 0.06898(3) 0.00184(4)
Zn1 Zn 0.53449(4) 0.42732(3) 0.53330(4)
Zn2 Zn 0.33372(4) 0.43102(3) 0.50184(4)
O1 O 0.4861(3) 0.3574(2) 0.6084(3)
O2 O 0.3454(3) 0.3661(2) 0.5961(2)
O3 O 0.4887(2) 0.1242(2) 0.9268(2)
O4 O 0.3496(2) 0.1349(2) 0.9153(2)
O5 O 0.2149(2) 0.4520(2) 0.4750(3)
O6 O 0.2231(3) 0.5001(3) 0.5951(3)
O7 O 0.6130(3) 0.4731(2) 0.6288(3)
O8 O 0.6372(3) 0.3582(3) 0.5284(3)
O9 O 0.4273(2) 0.49431(18) 0.5370(2)
N1 N 0.5768(4) 0.1976(3) 0.8291(4)
H1 H 0.5772 0.1580 0.8530
N2 N 0.2606(3) 0.3015(3) 0.7004(4)
H2 H 0.2621 0.3381 0.6710
N4 N 0.6565(5) 0.5221(4) 0.7482(4)
N5 N 0.7647(6) 0.3157(6) 0.5638(6)
C1 C 0.7267(5) 0.1852(4) 0.8427(5)
H4 H 0.7192 0.1381 0.8519
C2 C 0.8074(6) 0.2111(6) 0.8454(6)
H5 H 0.8539 0.1817 0.8546
C3 C 0.8177(7) 0.2808(7) 0.8341(7)
H6 H 0.8717 0.2995 0.8368
C4 C 0.7471(8) 0.3242(6) 0.8185(7)
H7 H 0.7553 0.3713 0.8091
C5 C 0.6654(6) 0.2992(5) 0.8165(5)
H8 H 0.6192 0.3289 0.8086
C6 C 0.6550(5) 0.2283(5) 0.8265(5)
C7 C 0.4967(4) 0.2227(3) 0.7980(4)
C8 C 0.4219(4) 0.2021(3) 0.8267(4)
C9 C 0.3453(4) 0.2268(3) 0.7916(4)
H9 H 0.2963 0.2117 0.8112
C10 C 0.3389(4) 0.2724(3) 0.7295(4)
C11 C 0.4136(4) 0.2939(3) 0.6980(3)
C12 C 0.4901(4) 0.2684(3) 0.7335(4)
H10 H 0.5392 0.2825 0.7132
C13 C 0.4215(4) 0.1491(3) 0.8962(3)
C14 C 0.4152(4) 0.3428(3) 0.6291(4)
C15 C 0.1799(4) 0.2781(4) 0.7134(4)
C16 C 0.1166(6) 0.3230(5) 0.7212(6)
H11 H 0.1271 0.3705 0.7211
C17 C 0.0362(6) 0.2993(6) 0.7294(7)
C18 C 0.0201(6) 0.2301(6) 0.7307(7)
C19 C 0.0822(6) 0.1837(5) 0.7215(6)
H14 H 0.0710 0.1362 0.7213
C20 C 0.1607(5) 0.2071(4) 0.7126(5)
H15 H 0.2030 0.1750 0.7057
C21 C 0.1802(4) 0.4811(3) 0.5336(4)
C22 C 0.0887(3) 0.4898(3) 0.5189(3)
C23 C 0.0453(4) 0.4746(3) 0.4445(4)
H16 H 0.0768 0.4568 0.4059
H18 H 0.0148 0.4973 0.0714
C29 C 0.0430(8) 0.5182(6) 0.1828(8)
H20 H 0.0913 0.5433 0.1754
C30 C 0.0186(6) 0.5102(5) 0.2609(6)
H21 H 0.0508 0.5302 0.3050
C31 C 0.5975(6) 0.4934(5) 0.6934(5)
H22 H 0.5426 0.4892 0.7062
C32 C 0.6292(8) 0.5511(7) 0.8227(7)
H23 H 0.5694 0.5449 0.8218
H24 H 0.6425 0.5998 0.8261
H25 H 0.6580 0.5274 0.8684
C33 C 0.7432(6) 0.5254(5) 0.7327(5)
H26 H 0.7558 0.4861 0.7007
H27 H 0.7794 0.5247 0.7828
H28 H 0.7524 0.5675 0.7042
C34 C 0.7026(8) 0.3614(6) 0.5467(6)
H29 H 0.7214 0.4071 0.5522
C35 C 0.7436(9) 0.2458(9) 0.5702(9)
H30 H 0.7540 0.2217 0.5221
H31 H 0.6850 0.2419 0.5773
H32 H 0.7773 0.2256 0.6157
C36 C 0.8475(10) 0.3416(8) 0.5706(9)
H33 H 0.8499 0.3856 0.5979
H34 H 0.8645 0.3475 0.5179
H35 H 0.8849 0.3093 0.6007
N6 N 0.0822(3) 0.5345(3) 0.6528(4)
H36 H 0.1318 0.5521 0.6531
C40 C 0.0409(4) 0.5166(4) 0.5784(4)
C41 C 0.0525(6) 0.5272(5) 0.7284(5)
C42 C 0.1044(7) 0.5588(5) 0.7927(6)
H38 H 0.1526 0.5834 0.7838
C43 C 0.0022(10) 0.5094(7) 0.8779(8)
C44 C 0.0797(9) 0.5514(7) 0.8726(8)
H40 H 0.1102 0.5715 0.9176
H53 H 0.0070 0.6691 0.2659
H54 H 0.0336 0.7855 0.2620
Zn7 Zn 0.46551(4) 0.57268(3) 0.46670(4)
O20 O 0.4887(2) 0.3758(2) 0.4268(2)
O22 O 0.3496(2) 0.3651(2) 0.4153(2)
O24 O 0.5727(2) 0.50569(18) 0.4630(2)
N3 N 0.9178(3) 0.4655(3) 0.3472(4)
H3 H 0.8682 0.4479 0.3469
H12 H 0.9930 0.3309 0.7341
H13 H 0.9664 0.2145 0.7380
C24 C 0.9591(4) 0.4834(4) 0.4216(4)
C25 C 0.9475(6) 0.4728(5) 0.2716(5)
C26 C 0.8956(7) 0.4412(5) 0.2073(6)
H17 H 0.8474 0.4166 0.2162
C27 C 0.9978(10) 0.4906(7) 0.1221(8)
C28 C 0.9203(9) 0.4486(7) 0.1274(8)
H19 H 0.8898 0.4285 0.0824
O10 O 0.7851(2) 0.5480(2) 0.5250(3)
O11 O 0.7769(3) 0.4999(3) 0.4049(3)
C37 C 0.8198(4) 0.5189(3) 0.4664(4)
C38 C 0.9113(3) 0.5102(3) 0.4811(3)
C39 C 0.9547(4) 0.5254(3) 0.5555(4)
H37 H 0.9232 0.5432 0.5941
H39 H 0.9852 0.5027 0.9286
C45 C 0.9570(8) 0.4818(6) 0.8172(8)
H41 H 0.9087 0.4567 0.8246
C46 C 0.9814(6) 0.4898(5) 0.7391(6)
H42 H 0.9492 0.4698 0.6950
Zn4 Zn 0.66628(4) 0.56898(3) 0.49816(4)
O12 O 0.5139(3) 0.6426(2) 0.3916(3)
O13 O 0.6546(3) 0.6339(2) 0.4039(2)
O14 O 0.5113(2) 0.8758(2) 0.0732(2)
O15 O 0.6504(2) 0.8651(2) 0.0847(2)
O16 O 0.3870(3) 0.5269(2) 0.3712(3)
O17 O 0.3628(3) 0.6418(3) 0.4716(3)
N7 N 0.4232(4) 0.8024(3) 0.1709(4)
H43 H 0.4228 0.8420 0.1470
N8 N 0.7394(3) 0.6985(3) 0.2996(4)
H44 H 0.7379 0.6619 0.3290
N9 N 0.3435(5) 0.4779(4) 0.2518(4)
N10 N 0.2353(6) 0.6843(6) 0.4362(6)
C47 C 0.2733(5) 0.8148(4) 0.1573(5)
H45 H 0.2808 0.8619 0.1481
C48 C 0.1926(6) 0.7889(6) 0.1546(6)
H46 H 0.1461 0.8183 0.1454
C49 C 0.1823(7) 0.7192(7) 0.1659(7)
H47 H 0.1283 0.7005 0.1632
C50 C 0.2529(8) 0.6758(6) 0.1815(7)
H48 H 0.2447 0.6287 0.1909
C51 C 0.3346(6) 0.7008(5) 0.1835(5)
H49 H 0.3808 0.6711 0.1914
C52 C 0.3450(5) 0.7717(5) 0.1735(5)
C53 C 0.5033(4) 0.7773(3) 0.2020(4)
C54 C 0.5781(4) 0.7979(3) 0.1733(4)
C55 C 0.6547(4) 0.7732(3) 0.2084(4)
H50 H 0.7037 0.7883 0.1888
C56 C 0.6611(4) 0.7276(3) 0.2705(4)
C57 C 0.5864(4) 0.7061(3) 0.3020(3)
C58 C 0.5099(4) 0.7316(3) 0.2665(4)
H51 H 0.4608 0.7175 0.2868
C59 C 0.5785(4) 0.8509(3) 0.1038(3)
C60 C 0.5848(4) 0.6572(3) 0.3709(4)
C61 C 0.8201(4) 0.7219(4) 0.2866(4)
C62 C 0.8834(6) 0.6770(5) 0.2788(6)
H52 H 0.8729 0.6295 0.2789
C63 C 0.9638(6) 0.7007(6) 0.2706(7)
C64 C 0.9799(6) 0.7699(6) 0.2693(7)
C65 C 0.9178(6) 0.8163(5) 0.2785(6)
H55 H 0.9290 0.8638 0.2787
C66 C 0.8393(5) 0.7929(4) 0.2874(5)
H56 H 0.7970 0.8250 0.2943
C67 C 0.4025(6) 0.5066(5) 0.3066(5)
H57 H 0.4574 0.5108 0.2938
C68 C 0.3708(8) 0.4489(7) 0.1773(7)
H58 H 0.4306 0.4551 0.1782
H59 H 0.3575 0.4002 0.1739
H60 H 0.3420 0.4726 0.1316
C69 C 0.2568(6) 0.4746(5) 0.2673(5)
H61 H 0.2442 0.5139 0.2993
H62 H 0.2206 0.4753 0.2172
H63 H 0.2476 0.4325 0.2958
C70 C 0.2974(8) 0.6386(6) 0.4533(6)
H64 H 0.2786 0.5929 0.4478
C71 C 0.2564(9) 0.7542(9) 0.4298(9)
H65 H 0.2460 0.7783 0.4779
H66 H 0.3150 0.7581 0.4227
H67 H 0.2227 0.7744 0.3843
C72 C 0.1525(10) 0.6584(8) 0.4294(9)
H68 H 0.1501 0.6144 0.4021
H69 H 0.1355 0.6525 0.4821
H70 H 0.1151 0.6907 0.3993
O19 O 0.5113(2) 0.6242(2) 0.5732(2)
O21 O 0.6504(2) 0.6349(2) 0.5847(2)
Zn6 Zn 0.46551(4) 0.92732(3) 0.96670(4)
Zn9 Zn 0.66628(4) 0.93102(3) 0.99816(4)
C37_2 C 0.1802(4) 0.0189(3) 0.0336(4)
C38_2 C 0.0887(3) 0.0102(3) 0.0189(3)
O12_2 O 0.4861(3) 0.1426(2) 0.1084(3)
O13_2 O 0.3454(3) 0.1339(2) 0.0961(2)
O16_2 O 0.6130(3) 0.0269(2) 0.1288(3)
O17_2 O 0.6372(3) 0.1418(3) 0.0284(3)
O18 O 0.4273(2) 0.00569(18) 0.0370(2)
N7_2 N 0.5768(4) 0.3024(3) 0.3291(4)
H43_2 H 0.5772 0.3420 0.3530
N8_2 N 0.2606(3) 0.1985(3) 0.2004(4)
H44_2 H 0.2621 0.1619 0.1710
N10_2 N 0.7647(6) 0.1843(6) 0.0638(6)
C47_2 C 0.7267(5) 0.3148(4) 0.3427(5)
H45_2 H 0.7192 0.3619 0.3519
C48_2 C 0.8074(6) 0.2889(6) 0.3454(6)
H46_2 H 0.8539 0.3183 0.3546
C49_2 C 0.8177(7) 0.2192(7) 0.3341(7)
H47_2 H 0.8717 0.2005 0.3368
C50_2 C 0.7471(8) 0.1758(6) 0.3185(7)
H48_2 H 0.7553 0.1287 0.3091
C51_2 C 0.6654(6) 0.2008(5) 0.3165(5)
H49_2 H 0.6192 0.1711 0.3086
C52_2 C 0.6550(5) 0.2717(5) 0.3265(5)
C53_2 C 0.4967(4) 0.2773(3) 0.2980(4)
C54_2 C 0.4219(4) 0.2979(3) 0.3267(4)
C55_2 C 0.3453(4) 0.2732(3) 0.2916(4)
H50_2 H 0.2963 0.2883 0.3112
C56_2 C 0.3389(4) 0.2276(3) 0.2295(4)
C57_2 C 0.4136(4) 0.2061(3) 0.1980(3)
C58_2 C 0.4901(4) 0.2316(3) 0.2335(4)
H51_2 H 0.5392 0.2175 0.2132
C59_2 C 0.4215(4) 0.3509(3) 0.3962(3)
C60_2 C 0.4152(4) 0.1572(3) 0.1291(4)
C61_2 C 0.1799(4) 0.2219(4) 0.2134(4)
C62_2 C 0.1166(6) 0.1770(5) 0.2212(6)
H52_2 H 0.1271 0.1295 0.2211
C63_2 C 0.0362(6) 0.2007(6) 0.2294(7)
C64_2 C 0.0201(6) 0.2699(6) 0.2307(7)
C65_2 C 0.0822(6) 0.3163(5) 0.2215(6)
H55_2 H 0.0710 0.3638 0.2213
C66_2 C 0.1607(5) 0.2929(4) 0.2126(5)
H56_2 H 0.2030 0.3250 0.2057
C67_2 C 0.5975(6) 0.0066(5) 0.1934(5)
H57_2 H 0.5426 0.0108 0.2062
H61_2 H 0.7558 0.0139 0.2007
C70_2 C 0.7026(8) 0.1386(6) 0.0467(6)
H64_2 H 0.7214 0.0929 0.0522
C71_2 C 0.7436(9) 0.2542(9) 0.0702(9)
H65_2 H 0.7540 0.2783 0.0221
H66_2 H 0.6850 0.2581 0.0773
H67_2 H 0.7773 0.2744 0.1157
C72_2 C 0.8475(10) 0.1584(8) 0.0706(9)
H68_2 H 0.8499 0.1144 0.0979
H69_2 H 0.8645 0.1525 0.0179
H70_2 H 0.8849 0.1907 0.1007
O10_2 O 0.2149(2) 0.0480(2) 0.9750(3)
C39_2 C 0.0453(4) 0.0254(3) 0.9445(4)
H37_2 H 0.0768 0.0432 0.9059
H39_2 H 0.0148 0.0027 0.5714
H12_2 H 0.0070 0.8309 0.7659
H13_2 H 0.0336 0.7145 0.7620
C45_2 C 0.0430(8) 0.9818(6) 0.6828(8)
H41_2 H 0.0913 0.9567 0.6754
C46_2 C 0.0186(6) 0.9898(5) 0.7609(6)
H42_2 H 0.0508 0.9698 0.8050
O23 O 0.5727(2) 0.99431(18) 0.9630(2)
C29_2 C 0.9570(8) 0.0182(6) 0.3172(8)
H20_2 H 0.9087 0.0433 0.3246
C30_2 C 0.9814(6) 0.0102(5) 0.2391(6)
H21_2 H 0.9492 0.0302 0.1950
H53_2 H 0.9930 0.1691 0.2341
H54_2 H 0.9664 0.2855 0.2380
O5_2 O 0.7851(2) 0.9520(2) 0.0250(3)
C23_2 C 0.9547(4) 0.9746(3) 0.0555(4)
H16_2 H 0.9232 0.9568 0.0941
H18_2 H 0.9852 0.9973 0.4286
O1_2 O 0.5139(3) 0.8574(2) 0.8916(3)
O2_2 O 0.6546(3) 0.8661(2) 0.9039(2)
O7_2 O 0.3870(3) 0.9731(2) 0.8712(3)
O8_2 O 0.3628(3) 0.8582(3) 0.9716(3)
N1_2 N 0.4232(4) 0.6976(3) 0.6709(4)
H1_2 H 0.4228 0.6580 0.6470
N2_2 N 0.7394(3) 0.8015(3) 0.7996(4)
H2_2 H 0.7379 0.8381 0.8290
N5_2 N 0.2353(6) 0.8157(6) 0.9362(6)
C1_2 C 0.2733(5) 0.6852(4) 0.6573(5)
H4_2 H 0.2808 0.6381 0.6481
C2_2 C 0.1926(6) 0.7111(6) 0.6546(6)
H5_2 H 0.1461 0.6817 0.6454
C3_2 C 0.1823(7) 0.7808(7) 0.6659(7)
H6_2 H 0.1283 0.7995 0.6632
C4_2 C 0.2529(8) 0.8242(6) 0.6815(7)
H7_2 H 0.2447 0.8713 0.6909
C5_2 C 0.3346(6) 0.7992(5) 0.6835(5)
H8_2 H 0.3808 0.8289 0.6914
C6_2 C 0.3450(5) 0.7283(5) 0.6735(5)
C7_2 C 0.5033(4) 0.7227(3) 0.7020(4)
C8_2 C 0.5781(4) 0.7021(3) 0.6733(4)
C9_2 C 0.6547(4) 0.7268(3) 0.7084(4)
H9_2 H 0.7037 0.7117 0.6888
C10_2 C 0.6611(4) 0.7724(3) 0.7705(4)
C11_2 C 0.5864(4) 0.7939(3) 0.8020(3)
C12_2 C 0.5099(4) 0.7684(3) 0.7665(4)
H10_2 H 0.4608 0.7825 0.7868
C13_2 C 0.5785(4) 0.6491(3) 0.6038(3)
C14_2 C 0.5848(4) 0.8428(3) 0.8709(4)
C15_2 C 0.8201(4) 0.7781(4) 0.7866(4)
C16_2 C 0.8834(6) 0.8230(5) 0.7788(6)
H11_2 H 0.8729 0.8705 0.7789
C17_2 C 0.9638(6) 0.7993(6) 0.7706(7)
C18_2 C 0.9799(6) 0.7301(6) 0.7693(7)
C19_2 C 0.9178(6) 0.6837(5) 0.7785(6)
H14_2 H 0.9290 0.6362 0.7787
C20_2 C 0.8393(5) 0.7071(4) 0.7874(5)
H15_2 H 0.7970 0.6750 0.7943
C21_2 C 0.8198(4) 0.9811(3) 0.9664(4)
C22_2 C 0.9113(3) 0.9898(3) 0.9811(3)
C31_2 C 0.4025(6) 0.9934(5) 0.8066(5)
H22_2 H 0.4574 0.9892 0.7938
H26_2 H 0.2442 0.9861 0.7993
C34_2 C 0.2974(8) 0.8614(6) 0.9533(6)
H29_2 H 0.2786 0.9071 0.9478
C35_2 C 0.2564(9) 0.7458(9) 0.9298(9)
H30_2 H 0.2460 0.7217 0.9779
H31_2 H 0.3150 0.7419 0.9227
H32_2 H 0.2227 0.7256 0.8843
C36_2 C 0.1525(10) 0.8416(8) 0.9294(9)
H33_2 H 0.1501 0.8856 0.9021
H34_2 H 0.1355 0.8475 0.9821
H35_2 H 0.1151 0.8093 0.8993
N3_2 N 0.0822(3) 0.9655(3) 0.1528(4)
H3_2 H 0.1318 0.9479 0.1531
C24_2 C 0.0409(4) 0.9834(4) 0.0784(4)
C25_2 C 0.0525(6) 0.9728(5) 0.2284(5)
C26_2 C 0.1044(7) 0.9412(5) 0.2927(6)
H17_2 H 0.1526 0.9166 0.2838
C27_2 C 0.0022(10) 0.9906(7) 0.3779(8)
C28_2 C 0.0797(9) 0.9486(7) 0.3726(8)
H19_2 H 0.1102 0.9285 0.4176
O11_2 O 0.2231(3) 0.9999(3) 0.0951(3)
N9_2 N 0.6565(5) 0.9779(4) 0.2482(4)
C68_2 C 0.6292(8) 0.9489(7) 0.3227(7)
H58_2 H 0.5694 0.9551 0.3218
H59_2 H 0.6425 0.9002 0.3261
H60_2 H 0.6580 0.9726 0.3684
C69_2 C 0.7432(6) 0.9746(5) 0.2327(5)
H62_2 H 0.7794 0.9753 0.2828
H63_2 H 0.7524 0.9325 0.2042
O6_2 O 0.7769(3) 0.0001(3) 0.9049(3)
N4_2 N 0.3435(5) 0.0221(4) 0.7518(4)
C32_2 C 0.3708(8) 0.0511(7) 0.6773(7)
H23_2 H 0.4306 0.0449 0.6782
H24_2 H 0.3575 0.0998 0.6739
H25_2 H 0.3420 0.0274 0.6316
C33_2 C 0.2568(6) 0.0254(5) 0.7673(5)
H27_2 H 0.2206 0.0247 0.7172
H28_2 H 0.2476 0.0675 0.7958
N6_2 N 0.9178(3) 0.0345(3) 0.8472(4)
H36_2 H 0.8682 0.0521 0.8469
C40_2 C 0.9591(4) 0.0166(4) 0.9216(4)
C41_2 C 0.9475(6) 0.0272(5) 0.7716(5)
C42_2 C 0.8956(7) 0.0588(5) 0.7073(6)
H38_2 H 0.8474 0.0834 0.7162
C43_2 C 0.9978(10) 0.0094(7) 0.6221(8)
C44_2 C 0.9203(9) 0.0514(7) 0.6274(8)
H40_2 H 0.8898 0.0715 0.5824
loop_
_geom_bond_atom_site_label_1
_geom_bond_atom_site_label_2
_geom_bond_site_symmetry_1
_geom_bond_site_symmetry_2
Zn1 O1 1_555 1_555
Zn2 O2 1_555 1_555
O1 C14 1_555 1_555
O2 C14 1_555 1_555
O3 C13 1_555 1_555
O4 C13 1_555 1_555
O5 Zn2 1_555 1_555
O6 C21 1_555 1_555
O7 Zn1 1_555 1_555
O8 Zn1 1_555 1_555
O9 Zn1 1_555 1_555
N1 H1 1_555 1_555
N2 H2 1_555 1_555
N4 C31 1_555 1_555
N5 C34 1_555 1_555
C1 H4 1_555 1_555
C2 C1 1_555 1_555
H5 C2 1_555 1_555
C3 C2 1_555 1_555
H6 C3 1_555 1_555
C4 C3 1_555 1_555
H7 C4 1_555 1_555
C5 C4 1_555 1_555
H8 C5 1_555 1_555
C6 N1 1_555 1_555
C7 N1 1_555 1_555
C8 C7 1_555 1_555
C9 C8 1_555 1_555
H9 C9 1_555 1_555
C10 N2 1_555 1_555
C11 C10 1_555 1_555
C12 C7 1_555 1_555
H10 C12 1_555 1_555
C13 C8 1_555 1_555
C14 C11 1_555 1_555
C15 N2 1_555 1_555
C16 C15 1_555 1_555
H11 C16 1_555 1_555
C17 C16 1_555 1_555
C18 C17 1_555 1_555
C19 C18 1_555 1_555
H14 C19 1_555 1_555
C20 C15 1_555 1_555
H15 C20 1_555 1_555
C21 O5 1_555 1_555
C22 C21 1_555 1_555
C23 C22 1_555 1_555
H16 C23 1_555 1_555
H20 C29 1_555 1_555
H21 C30 1_555 1_555
C31 O7 1_555 1_555
H22 C31 1_555 1_555
C32 N4 1_555 1_555
H23 C32 1_555 1_555
H24 C32 1_555 1_555
H25 C32 1_555 1_555
C33 N4 1_555 1_555
H26 C33 1_555 1_555
H27 C33 1_555 1_555
H28 C33 1_555 1_555
C34 O8 1_555 1_555
H29 C34 1_555 1_555
C35 N5 1_555 1_555
H30 C35 1_555 1_555
H31 C35 1_555 1_555
H32 C35 1_555 1_555
C36 N5 1_555 1_555
H33 C36 1_555 1_555
H34 C36 1_555 1_555
H35 C36 1_555 1_555
N6 H36 1_555 1_555
C40 C22 1_555 1_555
C41 N6 1_555 1_555
C42 C41 1_555 1_555
H38 C42 1_555 1_555
C44 C42 1_555 1_555
H40 C44 1_555 1_555
Zn7 O9 1_555 1_555
O20 Zn1 1_555 1_555
O22 Zn2 1_555 1_555
O24 Zn1 1_555 1_555
Zn2 O9 1_555 1_555
C1 C6 1_555 1_555
C5 C6 1_555 1_555
C9 C10 1_555 1_555
C11 C12 1_555 1_555
C19 C20 1_555 1_555
C29 C30 1_555 1_555
N6 C40 1_555 1_555
C43 C44 1_555 1_555
Zn7 O24 1_555 1_555
N3 H3 1_555 1_555
C24 N3 1_555 1_555
C25 N3 1_555 1_555
C26 C25 1_555 1_555
H17 C26 1_555 1_555
C28 C26 1_555 1_555
H19 C28 1_555 1_555
O10 C37 1_555 1_555
O11 C37 1_555 1_555
C37 C38 1_555 1_555
C38 C24 1_555 1_555
C39 C38 1_555 1_555
H37 C39 1_555 1_555
H41 C45 1_555 1_555
H42 C46 1_555 1_555
Zn7 O12 1_555 1_555
Zn4 O10 1_555 1_555
O12 C60 1_555 1_555
O13 Zn4 1_555 1_555
O14 C59 1_555 1_555
O15 C59 1_555 1_555
O16 Zn7 1_555 1_555
O17 Zn7 1_555 1_555
N7 H43 1_555 1_555
N8 H44 1_555 1_555
N9 C67 1_555 1_555
N10 C70 1_555 1_555
C47 H45 1_555 1_555
C48 C47 1_555 1_555
H46 C48 1_555 1_555
C49 C48 1_555 1_555
H47 C49 1_555 1_555
C50 C49 1_555 1_555
H48 C50 1_555 1_555
C51 C50 1_555 1_555
H49 C51 1_555 1_555
C52 N7 1_555 1_555
C53 N7 1_555 1_555
C54 C53 1_555 1_555
C55 C54 1_555 1_555
H50 C55 1_555 1_555
C56 N8 1_555 1_555
C57 C56 1_555 1_555
C58 C53 1_555 1_555
H51 C58 1_555 1_555
C59 C54 1_555 1_555
C60 O13 1_555 1_555
C61 N8 1_555 1_555
C62 C61 1_555 1_555
H52 C62 1_555 1_555
C63 C62 1_555 1_555
C64 C63 1_555 1_555
C65 C64 1_555 1_555
H55 C65 1_555 1_555
C66 C61 1_555 1_555
H56 C66 1_555 1_555
C67 O16 1_555 1_555
H57 C67 1_555 1_555
C68 N9 1_555 1_555
H58 C68 1_555 1_555
H59 C68 1_555 1_555
H60 C68 1_555 1_555
C69 N9 1_555 1_555
H61 C69 1_555 1_555
H62 C69 1_555 1_555
H63 C69 1_555 1_555
C70 O17 1_555 1_555
H64 C70 1_555 1_555
C71 N10 1_555 1_555
H65 C71 1_555 1_555
H66 C71 1_555 1_555
H67 C71 1_555 1_555
C72 N10 1_555 1_555
H68 C72 1_555 1_555
H69 C72 1_555 1_555
H70 C72 1_555 1_555
O19 Zn7 1_555 1_555
O21 Zn4 1_555 1_555
C27 C28 1_555 1_555
C45 C46 1_555 1_555
Zn4 O24 1_555 1_555
C47 C52 1_555 1_555
C51 C52 1_555 1_555
C55 C56 1_555 1_555
C57 C58 1_555 1_555
C57 C60 1_555 1_555
C65 C66 1_555 1_555
C37_2 C38_2 1_555 1_555
Zn8 O12_2 1_555 1_555
O12_2 C60_2 1_555 1_555
O13_2 Zn10 1_555 1_555
O20 C59_2 1_555 1_555
O22 C59_2 1_555 1_555
O16_2 Zn8 1_555 1_555
O17_2 Zn8 1_555 1_555
O18 Zn8 1_555 1_555
N7_2 H43_2 1_555 1_555
N8_2 H44_2 1_555 1_555
N10_2 C70_2 1_555 1_555
C47_2 H45_2 1_555 1_555
C48_2 C47_2 1_555 1_555
H46_2 C48_2 1_555 1_555
C49_2 C48_2 1_555 1_555
H47_2 C49_2 1_555 1_555
C50_2 C49_2 1_555 1_555
H48_2 C50_2 1_555 1_555
C51_2 C50_2 1_555 1_555
H49_2 C51_2 1_555 1_555
C52_2 N7_2 1_555 1_555
C53_2 N7_2 1_555 1_555
C54_2 C53_2 1_555 1_555
C55_2 C54_2 1_555 1_555
H50_2 C55_2 1_555 1_555
C56_2 N8_2 1_555 1_555
C57_2 C56_2 1_555 1_555
C58_2 C53_2 1_555 1_555
H51_2 C58_2 1_555 1_555
C59_2 C54_2 1_555 1_555
C60_2 O13_2 1_555 1_555
C61_2 N8_2 1_555 1_555
C62_2 C61_2 1_555 1_555
H52_2 C62_2 1_555 1_555
C63_2 C62_2 1_555 1_555
C64_2 C63_2 1_555 1_555
C65_2 C64_2 1_555 1_555
H55_2 C65_2 1_555 1_555
C66_2 C61_2 1_555 1_555
H56_2 C66_2 1_555 1_555
C67_2 O16_2 1_555 1_555
H57_2 C67_2 1_555 1_555
C70_2 O17_2 1_555 1_555
H64_2 C70_2 1_555 1_555
C71_2 N10_2 1_555 1_555
H65_2 C71_2 1_555 1_555
H66_2 C71_2 1_555 1_555
H67_2 C71_2 1_555 1_555
C72_2 N10_2 1_555 1_555
H68_2 C72_2 1_555 1_555
H69_2 C72_2 1_555 1_555
H70_2 C72_2 1_555 1_555
Zn10 O18 1_555 1_555
C47_2 C52_2 1_555 1_555
C51_2 C52_2 1_555 1_555
C55_2 C56_2 1_555 1_555
C57_2 C58_2 1_555 1_555
C57_2 C60_2 1_555 1_555
C65_2 C66_2 1_555 1_555
H37_2 C39_2 1_555 1_555
H41_2 C45_2 1_555 1_555
H42_2 C46_2 1_555 1_555
C45_2 C46_2 1_555 1_555
Zn6 O23 1_555 1_555
H20_2 C29_2 1_555 1_555
H21_2 C30_2 1_555 1_555
C29_2 C30_2 1_555 1_555
H16_2 C23_2 1_555 1_555
Zn6 O1_2 1_555 1_555
Zn9 O2_2 1_555 1_555
O1_2 C14_2 1_555 1_555
O2_2 C14_2 1_555 1_555
O19 C13_2 1_555 1_555
O21 C13_2 1_555 1_555
O7_2 Zn6 1_555 1_555
O8_2 Zn6 1_555 1_555
N1_2 H1_2 1_555 1_555
N2_2 H2_2 1_555 1_555
N5_2 C34_2 1_555 1_555
C1_2 H4_2 1_555 1_555
C2_2 C1_2 1_555 1_555
H5_2 C2_2 1_555 1_555
C3_2 C2_2 1_555 1_555
H6_2 C3_2 1_555 1_555
C4_2 C3_2 1_555 1_555
H7_2 C4_2 1_555 1_555
C5_2 C4_2 1_555 1_555
H8_2 C5_2 1_555 1_555
C6_2 N1_2 1_555 1_555
C7_2 N1_2 1_555 1_555
C8_2 C7_2 1_555 1_555
C9_2 C8_2 1_555 1_555
H9_2 C9_2 1_555 1_555
C10_2 N2_2 1_555 1_555
C11_2 C10_2 1_555 1_555
C12_2 C7_2 1_555 1_555
H10_2 C12_2 1_555 1_555
C13_2 C8_2 1_555 1_555
C14_2 C11_2 1_555 1_555
C15_2 N2_2 1_555 1_555
C16_2 C15_2 1_555 1_555
H11_2 C16_2 1_555 1_555
C17_2 C16_2 1_555 1_555
C18_2 C17_2 1_555 1_555
C19_2 C18_2 1_555 1_555
H14_2 C19_2 1_555 1_555
C20_2 C15_2 1_555 1_555
H15_2 C20_2 1_555 1_555
C22_2 C21_2 1_555 1_555
C31_2 O7_2 1_555 1_555
H22_2 C31_2 1_555 1_555
C34_2 O8_2 1_555 1_555
H29_2 C34_2 1_555 1_555
C35_2 N5_2 1_555 1_555
H30_2 C35_2 1_555 1_555
H31_2 C35_2 1_555 1_555
H32_2 C35_2 1_555 1_555
C36_2 N5_2 1_555 1_555
H33_2 C36_2 1_555 1_555
H34_2 C36_2 1_555 1_555
H35_2 C36_2 1_555 1_555
Zn9 O23 1_555 1_555
C1_2 C6_2 1_555 1_555
C5_2 C6_2 1_555 1_555
C9_2 C10_2 1_555 1_555
C11_2 C12_2 1_555 1_555
C19_2 C20_2 1_555 1_555
N3_2 H3_2 1_555 1_555
C24_2 N3_2 1_555 1_555
C25_2 N3_2 1_555 1_555
C26_2 C25_2 1_555 1_555
H17_2 C26_2 1_555 1_555
C28_2 C26_2 1_555 1_555
H19_2 C28_2 1_555 1_555
C68_2 N9_2 1_555 1_555
H58_2 C68_2 1_555 1_555
H59_2 C68_2 1_555 1_555
H60_2 C68_2 1_555 1_555
C69_2 N9_2 1_555 1_555
H62_2 C69_2 1_555 1_555
H63_2 C69_2 1_555 1_555
C27_2 C28_2 1_555 1_555
C32_2 N4_2 1_555 1_555
H23_2 C32_2 1_555 1_555
H24_2 C32_2 1_555 1_555
H25_2 C32_2 1_555 1_555
C33_2 N4_2 1_555 1_555
H27_2 C33_2 1_555 1_555
H28_2 C33_2 1_555 1_555
N6_2 H36_2 1_555 1_555
C41_2 N6_2 1_555 1_555
C42_2 C41_2 1_555 1_555
H38_2 C42_2 1_555 1_555
C44_2 C42_2 1_555 1_555
H40_2 C44_2 1_555 1_555
N6_2 C40_2 1_555 1_555
C43_2 C44_2 1_555 1_555

#END
