
###############################################################################
#
# This file contains modified crystal structure data generated from the
# MOF subset of the Cambridge Structural Database (CSD) v543 
# hosted by the Cambridge Crystallographic Data Centre (CCDC).
#
# This work is licensed under the Creative Commons
# Attribution-NonCommercial-ShareAlike 4.0 International License.
# To view a copy of this license, visit
# http://creativecommons.org/licenses/by-nc-sa/4.0/
# or send a letter to
# Creative Commons, PO Box 1866, Mountain View, CA 94042, USA.
#
# CIF created using the CSD Python API on 29 September 2022
# The structure has been converted into the P1 space group
# The structure has a 3D framework
# The original CSD entry OJOZOE is in the triclinic crystal system
# The framework has been calculated to contain at least 10.0% void space
# The void calculation uses a probe of radius 1.32A, grid spacing 0.4
#
###############################################################################

data_OJOZOE
_chemical_formula_moiety         '(C14 H20 Gd2 O22)n'
_symmetry_cell_setting           triclinic
_symmetry_space_group_name_H-M   'P 1'
_symmetry_Int_Tables_number      1
_space_group_name_Hall           'P 1'
loop_
_symmetry_equiv_pos_site_id
_symmetry_equiv_pos_as_xyz
1 x,y,z
_cell_length_a                   6.1139(4)
_cell_length_b                   8.7718(5)
_cell_length_c                   13.1543(8)
_cell_angle_alpha                101.048(2)
_cell_angle_beta                 101.805(2)
_cell_angle_gamma                96.546(2)
_cell_volume                     669.072
loop_
_atom_site_label
_atom_site_type_symbol
_atom_site_fract_x
_atom_site_fract_y
_atom_site_fract_z
_atom_site_U_iso_or_equiv
_atom_site_thermal_displace_type
O18 O 0.2331(5) 0.6431(4) 0.0903(2) 0.0124 Uani
H15 H 0.317(7) 0.670(4) 0.049(2) 0.0190 Uiso
O20 O 0.3405(5) 0.5208(4) 0.2876(2) 0.0134 Uani
O21 O 0.3417(5) 0.2862(4) 0.1846(3) 0.0148 Uani
C12 C 0.1045(7) 0.4921(5) 0.0413(3) 0.0102 Uani
H17 H 0.1994 0.4228 0.0063 0.0120 Uiso
C13 C 0.2564(7) 0.4087(6) 0.2084(4) 0.0119 Uani
C14 C 0.0393(8) 0.4283(6) 0.1326(4) 0.0130 Uani
Gd6 Gd 0.25284(4) 0.78069(3) 0.275429(17) 0.0084 Uani
O4 O 0.0673(5) 0.4551(4) 0.8137(2) 0.0123 Uani
H2 H 0.173(5) 0.509(3) 0.791(3) 0.0190 Uiso
H6 H 0.1265 0.2368 0.6398 0.0230 Uiso
H10 H 0.0660 0.6740 0.8947 0.0150 Uiso
O23 O 0.0650(5) 0.1066(4) 0.8005(2) 0.0115 Uani
O7 O 0.5053(5) 0.2127(4) 0.0103(3) 0.0133 Uani
H4 H 0.4596 0.2464 0.0651 0.0200 Uiso
H11 H 0.326(5) 0.064(2) 0.175(3) 0.0170 Uiso
H13 H 0.6645 0.1037 0.1797 0.0120 Uiso
O19 O 0.9327(5) 0.5449(4) 0.1863(2) 0.0123 Uani
H16 H 0.827(5) 0.491(3) 0.209(3) 0.0190 Uiso
H18 H 0.9340 0.3260 0.1053 0.0150 Uiso
Gd1 Gd 0.74716(4) 0.21931(3) 0.724571(17) 0.0084 Uani
O3 O 0.7669(5) 0.3569(4) 0.9097(2) 0.0124 Uani
H1 H 0.683(7) 0.330(4) 0.951(2) 0.0190 Uiso
O5 O 0.6595(5) 0.4792(4) 0.7124(2) 0.0134 Uani
O6 O 0.6302(5) 0.0290(4) 0.8293(2) 0.0113 Uani
O8 O 0.6583(5) 0.7138(4) 0.8154(3) 0.0148 Uani
O9 O 0.3639(5) 0.2007(4) 0.7442(2) 0.0111 Uani
O10 O 0.9927(5) 0.2535(4) 0.6107(3) 0.0155 Uani
H5 H 0.9408 0.1871 0.5498 0.0230 Uiso
C1 C 0.4084(7) 0.0083(6) 0.8505(3) 0.0097 Uani
C2 C 0.2678(7) 0.1152(5) 0.7940(3) 0.0091 Uani
C3 C 0.4172(7) 0.0479(5) 0.9704(3) 0.0066 Uani
H8 H 0.2624 0.0239 0.9830 0.0080 Uiso
C4 C 0.8955(7) 0.5079(5) 0.9587(3) 0.0102 Uani
H9 H 0.8006 0.5772 0.9937 0.0120 Uiso
C6 C 0.7436(7) 0.5913(6) 0.7916(4) 0.0119 Uani
C7 C 0.9607(8) 0.5717(6) 0.8674(4) 0.0130 Uani
O12 O 0.4983(5) 0.1998(4) 0.5485(2) 0.0139 Uani
O13 O 0.3220(5) 0.0414(4) 0.3901(2) 0.0141 Uani
C8 C 0.4497(8) 0.0714(6) 0.4823(4) 0.0126 Uani
O14 O 0.9350(5) 0.8934(4) 0.1995(2) 0.0115 Uani
O15 O 0.3698(5) 0.9710(4) 0.1707(2) 0.0113 Uani
O17 O 0.6361(5) 0.7993(4) 0.2558(2) 0.0111 Uani
C9 C 0.5916(7) 0.9917(6) 0.1495(3) 0.0097 Uani
C10 C 0.7322(7) 0.8848(5) 0.2060(3) 0.0091 Uani
C11 C 0.5828(7) 0.9521(5) 0.0296(3) 0.0066 Uani
H14 H 0.7376 0.9761 0.0170 0.0080 Uiso
O1 O 0.5017(5) 0.8002(4) 0.4515(2) 0.0139 Uani
H3 H 0.674(5) 0.936(2) 0.825(3) 0.0170 Uiso
O11 O 0.6780(5) 0.9586(4) 0.6099(2) 0.0141 Uani
H7 H 0.3355 0.8963 0.8203 0.0120 Uiso
C5 C 0.5503(8) 0.9286(6) 0.5177(4) 0.0126 Uani
O16 O 0.4947(5) 0.7873(4) 0.9897(3) 0.0133 Uani
H12 H 0.5404 0.7536 0.9349 0.0200 Uiso
O22 O 0.0073(5) 0.7465(4) 0.3893(3) 0.0155 Uani
H19 H 0.0592 0.8129 0.4502 0.0230 Uiso
H20 H 0.8735 0.7632 0.3602 0.0230 Uiso
loop_
_atom_site_aniso_label
_atom_site_aniso_U_11
_atom_site_aniso_U_22
_atom_site_aniso_U_33
_atom_site_aniso_U_23
_atom_site_aniso_U_13
_atom_site_aniso_U_12
O18 0.0135 0.0121 0.0107 0.0013 0.0049 -0.0039
O20 0.0125 0.0127 0.0135 0.002 0.0001 0.0026
O21 0.0175 0.0119 0.019 0.0059 0.0078 0.0077
C12 0.008 0.009 0.011 -0.0023 0.0014 0.0002
C13 0.011 0.013 0.014 0.0063 0.0047 0.003
C14 0.013 0.011 0.014 0.0013 0.0019 0.0026
Gd6 0.00529 0.00966 0.01071 0.00239 0.0021 0.00256
O4 0.0095 0.0125 0.0164 0.0016 0.0067 0.0033
O23 0.0055 0.0157 0.0152 0.0052 0.0038 0.0044
O7 0.0151 0.0112 0.0144 0.0014 0.0062 0.0033
O19 0.0095 0.0125 0.0164 0.0016 0.0067 0.0033
Gd1 0.00529 0.00966 0.01071 0.00239 0.0021 0.00256
O3 0.0135 0.0121 0.0107 0.0013 0.0049 -0.0039
O5 0.0125 0.0127 0.0135 0.002 0.0001 0.0026
O6 0.0082 0.0121 0.0167 0.0054 0.0057 0.0056
O8 0.0175 0.0119 0.019 0.0059 0.0078 0.0077
O9 0.0072 0.0145 0.0127 0.0043 0.003 0.0023
O10 0.0089 0.023 0.0147 0.0032 0.0025 0.0049
C1 0.0045 0.013 0.013 0.0055 0.002 0.0032
C2 0.009 0.009 0.008 0 -0.0001 0.0028
C3 0.0064 0.006 0.007 0.0043 -0.0012 -0.0008
C4 0.008 0.009 0.011 -0.0023 0.0014 0.0002
C6 0.011 0.013 0.014 0.0063 0.0047 0.003
C7 0.013 0.011 0.014 0.0013 0.0019 0.0026
O12 0.0136 0.0138 0.0147 0.0021 0.0032 0.0054
O13 0.014 0.012 0.0147 0.001 0.0011 0.0034
C8 0.01 0.017 0.013 0.0046 0.0054 0.0037
O14 0.0055 0.0157 0.0152 0.0052 0.0038 0.0044
O15 0.0082 0.0121 0.0167 0.0054 0.0057 0.0056
O17 0.0072 0.0145 0.0127 0.0043 0.003 0.0023
C9 0.0045 0.013 0.013 0.0055 0.002 0.0032
C10 0.009 0.009 0.008 0 -0.0001 0.0028
C11 0.0064 0.006 0.007 0.0043 -0.0012 -0.0008
O1 0.0136 0.0138 0.0147 0.0021 0.0032 0.0054
O11 0.014 0.012 0.0147 0.001 0.0011 0.0034
C5 0.01 0.017 0.013 0.0046 0.0054 0.0037
O16 0.0151 0.0112 0.0144 0.0014 0.0062 0.0033
O22 0.0089 0.023 0.0147 0.0032 0.0025 0.0049
loop_
_geom_bond_atom_site_label_1
_geom_bond_atom_site_label_2
_geom_bond_site_symmetry_1
_geom_bond_site_symmetry_2
O18 H15 1_555 1_555
O20 C13 1_555 1_555
O21 C13 1_555 1_555
H17 C12 1_555 1_555
C13 C14 1_555 1_555
Gd6 O18 1_555 1_555
O18 C12 1_555 1_555
O20 Gd6 1_555 1_555
C12 C14 1_555 1_555
H2 O4 1_555 1_555
O7 H4 1_555 1_555
O19 H16 1_555 1_555
Gd1 O3 1_555 1_555
O23 C2 1_555 1_555
O3 H1 1_555 1_555
O5 Gd1 1_555 1_555
O6 Gd1 1_555 1_555
O8 C6 1_555 1_555
O9 Gd1 1_555 1_555
O10 Gd1 1_555 1_555
H5 O10 1_555 1_555
C1 O6 1_555 1_555
C2 O9 1_555 1_555
H8 C3 1_555 1_555
C4 O3 1_555 1_555
H9 C4 1_555 1_555
C6 O5 1_555 1_555
O12 Gd1 1_555 1_555
O13 C8 1_555 1_555
C1 C2 1_555 1_555
C1 C3 1_555 1_555
C4 C7 1_555 1_555
C6 C7 1_555 1_555
O12 C8 1_555 1_555
O14 C10 1_555 1_555
O17 C10 1_555 1_555
C9 O15 1_555 1_555
C10 C9 1_555 1_555
H14 C11 1_555 1_555
Gd6 O15 1_555 1_555
O17 Gd6 1_555 1_555
C9 C11 1_555 1_555
O1 C5 1_555 1_555
C5 O11 1_555 1_555
O16 H12 1_555 1_555
Gd6 O1 1_555 1_555
O22 Gd6 1_555 1_555
H19 O22 1_555 1_555

#END
