
###############################################################################
#
# This file contains modified crystal structure data generated from the
# MOF subset of the Cambridge Structural Database (CSD) v543 
# hosted by the Cambridge Crystallographic Data Centre (CCDC).
#
# This work is licensed under the Creative Commons
# Attribution-NonCommercial-ShareAlike 4.0 International License.
# To view a copy of this license, visit
# http://creativecommons.org/licenses/by-nc-sa/4.0/
# or send a letter to
# Creative Commons, PO Box 1866, Mountain View, CA 94042, USA.
#
# CIF created using the CSD Python API on 29 September 2022
# The structure has been converted into the P1 space group
# The structure has a 3D framework
# The original CSD entry OKABAE is in the hexagonal crystal system
# The framework has been calculated to contain at least 10.0% void space
# The void calculation uses a probe of radius 1.32A, grid spacing 0.4
# H atom positions have been added when not included in the experimental data
# Generated hydrogen atom positions removed from atoms on special positions
#
###############################################################################

data_OKABAE
_chemical_formula_moiety         '(C156 H180 Cu18 N24 O81)n'
_symmetry_cell_setting           triclinic
_symmetry_space_group_name_H-M   'P 1'
_symmetry_Int_Tables_number      1
_space_group_name_Hall           'P 1'
loop_
_symmetry_equiv_pos_site_id
_symmetry_equiv_pos_as_xyz
1 x,y,z
_cell_length_a                   18.4456(3)
_cell_length_b                   18.4456(3)
_cell_length_c                   39.5369(7)
_cell_angle_alpha                90
_cell_angle_beta                 90
_cell_angle_gamma                120
_cell_volume                     11649.8
loop_
_atom_site_label
_atom_site_type_symbol
_atom_site_fract_x
_atom_site_fract_y
_atom_site_fract_z
Cu9 Cu 0.52450(2) 0.04900(3) 0.02734(2)
Cu11 Cu 0.12483(10) 0.06242(11) 0.2500
O12 O 0.02740(28) 0.5887(2) 0.04369(8)
O13 O 0.4113(2) 0.97260(28) 0.04369(8)
O20 O 0.0086(5) 0.8757(3) 0.21585(13)
O21 O 0.1243(3) 0.9914(5) 0.21585(13)
O23 O 0.0086(5) 0.8757(3) 0.28415(13)
N3 N 0.2068(5) 0.9214(3) 0.13247(13)
N4 N 0.0786(3) 0.7932(5) 0.13247(13)
C11 C 0.0911(4) 0.6411(3) 0.02687(12)
C12 C 0.3589(3) 0.9089(4) 0.02687(12)
C13 C 0.22189(44) 0.77809(19) 0.02743(16)
H4 H 0.2358 0.7641 0.0062
C15 C 0.1460(4) 0.7224(3) 0.04280(11)
C16 C 0.2776(3) 0.8540(4) 0.04280(11)
C18 C 0.1255(4) 0.7448(3) 0.07317(11)
C19 C 0.2552(3) 0.8745(4) 0.07317(11)
H6 H 0.0741 0.7071 0.0838
H7 H 0.2929 0.9259 0.0838
C20 C 0.1786(5) 0.8214(2) 0.08846(17)
C21 C 0.1528(5) 0.8472(2) 0.1198(2)
C23 C 0.1803(6) 0.9439(4) 0.15989(16)
C24 C 0.0561(4) 0.8197(6) 0.15989(16)
H9 H 0.2164 0.9973 0.1695
H10 H 0.0027 0.7836 0.1695
C25 C 0.1048(5) 0.8951(2) 0.17482(18)
C26 C 0.0762(6) 0.9237(3) 0.20352(18)
Cu6 Cu 0.04900(3) 0.52450(2) 0.97266(2)
Cu8 Cu 0.47550(2) 0.95100(3) 0.97266(2)
O7 O 0.10943(25) 0.62862(17) 0.99819(8)
O8 O 0.37138(17) 0.89057(25) 0.99819(8)
Cu5 Cu 0.52450(2) 0.04900(3) 0.47266(2)
Cu10 Cu 0.93759(5) 0.06242(11) 0.2500
O16 O 0.5887(2) 0.02740(28) 0.54369(8)
O17 O 0.43870(19) 0.02740(28) 0.54369(8)
Cu1 Cu 0.47550(2) 0.52450(2) 0.52734(2)
Cu2 Cu 0.93759(5) 0.87517(10) 0.2500
O1 O 0.51919(18) 0.62862(17) 0.50181(8)
O2 O 0.56130(19) 0.5887(2) 0.45631(8)
O3 O 0.43781(19) 0.56219(19) 0.57217(15)
O4 O 0.8671(4) 0.8757(3) 0.28415(13)
O5 O 0.8669(3) 0.7338(5) 0.2500
N1 N 0.7146(4) 0.9214(3) 0.36753(13)
C1 C 0.5500(3) 0.6411(3) 0.47313(12)
C2 C 0.5562(4) 0.77809(19) 0.47257(16)
H1 H 0.5283 0.7641 0.4938
C3 C 0.5764(3) 0.7224(3) 0.45720(11)
C4 C 0.6193(3) 0.7448(3) 0.42683(11)
H2 H 0.6330 0.7071 0.4162
C5 C 0.6428(5) 0.8214(2) 0.41154(17)
C6 C 0.6944(5) 0.8472(2) 0.3802(2)
C7 C 0.7636(4) 0.9439(4) 0.34011(16)
H3 H 0.7809 0.9973 0.3305
C8 C 0.7903(5) 0.8951(2) 0.32518(18)
C9 C 0.8475(5) 0.9237(3) 0.29648(18)
Cu3 Cu 0.47550(2) 0.95100(3) 0.52734(2)
Cu4 Cu 0.52450(2) 0.47550(2) 0.47266(2)
Cu7 Cu 0.95100(3) 0.47550(2) 0.02734(2)
O6 O 0.51919(18) 0.89057(25) 0.50181(8)
O9 O 0.37138(17) 0.48081(18) 0.50181(8)
O10 O 0.37138(17) 0.89057(25) 0.50181(8)
O11 O 0.56130(19) 0.97260(28) 0.45631(8)
O14 O 0.5887(2) 0.56130(19) 0.54369(8)
O15 O 0.43870(19) 0.4113(2) 0.54369(8)
O18 O 0.43781(19) 0.87562(27) 0.57217(15)
O19 O 0.8671(4) 0.9914(5) 0.28415(13)
O22 O 0.8671(4) 0.8757(3) 0.21585(13)
N2 N 0.7146(4) 0.7932(5) 0.36753(13)
C10 C 0.5500(3) 0.9089(4) 0.47313(12)
C14 C 0.5764(3) 0.8540(4) 0.45720(11)
C17 C 0.6193(3) 0.8745(4) 0.42683(11)
H5 H 0.6330 0.9259 0.4162
C22 C 0.7636(4) 0.8197(6) 0.34011(16)
H8 H 0.7809 0.7836 0.3305
Cu11_2 Cu 0.06241(15) 0.12483(10) 0.7500
O7_2 O 0.48081(30) 0.10943(25) 0.49819(8)
O8_2 O 0.48081(30) 0.37138(17) 0.49819(8)
O20_2 O 0.1329(6) 0.0086(5) 0.71585(13)
O21_2 O 0.1329(6) 0.1243(3) 0.71585(13)
O23_2 O 0.1329(6) 0.0086(5) 0.78415(13)
N3_2 N 0.2854(6) 0.2068(5) 0.63247(13)
N4_2 N 0.2854(6) 0.0786(3) 0.63247(13)
C11_2 C 0.4500(5) 0.0911(4) 0.52687(12)
C12_2 C 0.4500(5) 0.3589(3) 0.52687(12)
C13_2 C 0.44380(48) 0.22189(44) 0.52743(16)
H4_2 H 0.4717 0.2358 0.5062
C15_2 C 0.4236(5) 0.1460(4) 0.54280(11)
C16_2 C 0.4236(5) 0.2776(3) 0.54280(11)
C18_2 C 0.3807(5) 0.1255(4) 0.57317(11)
C19_2 C 0.3807(5) 0.2552(3) 0.57317(11)
H6_2 H 0.3670 0.0741 0.5838
H7_2 H 0.3670 0.2929 0.5838
C20_2 C 0.3572(5) 0.1786(5) 0.58846(17)
C21_2 C 0.3056(5) 0.1528(5) 0.6198(2)
C23_2 C 0.2364(7) 0.1803(6) 0.65989(16)
C24_2 C 0.2364(7) 0.0561(4) 0.65989(16)
H9_2 H 0.2191 0.2164 0.6695
H10_2 H 0.2191 0.0027 0.6695
C25_2 C 0.2097(5) 0.1048(5) 0.67482(18)
C26_2 C 0.1525(7) 0.0762(6) 0.70352(18)
O15_2 O 0.02740(28) 0.43870(19) 0.04369(8)
Cu2_2 Cu 0.06242(11) 0.93759(5) 0.7500
O5_2 O 0.1331(6) 0.8669(3) 0.7500
O1_2 O 0.89057(25) 0.51919(18) 0.00181(8)
O3_2 O 0.87562(27) 0.43781(19) 0.07217(15)
Cu3_2 Cu 0.52450(4) 0.47550(2) 0.02734(2)
O6_2 O 0.62862(31) 0.51919(18) 0.00181(8)
O9_2 O 0.89057(25) 0.37138(17) 0.00181(8)
O10_2 O 0.48081(30) 0.37138(17) 0.00181(8)
O16_2 O 0.56130(34) 0.5887(2) 0.04369(8)
O17_2 O 0.41130(34) 0.43870(19) 0.04369(8)
O18_2 O 0.56219(33) 0.43781(19) 0.07217(15)
O2_2 O 0.97260(28) 0.56130(19) 0.95631(8)
O4_2 O 0.9914(5) 0.8671(4) 0.78415(13)
N1_2 N 0.7932(5) 0.7146(4) 0.86753(13)
C1_2 C 0.9089(4) 0.5500(3) 0.97313(12)
C2_2 C 0.77811(44) 0.5562(4) 0.97257(16)
H1_2 H 0.7642 0.5283 0.9938
C3_2 C 0.8540(4) 0.5764(3) 0.95720(11)
C4_2 C 0.8745(4) 0.6193(3) 0.92683(11)
H2_2 H 0.9259 0.6330 0.9162
C5_2 C 0.8214(5) 0.6428(5) 0.91154(17)
C6_2 C 0.8472(5) 0.6944(5) 0.8802(2)
C7_2 C 0.8197(6) 0.7636(4) 0.84011(16)
H3_2 H 0.7836 0.7809 0.8305
C8_2 C 0.8952(5) 0.7903(5) 0.82518(18)
C9_2 C 0.9238(6) 0.8475(5) 0.79648(18)
Cu5_2 Cu 0.47550(4) 0.52450(2) 0.97266(2)
Cu10_2 Cu 0.87517(12) 0.93759(5) 0.7500
O11_2 O 0.58870(34) 0.56130(19) 0.95631(8)
O19_2 O 0.8757(6) 0.8671(4) 0.78415(13)
O22_2 O 0.9914(5) 0.8671(4) 0.71585(13)
N2_2 N 0.9214(6) 0.7146(4) 0.86753(13)
C10_2 C 0.6411(5) 0.5500(3) 0.97313(12)
C14_2 C 0.7224(5) 0.5764(3) 0.95720(11)
C17_2 C 0.7448(5) 0.6193(3) 0.92683(11)
H5_2 H 0.7071 0.6330 0.9162
C22_2 C 0.9439(7) 0.7636(4) 0.84011(16)
H8_2 H 0.9973 0.7809 0.8305
O5_3 O 0.2662(5) 0.1331(6) 0.2500
O20_3 O 0.1243(3) 0.1329(6) 0.21585(13)
O21_3 O 0.0086(5) 0.1329(6) 0.21585(13)
O23_3 O 0.1243(3) 0.1329(6) 0.28415(13)
N3_3 N 0.0786(3) 0.2854(6) 0.13247(13)
N4_3 N 0.2068(5) 0.2854(6) 0.13247(13)
C11_3 C 0.3589(3) 0.4500(5) 0.02687(12)
C12_3 C 0.0911(4) 0.4500(5) 0.02687(12)
C13_3 C 0.22191(19) 0.44380(48) 0.02743(16)
H4_3 H 0.2359 0.4717 0.0062
C15_3 C 0.2776(3) 0.4236(5) 0.04280(11)
C16_3 C 0.1460(4) 0.4236(5) 0.04280(11)
C18_3 C 0.2552(3) 0.3807(5) 0.07317(11)
C19_3 C 0.1255(4) 0.3807(5) 0.07317(11)
H6_3 H 0.2929 0.3670 0.0838
H7_3 H 0.0741 0.3670 0.0838
C20_3 C 0.1786(2) 0.3572(5) 0.08846(17)
C21_3 C 0.1528(2) 0.3056(5) 0.1198(2)
C23_3 C 0.0561(4) 0.2364(7) 0.15989(16)
C24_3 C 0.1803(6) 0.2364(7) 0.15989(16)
H9_3 H 0.0027 0.2191 0.1695
H10_3 H 0.2164 0.2191 0.1695
C25_3 C 0.1049(2) 0.2097(5) 0.17482(18)
C26_3 C 0.0763(3) 0.1525(7) 0.20352(18)
O7_3 O 0.37138(17) 0.48081(30) 0.99819(8)
O8_3 O 0.10943(25) 0.48081(30) 0.99819(8)
O2_3 O 0.4113(2) 0.97260(28) 0.45631(8)
O4_3 O 0.1243(3) 0.9914(5) 0.28415(13)
N1_3 N 0.0786(3) 0.7932(5) 0.36753(13)
C1_3 C 0.3589(3) 0.9089(4) 0.47313(12)
C2_3 C 0.22191(19) 0.77811(44) 0.47257(16)
H1_3 H 0.2359 0.7642 0.4938
C3_3 C 0.2776(3) 0.8540(4) 0.45720(11)
C4_3 C 0.2552(3) 0.8745(4) 0.42683(11)
H2_3 H 0.2929 0.9259 0.4162
C5_3 C 0.1786(2) 0.8214(5) 0.41154(17)
C6_3 C 0.1528(2) 0.8472(5) 0.3802(2)
C7_3 C 0.0561(4) 0.8197(6) 0.34011(16)
H3_3 H 0.0027 0.7836 0.3305
C8_3 C 0.1049(2) 0.8952(5) 0.32518(18)
C9_3 C 0.0763(3) 0.9238(6) 0.29648(18)
Cu3_3 Cu 0.04900(3) 0.52450(4) 0.52734(2)
O6_3 O 0.10943(25) 0.62862(31) 0.50181(8)
O10_3 O 0.10943(25) 0.48081(30) 0.50181(8)
O11_3 O 0.02740(28) 0.58870(34) 0.45631(8)
O18_3 O 0.12438(27) 0.56219(33) 0.57217(15)
N2_3 N 0.2068(5) 0.9214(6) 0.36753(13)
C10_3 C 0.0911(4) 0.6411(5) 0.47313(12)
C14_3 C 0.1460(4) 0.7224(5) 0.45720(11)
C17_3 C 0.1255(4) 0.7448(5) 0.42683(11)
H5_3 H 0.0741 0.7071 0.4162
C22_3 C 0.1803(6) 0.9439(7) 0.34011(16)
H8_3 H 0.2164 0.9973 0.3305
Cu5_3 Cu 0.95100(3) 0.47550(4) 0.47266(2)
O16_3 O 0.97260(28) 0.56130(34) 0.54369(8)
O17_3 O 0.97260(28) 0.41130(34) 0.54369(8)
O6_4 O 0.48081(18) 0.10943(25) 0.00181(8)
O10_4 O 0.62862(17) 0.10943(25) 0.00181(8)
O18_4 O 0.56219(19) 0.12438(27) 0.07217(15)
O2_4 O 0.43870(19) 0.4113(2) 0.95631(8)
O4_4 O 0.1329(4) 0.1243(3) 0.78415(13)
O5_4 O 0.1331(3) 0.2662(5) 0.7500
N1_4 N 0.2854(4) 0.0786(3) 0.86753(13)
C1_4 C 0.4500(3) 0.3589(3) 0.97313(12)
C2_4 C 0.4438(4) 0.22191(19) 0.97257(16)
H1_4 H 0.4717 0.2359 0.9938
C3_4 C 0.4236(3) 0.2776(3) 0.95720(11)
C4_4 C 0.3807(3) 0.2552(3) 0.92683(11)
H2_4 H 0.3670 0.2929 0.9162
C5_4 C 0.3572(5) 0.1786(2) 0.91154(17)
C6_4 C 0.3056(5) 0.1528(2) 0.8802(2)
C7_4 C 0.2364(4) 0.0561(4) 0.84011(16)
H3_4 H 0.2191 0.0027 0.8305
C8_4 C 0.2097(5) 0.1049(2) 0.82518(18)
C9_4 C 0.1525(5) 0.0763(3) 0.79648(18)
O11_4 O 0.43870(19) 0.02740(28) 0.95631(8)
N2_4 N 0.2854(4) 0.2068(5) 0.86753(13)
C10_4 C 0.4500(3) 0.0911(4) 0.97313(12)
C14_4 C 0.4236(3) 0.1460(4) 0.95720(11)
C17_4 C 0.3807(3) 0.1255(4) 0.92683(11)
H5_4 H 0.3670 0.0741 0.9162
C22_4 C 0.2364(4) 0.1803(6) 0.84011(16)
H8_4 H 0.2191 0.2164 0.8305
O17_4 O 0.56130(19) 0.97260(28) 0.04369(8)
O7_4 O 0.89057(25) 0.37138(17) 0.49819(8)
O8_4 O 0.62862(17) 0.10943(25) 0.49819(8)
O20_4 O 0.9914(5) 0.1243(3) 0.71585(13)
O21_4 O 0.8757(3) 0.0086(5) 0.71585(13)
O23_4 O 0.9914(5) 0.1243(3) 0.78415(13)
N3_4 N 0.7932(5) 0.0786(3) 0.63247(13)
N4_4 N 0.9214(3) 0.2068(5) 0.63247(13)
C11_4 C 0.9089(4) 0.3589(3) 0.52687(12)
C12_4 C 0.6411(3) 0.0911(4) 0.52687(12)
C13_4 C 0.77811(44) 0.22191(19) 0.52743(16)
H4_4 H 0.7642 0.2359 0.5062
C15_4 C 0.8540(4) 0.2776(3) 0.54280(11)
C16_4 C 0.7224(3) 0.1460(4) 0.54280(11)
C18_4 C 0.8745(4) 0.2552(3) 0.57317(11)
C19_4 C 0.7448(3) 0.1255(4) 0.57317(11)
H6_4 H 0.9259 0.2929 0.5838
H7_4 H 0.7071 0.0741 0.5838
C20_4 C 0.8214(5) 0.1786(2) 0.58846(17)
C21_4 C 0.8472(5) 0.1528(2) 0.6198(2)
C23_4 C 0.8197(6) 0.0561(4) 0.65989(16)
C24_4 C 0.9439(4) 0.1803(6) 0.65989(16)
H9_4 H 0.7836 0.0027 0.6695
H10_4 H 0.9973 0.2164 0.6695
C25_4 C 0.8952(5) 0.1049(2) 0.67482(18)
C26_4 C 0.9238(6) 0.0763(3) 0.70352(18)
O2_5 O 0.02740(28) 0.43870(19) 0.45631(8)
O4_5 O 0.0086(5) 0.1329(4) 0.28415(13)
N1_5 N 0.2068(5) 0.2854(4) 0.36753(13)
C1_5 C 0.0911(4) 0.4500(3) 0.47313(12)
C2_5 C 0.22189(44) 0.4438(4) 0.47257(16)
H1_5 H 0.2358 0.4717 0.4938
C3_5 C 0.1460(4) 0.4236(3) 0.45720(11)
C4_5 C 0.1255(4) 0.3807(3) 0.42683(11)
H2_5 H 0.0741 0.3670 0.4162
C5_5 C 0.1786(5) 0.3572(5) 0.41154(17)
C6_5 C 0.1528(5) 0.3056(5) 0.3802(2)
C7_5 C 0.1803(6) 0.2364(4) 0.34011(16)
H3_5 H 0.2164 0.2191 0.3305
C8_5 C 0.1048(5) 0.2097(5) 0.32518(18)
C9_5 C 0.0762(6) 0.1525(5) 0.29648(18)
O11_5 O 0.41130(34) 0.43870(19) 0.45631(8)
N2_5 N 0.0786(6) 0.2854(4) 0.36753(13)
C10_5 C 0.3589(5) 0.4500(3) 0.47313(12)
C14_5 C 0.2776(5) 0.4236(3) 0.45720(11)
C17_5 C 0.2552(5) 0.3807(3) 0.42683(11)
H5_5 H 0.2929 0.3670 0.4162
C22_5 C 0.0561(7) 0.2364(4) 0.34011(16)
H8_5 H 0.0027 0.2191 0.3305
O5_5 O 0.8669(6) 0.1331(3) 0.2500
O20_5 O 0.8671(6) 0.9914(5) 0.21585(13)
N3_5 N 0.7146(6) 0.7932(5) 0.13247(13)
N4_5 N 0.7146(6) 0.9214(3) 0.13247(13)
C11_5 C 0.5500(5) 0.9089(4) 0.02687(12)
C12_5 C 0.5500(5) 0.6411(3) 0.02687(12)
C13_5 C 0.55620(48) 0.77811(44) 0.02743(16)
H4_5 H 0.5283 0.7642 0.0062
C15_5 C 0.5764(5) 0.8540(4) 0.04280(11)
C16_5 C 0.5764(5) 0.7224(3) 0.04280(11)
C18_5 C 0.6193(5) 0.8745(4) 0.07317(11)
C19_5 C 0.6193(5) 0.7448(3) 0.07317(11)
H6_5 H 0.6330 0.9259 0.0838
H7_5 H 0.6330 0.7071 0.0838
C20_5 C 0.6428(5) 0.8214(5) 0.08846(17)
C21_5 C 0.6944(5) 0.8472(5) 0.1198(2)
C23_5 C 0.7636(7) 0.8197(6) 0.15989(16)
C24_5 C 0.7636(7) 0.9439(4) 0.15989(16)
H9_5 H 0.7809 0.7836 0.1695
H10_5 H 0.7809 0.9973 0.1695
C25_5 C 0.7903(5) 0.8952(5) 0.17482(18)
C26_5 C 0.8475(7) 0.9238(6) 0.20352(18)
O7_5 O 0.51919(30) 0.89057(25) 0.99819(8)
O8_5 O 0.51919(30) 0.62862(17) 0.99819(8)
O2_6 O 0.5887(2) 0.02740(28) 0.95631(8)
O4_6 O 0.8757(3) 0.0086(5) 0.78415(13)
N1_6 N 0.9214(3) 0.2068(5) 0.86753(13)
C1_6 C 0.6411(3) 0.0911(4) 0.97313(12)
C2_6 C 0.77809(19) 0.22189(44) 0.97257(16)
H1_6 H 0.7641 0.2358 0.9938
C3_6 C 0.7224(3) 0.1460(4) 0.95720(11)
C4_6 C 0.7448(3) 0.1255(4) 0.92683(11)
H2_6 H 0.7071 0.0741 0.9162
C5_6 C 0.8214(2) 0.1786(5) 0.91154(17)
C6_6 C 0.8472(2) 0.1528(5) 0.8802(2)
C7_6 C 0.9439(4) 0.1803(6) 0.84011(16)
H3_6 H 0.9973 0.2164 0.8305
C8_6 C 0.8951(2) 0.1048(5) 0.82518(18)
C9_6 C 0.9237(3) 0.0762(6) 0.79648(18)
O11_6 O 0.97260(28) 0.41130(34) 0.95631(8)
N2_6 N 0.7932(5) 0.0786(6) 0.86753(13)
C10_6 C 0.9089(4) 0.3589(5) 0.97313(12)
C14_6 C 0.8540(4) 0.2776(5) 0.95720(11)
C17_6 C 0.8745(4) 0.2552(5) 0.92683(11)
H5_6 H 0.9259 0.2929 0.9162
C22_6 C 0.8197(6) 0.0561(7) 0.84011(16)
H8_6 H 0.7836 0.0027 0.8305
O5_6 O 0.7338(5) 0.8669(6) 0.7500
O7_6 O 0.62862(17) 0.51919(30) 0.49819(8)
O8_6 O 0.89057(25) 0.51919(30) 0.49819(8)
O20_6 O 0.8757(3) 0.8671(6) 0.71585(13)
N3_6 N 0.9214(3) 0.7146(6) 0.63247(13)
N4_6 N 0.7932(5) 0.7146(6) 0.63247(13)
C11_6 C 0.6411(3) 0.5500(5) 0.52687(12)
C12_6 C 0.9089(4) 0.5500(5) 0.52687(12)
C13_6 C 0.77809(19) 0.55620(48) 0.52743(16)
H4_6 H 0.7641 0.5283 0.5062
C15_6 C 0.7224(3) 0.5764(5) 0.54280(11)
C16_6 C 0.8540(4) 0.5764(5) 0.54280(11)
C18_6 C 0.7448(3) 0.6193(5) 0.57317(11)
C19_6 C 0.8745(4) 0.6193(5) 0.57317(11)
H6_6 H 0.7071 0.6330 0.5838
H7_6 H 0.9259 0.6330 0.5838
C20_6 C 0.8214(2) 0.6428(5) 0.58846(17)
C21_6 C 0.8472(2) 0.6944(5) 0.6198(2)
C23_6 C 0.9439(4) 0.7636(7) 0.65989(16)
C24_6 C 0.8197(6) 0.7636(7) 0.65989(16)
H9_6 H 0.9973 0.7809 0.6695
H10_6 H 0.7836 0.7809 0.6695
C25_6 C 0.8951(2) 0.7903(5) 0.67482(18)
C26_6 C 0.9237(3) 0.8475(7) 0.70352(18)
O3_3 O 0.87562(27) 0.43781(19) 0.42783(15)
O18_5 O 0.56219(33) 0.12438(27) 0.42783(15)
O3_4 O 0.43781(19) 0.56219(19) 0.92783(15)
O18_6 O 0.12438(27) 0.56219(19) 0.92783(15)
O18_7 O 0.56219(19) 0.43781(33) 0.42783(15)
O18_8 O 0.43781(33) 0.87562(27) 0.92783(15)
loop_
_geom_bond_atom_site_label_1
_geom_bond_atom_site_label_2
_geom_bond_site_symmetry_1
_geom_bond_site_symmetry_2
O12 C11 1_555 1_555
O13 C12 1_555 1_555
O21 C26 1_555 1_555
N3 C21 1_555 1_555
N4 C21 1_555 1_555
C11 C15 1_555 1_555
C12 C16 1_555 1_555
C13 H4 1_555 1_555
C15 C13 1_555 1_555
C16 C13 1_555 1_555
C18 C15 1_555 1_555
C19 C16 1_555 1_555
H6 C18 1_555 1_555
H7 C19 1_555 1_555
C20 C18 1_555 1_555
C21 C20 1_555 1_555
C23 N3 1_555 1_555
C24 N4 1_555 1_555
H9 C23 1_555 1_555
H10 C24 1_555 1_555
C25 C23 1_555 1_555
C26 O20 1_555 1_555
C19 C20 1_555 1_555
C24 C25 1_555 1_555
C25 C26 1_555 1_555
Cu6 O7 1_555 1_555
Cu8 O8 1_555 1_555
Cu1 O1 1_555 1_555
Cu2 O4 1_555 1_555
O1 C1 1_555 1_555
O2 C1 1_555 1_555
O3 Cu1 1_555 1_555
O4 C9 1_555 1_555
O5 Cu2 1_555 1_555
N1 C6 1_555 1_555
C1 C3 1_555 1_555
C2 H1 1_555 1_555
C3 C2 1_555 1_555
C4 C3 1_555 1_555
H2 C4 1_555 1_555
C5 C4 1_555 1_555
C6 C5 1_555 1_555
C7 N1 1_555 1_555
H3 C7 1_555 1_555
C8 C7 1_555 1_555
C9 C8 1_555 1_555
Cu3 O6 1_555 1_555
Cu4 O2 1_555 1_555
O6 C10 1_555 1_555
O9 Cu1 1_555 1_555
O10 Cu3 1_555 1_555
O11 C10 1_555 1_555
O14 Cu1 1_555 1_555
O15 Cu1 1_555 1_555
O18 Cu3 1_555 1_555
O19 C9 1_555 1_555
O22 Cu2 1_555 1_555
N2 C6 1_555 1_555
C10 C14 1_555 1_555
C14 C2 1_555 1_555
C17 C5 1_555 1_555
H5 C17 1_555 1_555
C22 C8 1_555 1_555
H8 C22 1_555 1_555
N2 C22 1_555 1_555
C14 C17 1_555 1_555
Cu5 O7_2 1_555 1_555
Cu4 O8_2 1_555 1_555
Cu11_2 O21_2 1_555 1_555
O7_2 C11_2 1_555 1_555
O8_2 C12_2 1_555 1_555
O17 C11_2 1_555 1_555
O15 C12_2 1_555 1_555
O21_2 C26_2 1_555 1_555
N3_2 C21_2 1_555 1_555
N4_2 C21_2 1_555 1_555
C11_2 C15_2 1_555 1_555
C12_2 C16_2 1_555 1_555
C13_2 H4_2 1_555 1_555
C15_2 C13_2 1_555 1_555
C16_2 C13_2 1_555 1_555
C18_2 C15_2 1_555 1_555
C19_2 C16_2 1_555 1_555
H6_2 C18_2 1_555 1_555
H7_2 C19_2 1_555 1_555
C20_2 C18_2 1_555 1_555
C21_2 C20_2 1_555 1_555
C23_2 N3_2 1_555 1_555
C24_2 N4_2 1_555 1_555
H9_2 C23_2 1_555 1_555
H10_2 C24_2 1_555 1_555
C25_2 C23_2 1_555 1_555
C26_2 O20_2 1_555 1_555
C19_2 C20_2 1_555 1_555
C24_2 C25_2 1_555 1_555
C25_2 C26_2 1_555 1_555
O5_2 Cu2_2 1_555 1_555
Cu7 O1_2 1_555 1_555
O3_2 Cu7 1_555 1_555
Cu3_2 O6_2 1_555 1_555
O9_2 Cu7 1_555 1_555
O10_2 Cu3_2 1_555 1_555
O16_2 Cu3_2 1_555 1_555
O17_2 Cu3_2 1_555 1_555
O18_2 Cu3_2 1_555 1_555
O2_2 C1_2 1_555 1_555
O4_2 C9_2 1_555 1_555
N1_2 C6_2 1_555 1_555
C1_2 C3_2 1_555 1_555
C2_2 H1_2 1_555 1_555
C3_2 C2_2 1_555 1_555
C4_2 C3_2 1_555 1_555
H2_2 C4_2 1_555 1_555
C5_2 C4_2 1_555 1_555
C6_2 C5_2 1_555 1_555
C7_2 N1_2 1_555 1_555
H3_2 C7_2 1_555 1_555
C8_2 C7_2 1_555 1_555
C9_2 C8_2 1_555 1_555
Cu5_2 O11_2 1_555 1_555
Cu10_2 O19_2 1_555 1_555
O11_2 C10_2 1_555 1_555
O19_2 C9_2 1_555 1_555
N2_2 C6_2 1_555 1_555
C10_2 C14_2 1_555 1_555
C14_2 C2_2 1_555 1_555
C17_2 C5_2 1_555 1_555
H5_2 C17_2 1_555 1_555
C22_2 C8_2 1_555 1_555
H8_2 C22_2 1_555 1_555
N2_2 C22_2 1_555 1_555
C14_2 C17_2 1_555 1_555
O5_3 Cu11 1_555 1_555
O17_2 C11_3 1_555 1_555
O15_2 C12_3 1_555 1_555
O20_3 Cu11 1_555 1_555
O21_3 C26_3 1_555 1_555
O23_3 Cu11 1_555 1_555
N3_3 C21_3 1_555 1_555
N4_3 C21_3 1_555 1_555
C11_3 C15_3 1_555 1_555
C12_3 C16_3 1_555 1_555
C13_3 H4_3 1_555 1_555
C15_3 C13_3 1_555 1_555
C16_3 C13_3 1_555 1_555
C18_3 C15_3 1_555 1_555
C19_3 C16_3 1_555 1_555
H6_3 C18_3 1_555 1_555
H7_3 C19_3 1_555 1_555
C20_3 C18_3 1_555 1_555
C21_3 C20_3 1_555 1_555
C23_3 N3_3 1_555 1_555
C24_3 N4_3 1_555 1_555
H9_3 C23_3 1_555 1_555
H10_3 C24_3 1_555 1_555
C25_3 C23_3 1_555 1_555
C26_3 O20_3 1_555 1_555
C19_3 C20_3 1_555 1_555
C24_3 C25_3 1_555 1_555
C25_3 C26_3 1_555 1_555
Cu5_2 O7_3 1_555 1_555
Cu6 O8_3 1_555 1_555
O10 C1_3 1_555 1_555
O2_3 C1_3 1_555 1_555
O4_3 C9_3 1_555 1_555
N1_3 C6_3 1_555 1_555
C1_3 C3_3 1_555 1_555
C2_3 H1_3 1_555 1_555
C3_3 C2_3 1_555 1_555
C4_3 C3_3 1_555 1_555
H2_3 C4_3 1_555 1_555
C5_3 C4_3 1_555 1_555
C6_3 C5_3 1_555 1_555
C7_3 N1_3 1_555 1_555
H3_3 C7_3 1_555 1_555
C8_3 C7_3 1_555 1_555
C9_3 C8_3 1_555 1_555
Cu3_3 O6_3 1_555 1_555
O6_3 C10_3 1_555 1_555
O10_3 Cu3_3 1_555 1_555
O11_3 C10_3 1_555 1_555
O18_3 Cu3_3 1_555 1_555
O23 C9_3 1_555 1_555
N2_3 C6_3 1_555 1_555
C10_3 C14_3 1_555 1_555
C14_3 C2_3 1_555 1_555
C17_3 C5_3 1_555 1_555
H5_3 C17_3 1_555 1_555
C22_3 C8_3 1_555 1_555
H8_3 C22_3 1_555 1_555
N2_3 C22_3 1_555 1_555
C14_3 C17_3 1_555 1_555
Cu9 O6_4 1_555 1_555
O10_4 Cu9 1_555 1_555
O18_4 Cu9 1_555 1_555
Cu11_2 O4_4 1_555 1_555
O2_4 C1_4 1_555 1_555
O4_4 C9_4 1_555 1_555
O5_4 Cu11_2 1_555 1_555
N1_4 C6_4 1_555 1_555
C1_4 C3_4 1_555 1_555
C2_4 H1_4 1_555 1_555
C3_4 C2_4 1_555 1_555
C4_4 C3_4 1_555 1_555
H2_4 C4_4 1_555 1_555
C5_4 C4_4 1_555 1_555
C6_4 C5_4 1_555 1_555
C7_4 N1_4 1_555 1_555
H3_4 C7_4 1_555 1_555
C8_4 C7_4 1_555 1_555
C9_4 C8_4 1_555 1_555
Cu5_2 O2_4 1_555 1_555
O11_4 C10_4 1_555 1_555
O23_2 C9_4 1_555 1_555
N2_4 C6_4 1_555 1_555
C10_4 C14_4 1_555 1_555
C14_4 C2_4 1_555 1_555
C17_4 C5_4 1_555 1_555
H5_4 C17_4 1_555 1_555
C22_4 C8_4 1_555 1_555
H8_4 C22_4 1_555 1_555
N2_4 C22_4 1_555 1_555
C14_4 C17_4 1_555 1_555
Cu5_3 O7_4 1_555 1_555
Cu5 O8_4 1_555 1_555
O7_4 C11_4 1_555 1_555
O8_4 C12_4 1_555 1_555
O17_3 C11_4 1_555 1_555
O16 C12_4 1_555 1_555
O21_4 C26_4 1_555 1_555
N3_4 C21_4 1_555 1_555
N4_4 C21_4 1_555 1_555
C11_4 C15_4 1_555 1_555
C12_4 C16_4 1_555 1_555
C13_4 H4_4 1_555 1_555
C15_4 C13_4 1_555 1_555
C16_4 C13_4 1_555 1_555
C18_4 C15_4 1_555 1_555
C19_4 C16_4 1_555 1_555
H6_4 C18_4 1_555 1_555
H7_4 C19_4 1_555 1_555
C20_4 C18_4 1_555 1_555
C21_4 C20_4 1_555 1_555
C23_4 N3_4 1_555 1_555
C24_4 N4_4 1_555 1_555
H9_4 C23_4 1_555 1_555
H10_4 C24_4 1_555 1_555
C25_4 C23_4 1_555 1_555
C26_4 O20_4 1_555 1_555
C19_4 C20_4 1_555 1_555
C24_4 C25_4 1_555 1_555
C25_4 C26_4 1_555 1_555
O10_3 C1_5 1_555 1_555
O2_5 C1_5 1_555 1_555
O4_5 C9_5 1_555 1_555
N1_5 C6_5 1_555 1_555
C1_5 C3_5 1_555 1_555
C2_5 H1_5 1_555 1_555
C3_5 C2_5 1_555 1_555
C4_5 C3_5 1_555 1_555
H2_5 C4_5 1_555 1_555
C5_5 C4_5 1_555 1_555
C6_5 C5_5 1_555 1_555
C7_5 N1_5 1_555 1_555
H3_5 C7_5 1_555 1_555
C8_5 C7_5 1_555 1_555
C9_5 C8_5 1_555 1_555
Cu4 O11_5 1_555 1_555
O9 C10_5 1_555 1_555
O11_5 C10_5 1_555 1_555
O23_3 C9_5 1_555 1_555
N2_5 C6_5 1_555 1_555
C10_5 C14_5 1_555 1_555
C14_5 C2_5 1_555 1_555
C17_5 C5_5 1_555 1_555
H5_5 C17_5 1_555 1_555
C22_5 C8_5 1_555 1_555
H8_5 C22_5 1_555 1_555
N2_5 C22_5 1_555 1_555
C14_5 C17_5 1_555 1_555
O5_5 Cu10 1_555 1_555
O17_4 C11_5 1_555 1_555
O16_2 C12_5 1_555 1_555
O22 C26_5 1_555 1_555
N3_5 C21_5 1_555 1_555
N4_5 C21_5 1_555 1_555
C11_5 C15_5 1_555 1_555
C12_5 C16_5 1_555 1_555
C13_5 H4_5 1_555 1_555
C15_5 C13_5 1_555 1_555
C16_5 C13_5 1_555 1_555
C18_5 C15_5 1_555 1_555
C19_5 C16_5 1_555 1_555
H6_5 C18_5 1_555 1_555
H7_5 C19_5 1_555 1_555
C20_5 C18_5 1_555 1_555
C21_5 C20_5 1_555 1_555
C23_5 N3_5 1_555 1_555
C24_5 N4_5 1_555 1_555
H9_5 C23_5 1_555 1_555
H10_5 C24_5 1_555 1_555
C25_5 C23_5 1_555 1_555
C26_5 O20_5 1_555 1_555
C19_5 C20_5 1_555 1_555
C24_5 C25_5 1_555 1_555
C25_5 C26_5 1_555 1_555
Cu8 O7_5 1_555 1_555
Cu5_2 O8_5 1_555 1_555
O2_6 C1_6 1_555 1_555
O4_6 C9_6 1_555 1_555
N1_6 C6_6 1_555 1_555
C1_6 C3_6 1_555 1_555
C2_6 H1_6 1_555 1_555
C3_6 C2_6 1_555 1_555
C4_6 C3_6 1_555 1_555
H2_6 C4_6 1_555 1_555
C5_6 C4_6 1_555 1_555
C6_6 C5_6 1_555 1_555
C7_6 N1_6 1_555 1_555
H3_6 C7_6 1_555 1_555
C8_6 C7_6 1_555 1_555
C9_6 C8_6 1_555 1_555
O11_6 C10_6 1_555 1_555
O23_4 C9_6 1_555 1_555
N2_6 C6_6 1_555 1_555
C10_6 C14_6 1_555 1_555
C14_6 C2_6 1_555 1_555
C17_6 C5_6 1_555 1_555
H5_6 C17_6 1_555 1_555
C22_6 C8_6 1_555 1_555
H8_6 C22_6 1_555 1_555
N2_6 C22_6 1_555 1_555
C14_6 C17_6 1_555 1_555
O5_6 Cu10_2 1_555 1_555
Cu4 O7_6 1_555 1_555
Cu5_3 O8_6 1_555 1_555
O7_6 C11_6 1_555 1_555
O8_6 C12_6 1_555 1_555
O14 C11_6 1_555 1_555
O16_3 C12_6 1_555 1_555
O20_6 Cu10_2 1_555 1_555
O22_2 C26_6 1_555 1_555
N3_6 C21_6 1_555 1_555
N4_6 C21_6 1_555 1_555
C11_6 C15_6 1_555 1_555
C12_6 C16_6 1_555 1_555
C13_6 H4_6 1_555 1_555
C15_6 C13_6 1_555 1_555
C16_6 C13_6 1_555 1_555
C18_6 C15_6 1_555 1_555
C19_6 C16_6 1_555 1_555
H6_6 C18_6 1_555 1_555
H7_6 C19_6 1_555 1_555
C20_6 C18_6 1_555 1_555
C21_6 C20_6 1_555 1_555
C23_6 N3_6 1_555 1_555
C24_6 N4_6 1_555 1_555
H9_6 C23_6 1_555 1_555
H10_6 C24_6 1_555 1_555
C25_6 C23_6 1_555 1_555
C26_6 O20_6 1_555 1_555
C19_6 C20_6 1_555 1_555
C24_6 C25_6 1_555 1_555
C25_6 C26_6 1_555 1_555
O3_3 Cu5_3 1_555 1_555
O18_5 Cu5 1_555 1_555
O3_4 Cu5_2 1_555 1_555
O18_6 Cu6 1_555 1_555
O18_7 Cu4 1_555 1_555
O18_8 Cu8 1_555 1_555

#END
