
###############################################################################
#
# This file contains modified crystal structure data generated from the
# MOF subset of the Cambridge Structural Database (CSD) v543 
# hosted by the Cambridge Crystallographic Data Centre (CCDC).
#
# This work is licensed under the Creative Commons
# Attribution-NonCommercial-ShareAlike 4.0 International License.
# To view a copy of this license, visit
# http://creativecommons.org/licenses/by-nc-sa/4.0/
# or send a letter to
# Creative Commons, PO Box 1866, Mountain View, CA 94042, USA.
#
# CIF created using the CSD Python API on 29 September 2022
# The structure has been converted into the P1 space group
# The structure has a 3D framework
# The original CSD entry OKAYOQ is in the triclinic crystal system
# The framework has been calculated to contain at least 10.0% void space
# The void calculation uses a probe of radius 1.32A, grid spacing 0.4
#
###############################################################################

data_OKAYOQ
_chemical_formula_moiety         '(C34 H20 Ca3 O8)n'
_symmetry_cell_setting           triclinic
_symmetry_space_group_name_H-M   'P 1'
_symmetry_Int_Tables_number      1
_space_group_name_Hall           'P 1'
loop_
_symmetry_equiv_pos_site_id
_symmetry_equiv_pos_as_xyz
1 x,y,z
_cell_length_a                   5.1634(2)
_cell_length_b                   10.5518(5)
_cell_length_c                   15.4849(7)
_cell_angle_alpha                82.725(4)
_cell_angle_beta                 87.233(4)
_cell_angle_gamma                83.782(4)
_cell_volume                     831.44
loop_
_atom_site_label
_atom_site_type_symbol
_atom_site_fract_x
_atom_site_fract_y
_atom_site_fract_z
Ca6 Ca -0.0000 -0.0000 0.0000
Ca6_2 Ca -0.0000 -0.0000 1.0000
Ca6_3 Ca 0.0000 1.0000 0.0000
Ca6_4 Ca -0.0000 1.0000 1.0000
Ca6_5 Ca 1.0000 -0.0000 0.0000
C2 C 0.0790(3) 0.56551(17) 0.56708(12)
C3 C 0.0964(3) 0.42991(18) 0.57756(11)
C4 C 0.1632(3) 0.63861(17) 0.63556(11)
C5 C 0.3936(4) 0.59906(18) 0.67911(12)
H2 H 0.5079 0.5296 0.6613
C6 C 0.4577(4) 0.65997(19) 0.74811(12)
H3 H 0.6145 0.6316 0.7776
C7 C 0.2931(4) 0.76268(18) 0.77439(12)
C8 C 0.0057(4) 0.74619(18) 0.65917(12)
C9 C 0.3462(4) 0.82156(18) 0.85355(12)
C10 C 0.1829(3) 0.35172(17) 0.66021(12)
C11 C 0.4074(4) 0.26414(18) 0.66115(12)
H5 H 0.4985 0.2489 0.6081
C12 C 0.4970(4) 0.19948(18) 0.73972(12)
H6 H 0.6532 0.1429 0.7402
C13 C 0.3602(3) 0.21695(17) 0.81746(11)
C14 C 0.1293(3) 0.29847(18) 0.81602(12)
H7 H 0.0298 0.3077 0.8685
C15 C 0.0442(3) 0.36617(18) 0.73819(12)
C16 C 0.4648(3) 0.15454(17) 0.90300(11)
O1 O 0.6989(2) 0.11281(13) 0.90574(9)
O2 O 0.3052(2) 0.15016(12) 0.96937(8)
O3 O 0.1872(3) 0.90057(13) 0.88373(9)
O4 O 0.5719(3) 0.78049(14) 0.88679(9)
H9 H 0.5898 0.8170 0.9310
C17 C 0.0691(4) 0.80746(18) 0.72851(12)
C18 C 0.0184(3) 0.36796(18) 0.51039(12)
H11 H 0.0320 0.2768 0.5175
H14 H 0.1459 0.2224 0.3725
H18 H 0.1112 0.5767 0.2619
H20 H 0.0402 0.1203 0.2554
Ca6_6 Ca 1.0000 -0.0000 1.0000
O10 O 0.3011(2) 0.88719(13) 0.09426(9)
Ca6_7 Ca 1.0000 1.0000 0.0000
Ca6_8 Ca 1.0000 1.0000 1.0000
O13 O 0.8128(3) 0.09943(13) 0.11627(9)
C1 C 0.9816(3) 0.63204(18) 0.48961(12)
H1 H 0.9680 0.7232 0.4825
H4 H 0.8541 0.7776 0.6275
H8 H 0.8888 0.4233 0.7381
H10 H 0.9598 0.8797 0.7446
C19 C 0.9210(3) 0.43449(17) 0.43292(12)
C20 C 0.9036(3) 0.57009(18) 0.42244(11)
C21 C 0.8368(3) 0.36139(17) 0.36444(11)
C22 C 0.6064(4) 0.40094(18) 0.32089(12)
H12 H 0.4921 0.4704 0.3387
C23 C 0.5423(4) 0.34003(19) 0.25189(12)
H13 H 0.3855 0.3684 0.2224
C24 C 0.7069(4) 0.23732(18) 0.22561(12)
C25 C 0.9943(4) 0.25381(18) 0.34083(12)
C26 C 0.6538(4) 0.17844(18) 0.14645(12)
C27 C 0.8171(3) 0.64828(17) 0.33979(12)
C28 C 0.5926(4) 0.73586(18) 0.33885(12)
H15 H 0.5015 0.7511 0.3919
C29 C 0.5030(4) 0.80052(18) 0.26028(12)
H16 H 0.3468 0.8571 0.2598
C30 C 0.6398(3) 0.78305(17) 0.18254(11)
C31 C 0.8707(3) 0.70153(18) 0.18398(12)
H17 H 0.9702 0.6923 0.1315
C32 C 0.9558(3) 0.63383(18) 0.26181(12)
C33 C 0.5352(3) 0.84546(17) 0.09700(11)
O6 O 0.6948(2) 0.84984(12) 0.03063(8)
O8 O 0.4281(3) 0.21951(14) 0.11321(9)
H19 H 0.4102 0.1830 0.0690
C34 C 0.9309(4) 0.19254(18) 0.27149(12)
loop_
_geom_bond_atom_site_label_1
_geom_bond_atom_site_label_2
_geom_bond_site_symmetry_1
_geom_bond_site_symmetry_2
C3 C2 1_555 1_555
C4 C2 1_555 1_555
C5 C4 1_555 1_555
H2 C5 1_555 1_555
C6 C5 1_555 1_555
H3 C6 1_555 1_555
C7 C6 1_555 1_555
C8 C4 1_555 1_555
C9 C7 1_555 1_555
C10 C3 1_555 1_555
C11 C10 1_555 1_555
H5 C11 1_555 1_555
C12 C11 1_555 1_555
H6 C12 1_555 1_555
C13 C12 1_555 1_555
C14 C13 1_555 1_555
H7 C14 1_555 1_555
C15 C10 1_555 1_555
C16 C13 1_555 1_555
O1 C16 1_555 1_555
O2 C16 1_555 1_555
O3 C9 1_555 1_555
O4 C9 1_555 1_555
H9 O4 1_555 1_555
Ca6_2 O2 1_555 1_555
C17 C7 1_555 1_555
C18 C3 1_555 1_555
H11 C18 1_555 1_555
Ca6_4 O3 1_555 1_555
Ca6_6 O1 1_555 1_555
C8 C17 1_555 1_555
C14 C15 1_555 1_555
O10 Ca6_3 1_555 1_555
O13 Ca6_5 1_555 1_555
C1 H1 1_555 1_555
C20 C1 1_555 1_555
C21 C19 1_555 1_555
C22 C21 1_555 1_555
H12 C22 1_555 1_555
C23 C22 1_555 1_555
H13 C23 1_555 1_555
C24 C23 1_555 1_555
C25 C21 1_555 1_555
C26 C24 1_555 1_555
C27 C20 1_555 1_555
C28 C27 1_555 1_555
H15 C28 1_555 1_555
C29 C28 1_555 1_555
H16 C29 1_555 1_555
C30 C29 1_555 1_555
C31 C30 1_555 1_555
H17 C31 1_555 1_555
C32 C27 1_555 1_555
C33 C30 1_555 1_555
O10 C33 1_555 1_555
O6 C33 1_555 1_555
O13 C26 1_555 1_555
O8 C26 1_555 1_555
H19 O8 1_555 1_555
C34 C24 1_555 1_555
Ca6_7 O6 1_555 1_555
C19 C20 1_555 1_555
C25 C34 1_555 1_555
C31 C32 1_555 1_555

#END
