
###############################################################################
#
# This file contains modified crystal structure data generated from the
# MOF subset of the Cambridge Structural Database (CSD) v543 
# hosted by the Cambridge Crystallographic Data Centre (CCDC).
#
# This work is licensed under the Creative Commons
# Attribution-NonCommercial-ShareAlike 4.0 International License.
# To view a copy of this license, visit
# http://creativecommons.org/licenses/by-nc-sa/4.0/
# or send a letter to
# Creative Commons, PO Box 1866, Mountain View, CA 94042, USA.
#
# CIF created using the CSD Python API on 29 September 2022
# The structure has been converted into the P1 space group
# The structure has a 3D framework
# The original CSD entry OKAYUW is in the triclinic crystal system
# The framework has been calculated to contain at least 10.0% void space
# The void calculation uses a probe of radius 1.32A, grid spacing 0.4
#
###############################################################################

data_OKAYUW
_chemical_formula_moiety         '(C34 H20 Ca3 O8)n'
_symmetry_cell_setting           triclinic
_symmetry_space_group_name_H-M   'P 1'
_symmetry_Int_Tables_number      1
_space_group_name_Hall           'P 1'
loop_
_symmetry_equiv_pos_site_id
_symmetry_equiv_pos_as_xyz
1 x,y,z
_cell_length_a                   5.1803(3)
_cell_length_b                   10.6508(5)
_cell_length_c                   15.2914(6)
_cell_angle_alpha                82.591(4)
_cell_angle_beta                 85.945(4)
_cell_angle_gamma                82.739(4)
_cell_volume                     828.669
loop_
_atom_site_label
_atom_site_type_symbol
_atom_site_fract_x
_atom_site_fract_y
_atom_site_fract_z
Ca6 Ca -0.0000 0.0000 0.0000
Ca6_2 Ca -0.0000 0.0000 1.0000
Ca6_3 Ca -0.0000 1.0000 0.0000
Ca6_4 Ca -0.0000 1.0000 1.0000
Ca6_5 Ca 1.0000 0.0000 0.0000
C2 C 0.0804(5) 0.5666(3) 0.56562(18)
C3 C 0.0973(6) 0.4323(3) 0.57875(18)
C4 C 0.1855(6) 0.3558(3) 0.66256(18)
C5 C 0.4111(6) 0.2694(3) 0.66305(19)
H2 H 0.5044 0.2542 0.6089
C6 C 0.5001(6) 0.2054(3) 0.74190(19)
H3 H 0.6576 0.1491 0.7418
C7 C 0.3600(6) 0.2232(3) 0.82141(18)
C8 C 0.1280(6) 0.3052(3) 0.82068(19)
H4 H 0.0269 0.3151 0.8742
C9 C 0.0451(6) 0.3719(3) 0.74236(19)
C10 C 0.4623(6) 0.1593(3) 0.90697(19)
C11 C 0.1654(6) 0.6409(3) 0.63316(17)
C12 C 0.3950(6) 0.6015(3) 0.67556(19)
H6 H 0.5088 0.5311 0.6578
C13 C 0.4602(6) 0.6636(3) 0.74334(19)
H7 H 0.6164 0.6345 0.7726
C14 C 0.2974(6) 0.7690(3) 0.76906(18)
C15 C 0.0745(6) 0.8131(3) 0.72363(19)
C16 C 0.0098(6) 0.7501(3) 0.65609(19)
C17 C 0.3529(6) 0.8298(3) 0.84692(19)
O1 O 0.2998(4) 0.14994(18) 0.97457(12)
O2 O 0.6990(4) 0.12052(19) 0.90969(13)
O3 O 0.1938(4) 0.91006(19) 0.87796(13)
O4 O 0.5793(4) 0.7888(2) 0.87851(14)
H10 H 0.5986 0.8266 0.9221
C18 C 0.0182(5) 0.3694(3) 0.51237(18)
H11 H 0.0324 0.2789 0.5208
H15 H 0.1103 0.5702 0.2573
H18 H 0.0339 0.1133 0.2610
H19 H 0.1420 0.2186 0.3751
Ca6_6 Ca 1.0000 0.0000 1.0000
O11 O 0.3010(4) 0.87948(19) 0.09031(13)
Ca6_7 Ca 1.0000 1.0000 0.0000
Ca6_8 Ca 1.0000 1.0000 1.0000
O13 O 0.8062(4) 0.08994(19) 0.12204(13)
C1 C 0.9818(5) 0.6306(3) 0.48763(18)
H1 H 0.9676 0.7211 0.4792
H5 H 0.8897 0.4298 0.7427
H8 H 0.9661 0.8867 0.7390
H9 H 0.8580 0.7814 0.6249
C19 C 0.9196(5) 0.4334(3) 0.43438(18)
C20 C 0.9027(6) 0.5677(3) 0.42125(18)
C21 C 0.8145(6) 0.6442(3) 0.33744(18)
C22 C 0.5889(6) 0.7306(3) 0.33695(19)
H12 H 0.4956 0.7458 0.3911
C23 C 0.4999(6) 0.7946(3) 0.25810(19)
H13 H 0.3424 0.8509 0.2582
C24 C 0.6400(6) 0.7768(3) 0.17859(18)
C25 C 0.8720(6) 0.6948(3) 0.17932(19)
H14 H 0.9731 0.6849 0.1258
C26 C 0.9549(6) 0.6281(3) 0.25764(19)
C27 C 0.5377(6) 0.8407(3) 0.09303(19)
C28 C 0.8346(6) 0.3591(3) 0.36684(17)
C29 C 0.6050(6) 0.3985(3) 0.32444(19)
H16 H 0.4912 0.4689 0.3422
C30 C 0.5398(6) 0.3364(3) 0.25666(19)
H17 H 0.3836 0.3655 0.2274
C31 C 0.7026(6) 0.2310(3) 0.23094(18)
C32 C 0.9255(6) 0.1869(3) 0.27637(19)
C33 C 0.9902(6) 0.2499(3) 0.34391(19)
C34 C 0.6471(6) 0.1702(3) 0.15308(19)
O5 O 0.7002(4) 0.85006(18) 0.02543(12)
O8 O 0.4207(4) 0.2112(2) 0.12149(14)
H20 H 0.4014 0.1734 0.0779
loop_
_geom_bond_atom_site_label_1
_geom_bond_atom_site_label_2
_geom_bond_site_symmetry_1
_geom_bond_site_symmetry_2
C3 C2 1_555 1_555
C4 C3 1_555 1_555
C5 C4 1_555 1_555
H2 C5 1_555 1_555
C6 C5 1_555 1_555
H3 C6 1_555 1_555
C7 C6 1_555 1_555
C8 C7 1_555 1_555
H4 C8 1_555 1_555
C9 C4 1_555 1_555
C10 C7 1_555 1_555
C11 C2 1_555 1_555
C12 C11 1_555 1_555
H6 C12 1_555 1_555
C13 C12 1_555 1_555
H7 C13 1_555 1_555
C14 C13 1_555 1_555
C15 C14 1_555 1_555
C16 C11 1_555 1_555
C17 C14 1_555 1_555
O1 C10 1_555 1_555
O2 C10 1_555 1_555
O3 C17 1_555 1_555
O4 C17 1_555 1_555
H10 O4 1_555 1_555
Ca6_2 O1 1_555 1_555
C18 C3 1_555 1_555
H11 C18 1_555 1_555
Ca6_4 O3 1_555 1_555
Ca6_6 O2 1_555 1_555
C8 C9 1_555 1_555
C15 C16 1_555 1_555
O11 Ca6_3 1_555 1_555
O13 Ca6_5 1_555 1_555
C1 H1 1_555 1_555
C20 C1 1_555 1_555
C21 C20 1_555 1_555
C22 C21 1_555 1_555
H12 C22 1_555 1_555
C23 C22 1_555 1_555
H13 C23 1_555 1_555
C24 C23 1_555 1_555
C25 C24 1_555 1_555
H14 C25 1_555 1_555
C26 C21 1_555 1_555
C27 C24 1_555 1_555
C28 C19 1_555 1_555
C29 C28 1_555 1_555
H16 C29 1_555 1_555
C30 C29 1_555 1_555
H17 C30 1_555 1_555
C31 C30 1_555 1_555
C32 C31 1_555 1_555
C33 C28 1_555 1_555
C34 C31 1_555 1_555
O5 C27 1_555 1_555
O11 C27 1_555 1_555
O13 C34 1_555 1_555
O8 C34 1_555 1_555
H20 O8 1_555 1_555
Ca6_7 O5 1_555 1_555
C19 C20 1_555 1_555
C25 C26 1_555 1_555
C32 C33 1_555 1_555

#END
