
###############################################################################
#
# This file contains modified crystal structure data generated from the
# MOF subset of the Cambridge Structural Database (CSD) v543 
# hosted by the Cambridge Crystallographic Data Centre (CCDC).
#
# This work is licensed under the Creative Commons
# Attribution-NonCommercial-ShareAlike 4.0 International License.
# To view a copy of this license, visit
# http://creativecommons.org/licenses/by-nc-sa/4.0/
# or send a letter to
# Creative Commons, PO Box 1866, Mountain View, CA 94042, USA.
#
# CIF created using the CSD Python API on 29 September 2022
# The structure has been converted into the P1 space group
# The structure has a 3D framework
# The original CSD entry OKAYEG is in the monoclinic crystal system
# The framework has been calculated to contain at least 10.0% void space
# The void calculation uses a probe of radius 1.32A, grid spacing 0.4
#
###############################################################################

data_OKAYEG
_chemical_formula_moiety         '(C56 H32 Ca2 O22 S4)n'
_symmetry_cell_setting           triclinic
_symmetry_space_group_name_H-M   'P 1'
_symmetry_Int_Tables_number      1
_space_group_name_Hall           'P 1'
loop_
_symmetry_equiv_pos_site_id
_symmetry_equiv_pos_as_xyz
1 x,y,z
_cell_length_a                   11.5955(3)
_cell_length_b                   5.55810(10)
_cell_length_c                   22.9548(5)
_cell_angle_alpha                90
_cell_angle_beta                 101.062(3)
_cell_angle_gamma                90
_cell_volume                     1451.93
loop_
_atom_site_label
_atom_site_type_symbol
_atom_site_fract_x
_atom_site_fract_y
_atom_site_fract_z
O2 O 0.01164(10) 0.4744(2) 0.25206(5)
O5 O 0.04045(10) 0.0793(2) 0.24321(5)
Ca3 Ca 0.13681(3) 0.74220(5) 0.220829(13)
O1 O 0.73729(10) 0.4786(2) 0.67232(5)
C1 C 0.72776(13) 0.2633(3) 0.65555(6)
Ca1 Ca 0.36319(3) 0.24220(5) 0.279171(13)
S1 S 0.60426(3) 0.03343(6) 0.394666(15)
O3 O 0.74104(10) 0.0866(2) 0.69107(5)
O4 O 0.50603(9) 0.1911(2) 0.37164(5)
C2 C 0.70469(13) 0.2102(3) 0.59021(6)
C4 C 0.72159(13) 0.1073(3) 0.35948(6)
C5 C 0.65030(13) 0.1088(3) 0.47036(6)
C6 C 0.90071(13) 0.2069(3) 0.29904(6)
C9 C 0.62029(14) 0.3323(3) 0.49026(7)
H4 H 0.5821 0.4461 0.4637
C10 C 0.81221(13) 0.3750(3) 0.30039(7)
H5 H 0.8142 0.5219 0.2812
C12 C 0.99290(13) 0.2577(3) 0.26199(7)
C13 C 0.72097(13) 0.3264(3) 0.32993(7)
H7 H 0.6609 0.4372 0.3300
C14 C 0.64849(13) 0.3821(3) 0.55056(6)
H8 H 0.6297 0.5313 0.5646
O7 O 0.26271(10) 0.5214(2) 0.32768(5)
Ca5 Ca 0.63681(3) 0.75780(5) 0.720829(13)
Ca6 Ca 0.86319(3) 0.25780(5) 0.779171(13)
O10 O 0.24104(10) 0.4134(2) 0.19107(5)
O11 O 0.45955(10) 0.5793(2) 0.25679(5)
O6 O 0.58752(10) 0.77672(19) 0.39113(5)
C3 C 0.73740(14) 0.9895(3) 0.56944(7)
H1 H 0.7768 0.8766 0.5959
C7 C 0.90060(13) 0.9896(3) 0.32949(7)
H2 H 0.9601 0.8779 0.3290
C8 C 0.81169(14) 0.9401(3) 0.36058(7)
H3 H 0.8122 0.7975 0.3818
C11 C 0.71094(14) 0.9388(3) 0.50899(7)
H6 H 0.7335 0.7932 0.4946
O8 O 0.48836(10) 0.9744(2) 0.24794(5)
O9 O 0.25896(10) 0.9134(2) 0.30893(5)
O7_2 O 0.23729(10) 0.0214(2) 0.17232(5)
H5_2 H 0.6858 0.0219 0.2188
H8_2 H 0.8703 0.0313 0.9354
S1_2 S 0.89574(3) 0.53343(6) 0.105334(15)
O4_2 O 0.99397(9) 0.6911(2) 0.12836(5)
O6_2 O 0.91248(10) 0.27672(19) 0.10887(5)
C4_2 C 0.77841(13) 0.6073(3) 0.14052(6)
C5_2 C 0.84970(13) 0.6088(3) 0.02964(6)
C6_2 C 0.59929(13) 0.7069(3) 0.20096(6)
C7_2 C 0.59940(13) 0.4896(3) 0.17051(7)
H2_2 H 0.5399 0.3779 0.1710
C8_2 C 0.68831(14) 0.4401(3) 0.13942(7)
H3_2 H 0.6878 0.2975 0.1182
C9_2 C 0.87971(14) 0.8323(3) 0.00974(7)
H4_2 H 0.9179 0.9461 0.0363
C10_2 C 0.68779(13) 0.8750(3) 0.19961(7)
H6_2 H 0.7665 0.2932 0.0054
C12_2 C 0.50710(13) 0.7577(3) 0.23801(7)
C13_2 C 0.77903(13) 0.8264(3) 0.17007(7)
H7_2 H 0.8391 0.9372 0.1700
O1_2 O 0.76271(10) 0.9786(2) 0.82768(5)
C1_2 C 0.77224(13) 0.7633(3) 0.84445(6)
O3_2 O 0.75896(10) 0.5866(2) 0.80893(5)
C2_2 C 0.79531(13) 0.7102(3) 0.90979(6)
C3_2 C 0.76260(14) 0.4895(3) 0.93056(7)
H1_2 H 0.7232 0.3766 0.9041
C11_2 C 0.78906(14) 0.4388(3) 0.99101(7)
C14_2 C 0.85151(13) 0.8821(3) 0.94944(6)
O6_3 O 0.41248(10) 0.22328(19) 0.60887(5)
C3_3 C 0.26260(14) 0.0105(3) 0.43056(7)
H1_3 H 0.2232 0.1234 0.4041
C7_3 C 0.09940(13) 0.0104(3) 0.67051(7)
H2_3 H 0.0399 0.1221 0.6710
C8_3 C 0.18831(14) 0.0599(3) 0.63942(7)
H3_3 H 0.1878 0.2025 0.6182
C11_3 C 0.28906(14) 0.0612(3) 0.49101(7)
H6_3 H 0.2665 0.2068 0.5054
O8_2 O 0.51164(10) 0.0256(2) 0.75206(5)
C1_3 C 0.27224(13) 0.7367(3) 0.34445(6)
S1_3 S 0.39574(3) 0.96657(6) 0.605334(15)
O4_3 O 0.49397(9) 0.8089(2) 0.62836(5)
C2_3 C 0.29531(13) 0.7898(3) 0.40979(6)
C4_3 C 0.27841(13) 0.8927(3) 0.64052(6)
C5_3 C 0.34970(13) 0.8912(3) 0.52964(6)
C6_3 C 0.09929(13) 0.7931(3) 0.70096(6)
C9_3 C 0.37971(14) 0.6677(3) 0.50974(7)
H4_3 H 0.4179 0.5539 0.5363
C10_3 C 0.18779(13) 0.6250(3) 0.69961(7)
H5_3 H 0.1858 0.4781 0.7188
C12_3 C 0.00710(13) 0.7423(3) 0.73801(7)
C13_3 C 0.27903(13) 0.6736(3) 0.67007(7)
H7_3 H 0.3391 0.5628 0.6700
C14_3 C 0.35151(13) 0.6179(3) 0.44944(6)
H8_3 H 0.3703 0.4687 0.4354
O11_2 O 0.54045(10) 0.4207(2) 0.74321(5)
O2_2 O 0.98836(10) 0.5256(2) 0.74794(5)
O5_2 O 0.95955(10) 0.9207(2) 0.75679(5)
C1_4 C 0.22776(13) 0.2367(3) 0.15555(6)
C2_4 C 0.20469(13) 0.2898(3) 0.09021(6)
C3_4 C 0.23740(14) 0.5105(3) 0.06944(7)
H1_4 H 0.2768 0.6234 0.0959
C11_4 C 0.21094(14) 0.5612(3) 0.00899(7)
C14_4 C 0.14849(13) 0.1179(3) 0.05056(6)
S1_4 S 0.10426(3) 0.46657(6) 0.894666(15)
O4_4 O 0.00603(9) 0.3089(2) 0.87164(5)
O6_4 O 0.08752(10) 0.72328(19) 0.89113(5)
C4_4 C 0.22159(13) 0.3927(3) 0.85948(6)
C5_4 C 0.15030(13) 0.3912(3) 0.97036(6)
C6_4 C 0.40071(13) 0.2931(3) 0.79904(6)
C7_4 C 0.40060(13) 0.5104(3) 0.82949(7)
H2_4 H 0.4601 0.6221 0.8290
C8_4 C 0.31169(14) 0.5599(3) 0.86058(7)
H3_4 H 0.3122 0.7025 0.8818
C9_4 C 0.12029(14) 0.1677(3) 0.99026(7)
H4_4 H 0.0821 0.0539 0.9637
C10_4 C 0.31221(13) 0.1250(3) 0.80039(7)
H6_4 H 0.2335 0.7068 0.9946
C12_4 C 0.49290(13) 0.2423(3) 0.76199(7)
C13_4 C 0.22097(13) 0.1736(3) 0.82993(7)
H7_4 H 0.1609 0.0628 0.8300
H8_4 H 0.1297 0.9687 0.0646
H5_4 H 0.3142 0.9781 0.7812
loop_
_geom_bond_atom_site_label_1
_geom_bond_atom_site_label_2
_geom_bond_site_symmetry_1
_geom_bond_site_symmetry_2
Ca3 O2 1_555 1_555
O1 C1 1_555 1_555
C1 O3 1_555 1_555
Ca1 O4 1_555 1_555
S1 O4 1_555 1_555
C2 C1 1_555 1_555
C4 S1 1_555 1_555
C5 S1 1_555 1_555
C9 C5 1_555 1_555
H4 C9 1_555 1_555
C10 C6 1_555 1_555
H5 C10 1_555 1_555
C12 C6 1_555 1_555
C13 C4 1_555 1_555
H7 C13 1_555 1_555
C14 C2 1_555 1_555
H8 C14 1_555 1_555
O7 Ca1 1_555 1_555
Ca5 O1 1_555 1_555
Ca6 O3 1_555 1_555
O10 Ca1 1_555 1_555
O11 Ca1 1_555 1_555
C9 C14 1_555 1_555
C10 C13 1_555 1_555
H1 C3 1_555 1_555
C7 H2 1_555 1_555
H3 C8 1_555 1_555
C11 C3 1_555 1_555
H6 C11 1_555 1_555
C7 C8 1_555 1_555
O10 Ca3 1_555 1_555
O9 Ca3 1_555 1_555
S1_2 O4_2 1_555 1_555
O8 C12_2 1_555 1_555
O11 C12_2 1_555 1_555
O6_2 S1_2 1_555 1_555
C4_2 S1_2 1_555 1_555
C5_2 S1_2 1_555 1_555
C6_2 C7_2 1_555 1_555
C7_2 H2_2 1_555 1_555
C8_2 C4_2 1_555 1_555
H3_2 C8_2 1_555 1_555
C9_2 C5_2 1_555 1_555
H4_2 C9_2 1_555 1_555
C10_2 C6_2 1_555 1_555
C12_2 C6_2 1_555 1_555
C13_2 C4_2 1_555 1_555
H7_2 C13_2 1_555 1_555
C7_2 C8_2 1_555 1_555
C10_2 C13_2 1_555 1_555
O1_2 C1_2 1_555 1_555
C1_2 O3_2 1_555 1_555
O3_2 Ca6 1_555 1_555
C2_2 C1_2 1_555 1_555
C3_2 C2_2 1_555 1_555
H1_2 C3_2 1_555 1_555
C11_2 C3_2 1_555 1_555
C14_2 C2_2 1_555 1_555
Ca5 O3_2 1_555 1_555
H1_3 C3_3 1_555 1_555
C7_3 H2_3 1_555 1_555
H3_3 C8_3 1_555 1_555
C11_3 C3_3 1_555 1_555
H6_3 C11_3 1_555 1_555
C7_3 C8_3 1_555 1_555
O7 C1_3 1_555 1_555
C1_3 O9 1_555 1_555
Ca5 O4_3 1_555 1_555
S1_3 O4_3 1_555 1_555
C2_3 C1_3 1_555 1_555
C4_3 S1_3 1_555 1_555
C5_3 S1_3 1_555 1_555
C9_3 C5_3 1_555 1_555
H4_3 C9_3 1_555 1_555
C10_3 C6_3 1_555 1_555
H5_3 C10_3 1_555 1_555
C12_3 C6_3 1_555 1_555
C13_3 C4_3 1_555 1_555
H7_3 C13_3 1_555 1_555
C14_3 C2_3 1_555 1_555
H8_3 C14_3 1_555 1_555
O11_2 Ca5 1_555 1_555
C9_3 C14_3 1_555 1_555
C10_3 C13_3 1_555 1_555
Ca6 O2_2 1_555 1_555
O7_2 C1_4 1_555 1_555
C1_4 O10 1_555 1_555
C2_4 C1_4 1_555 1_555
C3_4 C2_4 1_555 1_555
H1_4 C3_4 1_555 1_555
C11_4 C3_4 1_555 1_555
C14_4 C2_4 1_555 1_555
S1_4 O4_4 1_555 1_555
O8_2 C12_4 1_555 1_555
O11_2 C12_4 1_555 1_555
O6_4 S1_4 1_555 1_555
C4_4 S1_4 1_555 1_555
C5_4 S1_4 1_555 1_555
C6_4 C7_4 1_555 1_555
C7_4 H2_4 1_555 1_555
C8_4 C4_4 1_555 1_555
H3_4 C8_4 1_555 1_555
C9_4 C5_4 1_555 1_555
H4_4 C9_4 1_555 1_555
C10_4 C6_4 1_555 1_555
C12_4 C6_4 1_555 1_555
C13_4 C4_4 1_555 1_555
H7_4 C13_4 1_555 1_555
C7_4 C8_4 1_555 1_555
C10_4 C13_4 1_555 1_555

#END
