
###############################################################################
#
# This file contains modified crystal structure data generated from the
# MOF subset of the Cambridge Structural Database (CSD) v543 
# hosted by the Cambridge Crystallographic Data Centre (CCDC).
#
# This work is licensed under the Creative Commons
# Attribution-NonCommercial-ShareAlike 4.0 International License.
# To view a copy of this license, visit
# http://creativecommons.org/licenses/by-nc-sa/4.0/
# or send a letter to
# Creative Commons, PO Box 1866, Mountain View, CA 94042, USA.
#
# CIF created using the CSD Python API on 29 September 2022
# The structure has been converted into the P1 space group
# The structure has a 3D framework
# The original CSD entry OKAYIK is in the monoclinic crystal system
# The framework has been calculated to contain at least 10.0% void space
# The void calculation uses a probe of radius 1.32A, grid spacing 0.4
#
###############################################################################

data_OKAYIK
_chemical_formula_moiety         '(C56 H32 Ca2 O22 S4)n'
_symmetry_cell_setting           triclinic
_symmetry_space_group_name_H-M   'P 1'
_symmetry_Int_Tables_number      1
_space_group_name_Hall           'P 1'
loop_
_symmetry_equiv_pos_site_id
_symmetry_equiv_pos_as_xyz
1 x,y,z
_cell_length_a                   11.6667(11)
_cell_length_b                   5.5586(5)
_cell_length_c                   22.935(2)
_cell_angle_alpha                90
_cell_angle_beta                 101.011(3)
_cell_angle_gamma                90
_cell_volume                     1459.97
loop_
_atom_site_label
_atom_site_type_symbol
_atom_site_fract_x
_atom_site_fract_y
_atom_site_fract_z
S1 S 0.39611(14) 0.0346(3) 0.10598(7)
O6 O 0.4936(4) 0.1964(8) 0.12913(19)
C2 C 0.2792(6) 0.1094(11) 0.1409(3)
C4 C 0.3520(6) 0.1097(11) 0.0290(3)
C5 C 0.2781(6) 0.3294(12) 0.1705(3)
H3 H 0.3385 0.4439 0.1703
C6 C 0.3806(6) 0.3352(12) 0.0106(3)
H4 H 0.4179 0.4521 0.0380
C9 C 0.1882(6) 0.3771(11) 0.1998(3)
H7 H 0.1872 0.5263 0.2200
C12 C 0.0061(5) 0.2562(9) 0.2372(3)
C13 C 0.0987(5) 0.2128(11) 0.2008(3)
Ca1 Ca 0.63659(11) 0.24372(18) 0.22129(5)
O9 O 0.7595(4) 0.4166(8) 0.3097(2)
O10 O 0.5412(4) 0.5802(9) 0.2444(2)
O11 O 0.7359(4) 0.5232(8) 0.17273(19)
O2 O 0.2595(4) 0.0834(8) 0.8097(2)
O4 O 0.2641(4) 0.4768(8) 0.82727(19)
C10 C 0.3521(6) 0.3827(11) 0.9496(3)
H8 H 0.3713 0.5348 0.9351
C11 C 0.2738(5) 0.2606(9) 0.8450(3)
C14 C 0.2966(6) 0.2131(11) 0.9100(3)
Ca5 Ca 0.36341(11) 0.75628(18) 0.77871(5)
Ca6 Ca 0.13659(11) 0.25628(18) 0.72129(5)
O5 O 0.4127(4) 0.7755(8) 0.1100(2)
C1 C 0.1886(6) 0.9422(12) 0.1392(3)
H1 H 0.1877 0.7970 0.1173
H2 H 0.2676 0.7928 0.0064
C8 C 0.1003(6) 0.9929(12) 0.1701(3)
H6 H 0.0401 0.8783 0.1707
O7 O 0.5131(4) 0.9756(8) 0.2529(2)
O8 O 0.7405(4) 0.9166(8) 0.1903(2)
C3 C 0.2906(6) 0.9406(12) 0.9913(3)
C7 C 0.2635(6) 0.9898(12) 0.9315(3)
H5 H 0.2228 0.8746 0.9046
O1 O 0.9869(4) 0.4756(8) 0.2471(2)
O3 O 0.9588(4) 0.0802(9) 0.2556(2)
Ca3 Ca 0.86341(11) 0.74372(18) 0.27871(5)
H7_2 H 0.3128 0.0263 0.2800
H8_2 H 0.1287 0.0348 0.5649
S1_2 S 0.10389(14) 0.5346(3) 0.39402(7)
O2_2 O 0.2405(4) 0.5834(8) 0.6903(2)
O4_2 O 0.2359(4) 0.9768(8) 0.67273(19)
O5_2 O 0.0873(4) 0.2755(8) 0.3900(2)
O6_2 O 0.0064(4) 0.6964(8) 0.37087(19)
C1_2 C 0.3114(6) 0.4422(12) 0.3608(3)
H1_2 H 0.3123 0.2970 0.3827
C2_2 C 0.2208(6) 0.6094(11) 0.3591(3)
C3_2 C 0.2094(6) 0.4406(12) 0.5087(3)
H2_2 H 0.2324 0.2928 0.4936
C4_2 C 0.1480(6) 0.6097(11) 0.4710(3)
C5_2 C 0.2219(6) 0.8294(12) 0.3295(3)
H3_2 H 0.1615 0.9439 0.3297
C6_2 C 0.1194(6) 0.8352(12) 0.4894(3)
H4_2 H 0.0821 0.9521 0.4620
C7_2 C 0.2365(6) 0.4898(12) 0.5685(3)
H5_2 H 0.2772 0.3746 0.5954
C8_2 C 0.3997(6) 0.4929(12) 0.3299(3)
H6_2 H 0.4599 0.3783 0.3293
C9_2 C 0.3118(6) 0.8771(11) 0.3002(3)
C10_2 C 0.1479(6) 0.8827(11) 0.5504(3)
C11_2 C 0.2262(5) 0.7606(9) 0.6550(3)
C12_2 C 0.4939(5) 0.7562(9) 0.2628(3)
C13_2 C 0.4013(5) 0.7128(11) 0.2992(3)
C14_2 C 0.2034(6) 0.7131(11) 0.5900(3)
O11_2 O 0.7641(4) 0.0232(8) 0.32727(19)
O1_2 O 0.0131(4) 0.5244(8) 0.7529(2)
O3_2 O 0.0412(4) 0.9198(9) 0.7444(2)
C3_3 C 0.7094(6) 0.0594(12) 0.0087(3)
C7_3 C 0.7365(6) 0.0102(12) 0.0685(3)
H5_3 H 0.7772 0.1254 0.0954
O5_3 O 0.5873(4) 0.2245(8) 0.8900(2)
C1_3 C 0.8114(6) 0.0578(12) 0.8608(3)
H1_3 H 0.8123 0.2030 0.8827
H2_3 H 0.7324 0.2072 0.9936
C8_3 C 0.8997(6) 0.0071(12) 0.8299(3)
H6_3 H 0.9599 0.1217 0.8293
O7_2 O 0.4869(4) 0.0244(8) 0.7471(2)
C10_3 C 0.6479(6) 0.6173(11) 0.0504(3)
H8_3 H 0.6287 0.4652 0.0649
C11_3 C 0.7262(5) 0.7394(9) 0.1550(3)
C14_3 C 0.7034(6) 0.7869(11) 0.0900(3)
S1_3 S 0.60389(14) 0.9654(3) 0.89402(7)
O6_3 O 0.5064(4) 0.8036(8) 0.87087(19)
C2_3 C 0.7208(6) 0.8906(11) 0.8591(3)
C4_3 C 0.6480(6) 0.8903(11) 0.9710(3)
C5_3 C 0.7219(6) 0.6706(12) 0.8295(3)
H3_3 H 0.6615 0.5561 0.8297
C6_3 C 0.6194(6) 0.6648(12) 0.9894(3)
H4_3 H 0.5821 0.5479 0.9620
C9_3 C 0.8118(6) 0.6229(11) 0.8002(3)
H7_3 H 0.8128 0.4737 0.7800
C12_3 C 0.9939(5) 0.7438(9) 0.7628(3)
C13_3 C 0.9013(5) 0.7872(11) 0.7992(3)
O10_2 O 0.4588(4) 0.4198(9) 0.7556(2)
S1_4 S 0.89611(14) 0.4654(3) 0.60598(7)
O5_4 O 0.9127(4) 0.7245(8) 0.6100(2)
O6_4 O 0.9936(4) 0.3036(8) 0.62913(19)
C1_4 C 0.6886(6) 0.5578(12) 0.6392(3)
H1_4 H 0.6877 0.7030 0.6173
C2_4 C 0.7792(6) 0.3906(11) 0.6409(3)
C3_4 C 0.7906(6) 0.5594(12) 0.4913(3)
H2_4 H 0.7676 0.7072 0.5064
C4_4 C 0.8520(6) 0.3903(11) 0.5290(3)
C5_4 C 0.7781(6) 0.1706(12) 0.6705(3)
H3_4 H 0.8385 0.0561 0.6703
C6_4 C 0.8806(6) 0.1648(12) 0.5106(3)
H4_4 H 0.9179 0.0479 0.5380
C7_4 C 0.7635(6) 0.5102(12) 0.4315(3)
H5_4 H 0.7228 0.6254 0.4046
C8_4 C 0.6003(6) 0.5071(12) 0.6701(3)
H6_4 H 0.5401 0.6217 0.6707
C9_4 C 0.6882(6) 0.1229(11) 0.6998(3)
C10_4 C 0.8521(6) 0.1173(11) 0.4496(3)
C11_4 C 0.7738(5) 0.2394(9) 0.3450(3)
C12_4 C 0.5061(5) 0.2438(9) 0.7372(3)
C13_4 C 0.5987(5) 0.2872(11) 0.7008(3)
C14_4 C 0.7966(6) 0.2869(11) 0.4100(3)
H7_4 H 0.6872 0.9737 0.7200
H8_4 H 0.8713 0.9652 0.4351
loop_
_geom_bond_atom_site_label_1
_geom_bond_atom_site_label_2
_geom_bond_site_symmetry_1
_geom_bond_site_symmetry_2
O6 S1 1_555 1_555
C2 S1 1_555 1_555
C4 S1 1_555 1_555
C5 C2 1_555 1_555
H3 C5 1_555 1_555
C6 C4 1_555 1_555
H4 C6 1_555 1_555
C9 C5 1_555 1_555
H7 C9 1_555 1_555
C12 C13 1_555 1_555
Ca1 O6 1_555 1_555
O9 Ca1 1_555 1_555
O10 Ca1 1_555 1_555
O11 Ca1 1_555 1_555
C9 C13 1_555 1_555
O2 C11 1_555 1_555
O4 C11 1_555 1_555
H8 C10 1_555 1_555
C11 C14 1_555 1_555
Ca5 O4 1_555 1_555
Ca6 O2 1_555 1_555
C10 C14 1_555 1_555
C1 H1 1_555 1_555
C8 C1 1_555 1_555
H6 C8 1_555 1_555
C7 C3 1_555 1_555
H5 C7 1_555 1_555
Ca3 O1 1_555 1_555
S1_2 O5_2 1_555 1_555
O7 C12_2 1_555 1_555
O2_2 C11_2 1_555 1_555
O10 C12_2 1_555 1_555
O4_2 C11_2 1_555 1_555
O6_2 S1_2 1_555 1_555
C1_2 H1_2 1_555 1_555
C2_2 S1_2 1_555 1_555
C3_2 H2_2 1_555 1_555
C4_2 S1_2 1_555 1_555
C5_2 C2_2 1_555 1_555
H3_2 C5_2 1_555 1_555
C6_2 C4_2 1_555 1_555
H4_2 C6_2 1_555 1_555
C7_2 C3_2 1_555 1_555
H5_2 C7_2 1_555 1_555
C8_2 C1_2 1_555 1_555
H6_2 C8_2 1_555 1_555
C9_2 C5_2 1_555 1_555
C10_2 C6_2 1_555 1_555
C11_2 C14_2 1_555 1_555
C12_2 C13_2 1_555 1_555
C13_2 C8_2 1_555 1_555
C14_2 C7_2 1_555 1_555
Ca6 O2_2 1_555 1_555
Ca5 O2_2 1_555 1_555
C1_2 C2_2 1_555 1_555
C3_2 C4_2 1_555 1_555
C9_2 C13_2 1_555 1_555
C10_2 C14_2 1_555 1_555
O9 Ca3 1_555 1_555
O8 Ca3 1_555 1_555
Ca6 O1_2 1_555 1_555
C7_3 C3_3 1_555 1_555
H5_3 C7_3 1_555 1_555
C1_3 H1_3 1_555 1_555
C8_3 C1_3 1_555 1_555
H6_3 C8_3 1_555 1_555
O8 C11_3 1_555 1_555
O11 C11_3 1_555 1_555
H8_3 C10_3 1_555 1_555
C11_3 C14_3 1_555 1_555
C10_3 C14_3 1_555 1_555
O6_3 S1_3 1_555 1_555
C2_3 S1_3 1_555 1_555
C4_3 S1_3 1_555 1_555
C5_3 C2_3 1_555 1_555
H3_3 C5_3 1_555 1_555
C6_3 C4_3 1_555 1_555
H4_3 C6_3 1_555 1_555
C9_3 C5_3 1_555 1_555
H7_3 C9_3 1_555 1_555
C12_3 C13_3 1_555 1_555
Ca5 O6_3 1_555 1_555
O10_2 Ca5 1_555 1_555
C9_3 C13_3 1_555 1_555
S1_4 O5_4 1_555 1_555
O7_2 C12_4 1_555 1_555
O9 C11_4 1_555 1_555
O10_2 C12_4 1_555 1_555
O11_2 C11_4 1_555 1_555
O6_4 S1_4 1_555 1_555
C1_4 H1_4 1_555 1_555
C2_4 S1_4 1_555 1_555
C3_4 H2_4 1_555 1_555
C4_4 S1_4 1_555 1_555
C5_4 C2_4 1_555 1_555
H3_4 C5_4 1_555 1_555
C6_4 C4_4 1_555 1_555
H4_4 C6_4 1_555 1_555
C7_4 C3_4 1_555 1_555
H5_4 C7_4 1_555 1_555
C8_4 C1_4 1_555 1_555
H6_4 C8_4 1_555 1_555
C9_4 C5_4 1_555 1_555
C10_4 C6_4 1_555 1_555
C11_4 C14_4 1_555 1_555
C12_4 C13_4 1_555 1_555
C13_4 C8_4 1_555 1_555
C14_4 C7_4 1_555 1_555
C1_4 C2_4 1_555 1_555
C3_4 C4_4 1_555 1_555
C9_4 C13_4 1_555 1_555
C10_4 C14_4 1_555 1_555

#END
