
###############################################################################
#
# This file contains modified crystal structure data generated from the
# MOF subset of the Cambridge Structural Database (CSD) v543 
# hosted by the Cambridge Crystallographic Data Centre (CCDC).
#
# This work is licensed under the Creative Commons
# Attribution-NonCommercial-ShareAlike 4.0 International License.
# To view a copy of this license, visit
# http://creativecommons.org/licenses/by-nc-sa/4.0/
# or send a letter to
# Creative Commons, PO Box 1866, Mountain View, CA 94042, USA.
#
# CIF created using the CSD Python API on 29 September 2022
# The structure has been converted into the P1 space group
# The structure has a 3D framework
# The original CSD entry OKAZAD is in the triclinic crystal system
# The framework has been calculated to contain at least 10.0% void space
# The void calculation uses a probe of radius 1.32A, grid spacing 0.4
#
###############################################################################

data_OKAZAD
_chemical_formula_moiety         '(C34 H20 Ca3 O8)n'
_symmetry_cell_setting           triclinic
_symmetry_space_group_name_H-M   'P 1'
_symmetry_Int_Tables_number      1
_space_group_name_Hall           'P 1'
loop_
_symmetry_equiv_pos_site_id
_symmetry_equiv_pos_as_xyz
1 x,y,z
_cell_length_a                   5.2195(2)
_cell_length_b                   10.5691(5)
_cell_length_c                   15.3604(7)
_cell_angle_alpha                82.5330(10)
_cell_angle_beta                 86.6570(10)
_cell_angle_gamma                83.0000(10)
_cell_volume                     833.137
loop_
_atom_site_label
_atom_site_type_symbol
_atom_site_fract_x
_atom_site_fract_y
_atom_site_fract_z
Ca6 Ca -0.0000 0.0000 0.0000
Ca6_2 Ca -0.0000 0.0000 1.0000
Ca6_3 Ca -0.0000 1.0000 0.0000
Ca6_4 Ca -0.0000 1.0000 1.0000
Ca6_5 Ca 1.0000 0.0000 0.0000
C2 C 0.0784(4) 0.5660(2) 0.56645(12)
C3 C 0.0960(4) 0.4316(2) 0.57842(12)
C4 C 0.1833(4) 0.3541(2) 0.66229(12)
C5 C 0.4071(4) 0.2670(2) 0.66344(13)
H2 H 0.4982 0.2514 0.6098
C6 C 0.4975(4) 0.2031(2) 0.74248(13)
H3 H 0.6535 0.1464 0.7429
C7 C 0.3601(4) 0.2220(2) 0.82110(13)
C8 C 0.1294(4) 0.3034(2) 0.81990(12)
H4 H 0.0303 0.3132 0.8730
C9 C 0.0442(4) 0.3704(2) 0.74133(13)
C10 C 0.4633(4) 0.1579(2) 0.90725(13)
C11 C 0.1617(4) 0.6409(2) 0.63402(12)
C12 C 0.3923(4) 0.6015(2) 0.67668(13)
H6 H 0.5058 0.5313 0.6590
C13 C 0.4564(4) 0.6642(2) 0.74442(13)
H7 H 0.6130 0.6364 0.7734
C14 C 0.2927(4) 0.7679(2) 0.77045(12)
C15 C 0.0675(4) 0.8118(2) 0.72538(13)
C16 C 0.0044(4) 0.7489(2) 0.65753(13)
C17 C 0.3478(4) 0.8298(2) 0.84798(12)
O1 O 0.3032(3) 0.14919(15) 0.97339(8)
O2 O 0.6985(3) 0.12014(16) 0.91005(9)
O3 O 0.1879(3) 0.90735(16) 0.87983(9)
O4 O 0.5764(3) 0.79169(17) 0.87877(9)
H10 H 0.5963 0.8304 0.9219
C18 C 0.0188(4) 0.3680(2) 0.51206(13)
H11 H 0.0325 0.2768 0.5204
H15 H 0.1105 0.5720 0.2588
H18 H 0.0417 0.1154 0.2587
H19 H 0.1477 0.2206 0.3735
Ca6_6 Ca 1.0000 0.0000 1.0000
O11 O 0.3015(3) 0.87986(16) 0.08995(9)
Ca6_7 Ca 1.0000 1.0000 0.0000
Ca6_8 Ca 1.0000 1.0000 1.0000
O13 O 0.8121(3) 0.09265(16) 0.12017(9)
C1 C 0.9812(4) 0.6320(2) 0.48794(13)
H1 H 0.9675 0.7232 0.4796
H5 H 0.8895 0.4280 0.7412
H8 H 0.9583 0.8846 0.7413
H9 H 0.8523 0.7794 0.6265
C19 C 0.9216(4) 0.4340(2) 0.43355(12)
C20 C 0.9040(4) 0.5684(2) 0.42158(12)
C21 C 0.8167(4) 0.6459(2) 0.33771(12)
C22 C 0.5929(4) 0.7330(2) 0.33656(13)
H12 H 0.5018 0.7486 0.3902
C23 C 0.5025(4) 0.7969(2) 0.25752(13)
H13 H 0.3465 0.8536 0.2571
C24 C 0.6399(4) 0.7780(2) 0.17890(13)
C25 C 0.8706(4) 0.6966(2) 0.18010(12)
H14 H 0.9697 0.6868 0.1270
C26 C 0.9558(4) 0.6296(2) 0.25867(13)
C27 C 0.5367(4) 0.8421(2) 0.09275(13)
C28 C 0.8383(4) 0.3591(2) 0.36598(12)
C29 C 0.6077(4) 0.3985(2) 0.32332(13)
H16 H 0.4942 0.4687 0.3410
C30 C 0.5436(4) 0.3358(2) 0.25558(13)
H17 H 0.3870 0.3636 0.2266
C31 C 0.7073(4) 0.2321(2) 0.22955(12)
C32 C 0.9325(4) 0.1882(2) 0.27462(13)
C33 C 0.9956(4) 0.2511(2) 0.34247(13)
C34 C 0.6522(4) 0.1702(2) 0.15202(12)
O5 O 0.6968(3) 0.85081(15) 0.02661(8)
O8 O 0.4236(3) 0.20831(17) 0.12123(9)
H20 H 0.4037 0.1696 0.0781
loop_
_geom_bond_atom_site_label_1
_geom_bond_atom_site_label_2
_geom_bond_site_symmetry_1
_geom_bond_site_symmetry_2
C3 C2 1_555 1_555
C4 C3 1_555 1_555
C5 C4 1_555 1_555
H2 C5 1_555 1_555
C6 C5 1_555 1_555
H3 C6 1_555 1_555
C7 C6 1_555 1_555
C8 C7 1_555 1_555
H4 C8 1_555 1_555
C9 C4 1_555 1_555
C10 C7 1_555 1_555
C11 C2 1_555 1_555
C12 C11 1_555 1_555
H6 C12 1_555 1_555
C13 C12 1_555 1_555
H7 C13 1_555 1_555
C14 C13 1_555 1_555
C15 C14 1_555 1_555
C16 C11 1_555 1_555
C17 C14 1_555 1_555
O1 C10 1_555 1_555
O2 C10 1_555 1_555
O3 C17 1_555 1_555
O4 C17 1_555 1_555
H10 O4 1_555 1_555
Ca6_2 O1 1_555 1_555
C18 C3 1_555 1_555
H11 C18 1_555 1_555
Ca6_4 O3 1_555 1_555
Ca6_6 O2 1_555 1_555
C8 C9 1_555 1_555
C15 C16 1_555 1_555
O11 Ca6_3 1_555 1_555
O13 Ca6_5 1_555 1_555
C1 H1 1_555 1_555
C20 C1 1_555 1_555
C21 C20 1_555 1_555
C22 C21 1_555 1_555
H12 C22 1_555 1_555
C23 C22 1_555 1_555
H13 C23 1_555 1_555
C24 C23 1_555 1_555
C25 C24 1_555 1_555
H14 C25 1_555 1_555
C26 C21 1_555 1_555
C27 C24 1_555 1_555
C28 C19 1_555 1_555
C29 C28 1_555 1_555
H16 C29 1_555 1_555
C30 C29 1_555 1_555
H17 C30 1_555 1_555
C31 C30 1_555 1_555
C32 C31 1_555 1_555
C33 C28 1_555 1_555
C34 C31 1_555 1_555
O5 C27 1_555 1_555
O11 C27 1_555 1_555
O13 C34 1_555 1_555
O8 C34 1_555 1_555
H20 O8 1_555 1_555
Ca6_7 O5 1_555 1_555
C19 C20 1_555 1_555
C25 C26 1_555 1_555
C32 C33 1_555 1_555

#END
