
###############################################################################
#
# This file contains modified crystal structure data generated from the
# MOF subset of the Cambridge Structural Database (CSD) v543 
# hosted by the Cambridge Crystallographic Data Centre (CCDC).
#
# This work is licensed under the Creative Commons
# Attribution-NonCommercial-ShareAlike 4.0 International License.
# To view a copy of this license, visit
# http://creativecommons.org/licenses/by-nc-sa/4.0/
# or send a letter to
# Creative Commons, PO Box 1866, Mountain View, CA 94042, USA.
#
# CIF created using the CSD Python API on 29 September 2022
# The structure has been converted into the P1 space group
# The structure has a 3D framework
# The original CSD entry OKEHOE is in the orthorhombic crystal system
# The framework has been calculated to contain at least 10.0% void space
# The void calculation uses a probe of radius 1.32A, grid spacing 0.4
# The framework is charged, counterions have been retained in the structure
#
###############################################################################

data_OKEHOE
_chemical_formula_moiety         '(C140 H60 O64 Zn16 8-)n'
_symmetry_cell_setting           triclinic
_symmetry_space_group_name_H-M   'P 1'
_symmetry_Int_Tables_number      1
_space_group_name_Hall           'P 1'
loop_
_symmetry_equiv_pos_site_id
_symmetry_equiv_pos_as_xyz
1 x,y,z
_cell_length_a                   25.411(12)
_cell_length_b                   16.573(8)
_cell_length_c                   16.573
_cell_angle_alpha                90
_cell_angle_beta                 90
_cell_angle_gamma                90
_cell_volume                     6979.5
loop_
_atom_site_label
_atom_site_type_symbol
_atom_site_fract_x
_atom_site_fract_y
_atom_site_fract_z
Zn1 Zn 0.65108(4) 0.29096(7) -0.000000
Zn2 Zn 0.52791(4) 0.21450(8) -0.000000
C1 C 0.3806(4) 0.1078(6) -0.000000
C2 C 0.3278(4) 0.1286(7) -0.000000
H1 H 0.319110 0.183092 -0.000000
C3 C 0.2868(4) 0.0718(8) -0.000000
C6 C 0.3927(4) 0.0289(7) -0.000000
H3 H 0.427988 0.014107 -0.000000
C7 C 0.4241(5) 0.1686(7) -0.000000
C8 C 0.2319(4) 0.0968(8) -0.000000
O1 O 0.4688(3) 0.1440(5) -0.000000
O2 O 0.4116(4) 0.2429(7) -0.000000
O3 O 0.2230(3) 0.1734(5) -0.000000
O4 O 0.1967(3) 0.0461(6) -0.000000
C47 C 0.6994(4) 0.0087(7) -0.000000
H23 H 0.725659 0.047890 -0.000000
C48 C 0.6457(4) 0.0327(7) -0.000000
C52 C 0.6295(4) 0.1201(7) -0.000000
O19 O 0.6640(3) 0.1725(4) -0.000000
O20 O 0.5830(3) 0.1343(5) -0.000000
Zn7 Zn 0.34892(4) 0.70904(7) -0.000000
Zn8 Zn 0.15108(4) 0.20904(7) -0.000000
Zn12 Zn 0.47209(4) 0.78550(8) -0.000000
O21 O 0.7230(3) 0.3266(5) -0.000000
O25 O 0.5331(3) 0.2790(5) 0.0935(4)
O28 O 0.6164(2) 0.3226(4) 0.0986(3)
Zn1_2 Zn 0.65108(4) 0.29096(7) 1.000000
Zn2_2 Zn 0.52791(4) 0.21450(8) 1.000000
C1_2 C 0.3806(4) 0.1078(6) 1.000000
C2_2 C 0.3278(4) 0.1286(7) 1.000000
H1_2 H 0.319110 0.183092 1.000000
C3_2 C 0.2868(4) 0.0718(8) 1.000000
C6_2 C 0.3927(4) 0.0289(7) 1.000000
H3_2 H 0.427988 0.014107 1.000000
C7_2 C 0.4241(5) 0.1686(7) 1.000000
C8_2 C 0.2319(4) 0.0968(8) 1.000000
C10 C 0.5717(4) 0.3140(6) 0.8746(6)
C11 C 0.5592(4) 0.3553(7) 0.7940(6)
C12 C 0.5064(5) 0.3557(8) 0.7672(8)
H4 H 0.480128 0.331723 0.798091
C13 C 0.4942(5) 0.3922(7) 0.6949(7)
H5 H 0.459632 0.391143 0.676724
C14 C 0.5311(4) 0.4294(7) 0.6497(6)
C15 C 0.5789(6) 0.4247(8) 0.6747(7)
H6 H 0.604551 0.445227 0.640409
C16 C 0.5968(4) 0.3916(6) 0.7487(7)
H7 H 0.631805 0.394551 0.764972
C17 C 0.5156(4) 0.4664(6) 0.5732(6)
C18 C 0.5326(6) 0.4364(9) 0.500000
H8 H 0.556510 0.393978 0.500000
O1_2 O 0.4688(3) 0.1440(5) 1.000000
O2_2 O 0.4116(4) 0.2429(7) 1.000000
O3_2 O 0.2230(3) 0.1734(5) 1.000000
O4_2 O 0.1967(3) 0.0461(6) 1.000000
O7 O 0.5331(3) 0.2790(5) 0.9065(4)
O8 O 0.6164(2) 0.3226(4) 0.9014(3)
C19 C 0.4283(4) 0.6860(6) 0.8746(6)
C20 C 0.4408(4) 0.6447(7) 0.7940(6)
C21 C 0.4936(5) 0.6443(8) 0.7672(8)
H9 H 0.519872 0.668277 0.798091
C22 C 0.5058(5) 0.6078(7) 0.6949(7)
H10 H 0.540368 0.608857 0.676724
C23 C 0.4689(4) 0.5706(7) 0.6497(6)
C24 C 0.4211(6) 0.5753(8) 0.6747(7)
H11 H 0.395449 0.554773 0.640409
C25 C 0.4032(4) 0.6084(6) 0.7487(7)
H12 H 0.368195 0.605449 0.764972
C26 C 0.4844(4) 0.5336(6) 0.5732(6)
C27 C 0.4674(6) 0.5636(9) 0.500000
H13 H 0.443490 0.606022 0.500000
O9 O 0.4669(3) 0.7210(5) 0.9065(4)
O10 O 0.3836(2) 0.6774(4) 0.9014(3)
C28 C 0.4283(4) 0.6860(6) 0.1254(6)
C29 C 0.4408(4) 0.6447(7) 0.2060(6)
C30 C 0.4936(5) 0.6443(8) 0.2328(8)
H14 H 0.519872 0.668277 0.201909
C31 C 0.5058(5) 0.6078(7) 0.3051(7)
H15 H 0.540368 0.608857 0.323276
C32 C 0.4689(4) 0.5706(7) 0.3503(6)
C33 C 0.4211(6) 0.5753(8) 0.3253(7)
H16 H 0.395449 0.554773 0.359591
C34 C 0.4032(4) 0.6084(6) 0.2513(7)
H17 H 0.368195 0.605449 0.235028
C35 C 0.4844(4) 0.5336(6) 0.4268(6)
O11 O 0.4669(3) 0.7210(5) 0.0935(4)
O12 O 0.3836(2) 0.6774(4) 0.0986(3)
C36 C 0.5717(4) 0.3140(6) 0.1254(6)
C37 C 0.5592(4) 0.3553(7) 0.2060(6)
C38 C 0.5064(5) 0.3557(8) 0.2328(8)
H18 H 0.480128 0.331723 0.201909
C39 C 0.4942(5) 0.3922(7) 0.3051(7)
H19 H 0.459632 0.391143 0.323276
C40 C 0.5311(4) 0.4294(7) 0.3503(6)
C41 C 0.5789(6) 0.4247(8) 0.3253(7)
H20 H 0.604551 0.445227 0.359591
C42 C 0.5968(4) 0.3916(6) 0.2513(7)
H21 H 0.631805 0.394551 0.235028
C43 C 0.5156(4) 0.4664(6) 0.4268(6)
C47_2 C 0.6994(4) 0.0087(7) 1.000000
H23_2 H 0.725659 0.047890 1.000000
C48_2 C 0.6457(4) 0.0327(7) 1.000000
C52_2 C 0.6295(4) 0.1201(7) 1.000000
O19_2 O 0.6640(3) 0.1725(4) 1.000000
O20_2 O 0.5830(3) 0.1343(5) 1.000000
Zn7_2 Zn 0.34892(4) 0.70904(7) 1.000000
Zn8_2 Zn 0.15108(4) 0.20904(7) 1.000000
Zn12_2 Zn 0.47209(4) 0.78550(8) 1.000000
O21_2 O 0.7230(3) 0.3266(5) 1.000000
C4 C 0.3006(4) 0.9913(7) -0.000000
H2 H 0.274341 0.952110 -0.000000
C5 C 0.3543(4) 0.9673(7) -0.000000
C9 C 0.3705(4) 0.8799(7) -0.000000
O5 O 0.3360(3) 0.8275(4) -0.000000
O6 O 0.4170(3) 0.8657(5) -0.000000
C44 C 0.6194(4) 0.8922(6) -0.000000
C45 C 0.6722(4) 0.8714(7) -0.000000
H22 H 0.680890 0.816908 -0.000000
C46 C 0.7132(4) 0.9282(8) -0.000000
C49 C 0.6073(4) 0.9711(7) -0.000000
H24 H 0.572012 0.985893 -0.000000
C50 C 0.5759(5) 0.8314(7) -0.000000
C51 C 0.7681(4) 0.9032(8) -0.000000
O15 O 0.5312(3) 0.8560(5) -0.000000
O16 O 0.5884(4) 0.7571(7) -0.000000
O17 O 0.7770(3) 0.8266(5) -0.000000
O18 O 0.8033(3) 0.9539(6) -0.000000
Zn9 Zn 0.84892(4) 0.79096(7) -0.000000
O22 O 0.2770(3) 0.6734(5) -0.000000
C4_2 C 0.3006(4) 0.9913(7) 1.000000
H2_2 H 0.274341 0.952110 1.000000
C5_2 C 0.3543(4) 0.9673(7) 1.000000
C9_2 C 0.3705(4) 0.8799(7) 1.000000
O5_2 O 0.3360(3) 0.8275(4) 1.000000
O6_2 O 0.4170(3) 0.8657(5) 1.000000
C44_2 C 0.6194(4) 0.8922(6) 1.000000
C45_2 C 0.6722(4) 0.8714(7) 1.000000
H22_2 H 0.680890 0.816908 1.000000
C46_2 C 0.7132(4) 0.9282(8) 1.000000
C49_2 C 0.6073(4) 0.9711(7) 1.000000
H24_2 H 0.572012 0.985893 1.000000
C50_2 C 0.5759(5) 0.8314(7) 1.000000
C51_2 C 0.7681(4) 0.9032(8) 1.000000
O15_2 O 0.5312(3) 0.8560(5) 1.000000
O16_2 O 0.5884(4) 0.7571(7) 1.000000
O17_2 O 0.7770(3) 0.8266(5) 1.000000
O18_2 O 0.8033(3) 0.9539(6) 1.000000
Zn9_2 Zn 0.84892(4) 0.79096(7) 1.000000
O22_2 O 0.2770(3) 0.6734(5) 1.000000
Zn10 Zn 0.02791(4) 0.28550(8) 0.000000
C10_2 C 0.0717(4) 0.1860(6) 0.1254(6)
C11_2 C 0.0592(4) 0.1447(7) 0.2060(6)
C12_2 C 0.0064(5) 0.1443(8) 0.2328(8)
C14_2 C 0.0311(4) 0.0706(7) 0.3503(6)
C15_2 C 0.0789(6) 0.0753(8) 0.3253(7)
H6_2 H 0.104551 0.054773 0.359591
C16_2 C 0.0968(4) 0.1084(6) 0.2513(7)
H7_2 H 0.131805 0.105449 0.235028
C17_2 C 0.0156(4) 0.0336(6) 0.4268(6)
C18_2 C 0.0326(6) 0.0636(9) 0.500000
H8_2 H 0.056510 0.106022 0.500000
O7_2 O 0.0331(3) 0.2210(5) 0.0935(4)
O8_2 O 0.1164(2) 0.1774(4) 0.0986(3)
C36_2 C 0.0717(4) 0.1860(6) 0.8746(6)
C37_2 C 0.0592(4) 0.1447(7) 0.7940(6)
C38_2 C 0.0064(5) 0.1443(8) 0.7672(8)
C40_2 C 0.0311(4) 0.0706(7) 0.6497(6)
C41_2 C 0.0789(6) 0.0753(8) 0.6747(7)
H20_2 H 0.104551 0.054773 0.640409
C42_2 C 0.0968(4) 0.1084(6) 0.7487(7)
H21_2 H 0.131805 0.105449 0.764972
C43_2 C 0.0156(4) 0.0336(6) 0.5732(6)
O13 O 0.0331(3) 0.2210(5) 0.9065(4)
O14 O 0.1164(2) 0.1774(4) 0.9014(3)
C44_3 C 0.1194(4) 0.6078(6) 0.000000
C45_3 C 0.1722(4) 0.6286(7) 0.000000
H22_3 H 0.180890 0.683092 0.000000
C46_3 C 0.2132(4) 0.5718(8) 0.000000
C47_3 C 0.1994(4) 0.4913(7) 0.000000
H23_3 H 0.225659 0.452110 0.000000
C48_3 C 0.1457(4) 0.4673(7) 0.000000
C49_3 C 0.1073(4) 0.5289(7) 0.000000
H24_3 H 0.072012 0.514107 0.000000
C50_3 C 0.0759(5) 0.6686(7) 0.000000
C51_3 C 0.2681(4) 0.5968(8) 0.000000
C52_3 C 0.1295(4) 0.3799(7) 0.000000
O15_3 O 0.0312(3) 0.6440(5) 0.000000
O16_3 O 0.0884(4) 0.7429(7) 0.000000
O18_3 O 0.3033(3) 0.5461(6) 0.000000
O19_3 O 0.1640(3) 0.3275(4) 0.000000
O20_3 O 0.0830(3) 0.3657(5) 0.000000
Zn10_2 Zn 0.02791(4) 0.28550(8) 1.000000
C44_4 C 0.1194(4) 0.6078(6) 1.000000
C45_4 C 0.1722(4) 0.6286(7) 1.000000
H22_4 H 0.180890 0.683092 1.000000
C46_4 C 0.2132(4) 0.5718(8) 1.000000
C47_4 C 0.1994(4) 0.4913(7) 1.000000
H23_4 H 0.225659 0.452110 1.000000
C48_4 C 0.1457(4) 0.4673(7) 1.000000
C49_4 C 0.1073(4) 0.5289(7) 1.000000
H24_4 H 0.072012 0.514107 1.000000
C50_4 C 0.0759(5) 0.6686(7) 1.000000
C51_4 C 0.2681(4) 0.5968(8) 1.000000
C52_4 C 0.1295(4) 0.3799(7) 1.000000
O15_4 O 0.0312(3) 0.6440(5) 1.000000
O16_4 O 0.0884(4) 0.7429(7) 1.000000
O18_4 O 0.3033(3) 0.5461(6) 1.000000
O19_4 O 0.1640(3) 0.3275(4) 1.000000
O20_4 O 0.0830(3) 0.3657(5) 1.000000
H9_2 H 0.019872 0.831723 0.201909
C22_2 C 0.0058(5) 0.8922(7) 0.3051(7)
H10_2 H 0.040368 0.891143 0.323276
H14_2 H 0.019872 0.831723 0.798091
C31_2 C 0.0058(5) 0.8922(7) 0.6949(7)
H15_2 H 0.040368 0.891143 0.676724
C1_3 C 0.8806(4) 0.3922(6) 0.000000
C2_3 C 0.8278(4) 0.3714(7) 0.000000
H1_3 H 0.819110 0.316908 0.000000
C3_3 C 0.7868(4) 0.4282(8) 0.000000
C4_3 C 0.8006(4) 0.5087(7) 0.000000
H2_3 H 0.774341 0.547890 0.000000
C5_3 C 0.8543(4) 0.5327(7) 0.000000
C6_3 C 0.8927(4) 0.4711(7) 0.000000
H3_3 H 0.927988 0.485893 0.000000
C7_3 C 0.9241(5) 0.3314(7) 0.000000
C8_3 C 0.7319(4) 0.4032(8) 0.000000
C9_3 C 0.8705(4) 0.6201(7) 0.000000
H4_2 H 0.980128 0.168277 0.201909
C13_2 C 0.9942(5) 0.1078(7) 0.3051(7)
H5_2 H 0.959632 0.108857 0.323276
O1_3 O 0.9688(3) 0.3560(5) 0.000000
O2_3 O 0.9116(4) 0.2571(7) 0.000000
O4_3 O 0.6967(3) 0.4539(6) 0.000000
O5_3 O 0.8360(3) 0.6725(4) 0.000000
O6_3 O 0.9170(3) 0.6343(5) 0.000000
H18_2 H 0.980128 0.168277 0.798091
C39_2 C 0.9942(5) 0.1078(7) 0.6949(7)
H19_2 H 0.959632 0.108857 0.676724
Zn4 Zn 0.97209(4) 0.71450(8) 0.000000
O23 O 0.9669(3) 0.7790(5) 0.0935(4)
O26 O 0.8836(2) 0.8226(4) 0.0986(3)
C1_4 C 0.8806(4) 0.3922(6) 1.000000
C2_4 C 0.8278(4) 0.3714(7) 1.000000
H1_4 H 0.819110 0.316908 1.000000
C3_4 C 0.7868(4) 0.4282(8) 1.000000
C4_4 C 0.8006(4) 0.5087(7) 1.000000
H2_4 H 0.774341 0.547890 1.000000
C5_4 C 0.8543(4) 0.5327(7) 1.000000
C6_4 C 0.8927(4) 0.4711(7) 1.000000
H3_4 H 0.927988 0.485893 1.000000
C7_4 C 0.9241(5) 0.3314(7) 1.000000
C8_4 C 0.7319(4) 0.4032(8) 1.000000
C9_4 C 0.8705(4) 0.6201(7) 1.000000
O1_4 O 0.9688(3) 0.3560(5) 1.000000
O2_4 O 0.9116(4) 0.2571(7) 1.000000
O4_4 O 0.6967(3) 0.4539(6) 1.000000
O5_4 O 0.8360(3) 0.6725(4) 1.000000
O6_4 O 0.9170(3) 0.6343(5) 1.000000
Zn4_2 Zn 0.97209(4) 0.71450(8) 1.000000
O24 O 0.9669(3) 0.7790(5) 0.9065(4)
O27 O 0.8836(2) 0.8226(4) 0.9014(3)
C19_2 C 0.9283(4) 0.8140(6) 0.1254(6)
C20_2 C 0.9408(4) 0.8553(7) 0.2060(6)
C21_2 C 0.9936(5) 0.8557(8) 0.2328(8)
C23_2 C 0.9689(4) 0.9294(7) 0.3503(6)
C24_2 C 0.9211(6) 0.9247(8) 0.3253(7)
H11_2 H 0.895449 0.945227 0.359591
C25_2 C 0.9032(4) 0.8916(6) 0.2513(7)
H12_2 H 0.868195 0.894551 0.235028
C26_2 C 0.9844(4) 0.9664(6) 0.4268(6)
C27_2 C 0.9674(6) 0.9364(9) 0.500000
H13_2 H 0.943490 0.893978 0.500000
C28_2 C 0.9283(4) 0.8140(6) 0.8746(6)
C29_2 C 0.9408(4) 0.8553(7) 0.7940(6)
C30_2 C 0.9936(5) 0.8557(8) 0.7672(8)
C32_2 C 0.9689(4) 0.9294(7) 0.6497(6)
C33_2 C 0.9211(6) 0.9247(8) 0.6747(7)
H16_2 H 0.895449 0.945227 0.640409
C34_2 C 0.9032(4) 0.8916(6) 0.7487(7)
H17_2 H 0.868195 0.894551 0.764972
C35_2 C 0.9844(4) 0.9664(6) 0.5732(6)
loop_
_geom_bond_atom_site_label_1
_geom_bond_atom_site_label_2
_geom_bond_site_symmetry_1
_geom_bond_site_symmetry_2
Zn2 O1 1_555 1_555
C1 C2 1_555 1_555
C2 H1 1_555 1_555
C3 C2 1_555 1_555
C6 C1 1_555 1_555
H3 C6 1_555 1_555
C7 C1 1_555 1_555
C8 C3 1_555 1_555
O1 C7 1_555 1_555
O2 C7 1_555 1_555
O3 C8 1_555 1_555
O4 C8 1_555 1_555
H23 C47 1_555 1_555
C48 C47 1_555 1_555
C52 C48 1_555 1_555
O19 Zn1 1_555 1_555
O20 Zn2 1_555 1_555
Zn8 O3 1_555 1_555
O21 Zn1 1_555 1_555
O25 Zn2 1_555 1_555
O28 Zn1 1_555 1_555
C52 O19 1_555 1_555
C52 O20 1_555 1_555
Zn1_2 O8 1_555 1_555
Zn2_2 O1_2 1_555 1_555
C1_2 C2_2 1_555 1_555
C2_2 H1_2 1_555 1_555
C3_2 C2_2 1_555 1_555
C6_2 C1_2 1_555 1_555
H3_2 C6_2 1_555 1_555
C7_2 C1_2 1_555 1_555
C8_2 C3_2 1_555 1_555
C10 C11 1_555 1_555
C11 C12 1_555 1_555
C12 H4 1_555 1_555
C13 C12 1_555 1_555
H5 C13 1_555 1_555
C14 C13 1_555 1_555
C15 C14 1_555 1_555
H6 C15 1_555 1_555
C16 C11 1_555 1_555
H7 C16 1_555 1_555
C17 C14 1_555 1_555
C18 C17 1_555 1_555
H8 C18 1_555 1_555
O1_2 C7_2 1_555 1_555
O2_2 C7_2 1_555 1_555
O3_2 C8_2 1_555 1_555
O4_2 C8_2 1_555 1_555
O7 Zn2_2 1_555 1_555
O8 C10 1_555 1_555
C19 C20 1_555 1_555
C20 C21 1_555 1_555
C21 H9 1_555 1_555
C22 C21 1_555 1_555
H10 C22 1_555 1_555
C23 C22 1_555 1_555
C24 C23 1_555 1_555
H11 C24 1_555 1_555
C25 C20 1_555 1_555
H12 C25 1_555 1_555
C26 C17 1_555 1_555
C27 C26 1_555 1_555
H13 C27 1_555 1_555
O9 C19 1_555 1_555
O10 C19 1_555 1_555
C28 C29 1_555 1_555
C29 C30 1_555 1_555
C30 H14 1_555 1_555
C31 C30 1_555 1_555
H15 C31 1_555 1_555
C32 C31 1_555 1_555
C33 C32 1_555 1_555
H16 C33 1_555 1_555
C34 C29 1_555 1_555
H17 C34 1_555 1_555
C35 C27 1_555 1_555
O11 C28 1_555 1_555
O12 C28 1_555 1_555
C36 C37 1_555 1_555
C37 C38 1_555 1_555
C38 H18 1_555 1_555
C39 C38 1_555 1_555
H19 C39 1_555 1_555
C40 C39 1_555 1_555
C41 C40 1_555 1_555
H20 C41 1_555 1_555
C42 C37 1_555 1_555
H21 C42 1_555 1_555
C43 C18 1_555 1_555
O25 C36 1_555 1_555
O28 C36 1_555 1_555
H23_2 C47_2 1_555 1_555
C48_2 C47_2 1_555 1_555
C52_2 C48_2 1_555 1_555
O19_2 Zn1_2 1_555 1_555
O20_2 Zn2_2 1_555 1_555
Zn7 O12 1_555 1_555
Zn7_2 O10 1_555 1_555
Zn8_2 O3_2 1_555 1_555
Zn12 O11 1_555 1_555
Zn12_2 O9 1_555 1_555
O21_2 Zn1_2 1_555 1_555
C10 O7 1_555 1_555
C15 C16 1_555 1_555
C23 C26 1_555 1_555
C24 C25 1_555 1_555
C32 C35 1_555 1_555
C33 C34 1_555 1_555
C35 C43 1_555 1_555
C40 C43 1_555 1_555
C41 C42 1_555 1_555
C52_2 O19_2 1_555 1_555
C52_2 O20_2 1_555 1_555
H2 C4 1_555 1_555
C5 C4 1_555 1_555
C9 C5 1_555 1_555
O5 C9 1_555 1_555
O6 C9 1_555 1_555
Zn7 O5 1_555 1_555
Zn12 O6 1_555 1_555
C44 C45 1_555 1_555
C45 H22 1_555 1_555
C46 C45 1_555 1_555
C49 C44 1_555 1_555
H24 C49 1_555 1_555
C50 C44 1_555 1_555
C51 C46 1_555 1_555
O15 Zn12 1_555 1_555
O16 C50 1_555 1_555
O17 C51 1_555 1_555
O18 C51 1_555 1_555
Zn9 O17 1_555 1_555
O22 Zn7 1_555 1_555
C50 O15 1_555 1_555
H2_2 C4_2 1_555 1_555
C5_2 C4_2 1_555 1_555
C9_2 C5_2 1_555 1_555
O5_2 C9_2 1_555 1_555
O6_2 C9_2 1_555 1_555
Zn7_2 O5_2 1_555 1_555
Zn12_2 O6_2 1_555 1_555
C44_2 C45_2 1_555 1_555
C45_2 H22_2 1_555 1_555
C46_2 C45_2 1_555 1_555
C49_2 C44_2 1_555 1_555
H24_2 C49_2 1_555 1_555
C50_2 C44_2 1_555 1_555
C51_2 C46_2 1_555 1_555
O15_2 Zn12_2 1_555 1_555
O16_2 C50_2 1_555 1_555
O17_2 C51_2 1_555 1_555
O18_2 C51_2 1_555 1_555
Zn9_2 O17_2 1_555 1_555
O22_2 Zn7_2 1_555 1_555
C50_2 O15_2 1_555 1_555
Zn8 O8_2 1_555 1_555
C10_2 C11_2 1_555 1_555
C11_2 C12_2 1_555 1_555
C15_2 C14_2 1_555 1_555
H6_2 C15_2 1_555 1_555
C16_2 C11_2 1_555 1_555
H7_2 C16_2 1_555 1_555
C17_2 C14_2 1_555 1_555
C18_2 C17_2 1_555 1_555
H8_2 C18_2 1_555 1_555
O7_2 Zn10 1_555 1_555
O8_2 C10_2 1_555 1_555
C36_2 C37_2 1_555 1_555
C37_2 C38_2 1_555 1_555
C41_2 C40_2 1_555 1_555
H20_2 C41_2 1_555 1_555
C42_2 C37_2 1_555 1_555
H21_2 C42_2 1_555 1_555
C43_2 C18_2 1_555 1_555
O13 C36_2 1_555 1_555
O14 C36_2 1_555 1_555
C44_3 C45_3 1_555 1_555
C45_3 H22_3 1_555 1_555
C46_3 C45_3 1_555 1_555
C47_3 C46_3 1_555 1_555
H23_3 C47_3 1_555 1_555
C48_3 C47_3 1_555 1_555
C49_3 C44_3 1_555 1_555
H24_3 C49_3 1_555 1_555
C50_3 C44_3 1_555 1_555
C51_3 C46_3 1_555 1_555
C52_3 C48_3 1_555 1_555
O16_3 C50_3 1_555 1_555
O22 C51_3 1_555 1_555
O18_3 C51_3 1_555 1_555
O19_3 Zn8 1_555 1_555
O20_3 Zn10 1_555 1_555
Zn8_2 O14 1_555 1_555
Zn10_2 O13 1_555 1_555
C10_2 O7_2 1_555 1_555
C15_2 C16_2 1_555 1_555
C40_2 C43_2 1_555 1_555
C41_2 C42_2 1_555 1_555
C48_3 C49_3 1_555 1_555
C50_3 O15_3 1_555 1_555
C52_3 O19_3 1_555 1_555
C52_3 O20_3 1_555 1_555
C44_4 C45_4 1_555 1_555
C45_4 H22_4 1_555 1_555
C46_4 C45_4 1_555 1_555
C47_4 C46_4 1_555 1_555
H23_4 C47_4 1_555 1_555
C48_4 C47_4 1_555 1_555
C49_4 C44_4 1_555 1_555
H24_4 C49_4 1_555 1_555
C50_4 C44_4 1_555 1_555
C51_4 C46_4 1_555 1_555
C52_4 C48_4 1_555 1_555
O16_4 C50_4 1_555 1_555
O22_2 C51_4 1_555 1_555
O18_4 C51_4 1_555 1_555
O19_4 Zn8_2 1_555 1_555
O20_4 Zn10_2 1_555 1_555
C48_4 C49_4 1_555 1_555
C50_4 O15_4 1_555 1_555
C52_4 O19_4 1_555 1_555
C52_4 O20_4 1_555 1_555
H10_2 C22_2 1_555 1_555
H15_2 C31_2 1_555 1_555
C1_3 C2_3 1_555 1_555
C2_3 H1_3 1_555 1_555
C3_3 C2_3 1_555 1_555
C4_3 C3_3 1_555 1_555
H2_3 C4_3 1_555 1_555
C5_3 C4_3 1_555 1_555
C6_3 C1_3 1_555 1_555
H3_3 C6_3 1_555 1_555
C7_3 C1_3 1_555 1_555
C8_3 C3_3 1_555 1_555
C9_3 C5_3 1_555 1_555
H5_2 C13_2 1_555 1_555
O1_3 C7_3 1_555 1_555
O2_3 C7_3 1_555 1_555
O21 C8_3 1_555 1_555
O4_3 C8_3 1_555 1_555
O5_3 C9_3 1_555 1_555
O6_3 C9_3 1_555 1_555
H19_2 C39_2 1_555 1_555
Zn9 O5_3 1_555 1_555
Zn4 O6_3 1_555 1_555
O23 Zn4 1_555 1_555
O26 Zn9 1_555 1_555
C5_3 C6_3 1_555 1_555
C1_4 C2_4 1_555 1_555
C2_4 H1_4 1_555 1_555
C3_4 C2_4 1_555 1_555
C4_4 C3_4 1_555 1_555
H2_4 C4_4 1_555 1_555
C5_4 C4_4 1_555 1_555
C6_4 C1_4 1_555 1_555
H3_4 C6_4 1_555 1_555
C7_4 C1_4 1_555 1_555
C8_4 C3_4 1_555 1_555
C9_4 C5_4 1_555 1_555
O1_4 C7_4 1_555 1_555
O2_4 C7_4 1_555 1_555
O21_2 C8_4 1_555 1_555
O4_4 C8_4 1_555 1_555
O5_4 C9_4 1_555 1_555
O6_4 C9_4 1_555 1_555
Zn9_2 O5_4 1_555 1_555
Zn4_2 O6_4 1_555 1_555
O24 Zn4_2 1_555 1_555
O27 Zn9_2 1_555 1_555
C5_4 C6_4 1_555 1_555
C19_2 C20_2 1_555 1_555
C20_2 C21_2 1_555 1_555
C24_2 C23_2 1_555 1_555
H11_2 C24_2 1_555 1_555
C25_2 C20_2 1_555 1_555
H12_2 C25_2 1_555 1_555
C27_2 C26_2 1_555 1_555
H13_2 C27_2 1_555 1_555
O23 C19_2 1_555 1_555
O26 C19_2 1_555 1_555
C28_2 C29_2 1_555 1_555
C29_2 C30_2 1_555 1_555
C33_2 C32_2 1_555 1_555
H16_2 C33_2 1_555 1_555
C34_2 C29_2 1_555 1_555
H17_2 C34_2 1_555 1_555
C35_2 C27_2 1_555 1_555
O24 C28_2 1_555 1_555
O27 C28_2 1_555 1_555
C23_2 C26_2 1_555 1_555
C24_2 C25_2 1_555 1_555
C32_2 C35_2 1_555 1_555
C33_2 C34_2 1_555 1_555

#END
