
###############################################################################
#
# This file contains modified crystal structure data generated from the
# MOF subset of the Cambridge Structural Database (CSD) v543 
# hosted by the Cambridge Crystallographic Data Centre (CCDC).
#
# This work is licensed under the Creative Commons
# Attribution-NonCommercial-ShareAlike 4.0 International License.
# To view a copy of this license, visit
# http://creativecommons.org/licenses/by-nc-sa/4.0/
# or send a letter to
# Creative Commons, PO Box 1866, Mountain View, CA 94042, USA.
#
# CIF created using the CSD Python API on 29 September 2022
# The structure has been converted into the P1 space group
# The structure has a 3D framework
# The original CSD entry OKELOH is in the monoclinic crystal system
# The framework has been calculated to contain at least 10.0% void space
# The void calculation uses a probe of radius 1.32A, grid spacing 0.4
# The framework is charged, counterions have been retained in the structure
#
###############################################################################

data_OKELOH
_chemical_formula_moiety         '(C104 H104 N8 O32 Zn2)n'
_symmetry_cell_setting           triclinic
_symmetry_space_group_name_H-M   'P 1'
_symmetry_Int_Tables_number      1
_space_group_name_Hall           'P 1'
loop_
_symmetry_equiv_pos_site_id
_symmetry_equiv_pos_as_xyz
1 x,y,z
_cell_length_a                   23.432(2)
_cell_length_b                   9.5422(8)
_cell_length_c                   18.9958(17)
_cell_angle_alpha                90
_cell_angle_beta                 125.964(2)
_cell_angle_gamma                90
_cell_volume                     3437.73
loop_
_atom_site_label
_atom_site_type_symbol
_atom_site_fract_x
_atom_site_fract_y
_atom_site_fract_z
O3 O 0.03949(10) 0.0546(2) 0.18887(14)
O4 O 0.03398(11) 0.2856(2) 0.19674(14)
C4 C 0.20485(12) 0.2320(3) 0.02628(16)
C5 C 0.16072(13) 0.2176(3) 0.05839(16)
C6 C 0.14871(14) 0.3335(3) 0.09254(19)
H2 H 0.1658 0.4208 0.0913
C7 C 0.11184(14) 0.3207(3) 0.12817(19)
H3 H 0.1040 0.3997 0.1501
C8 C 0.08644(13) 0.1921(3) 0.13177(17)
C9 C 0.04966(13) 0.1787(3) 0.17551(17)
C10 C 0.09681(15) 0.0774(3) 0.09605(19)
C11 C 0.13336(15) 0.0892(3) 0.05980(19)
H5 H 0.1397 0.0106 0.0362
O5 O 0.42802(9) 0.3559(2) 0.16352(13)
O6 O 0.36940(11) 0.5537(2) 0.10433(15)
C12 C 0.37335(13) 0.4253(3) 0.10788(17)
C13 C 0.30871(12) 0.3380(3) 0.04704(16)
C14 C 0.26403(12) 0.3188(3) 0.07138(16)
H6 H 0.2739 0.3661 0.1202
Zn4 Zn 0.5000 0.49380(4) 0.2500
Zn1 Zn 0.0000 0.00620(4) 0.7500
O1 O 0.07198(9) 0.1441(2) 0.83648(13)
C1 C 0.12665(13) 0.0747(3) 0.89212(17)
C2 C 0.19129(12) 0.1620(3) 0.95296(16)
C3 C 0.23597(12) 0.1812(3) 0.92862(16)
H1 H 0.2261 0.1339 0.8798
O7 O 0.46051(10) 0.4454(2) 0.81113(14)
O8 O 0.46602(11) 0.2144(2) 0.80326(14)
C15 C 0.29515(12) 0.2680(3) 0.97372(16)
C16 C 0.33928(13) 0.2824(3) 0.94161(16)
C17 C 0.35129(14) 0.1665(3) 0.90746(19)
H7 H 0.3342 0.0792 0.9087
C18 C 0.38816(14) 0.1793(3) 0.87183(19)
H8 H 0.3960 0.1003 0.8499
C19 C 0.41356(13) 0.3079(3) 0.86823(17)
C20 C 0.45034(13) 0.3213(3) 0.82449(17)
C21 C 0.40319(15) 0.4226(3) 0.90395(19)
H9 H 0.4211 0.5094 0.9036
C22 C 0.36664(15) 0.4108(3) 0.94020(19)
H10 H 0.3603 0.4894 0.9638
Zn2 Zn 0.5000 0.50620(4) 0.7500
H4 H 0.0789 0.9906 0.0964
Zn3 Zn -0.0000 0.99380(4) 0.2500
O2 O 0.13060(11) 0.9463(2) 0.89567(15)
O11 O 0.03949(10) 0.9454(2) 0.68887(14)
Zn1_2 Zn 1.0000 0.00620(4) 0.7500
O9 O 0.92802(9) 0.1441(2) 0.66352(13)
Zn3_2 Zn 1.0000 0.99380(4) 0.2500
O10 O 0.96051(10) 0.9454(2) 0.81113(14)
O3_2 O 0.96051(10) 0.0546(2) 0.31113(14)
O4_2 O 0.96602(11) 0.2856(2) 0.30326(14)
C1_2 C 0.87335(13) 0.0747(3) 0.60788(17)
C2_2 C 0.80871(12) 0.1620(3) 0.54704(16)
C3_2 C 0.76403(12) 0.1812(3) 0.57138(16)
H1_2 H 0.7739 0.1339 0.6202
C4_2 C 0.79515(12) 0.2320(3) 0.47372(16)
C5_2 C 0.83928(13) 0.2176(3) 0.44161(16)
C6_2 C 0.85129(14) 0.3335(3) 0.40746(19)
H2_2 H 0.8342 0.4208 0.4087
C7_2 C 0.88816(14) 0.3207(3) 0.37183(19)
H3_2 H 0.8960 0.3997 0.3499
C8_2 C 0.91356(13) 0.1921(3) 0.36823(17)
C9_2 C 0.95034(13) 0.1787(3) 0.32449(17)
C10_2 C 0.90319(15) 0.0774(3) 0.40395(19)
C11_2 C 0.86664(15) 0.0892(3) 0.44020(19)
H5_2 H 0.8603 0.0106 0.4638
O5_2 O 0.57198(9) 0.3559(2) 0.33648(13)
O6_2 O 0.63060(11) 0.5537(2) 0.39567(15)
O7_2 O 0.53949(10) 0.4454(2) 0.68887(14)
O8_2 O 0.53398(11) 0.2144(2) 0.69674(14)
C12_2 C 0.62665(13) 0.4253(3) 0.39212(17)
C13_2 C 0.69129(12) 0.3380(3) 0.45296(16)
C14_2 C 0.73597(12) 0.3188(3) 0.42862(16)
H6_2 H 0.7261 0.3661 0.3798
C15_2 C 0.70485(12) 0.2680(3) 0.52628(16)
C16_2 C 0.66072(13) 0.2824(3) 0.55839(16)
C17_2 C 0.64871(14) 0.1665(3) 0.59254(19)
H7_2 H 0.6658 0.0792 0.5913
C18_2 C 0.61184(14) 0.1793(3) 0.62817(19)
H8_2 H 0.6040 0.1003 0.6501
C19_2 C 0.58644(13) 0.3079(3) 0.63177(17)
C20_2 C 0.54966(13) 0.3213(3) 0.67551(17)
C21_2 C 0.59681(15) 0.4226(3) 0.59605(19)
H9_2 H 0.5789 0.5094 0.5964
C22_2 C 0.63336(15) 0.4108(3) 0.55980(19)
H10_2 H 0.6397 0.4894 0.5362
O2_2 O 0.86940(11) 0.9463(2) 0.60433(15)
H4_2 H 0.9211 0.9906 0.4036
O6_3 O 0.86940(11) 0.0537(2) 0.10433(15)
H9_3 H 0.9211 0.0094 0.9036
O3_3 O 0.53949(10) 0.5546(2) 0.18887(14)
O4_3 O 0.53398(11) 0.7856(2) 0.19674(14)
C4_3 C 0.70485(12) 0.7320(3) 0.02628(16)
C5_3 C 0.66072(13) 0.7176(3) 0.05839(16)
C6_3 C 0.64871(14) 0.8335(3) 0.09254(19)
H2_3 H 0.6658 0.9208 0.0913
C7_3 C 0.61184(14) 0.8207(3) 0.12817(19)
H3_3 H 0.6040 0.8997 0.1501
C8_3 C 0.58644(13) 0.6921(3) 0.13177(17)
C9_3 C 0.54966(13) 0.6787(3) 0.17551(17)
C10_3 C 0.59681(15) 0.5774(3) 0.09605(19)
H4_3 H 0.5789 0.4906 0.0964
C11_3 C 0.63336(15) 0.5892(3) 0.05980(19)
H5_3 H 0.6397 0.5106 0.0362
O5_3 O 0.92802(9) 0.8559(2) 0.16352(13)
C12_3 C 0.87335(13) 0.9253(3) 0.10788(17)
C13_3 C 0.80871(12) 0.8380(3) 0.04704(16)
C14_3 C 0.76403(12) 0.8188(3) 0.07138(16)
H6_3 H 0.7739 0.8661 0.1202
O1_2 O 0.57198(9) 0.6441(2) 0.83648(13)
O2_3 O 0.63060(11) 0.4463(2) 0.89567(15)
C1_3 C 0.62665(13) 0.5747(3) 0.89212(17)
C2_3 C 0.69129(12) 0.6620(3) 0.95296(16)
C3_3 C 0.73597(12) 0.6812(3) 0.92862(16)
H1_3 H 0.7261 0.6339 0.8798
O8_3 O 0.96602(11) 0.7144(2) 0.80326(14)
C15_3 C 0.79515(12) 0.7680(3) 0.97372(16)
C16_3 C 0.83928(13) 0.7824(3) 0.94161(16)
C17_3 C 0.85129(14) 0.6665(3) 0.90746(19)
H7_3 H 0.8342 0.5792 0.9087
C18_3 C 0.88816(14) 0.6793(3) 0.87183(19)
H8_3 H 0.8960 0.6003 0.8499
C19_3 C 0.91356(13) 0.8079(3) 0.86823(17)
C20_3 C 0.95034(13) 0.8213(3) 0.82449(17)
C21_3 C 0.90319(15) 0.9226(3) 0.90395(19)
C22_3 C 0.86664(15) 0.9108(3) 0.94020(19)
H10_3 H 0.8603 0.9894 0.9638
O9_2 O 0.42802(9) 0.6441(2) 0.66352(13)
O6_4 O 0.13060(11) 0.0537(2) 0.39567(15)
H9_4 H 0.0789 0.0094 0.5964
O2_4 O 0.36940(11) 0.4463(2) 0.60433(15)
O3_4 O 0.46051(10) 0.5546(2) 0.31113(14)
O4_4 O 0.46602(11) 0.7856(2) 0.30326(14)
C1_4 C 0.37335(13) 0.5747(3) 0.60788(17)
C2_4 C 0.30871(12) 0.6620(3) 0.54704(16)
C3_4 C 0.26403(12) 0.6812(3) 0.57138(16)
H1_4 H 0.2739 0.6339 0.6202
C4_4 C 0.29515(12) 0.7320(3) 0.47372(16)
C5_4 C 0.33928(13) 0.7176(3) 0.44161(16)
C6_4 C 0.35129(14) 0.8335(3) 0.40746(19)
H2_4 H 0.3342 0.9208 0.4087
C7_4 C 0.38816(14) 0.8207(3) 0.37183(19)
H3_4 H 0.3960 0.8997 0.3499
C8_4 C 0.41356(13) 0.6921(3) 0.36823(17)
C9_4 C 0.45034(13) 0.6787(3) 0.32449(17)
C10_4 C 0.40319(15) 0.5774(3) 0.40395(19)
H4_4 H 0.4211 0.4906 0.4036
C11_4 C 0.36664(15) 0.5892(3) 0.44020(19)
H5_4 H 0.3603 0.5106 0.4638
O5_4 O 0.07198(9) 0.8559(2) 0.33648(13)
O8_4 O 0.03398(11) 0.7144(2) 0.69674(14)
C12_4 C 0.12665(13) 0.9253(3) 0.39212(17)
C13_4 C 0.19129(12) 0.8380(3) 0.45296(16)
C14_4 C 0.23597(12) 0.8188(3) 0.42862(16)
H6_4 H 0.2261 0.8661 0.3798
C15_4 C 0.20485(12) 0.7680(3) 0.52628(16)
C16_4 C 0.16072(13) 0.7824(3) 0.55839(16)
C17_4 C 0.14871(14) 0.6665(3) 0.59254(19)
H7_4 H 0.1658 0.5792 0.5913
C18_4 C 0.11184(14) 0.6793(3) 0.62817(19)
H8_4 H 0.1040 0.6003 0.6501
C19_4 C 0.08644(13) 0.8079(3) 0.63177(17)
C20_4 C 0.04966(13) 0.8213(3) 0.67551(17)
C21_4 C 0.09681(15) 0.9226(3) 0.59605(19)
C22_4 C 0.13336(15) 0.9108(3) 0.55980(19)
H10_4 H 0.1397 0.9894 0.5362
N1 N 0.12073(14) 0.3534(3) 0.37546(17)
H11 H 0.0880 0.3056 0.3273
H12 H 0.1250 0.3123 0.4210
C23 C 0.18852(19) 0.3433(5) 0.3875(3)
H13 H 0.1851 0.3903 0.3405
H14 H 0.2000 0.2464 0.3883
H15 H 0.2247 0.3865 0.4416
C24 C 0.0962(2) 0.4975(3) 0.3675(3)
H16 H 0.0860 0.5385 0.3151
H17 H 0.1322 0.5512 0.4167
H18 H 0.0543 0.4973 0.3655
N1_2 N 0.87927(14) 0.3534(3) 0.12454(17)
H11_2 H 0.9120 0.3056 0.1727
H12_2 H 0.8750 0.3123 0.0790
C23_2 C 0.81148(19) 0.3433(5) 0.1125(3)
H13_2 H 0.8149 0.3903 0.1595
H14_2 H 0.8000 0.2464 0.1117
H15_2 H 0.7753 0.3865 0.0584
C24_2 C 0.9038(2) 0.4975(3) 0.1325(3)
H16_2 H 0.9140 0.5385 0.1849
H17_2 H 0.8678 0.5512 0.0833
H18_2 H 0.9457 0.4973 0.1345
H16_3 H 0.5860 0.0385 0.3151
H17_3 H 0.6322 0.0512 0.4167
N1_3 N 0.62073(14) 0.8534(3) 0.37546(17)
H11_3 H 0.5880 0.8056 0.3273
H12_3 H 0.6250 0.8123 0.4210
C23_3 C 0.68852(19) 0.8433(5) 0.3875(3)
H13_3 H 0.6851 0.8903 0.3405
H14_3 H 0.7000 0.7464 0.3883
H15_3 H 0.7247 0.8865 0.4416
C24_3 C 0.5962(2) 0.9975(3) 0.3675(3)
H18_3 H 0.5543 0.9973 0.3655
H16_4 H 0.4140 0.0385 0.1849
H17_4 H 0.3678 0.0512 0.0833
N1_4 N 0.37927(14) 0.8534(3) 0.12454(17)
H11_4 H 0.4120 0.8056 0.1727
H12_4 H 0.3750 0.8123 0.0790
C23_4 C 0.31148(19) 0.8433(5) 0.1125(3)
H13_4 H 0.3149 0.8903 0.1595
H14_4 H 0.3000 0.7464 0.1117
H15_4 H 0.2753 0.8865 0.0584
C24_4 C 0.4038(2) 0.9975(3) 0.1325(3)
H18_4 H 0.4457 0.9973 0.1345
N1_5 N 0.87927(14) 0.6466(3) 0.62454(17)
H11_5 H 0.9120 0.6944 0.6727
H12_5 H 0.8750 0.6877 0.5790
C23_5 C 0.81148(19) 0.6567(5) 0.6125(3)
H13_5 H 0.8149 0.6097 0.6595
H14_5 H 0.8000 0.7536 0.6117
H15_5 H 0.7753 0.6135 0.5584
C24_5 C 0.9038(2) 0.5025(3) 0.6325(3)
H16_5 H 0.9140 0.4615 0.6849
H17_5 H 0.8678 0.4488 0.5833
H18_5 H 0.9457 0.5027 0.6345
N1_6 N 0.12073(14) 0.6466(3) 0.87546(17)
H11_6 H 0.0880 0.6944 0.8273
H12_6 H 0.1250 0.6877 0.9210
C23_6 C 0.18852(19) 0.6567(5) 0.8875(3)
H13_6 H 0.1851 0.6097 0.8405
H14_6 H 0.2000 0.7536 0.8883
H15_6 H 0.2247 0.6135 0.9416
C24_6 C 0.0962(2) 0.5025(3) 0.8675(3)
H16_6 H 0.0860 0.4615 0.8151
H17_6 H 0.1322 0.4488 0.9167
H18_6 H 0.0543 0.5027 0.8655
N1_7 N 0.37927(14) 0.1466(3) 0.62454(17)
H11_7 H 0.4120 0.1944 0.6727
H12_7 H 0.3750 0.1877 0.5790
C23_7 C 0.31148(19) 0.1567(5) 0.6125(3)
H13_7 H 0.3149 0.1097 0.6595
H14_7 H 0.3000 0.2536 0.6117
H15_7 H 0.2753 0.1135 0.5584
C24_7 C 0.4038(2) 0.0025(3) 0.6325(3)
H18_7 H 0.4457 0.0027 0.6345
H16_7 H 0.4140 0.9615 0.6849
H17_7 H 0.3678 0.9488 0.5833
N1_8 N 0.62073(14) 0.1466(3) 0.87546(17)
H11_8 H 0.5880 0.1944 0.8273
H12_8 H 0.6250 0.1877 0.9210
C23_8 C 0.68852(19) 0.1567(5) 0.8875(3)
H13_8 H 0.6851 0.1097 0.8405
H14_8 H 0.7000 0.2536 0.8883
H15_8 H 0.7247 0.1135 0.9416
C24_8 C 0.5962(2) 0.0025(3) 0.8675(3)
H18_8 H 0.5543 0.0027 0.8655
H16_8 H 0.5860 0.9615 0.8151
H17_8 H 0.6322 0.9488 0.9167
loop_
_geom_bond_atom_site_label_1
_geom_bond_atom_site_label_2
_geom_bond_site_symmetry_1
_geom_bond_site_symmetry_2
O3 C9 1_555 1_555
O4 C9 1_555 1_555
C5 C4 1_555 1_555
C6 C5 1_555 1_555
H2 C6 1_555 1_555
C7 C6 1_555 1_555
H3 C7 1_555 1_555
C8 C7 1_555 1_555
C9 C8 1_555 1_555
C10 C8 1_555 1_555
C11 C5 1_555 1_555
H5 C11 1_555 1_555
O5 C12 1_555 1_555
O6 C12 1_555 1_555
C12 C13 1_555 1_555
C13 C14 1_555 1_555
C14 C4 1_555 1_555
H6 C14 1_555 1_555
Zn4 O5 1_555 1_555
C10 C11 1_555 1_555
Zn1 O1 1_555 1_555
O1 C1 1_555 1_555
C1 C2 1_555 1_555
C2 C3 1_555 1_555
C3 H1 1_555 1_555
O7 C20 1_555 1_555
O8 C20 1_555 1_555
C15 C3 1_555 1_555
C16 C15 1_555 1_555
C17 C16 1_555 1_555
H7 C17 1_555 1_555
C18 C17 1_555 1_555
H8 C18 1_555 1_555
C19 C18 1_555 1_555
C20 C19 1_555 1_555
C21 C19 1_555 1_555
H9 C21 1_555 1_555
C22 C16 1_555 1_555
H10 C22 1_555 1_555
Zn2 O7 1_555 1_555
C21 C22 1_555 1_555
O9 Zn1_2 1_555 1_555
O9 C1_2 1_555 1_555
O3_2 C9_2 1_555 1_555
O4_2 C9_2 1_555 1_555
C1_2 C2_2 1_555 1_555
C2_2 C3_2 1_555 1_555
C3_2 H1_2 1_555 1_555
C4_2 C2_2 1_555 1_555
C5_2 C4_2 1_555 1_555
C6_2 C5_2 1_555 1_555
H2_2 C6_2 1_555 1_555
C7_2 C6_2 1_555 1_555
H3_2 C7_2 1_555 1_555
C8_2 C7_2 1_555 1_555
C9_2 C8_2 1_555 1_555
C10_2 C8_2 1_555 1_555
C11_2 C5_2 1_555 1_555
H5_2 C11_2 1_555 1_555
O5_2 C12_2 1_555 1_555
O6_2 C12_2 1_555 1_555
O7_2 C20_2 1_555 1_555
O8_2 C20_2 1_555 1_555
C12_2 C13_2 1_555 1_555
C13_2 C14_2 1_555 1_555
C14_2 C4_2 1_555 1_555
H6_2 C14_2 1_555 1_555
C15_2 C3_2 1_555 1_555
C16_2 C15_2 1_555 1_555
C17_2 C16_2 1_555 1_555
H7_2 C17_2 1_555 1_555
C18_2 C17_2 1_555 1_555
H8_2 C18_2 1_555 1_555
C19_2 C18_2 1_555 1_555
C20_2 C19_2 1_555 1_555
C21_2 C19_2 1_555 1_555
H9_2 C21_2 1_555 1_555
C22_2 C16_2 1_555 1_555
H10_2 C22_2 1_555 1_555
Zn2 O7_2 1_555 1_555
Zn4 O5_2 1_555 1_555
C10_2 C11_2 1_555 1_555
C13_2 C15_2 1_555 1_555
C21_2 C22_2 1_555 1_555
O3_3 C9_3 1_555 1_555
O4_3 C9_3 1_555 1_555
C5_3 C4_3 1_555 1_555
C6_3 C5_3 1_555 1_555
H2_3 C6_3 1_555 1_555
C7_3 C6_3 1_555 1_555
H3_3 C7_3 1_555 1_555
C8_3 C7_3 1_555 1_555
C9_3 C8_3 1_555 1_555
C10_3 C8_3 1_555 1_555
H4_3 C10_3 1_555 1_555
C11_3 C5_3 1_555 1_555
H5_3 C11_3 1_555 1_555
O5_3 C12_3 1_555 1_555
C12_3 C13_3 1_555 1_555
C13_3 C14_3 1_555 1_555
C14_3 C4_3 1_555 1_555
H6_3 C14_3 1_555 1_555
Zn4 O3_3 1_555 1_555
Zn3_2 O5_3 1_555 1_555
C10_3 C11_3 1_555 1_555
Zn2 O1_2 1_555 1_555
O1_2 C1_3 1_555 1_555
O2_3 C1_3 1_555 1_555
C1_3 C2_3 1_555 1_555
C2_3 C3_3 1_555 1_555
C3_3 H1_3 1_555 1_555
O10 C20_3 1_555 1_555
O8_3 C20_3 1_555 1_555
C15_3 C3_3 1_555 1_555
C16_3 C15_3 1_555 1_555
C17_3 C16_3 1_555 1_555
H7_3 C17_3 1_555 1_555
C18_3 C17_3 1_555 1_555
H8_3 C18_3 1_555 1_555
C19_3 C18_3 1_555 1_555
C20_3 C19_3 1_555 1_555
C21_3 C19_3 1_555 1_555
C22_3 C16_3 1_555 1_555
H10_3 C22_3 1_555 1_555
O9_2 Zn2 1_555 1_555
C21_3 C22_3 1_555 1_555
O9_2 C1_4 1_555 1_555
O2_4 C1_4 1_555 1_555
O3_4 C9_4 1_555 1_555
O4_4 C9_4 1_555 1_555
C1_4 C2_4 1_555 1_555
C2_4 C3_4 1_555 1_555
C3_4 H1_4 1_555 1_555
C4_4 C2_4 1_555 1_555
C5_4 C4_4 1_555 1_555
C6_4 C5_4 1_555 1_555
H2_4 C6_4 1_555 1_555
C7_4 C6_4 1_555 1_555
H3_4 C7_4 1_555 1_555
C8_4 C7_4 1_555 1_555
C9_4 C8_4 1_555 1_555
C10_4 C8_4 1_555 1_555
H4_4 C10_4 1_555 1_555
C11_4 C5_4 1_555 1_555
H5_4 C11_4 1_555 1_555
O5_4 C12_4 1_555 1_555
O11 C20_4 1_555 1_555
O8_4 C20_4 1_555 1_555
C12_4 C13_4 1_555 1_555
C13_4 C14_4 1_555 1_555
C14_4 C4_4 1_555 1_555
H6_4 C14_4 1_555 1_555
C15_4 C3_4 1_555 1_555
C16_4 C15_4 1_555 1_555
C17_4 C16_4 1_555 1_555
H7_4 C17_4 1_555 1_555
C18_4 C17_4 1_555 1_555
H8_4 C18_4 1_555 1_555
C19_4 C18_4 1_555 1_555
C20_4 C19_4 1_555 1_555
C21_4 C19_4 1_555 1_555
C22_4 C16_4 1_555 1_555
H10_4 C22_4 1_555 1_555
Zn4 O3_4 1_555 1_555
Zn3 O5_4 1_555 1_555
C10_4 C11_4 1_555 1_555
C13_4 C15_4 1_555 1_555
C21_4 C22_4 1_555 1_555
N1 H11 1_555 1_555
H12 N1 1_555 1_555
C23 N1 1_555 1_555
H13 C23 1_555 1_555
H14 C23 1_555 1_555
H15 C23 1_555 1_555
C24 N1 1_555 1_555
H16 C24 1_555 1_555
H17 C24 1_555 1_555
H18 C24 1_555 1_555
N1_2 H11_2 1_555 1_555
H12_2 N1_2 1_555 1_555
C23_2 N1_2 1_555 1_555
H13_2 C23_2 1_555 1_555
H14_2 C23_2 1_555 1_555
H15_2 C23_2 1_555 1_555
C24_2 N1_2 1_555 1_555
H16_2 C24_2 1_555 1_555
H17_2 C24_2 1_555 1_555
H18_2 C24_2 1_555 1_555
N1_3 H11_3 1_555 1_555
H12_3 N1_3 1_555 1_555
C23_3 N1_3 1_555 1_555
H13_3 C23_3 1_555 1_555
H14_3 C23_3 1_555 1_555
H15_3 C23_3 1_555 1_555
C24_3 N1_3 1_555 1_555
H18_3 C24_3 1_555 1_555
N1_4 H11_4 1_555 1_555
H12_4 N1_4 1_555 1_555
C23_4 N1_4 1_555 1_555
H13_4 C23_4 1_555 1_555
H14_4 C23_4 1_555 1_555
H15_4 C23_4 1_555 1_555
C24_4 N1_4 1_555 1_555
H18_4 C24_4 1_555 1_555
N1_5 H11_5 1_555 1_555
H12_5 N1_5 1_555 1_555
C23_5 N1_5 1_555 1_555
H13_5 C23_5 1_555 1_555
H14_5 C23_5 1_555 1_555
H15_5 C23_5 1_555 1_555
C24_5 N1_5 1_555 1_555
H16_5 C24_5 1_555 1_555
H17_5 C24_5 1_555 1_555
H18_5 C24_5 1_555 1_555
N1_6 H11_6 1_555 1_555
H12_6 N1_6 1_555 1_555
C23_6 N1_6 1_555 1_555
H13_6 C23_6 1_555 1_555
H14_6 C23_6 1_555 1_555
H15_6 C23_6 1_555 1_555
C24_6 N1_6 1_555 1_555
H16_6 C24_6 1_555 1_555
H17_6 C24_6 1_555 1_555
H18_6 C24_6 1_555 1_555
N1_7 H11_7 1_555 1_555
H12_7 N1_7 1_555 1_555
C23_7 N1_7 1_555 1_555
H13_7 C23_7 1_555 1_555
H14_7 C23_7 1_555 1_555
H15_7 C23_7 1_555 1_555
C24_7 N1_7 1_555 1_555
H18_7 C24_7 1_555 1_555
N1_8 H11_8 1_555 1_555
H12_8 N1_8 1_555 1_555
C23_8 N1_8 1_555 1_555
H13_8 C23_8 1_555 1_555
H14_8 C23_8 1_555 1_555
H15_8 C23_8 1_555 1_555
C24_8 N1_8 1_555 1_555
H18_8 C24_8 1_555 1_555

#END
