
###############################################################################
#
# This file contains modified crystal structure data generated from the
# MOF subset of the Cambridge Structural Database (CSD) v543 
# hosted by the Cambridge Crystallographic Data Centre (CCDC).
#
# This work is licensed under the Creative Commons
# Attribution-NonCommercial-ShareAlike 4.0 International License.
# To view a copy of this license, visit
# http://creativecommons.org/licenses/by-nc-sa/4.0/
# or send a letter to
# Creative Commons, PO Box 1866, Mountain View, CA 94042, USA.
#
# CIF created using the CSD Python API on 29 September 2022
# The structure has been converted into the P1 space group
# The structure has a 3D framework
# The original CSD entry OKIJUO is in the orthorhombic crystal system
# The framework has been calculated to contain at least 10.0% void space
# The void calculation uses a probe of radius 1.32A, grid spacing 0.4
# The framework is charged, counterions have been retained in the structure
#
###############################################################################

data_OKIJUO
_chemical_formula_moiety         '(C84 H50 Ag4 B4 F16 N16 O3)n'
_symmetry_cell_setting           triclinic
_symmetry_space_group_name_H-M   'P 1'
_symmetry_Int_Tables_number      1
_space_group_name_Hall           'P 1'
loop_
_symmetry_equiv_pos_site_id
_symmetry_equiv_pos_as_xyz
1 x,y,z
_cell_length_a                   9.549(4)
_cell_length_b                   26.717(10)
_cell_length_c                   12.141(5)
_cell_angle_alpha                90
_cell_angle_beta                 90
_cell_angle_gamma                90
_cell_volume                     3097.42
loop_
_atom_site_label
_atom_site_type_symbol
_atom_site_fract_x
_atom_site_fract_y
_atom_site_fract_z
Ag1 Ag 0.21581(9) 0.00605(2) 0.7197(4)
O1 O -0.0000 0.0000 0.8339(15)
C31 C 0.0220(12) 0.1425(4) 0.3976(10)
H19 H 0.1065 0.1560 0.4215
C33 C 0.0538(13) 0.0699(4) 0.5161(11)
N7 N 0.1214(13) 0.0465(4) 0.5810(10)
N10 N 0.3641(12) 0.0453(4) 0.8261(11)
O2 O -0.0000 0.5000 0.3339(15)
H27 H 0.0284 0.5292 0.3501
C1 C 0.2561(13) 0.8831(4) 0.6938(11)
C2 C 0.2606(12) 0.8285(3) 0.6985(12)
C3 C 0.2281(14) 0.8030(5) 0.6080(13)
H1 H 0.2069 0.8200 0.5433
C4 C 0.2260(14) 0.7503(6) 0.6098(13)
H2 H 0.2010 0.7321 0.5476
C5 C 0.2625(10) 0.7263(3) 0.7078(15)
C6 C 0.2941(15) 0.7525(5) 0.7999(13)
H3 H 0.3121 0.7357 0.8656
C7 C 0.2995(15) 0.8039(5) 0.7961(12)
H4 H 0.3285 0.8221 0.8573
C8 C 0.1841(11) 0.6466(4) 0.7853(9)
C9 C 0.0573(11) 0.6666(4) 0.8225(10)
H5 H 0.0269 0.6971 0.7948
C11 C 0.0292(11) 0.5939(5) 0.9411(10)
C13 C 0.1554(11) 0.5765(4) 0.9096(10)
H7 H 0.1927 0.5478 0.9415
C14 C 0.2268(11) 0.6016(5) 0.8309(11)
H8 H 0.3101 0.5877 0.8057
C15 C 0.3420(10) 0.6470(3) 0.6246(9)
C16 C 0.4673(12) 0.6633(4) 0.5934(12)
H9 H 0.5053 0.6918 0.6256
C17 C 0.5420(12) 0.6376(4) 0.5120(13)
H10 H 0.6284 0.6498 0.4889
C18 C 0.4906(11) 0.5957(4) 0.4670(11)
C19 C 0.5704(13) 0.5666(4) 0.3831(11)
C20 C 0.3560(12) 0.5775(4) 0.5022(11)
H11 H 0.3175 0.5488 0.4712
C21 C 0.2863(10) 0.6033(4) 0.5819(10)
H12 H 0.2009 0.5914 0.6079
N1 N 0.2581(12) 0.9245(3) 0.6912(10)
N2 N 0.2667(9) 0.6726(2) 0.7044(10)
N4 N 0.6359(12) 0.5453(4) 0.3261(11)
O1_2 O -0.0000 1.0000 0.8339(15)
Ag4 Ag 0.78419(9) 0.50605(2) 0.2197(4)
H26 H 0.0284 0.9708 0.8501
O1_3 O 1.0000 0.0000 0.8339(15)
H13 H 0.9716 0.0292 0.8501
C22 C 0.7439(13) 0.3831(4) 0.1938(11)
C23 C 0.7394(12) 0.3285(3) 0.1985(12)
C24 C 0.7719(14) 0.3030(5) 0.1080(13)
H14 H 0.7931 0.3200 0.0433
C25 C 0.7740(14) 0.2503(6) 0.1098(13)
H15 H 0.7990 0.2321 0.0476
C26 C 0.7375(10) 0.2263(3) 0.2078(15)
C27 C 0.7059(15) 0.2525(5) 0.2999(13)
H16 H 0.6879 0.2357 0.3656
C28 C 0.7005(15) 0.3039(5) 0.2961(12)
H17 H 0.6715 0.3221 0.3573
C29 C 0.8159(11) 0.1466(4) 0.2853(9)
C30 C 0.9427(11) 0.1666(4) 0.3225(10)
H18 H 0.9731 0.1971 0.2948
C32 C 0.9708(11) 0.0939(5) 0.4411(10)
C34 C 0.8446(11) 0.0765(4) 0.4096(10)
H20 H 0.8073 0.0478 0.4415
C35 C 0.7732(11) 0.1016(5) 0.3309(11)
H21 H 0.6899 0.0877 0.3057
C36 C 0.6580(10) 0.1470(3) 0.1246(9)
C37 C 0.5327(12) 0.1633(4) 0.0934(12)
H22 H 0.4947 0.1918 0.1256
C38 C 0.4580(12) 0.1376(4) 0.0120(13)
C41 C 0.6440(12) 0.0775(4) 0.0022(11)
C42 C 0.7137(10) 0.1033(4) 0.0819(10)
H25 H 0.7991 0.0914 0.1079
N5 N 0.7419(12) 0.4245(3) 0.1912(10)
N6 N 0.7333(9) 0.1726(2) 0.2044(10)
N8 N 0.8786(13) 0.5465(4) 0.0810(10)
O2_2 O 1.0000 0.5000 0.3339(15)
H28 H 0.9716 0.4708 0.3501
H23 H 0.3716 0.1498 0.9889
C39 C 0.5094(11) 0.0957(4) 0.9670(11)
C40 C 0.4296(13) 0.0666(4) 0.8831(11)
H24 H 0.6825 0.0488 0.9712
C12 C 0.9462(13) 0.5699(4) 0.0161(11)
C10 C 0.9780(12) 0.6425(4) 0.8976(10)
H6 H 0.8935 0.6560 0.9215
O1_4 O 1.0000 1.0000 0.8339(15)
Ag5 Ag 0.78419(9) 0.99395(2) 0.7197(4)
C12_2 C 0.0538(13) 0.4301(4) 0.0161(11)
N3 N 0.1214(13) 0.4535(4) 0.0810(10)
Ag3 Ag 0.21581(9) 0.49395(2) 0.2197(4)
C10_2 C 0.0220(12) 0.3575(4) 0.8976(10)
H6_2 H 0.1065 0.3440 0.9215
C22_2 C 0.2561(13) 0.6169(4) 0.1938(11)
C23_2 C 0.2606(12) 0.6715(3) 0.1985(12)
C24_2 C 0.2281(14) 0.6970(5) 0.1080(13)
H14_2 H 0.2069 0.6800 0.0433
C25_2 C 0.2260(14) 0.7497(6) 0.1098(13)
H15_2 H 0.2010 0.7679 0.0476
C26_2 C 0.2625(10) 0.7737(3) 0.2078(15)
C27_2 C 0.2941(15) 0.7475(5) 0.2999(13)
H16_2 H 0.3121 0.7643 0.3656
C28_2 C 0.2995(15) 0.6961(5) 0.2961(12)
H17_2 H 0.3285 0.6779 0.3573
C29_2 C 0.1841(11) 0.8534(4) 0.2853(9)
C30_2 C 0.0573(11) 0.8334(4) 0.3225(10)
H18_2 H 0.0269 0.8029 0.2948
C32_2 C 0.0292(11) 0.9061(5) 0.4411(10)
C34_2 C 0.1554(11) 0.9235(4) 0.4096(10)
H20_2 H 0.1927 0.9522 0.4415
C35_2 C 0.2268(11) 0.8984(5) 0.3309(11)
H21_2 H 0.3101 0.9123 0.3057
C36_2 C 0.3420(10) 0.8530(3) 0.1246(9)
C37_2 C 0.4673(12) 0.8367(4) 0.0934(12)
H22_2 H 0.5053 0.8082 0.1256
C38_2 C 0.5420(12) 0.8624(4) 0.0120(13)
C41_2 C 0.3560(12) 0.9225(4) 0.0022(11)
C42_2 C 0.2863(10) 0.8967(4) 0.0819(10)
H25_2 H 0.2009 0.9086 0.1079
N5_2 N 0.2581(12) 0.5755(3) 0.1912(10)
N6_2 N 0.2667(9) 0.8274(2) 0.2044(10)
N11 N 0.3641(12) 0.4547(4) 0.3261(11)
H23_2 H 0.6284 0.8502 0.9889
C39_2 C 0.4906(11) 0.9043(4) 0.9670(11)
C40_2 C 0.5704(13) 0.9334(4) 0.8831(11)
H24_2 H 0.3175 0.9512 0.9712
N9 N 0.6359(12) 0.9547(4) 0.8261(11)
C1_2 C 0.7439(13) 0.1169(4) 0.6938(11)
C2_2 C 0.7394(12) 0.1715(3) 0.6985(12)
C3_2 C 0.7719(14) 0.1970(5) 0.6080(13)
H1_2 H 0.7931 0.1800 0.5433
C4_2 C 0.7740(14) 0.2497(6) 0.6098(13)
H2_2 H 0.7990 0.2679 0.5476
C5_2 C 0.7375(10) 0.2737(3) 0.7078(15)
C6_2 C 0.7059(15) 0.2475(5) 0.7999(13)
H3_2 H 0.6879 0.2643 0.8656
C7_2 C 0.7005(15) 0.1961(5) 0.7961(12)
H4_2 H 0.6715 0.1779 0.8573
C8_2 C 0.8159(11) 0.3534(4) 0.7853(9)
C9_2 C 0.9427(11) 0.3334(4) 0.8225(10)
H5_2 H 0.9731 0.3029 0.7948
C11_2 C 0.9708(11) 0.4061(5) 0.9411(10)
C13_2 C 0.8446(11) 0.4235(4) 0.9096(10)
H7_2 H 0.8073 0.4522 0.9415
C14_2 C 0.7732(11) 0.3984(5) 0.8309(11)
H8_2 H 0.6899 0.4123 0.8057
C15_2 C 0.6580(10) 0.3530(3) 0.6246(9)
C16_2 C 0.5327(12) 0.3367(4) 0.5934(12)
H9_2 H 0.4947 0.3082 0.6256
C17_2 C 0.4580(12) 0.3624(4) 0.5120(13)
H10_2 H 0.3716 0.3502 0.4889
C18_2 C 0.5094(11) 0.4043(4) 0.4670(11)
C19_2 C 0.4296(13) 0.4334(4) 0.3831(11)
C20_2 C 0.6440(12) 0.4225(4) 0.5022(11)
H11_2 H 0.6825 0.4512 0.4712
C21_2 C 0.7137(10) 0.3967(4) 0.5819(10)
H12_2 H 0.7991 0.4086 0.6079
N1_2 N 0.7419(12) 0.0755(3) 0.6912(10)
N2_2 N 0.7333(9) 0.3274(2) 0.7044(10)
C31_2 C 0.9780(12) 0.8575(4) 0.3976(10)
H19_2 H 0.8935 0.8440 0.4215
C33_2 C 0.9462(13) 0.9301(4) 0.5161(11)
N7_2 N 0.8786(13) 0.9535(4) 0.5810(10)
F3 F 0.084(3) 0.1054(10) 0.0424(16)
B1 B 0.0420(17) 0.1305(6) 0.9525(14)
F1 F 0.1533(14) 0.1444(7) 0.8912(14)
F2 F 0.9583(18) 0.1004(7) 0.8919(18)
F4 F 0.9686(19) 0.1714(7) 0.981(2)
F2_2 F 0.0417(18) 0.8996(7) 0.8919(18)
F4_2 F 0.0314(19) 0.8286(7) 0.981(2)
F3_2 F 0.916(3) 0.8946(10) 0.0424(16)
B1_2 B 0.9580(17) 0.8695(6) 0.9525(14)
F1_2 F 0.8467(14) 0.8556(7) 0.8912(14)
B1_3 B 0.0420(17) 0.3695(6) 0.4525(14)
F1_3 F 0.1533(14) 0.3556(7) 0.3912(14)
F3_3 F 0.084(3) 0.3946(10) 0.5424(16)
F2_3 F 0.9583(18) 0.3996(7) 0.3919(18)
F4_3 F 0.9686(19) 0.3286(7) 0.481(2)
F2_4 F 0.0417(18) 0.6004(7) 0.3919(18)
F4_4 F 0.0314(19) 0.6714(7) 0.481(2)
B1_4 B 0.9580(17) 0.6305(6) 0.4525(14)
F1_4 F 0.8467(14) 0.6444(7) 0.3912(14)
F3_4 F 0.916(3) 0.6054(10) 0.5424(16)
loop_
_geom_bond_atom_site_label_1
_geom_bond_atom_site_label_2
_geom_bond_site_symmetry_1
_geom_bond_site_symmetry_2
O1 Ag1 1_555 1_555
H19 C31 1_555 1_555
N7 Ag1 1_555 1_555
N10 Ag1 1_555 1_555
H27 O2 1_555 1_555
C33 N7 1_555 1_555
C1 C2 1_555 1_555
C2 C3 1_555 1_555
C3 H1 1_555 1_555
C4 C3 1_555 1_555
H2 C4 1_555 1_555
C5 C4 1_555 1_555
C6 C5 1_555 1_555
H3 C6 1_555 1_555
C7 C2 1_555 1_555
H4 C7 1_555 1_555
C8 C9 1_555 1_555
C9 H5 1_555 1_555
C13 C11 1_555 1_555
H7 C13 1_555 1_555
C14 C8 1_555 1_555
H8 C14 1_555 1_555
C15 C16 1_555 1_555
C16 H9 1_555 1_555
C17 C16 1_555 1_555
H10 C17 1_555 1_555
C18 C17 1_555 1_555
C19 C18 1_555 1_555
C20 C18 1_555 1_555
H11 C20 1_555 1_555
C21 C15 1_555 1_555
H12 C21 1_555 1_555
N1 C1 1_555 1_555
N2 C5 1_555 1_555
N4 C19 1_555 1_555
Ag4 N4 1_555 1_555
H26 O1_2 1_555 1_555
C6 C7 1_555 1_555
C8 N2 1_555 1_555
C13 C14 1_555 1_555
C15 N2 1_555 1_555
C20 C21 1_555 1_555
H13 O1_3 1_555 1_555
Ag4 N5 1_555 1_555
C22 C23 1_555 1_555
C23 C24 1_555 1_555
C24 H14 1_555 1_555
C25 C24 1_555 1_555
H15 C25 1_555 1_555
C26 C25 1_555 1_555
C27 C26 1_555 1_555
H16 C27 1_555 1_555
C28 C23 1_555 1_555
H17 C28 1_555 1_555
C29 C30 1_555 1_555
C30 H18 1_555 1_555
C34 C32 1_555 1_555
H20 C34 1_555 1_555
C35 C29 1_555 1_555
H21 C35 1_555 1_555
C36 C37 1_555 1_555
C37 H22 1_555 1_555
C38 C37 1_555 1_555
C42 C36 1_555 1_555
H25 C42 1_555 1_555
N5 C22 1_555 1_555
N6 C26 1_555 1_555
N8 Ag4 1_555 1_555
O2_2 Ag4 1_555 1_555
H28 O2_2 1_555 1_555
C27 C28 1_555 1_555
C29 N6 1_555 1_555
C34 C35 1_555 1_555
C36 N6 1_555 1_555
C41 C42 1_555 1_555
C40 C39 1_555 1_555
N10 C40 1_555 1_555
N8 C12 1_555 1_555
H6 C10 1_555 1_555
Ag5 O1_4 1_555 1_555
N3 C12_2 1_555 1_555
Ag3 N3 1_555 1_555
H6_2 C10_2 1_555 1_555
Ag3 N5_2 1_555 1_555
C22_2 C23_2 1_555 1_555
C23_2 C24_2 1_555 1_555
C24_2 H14_2 1_555 1_555
C25_2 C24_2 1_555 1_555
H15_2 C25_2 1_555 1_555
C26_2 C25_2 1_555 1_555
C27_2 C26_2 1_555 1_555
H16_2 C27_2 1_555 1_555
C28_2 C23_2 1_555 1_555
H17_2 C28_2 1_555 1_555
C29_2 C30_2 1_555 1_555
C30_2 H18_2 1_555 1_555
C34_2 C32_2 1_555 1_555
H20_2 C34_2 1_555 1_555
C35_2 C29_2 1_555 1_555
H21_2 C35_2 1_555 1_555
C36_2 C37_2 1_555 1_555
C37_2 H22_2 1_555 1_555
C38_2 C37_2 1_555 1_555
C42_2 C36_2 1_555 1_555
H25_2 C42_2 1_555 1_555
N5_2 C22_2 1_555 1_555
N6_2 C26_2 1_555 1_555
N11 Ag3 1_555 1_555
O2 Ag3 1_555 1_555
C27_2 C28_2 1_555 1_555
C29_2 N6_2 1_555 1_555
C34_2 C35_2 1_555 1_555
C36_2 N6_2 1_555 1_555
C41_2 C42_2 1_555 1_555
Ag5 N9 1_555 1_555
C40_2 C39_2 1_555 1_555
N9 C40_2 1_555 1_555
C1_2 C2_2 1_555 1_555
C2_2 C3_2 1_555 1_555
C3_2 H1_2 1_555 1_555
C4_2 C3_2 1_555 1_555
H2_2 C4_2 1_555 1_555
C5_2 C4_2 1_555 1_555
C6_2 C5_2 1_555 1_555
H3_2 C6_2 1_555 1_555
C7_2 C2_2 1_555 1_555
H4_2 C7_2 1_555 1_555
C8_2 C9_2 1_555 1_555
C9_2 H5_2 1_555 1_555
C13_2 C11_2 1_555 1_555
H7_2 C13_2 1_555 1_555
C14_2 C8_2 1_555 1_555
H8_2 C14_2 1_555 1_555
C15_2 C16_2 1_555 1_555
C16_2 H9_2 1_555 1_555
C17_2 C16_2 1_555 1_555
H10_2 C17_2 1_555 1_555
C18_2 C17_2 1_555 1_555
C19_2 C18_2 1_555 1_555
C20_2 C18_2 1_555 1_555
H11_2 C20_2 1_555 1_555
C21_2 C15_2 1_555 1_555
H12_2 C21_2 1_555 1_555
N1_2 C1_2 1_555 1_555
N2_2 C5_2 1_555 1_555
N11 C19_2 1_555 1_555
C6_2 C7_2 1_555 1_555
C8_2 N2_2 1_555 1_555
C13_2 C14_2 1_555 1_555
C15_2 N2_2 1_555 1_555
C20_2 C21_2 1_555 1_555
H19_2 C31_2 1_555 1_555
N7_2 Ag5 1_555 1_555
C33_2 N7_2 1_555 1_555
B1 F1 1_555 1_555
B1_2 F1_2 1_555 1_555
B1_3 F1_3 1_555 1_555
F3_3 B1_3 1_555 1_555
B1_4 F1_4 1_555 1_555
F3_4 B1_4 1_555 1_555

#END
