
###############################################################################
#
# This file contains modified crystal structure data generated from the
# MOF subset of the Cambridge Structural Database (CSD) v543 
# hosted by the Cambridge Crystallographic Data Centre (CCDC).
#
# This work is licensed under the Creative Commons
# Attribution-NonCommercial-ShareAlike 4.0 International License.
# To view a copy of this license, visit
# http://creativecommons.org/licenses/by-nc-sa/4.0/
# or send a letter to
# Creative Commons, PO Box 1866, Mountain View, CA 94042, USA.
#
# CIF created using the CSD Python API on 29 September 2022
# The structure has been converted into the P1 space group
# The structure has a 3D framework
# The original CSD entry OKIKOJ is in the monoclinic crystal system
# The framework has been calculated to contain at least 10.0% void space
# The void calculation uses a probe of radius 1.32A, grid spacing 0.4
#
###############################################################################

data_OKIKOJ
_chemical_formula_moiety         '(C196 H96 Ag16 F48 N30 O36 S4)n'
_symmetry_cell_setting           triclinic
_symmetry_space_group_name_H-M   'P 1'
_symmetry_Int_Tables_number      1
_space_group_name_Hall           'P 1'
loop_
_symmetry_equiv_pos_site_id
_symmetry_equiv_pos_as_xyz
1 x,y,z
_cell_length_a                   10.5230(5)
_cell_length_b                   11.5968(6)
_cell_length_c                   50.242(3)
_cell_angle_alpha                90
_cell_angle_beta                 95.6970(10)
_cell_angle_gamma                90
_cell_volume                     6100.9
loop_
_atom_site_label
_atom_site_type_symbol
_atom_site_fract_x
_atom_site_fract_y
_atom_site_fract_z
Ag5 Ag 0.12501(10) 0.00536(11) 0.10456(2)
C1 C 0.4059(12) 0.0976(11) 0.0936(2)
C2 C 0.4873(11) 0.1702(11) 0.0792(2)
C3 C 0.6006(11) 0.2172(11) 0.0911(3)
H1 H 0.6276 0.2013 0.1090
C4 C 0.6715(11) 0.2867(10) 0.0765(2)
H2 H 0.7485 0.3160 0.0844
C5 C 0.6319(11) 0.3147(10) 0.0503(2)
C6 C 0.5203(11) 0.2620(11) 0.0377(2)
H3 H 0.4957 0.2750 0.0197
C7 C 0.4491(11) 0.1918(10) 0.0523(3)
H4 H 0.3748 0.1583 0.0442
C8 C 0.7687(11) 0.4864(10) 0.0472(2)
C9 C 0.7224(12) 0.5452(11) 0.0685(3)
H5 H 0.6463 0.5223 0.0749
C10 C 0.7896(12) 0.6366(10) 0.0801(3)
H6 H 0.7602 0.6741 0.0946
C11 C 0.8982(12) 0.6728(10) 0.0704(3)
C12 C 0.9676(14) 0.7703(13) 0.0818(3)
C13 C 0.9453(15) 0.6149(12) 0.0495(3)
C14 C 0.8797(13) 0.5215(12) 0.0376(3)
H8 H 0.9108 0.4833 0.0233
C15 C 0.6999(11) 0.3764(11) 0.0075(2)
H12 H 0.7407 0.2074 0.0081
C42 C 0.0409(15) 0.1285(15) 0.0429(3)
C43 C 0.083(2) 0.165(3) 0.0167(4)
F1 F 0.1831(15) 0.133(3) 0.0111(3)
F2 F 0.099(4) 0.277(2) 0.0172(4)
N1 N 0.3394(11) 0.0464(11) 0.1051(2)
N2 N 0.7021(10) 0.3890(9) 0.0353(2)
O1 O 0.1263(11) 0.0954(14) 0.0593(2)
O3 O 0.0606(9) 0.1091(10) 0.13980(19)
H7 H 0.0215 0.6387 0.0434
N3 N 0.0215(13) 0.8489(12) 0.0905(3)
C23 C 0.0095(13) 0.3147(13) 0.7061(3)
H13 H 0.0824 0.3457 0.7154
N8 N 0.0934(11) 0.5019(10) 0.6563(2)
C49 C 0.0403(12) 0.4399(13) 0.6671(3)
Ag8 Ag 0.22595(10) 0.60366(9) 0.63299(2)
Ag4 Ag 0.56979(11) 0.17727(10) 0.87993(2)
C16 C 0.6736(15) 0.4687(12) 0.9903(3)
H9 H 0.6558 0.5410 0.9971
C17 C 0.6741(14) 0.4526(12) 0.9634(3)
H10 H 0.6556 0.5154 0.9522
C18 C 0.6998(12) 0.3511(13) 0.9522(2)
C19 C 0.7273(14) 0.2548(13) 0.9694(3)
H11 H 0.7463 0.1831 0.9625
C20 C 0.7250(12) 0.2702(11) 0.9968(2)
C21 C 0.7064(15) 0.3359(14) 0.9243(3)
C22 C 0.9671(11) 0.3539(11) 0.6804(3)
C24 C 0.9418(14) 0.2303(13) 0.7172(3)
H14 H 0.9717 0.2018 0.7339
C25 C 0.8312(12) 0.1859(11) 0.7044(2)
C26 C 0.7865(11) 0.2286(10) 0.6790(2)
H15 H 0.7104 0.2012 0.6703
C27 C 0.8565(11) 0.3116(11) 0.6671(2)
H16 H 0.8287 0.3388 0.6501
C28 C 0.6892(12) 0.0138(10) 0.7018(2)
C34 C 0.7552(12) 0.1064(11) 0.7445(2)
C35 C 0.8010(16) 0.0211(13) 0.7615(3)
C36 C 0.680(2) 0.2059(14) 0.7823(3)
H22 H 0.6363 0.2669 0.7892
C37 C 0.697(2) 0.1990(13) 0.7550(3)
H23 H 0.6678 0.2590 0.7437
C39 C 0.7163(17) 0.1232(13) 0.8268(3)
C40 C 0.7319(14) 0.1172(12) 0.7987(3)
C41 C 0.7891(17) 0.0240(13) 0.7884(3)
C48 C 0.387(3) 0.505(2) 0.8516(5)
F3 F 0.0039(13) 0.145(2) 0.9957(2)
F10 F 0.295(2) 0.5347(17) 0.8622(5)
F11 F 0.481(4) 0.5282(16) 0.8723(6)
F12 F 0.424(2) 0.5733(18) 0.8345(5)
N4 N 0.7121(14) 0.3264(14) 0.9021(3)
N5 N 0.7633(11) 0.1009(9) 0.7167(2)
N7 N 0.7020(17) 0.1275(12) 0.8488(3)
O7 O 0.3813(15) 0.3033(11) 0.8660(3)
O8 O 0.5144(16) 0.3472(17) 0.8341(5)
O9 O 0.281(2) 0.381(5) 0.8220(5)
S1 S 0.3968(7) 0.3654(6) 0.84182(16)
Ag6 Ag 0.27405(10) 0.10366(9) 0.86701(2)
O11 O 0.4911(10) 0.1562(10) 0.9214(2)
C29 C 0.5802(13) 0.9710(13) 0.7115(3)
H17 H 0.5550 0.9987 0.7275
C30 C 0.5094(13) 0.8881(15) 0.6975(3)
H18 H 0.4345 0.8612 0.7038
C31 C 0.5487(12) 0.8450(11) 0.6746(3)
C32 C 0.6554(12) 0.8865(11) 0.6648(3)
H19 H 0.6788 0.8590 0.6486
C33 C 0.7289(11) 0.9688(11) 0.6786(2)
H20 H 0.8045 0.9940 0.6724
H21 H 0.8419 0.9584 0.7545
C38 C 0.4693(14) 0.7571(14) 0.6593(3)
H24 H 0.8195 0.9636 0.7995
N6 N 0.4088(13) 0.6890(13) 0.6496(3)
O10 O 0.1974(8) 0.5742(8) 0.58686(16)
O12 O 0.1187(15) 0.8033(11) 0.6340(3)
C46 C 0.6053(13) 0.8851(12) 0.0725(2)
C47 C 0.6127(17) 0.8976(18) 0.0421(3)
F7 F 0.6239(17) 0.7990(13) 0.0310(2)
F8 F 0.5063(16) 0.9339(13) 0.0291(2)
F9 F 0.6928(19) 0.967(2) 0.0353(2)
O5 O 0.6974(8) 0.9258(8) 0.08686(16)
O6 O 0.5089(10) 0.8438(10) 0.0786(2)
Ag7 Ag 0.72595(10) 0.89634(9) 0.13299(2)
Ag10 Ag 0.43021(11) 0.82273(10) 0.12007(2)
Ag1 Ag 0.37499(10) 0.50536(11) 0.39544(2)
Ag2 Ag 0.64164(11) 0.57147(12) 0.41848(2)
C1_2 C 0.0941(12) 0.5976(11) 0.4064(2)
C2_2 C 0.0127(11) 0.6702(11) 0.4208(2)
H3_2 H 0.0043 0.7750 0.4803
C7_2 C 0.0509(11) 0.6918(10) 0.4477(3)
H4_2 H 0.1252 0.6583 0.4558
H18_2 H 0.0655 0.3612 0.7962
C38_2 C 0.0307(14) 0.2571(14) 0.8407(3)
C42_2 C 0.4591(15) 0.6285(15) 0.4571(3)
C43_2 C 0.417(2) 0.665(3) 0.4833(4)
C44 C 0.5535(13) 0.6261(13) 0.3582(3)
C45 C 0.5869(15) 0.6757(18) 0.3327(3)
C46_2 C 0.8947(13) 0.3851(12) 0.4275(2)
C47_2 C 0.8873(17) 0.3976(18) 0.4579(3)
F1_2 F 0.3169(15) 0.633(3) 0.4889(3)
F2_2 F 0.401(4) 0.777(2) 0.4828(4)
F3_2 F 0.4961(13) 0.645(2) 0.5043(2)
F4 F 0.6954(13) 0.7066(18) 0.3308(3)
F5 F 0.581(3) 0.605(2) 0.3148(3)
F6 F 0.5152(16) 0.747(3) 0.3215(4)
F7_2 F 0.8761(17) 0.2990(13) 0.4690(2)
F8_2 F 0.9937(16) 0.4339(13) 0.4709(2)
F9_2 F 0.8072(19) 0.467(2) 0.4647(2)
N1_2 N 0.1606(11) 0.5464(11) 0.3949(2)
N6_2 N 0.0912(13) 0.1890(13) 0.8504(3)
O1_2 O 0.3737(11) 0.5954(14) 0.4407(2)
O2 O 0.5723(11) 0.6366(11) 0.4555(2)
O3_2 O 0.4394(9) 0.6091(10) 0.36020(19)
O4 O 0.6462(8) 0.6028(8) 0.37438(17)
O5_2 O 0.8026(8) 0.4258(8) 0.41314(16)
O6_2 O 0.9911(10) 0.3438(10) 0.4214(2)
O9_2 O 0.219(2) 0.881(5) 0.6780(5)
S1_2 S 0.1032(7) 0.8654(6) 0.65818(16)
Ag7_2 Ag 0.77405(10) 0.39634(9) 0.36701(2)
N9 N 0.4785(13) 0.3489(12) 0.4095(3)
O10_2 O 0.3026(8) 0.0742(8) 0.91314(16)
O11_2 O 0.0089(10) 0.6562(10) 0.5786(2)
N10 N 0.4066(11) 0.0019(10) 0.8437(2)
C9_2 C 0.7776(12) 0.0452(11) 0.4315(3)
H5_2 H 0.8537 0.0223 0.4251
C10_2 C 0.7104(12) 0.1366(10) 0.4199(3)
H6_2 H 0.7398 0.1741 0.4054
C11_2 C 0.6018(12) 0.1728(10) 0.4296(3)
C12_2 C 0.5324(14) 0.2703(13) 0.4182(3)
C13_2 C 0.5547(15) 0.1149(12) 0.4505(3)
H7_2 H 0.4785 0.1387 0.4566
C14_2 C 0.6203(13) 0.0215(12) 0.4624(3)
H9_2 H 0.8442 0.0410 0.5029
H10_2 H 0.8444 0.0154 0.5478
C46_3 C 0.3947(13) 0.1149(12) 0.9275(2)
C47_3 C 0.3873(17) 0.1024(18) 0.9579(3)
F7_3 F 0.3761(17) 0.2010(13) 0.9690(2)
F8_3 F 0.4937(16) 0.0661(13) 0.9709(2)
F9_3 F 0.3072(19) 0.033(2) 0.9647(2)
C29_2 C 0.4198(13) 0.0290(13) 0.2885(3)
H17_2 H 0.4450 0.0013 0.2725
C30_2 C 0.4906(13) 0.1119(15) 0.3025(3)
H18_3 H 0.5655 0.1388 0.2962
C31_2 C 0.4513(12) 0.1550(11) 0.3254(3)
C32_2 C 0.3446(12) 0.1135(11) 0.3352(3)
H19_2 H 0.3212 0.1410 0.3514
C33_2 C 0.2711(11) 0.0312(11) 0.3214(2)
H20_2 H 0.1955 0.0060 0.3276
H21_2 H 0.1581 0.0416 0.2455
C38_3 C 0.5307(14) 0.2429(14) 0.3407(3)
H24_2 H 0.1805 0.0364 0.2005
N6_3 N 0.5912(13) 0.3110(13) 0.3504(3)
O12_2 O 0.8813(15) 0.1967(11) 0.3660(3)
N10_2 N 0.9066(11) 0.4981(10) 0.3437(2)
C16_2 C 0.3264(15) 0.5313(12) 0.0097(3)
H9_3 H 0.3442 0.4590 0.0029
C17_2 C 0.3259(14) 0.5474(12) 0.0366(3)
H10_3 H 0.3444 0.4846 0.0478
C18_2 C 0.3002(12) 0.6489(13) 0.0478(2)
C19_2 C 0.2727(14) 0.7452(13) 0.0306(3)
H11_2 H 0.2537 0.8169 0.0375
C20_2 C 0.2750(12) 0.7298(11) 0.0032(2)
C21_2 C 0.2936(15) 0.6641(14) 0.0757(3)
C22_2 C 0.0329(11) 0.6461(11) 0.3196(3)
C24_2 C 0.0582(14) 0.7697(13) 0.2828(3)
H14_2 H 0.0283 0.7982 0.2661
C25_2 C 0.1688(12) 0.8141(11) 0.2956(2)
C26_2 C 0.2135(11) 0.7714(10) 0.3210(2)
H15_2 H 0.2896 0.7988 0.3297
C27_2 C 0.1435(11) 0.6884(11) 0.3329(2)
H16_2 H 0.1713 0.6612 0.3499
C28_2 C 0.3108(12) 0.9862(10) 0.2982(2)
C34_2 C 0.2448(12) 0.8936(11) 0.2555(2)
C35_2 C 0.1990(16) 0.9789(13) 0.2385(3)
C36_2 C 0.320(2) 0.7941(14) 0.2177(3)
H22_2 H 0.3637 0.7331 0.2108
C37_2 C 0.303(2) 0.8010(13) 0.2450(3)
H23_2 H 0.3322 0.7410 0.2563
C39_2 C 0.2837(17) 0.8768(13) 0.1732(3)
C40_2 C 0.2681(14) 0.8828(12) 0.2013(3)
C41_2 C 0.2109(17) 0.9760(13) 0.2116(3)
C48_2 C 0.613(3) 0.495(2) 0.1484(5)
F3_3 F 0.9961(13) 0.855(2) 0.0043(2)
F10_2 F 0.705(2) 0.4653(17) 0.1378(5)
F11_2 F 0.519(4) 0.4718(16) 0.1277(6)
F12_2 F 0.576(2) 0.4267(18) 0.1655(5)
N4_2 N 0.2879(14) 0.6736(14) 0.0979(3)
N5_2 N 0.2367(11) 0.8991(9) 0.2833(2)
N7_2 N 0.2980(17) 0.8725(12) 0.1512(3)
O7_2 O 0.6187(15) 0.6967(11) 0.1340(3)
O8_2 O 0.4856(16) 0.6528(17) 0.1659(5)
O9_3 O 0.719(2) 0.619(5) 0.1780(5)
S1_3 S 0.6032(7) 0.6346(6) 0.15818(16)
C23_2 C 0.9905(13) 0.6853(13) 0.2939(3)
H13_2 H 0.9176 0.6543 0.2846
C49_2 C 0.9597(12) 0.5601(13) 0.3329(3)
C9_3 C 0.2224(12) 0.9548(11) 0.5685(3)
H5_3 H 0.1463 0.9777 0.5749
C10_3 C 0.2896(12) 0.8634(10) 0.5801(3)
H6_3 H 0.2602 0.8259 0.5946
C11_3 C 0.3982(12) 0.8272(10) 0.5704(3)
C12_3 C 0.4676(14) 0.7297(13) 0.5818(3)
C13_3 C 0.4453(15) 0.8851(12) 0.5495(3)
H7_3 H 0.5215 0.8613 0.5434
C14_3 C 0.3797(13) 0.9785(12) 0.5376(3)
H9_4 H 0.1558 0.9590 0.4971
H10_4 H 0.1556 0.9846 0.4522
N3_2 N 0.5215(13) 0.6511(12) 0.5905(3)
N8_2 N 0.5934(11) 0.9981(10) 0.1563(2)
Ag5_2 Ag 0.62501(10) 0.49464(11) 0.60456(2)
Ag2_2 Ag 0.35836(11) 0.42853(12) 0.58152(2)
C1_3 C 0.9059(12) 0.4024(11) 0.5936(2)
C2_3 C 0.9873(11) 0.3298(11) 0.5792(2)
H3_3 H 0.9957 0.2250 0.5197
C7_3 C 0.9491(11) 0.3082(10) 0.5523(3)
H4_3 H 0.8748 0.3417 0.5442
H18_4 H 0.9345 0.6388 0.2038
C38_4 C 0.9693(14) 0.7429(14) 0.1593(3)
C42_3 C 0.5409(15) 0.3715(15) 0.5429(3)
C43_3 C 0.583(2) 0.335(3) 0.5167(4)
C44_2 C 0.4465(13) 0.3739(13) 0.6418(3)
C45_2 C 0.4131(15) 0.3243(18) 0.6673(3)
C46_4 C 0.1053(13) 0.6149(12) 0.5725(2)
C47_4 C 0.1127(17) 0.6024(18) 0.5421(3)
F1_3 F 0.6831(15) 0.367(3) 0.5111(3)
F2_3 F 0.599(4) 0.223(2) 0.5172(4)
F3_4 F 0.5039(13) 0.355(2) 0.4957(2)
F4_2 F 0.3046(13) 0.2934(18) 0.6692(3)
F5_2 F 0.419(3) 0.395(2) 0.6852(3)
F6_2 F 0.4848(16) 0.253(3) 0.6785(4)
F7_4 F 0.1239(17) 0.7010(13) 0.5310(2)
F8_4 F 0.0063(16) 0.5661(13) 0.5291(2)
F9_4 F 0.1928(19) 0.533(2) 0.5353(2)
N1_3 N 0.8394(11) 0.4536(11) 0.6051(2)
N6_4 N 0.9088(13) 0.8110(13) 0.1496(3)
O1_3 O 0.6263(11) 0.4046(14) 0.5593(2)
O2_2 O 0.4277(11) 0.3634(11) 0.5445(2)
O3_3 O 0.5606(9) 0.3909(10) 0.63980(19)
O4_2 O 0.3538(8) 0.3972(8) 0.62562(17)
O9_4 O 0.781(2) 0.119(5) 0.3220(5)
S1_4 S 0.8968(7) 0.1346(6) 0.34182(16)
Ag2_3 Ag 0.85836(11) 0.07147(12) 0.08152(2)
C44_3 C 0.9465(13) 0.1261(13) 0.1418(3)
C45_3 C 0.9131(15) 0.1757(18) 0.1673(3)
F4_3 F 0.8046(13) 0.2066(18) 0.1692(3)
F5_3 F 0.919(3) 0.105(2) 0.1852(3)
F6_3 F 0.9848(16) 0.247(3) 0.1785(4)
O2_3 O 0.9277(11) 0.1366(11) 0.0445(2)
O4_3 O 0.8538(8) 0.1028(8) 0.12562(17)
Ag9 Ag 0.93021(11) 0.67727(10) 0.62007(2)
C3_2 C 0.8994(11) 0.7172(11) 0.4089(3)
H1_2 H 0.8724 0.7013 0.3910
C4_2 C 0.8285(11) 0.7867(10) 0.4235(2)
H2_2 H 0.7515 0.8160 0.4156
C5_2 C 0.8681(11) 0.8147(10) 0.4497(2)
C6_2 C 0.9797(11) 0.7620(11) 0.4623(2)
C8_2 C 0.7313(11) 0.9864(10) 0.4528(2)
H8_2 H 0.5892 0.9833 0.4767
C15_2 C 0.8001(11) 0.8764(11) 0.4925(2)
C16_3 C 0.8264(15) 0.9687(12) 0.5097(3)
C17_3 C 0.8259(14) 0.9526(12) 0.5366(3)
C18_3 C 0.8002(12) 0.8511(13) 0.5478(2)
C19_3 C 0.7727(14) 0.7548(13) 0.5306(3)
H11_3 H 0.7537 0.6831 0.5375
C20_3 C 0.7750(12) 0.7702(11) 0.5032(2)
H12_2 H 0.7593 0.7074 0.4919
C21_3 C 0.7936(15) 0.8359(14) 0.5757(3)
C22_3 C 0.5329(11) 0.8539(11) 0.8196(3)
C23_3 C 0.4905(13) 0.8147(13) 0.7939(3)
H13_3 H 0.4176 0.8457 0.7846
C24_3 C 0.5582(14) 0.7303(13) 0.7828(3)
H14_3 H 0.5283 0.7018 0.7661
C25_3 C 0.6688(12) 0.6859(11) 0.7956(2)
C26_3 C 0.7135(11) 0.7286(10) 0.8210(2)
H15_3 H 0.7896 0.7012 0.8297
C27_3 C 0.6435(11) 0.8116(11) 0.8329(2)
H16_3 H 0.6713 0.8388 0.8499
C28_3 C 0.8108(12) 0.5138(10) 0.7982(2)
C29_3 C 0.9198(13) 0.4710(13) 0.7885(3)
H17_3 H 0.9450 0.4987 0.7725
C30_3 C 0.9906(13) 0.3881(15) 0.8025(3)
C31_3 C 0.9513(12) 0.3450(11) 0.8254(3)
C32_3 C 0.8446(12) 0.3865(11) 0.8352(3)
H19_3 H 0.8212 0.3590 0.8514
C33_3 C 0.7711(11) 0.4688(11) 0.8214(2)
H20_3 H 0.6955 0.4940 0.8276
C34_3 C 0.7448(12) 0.6064(11) 0.7555(2)
C35_3 C 0.6990(16) 0.5211(13) 0.7385(3)
H21_3 H 0.6581 0.4584 0.7455
C36_3 C 0.820(2) 0.7059(14) 0.7177(3)
H22_3 H 0.8637 0.7669 0.7108
C37_3 C 0.803(2) 0.6990(13) 0.7450(3)
H23_3 H 0.8322 0.7590 0.7563
C39_3 C 0.7837(17) 0.6232(13) 0.6732(3)
C40_3 C 0.7681(14) 0.6172(12) 0.7013(3)
C41_3 C 0.7109(17) 0.5240(13) 0.7116(3)
H24_3 H 0.6805 0.4636 0.7005
N2_2 N 0.7979(10) 0.8890(9) 0.4647(2)
N4_3 N 0.7879(14) 0.8264(14) 0.5979(3)
N5_3 N 0.7367(11) 0.6009(9) 0.7833(2)
N7_3 N 0.7980(17) 0.6275(12) 0.6512(3)
O8_3 O 0.9856(16) 0.8472(17) 0.6659(5)
C49_3 C 0.4597(12) 0.9399(13) 0.8329(3)
Ag10_2 Ag 0.06979(11) 0.32273(10) 0.37993(2)
C3_3 C 0.1006(11) 0.2828(11) 0.5911(3)
H1_3 H 0.1276 0.2987 0.6090
C4_3 C 0.1715(11) 0.2133(10) 0.5765(2)
H2_3 H 0.2485 0.1840 0.5844
C5_3 C 0.1319(11) 0.1853(10) 0.5503(2)
C6_3 C 0.0203(11) 0.2380(11) 0.5377(2)
C8_3 C 0.2687(11) 0.0136(10) 0.5472(2)
H8_3 H 0.4108 0.0167 0.5233
C15_3 C 0.1999(11) 0.1236(11) 0.5075(2)
C16_4 C 0.1736(15) 0.0313(12) 0.4903(3)
C17_4 C 0.1741(14) 0.0474(12) 0.4634(3)
C18_4 C 0.1998(12) 0.1489(13) 0.4522(2)
C19_4 C 0.2273(14) 0.2452(13) 0.4694(3)
H11_4 H 0.2463 0.3169 0.4625
C20_4 C 0.2250(12) 0.2298(11) 0.4968(2)
H12_3 H 0.2407 0.2926 0.5081
C21_4 C 0.2064(15) 0.1641(14) 0.4243(3)
C22_4 C 0.4671(11) 0.1461(11) 0.1804(3)
C23_4 C 0.5095(13) 0.1853(13) 0.2061(3)
H13_4 H 0.5824 0.1543 0.2154
C24_4 C 0.4418(14) 0.2697(13) 0.2172(3)
H14_4 H 0.4717 0.2982 0.2339
C25_4 C 0.3312(12) 0.3141(11) 0.2044(2)
C26_4 C 0.2865(11) 0.2714(10) 0.1790(2)
H15_4 H 0.2104 0.2988 0.1703
C27_4 C 0.3565(11) 0.1884(11) 0.1671(2)
H16_4 H 0.3287 0.1612 0.1501
C28_4 C 0.1892(12) 0.4862(10) 0.2018(2)
C29_4 C 0.0802(13) 0.5290(13) 0.2115(3)
H17_4 H 0.0550 0.5013 0.2275
C30_4 C 0.0094(13) 0.6119(15) 0.1975(3)
C31_4 C 0.0487(12) 0.6550(11) 0.1746(3)
C32_4 C 0.1554(12) 0.6135(11) 0.1648(3)
H19_4 H 0.1788 0.6410 0.1486
C33_4 C 0.2289(11) 0.5312(11) 0.1786(2)
H20_4 H 0.3045 0.5060 0.1724
C34_4 C 0.2552(12) 0.3936(11) 0.2445(2)
C35_4 C 0.3010(16) 0.4789(13) 0.2615(3)
H21_4 H 0.3419 0.5416 0.2545
C36_4 C 0.180(2) 0.2941(14) 0.2823(3)
H22_4 H 0.1363 0.2331 0.2892
C37_4 C 0.197(2) 0.3010(13) 0.2550(3)
H23_4 H 0.1678 0.2410 0.2437
C39_4 C 0.2163(17) 0.3768(13) 0.3268(3)
C40_4 C 0.2319(14) 0.3828(12) 0.2987(3)
C41_4 C 0.2891(17) 0.4760(13) 0.2884(3)
H24_4 H 0.3195 0.5364 0.2995
N2_3 N 0.2021(10) 0.1110(9) 0.5353(2)
N4_4 N 0.2121(14) 0.1736(14) 0.4021(3)
N5_4 N 0.2633(11) 0.3991(9) 0.2167(2)
N7_4 N 0.2020(17) 0.3725(12) 0.3488(3)
O8_4 O 0.0144(16) 0.1528(17) 0.3341(5)
C49_4 C 0.5403(12) 0.0601(13) 0.1671(3)
C48_3 C 0.113(3) 0.005(2) 0.6484(5)
F10_3 F 0.205(2) 0.0347(17) 0.6378(5)
F11_3 F 0.019(4) 0.0282(16) 0.6277(6)
F12_3 F 0.076(2) 0.0733(18) 0.6655(5)
Ag2_4 Ag 0.14164(11) 0.92853(12) 0.91848(2)
C44_4 C 0.0535(13) 0.8739(13) 0.8582(3)
C45_4 C 0.0869(15) 0.8243(18) 0.8327(3)
F4_4 F 0.1954(13) 0.7934(18) 0.8308(3)
F5_4 F 0.081(3) 0.895(2) 0.8148(3)
F6_4 F 0.0152(16) 0.753(3) 0.8215(4)
O2_4 O 0.0723(11) 0.8634(11) 0.9555(2)
O4_4 O 0.1462(8) 0.8972(8) 0.87438(17)
N9_2 N 0.9785(13) 0.1511(12) 0.9095(3)
H7_4 H 0.9785 0.3613 0.9566
Ag1_2 Ag 0.87499(10) 0.99464(11) 0.89544(2)
C1_4 C 0.5941(12) 0.9024(11) 0.9064(2)
C2_4 C 0.5127(11) 0.8298(11) 0.9208(2)
C3_4 C 0.3994(11) 0.7828(11) 0.9089(3)
H1_4 H 0.3724 0.7987 0.8910
C4_4 C 0.3285(11) 0.7133(10) 0.9235(2)
H2_4 H 0.2515 0.6840 0.9156
C5_4 C 0.3681(11) 0.6853(10) 0.9497(2)
C6_4 C 0.4797(11) 0.7380(11) 0.9623(2)
H3_4 H 0.5043 0.7250 0.9803
C7_4 C 0.5509(11) 0.8082(10) 0.9477(3)
H4_4 H 0.6252 0.8417 0.9558
C8_4 C 0.2313(11) 0.5136(10) 0.9528(2)
C9_4 C 0.2776(12) 0.4548(11) 0.9315(3)
H5_4 H 0.3537 0.4777 0.9251
C10_4 C 0.2104(12) 0.3634(10) 0.9199(3)
H6_4 H 0.2398 0.3259 0.9054
C11_4 C 0.1018(12) 0.3272(10) 0.9296(3)
C12_4 C 0.0324(14) 0.2297(13) 0.9182(3)
C13_4 C 0.0547(15) 0.3851(12) 0.9505(3)
C14_4 C 0.1203(13) 0.4785(12) 0.9624(3)
H8_4 H 0.0892 0.5167 0.9767
C15_4 C 0.3001(11) 0.6236(11) 0.9925(2)
H12_4 H 0.2593 0.7926 0.9919
C42_4 C 0.9591(15) 0.8715(15) 0.9571(3)
C43_4 C 0.917(2) 0.835(3) 0.9833(4)
F1_4 F 0.8169(15) 0.867(3) 0.9889(3)
F2_4 F 0.901(4) 0.723(2) 0.9828(4)
N1_4 N 0.6606(11) 0.9536(11) 0.8949(2)
N2_4 N 0.2979(10) 0.6110(9) 0.9647(2)
O1_4 O 0.8737(11) 0.9046(14) 0.9407(2)
O3_4 O 0.9394(9) 0.8909(10) 0.86020(19)
C48_4 C 0.887(3) 0.995(2) 0.3516(5)
F10_4 F 0.795(2) 0.9653(17) 0.3622(5)
F11_4 F 0.981(4) 0.9718(16) 0.3723(6)
F12_4 F 0.924(2) 0.9267(18) 0.3345(5)
loop_
_geom_bond_atom_site_label_1
_geom_bond_atom_site_label_2
_geom_bond_site_symmetry_1
_geom_bond_site_symmetry_2
C1 C2 1_555 1_555
C2 C3 1_555 1_555
C3 H1 1_555 1_555
C4 C3 1_555 1_555
H2 C4 1_555 1_555
C5 C4 1_555 1_555
C6 C5 1_555 1_555
H3 C6 1_555 1_555
C7 C2 1_555 1_555
H4 C7 1_555 1_555
C8 C9 1_555 1_555
C9 H5 1_555 1_555
C10 C9 1_555 1_555
H6 C10 1_555 1_555
C11 C10 1_555 1_555
C12 C11 1_555 1_555
C13 C11 1_555 1_555
C14 C8 1_555 1_555
H8 C14 1_555 1_555
C42 C43 1_555 1_555
C43 F1 1_555 1_555
F2 C43 1_555 1_555
N1 Ag5 1_555 1_555
N2 C5 1_555 1_555
O1 Ag5 1_555 1_555
O3 Ag5 1_555 1_555
C1 N1 1_555 1_555
C6 C7 1_555 1_555
C8 N2 1_555 1_555
C13 C14 1_555 1_555
C15 N2 1_555 1_555
C42 O1 1_555 1_555
C23 H13 1_555 1_555
N8 C49 1_555 1_555
Ag8 N8 1_555 1_555
Ag4 N4 1_555 1_555
C16 H9 1_555 1_555
C17 C16 1_555 1_555
H10 C17 1_555 1_555
C18 C17 1_555 1_555
C19 C18 1_555 1_555
H11 C19 1_555 1_555
C21 C18 1_555 1_555
H14 C24 1_555 1_555
C25 C24 1_555 1_555
C26 C25 1_555 1_555
H15 C26 1_555 1_555
C27 C22 1_555 1_555
H16 C27 1_555 1_555
C34 C35 1_555 1_555
C36 H22 1_555 1_555
C37 C34 1_555 1_555
H23 C37 1_555 1_555
C39 C40 1_555 1_555
C40 C36 1_555 1_555
C41 C35 1_555 1_555
C48 F10 1_555 1_555
F11 C48 1_555 1_555
F12 C48 1_555 1_555
N4 C21 1_555 1_555
N5 C25 1_555 1_555
N7 Ag4 1_555 1_555
O7 Ag4 1_555 1_555
O8 S1 1_555 1_555
O9 S1 1_555 1_555
S1 C48 1_555 1_555
Ag6 Ag4 1_555 1_555
O11 Ag4 1_555 1_555
C19 C20 1_555 1_555
C26 C27 1_555 1_555
C28 N5 1_555 1_555
C34 N5 1_555 1_555
C36 C37 1_555 1_555
C39 N7 1_555 1_555
C40 C41 1_555 1_555
O7 S1 1_555 1_555
O7 Ag6 1_555 1_555
Ag8 N6 1_555 1_555
C29 H17 1_555 1_555
C30 C29 1_555 1_555
H18 C30 1_555 1_555
C31 C30 1_555 1_555
C32 C31 1_555 1_555
H19 C32 1_555 1_555
H20 C33 1_555 1_555
C38 C31 1_555 1_555
N6 C38 1_555 1_555
O10 Ag8 1_555 1_555
O12 Ag8 1_555 1_555
C32 C33 1_555 1_555
C46 C47 1_555 1_555
C47 F7 1_555 1_555
F8 C47 1_555 1_555
F9 C47 1_555 1_555
O6 C46 1_555 1_555
Ag7 O5 1_555 1_555
Ag10 O6 1_555 1_555
C46 O5 1_555 1_555
Ag7 Ag10 1_555 1_555
Ag1 Ag2 1_555 1_555
Ag2 O2 1_555 1_555
Ag6 N6_2 1_555 1_555
C1_2 C2_2 1_555 1_555
C7_2 C2_2 1_555 1_555
H4_2 C7_2 1_555 1_555
C42_2 C43_2 1_555 1_555
C43_2 F1_2 1_555 1_555
C44 C45 1_555 1_555
C45 F4 1_555 1_555
C46_2 C47_2 1_555 1_555
C47_2 F7_2 1_555 1_555
F2_2 C43_2 1_555 1_555
F3_2 C43_2 1_555 1_555
F5 C45 1_555 1_555
F6 C45 1_555 1_555
F8_2 C47_2 1_555 1_555
F9_2 C47_2 1_555 1_555
N1_2 Ag1 1_555 1_555
N6_2 C38_2 1_555 1_555
O1_2 Ag1 1_555 1_555
O2 C42_2 1_555 1_555
O3_2 Ag1 1_555 1_555
O4 Ag2 1_555 1_555
O5_2 Ag2 1_555 1_555
O6_2 C46_2 1_555 1_555
O9_2 S1_2 1_555 1_555
Ag7_2 O5_2 1_555 1_555
N9 Ag1 1_555 1_555
O10_2 Ag6 1_555 1_555
N10 Ag6 1_555 1_555
C1_2 N1_2 1_555 1_555
C42_2 O1_2 1_555 1_555
C44 O3_2 1_555 1_555
C44 O4 1_555 1_555
C46_2 O5_2 1_555 1_555
O12 S1_2 1_555 1_555
C9_2 H5_2 1_555 1_555
C10_2 C9_2 1_555 1_555
H6_2 C10_2 1_555 1_555
C11_2 C10_2 1_555 1_555
C12_2 C11_2 1_555 1_555
C13_2 C11_2 1_555 1_555
H7_2 C13_2 1_555 1_555
N9 C12_2 1_555 1_555
C13_2 C14_2 1_555 1_555
C46_3 C47_3 1_555 1_555
C47_3 F7_3 1_555 1_555
F8_3 C47_3 1_555 1_555
F9_3 C47_3 1_555 1_555
O11 C46_3 1_555 1_555
C46_3 O10_2 1_555 1_555
Ag7_2 N6_3 1_555 1_555
C29_2 H17_2 1_555 1_555
C30_2 C29_2 1_555 1_555
H18_3 C30_2 1_555 1_555
C31_2 C30_2 1_555 1_555
C32_2 C31_2 1_555 1_555
H19_2 C32_2 1_555 1_555
H20_2 C33_2 1_555 1_555
C38_3 C31_2 1_555 1_555
N6_3 C38_3 1_555 1_555
O12_2 Ag7_2 1_555 1_555
N10_2 Ag7_2 1_555 1_555
C32_2 C33_2 1_555 1_555
Ag10 N4_2 1_555 1_555
C16_2 H9_3 1_555 1_555
C17_2 C16_2 1_555 1_555
H10_3 C17_2 1_555 1_555
C18_2 C17_2 1_555 1_555
C19_2 C18_2 1_555 1_555
H11_2 C19_2 1_555 1_555
C21_2 C18_2 1_555 1_555
H14_2 C24_2 1_555 1_555
C25_2 C24_2 1_555 1_555
C26_2 C25_2 1_555 1_555
H15_2 C26_2 1_555 1_555
C27_2 C22_2 1_555 1_555
H16_2 C27_2 1_555 1_555
C34_2 C35_2 1_555 1_555
C36_2 H22_2 1_555 1_555
C37_2 C34_2 1_555 1_555
H23_2 C37_2 1_555 1_555
C39_2 C40_2 1_555 1_555
C40_2 C36_2 1_555 1_555
C41_2 C35_2 1_555 1_555
C48_2 F10_2 1_555 1_555
F11_2 C48_2 1_555 1_555
F12_2 C48_2 1_555 1_555
N4_2 C21_2 1_555 1_555
N5_2 C25_2 1_555 1_555
N7_2 Ag10 1_555 1_555
O7_2 Ag10 1_555 1_555
O8_2 S1_3 1_555 1_555
O9_3 S1_3 1_555 1_555
S1_3 C48_2 1_555 1_555
C19_2 C20_2 1_555 1_555
C26_2 C27_2 1_555 1_555
C28_2 N5_2 1_555 1_555
C34_2 N5_2 1_555 1_555
C36_2 C37_2 1_555 1_555
C39_2 N7_2 1_555 1_555
C40_2 C41_2 1_555 1_555
O7_2 S1_3 1_555 1_555
O7_2 Ag7 1_555 1_555
C23_2 H13_2 1_555 1_555
N10_2 C49_2 1_555 1_555
C9_3 H5_3 1_555 1_555
C10_3 C9_3 1_555 1_555
H6_3 C10_3 1_555 1_555
C11_3 C10_3 1_555 1_555
C12_3 C11_3 1_555 1_555
C13_3 C11_3 1_555 1_555
H7_3 C13_3 1_555 1_555
N3_2 C12_3 1_555 1_555
Ag5_2 N3_2 1_555 1_555
Ag7 N8_2 1_555 1_555
C13_3 C14_3 1_555 1_555
Ag5_2 Ag2_2 1_555 1_555
Ag2_2 O2_2 1_555 1_555
Ag7 N6_4 1_555 1_555
C1_3 C2_3 1_555 1_555
C7_3 C2_3 1_555 1_555
H4_3 C7_3 1_555 1_555
C42_3 C43_3 1_555 1_555
C43_3 F1_3 1_555 1_555
C44_2 C45_2 1_555 1_555
C45_2 F4_2 1_555 1_555
C46_4 C47_4 1_555 1_555
C47_4 F7_4 1_555 1_555
F2_3 C43_3 1_555 1_555
F3_4 C43_3 1_555 1_555
F5_2 C45_2 1_555 1_555
F6_2 C45_2 1_555 1_555
F8_4 C47_4 1_555 1_555
F9_4 C47_4 1_555 1_555
N1_3 Ag5_2 1_555 1_555
N6_4 C38_4 1_555 1_555
O1_3 Ag5_2 1_555 1_555
O2_2 C42_3 1_555 1_555
O3_3 Ag5_2 1_555 1_555
O4_2 Ag2_2 1_555 1_555
O10 Ag2_2 1_555 1_555
O11_2 C46_4 1_555 1_555
O9_4 S1_4 1_555 1_555
C1_3 N1_3 1_555 1_555
C42_3 O1_3 1_555 1_555
C44_2 O3_3 1_555 1_555
C44_2 O4_2 1_555 1_555
C46_4 O10 1_555 1_555
O12_2 S1_4 1_555 1_555
Ag2_3 O2_3 1_555 1_555
C44_3 C45_3 1_555 1_555
C45_3 F4_3 1_555 1_555
F5_3 C45_3 1_555 1_555
F6_3 C45_3 1_555 1_555
O4_3 Ag2_3 1_555 1_555
C44_3 O4_3 1_555 1_555
Ag9 N4_3 1_555 1_555
C3_2 H1_2 1_555 1_555
C4_2 C3_2 1_555 1_555
H2_2 C4_2 1_555 1_555
C5_2 C4_2 1_555 1_555
C6_2 C5_2 1_555 1_555
C15_2 C16_3 1_555 1_555
C17_3 C16_3 1_555 1_555
C18_3 C17_3 1_555 1_555
C19_3 C18_3 1_555 1_555
H11_3 C19_3 1_555 1_555
C20_3 C15_2 1_555 1_555
H12_2 C20_3 1_555 1_555
C21_3 C18_3 1_555 1_555
C22_3 C23_3 1_555 1_555
C23_3 H13_3 1_555 1_555
C24_3 C23_3 1_555 1_555
H14_3 C24_3 1_555 1_555
C25_3 C24_3 1_555 1_555
C26_3 C25_3 1_555 1_555
H15_3 C26_3 1_555 1_555
C27_3 C22_3 1_555 1_555
H16_3 C27_3 1_555 1_555
C28_3 C29_3 1_555 1_555
C29_3 H17_3 1_555 1_555
C30_3 C29_3 1_555 1_555
C31_3 C30_3 1_555 1_555
C32_3 C31_3 1_555 1_555
H19_3 C32_3 1_555 1_555
C33_3 C28_3 1_555 1_555
H20_3 C33_3 1_555 1_555
C34_3 C35_3 1_555 1_555
C35_3 H21_3 1_555 1_555
C36_3 H22_3 1_555 1_555
C37_3 C34_3 1_555 1_555
H23_3 C37_3 1_555 1_555
C39_3 C40_3 1_555 1_555
C40_3 C36_3 1_555 1_555
C41_3 C35_3 1_555 1_555
H24_3 C41_3 1_555 1_555
N2_2 C5_2 1_555 1_555
N4_3 C21_3 1_555 1_555
N5_3 C25_3 1_555 1_555
N7_3 Ag9 1_555 1_555
C49_3 C22_3 1_555 1_555
C8_2 N2_2 1_555 1_555
C15_2 N2_2 1_555 1_555
C19_3 C20_3 1_555 1_555
C26_3 C27_3 1_555 1_555
C28_3 N5_3 1_555 1_555
C32_3 C33_3 1_555 1_555
C34_3 N5_3 1_555 1_555
C36_3 C37_3 1_555 1_555
C39_3 N7_3 1_555 1_555
C40_3 C41_3 1_555 1_555
Ag10_2 N4_4 1_555 1_555
C3_3 H1_3 1_555 1_555
C4_3 C3_3 1_555 1_555
H2_3 C4_3 1_555 1_555
C5_3 C4_3 1_555 1_555
C6_3 C5_3 1_555 1_555
C15_3 C16_4 1_555 1_555
C17_4 C16_4 1_555 1_555
C18_4 C17_4 1_555 1_555
C19_4 C18_4 1_555 1_555
H11_4 C19_4 1_555 1_555
C20_4 C15_3 1_555 1_555
H12_3 C20_4 1_555 1_555
C21_4 C18_4 1_555 1_555
C22_4 C23_4 1_555 1_555
C23_4 H13_4 1_555 1_555
C24_4 C23_4 1_555 1_555
H14_4 C24_4 1_555 1_555
C25_4 C24_4 1_555 1_555
C26_4 C25_4 1_555 1_555
H15_4 C26_4 1_555 1_555
C27_4 C22_4 1_555 1_555
H16_4 C27_4 1_555 1_555
C28_4 C29_4 1_555 1_555
C29_4 H17_4 1_555 1_555
C30_4 C29_4 1_555 1_555
C31_4 C30_4 1_555 1_555
C32_4 C31_4 1_555 1_555
H19_4 C32_4 1_555 1_555
C33_4 C28_4 1_555 1_555
H20_4 C33_4 1_555 1_555
C34_4 C35_4 1_555 1_555
C35_4 H21_4 1_555 1_555
C36_4 H22_4 1_555 1_555
C37_4 C34_4 1_555 1_555
H23_4 C37_4 1_555 1_555
C39_4 C40_4 1_555 1_555
C40_4 C36_4 1_555 1_555
C41_4 C35_4 1_555 1_555
H24_4 C41_4 1_555 1_555
N2_3 C5_3 1_555 1_555
N4_4 C21_4 1_555 1_555
N5_4 C25_4 1_555 1_555
N7_4 Ag10_2 1_555 1_555
C49_4 C22_4 1_555 1_555
C8_3 N2_3 1_555 1_555
C15_3 N2_3 1_555 1_555
C19_4 C20_4 1_555 1_555
C26_4 C27_4 1_555 1_555
C28_4 N5_4 1_555 1_555
C32_4 C33_4 1_555 1_555
C34_4 N5_4 1_555 1_555
C36_4 C37_4 1_555 1_555
C39_4 N7_4 1_555 1_555
C40_4 C41_4 1_555 1_555
C48_3 F10_3 1_555 1_555
F11_3 C48_3 1_555 1_555
F12_3 C48_3 1_555 1_555
Ag2_4 O2_4 1_555 1_555
C44_4 C45_4 1_555 1_555
C45_4 F4_4 1_555 1_555
F5_4 C45_4 1_555 1_555
F6_4 C45_4 1_555 1_555
O4_4 Ag2_4 1_555 1_555
C44_4 O4_4 1_555 1_555
C1_4 C2_4 1_555 1_555
C2_4 C3_4 1_555 1_555
C3_4 H1_4 1_555 1_555
C4_4 C3_4 1_555 1_555
H2_4 C4_4 1_555 1_555
C5_4 C4_4 1_555 1_555
C6_4 C5_4 1_555 1_555
H3_4 C6_4 1_555 1_555
C7_4 C2_4 1_555 1_555
H4_4 C7_4 1_555 1_555
C8_4 C9_4 1_555 1_555
C9_4 H5_4 1_555 1_555
C10_4 C9_4 1_555 1_555
H6_4 C10_4 1_555 1_555
C11_4 C10_4 1_555 1_555
C12_4 C11_4 1_555 1_555
C13_4 C11_4 1_555 1_555
C14_4 C8_4 1_555 1_555
H8_4 C14_4 1_555 1_555
C42_4 C43_4 1_555 1_555
C43_4 F1_4 1_555 1_555
F2_4 C43_4 1_555 1_555
N1_4 Ag1_2 1_555 1_555
N2_4 C5_4 1_555 1_555
O1_4 Ag1_2 1_555 1_555
O3_4 Ag1_2 1_555 1_555
C1_4 N1_4 1_555 1_555
C6_4 C7_4 1_555 1_555
C8_4 N2_4 1_555 1_555
C13_4 C14_4 1_555 1_555
C15_4 N2_4 1_555 1_555
C42_4 O1_4 1_555 1_555
C48_4 F10_4 1_555 1_555
F11_4 C48_4 1_555 1_555
F12_4 C48_4 1_555 1_555

#END
