
###############################################################################
#
# This file contains modified crystal structure data generated from the
# MOF subset of the Cambridge Structural Database (CSD) v543 
# hosted by the Cambridge Crystallographic Data Centre (CCDC).
#
# This work is licensed under the Creative Commons
# Attribution-NonCommercial-ShareAlike 4.0 International License.
# To view a copy of this license, visit
# http://creativecommons.org/licenses/by-nc-sa/4.0/
# or send a letter to
# Creative Commons, PO Box 1866, Mountain View, CA 94042, USA.
#
# CIF created using the CSD Python API on 29 September 2022
# The structure has been converted into the P1 space group
# The structure has a 3D framework
# The original CSD entry OKIKAV is in the orthorhombic crystal system
# The framework has been calculated to contain at least 10.0% void space
# The void calculation uses a probe of radius 1.32A, grid spacing 0.4
# The framework is charged, counterions have been retained in the structure
#
###############################################################################

data_OKIKAV
_chemical_formula_moiety         '(C84 H49 Ag3 Cl4 N16 O17 1-)n'
_symmetry_cell_setting           triclinic
_symmetry_space_group_name_H-M   'P 1'
_symmetry_Int_Tables_number      1
_space_group_name_Hall           'P 1'
loop_
_symmetry_equiv_pos_site_id
_symmetry_equiv_pos_as_xyz
1 x,y,z
_cell_length_a                   9.8704(6)
_cell_length_b                   26.3900(16)
_cell_length_c                   12.1381(7)
_cell_angle_alpha                90
_cell_angle_beta                 90
_cell_angle_gamma                90
_cell_volume                     3161.73
loop_
_atom_site_label
_atom_site_type_symbol
_atom_site_fract_x
_atom_site_fract_y
_atom_site_fract_z
Ag6 Ag 0.28952(9) 0.01064(2) 0.9974(5)
C40 C 0.0386(10) 0.1392(4) 0.7133(10)
H24 H 0.1204 0.1519 0.7394
H25 H 0.0009 0.1943 0.5962
C42 C 0.0708(11) 0.0663(4) 0.8336(10)
N8 N 0.1305(10) 0.0461(3) 0.8945(10)
Ag2 Ag 0.71048(9) 0.51064(2) 0.4974(5)
C22 C 0.7524(13) 0.3858(4) 0.5194(13)
C23 C 0.7613(12) 0.3305(3) 0.5195(11)
C24 C 0.7897(16) 0.3062(5) 0.4243(11)
H14 H 0.8081 0.3245 0.3606
C25 C 0.7912(13) 0.2540(5) 0.4225(11)
H15 H 0.8100 0.2371 0.3571
C26 C 0.7651(9) 0.2269(3) 0.5164(10)
C27 C 0.7350(14) 0.2507(4) 0.6104(10)
H16 H 0.7138 0.2321 0.6732
C28 C 0.7355(15) 0.3035(4) 0.6140(11)
H17 H 0.7185 0.3203 0.6798
C29 C 0.6851(9) 0.1462(3) 0.4344(9)
C30 C 0.5644(10) 0.1660(4) 0.4021(10)
H18 H 0.5339 0.1957 0.4350
C31 C 0.4890(10) 0.1443(4) 0.3254(10)
H19 H 0.4089 0.1596 0.3023
C32 C 0.5330(10) 0.0957(4) 0.2768(10)
C33 C 0.4519(11) 0.0702(4) 0.2012(10)
C34 C 0.6568(9) 0.0762(4) 0.3117(9)
H20 H 0.6894 0.0461 0.2822
C35 C 0.7312(11) 0.1019(4) 0.3905(10)
H21 H 0.8138 0.0887 0.4138
C36 C 0.8414(9) 0.1463(3) 0.5949(9)
C37 C 0.7909(9) 0.1013(4) 0.6408(10)
H22 H 0.7082 0.0883 0.6174
C38 C 0.8633(10) 0.0770(3) 0.7194(9)
H23 H 0.8299 0.0471 0.7498
C39 C 0.9863(10) 0.0961(4) 0.7547(10)
C41 C 0.9655(10) 0.1652(4) 0.6283(10)
N5 N 0.7524(12) 0.4279(3) 0.5242(11)
N6 N 0.3880(10) 0.0494(4) 0.1378(10)
N7 N 0.6120(10) 0.5494(4) 0.6378(10)
N10 N 0.8695(10) 0.5461(3) 0.3945(10)
N11 N 0.7676(8) 0.1723(2) 0.5135(10)
O2 O 0.5000 0.5000 0.3891(14)
H27 H 0.4894 0.5294 0.3418
H28 H 0.5106 0.4706 0.3418
O1 O 0.5000 0.0000 0.8891(14)
H13 H 0.5106 0.0294 0.8418
C3 C 0.2103(16) 0.8062(5) 0.9243(11)
H1 H 0.1919 0.8245 0.8606
C4 C 0.2088(13) 0.7540(5) 0.9225(11)
H2 H 0.1900 0.7371 0.8571
C8 C 0.3149(9) 0.6462(3) 0.9344(9)
C9 C 0.4356(10) 0.6660(4) 0.9021(10)
H5 H 0.4661 0.6957 0.9350
C10 C 0.5110(10) 0.6443(4) 0.8254(10)
H6 H 0.5911 0.6596 0.8023
C11 C 0.4670(10) 0.5957(4) 0.7768(10)
C12 C 0.5481(11) 0.5702(4) 0.7012(10)
C13 C 0.3432(9) 0.5762(4) 0.8117(9)
H7 H 0.3106 0.5461 0.7822
C14 C 0.2688(11) 0.6019(4) 0.8905(10)
H8 H 0.1862 0.5887 0.9138
O1_2 O 0.5000 1.0000 0.8891(14)
Ag5 Ag 0.71048(9) 0.98936(2) 0.9974(5)
H26 H 0.4894 0.9706 0.8418
C19 C 0.9614(10) 0.6392(4) 0.2133(10)
H11 H 0.8796 0.6519 0.2394
H12 H 0.9991 0.6943 0.0962
C21 C 0.9292(11) 0.5663(4) 0.3336(10)
C19_2 C 0.0386(10) 0.3608(4) 0.2133(10)
H11_2 H 0.1204 0.3481 0.2394
H12_2 H 0.0009 0.3057 0.0962
C21_2 C 0.0708(11) 0.4337(4) 0.3336(10)
N3 N 0.1305(10) 0.4539(3) 0.3945(10)
Ag4 Ag 0.28952(9) 0.48936(2) 0.4974(5)
C3_2 C 0.7897(16) 0.1938(5) 0.9243(11)
H1_2 H 0.8081 0.1755 0.8606
C4_2 C 0.7912(13) 0.2460(5) 0.9225(11)
H2_2 H 0.8100 0.2629 0.8571
C8_2 C 0.6851(9) 0.3538(3) 0.9344(9)
C9_2 C 0.5644(10) 0.3340(4) 0.9021(10)
H5_2 H 0.5339 0.3043 0.9350
C10_2 C 0.4890(10) 0.3557(4) 0.8254(10)
H6_2 H 0.4089 0.3404 0.8023
C11_2 C 0.5330(10) 0.4043(4) 0.7768(10)
C12_2 C 0.4519(11) 0.4298(4) 0.7012(10)
C13_2 C 0.6568(9) 0.4238(4) 0.8117(9)
H7_2 H 0.6894 0.4539 0.7822
C14_2 C 0.7312(11) 0.3981(4) 0.8905(10)
H8_2 H 0.8138 0.4113 0.9138
N2 N 0.3880(10) 0.4506(4) 0.6378(10)
C22_2 C 0.2476(13) 0.6142(4) 0.5194(13)
C23_2 C 0.2387(12) 0.6695(3) 0.5195(11)
C24_2 C 0.2103(16) 0.6938(5) 0.4243(11)
H14_2 H 0.1919 0.6755 0.3606
C25_2 C 0.2088(13) 0.7460(5) 0.4225(11)
H15_2 H 0.1900 0.7629 0.3571
C26_2 C 0.2349(9) 0.7731(3) 0.5164(10)
C27_2 C 0.2650(14) 0.7493(4) 0.6104(10)
H16_2 H 0.2862 0.7679 0.6732
C28_2 C 0.2645(15) 0.6965(4) 0.6140(11)
H17_2 H 0.2815 0.6797 0.6798
C29_2 C 0.3149(9) 0.8538(3) 0.4344(9)
C30_2 C 0.4356(10) 0.8340(4) 0.4021(10)
H18_2 H 0.4661 0.8043 0.4350
C31_2 C 0.5110(10) 0.8557(4) 0.3254(10)
H19_2 H 0.5911 0.8404 0.3023
C32_2 C 0.4670(10) 0.9043(4) 0.2768(10)
C33_2 C 0.5481(11) 0.9298(4) 0.2012(10)
C34_2 C 0.3432(9) 0.9238(4) 0.3117(9)
H20_2 H 0.3106 0.9539 0.2822
C35_2 C 0.2688(11) 0.8981(4) 0.3905(10)
H21_2 H 0.1862 0.9113 0.4138
C36_2 C 0.1586(9) 0.8537(3) 0.5949(9)
C37_2 C 0.2091(9) 0.8987(4) 0.6408(10)
H22_2 H 0.2918 0.9117 0.6174
C38_2 C 0.1367(10) 0.9230(3) 0.7194(9)
H23_2 H 0.1701 0.9529 0.7498
C39_2 C 0.0137(10) 0.9039(4) 0.7547(10)
C41_2 C 0.0345(10) 0.8348(4) 0.6283(10)
N5_2 N 0.2476(12) 0.5721(3) 0.5242(11)
N6_2 N 0.6120(10) 0.9506(4) 0.1378(10)
N11_2 N 0.2324(8) 0.8277(2) 0.5135(10)
N9 N 0.8695(10) 0.9539(3) 0.8945(10)
C40_2 C 0.9614(10) 0.8608(4) 0.7133(10)
H24_2 H 0.8796 0.8481 0.7394
H25_2 H 0.9991 0.8057 0.5962
C42_2 C 0.9292(11) 0.9337(4) 0.8336(10)
C1 C 0.2476(13) 0.8858(4) 0.0194(13)
C2 C 0.2387(12) 0.8305(3) 0.0195(11)
C5 C 0.2349(9) 0.7269(3) 0.0164(10)
C6 C 0.2650(14) 0.7507(4) 0.1104(10)
H3 H 0.2862 0.7321 0.1732
C7 C 0.2645(15) 0.8035(4) 0.1140(11)
H4 H 0.2815 0.8203 0.1798
C15 C 0.1586(9) 0.6463(3) 0.0949(9)
C16 C 0.2091(9) 0.6013(4) 0.1408(10)
H9 H 0.2918 0.5883 0.1174
C17 C 0.1367(10) 0.5770(3) 0.2194(9)
H10 H 0.1701 0.5471 0.2498
C18 C 0.0137(10) 0.5961(4) 0.2547(10)
C20 C 0.0345(10) 0.6652(4) 0.1283(10)
N1 N 0.2476(12) 0.9279(3) 0.0242(11)
N4 N 0.2324(8) 0.6723(2) 0.0135(10)
C1_2 C 0.7524(13) 0.1142(4) 0.0194(13)
C2_2 C 0.7613(12) 0.1695(3) 0.0195(11)
C5_2 C 0.7651(9) 0.2731(3) 0.0164(10)
C6_2 C 0.7350(14) 0.2493(4) 0.1104(10)
H3_2 H 0.7138 0.2679 0.1732
C7_2 C 0.7355(15) 0.1965(4) 0.1140(11)
H4_2 H 0.7185 0.1797 0.1798
C15_2 C 0.8414(9) 0.3537(3) 0.0949(9)
C16_2 C 0.7909(9) 0.3987(4) 0.1408(10)
H9_2 H 0.7082 0.4117 0.1174
C17_2 C 0.8633(10) 0.4230(3) 0.2194(9)
H10_2 H 0.8299 0.4529 0.2498
C18_2 C 0.9863(10) 0.4039(4) 0.2547(10)
C20_2 C 0.9655(10) 0.3348(4) 0.1283(10)
N1_2 N 0.7524(12) 0.0721(3) 0.0242(11)
N4_2 N 0.7676(8) 0.3277(2) 0.0135(10)
Cl1 Cl 0.5385(6) 0.8629(3) 0.7772(9)
O3 O 0.6639(14) 0.8558(8) 0.8325(16)
O4 O 0.473(2) 0.8140(6) 0.761(3)
O5 O 0.562(3) 0.8848(12) 0.6697(14)
O6 O 0.4490(19) 0.8942(8) 0.8395(18)
Cl1_2 Cl 0.4615(6) 0.1371(3) 0.7772(9)
O3_2 O 0.3361(14) 0.1442(8) 0.8325(16)
O4_2 O 0.527(2) 0.1860(6) 0.761(3)
O5_2 O 0.438(3) 0.1152(12) 0.6697(14)
O6_2 O 0.5510(19) 0.1058(8) 0.8395(18)
Cl1_3 Cl 0.5385(6) 0.6371(3) 0.2772(9)
O3_3 O 0.6639(14) 0.6442(8) 0.3325(16)
O4_3 O 0.473(2) 0.6860(6) 0.261(3)
O5_3 O 0.562(3) 0.6152(12) 0.1697(14)
O6_3 O 0.4490(19) 0.6058(8) 0.3395(18)
Cl1_4 Cl 0.4615(6) 0.3629(3) 0.2772(9)
O3_4 O 0.3361(14) 0.3558(8) 0.3325(16)
O4_4 O 0.527(2) 0.3140(6) 0.261(3)
O5_4 O 0.438(3) 0.3848(12) 0.1697(14)
O6_4 O 0.5510(19) 0.3942(8) 0.3395(18)
loop_
_geom_bond_atom_site_label_1
_geom_bond_atom_site_label_2
_geom_bond_site_symmetry_1
_geom_bond_site_symmetry_2
Ag6 N8 1_555 1_555
H24 C40 1_555 1_555
N8 C42 1_555 1_555
Ag2 N5 1_555 1_555
C22 C23 1_555 1_555
C23 C24 1_555 1_555
C24 H14 1_555 1_555
C25 C24 1_555 1_555
H15 C25 1_555 1_555
C26 C25 1_555 1_555
C27 C26 1_555 1_555
H16 C27 1_555 1_555
C28 C23 1_555 1_555
H17 C28 1_555 1_555
C29 C30 1_555 1_555
C30 H18 1_555 1_555
C31 C30 1_555 1_555
H19 C31 1_555 1_555
C32 C31 1_555 1_555
C33 C32 1_555 1_555
C34 C32 1_555 1_555
H20 C34 1_555 1_555
C35 C29 1_555 1_555
H21 C35 1_555 1_555
C36 C37 1_555 1_555
C37 H22 1_555 1_555
C38 C37 1_555 1_555
H23 C38 1_555 1_555
C39 C38 1_555 1_555
C41 C36 1_555 1_555
N5 C22 1_555 1_555
N7 Ag2 1_555 1_555
N10 Ag2 1_555 1_555
N11 C26 1_555 1_555
O2 Ag2 1_555 1_555
H27 O2 1_555 1_555
H28 O2 1_555 1_555
C27 C28 1_555 1_555
C29 N11 1_555 1_555
C33 N6 1_555 1_555
C34 C35 1_555 1_555
C36 N11 1_555 1_555
O1 Ag6 1_555 1_555
H13 O1 1_555 1_555
C3 H1 1_555 1_555
C4 C3 1_555 1_555
H2 C4 1_555 1_555
C8 C9 1_555 1_555
C9 H5 1_555 1_555
C10 C9 1_555 1_555
H6 C10 1_555 1_555
C11 C10 1_555 1_555
C12 C11 1_555 1_555
C13 C11 1_555 1_555
H7 C13 1_555 1_555
C14 C8 1_555 1_555
H8 C14 1_555 1_555
N7 C12 1_555 1_555
Ag5 O1_2 1_555 1_555
H26 O1_2 1_555 1_555
C13 C14 1_555 1_555
H11 C19 1_555 1_555
N10 C21 1_555 1_555
H11_2 C19_2 1_555 1_555
N3 C21_2 1_555 1_555
Ag4 N3 1_555 1_555
C3_2 H1_2 1_555 1_555
C4_2 C3_2 1_555 1_555
H2_2 C4_2 1_555 1_555
C8_2 C9_2 1_555 1_555
C9_2 H5_2 1_555 1_555
C10_2 C9_2 1_555 1_555
H6_2 C10_2 1_555 1_555
C11_2 C10_2 1_555 1_555
C12_2 C11_2 1_555 1_555
C13_2 C11_2 1_555 1_555
H7_2 C13_2 1_555 1_555
C14_2 C8_2 1_555 1_555
H8_2 C14_2 1_555 1_555
N2 C12_2 1_555 1_555
Ag4 N2 1_555 1_555
C13_2 C14_2 1_555 1_555
Ag4 N5_2 1_555 1_555
C22_2 C23_2 1_555 1_555
C23_2 C24_2 1_555 1_555
C24_2 H14_2 1_555 1_555
C25_2 C24_2 1_555 1_555
H15_2 C25_2 1_555 1_555
C26_2 C25_2 1_555 1_555
C27_2 C26_2 1_555 1_555
H16_2 C27_2 1_555 1_555
C28_2 C23_2 1_555 1_555
H17_2 C28_2 1_555 1_555
C29_2 C30_2 1_555 1_555
C30_2 H18_2 1_555 1_555
C31_2 C30_2 1_555 1_555
H19_2 C31_2 1_555 1_555
C32_2 C31_2 1_555 1_555
C33_2 C32_2 1_555 1_555
C34_2 C32_2 1_555 1_555
H20_2 C34_2 1_555 1_555
C35_2 C29_2 1_555 1_555
H21_2 C35_2 1_555 1_555
C36_2 C37_2 1_555 1_555
C37_2 H22_2 1_555 1_555
C38_2 C37_2 1_555 1_555
H23_2 C38_2 1_555 1_555
C39_2 C38_2 1_555 1_555
C41_2 C36_2 1_555 1_555
N5_2 C22_2 1_555 1_555
N11_2 C26_2 1_555 1_555
O2 Ag4 1_555 1_555
C27_2 C28_2 1_555 1_555
C29_2 N11_2 1_555 1_555
C33_2 N6_2 1_555 1_555
C34_2 C35_2 1_555 1_555
C36_2 N11_2 1_555 1_555
N9 Ag5 1_555 1_555
H24_2 C40_2 1_555 1_555
N9 C42_2 1_555 1_555
C1 C2 1_555 1_555
C6 C5 1_555 1_555
H3 C6 1_555 1_555
C7 C2 1_555 1_555
H4 C7 1_555 1_555
C15 C16 1_555 1_555
C16 H9 1_555 1_555
C17 C16 1_555 1_555
H10 C17 1_555 1_555
C18 C17 1_555 1_555
C20 C15 1_555 1_555
N1 C1 1_555 1_555
N4 C5 1_555 1_555
C6 C7 1_555 1_555
C15 N4 1_555 1_555
C1_2 C2_2 1_555 1_555
C6_2 C5_2 1_555 1_555
H3_2 C6_2 1_555 1_555
C7_2 C2_2 1_555 1_555
H4_2 C7_2 1_555 1_555
C15_2 C16_2 1_555 1_555
C16_2 H9_2 1_555 1_555
C17_2 C16_2 1_555 1_555
H10_2 C17_2 1_555 1_555
C18_2 C17_2 1_555 1_555
C20_2 C15_2 1_555 1_555
N1_2 C1_2 1_555 1_555
N4_2 C5_2 1_555 1_555
C6_2 C7_2 1_555 1_555
C15_2 N4_2 1_555 1_555
Cl1 O3 1_555 1_555
O4 Cl1 1_555 1_555
O5 Cl1 1_555 1_555
O6 Cl1 1_555 1_555
Cl1_2 O3_2 1_555 1_555
O4_2 Cl1_2 1_555 1_555
O5_2 Cl1_2 1_555 1_555
O6_2 Cl1_2 1_555 1_555
Cl1_3 O3_3 1_555 1_555
O4_3 Cl1_3 1_555 1_555
O5_3 Cl1_3 1_555 1_555
O6_3 Cl1_3 1_555 1_555
Cl1_4 O3_4 1_555 1_555
O4_4 Cl1_4 1_555 1_555
O5_4 Cl1_4 1_555 1_555
O6_4 Cl1_4 1_555 1_555

#END
