
###############################################################################
#
# This file contains modified crystal structure data generated from the
# MOF subset of the Cambridge Structural Database (CSD) v543 
# hosted by the Cambridge Crystallographic Data Centre (CCDC).
#
# This work is licensed under the Creative Commons
# Attribution-NonCommercial-ShareAlike 4.0 International License.
# To view a copy of this license, visit
# http://creativecommons.org/licenses/by-nc-sa/4.0/
# or send a letter to
# Creative Commons, PO Box 1866, Mountain View, CA 94042, USA.
#
# CIF created using the CSD Python API on 29 September 2022
# The structure has been converted into the P1 space group
# The structure has a 3D framework
# The original CSD entry OKIKEZ is in the orthorhombic crystal system
# The framework has been calculated to contain at least 10.0% void space
# The void calculation uses a probe of radius 1.32A, grid spacing 0.4
# The framework is charged, counterions have been retained in the structure
#
###############################################################################

data_OKIKEZ
_chemical_formula_moiety         '(C88 H50 Ag2 F12 N16 O13 S4 2-)n'
_symmetry_cell_setting           triclinic
_symmetry_space_group_name_H-M   'P 1'
_symmetry_Int_Tables_number      1
_space_group_name_Hall           'P 1'
loop_
_symmetry_equiv_pos_site_id
_symmetry_equiv_pos_as_xyz
1 x,y,z
_cell_length_a                   10.0613(8)
_cell_length_b                   26.359(2)
_cell_length_c                   11.9930(9)
_cell_angle_alpha                90
_cell_angle_beta                 90
_cell_angle_gamma                90
_cell_volume                     3180.61
loop_
_atom_site_label
_atom_site_type_symbol
_atom_site_fract_x
_atom_site_fract_y
_atom_site_fract_z
C40 C 0.0436(6) 0.3579(2) 0.0738(5)
H24 H 0.1223 0.3442 0.0465
H25 H 0.0057 0.3028 0.1846
Ag6 Ag 0.28749(4) 0.487242(12) 0.78489(8)
C42 C 0.0697(6) 0.4297(2) 0.9487(5)
N9 N 0.1269(5) 0.45086(18) 0.8828(5)
C11 C 0.4615(6) 0.90274(19) 0.0063(4)
H7 H 0.3101 0.9529 0.0117
C14 C 0.5497(6) 0.9294(2) 0.0805(5)
N3 N 0.6171(6) 0.9504(2) 0.1398(5)
Ag3 Ag 0.71251(4) 0.987242(12) 0.28489(8)
C1 C 0.2421(6) 0.61359(19) 0.7679(6)
C2 C 0.2374(5) 0.66842(16) 0.7711(6)
C3 C 0.2048(7) 0.6924(3) 0.8695(6)
H1 H 0.1903 0.6738 0.9341
C4 C 0.1941(7) 0.7444(2) 0.8706(5)
H2 H 0.1680 0.7608 0.9356
C5 C 0.2216(5) 0.77251(14) 0.7761(7)
C6 C 0.2571(7) 0.7486(2) 0.6801(5)
H3 H 0.2765 0.7674 0.6164
C7 C 0.2641(8) 0.6958(2) 0.6780(6)
H4 H 0.2871 0.6793 0.6123
C8 C 0.2994(5) 0.85184(17) 0.8572(4)
C9 C 0.4215(5) 0.83225(17) 0.8855(4)
H5 H 0.4489 0.8016 0.8546
C10 C 0.5022(6) 0.8568(2) 0.9576(5)
H6 H 0.5850 0.8433 0.9751
C12 C 0.3380(6) 0.92254(19) 0.9798(4)
C13 C 0.2568(6) 0.8973(2) 0.9067(5)
H8 H 0.1734 0.9104 0.8897
C15 C 0.1443(5) 0.85303(16) 0.6971(4)
C16 C 0.1911(5) 0.8984(2) 0.6543(5)
H9 H 0.2704 0.9119 0.6810
C17 C 0.1226(5) 0.92367(18) 0.5737(4)
H10 H 0.1545 0.9544 0.5465
C18 C 0.0049(5) 0.90349(18) 0.5321(5)
C20 C 0.0265(6) 0.83326(18) 0.6560(5)
N1 N 0.2452(6) 0.57103(16) 0.7626(6)
N2 N 0.2157(4) 0.82668(11) 0.7805(6)
O1 O 0.5000 0.5000 0.8796(5)
H13 H 0.4961 0.5268 0.9190
Ag5 Ag 0.71251(4) 0.512758(12) 0.78489(8)
C22 C 0.7579(6) 0.11359(19) 0.2679(6)
C23 C 0.7626(5) 0.16842(16) 0.2711(6)
C24 C 0.7952(7) 0.1924(3) 0.3695(6)
H14 H 0.8097 0.1738 0.4341
C25 C 0.8059(7) 0.2444(2) 0.3706(5)
H15 H 0.8320 0.2608 0.4356
C26 C 0.7784(5) 0.27251(14) 0.2761(7)
C27 C 0.7429(7) 0.2486(2) 0.1801(5)
H16 H 0.7235 0.2674 0.1164
C28 C 0.7359(8) 0.1958(2) 0.1780(6)
H17 H 0.7129 0.1793 0.1123
C29 C 0.7006(5) 0.35184(17) 0.3572(4)
C30 C 0.5785(5) 0.33225(17) 0.3855(4)
H18 H 0.5511 0.3016 0.3546
C31 C 0.4978(6) 0.3568(2) 0.4576(5)
H19 H 0.4150 0.3433 0.4751
C32 C 0.5385(6) 0.40274(19) 0.5063(4)
C33 C 0.6620(6) 0.42254(19) 0.4798(4)
H20 H 0.6899 0.4529 0.5117
C34 C 0.7432(6) 0.3973(2) 0.4067(5)
H21 H 0.8266 0.4104 0.3897
C35 C 0.4503(6) 0.4294(2) 0.5805(5)
C36 C 0.8557(5) 0.35303(16) 0.1971(4)
C37 C 0.8089(5) 0.3984(2) 0.1543(5)
H22 H 0.7296 0.4119 0.1810
C38 C 0.8774(5) 0.42367(18) 0.0737(4)
H23 H 0.8455 0.4544 0.0465
C39 C 0.9951(5) 0.40349(18) 0.0321(5)
C41 C 0.9735(6) 0.33326(18) 0.1560(5)
N5 N 0.7548(6) 0.07103(16) 0.2626(6)
N6 N 0.7843(4) 0.32668(11) 0.2805(6)
N7 N 0.3829(6) 0.4504(2) 0.6398(5)
O2 O 0.5000 0.0000 0.3796(5)
H26 H 0.5039 0.4732 0.9190
H27 H 0.5039 0.0268 0.4190
N11 N 0.8731(5) 0.95086(18) 0.3828(5)
O2_2 O 0.5000 1.0000 0.3796(5)
H28 H 0.4961 0.9732 0.4190
C19 C 0.9564(6) 0.8579(2) 0.5738(5)
H11 H 0.8777 0.8442 0.5465
H12 H 0.9943 0.8028 0.6846
C21 C 0.9303(6) 0.9297(2) 0.4487(5)
C19_2 C 0.0436(6) 0.1421(2) 0.5738(5)
H11_2 H 0.1223 0.1558 0.5465
H12_2 H 0.0057 0.1972 0.6846
C21_2 C 0.0697(6) 0.0703(2) 0.4487(5)
N4 N 0.1269(5) 0.04914(18) 0.3828(5)
Ag4 Ag 0.28749(4) 0.012758(12) 0.28489(8)
N8 N 0.3829(6) 0.0496(2) 0.1398(5)
C11_2 C 0.5385(6) 0.09726(19) 0.0063(4)
H7_2 H 0.6899 0.0471 0.0117
C14_2 C 0.4503(6) 0.0706(2) 0.0805(5)
C1_2 C 0.7579(6) 0.38641(19) 0.7679(6)
C2_2 C 0.7626(5) 0.33158(16) 0.7711(6)
C3_2 C 0.7952(7) 0.3076(3) 0.8695(6)
H1_2 H 0.8097 0.3262 0.9341
C4_2 C 0.8059(7) 0.2556(2) 0.8706(5)
H2_2 H 0.8320 0.2392 0.9356
C5_2 C 0.7784(5) 0.22749(14) 0.7761(7)
C6_2 C 0.7429(7) 0.2514(2) 0.6801(5)
H3_2 H 0.7235 0.2326 0.6164
C7_2 C 0.7359(8) 0.3042(2) 0.6780(6)
H4_2 H 0.7129 0.3207 0.6123
C8_2 C 0.7006(5) 0.14816(17) 0.8572(4)
C9_2 C 0.5785(5) 0.16775(17) 0.8855(4)
H5_2 H 0.5511 0.1984 0.8546
C10_2 C 0.4978(6) 0.1432(2) 0.9576(5)
H6_2 H 0.4150 0.1567 0.9751
C12_2 C 0.6620(6) 0.07746(19) 0.9798(4)
C13_2 C 0.7432(6) 0.1027(2) 0.9067(5)
H8_2 H 0.8266 0.0896 0.8897
C15_2 C 0.8557(5) 0.14697(16) 0.6971(4)
C16_2 C 0.8089(5) 0.1016(2) 0.6543(5)
H9_2 H 0.7296 0.0881 0.6810
C17_2 C 0.8774(5) 0.07633(18) 0.5737(4)
H10_2 H 0.8455 0.0456 0.5465
C18_2 C 0.9951(5) 0.09651(18) 0.5321(5)
C20_2 C 0.9735(6) 0.16674(18) 0.6560(5)
N1_2 N 0.7548(6) 0.42897(16) 0.7626(6)
N2_2 N 0.7843(4) 0.17332(11) 0.7805(6)
C22_2 C 0.2421(6) 0.88641(19) 0.2679(6)
C23_2 C 0.2374(5) 0.83158(16) 0.2711(6)
C24_2 C 0.2048(7) 0.8076(3) 0.3695(6)
H14_2 H 0.1903 0.8262 0.4341
C25_2 C 0.1941(7) 0.7556(2) 0.3706(5)
H15_2 H 0.1680 0.7392 0.4356
C26_2 C 0.2216(5) 0.72749(14) 0.2761(7)
C27_2 C 0.2571(7) 0.7514(2) 0.1801(5)
H16_2 H 0.2765 0.7326 0.1164
C28_2 C 0.2641(8) 0.8042(2) 0.1780(6)
H17_2 H 0.2871 0.8207 0.1123
C29_2 C 0.2994(5) 0.64816(17) 0.3572(4)
C30_2 C 0.4215(5) 0.66775(17) 0.3855(4)
H18_2 H 0.4489 0.6984 0.3546
C31_2 C 0.5022(6) 0.6432(2) 0.4576(5)
H19_2 H 0.5850 0.6567 0.4751
C32_2 C 0.4615(6) 0.59726(19) 0.5063(4)
C33_2 C 0.3380(6) 0.57746(19) 0.4798(4)
H20_2 H 0.3101 0.5471 0.5117
C34_2 C 0.2568(6) 0.6027(2) 0.4067(5)
H21_2 H 0.1734 0.5896 0.3897
C35_2 C 0.5497(6) 0.5706(2) 0.5805(5)
C36_2 C 0.1443(5) 0.64697(16) 0.1971(4)
C37_2 C 0.1911(5) 0.6016(2) 0.1543(5)
H22_2 H 0.2704 0.5881 0.1810
C38_2 C 0.1226(5) 0.57633(18) 0.0737(4)
H23_2 H 0.1545 0.5456 0.0465
C39_2 C 0.0049(5) 0.59651(18) 0.0321(5)
C41_2 C 0.0265(6) 0.66674(18) 0.1560(5)
N5_2 N 0.2452(6) 0.92897(16) 0.2626(6)
N6_2 N 0.2157(4) 0.67332(11) 0.2805(6)
N7_2 N 0.6171(6) 0.5496(2) 0.6398(5)
N10 N 0.8731(5) 0.54914(18) 0.8828(5)
C42_2 C 0.9303(6) 0.5703(2) 0.9487(5)
C40_2 C 0.9564(6) 0.6421(2) 0.0738(5)
H24_2 H 0.8777 0.6558 0.0465
H25_2 H 0.9943 0.6972 0.1846
C43 C 0.6112(8) 0.9149(4) 0.6532(7)
F1 F 0.6817(6) 0.9531(3) 0.6172(6)
F2 F 0.6929(6) 0.8878(3) 0.7164(5)
F3 F 0.5218(5) 0.9339(2) 0.7255(5)
O3 O 0.4703(6) 0.83793(19) 0.6015(6)
O4 O 0.6478(6) 0.8633(3) 0.4779(5)
O5 O 0.4493(6) 0.9137(2) 0.4939(5)
S1 S 0.53564(19) 0.87763(8) 0.54451(19)
C43_2 C 0.3888(8) 0.0851(4) 0.6532(7)
F1_2 F 0.3183(6) 0.0469(3) 0.6172(6)
F2_2 F 0.3071(6) 0.1122(3) 0.7164(5)
F3_2 F 0.4782(5) 0.0661(2) 0.7255(5)
O3_2 O 0.5297(6) 0.16207(19) 0.6015(6)
O4_2 O 0.3522(6) 0.1367(3) 0.4779(5)
O5_2 O 0.5507(6) 0.0863(2) 0.4939(5)
S1_2 S 0.46436(19) 0.12237(8) 0.54451(19)
C43_3 C 0.6112(8) 0.5851(4) 0.1532(7)
F1_3 F 0.6817(6) 0.5469(3) 0.1172(6)
F2_3 F 0.6929(6) 0.6122(3) 0.2164(5)
F3_3 F 0.5218(5) 0.5661(2) 0.2255(5)
O3_3 O 0.4703(6) 0.66207(19) 0.1015(6)
S1_3 S 0.53564(19) 0.62237(8) 0.04451(19)
O4_3 O 0.6478(6) 0.6367(3) 0.9779(5)
O5_3 O 0.4493(6) 0.5863(2) 0.9939(5)
C43_4 C 0.3888(8) 0.4149(4) 0.1532(7)
F1_4 F 0.3183(6) 0.4531(3) 0.1172(6)
F2_4 F 0.3071(6) 0.3878(3) 0.2164(5)
F3_4 F 0.4782(5) 0.4339(2) 0.2255(5)
O3_4 O 0.5297(6) 0.33793(19) 0.1015(6)
S1_4 S 0.46436(19) 0.37763(8) 0.04451(19)
O4_4 O 0.3522(6) 0.3633(3) 0.9779(5)
O5_4 O 0.5507(6) 0.4137(2) 0.9939(5)
loop_
_geom_bond_atom_site_label_1
_geom_bond_atom_site_label_2
_geom_bond_site_symmetry_1
_geom_bond_site_symmetry_2
H24 C40 1_555 1_555
Ag6 N9 1_555 1_555
N9 C42 1_555 1_555
C14 C11 1_555 1_555
N3 C14 1_555 1_555
Ag3 N3 1_555 1_555
Ag6 N1 1_555 1_555
C1 C2 1_555 1_555
C2 C3 1_555 1_555
C3 H1 1_555 1_555
C4 C3 1_555 1_555
H2 C4 1_555 1_555
C5 C4 1_555 1_555
C6 C5 1_555 1_555
H3 C6 1_555 1_555
C7 C2 1_555 1_555
H4 C7 1_555 1_555
C8 C9 1_555 1_555
C9 H5 1_555 1_555
C10 C9 1_555 1_555
H6 C10 1_555 1_555
C13 C8 1_555 1_555
H8 C13 1_555 1_555
C15 C16 1_555 1_555
C16 H9 1_555 1_555
C17 C16 1_555 1_555
H10 C17 1_555 1_555
C18 C17 1_555 1_555
C20 C15 1_555 1_555
N1 C1 1_555 1_555
N2 C5 1_555 1_555
O1 Ag6 1_555 1_555
H13 O1 1_555 1_555
Ag5 O1 1_555 1_555
C22 C23 1_555 1_555
C23 C24 1_555 1_555
C24 H14 1_555 1_555
C25 C24 1_555 1_555
H15 C25 1_555 1_555
C26 C25 1_555 1_555
C27 C26 1_555 1_555
H16 C27 1_555 1_555
C28 C23 1_555 1_555
H17 C28 1_555 1_555
C29 C30 1_555 1_555
C30 H18 1_555 1_555
C31 C30 1_555 1_555
H19 C31 1_555 1_555
C32 C31 1_555 1_555
C33 C32 1_555 1_555
H20 C33 1_555 1_555
C34 C29 1_555 1_555
H21 C34 1_555 1_555
C35 C32 1_555 1_555
C36 C37 1_555 1_555
C37 H22 1_555 1_555
C38 C37 1_555 1_555
H23 C38 1_555 1_555
C39 C38 1_555 1_555
C41 C36 1_555 1_555
N5 C22 1_555 1_555
N6 C26 1_555 1_555
N7 Ag6 1_555 1_555
H26 O1 1_555 1_555
H27 O2 1_555 1_555
C6 C7 1_555 1_555
C8 N2 1_555 1_555
C12 C13 1_555 1_555
C15 N2 1_555 1_555
C27 C28 1_555 1_555
C29 N6 1_555 1_555
C33 C34 1_555 1_555
C35 N7 1_555 1_555
C36 N6 1_555 1_555
N11 Ag3 1_555 1_555
O2_2 Ag3 1_555 1_555
H28 O2_2 1_555 1_555
H11 C19 1_555 1_555
N11 C21 1_555 1_555
H11_2 C19_2 1_555 1_555
N4 C21_2 1_555 1_555
Ag4 N4 1_555 1_555
N8 Ag4 1_555 1_555
O2 Ag4 1_555 1_555
C14_2 C11_2 1_555 1_555
N8 C14_2 1_555 1_555
Ag5 N1_2 1_555 1_555
C1_2 C2_2 1_555 1_555
C2_2 C3_2 1_555 1_555
C3_2 H1_2 1_555 1_555
C4_2 C3_2 1_555 1_555
H2_2 C4_2 1_555 1_555
C5_2 C4_2 1_555 1_555
C6_2 C5_2 1_555 1_555
H3_2 C6_2 1_555 1_555
C7_2 C2_2 1_555 1_555
H4_2 C7_2 1_555 1_555
C8_2 C9_2 1_555 1_555
C9_2 H5_2 1_555 1_555
C10_2 C9_2 1_555 1_555
H6_2 C10_2 1_555 1_555
C13_2 C8_2 1_555 1_555
H8_2 C13_2 1_555 1_555
C15_2 C16_2 1_555 1_555
C16_2 H9_2 1_555 1_555
C17_2 C16_2 1_555 1_555
H10_2 C17_2 1_555 1_555
C18_2 C17_2 1_555 1_555
C20_2 C15_2 1_555 1_555
N1_2 C1_2 1_555 1_555
N2_2 C5_2 1_555 1_555
C22_2 C23_2 1_555 1_555
C23_2 C24_2 1_555 1_555
C24_2 H14_2 1_555 1_555
C25_2 C24_2 1_555 1_555
H15_2 C25_2 1_555 1_555
C26_2 C25_2 1_555 1_555
C27_2 C26_2 1_555 1_555
H16_2 C27_2 1_555 1_555
C28_2 C23_2 1_555 1_555
H17_2 C28_2 1_555 1_555
C29_2 C30_2 1_555 1_555
C30_2 H18_2 1_555 1_555
C31_2 C30_2 1_555 1_555
H19_2 C31_2 1_555 1_555
C32_2 C31_2 1_555 1_555
C33_2 C32_2 1_555 1_555
H20_2 C33_2 1_555 1_555
C34_2 C29_2 1_555 1_555
H21_2 C34_2 1_555 1_555
C35_2 C32_2 1_555 1_555
C36_2 C37_2 1_555 1_555
C37_2 H22_2 1_555 1_555
C38_2 C37_2 1_555 1_555
H23_2 C38_2 1_555 1_555
C39_2 C38_2 1_555 1_555
C41_2 C36_2 1_555 1_555
N5_2 C22_2 1_555 1_555
N6_2 C26_2 1_555 1_555
N7_2 Ag5 1_555 1_555
N10 Ag5 1_555 1_555
C6_2 C7_2 1_555 1_555
C8_2 N2_2 1_555 1_555
C12_2 C13_2 1_555 1_555
C15_2 N2_2 1_555 1_555
C27_2 C28_2 1_555 1_555
C29_2 N6_2 1_555 1_555
C33_2 C34_2 1_555 1_555
C35_2 N7_2 1_555 1_555
C36_2 N6_2 1_555 1_555
N10 C42_2 1_555 1_555
H24_2 C40_2 1_555 1_555
C43 F1 1_555 1_555
F2 C43 1_555 1_555
F3 C43 1_555 1_555
O3 S1 1_555 1_555
O4 S1 1_555 1_555
O5 S1 1_555 1_555
S1 C43 1_555 1_555
C43_2 F1_2 1_555 1_555
F2_2 C43_2 1_555 1_555
F3_2 C43_2 1_555 1_555
O3_2 S1_2 1_555 1_555
O4_2 S1_2 1_555 1_555
O5_2 S1_2 1_555 1_555
S1_2 C43_2 1_555 1_555
C43_3 F1_3 1_555 1_555
F2_3 C43_3 1_555 1_555
F3_3 C43_3 1_555 1_555
O3_3 S1_3 1_555 1_555
S1_3 C43_3 1_555 1_555
C43_4 F1_4 1_555 1_555
F2_4 C43_4 1_555 1_555
F3_4 C43_4 1_555 1_555
O3_4 S1_4 1_555 1_555
S1_4 C43_4 1_555 1_555

#END
