
###############################################################################
#
# This file contains modified crystal structure data generated from the
# MOF subset of the Cambridge Structural Database (CSD) v543 
# hosted by the Cambridge Crystallographic Data Centre (CCDC).
#
# This work is licensed under the Creative Commons
# Attribution-NonCommercial-ShareAlike 4.0 International License.
# To view a copy of this license, visit
# http://creativecommons.org/licenses/by-nc-sa/4.0/
# or send a letter to
# Creative Commons, PO Box 1866, Mountain View, CA 94042, USA.
#
# CIF created using the CSD Python API on 29 September 2022
# The structure has been converted into the P1 space group
# The structure has a 3D framework
# The original CSD entry OKILAW is in the orthorhombic crystal system
# The original CSD entry OKILAW is in a Sohncke space group
# The framework has been calculated to contain at least 10.0% void space
# The void calculation uses a probe of radius 1.32A, grid spacing 0.4
#
###############################################################################

data_OKILAW
_chemical_formula_moiety         '(C176 H104 Cd16 N32 O68)n'
_symmetry_cell_setting           triclinic
_symmetry_space_group_name_H-M   'P 1'
_symmetry_Int_Tables_number      1
_space_group_name_Hall           'P 1'
loop_
_symmetry_equiv_pos_site_id
_symmetry_equiv_pos_as_xyz
1 x,y,z
_cell_length_a                   16.224(3)
_cell_length_b                   16.644(3)
_cell_length_c                   18.176(4)
_cell_angle_alpha                90
_cell_angle_beta                 90
_cell_angle_gamma                90
_cell_volume                     4908.11
loop_
_atom_site_label
_atom_site_type_symbol
_atom_site_fract_x
_atom_site_fract_y
_atom_site_fract_z
H3 H 0.0015 0.2374 0.0994
O11 O 0.10316(16) 0.23800(17) 0.1062(2)
O12 O 0.20405(15) 0.15339(17) 0.13435(18)
N6 N 0.09635(18) 0.0267(2) 0.14875(19)
C31 C 0.0696(2) 0.1030(2) 0.1350(2)
C33 C 0.1279(2) 0.1697(3) 0.1250(3)
Cd7 Cd 0.317444(15) 0.230691(16) 0.113505(15)
Cd9 Cd 0.232370(18) 0.025740(18) 0.185840(17)
Cd1 Cd 0.733858(16) 0.219946(15) 0.081336(15)
Cd2 Cd 0.818251(17) 0.017133(18) 0.152464(18)
Cd4 Cd 0.767630(18) 0.525740(18) 0.314160(17)
O1 O 0.80758(18) 0.32094(17) 0.00359(15)
O2 O 0.8705(2) 0.4403(2) 0.00746(18)
O3 O 0.8809(2) 0.5561(2) 0.09802(19)
H1 H 0.8807 0.5180 0.0694
O4 O 0.8282(2) 0.58602(18) 0.20635(18)
O5 O 0.70093(14) 0.09319(16) 0.13565(16)
O6 O 0.60190(18) 0.01662(19) 0.1786(2)
H2 H 0.5520 0.0190 0.1854
O7 O 0.45222(18) 0.0207(2) 0.1924(3)
O8 O 0.35014(15) 0.10639(16) 0.17464(16)
O9 O 0.85137(16) 0.14828(16) 0.11083(18)
O10 O 0.95102(16) 0.23636(18) 0.0981(2)
O17 O 0.7101(3) 0.4546(2) 0.4102(2)
H5 H 0.6862 0.4793 0.4434
H6 H 0.6630 0.4289 0.3893
N1 N 0.76213(19) 0.32971(18) 0.14628(18)
N2 N 0.7594(2) 0.43433(19) 0.22409(18)
N3 N 0.59367(17) 0.21759(18) 0.10521(17)
N4 N 0.45655(17) 0.22382(19) 0.12315(17)
N5 N 0.95840(18) 0.0248(2) 0.1435(2)
C1 C 0.6811(3) 0.3090(3) 0.2597(2)
C2 C 0.7039(3) 0.2299(3) 0.2758(3)
H7 H 0.7550 0.2105 0.2607
C3 C 0.6516(4) 0.1821(3) 0.3132(3)
H8 H 0.6682 0.1308 0.3270
C4 C 0.5718(4) 0.2093(4) 0.3317(4)
H9 H 0.5340 0.1749 0.3538
C5 C 0.5507(3) 0.2879(4) 0.3161(4)
H10 H 0.4994 0.3077 0.3301
C6 C 0.6063(3) 0.3375(3) 0.2796(3)
H11 H 0.5919 0.3904 0.2689
C7 C 0.7370(2) 0.3574(2) 0.2121(2)
C8 C 0.8034(2) 0.3910(2) 0.1141(2)
C9 C 0.8035(2) 0.4554(2) 0.1618(2)
C10 C 0.8307(3) 0.3826(3) 0.0369(2)
C11 C 0.8402(3) 0.5371(3) 0.1571(3)
C12 C 0.5259(2) 0.3498(2) 0.0834(3)
C13 C 0.5918(3) 0.3854(3) 0.0488(3)
H12 H 0.6365 0.3540 0.0345
C14 C 0.5928(3) 0.4676(3) 0.0350(3)
H13 H 0.6381 0.4912 0.0124
C15 C 0.5259(4) 0.5137(3) 0.0550(4)
H14 H 0.5246 0.5683 0.0440
C16 C 0.4625(4) 0.4792(3) 0.0907(5)
H15 H 0.4183 0.5110 0.1051
C17 C 0.4608(3) 0.3978(3) 0.1068(4)
H16 H 0.4169 0.3756 0.1327
C18 C 0.5252(2) 0.2632(2) 0.1019(2)
C19 C 0.5674(2) 0.1454(2) 0.1321(2)
C20 C 0.4829(2) 0.1489(2) 0.1428(2)
C21 C 0.6267(2) 0.0818(2) 0.1487(3)
C22 C 0.4249(2) 0.0886(3) 0.1719(2)
C30 C 0.9845(2) 0.1021(2) 0.1306(2)
C32 C 0.9259(2) 0.1658(2) 0.1124(3)
O19 O 0.64986(15) 0.60639(16) 0.32536(16)
O21 O 0.79595(15) 0.65339(17) 0.36565(18)
O22 O 0.84114(19) 0.07864(18) 0.26898(19)
N10 N 0.90365(18) 0.5267(2) 0.35125(19)
Cd3 Cd 0.817444(15) 0.269309(16) 0.886495(15)
O15 O 0.6906(3) 0.0577(2) 0.97122(18)
O16 O 0.75498(17) 0.17495(16) 0.96606(15)
N7 N 0.73183(19) 0.06779(18) 0.73885(18)
N8 N 0.76980(19) 0.16527(18) 0.81576(17)
C34 C 0.7993(2) 0.1876(3) 0.6824(2)
C35 C 0.8308(3) 0.1502(3) 0.6206(3)
H22 H 0.8317 0.0944 0.6185
C36 C 0.8612(4) 0.1944(4) 0.5614(3)
H23 H 0.8822 0.1686 0.5200
C37 C 0.8595(4) 0.2782(4) 0.5655(3)
H24 H 0.8769 0.3089 0.5257
C38 C 0.8324(4) 0.3148(3) 0.6277(3)
H25 H 0.8351 0.3705 0.6313
C39 C 0.8007(3) 0.2709(3) 0.6860(3)
H26 H 0.7804 0.2972 0.7274
C40 C 0.7666(2) 0.1405(2) 0.7456(2)
C41 C 0.7109(2) 0.0446(2) 0.8078(2)
C42 C 0.7350(3) 0.1058(2) 0.8558(2)
C44 C 0.7252(3) 0.1130(3) 0.9356(2)
O18 O 0.85014(15) 0.39361(16) 0.82536(16)
O20 O 0.70405(15) 0.34661(17) 0.86565(18)
N9 N 0.95655(17) 0.27618(19) 0.87685(17)
C24 C 0.9643(3) 0.8557(3) 0.2022(4)
H17 H 0.9217 0.8857 0.2227
C25 C 0.9640(4) 0.7731(4) 0.2084(4)
H18 H 0.9205 0.7477 0.2323
N11 N 0.76817(19) 0.93221(18) 0.23885(18)
O13 O 0.65886(19) 0.92136(18) 0.76898(19)
O14 O 0.6520(3) 0.9457(2) 0.8871(2)
H4 H 0.6644 0.9820 0.9156
C43 C 0.6721(3) 0.9661(3) 0.8205(3)
Cd5 Cd 0.681749(17) 0.982867(18) 0.652464(18)
O7_2 O 0.04778(18) 0.9793(2) 0.6924(3)
O8_2 O 0.14986(15) 0.89361(16) 0.67464(16)
N4_2 N 0.04345(17) 0.77618(19) 0.62315(17)
H10_2 H 0.0006 0.6923 0.8301
C16_2 C 0.0375(4) 0.5208(3) 0.5907(5)
H15_2 H 0.0817 0.4890 0.6051
C17_2 C 0.0392(3) 0.6022(3) 0.6068(4)
H16_2 H 0.0831 0.6244 0.6327
C20_2 C 0.0171(2) 0.8511(2) 0.6428(2)
C22_2 C 0.0751(2) 0.9114(3) 0.6719(2)
Cd6 Cd 0.182556(15) 0.769309(16) 0.613505(15)
Cd8 Cd 0.267630(18) 0.974260(18) 0.685840(17)
O14_2 O 0.8480(3) 0.0543(2) 0.3871(2)
H4_2 H 0.8356 0.0180 0.4156
C23 C 0.4713(2) 0.1056(3) 0.6652(3)
C24_2 C 0.5357(3) 0.1443(3) 0.7022(4)
H17_2 H 0.5783 0.1143 0.7227
C25_2 C 0.5360(4) 0.2269(4) 0.7084(4)
H18_2 H 0.5795 0.2523 0.7323
C26 C 0.4730(4) 0.2719(3) 0.6799(4)
H19 H 0.4745 0.3276 0.6834
C27 C 0.4091(3) 0.2356(3) 0.6468(3)
H20 H 0.3652 0.2662 0.6296
C28 C 0.4077(3) 0.1517(3) 0.6380(3)
H21 H 0.3639 0.1273 0.6138
C29 C 0.4718(2) 0.0178(2) 0.6541(2)
C43_2 C 0.8279(3) 0.0339(3) 0.3205(3)
Cd1_2 Cd 0.766142(16) 0.780054(15) 0.581336(15)
Cd3_2 Cd 0.682556(15) 0.730691(16) 0.386495(15)
Cd4_2 Cd 0.732370(18) 0.474260(18) 0.814160(17)
O1_2 O 0.69242(18) 0.67906(17) 0.50359(15)
O2_2 O 0.6295(2) 0.5597(2) 0.50746(18)
O3_2 O 0.6191(2) 0.4439(2) 0.59802(19)
H1_2 H 0.6193 0.4820 0.5694
O4_2 O 0.6718(2) 0.41398(18) 0.70635(18)
O5_2 O 0.79907(14) 0.90681(16) 0.63565(16)
O6_2 O 0.89810(18) 0.98338(19) 0.6786(2)
H2_2 H 0.9480 0.9810 0.6854
O9_2 O 0.64863(16) 0.85172(16) 0.61083(18)
O10_2 O 0.54898(16) 0.76364(18) 0.5981(2)
H3_2 H 0.4985 0.7626 0.5994
O11_2 O 0.39684(16) 0.76200(17) 0.6062(2)
O12_2 O 0.29595(15) 0.84661(17) 0.63435(18)
O15_2 O 0.8094(3) 0.9423(2) 0.47122(18)
O16_2 O 0.74502(17) 0.82505(16) 0.46606(15)
O17_2 O 0.7899(3) 0.5454(2) 0.9102(2)
H5_2 H 0.8138 0.5207 0.9434
H6_2 H 0.8370 0.5711 0.8893
N1_2 N 0.73787(19) 0.67029(18) 0.64628(18)
N2_2 N 0.7406(2) 0.56567(19) 0.72409(18)
N3_2 N 0.90633(17) 0.78241(18) 0.60521(17)
N5_2 N 0.54160(18) 0.9752(2) 0.6435(2)
N6_2 N 0.40365(18) 0.9733(2) 0.64875(19)
N8_2 N 0.73020(19) 0.83473(18) 0.31576(17)
C1_2 C 0.8189(3) 0.6910(3) 0.7597(2)
C2_2 C 0.7961(3) 0.7701(3) 0.7758(3)
H7_2 H 0.7450 0.7895 0.7607
C3_2 C 0.8484(4) 0.8179(3) 0.8132(3)
H8_2 H 0.8318 0.8692 0.8270
C4_2 C 0.9282(4) 0.7907(4) 0.8317(4)
H9_2 H 0.9660 0.8251 0.8538
C5_2 C 0.9493(3) 0.7121(4) 0.8161(4)
C6_2 C 0.8937(3) 0.6625(3) 0.7796(3)
H11_2 H 0.9081 0.6096 0.7689
C7_2 C 0.7630(2) 0.6426(2) 0.7121(2)
C8_2 C 0.6966(2) 0.6090(2) 0.6141(2)
C9_2 C 0.6965(2) 0.5446(2) 0.6618(2)
C10_2 C 0.6693(3) 0.6174(3) 0.5369(2)
C11_2 C 0.6598(3) 0.4629(3) 0.6571(3)
C12_2 C 0.9741(2) 0.6502(2) 0.5834(3)
C13_2 C 0.9082(3) 0.6146(3) 0.5488(3)
H12_2 H 0.8635 0.6460 0.5345
C14_2 C 0.9072(3) 0.5324(3) 0.5350(3)
H13_2 H 0.8619 0.5088 0.5124
C15_2 C 0.9741(4) 0.4863(3) 0.5550(4)
H14_2 H 0.9754 0.4317 0.5440
C18_2 C 0.9748(2) 0.7368(2) 0.6019(2)
C19_2 C 0.9326(2) 0.8546(2) 0.6321(2)
C21_2 C 0.8733(2) 0.9182(2) 0.6487(3)
C30_2 C 0.5155(2) 0.8979(2) 0.6306(2)
C31_2 C 0.4304(2) 0.8970(2) 0.6350(2)
C32_2 C 0.5741(2) 0.8342(2) 0.6124(3)
C33_2 C 0.3721(2) 0.8303(3) 0.6250(3)
C34_2 C 0.7007(2) 0.8124(3) 0.1824(2)
C35_2 C 0.6692(3) 0.8498(3) 0.1206(3)
H22_2 H 0.6683 0.9056 0.1185
C36_2 C 0.6388(4) 0.8056(4) 0.0614(3)
H23_2 H 0.6178 0.8314 0.0200
C37_2 C 0.6405(4) 0.7218(4) 0.0655(3)
H24_2 H 0.6231 0.6911 0.0257
C38_2 C 0.6676(4) 0.6852(3) 0.1277(3)
H25_2 H 0.6649 0.6295 0.1313
C39_2 C 0.6993(3) 0.7291(3) 0.1860(3)
H26_2 H 0.7196 0.7028 0.2274
C40_2 C 0.7334(2) 0.8595(2) 0.2456(2)
C41_2 C 0.7891(2) 0.9554(2) 0.3078(2)
C42_2 C 0.7650(3) 0.8942(2) 0.3558(2)
C44_2 C 0.7748(3) 0.8870(3) 0.4356(2)
N9_2 N 0.54345(17) 0.72382(19) 0.37685(17)
N10_2 N 0.59635(18) 0.4733(2) 0.85125(19)
O3_3 O 0.1191(2) 0.0561(2) 0.40198(19)
H1_3 H 0.1193 0.0180 0.4306
O4_3 O 0.1718(2) 0.08602(18) 0.29365(18)
C11_3 C 0.1598(3) 0.0371(3) 0.3429(3)
C15_3 C 0.4741(4) 0.0137(3) 0.4450(4)
H14_3 H 0.4754 0.0683 0.4560
H15_3 H 0.5817 0.0110 0.3949
Cd1_3 Cd 0.266142(16) 0.719946(15) 0.418664(15)
Cd2_2 Cd 0.181749(17) 0.517133(18) 0.347536(18)
O1_3 O 0.19242(18) 0.82094(17) 0.49641(15)
O2_3 O 0.1295(2) 0.9403(2) 0.49254(18)
O5_3 O 0.29907(14) 0.59319(16) 0.36435(16)
O6_3 O 0.39810(18) 0.51662(19) 0.3214(2)
H2_3 H 0.4480 0.5190 0.3146
O7_3 O 0.54778(18) 0.5207(2) 0.3076(3)
O9_3 O 0.14863(16) 0.64828(16) 0.38917(18)
O10_3 O 0.04898(16) 0.73636(18) 0.4019(2)
O13_2 O 0.34114(19) 0.42136(18) 0.73102(19)
O14_3 O 0.3480(3) 0.4457(2) 0.6129(2)
H4_3 H 0.3356 0.4820 0.5844
O15_3 O 0.3094(3) 0.5577(2) 0.52878(18)
O16_3 O 0.24502(17) 0.67495(16) 0.53394(15)
O17_3 O 0.2899(3) 0.9546(2) 0.0898(2)
H5_3 H 0.3138 0.9793 0.0566
H6_3 H 0.3370 0.9289 0.1107
N1_3 N 0.23787(19) 0.82971(18) 0.35372(18)
N2_3 N 0.2406(2) 0.93433(19) 0.27591(18)
N3_3 N 0.40633(17) 0.71759(18) 0.39479(17)
N5_3 N 0.04160(18) 0.5248(2) 0.3565(2)
N7_2 N 0.26817(19) 0.56779(18) 0.76115(18)
N8_3 N 0.23020(19) 0.66527(18) 0.68424(17)
C1_3 C 0.3189(3) 0.8090(3) 0.2403(2)
C2_3 C 0.2961(3) 0.7299(3) 0.2242(3)
H7_3 H 0.2450 0.7105 0.2393
C3_3 C 0.3484(4) 0.6821(3) 0.1868(3)
H8_3 H 0.3318 0.6308 0.1730
C4_3 C 0.4282(4) 0.7093(4) 0.1683(4)
H9_3 H 0.4660 0.6749 0.1462
C5_3 C 0.4493(3) 0.7879(4) 0.1839(4)
H10_3 H 0.5006 0.8077 0.1699
C6_3 C 0.3937(3) 0.8375(3) 0.2204(3)
H11_3 H 0.4081 0.8904 0.2311
C7_3 C 0.2630(2) 0.8574(2) 0.2879(2)
C8_3 C 0.1966(2) 0.8910(2) 0.3859(2)
C9_3 C 0.1965(2) 0.9554(2) 0.3382(2)
C10_3 C 0.1693(3) 0.8826(3) 0.4631(2)
C12_3 C 0.4741(2) 0.8498(2) 0.4166(3)
C13_3 C 0.4082(3) 0.8854(3) 0.4512(3)
H12_3 H 0.3635 0.8540 0.4655
C14_3 C 0.4072(3) 0.9676(3) 0.4650(3)
H13_3 H 0.3619 0.9912 0.4876
C16_3 C 0.5375(4) 0.9792(3) 0.4093(5)
C17_3 C 0.5392(3) 0.8978(3) 0.3932(4)
H16_3 H 0.5831 0.8756 0.3673
C18_3 C 0.4748(2) 0.7632(2) 0.3981(2)
C19_3 C 0.4326(2) 0.6454(2) 0.3679(2)
C20_3 C 0.5171(2) 0.6489(2) 0.3572(2)
C21_3 C 0.3733(2) 0.5818(2) 0.3513(3)
C22_3 C 0.5751(2) 0.5886(3) 0.3281(2)
C24_3 C 0.0357(3) 0.3557(3) 0.2978(4)
H17_3 H 0.0783 0.3857 0.2773
C25_3 C 0.0360(4) 0.2731(4) 0.2916(4)
H18_3 H 0.0795 0.2477 0.2677
C30_3 C 0.0155(2) 0.6021(2) 0.3694(2)
C32_3 C 0.0741(2) 0.6658(2) 0.3876(3)
C34_3 C 0.2007(2) 0.6876(3) 0.8176(2)
C35_3 C 0.1692(3) 0.6502(3) 0.8794(3)
H22_3 H 0.1683 0.5944 0.8815
C36_3 C 0.1388(4) 0.6944(4) 0.9386(3)
H23_3 H 0.1178 0.6686 0.9800
C37_3 C 0.1405(4) 0.7782(4) 0.9345(3)
H24_3 H 0.1231 0.8089 0.9743
C38_3 C 0.1676(4) 0.8148(3) 0.8723(3)
H25_3 H 0.1649 0.8705 0.8687
C39_3 C 0.1993(3) 0.7709(3) 0.8140(3)
H26_3 H 0.2196 0.7972 0.7726
C40_3 C 0.2334(2) 0.6405(2) 0.7544(2)
C41_3 C 0.2891(2) 0.5446(2) 0.6922(2)
C42_3 C 0.2650(3) 0.6058(2) 0.6442(2)
C43_3 C 0.3279(3) 0.4661(3) 0.6795(3)
C44_3 C 0.2748(3) 0.6130(3) 0.5644(2)
Cd5_2 Cd 0.318251(17) 0.482867(18) 0.847536(18)
O22_2 O 0.15886(19) 0.57864(18) 0.23102(19)
N11_2 N 0.23183(19) 0.43221(18) 0.26115(18)
H3_3 H 0.9985 0.7374 0.4006
O11_3 O 0.89684(16) 0.73800(17) 0.3938(2)
C23_2 C 0.9713(2) 0.3944(3) 0.3348(3)
C26_2 C 0.9730(4) 0.2281(3) 0.3201(4)
H19_2 H 0.9745 0.1724 0.3166
C27_2 C 0.9091(3) 0.2644(3) 0.3532(3)
H20_2 H 0.8652 0.2338 0.3704
C28_2 C 0.9077(3) 0.3483(3) 0.3620(3)
H21_2 H 0.8639 0.3727 0.3862
C29_2 C 0.9718(2) 0.4822(2) 0.3459(2)
C31_3 C 0.9304(2) 0.6030(2) 0.3650(2)
C33_3 C 0.8721(2) 0.6697(3) 0.3750(3)
O14_4 O 0.1520(3) 0.5543(2) 0.1129(2)
H4_4 H 0.1644 0.5180 0.0844
O15_4 O 0.1906(3) 0.4423(2) 0.02878(18)
O16_4 O 0.25498(17) 0.32505(16) 0.03394(15)
N8_4 N 0.26980(19) 0.33473(18) 0.18424(17)
C34_4 C 0.2993(2) 0.3124(3) 0.3176(2)
C35_4 C 0.3308(3) 0.3498(3) 0.3794(3)
H22_4 H 0.3317 0.4056 0.3815
C36_4 C 0.3612(4) 0.3056(4) 0.4386(3)
H23_4 H 0.3822 0.3314 0.4800
C37_4 C 0.3595(4) 0.2218(4) 0.4345(3)
H24_4 H 0.3769 0.1911 0.4743
C38_4 C 0.3324(4) 0.1852(3) 0.3723(3)
H25_4 H 0.3351 0.1295 0.3687
C39_4 C 0.3007(3) 0.2291(3) 0.3140(3)
H26_4 H 0.2804 0.2028 0.2726
C40_4 C 0.2666(2) 0.3595(2) 0.2544(2)
C41_4 C 0.2109(2) 0.4554(2) 0.1922(2)
C42_4 C 0.2350(3) 0.3942(2) 0.1442(2)
C43_4 C 0.1721(3) 0.5339(3) 0.1795(3)
C44_4 C 0.2252(3) 0.3870(3) 0.0644(2)
Cd1_4 Cd 0.233858(16) 0.280054(15) 0.918664(15)
O1_4 O 0.30758(18) 0.17906(17) 0.99641(15)
O2_4 O 0.3705(2) 0.0597(2) 0.99254(18)
O5_4 O 0.20093(14) 0.40681(16) 0.86435(16)
O6_4 O 0.10190(18) 0.48338(19) 0.8214(2)
H2_4 H 0.0520 0.4810 0.8146
O9_4 O 0.35137(16) 0.35172(16) 0.88917(18)
O10_4 O 0.45102(16) 0.26364(18) 0.9019(2)
H3_4 H 0.5015 0.2626 0.9006
O11_4 O 0.60316(16) 0.26200(17) 0.8938(2)
O17_4 O 0.2101(3) 0.0454(2) 0.5898(2)
H5_4 H 0.1862 0.0207 0.5566
H6_4 H 0.1630 0.0711 0.6107
N1_4 N 0.26213(19) 0.17029(18) 0.85372(18)
N2_4 N 0.2594(2) 0.06567(19) 0.77591(18)
N3_4 N 0.09367(17) 0.28241(18) 0.89479(17)
N5_4 N 0.45840(18) 0.4752(2) 0.8565(2)
C1_4 C 0.1811(3) 0.1910(3) 0.7403(2)
C2_4 C 0.2039(3) 0.2701(3) 0.7242(3)
H7_4 H 0.2550 0.2895 0.7393
C3_4 C 0.1516(4) 0.3179(3) 0.6868(3)
H8_4 H 0.1682 0.3692 0.6730
C4_4 C 0.0718(4) 0.2907(4) 0.6683(4)
H9_4 H 0.0340 0.3251 0.6462
C5_4 C 0.0507(3) 0.2121(4) 0.6839(4)
C6_4 C 0.1063(3) 0.1625(3) 0.7204(3)
H11_4 H 0.0919 0.1096 0.7311
C7_4 C 0.2370(2) 0.1426(2) 0.7879(2)
C8_4 C 0.3034(2) 0.1090(2) 0.8859(2)
C9_4 C 0.3035(2) 0.0446(2) 0.8382(2)
C10_4 C 0.3307(3) 0.1174(3) 0.9631(2)
C12_4 C 0.0259(2) 0.1502(2) 0.9166(3)
C13_4 C 0.0918(3) 0.1146(3) 0.9512(3)
H12_4 H 0.1365 0.1460 0.9655
C14_4 C 0.0928(3) 0.0324(3) 0.9650(3)
H13_4 H 0.1381 0.0088 0.9876
C18_4 C 0.0252(2) 0.2368(2) 0.8981(2)
C19_4 C 0.0674(2) 0.3546(2) 0.8679(2)
C21_4 C 0.1267(2) 0.4182(2) 0.8513(3)
C23_3 C 0.5287(2) 0.6056(3) 0.8348(3)
C24_4 C 0.4643(3) 0.6443(3) 0.7978(4)
H17_4 H 0.4217 0.6143 0.7773
C25_4 C 0.4640(4) 0.7269(4) 0.7916(4)
H18_4 H 0.4205 0.7523 0.7677
C26_3 C 0.5270(4) 0.7719(3) 0.8201(4)
H19_3 H 0.5255 0.8276 0.8166
C27_3 C 0.5909(3) 0.7356(3) 0.8532(3)
H20_3 H 0.6348 0.7662 0.8704
C28_3 C 0.5923(3) 0.6517(3) 0.8620(3)
H21_3 H 0.6361 0.6273 0.8862
C29_3 C 0.5282(2) 0.5178(2) 0.8459(2)
C30_4 C 0.4845(2) 0.3979(2) 0.8694(2)
C31_4 C 0.5696(2) 0.3970(2) 0.8650(2)
C32_4 C 0.4259(2) 0.3342(2) 0.8876(3)
C33_4 C 0.6279(2) 0.3303(3) 0.8750(3)
O3_4 O 0.3809(2) 0.9439(2) 0.90198(19)
H1_4 H 0.3807 0.9820 0.9306
O4_4 O 0.3282(2) 0.91398(18) 0.79365(18)
C11_4 C 0.3402(3) 0.9629(3) 0.8429(3)
C15_4 C 0.0259(4) 0.9863(3) 0.9450(4)
H14_4 H 0.0246 0.9317 0.9560
O7_4 O 0.95222(18) 0.4793(2) 0.8076(3)
H10_4 H 0.9994 0.1923 0.6699
C16_4 C 0.9625(4) 0.0208(3) 0.9093(5)
C17_4 C 0.9608(3) 0.1022(3) 0.8932(4)
H16_4 H 0.9169 0.1244 0.8673
C20_4 C 0.9829(2) 0.3511(2) 0.8572(2)
C22_4 C 0.9249(2) 0.4114(3) 0.8281(2)
C23_4 C 0.0287(2) 0.8944(3) 0.1652(3)
C26_4 C 0.0270(4) 0.7281(3) 0.1799(4)
H19_4 H 0.0255 0.6724 0.1834
C27_4 C 0.0909(3) 0.7644(3) 0.1468(3)
H20_4 H 0.1348 0.7338 0.1296
C28_4 C 0.0923(3) 0.8483(3) 0.1380(3)
H21_4 H 0.1361 0.8727 0.1138
C29_4 C 0.0282(2) 0.9822(2) 0.1541(2)
H15_4 H 0.9183 0.9890 0.8949
loop_
_geom_bond_atom_site_label_1
_geom_bond_atom_site_label_2
_geom_bond_site_symmetry_1
_geom_bond_site_symmetry_2
O11 C33 1_555 1_555
O12 C33 1_555 1_555
C31 N6 1_555 1_555
C33 C31 1_555 1_555
Cd7 O12 1_555 1_555
Cd9 O12 1_555 1_555
N6 Cd9 1_555 1_555
Cd1 O1 1_555 1_555
Cd2 O5 1_555 1_555
Cd4 O4 1_555 1_555
O1 C10 1_555 1_555
O2 C10 1_555 1_555
O3 H1 1_555 1_555
O4 C11 1_555 1_555
O5 Cd1 1_555 1_555
O6 H2 1_555 1_555
O7 C22 1_555 1_555
O8 C22 1_555 1_555
O9 Cd1 1_555 1_555
O17 Cd4 1_555 1_555
H5 O17 1_555 1_555
H6 O17 1_555 1_555
N1 Cd1 1_555 1_555
N2 Cd4 1_555 1_555
N3 Cd1 1_555 1_555
N4 C18 1_555 1_555
N5 Cd2 1_555 1_555
C1 C2 1_555 1_555
C2 H7 1_555 1_555
C3 C2 1_555 1_555
H8 C3 1_555 1_555
C4 C3 1_555 1_555
H9 C4 1_555 1_555
C5 C4 1_555 1_555
H10 C5 1_555 1_555
C6 C1 1_555 1_555
H11 C6 1_555 1_555
C7 N1 1_555 1_555
C8 N1 1_555 1_555
C9 N2 1_555 1_555
C10 C8 1_555 1_555
C11 O3 1_555 1_555
C12 C13 1_555 1_555
C13 H12 1_555 1_555
C14 C13 1_555 1_555
H13 C14 1_555 1_555
C15 C14 1_555 1_555
H14 C15 1_555 1_555
C16 C15 1_555 1_555
H15 C16 1_555 1_555
C17 C12 1_555 1_555
H16 C17 1_555 1_555
C18 N3 1_555 1_555
C19 N3 1_555 1_555
C20 N4 1_555 1_555
C21 O5 1_555 1_555
C22 C20 1_555 1_555
C30 N5 1_555 1_555
C32 O9 1_555 1_555
Cd7 O8 1_555 1_555
Cd9 O8 1_555 1_555
O19 Cd4 1_555 1_555
O21 Cd4 1_555 1_555
O22 Cd2 1_555 1_555
N10 Cd4 1_555 1_555
Cd2 O9 1_555 1_555
O6 C21 1_555 1_555
O10 C32 1_555 1_555
N2 C7 1_555 1_555
N4 Cd7 1_555 1_555
C1 C7 1_555 1_555
C5 C6 1_555 1_555
C8 C9 1_555 1_555
C9 C11 1_555 1_555
C12 C18 1_555 1_555
C16 C17 1_555 1_555
C19 C20 1_555 1_555
C19 C21 1_555 1_555
C30 C32 1_555 1_555
O15 C44 1_555 1_555
N7 C40 1_555 1_555
N8 Cd3 1_555 1_555
C34 C35 1_555 1_555
C35 H22 1_555 1_555
C36 C35 1_555 1_555
H23 C36 1_555 1_555
C37 C36 1_555 1_555
H24 C37 1_555 1_555
C38 C37 1_555 1_555
H25 C38 1_555 1_555
C39 C34 1_555 1_555
H26 C39 1_555 1_555
C40 N8 1_555 1_555
C41 N7 1_555 1_555
C42 N8 1_555 1_555
C44 O16 1_555 1_555
O18 Cd3 1_555 1_555
O20 Cd3 1_555 1_555
N9 Cd3 1_555 1_555
Cd3 O16 1_555 1_555
C34 C40 1_555 1_555
C38 C39 1_555 1_555
C41 C42 1_555 1_555
C42 C44 1_555 1_555
C24 H17 1_555 1_555
C25 C24 1_555 1_555
H18 C25 1_555 1_555
O13 C43 1_555 1_555
O14 H4 1_555 1_555
C43 O14 1_555 1_555
Cd5 O13 1_555 1_555
O7_2 C22_2 1_555 1_555
O8_2 C22_2 1_555 1_555
H15_2 C16_2 1_555 1_555
H16_2 C17_2 1_555 1_555
C20_2 N4_2 1_555 1_555
C22_2 C20_2 1_555 1_555
Cd6 O8_2 1_555 1_555
Cd8 O8_2 1_555 1_555
N4_2 Cd6 1_555 1_555
C16_2 C17_2 1_555 1_555
O22 C43_2 1_555 1_555
O14_2 H4_2 1_555 1_555
C23 C24_2 1_555 1_555
C24_2 H17_2 1_555 1_555
C25_2 C24_2 1_555 1_555
H18_2 C25_2 1_555 1_555
C26 C25_2 1_555 1_555
H19 C26 1_555 1_555
C27 C26 1_555 1_555
H20 C27 1_555 1_555
C28 C23 1_555 1_555
H21 C28 1_555 1_555
C43_2 O14_2 1_555 1_555
C23 C29 1_555 1_555
C27 C28 1_555 1_555
Cd1_2 O1_2 1_555 1_555
Cd5 O5_2 1_555 1_555
Cd3_2 O1_2 1_555 1_555
Cd4_2 O4_2 1_555 1_555
O1_2 C10_2 1_555 1_555
O2_2 C10_2 1_555 1_555
O3_2 H1_2 1_555 1_555
O4_2 C11_2 1_555 1_555
O5_2 Cd1_2 1_555 1_555
O6_2 H2_2 1_555 1_555
O9_2 Cd1_2 1_555 1_555
O10_2 H3_2 1_555 1_555
O11_2 C33_2 1_555 1_555
O12_2 C33_2 1_555 1_555
O15_2 C44_2 1_555 1_555
O16_2 Cd1_2 1_555 1_555
O17_2 Cd4_2 1_555 1_555
H5_2 O17_2 1_555 1_555
H6_2 O17_2 1_555 1_555
N1_2 Cd1_2 1_555 1_555
N2_2 Cd4_2 1_555 1_555
N3_2 Cd1_2 1_555 1_555
N5_2 Cd5 1_555 1_555
N11 C40_2 1_555 1_555
N8_2 Cd3_2 1_555 1_555
C1_2 C2_2 1_555 1_555
C2_2 H7_2 1_555 1_555
C3_2 C2_2 1_555 1_555
H8_2 C3_2 1_555 1_555
C4_2 C3_2 1_555 1_555
H9_2 C4_2 1_555 1_555
C5_2 C4_2 1_555 1_555
C6_2 C1_2 1_555 1_555
H11_2 C6_2 1_555 1_555
C7_2 N1_2 1_555 1_555
C8_2 N1_2 1_555 1_555
C9_2 N2_2 1_555 1_555
C10_2 C8_2 1_555 1_555
C11_2 O3_2 1_555 1_555
C12_2 C13_2 1_555 1_555
C13_2 H12_2 1_555 1_555
C14_2 C13_2 1_555 1_555
H13_2 C14_2 1_555 1_555
C15_2 C14_2 1_555 1_555
H14_2 C15_2 1_555 1_555
C18_2 N3_2 1_555 1_555
C19_2 N3_2 1_555 1_555
C21_2 O5_2 1_555 1_555
C30_2 N5_2 1_555 1_555
C31_2 N6_2 1_555 1_555
C32_2 O9_2 1_555 1_555
C33_2 C31_2 1_555 1_555
C34_2 C35_2 1_555 1_555
C35_2 H22_2 1_555 1_555
C36_2 C35_2 1_555 1_555
H23_2 C36_2 1_555 1_555
C37_2 C36_2 1_555 1_555
H24_2 C37_2 1_555 1_555
C38_2 C37_2 1_555 1_555
H25_2 C38_2 1_555 1_555
C39_2 C34_2 1_555 1_555
H26_2 C39_2 1_555 1_555
C40_2 N8_2 1_555 1_555
C41_2 N11 1_555 1_555
C42_2 N8_2 1_555 1_555
C44_2 O16_2 1_555 1_555
Cd6 O12_2 1_555 1_555
Cd8 O12_2 1_555 1_555
O19 Cd3_2 1_555 1_555
O18 Cd4_2 1_555 1_555
O21 Cd3_2 1_555 1_555
O20 Cd4_2 1_555 1_555
N9_2 Cd3_2 1_555 1_555
N10_2 Cd4_2 1_555 1_555
Cd5 O9_2 1_555 1_555
Cd3_2 O16_2 1_555 1_555
O6_2 C21_2 1_555 1_555
O10_2 C32_2 1_555 1_555
N2_2 C7_2 1_555 1_555
N6_2 Cd8 1_555 1_555
C1_2 C7_2 1_555 1_555
C5_2 C6_2 1_555 1_555
C8_2 C9_2 1_555 1_555
C9_2 C11_2 1_555 1_555
C12_2 C18_2 1_555 1_555
C19_2 C21_2 1_555 1_555
C30_2 C31_2 1_555 1_555
C30_2 C32_2 1_555 1_555
C34_2 C40_2 1_555 1_555
C38_2 C39_2 1_555 1_555
C41_2 C42_2 1_555 1_555
C42_2 C44_2 1_555 1_555
Cd9 O4_3 1_555 1_555
O3_3 H1_3 1_555 1_555
O4_3 C11_3 1_555 1_555
C11_3 O3_3 1_555 1_555
H14_3 C15_3 1_555 1_555
Cd1_3 O1_3 1_555 1_555
Cd2_2 O5_3 1_555 1_555
Cd6 O1_3 1_555 1_555
O1_3 C10_3 1_555 1_555
O2_3 C10_3 1_555 1_555
O5_3 Cd1_3 1_555 1_555
O6_3 H2_3 1_555 1_555
O7_3 C22_3 1_555 1_555
O19 C22_3 1_555 1_555
O9_3 Cd1_3 1_555 1_555
O13_2 C43_3 1_555 1_555
O14_3 H4_3 1_555 1_555
O15_3 C44_3 1_555 1_555
O16_3 Cd1_3 1_555 1_555
H5_3 O17_3 1_555 1_555
H6_3 O17_3 1_555 1_555
N1_3 Cd1_3 1_555 1_555
N3_3 Cd1_3 1_555 1_555
N9_2 C18_3 1_555 1_555
N5_3 Cd2_2 1_555 1_555
N7_2 C40_3 1_555 1_555
N8_3 Cd6 1_555 1_555
C1_3 C2_3 1_555 1_555
C2_3 H7_3 1_555 1_555
C3_3 C2_3 1_555 1_555
H8_3 C3_3 1_555 1_555
C4_3 C3_3 1_555 1_555
H9_3 C4_3 1_555 1_555
C5_3 C4_3 1_555 1_555
H10_3 C5_3 1_555 1_555
C6_3 C1_3 1_555 1_555
H11_3 C6_3 1_555 1_555
C7_3 N1_3 1_555 1_555
C8_3 N1_3 1_555 1_555
C9_3 N2_3 1_555 1_555
C10_3 C8_3 1_555 1_555
C12_3 C13_3 1_555 1_555
C13_3 H12_3 1_555 1_555
C14_3 C13_3 1_555 1_555
H13_3 C14_3 1_555 1_555
C17_3 C12_3 1_555 1_555
H16_3 C17_3 1_555 1_555
C18_3 N3_3 1_555 1_555
C19_3 N3_3 1_555 1_555
C20_3 N9_2 1_555 1_555
C21_3 O5_3 1_555 1_555
C22_3 C20_3 1_555 1_555
C24_3 H17_3 1_555 1_555
C25_3 C24_3 1_555 1_555
H18_3 C25_3 1_555 1_555
C30_3 N5_3 1_555 1_555
C32_3 O9_3 1_555 1_555
C34_3 C35_3 1_555 1_555
C35_3 H22_3 1_555 1_555
C36_3 C35_3 1_555 1_555
H23_3 C36_3 1_555 1_555
C37_3 C36_3 1_555 1_555
H24_3 C37_3 1_555 1_555
C38_3 C37_3 1_555 1_555
H25_3 C38_3 1_555 1_555
C39_3 C34_3 1_555 1_555
H26_3 C39_3 1_555 1_555
C40_3 N8_3 1_555 1_555
C41_3 N7_2 1_555 1_555
C42_3 N8_3 1_555 1_555
C43_3 O14_3 1_555 1_555
C44_3 O16_3 1_555 1_555
Cd5_2 O13_2 1_555 1_555
O22_2 Cd2_2 1_555 1_555
N11_2 Cd2_2 1_555 1_555
Cd2_2 O9_3 1_555 1_555
Cd6 O16_3 1_555 1_555
O6_3 C21_3 1_555 1_555
O10_3 C32_3 1_555 1_555
N2_3 C7_3 1_555 1_555
N7_2 Cd5_2 1_555 1_555
C1_3 C7_3 1_555 1_555
C5_3 C6_3 1_555 1_555
C8_3 C9_3 1_555 1_555
C12_3 C18_3 1_555 1_555
C16_3 C17_3 1_555 1_555
C19_3 C20_3 1_555 1_555
C19_3 C21_3 1_555 1_555
C30_3 C32_3 1_555 1_555
C34_3 C40_3 1_555 1_555
C38_3 C39_3 1_555 1_555
C41_3 C42_3 1_555 1_555
C41_3 C43_3 1_555 1_555
C42_3 C44_3 1_555 1_555
O11_3 C33_3 1_555 1_555
O21 C33_3 1_555 1_555
N10 C29_2 1_555 1_555
H19_2 C26_2 1_555 1_555
C27_2 C26_2 1_555 1_555
H20_2 C27_2 1_555 1_555
C28_2 C23_2 1_555 1_555
H21_2 C28_2 1_555 1_555
C31_3 N10 1_555 1_555
C33_3 C31_3 1_555 1_555
C23_2 C29_2 1_555 1_555
C27_2 C28_2 1_555 1_555
O22_2 C43_4 1_555 1_555
O14_4 H4_4 1_555 1_555
O15_4 C44_4 1_555 1_555
N11_2 C40_4 1_555 1_555
N8_4 Cd7 1_555 1_555
C34_4 C35_4 1_555 1_555
C35_4 H22_4 1_555 1_555
C36_4 C35_4 1_555 1_555
H23_4 C36_4 1_555 1_555
C37_4 C36_4 1_555 1_555
H24_4 C37_4 1_555 1_555
C38_4 C37_4 1_555 1_555
H25_4 C38_4 1_555 1_555
C39_4 C34_4 1_555 1_555
H26_4 C39_4 1_555 1_555
C40_4 N8_4 1_555 1_555
C41_4 N11_2 1_555 1_555
C42_4 N8_4 1_555 1_555
C43_4 O14_4 1_555 1_555
C44_4 O16_4 1_555 1_555
Cd7 O16_4 1_555 1_555
C34_4 C40_4 1_555 1_555
C38_4 C39_4 1_555 1_555
C41_4 C42_4 1_555 1_555
C41_4 C43_4 1_555 1_555
C42_4 C44_4 1_555 1_555
Cd1_4 O1_4 1_555 1_555
Cd5_2 O5_4 1_555 1_555
O1_4 C10_4 1_555 1_555
O2_4 C10_4 1_555 1_555
O5_4 Cd1_4 1_555 1_555
O6_4 H2_4 1_555 1_555
O9_4 Cd1_4 1_555 1_555
O10_4 H3_4 1_555 1_555
O11_4 C33_4 1_555 1_555
O20 C33_4 1_555 1_555
H5_4 O17_4 1_555 1_555
H6_4 O17_4 1_555 1_555
N1_4 Cd1_4 1_555 1_555
N3_4 Cd1_4 1_555 1_555
N5_4 Cd5_2 1_555 1_555
N10_2 C29_3 1_555 1_555
C1_4 C2_4 1_555 1_555
C2_4 H7_4 1_555 1_555
C3_4 C2_4 1_555 1_555
H8_4 C3_4 1_555 1_555
C4_4 C3_4 1_555 1_555
H9_4 C4_4 1_555 1_555
C5_4 C4_4 1_555 1_555
C6_4 C1_4 1_555 1_555
H11_4 C6_4 1_555 1_555
C7_4 N1_4 1_555 1_555
C8_4 N1_4 1_555 1_555
C9_4 N2_4 1_555 1_555
C10_4 C8_4 1_555 1_555
C12_4 C13_4 1_555 1_555
C13_4 H12_4 1_555 1_555
C14_4 C13_4 1_555 1_555
H13_4 C14_4 1_555 1_555
C18_4 N3_4 1_555 1_555
C19_4 N3_4 1_555 1_555
C21_4 O5_4 1_555 1_555
C23_3 C24_4 1_555 1_555
C24_4 H17_4 1_555 1_555
C25_4 C24_4 1_555 1_555
H18_4 C25_4 1_555 1_555
C26_3 C25_4 1_555 1_555
H19_3 C26_3 1_555 1_555
C27_3 C26_3 1_555 1_555
H20_3 C27_3 1_555 1_555
C28_3 C23_3 1_555 1_555
H21_3 C28_3 1_555 1_555
C29_3 N5_4 1_555 1_555
C30_4 N5_4 1_555 1_555
C31_4 N10_2 1_555 1_555
C32_4 O9_4 1_555 1_555
C33_4 C31_4 1_555 1_555
Cd5_2 O9_4 1_555 1_555
O6_4 C21_4 1_555 1_555
O10_4 C32_4 1_555 1_555
N2_4 C7_4 1_555 1_555
C1_4 C7_4 1_555 1_555
C5_4 C6_4 1_555 1_555
C8_4 C9_4 1_555 1_555
C12_4 C18_4 1_555 1_555
C19_4 C21_4 1_555 1_555
C23_3 C29_3 1_555 1_555
C27_3 C28_3 1_555 1_555
C30_4 C31_4 1_555 1_555
C30_4 C32_4 1_555 1_555
Cd8 O4_4 1_555 1_555
O3_4 H1_4 1_555 1_555
O4_4 C11_4 1_555 1_555
C11_4 O3_4 1_555 1_555
H14_4 C15_4 1_555 1_555
O7_4 C22_4 1_555 1_555
O18 C22_4 1_555 1_555
H16_4 C17_4 1_555 1_555
C20_4 N9 1_555 1_555
C22_4 C20_4 1_555 1_555
C16_4 C17_4 1_555 1_555
H19_4 C26_4 1_555 1_555
C27_4 C26_4 1_555 1_555
H20_4 C27_4 1_555 1_555
C28_4 C23_4 1_555 1_555
H21_4 C28_4 1_555 1_555
C23_4 C29_4 1_555 1_555
C27_4 C28_4 1_555 1_555

#END
