
###############################################################################
#
# This file contains modified crystal structure data generated from the
# MOF subset of the Cambridge Structural Database (CSD) v543 
# hosted by the Cambridge Crystallographic Data Centre (CCDC).
#
# This work is licensed under the Creative Commons
# Attribution-NonCommercial-ShareAlike 4.0 International License.
# To view a copy of this license, visit
# http://creativecommons.org/licenses/by-nc-sa/4.0/
# or send a letter to
# Creative Commons, PO Box 1866, Mountain View, CA 94042, USA.
#
# CIF created using the CSD Python API on 29 September 2022
# The structure has been converted into the P1 space group
# The structure has a 3D framework
# The original CSD entry OKILEA is in the rhombohedral crystal system
# The framework has been calculated to contain at least 10.0% void space
# The void calculation uses a probe of radius 1.32A, grid spacing 0.4
#
###############################################################################

data_OKILEA
_chemical_formula_moiety         '(C198 H198 Mn29 N36 O126)n'
_symmetry_cell_setting           triclinic
_symmetry_space_group_name_H-M   'P 1'
_symmetry_Int_Tables_number      1
_space_group_name_Hall           'P 1'
loop_
_symmetry_equiv_pos_site_id
_symmetry_equiv_pos_as_xyz
1 x,y,z
_cell_length_a                   25.5178(3)
_cell_length_b                   25.5178(3)
_cell_length_c                   14.2324(4)
_cell_angle_alpha                90
_cell_angle_beta                 90
_cell_angle_gamma                120
_cell_volume                     8025.93
loop_
_atom_site_label
_atom_site_type_symbol
_atom_site_fract_x
_atom_site_fract_y
_atom_site_fract_z
C7 C 0.55869(12) 0.08391(15) 0.03579(17)
H7 H 0.5678 0.0542 0.0189
C8 C 0.56211(14) 0.10089(19) 0.12957(19)
H8 H 0.5730 0.0821 0.1753
C9 C 0.54929(17) 0.14577(19) 0.1548(2)
H9 H 0.5528 0.1579 0.2172
C10 C 0.53147(16) 0.17219(17) 0.0875(2)
H10 H 0.5215 0.2013 0.1048
Mn1 Mn 0.402434(16) 0.079699(15) 0.81217(2)
Mn2 Mn 0.5000 -0.0000 0.5000
N1 N 0.49446(9) 0.09064(9) 0.80942(12)
N2 N 0.57631(8) 0.08000(8) 0.82599(11)
O1 O 0.57676(8) 0.03375(10) 0.58772(11)
O2 O 0.63660(7) 0.04904(8) 0.70721(10)
O3 O 0.47945(9) 0.06282(9) 0.56203(11)
O4 O 0.41851(7) 0.06864(8) 0.66577(10)
O6 O 0.31044(9) 0.05497(10) 0.76296(15)
H3 H 0.2994 0.0813 0.7619
H4 H 0.2932 0.0291 0.7194
O7 O 0.55366(11) 0.06716(11) 0.39138(15)
H5 H 0.5465 0.0963 0.3935
H6 H 0.5914 0.0831 0.3808
C1 C 0.59090(10) 0.04849(11) 0.67103(14)
C2 C 0.55699(10) 0.06705(10) 0.73427(14)
C3 C 0.50658(10) 0.07402(10) 0.72421(14)
C4 C 0.46569(11) 0.06749(11) 0.64490(15)
C5 C 0.53758(10) 0.09399(11) 0.86752(14)
C6 C 0.54159(11) 0.11133(13) 0.96715(16)
C11 C 0.52829(13) 0.15565(14) 0.99352(19)
H11 H 0.5172 0.1745 0.9482
Mn5 Mn 0.656068(22) 0.069101(16) 0.85450(2)
N6 N 0.41333(8) 0.17036(11) 0.84068(11)
O11 O 0.38237(8) 0.07911(11) 0.95946(10)
O14 O 0.64235(14) 0.02013(9) 0.16913(14)
H12 H 0.6508 0.0390 0.1171
H13 H 0.6568 0.0456 0.2137
Mn2_2 Mn 0.5000 1.0000 0.5000
O5 O 0.35765(14) 0.97987(9) 0.83087(14)
H1 H 0.3492 0.9610 0.8829
H2 H 0.3432 0.9544 0.7863
Mn3 Mn 0.597566(16) 0.920301(15) 0.18783(2)
Mn4 Mn 0.343932(22) 0.930899(16) 0.14550(2)
N3 N 0.50554(9) 0.90936(9) 0.19058(12)
N4 N 0.42369(8) 0.92000(8) 0.17401(11)
N5 N 0.58667(8) 0.82964(11) 0.15932(11)
O8 O 0.42324(8) 0.96625(10) 0.41228(11)
O9 O 0.36340(7) 0.95096(8) 0.29279(10)
O10 O 0.61763(8) 0.92089(11) 0.04054(10)
O12 O 0.52055(9) 0.93718(9) 0.43797(11)
O13 O 0.58149(7) 0.93136(8) 0.33423(10)
O15 O 0.68956(9) 0.94503(10) 0.23704(15)
H14 H 0.7006 0.9187 0.2381
H15 H 0.7068 0.9709 0.2806
O16 O 0.44634(11) 0.93284(11) 0.60862(15)
H16 H 0.4535 0.9037 0.6065
H17 H 0.4086 0.9169 0.6192
C12 C 0.40910(10) 0.95151(11) 0.32897(14)
C13 C 0.44301(10) 0.93295(10) 0.26573(14)
C14 C 0.49342(10) 0.92598(10) 0.27579(14)
C15 C 0.53431(11) 0.93251(11) 0.35510(15)
C16 C 0.46242(10) 0.90601(11) 0.13248(14)
C17 C 0.45841(11) 0.88867(13) 0.03285(16)
C22 C 0.47171(13) 0.84435(14) 0.00648(19)
H22 H 0.4828 0.8255 0.0518
Mn2_3 Mn -0.0000 0.5000 0.5000
O5_2 O 0.02013(9) 0.37778(17) 0.83087(14)
H1_2 H 0.0390 0.3882 0.8829
H2_2 H 0.0456 0.3888 0.7863
Mn3_2 Mn 0.079699(15) 0.677265(22) 0.18783(2)
Mn4_2 Mn 0.069101(16) 0.413032(27) 0.14550(2)
N3_2 N 0.09064(9) 0.59618(13) 0.19058(12)
N4_2 N 0.08000(8) 0.50369(11) 0.17401(11)
N5_2 N 0.17036(11) 0.75702(14) 0.15932(11)
O8_2 O 0.03375(10) 0.45699(13) 0.41228(11)
O9_2 O 0.04904(8) 0.41244(11) 0.29279(10)
O10_2 O 0.07911(11) 0.69673(14) 0.04054(10)
O12_2 O 0.06282(9) 0.58337(13) 0.43797(11)
O13_2 O 0.06864(8) 0.65013(11) 0.33423(10)
O15_2 O 0.05497(10) 0.74453(13) 0.23704(15)
H14_2 H 0.0813 0.7819 0.2381
H15_2 H 0.0291 0.7359 0.2806
O16_2 O 0.06716(11) 0.51350(16) 0.60862(15)
H16_2 H 0.0963 0.5498 0.6065
H17_2 H 0.0831 0.4917 0.6192
C12_2 C 0.04849(11) 0.45759(15) 0.32897(14)
C13_2 C 0.06705(10) 0.51006(14) 0.26573(14)
C14_2 C 0.07402(10) 0.56744(14) 0.27579(14)
C15_2 C 0.06749(11) 0.60180(16) 0.35510(15)
C16_2 C 0.09399(11) 0.55641(15) 0.13248(14)
C17_2 C 0.11133(13) 0.56974(17) 0.03285(16)
C22_2 C 0.15565(14) 0.62736(19) 0.00648(19)
H22_2 H 0.1745 0.6573 0.0518
Mn1_2 Mn 0.920301(15) 0.322735(22) 0.81217(2)
Mn2_4 Mn 1.0000 0.5000 0.5000
N1_2 N 0.90936(9) 0.40382(13) 0.80942(12)
N2_2 N 0.92000(8) 0.49631(11) 0.82599(11)
O1_2 O 0.96625(10) 0.54301(13) 0.58772(11)
O2_2 O 0.95096(8) 0.58756(11) 0.70721(10)
O3_2 O 0.93718(9) 0.41663(13) 0.56203(11)
O4_2 O 0.93136(8) 0.34987(11) 0.66577(10)
O6_2 O 0.94503(10) 0.25547(13) 0.76296(15)
H3_2 H 0.9187 0.2181 0.7619
H4_2 H 0.9709 0.2641 0.7194
O7_2 O 0.93284(11) 0.48650(16) 0.39138(15)
H5_2 H 0.9037 0.4502 0.3935
H6_2 H 0.9169 0.5083 0.3808
C1_2 C 0.95151(11) 0.54241(15) 0.67103(14)
C2_2 C 0.93295(10) 0.48994(14) 0.73427(14)
C3_2 C 0.92598(10) 0.43256(14) 0.72421(14)
C4_2 C 0.93251(11) 0.39820(16) 0.64490(15)
C5_2 C 0.90601(11) 0.44359(15) 0.86752(14)
C6_2 C 0.88867(13) 0.43026(17) 0.96715(16)
C11_2 C 0.84435(14) 0.37264(19) 0.99352(19)
H11_2 H 0.8255 0.3427 0.9482
Mn5_2 Mn 0.930899(16) 0.586968(27) 0.85450(2)
N6_2 N 0.82964(11) 0.24298(14) 0.84068(11)
O11_2 O 0.92089(11) 0.30327(14) 0.95946(10)
O14_2 O 0.97987(9) 0.62222(17) 0.16913(14)
H12_2 H 0.9610 0.6118 0.1171
H13_2 H 0.9544 0.6112 0.2137
Mn1_3 Mn 0.677265(22) 0.597566(16) 0.81217(2)
Mn2_5 Mn 0.5000 0.5000 0.5000
N1_3 N 0.59618(13) 0.50554(9) 0.80942(12)
N2_3 N 0.50369(11) 0.42369(8) 0.82599(11)
O1_3 O 0.45699(13) 0.42324(8) 0.58772(11)
O2_3 O 0.41244(11) 0.36340(7) 0.70721(10)
O3_3 O 0.58337(13) 0.52055(9) 0.56203(11)
O4_3 O 0.65013(11) 0.58149(7) 0.66577(10)
O5_3 O 0.62222(17) 0.64235(14) 0.83087(14)
H1_3 H 0.6118 0.6508 0.8829
H2_3 H 0.6112 0.6568 0.7863
O6_3 O 0.74453(13) 0.68956(9) 0.76296(15)
H3_3 H 0.7819 0.7006 0.7619
H4_3 H 0.7359 0.7068 0.7194
O7_3 O 0.51350(16) 0.44634(11) 0.39138(15)
H5_3 H 0.5498 0.4535 0.3935
H6_3 H 0.4917 0.4086 0.3808
C1_3 C 0.45759(15) 0.40910(10) 0.67103(14)
C2_3 C 0.51006(14) 0.44301(10) 0.73427(14)
C3_3 C 0.56744(14) 0.49342(10) 0.72421(14)
C4_3 C 0.60180(16) 0.53431(11) 0.64490(15)
C5_3 C 0.55641(15) 0.46242(10) 0.86752(14)
C6_3 C 0.56974(17) 0.45841(11) 0.96715(16)
C11_3 C 0.62736(19) 0.47171(13) 0.99352(19)
H11_3 H 0.6573 0.4828 0.9482
Mn3_3 Mn 0.322735(22) 0.402434(16) 0.18783(2)
Mn4_3 Mn 0.586968(27) 0.656068(22) 0.14550(2)
Mn5_3 Mn 0.413032(27) 0.343932(22) 0.85450(2)
N3_3 N 0.40382(13) 0.49446(9) 0.19058(12)
N4_3 N 0.49631(11) 0.57631(8) 0.17401(11)
N5_3 N 0.24298(14) 0.41333(8) 0.15932(11)
N6_3 N 0.75702(14) 0.58667(8) 0.84068(11)
O8_3 O 0.54301(13) 0.57676(8) 0.41228(11)
O9_3 O 0.58756(11) 0.63660(7) 0.29279(10)
O10_3 O 0.30327(14) 0.38237(8) 0.04054(10)
O11_3 O 0.69673(14) 0.61763(8) 0.95946(10)
O12_3 O 0.41663(13) 0.47945(9) 0.43797(11)
O13_3 O 0.34987(11) 0.41851(7) 0.33423(10)
O14_3 O 0.37778(17) 0.35765(14) 0.16913(14)
H12_3 H 0.3882 0.3492 0.1171
H13_3 H 0.3888 0.3432 0.2137
O15_3 O 0.25547(13) 0.31044(9) 0.23704(15)
H14_3 H 0.2181 0.2994 0.2381
H15_3 H 0.2641 0.2932 0.2806
O16_3 O 0.48650(16) 0.55366(11) 0.60862(15)
H16_3 H 0.4502 0.5465 0.6065
H17_3 H 0.5083 0.5914 0.6192
C12_3 C 0.54241(15) 0.59090(10) 0.32897(14)
C13_3 C 0.48994(14) 0.55699(10) 0.26573(14)
C14_3 C 0.43256(14) 0.50658(10) 0.27579(14)
C15_3 C 0.39820(16) 0.46569(11) 0.35510(15)
C16_3 C 0.44359(15) 0.53758(10) 0.13248(14)
C17_3 C 0.43026(17) 0.54159(11) 0.03285(16)
C22_3 C 0.37264(19) 0.52829(13) 0.00648(19)
H22_3 H 0.3427 0.5172 0.0518
N1_4 N 0.16113(9) 0.42397(9) 0.14275(12)
O5_4 O 0.02432(14) 0.31320(9) 0.16420(14)
H1_4 H 0.0159 0.2943 0.2162
H2_4 H 0.0099 0.2877 0.1196
C1_4 C 0.25757(10) 0.38182(11) 0.00436(14)
C2_4 C 0.22366(10) 0.40038(10) 0.06760(14)
C3_4 C 0.17325(10) 0.40735(10) 0.05754(14)
C5_4 C 0.20425(10) 0.42732(11) 0.20085(14)
C6_4 C 0.20826(11) 0.44466(13) 0.30048(16)
C7_2 C 0.22536(12) 0.41724(15) 0.36912(17)
H7_2 H 0.2345 0.3875 0.3522
C8_2 C 0.22878(14) 0.43422(19) 0.46290(19)
H8_2 H 0.2397 0.4154 0.5086
C9_2 C 0.21596(17) 0.47910(19) 0.4881(2)
H9_2 H 0.2195 0.4912 0.5505
C10_2 C 0.19814(16) 0.50552(17) 0.4208(2)
H10_2 H 0.1882 0.5346 0.4381
C11_4 C 0.19496(13) 0.48898(14) 0.32685(19)
H11_4 H 0.1839 0.5078 0.2815
N1_5 N 0.57603(9) 0.73715(13) 0.14275(12)
O5_5 O 0.68680(9) 0.71111(17) 0.16420(14)
H1_5 H 0.7057 0.7215 0.2162
H2_5 H 0.7123 0.7221 0.1196
O6_4 O 0.61170(10) 0.58880(13) 0.09629(15)
H3_4 H 0.5854 0.5514 0.0952
H4_4 H 0.6376 0.5974 0.0527
C1_5 C 0.61818(11) 0.87574(15) 0.00436(14)
C2_5 C 0.59962(10) 0.82327(14) 0.06760(14)
C3_5 C 0.59265(10) 0.76589(14) 0.05754(14)
C5_5 C 0.57268(11) 0.77692(15) 0.20085(14)
C6_5 C 0.55534(13) 0.76359(17) 0.30048(16)
C7_3 C 0.58276(15) 0.80811(19) 0.36912(17)
H7_3 H 0.6125 0.8469 0.3522
C8_3 C 0.56578(19) 0.79455(24) 0.46290(19)
H8_3 H 0.5846 0.8242 0.5086
C9_3 C 0.52090(19) 0.73685(25) 0.4881(2)
H9_3 H 0.5088 0.7282 0.5505
C10_3 C 0.49448(17) 0.69261(23) 0.4208(2)
H10_3 H 0.4654 0.6535 0.4381
C11_5 C 0.51102(14) 0.70597(19) 0.32685(19)
H11_5 H 0.4922 0.6760 0.2815
N1_6 N 0.26285(13) 0.83887(9) 0.14275(12)
O5_6 O 0.28889(17) 0.97568(14) 0.16420(14)
H1_6 H 0.2785 0.9841 0.2162
H2_6 H 0.2779 0.9901 0.1196
C1_6 C 0.12426(15) 0.74243(10) 0.00436(14)
C2_6 C 0.17673(14) 0.77634(10) 0.06760(14)
C3_6 C 0.23411(14) 0.82675(10) 0.05754(14)
C5_6 C 0.22308(15) 0.79575(10) 0.20085(14)
C6_6 C 0.23641(17) 0.79174(11) 0.30048(16)
C7_4 C 0.19189(19) 0.77464(12) 0.36912(17)
H7_4 H 0.1531 0.7655 0.3522
C8_4 C 0.20545(24) 0.77122(14) 0.46290(19)
H8_4 H 0.1758 0.7603 0.5086
C9_4 C 0.26315(25) 0.78404(17) 0.4881(2)
H9_4 H 0.2718 0.7805 0.5505
C10_4 C 0.30739(23) 0.80186(16) 0.4208(2)
H10_4 H 0.3465 0.8118 0.4381
C11_6 C 0.29403(19) 0.80504(13) 0.32685(19)
H11_6 H 0.3240 0.8161 0.2815
N3_4 N 0.83887(9) 0.57603(9) 0.85725(12)
O14_4 O 0.97568(14) 0.68680(9) 0.83580(14)
H12_4 H 0.9841 0.7057 0.7838
H13_4 H 0.9901 0.7123 0.8804
C12_4 C 0.74243(10) 0.61818(11) 0.99564(14)
C13_4 C 0.77634(10) 0.59962(10) 0.93240(14)
C14_4 C 0.82675(10) 0.59265(10) 0.94246(14)
C16_4 C 0.79575(10) 0.57268(11) 0.79915(14)
C17_4 C 0.79174(11) 0.55534(13) 0.69952(16)
C18 C 0.77464(12) 0.58276(15) 0.63088(17)
H18 H 0.7655 0.6125 0.6478
C19 C 0.77122(14) 0.56578(19) 0.53710(19)
H19 H 0.7603 0.5846 0.4914
C20 C 0.78404(17) 0.52090(19) 0.5119(2)
H20 H 0.7805 0.5088 0.4495
C21 C 0.80186(16) 0.49448(17) 0.5792(2)
H21 H 0.8118 0.4654 0.5619
C22_4 C 0.80504(13) 0.51102(14) 0.67315(19)
H22_4 H 0.8161 0.4922 0.7185
N3_5 N 0.42397(9) 0.26285(13) 0.85725(12)
O14_5 O 0.31320(9) 0.28889(17) 0.83580(14)
H12_5 H 0.2943 0.2785 0.7838
H13_5 H 0.2877 0.2779 0.8804
O15_4 O 0.38830(10) 0.41120(13) 0.90371(15)
H14_4 H 0.4146 0.4486 0.9048
H15_4 H 0.3624 0.4026 0.9473
C12_5 C 0.38182(11) 0.12426(15) 0.99564(14)
C13_5 C 0.40038(10) 0.17673(14) 0.93240(14)
C14_5 C 0.40735(10) 0.23411(14) 0.94246(14)
C16_5 C 0.42732(11) 0.22308(15) 0.79915(14)
C17_5 C 0.44466(13) 0.23641(17) 0.69952(16)
C18_2 C 0.41724(15) 0.19189(19) 0.63088(17)
H18_2 H 0.3875 0.1531 0.6478
C19_2 C 0.43422(19) 0.20545(24) 0.53710(19)
H19_2 H 0.4154 0.1758 0.4914
C20_2 C 0.47910(19) 0.26315(25) 0.5119(2)
H20_2 H 0.4912 0.2718 0.4495
C21_2 C 0.50552(17) 0.30739(23) 0.5792(2)
H21_2 H 0.5346 0.3465 0.5619
C22_5 C 0.48898(14) 0.29403(19) 0.67315(19)
H22_5 H 0.5078 0.3240 0.7185
N3_6 N 0.73715(13) 0.16113(9) 0.85725(12)
O14_6 O 0.71111(17) 0.02432(14) 0.83580(14)
H12_6 H 0.7215 0.0159 0.7838
H13_6 H 0.7221 0.0099 0.8804
C12_6 C 0.87574(15) 0.25757(10) 0.99564(14)
C13_6 C 0.82327(14) 0.22366(10) 0.93240(14)
C14_6 C 0.76589(14) 0.17325(10) 0.94246(14)
C16_6 C 0.77692(15) 0.20425(10) 0.79915(14)
C17_6 C 0.76359(17) 0.20826(11) 0.69952(16)
C18_3 C 0.80811(19) 0.22536(12) 0.63088(17)
H18_3 H 0.8469 0.2345 0.6478
C19_3 C 0.79455(24) 0.22878(14) 0.53710(19)
H19_3 H 0.8242 0.2397 0.4914
C20_3 C 0.73685(25) 0.21596(17) 0.5119(2)
H20_3 H 0.7282 0.2195 0.4495
C21_3 C 0.69261(23) 0.19814(16) 0.5792(2)
H21_3 H 0.6535 0.1882 0.5619
C22_6 C 0.70597(19) 0.19496(13) 0.67315(19)
H22_6 H 0.6760 0.1839 0.7185
C18_4 C 0.44131(12) 0.91609(15) 0.96421(17)
H18_4 H 0.4322 0.9458 0.9811
C19_4 C 0.43789(14) 0.89911(19) 0.87043(19)
H19_4 H 0.4270 0.9179 0.8247
C20_4 C 0.45071(17) 0.85423(19) 0.8452(2)
H20_4 H 0.4472 0.8421 0.7828
C21_4 C 0.46853(16) 0.82781(17) 0.9125(2)
H21_4 H 0.4785 0.7987 0.8952
C18_5 C 0.08391(15) 0.52522(19) 0.96421(17)
H18_5 H 0.0542 0.4864 0.9811
C19_5 C 0.10089(19) 0.53878(24) 0.87043(19)
H19_5 H 0.0821 0.5091 0.8247
C20_5 C 0.14577(19) 0.59648(25) 0.8452(2)
H20_5 H 0.1579 0.6051 0.7828
C21_5 C 0.17219(17) 0.64072(23) 0.9125(2)
H21_5 H 0.2013 0.6798 0.8952
C7_5 C 0.91609(15) 0.47478(19) 0.03579(17)
H7_5 H 0.9458 0.5136 0.0189
C8_5 C 0.89911(19) 0.46122(24) 0.12957(19)
H8_5 H 0.9179 0.4909 0.1753
C9_5 C 0.85423(19) 0.40352(25) 0.1548(2)
H9_5 H 0.8421 0.3949 0.2172
C10_5 C 0.82781(17) 0.35928(23) 0.0875(2)
H10_5 H 0.7987 0.3202 0.1048
C7_6 C 0.52522(19) 0.44131(12) 0.03579(17)
H7_6 H 0.4864 0.4322 0.0189
C8_6 C 0.53878(24) 0.43789(14) 0.12957(19)
H8_6 H 0.5091 0.4270 0.1753
C9_6 C 0.59648(25) 0.45071(17) 0.1548(2)
H9_6 H 0.6051 0.4472 0.2172
C10_6 C 0.64072(23) 0.46853(16) 0.0875(2)
H10_6 H 0.6798 0.4785 0.1048
C18_6 C 0.47478(19) 0.55869(12) 0.96421(17)
H18_6 H 0.5136 0.5678 0.9811
C19_6 C 0.46122(24) 0.56211(14) 0.87043(19)
H19_6 H 0.4909 0.5730 0.8247
C20_6 C 0.40352(25) 0.54929(17) 0.8452(2)
H20_6 H 0.3949 0.5528 0.7828
C21_6 C 0.35928(23) 0.53147(16) 0.9125(2)
H21_6 H 0.3202 0.5215 0.8952
Mn2_6 Mn 0.1667 0.3333 0.8333
O1_4 O 0.24343(8) 0.36708(10) 0.92105(11)
O3_4 O 0.14612(9) 0.39615(9) 0.89536(11)
O4_4 O 0.08518(7) 0.40197(8) 0.99910(10)
O7_4 O 0.22033(11) 0.40049(11) 0.72471(15)
H5_4 H 0.2132 0.4296 0.7268
H6_4 H 0.2581 0.4164 0.7141
C4_4 C 0.13236(11) 0.40082(11) 0.97823(15)
Mn3_4 Mn 0.264233(16) 0.253634(15) 0.52116(2)
Mn4_4 Mn 0.010598(22) 0.264233(16) 0.47884(2)
N3_7 N 0.17221(9) 0.24269(9) 0.52391(12)
N4_4 N 0.09036(8) 0.25333(8) 0.50734(11)
N5_4 N 0.25333(8) 0.16298(11) 0.49266(11)
O8_4 O 0.08991(8) 0.29958(10) 0.74561(11)
O9_4 O 0.03007(7) 0.28429(8) 0.62612(10)
O10_4 O 0.28429(8) 0.25423(11) 0.37388(10)
O12_4 O 0.18722(9) 0.27051(9) 0.77130(11)
O13_4 O 0.24816(7) 0.26469(8) 0.66756(10)
O14_7 O 0.30902(14) 0.35346(9) 0.50246(14)
H12_7 H 0.3175 0.3723 0.4504
H13_7 H 0.3235 0.3789 0.5470
O15_5 O 0.35623(9) 0.27836(10) 0.57037(15)
H14_5 H 0.3673 0.2520 0.5714
H15_5 H 0.3735 0.3042 0.6139
O16_4 O 0.11301(11) 0.26617(11) 0.94195(15)
H16_4 H 0.1202 0.2370 0.9398
H17_4 H 0.0753 0.2502 0.9525
C12_7 C 0.07577(10) 0.28484(11) 0.66230(14)
C13_7 C 0.10968(10) 0.26628(10) 0.59906(14)
C14_7 C 0.16009(10) 0.25931(10) 0.60912(14)
C15_4 C 0.20098(11) 0.26584(11) 0.68843(15)
C16_7 C 0.12909(10) 0.23934(11) 0.46581(14)
C17_7 C 0.12508(11) 0.22200(13) 0.36618(16)
C18_7 C 0.10798(12) 0.24942(15) 0.29754(17)
H18_7 H 0.0989 0.2791 0.3144
C19_7 C 0.10456(14) 0.23244(19) 0.20376(19)
H19_7 H 0.0937 0.2512 0.1580
C20_7 C 0.11738(17) 0.18756(19) 0.1785(2)
H20_7 H 0.1139 0.1754 0.1161
C21_7 C 0.13520(16) 0.16114(17) 0.2458(2)
H21_7 H 0.1452 0.1320 0.2285
C22_7 C 0.13838(13) 0.17768(14) 0.33981(19)
H22_7 H 0.1495 0.1588 0.3851
Mn2_7 Mn 0.3333 0.1667 0.1667
N1_7 N 0.24269(9) 0.07049(13) 0.47609(12)
O1_5 O 0.29958(10) 0.20968(13) 0.25439(11)
O3_5 O 0.27051(9) 0.08330(13) 0.22870(11)
O4_5 O 0.26469(8) 0.01654(11) 0.33244(10)
O5_7 O 0.35346(9) 0.04445(17) 0.49754(14)
H1_7 H 0.3723 0.0549 0.5496
H2_7 H 0.3789 0.0555 0.4530
O7_5 O 0.26617(11) 0.15317(16) 0.05805(15)
H5_5 H 0.2370 0.1169 0.0602
H6_5 H 0.2502 0.1750 0.0475
C1_7 C 0.28484(11) 0.20908(15) 0.33770(14)
C2_7 C 0.26628(10) 0.15661(14) 0.40094(14)
C3_7 C 0.25931(10) 0.09923(14) 0.39088(14)
C4_5 C 0.26584(11) 0.06487(16) 0.31157(15)
C5_7 C 0.23934(11) 0.11026(15) 0.53419(14)
C6_7 C 0.22200(13) 0.09693(17) 0.63382(16)
C7_7 C 0.24942(15) 0.14145(19) 0.70246(17)
H7_7 H 0.2791 0.1803 0.6856
C8_7 C 0.23244(19) 0.12789(24) 0.79624(19)
H8_7 H 0.2512 0.1576 0.8420
C9_7 C 0.18756(19) 0.07019(25) 0.8215(2)
H9_7 H 0.1754 0.0616 0.8839
C10_7 C 0.16114(17) 0.02595(23) 0.7542(2)
C11_7 C 0.17768(14) 0.03931(19) 0.66019(19)
H11_7 H 0.1588 0.0094 0.6149
O8_5 O 0.36708(10) 0.12366(13) 0.07895(11)
O12_5 O 0.39615(9) 0.25004(13) 0.10464(11)
O13_5 O 0.40197(8) 0.31680(11) 0.00090(10)
O16_5 O 0.40049(11) 0.18017(16) 0.27529(15)
H16_5 H 0.4296 0.2165 0.2732
H17_5 H 0.4164 0.1584 0.2859
C15_5 C 0.40082(11) 0.26847(16) 0.02177(15)
O6_5 O 0.07786(13) 0.35623(9) 0.42963(15)
H3_5 H 0.1152 0.3673 0.4286
H4_5 H 0.0692 0.3735 0.3861
H10_7 H 0.0131 0.1452 0.7715
O6_6 O 0.97711(9) 0.38830(10) 0.09629(15)
H3_6 H 0.9661 0.4146 0.0952
H4_6 H 0.9599 0.3624 0.0527
Mn3_5 Mn 0.746366(15) 0.010598(22) 0.52116(2)
N5_5 N 0.83702(11) 0.09036(14) 0.49266(11)
O10_5 O 0.74577(11) 0.03007(14) 0.37388(10)
O15_6 O 0.72164(10) 0.07786(13) 0.57037(15)
H14_6 H 0.7480 0.1152 0.5714
H15_6 H 0.6958 0.0692 0.6139
H21_8 H 0.8680 0.0131 0.2285
Mn2_8 Mn 0.8333 0.1667 0.1667
N1_8 N 0.92951(13) 0.17221(9) 0.47609(12)
O1_6 O 0.79032(13) 0.08991(8) 0.25439(11)
O3_6 O 0.91670(13) 0.18722(9) 0.22870(11)
O4_6 O 0.98346(11) 0.24816(7) 0.33244(10)
O5_8 O 0.95555(17) 0.30902(14) 0.49754(14)
H1_8 H 0.9451 0.3175 0.5496
H2_8 H 0.9445 0.3235 0.4530
O7_6 O 0.84683(16) 0.11301(11) 0.05805(15)
H5_6 H 0.8831 0.1202 0.0602
H6_6 H 0.8250 0.0753 0.0475
C1_8 C 0.79092(15) 0.07577(10) 0.33770(14)
C2_8 C 0.84339(14) 0.10968(10) 0.40094(14)
C3_8 C 0.90077(14) 0.16009(10) 0.39088(14)
C4_6 C 0.93513(16) 0.20098(11) 0.31157(15)
C5_8 C 0.88974(15) 0.12909(10) 0.53419(14)
C6_8 C 0.90307(17) 0.12508(11) 0.63382(16)
C7_8 C 0.85855(19) 0.10798(12) 0.70246(17)
H7_8 H 0.8197 0.0989 0.6856
C8_8 C 0.87211(24) 0.10456(14) 0.79624(19)
H8_8 H 0.8424 0.0937 0.8420
C9_8 C 0.92981(25) 0.11738(17) 0.8215(2)
H9_8 H 0.9384 0.1139 0.8839
C10_8 C 0.97405(23) 0.13520(16) 0.7542(2)
C11_8 C 0.96069(19) 0.13838(13) 0.66019(19)
H11_8 H 0.9906 0.1495 0.6149
O8_6 O 0.87634(13) 0.24343(8) 0.07895(11)
O12_6 O 0.74996(13) 0.14612(9) 0.10464(11)
O13_6 O 0.68320(11) 0.08518(7) 0.00090(10)
O16_6 O 0.81983(16) 0.22033(11) 0.27529(15)
H16_6 H 0.7835 0.2132 0.2732
H17_6 H 0.8416 0.2581 0.2859
C15_6 C 0.73153(16) 0.13236(11) 0.02177(15)
Mn2_9 Mn 0.6667 0.8333 0.8333
O1_7 O 0.63292(10) 0.87634(13) 0.92105(11)
O3_7 O 0.60385(9) 0.74996(13) 0.89536(11)
O4_7 O 0.59803(8) 0.68320(11) 0.99910(10)
O7_7 O 0.59951(11) 0.81983(16) 0.72471(15)
H5_7 H 0.5704 0.7835 0.7268
H6_7 H 0.5836 0.8416 0.7141
C4_7 C 0.59918(11) 0.73153(16) 0.97823(15)
Mn4_5 Mn 0.735767(16) 0.746366(27) 0.47884(2)
N3_8 N 0.75731(9) 0.92951(13) 0.52391(12)
N4_5 N 0.74667(8) 0.83702(11) 0.50734(11)
O8_7 O 0.70042(10) 0.79032(13) 0.74561(11)
O9_5 O 0.71571(8) 0.74577(11) 0.62612(10)
O12_7 O 0.72949(9) 0.91670(13) 0.77130(11)
O13_7 O 0.73531(8) 0.98346(11) 0.66756(10)
O14_8 O 0.64654(9) 0.95555(17) 0.50246(14)
H12_8 H 0.6277 0.9451 0.4504
H13_8 H 0.6211 0.9445 0.5470
O16_7 O 0.73383(11) 0.84683(16) 0.94195(15)
H16_7 H 0.7630 0.8831 0.9398
H17_7 H 0.7498 0.8250 0.9525
C12_8 C 0.71516(11) 0.79092(15) 0.66230(14)
C13_8 C 0.73372(10) 0.84339(14) 0.59906(14)
C14_8 C 0.74069(10) 0.90077(14) 0.60912(14)
C15_7 C 0.73416(11) 0.93513(16) 0.68843(15)
C16_8 C 0.76066(11) 0.88974(15) 0.46581(14)
C17_8 C 0.77800(13) 0.90307(17) 0.36618(16)
C18_8 C 0.75058(15) 0.85855(19) 0.29754(17)
H18_8 H 0.7209 0.8197 0.3144
C19_8 C 0.76756(19) 0.87211(24) 0.20376(19)
H19_8 H 0.7488 0.8424 0.1580
C20_8 C 0.81244(19) 0.92981(25) 0.1785(2)
H20_8 H 0.8246 0.9384 0.1161
C21_8 C 0.83886(17) 0.97405(23) 0.2458(2)
C22_8 C 0.82232(14) 0.96069(19) 0.33981(19)
H22_8 H 0.8412 0.9906 0.3851
Mn3_6 Mn 0.989402(22) 0.735767(16) 0.52116(2)
N5_6 N 0.90964(14) 0.74667(8) 0.49266(11)
O10_6 O 0.96993(14) 0.71571(8) 0.37388(10)
O15_7 O 0.92214(13) 0.64377(9) 0.57037(15)
H14_7 H 0.8848 0.6327 0.5714
H15_7 H 0.9308 0.6265 0.6139
H21_9 H 0.9869 0.8548 0.2285
Mn2_10 Mn 0.8333 0.6667 0.1667
N1_9 N 0.82779(9) 0.75731(9) 0.47609(12)
O1_8 O 0.91009(8) 0.70042(10) 0.25439(11)
O3_8 O 0.81278(9) 0.72949(9) 0.22870(11)
O4_8 O 0.75184(7) 0.73531(8) 0.33244(10)
O5_9 O 0.69098(14) 0.64654(9) 0.49754(14)
H1_9 H 0.6825 0.6277 0.5496
H2_9 H 0.6765 0.6211 0.4530
O6_7 O 0.64377(9) 0.72164(10) 0.42963(15)
H3_7 H 0.6327 0.7480 0.4286
H4_7 H 0.6265 0.6958 0.3861
O7_8 O 0.88699(11) 0.73383(11) 0.05805(15)
H5_8 H 0.8798 0.7630 0.0602
H6_8 H 0.9247 0.7498 0.0475
C1_9 C 0.92423(10) 0.71516(11) 0.33770(14)
C2_9 C 0.89032(10) 0.73372(10) 0.40094(14)
C3_9 C 0.83991(10) 0.74069(10) 0.39088(14)
C4_8 C 0.79902(11) 0.73416(11) 0.31157(15)
C5_9 C 0.87091(10) 0.76066(11) 0.53419(14)
C6_9 C 0.87492(11) 0.77800(13) 0.63382(16)
C7_9 C 0.89202(12) 0.75058(15) 0.70246(17)
H7_9 H 0.9011 0.7209 0.6856
C8_9 C 0.89544(14) 0.76756(19) 0.79624(19)
H8_9 H 0.9063 0.7488 0.8420
C9_9 C 0.88262(17) 0.81244(19) 0.8215(2)
H9_9 H 0.8861 0.8246 0.8839
C10_9 C 0.86480(16) 0.83886(17) 0.7542(2)
H10_8 H 0.8548 0.8680 0.7715
C11_9 C 0.86162(13) 0.82232(14) 0.66019(19)
H11_9 H 0.8505 0.8412 0.6149
O8_8 O 0.75657(8) 0.63292(10) 0.07895(11)
O12_8 O 0.85388(9) 0.60385(9) 0.10464(11)
O13_8 O 0.91482(7) 0.59803(8) 0.00090(10)
O16_8 O 0.77967(11) 0.59951(11) 0.27529(15)
H16_8 H 0.7868 0.5704 0.2732
H17_8 H 0.7419 0.5836 0.2859
C15_8 C 0.86764(11) 0.59918(11) 0.02177(15)
O6_8 O 0.41120(13) 0.02289(9) 0.09629(15)
H3_8 H 0.4486 0.0339 0.0952
H4_8 H 0.4026 0.0401 0.0527
Mn2_11 Mn 0.1667 0.8333 0.8333
O1_9 O 0.12366(13) 0.75657(8) 0.92105(11)
O3_9 O 0.25004(13) 0.85388(9) 0.89536(11)
O4_9 O 0.31680(11) 0.91482(7) 0.99910(10)
O7_9 O 0.18017(16) 0.77967(11) 0.72471(15)
H5_9 H 0.2165 0.7868 0.7268
H6_9 H 0.1584 0.7419 0.7141
C4_9 C 0.26847(16) 0.86764(11) 0.97823(15)
Mn4_6 Mn 0.253634(27) 0.989402(22) 0.47884(2)
N3_9 N 0.07049(13) 0.82779(9) 0.52391(12)
N4_6 N 0.16298(11) 0.90964(8) 0.50734(11)
O8_9 O 0.20968(13) 0.91009(8) 0.74561(11)
O9_6 O 0.25423(11) 0.96993(7) 0.62612(10)
O12_9 O 0.08330(13) 0.81278(9) 0.77130(11)
O13_9 O 0.01654(11) 0.75184(7) 0.66756(10)
O14_9 O 0.04445(17) 0.69098(14) 0.50246(14)
H12_9 H 0.0549 0.6825 0.4504
H13_9 H 0.0555 0.6765 0.5470
O16_9 O 0.15317(16) 0.88699(11) 0.94195(15)
H16_9 H 0.1169 0.8798 0.9398
H17_9 H 0.1750 0.9247 0.9525
C12_9 C 0.20908(15) 0.92423(10) 0.66230(14)
C13_9 C 0.15661(14) 0.89032(10) 0.59906(14)
C14_9 C 0.09923(14) 0.83991(10) 0.60912(14)
C15_9 C 0.06487(16) 0.79902(11) 0.68843(15)
C16_9 C 0.11026(15) 0.87091(10) 0.46581(14)
C17_9 C 0.09693(17) 0.87492(11) 0.36618(16)
C18_9 C 0.14145(19) 0.89202(12) 0.29754(17)
H18_9 H 0.1803 0.9011 0.3144
C19_9 C 0.12789(24) 0.89544(14) 0.20376(19)
H19_9 H 0.1576 0.9063 0.1580
C20_9 C 0.07019(25) 0.88262(17) 0.1785(2)
H20_9 H 0.0616 0.8861 0.1161
C21_9 C 0.02595(23) 0.86480(16) 0.2458(2)
C22_9 C 0.03931(19) 0.86162(13) 0.33981(19)
H22_9 H 0.0094 0.8505 0.3851
O6_9 O 0.27836(10) 0.92214(13) 0.42963(15)
H3_9 H 0.2520 0.8848 0.4286
H4_9 H 0.3042 0.9308 0.3861
H10_9 H 0.1320 0.9869 0.7715
O15_8 O 0.02289(9) 0.61170(10) 0.90371(15)
H14_8 H 0.0339 0.5854 0.9048
H15_8 H 0.0401 0.6376 0.9473
O15_9 O 0.58880(13) 0.97711(9) 0.90371(15)
H14_9 H 0.5514 0.9661 0.9048
H15_9 H 0.5974 0.9599 0.9473
loop_
_geom_bond_atom_site_label_1
_geom_bond_atom_site_label_2
_geom_bond_site_symmetry_1
_geom_bond_site_symmetry_2
H7 C7 1_555 1_555
C8 C7 1_555 1_555
H8 C8 1_555 1_555
C9 C8 1_555 1_555
H9 C9 1_555 1_555
C10 C9 1_555 1_555
H10 C10 1_555 1_555
Mn1 N1 1_555 1_555
Mn2 O1 1_555 1_555
N1 C3 1_555 1_555
N2 C2 1_555 1_555
O1 C1 1_555 1_555
O2 C1 1_555 1_555
O3 Mn2 1_555 1_555
O4 Mn1 1_555 1_555
O6 Mn1 1_555 1_555
H3 O6 1_555 1_555
H4 O6 1_555 1_555
O7 Mn2 1_555 1_555
H5 O7 1_555 1_555
H6 O7 1_555 1_555
C1 C2 1_555 1_555
C2 C3 1_555 1_555
C3 C4 1_555 1_555
C4 O3 1_555 1_555
C5 N1 1_555 1_555
C6 C5 1_555 1_555
C11 C6 1_555 1_555
H11 C11 1_555 1_555
Mn5 N2 1_555 1_555
N6 Mn1 1_555 1_555
O11 Mn1 1_555 1_555
H12 O14 1_555 1_555
H13 O14 1_555 1_555
N2 C5 1_555 1_555
O2 Mn5 1_555 1_555
O4 C4 1_555 1_555
H1 O5 1_555 1_555
H2 O5 1_555 1_555
Mn3 N3 1_555 1_555
Mn4 N4 1_555 1_555
N3 C14 1_555 1_555
N4 C13 1_555 1_555
N5 Mn3 1_555 1_555
O8 Mn2_2 1_555 1_555
O9 Mn4 1_555 1_555
O10 Mn3 1_555 1_555
O12 Mn2_2 1_555 1_555
O13 Mn3 1_555 1_555
O15 Mn3 1_555 1_555
H14 O15 1_555 1_555
H15 O15 1_555 1_555
O16 Mn2_2 1_555 1_555
H16 O16 1_555 1_555
H17 O16 1_555 1_555
C12 O8 1_555 1_555
C13 C12 1_555 1_555
C14 C13 1_555 1_555
C15 O12 1_555 1_555
C16 N3 1_555 1_555
C17 C16 1_555 1_555
C22 C17 1_555 1_555
H22 C22 1_555 1_555
N4 C16 1_555 1_555
O9 C12 1_555 1_555
O13 C15 1_555 1_555
C14 C15 1_555 1_555
H1_2 O5_2 1_555 1_555
H2_2 O5_2 1_555 1_555
Mn3_2 N3_2 1_555 1_555
Mn4_2 N4_2 1_555 1_555
N3_2 C14_2 1_555 1_555
N4_2 C13_2 1_555 1_555
N5_2 Mn3_2 1_555 1_555
O8_2 Mn2_3 1_555 1_555
O9_2 Mn4_2 1_555 1_555
O10_2 Mn3_2 1_555 1_555
O12_2 Mn2_3 1_555 1_555
O13_2 Mn3_2 1_555 1_555
O15_2 Mn3_2 1_555 1_555
H14_2 O15_2 1_555 1_555
H15_2 O15_2 1_555 1_555
O16_2 Mn2_3 1_555 1_555
H16_2 O16_2 1_555 1_555
H17_2 O16_2 1_555 1_555
C12_2 O8_2 1_555 1_555
C13_2 C12_2 1_555 1_555
C14_2 C13_2 1_555 1_555
C15_2 O12_2 1_555 1_555
C16_2 N3_2 1_555 1_555
C17_2 C16_2 1_555 1_555
C22_2 C17_2 1_555 1_555
H22_2 C22_2 1_555 1_555
N4_2 C16_2 1_555 1_555
O9_2 C12_2 1_555 1_555
O13_2 C15_2 1_555 1_555
C14_2 C15_2 1_555 1_555
Mn1_2 N1_2 1_555 1_555
Mn2_4 O1_2 1_555 1_555
N1_2 C3_2 1_555 1_555
N2_2 C2_2 1_555 1_555
O1_2 C1_2 1_555 1_555
O2_2 C1_2 1_555 1_555
O3_2 Mn2_4 1_555 1_555
O4_2 Mn1_2 1_555 1_555
O6_2 Mn1_2 1_555 1_555
H3_2 O6_2 1_555 1_555
H4_2 O6_2 1_555 1_555
O7_2 Mn2_4 1_555 1_555
H5_2 O7_2 1_555 1_555
H6_2 O7_2 1_555 1_555
C1_2 C2_2 1_555 1_555
C2_2 C3_2 1_555 1_555
C3_2 C4_2 1_555 1_555
C4_2 O3_2 1_555 1_555
C5_2 N1_2 1_555 1_555
C6_2 C5_2 1_555 1_555
C11_2 C6_2 1_555 1_555
H11_2 C11_2 1_555 1_555
Mn5_2 N2_2 1_555 1_555
N6_2 Mn1_2 1_555 1_555
O11_2 Mn1_2 1_555 1_555
H12_2 O14_2 1_555 1_555
H13_2 O14_2 1_555 1_555
N2_2 C5_2 1_555 1_555
O2_2 Mn5_2 1_555 1_555
O4_2 C4_2 1_555 1_555
Mn1_3 N1_3 1_555 1_555
Mn2_5 O1_3 1_555 1_555
N1_3 C3_3 1_555 1_555
N2_3 C2_3 1_555 1_555
O1_3 C1_3 1_555 1_555
O2_3 C1_3 1_555 1_555
O3_3 Mn2_5 1_555 1_555
O4_3 Mn1_3 1_555 1_555
O5_3 Mn1_3 1_555 1_555
H1_3 O5_3 1_555 1_555
H2_3 O5_3 1_555 1_555
O6_3 Mn1_3 1_555 1_555
H3_3 O6_3 1_555 1_555
H4_3 O6_3 1_555 1_555
O7_3 Mn2_5 1_555 1_555
H5_3 O7_3 1_555 1_555
H6_3 O7_3 1_555 1_555
C1_3 C2_3 1_555 1_555
C2_3 C3_3 1_555 1_555
C3_3 C4_3 1_555 1_555
C4_3 O3_3 1_555 1_555
C5_3 N1_3 1_555 1_555
C6_3 C5_3 1_555 1_555
C11_3 C6_3 1_555 1_555
H11_3 C11_3 1_555 1_555
Mn3_3 N3_3 1_555 1_555
Mn4_3 N4_3 1_555 1_555
Mn5_3 N2_3 1_555 1_555
N3_3 C14_3 1_555 1_555
N4_3 C13_3 1_555 1_555
N5_3 Mn3_3 1_555 1_555
N6_3 Mn1_3 1_555 1_555
O8_3 Mn2_5 1_555 1_555
O9_3 Mn4_3 1_555 1_555
O10_3 Mn3_3 1_555 1_555
O11_3 Mn1_3 1_555 1_555
O12_3 Mn2_5 1_555 1_555
O13_3 Mn3_3 1_555 1_555
O14_3 Mn3_3 1_555 1_555
H12_3 O14_3 1_555 1_555
H13_3 O14_3 1_555 1_555
O15_3 Mn3_3 1_555 1_555
H14_3 O15_3 1_555 1_555
H15_3 O15_3 1_555 1_555
O16_3 Mn2_5 1_555 1_555
H16_3 O16_3 1_555 1_555
H17_3 O16_3 1_555 1_555
C12_3 O8_3 1_555 1_555
C13_3 C12_3 1_555 1_555
C14_3 C13_3 1_555 1_555
C15_3 O12_3 1_555 1_555
C16_3 N3_3 1_555 1_555
C17_3 C16_3 1_555 1_555
C22_3 C17_3 1_555 1_555
H22_3 C22_3 1_555 1_555
N2_3 C5_3 1_555 1_555
O2_3 Mn5_3 1_555 1_555
O4_3 C4_3 1_555 1_555
N4_3 C16_3 1_555 1_555
O9_3 C12_3 1_555 1_555
O13_3 C15_3 1_555 1_555
C14_3 C15_3 1_555 1_555
Mn4_2 N1_4 1_555 1_555
N1_4 C3_4 1_555 1_555
N5_3 C2_4 1_555 1_555
O10_3 C1_4 1_555 1_555
O5_4 Mn4_2 1_555 1_555
H1_4 O5_4 1_555 1_555
H2_4 O5_4 1_555 1_555
C1_4 C2_4 1_555 1_555
C2_4 C3_4 1_555 1_555
C5_4 N1_4 1_555 1_555
C6_4 C5_4 1_555 1_555
C7_2 C6_4 1_555 1_555
H7_2 C7_2 1_555 1_555
C8_2 C7_2 1_555 1_555
H8_2 C8_2 1_555 1_555
C9_2 C8_2 1_555 1_555
H9_2 C9_2 1_555 1_555
C10_2 C9_2 1_555 1_555
H10_2 C10_2 1_555 1_555
C11_4 C6_4 1_555 1_555
H11_4 C11_4 1_555 1_555
N5_3 C5_4 1_555 1_555
C10_2 C11_4 1_555 1_555
Mn4_3 N1_5 1_555 1_555
N1_5 C3_5 1_555 1_555
N5 C2_5 1_555 1_555
O10 C1_5 1_555 1_555
O5_5 Mn4_3 1_555 1_555
H1_5 O5_5 1_555 1_555
H2_5 O5_5 1_555 1_555
O6_4 Mn4_3 1_555 1_555
H3_4 O6_4 1_555 1_555
H4_4 O6_4 1_555 1_555
C1_5 C2_5 1_555 1_555
C2_5 C3_5 1_555 1_555
C5_5 N1_5 1_555 1_555
C6_5 C5_5 1_555 1_555
C7_3 C6_5 1_555 1_555
H7_3 C7_3 1_555 1_555
C8_3 C7_3 1_555 1_555
H8_3 C8_3 1_555 1_555
C9_3 C8_3 1_555 1_555
H9_3 C9_3 1_555 1_555
C10_3 C9_3 1_555 1_555
H10_3 C10_3 1_555 1_555
C11_5 C6_5 1_555 1_555
H11_5 C11_5 1_555 1_555
N5 C5_5 1_555 1_555
C10_3 C11_5 1_555 1_555
Mn4 N1_6 1_555 1_555
N1_6 C3_6 1_555 1_555
N5_2 C2_6 1_555 1_555
O10_2 C1_6 1_555 1_555
O5_6 Mn4 1_555 1_555
H1_6 O5_6 1_555 1_555
H2_6 O5_6 1_555 1_555
C1_6 C2_6 1_555 1_555
C2_6 C3_6 1_555 1_555
C5_6 N1_6 1_555 1_555
C6_6 C5_6 1_555 1_555
C7_4 C6_6 1_555 1_555
H7_4 C7_4 1_555 1_555
C8_4 C7_4 1_555 1_555
H8_4 C8_4 1_555 1_555
C9_4 C8_4 1_555 1_555
H9_4 C9_4 1_555 1_555
C10_4 C9_4 1_555 1_555
H10_4 C10_4 1_555 1_555
C11_6 C6_6 1_555 1_555
H11_6 C11_6 1_555 1_555
N5_2 C5_6 1_555 1_555
C10_4 C11_6 1_555 1_555
Mn5_2 N3_4 1_555 1_555
N3_4 C14_4 1_555 1_555
N6_3 C13_4 1_555 1_555
O14_4 Mn5_2 1_555 1_555
H12_4 O14_4 1_555 1_555
H13_4 O14_4 1_555 1_555
C13_4 C12_4 1_555 1_555
C14_4 C13_4 1_555 1_555
C16_4 N3_4 1_555 1_555
C17_4 C16_4 1_555 1_555
C18 C17_4 1_555 1_555
H18 C18 1_555 1_555
C19 C18 1_555 1_555
H19 C19 1_555 1_555
C20 C19 1_555 1_555
H20 C20 1_555 1_555
C21 C20 1_555 1_555
H21 C21 1_555 1_555
C22_4 C17_4 1_555 1_555
H22_4 C22_4 1_555 1_555
N6_3 C16_4 1_555 1_555
O11_3 C12_4 1_555 1_555
C21 C22_4 1_555 1_555
Mn5_3 N3_5 1_555 1_555
N3_5 C14_5 1_555 1_555
N6 C13_5 1_555 1_555
O14_5 Mn5_3 1_555 1_555
H12_5 O14_5 1_555 1_555
H13_5 O14_5 1_555 1_555
O15_4 Mn5_3 1_555 1_555
H14_4 O15_4 1_555 1_555
H15_4 O15_4 1_555 1_555
C13_5 C12_5 1_555 1_555
C14_5 C13_5 1_555 1_555
C16_5 N3_5 1_555 1_555
C17_5 C16_5 1_555 1_555
C18_2 C17_5 1_555 1_555
H18_2 C18_2 1_555 1_555
C19_2 C18_2 1_555 1_555
H19_2 C19_2 1_555 1_555
C20_2 C19_2 1_555 1_555
H20_2 C20_2 1_555 1_555
C21_2 C20_2 1_555 1_555
H21_2 C21_2 1_555 1_555
C22_5 C17_5 1_555 1_555
H22_5 C22_5 1_555 1_555
N6 C16_5 1_555 1_555
O11 C12_5 1_555 1_555
C21_2 C22_5 1_555 1_555
Mn5 N3_6 1_555 1_555
N3_6 C14_6 1_555 1_555
N6_2 C13_6 1_555 1_555
O14_6 Mn5 1_555 1_555
H12_6 O14_6 1_555 1_555
H13_6 O14_6 1_555 1_555
C13_6 C12_6 1_555 1_555
C14_6 C13_6 1_555 1_555
C16_6 N3_6 1_555 1_555
C17_6 C16_6 1_555 1_555
C18_3 C17_6 1_555 1_555
H18_3 C18_3 1_555 1_555
C19_3 C18_3 1_555 1_555
H19_3 C19_3 1_555 1_555
C20_3 C19_3 1_555 1_555
H20_3 C20_3 1_555 1_555
C21_3 C20_3 1_555 1_555
H21_3 C21_3 1_555 1_555
C22_6 C17_6 1_555 1_555
H22_6 C22_6 1_555 1_555
N6_2 C16_6 1_555 1_555
O11_2 C12_6 1_555 1_555
C21_3 C22_6 1_555 1_555
H18_4 C18_4 1_555 1_555
C19_4 C18_4 1_555 1_555
H19_4 C19_4 1_555 1_555
C20_4 C19_4 1_555 1_555
H20_4 C20_4 1_555 1_555
C21_4 C20_4 1_555 1_555
H21_4 C21_4 1_555 1_555
H18_5 C18_5 1_555 1_555
C19_5 C18_5 1_555 1_555
H19_5 C19_5 1_555 1_555
C20_5 C19_5 1_555 1_555
H20_5 C20_5 1_555 1_555
C21_5 C20_5 1_555 1_555
H21_5 C21_5 1_555 1_555
H7_5 C7_5 1_555 1_555
C8_5 C7_5 1_555 1_555
H8_5 C8_5 1_555 1_555
C9_5 C8_5 1_555 1_555
H9_5 C9_5 1_555 1_555
C10_5 C9_5 1_555 1_555
H10_5 C10_5 1_555 1_555
H7_6 C7_6 1_555 1_555
C8_6 C7_6 1_555 1_555
H8_6 C8_6 1_555 1_555
C9_6 C8_6 1_555 1_555
H9_6 C9_6 1_555 1_555
C10_6 C9_6 1_555 1_555
H10_6 C10_6 1_555 1_555
H18_6 C18_6 1_555 1_555
C19_6 C18_6 1_555 1_555
H19_6 C19_6 1_555 1_555
C20_6 C19_6 1_555 1_555
H20_6 C20_6 1_555 1_555
C21_6 C20_6 1_555 1_555
H21_6 C21_6 1_555 1_555
Mn2_6 O1_4 1_555 1_555
O3_4 Mn2_6 1_555 1_555
O7_4 Mn2_6 1_555 1_555
H5_4 O7_4 1_555 1_555
H6_4 O7_4 1_555 1_555
C4_4 O3_4 1_555 1_555
Mn3_4 N3_7 1_555 1_555
Mn4_4 N4_4 1_555 1_555
N3_7 C14_7 1_555 1_555
N4_4 C13_7 1_555 1_555
N5_4 Mn3_4 1_555 1_555
O8_4 Mn2_6 1_555 1_555
O9_4 Mn4_4 1_555 1_555
O10_4 Mn3_4 1_555 1_555
O12_4 Mn2_6 1_555 1_555
O13_4 Mn3_4 1_555 1_555
O14_7 Mn3_4 1_555 1_555
H12_7 O14_7 1_555 1_555
H13_7 O14_7 1_555 1_555
O15_5 Mn3_4 1_555 1_555
H14_5 O15_5 1_555 1_555
H15_5 O15_5 1_555 1_555
O16_4 Mn2_6 1_555 1_555
H16_4 O16_4 1_555 1_555
H17_4 O16_4 1_555 1_555
C12_7 O8_4 1_555 1_555
C13_7 C12_7 1_555 1_555
C14_7 C13_7 1_555 1_555
C15_4 O12_4 1_555 1_555
C16_7 N3_7 1_555 1_555
C17_7 C16_7 1_555 1_555
C18_7 C17_7 1_555 1_555
H18_7 C18_7 1_555 1_555
C19_7 C18_7 1_555 1_555
H19_7 C19_7 1_555 1_555
C20_7 C19_7 1_555 1_555
H20_7 C20_7 1_555 1_555
C21_7 C20_7 1_555 1_555
H21_7 C21_7 1_555 1_555
C22_7 C17_7 1_555 1_555
H22_7 C22_7 1_555 1_555
O4_4 C4_4 1_555 1_555
N4_4 C16_7 1_555 1_555
O9_4 C12_7 1_555 1_555
O13_4 C15_4 1_555 1_555
C14_7 C15_4 1_555 1_555
C21_7 C22_7 1_555 1_555
Mn2_7 O1_5 1_555 1_555
N1_7 C3_7 1_555 1_555
N5_4 C2_7 1_555 1_555
O1_5 C1_7 1_555 1_555
O10_4 C1_7 1_555 1_555
O3_5 Mn2_7 1_555 1_555
H1_7 O5_7 1_555 1_555
H2_7 O5_7 1_555 1_555
O7_5 Mn2_7 1_555 1_555
H5_5 O7_5 1_555 1_555
H6_5 O7_5 1_555 1_555
C1_7 C2_7 1_555 1_555
C2_7 C3_7 1_555 1_555
C3_7 C4_5 1_555 1_555
C4_5 O3_5 1_555 1_555
C5_7 N1_7 1_555 1_555
C6_7 C5_7 1_555 1_555
C7_7 C6_7 1_555 1_555
H7_7 C7_7 1_555 1_555
C8_7 C7_7 1_555 1_555
H8_7 C8_7 1_555 1_555
C9_7 C8_7 1_555 1_555
H9_7 C9_7 1_555 1_555
C10_7 C9_7 1_555 1_555
C11_7 C6_7 1_555 1_555
H11_7 C11_7 1_555 1_555
O8_5 Mn2_7 1_555 1_555
O12_5 Mn2_7 1_555 1_555
O16_5 Mn2_7 1_555 1_555
H16_5 O16_5 1_555 1_555
H17_5 O16_5 1_555 1_555
C15_5 O12_5 1_555 1_555
N5_4 C5_7 1_555 1_555
O4_5 C4_5 1_555 1_555
C10_7 C11_7 1_555 1_555
O13_5 C15_5 1_555 1_555
O6_5 Mn4_4 1_555 1_555
H3_5 O6_5 1_555 1_555
H4_5 O6_5 1_555 1_555
H3_6 O6_6 1_555 1_555
H4_6 O6_6 1_555 1_555
N5_5 Mn3_5 1_555 1_555
O10_5 Mn3_5 1_555 1_555
O15_6 Mn3_5 1_555 1_555
H14_6 O15_6 1_555 1_555
H15_6 O15_6 1_555 1_555
Mn2_8 O1_6 1_555 1_555
N1_8 C3_8 1_555 1_555
N5_5 C2_8 1_555 1_555
O1_6 C1_8 1_555 1_555
O10_5 C1_8 1_555 1_555
O3_6 Mn2_8 1_555 1_555
H1_8 O5_8 1_555 1_555
H2_8 O5_8 1_555 1_555
O7_6 Mn2_8 1_555 1_555
H5_6 O7_6 1_555 1_555
H6_6 O7_6 1_555 1_555
C1_8 C2_8 1_555 1_555
C2_8 C3_8 1_555 1_555
C3_8 C4_6 1_555 1_555
C4_6 O3_6 1_555 1_555
C5_8 N1_8 1_555 1_555
C6_8 C5_8 1_555 1_555
C7_8 C6_8 1_555 1_555
H7_8 C7_8 1_555 1_555
C8_8 C7_8 1_555 1_555
H8_8 C8_8 1_555 1_555
C9_8 C8_8 1_555 1_555
H9_8 C9_8 1_555 1_555
C10_8 C9_8 1_555 1_555
C11_8 C6_8 1_555 1_555
H11_8 C11_8 1_555 1_555
O8_6 Mn2_8 1_555 1_555
O12_6 Mn2_8 1_555 1_555
O16_6 Mn2_8 1_555 1_555
H16_6 O16_6 1_555 1_555
H17_6 O16_6 1_555 1_555
C15_6 O12_6 1_555 1_555
N5_5 C5_8 1_555 1_555
O4_6 C4_6 1_555 1_555
C10_8 C11_8 1_555 1_555
O13_6 C15_6 1_555 1_555
Mn2_9 O1_7 1_555 1_555
O3_7 Mn2_9 1_555 1_555
O7_7 Mn2_9 1_555 1_555
H5_7 O7_7 1_555 1_555
H6_7 O7_7 1_555 1_555
C4_7 O3_7 1_555 1_555
Mn4_5 N4_5 1_555 1_555
N3_8 C14_8 1_555 1_555
N4_5 C13_8 1_555 1_555
O8_7 Mn2_9 1_555 1_555
O9_5 Mn4_5 1_555 1_555
O12_7 Mn2_9 1_555 1_555
H12_8 O14_8 1_555 1_555
H13_8 O14_8 1_555 1_555
O16_7 Mn2_9 1_555 1_555
H16_7 O16_7 1_555 1_555
H17_7 O16_7 1_555 1_555
C12_8 O8_7 1_555 1_555
C13_8 C12_8 1_555 1_555
C14_8 C13_8 1_555 1_555
C15_7 O12_7 1_555 1_555
C16_8 N3_8 1_555 1_555
C17_8 C16_8 1_555 1_555
C18_8 C17_8 1_555 1_555
H18_8 C18_8 1_555 1_555
C19_8 C18_8 1_555 1_555
H19_8 C19_8 1_555 1_555
C20_8 C19_8 1_555 1_555
H20_8 C20_8 1_555 1_555
C21_8 C20_8 1_555 1_555
C22_8 C17_8 1_555 1_555
H22_8 C22_8 1_555 1_555
O4_7 C4_7 1_555 1_555
N4_5 C16_8 1_555 1_555
O9_5 C12_8 1_555 1_555
O13_7 C15_7 1_555 1_555
C14_8 C15_7 1_555 1_555
C21_8 C22_8 1_555 1_555
N5_6 Mn3_6 1_555 1_555
O10_6 Mn3_6 1_555 1_555
O15_7 Mn3_6 1_555 1_555
H14_7 O15_7 1_555 1_555
H15_7 O15_7 1_555 1_555
Mn4_5 N1_9 1_555 1_555
Mn2_10 O1_8 1_555 1_555
N1_9 C3_9 1_555 1_555
N5_6 C2_9 1_555 1_555
O1_8 C1_9 1_555 1_555
O10_6 C1_9 1_555 1_555
O3_8 Mn2_10 1_555 1_555
O4_8 Mn4_5 1_555 1_555
O5_9 Mn4_5 1_555 1_555
H1_9 O5_9 1_555 1_555
H2_9 O5_9 1_555 1_555
O6_7 Mn4_5 1_555 1_555
H3_7 O6_7 1_555 1_555
H4_7 O6_7 1_555 1_555
O7_8 Mn2_10 1_555 1_555
H5_8 O7_8 1_555 1_555
H6_8 O7_8 1_555 1_555
C1_9 C2_9 1_555 1_555
C2_9 C3_9 1_555 1_555
C3_9 C4_8 1_555 1_555
C4_8 O3_8 1_555 1_555
C5_9 N1_9 1_555 1_555
C6_9 C5_9 1_555 1_555
C7_9 C6_9 1_555 1_555
H7_9 C7_9 1_555 1_555
C8_9 C7_9 1_555 1_555
H8_9 C8_9 1_555 1_555
C9_9 C8_9 1_555 1_555
H9_9 C9_9 1_555 1_555
C10_9 C9_9 1_555 1_555
H10_8 C10_9 1_555 1_555
C11_9 C6_9 1_555 1_555
H11_9 C11_9 1_555 1_555
O8_8 Mn2_10 1_555 1_555
O12_8 Mn2_10 1_555 1_555
O16_8 Mn2_10 1_555 1_555
H16_8 O16_8 1_555 1_555
H17_8 O16_8 1_555 1_555
C15_8 O12_8 1_555 1_555
N5_6 C5_9 1_555 1_555
O4_8 C4_8 1_555 1_555
C10_9 C11_9 1_555 1_555
O13_8 C15_8 1_555 1_555
H3_8 O6_8 1_555 1_555
H4_8 O6_8 1_555 1_555
Mn2_11 O1_9 1_555 1_555
O3_9 Mn2_11 1_555 1_555
O7_9 Mn2_11 1_555 1_555
H5_9 O7_9 1_555 1_555
H6_9 O7_9 1_555 1_555
C4_9 O3_9 1_555 1_555
Mn4_6 N4_6 1_555 1_555
N3_9 C14_9 1_555 1_555
N4_6 C13_9 1_555 1_555
O8_9 Mn2_11 1_555 1_555
O9_6 Mn4_6 1_555 1_555
O12_9 Mn2_11 1_555 1_555
H12_9 O14_9 1_555 1_555
H13_9 O14_9 1_555 1_555
O16_9 Mn2_11 1_555 1_555
H16_9 O16_9 1_555 1_555
H17_9 O16_9 1_555 1_555
C12_9 O8_9 1_555 1_555
C13_9 C12_9 1_555 1_555
C14_9 C13_9 1_555 1_555
C15_9 O12_9 1_555 1_555
C16_9 N3_9 1_555 1_555
C17_9 C16_9 1_555 1_555
C18_9 C17_9 1_555 1_555
H18_9 C18_9 1_555 1_555
C19_9 C18_9 1_555 1_555
H19_9 C19_9 1_555 1_555
C20_9 C19_9 1_555 1_555
H20_9 C20_9 1_555 1_555
C21_9 C20_9 1_555 1_555
C22_9 C17_9 1_555 1_555
H22_9 C22_9 1_555 1_555
O4_9 C4_9 1_555 1_555
N4_6 C16_9 1_555 1_555
O9_6 C12_9 1_555 1_555
O13_9 C15_9 1_555 1_555
C14_9 C15_9 1_555 1_555
C21_9 C22_9 1_555 1_555
O6_9 Mn4_6 1_555 1_555
H3_9 O6_9 1_555 1_555
H4_9 O6_9 1_555 1_555
H14_8 O15_8 1_555 1_555
H15_8 O15_8 1_555 1_555
H14_9 O15_9 1_555 1_555
H15_9 O15_9 1_555 1_555

#END
