
###############################################################################
#
# This file contains modified crystal structure data generated from the
# MOF subset of the Cambridge Structural Database (CSD) v543 
# hosted by the Cambridge Crystallographic Data Centre (CCDC).
#
# This work is licensed under the Creative Commons
# Attribution-NonCommercial-ShareAlike 4.0 International License.
# To view a copy of this license, visit
# http://creativecommons.org/licenses/by-nc-sa/4.0/
# or send a letter to
# Creative Commons, PO Box 1866, Mountain View, CA 94042, USA.
#
# CIF created using the CSD Python API on 29 September 2022
# The structure has been converted into the P1 space group
# The structure has a 3D framework
# The original CSD entry OKIMAY is in the monoclinic crystal system
# The framework has been calculated to contain at least 10.0% void space
# The void calculation uses a probe of radius 1.32A, grid spacing 0.4
#
###############################################################################

data_OKIMAY
_chemical_formula_moiety         '(C72 H36 N12 O32 Zn2)n'
_symmetry_cell_setting           triclinic
_symmetry_space_group_name_H-M   'P 1'
_symmetry_Int_Tables_number      1
_space_group_name_Hall           'P 1'
loop_
_symmetry_equiv_pos_site_id
_symmetry_equiv_pos_as_xyz
1 x,y,z
_cell_length_a                   8.0098(16)
_cell_length_b                   13.813(3)
_cell_length_c                   22.126(4)
_cell_angle_alpha                90
_cell_angle_beta                 98.25(3)
_cell_angle_gamma                90
_cell_volume                     2422.67
loop_
_atom_site_label
_atom_site_type_symbol
_atom_site_fract_x
_atom_site_fract_y
_atom_site_fract_z
Zn1 Zn 0.19051(9) 0.02099(5) 0.15018(3)
O11 O 0.3497(6) 0.1285(3) 0.15062(19)
O1 O 0.1635(6) 0.9386(3) 0.07769(19)
O2 O 0.0066(8) 0.8486(4) 0.1287(2)
H1 H 0.0704 0.8131 0.1509
C1 C 0.0687(8) 0.8673(5) 0.0827(3)
C2 C 0.0219(7) 0.8045(4) 0.0262(2)
O10 O 0.2324(6) 0.9839(3) 0.23710(18)
O5 O 0.7676(6) 0.4839(3) 0.26290(18)
O6 O 0.5691(8) 0.3911(4) 0.2914(2)
O8 O 0.3857(7) 0.1312(4) 0.0528(2)
H2 H 0.4770 0.1121 0.0449
N1 N 0.7810(5) 0.5371(3) 0.04158(17)
C7 C 0.9461(7) 0.7143(4) 0.0315(2)
H6 H 0.9244 0.6929 0.0695
C10 C 0.7007(7) 0.4511(4) 0.0308(3)
C11 C 0.6413(7) 0.3998(4) 0.0807(2)
C12 C 0.5563(7) 0.3097(4) 0.0699(2)
H7 H 0.5427 0.2831 0.0309
C13 C 0.4937(7) 0.2611(4) 0.1165(3)
C14 C 0.5180(7) 0.3013(4) 0.1751(3)
H8 H 0.4723 0.2704 0.2063
C15 C 0.6090(7) 0.3865(4) 0.1879(3)
C16 C 0.6699(7) 0.4355(4) 0.1402(2)
H9 H 0.7304 0.4927 0.1483
C17 C 0.6486(9) 0.4221(4) 0.2520(3)
C18 C 0.4046(8) 0.1672(4) 0.1051(3)
Zn3 Zn 0.80949(9) 0.52099(5) 0.34982(3)
N2 N 0.6894(6) 0.4276(3) 0.9731(2)
H3 H 0.6425 0.3764 0.9563
N3 N 0.7666(7) 0.5001(3) 0.9441(2)
C5 C 0.9370(7) 0.6884(4) 0.9235(2)
H5 H 0.9125 0.6488 0.8894
C6 C 0.9033(7) 0.6565(4) 0.9805(2)
C9 C 0.8174(7) 0.5630(4) 0.9857(2)
Zn4 Zn 0.80949(9) 0.97901(5) 0.84982(3)
N1_2 N 0.2190(5) 0.0371(3) 0.45842(17)
N3_2 N 0.2334(7) 0.0001(3) 0.5559(2)
C5_2 C 0.0630(7) 0.1884(4) 0.5765(2)
H5_2 H 0.0875 0.1488 0.6106
C6_2 C 0.0967(7) 0.1565(4) 0.5195(2)
C7_2 C 0.0539(7) 0.2143(4) 0.4685(2)
H6_2 H 0.0756 0.1929 0.4305
C9_2 C 0.1826(7) 0.0630(4) 0.5143(2)
Zn4_2 Zn 0.19051(9) 0.47901(5) 0.65018(3)
O9 O 0.0290(5) 0.5923(3) 0.34759(19)
O6_2 O 0.4309(8) 0.8911(4) 0.2086(2)
O7 O 0.6503(6) 0.6285(3) 0.34938(19)
O8_2 O 0.6143(7) 0.6312(4) 0.4472(2)
H2_2 H 0.5230 0.6121 0.4551
N2_2 N 0.3106(6) 0.9276(3) 0.5269(2)
H3_2 H 0.3575 0.8764 0.5437
C10_2 C 0.2993(7) 0.9511(4) 0.4692(3)
C11_2 C 0.3587(7) 0.8998(4) 0.4193(2)
C12_2 C 0.4437(7) 0.8097(4) 0.4301(2)
H7_2 H 0.4573 0.7831 0.4691
C13_2 C 0.5063(7) 0.7611(4) 0.3835(3)
C14_2 C 0.4820(7) 0.8013(4) 0.3249(3)
H8_2 H 0.5277 0.7704 0.2937
C15_2 C 0.3910(7) 0.8865(4) 0.3121(3)
C16_2 C 0.3301(7) 0.9355(4) 0.3598(2)
H9_2 H 0.2696 0.9927 0.3517
C17_2 C 0.3514(9) 0.9221(4) 0.2480(3)
C18_2 C 0.5954(8) 0.6672(4) 0.3949(3)
O1_2 O 0.8365(6) 0.4386(3) 0.42231(19)
O2_2 O 0.9934(8) 0.3486(4) 0.3713(2)
H1_2 H 0.9296 0.3131 0.3491
O3 O 0.9710(5) 0.4077(3) 0.65241(19)
O4 O 0.9401(9) 0.2571(3) 0.6836(2)
C1_2 C 0.9313(8) 0.3673(5) 0.4173(3)
C2_2 C 0.9781(7) 0.3045(4) 0.4738(2)
C3 C 0.9498(7) 0.3364(4) 0.5306(3)
H4 H 0.9013 0.3968 0.5346
C4 C 0.9935(7) 0.2786(4) 0.5820(2)
C8 C 0.9677(8) 0.3161(4) 0.6446(3)
N2_3 N 0.3106(6) 0.5724(3) 0.0269(2)
H3_3 H 0.3575 0.6236 0.0437
N3_3 N 0.2334(7) 0.4999(3) 0.0559(2)
C5_3 C 0.0630(7) 0.3116(4) 0.0765(2)
H5_3 H 0.0875 0.3512 0.1106
C6_3 C 0.0967(7) 0.3435(4) 0.0195(2)
C9_3 C 0.1826(7) 0.4370(4) 0.0143(2)
O5_2 O 0.2324(6) 0.5161(3) 0.73710(18)
O6_3 O 0.4309(8) 0.6089(4) 0.7086(2)
O7_2 O 0.6503(6) 0.8715(3) 0.84938(19)
O8_3 O 0.6143(7) 0.8688(4) 0.9472(2)
H2_3 H 0.5230 0.8879 0.9551
N1_3 N 0.2190(5) 0.4629(3) 0.95842(17)
C7_3 C 0.0539(7) 0.2857(4) 0.9685(2)
H6_3 H 0.0756 0.3071 0.9305
C10_3 C 0.2993(7) 0.5489(4) 0.9692(3)
C11_3 C 0.3587(7) 0.6002(4) 0.9193(2)
C12_3 C 0.4437(7) 0.6903(4) 0.9301(2)
H7_3 H 0.4573 0.7169 0.9691
C13_3 C 0.5063(7) 0.7389(4) 0.8835(3)
C14_3 C 0.4820(7) 0.6987(4) 0.8249(3)
H8_3 H 0.5277 0.7296 0.7937
C15_3 C 0.3910(7) 0.6135(4) 0.8121(3)
C16_3 C 0.3301(7) 0.5645(4) 0.8598(2)
H9_3 H 0.2696 0.5073 0.8517
C17_3 C 0.3514(9) 0.5779(4) 0.7480(3)
C18_3 C 0.5954(8) 0.8328(4) 0.8949(3)
O1_3 O 0.8365(6) 0.0614(3) 0.92231(19)
O2_3 O 0.9934(8) 0.1514(4) 0.8713(2)
H1_3 H 0.9296 0.1869 0.8491
C1_3 C 0.9313(8) 0.1327(5) 0.9173(3)
C2_3 C 0.9781(7) 0.1955(4) 0.9738(2)
O10_2 O 0.7676(6) 0.0161(3) 0.76290(18)
O1_4 O 0.1635(6) 0.5614(3) 0.57769(19)
O2_4 O 0.0066(8) 0.6514(4) 0.6287(2)
H1_4 H 0.0704 0.6869 0.6509
O4_2 O 0.0599(9) 0.7429(3) 0.3164(2)
C1_4 C 0.0687(8) 0.6327(5) 0.5827(3)
C2_4 C 0.0219(7) 0.6955(4) 0.5262(2)
C3_2 C 0.0502(7) 0.6636(4) 0.4694(3)
H4_2 H 0.0987 0.6032 0.4654
C4_2 C 0.0065(7) 0.7214(4) 0.4180(2)
C8_2 C 0.0323(8) 0.6839(4) 0.3554(3)
O11_2 O 0.3497(6) 0.3715(3) 0.65062(19)
O6_4 O 0.5691(8) 0.1089(4) 0.7914(2)
O8_4 O 0.3857(7) 0.3688(4) 0.5528(2)
H2_4 H 0.4770 0.3879 0.5449
N2_4 N 0.6894(6) 0.0724(3) 0.4731(2)
H3_4 H 0.6425 0.1236 0.4563
C10_4 C 0.7007(7) 0.0489(4) 0.5308(3)
C11_4 C 0.6413(7) 0.1002(4) 0.5807(2)
C12_4 C 0.5563(7) 0.1903(4) 0.5699(2)
H7_4 H 0.5427 0.2169 0.5309
C13_4 C 0.4937(7) 0.2389(4) 0.6165(3)
C14_4 C 0.5180(7) 0.1987(4) 0.6751(3)
H8_4 H 0.4723 0.2296 0.7063
C15_4 C 0.6090(7) 0.1135(4) 0.6879(3)
C16_4 C 0.6699(7) 0.0645(4) 0.6402(2)
H9_4 H 0.7304 0.0073 0.6483
C17_4 C 0.6486(9) 0.0779(4) 0.7520(3)
C18_4 C 0.4046(8) 0.3328(4) 0.6051(3)
N1_4 N 0.7810(5) 0.9629(3) 0.54158(17)
N3_4 N 0.7666(7) 0.9999(3) 0.4441(2)
C5_4 C 0.9370(7) 0.8116(4) 0.4235(2)
H5_4 H 0.9125 0.8512 0.3894
C6_4 C 0.9033(7) 0.8435(4) 0.4805(2)
C7_4 C 0.9461(7) 0.7857(4) 0.5315(2)
H6_4 H 0.9244 0.8071 0.5695
C9_4 C 0.8174(7) 0.9370(4) 0.4857(2)
O3_2 O 0.0290(5) 0.9077(3) 0.84759(19)
O4_3 O 0.0599(9) 0.7571(3) 0.8164(2)
C3_3 C 0.0502(7) 0.8364(4) 0.9694(3)
H4_3 H 0.0987 0.8968 0.9654
C4_3 C 0.0065(7) 0.7786(4) 0.9180(2)
C8_3 C 0.0323(8) 0.8161(4) 0.8554(3)
O9_2 O 0.9710(5) 0.0923(3) 0.15241(19)
O4_4 O 0.9401(9) 0.2429(3) 0.1836(2)
C3_4 C 0.9498(7) 0.1636(4) 0.0306(3)
H4_4 H 0.9013 0.1032 0.0346
C4_4 C 0.9935(7) 0.2214(4) 0.0820(2)
C8_4 C 0.9677(8) 0.1839(4) 0.1446(3)
loop_
_geom_bond_atom_site_label_1
_geom_bond_atom_site_label_2
_geom_bond_site_symmetry_1
_geom_bond_site_symmetry_2
O11 Zn1 1_555 1_555
O1 C1 1_555 1_555
O2 H1 1_555 1_555
C1 O2 1_555 1_555
C2 C1 1_555 1_555
O5 C17 1_555 1_555
O6 C17 1_555 1_555
O11 C18 1_555 1_555
O8 H2 1_555 1_555
H6 C7 1_555 1_555
C10 N1 1_555 1_555
C11 C10 1_555 1_555
C12 C11 1_555 1_555
H7 C12 1_555 1_555
C13 C12 1_555 1_555
C14 C13 1_555 1_555
H8 C14 1_555 1_555
C15 C14 1_555 1_555
C16 C11 1_555 1_555
H9 C16 1_555 1_555
C17 C15 1_555 1_555
C18 O8 1_555 1_555
Zn3 O5 1_555 1_555
C13 C18 1_555 1_555
C15 C16 1_555 1_555
N2 H3 1_555 1_555
N3 N2 1_555 1_555
H5 C5 1_555 1_555
C6 C5 1_555 1_555
C9 N3 1_555 1_555
C6 C9 1_555 1_555
N1_2 C9_2 1_555 1_555
H5_2 C5_2 1_555 1_555
C6_2 C5_2 1_555 1_555
H6_2 C7_2 1_555 1_555
C9_2 N3_2 1_555 1_555
C6_2 C7_2 1_555 1_555
C6_2 C9_2 1_555 1_555
O10 C17_2 1_555 1_555
O6_2 C17_2 1_555 1_555
O7 C18_2 1_555 1_555
O8_2 H2_2 1_555 1_555
N2_2 H3_2 1_555 1_555
C11_2 C10_2 1_555 1_555
C12_2 C11_2 1_555 1_555
H7_2 C12_2 1_555 1_555
C13_2 C12_2 1_555 1_555
C14_2 C13_2 1_555 1_555
H8_2 C14_2 1_555 1_555
C15_2 C14_2 1_555 1_555
C16_2 C11_2 1_555 1_555
H9_2 C16_2 1_555 1_555
C17_2 C15_2 1_555 1_555
C18_2 O8_2 1_555 1_555
Zn3 O7 1_555 1_555
N2_2 C10_2 1_555 1_555
C13_2 C18_2 1_555 1_555
C15_2 C16_2 1_555 1_555
Zn3 O1_2 1_555 1_555
O1_2 C1_2 1_555 1_555
O2_2 H1_2 1_555 1_555
O3 C8 1_555 1_555
O4 C8 1_555 1_555
C1_2 O2_2 1_555 1_555
C2_2 C1_2 1_555 1_555
C3 C2_2 1_555 1_555
H4 C3 1_555 1_555
C4 C3 1_555 1_555
C8 C4 1_555 1_555
N2_3 H3_3 1_555 1_555
N3_3 N2_3 1_555 1_555
H5_3 C5_3 1_555 1_555
C6_3 C5_3 1_555 1_555
C9_3 N3_3 1_555 1_555
C6_3 C9_3 1_555 1_555
O5_2 C17_3 1_555 1_555
O6_3 C17_3 1_555 1_555
O7_2 C18_3 1_555 1_555
O8_3 H2_3 1_555 1_555
H6_3 C7_3 1_555 1_555
C10_3 N1_3 1_555 1_555
C11_3 C10_3 1_555 1_555
C12_3 C11_3 1_555 1_555
H7_3 C12_3 1_555 1_555
C13_3 C12_3 1_555 1_555
C14_3 C13_3 1_555 1_555
H8_3 C14_3 1_555 1_555
C15_3 C14_3 1_555 1_555
C16_3 C11_3 1_555 1_555
H9_3 C16_3 1_555 1_555
C17_3 C15_3 1_555 1_555
C18_3 O8_3 1_555 1_555
Zn4 O7_2 1_555 1_555
Zn4_2 O5_2 1_555 1_555
C13_3 C18_3 1_555 1_555
C15_3 C16_3 1_555 1_555
O1_3 C1_3 1_555 1_555
O2_3 H1_3 1_555 1_555
C1_3 O2_3 1_555 1_555
C2_3 C1_3 1_555 1_555
Zn4_2 O1_4 1_555 1_555
O1_4 C1_4 1_555 1_555
O2_4 H1_4 1_555 1_555
O9 C8_2 1_555 1_555
O4_2 C8_2 1_555 1_555
C1_4 O2_4 1_555 1_555
C2_4 C1_4 1_555 1_555
C3_2 C2_4 1_555 1_555
H4_2 C3_2 1_555 1_555
C4_2 C3_2 1_555 1_555
C8_2 C4_2 1_555 1_555
O11_2 Zn4_2 1_555 1_555
O10_2 C17_4 1_555 1_555
O6_4 C17_4 1_555 1_555
O11_2 C18_4 1_555 1_555
O8_4 H2_4 1_555 1_555
N2_4 H3_4 1_555 1_555
C11_4 C10_4 1_555 1_555
C12_4 C11_4 1_555 1_555
H7_4 C12_4 1_555 1_555
C13_4 C12_4 1_555 1_555
C14_4 C13_4 1_555 1_555
H8_4 C14_4 1_555 1_555
C15_4 C14_4 1_555 1_555
C16_4 C11_4 1_555 1_555
H9_4 C16_4 1_555 1_555
C17_4 C15_4 1_555 1_555
C18_4 O8_4 1_555 1_555
N2_4 C10_4 1_555 1_555
C13_4 C18_4 1_555 1_555
C15_4 C16_4 1_555 1_555
N1_4 C9_4 1_555 1_555
H5_4 C5_4 1_555 1_555
C6_4 C5_4 1_555 1_555
H6_4 C7_4 1_555 1_555
C9_4 N3_4 1_555 1_555
C6_4 C7_4 1_555 1_555
C6_4 C9_4 1_555 1_555
O3_2 C8_3 1_555 1_555
O4_3 C8_3 1_555 1_555
H4_3 C3_3 1_555 1_555
C4_3 C3_3 1_555 1_555
C8_3 C4_3 1_555 1_555
O9_2 C8_4 1_555 1_555
O4_4 C8_4 1_555 1_555
H4_4 C3_4 1_555 1_555
C4_4 C3_4 1_555 1_555
C8_4 C4_4 1_555 1_555

#END
