
###############################################################################
#
# This file contains modified crystal structure data generated from the
# MOF subset of the Cambridge Structural Database (CSD) v543 
# hosted by the Cambridge Crystallographic Data Centre (CCDC).
#
# This work is licensed under the Creative Commons
# Attribution-NonCommercial-ShareAlike 4.0 International License.
# To view a copy of this license, visit
# http://creativecommons.org/licenses/by-nc-sa/4.0/
# or send a letter to
# Creative Commons, PO Box 1866, Mountain View, CA 94042, USA.
#
# CIF created using the CSD Python API on 29 September 2022
# The structure has been converted into the P1 space group
# The structure has a 3D framework
# The original CSD entry OKIPOO is in the tetragonal crystal system
# The framework has been calculated to contain at least 10.0% void space
# The void calculation uses a probe of radius 1.32A, grid spacing 0.4
#
###############################################################################

data_OKIPOO
_chemical_formula_moiety         '(C832 H576 Co32 N128 O152)n'
_symmetry_cell_setting           triclinic
_symmetry_space_group_name_H-M   'P 1'
_symmetry_Int_Tables_number      1
_space_group_name_Hall           'P 1'
loop_
_symmetry_equiv_pos_site_id
_symmetry_equiv_pos_as_xyz
1 x,y,z
_cell_length_a                   18.4905(17)
_cell_length_b                   18.4905(17)
_cell_length_c                   61.775(8)
_cell_angle_alpha                90
_cell_angle_beta                 90
_cell_angle_gamma                90
_cell_volume                     21120.8
loop_
_atom_site_label
_atom_site_type_symbol
_atom_site_fract_x
_atom_site_fract_y
_atom_site_fract_z
C20 C 0.0150(3) 0.1282(4) 0.85387(8)
H13 H 0.0205 0.1784 0.8511
C21 C 0.0459(3) 0.0932(4) 0.87038(8)
H14 H 0.0768 0.1131 0.8811
H15 H 0.1392 0.0030 0.8918
N4 N 0.0241(2) 0.0228(2) 0.86864(6)
C1 C 0.0289(3) 0.5783(3) 0.06463(9)
C9 C 0.1252(3) 0.7157(3) 0.02159(8)
H5 H 0.1417 0.6717 0.0154
Co1 Co 0.14310(4) 0.65507(4) 0.066750(10)
N1 N 0.1214(3) 0.7258(2) 0.04234(7)
N2 N 0.1044(3) 0.7711(3) 0.00995(7)
O1 O 0.0451(2) 0.6249(2) 0.07862(6)
O2 O 0.0710(2) 0.5647(2) 0.04949(7)
C25 C 0.0624(13) 0.8107(11) 0.0242(2)
H17 H 0.0300 0.8490 0.0208
C26 C 0.0772(12) 0.7833(10) 0.0439(2)
H18 H 0.0589 0.8020 0.0571
N5 N 0.1676(2) 0.7246(3) 0.09165(7)
O6 O 0.2361(2) 0.6121(2) 0.05694(9)
C2 C 0.9581(3) 0.5400(3) 0.06655(9)
C3 C 0.9350(3) 0.4934(3) 0.05042(9)
H1 H 0.9645 0.4852 0.0381
C4 C 0.8686(3) 0.4584(3) 0.05230(11)
H2 H 0.8527 0.4272 0.0410
C5 C 0.8264(3) 0.4681(3) 0.06986(11)
C6 C 0.8495(3) 0.5148(4) 0.08616(11)
H3 H 0.8199 0.5221 0.0985
C7 C 0.9146(3) 0.5503(3) 0.08455(10)
H4 H 0.9297 0.5820 0.0958
C8 C 0.7562(4) 0.4283(4) 0.07239(16)
O3 O 0.7205(3) 0.4340(3) 0.08911(11)
O4 O 0.7361(2) 0.3879(2) 0.05694(9)
Co3 Co 0.64310(4) 0.34493(4) 0.066750(10)
C1_2 C 0.6717(3) 0.7789(3) 0.31463(9)
C2_2 C 0.7100(3) 0.7081(3) 0.31655(9)
C3_2 C 0.7566(3) 0.6850(3) 0.30042(9)
H1_2 H 0.7648 0.7145 0.2881
C4_2 C 0.7916(3) 0.6186(3) 0.30230(11)
H2_2 H 0.8228 0.6027 0.2910
C5_2 C 0.7819(3) 0.5764(3) 0.31986(11)
C6_2 C 0.7352(4) 0.5995(3) 0.33616(11)
H3_2 H 0.7279 0.5699 0.3485
C7_2 C 0.6997(3) 0.6646(3) 0.33455(10)
H4_2 H 0.6680 0.6797 0.3458
C8_2 C 0.8217(4) 0.5062(4) 0.32239(16)
C9_2 C 0.5343(3) 0.8752(3) 0.27159(8)
H5_2 H 0.5783 0.8917 0.2654
C10 C 0.4716(3) 0.8527(3) 0.23690(8)
C11 C 0.5147(3) 0.8961(3) 0.22456(8)
H6 H 0.5478 0.9285 0.2312
C12 C 0.5097(3) 0.8927(4) 0.20232(8)
H7 H 0.5408 0.9214 0.1936
C13 C 0.4241(3) 0.8090(4) 0.22696(9)
H8 H 0.3947 0.7782 0.2356
C14 C 0.4162(3) 0.8069(4) 0.20499(9)
H9 H 0.3805 0.7771 0.1985
C15 C 0.4604(3) 0.8483(3) 0.19280(9)
C16 C 0.3999(3) 0.8252(4) 0.15911(8)
C17 C 0.3978(3) 0.7600(4) 0.14921(10)
H10 H 0.4360 0.7264 0.1513
C18 C 0.3443(4) 0.8725(4) 0.15691(9)
H11 H 0.3452 0.9171 0.1645
C19 C 0.2307(3) 0.7323(3) 0.10108(9)
H12 H 0.2740 0.7105 0.0960
C20_2 C 0.1218(4) 0.7650(3) 0.10387(8)
H13_2 H 0.0716 0.7705 0.1011
C21_2 C 0.1568(4) 0.7959(3) 0.12038(8)
H14_2 H 0.1369 0.8268 0.1311
C22 C 0.2863(3) 0.7911(3) 0.13291(7)
C23 C 0.2860(4) 0.8562(3) 0.14355(9)
H15_2 H 0.2470 0.8892 0.1418
C24 C 0.3403(4) 0.7423(3) 0.13612(9)
H16 H 0.3384 0.6963 0.1293
Co1_2 Co 0.59493(4) 0.89310(4) 0.316750(10)
N1_2 N 0.5242(2) 0.8714(3) 0.29234(7)
N2_2 N 0.4789(3) 0.8544(3) 0.25995(7)
N4_2 N 0.2272(2) 0.7741(2) 0.11864(6)
O1_2 O 0.6251(2) 0.7951(2) 0.32862(6)
O2_2 O 0.6853(2) 0.8210(2) 0.29949(7)
O3_2 O 0.8160(3) 0.4705(3) 0.33911(11)
O4_2 O 0.8621(2) 0.4861(2) 0.30694(9)
O5 O 0.4618(2) 0.8469(3) 0.17025(6)
C25_2 C 0.4393(11) 0.8124(13) 0.2742(2)
H17_2 H 0.4010 0.7800 0.2708
C26_2 C 0.4667(10) 0.8272(12) 0.2939(2)
H18_2 H 0.4480 0.8089 0.3071
Co3_2 Co 0.90507(4) 0.39310(4) 0.316750(10)
N5_2 N 0.5254(3) 0.9176(2) 0.34165(7)
O6_2 O 0.6379(2) 0.9861(2) 0.30694(9)
C19_2 C 0.5177(3) 0.9807(3) 0.35108(9)
C20_3 C 0.4850(3) 0.8718(4) 0.35387(8)
H13_3 H 0.4795 0.8216 0.3511
C21_3 C 0.4541(3) 0.9068(4) 0.37038(8)
H14_3 H 0.4232 0.8869 0.3811
H15_3 H 0.3608 0.9970 0.3918
N4_3 N 0.4759(2) 0.9772(2) 0.36864(6)
C1_3 C 0.5289(3) 0.4217(3) 0.06463(9)
C2_3 C 0.4581(3) 0.4600(3) 0.06655(9)
C3_3 C 0.4350(3) 0.5066(3) 0.05042(9)
H1_3 H 0.4645 0.5148 0.0381
C4_3 C 0.3686(3) 0.5416(3) 0.05230(11)
H2_3 H 0.3527 0.5728 0.0410
C5_3 C 0.3264(3) 0.5319(3) 0.06986(11)
C6_3 C 0.3495(3) 0.4852(4) 0.08616(11)
H3_3 H 0.3199 0.4779 0.0985
C7_3 C 0.4146(3) 0.4497(3) 0.08455(10)
H4_3 H 0.4297 0.4180 0.0958
C8_3 C 0.2562(4) 0.5717(4) 0.07239(16)
C9_3 C 0.6252(3) 0.2843(3) 0.02159(8)
H5_3 H 0.6417 0.3283 0.0154
N1_3 N 0.6214(3) 0.2742(2) 0.04234(7)
N2_3 N 0.6044(3) 0.2289(3) 0.00995(7)
O1_3 O 0.5451(2) 0.3751(2) 0.07862(6)
O2_3 O 0.5710(2) 0.4353(2) 0.04949(7)
O3_3 O 0.2205(3) 0.5660(3) 0.08911(11)
C25_3 C 0.5624(13) 0.1893(11) 0.0242(2)
H17_3 H 0.5300 0.1510 0.0208
C26_3 C 0.5772(12) 0.2167(10) 0.0439(2)
H18_3 H 0.5589 0.1980 0.0571
N5_3 N 0.6676(2) 0.2754(3) 0.09165(7)
C2_4 C 0.9581(3) 0.9600(3) 0.56655(9)
C6_4 C 0.8495(3) 0.9852(4) 0.58616(11)
H3_4 H 0.8199 0.9779 0.5985
C7_4 C 0.9146(3) 0.9497(3) 0.58455(10)
H4_4 H 0.9297 0.9180 0.5958
H10_2 H 0.9764 0.6860 0.4013
C19_3 C 0.9823(3) 0.4807(3) 0.35108(9)
H12_2 H 0.9605 0.5240 0.3460
C24_2 C 0.9923(3) 0.5903(4) 0.38612(9)
H16_2 H 0.9463 0.5884 0.3793
N3 N 0.9746(3) 0.4176(2) 0.34165(7)
C10_2 C 0.9716(3) 0.1473(3) 0.23690(8)
C13_2 C 0.9241(3) 0.1910(4) 0.22696(9)
H8_2 H 0.8947 0.2218 0.2356
C14_2 C 0.9162(3) 0.1931(4) 0.20499(9)
H9_2 H 0.8805 0.2229 0.1985
C15_2 C 0.9604(3) 0.1517(3) 0.19280(9)
C16_2 C 0.8999(3) 0.1748(4) 0.15911(8)
C17_2 C 0.8978(3) 0.2400(4) 0.14921(10)
H10_3 H 0.9360 0.2736 0.1513
C18_2 C 0.8443(4) 0.1275(4) 0.15691(9)
H11_2 H 0.8452 0.0829 0.1645
C19_4 C 0.7307(3) 0.2677(3) 0.10108(9)
H12_3 H 0.7740 0.2895 0.0960
C20_4 C 0.6218(4) 0.2350(3) 0.10387(8)
H13_4 H 0.5716 0.2295 0.1011
C21_4 C 0.6568(4) 0.2041(3) 0.12038(8)
H14_4 H 0.6369 0.1732 0.1311
C22_2 C 0.7863(3) 0.2089(3) 0.13291(7)
C23_2 C 0.7860(4) 0.1438(3) 0.14355(9)
H15_4 H 0.7470 0.1108 0.1418
C24_3 C 0.8403(4) 0.2577(3) 0.13612(9)
H16_3 H 0.8384 0.3037 0.1293
N2_4 N 0.9789(3) 0.1456(3) 0.25995(7)
N4_4 N 0.7272(2) 0.2259(2) 0.11864(6)
O5_2 O 0.9618(2) 0.1531(3) 0.17025(6)
C25_4 C 0.9393(11) 0.1876(13) 0.2742(2)
H17_4 H 0.9010 0.2200 0.2708
C26_4 C 0.9667(10) 0.1728(12) 0.2939(2)
H18_4 H 0.9480 0.1911 0.3071
C1_4 C 0.8283(3) 0.2789(3) 0.31463(9)
C2_5 C 0.7900(3) 0.2081(3) 0.31655(9)
C3_4 C 0.7434(3) 0.1850(3) 0.30042(9)
H1_4 H 0.7352 0.2145 0.2881
C4_4 C 0.7084(3) 0.1186(3) 0.30230(11)
H2_4 H 0.6772 0.1027 0.2910
C5_4 C 0.7181(3) 0.0764(3) 0.31986(11)
C6_5 C 0.7648(4) 0.0995(3) 0.33616(11)
H3_5 H 0.7721 0.0699 0.3485
C7_5 C 0.8003(3) 0.1646(3) 0.33455(10)
H4_5 H 0.8320 0.1797 0.3458
C8_4 C 0.6783(4) 0.0062(4) 0.32239(16)
C9_4 C 0.9657(3) 0.3752(3) 0.27159(8)
H5_4 H 0.9217 0.3917 0.2654
C11_2 C 0.9853(3) 0.3961(3) 0.22456(8)
H6_2 H 0.9522 0.4285 0.2312
C12_2 C 0.9903(3) 0.3927(4) 0.20232(8)
H7_2 H 0.9592 0.4214 0.1936
N1_4 N 0.9758(2) 0.3714(3) 0.29234(7)
O1_4 O 0.8749(2) 0.2951(2) 0.32862(6)
O2_4 O 0.8147(2) 0.3210(2) 0.29949(7)
O3_4 O 0.6840(3) 0.9705(3) 0.33911(11)
C10_3 C 0.1027(3) 0.7784(3) 0.98690(8)
C11_3 C 0.1461(3) 0.7353(3) 0.97456(8)
H6_3 H 0.1785 0.7022 0.9812
C12_3 C 0.1427(4) 0.7403(3) 0.95232(8)
H7_3 H 0.1714 0.7092 0.9436
C13_3 C 0.0590(4) 0.8259(3) 0.97696(9)
H8_3 H 0.0282 0.8553 0.9856
C14_3 C 0.0569(4) 0.8338(3) 0.95499(9)
H9_3 H 0.0271 0.8695 0.9485
C15_3 C 0.0983(3) 0.7896(3) 0.94280(9)
C16_3 C 0.0752(4) 0.8501(3) 0.90911(8)
C17_3 C 0.0100(4) 0.8522(3) 0.89921(10)
C18_3 C 0.1225(4) 0.9057(4) 0.90691(9)
H11_3 H 0.1671 0.9048 0.9145
C22_3 C 0.0411(3) 0.9637(3) 0.88291(7)
C23_3 C 0.1062(3) 0.9640(4) 0.89355(9)
O5_3 O 0.0969(3) 0.7882(2) 0.92025(6)
C19_5 C 0.9823(3) 0.0193(3) 0.85108(9)
N3_2 N 0.9746(3) 0.0824(2) 0.84165(7)
Co2 Co 0.90507(4) 0.10690(4) 0.816750(10)
C1_5 C 0.8283(3) 0.2211(3) 0.81463(9)
C2_6 C 0.7900(3) 0.2919(3) 0.81655(9)
C3_5 C 0.7434(3) 0.3150(3) 0.80042(9)
H1_5 H 0.7352 0.2855 0.7881
C4_5 C 0.7084(3) 0.3814(3) 0.80230(11)
H2_5 H 0.6772 0.3973 0.7910
C5_5 C 0.7181(3) 0.4236(3) 0.81986(11)
C6_6 C 0.7648(4) 0.4005(3) 0.83616(11)
H3_6 H 0.7721 0.4301 0.8485
C7_6 C 0.8003(3) 0.3354(3) 0.83455(10)
H4_6 H 0.8320 0.3203 0.8458
C8_5 C 0.6783(4) 0.4938(4) 0.82239(16)
C9_5 C 0.9657(3) 0.1248(3) 0.77159(8)
H5_5 H 0.9217 0.1083 0.7654
C11_4 C 0.9853(3) 0.1039(3) 0.72456(8)
H6_4 H 0.9522 0.0715 0.7312
C12_4 C 0.9903(3) 0.1073(4) 0.70232(8)
H7_4 H 0.9592 0.0786 0.6936
N1_5 N 0.9758(2) 0.1286(3) 0.79234(7)
O1_5 O 0.8749(2) 0.2049(2) 0.82862(6)
O2_5 O 0.8147(2) 0.1790(2) 0.79949(7)
O3_5 O 0.6840(3) 0.5295(3) 0.83911(11)
O4_3 O 0.6379(2) 0.5139(2) 0.80694(9)
Co3_3 Co 0.59493(4) 0.60690(4) 0.816750(10)
O6_3 O 0.8621(2) 0.0139(2) 0.80694(9)
C3_6 C 0.4350(3) 0.9934(3) 0.55042(9)
H1_6 H 0.4645 0.9852 0.5381
C4_6 C 0.3686(3) 0.9584(3) 0.55230(11)
H2_6 H 0.3527 0.9272 0.5410
C5_6 C 0.3264(3) 0.9681(3) 0.56986(11)
C8_6 C 0.2562(4) 0.9283(4) 0.57239(16)
O3_6 O 0.2205(3) 0.9340(3) 0.58911(11)
O4_4 O 0.2361(2) 0.8879(2) 0.55694(9)
Co3_4 Co 0.14310(4) 0.84493(4) 0.566750(10)
O3_7 O 0.8160(3) 0.0295(3) 0.83911(11)
C1_6 C 0.6717(3) 0.7211(3) 0.81463(9)
C2_7 C 0.7100(3) 0.7919(3) 0.81655(9)
C3_7 C 0.7566(3) 0.8150(3) 0.80042(9)
H1_7 H 0.7648 0.7855 0.7881
C4_7 C 0.7916(3) 0.8814(3) 0.80230(11)
H2_7 H 0.8228 0.8973 0.7910
C5_7 C 0.7819(3) 0.9236(3) 0.81986(11)
C6_7 C 0.7352(4) 0.9005(3) 0.83616(11)
H3_7 H 0.7279 0.9301 0.8485
C7_7 C 0.6997(3) 0.8354(3) 0.83455(10)
H4_7 H 0.6680 0.8203 0.8458
C8_7 C 0.8217(4) 0.9938(4) 0.82239(16)
C9_6 C 0.5343(3) 0.6248(3) 0.77159(8)
H5_6 H 0.5783 0.6083 0.7654
C10_4 C 0.4716(3) 0.6473(3) 0.73690(8)
C11_5 C 0.5147(3) 0.6039(3) 0.72456(8)
H6_5 H 0.5478 0.5715 0.7312
C12_5 C 0.5097(3) 0.6073(4) 0.70232(8)
H7_5 H 0.5408 0.5786 0.6936
C13_4 C 0.4241(3) 0.6910(4) 0.72696(9)
H8_4 H 0.3947 0.7218 0.7356
C14_4 C 0.4162(3) 0.6931(4) 0.70499(9)
H9_4 H 0.3805 0.7229 0.6985
C15_4 C 0.4604(3) 0.6517(3) 0.69280(9)
C16_4 C 0.3999(3) 0.6748(4) 0.65911(8)
C17_4 C 0.3978(3) 0.7400(4) 0.64921(10)
H10_4 H 0.4360 0.7736 0.6513
C18_4 C 0.3443(4) 0.6275(4) 0.65691(9)
H11_4 H 0.3452 0.5829 0.6645
C19_6 C 0.2307(3) 0.7677(3) 0.60108(9)
H12_4 H 0.2740 0.7895 0.5960
C20_5 C 0.1218(4) 0.7350(3) 0.60387(8)
H13_5 H 0.0716 0.7295 0.6011
C21_5 C 0.1568(4) 0.7041(3) 0.62038(8)
H14_5 H 0.1369 0.6732 0.6311
C22_4 C 0.2863(3) 0.7089(3) 0.63291(7)
C23_4 C 0.2860(4) 0.6438(3) 0.64355(9)
H15_5 H 0.2470 0.6108 0.6418
C24_4 C 0.3403(4) 0.7577(3) 0.63612(9)
H16_4 H 0.3384 0.8037 0.6293
N1_6 N 0.5242(2) 0.6286(3) 0.79234(7)
N2_5 N 0.4789(3) 0.6456(3) 0.75995(7)
N3_3 N 0.1676(2) 0.7754(3) 0.59165(7)
N4_5 N 0.2272(2) 0.7259(2) 0.61864(6)
O1_6 O 0.6251(2) 0.7049(2) 0.82862(6)
O2_6 O 0.6853(2) 0.6790(2) 0.79949(7)
O5_4 O 0.4618(2) 0.6531(3) 0.67025(6)
C25_5 C 0.4393(11) 0.6876(13) 0.7742(2)
H17_5 H 0.4010 0.7200 0.7708
C26_5 C 0.4667(10) 0.6728(12) 0.7939(2)
H18_5 H 0.4480 0.6911 0.8071
N5_4 N 0.5254(3) 0.5824(2) 0.84165(7)
C10_5 C 0.3973(3) 0.2784(3) 0.98690(8)
C11_6 C 0.3539(3) 0.2353(3) 0.97456(8)
H6_6 H 0.3215 0.2022 0.9812
C12_6 C 0.3573(4) 0.2403(3) 0.95232(8)
H7_6 H 0.3286 0.2092 0.9436
C13_5 C 0.4410(4) 0.3259(3) 0.97696(9)
H8_5 H 0.4718 0.3553 0.9856
C14_5 C 0.4431(4) 0.3338(3) 0.95499(9)
H9_5 H 0.4729 0.3695 0.9485
C15_5 C 0.4017(3) 0.2896(3) 0.94280(9)
C16_5 C 0.4248(4) 0.3501(3) 0.90911(8)
C17_5 C 0.4900(4) 0.3522(3) 0.89921(10)
H10_5 H 0.5236 0.3140 0.9013
C18_5 C 0.3775(4) 0.4057(4) 0.90691(9)
H11_5 H 0.3329 0.4048 0.9145
C19_7 C 0.5177(3) 0.5193(3) 0.85108(9)
H12_5 H 0.5395 0.4760 0.8460
C20_6 C 0.4850(3) 0.6282(4) 0.85387(8)
H13_6 H 0.4795 0.6784 0.8511
C21_6 C 0.4541(3) 0.5932(4) 0.87038(8)
H14_6 H 0.4232 0.6131 0.8811
C22_5 C 0.4589(3) 0.4637(3) 0.88291(7)
C23_5 C 0.3938(3) 0.4640(4) 0.89355(9)
H15_6 H 0.3608 0.5030 0.8918
C24_5 C 0.5077(3) 0.4097(4) 0.88612(9)
H16_5 H 0.5537 0.4116 0.8793
N4_6 N 0.4759(2) 0.5228(2) 0.86864(6)
O5_5 O 0.4031(3) 0.2882(2) 0.92025(6)
C1_7 C 0.0289(3) 0.9217(3) 0.56463(9)
C9_7 C 0.1252(3) 0.7843(3) 0.52159(8)
H5_7 H 0.1417 0.8283 0.5154
C10_6 C 0.1027(3) 0.7216(3) 0.48690(8)
C11_7 C 0.1461(3) 0.7647(3) 0.47456(8)
H6_7 H 0.1785 0.7978 0.4812
C12_7 C 0.1427(4) 0.7597(3) 0.45232(8)
H7_7 H 0.1714 0.7908 0.4436
C13_6 C 0.0590(4) 0.6741(3) 0.47696(9)
H8_6 H 0.0282 0.6447 0.4856
C14_6 C 0.0569(4) 0.6662(3) 0.45499(9)
H9_6 H 0.0271 0.6305 0.4485
C15_6 C 0.0983(3) 0.7104(3) 0.44280(9)
C16_6 C 0.0752(4) 0.6499(3) 0.40911(8)
C17_6 C 0.0100(4) 0.6478(3) 0.39921(10)
C18_6 C 0.1225(4) 0.5943(4) 0.40691(9)
H11_6 H 0.1671 0.5952 0.4145
C20_7 C 0.0150(3) 0.3718(4) 0.35387(8)
H13_7 H 0.0205 0.3216 0.3511
C21_7 C 0.0459(3) 0.4068(4) 0.37038(8)
H14_7 H 0.0768 0.3869 0.3811
C22_6 C 0.0411(3) 0.5363(3) 0.38291(7)
C23_6 C 0.1062(3) 0.5360(4) 0.39355(9)
H15_7 H 0.1392 0.4970 0.3918
N1_7 N 0.1214(3) 0.7742(2) 0.54234(7)
N2_6 N 0.1044(3) 0.7289(3) 0.50995(7)
N4_7 N 0.0241(2) 0.4772(2) 0.36864(6)
O1_7 O 0.0451(2) 0.8751(2) 0.57862(6)
O2_7 O 0.0710(2) 0.9353(2) 0.54949(7)
O5_6 O 0.0969(3) 0.7118(2) 0.42025(6)
C25_6 C 0.0624(13) 0.6893(11) 0.5242(2)
H17_6 H 0.0300 0.6510 0.5208
C26_6 C 0.0772(12) 0.7167(10) 0.5439(2)
H18_6 H 0.0589 0.6980 0.5571
H10_6 H 0.9764 0.8140 0.9013
H12_6 H 0.9605 0.9760 0.8460
C24_6 C 0.9923(3) 0.9097(4) 0.88612(9)
H16_6 H 0.9463 0.9116 0.8793
C3_8 C 0.0650(3) 0.0066(3) 0.05042(9)
H1_8 H 0.0355 0.0148 0.0381
C4_8 C 0.1314(3) 0.0416(3) 0.05230(11)
H2_8 H 0.1473 0.0728 0.0410
C5_8 C 0.1736(3) 0.0319(3) 0.06986(11)
C8_8 C 0.2438(4) 0.0717(4) 0.07239(16)
O3_8 O 0.2795(3) 0.0660(3) 0.08911(11)
O4_5 O 0.2639(2) 0.1121(2) 0.05694(9)
Co3_5 Co 0.35690(4) 0.15507(4) 0.066750(10)
C1_8 C 0.4711(3) 0.0783(3) 0.06463(9)
C2_8 C 0.5419(3) 0.0400(3) 0.06655(9)
C6_8 C 0.6505(3) 0.0148(4) 0.08616(11)
H3_8 H 0.6801 0.0221 0.0985
C7_8 C 0.5854(3) 0.0503(3) 0.08455(10)
H4_8 H 0.5703 0.0820 0.0958
C9_8 C 0.3748(3) 0.2157(3) 0.02159(8)
H5_8 H 0.3583 0.1717 0.0154
N1_8 N 0.3786(3) 0.2258(2) 0.04234(7)
N2_7 N 0.3956(3) 0.2711(3) 0.00995(7)
O1_8 O 0.4549(2) 0.1249(2) 0.07862(6)
O2_8 O 0.4290(2) 0.0647(2) 0.04949(7)
C25_7 C 0.4376(13) 0.3107(11) 0.0242(2)
H17_7 H 0.4700 0.3490 0.0208
C26_7 C 0.4228(12) 0.2833(10) 0.0439(2)
H18_7 H 0.4411 0.3020 0.0571
N5_5 N 0.3324(2) 0.2246(3) 0.09165(7)
C10_7 C 0.0284(3) 0.3527(3) 0.23690(8)
C13_7 C 0.0759(3) 0.3090(4) 0.22696(9)
H8_7 H 0.1053 0.2782 0.2356
C14_7 C 0.0838(3) 0.3069(4) 0.20499(9)
H9_7 H 0.1195 0.2771 0.1985
C15_7 C 0.0396(3) 0.3483(3) 0.19280(9)
C16_7 C 0.1001(3) 0.3252(4) 0.15911(8)
C17_7 C 0.1022(3) 0.2600(4) 0.14921(10)
H10_7 H 0.0640 0.2264 0.1513
C18_7 C 0.1557(4) 0.3725(4) 0.15691(9)
H11_7 H 0.1548 0.4171 0.1645
C19_8 C 0.2693(3) 0.2323(3) 0.10108(9)
H12_7 H 0.2260 0.2105 0.0960
C20_8 C 0.3782(4) 0.2650(3) 0.10387(8)
H13_8 H 0.4284 0.2705 0.1011
C21_8 C 0.3432(4) 0.2959(3) 0.12038(8)
H14_8 H 0.3631 0.3268 0.1311
C22_7 C 0.2137(3) 0.2911(3) 0.13291(7)
C23_7 C 0.2140(4) 0.3562(3) 0.14355(9)
H15_8 H 0.2530 0.3892 0.1418
C24_7 C 0.1597(4) 0.2423(3) 0.13612(9)
H16_7 H 0.1616 0.1963 0.1293
N2_8 N 0.0211(3) 0.3544(3) 0.25995(7)
N4_8 N 0.2728(2) 0.2741(2) 0.11864(6)
O5_7 O 0.0382(2) 0.3469(3) 0.17025(6)
C25_8 C 0.0607(11) 0.3124(13) 0.2742(2)
H17_8 H 0.0990 0.2800 0.2708
C26_8 C 0.0333(10) 0.3272(12) 0.2939(2)
H18_8 H 0.0520 0.3089 0.3071
C2_9 C 0.0419(3) 0.9600(3) 0.06655(9)
C6_9 C 0.1505(3) 0.9852(4) 0.08616(11)
H3_9 H 0.1801 0.9779 0.0985
C7_9 C 0.0854(3) 0.9497(3) 0.08455(10)
H4_9 H 0.0703 0.9180 0.0958
H10_8 H 0.0236 0.6860 0.9013
C19_9 C 0.0177(3) 0.4807(3) 0.85108(9)
H12_8 H 0.0395 0.5240 0.8460
C24_8 C 0.0077(3) 0.5903(4) 0.88612(9)
H16_8 H 0.0537 0.5884 0.8793
N3_4 N 0.0254(3) 0.4176(2) 0.84165(7)
Co2_2 Co 0.09493(4) 0.39310(4) 0.816750(10)
C10_8 C 0.0284(3) 0.1473(3) 0.73690(8)
C13_8 C 0.0759(3) 0.1910(4) 0.72696(9)
H8_8 H 0.1053 0.2218 0.7356
C14_8 C 0.0838(3) 0.1931(4) 0.70499(9)
H9_8 H 0.1195 0.2229 0.6985
C15_8 C 0.0396(3) 0.1517(3) 0.69280(9)
C16_8 C 0.1001(3) 0.1748(4) 0.65911(8)
C17_8 C 0.1022(3) 0.2400(4) 0.64921(10)
H10_9 H 0.0640 0.2736 0.6513
C18_8 C 0.1557(4) 0.1275(4) 0.65691(9)
H11_8 H 0.1548 0.0829 0.6645
C19_10 C 0.2693(3) 0.2677(3) 0.60108(9)
H12_9 H 0.2260 0.2895 0.5960
C20_9 C 0.3782(4) 0.2350(3) 0.60387(8)
H13_9 H 0.4284 0.2295 0.6011
C21_9 C 0.3432(4) 0.2041(3) 0.62038(8)
H14_9 H 0.3631 0.1732 0.6311
C22_8 C 0.2137(3) 0.2089(3) 0.63291(7)
C23_8 C 0.2140(4) 0.1438(3) 0.64355(9)
H15_9 H 0.2530 0.1108 0.6418
C24_9 C 0.1597(4) 0.2577(3) 0.63612(9)
H16_9 H 0.1616 0.3037 0.6293
N2_9 N 0.0211(3) 0.1456(3) 0.75995(7)
N3_5 N 0.3324(2) 0.2754(3) 0.59165(7)
N4_9 N 0.2728(2) 0.2259(2) 0.61864(6)
O5_8 O 0.0382(2) 0.1531(3) 0.67025(6)
C25_9 C 0.0607(11) 0.1876(13) 0.7742(2)
H17_9 H 0.0990 0.2200 0.7708
C26_9 C 0.0333(10) 0.1728(12) 0.7939(2)
H18_9 H 0.0520 0.1911 0.8071
Co2_3 Co 0.35690(4) 0.34493(4) 0.566750(10)
C1_9 C 0.1717(3) 0.2789(3) 0.81463(9)
C2_10 C 0.2100(3) 0.2081(3) 0.81655(9)
C3_9 C 0.2566(3) 0.1850(3) 0.80042(9)
H1_9 H 0.2648 0.2145 0.7881
C4_9 C 0.2916(3) 0.1186(3) 0.80230(11)
H2_9 H 0.3228 0.1027 0.7910
C5_9 C 0.2819(3) 0.0764(3) 0.81986(11)
C6_10 C 0.2352(4) 0.0995(3) 0.83616(11)
H3_10 H 0.2279 0.0699 0.8485
C7_10 C 0.1997(3) 0.1646(3) 0.83455(10)
H4_10 H 0.1680 0.1797 0.8458
C8_9 C 0.3217(4) 0.0062(4) 0.82239(16)
C9_9 C 0.0343(3) 0.3752(3) 0.77159(8)
H5_9 H 0.0783 0.3917 0.7654
C11_8 C 0.0147(3) 0.3961(3) 0.72456(8)
H6_8 H 0.0478 0.4285 0.7312
C12_8 C 0.0097(3) 0.3927(4) 0.70232(8)
H7_8 H 0.0408 0.4214 0.6936
N1_9 N 0.0242(2) 0.3714(3) 0.79234(7)
O1_9 O 0.1251(2) 0.2951(2) 0.82862(6)
O2_9 O 0.1853(2) 0.3210(2) 0.79949(7)
O6_4 O 0.1379(2) 0.4861(2) 0.80694(9)
O3_9 O 0.3160(3) 0.9705(3) 0.83911(11)
O4_6 O 0.3621(2) 0.9861(2) 0.80694(9)
Co3_6 Co 0.40507(4) 0.89310(4) 0.816750(10)
C1_10 C 0.4711(3) 0.4217(3) 0.56463(9)
C2_11 C 0.5419(3) 0.4600(3) 0.56655(9)
C3_10 C 0.5650(3) 0.5066(3) 0.55042(9)
H1_10 H 0.5355 0.5148 0.5381
C4_10 C 0.6314(3) 0.5416(3) 0.55230(11)
H2_10 H 0.6473 0.5728 0.5410
C5_10 C 0.6736(3) 0.5319(3) 0.56986(11)
C6_11 C 0.6505(3) 0.4852(4) 0.58616(11)
H3_11 H 0.6801 0.4779 0.5985
C7_11 C 0.5854(3) 0.4497(3) 0.58455(10)
H4_11 H 0.5703 0.4180 0.5958
C8_10 C 0.7438(4) 0.5717(4) 0.57239(16)
C9_10 C 0.3748(3) 0.2843(3) 0.52159(8)
H5_10 H 0.3583 0.3283 0.5154
C10_9 C 0.3973(3) 0.2216(3) 0.48690(8)
C11_9 C 0.3539(3) 0.2647(3) 0.47456(8)
H6_9 H 0.3215 0.2978 0.4812
C12_9 C 0.3573(4) 0.2597(3) 0.45232(8)
H7_9 H 0.3286 0.2908 0.4436
C13_9 C 0.4410(4) 0.1741(3) 0.47696(9)
H8_9 H 0.4718 0.1447 0.4856
C14_9 C 0.4431(4) 0.1662(3) 0.45499(9)
H9_9 H 0.4729 0.1305 0.4485
C15_9 C 0.4017(3) 0.2104(3) 0.44280(9)
C16_9 C 0.4248(4) 0.1499(3) 0.40911(8)
C17_9 C 0.4900(4) 0.1478(3) 0.39921(10)
H10_10 H 0.5236 0.1860 0.4013
C18_9 C 0.3775(4) 0.0943(4) 0.40691(9)
H11_9 H 0.3329 0.0952 0.4145
H12_10 H 0.5395 0.0240 0.3460
C22_9 C 0.4589(3) 0.0363(3) 0.38291(7)
C23_9 C 0.3938(3) 0.0360(4) 0.39355(9)
C24_10 C 0.5077(3) 0.0903(4) 0.38612(9)
H16_10 H 0.5537 0.0884 0.3793
N1_10 N 0.3786(3) 0.2742(2) 0.54234(7)
N2_10 N 0.3956(3) 0.2289(3) 0.50995(7)
O1_10 O 0.4549(2) 0.3751(2) 0.57862(6)
O2_10 O 0.4290(2) 0.4353(2) 0.54949(7)
O3_10 O 0.7795(3) 0.5660(3) 0.58911(11)
O4_7 O 0.7639(2) 0.6121(2) 0.55694(9)
O5_9 O 0.4031(3) 0.2118(2) 0.42025(6)
C25_10 C 0.4376(13) 0.1893(11) 0.5242(2)
H17_10 H 0.4700 0.1510 0.5208
C26_10 C 0.4228(12) 0.2167(10) 0.5439(2)
H18_10 H 0.4411 0.1980 0.5571
Co3_7 Co 0.85690(4) 0.65507(4) 0.566750(10)
O6_5 O 0.2639(2) 0.3879(2) 0.55694(9)
C2_12 C 0.0419(3) 0.5400(3) 0.56655(9)
C3_11 C 0.0650(3) 0.4934(3) 0.55042(9)
H1_11 H 0.0355 0.4852 0.5381
C4_11 C 0.1314(3) 0.4584(3) 0.55230(11)
H2_11 H 0.1473 0.4272 0.5410
C5_11 C 0.1736(3) 0.4681(3) 0.56986(11)
C6_12 C 0.1505(3) 0.5148(4) 0.58616(11)
H3_12 H 0.1801 0.5221 0.5985
C7_12 C 0.0854(3) 0.5503(3) 0.58455(10)
H4_12 H 0.0703 0.5820 0.5958
C8_11 C 0.2438(4) 0.4283(4) 0.57239(16)
H10_11 H 0.0236 0.8140 0.4013
H12_11 H 0.0395 0.9760 0.3460
C24_11 C 0.0077(3) 0.9097(4) 0.38612(9)
H16_11 H 0.0537 0.9116 0.3793
O3_11 O 0.2795(3) 0.4340(3) 0.58911(11)
C1_11 C 0.9711(3) 0.5783(3) 0.56463(9)
C9_11 C 0.8748(3) 0.7157(3) 0.52159(8)
H5_11 H 0.8583 0.6717 0.5154
C10_10 C 0.8973(3) 0.7784(3) 0.48690(8)
C11_10 C 0.8539(3) 0.7353(3) 0.47456(8)
H6_10 H 0.8215 0.7022 0.4812
C12_10 C 0.8573(4) 0.7403(3) 0.45232(8)
H7_10 H 0.8286 0.7092 0.4436
C13_10 C 0.9410(4) 0.8259(3) 0.47696(9)
H8_10 H 0.9718 0.8553 0.4856
C14_10 C 0.9431(4) 0.8338(3) 0.45499(9)
H9_10 H 0.9729 0.8695 0.4485
C15_10 C 0.9017(3) 0.7896(3) 0.44280(9)
C16_10 C 0.9248(4) 0.8501(3) 0.40911(8)
C17_10 C 0.9900(4) 0.8522(3) 0.39921(10)
C18_10 C 0.8775(4) 0.9057(4) 0.40691(9)
H11_10 H 0.8329 0.9048 0.4145
C22_10 C 0.9589(3) 0.9637(3) 0.38291(7)
C23_10 C 0.8938(3) 0.9640(4) 0.39355(9)
N1_11 N 0.8786(3) 0.7258(2) 0.54234(7)
N2_11 N 0.8956(3) 0.7711(3) 0.50995(7)
O1_11 O 0.9549(2) 0.6249(2) 0.57862(6)
O2_11 O 0.9290(2) 0.5647(2) 0.54949(7)
O5_10 O 0.9031(3) 0.7882(2) 0.42025(6)
C25_11 C 0.9376(13) 0.8107(11) 0.5242(2)
H17_11 H 0.9700 0.8490 0.5208
C26_11 C 0.9228(12) 0.7833(10) 0.5439(2)
H18_11 H 0.9411 0.8020 0.5571
N5_6 N 0.8324(2) 0.7246(3) 0.59165(7)
C19_11 C 0.4823(3) 0.9807(3) 0.85108(9)
C20_10 C 0.5150(3) 0.8718(4) 0.85387(8)
H13_10 H 0.5205 0.8216 0.8511
C21_10 C 0.5459(3) 0.9068(4) 0.87038(8)
H14_10 H 0.5768 0.8869 0.8811
H15_10 H 0.6392 0.9970 0.8918
N3_6 N 0.4746(3) 0.9176(2) 0.84165(7)
N4_10 N 0.5241(2) 0.9772(2) 0.86864(6)
C1_12 C 0.3283(3) 0.7789(3) 0.81463(9)
C2_13 C 0.2900(3) 0.7081(3) 0.81655(9)
C3_12 C 0.2434(3) 0.6850(3) 0.80042(9)
H1_12 H 0.2352 0.7145 0.7881
C4_12 C 0.2084(3) 0.6186(3) 0.80230(11)
H2_12 H 0.1772 0.6027 0.7910
C5_12 C 0.2181(3) 0.5764(3) 0.81986(11)
C6_13 C 0.2648(4) 0.5995(3) 0.83616(11)
H3_13 H 0.2721 0.5699 0.8485
C7_13 C 0.3003(3) 0.6646(3) 0.83455(10)
H4_13 H 0.3320 0.6797 0.8458
C8_12 C 0.1783(4) 0.5062(4) 0.82239(16)
C9_12 C 0.4657(3) 0.8752(3) 0.77159(8)
H5_12 H 0.4217 0.8917 0.7654
C10_11 C 0.5284(3) 0.8527(3) 0.73690(8)
C11_11 C 0.4853(3) 0.8961(3) 0.72456(8)
H6_11 H 0.4522 0.9285 0.7312
C12_11 C 0.4903(3) 0.8927(4) 0.70232(8)
H7_11 H 0.4592 0.9214 0.6936
C13_11 C 0.5759(3) 0.8090(4) 0.72696(9)
H8_11 H 0.6053 0.7782 0.7356
C14_11 C 0.5838(3) 0.8069(4) 0.70499(9)
H9_11 H 0.6195 0.7771 0.6985
C15_11 C 0.5396(3) 0.8483(3) 0.69280(9)
C16_11 C 0.6001(3) 0.8252(4) 0.65911(8)
C17_11 C 0.6022(3) 0.7600(4) 0.64921(10)
H10_12 H 0.5640 0.7264 0.6513
C18_11 C 0.6557(4) 0.8725(4) 0.65691(9)
H11_11 H 0.6548 0.9171 0.6645
C19_12 C 0.7693(3) 0.7323(3) 0.60108(9)
H12_12 H 0.7260 0.7105 0.5960
C20_11 C 0.8782(4) 0.7650(3) 0.60387(8)
H13_11 H 0.9284 0.7705 0.6011
C21_11 C 0.8432(4) 0.7959(3) 0.62038(8)
H14_11 H 0.8631 0.8268 0.6311
C22_11 C 0.7137(3) 0.7911(3) 0.63291(7)
C23_11 C 0.7140(4) 0.8562(3) 0.64355(9)
H15_11 H 0.7530 0.8892 0.6418
C24_12 C 0.6597(4) 0.7423(3) 0.63612(9)
H16_12 H 0.6616 0.6963 0.6293
N1_12 N 0.4758(2) 0.8714(3) 0.79234(7)
N2_12 N 0.5211(3) 0.8544(3) 0.75995(7)
N4_11 N 0.7728(2) 0.7741(2) 0.61864(6)
O1_12 O 0.3749(2) 0.7951(2) 0.82862(6)
O2_12 O 0.3147(2) 0.8210(2) 0.79949(7)
O3_12 O 0.1840(3) 0.4705(3) 0.83911(11)
O5_11 O 0.5382(2) 0.8469(3) 0.67025(6)
C25_12 C 0.5607(11) 0.8124(13) 0.7742(2)
H17_12 H 0.5990 0.7800 0.7708
C26_12 C 0.5333(10) 0.8272(12) 0.7939(2)
H18_12 H 0.5520 0.8089 0.8071
C1_13 C 0.9711(3) 0.9217(3) 0.06463(9)
C9_13 C 0.8748(3) 0.7843(3) 0.02159(8)
H5_13 H 0.8583 0.8283 0.0154
Co1_3 Co 0.85690(4) 0.84493(4) 0.066750(10)
N1_13 N 0.8786(3) 0.7742(2) 0.04234(7)
N2_13 N 0.8956(3) 0.7289(3) 0.00995(7)
O1_13 O 0.9549(2) 0.8751(2) 0.07862(6)
O2_13 O 0.9290(2) 0.9353(2) 0.04949(7)
C25_13 C 0.9376(13) 0.6893(11) 0.0242(2)
H17_13 H 0.9700 0.6510 0.0208
C26_13 C 0.9228(12) 0.7167(10) 0.0439(2)
H18_13 H 0.9411 0.6980 0.0571
N5_7 N 0.8324(2) 0.7754(3) 0.09165(7)
O6_6 O 0.7639(2) 0.8879(2) 0.05694(9)
C1_14 C 0.5289(3) 0.0783(3) 0.56463(9)
C2_14 C 0.4581(3) 0.0400(3) 0.56655(9)
C6_14 C 0.3495(3) 0.0148(4) 0.58616(11)
H3_14 H 0.3199 0.0221 0.5985
C7_14 C 0.4146(3) 0.0503(3) 0.58455(10)
H4_14 H 0.4297 0.0820 0.5958
C9_14 C 0.6252(3) 0.2157(3) 0.52159(8)
H5_14 H 0.6417 0.1717 0.5154
C10_12 C 0.6027(3) 0.2784(3) 0.48690(8)
C11_12 C 0.6461(3) 0.2353(3) 0.47456(8)
H6_12 H 0.6785 0.2022 0.4812
C12_12 C 0.6427(4) 0.2403(3) 0.45232(8)
H7_12 H 0.6714 0.2092 0.4436
C13_12 C 0.5590(4) 0.3259(3) 0.47696(9)
H8_12 H 0.5282 0.3553 0.4856
C14_12 C 0.5569(4) 0.3338(3) 0.45499(9)
H9_12 H 0.5271 0.3695 0.4485
C15_12 C 0.5983(3) 0.2896(3) 0.44280(9)
C16_12 C 0.5752(4) 0.3501(3) 0.40911(8)
C17_12 C 0.5100(4) 0.3522(3) 0.39921(10)
H10_13 H 0.4764 0.3140 0.4013
C18_12 C 0.6225(4) 0.4057(4) 0.40691(9)
H11_12 H 0.6671 0.4048 0.4145
C19_13 C 0.4823(3) 0.5193(3) 0.35108(9)
H12_13 H 0.4605 0.4760 0.3460
C20_12 C 0.5150(3) 0.6282(4) 0.35387(8)
H13_12 H 0.5205 0.6784 0.3511
C21_12 C 0.5459(3) 0.5932(4) 0.37038(8)
H14_12 H 0.5768 0.6131 0.3811
C22_12 C 0.5411(3) 0.4637(3) 0.38291(7)
C23_12 C 0.6062(3) 0.4640(4) 0.39355(9)
H15_12 H 0.6392 0.5030 0.3918
C24_13 C 0.4923(3) 0.4097(4) 0.38612(9)
H16_13 H 0.4463 0.4116 0.3793
Co1_4 Co 0.64310(4) 0.15507(4) 0.566750(10)
N1_14 N 0.6214(3) 0.2258(2) 0.54234(7)
N2_14 N 0.6044(3) 0.2711(3) 0.50995(7)
N3_7 N 0.4746(3) 0.5824(2) 0.34165(7)
N4_12 N 0.5241(2) 0.5228(2) 0.36864(6)
O1_14 O 0.5451(2) 0.1249(2) 0.57862(6)
O2_14 O 0.5710(2) 0.0647(2) 0.54949(7)
O5_12 O 0.5969(3) 0.2882(2) 0.42025(6)
C25_14 C 0.5624(13) 0.3107(11) 0.5242(2)
H17_14 H 0.5300 0.3490 0.5208
C26_14 C 0.5772(12) 0.2833(10) 0.5439(2)
H18_14 H 0.5589 0.3020 0.5571
Co2_4 Co 0.40507(4) 0.60690(4) 0.316750(10)
N5_8 N 0.6676(2) 0.2246(3) 0.59165(7)
O6_7 O 0.7361(2) 0.1121(2) 0.55694(9)
C10_13 C 0.9716(3) 0.3527(3) 0.73690(8)
C13_13 C 0.9241(3) 0.3090(4) 0.72696(9)
H8_13 H 0.8947 0.2782 0.7356
C14_13 C 0.9162(3) 0.3069(4) 0.70499(9)
H9_13 H 0.8805 0.2771 0.6985
C15_13 C 0.9604(3) 0.3483(3) 0.69280(9)
C16_13 C 0.8999(3) 0.3252(4) 0.65911(8)
C17_13 C 0.8978(3) 0.2600(4) 0.64921(10)
H10_14 H 0.9360 0.2264 0.6513
C18_13 C 0.8443(4) 0.3725(4) 0.65691(9)
H11_13 H 0.8452 0.4171 0.6645
C19_14 C 0.7307(3) 0.2323(3) 0.60108(9)
H12_14 H 0.7740 0.2105 0.5960
C20_13 C 0.6218(4) 0.2650(3) 0.60387(8)
H13_13 H 0.5716 0.2705 0.6011
C21_13 C 0.6568(4) 0.2959(3) 0.62038(8)
H14_13 H 0.6369 0.3268 0.6311
C22_13 C 0.7863(3) 0.2911(3) 0.63291(7)
C23_13 C 0.7860(4) 0.3562(3) 0.64355(9)
H15_13 H 0.7470 0.3892 0.6418
C24_14 C 0.8403(4) 0.2423(3) 0.63612(9)
H16_14 H 0.8384 0.1963 0.6293
N2_15 N 0.9789(3) 0.3544(3) 0.75995(7)
N4_13 N 0.7272(2) 0.2741(2) 0.61864(6)
O5_13 O 0.9618(2) 0.3469(3) 0.67025(6)
C25_15 C 0.9393(11) 0.3124(13) 0.7742(2)
H17_15 H 0.9010 0.2800 0.7708
C26_15 C 0.9667(10) 0.3272(12) 0.7939(2)
H18_15 H 0.9480 0.3089 0.8071
O3_13 O 0.1840(3) 0.0295(3) 0.33911(11)
O4_8 O 0.1379(2) 0.0139(2) 0.30694(9)
Co3_8 Co 0.09493(4) 0.10690(4) 0.316750(10)
C1_15 C 0.3283(3) 0.7211(3) 0.31463(9)
C2_15 C 0.2900(3) 0.7919(3) 0.31655(9)
C3_13 C 0.2434(3) 0.8150(3) 0.30042(9)
H1_13 H 0.2352 0.7855 0.2881
C4_13 C 0.2084(3) 0.8814(3) 0.30230(11)
H2_13 H 0.1772 0.8973 0.2910
C5_13 C 0.2181(3) 0.9236(3) 0.31986(11)
C6_15 C 0.2648(4) 0.9005(3) 0.33616(11)
H3_15 H 0.2721 0.9301 0.3485
C7_15 C 0.3003(3) 0.8354(3) 0.33455(10)
H4_15 H 0.3320 0.8203 0.3458
C8_13 C 0.1783(4) 0.9938(4) 0.32239(16)
C9_15 C 0.4657(3) 0.6248(3) 0.27159(8)
H5_15 H 0.4217 0.6083 0.2654
C10_14 C 0.5284(3) 0.6473(3) 0.23690(8)
C11_13 C 0.4853(3) 0.6039(3) 0.22456(8)
H6_13 H 0.4522 0.5715 0.2312
C12_13 C 0.4903(3) 0.6073(4) 0.20232(8)
H7_13 H 0.4592 0.5786 0.1936
C13_14 C 0.5759(3) 0.6910(4) 0.22696(9)
H8_14 H 0.6053 0.7218 0.2356
C14_14 C 0.5838(3) 0.6931(4) 0.20499(9)
H9_14 H 0.6195 0.7229 0.1985
C15_14 C 0.5396(3) 0.6517(3) 0.19280(9)
C16_14 C 0.6001(3) 0.6748(4) 0.15911(8)
C17_14 C 0.6022(3) 0.7400(4) 0.14921(10)
H10_15 H 0.5640 0.7736 0.1513
C18_14 C 0.6557(4) 0.6275(4) 0.15691(9)
H11_14 H 0.6548 0.5829 0.1645
C19_15 C 0.7693(3) 0.7677(3) 0.10108(9)
H12_15 H 0.7260 0.7895 0.0960
C20_14 C 0.8782(4) 0.7350(3) 0.10387(8)
H13_14 H 0.9284 0.7295 0.1011
C21_14 C 0.8432(4) 0.7041(3) 0.12038(8)
H14_14 H 0.8631 0.6732 0.1311
C22_14 C 0.7137(3) 0.7089(3) 0.13291(7)
C23_14 C 0.7140(4) 0.6438(3) 0.14355(9)
H15_14 H 0.7530 0.6108 0.1418
C24_15 C 0.6597(4) 0.7577(3) 0.13612(9)
H16_15 H 0.6616 0.8037 0.1293
N1_15 N 0.4758(2) 0.6286(3) 0.29234(7)
N2_16 N 0.5211(3) 0.6456(3) 0.25995(7)
N4_14 N 0.7728(2) 0.7259(2) 0.11864(6)
O1_15 O 0.3749(2) 0.7049(2) 0.32862(6)
O2_15 O 0.3147(2) 0.6790(2) 0.29949(7)
O5_14 O 0.5382(2) 0.6531(3) 0.17025(6)
C25_16 C 0.5607(11) 0.6876(13) 0.2742(2)
H17_16 H 0.5990 0.7200 0.2708
C26_16 C 0.5333(10) 0.6728(12) 0.2939(2)
H18_16 H 0.5520 0.6911 0.3071
O6_8 O 0.3621(2) 0.5139(2) 0.30694(9)
C19_16 C 0.0177(3) 0.0193(3) 0.35108(9)
N3_8 N 0.0254(3) 0.0824(2) 0.34165(7)
C3_14 C 0.5650(3) 0.9934(3) 0.05042(9)
H1_14 H 0.5355 0.9852 0.0381
C4_14 C 0.6314(3) 0.9584(3) 0.05230(11)
H2_14 H 0.6473 0.9272 0.0410
C5_14 C 0.6736(3) 0.9681(3) 0.06986(11)
C8_14 C 0.7438(4) 0.9283(4) 0.07239(16)
O3_14 O 0.7795(3) 0.9340(3) 0.08911(11)
C3_15 C 0.9350(3) 0.0066(3) 0.55042(9)
H1_15 H 0.9645 0.0148 0.5381
C4_15 C 0.8686(3) 0.0416(3) 0.55230(11)
H2_15 H 0.8527 0.0728 0.5410
C5_15 C 0.8264(3) 0.0319(3) 0.56986(11)
C8_15 C 0.7562(4) 0.0717(4) 0.57239(16)
O3_15 O 0.7205(3) 0.0660(3) 0.58911(11)
C1_16 C 0.1717(3) 0.2211(3) 0.31463(9)
C2_16 C 0.2100(3) 0.2919(3) 0.31655(9)
C3_16 C 0.2566(3) 0.3150(3) 0.30042(9)
H1_16 H 0.2648 0.2855 0.2881
C4_16 C 0.2916(3) 0.3814(3) 0.30230(11)
H2_16 H 0.3228 0.3973 0.2910
C5_16 C 0.2819(3) 0.4236(3) 0.31986(11)
C6_16 C 0.2352(4) 0.4005(3) 0.33616(11)
H3_16 H 0.2279 0.4301 0.3485
C7_16 C 0.1997(3) 0.3354(3) 0.33455(10)
H4_16 H 0.1680 0.3203 0.3458
C8_16 C 0.3217(4) 0.4938(4) 0.32239(16)
C9_16 C 0.0343(3) 0.1248(3) 0.27159(8)
H5_16 H 0.0783 0.1083 0.2654
C11_14 C 0.0147(3) 0.1039(3) 0.22456(8)
H6_14 H 0.0478 0.0715 0.2312
C12_14 C 0.0097(3) 0.1073(4) 0.20232(8)
H7_14 H 0.0408 0.0786 0.1936
N1_16 N 0.0242(2) 0.1286(3) 0.29234(7)
O1_16 O 0.1251(2) 0.2049(2) 0.32862(6)
O2_16 O 0.1853(2) 0.1790(2) 0.29949(7)
O3_16 O 0.3160(3) 0.5295(3) 0.33911(11)
C10_15 C 0.8973(3) 0.7216(3) 0.98690(8)
C11_15 C 0.8539(3) 0.7647(3) 0.97456(8)
H6_15 H 0.8215 0.7978 0.9812
C12_15 C 0.8573(4) 0.7597(3) 0.95232(8)
H7_15 H 0.8286 0.7908 0.9436
C13_15 C 0.9410(4) 0.6741(3) 0.97696(9)
H8_15 H 0.9718 0.6447 0.9856
C14_15 C 0.9431(4) 0.6662(3) 0.95499(9)
H9_15 H 0.9729 0.6305 0.9485
C15_15 C 0.9017(3) 0.7104(3) 0.94280(9)
C16_15 C 0.9248(4) 0.6499(3) 0.90911(8)
C17_15 C 0.9900(4) 0.6478(3) 0.89921(10)
C18_15 C 0.8775(4) 0.5943(4) 0.90691(9)
H11_15 H 0.8329 0.5952 0.9145
C20_15 C 0.9850(3) 0.3718(4) 0.85387(8)
H13_15 H 0.9795 0.3216 0.8511
C21_15 C 0.9541(3) 0.4068(4) 0.87038(8)
H14_15 H 0.9232 0.3869 0.8811
C22_15 C 0.9589(3) 0.5363(3) 0.88291(7)
C23_15 C 0.8938(3) 0.5360(4) 0.89355(9)
H15_15 H 0.8608 0.4970 0.8918
N4_15 N 0.9759(2) 0.4772(2) 0.86864(6)
O5_15 O 0.9031(3) 0.7118(2) 0.92025(6)
C1_17 C 0.0289(3) 0.4217(3) 0.43537(9)
C9_17 C 0.1252(3) 0.2843(3) 0.47841(8)
H5_17 H 0.1417 0.3283 0.4846
C10_16 C 0.1027(3) 0.2216(3) 0.51310(8)
C11_16 C 0.1461(3) 0.2647(3) 0.52544(8)
H6_16 H 0.1785 0.2978 0.5188
C12_16 C 0.1427(4) 0.2597(3) 0.54768(8)
H7_16 H 0.1714 0.2908 0.5564
C13_16 C 0.0590(4) 0.1741(3) 0.52304(9)
H8_16 H 0.0282 0.1447 0.5144
C14_16 C 0.0569(4) 0.1662(3) 0.54501(9)
H9_16 H 0.0271 0.1305 0.5515
C15_16 C 0.0983(3) 0.2104(3) 0.55720(9)
C16_16 C 0.0752(4) 0.1499(3) 0.59089(8)
C17_16 C 0.0100(4) 0.1478(3) 0.60079(10)
C18_16 C 0.1225(4) 0.0943(4) 0.59309(9)
H11_16 H 0.1671 0.0952 0.5855
C22_16 C 0.0411(3) 0.0363(3) 0.61709(7)
C23_16 C 0.1062(3) 0.0360(4) 0.60645(9)
Co1_5 Co 0.14310(4) 0.34493(4) 0.433250(10)
N1_17 N 0.1214(3) 0.2742(2) 0.45766(7)
N2_17 N 0.1044(3) 0.2289(3) 0.49005(7)
O1_17 O 0.0451(2) 0.3751(2) 0.42138(6)
O2_17 O 0.0710(2) 0.4353(2) 0.45051(7)
O5_16 O 0.0969(3) 0.2118(2) 0.57975(6)
C25_17 C 0.0624(13) 0.1893(11) 0.4758(2)
H17_17 H 0.0300 0.1510 0.4792
C26_17 C 0.0772(12) 0.2167(10) 0.4561(2)
H18_17 H 0.0589 0.1980 0.4429
N5_9 N 0.1676(2) 0.2754(3) 0.40835(7)
O6_9 O 0.2361(2) 0.3879(2) 0.44306(9)
C2_17 C 0.9581(3) 0.4600(3) 0.43345(9)
C3_17 C 0.9350(3) 0.5066(3) 0.44958(9)
H1_17 H 0.9645 0.5148 0.4619
C4_17 C 0.8686(3) 0.5416(3) 0.44770(11)
H2_17 H 0.8527 0.5728 0.4590
C5_17 C 0.8264(3) 0.5319(3) 0.43014(11)
C6_17 C 0.8495(3) 0.4852(4) 0.41384(11)
H3_17 H 0.8199 0.4779 0.4015
C7_17 C 0.9146(3) 0.4497(3) 0.41545(10)
H4_17 H 0.9297 0.4180 0.4042
C8_17 C 0.7562(4) 0.5717(4) 0.42761(16)
H10_16 H 0.9764 0.1860 0.5987
H12_16 H 0.9605 0.0240 0.6540
C24_16 C 0.9923(3) 0.0903(4) 0.61388(9)
H16_16 H 0.9463 0.0884 0.6207
O3_17 O 0.7205(3) 0.5660(3) 0.41089(11)
O4_9 O 0.7361(2) 0.6121(2) 0.44306(9)
Co3_9 Co 0.64310(4) 0.65507(4) 0.433250(10)
C19_17 C 0.5177(3) 0.0193(3) 0.14892(9)
C20_16 C 0.4850(3) 0.1282(4) 0.14613(8)
H13_16 H 0.4795 0.1784 0.1489
C21_16 C 0.4541(3) 0.0932(4) 0.12962(8)
H14_16 H 0.4232 0.1131 0.1189
H15_16 H 0.3608 0.0030 0.1082
N3_9 N 0.5254(3) 0.0824(2) 0.15835(7)
N4_16 N 0.4759(2) 0.0228(2) 0.13136(6)
Co2_5 Co 0.59493(4) 0.10690(4) 0.183250(10)
C1_18 C 0.6717(3) 0.2211(3) 0.18537(9)
C2_18 C 0.7100(3) 0.2919(3) 0.18345(9)
C3_18 C 0.7566(3) 0.3150(3) 0.19958(9)
H1_18 H 0.7648 0.2855 0.2119
C4_18 C 0.7916(3) 0.3814(3) 0.19770(11)
H2_18 H 0.8228 0.3973 0.2090
C5_18 C 0.7819(3) 0.4236(3) 0.18014(11)
C6_18 C 0.7352(4) 0.4005(3) 0.16384(11)
H3_18 H 0.7279 0.4301 0.1515
C7_18 C 0.6997(3) 0.3354(3) 0.16545(10)
H4_18 H 0.6680 0.3203 0.1542
C8_18 C 0.8217(4) 0.4938(4) 0.17761(16)
C9_18 C 0.5343(3) 0.1248(3) 0.22841(8)
H5_18 H 0.5783 0.1083 0.2346
C10_17 C 0.4716(3) 0.1473(3) 0.26310(8)
C11_17 C 0.5147(3) 0.1039(3) 0.27544(8)
H6_17 H 0.5478 0.0715 0.2688
C12_17 C 0.5097(3) 0.1073(4) 0.29768(8)
H7_17 H 0.5408 0.0786 0.3064
C13_17 C 0.4241(3) 0.1910(4) 0.27304(9)
H8_17 H 0.3947 0.2218 0.2644
C14_17 C 0.4162(3) 0.1931(4) 0.29501(9)
H9_17 H 0.3805 0.2229 0.3015
C15_17 C 0.4604(3) 0.1517(3) 0.30720(9)
C16_17 C 0.3999(3) 0.1748(4) 0.34089(8)
C17_17 C 0.3978(3) 0.2400(4) 0.35079(10)
H10_17 H 0.4360 0.2736 0.3487
C18_17 C 0.3443(4) 0.1275(4) 0.34309(9)
H11_17 H 0.3452 0.0829 0.3355
C19_18 C 0.2307(3) 0.2677(3) 0.39892(9)
H12_17 H 0.2740 0.2895 0.4040
C20_17 C 0.1218(4) 0.2350(3) 0.39613(8)
H13_17 H 0.0716 0.2295 0.3989
C21_17 C 0.1568(4) 0.2041(3) 0.37962(8)
H14_17 H 0.1369 0.1732 0.3689
C22_17 C 0.2863(3) 0.2089(3) 0.36709(7)
C23_17 C 0.2860(4) 0.1438(3) 0.35645(9)
H15_17 H 0.2470 0.1108 0.3582
C24_17 C 0.3403(4) 0.2577(3) 0.36388(9)
H16_17 H 0.3384 0.3037 0.3707
N1_18 N 0.5242(2) 0.1286(3) 0.20766(7)
N2_18 N 0.4789(3) 0.1456(3) 0.24005(7)
N4_17 N 0.2272(2) 0.2259(2) 0.38136(6)
O1_18 O 0.6251(2) 0.2049(2) 0.17138(6)
O2_18 O 0.6853(2) 0.1790(2) 0.20051(7)
O3_18 O 0.8160(3) 0.5295(3) 0.16089(11)
O4_10 O 0.8621(2) 0.5139(2) 0.19306(9)
O5_17 O 0.4618(2) 0.1531(3) 0.32975(6)
C25_18 C 0.4393(11) 0.1876(13) 0.2258(2)
H17_18 H 0.4010 0.2200 0.2292
C26_18 C 0.4667(10) 0.1728(12) 0.2061(2)
H18_18 H 0.4480 0.1911 0.1929
Co3_10 Co 0.90507(4) 0.60690(4) 0.183250(10)
O6_10 O 0.6379(2) 0.0139(2) 0.19306(9)
H10_18 H 0.9764 0.3140 0.0987
C19_19 C 0.9823(3) 0.5193(3) 0.14892(9)
H12_18 H 0.9605 0.4760 0.1540
C24_18 C 0.9923(3) 0.4097(4) 0.11388(9)
H16_18 H 0.9463 0.4116 0.1207
N3_10 N 0.9746(3) 0.5824(2) 0.15835(7)
C10_18 C 0.9716(3) 0.8527(3) 0.26310(8)
C13_18 C 0.9241(3) 0.8090(4) 0.27304(9)
H8_18 H 0.8947 0.7782 0.2644
C14_18 C 0.9162(3) 0.8069(4) 0.29501(9)
H9_18 H 0.8805 0.7771 0.3015
C15_18 C 0.9604(3) 0.8483(3) 0.30720(9)
C16_18 C 0.8999(3) 0.8252(4) 0.34089(8)
C17_18 C 0.8978(3) 0.7600(4) 0.35079(10)
H10_19 H 0.9360 0.7264 0.3487
C18_18 C 0.8443(4) 0.8725(4) 0.34309(9)
H11_18 H 0.8452 0.9171 0.3355
C19_20 C 0.7307(3) 0.7323(3) 0.39892(9)
H12_19 H 0.7740 0.7105 0.4040
C20_18 C 0.6218(4) 0.7650(3) 0.39613(8)
H13_18 H 0.5716 0.7705 0.3989
C21_18 C 0.6568(4) 0.7959(3) 0.37962(8)
H14_18 H 0.6369 0.8268 0.3689
C22_18 C 0.7863(3) 0.7911(3) 0.36709(7)
C23_18 C 0.7860(4) 0.8562(3) 0.35645(9)
H15_18 H 0.7470 0.8892 0.3582
C24_19 C 0.8403(4) 0.7423(3) 0.36388(9)
H16_19 H 0.8384 0.6963 0.3707
N2_19 N 0.9789(3) 0.8544(3) 0.24005(7)
N3_11 N 0.6676(2) 0.7246(3) 0.40835(7)
N4_18 N 0.7272(2) 0.7741(2) 0.38136(6)
O5_18 O 0.9618(2) 0.8469(3) 0.32975(6)
C25_19 C 0.9393(11) 0.8124(13) 0.2258(2)
H17_19 H 0.9010 0.7800 0.2292
C26_19 C 0.9667(10) 0.8272(12) 0.2061(2)
H18_19 H 0.9480 0.8089 0.1929
O3_19 O 0.6840(3) 0.0295(3) 0.16089(11)
C1_19 C 0.8283(3) 0.7211(3) 0.18537(9)
C2_19 C 0.7900(3) 0.7919(3) 0.18345(9)
C3_19 C 0.7434(3) 0.8150(3) 0.19958(9)
H1_19 H 0.7352 0.7855 0.2119
C4_19 C 0.7084(3) 0.8814(3) 0.19770(11)
H2_19 H 0.6772 0.8973 0.2090
C5_19 C 0.7181(3) 0.9236(3) 0.18014(11)
C6_19 C 0.7648(4) 0.9005(3) 0.16384(11)
H3_19 H 0.7721 0.9301 0.1515
C7_19 C 0.8003(3) 0.8354(3) 0.16545(10)
H4_19 H 0.8320 0.8203 0.1542
C8_19 C 0.6783(4) 0.9938(4) 0.17761(16)
C9_19 C 0.9657(3) 0.6248(3) 0.22841(8)
H5_19 H 0.9217 0.6083 0.2346
C11_18 C 0.9853(3) 0.6039(3) 0.27544(8)
H6_18 H 0.9522 0.5715 0.2688
C12_18 C 0.9903(3) 0.6073(4) 0.29768(8)
H7_18 H 0.9592 0.5786 0.3064
N1_19 N 0.9758(2) 0.6286(3) 0.20766(7)
O1_19 O 0.8749(2) 0.7049(2) 0.17138(6)
O2_19 O 0.8147(2) 0.6790(2) 0.20051(7)
C1_20 C 0.5289(3) 0.5783(3) 0.43537(9)
C2_20 C 0.4581(3) 0.5400(3) 0.43345(9)
C3_20 C 0.4350(3) 0.4934(3) 0.44958(9)
H1_20 H 0.4645 0.4852 0.4619
C4_20 C 0.3686(3) 0.4584(3) 0.44770(11)
H2_20 H 0.3527 0.4272 0.4590
C5_20 C 0.3264(3) 0.4681(3) 0.43014(11)
C6_20 C 0.3495(3) 0.5148(4) 0.41384(11)
H3_20 H 0.3199 0.5221 0.4015
C7_20 C 0.4146(3) 0.5503(3) 0.41545(10)
H4_20 H 0.4297 0.5820 0.4042
C8_20 C 0.2562(4) 0.4283(4) 0.42761(16)
C9_20 C 0.6252(3) 0.7157(3) 0.47841(8)
H5_20 H 0.6417 0.6717 0.4846
C10_19 C 0.6027(3) 0.7784(3) 0.51310(8)
C11_19 C 0.6461(3) 0.7353(3) 0.52544(8)
H6_19 H 0.6785 0.7022 0.5188
C12_19 C 0.6427(4) 0.7403(3) 0.54768(8)
H7_19 H 0.6714 0.7092 0.5564
C13_19 C 0.5590(4) 0.8259(3) 0.52304(9)
H8_19 H 0.5282 0.8553 0.5144
C14_19 C 0.5569(4) 0.8338(3) 0.54501(9)
H9_19 H 0.5271 0.8695 0.5515
C15_19 C 0.5983(3) 0.7896(3) 0.55720(9)
C16_19 C 0.5752(4) 0.8501(3) 0.59089(8)
C17_19 C 0.5100(4) 0.8522(3) 0.60079(10)
H10_20 H 0.4764 0.8140 0.5987
C18_19 C 0.6225(4) 0.9057(4) 0.59309(9)
H11_19 H 0.6671 0.9048 0.5855
H12_20 H 0.4605 0.9760 0.6540
C22_19 C 0.5411(3) 0.9637(3) 0.61709(7)
C23_19 C 0.6062(3) 0.9640(4) 0.60645(9)
C24_20 C 0.4923(3) 0.9097(4) 0.61388(9)
H16_20 H 0.4463 0.9116 0.6207
N1_20 N 0.6214(3) 0.7258(2) 0.45766(7)
N2_20 N 0.6044(3) 0.7711(3) 0.49005(7)
O1_20 O 0.5451(2) 0.6249(2) 0.42138(6)
O2_20 O 0.5710(2) 0.5647(2) 0.45051(7)
O3_20 O 0.2205(3) 0.4340(3) 0.41089(11)
O5_19 O 0.5969(3) 0.7882(2) 0.57975(6)
C25_20 C 0.5624(13) 0.8107(11) 0.4758(2)
H17_20 H 0.5300 0.8490 0.4792
C26_20 C 0.5772(12) 0.7833(10) 0.4561(2)
H18_20 H 0.5589 0.8020 0.4429
C20_19 C 0.0150(3) 0.8718(4) 0.64613(8)
H13_19 H 0.0205 0.8216 0.6489
C21_19 C 0.0459(3) 0.9068(4) 0.62962(8)
H14_19 H 0.0768 0.8869 0.6189
H15_19 H 0.1392 0.9970 0.6082
N4_19 N 0.0241(2) 0.9772(2) 0.63136(6)
C19_21 C 0.9823(3) 0.9807(3) 0.64892(9)
N3_12 N 0.9746(3) 0.9176(2) 0.65835(7)
Co2_6 Co 0.90507(4) 0.89310(4) 0.683250(10)
C3_21 C 0.4350(3) 0.0066(3) 0.94958(9)
H1_21 H 0.4645 0.0148 0.9619
C4_21 C 0.3686(3) 0.0416(3) 0.94770(11)
H2_21 H 0.3527 0.0728 0.9590
C5_21 C 0.3264(3) 0.0319(3) 0.93014(11)
C8_21 C 0.2562(4) 0.0717(4) 0.92761(16)
O3_21 O 0.2205(3) 0.0660(3) 0.91089(11)
O4_11 O 0.2361(2) 0.1121(2) 0.94306(9)
Co3_11 Co 0.14310(4) 0.15507(4) 0.933250(10)
C3_22 C 0.0650(3) 0.9934(3) 0.44958(9)
H1_22 H 0.0355 0.9852 0.4619
C4_22 C 0.1314(3) 0.9584(3) 0.44770(11)
H2_22 H 0.1473 0.9272 0.4590
C5_22 C 0.1736(3) 0.9681(3) 0.43014(11)
C8_22 C 0.2438(4) 0.9283(4) 0.42761(16)
O3_22 O 0.2795(3) 0.9340(3) 0.41089(11)
O4_12 O 0.2639(2) 0.8879(2) 0.44306(9)
Co3_12 Co 0.35690(4) 0.84493(4) 0.433250(10)
C1_21 C 0.8283(3) 0.7789(3) 0.68537(9)
C2_21 C 0.7900(3) 0.7081(3) 0.68345(9)
C3_23 C 0.7434(3) 0.6850(3) 0.69958(9)
H1_23 H 0.7352 0.7145 0.7119
C4_23 C 0.7084(3) 0.6186(3) 0.69770(11)
H2_23 H 0.6772 0.6027 0.7090
C5_23 C 0.7181(3) 0.5764(3) 0.68014(11)
C6_21 C 0.7648(4) 0.5995(3) 0.66384(11)
H3_21 H 0.7721 0.5699 0.6515
C7_21 C 0.8003(3) 0.6646(3) 0.66545(10)
H4_21 H 0.8320 0.6797 0.6542
C8_23 C 0.6783(4) 0.5062(4) 0.67761(16)
C9_21 C 0.9657(3) 0.8752(3) 0.72841(8)
H5_21 H 0.9217 0.8917 0.7346
C11_20 C 0.9853(3) 0.8961(3) 0.77544(8)
H6_20 H 0.9522 0.9285 0.7688
C12_20 C 0.9903(3) 0.8927(4) 0.79768(8)
H7_20 H 0.9592 0.9214 0.8064
N1_21 N 0.9758(2) 0.8714(3) 0.70766(7)
O1_21 O 0.8749(2) 0.7951(2) 0.67138(6)
O2_21 O 0.8147(2) 0.8210(2) 0.70051(7)
O3_23 O 0.6840(3) 0.4705(3) 0.66089(11)
O4_13 O 0.6379(2) 0.4861(2) 0.69306(9)
Co3_13 Co 0.59493(4) 0.39310(4) 0.683250(10)
O6_11 O 0.8621(2) 0.9861(2) 0.69306(9)
C1_22 C 0.0289(3) 0.0783(3) 0.93537(9)
C9_22 C 0.1252(3) 0.2157(3) 0.97841(8)
H5_22 H 0.1417 0.1717 0.9846
N1_22 N 0.1214(3) 0.2258(2) 0.95766(7)
N2_21 N 0.1044(3) 0.2711(3) 0.99005(7)
O1_22 O 0.0451(2) 0.1249(2) 0.92138(6)
O2_22 O 0.0710(2) 0.0647(2) 0.95051(7)
C25_21 C 0.0624(13) 0.3107(11) 0.9758(2)
H17_21 H 0.0300 0.3490 0.9792
C26_21 C 0.0772(12) 0.2833(10) 0.9561(2)
H18_21 H 0.0589 0.3020 0.9429
N5_10 N 0.1676(2) 0.2246(3) 0.90835(7)
C1_23 C 0.4711(3) 0.9217(3) 0.43537(9)
C2_22 C 0.5419(3) 0.9600(3) 0.43345(9)
C6_22 C 0.6505(3) 0.9852(4) 0.41384(11)
H3_22 H 0.6801 0.9779 0.4015
C7_22 C 0.5854(3) 0.9497(3) 0.41545(10)
H4_22 H 0.5703 0.9180 0.4042
C9_23 C 0.3748(3) 0.7843(3) 0.47841(8)
H5_23 H 0.3583 0.8283 0.4846
C10_20 C 0.3973(3) 0.7216(3) 0.51310(8)
C11_21 C 0.3539(3) 0.7647(3) 0.52544(8)
H6_21 H 0.3215 0.7978 0.5188
C12_21 C 0.3573(4) 0.7597(3) 0.54768(8)
H7_21 H 0.3286 0.7908 0.5564
C13_20 C 0.4410(4) 0.6741(3) 0.52304(9)
H8_20 H 0.4718 0.6447 0.5144
C14_20 C 0.4431(4) 0.6662(3) 0.54501(9)
H9_20 H 0.4729 0.6305 0.5515
C15_20 C 0.4017(3) 0.7104(3) 0.55720(9)
C16_20 C 0.4248(4) 0.6499(3) 0.59089(8)
C17_20 C 0.4900(4) 0.6478(3) 0.60079(10)
H10_21 H 0.5236 0.6860 0.5987
C18_20 C 0.3775(4) 0.5943(4) 0.59309(9)
H11_20 H 0.3329 0.5952 0.5855
C19_22 C 0.5177(3) 0.4807(3) 0.64892(9)
H12_21 H 0.5395 0.5240 0.6540
C20_20 C 0.4850(3) 0.3718(4) 0.64613(8)
H13_20 H 0.4795 0.3216 0.6489
C21_20 C 0.4541(3) 0.4068(4) 0.62962(8)
H14_20 H 0.4232 0.3869 0.6189
C22_20 C 0.4589(3) 0.5363(3) 0.61709(7)
C23_20 C 0.3938(3) 0.5360(4) 0.60645(9)
H15_20 H 0.3608 0.4970 0.6082
C24_21 C 0.5077(3) 0.5903(4) 0.61388(9)
H16_21 H 0.5537 0.5884 0.6207
N1_23 N 0.3786(3) 0.7742(2) 0.45766(7)
N2_22 N 0.3956(3) 0.7289(3) 0.49005(7)
N3_13 N 0.5254(3) 0.4176(2) 0.65835(7)
N4_20 N 0.4759(2) 0.4772(2) 0.63136(6)
O1_23 O 0.4549(2) 0.8751(2) 0.42138(6)
O2_23 O 0.4290(2) 0.9353(2) 0.45051(7)
O5_20 O 0.4031(3) 0.7118(2) 0.57975(6)
C25_22 C 0.4376(13) 0.6893(11) 0.4758(2)
H17_22 H 0.4700 0.6510 0.4792
C26_22 C 0.4228(12) 0.7167(10) 0.4561(2)
H18_22 H 0.4411 0.6980 0.4429
N5_11 N 0.3324(2) 0.7754(3) 0.40835(7)
C10_21 C 0.0284(3) 0.6473(3) 0.26310(8)
C13_21 C 0.0759(3) 0.6910(4) 0.27304(9)
H8_21 H 0.1053 0.7218 0.2644
C14_21 C 0.0838(3) 0.6931(4) 0.29501(9)
H9_21 H 0.1195 0.7229 0.3015
C15_21 C 0.0396(3) 0.6517(3) 0.30720(9)
C16_21 C 0.1001(3) 0.6748(4) 0.34089(8)
C17_21 C 0.1022(3) 0.7400(4) 0.35079(10)
H10_22 H 0.0640 0.7736 0.3487
C18_21 C 0.1557(4) 0.6275(4) 0.34309(9)
H11_21 H 0.1548 0.5829 0.3355
C19_23 C 0.2693(3) 0.7677(3) 0.39892(9)
H12_22 H 0.2260 0.7895 0.4040
C20_21 C 0.3782(4) 0.7350(3) 0.39613(8)
H13_21 H 0.4284 0.7295 0.3989
C21_21 C 0.3432(4) 0.7041(3) 0.37962(8)
H14_21 H 0.3631 0.6732 0.3689
C22_21 C 0.2137(3) 0.7089(3) 0.36709(7)
C23_21 C 0.2140(4) 0.6438(3) 0.35645(9)
H15_21 H 0.2530 0.6108 0.3582
C24_22 C 0.1597(4) 0.7577(3) 0.36388(9)
H16_22 H 0.1616 0.8037 0.3707
N2_23 N 0.0211(3) 0.6456(3) 0.24005(7)
N4_21 N 0.2728(2) 0.7259(2) 0.38136(6)
O5_21 O 0.0382(2) 0.6531(3) 0.32975(6)
C25_23 C 0.0607(11) 0.6876(13) 0.2258(2)
H17_23 H 0.0990 0.7200 0.2292
C26_23 C 0.0333(10) 0.6728(12) 0.2061(2)
H18_23 H 0.0520 0.6911 0.1929
C1_24 C 0.6717(3) 0.2789(3) 0.68537(9)
C2_23 C 0.7100(3) 0.2081(3) 0.68345(9)
C3_24 C 0.7566(3) 0.1850(3) 0.69958(9)
H1_24 H 0.7648 0.2145 0.7119
C4_24 C 0.7916(3) 0.1186(3) 0.69770(11)
H2_24 H 0.8228 0.1027 0.7090
C5_24 C 0.7819(3) 0.0764(3) 0.68014(11)
C6_23 C 0.7352(4) 0.0995(3) 0.66384(11)
H3_23 H 0.7279 0.0699 0.6515
C7_23 C 0.6997(3) 0.1646(3) 0.66545(10)
H4_23 H 0.6680 0.1797 0.6542
C8_24 C 0.8217(4) 0.0062(4) 0.67761(16)
C9_24 C 0.5343(3) 0.3752(3) 0.72841(8)
H5_24 H 0.5783 0.3917 0.7346
C10_22 C 0.4716(3) 0.3527(3) 0.76310(8)
C11_22 C 0.5147(3) 0.3961(3) 0.77544(8)
H6_22 H 0.5478 0.4285 0.7688
C12_22 C 0.5097(3) 0.3927(4) 0.79768(8)
H7_22 H 0.5408 0.4214 0.8064
C13_22 C 0.4241(3) 0.3090(4) 0.77304(9)
H8_22 H 0.3947 0.2782 0.7644
C14_22 C 0.4162(3) 0.3069(4) 0.79501(9)
H9_22 H 0.3805 0.2771 0.8015
C15_22 C 0.4604(3) 0.3483(3) 0.80720(9)
C16_22 C 0.3999(3) 0.3252(4) 0.84089(8)
C17_22 C 0.3978(3) 0.2600(4) 0.85079(10)
H10_23 H 0.4360 0.2264 0.8487
C18_22 C 0.3443(4) 0.3725(4) 0.84309(9)
H11_22 H 0.3452 0.4171 0.8355
C19_24 C 0.2307(3) 0.2323(3) 0.89892(9)
H12_23 H 0.2740 0.2105 0.9040
C20_22 C 0.1218(4) 0.2650(3) 0.89613(8)
H13_22 H 0.0716 0.2705 0.8989
C21_22 C 0.1568(4) 0.2959(3) 0.87962(8)
H14_22 H 0.1369 0.3268 0.8689
C22_22 C 0.2863(3) 0.2911(3) 0.86709(7)
C23_22 C 0.2860(4) 0.3562(3) 0.85645(9)
H15_22 H 0.2470 0.3892 0.8582
C24_23 C 0.3403(4) 0.2423(3) 0.86388(9)
H16_23 H 0.3384 0.1963 0.8707
N1_24 N 0.5242(2) 0.3714(3) 0.70766(7)
N2_24 N 0.4789(3) 0.3544(3) 0.74005(7)
N4_22 N 0.2272(2) 0.2741(2) 0.88136(6)
O1_24 O 0.6251(2) 0.2951(2) 0.67138(6)
O2_24 O 0.6853(2) 0.3210(2) 0.70051(7)
O5_22 O 0.4618(2) 0.3469(3) 0.82975(6)
C25_24 C 0.4393(11) 0.3124(13) 0.7258(2)
H17_24 H 0.4010 0.2800 0.7292
C26_24 C 0.4667(10) 0.3272(12) 0.7061(2)
H18_24 H 0.4480 0.3089 0.6929
O3_24 O 0.8160(3) 0.9705(3) 0.66089(11)
C10_23 C 0.3973(3) 0.7784(3) 0.01310(8)
C11_23 C 0.3539(3) 0.7353(3) 0.02544(8)
H6_23 H 0.3215 0.7022 0.0188
C12_23 C 0.3573(4) 0.7403(3) 0.04768(8)
H7_23 H 0.3286 0.7092 0.0564
C13_23 C 0.4410(4) 0.8259(3) 0.02304(9)
H8_23 H 0.4718 0.8553 0.0144
C14_23 C 0.4431(4) 0.8338(3) 0.04501(9)
H9_23 H 0.4729 0.8695 0.0515
C15_23 C 0.4017(3) 0.7896(3) 0.05720(9)
C16_23 C 0.4248(4) 0.8501(3) 0.09089(8)
C17_23 C 0.4900(4) 0.8522(3) 0.10079(10)
H10_24 H 0.5236 0.8140 0.0987
C18_23 C 0.3775(4) 0.9057(4) 0.09309(9)
H11_23 H 0.3329 0.9048 0.0855
H12_24 H 0.5395 0.9760 0.1540
C22_23 C 0.4589(3) 0.9637(3) 0.11709(7)
C23_23 C 0.3938(3) 0.9640(4) 0.10645(9)
C24_24 C 0.5077(3) 0.9097(4) 0.11388(9)
H16_24 H 0.5537 0.9116 0.1207
O5_23 O 0.4031(3) 0.7882(2) 0.07975(6)
C1_25 C 0.4711(3) 0.5783(3) 0.93537(9)
C2_24 C 0.5419(3) 0.5400(3) 0.93345(9)
C3_25 C 0.5650(3) 0.4934(3) 0.94958(9)
H1_25 H 0.5355 0.4852 0.9619
C4_25 C 0.6314(3) 0.4584(3) 0.94770(11)
H2_25 H 0.6473 0.4272 0.9590
C5_25 C 0.6736(3) 0.4681(3) 0.93014(11)
C6_24 C 0.6505(3) 0.5148(4) 0.91384(11)
H3_24 H 0.6801 0.5221 0.9015
C7_24 C 0.5854(3) 0.5503(3) 0.91545(10)
H4_24 H 0.5703 0.5820 0.9042
C8_25 C 0.7438(4) 0.4283(4) 0.92761(16)
C9_25 C 0.3748(3) 0.7157(3) 0.97841(8)
H5_25 H 0.3583 0.6717 0.9846
Co1_6 Co 0.35690(4) 0.65507(4) 0.933250(10)
N1_25 N 0.3786(3) 0.7258(2) 0.95766(7)
N2_25 N 0.3956(3) 0.7711(3) 0.99005(7)
O1_25 O 0.4549(2) 0.6249(2) 0.92138(6)
O2_25 O 0.4290(2) 0.5647(2) 0.95051(7)
O3_25 O 0.7795(3) 0.4340(3) 0.91089(11)
O4_14 O 0.7639(2) 0.3879(2) 0.94306(9)
C25_25 C 0.4376(13) 0.8107(11) 0.9758(2)
H17_25 H 0.4700 0.8490 0.9792
C26_25 C 0.4228(12) 0.7833(10) 0.9561(2)
H18_25 H 0.4411 0.8020 0.9429
Co3_14 Co 0.85690(4) 0.34493(4) 0.933250(10)
N5_12 N 0.3324(2) 0.7246(3) 0.90835(7)
O6_12 O 0.2639(2) 0.6121(2) 0.94306(9)
C2_25 C 0.0419(3) 0.0400(3) 0.43345(9)
C6_25 C 0.1505(3) 0.0148(4) 0.41384(11)
H3_25 H 0.1801 0.0221 0.4015
C7_25 C 0.0854(3) 0.0503(3) 0.41545(10)
H4_25 H 0.0703 0.0820 0.4042
H10_25 H 0.0236 0.3140 0.5987
C19_25 C 0.0177(3) 0.5193(3) 0.64892(9)
H12_25 H 0.0395 0.4760 0.6540
C24_25 C 0.0077(3) 0.4097(4) 0.61388(9)
H16_25 H 0.0537 0.4116 0.6207
N3_14 N 0.0254(3) 0.5824(2) 0.65835(7)
Co2_7 Co 0.09493(4) 0.60690(4) 0.683250(10)
C10_24 C 0.0284(3) 0.8527(3) 0.76310(8)
C13_24 C 0.0759(3) 0.8090(4) 0.77304(9)
H8_24 H 0.1053 0.7782 0.7644
C14_24 C 0.0838(3) 0.8069(4) 0.79501(9)
H9_24 H 0.1195 0.7771 0.8015
C15_24 C 0.0396(3) 0.8483(3) 0.80720(9)
C16_24 C 0.1001(3) 0.8252(4) 0.84089(8)
C17_24 C 0.1022(3) 0.7600(4) 0.85079(10)
H10_26 H 0.0640 0.7264 0.8487
C18_24 C 0.1557(4) 0.8725(4) 0.84309(9)
H11_24 H 0.1548 0.9171 0.8355
C19_26 C 0.2693(3) 0.7323(3) 0.89892(9)
H12_26 H 0.2260 0.7105 0.9040
C20_23 C 0.3782(4) 0.7650(3) 0.89613(8)
H13_23 H 0.4284 0.7705 0.8989
C21_23 C 0.3432(4) 0.7959(3) 0.87962(8)
H14_23 H 0.3631 0.8268 0.8689
C22_24 C 0.2137(3) 0.7911(3) 0.86709(7)
C23_24 C 0.2140(4) 0.8562(3) 0.85645(9)
H15_23 H 0.2530 0.8892 0.8582
C24_26 C 0.1597(4) 0.7423(3) 0.86388(9)
H16_26 H 0.1616 0.6963 0.8707
N2_26 N 0.0211(3) 0.8544(3) 0.74005(7)
N4_23 N 0.2728(2) 0.7741(2) 0.88136(6)
O5_24 O 0.0382(2) 0.8469(3) 0.82975(6)
C25_26 C 0.0607(11) 0.8124(13) 0.7258(2)
H17_26 H 0.0990 0.7800 0.7292
C26_26 C 0.0333(10) 0.8272(12) 0.7061(2)
H18_26 H 0.0520 0.8089 0.6929
O3_26 O 0.3160(3) 0.0295(3) 0.66089(11)
O4_15 O 0.3621(2) 0.0139(2) 0.69306(9)
Co3_15 Co 0.40507(4) 0.10690(4) 0.683250(10)
C1_26 C 0.1717(3) 0.7211(3) 0.68537(9)
C2_26 C 0.2100(3) 0.7919(3) 0.68345(9)
C3_26 C 0.2566(3) 0.8150(3) 0.69958(9)
H1_26 H 0.2648 0.7855 0.7119
C4_26 C 0.2916(3) 0.8814(3) 0.69770(11)
H2_26 H 0.3228 0.8973 0.7090
C5_26 C 0.2819(3) 0.9236(3) 0.68014(11)
C6_26 C 0.2352(4) 0.9005(3) 0.66384(11)
H3_26 H 0.2279 0.9301 0.6515
C7_26 C 0.1997(3) 0.8354(3) 0.66545(10)
H4_26 H 0.1680 0.8203 0.6542
C8_26 C 0.3217(4) 0.9938(4) 0.67761(16)
C9_26 C 0.0343(3) 0.6248(3) 0.72841(8)
H5_26 H 0.0783 0.6083 0.7346
C11_24 C 0.0147(3) 0.6039(3) 0.77544(8)
H6_24 H 0.0478 0.5715 0.7688
C12_24 C 0.0097(3) 0.6073(4) 0.79768(8)
H7_24 H 0.0408 0.5786 0.8064
N1_26 N 0.0242(2) 0.6286(3) 0.70766(7)
O1_26 O 0.1251(2) 0.7049(2) 0.67138(6)
O2_26 O 0.1853(2) 0.6790(2) 0.70051(7)
O6_13 O 0.1379(2) 0.5139(2) 0.69306(9)
C2_27 C 0.0419(3) 0.4600(3) 0.93345(9)
C3_27 C 0.0650(3) 0.5066(3) 0.94958(9)
H1_27 H 0.0355 0.5148 0.9619
C4_27 C 0.1314(3) 0.5416(3) 0.94770(11)
H2_27 H 0.1473 0.5728 0.9590
C5_27 C 0.1736(3) 0.5319(3) 0.93014(11)
C6_27 C 0.1505(3) 0.4852(4) 0.91384(11)
H3_27 H 0.1801 0.4779 0.9015
C7_27 C 0.0854(3) 0.4497(3) 0.91545(10)
H4_27 H 0.0703 0.4180 0.9042
C8_27 C 0.2438(4) 0.5717(4) 0.92761(16)
O3_27 O 0.2795(3) 0.5660(3) 0.91089(11)
C1_27 C 0.9711(3) 0.4217(3) 0.93537(9)
C9_27 C 0.8748(3) 0.2843(3) 0.97841(8)
H5_27 H 0.8583 0.3283 0.9846
N1_27 N 0.8786(3) 0.2742(2) 0.95766(7)
N2_27 N 0.8956(3) 0.2289(3) 0.99005(7)
O1_27 O 0.9549(2) 0.3751(2) 0.92138(6)
O2_27 O 0.9290(2) 0.4353(2) 0.95051(7)
C25_27 C 0.9376(13) 0.1893(11) 0.9758(2)
H17_27 H 0.9700 0.1510 0.9792
C26_27 C 0.9228(12) 0.2167(10) 0.9561(2)
H18_27 H 0.9411 0.1980 0.9429
N5_13 N 0.8324(2) 0.2754(3) 0.90835(7)
C1_28 C 0.3283(3) 0.2211(3) 0.68537(9)
C2_28 C 0.2900(3) 0.2919(3) 0.68345(9)
C3_28 C 0.2434(3) 0.3150(3) 0.69958(9)
H1_28 H 0.2352 0.2855 0.7119
C4_28 C 0.2084(3) 0.3814(3) 0.69770(11)
H2_28 H 0.1772 0.3973 0.7090
C5_28 C 0.2181(3) 0.4236(3) 0.68014(11)
C6_28 C 0.2648(4) 0.4005(3) 0.66384(11)
H3_28 H 0.2721 0.4301 0.6515
C7_28 C 0.3003(3) 0.3354(3) 0.66545(10)
H4_28 H 0.3320 0.3203 0.6542
C8_28 C 0.1783(4) 0.4938(4) 0.67761(16)
C9_28 C 0.4657(3) 0.1248(3) 0.72841(8)
H5_28 H 0.4217 0.1083 0.7346
C10_25 C 0.5284(3) 0.1473(3) 0.76310(8)
C11_25 C 0.4853(3) 0.1039(3) 0.77544(8)
H6_25 H 0.4522 0.0715 0.7688
C12_25 C 0.4903(3) 0.1073(4) 0.79768(8)
H7_25 H 0.4592 0.0786 0.8064
C13_25 C 0.5759(3) 0.1910(4) 0.77304(9)
H8_25 H 0.6053 0.2218 0.7644
C14_25 C 0.5838(3) 0.1931(4) 0.79501(9)
H9_25 H 0.6195 0.2229 0.8015
C15_25 C 0.5396(3) 0.1517(3) 0.80720(9)
C16_25 C 0.6001(3) 0.1748(4) 0.84089(8)
C17_25 C 0.6022(3) 0.2400(4) 0.85079(10)
H10_27 H 0.5640 0.2736 0.8487
C18_25 C 0.6557(4) 0.1275(4) 0.84309(9)
H11_25 H 0.6548 0.0829 0.8355
C19_27 C 0.7693(3) 0.2677(3) 0.89892(9)
H12_27 H 0.7260 0.2895 0.9040
C20_24 C 0.8782(4) 0.2350(3) 0.89613(8)
H13_24 H 0.9284 0.2295 0.8989
C21_24 C 0.8432(4) 0.2041(3) 0.87962(8)
H14_24 H 0.8631 0.1732 0.8689
C22_25 C 0.7137(3) 0.2089(3) 0.86709(7)
C23_25 C 0.7140(4) 0.1438(3) 0.85645(9)
H15_24 H 0.7530 0.1108 0.8582
C24_27 C 0.6597(4) 0.2577(3) 0.86388(9)
H16_27 H 0.6616 0.3037 0.8707
N1_28 N 0.4758(2) 0.1286(3) 0.70766(7)
N2_28 N 0.5211(3) 0.1456(3) 0.74005(7)
N4_24 N 0.7728(2) 0.2259(2) 0.88136(6)
O1_28 O 0.3749(2) 0.2049(2) 0.67138(6)
O2_28 O 0.3147(2) 0.1790(2) 0.70051(7)
O3_28 O 0.1840(3) 0.5295(3) 0.66089(11)
O5_25 O 0.5382(2) 0.1531(3) 0.82975(6)
C25_28 C 0.5607(11) 0.1876(13) 0.7258(2)
H17_28 H 0.5990 0.2200 0.7292
C26_28 C 0.5333(10) 0.1728(12) 0.7061(2)
H18_28 H 0.5520 0.1911 0.6929
N5_14 N 0.4746(3) 0.0824(2) 0.65835(7)
C19_28 C 0.4823(3) 0.0193(3) 0.64892(9)
C20_25 C 0.5150(3) 0.1282(4) 0.64613(8)
H13_25 H 0.5205 0.1784 0.6489
C21_25 C 0.5459(3) 0.0932(4) 0.62962(8)
H14_25 H 0.5768 0.1131 0.6189
H15_25 H 0.6392 0.0030 0.6082
N4_25 N 0.5241(2) 0.0228(2) 0.63136(6)
C1_29 C 0.3283(3) 0.2789(3) 0.18537(9)
C2_29 C 0.2900(3) 0.2081(3) 0.18345(9)
C3_29 C 0.2434(3) 0.1850(3) 0.19958(9)
H1_29 H 0.2352 0.2145 0.2119
C4_29 C 0.2084(3) 0.1186(3) 0.19770(11)
H2_29 H 0.1772 0.1027 0.2090
C5_29 C 0.2181(3) 0.0764(3) 0.18014(11)
C6_29 C 0.2648(4) 0.0995(3) 0.16384(11)
H3_29 H 0.2721 0.0699 0.1515
C7_29 C 0.3003(3) 0.1646(3) 0.16545(10)
H4_29 H 0.3320 0.1797 0.1542
C8_29 C 0.1783(4) 0.0062(4) 0.17761(16)
C9_29 C 0.4657(3) 0.3752(3) 0.22841(8)
H5_29 H 0.4217 0.3917 0.2346
C10_26 C 0.5284(3) 0.3527(3) 0.26310(8)
C11_26 C 0.4853(3) 0.3961(3) 0.27544(8)
H6_26 H 0.4522 0.4285 0.2688
C12_26 C 0.4903(3) 0.3927(4) 0.29768(8)
H7_26 H 0.4592 0.4214 0.3064
C13_26 C 0.5759(3) 0.3090(4) 0.27304(9)
H8_26 H 0.6053 0.2782 0.2644
C14_26 C 0.5838(3) 0.3069(4) 0.29501(9)
H9_26 H 0.6195 0.2771 0.3015
C15_26 C 0.5396(3) 0.3483(3) 0.30720(9)
C16_26 C 0.6001(3) 0.3252(4) 0.34089(8)
C17_26 C 0.6022(3) 0.2600(4) 0.35079(10)
H10_28 H 0.5640 0.2264 0.3487
C18_26 C 0.6557(4) 0.3725(4) 0.34309(9)
H11_26 H 0.6548 0.4171 0.3355
C19_29 C 0.7693(3) 0.2323(3) 0.39892(9)
H12_28 H 0.7260 0.2105 0.4040
C20_26 C 0.8782(4) 0.2650(3) 0.39613(8)
H13_26 H 0.9284 0.2705 0.3989
C21_26 C 0.8432(4) 0.2959(3) 0.37962(8)
H14_26 H 0.8631 0.3268 0.3689
C22_26 C 0.7137(3) 0.2911(3) 0.36709(7)
C23_26 C 0.7140(4) 0.3562(3) 0.35645(9)
H15_26 H 0.7530 0.3892 0.3582
C24_28 C 0.6597(4) 0.2423(3) 0.36388(9)
H16_28 H 0.6616 0.1963 0.3707
Co1_7 Co 0.40507(4) 0.39310(4) 0.183250(10)
N1_29 N 0.4758(2) 0.3714(3) 0.20766(7)
N2_29 N 0.5211(3) 0.3544(3) 0.24005(7)
N3_15 N 0.8324(2) 0.2246(3) 0.40835(7)
N4_26 N 0.7728(2) 0.2741(2) 0.38136(6)
O1_29 O 0.3749(2) 0.2951(2) 0.17138(6)
O2_29 O 0.3147(2) 0.3210(2) 0.20051(7)
O5_26 O 0.5382(2) 0.3469(3) 0.32975(6)
C25_29 C 0.5607(11) 0.3124(13) 0.2258(2)
H17_29 H 0.5990 0.2800 0.2292
C26_29 C 0.5333(10) 0.3272(12) 0.2061(2)
H18_29 H 0.5520 0.3089 0.1929
Co2_8 Co 0.85690(4) 0.15507(4) 0.433250(10)
N5_15 N 0.4746(3) 0.4176(2) 0.15835(7)
O6_14 O 0.3621(2) 0.4861(2) 0.19306(9)
O3_29 O 0.1840(3) 0.9705(3) 0.16089(11)
O4_16 O 0.1379(2) 0.9861(2) 0.19306(9)
Co3_16 Co 0.09493(4) 0.89310(4) 0.183250(10)
C10_27 C 0.6027(3) 0.7216(3) 0.01310(8)
C11_27 C 0.6461(3) 0.7647(3) 0.02544(8)
H6_27 H 0.6785 0.7978 0.0188
C12_27 C 0.6427(4) 0.7597(3) 0.04768(8)
H7_27 H 0.6714 0.7908 0.0564
C13_27 C 0.5590(4) 0.6741(3) 0.02304(9)
H8_27 H 0.5282 0.6447 0.0144
C14_27 C 0.5569(4) 0.6662(3) 0.04501(9)
H9_27 H 0.5271 0.6305 0.0515
C15_27 C 0.5983(3) 0.7104(3) 0.05720(9)
C16_27 C 0.5752(4) 0.6499(3) 0.09089(8)
C17_27 C 0.5100(4) 0.6478(3) 0.10079(10)
H10_29 H 0.4764 0.6860 0.0987
C18_27 C 0.6225(4) 0.5943(4) 0.09309(9)
H11_27 H 0.6671 0.5952 0.0855
C19_30 C 0.4823(3) 0.4807(3) 0.14892(9)
H12_29 H 0.4605 0.5240 0.1540
C20_27 C 0.5150(3) 0.3718(4) 0.14613(8)
H13_27 H 0.5205 0.3216 0.1489
C21_27 C 0.5459(3) 0.4068(4) 0.12962(8)
H14_27 H 0.5768 0.3869 0.1189
C22_27 C 0.5411(3) 0.5363(3) 0.11709(7)
C23_27 C 0.6062(3) 0.5360(4) 0.10645(9)
H15_27 H 0.6392 0.4970 0.1082
C24_29 C 0.4923(3) 0.5903(4) 0.11388(9)
H16_29 H 0.4463 0.5884 0.1207
N4_27 N 0.5241(2) 0.4772(2) 0.13136(6)
O5_27 O 0.5969(3) 0.7118(2) 0.07975(6)
C1_30 C 0.9711(3) 0.0783(3) 0.43537(9)
C9_30 C 0.8748(3) 0.2157(3) 0.47841(8)
H5_30 H 0.8583 0.1717 0.4846
C10_28 C 0.8973(3) 0.2784(3) 0.51310(8)
C11_28 C 0.8539(3) 0.2353(3) 0.52544(8)
H6_28 H 0.8215 0.2022 0.5188
C12_28 C 0.8573(4) 0.2403(3) 0.54768(8)
H7_28 H 0.8286 0.2092 0.5564
C13_28 C 0.9410(4) 0.3259(3) 0.52304(9)
H8_28 H 0.9718 0.3553 0.5144
C14_28 C 0.9431(4) 0.3338(3) 0.54501(9)
H9_28 H 0.9729 0.3695 0.5515
C15_28 C 0.9017(3) 0.2896(3) 0.55720(9)
C16_28 C 0.9248(4) 0.3501(3) 0.59089(8)
C17_28 C 0.9900(4) 0.3522(3) 0.60079(10)
C18_28 C 0.8775(4) 0.4057(4) 0.59309(9)
H11_28 H 0.8329 0.4048 0.5855
C20_28 C 0.9850(3) 0.6282(4) 0.64613(8)
H13_28 H 0.9795 0.6784 0.6489
C21_28 C 0.9541(3) 0.5932(4) 0.62962(8)
H14_28 H 0.9232 0.6131 0.6189
C22_28 C 0.9589(3) 0.4637(3) 0.61709(7)
C23_28 C 0.8938(3) 0.4640(4) 0.60645(9)
H15_28 H 0.8608 0.5030 0.6082
N1_30 N 0.8786(3) 0.2258(2) 0.45766(7)
N2_30 N 0.8956(3) 0.2711(3) 0.49005(7)
N4_28 N 0.9759(2) 0.5228(2) 0.63136(6)
O1_30 O 0.9549(2) 0.1249(2) 0.42138(6)
O2_30 O 0.9290(2) 0.0647(2) 0.45051(7)
O5_28 O 0.9031(3) 0.2882(2) 0.57975(6)
C25_30 C 0.9376(13) 0.3107(11) 0.4758(2)
H17_30 H 0.9700 0.3490 0.4792
C26_30 C 0.9228(12) 0.2833(10) 0.4561(2)
H18_30 H 0.9411 0.3020 0.4429
O6_15 O 0.7639(2) 0.1121(2) 0.44306(9)
C19_31 C 0.0177(3) 0.9807(3) 0.14892(9)
N3_16 N 0.0254(3) 0.9176(2) 0.15835(7)
C1_31 C 0.1717(3) 0.7789(3) 0.18537(9)
C2_30 C 0.2100(3) 0.7081(3) 0.18345(9)
C3_30 C 0.2566(3) 0.6850(3) 0.19958(9)
H1_30 H 0.2648 0.7145 0.2119
C4_30 C 0.2916(3) 0.6186(3) 0.19770(11)
H2_30 H 0.3228 0.6027 0.2090
C5_30 C 0.2819(3) 0.5764(3) 0.18014(11)
C6_30 C 0.2352(4) 0.5995(3) 0.16384(11)
H3_30 H 0.2279 0.5699 0.1515
C7_30 C 0.1997(3) 0.6646(3) 0.16545(10)
H4_30 H 0.1680 0.6797 0.1542
C8_30 C 0.3217(4) 0.5062(4) 0.17761(16)
C9_31 C 0.0343(3) 0.8752(3) 0.22841(8)
H5_31 H 0.0783 0.8917 0.2346
C11_29 C 0.0147(3) 0.8961(3) 0.27544(8)
H6_29 H 0.0478 0.9285 0.2688
C12_29 C 0.0097(3) 0.8927(4) 0.29768(8)
H7_29 H 0.0408 0.9214 0.3064
N1_31 N 0.0242(2) 0.8714(3) 0.20766(7)
O1_31 O 0.1251(2) 0.7951(2) 0.17138(6)
O2_31 O 0.1853(2) 0.8210(2) 0.20051(7)
O3_30 O 0.3160(3) 0.4705(3) 0.16089(11)
C3_31 C 0.5650(3) 0.0066(3) 0.44958(9)
H1_31 H 0.5355 0.0148 0.4619
C4_31 C 0.6314(3) 0.0416(3) 0.44770(11)
H2_31 H 0.6473 0.0728 0.4590
C5_31 C 0.6736(3) 0.0319(3) 0.43014(11)
C8_31 C 0.7438(4) 0.0717(4) 0.42761(16)
O3_31 O 0.7795(3) 0.0660(3) 0.41089(11)
C1_32 C 0.5289(3) 0.9217(3) 0.93537(9)
C2_31 C 0.4581(3) 0.9600(3) 0.93345(9)
C6_31 C 0.3495(3) 0.9852(4) 0.91384(11)
H3_31 H 0.3199 0.9779 0.9015
C7_31 C 0.4146(3) 0.9497(3) 0.91545(10)
H4_31 H 0.4297 0.9180 0.9042
C9_32 C 0.6252(3) 0.7843(3) 0.97841(8)
H5_32 H 0.6417 0.8283 0.9846
Co1_8 Co 0.64310(4) 0.84493(4) 0.933250(10)
N1_32 N 0.6214(3) 0.7742(2) 0.95766(7)
N2_31 N 0.6044(3) 0.7289(3) 0.99005(7)
O1_32 O 0.5451(2) 0.8751(2) 0.92138(6)
O2_32 O 0.5710(2) 0.9353(2) 0.95051(7)
C25_31 C 0.5624(13) 0.6893(11) 0.9758(2)
H17_31 H 0.5300 0.6510 0.9792
C26_31 C 0.5772(12) 0.7167(10) 0.9561(2)
H18_31 H 0.5589 0.6980 0.9429
N5_16 N 0.6676(2) 0.7754(3) 0.90835(7)
O6_16 O 0.7361(2) 0.8879(2) 0.94306(9)
C10_29 C 0.9716(3) 0.6473(3) 0.76310(8)
C13_29 C 0.9241(3) 0.6910(4) 0.77304(9)
H8_29 H 0.8947 0.7218 0.7644
C14_29 C 0.9162(3) 0.6931(4) 0.79501(9)
H9_29 H 0.8805 0.7229 0.8015
C15_29 C 0.9604(3) 0.6517(3) 0.80720(9)
C16_29 C 0.8999(3) 0.6748(4) 0.84089(8)
C17_29 C 0.8978(3) 0.7400(4) 0.85079(10)
H10_30 H 0.9360 0.7736 0.8487
C18_29 C 0.8443(4) 0.6275(4) 0.84309(9)
H11_29 H 0.8452 0.5829 0.8355
C19_32 C 0.7307(3) 0.7677(3) 0.89892(9)
H12_30 H 0.7740 0.7895 0.9040
C20_29 C 0.6218(4) 0.7350(3) 0.89613(8)
H13_29 H 0.5716 0.7295 0.8989
C21_29 C 0.6568(4) 0.7041(3) 0.87962(8)
H14_29 H 0.6369 0.6732 0.8689
C22_29 C 0.7863(3) 0.7089(3) 0.86709(7)
C23_29 C 0.7860(4) 0.6438(3) 0.85645(9)
H15_29 H 0.7470 0.6108 0.8582
C24_30 C 0.8403(4) 0.7577(3) 0.86388(9)
H16_30 H 0.8384 0.8037 0.8707
N2_32 N 0.9789(3) 0.6456(3) 0.74005(7)
N4_29 N 0.7272(2) 0.7259(2) 0.88136(6)
O5_29 O 0.9618(2) 0.6531(3) 0.82975(6)
C25_32 C 0.9393(11) 0.6876(13) 0.7258(2)
H17_32 H 0.9010 0.7200 0.7292
C26_32 C 0.9667(10) 0.6728(12) 0.7061(2)
H18_32 H 0.9480 0.6911 0.6929
C3_32 C 0.9350(3) 0.9934(3) 0.94958(9)
H1_32 H 0.9645 0.9852 0.9619
C4_32 C 0.8686(3) 0.9584(3) 0.94770(11)
H2_32 H 0.8527 0.9272 0.9590
C5_32 C 0.8264(3) 0.9681(3) 0.93014(11)
C8_32 C 0.7562(4) 0.9283(4) 0.92761(16)
O3_32 O 0.7205(3) 0.9340(3) 0.91089(11)
H10_31 H 0.0236 0.1860 0.0987
H12_31 H 0.0395 0.0240 0.1540
C24_31 C 0.0077(3) 0.0903(4) 0.11388(9)
H16_31 H 0.0537 0.0884 0.1207
C10_30 C 0.8973(3) 0.2216(3) 0.01310(8)
C11_30 C 0.8539(3) 0.2647(3) 0.02544(8)
H6_30 H 0.8215 0.2978 0.0188
C12_30 C 0.8573(4) 0.2597(3) 0.04768(8)
H7_30 H 0.8286 0.2908 0.0564
C13_30 C 0.9410(4) 0.1741(3) 0.02304(9)
H8_30 H 0.9718 0.1447 0.0144
C14_30 C 0.9431(4) 0.1662(3) 0.04501(9)
H9_30 H 0.9729 0.1305 0.0515
C15_30 C 0.9017(3) 0.2104(3) 0.05720(9)
C16_30 C 0.9248(4) 0.1499(3) 0.09089(8)
C17_30 C 0.9900(4) 0.1478(3) 0.10079(10)
C18_30 C 0.8775(4) 0.0943(4) 0.09309(9)
H11_30 H 0.8329 0.0952 0.0855
C22_30 C 0.9589(3) 0.0363(3) 0.11709(7)
C23_30 C 0.8938(3) 0.0360(4) 0.10645(9)
O5_30 O 0.9031(3) 0.2118(2) 0.07975(6)
C20_30 C 0.9850(3) 0.8718(4) 0.14613(8)
H13_30 H 0.9795 0.8216 0.1489
C21_30 C 0.9541(3) 0.9068(4) 0.12962(8)
H14_30 H 0.9232 0.8869 0.1189
H15_30 H 0.8608 0.9970 0.1082
N4_30 N 0.9759(2) 0.9772(2) 0.13136(6)
C10_31 C 0.1027(3) 0.2784(3) 0.01310(8)
C11_31 C 0.1461(3) 0.2353(3) 0.02544(8)
H6_31 H 0.1785 0.2022 0.0188
C12_31 C 0.1427(4) 0.2403(3) 0.04768(8)
H7_31 H 0.1714 0.2092 0.0564
C13_31 C 0.0590(4) 0.3259(3) 0.02304(9)
H8_31 H 0.0282 0.3553 0.0144
C14_31 C 0.0569(4) 0.3338(3) 0.04501(9)
H9_31 H 0.0271 0.3695 0.0515
C15_31 C 0.0983(3) 0.2896(3) 0.05720(9)
C16_31 C 0.0752(4) 0.3501(3) 0.09089(8)
C17_31 C 0.0100(4) 0.3522(3) 0.10079(10)
C18_31 C 0.1225(4) 0.4057(4) 0.09309(9)
H11_31 H 0.1671 0.4048 0.0855
C20_31 C 0.0150(3) 0.6282(4) 0.14613(8)
H13_31 H 0.0205 0.6784 0.1489
C21_31 C 0.0459(3) 0.5932(4) 0.12962(8)
H14_31 H 0.0768 0.6131 0.1189
C22_31 C 0.0411(3) 0.4637(3) 0.11709(7)
C23_31 C 0.1062(3) 0.4640(4) 0.10645(9)
H15_31 H 0.1392 0.5030 0.1082
N4_31 N 0.0241(2) 0.5228(2) 0.13136(6)
O5_31 O 0.0969(3) 0.2882(2) 0.07975(6)
C2_32 C 0.9581(3) 0.0400(3) 0.93345(9)
C6_32 C 0.8495(3) 0.0148(4) 0.91384(11)
H3_32 H 0.8199 0.0221 0.9015
C7_32 C 0.9146(3) 0.0503(3) 0.91545(10)
H4_32 H 0.9297 0.0820 0.9042
C20_32 C 0.9850(3) 0.1282(4) 0.35387(8)
H13_32 H 0.9795 0.1784 0.3511
C21_32 C 0.9541(3) 0.0932(4) 0.37038(8)
H14_32 H 0.9232 0.1131 0.3811
H15_32 H 0.8608 0.0030 0.3918
N4_32 N 0.9759(2) 0.0228(2) 0.36864(6)
C10_32 C 0.6027(3) 0.2216(3) 0.98690(8)
C11_32 C 0.6461(3) 0.2647(3) 0.97456(8)
H6_32 H 0.6785 0.2978 0.9812
C12_32 C 0.6427(4) 0.2597(3) 0.95232(8)
H7_32 H 0.6714 0.2908 0.9436
C13_32 C 0.5590(4) 0.1741(3) 0.97696(9)
H8_32 H 0.5282 0.1447 0.9856
C14_32 C 0.5569(4) 0.1662(3) 0.95499(9)
H9_32 H 0.5271 0.1305 0.9485
C15_32 C 0.5983(3) 0.2104(3) 0.94280(9)
C16_32 C 0.5752(4) 0.1499(3) 0.90911(8)
C17_32 C 0.5100(4) 0.1478(3) 0.89921(10)
H10_32 H 0.4764 0.1860 0.9013
C18_32 C 0.6225(4) 0.0943(4) 0.90691(9)
H11_32 H 0.6671 0.0952 0.9145
H12_32 H 0.4605 0.0240 0.8460
C22_32 C 0.5411(3) 0.0363(3) 0.88291(7)
C23_32 C 0.6062(3) 0.0360(4) 0.89355(9)
C24_32 C 0.4923(3) 0.0903(4) 0.88612(9)
H16_32 H 0.4463 0.0884 0.8793
O5_32 O 0.5969(3) 0.2118(2) 0.92025(6)
loop_
_geom_bond_atom_site_label_1
_geom_bond_atom_site_label_2
_geom_bond_site_symmetry_1
_geom_bond_site_symmetry_2
C20 H13 1_555 1_555
C21 C20 1_555 1_555
H14 C21 1_555 1_555
C21 N4 1_555 1_555
C9 H5 1_555 1_555
Co1 N1 1_555 1_555
N1 C9 1_555 1_555
N2 C9 1_555 1_555
O1 C1 1_555 1_555
O2 C1 1_555 1_555
C25 N2 1_555 1_555
H17 C25 1_555 1_555
C26 N1 1_555 1_555
H18 C26 1_555 1_555
N5 Co1 1_555 1_555
O6 Co1 1_555 1_555
Co1 O1 1_555 1_555
Co1 O2 1_555 1_555
C25 C26 1_555 1_555
C2 C3 1_555 1_555
C3 H1 1_555 1_555
C4 C3 1_555 1_555
H2 C4 1_555 1_555
C5 C4 1_555 1_555
C6 C5 1_555 1_555
H3 C6 1_555 1_555
C7 C2 1_555 1_555
H4 C7 1_555 1_555
C8 C5 1_555 1_555
O3 C8 1_555 1_555
O4 C8 1_555 1_555
Co3 O4 1_555 1_555
C6 C7 1_555 1_555
C1_2 C2_2 1_555 1_555
C2_2 C3_2 1_555 1_555
C3_2 H1_2 1_555 1_555
C4_2 C3_2 1_555 1_555
H2_2 C4_2 1_555 1_555
C5_2 C4_2 1_555 1_555
C6_2 C5_2 1_555 1_555
H3_2 C6_2 1_555 1_555
C7_2 C2_2 1_555 1_555
H4_2 C7_2 1_555 1_555
C8_2 C5_2 1_555 1_555
C9_2 H5_2 1_555 1_555
C10 C11 1_555 1_555
C11 H6 1_555 1_555
C12 C11 1_555 1_555
H7 C12 1_555 1_555
C13 C10 1_555 1_555
H8 C13 1_555 1_555
C14 C13 1_555 1_555
H9 C14 1_555 1_555
C15 C12 1_555 1_555
C16 C17 1_555 1_555
C17 H10 1_555 1_555
C18 C16 1_555 1_555
H11 C18 1_555 1_555
C19 H12 1_555 1_555
C20_2 H13_2 1_555 1_555
C21_2 C20_2 1_555 1_555
H14_2 C21_2 1_555 1_555
C22 C23 1_555 1_555
C23 C18 1_555 1_555
H15_2 C23 1_555 1_555
C24 C17 1_555 1_555
H16 C24 1_555 1_555
Co1_2 N1_2 1_555 1_555
N1_2 C9_2 1_555 1_555
N2_2 C9_2 1_555 1_555
N5 C19 1_555 1_555
N4_2 C19 1_555 1_555
O1_2 C1_2 1_555 1_555
O2_2 C1_2 1_555 1_555
O3_2 C8_2 1_555 1_555
O4_2 C8_2 1_555 1_555
O5 C15 1_555 1_555
C25_2 N2_2 1_555 1_555
H17_2 C25_2 1_555 1_555
C26_2 N1_2 1_555 1_555
H18_2 C26_2 1_555 1_555
Co3_2 O4_2 1_555 1_555
N5_2 Co1_2 1_555 1_555
O6_2 Co1_2 1_555 1_555
C6_2 C7_2 1_555 1_555
C10 N2_2 1_555 1_555
C14 C15 1_555 1_555
C16 O5 1_555 1_555
C20_2 N5 1_555 1_555
C21_2 N4_2 1_555 1_555
C22 C24 1_555 1_555
C22 N4_2 1_555 1_555
Co1_2 O1_2 1_555 1_555
Co1_2 O2_2 1_555 1_555
C25_2 C26_2 1_555 1_555
C20_3 H13_3 1_555 1_555
C21_3 C20_3 1_555 1_555
H14_3 C21_3 1_555 1_555
N5_2 C19_2 1_555 1_555
N4_3 C19_2 1_555 1_555
C20_3 N5_2 1_555 1_555
C21_3 N4_3 1_555 1_555
C1_3 C2_3 1_555 1_555
C2_3 C3_3 1_555 1_555
C3_3 H1_3 1_555 1_555
C4_3 C3_3 1_555 1_555
H2_3 C4_3 1_555 1_555
C5_3 C4_3 1_555 1_555
C6_3 C5_3 1_555 1_555
H3_3 C6_3 1_555 1_555
C7_3 C2_3 1_555 1_555
H4_3 C7_3 1_555 1_555
C8_3 C5_3 1_555 1_555
C9_3 H5_3 1_555 1_555
Co3 N1_3 1_555 1_555
N1_3 C9_3 1_555 1_555
N2_3 C9_3 1_555 1_555
O1_3 C1_3 1_555 1_555
O2_3 C1_3 1_555 1_555
O3_3 C8_3 1_555 1_555
O6 C8_3 1_555 1_555
C25_3 N2_3 1_555 1_555
H17_3 C25_3 1_555 1_555
C26_3 N1_3 1_555 1_555
H18_3 C26_3 1_555 1_555
N5_3 Co3 1_555 1_555
C6_3 C7_3 1_555 1_555
Co3 O1_3 1_555 1_555
Co3 O2_3 1_555 1_555
C25_3 C26_3 1_555 1_555
H3_4 C6_4 1_555 1_555
C7_4 C2_4 1_555 1_555
H4_4 C7_4 1_555 1_555
C19_3 H12_2 1_555 1_555
H16_2 C24_2 1_555 1_555
N3 C19_3 1_555 1_555
Co3_2 N3 1_555 1_555
C6_4 C7_4 1_555 1_555
C13_2 C10_2 1_555 1_555
H8_2 C13_2 1_555 1_555
C14_2 C13_2 1_555 1_555
H9_2 C14_2 1_555 1_555
C16_2 C17_2 1_555 1_555
C17_2 H10_3 1_555 1_555
C18_2 C16_2 1_555 1_555
H11_2 C18_2 1_555 1_555
C19_4 H12_3 1_555 1_555
C20_4 H13_4 1_555 1_555
C21_4 C20_4 1_555 1_555
H14_4 C21_4 1_555 1_555
C22_2 C23_2 1_555 1_555
C23_2 C18_2 1_555 1_555
H15_4 C23_2 1_555 1_555
C24_3 C17_2 1_555 1_555
H16_3 C24_3 1_555 1_555
N5_3 C19_4 1_555 1_555
N4_4 C19_4 1_555 1_555
O5_2 C15_2 1_555 1_555
C25_4 N2_4 1_555 1_555
H17_4 C25_4 1_555 1_555
H18_4 C26_4 1_555 1_555
C10_2 N2_4 1_555 1_555
C14_2 C15_2 1_555 1_555
C16_2 O5_2 1_555 1_555
C20_4 N5_3 1_555 1_555
C21_4 N4_4 1_555 1_555
C22_2 C24_3 1_555 1_555
C22_2 N4_4 1_555 1_555
C25_4 C26_4 1_555 1_555
C1_4 C2_5 1_555 1_555
C2_5 C3_4 1_555 1_555
C3_4 H1_4 1_555 1_555
C4_4 C3_4 1_555 1_555
H2_4 C4_4 1_555 1_555
C5_4 C4_4 1_555 1_555
C6_5 C5_4 1_555 1_555
H3_5 C6_5 1_555 1_555
C7_5 C2_5 1_555 1_555
H4_5 C7_5 1_555 1_555
C8_4 C5_4 1_555 1_555
C9_4 H5_4 1_555 1_555
C11_2 H6_2 1_555 1_555
C12_2 C11_2 1_555 1_555
H7_2 C12_2 1_555 1_555
Co3_2 N1_4 1_555 1_555
N1_4 C9_4 1_555 1_555
O1_4 C1_4 1_555 1_555
O2_4 C1_4 1_555 1_555
C6_5 C7_5 1_555 1_555
Co3_2 O1_4 1_555 1_555
Co3_2 O2_4 1_555 1_555
C10_3 C11_3 1_555 1_555
C11_3 H6_3 1_555 1_555
C12_3 C11_3 1_555 1_555
H7_3 C12_3 1_555 1_555
C13_3 C10_3 1_555 1_555
H8_3 C13_3 1_555 1_555
C14_3 C13_3 1_555 1_555
H9_3 C14_3 1_555 1_555
C15_3 C12_3 1_555 1_555
C16_3 C17_3 1_555 1_555
C18_3 C16_3 1_555 1_555
H11_3 C18_3 1_555 1_555
C22_3 C23_3 1_555 1_555
C23_3 C18_3 1_555 1_555
O5_3 C15_3 1_555 1_555
C14_3 C15_3 1_555 1_555
C16_3 O5_3 1_555 1_555
N3_2 C19_5 1_555 1_555
Co2 N3_2 1_555 1_555
C1_5 C2_6 1_555 1_555
C2_6 C3_5 1_555 1_555
C3_5 H1_5 1_555 1_555
C4_5 C3_5 1_555 1_555
H2_5 C4_5 1_555 1_555
C5_5 C4_5 1_555 1_555
C6_6 C5_5 1_555 1_555
H3_6 C6_6 1_555 1_555
C7_6 C2_6 1_555 1_555
H4_6 C7_6 1_555 1_555
C8_5 C5_5 1_555 1_555
C9_5 H5_5 1_555 1_555
C11_4 H6_4 1_555 1_555
C12_4 C11_4 1_555 1_555
H7_4 C12_4 1_555 1_555
Co2 N1_5 1_555 1_555
N1_5 C9_5 1_555 1_555
O1_5 C1_5 1_555 1_555
O2_5 C1_5 1_555 1_555
O3_5 C8_5 1_555 1_555
O4_3 C8_5 1_555 1_555
Co3_3 O4_3 1_555 1_555
O6_3 Co2 1_555 1_555
C6_6 C7_6 1_555 1_555
Co2 O1_5 1_555 1_555
Co2 O2_5 1_555 1_555
C3_6 H1_6 1_555 1_555
C4_6 C3_6 1_555 1_555
H2_6 C4_6 1_555 1_555
C5_6 C4_6 1_555 1_555
C8_6 C5_6 1_555 1_555
O3_6 C8_6 1_555 1_555
O4_4 C8_6 1_555 1_555
Co3_4 O4_4 1_555 1_555
C1_6 C2_7 1_555 1_555
C2_7 C3_7 1_555 1_555
C3_7 H1_7 1_555 1_555
C4_7 C3_7 1_555 1_555
H2_7 C4_7 1_555 1_555
C5_7 C4_7 1_555 1_555
C6_7 C5_7 1_555 1_555
H3_7 C6_7 1_555 1_555
C7_7 C2_7 1_555 1_555
H4_7 C7_7 1_555 1_555
C8_7 C5_7 1_555 1_555
C9_6 H5_6 1_555 1_555
C10_4 C11_5 1_555 1_555
C11_5 H6_5 1_555 1_555
C12_5 C11_5 1_555 1_555
H7_5 C12_5 1_555 1_555
C13_4 C10_4 1_555 1_555
H8_4 C13_4 1_555 1_555
C14_4 C13_4 1_555 1_555
H9_4 C14_4 1_555 1_555
C15_4 C12_5 1_555 1_555
C16_4 C17_4 1_555 1_555
C17_4 H10_4 1_555 1_555
C18_4 C16_4 1_555 1_555
H11_4 C18_4 1_555 1_555
C19_6 H12_4 1_555 1_555
C20_5 H13_5 1_555 1_555
C21_5 C20_5 1_555 1_555
H14_5 C21_5 1_555 1_555
C22_4 C23_4 1_555 1_555
C23_4 C18_4 1_555 1_555
H15_5 C23_4 1_555 1_555
C24_4 C17_4 1_555 1_555
H16_4 C24_4 1_555 1_555
Co3_3 N1_6 1_555 1_555
N1_6 C9_6 1_555 1_555
N2_5 C9_6 1_555 1_555
N3_3 C19_6 1_555 1_555
N4_5 C19_6 1_555 1_555
O1_6 C1_6 1_555 1_555
O2_6 C1_6 1_555 1_555
O5_4 C15_4 1_555 1_555
C25_5 N2_5 1_555 1_555
H17_5 C25_5 1_555 1_555
C26_5 N1_6 1_555 1_555
H18_5 C26_5 1_555 1_555
Co3_4 N3_3 1_555 1_555
N5_4 Co3_3 1_555 1_555
C6_7 C7_7 1_555 1_555
C10_4 N2_5 1_555 1_555
C14_4 C15_4 1_555 1_555
C16_4 O5_4 1_555 1_555
C20_5 N3_3 1_555 1_555
C21_5 N4_5 1_555 1_555
C22_4 C24_4 1_555 1_555
C22_4 N4_5 1_555 1_555
Co3_3 O1_6 1_555 1_555
Co3_3 O2_6 1_555 1_555
C25_5 C26_5 1_555 1_555
C10_5 C11_6 1_555 1_555
C11_6 H6_6 1_555 1_555
C12_6 C11_6 1_555 1_555
H7_6 C12_6 1_555 1_555
C13_5 C10_5 1_555 1_555
H8_5 C13_5 1_555 1_555
C14_5 C13_5 1_555 1_555
H9_5 C14_5 1_555 1_555
C15_5 C12_6 1_555 1_555
C16_5 C17_5 1_555 1_555
C17_5 H10_5 1_555 1_555
C18_5 C16_5 1_555 1_555
H11_5 C18_5 1_555 1_555
C19_7 H12_5 1_555 1_555
C20_6 H13_6 1_555 1_555
C21_6 C20_6 1_555 1_555
H14_6 C21_6 1_555 1_555
C22_5 C23_5 1_555 1_555
C23_5 C18_5 1_555 1_555
H15_6 C23_5 1_555 1_555
C24_5 C17_5 1_555 1_555
H16_5 C24_5 1_555 1_555
N5_4 C19_7 1_555 1_555
N4_6 C19_7 1_555 1_555
O5_5 C15_5 1_555 1_555
C14_5 C15_5 1_555 1_555
C16_5 O5_5 1_555 1_555
C20_6 N5_4 1_555 1_555
C21_6 N4_6 1_555 1_555
C22_5 C24_5 1_555 1_555
C22_5 N4_6 1_555 1_555
C9_7 H5_7 1_555 1_555
C10_6 C11_7 1_555 1_555
C11_7 H6_7 1_555 1_555
C12_7 C11_7 1_555 1_555
H7_7 C12_7 1_555 1_555
C13_6 C10_6 1_555 1_555
H8_6 C13_6 1_555 1_555
C14_6 C13_6 1_555 1_555
H9_6 C14_6 1_555 1_555
C15_6 C12_7 1_555 1_555
C16_6 C17_6 1_555 1_555
C18_6 C16_6 1_555 1_555
H11_6 C18_6 1_555 1_555
C20_7 H13_7 1_555 1_555
C21_7 C20_7 1_555 1_555
H14_7 C21_7 1_555 1_555
C22_6 C23_6 1_555 1_555
C23_6 C18_6 1_555 1_555
H15_7 C23_6 1_555 1_555
Co3_4 N1_7 1_555 1_555
N1_7 C9_7 1_555 1_555
N2_6 C9_7 1_555 1_555
O1_7 C1_7 1_555 1_555
O2_7 C1_7 1_555 1_555
O5_6 C15_6 1_555 1_555
C25_6 N2_6 1_555 1_555
H17_6 C25_6 1_555 1_555
C26_6 N1_7 1_555 1_555
H18_6 C26_6 1_555 1_555
C10_6 N2_6 1_555 1_555
C14_6 C15_6 1_555 1_555
C16_6 O5_6 1_555 1_555
C21_7 N4_7 1_555 1_555
C22_6 N4_7 1_555 1_555
Co3_4 O1_7 1_555 1_555
Co3_4 O2_7 1_555 1_555
C25_6 C26_6 1_555 1_555
H16_6 C24_6 1_555 1_555
C3_8 H1_8 1_555 1_555
C4_8 C3_8 1_555 1_555
H2_8 C4_8 1_555 1_555
C5_8 C4_8 1_555 1_555
C8_8 C5_8 1_555 1_555
O3_8 C8_8 1_555 1_555
O4_5 C8_8 1_555 1_555
Co3_5 O4_5 1_555 1_555
C1_8 C2_8 1_555 1_555
H3_8 C6_8 1_555 1_555
C7_8 C2_8 1_555 1_555
H4_8 C7_8 1_555 1_555
C9_8 H5_8 1_555 1_555
Co3_5 N1_8 1_555 1_555
N1_8 C9_8 1_555 1_555
N2_7 C9_8 1_555 1_555
O1_8 C1_8 1_555 1_555
O2_8 C1_8 1_555 1_555
C25_7 N2_7 1_555 1_555
H17_7 C25_7 1_555 1_555
C26_7 N1_8 1_555 1_555
H18_7 C26_7 1_555 1_555
N5_5 Co3_5 1_555 1_555
C6_8 C7_8 1_555 1_555
Co3_5 O1_8 1_555 1_555
Co3_5 O2_8 1_555 1_555
C25_7 C26_7 1_555 1_555
C13_7 C10_7 1_555 1_555
H8_7 C13_7 1_555 1_555
C14_7 C13_7 1_555 1_555
H9_7 C14_7 1_555 1_555
C16_7 C17_7 1_555 1_555
C17_7 H10_7 1_555 1_555
C18_7 C16_7 1_555 1_555
H11_7 C18_7 1_555 1_555
C19_8 H12_7 1_555 1_555
C20_8 H13_8 1_555 1_555
C21_8 C20_8 1_555 1_555
H14_8 C21_8 1_555 1_555
C22_7 C23_7 1_555 1_555
C23_7 C18_7 1_555 1_555
H15_8 C23_7 1_555 1_555
C24_7 C17_7 1_555 1_555
H16_7 C24_7 1_555 1_555
N5_5 C19_8 1_555 1_555
N4_8 C19_8 1_555 1_555
O5_7 C15_7 1_555 1_555
C25_8 N2_8 1_555 1_555
H17_8 C25_8 1_555 1_555
H18_8 C26_8 1_555 1_555
C10_7 N2_8 1_555 1_555
C14_7 C15_7 1_555 1_555
C16_7 O5_7 1_555 1_555
C20_8 N5_5 1_555 1_555
C21_8 N4_8 1_555 1_555
C22_7 C24_7 1_555 1_555
C22_7 N4_8 1_555 1_555
C25_8 C26_8 1_555 1_555
H3_9 C6_9 1_555 1_555
C7_9 C2_9 1_555 1_555
H4_9 C7_9 1_555 1_555
C6_9 C7_9 1_555 1_555
C19_9 H12_8 1_555 1_555
H16_8 C24_8 1_555 1_555
N3_4 C19_9 1_555 1_555
Co2_2 N3_4 1_555 1_555
C13_8 C10_8 1_555 1_555
H8_8 C13_8 1_555 1_555
C14_8 C13_8 1_555 1_555
H9_8 C14_8 1_555 1_555
C16_8 C17_8 1_555 1_555
C17_8 H10_9 1_555 1_555
C18_8 C16_8 1_555 1_555
H11_8 C18_8 1_555 1_555
C19_10 H12_9 1_555 1_555
C20_9 H13_9 1_555 1_555
C21_9 C20_9 1_555 1_555
H14_9 C21_9 1_555 1_555
C22_8 C23_8 1_555 1_555
C23_8 C18_8 1_555 1_555
H15_9 C23_8 1_555 1_555
C24_9 C17_8 1_555 1_555
H16_9 C24_9 1_555 1_555
N3_5 C19_10 1_555 1_555
N4_9 C19_10 1_555 1_555
O5_8 C15_8 1_555 1_555
C25_9 N2_9 1_555 1_555
H17_9 C25_9 1_555 1_555
H18_9 C26_9 1_555 1_555
Co2_3 N3_5 1_555 1_555
C10_8 N2_9 1_555 1_555
C14_8 C15_8 1_555 1_555
C16_8 O5_8 1_555 1_555
C20_9 N3_5 1_555 1_555
C21_9 N4_9 1_555 1_555
C22_8 C24_9 1_555 1_555
C22_8 N4_9 1_555 1_555
C25_9 C26_9 1_555 1_555
C1_9 C2_10 1_555 1_555
C2_10 C3_9 1_555 1_555
C3_9 H1_9 1_555 1_555
C4_9 C3_9 1_555 1_555
H2_9 C4_9 1_555 1_555
C5_9 C4_9 1_555 1_555
C6_10 C5_9 1_555 1_555
H3_10 C6_10 1_555 1_555
C7_10 C2_10 1_555 1_555
H4_10 C7_10 1_555 1_555
C8_9 C5_9 1_555 1_555
C9_9 H5_9 1_555 1_555
C11_8 H6_8 1_555 1_555
C12_8 C11_8 1_555 1_555
H7_8 C12_8 1_555 1_555
Co2_2 N1_9 1_555 1_555
N1_9 C9_9 1_555 1_555
O1_9 C1_9 1_555 1_555
O2_9 C1_9 1_555 1_555
O6_4 Co2_2 1_555 1_555
C6_10 C7_10 1_555 1_555
Co2_2 O1_9 1_555 1_555
Co2_2 O2_9 1_555 1_555
Co3_6 O4_6 1_555 1_555
C1_10 C2_11 1_555 1_555
C2_11 C3_10 1_555 1_555
C3_10 H1_10 1_555 1_555
C4_10 C3_10 1_555 1_555
H2_10 C4_10 1_555 1_555
C5_10 C4_10 1_555 1_555
C6_11 C5_10 1_555 1_555
H3_11 C6_11 1_555 1_555
C7_11 C2_11 1_555 1_555
H4_11 C7_11 1_555 1_555
C8_10 C5_10 1_555 1_555
C9_10 H5_10 1_555 1_555
C10_9 C11_9 1_555 1_555
C11_9 H6_9 1_555 1_555
C12_9 C11_9 1_555 1_555
H7_9 C12_9 1_555 1_555
C13_9 C10_9 1_555 1_555
H8_9 C13_9 1_555 1_555
C14_9 C13_9 1_555 1_555
H9_9 C14_9 1_555 1_555
C15_9 C12_9 1_555 1_555
C16_9 C17_9 1_555 1_555
C17_9 H10_10 1_555 1_555
C18_9 C16_9 1_555 1_555
H11_9 C18_9 1_555 1_555
C22_9 C23_9 1_555 1_555
C23_9 C18_9 1_555 1_555
C24_10 C17_9 1_555 1_555
H16_10 C24_10 1_555 1_555
Co2_3 N1_10 1_555 1_555
N1_10 C9_10 1_555 1_555
N2_10 C9_10 1_555 1_555
O1_10 C1_10 1_555 1_555
O2_10 C1_10 1_555 1_555
O3_10 C8_10 1_555 1_555
O4_7 C8_10 1_555 1_555
O5_9 C15_9 1_555 1_555
C25_10 N2_10 1_555 1_555
H17_10 C25_10 1_555 1_555
C26_10 N1_10 1_555 1_555
H18_10 C26_10 1_555 1_555
Co3_7 O4_7 1_555 1_555
O6_5 Co2_3 1_555 1_555
C6_11 C7_11 1_555 1_555
C10_9 N2_10 1_555 1_555
C14_9 C15_9 1_555 1_555
C16_9 O5_9 1_555 1_555
C22_9 C24_10 1_555 1_555
Co2_3 O1_10 1_555 1_555
Co2_3 O2_10 1_555 1_555
C25_10 C26_10 1_555 1_555
C2_12 C3_11 1_555 1_555
C3_11 H1_11 1_555 1_555
C4_11 C3_11 1_555 1_555
H2_11 C4_11 1_555 1_555
C5_11 C4_11 1_555 1_555
C6_12 C5_11 1_555 1_555
H3_12 C6_12 1_555 1_555
C7_12 C2_12 1_555 1_555
H4_12 C7_12 1_555 1_555
C8_11 C5_11 1_555 1_555
H16_11 C24_11 1_555 1_555
O3_11 C8_11 1_555 1_555
O6_5 C8_11 1_555 1_555
C6_12 C7_12 1_555 1_555
C9_11 H5_11 1_555 1_555
C10_10 C11_10 1_555 1_555
C11_10 H6_10 1_555 1_555
C12_10 C11_10 1_555 1_555
H7_10 C12_10 1_555 1_555
C13_10 C10_10 1_555 1_555
H8_10 C13_10 1_555 1_555
C14_10 C13_10 1_555 1_555
H9_10 C14_10 1_555 1_555
C15_10 C12_10 1_555 1_555
C16_10 C17_10 1_555 1_555
C18_10 C16_10 1_555 1_555
H11_10 C18_10 1_555 1_555
C22_10 C23_10 1_555 1_555
C23_10 C18_10 1_555 1_555
Co3_7 N1_11 1_555 1_555
N1_11 C9_11 1_555 1_555
N2_11 C9_11 1_555 1_555
O1_11 C1_11 1_555 1_555
O2_11 C1_11 1_555 1_555
O5_10 C15_10 1_555 1_555
C25_11 N2_11 1_555 1_555
H17_11 C25_11 1_555 1_555
C26_11 N1_11 1_555 1_555
H18_11 C26_11 1_555 1_555
N5_6 Co3_7 1_555 1_555
C10_10 N2_11 1_555 1_555
C14_10 C15_10 1_555 1_555
C16_10 O5_10 1_555 1_555
Co3_7 O1_11 1_555 1_555
Co3_7 O2_11 1_555 1_555
C25_11 C26_11 1_555 1_555
C20_10 H13_10 1_555 1_555
C21_10 C20_10 1_555 1_555
H14_10 C21_10 1_555 1_555
N3_6 C19_11 1_555 1_555
N4_10 C19_11 1_555 1_555
Co3_6 N3_6 1_555 1_555
C20_10 N3_6 1_555 1_555
C21_10 N4_10 1_555 1_555
C1_12 C2_13 1_555 1_555
C2_13 C3_12 1_555 1_555
C3_12 H1_12 1_555 1_555
C4_12 C3_12 1_555 1_555
H2_12 C4_12 1_555 1_555
C5_12 C4_12 1_555 1_555
C6_13 C5_12 1_555 1_555
H3_13 C6_13 1_555 1_555
C7_13 C2_13 1_555 1_555
H4_13 C7_13 1_555 1_555
C8_12 C5_12 1_555 1_555
C9_12 H5_12 1_555 1_555
C10_11 C11_11 1_555 1_555
C11_11 H6_11 1_555 1_555
C12_11 C11_11 1_555 1_555
H7_11 C12_11 1_555 1_555
C13_11 C10_11 1_555 1_555
H8_11 C13_11 1_555 1_555
C14_11 C13_11 1_555 1_555
H9_11 C14_11 1_555 1_555
C15_11 C12_11 1_555 1_555
C16_11 C17_11 1_555 1_555
C17_11 H10_12 1_555 1_555
C18_11 C16_11 1_555 1_555
H11_11 C18_11 1_555 1_555
C19_12 H12_12 1_555 1_555
C20_11 H13_11 1_555 1_555
C21_11 C20_11 1_555 1_555
H14_11 C21_11 1_555 1_555
C22_11 C23_11 1_555 1_555
C23_11 C18_11 1_555 1_555
H15_11 C23_11 1_555 1_555
C24_12 C17_11 1_555 1_555
H16_12 C24_12 1_555 1_555
Co3_6 N1_12 1_555 1_555
N1_12 C9_12 1_555 1_555
N2_12 C9_12 1_555 1_555
N5_6 C19_12 1_555 1_555
N4_11 C19_12 1_555 1_555
O1_12 C1_12 1_555 1_555
O2_12 C1_12 1_555 1_555
O3_12 C8_12 1_555 1_555
O6_4 C8_12 1_555 1_555
O5_11 C15_11 1_555 1_555
C25_12 N2_12 1_555 1_555
H17_12 C25_12 1_555 1_555
C26_12 N1_12 1_555 1_555
H18_12 C26_12 1_555 1_555
C6_13 C7_13 1_555 1_555
C10_11 N2_12 1_555 1_555
C14_11 C15_11 1_555 1_555
C16_11 O5_11 1_555 1_555
C20_11 N5_6 1_555 1_555
C21_11 N4_11 1_555 1_555
C22_11 C24_12 1_555 1_555
C22_11 N4_11 1_555 1_555
Co3_6 O1_12 1_555 1_555
Co3_6 O2_12 1_555 1_555
C25_12 C26_12 1_555 1_555
C9_13 H5_13 1_555 1_555
Co1_3 N1_13 1_555 1_555
N1_13 C9_13 1_555 1_555
N2_13 C9_13 1_555 1_555
O1_13 C1_13 1_555 1_555
O2_13 C1_13 1_555 1_555
C25_13 N2_13 1_555 1_555
H17_13 C25_13 1_555 1_555
C26_13 N1_13 1_555 1_555
H18_13 C26_13 1_555 1_555
N5_7 Co1_3 1_555 1_555
O6_6 Co1_3 1_555 1_555
Co1_3 O1_13 1_555 1_555
Co1_3 O2_13 1_555 1_555
C25_13 C26_13 1_555 1_555
C1_14 C2_14 1_555 1_555
H3_14 C6_14 1_555 1_555
C7_14 C2_14 1_555 1_555
H4_14 C7_14 1_555 1_555
C9_14 H5_14 1_555 1_555
C10_12 C11_12 1_555 1_555
C11_12 H6_12 1_555 1_555
C12_12 C11_12 1_555 1_555
H7_12 C12_12 1_555 1_555
C13_12 C10_12 1_555 1_555
H8_12 C13_12 1_555 1_555
C14_12 C13_12 1_555 1_555
H9_12 C14_12 1_555 1_555
C15_12 C12_12 1_555 1_555
C16_12 C17_12 1_555 1_555
C17_12 H10_13 1_555 1_555
C18_12 C16_12 1_555 1_555
H11_12 C18_12 1_555 1_555
C19_13 H12_13 1_555 1_555
C20_12 H13_12 1_555 1_555
C21_12 C20_12 1_555 1_555
H14_12 C21_12 1_555 1_555
C22_12 C23_12 1_555 1_555
C23_12 C18_12 1_555 1_555
H15_12 C23_12 1_555 1_555
C24_13 C17_12 1_555 1_555
H16_13 C24_13 1_555 1_555
Co1_4 N1_14 1_555 1_555
N1_14 C9_14 1_555 1_555
N2_14 C9_14 1_555 1_555
N3_7 C19_13 1_555 1_555
N4_12 C19_13 1_555 1_555
O1_14 C1_14 1_555 1_555
O2_14 C1_14 1_555 1_555
O5_12 C15_12 1_555 1_555
C25_14 N2_14 1_555 1_555
H17_14 C25_14 1_555 1_555
C26_14 N1_14 1_555 1_555
H18_14 C26_14 1_555 1_555
Co2_4 N3_7 1_555 1_555
N5_8 Co1_4 1_555 1_555
O6_7 Co1_4 1_555 1_555
C6_14 C7_14 1_555 1_555
C10_12 N2_14 1_555 1_555
C14_12 C15_12 1_555 1_555
C16_12 O5_12 1_555 1_555
C20_12 N3_7 1_555 1_555
C21_12 N4_12 1_555 1_555
C22_12 C24_13 1_555 1_555
C22_12 N4_12 1_555 1_555
Co1_4 O1_14 1_555 1_555
Co1_4 O2_14 1_555 1_555
C25_14 C26_14 1_555 1_555
C13_13 C10_13 1_555 1_555
H8_13 C13_13 1_555 1_555
C14_13 C13_13 1_555 1_555
H9_13 C14_13 1_555 1_555
C16_13 C17_13 1_555 1_555
C17_13 H10_14 1_555 1_555
C18_13 C16_13 1_555 1_555
H11_13 C18_13 1_555 1_555
C19_14 H12_14 1_555 1_555
C20_13 H13_13 1_555 1_555
C21_13 C20_13 1_555 1_555
H14_13 C21_13 1_555 1_555
C22_13 C23_13 1_555 1_555
C23_13 C18_13 1_555 1_555
H15_13 C23_13 1_555 1_555
C24_14 C17_13 1_555 1_555
H16_14 C24_14 1_555 1_555
N5_8 C19_14 1_555 1_555
N4_13 C19_14 1_555 1_555
O5_13 C15_13 1_555 1_555
C25_15 N2_15 1_555 1_555
H17_15 C25_15 1_555 1_555
H18_15 C26_15 1_555 1_555
C10_13 N2_15 1_555 1_555
C14_13 C15_13 1_555 1_555
C16_13 O5_13 1_555 1_555
C20_13 N5_8 1_555 1_555
C21_13 N4_13 1_555 1_555
C22_13 C24_14 1_555 1_555
C22_13 N4_13 1_555 1_555
C25_15 C26_15 1_555 1_555
Co3_8 O4_8 1_555 1_555
C1_15 C2_15 1_555 1_555
C2_15 C3_13 1_555 1_555
C3_13 H1_13 1_555 1_555
C4_13 C3_13 1_555 1_555
H2_13 C4_13 1_555 1_555
C5_13 C4_13 1_555 1_555
C6_15 C5_13 1_555 1_555
H3_15 C6_15 1_555 1_555
C7_15 C2_15 1_555 1_555
H4_15 C7_15 1_555 1_555
C8_13 C5_13 1_555 1_555
C9_15 H5_15 1_555 1_555
C10_14 C11_13 1_555 1_555
C11_13 H6_13 1_555 1_555
C12_13 C11_13 1_555 1_555
H7_13 C12_13 1_555 1_555
C13_14 C10_14 1_555 1_555
H8_14 C13_14 1_555 1_555
C14_14 C13_14 1_555 1_555
H9_14 C14_14 1_555 1_555
C15_14 C12_13 1_555 1_555
C16_14 C17_14 1_555 1_555
C17_14 H10_15 1_555 1_555
C18_14 C16_14 1_555 1_555
H11_14 C18_14 1_555 1_555
C19_15 H12_15 1_555 1_555
C20_14 H13_14 1_555 1_555
C21_14 C20_14 1_555 1_555
H14_14 C21_14 1_555 1_555
C22_14 C23_14 1_555 1_555
C23_14 C18_14 1_555 1_555
H15_14 C23_14 1_555 1_555
C24_15 C17_14 1_555 1_555
H16_15 C24_15 1_555 1_555
Co2_4 N1_15 1_555 1_555
N1_15 C9_15 1_555 1_555
N2_16 C9_15 1_555 1_555
N5_7 C19_15 1_555 1_555
N4_14 C19_15 1_555 1_555
O1_15 C1_15 1_555 1_555
O2_15 C1_15 1_555 1_555
O5_14 C15_14 1_555 1_555
C25_16 N2_16 1_555 1_555
H17_16 C25_16 1_555 1_555
C26_16 N1_15 1_555 1_555
H18_16 C26_16 1_555 1_555
O6_8 Co2_4 1_555 1_555
C6_15 C7_15 1_555 1_555
C10_14 N2_16 1_555 1_555
C14_14 C15_14 1_555 1_555
C16_14 O5_14 1_555 1_555
C20_14 N5_7 1_555 1_555
C21_14 N4_14 1_555 1_555
C22_14 C24_15 1_555 1_555
C22_14 N4_14 1_555 1_555
Co2_4 O1_15 1_555 1_555
Co2_4 O2_15 1_555 1_555
C25_16 C26_16 1_555 1_555
N3_8 C19_16 1_555 1_555
Co3_8 N3_8 1_555 1_555
C3_14 H1_14 1_555 1_555
C4_14 C3_14 1_555 1_555
H2_14 C4_14 1_555 1_555
C5_14 C4_14 1_555 1_555
C8_14 C5_14 1_555 1_555
O3_14 C8_14 1_555 1_555
O6_6 C8_14 1_555 1_555
C3_15 H1_15 1_555 1_555
C4_15 C3_15 1_555 1_555
H2_15 C4_15 1_555 1_555
C5_15 C4_15 1_555 1_555
C8_15 C5_15 1_555 1_555
O3_15 C8_15 1_555 1_555
O6_7 C8_15 1_555 1_555
C1_16 C2_16 1_555 1_555
C2_16 C3_16 1_555 1_555
C3_16 H1_16 1_555 1_555
C4_16 C3_16 1_555 1_555
H2_16 C4_16 1_555 1_555
C5_16 C4_16 1_555 1_555
C6_16 C5_16 1_555 1_555
H3_16 C6_16 1_555 1_555
C7_16 C2_16 1_555 1_555
H4_16 C7_16 1_555 1_555
C8_16 C5_16 1_555 1_555
C9_16 H5_16 1_555 1_555
C11_14 H6_14 1_555 1_555
C12_14 C11_14 1_555 1_555
H7_14 C12_14 1_555 1_555
Co3_8 N1_16 1_555 1_555
N1_16 C9_16 1_555 1_555
O1_16 C1_16 1_555 1_555
O2_16 C1_16 1_555 1_555
O3_16 C8_16 1_555 1_555
O6_8 C8_16 1_555 1_555
C6_16 C7_16 1_555 1_555
Co3_8 O1_16 1_555 1_555
Co3_8 O2_16 1_555 1_555
C10_15 C11_15 1_555 1_555
C11_15 H6_15 1_555 1_555
C12_15 C11_15 1_555 1_555
H7_15 C12_15 1_555 1_555
C13_15 C10_15 1_555 1_555
H8_15 C13_15 1_555 1_555
C14_15 C13_15 1_555 1_555
H9_15 C14_15 1_555 1_555
C15_15 C12_15 1_555 1_555
C16_15 C17_15 1_555 1_555
C18_15 C16_15 1_555 1_555
H11_15 C18_15 1_555 1_555
C20_15 H13_15 1_555 1_555
C21_15 C20_15 1_555 1_555
H14_15 C21_15 1_555 1_555
C22_15 C23_15 1_555 1_555
C23_15 C18_15 1_555 1_555
H15_15 C23_15 1_555 1_555
O5_15 C15_15 1_555 1_555
C14_15 C15_15 1_555 1_555
C16_15 O5_15 1_555 1_555
C21_15 N4_15 1_555 1_555
C22_15 N4_15 1_555 1_555
C9_17 H5_17 1_555 1_555
C10_16 C11_16 1_555 1_555
C11_16 H6_16 1_555 1_555
C12_16 C11_16 1_555 1_555
H7_16 C12_16 1_555 1_555
C13_16 C10_16 1_555 1_555
H8_16 C13_16 1_555 1_555
C14_16 C13_16 1_555 1_555
H9_16 C14_16 1_555 1_555
C15_16 C12_16 1_555 1_555
C16_16 C17_16 1_555 1_555
C18_16 C16_16 1_555 1_555
H11_16 C18_16 1_555 1_555
C22_16 C23_16 1_555 1_555
C23_16 C18_16 1_555 1_555
Co1_5 N1_17 1_555 1_555
N1_17 C9_17 1_555 1_555
N2_17 C9_17 1_555 1_555
O1_17 C1_17 1_555 1_555
O2_17 C1_17 1_555 1_555
O5_16 C15_16 1_555 1_555
C25_17 N2_17 1_555 1_555
H17_17 C25_17 1_555 1_555
C26_17 N1_17 1_555 1_555
H18_17 C26_17 1_555 1_555
N5_9 Co1_5 1_555 1_555
O6_9 Co1_5 1_555 1_555
C10_16 N2_17 1_555 1_555
C14_16 C15_16 1_555 1_555
C16_16 O5_16 1_555 1_555
Co1_5 O1_17 1_555 1_555
Co1_5 O2_17 1_555 1_555
C25_17 C26_17 1_555 1_555
C2_17 C3_17 1_555 1_555
C3_17 H1_17 1_555 1_555
C4_17 C3_17 1_555 1_555
H2_17 C4_17 1_555 1_555
C5_17 C4_17 1_555 1_555
C6_17 C5_17 1_555 1_555
H3_17 C6_17 1_555 1_555
C7_17 C2_17 1_555 1_555
H4_17 C7_17 1_555 1_555
C8_17 C5_17 1_555 1_555
H16_16 C24_16 1_555 1_555
O3_17 C8_17 1_555 1_555
O4_9 C8_17 1_555 1_555
Co3_9 O4_9 1_555 1_555
C6_17 C7_17 1_555 1_555
C20_16 H13_16 1_555 1_555
C21_16 C20_16 1_555 1_555
H14_16 C21_16 1_555 1_555
N3_9 C19_17 1_555 1_555
N4_16 C19_17 1_555 1_555
Co2_5 N3_9 1_555 1_555
C20_16 N3_9 1_555 1_555
C21_16 N4_16 1_555 1_555
C1_18 C2_18 1_555 1_555
C2_18 C3_18 1_555 1_555
C3_18 H1_18 1_555 1_555
C4_18 C3_18 1_555 1_555
H2_18 C4_18 1_555 1_555
C5_18 C4_18 1_555 1_555
C6_18 C5_18 1_555 1_555
H3_18 C6_18 1_555 1_555
C7_18 C2_18 1_555 1_555
H4_18 C7_18 1_555 1_555
C8_18 C5_18 1_555 1_555
C9_18 H5_18 1_555 1_555
C10_17 C11_17 1_555 1_555
C11_17 H6_17 1_555 1_555
C12_17 C11_17 1_555 1_555
H7_17 C12_17 1_555 1_555
C13_17 C10_17 1_555 1_555
H8_17 C13_17 1_555 1_555
C14_17 C13_17 1_555 1_555
H9_17 C14_17 1_555 1_555
C15_17 C12_17 1_555 1_555
C16_17 C17_17 1_555 1_555
C17_17 H10_17 1_555 1_555
C18_17 C16_17 1_555 1_555
H11_17 C18_17 1_555 1_555
C19_18 H12_17 1_555 1_555
C20_17 H13_17 1_555 1_555
C21_17 C20_17 1_555 1_555
H14_17 C21_17 1_555 1_555
C22_17 C23_17 1_555 1_555
C23_17 C18_17 1_555 1_555
H15_17 C23_17 1_555 1_555
C24_17 C17_17 1_555 1_555
H16_17 C24_17 1_555 1_555
Co2_5 N1_18 1_555 1_555
N1_18 C9_18 1_555 1_555
N2_18 C9_18 1_555 1_555
N5_9 C19_18 1_555 1_555
N4_17 C19_18 1_555 1_555
O1_18 C1_18 1_555 1_555
O2_18 C1_18 1_555 1_555
O3_18 C8_18 1_555 1_555
O4_10 C8_18 1_555 1_555
O5_17 C15_17 1_555 1_555
C25_18 N2_18 1_555 1_555
H17_18 C25_18 1_555 1_555
C26_18 N1_18 1_555 1_555
H18_18 C26_18 1_555 1_555
Co3_10 O4_10 1_555 1_555
O6_10 Co2_5 1_555 1_555
C6_18 C7_18 1_555 1_555
C10_17 N2_18 1_555 1_555
C14_17 C15_17 1_555 1_555
C16_17 O5_17 1_555 1_555
C20_17 N5_9 1_555 1_555
C21_17 N4_17 1_555 1_555
C22_17 C24_17 1_555 1_555
C22_17 N4_17 1_555 1_555
Co2_5 O1_18 1_555 1_555
Co2_5 O2_18 1_555 1_555
C25_18 C26_18 1_555 1_555
C19_19 H12_18 1_555 1_555
H16_18 C24_18 1_555 1_555
N3_10 C19_19 1_555 1_555
Co3_10 N3_10 1_555 1_555
C13_18 C10_18 1_555 1_555
H8_18 C13_18 1_555 1_555
C14_18 C13_18 1_555 1_555
H9_18 C14_18 1_555 1_555
C16_18 C17_18 1_555 1_555
C17_18 H10_19 1_555 1_555
C18_18 C16_18 1_555 1_555
H11_18 C18_18 1_555 1_555
C19_20 H12_19 1_555 1_555
C20_18 H13_18 1_555 1_555
C21_18 C20_18 1_555 1_555
H14_18 C21_18 1_555 1_555
C22_18 C23_18 1_555 1_555
C23_18 C18_18 1_555 1_555
H15_18 C23_18 1_555 1_555
C24_19 C17_18 1_555 1_555
H16_19 C24_19 1_555 1_555
N3_11 C19_20 1_555 1_555
N4_18 C19_20 1_555 1_555
O5_18 C15_18 1_555 1_555
C25_19 N2_19 1_555 1_555
H17_19 C25_19 1_555 1_555
H18_19 C26_19 1_555 1_555
Co3_9 N3_11 1_555 1_555
C10_18 N2_19 1_555 1_555
C14_18 C15_18 1_555 1_555
C16_18 O5_18 1_555 1_555
C20_18 N3_11 1_555 1_555
C21_18 N4_18 1_555 1_555
C22_18 C24_19 1_555 1_555
C22_18 N4_18 1_555 1_555
C25_19 C26_19 1_555 1_555
C1_19 C2_19 1_555 1_555
C2_19 C3_19 1_555 1_555
C3_19 H1_19 1_555 1_555
C4_19 C3_19 1_555 1_555
H2_19 C4_19 1_555 1_555
C5_19 C4_19 1_555 1_555
C6_19 C5_19 1_555 1_555
H3_19 C6_19 1_555 1_555
C7_19 C2_19 1_555 1_555
H4_19 C7_19 1_555 1_555
C8_19 C5_19 1_555 1_555
C9_19 H5_19 1_555 1_555
C11_18 H6_18 1_555 1_555
C12_18 C11_18 1_555 1_555
H7_18 C12_18 1_555 1_555
Co3_10 N1_19 1_555 1_555
N1_19 C9_19 1_555 1_555
O1_19 C1_19 1_555 1_555
O2_19 C1_19 1_555 1_555
C6_19 C7_19 1_555 1_555
Co3_10 O1_19 1_555 1_555
Co3_10 O2_19 1_555 1_555
C1_20 C2_20 1_555 1_555
C2_20 C3_20 1_555 1_555
C3_20 H1_20 1_555 1_555
C4_20 C3_20 1_555 1_555
H2_20 C4_20 1_555 1_555
C5_20 C4_20 1_555 1_555
C6_20 C5_20 1_555 1_555
H3_20 C6_20 1_555 1_555
C7_20 C2_20 1_555 1_555
H4_20 C7_20 1_555 1_555
C8_20 C5_20 1_555 1_555
C9_20 H5_20 1_555 1_555
C10_19 C11_19 1_555 1_555
C11_19 H6_19 1_555 1_555
C12_19 C11_19 1_555 1_555
H7_19 C12_19 1_555 1_555
C13_19 C10_19 1_555 1_555
H8_19 C13_19 1_555 1_555
C14_19 C13_19 1_555 1_555
H9_19 C14_19 1_555 1_555
C15_19 C12_19 1_555 1_555
C16_19 C17_19 1_555 1_555
C17_19 H10_20 1_555 1_555
C18_19 C16_19 1_555 1_555
H11_19 C18_19 1_555 1_555
C22_19 C23_19 1_555 1_555
C23_19 C18_19 1_555 1_555
C24_20 C17_19 1_555 1_555
H16_20 C24_20 1_555 1_555
Co3_9 N1_20 1_555 1_555
N1_20 C9_20 1_555 1_555
N2_20 C9_20 1_555 1_555
O1_20 C1_20 1_555 1_555
O2_20 C1_20 1_555 1_555
O3_20 C8_20 1_555 1_555
O6_9 C8_20 1_555 1_555
O5_19 C15_19 1_555 1_555
C25_20 N2_20 1_555 1_555
H17_20 C25_20 1_555 1_555
C26_20 N1_20 1_555 1_555
H18_20 C26_20 1_555 1_555
C6_20 C7_20 1_555 1_555
C10_19 N2_20 1_555 1_555
C14_19 C15_19 1_555 1_555
C16_19 O5_19 1_555 1_555
C22_19 C24_20 1_555 1_555
Co3_9 O1_20 1_555 1_555
Co3_9 O2_20 1_555 1_555
C25_20 C26_20 1_555 1_555
C20_19 H13_19 1_555 1_555
C21_19 C20_19 1_555 1_555
H14_19 C21_19 1_555 1_555
C21_19 N4_19 1_555 1_555
N3_12 C19_21 1_555 1_555
Co2_6 N3_12 1_555 1_555
C3_21 H1_21 1_555 1_555
C4_21 C3_21 1_555 1_555
H2_21 C4_21 1_555 1_555
C5_21 C4_21 1_555 1_555
C8_21 C5_21 1_555 1_555
O3_21 C8_21 1_555 1_555
O4_11 C8_21 1_555 1_555
Co3_11 O4_11 1_555 1_555
C3_22 H1_22 1_555 1_555
C4_22 C3_22 1_555 1_555
H2_22 C4_22 1_555 1_555
C5_22 C4_22 1_555 1_555
C8_22 C5_22 1_555 1_555
O3_22 C8_22 1_555 1_555
O4_12 C8_22 1_555 1_555
Co3_12 O4_12 1_555 1_555
C1_21 C2_21 1_555 1_555
C2_21 C3_23 1_555 1_555
C3_23 H1_23 1_555 1_555
C4_23 C3_23 1_555 1_555
H2_23 C4_23 1_555 1_555
C5_23 C4_23 1_555 1_555
C6_21 C5_23 1_555 1_555
H3_21 C6_21 1_555 1_555
C7_21 C2_21 1_555 1_555
H4_21 C7_21 1_555 1_555
C8_23 C5_23 1_555 1_555
C9_21 H5_21 1_555 1_555
C11_20 H6_20 1_555 1_555
C12_20 C11_20 1_555 1_555
H7_20 C12_20 1_555 1_555
Co2_6 N1_21 1_555 1_555
N1_21 C9_21 1_555 1_555
O1_21 C1_21 1_555 1_555
O2_21 C1_21 1_555 1_555
O3_23 C8_23 1_555 1_555
O4_13 C8_23 1_555 1_555
Co3_13 O4_13 1_555 1_555
O6_11 Co2_6 1_555 1_555
C6_21 C7_21 1_555 1_555
Co2_6 O1_21 1_555 1_555
Co2_6 O2_21 1_555 1_555
C9_22 H5_22 1_555 1_555
Co3_11 N1_22 1_555 1_555
N1_22 C9_22 1_555 1_555
N2_21 C9_22 1_555 1_555
O1_22 C1_22 1_555 1_555
O2_22 C1_22 1_555 1_555
C25_21 N2_21 1_555 1_555
H17_21 C25_21 1_555 1_555
C26_21 N1_22 1_555 1_555
H18_21 C26_21 1_555 1_555
N5_10 Co3_11 1_555 1_555
Co3_11 O1_22 1_555 1_555
Co3_11 O2_22 1_555 1_555
C25_21 C26_21 1_555 1_555
C1_23 C2_22 1_555 1_555
H3_22 C6_22 1_555 1_555
C7_22 C2_22 1_555 1_555
H4_22 C7_22 1_555 1_555
C9_23 H5_23 1_555 1_555
C10_20 C11_21 1_555 1_555
C11_21 H6_21 1_555 1_555
C12_21 C11_21 1_555 1_555
H7_21 C12_21 1_555 1_555
C13_20 C10_20 1_555 1_555
H8_20 C13_20 1_555 1_555
C14_20 C13_20 1_555 1_555
H9_20 C14_20 1_555 1_555
C15_20 C12_21 1_555 1_555
C16_20 C17_20 1_555 1_555
C17_20 H10_21 1_555 1_555
C18_20 C16_20 1_555 1_555
H11_20 C18_20 1_555 1_555
C19_22 H12_21 1_555 1_555
C20_20 H13_20 1_555 1_555
C21_20 C20_20 1_555 1_555
H14_20 C21_20 1_555 1_555
C22_20 C23_20 1_555 1_555
C23_20 C18_20 1_555 1_555
H15_20 C23_20 1_555 1_555
C24_21 C17_20 1_555 1_555
H16_21 C24_21 1_555 1_555
Co3_12 N1_23 1_555 1_555
N1_23 C9_23 1_555 1_555
N2_22 C9_23 1_555 1_555
N3_13 C19_22 1_555 1_555
N4_20 C19_22 1_555 1_555
O1_23 C1_23 1_555 1_555
O2_23 C1_23 1_555 1_555
O5_20 C15_20 1_555 1_555
C25_22 N2_22 1_555 1_555
H17_22 C25_22 1_555 1_555
C26_22 N1_23 1_555 1_555
H18_22 C26_22 1_555 1_555
Co3_13 N3_13 1_555 1_555
N5_11 Co3_12 1_555 1_555
C6_22 C7_22 1_555 1_555
C10_20 N2_22 1_555 1_555
C14_20 C15_20 1_555 1_555
C16_20 O5_20 1_555 1_555
C20_20 N3_13 1_555 1_555
C21_20 N4_20 1_555 1_555
C22_20 C24_21 1_555 1_555
C22_20 N4_20 1_555 1_555
Co3_12 O1_23 1_555 1_555
Co3_12 O2_23 1_555 1_555
C25_22 C26_22 1_555 1_555
C13_21 C10_21 1_555 1_555
H8_21 C13_21 1_555 1_555
C14_21 C13_21 1_555 1_555
H9_21 C14_21 1_555 1_555
C16_21 C17_21 1_555 1_555
C17_21 H10_22 1_555 1_555
C18_21 C16_21 1_555 1_555
H11_21 C18_21 1_555 1_555
C19_23 H12_22 1_555 1_555
C20_21 H13_21 1_555 1_555
C21_21 C20_21 1_555 1_555
H14_21 C21_21 1_555 1_555
C22_21 C23_21 1_555 1_555
C23_21 C18_21 1_555 1_555
H15_21 C23_21 1_555 1_555
C24_22 C17_21 1_555 1_555
H16_22 C24_22 1_555 1_555
N5_11 C19_23 1_555 1_555
N4_21 C19_23 1_555 1_555
O5_21 C15_21 1_555 1_555
C25_23 N2_23 1_555 1_555
H17_23 C25_23 1_555 1_555
H18_23 C26_23 1_555 1_555
C10_21 N2_23 1_555 1_555
C14_21 C15_21 1_555 1_555
C16_21 O5_21 1_555 1_555
C20_21 N5_11 1_555 1_555
C21_21 N4_21 1_555 1_555
C22_21 C24_22 1_555 1_555
C22_21 N4_21 1_555 1_555
C25_23 C26_23 1_555 1_555
C1_24 C2_23 1_555 1_555
C2_23 C3_24 1_555 1_555
C3_24 H1_24 1_555 1_555
C4_24 C3_24 1_555 1_555
H2_24 C4_24 1_555 1_555
C5_24 C4_24 1_555 1_555
C6_23 C5_24 1_555 1_555
H3_23 C6_23 1_555 1_555
C7_23 C2_23 1_555 1_555
H4_23 C7_23 1_555 1_555
C8_24 C5_24 1_555 1_555
C9_24 H5_24 1_555 1_555
C10_22 C11_22 1_555 1_555
C11_22 H6_22 1_555 1_555
C12_22 C11_22 1_555 1_555
H7_22 C12_22 1_555 1_555
C13_22 C10_22 1_555 1_555
H8_22 C13_22 1_555 1_555
C14_22 C13_22 1_555 1_555
H9_22 C14_22 1_555 1_555
C15_22 C12_22 1_555 1_555
C16_22 C17_22 1_555 1_555
C17_22 H10_23 1_555 1_555
C18_22 C16_22 1_555 1_555
H11_22 C18_22 1_555 1_555
C19_24 H12_23 1_555 1_555
C20_22 H13_22 1_555 1_555
C21_22 C20_22 1_555 1_555
H14_22 C21_22 1_555 1_555
C22_22 C23_22 1_555 1_555
C23_22 C18_22 1_555 1_555
H15_22 C23_22 1_555 1_555
C24_23 C17_22 1_555 1_555
H16_23 C24_23 1_555 1_555
Co3_13 N1_24 1_555 1_555
N1_24 C9_24 1_555 1_555
N2_24 C9_24 1_555 1_555
N5_10 C19_24 1_555 1_555
N4_22 C19_24 1_555 1_555
O1_24 C1_24 1_555 1_555
O2_24 C1_24 1_555 1_555
O5_22 C15_22 1_555 1_555
C25_24 N2_24 1_555 1_555
H17_24 C25_24 1_555 1_555
C26_24 N1_24 1_555 1_555
H18_24 C26_24 1_555 1_555
C6_23 C7_23 1_555 1_555
C10_22 N2_24 1_555 1_555
C14_22 C15_22 1_555 1_555
C16_22 O5_22 1_555 1_555
C20_22 N5_10 1_555 1_555
C21_22 N4_22 1_555 1_555
C22_22 C24_23 1_555 1_555
C22_22 N4_22 1_555 1_555
Co3_13 O1_24 1_555 1_555
Co3_13 O2_24 1_555 1_555
C25_24 C26_24 1_555 1_555
C10_23 C11_23 1_555 1_555
C11_23 H6_23 1_555 1_555
C12_23 C11_23 1_555 1_555
H7_23 C12_23 1_555 1_555
C13_23 C10_23 1_555 1_555
H8_23 C13_23 1_555 1_555
C14_23 C13_23 1_555 1_555
H9_23 C14_23 1_555 1_555
C15_23 C12_23 1_555 1_555
C16_23 C17_23 1_555 1_555
C17_23 H10_24 1_555 1_555
C18_23 C16_23 1_555 1_555
H11_23 C18_23 1_555 1_555
C22_23 C23_23 1_555 1_555
C23_23 C18_23 1_555 1_555
C24_24 C17_23 1_555 1_555
H16_24 C24_24 1_555 1_555
O5_23 C15_23 1_555 1_555
C14_23 C15_23 1_555 1_555
C16_23 O5_23 1_555 1_555
C22_23 C24_24 1_555 1_555
C1_25 C2_24 1_555 1_555
C2_24 C3_25 1_555 1_555
C3_25 H1_25 1_555 1_555
C4_25 C3_25 1_555 1_555
H2_25 C4_25 1_555 1_555
C5_25 C4_25 1_555 1_555
C6_24 C5_25 1_555 1_555
H3_24 C6_24 1_555 1_555
C7_24 C2_24 1_555 1_555
H4_24 C7_24 1_555 1_555
C8_25 C5_25 1_555 1_555
C9_25 H5_25 1_555 1_555
Co1_6 N1_25 1_555 1_555
N1_25 C9_25 1_555 1_555
N2_25 C9_25 1_555 1_555
O1_25 C1_25 1_555 1_555
O2_25 C1_25 1_555 1_555
O3_25 C8_25 1_555 1_555
O4_14 C8_25 1_555 1_555
C25_25 N2_25 1_555 1_555
H17_25 C25_25 1_555 1_555
C26_25 N1_25 1_555 1_555
H18_25 C26_25 1_555 1_555
Co3_14 O4_14 1_555 1_555
N5_12 Co1_6 1_555 1_555
O6_12 Co1_6 1_555 1_555
C6_24 C7_24 1_555 1_555
Co1_6 O1_25 1_555 1_555
Co1_6 O2_25 1_555 1_555
C25_25 C26_25 1_555 1_555
H3_25 C6_25 1_555 1_555
C7_25 C2_25 1_555 1_555
H4_25 C7_25 1_555 1_555
C19_25 H12_25 1_555 1_555
H16_25 C24_25 1_555 1_555
N3_14 C19_25 1_555 1_555
Co2_7 N3_14 1_555 1_555
C6_25 C7_25 1_555 1_555
C13_24 C10_24 1_555 1_555
H8_24 C13_24 1_555 1_555
C14_24 C13_24 1_555 1_555
H9_24 C14_24 1_555 1_555
C16_24 C17_24 1_555 1_555
C17_24 H10_26 1_555 1_555
C18_24 C16_24 1_555 1_555
H11_24 C18_24 1_555 1_555
C19_26 H12_26 1_555 1_555
C20_23 H13_23 1_555 1_555
C21_23 C20_23 1_555 1_555
H14_23 C21_23 1_555 1_555
C22_24 C23_24 1_555 1_555
C23_24 C18_24 1_555 1_555
H15_23 C23_24 1_555 1_555
C24_26 C17_24 1_555 1_555
H16_26 C24_26 1_555 1_555
N5_12 C19_26 1_555 1_555
N4_23 C19_26 1_555 1_555
O5_24 C15_24 1_555 1_555
C25_26 N2_26 1_555 1_555
H17_26 C25_26 1_555 1_555
H18_26 C26_26 1_555 1_555
C10_24 N2_26 1_555 1_555
C14_24 C15_24 1_555 1_555
C16_24 O5_24 1_555 1_555
C20_23 N5_12 1_555 1_555
C21_23 N4_23 1_555 1_555
C22_24 C24_26 1_555 1_555
C22_24 N4_23 1_555 1_555
C25_26 C26_26 1_555 1_555
Co3_15 O4_15 1_555 1_555
C1_26 C2_26 1_555 1_555
C2_26 C3_26 1_555 1_555
C3_26 H1_26 1_555 1_555
C4_26 C3_26 1_555 1_555
H2_26 C4_26 1_555 1_555
C5_26 C4_26 1_555 1_555
C6_26 C5_26 1_555 1_555
H3_26 C6_26 1_555 1_555
C7_26 C2_26 1_555 1_555
H4_26 C7_26 1_555 1_555
C8_26 C5_26 1_555 1_555
C9_26 H5_26 1_555 1_555
C11_24 H6_24 1_555 1_555
C12_24 C11_24 1_555 1_555
H7_24 C12_24 1_555 1_555
Co2_7 N1_26 1_555 1_555
N1_26 C9_26 1_555 1_555
O1_26 C1_26 1_555 1_555
O2_26 C1_26 1_555 1_555
O6_13 Co2_7 1_555 1_555
C6_26 C7_26 1_555 1_555
Co2_7 O1_26 1_555 1_555
Co2_7 O2_26 1_555 1_555
C2_27 C3_27 1_555 1_555
C3_27 H1_27 1_555 1_555
C4_27 C3_27 1_555 1_555
H2_27 C4_27 1_555 1_555
C5_27 C4_27 1_555 1_555
C6_27 C5_27 1_555 1_555
H3_27 C6_27 1_555 1_555
C7_27 C2_27 1_555 1_555
H4_27 C7_27 1_555 1_555
C8_27 C5_27 1_555 1_555
O3_27 C8_27 1_555 1_555
O6_12 C8_27 1_555 1_555
C6_27 C7_27 1_555 1_555
C9_27 H5_27 1_555 1_555
Co3_14 N1_27 1_555 1_555
N1_27 C9_27 1_555 1_555
N2_27 C9_27 1_555 1_555
O1_27 C1_27 1_555 1_555
O2_27 C1_27 1_555 1_555
C25_27 N2_27 1_555 1_555
H17_27 C25_27 1_555 1_555
C26_27 N1_27 1_555 1_555
H18_27 C26_27 1_555 1_555
N5_13 Co3_14 1_555 1_555
Co3_14 O1_27 1_555 1_555
Co3_14 O2_27 1_555 1_555
C25_27 C26_27 1_555 1_555
C1_28 C2_28 1_555 1_555
C2_28 C3_28 1_555 1_555
C3_28 H1_28 1_555 1_555
C4_28 C3_28 1_555 1_555
H2_28 C4_28 1_555 1_555
C5_28 C4_28 1_555 1_555
C6_28 C5_28 1_555 1_555
H3_28 C6_28 1_555 1_555
C7_28 C2_28 1_555 1_555
H4_28 C7_28 1_555 1_555
C8_28 C5_28 1_555 1_555
C9_28 H5_28 1_555 1_555
C10_25 C11_25 1_555 1_555
C11_25 H6_25 1_555 1_555
C12_25 C11_25 1_555 1_555
H7_25 C12_25 1_555 1_555
C13_25 C10_25 1_555 1_555
H8_25 C13_25 1_555 1_555
C14_25 C13_25 1_555 1_555
H9_25 C14_25 1_555 1_555
C15_25 C12_25 1_555 1_555
C16_25 C17_25 1_555 1_555
C17_25 H10_27 1_555 1_555
C18_25 C16_25 1_555 1_555
H11_25 C18_25 1_555 1_555
C19_27 H12_27 1_555 1_555
C20_24 H13_24 1_555 1_555
C21_24 C20_24 1_555 1_555
H14_24 C21_24 1_555 1_555
C22_25 C23_25 1_555 1_555
C23_25 C18_25 1_555 1_555
H15_24 C23_25 1_555 1_555
C24_27 C17_25 1_555 1_555
H16_27 C24_27 1_555 1_555
Co3_15 N1_28 1_555 1_555
N1_28 C9_28 1_555 1_555
N2_28 C9_28 1_555 1_555
N5_13 C19_27 1_555 1_555
N4_24 C19_27 1_555 1_555
O1_28 C1_28 1_555 1_555
O2_28 C1_28 1_555 1_555
O3_28 C8_28 1_555 1_555
O6_13 C8_28 1_555 1_555
O5_25 C15_25 1_555 1_555
C25_28 N2_28 1_555 1_555
H17_28 C25_28 1_555 1_555
C26_28 N1_28 1_555 1_555
H18_28 C26_28 1_555 1_555
N5_14 Co3_15 1_555 1_555
C6_28 C7_28 1_555 1_555
C10_25 N2_28 1_555 1_555
C14_25 C15_25 1_555 1_555
C16_25 O5_25 1_555 1_555
C20_24 N5_13 1_555 1_555
C21_24 N4_24 1_555 1_555
C22_25 C24_27 1_555 1_555
C22_25 N4_24 1_555 1_555
Co3_15 O1_28 1_555 1_555
Co3_15 O2_28 1_555 1_555
C25_28 C26_28 1_555 1_555
C20_25 H13_25 1_555 1_555
C21_25 C20_25 1_555 1_555
H14_25 C21_25 1_555 1_555
N5_14 C19_28 1_555 1_555
N4_25 C19_28 1_555 1_555
C20_25 N5_14 1_555 1_555
C21_25 N4_25 1_555 1_555
C1_29 C2_29 1_555 1_555
C2_29 C3_29 1_555 1_555
C3_29 H1_29 1_555 1_555
C4_29 C3_29 1_555 1_555
H2_29 C4_29 1_555 1_555
C5_29 C4_29 1_555 1_555
C6_29 C5_29 1_555 1_555
H3_29 C6_29 1_555 1_555
C7_29 C2_29 1_555 1_555
H4_29 C7_29 1_555 1_555
C8_29 C5_29 1_555 1_555
C9_29 H5_29 1_555 1_555
C10_26 C11_26 1_555 1_555
C11_26 H6_26 1_555 1_555
C12_26 C11_26 1_555 1_555
H7_26 C12_26 1_555 1_555
C13_26 C10_26 1_555 1_555
H8_26 C13_26 1_555 1_555
C14_26 C13_26 1_555 1_555
H9_26 C14_26 1_555 1_555
C15_26 C12_26 1_555 1_555
C16_26 C17_26 1_555 1_555
C17_26 H10_28 1_555 1_555
C18_26 C16_26 1_555 1_555
H11_26 C18_26 1_555 1_555
C19_29 H12_28 1_555 1_555
C20_26 H13_26 1_555 1_555
C21_26 C20_26 1_555 1_555
H14_26 C21_26 1_555 1_555
C22_26 C23_26 1_555 1_555
C23_26 C18_26 1_555 1_555
H15_26 C23_26 1_555 1_555
C24_28 C17_26 1_555 1_555
H16_28 C24_28 1_555 1_555
Co1_7 N1_29 1_555 1_555
N1_29 C9_29 1_555 1_555
N2_29 C9_29 1_555 1_555
N3_15 C19_29 1_555 1_555
N4_26 C19_29 1_555 1_555
O1_29 C1_29 1_555 1_555
O2_29 C1_29 1_555 1_555
O5_26 C15_26 1_555 1_555
C25_29 N2_29 1_555 1_555
H17_29 C25_29 1_555 1_555
C26_29 N1_29 1_555 1_555
H18_29 C26_29 1_555 1_555
Co2_8 N3_15 1_555 1_555
N5_15 Co1_7 1_555 1_555
O6_14 Co1_7 1_555 1_555
C6_29 C7_29 1_555 1_555
C10_26 N2_29 1_555 1_555
C14_26 C15_26 1_555 1_555
C16_26 O5_26 1_555 1_555
C20_26 N3_15 1_555 1_555
C21_26 N4_26 1_555 1_555
C22_26 C24_28 1_555 1_555
C22_26 N4_26 1_555 1_555
Co1_7 O1_29 1_555 1_555
Co1_7 O2_29 1_555 1_555
C25_29 C26_29 1_555 1_555
Co3_16 O4_16 1_555 1_555
C10_27 C11_27 1_555 1_555
C11_27 H6_27 1_555 1_555
C12_27 C11_27 1_555 1_555
H7_27 C12_27 1_555 1_555
C13_27 C10_27 1_555 1_555
H8_27 C13_27 1_555 1_555
C14_27 C13_27 1_555 1_555
H9_27 C14_27 1_555 1_555
C15_27 C12_27 1_555 1_555
C16_27 C17_27 1_555 1_555
C17_27 H10_29 1_555 1_555
C18_27 C16_27 1_555 1_555
H11_27 C18_27 1_555 1_555
C19_30 H12_29 1_555 1_555
C20_27 H13_27 1_555 1_555
C21_27 C20_27 1_555 1_555
H14_27 C21_27 1_555 1_555
C22_27 C23_27 1_555 1_555
C23_27 C18_27 1_555 1_555
H15_27 C23_27 1_555 1_555
C24_29 C17_27 1_555 1_555
H16_29 C24_29 1_555 1_555
N5_15 C19_30 1_555 1_555
N4_27 C19_30 1_555 1_555
O5_27 C15_27 1_555 1_555
C14_27 C15_27 1_555 1_555
C16_27 O5_27 1_555 1_555
C20_27 N5_15 1_555 1_555
C21_27 N4_27 1_555 1_555
C22_27 C24_29 1_555 1_555
C22_27 N4_27 1_555 1_555
C9_30 H5_30 1_555 1_555
C10_28 C11_28 1_555 1_555
C11_28 H6_28 1_555 1_555
C12_28 C11_28 1_555 1_555
H7_28 C12_28 1_555 1_555
C13_28 C10_28 1_555 1_555
H8_28 C13_28 1_555 1_555
C14_28 C13_28 1_555 1_555
H9_28 C14_28 1_555 1_555
C15_28 C12_28 1_555 1_555
C16_28 C17_28 1_555 1_555
C18_28 C16_28 1_555 1_555
H11_28 C18_28 1_555 1_555
C20_28 H13_28 1_555 1_555
C21_28 C20_28 1_555 1_555
H14_28 C21_28 1_555 1_555
C22_28 C23_28 1_555 1_555
C23_28 C18_28 1_555 1_555
H15_28 C23_28 1_555 1_555
Co2_8 N1_30 1_555 1_555
N1_30 C9_30 1_555 1_555
N2_30 C9_30 1_555 1_555
O1_30 C1_30 1_555 1_555
O2_30 C1_30 1_555 1_555
O5_28 C15_28 1_555 1_555
C25_30 N2_30 1_555 1_555
H17_30 C25_30 1_555 1_555
C26_30 N1_30 1_555 1_555
H18_30 C26_30 1_555 1_555
O6_15 Co2_8 1_555 1_555
C10_28 N2_30 1_555 1_555
C14_28 C15_28 1_555 1_555
C16_28 O5_28 1_555 1_555
C21_28 N4_28 1_555 1_555
C22_28 N4_28 1_555 1_555
Co2_8 O1_30 1_555 1_555
Co2_8 O2_30 1_555 1_555
C25_30 C26_30 1_555 1_555
N3_16 C19_31 1_555 1_555
Co3_16 N3_16 1_555 1_555
C1_31 C2_30 1_555 1_555
C2_30 C3_30 1_555 1_555
C3_30 H1_30 1_555 1_555
C4_30 C3_30 1_555 1_555
H2_30 C4_30 1_555 1_555
C5_30 C4_30 1_555 1_555
C6_30 C5_30 1_555 1_555
H3_30 C6_30 1_555 1_555
C7_30 C2_30 1_555 1_555
H4_30 C7_30 1_555 1_555
C8_30 C5_30 1_555 1_555
C9_31 H5_31 1_555 1_555
C11_29 H6_29 1_555 1_555
C12_29 C11_29 1_555 1_555
H7_29 C12_29 1_555 1_555
Co3_16 N1_31 1_555 1_555
N1_31 C9_31 1_555 1_555
O1_31 C1_31 1_555 1_555
O2_31 C1_31 1_555 1_555
O3_30 C8_30 1_555 1_555
O6_14 C8_30 1_555 1_555
C6_30 C7_30 1_555 1_555
Co3_16 O1_31 1_555 1_555
Co3_16 O2_31 1_555 1_555
C3_31 H1_31 1_555 1_555
C4_31 C3_31 1_555 1_555
H2_31 C4_31 1_555 1_555
C5_31 C4_31 1_555 1_555
C8_31 C5_31 1_555 1_555
O3_31 C8_31 1_555 1_555
O6_15 C8_31 1_555 1_555
C1_32 C2_31 1_555 1_555
H3_31 C6_31 1_555 1_555
C7_31 C2_31 1_555 1_555
H4_31 C7_31 1_555 1_555
C9_32 H5_32 1_555 1_555
Co1_8 N1_32 1_555 1_555
N1_32 C9_32 1_555 1_555
N2_31 C9_32 1_555 1_555
O1_32 C1_32 1_555 1_555
O2_32 C1_32 1_555 1_555
C25_31 N2_31 1_555 1_555
H17_31 C25_31 1_555 1_555
C26_31 N1_32 1_555 1_555
H18_31 C26_31 1_555 1_555
N5_16 Co1_8 1_555 1_555
O6_16 Co1_8 1_555 1_555
C6_31 C7_31 1_555 1_555
Co1_8 O1_32 1_555 1_555
Co1_8 O2_32 1_555 1_555
C25_31 C26_31 1_555 1_555
C13_29 C10_29 1_555 1_555
H8_29 C13_29 1_555 1_555
C14_29 C13_29 1_555 1_555
H9_29 C14_29 1_555 1_555
C16_29 C17_29 1_555 1_555
C17_29 H10_30 1_555 1_555
C18_29 C16_29 1_555 1_555
H11_29 C18_29 1_555 1_555
C19_32 H12_30 1_555 1_555
C20_29 H13_29 1_555 1_555
C21_29 C20_29 1_555 1_555
H14_29 C21_29 1_555 1_555
C22_29 C23_29 1_555 1_555
C23_29 C18_29 1_555 1_555
H15_29 C23_29 1_555 1_555
C24_30 C17_29 1_555 1_555
H16_30 C24_30 1_555 1_555
N5_16 C19_32 1_555 1_555
N4_29 C19_32 1_555 1_555
O5_29 C15_29 1_555 1_555
C25_32 N2_32 1_555 1_555
H17_32 C25_32 1_555 1_555
H18_32 C26_32 1_555 1_555
C10_29 N2_32 1_555 1_555
C14_29 C15_29 1_555 1_555
C16_29 O5_29 1_555 1_555
C20_29 N5_16 1_555 1_555
C21_29 N4_29 1_555 1_555
C22_29 C24_30 1_555 1_555
C22_29 N4_29 1_555 1_555
C25_32 C26_32 1_555 1_555
C3_32 H1_32 1_555 1_555
C4_32 C3_32 1_555 1_555
H2_32 C4_32 1_555 1_555
C5_32 C4_32 1_555 1_555
C8_32 C5_32 1_555 1_555
O3_32 C8_32 1_555 1_555
O6_16 C8_32 1_555 1_555
H16_31 C24_31 1_555 1_555
C10_30 C11_30 1_555 1_555
C11_30 H6_30 1_555 1_555
C12_30 C11_30 1_555 1_555
H7_30 C12_30 1_555 1_555
C13_30 C10_30 1_555 1_555
H8_30 C13_30 1_555 1_555
C14_30 C13_30 1_555 1_555
H9_30 C14_30 1_555 1_555
C15_30 C12_30 1_555 1_555
C16_30 C17_30 1_555 1_555
C18_30 C16_30 1_555 1_555
H11_30 C18_30 1_555 1_555
C22_30 C23_30 1_555 1_555
C23_30 C18_30 1_555 1_555
O5_30 C15_30 1_555 1_555
C14_30 C15_30 1_555 1_555
C16_30 O5_30 1_555 1_555
C20_30 H13_30 1_555 1_555
C21_30 C20_30 1_555 1_555
H14_30 C21_30 1_555 1_555
C21_30 N4_30 1_555 1_555
C10_31 C11_31 1_555 1_555
C11_31 H6_31 1_555 1_555
C12_31 C11_31 1_555 1_555
H7_31 C12_31 1_555 1_555
C13_31 C10_31 1_555 1_555
H8_31 C13_31 1_555 1_555
C14_31 C13_31 1_555 1_555
H9_31 C14_31 1_555 1_555
C15_31 C12_31 1_555 1_555
C16_31 C17_31 1_555 1_555
C18_31 C16_31 1_555 1_555
H11_31 C18_31 1_555 1_555
C20_31 H13_31 1_555 1_555
C21_31 C20_31 1_555 1_555
H14_31 C21_31 1_555 1_555
C22_31 C23_31 1_555 1_555
C23_31 C18_31 1_555 1_555
H15_31 C23_31 1_555 1_555
O5_31 C15_31 1_555 1_555
C14_31 C15_31 1_555 1_555
C16_31 O5_31 1_555 1_555
C21_31 N4_31 1_555 1_555
C22_31 N4_31 1_555 1_555
H3_32 C6_32 1_555 1_555
C7_32 C2_32 1_555 1_555
H4_32 C7_32 1_555 1_555
C6_32 C7_32 1_555 1_555
C20_32 H13_32 1_555 1_555
C21_32 C20_32 1_555 1_555
H14_32 C21_32 1_555 1_555
C21_32 N4_32 1_555 1_555
C10_32 C11_32 1_555 1_555
C11_32 H6_32 1_555 1_555
C12_32 C11_32 1_555 1_555
H7_32 C12_32 1_555 1_555
C13_32 C10_32 1_555 1_555
H8_32 C13_32 1_555 1_555
C14_32 C13_32 1_555 1_555
H9_32 C14_32 1_555 1_555
C15_32 C12_32 1_555 1_555
C16_32 C17_32 1_555 1_555
C17_32 H10_32 1_555 1_555
C18_32 C16_32 1_555 1_555
H11_32 C18_32 1_555 1_555
C22_32 C23_32 1_555 1_555
C23_32 C18_32 1_555 1_555
C24_32 C17_32 1_555 1_555
H16_32 C24_32 1_555 1_555
O5_32 C15_32 1_555 1_555
C14_32 C15_32 1_555 1_555
C16_32 O5_32 1_555 1_555
C22_32 C24_32 1_555 1_555

#END
