
###############################################################################
#
# This file contains modified crystal structure data generated from the
# MOF subset of the Cambridge Structural Database (CSD) v543 
# hosted by the Cambridge Crystallographic Data Centre (CCDC).
#
# This work is licensed under the Creative Commons
# Attribution-NonCommercial-ShareAlike 4.0 International License.
# To view a copy of this license, visit
# http://creativecommons.org/licenses/by-nc-sa/4.0/
# or send a letter to
# Creative Commons, PO Box 1866, Mountain View, CA 94042, USA.
#
# CIF created using the CSD Python API on 29 September 2022
# The structure has been converted into the P1 space group
# The structure has a 3D framework
# The original CSD entry OKIPUU is in the tetragonal crystal system
# The framework has been calculated to contain at least 10.0% void space
# The void calculation uses a probe of radius 1.32A, grid spacing 0.4
#
###############################################################################

data_OKIPUU
_chemical_formula_moiety         '(C832 H576 Cd32 N128 O160)n'
_symmetry_cell_setting           triclinic
_symmetry_space_group_name_H-M   'P 1'
_symmetry_Int_Tables_number      1
_space_group_name_Hall           'P 1'
loop_
_symmetry_equiv_pos_site_id
_symmetry_equiv_pos_as_xyz
1 x,y,z
_cell_length_a                   18.903(3)
_cell_length_b                   18.903(3)
_cell_length_c                   62.293(9)
_cell_angle_alpha                90
_cell_angle_beta                 90
_cell_angle_gamma                90
_cell_volume                     22258.7
loop_
_atom_site_label
_atom_site_type_symbol
_atom_site_fract_x
_atom_site_fract_y
_atom_site_fract_z
H3 H 0.4629 0.0126 0.3468
C4 C 0.5434(2) 0.0316(2) 0.38261(6)
C5 C 0.6050(3) 0.0324(3) 0.39383(7)
C6 C 0.6208(3) 0.0921(3) 0.40630(8)
H5 H 0.6629 0.0939 0.4140
C7 C 0.5753(3) 0.1468(4) 0.40716(7)
C8 C 0.5105(3) 0.1436(4) 0.39678(8)
H6 H 0.4777 0.1799 0.3984
C9 C 0.4954(2) 0.0852(3) 0.38397(7)
H7 H 0.4530 0.0828 0.3764
C10 C 0.6023(3) 0.1959(3) 0.54092(8)
H8 H 0.5990 0.1712 0.5538
C11 C 0.5920(3) 0.1685(3) 0.52132(7)
H9 H 0.5811 0.1217 0.5182
C12 C 0.6201(3) 0.2774(2) 0.51847(7)
H10 H 0.6337 0.3205 0.5126
C13 C 0.5988(2) 0.2170(2) 0.48412(7)
C14 C 0.5568(3) 0.1675(3) 0.47442(8)
H11 H 0.5294 0.1372 0.4827
C15 C 0.5550(4) 0.1623(3) 0.45218(8)
H12 H 0.5269 0.1281 0.4456
C16 C 0.5946(3) 0.2075(2) 0.44002(7)
C17 C 0.6353(3) 0.2570(3) 0.44974(7)
H13 H 0.6616 0.2881 0.4414
C18 C 0.6384(3) 0.2622(2) 0.47163(7)
H14 H 0.6671 0.2961 0.4780
C19 C 0.3275(2) 0.0063(2) 0.31827(8)
C20 C 0.2875(2) 0.0739(2) 0.31789(8)
C21 C 0.2440(2) 0.0938(3) 0.33470(8)
H15 H 0.2402 0.0645 0.3466
C22 C 0.2929(2) 0.1183(2) 0.30061(9)
H16 H 0.3218 0.1058 0.2891
C23 C 0.1707(2) 0.2680(2) 0.31579(6)
C24 C 0.2114(2) 0.2006(2) 0.31656(6)
C25 C 0.2560(2) 0.1816(2) 0.30002(7)
H17 H 0.2614 0.2116 0.2883
C26 C 0.20590(16) 0.15677(17) 0.33409(5)
H18 H 0.1768 0.1692 0.3455
N3 N 0.6181(2) 0.2654(2) 0.53885(5)
N4 N 0.6005(2) 0.2217(2) 0.50666(6)
O3 O 0.12452(15) 0.27902(16) 0.32978(4)
O4 O 0.18172(16) 0.31048(17) 0.30117(5)
O5 O 0.5920(3) 0.20855(18) 0.41793(5)
Cd2 Cd 0.636827(16) 0.343190(15) 0.565301(4)
Cd3 Cd 0.093190(15) 0.386827(16) 0.315301(4)
C1 C 0.5242(2) 0.8674(3) 0.35476(7)
H1 H 0.5316 0.8195 0.3522
C2 C 0.5508(2) 0.9032(3) 0.37098(7)
H2 H 0.5797 0.8853 0.3818
C3 C 0.4868(2) 0.9727(3) 0.35159(7)
H4 H 0.6360 0.9943 0.3932
Cd1 Cd 0.406810(15) 0.886827(16) 0.315301(4)
N1 N 0.4841(2) 0.91110(18) 0.34225(5)
N2 N 0.52818(16) 0.97143(18) 0.36899(5)
O1 O 0.32417(15) 0.96786(17) 0.33434(6)
O2 O 0.36533(16) 0.99020(18) 0.30235(6)
N5 N 0.4846(2) 0.8681(2) 0.28885(5)
O6 O 0.37548(15) 0.77902(16) 0.32978(4)
O7 O 0.31828(16) 0.81048(17) 0.30117(5)
C1_2 C 0.3826(3) 0.2742(2) 0.60476(7)
H1_2 H 0.4305 0.2816 0.6022
C2_2 C 0.3468(3) 0.3008(2) 0.62098(7)
H2_2 H 0.3647 0.3297 0.6318
C3_2 C 0.2773(3) 0.2368(2) 0.60159(7)
H3_2 H 0.2374 0.2129 0.5968
C4_2 C 0.2184(2) 0.2934(2) 0.63261(6)
C5_2 C 0.2176(3) 0.3550(3) 0.64383(7)
H4_2 H 0.2557 0.3860 0.6432
C6_2 C 0.1579(3) 0.3708(3) 0.65630(8)
H5_2 H 0.1561 0.4129 0.6640
C7_2 C 0.1032(4) 0.3253(3) 0.65716(7)
C8_2 C 0.1064(4) 0.2605(3) 0.64678(8)
H6_2 H 0.0701 0.2277 0.6484
C9_2 C 0.1648(3) 0.2454(2) 0.63397(7)
H7_2 H 0.1672 0.2030 0.6264
C10_2 C 0.0541(3) 0.3523(3) 0.79092(8)
H8_2 H 0.0788 0.3490 0.8038
C11_2 C 0.0815(3) 0.3420(3) 0.77132(7)
H9_2 H 0.1283 0.3311 0.7682
C13_2 C 0.0330(2) 0.3488(2) 0.73412(7)
C14_2 C 0.0825(3) 0.3068(3) 0.72442(8)
H11_2 H 0.1128 0.2794 0.7327
C15_2 C 0.0877(3) 0.3050(4) 0.70218(8)
H12_2 H 0.1219 0.2769 0.6956
C16_2 C 0.0425(2) 0.3446(3) 0.69002(7)
C19_2 C 0.2437(2) 0.0775(2) 0.56827(8)
C20_2 C 0.1761(2) 0.0375(2) 0.56789(8)
C22_2 C 0.1317(2) 0.0429(2) 0.55061(9)
H16_2 H 0.1442 0.0718 0.5391
C25_2 C 0.0684(2) 0.0060(2) 0.55002(7)
H17_2 H 0.0384 0.0114 0.5383
Cd1_2 Cd 0.363173(16) 0.156810(15) 0.565301(4)
N1_2 N 0.33890(18) 0.2341(2) 0.59225(5)
N2_2 N 0.27857(18) 0.27818(16) 0.61899(5)
N4_2 N 0.0283(2) 0.3505(2) 0.75666(6)
O1_2 O 0.28214(17) 0.07417(15) 0.58434(6)
O2_2 O 0.25980(18) 0.11533(16) 0.55235(6)
O5_2 O 0.04145(18) 0.3420(3) 0.66793(5)
N5_2 N 0.3819(2) 0.2346(2) 0.53885(5)
O6_2 O 0.47098(16) 0.12548(15) 0.57978(4)
O7_2 O 0.43952(17) 0.06828(16) 0.55117(5)
C12_2 C 0.9726(2) 0.3701(3) 0.76847(7)
H10_2 H 0.9295 0.3837 0.7626
C17_2 C 0.9930(3) 0.3853(3) 0.69974(7)
H13_2 H 0.9619 0.4116 0.6914
C18_2 C 0.9878(2) 0.3884(3) 0.72163(7)
H14_2 H 0.9539 0.4171 0.7280
N3_2 N 0.9846(2) 0.3681(2) 0.78885(5)
Cd2_2 Cd 0.906810(15) 0.386827(16) 0.815301(4)
C23_2 C 0.9820(2) 0.9207(2) 0.56579(6)
O3_2 O 0.97098(16) 0.87452(15) 0.57978(4)
O4_2 O 0.93952(17) 0.93172(16) 0.55117(5)
Cd3_2 Cd 0.863173(16) 0.843190(15) 0.565301(4)
C1_3 C 0.4758(2) 0.6326(3) 0.35476(7)
H1_3 H 0.4684 0.6805 0.3522
C2_3 C 0.4492(2) 0.5968(3) 0.37098(7)
H2_3 H 0.4203 0.6147 0.3818
C3_3 C 0.5132(2) 0.5273(3) 0.35159(7)
H3_3 H 0.5371 0.4874 0.3468
C4_3 C 0.4566(2) 0.4684(2) 0.38261(6)
C5_3 C 0.3950(3) 0.4676(3) 0.39383(7)
H4_3 H 0.3640 0.5057 0.3932
C6_3 C 0.3792(3) 0.4079(3) 0.40630(8)
H5_3 H 0.3371 0.4061 0.4140
C7_3 C 0.4247(3) 0.3532(4) 0.40716(7)
C8_3 C 0.4895(3) 0.3564(4) 0.39678(8)
H6_3 H 0.5223 0.3201 0.3984
C9_3 C 0.5046(2) 0.4148(3) 0.38397(7)
H7_3 H 0.5470 0.4172 0.3764
C10_3 C 0.3977(3) 0.3041(3) 0.54092(8)
H8_3 H 0.4010 0.3288 0.5538
C11_3 C 0.4080(3) 0.3315(3) 0.52132(7)
H9_3 H 0.4189 0.3783 0.5182
C12_3 C 0.3799(3) 0.2226(2) 0.51847(7)
H10_3 H 0.3663 0.1795 0.5126
C13_3 C 0.4012(2) 0.2830(2) 0.48412(7)
C14_3 C 0.4432(3) 0.3325(3) 0.47442(8)
H11_3 H 0.4706 0.3628 0.4827
C15_3 C 0.4450(4) 0.3377(3) 0.45218(8)
H12_3 H 0.4731 0.3719 0.4456
C16_3 C 0.4054(3) 0.2925(2) 0.44002(7)
C17_3 C 0.3647(3) 0.2430(3) 0.44974(7)
H13_3 H 0.3384 0.2119 0.4414
C18_3 C 0.3616(3) 0.2378(2) 0.47163(7)
H14_3 H 0.3329 0.2039 0.4780
C19_3 C 0.6725(2) 0.4937(2) 0.31827(8)
C20_3 C 0.7125(2) 0.4261(2) 0.31789(8)
C21_2 C 0.7560(2) 0.4062(3) 0.33470(8)
H15_2 H 0.7598 0.4355 0.3466
C22_3 C 0.7071(2) 0.3817(2) 0.30061(9)
H16_3 H 0.6782 0.3942 0.2891
C23_3 C 0.8293(2) 0.2320(2) 0.31579(6)
C24_2 C 0.7886(2) 0.2994(2) 0.31656(6)
C25_3 C 0.7440(2) 0.3184(2) 0.30002(7)
H17_3 H 0.7386 0.2884 0.2883
C26_2 C 0.79410(16) 0.34323(17) 0.33409(5)
H18_2 H 0.8232 0.3308 0.3455
Cd1_3 Cd 0.593190(15) 0.613173(16) 0.315301(4)
N1_3 N 0.5159(2) 0.58890(18) 0.34225(5)
N2_3 N 0.47182(16) 0.52857(18) 0.36899(5)
N4_3 N 0.3995(2) 0.2783(2) 0.50666(6)
O1_3 O 0.67583(15) 0.53214(17) 0.33434(6)
O2_3 O 0.63467(16) 0.50980(18) 0.30235(6)
O3_3 O 0.87548(15) 0.22098(16) 0.32978(4)
O4_3 O 0.81828(16) 0.18952(17) 0.30117(5)
O5_3 O 0.4080(3) 0.29145(18) 0.41793(5)
Cd3_3 Cd 0.906810(15) 0.113173(16) 0.315301(4)
N5_3 N 0.5154(2) 0.6319(2) 0.28885(5)
O6_3 O 0.62452(15) 0.72098(16) 0.32978(4)
O7_3 O 0.68172(16) 0.68952(17) 0.30117(5)
C1_4 C 0.1174(3) 0.7258(2) 0.10476(7)
H1_4 H 0.0695 0.7184 0.1022
C2_4 C 0.1532(3) 0.6992(2) 0.12098(7)
H2_4 H 0.1353 0.6703 0.1318
C3_4 C 0.2227(3) 0.7632(2) 0.10159(7)
H3_4 H 0.2626 0.7871 0.0968
C4_4 C 0.2816(2) 0.7066(2) 0.13261(6)
C5_4 C 0.2824(3) 0.6450(3) 0.14383(7)
H4_4 H 0.2443 0.6140 0.1432
C6_4 C 0.3421(3) 0.6292(3) 0.15630(8)
H5_4 H 0.3439 0.5871 0.1640
C7_4 C 0.3968(4) 0.6747(3) 0.15716(7)
C8_4 C 0.3936(4) 0.7395(3) 0.14678(8)
H6_4 H 0.4299 0.7723 0.1484
C9_4 C 0.3352(3) 0.7546(2) 0.13397(7)
H7_4 H 0.3328 0.7970 0.1264
C10_4 C 0.4459(3) 0.6477(3) 0.29092(8)
H8_4 H 0.4212 0.6510 0.3038
C11_4 C 0.4185(3) 0.6580(3) 0.27132(7)
H9_4 H 0.3717 0.6689 0.2682
C12_4 C 0.5274(2) 0.6299(3) 0.26847(7)
H10_4 H 0.5705 0.6163 0.2626
C13_4 C 0.4670(2) 0.6512(2) 0.23412(7)
C14_4 C 0.4175(3) 0.6932(3) 0.22442(8)
H11_4 H 0.3872 0.7206 0.2327
C15_4 C 0.4123(3) 0.6950(4) 0.20218(8)
H12_4 H 0.3781 0.7231 0.1956
C16_4 C 0.4575(2) 0.6554(3) 0.19002(7)
C17_4 C 0.5070(3) 0.6147(3) 0.19974(7)
H13_4 H 0.5381 0.5884 0.1914
C18_4 C 0.5122(2) 0.6116(3) 0.22163(7)
H14_4 H 0.5461 0.5829 0.2280
C19_4 C 0.2563(2) 0.9225(2) 0.06827(8)
C20_4 C 0.3239(2) 0.9625(2) 0.06789(8)
C22_4 C 0.3683(2) 0.9571(2) 0.05061(9)
H16_4 H 0.3558 0.9282 0.0391
C25_4 C 0.4316(2) 0.9940(2) 0.05002(7)
H17_4 H 0.4616 0.9886 0.0383
Cd1_4 Cd 0.136827(16) 0.843190(15) 0.065301(4)
N1_4 N 0.16110(18) 0.7659(2) 0.09225(5)
N2_4 N 0.22143(18) 0.72182(16) 0.11899(5)
N4_4 N 0.4717(2) 0.6495(2) 0.25666(6)
O1_4 O 0.21786(17) 0.92583(15) 0.08434(6)
O2_4 O 0.24020(18) 0.88467(16) 0.05235(6)
O5_4 O 0.45855(18) 0.6580(3) 0.16793(5)
N5_4 N 0.1181(2) 0.7654(2) 0.03885(5)
O6_4 O 0.02902(16) 0.87452(15) 0.07978(4)
O7_4 O 0.06048(17) 0.93172(16) 0.05117(5)
C10_5 C 0.1023(3) 0.6959(3) 0.04092(8)
H8_5 H 0.0990 0.6712 0.0538
C11_5 C 0.0920(3) 0.6685(3) 0.02132(7)
H9_5 H 0.0811 0.6217 0.0182
C12_5 C 0.1201(3) 0.7774(2) 0.01847(7)
H10_5 H 0.1337 0.8205 0.0126
N4_5 N 0.1005(2) 0.7217(2) 0.00666(6)
C3_5 C 0.9868(2) 0.4727(3) 0.85159(7)
H3_5 H 0.9629 0.5126 0.8468
H6_5 H 0.9777 0.6799 0.8984
C9_5 C 0.9954(2) 0.5852(3) 0.88397(7)
H7_5 H 0.9530 0.5828 0.8764
C19_5 C 0.8275(2) 0.5063(2) 0.81827(8)
C20_5 C 0.7875(2) 0.5739(2) 0.81789(8)
C21_3 C 0.7440(2) 0.5938(3) 0.83470(8)
H15_3 H 0.7402 0.5645 0.8466
C22_5 C 0.7929(2) 0.6183(2) 0.80061(9)
H16_5 H 0.8218 0.6058 0.7891
C23_4 C 0.6707(2) 0.7680(2) 0.81579(6)
C24_3 C 0.7114(2) 0.7006(2) 0.81656(6)
C25_5 C 0.7560(2) 0.6816(2) 0.80002(7)
H17_5 H 0.7614 0.7116 0.7883
C26_3 C 0.70590(16) 0.65677(17) 0.83409(5)
H18_3 H 0.6768 0.6692 0.8455
N1_5 N 0.9841(2) 0.41110(18) 0.84225(5)
O1_5 O 0.82417(15) 0.46786(17) 0.83434(6)
O2_5 O 0.86533(16) 0.49020(18) 0.80235(6)
O3_4 O 0.62452(15) 0.77902(16) 0.82978(4)
O4_4 O 0.68172(16) 0.81048(17) 0.80117(5)
Cd3_4 Cd 0.593190(15) 0.886827(16) 0.815301(4)
O6_5 O 0.87548(15) 0.27902(16) 0.82978(4)
O7_5 O 0.81828(16) 0.31048(17) 0.80117(5)
C1_5 C 0.8826(3) 0.7742(2) 0.10476(7)
H1_5 H 0.9305 0.7816 0.1022
C2_5 C 0.8468(3) 0.8008(2) 0.12098(7)
H2_5 H 0.8647 0.8297 0.1318
C3_6 C 0.7773(3) 0.7368(2) 0.10159(7)
H3_6 H 0.7374 0.7129 0.0968
C4_5 C 0.7184(2) 0.7934(2) 0.13261(6)
C5_5 C 0.7176(3) 0.8550(3) 0.14383(7)
H4_5 H 0.7557 0.8860 0.1432
C6_5 C 0.6579(3) 0.8708(3) 0.15630(8)
H5_5 H 0.6561 0.9129 0.1640
C7_5 C 0.6032(4) 0.8253(3) 0.15716(7)
C8_5 C 0.6064(4) 0.7605(3) 0.14678(8)
H6_6 H 0.5701 0.7277 0.1484
C9_6 C 0.6648(3) 0.7454(2) 0.13397(7)
H7_6 H 0.6672 0.7030 0.1264
C10_6 C 0.5541(3) 0.8523(3) 0.29092(8)
H8_6 H 0.5788 0.8490 0.3038
C11_6 C 0.5815(3) 0.8420(3) 0.27132(7)
H9_6 H 0.6283 0.8311 0.2682
C12_6 C 0.4726(2) 0.8701(3) 0.26847(7)
H10_6 H 0.4295 0.8837 0.2626
C13_5 C 0.5330(2) 0.8488(2) 0.23412(7)
C14_5 C 0.5825(3) 0.8068(3) 0.22442(8)
H11_5 H 0.6128 0.7794 0.2327
C15_5 C 0.5877(3) 0.8050(4) 0.20218(8)
H12_5 H 0.6219 0.7769 0.1956
C16_5 C 0.5425(2) 0.8446(3) 0.19002(7)
C17_5 C 0.4930(3) 0.8853(3) 0.19974(7)
H13_5 H 0.4619 0.9116 0.1914
C18_5 C 0.4878(2) 0.8884(3) 0.22163(7)
H14_5 H 0.4539 0.9171 0.2280
C19_6 C 0.7437(2) 0.5775(2) 0.06827(8)
C20_6 C 0.6761(2) 0.5375(2) 0.06789(8)
C21_4 C 0.6562(3) 0.4940(2) 0.08470(8)
H15_4 H 0.6855 0.4902 0.0966
C22_6 C 0.6317(2) 0.5429(2) 0.05061(9)
H16_6 H 0.6442 0.5718 0.0391
C23_5 C 0.4820(2) 0.4207(2) 0.06579(6)
C24_4 C 0.5494(2) 0.4614(2) 0.06656(6)
C25_6 C 0.5684(2) 0.5060(2) 0.05002(7)
H17_6 H 0.5384 0.5114 0.0383
C26_4 C 0.59323(17) 0.45590(16) 0.08409(5)
H18_4 H 0.5808 0.4268 0.0955
Cd1_5 Cd 0.863173(16) 0.656810(15) 0.065301(4)
N1_6 N 0.83890(18) 0.7341(2) 0.09225(5)
N2_5 N 0.77857(18) 0.77818(16) 0.11899(5)
N4_6 N 0.5283(2) 0.8505(2) 0.25666(6)
O1_6 O 0.78214(17) 0.57417(15) 0.08434(6)
O2_6 O 0.75980(18) 0.61533(16) 0.05235(6)
O3_5 O 0.47098(16) 0.37452(15) 0.07978(4)
O4_5 O 0.43952(17) 0.43172(16) 0.05117(5)
O5_5 O 0.54145(18) 0.8420(3) 0.16793(5)
Cd3_5 Cd 0.363173(16) 0.343190(15) 0.065301(4)
N5_5 N 0.8819(2) 0.7346(2) 0.03885(5)
O6_6 O 0.97098(16) 0.62548(15) 0.07978(4)
O7_6 O 0.93952(17) 0.56828(16) 0.05117(5)
C3_7 C 0.0132(2) 0.0273(3) 0.85159(7)
Cd1_6 Cd 0.093190(15) 0.113173(16) 0.815301(4)
N1_7 N 0.0159(2) 0.08890(18) 0.84225(5)
O1_7 O 0.17583(15) 0.03214(17) 0.83434(6)
O2_7 O 0.13467(16) 0.00980(18) 0.80235(6)
N5_6 N 0.0154(2) 0.1319(2) 0.78885(5)
O6_7 O 0.12452(15) 0.22098(16) 0.82978(4)
O7_7 O 0.18172(16) 0.18952(17) 0.80117(5)
H3_7 H 0.0371 0.9874 0.8468
H6_7 H 0.0223 0.8201 0.8984
C9_7 C 0.0046(2) 0.9148(3) 0.88397(7)
H7_7 H 0.0470 0.9172 0.8764
C19_7 C 0.1725(2) 0.9937(2) 0.81827(8)
C20_7 C 0.2125(2) 0.9261(2) 0.81789(8)
C21_5 C 0.2560(2) 0.9062(3) 0.83470(8)
H15_5 H 0.2598 0.9355 0.8466
C22_7 C 0.2071(2) 0.8817(2) 0.80061(9)
H16_7 H 0.1782 0.8942 0.7891
C23_6 C 0.3293(2) 0.7320(2) 0.81579(6)
C24_5 C 0.2886(2) 0.7994(2) 0.81656(6)
C25_7 C 0.2440(2) 0.8184(2) 0.80002(7)
H17_7 H 0.2386 0.7884 0.7883
C26_5 C 0.29410(16) 0.84323(17) 0.83409(5)
H18_5 H 0.3232 0.8308 0.8455
O3_6 O 0.37548(15) 0.72098(16) 0.82978(4)
O4_6 O 0.31828(16) 0.68952(17) 0.80117(5)
Cd3_6 Cd 0.406810(15) 0.613173(16) 0.815301(4)
C10_7 C 0.8977(3) 0.8041(3) 0.04092(8)
H8_7 H 0.9010 0.8288 0.0538
C11_7 C 0.9080(3) 0.8315(3) 0.02132(7)
H9_7 H 0.9189 0.8783 0.0182
C12_7 C 0.8799(3) 0.7226(2) 0.01847(7)
H10_7 H 0.8663 0.6795 0.0126
N4_7 N 0.8995(2) 0.7783(2) 0.00666(6)
C12_8 C 0.0274(2) 0.1299(3) 0.76847(7)
H10_8 H 0.0705 0.1163 0.7626
C17_6 C 0.0070(3) 0.1147(3) 0.69974(7)
H13_6 H 0.0381 0.0884 0.6914
C18_6 C 0.0122(2) 0.1116(3) 0.72163(7)
H14_6 H 0.0461 0.0829 0.7280
C23_7 C 0.0180(2) 0.5793(2) 0.56579(6)
O3_7 O 0.02902(16) 0.62548(15) 0.57978(4)
O4_7 O 0.06048(17) 0.56828(16) 0.55117(5)
Cd3_7 Cd 0.136827(16) 0.656810(15) 0.565301(4)
C1_6 C 0.6174(3) 0.2258(2) 0.60476(7)
H1_6 H 0.5695 0.2184 0.6022
C2_6 C 0.6532(3) 0.1992(2) 0.62098(7)
H2_6 H 0.6353 0.1703 0.6318
C3_8 C 0.7227(3) 0.2632(2) 0.60159(7)
H3_8 H 0.7626 0.2871 0.5968
C4_6 C 0.7816(2) 0.2066(2) 0.63261(6)
C5_6 C 0.7824(3) 0.1450(3) 0.64383(7)
H4_6 H 0.7443 0.1140 0.6432
C6_6 C 0.8421(3) 0.1292(3) 0.65630(8)
H5_6 H 0.8439 0.0871 0.6640
C7_6 C 0.8968(4) 0.1747(3) 0.65716(7)
C8_6 C 0.8936(4) 0.2395(3) 0.64678(8)
H6_8 H 0.9299 0.2723 0.6484
C9_8 C 0.8352(3) 0.2546(2) 0.63397(7)
H7_8 H 0.8328 0.2970 0.6264
C10_8 C 0.9459(3) 0.1477(3) 0.79092(8)
H8_8 H 0.9212 0.1510 0.8038
C11_8 C 0.9185(3) 0.1580(3) 0.77132(7)
H9_8 H 0.8717 0.1689 0.7682
C13_6 C 0.9670(2) 0.1512(2) 0.73412(7)
C14_6 C 0.9175(3) 0.1932(3) 0.72442(8)
H11_6 H 0.8872 0.2206 0.7327
C15_6 C 0.9123(3) 0.1950(4) 0.70218(8)
H12_6 H 0.8781 0.2231 0.6956
C16_6 C 0.9575(2) 0.1554(3) 0.69002(7)
C19_8 C 0.7563(2) 0.4225(2) 0.56827(8)
C20_8 C 0.8239(2) 0.4625(2) 0.56789(8)
C21_6 C 0.8438(3) 0.5060(2) 0.58470(8)
H15_6 H 0.8145 0.5098 0.5966
C22_8 C 0.8683(2) 0.4571(2) 0.55061(9)
H16_8 H 0.8558 0.4282 0.5391
C24_6 C 0.9506(2) 0.5386(2) 0.56656(6)
C25_8 C 0.9316(2) 0.4940(2) 0.55002(7)
H17_8 H 0.9616 0.4886 0.5383
C26_6 C 0.90677(17) 0.54410(16) 0.58409(5)
H18_6 H 0.9192 0.5732 0.5955
N1_8 N 0.66110(18) 0.2659(2) 0.59225(5)
N2_6 N 0.72143(18) 0.22182(16) 0.61899(5)
N4_8 N 0.9717(2) 0.1495(2) 0.75666(6)
O1_8 O 0.71786(17) 0.42583(15) 0.58434(6)
O2_8 O 0.74020(18) 0.38467(16) 0.55235(6)
O5_6 O 0.95855(18) 0.1580(3) 0.66793(5)
O6_8 O 0.52902(16) 0.37452(15) 0.57978(4)
O7_8 O 0.56048(17) 0.43172(16) 0.55117(5)
C10_9 C 0.3977(3) 0.1959(3) 0.04092(8)
H8_9 H 0.4010 0.1712 0.0538
C11_9 C 0.4080(3) 0.1685(3) 0.02132(7)
H9_9 H 0.4189 0.1217 0.0182
C12_9 C 0.3799(3) 0.2774(2) 0.01847(7)
H10_9 H 0.3663 0.3205 0.0126
N3_3 N 0.3819(2) 0.2654(2) 0.03885(5)
N4_9 N 0.3995(2) 0.2217(2) 0.00666(6)
H3_9 H 0.5371 0.0126 0.8468
C4_7 C 0.4566(2) 0.0316(2) 0.88261(6)
C5_7 C 0.3950(3) 0.0324(3) 0.89383(7)
C6_7 C 0.3792(3) 0.0921(3) 0.90630(8)
H5_7 H 0.3371 0.0939 0.9140
C7_7 C 0.4247(3) 0.1468(4) 0.90716(7)
C8_7 C 0.4895(3) 0.1436(4) 0.89678(8)
H6_9 H 0.5223 0.1799 0.8984
C9_9 C 0.5046(2) 0.0852(3) 0.88397(7)
H7_9 H 0.5470 0.0828 0.8764
C13_7 C 0.4012(2) 0.2170(2) 0.98412(7)
C14_7 C 0.4432(3) 0.1675(3) 0.97442(8)
H11_7 H 0.4706 0.1372 0.9827
C15_7 C 0.4450(4) 0.1623(3) 0.95218(8)
H12_7 H 0.4731 0.1281 0.9456
C16_7 C 0.4054(3) 0.2075(2) 0.94002(7)
C17_7 C 0.3647(3) 0.2570(3) 0.94974(7)
H13_7 H 0.3384 0.2881 0.9414
C18_7 C 0.3616(3) 0.2622(2) 0.97163(7)
H14_7 H 0.3329 0.2961 0.9780
C19_9 C 0.6725(2) 0.0063(2) 0.81827(8)
C20_9 C 0.7125(2) 0.0739(2) 0.81789(8)
C21_7 C 0.7560(2) 0.0938(3) 0.83470(8)
H15_7 H 0.7598 0.0645 0.8466
C22_9 C 0.7071(2) 0.1183(2) 0.80061(9)
H16_9 H 0.6782 0.1058 0.7891
C23_8 C 0.8293(2) 0.2680(2) 0.81579(6)
C24_7 C 0.7886(2) 0.2006(2) 0.81656(6)
C25_9 C 0.7440(2) 0.1816(2) 0.80002(7)
H17_9 H 0.7386 0.2116 0.7883
C26_7 C 0.79410(16) 0.15677(17) 0.83409(5)
H18_7 H 0.8232 0.1692 0.8455
O5_7 O 0.4080(3) 0.20855(18) 0.91793(5)
C1_7 C 0.4758(2) 0.8674(3) 0.85476(7)
H1_7 H 0.4684 0.8195 0.8522
C2_7 C 0.4492(2) 0.9032(3) 0.87098(7)
H2_7 H 0.4203 0.8853 0.8818
C3_9 C 0.5132(2) 0.9727(3) 0.85159(7)
H4_7 H 0.3640 0.9943 0.8932
N1_9 N 0.5159(2) 0.91110(18) 0.84225(5)
N2_7 N 0.47182(16) 0.97143(18) 0.86899(5)
O1_9 O 0.67583(15) 0.96786(17) 0.83434(6)
O2_9 O 0.63467(16) 0.99020(18) 0.80235(6)
N5_7 N 0.5154(2) 0.8681(2) 0.78885(5)
C4_8 C 0.0434(2) 0.9684(2) 0.38261(6)
C5_8 C 0.1050(3) 0.9676(3) 0.39383(7)
C6_8 C 0.1208(3) 0.9079(3) 0.40630(8)
H5_8 H 0.1629 0.9061 0.4140
C7_8 C 0.0753(3) 0.8532(4) 0.40716(7)
C8_8 C 0.0105(3) 0.8564(4) 0.39678(8)
C10_10 C 0.1023(3) 0.8041(3) 0.54092(8)
H8_10 H 0.0990 0.8288 0.5538
C11_10 C 0.0920(3) 0.8315(3) 0.52132(7)
H9_10 H 0.0811 0.8783 0.5182
C12_10 C 0.1201(3) 0.7226(2) 0.51847(7)
H10_10 H 0.1337 0.6795 0.5126
C13_8 C 0.0988(2) 0.7830(2) 0.48412(7)
C14_8 C 0.0568(3) 0.8325(3) 0.47442(8)
H11_8 H 0.0294 0.8628 0.4827
C15_8 C 0.0550(4) 0.8377(3) 0.45218(8)
H12_8 H 0.0269 0.8719 0.4456
C16_8 C 0.0946(3) 0.7925(2) 0.44002(7)
C17_8 C 0.1353(3) 0.7430(3) 0.44974(7)
H13_8 H 0.1616 0.7119 0.4414
C18_8 C 0.1384(3) 0.7378(2) 0.47163(7)
H14_8 H 0.1671 0.7039 0.4780
N3_4 N 0.1181(2) 0.7346(2) 0.53885(5)
N4_10 N 0.1005(2) 0.7783(2) 0.50666(6)
O5_8 O 0.0920(3) 0.79145(18) 0.41793(5)
C3_10 C 0.9868(2) 0.0273(3) 0.35159(7)
N1_10 N 0.9841(2) 0.08890(18) 0.34225(5)
O1_10 O 0.82417(15) 0.03214(17) 0.33434(6)
O2_10 O 0.86533(16) 0.00980(18) 0.30235(6)
N5_8 N 0.9846(2) 0.1319(2) 0.28885(5)
H3_10 H 0.9629 0.9874 0.3468
H6_10 H 0.9777 0.8201 0.3984
C9_10 C 0.9954(2) 0.9148(3) 0.38397(7)
H7_10 H 0.9530 0.9172 0.3764
C19_10 C 0.8275(2) 0.9937(2) 0.31827(8)
C20_10 C 0.7875(2) 0.9261(2) 0.31789(8)
C21_8 C 0.7440(2) 0.9062(3) 0.33470(8)
H15_8 H 0.7402 0.9355 0.3466
C22_10 C 0.7929(2) 0.8817(2) 0.30061(9)
H16_10 H 0.8218 0.8942 0.2891
C23_9 C 0.6707(2) 0.7320(2) 0.31579(6)
C24_8 C 0.7114(2) 0.7994(2) 0.31656(6)
C25_10 C 0.7560(2) 0.8184(2) 0.30002(7)
H17_10 H 0.7614 0.7884 0.2883
C26_8 C 0.70590(16) 0.84323(17) 0.33409(5)
H18_8 H 0.6768 0.8308 0.3455
C1_8 C 0.3826(3) 0.2258(2) 0.10476(7)
H1_8 H 0.4305 0.2184 0.1022
C2_8 C 0.3468(3) 0.1992(2) 0.12098(7)
H2_8 H 0.3647 0.1703 0.1318
C3_11 C 0.2773(3) 0.2632(2) 0.10159(7)
H3_11 H 0.2374 0.2871 0.0968
C4_9 C 0.2184(2) 0.2066(2) 0.13261(6)
C5_9 C 0.2176(3) 0.1450(3) 0.14383(7)
H4_8 H 0.2557 0.1140 0.1432
C6_9 C 0.1579(3) 0.1292(3) 0.15630(8)
H5_9 H 0.1561 0.0871 0.1640
C7_9 C 0.1032(4) 0.1747(3) 0.15716(7)
C8_9 C 0.1064(4) 0.2395(3) 0.14678(8)
H6_11 H 0.0701 0.2723 0.1484
C9_11 C 0.1648(3) 0.2546(2) 0.13397(7)
H7_11 H 0.1672 0.2970 0.1264
C10_11 C 0.0541(3) 0.1477(3) 0.29092(8)
H8_11 H 0.0788 0.1510 0.3038
C11_11 C 0.0815(3) 0.1580(3) 0.27132(7)
H9_11 H 0.1283 0.1689 0.2682
C13_9 C 0.0330(2) 0.1512(2) 0.23412(7)
C14_9 C 0.0825(3) 0.1932(3) 0.22442(8)
H11_9 H 0.1128 0.2206 0.2327
C15_9 C 0.0877(3) 0.1950(4) 0.20218(8)
H12_9 H 0.1219 0.2231 0.1956
C16_9 C 0.0425(2) 0.1554(3) 0.19002(7)
C19_11 C 0.2437(2) 0.4225(2) 0.06827(8)
C20_11 C 0.1761(2) 0.4625(2) 0.06789(8)
C21_9 C 0.1562(3) 0.5060(2) 0.08470(8)
H15_9 H 0.1855 0.5098 0.0966
C22_11 C 0.1317(2) 0.4571(2) 0.05061(9)
H16_11 H 0.1442 0.4282 0.0391
C24_9 C 0.0494(2) 0.5386(2) 0.06656(6)
C25_11 C 0.0684(2) 0.4940(2) 0.05002(7)
H17_11 H 0.0384 0.4886 0.0383
C26_9 C 0.09323(17) 0.54410(16) 0.08409(5)
H18_9 H 0.0808 0.5732 0.0955
N1_11 N 0.33890(18) 0.2659(2) 0.09225(5)
N2_8 N 0.27857(18) 0.22182(16) 0.11899(5)
N4_11 N 0.0283(2) 0.1495(2) 0.25666(6)
O1_11 O 0.28214(17) 0.42583(15) 0.08434(6)
O2_11 O 0.25980(18) 0.38467(16) 0.05235(6)
O5_9 O 0.04145(18) 0.1580(3) 0.16793(5)
C12_11 C 0.9726(2) 0.1299(3) 0.26847(7)
H10_11 H 0.9295 0.1163 0.2626
C17_9 C 0.9930(3) 0.1147(3) 0.19974(7)
H13_9 H 0.9619 0.0884 0.1914
C18_9 C 0.9878(2) 0.1116(3) 0.22163(7)
H14_9 H 0.9539 0.0829 0.2280
C23_10 C 0.9820(2) 0.5793(2) 0.06579(6)
C12_12 C 0.0274(2) 0.3701(3) 0.26847(7)
H10_12 H 0.0705 0.3837 0.2626
C17_10 C 0.0070(3) 0.3853(3) 0.19974(7)
H13_10 H 0.0381 0.4116 0.1914
C18_10 C 0.0122(2) 0.3884(3) 0.22163(7)
H14_10 H 0.0461 0.4171 0.2280
N3_5 N 0.0154(2) 0.3681(2) 0.28885(5)
C23_11 C 0.0180(2) 0.9207(2) 0.06579(6)
C3_12 C 0.0132(2) 0.4727(3) 0.35159(7)
H3_12 H 0.0371 0.5126 0.3468
H6_12 H 0.0223 0.6799 0.3984
C9_12 C 0.0046(2) 0.5852(3) 0.38397(7)
H7_12 H 0.0470 0.5828 0.3764
C19_12 C 0.1725(2) 0.5063(2) 0.31827(8)
C20_12 C 0.2125(2) 0.5739(2) 0.31789(8)
C21_10 C 0.2560(2) 0.5938(3) 0.33470(8)
H15_10 H 0.2598 0.5645 0.3466
C22_12 C 0.2071(2) 0.6183(2) 0.30061(9)
H16_12 H 0.1782 0.6058 0.2891
C23_12 C 0.3293(2) 0.7680(2) 0.31579(6)
C24_10 C 0.2886(2) 0.7006(2) 0.31656(6)
C25_12 C 0.2440(2) 0.6816(2) 0.30002(7)
H17_12 H 0.2386 0.7116 0.2883
C26_10 C 0.29410(16) 0.65677(17) 0.33409(5)
H18_10 H 0.3232 0.6692 0.3455
N1_12 N 0.0159(2) 0.41110(18) 0.34225(5)
O1_12 O 0.17583(15) 0.46786(17) 0.33434(6)
O2_12 O 0.13467(16) 0.49020(18) 0.30235(6)
C1_9 C 0.9758(2) 0.3674(3) 0.35476(7)
H1_9 H 0.9684 0.3195 0.3522
C2_9 C 0.9492(2) 0.4032(3) 0.37098(7)
H2_9 H 0.9203 0.3853 0.3818
C4_10 C 0.9566(2) 0.5316(2) 0.38261(6)
C5_10 C 0.8950(3) 0.5324(3) 0.39383(7)
H4_9 H 0.8640 0.4943 0.3932
C6_10 C 0.8792(3) 0.5921(3) 0.40630(8)
H5_10 H 0.8371 0.5939 0.4140
C7_10 C 0.9247(3) 0.6468(4) 0.40716(7)
C8_10 C 0.9895(3) 0.6436(4) 0.39678(8)
C10_12 C 0.8977(3) 0.6959(3) 0.54092(8)
H8_12 H 0.9010 0.6712 0.5538
C11_12 C 0.9080(3) 0.6685(3) 0.52132(7)
H9_12 H 0.9189 0.6217 0.5182
C12_13 C 0.8799(3) 0.7774(2) 0.51847(7)
H10_13 H 0.8663 0.8205 0.5126
C13_10 C 0.9012(2) 0.7170(2) 0.48412(7)
C14_10 C 0.9432(3) 0.6675(3) 0.47442(8)
H11_10 H 0.9706 0.6372 0.4827
C15_10 C 0.9450(4) 0.6623(3) 0.45218(8)
H12_10 H 0.9731 0.6281 0.4456
C16_10 C 0.9054(3) 0.7075(2) 0.44002(7)
C17_11 C 0.8647(3) 0.7570(3) 0.44974(7)
H13_11 H 0.8384 0.7881 0.4414
C18_11 C 0.8616(3) 0.7622(2) 0.47163(7)
H14_11 H 0.8329 0.7961 0.4780
N2_9 N 0.97182(16) 0.47143(18) 0.36899(5)
N3_6 N 0.8819(2) 0.7654(2) 0.53885(5)
N4_12 N 0.8995(2) 0.7217(2) 0.50666(6)
O5_10 O 0.9080(3) 0.70855(18) 0.41793(5)
C1_10 C 0.5242(2) 0.6326(3) 0.85476(7)
H1_10 H 0.5316 0.6805 0.8522
C2_10 C 0.5508(2) 0.5968(3) 0.87098(7)
H2_10 H 0.5797 0.6147 0.8818
C3_13 C 0.4868(2) 0.5273(3) 0.85159(7)
H3_13 H 0.4629 0.4874 0.8468
C4_11 C 0.5434(2) 0.4684(2) 0.88261(6)
C5_11 C 0.6050(3) 0.4676(3) 0.89383(7)
H4_10 H 0.6360 0.5057 0.8932
C6_11 C 0.6208(3) 0.4079(3) 0.90630(8)
H5_11 H 0.6629 0.4061 0.9140
C7_11 C 0.5753(3) 0.3532(4) 0.90716(7)
C8_11 C 0.5105(3) 0.3564(4) 0.89678(8)
H6_13 H 0.4777 0.3201 0.8984
C9_13 C 0.4954(2) 0.4148(3) 0.88397(7)
H7_13 H 0.4530 0.4172 0.8764
C13_11 C 0.5988(2) 0.2830(2) 0.98412(7)
C14_11 C 0.5568(3) 0.3325(3) 0.97442(8)
H11_11 H 0.5294 0.3628 0.9827
C15_11 C 0.5550(4) 0.3377(3) 0.95218(8)
H12_11 H 0.5269 0.3719 0.9456
C16_11 C 0.5946(3) 0.2925(2) 0.94002(7)
C17_12 C 0.6353(3) 0.2430(3) 0.94974(7)
H13_12 H 0.6616 0.2119 0.9414
C18_12 C 0.6384(3) 0.2378(2) 0.97163(7)
H14_12 H 0.6671 0.2039 0.9780
C19_13 C 0.3275(2) 0.4937(2) 0.81827(8)
C20_13 C 0.2875(2) 0.4261(2) 0.81789(8)
C21_11 C 0.2440(2) 0.4062(3) 0.83470(8)
H15_11 H 0.2402 0.4355 0.8466
C22_13 C 0.2929(2) 0.3817(2) 0.80061(9)
H16_13 H 0.3218 0.3942 0.7891
C23_13 C 0.1707(2) 0.2320(2) 0.81579(6)
C24_11 C 0.2114(2) 0.2994(2) 0.81656(6)
C25_13 C 0.2560(2) 0.3184(2) 0.80002(7)
H17_13 H 0.2614 0.2884 0.7883
C26_11 C 0.20590(16) 0.34323(17) 0.83409(5)
H18_11 H 0.1768 0.3308 0.8455
N1_13 N 0.4841(2) 0.58890(18) 0.84225(5)
N2_10 N 0.52818(16) 0.52857(18) 0.86899(5)
O1_13 O 0.32417(15) 0.53214(17) 0.83434(6)
O2_13 O 0.36533(16) 0.50980(18) 0.80235(6)
O5_11 O 0.5920(3) 0.29145(18) 0.91793(5)
N5_9 N 0.4846(2) 0.6319(2) 0.78885(5)
C21_12 C 0.6562(3) 0.0060(2) 0.58470(8)
H15_12 H 0.6855 0.0098 0.5966
C23_14 C 0.4820(2) 0.0793(2) 0.56579(6)
C24_12 C 0.5494(2) 0.0386(2) 0.56656(6)
C26_12 C 0.59323(17) 0.04410(16) 0.58409(5)
H18_12 H 0.5808 0.0732 0.5955
C1_11 C 0.8826(3) 0.7258(2) 0.60476(7)
H1_11 H 0.9305 0.7184 0.6022
C2_11 C 0.8468(3) 0.6992(2) 0.62098(7)
H2_11 H 0.8647 0.6703 0.6318
C3_14 C 0.7773(3) 0.7632(2) 0.60159(7)
H3_14 H 0.7374 0.7871 0.5968
C4_12 C 0.7184(2) 0.7066(2) 0.63261(6)
C5_12 C 0.7176(3) 0.6450(3) 0.64383(7)
H4_11 H 0.7557 0.6140 0.6432
C6_12 C 0.6579(3) 0.6292(3) 0.65630(8)
H5_12 H 0.6561 0.5871 0.6640
C7_12 C 0.6032(4) 0.6747(3) 0.65716(7)
C8_12 C 0.6064(4) 0.7395(3) 0.64678(8)
H6_14 H 0.5701 0.7723 0.6484
C9_14 C 0.6648(3) 0.7546(2) 0.63397(7)
H7_14 H 0.6672 0.7970 0.6264
C10_13 C 0.5541(3) 0.6477(3) 0.79092(8)
H8_13 H 0.5788 0.6510 0.8038
C11_13 C 0.5815(3) 0.6580(3) 0.77132(7)
H9_13 H 0.6283 0.6689 0.7682
C12_14 C 0.4726(2) 0.6299(3) 0.76847(7)
H10_14 H 0.4295 0.6163 0.7626
C13_12 C 0.5330(2) 0.6512(2) 0.73412(7)
C14_12 C 0.5825(3) 0.6932(3) 0.72442(8)
H11_12 H 0.6128 0.7206 0.7327
C15_12 C 0.5877(3) 0.6950(4) 0.70218(8)
H12_12 H 0.6219 0.7231 0.6956
C16_12 C 0.5425(2) 0.6554(3) 0.69002(7)
C17_13 C 0.4930(3) 0.6147(3) 0.69974(7)
H13_13 H 0.4619 0.5884 0.6914
C18_13 C 0.4878(2) 0.6116(3) 0.72163(7)
H14_13 H 0.4539 0.5829 0.7280
C19_14 C 0.7437(2) 0.9225(2) 0.56827(8)
C20_14 C 0.6761(2) 0.9625(2) 0.56789(8)
C22_14 C 0.6317(2) 0.9571(2) 0.55061(9)
H16_14 H 0.6442 0.9282 0.5391
C25_14 C 0.5684(2) 0.9940(2) 0.55002(7)
H17_14 H 0.5384 0.9886 0.5383
N1_14 N 0.83890(18) 0.7659(2) 0.59225(5)
N2_11 N 0.77857(18) 0.72182(16) 0.61899(5)
N4_13 N 0.5283(2) 0.6495(2) 0.75666(6)
O1_14 O 0.78214(17) 0.92583(15) 0.58434(6)
O2_14 O 0.75980(18) 0.88467(16) 0.55235(6)
O5_12 O 0.54145(18) 0.6580(3) 0.66793(5)
C1_12 C 0.1174(3) 0.7742(2) 0.60476(7)
H1_12 H 0.0695 0.7816 0.6022
C2_12 C 0.1532(3) 0.8008(2) 0.62098(7)
H2_12 H 0.1353 0.8297 0.6318
C3_15 C 0.2227(3) 0.7368(2) 0.60159(7)
H3_15 H 0.2626 0.7129 0.5968
C4_13 C 0.2816(2) 0.7934(2) 0.63261(6)
C5_13 C 0.2824(3) 0.8550(3) 0.64383(7)
H4_12 H 0.2443 0.8860 0.6432
C6_13 C 0.3421(3) 0.8708(3) 0.65630(8)
H5_13 H 0.3439 0.9129 0.6640
C7_13 C 0.3968(4) 0.8253(3) 0.65716(7)
C8_13 C 0.3936(4) 0.7605(3) 0.64678(8)
H6_15 H 0.4299 0.7277 0.6484
C9_15 C 0.3352(3) 0.7454(2) 0.63397(7)
H7_15 H 0.3328 0.7030 0.6264
C10_14 C 0.4459(3) 0.8523(3) 0.79092(8)
H8_14 H 0.4212 0.8490 0.8038
C11_14 C 0.4185(3) 0.8420(3) 0.77132(7)
H9_14 H 0.3717 0.8311 0.7682
C12_15 C 0.5274(2) 0.8701(3) 0.76847(7)
H10_15 H 0.5705 0.8837 0.7626
C13_13 C 0.4670(2) 0.8488(2) 0.73412(7)
C14_13 C 0.4175(3) 0.8068(3) 0.72442(8)
H11_13 H 0.3872 0.7794 0.7327
C15_13 C 0.4123(3) 0.8050(4) 0.70218(8)
H12_13 H 0.3781 0.7769 0.6956
C16_13 C 0.4575(2) 0.8446(3) 0.69002(7)
C17_14 C 0.5070(3) 0.8853(3) 0.69974(7)
H13_14 H 0.5381 0.9116 0.6914
C18_14 C 0.5122(2) 0.8884(3) 0.72163(7)
H14_14 H 0.5461 0.9171 0.7280
C19_15 C 0.2563(2) 0.5775(2) 0.56827(8)
C20_15 C 0.3239(2) 0.5375(2) 0.56789(8)
C21_13 C 0.3438(3) 0.4940(2) 0.58470(8)
H15_13 H 0.3145 0.4902 0.5966
C22_15 C 0.3683(2) 0.5429(2) 0.55061(9)
H16_15 H 0.3558 0.5718 0.5391
C23_15 C 0.5180(2) 0.4207(2) 0.56579(6)
C24_13 C 0.4506(2) 0.4614(2) 0.56656(6)
C25_15 C 0.4316(2) 0.5060(2) 0.55002(7)
H17_15 H 0.4616 0.5114 0.5383
C26_13 C 0.40677(17) 0.45590(16) 0.58409(5)
H18_13 H 0.4192 0.4268 0.5955
N1_15 N 0.16110(18) 0.7341(2) 0.59225(5)
N2_12 N 0.22143(18) 0.77818(16) 0.61899(5)
N4_14 N 0.4717(2) 0.8505(2) 0.75666(6)
O1_15 O 0.21786(17) 0.57417(15) 0.58434(6)
O2_15 O 0.24020(18) 0.61533(16) 0.55235(6)
O5_13 O 0.45855(18) 0.8420(3) 0.66793(5)
C21_14 C 0.1562(3) 0.9940(2) 0.58470(8)
H15_14 H 0.1855 0.9902 0.5966
C24_14 C 0.0494(2) 0.9614(2) 0.56656(6)
C26_14 C 0.09323(17) 0.95590(16) 0.58409(5)
H18_14 H 0.0808 0.9268 0.5955
C21_15 C 0.3438(3) 0.0060(2) 0.08470(8)
H15_15 H 0.3145 0.0098 0.0966
C23_16 C 0.5180(2) 0.0793(2) 0.06579(6)
C24_15 C 0.4506(2) 0.0386(2) 0.06656(6)
C26_15 C 0.40677(17) 0.04410(16) 0.08409(5)
H18_15 H 0.4192 0.0732 0.0955
O3_8 O 0.52902(16) 0.12548(15) 0.07978(4)
O4_8 O 0.56048(17) 0.06828(16) 0.05117(5)
Cd3_8 Cd 0.636827(16) 0.156810(15) 0.065301(4)
C1_13 C 0.6174(3) 0.2742(2) 0.10476(7)
H1_13 H 0.5695 0.2816 0.1022
C2_13 C 0.6532(3) 0.3008(2) 0.12098(7)
H2_13 H 0.6353 0.3297 0.1318
C3_16 C 0.7227(3) 0.2368(2) 0.10159(7)
H3_16 H 0.7626 0.2129 0.0968
C4_14 C 0.7816(2) 0.2934(2) 0.13261(6)
C5_14 C 0.7824(3) 0.3550(3) 0.14383(7)
H4_13 H 0.7443 0.3860 0.1432
C6_14 C 0.8421(3) 0.3708(3) 0.15630(8)
H5_14 H 0.8439 0.4129 0.1640
C7_14 C 0.8968(4) 0.3253(3) 0.15716(7)
C8_14 C 0.8936(4) 0.2605(3) 0.14678(8)
H6_16 H 0.9299 0.2277 0.1484
C9_16 C 0.8352(3) 0.2454(2) 0.13397(7)
H7_16 H 0.8328 0.2030 0.1264
C10_15 C 0.9459(3) 0.3523(3) 0.29092(8)
H8_15 H 0.9212 0.3490 0.3038
C11_15 C 0.9185(3) 0.3420(3) 0.27132(7)
H9_15 H 0.8717 0.3311 0.2682
C13_14 C 0.9670(2) 0.3488(2) 0.23412(7)
C14_14 C 0.9175(3) 0.3068(3) 0.22442(8)
H11_14 H 0.8872 0.2794 0.2327
C15_14 C 0.9123(3) 0.3050(4) 0.20218(8)
H12_14 H 0.8781 0.2769 0.1956
C16_14 C 0.9575(2) 0.3446(3) 0.19002(7)
C19_16 C 0.7563(2) 0.0775(2) 0.06827(8)
C20_16 C 0.8239(2) 0.0375(2) 0.06789(8)
C22_16 C 0.8683(2) 0.0429(2) 0.05061(9)
H16_16 H 0.8558 0.0718 0.0391
C25_16 C 0.9316(2) 0.0060(2) 0.05002(7)
H17_16 H 0.9616 0.0114 0.0383
N1_16 N 0.66110(18) 0.2341(2) 0.09225(5)
N2_13 N 0.72143(18) 0.27818(16) 0.11899(5)
N4_15 N 0.9717(2) 0.3505(2) 0.25666(6)
O1_16 O 0.71786(17) 0.07417(15) 0.08434(6)
O2_16 O 0.74020(18) 0.11533(16) 0.05235(6)
O5_14 O 0.95855(18) 0.3420(3) 0.16793(5)
N5_10 N 0.6181(2) 0.2346(2) 0.03885(5)
C10_16 C 0.6023(3) 0.3041(3) 0.04092(8)
H8_16 H 0.5990 0.3288 0.0538
C11_16 C 0.5920(3) 0.3315(3) 0.02132(7)
H9_16 H 0.5811 0.3783 0.0182
C12_16 C 0.6201(3) 0.2226(2) 0.01847(7)
H10_16 H 0.6337 0.1795 0.0126
N4_16 N 0.6005(2) 0.2783(2) 0.00666(6)
C1_14 C 0.5242(2) 0.1326(3) 0.14524(7)
H1_14 H 0.5316 0.1805 0.1478
C2_14 C 0.5508(2) 0.0968(3) 0.12902(7)
H2_14 H 0.5797 0.1147 0.1182
C3_17 C 0.4868(2) 0.0273(3) 0.14841(7)
H4_14 H 0.6360 0.0057 0.1068
Cd1_7 Cd 0.406810(15) 0.113173(16) 0.184699(4)
N1_17 N 0.4841(2) 0.08890(18) 0.15775(5)
N2_14 N 0.52818(16) 0.02857(18) 0.13101(5)
O1_17 O 0.32417(15) 0.03214(17) 0.16566(6)
O2_17 O 0.36533(16) 0.00980(18) 0.19765(6)
N5_11 N 0.4846(2) 0.1319(2) 0.21115(5)
O6_9 O 0.37548(15) 0.22098(16) 0.17022(4)
O7_9 O 0.31828(16) 0.18952(17) 0.19883(5)
H3_17 H 0.4629 0.9874 0.1532
C4_15 C 0.5434(2) 0.9684(2) 0.11739(6)
C5_15 C 0.6050(3) 0.9676(3) 0.10617(7)
C6_15 C 0.6208(3) 0.9079(3) 0.09370(8)
H5_15 H 0.6629 0.9061 0.0860
C7_15 C 0.5753(3) 0.8532(4) 0.09284(7)
C8_15 C 0.5105(3) 0.8564(4) 0.10322(8)
H6_17 H 0.4777 0.8201 0.1016
C9_17 C 0.4954(2) 0.9148(3) 0.11603(7)
H7_17 H 0.4530 0.9172 0.1236
C13_15 C 0.5988(2) 0.7830(2) 0.01588(7)
C14_15 C 0.5568(3) 0.8325(3) 0.02558(8)
H11_15 H 0.5294 0.8628 0.0173
C15_15 C 0.5550(4) 0.8377(3) 0.04782(8)
H12_15 H 0.5269 0.8719 0.0544
C16_15 C 0.5946(3) 0.7925(2) 0.05998(7)
C17_15 C 0.6353(3) 0.7430(3) 0.05026(7)
H13_15 H 0.6616 0.7119 0.0586
C18_15 C 0.6384(3) 0.7378(2) 0.02837(7)
H14_15 H 0.6671 0.7039 0.0220
C19_17 C 0.3275(2) 0.9937(2) 0.18173(8)
C20_17 C 0.2875(2) 0.9261(2) 0.18211(8)
C21_16 C 0.2440(2) 0.9062(3) 0.16530(8)
H15_16 H 0.2402 0.9355 0.1534
C22_17 C 0.2929(2) 0.8817(2) 0.19939(9)
H16_17 H 0.3218 0.8942 0.2109
C23_17 C 0.1707(2) 0.7320(2) 0.18421(6)
C24_16 C 0.2114(2) 0.7994(2) 0.18344(6)
C25_17 C 0.2560(2) 0.8184(2) 0.19998(7)
H17_17 H 0.2614 0.7884 0.2117
C26_16 C 0.20590(16) 0.84323(17) 0.16591(5)
H18_16 H 0.1768 0.8308 0.1545
O3_9 O 0.12452(15) 0.72098(16) 0.17022(4)
O4_9 O 0.18172(16) 0.68952(17) 0.19883(5)
O5_15 O 0.5920(3) 0.79145(18) 0.08207(5)
Cd3_9 Cd 0.093190(15) 0.613173(16) 0.184699(4)
C10_17 C 0.6023(3) 0.8041(3) 0.95908(8)
H8_17 H 0.5990 0.8288 0.9462
C11_17 C 0.5920(3) 0.8315(3) 0.97868(7)
H9_17 H 0.5811 0.8783 0.9818
C12_17 C 0.6201(3) 0.7226(2) 0.98153(7)
H10_17 H 0.6337 0.6795 0.9874
N3_7 N 0.6181(2) 0.7346(2) 0.96115(5)
N4_17 N 0.6005(2) 0.7783(2) 0.99334(6)
Cd2_3 Cd 0.636827(16) 0.656810(15) 0.934699(4)
H3_18 H 0.0371 0.0126 0.6532
H6_18 H 0.0223 0.1799 0.6016
C9_18 C 0.0046(2) 0.0852(3) 0.61603(7)
H7_18 H 0.0470 0.0828 0.6236
C19_18 C 0.1725(2) 0.0063(2) 0.68173(8)
C20_18 C 0.2125(2) 0.0739(2) 0.68211(8)
C21_17 C 0.2560(2) 0.0938(3) 0.66530(8)
H15_17 H 0.2598 0.0645 0.6534
C22_18 C 0.2071(2) 0.1183(2) 0.69939(9)
H16_18 H 0.1782 0.1058 0.7109
C23_18 C 0.3293(2) 0.2680(2) 0.68421(6)
C24_17 C 0.2886(2) 0.2006(2) 0.68344(6)
C25_18 C 0.2440(2) 0.1816(2) 0.69998(7)
H17_18 H 0.2386 0.2116 0.7117
C26_17 C 0.29410(16) 0.15677(17) 0.66591(5)
H18_17 H 0.3232 0.1692 0.6545
O3_10 O 0.37548(15) 0.27902(16) 0.67022(4)
O4_10 O 0.31828(16) 0.31048(17) 0.69883(5)
Cd3_10 Cd 0.406810(15) 0.386827(16) 0.684699(4)
C3_18 C 0.0132(2) 0.9727(3) 0.64841(7)
Cd1_8 Cd 0.093190(15) 0.886827(16) 0.684699(4)
N1_18 N 0.0159(2) 0.91110(18) 0.65775(5)
O1_18 O 0.17583(15) 0.96786(17) 0.66566(6)
O2_18 O 0.13467(16) 0.99020(18) 0.69765(6)
N5_12 N 0.0154(2) 0.8681(2) 0.71115(5)
O6_10 O 0.12452(15) 0.77902(16) 0.67022(4)
O7_10 O 0.18172(16) 0.81048(17) 0.69883(5)
C4_16 C 0.9566(2) 0.0316(2) 0.61739(6)
C5_16 C 0.8950(3) 0.0324(3) 0.60617(7)
C6_16 C 0.8792(3) 0.0921(3) 0.59370(8)
H5_16 H 0.8371 0.0939 0.5860
C7_16 C 0.9247(3) 0.1468(4) 0.59284(7)
C8_16 C 0.9895(3) 0.1436(4) 0.60322(8)
C10_18 C 0.8977(3) 0.1959(3) 0.45908(8)
H8_18 H 0.9010 0.1712 0.4462
C11_18 C 0.9080(3) 0.1685(3) 0.47868(7)
H9_18 H 0.9189 0.1217 0.4818
C12_18 C 0.8799(3) 0.2774(2) 0.48153(7)
H10_18 H 0.8663 0.3205 0.4874
C13_16 C 0.9012(2) 0.2170(2) 0.51588(7)
C14_16 C 0.9432(3) 0.1675(3) 0.52558(8)
H11_16 H 0.9706 0.1372 0.5173
C15_16 C 0.9450(4) 0.1623(3) 0.54782(8)
H12_16 H 0.9731 0.1281 0.5544
C16_16 C 0.9054(3) 0.2075(2) 0.55998(7)
C17_16 C 0.8647(3) 0.2570(3) 0.55026(7)
H13_16 H 0.8384 0.2881 0.5586
C18_16 C 0.8616(3) 0.2622(2) 0.52837(7)
H14_16 H 0.8329 0.2961 0.5220
N3_8 N 0.8819(2) 0.2654(2) 0.46115(5)
N4_18 N 0.8995(2) 0.2217(2) 0.49334(6)
O5_16 O 0.9080(3) 0.20855(18) 0.58207(5)
Cd2_4 Cd 0.863173(16) 0.343190(15) 0.434699(4)
C12_19 C 0.0274(2) 0.8701(3) 0.73153(7)
H10_19 H 0.0705 0.8837 0.7374
C17_17 C 0.0070(3) 0.8853(3) 0.80026(7)
H13_17 H 0.0381 0.9116 0.8086
C18_17 C 0.0122(2) 0.8884(3) 0.77837(7)
H14_17 H 0.0461 0.9171 0.7720
C23_19 C 0.0180(2) 0.4207(2) 0.93421(6)
O3_11 O 0.02902(16) 0.37452(15) 0.92022(4)
O4_11 O 0.06048(17) 0.43172(16) 0.94883(5)
Cd3_11 Cd 0.136827(16) 0.343190(15) 0.934699(4)
C1_15 C 0.6174(3) 0.7742(2) 0.89524(7)
H1_15 H 0.5695 0.7816 0.8978
C2_15 C 0.6532(3) 0.8008(2) 0.87902(7)
H2_15 H 0.6353 0.8297 0.8682
C3_19 C 0.7227(3) 0.7368(2) 0.89841(7)
H3_19 H 0.7626 0.7129 0.9032
C4_17 C 0.7816(2) 0.7934(2) 0.86739(6)
C5_17 C 0.7824(3) 0.8550(3) 0.85617(7)
H4_15 H 0.7443 0.8860 0.8568
C6_17 C 0.8421(3) 0.8708(3) 0.84370(8)
H5_17 H 0.8439 0.9129 0.8360
C7_17 C 0.8968(4) 0.8253(3) 0.84284(7)
C8_17 C 0.8936(4) 0.7605(3) 0.85322(8)
H6_19 H 0.9299 0.7277 0.8516
C9_19 C 0.8352(3) 0.7454(2) 0.86603(7)
H7_19 H 0.8328 0.7030 0.8736
C10_19 C 0.9459(3) 0.8523(3) 0.70908(8)
H8_19 H 0.9212 0.8490 0.6962
C11_19 C 0.9185(3) 0.8420(3) 0.72868(7)
H9_19 H 0.8717 0.8311 0.7318
C13_17 C 0.9670(2) 0.8488(2) 0.76588(7)
C14_17 C 0.9175(3) 0.8068(3) 0.77558(8)
H11_17 H 0.8872 0.7794 0.7673
C15_17 C 0.9123(3) 0.8050(4) 0.79782(8)
H12_17 H 0.8781 0.7769 0.8044
C16_17 C 0.9575(2) 0.8446(3) 0.80998(7)
C19_19 C 0.7563(2) 0.5775(2) 0.93173(8)
C20_19 C 0.8239(2) 0.5375(2) 0.93211(8)
C21_18 C 0.8438(3) 0.4940(2) 0.91530(8)
H15_18 H 0.8145 0.4902 0.9034
C22_19 C 0.8683(2) 0.5429(2) 0.94939(9)
H16_19 H 0.8558 0.5718 0.9609
C24_18 C 0.9506(2) 0.4614(2) 0.93344(6)
C25_19 C 0.9316(2) 0.5060(2) 0.94998(7)
H17_19 H 0.9616 0.5114 0.9617
C26_18 C 0.90677(17) 0.45590(16) 0.91591(5)
H18_18 H 0.9192 0.4268 0.9045
N1_19 N 0.66110(18) 0.7341(2) 0.90775(5)
N2_15 N 0.72143(18) 0.77818(16) 0.88101(5)
N4_19 N 0.9717(2) 0.8505(2) 0.74334(6)
O1_19 O 0.71786(17) 0.57417(15) 0.91566(6)
O2_19 O 0.74020(18) 0.61533(16) 0.94765(6)
O5_17 O 0.95855(18) 0.8420(3) 0.83207(5)
O6_11 O 0.52902(16) 0.62548(15) 0.92022(4)
O7_11 O 0.56048(17) 0.56828(16) 0.94883(5)
C23_20 C 0.9820(2) 0.0793(2) 0.93421(6)
O3_12 O 0.97098(16) 0.12548(15) 0.92022(4)
O4_12 O 0.93952(17) 0.06828(16) 0.94883(5)
Cd3_12 Cd 0.863173(16) 0.156810(15) 0.934699(4)
C12_20 C 0.9726(2) 0.6299(3) 0.73153(7)
H10_20 H 0.9295 0.6163 0.7374
C17_18 C 0.9930(3) 0.6147(3) 0.80026(7)
H13_18 H 0.9619 0.5884 0.8086
C18_18 C 0.9878(2) 0.6116(3) 0.77837(7)
H14_18 H 0.9539 0.5829 0.7720
N3_9 N 0.9846(2) 0.6319(2) 0.71115(5)
Cd2_5 Cd 0.906810(15) 0.613173(16) 0.684699(4)
C1_16 C 0.0242(2) 0.6326(3) 0.64524(7)
H1_16 H 0.0316 0.6805 0.6478
C2_16 C 0.0508(2) 0.5968(3) 0.62902(7)
H2_16 H 0.0797 0.6147 0.6182
C4_18 C 0.0434(2) 0.4684(2) 0.61739(6)
C5_18 C 0.1050(3) 0.4676(3) 0.60617(7)
H4_16 H 0.1360 0.5057 0.6068
C6_18 C 0.1208(3) 0.4079(3) 0.59370(8)
H5_18 H 0.1629 0.4061 0.5860
C7_18 C 0.0753(3) 0.3532(4) 0.59284(7)
C8_18 C 0.0105(3) 0.3564(4) 0.60322(8)
C10_20 C 0.1023(3) 0.3041(3) 0.45908(8)
H8_20 H 0.0990 0.3288 0.4462
C11_20 C 0.0920(3) 0.3315(3) 0.47868(7)
H9_20 H 0.0811 0.3783 0.4818
C12_21 C 0.1201(3) 0.2226(2) 0.48153(7)
H10_21 H 0.1337 0.1795 0.4874
C13_18 C 0.0988(2) 0.2830(2) 0.51588(7)
C14_18 C 0.0568(3) 0.3325(3) 0.52558(8)
H11_18 H 0.0294 0.3628 0.5173
C15_18 C 0.0550(4) 0.3377(3) 0.54782(8)
H12_18 H 0.0269 0.3719 0.5544
C16_18 C 0.0946(3) 0.2925(2) 0.55998(7)
C17_19 C 0.1353(3) 0.2430(3) 0.55026(7)
H13_19 H 0.1616 0.2119 0.5586
C18_19 C 0.1384(3) 0.2378(2) 0.52837(7)
H14_19 H 0.1671 0.2039 0.5220
N2_16 N 0.02818(16) 0.52857(18) 0.63101(5)
N3_10 N 0.1181(2) 0.2346(2) 0.46115(5)
N4_20 N 0.1005(2) 0.2783(2) 0.49334(6)
O5_18 O 0.0920(3) 0.29145(18) 0.58207(5)
Cd2_6 Cd 0.136827(16) 0.156810(15) 0.434699(4)
C3_20 C 0.9868(2) 0.5273(3) 0.64841(7)
H3_20 H 0.9629 0.4874 0.6532
H6_20 H 0.9777 0.3201 0.6016
C9_20 C 0.9954(2) 0.4148(3) 0.61603(7)
H7_20 H 0.9530 0.4172 0.6236
C19_20 C 0.8275(2) 0.4937(2) 0.68173(8)
C20_20 C 0.7875(2) 0.4261(2) 0.68211(8)
C21_19 C 0.7440(2) 0.4062(3) 0.66530(8)
H15_19 H 0.7402 0.4355 0.6534
C22_20 C 0.7929(2) 0.3817(2) 0.69939(9)
H16_20 H 0.8218 0.3942 0.7109
C23_21 C 0.6707(2) 0.2320(2) 0.68421(6)
C24_19 C 0.7114(2) 0.2994(2) 0.68344(6)
C25_20 C 0.7560(2) 0.3184(2) 0.69998(7)
H17_20 H 0.7614 0.2884 0.7117
C26_19 C 0.70590(16) 0.34323(17) 0.66591(5)
H18_19 H 0.6768 0.3308 0.6545
N1_20 N 0.9841(2) 0.58890(18) 0.65775(5)
O1_20 O 0.82417(15) 0.53214(17) 0.66566(6)
O2_20 O 0.86533(16) 0.50980(18) 0.69765(6)
O3_13 O 0.62452(15) 0.22098(16) 0.67022(4)
O4_13 O 0.68172(16) 0.18952(17) 0.69883(5)
Cd3_13 Cd 0.593190(15) 0.113173(16) 0.684699(4)
O6_12 O 0.87548(15) 0.72098(16) 0.67022(4)
O7_12 O 0.81828(16) 0.68952(17) 0.69883(5)
C1_17 C 0.4758(2) 0.3674(3) 0.14524(7)
H1_17 H 0.4684 0.3195 0.1478
C2_17 C 0.4492(2) 0.4032(3) 0.12902(7)
H2_17 H 0.4203 0.3853 0.1182
C3_21 C 0.5132(2) 0.4727(3) 0.14841(7)
H3_21 H 0.5371 0.5126 0.1532
C4_19 C 0.4566(2) 0.5316(2) 0.11739(6)
C5_19 C 0.3950(3) 0.5324(3) 0.10617(7)
H4_17 H 0.3640 0.4943 0.1068
C6_19 C 0.3792(3) 0.5921(3) 0.09370(8)
H5_19 H 0.3371 0.5939 0.0860
C7_19 C 0.4247(3) 0.6468(4) 0.09284(7)
C8_19 C 0.4895(3) 0.6436(4) 0.10322(8)
H6_21 H 0.5223 0.6799 0.1016
C9_21 C 0.5046(2) 0.5852(3) 0.11603(7)
H7_21 H 0.5470 0.5828 0.1236
C13_19 C 0.4012(2) 0.7170(2) 0.01588(7)
C14_19 C 0.4432(3) 0.6675(3) 0.02558(8)
H11_19 H 0.4706 0.6372 0.0173
C15_19 C 0.4450(4) 0.6623(3) 0.04782(8)
H12_19 H 0.4731 0.6281 0.0544
C16_19 C 0.4054(3) 0.7075(2) 0.05998(7)
C17_20 C 0.3647(3) 0.7570(3) 0.05026(7)
H13_20 H 0.3384 0.7881 0.0586
C18_20 C 0.3616(3) 0.7622(2) 0.02837(7)
H14_20 H 0.3329 0.7961 0.0220
C19_21 C 0.6725(2) 0.5063(2) 0.18173(8)
C20_21 C 0.7125(2) 0.5739(2) 0.18211(8)
C21_20 C 0.7560(2) 0.5938(3) 0.16530(8)
H15_20 H 0.7598 0.5645 0.1534
C22_21 C 0.7071(2) 0.6183(2) 0.19939(9)
H16_21 H 0.6782 0.6058 0.2109
C23_22 C 0.8293(2) 0.7680(2) 0.18421(6)
C24_20 C 0.7886(2) 0.7006(2) 0.18344(6)
C25_21 C 0.7440(2) 0.6816(2) 0.19998(7)
H17_21 H 0.7386 0.7116 0.2117
C26_20 C 0.79410(16) 0.65677(17) 0.16591(5)
H18_20 H 0.8232 0.6692 0.1545
Cd1_9 Cd 0.593190(15) 0.386827(16) 0.184699(4)
N1_21 N 0.5159(2) 0.41110(18) 0.15775(5)
N2_17 N 0.47182(16) 0.47143(18) 0.13101(5)
O1_21 O 0.67583(15) 0.46786(17) 0.16566(6)
O2_21 O 0.63467(16) 0.49020(18) 0.19765(6)
O3_14 O 0.87548(15) 0.77902(16) 0.17022(4)
O4_14 O 0.81828(16) 0.81048(17) 0.19883(5)
O5_19 O 0.4080(3) 0.70855(18) 0.08207(5)
Cd3_14 Cd 0.906810(15) 0.886827(16) 0.184699(4)
N5_13 N 0.5154(2) 0.3681(2) 0.21115(5)
O6_13 O 0.62452(15) 0.27902(16) 0.17022(4)
O7_13 O 0.68172(16) 0.31048(17) 0.19883(5)
C1_18 C 0.1174(3) 0.2742(2) 0.39524(7)
H1_18 H 0.0695 0.2816 0.3978
C2_18 C 0.1532(3) 0.3008(2) 0.37902(7)
H2_18 H 0.1353 0.3297 0.3682
C3_22 C 0.2227(3) 0.2368(2) 0.39841(7)
H3_22 H 0.2626 0.2129 0.4032
C4_20 C 0.2816(2) 0.2934(2) 0.36739(6)
C5_20 C 0.2824(3) 0.3550(3) 0.35617(7)
H4_18 H 0.2443 0.3860 0.3568
C6_20 C 0.3421(3) 0.3708(3) 0.34370(8)
H5_20 H 0.3439 0.4129 0.3360
C7_20 C 0.3968(4) 0.3253(3) 0.34284(7)
C8_20 C 0.3936(4) 0.2605(3) 0.35322(8)
H6_22 H 0.4299 0.2277 0.3516
C9_22 C 0.3352(3) 0.2454(2) 0.36603(7)
H7_22 H 0.3328 0.2030 0.3736
C10_21 C 0.4459(3) 0.3523(3) 0.20908(8)
H8_21 H 0.4212 0.3490 0.1962
C11_21 C 0.4185(3) 0.3420(3) 0.22868(7)
H9_21 H 0.3717 0.3311 0.2318
C12_22 C 0.5274(2) 0.3701(3) 0.23153(7)
H10_22 H 0.5705 0.3837 0.2374
C13_20 C 0.4670(2) 0.3488(2) 0.26588(7)
C14_20 C 0.4175(3) 0.3068(3) 0.27558(8)
H11_20 H 0.3872 0.2794 0.2673
C15_20 C 0.4123(3) 0.3050(4) 0.29782(8)
H12_20 H 0.3781 0.2769 0.3044
C16_20 C 0.4575(2) 0.3446(3) 0.30998(7)
C17_21 C 0.5070(3) 0.3853(3) 0.30026(7)
H13_21 H 0.5381 0.4116 0.3086
C18_21 C 0.5122(2) 0.3884(3) 0.27837(7)
H14_21 H 0.5461 0.4171 0.2720
C19_22 C 0.2563(2) 0.0775(2) 0.43173(8)
C20_22 C 0.3239(2) 0.0375(2) 0.43211(8)
C22_22 C 0.3683(2) 0.0429(2) 0.44939(9)
H16_22 H 0.3558 0.0718 0.4609
C25_22 C 0.4316(2) 0.0060(2) 0.44998(7)
H17_22 H 0.4616 0.0114 0.4617
N1_22 N 0.16110(18) 0.2341(2) 0.40775(5)
N2_18 N 0.22143(18) 0.27818(16) 0.38101(5)
N4_21 N 0.4717(2) 0.3505(2) 0.24334(6)
O1_22 O 0.21786(17) 0.07417(15) 0.41566(6)
O2_22 O 0.24020(18) 0.11533(16) 0.44765(6)
O5_20 O 0.45855(18) 0.3420(3) 0.33207(5)
O6_14 O 0.02902(16) 0.12548(15) 0.42022(4)
O7_14 O 0.06048(17) 0.06828(16) 0.44883(5)
C21_21 C 0.3438(3) 0.9940(2) 0.41530(8)
H15_21 H 0.3145 0.9902 0.4034
C23_23 C 0.5180(2) 0.9207(2) 0.43421(6)
C24_21 C 0.4506(2) 0.9614(2) 0.43344(6)
C26_21 C 0.40677(17) 0.95590(16) 0.41591(5)
H18_21 H 0.4192 0.9268 0.4045
O3_15 O 0.52902(16) 0.87452(15) 0.42022(4)
O4_15 O 0.56048(17) 0.93172(16) 0.44883(5)
Cd3_15 Cd 0.636827(16) 0.843190(15) 0.434699(4)
C1_19 C 0.8826(3) 0.2258(2) 0.39524(7)
H1_19 H 0.9305 0.2184 0.3978
C2_19 C 0.8468(3) 0.1992(2) 0.37902(7)
H2_19 H 0.8647 0.1703 0.3682
C3_23 C 0.7773(3) 0.2632(2) 0.39841(7)
H3_23 H 0.7374 0.2871 0.4032
C4_21 C 0.7184(2) 0.2066(2) 0.36739(6)
C5_21 C 0.7176(3) 0.1450(3) 0.35617(7)
H4_19 H 0.7557 0.1140 0.3568
C6_21 C 0.6579(3) 0.1292(3) 0.34370(8)
H5_21 H 0.6561 0.0871 0.3360
C7_21 C 0.6032(4) 0.1747(3) 0.34284(7)
C8_21 C 0.6064(4) 0.2395(3) 0.35322(8)
H6_23 H 0.5701 0.2723 0.3516
C9_23 C 0.6648(3) 0.2546(2) 0.36603(7)
H7_23 H 0.6672 0.2970 0.3736
C10_22 C 0.5541(3) 0.1477(3) 0.20908(8)
H8_22 H 0.5788 0.1510 0.1962
C11_22 C 0.5815(3) 0.1580(3) 0.22868(7)
H9_22 H 0.6283 0.1689 0.2318
C12_23 C 0.4726(2) 0.1299(3) 0.23153(7)
H10_23 H 0.4295 0.1163 0.2374
C13_21 C 0.5330(2) 0.1512(2) 0.26588(7)
C14_21 C 0.5825(3) 0.1932(3) 0.27558(8)
H11_21 H 0.6128 0.2206 0.2673
C15_21 C 0.5877(3) 0.1950(4) 0.29782(8)
H12_21 H 0.6219 0.2231 0.3044
C16_21 C 0.5425(2) 0.1554(3) 0.30998(7)
C17_22 C 0.4930(3) 0.1147(3) 0.30026(7)
H13_22 H 0.4619 0.0884 0.3086
C18_22 C 0.4878(2) 0.1116(3) 0.27837(7)
H14_22 H 0.4539 0.0829 0.2720
C19_23 C 0.7437(2) 0.4225(2) 0.43173(8)
C20_23 C 0.6761(2) 0.4625(2) 0.43211(8)
C21_22 C 0.6562(3) 0.5060(2) 0.41530(8)
H15_22 H 0.6855 0.5098 0.4034
C22_23 C 0.6317(2) 0.4571(2) 0.44939(9)
H16_23 H 0.6442 0.4282 0.4609
C23_24 C 0.4820(2) 0.5793(2) 0.43421(6)
C24_22 C 0.5494(2) 0.5386(2) 0.43344(6)
C25_23 C 0.5684(2) 0.4940(2) 0.44998(7)
H17_23 H 0.5384 0.4886 0.4617
C26_22 C 0.59323(17) 0.54410(16) 0.41591(5)
H18_22 H 0.5808 0.5732 0.4045
N1_23 N 0.83890(18) 0.2659(2) 0.40775(5)
N2_19 N 0.77857(18) 0.22182(16) 0.38101(5)
N4_22 N 0.5283(2) 0.1495(2) 0.24334(6)
O1_23 O 0.78214(17) 0.42583(15) 0.41566(6)
O2_23 O 0.75980(18) 0.38467(16) 0.44765(6)
O3_16 O 0.47098(16) 0.62548(15) 0.42022(4)
O4_16 O 0.43952(17) 0.56828(16) 0.44883(5)
O5_21 O 0.54145(18) 0.1580(3) 0.33207(5)
Cd3_16 Cd 0.363173(16) 0.656810(15) 0.434699(4)
O6_15 O 0.97098(16) 0.37452(15) 0.42022(4)
O7_15 O 0.93952(17) 0.43172(16) 0.44883(5)
C1_20 C 0.4758(2) 0.1326(3) 0.64524(7)
H1_20 H 0.4684 0.1805 0.6478
C2_20 C 0.4492(2) 0.0968(3) 0.62902(7)
H2_20 H 0.4203 0.1147 0.6182
C3_24 C 0.5132(2) 0.0273(3) 0.64841(7)
H4_20 H 0.3640 0.0057 0.6068
N1_24 N 0.5159(2) 0.08890(18) 0.65775(5)
N2_20 N 0.47182(16) 0.02857(18) 0.63101(5)
O1_24 O 0.67583(15) 0.03214(17) 0.66566(6)
O2_24 O 0.63467(16) 0.00980(18) 0.69765(6)
N5_14 N 0.5154(2) 0.1319(2) 0.71115(5)
H3_24 H 0.5371 0.9874 0.6532
C4_22 C 0.4566(2) 0.9684(2) 0.61739(6)
C5_22 C 0.3950(3) 0.9676(3) 0.60617(7)
C6_22 C 0.3792(3) 0.9079(3) 0.59370(8)
H5_22 H 0.3371 0.9061 0.5860
C7_22 C 0.4247(3) 0.8532(4) 0.59284(7)
C8_22 C 0.4895(3) 0.8564(4) 0.60322(8)
H6_24 H 0.5223 0.8201 0.6016
C9_24 C 0.5046(2) 0.9148(3) 0.61603(7)
H7_24 H 0.5470 0.9172 0.6236
C10_23 C 0.3977(3) 0.8041(3) 0.45908(8)
H8_23 H 0.4010 0.8288 0.4462
C11_23 C 0.4080(3) 0.8315(3) 0.47868(7)
H9_23 H 0.4189 0.8783 0.4818
C12_24 C 0.3799(3) 0.7226(2) 0.48153(7)
H10_24 H 0.3663 0.6795 0.4874
C13_22 C 0.4012(2) 0.7830(2) 0.51588(7)
C14_22 C 0.4432(3) 0.8325(3) 0.52558(8)
H11_22 H 0.4706 0.8628 0.5173
C15_22 C 0.4450(4) 0.8377(3) 0.54782(8)
H12_22 H 0.4731 0.8719 0.5544
C16_22 C 0.4054(3) 0.7925(2) 0.55998(7)
C17_23 C 0.3647(3) 0.7430(3) 0.55026(7)
H13_23 H 0.3384 0.7119 0.5586
C18_23 C 0.3616(3) 0.7378(2) 0.52837(7)
H14_23 H 0.3329 0.7039 0.5220
C19_24 C 0.6725(2) 0.9937(2) 0.68173(8)
C20_24 C 0.7125(2) 0.9261(2) 0.68211(8)
C21_23 C 0.7560(2) 0.9062(3) 0.66530(8)
H15_23 H 0.7598 0.9355 0.6534
C22_24 C 0.7071(2) 0.8817(2) 0.69939(9)
H16_24 H 0.6782 0.8942 0.7109
C23_25 C 0.8293(2) 0.7320(2) 0.68421(6)
C24_23 C 0.7886(2) 0.7994(2) 0.68344(6)
C25_24 C 0.7440(2) 0.8184(2) 0.69998(7)
H17_24 H 0.7386 0.7884 0.7117
C26_23 C 0.79410(16) 0.84323(17) 0.66591(5)
H18_23 H 0.8232 0.8308 0.6545
N3_11 N 0.3819(2) 0.7346(2) 0.46115(5)
N4_23 N 0.3995(2) 0.7783(2) 0.49334(6)
O5_22 O 0.4080(3) 0.79145(18) 0.58207(5)
C23_26 C 0.0180(2) 0.0793(2) 0.43421(6)
C12_25 C 0.0274(2) 0.6299(3) 0.23153(7)
H10_25 H 0.0705 0.6163 0.2374
C17_24 C 0.0070(3) 0.6147(3) 0.30026(7)
H13_24 H 0.0381 0.5884 0.3086
C18_24 C 0.0122(2) 0.6116(3) 0.27837(7)
H14_24 H 0.0461 0.5829 0.2720
N3_12 N 0.0154(2) 0.6319(2) 0.21115(5)
C1_21 C 0.6174(3) 0.7258(2) 0.39524(7)
H1_21 H 0.5695 0.7184 0.3978
C2_21 C 0.6532(3) 0.6992(2) 0.37902(7)
H2_21 H 0.6353 0.6703 0.3682
C3_25 C 0.7227(3) 0.7632(2) 0.39841(7)
H3_25 H 0.7626 0.7871 0.4032
C4_23 C 0.7816(2) 0.7066(2) 0.36739(6)
C5_23 C 0.7824(3) 0.6450(3) 0.35617(7)
H4_21 H 0.7443 0.6140 0.3568
C6_23 C 0.8421(3) 0.6292(3) 0.34370(8)
H5_23 H 0.8439 0.5871 0.3360
C7_23 C 0.8968(4) 0.6747(3) 0.34284(7)
C8_23 C 0.8936(4) 0.7395(3) 0.35322(8)
H6_25 H 0.9299 0.7723 0.3516
C9_25 C 0.8352(3) 0.7546(2) 0.36603(7)
H7_25 H 0.8328 0.7970 0.3736
C10_24 C 0.9459(3) 0.6477(3) 0.20908(8)
H8_24 H 0.9212 0.6510 0.1962
C11_24 C 0.9185(3) 0.6580(3) 0.22868(7)
H9_24 H 0.8717 0.6689 0.2318
C13_23 C 0.9670(2) 0.6512(2) 0.26588(7)
C14_23 C 0.9175(3) 0.6932(3) 0.27558(8)
H11_23 H 0.8872 0.7206 0.2673
C15_23 C 0.9123(3) 0.6950(4) 0.29782(8)
H12_23 H 0.8781 0.7231 0.3044
C16_23 C 0.9575(2) 0.6554(3) 0.30998(7)
C19_25 C 0.7563(2) 0.9225(2) 0.43173(8)
C20_25 C 0.8239(2) 0.9625(2) 0.43211(8)
C22_25 C 0.8683(2) 0.9571(2) 0.44939(9)
H16_25 H 0.8558 0.9282 0.4609
C25_25 C 0.9316(2) 0.9940(2) 0.44998(7)
H17_25 H 0.9616 0.9886 0.4617
N1_25 N 0.66110(18) 0.7659(2) 0.40775(5)
N2_21 N 0.72143(18) 0.72182(16) 0.38101(5)
N4_24 N 0.9717(2) 0.6495(2) 0.24334(6)
O1_25 O 0.71786(17) 0.92583(15) 0.41566(6)
O2_25 O 0.74020(18) 0.88467(16) 0.44765(6)
O5_23 O 0.95855(18) 0.6580(3) 0.33207(5)
N5_15 N 0.6181(2) 0.7654(2) 0.46115(5)
C1_22 C 0.5242(2) 0.3674(3) 0.64524(7)
H1_22 H 0.5316 0.3195 0.6478
C2_22 C 0.5508(2) 0.4032(3) 0.62902(7)
H2_22 H 0.5797 0.3853 0.6182
C3_26 C 0.4868(2) 0.4727(3) 0.64841(7)
H3_26 H 0.4629 0.5126 0.6532
C4_24 C 0.5434(2) 0.5316(2) 0.61739(6)
C5_24 C 0.6050(3) 0.5324(3) 0.60617(7)
H4_22 H 0.6360 0.4943 0.6068
C6_24 C 0.6208(3) 0.5921(3) 0.59370(8)
H5_24 H 0.6629 0.5939 0.5860
C7_24 C 0.5753(3) 0.6468(4) 0.59284(7)
C8_24 C 0.5105(3) 0.6436(4) 0.60322(8)
H6_26 H 0.4777 0.6799 0.6016
C9_26 C 0.4954(2) 0.5852(3) 0.61603(7)
H7_26 H 0.4530 0.5828 0.6236
C10_25 C 0.6023(3) 0.6959(3) 0.45908(8)
H8_25 H 0.5990 0.6712 0.4462
C11_25 C 0.5920(3) 0.6685(3) 0.47868(7)
H9_25 H 0.5811 0.6217 0.4818
C12_26 C 0.6201(3) 0.7774(2) 0.48153(7)
H10_26 H 0.6337 0.8205 0.4874
C13_24 C 0.5988(2) 0.7170(2) 0.51588(7)
C14_24 C 0.5568(3) 0.6675(3) 0.52558(8)
H11_24 H 0.5294 0.6372 0.5173
C15_24 C 0.5550(4) 0.6623(3) 0.54782(8)
H12_24 H 0.5269 0.6281 0.5544
C16_24 C 0.5946(3) 0.7075(2) 0.55998(7)
C17_25 C 0.6353(3) 0.7570(3) 0.55026(7)
H13_25 H 0.6616 0.7881 0.5586
C18_25 C 0.6384(3) 0.7622(2) 0.52837(7)
H14_25 H 0.6671 0.7961 0.5220
C19_26 C 0.3275(2) 0.5063(2) 0.68173(8)
C20_26 C 0.2875(2) 0.5739(2) 0.68211(8)
C21_24 C 0.2440(2) 0.5938(3) 0.66530(8)
H15_24 H 0.2402 0.5645 0.6534
C22_26 C 0.2929(2) 0.6183(2) 0.69939(9)
H16_26 H 0.3218 0.6058 0.7109
C23_27 C 0.1707(2) 0.7680(2) 0.68421(6)
C24_24 C 0.2114(2) 0.7006(2) 0.68344(6)
C25_26 C 0.2560(2) 0.6816(2) 0.69998(7)
H17_26 H 0.2614 0.7116 0.7117
C26_24 C 0.20590(16) 0.65677(17) 0.66591(5)
H18_24 H 0.1768 0.6692 0.6545
N1_26 N 0.4841(2) 0.41110(18) 0.65775(5)
N2_22 N 0.52818(16) 0.47143(18) 0.63101(5)
N4_25 N 0.6005(2) 0.7217(2) 0.49334(6)
O1_26 O 0.32417(15) 0.46786(17) 0.66566(6)
O2_26 O 0.36533(16) 0.49020(18) 0.69765(6)
O5_24 O 0.5920(3) 0.70855(18) 0.58207(5)
N5_16 N 0.4846(2) 0.3681(2) 0.71115(5)
C1_23 C 0.8826(3) 0.2742(2) 0.89524(7)
H1_23 H 0.9305 0.2816 0.8978
C2_23 C 0.8468(3) 0.3008(2) 0.87902(7)
H2_23 H 0.8647 0.3297 0.8682
C3_27 C 0.7773(3) 0.2368(2) 0.89841(7)
H3_27 H 0.7374 0.2129 0.9032
C4_25 C 0.7184(2) 0.2934(2) 0.86739(6)
C5_25 C 0.7176(3) 0.3550(3) 0.85617(7)
H4_23 H 0.7557 0.3860 0.8568
C6_25 C 0.6579(3) 0.3708(3) 0.84370(8)
H5_25 H 0.6561 0.4129 0.8360
C7_25 C 0.6032(4) 0.3253(3) 0.84284(7)
C8_25 C 0.6064(4) 0.2605(3) 0.85322(8)
H6_27 H 0.5701 0.2277 0.8516
C9_27 C 0.6648(3) 0.2454(2) 0.86603(7)
H7_27 H 0.6672 0.2030 0.8736
C10_26 C 0.5541(3) 0.3523(3) 0.70908(8)
H8_26 H 0.5788 0.3490 0.6962
C11_26 C 0.5815(3) 0.3420(3) 0.72868(7)
H9_26 H 0.6283 0.3311 0.7318
C12_27 C 0.4726(2) 0.3701(3) 0.73153(7)
H10_27 H 0.4295 0.3837 0.7374
C13_25 C 0.5330(2) 0.3488(2) 0.76588(7)
C14_25 C 0.5825(3) 0.3068(3) 0.77558(8)
H11_25 H 0.6128 0.2794 0.7673
C15_25 C 0.5877(3) 0.3050(4) 0.79782(8)
H12_25 H 0.6219 0.2769 0.8044
C16_25 C 0.5425(2) 0.3446(3) 0.80998(7)
C17_26 C 0.4930(3) 0.3853(3) 0.80026(7)
H13_26 H 0.4619 0.4116 0.8086
C18_26 C 0.4878(2) 0.3884(3) 0.77837(7)
H14_26 H 0.4539 0.4171 0.7720
C19_27 C 0.7437(2) 0.0775(2) 0.93173(8)
C20_27 C 0.6761(2) 0.0375(2) 0.93211(8)
C22_27 C 0.6317(2) 0.0429(2) 0.94939(9)
H16_27 H 0.6442 0.0718 0.9609
C25_27 C 0.5684(2) 0.0060(2) 0.94998(7)
H17_27 H 0.5384 0.0114 0.9617
N1_27 N 0.83890(18) 0.2341(2) 0.90775(5)
N2_23 N 0.77857(18) 0.27818(16) 0.88101(5)
N4_26 N 0.5283(2) 0.3505(2) 0.74334(6)
O1_27 O 0.78214(17) 0.07417(15) 0.91566(6)
O2_27 O 0.75980(18) 0.11533(16) 0.94765(6)
O5_25 O 0.54145(18) 0.3420(3) 0.83207(5)
N5_17 N 0.8819(2) 0.2346(2) 0.96115(5)
C3_28 C 0.0132(2) 0.5273(3) 0.14841(7)
H3_28 H 0.0371 0.4874 0.1532
H6_28 H 0.0223 0.3201 0.1016
C9_28 C 0.0046(2) 0.4148(3) 0.11603(7)
H7_28 H 0.0470 0.4172 0.1236
C19_28 C 0.1725(2) 0.4937(2) 0.18173(8)
C20_28 C 0.2125(2) 0.4261(2) 0.18211(8)
C21_25 C 0.2560(2) 0.4062(3) 0.16530(8)
H15_25 H 0.2598 0.4355 0.1534
C22_28 C 0.2071(2) 0.3817(2) 0.19939(9)
H16_28 H 0.1782 0.3942 0.2109
C23_28 C 0.3293(2) 0.2320(2) 0.18421(6)
C24_25 C 0.2886(2) 0.2994(2) 0.18344(6)
C25_28 C 0.2440(2) 0.3184(2) 0.19998(7)
H17_28 H 0.2386 0.2884 0.2117
C26_25 C 0.29410(16) 0.34323(17) 0.16591(5)
H18_25 H 0.3232 0.3308 0.1545
N1_28 N 0.0159(2) 0.58890(18) 0.15775(5)
O1_28 O 0.17583(15) 0.53214(17) 0.16566(6)
O2_28 O 0.13467(16) 0.50980(18) 0.19765(6)
C10_27 C 0.8977(3) 0.3041(3) 0.95908(8)
H8_27 H 0.9010 0.3288 0.9462
C11_27 C 0.9080(3) 0.3315(3) 0.97868(7)
H9_27 H 0.9189 0.3783 0.9818
C12_28 C 0.8799(3) 0.2226(2) 0.98153(7)
H10_28 H 0.8663 0.1795 0.9874
N4_27 N 0.8995(2) 0.2783(2) 0.99334(6)
C1_24 C 0.1174(3) 0.2258(2) 0.89524(7)
H1_24 H 0.0695 0.2184 0.8978
C2_24 C 0.1532(3) 0.1992(2) 0.87902(7)
H2_24 H 0.1353 0.1703 0.8682
C3_29 C 0.2227(3) 0.2632(2) 0.89841(7)
H3_29 H 0.2626 0.2871 0.9032
C4_26 C 0.2816(2) 0.2066(2) 0.86739(6)
C5_26 C 0.2824(3) 0.1450(3) 0.85617(7)
H4_24 H 0.2443 0.1140 0.8568
C6_26 C 0.3421(3) 0.1292(3) 0.84370(8)
H5_26 H 0.3439 0.0871 0.8360
C7_26 C 0.3968(4) 0.1747(3) 0.84284(7)
C8_26 C 0.3936(4) 0.2395(3) 0.85322(8)
H6_29 H 0.4299 0.2723 0.8516
C9_29 C 0.3352(3) 0.2546(2) 0.86603(7)
H7_29 H 0.3328 0.2970 0.8736
C10_28 C 0.4459(3) 0.1477(3) 0.70908(8)
H8_28 H 0.4212 0.1510 0.6962
C11_28 C 0.4185(3) 0.1580(3) 0.72868(7)
H9_28 H 0.3717 0.1689 0.7318
C12_29 C 0.5274(2) 0.1299(3) 0.73153(7)
H10_29 H 0.5705 0.1163 0.7374
C13_26 C 0.4670(2) 0.1512(2) 0.76588(7)
C14_26 C 0.4175(3) 0.1932(3) 0.77558(8)
H11_26 H 0.3872 0.2206 0.7673
C15_26 C 0.4123(3) 0.1950(4) 0.79782(8)
H12_26 H 0.3781 0.2231 0.8044
C16_26 C 0.4575(2) 0.1554(3) 0.80998(7)
C17_27 C 0.5070(3) 0.1147(3) 0.80026(7)
H13_27 H 0.5381 0.0884 0.8086
C18_27 C 0.5122(2) 0.1116(3) 0.77837(7)
H14_27 H 0.5461 0.0829 0.7720
C19_29 C 0.2563(2) 0.4225(2) 0.93173(8)
C20_29 C 0.3239(2) 0.4625(2) 0.93211(8)
C21_26 C 0.3438(3) 0.5060(2) 0.91530(8)
H15_26 H 0.3145 0.5098 0.9034
C22_29 C 0.3683(2) 0.4571(2) 0.94939(9)
H16_29 H 0.3558 0.4282 0.9609
C23_29 C 0.5180(2) 0.5793(2) 0.93421(6)
C24_26 C 0.4506(2) 0.5386(2) 0.93344(6)
C25_29 C 0.4316(2) 0.4940(2) 0.94998(7)
H17_29 H 0.4616 0.4886 0.9617
C26_26 C 0.40677(17) 0.54410(16) 0.91591(5)
H18_26 H 0.4192 0.5732 0.9045
N1_29 N 0.16110(18) 0.2659(2) 0.90775(5)
N2_24 N 0.22143(18) 0.22182(16) 0.88101(5)
N4_28 N 0.4717(2) 0.1495(2) 0.74334(6)
O1_29 O 0.21786(17) 0.42583(15) 0.91566(6)
O2_29 O 0.24020(18) 0.38467(16) 0.94765(6)
O5_26 O 0.45855(18) 0.1580(3) 0.83207(5)
N5_18 N 0.1181(2) 0.2654(2) 0.96115(5)
C10_29 C 0.1023(3) 0.1959(3) 0.95908(8)
H8_29 H 0.0990 0.1712 0.9462
C11_29 C 0.0920(3) 0.1685(3) 0.97868(7)
H9_29 H 0.0811 0.1217 0.9818
C12_30 C 0.1201(3) 0.2774(2) 0.98153(7)
H10_30 H 0.1337 0.3205 0.9874
N4_29 N 0.1005(2) 0.2217(2) 0.99334(6)
H3_30 H 0.9629 0.0126 0.1532
H6_30 H 0.9777 0.1799 0.1016
C9_30 C 0.9954(2) 0.0852(3) 0.11603(7)
H7_30 H 0.9530 0.0828 0.1236
C19_30 C 0.8275(2) 0.0063(2) 0.18173(8)
C20_30 C 0.7875(2) 0.0739(2) 0.18211(8)
C21_27 C 0.7440(2) 0.0938(3) 0.16530(8)
H15_27 H 0.7402 0.0645 0.1534
C22_30 C 0.7929(2) 0.1183(2) 0.19939(9)
H16_30 H 0.8218 0.1058 0.2109
C23_30 C 0.6707(2) 0.2680(2) 0.18421(6)
C24_27 C 0.7114(2) 0.2006(2) 0.18344(6)
C25_30 C 0.7560(2) 0.1816(2) 0.19998(7)
H17_30 H 0.7614 0.2116 0.2117
C26_27 C 0.70590(16) 0.15677(17) 0.16591(5)
H18_27 H 0.6768 0.1692 0.1545
C3_30 C 0.9868(2) 0.9727(3) 0.14841(7)
N1_30 N 0.9841(2) 0.91110(18) 0.15775(5)
O1_30 O 0.82417(15) 0.96786(17) 0.16566(6)
O2_30 O 0.86533(16) 0.99020(18) 0.19765(6)
N5_19 N 0.9846(2) 0.8681(2) 0.21115(5)
C1_25 C 0.3826(3) 0.7742(2) 0.39524(7)
H1_25 H 0.4305 0.7816 0.3978
C2_25 C 0.3468(3) 0.8008(2) 0.37902(7)
H2_25 H 0.3647 0.8297 0.3682
C3_31 C 0.2773(3) 0.7368(2) 0.39841(7)
H3_31 H 0.2374 0.7129 0.4032
C4_27 C 0.2184(2) 0.7934(2) 0.36739(6)
C5_27 C 0.2176(3) 0.8550(3) 0.35617(7)
H4_25 H 0.2557 0.8860 0.3568
C6_27 C 0.1579(3) 0.8708(3) 0.34370(8)
H5_27 H 0.1561 0.9129 0.3360
C7_27 C 0.1032(4) 0.8253(3) 0.34284(7)
C8_27 C 0.1064(4) 0.7605(3) 0.35322(8)
H6_31 H 0.0701 0.7277 0.3516
C9_31 C 0.1648(3) 0.7454(2) 0.36603(7)
H7_31 H 0.1672 0.7030 0.3736
C10_30 C 0.0541(3) 0.8523(3) 0.20908(8)
H8_30 H 0.0788 0.8490 0.1962
C11_30 C 0.0815(3) 0.8420(3) 0.22868(7)
H9_30 H 0.1283 0.8311 0.2318
C13_27 C 0.0330(2) 0.8488(2) 0.26588(7)
C14_27 C 0.0825(3) 0.8068(3) 0.27558(8)
H11_27 H 0.1128 0.7794 0.2673
C15_27 C 0.0877(3) 0.8050(4) 0.29782(8)
H12_27 H 0.1219 0.7769 0.3044
C16_27 C 0.0425(2) 0.8446(3) 0.30998(7)
C19_31 C 0.2437(2) 0.5775(2) 0.43173(8)
C20_31 C 0.1761(2) 0.5375(2) 0.43211(8)
C21_28 C 0.1562(3) 0.4940(2) 0.41530(8)
H15_28 H 0.1855 0.4902 0.4034
C22_31 C 0.1317(2) 0.5429(2) 0.44939(9)
H16_31 H 0.1442 0.5718 0.4609
C24_28 C 0.0494(2) 0.4614(2) 0.43344(6)
C25_31 C 0.0684(2) 0.5060(2) 0.44998(7)
H17_31 H 0.0384 0.5114 0.4617
C26_28 C 0.09323(17) 0.45590(16) 0.41591(5)
H18_28 H 0.0808 0.4268 0.4045
N1_31 N 0.33890(18) 0.7341(2) 0.40775(5)
N2_25 N 0.27857(18) 0.77818(16) 0.38101(5)
N4_30 N 0.0283(2) 0.8505(2) 0.24334(6)
O1_31 O 0.28214(17) 0.57417(15) 0.41566(6)
O2_31 O 0.25980(18) 0.61533(16) 0.44765(6)
O5_27 O 0.04145(18) 0.8420(3) 0.33207(5)
C12_31 C 0.9726(2) 0.8701(3) 0.23153(7)
H10_31 H 0.9295 0.8837 0.2374
C17_28 C 0.9930(3) 0.8853(3) 0.30026(7)
H13_28 H 0.9619 0.9116 0.3086
C18_28 C 0.9878(2) 0.8884(3) 0.27837(7)
H14_28 H 0.9539 0.9171 0.2720
C23_31 C 0.9820(2) 0.4207(2) 0.43421(6)
C1_26 C 0.9758(2) 0.8674(3) 0.64524(7)
H1_26 H 0.9684 0.8195 0.6478
C2_26 C 0.9492(2) 0.9032(3) 0.62902(7)
H2_26 H 0.9203 0.8853 0.6182
H4_26 H 0.8640 0.9943 0.6068
N2_26 N 0.97182(16) 0.97143(18) 0.63101(5)
C21_29 C 0.1562(3) 0.0060(2) 0.91530(8)
H15_29 H 0.1855 0.0098 0.9034
C24_29 C 0.0494(2) 0.0386(2) 0.93344(6)
C26_29 C 0.09323(17) 0.04410(16) 0.91591(5)
H18_29 H 0.0808 0.0732 0.9045
C1_27 C 0.3826(3) 0.7258(2) 0.89524(7)
H1_27 H 0.4305 0.7184 0.8978
C2_27 C 0.3468(3) 0.6992(2) 0.87902(7)
H2_27 H 0.3647 0.6703 0.8682
C3_32 C 0.2773(3) 0.7632(2) 0.89841(7)
H3_32 H 0.2374 0.7871 0.9032
C4_28 C 0.2184(2) 0.7066(2) 0.86739(6)
C5_28 C 0.2176(3) 0.6450(3) 0.85617(7)
H4_27 H 0.2557 0.6140 0.8568
C6_28 C 0.1579(3) 0.6292(3) 0.84370(8)
H5_28 H 0.1561 0.5871 0.8360
C7_28 C 0.1032(4) 0.6747(3) 0.84284(7)
C8_28 C 0.1064(4) 0.7395(3) 0.85322(8)
H6_32 H 0.0701 0.7723 0.8516
C9_32 C 0.1648(3) 0.7546(2) 0.86603(7)
H7_32 H 0.1672 0.7970 0.8736
C10_31 C 0.0541(3) 0.6477(3) 0.70908(8)
H8_31 H 0.0788 0.6510 0.6962
C11_31 C 0.0815(3) 0.6580(3) 0.72868(7)
H9_31 H 0.1283 0.6689 0.7318
C13_28 C 0.0330(2) 0.6512(2) 0.76588(7)
C14_28 C 0.0825(3) 0.6932(3) 0.77558(8)
H11_28 H 0.1128 0.7206 0.7673
C15_28 C 0.0877(3) 0.6950(4) 0.79782(8)
H12_28 H 0.1219 0.7231 0.8044
C16_28 C 0.0425(2) 0.6554(3) 0.80998(7)
C19_32 C 0.2437(2) 0.9225(2) 0.93173(8)
C20_32 C 0.1761(2) 0.9625(2) 0.93211(8)
C22_32 C 0.1317(2) 0.9571(2) 0.94939(9)
H16_32 H 0.1442 0.9282 0.9609
C25_32 C 0.0684(2) 0.9940(2) 0.94998(7)
H17_32 H 0.0384 0.9886 0.9617
Cd1_10 Cd 0.363173(16) 0.843190(15) 0.934699(4)
N1_32 N 0.33890(18) 0.7659(2) 0.90775(5)
N2_27 N 0.27857(18) 0.72182(16) 0.88101(5)
N4_31 N 0.0283(2) 0.6495(2) 0.74334(6)
O1_32 O 0.28214(17) 0.92583(15) 0.91566(6)
O2_32 O 0.25980(18) 0.88467(16) 0.94765(6)
O5_28 O 0.04145(18) 0.6580(3) 0.83207(5)
N5_20 N 0.3819(2) 0.7654(2) 0.96115(5)
O6_16 O 0.47098(16) 0.87452(15) 0.92022(4)
O7_16 O 0.43952(17) 0.93172(16) 0.94883(5)
C10_32 C 0.3977(3) 0.6959(3) 0.95908(8)
H8_32 H 0.4010 0.6712 0.9462
C11_32 C 0.4080(3) 0.6685(3) 0.97868(7)
H9_32 H 0.4189 0.6217 0.9818
C12_32 C 0.3799(3) 0.7774(2) 0.98153(7)
H10_32 H 0.3663 0.8205 0.9874
N4_32 N 0.3995(2) 0.7217(2) 0.99334(6)
C21_30 C 0.6562(3) 0.9940(2) 0.91530(8)
H15_30 H 0.6855 0.9902 0.9034
C23_32 C 0.4820(2) 0.9207(2) 0.93421(6)
C24_30 C 0.5494(2) 0.9614(2) 0.93344(6)
C26_30 C 0.59323(17) 0.95590(16) 0.91591(5)
H18_30 H 0.5808 0.9268 0.9045
C1_28 C 0.0242(2) 0.3674(3) 0.85476(7)
H1_28 H 0.0316 0.3195 0.8522
C2_28 C 0.0508(2) 0.4032(3) 0.87098(7)
H2_28 H 0.0797 0.3853 0.8818
C4_29 C 0.0434(2) 0.5316(2) 0.88261(6)
C5_29 C 0.1050(3) 0.5324(3) 0.89383(7)
H4_28 H 0.1360 0.4943 0.8932
C6_29 C 0.1208(3) 0.5921(3) 0.90630(8)
H5_29 H 0.1629 0.5939 0.9140
C7_29 C 0.0753(3) 0.6468(4) 0.90716(7)
C8_29 C 0.0105(3) 0.6436(4) 0.89678(8)
C13_29 C 0.0988(2) 0.7170(2) 0.98412(7)
C14_29 C 0.0568(3) 0.6675(3) 0.97442(8)
H11_29 H 0.0294 0.6372 0.9827
C15_29 C 0.0550(4) 0.6623(3) 0.95218(8)
H12_29 H 0.0269 0.6281 0.9456
C16_29 C 0.0946(3) 0.7075(2) 0.94002(7)
C17_29 C 0.1353(3) 0.7570(3) 0.94974(7)
H13_29 H 0.1616 0.7881 0.9414
C18_29 C 0.1384(3) 0.7622(2) 0.97163(7)
H14_29 H 0.1671 0.7961 0.9780
N2_28 N 0.02818(16) 0.47143(18) 0.86899(5)
O5_29 O 0.0920(3) 0.70855(18) 0.91793(5)
C1_29 C 0.9758(2) 0.1326(3) 0.85476(7)
H1_29 H 0.9684 0.1805 0.8522
C2_29 C 0.9492(2) 0.0968(3) 0.87098(7)
H2_29 H 0.9203 0.1147 0.8818
H4_29 H 0.8640 0.0057 0.8932
N2_29 N 0.97182(16) 0.02857(18) 0.86899(5)
C4_30 C 0.9566(2) 0.9684(2) 0.88261(6)
C5_30 C 0.8950(3) 0.9676(3) 0.89383(7)
C6_30 C 0.8792(3) 0.9079(3) 0.90630(8)
H5_30 H 0.8371 0.9061 0.9140
C7_30 C 0.9247(3) 0.8532(4) 0.90716(7)
C8_30 C 0.9895(3) 0.8564(4) 0.89678(8)
C13_30 C 0.9012(2) 0.7830(2) 0.98412(7)
C14_30 C 0.9432(3) 0.8325(3) 0.97442(8)
H11_30 H 0.9706 0.8628 0.9827
C15_30 C 0.9450(4) 0.8377(3) 0.95218(8)
H12_30 H 0.9731 0.8719 0.9456
C16_30 C 0.9054(3) 0.7925(2) 0.94002(7)
C17_30 C 0.8647(3) 0.7430(3) 0.94974(7)
H13_30 H 0.8384 0.7119 0.9414
C18_30 C 0.8616(3) 0.7378(2) 0.97163(7)
H14_30 H 0.8329 0.7039 0.9780
O5_30 O 0.9080(3) 0.79145(18) 0.91793(5)
C21_31 C 0.8438(3) 0.0060(2) 0.41530(8)
H15_31 H 0.8145 0.0098 0.4034
C24_31 C 0.9506(2) 0.0386(2) 0.43344(6)
C26_31 C 0.90677(17) 0.04410(16) 0.41591(5)
H18_31 H 0.9192 0.0732 0.4045
C1_30 C 0.0242(2) 0.1326(3) 0.35476(7)
H1_30 H 0.0316 0.1805 0.3522
C2_30 C 0.0508(2) 0.0968(3) 0.37098(7)
H2_30 H 0.0797 0.1147 0.3818
H4_30 H 0.1360 0.0057 0.3932
N2_30 N 0.02818(16) 0.02857(18) 0.36899(5)
C21_32 C 0.8438(3) 0.9940(2) 0.08470(8)
H15_32 H 0.8145 0.9902 0.0966
C24_32 C 0.9506(2) 0.9614(2) 0.06656(6)
C26_32 C 0.90677(17) 0.95590(16) 0.08409(5)
H18_32 H 0.9192 0.9268 0.0955
C1_31 C 0.9758(2) 0.6326(3) 0.14524(7)
H1_31 H 0.9684 0.6805 0.1478
C2_31 C 0.9492(2) 0.5968(3) 0.12902(7)
H2_31 H 0.9203 0.6147 0.1182
C4_31 C 0.9566(2) 0.4684(2) 0.11739(6)
C5_31 C 0.8950(3) 0.4676(3) 0.10617(7)
H4_31 H 0.8640 0.5057 0.1068
C6_31 C 0.8792(3) 0.4079(3) 0.09370(8)
H5_31 H 0.8371 0.4061 0.0860
C7_31 C 0.9247(3) 0.3532(4) 0.09284(7)
C8_31 C 0.9895(3) 0.3564(4) 0.10322(8)
C13_31 C 0.9012(2) 0.2830(2) 0.01588(7)
C14_31 C 0.9432(3) 0.3325(3) 0.02558(8)
H11_31 H 0.9706 0.3628 0.0173
C15_31 C 0.9450(4) 0.3377(3) 0.04782(8)
H12_31 H 0.9731 0.3719 0.0544
C16_31 C 0.9054(3) 0.2925(2) 0.05998(7)
C17_31 C 0.8647(3) 0.2430(3) 0.05026(7)
H13_31 H 0.8384 0.2119 0.0586
C18_31 C 0.8616(3) 0.2378(2) 0.02837(7)
H14_31 H 0.8329 0.2039 0.0220
N2_31 N 0.97182(16) 0.52857(18) 0.13101(5)
O5_31 O 0.9080(3) 0.29145(18) 0.08207(5)
C4_32 C 0.0434(2) 0.0316(2) 0.11739(6)
C5_32 C 0.1050(3) 0.0324(3) 0.10617(7)
C6_32 C 0.1208(3) 0.0921(3) 0.09370(8)
H5_32 H 0.1629 0.0939 0.0860
C7_32 C 0.0753(3) 0.1468(4) 0.09284(7)
C8_32 C 0.0105(3) 0.1436(4) 0.10322(8)
C13_32 C 0.0988(2) 0.2170(2) 0.01588(7)
C14_32 C 0.0568(3) 0.1675(3) 0.02558(8)
H11_32 H 0.0294 0.1372 0.0173
C15_32 C 0.0550(4) 0.1623(3) 0.04782(8)
H12_32 H 0.0269 0.1281 0.0544
C16_32 C 0.0946(3) 0.2075(2) 0.05998(7)
C17_32 C 0.1353(3) 0.2570(3) 0.05026(7)
H13_32 H 0.1616 0.2881 0.0586
C18_32 C 0.1384(3) 0.2622(2) 0.02837(7)
H14_32 H 0.1671 0.2961 0.0220
O5_32 O 0.0920(3) 0.20855(18) 0.08207(5)
C1_32 C 0.0242(2) 0.8674(3) 0.14524(7)
H1_32 H 0.0316 0.8195 0.1478
C2_32 C 0.0508(2) 0.9032(3) 0.12902(7)
H2_32 H 0.0797 0.8853 0.1182
H4_32 H 0.1360 0.9943 0.1068
N2_32 N 0.02818(16) 0.97143(18) 0.13101(5)
loop_
_geom_bond_atom_site_label_1
_geom_bond_atom_site_label_2
_geom_bond_site_symmetry_1
_geom_bond_site_symmetry_2
C4 C5 1_555 1_555
C6 C5 1_555 1_555
H5 C6 1_555 1_555
C7 C6 1_555 1_555
C8 C7 1_555 1_555
H6 C8 1_555 1_555
C9 C4 1_555 1_555
H7 C9 1_555 1_555
C10 H8 1_555 1_555
C11 C10 1_555 1_555
H9 C11 1_555 1_555
C12 H10 1_555 1_555
C13 C14 1_555 1_555
C14 H11 1_555 1_555
C15 C14 1_555 1_555
H12 C15 1_555 1_555
C16 C15 1_555 1_555
C17 C16 1_555 1_555
H13 C17 1_555 1_555
C18 C13 1_555 1_555
H14 C18 1_555 1_555
C19 C20 1_555 1_555
C20 C21 1_555 1_555
C21 H15 1_555 1_555
C22 C20 1_555 1_555
H16 C22 1_555 1_555
C23 C24 1_555 1_555
C24 C25 1_555 1_555
C25 C22 1_555 1_555
H17 C25 1_555 1_555
C26 C21 1_555 1_555
H18 C26 1_555 1_555
N3 C10 1_555 1_555
N4 C11 1_555 1_555
O3 C23 1_555 1_555
O4 C23 1_555 1_555
O5 C7 1_555 1_555
Cd2 N3 1_555 1_555
Cd3 O3 1_555 1_555
C8 C9 1_555 1_555
C12 N3 1_555 1_555
C12 N4 1_555 1_555
C13 N4 1_555 1_555
C16 O5 1_555 1_555
C17 C18 1_555 1_555
C24 C26 1_555 1_555
O4 Cd3 1_555 1_555
C1 H1 1_555 1_555
C2 C1 1_555 1_555
H2 C2 1_555 1_555
Cd1 N1 1_555 1_555
N1 C1 1_555 1_555
N2 C2 1_555 1_555
N5 Cd1 1_555 1_555
O6 Cd1 1_555 1_555
O7 Cd1 1_555 1_555
C3 N1 1_555 1_555
C3 N2 1_555 1_555
Cd1 O1 1_555 1_555
Cd1 O2 1_555 1_555
C1_2 H1_2 1_555 1_555
C2_2 C1_2 1_555 1_555
H2_2 C2_2 1_555 1_555
C3_2 H3_2 1_555 1_555
C4_2 C5_2 1_555 1_555
C5_2 H4_2 1_555 1_555
C6_2 C5_2 1_555 1_555
H5_2 C6_2 1_555 1_555
C7_2 C6_2 1_555 1_555
C8_2 C7_2 1_555 1_555
H6_2 C8_2 1_555 1_555
C9_2 C4_2 1_555 1_555
H7_2 C9_2 1_555 1_555
C10_2 H8_2 1_555 1_555
C11_2 C10_2 1_555 1_555
H9_2 C11_2 1_555 1_555
C13_2 C14_2 1_555 1_555
C14_2 H11_2 1_555 1_555
C15_2 C14_2 1_555 1_555
H12_2 C15_2 1_555 1_555
C16_2 C15_2 1_555 1_555
C19_2 C20_2 1_555 1_555
C22_2 C20_2 1_555 1_555
H16_2 C22_2 1_555 1_555
C25_2 C22_2 1_555 1_555
H17_2 C25_2 1_555 1_555
Cd1_2 N1_2 1_555 1_555
N1_2 C1_2 1_555 1_555
N2_2 C2_2 1_555 1_555
N4_2 C11_2 1_555 1_555
O1_2 C19_2 1_555 1_555
O2_2 C19_2 1_555 1_555
O5_2 C7_2 1_555 1_555
N5_2 Cd1_2 1_555 1_555
O6_2 Cd1_2 1_555 1_555
O7_2 Cd1_2 1_555 1_555
C3_2 N1_2 1_555 1_555
C3_2 N2_2 1_555 1_555
C4_2 N2_2 1_555 1_555
C8_2 C9_2 1_555 1_555
C13_2 N4_2 1_555 1_555
C16_2 O5_2 1_555 1_555
Cd1_2 O1_2 1_555 1_555
Cd1_2 O2_2 1_555 1_555
C12_2 H10_2 1_555 1_555
H13_2 C17_2 1_555 1_555
H14_2 C18_2 1_555 1_555
Cd2_2 N3_2 1_555 1_555
C12_2 N3_2 1_555 1_555
C17_2 C18_2 1_555 1_555
O3_2 C23_2 1_555 1_555
O4_2 C23_2 1_555 1_555
Cd3_2 O3_2 1_555 1_555
O4_2 Cd3_2 1_555 1_555
C1_3 H1_3 1_555 1_555
C2_3 C1_3 1_555 1_555
H2_3 C2_3 1_555 1_555
C3_3 H3_3 1_555 1_555
C4_3 C5_3 1_555 1_555
C5_3 H4_3 1_555 1_555
C6_3 C5_3 1_555 1_555
H5_3 C6_3 1_555 1_555
C7_3 C6_3 1_555 1_555
C8_3 C7_3 1_555 1_555
H6_3 C8_3 1_555 1_555
C9_3 C4_3 1_555 1_555
H7_3 C9_3 1_555 1_555
C10_3 H8_3 1_555 1_555
C11_3 C10_3 1_555 1_555
H9_3 C11_3 1_555 1_555
C12_3 H10_3 1_555 1_555
C13_3 C14_3 1_555 1_555
C14_3 H11_3 1_555 1_555
C15_3 C14_3 1_555 1_555
H12_3 C15_3 1_555 1_555
C16_3 C15_3 1_555 1_555
C17_3 C16_3 1_555 1_555
H13_3 C17_3 1_555 1_555
C18_3 C13_3 1_555 1_555
H14_3 C18_3 1_555 1_555
C19_3 C20_3 1_555 1_555
C20_3 C21_2 1_555 1_555
C21_2 H15_2 1_555 1_555
C22_3 C20_3 1_555 1_555
H16_3 C22_3 1_555 1_555
C23_3 C24_2 1_555 1_555
C24_2 C25_3 1_555 1_555
C25_3 C22_3 1_555 1_555
H17_3 C25_3 1_555 1_555
C26_2 C21_2 1_555 1_555
H18_2 C26_2 1_555 1_555
Cd1_3 N1_3 1_555 1_555
N1_3 C1_3 1_555 1_555
N2_3 C2_3 1_555 1_555
N5_2 C10_3 1_555 1_555
N4_3 C11_3 1_555 1_555
O1_3 C19_3 1_555 1_555
O2_3 C19_3 1_555 1_555
O3_3 C23_3 1_555 1_555
O4_3 C23_3 1_555 1_555
O5_3 C7_3 1_555 1_555
Cd3_3 O3_3 1_555 1_555
N5_3 Cd1_3 1_555 1_555
O6_3 Cd1_3 1_555 1_555
O7_3 Cd1_3 1_555 1_555
C3_3 N1_3 1_555 1_555
C3_3 N2_3 1_555 1_555
C4_3 N2_3 1_555 1_555
C8_3 C9_3 1_555 1_555
C12_3 N5_2 1_555 1_555
C12_3 N4_3 1_555 1_555
C13_3 N4_3 1_555 1_555
C16_3 O5_3 1_555 1_555
C17_3 C18_3 1_555 1_555
C24_2 C26_2 1_555 1_555
Cd1_3 O1_3 1_555 1_555
Cd1_3 O2_3 1_555 1_555
O4_3 Cd3_3 1_555 1_555
C1_4 H1_4 1_555 1_555
C2_4 C1_4 1_555 1_555
H2_4 C2_4 1_555 1_555
C3_4 H3_4 1_555 1_555
C4_4 C5_4 1_555 1_555
C5_4 H4_4 1_555 1_555
C6_4 C5_4 1_555 1_555
H5_4 C6_4 1_555 1_555
C7_4 C6_4 1_555 1_555
C8_4 C7_4 1_555 1_555
H6_4 C8_4 1_555 1_555
C9_4 C4_4 1_555 1_555
H7_4 C9_4 1_555 1_555
C10_4 H8_4 1_555 1_555
C11_4 C10_4 1_555 1_555
H9_4 C11_4 1_555 1_555
C12_4 H10_4 1_555 1_555
C13_4 C14_4 1_555 1_555
C14_4 H11_4 1_555 1_555
C15_4 C14_4 1_555 1_555
H12_4 C15_4 1_555 1_555
C16_4 C15_4 1_555 1_555
C17_4 C16_4 1_555 1_555
H13_4 C17_4 1_555 1_555
C18_4 C13_4 1_555 1_555
H14_4 C18_4 1_555 1_555
C19_4 C20_4 1_555 1_555
C22_4 C20_4 1_555 1_555
H16_4 C22_4 1_555 1_555
C25_4 C22_4 1_555 1_555
H17_4 C25_4 1_555 1_555
Cd1_4 N1_4 1_555 1_555
N1_4 C1_4 1_555 1_555
N2_4 C2_4 1_555 1_555
N5_3 C10_4 1_555 1_555
N4_4 C11_4 1_555 1_555
O1_4 C19_4 1_555 1_555
O2_4 C19_4 1_555 1_555
O5_4 C7_4 1_555 1_555
N5_4 Cd1_4 1_555 1_555
O6_4 Cd1_4 1_555 1_555
O7_4 Cd1_4 1_555 1_555
C3_4 N1_4 1_555 1_555
C3_4 N2_4 1_555 1_555
C4_4 N2_4 1_555 1_555
C8_4 C9_4 1_555 1_555
C12_4 N5_3 1_555 1_555
C12_4 N4_4 1_555 1_555
C13_4 N4_4 1_555 1_555
C16_4 O5_4 1_555 1_555
C17_4 C18_4 1_555 1_555
Cd1_4 O1_4 1_555 1_555
Cd1_4 O2_4 1_555 1_555
C10_5 H8_5 1_555 1_555
C11_5 C10_5 1_555 1_555
H9_5 C11_5 1_555 1_555
C12_5 H10_5 1_555 1_555
N5_4 C10_5 1_555 1_555
N4_5 C11_5 1_555 1_555
C12_5 N5_4 1_555 1_555
C12_5 N4_5 1_555 1_555
C3_5 H3_5 1_555 1_555
H7_5 C9_5 1_555 1_555
C19_5 C20_5 1_555 1_555
C20_5 C21_3 1_555 1_555
C21_3 H15_3 1_555 1_555
C22_5 C20_5 1_555 1_555
H16_5 C22_5 1_555 1_555
C23_4 C24_3 1_555 1_555
C24_3 C25_5 1_555 1_555
C25_5 C22_5 1_555 1_555
H17_5 C25_5 1_555 1_555
C26_3 C21_3 1_555 1_555
H18_3 C26_3 1_555 1_555
Cd2_2 N1_5 1_555 1_555
O1_5 C19_5 1_555 1_555
O2_5 C19_5 1_555 1_555
O3_4 C23_4 1_555 1_555
O4_4 C23_4 1_555 1_555
Cd3_4 O3_4 1_555 1_555
O6_5 Cd2_2 1_555 1_555
O7_5 Cd2_2 1_555 1_555
C3_5 N1_5 1_555 1_555
C24_3 C26_3 1_555 1_555
Cd2_2 O1_5 1_555 1_555
Cd2_2 O2_5 1_555 1_555
O4_4 Cd3_4 1_555 1_555
C1_5 H1_5 1_555 1_555
C2_5 C1_5 1_555 1_555
H2_5 C2_5 1_555 1_555
C3_6 H3_6 1_555 1_555
C4_5 C5_5 1_555 1_555
C5_5 H4_5 1_555 1_555
C6_5 C5_5 1_555 1_555
H5_5 C6_5 1_555 1_555
C7_5 C6_5 1_555 1_555
C8_5 C7_5 1_555 1_555
H6_6 C8_5 1_555 1_555
C9_6 C4_5 1_555 1_555
H7_6 C9_6 1_555 1_555
C10_6 H8_6 1_555 1_555
C11_6 C10_6 1_555 1_555
H9_6 C11_6 1_555 1_555
C12_6 H10_6 1_555 1_555
C13_5 C14_5 1_555 1_555
C14_5 H11_5 1_555 1_555
C15_5 C14_5 1_555 1_555
H12_5 C15_5 1_555 1_555
C16_5 C15_5 1_555 1_555
C17_5 C16_5 1_555 1_555
H13_5 C17_5 1_555 1_555
C18_5 C13_5 1_555 1_555
H14_5 C18_5 1_555 1_555
C19_6 C20_6 1_555 1_555
C20_6 C21_4 1_555 1_555
C21_4 H15_4 1_555 1_555
C22_6 C20_6 1_555 1_555
H16_6 C22_6 1_555 1_555
C23_5 C24_4 1_555 1_555
C24_4 C25_6 1_555 1_555
C25_6 C22_6 1_555 1_555
H17_6 C25_6 1_555 1_555
C26_4 C21_4 1_555 1_555
H18_4 C26_4 1_555 1_555
Cd1_5 N1_6 1_555 1_555
N1_6 C1_5 1_555 1_555
N2_5 C2_5 1_555 1_555
N5 C10_6 1_555 1_555
N4_6 C11_6 1_555 1_555
O1_6 C19_6 1_555 1_555
O2_6 C19_6 1_555 1_555
O3_5 C23_5 1_555 1_555
O4_5 C23_5 1_555 1_555
O5_5 C7_5 1_555 1_555
Cd3_5 O3_5 1_555 1_555
N5_5 Cd1_5 1_555 1_555
O6_6 Cd1_5 1_555 1_555
O7_6 Cd1_5 1_555 1_555
C3_6 N1_6 1_555 1_555
C3_6 N2_5 1_555 1_555
C4_5 N2_5 1_555 1_555
C8_5 C9_6 1_555 1_555
C12_6 N5 1_555 1_555
C12_6 N4_6 1_555 1_555
C13_5 N4_6 1_555 1_555
C16_5 O5_5 1_555 1_555
C17_5 C18_5 1_555 1_555
C24_4 C26_4 1_555 1_555
Cd1_5 O1_6 1_555 1_555
Cd1_5 O2_6 1_555 1_555
O4_5 Cd3_5 1_555 1_555
Cd1_6 N1_7 1_555 1_555
N5_6 Cd1_6 1_555 1_555
O6_7 Cd1_6 1_555 1_555
O7_7 Cd1_6 1_555 1_555
C3_7 N1_7 1_555 1_555
Cd1_6 O1_7 1_555 1_555
Cd1_6 O2_7 1_555 1_555
H7_7 C9_7 1_555 1_555
C19_7 C20_7 1_555 1_555
C20_7 C21_5 1_555 1_555
C21_5 H15_5 1_555 1_555
C22_7 C20_7 1_555 1_555
H16_7 C22_7 1_555 1_555
C23_6 C24_5 1_555 1_555
C24_5 C25_7 1_555 1_555
C25_7 C22_7 1_555 1_555
H17_7 C25_7 1_555 1_555
C26_5 C21_5 1_555 1_555
H18_5 C26_5 1_555 1_555
O3_6 C23_6 1_555 1_555
O4_6 C23_6 1_555 1_555
Cd3_6 O3_6 1_555 1_555
C24_5 C26_5 1_555 1_555
O4_6 Cd3_6 1_555 1_555
C10_7 H8_7 1_555 1_555
C11_7 C10_7 1_555 1_555
H9_7 C11_7 1_555 1_555
C12_7 H10_7 1_555 1_555
N5_5 C10_7 1_555 1_555
N4_7 C11_7 1_555 1_555
C12_7 N5_5 1_555 1_555
C12_7 N4_7 1_555 1_555
C12_8 H10_8 1_555 1_555
H13_6 C17_6 1_555 1_555
H14_6 C18_6 1_555 1_555
O3_7 C23_7 1_555 1_555
O4_7 C23_7 1_555 1_555
Cd3_7 O3_7 1_555 1_555
C12_8 N5_6 1_555 1_555
C17_6 C18_6 1_555 1_555
O4_7 Cd3_7 1_555 1_555
C1_6 H1_6 1_555 1_555
C2_6 C1_6 1_555 1_555
H2_6 C2_6 1_555 1_555
C3_8 H3_8 1_555 1_555
C4_6 C5_6 1_555 1_555
C5_6 H4_6 1_555 1_555
C6_6 C5_6 1_555 1_555
H5_6 C6_6 1_555 1_555
C7_6 C6_6 1_555 1_555
C8_6 C7_6 1_555 1_555
H6_8 C8_6 1_555 1_555
C9_8 C4_6 1_555 1_555
H7_8 C9_8 1_555 1_555
C10_8 H8_8 1_555 1_555
C11_8 C10_8 1_555 1_555
H9_8 C11_8 1_555 1_555
C13_6 C14_6 1_555 1_555
C14_6 H11_6 1_555 1_555
C15_6 C14_6 1_555 1_555
H12_6 C15_6 1_555 1_555
C16_6 C15_6 1_555 1_555
C19_8 C20_8 1_555 1_555
C20_8 C21_6 1_555 1_555
C21_6 H15_6 1_555 1_555
C22_8 C20_8 1_555 1_555
H16_8 C22_8 1_555 1_555
C24_6 C25_8 1_555 1_555
C25_8 C22_8 1_555 1_555
H17_8 C25_8 1_555 1_555
C26_6 C21_6 1_555 1_555
H18_6 C26_6 1_555 1_555
Cd2 N1_8 1_555 1_555
N1_8 C1_6 1_555 1_555
N2_6 C2_6 1_555 1_555
N4_8 C11_8 1_555 1_555
O1_8 C19_8 1_555 1_555
O2_8 C19_8 1_555 1_555
O5_6 C7_6 1_555 1_555
O6_8 Cd2 1_555 1_555
O7_8 Cd2 1_555 1_555
C3_8 N1_8 1_555 1_555
C3_8 N2_6 1_555 1_555
C4_6 N2_6 1_555 1_555
C8_6 C9_8 1_555 1_555
C13_6 N4_8 1_555 1_555
C16_6 O5_6 1_555 1_555
C24_6 C26_6 1_555 1_555
Cd2 O1_8 1_555 1_555
Cd2 O2_8 1_555 1_555
C10_9 H8_9 1_555 1_555
C11_9 C10_9 1_555 1_555
H9_9 C11_9 1_555 1_555
C12_9 H10_9 1_555 1_555
N3_3 C10_9 1_555 1_555
N4_9 C11_9 1_555 1_555
Cd3_5 N3_3 1_555 1_555
C12_9 N3_3 1_555 1_555
C12_9 N4_9 1_555 1_555
C4_7 C5_7 1_555 1_555
C6_7 C5_7 1_555 1_555
H5_7 C6_7 1_555 1_555
C7_7 C6_7 1_555 1_555
C8_7 C7_7 1_555 1_555
H6_9 C8_7 1_555 1_555
C9_9 C4_7 1_555 1_555
H7_9 C9_9 1_555 1_555
C13_7 C14_7 1_555 1_555
C14_7 H11_7 1_555 1_555
C15_7 C14_7 1_555 1_555
H12_7 C15_7 1_555 1_555
C16_7 C15_7 1_555 1_555
C17_7 C16_7 1_555 1_555
H13_7 C17_7 1_555 1_555
C18_7 C13_7 1_555 1_555
H14_7 C18_7 1_555 1_555
C19_9 C20_9 1_555 1_555
C20_9 C21_7 1_555 1_555
C21_7 H15_7 1_555 1_555
C22_9 C20_9 1_555 1_555
H16_9 C22_9 1_555 1_555
C23_8 C24_7 1_555 1_555
C24_7 C25_9 1_555 1_555
C25_9 C22_9 1_555 1_555
H17_9 C25_9 1_555 1_555
C26_7 C21_7 1_555 1_555
H18_7 C26_7 1_555 1_555
O6_5 C23_8 1_555 1_555
O7_5 C23_8 1_555 1_555
O5_7 C7_7 1_555 1_555
C8_7 C9_9 1_555 1_555
C16_7 O5_7 1_555 1_555
C17_7 C18_7 1_555 1_555
C24_7 C26_7 1_555 1_555
C1_7 H1_7 1_555 1_555
C2_7 C1_7 1_555 1_555
H2_7 C2_7 1_555 1_555
Cd3_4 N1_9 1_555 1_555
N1_9 C1_7 1_555 1_555
N2_7 C2_7 1_555 1_555
N5_7 Cd3_4 1_555 1_555
C3_9 N1_9 1_555 1_555
C3_9 N2_7 1_555 1_555
Cd3_4 O1_9 1_555 1_555
Cd3_4 O2_9 1_555 1_555
C4_8 C5_8 1_555 1_555
C6_8 C5_8 1_555 1_555
H5_8 C6_8 1_555 1_555
C7_8 C6_8 1_555 1_555
C8_8 C7_8 1_555 1_555
C10_10 H8_10 1_555 1_555
C11_10 C10_10 1_555 1_555
H9_10 C11_10 1_555 1_555
C12_10 H10_10 1_555 1_555
C13_8 C14_8 1_555 1_555
C14_8 H11_8 1_555 1_555
C15_8 C14_8 1_555 1_555
H12_8 C15_8 1_555 1_555
C16_8 C15_8 1_555 1_555
C17_8 C16_8 1_555 1_555
H13_8 C17_8 1_555 1_555
C18_8 C13_8 1_555 1_555
H14_8 C18_8 1_555 1_555
N3_4 C10_10 1_555 1_555
N4_10 C11_10 1_555 1_555
O5_8 C7_8 1_555 1_555
Cd3_7 N3_4 1_555 1_555
C12_10 N3_4 1_555 1_555
C12_10 N4_10 1_555 1_555
C13_8 N4_10 1_555 1_555
C16_8 O5_8 1_555 1_555
C17_8 C18_8 1_555 1_555
Cd3_3 N1_10 1_555 1_555
N5_8 Cd3_3 1_555 1_555
C3_10 N1_10 1_555 1_555
Cd3_3 O1_10 1_555 1_555
Cd3_3 O2_10 1_555 1_555
H7_10 C9_10 1_555 1_555
C19_10 C20_10 1_555 1_555
C20_10 C21_8 1_555 1_555
C21_8 H15_8 1_555 1_555
C22_10 C20_10 1_555 1_555
H16_10 C22_10 1_555 1_555
C23_9 C24_8 1_555 1_555
C24_8 C25_10 1_555 1_555
C25_10 C22_10 1_555 1_555
H17_10 C25_10 1_555 1_555
C26_8 C21_8 1_555 1_555
H18_8 C26_8 1_555 1_555
O6_3 C23_9 1_555 1_555
O7_3 C23_9 1_555 1_555
C24_8 C26_8 1_555 1_555
C1_8 H1_8 1_555 1_555
C2_8 C1_8 1_555 1_555
H2_8 C2_8 1_555 1_555
C3_11 H3_11 1_555 1_555
C4_9 C5_9 1_555 1_555
C5_9 H4_8 1_555 1_555
C6_9 C5_9 1_555 1_555
H5_9 C6_9 1_555 1_555
C7_9 C6_9 1_555 1_555
C8_9 C7_9 1_555 1_555
H6_11 C8_9 1_555 1_555
C9_11 C4_9 1_555 1_555
H7_11 C9_11 1_555 1_555
C10_11 H8_11 1_555 1_555
C11_11 C10_11 1_555 1_555
H9_11 C11_11 1_555 1_555
C13_9 C14_9 1_555 1_555
C14_9 H11_9 1_555 1_555
C15_9 C14_9 1_555 1_555
H12_9 C15_9 1_555 1_555
C16_9 C15_9 1_555 1_555
C19_11 C20_11 1_555 1_555
C20_11 C21_9 1_555 1_555
C21_9 H15_9 1_555 1_555
C22_11 C20_11 1_555 1_555
H16_11 C22_11 1_555 1_555
C24_9 C25_11 1_555 1_555
C25_11 C22_11 1_555 1_555
H17_11 C25_11 1_555 1_555
C26_9 C21_9 1_555 1_555
H18_9 C26_9 1_555 1_555
Cd3_5 N1_11 1_555 1_555
N1_11 C1_8 1_555 1_555
N2_8 C2_8 1_555 1_555
N4_11 C11_11 1_555 1_555
O1_11 C19_11 1_555 1_555
O2_11 C19_11 1_555 1_555
O5_9 C7_9 1_555 1_555
C3_11 N1_11 1_555 1_555
C3_11 N2_8 1_555 1_555
C4_9 N2_8 1_555 1_555
C8_9 C9_11 1_555 1_555
C13_9 N4_11 1_555 1_555
C16_9 O5_9 1_555 1_555
C24_9 C26_9 1_555 1_555
Cd3_5 O1_11 1_555 1_555
Cd3_5 O2_11 1_555 1_555
C12_11 H10_11 1_555 1_555
H13_9 C17_9 1_555 1_555
H14_9 C18_9 1_555 1_555
O6_6 C23_10 1_555 1_555
O7_6 C23_10 1_555 1_555
C12_11 N5_8 1_555 1_555
C17_9 C18_9 1_555 1_555
C12_12 H10_12 1_555 1_555
H13_10 C17_10 1_555 1_555
H14_10 C18_10 1_555 1_555
Cd3 N3_5 1_555 1_555
C12_12 N3_5 1_555 1_555
C17_10 C18_10 1_555 1_555
O6_4 C23_11 1_555 1_555
O7_4 C23_11 1_555 1_555
C3_12 H3_12 1_555 1_555
H7_12 C9_12 1_555 1_555
C19_12 C20_12 1_555 1_555
C20_12 C21_10 1_555 1_555
C21_10 H15_10 1_555 1_555
C22_12 C20_12 1_555 1_555
H16_12 C22_12 1_555 1_555
C23_12 C24_10 1_555 1_555
C24_10 C25_12 1_555 1_555
C25_12 C22_12 1_555 1_555
H17_12 C25_12 1_555 1_555
C26_10 C21_10 1_555 1_555
H18_10 C26_10 1_555 1_555
Cd3 N1_12 1_555 1_555
O1_12 C19_12 1_555 1_555
O2_12 C19_12 1_555 1_555
O6 C23_12 1_555 1_555
O7 C23_12 1_555 1_555
C3_12 N1_12 1_555 1_555
C24_10 C26_10 1_555 1_555
Cd3 O1_12 1_555 1_555
Cd3 O2_12 1_555 1_555
C1_9 H1_9 1_555 1_555
C2_9 C1_9 1_555 1_555
H2_9 C2_9 1_555 1_555
C4_10 C5_10 1_555 1_555
C5_10 H4_9 1_555 1_555
C6_10 C5_10 1_555 1_555
H5_10 C6_10 1_555 1_555
C7_10 C6_10 1_555 1_555
C8_10 C7_10 1_555 1_555
C10_12 H8_12 1_555 1_555
C11_12 C10_12 1_555 1_555
H9_12 C11_12 1_555 1_555
C12_13 H10_13 1_555 1_555
C13_10 C14_10 1_555 1_555
C14_10 H11_10 1_555 1_555
C15_10 C14_10 1_555 1_555
H12_10 C15_10 1_555 1_555
C16_10 C15_10 1_555 1_555
C17_11 C16_10 1_555 1_555
H13_11 C17_11 1_555 1_555
C18_11 C13_10 1_555 1_555
H14_11 C18_11 1_555 1_555
N2_9 C2_9 1_555 1_555
N3_6 C10_12 1_555 1_555
N4_12 C11_12 1_555 1_555
O5_10 C7_10 1_555 1_555
Cd3_2 N3_6 1_555 1_555
C4_10 N2_9 1_555 1_555
C12_13 N3_6 1_555 1_555
C12_13 N4_12 1_555 1_555
C13_10 N4_12 1_555 1_555
C16_10 O5_10 1_555 1_555
C17_11 C18_11 1_555 1_555
C1_10 H1_10 1_555 1_555
C2_10 C1_10 1_555 1_555
H2_10 C2_10 1_555 1_555
C3_13 H3_13 1_555 1_555
C4_11 C5_11 1_555 1_555
C5_11 H4_10 1_555 1_555
C6_11 C5_11 1_555 1_555
H5_11 C6_11 1_555 1_555
C7_11 C6_11 1_555 1_555
C8_11 C7_11 1_555 1_555
H6_13 C8_11 1_555 1_555
C9_13 C4_11 1_555 1_555
H7_13 C9_13 1_555 1_555
C13_11 C14_11 1_555 1_555
C14_11 H11_11 1_555 1_555
C15_11 C14_11 1_555 1_555
H12_11 C15_11 1_555 1_555
C16_11 C15_11 1_555 1_555
C17_12 C16_11 1_555 1_555
H13_12 C17_12 1_555 1_555
C18_12 C13_11 1_555 1_555
H14_12 C18_12 1_555 1_555
C19_13 C20_13 1_555 1_555
C20_13 C21_11 1_555 1_555
C21_11 H15_11 1_555 1_555
C22_13 C20_13 1_555 1_555
H16_13 C22_13 1_555 1_555
C23_13 C24_11 1_555 1_555
C24_11 C25_13 1_555 1_555
C25_13 C22_13 1_555 1_555
H17_13 C25_13 1_555 1_555
C26_11 C21_11 1_555 1_555
H18_11 C26_11 1_555 1_555
Cd3_6 N1_13 1_555 1_555
N1_13 C1_10 1_555 1_555
N2_10 C2_10 1_555 1_555
O1_13 C19_13 1_555 1_555
O2_13 C19_13 1_555 1_555
O6_7 C23_13 1_555 1_555
O7_7 C23_13 1_555 1_555
O5_11 C7_11 1_555 1_555
N5_9 Cd3_6 1_555 1_555
C3_13 N1_13 1_555 1_555
C3_13 N2_10 1_555 1_555
C4_11 N2_10 1_555 1_555
C8_11 C9_13 1_555 1_555
C16_11 O5_11 1_555 1_555
C17_12 C18_12 1_555 1_555
C24_11 C26_11 1_555 1_555
Cd3_6 O1_13 1_555 1_555
Cd3_6 O2_13 1_555 1_555
C21_12 H15_12 1_555 1_555
C23_14 C24_12 1_555 1_555
C26_12 C21_12 1_555 1_555
H18_12 C26_12 1_555 1_555
O6_2 C23_14 1_555 1_555
O7_2 C23_14 1_555 1_555
C24_12 C26_12 1_555 1_555
C1_11 H1_11 1_555 1_555
C2_11 C1_11 1_555 1_555
H2_11 C2_11 1_555 1_555
C3_14 H3_14 1_555 1_555
C4_12 C5_12 1_555 1_555
C5_12 H4_11 1_555 1_555
C6_12 C5_12 1_555 1_555
H5_12 C6_12 1_555 1_555
C7_12 C6_12 1_555 1_555
C8_12 C7_12 1_555 1_555
H6_14 C8_12 1_555 1_555
C9_14 C4_12 1_555 1_555
H7_14 C9_14 1_555 1_555
C10_13 H8_13 1_555 1_555
C11_13 C10_13 1_555 1_555
H9_13 C11_13 1_555 1_555
C12_14 H10_14 1_555 1_555
C13_12 C14_12 1_555 1_555
C14_12 H11_12 1_555 1_555
C15_12 C14_12 1_555 1_555
H12_12 C15_12 1_555 1_555
C16_12 C15_12 1_555 1_555
C17_13 C16_12 1_555 1_555
H13_13 C17_13 1_555 1_555
C18_13 C13_12 1_555 1_555
H14_13 C18_13 1_555 1_555
C19_14 C20_14 1_555 1_555
C22_14 C20_14 1_555 1_555
H16_14 C22_14 1_555 1_555
C25_14 C22_14 1_555 1_555
H17_14 C25_14 1_555 1_555
Cd3_2 N1_14 1_555 1_555
N1_14 C1_11 1_555 1_555
N2_11 C2_11 1_555 1_555
N5_9 C10_13 1_555 1_555
N4_13 C11_13 1_555 1_555
O1_14 C19_14 1_555 1_555
O2_14 C19_14 1_555 1_555
O5_12 C7_12 1_555 1_555
C3_14 N1_14 1_555 1_555
C3_14 N2_11 1_555 1_555
C4_12 N2_11 1_555 1_555
C8_12 C9_14 1_555 1_555
C12_14 N5_9 1_555 1_555
C12_14 N4_13 1_555 1_555
C13_12 N4_13 1_555 1_555
C16_12 O5_12 1_555 1_555
C17_13 C18_13 1_555 1_555
Cd3_2 O1_14 1_555 1_555
Cd3_2 O2_14 1_555 1_555
C1_12 H1_12 1_555 1_555
C2_12 C1_12 1_555 1_555
H2_12 C2_12 1_555 1_555
C3_15 H3_15 1_555 1_555
C4_13 C5_13 1_555 1_555
C5_13 H4_12 1_555 1_555
C6_13 C5_13 1_555 1_555
H5_13 C6_13 1_555 1_555
C7_13 C6_13 1_555 1_555
C8_13 C7_13 1_555 1_555
H6_15 C8_13 1_555 1_555
C9_15 C4_13 1_555 1_555
H7_15 C9_15 1_555 1_555
C10_14 H8_14 1_555 1_555
C11_14 C10_14 1_555 1_555
H9_14 C11_14 1_555 1_555
C12_15 H10_15 1_555 1_555
C13_13 C14_13 1_555 1_555
C14_13 H11_13 1_555 1_555
C15_13 C14_13 1_555 1_555
H12_13 C15_13 1_555 1_555
C16_13 C15_13 1_555 1_555
C17_14 C16_13 1_555 1_555
H13_14 C17_14 1_555 1_555
C18_14 C13_13 1_555 1_555
H14_14 C18_14 1_555 1_555
C19_15 C20_15 1_555 1_555
C20_15 C21_13 1_555 1_555
C21_13 H15_13 1_555 1_555
C22_15 C20_15 1_555 1_555
H16_15 C22_15 1_555 1_555
C23_15 C24_13 1_555 1_555
C24_13 C25_15 1_555 1_555
C25_15 C22_15 1_555 1_555
H17_15 C25_15 1_555 1_555
C26_13 C21_13 1_555 1_555
H18_13 C26_13 1_555 1_555
Cd3_7 N1_15 1_555 1_555
N1_15 C1_12 1_555 1_555
N2_12 C2_12 1_555 1_555
N5_7 C10_14 1_555 1_555
N4_14 C11_14 1_555 1_555
O1_15 C19_15 1_555 1_555
O2_15 C19_15 1_555 1_555
O6_8 C23_15 1_555 1_555
O7_8 C23_15 1_555 1_555
O5_13 C7_13 1_555 1_555
C3_15 N1_15 1_555 1_555
C3_15 N2_12 1_555 1_555
C4_13 N2_12 1_555 1_555
C8_13 C9_15 1_555 1_555
C12_15 N5_7 1_555 1_555
C12_15 N4_14 1_555 1_555
C13_13 N4_14 1_555 1_555
C16_13 O5_13 1_555 1_555
C17_14 C18_14 1_555 1_555
C24_13 C26_13 1_555 1_555
Cd3_7 O1_15 1_555 1_555
Cd3_7 O2_15 1_555 1_555
C21_14 H15_14 1_555 1_555
C26_14 C21_14 1_555 1_555
H18_14 C26_14 1_555 1_555
C24_14 C26_14 1_555 1_555
C21_15 H15_15 1_555 1_555
C23_16 C24_15 1_555 1_555
C26_15 C21_15 1_555 1_555
H18_15 C26_15 1_555 1_555
O3_8 C23_16 1_555 1_555
O4_8 C23_16 1_555 1_555
Cd3_8 O3_8 1_555 1_555
C24_15 C26_15 1_555 1_555
O4_8 Cd3_8 1_555 1_555
C1_13 H1_13 1_555 1_555
C2_13 C1_13 1_555 1_555
H2_13 C2_13 1_555 1_555
C3_16 H3_16 1_555 1_555
C4_14 C5_14 1_555 1_555
C5_14 H4_13 1_555 1_555
C6_14 C5_14 1_555 1_555
H5_14 C6_14 1_555 1_555
C7_14 C6_14 1_555 1_555
C8_14 C7_14 1_555 1_555
H6_16 C8_14 1_555 1_555
C9_16 C4_14 1_555 1_555
H7_16 C9_16 1_555 1_555
C10_15 H8_15 1_555 1_555
C11_15 C10_15 1_555 1_555
H9_15 C11_15 1_555 1_555
C13_14 C14_14 1_555 1_555
C14_14 H11_14 1_555 1_555
C15_14 C14_14 1_555 1_555
H12_14 C15_14 1_555 1_555
C16_14 C15_14 1_555 1_555
C19_16 C20_16 1_555 1_555
C22_16 C20_16 1_555 1_555
H16_16 C22_16 1_555 1_555
C25_16 C22_16 1_555 1_555
H17_16 C25_16 1_555 1_555
Cd3_8 N1_16 1_555 1_555
N1_16 C1_13 1_555 1_555
N2_13 C2_13 1_555 1_555
N4_15 C11_15 1_555 1_555
O1_16 C19_16 1_555 1_555
O2_16 C19_16 1_555 1_555
O5_14 C7_14 1_555 1_555
N5_10 Cd3_8 1_555 1_555
C3_16 N1_16 1_555 1_555
C3_16 N2_13 1_555 1_555
C4_14 N2_13 1_555 1_555
C8_14 C9_16 1_555 1_555
C13_14 N4_15 1_555 1_555
C16_14 O5_14 1_555 1_555
Cd3_8 O1_16 1_555 1_555
Cd3_8 O2_16 1_555 1_555
C10_16 H8_16 1_555 1_555
C11_16 C10_16 1_555 1_555
H9_16 C11_16 1_555 1_555
C12_16 H10_16 1_555 1_555
N5_10 C10_16 1_555 1_555
N4_16 C11_16 1_555 1_555
C12_16 N5_10 1_555 1_555
C12_16 N4_16 1_555 1_555
C1_14 H1_14 1_555 1_555
C2_14 C1_14 1_555 1_555
H2_14 C2_14 1_555 1_555
Cd1_7 N1_17 1_555 1_555
N1_17 C1_14 1_555 1_555
N2_14 C2_14 1_555 1_555
N5_11 Cd1_7 1_555 1_555
O6_9 Cd1_7 1_555 1_555
O7_9 Cd1_7 1_555 1_555
C3_17 N1_17 1_555 1_555
C3_17 N2_14 1_555 1_555
Cd1_7 O1_17 1_555 1_555
Cd1_7 O2_17 1_555 1_555
C4_15 C5_15 1_555 1_555
C6_15 C5_15 1_555 1_555
H5_15 C6_15 1_555 1_555
C7_15 C6_15 1_555 1_555
C8_15 C7_15 1_555 1_555
H6_17 C8_15 1_555 1_555
C9_17 C4_15 1_555 1_555
H7_17 C9_17 1_555 1_555
C13_15 C14_15 1_555 1_555
C14_15 H11_15 1_555 1_555
C15_15 C14_15 1_555 1_555
H12_15 C15_15 1_555 1_555
C16_15 C15_15 1_555 1_555
C17_15 C16_15 1_555 1_555
H13_15 C17_15 1_555 1_555
C18_15 C13_15 1_555 1_555
H14_15 C18_15 1_555 1_555
C19_17 C20_17 1_555 1_555
C20_17 C21_16 1_555 1_555
C21_16 H15_16 1_555 1_555
C22_17 C20_17 1_555 1_555
H16_17 C22_17 1_555 1_555
C23_17 C24_16 1_555 1_555
C24_16 C25_17 1_555 1_555
C25_17 C22_17 1_555 1_555
H17_17 C25_17 1_555 1_555
C26_16 C21_16 1_555 1_555
H18_16 C26_16 1_555 1_555
O3_9 C23_17 1_555 1_555
O4_9 C23_17 1_555 1_555
O5_15 C7_15 1_555 1_555
Cd3_9 O3_9 1_555 1_555
C8_15 C9_17 1_555 1_555
C16_15 O5_15 1_555 1_555
C17_15 C18_15 1_555 1_555
C24_16 C26_16 1_555 1_555
O4_9 Cd3_9 1_555 1_555
C10_17 H8_17 1_555 1_555
C11_17 C10_17 1_555 1_555
H9_17 C11_17 1_555 1_555
C12_17 H10_17 1_555 1_555
N3_7 C10_17 1_555 1_555
N4_17 C11_17 1_555 1_555
Cd2_3 N3_7 1_555 1_555
C12_17 N3_7 1_555 1_555
C12_17 N4_17 1_555 1_555
H7_18 C9_18 1_555 1_555
C19_18 C20_18 1_555 1_555
C20_18 C21_17 1_555 1_555
C21_17 H15_17 1_555 1_555
C22_18 C20_18 1_555 1_555
H16_18 C22_18 1_555 1_555
C23_18 C24_17 1_555 1_555
C24_17 C25_18 1_555 1_555
C25_18 C22_18 1_555 1_555
H17_18 C25_18 1_555 1_555
C26_17 C21_17 1_555 1_555
H18_17 C26_17 1_555 1_555
O3_10 C23_18 1_555 1_555
O4_10 C23_18 1_555 1_555
Cd3_10 O3_10 1_555 1_555
C24_17 C26_17 1_555 1_555
O4_10 Cd3_10 1_555 1_555
Cd1_8 N1_18 1_555 1_555
N5_12 Cd1_8 1_555 1_555
O6_10 Cd1_8 1_555 1_555
O7_10 Cd1_8 1_555 1_555
C3_18 N1_18 1_555 1_555
Cd1_8 O1_18 1_555 1_555
Cd1_8 O2_18 1_555 1_555
C4_16 C5_16 1_555 1_555
C6_16 C5_16 1_555 1_555
H5_16 C6_16 1_555 1_555
C7_16 C6_16 1_555 1_555
C8_16 C7_16 1_555 1_555
C10_18 H8_18 1_555 1_555
C11_18 C10_18 1_555 1_555
H9_18 C11_18 1_555 1_555
C12_18 H10_18 1_555 1_555
C13_16 C14_16 1_555 1_555
C14_16 H11_16 1_555 1_555
C15_16 C14_16 1_555 1_555
H12_16 C15_16 1_555 1_555
C16_16 C15_16 1_555 1_555
C17_16 C16_16 1_555 1_555
H13_16 C17_16 1_555 1_555
C18_16 C13_16 1_555 1_555
H14_16 C18_16 1_555 1_555
N3_8 C10_18 1_555 1_555
N4_18 C11_18 1_555 1_555
O5_16 C7_16 1_555 1_555
Cd2_4 N3_8 1_555 1_555
C12_18 N3_8 1_555 1_555
C12_18 N4_18 1_555 1_555
C13_16 N4_18 1_555 1_555
C16_16 O5_16 1_555 1_555
C17_16 C18_16 1_555 1_555
C12_19 H10_19 1_555 1_555
H13_17 C17_17 1_555 1_555
H14_17 C18_17 1_555 1_555
O3_11 C23_19 1_555 1_555
O4_11 C23_19 1_555 1_555
Cd3_11 O3_11 1_555 1_555
C12_19 N5_12 1_555 1_555
C17_17 C18_17 1_555 1_555
O4_11 Cd3_11 1_555 1_555
C1_15 H1_15 1_555 1_555
C2_15 C1_15 1_555 1_555
H2_15 C2_15 1_555 1_555
C3_19 H3_19 1_555 1_555
C4_17 C5_17 1_555 1_555
C5_17 H4_15 1_555 1_555
C6_17 C5_17 1_555 1_555
H5_17 C6_17 1_555 1_555
C7_17 C6_17 1_555 1_555
C8_17 C7_17 1_555 1_555
H6_19 C8_17 1_555 1_555
C9_19 C4_17 1_555 1_555
H7_19 C9_19 1_555 1_555
C10_19 H8_19 1_555 1_555
C11_19 C10_19 1_555 1_555
H9_19 C11_19 1_555 1_555
C13_17 C14_17 1_555 1_555
C14_17 H11_17 1_555 1_555
C15_17 C14_17 1_555 1_555
H12_17 C15_17 1_555 1_555
C16_17 C15_17 1_555 1_555
C19_19 C20_19 1_555 1_555
C20_19 C21_18 1_555 1_555
C21_18 H15_18 1_555 1_555
C22_19 C20_19 1_555 1_555
H16_19 C22_19 1_555 1_555
C24_18 C25_19 1_555 1_555
C25_19 C22_19 1_555 1_555
H17_19 C25_19 1_555 1_555
C26_18 C21_18 1_555 1_555
H18_18 C26_18 1_555 1_555
Cd2_3 N1_19 1_555 1_555
N1_19 C1_15 1_555 1_555
N2_15 C2_15 1_555 1_555
N4_19 C11_19 1_555 1_555
O1_19 C19_19 1_555 1_555
O2_19 C19_19 1_555 1_555
O5_17 C7_17 1_555 1_555
O6_11 Cd2_3 1_555 1_555
O7_11 Cd2_3 1_555 1_555
C3_19 N1_19 1_555 1_555
C3_19 N2_15 1_555 1_555
C4_17 N2_15 1_555 1_555
C8_17 C9_19 1_555 1_555
C13_17 N4_19 1_555 1_555
C16_17 O5_17 1_555 1_555
C24_18 C26_18 1_555 1_555
Cd2_3 O1_19 1_555 1_555
Cd2_3 O2_19 1_555 1_555
O3_12 C23_20 1_555 1_555
O4_12 C23_20 1_555 1_555
Cd3_12 O3_12 1_555 1_555
O4_12 Cd3_12 1_555 1_555
C12_20 H10_20 1_555 1_555
H13_18 C17_18 1_555 1_555
H14_18 C18_18 1_555 1_555
Cd2_5 N3_9 1_555 1_555
C12_20 N3_9 1_555 1_555
C17_18 C18_18 1_555 1_555
C1_16 H1_16 1_555 1_555
C2_16 C1_16 1_555 1_555
H2_16 C2_16 1_555 1_555
C4_18 C5_18 1_555 1_555
C5_18 H4_16 1_555 1_555
C6_18 C5_18 1_555 1_555
H5_18 C6_18 1_555 1_555
C7_18 C6_18 1_555 1_555
C8_18 C7_18 1_555 1_555
C10_20 H8_20 1_555 1_555
C11_20 C10_20 1_555 1_555
H9_20 C11_20 1_555 1_555
C12_21 H10_21 1_555 1_555
C13_18 C14_18 1_555 1_555
C14_18 H11_18 1_555 1_555
C15_18 C14_18 1_555 1_555
H12_18 C15_18 1_555 1_555
C16_18 C15_18 1_555 1_555
C17_19 C16_18 1_555 1_555
H13_19 C17_19 1_555 1_555
C18_19 C13_18 1_555 1_555
H14_19 C18_19 1_555 1_555
N2_16 C2_16 1_555 1_555
N3_10 C10_20 1_555 1_555
N4_20 C11_20 1_555 1_555
O5_18 C7_18 1_555 1_555
Cd2_6 N3_10 1_555 1_555
C4_18 N2_16 1_555 1_555
C12_21 N3_10 1_555 1_555
C12_21 N4_20 1_555 1_555
C13_18 N4_20 1_555 1_555
C16_18 O5_18 1_555 1_555
C17_19 C18_19 1_555 1_555
C3_20 H3_20 1_555 1_555
H7_20 C9_20 1_555 1_555
C19_20 C20_20 1_555 1_555
C20_20 C21_19 1_555 1_555
C21_19 H15_19 1_555 1_555
C22_20 C20_20 1_555 1_555
H16_20 C22_20 1_555 1_555
C23_21 C24_19 1_555 1_555
C24_19 C25_20 1_555 1_555
C25_20 C22_20 1_555 1_555
H17_20 C25_20 1_555 1_555
C26_19 C21_19 1_555 1_555
H18_19 C26_19 1_555 1_555
Cd2_5 N1_20 1_555 1_555
O1_20 C19_20 1_555 1_555
O2_20 C19_20 1_555 1_555
O3_13 C23_21 1_555 1_555
O4_13 C23_21 1_555 1_555
Cd3_13 O3_13 1_555 1_555
O6_12 Cd2_5 1_555 1_555
O7_12 Cd2_5 1_555 1_555
C3_20 N1_20 1_555 1_555
C24_19 C26_19 1_555 1_555
Cd2_5 O1_20 1_555 1_555
Cd2_5 O2_20 1_555 1_555
O4_13 Cd3_13 1_555 1_555
C1_17 H1_17 1_555 1_555
C2_17 C1_17 1_555 1_555
H2_17 C2_17 1_555 1_555
C3_21 H3_21 1_555 1_555
C4_19 C5_19 1_555 1_555
C5_19 H4_17 1_555 1_555
C6_19 C5_19 1_555 1_555
H5_19 C6_19 1_555 1_555
C7_19 C6_19 1_555 1_555
C8_19 C7_19 1_555 1_555
H6_21 C8_19 1_555 1_555
C9_21 C4_19 1_555 1_555
H7_21 C9_21 1_555 1_555
C13_19 C14_19 1_555 1_555
C14_19 H11_19 1_555 1_555
C15_19 C14_19 1_555 1_555
H12_19 C15_19 1_555 1_555
C16_19 C15_19 1_555 1_555
C17_20 C16_19 1_555 1_555
H13_20 C17_20 1_555 1_555
C18_20 C13_19 1_555 1_555
H14_20 C18_20 1_555 1_555
C19_21 C20_21 1_555 1_555
C20_21 C21_20 1_555 1_555
C21_20 H15_20 1_555 1_555
C22_21 C20_21 1_555 1_555
H16_21 C22_21 1_555 1_555
C23_22 C24_20 1_555 1_555
C24_20 C25_21 1_555 1_555
C25_21 C22_21 1_555 1_555
H17_21 C25_21 1_555 1_555
C26_20 C21_20 1_555 1_555
H18_20 C26_20 1_555 1_555
Cd1_9 N1_21 1_555 1_555
N1_21 C1_17 1_555 1_555
N2_17 C2_17 1_555 1_555
O1_21 C19_21 1_555 1_555
O2_21 C19_21 1_555 1_555
O3_14 C23_22 1_555 1_555
O4_14 C23_22 1_555 1_555
O5_19 C7_19 1_555 1_555
Cd3_14 O3_14 1_555 1_555
N5_13 Cd1_9 1_555 1_555
O6_13 Cd1_9 1_555 1_555
O7_13 Cd1_9 1_555 1_555
C3_21 N1_21 1_555 1_555
C3_21 N2_17 1_555 1_555
C4_19 N2_17 1_555 1_555
C8_19 C9_21 1_555 1_555
C16_19 O5_19 1_555 1_555
C17_20 C18_20 1_555 1_555
C24_20 C26_20 1_555 1_555
Cd1_9 O1_21 1_555 1_555
Cd1_9 O2_21 1_555 1_555
O4_14 Cd3_14 1_555 1_555
C1_18 H1_18 1_555 1_555
C2_18 C1_18 1_555 1_555
H2_18 C2_18 1_555 1_555
C3_22 H3_22 1_555 1_555
C4_20 C5_20 1_555 1_555
C5_20 H4_18 1_555 1_555
C6_20 C5_20 1_555 1_555
H5_20 C6_20 1_555 1_555
C7_20 C6_20 1_555 1_555
C8_20 C7_20 1_555 1_555
H6_22 C8_20 1_555 1_555
C9_22 C4_20 1_555 1_555
H7_22 C9_22 1_555 1_555
C10_21 H8_21 1_555 1_555
C11_21 C10_21 1_555 1_555
H9_21 C11_21 1_555 1_555
C12_22 H10_22 1_555 1_555
C13_20 C14_20 1_555 1_555
C14_20 H11_20 1_555 1_555
C15_20 C14_20 1_555 1_555
H12_20 C15_20 1_555 1_555
C16_20 C15_20 1_555 1_555
C17_21 C16_20 1_555 1_555
H13_21 C17_21 1_555 1_555
C18_21 C13_20 1_555 1_555
H14_21 C18_21 1_555 1_555
C19_22 C20_22 1_555 1_555
C22_22 C20_22 1_555 1_555
H16_22 C22_22 1_555 1_555
C25_22 C22_22 1_555 1_555
H17_22 C25_22 1_555 1_555
Cd2_6 N1_22 1_555 1_555
N1_22 C1_18 1_555 1_555
N2_18 C2_18 1_555 1_555
N5_13 C10_21 1_555 1_555
N4_21 C11_21 1_555 1_555
O1_22 C19_22 1_555 1_555
O2_22 C19_22 1_555 1_555
O5_20 C7_20 1_555 1_555
O6_14 Cd2_6 1_555 1_555
O7_14 Cd2_6 1_555 1_555
C3_22 N1_22 1_555 1_555
C3_22 N2_18 1_555 1_555
C4_20 N2_18 1_555 1_555
C8_20 C9_22 1_555 1_555
C12_22 N5_13 1_555 1_555
C12_22 N4_21 1_555 1_555
C13_20 N4_21 1_555 1_555
C16_20 O5_20 1_555 1_555
C17_21 C18_21 1_555 1_555
Cd2_6 O1_22 1_555 1_555
Cd2_6 O2_22 1_555 1_555
C21_21 H15_21 1_555 1_555
C23_23 C24_21 1_555 1_555
C26_21 C21_21 1_555 1_555
H18_21 C26_21 1_555 1_555
O3_15 C23_23 1_555 1_555
O4_15 C23_23 1_555 1_555
Cd3_15 O3_15 1_555 1_555
C24_21 C26_21 1_555 1_555
O4_15 Cd3_15 1_555 1_555
C1_19 H1_19 1_555 1_555
C2_19 C1_19 1_555 1_555
H2_19 C2_19 1_555 1_555
C3_23 H3_23 1_555 1_555
C4_21 C5_21 1_555 1_555
C5_21 H4_19 1_555 1_555
C6_21 C5_21 1_555 1_555
H5_21 C6_21 1_555 1_555
C7_21 C6_21 1_555 1_555
C8_21 C7_21 1_555 1_555
H6_23 C8_21 1_555 1_555
C9_23 C4_21 1_555 1_555
H7_23 C9_23 1_555 1_555
C10_22 H8_22 1_555 1_555
C11_22 C10_22 1_555 1_555
H9_22 C11_22 1_555 1_555
C12_23 H10_23 1_555 1_555
C13_21 C14_21 1_555 1_555
C14_21 H11_21 1_555 1_555
C15_21 C14_21 1_555 1_555
H12_21 C15_21 1_555 1_555
C16_21 C15_21 1_555 1_555
C17_22 C16_21 1_555 1_555
H13_22 C17_22 1_555 1_555
C18_22 C13_21 1_555 1_555
H14_22 C18_22 1_555 1_555
C19_23 C20_23 1_555 1_555
C20_23 C21_22 1_555 1_555
C21_22 H15_22 1_555 1_555
C22_23 C20_23 1_555 1_555
H16_23 C22_23 1_555 1_555
C23_24 C24_22 1_555 1_555
C24_22 C25_23 1_555 1_555
C25_23 C22_23 1_555 1_555
H17_23 C25_23 1_555 1_555
C26_22 C21_22 1_555 1_555
H18_22 C26_22 1_555 1_555
Cd2_4 N1_23 1_555 1_555
N1_23 C1_19 1_555 1_555
N2_19 C2_19 1_555 1_555
N5_11 C10_22 1_555 1_555
N4_22 C11_22 1_555 1_555
O1_23 C19_23 1_555 1_555
O2_23 C19_23 1_555 1_555
O3_16 C23_24 1_555 1_555
O4_16 C23_24 1_555 1_555
O5_21 C7_21 1_555 1_555
Cd3_16 O3_16 1_555 1_555
O6_15 Cd2_4 1_555 1_555
O7_15 Cd2_4 1_555 1_555
C3_23 N1_23 1_555 1_555
C3_23 N2_19 1_555 1_555
C4_21 N2_19 1_555 1_555
C8_21 C9_23 1_555 1_555
C12_23 N5_11 1_555 1_555
C12_23 N4_22 1_555 1_555
C13_21 N4_22 1_555 1_555
C16_21 O5_21 1_555 1_555
C17_22 C18_22 1_555 1_555
C24_22 C26_22 1_555 1_555
Cd2_4 O1_23 1_555 1_555
Cd2_4 O2_23 1_555 1_555
O4_16 Cd3_16 1_555 1_555
C1_20 H1_20 1_555 1_555
C2_20 C1_20 1_555 1_555
H2_20 C2_20 1_555 1_555
Cd3_13 N1_24 1_555 1_555
N1_24 C1_20 1_555 1_555
N2_20 C2_20 1_555 1_555
N5_14 Cd3_13 1_555 1_555
C3_24 N1_24 1_555 1_555
C3_24 N2_20 1_555 1_555
Cd3_13 O1_24 1_555 1_555
Cd3_13 O2_24 1_555 1_555
C4_22 C5_22 1_555 1_555
C6_22 C5_22 1_555 1_555
H5_22 C6_22 1_555 1_555
C7_22 C6_22 1_555 1_555
C8_22 C7_22 1_555 1_555
H6_24 C8_22 1_555 1_555
C9_24 C4_22 1_555 1_555
H7_24 C9_24 1_555 1_555
C10_23 H8_23 1_555 1_555
C11_23 C10_23 1_555 1_555
H9_23 C11_23 1_555 1_555
C12_24 H10_24 1_555 1_555
C13_22 C14_22 1_555 1_555
C14_22 H11_22 1_555 1_555
C15_22 C14_22 1_555 1_555
H12_22 C15_22 1_555 1_555
C16_22 C15_22 1_555 1_555
C17_23 C16_22 1_555 1_555
H13_23 C17_23 1_555 1_555
C18_23 C13_22 1_555 1_555
H14_23 C18_23 1_555 1_555
C19_24 C20_24 1_555 1_555
C20_24 C21_23 1_555 1_555
C21_23 H15_23 1_555 1_555
C22_24 C20_24 1_555 1_555
H16_24 C22_24 1_555 1_555
C23_25 C24_23 1_555 1_555
C24_23 C25_24 1_555 1_555
C25_24 C22_24 1_555 1_555
H17_24 C25_24 1_555 1_555
C26_23 C21_23 1_555 1_555
H18_23 C26_23 1_555 1_555
N3_11 C10_23 1_555 1_555
N4_23 C11_23 1_555 1_555
O6_12 C23_25 1_555 1_555
O7_12 C23_25 1_555 1_555
O5_22 C7_22 1_555 1_555
Cd3_16 N3_11 1_555 1_555
C8_22 C9_24 1_555 1_555
C12_24 N3_11 1_555 1_555
C12_24 N4_23 1_555 1_555
C13_22 N4_23 1_555 1_555
C16_22 O5_22 1_555 1_555
C17_23 C18_23 1_555 1_555
C24_23 C26_23 1_555 1_555
O6_14 C23_26 1_555 1_555
O7_14 C23_26 1_555 1_555
C12_25 H10_25 1_555 1_555
H13_24 C17_24 1_555 1_555
H14_24 C18_24 1_555 1_555
Cd3_9 N3_12 1_555 1_555
C12_25 N3_12 1_555 1_555
C17_24 C18_24 1_555 1_555
C1_21 H1_21 1_555 1_555
C2_21 C1_21 1_555 1_555
H2_21 C2_21 1_555 1_555
C3_25 H3_25 1_555 1_555
C4_23 C5_23 1_555 1_555
C5_23 H4_21 1_555 1_555
C6_23 C5_23 1_555 1_555
H5_23 C6_23 1_555 1_555
C7_23 C6_23 1_555 1_555
C8_23 C7_23 1_555 1_555
H6_25 C8_23 1_555 1_555
C9_25 C4_23 1_555 1_555
H7_25 C9_25 1_555 1_555
C10_24 H8_24 1_555 1_555
C11_24 C10_24 1_555 1_555
H9_24 C11_24 1_555 1_555
C13_23 C14_23 1_555 1_555
C14_23 H11_23 1_555 1_555
C15_23 C14_23 1_555 1_555
H12_23 C15_23 1_555 1_555
C16_23 C15_23 1_555 1_555
C19_25 C20_25 1_555 1_555
C22_25 C20_25 1_555 1_555
H16_25 C22_25 1_555 1_555
C25_25 C22_25 1_555 1_555
H17_25 C25_25 1_555 1_555
Cd3_15 N1_25 1_555 1_555
N1_25 C1_21 1_555 1_555
N2_21 C2_21 1_555 1_555
N4_24 C11_24 1_555 1_555
O1_25 C19_25 1_555 1_555
O2_25 C19_25 1_555 1_555
O5_23 C7_23 1_555 1_555
N5_15 Cd3_15 1_555 1_555
C3_25 N1_25 1_555 1_555
C3_25 N2_21 1_555 1_555
C4_23 N2_21 1_555 1_555
C8_23 C9_25 1_555 1_555
C13_23 N4_24 1_555 1_555
C16_23 O5_23 1_555 1_555
Cd3_15 O1_25 1_555 1_555
Cd3_15 O2_25 1_555 1_555
C1_22 H1_22 1_555 1_555
C2_22 C1_22 1_555 1_555
H2_22 C2_22 1_555 1_555
C3_26 H3_26 1_555 1_555
C4_24 C5_24 1_555 1_555
C5_24 H4_22 1_555 1_555
C6_24 C5_24 1_555 1_555
H5_24 C6_24 1_555 1_555
C7_24 C6_24 1_555 1_555
C8_24 C7_24 1_555 1_555
H6_26 C8_24 1_555 1_555
C9_26 C4_24 1_555 1_555
H7_26 C9_26 1_555 1_555
C10_25 H8_25 1_555 1_555
C11_25 C10_25 1_555 1_555
H9_25 C11_25 1_555 1_555
C12_26 H10_26 1_555 1_555
C13_24 C14_24 1_555 1_555
C14_24 H11_24 1_555 1_555
C15_24 C14_24 1_555 1_555
H12_24 C15_24 1_555 1_555
C16_24 C15_24 1_555 1_555
C17_25 C16_24 1_555 1_555
H13_25 C17_25 1_555 1_555
C18_25 C13_24 1_555 1_555
H14_25 C18_25 1_555 1_555
C19_26 C20_26 1_555 1_555
C20_26 C21_24 1_555 1_555
C21_24 H15_24 1_555 1_555
C22_26 C20_26 1_555 1_555
H16_26 C22_26 1_555 1_555
C23_27 C24_24 1_555 1_555
C24_24 C25_26 1_555 1_555
C25_26 C22_26 1_555 1_555
H17_26 C25_26 1_555 1_555
C26_24 C21_24 1_555 1_555
H18_24 C26_24 1_555 1_555
Cd3_10 N1_26 1_555 1_555
N1_26 C1_22 1_555 1_555
N2_22 C2_22 1_555 1_555
N5_15 C10_25 1_555 1_555
N4_25 C11_25 1_555 1_555
O1_26 C19_26 1_555 1_555
O2_26 C19_26 1_555 1_555
O6_10 C23_27 1_555 1_555
O7_10 C23_27 1_555 1_555
O5_24 C7_24 1_555 1_555
N5_16 Cd3_10 1_555 1_555
C3_26 N1_26 1_555 1_555
C3_26 N2_22 1_555 1_555
C4_24 N2_22 1_555 1_555
C8_24 C9_26 1_555 1_555
C12_26 N5_15 1_555 1_555
C12_26 N4_25 1_555 1_555
C13_24 N4_25 1_555 1_555
C16_24 O5_24 1_555 1_555
C17_25 C18_25 1_555 1_555
C24_24 C26_24 1_555 1_555
Cd3_10 O1_26 1_555 1_555
Cd3_10 O2_26 1_555 1_555
C1_23 H1_23 1_555 1_555
C2_23 C1_23 1_555 1_555
H2_23 C2_23 1_555 1_555
C3_27 H3_27 1_555 1_555
C4_25 C5_25 1_555 1_555
C5_25 H4_23 1_555 1_555
C6_25 C5_25 1_555 1_555
H5_25 C6_25 1_555 1_555
C7_25 C6_25 1_555 1_555
C8_25 C7_25 1_555 1_555
H6_27 C8_25 1_555 1_555
C9_27 C4_25 1_555 1_555
H7_27 C9_27 1_555 1_555
C10_26 H8_26 1_555 1_555
C11_26 C10_26 1_555 1_555
H9_26 C11_26 1_555 1_555
C12_27 H10_27 1_555 1_555
C13_25 C14_25 1_555 1_555
C14_25 H11_25 1_555 1_555
C15_25 C14_25 1_555 1_555
H12_25 C15_25 1_555 1_555
C16_25 C15_25 1_555 1_555
C17_26 C16_25 1_555 1_555
H13_26 C17_26 1_555 1_555
C18_26 C13_25 1_555 1_555
H14_26 C18_26 1_555 1_555
C19_27 C20_27 1_555 1_555
C22_27 C20_27 1_555 1_555
H16_27 C22_27 1_555 1_555
C25_27 C22_27 1_555 1_555
H17_27 C25_27 1_555 1_555
Cd3_12 N1_27 1_555 1_555
N1_27 C1_23 1_555 1_555
N2_23 C2_23 1_555 1_555
N5_16 C10_26 1_555 1_555
N4_26 C11_26 1_555 1_555
O1_27 C19_27 1_555 1_555
O2_27 C19_27 1_555 1_555
O5_25 C7_25 1_555 1_555
N5_17 Cd3_12 1_555 1_555
C3_27 N1_27 1_555 1_555
C3_27 N2_23 1_555 1_555
C4_25 N2_23 1_555 1_555
C8_25 C9_27 1_555 1_555
C12_27 N5_16 1_555 1_555
C12_27 N4_26 1_555 1_555
C13_25 N4_26 1_555 1_555
C16_25 O5_25 1_555 1_555
C17_26 C18_26 1_555 1_555
Cd3_12 O1_27 1_555 1_555
Cd3_12 O2_27 1_555 1_555
C3_28 H3_28 1_555 1_555
H7_28 C9_28 1_555 1_555
C19_28 C20_28 1_555 1_555
C20_28 C21_25 1_555 1_555
C21_25 H15_25 1_555 1_555
C22_28 C20_28 1_555 1_555
H16_28 C22_28 1_555 1_555
C23_28 C24_25 1_555 1_555
C24_25 C25_28 1_555 1_555
C25_28 C22_28 1_555 1_555
H17_28 C25_28 1_555 1_555
C26_25 C21_25 1_555 1_555
H18_25 C26_25 1_555 1_555
Cd3_9 N1_28 1_555 1_555
O1_28 C19_28 1_555 1_555
O2_28 C19_28 1_555 1_555
O6_9 C23_28 1_555 1_555
O7_9 C23_28 1_555 1_555
C3_28 N1_28 1_555 1_555
C24_25 C26_25 1_555 1_555
Cd3_9 O1_28 1_555 1_555
Cd3_9 O2_28 1_555 1_555
C10_27 H8_27 1_555 1_555
C11_27 C10_27 1_555 1_555
H9_27 C11_27 1_555 1_555
C12_28 H10_28 1_555 1_555
N5_17 C10_27 1_555 1_555
N4_27 C11_27 1_555 1_555
C12_28 N5_17 1_555 1_555
C12_28 N4_27 1_555 1_555
C1_24 H1_24 1_555 1_555
C2_24 C1_24 1_555 1_555
H2_24 C2_24 1_555 1_555
C3_29 H3_29 1_555 1_555
C4_26 C5_26 1_555 1_555
C5_26 H4_24 1_555 1_555
C6_26 C5_26 1_555 1_555
H5_26 C6_26 1_555 1_555
C7_26 C6_26 1_555 1_555
C8_26 C7_26 1_555 1_555
H6_29 C8_26 1_555 1_555
C9_29 C4_26 1_555 1_555
H7_29 C9_29 1_555 1_555
C10_28 H8_28 1_555 1_555
C11_28 C10_28 1_555 1_555
H9_28 C11_28 1_555 1_555
C12_29 H10_29 1_555 1_555
C13_26 C14_26 1_555 1_555
C14_26 H11_26 1_555 1_555
C15_26 C14_26 1_555 1_555
H12_26 C15_26 1_555 1_555
C16_26 C15_26 1_555 1_555
C17_27 C16_26 1_555 1_555
H13_27 C17_27 1_555 1_555
C18_27 C13_26 1_555 1_555
H14_27 C18_27 1_555 1_555
C19_29 C20_29 1_555 1_555
C20_29 C21_26 1_555 1_555
C21_26 H15_26 1_555 1_555
C22_29 C20_29 1_555 1_555
H16_29 C22_29 1_555 1_555
C23_29 C24_26 1_555 1_555
C24_26 C25_29 1_555 1_555
C25_29 C22_29 1_555 1_555
H17_29 C25_29 1_555 1_555
C26_26 C21_26 1_555 1_555
H18_26 C26_26 1_555 1_555
Cd3_11 N1_29 1_555 1_555
N1_29 C1_24 1_555 1_555
N2_24 C2_24 1_555 1_555
N5_14 C10_28 1_555 1_555
N4_28 C11_28 1_555 1_555
O1_29 C19_29 1_555 1_555
O2_29 C19_29 1_555 1_555
O6_11 C23_29 1_555 1_555
O7_11 C23_29 1_555 1_555
O5_26 C7_26 1_555 1_555
N5_18 Cd3_11 1_555 1_555
C3_29 N1_29 1_555 1_555
C3_29 N2_24 1_555 1_555
C4_26 N2_24 1_555 1_555
C8_26 C9_29 1_555 1_555
C12_29 N5_14 1_555 1_555
C12_29 N4_28 1_555 1_555
C13_26 N4_28 1_555 1_555
C16_26 O5_26 1_555 1_555
C17_27 C18_27 1_555 1_555
C24_26 C26_26 1_555 1_555
Cd3_11 O1_29 1_555 1_555
Cd3_11 O2_29 1_555 1_555
C10_29 H8_29 1_555 1_555
C11_29 C10_29 1_555 1_555
H9_29 C11_29 1_555 1_555
C12_30 H10_30 1_555 1_555
N5_18 C10_29 1_555 1_555
N4_29 C11_29 1_555 1_555
C12_30 N5_18 1_555 1_555
C12_30 N4_29 1_555 1_555
H7_30 C9_30 1_555 1_555
C19_30 C20_30 1_555 1_555
C20_30 C21_27 1_555 1_555
C21_27 H15_27 1_555 1_555
C22_30 C20_30 1_555 1_555
H16_30 C22_30 1_555 1_555
C23_30 C24_27 1_555 1_555
C24_27 C25_30 1_555 1_555
C25_30 C22_30 1_555 1_555
H17_30 C25_30 1_555 1_555
C26_27 C21_27 1_555 1_555
H18_27 C26_27 1_555 1_555
O6_13 C23_30 1_555 1_555
O7_13 C23_30 1_555 1_555
C24_27 C26_27 1_555 1_555
Cd3_14 N1_30 1_555 1_555
N5_19 Cd3_14 1_555 1_555
C3_30 N1_30 1_555 1_555
Cd3_14 O1_30 1_555 1_555
Cd3_14 O2_30 1_555 1_555
C1_25 H1_25 1_555 1_555
C2_25 C1_25 1_555 1_555
H2_25 C2_25 1_555 1_555
C3_31 H3_31 1_555 1_555
C4_27 C5_27 1_555 1_555
C5_27 H4_25 1_555 1_555
C6_27 C5_27 1_555 1_555
H5_27 C6_27 1_555 1_555
C7_27 C6_27 1_555 1_555
C8_27 C7_27 1_555 1_555
H6_31 C8_27 1_555 1_555
C9_31 C4_27 1_555 1_555
H7_31 C9_31 1_555 1_555
C10_30 H8_30 1_555 1_555
C11_30 C10_30 1_555 1_555
H9_30 C11_30 1_555 1_555
C13_27 C14_27 1_555 1_555
C14_27 H11_27 1_555 1_555
C15_27 C14_27 1_555 1_555
H12_27 C15_27 1_555 1_555
C16_27 C15_27 1_555 1_555
C19_31 C20_31 1_555 1_555
C20_31 C21_28 1_555 1_555
C21_28 H15_28 1_555 1_555
C22_31 C20_31 1_555 1_555
H16_31 C22_31 1_555 1_555
C24_28 C25_31 1_555 1_555
C25_31 C22_31 1_555 1_555
H17_31 C25_31 1_555 1_555
C26_28 C21_28 1_555 1_555
H18_28 C26_28 1_555 1_555
Cd3_16 N1_31 1_555 1_555
N1_31 C1_25 1_555 1_555
N2_25 C2_25 1_555 1_555
N4_30 C11_30 1_555 1_555
O1_31 C19_31 1_555 1_555
O2_31 C19_31 1_555 1_555
O5_27 C7_27 1_555 1_555
C3_31 N1_31 1_555 1_555
C3_31 N2_25 1_555 1_555
C4_27 N2_25 1_555 1_555
C8_27 C9_31 1_555 1_555
C13_27 N4_30 1_555 1_555
C16_27 O5_27 1_555 1_555
C24_28 C26_28 1_555 1_555
Cd3_16 O1_31 1_555 1_555
Cd3_16 O2_31 1_555 1_555
C12_31 H10_31 1_555 1_555
H13_28 C17_28 1_555 1_555
H14_28 C18_28 1_555 1_555
O6_15 C23_31 1_555 1_555
O7_15 C23_31 1_555 1_555
C12_31 N5_19 1_555 1_555
C17_28 C18_28 1_555 1_555
C1_26 H1_26 1_555 1_555
C2_26 C1_26 1_555 1_555
H2_26 C2_26 1_555 1_555
N2_26 C2_26 1_555 1_555
C21_29 H15_29 1_555 1_555
C26_29 C21_29 1_555 1_555
H18_29 C26_29 1_555 1_555
C24_29 C26_29 1_555 1_555
C1_27 H1_27 1_555 1_555
C2_27 C1_27 1_555 1_555
H2_27 C2_27 1_555 1_555
C3_32 H3_32 1_555 1_555
C4_28 C5_28 1_555 1_555
C5_28 H4_27 1_555 1_555
C6_28 C5_28 1_555 1_555
H5_28 C6_28 1_555 1_555
C7_28 C6_28 1_555 1_555
C8_28 C7_28 1_555 1_555
H6_32 C8_28 1_555 1_555
C9_32 C4_28 1_555 1_555
H7_32 C9_32 1_555 1_555
C10_31 H8_31 1_555 1_555
C11_31 C10_31 1_555 1_555
H9_31 C11_31 1_555 1_555
C13_28 C14_28 1_555 1_555
C14_28 H11_28 1_555 1_555
C15_28 C14_28 1_555 1_555
H12_28 C15_28 1_555 1_555
C16_28 C15_28 1_555 1_555
C19_32 C20_32 1_555 1_555
C22_32 C20_32 1_555 1_555
H16_32 C22_32 1_555 1_555
C25_32 C22_32 1_555 1_555
H17_32 C25_32 1_555 1_555
Cd1_10 N1_32 1_555 1_555
N1_32 C1_27 1_555 1_555
N2_27 C2_27 1_555 1_555
N4_31 C11_31 1_555 1_555
O1_32 C19_32 1_555 1_555
O2_32 C19_32 1_555 1_555
O5_28 C7_28 1_555 1_555
N5_20 Cd1_10 1_555 1_555
O6_16 Cd1_10 1_555 1_555
O7_16 Cd1_10 1_555 1_555
C3_32 N1_32 1_555 1_555
C3_32 N2_27 1_555 1_555
C4_28 N2_27 1_555 1_555
C8_28 C9_32 1_555 1_555
C13_28 N4_31 1_555 1_555
C16_28 O5_28 1_555 1_555
Cd1_10 O1_32 1_555 1_555
Cd1_10 O2_32 1_555 1_555
C10_32 H8_32 1_555 1_555
C11_32 C10_32 1_555 1_555
H9_32 C11_32 1_555 1_555
C12_32 H10_32 1_555 1_555
N5_20 C10_32 1_555 1_555
N4_32 C11_32 1_555 1_555
C12_32 N5_20 1_555 1_555
C12_32 N4_32 1_555 1_555
C21_30 H15_30 1_555 1_555
C23_32 C24_30 1_555 1_555
C26_30 C21_30 1_555 1_555
H18_30 C26_30 1_555 1_555
O6_16 C23_32 1_555 1_555
O7_16 C23_32 1_555 1_555
C24_30 C26_30 1_555 1_555
C1_28 H1_28 1_555 1_555
C2_28 C1_28 1_555 1_555
H2_28 C2_28 1_555 1_555
C4_29 C5_29 1_555 1_555
C5_29 H4_28 1_555 1_555
C6_29 C5_29 1_555 1_555
H5_29 C6_29 1_555 1_555
C7_29 C6_29 1_555 1_555
C8_29 C7_29 1_555 1_555
C13_29 C14_29 1_555 1_555
C14_29 H11_29 1_555 1_555
C15_29 C14_29 1_555 1_555
H12_29 C15_29 1_555 1_555
C16_29 C15_29 1_555 1_555
C17_29 C16_29 1_555 1_555
H13_29 C17_29 1_555 1_555
C18_29 C13_29 1_555 1_555
H14_29 C18_29 1_555 1_555
N2_28 C2_28 1_555 1_555
O5_29 C7_29 1_555 1_555
C4_29 N2_28 1_555 1_555
C16_29 O5_29 1_555 1_555
C17_29 C18_29 1_555 1_555
C1_29 H1_29 1_555 1_555
C2_29 C1_29 1_555 1_555
H2_29 C2_29 1_555 1_555
N2_29 C2_29 1_555 1_555
C4_30 C5_30 1_555 1_555
C6_30 C5_30 1_555 1_555
H5_30 C6_30 1_555 1_555
C7_30 C6_30 1_555 1_555
C8_30 C7_30 1_555 1_555
C13_30 C14_30 1_555 1_555
C14_30 H11_30 1_555 1_555
C15_30 C14_30 1_555 1_555
H12_30 C15_30 1_555 1_555
C16_30 C15_30 1_555 1_555
C17_30 C16_30 1_555 1_555
H13_30 C17_30 1_555 1_555
C18_30 C13_30 1_555 1_555
H14_30 C18_30 1_555 1_555
O5_30 C7_30 1_555 1_555
C16_30 O5_30 1_555 1_555
C17_30 C18_30 1_555 1_555
C21_31 H15_31 1_555 1_555
C26_31 C21_31 1_555 1_555
H18_31 C26_31 1_555 1_555
C24_31 C26_31 1_555 1_555
C1_30 H1_30 1_555 1_555
C2_30 C1_30 1_555 1_555
H2_30 C2_30 1_555 1_555
N2_30 C2_30 1_555 1_555
C21_32 H15_32 1_555 1_555
C26_32 C21_32 1_555 1_555
H18_32 C26_32 1_555 1_555
C24_32 C26_32 1_555 1_555
C1_31 H1_31 1_555 1_555
C2_31 C1_31 1_555 1_555
H2_31 C2_31 1_555 1_555
C4_31 C5_31 1_555 1_555
C5_31 H4_31 1_555 1_555
C6_31 C5_31 1_555 1_555
H5_31 C6_31 1_555 1_555
C7_31 C6_31 1_555 1_555
C8_31 C7_31 1_555 1_555
C13_31 C14_31 1_555 1_555
C14_31 H11_31 1_555 1_555
C15_31 C14_31 1_555 1_555
H12_31 C15_31 1_555 1_555
C16_31 C15_31 1_555 1_555
C17_31 C16_31 1_555 1_555
H13_31 C17_31 1_555 1_555
C18_31 C13_31 1_555 1_555
H14_31 C18_31 1_555 1_555
N2_31 C2_31 1_555 1_555
O5_31 C7_31 1_555 1_555
C4_31 N2_31 1_555 1_555
C16_31 O5_31 1_555 1_555
C17_31 C18_31 1_555 1_555
C4_32 C5_32 1_555 1_555
C6_32 C5_32 1_555 1_555
H5_32 C6_32 1_555 1_555
C7_32 C6_32 1_555 1_555
C8_32 C7_32 1_555 1_555
C13_32 C14_32 1_555 1_555
C14_32 H11_32 1_555 1_555
C15_32 C14_32 1_555 1_555
H12_32 C15_32 1_555 1_555
C16_32 C15_32 1_555 1_555
C17_32 C16_32 1_555 1_555
H13_32 C17_32 1_555 1_555
C18_32 C13_32 1_555 1_555
H14_32 C18_32 1_555 1_555
O5_32 C7_32 1_555 1_555
C16_32 O5_32 1_555 1_555
C17_32 C18_32 1_555 1_555
C1_32 H1_32 1_555 1_555
C2_32 C1_32 1_555 1_555
H2_32 C2_32 1_555 1_555
N2_32 C2_32 1_555 1_555

#END
