
###############################################################################
#
# This file contains modified crystal structure data generated from the
# MOF subset of the Cambridge Structural Database (CSD) v543 
# hosted by the Cambridge Crystallographic Data Centre (CCDC).
#
# This work is licensed under the Creative Commons
# Attribution-NonCommercial-ShareAlike 4.0 International License.
# To view a copy of this license, visit
# http://creativecommons.org/licenses/by-nc-sa/4.0/
# or send a letter to
# Creative Commons, PO Box 1866, Mountain View, CA 94042, USA.
#
# CIF created using the CSD Python API on 29 September 2022
# The structure has been converted into the P1 space group
# The structure has a 3D framework
# The original CSD entry OKITIM02 is in the tetragonal crystal system
# The original CSD entry OKITIM02 is in a Sohncke space group
# The framework has been calculated to contain at least 10.0% void space
# The void calculation uses a probe of radius 1.32A, grid spacing 0.4
# The framework is charged, counterions have been retained in the structure
#
###############################################################################

data_OKITIM02
_chemical_formula_moiety         '(C192 H144 Cd3 Cl10 N48 O32 2-)n'
_symmetry_cell_setting           triclinic
_symmetry_space_group_name_H-M   'P 1'
_symmetry_Int_Tables_number      1
_space_group_name_Hall           'P 1'
loop_
_symmetry_equiv_pos_site_id
_symmetry_equiv_pos_as_xyz
1 x,y,z
_cell_length_a                   15.8773(12)
_cell_length_b                   15.8773(12)
_cell_length_c                   21.684(3)
_cell_angle_alpha                90
_cell_angle_beta                 90
_cell_angle_gamma                90
_cell_volume                     5466.29
loop_
_atom_site_label
_atom_site_type_symbol
_atom_site_fract_x
_atom_site_fract_y
_atom_site_fract_z
C15 C 0.0055(5) 0.1643(5) 0.4640(3)
H9 H 0.0473 0.1217 0.4606
C16 C 0.0156(5) 0.2285(5) 0.5045(4)
H10 H 0.0651 0.2308 0.5290
C25 C 0.3595(5) 0.4132(5) 0.1405(3)
H19 H 0.3900 0.4621 0.1524
C26 C 0.2977(4) 0.3844(4) 0.1783(3)
H20 H 0.2842 0.4150 0.2146
C27 C 0.2533(4) 0.3103(4) 0.1646(3)
C28 C 0.2815(5) 0.2680(5) 0.1141(3)
H21 H 0.2592 0.2139 0.1051
C29 C 0.3420(5) 0.3024(5) 0.0756(4)
H22 H 0.3577 0.2726 0.0394
C30 C 0.1818(4) 0.2794(4) 0.2014(3)
C31 C 0.1665(5) 0.3073(5) 0.2621(3)
H23 H 0.2025 0.3483 0.2799
C32 C 0.1008(5) 0.2764(5) 0.2954(3)
H24 H 0.0926 0.2948 0.3366
C33 C 0.0447(5) 0.2172(5) 0.2692(3)
C34 C 0.0594(4) 0.1892(4) 0.2091(3)
C35 C 0.1258(4) 0.2205(5) 0.1767(3)
H26 H 0.1345 0.2015 0.1356
C36 C 0.0035(4) 0.1267(4) 0.1798(3)
Cd3 Cd 0.44204(3) 0.44204(3) 0.0000
N9 N 0.3792(4) 0.3760(4) 0.0877(3)
N10 N 0.0059(3) 0.0446(3) 0.1845(2)
N15 N 0.1864(3) 0.0247(3) 0.2574(3)
Cd3_2 Cd 0.44204(3) 0.44204(3) 1.0000
Cd1 Cd 0.05796(3) 0.94204(3) 0.2500
N7 N 0.1240(4) 0.8792(4) 0.3377(3)
N8 N 0.1208(4) 0.8760(4) 0.1623(3)
H7 H 0.8031 0.0021 0.2079
C13 C 0.9250(4) 0.0919(4) 0.3826(3)
C14 C 0.9325(4) 0.1612(4) 0.4270(3)
C17 C 0.9550(5) 0.2912(4) 0.5111(3)
H11 H 0.9622 0.3340 0.5413
C18 C 0.8844(4) 0.2915(4) 0.4737(3)
C19 C 0.8735(4) 0.2254(4) 0.4310(3)
H12 H 0.8255 0.2248 0.4049
C20 C 0.8191(4) 0.3575(4) 0.4784(3)
C21 C 0.7633(5) 0.3756(5) 0.4305(3)
H13 H 0.7691 0.3484 0.3917
C22 C 0.6985(5) 0.4344(4) 0.4400(3)
H14 H 0.6611 0.4455 0.4068
C23 C 0.7405(5) 0.4598(5) 0.5380(3)
H15 H 0.7337 0.4889 0.5760
C24 C 0.8071(5) 0.4023(5) 0.5325(3)
H16 H 0.8444 0.3939 0.5662
N3 N 0.9882(4) 0.0546(3) 0.3556(2)
N4 N 0.8506(4) 0.0567(3) 0.3618(2)
N5 N 0.7693(4) 0.0752(4) 0.3830(3)
H17 H 0.7492 0.0310 0.4055
H18 H 0.7350 0.0842 0.3499
N6 N 0.6864(3) 0.4753(3) 0.4926(3)
H25 H 0.9979 0.1969 0.2921
C37 C 0.9081(4) 0.0750(4) 0.1174(3)
C38 C 0.8388(4) 0.0675(4) 0.0730(3)
C42 C 0.7085(4) 0.1156(4) 0.0263(3)
C43 C 0.7746(4) 0.1265(4) 0.0690(3)
H30 H 0.7752 0.1745 0.0951
C44 C 0.6425(4) 0.1809(4) 0.0216(3)
C45 C 0.6244(5) 0.2367(5) 0.0695(3)
H31 H 0.6516 0.2309 0.1083
C46 C 0.5656(4) 0.3015(5) 0.0600(3)
H32 H 0.5545 0.3389 0.0932
Cd4 Cd 0.55796(3) 0.55796(3) 0.5000
N11 N 0.9454(3) 0.0118(4) 0.1444(2)
N12 N 0.9433(3) 0.1494(4) 0.1382(2)
N13 N 0.9248(4) 0.2307(4) 0.1170(3)
H35 H 0.9690 0.2508 0.0945
H36 H 0.9158 0.2650 0.1501
N16 N 0.5247(3) 0.3136(3) 0.0074(3)
C41 C 0.7088(4) 0.0450(5) 0.9889(3)
H29 H 0.6660 0.0378 0.9587
C47 C 0.5402(5) 0.2595(5) 0.9620(3)
H33 H 0.5111 0.2663 0.9240
C48 C 0.5977(5) 0.1929(5) 0.9675(3)
H34 H 0.6061 0.1556 0.9338
C1 C 0.5868(5) 0.6405(5) 0.3595(3)
H1 H 0.5379 0.6100 0.3476
C2 C 0.6156(4) 0.7023(4) 0.3217(3)
H2 H 0.5850 0.7158 0.2854
C3 C 0.6897(4) 0.7467(4) 0.3354(3)
C4 C 0.7320(5) 0.7185(5) 0.3859(3)
H3 H 0.7861 0.7408 0.3949
C5 C 0.6976(5) 0.6580(5) 0.4244(4)
H4 H 0.7274 0.6423 0.4606
C6 C 0.7206(4) 0.8182(4) 0.2986(3)
C7 C 0.6927(5) 0.8335(5) 0.2379(3)
H5 H 0.6517 0.7975 0.2201
C8 C 0.7236(5) 0.8992(5) 0.2046(3)
H6 H 0.7052 0.9074 0.1634
C9 C 0.7828(5) 0.9553(5) 0.2308(3)
C10 C 0.8108(4) 0.9406(4) 0.2909(3)
C11 C 0.7795(5) 0.8742(4) 0.3233(3)
H8 H 0.7985 0.8655 0.3644
C12 C 0.8733(4) 0.9965(4) 0.3202(3)
N1 N 0.6240(4) 0.6208(4) 0.4123(3)
N2 N 0.9554(3) 0.9941(3) 0.3155(2)
C39 C 0.8357(5) 0.9945(5) 0.0360(3)
H27 H 0.8783 0.9527 0.0394
N14 N 0.9753(3) 0.8136(3) 0.2426(3)
C1_2 C 0.4132(5) 0.3595(5) 0.8595(3)
H1_2 H 0.4621 0.3900 0.8476
C2_2 C 0.3844(4) 0.2977(4) 0.8217(3)
H2_2 H 0.4150 0.2842 0.7854
C3_2 C 0.3103(4) 0.2533(4) 0.8354(3)
C4_2 C 0.2680(5) 0.2815(5) 0.8859(3)
H3_2 H 0.2139 0.2592 0.8949
C5_2 C 0.3024(5) 0.3420(5) 0.9244(4)
H4_2 H 0.2726 0.3577 0.9606
C6_2 C 0.2794(4) 0.1818(4) 0.7986(3)
C7_2 C 0.3073(5) 0.1665(5) 0.7379(3)
H5_2 H 0.3483 0.2025 0.7201
C8_2 C 0.2764(5) 0.1008(5) 0.7046(3)
H6_2 H 0.2948 0.0926 0.6634
C9_2 C 0.2172(5) 0.0447(5) 0.7308(3)
C10_2 C 0.1892(4) 0.0594(4) 0.7909(3)
C11_2 C 0.2205(5) 0.1258(4) 0.8233(3)
H8_2 H 0.2015 0.1345 0.8644
C12_2 C 0.1267(4) 0.0035(4) 0.8202(3)
N1_2 N 0.3760(4) 0.3792(4) 0.9123(3)
N2_2 N 0.0446(3) 0.0059(3) 0.8155(2)
C39_2 C 0.1643(5) 0.0055(5) 0.5360(3)
H27_2 H 0.1217 0.0473 0.5394
C40 C 0.2285(5) 0.0156(5) 0.4955(4)
H28 H 0.2308 0.0651 0.4710
N14_2 N 0.0247(3) 0.1864(3) 0.7426(3)
C17_2 C 0.0450(5) 0.7088(4) 0.0111(3)
H11_2 H 0.0378 0.6660 0.0413
C23_2 C 0.2595(5) 0.5402(5) 0.0380(3)
H15_2 H 0.2663 0.5111 0.0760
C24_2 C 0.1929(5) 0.5977(5) 0.0325(3)
H16_2 H 0.1556 0.6061 0.0662
H7_2 H 0.1969 0.9979 0.7079
C13_2 C 0.0750(4) 0.9081(4) 0.8826(3)
C14_2 C 0.0675(4) 0.8388(4) 0.9270(3)
C18_2 C 0.1156(4) 0.7085(4) 0.9737(3)
C19_2 C 0.1265(4) 0.7746(4) 0.9310(3)
H12_2 H 0.1745 0.7752 0.9049
C20_2 C 0.1809(4) 0.6425(4) 0.9784(3)
C21_2 C 0.2367(5) 0.6244(5) 0.9305(3)
H13_2 H 0.2309 0.6516 0.8917
C22_2 C 0.3015(5) 0.5656(4) 0.9400(3)
H14_2 H 0.3389 0.5545 0.9068
N3_2 N 0.0118(4) 0.9454(3) 0.8556(2)
N4_2 N 0.1494(4) 0.9433(3) 0.8618(2)
N5_2 N 0.2307(4) 0.9248(4) 0.8830(3)
H17_2 H 0.2508 0.9690 0.9055
H18_2 H 0.2650 0.9158 0.8499
N6_2 N 0.3136(3) 0.5247(3) 0.9926(3)
H25_2 H 0.0021 0.8031 0.7921
C37_2 C 0.0919(4) 0.9250(4) 0.6174(3)
C38_2 C 0.1612(4) 0.9325(4) 0.5730(3)
C41_2 C 0.2912(4) 0.9550(5) 0.4889(3)
H29_2 H 0.3340 0.9622 0.4587
C42_2 C 0.2915(4) 0.8844(4) 0.5263(3)
C43_2 C 0.2254(4) 0.8735(4) 0.5690(3)
H30_2 H 0.2248 0.8255 0.5951
C44_2 C 0.3575(4) 0.8191(4) 0.5216(3)
C45_2 C 0.3756(5) 0.7633(5) 0.5695(3)
H31_2 H 0.3484 0.7691 0.6083
C46_2 C 0.4344(4) 0.6985(5) 0.5600(3)
H32_2 H 0.4455 0.6611 0.5932
C47_2 C 0.4598(5) 0.7405(5) 0.4620(3)
H33_2 H 0.4889 0.7337 0.4240
C48_2 C 0.4023(5) 0.8071(5) 0.4675(3)
H34_2 H 0.3939 0.8444 0.4338
N11_2 N 0.0546(3) 0.9882(4) 0.6444(2)
N12_2 N 0.0567(3) 0.8506(4) 0.6382(2)
N13_2 N 0.0752(4) 0.7693(4) 0.6170(3)
H35_2 H 0.0310 0.7492 0.5945
H36_2 H 0.0842 0.7350 0.6501
N16_2 N 0.4753(3) 0.6864(3) 0.5074(3)
Cd1_2 Cd 0.94204(3) 0.05796(3) 0.7500
N7_2 N 0.8760(4) 0.1208(4) 0.8377(3)
N8_2 N 0.8792(4) 0.1240(4) 0.6623(3)
C15_2 C 0.9945(5) 0.8357(5) 0.9640(3)
H9_2 H 0.9527 0.8783 0.9606
C25_2 C 0.6405(5) 0.5868(5) 0.6405(3)
H19_2 H 0.6100 0.5379 0.6524
C26_2 C 0.7023(4) 0.6156(4) 0.6783(3)
H20_2 H 0.7158 0.5850 0.7146
C27_2 C 0.7467(4) 0.6897(4) 0.6646(3)
C28_2 C 0.7185(5) 0.7320(5) 0.6141(3)
H21_2 H 0.7408 0.7861 0.6051
C29_2 C 0.6580(5) 0.6976(5) 0.5756(4)
H22_2 H 0.6423 0.7274 0.5394
C30_2 C 0.8182(4) 0.7206(4) 0.7014(3)
C31_2 C 0.8335(5) 0.6927(5) 0.7621(3)
H23_2 H 0.7975 0.6517 0.7799
C32_2 C 0.8992(5) 0.7236(5) 0.7954(3)
H24_2 H 0.9074 0.7052 0.8366
C33_2 C 0.9553(5) 0.7828(5) 0.7692(3)
C34_2 C 0.9406(4) 0.8108(4) 0.7091(3)
C35_2 C 0.8742(4) 0.7795(5) 0.6767(3)
H26_2 H 0.8655 0.7985 0.6356
C36_2 C 0.9965(4) 0.8733(4) 0.6798(3)
N9_2 N 0.6208(4) 0.6240(4) 0.5877(3)
N10_2 N 0.9941(3) 0.9554(3) 0.6845(2)
N15_2 N 0.8136(3) 0.9753(3) 0.7574(3)
C1_3 C 0.8595(5) 0.0868(5) 0.6095(3)
H1_3 H 0.8900 0.0379 0.5976
C2_3 C 0.7977(4) 0.1156(4) 0.5717(3)
H2_3 H 0.7842 0.0850 0.5354
C3_3 C 0.7533(4) 0.1897(4) 0.5854(3)
C4_3 C 0.7815(5) 0.2320(5) 0.6359(3)
H3_3 H 0.7592 0.2861 0.6449
C5_3 C 0.8420(5) 0.1976(5) 0.6744(4)
H4_3 H 0.8577 0.2274 0.7106
C6_3 C 0.6818(4) 0.2206(4) 0.5486(3)
C7_3 C 0.6665(5) 0.1927(5) 0.4879(3)
H5_3 H 0.7025 0.1517 0.4701
C8_3 C 0.6008(5) 0.2236(5) 0.4546(3)
H6_3 H 0.5926 0.2052 0.4134
C9_3 C 0.5447(5) 0.2828(5) 0.4808(3)
H7_3 H 0.4979 0.3031 0.4579
C10_3 C 0.5594(4) 0.3108(4) 0.5409(3)
C11_3 C 0.6258(4) 0.2795(5) 0.5733(3)
H8_3 H 0.6345 0.2985 0.6144
C12_3 C 0.5035(4) 0.3733(4) 0.5702(3)
C13_3 C 0.4081(4) 0.4250(4) 0.6326(3)
C14_3 C 0.3388(4) 0.4325(4) 0.6770(3)
C15_3 C 0.3357(5) 0.5055(5) 0.7140(3)
H9_3 H 0.3783 0.5473 0.7106
C16_2 C 0.2715(5) 0.5156(5) 0.7545(4)
H10_2 H 0.2692 0.5651 0.7790
C17_3 C 0.2088(4) 0.4550(5) 0.7611(3)
H11_3 H 0.1660 0.4622 0.7913
C18_3 C 0.2085(4) 0.3844(4) 0.7237(3)
C19_3 C 0.2746(4) 0.3735(4) 0.6810(3)
H12_3 H 0.2752 0.3255 0.6549
C20_3 C 0.1425(4) 0.3191(4) 0.7284(3)
C21_3 C 0.1244(5) 0.2633(5) 0.6805(3)
H13_3 H 0.1516 0.2691 0.6417
C22_3 C 0.0656(4) 0.1985(5) 0.6900(3)
H14_3 H 0.0545 0.1611 0.6568
C23_3 C 0.0402(5) 0.2405(5) 0.7880(3)
H15_3 H 0.0111 0.2337 0.8260
C24_3 C 0.0977(5) 0.3071(5) 0.7825(3)
H16_3 H 0.1061 0.3444 0.8162
N2_3 N 0.5059(3) 0.4554(3) 0.5655(2)
N3_3 N 0.4454(3) 0.4882(4) 0.6056(2)
N4_3 N 0.4433(3) 0.3506(4) 0.6118(2)
N5_3 N 0.4248(4) 0.2693(4) 0.6330(3)
H17_3 H 0.4690 0.2492 0.6555
H18_3 H 0.4158 0.2350 0.5999
C25_3 C 0.0868(5) 0.8595(5) 0.3905(3)
H19_3 H 0.0379 0.8900 0.4024
C26_3 C 0.1156(4) 0.7977(4) 0.4283(3)
H20_3 H 0.0850 0.7842 0.4646
C27_3 C 0.1897(4) 0.7533(4) 0.4146(3)
C28_3 C 0.2320(5) 0.7815(5) 0.3641(3)
H21_3 H 0.2861 0.7592 0.3551
C29_3 C 0.1976(5) 0.8420(5) 0.3256(4)
H22_3 H 0.2274 0.8577 0.2894
C30_3 C 0.2206(4) 0.6818(4) 0.4514(3)
C31_3 C 0.1927(5) 0.6665(5) 0.5121(3)
H23_3 H 0.1517 0.7025 0.5299
C32_3 C 0.2236(5) 0.6008(5) 0.5454(3)
H24_3 H 0.2052 0.5926 0.5866
C33_3 C 0.2828(5) 0.5447(5) 0.5192(3)
H25_3 H 0.3031 0.4979 0.5421
C34_3 C 0.3108(4) 0.5594(4) 0.4591(3)
C35_3 C 0.2795(5) 0.6258(4) 0.4267(3)
H26_3 H 0.2985 0.6345 0.3856
C36_3 C 0.3733(4) 0.5035(4) 0.4298(3)
C37_3 C 0.4250(4) 0.4081(4) 0.3674(3)
C38_3 C 0.4325(4) 0.3388(4) 0.3230(3)
C39_3 C 0.5055(5) 0.3357(5) 0.2860(3)
H27_3 H 0.5473 0.3783 0.2894
C40_2 C 0.5156(5) 0.2715(5) 0.2455(4)
H28_2 H 0.5651 0.2692 0.2210
C41_3 C 0.4550(5) 0.2088(4) 0.2389(3)
H29_3 H 0.4622 0.1660 0.2087
C42_3 C 0.3844(4) 0.2085(4) 0.2763(3)
C43_3 C 0.3735(4) 0.2746(4) 0.3190(3)
H30_3 H 0.3255 0.2752 0.3451
C44_3 C 0.3191(4) 0.1425(4) 0.2716(3)
C45_3 C 0.2633(5) 0.1244(5) 0.3195(3)
H31_3 H 0.2691 0.1516 0.3583
C46_3 C 0.1985(5) 0.0656(4) 0.3100(3)
H32_3 H 0.1611 0.0545 0.3432
C47_3 C 0.2405(5) 0.0402(5) 0.2120(3)
H33_3 H 0.2337 0.0111 0.1740
C48_3 C 0.3071(5) 0.0977(5) 0.2175(3)
H34_3 H 0.3444 0.1061 0.1838
N10_3 N 0.4554(3) 0.5059(3) 0.4345(2)
N11_3 N 0.4882(4) 0.4454(3) 0.3944(2)
N12_3 N 0.3506(4) 0.4433(3) 0.3882(2)
N13_3 N 0.2693(4) 0.4248(4) 0.3670(3)
H35_3 H 0.2492 0.4690 0.3445
H36_3 H 0.2350 0.4158 0.4001
C1_4 C 0.1405(5) 0.9132(5) 0.1095(3)
H1_4 H 0.1100 0.9621 0.0976
C2_4 C 0.2023(4) 0.8844(4) 0.0717(3)
H2_4 H 0.2158 0.9150 0.0354
C3_4 C 0.2467(4) 0.8103(4) 0.0854(3)
C4_4 C 0.2185(5) 0.7680(5) 0.1359(3)
H3_4 H 0.2408 0.7139 0.1449
C5_4 C 0.1580(5) 0.8024(5) 0.1744(4)
H4_4 H 0.1423 0.7726 0.2106
C6_4 C 0.3182(4) 0.7794(4) 0.0486(3)
C10_4 C 0.4406(4) 0.6892(4) 0.0409(3)
C11_4 C 0.3742(4) 0.7205(5) 0.0733(3)
H8_4 H 0.3655 0.7015 0.1144
C12_4 C 0.4965(4) 0.6267(4) 0.0702(3)
C13_4 C 0.5919(4) 0.5750(4) 0.1326(3)
C14_4 C 0.6612(4) 0.5675(4) 0.1770(3)
C15_4 C 0.6643(5) 0.4945(5) 0.2140(3)
H9_4 H 0.6217 0.4527 0.2106
C16_3 C 0.7285(5) 0.4844(5) 0.2545(4)
H10_3 H 0.7308 0.4349 0.2790
C17_4 C 0.7912(4) 0.5450(5) 0.2611(3)
H11_4 H 0.8340 0.5378 0.2913
C18_4 C 0.7915(4) 0.6156(4) 0.2237(3)
C19_4 C 0.7254(4) 0.6265(4) 0.1810(3)
H12_4 H 0.7248 0.6745 0.1549
C20_4 C 0.8575(4) 0.6809(4) 0.2284(3)
C21_4 C 0.8756(5) 0.7367(5) 0.1805(3)
H13_4 H 0.8484 0.7309 0.1417
C22_4 C 0.9344(4) 0.8015(5) 0.1900(3)
H14_4 H 0.9455 0.8389 0.1568
C23_4 C 0.9598(5) 0.7595(5) 0.2880(3)
H15_4 H 0.9889 0.7663 0.3260
C24_4 C 0.9023(5) 0.6929(5) 0.2825(3)
H16_4 H 0.8939 0.6556 0.3162
N2_4 N 0.4941(3) 0.5446(3) 0.0655(2)
N3_4 N 0.5546(3) 0.5118(4) 0.1056(2)
N4_4 N 0.5567(3) 0.6494(4) 0.1118(2)
N5_4 N 0.5752(4) 0.7307(4) 0.1330(3)
H17_4 H 0.5310 0.7508 0.1555
H18_4 H 0.5842 0.7650 0.0999
C31_4 C 0.8073(5) 0.3335(5) 0.0121(3)
H23_4 H 0.8483 0.2975 0.0299
C32_4 C 0.7764(5) 0.3992(5) 0.0454(3)
H24_4 H 0.7948 0.4074 0.0866
C33_4 C 0.7172(5) 0.4553(5) 0.0192(3)
H25_4 H 0.6969 0.5021 0.0421
C7_4 C 0.3335(5) 0.8073(5) 0.9879(3)
H5_4 H 0.2975 0.8483 0.9701
C8_4 C 0.3992(5) 0.7764(5) 0.9546(3)
H6_4 H 0.4074 0.7948 0.9134
C9_4 C 0.4553(5) 0.7172(5) 0.9808(3)
H7_4 H 0.5021 0.6969 0.9579
C25_4 C 0.9132(5) 0.1405(5) 0.8905(3)
H19_4 H 0.9621 0.1100 0.9024
C26_4 C 0.8844(4) 0.2023(4) 0.9283(3)
H20_4 H 0.9150 0.2158 0.9646
C27_4 C 0.8103(4) 0.2467(4) 0.9146(3)
C28_4 C 0.7680(5) 0.2185(5) 0.8641(3)
H21_4 H 0.7139 0.2408 0.8551
C29_4 C 0.8024(5) 0.1580(5) 0.8256(4)
H22_4 H 0.7726 0.1423 0.7894
C30_4 C 0.7794(4) 0.3182(4) 0.9514(3)
C34_4 C 0.6892(4) 0.4406(4) 0.9591(3)
C35_4 C 0.7205(5) 0.3742(4) 0.9267(3)
H26_4 H 0.7015 0.3655 0.8856
C36_4 C 0.6267(4) 0.4965(4) 0.9298(3)
C37_4 C 0.5750(4) 0.5919(4) 0.8674(3)
C38_4 C 0.5675(4) 0.6612(4) 0.8230(3)
C39_4 C 0.4945(5) 0.6643(5) 0.7860(3)
H27_4 H 0.4527 0.6217 0.7894
C40_3 C 0.4844(5) 0.7285(5) 0.7455(4)
H28_3 H 0.4349 0.7308 0.7210
C41_4 C 0.5450(5) 0.7912(4) 0.7389(3)
H29_4 H 0.5378 0.8340 0.7087
C42_4 C 0.6156(4) 0.7915(4) 0.7763(3)
C43_4 C 0.6265(4) 0.7254(4) 0.8190(3)
H30_4 H 0.6745 0.7248 0.8451
C44_4 C 0.6809(4) 0.8575(4) 0.7716(3)
C45_4 C 0.7367(5) 0.8756(5) 0.8195(3)
H31_4 H 0.7309 0.8484 0.8583
C46_4 C 0.8015(5) 0.9344(4) 0.8100(3)
H32_4 H 0.8389 0.9455 0.8432
C47_4 C 0.7595(5) 0.9598(5) 0.7120(3)
H33_4 H 0.7663 0.9889 0.6740
C48_4 C 0.6929(5) 0.9023(5) 0.7175(3)
H34_4 H 0.6556 0.8939 0.6838
N10_4 N 0.5446(3) 0.4941(3) 0.9345(2)
N11_4 N 0.5118(4) 0.5546(3) 0.8944(2)
N12_4 N 0.6494(4) 0.5567(3) 0.8882(2)
N13_4 N 0.7307(4) 0.5752(4) 0.8670(3)
H35_4 H 0.7508 0.5310 0.8445
H36_4 H 0.7650 0.5842 0.9001
C40_4 C 0.7715(5) 0.9844(5) 0.9955(4)
H28_4 H 0.7692 0.9349 0.9710
C16_4 C 0.9844(5) 0.7715(5) 0.0045(4)
H10_4 H 0.9349 0.7692 0.0290
O1 O 0.7635(7) 0.7680(7) 0.0508(3)
Cl1 Cl 0.73094(14) 0.73094(14) 0.0000
O2 O 0.6550(17) 0.7795(18) 0.0064(17)
Cl1_2 Cl 0.73094(14) 0.73094(14) 1.0000
O3 O 0.7680(7) 0.7635(7) 0.9492(3)
O4 O 0.7795(18) 0.6550(17) 0.9936(17)
O1_2 O 0.2365(7) 0.2320(7) 0.5508(3)
Cl1_3 Cl 0.26906(14) 0.26906(14) 0.5000
O2_2 O 0.3450(17) 0.2205(18) 0.5064(17)
O3_2 O 0.2320(7) 0.2365(7) 0.4492(3)
O4_2 O 0.2205(18) 0.3450(17) 0.4936(17)
O1_3 O 0.7320(7) 0.2635(7) 0.3008(3)
Cl1_4 Cl 0.76906(14) 0.23094(14) 0.2500
O2_3 O 0.7205(18) 0.1550(17) 0.2564(17)
O3_3 O 0.7365(7) 0.2680(7) 0.1992(3)
O4_3 O 0.8450(17) 0.2795(18) 0.2436(17)
O1_4 O 0.2680(7) 0.7365(7) 0.8008(3)
Cl1_5 Cl 0.23094(14) 0.76906(14) 0.7500
O2_4 O 0.2795(18) 0.8450(17) 0.7564(17)
O3_4 O 0.2635(7) 0.7320(7) 0.6992(3)
O4_4 O 0.1550(17) 0.7205(18) 0.7436(17)
Cl2 Cl 0.62040(17) 0.37960(17) 0.7500
O5 O 0.5955(10) 0.3333(9) 0.8081(7)
O6 O 0.5621(16) 0.3589(14) 0.7124(10)
O7 O 0.6667(9) 0.4045(10) 0.6919(7)
O8 O 0.6411(14) 0.4379(16) 0.7876(10)
Cl2_2 Cl 0.37960(17) 0.62040(17) 0.2500
O5_2 O 0.4045(10) 0.6667(9) 0.3081(7)
O6_2 O 0.4379(16) 0.6411(14) 0.2124(10)
O7_2 O 0.3333(9) 0.5955(10) 0.1919(7)
O8_2 O 0.3589(14) 0.5621(16) 0.2876(10)
Cl2_3 Cl 0.12040(17) 0.12040(17) 0.0000
O5_3 O 0.1667(9) 0.0955(10) 0.0581(7)
O8_3 O 0.0621(16) 0.1411(14) 0.0376(10)
Cl2_4 Cl 0.12040(17) 0.12040(17) 1.0000
O6_3 O 0.1411(14) 0.0621(16) 0.9624(10)
O7_3 O 0.0955(10) 0.1667(9) 0.9419(7)
Cl2_5 Cl 0.87960(17) 0.87960(17) 0.5000
O5_4 O 0.8333(9) 0.9045(10) 0.5581(7)
O6_4 O 0.8589(14) 0.9379(16) 0.4624(10)
O7_4 O 0.9045(10) 0.8333(9) 0.4419(7)
O8_4 O 0.9379(16) 0.8589(14) 0.5376(10)
loop_
_geom_bond_atom_site_label_1
_geom_bond_atom_site_label_2
_geom_bond_site_symmetry_1
_geom_bond_site_symmetry_2
C15 H9 1_555 1_555
C16 C15 1_555 1_555
H10 C16 1_555 1_555
C25 H19 1_555 1_555
C26 C25 1_555 1_555
H20 C26 1_555 1_555
C27 C26 1_555 1_555
C28 C27 1_555 1_555
H21 C28 1_555 1_555
C29 C28 1_555 1_555
H22 C29 1_555 1_555
C30 C27 1_555 1_555
C31 C30 1_555 1_555
H23 C31 1_555 1_555
C32 C31 1_555 1_555
H24 C32 1_555 1_555
C33 C32 1_555 1_555
C34 C33 1_555 1_555
C35 C30 1_555 1_555
H26 C35 1_555 1_555
C36 C34 1_555 1_555
Cd3 N9 1_555 1_555
N9 C25 1_555 1_555
C29 N9 1_555 1_555
C34 C35 1_555 1_555
C36 N10 1_555 1_555
N7 Cd1 1_555 1_555
N8 Cd1 1_555 1_555
C13 C14 1_555 1_555
H11 C17 1_555 1_555
C18 C17 1_555 1_555
C19 C14 1_555 1_555
H12 C19 1_555 1_555
C20 C18 1_555 1_555
C21 C20 1_555 1_555
H13 C21 1_555 1_555
C22 C21 1_555 1_555
H14 C22 1_555 1_555
C23 H15 1_555 1_555
C24 C20 1_555 1_555
H16 C24 1_555 1_555
N3 C13 1_555 1_555
N5 N4 1_555 1_555
H17 N5 1_555 1_555
H18 N5 1_555 1_555
N6 C22 1_555 1_555
C37 C38 1_555 1_555
C43 C38 1_555 1_555
H30 C43 1_555 1_555
C44 C42 1_555 1_555
C45 C44 1_555 1_555
H31 C45 1_555 1_555
C46 C45 1_555 1_555
H32 C46 1_555 1_555
Cd4 N6 1_555 1_555
Cd3 N16 1_555 1_555
N11 C37 1_555 1_555
N13 N12 1_555 1_555
H35 N13 1_555 1_555
H36 N13 1_555 1_555
N16 C46 1_555 1_555
C13 N4 1_555 1_555
C18 C19 1_555 1_555
C23 C24 1_555 1_555
C23 N6 1_555 1_555
C37 N12 1_555 1_555
C42 C43 1_555 1_555
H29 C41 1_555 1_555
C47 H33 1_555 1_555
H34 C48 1_555 1_555
C47 C48 1_555 1_555
C1 H1 1_555 1_555
C2 C1 1_555 1_555
H2 C2 1_555 1_555
C3 C2 1_555 1_555
C4 C3 1_555 1_555
H3 C4 1_555 1_555
C5 C4 1_555 1_555
H4 C5 1_555 1_555
C6 C3 1_555 1_555
C7 C6 1_555 1_555
H5 C7 1_555 1_555
C8 C7 1_555 1_555
H6 C8 1_555 1_555
C9 C8 1_555 1_555
C10 C9 1_555 1_555
C11 C6 1_555 1_555
H8 C11 1_555 1_555
C12 C10 1_555 1_555
N1 C1 1_555 1_555
N2 C12 1_555 1_555
C39 H27 1_555 1_555
Cd4 N1 1_555 1_555
C5 N1 1_555 1_555
C10 C11 1_555 1_555
C1_2 H1_2 1_555 1_555
C2_2 C1_2 1_555 1_555
H2_2 C2_2 1_555 1_555
C3_2 C2_2 1_555 1_555
C4_2 C3_2 1_555 1_555
H3_2 C4_2 1_555 1_555
C5_2 C4_2 1_555 1_555
H4_2 C5_2 1_555 1_555
C6_2 C3_2 1_555 1_555
C7_2 C6_2 1_555 1_555
H5_2 C7_2 1_555 1_555
C8_2 C7_2 1_555 1_555
H6_2 C8_2 1_555 1_555
C9_2 C8_2 1_555 1_555
C10_2 C9_2 1_555 1_555
C11_2 C6_2 1_555 1_555
H8_2 C11_2 1_555 1_555
C12_2 C10_2 1_555 1_555
N1_2 C1_2 1_555 1_555
N2_2 C12_2 1_555 1_555
C39_2 H27_2 1_555 1_555
C40 C39_2 1_555 1_555
H28 C40 1_555 1_555
Cd3_2 N1_2 1_555 1_555
C5_2 N1_2 1_555 1_555
C10_2 C11_2 1_555 1_555
H11_2 C17_2 1_555 1_555
C23_2 H15_2 1_555 1_555
H16_2 C24_2 1_555 1_555
C23_2 C24_2 1_555 1_555
C13_2 C14_2 1_555 1_555
C19_2 C14_2 1_555 1_555
H12_2 C19_2 1_555 1_555
C20_2 C18_2 1_555 1_555
C21_2 C20_2 1_555 1_555
H13_2 C21_2 1_555 1_555
C22_2 C21_2 1_555 1_555
H14_2 C22_2 1_555 1_555
N3_2 C13_2 1_555 1_555
N5_2 N4_2 1_555 1_555
H17_2 N5_2 1_555 1_555
H18_2 N5_2 1_555 1_555
N6_2 C22_2 1_555 1_555
C37_2 C38_2 1_555 1_555
H29_2 C41_2 1_555 1_555
C42_2 C41_2 1_555 1_555
C43_2 C38_2 1_555 1_555
H30_2 C43_2 1_555 1_555
C44_2 C42_2 1_555 1_555
C45_2 C44_2 1_555 1_555
H31_2 C45_2 1_555 1_555
C46_2 C45_2 1_555 1_555
H32_2 C46_2 1_555 1_555
C47_2 H33_2 1_555 1_555
C48_2 C44_2 1_555 1_555
H34_2 C48_2 1_555 1_555
Cd3_2 N6_2 1_555 1_555
Cd4 N16_2 1_555 1_555
N11_2 C37_2 1_555 1_555
N13_2 N12_2 1_555 1_555
H35_2 N13_2 1_555 1_555
H36_2 N13_2 1_555 1_555
N16_2 C46_2 1_555 1_555
C13_2 N4_2 1_555 1_555
C18_2 C19_2 1_555 1_555
C37_2 N12_2 1_555 1_555
C42_2 C43_2 1_555 1_555
C47_2 C48_2 1_555 1_555
C47_2 N16_2 1_555 1_555
N7_2 Cd1_2 1_555 1_555
N8_2 Cd1_2 1_555 1_555
C15_2 H9_2 1_555 1_555
C25_2 H19_2 1_555 1_555
C26_2 C25_2 1_555 1_555
H20_2 C26_2 1_555 1_555
C27_2 C26_2 1_555 1_555
C28_2 C27_2 1_555 1_555
H21_2 C28_2 1_555 1_555
C29_2 C28_2 1_555 1_555
H22_2 C29_2 1_555 1_555
C30_2 C27_2 1_555 1_555
C31_2 C30_2 1_555 1_555
H23_2 C31_2 1_555 1_555
C32_2 C31_2 1_555 1_555
H24_2 C32_2 1_555 1_555
C33_2 C32_2 1_555 1_555
C34_2 C33_2 1_555 1_555
C35_2 C30_2 1_555 1_555
H26_2 C35_2 1_555 1_555
C36_2 C34_2 1_555 1_555
Cd4 N9_2 1_555 1_555
N9_2 C25_2 1_555 1_555
C29_2 N9_2 1_555 1_555
C34_2 C35_2 1_555 1_555
C36_2 N10_2 1_555 1_555
C1_3 H1_3 1_555 1_555
C2_3 C1_3 1_555 1_555
H2_3 C2_3 1_555 1_555
C3_3 C2_3 1_555 1_555
C4_3 C3_3 1_555 1_555
H3_3 C4_3 1_555 1_555
C5_3 C4_3 1_555 1_555
H4_3 C5_3 1_555 1_555
C6_3 C3_3 1_555 1_555
C7_3 C6_3 1_555 1_555
H5_3 C7_3 1_555 1_555
C8_3 C7_3 1_555 1_555
H6_3 C8_3 1_555 1_555
C9_3 C8_3 1_555 1_555
H7_3 C9_3 1_555 1_555
C10_3 C9_3 1_555 1_555
C11_3 C6_3 1_555 1_555
H8_3 C11_3 1_555 1_555
C12_3 C10_3 1_555 1_555
C13_3 C14_3 1_555 1_555
C14_3 C15_3 1_555 1_555
C15_3 H9_3 1_555 1_555
C16_2 C15_3 1_555 1_555
H10_2 C16_2 1_555 1_555
C17_3 C16_2 1_555 1_555
H11_3 C17_3 1_555 1_555
C18_3 C17_3 1_555 1_555
C19_3 C14_3 1_555 1_555
H12_3 C19_3 1_555 1_555
C20_3 C18_3 1_555 1_555
C21_3 C20_3 1_555 1_555
H13_3 C21_3 1_555 1_555
C22_3 C21_3 1_555 1_555
H14_3 C22_3 1_555 1_555
C23_3 H15_3 1_555 1_555
C24_3 C20_3 1_555 1_555
H16_3 C24_3 1_555 1_555
Cd4 N2_3 1_555 1_555
N8_2 C1_3 1_555 1_555
N2_3 C12_3 1_555 1_555
N3_3 C13_3 1_555 1_555
N4_3 C12_3 1_555 1_555
N5_3 N4_3 1_555 1_555
H17_3 N5_3 1_555 1_555
H18_3 N5_3 1_555 1_555
N14_2 C22_3 1_555 1_555
C25_3 H19_3 1_555 1_555
C26_3 C25_3 1_555 1_555
H20_3 C26_3 1_555 1_555
C27_3 C26_3 1_555 1_555
C28_3 C27_3 1_555 1_555
H21_3 C28_3 1_555 1_555
C29_3 C28_3 1_555 1_555
H22_3 C29_3 1_555 1_555
C30_3 C27_3 1_555 1_555
C31_3 C30_3 1_555 1_555
H23_3 C31_3 1_555 1_555
C32_3 C31_3 1_555 1_555
H24_3 C32_3 1_555 1_555
C33_3 C32_3 1_555 1_555
H25_3 C33_3 1_555 1_555
C34_3 C33_3 1_555 1_555
C35_3 C30_3 1_555 1_555
H26_3 C35_3 1_555 1_555
C36_3 C34_3 1_555 1_555
C37_3 C38_3 1_555 1_555
C38_3 C39_3 1_555 1_555
C39_3 H27_3 1_555 1_555
C40_2 C39_3 1_555 1_555
H28_2 C40_2 1_555 1_555
C41_3 C40_2 1_555 1_555
H29_3 C41_3 1_555 1_555
C42_3 C41_3 1_555 1_555
C43_3 C38_3 1_555 1_555
H30_3 C43_3 1_555 1_555
C44_3 C42_3 1_555 1_555
C45_3 C44_3 1_555 1_555
H31_3 C45_3 1_555 1_555
C46_3 C45_3 1_555 1_555
H32_3 C46_3 1_555 1_555
C47_3 H33_3 1_555 1_555
C48_3 C44_3 1_555 1_555
H34_3 C48_3 1_555 1_555
N7 C25_3 1_555 1_555
N10_3 Cd4 1_555 1_555
N11_3 C37_3 1_555 1_555
N12_3 C36_3 1_555 1_555
N13_3 N12_3 1_555 1_555
H35_3 N13_3 1_555 1_555
H36_3 N13_3 1_555 1_555
N15 C46_3 1_555 1_555
C5_3 N8_2 1_555 1_555
C10_3 C11_3 1_555 1_555
C13_3 N4_3 1_555 1_555
C18_3 C19_3 1_555 1_555
C23_3 C24_3 1_555 1_555
C23_3 N14_2 1_555 1_555
N2_3 N3_3 1_555 1_555
C29_3 N7 1_555 1_555
C34_3 C35_3 1_555 1_555
C36_3 N10_3 1_555 1_555
C37_3 N12_3 1_555 1_555
C42_3 C43_3 1_555 1_555
C47_3 C48_3 1_555 1_555
C47_3 N15 1_555 1_555
N10_3 N11_3 1_555 1_555
C1_4 H1_4 1_555 1_555
C2_4 C1_4 1_555 1_555
H2_4 C2_4 1_555 1_555
C3_4 C2_4 1_555 1_555
C4_4 C3_4 1_555 1_555
H3_4 C4_4 1_555 1_555
C5_4 C4_4 1_555 1_555
H4_4 C5_4 1_555 1_555
C6_4 C3_4 1_555 1_555
C11_4 C6_4 1_555 1_555
H8_4 C11_4 1_555 1_555
C12_4 C10_4 1_555 1_555
C13_4 C14_4 1_555 1_555
C14_4 C15_4 1_555 1_555
C15_4 H9_4 1_555 1_555
C16_3 C15_4 1_555 1_555
H10_3 C16_3 1_555 1_555
C17_4 C16_3 1_555 1_555
H11_4 C17_4 1_555 1_555
C18_4 C17_4 1_555 1_555
C19_4 C14_4 1_555 1_555
H12_4 C19_4 1_555 1_555
C20_4 C18_4 1_555 1_555
C21_4 C20_4 1_555 1_555
H13_4 C21_4 1_555 1_555
C22_4 C21_4 1_555 1_555
H14_4 C22_4 1_555 1_555
C23_4 H15_4 1_555 1_555
C24_4 C20_4 1_555 1_555
H16_4 C24_4 1_555 1_555
Cd3 N2_4 1_555 1_555
N8 C1_4 1_555 1_555
N2_4 C12_4 1_555 1_555
N3_4 C13_4 1_555 1_555
N4_4 C12_4 1_555 1_555
N5_4 N4_4 1_555 1_555
H17_4 N5_4 1_555 1_555
H18_4 N5_4 1_555 1_555
N14 C22_4 1_555 1_555
H23_4 C31_4 1_555 1_555
C32_4 C31_4 1_555 1_555
H24_4 C32_4 1_555 1_555
C33_4 C32_4 1_555 1_555
H25_4 C33_4 1_555 1_555
C5_4 N8 1_555 1_555
C10_4 C11_4 1_555 1_555
C13_4 N4_4 1_555 1_555
C18_4 C19_4 1_555 1_555
C23_4 C24_4 1_555 1_555
C23_4 N14 1_555 1_555
N2_4 N3_4 1_555 1_555
H5_4 C7_4 1_555 1_555
C8_4 C7_4 1_555 1_555
H6_4 C8_4 1_555 1_555
C9_4 C8_4 1_555 1_555
H7_4 C9_4 1_555 1_555
C25_4 H19_4 1_555 1_555
C26_4 C25_4 1_555 1_555
H20_4 C26_4 1_555 1_555
C27_4 C26_4 1_555 1_555
C28_4 C27_4 1_555 1_555
H21_4 C28_4 1_555 1_555
C29_4 C28_4 1_555 1_555
H22_4 C29_4 1_555 1_555
C30_4 C27_4 1_555 1_555
C35_4 C30_4 1_555 1_555
H26_4 C35_4 1_555 1_555
C36_4 C34_4 1_555 1_555
C37_4 C38_4 1_555 1_555
C38_4 C39_4 1_555 1_555
C39_4 H27_4 1_555 1_555
C40_3 C39_4 1_555 1_555
H28_3 C40_3 1_555 1_555
C41_4 C40_3 1_555 1_555
H29_4 C41_4 1_555 1_555
C42_4 C41_4 1_555 1_555
C43_4 C38_4 1_555 1_555
H30_4 C43_4 1_555 1_555
C44_4 C42_4 1_555 1_555
C45_4 C44_4 1_555 1_555
H31_4 C45_4 1_555 1_555
C46_4 C45_4 1_555 1_555
H32_4 C46_4 1_555 1_555
C47_4 H33_4 1_555 1_555
C48_4 C44_4 1_555 1_555
H34_4 C48_4 1_555 1_555
N7_2 C25_4 1_555 1_555
N10_4 Cd3_2 1_555 1_555
N11_4 C37_4 1_555 1_555
N12_4 C36_4 1_555 1_555
N13_4 N12_4 1_555 1_555
H35_4 N13_4 1_555 1_555
H36_4 N13_4 1_555 1_555
N15_2 C46_4 1_555 1_555
C29_4 N7_2 1_555 1_555
C34_4 C35_4 1_555 1_555
C36_4 N10_4 1_555 1_555
C37_4 N12_4 1_555 1_555
C42_4 C43_4 1_555 1_555
C47_4 C48_4 1_555 1_555
C47_4 N15_2 1_555 1_555
N10_4 N11_4 1_555 1_555
H28_4 C40_4 1_555 1_555
H10_4 C16_4 1_555 1_555
O1 Cl1 1_555 1_555
Cl1 O2 1_555 1_555
O3 Cl1_2 1_555 1_555
O4 Cl1_2 1_555 1_555
O1_2 Cl1_3 1_555 1_555
Cl1_3 O2_2 1_555 1_555
O3_2 Cl1_3 1_555 1_555
O4_2 Cl1_3 1_555 1_555
O1_3 Cl1_4 1_555 1_555
Cl1_4 O2_3 1_555 1_555
O3_3 Cl1_4 1_555 1_555
O4_3 Cl1_4 1_555 1_555
O1_4 Cl1_5 1_555 1_555
Cl1_5 O2_4 1_555 1_555
O3_4 Cl1_5 1_555 1_555
O4_4 Cl1_5 1_555 1_555
Cl2 O5 1_555 1_555
O6 Cl2 1_555 1_555
O7 Cl2 1_555 1_555
O8 Cl2 1_555 1_555
Cl2_2 O5_2 1_555 1_555
O6_2 Cl2_2 1_555 1_555
O7_2 Cl2_2 1_555 1_555
O8_2 Cl2_2 1_555 1_555
Cl2_3 O5_3 1_555 1_555
O8_3 Cl2_3 1_555 1_555
O6_3 Cl2_4 1_555 1_555
O7_3 Cl2_4 1_555 1_555
Cl2_5 O5_4 1_555 1_555
O6_4 Cl2_5 1_555 1_555
O7_4 Cl2_5 1_555 1_555
O8_4 Cl2_5 1_555 1_555

#END
