
###############################################################################
#
# This file contains modified crystal structure data generated from the
# MOF subset of the Cambridge Structural Database (CSD) v543 
# hosted by the Cambridge Crystallographic Data Centre (CCDC).
#
# This work is licensed under the Creative Commons
# Attribution-NonCommercial-ShareAlike 4.0 International License.
# To view a copy of this license, visit
# http://creativecommons.org/licenses/by-nc-sa/4.0/
# or send a letter to
# Creative Commons, PO Box 1866, Mountain View, CA 94042, USA.
#
# CIF created using the CSD Python API on 29 September 2022
# The structure has been converted into the P1 space group
# The structure has a 3D framework
# The original CSD entry OKITIM is in the tetragonal crystal system
# The original CSD entry OKITIM is in a Sohncke space group
# The framework has been calculated to contain at least 10.0% void space
# The void calculation uses a probe of radius 1.32A, grid spacing 0.4
# The framework is charged, counterions have been retained in the structure
#
###############################################################################

data_OKITIM
_chemical_formula_moiety         '(C192 H144 Cd3 Cl5 N48 O16 2+)n'
_symmetry_cell_setting           triclinic
_symmetry_space_group_name_H-M   'P 1'
_symmetry_Int_Tables_number      1
_space_group_name_Hall           'P 1'
loop_
_symmetry_equiv_pos_site_id
_symmetry_equiv_pos_as_xyz
1 x,y,z
_cell_length_a                   15.826(2)
_cell_length_b                   15.826(2)
_cell_length_c                   21.639(6)
_cell_angle_alpha                90
_cell_angle_beta                 90
_cell_angle_gamma                90
_cell_volume                     5419.75
loop_
_atom_site_label
_atom_site_type_symbol
_atom_site_fract_x
_atom_site_fract_y
_atom_site_fract_z
C40 C 0.2285(6) 0.0160(7) 0.0051(5)
H28 H 0.2313 0.0651 0.0303
C1 C 0.4137(6) 0.3594(6) 0.6395(4)
H1 H 0.4636 0.3889 0.6508
C2 C 0.3850(5) 0.2965(5) 0.6783(4)
H2 H 0.4163 0.2827 0.7144
C3 C 0.3119(6) 0.2537(6) 0.6654(4)
C4 C 0.2671(6) 0.2803(6) 0.6132(4)
H3 H 0.2134 0.2572 0.6036
C5 C 0.3042(6) 0.3425(6) 0.5753(4)
H4 H 0.2754 0.3578 0.5384
C6 C 0.2807(5) 0.1805(5) 0.7012(4)
C7 C 0.3080(5) 0.1671(6) 0.7626(4)
H5 H 0.3481 0.2040 0.7810
C8 C 0.2765(7) 0.1012(7) 0.7947(4)
H6 H 0.2956 0.0927 0.8358
C9 C 0.2176(6) 0.0454(6) 0.7708(4)
C10 C 0.1900(6) 0.0607(5) 0.7092(3)
C11 C 0.2215(6) 0.1269(6) 0.6761(4)
H8 H 0.2022 0.1361 0.6351
C12 C 0.1278(5) 0.0037(5) 0.6795(4)
N1 N 0.3758(5) 0.3808(5) 0.5877(3)
N2 N 0.0454(4) 0.0062(4) 0.6848(3)
C39 C 0.1625(6) 0.0053(6) 0.9640(4)
H27 H 0.1189 0.0464 0.9607
Cd2 Cd 0.44197(3) 0.44197(3) 0.5000
N15 N 0.0239(4) 0.1867(4) 0.7575(4)
C41 C 0.2896(6) 0.9553(6) 0.0092(5)
H29 H 0.3331 0.9624 0.0390
C47 C 0.4602(6) 0.7429(5) 0.0369(4)
H33 H 0.4902 0.7376 0.0747
C48 C 0.4026(6) 0.8087(6) 0.0314(4)
H34 H 0.3944 0.8466 0.0649
Cd5 Cd 0.55803(3) 0.55803(3) 0.0000
H7 H 0.1968 0.9992 0.7942
C13 C 0.0757(5) 0.9091(5) 0.6182(3)
C14 C 0.0679(5) 0.8385(6) 0.5731(4)
C17 C 0.0447(6) 0.7104(6) 0.4908(5)
H11 H 0.0376 0.6669 0.4610
C18 C 0.1154(5) 0.7083(5) 0.5273(4)
C19 C 0.1261(5) 0.7757(5) 0.5689(4)
H12 H 0.1749 0.7774 0.5945
C20 C 0.1807(5) 0.6420(5) 0.5217(4)
C21 C 0.2383(7) 0.6242(6) 0.5694(4)
H13 H 0.2337 0.6525 0.6080
C22 C 0.3005(7) 0.5665(6) 0.5602(4)
H14 H 0.3378 0.5555 0.5937
C23 C 0.2571(5) 0.5398(6) 0.4631(4)
H15 H 0.2624 0.5098 0.4253
C24 C 0.1913(6) 0.5974(6) 0.4686(4)
H16 H 0.1534 0.6056 0.4351
N3 N 0.0119(5) 0.9452(4) 0.6454(3)
N4 N 0.1494(5) 0.9440(4) 0.6379(3)
N5 N 0.2301(5) 0.9251(5) 0.6169(4)
H17 H 0.2502 0.9693 0.5944
H18 H 0.2644 0.9162 0.6500
N6 N 0.3133(4) 0.5239(4) 0.5075(4)
H25 H 0.0008 0.8032 0.7058
C37 C 0.0909(5) 0.9243(5) 0.8818(3)
C38 C 0.1615(6) 0.9321(5) 0.9269(4)
C42 C 0.2917(5) 0.8846(5) 0.9727(4)
C43 C 0.2243(5) 0.8739(5) 0.9311(4)
H30 H 0.2226 0.8251 0.9055
C44 C 0.3580(5) 0.8193(5) 0.9783(4)
C45 C 0.3758(6) 0.7617(7) 0.9306(4)
H31 H 0.3475 0.7663 0.8920
C46 C 0.4335(6) 0.6995(7) 0.9398(4)
H32 H 0.4445 0.6622 0.9063
Cd5_2 Cd 0.55803(3) 0.55803(3) 1.0000
N11 N 0.0548(4) 0.9881(5) 0.8546(3)
N12 N 0.0560(4) 0.8506(5) 0.8621(3)
N13 N 0.0749(5) 0.7699(5) 0.8831(4)
H35 H 0.0307 0.7498 0.9056
H36 H 0.0838 0.7356 0.8500
N16 N 0.4761(4) 0.6867(4) 0.9925(4)
Cd1 Cd 0.94197(3) 0.05803(3) 0.7500
N7 N 0.8758(5) 0.1192(5) 0.6623(3)
N8 N 0.8808(5) 0.1242(5) 0.8377(3)
C15 C 0.9947(6) 0.8375(6) 0.5360(4)
H9 H 0.9536 0.8811 0.5393
C16 C 0.9840(7) 0.7715(6) 0.4949(5)
H10 H 0.9349 0.7687 0.4697
C25 C 0.6406(6) 0.5863(6) 0.8605(4)
H19 H 0.6111 0.5364 0.8492
C26 C 0.7035(5) 0.6150(5) 0.8217(4)
H20 H 0.7173 0.5837 0.7856
C27 C 0.7463(6) 0.6881(6) 0.8346(4)
C28 C 0.7197(6) 0.7329(6) 0.8868(4)
H21 H 0.7428 0.7866 0.8964
C29 C 0.6575(6) 0.6958(6) 0.9247(4)
H22 H 0.6422 0.7246 0.9616
C30 C 0.8195(5) 0.7193(5) 0.7988(4)
C31 C 0.8329(6) 0.6920(5) 0.7374(4)
H23 H 0.7960 0.6519 0.7190
C32 C 0.8988(7) 0.7235(7) 0.7053(4)
H24 H 0.9073 0.7044 0.6642
C33 C 0.9546(6) 0.7824(6) 0.7292(4)
C34 C 0.9393(5) 0.8100(6) 0.7908(3)
C35 C 0.8731(6) 0.7785(6) 0.8239(4)
H26 H 0.8639 0.7978 0.8649
C36 C 0.9963(5) 0.8722(5) 0.8205(4)
N9 N 0.6192(5) 0.6242(5) 0.9123(3)
N10 N 0.9938(4) 0.9546(4) 0.8152(3)
N14 N 0.8133(4) 0.9761(4) 0.7425(4)
C15_2 C 0.0053(6) 0.1625(6) 0.0360(4)
H9_2 H 0.0464 0.1189 0.0393
C25_2 C 0.3594(6) 0.4137(6) 0.3605(4)
H19_2 H 0.3889 0.4636 0.3492
C26_2 C 0.2965(5) 0.3850(5) 0.3217(4)
H20_2 H 0.2827 0.4163 0.2856
C27_2 C 0.2537(6) 0.3119(6) 0.3346(4)
C28_2 C 0.2803(6) 0.2671(6) 0.3868(4)
H21_2 H 0.2572 0.2134 0.3964
C29_2 C 0.3425(6) 0.3042(6) 0.4247(4)
H22_2 H 0.3578 0.2754 0.4616
C30_2 C 0.1805(5) 0.2807(5) 0.2988(4)
C31_2 C 0.1671(6) 0.3080(5) 0.2374(4)
H23_2 H 0.2040 0.3481 0.2190
C32_2 C 0.1012(7) 0.2765(7) 0.2053(4)
H24_2 H 0.0927 0.2956 0.1642
C33_2 C 0.0454(6) 0.2176(6) 0.2292(4)
C34_2 C 0.0607(5) 0.1900(6) 0.2908(3)
C35_2 C 0.1269(6) 0.2215(6) 0.3239(4)
H26_2 H 0.1361 0.2022 0.3649
C36_2 C 0.0037(5) 0.1278(5) 0.3205(4)
N9_2 N 0.3808(5) 0.3758(5) 0.4123(3)
N10_2 N 0.0062(4) 0.0454(4) 0.3152(3)
N14_2 N 0.1867(4) 0.0239(4) 0.2425(4)
Cd1_2 Cd 0.05803(3) 0.94197(3) 0.2500
N7_2 N 0.1242(5) 0.8808(5) 0.1623(3)
N8_2 N 0.1192(5) 0.8758(5) 0.3377(3)
H7_2 H 0.8032 0.0008 0.2942
C13_2 C 0.9243(5) 0.0909(5) 0.1182(3)
C14_2 C 0.9321(5) 0.1615(6) 0.0731(4)
C18_2 C 0.8846(5) 0.2917(5) 0.0273(4)
C19_2 C 0.8739(5) 0.2243(5) 0.0689(4)
H12_2 H 0.8251 0.2226 0.0945
C20_2 C 0.8193(5) 0.3580(5) 0.0217(4)
C21_2 C 0.7617(7) 0.3758(6) 0.0694(4)
H13_2 H 0.7663 0.3475 0.1080
C22_2 C 0.6995(7) 0.4335(6) 0.0602(4)
H14_2 H 0.6622 0.4445 0.0937
N3_2 N 0.9881(5) 0.0548(4) 0.1454(3)
N4_2 N 0.8506(5) 0.0560(4) 0.1379(3)
N5_2 N 0.7699(5) 0.0749(5) 0.1169(4)
H17_2 H 0.7498 0.0307 0.0944
H18_2 H 0.7356 0.0838 0.1500
N6_2 N 0.6867(4) 0.4761(4) 0.0075(4)
H25_2 H 0.9992 0.1968 0.2058
C37_2 C 0.9091(5) 0.0757(5) 0.3818(3)
C38_2 C 0.8385(6) 0.0679(5) 0.4269(4)
C41_2 C 0.7104(6) 0.0447(6) 0.5092(5)
H29_2 H 0.6669 0.0376 0.5390
C42_2 C 0.7083(5) 0.1154(5) 0.4727(4)
C43_2 C 0.7757(5) 0.1261(5) 0.4311(4)
H30_2 H 0.7774 0.1749 0.4055
C44_2 C 0.6420(5) 0.1807(5) 0.4783(4)
C45_2 C 0.6242(6) 0.2383(7) 0.4306(4)
H31_2 H 0.6525 0.2337 0.3920
C46_2 C 0.5665(6) 0.3005(7) 0.4398(4)
H32_2 H 0.5555 0.3378 0.4063
C47_2 C 0.5398(6) 0.2571(5) 0.5369(4)
H33_2 H 0.5098 0.2624 0.5747
C48_2 C 0.5974(6) 0.1913(6) 0.5314(4)
H34_2 H 0.6056 0.1534 0.5649
N11_2 N 0.9452(4) 0.0119(5) 0.3546(3)
N12_2 N 0.9440(4) 0.1494(5) 0.3621(3)
N13_2 N 0.9251(5) 0.2301(5) 0.3831(4)
H35_2 H 0.9693 0.2502 0.4056
H36_2 H 0.9162 0.2644 0.3500
N16_2 N 0.5239(4) 0.3133(4) 0.4925(4)
C17_2 C 0.9553(6) 0.2896(6) 0.9908(5)
H11_2 H 0.9624 0.3331 0.9610
C23_2 C 0.7429(5) 0.4602(6) 0.9631(4)
H15_2 H 0.7376 0.4902 0.9253
C24_2 C 0.8087(6) 0.4026(6) 0.9686(4)
H16_2 H 0.8466 0.3944 0.9351
C1_2 C 0.5863(6) 0.6406(6) 0.1395(4)
H1_2 H 0.5364 0.6111 0.1508
C2_2 C 0.6150(5) 0.7035(5) 0.1783(4)
H2_2 H 0.5837 0.7173 0.2144
C3_2 C 0.6881(6) 0.7463(6) 0.1654(4)
C4_2 C 0.7329(6) 0.7197(6) 0.1132(4)
H3_2 H 0.7866 0.7428 0.1036
C5_2 C 0.6958(6) 0.6575(6) 0.0753(4)
H4_2 H 0.7246 0.6422 0.0384
C6_2 C 0.7193(5) 0.8195(5) 0.2012(4)
C7_2 C 0.6920(5) 0.8329(6) 0.2626(4)
H5_2 H 0.6519 0.7960 0.2810
C8_2 C 0.7235(7) 0.8988(7) 0.2947(4)
H6_2 H 0.7044 0.9073 0.3358
C9_2 C 0.7824(6) 0.9546(6) 0.2708(4)
C10_2 C 0.8100(6) 0.9393(5) 0.2092(3)
C11_2 C 0.7785(6) 0.8731(6) 0.1761(4)
H8_2 H 0.7978 0.8639 0.1351
C12_2 C 0.8722(5) 0.9963(5) 0.1795(4)
N1_2 N 0.6242(5) 0.6192(5) 0.0877(3)
N2_2 N 0.9546(4) 0.9938(4) 0.1848(3)
C39_2 C 0.8375(6) 0.9947(6) 0.4640(4)
H27_2 H 0.8811 0.9536 0.4607
C40_2 C 0.7715(6) 0.9840(7) 0.5051(5)
H28_2 H 0.7687 0.9349 0.5303
N15_2 N 0.9761(4) 0.8133(4) 0.2575(4)
C1_3 C 0.1406(6) 0.9137(6) 0.3895(4)
H1_3 H 0.1111 0.9636 0.4008
C2_3 C 0.2035(5) 0.8850(5) 0.4283(4)
H2_3 H 0.2173 0.9163 0.4644
C3_3 C 0.2463(6) 0.8119(6) 0.4154(4)
C4_3 C 0.2197(6) 0.7671(6) 0.3632(4)
H3_3 H 0.2428 0.7134 0.3536
C5_3 C 0.1575(6) 0.8042(6) 0.3253(4)
H4_3 H 0.1422 0.7754 0.2884
C6_3 C 0.3195(5) 0.7807(5) 0.4512(4)
C7_3 C 0.3329(6) 0.8080(5) 0.5126(4)
H5_3 H 0.2960 0.8481 0.5310
C8_3 C 0.3988(7) 0.7765(7) 0.5447(4)
H6_3 H 0.4073 0.7956 0.5858
C9_3 C 0.4546(6) 0.7176(6) 0.5208(4)
H7_3 H 0.5008 0.6968 0.5442
C10_3 C 0.4393(5) 0.6900(6) 0.4592(3)
C11_3 C 0.3731(6) 0.7215(6) 0.4261(4)
H8_3 H 0.3639 0.7022 0.3851
C12_3 C 0.4963(5) 0.6278(5) 0.4295(4)
C13_3 C 0.5909(5) 0.5757(5) 0.3682(3)
C14_3 C 0.6615(6) 0.5679(5) 0.3231(4)
C15_3 C 0.6625(6) 0.4947(6) 0.2860(4)
H9_3 H 0.6189 0.4536 0.2893
C16_2 C 0.7285(6) 0.4840(7) 0.2449(5)
H10_2 H 0.7313 0.4349 0.2197
C17_3 C 0.7896(6) 0.5447(6) 0.2408(5)
H11_3 H 0.8331 0.5376 0.2110
C18_3 C 0.7917(5) 0.6154(5) 0.2773(4)
C19_3 C 0.7243(5) 0.6261(5) 0.3189(4)
H12_3 H 0.7226 0.6749 0.3445
C20_3 C 0.8580(5) 0.6807(5) 0.2717(4)
C21_3 C 0.8758(6) 0.7383(7) 0.3194(4)
H13_3 H 0.8475 0.7337 0.3580
C22_3 C 0.9335(6) 0.8005(7) 0.3102(4)
H14_3 H 0.9445 0.8378 0.3437
C23_3 C 0.9602(6) 0.7571(5) 0.2131(4)
H15_3 H 0.9902 0.7624 0.1753
C24_3 C 0.9026(6) 0.6913(6) 0.2186(4)
H16_3 H 0.8944 0.6534 0.1851
N2_3 N 0.4938(4) 0.5454(4) 0.4348(3)
N3_3 N 0.5548(4) 0.5119(5) 0.3954(3)
N4_3 N 0.5560(4) 0.6494(5) 0.3879(3)
N5_3 N 0.5749(5) 0.7301(5) 0.3669(4)
H17_3 H 0.5307 0.7502 0.3444
H18_3 H 0.5838 0.7644 0.4000
C25_3 C 0.9137(6) 0.1406(6) 0.6105(4)
H19_3 H 0.9636 0.1111 0.5992
C26_3 C 0.8850(5) 0.2035(5) 0.5717(4)
H20_3 H 0.9163 0.2173 0.5356
C27_3 C 0.8119(6) 0.2463(6) 0.5846(4)
C28_3 C 0.7671(6) 0.2197(6) 0.6368(4)
H21_3 H 0.7134 0.2428 0.6464
C29_3 C 0.8042(6) 0.1575(6) 0.6747(4)
H22_3 H 0.7754 0.1422 0.7116
C30_3 C 0.7807(5) 0.3195(5) 0.5488(4)
C31_3 C 0.8080(5) 0.3329(6) 0.4874(4)
H23_3 H 0.8481 0.2960 0.4690
C32_3 C 0.7765(7) 0.3988(7) 0.4553(4)
H24_3 H 0.7956 0.4073 0.4142
C33_3 C 0.7176(6) 0.4546(6) 0.4792(4)
H25_3 H 0.6968 0.5008 0.4558
C34_3 C 0.6900(6) 0.4393(5) 0.5408(3)
C35_3 C 0.7215(6) 0.3731(6) 0.5739(4)
H26_3 H 0.7022 0.3639 0.6149
C36_3 C 0.6278(5) 0.4963(5) 0.5705(4)
C37_3 C 0.5757(5) 0.5909(5) 0.6318(3)
C38_3 C 0.5679(5) 0.6615(6) 0.6769(4)
C39_3 C 0.4947(6) 0.6625(6) 0.7140(4)
H27_3 H 0.4536 0.6189 0.7107
C40_3 C 0.4840(7) 0.7285(6) 0.7551(5)
H28_3 H 0.4349 0.7313 0.7803
C41_3 C 0.5447(6) 0.7896(6) 0.7592(5)
H29_3 H 0.5376 0.8331 0.7890
C42_3 C 0.6154(5) 0.7917(5) 0.7227(4)
C43_3 C 0.6261(5) 0.7243(5) 0.6811(4)
H30_3 H 0.6749 0.7226 0.6555
C44_3 C 0.6807(5) 0.8580(5) 0.7283(4)
C45_3 C 0.7383(7) 0.8758(6) 0.6806(4)
H31_3 H 0.7337 0.8475 0.6420
C46_3 C 0.8005(7) 0.9335(6) 0.6898(4)
H32_3 H 0.8378 0.9445 0.6563
C47_3 C 0.7571(5) 0.9602(6) 0.7869(4)
H33_3 H 0.7624 0.9902 0.8247
C48_3 C 0.6913(6) 0.9026(6) 0.7814(4)
H34_3 H 0.6534 0.8944 0.8149
N10_3 N 0.5454(4) 0.4938(4) 0.5652(3)
N11_3 N 0.5119(5) 0.5548(4) 0.6046(3)
N12_3 N 0.6494(5) 0.5560(4) 0.6121(3)
N13_3 N 0.7301(5) 0.5749(5) 0.6331(4)
H35_3 H 0.7502 0.5307 0.6556
H36_3 H 0.7644 0.5838 0.6000
C7_4 C 0.6671(6) 0.1920(5) 0.0126(4)
H5_4 H 0.7040 0.1519 0.0310
C8_4 C 0.6012(7) 0.2235(7) 0.0447(4)
H6_4 H 0.5927 0.2044 0.0858
C9_4 C 0.5454(6) 0.2824(6) 0.0208(4)
H7_4 H 0.4992 0.3032 0.0442
C25_4 C 0.0863(6) 0.8594(6) 0.1105(4)
H19_4 H 0.0364 0.8889 0.0992
C26_4 C 0.1150(5) 0.7965(5) 0.0717(4)
H20_4 H 0.0837 0.7827 0.0356
C27_4 C 0.1881(6) 0.7537(6) 0.0846(4)
C28_4 C 0.2329(6) 0.7803(6) 0.1368(4)
H21_4 H 0.2866 0.7572 0.1464
C29_4 C 0.1958(6) 0.8425(6) 0.1747(4)
H22_4 H 0.2246 0.8578 0.2116
C30_4 C 0.2193(5) 0.6805(5) 0.0488(4)
C34_4 C 0.3100(6) 0.5607(5) 0.0408(3)
C35_4 C 0.2785(6) 0.6269(6) 0.0739(4)
H26_4 H 0.2978 0.6361 0.1149
C36_4 C 0.3722(5) 0.5037(5) 0.0705(4)
C37_4 C 0.4243(5) 0.4091(5) 0.1318(3)
C38_4 C 0.4321(5) 0.3385(6) 0.1769(4)
C39_4 C 0.5053(6) 0.3375(6) 0.2140(4)
H27_4 H 0.5464 0.3811 0.2107
C40_4 C 0.5160(7) 0.2715(6) 0.2551(5)
H28_4 H 0.5651 0.2687 0.2803
C41_4 C 0.4553(6) 0.2104(6) 0.2592(5)
H29_4 H 0.4624 0.1669 0.2890
C42_4 C 0.3846(5) 0.2083(5) 0.2227(4)
C43_4 C 0.3739(5) 0.2757(5) 0.1811(4)
H30_4 H 0.3251 0.2774 0.1555
C44_4 C 0.3193(5) 0.1420(5) 0.2283(4)
C45_4 C 0.2617(7) 0.1242(6) 0.1806(4)
H31_4 H 0.2663 0.1525 0.1420
C46_4 C 0.1995(7) 0.0665(6) 0.1898(4)
H32_4 H 0.1622 0.0555 0.1563
C47_4 C 0.2429(5) 0.0398(6) 0.2869(4)
H33_4 H 0.2376 0.0098 0.3247
C48_4 C 0.3087(6) 0.0974(6) 0.2814(4)
H34_4 H 0.3466 0.1056 0.3149
N10_4 N 0.4546(4) 0.5062(4) 0.0652(3)
N11_4 N 0.4881(5) 0.4452(4) 0.1046(3)
N12_4 N 0.3506(5) 0.4440(4) 0.1121(3)
N13_4 N 0.2699(5) 0.4251(5) 0.1331(4)
H35_4 H 0.2498 0.4693 0.1556
H36_4 H 0.2356 0.4162 0.1000
C1_4 C 0.8594(6) 0.0863(6) 0.8895(4)
H1_4 H 0.8889 0.0364 0.9008
C2_4 C 0.7965(5) 0.1150(5) 0.9283(4)
H2_4 H 0.7827 0.0837 0.9644
C3_4 C 0.7537(6) 0.1881(6) 0.9154(4)
C4_4 C 0.7803(6) 0.2329(6) 0.8632(4)
H3_4 H 0.7572 0.2866 0.8536
C5_4 C 0.8425(6) 0.1958(6) 0.8253(4)
H4_4 H 0.8578 0.2246 0.7884
C6_4 C 0.6805(5) 0.2193(5) 0.9512(4)
C10_4 C 0.5607(5) 0.3100(6) 0.9592(3)
C11_4 C 0.6269(6) 0.2785(6) 0.9261(4)
H8_4 H 0.6361 0.2978 0.8851
C12_4 C 0.5037(5) 0.3722(5) 0.9295(4)
C13_4 C 0.4091(5) 0.4243(5) 0.8682(3)
C14_4 C 0.3385(6) 0.4321(5) 0.8231(4)
C15_4 C 0.3375(6) 0.5053(6) 0.7860(4)
H9_4 H 0.3811 0.5464 0.7893
C16_3 C 0.2715(6) 0.5160(7) 0.7449(5)
H10_3 H 0.2687 0.5651 0.7197
C17_4 C 0.2104(6) 0.4553(6) 0.7408(5)
H11_4 H 0.1669 0.4624 0.7110
C18_4 C 0.2083(5) 0.3846(5) 0.7773(4)
C19_4 C 0.2757(5) 0.3739(5) 0.8189(4)
H12_4 H 0.2774 0.3251 0.8445
C20_4 C 0.1420(5) 0.3193(5) 0.7717(4)
C21_4 C 0.1242(6) 0.2617(7) 0.8194(4)
H13_4 H 0.1525 0.2663 0.8580
C22_4 C 0.0665(6) 0.1995(7) 0.8102(4)
H14_4 H 0.0555 0.1622 0.8437
C23_4 C 0.0398(6) 0.2429(5) 0.7131(4)
H15_4 H 0.0098 0.2376 0.6753
C24_4 C 0.0974(6) 0.3087(6) 0.7186(4)
H16_4 H 0.1056 0.3466 0.6851
N2_4 N 0.5062(4) 0.4546(4) 0.9348(3)
N3_4 N 0.4452(4) 0.4881(5) 0.8954(3)
N4_4 N 0.4440(4) 0.3506(5) 0.8879(3)
N5_4 N 0.4251(5) 0.2699(5) 0.8669(4)
H17_4 H 0.4693 0.2498 0.8444
H18_4 H 0.4162 0.2356 0.9000
C31_4 C 0.1920(5) 0.6671(6) 0.9874(4)
H23_4 H 0.1519 0.7040 0.9690
C32_4 C 0.2235(7) 0.6012(7) 0.9553(4)
H24_4 H 0.2044 0.5927 0.9142
C33_4 C 0.2824(6) 0.5454(6) 0.9792(4)
H25_4 H 0.3032 0.4992 0.9558
C16_4 C 0.0160(7) 0.2285(6) 0.9949(5)
H10_4 H 0.0651 0.2313 0.9697
Cl1 Cl 0.26955(17) 0.26955(17) 0.0000
O3 O 0.2368(13) 0.2342(10) 0.0523(5)
O4 O 0.3394(12) 0.276(3) 0.0026(17)
Cl1_2 Cl 0.26955(17) 0.26955(17) 1.0000
O1 O 0.2342(10) 0.2368(13) 0.9477(5)
O2 O 0.276(3) 0.3394(12) 0.9974(17)
Cl1_3 Cl 0.73045(17) 0.73045(17) 0.5000
O1_2 O 0.7658(10) 0.7632(13) 0.4477(5)
O2_2 O 0.724(3) 0.6606(12) 0.4974(17)
O3_2 O 0.7632(13) 0.7658(10) 0.5523(5)
O4_2 O 0.6606(12) 0.724(3) 0.5026(17)
Cl1_4 Cl 0.23045(17) 0.76955(17) 0.7500
O1_3 O 0.2632(13) 0.7342(10) 0.6977(5)
O2_3 O 0.1606(12) 0.776(3) 0.7474(17)
O3_3 O 0.2658(10) 0.7368(13) 0.8023(5)
O4_3 O 0.224(3) 0.8394(12) 0.7526(17)
Cl1_5 Cl 0.76955(17) 0.23045(17) 0.2500
O1_4 O 0.7368(13) 0.2658(10) 0.1977(5)
O2_4 O 0.8394(12) 0.224(3) 0.2474(17)
O3_4 O 0.7342(10) 0.2632(13) 0.3023(5)
O4_4 O 0.776(3) 0.1606(12) 0.2526(17)
loop_
_geom_bond_atom_site_label_1
_geom_bond_atom_site_label_2
_geom_bond_site_symmetry_1
_geom_bond_site_symmetry_2
H28 C40 1_555 1_555
C1 H1 1_555 1_555
C2 C1 1_555 1_555
H2 C2 1_555 1_555
C3 C2 1_555 1_555
C4 C3 1_555 1_555
H3 C4 1_555 1_555
C5 C4 1_555 1_555
H4 C5 1_555 1_555
C6 C3 1_555 1_555
C7 C6 1_555 1_555
H5 C7 1_555 1_555
C8 C7 1_555 1_555
H6 C8 1_555 1_555
C9 C8 1_555 1_555
C10 C9 1_555 1_555
C11 C6 1_555 1_555
H8 C11 1_555 1_555
C12 C10 1_555 1_555
N1 C1 1_555 1_555
N2 C12 1_555 1_555
C39 H27 1_555 1_555
Cd2 N1 1_555 1_555
C5 N1 1_555 1_555
C10 C11 1_555 1_555
H29 C41 1_555 1_555
C47 H33 1_555 1_555
H34 C48 1_555 1_555
C47 C48 1_555 1_555
C13 C14 1_555 1_555
H11 C17 1_555 1_555
C18 C17 1_555 1_555
C19 C14 1_555 1_555
H12 C19 1_555 1_555
C20 C18 1_555 1_555
C21 C20 1_555 1_555
H13 C21 1_555 1_555
C22 C21 1_555 1_555
H14 C22 1_555 1_555
C23 H15 1_555 1_555
C24 C20 1_555 1_555
H16 C24 1_555 1_555
N3 C13 1_555 1_555
N5 N4 1_555 1_555
H17 N5 1_555 1_555
H18 N5 1_555 1_555
N6 C22 1_555 1_555
C37 C38 1_555 1_555
C43 C38 1_555 1_555
H30 C43 1_555 1_555
C44 C42 1_555 1_555
C45 C44 1_555 1_555
H31 C45 1_555 1_555
C46 C45 1_555 1_555
H32 C46 1_555 1_555
Cd2 N6 1_555 1_555
Cd5_2 N16 1_555 1_555
N11 C37 1_555 1_555
N13 N12 1_555 1_555
H35 N13 1_555 1_555
H36 N13 1_555 1_555
N16 C46 1_555 1_555
C13 N4 1_555 1_555
C18 C19 1_555 1_555
C23 C24 1_555 1_555
C23 N6 1_555 1_555
C37 N12 1_555 1_555
C42 C43 1_555 1_555
N7 Cd1 1_555 1_555
N8 Cd1 1_555 1_555
C15 H9 1_555 1_555
C16 C15 1_555 1_555
H10 C16 1_555 1_555
C25 H19 1_555 1_555
C26 C25 1_555 1_555
H20 C26 1_555 1_555
C27 C26 1_555 1_555
C28 C27 1_555 1_555
H21 C28 1_555 1_555
C29 C28 1_555 1_555
H22 C29 1_555 1_555
C30 C27 1_555 1_555
C31 C30 1_555 1_555
H23 C31 1_555 1_555
C32 C31 1_555 1_555
H24 C32 1_555 1_555
C33 C32 1_555 1_555
C34 C33 1_555 1_555
C35 C30 1_555 1_555
H26 C35 1_555 1_555
C36 C34 1_555 1_555
Cd5_2 N9 1_555 1_555
N9 C25 1_555 1_555
C29 N9 1_555 1_555
C34 C35 1_555 1_555
C36 N10 1_555 1_555
C15_2 H9_2 1_555 1_555
C25_2 H19_2 1_555 1_555
C26_2 C25_2 1_555 1_555
H20_2 C26_2 1_555 1_555
C27_2 C26_2 1_555 1_555
C28_2 C27_2 1_555 1_555
H21_2 C28_2 1_555 1_555
C29_2 C28_2 1_555 1_555
H22_2 C29_2 1_555 1_555
C30_2 C27_2 1_555 1_555
C31_2 C30_2 1_555 1_555
H23_2 C31_2 1_555 1_555
C32_2 C31_2 1_555 1_555
H24_2 C32_2 1_555 1_555
C33_2 C32_2 1_555 1_555
C34_2 C33_2 1_555 1_555
C35_2 C30_2 1_555 1_555
H26_2 C35_2 1_555 1_555
C36_2 C34_2 1_555 1_555
Cd2 N9_2 1_555 1_555
N9_2 C25_2 1_555 1_555
C29_2 N9_2 1_555 1_555
C34_2 C35_2 1_555 1_555
C36_2 N10_2 1_555 1_555
N7_2 Cd1_2 1_555 1_555
N8_2 Cd1_2 1_555 1_555
C13_2 C14_2 1_555 1_555
C19_2 C14_2 1_555 1_555
H12_2 C19_2 1_555 1_555
C20_2 C18_2 1_555 1_555
C21_2 C20_2 1_555 1_555
H13_2 C21_2 1_555 1_555
C22_2 C21_2 1_555 1_555
H14_2 C22_2 1_555 1_555
N3_2 C13_2 1_555 1_555
N5_2 N4_2 1_555 1_555
H17_2 N5_2 1_555 1_555
H18_2 N5_2 1_555 1_555
N6_2 C22_2 1_555 1_555
C37_2 C38_2 1_555 1_555
H29_2 C41_2 1_555 1_555
C42_2 C41_2 1_555 1_555
C43_2 C38_2 1_555 1_555
H30_2 C43_2 1_555 1_555
C44_2 C42_2 1_555 1_555
C45_2 C44_2 1_555 1_555
H31_2 C45_2 1_555 1_555
C46_2 C45_2 1_555 1_555
H32_2 C46_2 1_555 1_555
C47_2 H33_2 1_555 1_555
C48_2 C44_2 1_555 1_555
H34_2 C48_2 1_555 1_555
Cd5 N6_2 1_555 1_555
Cd2 N16_2 1_555 1_555
N11_2 C37_2 1_555 1_555
N13_2 N12_2 1_555 1_555
H35_2 N13_2 1_555 1_555
H36_2 N13_2 1_555 1_555
N16_2 C46_2 1_555 1_555
C13_2 N4_2 1_555 1_555
C18_2 C19_2 1_555 1_555
C37_2 N12_2 1_555 1_555
C42_2 C43_2 1_555 1_555
C47_2 C48_2 1_555 1_555
C47_2 N16_2 1_555 1_555
H11_2 C17_2 1_555 1_555
C23_2 H15_2 1_555 1_555
H16_2 C24_2 1_555 1_555
C23_2 C24_2 1_555 1_555
C1_2 H1_2 1_555 1_555
C2_2 C1_2 1_555 1_555
H2_2 C2_2 1_555 1_555
C3_2 C2_2 1_555 1_555
C4_2 C3_2 1_555 1_555
H3_2 C4_2 1_555 1_555
C5_2 C4_2 1_555 1_555
H4_2 C5_2 1_555 1_555
C6_2 C3_2 1_555 1_555
C7_2 C6_2 1_555 1_555
H5_2 C7_2 1_555 1_555
C8_2 C7_2 1_555 1_555
H6_2 C8_2 1_555 1_555
C9_2 C8_2 1_555 1_555
C10_2 C9_2 1_555 1_555
C11_2 C6_2 1_555 1_555
H8_2 C11_2 1_555 1_555
C12_2 C10_2 1_555 1_555
N1_2 C1_2 1_555 1_555
N2_2 C12_2 1_555 1_555
C39_2 H27_2 1_555 1_555
C40_2 C39_2 1_555 1_555
H28_2 C40_2 1_555 1_555
Cd5 N1_2 1_555 1_555
C5_2 N1_2 1_555 1_555
C10_2 C11_2 1_555 1_555
C1_3 H1_3 1_555 1_555
C2_3 C1_3 1_555 1_555
H2_3 C2_3 1_555 1_555
C3_3 C2_3 1_555 1_555
C4_3 C3_3 1_555 1_555
H3_3 C4_3 1_555 1_555
C5_3 C4_3 1_555 1_555
H4_3 C5_3 1_555 1_555
C6_3 C3_3 1_555 1_555
C7_3 C6_3 1_555 1_555
H5_3 C7_3 1_555 1_555
C8_3 C7_3 1_555 1_555
H6_3 C8_3 1_555 1_555
C9_3 C8_3 1_555 1_555
H7_3 C9_3 1_555 1_555
C10_3 C9_3 1_555 1_555
C11_3 C6_3 1_555 1_555
H8_3 C11_3 1_555 1_555
C12_3 C10_3 1_555 1_555
C13_3 C14_3 1_555 1_555
C14_3 C15_3 1_555 1_555
C15_3 H9_3 1_555 1_555
C16_2 C15_3 1_555 1_555
H10_2 C16_2 1_555 1_555
C17_3 C16_2 1_555 1_555
H11_3 C17_3 1_555 1_555
C18_3 C17_3 1_555 1_555
C19_3 C14_3 1_555 1_555
H12_3 C19_3 1_555 1_555
C20_3 C18_3 1_555 1_555
C21_3 C20_3 1_555 1_555
H13_3 C21_3 1_555 1_555
C22_3 C21_3 1_555 1_555
H14_3 C22_3 1_555 1_555
C23_3 H15_3 1_555 1_555
C24_3 C20_3 1_555 1_555
H16_3 C24_3 1_555 1_555
Cd2 N2_3 1_555 1_555
N8_2 C1_3 1_555 1_555
N2_3 C12_3 1_555 1_555
N3_3 C13_3 1_555 1_555
N4_3 C12_3 1_555 1_555
N5_3 N4_3 1_555 1_555
H17_3 N5_3 1_555 1_555
H18_3 N5_3 1_555 1_555
N15_2 C22_3 1_555 1_555
C25_3 H19_3 1_555 1_555
C26_3 C25_3 1_555 1_555
H20_3 C26_3 1_555 1_555
C27_3 C26_3 1_555 1_555
C28_3 C27_3 1_555 1_555
H21_3 C28_3 1_555 1_555
C29_3 C28_3 1_555 1_555
H22_3 C29_3 1_555 1_555
C30_3 C27_3 1_555 1_555
C31_3 C30_3 1_555 1_555
H23_3 C31_3 1_555 1_555
C32_3 C31_3 1_555 1_555
H24_3 C32_3 1_555 1_555
C33_3 C32_3 1_555 1_555
H25_3 C33_3 1_555 1_555
C34_3 C33_3 1_555 1_555
C35_3 C30_3 1_555 1_555
H26_3 C35_3 1_555 1_555
C36_3 C34_3 1_555 1_555
C37_3 C38_3 1_555 1_555
C38_3 C39_3 1_555 1_555
C39_3 H27_3 1_555 1_555
C40_3 C39_3 1_555 1_555
H28_3 C40_3 1_555 1_555
C41_3 C40_3 1_555 1_555
H29_3 C41_3 1_555 1_555
C42_3 C41_3 1_555 1_555
C43_3 C38_3 1_555 1_555
H30_3 C43_3 1_555 1_555
C44_3 C42_3 1_555 1_555
C45_3 C44_3 1_555 1_555
H31_3 C45_3 1_555 1_555
C46_3 C45_3 1_555 1_555
H32_3 C46_3 1_555 1_555
C47_3 H33_3 1_555 1_555
C48_3 C44_3 1_555 1_555
H34_3 C48_3 1_555 1_555
N7 C25_3 1_555 1_555
N10_3 Cd2 1_555 1_555
N11_3 C37_3 1_555 1_555
N12_3 C36_3 1_555 1_555
N13_3 N12_3 1_555 1_555
H35_3 N13_3 1_555 1_555
H36_3 N13_3 1_555 1_555
N14 C46_3 1_555 1_555
C5_3 N8_2 1_555 1_555
C10_3 C11_3 1_555 1_555
C13_3 N4_3 1_555 1_555
C18_3 C19_3 1_555 1_555
C23_3 C24_3 1_555 1_555
C23_3 N15_2 1_555 1_555
N2_3 N3_3 1_555 1_555
C29_3 N7 1_555 1_555
C34_3 C35_3 1_555 1_555
C36_3 N10_3 1_555 1_555
C37_3 N12_3 1_555 1_555
C42_3 C43_3 1_555 1_555
C47_3 C48_3 1_555 1_555
C47_3 N14 1_555 1_555
N10_3 N11_3 1_555 1_555
H5_4 C7_4 1_555 1_555
C8_4 C7_4 1_555 1_555
H6_4 C8_4 1_555 1_555
C9_4 C8_4 1_555 1_555
H7_4 C9_4 1_555 1_555
C25_4 H19_4 1_555 1_555
C26_4 C25_4 1_555 1_555
H20_4 C26_4 1_555 1_555
C27_4 C26_4 1_555 1_555
C28_4 C27_4 1_555 1_555
H21_4 C28_4 1_555 1_555
C29_4 C28_4 1_555 1_555
H22_4 C29_4 1_555 1_555
C30_4 C27_4 1_555 1_555
C35_4 C30_4 1_555 1_555
H26_4 C35_4 1_555 1_555
C36_4 C34_4 1_555 1_555
C37_4 C38_4 1_555 1_555
C38_4 C39_4 1_555 1_555
C39_4 H27_4 1_555 1_555
C40_4 C39_4 1_555 1_555
H28_4 C40_4 1_555 1_555
C41_4 C40_4 1_555 1_555
H29_4 C41_4 1_555 1_555
C42_4 C41_4 1_555 1_555
C43_4 C38_4 1_555 1_555
H30_4 C43_4 1_555 1_555
C44_4 C42_4 1_555 1_555
C45_4 C44_4 1_555 1_555
H31_4 C45_4 1_555 1_555
C46_4 C45_4 1_555 1_555
H32_4 C46_4 1_555 1_555
C47_4 H33_4 1_555 1_555
C48_4 C44_4 1_555 1_555
H34_4 C48_4 1_555 1_555
N7_2 C25_4 1_555 1_555
N10_4 Cd5 1_555 1_555
N11_4 C37_4 1_555 1_555
N12_4 C36_4 1_555 1_555
N13_4 N12_4 1_555 1_555
H35_4 N13_4 1_555 1_555
H36_4 N13_4 1_555 1_555
N14_2 C46_4 1_555 1_555
C29_4 N7_2 1_555 1_555
C34_4 C35_4 1_555 1_555
C36_4 N10_4 1_555 1_555
C37_4 N12_4 1_555 1_555
C42_4 C43_4 1_555 1_555
C47_4 C48_4 1_555 1_555
C47_4 N14_2 1_555 1_555
N10_4 N11_4 1_555 1_555
C1_4 H1_4 1_555 1_555
C2_4 C1_4 1_555 1_555
H2_4 C2_4 1_555 1_555
C3_4 C2_4 1_555 1_555
C4_4 C3_4 1_555 1_555
H3_4 C4_4 1_555 1_555
C5_4 C4_4 1_555 1_555
H4_4 C5_4 1_555 1_555
C6_4 C3_4 1_555 1_555
C11_4 C6_4 1_555 1_555
H8_4 C11_4 1_555 1_555
C12_4 C10_4 1_555 1_555
C13_4 C14_4 1_555 1_555
C14_4 C15_4 1_555 1_555
C15_4 H9_4 1_555 1_555
C16_3 C15_4 1_555 1_555
H10_3 C16_3 1_555 1_555
C17_4 C16_3 1_555 1_555
H11_4 C17_4 1_555 1_555
C18_4 C17_4 1_555 1_555
C19_4 C14_4 1_555 1_555
H12_4 C19_4 1_555 1_555
C20_4 C18_4 1_555 1_555
C21_4 C20_4 1_555 1_555
H13_4 C21_4 1_555 1_555
C22_4 C21_4 1_555 1_555
H14_4 C22_4 1_555 1_555
C23_4 H15_4 1_555 1_555
C24_4 C20_4 1_555 1_555
H16_4 C24_4 1_555 1_555
Cd5_2 N2_4 1_555 1_555
N8 C1_4 1_555 1_555
N2_4 C12_4 1_555 1_555
N3_4 C13_4 1_555 1_555
N4_4 C12_4 1_555 1_555
N5_4 N4_4 1_555 1_555
H17_4 N5_4 1_555 1_555
H18_4 N5_4 1_555 1_555
N15 C22_4 1_555 1_555
H23_4 C31_4 1_555 1_555
C32_4 C31_4 1_555 1_555
H24_4 C32_4 1_555 1_555
C33_4 C32_4 1_555 1_555
H25_4 C33_4 1_555 1_555
C5_4 N8 1_555 1_555
C10_4 C11_4 1_555 1_555
C13_4 N4_4 1_555 1_555
C18_4 C19_4 1_555 1_555
C23_4 C24_4 1_555 1_555
C23_4 N15 1_555 1_555
N2_4 N3_4 1_555 1_555
H10_4 C16_4 1_555 1_555
O3 Cl1 1_555 1_555
O4 Cl1 1_555 1_555
Cl1_2 O1 1_555 1_555
O2 Cl1_2 1_555 1_555
Cl1_3 O1_2 1_555 1_555
O2_2 Cl1_3 1_555 1_555
O3_2 Cl1_3 1_555 1_555
O4_2 Cl1_3 1_555 1_555
Cl1_4 O1_3 1_555 1_555
O2_3 Cl1_4 1_555 1_555
O3_3 Cl1_4 1_555 1_555
O4_3 Cl1_4 1_555 1_555
Cl1_5 O1_4 1_555 1_555
O2_4 Cl1_5 1_555 1_555
O3_4 Cl1_5 1_555 1_555
O4_4 Cl1_5 1_555 1_555

#END
