
###############################################################################
#
# This file contains modified crystal structure data generated from the
# MOF subset of the Cambridge Structural Database (CSD) v543 
# hosted by the Cambridge Crystallographic Data Centre (CCDC).
#
# This work is licensed under the Creative Commons
# Attribution-NonCommercial-ShareAlike 4.0 International License.
# To view a copy of this license, visit
# http://creativecommons.org/licenses/by-nc-sa/4.0/
# or send a letter to
# Creative Commons, PO Box 1866, Mountain View, CA 94042, USA.
#
# CIF created using the CSD Python API on 29 September 2022
# The structure has been converted into the P1 space group
# The structure has a 3D framework
# The original CSD entry OKITIM01 is in the tetragonal crystal system
# The original CSD entry OKITIM01 is in a Sohncke space group
# The framework has been calculated to contain at least 10.0% void space
# The void calculation uses a probe of radius 1.32A, grid spacing 0.4
# The framework is charged, counterions have been retained in the structure
#
###############################################################################

data_OKITIM01
_chemical_formula_moiety         '(C192 H144 Cd3 Cl10 N48 O32 2-)n'
_symmetry_cell_setting           triclinic
_symmetry_space_group_name_H-M   'P 1'
_symmetry_Int_Tables_number      1
_space_group_name_Hall           'P 1'
loop_
_symmetry_equiv_pos_site_id
_symmetry_equiv_pos_as_xyz
1 x,y,z
_cell_length_a                   15.8539(10)
_cell_length_b                   15.8539(10)
_cell_length_c                   21.660(3)
_cell_angle_alpha                90
_cell_angle_beta                 90
_cell_angle_gamma                90
_cell_volume                     5444.16
loop_
_atom_site_label
_atom_site_type_symbol
_atom_site_fract_x
_atom_site_fract_y
_atom_site_fract_z
C15 C 0.0050(5) 0.1628(5) 0.4646(3)
H9 H 0.0456 0.1189 0.4617
C16 C 0.0167(5) 0.2289(5) 0.5053(4)
H10 H 0.0664 0.2313 0.5297
C25 C 0.3593(5) 0.4125(5) 0.1398(3)
H19 H 0.3893 0.4621 0.1508
C26 C 0.2979(4) 0.3846(4) 0.1795(3)
H20 H 0.2857 0.4151 0.2162
C27 C 0.2532(5) 0.3108(4) 0.1652(3)
C28 C 0.2812(5) 0.2673(5) 0.1137(3)
H21 H 0.2586 0.2133 0.1044
C29 C 0.3423(5) 0.3026(5) 0.0756(4)
H22 H 0.3579 0.2732 0.0392
C30 C 0.1818(4) 0.2797(4) 0.2018(3)
C31 C 0.1661(5) 0.3074(5) 0.2621(3)
H23 H 0.2019 0.3489 0.2798
C32 C 0.1006(6) 0.2762(6) 0.2959(4)
H24 H 0.0927 0.2943 0.3373
C33 C 0.0445(5) 0.2172(5) 0.2696(3)
C34 C 0.0601(4) 0.1893(5) 0.2097(3)
C35 C 0.1265(4) 0.2208(5) 0.1768(3)
H26 H 0.1351 0.2020 0.1356
C36 C 0.0034(4) 0.1270(4) 0.1796(3)
Cd3 Cd 0.44188(3) 0.44188(3) 0.0000
N9 N 0.3797(4) 0.3751(4) 0.0878(3)
N10 N 0.0057(4) 0.0447(3) 0.1845(3)
N14 N 0.1866(3) 0.0245(4) 0.2568(3)
Cd3_2 Cd 0.44188(3) 0.44188(3) 1.0000
Cd1 Cd 0.05812(3) 0.94188(3) 0.2500
N7 N 0.1249(4) 0.8797(4) 0.3378(3)
N8 N 0.1203(4) 0.8751(4) 0.1622(3)
H7 H 0.8029 0.0028 0.2078
C13 C 0.9250(4) 0.0922(4) 0.3828(3)
C14 C 0.9325(4) 0.1615(4) 0.4273(3)
C17 C 0.9560(5) 0.2919(5) 0.5109(3)
H11 H 0.9633 0.3351 0.5408
C18 C 0.8846(4) 0.2923(4) 0.4732(3)
C19 C 0.8740(4) 0.2250(4) 0.4311(3)
H12 H 0.8258 0.2237 0.4051
C20 C 0.8189(5) 0.3579(5) 0.4787(3)
C21 C 0.7630(5) 0.3754(5) 0.4310(3)
H13 H 0.7686 0.3476 0.3923
C22 C 0.6990(5) 0.4338(5) 0.4400(3)
H14 H 0.6618 0.4449 0.4066
C23 C 0.7414(5) 0.4600(5) 0.5375(3)
H15 H 0.7353 0.4899 0.5752
C24 C 0.8074(5) 0.4029(5) 0.5326(3)
H16 H 0.8447 0.3948 0.5664
N3 N 0.9885(4) 0.0549(3) 0.3555(2)
N4 N 0.8509(4) 0.0571(3) 0.3620(2)
N5 N 0.7699(4) 0.0739(4) 0.3839(3)
H17 H 0.7498 0.0298 0.4064
H18 H 0.7356 0.0829 0.3508
N6 N 0.6866(3) 0.4755(4) 0.4932(3)
H25 H 0.9972 0.1971 0.2922
C37 C 0.9078(4) 0.0750(4) 0.1172(3)
C38 C 0.8385(4) 0.0675(4) 0.0727(3)
C42 C 0.7077(4) 0.1154(4) 0.0268(3)
C43 C 0.7750(4) 0.1260(4) 0.0689(3)
H30 H 0.7763 0.1742 0.0949
C44 C 0.6421(5) 0.1811(5) 0.0213(3)
C45 C 0.6246(5) 0.2370(5) 0.0690(3)
H31 H 0.6524 0.2314 0.1077
C46 C 0.5662(5) 0.3010(5) 0.0600(3)
H32 H 0.5551 0.3382 0.0934
Cd4 Cd 0.55812(3) 0.55812(3) 0.5000
N11 N 0.9451(3) 0.0115(4) 0.1445(2)
N12 N 0.9429(3) 0.1491(4) 0.1380(2)
N13 N 0.9261(4) 0.2301(4) 0.1161(3)
H35 H 0.9702 0.2502 0.0936
H36 H 0.9171 0.2644 0.1492
N16 N 0.5245(4) 0.3134(3) 0.0068(3)
C41 C 0.7081(5) 0.0440(5) 0.9891(3)
H29 H 0.6649 0.0367 0.9592
C47 C 0.5400(5) 0.2586(5) 0.9625(3)
H33 H 0.5101 0.2647 0.9248
C48 C 0.5971(5) 0.1926(5) 0.9674(3)
H34 H 0.6052 0.1553 0.9336
C1 C 0.5875(5) 0.6407(5) 0.3602(3)
H1 H 0.5379 0.6107 0.3492
C2 C 0.6154(4) 0.7021(4) 0.3205(3)
H2 H 0.5849 0.7143 0.2838
C3 C 0.6892(4) 0.7468(5) 0.3348(3)
C4 C 0.7327(5) 0.7188(5) 0.3863(3)
H3 H 0.7867 0.7414 0.3956
C5 C 0.6974(5) 0.6577(5) 0.4244(4)
H4 H 0.7268 0.6421 0.4608
C6 C 0.7203(4) 0.8182(4) 0.2982(3)
C7 C 0.6926(5) 0.8339(5) 0.2379(3)
H5 H 0.6511 0.7981 0.2202
C8 C 0.7238(6) 0.8994(6) 0.2041(4)
H6 H 0.7057 0.9073 0.1627
C9 C 0.7828(5) 0.9555(5) 0.2304(3)
C10 C 0.8107(5) 0.9399(4) 0.2903(3)
C11 C 0.7792(5) 0.8735(4) 0.3232(3)
H8 H 0.7980 0.8649 0.3644
C12 C 0.8730(4) 0.9966(4) 0.3204(3)
N1 N 0.6249(4) 0.6203(4) 0.4122(3)
N2 N 0.9553(3) 0.9943(4) 0.3155(3)
C39 C 0.8372(5) 0.9950(5) 0.0354(3)
H27 H 0.8811 0.9544 0.0383
N15 N 0.9755(4) 0.8134(3) 0.2432(3)
C1_2 C 0.4125(5) 0.3593(5) 0.8602(3)
H1_2 H 0.4621 0.3893 0.8492
C2_2 C 0.3846(4) 0.2979(4) 0.8205(3)
H2_2 H 0.4151 0.2857 0.7838
C3_2 C 0.3108(4) 0.2532(5) 0.8348(3)
C4_2 C 0.2673(5) 0.2812(5) 0.8863(3)
H3_2 H 0.2133 0.2586 0.8956
C5_2 C 0.3026(5) 0.3423(5) 0.9244(4)
H4_2 H 0.2732 0.3579 0.9608
C6_2 C 0.2797(4) 0.1818(4) 0.7982(3)
C7_2 C 0.3074(5) 0.1661(5) 0.7379(3)
H5_2 H 0.3489 0.2019 0.7202
C8_2 C 0.2762(6) 0.1006(6) 0.7041(4)
H6_2 H 0.2943 0.0927 0.6627
C9_2 C 0.2172(5) 0.0445(5) 0.7304(3)
C10_2 C 0.1893(5) 0.0601(4) 0.7903(3)
C11_2 C 0.2208(5) 0.1265(4) 0.8232(3)
H8_2 H 0.2020 0.1351 0.8644
C12_2 C 0.1270(4) 0.0034(4) 0.8204(3)
N1_2 N 0.3751(4) 0.3797(4) 0.9122(3)
N2_2 N 0.0447(3) 0.0057(4) 0.8155(3)
C39_2 C 0.1628(5) 0.0050(5) 0.5354(3)
H27_2 H 0.1189 0.0456 0.5383
C40 C 0.2289(5) 0.0167(5) 0.4947(4)
H28 H 0.2313 0.0664 0.4703
N15_2 N 0.0245(4) 0.1866(3) 0.7432(3)
C17_2 C 0.0440(5) 0.7081(5) 0.0109(3)
H11_2 H 0.0367 0.6649 0.0408
C23_2 C 0.2586(5) 0.5400(5) 0.0375(3)
H15_2 H 0.2647 0.5101 0.0752
C24_2 C 0.1926(5) 0.5971(5) 0.0326(3)
H16_2 H 0.1553 0.6052 0.0664
H7_2 H 0.1971 0.9972 0.7078
C13_2 C 0.0750(4) 0.9078(4) 0.8828(3)
C14_2 C 0.0675(4) 0.8385(4) 0.9273(3)
C18_2 C 0.1154(4) 0.7077(4) 0.9732(3)
C19_2 C 0.1260(4) 0.7750(4) 0.9311(3)
H12_2 H 0.1742 0.7763 0.9051
C20_2 C 0.1811(5) 0.6421(5) 0.9787(3)
C21_2 C 0.2370(5) 0.6246(5) 0.9310(3)
H13_2 H 0.2314 0.6524 0.8923
C22_2 C 0.3010(5) 0.5662(5) 0.9400(3)
H14_2 H 0.3382 0.5551 0.9066
N3_2 N 0.0115(4) 0.9451(3) 0.8555(2)
N4_2 N 0.1491(4) 0.9429(3) 0.8620(2)
N5_2 N 0.2301(4) 0.9261(4) 0.8839(3)
H17_2 H 0.2502 0.9702 0.9064
H18_2 H 0.2644 0.9171 0.8508
N6_2 N 0.3134(3) 0.5245(4) 0.9932(3)
H25_2 H 0.0028 0.8029 0.7922
C37_2 C 0.0922(4) 0.9250(4) 0.6172(3)
C38_2 C 0.1615(4) 0.9325(4) 0.5727(3)
C41_2 C 0.2919(5) 0.9560(5) 0.4891(3)
H29_2 H 0.3351 0.9633 0.4592
C42_2 C 0.2923(4) 0.8846(4) 0.5268(3)
C43_2 C 0.2250(4) 0.8740(4) 0.5689(3)
H30_2 H 0.2237 0.8258 0.5949
C44_2 C 0.3579(5) 0.8189(5) 0.5213(3)
C45_2 C 0.3754(5) 0.7630(5) 0.5690(3)
H31_2 H 0.3476 0.7686 0.6077
C46_2 C 0.4338(5) 0.6990(5) 0.5600(3)
H32_2 H 0.4449 0.6618 0.5934
C47_2 C 0.4600(5) 0.7414(5) 0.4625(3)
H33_2 H 0.4899 0.7353 0.4248
C48_2 C 0.4029(5) 0.8074(5) 0.4674(3)
H34_2 H 0.3948 0.8447 0.4336
N11_2 N 0.0549(3) 0.9885(4) 0.6445(2)
N12_2 N 0.0571(3) 0.8509(4) 0.6380(2)
N13_2 N 0.0739(4) 0.7699(4) 0.6161(3)
H35_2 H 0.0298 0.7498 0.5936
H36_2 H 0.0829 0.7356 0.6492
N16_2 N 0.4755(4) 0.6866(3) 0.5068(3)
Cd1_2 Cd 0.94188(3) 0.05812(3) 0.7500
N7_2 N 0.8751(4) 0.1203(4) 0.8378(3)
N8_2 N 0.8797(4) 0.1249(4) 0.6622(3)
C15_2 C 0.9950(5) 0.8372(5) 0.9646(3)
H9_2 H 0.9544 0.8811 0.9617
C25_2 C 0.6407(5) 0.5875(5) 0.6398(3)
H19_2 H 0.6107 0.5379 0.6508
C26_2 C 0.7021(4) 0.6154(4) 0.6795(3)
H20_2 H 0.7143 0.5849 0.7162
C27_2 C 0.7468(5) 0.6892(4) 0.6652(3)
C28_2 C 0.7188(5) 0.7327(5) 0.6137(3)
H21_2 H 0.7414 0.7867 0.6044
C29_2 C 0.6577(5) 0.6974(5) 0.5756(4)
H22_2 H 0.6421 0.7268 0.5392
C30_2 C 0.8182(4) 0.7203(4) 0.7018(3)
C31_2 C 0.8339(5) 0.6926(5) 0.7621(3)
H23_2 H 0.7981 0.6511 0.7798
C32_2 C 0.8994(6) 0.7238(6) 0.7959(4)
H24_2 H 0.9073 0.7057 0.8373
C33_2 C 0.9555(5) 0.7828(5) 0.7696(3)
C34_2 C 0.9399(4) 0.8107(5) 0.7097(3)
C35_2 C 0.8735(4) 0.7792(5) 0.6768(3)
H26_2 H 0.8649 0.7980 0.6356
C36_2 C 0.9966(4) 0.8730(4) 0.6796(3)
N9_2 N 0.6203(4) 0.6249(4) 0.5878(3)
N10_2 N 0.9943(4) 0.9553(3) 0.6845(3)
N14_2 N 0.8134(3) 0.9755(4) 0.7568(3)
C1_3 C 0.8593(5) 0.0875(5) 0.6102(3)
H1_3 H 0.8893 0.0379 0.5992
C2_3 C 0.7979(4) 0.1154(4) 0.5705(3)
H2_3 H 0.7857 0.0849 0.5338
C3_3 C 0.7532(5) 0.1892(4) 0.5848(3)
C4_3 C 0.7812(5) 0.2327(5) 0.6363(3)
H3_3 H 0.7586 0.2867 0.6456
C5_3 C 0.8423(5) 0.1974(5) 0.6744(4)
H4_3 H 0.8579 0.2268 0.7108
C6_3 C 0.6818(4) 0.2203(4) 0.5482(3)
C7_3 C 0.6661(5) 0.1926(5) 0.4879(3)
H5_3 H 0.7019 0.1511 0.4702
C8_3 C 0.6006(6) 0.2238(6) 0.4541(4)
H6_3 H 0.5927 0.2057 0.4127
C9_3 C 0.5445(5) 0.2828(5) 0.4804(3)
H7_3 H 0.4972 0.3029 0.4578
C10_3 C 0.5601(4) 0.3107(5) 0.5403(3)
C11_3 C 0.6265(4) 0.2792(5) 0.5732(3)
H8_3 H 0.6351 0.2980 0.6144
C12_3 C 0.5034(4) 0.3730(4) 0.5704(3)
C13_3 C 0.4078(4) 0.4250(4) 0.6328(3)
C14_3 C 0.3385(4) 0.4325(4) 0.6773(3)
C15_3 C 0.3372(5) 0.5050(5) 0.7146(3)
H9_3 H 0.3811 0.5456 0.7117
C16_2 C 0.2711(5) 0.5167(5) 0.7553(4)
H10_2 H 0.2687 0.5664 0.7797
C17_3 C 0.2081(5) 0.4560(5) 0.7609(3)
H11_3 H 0.1649 0.4633 0.7908
C18_3 C 0.2077(4) 0.3846(4) 0.7232(3)
C19_3 C 0.2750(4) 0.3740(4) 0.6811(3)
H12_3 H 0.2763 0.3258 0.6551
C20_3 C 0.1421(5) 0.3189(5) 0.7287(3)
C21_3 C 0.1246(5) 0.2630(5) 0.6810(3)
H13_3 H 0.1524 0.2686 0.6423
C22_3 C 0.0662(5) 0.1990(5) 0.6900(3)
H14_3 H 0.0551 0.1618 0.6566
C23_3 C 0.0400(5) 0.2414(5) 0.7875(3)
H15_3 H 0.0101 0.2353 0.8252
C24_3 C 0.0971(5) 0.3074(5) 0.7826(3)
H16_3 H 0.1052 0.3447 0.8164
N2_3 N 0.5057(4) 0.4553(3) 0.5655(3)
N3_3 N 0.4451(3) 0.4885(4) 0.6055(2)
N4_3 N 0.4429(3) 0.3509(4) 0.6120(2)
N5_3 N 0.4261(4) 0.2699(4) 0.6339(3)
H17_3 H 0.4702 0.2498 0.6564
H18_3 H 0.4171 0.2356 0.6008
C25_3 C 0.0875(5) 0.8593(5) 0.3898(3)
H19_3 H 0.0379 0.8893 0.4008
C26_3 C 0.1154(4) 0.7979(4) 0.4295(3)
H20_3 H 0.0849 0.7857 0.4662
C27_3 C 0.1892(4) 0.7532(5) 0.4152(3)
C28_3 C 0.2327(5) 0.7812(5) 0.3637(3)
H21_3 H 0.2867 0.7586 0.3544
C29_3 C 0.1974(5) 0.8423(5) 0.3256(4)
H22_3 H 0.2268 0.8579 0.2892
C30_3 C 0.2203(4) 0.6818(4) 0.4518(3)
C31_3 C 0.1926(5) 0.6661(5) 0.5121(3)
H23_3 H 0.1511 0.7019 0.5298
C32_3 C 0.2238(6) 0.6006(6) 0.5459(4)
H24_3 H 0.2057 0.5927 0.5873
C33_3 C 0.2828(5) 0.5445(5) 0.5196(3)
H25_3 H 0.3029 0.4972 0.5422
C34_3 C 0.3107(5) 0.5601(4) 0.4597(3)
C35_3 C 0.2792(5) 0.6265(4) 0.4268(3)
H26_3 H 0.2980 0.6351 0.3856
C36_3 C 0.3730(4) 0.5034(4) 0.4296(3)
C37_3 C 0.4250(4) 0.4078(4) 0.3672(3)
C38_3 C 0.4325(4) 0.3385(4) 0.3227(3)
C39_3 C 0.5050(5) 0.3372(5) 0.2854(3)
H27_3 H 0.5456 0.3811 0.2883
C40_2 C 0.5167(5) 0.2711(5) 0.2447(4)
H28_2 H 0.5664 0.2687 0.2203
C41_3 C 0.4560(5) 0.2081(5) 0.2391(3)
H29_3 H 0.4633 0.1649 0.2092
C42_3 C 0.3846(4) 0.2077(4) 0.2768(3)
C43_3 C 0.3740(4) 0.2750(4) 0.3189(3)
H30_3 H 0.3258 0.2763 0.3449
C44_3 C 0.3189(5) 0.1421(5) 0.2713(3)
C45_3 C 0.2630(5) 0.1246(5) 0.3190(3)
H31_3 H 0.2686 0.1524 0.3577
C46_3 C 0.1990(5) 0.0662(5) 0.3100(3)
H32_3 H 0.1618 0.0551 0.3434
C47_3 C 0.2414(5) 0.0400(5) 0.2125(3)
H33_3 H 0.2353 0.0101 0.1748
C48_3 C 0.3074(5) 0.0971(5) 0.2174(3)
H34_3 H 0.3447 0.1052 0.1836
N10_3 N 0.4553(3) 0.5057(4) 0.4345(3)
N11_3 N 0.4885(4) 0.4451(3) 0.3945(2)
N12_3 N 0.3509(4) 0.4429(3) 0.3880(2)
N13_3 N 0.2699(4) 0.4261(4) 0.3661(3)
H35_3 H 0.2498 0.4702 0.3436
H36_3 H 0.2356 0.4171 0.3992
C1_4 C 0.1407(5) 0.9125(5) 0.1102(3)
H1_4 H 0.1107 0.9621 0.0992
C2_4 C 0.2021(4) 0.8846(4) 0.0705(3)
H2_4 H 0.2143 0.9151 0.0338
C3_4 C 0.2468(5) 0.8108(4) 0.0848(3)
C4_4 C 0.2188(5) 0.7673(5) 0.1363(3)
H3_4 H 0.2414 0.7133 0.1456
C5_4 C 0.1577(5) 0.8026(5) 0.1744(4)
H4_4 H 0.1421 0.7732 0.2108
C6_4 C 0.3182(4) 0.7797(4) 0.0482(3)
C10_4 C 0.4399(4) 0.6893(5) 0.0403(3)
C11_4 C 0.3735(4) 0.7208(5) 0.0732(3)
H8_4 H 0.3649 0.7020 0.1144
C12_4 C 0.4966(4) 0.6270(4) 0.0704(3)
C13_4 C 0.5922(4) 0.5750(4) 0.1328(3)
C14_4 C 0.6615(4) 0.5675(4) 0.1773(3)
C15_4 C 0.6628(5) 0.4950(5) 0.2146(3)
H9_4 H 0.6189 0.4544 0.2117
C16_3 C 0.7289(5) 0.4833(5) 0.2553(4)
H10_3 H 0.7313 0.4336 0.2797
C17_4 C 0.7919(5) 0.5440(5) 0.2609(3)
H11_4 H 0.8351 0.5367 0.2908
C18_4 C 0.7923(4) 0.6154(4) 0.2232(3)
C19_4 C 0.7250(4) 0.6260(4) 0.1811(3)
H12_4 H 0.7237 0.6742 0.1551
C20_4 C 0.8579(5) 0.6811(5) 0.2287(3)
C21_4 C 0.8754(5) 0.7370(5) 0.1810(3)
H13_4 H 0.8476 0.7314 0.1423
C22_4 C 0.9338(5) 0.8010(5) 0.1900(3)
H14_4 H 0.9449 0.8382 0.1566
C23_4 C 0.9600(5) 0.7586(5) 0.2875(3)
H15_4 H 0.9899 0.7647 0.3252
C24_4 C 0.9029(5) 0.6926(5) 0.2826(3)
H16_4 H 0.8948 0.6553 0.3164
N2_4 N 0.4943(4) 0.5447(3) 0.0655(3)
N3_4 N 0.5549(3) 0.5115(4) 0.1055(2)
N4_4 N 0.5571(3) 0.6491(4) 0.1120(2)
N5_4 N 0.5739(4) 0.7301(4) 0.1339(3)
H17_4 H 0.5298 0.7502 0.1564
H18_4 H 0.5829 0.7644 0.1008
C31_4 C 0.8074(5) 0.3339(5) 0.0121(3)
H23_4 H 0.8489 0.2981 0.0298
C32_4 C 0.7762(6) 0.3994(6) 0.0459(4)
H24_4 H 0.7943 0.4073 0.0873
C33_4 C 0.7172(5) 0.4555(5) 0.0196(3)
H25_4 H 0.6971 0.5028 0.0422
C7_4 C 0.3339(5) 0.8074(5) 0.9879(3)
H5_4 H 0.2981 0.8489 0.9702
C8_4 C 0.3994(6) 0.7762(6) 0.9541(4)
H6_4 H 0.4073 0.7943 0.9127
C9_4 C 0.4555(5) 0.7172(5) 0.9804(3)
H7_4 H 0.5028 0.6971 0.9578
C25_4 C 0.9125(5) 0.1407(5) 0.8898(3)
H19_4 H 0.9621 0.1107 0.9008
C26_4 C 0.8846(4) 0.2021(4) 0.9295(3)
H20_4 H 0.9151 0.2143 0.9662
C27_4 C 0.8108(4) 0.2468(5) 0.9152(3)
C28_4 C 0.7673(5) 0.2188(5) 0.8637(3)
H21_4 H 0.7133 0.2414 0.8544
C29_4 C 0.8026(5) 0.1577(5) 0.8256(4)
H22_4 H 0.7732 0.1421 0.7892
C30_4 C 0.7797(4) 0.3182(4) 0.9518(3)
C34_4 C 0.6893(5) 0.4399(4) 0.9597(3)
C35_4 C 0.7208(5) 0.3735(4) 0.9268(3)
H26_4 H 0.7020 0.3649 0.8856
C36_4 C 0.6270(4) 0.4966(4) 0.9296(3)
C37_4 C 0.5750(4) 0.5922(4) 0.8672(3)
C38_4 C 0.5675(4) 0.6615(4) 0.8227(3)
C39_4 C 0.4950(5) 0.6628(5) 0.7854(3)
H27_4 H 0.4544 0.6189 0.7883
C40_3 C 0.4833(5) 0.7289(5) 0.7447(4)
H28_3 H 0.4336 0.7313 0.7203
C41_4 C 0.5440(5) 0.7919(5) 0.7391(3)
H29_4 H 0.5367 0.8351 0.7092
C42_4 C 0.6154(4) 0.7923(4) 0.7768(3)
C43_4 C 0.6260(4) 0.7250(4) 0.8189(3)
H30_4 H 0.6742 0.7237 0.8449
C44_4 C 0.6811(5) 0.8579(5) 0.7713(3)
C45_4 C 0.7370(5) 0.8754(5) 0.8190(3)
H31_4 H 0.7314 0.8476 0.8577
C46_4 C 0.8010(5) 0.9338(5) 0.8100(3)
H32_4 H 0.8382 0.9449 0.8434
C47_4 C 0.7586(5) 0.9600(5) 0.7125(3)
H33_4 H 0.7647 0.9899 0.6748
C48_4 C 0.6926(5) 0.9029(5) 0.7174(3)
H34_4 H 0.6553 0.8948 0.6836
N10_4 N 0.5447(3) 0.4943(4) 0.9345(3)
N11_4 N 0.5115(4) 0.5549(3) 0.8945(2)
N12_4 N 0.6491(4) 0.5571(3) 0.8880(2)
N13_4 N 0.7301(4) 0.5739(4) 0.8661(3)
H35_4 H 0.7502 0.5298 0.8436
H36_4 H 0.7644 0.5829 0.8992
C40_4 C 0.7711(5) 0.9833(5) 0.9947(4)
H28_4 H 0.7687 0.9336 0.9703
C16_4 C 0.9833(5) 0.7711(5) 0.0053(4)
H10_4 H 0.9336 0.7687 0.0297
O1 O 0.7645(7) 0.7650(8) 0.0517(3)
Cl1 Cl 0.73077(14) 0.73077(14) 0.0000
O2 O 0.6561(15) 0.7823(17) 0.004(2)
Cl1_2 Cl 0.73077(14) 0.73077(14) 1.0000
O3 O 0.7650(8) 0.7645(7) 0.9483(3)
O4 O 0.7823(17) 0.6561(15) 0.996(2)
O1_2 O 0.2355(7) 0.2350(8) 0.5517(3)
Cl1_3 Cl 0.26923(14) 0.26923(14) 0.5000
O2_2 O 0.3439(15) 0.2177(17) 0.504(2)
O3_2 O 0.2350(8) 0.2355(7) 0.4483(3)
O4_2 O 0.2177(17) 0.3439(15) 0.496(2)
O1_3 O 0.7350(8) 0.2645(7) 0.3017(3)
Cl1_4 Cl 0.76923(14) 0.23077(14) 0.2500
O2_3 O 0.7177(17) 0.1561(15) 0.254(2)
O3_3 O 0.7355(7) 0.2650(8) 0.1983(3)
O4_3 O 0.8439(15) 0.2823(17) 0.246(2)
O1_4 O 0.2650(8) 0.7355(7) 0.8017(3)
Cl1_5 Cl 0.23077(14) 0.76923(14) 0.7500
O2_4 O 0.2823(17) 0.8439(15) 0.754(2)
O3_4 O 0.2645(7) 0.7350(8) 0.6983(3)
O4_4 O 0.1561(15) 0.7177(17) 0.746(2)
Cl2 Cl 0.62084(17) 0.37916(17) 0.7500
O5 O 0.5950(10) 0.3381(10) 0.8089(7)
O6 O 0.6617(15) 0.4399(17) 0.7816(10)
O7 O 0.6619(10) 0.4050(10) 0.6911(7)
O8 O 0.5601(17) 0.3383(15) 0.7184(10)
Cl2_2 Cl 0.37916(17) 0.62084(17) 0.2500
O5_2 O 0.4050(10) 0.6619(10) 0.3089(7)
O6_2 O 0.3383(15) 0.5601(17) 0.2816(10)
O7_2 O 0.3381(10) 0.5950(10) 0.1911(7)
O8_2 O 0.4399(17) 0.6617(15) 0.2184(10)
Cl2_3 Cl 0.12084(17) 0.12084(17) 0.0000
O5_3 O 0.1619(10) 0.0950(10) 0.0589(7)
O6_3 O 0.0601(17) 0.1617(15) 0.0316(10)
Cl2_4 Cl 0.12084(17) 0.12084(17) 1.0000
O7_3 O 0.0950(10) 0.1619(10) 0.9411(7)
O8_3 O 0.1617(15) 0.0601(17) 0.9684(10)
Cl2_5 Cl 0.87916(17) 0.87916(17) 0.5000
O5_4 O 0.8381(10) 0.9050(10) 0.5589(7)
O6_4 O 0.9399(17) 0.8383(15) 0.5316(10)
O7_4 O 0.9050(10) 0.8381(10) 0.4411(7)
O8_4 O 0.8383(15) 0.9399(17) 0.4684(10)
loop_
_geom_bond_atom_site_label_1
_geom_bond_atom_site_label_2
_geom_bond_site_symmetry_1
_geom_bond_site_symmetry_2
C15 H9 1_555 1_555
C16 C15 1_555 1_555
H10 C16 1_555 1_555
C25 H19 1_555 1_555
C26 C25 1_555 1_555
H20 C26 1_555 1_555
C27 C26 1_555 1_555
C28 C27 1_555 1_555
H21 C28 1_555 1_555
C29 C28 1_555 1_555
H22 C29 1_555 1_555
C30 C27 1_555 1_555
C31 C30 1_555 1_555
H23 C31 1_555 1_555
C32 C31 1_555 1_555
H24 C32 1_555 1_555
C33 C32 1_555 1_555
C34 C33 1_555 1_555
C35 C30 1_555 1_555
H26 C35 1_555 1_555
C36 C34 1_555 1_555
Cd3 N9 1_555 1_555
N9 C25 1_555 1_555
C29 N9 1_555 1_555
C34 C35 1_555 1_555
C36 N10 1_555 1_555
N7 Cd1 1_555 1_555
N8 Cd1 1_555 1_555
C13 C14 1_555 1_555
H11 C17 1_555 1_555
C18 C17 1_555 1_555
C19 C14 1_555 1_555
H12 C19 1_555 1_555
C20 C18 1_555 1_555
C21 C20 1_555 1_555
H13 C21 1_555 1_555
C22 C21 1_555 1_555
H14 C22 1_555 1_555
C23 H15 1_555 1_555
C24 C20 1_555 1_555
H16 C24 1_555 1_555
N3 C13 1_555 1_555
N5 N4 1_555 1_555
H17 N5 1_555 1_555
H18 N5 1_555 1_555
N6 C22 1_555 1_555
C37 C38 1_555 1_555
C43 C38 1_555 1_555
H30 C43 1_555 1_555
C44 C42 1_555 1_555
C45 C44 1_555 1_555
H31 C45 1_555 1_555
C46 C45 1_555 1_555
H32 C46 1_555 1_555
Cd4 N6 1_555 1_555
Cd3 N16 1_555 1_555
N11 C37 1_555 1_555
N13 N12 1_555 1_555
H35 N13 1_555 1_555
H36 N13 1_555 1_555
N16 C46 1_555 1_555
C13 N4 1_555 1_555
C18 C19 1_555 1_555
C23 C24 1_555 1_555
C23 N6 1_555 1_555
C37 N12 1_555 1_555
C42 C43 1_555 1_555
H29 C41 1_555 1_555
C47 H33 1_555 1_555
H34 C48 1_555 1_555
C47 C48 1_555 1_555
C1 H1 1_555 1_555
C2 C1 1_555 1_555
H2 C2 1_555 1_555
C3 C2 1_555 1_555
C4 C3 1_555 1_555
H3 C4 1_555 1_555
C5 C4 1_555 1_555
H4 C5 1_555 1_555
C6 C3 1_555 1_555
C7 C6 1_555 1_555
H5 C7 1_555 1_555
C8 C7 1_555 1_555
H6 C8 1_555 1_555
C9 C8 1_555 1_555
C10 C9 1_555 1_555
C11 C6 1_555 1_555
H8 C11 1_555 1_555
C12 C10 1_555 1_555
N1 C1 1_555 1_555
N2 C12 1_555 1_555
C39 H27 1_555 1_555
Cd4 N1 1_555 1_555
C5 N1 1_555 1_555
C10 C11 1_555 1_555
C1_2 H1_2 1_555 1_555
C2_2 C1_2 1_555 1_555
H2_2 C2_2 1_555 1_555
C3_2 C2_2 1_555 1_555
C4_2 C3_2 1_555 1_555
H3_2 C4_2 1_555 1_555
C5_2 C4_2 1_555 1_555
H4_2 C5_2 1_555 1_555
C6_2 C3_2 1_555 1_555
C7_2 C6_2 1_555 1_555
H5_2 C7_2 1_555 1_555
C8_2 C7_2 1_555 1_555
H6_2 C8_2 1_555 1_555
C9_2 C8_2 1_555 1_555
C10_2 C9_2 1_555 1_555
C11_2 C6_2 1_555 1_555
H8_2 C11_2 1_555 1_555
C12_2 C10_2 1_555 1_555
N1_2 C1_2 1_555 1_555
N2_2 C12_2 1_555 1_555
C39_2 H27_2 1_555 1_555
C40 C39_2 1_555 1_555
H28 C40 1_555 1_555
Cd3_2 N1_2 1_555 1_555
C5_2 N1_2 1_555 1_555
C10_2 C11_2 1_555 1_555
H11_2 C17_2 1_555 1_555
C23_2 H15_2 1_555 1_555
H16_2 C24_2 1_555 1_555
C23_2 C24_2 1_555 1_555
C13_2 C14_2 1_555 1_555
C19_2 C14_2 1_555 1_555
H12_2 C19_2 1_555 1_555
C20_2 C18_2 1_555 1_555
C21_2 C20_2 1_555 1_555
H13_2 C21_2 1_555 1_555
C22_2 C21_2 1_555 1_555
H14_2 C22_2 1_555 1_555
N3_2 C13_2 1_555 1_555
N5_2 N4_2 1_555 1_555
H17_2 N5_2 1_555 1_555
H18_2 N5_2 1_555 1_555
N6_2 C22_2 1_555 1_555
C37_2 C38_2 1_555 1_555
H29_2 C41_2 1_555 1_555
C42_2 C41_2 1_555 1_555
C43_2 C38_2 1_555 1_555
H30_2 C43_2 1_555 1_555
C44_2 C42_2 1_555 1_555
C45_2 C44_2 1_555 1_555
H31_2 C45_2 1_555 1_555
C46_2 C45_2 1_555 1_555
H32_2 C46_2 1_555 1_555
C47_2 H33_2 1_555 1_555
C48_2 C44_2 1_555 1_555
H34_2 C48_2 1_555 1_555
Cd3_2 N6_2 1_555 1_555
Cd4 N16_2 1_555 1_555
N11_2 C37_2 1_555 1_555
N13_2 N12_2 1_555 1_555
H35_2 N13_2 1_555 1_555
H36_2 N13_2 1_555 1_555
N16_2 C46_2 1_555 1_555
C13_2 N4_2 1_555 1_555
C18_2 C19_2 1_555 1_555
C37_2 N12_2 1_555 1_555
C42_2 C43_2 1_555 1_555
C47_2 C48_2 1_555 1_555
C47_2 N16_2 1_555 1_555
N7_2 Cd1_2 1_555 1_555
N8_2 Cd1_2 1_555 1_555
C15_2 H9_2 1_555 1_555
C25_2 H19_2 1_555 1_555
C26_2 C25_2 1_555 1_555
H20_2 C26_2 1_555 1_555
C27_2 C26_2 1_555 1_555
C28_2 C27_2 1_555 1_555
H21_2 C28_2 1_555 1_555
C29_2 C28_2 1_555 1_555
H22_2 C29_2 1_555 1_555
C30_2 C27_2 1_555 1_555
C31_2 C30_2 1_555 1_555
H23_2 C31_2 1_555 1_555
C32_2 C31_2 1_555 1_555
H24_2 C32_2 1_555 1_555
C33_2 C32_2 1_555 1_555
C34_2 C33_2 1_555 1_555
C35_2 C30_2 1_555 1_555
H26_2 C35_2 1_555 1_555
C36_2 C34_2 1_555 1_555
Cd4 N9_2 1_555 1_555
N9_2 C25_2 1_555 1_555
C29_2 N9_2 1_555 1_555
C34_2 C35_2 1_555 1_555
C36_2 N10_2 1_555 1_555
C1_3 H1_3 1_555 1_555
C2_3 C1_3 1_555 1_555
H2_3 C2_3 1_555 1_555
C3_3 C2_3 1_555 1_555
C4_3 C3_3 1_555 1_555
H3_3 C4_3 1_555 1_555
C5_3 C4_3 1_555 1_555
H4_3 C5_3 1_555 1_555
C6_3 C3_3 1_555 1_555
C7_3 C6_3 1_555 1_555
H5_3 C7_3 1_555 1_555
C8_3 C7_3 1_555 1_555
H6_3 C8_3 1_555 1_555
C9_3 C8_3 1_555 1_555
H7_3 C9_3 1_555 1_555
C10_3 C9_3 1_555 1_555
C11_3 C6_3 1_555 1_555
H8_3 C11_3 1_555 1_555
C12_3 C10_3 1_555 1_555
C13_3 C14_3 1_555 1_555
C14_3 C15_3 1_555 1_555
C15_3 H9_3 1_555 1_555
C16_2 C15_3 1_555 1_555
H10_2 C16_2 1_555 1_555
C17_3 C16_2 1_555 1_555
H11_3 C17_3 1_555 1_555
C18_3 C17_3 1_555 1_555
C19_3 C14_3 1_555 1_555
H12_3 C19_3 1_555 1_555
C20_3 C18_3 1_555 1_555
C21_3 C20_3 1_555 1_555
H13_3 C21_3 1_555 1_555
C22_3 C21_3 1_555 1_555
H14_3 C22_3 1_555 1_555
C23_3 H15_3 1_555 1_555
C24_3 C20_3 1_555 1_555
H16_3 C24_3 1_555 1_555
Cd4 N2_3 1_555 1_555
N8_2 C1_3 1_555 1_555
N2_3 C12_3 1_555 1_555
N3_3 C13_3 1_555 1_555
N4_3 C12_3 1_555 1_555
N5_3 N4_3 1_555 1_555
H17_3 N5_3 1_555 1_555
H18_3 N5_3 1_555 1_555
N15_2 C22_3 1_555 1_555
C25_3 H19_3 1_555 1_555
C26_3 C25_3 1_555 1_555
H20_3 C26_3 1_555 1_555
C27_3 C26_3 1_555 1_555
C28_3 C27_3 1_555 1_555
H21_3 C28_3 1_555 1_555
C29_3 C28_3 1_555 1_555
H22_3 C29_3 1_555 1_555
C30_3 C27_3 1_555 1_555
C31_3 C30_3 1_555 1_555
H23_3 C31_3 1_555 1_555
C32_3 C31_3 1_555 1_555
H24_3 C32_3 1_555 1_555
C33_3 C32_3 1_555 1_555
H25_3 C33_3 1_555 1_555
C34_3 C33_3 1_555 1_555
C35_3 C30_3 1_555 1_555
H26_3 C35_3 1_555 1_555
C36_3 C34_3 1_555 1_555
C37_3 C38_3 1_555 1_555
C38_3 C39_3 1_555 1_555
C39_3 H27_3 1_555 1_555
C40_2 C39_3 1_555 1_555
H28_2 C40_2 1_555 1_555
C41_3 C40_2 1_555 1_555
H29_3 C41_3 1_555 1_555
C42_3 C41_3 1_555 1_555
C43_3 C38_3 1_555 1_555
H30_3 C43_3 1_555 1_555
C44_3 C42_3 1_555 1_555
C45_3 C44_3 1_555 1_555
H31_3 C45_3 1_555 1_555
C46_3 C45_3 1_555 1_555
H32_3 C46_3 1_555 1_555
C47_3 H33_3 1_555 1_555
C48_3 C44_3 1_555 1_555
H34_3 C48_3 1_555 1_555
N7 C25_3 1_555 1_555
N10_3 Cd4 1_555 1_555
N11_3 C37_3 1_555 1_555
N12_3 C36_3 1_555 1_555
N13_3 N12_3 1_555 1_555
H35_3 N13_3 1_555 1_555
H36_3 N13_3 1_555 1_555
N14 C46_3 1_555 1_555
C5_3 N8_2 1_555 1_555
C10_3 C11_3 1_555 1_555
C13_3 N4_3 1_555 1_555
C18_3 C19_3 1_555 1_555
C23_3 C24_3 1_555 1_555
C23_3 N15_2 1_555 1_555
N2_3 N3_3 1_555 1_555
C29_3 N7 1_555 1_555
C34_3 C35_3 1_555 1_555
C36_3 N10_3 1_555 1_555
C37_3 N12_3 1_555 1_555
C42_3 C43_3 1_555 1_555
C47_3 C48_3 1_555 1_555
C47_3 N14 1_555 1_555
N10_3 N11_3 1_555 1_555
C1_4 H1_4 1_555 1_555
C2_4 C1_4 1_555 1_555
H2_4 C2_4 1_555 1_555
C3_4 C2_4 1_555 1_555
C4_4 C3_4 1_555 1_555
H3_4 C4_4 1_555 1_555
C5_4 C4_4 1_555 1_555
H4_4 C5_4 1_555 1_555
C6_4 C3_4 1_555 1_555
C11_4 C6_4 1_555 1_555
H8_4 C11_4 1_555 1_555
C12_4 C10_4 1_555 1_555
C13_4 C14_4 1_555 1_555
C14_4 C15_4 1_555 1_555
C15_4 H9_4 1_555 1_555
C16_3 C15_4 1_555 1_555
H10_3 C16_3 1_555 1_555
C17_4 C16_3 1_555 1_555
H11_4 C17_4 1_555 1_555
C18_4 C17_4 1_555 1_555
C19_4 C14_4 1_555 1_555
H12_4 C19_4 1_555 1_555
C20_4 C18_4 1_555 1_555
C21_4 C20_4 1_555 1_555
H13_4 C21_4 1_555 1_555
C22_4 C21_4 1_555 1_555
H14_4 C22_4 1_555 1_555
C23_4 H15_4 1_555 1_555
C24_4 C20_4 1_555 1_555
H16_4 C24_4 1_555 1_555
Cd3 N2_4 1_555 1_555
N8 C1_4 1_555 1_555
N2_4 C12_4 1_555 1_555
N3_4 C13_4 1_555 1_555
N4_4 C12_4 1_555 1_555
N5_4 N4_4 1_555 1_555
H17_4 N5_4 1_555 1_555
H18_4 N5_4 1_555 1_555
N15 C22_4 1_555 1_555
H23_4 C31_4 1_555 1_555
C32_4 C31_4 1_555 1_555
H24_4 C32_4 1_555 1_555
C33_4 C32_4 1_555 1_555
H25_4 C33_4 1_555 1_555
C5_4 N8 1_555 1_555
C10_4 C11_4 1_555 1_555
C13_4 N4_4 1_555 1_555
C18_4 C19_4 1_555 1_555
C23_4 C24_4 1_555 1_555
C23_4 N15 1_555 1_555
N2_4 N3_4 1_555 1_555
H5_4 C7_4 1_555 1_555
C8_4 C7_4 1_555 1_555
H6_4 C8_4 1_555 1_555
C9_4 C8_4 1_555 1_555
H7_4 C9_4 1_555 1_555
C25_4 H19_4 1_555 1_555
C26_4 C25_4 1_555 1_555
H20_4 C26_4 1_555 1_555
C27_4 C26_4 1_555 1_555
C28_4 C27_4 1_555 1_555
H21_4 C28_4 1_555 1_555
C29_4 C28_4 1_555 1_555
H22_4 C29_4 1_555 1_555
C30_4 C27_4 1_555 1_555
C35_4 C30_4 1_555 1_555
H26_4 C35_4 1_555 1_555
C36_4 C34_4 1_555 1_555
C37_4 C38_4 1_555 1_555
C38_4 C39_4 1_555 1_555
C39_4 H27_4 1_555 1_555
C40_3 C39_4 1_555 1_555
H28_3 C40_3 1_555 1_555
C41_4 C40_3 1_555 1_555
H29_4 C41_4 1_555 1_555
C42_4 C41_4 1_555 1_555
C43_4 C38_4 1_555 1_555
H30_4 C43_4 1_555 1_555
C44_4 C42_4 1_555 1_555
C45_4 C44_4 1_555 1_555
H31_4 C45_4 1_555 1_555
C46_4 C45_4 1_555 1_555
H32_4 C46_4 1_555 1_555
C47_4 H33_4 1_555 1_555
C48_4 C44_4 1_555 1_555
H34_4 C48_4 1_555 1_555
N7_2 C25_4 1_555 1_555
N10_4 Cd3_2 1_555 1_555
N11_4 C37_4 1_555 1_555
N12_4 C36_4 1_555 1_555
N13_4 N12_4 1_555 1_555
H35_4 N13_4 1_555 1_555
H36_4 N13_4 1_555 1_555
N14_2 C46_4 1_555 1_555
C29_4 N7_2 1_555 1_555
C34_4 C35_4 1_555 1_555
C36_4 N10_4 1_555 1_555
C37_4 N12_4 1_555 1_555
C42_4 C43_4 1_555 1_555
C47_4 C48_4 1_555 1_555
C47_4 N14_2 1_555 1_555
N10_4 N11_4 1_555 1_555
H28_4 C40_4 1_555 1_555
H10_4 C16_4 1_555 1_555
O1 Cl1 1_555 1_555
Cl1 O2 1_555 1_555
O3 Cl1_2 1_555 1_555
O4 Cl1_2 1_555 1_555
O1_2 Cl1_3 1_555 1_555
Cl1_3 O2_2 1_555 1_555
O3_2 Cl1_3 1_555 1_555
O4_2 Cl1_3 1_555 1_555
O1_3 Cl1_4 1_555 1_555
Cl1_4 O2_3 1_555 1_555
O3_3 Cl1_4 1_555 1_555
O4_3 Cl1_4 1_555 1_555
O1_4 Cl1_5 1_555 1_555
Cl1_5 O2_4 1_555 1_555
O3_4 Cl1_5 1_555 1_555
O4_4 Cl1_5 1_555 1_555
Cl2 O5 1_555 1_555
O6 Cl2 1_555 1_555
O7 Cl2 1_555 1_555
O8 Cl2 1_555 1_555
Cl2_2 O5_2 1_555 1_555
O6_2 Cl2_2 1_555 1_555
O7_2 Cl2_2 1_555 1_555
O8_2 Cl2_2 1_555 1_555
Cl2_3 O5_3 1_555 1_555
O6_3 Cl2_3 1_555 1_555
O7_3 Cl2_4 1_555 1_555
O8_3 Cl2_4 1_555 1_555
Cl2_5 O5_4 1_555 1_555
O6_4 Cl2_5 1_555 1_555
O7_4 Cl2_5 1_555 1_555
O8_4 Cl2_5 1_555 1_555

#END
