
###############################################################################
#
# This file contains modified crystal structure data generated from the
# MOF subset of the Cambridge Structural Database (CSD) v543 
# hosted by the Cambridge Crystallographic Data Centre (CCDC).
#
# This work is licensed under the Creative Commons
# Attribution-NonCommercial-ShareAlike 4.0 International License.
# To view a copy of this license, visit
# http://creativecommons.org/licenses/by-nc-sa/4.0/
# or send a letter to
# Creative Commons, PO Box 1866, Mountain View, CA 94042, USA.
#
# CIF created using the CSD Python API on 29 September 2022
# The structure has been converted into the P1 space group
# The structure has a 3D framework
# The original CSD entry OKITAE is in the orthorhombic crystal system
# The framework has been calculated to contain at least 10.0% void space
# The void calculation uses a probe of radius 1.32A, grid spacing 0.4
# H atom positions have been added when not included in the experimental data
#
###############################################################################

data_OKITAE
_chemical_formula_moiety         '(C8 H24 Cd7 N16 O24 S4)n'
_symmetry_cell_setting           triclinic
_symmetry_space_group_name_H-M   'P 1'
_symmetry_Int_Tables_number      1
_space_group_name_Hall           'P 1'
loop_
_symmetry_equiv_pos_site_id
_symmetry_equiv_pos_as_xyz
1 x,y,z
_cell_length_a                   9.6227(3)
_cell_length_b                   16.7625(5)
_cell_length_c                   7.1301(2)
_cell_angle_alpha                90
_cell_angle_beta                 90
_cell_angle_gamma                90
_cell_volume                     1150.09
loop_
_atom_site_label
_atom_site_type_symbol
_atom_site_fract_x
_atom_site_fract_y
_atom_site_fract_z
Cd4 Cd 0.21741(4) 0.15697(2) 0.2929(4)
Cd7 Cd 0.00048(19) 0.00024(11) 0.0424(5)
H1 H 0.702(7) 0.498(4) 0.267(19)
Cd1 Cd 0.71741(4) 0.34303(2) 0.2929(4)
Cd2 Cd 0.50048(19) 0.49976(11) 0.0424(5)
S1 S 0.85679(16) 0.15172(8) 0.2948(9)
O1 O 0.7407(4) 0.2084(2) 0.283(2)
O2 O 0.9889(5) 0.1952(2) 0.2760(17)
O3 O 0.8482(11) 0.0992(6) 0.4644(10)
O4 O 0.8475(12) 0.1029(7) 0.1292(13)
O5 O 0.6345(5) 0.4697(2) 0.3030(18)
O6 O 0.9486(5) 0.3631(3) 0.283(3)
Cd8 Cd 0.49952(19) 0.50024(11) 0.5424(5)
N5 N 0.3689(15) 0.5958(7) 0.1937(16)
N6 N 0.7215(14) 0.3505(9) 0.642(2)
O7 O 0.4889(5) 0.3048(2) 0.2760(17)
O9 O 0.3475(12) 0.3971(7) 0.1292(13)
H6 H 0.968258 0.415168 0.222108
H7 H 0.986386 0.363354 0.412595
C1 C 0.7741(7) 0.3176(4) 0.799(3)
C2 C 0.8813(8) 0.2540(4) 0.8091(17)
H2 H 0.9008 0.2418 0.9380
H3 H 0.9647 0.2720 0.7487
H4 H 0.8476 0.2070 0.7468
N1 N 0.7179(14) 0.3509(9) 0.9535(19)
N2 N 0.6319(17) 0.4079(7) 0.8757(16)
N3 N 0.6311(15) 0.4042(7) 0.6937(16)
H5 H 0.298(7) 0.502(4) 0.767(19)
O8 O 0.6518(11) 0.5992(6) 0.9644(10)
O10 O 0.3655(5) 0.5303(2) 0.8030(18)
Cd6 Cd 0.99952(19) 0.99976(11) 0.5424(5)
N6_2 N 0.2785(14) 0.6495(9) 0.142(2)
Cd1_2 Cd 0.28259(4) 0.65697(2) 0.7929(4)
S1_2 S 0.14321(16) 0.84828(8) 0.7948(9)
C1_2 C 0.2259(7) 0.6824(4) 0.299(3)
C2_2 C 0.1187(8) 0.7460(4) 0.3091(17)
H2_2 H 0.0992 0.7582 0.4380
H3_2 H 0.0353 0.7280 0.2487
H4_2 H 0.1524 0.7930 0.2468
N1_2 N 0.2821(14) 0.6491(9) 0.4535(19)
N2_2 N 0.3681(17) 0.5921(7) 0.3757(16)
O1_2 O 0.2593(4) 0.7916(2) 0.783(2)
O2_2 O 0.0111(5) 0.8048(2) 0.7760(17)
O3_2 O 0.1518(11) 0.9008(6) 0.9644(10)
O4_2 O 0.1525(12) 0.8971(7) 0.6292(13)
O6_2 O 0.0514(5) 0.6369(3) 0.783(3)
O7_2 O 0.5111(5) 0.6952(2) 0.7760(17)
O8_2 O 0.3482(11) 0.4008(6) 0.4644(10)
O9_2 O 0.6525(12) 0.6029(7) 0.6292(13)
H6_2 H 0.0317418 0.584832 0.722108
H7_2 H 0.013614 0.636646 0.912595
Cd4_2 Cd 0.78259(4) 0.84303(2) 0.7929(4)
H5_2 H 0.202(7) 0.002(4) 0.267(19)
N5_2 N 0.1311(15) 0.0958(7) 0.6937(16)
O10_2 O 0.1345(5) 0.0303(2) 0.3030(18)
N6_3 N 0.7785(14) 0.8505(9) 0.142(2)
H1_2 H 0.798(7) 0.998(4) 0.767(19)
S1_3 S 0.64321(16) 0.65172(8) 0.7948(9)
C1_3 C 0.7259(7) 0.8176(4) 0.299(3)
C2_3 C 0.6187(8) 0.7540(4) 0.3091(17)
H2_3 H 0.5992 0.7418 0.4380
H3_3 H 0.5353 0.7720 0.2487
H4_3 H 0.6524 0.7070 0.2468
N1_3 N 0.7821(14) 0.8509(9) 0.4535(19)
N2_3 N 0.8681(17) 0.9079(7) 0.3757(16)
N3_2 N 0.8689(15) 0.9042(7) 0.1937(16)
O1_3 O 0.7593(4) 0.7084(2) 0.783(2)
O5_2 O 0.8655(5) 0.9697(2) 0.8030(18)
O6_3 O 0.5514(5) 0.8631(3) 0.783(3)
H6_3 H 0.531742 0.915168 0.722108
H7_3 H 0.513614 0.863354 0.912595
S1_4 S 0.35679(16) 0.34828(8) 0.2948(9)
O1_4 O 0.2407(4) 0.2916(2) 0.283(2)
O6_4 O 0.4486(5) 0.1369(3) 0.283(3)
N6_4 N 0.2215(14) 0.1495(9) 0.642(2)
H6_4 H 0.468258 0.0848319 0.222108
H7_4 H 0.486386 0.136646 0.412595
C1_4 C 0.2741(7) 0.1824(4) 0.799(3)
C2_4 C 0.3813(8) 0.2460(4) 0.8091(17)
H2_4 H 0.4008 0.2582 0.9380
H3_4 H 0.4647 0.2280 0.7487
H4_4 H 0.3476 0.2930 0.7468
N1_4 N 0.2179(14) 0.1491(9) 0.9535(19)
N2_4 N 0.1319(17) 0.0921(7) 0.8757(16)
loop_
_geom_bond_atom_site_label_1
_geom_bond_atom_site_label_2
_geom_bond_site_symmetry_1
_geom_bond_site_symmetry_2
H1 O5 1_555 1_555
S1 O1 1_555 1_555
O1 Cd1 1_555 1_555
O2 S1 1_555 1_555
O3 S1 1_555 1_555
O4 S1 1_555 1_555
O5 Cd1 1_555 1_555
O6 Cd1 1_555 1_555
Cd8 O5 1_555 1_555
N5 Cd2 1_555 1_555
N6 Cd1 1_555 1_555
O7 Cd1 1_555 1_555
O9 Cd2 1_555 1_555
Cd2 O5 1_555 1_555
O6 H6 1_555 1_555
O6 H7 1_555 1_555
C1 C2 1_555 1_555
C2 H2 1_555 1_555
H3 C2 1_555 1_555
H4 C2 1_555 1_555
N1 C1 1_555 1_555
N2 N1 1_555 1_555
N3 N2 1_555 1_555
N6 C1 1_555 1_555
H5 O10 1_555 1_555
Cd8 N3 1_555 1_555
N3 N6 1_555 1_555
Cd8 O10 1_555 1_555
Cd1_2 N1_2 1_555 1_555
Cd8 N2_2 1_555 1_555
S1_2 O1_2 1_555 1_555
C1_2 C2_2 1_555 1_555
C2_2 H2_2 1_555 1_555
H3_2 C2_2 1_555 1_555
H4_2 C2_2 1_555 1_555
N1_2 C1_2 1_555 1_555
N2_2 N1_2 1_555 1_555
N5 N2_2 1_555 1_555
N6_2 C1_2 1_555 1_555
O1_2 Cd1_2 1_555 1_555
O2_2 S1_2 1_555 1_555
O3_2 S1_2 1_555 1_555
O4_2 S1_2 1_555 1_555
O10 Cd1_2 1_555 1_555
O6_2 Cd1_2 1_555 1_555
O7_2 Cd1_2 1_555 1_555
O8_2 Cd8 1_555 1_555
O9_2 Cd8 1_555 1_555
N5 N6_2 1_555 1_555
O6_2 H6_2 1_555 1_555
O6_2 H7_2 1_555 1_555
H5_2 O10_2 1_555 1_555
Cd7 O10_2 1_555 1_555
H1_2 O5_2 1_555 1_555
Cd4_2 N1_3 1_555 1_555
Cd6 N2_3 1_555 1_555
S1_3 O1_3 1_555 1_555
C1_3 C2_3 1_555 1_555
C2_3 H2_3 1_555 1_555
H3_3 C2_3 1_555 1_555
H4_3 C2_3 1_555 1_555
N1_3 C1_3 1_555 1_555
N2_3 N1_3 1_555 1_555
N3_2 N2_3 1_555 1_555
N6_3 C1_3 1_555 1_555
O1_3 Cd4_2 1_555 1_555
O7_2 S1_3 1_555 1_555
O8 S1_3 1_555 1_555
O9_2 S1_3 1_555 1_555
O5_2 Cd4_2 1_555 1_555
O6_3 Cd4_2 1_555 1_555
Cd6 O5_2 1_555 1_555
N3_2 N6_3 1_555 1_555
O6_3 H6_3 1_555 1_555
O6_3 H7_3 1_555 1_555
S1_4 O1_4 1_555 1_555
O1_4 Cd4 1_555 1_555
O7 S1_4 1_555 1_555
O8_2 S1_4 1_555 1_555
O9 S1_4 1_555 1_555
O10_2 Cd4 1_555 1_555
O6_4 Cd4 1_555 1_555
N6_4 Cd4 1_555 1_555
O6_4 H6_4 1_555 1_555
O6_4 H7_4 1_555 1_555
C1_4 C2_4 1_555 1_555
C2_4 H2_4 1_555 1_555
H3_4 C2_4 1_555 1_555
H4_4 C2_4 1_555 1_555
N1_4 C1_4 1_555 1_555
N2_4 N1_4 1_555 1_555
N5_2 N2_4 1_555 1_555
N6_4 C1_4 1_555 1_555
N5_2 N6_4 1_555 1_555

#END
