
###############################################################################
#
# This file contains modified crystal structure data generated from the
# MOF subset of the Cambridge Structural Database (CSD) v543 
# hosted by the Cambridge Crystallographic Data Centre (CCDC).
#
# This work is licensed under the Creative Commons
# Attribution-NonCommercial-ShareAlike 4.0 International License.
# To view a copy of this license, visit
# http://creativecommons.org/licenses/by-nc-sa/4.0/
# or send a letter to
# Creative Commons, PO Box 1866, Mountain View, CA 94042, USA.
#
# CIF created using the CSD Python API on 29 September 2022
# The structure has been converted into the P1 space group
# The structure has a 3D framework
# The original CSD entry OKIVIO02 is in the tetragonal crystal system
# The original CSD entry OKIVIO02 is in a Sohncke space group
# The framework has been calculated to contain at least 10.0% void space
# The void calculation uses a probe of radius 1.32A, grid spacing 0.4
# The framework is charged, counterions have been retained in the structure
#
###############################################################################

data_OKIVIO02
_chemical_formula_moiety         '(C192 H144 Cd3 Cl10 N48 O32 2-)n'
_symmetry_cell_setting           triclinic
_symmetry_space_group_name_H-M   'P 1'
_symmetry_Int_Tables_number      1
_space_group_name_Hall           'P 1'
loop_
_symmetry_equiv_pos_site_id
_symmetry_equiv_pos_as_xyz
1 x,y,z
_cell_length_a                   15.8271(9)
_cell_length_b                   15.8271(9)
_cell_length_c                   21.856(2)
_cell_angle_alpha                90
_cell_angle_beta                 90
_cell_angle_gamma                90
_cell_volume                     5474.86
loop_
_atom_site_label
_atom_site_type_symbol
_atom_site_fract_x
_atom_site_fract_y
_atom_site_fract_z
C15 C 0.0026(4) 0.1611(4) 0.4626(3)
H9 H 0.0425 0.1183 0.4595
C16 C 0.0135(4) 0.2267(4) 0.5043(4)
H10 H 0.0614 0.2280 0.5289
C25 C 0.3593(4) 0.4155(4) 0.1394(3)
H19 H 0.3880 0.4647 0.1499
C26 C 0.2983(4) 0.3866(3) 0.1782(3)
H20 H 0.2859 0.4166 0.2136
C27 C 0.2543(4) 0.3125(3) 0.1650(2)
C28 C 0.2824(4) 0.2688(4) 0.1139(3)
H21 H 0.2598 0.2159 0.1050
C29 C 0.3437(4) 0.3028(4) 0.0761(3)
H22 H 0.3601 0.2729 0.0415
C30 C 0.1822(3) 0.2813(3) 0.2023(2)
C31 C 0.1679(4) 0.3084(4) 0.2618(2)
H23 H 0.2042 0.3476 0.2796
C32 C 0.1007(4) 0.2777(5) 0.2943(3)
H24 H 0.0916 0.2970 0.3340
C33 C 0.0460(4) 0.2189(4) 0.2698(2)
H25 H 0.0006 0.1988 0.2925
C34 C 0.0601(3) 0.1900(4) 0.2101(2)
C35 C 0.1272(4) 0.2223(4) 0.1771(2)
H26 H 0.1358 0.2042 0.1371
C36 C 0.0041(3) 0.1275(3) 0.1805(2)
Cd3 Cd 0.44230(2) 0.44230(2) 0.0000
N9 N 0.3801(3) 0.3774(3) 0.0875(2)
N10 N 0.0061(3) 0.0460(3) 0.1850(2)
N14 N 0.1861(3) 0.0242(3) 0.2587(2)
Cd3_2 Cd 0.44230(2) 0.44230(2) 1.0000
Cd1 Cd 0.05770(2) 0.94230(2) 0.2500
N7 N 0.1226(3) 0.8801(3) 0.3375(2)
N8 N 0.1199(3) 0.8774(3) 0.1625(2)
C13 C 0.9232(3) 0.0910(3) 0.3817(2)
C14 C 0.9311(3) 0.1606(3) 0.4256(2)
C17 C 0.9540(4) 0.2893(4) 0.5094(3)
H11 H 0.9606 0.3317 0.5385
C18 C 0.8843(4) 0.2895(4) 0.4714(3)
C19 C 0.8736(4) 0.2242(3) 0.4300(3)
H12 H 0.8263 0.2238 0.4048
C20 C 0.8177(4) 0.3575(4) 0.4774(3)
C21 C 0.8075(4) 0.4032(4) 0.5305(3)
H13 H 0.8451 0.3960 0.5628
C22 C 0.7411(4) 0.4600(4) 0.5357(3)
H14 H 0.7348 0.4888 0.5725
C23 C 0.6983(4) 0.4328(4) 0.4389(3)
H15 H 0.6612 0.4427 0.4067
C24 C 0.7614(4) 0.3758(4) 0.4299(3)
H16 H 0.7670 0.3491 0.3922
N3 N 0.9867(3) 0.0549(3) 0.3544(2)
N4 N 0.8499(3) 0.0558(3) 0.36081(19)
N5 N 0.7684(4) 0.0730(3) 0.3826(3)
H17 H 0.7426 0.0244 0.3909
H18 H 0.7395 0.1007 0.3542
N6 N 0.6861(3) 0.4758(3) 0.4913(2)
C37 C 0.9090(3) 0.0768(3) 0.1183(2)
C38 C 0.8394(3) 0.0689(3) 0.0744(2)
C42 C 0.7105(4) 0.1157(4) 0.0286(3)
C43 C 0.7758(3) 0.1264(4) 0.0700(3)
H30 H 0.7762 0.1737 0.0952
C44 C 0.6425(4) 0.1823(4) 0.0226(3)
C47 C 0.5672(4) 0.3017(4) 0.0611(3)
H33 H 0.5573 0.3388 0.0933
C48 C 0.6242(4) 0.2386(4) 0.0701(3)
H34 H 0.6509 0.2330 0.1078
Cd4 Cd 0.55770(2) 0.55770(2) 0.5000
N11 N 0.9451(3) 0.0133(3) 0.1456(2)
N12 N 0.9442(3) 0.1501(3) 0.13919(19)
N13 N 0.9270(3) 0.2316(4) 0.1174(3)
H35 H 0.9756 0.2574 0.1091
H36 H 0.8993 0.2605 0.1458
N16 N 0.5242(3) 0.3139(3) 0.0087(2)
C41 C 0.7107(4) 0.0460(4) 0.9906(3)
H29 H 0.6683 0.0394 0.9615
C45 C 0.5968(4) 0.1925(4) 0.9695(3)
H31 H 0.6040 0.1549 0.9372
C46 C 0.5400(4) 0.2589(4) 0.9643(3)
H32 H 0.5112 0.2652 0.9275
C1 C 0.5845(4) 0.6407(4) 0.3606(3)
H1 H 0.5353 0.6120 0.3501
C2 C 0.6134(3) 0.7017(4) 0.3218(3)
H2 H 0.5834 0.7141 0.2864
C3 C 0.6875(3) 0.7457(4) 0.3350(2)
C4 C 0.7312(4) 0.7176(4) 0.3861(3)
H3 H 0.7841 0.7402 0.3950
C5 C 0.6972(4) 0.6563(4) 0.4239(3)
H4 H 0.7271 0.6399 0.4585
C6 C 0.7187(3) 0.8178(3) 0.2977(2)
C7 C 0.6916(4) 0.8321(4) 0.2382(2)
H5 H 0.6524 0.7958 0.2204
C8 C 0.7223(5) 0.8993(4) 0.2057(3)
H6 H 0.7030 0.9084 0.1660
C9 C 0.7811(4) 0.9540(4) 0.2302(2)
H7 H 0.8012 0.9994 0.2075
C10 C 0.8100(4) 0.9399(3) 0.2899(2)
C11 C 0.7777(4) 0.8728(4) 0.3229(2)
H8 H 0.7958 0.8642 0.3629
C12 C 0.8725(3) 0.9959(3) 0.3195(2)
N1 N 0.6226(3) 0.6199(3) 0.4125(2)
N2 N 0.9540(3) 0.9939(3) 0.3150(2)
C39 C 0.8389(4) 0.9974(4) 0.0374(3)
H27 H 0.8817 0.9575 0.0405
N15 N 0.9758(3) 0.8139(3) 0.2413(2)
C1_2 C 0.4155(4) 0.3593(4) 0.8606(3)
H1_2 H 0.4647 0.3880 0.8501
C2_2 C 0.3866(3) 0.2983(4) 0.8218(3)
H2_2 H 0.4166 0.2859 0.7864
C3_2 C 0.3125(3) 0.2543(4) 0.8350(2)
C4_2 C 0.2688(4) 0.2824(4) 0.8861(3)
H3_2 H 0.2159 0.2598 0.8950
C5_2 C 0.3028(4) 0.3437(4) 0.9239(3)
H4_2 H 0.2729 0.3601 0.9585
C6_2 C 0.2813(3) 0.1822(3) 0.7977(2)
C7_2 C 0.3084(4) 0.1679(4) 0.7382(2)
H5_2 H 0.3476 0.2042 0.7204
C8_2 C 0.2777(5) 0.1007(4) 0.7057(3)
H6_2 H 0.2970 0.0916 0.6660
C9_2 C 0.2189(4) 0.0460(4) 0.7302(2)
H7_2 H 0.1988 0.0006 0.7075
C10_2 C 0.1900(4) 0.0601(3) 0.7899(2)
C11_2 C 0.2223(4) 0.1272(4) 0.8229(2)
H8_2 H 0.2042 0.1358 0.8629
C12_2 C 0.1275(3) 0.0041(3) 0.8195(2)
N1_2 N 0.3774(3) 0.3801(3) 0.9125(2)
N2_2 N 0.0460(3) 0.0061(3) 0.8150(2)
C39_2 C 0.1611(4) 0.0026(4) 0.5374(3)
H27_2 H 0.1183 0.0425 0.5405
C40 C 0.2267(4) 0.0135(4) 0.4957(4)
H28 H 0.2280 0.0614 0.4711
N15_2 N 0.0242(3) 0.1861(3) 0.7413(2)
C17_2 C 0.0460(4) 0.7107(4) 0.0094(3)
H11_2 H 0.0394 0.6683 0.0385
C21_2 C 0.1925(4) 0.5968(4) 0.0305(3)
H13_2 H 0.1549 0.6040 0.0628
C22_2 C 0.2589(4) 0.5400(4) 0.0357(3)
H14_2 H 0.2652 0.5112 0.0725
C13_2 C 0.0768(3) 0.9090(3) 0.8817(2)
C14_2 C 0.0689(3) 0.8394(3) 0.9256(2)
C18_2 C 0.1157(4) 0.7105(4) 0.9714(3)
C19_2 C 0.1264(4) 0.7758(3) 0.9300(3)
H12_2 H 0.1737 0.7762 0.9048
C20_2 C 0.1823(4) 0.6425(4) 0.9774(3)
C23_2 C 0.3017(4) 0.5672(4) 0.9389(3)
H15_2 H 0.3388 0.5573 0.9067
C24_2 C 0.2386(4) 0.6242(4) 0.9299(3)
H16_2 H 0.2330 0.6509 0.8922
N3_2 N 0.0133(3) 0.9451(3) 0.8544(2)
N4_2 N 0.1501(3) 0.9442(3) 0.86081(19)
N5_2 N 0.2316(4) 0.9270(3) 0.8826(3)
H17_2 H 0.2574 0.9756 0.8909
H18_2 H 0.2605 0.8993 0.8542
N6_2 N 0.3139(3) 0.5242(3) 0.9913(2)
C37_2 C 0.0910(3) 0.9232(3) 0.6183(2)
C38_2 C 0.1606(3) 0.9311(3) 0.5744(2)
C41_2 C 0.2893(4) 0.9540(4) 0.4906(3)
H29_2 H 0.3317 0.9606 0.4615
C42_2 C 0.2895(4) 0.8843(4) 0.5286(3)
C43_2 C 0.2242(3) 0.8736(4) 0.5700(3)
H30_2 H 0.2238 0.8263 0.5952
C44_2 C 0.3575(4) 0.8177(4) 0.5226(3)
C45_2 C 0.4032(4) 0.8075(4) 0.4695(3)
H31_2 H 0.3960 0.8451 0.4372
C46_2 C 0.4600(4) 0.7411(4) 0.4643(3)
H32_2 H 0.4888 0.7348 0.4275
C47_2 C 0.4328(4) 0.6983(4) 0.5611(3)
H33_2 H 0.4427 0.6612 0.5933
C48_2 C 0.3758(4) 0.7614(4) 0.5701(3)
H34_2 H 0.3491 0.7670 0.6078
N11_2 N 0.0549(3) 0.9867(3) 0.6456(2)
N12_2 N 0.0558(3) 0.8499(3) 0.63919(19)
N13_2 N 0.0730(3) 0.7684(4) 0.6174(3)
H35_2 H 0.0244 0.7426 0.6091
H36_2 H 0.1007 0.7395 0.6458
N16_2 N 0.4758(3) 0.6861(3) 0.5087(2)
Cd1_2 Cd 0.94230(2) 0.05770(2) 0.7500
N7_2 N 0.8774(3) 0.1199(3) 0.8375(2)
N8_2 N 0.8801(3) 0.1226(3) 0.6625(2)
C15_2 C 0.9974(4) 0.8389(4) 0.9626(3)
H9_2 H 0.9575 0.8817 0.9595
C25_2 C 0.6407(4) 0.5845(4) 0.6394(3)
H19_2 H 0.6120 0.5353 0.6499
C26_2 C 0.7017(4) 0.6134(3) 0.6782(3)
H20_2 H 0.7141 0.5834 0.7136
C27_2 C 0.7457(4) 0.6875(3) 0.6650(2)
C28_2 C 0.7176(4) 0.7312(4) 0.6139(3)
H21_2 H 0.7402 0.7841 0.6050
C29_2 C 0.6563(4) 0.6972(4) 0.5761(3)
H22_2 H 0.6399 0.7271 0.5415
C30_2 C 0.8178(3) 0.7187(3) 0.7023(2)
C31_2 C 0.8321(4) 0.6916(4) 0.7618(2)
H23_2 H 0.7958 0.6524 0.7796
C32_2 C 0.8993(4) 0.7223(5) 0.7943(3)
H24_2 H 0.9084 0.7030 0.8340
C33_2 C 0.9540(4) 0.7811(4) 0.7698(2)
H25_2 H 0.9994 0.8012 0.7925
C34_2 C 0.9399(3) 0.8100(4) 0.7101(2)
C35_2 C 0.8728(4) 0.7777(4) 0.6771(2)
H26_2 H 0.8642 0.7958 0.6371
C36_2 C 0.9959(3) 0.8725(3) 0.6805(2)
N9_2 N 0.6199(3) 0.6226(3) 0.5875(2)
N10_2 N 0.9939(3) 0.9540(3) 0.6850(2)
N14_2 N 0.8139(3) 0.9758(3) 0.7587(2)
C1_3 C 0.8593(4) 0.0845(4) 0.6106(3)
H1_3 H 0.8880 0.0353 0.6001
C2_3 C 0.7983(4) 0.1134(3) 0.5718(3)
H2_3 H 0.7859 0.0834 0.5364
C3_3 C 0.7543(4) 0.1875(3) 0.5850(2)
C4_3 C 0.7824(4) 0.2312(4) 0.6361(3)
H3_3 H 0.7598 0.2841 0.6450
C5_3 C 0.8437(4) 0.1972(4) 0.6739(3)
H4_3 H 0.8601 0.2271 0.7085
C6_3 C 0.6822(3) 0.2187(3) 0.5477(2)
C7_3 C 0.6679(4) 0.1916(4) 0.4882(2)
H5_3 H 0.7042 0.1524 0.4704
C8_3 C 0.6007(4) 0.2223(5) 0.4557(3)
H6_3 H 0.5916 0.2030 0.4160
C9_3 C 0.5460(4) 0.2811(4) 0.4802(2)
H7_3 H 0.5006 0.3012 0.4575
C10_3 C 0.5601(3) 0.3100(4) 0.5399(2)
C11_3 C 0.6272(4) 0.2777(4) 0.5729(2)
H8_3 H 0.6358 0.2958 0.6129
C12_3 C 0.5041(3) 0.3725(3) 0.5695(2)
C13_3 C 0.4090(3) 0.4232(3) 0.6317(2)
C14_3 C 0.3394(3) 0.4311(3) 0.6756(2)
C15_3 C 0.3389(4) 0.5026(4) 0.7126(3)
H9_3 H 0.3817 0.5425 0.7095
C16_2 C 0.2733(4) 0.5135(4) 0.7543(4)
H10_2 H 0.2720 0.5614 0.7789
C17_3 C 0.2107(4) 0.4540(4) 0.7594(3)
H11_3 H 0.1683 0.4606 0.7885
C18_3 C 0.2105(4) 0.3843(4) 0.7214(3)
C19_3 C 0.2758(3) 0.3736(4) 0.6800(3)
H12_3 H 0.2762 0.3263 0.6548
C20_3 C 0.1425(4) 0.3177(4) 0.7274(3)
C21_3 C 0.0968(4) 0.3075(4) 0.7805(3)
H13_3 H 0.1040 0.3451 0.8128
C22_3 C 0.0400(4) 0.2411(4) 0.7857(3)
H14_3 H 0.0112 0.2348 0.8225
C23_3 C 0.0672(4) 0.1983(4) 0.6889(3)
H15_3 H 0.0573 0.1612 0.6567
C24_3 C 0.1242(4) 0.2614(4) 0.6799(3)
H16_3 H 0.1509 0.2670 0.6422
N2_3 N 0.5061(3) 0.4540(3) 0.5650(2)
N3_3 N 0.4451(3) 0.4867(3) 0.6044(2)
N4_3 N 0.4442(3) 0.3499(3) 0.61081(19)
N5_3 N 0.4270(3) 0.2684(4) 0.6326(3)
H17_3 H 0.4756 0.2426 0.6409
H18_3 H 0.3993 0.2395 0.6042
C25_3 C 0.0845(4) 0.8593(4) 0.3894(3)
H19_3 H 0.0353 0.8880 0.3999
C26_3 C 0.1134(3) 0.7983(4) 0.4282(3)
H20_3 H 0.0834 0.7859 0.4636
C27_3 C 0.1875(3) 0.7543(4) 0.4150(2)
C28_3 C 0.2312(4) 0.7824(4) 0.3639(3)
H21_3 H 0.2841 0.7598 0.3550
C29_3 C 0.1972(4) 0.8437(4) 0.3261(3)
H22_3 H 0.2271 0.8601 0.2915
C30_3 C 0.2187(3) 0.6822(3) 0.4523(2)
C31_3 C 0.1916(4) 0.6679(4) 0.5118(2)
H23_3 H 0.1524 0.7042 0.5296
C32_3 C 0.2223(5) 0.6007(4) 0.5443(3)
H24_3 H 0.2030 0.5916 0.5840
C33_3 C 0.2811(4) 0.5460(4) 0.5198(2)
H25_3 H 0.3012 0.5006 0.5425
C34_3 C 0.3100(4) 0.5601(3) 0.4601(2)
C35_3 C 0.2777(4) 0.6272(4) 0.4271(2)
H26_3 H 0.2958 0.6358 0.3871
C36_3 C 0.3725(3) 0.5041(3) 0.4305(2)
C37_3 C 0.4232(3) 0.4090(3) 0.3683(2)
C38_3 C 0.4311(3) 0.3394(3) 0.3244(2)
C39_3 C 0.5026(4) 0.3389(4) 0.2874(3)
H27_3 H 0.5425 0.3817 0.2905
C40_2 C 0.5135(4) 0.2733(4) 0.2457(4)
H28_2 H 0.5614 0.2720 0.2211
C41_3 C 0.4540(4) 0.2107(4) 0.2406(3)
H29_3 H 0.4606 0.1683 0.2115
C42_3 C 0.3843(4) 0.2105(4) 0.2786(3)
C43_3 C 0.3736(4) 0.2758(3) 0.3200(3)
H30_3 H 0.3263 0.2762 0.3452
C44_3 C 0.3177(4) 0.1425(4) 0.2726(3)
C45_3 C 0.3075(4) 0.0968(4) 0.2195(3)
H31_3 H 0.3451 0.1040 0.1872
C46_3 C 0.2411(4) 0.0400(4) 0.2143(3)
H32_3 H 0.2348 0.0112 0.1775
C47_3 C 0.1983(4) 0.0672(4) 0.3111(3)
H33_3 H 0.1612 0.0573 0.3433
C48_3 C 0.2614(4) 0.1242(4) 0.3201(3)
H34_3 H 0.2670 0.1509 0.3578
N10_3 N 0.4540(3) 0.5061(3) 0.4350(2)
N11_3 N 0.4867(3) 0.4451(3) 0.3956(2)
N12_3 N 0.3499(3) 0.4442(3) 0.38919(19)
N13_3 N 0.2684(4) 0.4270(3) 0.3674(3)
H35_3 H 0.2426 0.4756 0.3591
H36_3 H 0.2395 0.3993 0.3958
C1_4 C 0.1407(4) 0.9155(4) 0.1106(3)
H1_4 H 0.1120 0.9647 0.1001
C2_4 C 0.2017(4) 0.8866(3) 0.0718(3)
H2_4 H 0.2141 0.9166 0.0364
C3_4 C 0.2457(4) 0.8125(3) 0.0850(2)
C4_4 C 0.2176(4) 0.7688(4) 0.1361(3)
H3_4 H 0.2402 0.7159 0.1450
C5_4 C 0.1563(4) 0.8028(4) 0.1739(3)
H4_4 H 0.1399 0.7729 0.2085
C6_4 C 0.3178(3) 0.7813(3) 0.0477(2)
C10_4 C 0.4399(3) 0.6900(4) 0.0399(2)
C11_4 C 0.3728(4) 0.7223(4) 0.0729(2)
H8_4 H 0.3642 0.7042 0.1129
C12_4 C 0.4959(3) 0.6275(3) 0.0695(2)
C13_4 C 0.5910(3) 0.5768(3) 0.1317(2)
C14_4 C 0.6606(3) 0.5689(3) 0.1756(2)
C15_4 C 0.6611(4) 0.4974(4) 0.2126(3)
H9_4 H 0.6183 0.4575 0.2095
C16_3 C 0.7267(4) 0.4865(4) 0.2543(4)
H10_3 H 0.7280 0.4386 0.2789
C17_4 C 0.7893(4) 0.5460(4) 0.2594(3)
H11_4 H 0.8317 0.5394 0.2885
C18_4 C 0.7895(4) 0.6157(4) 0.2214(3)
C19_4 C 0.7242(3) 0.6264(4) 0.1800(3)
H12_4 H 0.7238 0.6737 0.1548
C20_4 C 0.8575(4) 0.6823(4) 0.2274(3)
C21_4 C 0.9032(4) 0.6925(4) 0.2805(3)
H13_4 H 0.8960 0.6549 0.3128
C22_4 C 0.9600(4) 0.7589(4) 0.2857(3)
H14_4 H 0.9888 0.7652 0.3225
C23_4 C 0.9328(4) 0.8017(4) 0.1889(3)
H15_4 H 0.9427 0.8388 0.1567
C24_4 C 0.8758(4) 0.7386(4) 0.1799(3)
H16_4 H 0.8491 0.7330 0.1422
N2_4 N 0.4939(3) 0.5460(3) 0.0650(2)
N3_4 N 0.5549(3) 0.5133(3) 0.1044(2)
N4_4 N 0.5558(3) 0.6501(3) 0.11081(19)
N5_4 N 0.5730(3) 0.7316(4) 0.1326(3)
H17_4 H 0.5244 0.7574 0.1409
H18_4 H 0.6007 0.7605 0.1042
C31_4 C 0.8084(4) 0.3321(4) 0.0118(2)
H23_4 H 0.8476 0.2958 0.0296
C32_4 C 0.7777(5) 0.3993(4) 0.0443(3)
H24_4 H 0.7970 0.4084 0.0840
C33_4 C 0.7189(4) 0.4540(4) 0.0198(2)
H25_4 H 0.6988 0.4994 0.0425
C7_4 C 0.3321(4) 0.8084(4) 0.9882(2)
H5_4 H 0.2958 0.8476 0.9704
C8_4 C 0.3993(4) 0.7777(5) 0.9557(3)
H6_4 H 0.4084 0.7970 0.9160
C9_4 C 0.4540(4) 0.7189(4) 0.9802(2)
H7_4 H 0.4994 0.6988 0.9575
C25_4 C 0.9155(4) 0.1407(4) 0.8894(3)
H19_4 H 0.9647 0.1120 0.8999
C26_4 C 0.8866(3) 0.2017(4) 0.9282(3)
H20_4 H 0.9166 0.2141 0.9636
C27_4 C 0.8125(3) 0.2457(4) 0.9150(2)
C28_4 C 0.7688(4) 0.2176(4) 0.8639(3)
H21_4 H 0.7159 0.2402 0.8550
C29_4 C 0.8028(4) 0.1563(4) 0.8261(3)
H22_4 H 0.7729 0.1399 0.7915
C30_4 C 0.7813(3) 0.3178(3) 0.9523(2)
C34_4 C 0.6900(4) 0.4399(3) 0.9601(2)
C35_4 C 0.7223(4) 0.3728(4) 0.9271(2)
H26_4 H 0.7042 0.3642 0.8871
C36_4 C 0.6275(3) 0.4959(3) 0.9305(2)
C37_4 C 0.5768(3) 0.5910(3) 0.8683(2)
C38_4 C 0.5689(3) 0.6606(3) 0.8244(2)
C39_4 C 0.4974(4) 0.6611(4) 0.7874(3)
H27_4 H 0.4575 0.6183 0.7905
C40_3 C 0.4865(4) 0.7267(4) 0.7457(4)
H28_3 H 0.4386 0.7280 0.7211
C41_4 C 0.5460(4) 0.7893(4) 0.7406(3)
H29_4 H 0.5394 0.8317 0.7115
C42_4 C 0.6157(4) 0.7895(4) 0.7786(3)
C43_4 C 0.6264(4) 0.7242(3) 0.8200(3)
H30_4 H 0.6737 0.7238 0.8452
C44_4 C 0.6823(4) 0.8575(4) 0.7726(3)
C45_4 C 0.6925(4) 0.9032(4) 0.7195(3)
H31_4 H 0.6549 0.8960 0.6872
C46_4 C 0.7589(4) 0.9600(4) 0.7143(3)
H32_4 H 0.7652 0.9888 0.6775
C47_4 C 0.8017(4) 0.9328(4) 0.8111(3)
H33_4 H 0.8388 0.9427 0.8433
C48_4 C 0.7386(4) 0.8758(4) 0.8201(3)
H34_4 H 0.7330 0.8491 0.8578
N10_4 N 0.5460(3) 0.4939(3) 0.9350(2)
N11_4 N 0.5133(3) 0.5549(3) 0.8956(2)
N12_4 N 0.6501(3) 0.5558(3) 0.88919(19)
N13_4 N 0.7316(4) 0.5730(3) 0.8674(3)
H35_4 H 0.7574 0.5244 0.8591
H36_4 H 0.7605 0.6007 0.8958
C40_4 C 0.7733(4) 0.9865(4) 0.9957(4)
H28_4 H 0.7720 0.9386 0.9711
C16_4 C 0.9865(4) 0.7733(4) 0.0043(4)
H10_4 H 0.9386 0.7720 0.0289
Cl1 Cl 0.12094(13) 0.12094(13) 0.0000
O1 O 0.1773(9) 0.1140(12) 0.0437(8)
O2 O 0.0553(9) 0.1356(15) 0.0322(5)
Cl1_2 Cl 0.12094(13) 0.12094(13) 1.0000
O3 O 0.1140(12) 0.1773(9) 0.9563(8)
O4 O 0.1356(15) 0.0553(9) 0.9678(5)
Cl1_3 Cl 0.87906(13) 0.87906(13) 0.5000
O1_2 O 0.8227(9) 0.8860(12) 0.5437(8)
O2_2 O 0.9447(9) 0.8644(15) 0.5322(5)
O3_2 O 0.8860(12) 0.8227(9) 0.4563(8)
O4_2 O 0.8644(15) 0.9447(9) 0.4678(5)
Cl1_4 Cl 0.37906(13) 0.62094(13) 0.2500
O1_3 O 0.3860(12) 0.6773(9) 0.2937(8)
O2_3 O 0.3644(15) 0.5553(9) 0.2822(5)
O3_3 O 0.3227(9) 0.6140(12) 0.2063(8)
O4_3 O 0.4447(9) 0.6356(15) 0.2178(5)
Cl1_5 Cl 0.62094(13) 0.37906(13) 0.7500
O1_4 O 0.6140(12) 0.3227(9) 0.7937(8)
O2_4 O 0.6356(15) 0.4447(9) 0.7822(5)
O3_4 O 0.6773(9) 0.3860(12) 0.7063(8)
O4_4 O 0.5553(9) 0.3644(15) 0.7178(5)
Cl2 Cl 0.73119(11) 0.73119(11) 0.0000
O5 O 0.7669(7) 0.7628(8) 0.0499(3)
O8 O 0.6675(13) 0.7882(12) 0.002(2)
Cl2_2 Cl 0.73119(11) 0.73119(11) 1.0000
O6 O 0.7882(12) 0.6675(13) 0.998(2)
O7 O 0.7628(8) 0.7669(7) 0.9501(3)
Cl2_3 Cl 0.26881(11) 0.26881(11) 0.5000
O5_2 O 0.2331(7) 0.2372(8) 0.5499(3)
O6_2 O 0.2118(12) 0.3325(13) 0.498(2)
O7_2 O 0.2372(8) 0.2331(7) 0.4501(3)
O8_2 O 0.3325(13) 0.2118(12) 0.502(2)
Cl2_4 Cl 0.76881(11) 0.23119(11) 0.2500
O5_3 O 0.7372(8) 0.2669(7) 0.2999(3)
O6_3 O 0.8325(13) 0.2882(12) 0.248(2)
O7_3 O 0.7331(7) 0.2628(8) 0.2001(3)
O8_3 O 0.7118(12) 0.1675(13) 0.252(2)
Cl2_5 Cl 0.23119(11) 0.76881(11) 0.7500
O5_4 O 0.2628(8) 0.7331(7) 0.7999(3)
O6_4 O 0.1675(13) 0.7118(12) 0.748(2)
O7_4 O 0.2669(7) 0.7372(8) 0.7001(3)
O8_4 O 0.2882(12) 0.8325(13) 0.752(2)
loop_
_geom_bond_atom_site_label_1
_geom_bond_atom_site_label_2
_geom_bond_site_symmetry_1
_geom_bond_site_symmetry_2
C15 H9 1_555 1_555
C16 C15 1_555 1_555
H10 C16 1_555 1_555
C25 H19 1_555 1_555
C26 C25 1_555 1_555
H20 C26 1_555 1_555
C27 C26 1_555 1_555
C28 C27 1_555 1_555
H21 C28 1_555 1_555
C29 C28 1_555 1_555
H22 C29 1_555 1_555
C30 C27 1_555 1_555
C31 C30 1_555 1_555
H23 C31 1_555 1_555
C32 C31 1_555 1_555
H24 C32 1_555 1_555
C33 C32 1_555 1_555
H25 C33 1_555 1_555
C34 C33 1_555 1_555
C35 C30 1_555 1_555
H26 C35 1_555 1_555
C36 C34 1_555 1_555
Cd3 N9 1_555 1_555
N9 C25 1_555 1_555
C29 N9 1_555 1_555
C34 C35 1_555 1_555
C36 N10 1_555 1_555
N7 Cd1 1_555 1_555
N8 Cd1 1_555 1_555
C13 C14 1_555 1_555
H11 C17 1_555 1_555
C18 C17 1_555 1_555
C19 C14 1_555 1_555
H12 C19 1_555 1_555
C20 C18 1_555 1_555
C21 C20 1_555 1_555
H13 C21 1_555 1_555
C22 C21 1_555 1_555
H14 C22 1_555 1_555
C23 H15 1_555 1_555
C24 C20 1_555 1_555
H16 C24 1_555 1_555
N3 C13 1_555 1_555
N5 N4 1_555 1_555
H17 N5 1_555 1_555
H18 N5 1_555 1_555
N6 C22 1_555 1_555
C37 C38 1_555 1_555
C43 C38 1_555 1_555
H30 C43 1_555 1_555
C44 C42 1_555 1_555
C47 H33 1_555 1_555
C48 C44 1_555 1_555
H34 C48 1_555 1_555
Cd4 N6 1_555 1_555
Cd3 N16 1_555 1_555
N11 C37 1_555 1_555
N13 N12 1_555 1_555
H35 N13 1_555 1_555
H36 N13 1_555 1_555
C13 N4 1_555 1_555
C18 C19 1_555 1_555
C23 C24 1_555 1_555
C23 N6 1_555 1_555
C37 N12 1_555 1_555
C42 C43 1_555 1_555
C47 C48 1_555 1_555
C47 N16 1_555 1_555
H29 C41 1_555 1_555
H31 C45 1_555 1_555
C46 C45 1_555 1_555
H32 C46 1_555 1_555
C1 H1 1_555 1_555
C2 C1 1_555 1_555
H2 C2 1_555 1_555
C3 C2 1_555 1_555
C4 C3 1_555 1_555
H3 C4 1_555 1_555
C5 C4 1_555 1_555
H4 C5 1_555 1_555
C6 C3 1_555 1_555
C7 C6 1_555 1_555
H5 C7 1_555 1_555
C8 C7 1_555 1_555
H6 C8 1_555 1_555
C9 C8 1_555 1_555
H7 C9 1_555 1_555
C10 C9 1_555 1_555
C11 C6 1_555 1_555
H8 C11 1_555 1_555
C12 C10 1_555 1_555
N1 C1 1_555 1_555
N2 C12 1_555 1_555
C39 H27 1_555 1_555
Cd4 N1 1_555 1_555
C5 N1 1_555 1_555
C10 C11 1_555 1_555
C1_2 H1_2 1_555 1_555
C2_2 C1_2 1_555 1_555
H2_2 C2_2 1_555 1_555
C3_2 C2_2 1_555 1_555
C4_2 C3_2 1_555 1_555
H3_2 C4_2 1_555 1_555
C5_2 C4_2 1_555 1_555
H4_2 C5_2 1_555 1_555
C6_2 C3_2 1_555 1_555
C7_2 C6_2 1_555 1_555
H5_2 C7_2 1_555 1_555
C8_2 C7_2 1_555 1_555
H6_2 C8_2 1_555 1_555
C9_2 C8_2 1_555 1_555
H7_2 C9_2 1_555 1_555
C10_2 C9_2 1_555 1_555
C11_2 C6_2 1_555 1_555
H8_2 C11_2 1_555 1_555
C12_2 C10_2 1_555 1_555
N1_2 C1_2 1_555 1_555
N2_2 C12_2 1_555 1_555
C39_2 H27_2 1_555 1_555
C40 C39_2 1_555 1_555
H28 C40 1_555 1_555
Cd3_2 N1_2 1_555 1_555
C5_2 N1_2 1_555 1_555
C10_2 C11_2 1_555 1_555
H11_2 C17_2 1_555 1_555
H13_2 C21_2 1_555 1_555
C22_2 C21_2 1_555 1_555
H14_2 C22_2 1_555 1_555
C13_2 C14_2 1_555 1_555
C19_2 C14_2 1_555 1_555
H12_2 C19_2 1_555 1_555
C20_2 C18_2 1_555 1_555
C23_2 H15_2 1_555 1_555
C24_2 C20_2 1_555 1_555
H16_2 C24_2 1_555 1_555
N3_2 C13_2 1_555 1_555
N5_2 N4_2 1_555 1_555
H17_2 N5_2 1_555 1_555
H18_2 N5_2 1_555 1_555
C37_2 C38_2 1_555 1_555
H29_2 C41_2 1_555 1_555
C42_2 C41_2 1_555 1_555
C43_2 C38_2 1_555 1_555
H30_2 C43_2 1_555 1_555
C44_2 C42_2 1_555 1_555
C45_2 C44_2 1_555 1_555
H31_2 C45_2 1_555 1_555
C46_2 C45_2 1_555 1_555
H32_2 C46_2 1_555 1_555
C47_2 H33_2 1_555 1_555
C48_2 C44_2 1_555 1_555
H34_2 C48_2 1_555 1_555
Cd3_2 N6_2 1_555 1_555
Cd4 N16_2 1_555 1_555
N11_2 C37_2 1_555 1_555
N13_2 N12_2 1_555 1_555
H35_2 N13_2 1_555 1_555
H36_2 N13_2 1_555 1_555
N16_2 C46_2 1_555 1_555
C13_2 N4_2 1_555 1_555
C18_2 C19_2 1_555 1_555
C23_2 C24_2 1_555 1_555
C23_2 N6_2 1_555 1_555
C37_2 N12_2 1_555 1_555
C42_2 C43_2 1_555 1_555
C47_2 C48_2 1_555 1_555
C47_2 N16_2 1_555 1_555
N7_2 Cd1_2 1_555 1_555
N8_2 Cd1_2 1_555 1_555
C15_2 H9_2 1_555 1_555
C25_2 H19_2 1_555 1_555
C26_2 C25_2 1_555 1_555
H20_2 C26_2 1_555 1_555
C27_2 C26_2 1_555 1_555
C28_2 C27_2 1_555 1_555
H21_2 C28_2 1_555 1_555
C29_2 C28_2 1_555 1_555
H22_2 C29_2 1_555 1_555
C30_2 C27_2 1_555 1_555
C31_2 C30_2 1_555 1_555
H23_2 C31_2 1_555 1_555
C32_2 C31_2 1_555 1_555
H24_2 C32_2 1_555 1_555
C33_2 C32_2 1_555 1_555
H25_2 C33_2 1_555 1_555
C34_2 C33_2 1_555 1_555
C35_2 C30_2 1_555 1_555
H26_2 C35_2 1_555 1_555
C36_2 C34_2 1_555 1_555
Cd4 N9_2 1_555 1_555
N9_2 C25_2 1_555 1_555
C29_2 N9_2 1_555 1_555
C34_2 C35_2 1_555 1_555
C36_2 N10_2 1_555 1_555
C1_3 H1_3 1_555 1_555
C2_3 C1_3 1_555 1_555
H2_3 C2_3 1_555 1_555
C3_3 C2_3 1_555 1_555
C4_3 C3_3 1_555 1_555
H3_3 C4_3 1_555 1_555
C5_3 C4_3 1_555 1_555
H4_3 C5_3 1_555 1_555
C6_3 C3_3 1_555 1_555
C7_3 C6_3 1_555 1_555
H5_3 C7_3 1_555 1_555
C8_3 C7_3 1_555 1_555
H6_3 C8_3 1_555 1_555
C9_3 C8_3 1_555 1_555
H7_3 C9_3 1_555 1_555
C10_3 C9_3 1_555 1_555
C11_3 C6_3 1_555 1_555
H8_3 C11_3 1_555 1_555
C12_3 C10_3 1_555 1_555
C13_3 C14_3 1_555 1_555
C14_3 C15_3 1_555 1_555
C15_3 H9_3 1_555 1_555
C16_2 C15_3 1_555 1_555
H10_2 C16_2 1_555 1_555
C17_3 C16_2 1_555 1_555
H11_3 C17_3 1_555 1_555
C18_3 C17_3 1_555 1_555
C19_3 C14_3 1_555 1_555
H12_3 C19_3 1_555 1_555
C20_3 C18_3 1_555 1_555
C21_3 C20_3 1_555 1_555
H13_3 C21_3 1_555 1_555
C22_3 C21_3 1_555 1_555
H14_3 C22_3 1_555 1_555
C23_3 H15_3 1_555 1_555
C24_3 C20_3 1_555 1_555
H16_3 C24_3 1_555 1_555
Cd4 N2_3 1_555 1_555
N8_2 C1_3 1_555 1_555
N2_3 C12_3 1_555 1_555
N3_3 C13_3 1_555 1_555
N4_3 C12_3 1_555 1_555
N5_3 N4_3 1_555 1_555
H17_3 N5_3 1_555 1_555
H18_3 N5_3 1_555 1_555
N15_2 C22_3 1_555 1_555
C25_3 H19_3 1_555 1_555
C26_3 C25_3 1_555 1_555
H20_3 C26_3 1_555 1_555
C27_3 C26_3 1_555 1_555
C28_3 C27_3 1_555 1_555
H21_3 C28_3 1_555 1_555
C29_3 C28_3 1_555 1_555
H22_3 C29_3 1_555 1_555
C30_3 C27_3 1_555 1_555
C31_3 C30_3 1_555 1_555
H23_3 C31_3 1_555 1_555
C32_3 C31_3 1_555 1_555
H24_3 C32_3 1_555 1_555
C33_3 C32_3 1_555 1_555
H25_3 C33_3 1_555 1_555
C34_3 C33_3 1_555 1_555
C35_3 C30_3 1_555 1_555
H26_3 C35_3 1_555 1_555
C36_3 C34_3 1_555 1_555
C37_3 C38_3 1_555 1_555
C38_3 C39_3 1_555 1_555
C39_3 H27_3 1_555 1_555
C40_2 C39_3 1_555 1_555
H28_2 C40_2 1_555 1_555
C41_3 C40_2 1_555 1_555
H29_3 C41_3 1_555 1_555
C42_3 C41_3 1_555 1_555
C43_3 C38_3 1_555 1_555
H30_3 C43_3 1_555 1_555
C44_3 C42_3 1_555 1_555
C45_3 C44_3 1_555 1_555
H31_3 C45_3 1_555 1_555
C46_3 C45_3 1_555 1_555
H32_3 C46_3 1_555 1_555
C47_3 H33_3 1_555 1_555
C48_3 C44_3 1_555 1_555
H34_3 C48_3 1_555 1_555
N7 C25_3 1_555 1_555
N10_3 Cd4 1_555 1_555
N11_3 C37_3 1_555 1_555
N12_3 C36_3 1_555 1_555
N13_3 N12_3 1_555 1_555
H35_3 N13_3 1_555 1_555
H36_3 N13_3 1_555 1_555
N14 C46_3 1_555 1_555
C5_3 N8_2 1_555 1_555
C10_3 C11_3 1_555 1_555
C13_3 N4_3 1_555 1_555
C18_3 C19_3 1_555 1_555
C23_3 C24_3 1_555 1_555
C23_3 N15_2 1_555 1_555
N2_3 N3_3 1_555 1_555
C29_3 N7 1_555 1_555
C34_3 C35_3 1_555 1_555
C36_3 N10_3 1_555 1_555
C37_3 N12_3 1_555 1_555
C42_3 C43_3 1_555 1_555
C47_3 C48_3 1_555 1_555
C47_3 N14 1_555 1_555
N10_3 N11_3 1_555 1_555
C1_4 H1_4 1_555 1_555
C2_4 C1_4 1_555 1_555
H2_4 C2_4 1_555 1_555
C3_4 C2_4 1_555 1_555
C4_4 C3_4 1_555 1_555
H3_4 C4_4 1_555 1_555
C5_4 C4_4 1_555 1_555
H4_4 C5_4 1_555 1_555
C6_4 C3_4 1_555 1_555
C11_4 C6_4 1_555 1_555
H8_4 C11_4 1_555 1_555
C12_4 C10_4 1_555 1_555
C13_4 C14_4 1_555 1_555
C14_4 C15_4 1_555 1_555
C15_4 H9_4 1_555 1_555
C16_3 C15_4 1_555 1_555
H10_3 C16_3 1_555 1_555
C17_4 C16_3 1_555 1_555
H11_4 C17_4 1_555 1_555
C18_4 C17_4 1_555 1_555
C19_4 C14_4 1_555 1_555
H12_4 C19_4 1_555 1_555
C20_4 C18_4 1_555 1_555
C21_4 C20_4 1_555 1_555
H13_4 C21_4 1_555 1_555
C22_4 C21_4 1_555 1_555
H14_4 C22_4 1_555 1_555
C23_4 H15_4 1_555 1_555
C24_4 C20_4 1_555 1_555
H16_4 C24_4 1_555 1_555
Cd3 N2_4 1_555 1_555
N8 C1_4 1_555 1_555
N2_4 C12_4 1_555 1_555
N3_4 C13_4 1_555 1_555
N4_4 C12_4 1_555 1_555
N5_4 N4_4 1_555 1_555
H17_4 N5_4 1_555 1_555
H18_4 N5_4 1_555 1_555
N15 C22_4 1_555 1_555
H23_4 C31_4 1_555 1_555
C32_4 C31_4 1_555 1_555
H24_4 C32_4 1_555 1_555
C33_4 C32_4 1_555 1_555
H25_4 C33_4 1_555 1_555
C5_4 N8 1_555 1_555
C10_4 C11_4 1_555 1_555
C13_4 N4_4 1_555 1_555
C18_4 C19_4 1_555 1_555
C23_4 C24_4 1_555 1_555
C23_4 N15 1_555 1_555
N2_4 N3_4 1_555 1_555
H5_4 C7_4 1_555 1_555
C8_4 C7_4 1_555 1_555
H6_4 C8_4 1_555 1_555
C9_4 C8_4 1_555 1_555
H7_4 C9_4 1_555 1_555
C25_4 H19_4 1_555 1_555
C26_4 C25_4 1_555 1_555
H20_4 C26_4 1_555 1_555
C27_4 C26_4 1_555 1_555
C28_4 C27_4 1_555 1_555
H21_4 C28_4 1_555 1_555
C29_4 C28_4 1_555 1_555
H22_4 C29_4 1_555 1_555
C30_4 C27_4 1_555 1_555
C35_4 C30_4 1_555 1_555
H26_4 C35_4 1_555 1_555
C36_4 C34_4 1_555 1_555
C37_4 C38_4 1_555 1_555
C38_4 C39_4 1_555 1_555
C39_4 H27_4 1_555 1_555
C40_3 C39_4 1_555 1_555
H28_3 C40_3 1_555 1_555
C41_4 C40_3 1_555 1_555
H29_4 C41_4 1_555 1_555
C42_4 C41_4 1_555 1_555
C43_4 C38_4 1_555 1_555
H30_4 C43_4 1_555 1_555
C44_4 C42_4 1_555 1_555
C45_4 C44_4 1_555 1_555
H31_4 C45_4 1_555 1_555
C46_4 C45_4 1_555 1_555
H32_4 C46_4 1_555 1_555
C47_4 H33_4 1_555 1_555
C48_4 C44_4 1_555 1_555
H34_4 C48_4 1_555 1_555
N7_2 C25_4 1_555 1_555
N10_4 Cd3_2 1_555 1_555
N11_4 C37_4 1_555 1_555
N12_4 C36_4 1_555 1_555
N13_4 N12_4 1_555 1_555
H35_4 N13_4 1_555 1_555
H36_4 N13_4 1_555 1_555
N14_2 C46_4 1_555 1_555
C29_4 N7_2 1_555 1_555
C34_4 C35_4 1_555 1_555
C36_4 N10_4 1_555 1_555
C37_4 N12_4 1_555 1_555
C42_4 C43_4 1_555 1_555
C47_4 C48_4 1_555 1_555
C47_4 N14_2 1_555 1_555
N10_4 N11_4 1_555 1_555
H28_4 C40_4 1_555 1_555
H10_4 C16_4 1_555 1_555
Cl1 O1 1_555 1_555
O2 Cl1 1_555 1_555
O3 Cl1_2 1_555 1_555
O4 Cl1_2 1_555 1_555
Cl1_3 O1_2 1_555 1_555
O2_2 Cl1_3 1_555 1_555
O3_2 Cl1_3 1_555 1_555
O4_2 Cl1_3 1_555 1_555
Cl1_4 O1_3 1_555 1_555
O2_3 Cl1_4 1_555 1_555
O3_3 Cl1_4 1_555 1_555
O4_3 Cl1_4 1_555 1_555
Cl1_5 O1_4 1_555 1_555
O2_4 Cl1_5 1_555 1_555
O3_4 Cl1_5 1_555 1_555
O4_4 Cl1_5 1_555 1_555
Cl2 O5 1_555 1_555
O8 Cl2 1_555 1_555
O6 Cl2_2 1_555 1_555
O7 Cl2_2 1_555 1_555
Cl2_3 O5_2 1_555 1_555
O6_2 Cl2_3 1_555 1_555
O7_2 Cl2_3 1_555 1_555
O8_2 Cl2_3 1_555 1_555
Cl2_4 O5_3 1_555 1_555
O6_3 Cl2_4 1_555 1_555
O7_3 Cl2_4 1_555 1_555
O8_3 Cl2_4 1_555 1_555
Cl2_5 O5_4 1_555 1_555
O6_4 Cl2_5 1_555 1_555
O7_4 Cl2_5 1_555 1_555
O8_4 Cl2_5 1_555 1_555

#END
