
###############################################################################
#
# This file contains modified crystal structure data generated from the
# MOF subset of the Cambridge Structural Database (CSD) v543 
# hosted by the Cambridge Crystallographic Data Centre (CCDC).
#
# This work is licensed under the Creative Commons
# Attribution-NonCommercial-ShareAlike 4.0 International License.
# To view a copy of this license, visit
# http://creativecommons.org/licenses/by-nc-sa/4.0/
# or send a letter to
# Creative Commons, PO Box 1866, Mountain View, CA 94042, USA.
#
# CIF created using the CSD Python API on 29 September 2022
# The structure has been converted into the P1 space group
# The structure has a 3D framework
# The original CSD entry OKIVAG01 is in the tetragonal crystal system
# The original CSD entry OKIVAG01 is in a Sohncke space group
# The framework has been calculated to contain at least 10.0% void space
# The void calculation uses a probe of radius 1.32A, grid spacing 0.4
# The framework is charged, counterions have been retained in the structure
#
###############################################################################

data_OKIVAG01
_chemical_formula_moiety         '(C192 H144 Cd3 Cl10 N48 O32 2-)n'
_symmetry_cell_setting           triclinic
_symmetry_space_group_name_H-M   'P 1'
_symmetry_Int_Tables_number      1
_space_group_name_Hall           'P 1'
loop_
_symmetry_equiv_pos_site_id
_symmetry_equiv_pos_as_xyz
1 x,y,z
_cell_length_a                   15.8926(19)
_cell_length_b                   15.8926(19)
_cell_length_c                   21.972(5)
_cell_angle_alpha                90
_cell_angle_beta                 90
_cell_angle_gamma                90
_cell_volume                     5549.57
loop_
_atom_site_label
_atom_site_type_symbol
_atom_site_fract_x
_atom_site_fract_y
_atom_site_fract_z
Cd3 Cd 0.44370(2) 0.44370(2) 0.0000
C15 C 0.0021(5) 0.1621(4) 0.5388(3)
H9 H 0.0437 0.1195 0.5421
C16 C 0.0118(5) 0.2283(4) 0.4970(4)
H10 H 0.0603 0.2296 0.4717
C25 C 0.3601(4) 0.4154(4) 0.8622(3)
H19 H 0.3905 0.4644 0.8510
C26 C 0.2974(4) 0.3873(4) 0.8232(3)
H20 H 0.2849 0.4181 0.7873
C27 C 0.2525(4) 0.3135(4) 0.8365(3)
C28 C 0.2804(4) 0.2713(4) 0.8876(3)
H21 H 0.2572 0.2178 0.8970
C29 C 0.3410(4) 0.3050(4) 0.9252(3)
H22 H 0.3561 0.2752 0.9611
C30 C 0.1813(4) 0.2832(4) 0.7993(3)
C31 C 0.1676(4) 0.3089(4) 0.7399(3)
H23 H 0.2045 0.3489 0.7219
C32 C 0.1015(5) 0.2775(5) 0.7065(3)
H24 H 0.0935 0.2959 0.6658
C33 C 0.0465(4) 0.2194(5) 0.7314(3)
H25 H 0.0002 0.1988 0.7084
C34 C 0.0602(3) 0.1915(4) 0.7914(2)
C35 C 0.1253(4) 0.2236(4) 0.8244(3)
H26 H 0.1332 0.2055 0.8652
C36 C 0.0041(4) 0.1284(4) 0.8205(2)
Cd3_2 Cd 0.44370(2) 0.44370(2) 1.0000
N9 N 0.3796(4) 0.3788(3) 0.9130(2)
N11 N 0.0052(3) 0.0475(3) 0.8163(2)
N14 N 0.1850(3) 0.0262(3) 0.7401(2)
Cd1 Cd 0.05630(2) 0.94370(2) 0.7500
N7 N 0.1212(3) 0.8796(4) 0.6630(2)
N8 N 0.1204(4) 0.8788(3) 0.8370(2)
C41 C 0.7100(4) 0.0459(5) 0.0081(4)
H29 H 0.6662 0.0380 0.0370
C47 C 0.5418(5) 0.2602(5) 0.0344(3)
H33 H 0.5123 0.2661 0.0718
C48 C 0.5992(5) 0.1947(4) 0.0287(3)
H34 H 0.6078 0.1573 0.0618
C13 C 0.9226(3) 0.0913(3) 0.6188(2)
C14 C 0.9314(4) 0.1598(4) 0.5747(3)
C17 C 0.9541(5) 0.2900(4) 0.4919(4)
H11 H 0.9620 0.3338 0.4630
C18 C 0.8814(4) 0.2900(4) 0.5296(3)
C19 C 0.8715(4) 0.2246(4) 0.5705(3)
H12 H 0.8235 0.2234 0.5962
C20 C 0.8165(4) 0.3571(4) 0.5233(3)
C21 C 0.7609(5) 0.3759(5) 0.5707(3)
H13 H 0.7670 0.3487 0.6089
C22 C 0.6975(5) 0.4335(4) 0.5625(3)
H14 H 0.6610 0.4452 0.5957
C23 C 0.7398(5) 0.4582(5) 0.4656(3)
H15 H 0.7339 0.4877 0.4282
C24 C 0.8053(4) 0.4008(5) 0.4713(3)
H16 H 0.8427 0.3922 0.4382
N2 N 0.9851(3) 0.0558(3) 0.6460(2)
N4 N 0.8497(3) 0.0561(3) 0.6384(2)
N5 N 0.7682(4) 0.0741(3) 0.6165(3)
H17 H 0.7394 0.0253 0.6109
H18 H 0.7406 0.1067 0.6440
N6 N 0.6850(3) 0.4738(3) 0.5099(2)
C37 C 0.9087(3) 0.0774(3) 0.8812(2)
C38 C 0.8402(4) 0.0686(4) 0.9253(3)
C42 C 0.7100(4) 0.1186(4) 0.9704(3)
C43 C 0.7754(4) 0.1285(4) 0.9295(3)
H30 H 0.7766 0.1765 0.9038
C44 C 0.6429(4) 0.1835(4) 0.9767(3)
C45 C 0.6241(5) 0.2391(5) 0.9293(3)
H31 H 0.6513 0.2330 0.8911
C46 C 0.5665(4) 0.3025(5) 0.9375(3)
H32 H 0.5548 0.3390 0.9043
Cd4 Cd 0.55630(2) 0.55630(2) 0.5000
N10 N 0.9442(3) 0.0149(3) 0.8540(2)
N12 N 0.9439(3) 0.1503(3) 0.8616(2)
N13 N 0.9259(3) 0.2318(4) 0.8835(3)
H35 H 0.9747 0.2606 0.8891
H36 H 0.8933 0.2594 0.8560
N16 N 0.5262(3) 0.3150(3) 0.9901(2)
C1 C 0.5846(4) 0.6399(4) 0.6378(3)
H1 H 0.5356 0.6095 0.6490
C2 C 0.6127(4) 0.7026(4) 0.6768(3)
H2 H 0.5819 0.7151 0.7127
C3 C 0.6865(4) 0.7475(4) 0.6635(3)
C4 C 0.7287(4) 0.7196(4) 0.6124(3)
H3 H 0.7822 0.7428 0.6030
C5 C 0.6950(4) 0.6590(4) 0.5748(3)
H4 H 0.7248 0.6439 0.5389
C6 C 0.7168(4) 0.8187(4) 0.7007(3)
C7 C 0.6911(4) 0.8324(4) 0.7601(3)
H5 H 0.6511 0.7955 0.7781
C8 C 0.7225(5) 0.8985(5) 0.7935(3)
H6 H 0.7041 0.9065 0.8342
C9 C 0.7806(5) 0.9535(4) 0.7686(3)
H7 H 0.8012 0.9998 0.7916
C10 C 0.8085(4) 0.9398(3) 0.7086(2)
C11 C 0.7764(4) 0.8747(4) 0.6756(3)
H8 H 0.7945 0.8668 0.6348
C12 C 0.8716(4) 0.9959(4) 0.6795(2)
N1 N 0.6212(3) 0.6204(4) 0.5870(2)
N3 N 0.9525(3) 0.9948(3) 0.6837(2)
C39 C 0.8379(4) 0.9979(5) 0.9612(3)
H27 H 0.8805 0.9563 0.9579
N15 N 0.9738(3) 0.8150(3) 0.7599(2)
C1_2 C 0.4154(4) 0.3601(4) 0.1378(3)
H1_2 H 0.4644 0.3905 0.1490
C2_2 C 0.3873(4) 0.2974(4) 0.1768(3)
H2_2 H 0.4181 0.2849 0.2127
C3_2 C 0.3135(4) 0.2525(4) 0.1635(3)
C4_2 C 0.2713(4) 0.2804(4) 0.1124(3)
H3_2 H 0.2178 0.2572 0.1030
C5_2 C 0.3050(4) 0.3410(4) 0.0748(3)
H4_2 H 0.2752 0.3561 0.0389
C6_2 C 0.2832(4) 0.1813(4) 0.2007(3)
C7_2 C 0.3089(4) 0.1676(4) 0.2601(3)
H5_2 H 0.3489 0.2045 0.2781
C8_2 C 0.2775(5) 0.1015(5) 0.2935(3)
H6_2 H 0.2959 0.0935 0.3342
C9_2 C 0.2194(5) 0.0465(4) 0.2686(3)
H7_2 H 0.1988 0.0002 0.2916
C10_2 C 0.1915(4) 0.0602(3) 0.2086(2)
C11_2 C 0.2236(4) 0.1253(4) 0.1756(3)
H8_2 H 0.2055 0.1332 0.1348
C12_2 C 0.1284(4) 0.0041(4) 0.1795(2)
N1_2 N 0.3788(3) 0.3796(4) 0.0870(2)
N3_2 N 0.0475(3) 0.0052(3) 0.1837(2)
C39_2 C 0.1621(4) 0.0021(5) 0.4612(3)
H27_2 H 0.1195 0.0437 0.4579
C40 C 0.2283(4) 0.0118(5) 0.5030(4)
H28 H 0.2296 0.0603 0.5283
N15_2 N 0.0262(3) 0.1850(3) 0.2599(2)
C13_2 C 0.0774(3) 0.9087(3) 0.1188(2)
C14_2 C 0.0686(4) 0.8402(4) 0.0747(3)
C18_2 C 0.1186(4) 0.7100(4) 0.0296(3)
C19_2 C 0.1285(4) 0.7754(4) 0.0705(3)
H12_2 H 0.1765 0.7766 0.0962
C20_2 C 0.1835(4) 0.6429(4) 0.0233(3)
C21_2 C 0.2391(5) 0.6241(5) 0.0707(3)
H13_2 H 0.2330 0.6513 0.1089
C22_2 C 0.3025(5) 0.5665(4) 0.0625(3)
H14_2 H 0.3390 0.5548 0.0957
N2_2 N 0.0149(3) 0.9442(3) 0.1460(2)
N4_2 N 0.1503(3) 0.9439(3) 0.1384(2)
N5_2 N 0.2318(4) 0.9259(3) 0.1165(3)
H17_2 H 0.2606 0.9747 0.1109
H18_2 H 0.2594 0.8933 0.1440
N6_2 N 0.3150(3) 0.5262(3) 0.0099(2)
C37_2 C 0.0913(3) 0.9226(3) 0.3812(2)
C38_2 C 0.1598(4) 0.9314(4) 0.4253(3)
C41_2 C 0.2900(4) 0.9541(5) 0.5081(4)
H29_2 H 0.3338 0.9620 0.5370
C42_2 C 0.2900(4) 0.8814(4) 0.4704(3)
C43_2 C 0.2246(4) 0.8715(4) 0.4295(3)
H30_2 H 0.2234 0.8235 0.4038
C44_2 C 0.3571(4) 0.8165(4) 0.4767(3)
C45_2 C 0.3759(5) 0.7609(5) 0.4293(3)
H31_2 H 0.3487 0.7670 0.3911
C46_2 C 0.4335(4) 0.6975(5) 0.4375(3)
H32_2 H 0.4452 0.6610 0.4043
C47_2 C 0.4582(5) 0.7398(5) 0.5344(3)
H33_2 H 0.4877 0.7339 0.5718
C48_2 C 0.4008(5) 0.8053(4) 0.5287(3)
H34_2 H 0.3922 0.8427 0.5618
N10_2 N 0.0558(3) 0.9851(3) 0.3540(2)
N12_2 N 0.0561(3) 0.8497(3) 0.3616(2)
N13_2 N 0.0741(3) 0.7682(4) 0.3835(3)
H35_2 H 0.0253 0.7394 0.3891
H36_2 H 0.1067 0.7406 0.3560
N16_2 N 0.4738(3) 0.6850(3) 0.4901(2)
C17_2 C 0.0459(5) 0.7100(4) 0.9919(4)
H11_2 H 0.0380 0.6662 0.9630
C23_2 C 0.2602(5) 0.5418(5) 0.9656(3)
H15_2 H 0.2661 0.5123 0.9282
C24_2 C 0.1947(4) 0.5992(5) 0.9713(3)
H16_2 H 0.1573 0.6078 0.9382
Cd1_2 Cd 0.94370(2) 0.05630(2) 0.2500
N7_2 N 0.8788(3) 0.1204(4) 0.1630(2)
N8_2 N 0.8796(4) 0.1212(3) 0.3370(2)
C15_2 C 0.9979(5) 0.8379(4) 0.0388(3)
H9_2 H 0.9563 0.8805 0.0421
C25_2 C 0.6399(4) 0.5846(4) 0.3622(3)
H19_2 H 0.6095 0.5356 0.3510
C26_2 C 0.7026(4) 0.6127(4) 0.3232(3)
H20_2 H 0.7151 0.5819 0.2873
C27_2 C 0.7475(4) 0.6865(4) 0.3365(3)
C28_2 C 0.7196(4) 0.7287(4) 0.3876(3)
H21_2 H 0.7428 0.7822 0.3970
C29_2 C 0.6590(4) 0.6950(4) 0.4252(3)
H22_2 H 0.6439 0.7248 0.4611
C30_2 C 0.8187(4) 0.7168(4) 0.2993(3)
C31_2 C 0.8324(4) 0.6911(4) 0.2399(3)
H23_2 H 0.7955 0.6511 0.2219
C32_2 C 0.8985(5) 0.7225(5) 0.2065(3)
H24_2 H 0.9065 0.7041 0.1658
C33_2 C 0.9535(4) 0.7806(5) 0.2314(3)
H25_2 H 0.9998 0.8012 0.2084
C34_2 C 0.9398(3) 0.8085(4) 0.2914(2)
C35_2 C 0.8747(4) 0.7764(4) 0.3244(3)
H26_2 H 0.8668 0.7945 0.3652
C36_2 C 0.9959(4) 0.8716(4) 0.3205(2)
N9_2 N 0.6204(4) 0.6212(3) 0.4130(2)
N11_2 N 0.9948(3) 0.9525(3) 0.3163(2)
N14_2 N 0.8150(3) 0.9738(3) 0.2401(2)
C1_3 C 0.8601(4) 0.0846(4) 0.3878(3)
H1_3 H 0.8905 0.0356 0.3990
C2_3 C 0.7974(4) 0.1127(4) 0.4268(3)
H2_3 H 0.7849 0.0819 0.4627
C3_3 C 0.7525(4) 0.1865(4) 0.4135(3)
C4_3 C 0.7804(4) 0.2287(4) 0.3624(3)
H3_3 H 0.7572 0.2822 0.3530
C5_3 C 0.8410(4) 0.1950(4) 0.3248(3)
H4_3 H 0.8561 0.2248 0.2889
C6_3 C 0.6813(4) 0.2168(4) 0.4507(3)
C7_3 C 0.6676(4) 0.1911(4) 0.5101(3)
H5_3 H 0.7045 0.1511 0.5281
C8_3 C 0.6015(5) 0.2225(5) 0.5435(3)
H6_3 H 0.5935 0.2041 0.5842
C9_3 C 0.5465(4) 0.2806(5) 0.5186(3)
H7_3 H 0.5002 0.3012 0.5416
C10_3 C 0.5602(3) 0.3085(4) 0.4586(2)
C11_3 C 0.6253(4) 0.2764(4) 0.4256(3)
H8_3 H 0.6332 0.2945 0.3848
C12_3 C 0.5041(4) 0.3716(4) 0.4295(2)
C13_3 C 0.4087(3) 0.4226(3) 0.3688(2)
C14_3 C 0.3402(4) 0.4314(4) 0.3247(3)
C15_3 C 0.3379(4) 0.5021(5) 0.2888(3)
H9_3 H 0.3805 0.5437 0.2921
C16_2 C 0.2717(4) 0.5118(5) 0.2470(4)
H10_2 H 0.2704 0.5603 0.2217
C17_3 C 0.2100(4) 0.4541(5) 0.2419(4)
H11_3 H 0.1662 0.4620 0.2130
C18_3 C 0.2100(4) 0.3814(4) 0.2796(3)
C19_3 C 0.2754(4) 0.3715(4) 0.3205(3)
H12_3 H 0.2766 0.3235 0.3462
C20_3 C 0.1429(4) 0.3165(4) 0.2733(3)
C21_3 C 0.1241(5) 0.2609(5) 0.3207(3)
H13_3 H 0.1513 0.2670 0.3589
C22_3 C 0.0665(4) 0.1975(5) 0.3125(3)
H14_3 H 0.0548 0.1610 0.3457
C23_3 C 0.0418(5) 0.2398(5) 0.2156(3)
H15_3 H 0.0123 0.2339 0.1782
C24_3 C 0.0992(5) 0.3053(4) 0.2213(3)
H16_3 H 0.1078 0.3427 0.1882
N2_3 N 0.4442(3) 0.4851(3) 0.3960(2)
N3_3 N 0.5052(3) 0.4525(3) 0.4337(2)
N4_3 N 0.4439(3) 0.3497(3) 0.3884(2)
N5_3 N 0.4259(3) 0.2682(4) 0.3665(3)
H17_3 H 0.4747 0.2394 0.3609
H18_3 H 0.3933 0.2406 0.3940
C25_3 C 0.0846(4) 0.8601(4) 0.6122(3)
H19_3 H 0.0356 0.8905 0.6010
C26_3 C 0.1127(4) 0.7974(4) 0.5732(3)
H20_3 H 0.0819 0.7849 0.5373
C27_3 C 0.1865(4) 0.7525(4) 0.5865(3)
C28_3 C 0.2287(4) 0.7804(4) 0.6376(3)
H21_3 H 0.2822 0.7572 0.6470
C29_3 C 0.1950(4) 0.8410(4) 0.6752(3)
H22_3 H 0.2248 0.8561 0.7111
C30_3 C 0.2168(4) 0.6813(4) 0.5493(3)
C31_3 C 0.1911(4) 0.6676(4) 0.4899(3)
H23_3 H 0.1511 0.7045 0.4719
C32_3 C 0.2225(5) 0.6015(5) 0.4565(3)
H24_3 H 0.2041 0.5935 0.4158
C33_3 C 0.2806(5) 0.5465(4) 0.4814(3)
H25_3 H 0.3012 0.5002 0.4584
C34_3 C 0.3085(4) 0.5602(3) 0.5414(2)
C35_3 C 0.2764(4) 0.6253(4) 0.5744(3)
H26_3 H 0.2945 0.6332 0.6152
C36_3 C 0.3716(4) 0.5041(4) 0.5705(2)
C37_3 C 0.4226(3) 0.4087(3) 0.6312(2)
C38_3 C 0.4314(4) 0.3402(4) 0.6753(3)
C39_3 C 0.5021(5) 0.3379(4) 0.7112(3)
H27_3 H 0.5437 0.3805 0.7079
C40_2 C 0.5118(5) 0.2717(4) 0.7530(4)
H28_2 H 0.5603 0.2704 0.7783
C41_3 C 0.4541(5) 0.2100(4) 0.7581(4)
H29_3 H 0.4620 0.1662 0.7870
C42_3 C 0.3814(4) 0.2100(4) 0.7204(3)
C43_3 C 0.3715(4) 0.2754(4) 0.6795(3)
H30_3 H 0.3235 0.2766 0.6538
C44_3 C 0.3165(4) 0.1429(4) 0.7267(3)
C45_3 C 0.2609(5) 0.1241(5) 0.6793(3)
H31_3 H 0.2670 0.1513 0.6411
C46_3 C 0.1975(5) 0.0665(4) 0.6875(3)
H32_3 H 0.1610 0.0548 0.6543
C47_3 C 0.2398(5) 0.0418(5) 0.7844(3)
H33_3 H 0.2339 0.0123 0.8218
C48_3 C 0.3053(4) 0.0992(5) 0.7787(3)
H34_3 H 0.3427 0.1078 0.8118
N10_3 N 0.4851(3) 0.4442(3) 0.6040(2)
N11_3 N 0.4525(3) 0.5052(3) 0.5663(2)
N12_3 N 0.3497(3) 0.4439(3) 0.6116(2)
N13_3 N 0.2682(4) 0.4259(3) 0.6335(3)
H35_3 H 0.2394 0.4747 0.6391
H36_3 H 0.2406 0.3933 0.6060
C7_4 C 0.3324(4) 0.8089(4) 0.0101(3)
H5_4 H 0.2955 0.8489 0.0281
C8_4 C 0.3985(5) 0.7775(5) 0.0435(3)
H6_4 H 0.4065 0.7959 0.0842
C9_4 C 0.4535(4) 0.7194(5) 0.0186(3)
H7_4 H 0.4998 0.6988 0.0416
C25_4 C 0.9154(4) 0.1399(4) 0.1122(3)
H19_4 H 0.9644 0.1095 0.1010
C26_4 C 0.8873(4) 0.2026(4) 0.0732(3)
H20_4 H 0.9181 0.2151 0.0373
C27_4 C 0.8135(4) 0.2475(4) 0.0865(3)
C28_4 C 0.7713(4) 0.2196(4) 0.1376(3)
H21_4 H 0.7178 0.2428 0.1470
C29_4 C 0.8050(4) 0.1590(4) 0.1752(3)
H22_4 H 0.7752 0.1439 0.2111
C30_4 C 0.7832(4) 0.3187(4) 0.0493(3)
C34_4 C 0.6915(4) 0.4398(3) 0.0414(2)
C35_4 C 0.7236(4) 0.3747(4) 0.0744(3)
H26_4 H 0.7055 0.3668 0.1152
C36_4 C 0.6284(4) 0.4959(4) 0.0705(2)
C37_4 C 0.5774(3) 0.5913(3) 0.1312(2)
C38_4 C 0.5686(4) 0.6598(4) 0.1753(3)
C39_4 C 0.4979(5) 0.6621(4) 0.2112(3)
H27_4 H 0.4563 0.6195 0.2079
C40_3 C 0.4882(5) 0.7283(4) 0.2530(4)
H28_3 H 0.4397 0.7296 0.2783
C41_4 C 0.5459(5) 0.7900(4) 0.2581(4)
H29_4 H 0.5380 0.8338 0.2870
C42_4 C 0.6186(4) 0.7900(4) 0.2204(3)
C43_4 C 0.6285(4) 0.7246(4) 0.1795(3)
H30_4 H 0.6765 0.7234 0.1538
C44_4 C 0.6835(4) 0.8571(4) 0.2267(3)
C45_4 C 0.7391(5) 0.8759(5) 0.1793(3)
H31_4 H 0.7330 0.8487 0.1411
C46_4 C 0.8025(5) 0.9335(4) 0.1875(3)
H32_4 H 0.8390 0.9452 0.1543
C47_4 C 0.7602(5) 0.9582(5) 0.2844(3)
H33_4 H 0.7661 0.9877 0.3218
C48_4 C 0.6947(4) 0.9008(5) 0.2787(3)
H34_4 H 0.6573 0.8922 0.3118
N10_4 N 0.5149(3) 0.5558(3) 0.1040(2)
N11_4 N 0.5475(3) 0.4948(3) 0.0663(2)
N12_4 N 0.6503(3) 0.5561(3) 0.1116(2)
N13_4 N 0.7318(4) 0.5741(3) 0.1335(3)
H35_4 H 0.7606 0.5253 0.1391
H36_4 H 0.7594 0.6067 0.1060
C1_4 C 0.1399(4) 0.9154(4) 0.8878(3)
H1_4 H 0.1095 0.9644 0.8990
C2_4 C 0.2026(4) 0.8873(4) 0.9268(3)
H2_4 H 0.2151 0.9181 0.9627
C3_4 C 0.2475(4) 0.8135(4) 0.9135(3)
C4_4 C 0.2196(4) 0.7713(4) 0.8624(3)
H3_4 H 0.2428 0.7178 0.8530
C5_4 C 0.1590(4) 0.8050(4) 0.8248(3)
H4_4 H 0.1439 0.7752 0.7889
C6_4 C 0.3187(4) 0.7832(4) 0.9507(3)
C10_4 C 0.4398(3) 0.6915(4) 0.9586(2)
C11_4 C 0.3747(4) 0.7236(4) 0.9256(3)
H8_4 H 0.3668 0.7055 0.8848
C12_4 C 0.4959(4) 0.6284(4) 0.9295(2)
C13_4 C 0.5913(3) 0.5774(3) 0.8688(2)
C14_4 C 0.6598(4) 0.5686(4) 0.8247(3)
C15_4 C 0.6621(4) 0.4979(5) 0.7888(3)
H9_4 H 0.6195 0.4563 0.7921
C16_3 C 0.7283(4) 0.4882(5) 0.7470(4)
H10_3 H 0.7296 0.4397 0.7217
C17_4 C 0.7900(4) 0.5459(5) 0.7419(4)
H11_4 H 0.8338 0.5380 0.7130
C18_4 C 0.7900(4) 0.6186(4) 0.7796(3)
C19_4 C 0.7246(4) 0.6285(4) 0.8205(3)
H12_4 H 0.7234 0.6765 0.8462
C20_4 C 0.8571(4) 0.6835(4) 0.7733(3)
C21_4 C 0.8759(5) 0.7391(5) 0.8207(3)
H13_4 H 0.8487 0.7330 0.8589
C22_4 C 0.9335(4) 0.8025(5) 0.8125(3)
H14_4 H 0.9452 0.8390 0.8457
C23_4 C 0.9582(5) 0.7602(5) 0.7156(3)
H15_4 H 0.9877 0.7661 0.6782
C24_4 C 0.9008(5) 0.6947(4) 0.7213(3)
H16_4 H 0.8922 0.6573 0.6882
N2_4 N 0.5558(3) 0.5149(3) 0.8960(2)
N3_4 N 0.4948(3) 0.5475(3) 0.9337(2)
N4_4 N 0.5561(3) 0.6503(3) 0.8884(2)
N5_4 N 0.5741(3) 0.7318(4) 0.8665(3)
H17_4 H 0.5253 0.7606 0.8609
H18_4 H 0.6067 0.7594 0.8940
C31_4 C 0.8089(4) 0.3324(4) 0.9899(3)
H23_4 H 0.8489 0.2955 0.9719
C32_4 C 0.7775(5) 0.3985(5) 0.9565(3)
H24_4 H 0.7959 0.4065 0.9158
C33_4 C 0.7194(5) 0.4535(4) 0.9814(3)
H25_4 H 0.6988 0.4998 0.9584
C40_4 C 0.7717(4) 0.9882(5) 0.0030(4)
H28_4 H 0.7704 0.9397 0.0283
C16_4 C 0.9882(5) 0.7717(4) 0.9970(4)
H10_4 H 0.9397 0.7704 0.9717
Cl1 Cl 0.11959(15) 0.11959(15) 0.0000
O3 O 0.0984(10) 0.1760(11) 0.0497(7)
O4 O 0.1517(14) 0.0623(14) 0.0344(9)
Cl1_2 Cl 0.11959(15) 0.11959(15) 1.0000
O1 O 0.1760(11) 0.0984(10) 0.9503(7)
O2 O 0.0623(14) 0.1517(14) 0.9656(9)
Cl1_3 Cl 0.88041(15) 0.88041(15) 0.5000
O1_2 O 0.8240(11) 0.9016(10) 0.4503(7)
O2_2 O 0.9377(14) 0.8483(14) 0.4656(9)
O3_2 O 0.9016(10) 0.8240(11) 0.5497(7)
O4_2 O 0.8483(14) 0.9377(14) 0.5344(9)
Cl1_4 Cl 0.38041(15) 0.61959(15) 0.7500
O1_3 O 0.4016(10) 0.6760(11) 0.7003(7)
O2_3 O 0.3483(14) 0.5623(14) 0.7156(9)
O3_3 O 0.3240(11) 0.5984(10) 0.7997(7)
O4_3 O 0.4377(14) 0.6517(14) 0.7844(9)
Cl1_5 Cl 0.61959(15) 0.38041(15) 0.2500
O1_4 O 0.5984(10) 0.3240(11) 0.2003(7)
O2_4 O 0.6517(14) 0.4377(14) 0.2156(9)
O3_4 O 0.6760(11) 0.4016(10) 0.2997(7)
O4_4 O 0.5623(14) 0.3483(14) 0.2844(9)
Cl2 Cl 0.73117(15) 0.73117(15) 0.0000
O6 O 0.6632(10) 0.7847(12) 0.002(2)
O7 O 0.7713(8) 0.7610(10) 0.0503(3)
Cl2_2 Cl 0.73117(15) 0.73117(15) 1.0000
O5 O 0.7610(10) 0.7713(8) 0.9497(3)
O8 O 0.7847(12) 0.6632(10) 0.998(2)
Cl2_3 Cl 0.26883(15) 0.26883(15) 0.5000
O5_2 O 0.2390(10) 0.2287(8) 0.4497(3)
O6_2 O 0.3368(10) 0.2153(12) 0.502(2)
O7_2 O 0.2287(8) 0.2390(10) 0.5503(3)
O8_2 O 0.2153(12) 0.3368(10) 0.498(2)
Cl2_4 Cl 0.76883(15) 0.23117(15) 0.7500
O5_3 O 0.7287(8) 0.2610(10) 0.6997(3)
O6_3 O 0.7153(12) 0.1632(10) 0.752(2)
O7_3 O 0.7390(10) 0.2713(8) 0.8003(3)
O8_3 O 0.8368(10) 0.2847(12) 0.748(2)
Cl2_5 Cl 0.23117(15) 0.76883(15) 0.2500
O5_4 O 0.2713(8) 0.7390(10) 0.1997(3)
O6_4 O 0.2847(12) 0.8368(10) 0.252(2)
O7_4 O 0.2610(10) 0.7287(8) 0.3003(3)
O8_4 O 0.1632(10) 0.7153(12) 0.248(2)
loop_
_geom_bond_atom_site_label_1
_geom_bond_atom_site_label_2
_geom_bond_site_symmetry_1
_geom_bond_site_symmetry_2
C15 H9 1_555 1_555
C16 C15 1_555 1_555
H10 C16 1_555 1_555
C25 H19 1_555 1_555
C26 C25 1_555 1_555
H20 C26 1_555 1_555
C27 C26 1_555 1_555
C28 C27 1_555 1_555
H21 C28 1_555 1_555
C29 C28 1_555 1_555
H22 C29 1_555 1_555
C30 C27 1_555 1_555
C31 C30 1_555 1_555
H23 C31 1_555 1_555
C32 C31 1_555 1_555
H24 C32 1_555 1_555
C33 C32 1_555 1_555
H25 C33 1_555 1_555
C34 C33 1_555 1_555
C35 C30 1_555 1_555
H26 C35 1_555 1_555
C36 C34 1_555 1_555
Cd3_2 N9 1_555 1_555
N9 C25 1_555 1_555
C29 N9 1_555 1_555
C34 C35 1_555 1_555
C36 N11 1_555 1_555
N7 Cd1 1_555 1_555
N8 Cd1 1_555 1_555
H29 C41 1_555 1_555
C47 H33 1_555 1_555
H34 C48 1_555 1_555
C47 C48 1_555 1_555
C13 C14 1_555 1_555
H11 C17 1_555 1_555
C18 C17 1_555 1_555
C19 C14 1_555 1_555
H12 C19 1_555 1_555
C20 C18 1_555 1_555
C21 C20 1_555 1_555
H13 C21 1_555 1_555
C22 C21 1_555 1_555
H14 C22 1_555 1_555
C23 H15 1_555 1_555
C24 C20 1_555 1_555
H16 C24 1_555 1_555
N2 C13 1_555 1_555
N5 N4 1_555 1_555
H17 N5 1_555 1_555
H18 N5 1_555 1_555
N6 C22 1_555 1_555
C37 C38 1_555 1_555
C43 C38 1_555 1_555
H30 C43 1_555 1_555
C44 C42 1_555 1_555
C45 C44 1_555 1_555
H31 C45 1_555 1_555
C46 C45 1_555 1_555
H32 C46 1_555 1_555
Cd4 N6 1_555 1_555
Cd3_2 N16 1_555 1_555
N10 C37 1_555 1_555
N13 N12 1_555 1_555
H35 N13 1_555 1_555
H36 N13 1_555 1_555
N16 C46 1_555 1_555
C13 N4 1_555 1_555
C18 C19 1_555 1_555
C23 C24 1_555 1_555
C23 N6 1_555 1_555
C37 N12 1_555 1_555
C42 C43 1_555 1_555
C1 H1 1_555 1_555
C2 C1 1_555 1_555
H2 C2 1_555 1_555
C3 C2 1_555 1_555
C4 C3 1_555 1_555
H3 C4 1_555 1_555
C5 C4 1_555 1_555
H4 C5 1_555 1_555
C6 C3 1_555 1_555
C7 C6 1_555 1_555
H5 C7 1_555 1_555
C8 C7 1_555 1_555
H6 C8 1_555 1_555
C9 C8 1_555 1_555
H7 C9 1_555 1_555
C10 C9 1_555 1_555
C11 C6 1_555 1_555
H8 C11 1_555 1_555
C12 C10 1_555 1_555
N1 C1 1_555 1_555
N3 C12 1_555 1_555
C39 H27 1_555 1_555
Cd4 N1 1_555 1_555
C5 N1 1_555 1_555
C10 C11 1_555 1_555
C1_2 H1_2 1_555 1_555
C2_2 C1_2 1_555 1_555
H2_2 C2_2 1_555 1_555
C3_2 C2_2 1_555 1_555
C4_2 C3_2 1_555 1_555
H3_2 C4_2 1_555 1_555
C5_2 C4_2 1_555 1_555
H4_2 C5_2 1_555 1_555
C6_2 C3_2 1_555 1_555
C7_2 C6_2 1_555 1_555
H5_2 C7_2 1_555 1_555
C8_2 C7_2 1_555 1_555
H6_2 C8_2 1_555 1_555
C9_2 C8_2 1_555 1_555
H7_2 C9_2 1_555 1_555
C10_2 C9_2 1_555 1_555
C11_2 C6_2 1_555 1_555
H8_2 C11_2 1_555 1_555
C12_2 C10_2 1_555 1_555
N1_2 C1_2 1_555 1_555
N3_2 C12_2 1_555 1_555
C39_2 H27_2 1_555 1_555
C40 C39_2 1_555 1_555
H28 C40 1_555 1_555
Cd3 N1_2 1_555 1_555
C5_2 N1_2 1_555 1_555
C10_2 C11_2 1_555 1_555
C13_2 C14_2 1_555 1_555
C19_2 C14_2 1_555 1_555
H12_2 C19_2 1_555 1_555
C20_2 C18_2 1_555 1_555
C21_2 C20_2 1_555 1_555
H13_2 C21_2 1_555 1_555
C22_2 C21_2 1_555 1_555
H14_2 C22_2 1_555 1_555
N2_2 C13_2 1_555 1_555
N5_2 N4_2 1_555 1_555
H17_2 N5_2 1_555 1_555
H18_2 N5_2 1_555 1_555
N6_2 C22_2 1_555 1_555
C37_2 C38_2 1_555 1_555
H29_2 C41_2 1_555 1_555
C42_2 C41_2 1_555 1_555
C43_2 C38_2 1_555 1_555
H30_2 C43_2 1_555 1_555
C44_2 C42_2 1_555 1_555
C45_2 C44_2 1_555 1_555
H31_2 C45_2 1_555 1_555
C46_2 C45_2 1_555 1_555
H32_2 C46_2 1_555 1_555
C47_2 H33_2 1_555 1_555
C48_2 C44_2 1_555 1_555
H34_2 C48_2 1_555 1_555
Cd3 N6_2 1_555 1_555
Cd4 N16_2 1_555 1_555
N10_2 C37_2 1_555 1_555
N13_2 N12_2 1_555 1_555
H35_2 N13_2 1_555 1_555
H36_2 N13_2 1_555 1_555
N16_2 C46_2 1_555 1_555
C13_2 N4_2 1_555 1_555
C18_2 C19_2 1_555 1_555
C37_2 N12_2 1_555 1_555
C42_2 C43_2 1_555 1_555
C47_2 C48_2 1_555 1_555
C47_2 N16_2 1_555 1_555
H11_2 C17_2 1_555 1_555
C23_2 H15_2 1_555 1_555
H16_2 C24_2 1_555 1_555
C23_2 C24_2 1_555 1_555
N7_2 Cd1_2 1_555 1_555
N8_2 Cd1_2 1_555 1_555
C15_2 H9_2 1_555 1_555
C25_2 H19_2 1_555 1_555
C26_2 C25_2 1_555 1_555
H20_2 C26_2 1_555 1_555
C27_2 C26_2 1_555 1_555
C28_2 C27_2 1_555 1_555
H21_2 C28_2 1_555 1_555
C29_2 C28_2 1_555 1_555
H22_2 C29_2 1_555 1_555
C30_2 C27_2 1_555 1_555
C31_2 C30_2 1_555 1_555
H23_2 C31_2 1_555 1_555
C32_2 C31_2 1_555 1_555
H24_2 C32_2 1_555 1_555
C33_2 C32_2 1_555 1_555
H25_2 C33_2 1_555 1_555
C34_2 C33_2 1_555 1_555
C35_2 C30_2 1_555 1_555
H26_2 C35_2 1_555 1_555
C36_2 C34_2 1_555 1_555
Cd4 N9_2 1_555 1_555
N9_2 C25_2 1_555 1_555
C29_2 N9_2 1_555 1_555
C34_2 C35_2 1_555 1_555
C36_2 N11_2 1_555 1_555
C1_3 H1_3 1_555 1_555
C2_3 C1_3 1_555 1_555
H2_3 C2_3 1_555 1_555
C3_3 C2_3 1_555 1_555
C4_3 C3_3 1_555 1_555
H3_3 C4_3 1_555 1_555
C5_3 C4_3 1_555 1_555
H4_3 C5_3 1_555 1_555
C6_3 C3_3 1_555 1_555
C7_3 C6_3 1_555 1_555
H5_3 C7_3 1_555 1_555
C8_3 C7_3 1_555 1_555
H6_3 C8_3 1_555 1_555
C9_3 C8_3 1_555 1_555
H7_3 C9_3 1_555 1_555
C10_3 C9_3 1_555 1_555
C11_3 C6_3 1_555 1_555
H8_3 C11_3 1_555 1_555
C12_3 C10_3 1_555 1_555
C13_3 C14_3 1_555 1_555
C14_3 C15_3 1_555 1_555
C15_3 H9_3 1_555 1_555
C16_2 C15_3 1_555 1_555
H10_2 C16_2 1_555 1_555
C17_3 C16_2 1_555 1_555
H11_3 C17_3 1_555 1_555
C18_3 C17_3 1_555 1_555
C19_3 C14_3 1_555 1_555
H12_3 C19_3 1_555 1_555
C20_3 C18_3 1_555 1_555
C21_3 C20_3 1_555 1_555
H13_3 C21_3 1_555 1_555
C22_3 C21_3 1_555 1_555
H14_3 C22_3 1_555 1_555
C23_3 H15_3 1_555 1_555
C24_3 C20_3 1_555 1_555
H16_3 C24_3 1_555 1_555
Cd4 N3_3 1_555 1_555
N8_2 C1_3 1_555 1_555
N2_3 C13_3 1_555 1_555
N3_3 C12_3 1_555 1_555
N4_3 C12_3 1_555 1_555
N5_3 N4_3 1_555 1_555
H17_3 N5_3 1_555 1_555
H18_3 N5_3 1_555 1_555
N15_2 C22_3 1_555 1_555
C25_3 H19_3 1_555 1_555
C26_3 C25_3 1_555 1_555
H20_3 C26_3 1_555 1_555
C27_3 C26_3 1_555 1_555
C28_3 C27_3 1_555 1_555
H21_3 C28_3 1_555 1_555
C29_3 C28_3 1_555 1_555
H22_3 C29_3 1_555 1_555
C30_3 C27_3 1_555 1_555
C31_3 C30_3 1_555 1_555
H23_3 C31_3 1_555 1_555
C32_3 C31_3 1_555 1_555
H24_3 C32_3 1_555 1_555
C33_3 C32_3 1_555 1_555
H25_3 C33_3 1_555 1_555
C34_3 C33_3 1_555 1_555
C35_3 C30_3 1_555 1_555
H26_3 C35_3 1_555 1_555
C36_3 C34_3 1_555 1_555
C37_3 C38_3 1_555 1_555
C38_3 C39_3 1_555 1_555
C39_3 H27_3 1_555 1_555
C40_2 C39_3 1_555 1_555
H28_2 C40_2 1_555 1_555
C41_3 C40_2 1_555 1_555
H29_3 C41_3 1_555 1_555
C42_3 C41_3 1_555 1_555
C43_3 C38_3 1_555 1_555
H30_3 C43_3 1_555 1_555
C44_3 C42_3 1_555 1_555
C45_3 C44_3 1_555 1_555
H31_3 C45_3 1_555 1_555
C46_3 C45_3 1_555 1_555
H32_3 C46_3 1_555 1_555
C47_3 H33_3 1_555 1_555
C48_3 C44_3 1_555 1_555
H34_3 C48_3 1_555 1_555
N7 C25_3 1_555 1_555
N10_3 C37_3 1_555 1_555
N11_3 Cd4 1_555 1_555
N12_3 C36_3 1_555 1_555
N13_3 N12_3 1_555 1_555
H35_3 N13_3 1_555 1_555
H36_3 N13_3 1_555 1_555
N14 C46_3 1_555 1_555
C5_3 N8_2 1_555 1_555
C10_3 C11_3 1_555 1_555
C13_3 N4_3 1_555 1_555
C18_3 C19_3 1_555 1_555
C23_3 C24_3 1_555 1_555
C23_3 N15_2 1_555 1_555
N2_3 N3_3 1_555 1_555
C29_3 N7 1_555 1_555
C34_3 C35_3 1_555 1_555
C36_3 N11_3 1_555 1_555
C37_3 N12_3 1_555 1_555
C42_3 C43_3 1_555 1_555
C47_3 C48_3 1_555 1_555
C47_3 N14 1_555 1_555
N10_3 N11_3 1_555 1_555
H5_4 C7_4 1_555 1_555
C8_4 C7_4 1_555 1_555
H6_4 C8_4 1_555 1_555
C9_4 C8_4 1_555 1_555
H7_4 C9_4 1_555 1_555
C25_4 H19_4 1_555 1_555
C26_4 C25_4 1_555 1_555
H20_4 C26_4 1_555 1_555
C27_4 C26_4 1_555 1_555
C28_4 C27_4 1_555 1_555
H21_4 C28_4 1_555 1_555
C29_4 C28_4 1_555 1_555
H22_4 C29_4 1_555 1_555
C30_4 C27_4 1_555 1_555
C35_4 C30_4 1_555 1_555
H26_4 C35_4 1_555 1_555
C36_4 C34_4 1_555 1_555
C37_4 C38_4 1_555 1_555
C38_4 C39_4 1_555 1_555
C39_4 H27_4 1_555 1_555
C40_3 C39_4 1_555 1_555
H28_3 C40_3 1_555 1_555
C41_4 C40_3 1_555 1_555
H29_4 C41_4 1_555 1_555
C42_4 C41_4 1_555 1_555
C43_4 C38_4 1_555 1_555
H30_4 C43_4 1_555 1_555
C44_4 C42_4 1_555 1_555
C45_4 C44_4 1_555 1_555
H31_4 C45_4 1_555 1_555
C46_4 C45_4 1_555 1_555
H32_4 C46_4 1_555 1_555
C47_4 H33_4 1_555 1_555
C48_4 C44_4 1_555 1_555
H34_4 C48_4 1_555 1_555
N7_2 C25_4 1_555 1_555
N10_4 C37_4 1_555 1_555
N11_4 Cd3 1_555 1_555
N12_4 C36_4 1_555 1_555
N13_4 N12_4 1_555 1_555
H35_4 N13_4 1_555 1_555
H36_4 N13_4 1_555 1_555
N14_2 C46_4 1_555 1_555
C29_4 N7_2 1_555 1_555
C34_4 C35_4 1_555 1_555
C36_4 N11_4 1_555 1_555
C37_4 N12_4 1_555 1_555
C42_4 C43_4 1_555 1_555
C47_4 C48_4 1_555 1_555
C47_4 N14_2 1_555 1_555
N10_4 N11_4 1_555 1_555
C1_4 H1_4 1_555 1_555
C2_4 C1_4 1_555 1_555
H2_4 C2_4 1_555 1_555
C3_4 C2_4 1_555 1_555
C4_4 C3_4 1_555 1_555
H3_4 C4_4 1_555 1_555
C5_4 C4_4 1_555 1_555
H4_4 C5_4 1_555 1_555
C6_4 C3_4 1_555 1_555
C11_4 C6_4 1_555 1_555
H8_4 C11_4 1_555 1_555
C12_4 C10_4 1_555 1_555
C13_4 C14_4 1_555 1_555
C14_4 C15_4 1_555 1_555
C15_4 H9_4 1_555 1_555
C16_3 C15_4 1_555 1_555
H10_3 C16_3 1_555 1_555
C17_4 C16_3 1_555 1_555
H11_4 C17_4 1_555 1_555
C18_4 C17_4 1_555 1_555
C19_4 C14_4 1_555 1_555
H12_4 C19_4 1_555 1_555
C20_4 C18_4 1_555 1_555
C21_4 C20_4 1_555 1_555
H13_4 C21_4 1_555 1_555
C22_4 C21_4 1_555 1_555
H14_4 C22_4 1_555 1_555
C23_4 H15_4 1_555 1_555
C24_4 C20_4 1_555 1_555
H16_4 C24_4 1_555 1_555
Cd3_2 N3_4 1_555 1_555
N8 C1_4 1_555 1_555
N2_4 C13_4 1_555 1_555
N3_4 C12_4 1_555 1_555
N4_4 C12_4 1_555 1_555
N5_4 N4_4 1_555 1_555
H17_4 N5_4 1_555 1_555
H18_4 N5_4 1_555 1_555
N15 C22_4 1_555 1_555
H23_4 C31_4 1_555 1_555
C32_4 C31_4 1_555 1_555
H24_4 C32_4 1_555 1_555
C33_4 C32_4 1_555 1_555
H25_4 C33_4 1_555 1_555
C5_4 N8 1_555 1_555
C10_4 C11_4 1_555 1_555
C13_4 N4_4 1_555 1_555
C18_4 C19_4 1_555 1_555
C23_4 C24_4 1_555 1_555
C23_4 N15 1_555 1_555
N2_4 N3_4 1_555 1_555
H28_4 C40_4 1_555 1_555
H10_4 C16_4 1_555 1_555
O3 Cl1 1_555 1_555
O4 Cl1 1_555 1_555
Cl1_2 O1 1_555 1_555
O2 Cl1_2 1_555 1_555
Cl1_3 O1_2 1_555 1_555
O2_2 Cl1_3 1_555 1_555
O3_2 Cl1_3 1_555 1_555
O4_2 Cl1_3 1_555 1_555
Cl1_4 O1_3 1_555 1_555
O2_3 Cl1_4 1_555 1_555
O3_3 Cl1_4 1_555 1_555
O4_3 Cl1_4 1_555 1_555
Cl1_5 O1_4 1_555 1_555
O2_4 Cl1_5 1_555 1_555
O3_4 Cl1_5 1_555 1_555
O4_4 Cl1_5 1_555 1_555
O6 Cl2 1_555 1_555
O7 Cl2 1_555 1_555
Cl2_2 O5 1_555 1_555
O8 Cl2_2 1_555 1_555
Cl2_3 O5_2 1_555 1_555
O6_2 Cl2_3 1_555 1_555
O7_2 Cl2_3 1_555 1_555
O8_2 Cl2_3 1_555 1_555
Cl2_4 O5_3 1_555 1_555
O6_3 Cl2_4 1_555 1_555
O7_3 Cl2_4 1_555 1_555
O8_3 Cl2_4 1_555 1_555
Cl2_5 O5_4 1_555 1_555
O6_4 Cl2_5 1_555 1_555
O7_4 Cl2_5 1_555 1_555
O8_4 Cl2_5 1_555 1_555

#END
