
###############################################################################
#
# This file contains modified crystal structure data generated from the
# MOF subset of the Cambridge Structural Database (CSD) v543 
# hosted by the Cambridge Crystallographic Data Centre (CCDC).
#
# This work is licensed under the Creative Commons
# Attribution-NonCommercial-ShareAlike 4.0 International License.
# To view a copy of this license, visit
# http://creativecommons.org/licenses/by-nc-sa/4.0/
# or send a letter to
# Creative Commons, PO Box 1866, Mountain View, CA 94042, USA.
#
# CIF created using the CSD Python API on 29 September 2022
# The structure has been converted into the P1 space group
# The structure has a 3D framework
# The original CSD entry OKIVAG is in the tetragonal crystal system
# The original CSD entry OKIVAG is in a Sohncke space group
# The framework has been calculated to contain at least 10.0% void space
# The void calculation uses a probe of radius 1.32A, grid spacing 0.4
# The framework is charged, counterions have been retained in the structure
#
###############################################################################

data_OKIVAG
_chemical_formula_moiety         '(C192 H144 Cd3 Cl10 N48 O32 2-)n'
_symmetry_cell_setting           triclinic
_symmetry_space_group_name_H-M   'P 1'
_symmetry_Int_Tables_number      1
_space_group_name_Hall           'P 1'
loop_
_symmetry_equiv_pos_site_id
_symmetry_equiv_pos_as_xyz
1 x,y,z
_cell_length_a                   15.937(2)
_cell_length_b                   15.937(2)
_cell_length_c                   21.884(7)
_cell_angle_alpha                90
_cell_angle_beta                 90
_cell_angle_gamma                90
_cell_volume                     5558.27
loop_
_atom_site_label
_atom_site_type_symbol
_atom_site_fract_x
_atom_site_fract_y
_atom_site_fract_z
Cd3 Cd 0.44265(2) 0.44265(2) 0.0000
C15 C 0.0028(5) 0.1639(4) 0.5376(3)
H9 H 0.0443 0.1213 0.5409
C16 C 0.0133(5) 0.2287(4) 0.4965(4)
H10 H 0.0621 0.2301 0.4716
C25 C 0.3603(4) 0.4141(4) 0.8615(3)
H19 H 0.3900 0.4636 0.8507
C26 C 0.2974(4) 0.3859(4) 0.8215(3)
H20 H 0.2849 0.4163 0.7853
C27 C 0.2530(4) 0.3120(4) 0.8357(3)
C28 C 0.2817(4) 0.2690(4) 0.8869(3)
H21 H 0.2592 0.2153 0.8962
C29 C 0.3424(4) 0.3032(4) 0.9244(3)
H22 H 0.3579 0.2736 0.9604
C30 C 0.1813(4) 0.2814(4) 0.7980(3)
C31 C 0.1661(4) 0.3083(4) 0.7387(3)
H23 H 0.2018 0.3493 0.7208
C32 C 0.1005(5) 0.2766(5) 0.7057(3)
H24 H 0.0928 0.2944 0.6647
C33 C 0.0448(4) 0.2188(5) 0.7308(3)
C34 C 0.0602(3) 0.1901(4) 0.7909(3)
C35 C 0.1269(4) 0.2222(4) 0.8235(3)
H26 H 0.1361 0.2036 0.8642
C36 C 0.0036(4) 0.1275(4) 0.8207(3)
Cd3_2 Cd 0.44265(2) 0.44265(2) 1.0000
N9 N 0.3805(3) 0.3770(3) 0.9120(2)
N11 N 0.0059(3) 0.0458(3) 0.8165(2)
N14 N 0.1861(3) 0.0254(3) 0.7404(3)
Cd1 Cd 0.05735(2) 0.94265(2) 0.7500
N7 N 0.1230(3) 0.8805(3) 0.6620(2)
N8 N 0.1195(3) 0.8770(3) 0.8380(2)
C41 C 0.7088(4) 0.0452(5) 0.0091(4)
H29 H 0.6655 0.0377 0.0384
C47 C 0.5401(4) 0.2591(4) 0.0360(3)
H33 H 0.5110 0.2658 0.0736
C48 C 0.5964(4) 0.1933(4) 0.0297(3)
H34 H 0.6037 0.1550 0.0626
H7 H 0.8008 0.0021 0.7918
C13 C 0.9235(3) 0.0915(3) 0.6183(3)
C14 C 0.9314(4) 0.1607(4) 0.5743(3)
C17 C 0.9548(5) 0.2912(4) 0.4909(4)
H11 H 0.9623 0.3345 0.4616
C18 C 0.8826(4) 0.2909(4) 0.5295(3)
C19 C 0.8724(4) 0.2250(4) 0.5703(3)
H12 H 0.8243 0.2238 0.5959
C20 C 0.8175(4) 0.3580(4) 0.5232(3)
C21 C 0.7610(5) 0.3760(4) 0.5706(3)
H13 H 0.7665 0.3484 0.6088
C22 C 0.6973(4) 0.4336(4) 0.5618(3)
H14 H 0.6598 0.4443 0.5946
C23 C 0.7409(4) 0.4599(4) 0.4640(3)
H15 H 0.7342 0.4890 0.4264
C24 C 0.8067(4) 0.4036(4) 0.4703(3)
H16 H 0.8450 0.3963 0.4374
N2 N 0.9861(3) 0.0552(3) 0.6452(2)
N4 N 0.8504(3) 0.0564(3) 0.6390(2)
N5 N 0.7686(4) 0.0752(3) 0.6172(3)
H17 H 0.7399 0.0264 0.6116
H18 H 0.7410 0.1079 0.6447
N6 N 0.6861(3) 0.4746(3) 0.5096(3)
H25 H 0.9979 0.1992 0.7082
C37 C 0.9085(3) 0.0765(3) 0.8817(3)
C38 C 0.8393(4) 0.0686(4) 0.9257(3)
C42 C 0.7091(4) 0.1174(4) 0.9705(3)
C43 C 0.7750(4) 0.1276(4) 0.9297(3)
H30 H 0.7762 0.1757 0.9041
C44 C 0.6420(4) 0.1825(4) 0.9768(3)
C45 C 0.6240(4) 0.2390(5) 0.9294(3)
H31 H 0.6516 0.2335 0.8912
C46 C 0.5664(4) 0.3027(4) 0.9382(3)
H32 H 0.5557 0.3402 0.9054
Cd4 Cd 0.55735(2) 0.55735(2) 0.5000
N10 N 0.9448(3) 0.0139(3) 0.8548(2)
N12 N 0.9436(3) 0.1496(3) 0.8610(2)
N13 N 0.9248(3) 0.2314(4) 0.8828(3)
H35 H 0.9736 0.2601 0.8884
H36 H 0.8921 0.2590 0.8553
N16 N 0.5254(3) 0.3139(3) 0.9904(3)
C1 C 0.5859(4) 0.6397(4) 0.6385(3)
H1 H 0.5364 0.6100 0.6493
C2 C 0.6141(4) 0.7026(4) 0.6785(3)
H2 H 0.5837 0.7151 0.7147
C3 C 0.6880(4) 0.7470(4) 0.6643(3)
C4 C 0.7310(4) 0.7183(4) 0.6131(3)
H3 H 0.7847 0.7408 0.6038
C5 C 0.6968(4) 0.6576(4) 0.5756(3)
H4 H 0.7264 0.6421 0.5396
C6 C 0.7186(4) 0.8187(4) 0.7020(3)
C7 C 0.6917(4) 0.8339(4) 0.7613(3)
H5 H 0.6507 0.7982 0.7792
C8 C 0.7234(5) 0.8995(5) 0.7943(3)
H6 H 0.7056 0.9072 0.8353
C9 C 0.7812(5) 0.9552(4) 0.7692(3)
C10 C 0.8099(4) 0.9398(3) 0.7091(3)
C11 C 0.7778(4) 0.8731(4) 0.6765(3)
H8 H 0.7964 0.8639 0.6358
C12 C 0.8725(4) 0.9964(4) 0.6793(3)
N1 N 0.6230(3) 0.6195(3) 0.5880(2)
N3 N 0.9542(3) 0.9941(3) 0.6835(2)
C39 C 0.8361(4) 0.9972(5) 0.9624(3)
H27 H 0.8787 0.9557 0.9591
N15 N 0.9746(3) 0.8139(3) 0.7596(3)
C1_2 C 0.4141(4) 0.3603(4) 0.1385(3)
H1_2 H 0.4636 0.3900 0.1493
C2_2 C 0.3859(4) 0.2974(4) 0.1785(3)
H2_2 H 0.4163 0.2849 0.2147
C3_2 C 0.3120(4) 0.2530(4) 0.1643(3)
C4_2 C 0.2690(4) 0.2817(4) 0.1131(3)
H3_2 H 0.2153 0.2592 0.1038
C5_2 C 0.3032(4) 0.3424(4) 0.0756(3)
H4_2 H 0.2736 0.3579 0.0396
C6_2 C 0.2814(4) 0.1813(4) 0.2020(3)
C7_2 C 0.3083(4) 0.1661(4) 0.2613(3)
H5_2 H 0.3493 0.2018 0.2792
C8_2 C 0.2766(5) 0.1005(5) 0.2943(3)
H6_2 H 0.2944 0.0928 0.3353
C9_2 C 0.2188(5) 0.0448(4) 0.2692(3)
C10_2 C 0.1901(4) 0.0602(3) 0.2091(3)
C11_2 C 0.2222(4) 0.1269(4) 0.1765(3)
H8_2 H 0.2036 0.1361 0.1358
C12_2 C 0.1275(4) 0.0036(4) 0.1793(3)
N1_2 N 0.3770(3) 0.3805(3) 0.0880(2)
N3_2 N 0.0458(3) 0.0059(3) 0.1835(2)
C39_2 C 0.1639(4) 0.0028(5) 0.4624(3)
H27_2 H 0.1213 0.0443 0.4591
C40 C 0.2287(4) 0.0133(5) 0.5035(4)
H28 H 0.2301 0.0621 0.5284
N15_2 N 0.0254(3) 0.1861(3) 0.2596(3)
H7_2 H 0.1992 0.9979 0.2918
C13_2 C 0.0765(3) 0.9085(3) 0.1183(3)
C14_2 C 0.0686(4) 0.8393(4) 0.0743(3)
C18_2 C 0.1174(4) 0.7091(4) 0.0295(3)
C19_2 C 0.1276(4) 0.7750(4) 0.0703(3)
H12_2 H 0.1757 0.7762 0.0959
C20_2 C 0.1825(4) 0.6420(4) 0.0232(3)
C21_2 C 0.2390(5) 0.6240(4) 0.0706(3)
H13_2 H 0.2335 0.6516 0.1088
C22_2 C 0.3027(4) 0.5664(4) 0.0618(3)
H14_2 H 0.3402 0.5557 0.0946
N2_2 N 0.0139(3) 0.9448(3) 0.1452(2)
N4_2 N 0.1496(3) 0.9436(3) 0.1390(2)
N5_2 N 0.2314(4) 0.9248(3) 0.1172(3)
H17_2 H 0.2601 0.9736 0.1116
H18_2 H 0.2590 0.8921 0.1447
N6_2 N 0.3139(3) 0.5254(3) 0.0096(3)
H25_2 H 0.0021 0.8008 0.2082
C37_2 C 0.0915(3) 0.9235(3) 0.3817(3)
C38_2 C 0.1607(4) 0.9314(4) 0.4257(3)
C41_2 C 0.2912(4) 0.9548(5) 0.5091(4)
H29_2 H 0.3345 0.9623 0.5384
C42_2 C 0.2909(4) 0.8826(4) 0.4705(3)
C43_2 C 0.2250(4) 0.8724(4) 0.4297(3)
H30_2 H 0.2238 0.8243 0.4041
C44_2 C 0.3580(4) 0.8175(4) 0.4768(3)
C45_2 C 0.3760(4) 0.7610(5) 0.4294(3)
H31_2 H 0.3484 0.7665 0.3912
C46_2 C 0.4336(4) 0.6973(4) 0.4382(3)
H32_2 H 0.4443 0.6598 0.4054
C47_2 C 0.4599(4) 0.7409(4) 0.5360(3)
H33_2 H 0.4890 0.7342 0.5736
C48_2 C 0.4036(4) 0.8067(4) 0.5297(3)
H34_2 H 0.3963 0.8450 0.5626
N10_2 N 0.0552(3) 0.9861(3) 0.3548(2)
N12_2 N 0.0564(3) 0.8504(3) 0.3610(2)
N13_2 N 0.0752(3) 0.7686(4) 0.3828(3)
H35_2 H 0.0264 0.7399 0.3884
H36_2 H 0.1079 0.7410 0.3553
N16_2 N 0.4746(3) 0.6861(3) 0.4904(3)
C17_2 C 0.0452(5) 0.7088(4) 0.9909(4)
H11_2 H 0.0377 0.6655 0.9616
C23_2 C 0.2591(4) 0.5401(4) 0.9640(3)
H15_2 H 0.2658 0.5110 0.9264
C24_2 C 0.1933(4) 0.5964(4) 0.9703(3)
H16_2 H 0.1550 0.6037 0.9374
Cd1_2 Cd 0.94265(2) 0.05735(2) 0.2500
N7_2 N 0.8770(3) 0.1195(3) 0.1620(2)
N8_2 N 0.8805(3) 0.1230(3) 0.3380(2)
C15_2 C 0.9972(5) 0.8361(4) 0.0376(3)
H9_2 H 0.9557 0.8787 0.0409
C25_2 C 0.6397(4) 0.5859(4) 0.3615(3)
H19_2 H 0.6100 0.5364 0.3507
C26_2 C 0.7026(4) 0.6141(4) 0.3215(3)
H20_2 H 0.7151 0.5837 0.2853
C27_2 C 0.7470(4) 0.6880(4) 0.3357(3)
C28_2 C 0.7183(4) 0.7310(4) 0.3869(3)
H21_2 H 0.7408 0.7847 0.3962
C29_2 C 0.6576(4) 0.6968(4) 0.4244(3)
H22_2 H 0.6421 0.7264 0.4604
C30_2 C 0.8187(4) 0.7186(4) 0.2980(3)
C31_2 C 0.8339(4) 0.6917(4) 0.2387(3)
H23_2 H 0.7982 0.6507 0.2208
C32_2 C 0.8995(5) 0.7234(5) 0.2057(3)
H24_2 H 0.9072 0.7056 0.1647
C33_2 C 0.9552(4) 0.7812(5) 0.2308(3)
C34_2 C 0.9398(3) 0.8099(4) 0.2909(3)
C35_2 C 0.8731(4) 0.7778(4) 0.3235(3)
H26_2 H 0.8639 0.7964 0.3642
C36_2 C 0.9964(4) 0.8725(4) 0.3207(3)
N9_2 N 0.6195(3) 0.6230(3) 0.4120(2)
N11_2 N 0.9941(3) 0.9542(3) 0.3165(2)
N14_2 N 0.8139(3) 0.9746(3) 0.2404(3)
C1_3 C 0.8603(4) 0.0859(4) 0.3885(3)
H1_3 H 0.8900 0.0364 0.3993
C2_3 C 0.7974(4) 0.1141(4) 0.4285(3)
H2_3 H 0.7849 0.0837 0.4647
C3_3 C 0.7530(4) 0.1880(4) 0.4143(3)
C4_3 C 0.7817(4) 0.2310(4) 0.3631(3)
H3_3 H 0.7592 0.2847 0.3538
C5_3 C 0.8424(4) 0.1968(4) 0.3256(3)
H4_3 H 0.8579 0.2264 0.2896
C6_3 C 0.6813(4) 0.2186(4) 0.4520(3)
C7_3 C 0.6661(4) 0.1917(4) 0.5113(3)
H5_3 H 0.7018 0.1507 0.5292
C8_3 C 0.6005(5) 0.2234(5) 0.5443(3)
H6_3 H 0.5928 0.2056 0.5853
C9_3 C 0.5448(4) 0.2812(5) 0.5192(3)
H7_3 H 0.4979 0.3008 0.5418
C10_3 C 0.5602(3) 0.3099(4) 0.4591(3)
C11_3 C 0.6269(4) 0.2778(4) 0.4265(3)
H8_3 H 0.6361 0.2964 0.3858
C12_3 C 0.5036(4) 0.3725(4) 0.4293(3)
C13_3 C 0.4085(3) 0.4235(3) 0.3683(3)
C14_3 C 0.3393(4) 0.4314(4) 0.3243(3)
C15_3 C 0.3361(4) 0.5028(5) 0.2876(3)
H9_3 H 0.3787 0.5443 0.2909
C16_2 C 0.2713(4) 0.5133(5) 0.2465(4)
H10_2 H 0.2699 0.5621 0.2216
C17_3 C 0.2088(4) 0.4548(5) 0.2409(4)
H11_3 H 0.1655 0.4623 0.2116
C18_3 C 0.2091(4) 0.3826(4) 0.2795(3)
C19_3 C 0.2750(4) 0.3724(4) 0.3203(3)
H12_3 H 0.2762 0.3243 0.3459
C20_3 C 0.1420(4) 0.3175(4) 0.2732(3)
C21_3 C 0.1240(4) 0.2610(5) 0.3206(3)
H13_3 H 0.1516 0.2665 0.3588
C22_3 C 0.0664(4) 0.1973(4) 0.3118(3)
H14_3 H 0.0557 0.1598 0.3446
C23_3 C 0.0401(4) 0.2409(4) 0.2140(3)
H15_3 H 0.0110 0.2342 0.1764
C24_3 C 0.0964(4) 0.3067(4) 0.2203(3)
H16_3 H 0.1037 0.3450 0.1874
N2_3 N 0.4448(3) 0.4861(3) 0.3952(2)
N3_3 N 0.5059(3) 0.4542(3) 0.4335(2)
N4_3 N 0.4436(3) 0.3504(3) 0.3890(2)
N5_3 N 0.4248(3) 0.2686(4) 0.3672(3)
H17_3 H 0.4736 0.2399 0.3616
H18_3 H 0.3921 0.2410 0.3947
C25_3 C 0.0859(4) 0.8603(4) 0.6115(3)
H19_3 H 0.0364 0.8900 0.6007
C26_3 C 0.1141(4) 0.7974(4) 0.5715(3)
H20_3 H 0.0837 0.7849 0.5353
C27_3 C 0.1880(4) 0.7530(4) 0.5857(3)
C28_3 C 0.2310(4) 0.7817(4) 0.6369(3)
H21_3 H 0.2847 0.7592 0.6462
C29_3 C 0.1968(4) 0.8424(4) 0.6744(3)
H22_3 H 0.2264 0.8579 0.7104
C30_3 C 0.2186(4) 0.6813(4) 0.5480(3)
C31_3 C 0.1917(4) 0.6661(4) 0.4887(3)
H23_3 H 0.1507 0.7018 0.4708
C32_3 C 0.2234(5) 0.6005(5) 0.4557(3)
H24_3 H 0.2056 0.5928 0.4147
C33_3 C 0.2812(5) 0.5448(4) 0.4808(3)
H25_3 H 0.3008 0.4979 0.4582
C34_3 C 0.3099(4) 0.5602(3) 0.5409(3)
C35_3 C 0.2778(4) 0.6269(4) 0.5735(3)
H26_3 H 0.2964 0.6361 0.6142
C36_3 C 0.3725(4) 0.5036(4) 0.5707(3)
C37_3 C 0.4235(3) 0.4085(3) 0.6317(3)
C38_3 C 0.4314(4) 0.3393(4) 0.6757(3)
C39_3 C 0.5028(5) 0.3361(4) 0.7124(3)
H27_3 H 0.5443 0.3787 0.7091
C40_2 C 0.5133(5) 0.2713(4) 0.7535(4)
H28_2 H 0.5621 0.2699 0.7784
C41_3 C 0.4548(5) 0.2088(4) 0.7591(4)
H29_3 H 0.4623 0.1655 0.7884
C42_3 C 0.3826(4) 0.2091(4) 0.7205(3)
C43_3 C 0.3724(4) 0.2750(4) 0.6797(3)
H30_3 H 0.3243 0.2762 0.6541
C44_3 C 0.3175(4) 0.1420(4) 0.7268(3)
C45_3 C 0.2610(5) 0.1240(4) 0.6794(3)
H31_3 H 0.2665 0.1516 0.6412
C46_3 C 0.1973(4) 0.0664(4) 0.6882(3)
H32_3 H 0.1598 0.0557 0.6554
C47_3 C 0.2409(4) 0.0401(4) 0.7860(3)
H33_3 H 0.2342 0.0110 0.8236
C48_3 C 0.3067(4) 0.0964(4) 0.7797(3)
H34_3 H 0.3450 0.1037 0.8126
N10_3 N 0.4861(3) 0.4448(3) 0.6048(2)
N11_3 N 0.4542(3) 0.5059(3) 0.5665(2)
N12_3 N 0.3504(3) 0.4436(3) 0.6110(2)
N13_3 N 0.2686(4) 0.4248(3) 0.6328(3)
H35_3 H 0.2399 0.4736 0.6384
H36_3 H 0.2410 0.3921 0.6053
C7_4 C 0.3339(4) 0.8083(4) 0.0113(3)
H5_4 H 0.2982 0.8493 0.0292
C8_4 C 0.3995(5) 0.7766(5) 0.0443(3)
H6_4 H 0.4072 0.7944 0.0853
C9_4 C 0.4552(4) 0.7188(5) 0.0192(3)
H7_4 H 0.5021 0.6992 0.0418
C25_4 C 0.9141(4) 0.1397(4) 0.1115(3)
H19_4 H 0.9636 0.1100 0.1007
C26_4 C 0.8859(4) 0.2026(4) 0.0715(3)
H20_4 H 0.9163 0.2151 0.0353
C27_4 C 0.8120(4) 0.2470(4) 0.0857(3)
C28_4 C 0.7690(4) 0.2183(4) 0.1369(3)
H21_4 H 0.7153 0.2408 0.1462
C29_4 C 0.8032(4) 0.1576(4) 0.1744(3)
H22_4 H 0.7736 0.1421 0.2104
C30_4 C 0.7814(4) 0.3187(4) 0.0480(3)
C34_4 C 0.6901(4) 0.4398(3) 0.0409(3)
C35_4 C 0.7222(4) 0.3731(4) 0.0735(3)
H26_4 H 0.7036 0.3639 0.1142
C36_4 C 0.6275(4) 0.4964(4) 0.0707(3)
C37_4 C 0.5765(3) 0.5915(3) 0.1317(3)
C38_4 C 0.5686(4) 0.6607(4) 0.1757(3)
C39_4 C 0.4972(5) 0.6639(4) 0.2124(3)
H27_4 H 0.4557 0.6213 0.2091
C40_3 C 0.4867(5) 0.7287(4) 0.2535(4)
H28_3 H 0.4379 0.7301 0.2784
C41_4 C 0.5452(5) 0.7912(4) 0.2591(4)
H29_4 H 0.5377 0.8345 0.2884
C42_4 C 0.6174(4) 0.7909(4) 0.2205(3)
C43_4 C 0.6276(4) 0.7250(4) 0.1797(3)
H30_4 H 0.6757 0.7238 0.1541
C44_4 C 0.6825(4) 0.8580(4) 0.2268(3)
C45_4 C 0.7390(5) 0.8760(4) 0.1794(3)
H31_4 H 0.7335 0.8484 0.1412
C46_4 C 0.8027(4) 0.9336(4) 0.1882(3)
H32_4 H 0.8402 0.9443 0.1554
C47_4 C 0.7591(4) 0.9599(4) 0.2860(3)
H33_4 H 0.7658 0.9890 0.3236
C48_4 C 0.6933(4) 0.9036(4) 0.2797(3)
H34_4 H 0.6550 0.8963 0.3126
N10_4 N 0.5139(3) 0.5552(3) 0.1048(2)
N11_4 N 0.5458(3) 0.4941(3) 0.0665(2)
N12_4 N 0.6496(3) 0.5564(3) 0.1110(2)
N13_4 N 0.7314(4) 0.5752(3) 0.1328(3)
H35_4 H 0.7601 0.5264 0.1384
H36_4 H 0.7590 0.6079 0.1053
C1_4 C 0.1397(4) 0.9141(4) 0.8885(3)
H1_4 H 0.1100 0.9636 0.8993
C2_4 C 0.2026(4) 0.8859(4) 0.9285(3)
H2_4 H 0.2151 0.9163 0.9647
C3_4 C 0.2470(4) 0.8120(4) 0.9143(3)
C4_4 C 0.2183(4) 0.7690(4) 0.8631(3)
H3_4 H 0.2408 0.7153 0.8538
C5_4 C 0.1576(4) 0.8032(4) 0.8256(3)
H4_4 H 0.1421 0.7736 0.7896
C6_4 C 0.3187(4) 0.7814(4) 0.9520(3)
C10_4 C 0.4398(3) 0.6901(4) 0.9591(3)
C11_4 C 0.3731(4) 0.7222(4) 0.9265(3)
H8_4 H 0.3639 0.7036 0.8858
C12_4 C 0.4964(4) 0.6275(4) 0.9293(3)
C13_4 C 0.5915(3) 0.5765(3) 0.8683(3)
C14_4 C 0.6607(4) 0.5686(4) 0.8243(3)
C15_4 C 0.6639(4) 0.4972(5) 0.7876(3)
H9_4 H 0.6213 0.4557 0.7909
C16_3 C 0.7287(4) 0.4867(5) 0.7465(4)
H10_3 H 0.7301 0.4379 0.7216
C17_4 C 0.7912(4) 0.5452(5) 0.7409(4)
H11_4 H 0.8345 0.5377 0.7116
C18_4 C 0.7909(4) 0.6174(4) 0.7795(3)
C19_4 C 0.7250(4) 0.6276(4) 0.8203(3)
H12_4 H 0.7238 0.6757 0.8459
C20_4 C 0.8580(4) 0.6825(4) 0.7732(3)
C21_4 C 0.8760(4) 0.7390(5) 0.8206(3)
H13_4 H 0.8484 0.7335 0.8588
C22_4 C 0.9336(4) 0.8027(4) 0.8118(3)
H14_4 H 0.9443 0.8402 0.8446
C23_4 C 0.9599(4) 0.7591(4) 0.7140(3)
H15_4 H 0.9890 0.7658 0.6764
C24_4 C 0.9036(4) 0.6933(4) 0.7203(3)
H16_4 H 0.8963 0.6550 0.6874
N2_4 N 0.5552(3) 0.5139(3) 0.8952(2)
N3_4 N 0.4941(3) 0.5458(3) 0.9335(2)
N4_4 N 0.5564(3) 0.6496(3) 0.8890(2)
N5_4 N 0.5752(3) 0.7314(4) 0.8672(3)
H17_4 H 0.5264 0.7601 0.8616
H18_4 H 0.6079 0.7590 0.8947
C31_4 C 0.8083(4) 0.3339(4) 0.9887(3)
H23_4 H 0.8493 0.2982 0.9708
C32_4 C 0.7766(5) 0.3995(5) 0.9557(3)
H24_4 H 0.7944 0.4072 0.9147
C33_4 C 0.7188(5) 0.4552(4) 0.9808(3)
H25_4 H 0.6992 0.5021 0.9582
C40_4 C 0.7713(4) 0.9867(5) 0.0035(4)
H28_4 H 0.7699 0.9379 0.0284
C16_4 C 0.9867(5) 0.7713(4) 0.9965(4)
H10_4 H 0.9379 0.7699 0.9716
Cl1 Cl 0.12061(15) 0.12061(15) 0.0000
O3 O 0.0983(10) 0.1793(10) 0.0487(8)
O4 O 0.1408(11) 0.0596(12) 0.0341(8)
Cl1_2 Cl 0.12061(15) 0.12061(15) 1.0000
O1 O 0.1793(10) 0.0983(10) 0.9513(8)
O2 O 0.0596(12) 0.1408(11) 0.9659(8)
Cl1_3 Cl 0.87939(15) 0.87939(15) 0.5000
O1_2 O 0.8207(10) 0.9017(10) 0.4513(8)
O2_2 O 0.9404(12) 0.8592(11) 0.4659(8)
O3_2 O 0.9017(10) 0.8207(10) 0.5487(8)
O4_2 O 0.8592(11) 0.9404(12) 0.5341(8)
Cl1_4 Cl 0.37939(15) 0.62061(15) 0.7500
O1_3 O 0.4017(10) 0.6793(10) 0.7013(8)
O2_3 O 0.3592(11) 0.5596(12) 0.7159(8)
O3_3 O 0.3207(10) 0.5983(10) 0.7987(8)
O4_3 O 0.4404(12) 0.6408(11) 0.7841(8)
Cl1_5 Cl 0.62061(15) 0.37939(15) 0.2500
O1_4 O 0.5983(10) 0.3207(10) 0.2013(8)
O2_4 O 0.6408(11) 0.4404(12) 0.2159(8)
O3_4 O 0.6793(10) 0.4017(10) 0.2987(8)
O4_4 O 0.5596(12) 0.3592(11) 0.2841(8)
Cl2 Cl 0.73196(15) 0.73196(15) 0.0000
O6 O 0.6630(10) 0.7830(13) 0.0014(18)
O7 O 0.7716(7) 0.7643(8) 0.0494(3)
Cl2_2 Cl 0.73196(15) 0.73196(15) 1.0000
O5 O 0.7643(8) 0.7716(7) 0.9506(3)
O8 O 0.7830(13) 0.6630(10) 0.9986(18)
Cl2_3 Cl 0.26804(15) 0.26804(15) 0.5000
O5_2 O 0.2357(8) 0.2284(7) 0.4506(3)
O6_2 O 0.3370(10) 0.2170(13) 0.5014(18)
O7_2 O 0.2284(7) 0.2357(8) 0.5494(3)
O8_2 O 0.2170(13) 0.3370(10) 0.4986(18)
Cl2_4 Cl 0.76804(15) 0.23196(15) 0.7500
O5_3 O 0.7284(7) 0.2643(8) 0.7006(3)
O6_3 O 0.7170(13) 0.1630(10) 0.7514(18)
O7_3 O 0.7357(8) 0.2716(7) 0.7994(3)
O8_3 O 0.8370(10) 0.2830(13) 0.7486(18)
Cl2_5 Cl 0.23196(15) 0.76804(15) 0.2500
O5_4 O 0.2716(7) 0.7357(8) 0.2006(3)
O6_4 O 0.2830(13) 0.8370(10) 0.2514(18)
O7_4 O 0.2643(8) 0.7284(7) 0.2994(3)
O8_4 O 0.1630(10) 0.7170(13) 0.2486(18)
loop_
_geom_bond_atom_site_label_1
_geom_bond_atom_site_label_2
_geom_bond_site_symmetry_1
_geom_bond_site_symmetry_2
C15 H9 1_555 1_555
C16 C15 1_555 1_555
H10 C16 1_555 1_555
C25 H19 1_555 1_555
C26 C25 1_555 1_555
H20 C26 1_555 1_555
C27 C26 1_555 1_555
C28 C27 1_555 1_555
H21 C28 1_555 1_555
C29 C28 1_555 1_555
H22 C29 1_555 1_555
C30 C27 1_555 1_555
C31 C30 1_555 1_555
H23 C31 1_555 1_555
C32 C31 1_555 1_555
H24 C32 1_555 1_555
C33 C32 1_555 1_555
C34 C33 1_555 1_555
C35 C30 1_555 1_555
H26 C35 1_555 1_555
C36 C34 1_555 1_555
Cd3_2 N9 1_555 1_555
N9 C25 1_555 1_555
C29 N9 1_555 1_555
C34 C35 1_555 1_555
C36 N11 1_555 1_555
N7 Cd1 1_555 1_555
N8 Cd1 1_555 1_555
H29 C41 1_555 1_555
C47 H33 1_555 1_555
H34 C48 1_555 1_555
C47 C48 1_555 1_555
C13 C14 1_555 1_555
H11 C17 1_555 1_555
C18 C17 1_555 1_555
C19 C14 1_555 1_555
H12 C19 1_555 1_555
C20 C18 1_555 1_555
C21 C20 1_555 1_555
H13 C21 1_555 1_555
C22 C21 1_555 1_555
H14 C22 1_555 1_555
C23 H15 1_555 1_555
C24 C20 1_555 1_555
H16 C24 1_555 1_555
N2 C13 1_555 1_555
N5 N4 1_555 1_555
H17 N5 1_555 1_555
H18 N5 1_555 1_555
N6 C22 1_555 1_555
C37 C38 1_555 1_555
C43 C38 1_555 1_555
H30 C43 1_555 1_555
C44 C42 1_555 1_555
C45 C44 1_555 1_555
H31 C45 1_555 1_555
C46 C45 1_555 1_555
H32 C46 1_555 1_555
Cd4 N6 1_555 1_555
Cd3_2 N16 1_555 1_555
N10 C37 1_555 1_555
N13 N12 1_555 1_555
H35 N13 1_555 1_555
H36 N13 1_555 1_555
N16 C46 1_555 1_555
C13 N4 1_555 1_555
C18 C19 1_555 1_555
C23 C24 1_555 1_555
C23 N6 1_555 1_555
C37 N12 1_555 1_555
C42 C43 1_555 1_555
C1 H1 1_555 1_555
C2 C1 1_555 1_555
H2 C2 1_555 1_555
C3 C2 1_555 1_555
C4 C3 1_555 1_555
H3 C4 1_555 1_555
C5 C4 1_555 1_555
H4 C5 1_555 1_555
C6 C3 1_555 1_555
C7 C6 1_555 1_555
H5 C7 1_555 1_555
C8 C7 1_555 1_555
H6 C8 1_555 1_555
C9 C8 1_555 1_555
C10 C9 1_555 1_555
C11 C6 1_555 1_555
H8 C11 1_555 1_555
C12 C10 1_555 1_555
N1 C1 1_555 1_555
N3 C12 1_555 1_555
C39 H27 1_555 1_555
Cd4 N1 1_555 1_555
C5 N1 1_555 1_555
C10 C11 1_555 1_555
C1_2 H1_2 1_555 1_555
C2_2 C1_2 1_555 1_555
H2_2 C2_2 1_555 1_555
C3_2 C2_2 1_555 1_555
C4_2 C3_2 1_555 1_555
H3_2 C4_2 1_555 1_555
C5_2 C4_2 1_555 1_555
H4_2 C5_2 1_555 1_555
C6_2 C3_2 1_555 1_555
C7_2 C6_2 1_555 1_555
H5_2 C7_2 1_555 1_555
C8_2 C7_2 1_555 1_555
H6_2 C8_2 1_555 1_555
C9_2 C8_2 1_555 1_555
C10_2 C9_2 1_555 1_555
C11_2 C6_2 1_555 1_555
H8_2 C11_2 1_555 1_555
C12_2 C10_2 1_555 1_555
N1_2 C1_2 1_555 1_555
N3_2 C12_2 1_555 1_555
C39_2 H27_2 1_555 1_555
C40 C39_2 1_555 1_555
H28 C40 1_555 1_555
Cd3 N1_2 1_555 1_555
C5_2 N1_2 1_555 1_555
C10_2 C11_2 1_555 1_555
C13_2 C14_2 1_555 1_555
C19_2 C14_2 1_555 1_555
H12_2 C19_2 1_555 1_555
C20_2 C18_2 1_555 1_555
C21_2 C20_2 1_555 1_555
H13_2 C21_2 1_555 1_555
C22_2 C21_2 1_555 1_555
H14_2 C22_2 1_555 1_555
N2_2 C13_2 1_555 1_555
N5_2 N4_2 1_555 1_555
H17_2 N5_2 1_555 1_555
H18_2 N5_2 1_555 1_555
N6_2 C22_2 1_555 1_555
C37_2 C38_2 1_555 1_555
H29_2 C41_2 1_555 1_555
C42_2 C41_2 1_555 1_555
C43_2 C38_2 1_555 1_555
H30_2 C43_2 1_555 1_555
C44_2 C42_2 1_555 1_555
C45_2 C44_2 1_555 1_555
H31_2 C45_2 1_555 1_555
C46_2 C45_2 1_555 1_555
H32_2 C46_2 1_555 1_555
C47_2 H33_2 1_555 1_555
C48_2 C44_2 1_555 1_555
H34_2 C48_2 1_555 1_555
Cd3 N6_2 1_555 1_555
Cd4 N16_2 1_555 1_555
N10_2 C37_2 1_555 1_555
N13_2 N12_2 1_555 1_555
H35_2 N13_2 1_555 1_555
H36_2 N13_2 1_555 1_555
N16_2 C46_2 1_555 1_555
C13_2 N4_2 1_555 1_555
C18_2 C19_2 1_555 1_555
C37_2 N12_2 1_555 1_555
C42_2 C43_2 1_555 1_555
C47_2 C48_2 1_555 1_555
C47_2 N16_2 1_555 1_555
H11_2 C17_2 1_555 1_555
C23_2 H15_2 1_555 1_555
H16_2 C24_2 1_555 1_555
C23_2 C24_2 1_555 1_555
N7_2 Cd1_2 1_555 1_555
N8_2 Cd1_2 1_555 1_555
C15_2 H9_2 1_555 1_555
C25_2 H19_2 1_555 1_555
C26_2 C25_2 1_555 1_555
H20_2 C26_2 1_555 1_555
C27_2 C26_2 1_555 1_555
C28_2 C27_2 1_555 1_555
H21_2 C28_2 1_555 1_555
C29_2 C28_2 1_555 1_555
H22_2 C29_2 1_555 1_555
C30_2 C27_2 1_555 1_555
C31_2 C30_2 1_555 1_555
H23_2 C31_2 1_555 1_555
C32_2 C31_2 1_555 1_555
H24_2 C32_2 1_555 1_555
C33_2 C32_2 1_555 1_555
C34_2 C33_2 1_555 1_555
C35_2 C30_2 1_555 1_555
H26_2 C35_2 1_555 1_555
C36_2 C34_2 1_555 1_555
Cd4 N9_2 1_555 1_555
N9_2 C25_2 1_555 1_555
C29_2 N9_2 1_555 1_555
C34_2 C35_2 1_555 1_555
C36_2 N11_2 1_555 1_555
C1_3 H1_3 1_555 1_555
C2_3 C1_3 1_555 1_555
H2_3 C2_3 1_555 1_555
C3_3 C2_3 1_555 1_555
C4_3 C3_3 1_555 1_555
H3_3 C4_3 1_555 1_555
C5_3 C4_3 1_555 1_555
H4_3 C5_3 1_555 1_555
C6_3 C3_3 1_555 1_555
C7_3 C6_3 1_555 1_555
H5_3 C7_3 1_555 1_555
C8_3 C7_3 1_555 1_555
H6_3 C8_3 1_555 1_555
C9_3 C8_3 1_555 1_555
H7_3 C9_3 1_555 1_555
C10_3 C9_3 1_555 1_555
C11_3 C6_3 1_555 1_555
H8_3 C11_3 1_555 1_555
C12_3 C10_3 1_555 1_555
C13_3 C14_3 1_555 1_555
C14_3 C15_3 1_555 1_555
C15_3 H9_3 1_555 1_555
C16_2 C15_3 1_555 1_555
H10_2 C16_2 1_555 1_555
C17_3 C16_2 1_555 1_555
H11_3 C17_3 1_555 1_555
C18_3 C17_3 1_555 1_555
C19_3 C14_3 1_555 1_555
H12_3 C19_3 1_555 1_555
C20_3 C18_3 1_555 1_555
C21_3 C20_3 1_555 1_555
H13_3 C21_3 1_555 1_555
C22_3 C21_3 1_555 1_555
H14_3 C22_3 1_555 1_555
C23_3 H15_3 1_555 1_555
C24_3 C20_3 1_555 1_555
H16_3 C24_3 1_555 1_555
Cd4 N3_3 1_555 1_555
N8_2 C1_3 1_555 1_555
N2_3 C13_3 1_555 1_555
N3_3 C12_3 1_555 1_555
N4_3 C12_3 1_555 1_555
N5_3 N4_3 1_555 1_555
H17_3 N5_3 1_555 1_555
H18_3 N5_3 1_555 1_555
N15_2 C22_3 1_555 1_555
C25_3 H19_3 1_555 1_555
C26_3 C25_3 1_555 1_555
H20_3 C26_3 1_555 1_555
C27_3 C26_3 1_555 1_555
C28_3 C27_3 1_555 1_555
H21_3 C28_3 1_555 1_555
C29_3 C28_3 1_555 1_555
H22_3 C29_3 1_555 1_555
C30_3 C27_3 1_555 1_555
C31_3 C30_3 1_555 1_555
H23_3 C31_3 1_555 1_555
C32_3 C31_3 1_555 1_555
H24_3 C32_3 1_555 1_555
C33_3 C32_3 1_555 1_555
H25_3 C33_3 1_555 1_555
C34_3 C33_3 1_555 1_555
C35_3 C30_3 1_555 1_555
H26_3 C35_3 1_555 1_555
C36_3 C34_3 1_555 1_555
C37_3 C38_3 1_555 1_555
C38_3 C39_3 1_555 1_555
C39_3 H27_3 1_555 1_555
C40_2 C39_3 1_555 1_555
H28_2 C40_2 1_555 1_555
C41_3 C40_2 1_555 1_555
H29_3 C41_3 1_555 1_555
C42_3 C41_3 1_555 1_555
C43_3 C38_3 1_555 1_555
H30_3 C43_3 1_555 1_555
C44_3 C42_3 1_555 1_555
C45_3 C44_3 1_555 1_555
H31_3 C45_3 1_555 1_555
C46_3 C45_3 1_555 1_555
H32_3 C46_3 1_555 1_555
C47_3 H33_3 1_555 1_555
C48_3 C44_3 1_555 1_555
H34_3 C48_3 1_555 1_555
N7 C25_3 1_555 1_555
N10_3 C37_3 1_555 1_555
N11_3 Cd4 1_555 1_555
N12_3 C36_3 1_555 1_555
N13_3 N12_3 1_555 1_555
H35_3 N13_3 1_555 1_555
H36_3 N13_3 1_555 1_555
N14 C46_3 1_555 1_555
C5_3 N8_2 1_555 1_555
C10_3 C11_3 1_555 1_555
C13_3 N4_3 1_555 1_555
C18_3 C19_3 1_555 1_555
C23_3 C24_3 1_555 1_555
C23_3 N15_2 1_555 1_555
N2_3 N3_3 1_555 1_555
C29_3 N7 1_555 1_555
C34_3 C35_3 1_555 1_555
C36_3 N11_3 1_555 1_555
C37_3 N12_3 1_555 1_555
C42_3 C43_3 1_555 1_555
C47_3 C48_3 1_555 1_555
C47_3 N14 1_555 1_555
N10_3 N11_3 1_555 1_555
H5_4 C7_4 1_555 1_555
C8_4 C7_4 1_555 1_555
H6_4 C8_4 1_555 1_555
C9_4 C8_4 1_555 1_555
H7_4 C9_4 1_555 1_555
C25_4 H19_4 1_555 1_555
C26_4 C25_4 1_555 1_555
H20_4 C26_4 1_555 1_555
C27_4 C26_4 1_555 1_555
C28_4 C27_4 1_555 1_555
H21_4 C28_4 1_555 1_555
C29_4 C28_4 1_555 1_555
H22_4 C29_4 1_555 1_555
C30_4 C27_4 1_555 1_555
C35_4 C30_4 1_555 1_555
H26_4 C35_4 1_555 1_555
C36_4 C34_4 1_555 1_555
C37_4 C38_4 1_555 1_555
C38_4 C39_4 1_555 1_555
C39_4 H27_4 1_555 1_555
C40_3 C39_4 1_555 1_555
H28_3 C40_3 1_555 1_555
C41_4 C40_3 1_555 1_555
H29_4 C41_4 1_555 1_555
C42_4 C41_4 1_555 1_555
C43_4 C38_4 1_555 1_555
H30_4 C43_4 1_555 1_555
C44_4 C42_4 1_555 1_555
C45_4 C44_4 1_555 1_555
H31_4 C45_4 1_555 1_555
C46_4 C45_4 1_555 1_555
H32_4 C46_4 1_555 1_555
C47_4 H33_4 1_555 1_555
C48_4 C44_4 1_555 1_555
H34_4 C48_4 1_555 1_555
N7_2 C25_4 1_555 1_555
N10_4 C37_4 1_555 1_555
N11_4 Cd3 1_555 1_555
N12_4 C36_4 1_555 1_555
N13_4 N12_4 1_555 1_555
H35_4 N13_4 1_555 1_555
H36_4 N13_4 1_555 1_555
N14_2 C46_4 1_555 1_555
C29_4 N7_2 1_555 1_555
C34_4 C35_4 1_555 1_555
C36_4 N11_4 1_555 1_555
C37_4 N12_4 1_555 1_555
C42_4 C43_4 1_555 1_555
C47_4 C48_4 1_555 1_555
C47_4 N14_2 1_555 1_555
N10_4 N11_4 1_555 1_555
C1_4 H1_4 1_555 1_555
C2_4 C1_4 1_555 1_555
H2_4 C2_4 1_555 1_555
C3_4 C2_4 1_555 1_555
C4_4 C3_4 1_555 1_555
H3_4 C4_4 1_555 1_555
C5_4 C4_4 1_555 1_555
H4_4 C5_4 1_555 1_555
C6_4 C3_4 1_555 1_555
C11_4 C6_4 1_555 1_555
H8_4 C11_4 1_555 1_555
C12_4 C10_4 1_555 1_555
C13_4 C14_4 1_555 1_555
C14_4 C15_4 1_555 1_555
C15_4 H9_4 1_555 1_555
C16_3 C15_4 1_555 1_555
H10_3 C16_3 1_555 1_555
C17_4 C16_3 1_555 1_555
H11_4 C17_4 1_555 1_555
C18_4 C17_4 1_555 1_555
C19_4 C14_4 1_555 1_555
H12_4 C19_4 1_555 1_555
C20_4 C18_4 1_555 1_555
C21_4 C20_4 1_555 1_555
H13_4 C21_4 1_555 1_555
C22_4 C21_4 1_555 1_555
H14_4 C22_4 1_555 1_555
C23_4 H15_4 1_555 1_555
C24_4 C20_4 1_555 1_555
H16_4 C24_4 1_555 1_555
Cd3_2 N3_4 1_555 1_555
N8 C1_4 1_555 1_555
N2_4 C13_4 1_555 1_555
N3_4 C12_4 1_555 1_555
N4_4 C12_4 1_555 1_555
N5_4 N4_4 1_555 1_555
H17_4 N5_4 1_555 1_555
H18_4 N5_4 1_555 1_555
N15 C22_4 1_555 1_555
H23_4 C31_4 1_555 1_555
C32_4 C31_4 1_555 1_555
H24_4 C32_4 1_555 1_555
C33_4 C32_4 1_555 1_555
H25_4 C33_4 1_555 1_555
C5_4 N8 1_555 1_555
C10_4 C11_4 1_555 1_555
C13_4 N4_4 1_555 1_555
C18_4 C19_4 1_555 1_555
C23_4 C24_4 1_555 1_555
C23_4 N15 1_555 1_555
N2_4 N3_4 1_555 1_555
H28_4 C40_4 1_555 1_555
H10_4 C16_4 1_555 1_555
O3 Cl1 1_555 1_555
O4 Cl1 1_555 1_555
Cl1_2 O1 1_555 1_555
O2 Cl1_2 1_555 1_555
Cl1_3 O1_2 1_555 1_555
O2_2 Cl1_3 1_555 1_555
O3_2 Cl1_3 1_555 1_555
O4_2 Cl1_3 1_555 1_555
Cl1_4 O1_3 1_555 1_555
O2_3 Cl1_4 1_555 1_555
O3_3 Cl1_4 1_555 1_555
O4_3 Cl1_4 1_555 1_555
Cl1_5 O1_4 1_555 1_555
O2_4 Cl1_5 1_555 1_555
O3_4 Cl1_5 1_555 1_555
O4_4 Cl1_5 1_555 1_555
O6 Cl2 1_555 1_555
O7 Cl2 1_555 1_555
Cl2_2 O5 1_555 1_555
O8 Cl2_2 1_555 1_555
Cl2_3 O5_2 1_555 1_555
O6_2 Cl2_3 1_555 1_555
O7_2 Cl2_3 1_555 1_555
O8_2 Cl2_3 1_555 1_555
Cl2_4 O5_3 1_555 1_555
O6_3 Cl2_4 1_555 1_555
O7_3 Cl2_4 1_555 1_555
O8_3 Cl2_4 1_555 1_555
Cl2_5 O5_4 1_555 1_555
O6_4 Cl2_5 1_555 1_555
O7_4 Cl2_5 1_555 1_555
O8_4 Cl2_5 1_555 1_555

#END
