
###############################################################################
#
# This file contains modified crystal structure data generated from the
# MOF subset of the Cambridge Structural Database (CSD) v543 
# hosted by the Cambridge Crystallographic Data Centre (CCDC).
#
# This work is licensed under the Creative Commons
# Attribution-NonCommercial-ShareAlike 4.0 International License.
# To view a copy of this license, visit
# http://creativecommons.org/licenses/by-nc-sa/4.0/
# or send a letter to
# Creative Commons, PO Box 1866, Mountain View, CA 94042, USA.
#
# CIF created using the CSD Python API on 29 September 2022
# The structure has been converted into the P1 space group
# The structure has a 3D framework
# The original CSD entry OKIVIO is in the tetragonal crystal system
# The original CSD entry OKIVIO is in a Sohncke space group
# The framework has been calculated to contain at least 10.0% void space
# The void calculation uses a probe of radius 1.32A, grid spacing 0.4
# The framework is charged, counterions have been retained in the structure
#
###############################################################################

data_OKIVIO
_chemical_formula_moiety         '(C192 H144 Cd3 Cl10 N48 O32 2-)n'
_symmetry_cell_setting           triclinic
_symmetry_space_group_name_H-M   'P 1'
_symmetry_Int_Tables_number      1
_space_group_name_Hall           'P 1'
loop_
_symmetry_equiv_pos_site_id
_symmetry_equiv_pos_as_xyz
1 x,y,z
_cell_length_a                   15.8318(13)
_cell_length_b                   15.8318(13)
_cell_length_c                   21.957(4)
_cell_angle_alpha                90
_cell_angle_beta                 90
_cell_angle_gamma                90
_cell_volume                     5503.43
loop_
_atom_site_label
_atom_site_type_symbol
_atom_site_fract_x
_atom_site_fract_y
_atom_site_fract_z
C15 C 0.0023(5) 0.1609(5) 0.4627(3)
H9 H 0.0420 0.1178 0.4601
C16 C 0.0134(5) 0.2268(5) 0.5036(4)
H10 H 0.0620 0.2289 0.5273
C25 C 0.3593(4) 0.4162(4) 0.1390(3)
H19 H 0.3885 0.4650 0.1497
C26 C 0.2982(4) 0.3876(4) 0.1774(3)
H20 H 0.2855 0.4178 0.2126
C27 C 0.2542(4) 0.3129(4) 0.1645(3)
C28 C 0.2818(5) 0.2694(5) 0.1135(3)
H21 H 0.2588 0.2168 0.1043
C29 C 0.3435(4) 0.3037(5) 0.0762(3)
H22 H 0.3603 0.2735 0.0420
C30 C 0.1826(4) 0.2814(4) 0.2020(3)
C31 C 0.1682(4) 0.3080(4) 0.2617(3)
H23 H 0.2042 0.3471 0.2797
C32 C 0.1009(5) 0.2767(6) 0.2937(3)
H24 H 0.0919 0.2957 0.3333
C33 C 0.0467(4) 0.2187(5) 0.2698(3)
H25 H 0.0016 0.1983 0.2927
C34 C 0.0603(4) 0.1900(4) 0.2096(3)
C35 C 0.1270(4) 0.2229(4) 0.1767(3)
H26 H 0.1349 0.2056 0.1366
C36 C 0.0040(4) 0.1278(4) 0.1807(3)
Cd3 Cd 0.44259(2) 0.44259(2) 0.0000
N9 N 0.3796(4) 0.3781(4) 0.0871(2)
N10 N 0.0056(3) 0.0467(3) 0.1854(2)
N14 N 0.1857(3) 0.0246(3) 0.2589(2)
Cd3_2 Cd 0.44259(2) 0.44259(2) 1.0000
Cd1 Cd 0.05741(2) 0.94259(2) 0.2500
N7 N 0.1219(4) 0.8796(4) 0.3371(2)
N8 N 0.1204(4) 0.8781(4) 0.1629(2)
C13 C 0.9233(4) 0.0912(4) 0.3821(3)
C14 C 0.9308(4) 0.1600(4) 0.4255(3)
C17 C 0.9535(5) 0.2888(4) 0.5096(3)
H11 H 0.9597 0.3304 0.5391
C18 C 0.8844(4) 0.2893(4) 0.4717(3)
C19 C 0.8735(4) 0.2238(4) 0.4302(3)
H12 H 0.8261 0.2236 0.4051
C20 C 0.8172(4) 0.3570(4) 0.4773(3)
C21 C 0.8070(5) 0.4024(5) 0.5307(3)
H13 H 0.8443 0.3949 0.5629
C22 C 0.7402(4) 0.4595(5) 0.5357(3)
H14 H 0.7335 0.4881 0.5724
C23 C 0.6991(5) 0.4329(4) 0.4388(3)
H15 H 0.6627 0.4436 0.4064
C24 C 0.7616(5) 0.3759(4) 0.4299(3)
H16 H 0.7675 0.3495 0.3923
N3 N 0.9863(4) 0.0552(3) 0.3543(2)
N4 N 0.8496(4) 0.0553(3) 0.3611(2)
N5 N 0.7683(4) 0.0719(4) 0.3827(3)
H17 H 0.7425 0.0233 0.3910
H18 H 0.7394 0.0996 0.3543
N6 N 0.6857(3) 0.4754(3) 0.4911(2)
C37 C 0.9088(4) 0.0767(4) 0.1179(3)
C38 C 0.8400(4) 0.0692(4) 0.0745(3)
C42 C 0.7107(4) 0.1156(4) 0.0283(3)
C43 C 0.7762(4) 0.1265(4) 0.0698(3)
H30 H 0.7764 0.1739 0.0949
C44 C 0.6430(4) 0.1828(4) 0.0227(3)
C47 C 0.5671(4) 0.3009(5) 0.0612(3)
H33 H 0.5564 0.3373 0.0936
C48 C 0.6241(4) 0.2384(5) 0.0701(3)
H34 H 0.6505 0.2325 0.1077
Cd4 Cd 0.55741(2) 0.55741(2) 0.5000
N11 N 0.9448(3) 0.0137(4) 0.1457(2)
N12 N 0.9447(3) 0.1504(4) 0.1389(2)
N13 N 0.9281(4) 0.2317(4) 0.1173(3)
H35 H 0.9767 0.2575 0.1090
H36 H 0.9004 0.2606 0.1457
N16 N 0.5246(3) 0.3143(3) 0.0089(2)
C41 C 0.7112(4) 0.0465(5) 0.9904(3)
H29 H 0.6696 0.0403 0.9609
C45 C 0.5976(5) 0.1930(5) 0.9693(3)
H31 H 0.6051 0.1557 0.9371
C46 C 0.5405(5) 0.2598(4) 0.9643(3)
H32 H 0.5119 0.2665 0.9276
C1 C 0.5838(4) 0.6407(4) 0.3610(3)
H1 H 0.5350 0.6115 0.3503
C2 C 0.6124(4) 0.7018(4) 0.3226(3)
H2 H 0.5822 0.7145 0.2874
C3 C 0.6871(4) 0.7458(4) 0.3355(3)
C4 C 0.7306(5) 0.7182(5) 0.3865(3)
H3 H 0.7832 0.7412 0.3957
C5 C 0.6963(5) 0.6565(4) 0.4238(3)
H4 H 0.7265 0.6397 0.4580
C6 C 0.7186(4) 0.8174(4) 0.2980(3)
C7 C 0.6920(4) 0.8318(4) 0.2383(3)
H5 H 0.6529 0.7958 0.2203
C8 C 0.7233(6) 0.8991(5) 0.2063(3)
H6 H 0.7043 0.9081 0.1667
C9 C 0.7813(5) 0.9533(4) 0.2302(3)
H7 H 0.8017 0.9984 0.2073
C10 C 0.8100(4) 0.9397(4) 0.2904(3)
C11 C 0.7771(4) 0.8730(4) 0.3233(3)
H8 H 0.7944 0.8651 0.3634
C12 C 0.8722(4) 0.9960(4) 0.3193(3)
N1 N 0.6219(4) 0.6204(4) 0.4129(2)
N2 N 0.9533(3) 0.9944(3) 0.3146(2)
C39 C 0.8391(5) 0.9977(5) 0.0373(3)
H27 H 0.8822 0.9580 0.0399
N15 N 0.9754(3) 0.8143(3) 0.2411(2)
C1_2 C 0.4162(4) 0.3593(4) 0.8610(3)
H1_2 H 0.4650 0.3885 0.8503
C2_2 C 0.3876(4) 0.2982(4) 0.8226(3)
H2_2 H 0.4178 0.2855 0.7874
C3_2 C 0.3129(4) 0.2542(4) 0.8355(3)
C4_2 C 0.2694(5) 0.2818(5) 0.8865(3)
H3_2 H 0.2168 0.2588 0.8957
C5_2 C 0.3037(5) 0.3435(4) 0.9238(3)
H4_2 H 0.2735 0.3603 0.9580
C6_2 C 0.2814(4) 0.1826(4) 0.7980(3)
C7_2 C 0.3080(4) 0.1682(4) 0.7383(3)
H5_2 H 0.3471 0.2042 0.7203
C8_2 C 0.2767(6) 0.1009(5) 0.7063(3)
H6_2 H 0.2957 0.0919 0.6667
C9_2 C 0.2187(5) 0.0467(4) 0.7302(3)
H7_2 H 0.1983 0.0016 0.7073
C10_2 C 0.1900(4) 0.0603(4) 0.7904(3)
C11_2 C 0.2229(4) 0.1270(4) 0.8233(3)
H8_2 H 0.2056 0.1349 0.8634
C12_2 C 0.1278(4) 0.0040(4) 0.8193(3)
N1_2 N 0.3781(4) 0.3796(4) 0.9129(2)
N2_2 N 0.0467(3) 0.0056(3) 0.8146(2)
C39_2 C 0.1609(5) 0.0023(5) 0.5373(3)
H27_2 H 0.1178 0.0420 0.5399
C40 C 0.2268(5) 0.0134(5) 0.4964(4)
H28 H 0.2289 0.0620 0.4727
N15_2 N 0.0246(3) 0.1857(3) 0.7411(2)
C17_2 C 0.0465(5) 0.7112(4) 0.0096(3)
H11_2 H 0.0403 0.6696 0.0391
C21_2 C 0.1930(5) 0.5976(5) 0.0307(3)
H13_2 H 0.1557 0.6051 0.0629
C22_2 C 0.2598(4) 0.5405(5) 0.0357(3)
H14_2 H 0.2665 0.5119 0.0724
C13_2 C 0.0767(4) 0.9088(4) 0.8821(3)
C14_2 C 0.0692(4) 0.8400(4) 0.9255(3)
C18_2 C 0.1156(4) 0.7107(4) 0.9717(3)
C19_2 C 0.1265(4) 0.7762(4) 0.9302(3)
H12_2 H 0.1739 0.7764 0.9051
C20_2 C 0.1828(4) 0.6430(4) 0.9773(3)
C23_2 C 0.3009(5) 0.5671(4) 0.9388(3)
H15_2 H 0.3373 0.5564 0.9064
C24_2 C 0.2384(5) 0.6241(4) 0.9299(3)
H16_2 H 0.2325 0.6505 0.8923
N3_2 N 0.0137(4) 0.9448(3) 0.8543(2)
N4_2 N 0.1504(4) 0.9447(3) 0.8611(2)
N5_2 N 0.2317(4) 0.9281(4) 0.8827(3)
H17_2 H 0.2575 0.9767 0.8910
H18_2 H 0.2606 0.9004 0.8543
N6_2 N 0.3143(3) 0.5246(3) 0.9911(2)
C37_2 C 0.0912(4) 0.9233(4) 0.6179(3)
C38_2 C 0.1600(4) 0.9308(4) 0.5745(3)
C41_2 C 0.2888(4) 0.9535(5) 0.4904(3)
H29_2 H 0.3304 0.9597 0.4609
C42_2 C 0.2893(4) 0.8844(4) 0.5283(3)
C43_2 C 0.2238(4) 0.8735(4) 0.5698(3)
H30_2 H 0.2236 0.8261 0.5949
C44_2 C 0.3570(4) 0.8172(4) 0.5227(3)
C45_2 C 0.4024(5) 0.8070(5) 0.4693(3)
H31_2 H 0.3949 0.8443 0.4371
C46_2 C 0.4595(5) 0.7402(4) 0.4643(3)
H32_2 H 0.4881 0.7335 0.4276
C47_2 C 0.4329(4) 0.6991(5) 0.5612(3)
H33_2 H 0.4436 0.6627 0.5936
C48_2 C 0.3759(4) 0.7616(5) 0.5701(3)
H34_2 H 0.3495 0.7675 0.6077
N11_2 N 0.0552(3) 0.9863(4) 0.6457(2)
N12_2 N 0.0553(3) 0.8496(4) 0.6389(2)
N13_2 N 0.0719(4) 0.7683(4) 0.6173(3)
H35_2 H 0.0233 0.7425 0.6090
H36_2 H 0.0996 0.7394 0.6457
N16_2 N 0.4754(3) 0.6857(3) 0.5089(2)
Cd1_2 Cd 0.94259(2) 0.05741(2) 0.7500
N7_2 N 0.8781(4) 0.1204(4) 0.8371(2)
N8_2 N 0.8796(4) 0.1219(4) 0.6629(2)
C15_2 C 0.9977(5) 0.8391(5) 0.9627(3)
H9_2 H 0.9580 0.8822 0.9601
C25_2 C 0.6407(4) 0.5838(4) 0.6390(3)
H19_2 H 0.6115 0.5350 0.6497
C26_2 C 0.7018(4) 0.6124(4) 0.6774(3)
H20_2 H 0.7145 0.5822 0.7126
C27_2 C 0.7458(4) 0.6871(4) 0.6645(3)
C28_2 C 0.7182(5) 0.7306(5) 0.6135(3)
H21_2 H 0.7412 0.7832 0.6043
C29_2 C 0.6565(4) 0.6963(5) 0.5762(3)
H22_2 H 0.6397 0.7265 0.5420
C30_2 C 0.8174(4) 0.7186(4) 0.7020(3)
C31_2 C 0.8318(4) 0.6920(4) 0.7617(3)
H23_2 H 0.7958 0.6529 0.7797
C32_2 C 0.8991(5) 0.7233(6) 0.7937(3)
H24_2 H 0.9081 0.7043 0.8333
C33_2 C 0.9533(4) 0.7813(5) 0.7698(3)
H25_2 H 0.9984 0.8017 0.7927
C34_2 C 0.9397(4) 0.8100(4) 0.7096(3)
C35_2 C 0.8730(4) 0.7771(4) 0.6767(3)
H26_2 H 0.8651 0.7944 0.6366
C36_2 C 0.9960(4) 0.8722(4) 0.6807(3)
N9_2 N 0.6204(4) 0.6219(4) 0.5871(2)
N10_2 N 0.9944(3) 0.9533(3) 0.6854(2)
N14_2 N 0.8143(3) 0.9754(3) 0.7589(2)
C1_3 C 0.8593(4) 0.0838(4) 0.6110(3)
H1_3 H 0.8885 0.0350 0.6003
C2_3 C 0.7982(4) 0.1124(4) 0.5726(3)
H2_3 H 0.7855 0.0822 0.5374
C3_3 C 0.7542(4) 0.1871(4) 0.5855(3)
C4_3 C 0.7818(5) 0.2306(5) 0.6365(3)
H3_3 H 0.7588 0.2832 0.6457
C5_3 C 0.8435(4) 0.1963(5) 0.6738(3)
H4_3 H 0.8603 0.2265 0.7080
C6_3 C 0.6826(4) 0.2186(4) 0.5480(3)
C7_3 C 0.6682(4) 0.1920(4) 0.4883(3)
H5_3 H 0.7042 0.1529 0.4703
C8_3 C 0.6009(5) 0.2233(6) 0.4563(3)
H6_3 H 0.5919 0.2043 0.4167
C9_3 C 0.5467(4) 0.2813(5) 0.4802(3)
H7_3 H 0.5016 0.3017 0.4573
C10_3 C 0.5603(4) 0.3100(4) 0.5404(3)
C11_3 C 0.6270(4) 0.2771(4) 0.5733(3)
H8_3 H 0.6349 0.2944 0.6134
C12_3 C 0.5040(4) 0.3722(4) 0.5693(3)
C13_3 C 0.4088(4) 0.4233(4) 0.6321(3)
C14_3 C 0.3400(4) 0.4308(4) 0.6755(3)
C15_3 C 0.3391(5) 0.5023(5) 0.7127(3)
H9_3 H 0.3822 0.5420 0.7101
C16_2 C 0.2732(5) 0.5134(5) 0.7536(4)
H10_2 H 0.2711 0.5620 0.7773
C17_3 C 0.2112(4) 0.4535(5) 0.7596(3)
H11_3 H 0.1696 0.4597 0.7891
C18_3 C 0.2107(4) 0.3844(4) 0.7217(3)
C19_3 C 0.2762(4) 0.3735(4) 0.6802(3)
H12_3 H 0.2764 0.3261 0.6551
C20_3 C 0.1430(4) 0.3172(4) 0.7273(3)
C21_3 C 0.0976(5) 0.3070(5) 0.7807(3)
H13_3 H 0.1051 0.3443 0.8129
C22_3 C 0.0405(5) 0.2402(4) 0.7857(3)
H14_3 H 0.0119 0.2335 0.8224
C23_3 C 0.0671(4) 0.1991(5) 0.6888(3)
H15_3 H 0.0564 0.1627 0.6564
C24_3 C 0.1241(4) 0.2616(5) 0.6799(3)
H16_3 H 0.1505 0.2675 0.6423
N2_3 N 0.5056(3) 0.4533(3) 0.5646(2)
N3_3 N 0.4448(3) 0.4863(4) 0.6043(2)
N4_3 N 0.4447(3) 0.3496(4) 0.6111(2)
N5_3 N 0.4281(4) 0.2683(4) 0.6327(3)
H17_3 H 0.4767 0.2425 0.6410
H18_3 H 0.4004 0.2394 0.6043
C25_3 C 0.0838(4) 0.8593(4) 0.3890(3)
H19_3 H 0.0350 0.8885 0.3997
C26_3 C 0.1124(4) 0.7982(4) 0.4274(3)
H20_3 H 0.0822 0.7855 0.4626
C27_3 C 0.1871(4) 0.7542(4) 0.4145(3)
C28_3 C 0.2306(5) 0.7818(5) 0.3635(3)
H21_3 H 0.2832 0.7588 0.3543
C29_3 C 0.1963(5) 0.8435(4) 0.3262(3)
H22_3 H 0.2265 0.8603 0.2920
C30_3 C 0.2186(4) 0.6826(4) 0.4520(3)
C31_3 C 0.1920(4) 0.6682(4) 0.5117(3)
H23_3 H 0.1529 0.7042 0.5297
C32_3 C 0.2233(6) 0.6009(5) 0.5437(3)
H24_3 H 0.2043 0.5919 0.5833
C33_3 C 0.2813(5) 0.5467(4) 0.5198(3)
H25_3 H 0.3017 0.5016 0.5427
C34_3 C 0.3100(4) 0.5603(4) 0.4596(3)
C35_3 C 0.2771(4) 0.6270(4) 0.4267(3)
H26_3 H 0.2944 0.6349 0.3866
C36_3 C 0.3722(4) 0.5040(4) 0.4307(3)
C37_3 C 0.4233(4) 0.4088(4) 0.3679(3)
C38_3 C 0.4308(4) 0.3400(4) 0.3245(3)
C39_3 C 0.5023(5) 0.3391(5) 0.2873(3)
H27_3 H 0.5420 0.3822 0.2899
C40_2 C 0.5134(5) 0.2732(5) 0.2464(4)
H28_2 H 0.5620 0.2711 0.2227
C41_3 C 0.4535(5) 0.2112(4) 0.2404(3)
H29_3 H 0.4597 0.1696 0.2109
C42_3 C 0.3844(4) 0.2107(4) 0.2783(3)
C43_3 C 0.3735(4) 0.2762(4) 0.3198(3)
H30_3 H 0.3261 0.2764 0.3449
C44_3 C 0.3172(4) 0.1430(4) 0.2727(3)
C45_3 C 0.3070(5) 0.0976(5) 0.2193(3)
H31_3 H 0.3443 0.1051 0.1871
C46_3 C 0.2402(4) 0.0405(5) 0.2143(3)
H32_3 H 0.2335 0.0119 0.1776
C47_3 C 0.1991(5) 0.0671(4) 0.3112(3)
H33_3 H 0.1627 0.0564 0.3436
C48_3 C 0.2616(5) 0.1241(4) 0.3201(3)
H34_3 H 0.2675 0.1505 0.3577
N10_3 N 0.4533(3) 0.5056(3) 0.4354(2)
N11_3 N 0.4863(4) 0.4448(3) 0.3957(2)
N12_3 N 0.3496(4) 0.4447(3) 0.3889(2)
N13_3 N 0.2683(4) 0.4281(4) 0.3673(3)
H35_3 H 0.2425 0.4767 0.3590
H36_3 H 0.2394 0.4004 0.3957
C1_4 C 0.1407(4) 0.9162(4) 0.1110(3)
H1_4 H 0.1115 0.9650 0.1003
C2_4 C 0.2018(4) 0.8876(4) 0.0726(3)
H2_4 H 0.2145 0.9178 0.0374
C3_4 C 0.2458(4) 0.8129(4) 0.0855(3)
C4_4 C 0.2182(5) 0.7694(5) 0.1365(3)
H3_4 H 0.2412 0.7168 0.1457
C5_4 C 0.1565(4) 0.8037(5) 0.1738(3)
H4_4 H 0.1397 0.7735 0.2080
C6_4 C 0.3174(4) 0.7814(4) 0.0480(3)
C10_4 C 0.4397(4) 0.6900(4) 0.0404(3)
C11_4 C 0.3730(4) 0.7229(4) 0.0733(3)
H8_4 H 0.3651 0.7056 0.1134
C12_4 C 0.4960(4) 0.6278(4) 0.0693(3)
C13_4 C 0.5912(4) 0.5767(4) 0.1321(3)
C14_4 C 0.6600(4) 0.5692(4) 0.1755(3)
C15_4 C 0.6609(5) 0.4977(5) 0.2127(3)
H9_4 H 0.6178 0.4580 0.2101
C16_3 C 0.7268(5) 0.4866(5) 0.2536(4)
H10_3 H 0.7289 0.4380 0.2773
C17_4 C 0.7888(4) 0.5465(5) 0.2596(3)
H11_4 H 0.8304 0.5403 0.2891
C18_4 C 0.7893(4) 0.6156(4) 0.2217(3)
C19_4 C 0.7238(4) 0.6265(4) 0.1802(3)
H12_4 H 0.7236 0.6739 0.1551
C20_4 C 0.8570(4) 0.6828(4) 0.2273(3)
C21_4 C 0.9024(5) 0.6930(5) 0.2807(3)
H13_4 H 0.8949 0.6557 0.3129
C22_4 C 0.9595(5) 0.7598(4) 0.2857(3)
H14_4 H 0.9881 0.7665 0.3224
C23_4 C 0.9329(4) 0.8009(5) 0.1888(3)
H15_4 H 0.9436 0.8373 0.1564
C24_4 C 0.8759(4) 0.7384(5) 0.1799(3)
H16_4 H 0.8495 0.7325 0.1423
N2_4 N 0.4944(3) 0.5467(3) 0.0646(2)
N3_4 N 0.5552(3) 0.5137(4) 0.1043(2)
N4_4 N 0.5553(3) 0.6504(4) 0.1111(2)
N5_4 N 0.5719(4) 0.7317(4) 0.1327(3)
H17_4 H 0.5233 0.7575 0.1410
H18_4 H 0.5996 0.7606 0.1043
C31_4 C 0.8080(4) 0.3318(4) 0.0117(3)
H23_4 H 0.8471 0.2958 0.0297
C32_4 C 0.7767(6) 0.3991(5) 0.0437(3)
H24_4 H 0.7957 0.4081 0.0833
C33_4 C 0.7187(5) 0.4533(4) 0.0198(3)
H25_4 H 0.6983 0.4984 0.0427
C7_4 C 0.3318(4) 0.8080(4) 0.9883(3)
H5_4 H 0.2958 0.8471 0.9703
C8_4 C 0.3991(5) 0.7767(6) 0.9563(3)
H6_4 H 0.4081 0.7957 0.9167
C9_4 C 0.4533(4) 0.7187(5) 0.9802(3)
H7_4 H 0.4984 0.6983 0.9573
C25_4 C 0.9162(4) 0.1407(4) 0.8890(3)
H19_4 H 0.9650 0.1115 0.8997
C26_4 C 0.8876(4) 0.2018(4) 0.9274(3)
H20_4 H 0.9178 0.2145 0.9626
C27_4 C 0.8129(4) 0.2458(4) 0.9145(3)
C28_4 C 0.7694(5) 0.2182(5) 0.8635(3)
H21_4 H 0.7168 0.2412 0.8543
C29_4 C 0.8037(5) 0.1565(4) 0.8262(3)
H22_4 H 0.7735 0.1397 0.7920
C30_4 C 0.7814(4) 0.3174(4) 0.9520(3)
C34_4 C 0.6900(4) 0.4397(4) 0.9596(3)
C35_4 C 0.7229(4) 0.3730(4) 0.9267(3)
H26_4 H 0.7056 0.3651 0.8866
C36_4 C 0.6278(4) 0.4960(4) 0.9307(3)
C37_4 C 0.5767(4) 0.5912(4) 0.8679(3)
C38_4 C 0.5692(4) 0.6600(4) 0.8245(3)
C39_4 C 0.4977(5) 0.6609(5) 0.7873(3)
H27_4 H 0.4580 0.6178 0.7899
C40_3 C 0.4866(5) 0.7268(5) 0.7464(4)
H28_3 H 0.4380 0.7289 0.7227
C41_4 C 0.5465(5) 0.7888(4) 0.7404(3)
H29_4 H 0.5403 0.8304 0.7109
C42_4 C 0.6156(4) 0.7893(4) 0.7783(3)
C43_4 C 0.6265(4) 0.7238(4) 0.8198(3)
H30_4 H 0.6739 0.7236 0.8449
C44_4 C 0.6828(4) 0.8570(4) 0.7727(3)
C45_4 C 0.6930(5) 0.9024(5) 0.7193(3)
H31_4 H 0.6557 0.8949 0.6871
C46_4 C 0.7598(4) 0.9595(5) 0.7143(3)
H32_4 H 0.7665 0.9881 0.6776
C47_4 C 0.8009(5) 0.9329(4) 0.8112(3)
H33_4 H 0.8373 0.9436 0.8436
C48_4 C 0.7384(5) 0.8759(4) 0.8201(3)
H34_4 H 0.7325 0.8495 0.8577
N10_4 N 0.5467(3) 0.4944(3) 0.9354(2)
N11_4 N 0.5137(4) 0.5552(3) 0.8957(2)
N12_4 N 0.6504(4) 0.5553(3) 0.8889(2)
N13_4 N 0.7317(4) 0.5719(4) 0.8673(3)
H35_4 H 0.7575 0.5233 0.8590
H36_4 H 0.7606 0.5996 0.8957
C40_4 C 0.7732(5) 0.9866(5) 0.9964(4)
H28_4 H 0.7711 0.9380 0.9727
C16_4 C 0.9866(5) 0.7732(5) 0.0036(4)
H10_4 H 0.9380 0.7711 0.0273
Cl1 Cl 0.12052(15) 0.12052(15) 0.0000
O1 O 0.1762(10) 0.1140(12) 0.0452(8)
O2 O 0.0546(10) 0.1345(18) 0.0320(5)
Cl1_2 Cl 0.12052(15) 0.12052(15) 1.0000
O3 O 0.1140(12) 0.1762(10) 0.9548(8)
O4 O 0.1345(18) 0.0546(10) 0.9680(5)
Cl1_3 Cl 0.87948(15) 0.87948(15) 0.5000
O1_2 O 0.8238(10) 0.8860(12) 0.5452(8)
O2_2 O 0.9454(10) 0.8655(18) 0.5320(5)
O3_2 O 0.8860(12) 0.8238(10) 0.4548(8)
O4_2 O 0.8655(18) 0.9454(10) 0.4680(5)
Cl1_4 Cl 0.37948(15) 0.62052(15) 0.2500
O1_3 O 0.3860(12) 0.6762(10) 0.2952(8)
O2_3 O 0.3655(18) 0.5546(10) 0.2820(5)
O3_3 O 0.3238(10) 0.6140(12) 0.2048(8)
O4_3 O 0.4454(10) 0.6345(18) 0.2180(5)
Cl1_5 Cl 0.62052(15) 0.37948(15) 0.7500
O1_4 O 0.6140(12) 0.3238(10) 0.7952(8)
O2_4 O 0.6345(18) 0.4454(10) 0.7820(5)
O3_4 O 0.6762(10) 0.3860(12) 0.7048(8)
O4_4 O 0.5546(10) 0.3655(18) 0.7180(5)
Cl2 Cl 0.73070(13) 0.73070(13) 0.0000
O5 O 0.7706(8) 0.7536(11) 0.0487(4)
O8 O 0.6700(15) 0.7862(13) 0.016(2)
Cl2_2 Cl 0.73070(13) 0.73070(13) 1.0000
O6 O 0.7862(13) 0.6700(15) 0.984(2)
O7 O 0.7536(11) 0.7706(8) 0.9513(4)
Cl2_3 Cl 0.26930(13) 0.26930(13) 0.5000
O5_2 O 0.2294(8) 0.2464(11) 0.5487(4)
O6_2 O 0.2138(13) 0.3300(15) 0.484(2)
O7_2 O 0.2464(11) 0.2294(8) 0.4513(4)
O8_2 O 0.3300(15) 0.2138(13) 0.516(2)
Cl2_4 Cl 0.76930(13) 0.23070(13) 0.2500
O5_3 O 0.7464(11) 0.2706(8) 0.2987(4)
O6_3 O 0.8300(15) 0.2862(13) 0.234(2)
O7_3 O 0.7294(8) 0.2536(11) 0.2013(4)
O8_3 O 0.7138(13) 0.1700(15) 0.266(2)
Cl2_5 Cl 0.23070(13) 0.76930(13) 0.7500
O5_4 O 0.2536(11) 0.7294(8) 0.7987(4)
O6_4 O 0.1700(15) 0.7138(13) 0.734(2)
O7_4 O 0.2706(8) 0.7464(11) 0.7013(4)
O8_4 O 0.2862(13) 0.8300(15) 0.766(2)
loop_
_geom_bond_atom_site_label_1
_geom_bond_atom_site_label_2
_geom_bond_site_symmetry_1
_geom_bond_site_symmetry_2
C15 H9 1_555 1_555
C16 C15 1_555 1_555
H10 C16 1_555 1_555
C25 H19 1_555 1_555
C26 C25 1_555 1_555
H20 C26 1_555 1_555
C27 C26 1_555 1_555
C28 C27 1_555 1_555
H21 C28 1_555 1_555
C29 C28 1_555 1_555
H22 C29 1_555 1_555
C30 C27 1_555 1_555
C31 C30 1_555 1_555
H23 C31 1_555 1_555
C32 C31 1_555 1_555
H24 C32 1_555 1_555
C33 C32 1_555 1_555
H25 C33 1_555 1_555
C34 C33 1_555 1_555
C35 C30 1_555 1_555
H26 C35 1_555 1_555
C36 C34 1_555 1_555
Cd3 N9 1_555 1_555
N9 C25 1_555 1_555
C29 N9 1_555 1_555
C34 C35 1_555 1_555
C36 N10 1_555 1_555
N7 Cd1 1_555 1_555
N8 Cd1 1_555 1_555
C13 C14 1_555 1_555
H11 C17 1_555 1_555
C18 C17 1_555 1_555
C19 C14 1_555 1_555
H12 C19 1_555 1_555
C20 C18 1_555 1_555
C21 C20 1_555 1_555
H13 C21 1_555 1_555
C22 C21 1_555 1_555
H14 C22 1_555 1_555
C23 H15 1_555 1_555
C24 C20 1_555 1_555
H16 C24 1_555 1_555
N3 C13 1_555 1_555
N5 N4 1_555 1_555
H17 N5 1_555 1_555
H18 N5 1_555 1_555
N6 C22 1_555 1_555
C37 C38 1_555 1_555
C43 C38 1_555 1_555
H30 C43 1_555 1_555
C44 C42 1_555 1_555
C47 H33 1_555 1_555
C48 C44 1_555 1_555
H34 C48 1_555 1_555
Cd4 N6 1_555 1_555
Cd3 N16 1_555 1_555
N11 C37 1_555 1_555
N13 N12 1_555 1_555
H35 N13 1_555 1_555
H36 N13 1_555 1_555
C13 N4 1_555 1_555
C18 C19 1_555 1_555
C23 C24 1_555 1_555
C23 N6 1_555 1_555
C37 N12 1_555 1_555
C42 C43 1_555 1_555
C47 C48 1_555 1_555
C47 N16 1_555 1_555
H29 C41 1_555 1_555
H31 C45 1_555 1_555
C46 C45 1_555 1_555
H32 C46 1_555 1_555
C1 H1 1_555 1_555
C2 C1 1_555 1_555
H2 C2 1_555 1_555
C3 C2 1_555 1_555
C4 C3 1_555 1_555
H3 C4 1_555 1_555
C5 C4 1_555 1_555
H4 C5 1_555 1_555
C6 C3 1_555 1_555
C7 C6 1_555 1_555
H5 C7 1_555 1_555
C8 C7 1_555 1_555
H6 C8 1_555 1_555
C9 C8 1_555 1_555
H7 C9 1_555 1_555
C10 C9 1_555 1_555
C11 C6 1_555 1_555
H8 C11 1_555 1_555
C12 C10 1_555 1_555
N1 C1 1_555 1_555
N2 C12 1_555 1_555
C39 H27 1_555 1_555
Cd4 N1 1_555 1_555
C5 N1 1_555 1_555
C10 C11 1_555 1_555
C1_2 H1_2 1_555 1_555
C2_2 C1_2 1_555 1_555
H2_2 C2_2 1_555 1_555
C3_2 C2_2 1_555 1_555
C4_2 C3_2 1_555 1_555
H3_2 C4_2 1_555 1_555
C5_2 C4_2 1_555 1_555
H4_2 C5_2 1_555 1_555
C6_2 C3_2 1_555 1_555
C7_2 C6_2 1_555 1_555
H5_2 C7_2 1_555 1_555
C8_2 C7_2 1_555 1_555
H6_2 C8_2 1_555 1_555
C9_2 C8_2 1_555 1_555
H7_2 C9_2 1_555 1_555
C10_2 C9_2 1_555 1_555
C11_2 C6_2 1_555 1_555
H8_2 C11_2 1_555 1_555
C12_2 C10_2 1_555 1_555
N1_2 C1_2 1_555 1_555
N2_2 C12_2 1_555 1_555
C39_2 H27_2 1_555 1_555
C40 C39_2 1_555 1_555
H28 C40 1_555 1_555
Cd3_2 N1_2 1_555 1_555
C5_2 N1_2 1_555 1_555
C10_2 C11_2 1_555 1_555
H11_2 C17_2 1_555 1_555
H13_2 C21_2 1_555 1_555
C22_2 C21_2 1_555 1_555
H14_2 C22_2 1_555 1_555
C13_2 C14_2 1_555 1_555
C19_2 C14_2 1_555 1_555
H12_2 C19_2 1_555 1_555
C20_2 C18_2 1_555 1_555
C23_2 H15_2 1_555 1_555
C24_2 C20_2 1_555 1_555
H16_2 C24_2 1_555 1_555
N3_2 C13_2 1_555 1_555
N5_2 N4_2 1_555 1_555
H17_2 N5_2 1_555 1_555
H18_2 N5_2 1_555 1_555
C37_2 C38_2 1_555 1_555
H29_2 C41_2 1_555 1_555
C42_2 C41_2 1_555 1_555
C43_2 C38_2 1_555 1_555
H30_2 C43_2 1_555 1_555
C44_2 C42_2 1_555 1_555
C45_2 C44_2 1_555 1_555
H31_2 C45_2 1_555 1_555
C46_2 C45_2 1_555 1_555
H32_2 C46_2 1_555 1_555
C47_2 H33_2 1_555 1_555
C48_2 C44_2 1_555 1_555
H34_2 C48_2 1_555 1_555
Cd3_2 N6_2 1_555 1_555
Cd4 N16_2 1_555 1_555
N11_2 C37_2 1_555 1_555
N13_2 N12_2 1_555 1_555
H35_2 N13_2 1_555 1_555
H36_2 N13_2 1_555 1_555
N16_2 C46_2 1_555 1_555
C13_2 N4_2 1_555 1_555
C18_2 C19_2 1_555 1_555
C23_2 C24_2 1_555 1_555
C23_2 N6_2 1_555 1_555
C37_2 N12_2 1_555 1_555
C42_2 C43_2 1_555 1_555
C47_2 C48_2 1_555 1_555
C47_2 N16_2 1_555 1_555
N7_2 Cd1_2 1_555 1_555
N8_2 Cd1_2 1_555 1_555
C15_2 H9_2 1_555 1_555
C25_2 H19_2 1_555 1_555
C26_2 C25_2 1_555 1_555
H20_2 C26_2 1_555 1_555
C27_2 C26_2 1_555 1_555
C28_2 C27_2 1_555 1_555
H21_2 C28_2 1_555 1_555
C29_2 C28_2 1_555 1_555
H22_2 C29_2 1_555 1_555
C30_2 C27_2 1_555 1_555
C31_2 C30_2 1_555 1_555
H23_2 C31_2 1_555 1_555
C32_2 C31_2 1_555 1_555
H24_2 C32_2 1_555 1_555
C33_2 C32_2 1_555 1_555
H25_2 C33_2 1_555 1_555
C34_2 C33_2 1_555 1_555
C35_2 C30_2 1_555 1_555
H26_2 C35_2 1_555 1_555
C36_2 C34_2 1_555 1_555
Cd4 N9_2 1_555 1_555
N9_2 C25_2 1_555 1_555
C29_2 N9_2 1_555 1_555
C34_2 C35_2 1_555 1_555
C36_2 N10_2 1_555 1_555
C1_3 H1_3 1_555 1_555
C2_3 C1_3 1_555 1_555
H2_3 C2_3 1_555 1_555
C3_3 C2_3 1_555 1_555
C4_3 C3_3 1_555 1_555
H3_3 C4_3 1_555 1_555
C5_3 C4_3 1_555 1_555
H4_3 C5_3 1_555 1_555
C6_3 C3_3 1_555 1_555
C7_3 C6_3 1_555 1_555
H5_3 C7_3 1_555 1_555
C8_3 C7_3 1_555 1_555
H6_3 C8_3 1_555 1_555
C9_3 C8_3 1_555 1_555
H7_3 C9_3 1_555 1_555
C10_3 C9_3 1_555 1_555
C11_3 C6_3 1_555 1_555
H8_3 C11_3 1_555 1_555
C12_3 C10_3 1_555 1_555
C13_3 C14_3 1_555 1_555
C14_3 C15_3 1_555 1_555
C15_3 H9_3 1_555 1_555
C16_2 C15_3 1_555 1_555
H10_2 C16_2 1_555 1_555
C17_3 C16_2 1_555 1_555
H11_3 C17_3 1_555 1_555
C18_3 C17_3 1_555 1_555
C19_3 C14_3 1_555 1_555
H12_3 C19_3 1_555 1_555
C20_3 C18_3 1_555 1_555
C21_3 C20_3 1_555 1_555
H13_3 C21_3 1_555 1_555
C22_3 C21_3 1_555 1_555
H14_3 C22_3 1_555 1_555
C23_3 H15_3 1_555 1_555
C24_3 C20_3 1_555 1_555
H16_3 C24_3 1_555 1_555
Cd4 N2_3 1_555 1_555
N8_2 C1_3 1_555 1_555
N2_3 C12_3 1_555 1_555
N3_3 C13_3 1_555 1_555
N4_3 C12_3 1_555 1_555
N5_3 N4_3 1_555 1_555
H17_3 N5_3 1_555 1_555
H18_3 N5_3 1_555 1_555
N15_2 C22_3 1_555 1_555
C25_3 H19_3 1_555 1_555
C26_3 C25_3 1_555 1_555
H20_3 C26_3 1_555 1_555
C27_3 C26_3 1_555 1_555
C28_3 C27_3 1_555 1_555
H21_3 C28_3 1_555 1_555
C29_3 C28_3 1_555 1_555
H22_3 C29_3 1_555 1_555
C30_3 C27_3 1_555 1_555
C31_3 C30_3 1_555 1_555
H23_3 C31_3 1_555 1_555
C32_3 C31_3 1_555 1_555
H24_3 C32_3 1_555 1_555
C33_3 C32_3 1_555 1_555
H25_3 C33_3 1_555 1_555
C34_3 C33_3 1_555 1_555
C35_3 C30_3 1_555 1_555
H26_3 C35_3 1_555 1_555
C36_3 C34_3 1_555 1_555
C37_3 C38_3 1_555 1_555
C38_3 C39_3 1_555 1_555
C39_3 H27_3 1_555 1_555
C40_2 C39_3 1_555 1_555
H28_2 C40_2 1_555 1_555
C41_3 C40_2 1_555 1_555
H29_3 C41_3 1_555 1_555
C42_3 C41_3 1_555 1_555
C43_3 C38_3 1_555 1_555
H30_3 C43_3 1_555 1_555
C44_3 C42_3 1_555 1_555
C45_3 C44_3 1_555 1_555
H31_3 C45_3 1_555 1_555
C46_3 C45_3 1_555 1_555
H32_3 C46_3 1_555 1_555
C47_3 H33_3 1_555 1_555
C48_3 C44_3 1_555 1_555
H34_3 C48_3 1_555 1_555
N7 C25_3 1_555 1_555
N10_3 Cd4 1_555 1_555
N11_3 C37_3 1_555 1_555
N12_3 C36_3 1_555 1_555
N13_3 N12_3 1_555 1_555
H35_3 N13_3 1_555 1_555
H36_3 N13_3 1_555 1_555
N14 C46_3 1_555 1_555
C5_3 N8_2 1_555 1_555
C10_3 C11_3 1_555 1_555
C13_3 N4_3 1_555 1_555
C18_3 C19_3 1_555 1_555
C23_3 C24_3 1_555 1_555
C23_3 N15_2 1_555 1_555
N2_3 N3_3 1_555 1_555
C29_3 N7 1_555 1_555
C34_3 C35_3 1_555 1_555
C36_3 N10_3 1_555 1_555
C37_3 N12_3 1_555 1_555
C42_3 C43_3 1_555 1_555
C47_3 C48_3 1_555 1_555
C47_3 N14 1_555 1_555
N10_3 N11_3 1_555 1_555
C1_4 H1_4 1_555 1_555
C2_4 C1_4 1_555 1_555
H2_4 C2_4 1_555 1_555
C3_4 C2_4 1_555 1_555
C4_4 C3_4 1_555 1_555
H3_4 C4_4 1_555 1_555
C5_4 C4_4 1_555 1_555
H4_4 C5_4 1_555 1_555
C6_4 C3_4 1_555 1_555
C11_4 C6_4 1_555 1_555
H8_4 C11_4 1_555 1_555
C12_4 C10_4 1_555 1_555
C13_4 C14_4 1_555 1_555
C14_4 C15_4 1_555 1_555
C15_4 H9_4 1_555 1_555
C16_3 C15_4 1_555 1_555
H10_3 C16_3 1_555 1_555
C17_4 C16_3 1_555 1_555
H11_4 C17_4 1_555 1_555
C18_4 C17_4 1_555 1_555
C19_4 C14_4 1_555 1_555
H12_4 C19_4 1_555 1_555
C20_4 C18_4 1_555 1_555
C21_4 C20_4 1_555 1_555
H13_4 C21_4 1_555 1_555
C22_4 C21_4 1_555 1_555
H14_4 C22_4 1_555 1_555
C23_4 H15_4 1_555 1_555
C24_4 C20_4 1_555 1_555
H16_4 C24_4 1_555 1_555
Cd3 N2_4 1_555 1_555
N8 C1_4 1_555 1_555
N2_4 C12_4 1_555 1_555
N3_4 C13_4 1_555 1_555
N4_4 C12_4 1_555 1_555
N5_4 N4_4 1_555 1_555
H17_4 N5_4 1_555 1_555
H18_4 N5_4 1_555 1_555
N15 C22_4 1_555 1_555
H23_4 C31_4 1_555 1_555
C32_4 C31_4 1_555 1_555
H24_4 C32_4 1_555 1_555
C33_4 C32_4 1_555 1_555
H25_4 C33_4 1_555 1_555
C5_4 N8 1_555 1_555
C10_4 C11_4 1_555 1_555
C13_4 N4_4 1_555 1_555
C18_4 C19_4 1_555 1_555
C23_4 C24_4 1_555 1_555
C23_4 N15 1_555 1_555
N2_4 N3_4 1_555 1_555
H5_4 C7_4 1_555 1_555
C8_4 C7_4 1_555 1_555
H6_4 C8_4 1_555 1_555
C9_4 C8_4 1_555 1_555
H7_4 C9_4 1_555 1_555
C25_4 H19_4 1_555 1_555
C26_4 C25_4 1_555 1_555
H20_4 C26_4 1_555 1_555
C27_4 C26_4 1_555 1_555
C28_4 C27_4 1_555 1_555
H21_4 C28_4 1_555 1_555
C29_4 C28_4 1_555 1_555
H22_4 C29_4 1_555 1_555
C30_4 C27_4 1_555 1_555
C35_4 C30_4 1_555 1_555
H26_4 C35_4 1_555 1_555
C36_4 C34_4 1_555 1_555
C37_4 C38_4 1_555 1_555
C38_4 C39_4 1_555 1_555
C39_4 H27_4 1_555 1_555
C40_3 C39_4 1_555 1_555
H28_3 C40_3 1_555 1_555
C41_4 C40_3 1_555 1_555
H29_4 C41_4 1_555 1_555
C42_4 C41_4 1_555 1_555
C43_4 C38_4 1_555 1_555
H30_4 C43_4 1_555 1_555
C44_4 C42_4 1_555 1_555
C45_4 C44_4 1_555 1_555
H31_4 C45_4 1_555 1_555
C46_4 C45_4 1_555 1_555
H32_4 C46_4 1_555 1_555
C47_4 H33_4 1_555 1_555
C48_4 C44_4 1_555 1_555
H34_4 C48_4 1_555 1_555
N7_2 C25_4 1_555 1_555
N10_4 Cd3_2 1_555 1_555
N11_4 C37_4 1_555 1_555
N12_4 C36_4 1_555 1_555
N13_4 N12_4 1_555 1_555
H35_4 N13_4 1_555 1_555
H36_4 N13_4 1_555 1_555
N14_2 C46_4 1_555 1_555
C29_4 N7_2 1_555 1_555
C34_4 C35_4 1_555 1_555
C36_4 N10_4 1_555 1_555
C37_4 N12_4 1_555 1_555
C42_4 C43_4 1_555 1_555
C47_4 C48_4 1_555 1_555
C47_4 N14_2 1_555 1_555
N10_4 N11_4 1_555 1_555
H28_4 C40_4 1_555 1_555
H10_4 C16_4 1_555 1_555
Cl1 O1 1_555 1_555
O2 Cl1 1_555 1_555
O3 Cl1_2 1_555 1_555
O4 Cl1_2 1_555 1_555
Cl1_3 O1_2 1_555 1_555
O2_2 Cl1_3 1_555 1_555
O3_2 Cl1_3 1_555 1_555
O4_2 Cl1_3 1_555 1_555
Cl1_4 O1_3 1_555 1_555
O2_3 Cl1_4 1_555 1_555
O3_3 Cl1_4 1_555 1_555
O4_3 Cl1_4 1_555 1_555
Cl1_5 O1_4 1_555 1_555
O2_4 Cl1_5 1_555 1_555
O3_4 Cl1_5 1_555 1_555
O4_4 Cl1_5 1_555 1_555
Cl2 O5 1_555 1_555
O8 Cl2 1_555 1_555
O6 Cl2_2 1_555 1_555
O7 Cl2_2 1_555 1_555
Cl2_3 O5_2 1_555 1_555
O6_2 Cl2_3 1_555 1_555
O7_2 Cl2_3 1_555 1_555
O8_2 Cl2_3 1_555 1_555
Cl2_4 O5_3 1_555 1_555
O6_3 Cl2_4 1_555 1_555
O7_3 Cl2_4 1_555 1_555
O8_3 Cl2_4 1_555 1_555
Cl2_5 O5_4 1_555 1_555
O6_4 Cl2_5 1_555 1_555
O7_4 Cl2_5 1_555 1_555
O8_4 Cl2_5 1_555 1_555

#END
