
###############################################################################
#
# This file contains modified crystal structure data generated from the
# MOF subset of the Cambridge Structural Database (CSD) v543 
# hosted by the Cambridge Crystallographic Data Centre (CCDC).
#
# This work is licensed under the Creative Commons
# Attribution-NonCommercial-ShareAlike 4.0 International License.
# To view a copy of this license, visit
# http://creativecommons.org/licenses/by-nc-sa/4.0/
# or send a letter to
# Creative Commons, PO Box 1866, Mountain View, CA 94042, USA.
#
# CIF created using the CSD Python API on 29 September 2022
# The structure has been converted into the P1 space group
# The structure has a 3D framework
# The original CSD entry OKIVIO01 is in the tetragonal crystal system
# The original CSD entry OKIVIO01 is in a Sohncke space group
# The framework has been calculated to contain at least 10.0% void space
# The void calculation uses a probe of radius 1.32A, grid spacing 0.4
# The framework is charged, counterions have been retained in the structure
#
###############################################################################

data_OKIVIO01
_chemical_formula_moiety         '(C192 H144 Cd3 Cl10 N48 O32 2-)n'
_symmetry_cell_setting           triclinic
_symmetry_space_group_name_H-M   'P 1'
_symmetry_Int_Tables_number      1
_space_group_name_Hall           'P 1'
loop_
_symmetry_equiv_pos_site_id
_symmetry_equiv_pos_as_xyz
1 x,y,z
_cell_length_a                   15.8440(10)
_cell_length_b                   15.8440(10)
_cell_length_c                   21.837(3)
_cell_angle_alpha                90
_cell_angle_beta                 90
_cell_angle_gamma                90
_cell_volume                     5481.79
loop_
_atom_site_label
_atom_site_type_symbol
_atom_site_fract_x
_atom_site_fract_y
_atom_site_fract_z
C15 C 0.0030(5) 0.1617(5) 0.4628(3)
H9 H 0.0431 0.1191 0.4597
C16 C 0.0139(5) 0.2277(4) 0.5047(4)
H10 H 0.0615 0.2288 0.5296
C25 C 0.3595(4) 0.4151(4) 0.1396(3)
H19 H 0.3886 0.4639 0.1503
C26 C 0.2985(4) 0.3863(4) 0.1787(3)
H20 H 0.2865 0.4160 0.2144
C27 C 0.2537(4) 0.3116(4) 0.1651(3)
C28 C 0.2821(4) 0.2681(4) 0.1136(3)
H21 H 0.2597 0.2153 0.1044
C29 C 0.3428(4) 0.3024(4) 0.0761(3)
H22 H 0.3592 0.2725 0.0414
C30 C 0.1813(4) 0.2808(4) 0.2027(3)
C31 C 0.1673(4) 0.3079(4) 0.2618(3)
H23 H 0.2033 0.3475 0.2794
C32 C 0.1007(5) 0.2769(5) 0.2948(3)
H24 H 0.0926 0.2952 0.3348
C33 C 0.0452(4) 0.2189(5) 0.2699(3)
C34 C 0.0594(4) 0.1900(4) 0.2099(3)
C35 C 0.1267(4) 0.2221(4) 0.1771(3)
H26 H 0.1355 0.2041 0.1371
C36 C 0.0038(4) 0.1275(4) 0.1803(3)
Cd3 Cd 0.44228(2) 0.44228(2) 0.0000
N9 N 0.3796(4) 0.3775(3) 0.0874(2)
N10 N 0.0060(3) 0.0457(3) 0.1842(2)
N14 N 0.1863(3) 0.0245(3) 0.2587(2)
Cd3_2 Cd 0.44228(2) 0.44228(2) 1.0000
Cd1 Cd 0.05772(2) 0.94228(2) 0.2500
N7 N 0.1225(3) 0.8796(4) 0.3374(2)
N8 N 0.1204(4) 0.8775(3) 0.1626(2)
H7 H 0.8007 0.0005 0.2075
C13 C 0.9237(4) 0.0916(3) 0.3822(2)
C14 C 0.9315(4) 0.1607(4) 0.4260(3)
C17 C 0.9546(5) 0.2906(4) 0.5093(3)
H11 H 0.9616 0.3335 0.5379
C18 C 0.8844(4) 0.2905(4) 0.4713(3)
C19 C 0.8733(4) 0.2249(4) 0.4304(3)
H12 H 0.8258 0.2241 0.4054
C20 C 0.8177(4) 0.3580(4) 0.4777(3)
C21 C 0.8073(4) 0.4032(5) 0.5311(3)
H13 H 0.8448 0.3958 0.5635
C22 C 0.7409(5) 0.4595(5) 0.5363(3)
H14 H 0.7340 0.4878 0.5733
C23 C 0.6989(5) 0.4335(4) 0.4388(3)
H15 H 0.6627 0.4445 0.4063
C24 C 0.7617(4) 0.3758(4) 0.4303(3)
H16 H 0.7670 0.3483 0.3928
N3 N 0.9872(3) 0.0552(3) 0.3550(2)
N4 N 0.8502(4) 0.0562(3) 0.3611(2)
N5 N 0.7690(4) 0.0738(3) 0.3829(3)
H17 H 0.7432 0.0252 0.3912
H18 H 0.7401 0.1015 0.3544
N6 N 0.6863(3) 0.4755(3) 0.4913(2)
H25 H 0.9995 0.1993 0.2925
C37 C 0.9084(3) 0.0763(4) 0.1178(2)
C38 C 0.8393(4) 0.0685(4) 0.0740(3)
C42 C 0.7095(4) 0.1156(4) 0.0287(3)
C43 C 0.7751(4) 0.1267(4) 0.0696(3)
H30 H 0.7759 0.1742 0.0946
C44 C 0.6420(4) 0.1823(4) 0.0223(3)
C47 C 0.5665(4) 0.3011(5) 0.0612(3)
H33 H 0.5555 0.3373 0.0937
C48 C 0.6242(4) 0.2383(4) 0.0697(3)
H34 H 0.6517 0.2330 0.1072
Cd4 Cd 0.55772(2) 0.55772(2) 0.5000
N11 N 0.9448(3) 0.0128(3) 0.1450(2)
N12 N 0.9438(3) 0.1498(4) 0.1389(2)
N13 N 0.9262(3) 0.2310(4) 0.1171(3)
H35 H 0.9748 0.2568 0.1088
H36 H 0.8985 0.2599 0.1456
N16 N 0.5245(3) 0.3137(3) 0.0087(2)
C41 C 0.7094(4) 0.0454(5) 0.9907(3)
H29 H 0.6665 0.0384 0.9621
C45 C 0.5968(5) 0.1927(4) 0.9689(3)
H31 H 0.6042 0.1552 0.9365
C46 C 0.5405(5) 0.2591(5) 0.9637(3)
H32 H 0.5122 0.2660 0.9267
C1 C 0.5849(4) 0.6405(4) 0.3604(3)
H1 H 0.5361 0.6114 0.3497
C2 C 0.6137(4) 0.7015(4) 0.3213(3)
H2 H 0.5840 0.7135 0.2856
C3 C 0.6884(4) 0.7463(4) 0.3349(3)
C4 C 0.7319(4) 0.7179(4) 0.3864(3)
H3 H 0.7847 0.7403 0.3956
C5 C 0.6976(4) 0.6572(4) 0.4239(3)
H4 H 0.7275 0.6408 0.4586
C6 C 0.7192(4) 0.8187(4) 0.2973(3)
C7 C 0.6921(4) 0.8327(4) 0.2382(3)
H5 H 0.6525 0.7967 0.2206
C8 C 0.7231(5) 0.8993(5) 0.2052(3)
H6 H 0.7048 0.9074 0.1652
C9 C 0.7811(5) 0.9548(4) 0.2301(3)
C10 C 0.8100(4) 0.9406(4) 0.2901(3)
C11 C 0.7779(4) 0.8733(4) 0.3229(3)
H8 H 0.7959 0.8645 0.3629
C12 C 0.8725(4) 0.9962(4) 0.3197(3)
N1 N 0.6225(3) 0.6204(4) 0.4126(2)
N2 N 0.9543(3) 0.9940(3) 0.3158(2)
C39 C 0.8383(5) 0.9970(5) 0.0372(3)
H27 H 0.8809 0.9569 0.0403
N15 N 0.9755(3) 0.8137(3) 0.2413(2)
C1_2 C 0.4151(4) 0.3595(4) 0.8604(3)
H1_2 H 0.4639 0.3886 0.8497
C2_2 C 0.3863(4) 0.2985(4) 0.8213(3)
H2_2 H 0.4160 0.2865 0.7856
C3_2 C 0.3116(4) 0.2537(4) 0.8349(3)
C4_2 C 0.2681(4) 0.2821(4) 0.8864(3)
H3_2 H 0.2153 0.2597 0.8956
C5_2 C 0.3024(4) 0.3428(4) 0.9239(3)
H4_2 H 0.2725 0.3592 0.9586
C6_2 C 0.2808(4) 0.1813(4) 0.7973(3)
C7_2 C 0.3079(4) 0.1673(4) 0.7382(3)
H5_2 H 0.3475 0.2033 0.7206
C8_2 C 0.2769(5) 0.1007(5) 0.7052(3)
H6_2 H 0.2952 0.0926 0.6652
C9_2 C 0.2189(5) 0.0452(4) 0.7301(3)
C10_2 C 0.1900(4) 0.0594(4) 0.7901(3)
C11_2 C 0.2221(4) 0.1267(4) 0.8229(3)
H8_2 H 0.2041 0.1355 0.8629
C12_2 C 0.1275(4) 0.0038(4) 0.8197(3)
N1_2 N 0.3775(3) 0.3796(4) 0.9126(2)
N2_2 N 0.0457(3) 0.0060(3) 0.8158(2)
C39_2 C 0.1617(5) 0.0030(5) 0.5372(3)
H27_2 H 0.1191 0.0431 0.5403
C40 C 0.2277(4) 0.0139(5) 0.4953(4)
H28 H 0.2288 0.0615 0.4704
N15_2 N 0.0245(3) 0.1863(3) 0.7413(2)
C17_2 C 0.0454(5) 0.7094(4) 0.0093(3)
H11_2 H 0.0384 0.6665 0.0379
C21_2 C 0.1927(4) 0.5968(5) 0.0311(3)
H13_2 H 0.1552 0.6042 0.0635
C22_2 C 0.2591(5) 0.5405(5) 0.0363(3)
H14_2 H 0.2660 0.5122 0.0733
H7_2 H 0.1993 0.9995 0.7075
C13_2 C 0.0763(4) 0.9084(3) 0.8822(2)
C14_2 C 0.0685(4) 0.8393(4) 0.9260(3)
C18_2 C 0.1156(4) 0.7095(4) 0.9713(3)
C19_2 C 0.1267(4) 0.7751(4) 0.9304(3)
H12_2 H 0.1742 0.7759 0.9054
C20_2 C 0.1823(4) 0.6420(4) 0.9777(3)
C23_2 C 0.3011(5) 0.5665(4) 0.9388(3)
H15_2 H 0.3373 0.5555 0.9063
C24_2 C 0.2383(4) 0.6242(4) 0.9303(3)
H16_2 H 0.2330 0.6517 0.8928
N3_2 N 0.0128(3) 0.9448(3) 0.8550(2)
N4_2 N 0.1498(4) 0.9438(3) 0.8611(2)
N5_2 N 0.2310(4) 0.9262(3) 0.8829(3)
H17_2 H 0.2568 0.9748 0.8912
H18_2 H 0.2599 0.8985 0.8544
N6_2 N 0.3137(3) 0.5245(3) 0.9913(2)
H25_2 H 0.0005 0.8007 0.7925
C37_2 C 0.0916(3) 0.9237(4) 0.6178(2)
C38_2 C 0.1607(4) 0.9315(4) 0.5740(3)
C41_2 C 0.2906(4) 0.9546(5) 0.4907(3)
H29_2 H 0.3335 0.9616 0.4621
C42_2 C 0.2905(4) 0.8844(4) 0.5287(3)
C43_2 C 0.2249(4) 0.8733(4) 0.5696(3)
H30_2 H 0.2241 0.8258 0.5946
C44_2 C 0.3580(4) 0.8177(4) 0.5223(3)
C45_2 C 0.4032(5) 0.8073(4) 0.4689(3)
H31_2 H 0.3958 0.8448 0.4365
C46_2 C 0.4595(5) 0.7409(5) 0.4637(3)
H32_2 H 0.4878 0.7340 0.4267
C47_2 C 0.4335(4) 0.6989(5) 0.5612(3)
H33_2 H 0.4445 0.6627 0.5937
C48_2 C 0.3758(4) 0.7617(4) 0.5697(3)
H34_2 H 0.3483 0.7670 0.6072
N11_2 N 0.0552(3) 0.9872(3) 0.6450(2)
N12_2 N 0.0562(3) 0.8502(4) 0.6389(2)
N13_2 N 0.0738(3) 0.7690(4) 0.6171(3)
H35_2 H 0.0252 0.7432 0.6088
H36_2 H 0.1015 0.7401 0.6456
N16_2 N 0.4755(3) 0.6863(3) 0.5087(2)
Cd1_2 Cd 0.94228(2) 0.05772(2) 0.7500
N7_2 N 0.8775(3) 0.1204(4) 0.8374(2)
N8_2 N 0.8796(4) 0.1225(3) 0.6626(2)
C15_2 C 0.9970(5) 0.8383(5) 0.9628(3)
H9_2 H 0.9569 0.8809 0.9597
C25_2 C 0.6405(4) 0.5849(4) 0.6396(3)
H19_2 H 0.6114 0.5361 0.6503
C26_2 C 0.7015(4) 0.6137(4) 0.6787(3)
H20_2 H 0.7135 0.5840 0.7144
C27_2 C 0.7463(4) 0.6884(4) 0.6651(3)
C28_2 C 0.7179(4) 0.7319(4) 0.6136(3)
H21_2 H 0.7403 0.7847 0.6044
C29_2 C 0.6572(4) 0.6976(4) 0.5761(3)
H22_2 H 0.6408 0.7275 0.5414
C30_2 C 0.8187(4) 0.7192(4) 0.7027(3)
C31_2 C 0.8327(4) 0.6921(4) 0.7618(3)
H23_2 H 0.7967 0.6525 0.7794
C32_2 C 0.8993(5) 0.7231(5) 0.7948(3)
H24_2 H 0.9074 0.7048 0.8348
C33_2 C 0.9548(4) 0.7811(5) 0.7699(3)
C34_2 C 0.9406(4) 0.8100(4) 0.7099(3)
C35_2 C 0.8733(4) 0.7779(4) 0.6771(3)
H26_2 H 0.8645 0.7959 0.6371
C36_2 C 0.9962(4) 0.8725(4) 0.6803(3)
N9_2 N 0.6204(4) 0.6225(3) 0.5874(2)
N10_2 N 0.9940(3) 0.9543(3) 0.6842(2)
N14_2 N 0.8137(3) 0.9755(3) 0.7587(2)
C1_3 C 0.8595(4) 0.0849(4) 0.6104(3)
H1_3 H 0.8886 0.0361 0.5997
C2_3 C 0.7985(4) 0.1137(4) 0.5713(3)
H2_3 H 0.7865 0.0840 0.5356
C3_3 C 0.7537(4) 0.1884(4) 0.5849(3)
C4_3 C 0.7821(4) 0.2319(4) 0.6364(3)
H3_3 H 0.7597 0.2847 0.6456
C5_3 C 0.8428(4) 0.1976(4) 0.6739(3)
H4_3 H 0.8592 0.2275 0.7086
C6_3 C 0.6813(4) 0.2192(4) 0.5473(3)
C7_3 C 0.6673(4) 0.1921(4) 0.4882(3)
H5_3 H 0.7033 0.1525 0.4706
C8_3 C 0.6007(5) 0.2231(5) 0.4552(3)
H6_3 H 0.5926 0.2048 0.4152
C9_3 C 0.5452(4) 0.2811(5) 0.4801(3)
H7_3 H 0.4995 0.3007 0.4575
C10_3 C 0.5594(4) 0.3100(4) 0.5401(3)
C11_3 C 0.6267(4) 0.2779(4) 0.5729(3)
H8_3 H 0.6355 0.2959 0.6129
C12_3 C 0.5038(4) 0.3725(4) 0.5697(3)
C13_3 C 0.4084(3) 0.4237(4) 0.6322(2)
C14_3 C 0.3393(4) 0.4315(4) 0.6760(3)
C15_3 C 0.3383(5) 0.5030(5) 0.7128(3)
H9_3 H 0.3809 0.5431 0.7097
C16_2 C 0.2723(4) 0.5139(5) 0.7547(4)
H10_2 H 0.2712 0.5615 0.7796
C17_3 C 0.2094(4) 0.4546(5) 0.7593(3)
H11_3 H 0.1665 0.4616 0.7879
C18_3 C 0.2095(4) 0.3844(4) 0.7213(3)
C19_3 C 0.2751(4) 0.3733(4) 0.6804(3)
H12_3 H 0.2759 0.3258 0.6554
C20_3 C 0.1420(4) 0.3177(4) 0.7277(3)
C21_3 C 0.0968(5) 0.3073(4) 0.7811(3)
H13_3 H 0.1042 0.3448 0.8135
C22_3 C 0.0405(5) 0.2409(5) 0.7863(3)
H14_3 H 0.0122 0.2340 0.8233
C23_3 C 0.0665(4) 0.1989(5) 0.6888(3)
H15_3 H 0.0555 0.1627 0.6563
C24_3 C 0.1242(4) 0.2617(4) 0.6803(3)
H16_3 H 0.1517 0.2670 0.6428
N2_3 N 0.5060(3) 0.4543(3) 0.5658(2)
N3_3 N 0.4448(3) 0.4872(3) 0.6050(2)
N4_3 N 0.4438(3) 0.3502(4) 0.6111(2)
N5_3 N 0.4262(3) 0.2690(4) 0.6329(3)
H17_3 H 0.4748 0.2432 0.6412
H18_3 H 0.3985 0.2401 0.6044
C25_3 C 0.0849(4) 0.8595(4) 0.3896(3)
H19_3 H 0.0361 0.8886 0.4003
C26_3 C 0.1137(4) 0.7985(4) 0.4287(3)
H20_3 H 0.0840 0.7865 0.4644
C27_3 C 0.1884(4) 0.7537(4) 0.4151(3)
C28_3 C 0.2319(4) 0.7821(4) 0.3636(3)
H21_3 H 0.2847 0.7597 0.3544
C29_3 C 0.1976(4) 0.8428(4) 0.3261(3)
H22_3 H 0.2275 0.8592 0.2914
C30_3 C 0.2192(4) 0.6813(4) 0.4527(3)
C31_3 C 0.1921(4) 0.6673(4) 0.5118(3)
H23_3 H 0.1525 0.7033 0.5294
C32_3 C 0.2231(5) 0.6007(5) 0.5448(3)
H24_3 H 0.2048 0.5926 0.5848
C33_3 C 0.2811(5) 0.5452(4) 0.5199(3)
H25_3 H 0.3007 0.4995 0.5425
C34_3 C 0.3100(4) 0.5594(4) 0.4599(3)
C35_3 C 0.2779(4) 0.6267(4) 0.4271(3)
H26_3 H 0.2959 0.6355 0.3871
C36_3 C 0.3725(4) 0.5038(4) 0.4303(3)
C37_3 C 0.4237(4) 0.4084(3) 0.3678(2)
C38_3 C 0.4315(4) 0.3393(4) 0.3240(3)
C39_3 C 0.5030(5) 0.3383(5) 0.2872(3)
H27_3 H 0.5431 0.3809 0.2903
C40_2 C 0.5139(5) 0.2723(4) 0.2453(4)
H28_2 H 0.5615 0.2712 0.2204
C41_3 C 0.4546(5) 0.2094(4) 0.2407(3)
H29_3 H 0.4616 0.1665 0.2121
C42_3 C 0.3844(4) 0.2095(4) 0.2787(3)
C43_3 C 0.3733(4) 0.2751(4) 0.3196(3)
H30_3 H 0.3258 0.2759 0.3446
C44_3 C 0.3177(4) 0.1420(4) 0.2723(3)
C45_3 C 0.3073(4) 0.0968(5) 0.2189(3)
H31_3 H 0.3448 0.1042 0.1865
C46_3 C 0.2409(5) 0.0405(5) 0.2137(3)
H32_3 H 0.2340 0.0122 0.1767
C47_3 C 0.1989(5) 0.0665(4) 0.3112(3)
H33_3 H 0.1627 0.0555 0.3437
C48_3 C 0.2617(4) 0.1242(4) 0.3197(3)
H34_3 H 0.2670 0.1517 0.3572
N10_3 N 0.4543(3) 0.5060(3) 0.4342(2)
N11_3 N 0.4872(3) 0.4448(3) 0.3950(2)
N12_3 N 0.3502(4) 0.4438(3) 0.3889(2)
N13_3 N 0.2690(4) 0.4262(3) 0.3671(3)
H35_3 H 0.2432 0.4748 0.3588
H36_3 H 0.2401 0.3985 0.3956
C1_4 C 0.1405(4) 0.9151(4) 0.1104(3)
H1_4 H 0.1114 0.9639 0.0997
C2_4 C 0.2015(4) 0.8863(4) 0.0713(3)
H2_4 H 0.2135 0.9160 0.0356
C3_4 C 0.2463(4) 0.8116(4) 0.0849(3)
C4_4 C 0.2179(4) 0.7681(4) 0.1364(3)
H3_4 H 0.2403 0.7153 0.1456
C5_4 C 0.1572(4) 0.8024(4) 0.1739(3)
H4_4 H 0.1408 0.7725 0.2086
C6_4 C 0.3187(4) 0.7808(4) 0.0473(3)
C10_4 C 0.4406(4) 0.6900(4) 0.0401(3)
C11_4 C 0.3733(4) 0.7221(4) 0.0729(3)
H8_4 H 0.3645 0.7041 0.1129
C12_4 C 0.4962(4) 0.6275(4) 0.0697(3)
C13_4 C 0.5916(3) 0.5763(4) 0.1322(2)
C14_4 C 0.6607(4) 0.5685(4) 0.1760(3)
C15_4 C 0.6617(5) 0.4970(5) 0.2128(3)
H9_4 H 0.6191 0.4569 0.2097
C16_3 C 0.7277(4) 0.4861(5) 0.2547(4)
H10_3 H 0.7288 0.4385 0.2796
C17_4 C 0.7906(4) 0.5454(5) 0.2593(3)
H11_4 H 0.8335 0.5384 0.2879
C18_4 C 0.7905(4) 0.6156(4) 0.2213(3)
C19_4 C 0.7249(4) 0.6267(4) 0.1804(3)
H12_4 H 0.7241 0.6742 0.1554
C20_4 C 0.8580(4) 0.6823(4) 0.2277(3)
C21_4 C 0.9032(5) 0.6927(4) 0.2811(3)
H13_4 H 0.8958 0.6552 0.3135
C22_4 C 0.9595(5) 0.7591(5) 0.2863(3)
H14_4 H 0.9878 0.7660 0.3233
C23_4 C 0.9335(4) 0.8011(5) 0.1888(3)
H15_4 H 0.9445 0.8373 0.1563
C24_4 C 0.8758(4) 0.7383(4) 0.1803(3)
H16_4 H 0.8483 0.7330 0.1428
N2_4 N 0.4940(3) 0.5457(3) 0.0658(2)
N3_4 N 0.5552(3) 0.5128(3) 0.1050(2)
N4_4 N 0.5562(3) 0.6498(4) 0.1111(2)
N5_4 N 0.5738(3) 0.7310(4) 0.1329(3)
H17_4 H 0.5252 0.7568 0.1412
H18_4 H 0.6015 0.7599 0.1044
C31_4 C 0.8079(4) 0.3327(4) 0.0118(3)
H23_4 H 0.8475 0.2967 0.0294
C32_4 C 0.7769(5) 0.3993(5) 0.0448(3)
H24_4 H 0.7952 0.4074 0.0848
C33_4 C 0.7189(5) 0.4548(4) 0.0199(3)
H25_4 H 0.6993 0.5005 0.0425
C7_4 C 0.3327(4) 0.8079(4) 0.9882(3)
H5_4 H 0.2967 0.8475 0.9706
C8_4 C 0.3993(5) 0.7769(5) 0.9552(3)
H6_4 H 0.4074 0.7952 0.9152
C9_4 C 0.4548(4) 0.7189(5) 0.9801(3)
H7_4 H 0.5005 0.6993 0.9575
C25_4 C 0.9151(4) 0.1405(4) 0.8896(3)
H19_4 H 0.9639 0.1114 0.9003
C26_4 C 0.8863(4) 0.2015(4) 0.9287(3)
H20_4 H 0.9160 0.2135 0.9644
C27_4 C 0.8116(4) 0.2463(4) 0.9151(3)
C28_4 C 0.7681(4) 0.2179(4) 0.8636(3)
H21_4 H 0.7153 0.2403 0.8544
C29_4 C 0.8024(4) 0.1572(4) 0.8261(3)
H22_4 H 0.7725 0.1408 0.7914
C30_4 C 0.7808(4) 0.3187(4) 0.9527(3)
C34_4 C 0.6900(4) 0.4406(4) 0.9599(3)
C35_4 C 0.7221(4) 0.3733(4) 0.9271(3)
H26_4 H 0.7041 0.3645 0.8871
C36_4 C 0.6275(4) 0.4962(4) 0.9303(3)
C37_4 C 0.5763(4) 0.5916(3) 0.8678(2)
C38_4 C 0.5685(4) 0.6607(4) 0.8240(3)
C39_4 C 0.4970(5) 0.6617(5) 0.7872(3)
H27_4 H 0.4569 0.6191 0.7903
C40_3 C 0.4861(5) 0.7277(4) 0.7453(4)
H28_3 H 0.4385 0.7288 0.7204
C41_4 C 0.5454(5) 0.7906(4) 0.7407(3)
H29_4 H 0.5384 0.8335 0.7121
C42_4 C 0.6156(4) 0.7905(4) 0.7787(3)
C43_4 C 0.6267(4) 0.7249(4) 0.8196(3)
H30_4 H 0.6742 0.7241 0.8446
C44_4 C 0.6823(4) 0.8580(4) 0.7723(3)
C45_4 C 0.6927(4) 0.9032(5) 0.7189(3)
H31_4 H 0.6552 0.8958 0.6865
C46_4 C 0.7591(5) 0.9595(5) 0.7137(3)
H32_4 H 0.7660 0.9878 0.6767
C47_4 C 0.8011(5) 0.9335(4) 0.8112(3)
H33_4 H 0.8373 0.9445 0.8437
C48_4 C 0.7383(4) 0.8758(4) 0.8197(3)
H34_4 H 0.7330 0.8483 0.8572
N10_4 N 0.5457(3) 0.4940(3) 0.9342(2)
N11_4 N 0.5128(3) 0.5552(3) 0.8950(2)
N12_4 N 0.6498(4) 0.5562(3) 0.8889(2)
N13_4 N 0.7310(4) 0.5738(3) 0.8671(3)
H35_4 H 0.7568 0.5252 0.8588
H36_4 H 0.7599 0.6015 0.8956
C40_4 C 0.7723(4) 0.9861(5) 0.9953(4)
H28_4 H 0.7712 0.9385 0.9704
C16_4 C 0.9861(5) 0.7723(4) 0.0047(4)
H10_4 H 0.9385 0.7712 0.0296
Cl1 Cl 0.12078(15) 0.12078(15) 0.0000
O1 O 0.1764(10) 0.1139(13) 0.0434(8)
O2 O 0.0575(9) 0.1371(15) 0.0325(5)
Cl1_2 Cl 0.12078(15) 0.12078(15) 1.0000
O3 O 0.1139(13) 0.1764(10) 0.9566(8)
O4 O 0.1371(15) 0.0575(9) 0.9675(5)
Cl1_3 Cl 0.87922(15) 0.87922(15) 0.5000
O1_2 O 0.8236(10) 0.8861(13) 0.5434(8)
O2_2 O 0.9425(9) 0.8629(15) 0.5325(5)
O3_2 O 0.8861(13) 0.8236(10) 0.4566(8)
O4_2 O 0.8629(15) 0.9425(9) 0.4675(5)
Cl1_4 Cl 0.37922(15) 0.62078(15) 0.2500
O1_3 O 0.3861(13) 0.6764(10) 0.2934(8)
O2_3 O 0.3629(15) 0.5575(9) 0.2825(5)
O3_3 O 0.3236(10) 0.6139(13) 0.2066(8)
O4_3 O 0.4425(9) 0.6371(15) 0.2175(5)
Cl1_5 Cl 0.62078(15) 0.37922(15) 0.7500
O1_4 O 0.6139(13) 0.3236(10) 0.7934(8)
O2_4 O 0.6371(15) 0.4425(9) 0.7825(5)
O3_4 O 0.6764(10) 0.3861(13) 0.7066(8)
O4_4 O 0.5575(9) 0.3629(15) 0.7175(5)
Cl2 Cl 0.73122(13) 0.73122(13) 0.0000
O5 O 0.7631(8) 0.7659(8) 0.0511(3)
O6 O 0.7881(15) 0.6653(13) 0.008(2)
Cl2_2 Cl 0.73122(13) 0.73122(13) 1.0000
O7 O 0.7659(8) 0.7631(8) 0.9489(3)
O8 O 0.6653(13) 0.7881(15) 0.992(2)
Cl2_3 Cl 0.26878(13) 0.26878(13) 0.5000
O5_2 O 0.2369(8) 0.2341(8) 0.5511(3)
O6_2 O 0.2119(15) 0.3347(13) 0.508(2)
O7_2 O 0.2341(8) 0.2369(8) 0.4489(3)
O8_2 O 0.3347(13) 0.2119(15) 0.492(2)
Cl2_4 Cl 0.76878(13) 0.23122(13) 0.2500
O5_3 O 0.7341(8) 0.2631(8) 0.3011(3)
O6_3 O 0.8347(13) 0.2881(15) 0.258(2)
O7_3 O 0.7369(8) 0.2659(8) 0.1989(3)
O8_3 O 0.7119(15) 0.1653(13) 0.242(2)
Cl2_5 Cl 0.23122(13) 0.76878(13) 0.7500
O5_4 O 0.2659(8) 0.7369(8) 0.8011(3)
O6_4 O 0.1653(13) 0.7119(15) 0.758(2)
O7_4 O 0.2631(8) 0.7341(8) 0.6989(3)
O8_4 O 0.2881(15) 0.8347(13) 0.742(2)
loop_
_geom_bond_atom_site_label_1
_geom_bond_atom_site_label_2
_geom_bond_site_symmetry_1
_geom_bond_site_symmetry_2
C15 H9 1_555 1_555
C16 C15 1_555 1_555
H10 C16 1_555 1_555
C25 H19 1_555 1_555
C26 C25 1_555 1_555
H20 C26 1_555 1_555
C27 C26 1_555 1_555
C28 C27 1_555 1_555
H21 C28 1_555 1_555
C29 C28 1_555 1_555
H22 C29 1_555 1_555
C30 C27 1_555 1_555
C31 C30 1_555 1_555
H23 C31 1_555 1_555
C32 C31 1_555 1_555
H24 C32 1_555 1_555
C33 C32 1_555 1_555
C34 C33 1_555 1_555
C35 C30 1_555 1_555
H26 C35 1_555 1_555
C36 C34 1_555 1_555
Cd3 N9 1_555 1_555
N9 C25 1_555 1_555
C29 N9 1_555 1_555
C34 C35 1_555 1_555
C36 N10 1_555 1_555
N7 Cd1 1_555 1_555
N8 Cd1 1_555 1_555
C13 C14 1_555 1_555
H11 C17 1_555 1_555
C18 C17 1_555 1_555
C19 C14 1_555 1_555
H12 C19 1_555 1_555
C20 C18 1_555 1_555
C21 C20 1_555 1_555
H13 C21 1_555 1_555
C22 C21 1_555 1_555
H14 C22 1_555 1_555
C23 H15 1_555 1_555
C24 C20 1_555 1_555
H16 C24 1_555 1_555
N3 C13 1_555 1_555
N5 N4 1_555 1_555
H17 N5 1_555 1_555
H18 N5 1_555 1_555
N6 C22 1_555 1_555
C37 C38 1_555 1_555
C43 C38 1_555 1_555
H30 C43 1_555 1_555
C44 C42 1_555 1_555
C47 H33 1_555 1_555
C48 C44 1_555 1_555
H34 C48 1_555 1_555
Cd4 N6 1_555 1_555
Cd3 N16 1_555 1_555
N11 C37 1_555 1_555
N13 N12 1_555 1_555
H35 N13 1_555 1_555
H36 N13 1_555 1_555
C13 N4 1_555 1_555
C18 C19 1_555 1_555
C23 C24 1_555 1_555
C23 N6 1_555 1_555
C37 N12 1_555 1_555
C42 C43 1_555 1_555
C47 C48 1_555 1_555
C47 N16 1_555 1_555
H29 C41 1_555 1_555
H31 C45 1_555 1_555
C46 C45 1_555 1_555
H32 C46 1_555 1_555
C1 H1 1_555 1_555
C2 C1 1_555 1_555
H2 C2 1_555 1_555
C3 C2 1_555 1_555
C4 C3 1_555 1_555
H3 C4 1_555 1_555
C5 C4 1_555 1_555
H4 C5 1_555 1_555
C6 C3 1_555 1_555
C7 C6 1_555 1_555
H5 C7 1_555 1_555
C8 C7 1_555 1_555
H6 C8 1_555 1_555
C9 C8 1_555 1_555
C10 C9 1_555 1_555
C11 C6 1_555 1_555
H8 C11 1_555 1_555
C12 C10 1_555 1_555
N1 C1 1_555 1_555
N2 C12 1_555 1_555
C39 H27 1_555 1_555
Cd4 N1 1_555 1_555
C5 N1 1_555 1_555
C10 C11 1_555 1_555
C1_2 H1_2 1_555 1_555
C2_2 C1_2 1_555 1_555
H2_2 C2_2 1_555 1_555
C3_2 C2_2 1_555 1_555
C4_2 C3_2 1_555 1_555
H3_2 C4_2 1_555 1_555
C5_2 C4_2 1_555 1_555
H4_2 C5_2 1_555 1_555
C6_2 C3_2 1_555 1_555
C7_2 C6_2 1_555 1_555
H5_2 C7_2 1_555 1_555
C8_2 C7_2 1_555 1_555
H6_2 C8_2 1_555 1_555
C9_2 C8_2 1_555 1_555
C10_2 C9_2 1_555 1_555
C11_2 C6_2 1_555 1_555
H8_2 C11_2 1_555 1_555
C12_2 C10_2 1_555 1_555
N1_2 C1_2 1_555 1_555
N2_2 C12_2 1_555 1_555
C39_2 H27_2 1_555 1_555
C40 C39_2 1_555 1_555
H28 C40 1_555 1_555
Cd3_2 N1_2 1_555 1_555
C5_2 N1_2 1_555 1_555
C10_2 C11_2 1_555 1_555
H11_2 C17_2 1_555 1_555
H13_2 C21_2 1_555 1_555
C22_2 C21_2 1_555 1_555
H14_2 C22_2 1_555 1_555
C13_2 C14_2 1_555 1_555
C19_2 C14_2 1_555 1_555
H12_2 C19_2 1_555 1_555
C20_2 C18_2 1_555 1_555
C23_2 H15_2 1_555 1_555
C24_2 C20_2 1_555 1_555
H16_2 C24_2 1_555 1_555
N3_2 C13_2 1_555 1_555
N5_2 N4_2 1_555 1_555
H17_2 N5_2 1_555 1_555
H18_2 N5_2 1_555 1_555
C37_2 C38_2 1_555 1_555
H29_2 C41_2 1_555 1_555
C42_2 C41_2 1_555 1_555
C43_2 C38_2 1_555 1_555
H30_2 C43_2 1_555 1_555
C44_2 C42_2 1_555 1_555
C45_2 C44_2 1_555 1_555
H31_2 C45_2 1_555 1_555
C46_2 C45_2 1_555 1_555
H32_2 C46_2 1_555 1_555
C47_2 H33_2 1_555 1_555
C48_2 C44_2 1_555 1_555
H34_2 C48_2 1_555 1_555
Cd3_2 N6_2 1_555 1_555
Cd4 N16_2 1_555 1_555
N11_2 C37_2 1_555 1_555
N13_2 N12_2 1_555 1_555
H35_2 N13_2 1_555 1_555
H36_2 N13_2 1_555 1_555
N16_2 C46_2 1_555 1_555
C13_2 N4_2 1_555 1_555
C18_2 C19_2 1_555 1_555
C23_2 C24_2 1_555 1_555
C23_2 N6_2 1_555 1_555
C37_2 N12_2 1_555 1_555
C42_2 C43_2 1_555 1_555
C47_2 C48_2 1_555 1_555
C47_2 N16_2 1_555 1_555
N7_2 Cd1_2 1_555 1_555
N8_2 Cd1_2 1_555 1_555
C15_2 H9_2 1_555 1_555
C25_2 H19_2 1_555 1_555
C26_2 C25_2 1_555 1_555
H20_2 C26_2 1_555 1_555
C27_2 C26_2 1_555 1_555
C28_2 C27_2 1_555 1_555
H21_2 C28_2 1_555 1_555
C29_2 C28_2 1_555 1_555
H22_2 C29_2 1_555 1_555
C30_2 C27_2 1_555 1_555
C31_2 C30_2 1_555 1_555
H23_2 C31_2 1_555 1_555
C32_2 C31_2 1_555 1_555
H24_2 C32_2 1_555 1_555
C33_2 C32_2 1_555 1_555
C34_2 C33_2 1_555 1_555
C35_2 C30_2 1_555 1_555
H26_2 C35_2 1_555 1_555
C36_2 C34_2 1_555 1_555
Cd4 N9_2 1_555 1_555
N9_2 C25_2 1_555 1_555
C29_2 N9_2 1_555 1_555
C34_2 C35_2 1_555 1_555
C36_2 N10_2 1_555 1_555
C1_3 H1_3 1_555 1_555
C2_3 C1_3 1_555 1_555
H2_3 C2_3 1_555 1_555
C3_3 C2_3 1_555 1_555
C4_3 C3_3 1_555 1_555
H3_3 C4_3 1_555 1_555
C5_3 C4_3 1_555 1_555
H4_3 C5_3 1_555 1_555
C6_3 C3_3 1_555 1_555
C7_3 C6_3 1_555 1_555
H5_3 C7_3 1_555 1_555
C8_3 C7_3 1_555 1_555
H6_3 C8_3 1_555 1_555
C9_3 C8_3 1_555 1_555
H7_3 C9_3 1_555 1_555
C10_3 C9_3 1_555 1_555
C11_3 C6_3 1_555 1_555
H8_3 C11_3 1_555 1_555
C12_3 C10_3 1_555 1_555
C13_3 C14_3 1_555 1_555
C14_3 C15_3 1_555 1_555
C15_3 H9_3 1_555 1_555
C16_2 C15_3 1_555 1_555
H10_2 C16_2 1_555 1_555
C17_3 C16_2 1_555 1_555
H11_3 C17_3 1_555 1_555
C18_3 C17_3 1_555 1_555
C19_3 C14_3 1_555 1_555
H12_3 C19_3 1_555 1_555
C20_3 C18_3 1_555 1_555
C21_3 C20_3 1_555 1_555
H13_3 C21_3 1_555 1_555
C22_3 C21_3 1_555 1_555
H14_3 C22_3 1_555 1_555
C23_3 H15_3 1_555 1_555
C24_3 C20_3 1_555 1_555
H16_3 C24_3 1_555 1_555
Cd4 N2_3 1_555 1_555
N8_2 C1_3 1_555 1_555
N2_3 C12_3 1_555 1_555
N3_3 C13_3 1_555 1_555
N4_3 C12_3 1_555 1_555
N5_3 N4_3 1_555 1_555
H17_3 N5_3 1_555 1_555
H18_3 N5_3 1_555 1_555
N15_2 C22_3 1_555 1_555
C25_3 H19_3 1_555 1_555
C26_3 C25_3 1_555 1_555
H20_3 C26_3 1_555 1_555
C27_3 C26_3 1_555 1_555
C28_3 C27_3 1_555 1_555
H21_3 C28_3 1_555 1_555
C29_3 C28_3 1_555 1_555
H22_3 C29_3 1_555 1_555
C30_3 C27_3 1_555 1_555
C31_3 C30_3 1_555 1_555
H23_3 C31_3 1_555 1_555
C32_3 C31_3 1_555 1_555
H24_3 C32_3 1_555 1_555
C33_3 C32_3 1_555 1_555
H25_3 C33_3 1_555 1_555
C34_3 C33_3 1_555 1_555
C35_3 C30_3 1_555 1_555
H26_3 C35_3 1_555 1_555
C36_3 C34_3 1_555 1_555
C37_3 C38_3 1_555 1_555
C38_3 C39_3 1_555 1_555
C39_3 H27_3 1_555 1_555
C40_2 C39_3 1_555 1_555
H28_2 C40_2 1_555 1_555
C41_3 C40_2 1_555 1_555
H29_3 C41_3 1_555 1_555
C42_3 C41_3 1_555 1_555
C43_3 C38_3 1_555 1_555
H30_3 C43_3 1_555 1_555
C44_3 C42_3 1_555 1_555
C45_3 C44_3 1_555 1_555
H31_3 C45_3 1_555 1_555
C46_3 C45_3 1_555 1_555
H32_3 C46_3 1_555 1_555
C47_3 H33_3 1_555 1_555
C48_3 C44_3 1_555 1_555
H34_3 C48_3 1_555 1_555
N7 C25_3 1_555 1_555
N10_3 Cd4 1_555 1_555
N11_3 C37_3 1_555 1_555
N12_3 C36_3 1_555 1_555
N13_3 N12_3 1_555 1_555
H35_3 N13_3 1_555 1_555
H36_3 N13_3 1_555 1_555
N14 C46_3 1_555 1_555
C5_3 N8_2 1_555 1_555
C10_3 C11_3 1_555 1_555
C13_3 N4_3 1_555 1_555
C18_3 C19_3 1_555 1_555
C23_3 C24_3 1_555 1_555
C23_3 N15_2 1_555 1_555
N2_3 N3_3 1_555 1_555
C29_3 N7 1_555 1_555
C34_3 C35_3 1_555 1_555
C36_3 N10_3 1_555 1_555
C37_3 N12_3 1_555 1_555
C42_3 C43_3 1_555 1_555
C47_3 C48_3 1_555 1_555
C47_3 N14 1_555 1_555
N10_3 N11_3 1_555 1_555
C1_4 H1_4 1_555 1_555
C2_4 C1_4 1_555 1_555
H2_4 C2_4 1_555 1_555
C3_4 C2_4 1_555 1_555
C4_4 C3_4 1_555 1_555
H3_4 C4_4 1_555 1_555
C5_4 C4_4 1_555 1_555
H4_4 C5_4 1_555 1_555
C6_4 C3_4 1_555 1_555
C11_4 C6_4 1_555 1_555
H8_4 C11_4 1_555 1_555
C12_4 C10_4 1_555 1_555
C13_4 C14_4 1_555 1_555
C14_4 C15_4 1_555 1_555
C15_4 H9_4 1_555 1_555
C16_3 C15_4 1_555 1_555
H10_3 C16_3 1_555 1_555
C17_4 C16_3 1_555 1_555
H11_4 C17_4 1_555 1_555
C18_4 C17_4 1_555 1_555
C19_4 C14_4 1_555 1_555
H12_4 C19_4 1_555 1_555
C20_4 C18_4 1_555 1_555
C21_4 C20_4 1_555 1_555
H13_4 C21_4 1_555 1_555
C22_4 C21_4 1_555 1_555
H14_4 C22_4 1_555 1_555
C23_4 H15_4 1_555 1_555
C24_4 C20_4 1_555 1_555
H16_4 C24_4 1_555 1_555
Cd3 N2_4 1_555 1_555
N8 C1_4 1_555 1_555
N2_4 C12_4 1_555 1_555
N3_4 C13_4 1_555 1_555
N4_4 C12_4 1_555 1_555
N5_4 N4_4 1_555 1_555
H17_4 N5_4 1_555 1_555
H18_4 N5_4 1_555 1_555
N15 C22_4 1_555 1_555
H23_4 C31_4 1_555 1_555
C32_4 C31_4 1_555 1_555
H24_4 C32_4 1_555 1_555
C33_4 C32_4 1_555 1_555
H25_4 C33_4 1_555 1_555
C5_4 N8 1_555 1_555
C10_4 C11_4 1_555 1_555
C13_4 N4_4 1_555 1_555
C18_4 C19_4 1_555 1_555
C23_4 C24_4 1_555 1_555
C23_4 N15 1_555 1_555
N2_4 N3_4 1_555 1_555
H5_4 C7_4 1_555 1_555
C8_4 C7_4 1_555 1_555
H6_4 C8_4 1_555 1_555
C9_4 C8_4 1_555 1_555
H7_4 C9_4 1_555 1_555
C25_4 H19_4 1_555 1_555
C26_4 C25_4 1_555 1_555
H20_4 C26_4 1_555 1_555
C27_4 C26_4 1_555 1_555
C28_4 C27_4 1_555 1_555
H21_4 C28_4 1_555 1_555
C29_4 C28_4 1_555 1_555
H22_4 C29_4 1_555 1_555
C30_4 C27_4 1_555 1_555
C35_4 C30_4 1_555 1_555
H26_4 C35_4 1_555 1_555
C36_4 C34_4 1_555 1_555
C37_4 C38_4 1_555 1_555
C38_4 C39_4 1_555 1_555
C39_4 H27_4 1_555 1_555
C40_3 C39_4 1_555 1_555
H28_3 C40_3 1_555 1_555
C41_4 C40_3 1_555 1_555
H29_4 C41_4 1_555 1_555
C42_4 C41_4 1_555 1_555
C43_4 C38_4 1_555 1_555
H30_4 C43_4 1_555 1_555
C44_4 C42_4 1_555 1_555
C45_4 C44_4 1_555 1_555
H31_4 C45_4 1_555 1_555
C46_4 C45_4 1_555 1_555
H32_4 C46_4 1_555 1_555
C47_4 H33_4 1_555 1_555
C48_4 C44_4 1_555 1_555
H34_4 C48_4 1_555 1_555
N7_2 C25_4 1_555 1_555
N10_4 Cd3_2 1_555 1_555
N11_4 C37_4 1_555 1_555
N12_4 C36_4 1_555 1_555
N13_4 N12_4 1_555 1_555
H35_4 N13_4 1_555 1_555
H36_4 N13_4 1_555 1_555
N14_2 C46_4 1_555 1_555
C29_4 N7_2 1_555 1_555
C34_4 C35_4 1_555 1_555
C36_4 N10_4 1_555 1_555
C37_4 N12_4 1_555 1_555
C42_4 C43_4 1_555 1_555
C47_4 C48_4 1_555 1_555
C47_4 N14_2 1_555 1_555
N10_4 N11_4 1_555 1_555
H28_4 C40_4 1_555 1_555
H10_4 C16_4 1_555 1_555
Cl1 O1 1_555 1_555
O2 Cl1 1_555 1_555
O3 Cl1_2 1_555 1_555
O4 Cl1_2 1_555 1_555
Cl1_3 O1_2 1_555 1_555
O2_2 Cl1_3 1_555 1_555
O3_2 Cl1_3 1_555 1_555
O4_2 Cl1_3 1_555 1_555
Cl1_4 O1_3 1_555 1_555
O2_3 Cl1_4 1_555 1_555
O3_3 Cl1_4 1_555 1_555
O4_3 Cl1_4 1_555 1_555
Cl1_5 O1_4 1_555 1_555
O2_4 Cl1_5 1_555 1_555
O3_4 Cl1_5 1_555 1_555
O4_4 Cl1_5 1_555 1_555
Cl2 O5 1_555 1_555
O6 Cl2 1_555 1_555
O7 Cl2_2 1_555 1_555
O8 Cl2_2 1_555 1_555
Cl2_3 O5_2 1_555 1_555
O6_2 Cl2_3 1_555 1_555
O7_2 Cl2_3 1_555 1_555
O8_2 Cl2_3 1_555 1_555
Cl2_4 O5_3 1_555 1_555
O6_3 Cl2_4 1_555 1_555
O7_3 Cl2_4 1_555 1_555
O8_3 Cl2_4 1_555 1_555
Cl2_5 O5_4 1_555 1_555
O6_4 Cl2_5 1_555 1_555
O7_4 Cl2_5 1_555 1_555
O8_4 Cl2_5 1_555 1_555

#END
