
###############################################################################
#
# This file contains modified crystal structure data generated from the
# MOF subset of the Cambridge Structural Database (CSD) v543 
# hosted by the Cambridge Crystallographic Data Centre (CCDC).
#
# This work is licensed under the Creative Commons
# Attribution-NonCommercial-ShareAlike 4.0 International License.
# To view a copy of this license, visit
# http://creativecommons.org/licenses/by-nc-sa/4.0/
# or send a letter to
# Creative Commons, PO Box 1866, Mountain View, CA 94042, USA.
#
# CIF created using the CSD Python API on 29 September 2022
# The structure has been converted into the P1 space group
# The structure has a 3D framework
# The original CSD entry OKIWEL02 is in the tetragonal crystal system
# The original CSD entry OKIWEL02 is in a Sohncke space group
# The framework has been calculated to contain at least 10.0% void space
# The void calculation uses a probe of radius 1.32A, grid spacing 0.4
# The framework is charged, counterions have been retained in the structure
#
###############################################################################

data_OKIWEL02
_chemical_formula_moiety         '(C192 H144 Cd2 Cl10 N48 O32 4-)n'
_symmetry_cell_setting           triclinic
_symmetry_space_group_name_H-M   'P 1'
_symmetry_Int_Tables_number      1
_space_group_name_Hall           'P 1'
loop_
_symmetry_equiv_pos_site_id
_symmetry_equiv_pos_as_xyz
1 x,y,z
_cell_length_a                   15.8721(9)
_cell_length_b                   15.8721(9)
_cell_length_c                   21.636(3)
_cell_angle_alpha                90
_cell_angle_beta                 90
_cell_angle_gamma                90
_cell_volume                     5450.62
loop_
_atom_site_label
_atom_site_type_symbol
_atom_site_fract_x
_atom_site_fract_y
_atom_site_fract_z
Cd5 Cd 0.05831(2) 0.05831(2) 0.0000
Cd5_2 Cd 0.05831(2) 0.05831(2) 1.0000
C40 C 0.7301(5) 0.5159(5) 0.0049(4)
H28 H 0.7317 0.5644 0.0307
C41 C 0.7929(4) 0.4568(5) 0.0087(4)
H29 H 0.8377 0.4653 0.0372
C45 C 0.9044(4) 0.3085(4) 0.0317(3)
H31 H 0.8978 0.3472 0.0648
C46 C 0.9600(4) 0.2414(4) 0.0376(3)
H32 H 0.9884 0.2339 0.0758
C1 C 0.9113(4) 0.8594(4) 0.6397(3)
H1 H 0.9607 0.8896 0.6507
C2 C 0.8833(4) 0.7978(4) 0.6798(3)
H2 H 0.9134 0.7854 0.7167
C3 C 0.8086(4) 0.7534(4) 0.6646(3)
C4 C 0.7675(4) 0.7802(4) 0.6130(3)
H3 H 0.7151 0.7552 0.6021
C5 C 0.8008(4) 0.8431(4) 0.5759(3)
H4 H 0.7697 0.8613 0.5409
C6 C 0.7794(4) 0.6810(4) 0.7022(3)
C7 C 0.8074(4) 0.6651(4) 0.7618(3)
H5 H 0.8481 0.7011 0.7802
C8 C 0.7766(5) 0.5972(5) 0.7946(4)
H6 H 0.7957 0.5879 0.8356
C9 C 0.7183(5) 0.5421(5) 0.7690(3)
H7 H 0.6992 0.4941 0.7912
C10 C 0.6887(4) 0.5596(3) 0.7099(3)
C11 C 0.7186(4) 0.6262(4) 0.6767(3)
H8 H 0.6984 0.6359 0.6360
C12 C 0.6261(4) 0.5031(4) 0.6800(3)
C13 C 0.5747(4) 0.4085(3) 0.6173(3)
C14 C 0.5667(4) 0.3376(4) 0.5729(3)
C15 C 0.4949(5) 0.3361(5) 0.5365(3)
H9 H 0.4539 0.3794 0.5398
C16 C 0.4841(5) 0.2699(5) 0.4951(4)
H10 H 0.4356 0.2683 0.4693
C17 C 0.5432(5) 0.2071(4) 0.4913(4)
H11 H 0.5347 0.1623 0.4628
C18 C 0.6152(4) 0.2072(4) 0.5281(3)
C19 C 0.6252(4) 0.2748(4) 0.5695(3)
H12 H 0.6733 0.2766 0.5955
C20 C 0.6807(4) 0.1415(4) 0.5225(3)
C21 C 0.6915(4) 0.0956(4) 0.4683(3)
H13 H 0.6528 0.1022 0.4352
C22 C 0.7586(4) 0.0400(4) 0.4624(3)
H14 H 0.7661 0.0116 0.4242
C23 C 0.8016(4) 0.0671(4) 0.5601(3)
H15 H 0.8400 0.0573 0.5930
C24 C 0.7374(4) 0.1245(4) 0.5695(3)
H16 H 0.7322 0.1524 0.6082
Cd1 Cd 0.44169(2) 0.55831(2) 0.7500
N1 N 0.8747(3) 0.8789(4) 0.5877(2)
N2 N 0.5444(3) 0.5061(3) 0.6837(2)
N3 N 0.5110(4) 0.4453(3) 0.6443(2)
N4 N 0.6481(4) 0.4424(3) 0.6385(2)
N5 N 0.7296(4) 0.4234(3) 0.6170(3)
H17 H 0.7572 0.4721 0.6080
H18 H 0.7580 0.3952 0.6469
N6 N 0.8129(3) 0.0248(3) 0.5080(3)
C25 C 0.1406(4) 0.0887(4) 0.8603(3)
H19 H 0.1104 0.0393 0.8493
C26 C 0.2022(4) 0.1167(4) 0.8202(3)
H20 H 0.2146 0.0866 0.7833
C27 C 0.2466(4) 0.1914(4) 0.8354(3)
C28 C 0.2198(4) 0.2325(4) 0.8870(3)
H21 H 0.2448 0.2849 0.8979
C29 C 0.1569(4) 0.1992(4) 0.9241(3)
H22 H 0.1387 0.2303 0.9591
C30 C 0.3190(4) 0.2206(4) 0.7978(3)
C31 C 0.3349(4) 0.1926(4) 0.7382(3)
H23 H 0.2989 0.1519 0.7198
C32 C 0.4028(5) 0.2234(5) 0.7054(4)
H24 H 0.4121 0.2043 0.6644
C33 C 0.4579(5) 0.2817(5) 0.7310(3)
H25 H 0.5059 0.3008 0.7088
C34 C 0.4404(3) 0.3113(4) 0.7901(3)
C35 C 0.3738(4) 0.2814(4) 0.8233(3)
H26 H 0.3641 0.3016 0.8640
C36 C 0.4969(4) 0.3739(4) 0.8200(3)
C37 C 0.5915(3) 0.4253(4) 0.8827(3)
C38 C 0.6624(4) 0.4333(4) 0.9271(3)
C39 C 0.6639(5) 0.5051(5) 0.9635(3)
H27 H 0.6206 0.5461 0.9602
C42 C 0.7928(4) 0.3848(4) 0.9719(3)
C43 C 0.7252(4) 0.3748(4) 0.9305(3)
H30 H 0.7234 0.3267 0.9045
C44 C 0.8585(4) 0.3193(4) 0.9775(3)
C47 C 0.9329(4) 0.1984(4) 0.9399(3)
H33 H 0.9427 0.1600 0.9070
C48 C 0.8755(4) 0.2626(4) 0.9305(3)
H34 H 0.8476 0.2678 0.8918
Cd2 Cd 0.94169(2) 0.94169(2) 0.5000
N7 N 0.3747(3) 0.6211(4) 0.6623(2)
N8 N 0.3789(4) 0.6253(3) 0.8377(2)
N9 N 0.1211(4) 0.1253(3) 0.9123(2)
N10 N 0.4939(3) 0.4556(3) 0.8163(2)
N11 N 0.5547(3) 0.4890(4) 0.8557(2)
N12 N 0.5576(3) 0.3519(4) 0.8615(2)
N13 N 0.5766(3) 0.2704(4) 0.8830(3)
H35 H 0.5279 0.2428 0.8920
H36 H 0.6048 0.2420 0.8531
N14 N 0.3129(3) 0.4752(3) 0.7420(3)
N15 N 0.5248(3) 0.6871(3) 0.7580(3)
N16 N 0.9752(3) 0.1871(3) 0.9920(3)
C1_2 C 0.0887(4) 0.1406(4) 0.1397(3)
H1_2 H 0.0393 0.1104 0.1507
C2_2 C 0.1167(4) 0.2022(4) 0.1798(3)
H2_2 H 0.0866 0.2146 0.2167
C3_2 C 0.1914(4) 0.2466(4) 0.1646(3)
C4_2 C 0.2325(4) 0.2198(4) 0.1130(3)
H3_2 H 0.2849 0.2448 0.1021
C5_2 C 0.1992(4) 0.1569(4) 0.0759(3)
H4_2 H 0.2303 0.1387 0.0409
C6_2 C 0.2206(4) 0.3190(4) 0.2022(3)
C7_2 C 0.1926(4) 0.3349(4) 0.2618(3)
H5_2 H 0.1519 0.2989 0.2802
C8_2 C 0.2234(5) 0.4028(5) 0.2946(4)
H6_2 H 0.2043 0.4121 0.3356
C9_2 C 0.2817(5) 0.4579(5) 0.2690(3)
H7_2 H 0.3008 0.5059 0.2912
C10_2 C 0.3113(4) 0.4404(3) 0.2099(3)
C11_2 C 0.2814(4) 0.3738(4) 0.1767(3)
H8_2 H 0.3016 0.3641 0.1360
C12_2 C 0.3739(4) 0.4969(4) 0.1800(3)
C13_2 C 0.4253(4) 0.5915(3) 0.1173(3)
C14_2 C 0.4333(4) 0.6624(4) 0.0729(3)
C15_2 C 0.5051(5) 0.6639(5) 0.0365(3)
H9_2 H 0.5461 0.6206 0.0398
C18_2 C 0.3848(4) 0.7928(4) 0.0281(3)
C19_2 C 0.3748(4) 0.7252(4) 0.0695(3)
H12_2 H 0.3267 0.7234 0.0955
C20_2 C 0.3193(4) 0.8585(4) 0.0225(3)
C23_2 C 0.1984(4) 0.9329(4) 0.0601(3)
H15_2 H 0.1600 0.9427 0.0930
C24_2 C 0.2626(4) 0.8755(4) 0.0695(3)
H16_2 H 0.2678 0.8476 0.1082
Cd1_2 Cd 0.55831(2) 0.44169(2) 0.2500
N1_2 N 0.1253(3) 0.1211(4) 0.0877(2)
N2_2 N 0.4556(3) 0.4939(3) 0.1837(2)
N3_2 N 0.4890(4) 0.5547(3) 0.1443(2)
N4_2 N 0.3519(4) 0.5576(3) 0.1385(2)
N5_2 N 0.2704(4) 0.5766(3) 0.1170(3)
H17_2 H 0.2428 0.5279 0.1080
H18_2 H 0.2420 0.6048 0.1469
N6_2 N 0.1871(3) 0.9752(3) 0.0080(3)
C25_2 C 0.8594(4) 0.9113(4) 0.3603(3)
H19_2 H 0.8896 0.9607 0.3493
C26_2 C 0.7978(4) 0.8833(4) 0.3202(3)
H20_2 H 0.7854 0.9134 0.2833
C27_2 C 0.7534(4) 0.8086(4) 0.3354(3)
C28_2 C 0.7802(4) 0.7675(4) 0.3870(3)
H21_2 H 0.7552 0.7151 0.3979
C29_2 C 0.8431(4) 0.8008(4) 0.4241(3)
H22_2 H 0.8613 0.7697 0.4591
C30_2 C 0.6810(4) 0.7794(4) 0.2978(3)
C31_2 C 0.6651(4) 0.8074(4) 0.2382(3)
H23_2 H 0.7011 0.8481 0.2198
C32_2 C 0.5972(5) 0.7766(5) 0.2054(4)
H24_2 H 0.5879 0.7957 0.1644
C33_2 C 0.5421(5) 0.7183(5) 0.2310(3)
H25_2 H 0.4941 0.6992 0.2088
C34_2 C 0.5596(3) 0.6887(4) 0.2901(3)
C35_2 C 0.6262(4) 0.7186(4) 0.3233(3)
H26_2 H 0.6359 0.6984 0.3640
C36_2 C 0.5031(4) 0.6261(4) 0.3200(3)
C37_2 C 0.4085(3) 0.5747(4) 0.3827(3)
C38_2 C 0.3376(4) 0.5667(4) 0.4271(3)
C39_2 C 0.3361(5) 0.4949(5) 0.4635(3)
H27_2 H 0.3794 0.4539 0.4602
C40_2 C 0.2699(5) 0.4841(5) 0.5049(4)
H28_2 H 0.2683 0.4356 0.5307
C41_2 C 0.2071(4) 0.5432(5) 0.5087(4)
H29_2 H 0.1623 0.5347 0.5372
C42_2 C 0.2072(4) 0.6152(4) 0.4719(3)
C43_2 C 0.2748(4) 0.6252(4) 0.4305(3)
H30_2 H 0.2766 0.6733 0.4045
C44_2 C 0.1415(4) 0.6807(4) 0.4775(3)
C45_2 C 0.0956(4) 0.6915(4) 0.5317(3)
H31_2 H 0.1022 0.6528 0.5648
C46_2 C 0.0400(4) 0.7586(4) 0.5376(3)
H32_2 H 0.0116 0.7661 0.5758
C47_2 C 0.0671(4) 0.8016(4) 0.4399(3)
H33_2 H 0.0573 0.8400 0.4070
C48_2 C 0.1245(4) 0.7374(4) 0.4305(3)
H34_2 H 0.1524 0.7322 0.3918
N7_2 N 0.6253(3) 0.3789(4) 0.1623(2)
N8_2 N 0.6211(4) 0.3747(3) 0.3377(2)
N9_2 N 0.8789(4) 0.8747(3) 0.4123(2)
N10_2 N 0.5061(3) 0.5444(3) 0.3163(2)
N11_2 N 0.4453(3) 0.5110(4) 0.3557(2)
N12_2 N 0.4424(3) 0.6481(4) 0.3615(2)
N13_2 N 0.4234(3) 0.7296(4) 0.3830(3)
H35_2 H 0.4721 0.7572 0.3920
H36_2 H 0.3952 0.7580 0.3531
N14_2 N 0.6871(3) 0.5248(3) 0.2420(3)
N15_2 N 0.4752(3) 0.3129(3) 0.2580(3)
N16_2 N 0.0248(3) 0.8129(3) 0.4920(3)
C16_2 C 0.5159(5) 0.7301(5) 0.9951(4)
H10_2 H 0.5644 0.7317 0.9693
C17_2 C 0.4568(5) 0.7929(4) 0.9913(4)
H11_2 H 0.4653 0.8377 0.9628
C21_2 C 0.3085(4) 0.9044(4) 0.9683(3)
H13_2 H 0.3472 0.8978 0.9352
C22_2 C 0.2414(4) 0.9600(4) 0.9624(3)
H14_2 H 0.2339 0.9884 0.9242
H7_3 H 0.0059 0.1992 0.5412
C13_3 C 0.0915(3) 0.0747(4) 0.3673(3)
C14_3 C 0.1624(4) 0.0667(4) 0.3229(3)
C17_3 C 0.2929(4) 0.0432(5) 0.2413(4)
H11_3 H 0.3377 0.0347 0.2128
C18_3 C 0.2928(4) 0.1152(4) 0.2781(3)
C19_3 C 0.2252(4) 0.1252(4) 0.3195(3)
H12_3 H 0.2234 0.1733 0.3455
C20_3 C 0.3585(4) 0.1807(4) 0.2725(3)
C21_3 C 0.4044(4) 0.1915(4) 0.2183(3)
H13_3 H 0.3978 0.1528 0.1852
C22_3 C 0.4600(4) 0.2586(4) 0.2124(3)
H14_3 H 0.4884 0.2661 0.1742
C23_3 C 0.4329(4) 0.3016(4) 0.3101(3)
H15_3 H 0.4427 0.3400 0.3430
C24_3 C 0.3755(4) 0.2374(4) 0.3195(3)
H16_3 H 0.3476 0.2322 0.3582
N3_3 N 0.0547(3) 0.0110(4) 0.3943(2)
N4_3 N 0.0576(3) 0.1481(4) 0.3885(2)
N5_3 N 0.0766(3) 0.2296(4) 0.3670(3)
H17_3 H 0.0279 0.2572 0.3580
H18_3 H 0.1048 0.2580 0.3969
H25_3 H 0.1992 0.0059 0.4588
C37_3 C 0.0747(4) 0.0915(3) 0.6327(3)
C38_3 C 0.0667(4) 0.1624(4) 0.6771(3)
C41_3 C 0.0432(5) 0.2929(4) 0.7587(4)
H29_3 H 0.0347 0.3377 0.7872
C42_3 C 0.1152(4) 0.2928(4) 0.7219(3)
C43_3 C 0.1252(4) 0.2252(4) 0.6805(3)
H30_3 H 0.1733 0.2234 0.6545
C44_3 C 0.1807(4) 0.3585(4) 0.7275(3)
C45_3 C 0.1915(4) 0.4044(4) 0.7817(3)
H31_3 H 0.1528 0.3978 0.8148
C46_3 C 0.2586(4) 0.4600(4) 0.7876(3)
H32_3 H 0.2661 0.4884 0.8258
C47_3 C 0.3016(4) 0.4329(4) 0.6899(3)
H33_3 H 0.3400 0.4427 0.6570
C48_3 C 0.2374(4) 0.3755(4) 0.6805(3)
H34_3 H 0.2322 0.3476 0.6418
N11_3 N 0.0110(4) 0.0547(3) 0.6057(2)
N12_3 N 0.1481(4) 0.0576(3) 0.6115(2)
N13_3 N 0.2296(4) 0.0766(3) 0.6330(3)
H35_3 H 0.2572 0.0279 0.6420
H36_3 H 0.2580 0.1048 0.6031
C15_3 C 0.1639(5) 0.9949(5) 0.2865(3)
H9_3 H 0.1206 0.9539 0.2898
C16_3 C 0.2301(5) 0.9841(5) 0.2451(4)
H10_3 H 0.2317 0.9356 0.2193
C25_3 C 0.4113(4) 0.6406(4) 0.6103(3)
H19_3 H 0.4607 0.6104 0.5993
C26_3 C 0.3833(4) 0.7022(4) 0.5702(3)
H20_3 H 0.4134 0.7146 0.5333
C27_3 C 0.3086(4) 0.7466(4) 0.5854(3)
C28_3 C 0.2675(4) 0.7198(4) 0.6370(3)
H21_3 H 0.2151 0.7448 0.6479
C29_3 C 0.3008(4) 0.6569(4) 0.6741(3)
H22_3 H 0.2697 0.6387 0.7091
C30_3 C 0.2794(4) 0.8190(4) 0.5478(3)
C31_3 C 0.3074(4) 0.8349(4) 0.4882(3)
H23_3 H 0.3481 0.7989 0.4698
C32_3 C 0.2766(5) 0.9028(5) 0.4554(4)
H24_3 H 0.2957 0.9121 0.4144
C33_3 C 0.2183(5) 0.9579(5) 0.4810(3)
C34_3 C 0.1887(4) 0.9404(3) 0.5401(3)
C35_3 C 0.2186(4) 0.8738(4) 0.5733(3)
H26_3 H 0.1984 0.8641 0.6140
C36_3 C 0.1261(4) 0.9969(4) 0.5700(3)
N10_3 N 0.0444(3) 0.9939(3) 0.5663(2)
C1_3 C 0.6406(4) 0.4113(4) 0.3897(3)
H1_3 H 0.6104 0.4607 0.4007
C2_3 C 0.7022(4) 0.3833(4) 0.4298(3)
H2_3 H 0.7146 0.4134 0.4667
C3_3 C 0.7466(4) 0.3086(4) 0.4146(3)
C4_3 C 0.7198(4) 0.2675(4) 0.3630(3)
H3_3 H 0.7448 0.2151 0.3521
C5_3 C 0.6569(4) 0.3008(4) 0.3259(3)
H4_3 H 0.6387 0.2697 0.2909
C6_3 C 0.8190(4) 0.2794(4) 0.4522(3)
C7_3 C 0.8349(4) 0.3074(4) 0.5118(3)
H5_3 H 0.7989 0.3481 0.5302
C8_3 C 0.9028(5) 0.2766(5) 0.5446(4)
H6_3 H 0.9121 0.2957 0.5856
C9_3 C 0.9579(5) 0.2183(5) 0.5190(3)
C10_3 C 0.9404(3) 0.1887(4) 0.4599(3)
C11_3 C 0.8738(4) 0.2186(4) 0.4267(3)
H8_3 H 0.8641 0.1984 0.3860
C12_3 C 0.9969(4) 0.1261(4) 0.4300(3)
N2_3 N 0.9939(3) 0.0444(3) 0.4337(2)
C39_3 C 0.9949(5) 0.1639(5) 0.7135(3)
H27_3 H 0.9539 0.1206 0.7102
C40_3 C 0.9841(5) 0.2301(5) 0.7549(4)
H28_3 H 0.9356 0.2317 0.7807
C7_4 C 0.1651(4) 0.6926(4) 0.0118(3)
H5_4 H 0.2011 0.6519 0.0302
C8_4 C 0.0972(5) 0.7234(5) 0.0446(4)
H6_4 H 0.0879 0.7043 0.0856
C9_4 C 0.0421(5) 0.7817(5) 0.0190(3)
C39_4 C 0.0051(5) 0.8361(5) 0.2135(3)
H27_4 H 0.0461 0.8794 0.2102
C40_4 C 0.0159(5) 0.7699(5) 0.2549(4)
H28_4 H 0.0644 0.7683 0.2807
C1_4 C 0.3594(4) 0.5887(4) 0.8897(3)
H1_4 H 0.3896 0.5393 0.9007
C2_4 C 0.2978(4) 0.6167(4) 0.9298(3)
H2_4 H 0.2854 0.5866 0.9667
C3_4 C 0.2534(4) 0.6914(4) 0.9146(3)
C4_4 C 0.2802(4) 0.7325(4) 0.8630(3)
H3_4 H 0.2552 0.7849 0.8521
C5_4 C 0.3431(4) 0.6992(4) 0.8259(3)
H4_4 H 0.3613 0.7303 0.7909
C6_4 C 0.1810(4) 0.7206(4) 0.9522(3)
C10_4 C 0.0596(3) 0.8113(4) 0.9599(3)
C11_4 C 0.1262(4) 0.7814(4) 0.9267(3)
H8_4 H 0.1359 0.8016 0.8860
C12_4 C 0.0031(4) 0.8739(4) 0.9300(3)
N2_4 N 0.0061(3) 0.9556(3) 0.9337(2)
C25_4 C 0.5887(4) 0.3594(4) 0.1103(3)
H19_4 H 0.5393 0.3896 0.0993
C26_4 C 0.6167(4) 0.2978(4) 0.0702(3)
H20_4 H 0.5866 0.2854 0.0333
C27_4 C 0.6914(4) 0.2534(4) 0.0854(3)
C28_4 C 0.7325(4) 0.2802(4) 0.1370(3)
H21_4 H 0.7849 0.2552 0.1479
C29_4 C 0.6992(4) 0.3431(4) 0.1741(3)
H22_4 H 0.7303 0.3613 0.2091
C30_4 C 0.7206(4) 0.1810(4) 0.0478(3)
C34_4 C 0.8113(4) 0.0596(3) 0.0401(3)
C35_4 C 0.7814(4) 0.1262(4) 0.0733(3)
H26_4 H 0.8016 0.1359 0.1140
C36_4 C 0.8739(4) 0.0031(4) 0.0700(3)
N10_4 N 0.9556(3) 0.0061(3) 0.0663(2)
C15_4 C 0.8361(5) 0.0051(5) 0.7865(3)
H9_4 H 0.8794 0.0461 0.7898
C16_4 C 0.7699(5) 0.0159(5) 0.7451(4)
H10_4 H 0.7683 0.0644 0.7193
C31_4 C 0.6926(4) 0.1651(4) 0.9882(3)
H23_4 H 0.6519 0.2011 0.9698
C32_4 C 0.7234(5) 0.0972(5) 0.9554(4)
H24_4 H 0.7043 0.0879 0.9144
C33_4 C 0.7817(5) 0.0421(5) 0.9810(3)
H7_4 H 0.9941 0.8008 0.0412
C37_4 C 0.9253(4) 0.9085(3) 0.1327(3)
C38_4 C 0.9333(4) 0.8376(4) 0.1771(3)
C41_4 C 0.9568(5) 0.7071(4) 0.2587(4)
H29_4 H 0.9653 0.6623 0.2872
C42_4 C 0.8848(4) 0.7072(4) 0.2219(3)
C43_4 C 0.8748(4) 0.7748(4) 0.1805(3)
H30_4 H 0.8267 0.7766 0.1545
C44_4 C 0.8193(4) 0.6415(4) 0.2275(3)
C45_4 C 0.8085(4) 0.5956(4) 0.2817(3)
H31_4 H 0.8472 0.6022 0.3148
C46_4 C 0.7414(4) 0.5400(4) 0.2876(3)
H32_4 H 0.7339 0.5116 0.3258
C47_4 C 0.6984(4) 0.5671(4) 0.1899(3)
H33_4 H 0.6600 0.5573 0.1570
C48_4 C 0.7626(4) 0.6245(4) 0.1805(3)
H34_4 H 0.7678 0.6524 0.1418
N11_4 N 0.9890(4) 0.9453(3) 0.1057(2)
N12_4 N 0.8519(4) 0.9424(3) 0.1115(2)
N13_4 N 0.7704(4) 0.9234(3) 0.1330(3)
H35_4 H 0.7428 0.9721 0.1420
H36_4 H 0.7420 0.8952 0.1031
C13_4 C 0.9085(3) 0.9253(4) 0.8673(3)
C14_4 C 0.8376(4) 0.9333(4) 0.8229(3)
C17_4 C 0.7071(4) 0.9568(5) 0.7413(4)
H11_4 H 0.6623 0.9653 0.7128
C18_4 C 0.7072(4) 0.8848(4) 0.7781(3)
C19_4 C 0.7748(4) 0.8748(4) 0.8195(3)
H12_4 H 0.7766 0.8267 0.8455
C20_4 C 0.6415(4) 0.8193(4) 0.7725(3)
C21_4 C 0.5956(4) 0.8085(4) 0.7183(3)
H13_4 H 0.6022 0.8472 0.6852
C22_4 C 0.5400(4) 0.7414(4) 0.7124(3)
H14_4 H 0.5116 0.7339 0.6742
C23_4 C 0.5671(4) 0.6984(4) 0.8101(3)
H15_4 H 0.5573 0.6600 0.8430
C24_4 C 0.6245(4) 0.7626(4) 0.8195(3)
H16_4 H 0.6524 0.7678 0.8582
N3_4 N 0.9453(3) 0.9890(4) 0.8943(2)
N4_4 N 0.9424(3) 0.8519(4) 0.8885(2)
N5_4 N 0.9234(3) 0.7704(4) 0.8670(3)
H17_4 H 0.9721 0.7428 0.8580
H18_4 H 0.8952 0.7420 0.8969
H25_4 H 0.8008 0.9941 0.9588
Cl1 Cl 0.76923(14) 0.76923(14) 0.0000
O3 O 0.7319(7) 0.7387(7) 0.0528(3)
O4 O 0.8441(15) 0.7137(18) 0.008(2)
Cl1_2 Cl 0.76923(14) 0.76923(14) 1.0000
O1 O 0.7387(7) 0.7319(7) 0.9472(3)
O2 O 0.7137(18) 0.8441(15) 0.992(2)
Cl1_3 Cl 0.23077(14) 0.23077(14) 0.5000
O1_2 O 0.2613(7) 0.2681(7) 0.4472(3)
O2_2 O 0.2863(18) 0.1559(15) 0.492(2)
O3_2 O 0.2681(7) 0.2613(7) 0.5528(3)
O4_2 O 0.1559(15) 0.2863(18) 0.508(2)
Cl1_4 Cl 0.73077(14) 0.26923(14) 0.7500
O1_3 O 0.7681(7) 0.2387(7) 0.6972(3)
O2_3 O 0.6559(15) 0.2137(18) 0.742(2)
O3_3 O 0.7613(7) 0.2319(7) 0.8028(3)
O4_3 O 0.7863(18) 0.3441(15) 0.758(2)
Cl1_5 Cl 0.26923(14) 0.73077(14) 0.2500
O1_4 O 0.2319(7) 0.7613(7) 0.1972(3)
O2_4 O 0.3441(15) 0.7863(18) 0.242(2)
O3_4 O 0.2387(7) 0.7681(7) 0.3028(3)
O4_4 O 0.2137(18) 0.6559(15) 0.258(2)
Cl2 Cl 0.37992(16) 0.37992(16) 0.0000
O5 O 0.3453(14) 0.4472(17) 0.0308(10)
O8 O 0.4047(8) 0.3271(16) 0.0507(7)
Cl2_2 Cl 0.37992(16) 0.37992(16) 1.0000
O6 O 0.3271(16) 0.4047(8) 0.9493(7)
O7 O 0.4472(17) 0.3453(14) 0.9692(10)
Cl2_3 Cl 0.62008(16) 0.62008(16) 0.5000
O5_2 O 0.6547(14) 0.5528(17) 0.5308(10)
O6_2 O 0.6729(16) 0.5953(8) 0.4493(7)
O7_2 O 0.5528(17) 0.6547(14) 0.4692(10)
O8_2 O 0.5953(8) 0.6729(16) 0.5507(7)
Cl2_4 Cl 0.12008(16) 0.87992(16) 0.7500
O5_3 O 0.0528(17) 0.8453(14) 0.7808(10)
O6_3 O 0.0953(8) 0.8271(16) 0.6993(7)
O7_3 O 0.1547(14) 0.9472(17) 0.7192(10)
O8_3 O 0.1729(16) 0.9047(8) 0.8007(7)
Cl2_5 Cl 0.87992(16) 0.12008(16) 0.2500
O5_4 O 0.9472(17) 0.1547(14) 0.2808(10)
O6_4 O 0.9047(8) 0.1729(16) 0.1993(7)
O7_4 O 0.8453(14) 0.0528(17) 0.2192(10)
O8_4 O 0.8271(16) 0.0953(8) 0.3007(7)
loop_
_geom_bond_atom_site_label_1
_geom_bond_atom_site_label_2
_geom_bond_site_symmetry_1
_geom_bond_site_symmetry_2
H28 C40 1_555 1_555
C41 C40 1_555 1_555
H29 C41 1_555 1_555
H31 C45 1_555 1_555
C46 C45 1_555 1_555
H32 C46 1_555 1_555
C1 H1 1_555 1_555
C2 C1 1_555 1_555
H2 C2 1_555 1_555
C3 C2 1_555 1_555
C4 C3 1_555 1_555
H3 C4 1_555 1_555
C5 C4 1_555 1_555
H4 C5 1_555 1_555
C6 C3 1_555 1_555
C7 C6 1_555 1_555
H5 C7 1_555 1_555
C8 C7 1_555 1_555
H6 C8 1_555 1_555
C9 C8 1_555 1_555
H7 C9 1_555 1_555
C10 C9 1_555 1_555
C11 C6 1_555 1_555
H8 C11 1_555 1_555
C12 C10 1_555 1_555
C13 C14 1_555 1_555
C14 C15 1_555 1_555
C15 H9 1_555 1_555
C16 C15 1_555 1_555
H10 C16 1_555 1_555
C17 C16 1_555 1_555
H11 C17 1_555 1_555
C18 C17 1_555 1_555
C19 C14 1_555 1_555
H12 C19 1_555 1_555
C20 C18 1_555 1_555
C21 C20 1_555 1_555
H13 C21 1_555 1_555
C22 C21 1_555 1_555
H14 C22 1_555 1_555
C23 H15 1_555 1_555
C24 C20 1_555 1_555
H16 C24 1_555 1_555
Cd1 N2 1_555 1_555
N1 C1 1_555 1_555
N2 C12 1_555 1_555
N3 C13 1_555 1_555
N4 C12 1_555 1_555
N5 N4 1_555 1_555
H17 N5 1_555 1_555
H18 N5 1_555 1_555
N6 C22 1_555 1_555
C25 H19 1_555 1_555
C26 C25 1_555 1_555
H20 C26 1_555 1_555
C27 C26 1_555 1_555
C28 C27 1_555 1_555
H21 C28 1_555 1_555
C29 C28 1_555 1_555
H22 C29 1_555 1_555
C30 C27 1_555 1_555
C31 C30 1_555 1_555
H23 C31 1_555 1_555
C32 C31 1_555 1_555
H24 C32 1_555 1_555
C33 C32 1_555 1_555
H25 C33 1_555 1_555
C34 C33 1_555 1_555
C35 C30 1_555 1_555
H26 C35 1_555 1_555
C36 C34 1_555 1_555
C37 C38 1_555 1_555
C38 C39 1_555 1_555
C39 H27 1_555 1_555
C43 C38 1_555 1_555
H30 C43 1_555 1_555
C44 C42 1_555 1_555
C47 H33 1_555 1_555
C48 C44 1_555 1_555
H34 C48 1_555 1_555
Cd2 N1 1_555 1_555
Cd5_2 N9 1_555 1_555
N7 Cd1 1_555 1_555
N8 Cd1 1_555 1_555
N9 C25 1_555 1_555
N10 Cd1 1_555 1_555
N11 C37 1_555 1_555
N12 C36 1_555 1_555
N13 N12 1_555 1_555
H35 N13 1_555 1_555
H36 N13 1_555 1_555
N14 Cd1 1_555 1_555
N15 Cd1 1_555 1_555
C5 N1 1_555 1_555
C10 C11 1_555 1_555
C13 N4 1_555 1_555
C18 C19 1_555 1_555
C23 C24 1_555 1_555
C23 N6 1_555 1_555
N2 N3 1_555 1_555
C29 N9 1_555 1_555
C34 C35 1_555 1_555
C36 N10 1_555 1_555
C37 N12 1_555 1_555
C42 C43 1_555 1_555
C47 C48 1_555 1_555
C47 N16 1_555 1_555
N10 N11 1_555 1_555
C1_2 H1_2 1_555 1_555
C2_2 C1_2 1_555 1_555
H2_2 C2_2 1_555 1_555
C3_2 C2_2 1_555 1_555
C4_2 C3_2 1_555 1_555
H3_2 C4_2 1_555 1_555
C5_2 C4_2 1_555 1_555
H4_2 C5_2 1_555 1_555
C6_2 C3_2 1_555 1_555
C7_2 C6_2 1_555 1_555
H5_2 C7_2 1_555 1_555
C8_2 C7_2 1_555 1_555
H6_2 C8_2 1_555 1_555
C9_2 C8_2 1_555 1_555
H7_2 C9_2 1_555 1_555
C10_2 C9_2 1_555 1_555
C11_2 C6_2 1_555 1_555
H8_2 C11_2 1_555 1_555
C12_2 C10_2 1_555 1_555
C13_2 C14_2 1_555 1_555
C14_2 C15_2 1_555 1_555
C15_2 H9_2 1_555 1_555
C19_2 C14_2 1_555 1_555
H12_2 C19_2 1_555 1_555
C20_2 C18_2 1_555 1_555
C23_2 H15_2 1_555 1_555
C24_2 C20_2 1_555 1_555
H16_2 C24_2 1_555 1_555
Cd1_2 N2_2 1_555 1_555
N1_2 C1_2 1_555 1_555
N2_2 C12_2 1_555 1_555
N3_2 C13_2 1_555 1_555
N4_2 C12_2 1_555 1_555
N5_2 N4_2 1_555 1_555
H17_2 N5_2 1_555 1_555
H18_2 N5_2 1_555 1_555
C25_2 H19_2 1_555 1_555
C26_2 C25_2 1_555 1_555
H20_2 C26_2 1_555 1_555
C27_2 C26_2 1_555 1_555
C28_2 C27_2 1_555 1_555
H21_2 C28_2 1_555 1_555
C29_2 C28_2 1_555 1_555
H22_2 C29_2 1_555 1_555
C30_2 C27_2 1_555 1_555
C31_2 C30_2 1_555 1_555
H23_2 C31_2 1_555 1_555
C32_2 C31_2 1_555 1_555
H24_2 C32_2 1_555 1_555
C33_2 C32_2 1_555 1_555
H25_2 C33_2 1_555 1_555
C34_2 C33_2 1_555 1_555
C35_2 C30_2 1_555 1_555
H26_2 C35_2 1_555 1_555
C36_2 C34_2 1_555 1_555
C37_2 C38_2 1_555 1_555
C38_2 C39_2 1_555 1_555
C39_2 H27_2 1_555 1_555
C40_2 C39_2 1_555 1_555
H28_2 C40_2 1_555 1_555
C41_2 C40_2 1_555 1_555
H29_2 C41_2 1_555 1_555
C42_2 C41_2 1_555 1_555
C43_2 C38_2 1_555 1_555
H30_2 C43_2 1_555 1_555
C44_2 C42_2 1_555 1_555
C45_2 C44_2 1_555 1_555
H31_2 C45_2 1_555 1_555
C46_2 C45_2 1_555 1_555
H32_2 C46_2 1_555 1_555
C47_2 H33_2 1_555 1_555
C48_2 C44_2 1_555 1_555
H34_2 C48_2 1_555 1_555
Cd5 N1_2 1_555 1_555
Cd2 N9_2 1_555 1_555
N7_2 Cd1_2 1_555 1_555
N8_2 Cd1_2 1_555 1_555
N9_2 C25_2 1_555 1_555
N10_2 Cd1_2 1_555 1_555
N11_2 C37_2 1_555 1_555
N12_2 C36_2 1_555 1_555
N13_2 N12_2 1_555 1_555
H35_2 N13_2 1_555 1_555
H36_2 N13_2 1_555 1_555
N14_2 Cd1_2 1_555 1_555
N15_2 Cd1_2 1_555 1_555
N16_2 C46_2 1_555 1_555
C5_2 N1_2 1_555 1_555
C10_2 C11_2 1_555 1_555
C13_2 N4_2 1_555 1_555
C18_2 C19_2 1_555 1_555
C23_2 C24_2 1_555 1_555
C23_2 N6_2 1_555 1_555
N2_2 N3_2 1_555 1_555
C29_2 N9_2 1_555 1_555
C34_2 C35_2 1_555 1_555
C36_2 N10_2 1_555 1_555
C37_2 N12_2 1_555 1_555
C42_2 C43_2 1_555 1_555
C47_2 C48_2 1_555 1_555
C47_2 N16_2 1_555 1_555
N10_2 N11_2 1_555 1_555
H10_2 C16_2 1_555 1_555
C17_2 C16_2 1_555 1_555
H11_2 C17_2 1_555 1_555
H13_2 C21_2 1_555 1_555
C22_2 C21_2 1_555 1_555
H14_2 C22_2 1_555 1_555
C13_3 C14_3 1_555 1_555
H11_3 C17_3 1_555 1_555
C18_3 C17_3 1_555 1_555
C19_3 C14_3 1_555 1_555
H12_3 C19_3 1_555 1_555
C20_3 C18_3 1_555 1_555
C21_3 C20_3 1_555 1_555
H13_3 C21_3 1_555 1_555
C22_3 C21_3 1_555 1_555
H14_3 C22_3 1_555 1_555
C23_3 H15_3 1_555 1_555
C24_3 C20_3 1_555 1_555
H16_3 C24_3 1_555 1_555
N3_3 C13_3 1_555 1_555
N5_3 N4_3 1_555 1_555
H17_3 N5_3 1_555 1_555
H18_3 N5_3 1_555 1_555
N15_2 C22_3 1_555 1_555
C37_3 C38_3 1_555 1_555
H29_3 C41_3 1_555 1_555
C42_3 C41_3 1_555 1_555
C43_3 C38_3 1_555 1_555
H30_3 C43_3 1_555 1_555
C44_3 C42_3 1_555 1_555
C45_3 C44_3 1_555 1_555
H31_3 C45_3 1_555 1_555
C46_3 C45_3 1_555 1_555
H32_3 C46_3 1_555 1_555
C47_3 H33_3 1_555 1_555
C48_3 C44_3 1_555 1_555
H34_3 C48_3 1_555 1_555
N11_3 C37_3 1_555 1_555
N13_3 N12_3 1_555 1_555
H35_3 N13_3 1_555 1_555
H36_3 N13_3 1_555 1_555
N14 C46_3 1_555 1_555
C13_3 N4_3 1_555 1_555
C18_3 C19_3 1_555 1_555
C23_3 C24_3 1_555 1_555
C23_3 N15_2 1_555 1_555
C37_3 N12_3 1_555 1_555
C42_3 C43_3 1_555 1_555
C47_3 C48_3 1_555 1_555
C47_3 N14 1_555 1_555
C15_3 H9_3 1_555 1_555
C16_3 C15_3 1_555 1_555
H10_3 C16_3 1_555 1_555
C25_3 H19_3 1_555 1_555
C26_3 C25_3 1_555 1_555
H20_3 C26_3 1_555 1_555
C27_3 C26_3 1_555 1_555
C28_3 C27_3 1_555 1_555
H21_3 C28_3 1_555 1_555
C29_3 C28_3 1_555 1_555
H22_3 C29_3 1_555 1_555
C30_3 C27_3 1_555 1_555
C31_3 C30_3 1_555 1_555
H23_3 C31_3 1_555 1_555
C32_3 C31_3 1_555 1_555
H24_3 C32_3 1_555 1_555
C33_3 C32_3 1_555 1_555
C34_3 C33_3 1_555 1_555
C35_3 C30_3 1_555 1_555
H26_3 C35_3 1_555 1_555
C36_3 C34_3 1_555 1_555
N7 C25_3 1_555 1_555
C29_3 N7 1_555 1_555
C34_3 C35_3 1_555 1_555
C36_3 N10_3 1_555 1_555
C1_3 H1_3 1_555 1_555
C2_3 C1_3 1_555 1_555
H2_3 C2_3 1_555 1_555
C3_3 C2_3 1_555 1_555
C4_3 C3_3 1_555 1_555
H3_3 C4_3 1_555 1_555
C5_3 C4_3 1_555 1_555
H4_3 C5_3 1_555 1_555
C6_3 C3_3 1_555 1_555
C7_3 C6_3 1_555 1_555
H5_3 C7_3 1_555 1_555
C8_3 C7_3 1_555 1_555
H6_3 C8_3 1_555 1_555
C9_3 C8_3 1_555 1_555
C10_3 C9_3 1_555 1_555
C11_3 C6_3 1_555 1_555
H8_3 C11_3 1_555 1_555
C12_3 C10_3 1_555 1_555
N8_2 C1_3 1_555 1_555
N2_3 C12_3 1_555 1_555
C39_3 H27_3 1_555 1_555
C40_3 C39_3 1_555 1_555
H28_3 C40_3 1_555 1_555
C5_3 N8_2 1_555 1_555
C10_3 C11_3 1_555 1_555
H5_4 C7_4 1_555 1_555
C8_4 C7_4 1_555 1_555
H6_4 C8_4 1_555 1_555
C9_4 C8_4 1_555 1_555
C39_4 H27_4 1_555 1_555
C40_4 C39_4 1_555 1_555
H28_4 C40_4 1_555 1_555
C1_4 H1_4 1_555 1_555
C2_4 C1_4 1_555 1_555
H2_4 C2_4 1_555 1_555
C3_4 C2_4 1_555 1_555
C4_4 C3_4 1_555 1_555
H3_4 C4_4 1_555 1_555
C5_4 C4_4 1_555 1_555
H4_4 C5_4 1_555 1_555
C6_4 C3_4 1_555 1_555
C11_4 C6_4 1_555 1_555
H8_4 C11_4 1_555 1_555
C12_4 C10_4 1_555 1_555
N8 C1_4 1_555 1_555
N2_4 C12_4 1_555 1_555
C5_4 N8 1_555 1_555
C10_4 C11_4 1_555 1_555
C25_4 H19_4 1_555 1_555
C26_4 C25_4 1_555 1_555
H20_4 C26_4 1_555 1_555
C27_4 C26_4 1_555 1_555
C28_4 C27_4 1_555 1_555
H21_4 C28_4 1_555 1_555
C29_4 C28_4 1_555 1_555
H22_4 C29_4 1_555 1_555
C30_4 C27_4 1_555 1_555
C35_4 C30_4 1_555 1_555
H26_4 C35_4 1_555 1_555
C36_4 C34_4 1_555 1_555
N7_2 C25_4 1_555 1_555
C29_4 N7_2 1_555 1_555
C34_4 C35_4 1_555 1_555
C36_4 N10_4 1_555 1_555
C15_4 H9_4 1_555 1_555
C16_4 C15_4 1_555 1_555
H10_4 C16_4 1_555 1_555
H23_4 C31_4 1_555 1_555
C32_4 C31_4 1_555 1_555
H24_4 C32_4 1_555 1_555
C33_4 C32_4 1_555 1_555
C37_4 C38_4 1_555 1_555
H29_4 C41_4 1_555 1_555
C42_4 C41_4 1_555 1_555
C43_4 C38_4 1_555 1_555
H30_4 C43_4 1_555 1_555
C44_4 C42_4 1_555 1_555
C45_4 C44_4 1_555 1_555
H31_4 C45_4 1_555 1_555
C46_4 C45_4 1_555 1_555
H32_4 C46_4 1_555 1_555
C47_4 H33_4 1_555 1_555
C48_4 C44_4 1_555 1_555
H34_4 C48_4 1_555 1_555
N11_4 C37_4 1_555 1_555
N13_4 N12_4 1_555 1_555
H35_4 N13_4 1_555 1_555
H36_4 N13_4 1_555 1_555
N14_2 C46_4 1_555 1_555
C37_4 N12_4 1_555 1_555
C42_4 C43_4 1_555 1_555
C47_4 C48_4 1_555 1_555
C47_4 N14_2 1_555 1_555
C13_4 C14_4 1_555 1_555
H11_4 C17_4 1_555 1_555
C18_4 C17_4 1_555 1_555
C19_4 C14_4 1_555 1_555
H12_4 C19_4 1_555 1_555
C20_4 C18_4 1_555 1_555
C21_4 C20_4 1_555 1_555
H13_4 C21_4 1_555 1_555
C22_4 C21_4 1_555 1_555
H14_4 C22_4 1_555 1_555
C23_4 H15_4 1_555 1_555
C24_4 C20_4 1_555 1_555
H16_4 C24_4 1_555 1_555
N3_4 C13_4 1_555 1_555
N5_4 N4_4 1_555 1_555
H17_4 N5_4 1_555 1_555
H18_4 N5_4 1_555 1_555
N15 C22_4 1_555 1_555
C13_4 N4_4 1_555 1_555
C18_4 C19_4 1_555 1_555
C23_4 C24_4 1_555 1_555
C23_4 N15 1_555 1_555
O3 Cl1 1_555 1_555
O4 Cl1 1_555 1_555
Cl1_2 O1 1_555 1_555
O2 Cl1_2 1_555 1_555
Cl1_3 O1_2 1_555 1_555
O2_2 Cl1_3 1_555 1_555
O3_2 Cl1_3 1_555 1_555
O4_2 Cl1_3 1_555 1_555
Cl1_4 O1_3 1_555 1_555
O2_3 Cl1_4 1_555 1_555
O3_3 Cl1_4 1_555 1_555
O4_3 Cl1_4 1_555 1_555
Cl1_5 O1_4 1_555 1_555
O2_4 Cl1_5 1_555 1_555
O3_4 Cl1_5 1_555 1_555
O4_4 Cl1_5 1_555 1_555
Cl2 O5 1_555 1_555
O8 Cl2 1_555 1_555
O6 Cl2_2 1_555 1_555
O7 Cl2_2 1_555 1_555
Cl2_3 O5_2 1_555 1_555
O6_2 Cl2_3 1_555 1_555
O7_2 Cl2_3 1_555 1_555
O8_2 Cl2_3 1_555 1_555
Cl2_4 O5_3 1_555 1_555
O6_3 Cl2_4 1_555 1_555
O7_3 Cl2_4 1_555 1_555
O8_3 Cl2_4 1_555 1_555
Cl2_5 O5_4 1_555 1_555
O6_4 Cl2_5 1_555 1_555
O7_4 Cl2_5 1_555 1_555
O8_4 Cl2_5 1_555 1_555

#END
