
###############################################################################
#
# This file contains modified crystal structure data generated from the
# MOF subset of the Cambridge Structural Database (CSD) v543 
# hosted by the Cambridge Crystallographic Data Centre (CCDC).
#
# This work is licensed under the Creative Commons
# Attribution-NonCommercial-ShareAlike 4.0 International License.
# To view a copy of this license, visit
# http://creativecommons.org/licenses/by-nc-sa/4.0/
# or send a letter to
# Creative Commons, PO Box 1866, Mountain View, CA 94042, USA.
#
# CIF created using the CSD Python API on 29 September 2022
# The structure has been converted into the P1 space group
# The structure has a 3D framework
# The original CSD entry OKIWEL01 is in the tetragonal crystal system
# The original CSD entry OKIWEL01 is in a Sohncke space group
# The framework has been calculated to contain at least 10.0% void space
# The void calculation uses a probe of radius 1.32A, grid spacing 0.4
# The framework is charged, counterions have been retained in the structure
#
###############################################################################

data_OKIWEL01
_chemical_formula_moiety         '(C192 H144 Cd2 Cl10 N48 O32 4-)n'
_symmetry_cell_setting           triclinic
_symmetry_space_group_name_H-M   'P 1'
_symmetry_Int_Tables_number      1
_space_group_name_Hall           'P 1'
loop_
_symmetry_equiv_pos_site_id
_symmetry_equiv_pos_as_xyz
1 x,y,z
_cell_length_a                   15.8770(12)
_cell_length_b                   15.8770(12)
_cell_length_c                   21.806(3)
_cell_angle_alpha                90
_cell_angle_beta                 90
_cell_angle_gamma                90
_cell_volume                     5496.84
loop_
_atom_site_label
_atom_site_type_symbol
_atom_site_fract_x
_atom_site_fract_y
_atom_site_fract_z
Cd5 Cd 0.05781(3) 0.05781(3) 0.0000
Cd5_2 Cd 0.05781(3) 0.05781(3) 1.0000
C40 C 0.7273(5) 0.5149(6) 0.0049(4)
H28 H 0.7285 0.5634 0.0304
C41 C 0.7899(5) 0.4561(5) 0.0094(4)
H29 H 0.8336 0.4644 0.0386
C45 C 0.9012(5) 0.3071(5) 0.0315(4)
H31 H 0.8918 0.3441 0.0651
C46 C 0.9595(5) 0.2408(5) 0.0366(4)
H32 H 0.9894 0.2346 0.0741
C1 C 0.9135(5) 0.8593(5) 0.6389(4)
H1 H 0.9634 0.8891 0.6494
C2 C 0.8856(4) 0.7975(4) 0.6790(3)
H2 H 0.9159 0.7854 0.7155
C3 C 0.8114(5) 0.7530(4) 0.6646(3)
C4 C 0.7688(5) 0.7804(5) 0.6132(3)
H3 H 0.7156 0.7566 0.6032
C5 C 0.8028(5) 0.8423(5) 0.5761(4)
H4 H 0.7722 0.8589 0.5406
C6 C 0.7818(5) 0.6802(4) 0.7020(3)
C7 C 0.8077(5) 0.6672(5) 0.7615(3)
H5 H 0.8466 0.7052 0.7798
C8 C 0.7775(6) 0.5991(5) 0.7949(4)
H6 H 0.7975 0.5896 0.8354
C9 C 0.7169(5) 0.5433(5) 0.7689(3)
H7 H 0.6957 0.4966 0.7914
C10 C 0.6901(4) 0.5597(4) 0.7098(3)
C11 C 0.7215(4) 0.6258(5) 0.6761(3)
H8 H 0.7024 0.6348 0.6353
C12 C 0.6282(4) 0.5033(4) 0.6805(3)
C13 C 0.5762(4) 0.4084(4) 0.6180(3)
C14 C 0.5676(4) 0.3385(4) 0.5738(3)
C15 C 0.4958(5) 0.3371(5) 0.5361(4)
H9 H 0.4549 0.3806 0.5391
C16 C 0.4851(6) 0.2727(5) 0.4951(4)
H10 H 0.4366 0.2715 0.4696
C17 C 0.5439(5) 0.2101(5) 0.4906(4)
H11 H 0.5356 0.1664 0.4614
C18 C 0.6165(5) 0.2081(5) 0.5279(4)
C19 C 0.6270(4) 0.2744(4) 0.5701(3)
H12 H 0.6749 0.2753 0.5962
C20 C 0.6820(4) 0.1420(5) 0.5224(3)
C21 C 0.6929(5) 0.0988(5) 0.4685(4)
H13 H 0.6559 0.1082 0.4349
C22 C 0.7592(5) 0.0405(5) 0.4634(4)
H14 H 0.7654 0.0106 0.4259
C23 C 0.8014(5) 0.0673(5) 0.5609(3)
H15 H 0.8390 0.0569 0.5940
C24 C 0.7388(5) 0.1240(5) 0.5703(4)
H16 H 0.7333 0.1515 0.6088
Cd1 Cd 0.44219(3) 0.55781(3) 0.7500
N1 N 0.8754(4) 0.8796(4) 0.5874(3)
N2 N 0.5449(3) 0.5055(4) 0.6843(3)
N3 N 0.5122(4) 0.4453(3) 0.6451(3)
N4 N 0.6494(4) 0.4430(3) 0.6393(3)
N5 N 0.7308(4) 0.4241(4) 0.6178(3)
H17 H 0.7584 0.4728 0.6088
H18 H 0.7593 0.3959 0.6477
N6 N 0.8143(4) 0.0249(4) 0.5087(3)
C25 C 0.1407(5) 0.0865(5) 0.8611(4)
H19 H 0.1109 0.0366 0.8506
C26 C 0.2025(4) 0.1144(4) 0.8210(3)
H20 H 0.2146 0.0841 0.7845
C27 C 0.2470(4) 0.1886(5) 0.8354(3)
C28 C 0.2196(5) 0.2312(5) 0.8868(3)
H21 H 0.2434 0.2844 0.8968
C29 C 0.1577(5) 0.1972(5) 0.9239(4)
H22 H 0.1411 0.2278 0.9594
C30 C 0.3198(4) 0.2182(5) 0.7980(3)
C31 C 0.3328(5) 0.1923(5) 0.7385(3)
H23 H 0.2948 0.1534 0.7202
C32 C 0.4009(5) 0.2225(6) 0.7051(4)
H24 H 0.4104 0.2025 0.6646
C33 C 0.4567(5) 0.2831(5) 0.7311(3)
H25 H 0.5034 0.3043 0.7086
C34 C 0.4403(4) 0.3099(4) 0.7902(3)
C35 C 0.3742(5) 0.2785(4) 0.8239(3)
H26 H 0.3652 0.2976 0.8647
C36 C 0.4967(4) 0.3718(4) 0.8195(3)
C37 C 0.5916(4) 0.4238(4) 0.8820(3)
C38 C 0.6615(4) 0.4324(4) 0.9262(3)
C39 C 0.6629(5) 0.5042(5) 0.9639(4)
H27 H 0.6194 0.5451 0.9609
C42 C 0.7919(5) 0.3835(5) 0.9721(4)
C43 C 0.7256(4) 0.3730(4) 0.9299(3)
H30 H 0.7247 0.3251 0.9038
C44 C 0.8580(5) 0.3180(4) 0.9776(3)
C47 C 0.9327(5) 0.1986(5) 0.9391(3)
H33 H 0.9431 0.1610 0.9060
C48 C 0.8760(5) 0.2612(5) 0.9297(4)
H34 H 0.8485 0.2667 0.8912
Cd2 Cd 0.94219(3) 0.94219(3) 0.5000
N7 N 0.3754(4) 0.6204(4) 0.6626(3)
N8 N 0.3796(4) 0.6246(4) 0.8374(3)
N9 N 0.1204(4) 0.1246(4) 0.9126(3)
N10 N 0.4945(4) 0.4551(3) 0.8157(3)
N11 N 0.5547(3) 0.4878(4) 0.8549(3)
N12 N 0.5570(3) 0.3506(4) 0.8607(3)
N13 N 0.5759(4) 0.2692(4) 0.8822(3)
H35 H 0.5272 0.2416 0.8912
H36 H 0.6041 0.2407 0.8523
N14 N 0.3143(4) 0.4751(4) 0.7413(3)
N15 N 0.5249(4) 0.6857(4) 0.7587(3)
N16 N 0.9751(4) 0.1857(4) 0.9913(3)
C1_2 C 0.0865(5) 0.1407(5) 0.1389(4)
H1_2 H 0.0366 0.1109 0.1494
C2_2 C 0.1144(4) 0.2025(4) 0.1790(3)
H2_2 H 0.0841 0.2146 0.2155
C3_2 C 0.1886(5) 0.2470(4) 0.1646(3)
C4_2 C 0.2312(5) 0.2196(5) 0.1132(3)
H3_2 H 0.2844 0.2434 0.1032
C5_2 C 0.1972(5) 0.1577(5) 0.0761(4)
H4_2 H 0.2278 0.1411 0.0406
C6_2 C 0.2182(5) 0.3198(4) 0.2020(3)
C7_2 C 0.1923(5) 0.3328(5) 0.2615(3)
H5_2 H 0.1534 0.2948 0.2798
C8_2 C 0.2225(6) 0.4009(5) 0.2949(4)
H6_2 H 0.2025 0.4104 0.3354
C9_2 C 0.2831(5) 0.4567(5) 0.2689(3)
H7_2 H 0.3043 0.5034 0.2914
C10_2 C 0.3099(4) 0.4403(4) 0.2098(3)
C11_2 C 0.2785(4) 0.3742(5) 0.1761(3)
H8_2 H 0.2976 0.3652 0.1353
C12_2 C 0.3718(4) 0.4967(4) 0.1805(3)
C13_2 C 0.4238(4) 0.5916(4) 0.1180(3)
C14_2 C 0.4324(4) 0.6615(4) 0.0738(3)
C15_2 C 0.5042(5) 0.6629(5) 0.0361(4)
H9_2 H 0.5451 0.6194 0.0391
C18_2 C 0.3835(5) 0.7919(5) 0.0279(4)
C19_2 C 0.3730(4) 0.7256(4) 0.0701(3)
H12_2 H 0.3251 0.7247 0.0962
C20_2 C 0.3180(4) 0.8580(5) 0.0224(3)
C23_2 C 0.1986(5) 0.9327(5) 0.0609(3)
H15_2 H 0.1610 0.9431 0.0940
C24_2 C 0.2612(5) 0.8760(5) 0.0703(4)
H16_2 H 0.2667 0.8485 0.1088
Cd1_2 Cd 0.55781(3) 0.44219(3) 0.2500
N1_2 N 0.1246(4) 0.1204(4) 0.0874(3)
N2_2 N 0.4551(3) 0.4945(4) 0.1843(3)
N3_2 N 0.4878(4) 0.5547(3) 0.1451(3)
N4_2 N 0.3506(4) 0.5570(3) 0.1393(3)
N5_2 N 0.2692(4) 0.5759(4) 0.1178(3)
H17_2 H 0.2416 0.5272 0.1088
H18_2 H 0.2407 0.6041 0.1477
N6_2 N 0.1857(4) 0.9751(4) 0.0087(3)
C25_2 C 0.8593(5) 0.9135(5) 0.3611(4)
H19_2 H 0.8891 0.9634 0.3506
C26_2 C 0.7975(4) 0.8856(4) 0.3210(3)
H20_2 H 0.7854 0.9159 0.2845
C27_2 C 0.7530(4) 0.8114(5) 0.3354(3)
C28_2 C 0.7804(5) 0.7688(5) 0.3868(3)
H21_2 H 0.7566 0.7156 0.3968
C29_2 C 0.8423(5) 0.8028(5) 0.4239(4)
H22_2 H 0.8589 0.7722 0.4594
C30_2 C 0.6802(4) 0.7818(5) 0.2980(3)
C31_2 C 0.6672(5) 0.8077(5) 0.2385(3)
H23_2 H 0.7052 0.8466 0.2202
C32_2 C 0.5991(5) 0.7775(6) 0.2051(4)
H24_2 H 0.5896 0.7975 0.1646
C33_2 C 0.5433(5) 0.7169(5) 0.2311(3)
H25_2 H 0.4966 0.6957 0.2086
C34_2 C 0.5597(4) 0.6901(4) 0.2902(3)
C35_2 C 0.6258(5) 0.7215(4) 0.3239(3)
H26_2 H 0.6348 0.7024 0.3647
C36_2 C 0.5033(4) 0.6282(4) 0.3195(3)
C37_2 C 0.4084(4) 0.5762(4) 0.3820(3)
C38_2 C 0.3385(4) 0.5676(4) 0.4262(3)
C39_2 C 0.3371(5) 0.4958(5) 0.4639(4)
H27_2 H 0.3806 0.4549 0.4609
C40_2 C 0.2727(5) 0.4851(6) 0.5049(4)
H28_2 H 0.2715 0.4366 0.5304
C41_2 C 0.2101(5) 0.5439(5) 0.5094(4)
H29_2 H 0.1664 0.5356 0.5386
C42_2 C 0.2081(5) 0.6165(5) 0.4721(4)
C43_2 C 0.2744(4) 0.6270(4) 0.4299(3)
H30_2 H 0.2753 0.6749 0.4038
C44_2 C 0.1420(5) 0.6820(4) 0.4776(3)
C45_2 C 0.0988(5) 0.6929(5) 0.5315(4)
H31_2 H 0.1082 0.6559 0.5651
C46_2 C 0.0405(5) 0.7592(5) 0.5366(4)
H32_2 H 0.0106 0.7654 0.5741
C47_2 C 0.0673(5) 0.8014(5) 0.4391(3)
H33_2 H 0.0569 0.8390 0.4060
C48_2 C 0.1240(5) 0.7388(5) 0.4297(4)
H34_2 H 0.1515 0.7333 0.3912
N7_2 N 0.6246(4) 0.3796(4) 0.1626(3)
N8_2 N 0.6204(4) 0.3754(4) 0.3374(3)
N9_2 N 0.8796(4) 0.8754(4) 0.4126(3)
N10_2 N 0.5055(4) 0.5449(3) 0.3157(3)
N11_2 N 0.4453(3) 0.5122(4) 0.3549(3)
N12_2 N 0.4430(3) 0.6494(4) 0.3607(3)
N13_2 N 0.4241(4) 0.7308(4) 0.3822(3)
H35_2 H 0.4728 0.7584 0.3912
H36_2 H 0.3959 0.7593 0.3523
N14_2 N 0.6857(4) 0.5249(4) 0.2413(3)
N15_2 N 0.4751(4) 0.3143(4) 0.2587(3)
N16_2 N 0.0249(4) 0.8143(4) 0.4913(3)
C16_2 C 0.5149(6) 0.7273(5) 0.9951(4)
H10_2 H 0.5634 0.7285 0.9696
C17_2 C 0.4561(5) 0.7899(5) 0.9906(4)
H11_2 H 0.4644 0.8336 0.9614
C21_2 C 0.3071(5) 0.9012(5) 0.9685(4)
H13_2 H 0.3441 0.8918 0.9349
C22_2 C 0.2408(5) 0.9595(5) 0.9634(4)
H14_2 H 0.2346 0.9894 0.9259
H7_3 H 0.0034 0.1957 0.5414
C13_3 C 0.0916(4) 0.0762(4) 0.3680(3)
C14_3 C 0.1615(4) 0.0676(4) 0.3238(3)
C17_3 C 0.2899(5) 0.0439(5) 0.2406(4)
H11_3 H 0.3336 0.0356 0.2114
C18_3 C 0.2919(5) 0.1165(5) 0.2779(4)
C19_3 C 0.2256(4) 0.1270(4) 0.3201(3)
H12_3 H 0.2247 0.1749 0.3462
C20_3 C 0.3580(5) 0.1820(4) 0.2724(3)
C21_3 C 0.4012(5) 0.1929(5) 0.2185(4)
H13_3 H 0.3918 0.1559 0.1849
C22_3 C 0.4595(5) 0.2592(5) 0.2134(4)
H14_3 H 0.4894 0.2654 0.1759
C23_3 C 0.4327(5) 0.3014(5) 0.3109(3)
H15_3 H 0.4431 0.3390 0.3440
C24_3 C 0.3760(5) 0.2388(5) 0.3203(4)
H16_3 H 0.3485 0.2333 0.3588
N3_3 N 0.0547(3) 0.0122(4) 0.3951(3)
N4_3 N 0.0570(3) 0.1494(4) 0.3893(3)
N5_3 N 0.0759(4) 0.2308(4) 0.3678(3)
H17_3 H 0.0272 0.2584 0.3588
H18_3 H 0.1041 0.2593 0.3977
H25_3 H 0.1957 0.0034 0.4586
C37_3 C 0.0762(4) 0.0916(4) 0.6320(3)
C38_3 C 0.0676(4) 0.1615(4) 0.6762(3)
C41_3 C 0.0439(5) 0.2899(5) 0.7594(4)
H29_3 H 0.0356 0.3336 0.7886
C42_3 C 0.1165(5) 0.2919(5) 0.7221(4)
C43_3 C 0.1270(4) 0.2256(4) 0.6799(3)
H30_3 H 0.1749 0.2247 0.6538
C44_3 C 0.1820(4) 0.3580(5) 0.7276(3)
C45_3 C 0.1929(5) 0.4012(5) 0.7815(4)
H31_3 H 0.1559 0.3918 0.8151
C46_3 C 0.2592(5) 0.4595(5) 0.7866(4)
H32_3 H 0.2654 0.4894 0.8241
C47_3 C 0.3014(5) 0.4327(5) 0.6891(3)
H33_3 H 0.3390 0.4431 0.6560
C48_3 C 0.2388(5) 0.3760(5) 0.6797(4)
H34_3 H 0.2333 0.3485 0.6412
N11_3 N 0.0122(4) 0.0547(3) 0.6049(3)
N12_3 N 0.1494(4) 0.0570(3) 0.6107(3)
N13_3 N 0.2308(4) 0.0759(4) 0.6322(3)
H35_3 H 0.2584 0.0272 0.6412
H36_3 H 0.2593 0.1041 0.6023
C15_3 C 0.1629(5) 0.9958(5) 0.2861(4)
H9_3 H 0.1194 0.9549 0.2891
C16_3 C 0.2273(5) 0.9851(6) 0.2451(4)
H10_3 H 0.2285 0.9366 0.2196
C25_3 C 0.4135(5) 0.6407(5) 0.6111(4)
H19_3 H 0.4634 0.6109 0.6006
C26_3 C 0.3856(4) 0.7025(4) 0.5710(3)
H20_3 H 0.4159 0.7146 0.5345
C27_3 C 0.3114(5) 0.7470(4) 0.5854(3)
C28_3 C 0.2688(5) 0.7196(5) 0.6368(3)
H21_3 H 0.2156 0.7434 0.6468
C29_3 C 0.3028(5) 0.6577(5) 0.6739(4)
H22_3 H 0.2722 0.6411 0.7094
C30_3 C 0.2818(5) 0.8198(4) 0.5480(3)
C31_3 C 0.3077(5) 0.8328(5) 0.4885(3)
H23_3 H 0.3466 0.7948 0.4702
C32_3 C 0.2775(6) 0.9009(5) 0.4551(4)
H24_3 H 0.2975 0.9104 0.4146
C33_3 C 0.2169(5) 0.9567(5) 0.4811(3)
C34_3 C 0.1901(4) 0.9403(4) 0.5402(3)
C35_3 C 0.2215(4) 0.8742(5) 0.5739(3)
H26_3 H 0.2024 0.8652 0.6147
C36_3 C 0.1282(4) 0.9967(4) 0.5695(3)
N10_3 N 0.0449(3) 0.9945(4) 0.5657(3)
C1_3 C 0.6407(5) 0.4135(5) 0.3889(4)
H1_3 H 0.6109 0.4634 0.3994
C2_3 C 0.7025(4) 0.3856(4) 0.4290(3)
H2_3 H 0.7146 0.4159 0.4655
C3_3 C 0.7470(4) 0.3114(5) 0.4146(3)
C4_3 C 0.7196(5) 0.2688(5) 0.3632(3)
H3_3 H 0.7434 0.2156 0.3532
C5_3 C 0.6577(5) 0.3028(5) 0.3261(4)
H4_3 H 0.6411 0.2722 0.2906
C6_3 C 0.8198(4) 0.2818(5) 0.4520(3)
C7_3 C 0.8328(5) 0.3077(5) 0.5115(3)
H5_3 H 0.7948 0.3466 0.5298
C8_3 C 0.9009(5) 0.2775(6) 0.5449(4)
H6_3 H 0.9104 0.2975 0.5854
C9_3 C 0.9567(5) 0.2169(5) 0.5189(3)
C10_3 C 0.9403(4) 0.1901(4) 0.4598(3)
C11_3 C 0.8742(5) 0.2215(4) 0.4261(3)
H8_3 H 0.8652 0.2024 0.3853
C12_3 C 0.9967(4) 0.1282(4) 0.4305(3)
N2_3 N 0.9945(4) 0.0449(3) 0.4343(3)
C39_3 C 0.9958(5) 0.1629(5) 0.7139(4)
H27_3 H 0.9549 0.1194 0.7109
C40_3 C 0.9851(6) 0.2273(5) 0.7549(4)
H28_3 H 0.9366 0.2285 0.7804
C7_4 C 0.1672(5) 0.6923(5) 0.0115(3)
H5_4 H 0.2052 0.6534 0.0298
C8_4 C 0.0991(5) 0.7225(6) 0.0449(4)
H6_4 H 0.0896 0.7025 0.0854
C9_4 C 0.0433(5) 0.7831(5) 0.0189(3)
C39_4 C 0.0042(5) 0.8371(5) 0.2139(4)
H27_4 H 0.0451 0.8806 0.2109
C40_4 C 0.0149(6) 0.7727(5) 0.2549(4)
H28_4 H 0.0634 0.7715 0.2804
C1_4 C 0.3593(5) 0.5865(5) 0.8889(4)
H1_4 H 0.3891 0.5366 0.8994
C2_4 C 0.2975(4) 0.6144(4) 0.9290(3)
H2_4 H 0.2854 0.5841 0.9655
C3_4 C 0.2530(4) 0.6886(5) 0.9146(3)
C4_4 C 0.2804(5) 0.7312(5) 0.8632(3)
H3_4 H 0.2566 0.7844 0.8532
C5_4 C 0.3423(5) 0.6972(5) 0.8261(4)
H4_4 H 0.3589 0.7278 0.7906
C6_4 C 0.1802(4) 0.7182(5) 0.9520(3)
C10_4 C 0.0597(4) 0.8099(4) 0.9598(3)
C11_4 C 0.1258(5) 0.7785(4) 0.9261(3)
H8_4 H 0.1348 0.7976 0.8853
C12_4 C 0.0033(4) 0.8718(4) 0.9305(3)
N2_4 N 0.0055(4) 0.9551(3) 0.9343(3)
C25_4 C 0.5865(5) 0.3593(5) 0.1111(4)
H19_4 H 0.5366 0.3891 0.1006
C26_4 C 0.6144(4) 0.2975(4) 0.0710(3)
H20_4 H 0.5841 0.2854 0.0345
C27_4 C 0.6886(5) 0.2530(4) 0.0854(3)
C28_4 C 0.7312(5) 0.2804(5) 0.1368(3)
H21_4 H 0.7844 0.2566 0.1468
C29_4 C 0.6972(5) 0.3423(5) 0.1739(4)
H22_4 H 0.7278 0.3589 0.2094
C30_4 C 0.7182(5) 0.1802(4) 0.0480(3)
C34_4 C 0.8099(4) 0.0597(4) 0.0402(3)
C35_4 C 0.7785(4) 0.1258(5) 0.0739(3)
H26_4 H 0.7976 0.1348 0.1147
C36_4 C 0.8718(4) 0.0033(4) 0.0695(3)
N10_4 N 0.9551(3) 0.0055(4) 0.0657(3)
C15_4 C 0.8371(5) 0.0042(5) 0.7861(4)
H9_4 H 0.8806 0.0451 0.7891
C16_4 C 0.7727(5) 0.0149(6) 0.7451(4)
H10_4 H 0.7715 0.0634 0.7196
C31_4 C 0.6923(5) 0.1672(5) 0.9885(3)
H23_4 H 0.6534 0.2052 0.9702
C32_4 C 0.7225(6) 0.0991(5) 0.9551(4)
H24_4 H 0.7025 0.0896 0.9146
C33_4 C 0.7831(5) 0.0433(5) 0.9811(3)
H7_4 H 0.9966 0.8043 0.0414
C37_4 C 0.9238(4) 0.9084(4) 0.1320(3)
C38_4 C 0.9324(4) 0.8385(4) 0.1762(3)
C41_4 C 0.9561(5) 0.7101(5) 0.2594(4)
H29_4 H 0.9644 0.6664 0.2886
C42_4 C 0.8835(5) 0.7081(5) 0.2221(4)
C43_4 C 0.8730(4) 0.7744(4) 0.1799(3)
H30_4 H 0.8251 0.7753 0.1538
C44_4 C 0.8180(4) 0.6420(5) 0.2276(3)
C45_4 C 0.8071(5) 0.5988(5) 0.2815(4)
H31_4 H 0.8441 0.6082 0.3151
C46_4 C 0.7408(5) 0.5405(5) 0.2866(4)
H32_4 H 0.7346 0.5106 0.3241
C47_4 C 0.6986(5) 0.5673(5) 0.1891(3)
H33_4 H 0.6610 0.5569 0.1560
C48_4 C 0.7612(5) 0.6240(5) 0.1797(4)
H34_4 H 0.7667 0.6515 0.1412
N11_4 N 0.9878(4) 0.9453(3) 0.1049(3)
N12_4 N 0.8506(4) 0.9430(3) 0.1107(3)
N13_4 N 0.7692(4) 0.9241(4) 0.1322(3)
H35_4 H 0.7416 0.9728 0.1412
H36_4 H 0.7407 0.8959 0.1023
C13_4 C 0.9084(4) 0.9238(4) 0.8680(3)
C14_4 C 0.8385(4) 0.9324(4) 0.8238(3)
C17_4 C 0.7101(5) 0.9561(5) 0.7406(4)
H11_4 H 0.6664 0.9644 0.7114
C18_4 C 0.7081(5) 0.8835(5) 0.7779(4)
C19_4 C 0.7744(4) 0.8730(4) 0.8201(3)
H12_4 H 0.7753 0.8251 0.8462
C20_4 C 0.6420(5) 0.8180(4) 0.7724(3)
C21_4 C 0.5988(5) 0.8071(5) 0.7185(4)
H13_4 H 0.6082 0.8441 0.6849
C22_4 C 0.5405(5) 0.7408(5) 0.7134(4)
H14_4 H 0.5106 0.7346 0.6759
C23_4 C 0.5673(5) 0.6986(5) 0.8109(3)
H15_4 H 0.5569 0.6610 0.8440
C24_4 C 0.6240(5) 0.7612(5) 0.8203(4)
H16_4 H 0.6515 0.7667 0.8588
N3_4 N 0.9453(3) 0.9878(4) 0.8951(3)
N4_4 N 0.9430(3) 0.8506(4) 0.8893(3)
N5_4 N 0.9241(4) 0.7692(4) 0.8678(3)
H17_4 H 0.9728 0.7416 0.8588
H18_4 H 0.8959 0.7407 0.8977
H25_4 H 0.8043 0.9966 0.9586
Cl1 Cl 0.76822(14) 0.76822(14) 0.0000
O3 O 0.7276(8) 0.7399(9) 0.0523(4)
O4 O 0.8424(14) 0.7242(18) 0.0080(18)
Cl1_2 Cl 0.76822(14) 0.76822(14) 1.0000
O1 O 0.7399(9) 0.7276(8) 0.9477(4)
O2 O 0.7242(18) 0.8424(14) 0.9920(18)
Cl1_3 Cl 0.23178(14) 0.23178(14) 0.5000
O1_2 O 0.2601(9) 0.2724(8) 0.4477(4)
O2_2 O 0.2758(18) 0.1576(14) 0.4920(18)
O3_2 O 0.2724(8) 0.2601(9) 0.5523(4)
O4_2 O 0.1576(14) 0.2758(18) 0.5080(18)
Cl1_4 Cl 0.73178(14) 0.26822(14) 0.7500
O1_3 O 0.7724(8) 0.2399(9) 0.6977(4)
O2_3 O 0.6576(14) 0.2242(18) 0.7420(18)
O3_3 O 0.7601(9) 0.2276(8) 0.8023(4)
O4_3 O 0.7758(18) 0.3424(14) 0.7580(18)
Cl1_5 Cl 0.26822(14) 0.73178(14) 0.2500
O1_4 O 0.2276(8) 0.7601(9) 0.1977(4)
O2_4 O 0.3424(14) 0.7758(18) 0.2420(18)
O3_4 O 0.2399(9) 0.7724(8) 0.3023(4)
O4_4 O 0.2242(18) 0.6576(14) 0.2580(18)
Cl2 Cl 0.37884(17) 0.37884(17) 0.0000
O5 O 0.357(2) 0.4473(10) 0.0300(7)
O8 O 0.4036(9) 0.3323(19) 0.0540(7)
Cl2_2 Cl 0.37884(17) 0.37884(17) 1.0000
O6 O 0.3323(19) 0.4036(9) 0.9460(7)
O7 O 0.4473(10) 0.357(2) 0.9700(7)
Cl2_3 Cl 0.62116(17) 0.62116(17) 0.5000
O5_2 O 0.643(2) 0.5527(10) 0.5300(7)
O6_2 O 0.6677(19) 0.5964(9) 0.4460(7)
O7_2 O 0.5527(10) 0.643(2) 0.4700(7)
O8_2 O 0.5964(9) 0.6677(19) 0.5540(7)
Cl2_4 Cl 0.12116(17) 0.87884(17) 0.7500
O5_3 O 0.0527(10) 0.857(2) 0.7800(7)
O6_3 O 0.0964(9) 0.8323(19) 0.6960(7)
O7_3 O 0.143(2) 0.9473(10) 0.7200(7)
O8_3 O 0.1677(19) 0.9036(9) 0.8040(7)
Cl2_5 Cl 0.87884(17) 0.12116(17) 0.2500
O5_4 O 0.9473(10) 0.143(2) 0.2800(7)
O6_4 O 0.9036(9) 0.1677(19) 0.1960(7)
O7_4 O 0.857(2) 0.0527(10) 0.2200(7)
O8_4 O 0.8323(19) 0.0964(9) 0.3040(7)
loop_
_geom_bond_atom_site_label_1
_geom_bond_atom_site_label_2
_geom_bond_site_symmetry_1
_geom_bond_site_symmetry_2
H28 C40 1_555 1_555
C41 C40 1_555 1_555
H29 C41 1_555 1_555
H31 C45 1_555 1_555
C46 C45 1_555 1_555
H32 C46 1_555 1_555
C1 H1 1_555 1_555
C2 C1 1_555 1_555
H2 C2 1_555 1_555
C3 C2 1_555 1_555
C4 C3 1_555 1_555
H3 C4 1_555 1_555
C5 C4 1_555 1_555
H4 C5 1_555 1_555
C6 C3 1_555 1_555
C7 C6 1_555 1_555
H5 C7 1_555 1_555
C8 C7 1_555 1_555
H6 C8 1_555 1_555
C9 C8 1_555 1_555
H7 C9 1_555 1_555
C10 C9 1_555 1_555
C11 C6 1_555 1_555
H8 C11 1_555 1_555
C12 C10 1_555 1_555
C13 C14 1_555 1_555
C14 C15 1_555 1_555
C15 H9 1_555 1_555
C16 C15 1_555 1_555
H10 C16 1_555 1_555
C17 C16 1_555 1_555
H11 C17 1_555 1_555
C18 C17 1_555 1_555
C19 C14 1_555 1_555
H12 C19 1_555 1_555
C20 C18 1_555 1_555
C21 C20 1_555 1_555
H13 C21 1_555 1_555
C22 C21 1_555 1_555
H14 C22 1_555 1_555
C23 H15 1_555 1_555
C24 C20 1_555 1_555
H16 C24 1_555 1_555
Cd1 N2 1_555 1_555
N1 C1 1_555 1_555
N2 C12 1_555 1_555
N3 C13 1_555 1_555
N4 C12 1_555 1_555
N5 N4 1_555 1_555
H17 N5 1_555 1_555
H18 N5 1_555 1_555
N6 C22 1_555 1_555
C25 H19 1_555 1_555
C26 C25 1_555 1_555
H20 C26 1_555 1_555
C27 C26 1_555 1_555
C28 C27 1_555 1_555
H21 C28 1_555 1_555
C29 C28 1_555 1_555
H22 C29 1_555 1_555
C30 C27 1_555 1_555
C31 C30 1_555 1_555
H23 C31 1_555 1_555
C32 C31 1_555 1_555
H24 C32 1_555 1_555
C33 C32 1_555 1_555
H25 C33 1_555 1_555
C34 C33 1_555 1_555
C35 C30 1_555 1_555
H26 C35 1_555 1_555
C36 C34 1_555 1_555
C37 C38 1_555 1_555
C38 C39 1_555 1_555
C39 H27 1_555 1_555
C43 C38 1_555 1_555
H30 C43 1_555 1_555
C44 C42 1_555 1_555
C47 H33 1_555 1_555
C48 C44 1_555 1_555
H34 C48 1_555 1_555
Cd2 N1 1_555 1_555
Cd5_2 N9 1_555 1_555
N7 Cd1 1_555 1_555
N8 Cd1 1_555 1_555
N9 C25 1_555 1_555
N10 Cd1 1_555 1_555
N11 C37 1_555 1_555
N12 C36 1_555 1_555
N13 N12 1_555 1_555
H35 N13 1_555 1_555
H36 N13 1_555 1_555
N14 Cd1 1_555 1_555
N15 Cd1 1_555 1_555
C5 N1 1_555 1_555
C10 C11 1_555 1_555
C13 N4 1_555 1_555
C18 C19 1_555 1_555
C23 C24 1_555 1_555
C23 N6 1_555 1_555
N2 N3 1_555 1_555
C29 N9 1_555 1_555
C34 C35 1_555 1_555
C36 N10 1_555 1_555
C37 N12 1_555 1_555
C42 C43 1_555 1_555
C47 C48 1_555 1_555
C47 N16 1_555 1_555
N10 N11 1_555 1_555
C1_2 H1_2 1_555 1_555
C2_2 C1_2 1_555 1_555
H2_2 C2_2 1_555 1_555
C3_2 C2_2 1_555 1_555
C4_2 C3_2 1_555 1_555
H3_2 C4_2 1_555 1_555
C5_2 C4_2 1_555 1_555
H4_2 C5_2 1_555 1_555
C6_2 C3_2 1_555 1_555
C7_2 C6_2 1_555 1_555
H5_2 C7_2 1_555 1_555
C8_2 C7_2 1_555 1_555
H6_2 C8_2 1_555 1_555
C9_2 C8_2 1_555 1_555
H7_2 C9_2 1_555 1_555
C10_2 C9_2 1_555 1_555
C11_2 C6_2 1_555 1_555
H8_2 C11_2 1_555 1_555
C12_2 C10_2 1_555 1_555
C13_2 C14_2 1_555 1_555
C14_2 C15_2 1_555 1_555
C15_2 H9_2 1_555 1_555
C19_2 C14_2 1_555 1_555
H12_2 C19_2 1_555 1_555
C20_2 C18_2 1_555 1_555
C23_2 H15_2 1_555 1_555
C24_2 C20_2 1_555 1_555
H16_2 C24_2 1_555 1_555
Cd1_2 N2_2 1_555 1_555
N1_2 C1_2 1_555 1_555
N2_2 C12_2 1_555 1_555
N3_2 C13_2 1_555 1_555
N4_2 C12_2 1_555 1_555
N5_2 N4_2 1_555 1_555
H17_2 N5_2 1_555 1_555
H18_2 N5_2 1_555 1_555
C25_2 H19_2 1_555 1_555
C26_2 C25_2 1_555 1_555
H20_2 C26_2 1_555 1_555
C27_2 C26_2 1_555 1_555
C28_2 C27_2 1_555 1_555
H21_2 C28_2 1_555 1_555
C29_2 C28_2 1_555 1_555
H22_2 C29_2 1_555 1_555
C30_2 C27_2 1_555 1_555
C31_2 C30_2 1_555 1_555
H23_2 C31_2 1_555 1_555
C32_2 C31_2 1_555 1_555
H24_2 C32_2 1_555 1_555
C33_2 C32_2 1_555 1_555
H25_2 C33_2 1_555 1_555
C34_2 C33_2 1_555 1_555
C35_2 C30_2 1_555 1_555
H26_2 C35_2 1_555 1_555
C36_2 C34_2 1_555 1_555
C37_2 C38_2 1_555 1_555
C38_2 C39_2 1_555 1_555
C39_2 H27_2 1_555 1_555
C40_2 C39_2 1_555 1_555
H28_2 C40_2 1_555 1_555
C41_2 C40_2 1_555 1_555
H29_2 C41_2 1_555 1_555
C42_2 C41_2 1_555 1_555
C43_2 C38_2 1_555 1_555
H30_2 C43_2 1_555 1_555
C44_2 C42_2 1_555 1_555
C45_2 C44_2 1_555 1_555
H31_2 C45_2 1_555 1_555
C46_2 C45_2 1_555 1_555
H32_2 C46_2 1_555 1_555
C47_2 H33_2 1_555 1_555
C48_2 C44_2 1_555 1_555
H34_2 C48_2 1_555 1_555
Cd5 N1_2 1_555 1_555
Cd2 N9_2 1_555 1_555
N7_2 Cd1_2 1_555 1_555
N8_2 Cd1_2 1_555 1_555
N9_2 C25_2 1_555 1_555
N10_2 Cd1_2 1_555 1_555
N11_2 C37_2 1_555 1_555
N12_2 C36_2 1_555 1_555
N13_2 N12_2 1_555 1_555
H35_2 N13_2 1_555 1_555
H36_2 N13_2 1_555 1_555
N14_2 Cd1_2 1_555 1_555
N15_2 Cd1_2 1_555 1_555
N16_2 C46_2 1_555 1_555
C5_2 N1_2 1_555 1_555
C10_2 C11_2 1_555 1_555
C13_2 N4_2 1_555 1_555
C18_2 C19_2 1_555 1_555
C23_2 C24_2 1_555 1_555
C23_2 N6_2 1_555 1_555
N2_2 N3_2 1_555 1_555
C29_2 N9_2 1_555 1_555
C34_2 C35_2 1_555 1_555
C36_2 N10_2 1_555 1_555
C37_2 N12_2 1_555 1_555
C42_2 C43_2 1_555 1_555
C47_2 C48_2 1_555 1_555
C47_2 N16_2 1_555 1_555
N10_2 N11_2 1_555 1_555
H10_2 C16_2 1_555 1_555
C17_2 C16_2 1_555 1_555
H11_2 C17_2 1_555 1_555
H13_2 C21_2 1_555 1_555
C22_2 C21_2 1_555 1_555
H14_2 C22_2 1_555 1_555
C13_3 C14_3 1_555 1_555
H11_3 C17_3 1_555 1_555
C18_3 C17_3 1_555 1_555
C19_3 C14_3 1_555 1_555
H12_3 C19_3 1_555 1_555
C20_3 C18_3 1_555 1_555
C21_3 C20_3 1_555 1_555
H13_3 C21_3 1_555 1_555
C22_3 C21_3 1_555 1_555
H14_3 C22_3 1_555 1_555
C23_3 H15_3 1_555 1_555
C24_3 C20_3 1_555 1_555
H16_3 C24_3 1_555 1_555
N3_3 C13_3 1_555 1_555
N5_3 N4_3 1_555 1_555
H17_3 N5_3 1_555 1_555
H18_3 N5_3 1_555 1_555
N15_2 C22_3 1_555 1_555
C37_3 C38_3 1_555 1_555
H29_3 C41_3 1_555 1_555
C42_3 C41_3 1_555 1_555
C43_3 C38_3 1_555 1_555
H30_3 C43_3 1_555 1_555
C44_3 C42_3 1_555 1_555
C45_3 C44_3 1_555 1_555
H31_3 C45_3 1_555 1_555
C46_3 C45_3 1_555 1_555
H32_3 C46_3 1_555 1_555
C47_3 H33_3 1_555 1_555
C48_3 C44_3 1_555 1_555
H34_3 C48_3 1_555 1_555
N11_3 C37_3 1_555 1_555
N13_3 N12_3 1_555 1_555
H35_3 N13_3 1_555 1_555
H36_3 N13_3 1_555 1_555
N14 C46_3 1_555 1_555
C13_3 N4_3 1_555 1_555
C18_3 C19_3 1_555 1_555
C23_3 C24_3 1_555 1_555
C23_3 N15_2 1_555 1_555
C37_3 N12_3 1_555 1_555
C42_3 C43_3 1_555 1_555
C47_3 C48_3 1_555 1_555
C47_3 N14 1_555 1_555
C15_3 H9_3 1_555 1_555
C16_3 C15_3 1_555 1_555
H10_3 C16_3 1_555 1_555
C25_3 H19_3 1_555 1_555
C26_3 C25_3 1_555 1_555
H20_3 C26_3 1_555 1_555
C27_3 C26_3 1_555 1_555
C28_3 C27_3 1_555 1_555
H21_3 C28_3 1_555 1_555
C29_3 C28_3 1_555 1_555
H22_3 C29_3 1_555 1_555
C30_3 C27_3 1_555 1_555
C31_3 C30_3 1_555 1_555
H23_3 C31_3 1_555 1_555
C32_3 C31_3 1_555 1_555
H24_3 C32_3 1_555 1_555
C33_3 C32_3 1_555 1_555
C34_3 C33_3 1_555 1_555
C35_3 C30_3 1_555 1_555
H26_3 C35_3 1_555 1_555
C36_3 C34_3 1_555 1_555
N7 C25_3 1_555 1_555
C29_3 N7 1_555 1_555
C34_3 C35_3 1_555 1_555
C36_3 N10_3 1_555 1_555
C1_3 H1_3 1_555 1_555
C2_3 C1_3 1_555 1_555
H2_3 C2_3 1_555 1_555
C3_3 C2_3 1_555 1_555
C4_3 C3_3 1_555 1_555
H3_3 C4_3 1_555 1_555
C5_3 C4_3 1_555 1_555
H4_3 C5_3 1_555 1_555
C6_3 C3_3 1_555 1_555
C7_3 C6_3 1_555 1_555
H5_3 C7_3 1_555 1_555
C8_3 C7_3 1_555 1_555
H6_3 C8_3 1_555 1_555
C9_3 C8_3 1_555 1_555
C10_3 C9_3 1_555 1_555
C11_3 C6_3 1_555 1_555
H8_3 C11_3 1_555 1_555
C12_3 C10_3 1_555 1_555
N8_2 C1_3 1_555 1_555
N2_3 C12_3 1_555 1_555
C39_3 H27_3 1_555 1_555
C40_3 C39_3 1_555 1_555
H28_3 C40_3 1_555 1_555
C5_3 N8_2 1_555 1_555
C10_3 C11_3 1_555 1_555
H5_4 C7_4 1_555 1_555
C8_4 C7_4 1_555 1_555
H6_4 C8_4 1_555 1_555
C9_4 C8_4 1_555 1_555
C39_4 H27_4 1_555 1_555
C40_4 C39_4 1_555 1_555
H28_4 C40_4 1_555 1_555
C1_4 H1_4 1_555 1_555
C2_4 C1_4 1_555 1_555
H2_4 C2_4 1_555 1_555
C3_4 C2_4 1_555 1_555
C4_4 C3_4 1_555 1_555
H3_4 C4_4 1_555 1_555
C5_4 C4_4 1_555 1_555
H4_4 C5_4 1_555 1_555
C6_4 C3_4 1_555 1_555
C11_4 C6_4 1_555 1_555
H8_4 C11_4 1_555 1_555
C12_4 C10_4 1_555 1_555
N8 C1_4 1_555 1_555
N2_4 C12_4 1_555 1_555
C5_4 N8 1_555 1_555
C10_4 C11_4 1_555 1_555
C25_4 H19_4 1_555 1_555
C26_4 C25_4 1_555 1_555
H20_4 C26_4 1_555 1_555
C27_4 C26_4 1_555 1_555
C28_4 C27_4 1_555 1_555
H21_4 C28_4 1_555 1_555
C29_4 C28_4 1_555 1_555
H22_4 C29_4 1_555 1_555
C30_4 C27_4 1_555 1_555
C35_4 C30_4 1_555 1_555
H26_4 C35_4 1_555 1_555
C36_4 C34_4 1_555 1_555
N7_2 C25_4 1_555 1_555
C29_4 N7_2 1_555 1_555
C34_4 C35_4 1_555 1_555
C36_4 N10_4 1_555 1_555
C15_4 H9_4 1_555 1_555
C16_4 C15_4 1_555 1_555
H10_4 C16_4 1_555 1_555
H23_4 C31_4 1_555 1_555
C32_4 C31_4 1_555 1_555
H24_4 C32_4 1_555 1_555
C33_4 C32_4 1_555 1_555
C37_4 C38_4 1_555 1_555
H29_4 C41_4 1_555 1_555
C42_4 C41_4 1_555 1_555
C43_4 C38_4 1_555 1_555
H30_4 C43_4 1_555 1_555
C44_4 C42_4 1_555 1_555
C45_4 C44_4 1_555 1_555
H31_4 C45_4 1_555 1_555
C46_4 C45_4 1_555 1_555
H32_4 C46_4 1_555 1_555
C47_4 H33_4 1_555 1_555
C48_4 C44_4 1_555 1_555
H34_4 C48_4 1_555 1_555
N11_4 C37_4 1_555 1_555
N13_4 N12_4 1_555 1_555
H35_4 N13_4 1_555 1_555
H36_4 N13_4 1_555 1_555
N14_2 C46_4 1_555 1_555
C37_4 N12_4 1_555 1_555
C42_4 C43_4 1_555 1_555
C47_4 C48_4 1_555 1_555
C47_4 N14_2 1_555 1_555
C13_4 C14_4 1_555 1_555
H11_4 C17_4 1_555 1_555
C18_4 C17_4 1_555 1_555
C19_4 C14_4 1_555 1_555
H12_4 C19_4 1_555 1_555
C20_4 C18_4 1_555 1_555
C21_4 C20_4 1_555 1_555
H13_4 C21_4 1_555 1_555
C22_4 C21_4 1_555 1_555
H14_4 C22_4 1_555 1_555
C23_4 H15_4 1_555 1_555
C24_4 C20_4 1_555 1_555
H16_4 C24_4 1_555 1_555
N3_4 C13_4 1_555 1_555
N5_4 N4_4 1_555 1_555
H17_4 N5_4 1_555 1_555
H18_4 N5_4 1_555 1_555
N15 C22_4 1_555 1_555
C13_4 N4_4 1_555 1_555
C18_4 C19_4 1_555 1_555
C23_4 C24_4 1_555 1_555
C23_4 N15 1_555 1_555
O3 Cl1 1_555 1_555
O4 Cl1 1_555 1_555
Cl1_2 O1 1_555 1_555
O2 Cl1_2 1_555 1_555
Cl1_3 O1_2 1_555 1_555
O2_2 Cl1_3 1_555 1_555
O3_2 Cl1_3 1_555 1_555
O4_2 Cl1_3 1_555 1_555
Cl1_4 O1_3 1_555 1_555
O2_3 Cl1_4 1_555 1_555
O3_3 Cl1_4 1_555 1_555
O4_3 Cl1_4 1_555 1_555
Cl1_5 O1_4 1_555 1_555
O2_4 Cl1_5 1_555 1_555
O3_4 Cl1_5 1_555 1_555
O4_4 Cl1_5 1_555 1_555
Cl2 O5 1_555 1_555
O8 Cl2 1_555 1_555
O6 Cl2_2 1_555 1_555
O7 Cl2_2 1_555 1_555
Cl2_3 O5_2 1_555 1_555
O6_2 Cl2_3 1_555 1_555
O7_2 Cl2_3 1_555 1_555
O8_2 Cl2_3 1_555 1_555
Cl2_4 O5_3 1_555 1_555
O6_3 Cl2_4 1_555 1_555
O7_3 Cl2_4 1_555 1_555
O8_3 Cl2_4 1_555 1_555
Cl2_5 O5_4 1_555 1_555
O6_4 Cl2_5 1_555 1_555
O7_4 Cl2_5 1_555 1_555
O8_4 Cl2_5 1_555 1_555

#END
