
###############################################################################
#
# This file contains modified crystal structure data generated from the
# MOF subset of the Cambridge Structural Database (CSD) v543 
# hosted by the Cambridge Crystallographic Data Centre (CCDC).
#
# This work is licensed under the Creative Commons
# Attribution-NonCommercial-ShareAlike 4.0 International License.
# To view a copy of this license, visit
# http://creativecommons.org/licenses/by-nc-sa/4.0/
# or send a letter to
# Creative Commons, PO Box 1866, Mountain View, CA 94042, USA.
#
# CIF created using the CSD Python API on 29 September 2022
# The structure has been converted into the P1 space group
# The structure has a 3D framework
# The original CSD entry OKIWEL is in the tetragonal crystal system
# The original CSD entry OKIWEL is in a Sohncke space group
# The framework has been calculated to contain at least 10.0% void space
# The void calculation uses a probe of radius 1.32A, grid spacing 0.4
# The framework is charged, counterions have been retained in the structure
#
###############################################################################

data_OKIWEL
_chemical_formula_moiety         '(C192 H144 Cd2 Cl10 N48 O32 4-)n'
_symmetry_cell_setting           triclinic
_symmetry_space_group_name_H-M   'P 1'
_symmetry_Int_Tables_number      1
_space_group_name_Hall           'P 1'
loop_
_symmetry_equiv_pos_site_id
_symmetry_equiv_pos_as_xyz
1 x,y,z
_cell_length_a                   15.8731(10)
_cell_length_b                   15.8731(10)
_cell_length_c                   21.776(3)
_cell_angle_alpha                90
_cell_angle_beta                 90
_cell_angle_gamma                90
_cell_volume                     5486.58
loop_
_atom_site_label
_atom_site_type_symbol
_atom_site_fract_x
_atom_site_fract_y
_atom_site_fract_z
Cd5 Cd 0.05786(2) 0.05786(2) 0.0000
Cd5_2 Cd 0.05786(2) 0.05786(2) 1.0000
C40 C 0.7277(5) 0.5147(5) 0.0042(4)
H28 H 0.7292 0.5638 0.0292
C41 C 0.7900(4) 0.4564(5) 0.0096(4)
H29 H 0.8333 0.4648 0.0391
C45 C 0.9014(5) 0.3072(5) 0.0317(3)
H31 H 0.8926 0.3444 0.0652
C46 C 0.9595(4) 0.2404(4) 0.0368(3)
H32 H 0.9891 0.2338 0.0744
C1 C 0.9136(4) 0.8586(4) 0.6396(3)
H1 H 0.9635 0.8881 0.6504
C2 C 0.8857(4) 0.7974(4) 0.6787(3)
H2 H 0.9161 0.7850 0.7152
C3 C 0.8115(4) 0.7530(4) 0.6644(3)
C4 C 0.7686(4) 0.7806(4) 0.6128(3)
H3 H 0.7154 0.7569 0.6028
C5 C 0.8028(4) 0.8425(5) 0.5758(3)
H4 H 0.7726 0.8591 0.5401
C6 C 0.7815(4) 0.6807(4) 0.7016(3)
C7 C 0.8077(4) 0.6667(4) 0.7617(3)
H5 H 0.8474 0.7038 0.7800
C8 C 0.7767(6) 0.5991(5) 0.7951(3)
H6 H 0.7955 0.5902 0.8360
C9 C 0.7175(5) 0.5434(5) 0.7691(3)
H7 H 0.6970 0.4964 0.7916
C10 C 0.6901(4) 0.5592(4) 0.7097(3)
C11 C 0.7215(4) 0.6251(4) 0.6765(3)
H8 H 0.7024 0.6336 0.6356
C12 C 0.6281(4) 0.5031(4) 0.6803(3)
C13 C 0.5757(4) 0.4084(4) 0.6181(3)
C14 C 0.5674(4) 0.3384(4) 0.5737(3)
C15 C 0.4960(5) 0.3368(5) 0.5362(3)
H9 H 0.4552 0.3805 0.5388
C16 C 0.4853(5) 0.2723(5) 0.4958(4)
H10 H 0.4362 0.2708 0.4708
C17 C 0.5436(5) 0.2100(4) 0.4904(4)
H11 H 0.5352 0.1667 0.4609
C18 C 0.6171(4) 0.2080(4) 0.5282(3)
C19 C 0.6269(4) 0.2749(4) 0.5699(3)
H12 H 0.6750 0.2766 0.5957
C20 C 0.6819(4) 0.1423(4) 0.5220(3)
C21 C 0.6928(5) 0.0986(5) 0.4683(3)
H13 H 0.6556 0.1074 0.4348
C22 C 0.7596(4) 0.0405(4) 0.4632(3)
H14 H 0.7662 0.0109 0.4256
C23 C 0.8017(5) 0.0675(4) 0.5610(3)
H15 H 0.8396 0.0570 0.5940
C24 C 0.7390(5) 0.1245(5) 0.5706(3)
H16 H 0.7336 0.1520 0.6091
Cd1 Cd 0.44214(2) 0.55786(2) 0.7500
N1 N 0.8758(4) 0.8798(4) 0.5874(2)
N2 N 0.5448(3) 0.5054(3) 0.6840(2)
N3 N 0.5121(3) 0.4459(3) 0.6449(2)
N4 N 0.6493(4) 0.4434(3) 0.6391(2)
N5 N 0.7311(4) 0.4243(4) 0.6179(3)
H17 H 0.7587 0.4730 0.6090
H18 H 0.7595 0.3961 0.6478
N6 N 0.8139(3) 0.0250(3) 0.5084(3)
C25 C 0.1414(4) 0.0864(4) 0.8604(3)
H19 H 0.1119 0.0365 0.8496
C26 C 0.2026(4) 0.1143(4) 0.8213(3)
H20 H 0.2150 0.0839 0.7848
C27 C 0.2470(4) 0.1885(4) 0.8356(3)
C28 C 0.2194(4) 0.2314(4) 0.8872(3)
H21 H 0.2431 0.2846 0.8972
C29 C 0.1575(5) 0.1972(4) 0.9242(3)
H22 H 0.1409 0.2274 0.9599
C30 C 0.3193(4) 0.2185(4) 0.7984(3)
C31 C 0.3333(4) 0.1923(4) 0.7383(3)
H23 H 0.2962 0.1526 0.7200
C32 C 0.4009(5) 0.2233(6) 0.7049(3)
H24 H 0.4098 0.2045 0.6640
C33 C 0.4566(5) 0.2825(5) 0.7309(3)
H25 H 0.5036 0.3030 0.7084
C34 C 0.4408(4) 0.3099(4) 0.7903(3)
C35 C 0.3749(4) 0.2785(4) 0.8235(3)
H26 H 0.3664 0.2976 0.8644
C36 C 0.4969(4) 0.3719(4) 0.8197(3)
C37 C 0.5916(4) 0.4243(4) 0.8819(3)
C38 C 0.6616(4) 0.4326(4) 0.9263(3)
C39 C 0.6632(5) 0.5040(5) 0.9638(3)
H27 H 0.6195 0.5448 0.9612
C42 C 0.7920(4) 0.3829(4) 0.9718(3)
C43 C 0.7251(4) 0.3731(4) 0.9301(3)
H30 H 0.7234 0.3250 0.9043
C44 C 0.8577(4) 0.3181(4) 0.9780(3)
C47 C 0.9325(4) 0.1983(5) 0.9390(3)
H33 H 0.9430 0.1604 0.9060
C48 C 0.8755(5) 0.2610(5) 0.9294(3)
H34 H 0.8480 0.2664 0.8909
Cd2 Cd 0.94214(2) 0.94214(2) 0.5000
N7 N 0.3758(4) 0.6202(4) 0.6626(2)
N8 N 0.3798(4) 0.6242(4) 0.8374(2)
N9 N 0.1202(4) 0.1242(4) 0.9126(2)
N10 N 0.4946(3) 0.4552(3) 0.8160(2)
N11 N 0.5541(3) 0.4879(3) 0.8551(2)
N12 N 0.5566(3) 0.3507(4) 0.8609(2)
N13 N 0.5757(4) 0.2689(4) 0.8821(3)
H35 H 0.5270 0.2413 0.8910
H36 H 0.6039 0.2405 0.8522
N14 N 0.3139(3) 0.4750(3) 0.7416(3)
N15 N 0.5250(3) 0.6861(3) 0.7584(3)
N16 N 0.9750(3) 0.1861(3) 0.9916(3)
C1_2 C 0.0864(4) 0.1414(4) 0.1396(3)
H1_2 H 0.0365 0.1119 0.1504
C2_2 C 0.1143(4) 0.2026(4) 0.1787(3)
H2_2 H 0.0839 0.2150 0.2152
C3_2 C 0.1885(4) 0.2470(4) 0.1644(3)
C4_2 C 0.2314(4) 0.2194(4) 0.1128(3)
H3_2 H 0.2846 0.2431 0.1028
C5_2 C 0.1972(4) 0.1575(5) 0.0758(3)
H4_2 H 0.2274 0.1409 0.0401
C6_2 C 0.2185(4) 0.3193(4) 0.2016(3)
C7_2 C 0.1923(4) 0.3333(4) 0.2617(3)
H5_2 H 0.1526 0.2962 0.2800
C8_2 C 0.2233(6) 0.4009(5) 0.2951(3)
H6_2 H 0.2045 0.4098 0.3360
C9_2 C 0.2825(5) 0.4566(5) 0.2691(3)
H7_2 H 0.3030 0.5036 0.2916
C10_2 C 0.3099(4) 0.4408(4) 0.2097(3)
C11_2 C 0.2785(4) 0.3749(4) 0.1765(3)
H8_2 H 0.2976 0.3664 0.1356
C12_2 C 0.3719(4) 0.4969(4) 0.1803(3)
C13_2 C 0.4243(4) 0.5916(4) 0.1181(3)
C14_2 C 0.4326(4) 0.6616(4) 0.0737(3)
C15_2 C 0.5040(5) 0.6632(5) 0.0362(3)
H9_2 H 0.5448 0.6195 0.0388
C18_2 C 0.3829(4) 0.7920(4) 0.0282(3)
C19_2 C 0.3731(4) 0.7251(4) 0.0699(3)
H12_2 H 0.3250 0.7234 0.0957
C20_2 C 0.3181(4) 0.8577(4) 0.0220(3)
C23_2 C 0.1983(5) 0.9325(4) 0.0610(3)
H15_2 H 0.1604 0.9430 0.0940
C24_2 C 0.2610(5) 0.8755(5) 0.0706(3)
H16_2 H 0.2664 0.8480 0.1091
Cd1_2 Cd 0.55786(2) 0.44214(2) 0.2500
N1_2 N 0.1242(4) 0.1202(4) 0.0874(2)
N2_2 N 0.4552(3) 0.4946(3) 0.1840(2)
N3_2 N 0.4879(3) 0.5541(3) 0.1449(2)
N4_2 N 0.3507(4) 0.5566(3) 0.1391(2)
N5_2 N 0.2689(4) 0.5757(4) 0.1179(3)
H17_2 H 0.2413 0.5270 0.1090
H18_2 H 0.2405 0.6039 0.1478
N6_2 N 0.1861(3) 0.9750(3) 0.0084(3)
C25_2 C 0.8586(4) 0.9136(4) 0.3604(3)
H19_2 H 0.8881 0.9635 0.3496
C26_2 C 0.7974(4) 0.8857(4) 0.3213(3)
H20_2 H 0.7850 0.9161 0.2848
C27_2 C 0.7530(4) 0.8115(4) 0.3356(3)
C28_2 C 0.7806(4) 0.7686(4) 0.3872(3)
H21_2 H 0.7569 0.7154 0.3972
C29_2 C 0.8425(5) 0.8028(4) 0.4242(3)
H22_2 H 0.8591 0.7726 0.4599
C30_2 C 0.6807(4) 0.7815(4) 0.2984(3)
C31_2 C 0.6667(4) 0.8077(4) 0.2383(3)
H23_2 H 0.7038 0.8474 0.2200
C32_2 C 0.5991(5) 0.7767(6) 0.2049(3)
H24_2 H 0.5902 0.7955 0.1640
C33_2 C 0.5434(5) 0.7175(5) 0.2309(3)
H25_2 H 0.4964 0.6970 0.2084
C34_2 C 0.5592(4) 0.6901(4) 0.2903(3)
C35_2 C 0.6251(4) 0.7215(4) 0.3235(3)
H26_2 H 0.6336 0.7024 0.3644
C36_2 C 0.5031(4) 0.6281(4) 0.3197(3)
C37_2 C 0.4084(4) 0.5757(4) 0.3819(3)
C38_2 C 0.3384(4) 0.5674(4) 0.4263(3)
C39_2 C 0.3368(5) 0.4960(5) 0.4638(3)
H27_2 H 0.3805 0.4552 0.4612
C40_2 C 0.2723(5) 0.4853(5) 0.5042(4)
H28_2 H 0.2708 0.4362 0.5292
C41_2 C 0.2100(4) 0.5436(5) 0.5096(4)
H29_2 H 0.1667 0.5352 0.5391
C42_2 C 0.2080(4) 0.6171(4) 0.4718(3)
C43_2 C 0.2749(4) 0.6269(4) 0.4301(3)
H30_2 H 0.2766 0.6750 0.4043
C44_2 C 0.1423(4) 0.6819(4) 0.4780(3)
C45_2 C 0.0986(5) 0.6928(5) 0.5317(3)
H31_2 H 0.1074 0.6556 0.5652
C46_2 C 0.0405(4) 0.7596(4) 0.5368(3)
H32_2 H 0.0109 0.7662 0.5744
C47_2 C 0.0675(4) 0.8017(5) 0.4390(3)
H33_2 H 0.0570 0.8396 0.4060
C48_2 C 0.1245(5) 0.7390(5) 0.4294(3)
H34_2 H 0.1520 0.7336 0.3909
N7_2 N 0.6242(4) 0.3798(4) 0.1626(2)
N8_2 N 0.6202(4) 0.3758(4) 0.3374(2)
N9_2 N 0.8798(4) 0.8758(4) 0.4126(2)
N10_2 N 0.5054(3) 0.5448(3) 0.3160(2)
N11_2 N 0.4459(3) 0.5121(3) 0.3551(2)
N12_2 N 0.4434(3) 0.6493(4) 0.3609(2)
N13_2 N 0.4243(4) 0.7311(4) 0.3821(3)
H35_2 H 0.4730 0.7587 0.3910
H36_2 H 0.3961 0.7595 0.3522
N14_2 N 0.6861(3) 0.5250(3) 0.2416(3)
N15_2 N 0.4750(3) 0.3139(3) 0.2584(3)
N16_2 N 0.0250(3) 0.8139(3) 0.4916(3)
C16_2 C 0.5147(5) 0.7277(5) 0.9958(4)
H10_2 H 0.5638 0.7292 0.9708
C17_2 C 0.4564(5) 0.7900(4) 0.9904(4)
H11_2 H 0.4648 0.8333 0.9609
C21_2 C 0.3072(5) 0.9014(5) 0.9683(3)
H13_2 H 0.3444 0.8926 0.9348
C22_2 C 0.2404(4) 0.9595(4) 0.9632(3)
H14_2 H 0.2338 0.9891 0.9256
H7_3 H 0.0036 0.1970 0.5416
C13_3 C 0.0916(4) 0.0757(4) 0.3681(3)
C14_3 C 0.1616(4) 0.0674(4) 0.3237(3)
C17_3 C 0.2900(4) 0.0436(5) 0.2404(4)
H11_3 H 0.3333 0.0352 0.2109
C18_3 C 0.2920(4) 0.1171(4) 0.2782(3)
C19_3 C 0.2251(4) 0.1269(4) 0.3199(3)
H12_3 H 0.2234 0.1750 0.3457
C20_3 C 0.3577(4) 0.1819(4) 0.2720(3)
C21_3 C 0.4014(5) 0.1928(5) 0.2183(3)
H13_3 H 0.3926 0.1556 0.1848
C22_3 C 0.4595(4) 0.2596(4) 0.2132(3)
H14_3 H 0.4891 0.2662 0.1756
C23_3 C 0.4325(4) 0.3017(5) 0.3110(3)
H15_3 H 0.4430 0.3396 0.3440
C24_3 C 0.3755(5) 0.2390(5) 0.3206(3)
H16_3 H 0.3480 0.2336 0.3591
N3_3 N 0.0541(3) 0.0121(3) 0.3949(2)
N4_3 N 0.0566(3) 0.1493(4) 0.3891(2)
N5_3 N 0.0757(4) 0.2311(4) 0.3679(3)
H17_3 H 0.0270 0.2587 0.3590
H18_3 H 0.1039 0.2595 0.3978
H25_3 H 0.1970 0.0036 0.4584
C37_3 C 0.0757(4) 0.0916(4) 0.6319(3)
C38_3 C 0.0674(4) 0.1616(4) 0.6763(3)
C41_3 C 0.0436(5) 0.2900(4) 0.7596(4)
H29_3 H 0.0352 0.3333 0.7891
C42_3 C 0.1171(4) 0.2920(4) 0.7218(3)
C43_3 C 0.1269(4) 0.2251(4) 0.6801(3)
H30_3 H 0.1750 0.2234 0.6543
C44_3 C 0.1819(4) 0.3577(4) 0.7280(3)
C45_3 C 0.1928(5) 0.4014(5) 0.7817(3)
H31_3 H 0.1556 0.3926 0.8152
C46_3 C 0.2596(4) 0.4595(4) 0.7868(3)
H32_3 H 0.2662 0.4891 0.8244
C47_3 C 0.3017(5) 0.4325(4) 0.6890(3)
H33_3 H 0.3396 0.4430 0.6560
C48_3 C 0.2390(5) 0.3755(5) 0.6794(3)
H34_3 H 0.2336 0.3480 0.6409
N11_3 N 0.0121(3) 0.0541(3) 0.6051(2)
N12_3 N 0.1493(4) 0.0566(3) 0.6109(2)
N13_3 N 0.2311(4) 0.0757(4) 0.6321(3)
H35_3 H 0.2587 0.0270 0.6410
H36_3 H 0.2595 0.1039 0.6022
C15_3 C 0.1632(5) 0.9960(5) 0.2862(3)
H9_3 H 0.1195 0.9552 0.2888
C16_3 C 0.2277(5) 0.9853(5) 0.2458(4)
H10_3 H 0.2292 0.9362 0.2208
C25_3 C 0.4136(4) 0.6414(4) 0.6104(3)
H19_3 H 0.4635 0.6119 0.5996
C26_3 C 0.3857(4) 0.7026(4) 0.5713(3)
H20_3 H 0.4161 0.7150 0.5348
C27_3 C 0.3115(4) 0.7470(4) 0.5856(3)
C28_3 C 0.2686(4) 0.7194(4) 0.6372(3)
H21_3 H 0.2154 0.7431 0.6472
C29_3 C 0.3028(4) 0.6575(5) 0.6742(3)
H22_3 H 0.2726 0.6409 0.7099
C30_3 C 0.2815(4) 0.8193(4) 0.5484(3)
C31_3 C 0.3077(4) 0.8333(4) 0.4883(3)
H23_3 H 0.3474 0.7962 0.4700
C32_3 C 0.2767(6) 0.9009(5) 0.4549(3)
H24_3 H 0.2955 0.9098 0.4140
C33_3 C 0.2175(5) 0.9566(5) 0.4809(3)
C34_3 C 0.1901(4) 0.9408(4) 0.5403(3)
C35_3 C 0.2215(4) 0.8749(4) 0.5735(3)
H26_3 H 0.2024 0.8664 0.6144
C36_3 C 0.1281(4) 0.9969(4) 0.5697(3)
N10_3 N 0.0448(3) 0.9946(3) 0.5660(2)
C1_3 C 0.6414(4) 0.4136(4) 0.3896(3)
H1_3 H 0.6119 0.4635 0.4004
C2_3 C 0.7026(4) 0.3857(4) 0.4287(3)
H2_3 H 0.7150 0.4161 0.4652
C3_3 C 0.7470(4) 0.3115(4) 0.4144(3)
C4_3 C 0.7194(4) 0.2686(4) 0.3628(3)
H3_3 H 0.7431 0.2154 0.3528
C5_3 C 0.6575(5) 0.3028(4) 0.3258(3)
H4_3 H 0.6409 0.2726 0.2901
C6_3 C 0.8193(4) 0.2815(4) 0.4516(3)
C7_3 C 0.8333(4) 0.3077(4) 0.5117(3)
H5_3 H 0.7962 0.3474 0.5300
C8_3 C 0.9009(5) 0.2767(6) 0.5451(3)
H6_3 H 0.9098 0.2955 0.5860
C9_3 C 0.9566(5) 0.2175(5) 0.5191(3)
C10_3 C 0.9408(4) 0.1901(4) 0.4597(3)
C11_3 C 0.8749(4) 0.2215(4) 0.4265(3)
H8_3 H 0.8664 0.2024 0.3856
C12_3 C 0.9969(4) 0.1281(4) 0.4303(3)
N2_3 N 0.9946(3) 0.0448(3) 0.4340(2)
C39_3 C 0.9960(5) 0.1632(5) 0.7138(3)
H27_3 H 0.9552 0.1195 0.7112
C40_3 C 0.9853(5) 0.2277(5) 0.7542(4)
H28_3 H 0.9362 0.2292 0.7792
C7_4 C 0.1667(4) 0.6923(4) 0.0117(3)
H5_4 H 0.2038 0.6526 0.0300
C8_4 C 0.0991(5) 0.7233(6) 0.0451(3)
H6_4 H 0.0902 0.7045 0.0860
C9_4 C 0.0434(5) 0.7825(5) 0.0191(3)
C39_4 C 0.0040(5) 0.8368(5) 0.2138(3)
H27_4 H 0.0448 0.8805 0.2112
C40_4 C 0.0147(5) 0.7723(5) 0.2542(4)
H28_4 H 0.0638 0.7708 0.2792
C1_4 C 0.3586(4) 0.5864(4) 0.8896(3)
H1_4 H 0.3881 0.5365 0.9004
C2_4 C 0.2974(4) 0.6143(4) 0.9287(3)
H2_4 H 0.2850 0.5839 0.9652
C3_4 C 0.2530(4) 0.6885(4) 0.9144(3)
C4_4 C 0.2806(4) 0.7314(4) 0.8628(3)
H3_4 H 0.2569 0.7846 0.8528
C5_4 C 0.3425(5) 0.6972(4) 0.8258(3)
H4_4 H 0.3591 0.7274 0.7901
C6_4 C 0.1807(4) 0.7185(4) 0.9516(3)
C10_4 C 0.0592(4) 0.8099(4) 0.9597(3)
C11_4 C 0.1251(4) 0.7785(4) 0.9265(3)
H8_4 H 0.1336 0.7976 0.8856
C12_4 C 0.0031(4) 0.8719(4) 0.9303(3)
N2_4 N 0.0054(3) 0.9552(3) 0.9340(2)
C25_4 C 0.5864(4) 0.3586(4) 0.1104(3)
H19_4 H 0.5365 0.3881 0.0996
C26_4 C 0.6143(4) 0.2974(4) 0.0713(3)
H20_4 H 0.5839 0.2850 0.0348
C27_4 C 0.6885(4) 0.2530(4) 0.0856(3)
C28_4 C 0.7314(4) 0.2806(4) 0.1372(3)
H21_4 H 0.7846 0.2569 0.1472
C29_4 C 0.6972(4) 0.3425(5) 0.1742(3)
H22_4 H 0.7274 0.3591 0.2099
C30_4 C 0.7185(4) 0.1807(4) 0.0484(3)
C34_4 C 0.8099(4) 0.0592(4) 0.0403(3)
C35_4 C 0.7785(4) 0.1251(4) 0.0735(3)
H26_4 H 0.7976 0.1336 0.1144
C36_4 C 0.8719(4) 0.0031(4) 0.0697(3)
N10_4 N 0.9552(3) 0.0054(3) 0.0660(2)
C15_4 C 0.8368(5) 0.0040(5) 0.7862(3)
H9_4 H 0.8805 0.0448 0.7888
C16_4 C 0.7723(5) 0.0147(5) 0.7458(4)
H10_4 H 0.7708 0.0638 0.7208
C31_4 C 0.6923(4) 0.1667(4) 0.9883(3)
H23_4 H 0.6526 0.2038 0.9700
C32_4 C 0.7233(6) 0.0991(5) 0.9549(3)
H24_4 H 0.7045 0.0902 0.9140
C33_4 C 0.7825(5) 0.0434(5) 0.9809(3)
H7_4 H 0.9964 0.8030 0.0416
C37_4 C 0.9243(4) 0.9084(4) 0.1319(3)
C38_4 C 0.9326(4) 0.8384(4) 0.1763(3)
C41_4 C 0.9564(5) 0.7100(4) 0.2596(4)
H29_4 H 0.9648 0.6667 0.2891
C42_4 C 0.8829(4) 0.7080(4) 0.2218(3)
C43_4 C 0.8731(4) 0.7749(4) 0.1801(3)
H30_4 H 0.8250 0.7766 0.1543
C44_4 C 0.8181(4) 0.6423(4) 0.2280(3)
C45_4 C 0.8072(5) 0.5986(5) 0.2817(3)
H31_4 H 0.8444 0.6074 0.3152
C46_4 C 0.7404(4) 0.5405(4) 0.2868(3)
H32_4 H 0.7338 0.5109 0.3244
C47_4 C 0.6983(5) 0.5675(4) 0.1890(3)
H33_4 H 0.6604 0.5570 0.1560
C48_4 C 0.7610(5) 0.6245(5) 0.1794(3)
H34_4 H 0.7664 0.6520 0.1409
N11_4 N 0.9879(3) 0.9459(3) 0.1051(2)
N12_4 N 0.8507(4) 0.9434(3) 0.1109(2)
N13_4 N 0.7689(4) 0.9243(4) 0.1321(3)
H35_4 H 0.7413 0.9730 0.1410
H36_4 H 0.7405 0.8961 0.1022
C13_4 C 0.9084(4) 0.9243(4) 0.8681(3)
C14_4 C 0.8384(4) 0.9326(4) 0.8237(3)
C17_4 C 0.7100(4) 0.9564(5) 0.7404(4)
H11_4 H 0.6667 0.9648 0.7109
C18_4 C 0.7080(4) 0.8829(4) 0.7782(3)
C19_4 C 0.7749(4) 0.8731(4) 0.8199(3)
H12_4 H 0.7766 0.8250 0.8457
C20_4 C 0.6423(4) 0.8181(4) 0.7720(3)
C21_4 C 0.5986(5) 0.8072(5) 0.7183(3)
H13_4 H 0.6074 0.8444 0.6848
C22_4 C 0.5405(4) 0.7404(4) 0.7132(3)
H14_4 H 0.5109 0.7338 0.6756
C23_4 C 0.5675(4) 0.6983(5) 0.8110(3)
H15_4 H 0.5570 0.6604 0.8440
C24_4 C 0.6245(5) 0.7610(5) 0.8206(3)
H16_4 H 0.6520 0.7664 0.8591
N3_4 N 0.9459(3) 0.9879(3) 0.8949(2)
N4_4 N 0.9434(3) 0.8507(4) 0.8891(2)
N5_4 N 0.9243(4) 0.7689(4) 0.8679(3)
H17_4 H 0.9730 0.7413 0.8590
H18_4 H 0.8961 0.7405 0.8978
H25_4 H 0.8030 0.9964 0.9584
Cl1 Cl 0.76838(13) 0.76838(13) 0.0000
O3 O 0.7273(7) 0.7387(8) 0.0522(3)
O4 O 0.8422(13) 0.7231(16) 0.0080(16)
Cl1_2 Cl 0.76838(13) 0.76838(13) 1.0000
O1 O 0.7387(8) 0.7273(7) 0.9478(3)
O2 O 0.7231(16) 0.8422(13) 0.9920(16)
Cl1_3 Cl 0.23162(13) 0.23162(13) 0.5000
O1_2 O 0.2613(8) 0.2727(7) 0.4478(3)
O2_2 O 0.2769(16) 0.1578(13) 0.4920(16)
O3_2 O 0.2727(7) 0.2613(8) 0.5522(3)
O4_2 O 0.1578(13) 0.2769(16) 0.5080(16)
Cl1_4 Cl 0.73162(13) 0.26838(13) 0.7500
O1_3 O 0.7727(7) 0.2387(8) 0.6978(3)
O2_3 O 0.6578(13) 0.2231(16) 0.7420(16)
O3_3 O 0.7613(8) 0.2273(7) 0.8022(3)
O4_3 O 0.7769(16) 0.3422(13) 0.7580(16)
Cl1_5 Cl 0.26838(13) 0.73162(13) 0.2500
O1_4 O 0.2273(7) 0.7613(8) 0.1978(3)
O2_4 O 0.3422(13) 0.7769(16) 0.2420(16)
O3_4 O 0.2387(8) 0.7727(7) 0.3022(3)
O4_4 O 0.2231(16) 0.6578(13) 0.2580(16)
Cl2 Cl 0.37891(16) 0.37891(16) 0.0000
O5 O 0.358(2) 0.4484(9) 0.0287(6)
O8 O 0.4030(9) 0.3355(18) 0.0534(6)
Cl2_2 Cl 0.37891(16) 0.37891(16) 1.0000
O6 O 0.3355(18) 0.4030(9) 0.9466(6)
O7 O 0.4484(9) 0.358(2) 0.9713(6)
Cl2_3 Cl 0.62109(16) 0.62109(16) 0.5000
O5_2 O 0.642(2) 0.5516(9) 0.5287(6)
O6_2 O 0.6645(18) 0.5970(9) 0.4466(6)
O7_2 O 0.5516(9) 0.642(2) 0.4713(6)
O8_2 O 0.5970(9) 0.6645(18) 0.5534(6)
Cl2_4 Cl 0.12109(16) 0.87891(16) 0.7500
O5_3 O 0.0516(9) 0.858(2) 0.7787(6)
O6_3 O 0.0970(9) 0.8355(18) 0.6966(6)
O7_3 O 0.142(2) 0.9484(9) 0.7213(6)
O8_3 O 0.1645(18) 0.9030(9) 0.8034(6)
Cl2_5 Cl 0.87891(16) 0.12109(16) 0.2500
O5_4 O 0.9484(9) 0.142(2) 0.2787(6)
O6_4 O 0.9030(9) 0.1645(18) 0.1966(6)
O7_4 O 0.858(2) 0.0516(9) 0.2213(6)
O8_4 O 0.8355(18) 0.0970(9) 0.3034(6)
loop_
_geom_bond_atom_site_label_1
_geom_bond_atom_site_label_2
_geom_bond_site_symmetry_1
_geom_bond_site_symmetry_2
H28 C40 1_555 1_555
C41 C40 1_555 1_555
H29 C41 1_555 1_555
H31 C45 1_555 1_555
C46 C45 1_555 1_555
H32 C46 1_555 1_555
C1 H1 1_555 1_555
C2 C1 1_555 1_555
H2 C2 1_555 1_555
C3 C2 1_555 1_555
C4 C3 1_555 1_555
H3 C4 1_555 1_555
C5 C4 1_555 1_555
H4 C5 1_555 1_555
C6 C3 1_555 1_555
C7 C6 1_555 1_555
H5 C7 1_555 1_555
C8 C7 1_555 1_555
H6 C8 1_555 1_555
C9 C8 1_555 1_555
H7 C9 1_555 1_555
C10 C9 1_555 1_555
C11 C6 1_555 1_555
H8 C11 1_555 1_555
C12 C10 1_555 1_555
C13 C14 1_555 1_555
C14 C15 1_555 1_555
C15 H9 1_555 1_555
C16 C15 1_555 1_555
H10 C16 1_555 1_555
C17 C16 1_555 1_555
H11 C17 1_555 1_555
C18 C17 1_555 1_555
C19 C14 1_555 1_555
H12 C19 1_555 1_555
C20 C18 1_555 1_555
C21 C20 1_555 1_555
H13 C21 1_555 1_555
C22 C21 1_555 1_555
H14 C22 1_555 1_555
C23 H15 1_555 1_555
C24 C20 1_555 1_555
H16 C24 1_555 1_555
Cd1 N2 1_555 1_555
N1 C1 1_555 1_555
N2 C12 1_555 1_555
N3 C13 1_555 1_555
N4 C12 1_555 1_555
N5 N4 1_555 1_555
H17 N5 1_555 1_555
H18 N5 1_555 1_555
N6 C22 1_555 1_555
C25 H19 1_555 1_555
C26 C25 1_555 1_555
H20 C26 1_555 1_555
C27 C26 1_555 1_555
C28 C27 1_555 1_555
H21 C28 1_555 1_555
C29 C28 1_555 1_555
H22 C29 1_555 1_555
C30 C27 1_555 1_555
C31 C30 1_555 1_555
H23 C31 1_555 1_555
C32 C31 1_555 1_555
H24 C32 1_555 1_555
C33 C32 1_555 1_555
H25 C33 1_555 1_555
C34 C33 1_555 1_555
C35 C30 1_555 1_555
H26 C35 1_555 1_555
C36 C34 1_555 1_555
C37 C38 1_555 1_555
C38 C39 1_555 1_555
C39 H27 1_555 1_555
C43 C38 1_555 1_555
H30 C43 1_555 1_555
C44 C42 1_555 1_555
C47 H33 1_555 1_555
C48 C44 1_555 1_555
H34 C48 1_555 1_555
Cd2 N1 1_555 1_555
Cd5_2 N9 1_555 1_555
N7 Cd1 1_555 1_555
N8 Cd1 1_555 1_555
N9 C25 1_555 1_555
N10 Cd1 1_555 1_555
N11 C37 1_555 1_555
N12 C36 1_555 1_555
N13 N12 1_555 1_555
H35 N13 1_555 1_555
H36 N13 1_555 1_555
N14 Cd1 1_555 1_555
N15 Cd1 1_555 1_555
C5 N1 1_555 1_555
C10 C11 1_555 1_555
C13 N4 1_555 1_555
C18 C19 1_555 1_555
C23 C24 1_555 1_555
C23 N6 1_555 1_555
N2 N3 1_555 1_555
C29 N9 1_555 1_555
C34 C35 1_555 1_555
C36 N10 1_555 1_555
C37 N12 1_555 1_555
C42 C43 1_555 1_555
C47 C48 1_555 1_555
C47 N16 1_555 1_555
N10 N11 1_555 1_555
C1_2 H1_2 1_555 1_555
C2_2 C1_2 1_555 1_555
H2_2 C2_2 1_555 1_555
C3_2 C2_2 1_555 1_555
C4_2 C3_2 1_555 1_555
H3_2 C4_2 1_555 1_555
C5_2 C4_2 1_555 1_555
H4_2 C5_2 1_555 1_555
C6_2 C3_2 1_555 1_555
C7_2 C6_2 1_555 1_555
H5_2 C7_2 1_555 1_555
C8_2 C7_2 1_555 1_555
H6_2 C8_2 1_555 1_555
C9_2 C8_2 1_555 1_555
H7_2 C9_2 1_555 1_555
C10_2 C9_2 1_555 1_555
C11_2 C6_2 1_555 1_555
H8_2 C11_2 1_555 1_555
C12_2 C10_2 1_555 1_555
C13_2 C14_2 1_555 1_555
C14_2 C15_2 1_555 1_555
C15_2 H9_2 1_555 1_555
C19_2 C14_2 1_555 1_555
H12_2 C19_2 1_555 1_555
C20_2 C18_2 1_555 1_555
C23_2 H15_2 1_555 1_555
C24_2 C20_2 1_555 1_555
H16_2 C24_2 1_555 1_555
Cd1_2 N2_2 1_555 1_555
N1_2 C1_2 1_555 1_555
N2_2 C12_2 1_555 1_555
N3_2 C13_2 1_555 1_555
N4_2 C12_2 1_555 1_555
N5_2 N4_2 1_555 1_555
H17_2 N5_2 1_555 1_555
H18_2 N5_2 1_555 1_555
C25_2 H19_2 1_555 1_555
C26_2 C25_2 1_555 1_555
H20_2 C26_2 1_555 1_555
C27_2 C26_2 1_555 1_555
C28_2 C27_2 1_555 1_555
H21_2 C28_2 1_555 1_555
C29_2 C28_2 1_555 1_555
H22_2 C29_2 1_555 1_555
C30_2 C27_2 1_555 1_555
C31_2 C30_2 1_555 1_555
H23_2 C31_2 1_555 1_555
C32_2 C31_2 1_555 1_555
H24_2 C32_2 1_555 1_555
C33_2 C32_2 1_555 1_555
H25_2 C33_2 1_555 1_555
C34_2 C33_2 1_555 1_555
C35_2 C30_2 1_555 1_555
H26_2 C35_2 1_555 1_555
C36_2 C34_2 1_555 1_555
C37_2 C38_2 1_555 1_555
C38_2 C39_2 1_555 1_555
C39_2 H27_2 1_555 1_555
C40_2 C39_2 1_555 1_555
H28_2 C40_2 1_555 1_555
C41_2 C40_2 1_555 1_555
H29_2 C41_2 1_555 1_555
C42_2 C41_2 1_555 1_555
C43_2 C38_2 1_555 1_555
H30_2 C43_2 1_555 1_555
C44_2 C42_2 1_555 1_555
C45_2 C44_2 1_555 1_555
H31_2 C45_2 1_555 1_555
C46_2 C45_2 1_555 1_555
H32_2 C46_2 1_555 1_555
C47_2 H33_2 1_555 1_555
C48_2 C44_2 1_555 1_555
H34_2 C48_2 1_555 1_555
Cd5 N1_2 1_555 1_555
Cd2 N9_2 1_555 1_555
N7_2 Cd1_2 1_555 1_555
N8_2 Cd1_2 1_555 1_555
N9_2 C25_2 1_555 1_555
N10_2 Cd1_2 1_555 1_555
N11_2 C37_2 1_555 1_555
N12_2 C36_2 1_555 1_555
N13_2 N12_2 1_555 1_555
H35_2 N13_2 1_555 1_555
H36_2 N13_2 1_555 1_555
N14_2 Cd1_2 1_555 1_555
N15_2 Cd1_2 1_555 1_555
N16_2 C46_2 1_555 1_555
C5_2 N1_2 1_555 1_555
C10_2 C11_2 1_555 1_555
C13_2 N4_2 1_555 1_555
C18_2 C19_2 1_555 1_555
C23_2 C24_2 1_555 1_555
C23_2 N6_2 1_555 1_555
N2_2 N3_2 1_555 1_555
C29_2 N9_2 1_555 1_555
C34_2 C35_2 1_555 1_555
C36_2 N10_2 1_555 1_555
C37_2 N12_2 1_555 1_555
C42_2 C43_2 1_555 1_555
C47_2 C48_2 1_555 1_555
C47_2 N16_2 1_555 1_555
N10_2 N11_2 1_555 1_555
H10_2 C16_2 1_555 1_555
C17_2 C16_2 1_555 1_555
H11_2 C17_2 1_555 1_555
H13_2 C21_2 1_555 1_555
C22_2 C21_2 1_555 1_555
H14_2 C22_2 1_555 1_555
C13_3 C14_3 1_555 1_555
H11_3 C17_3 1_555 1_555
C18_3 C17_3 1_555 1_555
C19_3 C14_3 1_555 1_555
H12_3 C19_3 1_555 1_555
C20_3 C18_3 1_555 1_555
C21_3 C20_3 1_555 1_555
H13_3 C21_3 1_555 1_555
C22_3 C21_3 1_555 1_555
H14_3 C22_3 1_555 1_555
C23_3 H15_3 1_555 1_555
C24_3 C20_3 1_555 1_555
H16_3 C24_3 1_555 1_555
N3_3 C13_3 1_555 1_555
N5_3 N4_3 1_555 1_555
H17_3 N5_3 1_555 1_555
H18_3 N5_3 1_555 1_555
N15_2 C22_3 1_555 1_555
C37_3 C38_3 1_555 1_555
H29_3 C41_3 1_555 1_555
C42_3 C41_3 1_555 1_555
C43_3 C38_3 1_555 1_555
H30_3 C43_3 1_555 1_555
C44_3 C42_3 1_555 1_555
C45_3 C44_3 1_555 1_555
H31_3 C45_3 1_555 1_555
C46_3 C45_3 1_555 1_555
H32_3 C46_3 1_555 1_555
C47_3 H33_3 1_555 1_555
C48_3 C44_3 1_555 1_555
H34_3 C48_3 1_555 1_555
N11_3 C37_3 1_555 1_555
N13_3 N12_3 1_555 1_555
H35_3 N13_3 1_555 1_555
H36_3 N13_3 1_555 1_555
N14 C46_3 1_555 1_555
C13_3 N4_3 1_555 1_555
C18_3 C19_3 1_555 1_555
C23_3 C24_3 1_555 1_555
C23_3 N15_2 1_555 1_555
C37_3 N12_3 1_555 1_555
C42_3 C43_3 1_555 1_555
C47_3 C48_3 1_555 1_555
C47_3 N14 1_555 1_555
C15_3 H9_3 1_555 1_555
C16_3 C15_3 1_555 1_555
H10_3 C16_3 1_555 1_555
C25_3 H19_3 1_555 1_555
C26_3 C25_3 1_555 1_555
H20_3 C26_3 1_555 1_555
C27_3 C26_3 1_555 1_555
C28_3 C27_3 1_555 1_555
H21_3 C28_3 1_555 1_555
C29_3 C28_3 1_555 1_555
H22_3 C29_3 1_555 1_555
C30_3 C27_3 1_555 1_555
C31_3 C30_3 1_555 1_555
H23_3 C31_3 1_555 1_555
C32_3 C31_3 1_555 1_555
H24_3 C32_3 1_555 1_555
C33_3 C32_3 1_555 1_555
C34_3 C33_3 1_555 1_555
C35_3 C30_3 1_555 1_555
H26_3 C35_3 1_555 1_555
C36_3 C34_3 1_555 1_555
N7 C25_3 1_555 1_555
C29_3 N7 1_555 1_555
C34_3 C35_3 1_555 1_555
C36_3 N10_3 1_555 1_555
C1_3 H1_3 1_555 1_555
C2_3 C1_3 1_555 1_555
H2_3 C2_3 1_555 1_555
C3_3 C2_3 1_555 1_555
C4_3 C3_3 1_555 1_555
H3_3 C4_3 1_555 1_555
C5_3 C4_3 1_555 1_555
H4_3 C5_3 1_555 1_555
C6_3 C3_3 1_555 1_555
C7_3 C6_3 1_555 1_555
H5_3 C7_3 1_555 1_555
C8_3 C7_3 1_555 1_555
H6_3 C8_3 1_555 1_555
C9_3 C8_3 1_555 1_555
C10_3 C9_3 1_555 1_555
C11_3 C6_3 1_555 1_555
H8_3 C11_3 1_555 1_555
C12_3 C10_3 1_555 1_555
N8_2 C1_3 1_555 1_555
N2_3 C12_3 1_555 1_555
C39_3 H27_3 1_555 1_555
C40_3 C39_3 1_555 1_555
H28_3 C40_3 1_555 1_555
C5_3 N8_2 1_555 1_555
C10_3 C11_3 1_555 1_555
H5_4 C7_4 1_555 1_555
C8_4 C7_4 1_555 1_555
H6_4 C8_4 1_555 1_555
C9_4 C8_4 1_555 1_555
C39_4 H27_4 1_555 1_555
C40_4 C39_4 1_555 1_555
H28_4 C40_4 1_555 1_555
C1_4 H1_4 1_555 1_555
C2_4 C1_4 1_555 1_555
H2_4 C2_4 1_555 1_555
C3_4 C2_4 1_555 1_555
C4_4 C3_4 1_555 1_555
H3_4 C4_4 1_555 1_555
C5_4 C4_4 1_555 1_555
H4_4 C5_4 1_555 1_555
C6_4 C3_4 1_555 1_555
C11_4 C6_4 1_555 1_555
H8_4 C11_4 1_555 1_555
C12_4 C10_4 1_555 1_555
N8 C1_4 1_555 1_555
N2_4 C12_4 1_555 1_555
C5_4 N8 1_555 1_555
C10_4 C11_4 1_555 1_555
C25_4 H19_4 1_555 1_555
C26_4 C25_4 1_555 1_555
H20_4 C26_4 1_555 1_555
C27_4 C26_4 1_555 1_555
C28_4 C27_4 1_555 1_555
H21_4 C28_4 1_555 1_555
C29_4 C28_4 1_555 1_555
H22_4 C29_4 1_555 1_555
C30_4 C27_4 1_555 1_555
C35_4 C30_4 1_555 1_555
H26_4 C35_4 1_555 1_555
C36_4 C34_4 1_555 1_555
N7_2 C25_4 1_555 1_555
C29_4 N7_2 1_555 1_555
C34_4 C35_4 1_555 1_555
C36_4 N10_4 1_555 1_555
C15_4 H9_4 1_555 1_555
C16_4 C15_4 1_555 1_555
H10_4 C16_4 1_555 1_555
H23_4 C31_4 1_555 1_555
C32_4 C31_4 1_555 1_555
H24_4 C32_4 1_555 1_555
C33_4 C32_4 1_555 1_555
C37_4 C38_4 1_555 1_555
H29_4 C41_4 1_555 1_555
C42_4 C41_4 1_555 1_555
C43_4 C38_4 1_555 1_555
H30_4 C43_4 1_555 1_555
C44_4 C42_4 1_555 1_555
C45_4 C44_4 1_555 1_555
H31_4 C45_4 1_555 1_555
C46_4 C45_4 1_555 1_555
H32_4 C46_4 1_555 1_555
C47_4 H33_4 1_555 1_555
C48_4 C44_4 1_555 1_555
H34_4 C48_4 1_555 1_555
N11_4 C37_4 1_555 1_555
N13_4 N12_4 1_555 1_555
H35_4 N13_4 1_555 1_555
H36_4 N13_4 1_555 1_555
N14_2 C46_4 1_555 1_555
C37_4 N12_4 1_555 1_555
C42_4 C43_4 1_555 1_555
C47_4 C48_4 1_555 1_555
C47_4 N14_2 1_555 1_555
C13_4 C14_4 1_555 1_555
H11_4 C17_4 1_555 1_555
C18_4 C17_4 1_555 1_555
C19_4 C14_4 1_555 1_555
H12_4 C19_4 1_555 1_555
C20_4 C18_4 1_555 1_555
C21_4 C20_4 1_555 1_555
H13_4 C21_4 1_555 1_555
C22_4 C21_4 1_555 1_555
H14_4 C22_4 1_555 1_555
C23_4 H15_4 1_555 1_555
C24_4 C20_4 1_555 1_555
H16_4 C24_4 1_555 1_555
N3_4 C13_4 1_555 1_555
N5_4 N4_4 1_555 1_555
H17_4 N5_4 1_555 1_555
H18_4 N5_4 1_555 1_555
N15 C22_4 1_555 1_555
C13_4 N4_4 1_555 1_555
C18_4 C19_4 1_555 1_555
C23_4 C24_4 1_555 1_555
C23_4 N15 1_555 1_555
O3 Cl1 1_555 1_555
O4 Cl1 1_555 1_555
Cl1_2 O1 1_555 1_555
O2 Cl1_2 1_555 1_555
Cl1_3 O1_2 1_555 1_555
O2_2 Cl1_3 1_555 1_555
O3_2 Cl1_3 1_555 1_555
O4_2 Cl1_3 1_555 1_555
Cl1_4 O1_3 1_555 1_555
O2_3 Cl1_4 1_555 1_555
O3_3 Cl1_4 1_555 1_555
O4_3 Cl1_4 1_555 1_555
Cl1_5 O1_4 1_555 1_555
O2_4 Cl1_5 1_555 1_555
O3_4 Cl1_5 1_555 1_555
O4_4 Cl1_5 1_555 1_555
Cl2 O5 1_555 1_555
O8 Cl2 1_555 1_555
O6 Cl2_2 1_555 1_555
O7 Cl2_2 1_555 1_555
Cl2_3 O5_2 1_555 1_555
O6_2 Cl2_3 1_555 1_555
O7_2 Cl2_3 1_555 1_555
O8_2 Cl2_3 1_555 1_555
Cl2_4 O5_3 1_555 1_555
O6_3 Cl2_4 1_555 1_555
O7_3 Cl2_4 1_555 1_555
O8_3 Cl2_4 1_555 1_555
Cl2_5 O5_4 1_555 1_555
O6_4 Cl2_5 1_555 1_555
O7_4 Cl2_5 1_555 1_555
O8_4 Cl2_5 1_555 1_555

#END
