
###############################################################################
#
# This file contains modified crystal structure data generated from the
# MOF subset of the Cambridge Structural Database (CSD) v543 
# hosted by the Cambridge Crystallographic Data Centre (CCDC).
#
# This work is licensed under the Creative Commons
# Attribution-NonCommercial-ShareAlike 4.0 International License.
# To view a copy of this license, visit
# http://creativecommons.org/licenses/by-nc-sa/4.0/
# or send a letter to
# Creative Commons, PO Box 1866, Mountain View, CA 94042, USA.
#
# CIF created using the CSD Python API on 29 September 2022
# The structure has been converted into the P1 space group
# The structure has a 3D framework
# The original CSD entry OKIXIQ is in the tetragonal crystal system
# The original CSD entry OKIXIQ is in a Sohncke space group
# The framework has been calculated to contain at least 10.0% void space
# The void calculation uses a probe of radius 1.32A, grid spacing 0.4
# The framework is charged, counterions have been retained in the structure
#
###############################################################################

data_OKIXIQ
_chemical_formula_moiety         '(C192 H144 Cd3 Cl5 N48 O16 2+)n'
_symmetry_cell_setting           triclinic
_symmetry_space_group_name_H-M   'P 1'
_symmetry_Int_Tables_number      1
_space_group_name_Hall           'P 1'
loop_
_symmetry_equiv_pos_site_id
_symmetry_equiv_pos_as_xyz
1 x,y,z
_cell_length_a                   15.8832(12)
_cell_length_b                   15.8832(12)
_cell_length_c                   21.700(3)
_cell_angle_alpha                90
_cell_angle_beta                 90
_cell_angle_gamma                90
_cell_volume                     5474.39
loop_
_atom_site_label
_atom_site_type_symbol
_atom_site_fract_x
_atom_site_fract_y
_atom_site_fract_z
C40 C 0.2312(4) 0.0164(4) 0.0013(4)
H28 H 0.2341 0.0666 0.0250
C1 C 0.4125(4) 0.3593(4) 0.6390(3)
H1 H 0.4631 0.3878 0.6496
C2 C 0.3830(4) 0.2984(4) 0.6790(3)
H2 H 0.4133 0.2854 0.7155
C3 C 0.3087(4) 0.2562(4) 0.6653(3)
C4 C 0.2645(4) 0.2851(4) 0.6140(3)
H3 H 0.2099 0.2638 0.6052
C5 C 0.2999(4) 0.3439(4) 0.5765(3)
H4 H 0.2697 0.3601 0.5406
C6 C 0.2772(4) 0.1835(4) 0.7024(3)
C7 C 0.3062(4) 0.1682(4) 0.7619(3)
H5 H 0.3462 0.2051 0.7801
C8 C 0.2767(4) 0.0994(4) 0.7947(3)
H6 H 0.2971 0.0893 0.8352
C9 C 0.2176(4) 0.0448(4) 0.7692(2)
C10 C 0.1880(4) 0.0610(3) 0.7095(2)
C11 C 0.2174(4) 0.1296(4) 0.6773(3)
H8 H 0.1964 0.1403 0.6371
C12 C 0.1265(3) 0.0054(3) 0.6799(2)
N1 N 0.3747(3) 0.3804(3) 0.5870(2)
N2 N 0.0444(3) 0.0061(3) 0.6837(2)
C39 C 0.1651(4) 0.0050(4) 0.9621(3)
H27 H 0.1217 0.0461 0.9595
Cd2 Cd 0.44128(2) 0.44128(2) 0.5000
N15 N 0.0245(3) 0.1870(3) 0.7575(2)
C41 C 0.2934(4) 0.9572(4) 0.0074(3)
H29 H 0.3376 0.9657 0.0362
C45 C 0.4066(4) 0.8107(4) 0.0300(3)
H31 H 0.4013 0.8510 0.0620
C46 C 0.4636(4) 0.7446(4) 0.0363(3)
H32 H 0.4952 0.7404 0.0733
Cd5 Cd 0.55872(2) 0.55872(2) 0.0000
H7 H 0.1978 0.9976 0.7918
C13 C 0.0755(3) 0.9083(3) 0.6183(2)
C14 C 0.0673(3) 0.8386(3) 0.5744(2)
C17 C 0.0428(4) 0.7066(4) 0.4926(3)
H11 H 0.0343 0.6624 0.4638
C18 C 0.1156(4) 0.7080(4) 0.5287(3)
C19 C 0.1269(4) 0.7750(3) 0.5696(3)
H12 H 0.1761 0.7771 0.5944
C20 C 0.1817(4) 0.6421(4) 0.5221(3)
C21 C 0.1893(4) 0.5934(4) 0.4700(3)
H13 H 0.1490 0.5987 0.4380
C22 C 0.2554(4) 0.5364(4) 0.4637(3)
H14 H 0.2596 0.5048 0.4267
C23 C 0.3040(4) 0.5696(4) 0.5591(3)
H15 H 0.3440 0.5612 0.5911
C24 C 0.2413(4) 0.6269(4) 0.5690(3)
H16 H 0.2379 0.6563 0.6071
N3 N 0.0122(3) 0.9451(3) 0.6452(2)
N4 N 0.1487(3) 0.9445(3) 0.6389(2)
N5 N 0.2305(3) 0.9260(3) 0.6178(3)
H17 H 0.2552 0.9742 0.6041
H18 H 0.2614 0.9042 0.6493
N6 N 0.3130(3) 0.5245(3) 0.5075(2)
H25 H 0.0024 0.8022 0.7082
C37 C 0.0917(3) 0.9245(3) 0.8817(2)
C38 C 0.1614(3) 0.9327(3) 0.9256(2)
C42 C 0.2920(4) 0.8844(4) 0.9713(3)
C43 C 0.2250(3) 0.8731(4) 0.9304(3)
H30 H 0.2229 0.8239 0.9056
C44 C 0.3579(4) 0.8183(4) 0.9779(3)
C47 C 0.4304(4) 0.6960(4) 0.9409(3)
H33 H 0.4388 0.6560 0.9089
C48 C 0.3731(4) 0.7587(4) 0.9310(3)
H34 H 0.3437 0.7621 0.8929
Cd5_2 Cd 0.55872(2) 0.55872(2) 1.0000
N11 N 0.0549(3) 0.9878(3) 0.8548(2)
N12 N 0.0555(3) 0.8513(3) 0.8611(2)
N13 N 0.0740(3) 0.7695(3) 0.8822(3)
H35 H 0.0258 0.7448 0.8959
H36 H 0.0958 0.7386 0.8507
N16 N 0.4755(3) 0.6870(3) 0.9925(2)
Cd1 Cd 0.94128(2) 0.05872(2) 0.7500
N7 N 0.8747(3) 0.1196(3) 0.6630(2)
N8 N 0.8804(3) 0.1253(3) 0.8370(2)
C15 C 0.9950(4) 0.8349(4) 0.5379(3)
H9 H 0.9539 0.8783 0.5405
C16 C 0.9836(4) 0.7688(4) 0.4987(4)
H10 H 0.9334 0.7659 0.4750
C25 C 0.6407(4) 0.5875(4) 0.8610(3)
H19 H 0.6122 0.5369 0.8504
C26 C 0.7016(4) 0.6170(4) 0.8210(3)
H20 H 0.7146 0.5867 0.7845
C27 C 0.7438(4) 0.6913(4) 0.8347(3)
C28 C 0.7149(4) 0.7355(4) 0.8860(3)
H21 H 0.7362 0.7901 0.8948
C29 C 0.6561(4) 0.7001(4) 0.9235(3)
H22 H 0.6399 0.7303 0.9594
C30 C 0.8165(4) 0.7228(4) 0.7976(3)
C31 C 0.8318(4) 0.6938(4) 0.7381(3)
H23 H 0.7949 0.6538 0.7199
C32 C 0.9006(4) 0.7233(4) 0.7053(3)
H24 H 0.9107 0.7029 0.6648
C33 C 0.9552(4) 0.7824(4) 0.7308(2)
C34 C 0.9390(3) 0.8120(4) 0.7905(2)
C35 C 0.8704(4) 0.7826(4) 0.8227(3)
H26 H 0.8597 0.8036 0.8629
C36 C 0.9946(3) 0.8735(3) 0.8201(2)
N9 N 0.6196(3) 0.6253(3) 0.9130(2)
N10 N 0.9939(3) 0.9556(3) 0.8163(2)
N14 N 0.8130(3) 0.9755(3) 0.7425(2)
C15_2 C 0.0050(4) 0.1651(4) 0.0379(3)
H9_2 H 0.0461 0.1217 0.0405
C25_2 C 0.3593(4) 0.4125(4) 0.3610(3)
H19_2 H 0.3878 0.4631 0.3504
C26_2 C 0.2984(4) 0.3830(4) 0.3210(3)
H20_2 H 0.2854 0.4133 0.2845
C27_2 C 0.2562(4) 0.3087(4) 0.3347(3)
C28_2 C 0.2851(4) 0.2645(4) 0.3860(3)
H21_2 H 0.2638 0.2099 0.3948
C29_2 C 0.3439(4) 0.2999(4) 0.4235(3)
H22_2 H 0.3601 0.2697 0.4594
C30_2 C 0.1835(4) 0.2772(4) 0.2976(3)
C31_2 C 0.1682(4) 0.3062(4) 0.2381(3)
H23_2 H 0.2051 0.3462 0.2199
C32_2 C 0.0994(4) 0.2767(4) 0.2053(3)
H24_2 H 0.0893 0.2971 0.1648
C33_2 C 0.0448(4) 0.2176(4) 0.2308(2)
C34_2 C 0.0610(3) 0.1880(4) 0.2905(2)
C35_2 C 0.1296(4) 0.2174(4) 0.3227(3)
H26_2 H 0.1403 0.1964 0.3629
C36_2 C 0.0054(3) 0.1265(3) 0.3201(2)
N9_2 N 0.3804(3) 0.3747(3) 0.4130(2)
N10_2 N 0.0061(3) 0.0444(3) 0.3163(2)
N14_2 N 0.1870(3) 0.0245(3) 0.2425(2)
Cd1_2 Cd 0.05872(2) 0.94128(2) 0.2500
N7_2 N 0.1253(3) 0.8804(3) 0.1630(2)
N8_2 N 0.1196(3) 0.8747(3) 0.3370(2)
H7_2 H 0.8022 0.0024 0.2918
C13_2 C 0.9245(3) 0.0917(3) 0.1183(2)
C14_2 C 0.9327(3) 0.1614(3) 0.0744(2)
C18_2 C 0.8844(4) 0.2920(4) 0.0287(3)
C19_2 C 0.8731(4) 0.2250(3) 0.0696(3)
H12_2 H 0.8239 0.2229 0.0944
C20_2 C 0.8183(4) 0.3579(4) 0.0221(3)
C23_2 C 0.6960(4) 0.4304(4) 0.0591(3)
H15_2 H 0.6560 0.4388 0.0911
C24_2 C 0.7587(4) 0.3731(4) 0.0690(3)
H16_2 H 0.7621 0.3437 0.1071
N3_2 N 0.9878(3) 0.0549(3) 0.1452(2)
N4_2 N 0.8513(3) 0.0555(3) 0.1389(2)
N5_2 N 0.7695(3) 0.0740(3) 0.1178(3)
H17_2 H 0.7448 0.0258 0.1041
H18_2 H 0.7386 0.0958 0.1493
N6_2 N 0.6870(3) 0.4755(3) 0.0075(2)
H25_2 H 0.9976 0.1978 0.2082
C37_2 C 0.9083(3) 0.0755(3) 0.3817(2)
C38_2 C 0.8386(3) 0.0673(3) 0.4256(2)
C41_2 C 0.7066(4) 0.0428(4) 0.5074(3)
H29_2 H 0.6624 0.0343 0.5362
C42_2 C 0.7080(4) 0.1156(4) 0.4713(3)
C43_2 C 0.7750(3) 0.1269(4) 0.4304(3)
H30_2 H 0.7771 0.1761 0.4056
C44_2 C 0.6421(4) 0.1817(4) 0.4779(3)
C45_2 C 0.5934(4) 0.1893(4) 0.5300(3)
H31_2 H 0.5987 0.1490 0.5620
C46_2 C 0.5364(4) 0.2554(4) 0.5363(3)
H32_2 H 0.5048 0.2596 0.5733
C47_2 C 0.5696(4) 0.3040(4) 0.4409(3)
H33_2 H 0.5612 0.3440 0.4089
C48_2 C 0.6269(4) 0.2413(4) 0.4310(3)
H34_2 H 0.6563 0.2379 0.3929
N11_2 N 0.9451(3) 0.0122(3) 0.3548(2)
N12_2 N 0.9445(3) 0.1487(3) 0.3611(2)
N13_2 N 0.9260(3) 0.2305(3) 0.3822(3)
H35_2 H 0.9742 0.2552 0.3959
H36_2 H 0.9042 0.2614 0.3507
N16_2 N 0.5245(3) 0.3130(3) 0.4925(2)
C17_2 C 0.9572(4) 0.2934(4) 0.9926(3)
H11_2 H 0.9657 0.3376 0.9638
C21_2 C 0.8107(4) 0.4066(4) 0.9700(3)
H13_2 H 0.8510 0.4013 0.9380
C22_2 C 0.7446(4) 0.4636(4) 0.9637(3)
H14_2 H 0.7404 0.4952 0.9267
C1_2 C 0.5875(4) 0.6407(4) 0.1390(3)
H1_2 H 0.5369 0.6122 0.1496
C2_2 C 0.6170(4) 0.7016(4) 0.1790(3)
H2_2 H 0.5867 0.7146 0.2155
C3_2 C 0.6913(4) 0.7438(4) 0.1653(3)
C4_2 C 0.7355(4) 0.7149(4) 0.1140(3)
H3_2 H 0.7901 0.7362 0.1052
C5_2 C 0.7001(4) 0.6561(4) 0.0765(3)
H4_2 H 0.7303 0.6399 0.0406
C6_2 C 0.7228(4) 0.8165(4) 0.2024(3)
C7_2 C 0.6938(4) 0.8318(4) 0.2619(3)
H5_2 H 0.6538 0.7949 0.2801
C8_2 C 0.7233(4) 0.9006(4) 0.2947(3)
H6_2 H 0.7029 0.9107 0.3352
C9_2 C 0.7824(4) 0.9552(4) 0.2692(2)
C10_2 C 0.8120(4) 0.9390(3) 0.2095(2)
C11_2 C 0.7826(4) 0.8704(4) 0.1773(3)
H8_2 H 0.8036 0.8597 0.1371
C12_2 C 0.8735(3) 0.9946(3) 0.1799(2)
N1_2 N 0.6253(3) 0.6196(3) 0.0870(2)
N2_2 N 0.9556(3) 0.9939(3) 0.1837(2)
C39_2 C 0.8349(4) 0.9950(4) 0.4621(3)
H27_2 H 0.8783 0.9539 0.4595
C40_2 C 0.7688(4) 0.9836(4) 0.5013(4)
H28_2 H 0.7659 0.9334 0.5250
N15_2 N 0.9755(3) 0.8130(3) 0.2575(2)
C1_3 C 0.1407(4) 0.9125(4) 0.3890(3)
H1_3 H 0.1122 0.9631 0.3996
C2_3 C 0.2016(4) 0.8830(4) 0.4290(3)
H2_3 H 0.2146 0.9133 0.4655
C3_3 C 0.2438(4) 0.8087(4) 0.4153(3)
C4_3 C 0.2149(4) 0.7645(4) 0.3640(3)
H3_3 H 0.2362 0.7099 0.3552
C5_3 C 0.1561(4) 0.7999(4) 0.3265(3)
H4_3 H 0.1399 0.7697 0.2906
C6_3 C 0.3165(4) 0.7772(4) 0.4524(3)
C7_3 C 0.3318(4) 0.8062(4) 0.5119(3)
H5_3 H 0.2949 0.8462 0.5301
C8_3 C 0.4006(4) 0.7767(4) 0.5447(3)
H6_3 H 0.4107 0.7971 0.5852
C9_3 C 0.4552(4) 0.7176(4) 0.5192(2)
H7_3 H 0.5024 0.6978 0.5418
C10_3 C 0.4390(3) 0.6880(4) 0.4595(2)
C11_3 C 0.3704(4) 0.7174(4) 0.4273(3)
H8_3 H 0.3597 0.6964 0.3871
C12_3 C 0.4946(3) 0.6265(3) 0.4299(2)
C13_3 C 0.5917(3) 0.5755(3) 0.3683(2)
C14_3 C 0.6614(3) 0.5673(3) 0.3244(2)
C15_3 C 0.6651(4) 0.4950(4) 0.2879(3)
H9_3 H 0.6217 0.4539 0.2905
C16_2 C 0.7312(4) 0.4836(4) 0.2487(4)
H10_2 H 0.7341 0.4334 0.2250
C17_3 C 0.7934(4) 0.5428(4) 0.2426(3)
H11_3 H 0.8376 0.5343 0.2138
C18_3 C 0.7920(4) 0.6156(4) 0.2787(3)
C19_3 C 0.7250(3) 0.6269(4) 0.3196(3)
H12_3 H 0.7229 0.6761 0.3444
C20_3 C 0.8579(4) 0.6817(4) 0.2721(3)
C21_3 C 0.9066(4) 0.6893(4) 0.2200(3)
H13_3 H 0.9013 0.6490 0.1880
C22_3 C 0.9636(4) 0.7554(4) 0.2137(3)
H14_3 H 0.9952 0.7596 0.1767
C23_3 C 0.9304(4) 0.8040(4) 0.3091(3)
H15_3 H 0.9388 0.8440 0.3411
C24_3 C 0.8731(4) 0.7413(4) 0.3190(3)
H16_3 H 0.8437 0.7379 0.3571
N2_3 N 0.4939(3) 0.5444(3) 0.4337(2)
N3_3 N 0.5549(3) 0.5122(3) 0.3952(2)
N4_3 N 0.5555(3) 0.6487(3) 0.3889(2)
N5_3 N 0.5740(3) 0.7305(3) 0.3678(3)
H17_3 H 0.5258 0.7552 0.3541
H18_3 H 0.5958 0.7614 0.3993
C25_3 C 0.9125(4) 0.1407(4) 0.6110(3)
H19_3 H 0.9631 0.1122 0.6004
C26_3 C 0.8830(4) 0.2016(4) 0.5710(3)
H20_3 H 0.9133 0.2146 0.5345
C27_3 C 0.8087(4) 0.2438(4) 0.5847(3)
C28_3 C 0.7645(4) 0.2149(4) 0.6360(3)
H21_3 H 0.7099 0.2362 0.6448
C29_3 C 0.7999(4) 0.1561(4) 0.6735(3)
H22_3 H 0.7697 0.1399 0.7094
C30_3 C 0.7772(4) 0.3165(4) 0.5476(3)
C31_3 C 0.8062(4) 0.3318(4) 0.4881(3)
H23_3 H 0.8462 0.2949 0.4699
C32_3 C 0.7767(4) 0.4006(4) 0.4553(3)
H24_3 H 0.7971 0.4107 0.4148
C33_3 C 0.7176(4) 0.4552(4) 0.4808(2)
H25_3 H 0.6978 0.5024 0.4582
C34_3 C 0.6880(4) 0.4390(3) 0.5405(2)
C35_3 C 0.7174(4) 0.3704(4) 0.5727(3)
H26_3 H 0.6964 0.3597 0.6129
C36_3 C 0.6265(3) 0.4946(3) 0.5701(2)
C37_3 C 0.5755(3) 0.5917(3) 0.6317(2)
C38_3 C 0.5673(3) 0.6614(3) 0.6756(2)
C39_3 C 0.4950(4) 0.6651(4) 0.7121(3)
H27_3 H 0.4539 0.6217 0.7095
C40_3 C 0.4836(4) 0.7312(4) 0.7513(4)
H28_3 H 0.4334 0.7341 0.7750
C41_3 C 0.5428(4) 0.7934(4) 0.7574(3)
H29_3 H 0.5343 0.8376 0.7862
C42_3 C 0.6156(4) 0.7920(4) 0.7213(3)
C43_3 C 0.6269(4) 0.7250(3) 0.6804(3)
H30_3 H 0.6761 0.7229 0.6556
C44_3 C 0.6817(4) 0.8579(4) 0.7279(3)
C45_3 C 0.6893(4) 0.9066(4) 0.7800(3)
H31_3 H 0.6490 0.9013 0.8120
C46_3 C 0.7554(4) 0.9636(4) 0.7863(3)
H32_3 H 0.7596 0.9952 0.8233
C47_3 C 0.8040(4) 0.9304(4) 0.6909(3)
H33_3 H 0.8440 0.9388 0.6589
C48_3 C 0.7413(4) 0.8731(4) 0.6810(3)
H34_3 H 0.7379 0.8437 0.6429
N10_3 N 0.5444(3) 0.4939(3) 0.5663(2)
N11_3 N 0.5122(3) 0.5549(3) 0.6048(2)
N12_3 N 0.6487(3) 0.5555(3) 0.6111(2)
N13_3 N 0.7305(3) 0.5740(3) 0.6322(3)
H35_3 H 0.7552 0.5258 0.6459
H36_3 H 0.7614 0.5958 0.6007
C7_4 C 0.6682(4) 0.1938(4) 0.0119(3)
H5_4 H 0.7051 0.1538 0.0301
C8_4 C 0.5994(4) 0.2233(4) 0.0447(3)
H6_4 H 0.5893 0.2029 0.0852
C9_4 C 0.5448(4) 0.2824(4) 0.0192(2)
H7_4 H 0.4976 0.3022 0.0418
C25_4 C 0.0875(4) 0.8593(4) 0.1110(3)
H19_4 H 0.0369 0.8878 0.1004
C26_4 C 0.1170(4) 0.7984(4) 0.0710(3)
H20_4 H 0.0867 0.7854 0.0345
C27_4 C 0.1913(4) 0.7562(4) 0.0847(3)
C28_4 C 0.2355(4) 0.7851(4) 0.1360(3)
H21_4 H 0.2901 0.7638 0.1448
C29_4 C 0.2001(4) 0.8439(4) 0.1735(3)
H22_4 H 0.2303 0.8601 0.2094
C30_4 C 0.2228(4) 0.6835(4) 0.0476(3)
C34_4 C 0.3120(4) 0.5610(3) 0.0405(2)
C35_4 C 0.2826(4) 0.6296(4) 0.0727(3)
H26_4 H 0.3036 0.6403 0.1129
C36_4 C 0.3735(3) 0.5054(3) 0.0701(2)
C37_4 C 0.4245(3) 0.4083(3) 0.1317(2)
C38_4 C 0.4327(3) 0.3386(3) 0.1756(2)
C39_4 C 0.5050(4) 0.3349(4) 0.2121(3)
H27_4 H 0.5461 0.3783 0.2095
C40_4 C 0.5164(4) 0.2688(4) 0.2513(4)
H28_4 H 0.5666 0.2659 0.2750
C41_4 C 0.4572(4) 0.2066(4) 0.2574(3)
H29_4 H 0.4657 0.1624 0.2862
C42_4 C 0.3844(4) 0.2080(4) 0.2213(3)
C43_4 C 0.3731(4) 0.2750(3) 0.1804(3)
H30_4 H 0.3239 0.2771 0.1556
C44_4 C 0.3183(4) 0.1421(4) 0.2279(3)
C45_4 C 0.3107(4) 0.0934(4) 0.2800(3)
H31_4 H 0.3510 0.0987 0.3120
C46_4 C 0.2446(4) 0.0364(4) 0.2863(3)
H32_4 H 0.2404 0.0048 0.3233
C47_4 C 0.1960(4) 0.0696(4) 0.1909(3)
H33_4 H 0.1560 0.0612 0.1589
C48_4 C 0.2587(4) 0.1269(4) 0.1810(3)
H34_4 H 0.2621 0.1563 0.1429
N10_4 N 0.4556(3) 0.5061(3) 0.0663(2)
N11_4 N 0.4878(3) 0.4451(3) 0.1048(2)
N12_4 N 0.3513(3) 0.4445(3) 0.1111(2)
N13_4 N 0.2695(3) 0.4260(3) 0.1322(3)
H35_4 H 0.2448 0.4742 0.1459
H36_4 H 0.2386 0.4042 0.1007
C1_4 C 0.8593(4) 0.0875(4) 0.8890(3)
H1_4 H 0.8878 0.0369 0.8996
C2_4 C 0.7984(4) 0.1170(4) 0.9290(3)
H2_4 H 0.7854 0.0867 0.9655
C3_4 C 0.7562(4) 0.1913(4) 0.9153(3)
C4_4 C 0.7851(4) 0.2355(4) 0.8640(3)
H3_4 H 0.7638 0.2901 0.8552
C5_4 C 0.8439(4) 0.2001(4) 0.8265(3)
H4_4 H 0.8601 0.2303 0.7906
C6_4 C 0.6835(4) 0.2228(4) 0.9524(3)
C10_4 C 0.5610(3) 0.3120(4) 0.9595(2)
C11_4 C 0.6296(4) 0.2826(4) 0.9273(3)
H8_4 H 0.6403 0.3036 0.8871
C12_4 C 0.5054(3) 0.3735(3) 0.9299(2)
C13_4 C 0.4083(3) 0.4245(3) 0.8683(2)
C14_4 C 0.3386(3) 0.4327(3) 0.8244(2)
C15_4 C 0.3349(4) 0.5050(4) 0.7879(3)
H9_4 H 0.3783 0.5461 0.7905
C16_3 C 0.2688(4) 0.5164(4) 0.7487(4)
H10_3 H 0.2659 0.5666 0.7250
C17_4 C 0.2066(4) 0.4572(4) 0.7426(3)
H11_4 H 0.1624 0.4657 0.7138
C18_4 C 0.2080(4) 0.3844(4) 0.7787(3)
C19_4 C 0.2750(3) 0.3731(4) 0.8196(3)
H12_4 H 0.2771 0.3239 0.8444
C20_4 C 0.1421(4) 0.3183(4) 0.7721(3)
C21_4 C 0.0934(4) 0.3107(4) 0.7200(3)
H13_4 H 0.0987 0.3510 0.6880
C22_4 C 0.0364(4) 0.2446(4) 0.7137(3)
H14_4 H 0.0048 0.2404 0.6767
C23_4 C 0.0696(4) 0.1960(4) 0.8091(3)
H15_4 H 0.0612 0.1560 0.8411
C24_4 C 0.1269(4) 0.2587(4) 0.8190(3)
H16_4 H 0.1563 0.2621 0.8571
N2_4 N 0.5061(3) 0.4556(3) 0.9337(2)
N3_4 N 0.4451(3) 0.4878(3) 0.8952(2)
N4_4 N 0.4445(3) 0.3513(3) 0.8889(2)
N5_4 N 0.4260(3) 0.2695(3) 0.8678(3)
H17_4 H 0.4742 0.2448 0.8541
H18_4 H 0.4042 0.2386 0.8993
C31_4 C 0.1938(4) 0.6682(4) 0.9881(3)
H23_4 H 0.1538 0.7051 0.9699
C32_4 C 0.2233(4) 0.5994(4) 0.9553(3)
H24_4 H 0.2029 0.5893 0.9148
C33_4 C 0.2824(4) 0.5448(4) 0.9808(2)
H25_4 H 0.3022 0.4976 0.9582
C16_4 C 0.0164(4) 0.2312(4) 0.9987(4)
H10_4 H 0.0666 0.2341 0.9750
Cl1 Cl 0.37918(13) 0.62082(13) 0.2500
O1 O 0.3872(13) 0.6770(9) 0.2060(8)
O2 O 0.3652(16) 0.5581(8) 0.2155(5)
O3 O 0.3230(9) 0.6128(13) 0.2940(8)
O4 O 0.4419(8) 0.6348(16) 0.2845(5)
Cl1_2 Cl 0.62082(13) 0.37918(13) 0.7500
O1_2 O 0.6128(13) 0.3230(9) 0.7060(8)
O2_2 O 0.6348(16) 0.4419(8) 0.7155(5)
O3_2 O 0.6770(9) 0.3872(13) 0.7940(8)
O4_2 O 0.5581(8) 0.3652(16) 0.7845(5)
Cl1_3 Cl 0.87918(13) 0.87918(13) -0.0000
O3_3 O 0.8872(13) 0.8230(9) 0.0440(8)
O4_3 O 0.8652(16) 0.9419(8) 0.0345(5)
Cl1_4 Cl 0.87918(13) 0.87918(13) 1.0000
O1_3 O 0.8230(9) 0.8872(13) 0.9560(8)
O2_3 O 0.9419(8) 0.8652(16) 0.9655(5)
Cl1_5 Cl 0.12082(13) 0.12082(13) 0.5000
O1_4 O 0.1770(9) 0.1128(13) 0.4560(8)
O2_4 O 0.0581(8) 0.1348(16) 0.4655(5)
O3_4 O 0.1128(13) 0.1770(9) 0.5440(8)
O4_4 O 0.1348(16) 0.0581(8) 0.5345(5)
loop_
_geom_bond_atom_site_label_1
_geom_bond_atom_site_label_2
_geom_bond_site_symmetry_1
_geom_bond_site_symmetry_2
H28 C40 1_555 1_555
C1 H1 1_555 1_555
C2 C1 1_555 1_555
H2 C2 1_555 1_555
C3 C2 1_555 1_555
C4 C3 1_555 1_555
H3 C4 1_555 1_555
C5 C4 1_555 1_555
H4 C5 1_555 1_555
C6 C3 1_555 1_555
C7 C6 1_555 1_555
H5 C7 1_555 1_555
C8 C7 1_555 1_555
H6 C8 1_555 1_555
C9 C8 1_555 1_555
C10 C9 1_555 1_555
C11 C6 1_555 1_555
H8 C11 1_555 1_555
C12 C10 1_555 1_555
N1 C1 1_555 1_555
N2 C12 1_555 1_555
C39 H27 1_555 1_555
Cd2 N1 1_555 1_555
C5 N1 1_555 1_555
C10 C11 1_555 1_555
H29 C41 1_555 1_555
H31 C45 1_555 1_555
C46 C45 1_555 1_555
H32 C46 1_555 1_555
C13 C14 1_555 1_555
H11 C17 1_555 1_555
C18 C17 1_555 1_555
C19 C14 1_555 1_555
H12 C19 1_555 1_555
C20 C18 1_555 1_555
C21 C20 1_555 1_555
H13 C21 1_555 1_555
C22 C21 1_555 1_555
H14 C22 1_555 1_555
C23 H15 1_555 1_555
C24 C20 1_555 1_555
H16 C24 1_555 1_555
N3 C13 1_555 1_555
N5 N4 1_555 1_555
H17 N5 1_555 1_555
H18 N5 1_555 1_555
N6 C22 1_555 1_555
C37 C38 1_555 1_555
C43 C38 1_555 1_555
H30 C43 1_555 1_555
C44 C42 1_555 1_555
C47 H33 1_555 1_555
C48 C44 1_555 1_555
H34 C48 1_555 1_555
Cd2 N6 1_555 1_555
Cd5_2 N16 1_555 1_555
N11 C37 1_555 1_555
N13 N12 1_555 1_555
H35 N13 1_555 1_555
H36 N13 1_555 1_555
C13 N4 1_555 1_555
C18 C19 1_555 1_555
C23 C24 1_555 1_555
C23 N6 1_555 1_555
C37 N12 1_555 1_555
C42 C43 1_555 1_555
C47 C48 1_555 1_555
C47 N16 1_555 1_555
N7 Cd1 1_555 1_555
N8 Cd1 1_555 1_555
C15 H9 1_555 1_555
C16 C15 1_555 1_555
H10 C16 1_555 1_555
C25 H19 1_555 1_555
C26 C25 1_555 1_555
H20 C26 1_555 1_555
C27 C26 1_555 1_555
C28 C27 1_555 1_555
H21 C28 1_555 1_555
C29 C28 1_555 1_555
H22 C29 1_555 1_555
C30 C27 1_555 1_555
C31 C30 1_555 1_555
H23 C31 1_555 1_555
C32 C31 1_555 1_555
H24 C32 1_555 1_555
C33 C32 1_555 1_555
C34 C33 1_555 1_555
C35 C30 1_555 1_555
H26 C35 1_555 1_555
C36 C34 1_555 1_555
Cd5_2 N9 1_555 1_555
N9 C25 1_555 1_555
C29 N9 1_555 1_555
C34 C35 1_555 1_555
C36 N10 1_555 1_555
C15_2 H9_2 1_555 1_555
C25_2 H19_2 1_555 1_555
C26_2 C25_2 1_555 1_555
H20_2 C26_2 1_555 1_555
C27_2 C26_2 1_555 1_555
C28_2 C27_2 1_555 1_555
H21_2 C28_2 1_555 1_555
C29_2 C28_2 1_555 1_555
H22_2 C29_2 1_555 1_555
C30_2 C27_2 1_555 1_555
C31_2 C30_2 1_555 1_555
H23_2 C31_2 1_555 1_555
C32_2 C31_2 1_555 1_555
H24_2 C32_2 1_555 1_555
C33_2 C32_2 1_555 1_555
C34_2 C33_2 1_555 1_555
C35_2 C30_2 1_555 1_555
H26_2 C35_2 1_555 1_555
C36_2 C34_2 1_555 1_555
Cd2 N9_2 1_555 1_555
N9_2 C25_2 1_555 1_555
C29_2 N9_2 1_555 1_555
C34_2 C35_2 1_555 1_555
C36_2 N10_2 1_555 1_555
N7_2 Cd1_2 1_555 1_555
N8_2 Cd1_2 1_555 1_555
C13_2 C14_2 1_555 1_555
C19_2 C14_2 1_555 1_555
H12_2 C19_2 1_555 1_555
C20_2 C18_2 1_555 1_555
C23_2 H15_2 1_555 1_555
C24_2 C20_2 1_555 1_555
H16_2 C24_2 1_555 1_555
N3_2 C13_2 1_555 1_555
N5_2 N4_2 1_555 1_555
H17_2 N5_2 1_555 1_555
H18_2 N5_2 1_555 1_555
C37_2 C38_2 1_555 1_555
H29_2 C41_2 1_555 1_555
C42_2 C41_2 1_555 1_555
C43_2 C38_2 1_555 1_555
H30_2 C43_2 1_555 1_555
C44_2 C42_2 1_555 1_555
C45_2 C44_2 1_555 1_555
H31_2 C45_2 1_555 1_555
C46_2 C45_2 1_555 1_555
H32_2 C46_2 1_555 1_555
C47_2 H33_2 1_555 1_555
C48_2 C44_2 1_555 1_555
H34_2 C48_2 1_555 1_555
Cd5 N6_2 1_555 1_555
Cd2 N16_2 1_555 1_555
N11_2 C37_2 1_555 1_555
N13_2 N12_2 1_555 1_555
H35_2 N13_2 1_555 1_555
H36_2 N13_2 1_555 1_555
N16_2 C46_2 1_555 1_555
C13_2 N4_2 1_555 1_555
C18_2 C19_2 1_555 1_555
C23_2 C24_2 1_555 1_555
C23_2 N6_2 1_555 1_555
C37_2 N12_2 1_555 1_555
C42_2 C43_2 1_555 1_555
C47_2 C48_2 1_555 1_555
C47_2 N16_2 1_555 1_555
H11_2 C17_2 1_555 1_555
H13_2 C21_2 1_555 1_555
C22_2 C21_2 1_555 1_555
H14_2 C22_2 1_555 1_555
C1_2 H1_2 1_555 1_555
C2_2 C1_2 1_555 1_555
H2_2 C2_2 1_555 1_555
C3_2 C2_2 1_555 1_555
C4_2 C3_2 1_555 1_555
H3_2 C4_2 1_555 1_555
C5_2 C4_2 1_555 1_555
H4_2 C5_2 1_555 1_555
C6_2 C3_2 1_555 1_555
C7_2 C6_2 1_555 1_555
H5_2 C7_2 1_555 1_555
C8_2 C7_2 1_555 1_555
H6_2 C8_2 1_555 1_555
C9_2 C8_2 1_555 1_555
C10_2 C9_2 1_555 1_555
C11_2 C6_2 1_555 1_555
H8_2 C11_2 1_555 1_555
C12_2 C10_2 1_555 1_555
N1_2 C1_2 1_555 1_555
N2_2 C12_2 1_555 1_555
C39_2 H27_2 1_555 1_555
C40_2 C39_2 1_555 1_555
H28_2 C40_2 1_555 1_555
Cd5 N1_2 1_555 1_555
C5_2 N1_2 1_555 1_555
C10_2 C11_2 1_555 1_555
C1_3 H1_3 1_555 1_555
C2_3 C1_3 1_555 1_555
H2_3 C2_3 1_555 1_555
C3_3 C2_3 1_555 1_555
C4_3 C3_3 1_555 1_555
H3_3 C4_3 1_555 1_555
C5_3 C4_3 1_555 1_555
H4_3 C5_3 1_555 1_555
C6_3 C3_3 1_555 1_555
C7_3 C6_3 1_555 1_555
H5_3 C7_3 1_555 1_555
C8_3 C7_3 1_555 1_555
H6_3 C8_3 1_555 1_555
C9_3 C8_3 1_555 1_555
H7_3 C9_3 1_555 1_555
C10_3 C9_3 1_555 1_555
C11_3 C6_3 1_555 1_555
H8_3 C11_3 1_555 1_555
C12_3 C10_3 1_555 1_555
C13_3 C14_3 1_555 1_555
C14_3 C15_3 1_555 1_555
C15_3 H9_3 1_555 1_555
C16_2 C15_3 1_555 1_555
H10_2 C16_2 1_555 1_555
C17_3 C16_2 1_555 1_555
H11_3 C17_3 1_555 1_555
C18_3 C17_3 1_555 1_555
C19_3 C14_3 1_555 1_555
H12_3 C19_3 1_555 1_555
C20_3 C18_3 1_555 1_555
C21_3 C20_3 1_555 1_555
H13_3 C21_3 1_555 1_555
C22_3 C21_3 1_555 1_555
H14_3 C22_3 1_555 1_555
C23_3 H15_3 1_555 1_555
C24_3 C20_3 1_555 1_555
H16_3 C24_3 1_555 1_555
Cd2 N2_3 1_555 1_555
N8_2 C1_3 1_555 1_555
N2_3 C12_3 1_555 1_555
N3_3 C13_3 1_555 1_555
N4_3 C12_3 1_555 1_555
N5_3 N4_3 1_555 1_555
H17_3 N5_3 1_555 1_555
H18_3 N5_3 1_555 1_555
N15_2 C22_3 1_555 1_555
C25_3 H19_3 1_555 1_555
C26_3 C25_3 1_555 1_555
H20_3 C26_3 1_555 1_555
C27_3 C26_3 1_555 1_555
C28_3 C27_3 1_555 1_555
H21_3 C28_3 1_555 1_555
C29_3 C28_3 1_555 1_555
H22_3 C29_3 1_555 1_555
C30_3 C27_3 1_555 1_555
C31_3 C30_3 1_555 1_555
H23_3 C31_3 1_555 1_555
C32_3 C31_3 1_555 1_555
H24_3 C32_3 1_555 1_555
C33_3 C32_3 1_555 1_555
H25_3 C33_3 1_555 1_555
C34_3 C33_3 1_555 1_555
C35_3 C30_3 1_555 1_555
H26_3 C35_3 1_555 1_555
C36_3 C34_3 1_555 1_555
C37_3 C38_3 1_555 1_555
C38_3 C39_3 1_555 1_555
C39_3 H27_3 1_555 1_555
C40_3 C39_3 1_555 1_555
H28_3 C40_3 1_555 1_555
C41_3 C40_3 1_555 1_555
H29_3 C41_3 1_555 1_555
C42_3 C41_3 1_555 1_555
C43_3 C38_3 1_555 1_555
H30_3 C43_3 1_555 1_555
C44_3 C42_3 1_555 1_555
C45_3 C44_3 1_555 1_555
H31_3 C45_3 1_555 1_555
C46_3 C45_3 1_555 1_555
H32_3 C46_3 1_555 1_555
C47_3 H33_3 1_555 1_555
C48_3 C44_3 1_555 1_555
H34_3 C48_3 1_555 1_555
N7 C25_3 1_555 1_555
N10_3 Cd2 1_555 1_555
N11_3 C37_3 1_555 1_555
N12_3 C36_3 1_555 1_555
N13_3 N12_3 1_555 1_555
H35_3 N13_3 1_555 1_555
H36_3 N13_3 1_555 1_555
N14 C46_3 1_555 1_555
C5_3 N8_2 1_555 1_555
C10_3 C11_3 1_555 1_555
C13_3 N4_3 1_555 1_555
C18_3 C19_3 1_555 1_555
C23_3 C24_3 1_555 1_555
C23_3 N15_2 1_555 1_555
N2_3 N3_3 1_555 1_555
C29_3 N7 1_555 1_555
C34_3 C35_3 1_555 1_555
C36_3 N10_3 1_555 1_555
C37_3 N12_3 1_555 1_555
C42_3 C43_3 1_555 1_555
C47_3 C48_3 1_555 1_555
C47_3 N14 1_555 1_555
N10_3 N11_3 1_555 1_555
H5_4 C7_4 1_555 1_555
C8_4 C7_4 1_555 1_555
H6_4 C8_4 1_555 1_555
C9_4 C8_4 1_555 1_555
H7_4 C9_4 1_555 1_555
C25_4 H19_4 1_555 1_555
C26_4 C25_4 1_555 1_555
H20_4 C26_4 1_555 1_555
C27_4 C26_4 1_555 1_555
C28_4 C27_4 1_555 1_555
H21_4 C28_4 1_555 1_555
C29_4 C28_4 1_555 1_555
H22_4 C29_4 1_555 1_555
C30_4 C27_4 1_555 1_555
C35_4 C30_4 1_555 1_555
H26_4 C35_4 1_555 1_555
C36_4 C34_4 1_555 1_555
C37_4 C38_4 1_555 1_555
C38_4 C39_4 1_555 1_555
C39_4 H27_4 1_555 1_555
C40_4 C39_4 1_555 1_555
H28_4 C40_4 1_555 1_555
C41_4 C40_4 1_555 1_555
H29_4 C41_4 1_555 1_555
C42_4 C41_4 1_555 1_555
C43_4 C38_4 1_555 1_555
H30_4 C43_4 1_555 1_555
C44_4 C42_4 1_555 1_555
C45_4 C44_4 1_555 1_555
H31_4 C45_4 1_555 1_555
C46_4 C45_4 1_555 1_555
H32_4 C46_4 1_555 1_555
C47_4 H33_4 1_555 1_555
C48_4 C44_4 1_555 1_555
H34_4 C48_4 1_555 1_555
N7_2 C25_4 1_555 1_555
N10_4 Cd5 1_555 1_555
N11_4 C37_4 1_555 1_555
N12_4 C36_4 1_555 1_555
N13_4 N12_4 1_555 1_555
H35_4 N13_4 1_555 1_555
H36_4 N13_4 1_555 1_555
N14_2 C46_4 1_555 1_555
C29_4 N7_2 1_555 1_555
C34_4 C35_4 1_555 1_555
C36_4 N10_4 1_555 1_555
C37_4 N12_4 1_555 1_555
C42_4 C43_4 1_555 1_555
C47_4 C48_4 1_555 1_555
C47_4 N14_2 1_555 1_555
N10_4 N11_4 1_555 1_555
C1_4 H1_4 1_555 1_555
C2_4 C1_4 1_555 1_555
H2_4 C2_4 1_555 1_555
C3_4 C2_4 1_555 1_555
C4_4 C3_4 1_555 1_555
H3_4 C4_4 1_555 1_555
C5_4 C4_4 1_555 1_555
H4_4 C5_4 1_555 1_555
C6_4 C3_4 1_555 1_555
C11_4 C6_4 1_555 1_555
H8_4 C11_4 1_555 1_555
C12_4 C10_4 1_555 1_555
C13_4 C14_4 1_555 1_555
C14_4 C15_4 1_555 1_555
C15_4 H9_4 1_555 1_555
C16_3 C15_4 1_555 1_555
H10_3 C16_3 1_555 1_555
C17_4 C16_3 1_555 1_555
H11_4 C17_4 1_555 1_555
C18_4 C17_4 1_555 1_555
C19_4 C14_4 1_555 1_555
H12_4 C19_4 1_555 1_555
C20_4 C18_4 1_555 1_555
C21_4 C20_4 1_555 1_555
H13_4 C21_4 1_555 1_555
C22_4 C21_4 1_555 1_555
H14_4 C22_4 1_555 1_555
C23_4 H15_4 1_555 1_555
C24_4 C20_4 1_555 1_555
H16_4 C24_4 1_555 1_555
Cd5_2 N2_4 1_555 1_555
N8 C1_4 1_555 1_555
N2_4 C12_4 1_555 1_555
N3_4 C13_4 1_555 1_555
N4_4 C12_4 1_555 1_555
N5_4 N4_4 1_555 1_555
H17_4 N5_4 1_555 1_555
H18_4 N5_4 1_555 1_555
N15 C22_4 1_555 1_555
H23_4 C31_4 1_555 1_555
C32_4 C31_4 1_555 1_555
H24_4 C32_4 1_555 1_555
C33_4 C32_4 1_555 1_555
H25_4 C33_4 1_555 1_555
C5_4 N8 1_555 1_555
C10_4 C11_4 1_555 1_555
C13_4 N4_4 1_555 1_555
C18_4 C19_4 1_555 1_555
C23_4 C24_4 1_555 1_555
C23_4 N15 1_555 1_555
N2_4 N3_4 1_555 1_555
H10_4 C16_4 1_555 1_555
Cl1 O1 1_555 1_555
O2 Cl1 1_555 1_555
O3 Cl1 1_555 1_555
O4 Cl1 1_555 1_555
Cl1_2 O1_2 1_555 1_555
O2_2 Cl1_2 1_555 1_555
O3_2 Cl1_2 1_555 1_555
O4_2 Cl1_2 1_555 1_555
O3_3 Cl1_3 1_555 1_555
O4_3 Cl1_3 1_555 1_555
Cl1_4 O1_3 1_555 1_555
O2_3 Cl1_4 1_555 1_555
Cl1_5 O1_4 1_555 1_555
O2_4 Cl1_5 1_555 1_555
O3_4 Cl1_5 1_555 1_555
O4_4 Cl1_5 1_555 1_555

#END
