
###############################################################################
#
# This file contains modified crystal structure data generated from the
# MOF subset of the Cambridge Structural Database (CSD) v543 
# hosted by the Cambridge Crystallographic Data Centre (CCDC).
#
# This work is licensed under the Creative Commons
# Attribution-NonCommercial-ShareAlike 4.0 International License.
# To view a copy of this license, visit
# http://creativecommons.org/licenses/by-nc-sa/4.0/
# or send a letter to
# Creative Commons, PO Box 1866, Mountain View, CA 94042, USA.
#
# CIF created using the CSD Python API on 29 September 2022
# The structure has been converted into the P1 space group
# The structure has a 3D framework
# The original CSD entry OKIXIQ01 is in the tetragonal crystal system
# The original CSD entry OKIXIQ01 is in a Sohncke space group
# The framework has been calculated to contain at least 10.0% void space
# The void calculation uses a probe of radius 1.32A, grid spacing 0.4
# The framework is charged, counterions have been retained in the structure
#
###############################################################################

data_OKIXIQ01
_chemical_formula_moiety         '(C192 H144 Cd3 Cl5 N48 O16 2+)n'
_symmetry_cell_setting           triclinic
_symmetry_space_group_name_H-M   'P 1'
_symmetry_Int_Tables_number      1
_space_group_name_Hall           'P 1'
loop_
_symmetry_equiv_pos_site_id
_symmetry_equiv_pos_as_xyz
1 x,y,z
_cell_length_a                   15.8725(12)
_cell_length_b                   15.8725(12)
_cell_length_c                   21.673(3)
_cell_angle_alpha                90
_cell_angle_beta                 90
_cell_angle_gamma                90
_cell_volume                     5460.21
loop_
_atom_site_label
_atom_site_type_symbol
_atom_site_fract_x
_atom_site_fract_y
_atom_site_fract_z
Cd3 Cd 0.05908(2) 0.94092(2) 0.7500
Cd5 Cd 0.94092(2) 0.05908(2) 0.2500
C1 C 0.9637(4) 0.7547(4) 0.7864(3)
H1 H 0.9952 0.7589 0.8236
C2 C 0.9071(4) 0.6885(4) 0.7798(3)
H2 H 0.9018 0.6479 0.8118
C3 C 0.8586(3) 0.6812(3) 0.7275(3)
C4 C 0.8732(4) 0.7415(4) 0.6811(3)
H3 H 0.8435 0.7384 0.6431
C5 C 0.9304(4) 0.8045(4) 0.6909(3)
H4 H 0.9384 0.8449 0.6591
C6 C 0.7918(3) 0.6153(4) 0.7213(3)
C7 C 0.7940(3) 0.5429(4) 0.7573(3)
H5 H 0.8386 0.5345 0.7859
C8 C 0.7311(4) 0.4832(4) 0.7515(4)
H6 H 0.7339 0.4333 0.7756
C9 C 0.6649(4) 0.4943(4) 0.7119(3)
H7 H 0.6218 0.4530 0.7090
C10 C 0.6614(3) 0.5670(3) 0.6758(2)
C11 C 0.7257(3) 0.6269(3) 0.6804(3)
H8 H 0.7240 0.6759 0.6552
C12 C 0.5916(3) 0.5750(3) 0.6317(2)
C13 C 0.4950(3) 0.6260(3) 0.5703(2)
C14 C 0.4391(3) 0.6879(3) 0.5403(2)
C15 C 0.4554(4) 0.7178(4) 0.4810(3)
H9 H 0.5031 0.6984 0.4587
C16 C 0.4008(4) 0.7764(4) 0.4549(3)
H10 H 0.4109 0.7964 0.4143
C17 C 0.3318(3) 0.8061(3) 0.4875(3)
H11 H 0.2952 0.8465 0.4694
C18 C 0.3160(3) 0.7766(4) 0.5470(3)
C19 C 0.3701(4) 0.7171(4) 0.5721(3)
H12 H 0.3592 0.6960 0.6123
C20 C 0.2435(4) 0.8085(4) 0.5846(3)
C21 C 0.2145(4) 0.7639(4) 0.6358(3)
H13 H 0.2357 0.7092 0.6445
C22 C 0.1556(4) 0.7994(4) 0.6731(3)
H14 H 0.1389 0.7690 0.7088
C23 C 0.1406(4) 0.9124(4) 0.6108(3)
H15 H 0.1124 0.9633 0.6004
C24 C 0.2016(4) 0.8826(3) 0.5704(3)
H16 H 0.2143 0.9125 0.5336
Cd1 Cd 0.44092(2) 0.44092(2) 0.5000
N1 N 0.9757(3) 0.8125(3) 0.7426(2)
N2 N 0.5548(3) 0.5120(3) 0.6050(2)
N3 N 0.4937(3) 0.5439(3) 0.5666(2)
N4 N 0.5554(3) 0.6487(3) 0.6110(2)
N5 N 0.5740(3) 0.7299(3) 0.6325(3)
H17 H 0.5907 0.7624 0.6002
H18 H 0.5272 0.7527 0.6499
N6 N 0.1194(3) 0.8744(3) 0.6628(2)
C25 C 0.7547(4) 0.9637(4) 0.2136(3)
H19 H 0.7589 0.9952 0.1764
C26 C 0.6885(4) 0.9071(4) 0.2202(3)
H20 H 0.6479 0.9018 0.1882
C27 C 0.6812(3) 0.8586(3) 0.2725(3)
C28 C 0.7415(4) 0.8732(4) 0.3189(3)
H21 H 0.7384 0.8435 0.3569
C29 C 0.8045(4) 0.9304(4) 0.3091(3)
H22 H 0.8449 0.9384 0.3409
C30 C 0.6153(4) 0.7918(3) 0.2787(3)
C31 C 0.5429(4) 0.7940(3) 0.2427(3)
H23 H 0.5345 0.8386 0.2141
C32 C 0.4832(4) 0.7311(4) 0.2485(4)
H24 H 0.4333 0.7339 0.2244
C33 C 0.4943(4) 0.6649(4) 0.2881(3)
H25 H 0.4530 0.6218 0.2910
C34 C 0.5670(3) 0.6614(3) 0.3242(2)
C35 C 0.6269(3) 0.7257(3) 0.3196(3)
H26 H 0.6759 0.7240 0.3448
C36 C 0.5750(3) 0.5916(3) 0.3683(2)
C37 C 0.6260(3) 0.4950(3) 0.4297(2)
C38 C 0.6879(3) 0.4391(3) 0.4597(2)
C39 C 0.7178(4) 0.4554(4) 0.5190(3)
H27 H 0.6984 0.5031 0.5413
C40 C 0.7764(4) 0.4008(4) 0.5451(3)
H28 H 0.7964 0.4109 0.5857
C41 C 0.8061(3) 0.3318(3) 0.5125(3)
H29 H 0.8465 0.2952 0.5306
C42 C 0.7766(4) 0.3160(3) 0.4530(3)
C43 C 0.7171(4) 0.3701(4) 0.4279(3)
H30 H 0.6960 0.3592 0.3877
C44 C 0.8085(4) 0.2435(4) 0.4154(3)
C45 C 0.7639(4) 0.2145(4) 0.3642(3)
H31 H 0.7092 0.2357 0.3555
C46 C 0.7994(4) 0.1556(4) 0.3269(3)
H32 H 0.7690 0.1389 0.2912
C47 C 0.9124(4) 0.1406(4) 0.3892(3)
H33 H 0.9633 0.1124 0.3996
C48 C 0.8826(3) 0.2016(4) 0.4296(3)
H34 H 0.9125 0.2143 0.4664
N7 N 0.5243(3) 0.3125(3) 0.5074(2)
N8 N 0.3125(3) 0.5243(3) 0.4926(2)
N9 N 0.8125(3) 0.9757(3) 0.2574(2)
N10 N 0.5120(3) 0.5548(3) 0.3950(2)
N11 N 0.5439(3) 0.4937(3) 0.4334(2)
N12 N 0.6487(3) 0.5554(3) 0.3890(2)
N13 N 0.7299(3) 0.5740(3) 0.3675(3)
H35 H 0.7624 0.5907 0.3998
H36 H 0.7527 0.5272 0.3501
N14 N 0.3744(3) 0.3806(3) 0.4128(2)
N15 N 0.3806(3) 0.3744(3) 0.5872(2)
N16 N 0.8744(3) 0.1194(3) 0.3372(2)
C1_2 C 0.0363(4) 0.2453(4) 0.2864(3)
H1_2 H 0.0048 0.2411 0.3236
C2_2 C 0.0929(4) 0.3115(4) 0.2798(3)
H2_2 H 0.0982 0.3521 0.3118
C3_2 C 0.1414(3) 0.3188(3) 0.2275(3)
C4_2 C 0.1268(4) 0.2585(4) 0.1811(3)
H3_2 H 0.1565 0.2616 0.1431
C5_2 C 0.0696(4) 0.1955(4) 0.1909(3)
H4_2 H 0.0616 0.1551 0.1591
C6_2 C 0.2082(3) 0.3847(4) 0.2213(3)
C7_2 C 0.2060(3) 0.4571(4) 0.2573(3)
H5_2 H 0.1614 0.4655 0.2859
C8_2 C 0.2689(4) 0.5168(4) 0.2515(4)
H6_2 H 0.2661 0.5667 0.2756
C9_2 C 0.3351(4) 0.5057(4) 0.2119(3)
H7_2 H 0.3782 0.5470 0.2090
C10_2 C 0.3386(3) 0.4330(3) 0.1758(2)
C11_2 C 0.2743(3) 0.3731(3) 0.1804(3)
H8_2 H 0.2760 0.3241 0.1552
C12_2 C 0.4084(3) 0.4250(3) 0.1317(2)
C13_2 C 0.5050(3) 0.3740(3) 0.0703(2)
C14_2 C 0.5609(3) 0.3121(3) 0.0403(2)
C18_2 C 0.6840(3) 0.2234(4) 0.0470(3)
C19_2 C 0.6299(4) 0.2829(4) 0.0721(3)
H12_2 H 0.6408 0.3040 0.1123
C20_2 C 0.7565(4) 0.1915(4) 0.0846(3)
C21_2 C 0.7855(4) 0.2361(4) 0.1358(3)
H13_2 H 0.7643 0.2908 0.1445
C22_2 C 0.8444(4) 0.2006(4) 0.1731(3)
H14_2 H 0.8611 0.2310 0.2088
C23_2 C 0.8594(4) 0.0876(4) 0.1108(3)
H15_2 H 0.8876 0.0367 0.1004
C24_2 C 0.7984(4) 0.1174(3) 0.0704(3)
H16_2 H 0.7857 0.0875 0.0336
Cd1_2 Cd 0.55908(2) 0.55908(2) 0.0000
N1_2 N 0.0243(3) 0.1875(3) 0.2426(2)
N2_2 N 0.4452(3) 0.4880(3) 0.1050(2)
N3_2 N 0.5063(3) 0.4561(3) 0.0666(2)
N4_2 N 0.4446(3) 0.3513(3) 0.1110(2)
N5_2 N 0.4260(3) 0.2701(3) 0.1325(3)
H17_2 H 0.4093 0.2376 0.1002
H18_2 H 0.4728 0.2473 0.1499
N6_2 N 0.8806(3) 0.1256(3) 0.1628(2)
C39_2 C 0.2822(4) 0.5446(4) 0.0190(3)
H27_2 H 0.3016 0.4969 0.0413
C40_2 C 0.2236(4) 0.5992(4) 0.0451(3)
H28_2 H 0.2036 0.5891 0.0857
C41_2 C 0.1939(3) 0.6682(3) 0.0125(3)
H29_2 H 0.1535 0.7048 0.0306
N7_2 N 0.4757(3) 0.6875(3) 0.0074(2)
N15_2 N 0.6194(3) 0.6256(3) 0.0872(2)
C15_2 C 0.5446(4) 0.2822(4) 0.9810(3)
H9_2 H 0.4969 0.3016 0.9587
C16_2 C 0.5992(4) 0.2236(4) 0.9549(3)
H10_2 H 0.5891 0.2036 0.9143
C17_2 C 0.6682(3) 0.1939(3) 0.9875(3)
H11_2 H 0.7048 0.1535 0.9694
Cd1_3 Cd 0.55908(2) 0.55908(2) 1.0000
C25_2 C 0.2453(4) 0.0363(4) 0.7136(3)
H19_2 H 0.2411 0.0048 0.6764
C26_2 C 0.3115(4) 0.0929(4) 0.7202(3)
H20_2 H 0.3521 0.0982 0.6882
C27_2 C 0.3188(3) 0.1414(3) 0.7725(3)
C28_2 C 0.2585(4) 0.1268(4) 0.8189(3)
H21_2 H 0.2616 0.1565 0.8569
C29_2 C 0.1955(4) 0.0696(4) 0.8091(3)
H22_2 H 0.1551 0.0616 0.8409
C30_2 C 0.3847(4) 0.2082(3) 0.7787(3)
C31_2 C 0.4571(4) 0.2060(3) 0.7427(3)
H23_2 H 0.4655 0.1614 0.7141
C32_2 C 0.5168(4) 0.2689(4) 0.7485(4)
H24_2 H 0.5667 0.2661 0.7244
C33_2 C 0.5057(4) 0.3351(4) 0.7881(3)
H25_2 H 0.5470 0.3782 0.7910
C34_2 C 0.4330(3) 0.3386(3) 0.8242(2)
C35_2 C 0.3731(3) 0.2743(3) 0.8196(3)
H26_2 H 0.3241 0.2760 0.8448
C36_2 C 0.4250(3) 0.4084(3) 0.8683(2)
C37_2 C 0.3740(3) 0.5050(3) 0.9297(2)
C38_2 C 0.3121(3) 0.5609(3) 0.9597(2)
C42_2 C 0.2234(4) 0.6840(3) 0.9530(3)
C43_2 C 0.2829(4) 0.6299(4) 0.9279(3)
H30_2 H 0.3040 0.6408 0.8877
C44_2 C 0.1915(4) 0.7565(4) 0.9154(3)
C45_2 C 0.2361(4) 0.7855(4) 0.8642(3)
H31_2 H 0.2908 0.7643 0.8555
C46_2 C 0.2006(4) 0.8444(4) 0.8269(3)
H32_2 H 0.2310 0.8611 0.7912
C47_2 C 0.0876(4) 0.8594(4) 0.8892(3)
H33_2 H 0.0367 0.8876 0.8996
C48_2 C 0.1174(3) 0.7984(4) 0.9296(3)
H34_2 H 0.0875 0.7857 0.9664
N8_2 N 0.6875(3) 0.4757(3) 0.9926(2)
N9_2 N 0.1875(3) 0.0243(3) 0.7574(2)
N10_2 N 0.4880(3) 0.4452(3) 0.8950(2)
N11_2 N 0.4561(3) 0.5063(3) 0.9334(2)
N12_2 N 0.3513(3) 0.4446(3) 0.8890(2)
N13_2 N 0.2701(3) 0.4260(3) 0.8675(3)
H35_2 H 0.2376 0.4093 0.8998
H36_2 H 0.2473 0.4728 0.8501
N14_2 N 0.6256(3) 0.6194(3) 0.9128(2)
N16_2 N 0.1256(3) 0.8806(3) 0.8372(2)
C9_3 C 0.0057(4) 0.1649(4) 0.9619(3)
H7_3 H 0.0470 0.1218 0.9590
C37_3 C 0.0050(3) 0.1260(3) 0.6797(2)
C38_3 C 0.0609(3) 0.1879(3) 0.7097(2)
C39_3 C 0.0446(4) 0.2178(4) 0.7690(3)
C40_3 C 0.0992(4) 0.2764(4) 0.7951(3)
H28_3 H 0.0891 0.2964 0.8357
C41_3 C 0.1682(3) 0.3061(3) 0.7625(3)
H29_3 H 0.2048 0.3465 0.7806
C42_3 C 0.1840(3) 0.2766(4) 0.7030(3)
C43_3 C 0.1299(4) 0.2171(4) 0.6779(3)
H30_3 H 0.1408 0.1960 0.6377
C44_3 C 0.2565(4) 0.3085(4) 0.6654(3)
C45_3 C 0.2855(4) 0.2639(4) 0.6142(3)
H31_3 H 0.2643 0.2092 0.6055
C46_3 C 0.3444(4) 0.2994(4) 0.5769(3)
H32_3 H 0.3611 0.2690 0.5412
C47_3 C 0.3594(4) 0.4124(4) 0.6392(3)
H33_3 H 0.3876 0.4633 0.6496
C48_3 C 0.2984(4) 0.3826(3) 0.6796(3)
H34_3 H 0.2857 0.4125 0.7164
N11_3 N 0.0063(3) 0.0439(3) 0.6834(2)
C1_3 C 0.7453(4) 0.4637(4) 0.0364(3)
H1_3 H 0.7411 0.4952 0.0736
C2_3 C 0.8115(4) 0.4071(4) 0.0298(3)
H2_3 H 0.8521 0.4018 0.0618
C7_3 C 0.9571(4) 0.2940(3) 0.0073(3)
H5_3 H 0.9655 0.3386 0.0359
C3_3 C 0.8188(3) 0.3586(3) 0.9775(3)
C4_3 C 0.7585(4) 0.3732(4) 0.9311(3)
H3_3 H 0.7616 0.3435 0.8931
C5_3 C 0.6955(4) 0.4304(4) 0.9409(3)
H4_3 H 0.6551 0.4384 0.9091
C6_3 C 0.8847(4) 0.2918(3) 0.9713(3)
C10_3 C 0.9330(3) 0.1614(3) 0.9258(2)
C11_3 C 0.8731(3) 0.2257(3) 0.9304(3)
H8_3 H 0.8241 0.2240 0.9052
C12_3 C 0.9250(3) 0.0916(3) 0.8817(2)
H9_3 H 0.8016 0.0031 0.7087
N2_3 N 0.9880(3) 0.0548(3) 0.8550(2)
N4_3 N 0.8513(3) 0.0554(3) 0.8610(2)
N5_3 N 0.7701(3) 0.0740(3) 0.8825(3)
H17_3 H 0.7376 0.0907 0.8502
H18_3 H 0.7473 0.0272 0.8999
C25_3 C 0.5363(4) 0.2547(4) 0.4636(3)
H19_3 H 0.5048 0.2589 0.4264
C26_3 C 0.5929(4) 0.1885(4) 0.4702(3)
H20_3 H 0.5982 0.1479 0.4382
C27_3 C 0.6414(3) 0.1812(3) 0.5225(3)
C28_3 C 0.6268(4) 0.2415(4) 0.5689(3)
H21_3 H 0.6565 0.2384 0.6069
C29_3 C 0.5696(4) 0.3045(4) 0.5591(3)
H22_3 H 0.5616 0.3449 0.5909
C30_3 C 0.7082(3) 0.1153(4) 0.5287(3)
C31_3 C 0.7060(3) 0.0429(4) 0.4927(3)
H23_3 H 0.6614 0.0345 0.4641
C34_3 C 0.8386(3) 0.0670(3) 0.5742(2)
C35_3 C 0.7743(3) 0.1269(3) 0.5696(3)
H26_3 H 0.7760 0.1759 0.5948
C36_3 C 0.9084(3) 0.0750(3) 0.6183(2)
H27_3 H 0.9969 0.1984 0.7913
N10_3 N 0.9452(3) 0.0120(3) 0.6450(2)
N12_3 N 0.9446(3) 0.1487(3) 0.6390(2)
N13_3 N 0.9260(3) 0.2299(3) 0.6175(3)
H35_3 H 0.9093 0.2624 0.6498
H36_3 H 0.9728 0.2527 0.6001
C13_3 C 0.8740(3) 0.9950(3) 0.8203(2)
C14_3 C 0.8121(3) 0.9391(3) 0.7903(2)
C15_3 C 0.7822(4) 0.9554(4) 0.7310(3)
C16_3 C 0.7236(4) 0.9008(4) 0.7049(3)
H10_3 H 0.7036 0.9109 0.6643
C17_3 C 0.6939(3) 0.8318(3) 0.7375(3)
H11_3 H 0.6535 0.7952 0.7194
C18_3 C 0.7234(4) 0.8160(3) 0.7970(3)
C19_3 C 0.7829(4) 0.8701(4) 0.8221(3)
H12_3 H 0.8040 0.8592 0.8623
C20_3 C 0.6915(4) 0.7435(4) 0.8346(3)
C21_3 C 0.7361(4) 0.7145(4) 0.8858(3)
H13_3 H 0.7908 0.7357 0.8945
C22_3 C 0.7006(4) 0.6556(4) 0.9231(3)
H14_3 H 0.7310 0.6389 0.9588
C23_3 C 0.5876(4) 0.6406(4) 0.8608(3)
H15_3 H 0.5367 0.6124 0.8504
C24_3 C 0.6174(3) 0.7016(4) 0.8204(3)
H16_3 H 0.5875 0.7143 0.7836
N3_3 N 0.9561(3) 0.9937(3) 0.8166(2)
C32_3 C 0.7689(4) 0.9832(4) 0.4985(4)
H24_3 H 0.7661 0.9333 0.4744
C33_3 C 0.8351(4) 0.9943(4) 0.5381(3)
H25_3 H 0.8782 0.9530 0.5410
C13_4 C 0.1260(3) 0.0050(3) 0.3203(2)
C14_4 C 0.1879(3) 0.0609(3) 0.2903(2)
C15_4 C 0.2178(4) 0.0446(4) 0.2310(3)
C16_4 C 0.2764(4) 0.0992(4) 0.2049(3)
H10_4 H 0.2964 0.0891 0.1643
C17_4 C 0.3061(3) 0.1682(3) 0.2375(3)
H11_4 H 0.3465 0.2048 0.2194
C18_4 C 0.2766(4) 0.1840(3) 0.2970(3)
C19_4 C 0.2171(4) 0.1299(4) 0.3221(3)
H12_4 H 0.1960 0.1408 0.3623
C20_4 C 0.3085(4) 0.2565(4) 0.3346(3)
C21_4 C 0.2639(4) 0.2855(4) 0.3858(3)
H13_4 H 0.2092 0.2643 0.3945
C22_4 C 0.2994(4) 0.3444(4) 0.4231(3)
H14_4 H 0.2690 0.3611 0.4588
C23_4 C 0.4124(4) 0.3594(4) 0.3608(3)
H15_4 H 0.4633 0.3876 0.3504
C24_4 C 0.3826(3) 0.2984(4) 0.3204(3)
H16_4 H 0.4125 0.2857 0.2836
N3_4 N 0.0439(3) 0.0063(3) 0.3166(2)
C33_4 C 0.1649(4) 0.0057(4) 0.0381(3)
H25_4 H 0.1218 0.0470 0.0410
C1_4 C 0.2547(4) 0.5363(4) 0.5364(3)
H1_4 H 0.2589 0.5048 0.5736
C2_4 C 0.1885(4) 0.5929(4) 0.5298(3)
H2_4 H 0.1479 0.5982 0.5618
C3_4 C 0.1812(3) 0.6414(3) 0.4775(3)
C4_4 C 0.2415(4) 0.6268(4) 0.4311(3)
H3_4 H 0.2384 0.6565 0.3931
C5_4 C 0.3045(4) 0.5696(4) 0.4409(3)
H4_4 H 0.3449 0.5616 0.4091
C6_4 C 0.1153(4) 0.7082(3) 0.4713(3)
C7_4 C 0.0429(4) 0.7060(3) 0.5073(3)
H5_4 H 0.0345 0.6614 0.5359
C10_4 C 0.0670(3) 0.8386(3) 0.4258(2)
C11_4 C 0.1269(3) 0.7743(3) 0.4304(3)
H8_4 H 0.1759 0.7760 0.4052
C12_4 C 0.0750(3) 0.9084(3) 0.3817(2)
H9_4 H 0.1984 0.9969 0.2087
N2_4 N 0.0120(3) 0.9452(3) 0.3550(2)
N4_4 N 0.1487(3) 0.9446(3) 0.3610(2)
N5_4 N 0.2299(3) 0.9260(3) 0.3825(3)
H17_4 H 0.2624 0.9093 0.3502
H18_4 H 0.2527 0.9728 0.3999
C27_4 C 0.3586(3) 0.8188(3) 0.0225(3)
C28_4 C 0.3732(4) 0.7585(4) 0.0689(3)
H21_4 H 0.3435 0.7616 0.1069
C29_4 C 0.4304(4) 0.6955(4) 0.0591(3)
H22_4 H 0.4384 0.6551 0.0909
C30_4 C 0.2918(3) 0.8847(4) 0.0287(3)
C34_4 C 0.1614(3) 0.9330(3) 0.0742(2)
C35_4 C 0.2257(3) 0.8731(3) 0.0696(3)
H26_4 H 0.2240 0.8241 0.0948
C36_4 C 0.0916(3) 0.9250(3) 0.1183(2)
H27_4 H 0.0031 0.8016 0.2913
N10_4 N 0.0548(3) 0.9880(3) 0.1450(2)
N12_4 N 0.0554(3) 0.8513(3) 0.1390(2)
N13_4 N 0.0740(3) 0.7701(3) 0.1175(3)
H35_4 H 0.0907 0.7376 0.1498
H36_4 H 0.0272 0.7473 0.1001
C25_4 C 0.4637(4) 0.7453(4) 0.9636(3)
H19_4 H 0.4952 0.7411 0.9264
C26_4 C 0.4071(4) 0.8115(4) 0.9702(3)
H20_4 H 0.4018 0.8521 0.9382
C31_4 C 0.2940(3) 0.9571(4) 0.9927(3)
H23_4 H 0.3386 0.9655 0.9641
C8_3 C 0.9832(4) 0.7689(4) 0.5015(4)
H6_3 H 0.9333 0.7661 0.5256
C9_4 C 0.9943(4) 0.8351(4) 0.4619(3)
H7_4 H 0.9530 0.8782 0.4590
C37_4 C 0.9950(3) 0.8740(3) 0.1797(2)
C38_4 C 0.9391(3) 0.8121(3) 0.2097(2)
C39_4 C 0.9554(4) 0.7822(4) 0.2690(3)
C40_4 C 0.9008(4) 0.7236(4) 0.2951(3)
H28_4 H 0.9109 0.7036 0.3357
C41_4 C 0.8318(3) 0.6939(3) 0.2625(3)
H29_4 H 0.7952 0.6535 0.2806
C42_4 C 0.8160(3) 0.7234(4) 0.2030(3)
C43_4 C 0.8701(4) 0.7829(4) 0.1779(3)
H30_4 H 0.8592 0.8040 0.1377
C44_4 C 0.7435(4) 0.6915(4) 0.1654(3)
C45_4 C 0.7145(4) 0.7361(4) 0.1142(3)
H31_4 H 0.7357 0.7908 0.1055
C46_4 C 0.6556(4) 0.7006(4) 0.0769(3)
H32_4 H 0.6389 0.7310 0.0412
C47_4 C 0.6406(4) 0.5876(4) 0.1392(3)
H33_4 H 0.6124 0.5367 0.1496
C48_4 C 0.7016(4) 0.6174(3) 0.1796(3)
H34_4 H 0.7143 0.5875 0.2164
N11_4 N 0.9937(3) 0.9561(3) 0.1834(2)
C8_4 C 0.0168(4) 0.2311(4) 0.0015(4)
H6_4 H 0.0667 0.2339 0.0256
C32_4 C 0.2311(4) 0.0168(4) 0.9985(4)
H24_4 H 0.2339 0.0667 0.9744
Cl1 Cl 0.87816(12) 0.87816(12) 0.0000
O3 O 0.8227(9) 0.8890(13) 0.0454(8)
O4 O 0.9412(7) 0.8645(15) 0.0345(5)
Cl1_2 Cl 0.87816(12) 0.87816(12) 1.0000
O1 O 0.8890(13) 0.8227(9) 0.9546(8)
O2 O 0.8645(15) 0.9412(7) 0.9655(5)
Cl1_3 Cl 0.12184(12) 0.12184(12) 0.5000
O1_2 O 0.1110(13) 0.1773(9) 0.4546(8)
O2_2 O 0.1355(15) 0.0588(7) 0.4655(5)
O3_2 O 0.1773(9) 0.1110(13) 0.5454(8)
O4_2 O 0.0588(7) 0.1355(15) 0.5345(5)
Cl1_4 Cl 0.62184(12) 0.37816(12) 0.2500
O1_3 O 0.6773(9) 0.3890(13) 0.2046(8)
O2_3 O 0.5588(7) 0.3645(15) 0.2155(5)
O3_3 O 0.6110(13) 0.3227(9) 0.2954(8)
O4_3 O 0.6355(15) 0.4412(7) 0.2845(5)
Cl1_5 Cl 0.37816(12) 0.62184(12) 0.7500
O1_4 O 0.3227(9) 0.6110(13) 0.7046(8)
O2_4 O 0.4412(7) 0.6355(15) 0.7155(5)
O3_4 O 0.3890(13) 0.6773(9) 0.7954(8)
O4_4 O 0.3645(15) 0.5588(7) 0.7845(5)
loop_
_geom_bond_atom_site_label_1
_geom_bond_atom_site_label_2
_geom_bond_site_symmetry_1
_geom_bond_site_symmetry_2
C1 H1 1_555 1_555
C2 C1 1_555 1_555
H2 C2 1_555 1_555
C3 C2 1_555 1_555
C4 C3 1_555 1_555
H3 C4 1_555 1_555
C5 C4 1_555 1_555
H4 C5 1_555 1_555
C6 C3 1_555 1_555
C7 C6 1_555 1_555
H5 C7 1_555 1_555
C8 C7 1_555 1_555
H6 C8 1_555 1_555
C9 C8 1_555 1_555
H7 C9 1_555 1_555
C10 C9 1_555 1_555
C11 C6 1_555 1_555
H8 C11 1_555 1_555
C12 C10 1_555 1_555
C13 C14 1_555 1_555
C14 C15 1_555 1_555
C15 H9 1_555 1_555
C16 C15 1_555 1_555
H10 C16 1_555 1_555
C17 C16 1_555 1_555
H11 C17 1_555 1_555
C18 C17 1_555 1_555
C19 C14 1_555 1_555
H12 C19 1_555 1_555
C20 C18 1_555 1_555
C21 C20 1_555 1_555
H13 C21 1_555 1_555
C22 C21 1_555 1_555
H14 C22 1_555 1_555
C23 H15 1_555 1_555
C24 C20 1_555 1_555
H16 C24 1_555 1_555
Cd1 N3 1_555 1_555
N1 C1 1_555 1_555
N2 C12 1_555 1_555
N3 C13 1_555 1_555
N4 C12 1_555 1_555
N5 N4 1_555 1_555
H17 N5 1_555 1_555
H18 N5 1_555 1_555
N6 C22 1_555 1_555
C25 H19 1_555 1_555
C26 C25 1_555 1_555
H20 C26 1_555 1_555
C27 C26 1_555 1_555
C28 C27 1_555 1_555
H21 C28 1_555 1_555
C29 C28 1_555 1_555
H22 C29 1_555 1_555
C30 C27 1_555 1_555
C31 C30 1_555 1_555
H23 C31 1_555 1_555
C32 C31 1_555 1_555
H24 C32 1_555 1_555
C33 C32 1_555 1_555
H25 C33 1_555 1_555
C34 C33 1_555 1_555
C35 C30 1_555 1_555
H26 C35 1_555 1_555
C36 C34 1_555 1_555
C37 C38 1_555 1_555
C38 C39 1_555 1_555
C39 H27 1_555 1_555
C40 C39 1_555 1_555
H28 C40 1_555 1_555
C41 C40 1_555 1_555
H29 C41 1_555 1_555
C42 C41 1_555 1_555
C43 C38 1_555 1_555
H30 C43 1_555 1_555
C44 C42 1_555 1_555
C45 C44 1_555 1_555
H31 C45 1_555 1_555
C46 C45 1_555 1_555
H32 C46 1_555 1_555
C47 H33 1_555 1_555
C48 C44 1_555 1_555
H34 C48 1_555 1_555
Cd3 N6 1_555 1_555
Cd5 N16 1_555 1_555
N7 Cd1 1_555 1_555
N8 Cd1 1_555 1_555
N9 C25 1_555 1_555
N10 C36 1_555 1_555
N11 Cd1 1_555 1_555
N12 C36 1_555 1_555
N13 N12 1_555 1_555
H35 N13 1_555 1_555
H36 N13 1_555 1_555
N14 Cd1 1_555 1_555
N15 Cd1 1_555 1_555
N16 C46 1_555 1_555
C5 N1 1_555 1_555
C10 C11 1_555 1_555
C13 N4 1_555 1_555
C18 C19 1_555 1_555
C23 C24 1_555 1_555
C23 N6 1_555 1_555
N2 N3 1_555 1_555
C29 N9 1_555 1_555
C34 C35 1_555 1_555
C37 N11 1_555 1_555
C37 N12 1_555 1_555
C42 C43 1_555 1_555
C47 C48 1_555 1_555
C47 N16 1_555 1_555
N10 N11 1_555 1_555
C1_2 H1_2 1_555 1_555
C2_2 C1_2 1_555 1_555
H2_2 C2_2 1_555 1_555
C3_2 C2_2 1_555 1_555
C4_2 C3_2 1_555 1_555
H3_2 C4_2 1_555 1_555
C5_2 C4_2 1_555 1_555
H4_2 C5_2 1_555 1_555
C6_2 C3_2 1_555 1_555
C7_2 C6_2 1_555 1_555
H5_2 C7_2 1_555 1_555
C8_2 C7_2 1_555 1_555
H6_2 C8_2 1_555 1_555
C9_2 C8_2 1_555 1_555
H7_2 C9_2 1_555 1_555
C10_2 C9_2 1_555 1_555
C11_2 C6_2 1_555 1_555
H8_2 C11_2 1_555 1_555
C12_2 C10_2 1_555 1_555
C13_2 C14_2 1_555 1_555
C19_2 C14_2 1_555 1_555
H12_2 C19_2 1_555 1_555
C20_2 C18_2 1_555 1_555
C21_2 C20_2 1_555 1_555
H13_2 C21_2 1_555 1_555
C22_2 C21_2 1_555 1_555
H14_2 C22_2 1_555 1_555
C23_2 H15_2 1_555 1_555
C24_2 C20_2 1_555 1_555
H16_2 C24_2 1_555 1_555
Cd1_2 N3_2 1_555 1_555
N1_2 C1_2 1_555 1_555
N2_2 C12_2 1_555 1_555
N3_2 C13_2 1_555 1_555
N4_2 C12_2 1_555 1_555
N5_2 N4_2 1_555 1_555
H17_2 N5_2 1_555 1_555
H18_2 N5_2 1_555 1_555
N6_2 C22_2 1_555 1_555
C39_2 H27_2 1_555 1_555
C40_2 C39_2 1_555 1_555
H28_2 C40_2 1_555 1_555
C41_2 C40_2 1_555 1_555
H29_2 C41_2 1_555 1_555
Cd5 N6_2 1_555 1_555
N7_2 Cd1_2 1_555 1_555
N15_2 Cd1_2 1_555 1_555
C5_2 N1_2 1_555 1_555
C10_2 C11_2 1_555 1_555
C13_2 N4_2 1_555 1_555
C18_2 C19_2 1_555 1_555
C23_2 C24_2 1_555 1_555
C23_2 N6_2 1_555 1_555
N2_2 N3_2 1_555 1_555
C15_2 H9_2 1_555 1_555
C16_2 C15_2 1_555 1_555
H10_2 C16_2 1_555 1_555
C17_2 C16_2 1_555 1_555
H11_2 C17_2 1_555 1_555
C25_2 H19_2 1_555 1_555
C26_2 C25_2 1_555 1_555
H20_2 C26_2 1_555 1_555
C27_2 C26_2 1_555 1_555
C28_2 C27_2 1_555 1_555
H21_2 C28_2 1_555 1_555
C29_2 C28_2 1_555 1_555
H22_2 C29_2 1_555 1_555
C30_2 C27_2 1_555 1_555
C31_2 C30_2 1_555 1_555
H23_2 C31_2 1_555 1_555
C32_2 C31_2 1_555 1_555
H24_2 C32_2 1_555 1_555
C33_2 C32_2 1_555 1_555
H25_2 C33_2 1_555 1_555
C34_2 C33_2 1_555 1_555
C35_2 C30_2 1_555 1_555
H26_2 C35_2 1_555 1_555
C36_2 C34_2 1_555 1_555
C37_2 C38_2 1_555 1_555
C43_2 C38_2 1_555 1_555
H30_2 C43_2 1_555 1_555
C44_2 C42_2 1_555 1_555
C45_2 C44_2 1_555 1_555
H31_2 C45_2 1_555 1_555
C46_2 C45_2 1_555 1_555
H32_2 C46_2 1_555 1_555
C47_2 H33_2 1_555 1_555
C48_2 C44_2 1_555 1_555
H34_2 C48_2 1_555 1_555
Cd3 N16_2 1_555 1_555
N8_2 Cd1_3 1_555 1_555
N9_2 C25_2 1_555 1_555
N10_2 C36_2 1_555 1_555
N11_2 Cd1_3 1_555 1_555
N12_2 C36_2 1_555 1_555
N13_2 N12_2 1_555 1_555
H35_2 N13_2 1_555 1_555
H36_2 N13_2 1_555 1_555
N14_2 Cd1_3 1_555 1_555
N16_2 C46_2 1_555 1_555
C29_2 N9_2 1_555 1_555
C34_2 C35_2 1_555 1_555
C37_2 N11_2 1_555 1_555
C37_2 N12_2 1_555 1_555
C42_2 C43_2 1_555 1_555
C47_2 C48_2 1_555 1_555
C47_2 N16_2 1_555 1_555
N10_2 N11_2 1_555 1_555
H7_3 C9_3 1_555 1_555
C37_3 C38_3 1_555 1_555
C38_3 C39_3 1_555 1_555
C40_3 C39_3 1_555 1_555
H28_3 C40_3 1_555 1_555
C41_3 C40_3 1_555 1_555
H29_3 C41_3 1_555 1_555
C42_3 C41_3 1_555 1_555
C43_3 C38_3 1_555 1_555
H30_3 C43_3 1_555 1_555
C44_3 C42_3 1_555 1_555
C45_3 C44_3 1_555 1_555
H31_3 C45_3 1_555 1_555
C46_3 C45_3 1_555 1_555
H32_3 C46_3 1_555 1_555
C47_3 H33_3 1_555 1_555
C48_3 C44_3 1_555 1_555
H34_3 C48_3 1_555 1_555
N15 C46_3 1_555 1_555
C37_3 N11_3 1_555 1_555
C42_3 C43_3 1_555 1_555
C47_3 C48_3 1_555 1_555
C47_3 N15 1_555 1_555
C1_3 H1_3 1_555 1_555
C2_3 C1_3 1_555 1_555
H2_3 C2_3 1_555 1_555
H5_3 C7_3 1_555 1_555
C4_3 C3_3 1_555 1_555
H3_3 C4_3 1_555 1_555
C5_3 C4_3 1_555 1_555
H4_3 C5_3 1_555 1_555
C6_3 C3_3 1_555 1_555
C11_3 C6_3 1_555 1_555
H8_3 C11_3 1_555 1_555
C12_3 C10_3 1_555 1_555
N2_3 C12_3 1_555 1_555
N4_3 C12_3 1_555 1_555
N5_3 N4_3 1_555 1_555
H17_3 N5_3 1_555 1_555
H18_3 N5_3 1_555 1_555
C25_3 H19_3 1_555 1_555
C26_3 C25_3 1_555 1_555
H20_3 C26_3 1_555 1_555
C27_3 C26_3 1_555 1_555
C28_3 C27_3 1_555 1_555
H21_3 C28_3 1_555 1_555
C29_3 C28_3 1_555 1_555
H22_3 C29_3 1_555 1_555
C30_3 C27_3 1_555 1_555
C31_3 C30_3 1_555 1_555
H23_3 C31_3 1_555 1_555
C35_3 C30_3 1_555 1_555
H26_3 C35_3 1_555 1_555
C36_3 C34_3 1_555 1_555
N7 C25_3 1_555 1_555
N10_3 C36_3 1_555 1_555
N12_3 C36_3 1_555 1_555
N13_3 N12_3 1_555 1_555
H35_3 N13_3 1_555 1_555
H36_3 N13_3 1_555 1_555
C5_3 N8_2 1_555 1_555
C10_3 C11_3 1_555 1_555
C29_3 N7 1_555 1_555
C34_3 C35_3 1_555 1_555
C13_3 C14_3 1_555 1_555
C14_3 C15_3 1_555 1_555
C16_3 C15_3 1_555 1_555
H10_3 C16_3 1_555 1_555
C17_3 C16_3 1_555 1_555
H11_3 C17_3 1_555 1_555
C18_3 C17_3 1_555 1_555
C19_3 C14_3 1_555 1_555
H12_3 C19_3 1_555 1_555
C20_3 C18_3 1_555 1_555
C21_3 C20_3 1_555 1_555
H13_3 C21_3 1_555 1_555
C22_3 C21_3 1_555 1_555
H14_3 C22_3 1_555 1_555
C23_3 H15_3 1_555 1_555
C24_3 C20_3 1_555 1_555
H16_3 C24_3 1_555 1_555
N3_3 C13_3 1_555 1_555
N14_2 C22_3 1_555 1_555
H24_3 C32_3 1_555 1_555
C33_3 C32_3 1_555 1_555
H25_3 C33_3 1_555 1_555
C18_3 C19_3 1_555 1_555
C23_3 C24_3 1_555 1_555
C23_3 N14_2 1_555 1_555
C13_4 C14_4 1_555 1_555
C14_4 C15_4 1_555 1_555
C16_4 C15_4 1_555 1_555
H10_4 C16_4 1_555 1_555
C17_4 C16_4 1_555 1_555
H11_4 C17_4 1_555 1_555
C18_4 C17_4 1_555 1_555
C19_4 C14_4 1_555 1_555
H12_4 C19_4 1_555 1_555
C20_4 C18_4 1_555 1_555
C21_4 C20_4 1_555 1_555
H13_4 C21_4 1_555 1_555
C22_4 C21_4 1_555 1_555
H14_4 C22_4 1_555 1_555
C23_4 H15_4 1_555 1_555
C24_4 C20_4 1_555 1_555
H16_4 C24_4 1_555 1_555
N3_4 C13_4 1_555 1_555
N14 C22_4 1_555 1_555
H25_4 C33_4 1_555 1_555
C18_4 C19_4 1_555 1_555
C23_4 C24_4 1_555 1_555
C23_4 N14 1_555 1_555
C1_4 H1_4 1_555 1_555
C2_4 C1_4 1_555 1_555
H2_4 C2_4 1_555 1_555
C3_4 C2_4 1_555 1_555
C4_4 C3_4 1_555 1_555
H3_4 C4_4 1_555 1_555
C5_4 C4_4 1_555 1_555
H4_4 C5_4 1_555 1_555
C6_4 C3_4 1_555 1_555
C7_4 C6_4 1_555 1_555
H5_4 C7_4 1_555 1_555
C11_4 C6_4 1_555 1_555
H8_4 C11_4 1_555 1_555
C12_4 C10_4 1_555 1_555
N8 C1_4 1_555 1_555
N2_4 C12_4 1_555 1_555
N4_4 C12_4 1_555 1_555
N5_4 N4_4 1_555 1_555
H17_4 N5_4 1_555 1_555
H18_4 N5_4 1_555 1_555
C28_4 C27_4 1_555 1_555
H21_4 C28_4 1_555 1_555
C29_4 C28_4 1_555 1_555
H22_4 C29_4 1_555 1_555
C30_4 C27_4 1_555 1_555
C35_4 C30_4 1_555 1_555
H26_4 C35_4 1_555 1_555
C36_4 C34_4 1_555 1_555
N10_4 C36_4 1_555 1_555
N12_4 C36_4 1_555 1_555
N13_4 N12_4 1_555 1_555
H35_4 N13_4 1_555 1_555
H36_4 N13_4 1_555 1_555
C5_4 N8 1_555 1_555
C10_4 C11_4 1_555 1_555
C29_4 N7_2 1_555 1_555
C34_4 C35_4 1_555 1_555
C25_4 H19_4 1_555 1_555
C26_4 C25_4 1_555 1_555
H20_4 C26_4 1_555 1_555
H23_4 C31_4 1_555 1_555
H6_3 C8_3 1_555 1_555
C9_4 C8_3 1_555 1_555
H7_4 C9_4 1_555 1_555
C37_4 C38_4 1_555 1_555
C38_4 C39_4 1_555 1_555
C40_4 C39_4 1_555 1_555
H28_4 C40_4 1_555 1_555
C41_4 C40_4 1_555 1_555
H29_4 C41_4 1_555 1_555
C42_4 C41_4 1_555 1_555
C43_4 C38_4 1_555 1_555
H30_4 C43_4 1_555 1_555
C44_4 C42_4 1_555 1_555
C45_4 C44_4 1_555 1_555
H31_4 C45_4 1_555 1_555
C46_4 C45_4 1_555 1_555
H32_4 C46_4 1_555 1_555
C47_4 H33_4 1_555 1_555
C48_4 C44_4 1_555 1_555
H34_4 C48_4 1_555 1_555
N15_2 C46_4 1_555 1_555
C37_4 N11_4 1_555 1_555
C42_4 C43_4 1_555 1_555
C47_4 C48_4 1_555 1_555
C47_4 N15_2 1_555 1_555
H6_4 C8_4 1_555 1_555
H24_4 C32_4 1_555 1_555
O3 Cl1 1_555 1_555
O4 Cl1 1_555 1_555
Cl1_2 O1 1_555 1_555
O2 Cl1_2 1_555 1_555
Cl1_3 O1_2 1_555 1_555
O2_2 Cl1_3 1_555 1_555
O3_2 Cl1_3 1_555 1_555
O4_2 Cl1_3 1_555 1_555
Cl1_4 O1_3 1_555 1_555
O2_3 Cl1_4 1_555 1_555
O3_3 Cl1_4 1_555 1_555
O4_3 Cl1_4 1_555 1_555
Cl1_5 O1_4 1_555 1_555
O2_4 Cl1_5 1_555 1_555
O3_4 Cl1_5 1_555 1_555
O4_4 Cl1_5 1_555 1_555

#END
