
###############################################################################
#
# This file contains modified crystal structure data generated from the
# MOF subset of the Cambridge Structural Database (CSD) v543 
# hosted by the Cambridge Crystallographic Data Centre (CCDC).
#
# This work is licensed under the Creative Commons
# Attribution-NonCommercial-ShareAlike 4.0 International License.
# To view a copy of this license, visit
# http://creativecommons.org/licenses/by-nc-sa/4.0/
# or send a letter to
# Creative Commons, PO Box 1866, Mountain View, CA 94042, USA.
#
# CIF created using the CSD Python API on 29 September 2022
# The structure has been converted into the P1 space group
# The structure has a 3D framework
# The original CSD entry OKIYAJ is in the tetragonal crystal system
# The original CSD entry OKIYAJ is in a Sohncke space group
# The framework has been calculated to contain at least 10.0% void space
# The void calculation uses a probe of radius 1.32A, grid spacing 0.4
# The framework is charged, counterions have been retained in the structure
#
###############################################################################

data_OKIYAJ
_chemical_formula_moiety         '(C192 H144 Cd2 Cl10 N48 O32 4-)n'
_symmetry_cell_setting           triclinic
_symmetry_space_group_name_H-M   'P 1'
_symmetry_Int_Tables_number      1
_space_group_name_Hall           'P 1'
loop_
_symmetry_equiv_pos_site_id
_symmetry_equiv_pos_as_xyz
1 x,y,z
_cell_length_a                   15.8800(13)
_cell_length_b                   15.8800(13)
_cell_length_c                   21.505(3)
_cell_angle_alpha                90
_cell_angle_beta                 90
_cell_angle_gamma                90
_cell_volume                     5423.01
loop_
_atom_site_label
_atom_site_type_symbol
_atom_site_fract_x
_atom_site_fract_y
_atom_site_fract_z
Cd4 Cd 0.05885(2) 0.05885(2) 0.5000
C40 C 0.2659(4) 0.4805(5) 0.0026(4)
H28 H 0.2628 0.4306 0.0268
C41 C 0.2036(4) 0.5405(4) 0.0080(3)
H29 H 0.1590 0.5329 0.0368
C45 C 0.0934(4) 0.6903(4) 0.0311(3)
H31 H 0.0992 0.6512 0.0642
C46 C 0.0385(4) 0.7569(4) 0.0369(3)
H32 H 0.0089 0.7630 0.0750
Cd3 Cd 0.94115(2) 0.94115(2) 0.0000
C1 C 0.2016(4) 0.1568(4) 0.5749(3)
H1 H 0.2317 0.1400 0.5389
C2 C 0.2357(4) 0.2183(4) 0.6130(3)
H2 H 0.2893 0.2414 0.6033
C3 C 0.1925(4) 0.2468(4) 0.6653(3)
C4 C 0.1189(4) 0.2025(4) 0.6803(3)
H3 H 0.0892 0.2147 0.7175
C5 C 0.0900(4) 0.1403(4) 0.6398(3)
H4 H 0.0403 0.1107 0.6510
C6 C 0.2226(4) 0.3186(4) 0.7026(3)
C7 C 0.2835(4) 0.3727(4) 0.6777(3)
H5 H 0.3051 0.3613 0.6374
C8 C 0.3129(4) 0.4413(3) 0.7092(2)
C9 C 0.2812(4) 0.4585(4) 0.7689(3)
H6 H 0.2996 0.5067 0.7912
C10 C 0.2225(5) 0.4041(5) 0.7947(3)
H7 H 0.2023 0.4142 0.8356
C11 C 0.1928(4) 0.3356(4) 0.7617(3)
H8 H 0.1517 0.2998 0.7799
C12 C 0.3757(4) 0.4968(4) 0.6793(3)
C13 C 0.4263(3) 0.5929(3) 0.6164(2)
C14 C 0.4344(3) 0.6629(4) 0.5728(3)
C15 C 0.5078(5) 0.6672(4) 0.5378(3)
H9 H 0.5496 0.6246 0.5415
C16 C 0.5195(5) 0.7341(4) 0.4974(4)
H10 H 0.5694 0.7372 0.4732
C17 C 0.4595(4) 0.7964(4) 0.4920(3)
H11 H 0.4671 0.8410 0.4632
C18 C 0.3871(4) 0.7936(4) 0.5292(3)
C19 C 0.3756(4) 0.7268(4) 0.5678(3)
H12 H 0.3257 0.7239 0.5920
C20 C 0.3203(4) 0.8601(4) 0.5221(3)
C21 C 0.3097(4) 0.9066(4) 0.4689(3)
H13 H 0.3488 0.9008 0.4358
C22 C 0.2431(4) 0.9615(4) 0.4631(3)
H14 H 0.2370 0.9911 0.4250
C23 C 0.1984(4) 0.9323(4) 0.5601(3)
H15 H 0.1596 0.9414 0.5930
C24 C 0.2631(4) 0.8753(4) 0.5696(3)
H16 H 0.2683 0.8468 0.6083
Cd1 Cd 0.55885(2) 0.44115(2) 0.7500
N1 N 0.1266(3) 0.1199(3) 0.5875(2)
N2 N 0.4564(3) 0.4938(3) 0.6827(2)
N3 N 0.4898(3) 0.5553(3) 0.6439(2)
N4 N 0.3528(3) 0.5567(3) 0.6379(2)
N5 N 0.2717(4) 0.5757(3) 0.6161(3)
H17 H 0.2457 0.5265 0.6060
H18 H 0.2415 0.6023 0.6458
N6 N 0.1871(3) 0.9754(3) 0.5072(3)
C25 C 0.8432(4) 0.7984(4) 0.9251(3)
H19 H 0.8600 0.7683 0.9611
C26 C 0.7817(4) 0.7643(4) 0.8870(3)
H20 H 0.7586 0.7107 0.8967
C27 C 0.7532(4) 0.8075(4) 0.8347(3)
C28 C 0.7975(4) 0.8811(4) 0.8197(3)
H21 H 0.7853 0.9108 0.7825
C29 C 0.8597(4) 0.9100(4) 0.8602(3)
H22 H 0.8893 0.9597 0.8490
C30 C 0.6814(4) 0.7774(4) 0.7974(3)
C31 C 0.6273(4) 0.7165(4) 0.8223(3)
H23 H 0.6387 0.6949 0.8626
C32 C 0.5587(3) 0.6871(4) 0.7908(2)
C33 C 0.5415(4) 0.7188(4) 0.7311(3)
H24 H 0.4933 0.7004 0.7088
C34 C 0.5959(5) 0.7775(5) 0.7053(3)
H25 H 0.5858 0.7977 0.6644
C35 C 0.6644(4) 0.8072(4) 0.7383(3)
H26 H 0.7002 0.8483 0.7201
C36 C 0.5032(4) 0.6243(4) 0.8207(3)
C37 C 0.4071(3) 0.5737(3) 0.8836(2)
C38 C 0.3371(4) 0.5656(3) 0.9272(3)
C39 C 0.3328(4) 0.4922(5) 0.9622(3)
H27 H 0.3754 0.4504 0.9585
C42 C 0.2064(4) 0.6129(4) 0.9708(3)
C43 C 0.2732(4) 0.6244(4) 0.9322(3)
H30 H 0.2761 0.6743 0.9080
C44 C 0.1399(4) 0.6797(4) 0.9779(3)
C47 C 0.0677(4) 0.8016(4) 0.9399(3)
H33 H 0.0586 0.8404 0.9070
C48 C 0.1247(4) 0.7369(4) 0.9304(3)
H34 H 0.1532 0.7317 0.8917
Cd3_2 Cd 0.94115(2) 0.94115(2) 1.0000
N7 N 0.6266(3) 0.3801(3) 0.6625(2)
N8 N 0.6199(3) 0.3734(3) 0.8375(2)
N9 N 0.8801(3) 0.8734(3) 0.9125(2)
N10 N 0.5062(3) 0.5436(3) 0.8173(2)
N11 N 0.4447(3) 0.5102(3) 0.8561(2)
N12 N 0.4433(3) 0.6472(3) 0.8621(2)
N13 N 0.4243(3) 0.7283(4) 0.8839(3)
H35 H 0.4735 0.7543 0.8940
H36 H 0.3977 0.7585 0.8542
N14 N 0.6871(3) 0.5246(3) 0.7428(3)
N15 N 0.4754(3) 0.3129(3) 0.7572(3)
N16 N 0.0246(3) 0.8129(3) 0.9928(3)
C1_2 C 0.7984(4) 0.8432(4) 0.0749(3)
H1_2 H 0.7683 0.8600 0.0389
C2_2 C 0.7643(4) 0.7817(4) 0.1130(3)
H2_2 H 0.7107 0.7586 0.1033
C3_2 C 0.8075(4) 0.7532(4) 0.1653(3)
C4_2 C 0.8811(4) 0.7975(4) 0.1803(3)
H3_2 H 0.9108 0.7853 0.2175
C5_2 C 0.9100(4) 0.8597(4) 0.1398(3)
H4_2 H 0.9597 0.8893 0.1510
C6_2 C 0.7774(4) 0.6814(4) 0.2026(3)
C7_2 C 0.7165(4) 0.6273(4) 0.1777(3)
H5_2 H 0.6949 0.6387 0.1374
C8_2 C 0.6871(4) 0.5587(3) 0.2092(2)
C9_2 C 0.7188(4) 0.5415(4) 0.2689(3)
H6_2 H 0.7004 0.4933 0.2912
C10_2 C 0.7775(5) 0.5959(5) 0.2947(3)
H7_2 H 0.7977 0.5858 0.3356
C11_2 C 0.8072(4) 0.6644(4) 0.2617(3)
H8_2 H 0.8483 0.7002 0.2799
C12_2 C 0.6243(4) 0.5032(4) 0.1793(3)
C13_2 C 0.5737(3) 0.4071(3) 0.1164(2)
C14_2 C 0.5656(3) 0.3371(4) 0.0728(3)
C15_2 C 0.4922(5) 0.3328(4) 0.0378(3)
H9_2 H 0.4504 0.3754 0.0415
C18_2 C 0.6129(4) 0.2064(4) 0.0292(3)
C19_2 C 0.6244(4) 0.2732(4) 0.0678(3)
H12_2 H 0.6743 0.2761 0.0920
C20_2 C 0.6797(4) 0.1399(4) 0.0221(3)
C23_2 C 0.8016(4) 0.0677(4) 0.0601(3)
H15_2 H 0.8404 0.0586 0.0930
C24_2 C 0.7369(4) 0.1247(4) 0.0696(3)
H16_2 H 0.7317 0.1532 0.1083
Cd1_2 Cd 0.44115(2) 0.55885(2) 0.2500
N1_2 N 0.8734(3) 0.8801(3) 0.0875(2)
N2_2 N 0.5436(3) 0.5062(3) 0.1827(2)
N3_2 N 0.5102(3) 0.4447(3) 0.1439(2)
N4_2 N 0.6472(3) 0.4433(3) 0.1379(2)
N5_2 N 0.7283(4) 0.4243(3) 0.1161(3)
H17_2 H 0.7543 0.4735 0.1060
H18_2 H 0.7585 0.3977 0.1458
N6_2 N 0.8129(3) 0.0246(3) 0.0072(3)
C25_2 C 0.1568(4) 0.2016(4) 0.4251(3)
H19_2 H 0.1400 0.2317 0.4611
C26_2 C 0.2183(4) 0.2357(4) 0.3870(3)
H20_2 H 0.2414 0.2893 0.3967
C27_2 C 0.2468(4) 0.1925(4) 0.3347(3)
C28_2 C 0.2025(4) 0.1189(4) 0.3197(3)
H21_2 H 0.2147 0.0892 0.2825
C29_2 C 0.1403(4) 0.0900(4) 0.3602(3)
H22_2 H 0.1107 0.0403 0.3490
C30_2 C 0.3186(4) 0.2226(4) 0.2974(3)
C31_2 C 0.3727(4) 0.2835(4) 0.3223(3)
H23_2 H 0.3613 0.3051 0.3626
C32_2 C 0.4413(3) 0.3129(4) 0.2908(2)
C33_2 C 0.4585(4) 0.2812(4) 0.2311(3)
H24_2 H 0.5067 0.2996 0.2088
C34_2 C 0.4041(5) 0.2225(5) 0.2053(3)
H25_2 H 0.4142 0.2023 0.1644
C35_2 C 0.3356(4) 0.1928(4) 0.2383(3)
H26_2 H 0.2998 0.1517 0.2201
C36_2 C 0.4968(4) 0.3757(4) 0.3207(3)
C37_2 C 0.5929(3) 0.4263(3) 0.3836(2)
C38_2 C 0.6629(4) 0.4344(3) 0.4272(3)
C39_2 C 0.6672(4) 0.5078(5) 0.4622(3)
H27_2 H 0.6246 0.5496 0.4585
C40_2 C 0.7341(4) 0.5195(5) 0.5026(4)
H28_2 H 0.7372 0.5694 0.5268
C41_2 C 0.7964(4) 0.4595(4) 0.5080(3)
H29_2 H 0.8410 0.4671 0.5368
C42_2 C 0.7936(4) 0.3871(4) 0.4708(3)
C43_2 C 0.7268(4) 0.3756(4) 0.4322(3)
H30_2 H 0.7239 0.3257 0.4080
C44_2 C 0.8601(4) 0.3203(4) 0.4779(3)
C45_2 C 0.9066(4) 0.3097(4) 0.5311(3)
H31_2 H 0.9008 0.3488 0.5642
C46_2 C 0.9615(4) 0.2431(4) 0.5369(3)
H32_2 H 0.9911 0.2370 0.5750
C47_2 C 0.9323(4) 0.1984(4) 0.4399(3)
H33_2 H 0.9414 0.1596 0.4070
C48_2 C 0.8753(4) 0.2631(4) 0.4304(3)
H34_2 H 0.8468 0.2683 0.3917
N7_2 N 0.3734(3) 0.6199(3) 0.1625(2)
N8_2 N 0.3801(3) 0.6266(3) 0.3375(2)
N9_2 N 0.1199(3) 0.1266(3) 0.4125(2)
N10_2 N 0.4938(3) 0.4564(3) 0.3173(2)
N11_2 N 0.5553(3) 0.4898(3) 0.3561(2)
N12_2 N 0.5567(3) 0.3528(3) 0.3621(2)
N13_2 N 0.5757(3) 0.2717(4) 0.3839(3)
H35_2 H 0.5265 0.2457 0.3940
H36_2 H 0.6023 0.2415 0.3542
N14_2 N 0.3129(3) 0.4754(3) 0.2428(3)
N15_2 N 0.5246(3) 0.6871(3) 0.2572(3)
N16_2 N 0.9754(3) 0.1871(3) 0.4928(3)
C16_2 C 0.4805(5) 0.2659(4) 0.9974(4)
H10_2 H 0.4306 0.2628 0.9732
C17_2 C 0.5405(4) 0.2036(4) 0.9920(3)
H11_2 H 0.5329 0.1590 0.9632
C21_2 C 0.6903(4) 0.0934(4) 0.9689(3)
H13_2 H 0.6512 0.0992 0.9358
C22_2 C 0.7569(4) 0.0385(4) 0.9631(3)
H14_2 H 0.7630 0.0089 0.9250
C1_3 C 0.3432(4) 0.7016(4) 0.3249(3)
H1_3 H 0.3600 0.7317 0.2889
C2_3 C 0.2817(4) 0.7357(4) 0.3630(3)
H2_3 H 0.2586 0.7893 0.3533
C3_3 C 0.2532(4) 0.6925(4) 0.4153(3)
C4_3 C 0.2975(4) 0.6189(4) 0.4303(3)
H3_3 H 0.2853 0.5892 0.4675
C5_3 C 0.3597(4) 0.5900(4) 0.3898(3)
H4_3 H 0.3893 0.5403 0.4010
C6_3 C 0.1814(4) 0.7226(4) 0.4526(3)
C7_3 C 0.1273(4) 0.7835(4) 0.4277(3)
H5_3 H 0.1387 0.8051 0.3874
C8_3 C 0.0587(3) 0.8129(4) 0.4592(2)
C9_3 C 0.0415(4) 0.7812(4) 0.5189(3)
C10_3 C 0.0959(5) 0.7225(5) 0.5447(3)
H7_3 H 0.0858 0.7023 0.5856
C11_3 C 0.1644(4) 0.6928(4) 0.5117(3)
H8_3 H 0.2002 0.6517 0.5299
C12_3 C 0.0032(4) 0.8757(4) 0.4293(3)
N2_3 N 0.0062(3) 0.9564(3) 0.4327(2)
C39_3 C 0.0078(5) 0.8328(4) 0.7122(3)
H27_3 H 0.0496 0.8754 0.7085
C40_3 C 0.0195(5) 0.7659(4) 0.7526(4)
H28_3 H 0.0694 0.7628 0.7768
C15_3 C 0.8328(4) 0.0078(5) 0.2878(3)
H9_3 H 0.8754 0.0496 0.2915
C16_3 C 0.7659(4) 0.0195(5) 0.2474(4)
H10_3 H 0.7628 0.0694 0.2232
C25_3 C 0.7016(4) 0.3432(4) 0.6751(3)
H19_3 H 0.7317 0.3600 0.7111
C26_3 C 0.7357(4) 0.2817(4) 0.6370(3)
H20_3 H 0.7893 0.2586 0.6467
C27_3 C 0.6925(4) 0.2532(4) 0.5847(3)
C28_3 C 0.6189(4) 0.2975(4) 0.5697(3)
H21_3 H 0.5892 0.2853 0.5325
C29_3 C 0.5900(4) 0.3597(4) 0.6102(3)
H22_3 H 0.5403 0.3893 0.5990
C30_3 C 0.7226(4) 0.1814(4) 0.5474(3)
C31_3 C 0.7835(4) 0.1273(4) 0.5723(3)
H23_3 H 0.8051 0.1387 0.6126
C32_3 C 0.8129(4) 0.0587(3) 0.5408(2)
C33_3 C 0.7812(4) 0.0415(4) 0.4811(3)
C34_3 C 0.7225(5) 0.0959(5) 0.4553(3)
H25_3 H 0.7023 0.0858 0.4144
C35_3 C 0.6928(4) 0.1644(4) 0.4883(3)
H26_3 H 0.6517 0.2002 0.4701
C36_3 C 0.8757(4) 0.0032(4) 0.5707(3)
N10_3 N 0.9564(3) 0.0062(3) 0.5673(2)
H6_3 H 0.9933 0.7996 0.5412
C13_3 C 0.9071(3) 0.9263(3) 0.3664(2)
C14_3 C 0.8371(4) 0.9344(3) 0.3228(3)
C17_3 C 0.7036(4) 0.9595(4) 0.2420(3)
H11_3 H 0.6590 0.9671 0.2132
C18_3 C 0.7064(4) 0.8871(4) 0.2792(3)
C19_3 C 0.7732(4) 0.8756(4) 0.3178(3)
H12_3 H 0.7761 0.8257 0.3420
C20_3 C 0.6399(4) 0.8203(4) 0.2721(3)
C21_3 C 0.5934(4) 0.8097(4) 0.2189(3)
H13_3 H 0.5992 0.8488 0.1858
C22_3 C 0.5385(4) 0.7431(4) 0.2131(3)
H14_3 H 0.5089 0.7370 0.1750
C23_3 C 0.5677(4) 0.6984(4) 0.3101(3)
H15_3 H 0.5586 0.6596 0.3430
C24_3 C 0.6247(4) 0.7631(4) 0.3196(3)
H16_3 H 0.6532 0.7683 0.3583
N3_3 N 0.9447(3) 0.9898(3) 0.3939(2)
N4_3 N 0.9433(3) 0.8528(3) 0.3879(2)
N5_3 N 0.9243(3) 0.7717(4) 0.3661(3)
H17_3 H 0.9735 0.7457 0.3560
H18_3 H 0.8977 0.7415 0.3958
H24_3 H 0.7996 0.9933 0.4588
C37_3 C 0.9263(3) 0.9071(3) 0.6336(2)
C38_3 C 0.9344(3) 0.8371(4) 0.6772(3)
C41_3 C 0.9595(4) 0.7036(4) 0.7580(3)
H29_3 H 0.9671 0.6590 0.7868
C42_3 C 0.8871(4) 0.7064(4) 0.7208(3)
C43_3 C 0.8756(4) 0.7732(4) 0.6822(3)
H30_3 H 0.8257 0.7761 0.6580
C44_3 C 0.8203(4) 0.6399(4) 0.7279(3)
C45_3 C 0.8097(4) 0.5934(4) 0.7811(3)
H31_3 H 0.8488 0.5992 0.8142
C46_3 C 0.7431(4) 0.5385(4) 0.7869(3)
H32_3 H 0.7370 0.5089 0.8250
C47_3 C 0.6984(4) 0.5677(4) 0.6899(3)
H33_3 H 0.6596 0.5586 0.6570
C48_3 C 0.7631(4) 0.6247(4) 0.6804(3)
H34_3 H 0.7683 0.6532 0.6417
N11_3 N 0.9898(3) 0.9447(3) 0.6061(2)
N12_3 N 0.8528(3) 0.9433(3) 0.6121(2)
N13_3 N 0.7717(4) 0.9243(3) 0.6339(3)
H35_3 H 0.7457 0.9735 0.6440
H36_3 H 0.7415 0.8977 0.6042
H6_4 H 0.0067 0.2004 0.0412
C37_4 C 0.0737(3) 0.0929(3) 0.1336(2)
C38_4 C 0.0656(3) 0.1629(4) 0.1772(3)
C41_4 C 0.0405(4) 0.2964(4) 0.2580(3)
H29_4 H 0.0329 0.3410 0.2868
C42_4 C 0.1129(4) 0.2936(4) 0.2208(3)
C43_4 C 0.1244(4) 0.2268(4) 0.1822(3)
H30_4 H 0.1743 0.2239 0.1580
C44_4 C 0.1797(4) 0.3601(4) 0.2279(3)
C45_4 C 0.1903(4) 0.4066(4) 0.2811(3)
H31_4 H 0.1512 0.4008 0.3142
C46_4 C 0.2569(4) 0.4615(4) 0.2869(3)
H32_4 H 0.2630 0.4911 0.3250
C47_4 C 0.3016(4) 0.4323(4) 0.1899(3)
H33_4 H 0.3404 0.4414 0.1570
C48_4 C 0.2369(4) 0.3753(4) 0.1804(3)
H34_4 H 0.2317 0.3468 0.1417
N11_4 N 0.0102(3) 0.0553(3) 0.1061(2)
N12_4 N 0.1472(3) 0.0567(3) 0.1121(2)
N13_4 N 0.2283(4) 0.0757(3) 0.1339(3)
H35_4 H 0.2543 0.0265 0.1440
H36_4 H 0.2585 0.1023 0.1042
C13_4 C 0.0929(3) 0.0737(3) 0.8664(2)
C14_4 C 0.1629(4) 0.0656(3) 0.8228(3)
C17_4 C 0.2964(4) 0.0405(4) 0.7420(3)
H11_4 H 0.3410 0.0329 0.7132
C18_4 C 0.2936(4) 0.1129(4) 0.7792(3)
C19_4 C 0.2268(4) 0.1244(4) 0.8178(3)
H12_4 H 0.2239 0.1743 0.8420
C20_4 C 0.3601(4) 0.1797(4) 0.7721(3)
C21_4 C 0.4066(4) 0.1903(4) 0.7189(3)
H13_4 H 0.4008 0.1512 0.6858
C22_4 C 0.4615(4) 0.2569(4) 0.7131(3)
H14_4 H 0.4911 0.2630 0.6750
C23_4 C 0.4323(4) 0.3016(4) 0.8101(3)
H15_4 H 0.4414 0.3404 0.8430
C24_4 C 0.3753(4) 0.2369(4) 0.8196(3)
H16_4 H 0.3468 0.2317 0.8583
N3_4 N 0.0553(3) 0.0102(3) 0.8939(2)
N4_4 N 0.0567(3) 0.1472(3) 0.8879(2)
N5_4 N 0.0757(3) 0.2283(4) 0.8661(3)
H17_4 H 0.0265 0.2543 0.8560
H18_4 H 0.1023 0.2585 0.8958
H24_4 H 0.2004 0.0067 0.9588
C25_4 C 0.2984(4) 0.6568(4) 0.1751(3)
H19_4 H 0.2683 0.6400 0.2111
C26_4 C 0.2643(4) 0.7183(4) 0.1370(3)
H20_4 H 0.2107 0.7414 0.1467
C27_4 C 0.3075(4) 0.7468(4) 0.0847(3)
C28_4 C 0.3811(4) 0.7025(4) 0.0697(3)
H21_4 H 0.4108 0.7147 0.0325
C29_4 C 0.4100(4) 0.6403(4) 0.1102(3)
H22_4 H 0.4597 0.6107 0.0990
C30_4 C 0.2774(4) 0.8186(4) 0.0474(3)
C31_4 C 0.2165(4) 0.8727(4) 0.0723(3)
H23_4 H 0.1949 0.8613 0.1126
C32_4 C 0.1871(4) 0.9413(3) 0.0408(2)
C36_4 C 0.1243(4) 0.9968(4) 0.0707(3)
N10_4 N 0.0436(3) 0.9938(3) 0.0673(2)
C15_4 C 0.1672(4) 0.9922(5) 0.7878(3)
H9_4 H 0.1246 0.9504 0.7915
C16_4 C 0.2341(4) 0.9805(5) 0.7474(4)
H10_4 H 0.2372 0.9306 0.7232
C33_4 C 0.2188(4) 0.9585(4) 0.9811(3)
C34_4 C 0.2775(5) 0.9041(5) 0.9553(3)
H25_4 H 0.2977 0.9142 0.9144
C35_4 C 0.3072(4) 0.8356(4) 0.9883(3)
H26_4 H 0.3483 0.7998 0.9701
C9_4 C 0.9585(4) 0.2188(4) 0.0189(3)
C10_4 C 0.9041(5) 0.2775(5) 0.0447(3)
H7_4 H 0.9142 0.2977 0.0856
C11_4 C 0.8356(4) 0.3072(4) 0.0117(3)
H8_4 H 0.7998 0.3483 0.0299
C39_4 C 0.9922(5) 0.1672(4) 0.2122(3)
H27_4 H 0.9504 0.1246 0.2085
C40_4 C 0.9805(5) 0.2341(4) 0.2526(4)
H28_4 H 0.9306 0.2372 0.2768
C1_4 C 0.6568(4) 0.2984(4) 0.8249(3)
H1_4 H 0.6400 0.2683 0.7889
C2_4 C 0.7183(4) 0.2643(4) 0.8630(3)
H2_4 H 0.7414 0.2107 0.8533
C3_4 C 0.7468(4) 0.3075(4) 0.9153(3)
C4_4 C 0.7025(4) 0.3811(4) 0.9303(3)
H3_4 H 0.7147 0.4108 0.9675
C5_4 C 0.6403(4) 0.4100(4) 0.8898(3)
H4_4 H 0.6107 0.4597 0.9010
C6_4 C 0.8186(4) 0.2774(4) 0.9526(3)
C7_4 C 0.8727(4) 0.2165(4) 0.9277(3)
H5_4 H 0.8613 0.1949 0.8874
C8_4 C 0.9413(3) 0.1871(4) 0.9592(2)
C12_4 C 0.9968(4) 0.1243(4) 0.9293(3)
N2_4 N 0.9938(3) 0.0436(3) 0.9327(2)
Cl1 Cl 0.11934(15) 0.88066(15) 0.2500
O1 O 0.1042(9) 0.8125(9) 0.2221(11)
O2 O 0.1208(19) 0.9338(11) 0.2131(6)
O3 O 0.1875(9) 0.8958(9) 0.2779(11)
O4 O 0.0662(11) 0.8792(19) 0.2869(6)
Cl1_2 Cl 0.88066(15) 0.11934(15) 0.7500
O1_2 O 0.8958(9) 0.1875(9) 0.7221(11)
O2_2 O 0.8792(19) 0.0662(11) 0.7131(6)
O3_2 O 0.8125(9) 0.1042(9) 0.7779(11)
O4_2 O 0.9338(11) 0.1208(19) 0.7869(6)
Cl1_3 Cl 0.61934(15) 0.61934(15) 0.0000
O3_3 O 0.6042(9) 0.6875(9) 0.0279(11)
O4_3 O 0.6208(19) 0.5662(11) 0.0369(6)
Cl1_4 Cl 0.61934(15) 0.61934(15) 1.0000
O1_3 O 0.6875(9) 0.6042(9) 0.9721(11)
O2_3 O 0.5662(11) 0.6208(19) 0.9631(6)
Cl1_5 Cl 0.38066(15) 0.38066(15) 0.5000
O1_4 O 0.3125(9) 0.3958(9) 0.4721(11)
O2_4 O 0.4338(11) 0.3792(19) 0.4631(6)
O3_4 O 0.3958(9) 0.3125(9) 0.5279(11)
O4_4 O 0.3792(19) 0.4338(11) 0.5369(6)
Cl2 Cl 0.22935(14) 0.22935(14) 0.0000
O7 O 0.2631(6) 0.2613(6) 0.0516(3)
O8 O 0.1490(11) 0.2942(12) 0.0095(18)
Cl2_2 Cl 0.22935(14) 0.22935(14) 1.0000
O5 O 0.2613(6) 0.2631(6) 0.9484(3)
O6 O 0.2942(12) 0.1490(11) 0.9905(18)
Cl2_3 Cl 0.77065(14) 0.77065(14) 0.5000
O5_2 O 0.7387(6) 0.7369(6) 0.4484(3)
O6_2 O 0.7058(12) 0.8510(11) 0.4905(18)
O7_2 O 0.7369(6) 0.7387(6) 0.5516(3)
O8_2 O 0.8510(11) 0.7058(12) 0.5095(18)
Cl2_4 Cl 0.27065(14) 0.72935(14) 0.7500
O5_3 O 0.2369(6) 0.7613(6) 0.6984(3)
O6_3 O 0.3510(11) 0.7942(12) 0.7405(18)
O7_3 O 0.2387(6) 0.7631(6) 0.8016(3)
O8_3 O 0.2058(12) 0.6490(11) 0.7595(18)
Cl2_5 Cl 0.72935(14) 0.27065(14) 0.2500
O5_4 O 0.7631(6) 0.2387(6) 0.1984(3)
O6_4 O 0.6490(11) 0.2058(12) 0.2405(18)
O7_4 O 0.7613(6) 0.2369(6) 0.3016(3)
O8_4 O 0.7942(12) 0.3510(11) 0.2595(18)
loop_
_geom_bond_atom_site_label_1
_geom_bond_atom_site_label_2
_geom_bond_site_symmetry_1
_geom_bond_site_symmetry_2
H28 C40 1_555 1_555
C41 C40 1_555 1_555
H29 C41 1_555 1_555
H31 C45 1_555 1_555
C46 C45 1_555 1_555
H32 C46 1_555 1_555
C1 H1 1_555 1_555
C2 C1 1_555 1_555
H2 C2 1_555 1_555
C3 C2 1_555 1_555
C4 C3 1_555 1_555
H3 C4 1_555 1_555
C5 C4 1_555 1_555
H4 C5 1_555 1_555
C6 C3 1_555 1_555
C7 C6 1_555 1_555
H5 C7 1_555 1_555
C8 C7 1_555 1_555
C9 C8 1_555 1_555
H6 C9 1_555 1_555
C10 C9 1_555 1_555
H7 C10 1_555 1_555
C11 C6 1_555 1_555
H8 C11 1_555 1_555
C12 C8 1_555 1_555
C13 C14 1_555 1_555
C14 C15 1_555 1_555
C15 H9 1_555 1_555
C16 C15 1_555 1_555
H10 C16 1_555 1_555
C17 C16 1_555 1_555
H11 C17 1_555 1_555
C18 C17 1_555 1_555
C19 C14 1_555 1_555
H12 C19 1_555 1_555
C20 C18 1_555 1_555
C21 C20 1_555 1_555
H13 C21 1_555 1_555
C22 C21 1_555 1_555
H14 C22 1_555 1_555
C23 H15 1_555 1_555
C24 C20 1_555 1_555
H16 C24 1_555 1_555
Cd1 N2 1_555 1_555
N1 C1 1_555 1_555
N2 C12 1_555 1_555
N3 C13 1_555 1_555
N4 C12 1_555 1_555
N5 N4 1_555 1_555
H17 N5 1_555 1_555
H18 N5 1_555 1_555
N6 C22 1_555 1_555
C25 H19 1_555 1_555
C26 C25 1_555 1_555
H20 C26 1_555 1_555
C27 C26 1_555 1_555
C28 C27 1_555 1_555
H21 C28 1_555 1_555
C29 C28 1_555 1_555
H22 C29 1_555 1_555
C30 C27 1_555 1_555
C31 C30 1_555 1_555
H23 C31 1_555 1_555
C32 C31 1_555 1_555
C33 C32 1_555 1_555
H24 C33 1_555 1_555
C34 C33 1_555 1_555
H25 C34 1_555 1_555
C35 C30 1_555 1_555
H26 C35 1_555 1_555
C36 C32 1_555 1_555
C37 C38 1_555 1_555
C38 C39 1_555 1_555
C39 H27 1_555 1_555
C43 C38 1_555 1_555
H30 C43 1_555 1_555
C44 C42 1_555 1_555
C47 H33 1_555 1_555
C48 C44 1_555 1_555
H34 C48 1_555 1_555
Cd4 N1 1_555 1_555
Cd3_2 N9 1_555 1_555
N7 Cd1 1_555 1_555
N8 Cd1 1_555 1_555
N9 C25 1_555 1_555
N10 Cd1 1_555 1_555
N11 C37 1_555 1_555
N12 C36 1_555 1_555
N13 N12 1_555 1_555
H35 N13 1_555 1_555
H36 N13 1_555 1_555
N14 Cd1 1_555 1_555
N15 Cd1 1_555 1_555
C5 N1 1_555 1_555
C10 C11 1_555 1_555
C13 N4 1_555 1_555
C18 C19 1_555 1_555
C23 C24 1_555 1_555
C23 N6 1_555 1_555
N2 N3 1_555 1_555
C29 N9 1_555 1_555
C34 C35 1_555 1_555
C36 N10 1_555 1_555
C37 N12 1_555 1_555
C42 C43 1_555 1_555
C47 C48 1_555 1_555
C47 N16 1_555 1_555
N10 N11 1_555 1_555
C1_2 H1_2 1_555 1_555
C2_2 C1_2 1_555 1_555
H2_2 C2_2 1_555 1_555
C3_2 C2_2 1_555 1_555
C4_2 C3_2 1_555 1_555
H3_2 C4_2 1_555 1_555
C5_2 C4_2 1_555 1_555
H4_2 C5_2 1_555 1_555
C6_2 C3_2 1_555 1_555
C7_2 C6_2 1_555 1_555
H5_2 C7_2 1_555 1_555
C8_2 C7_2 1_555 1_555
C9_2 C8_2 1_555 1_555
H6_2 C9_2 1_555 1_555
C10_2 C9_2 1_555 1_555
H7_2 C10_2 1_555 1_555
C11_2 C6_2 1_555 1_555
H8_2 C11_2 1_555 1_555
C12_2 C8_2 1_555 1_555
C13_2 C14_2 1_555 1_555
C14_2 C15_2 1_555 1_555
C15_2 H9_2 1_555 1_555
C19_2 C14_2 1_555 1_555
H12_2 C19_2 1_555 1_555
C20_2 C18_2 1_555 1_555
C23_2 H15_2 1_555 1_555
C24_2 C20_2 1_555 1_555
H16_2 C24_2 1_555 1_555
Cd1_2 N2_2 1_555 1_555
N1_2 C1_2 1_555 1_555
N2_2 C12_2 1_555 1_555
N3_2 C13_2 1_555 1_555
N4_2 C12_2 1_555 1_555
N5_2 N4_2 1_555 1_555
H17_2 N5_2 1_555 1_555
H18_2 N5_2 1_555 1_555
C25_2 H19_2 1_555 1_555
C26_2 C25_2 1_555 1_555
H20_2 C26_2 1_555 1_555
C27_2 C26_2 1_555 1_555
C28_2 C27_2 1_555 1_555
H21_2 C28_2 1_555 1_555
C29_2 C28_2 1_555 1_555
H22_2 C29_2 1_555 1_555
C30_2 C27_2 1_555 1_555
C31_2 C30_2 1_555 1_555
H23_2 C31_2 1_555 1_555
C32_2 C31_2 1_555 1_555
C33_2 C32_2 1_555 1_555
H24_2 C33_2 1_555 1_555
C34_2 C33_2 1_555 1_555
H25_2 C34_2 1_555 1_555
C35_2 C30_2 1_555 1_555
H26_2 C35_2 1_555 1_555
C36_2 C32_2 1_555 1_555
C37_2 C38_2 1_555 1_555
C38_2 C39_2 1_555 1_555
C39_2 H27_2 1_555 1_555
C40_2 C39_2 1_555 1_555
H28_2 C40_2 1_555 1_555
C41_2 C40_2 1_555 1_555
H29_2 C41_2 1_555 1_555
C42_2 C41_2 1_555 1_555
C43_2 C38_2 1_555 1_555
H30_2 C43_2 1_555 1_555
C44_2 C42_2 1_555 1_555
C45_2 C44_2 1_555 1_555
H31_2 C45_2 1_555 1_555
C46_2 C45_2 1_555 1_555
H32_2 C46_2 1_555 1_555
C47_2 H33_2 1_555 1_555
C48_2 C44_2 1_555 1_555
H34_2 C48_2 1_555 1_555
Cd3 N1_2 1_555 1_555
Cd4 N9_2 1_555 1_555
N7_2 Cd1_2 1_555 1_555
N8_2 Cd1_2 1_555 1_555
N9_2 C25_2 1_555 1_555
N10_2 Cd1_2 1_555 1_555
N11_2 C37_2 1_555 1_555
N12_2 C36_2 1_555 1_555
N13_2 N12_2 1_555 1_555
H35_2 N13_2 1_555 1_555
H36_2 N13_2 1_555 1_555
N14_2 Cd1_2 1_555 1_555
N15_2 Cd1_2 1_555 1_555
N16_2 C46_2 1_555 1_555
C5_2 N1_2 1_555 1_555
C10_2 C11_2 1_555 1_555
C13_2 N4_2 1_555 1_555
C18_2 C19_2 1_555 1_555
C23_2 C24_2 1_555 1_555
C23_2 N6_2 1_555 1_555
N2_2 N3_2 1_555 1_555
C29_2 N9_2 1_555 1_555
C34_2 C35_2 1_555 1_555
C36_2 N10_2 1_555 1_555
C37_2 N12_2 1_555 1_555
C42_2 C43_2 1_555 1_555
C47_2 C48_2 1_555 1_555
C47_2 N16_2 1_555 1_555
N10_2 N11_2 1_555 1_555
H10_2 C16_2 1_555 1_555
C17_2 C16_2 1_555 1_555
H11_2 C17_2 1_555 1_555
H13_2 C21_2 1_555 1_555
C22_2 C21_2 1_555 1_555
H14_2 C22_2 1_555 1_555
C1_3 H1_3 1_555 1_555
C2_3 C1_3 1_555 1_555
H2_3 C2_3 1_555 1_555
C3_3 C2_3 1_555 1_555
C4_3 C3_3 1_555 1_555
H3_3 C4_3 1_555 1_555
C5_3 C4_3 1_555 1_555
H4_3 C5_3 1_555 1_555
C6_3 C3_3 1_555 1_555
C7_3 C6_3 1_555 1_555
H5_3 C7_3 1_555 1_555
C8_3 C7_3 1_555 1_555
C9_3 C8_3 1_555 1_555
C10_3 C9_3 1_555 1_555
H7_3 C10_3 1_555 1_555
C11_3 C6_3 1_555 1_555
H8_3 C11_3 1_555 1_555
C12_3 C8_3 1_555 1_555
N8_2 C1_3 1_555 1_555
N2_3 C12_3 1_555 1_555
C39_3 H27_3 1_555 1_555
C40_3 C39_3 1_555 1_555
H28_3 C40_3 1_555 1_555
C5_3 N8_2 1_555 1_555
C10_3 C11_3 1_555 1_555
C15_3 H9_3 1_555 1_555
C16_3 C15_3 1_555 1_555
H10_3 C16_3 1_555 1_555
C25_3 H19_3 1_555 1_555
C26_3 C25_3 1_555 1_555
H20_3 C26_3 1_555 1_555
C27_3 C26_3 1_555 1_555
C28_3 C27_3 1_555 1_555
H21_3 C28_3 1_555 1_555
C29_3 C28_3 1_555 1_555
H22_3 C29_3 1_555 1_555
C30_3 C27_3 1_555 1_555
C31_3 C30_3 1_555 1_555
H23_3 C31_3 1_555 1_555
C32_3 C31_3 1_555 1_555
C33_3 C32_3 1_555 1_555
C34_3 C33_3 1_555 1_555
H25_3 C34_3 1_555 1_555
C35_3 C30_3 1_555 1_555
H26_3 C35_3 1_555 1_555
C36_3 C32_3 1_555 1_555
N7 C25_3 1_555 1_555
C29_3 N7 1_555 1_555
C34_3 C35_3 1_555 1_555
C36_3 N10_3 1_555 1_555
C13_3 C14_3 1_555 1_555
H11_3 C17_3 1_555 1_555
C18_3 C17_3 1_555 1_555
C19_3 C14_3 1_555 1_555
H12_3 C19_3 1_555 1_555
C20_3 C18_3 1_555 1_555
C21_3 C20_3 1_555 1_555
H13_3 C21_3 1_555 1_555
C22_3 C21_3 1_555 1_555
H14_3 C22_3 1_555 1_555
C23_3 H15_3 1_555 1_555
C24_3 C20_3 1_555 1_555
H16_3 C24_3 1_555 1_555
N3_3 C13_3 1_555 1_555
N5_3 N4_3 1_555 1_555
H17_3 N5_3 1_555 1_555
H18_3 N5_3 1_555 1_555
N15_2 C22_3 1_555 1_555
C37_3 C38_3 1_555 1_555
H29_3 C41_3 1_555 1_555
C42_3 C41_3 1_555 1_555
C43_3 C38_3 1_555 1_555
H30_3 C43_3 1_555 1_555
C44_3 C42_3 1_555 1_555
C45_3 C44_3 1_555 1_555
H31_3 C45_3 1_555 1_555
C46_3 C45_3 1_555 1_555
H32_3 C46_3 1_555 1_555
C47_3 H33_3 1_555 1_555
C48_3 C44_3 1_555 1_555
H34_3 C48_3 1_555 1_555
N11_3 C37_3 1_555 1_555
N13_3 N12_3 1_555 1_555
H35_3 N13_3 1_555 1_555
H36_3 N13_3 1_555 1_555
N14 C46_3 1_555 1_555
C13_3 N4_3 1_555 1_555
C18_3 C19_3 1_555 1_555
C23_3 C24_3 1_555 1_555
C23_3 N15_2 1_555 1_555
C37_3 N12_3 1_555 1_555
C42_3 C43_3 1_555 1_555
C47_3 C48_3 1_555 1_555
C47_3 N14 1_555 1_555
C37_4 C38_4 1_555 1_555
H29_4 C41_4 1_555 1_555
C42_4 C41_4 1_555 1_555
C43_4 C38_4 1_555 1_555
H30_4 C43_4 1_555 1_555
C44_4 C42_4 1_555 1_555
C45_4 C44_4 1_555 1_555
H31_4 C45_4 1_555 1_555
C46_4 C45_4 1_555 1_555
H32_4 C46_4 1_555 1_555
C47_4 H33_4 1_555 1_555
C48_4 C44_4 1_555 1_555
H34_4 C48_4 1_555 1_555
N11_4 C37_4 1_555 1_555
N13_4 N12_4 1_555 1_555
H35_4 N13_4 1_555 1_555
H36_4 N13_4 1_555 1_555
N14_2 C46_4 1_555 1_555
C37_4 N12_4 1_555 1_555
C42_4 C43_4 1_555 1_555
C47_4 C48_4 1_555 1_555
C47_4 N14_2 1_555 1_555
C13_4 C14_4 1_555 1_555
H11_4 C17_4 1_555 1_555
C18_4 C17_4 1_555 1_555
C19_4 C14_4 1_555 1_555
H12_4 C19_4 1_555 1_555
C20_4 C18_4 1_555 1_555
C21_4 C20_4 1_555 1_555
H13_4 C21_4 1_555 1_555
C22_4 C21_4 1_555 1_555
H14_4 C22_4 1_555 1_555
C23_4 H15_4 1_555 1_555
C24_4 C20_4 1_555 1_555
H16_4 C24_4 1_555 1_555
N3_4 C13_4 1_555 1_555
N5_4 N4_4 1_555 1_555
H17_4 N5_4 1_555 1_555
H18_4 N5_4 1_555 1_555
N15 C22_4 1_555 1_555
C13_4 N4_4 1_555 1_555
C18_4 C19_4 1_555 1_555
C23_4 C24_4 1_555 1_555
C23_4 N15 1_555 1_555
C25_4 H19_4 1_555 1_555
C26_4 C25_4 1_555 1_555
H20_4 C26_4 1_555 1_555
C27_4 C26_4 1_555 1_555
C28_4 C27_4 1_555 1_555
H21_4 C28_4 1_555 1_555
C29_4 C28_4 1_555 1_555
H22_4 C29_4 1_555 1_555
C30_4 C27_4 1_555 1_555
C31_4 C30_4 1_555 1_555
H23_4 C31_4 1_555 1_555
C32_4 C31_4 1_555 1_555
C36_4 C32_4 1_555 1_555
N7_2 C25_4 1_555 1_555
C29_4 N7_2 1_555 1_555
C36_4 N10_4 1_555 1_555
C15_4 H9_4 1_555 1_555
C16_4 C15_4 1_555 1_555
H10_4 C16_4 1_555 1_555
C34_4 C33_4 1_555 1_555
H25_4 C34_4 1_555 1_555
H26_4 C35_4 1_555 1_555
C34_4 C35_4 1_555 1_555
C10_4 C9_4 1_555 1_555
H7_4 C10_4 1_555 1_555
H8_4 C11_4 1_555 1_555
C39_4 H27_4 1_555 1_555
C40_4 C39_4 1_555 1_555
H28_4 C40_4 1_555 1_555
C10_4 C11_4 1_555 1_555
C1_4 H1_4 1_555 1_555
C2_4 C1_4 1_555 1_555
H2_4 C2_4 1_555 1_555
C3_4 C2_4 1_555 1_555
C4_4 C3_4 1_555 1_555
H3_4 C4_4 1_555 1_555
C5_4 C4_4 1_555 1_555
H4_4 C5_4 1_555 1_555
C6_4 C3_4 1_555 1_555
C7_4 C6_4 1_555 1_555
H5_4 C7_4 1_555 1_555
C8_4 C7_4 1_555 1_555
C12_4 C8_4 1_555 1_555
N8 C1_4 1_555 1_555
N2_4 C12_4 1_555 1_555
C5_4 N8 1_555 1_555
Cl1 O1 1_555 1_555
O2 Cl1 1_555 1_555
O3 Cl1 1_555 1_555
O4 Cl1 1_555 1_555
Cl1_2 O1_2 1_555 1_555
O2_2 Cl1_2 1_555 1_555
O3_2 Cl1_2 1_555 1_555
O4_2 Cl1_2 1_555 1_555
O3_3 Cl1_3 1_555 1_555
O4_3 Cl1_3 1_555 1_555
Cl1_4 O1_3 1_555 1_555
O2_3 Cl1_4 1_555 1_555
Cl1_5 O1_4 1_555 1_555
O2_4 Cl1_5 1_555 1_555
O3_4 Cl1_5 1_555 1_555
O4_4 Cl1_5 1_555 1_555
O7 Cl2 1_555 1_555
O8 Cl2 1_555 1_555
Cl2_2 O5 1_555 1_555
O6 Cl2_2 1_555 1_555
Cl2_3 O5_2 1_555 1_555
O6_2 Cl2_3 1_555 1_555
O7_2 Cl2_3 1_555 1_555
O8_2 Cl2_3 1_555 1_555
Cl2_4 O5_3 1_555 1_555
O6_3 Cl2_4 1_555 1_555
O7_3 Cl2_4 1_555 1_555
O8_3 Cl2_4 1_555 1_555
Cl2_5 O5_4 1_555 1_555
O6_4 Cl2_5 1_555 1_555
O7_4 Cl2_5 1_555 1_555
O8_4 Cl2_5 1_555 1_555

#END
