
###############################################################################
#
# This file contains modified crystal structure data generated from the
# MOF subset of the Cambridge Structural Database (CSD) v543 
# hosted by the Cambridge Crystallographic Data Centre (CCDC).
#
# This work is licensed under the Creative Commons
# Attribution-NonCommercial-ShareAlike 4.0 International License.
# To view a copy of this license, visit
# http://creativecommons.org/licenses/by-nc-sa/4.0/
# or send a letter to
# Creative Commons, PO Box 1866, Mountain View, CA 94042, USA.
#
# CIF created using the CSD Python API on 29 September 2022
# The structure has been converted into the P1 space group
# The structure has a 3D framework
# The original CSD entry OKIYIR is in the tetragonal crystal system
# The original CSD entry OKIYIR is in a Sohncke space group
# The framework has been calculated to contain at least 10.0% void space
# The void calculation uses a probe of radius 1.32A, grid spacing 0.4
# The framework is charged, counterions have been retained in the structure
#
###############################################################################

data_OKIYIR
_chemical_formula_moiety         '(C192 H144 Cd3 Cl10 N48 O32 2-)n'
_symmetry_cell_setting           triclinic
_symmetry_space_group_name_H-M   'P 1'
_symmetry_Int_Tables_number      1
_space_group_name_Hall           'P 1'
loop_
_symmetry_equiv_pos_site_id
_symmetry_equiv_pos_as_xyz
1 x,y,z
_cell_length_a                   15.8508(9)
_cell_length_b                   15.8508(9)
_cell_length_c                   21.766(2)
_cell_angle_alpha                90
_cell_angle_beta                 90
_cell_angle_gamma                90
_cell_volume                     5468.66
loop_
_atom_site_label
_atom_site_type_symbol
_atom_site_fract_x
_atom_site_fract_y
_atom_site_fract_z
C32 C 0.2311(4) 0.0180(5) 0.0004(4)
H24 H 0.2341 0.0672 0.0237
C13 C 0.1256(3) 0.0045(4) 0.6803(2)
C14 C 0.1873(4) 0.0613(3) 0.7109(3)
C15 C 0.2170(4) 0.0452(4) 0.7694(3)
C16 C 0.2751(5) 0.1002(4) 0.7960(3)
H10 H 0.2942 0.0907 0.8358
C17 C 0.3046(4) 0.1693(4) 0.7630(3)
H11 H 0.3440 0.2052 0.7806
C18 C 0.2758(4) 0.1849(4) 0.7041(3)
C19 C 0.2162(4) 0.1303(4) 0.6788(3)
H12 H 0.1957 0.1407 0.6395
C20 C 0.3067(4) 0.2573(4) 0.6666(3)
C21 C 0.3827(4) 0.2985(4) 0.6796(3)
H13 H 0.4126 0.2855 0.7152
C22 C 0.4130(4) 0.3587(4) 0.6395(3)
H14 H 0.4631 0.3860 0.6493
C23 C 0.2986(4) 0.3440(4) 0.5775(3)
H15 H 0.2683 0.3601 0.5428
C24 C 0.2634(4) 0.2855(4) 0.6153(3)
H16 H 0.2099 0.2643 0.6067
N3 N 0.0439(3) 0.0068(3) 0.6838(2)
N6 N 0.3738(3) 0.3801(3) 0.5868(2)
C33 C 0.1638(4) 0.0063(4) 0.9610(3)
H25 H 0.1208 0.0461 0.9586
Cd2 Cd 0.44031(2) 0.44031(2) 0.5000
N8 N 0.0237(3) 0.1885(3) 0.7587(2)
C25 C 0.4643(4) 0.7471(4) 0.0345(3)
H19 H 0.4952 0.7433 0.0707
C26 C 0.4082(4) 0.8132(4) 0.0279(3)
H20 H 0.4035 0.8533 0.0589
C31 C 0.2934(4) 0.9587(4) 0.0060(4)
H23 H 0.3367 0.9670 0.0342
Cd5 Cd 0.55969(2) 0.55969(2) 0.0000
C1 C 0.2529(4) 0.5357(4) 0.4655(3)
H1 H 0.2567 0.5048 0.4293
C2 C 0.1868(4) 0.5918(4) 0.4721(3)
H2 H 0.1467 0.5965 0.4411
C3 C 0.1796(4) 0.6407(4) 0.5238(3)
C4 C 0.2392(4) 0.6256(4) 0.5696(3)
H3 H 0.2359 0.6545 0.6067
C5 C 0.3030(4) 0.5678(4) 0.5600(3)
H4 H 0.3421 0.5594 0.5913
C6 C 0.1140(4) 0.7071(4) 0.5301(3)
C7 C 0.0413(4) 0.7066(4) 0.4940(4)
H5 H 0.0330 0.6633 0.4658
C10 C 0.0663(3) 0.8387(4) 0.5753(3)
C11 C 0.1258(4) 0.7743(4) 0.5708(3)
H8 H 0.1739 0.7761 0.5952
C12 C 0.0750(3) 0.9084(3) 0.6187(2)
H9 H 0.1983 0.9980 0.7909
N1 N 0.3115(3) 0.5237(3) 0.5087(2)
N2 N 0.0110(3) 0.9458(3) 0.6453(2)
N4 N 0.1484(3) 0.9439(3) 0.6399(2)
N5 N 0.2304(4) 0.9254(3) 0.6190(3)
H17 H 0.2584 0.9735 0.6134
H18 H 0.2570 0.8942 0.6469
C27 C 0.3593(4) 0.8204(4) 0.9762(3)
C28 C 0.3744(4) 0.7608(4) 0.9304(3)
H21 H 0.3455 0.7641 0.8933
C29 C 0.4322(4) 0.6970(4) 0.9400(3)
H22 H 0.4406 0.6579 0.9087
C30 C 0.2929(4) 0.8860(4) 0.9699(3)
C34 C 0.1613(4) 0.9337(3) 0.9247(3)
C35 C 0.2257(4) 0.8742(4) 0.9292(3)
H26 H 0.2239 0.8261 0.9048
C36 C 0.0916(3) 0.9250(3) 0.8813(2)
H27 H 0.0020 0.8017 0.7091
Cd5_2 Cd 0.55969(2) 0.55969(2) 1.0000
N9 N 0.4763(3) 0.6885(3) 0.9913(2)
N10 N 0.0542(3) 0.9890(3) 0.8547(2)
N12 N 0.0561(3) 0.8516(3) 0.8601(2)
N13 N 0.0746(3) 0.7696(4) 0.8810(3)
H35 H 0.0265 0.7416 0.8866
H36 H 0.1058 0.7430 0.8531
Cd1 Cd 0.94031(2) 0.05969(2) 0.7500
N14 N 0.8801(3) 0.1262(3) 0.8368(2)
N15 N 0.8738(3) 0.1199(3) 0.6632(2)
C8 C 0.9820(5) 0.7689(4) 0.4996(4)
H6 H 0.9328 0.7659 0.4763
C9 C 0.9937(4) 0.8362(4) 0.5390(3)
H7 H 0.9539 0.8792 0.5414
C37 C 0.9955(4) 0.8744(3) 0.8197(2)
C38 C 0.9387(3) 0.8127(4) 0.7891(3)
C39 C 0.9548(4) 0.7830(4) 0.7306(3)
C40 C 0.8998(4) 0.7249(5) 0.7040(3)
H28 H 0.9093 0.7058 0.6642
C41 C 0.8307(4) 0.6954(4) 0.7370(3)
H29 H 0.7948 0.6560 0.7194
C42 C 0.8151(4) 0.7242(4) 0.7959(3)
C43 C 0.8697(4) 0.7838(4) 0.8212(3)
H30 H 0.8593 0.8043 0.8605
C44 C 0.7427(4) 0.6933(4) 0.8334(3)
C45 C 0.7015(4) 0.6173(4) 0.8204(3)
H31 H 0.7145 0.5874 0.7848
C46 C 0.6413(4) 0.5870(4) 0.8605(3)
H32 H 0.6140 0.5369 0.8507
C47 C 0.6560(4) 0.7014(4) 0.9225(3)
H33 H 0.6399 0.7317 0.9572
C48 C 0.7145(4) 0.7366(4) 0.8847(3)
H34 H 0.7357 0.7901 0.8933
N7 N 0.8115(3) 0.9763(3) 0.7413(2)
N11 N 0.9932(3) 0.9561(3) 0.8162(2)
N16 N 0.6199(3) 0.6262(3) 0.9132(2)
C9_2 C 0.0063(4) 0.1638(4) 0.0390(3)
H7_2 H 0.0461 0.1208 0.0414
C37_2 C 0.0045(4) 0.1256(3) 0.3197(2)
C38_2 C 0.0613(3) 0.1873(4) 0.2891(3)
C39_2 C 0.0452(4) 0.2170(4) 0.2306(3)
C40_2 C 0.1002(4) 0.2751(5) 0.2040(3)
H28_2 H 0.0907 0.2942 0.1642
C41_2 C 0.1693(4) 0.3046(4) 0.2370(3)
H29_2 H 0.2052 0.3440 0.2194
C42_2 C 0.1849(4) 0.2758(4) 0.2959(3)
C43_2 C 0.1303(4) 0.2162(4) 0.3212(3)
H30_2 H 0.1407 0.1957 0.3605
C44_2 C 0.2573(4) 0.3067(4) 0.3334(3)
C45_2 C 0.2985(4) 0.3827(4) 0.3204(3)
H31_2 H 0.2855 0.4126 0.2848
C46_2 C 0.3587(4) 0.4130(4) 0.3605(3)
H32_2 H 0.3860 0.4631 0.3507
C47_2 C 0.3440(4) 0.2986(4) 0.4225(3)
H33_2 H 0.3601 0.2683 0.4572
C48_2 C 0.2855(4) 0.2634(4) 0.3847(3)
H34_2 H 0.2643 0.2099 0.3933
N7_2 N 0.1885(3) 0.0237(3) 0.2413(2)
N11_2 N 0.0068(3) 0.0439(3) 0.3162(2)
N16_2 N 0.3801(3) 0.3738(3) 0.4132(2)
Cd1_2 Cd 0.05969(2) 0.94031(2) 0.2500
N14_2 N 0.1199(3) 0.8738(3) 0.3368(2)
N15_2 N 0.1262(3) 0.8801(3) 0.1632(2)
C3_2 C 0.8204(4) 0.3593(4) 0.0238(3)
C4_2 C 0.7608(4) 0.3744(4) 0.0696(3)
H3_2 H 0.7641 0.3455 0.1067
C5_2 C 0.6970(4) 0.4322(4) 0.0600(3)
H4_2 H 0.6579 0.4406 0.0913
C6_2 C 0.8860(4) 0.2929(4) 0.0301(3)
C10_2 C 0.9337(3) 0.1613(4) 0.0753(3)
C11_2 C 0.8742(4) 0.2257(4) 0.0708(3)
H8_2 H 0.8261 0.2239 0.0952
C12_2 C 0.9250(3) 0.0916(3) 0.1187(2)
H9_2 H 0.8017 0.0020 0.2909
N1_2 N 0.6885(3) 0.4763(3) 0.0087(2)
N2_2 N 0.9890(3) 0.0542(3) 0.1453(2)
N4_2 N 0.8516(3) 0.0561(3) 0.1399(2)
N5_2 N 0.7696(4) 0.0746(3) 0.1190(3)
H17_2 H 0.7416 0.0265 0.1134
H18_2 H 0.7430 0.1058 0.1469
C25_2 C 0.5357(4) 0.2529(4) 0.5345(3)
H19_2 H 0.5048 0.2567 0.5707
C26_2 C 0.5918(4) 0.1868(4) 0.5279(3)
H20_2 H 0.5965 0.1467 0.5589
C27_2 C 0.6407(4) 0.1796(4) 0.4762(3)
C28_2 C 0.6256(4) 0.2392(4) 0.4304(3)
H21_2 H 0.6545 0.2359 0.3933
C29_2 C 0.5678(4) 0.3030(4) 0.4400(3)
H22_2 H 0.5594 0.3421 0.4087
C30_2 C 0.7071(4) 0.1140(4) 0.4699(3)
C31_2 C 0.7066(4) 0.0413(4) 0.5060(4)
H23_2 H 0.6633 0.0330 0.5342
C34_2 C 0.8387(4) 0.0663(3) 0.4247(3)
C35_2 C 0.7743(4) 0.1258(4) 0.4292(3)
H26_2 H 0.7761 0.1739 0.4048
C36_2 C 0.9084(3) 0.0750(3) 0.3813(2)
H27_2 H 0.9980 0.1983 0.2091
N9_2 N 0.5237(3) 0.3115(3) 0.4913(2)
N10_2 N 0.9458(3) 0.0110(3) 0.3547(2)
N12_2 N 0.9439(3) 0.1484(3) 0.3601(2)
N13_2 N 0.9254(3) 0.2304(4) 0.3810(3)
H35_2 H 0.9735 0.2584 0.3866
H36_2 H 0.8942 0.2570 0.3531
C1_2 C 0.7471(4) 0.4643(4) 0.9655(3)
H1_2 H 0.7433 0.4952 0.9293
C2_2 C 0.8132(4) 0.4082(4) 0.9721(3)
H2_2 H 0.8533 0.4035 0.9411
C7_2 C 0.9587(4) 0.2934(4) 0.9940(4)
H5_2 H 0.9670 0.3367 0.9658
C13_2 C 0.8744(3) 0.9955(4) 0.1803(2)
C14_2 C 0.8127(4) 0.9387(3) 0.2109(3)
C15_2 C 0.7830(4) 0.9548(4) 0.2694(3)
C16_2 C 0.7249(5) 0.8998(4) 0.2960(3)
H10_2 H 0.7058 0.9093 0.3358
C17_2 C 0.6954(4) 0.8307(4) 0.2630(3)
H11_2 H 0.6560 0.7948 0.2806
C18_2 C 0.7242(4) 0.8151(4) 0.2041(3)
C19_2 C 0.7838(4) 0.8697(4) 0.1788(3)
H12_2 H 0.8043 0.8593 0.1395
C20_2 C 0.6933(4) 0.7427(4) 0.1666(3)
C21_2 C 0.6173(4) 0.7015(4) 0.1796(3)
H13_2 H 0.5874 0.7145 0.2152
C22_2 C 0.5870(4) 0.6413(4) 0.1395(3)
H14_2 H 0.5369 0.6140 0.1493
C23_2 C 0.7014(4) 0.6560(4) 0.0775(3)
H15_2 H 0.7317 0.6399 0.0428
C24_2 C 0.7366(4) 0.7145(4) 0.1153(3)
H16_2 H 0.7901 0.7357 0.1067
N3_2 N 0.9561(3) 0.9932(3) 0.1838(2)
N6_2 N 0.6262(3) 0.6199(3) 0.0868(2)
C32_2 C 0.7689(4) 0.9820(5) 0.5004(4)
H24_2 H 0.7659 0.9328 0.5237
C33_2 C 0.8362(4) 0.9937(4) 0.4610(3)
H25_2 H 0.8792 0.9539 0.4586
N8_2 N 0.9763(3) 0.8115(3) 0.2587(2)
C1_3 C 0.9643(4) 0.7529(4) 0.2155(3)
H1_3 H 0.9952 0.7567 0.1793
C2_3 C 0.9082(4) 0.6868(4) 0.2221(3)
H2_3 H 0.9035 0.6467 0.1911
C3_3 C 0.8593(4) 0.6796(4) 0.2738(3)
C4_3 C 0.8744(4) 0.7392(4) 0.3196(3)
H3_3 H 0.8455 0.7359 0.3567
C5_3 C 0.9322(4) 0.8030(4) 0.3100(3)
H4_3 H 0.9406 0.8421 0.3413
C6_3 C 0.7929(4) 0.6140(4) 0.2801(3)
C7_3 C 0.7934(4) 0.5413(4) 0.2440(4)
H5_3 H 0.8367 0.5330 0.2158
C8_2 C 0.7311(4) 0.4820(5) 0.2496(4)
H6_2 H 0.7341 0.4328 0.2263
C9_3 C 0.6638(4) 0.4937(4) 0.2890(3)
H7_3 H 0.6208 0.4539 0.2914
C10_3 C 0.6613(4) 0.5663(3) 0.3253(3)
C11_3 C 0.7257(4) 0.6258(4) 0.3208(3)
H8_3 H 0.7239 0.6739 0.3452
C12_3 C 0.5916(3) 0.5750(3) 0.3687(2)
C13_3 C 0.4955(4) 0.6256(3) 0.4303(2)
C14_3 C 0.4387(3) 0.6873(4) 0.4609(3)
C15_3 C 0.4548(4) 0.7170(4) 0.5194(3)
H9_3 H 0.5020 0.6983 0.5409
C16_3 C 0.3998(4) 0.7751(5) 0.5460(3)
H10_3 H 0.4093 0.7942 0.5858
C17_3 C 0.3307(4) 0.8046(4) 0.5130(3)
H11_3 H 0.2948 0.8440 0.5306
C18_3 C 0.3151(4) 0.7758(4) 0.4541(3)
C19_3 C 0.3697(4) 0.7162(4) 0.4288(3)
H12_3 H 0.3593 0.6957 0.3895
C20_3 C 0.2427(4) 0.8067(4) 0.4166(3)
C21_3 C 0.2015(4) 0.8827(4) 0.4296(3)
H13_3 H 0.2145 0.9126 0.4652
C22_3 C 0.1413(4) 0.9130(4) 0.3895(3)
H14_3 H 0.1140 0.9631 0.3993
C23_3 C 0.1560(4) 0.7986(4) 0.3275(3)
H15_3 H 0.1399 0.7683 0.2928
C24_3 C 0.2145(4) 0.7634(4) 0.3653(3)
H16_3 H 0.2357 0.7099 0.3567
N2_3 N 0.5542(3) 0.5110(3) 0.3953(2)
N3_3 N 0.4932(3) 0.5439(3) 0.4338(2)
N4_3 N 0.5561(3) 0.6484(3) 0.3899(2)
N5_3 N 0.5746(3) 0.7304(4) 0.3690(3)
H17_3 H 0.5265 0.7584 0.3634
H18_3 H 0.6058 0.7570 0.3969
C25_3 C 0.7529(4) 0.9643(4) 0.7845(3)
H19_3 H 0.7567 0.9952 0.8207
C26_3 C 0.6868(4) 0.9082(4) 0.7779(3)
H20_3 H 0.6467 0.9035 0.8089
C27_3 C 0.6796(4) 0.8593(4) 0.7262(3)
C28_3 C 0.7392(4) 0.8744(4) 0.6804(3)
H21_3 H 0.7359 0.8455 0.6433
C29_3 C 0.8030(4) 0.9322(4) 0.6900(3)
H22_3 H 0.8421 0.9406 0.6587
C30_3 C 0.6140(4) 0.7929(4) 0.7199(3)
C31_3 C 0.5413(4) 0.7934(4) 0.7560(4)
H23_3 H 0.5330 0.8367 0.7842
C32_3 C 0.4820(5) 0.7311(4) 0.7504(4)
H24_3 H 0.4328 0.7341 0.7737
C33_3 C 0.4937(4) 0.6638(4) 0.7110(3)
H25_3 H 0.4539 0.6208 0.7086
C34_3 C 0.5663(3) 0.6613(4) 0.6747(3)
C35_3 C 0.6258(4) 0.7257(4) 0.6792(3)
H26_3 H 0.6739 0.7239 0.6548
C36_3 C 0.5750(3) 0.5916(3) 0.6313(2)
C37_3 C 0.6256(3) 0.4955(4) 0.5697(2)
C38_3 C 0.6873(4) 0.4387(3) 0.5391(3)
C39_3 C 0.7170(4) 0.4548(4) 0.4806(3)
H27_3 H 0.6983 0.5020 0.4591
C40_3 C 0.7751(5) 0.3998(4) 0.4540(3)
H28_3 H 0.7942 0.4093 0.4142
C41_3 C 0.8046(4) 0.3307(4) 0.4870(3)
H29_3 H 0.8440 0.2948 0.4694
C42_3 C 0.7758(4) 0.3151(4) 0.5459(3)
C43_3 C 0.7162(4) 0.3697(4) 0.5712(3)
H30_3 H 0.6957 0.3593 0.6105
C44_3 C 0.8067(4) 0.2427(4) 0.5834(3)
C45_3 C 0.8827(4) 0.2015(4) 0.5704(3)
H31_3 H 0.9126 0.2145 0.5348
C46_3 C 0.9130(4) 0.1413(4) 0.6105(3)
H32_3 H 0.9631 0.1140 0.6007
C47_3 C 0.7986(4) 0.1560(4) 0.6725(3)
H33_3 H 0.7683 0.1399 0.7072
C48_3 C 0.7634(4) 0.2145(4) 0.6347(3)
H34_3 H 0.7099 0.2357 0.6433
N10_3 N 0.5110(3) 0.5542(3) 0.6047(2)
N11_3 N 0.5439(3) 0.4932(3) 0.5662(2)
N12_3 N 0.6484(3) 0.5561(3) 0.6101(2)
N13_3 N 0.7304(4) 0.5746(3) 0.6310(3)
H35_3 H 0.7584 0.5265 0.6366
H36_3 H 0.7570 0.6058 0.6031
C15_4 C 0.5452(4) 0.2830(4) 0.0194(3)
H9_4 H 0.4980 0.3017 0.0409
C16_4 C 0.6002(4) 0.2249(5) 0.0460(3)
H10_4 H 0.5907 0.2058 0.0858
C17_4 C 0.6693(4) 0.1954(4) 0.0130(3)
H11_4 H 0.7052 0.1560 0.0306
C25_4 C 0.2471(4) 0.0357(4) 0.2845(3)
H19_4 H 0.2433 0.0048 0.3207
C26_4 C 0.3132(4) 0.0918(4) 0.2779(3)
H20_4 H 0.3533 0.0965 0.3089
C27_4 C 0.3204(4) 0.1407(4) 0.2262(3)
C28_4 C 0.2608(4) 0.1256(4) 0.1804(3)
H21_4 H 0.2641 0.1545 0.1433
C29_4 C 0.1970(4) 0.0678(4) 0.1900(3)
H22_4 H 0.1579 0.0594 0.1587
C30_4 C 0.3860(4) 0.2071(4) 0.2199(3)
C31_4 C 0.4587(4) 0.2066(4) 0.2560(4)
H23_4 H 0.4670 0.1633 0.2842
C32_4 C 0.5180(5) 0.2689(4) 0.2504(4)
H24_4 H 0.5672 0.2659 0.2737
C33_4 C 0.5063(4) 0.3362(4) 0.2110(3)
H25_4 H 0.5461 0.3792 0.2086
C34_4 C 0.4337(3) 0.3387(4) 0.1747(3)
C35_4 C 0.3742(4) 0.2743(4) 0.1792(3)
H26_4 H 0.3261 0.2761 0.1548
C36_4 C 0.4250(3) 0.4084(3) 0.1313(2)
C37_4 C 0.3744(3) 0.5045(4) 0.0697(2)
C38_4 C 0.3127(4) 0.5613(3) 0.0391(3)
C42_4 C 0.2242(4) 0.6849(4) 0.0459(3)
C43_4 C 0.2838(4) 0.6303(4) 0.0712(3)
H30_4 H 0.3043 0.6407 0.1105
C44_4 C 0.1933(4) 0.7573(4) 0.0834(3)
C45_4 C 0.1173(4) 0.7985(4) 0.0704(3)
H31_4 H 0.0874 0.7855 0.0348
C46_4 C 0.0870(4) 0.8587(4) 0.1105(3)
H32_4 H 0.0369 0.8860 0.1007
C47_4 C 0.2014(4) 0.8440(4) 0.1725(3)
H33_4 H 0.2317 0.8601 0.2072
C48_4 C 0.2366(4) 0.7855(4) 0.1347(3)
H34_4 H 0.2901 0.7643 0.1433
N10_4 N 0.4890(3) 0.4458(3) 0.1047(2)
N11_4 N 0.4561(3) 0.5068(3) 0.0662(2)
N12_4 N 0.3516(3) 0.4439(3) 0.1101(2)
N13_4 N 0.2696(4) 0.4254(3) 0.1310(3)
H35_4 H 0.2416 0.4735 0.1366
H36_4 H 0.2430 0.3942 0.1031
C1_4 C 0.0357(4) 0.2471(4) 0.7155(3)
H1_4 H 0.0048 0.2433 0.6793
C2_4 C 0.0918(4) 0.3132(4) 0.7221(3)
H2_4 H 0.0965 0.3533 0.6911
C3_4 C 0.1407(4) 0.3204(4) 0.7738(3)
C4_4 C 0.1256(4) 0.2608(4) 0.8196(3)
H3_4 H 0.1545 0.2641 0.8567
C5_4 C 0.0678(4) 0.1970(4) 0.8100(3)
H4_4 H 0.0594 0.1579 0.8413
C6_4 C 0.2071(4) 0.3860(4) 0.7801(3)
C7_4 C 0.2066(4) 0.4587(4) 0.7440(4)
H5_4 H 0.1633 0.4670 0.7158
C8_3 C 0.2689(4) 0.5180(5) 0.7496(4)
H6_3 H 0.2659 0.5672 0.7263
C9_4 C 0.3362(4) 0.5063(4) 0.7890(3)
H7_4 H 0.3792 0.5461 0.7914
C10_4 C 0.3387(4) 0.4337(3) 0.8253(3)
C11_4 C 0.2743(4) 0.3742(4) 0.8208(3)
H8_4 H 0.2761 0.3261 0.8452
C12_4 C 0.4084(3) 0.4250(3) 0.8687(2)
C13_4 C 0.5045(4) 0.3744(3) 0.9303(2)
C14_4 C 0.5613(3) 0.3127(4) 0.9609(3)
C18_4 C 0.6849(4) 0.2242(4) 0.9541(3)
C19_4 C 0.6303(4) 0.2838(4) 0.9288(3)
H12_4 H 0.6407 0.3043 0.8895
C20_4 C 0.7573(4) 0.1933(4) 0.9166(3)
C21_4 C 0.7985(4) 0.1173(4) 0.9296(3)
H13_4 H 0.7855 0.0874 0.9652
C22_4 C 0.8587(4) 0.0870(4) 0.8895(3)
H14_4 H 0.8860 0.0369 0.8993
C23_4 C 0.8440(4) 0.2014(4) 0.8275(3)
H15_4 H 0.8601 0.2317 0.7928
C24_4 C 0.7855(4) 0.2366(4) 0.8653(3)
H16_4 H 0.7643 0.2901 0.8567
N2_4 N 0.4458(3) 0.4890(3) 0.8953(2)
N3_4 N 0.5068(3) 0.4561(3) 0.9338(2)
N4_4 N 0.4439(3) 0.3516(3) 0.8899(2)
N5_4 N 0.4254(3) 0.2696(4) 0.8690(3)
H17_4 H 0.4735 0.2416 0.8634
H18_4 H 0.3942 0.2430 0.8969
C39_4 C 0.2830(4) 0.5452(4) 0.9806(3)
H27_4 H 0.3017 0.4980 0.9591
C40_4 C 0.2249(5) 0.6002(4) 0.9540(3)
H28_4 H 0.2058 0.5907 0.9142
C41_4 C 0.1954(4) 0.6693(4) 0.9870(3)
H29_4 H 0.1560 0.7052 0.9694
C8_4 C 0.0180(5) 0.2311(4) 0.9996(4)
H6_4 H 0.0672 0.2341 0.9763
Cl1 Cl 0.37347(13) 0.62653(13) 0.2500
O1 O 0.3683(11) 0.5566(10) 0.2122(6)
O2 O 0.3325(19) 0.5942(8) 0.3005(6)
O3 O 0.4434(10) 0.6317(11) 0.2878(6)
O4 O 0.4058(8) 0.6675(19) 0.1995(6)
Cl1_2 Cl 0.62653(13) 0.37347(13) 0.7500
O1_2 O 0.6317(11) 0.4434(10) 0.7122(6)
O2_2 O 0.6675(19) 0.4058(8) 0.8005(6)
O3_2 O 0.5566(10) 0.3683(11) 0.7878(6)
O4_2 O 0.5942(8) 0.3325(19) 0.6995(6)
Cl1_3 Cl 0.87347(13) 0.87347(13) 0.0000
O2_3 O 0.9058(8) 0.8325(19) 0.0505(6)
O3_3 O 0.8683(11) 0.9434(10) 0.0378(6)
Cl1_4 Cl 0.87347(13) 0.87347(13) 1.0000
O1_3 O 0.9434(10) 0.8683(11) 0.9622(6)
O4_3 O 0.8325(19) 0.9058(8) 0.9495(6)
Cl1_5 Cl 0.12653(13) 0.12653(13) 0.5000
O1_4 O 0.0566(10) 0.1317(11) 0.4622(6)
O2_4 O 0.0942(8) 0.1675(19) 0.5505(6)
O3_4 O 0.1317(11) 0.0566(10) 0.5378(6)
O4_4 O 0.1675(19) 0.0942(8) 0.4495(6)
Cl2 Cl 0.27001(13) 0.27001(13) 0.0000
O6 O 0.2169(16) 0.3548(9) 0.0042(13)
O7 O 0.2340(5) 0.2369(5) 0.0528(3)
Cl2_2 Cl 0.27001(13) 0.27001(13) 1.0000
O5 O 0.2369(5) 0.2340(5) 0.9472(3)
O8 O 0.3548(9) 0.2169(16) 0.9958(13)
Cl2_3 Cl 0.72999(13) 0.72999(13) 0.5000
O5_2 O 0.7631(5) 0.7660(5) 0.4472(3)
O6_2 O 0.7831(16) 0.6452(9) 0.5042(13)
O7_2 O 0.7660(5) 0.7631(5) 0.5528(3)
O8_2 O 0.6452(9) 0.7831(16) 0.4958(13)
Cl2_4 Cl 0.22999(13) 0.77001(13) 0.7500
O5_3 O 0.2660(5) 0.7369(5) 0.6972(3)
O6_3 O 0.1452(9) 0.7169(16) 0.7542(13)
O7_3 O 0.2631(5) 0.7340(5) 0.8028(3)
O8_3 O 0.2831(16) 0.8548(9) 0.7458(13)
Cl2_5 Cl 0.77001(13) 0.22999(13) 0.2500
O5_4 O 0.7340(5) 0.2631(5) 0.1972(3)
O6_4 O 0.8548(9) 0.2831(16) 0.2542(13)
O7_4 O 0.7369(5) 0.2660(5) 0.3028(3)
O8_4 O 0.7169(16) 0.1452(9) 0.2458(13)
loop_
_geom_bond_atom_site_label_1
_geom_bond_atom_site_label_2
_geom_bond_site_symmetry_1
_geom_bond_site_symmetry_2
H24 C32 1_555 1_555
C13 C14 1_555 1_555
C14 C15 1_555 1_555
C16 C15 1_555 1_555
H10 C16 1_555 1_555
C17 C16 1_555 1_555
H11 C17 1_555 1_555
C18 C17 1_555 1_555
C19 C14 1_555 1_555
H12 C19 1_555 1_555
C20 C18 1_555 1_555
C21 C20 1_555 1_555
H13 C21 1_555 1_555
C22 C21 1_555 1_555
H14 C22 1_555 1_555
C23 H15 1_555 1_555
C24 C20 1_555 1_555
H16 C24 1_555 1_555
N3 C13 1_555 1_555
N6 C22 1_555 1_555
H25 C33 1_555 1_555
Cd2 N6 1_555 1_555
C18 C19 1_555 1_555
C23 C24 1_555 1_555
C23 N6 1_555 1_555
C25 H19 1_555 1_555
C26 C25 1_555 1_555
H20 C26 1_555 1_555
H23 C31 1_555 1_555
C1 H1 1_555 1_555
C2 C1 1_555 1_555
H2 C2 1_555 1_555
C3 C2 1_555 1_555
C4 C3 1_555 1_555
H3 C4 1_555 1_555
C5 C4 1_555 1_555
H4 C5 1_555 1_555
C6 C3 1_555 1_555
C7 C6 1_555 1_555
H5 C7 1_555 1_555
C11 C6 1_555 1_555
H8 C11 1_555 1_555
C12 C10 1_555 1_555
N1 C1 1_555 1_555
N2 C12 1_555 1_555
N4 C12 1_555 1_555
N5 N4 1_555 1_555
H17 N5 1_555 1_555
H18 N5 1_555 1_555
C28 C27 1_555 1_555
H21 C28 1_555 1_555
C29 C28 1_555 1_555
H22 C29 1_555 1_555
C30 C27 1_555 1_555
C35 C30 1_555 1_555
H26 C35 1_555 1_555
C36 C34 1_555 1_555
Cd2 N1 1_555 1_555
Cd5_2 N9 1_555 1_555
N10 C36 1_555 1_555
N12 C36 1_555 1_555
N13 N12 1_555 1_555
H35 N13 1_555 1_555
H36 N13 1_555 1_555
C5 N1 1_555 1_555
C10 C11 1_555 1_555
C29 N9 1_555 1_555
C34 C35 1_555 1_555
N14 Cd1 1_555 1_555
N15 Cd1 1_555 1_555
H6 C8 1_555 1_555
C9 C8 1_555 1_555
H7 C9 1_555 1_555
C37 C38 1_555 1_555
C38 C39 1_555 1_555
C40 C39 1_555 1_555
H28 C40 1_555 1_555
C41 C40 1_555 1_555
H29 C41 1_555 1_555
C42 C41 1_555 1_555
C43 C38 1_555 1_555
H30 C43 1_555 1_555
C44 C42 1_555 1_555
C45 C44 1_555 1_555
H31 C45 1_555 1_555
C46 C45 1_555 1_555
H32 C46 1_555 1_555
C47 H33 1_555 1_555
C48 C44 1_555 1_555
H34 C48 1_555 1_555
Cd5_2 N16 1_555 1_555
N16 C46 1_555 1_555
C37 N11 1_555 1_555
C42 C43 1_555 1_555
C47 C48 1_555 1_555
C47 N16 1_555 1_555
H7_2 C9_2 1_555 1_555
C37_2 C38_2 1_555 1_555
C38_2 C39_2 1_555 1_555
C40_2 C39_2 1_555 1_555
H28_2 C40_2 1_555 1_555
C41_2 C40_2 1_555 1_555
H29_2 C41_2 1_555 1_555
C42_2 C41_2 1_555 1_555
C43_2 C38_2 1_555 1_555
H30_2 C43_2 1_555 1_555
C44_2 C42_2 1_555 1_555
C45_2 C44_2 1_555 1_555
H31_2 C45_2 1_555 1_555
C46_2 C45_2 1_555 1_555
H32_2 C46_2 1_555 1_555
C47_2 H33_2 1_555 1_555
C48_2 C44_2 1_555 1_555
H34_2 C48_2 1_555 1_555
Cd2 N16_2 1_555 1_555
N16_2 C46_2 1_555 1_555
C37_2 N11_2 1_555 1_555
C42_2 C43_2 1_555 1_555
C47_2 C48_2 1_555 1_555
C47_2 N16_2 1_555 1_555
N14_2 Cd1_2 1_555 1_555
N15_2 Cd1_2 1_555 1_555
C4_2 C3_2 1_555 1_555
H3_2 C4_2 1_555 1_555
C5_2 C4_2 1_555 1_555
H4_2 C5_2 1_555 1_555
C6_2 C3_2 1_555 1_555
C11_2 C6_2 1_555 1_555
H8_2 C11_2 1_555 1_555
C12_2 C10_2 1_555 1_555
N2_2 C12_2 1_555 1_555
N4_2 C12_2 1_555 1_555
N5_2 N4_2 1_555 1_555
H17_2 N5_2 1_555 1_555
H18_2 N5_2 1_555 1_555
C25_2 H19_2 1_555 1_555
C26_2 C25_2 1_555 1_555
H20_2 C26_2 1_555 1_555
C27_2 C26_2 1_555 1_555
C28_2 C27_2 1_555 1_555
H21_2 C28_2 1_555 1_555
C29_2 C28_2 1_555 1_555
H22_2 C29_2 1_555 1_555
C30_2 C27_2 1_555 1_555
C31_2 C30_2 1_555 1_555
H23_2 C31_2 1_555 1_555
C35_2 C30_2 1_555 1_555
H26_2 C35_2 1_555 1_555
C36_2 C34_2 1_555 1_555
Cd5 N1_2 1_555 1_555
Cd2 N9_2 1_555 1_555
N9_2 C25_2 1_555 1_555
N10_2 C36_2 1_555 1_555
N12_2 C36_2 1_555 1_555
N13_2 N12_2 1_555 1_555
H35_2 N13_2 1_555 1_555
H36_2 N13_2 1_555 1_555
C5_2 N1_2 1_555 1_555
C10_2 C11_2 1_555 1_555
C29_2 N9_2 1_555 1_555
C34_2 C35_2 1_555 1_555
C1_2 H1_2 1_555 1_555
C2_2 C1_2 1_555 1_555
H2_2 C2_2 1_555 1_555
H5_2 C7_2 1_555 1_555
C13_2 C14_2 1_555 1_555
C14_2 C15_2 1_555 1_555
C16_2 C15_2 1_555 1_555
H10_2 C16_2 1_555 1_555
C17_2 C16_2 1_555 1_555
H11_2 C17_2 1_555 1_555
C18_2 C17_2 1_555 1_555
C19_2 C14_2 1_555 1_555
H12_2 C19_2 1_555 1_555
C20_2 C18_2 1_555 1_555
C21_2 C20_2 1_555 1_555
H13_2 C21_2 1_555 1_555
C22_2 C21_2 1_555 1_555
H14_2 C22_2 1_555 1_555
C23_2 H15_2 1_555 1_555
C24_2 C20_2 1_555 1_555
H16_2 C24_2 1_555 1_555
N3_2 C13_2 1_555 1_555
N6_2 C22_2 1_555 1_555
H24_2 C32_2 1_555 1_555
C33_2 C32_2 1_555 1_555
H25_2 C33_2 1_555 1_555
Cd5 N6_2 1_555 1_555
C18_2 C19_2 1_555 1_555
C23_2 C24_2 1_555 1_555
C23_2 N6_2 1_555 1_555
C1_3 H1_3 1_555 1_555
C2_3 C1_3 1_555 1_555
H2_3 C2_3 1_555 1_555
C3_3 C2_3 1_555 1_555
C4_3 C3_3 1_555 1_555
H3_3 C4_3 1_555 1_555
C5_3 C4_3 1_555 1_555
H4_3 C5_3 1_555 1_555
C6_3 C3_3 1_555 1_555
C7_3 C6_3 1_555 1_555
H5_3 C7_3 1_555 1_555
C8_2 C7_3 1_555 1_555
H6_2 C8_2 1_555 1_555
C9_3 C8_2 1_555 1_555
H7_3 C9_3 1_555 1_555
C10_3 C9_3 1_555 1_555
C11_3 C6_3 1_555 1_555
H8_3 C11_3 1_555 1_555
C12_3 C10_3 1_555 1_555
C13_3 C14_3 1_555 1_555
C14_3 C15_3 1_555 1_555
C15_3 H9_3 1_555 1_555
C16_3 C15_3 1_555 1_555
H10_3 C16_3 1_555 1_555
C17_3 C16_3 1_555 1_555
H11_3 C17_3 1_555 1_555
C18_3 C17_3 1_555 1_555
C19_3 C14_3 1_555 1_555
H12_3 C19_3 1_555 1_555
C20_3 C18_3 1_555 1_555
C21_3 C20_3 1_555 1_555
H13_3 C21_3 1_555 1_555
C22_3 C21_3 1_555 1_555
H14_3 C22_3 1_555 1_555
C23_3 H15_3 1_555 1_555
C24_3 C20_3 1_555 1_555
H16_3 C24_3 1_555 1_555
Cd2 N3_3 1_555 1_555
N8_2 C1_3 1_555 1_555
N2_3 C12_3 1_555 1_555
N3_3 C13_3 1_555 1_555
N4_3 C12_3 1_555 1_555
N5_3 N4_3 1_555 1_555
H17_3 N5_3 1_555 1_555
H18_3 N5_3 1_555 1_555
N14_2 C22_3 1_555 1_555
C25_3 H19_3 1_555 1_555
C26_3 C25_3 1_555 1_555
H20_3 C26_3 1_555 1_555
C27_3 C26_3 1_555 1_555
C28_3 C27_3 1_555 1_555
H21_3 C28_3 1_555 1_555
C29_3 C28_3 1_555 1_555
H22_3 C29_3 1_555 1_555
C30_3 C27_3 1_555 1_555
C31_3 C30_3 1_555 1_555
H23_3 C31_3 1_555 1_555
C32_3 C31_3 1_555 1_555
H24_3 C32_3 1_555 1_555
C33_3 C32_3 1_555 1_555
H25_3 C33_3 1_555 1_555
C34_3 C33_3 1_555 1_555
C35_3 C30_3 1_555 1_555
H26_3 C35_3 1_555 1_555
C36_3 C34_3 1_555 1_555
C37_3 C38_3 1_555 1_555
C38_3 C39_3 1_555 1_555
C39_3 H27_3 1_555 1_555
C40_3 C39_3 1_555 1_555
H28_3 C40_3 1_555 1_555
C41_3 C40_3 1_555 1_555
H29_3 C41_3 1_555 1_555
C42_3 C41_3 1_555 1_555
C43_3 C38_3 1_555 1_555
H30_3 C43_3 1_555 1_555
C44_3 C42_3 1_555 1_555
C45_3 C44_3 1_555 1_555
H31_3 C45_3 1_555 1_555
C46_3 C45_3 1_555 1_555
H32_3 C46_3 1_555 1_555
C47_3 H33_3 1_555 1_555
C48_3 C44_3 1_555 1_555
H34_3 C48_3 1_555 1_555
N7 C25_3 1_555 1_555
N10_3 C36_3 1_555 1_555
N11_3 Cd2 1_555 1_555
N12_3 C36_3 1_555 1_555
N13_3 N12_3 1_555 1_555
H35_3 N13_3 1_555 1_555
H36_3 N13_3 1_555 1_555
N15 C46_3 1_555 1_555
C5_3 N8_2 1_555 1_555
C10_3 C11_3 1_555 1_555
C13_3 N4_3 1_555 1_555
C18_3 C19_3 1_555 1_555
C23_3 C24_3 1_555 1_555
C23_3 N14_2 1_555 1_555
N2_3 N3_3 1_555 1_555
C29_3 N7 1_555 1_555
C34_3 C35_3 1_555 1_555
C37_3 N11_3 1_555 1_555
C37_3 N12_3 1_555 1_555
C42_3 C43_3 1_555 1_555
C47_3 C48_3 1_555 1_555
C47_3 N15 1_555 1_555
N10_3 N11_3 1_555 1_555
C15_4 H9_4 1_555 1_555
C16_4 C15_4 1_555 1_555
H10_4 C16_4 1_555 1_555
C17_4 C16_4 1_555 1_555
H11_4 C17_4 1_555 1_555
C25_4 H19_4 1_555 1_555
C26_4 C25_4 1_555 1_555
H20_4 C26_4 1_555 1_555
C27_4 C26_4 1_555 1_555
C28_4 C27_4 1_555 1_555
H21_4 C28_4 1_555 1_555
C29_4 C28_4 1_555 1_555
H22_4 C29_4 1_555 1_555
C30_4 C27_4 1_555 1_555
C31_4 C30_4 1_555 1_555
H23_4 C31_4 1_555 1_555
C32_4 C31_4 1_555 1_555
H24_4 C32_4 1_555 1_555
C33_4 C32_4 1_555 1_555
H25_4 C33_4 1_555 1_555
C34_4 C33_4 1_555 1_555
C35_4 C30_4 1_555 1_555
H26_4 C35_4 1_555 1_555
C36_4 C34_4 1_555 1_555
C37_4 C38_4 1_555 1_555
C43_4 C38_4 1_555 1_555
H30_4 C43_4 1_555 1_555
C44_4 C42_4 1_555 1_555
C45_4 C44_4 1_555 1_555
H31_4 C45_4 1_555 1_555
C46_4 C45_4 1_555 1_555
H32_4 C46_4 1_555 1_555
C47_4 H33_4 1_555 1_555
C48_4 C44_4 1_555 1_555
H34_4 C48_4 1_555 1_555
N7_2 C25_4 1_555 1_555
N10_4 C36_4 1_555 1_555
N11_4 Cd5 1_555 1_555
N12_4 C36_4 1_555 1_555
N13_4 N12_4 1_555 1_555
H35_4 N13_4 1_555 1_555
H36_4 N13_4 1_555 1_555
N15_2 C46_4 1_555 1_555
C29_4 N7_2 1_555 1_555
C34_4 C35_4 1_555 1_555
C37_4 N11_4 1_555 1_555
C37_4 N12_4 1_555 1_555
C42_4 C43_4 1_555 1_555
C47_4 C48_4 1_555 1_555
C47_4 N15_2 1_555 1_555
N10_4 N11_4 1_555 1_555
C1_4 H1_4 1_555 1_555
C2_4 C1_4 1_555 1_555
H2_4 C2_4 1_555 1_555
C3_4 C2_4 1_555 1_555
C4_4 C3_4 1_555 1_555
H3_4 C4_4 1_555 1_555
C5_4 C4_4 1_555 1_555
H4_4 C5_4 1_555 1_555
C6_4 C3_4 1_555 1_555
C7_4 C6_4 1_555 1_555
H5_4 C7_4 1_555 1_555
C8_3 C7_4 1_555 1_555
H6_3 C8_3 1_555 1_555
C9_4 C8_3 1_555 1_555
H7_4 C9_4 1_555 1_555
C10_4 C9_4 1_555 1_555
C11_4 C6_4 1_555 1_555
H8_4 C11_4 1_555 1_555
C12_4 C10_4 1_555 1_555
C13_4 C14_4 1_555 1_555
C19_4 C14_4 1_555 1_555
H12_4 C19_4 1_555 1_555
C20_4 C18_4 1_555 1_555
C21_4 C20_4 1_555 1_555
H13_4 C21_4 1_555 1_555
C22_4 C21_4 1_555 1_555
H14_4 C22_4 1_555 1_555
C23_4 H15_4 1_555 1_555
C24_4 C20_4 1_555 1_555
H16_4 C24_4 1_555 1_555
Cd5_2 N3_4 1_555 1_555
N8 C1_4 1_555 1_555
N2_4 C12_4 1_555 1_555
N3_4 C13_4 1_555 1_555
N4_4 C12_4 1_555 1_555
N5_4 N4_4 1_555 1_555
H17_4 N5_4 1_555 1_555
H18_4 N5_4 1_555 1_555
N14 C22_4 1_555 1_555
C39_4 H27_4 1_555 1_555
C40_4 C39_4 1_555 1_555
H28_4 C40_4 1_555 1_555
C41_4 C40_4 1_555 1_555
H29_4 C41_4 1_555 1_555
C5_4 N8 1_555 1_555
C10_4 C11_4 1_555 1_555
C13_4 N4_4 1_555 1_555
C18_4 C19_4 1_555 1_555
C23_4 C24_4 1_555 1_555
C23_4 N14 1_555 1_555
N2_4 N3_4 1_555 1_555
H6_4 C8_4 1_555 1_555
Cl1 O1 1_555 1_555
O2 Cl1 1_555 1_555
O3 Cl1 1_555 1_555
O4 Cl1 1_555 1_555
Cl1_2 O1_2 1_555 1_555
O2_2 Cl1_2 1_555 1_555
O3_2 Cl1_2 1_555 1_555
O4_2 Cl1_2 1_555 1_555
O2_3 Cl1_3 1_555 1_555
O3_3 Cl1_3 1_555 1_555
Cl1_4 O1_3 1_555 1_555
O4_3 Cl1_4 1_555 1_555
Cl1_5 O1_4 1_555 1_555
O2_4 Cl1_5 1_555 1_555
O3_4 Cl1_5 1_555 1_555
O4_4 Cl1_5 1_555 1_555
O6 Cl2 1_555 1_555
O7 Cl2 1_555 1_555
Cl2_2 O5 1_555 1_555
O8 Cl2_2 1_555 1_555
Cl2_3 O5_2 1_555 1_555
O6_2 Cl2_3 1_555 1_555
O7_2 Cl2_3 1_555 1_555
O8_2 Cl2_3 1_555 1_555
Cl2_4 O5_3 1_555 1_555
O6_3 Cl2_4 1_555 1_555
O7_3 Cl2_4 1_555 1_555
O8_3 Cl2_4 1_555 1_555
Cl2_5 O5_4 1_555 1_555
O6_4 Cl2_5 1_555 1_555
O7_4 Cl2_5 1_555 1_555
O8_4 Cl2_5 1_555 1_555

#END
