
###############################################################################
#
# This file contains modified crystal structure data generated from the
# MOF subset of the Cambridge Structural Database (CSD) v543 
# hosted by the Cambridge Crystallographic Data Centre (CCDC).
#
# This work is licensed under the Creative Commons
# Attribution-NonCommercial-ShareAlike 4.0 International License.
# To view a copy of this license, visit
# http://creativecommons.org/licenses/by-nc-sa/4.0/
# or send a letter to
# Creative Commons, PO Box 1866, Mountain View, CA 94042, USA.
#
# CIF created using the CSD Python API on 29 September 2022
# The structure has been converted into the P1 space group
# The structure has a 3D framework
# The original CSD entry OKIYAJ01 is in the tetragonal crystal system
# The original CSD entry OKIYAJ01 is in a Sohncke space group
# The framework has been calculated to contain at least 10.0% void space
# The void calculation uses a probe of radius 1.32A, grid spacing 0.4
# The framework is charged, counterions have been retained in the structure
#
###############################################################################

data_OKIYAJ01
_chemical_formula_moiety         '(C192 H144 Cd2 Cl10 N48 O32 4-)n'
_symmetry_cell_setting           triclinic
_symmetry_space_group_name_H-M   'P 1'
_symmetry_Int_Tables_number      1
_space_group_name_Hall           'P 1'
loop_
_symmetry_equiv_pos_site_id
_symmetry_equiv_pos_as_xyz
1 x,y,z
_cell_length_a                   15.8809(12)
_cell_length_b                   15.8809(12)
_cell_length_c                   21.810(3)
_cell_angle_alpha                90
_cell_angle_beta                 90
_cell_angle_gamma                90
_cell_volume                     5500.55
loop_
_atom_site_label
_atom_site_type_symbol
_atom_site_fract_x
_atom_site_fract_y
_atom_site_fract_z
Cd4 Cd 0.05807(2) 0.05807(2) 0.5000
C40 C 0.2715(4) 0.4860(5) 0.0031(4)
H28 H 0.2700 0.4371 0.0282
C41 C 0.2086(4) 0.5442(4) 0.0085(3)
H29 H 0.1651 0.5364 0.0378
C45 C 0.0958(4) 0.6914(4) 0.0283(3)
H31 H 0.1023 0.6519 0.0606
C46 C 0.0386(4) 0.7579(4) 0.0355(3)
H32 H 0.0089 0.7632 0.0732
Cd3 Cd 0.94193(2) 0.94193(2) 0.0000
C1 C 0.1993(4) 0.1568(4) 0.5756(3)
H1 H 0.2301 0.1401 0.5402
C2 C 0.2339(4) 0.2175(4) 0.6139(3)
H2 H 0.2875 0.2407 0.6046
C3 C 0.1916(4) 0.2442(4) 0.6648(3)
C4 C 0.1169(4) 0.2013(4) 0.6788(3)
H3 H 0.0873 0.2137 0.7155
C5 C 0.0868(4) 0.1410(4) 0.6391(3)
H4 H 0.0365 0.1122 0.6498
C6 C 0.2222(4) 0.3174(4) 0.7022(3)
C7 C 0.2819(4) 0.3711(4) 0.6767(3)
H5 H 0.3025 0.3603 0.6365
C8 C 0.3116(4) 0.4398(3) 0.7090(3)
C9 C 0.2830(4) 0.4555(4) 0.7680(3)
H6 H 0.3029 0.5026 0.7906
C10 C 0.2235(5) 0.3997(4) 0.7937(3)
H7 H 0.2030 0.4096 0.8340
C11 C 0.1947(4) 0.3311(4) 0.7613(3)
H8 H 0.1559 0.2933 0.7797
C12 C 0.3729(3) 0.4951(4) 0.6795(3)
C13 C 0.4242(3) 0.5911(3) 0.6183(3)
C14 C 0.4320(3) 0.6610(4) 0.5742(3)
C15 C 0.5040(4) 0.6636(4) 0.5372(3)
H9 H 0.5454 0.6207 0.5402
C16 C 0.5140(5) 0.7285(4) 0.4969(4)
H10 H 0.5629 0.7300 0.4718
C17 C 0.4558(4) 0.7914(4) 0.4915(3)
H11 H 0.4636 0.8349 0.4622
C18 C 0.3842(4) 0.7913(4) 0.5296(3)
C19 C 0.3733(4) 0.7250(4) 0.5699(3)
H12 H 0.3245 0.7234 0.5950
C20 C 0.3183(4) 0.8579(4) 0.5235(3)
C21 C 0.3086(4) 0.9042(4) 0.4717(3)
H13 H 0.3481 0.8977 0.4394
C22 C 0.2421(4) 0.9614(4) 0.4645(3)
H14 H 0.2368 0.9911 0.4268
C23 C 0.1974(4) 0.9319(4) 0.5616(3)
H15 H 0.1590 0.9415 0.5942
C24 C 0.2608(4) 0.8752(4) 0.5706(3)
H16 H 0.2659 0.8473 0.6089
Cd1 Cd 0.55807(2) 0.44193(2) 0.7500
N1 N 0.1242(3) 0.1207(3) 0.5863(2)
N2 N 0.4560(3) 0.4940(3) 0.6840(2)
N3 N 0.4883(3) 0.5557(3) 0.6453(2)
N4 N 0.3510(3) 0.5553(3) 0.6391(2)
N5 N 0.2700(4) 0.5730(3) 0.6169(3)
H17 H 0.2440 0.5238 0.6068
H18 H 0.2399 0.5996 0.6466
N6 N 0.1863(3) 0.9752(3) 0.5088(3)
C25 C 0.8432(4) 0.8007(4) 0.9244(3)
H19 H 0.8599 0.7699 0.9598
C26 C 0.7825(4) 0.7661(4) 0.8861(3)
H20 H 0.7593 0.7125 0.8954
C27 C 0.7558(4) 0.8084(4) 0.8352(3)
C28 C 0.7987(4) 0.8831(4) 0.8212(3)
H21 H 0.7863 0.9127 0.7845
C29 C 0.8590(4) 0.9132(4) 0.8609(3)
H22 H 0.8878 0.9635 0.8502
C30 C 0.6826(4) 0.7778(4) 0.7978(3)
C31 C 0.6289(4) 0.7181(4) 0.8233(3)
H23 H 0.6397 0.6975 0.8635
C32 C 0.5602(3) 0.6884(4) 0.7910(3)
C33 C 0.5445(4) 0.7170(4) 0.7320(3)
H24 H 0.4974 0.6971 0.7094
C34 C 0.6003(4) 0.7765(5) 0.7063(3)
H25 H 0.5904 0.7970 0.6660
C35 C 0.6689(4) 0.8053(4) 0.7387(3)
H26 H 0.7067 0.8441 0.7203
C36 C 0.5049(4) 0.6271(3) 0.8205(3)
C37 C 0.4089(3) 0.5758(3) 0.8817(3)
C38 C 0.3390(4) 0.5680(3) 0.9258(3)
C39 C 0.3364(4) 0.4960(4) 0.9628(3)
H27 H 0.3793 0.4546 0.9598
C42 C 0.2087(4) 0.6158(4) 0.9704(3)
C43 C 0.2750(4) 0.6267(4) 0.9301(3)
H30 H 0.2766 0.6755 0.9050
C44 C 0.1421(4) 0.6817(4) 0.9765(3)
C47 C 0.0681(4) 0.8026(4) 0.9384(3)
H33 H 0.0585 0.8410 0.9058
C48 C 0.1248(4) 0.7392(4) 0.9294(3)
H34 H 0.1527 0.7341 0.8911
Cd3_2 Cd 0.94193(2) 0.94193(2) 1.0000
N7 N 0.6242(3) 0.3793(3) 0.6637(2)
N8 N 0.6207(3) 0.3758(3) 0.8363(2)
N9 N 0.8793(3) 0.8758(3) 0.9137(2)
N10 N 0.5060(3) 0.5440(3) 0.8160(2)
N11 N 0.4443(3) 0.5117(3) 0.8547(2)
N12 N 0.4447(3) 0.6490(3) 0.8609(2)
N13 N 0.4270(3) 0.7300(4) 0.8831(3)
H35 H 0.4762 0.7560 0.8932
H36 H 0.4004 0.7601 0.8534
N14 N 0.6863(3) 0.5248(3) 0.7412(3)
N15 N 0.4752(3) 0.3137(3) 0.7588(3)
N16 N 0.0248(3) 0.8137(3) 0.9912(3)
C1_2 C 0.8007(4) 0.8432(4) 0.0756(3)
H1_2 H 0.7699 0.8599 0.0402
C2_2 C 0.7661(4) 0.7825(4) 0.1139(3)
H2_2 H 0.7125 0.7593 0.1046
C3_2 C 0.8084(4) 0.7558(4) 0.1648(3)
C4_2 C 0.8831(4) 0.7987(4) 0.1788(3)
H3_2 H 0.9127 0.7863 0.2155
C5_2 C 0.9132(4) 0.8590(4) 0.1391(3)
H4_2 H 0.9635 0.8878 0.1498
C6_2 C 0.7778(4) 0.6826(4) 0.2022(3)
C7_2 C 0.7181(4) 0.6289(4) 0.1767(3)
H5_2 H 0.6975 0.6397 0.1365
C8_2 C 0.6884(4) 0.5602(3) 0.2090(3)
C9_2 C 0.7170(4) 0.5445(4) 0.2680(3)
H6_2 H 0.6971 0.4974 0.2906
C10_2 C 0.7765(5) 0.6003(4) 0.2937(3)
H7_2 H 0.7970 0.5904 0.3340
C11_2 C 0.8053(4) 0.6689(4) 0.2613(3)
H8_2 H 0.8441 0.7067 0.2797
C12_2 C 0.6271(3) 0.5049(4) 0.1795(3)
C13_2 C 0.5758(3) 0.4089(3) 0.1183(3)
C14_2 C 0.5680(3) 0.3390(4) 0.0742(3)
C15_2 C 0.4960(4) 0.3364(4) 0.0372(3)
H9_2 H 0.4546 0.3793 0.0402
C18_2 C 0.6158(4) 0.2087(4) 0.0296(3)
C19_2 C 0.6267(4) 0.2750(4) 0.0699(3)
H12_2 H 0.6755 0.2766 0.0950
C20_2 C 0.6817(4) 0.1421(4) 0.0235(3)
C23_2 C 0.8026(4) 0.0681(4) 0.0616(3)
H15_2 H 0.8410 0.0585 0.0942
C24_2 C 0.7392(4) 0.1248(4) 0.0706(3)
H16_2 H 0.7341 0.1527 0.1089
Cd1_2 Cd 0.44193(2) 0.55807(2) 0.2500
N1_2 N 0.8758(3) 0.8793(3) 0.0863(2)
N2_2 N 0.5440(3) 0.5060(3) 0.1840(2)
N3_2 N 0.5117(3) 0.4443(3) 0.1453(2)
N4_2 N 0.6490(3) 0.4447(3) 0.1391(2)
N5_2 N 0.7300(4) 0.4270(3) 0.1169(3)
H17_2 H 0.7560 0.4762 0.1068
H18_2 H 0.7601 0.4004 0.1466
N6_2 N 0.8137(3) 0.0248(3) 0.0088(3)
C25_2 C 0.1568(4) 0.1993(4) 0.4244(3)
H19_2 H 0.1401 0.2301 0.4598
C26_2 C 0.2175(4) 0.2339(4) 0.3861(3)
H20_2 H 0.2407 0.2875 0.3954
C27_2 C 0.2442(4) 0.1916(4) 0.3352(3)
C28_2 C 0.2013(4) 0.1169(4) 0.3212(3)
H21_2 H 0.2137 0.0873 0.2845
C29_2 C 0.1410(4) 0.0868(4) 0.3609(3)
H22_2 H 0.1122 0.0365 0.3502
C30_2 C 0.3174(4) 0.2222(4) 0.2978(3)
C31_2 C 0.3711(4) 0.2819(4) 0.3233(3)
H23_2 H 0.3603 0.3025 0.3635
C32_2 C 0.4398(3) 0.3116(4) 0.2910(3)
C33_2 C 0.4555(4) 0.2830(4) 0.2320(3)
H24_2 H 0.5026 0.3029 0.2094
C34_2 C 0.3997(4) 0.2235(5) 0.2063(3)
H25_2 H 0.4096 0.2030 0.1660
C35_2 C 0.3311(4) 0.1947(4) 0.2387(3)
H26_2 H 0.2933 0.1559 0.2203
C36_2 C 0.4951(4) 0.3729(3) 0.3205(3)
C37_2 C 0.5911(3) 0.4242(3) 0.3817(3)
C38_2 C 0.6610(4) 0.4320(3) 0.4258(3)
C39_2 C 0.6636(4) 0.5040(4) 0.4628(3)
H27_2 H 0.6207 0.5454 0.4598
C40_2 C 0.7285(4) 0.5140(5) 0.5031(4)
H28_2 H 0.7300 0.5629 0.5282
C41_2 C 0.7914(4) 0.4558(4) 0.5085(3)
H29_2 H 0.8349 0.4636 0.5378
C42_2 C 0.7913(4) 0.3842(4) 0.4704(3)
C43_2 C 0.7250(4) 0.3733(4) 0.4301(3)
H30_2 H 0.7234 0.3245 0.4050
C44_2 C 0.8579(4) 0.3183(4) 0.4765(3)
C45_2 C 0.9042(4) 0.3086(4) 0.5283(3)
H31_2 H 0.8977 0.3481 0.5606
C46_2 C 0.9614(4) 0.2421(4) 0.5355(3)
H32_2 H 0.9911 0.2368 0.5732
C47_2 C 0.9319(4) 0.1974(4) 0.4384(3)
H33_2 H 0.9415 0.1590 0.4058
C48_2 C 0.8752(4) 0.2608(4) 0.4294(3)
H34_2 H 0.8473 0.2659 0.3911
N7_2 N 0.3758(3) 0.6207(3) 0.1637(2)
N8_2 N 0.3793(3) 0.6242(3) 0.3363(2)
N9_2 N 0.1207(3) 0.1242(3) 0.4137(2)
N10_2 N 0.4940(3) 0.4560(3) 0.3160(2)
N11_2 N 0.5557(3) 0.4883(3) 0.3547(2)
N12_2 N 0.5553(3) 0.3510(3) 0.3609(2)
N13_2 N 0.5730(3) 0.2700(4) 0.3831(3)
H35_2 H 0.5238 0.2440 0.3932
H36_2 H 0.5996 0.2399 0.3534
N14_2 N 0.3137(3) 0.4752(3) 0.2412(3)
N15_2 N 0.5248(3) 0.6863(3) 0.2588(3)
N16_2 N 0.9752(3) 0.1863(3) 0.4912(3)
C16_2 C 0.4860(5) 0.2715(4) 0.9969(4)
H10_2 H 0.4371 0.2700 0.9718
C17_2 C 0.5442(4) 0.2086(4) 0.9915(3)
H11_2 H 0.5364 0.1651 0.9622
C21_2 C 0.6914(4) 0.0958(4) 0.9717(3)
H13_2 H 0.6519 0.1023 0.9394
C22_2 C 0.7579(4) 0.0386(4) 0.9645(3)
H14_2 H 0.7632 0.0089 0.9268
C1_3 C 0.3432(4) 0.6993(4) 0.3256(3)
H1_3 H 0.3599 0.7301 0.2902
C2_3 C 0.2825(4) 0.7339(4) 0.3639(3)
H2_3 H 0.2593 0.7875 0.3546
C3_3 C 0.2558(4) 0.6916(4) 0.4148(3)
C4_3 C 0.2987(4) 0.6169(4) 0.4288(3)
H3_3 H 0.2863 0.5873 0.4655
C5_3 C 0.3590(4) 0.5868(4) 0.3891(3)
H4_3 H 0.3878 0.5365 0.3998
C6_3 C 0.1826(4) 0.7222(4) 0.4522(3)
C7_3 C 0.1289(4) 0.7819(4) 0.4267(3)
H5_3 H 0.1397 0.8025 0.3865
C8_3 C 0.0602(3) 0.8116(4) 0.4590(3)
C9_3 C 0.0445(4) 0.7830(4) 0.5180(3)
C10_3 C 0.1003(4) 0.7235(5) 0.5437(3)
H7_3 H 0.0904 0.7030 0.5840
C11_3 C 0.1689(4) 0.6947(4) 0.5113(3)
H8_3 H 0.2067 0.6559 0.5297
C12_3 C 0.0049(4) 0.8729(3) 0.4295(3)
N2_3 N 0.0060(3) 0.9560(3) 0.4340(2)
C39_3 C 0.0040(4) 0.8364(4) 0.7128(3)
H27_3 H 0.0454 0.8793 0.7098
C40_3 C 0.0140(5) 0.7715(4) 0.7531(4)
H28_3 H 0.0629 0.7700 0.7782
C15_3 C 0.8364(4) 0.0040(4) 0.2872(3)
H9_3 H 0.8793 0.0454 0.2902
C16_3 C 0.7715(4) 0.0140(5) 0.2469(4)
H10_3 H 0.7700 0.0629 0.2218
C25_3 C 0.6993(4) 0.3432(4) 0.6744(3)
H19_3 H 0.7301 0.3599 0.7098
C26_3 C 0.7339(4) 0.2825(4) 0.6361(3)
H20_3 H 0.7875 0.2593 0.6454
C27_3 C 0.6916(4) 0.2558(4) 0.5852(3)
C28_3 C 0.6169(4) 0.2987(4) 0.5712(3)
H21_3 H 0.5873 0.2863 0.5345
C29_3 C 0.5868(4) 0.3590(4) 0.6109(3)
H22_3 H 0.5365 0.3878 0.6002
C30_3 C 0.7222(4) 0.1826(4) 0.5478(3)
C31_3 C 0.7819(4) 0.1289(4) 0.5733(3)
H23_3 H 0.8025 0.1397 0.6135
C32_3 C 0.8116(4) 0.0602(3) 0.5410(3)
C33_3 C 0.7830(4) 0.0445(4) 0.4820(3)
C34_3 C 0.7235(5) 0.1003(4) 0.4563(3)
H25_3 H 0.7030 0.0904 0.4160
C35_3 C 0.6947(4) 0.1689(4) 0.4887(3)
H26_3 H 0.6559 0.2067 0.4703
C36_3 C 0.8729(3) 0.0049(4) 0.5705(3)
N10_3 N 0.9560(3) 0.0060(3) 0.5660(2)
H6_3 H 0.9974 0.8029 0.5406
C13_3 C 0.9089(3) 0.9242(3) 0.3683(3)
C14_3 C 0.8390(4) 0.9320(3) 0.3242(3)
C17_3 C 0.7086(4) 0.9558(4) 0.2415(3)
H11_3 H 0.6651 0.9636 0.2122
C18_3 C 0.7087(4) 0.8842(4) 0.2796(3)
C19_3 C 0.7750(4) 0.8733(4) 0.3199(3)
H12_3 H 0.7766 0.8245 0.3450
C20_3 C 0.6421(4) 0.8183(4) 0.2735(3)
C21_3 C 0.5958(4) 0.8086(4) 0.2217(3)
H13_3 H 0.6023 0.8481 0.1894
C22_3 C 0.5386(4) 0.7421(4) 0.2145(3)
H14_3 H 0.5089 0.7368 0.1768
C23_3 C 0.5681(4) 0.6974(4) 0.3116(3)
H15_3 H 0.5585 0.6590 0.3442
C24_3 C 0.6248(4) 0.7608(4) 0.3206(3)
H16_3 H 0.6527 0.7659 0.3589
N3_3 N 0.9443(3) 0.9883(3) 0.3953(2)
N4_3 N 0.9447(3) 0.8510(3) 0.3891(2)
N5_3 N 0.9270(3) 0.7700(4) 0.3669(3)
H17_3 H 0.9762 0.7440 0.3568
H18_3 H 0.9004 0.7399 0.3966
H24_3 H 0.8029 0.9974 0.4594
C37_3 C 0.9242(3) 0.9089(3) 0.6317(3)
C38_3 C 0.9320(3) 0.8390(4) 0.6758(3)
C41_3 C 0.9558(4) 0.7086(4) 0.7585(3)
H29_3 H 0.9636 0.6651 0.7878
C42_3 C 0.8842(4) 0.7087(4) 0.7204(3)
C43_3 C 0.8733(4) 0.7750(4) 0.6801(3)
H30_3 H 0.8245 0.7766 0.6550
C44_3 C 0.8183(4) 0.6421(4) 0.7265(3)
C45_3 C 0.8086(4) 0.5958(4) 0.7783(3)
H31_3 H 0.8481 0.6023 0.8106
C46_3 C 0.7421(4) 0.5386(4) 0.7855(3)
H32_3 H 0.7368 0.5089 0.8232
C47_3 C 0.6974(4) 0.5681(4) 0.6884(3)
H33_3 H 0.6590 0.5585 0.6558
C48_3 C 0.7608(4) 0.6248(4) 0.6794(3)
H34_3 H 0.7659 0.6527 0.6411
N11_3 N 0.9883(3) 0.9443(3) 0.6047(2)
N12_3 N 0.8510(3) 0.9447(3) 0.6109(2)
N13_3 N 0.7700(4) 0.9270(3) 0.6331(3)
H35_3 H 0.7440 0.9762 0.6432
H36_3 H 0.7399 0.9004 0.6034
H6_4 H 0.0026 0.1971 0.0406
C37_4 C 0.0758(3) 0.0911(3) 0.1317(3)
C38_4 C 0.0680(3) 0.1610(4) 0.1758(3)
C41_4 C 0.0442(4) 0.2914(4) 0.2585(3)
H29_4 H 0.0364 0.3349 0.2878
C42_4 C 0.1158(4) 0.2913(4) 0.2204(3)
C43_4 C 0.1267(4) 0.2250(4) 0.1801(3)
H30_4 H 0.1755 0.2234 0.1550
C44_4 C 0.1817(4) 0.3579(4) 0.2265(3)
C45_4 C 0.1914(4) 0.4042(4) 0.2783(3)
H31_4 H 0.1519 0.3977 0.3106
C46_4 C 0.2579(4) 0.4614(4) 0.2855(3)
H32_4 H 0.2632 0.4911 0.3232
C47_4 C 0.3026(4) 0.4319(4) 0.1884(3)
H33_4 H 0.3410 0.4415 0.1558
C48_4 C 0.2392(4) 0.3752(4) 0.1794(3)
H34_4 H 0.2341 0.3473 0.1411
N11_4 N 0.0117(3) 0.0557(3) 0.1047(2)
N12_4 N 0.1490(3) 0.0553(3) 0.1109(2)
N13_4 N 0.2300(4) 0.0730(3) 0.1331(3)
H35_4 H 0.2560 0.0238 0.1432
H36_4 H 0.2601 0.0996 0.1034
C13_4 C 0.0911(3) 0.0758(3) 0.8683(3)
C14_4 C 0.1610(4) 0.0680(3) 0.8242(3)
C17_4 C 0.2914(4) 0.0442(4) 0.7415(3)
H11_4 H 0.3349 0.0364 0.7122
C18_4 C 0.2913(4) 0.1158(4) 0.7796(3)
C19_4 C 0.2250(4) 0.1267(4) 0.8199(3)
H12_4 H 0.2234 0.1755 0.8450
C20_4 C 0.3579(4) 0.1817(4) 0.7735(3)
C21_4 C 0.4042(4) 0.1914(4) 0.7217(3)
H13_4 H 0.3977 0.1519 0.6894
C22_4 C 0.4614(4) 0.2579(4) 0.7145(3)
H14_4 H 0.4911 0.2632 0.6768
C23_4 C 0.4319(4) 0.3026(4) 0.8116(3)
H15_4 H 0.4415 0.3410 0.8442
C24_4 C 0.3752(4) 0.2392(4) 0.8206(3)
H16_4 H 0.3473 0.2341 0.8589
N3_4 N 0.0557(3) 0.0117(3) 0.8953(2)
N4_4 N 0.0553(3) 0.1490(3) 0.8891(2)
N5_4 N 0.0730(3) 0.2300(4) 0.8669(3)
H17_4 H 0.0238 0.2560 0.8568
H18_4 H 0.0996 0.2601 0.8966
H24_4 H 0.1971 0.0026 0.9594
C25_4 C 0.3007(4) 0.6568(4) 0.1744(3)
H19_4 H 0.2699 0.6401 0.2098
C26_4 C 0.2661(4) 0.7175(4) 0.1361(3)
H20_4 H 0.2125 0.7407 0.1454
C27_4 C 0.3084(4) 0.7442(4) 0.0852(3)
C28_4 C 0.3831(4) 0.7013(4) 0.0712(3)
H21_4 H 0.4127 0.7137 0.0345
C29_4 C 0.4132(4) 0.6410(4) 0.1109(3)
H22_4 H 0.4635 0.6122 0.1002
C30_4 C 0.2778(4) 0.8174(4) 0.0478(3)
C31_4 C 0.2181(4) 0.8711(4) 0.0733(3)
H23_4 H 0.1975 0.8603 0.1135
C32_4 C 0.1884(4) 0.9398(3) 0.0410(3)
C36_4 C 0.1271(3) 0.9951(4) 0.0705(3)
N10_4 N 0.0440(3) 0.9940(3) 0.0660(2)
C15_4 C 0.1636(4) 0.9960(4) 0.7872(3)
H9_4 H 0.1207 0.9546 0.7902
C16_4 C 0.2285(4) 0.9860(5) 0.7469(4)
H10_4 H 0.2300 0.9371 0.7218
C33_4 C 0.2170(4) 0.9555(4) 0.9820(3)
C34_4 C 0.2765(5) 0.8997(4) 0.9563(3)
H25_4 H 0.2970 0.9096 0.9160
C35_4 C 0.3053(4) 0.8311(4) 0.9887(3)
H26_4 H 0.3441 0.7933 0.9703
C9_4 C 0.9555(4) 0.2170(4) 0.0180(3)
C10_4 C 0.8997(4) 0.2765(5) 0.0437(3)
H7_4 H 0.9096 0.2970 0.0840
C11_4 C 0.8311(4) 0.3053(4) 0.0113(3)
H8_4 H 0.7933 0.3441 0.0297
C39_4 C 0.9960(4) 0.1636(4) 0.2128(3)
H27_4 H 0.9546 0.1207 0.2098
C40_4 C 0.9860(5) 0.2285(4) 0.2531(4)
H28_4 H 0.9371 0.2300 0.2782
C1_4 C 0.6568(4) 0.3007(4) 0.8256(3)
H1_4 H 0.6401 0.2699 0.7902
C2_4 C 0.7175(4) 0.2661(4) 0.8639(3)
H2_4 H 0.7407 0.2125 0.8546
C3_4 C 0.7442(4) 0.3084(4) 0.9148(3)
C4_4 C 0.7013(4) 0.3831(4) 0.9288(3)
H3_4 H 0.7137 0.4127 0.9655
C5_4 C 0.6410(4) 0.4132(4) 0.8891(3)
H4_4 H 0.6122 0.4635 0.8998
C6_4 C 0.8174(4) 0.2778(4) 0.9522(3)
C7_4 C 0.8711(4) 0.2181(4) 0.9267(3)
H5_4 H 0.8603 0.1975 0.8865
C8_4 C 0.9398(3) 0.1884(4) 0.9590(3)
C12_4 C 0.9951(4) 0.1271(3) 0.9295(3)
N2_4 N 0.9940(3) 0.0440(3) 0.9340(2)
Cl1 Cl 0.12329(16) 0.87671(16) 0.2500
O1 O 0.1118(12) 0.8166(12) 0.2137(10)
O2 O 0.121(2) 0.9347(12) 0.2123(7)
O3 O 0.1834(12) 0.8882(12) 0.2863(10)
O4 O 0.0653(12) 0.879(2) 0.2877(7)
Cl1_2 Cl 0.87671(16) 0.12329(16) 0.7500
O1_2 O 0.8882(12) 0.1834(12) 0.7137(10)
O2_2 O 0.879(2) 0.0653(12) 0.7123(7)
O3_2 O 0.8166(12) 0.1118(12) 0.7863(10)
O4_2 O 0.9347(12) 0.121(2) 0.7877(7)
Cl1_3 Cl 0.62329(16) 0.62329(16) 0.0000
O3_3 O 0.6118(12) 0.6834(12) 0.0363(10)
O4_3 O 0.621(2) 0.5653(12) 0.0377(7)
Cl1_4 Cl 0.62329(16) 0.62329(16) 1.0000
O1_3 O 0.6834(12) 0.6118(12) 0.9637(10)
O2_3 O 0.5653(12) 0.621(2) 0.9623(7)
Cl1_5 Cl 0.37671(16) 0.37671(16) 0.5000
O1_4 O 0.3166(12) 0.3882(12) 0.4637(10)
O2_4 O 0.4347(12) 0.379(2) 0.4623(7)
O3_4 O 0.3882(12) 0.3166(12) 0.5363(10)
O4_4 O 0.379(2) 0.4347(12) 0.5377(7)
Cl2 Cl 0.23093(15) 0.23093(15) 0.0000
O6 O 0.2895(14) 0.1504(11) 0.0031(17)
O7 O 0.2631(8) 0.2661(8) 0.0510(3)
Cl2_2 Cl 0.23093(15) 0.23093(15) 1.0000
O5 O 0.2661(8) 0.2631(8) 0.9490(3)
O8 O 0.1504(11) 0.2895(14) 0.9969(17)
Cl2_3 Cl 0.76907(15) 0.76907(15) 0.5000
O5_2 O 0.7339(8) 0.7369(8) 0.4490(3)
O6_2 O 0.7105(14) 0.8496(11) 0.5031(17)
O7_2 O 0.7369(8) 0.7339(8) 0.5510(3)
O8_2 O 0.8496(11) 0.7105(14) 0.4969(17)
Cl2_4 Cl 0.26907(15) 0.73093(15) 0.7500
O5_3 O 0.2369(8) 0.7661(8) 0.6990(3)
O6_3 O 0.3496(11) 0.7895(14) 0.7531(17)
O7_3 O 0.2339(8) 0.7631(8) 0.8010(3)
O8_3 O 0.2105(14) 0.6504(11) 0.7469(17)
Cl2_5 Cl 0.73093(15) 0.26907(15) 0.2500
O5_4 O 0.7631(8) 0.2339(8) 0.1990(3)
O6_4 O 0.6504(11) 0.2105(14) 0.2531(17)
O7_4 O 0.7661(8) 0.2369(8) 0.3010(3)
O8_4 O 0.7895(14) 0.3496(11) 0.2469(17)
loop_
_geom_bond_atom_site_label_1
_geom_bond_atom_site_label_2
_geom_bond_site_symmetry_1
_geom_bond_site_symmetry_2
H28 C40 1_555 1_555
C41 C40 1_555 1_555
H29 C41 1_555 1_555
H31 C45 1_555 1_555
C46 C45 1_555 1_555
H32 C46 1_555 1_555
C1 H1 1_555 1_555
C2 C1 1_555 1_555
H2 C2 1_555 1_555
C3 C2 1_555 1_555
C4 C3 1_555 1_555
H3 C4 1_555 1_555
C5 C4 1_555 1_555
H4 C5 1_555 1_555
C6 C3 1_555 1_555
C7 C6 1_555 1_555
H5 C7 1_555 1_555
C8 C7 1_555 1_555
C9 C8 1_555 1_555
H6 C9 1_555 1_555
C10 C9 1_555 1_555
H7 C10 1_555 1_555
C11 C6 1_555 1_555
H8 C11 1_555 1_555
C12 C8 1_555 1_555
C13 C14 1_555 1_555
C14 C15 1_555 1_555
C15 H9 1_555 1_555
C16 C15 1_555 1_555
H10 C16 1_555 1_555
C17 C16 1_555 1_555
H11 C17 1_555 1_555
C18 C17 1_555 1_555
C19 C14 1_555 1_555
H12 C19 1_555 1_555
C20 C18 1_555 1_555
C21 C20 1_555 1_555
H13 C21 1_555 1_555
C22 C21 1_555 1_555
H14 C22 1_555 1_555
C23 H15 1_555 1_555
C24 C20 1_555 1_555
H16 C24 1_555 1_555
Cd1 N2 1_555 1_555
N1 C1 1_555 1_555
N2 C12 1_555 1_555
N3 C13 1_555 1_555
N4 C12 1_555 1_555
N5 N4 1_555 1_555
H17 N5 1_555 1_555
H18 N5 1_555 1_555
N6 C22 1_555 1_555
C25 H19 1_555 1_555
C26 C25 1_555 1_555
H20 C26 1_555 1_555
C27 C26 1_555 1_555
C28 C27 1_555 1_555
H21 C28 1_555 1_555
C29 C28 1_555 1_555
H22 C29 1_555 1_555
C30 C27 1_555 1_555
C31 C30 1_555 1_555
H23 C31 1_555 1_555
C32 C31 1_555 1_555
C33 C32 1_555 1_555
H24 C33 1_555 1_555
C34 C33 1_555 1_555
H25 C34 1_555 1_555
C35 C30 1_555 1_555
H26 C35 1_555 1_555
C36 C32 1_555 1_555
C37 C38 1_555 1_555
C38 C39 1_555 1_555
C39 H27 1_555 1_555
C43 C38 1_555 1_555
H30 C43 1_555 1_555
C44 C42 1_555 1_555
C47 H33 1_555 1_555
C48 C44 1_555 1_555
H34 C48 1_555 1_555
Cd4 N1 1_555 1_555
Cd3_2 N9 1_555 1_555
N7 Cd1 1_555 1_555
N8 Cd1 1_555 1_555
N9 C25 1_555 1_555
N10 Cd1 1_555 1_555
N11 C37 1_555 1_555
N12 C36 1_555 1_555
N13 N12 1_555 1_555
H35 N13 1_555 1_555
H36 N13 1_555 1_555
N14 Cd1 1_555 1_555
N15 Cd1 1_555 1_555
C5 N1 1_555 1_555
C10 C11 1_555 1_555
C13 N4 1_555 1_555
C18 C19 1_555 1_555
C23 C24 1_555 1_555
C23 N6 1_555 1_555
N2 N3 1_555 1_555
C29 N9 1_555 1_555
C34 C35 1_555 1_555
C36 N10 1_555 1_555
C37 N12 1_555 1_555
C42 C43 1_555 1_555
C47 C48 1_555 1_555
C47 N16 1_555 1_555
N10 N11 1_555 1_555
C1_2 H1_2 1_555 1_555
C2_2 C1_2 1_555 1_555
H2_2 C2_2 1_555 1_555
C3_2 C2_2 1_555 1_555
C4_2 C3_2 1_555 1_555
H3_2 C4_2 1_555 1_555
C5_2 C4_2 1_555 1_555
H4_2 C5_2 1_555 1_555
C6_2 C3_2 1_555 1_555
C7_2 C6_2 1_555 1_555
H5_2 C7_2 1_555 1_555
C8_2 C7_2 1_555 1_555
C9_2 C8_2 1_555 1_555
H6_2 C9_2 1_555 1_555
C10_2 C9_2 1_555 1_555
H7_2 C10_2 1_555 1_555
C11_2 C6_2 1_555 1_555
H8_2 C11_2 1_555 1_555
C12_2 C8_2 1_555 1_555
C13_2 C14_2 1_555 1_555
C14_2 C15_2 1_555 1_555
C15_2 H9_2 1_555 1_555
C19_2 C14_2 1_555 1_555
H12_2 C19_2 1_555 1_555
C20_2 C18_2 1_555 1_555
C23_2 H15_2 1_555 1_555
C24_2 C20_2 1_555 1_555
H16_2 C24_2 1_555 1_555
Cd1_2 N2_2 1_555 1_555
N1_2 C1_2 1_555 1_555
N2_2 C12_2 1_555 1_555
N3_2 C13_2 1_555 1_555
N4_2 C12_2 1_555 1_555
N5_2 N4_2 1_555 1_555
H17_2 N5_2 1_555 1_555
H18_2 N5_2 1_555 1_555
C25_2 H19_2 1_555 1_555
C26_2 C25_2 1_555 1_555
H20_2 C26_2 1_555 1_555
C27_2 C26_2 1_555 1_555
C28_2 C27_2 1_555 1_555
H21_2 C28_2 1_555 1_555
C29_2 C28_2 1_555 1_555
H22_2 C29_2 1_555 1_555
C30_2 C27_2 1_555 1_555
C31_2 C30_2 1_555 1_555
H23_2 C31_2 1_555 1_555
C32_2 C31_2 1_555 1_555
C33_2 C32_2 1_555 1_555
H24_2 C33_2 1_555 1_555
C34_2 C33_2 1_555 1_555
H25_2 C34_2 1_555 1_555
C35_2 C30_2 1_555 1_555
H26_2 C35_2 1_555 1_555
C36_2 C32_2 1_555 1_555
C37_2 C38_2 1_555 1_555
C38_2 C39_2 1_555 1_555
C39_2 H27_2 1_555 1_555
C40_2 C39_2 1_555 1_555
H28_2 C40_2 1_555 1_555
C41_2 C40_2 1_555 1_555
H29_2 C41_2 1_555 1_555
C42_2 C41_2 1_555 1_555
C43_2 C38_2 1_555 1_555
H30_2 C43_2 1_555 1_555
C44_2 C42_2 1_555 1_555
C45_2 C44_2 1_555 1_555
H31_2 C45_2 1_555 1_555
C46_2 C45_2 1_555 1_555
H32_2 C46_2 1_555 1_555
C47_2 H33_2 1_555 1_555
C48_2 C44_2 1_555 1_555
H34_2 C48_2 1_555 1_555
Cd3 N1_2 1_555 1_555
Cd4 N9_2 1_555 1_555
N7_2 Cd1_2 1_555 1_555
N8_2 Cd1_2 1_555 1_555
N9_2 C25_2 1_555 1_555
N10_2 Cd1_2 1_555 1_555
N11_2 C37_2 1_555 1_555
N12_2 C36_2 1_555 1_555
N13_2 N12_2 1_555 1_555
H35_2 N13_2 1_555 1_555
H36_2 N13_2 1_555 1_555
N14_2 Cd1_2 1_555 1_555
N15_2 Cd1_2 1_555 1_555
N16_2 C46_2 1_555 1_555
C5_2 N1_2 1_555 1_555
C10_2 C11_2 1_555 1_555
C13_2 N4_2 1_555 1_555
C18_2 C19_2 1_555 1_555
C23_2 C24_2 1_555 1_555
C23_2 N6_2 1_555 1_555
N2_2 N3_2 1_555 1_555
C29_2 N9_2 1_555 1_555
C34_2 C35_2 1_555 1_555
C36_2 N10_2 1_555 1_555
C37_2 N12_2 1_555 1_555
C42_2 C43_2 1_555 1_555
C47_2 C48_2 1_555 1_555
C47_2 N16_2 1_555 1_555
N10_2 N11_2 1_555 1_555
H10_2 C16_2 1_555 1_555
C17_2 C16_2 1_555 1_555
H11_2 C17_2 1_555 1_555
H13_2 C21_2 1_555 1_555
C22_2 C21_2 1_555 1_555
H14_2 C22_2 1_555 1_555
C1_3 H1_3 1_555 1_555
C2_3 C1_3 1_555 1_555
H2_3 C2_3 1_555 1_555
C3_3 C2_3 1_555 1_555
C4_3 C3_3 1_555 1_555
H3_3 C4_3 1_555 1_555
C5_3 C4_3 1_555 1_555
H4_3 C5_3 1_555 1_555
C6_3 C3_3 1_555 1_555
C7_3 C6_3 1_555 1_555
H5_3 C7_3 1_555 1_555
C8_3 C7_3 1_555 1_555
C9_3 C8_3 1_555 1_555
C10_3 C9_3 1_555 1_555
H7_3 C10_3 1_555 1_555
C11_3 C6_3 1_555 1_555
H8_3 C11_3 1_555 1_555
C12_3 C8_3 1_555 1_555
N8_2 C1_3 1_555 1_555
N2_3 C12_3 1_555 1_555
C39_3 H27_3 1_555 1_555
C40_3 C39_3 1_555 1_555
H28_3 C40_3 1_555 1_555
C5_3 N8_2 1_555 1_555
C10_3 C11_3 1_555 1_555
C15_3 H9_3 1_555 1_555
C16_3 C15_3 1_555 1_555
H10_3 C16_3 1_555 1_555
C25_3 H19_3 1_555 1_555
C26_3 C25_3 1_555 1_555
H20_3 C26_3 1_555 1_555
C27_3 C26_3 1_555 1_555
C28_3 C27_3 1_555 1_555
H21_3 C28_3 1_555 1_555
C29_3 C28_3 1_555 1_555
H22_3 C29_3 1_555 1_555
C30_3 C27_3 1_555 1_555
C31_3 C30_3 1_555 1_555
H23_3 C31_3 1_555 1_555
C32_3 C31_3 1_555 1_555
C33_3 C32_3 1_555 1_555
C34_3 C33_3 1_555 1_555
H25_3 C34_3 1_555 1_555
C35_3 C30_3 1_555 1_555
H26_3 C35_3 1_555 1_555
C36_3 C32_3 1_555 1_555
N7 C25_3 1_555 1_555
C29_3 N7 1_555 1_555
C34_3 C35_3 1_555 1_555
C36_3 N10_3 1_555 1_555
C13_3 C14_3 1_555 1_555
H11_3 C17_3 1_555 1_555
C18_3 C17_3 1_555 1_555
C19_3 C14_3 1_555 1_555
H12_3 C19_3 1_555 1_555
C20_3 C18_3 1_555 1_555
C21_3 C20_3 1_555 1_555
H13_3 C21_3 1_555 1_555
C22_3 C21_3 1_555 1_555
H14_3 C22_3 1_555 1_555
C23_3 H15_3 1_555 1_555
C24_3 C20_3 1_555 1_555
H16_3 C24_3 1_555 1_555
N3_3 C13_3 1_555 1_555
N5_3 N4_3 1_555 1_555
H17_3 N5_3 1_555 1_555
H18_3 N5_3 1_555 1_555
N15_2 C22_3 1_555 1_555
C37_3 C38_3 1_555 1_555
H29_3 C41_3 1_555 1_555
C42_3 C41_3 1_555 1_555
C43_3 C38_3 1_555 1_555
H30_3 C43_3 1_555 1_555
C44_3 C42_3 1_555 1_555
C45_3 C44_3 1_555 1_555
H31_3 C45_3 1_555 1_555
C46_3 C45_3 1_555 1_555
H32_3 C46_3 1_555 1_555
C47_3 H33_3 1_555 1_555
C48_3 C44_3 1_555 1_555
H34_3 C48_3 1_555 1_555
N11_3 C37_3 1_555 1_555
N13_3 N12_3 1_555 1_555
H35_3 N13_3 1_555 1_555
H36_3 N13_3 1_555 1_555
N14 C46_3 1_555 1_555
C13_3 N4_3 1_555 1_555
C18_3 C19_3 1_555 1_555
C23_3 C24_3 1_555 1_555
C23_3 N15_2 1_555 1_555
C37_3 N12_3 1_555 1_555
C42_3 C43_3 1_555 1_555
C47_3 C48_3 1_555 1_555
C47_3 N14 1_555 1_555
C37_4 C38_4 1_555 1_555
H29_4 C41_4 1_555 1_555
C42_4 C41_4 1_555 1_555
C43_4 C38_4 1_555 1_555
H30_4 C43_4 1_555 1_555
C44_4 C42_4 1_555 1_555
C45_4 C44_4 1_555 1_555
H31_4 C45_4 1_555 1_555
C46_4 C45_4 1_555 1_555
H32_4 C46_4 1_555 1_555
C47_4 H33_4 1_555 1_555
C48_4 C44_4 1_555 1_555
H34_4 C48_4 1_555 1_555
N11_4 C37_4 1_555 1_555
N13_4 N12_4 1_555 1_555
H35_4 N13_4 1_555 1_555
H36_4 N13_4 1_555 1_555
N14_2 C46_4 1_555 1_555
C37_4 N12_4 1_555 1_555
C42_4 C43_4 1_555 1_555
C47_4 C48_4 1_555 1_555
C47_4 N14_2 1_555 1_555
C13_4 C14_4 1_555 1_555
H11_4 C17_4 1_555 1_555
C18_4 C17_4 1_555 1_555
C19_4 C14_4 1_555 1_555
H12_4 C19_4 1_555 1_555
C20_4 C18_4 1_555 1_555
C21_4 C20_4 1_555 1_555
H13_4 C21_4 1_555 1_555
C22_4 C21_4 1_555 1_555
H14_4 C22_4 1_555 1_555
C23_4 H15_4 1_555 1_555
C24_4 C20_4 1_555 1_555
H16_4 C24_4 1_555 1_555
N3_4 C13_4 1_555 1_555
N5_4 N4_4 1_555 1_555
H17_4 N5_4 1_555 1_555
H18_4 N5_4 1_555 1_555
N15 C22_4 1_555 1_555
C13_4 N4_4 1_555 1_555
C18_4 C19_4 1_555 1_555
C23_4 C24_4 1_555 1_555
C23_4 N15 1_555 1_555
C25_4 H19_4 1_555 1_555
C26_4 C25_4 1_555 1_555
H20_4 C26_4 1_555 1_555
C27_4 C26_4 1_555 1_555
C28_4 C27_4 1_555 1_555
H21_4 C28_4 1_555 1_555
C29_4 C28_4 1_555 1_555
H22_4 C29_4 1_555 1_555
C30_4 C27_4 1_555 1_555
C31_4 C30_4 1_555 1_555
H23_4 C31_4 1_555 1_555
C32_4 C31_4 1_555 1_555
C36_4 C32_4 1_555 1_555
N7_2 C25_4 1_555 1_555
C29_4 N7_2 1_555 1_555
C36_4 N10_4 1_555 1_555
C15_4 H9_4 1_555 1_555
C16_4 C15_4 1_555 1_555
H10_4 C16_4 1_555 1_555
C34_4 C33_4 1_555 1_555
H25_4 C34_4 1_555 1_555
H26_4 C35_4 1_555 1_555
C34_4 C35_4 1_555 1_555
C10_4 C9_4 1_555 1_555
H7_4 C10_4 1_555 1_555
H8_4 C11_4 1_555 1_555
C39_4 H27_4 1_555 1_555
C40_4 C39_4 1_555 1_555
H28_4 C40_4 1_555 1_555
C10_4 C11_4 1_555 1_555
C1_4 H1_4 1_555 1_555
C2_4 C1_4 1_555 1_555
H2_4 C2_4 1_555 1_555
C3_4 C2_4 1_555 1_555
C4_4 C3_4 1_555 1_555
H3_4 C4_4 1_555 1_555
C5_4 C4_4 1_555 1_555
H4_4 C5_4 1_555 1_555
C6_4 C3_4 1_555 1_555
C7_4 C6_4 1_555 1_555
H5_4 C7_4 1_555 1_555
C8_4 C7_4 1_555 1_555
C12_4 C8_4 1_555 1_555
N8 C1_4 1_555 1_555
N2_4 C12_4 1_555 1_555
C5_4 N8 1_555 1_555
Cl1 O1 1_555 1_555
O2 Cl1 1_555 1_555
O3 Cl1 1_555 1_555
O4 Cl1 1_555 1_555
Cl1_2 O1_2 1_555 1_555
O2_2 Cl1_2 1_555 1_555
O3_2 Cl1_2 1_555 1_555
O4_2 Cl1_2 1_555 1_555
O3_3 Cl1_3 1_555 1_555
O4_3 Cl1_3 1_555 1_555
Cl1_4 O1_3 1_555 1_555
O2_3 Cl1_4 1_555 1_555
Cl1_5 O1_4 1_555 1_555
O2_4 Cl1_5 1_555 1_555
O3_4 Cl1_5 1_555 1_555
O4_4 Cl1_5 1_555 1_555
O6 Cl2 1_555 1_555
O7 Cl2 1_555 1_555
Cl2_2 O5 1_555 1_555
O8 Cl2_2 1_555 1_555
Cl2_3 O5_2 1_555 1_555
O6_2 Cl2_3 1_555 1_555
O7_2 Cl2_3 1_555 1_555
O8_2 Cl2_3 1_555 1_555
Cl2_4 O5_3 1_555 1_555
O6_3 Cl2_4 1_555 1_555
O7_3 Cl2_4 1_555 1_555
O8_3 Cl2_4 1_555 1_555
Cl2_5 O5_4 1_555 1_555
O6_4 Cl2_5 1_555 1_555
O7_4 Cl2_5 1_555 1_555
O8_4 Cl2_5 1_555 1_555

#END
