
###############################################################################
#
# This file contains modified crystal structure data generated from the
# MOF subset of the Cambridge Structural Database (CSD) v543 
# hosted by the Cambridge Crystallographic Data Centre (CCDC).
#
# This work is licensed under the Creative Commons
# Attribution-NonCommercial-ShareAlike 4.0 International License.
# To view a copy of this license, visit
# http://creativecommons.org/licenses/by-nc-sa/4.0/
# or send a letter to
# Creative Commons, PO Box 1866, Mountain View, CA 94042, USA.
#
# CIF created using the CSD Python API on 29 September 2022
# The structure has been converted into the P1 space group
# The structure has a 3D framework
# The original CSD entry OKIYIR03 is in the tetragonal crystal system
# The original CSD entry OKIYIR03 is in a Sohncke space group
# The framework has been calculated to contain at least 10.0% void space
# The void calculation uses a probe of radius 1.32A, grid spacing 0.4
# The framework is charged, counterions have been retained in the structure
#
###############################################################################

data_OKIYIR03
_chemical_formula_moiety         '(C192 H144 Cd3 Cl10 N48 O32 2-)n'
_symmetry_cell_setting           triclinic
_symmetry_space_group_name_H-M   'P 1'
_symmetry_Int_Tables_number      1
_space_group_name_Hall           'P 1'
loop_
_symmetry_equiv_pos_site_id
_symmetry_equiv_pos_as_xyz
1 x,y,z
_cell_length_a                   15.8562(13)
_cell_length_b                   15.8562(13)
_cell_length_c                   21.765(4)
_cell_angle_alpha                90
_cell_angle_beta                 90
_cell_angle_gamma                90
_cell_volume                     5472.14
loop_
_atom_site_label
_atom_site_type_symbol
_atom_site_fract_x
_atom_site_fract_y
_atom_site_fract_z
C32 C 0.2310(4) 0.0176(4) 0.0006(3)
H24 H 0.2339 0.0665 0.0240
C13 C 0.1257(3) 0.0046(3) 0.6805(2)
C14 C 0.1875(3) 0.0613(3) 0.7109(2)
C15 C 0.2174(4) 0.0448(3) 0.7697(2)
C16 C 0.2754(4) 0.0999(4) 0.7960(3)
H10 H 0.2947 0.0903 0.8357
C17 C 0.3046(3) 0.1692(3) 0.7631(2)
H11 H 0.3437 0.2055 0.7810
C18 C 0.2759(3) 0.1846(3) 0.7039(2)
C19 C 0.2163(3) 0.1302(3) 0.6789(2)
H12 H 0.1957 0.1406 0.6396
C20 C 0.3068(3) 0.2573(3) 0.6666(2)
C21 C 0.3829(3) 0.2985(3) 0.6798(2)
H13 H 0.4127 0.2851 0.7153
C22 C 0.4134(3) 0.3588(3) 0.6399(2)
H14 H 0.4635 0.3861 0.6498
C23 C 0.2983(3) 0.3439(4) 0.5773(2)
H15 H 0.2682 0.3599 0.5425
C24 C 0.2635(3) 0.2851(3) 0.6151(2)
H16 H 0.2104 0.2635 0.6063
N3 N 0.0440(2) 0.0070(3) 0.68371(19)
N6 N 0.3737(3) 0.3802(3) 0.58726(19)
C33 C 0.1635(4) 0.0060(4) 0.9613(3)
H25 H 0.1204 0.0457 0.9591
Cd2 Cd 0.440207(19) 0.440207(19) 0.5000
N8 N 0.0237(3) 0.1885(3) 0.7584(2)
C25 C 0.4643(4) 0.7470(3) 0.0346(3)
H19 H 0.4952 0.7431 0.0708
C26 C 0.4081(3) 0.8132(3) 0.0282(3)
H20 H 0.4034 0.8532 0.0593
C31 C 0.2934(3) 0.9587(4) 0.0059(3)
H23 H 0.3371 0.9673 0.0338
Cd5 Cd 0.559793(19) 0.559793(19) 0.0000
C1 C 0.2530(3) 0.5357(4) 0.4654(3)
H1 H 0.2569 0.5048 0.4292
C2 C 0.1868(3) 0.5919(3) 0.4718(3)
H2 H 0.1468 0.5966 0.4407
C3 C 0.1795(3) 0.6409(3) 0.5239(3)
C4 C 0.2393(3) 0.6256(3) 0.5694(3)
H3 H 0.2361 0.6544 0.6066
C5 C 0.3032(4) 0.5681(3) 0.5600(2)
H4 H 0.3424 0.5599 0.5912
C6 C 0.1146(3) 0.7074(3) 0.5300(3)
C7 C 0.0413(4) 0.7066(3) 0.4941(3)
H5 H 0.0327 0.6629 0.4662
C10 C 0.0669(3) 0.8387(3) 0.5754(2)
C11 C 0.1258(3) 0.7744(3) 0.5706(2)
H8 H 0.1739 0.7761 0.5950
C12 C 0.0750(3) 0.9086(3) 0.6189(2)
H9 H 0.1989 0.9975 0.7912
N1 N 0.3115(3) 0.5237(3) 0.5084(2)
N2 N 0.0111(3) 0.9462(3) 0.64514(18)
N4 N 0.1486(3) 0.9437(2) 0.64022(19)
N5 N 0.2304(3) 0.9251(3) 0.6195(3)
H17 H 0.2583 0.9731 0.6139
H18 H 0.2570 0.8938 0.6474
C27 C 0.3591(3) 0.8205(3) 0.9761(3)
C28 C 0.3744(3) 0.7607(3) 0.9306(3)
H21 H 0.3456 0.7639 0.8934
C29 C 0.4319(3) 0.6968(4) 0.9400(2)
H22 H 0.4401 0.6576 0.9088
C30 C 0.2926(3) 0.8854(3) 0.9700(3)
C34 C 0.1613(3) 0.9331(3) 0.9246(2)
C35 C 0.2256(3) 0.8742(3) 0.9294(2)
H26 H 0.2239 0.8261 0.9050
C36 C 0.0914(3) 0.9250(3) 0.8811(2)
H27 H 0.0025 0.8011 0.7088
Cd5_2 Cd 0.559793(19) 0.559793(19) 1.0000
N9 N 0.4763(3) 0.6885(3) 0.9916(2)
N10 N 0.0538(3) 0.9889(3) 0.85486(18)
N12 N 0.0563(2) 0.8514(3) 0.85978(19)
N13 N 0.0749(3) 0.7696(3) 0.8805(3)
H35 H 0.0269 0.7417 0.8861
H36 H 0.1062 0.7430 0.8526
Cd1 Cd 0.940207(19) 0.059793(19) 0.7500
N14 N 0.8802(3) 0.1263(3) 0.83726(19)
N15 N 0.8737(3) 0.1198(3) 0.66274(19)
C8 C 0.9824(4) 0.7690(4) 0.4994(3)
H6 H 0.9335 0.7661 0.4760
C9 C 0.9940(4) 0.8365(4) 0.5387(3)
H7 H 0.9543 0.8796 0.5409
C37 C 0.9954(3) 0.8743(3) 0.8195(2)
C38 C 0.9387(3) 0.8125(3) 0.7891(2)
C39 C 0.9552(3) 0.7826(4) 0.7303(2)
C40 C 0.9001(4) 0.7246(4) 0.7040(3)
H28 H 0.9097 0.7053 0.6643
C41 C 0.8308(3) 0.6954(3) 0.7369(2)
H29 H 0.7945 0.6563 0.7190
C42 C 0.8154(3) 0.7241(3) 0.7961(2)
C43 C 0.8698(3) 0.7837(3) 0.8211(2)
H30 H 0.8594 0.8043 0.8604
C44 C 0.7427(3) 0.6932(3) 0.8334(2)
C45 C 0.7015(3) 0.6171(3) 0.8202(2)
H31 H 0.7149 0.5873 0.7847
C46 C 0.6412(3) 0.5866(3) 0.8601(2)
H32 H 0.6139 0.5365 0.8502
C47 C 0.6561(4) 0.7017(3) 0.9227(2)
H33 H 0.6401 0.7318 0.9575
C48 C 0.7149(3) 0.7365(3) 0.8849(2)
H34 H 0.7365 0.7896 0.8937
N7 N 0.8115(3) 0.9763(3) 0.7416(2)
N11 N 0.9930(3) 0.9560(2) 0.81629(19)
N16 N 0.6198(3) 0.6263(3) 0.91274(19)
C9_2 C 0.0060(4) 0.1635(4) 0.0387(3)
H7_2 H 0.0457 0.1204 0.0409
C37_2 C 0.0046(3) 0.1257(3) 0.3195(2)
C38_2 C 0.0613(3) 0.1875(3) 0.2891(2)
C39_2 C 0.0448(3) 0.2174(4) 0.2303(2)
C40_2 C 0.0999(4) 0.2754(4) 0.2040(3)
H28_2 H 0.0903 0.2947 0.1643
C41_2 C 0.1692(3) 0.3046(3) 0.2369(2)
H29_2 H 0.2055 0.3437 0.2190
C42_2 C 0.1846(3) 0.2759(3) 0.2961(2)
C43_2 C 0.1302(3) 0.2163(3) 0.3211(2)
H30_2 H 0.1406 0.1957 0.3604
C44_2 C 0.2573(3) 0.3068(3) 0.3334(2)
C45_2 C 0.2985(3) 0.3829(3) 0.3202(2)
H31_2 H 0.2851 0.4127 0.2847
C46_2 C 0.3588(3) 0.4134(3) 0.3601(2)
H32_2 H 0.3861 0.4635 0.3502
C47_2 C 0.3439(4) 0.2983(3) 0.4227(2)
H33_2 H 0.3599 0.2682 0.4575
C48_2 C 0.2851(3) 0.2635(3) 0.3849(2)
H34_2 H 0.2635 0.2104 0.3937
N7_2 N 0.1885(3) 0.0237(3) 0.2416(2)
N11_2 N 0.0070(3) 0.0440(2) 0.31629(19)
N16_2 N 0.3802(3) 0.3737(3) 0.41274(19)
Cd1_2 Cd 0.059793(19) 0.940207(19) 0.2500
N14_2 N 0.1198(3) 0.8737(3) 0.33726(19)
N15_2 N 0.1263(3) 0.8802(3) 0.16274(19)
C3_2 C 0.8205(3) 0.3591(3) 0.0239(3)
C4_2 C 0.7607(3) 0.3744(3) 0.0694(3)
H3_2 H 0.7639 0.3456 0.1066
C5_2 C 0.6968(4) 0.4319(3) 0.0600(2)
H4_2 H 0.6576 0.4401 0.0912
C6_2 C 0.8854(3) 0.2926(3) 0.0300(3)
C10_2 C 0.9331(3) 0.1613(3) 0.0754(2)
C11_2 C 0.8742(3) 0.2256(3) 0.0706(2)
H8_2 H 0.8261 0.2239 0.0950
C12_2 C 0.9250(3) 0.0914(3) 0.1189(2)
H9_2 H 0.8011 0.0025 0.2912
N1_2 N 0.6885(3) 0.4763(3) 0.0084(2)
N2_2 N 0.9889(3) 0.0538(3) 0.14514(18)
N4_2 N 0.8514(3) 0.0563(2) 0.14022(19)
N5_2 N 0.7696(3) 0.0749(3) 0.1195(3)
H17_2 H 0.7417 0.0269 0.1139
H18_2 H 0.7430 0.1062 0.1474
C25_2 C 0.5357(4) 0.2530(3) 0.5346(3)
H19_2 H 0.5048 0.2569 0.5708
C26_2 C 0.5919(3) 0.1868(3) 0.5282(3)
H20_2 H 0.5966 0.1468 0.5593
C27_2 C 0.6409(3) 0.1795(3) 0.4761(3)
C28_2 C 0.6256(3) 0.2393(3) 0.4306(3)
H21_2 H 0.6544 0.2361 0.3934
C29_2 C 0.5681(3) 0.3032(4) 0.4400(2)
H22_2 H 0.5599 0.3424 0.4088
C30_2 C 0.7074(3) 0.1146(3) 0.4700(3)
C31_2 C 0.7066(3) 0.0413(4) 0.5059(3)
H23_2 H 0.6629 0.0327 0.5338
C34_2 C 0.8387(3) 0.0669(3) 0.4246(2)
C35_2 C 0.7744(3) 0.1258(3) 0.4294(2)
H26_2 H 0.7761 0.1739 0.4050
C36_2 C 0.9086(3) 0.0750(3) 0.3811(2)
H27_2 H 0.9975 0.1989 0.2088
N9_2 N 0.5237(3) 0.3115(3) 0.4916(2)
N10_2 N 0.9462(3) 0.0111(3) 0.35486(18)
N12_2 N 0.9437(2) 0.1486(3) 0.35978(19)
N13_2 N 0.9251(3) 0.2304(3) 0.3805(3)
H35_2 H 0.9731 0.2583 0.3861
H36_2 H 0.8938 0.2570 0.3526
C1_2 C 0.7470(3) 0.4643(4) 0.9654(3)
H1_2 H 0.7431 0.4952 0.9292
C2_2 C 0.8132(3) 0.4081(3) 0.9718(3)
H2_2 H 0.8532 0.4034 0.9407
C7_2 C 0.9587(4) 0.2934(3) 0.9941(3)
H5_2 H 0.9673 0.3371 0.9662
C13_2 C 0.8743(3) 0.9954(3) 0.1805(2)
C14_2 C 0.8125(3) 0.9387(3) 0.2109(2)
C15_2 C 0.7826(4) 0.9552(3) 0.2697(2)
C16_2 C 0.7246(4) 0.9001(4) 0.2960(3)
H10_2 H 0.7053 0.9097 0.3357
C17_2 C 0.6954(3) 0.8308(3) 0.2631(2)
H11_2 H 0.6563 0.7945 0.2810
C18_2 C 0.7241(3) 0.8154(3) 0.2039(2)
C19_2 C 0.7837(3) 0.8698(3) 0.1789(2)
H12_2 H 0.8043 0.8594 0.1396
C20_2 C 0.6932(3) 0.7427(3) 0.1666(2)
C21_2 C 0.6171(3) 0.7015(3) 0.1798(2)
H13_2 H 0.5873 0.7149 0.2153
C22_2 C 0.5866(3) 0.6412(3) 0.1399(2)
H14_2 H 0.5365 0.6139 0.1498
C23_2 C 0.7017(3) 0.6561(4) 0.0773(2)
H15_2 H 0.7318 0.6401 0.0425
C24_2 C 0.7365(3) 0.7149(3) 0.1151(2)
H16_2 H 0.7896 0.7365 0.1063
N3_2 N 0.9560(2) 0.9930(3) 0.18371(19)
N6_2 N 0.6263(3) 0.6198(3) 0.08726(19)
C32_2 C 0.7690(4) 0.9824(4) 0.5006(3)
H24_2 H 0.7661 0.9335 0.5240
C33_2 C 0.8365(4) 0.9940(4) 0.4613(3)
H25_2 H 0.8796 0.9543 0.4591
N8_2 N 0.9763(3) 0.8115(3) 0.2584(2)
C1_3 C 0.9643(4) 0.7530(3) 0.2154(3)
H1_3 H 0.9952 0.7569 0.1792
C2_3 C 0.9081(3) 0.6868(3) 0.2218(3)
H2_3 H 0.9034 0.6468 0.1907
C3_3 C 0.8591(3) 0.6795(3) 0.2739(3)
C4_3 C 0.8744(3) 0.7393(3) 0.3194(3)
H3_3 H 0.8456 0.7361 0.3566
C5_3 C 0.9319(3) 0.8032(4) 0.3100(2)
H4_3 H 0.9401 0.8424 0.3412
C6_3 C 0.7926(3) 0.6146(3) 0.2800(3)
C7_3 C 0.7934(3) 0.5413(4) 0.2441(3)
H5_3 H 0.8371 0.5327 0.2162
C8_2 C 0.7310(4) 0.4824(4) 0.2494(3)
H6_2 H 0.7339 0.4335 0.2260
C9_3 C 0.6635(4) 0.4940(4) 0.2887(3)
H7_3 H 0.6204 0.4543 0.2909
C10_3 C 0.6613(3) 0.5669(3) 0.3254(2)
C11_3 C 0.7256(3) 0.6258(3) 0.3206(2)
H8_3 H 0.7239 0.6739 0.3450
C12_3 C 0.5914(3) 0.5750(3) 0.3689(2)
C13_3 C 0.4954(3) 0.6257(3) 0.4305(2)
C14_3 C 0.4387(3) 0.6875(3) 0.4609(2)
C15_3 C 0.4552(3) 0.7174(4) 0.5197(2)
H9_3 H 0.5025 0.6989 0.5412
C16_3 C 0.4001(4) 0.7754(4) 0.5460(3)
H10_3 H 0.4097 0.7947 0.5857
C17_3 C 0.3308(3) 0.8046(3) 0.5131(2)
H11_3 H 0.2945 0.8437 0.5310
C18_3 C 0.3154(3) 0.7759(3) 0.4539(2)
C19_3 C 0.3698(3) 0.7163(3) 0.4289(2)
H12_3 H 0.3594 0.6957 0.3896
C20_3 C 0.2427(3) 0.8068(3) 0.4166(2)
C21_3 C 0.2015(3) 0.8829(3) 0.4298(2)
H13_3 H 0.2149 0.9127 0.4653
C22_3 C 0.1412(3) 0.9134(3) 0.3899(2)
H14_3 H 0.1139 0.9635 0.3998
C23_3 C 0.1561(4) 0.7983(3) 0.3273(2)
H15_3 H 0.1401 0.7682 0.2925
C24_3 C 0.2149(3) 0.7635(3) 0.3651(2)
H16_3 H 0.2365 0.7104 0.3563
N2_3 N 0.5538(3) 0.5111(3) 0.39514(18)
N3_3 N 0.4930(3) 0.5440(2) 0.43371(19)
N4_3 N 0.5563(2) 0.6486(3) 0.39022(19)
N5_3 N 0.5749(3) 0.7304(3) 0.3695(3)
H17_3 H 0.5269 0.7583 0.3639
H18_3 H 0.6062 0.7570 0.3974
C25_3 C 0.7530(3) 0.9643(4) 0.7846(3)
H19_3 H 0.7569 0.9952 0.8208
C26_3 C 0.6868(3) 0.9081(3) 0.7782(3)
H20_3 H 0.6468 0.9034 0.8093
C27_3 C 0.6795(3) 0.8591(3) 0.7261(3)
C28_3 C 0.7393(3) 0.8744(3) 0.6806(3)
H21_3 H 0.7361 0.8456 0.6434
C29_3 C 0.8032(4) 0.9319(3) 0.6900(2)
H22_3 H 0.8424 0.9401 0.6588
C30_3 C 0.6146(3) 0.7926(3) 0.7200(3)
C31_3 C 0.5413(4) 0.7934(3) 0.7559(3)
H23_3 H 0.5327 0.8371 0.7838
C32_3 C 0.4824(4) 0.7310(4) 0.7506(3)
H24_3 H 0.4335 0.7339 0.7740
C33_3 C 0.4940(4) 0.6635(4) 0.7113(3)
H25_3 H 0.4543 0.6204 0.7091
C34_3 C 0.5669(3) 0.6613(3) 0.6746(2)
C35_3 C 0.6258(3) 0.7256(3) 0.6794(2)
H26_3 H 0.6739 0.7239 0.6550
C36_3 C 0.5750(3) 0.5914(3) 0.6311(2)
C37_3 C 0.6257(3) 0.4954(3) 0.5695(2)
C38_3 C 0.6875(3) 0.4387(3) 0.5391(2)
C39_3 C 0.7174(4) 0.4552(3) 0.4803(2)
H27_3 H 0.6989 0.5025 0.4588
C40_3 C 0.7754(4) 0.4001(4) 0.4540(3)
H28_3 H 0.7947 0.4097 0.4143
C41_3 C 0.8046(3) 0.3308(3) 0.4869(2)
H29_3 H 0.8437 0.2945 0.4690
C42_3 C 0.7759(3) 0.3154(3) 0.5461(2)
C43_3 C 0.7163(3) 0.3698(3) 0.5711(2)
H30_3 H 0.6957 0.3594 0.6104
C44_3 C 0.8068(3) 0.2427(3) 0.5834(2)
C45_3 C 0.8829(3) 0.2015(3) 0.5702(2)
H31_3 H 0.9127 0.2149 0.5347
C46_3 C 0.9134(3) 0.1412(3) 0.6101(2)
H32_3 H 0.9635 0.1139 0.6002
C47_3 C 0.7983(3) 0.1561(4) 0.6727(2)
H33_3 H 0.7682 0.1401 0.7075
C48_3 C 0.7635(3) 0.2149(3) 0.6349(2)
H34_3 H 0.7104 0.2365 0.6437
N10_3 N 0.5111(3) 0.5538(3) 0.60486(18)
N11_3 N 0.5440(2) 0.4930(3) 0.56629(19)
N12_3 N 0.6486(3) 0.5563(2) 0.60978(19)
N13_3 N 0.7304(3) 0.5749(3) 0.6305(3)
H35_3 H 0.7583 0.5269 0.6361
H36_3 H 0.7570 0.6062 0.6026
C15_4 C 0.5448(3) 0.2826(4) 0.0197(2)
H9_4 H 0.4975 0.3011 0.0412
C16_4 C 0.5999(4) 0.2246(4) 0.0460(3)
H10_4 H 0.5903 0.2053 0.0857
C17_4 C 0.6692(3) 0.1954(3) 0.0131(2)
H11_4 H 0.7055 0.1563 0.0310
C25_4 C 0.2470(3) 0.0357(4) 0.2846(3)
H19_4 H 0.2431 0.0048 0.3208
C26_4 C 0.3132(3) 0.0919(3) 0.2782(3)
H20_4 H 0.3532 0.0966 0.3093
C27_4 C 0.3205(3) 0.1409(3) 0.2261(3)
C28_4 C 0.2607(3) 0.1256(3) 0.1806(3)
H21_4 H 0.2639 0.1544 0.1434
C29_4 C 0.1968(4) 0.0681(3) 0.1900(2)
H22_4 H 0.1576 0.0599 0.1588
C30_4 C 0.3854(3) 0.2074(3) 0.2200(3)
C31_4 C 0.4587(4) 0.2066(3) 0.2559(3)
H23_4 H 0.4673 0.1629 0.2838
C32_4 C 0.5176(4) 0.2690(4) 0.2506(3)
H24_4 H 0.5665 0.2661 0.2740
C33_4 C 0.5060(4) 0.3365(4) 0.2113(3)
H25_4 H 0.5457 0.3796 0.2091
C34_4 C 0.4331(3) 0.3387(3) 0.1746(2)
C35_4 C 0.3742(3) 0.2744(3) 0.1794(2)
H26_4 H 0.3261 0.2761 0.1550
C36_4 C 0.4250(3) 0.4086(3) 0.1311(2)
C37_4 C 0.3743(3) 0.5046(3) 0.0695(2)
C38_4 C 0.3125(3) 0.5613(3) 0.0391(2)
C42_4 C 0.2241(3) 0.6846(3) 0.0461(2)
C43_4 C 0.2837(3) 0.6302(3) 0.0711(2)
H30_4 H 0.3043 0.6406 0.1104
C44_4 C 0.1932(3) 0.7573(3) 0.0834(2)
C45_4 C 0.1171(3) 0.7985(3) 0.0702(2)
H31_4 H 0.0873 0.7851 0.0347
C46_4 C 0.0866(3) 0.8588(3) 0.1101(2)
H32_4 H 0.0365 0.8861 0.1002
C47_4 C 0.2017(3) 0.8439(4) 0.1727(2)
H33_4 H 0.2318 0.8599 0.2075
C48_4 C 0.2365(3) 0.7851(3) 0.1349(2)
H34_4 H 0.2896 0.7635 0.1437
N10_4 N 0.4889(3) 0.4462(3) 0.10486(18)
N11_4 N 0.4560(2) 0.5070(3) 0.06629(19)
N12_4 N 0.3514(3) 0.4437(2) 0.10978(19)
N13_4 N 0.2696(3) 0.4251(3) 0.1305(3)
H35_4 H 0.2417 0.4731 0.1361
H36_4 H 0.2430 0.3938 0.1026
C1_4 C 0.0357(4) 0.2470(3) 0.7154(3)
H1_4 H 0.0048 0.2431 0.6792
C2_4 C 0.0919(3) 0.3132(3) 0.7218(3)
H2_4 H 0.0966 0.3532 0.6907
C3_4 C 0.1409(3) 0.3205(3) 0.7739(3)
C4_4 C 0.1256(3) 0.2607(3) 0.8194(3)
H3_4 H 0.1544 0.2639 0.8566
C5_4 C 0.0681(3) 0.1968(4) 0.8100(2)
H4_4 H 0.0599 0.1576 0.8412
C6_4 C 0.2074(3) 0.3854(3) 0.7800(3)
C7_4 C 0.2066(3) 0.4587(4) 0.7441(3)
H5_4 H 0.1629 0.4673 0.7162
C8_3 C 0.2690(4) 0.5176(4) 0.7494(3)
H6_3 H 0.2661 0.5665 0.7260
C9_4 C 0.3365(4) 0.5060(4) 0.7887(3)
H7_4 H 0.3796 0.5457 0.7909
C10_4 C 0.3387(3) 0.4331(3) 0.8254(2)
C11_4 C 0.2744(3) 0.3742(3) 0.8206(2)
H8_4 H 0.2761 0.3261 0.8450
C12_4 C 0.4086(3) 0.4250(3) 0.8689(2)
C13_4 C 0.5046(3) 0.3743(3) 0.9305(2)
C14_4 C 0.5613(3) 0.3125(3) 0.9609(2)
C18_4 C 0.6846(3) 0.2241(3) 0.9539(2)
C19_4 C 0.6302(3) 0.2837(3) 0.9289(2)
H12_4 H 0.6406 0.3043 0.8896
C20_4 C 0.7573(3) 0.1932(3) 0.9166(2)
C21_4 C 0.7985(3) 0.1171(3) 0.9298(2)
H13_4 H 0.7851 0.0873 0.9653
C22_4 C 0.8588(3) 0.0866(3) 0.8899(2)
H14_4 H 0.8861 0.0365 0.8998
C23_4 C 0.8439(4) 0.2017(3) 0.8273(2)
H15_4 H 0.8599 0.2318 0.7925
C24_4 C 0.7851(3) 0.2365(3) 0.8651(2)
H16_4 H 0.7635 0.2896 0.8563
N2_4 N 0.4462(3) 0.4889(3) 0.89514(18)
N3_4 N 0.5070(3) 0.4560(2) 0.93371(19)
N4_4 N 0.4437(2) 0.3514(3) 0.89022(19)
N5_4 N 0.4251(3) 0.2696(3) 0.8695(3)
H17_4 H 0.4731 0.2417 0.8639
H18_4 H 0.3938 0.2430 0.8974
C39_4 C 0.2826(4) 0.5448(3) 0.9803(2)
H27_4 H 0.3011 0.4975 0.9588
C40_4 C 0.2246(4) 0.5999(4) 0.9540(3)
H28_4 H 0.2053 0.5903 0.9143
C41_4 C 0.1954(3) 0.6692(3) 0.9869(2)
H29_4 H 0.1563 0.7055 0.9690
C8_4 C 0.0176(4) 0.2310(4) 0.9994(3)
H6_4 H 0.0665 0.2339 0.9760
Cl1 Cl 0.37385(11) 0.62615(11) 0.2500
O1 O 0.3684(9) 0.5573(9) 0.2120(5)
O2 O 0.3291(16) 0.5941(7) 0.3011(6)
O3 O 0.4427(9) 0.6316(9) 0.2880(5)
O4 O 0.4059(7) 0.6709(16) 0.1989(6)
Cl1_2 Cl 0.62615(11) 0.37385(11) 0.7500
O1_2 O 0.6316(9) 0.4427(9) 0.7120(5)
O2_2 O 0.6709(16) 0.4059(7) 0.8011(6)
O3_2 O 0.5573(9) 0.3684(9) 0.7880(5)
O4_2 O 0.5941(7) 0.3291(16) 0.6989(6)
Cl1_3 Cl 0.87385(11) 0.87385(11) 0.0000
O2_3 O 0.9059(7) 0.8291(16) 0.0511(6)
O3_3 O 0.8684(9) 0.9427(9) 0.0380(5)
Cl1_4 Cl 0.87385(11) 0.87385(11) 1.0000
O1_3 O 0.9427(9) 0.8684(9) 0.9620(5)
O4_3 O 0.8291(16) 0.9059(7) 0.9489(6)
Cl1_5 Cl 0.12615(11) 0.12615(11) 0.5000
O1_4 O 0.0573(9) 0.1316(9) 0.4620(5)
O2_4 O 0.0941(7) 0.1709(16) 0.5511(6)
O3_4 O 0.1316(9) 0.0573(9) 0.5380(5)
O4_4 O 0.1709(16) 0.0941(7) 0.4489(6)
Cl2 Cl 0.26944(11) 0.26944(11) 0.0000
O6 O 0.2172(13) 0.3545(8) 0.0022(12)
O7 O 0.2329(5) 0.2370(5) 0.0531(2)
Cl2_2 Cl 0.26944(11) 0.26944(11) 1.0000
O5 O 0.2370(5) 0.2329(5) 0.9469(2)
O8 O 0.3545(8) 0.2172(13) 0.9978(12)
Cl2_3 Cl 0.73056(11) 0.73056(11) 0.5000
O5_2 O 0.7630(5) 0.7671(5) 0.4469(2)
O6_2 O 0.7828(13) 0.6455(8) 0.5022(12)
O7_2 O 0.7671(5) 0.7630(5) 0.5531(2)
O8_2 O 0.6455(8) 0.7828(13) 0.4978(12)
Cl2_4 Cl 0.23056(11) 0.76944(11) 0.7500
O5_3 O 0.2671(5) 0.7370(5) 0.6969(2)
O6_3 O 0.1455(8) 0.7172(13) 0.7522(12)
O7_3 O 0.2630(5) 0.7329(5) 0.8031(2)
O8_3 O 0.2828(13) 0.8545(8) 0.7478(12)
Cl2_5 Cl 0.76944(11) 0.23056(11) 0.2500
O5_4 O 0.7329(5) 0.2630(5) 0.1969(2)
O6_4 O 0.8545(8) 0.2828(13) 0.2522(12)
O7_4 O 0.7370(5) 0.2671(5) 0.3031(2)
O8_4 O 0.7172(13) 0.1455(8) 0.2478(12)
loop_
_geom_bond_atom_site_label_1
_geom_bond_atom_site_label_2
_geom_bond_site_symmetry_1
_geom_bond_site_symmetry_2
H24 C32 1_555 1_555
C13 C14 1_555 1_555
C14 C15 1_555 1_555
C16 C15 1_555 1_555
H10 C16 1_555 1_555
C17 C16 1_555 1_555
H11 C17 1_555 1_555
C18 C17 1_555 1_555
C19 C14 1_555 1_555
H12 C19 1_555 1_555
C20 C18 1_555 1_555
C21 C20 1_555 1_555
H13 C21 1_555 1_555
C22 C21 1_555 1_555
H14 C22 1_555 1_555
C23 H15 1_555 1_555
C24 C20 1_555 1_555
H16 C24 1_555 1_555
N3 C13 1_555 1_555
N6 C22 1_555 1_555
H25 C33 1_555 1_555
Cd2 N6 1_555 1_555
C18 C19 1_555 1_555
C23 C24 1_555 1_555
C23 N6 1_555 1_555
C25 H19 1_555 1_555
C26 C25 1_555 1_555
H20 C26 1_555 1_555
H23 C31 1_555 1_555
C1 H1 1_555 1_555
C2 C1 1_555 1_555
H2 C2 1_555 1_555
C3 C2 1_555 1_555
C4 C3 1_555 1_555
H3 C4 1_555 1_555
C5 C4 1_555 1_555
H4 C5 1_555 1_555
C6 C3 1_555 1_555
C7 C6 1_555 1_555
H5 C7 1_555 1_555
C11 C6 1_555 1_555
H8 C11 1_555 1_555
C12 C10 1_555 1_555
N1 C1 1_555 1_555
N2 C12 1_555 1_555
N4 C12 1_555 1_555
N5 N4 1_555 1_555
H17 N5 1_555 1_555
H18 N5 1_555 1_555
C28 C27 1_555 1_555
H21 C28 1_555 1_555
C29 C28 1_555 1_555
H22 C29 1_555 1_555
C30 C27 1_555 1_555
C35 C30 1_555 1_555
H26 C35 1_555 1_555
C36 C34 1_555 1_555
Cd2 N1 1_555 1_555
Cd5_2 N9 1_555 1_555
N10 C36 1_555 1_555
N12 C36 1_555 1_555
N13 N12 1_555 1_555
H35 N13 1_555 1_555
H36 N13 1_555 1_555
C5 N1 1_555 1_555
C10 C11 1_555 1_555
C29 N9 1_555 1_555
C34 C35 1_555 1_555
N14 Cd1 1_555 1_555
N15 Cd1 1_555 1_555
H6 C8 1_555 1_555
C9 C8 1_555 1_555
H7 C9 1_555 1_555
C37 C38 1_555 1_555
C38 C39 1_555 1_555
C40 C39 1_555 1_555
H28 C40 1_555 1_555
C41 C40 1_555 1_555
H29 C41 1_555 1_555
C42 C41 1_555 1_555
C43 C38 1_555 1_555
H30 C43 1_555 1_555
C44 C42 1_555 1_555
C45 C44 1_555 1_555
H31 C45 1_555 1_555
C46 C45 1_555 1_555
H32 C46 1_555 1_555
C47 H33 1_555 1_555
C48 C44 1_555 1_555
H34 C48 1_555 1_555
Cd5_2 N16 1_555 1_555
N16 C46 1_555 1_555
C37 N11 1_555 1_555
C42 C43 1_555 1_555
C47 C48 1_555 1_555
C47 N16 1_555 1_555
H7_2 C9_2 1_555 1_555
C37_2 C38_2 1_555 1_555
C38_2 C39_2 1_555 1_555
C40_2 C39_2 1_555 1_555
H28_2 C40_2 1_555 1_555
C41_2 C40_2 1_555 1_555
H29_2 C41_2 1_555 1_555
C42_2 C41_2 1_555 1_555
C43_2 C38_2 1_555 1_555
H30_2 C43_2 1_555 1_555
C44_2 C42_2 1_555 1_555
C45_2 C44_2 1_555 1_555
H31_2 C45_2 1_555 1_555
C46_2 C45_2 1_555 1_555
H32_2 C46_2 1_555 1_555
C47_2 H33_2 1_555 1_555
C48_2 C44_2 1_555 1_555
H34_2 C48_2 1_555 1_555
Cd2 N16_2 1_555 1_555
N16_2 C46_2 1_555 1_555
C37_2 N11_2 1_555 1_555
C42_2 C43_2 1_555 1_555
C47_2 C48_2 1_555 1_555
C47_2 N16_2 1_555 1_555
N14_2 Cd1_2 1_555 1_555
N15_2 Cd1_2 1_555 1_555
C4_2 C3_2 1_555 1_555
H3_2 C4_2 1_555 1_555
C5_2 C4_2 1_555 1_555
H4_2 C5_2 1_555 1_555
C6_2 C3_2 1_555 1_555
C11_2 C6_2 1_555 1_555
H8_2 C11_2 1_555 1_555
C12_2 C10_2 1_555 1_555
N2_2 C12_2 1_555 1_555
N4_2 C12_2 1_555 1_555
N5_2 N4_2 1_555 1_555
H17_2 N5_2 1_555 1_555
H18_2 N5_2 1_555 1_555
C25_2 H19_2 1_555 1_555
C26_2 C25_2 1_555 1_555
H20_2 C26_2 1_555 1_555
C27_2 C26_2 1_555 1_555
C28_2 C27_2 1_555 1_555
H21_2 C28_2 1_555 1_555
C29_2 C28_2 1_555 1_555
H22_2 C29_2 1_555 1_555
C30_2 C27_2 1_555 1_555
C31_2 C30_2 1_555 1_555
H23_2 C31_2 1_555 1_555
C35_2 C30_2 1_555 1_555
H26_2 C35_2 1_555 1_555
C36_2 C34_2 1_555 1_555
Cd5 N1_2 1_555 1_555
Cd2 N9_2 1_555 1_555
N9_2 C25_2 1_555 1_555
N10_2 C36_2 1_555 1_555
N12_2 C36_2 1_555 1_555
N13_2 N12_2 1_555 1_555
H35_2 N13_2 1_555 1_555
H36_2 N13_2 1_555 1_555
C5_2 N1_2 1_555 1_555
C10_2 C11_2 1_555 1_555
C29_2 N9_2 1_555 1_555
C34_2 C35_2 1_555 1_555
C1_2 H1_2 1_555 1_555
C2_2 C1_2 1_555 1_555
H2_2 C2_2 1_555 1_555
H5_2 C7_2 1_555 1_555
C13_2 C14_2 1_555 1_555
C14_2 C15_2 1_555 1_555
C16_2 C15_2 1_555 1_555
H10_2 C16_2 1_555 1_555
C17_2 C16_2 1_555 1_555
H11_2 C17_2 1_555 1_555
C18_2 C17_2 1_555 1_555
C19_2 C14_2 1_555 1_555
H12_2 C19_2 1_555 1_555
C20_2 C18_2 1_555 1_555
C21_2 C20_2 1_555 1_555
H13_2 C21_2 1_555 1_555
C22_2 C21_2 1_555 1_555
H14_2 C22_2 1_555 1_555
C23_2 H15_2 1_555 1_555
C24_2 C20_2 1_555 1_555
H16_2 C24_2 1_555 1_555
N3_2 C13_2 1_555 1_555
N6_2 C22_2 1_555 1_555
H24_2 C32_2 1_555 1_555
C33_2 C32_2 1_555 1_555
H25_2 C33_2 1_555 1_555
Cd5 N6_2 1_555 1_555
C18_2 C19_2 1_555 1_555
C23_2 C24_2 1_555 1_555
C23_2 N6_2 1_555 1_555
C1_3 H1_3 1_555 1_555
C2_3 C1_3 1_555 1_555
H2_3 C2_3 1_555 1_555
C3_3 C2_3 1_555 1_555
C4_3 C3_3 1_555 1_555
H3_3 C4_3 1_555 1_555
C5_3 C4_3 1_555 1_555
H4_3 C5_3 1_555 1_555
C6_3 C3_3 1_555 1_555
C7_3 C6_3 1_555 1_555
H5_3 C7_3 1_555 1_555
C8_2 C7_3 1_555 1_555
H6_2 C8_2 1_555 1_555
C9_3 C8_2 1_555 1_555
H7_3 C9_3 1_555 1_555
C10_3 C9_3 1_555 1_555
C11_3 C6_3 1_555 1_555
H8_3 C11_3 1_555 1_555
C12_3 C10_3 1_555 1_555
C13_3 C14_3 1_555 1_555
C14_3 C15_3 1_555 1_555
C15_3 H9_3 1_555 1_555
C16_3 C15_3 1_555 1_555
H10_3 C16_3 1_555 1_555
C17_3 C16_3 1_555 1_555
H11_3 C17_3 1_555 1_555
C18_3 C17_3 1_555 1_555
C19_3 C14_3 1_555 1_555
H12_3 C19_3 1_555 1_555
C20_3 C18_3 1_555 1_555
C21_3 C20_3 1_555 1_555
H13_3 C21_3 1_555 1_555
C22_3 C21_3 1_555 1_555
H14_3 C22_3 1_555 1_555
C23_3 H15_3 1_555 1_555
C24_3 C20_3 1_555 1_555
H16_3 C24_3 1_555 1_555
Cd2 N3_3 1_555 1_555
N8_2 C1_3 1_555 1_555
N2_3 C12_3 1_555 1_555
N3_3 C13_3 1_555 1_555
N4_3 C12_3 1_555 1_555
N5_3 N4_3 1_555 1_555
H17_3 N5_3 1_555 1_555
H18_3 N5_3 1_555 1_555
N14_2 C22_3 1_555 1_555
C25_3 H19_3 1_555 1_555
C26_3 C25_3 1_555 1_555
H20_3 C26_3 1_555 1_555
C27_3 C26_3 1_555 1_555
C28_3 C27_3 1_555 1_555
H21_3 C28_3 1_555 1_555
C29_3 C28_3 1_555 1_555
H22_3 C29_3 1_555 1_555
C30_3 C27_3 1_555 1_555
C31_3 C30_3 1_555 1_555
H23_3 C31_3 1_555 1_555
C32_3 C31_3 1_555 1_555
H24_3 C32_3 1_555 1_555
C33_3 C32_3 1_555 1_555
H25_3 C33_3 1_555 1_555
C34_3 C33_3 1_555 1_555
C35_3 C30_3 1_555 1_555
H26_3 C35_3 1_555 1_555
C36_3 C34_3 1_555 1_555
C37_3 C38_3 1_555 1_555
C38_3 C39_3 1_555 1_555
C39_3 H27_3 1_555 1_555
C40_3 C39_3 1_555 1_555
H28_3 C40_3 1_555 1_555
C41_3 C40_3 1_555 1_555
H29_3 C41_3 1_555 1_555
C42_3 C41_3 1_555 1_555
C43_3 C38_3 1_555 1_555
H30_3 C43_3 1_555 1_555
C44_3 C42_3 1_555 1_555
C45_3 C44_3 1_555 1_555
H31_3 C45_3 1_555 1_555
C46_3 C45_3 1_555 1_555
H32_3 C46_3 1_555 1_555
C47_3 H33_3 1_555 1_555
C48_3 C44_3 1_555 1_555
H34_3 C48_3 1_555 1_555
N7 C25_3 1_555 1_555
N10_3 C36_3 1_555 1_555
N11_3 Cd2 1_555 1_555
N12_3 C36_3 1_555 1_555
N13_3 N12_3 1_555 1_555
H35_3 N13_3 1_555 1_555
H36_3 N13_3 1_555 1_555
N15 C46_3 1_555 1_555
C5_3 N8_2 1_555 1_555
C10_3 C11_3 1_555 1_555
C13_3 N4_3 1_555 1_555
C18_3 C19_3 1_555 1_555
C23_3 C24_3 1_555 1_555
C23_3 N14_2 1_555 1_555
N2_3 N3_3 1_555 1_555
C29_3 N7 1_555 1_555
C34_3 C35_3 1_555 1_555
C37_3 N11_3 1_555 1_555
C37_3 N12_3 1_555 1_555
C42_3 C43_3 1_555 1_555
C47_3 C48_3 1_555 1_555
C47_3 N15 1_555 1_555
N10_3 N11_3 1_555 1_555
C15_4 H9_4 1_555 1_555
C16_4 C15_4 1_555 1_555
H10_4 C16_4 1_555 1_555
C17_4 C16_4 1_555 1_555
H11_4 C17_4 1_555 1_555
C25_4 H19_4 1_555 1_555
C26_4 C25_4 1_555 1_555
H20_4 C26_4 1_555 1_555
C27_4 C26_4 1_555 1_555
C28_4 C27_4 1_555 1_555
H21_4 C28_4 1_555 1_555
C29_4 C28_4 1_555 1_555
H22_4 C29_4 1_555 1_555
C30_4 C27_4 1_555 1_555
C31_4 C30_4 1_555 1_555
H23_4 C31_4 1_555 1_555
C32_4 C31_4 1_555 1_555
H24_4 C32_4 1_555 1_555
C33_4 C32_4 1_555 1_555
H25_4 C33_4 1_555 1_555
C34_4 C33_4 1_555 1_555
C35_4 C30_4 1_555 1_555
H26_4 C35_4 1_555 1_555
C36_4 C34_4 1_555 1_555
C37_4 C38_4 1_555 1_555
C43_4 C38_4 1_555 1_555
H30_4 C43_4 1_555 1_555
C44_4 C42_4 1_555 1_555
C45_4 C44_4 1_555 1_555
H31_4 C45_4 1_555 1_555
C46_4 C45_4 1_555 1_555
H32_4 C46_4 1_555 1_555
C47_4 H33_4 1_555 1_555
C48_4 C44_4 1_555 1_555
H34_4 C48_4 1_555 1_555
N7_2 C25_4 1_555 1_555
N10_4 C36_4 1_555 1_555
N11_4 Cd5 1_555 1_555
N12_4 C36_4 1_555 1_555
N13_4 N12_4 1_555 1_555
H35_4 N13_4 1_555 1_555
H36_4 N13_4 1_555 1_555
N15_2 C46_4 1_555 1_555
C29_4 N7_2 1_555 1_555
C34_4 C35_4 1_555 1_555
C37_4 N11_4 1_555 1_555
C37_4 N12_4 1_555 1_555
C42_4 C43_4 1_555 1_555
C47_4 C48_4 1_555 1_555
C47_4 N15_2 1_555 1_555
N10_4 N11_4 1_555 1_555
C1_4 H1_4 1_555 1_555
C2_4 C1_4 1_555 1_555
H2_4 C2_4 1_555 1_555
C3_4 C2_4 1_555 1_555
C4_4 C3_4 1_555 1_555
H3_4 C4_4 1_555 1_555
C5_4 C4_4 1_555 1_555
H4_4 C5_4 1_555 1_555
C6_4 C3_4 1_555 1_555
C7_4 C6_4 1_555 1_555
H5_4 C7_4 1_555 1_555
C8_3 C7_4 1_555 1_555
H6_3 C8_3 1_555 1_555
C9_4 C8_3 1_555 1_555
H7_4 C9_4 1_555 1_555
C10_4 C9_4 1_555 1_555
C11_4 C6_4 1_555 1_555
H8_4 C11_4 1_555 1_555
C12_4 C10_4 1_555 1_555
C13_4 C14_4 1_555 1_555
C19_4 C14_4 1_555 1_555
H12_4 C19_4 1_555 1_555
C20_4 C18_4 1_555 1_555
C21_4 C20_4 1_555 1_555
H13_4 C21_4 1_555 1_555
C22_4 C21_4 1_555 1_555
H14_4 C22_4 1_555 1_555
C23_4 H15_4 1_555 1_555
C24_4 C20_4 1_555 1_555
H16_4 C24_4 1_555 1_555
Cd5_2 N3_4 1_555 1_555
N8 C1_4 1_555 1_555
N2_4 C12_4 1_555 1_555
N3_4 C13_4 1_555 1_555
N4_4 C12_4 1_555 1_555
N5_4 N4_4 1_555 1_555
H17_4 N5_4 1_555 1_555
H18_4 N5_4 1_555 1_555
N14 C22_4 1_555 1_555
C39_4 H27_4 1_555 1_555
C40_4 C39_4 1_555 1_555
H28_4 C40_4 1_555 1_555
C41_4 C40_4 1_555 1_555
H29_4 C41_4 1_555 1_555
C5_4 N8 1_555 1_555
C10_4 C11_4 1_555 1_555
C13_4 N4_4 1_555 1_555
C18_4 C19_4 1_555 1_555
C23_4 C24_4 1_555 1_555
C23_4 N14 1_555 1_555
N2_4 N3_4 1_555 1_555
H6_4 C8_4 1_555 1_555
Cl1 O1 1_555 1_555
O2 Cl1 1_555 1_555
O3 Cl1 1_555 1_555
O4 Cl1 1_555 1_555
Cl1_2 O1_2 1_555 1_555
O2_2 Cl1_2 1_555 1_555
O3_2 Cl1_2 1_555 1_555
O4_2 Cl1_2 1_555 1_555
O2_3 Cl1_3 1_555 1_555
O3_3 Cl1_3 1_555 1_555
Cl1_4 O1_3 1_555 1_555
O4_3 Cl1_4 1_555 1_555
Cl1_5 O1_4 1_555 1_555
O2_4 Cl1_5 1_555 1_555
O3_4 Cl1_5 1_555 1_555
O4_4 Cl1_5 1_555 1_555
O6 Cl2 1_555 1_555
O7 Cl2 1_555 1_555
Cl2_2 O5 1_555 1_555
O8 Cl2_2 1_555 1_555
Cl2_3 O5_2 1_555 1_555
O6_2 Cl2_3 1_555 1_555
O7_2 Cl2_3 1_555 1_555
O8_2 Cl2_3 1_555 1_555
Cl2_4 O5_3 1_555 1_555
O6_3 Cl2_4 1_555 1_555
O7_3 Cl2_4 1_555 1_555
O8_3 Cl2_4 1_555 1_555
Cl2_5 O5_4 1_555 1_555
O6_4 Cl2_5 1_555 1_555
O7_4 Cl2_5 1_555 1_555
O8_4 Cl2_5 1_555 1_555

#END
