
###############################################################################
#
# This file contains modified crystal structure data generated from the
# MOF subset of the Cambridge Structural Database (CSD) v543 
# hosted by the Cambridge Crystallographic Data Centre (CCDC).
#
# This work is licensed under the Creative Commons
# Attribution-NonCommercial-ShareAlike 4.0 International License.
# To view a copy of this license, visit
# http://creativecommons.org/licenses/by-nc-sa/4.0/
# or send a letter to
# Creative Commons, PO Box 1866, Mountain View, CA 94042, USA.
#
# CIF created using the CSD Python API on 29 September 2022
# The structure has been converted into the P1 space group
# The structure has a 3D framework
# The original CSD entry OKIYIR02 is in the tetragonal crystal system
# The original CSD entry OKIYIR02 is in a Sohncke space group
# The framework has been calculated to contain at least 10.0% void space
# The void calculation uses a probe of radius 1.32A, grid spacing 0.4
# The framework is charged, counterions have been retained in the structure
#
###############################################################################

data_OKIYIR02
_chemical_formula_moiety         '(C192 H144 Cd3 Cl10 N48 O32 2-)n'
_symmetry_cell_setting           triclinic
_symmetry_space_group_name_H-M   'P 1'
_symmetry_Int_Tables_number      1
_space_group_name_Hall           'P 1'
loop_
_symmetry_equiv_pos_site_id
_symmetry_equiv_pos_as_xyz
1 x,y,z
_cell_length_a                   15.8029(19)
_cell_length_b                   15.8029(19)
_cell_length_c                   21.845(5)
_cell_angle_alpha                90
_cell_angle_beta                 90
_cell_angle_gamma                90
_cell_volume                     5455.39
loop_
_atom_site_label
_atom_site_type_symbol
_atom_site_fract_x
_atom_site_fract_y
_atom_site_fract_z
H24 H 0.2338 0.0668 0.0225
C13 C 0.1262(3) 0.0048(3) 0.6804(2)
C14 C 0.1876(3) 0.0620(3) 0.7104(2)
C15 C 0.2170(4) 0.0457(3) 0.7691(2)
C16 C 0.2752(4) 0.1012(4) 0.7953(3)
H10 H 0.2942 0.0919 0.8350
C17 C 0.3047(3) 0.1699(3) 0.7626(2)
H11 H 0.3440 0.2062 0.7804
C18 C 0.2766(3) 0.1854(3) 0.7035(3)
C19 C 0.2171(3) 0.1299(3) 0.6787(3)
H12 H 0.1970 0.1396 0.6393
C20 C 0.3072(3) 0.2577(3) 0.6659(2)
C21 C 0.3836(3) 0.2990(3) 0.6793(3)
H13 H 0.4135 0.2861 0.7148
C22 C 0.4137(3) 0.3589(3) 0.6391(3)
H14 H 0.4642 0.3861 0.6486
C23 C 0.2986(3) 0.3439(4) 0.5775(3)
H15 H 0.2682 0.3598 0.5429
C24 C 0.2641(3) 0.2856(3) 0.6150(3)
H16 H 0.2106 0.2640 0.6063
N3 N 0.0445(2) 0.0067(3) 0.6841(2)
N6 N 0.3744(3) 0.3804(3) 0.58695(19)
C32 C 0.2308(4) 0.0175(4) 0.9994(4)
C33 C 0.1639(4) 0.0060(4) 0.9605(3)
H25 H 0.1209 0.0461 0.9583
Cd2 Cd 0.440512(19) 0.440512(19) 0.5000
N8 N 0.0238(3) 0.1885(3) 0.7589(2)
C25 C 0.4640(4) 0.7469(3) 0.0342(3)
H19 H 0.4946 0.7430 0.0704
C26 C 0.4079(3) 0.8130(3) 0.0273(3)
H20 H 0.4032 0.8532 0.0581
C31 C 0.2931(3) 0.9585(4) 0.0051(3)
H23 H 0.3364 0.9671 0.0333
Cd5 Cd 0.559488(19) 0.559488(19) 0.0000
C1 C 0.2531(3) 0.5360(4) 0.4658(3)
H1 H 0.2570 0.5054 0.4296
C2 C 0.1870(3) 0.5921(3) 0.4727(3)
H2 H 0.1468 0.5968 0.4419
C3 C 0.1795(3) 0.6410(3) 0.5239(3)
C4 C 0.2397(3) 0.6253(3) 0.5696(3)
H3 H 0.2365 0.6541 0.6067
C5 C 0.3031(4) 0.5678(3) 0.5600(3)
H4 H 0.3423 0.5593 0.5911
C6 C 0.1145(3) 0.7072(3) 0.5307(3)
C7 C 0.0415(4) 0.7069(3) 0.4949(3)
H5 H 0.0329 0.6636 0.4667
C10 C 0.0671(3) 0.8391(3) 0.5761(2)
C11 C 0.1263(3) 0.7744(3) 0.5708(3)
H8 H 0.1749 0.7761 0.5948
C12 C 0.0753(3) 0.9087(3) 0.6191(2)
H9 H 0.1982 0.9985 0.7905
N1 N 0.3115(3) 0.5238(3) 0.5089(2)
N2 N 0.0117(3) 0.9457(3) 0.64551(19)
N4 N 0.1490(3) 0.9441(2) 0.6401(2)
N5 N 0.2307(3) 0.9256(3) 0.6191(3)
H17 H 0.2586 0.9737 0.6136
H18 H 0.2573 0.8944 0.6471
C27 C 0.3590(3) 0.8205(3) 0.9761(3)
C28 C 0.3747(3) 0.7603(3) 0.9304(3)
H21 H 0.3459 0.7635 0.8933
C29 C 0.4322(3) 0.6969(4) 0.9400(3)
H22 H 0.4407 0.6577 0.9089
C30 C 0.2928(3) 0.8855(3) 0.9693(3)
C34 C 0.1609(3) 0.9329(3) 0.9239(2)
C35 C 0.2256(3) 0.8737(3) 0.9292(3)
H26 H 0.2239 0.8251 0.9052
C36 C 0.0913(3) 0.9247(3) 0.8809(2)
H27 H 0.0015 0.8018 0.7095
Cd5_2 Cd 0.559488(19) 0.559488(19) 1.0000
N9 N 0.4762(3) 0.6885(3) 0.9911(2)
N10 N 0.0543(3) 0.9883(3) 0.85449(19)
N12 N 0.0559(2) 0.8510(3) 0.8599(2)
N13 N 0.0744(3) 0.7693(3) 0.8809(3)
H35 H 0.0263 0.7414 0.8864
H36 H 0.1056 0.7427 0.8529
Cd1 Cd 0.940512(19) 0.059488(19) 0.7500
N14 N 0.8804(3) 0.1256(3) 0.83695(19)
N15 N 0.8744(3) 0.1196(3) 0.66305(19)
C8 C 0.9825(4) 0.7692(4) 0.5006(4)
H6 H 0.9332 0.7662 0.4775
C9 C 0.9940(4) 0.8361(4) 0.5395(3)
H7 H 0.9539 0.8791 0.5417
C37 C 0.9952(3) 0.8738(3) 0.8196(2)
C38 C 0.9380(3) 0.8124(3) 0.7896(2)
C39 C 0.9543(3) 0.7830(4) 0.7309(2)
C40 C 0.8988(4) 0.7248(4) 0.7047(3)
H28 H 0.9081 0.7058 0.6650
C41 C 0.8301(3) 0.6953(3) 0.7374(2)
H29 H 0.7938 0.6560 0.7196
C42 C 0.8146(3) 0.7234(3) 0.7965(3)
C43 C 0.8701(3) 0.7829(3) 0.8213(3)
H30 H 0.8604 0.8030 0.8607
C44 C 0.7423(3) 0.6928(3) 0.8341(2)
C45 C 0.7010(3) 0.6164(3) 0.8207(3)
H31 H 0.7139 0.5865 0.7852
C46 C 0.6411(3) 0.5863(3) 0.8609(3)
H32 H 0.6139 0.5358 0.8514
C47 C 0.6561(4) 0.7014(3) 0.9225(3)
H33 H 0.6402 0.7318 0.9571
C48 C 0.7144(3) 0.7359(3) 0.8850(3)
H34 H 0.7360 0.7894 0.8937
N7 N 0.8115(3) 0.9762(3) 0.7411(2)
N11 N 0.9933(3) 0.9555(2) 0.8159(2)
N16 N 0.6196(3) 0.6256(3) 0.91305(19)
C8_2 C 0.0175(4) 0.2308(4) 0.0006(4)
C9_2 C 0.0060(4) 0.1639(4) 0.0395(3)
H7_2 H 0.0461 0.1209 0.0417
C37_2 C 0.0048(3) 0.1262(3) 0.3196(2)
C38_2 C 0.0620(3) 0.1876(3) 0.2896(2)
C39_2 C 0.0457(3) 0.2170(4) 0.2309(2)
C40_2 C 0.1012(4) 0.2752(4) 0.2047(3)
H28_2 H 0.0919 0.2942 0.1650
C41_2 C 0.1699(3) 0.3047(3) 0.2374(2)
H29_2 H 0.2062 0.3440 0.2196
C42_2 C 0.1854(3) 0.2766(3) 0.2965(3)
C43_2 C 0.1299(3) 0.2171(3) 0.3213(3)
H30_2 H 0.1396 0.1970 0.3607
C44_2 C 0.2577(3) 0.3072(3) 0.3341(2)
C45_2 C 0.2990(3) 0.3836(3) 0.3207(3)
H31_2 H 0.2861 0.4135 0.2852
C46_2 C 0.3589(3) 0.4137(3) 0.3609(3)
H32_2 H 0.3861 0.4642 0.3514
C47_2 C 0.3439(4) 0.2986(3) 0.4225(3)
H33_2 H 0.3598 0.2682 0.4571
C48_2 C 0.2856(3) 0.2641(3) 0.3850(3)
H34_2 H 0.2640 0.2106 0.3937
N7_2 N 0.1885(3) 0.0238(3) 0.2411(2)
N11_2 N 0.0067(3) 0.0445(2) 0.3159(2)
N16_2 N 0.3804(3) 0.3744(3) 0.41305(19)
Cd1_2 Cd 0.059488(19) 0.940512(19) 0.2500
N14_2 N 0.1196(3) 0.8744(3) 0.33695(19)
N15_2 N 0.1256(3) 0.8804(3) 0.16305(19)
C3_2 C 0.8205(3) 0.3590(3) 0.0239(3)
C4_2 C 0.7603(3) 0.3747(3) 0.0696(3)
H3_2 H 0.7635 0.3459 0.1067
C5_2 C 0.6969(4) 0.4322(3) 0.0600(3)
H4_2 H 0.6577 0.4407 0.0911
C6_2 C 0.8855(3) 0.2928(3) 0.0307(3)
C10_2 C 0.9329(3) 0.1609(3) 0.0761(2)
C11_2 C 0.8737(3) 0.2256(3) 0.0708(3)
H8_2 H 0.8251 0.2239 0.0948
C12_2 C 0.9247(3) 0.0913(3) 0.1191(2)
H9_2 H 0.8018 0.0015 0.2905
N1_2 N 0.6885(3) 0.4762(3) 0.0089(2)
N2_2 N 0.9883(3) 0.0543(3) 0.14551(19)
N4_2 N 0.8510(3) 0.0559(2) 0.1401(2)
N5_2 N 0.7693(3) 0.0744(3) 0.1191(3)
H17_2 H 0.7414 0.0263 0.1136
H18_2 H 0.7427 0.1056 0.1471
C25_2 C 0.5360(4) 0.2531(3) 0.5342(3)
H19_2 H 0.5054 0.2570 0.5704
C26_2 C 0.5921(3) 0.1870(3) 0.5273(3)
H20_2 H 0.5968 0.1468 0.5581
C27_2 C 0.6410(3) 0.1795(3) 0.4761(3)
C28_2 C 0.6253(3) 0.2397(3) 0.4304(3)
H21_2 H 0.6541 0.2365 0.3933
C29_2 C 0.5678(3) 0.3031(4) 0.4400(3)
H22_2 H 0.5593 0.3423 0.4089
C30_2 C 0.7072(3) 0.1145(3) 0.4693(3)
C31_2 C 0.7069(3) 0.0415(4) 0.5051(3)
H23_2 H 0.6636 0.0329 0.5333
C34_2 C 0.8391(3) 0.0671(3) 0.4239(2)
C35_2 C 0.7744(3) 0.1263(3) 0.4292(3)
H26_2 H 0.7761 0.1749 0.4052
C36_2 C 0.9087(3) 0.0753(3) 0.3809(2)
H27_2 H 0.9985 0.1982 0.2095
N9_2 N 0.5238(3) 0.3115(3) 0.4911(2)
N10_2 N 0.9457(3) 0.0117(3) 0.35449(19)
N12_2 N 0.9441(2) 0.1490(3) 0.3599(2)
N13_2 N 0.9256(3) 0.2307(3) 0.3809(3)
H35_2 H 0.9737 0.2586 0.3864
H36_2 H 0.8944 0.2573 0.3529
C1_2 C 0.7469(3) 0.4640(4) 0.9658(3)
H1_2 H 0.7430 0.4946 0.9296
C2_2 C 0.8130(3) 0.4079(3) 0.9727(3)
H2_2 H 0.8532 0.4032 0.9419
C7_2 C 0.9585(4) 0.2931(3) 0.9949(3)
H5_2 H 0.9671 0.3364 0.9667
C13_2 C 0.8738(3) 0.9952(3) 0.1804(2)
C14_2 C 0.8124(3) 0.9380(3) 0.2104(2)
C15_2 C 0.7830(4) 0.9543(3) 0.2691(2)
C16_2 C 0.7248(4) 0.8988(4) 0.2953(3)
H10_2 H 0.7058 0.9081 0.3350
C17_2 C 0.6953(3) 0.8301(3) 0.2626(2)
H11_2 H 0.6560 0.7938 0.2804
C18_2 C 0.7234(3) 0.8146(3) 0.2035(3)
C19_2 C 0.7829(3) 0.8701(3) 0.1787(3)
H12_2 H 0.8030 0.8604 0.1393
C20_2 C 0.6928(3) 0.7423(3) 0.1659(2)
C21_2 C 0.6164(3) 0.7010(3) 0.1793(3)
H13_2 H 0.5865 0.7139 0.2148
C22_2 C 0.5863(3) 0.6411(3) 0.1391(3)
H14_2 H 0.5358 0.6139 0.1486
C23_2 C 0.7014(3) 0.6561(4) 0.0775(3)
H15_2 H 0.7318 0.6402 0.0429
C24_2 C 0.7359(3) 0.7144(3) 0.1150(3)
H16_2 H 0.7894 0.7360 0.1063
N3_2 N 0.9555(2) 0.9933(3) 0.1841(2)
N6_2 N 0.6256(3) 0.6196(3) 0.08695(19)
C32_2 C 0.7692(4) 0.9825(4) 0.4994(4)
H24_2 H 0.7662 0.9332 0.5225
C33_2 C 0.8361(4) 0.9940(4) 0.4605(3)
H25_2 H 0.8791 0.9539 0.4583
N8_2 N 0.9762(3) 0.8115(3) 0.2589(2)
C1_3 C 0.9640(4) 0.7531(3) 0.2158(3)
H1_3 H 0.9946 0.7570 0.1796
C2_3 C 0.9079(3) 0.6870(3) 0.2227(3)
H2_3 H 0.9032 0.6468 0.1919
C3_3 C 0.8590(3) 0.6795(3) 0.2739(3)
C4_3 C 0.8747(3) 0.7397(3) 0.3196(3)
H3_3 H 0.8459 0.7365 0.3567
C5_3 C 0.9322(3) 0.8031(4) 0.3100(3)
H4_3 H 0.9407 0.8423 0.3411
C6_3 C 0.7928(3) 0.6145(3) 0.2807(3)
C7_3 C 0.7931(3) 0.5415(4) 0.2449(3)
H5_3 H 0.8364 0.5329 0.2167
C8_3 C 0.7308(4) 0.4825(4) 0.2506(4)
H6_2 H 0.7338 0.4332 0.2275
C9_3 C 0.6639(4) 0.4940(4) 0.2895(3)
H7_3 H 0.6209 0.4539 0.2917
C10_3 C 0.6609(3) 0.5671(3) 0.3261(2)
C11_3 C 0.7256(3) 0.6263(3) 0.3208(3)
H8_3 H 0.7239 0.6749 0.3448
C12_3 C 0.5913(3) 0.5753(3) 0.3691(2)
C13_3 C 0.4952(3) 0.6262(3) 0.4304(2)
C14_3 C 0.4380(3) 0.6876(3) 0.4604(2)
C15_3 C 0.4543(3) 0.7170(4) 0.5191(2)
H9_3 H 0.5015 0.6982 0.5405
C16_3 C 0.3988(4) 0.7752(4) 0.5453(3)
H10_3 H 0.4081 0.7942 0.5850
C17_3 C 0.3301(3) 0.8047(3) 0.5126(2)
H11_3 H 0.2938 0.8440 0.5304
C18_3 C 0.3146(3) 0.7766(3) 0.4535(3)
C19_3 C 0.3701(3) 0.7171(3) 0.4287(3)
H12_3 H 0.3604 0.6970 0.3893
C20_3 C 0.2423(3) 0.8072(3) 0.4159(2)
C21_3 C 0.2010(3) 0.8836(3) 0.4293(3)
H13_3 H 0.2139 0.9135 0.4648
C22_3 C 0.1411(3) 0.9137(3) 0.3891(3)
H14_3 H 0.1139 0.9642 0.3986
C23_3 C 0.1561(4) 0.7986(3) 0.3275(3)
H15_3 H 0.1402 0.7682 0.2929
C24_3 C 0.2144(3) 0.7641(3) 0.3650(3)
H16_3 H 0.2360 0.7106 0.3563
N2_3 N 0.5543(3) 0.5117(3) 0.39551(19)
N3_3 N 0.4933(3) 0.5445(2) 0.4341(2)
N4_3 N 0.5559(2) 0.6490(3) 0.3901(2)
N5_3 N 0.5744(3) 0.7307(3) 0.3691(3)
H17_3 H 0.5263 0.7586 0.3636
H18_3 H 0.6056 0.7573 0.3971
C25_3 C 0.7531(3) 0.9640(4) 0.7842(3)
H19_3 H 0.7570 0.9946 0.8204
C26_3 C 0.6870(3) 0.9079(3) 0.7773(3)
H20_3 H 0.6468 0.9032 0.8081
C27_3 C 0.6795(3) 0.8590(3) 0.7261(3)
C28_3 C 0.7397(3) 0.8747(3) 0.6804(3)
H21_3 H 0.7365 0.8459 0.6433
C29_3 C 0.8031(4) 0.9322(3) 0.6900(3)
H22_3 H 0.8423 0.9407 0.6589
C30_3 C 0.6145(3) 0.7928(3) 0.7193(3)
C31_3 C 0.5415(4) 0.7931(3) 0.7551(3)
H23_3 H 0.5329 0.8364 0.7833
C32_3 C 0.4825(4) 0.7308(4) 0.7494(4)
H24_3 H 0.4332 0.7338 0.7725
C33_3 C 0.4940(4) 0.6639(4) 0.7105(3)
H25_3 H 0.4539 0.6209 0.7083
C34_3 C 0.5671(3) 0.6609(3) 0.6739(2)
C35_3 C 0.6263(3) 0.7256(3) 0.6792(3)
H26_3 H 0.6749 0.7239 0.6552
C36_3 C 0.5753(3) 0.5913(3) 0.6309(2)
C37_3 C 0.6262(3) 0.4952(3) 0.5696(2)
C38_3 C 0.6876(3) 0.4380(3) 0.5396(2)
C39_3 C 0.7170(4) 0.4543(3) 0.4809(2)
H27_3 H 0.6982 0.5015 0.4595
C40_3 C 0.7752(4) 0.3988(4) 0.4547(3)
H28_3 H 0.7942 0.4081 0.4150
C41_3 C 0.8047(3) 0.3301(3) 0.4874(2)
H29_3 H 0.8440 0.2938 0.4696
C42_3 C 0.7766(3) 0.3146(3) 0.5465(3)
C43_3 C 0.7171(3) 0.3701(3) 0.5713(3)
H30_3 H 0.6970 0.3604 0.6107
C44_3 C 0.8072(3) 0.2423(3) 0.5841(2)
C45_3 C 0.8836(3) 0.2010(3) 0.5707(3)
H31_3 H 0.9135 0.2139 0.5352
C46_3 C 0.9137(3) 0.1411(3) 0.6109(3)
H32_3 H 0.9642 0.1139 0.6014
C47_3 C 0.7986(3) 0.1561(4) 0.6725(3)
H33_3 H 0.7682 0.1402 0.7071
C48_3 C 0.7641(3) 0.2144(3) 0.6350(3)
H34_3 H 0.7106 0.2360 0.6437
N10_3 N 0.5117(3) 0.5543(3) 0.60449(19)
N11_3 N 0.5445(2) 0.4933(3) 0.5659(2)
N12_3 N 0.6490(3) 0.5559(2) 0.6099(2)
N13_3 N 0.7307(3) 0.5744(3) 0.6309(3)
H35_3 H 0.7586 0.5263 0.6364
H36_3 H 0.7573 0.6056 0.6029
C15_4 C 0.5457(3) 0.2830(4) 0.0191(2)
H9_4 H 0.4985 0.3018 0.0405
C16_4 C 0.6012(4) 0.2248(4) 0.0453(3)
H10_4 H 0.5919 0.2058 0.0850
C17_4 C 0.6699(3) 0.1953(3) 0.0126(2)
H11_4 H 0.7062 0.1560 0.0304
C25_4 C 0.2469(3) 0.0360(4) 0.2842(3)
H19_4 H 0.2430 0.0054 0.3204
C26_4 C 0.3130(3) 0.0921(3) 0.2773(3)
H20_4 H 0.3532 0.0968 0.3081
C27_4 C 0.3205(3) 0.1410(3) 0.2261(3)
C28_4 C 0.2603(3) 0.1253(3) 0.1804(3)
H21_4 H 0.2635 0.1541 0.1433
C29_4 C 0.1969(4) 0.0678(3) 0.1900(3)
H22_4 H 0.1577 0.0593 0.1589
C30_4 C 0.3855(3) 0.2072(3) 0.2193(3)
C31_4 C 0.4585(4) 0.2069(3) 0.2551(3)
H23_4 H 0.4671 0.1636 0.2833
C32_4 C 0.5175(4) 0.2692(4) 0.2494(4)
H24_4 H 0.5668 0.2662 0.2725
C33_4 C 0.5060(4) 0.3361(4) 0.2105(3)
H25_4 H 0.5461 0.3791 0.2083
C34_4 C 0.4329(3) 0.3391(3) 0.1739(2)
C35_4 C 0.3737(3) 0.2744(3) 0.1792(3)
H26_4 H 0.3251 0.2761 0.1552
C36_4 C 0.4247(3) 0.4087(3) 0.1309(2)
C37_4 C 0.3738(3) 0.5048(3) 0.0696(2)
C38_4 C 0.3124(3) 0.5620(3) 0.0396(2)
C42_4 C 0.2234(3) 0.6854(3) 0.0465(3)
C43_4 C 0.2829(3) 0.6299(3) 0.0713(3)
H30_4 H 0.3030 0.6396 0.1107
C44_4 C 0.1928(3) 0.7577(3) 0.0841(2)
C45_4 C 0.1164(3) 0.7990(3) 0.0707(3)
H31_4 H 0.0865 0.7861 0.0352
C46_4 C 0.0863(3) 0.8589(3) 0.1109(3)
H32_4 H 0.0358 0.8861 0.1014
C47_4 C 0.2014(3) 0.8439(4) 0.1725(3)
H33_4 H 0.2318 0.8598 0.2071
C48_4 C 0.2359(3) 0.7856(3) 0.1350(3)
H34_4 H 0.2894 0.7640 0.1437
N10_4 N 0.4883(3) 0.4457(3) 0.10449(19)
N11_4 N 0.4555(2) 0.5067(3) 0.0659(2)
N12_4 N 0.3510(3) 0.4441(2) 0.1099(2)
N13_4 N 0.2693(3) 0.4256(3) 0.1309(3)
H35_4 H 0.2414 0.4737 0.1364
H36_4 H 0.2427 0.3944 0.1029
C1_4 C 0.0360(4) 0.2469(3) 0.7158(3)
H1_4 H 0.0054 0.2430 0.6796
C2_4 C 0.0921(3) 0.3130(3) 0.7227(3)
H2_4 H 0.0968 0.3532 0.6919
C3_4 C 0.1410(3) 0.3205(3) 0.7739(3)
C4_4 C 0.1253(3) 0.2603(3) 0.8196(3)
H3_4 H 0.1541 0.2635 0.8567
C5_4 C 0.0678(3) 0.1969(4) 0.8100(3)
H4_4 H 0.0593 0.1577 0.8411
C6_4 C 0.2072(3) 0.3855(3) 0.7807(3)
C7_4 C 0.2069(3) 0.4585(4) 0.7449(3)
H5_4 H 0.1636 0.4671 0.7167
C8_4 C 0.2692(4) 0.5175(4) 0.7506(4)
H6_3 H 0.2662 0.5668 0.7275
C9_4 C 0.3361(4) 0.5060(4) 0.7895(3)
H7_4 H 0.3791 0.5461 0.7917
C10_4 C 0.3391(3) 0.4329(3) 0.8261(2)
C11_4 C 0.2744(3) 0.3737(3) 0.8208(3)
H8_4 H 0.2761 0.3251 0.8448
C12_4 C 0.4087(3) 0.4247(3) 0.8691(2)
C13_4 C 0.5048(3) 0.3738(3) 0.9304(2)
C14_4 C 0.5620(3) 0.3124(3) 0.9604(2)
C18_4 C 0.6854(3) 0.2234(3) 0.9535(3)
C19_4 C 0.6299(3) 0.2829(3) 0.9287(3)
H12_4 H 0.6396 0.3030 0.8893
C20_4 C 0.7577(3) 0.1928(3) 0.9159(2)
C21_4 C 0.7990(3) 0.1164(3) 0.9293(3)
H13_4 H 0.7861 0.0865 0.9648
C22_4 C 0.8589(3) 0.0863(3) 0.8891(3)
H14_4 H 0.8861 0.0358 0.8986
C23_4 C 0.8439(4) 0.2014(3) 0.8275(3)
H15_4 H 0.8598 0.2318 0.7929
C24_4 C 0.7856(3) 0.2359(3) 0.8650(3)
H16_4 H 0.7640 0.2894 0.8563
N2_4 N 0.4457(3) 0.4883(3) 0.89551(19)
N3_4 N 0.5067(3) 0.4555(2) 0.9341(2)
N4_4 N 0.4441(2) 0.3510(3) 0.8901(2)
N5_4 N 0.4256(3) 0.2693(3) 0.8691(3)
H17_4 H 0.4737 0.2414 0.8636
H18_4 H 0.3944 0.2427 0.8971
C39_4 C 0.2830(4) 0.5457(3) 0.9809(2)
H27_4 H 0.3018 0.4985 0.9595
C40_4 C 0.2248(4) 0.6012(4) 0.9547(3)
H28_4 H 0.2058 0.5919 0.9150
C41_4 C 0.1953(3) 0.6699(3) 0.9874(2)
H29_4 H 0.1560 0.7062 0.9696
H6_4 H 0.0668 0.2338 0.9775
Cl1 Cl 0.37356(11) 0.62644(11) 0.2500
O1 O 0.3704(9) 0.5591(9) 0.2109(5)
O2 O 0.3267(13) 0.5938(7) 0.3011(5)
O3 O 0.4409(9) 0.6296(9) 0.2891(5)
O4 O 0.4062(7) 0.6733(13) 0.1989(5)
Cl1_2 Cl 0.62644(11) 0.37356(11) 0.7500
O1_2 O 0.6296(9) 0.4409(9) 0.7109(5)
O2_2 O 0.6733(13) 0.4062(7) 0.8011(5)
O3_2 O 0.5591(9) 0.3704(9) 0.7891(5)
O4_2 O 0.5938(7) 0.3267(13) 0.6989(5)
Cl1_3 Cl 0.87356(11) 0.87356(11) -0.0000
O2_3 O 0.9062(7) 0.8267(13) 0.0511(5)
O3_3 O 0.8704(9) 0.9409(9) 0.0391(5)
Cl1_4 Cl 0.87356(11) 0.87356(11) 1.0000
O1_3 O 0.9409(9) 0.8704(9) 0.9609(5)
O4_3 O 0.8267(13) 0.9062(7) 0.9489(5)
Cl1_5 Cl 0.12644(11) 0.12644(11) 0.5000
O1_4 O 0.0591(9) 0.1296(9) 0.4609(5)
O2_4 O 0.0938(7) 0.1733(13) 0.5511(5)
O3_4 O 0.1296(9) 0.0591(9) 0.5391(5)
O4_4 O 0.1733(13) 0.0938(7) 0.4489(5)
Cl2 Cl 0.27005(11) 0.27005(11) 0.0000
O6 O 0.2221(14) 0.3550(7) 0.0060(10)
O7 O 0.2347(5) 0.2363(4) 0.0529(2)
Cl2_2 Cl 0.27005(11) 0.27005(11) 1.0000
O5 O 0.2363(4) 0.2347(5) 0.9471(2)
O8 O 0.3550(7) 0.2221(14) 0.9940(10)
Cl2_3 Cl 0.72995(11) 0.72995(11) 0.5000
O5_2 O 0.7637(4) 0.7653(5) 0.4471(2)
O6_2 O 0.7779(14) 0.6450(7) 0.5060(10)
O7_2 O 0.7653(5) 0.7637(4) 0.5529(2)
O8_2 O 0.6450(7) 0.7779(14) 0.4940(10)
Cl2_4 Cl 0.22995(11) 0.77005(11) 0.7500
O5_3 O 0.2653(5) 0.7363(4) 0.6971(2)
O6_3 O 0.1450(7) 0.7221(14) 0.7560(10)
O7_3 O 0.2637(4) 0.7347(5) 0.8029(2)
O8_3 O 0.2779(14) 0.8550(7) 0.7440(10)
Cl2_5 Cl 0.77005(11) 0.22995(11) 0.2500
O5_4 O 0.7347(5) 0.2637(4) 0.1971(2)
O6_4 O 0.8550(7) 0.2779(14) 0.2560(10)
O7_4 O 0.7363(4) 0.2653(5) 0.3029(2)
O8_4 O 0.7221(14) 0.1450(7) 0.2440(10)
loop_
_geom_bond_atom_site_label_1
_geom_bond_atom_site_label_2
_geom_bond_site_symmetry_1
_geom_bond_site_symmetry_2
C13 C14 1_555 1_555
C14 C15 1_555 1_555
C16 C15 1_555 1_555
H10 C16 1_555 1_555
C17 C16 1_555 1_555
H11 C17 1_555 1_555
C18 C17 1_555 1_555
C19 C14 1_555 1_555
H12 C19 1_555 1_555
C20 C18 1_555 1_555
C21 C20 1_555 1_555
H13 C21 1_555 1_555
C22 C21 1_555 1_555
H14 C22 1_555 1_555
C23 H15 1_555 1_555
C24 C20 1_555 1_555
H16 C24 1_555 1_555
N3 C13 1_555 1_555
N6 C22 1_555 1_555
C33 C32 1_555 1_555
H25 C33 1_555 1_555
Cd2 N6 1_555 1_555
C18 C19 1_555 1_555
C23 C24 1_555 1_555
C23 N6 1_555 1_555
C25 H19 1_555 1_555
C26 C25 1_555 1_555
H20 C26 1_555 1_555
H23 C31 1_555 1_555
C1 H1 1_555 1_555
C2 C1 1_555 1_555
H2 C2 1_555 1_555
C3 C2 1_555 1_555
C4 C3 1_555 1_555
H3 C4 1_555 1_555
C5 C4 1_555 1_555
H4 C5 1_555 1_555
C6 C3 1_555 1_555
C7 C6 1_555 1_555
H5 C7 1_555 1_555
C11 C6 1_555 1_555
H8 C11 1_555 1_555
C12 C10 1_555 1_555
N1 C1 1_555 1_555
N2 C12 1_555 1_555
N4 C12 1_555 1_555
N5 N4 1_555 1_555
H17 N5 1_555 1_555
H18 N5 1_555 1_555
C28 C27 1_555 1_555
H21 C28 1_555 1_555
C29 C28 1_555 1_555
H22 C29 1_555 1_555
C30 C27 1_555 1_555
C35 C30 1_555 1_555
H26 C35 1_555 1_555
C36 C34 1_555 1_555
Cd2 N1 1_555 1_555
Cd5_2 N9 1_555 1_555
N10 C36 1_555 1_555
N12 C36 1_555 1_555
N13 N12 1_555 1_555
H35 N13 1_555 1_555
H36 N13 1_555 1_555
C5 N1 1_555 1_555
C10 C11 1_555 1_555
C29 N9 1_555 1_555
C34 C35 1_555 1_555
N14 Cd1 1_555 1_555
N15 Cd1 1_555 1_555
H6 C8 1_555 1_555
C9 C8 1_555 1_555
H7 C9 1_555 1_555
C37 C38 1_555 1_555
C38 C39 1_555 1_555
C40 C39 1_555 1_555
H28 C40 1_555 1_555
C41 C40 1_555 1_555
H29 C41 1_555 1_555
C42 C41 1_555 1_555
C43 C38 1_555 1_555
H30 C43 1_555 1_555
C44 C42 1_555 1_555
C45 C44 1_555 1_555
H31 C45 1_555 1_555
C46 C45 1_555 1_555
H32 C46 1_555 1_555
C47 H33 1_555 1_555
C48 C44 1_555 1_555
H34 C48 1_555 1_555
Cd5_2 N16 1_555 1_555
N16 C46 1_555 1_555
C37 N11 1_555 1_555
C42 C43 1_555 1_555
C47 C48 1_555 1_555
C47 N16 1_555 1_555
C9_2 C8_2 1_555 1_555
H7_2 C9_2 1_555 1_555
C37_2 C38_2 1_555 1_555
C38_2 C39_2 1_555 1_555
C40_2 C39_2 1_555 1_555
H28_2 C40_2 1_555 1_555
C41_2 C40_2 1_555 1_555
H29_2 C41_2 1_555 1_555
C42_2 C41_2 1_555 1_555
C43_2 C38_2 1_555 1_555
H30_2 C43_2 1_555 1_555
C44_2 C42_2 1_555 1_555
C45_2 C44_2 1_555 1_555
H31_2 C45_2 1_555 1_555
C46_2 C45_2 1_555 1_555
H32_2 C46_2 1_555 1_555
C47_2 H33_2 1_555 1_555
C48_2 C44_2 1_555 1_555
H34_2 C48_2 1_555 1_555
Cd2 N16_2 1_555 1_555
N16_2 C46_2 1_555 1_555
C37_2 N11_2 1_555 1_555
C42_2 C43_2 1_555 1_555
C47_2 C48_2 1_555 1_555
C47_2 N16_2 1_555 1_555
N14_2 Cd1_2 1_555 1_555
N15_2 Cd1_2 1_555 1_555
C4_2 C3_2 1_555 1_555
H3_2 C4_2 1_555 1_555
C5_2 C4_2 1_555 1_555
H4_2 C5_2 1_555 1_555
C6_2 C3_2 1_555 1_555
C11_2 C6_2 1_555 1_555
H8_2 C11_2 1_555 1_555
C12_2 C10_2 1_555 1_555
N2_2 C12_2 1_555 1_555
N4_2 C12_2 1_555 1_555
N5_2 N4_2 1_555 1_555
H17_2 N5_2 1_555 1_555
H18_2 N5_2 1_555 1_555
C25_2 H19_2 1_555 1_555
C26_2 C25_2 1_555 1_555
H20_2 C26_2 1_555 1_555
C27_2 C26_2 1_555 1_555
C28_2 C27_2 1_555 1_555
H21_2 C28_2 1_555 1_555
C29_2 C28_2 1_555 1_555
H22_2 C29_2 1_555 1_555
C30_2 C27_2 1_555 1_555
C31_2 C30_2 1_555 1_555
H23_2 C31_2 1_555 1_555
C35_2 C30_2 1_555 1_555
H26_2 C35_2 1_555 1_555
C36_2 C34_2 1_555 1_555
Cd5 N1_2 1_555 1_555
Cd2 N9_2 1_555 1_555
N9_2 C25_2 1_555 1_555
N10_2 C36_2 1_555 1_555
N12_2 C36_2 1_555 1_555
N13_2 N12_2 1_555 1_555
H35_2 N13_2 1_555 1_555
H36_2 N13_2 1_555 1_555
C5_2 N1_2 1_555 1_555
C10_2 C11_2 1_555 1_555
C29_2 N9_2 1_555 1_555
C34_2 C35_2 1_555 1_555
C1_2 H1_2 1_555 1_555
C2_2 C1_2 1_555 1_555
H2_2 C2_2 1_555 1_555
H5_2 C7_2 1_555 1_555
C13_2 C14_2 1_555 1_555
C14_2 C15_2 1_555 1_555
C16_2 C15_2 1_555 1_555
H10_2 C16_2 1_555 1_555
C17_2 C16_2 1_555 1_555
H11_2 C17_2 1_555 1_555
C18_2 C17_2 1_555 1_555
C19_2 C14_2 1_555 1_555
H12_2 C19_2 1_555 1_555
C20_2 C18_2 1_555 1_555
C21_2 C20_2 1_555 1_555
H13_2 C21_2 1_555 1_555
C22_2 C21_2 1_555 1_555
H14_2 C22_2 1_555 1_555
C23_2 H15_2 1_555 1_555
C24_2 C20_2 1_555 1_555
H16_2 C24_2 1_555 1_555
N3_2 C13_2 1_555 1_555
N6_2 C22_2 1_555 1_555
H24_2 C32_2 1_555 1_555
C33_2 C32_2 1_555 1_555
H25_2 C33_2 1_555 1_555
Cd5 N6_2 1_555 1_555
C18_2 C19_2 1_555 1_555
C23_2 C24_2 1_555 1_555
C23_2 N6_2 1_555 1_555
C1_3 H1_3 1_555 1_555
C2_3 C1_3 1_555 1_555
H2_3 C2_3 1_555 1_555
C3_3 C2_3 1_555 1_555
C4_3 C3_3 1_555 1_555
H3_3 C4_3 1_555 1_555
C5_3 C4_3 1_555 1_555
H4_3 C5_3 1_555 1_555
C6_3 C3_3 1_555 1_555
C7_3 C6_3 1_555 1_555
H5_3 C7_3 1_555 1_555
C8_3 C7_3 1_555 1_555
H6_2 C8_3 1_555 1_555
C9_3 C8_3 1_555 1_555
H7_3 C9_3 1_555 1_555
C10_3 C9_3 1_555 1_555
C11_3 C6_3 1_555 1_555
H8_3 C11_3 1_555 1_555
C12_3 C10_3 1_555 1_555
C13_3 C14_3 1_555 1_555
C14_3 C15_3 1_555 1_555
C15_3 H9_3 1_555 1_555
C16_3 C15_3 1_555 1_555
H10_3 C16_3 1_555 1_555
C17_3 C16_3 1_555 1_555
H11_3 C17_3 1_555 1_555
C18_3 C17_3 1_555 1_555
C19_3 C14_3 1_555 1_555
H12_3 C19_3 1_555 1_555
C20_3 C18_3 1_555 1_555
C21_3 C20_3 1_555 1_555
H13_3 C21_3 1_555 1_555
C22_3 C21_3 1_555 1_555
H14_3 C22_3 1_555 1_555
C23_3 H15_3 1_555 1_555
C24_3 C20_3 1_555 1_555
H16_3 C24_3 1_555 1_555
Cd2 N3_3 1_555 1_555
N8_2 C1_3 1_555 1_555
N2_3 C12_3 1_555 1_555
N3_3 C13_3 1_555 1_555
N4_3 C12_3 1_555 1_555
N5_3 N4_3 1_555 1_555
H17_3 N5_3 1_555 1_555
H18_3 N5_3 1_555 1_555
N14_2 C22_3 1_555 1_555
C25_3 H19_3 1_555 1_555
C26_3 C25_3 1_555 1_555
H20_3 C26_3 1_555 1_555
C27_3 C26_3 1_555 1_555
C28_3 C27_3 1_555 1_555
H21_3 C28_3 1_555 1_555
C29_3 C28_3 1_555 1_555
H22_3 C29_3 1_555 1_555
C30_3 C27_3 1_555 1_555
C31_3 C30_3 1_555 1_555
H23_3 C31_3 1_555 1_555
C32_3 C31_3 1_555 1_555
H24_3 C32_3 1_555 1_555
C33_3 C32_3 1_555 1_555
H25_3 C33_3 1_555 1_555
C34_3 C33_3 1_555 1_555
C35_3 C30_3 1_555 1_555
H26_3 C35_3 1_555 1_555
C36_3 C34_3 1_555 1_555
C37_3 C38_3 1_555 1_555
C38_3 C39_3 1_555 1_555
C39_3 H27_3 1_555 1_555
C40_3 C39_3 1_555 1_555
H28_3 C40_3 1_555 1_555
C41_3 C40_3 1_555 1_555
H29_3 C41_3 1_555 1_555
C42_3 C41_3 1_555 1_555
C43_3 C38_3 1_555 1_555
H30_3 C43_3 1_555 1_555
C44_3 C42_3 1_555 1_555
C45_3 C44_3 1_555 1_555
H31_3 C45_3 1_555 1_555
C46_3 C45_3 1_555 1_555
H32_3 C46_3 1_555 1_555
C47_3 H33_3 1_555 1_555
C48_3 C44_3 1_555 1_555
H34_3 C48_3 1_555 1_555
N7 C25_3 1_555 1_555
N10_3 C36_3 1_555 1_555
N11_3 Cd2 1_555 1_555
N12_3 C36_3 1_555 1_555
N13_3 N12_3 1_555 1_555
H35_3 N13_3 1_555 1_555
H36_3 N13_3 1_555 1_555
N15 C46_3 1_555 1_555
C5_3 N8_2 1_555 1_555
C10_3 C11_3 1_555 1_555
C13_3 N4_3 1_555 1_555
C18_3 C19_3 1_555 1_555
C23_3 C24_3 1_555 1_555
C23_3 N14_2 1_555 1_555
N2_3 N3_3 1_555 1_555
C29_3 N7 1_555 1_555
C34_3 C35_3 1_555 1_555
C37_3 N11_3 1_555 1_555
C37_3 N12_3 1_555 1_555
C42_3 C43_3 1_555 1_555
C47_3 C48_3 1_555 1_555
C47_3 N15 1_555 1_555
N10_3 N11_3 1_555 1_555
C15_4 H9_4 1_555 1_555
C16_4 C15_4 1_555 1_555
H10_4 C16_4 1_555 1_555
C17_4 C16_4 1_555 1_555
H11_4 C17_4 1_555 1_555
C25_4 H19_4 1_555 1_555
C26_4 C25_4 1_555 1_555
H20_4 C26_4 1_555 1_555
C27_4 C26_4 1_555 1_555
C28_4 C27_4 1_555 1_555
H21_4 C28_4 1_555 1_555
C29_4 C28_4 1_555 1_555
H22_4 C29_4 1_555 1_555
C30_4 C27_4 1_555 1_555
C31_4 C30_4 1_555 1_555
H23_4 C31_4 1_555 1_555
C32_4 C31_4 1_555 1_555
H24_4 C32_4 1_555 1_555
C33_4 C32_4 1_555 1_555
H25_4 C33_4 1_555 1_555
C34_4 C33_4 1_555 1_555
C35_4 C30_4 1_555 1_555
H26_4 C35_4 1_555 1_555
C36_4 C34_4 1_555 1_555
C37_4 C38_4 1_555 1_555
C43_4 C38_4 1_555 1_555
H30_4 C43_4 1_555 1_555
C44_4 C42_4 1_555 1_555
C45_4 C44_4 1_555 1_555
H31_4 C45_4 1_555 1_555
C46_4 C45_4 1_555 1_555
H32_4 C46_4 1_555 1_555
C47_4 H33_4 1_555 1_555
C48_4 C44_4 1_555 1_555
H34_4 C48_4 1_555 1_555
N7_2 C25_4 1_555 1_555
N10_4 C36_4 1_555 1_555
N11_4 Cd5 1_555 1_555
N12_4 C36_4 1_555 1_555
N13_4 N12_4 1_555 1_555
H35_4 N13_4 1_555 1_555
H36_4 N13_4 1_555 1_555
N15_2 C46_4 1_555 1_555
C29_4 N7_2 1_555 1_555
C34_4 C35_4 1_555 1_555
C37_4 N11_4 1_555 1_555
C37_4 N12_4 1_555 1_555
C42_4 C43_4 1_555 1_555
C47_4 C48_4 1_555 1_555
C47_4 N15_2 1_555 1_555
N10_4 N11_4 1_555 1_555
C1_4 H1_4 1_555 1_555
C2_4 C1_4 1_555 1_555
H2_4 C2_4 1_555 1_555
C3_4 C2_4 1_555 1_555
C4_4 C3_4 1_555 1_555
H3_4 C4_4 1_555 1_555
C5_4 C4_4 1_555 1_555
H4_4 C5_4 1_555 1_555
C6_4 C3_4 1_555 1_555
C7_4 C6_4 1_555 1_555
H5_4 C7_4 1_555 1_555
C8_4 C7_4 1_555 1_555
H6_3 C8_4 1_555 1_555
C9_4 C8_4 1_555 1_555
H7_4 C9_4 1_555 1_555
C10_4 C9_4 1_555 1_555
C11_4 C6_4 1_555 1_555
H8_4 C11_4 1_555 1_555
C12_4 C10_4 1_555 1_555
C13_4 C14_4 1_555 1_555
C19_4 C14_4 1_555 1_555
H12_4 C19_4 1_555 1_555
C20_4 C18_4 1_555 1_555
C21_4 C20_4 1_555 1_555
H13_4 C21_4 1_555 1_555
C22_4 C21_4 1_555 1_555
H14_4 C22_4 1_555 1_555
C23_4 H15_4 1_555 1_555
C24_4 C20_4 1_555 1_555
H16_4 C24_4 1_555 1_555
Cd5_2 N3_4 1_555 1_555
N8 C1_4 1_555 1_555
N2_4 C12_4 1_555 1_555
N3_4 C13_4 1_555 1_555
N4_4 C12_4 1_555 1_555
N5_4 N4_4 1_555 1_555
H17_4 N5_4 1_555 1_555
H18_4 N5_4 1_555 1_555
N14 C22_4 1_555 1_555
C39_4 H27_4 1_555 1_555
C40_4 C39_4 1_555 1_555
H28_4 C40_4 1_555 1_555
C41_4 C40_4 1_555 1_555
H29_4 C41_4 1_555 1_555
C5_4 N8 1_555 1_555
C10_4 C11_4 1_555 1_555
C13_4 N4_4 1_555 1_555
C18_4 C19_4 1_555 1_555
C23_4 C24_4 1_555 1_555
C23_4 N14 1_555 1_555
N2_4 N3_4 1_555 1_555
Cl1 O1 1_555 1_555
O2 Cl1 1_555 1_555
O3 Cl1 1_555 1_555
O4 Cl1 1_555 1_555
Cl1_2 O1_2 1_555 1_555
O2_2 Cl1_2 1_555 1_555
O3_2 Cl1_2 1_555 1_555
O4_2 Cl1_2 1_555 1_555
O2_3 Cl1_3 1_555 1_555
O3_3 Cl1_3 1_555 1_555
Cl1_4 O1_3 1_555 1_555
O4_3 Cl1_4 1_555 1_555
Cl1_5 O1_4 1_555 1_555
O2_4 Cl1_5 1_555 1_555
O3_4 Cl1_5 1_555 1_555
O4_4 Cl1_5 1_555 1_555
O6 Cl2 1_555 1_555
O7 Cl2 1_555 1_555
Cl2_2 O5 1_555 1_555
O8 Cl2_2 1_555 1_555
Cl2_3 O5_2 1_555 1_555
O6_2 Cl2_3 1_555 1_555
O7_2 Cl2_3 1_555 1_555
O8_2 Cl2_3 1_555 1_555
Cl2_4 O5_3 1_555 1_555
O6_3 Cl2_4 1_555 1_555
O7_3 Cl2_4 1_555 1_555
O8_3 Cl2_4 1_555 1_555
Cl2_5 O5_4 1_555 1_555
O6_4 Cl2_5 1_555 1_555
O7_4 Cl2_5 1_555 1_555
O8_4 Cl2_5 1_555 1_555

#END
