
###############################################################################
#
# This file contains modified crystal structure data generated from the
# MOF subset of the Cambridge Structural Database (CSD) v543 
# hosted by the Cambridge Crystallographic Data Centre (CCDC).
#
# This work is licensed under the Creative Commons
# Attribution-NonCommercial-ShareAlike 4.0 International License.
# To view a copy of this license, visit
# http://creativecommons.org/licenses/by-nc-sa/4.0/
# or send a letter to
# Creative Commons, PO Box 1866, Mountain View, CA 94042, USA.
#
# CIF created using the CSD Python API on 29 September 2022
# The structure has been converted into the P1 space group
# The structure has a 3D framework
# The original CSD entry OKIZOZ is in the tetragonal crystal system
# The framework has been calculated to contain at least 10.0% void space
# The void calculation uses a probe of radius 1.32A, grid spacing 0.4
#
###############################################################################

data_OKIZOZ
_chemical_formula_moiety         '(C304 H240 Co16 N32 O80)n'
_symmetry_cell_setting           triclinic
_symmetry_space_group_name_H-M   'P 1'
_symmetry_Int_Tables_number      1
_space_group_name_Hall           'P 1'
loop_
_symmetry_equiv_pos_site_id
_symmetry_equiv_pos_as_xyz
1 x,y,z
_cell_length_a                   25.041(4)
_cell_length_b                   25.041(4)
_cell_length_c                   15.542(3)
_cell_angle_alpha                90
_cell_angle_beta                 90
_cell_angle_gamma                90
_cell_volume                     9745.64
loop_
_atom_site_label
_atom_site_type_symbol
_atom_site_fract_x
_atom_site_fract_y
_atom_site_fract_z
Co1 Co 0.51623(3) 0.30520(2) 0.11399(4)
O1 O 0.57754(16) 0.29729(15) 0.2045(2)
O2 O 0.57250(19) 0.20957(15) 0.2269(3)
O3 O 0.7355(2) 0.27350(19) 0.5202(3)
O4 O 0.79730(18) 0.45638(18) 0.7797(3)
O5 O 0.70957(19) 0.46488(18) 0.7851(3)
N1 N 0.5201(2) 0.38587(16) 0.1334(3)
N2 N 0.5637(3) 0.4050(2) 0.1743(5)
H1 H 0.5907 0.3859 0.1886
C1 C 0.5906(2) 0.2554(2) 0.2430(4)
C2 C 0.6292(2) 0.2608(2) 0.3157(4)
C3 C 0.6478(3) 0.3102(3) 0.3416(4)
H2 H 0.6364 0.3405 0.3122
C4 C 0.6824(3) 0.3160(3) 0.4096(4)
H3 H 0.6940 0.3498 0.4260
C5 C 0.6998(3) 0.2716(3) 0.4531(4)
C6 C 0.6834(3) 0.2216(2) 0.4283(4)
H4 H 0.6954 0.1915 0.4576
C7 C 0.6488(3) 0.2163(2) 0.3586(4)
H5 H 0.6387 0.1824 0.3405
C8 C 0.7365(3) 0.3173(2) 0.5768(4)
C9 C 0.7858(3) 0.3286(3) 0.6117(4)
H6 H 0.8156 0.3086 0.5962
C10 C 0.7904(2) 0.3702(3) 0.6702(4)
H7 H 0.8237 0.3788 0.6930
C11 C 0.7460(3) 0.3989(2) 0.6945(3)
C12 C 0.6957(3) 0.3851(3) 0.6614(4)
H8 H 0.6652 0.4030 0.6794
C13 C 0.6925(3) 0.3444(3) 0.6016(4)
H9 H 0.6595 0.3356 0.5781
C14 C 0.7518(3) 0.4425(2) 0.7580(3)
C15 C 0.5596(5) 0.4569(3) 0.1897(8)
C16 C 0.5094(4) 0.4728(2) 0.1566(5)
C17 C 0.4887(3) 0.4268(2) 0.1205(4)
C18 C 0.4378(3) 0.4214(3) 0.0736(8)
H10 H 0.4428 0.3986 0.0247
H11 H 0.4261 0.4559 0.0547
H12 H 0.4114 0.4061 0.1110
C19 C 0.6053(7) 0.4873(4) 0.2319(12)
H13 H 0.6033 0.4831 0.2932
H14 H 0.6026 0.5245 0.2175
H15 H 0.6387 0.4735 0.2115
N3 N 0.4799(2) 0.61413(16) 0.1334(3)
N4 N 0.4363(3) 0.5950(2) 0.1743(5)
H16 H 0.4093 0.6141 0.1886
C20 C 0.4404(5) 0.5431(3) 0.1897(8)
C21 C 0.4906(4) 0.5272(2) 0.1566(5)
C22 C 0.5113(3) 0.5732(2) 0.1205(4)
C23 C 0.5622(3) 0.5786(3) 0.0736(8)
H17 H 0.5572 0.6014 0.0247
H18 H 0.5739 0.5441 0.0547
H19 H 0.5886 0.5939 0.1110
C24 C 0.3947(7) 0.5127(4) 0.2319(12)
H20 H 0.3967 0.5169 0.2932
H21 H 0.3974 0.4755 0.2175
H22 H 0.3613 0.5265 0.2115
Co2 Co 0.30520(2) 0.48377(3) 0.88601(4)
O6 O 0.29729(15) 0.42246(16) 0.7955(2)
O7 O 0.20957(15) 0.42750(19) 0.7731(3)
O8 O 0.27350(19) 0.2645(2) 0.4798(3)
O9 O 0.45638(18) 0.20270(18) 0.2203(3)
O10 O 0.46488(18) 0.29043(19) 0.2149(3)
C25 C 0.2554(2) 0.4094(2) 0.7570(4)
C26 C 0.2608(2) 0.3708(2) 0.6843(4)
C27 C 0.3102(3) 0.3522(3) 0.6584(4)
H23 H 0.3405 0.3636 0.6878
C28 C 0.3160(3) 0.3176(3) 0.5904(4)
H24 H 0.3498 0.3060 0.5740
C29 C 0.2716(3) 0.3002(3) 0.5469(4)
C30 C 0.2216(2) 0.3166(3) 0.5717(4)
H25 H 0.1915 0.3046 0.5424
C31 C 0.2163(2) 0.3512(3) 0.6414(4)
H26 H 0.1824 0.3613 0.6595
C32 C 0.3173(2) 0.2635(3) 0.4232(4)
C33 C 0.3286(3) 0.2142(3) 0.3883(4)
H27 H 0.3086 0.1844 0.4038
C34 C 0.3702(3) 0.2096(2) 0.3298(4)
H28 H 0.3788 0.1763 0.3070
C35 C 0.3989(2) 0.2540(3) 0.3055(3)
C36 C 0.3851(3) 0.3043(3) 0.3386(4)
H29 H 0.4030 0.3348 0.3206
C37 C 0.3444(3) 0.3075(3) 0.3984(4)
H30 H 0.3356 0.3405 0.4219
C38 C 0.4425(2) 0.2482(3) 0.2420(3)
Co3 Co 0.48377(3) 0.69480(2) 0.11399(4)
Co4 Co 0.69480(2) 0.51623(3) 0.88601(4)
Co5 Co 0.51623(3) 0.19480(2) 0.13601(4)
Co6 Co 0.19480(2) 0.48377(3) 0.86399(4)
Co7 Co 0.80520(2) 0.51623(3) 0.86399(4)
O11 O 0.57250(19) 0.29043(15) 0.0231(3)
O12 O 0.29043(15) 0.42750(19) 0.9769(3)
O13 O 0.45638(18) 0.29730(18) 0.0297(3)
O14 O 0.29730(18) 0.54362(18) 0.9703(3)
O15 O 0.29043(19) 0.53512(18) 0.7851(3)
N5 N 0.38587(16) 0.4799(2) 0.8666(3)
N2_2 N 0.4050(2) 0.4363(3) 0.8257(5)
H1_2 H 0.3859 0.4093 0.8114
C15_2 C 0.4569(3) 0.4404(5) 0.8103(8)
C16_2 C 0.4728(2) 0.4906(4) 0.8434(5)
C17_2 C 0.4268(2) 0.5113(3) 0.8795(4)
C18_2 C 0.4214(3) 0.5622(3) 0.9264(8)
H10_2 H 0.3986 0.5572 0.9753
H11_2 H 0.4559 0.5739 0.9453
H12_2 H 0.4061 0.5886 0.8890
C19_2 C 0.4873(4) 0.3947(7) 0.7681(12)
H13_2 H 0.4831 0.3967 0.7068
H14_2 H 0.5245 0.3974 0.7825
H15_2 H 0.4735 0.3613 0.7885
N3_2 N 0.61413(16) 0.5201(2) 0.8666(3)
N4_2 N 0.5950(2) 0.5637(3) 0.8257(5)
H16_2 H 0.6141 0.5907 0.8114
C20_2 C 0.5431(3) 0.5596(5) 0.8103(8)
C21_2 C 0.5272(2) 0.5094(4) 0.8434(5)
C22_2 C 0.5732(2) 0.4887(3) 0.8795(4)
C23_2 C 0.5786(3) 0.4378(3) 0.9264(8)
H17_2 H 0.6014 0.4428 0.9753
H18_2 H 0.5441 0.4261 0.9453
H19_2 H 0.5939 0.4114 0.8890
C24_2 C 0.5127(4) 0.6053(7) 0.7681(12)
H20_2 H 0.5169 0.6033 0.7068
H21_2 H 0.4755 0.6026 0.7825
H22_2 H 0.5265 0.6387 0.7885
O6_2 O 0.42246(16) 0.70271(15) 0.2045(2)
O7_2 O 0.42750(19) 0.79043(15) 0.2269(3)
O8_2 O 0.2645(2) 0.72650(19) 0.5202(3)
O9_2 O 0.20270(18) 0.54362(18) 0.7797(3)
C25_2 C 0.4094(2) 0.7446(2) 0.2430(4)
C26_2 C 0.3708(2) 0.7392(2) 0.3157(4)
C27_2 C 0.3522(3) 0.6898(3) 0.3416(4)
H23_2 H 0.3636 0.6595 0.3122
C28_2 C 0.3176(3) 0.6840(3) 0.4096(4)
H24_2 H 0.3060 0.6502 0.4260
C29_2 C 0.3002(3) 0.7284(3) 0.4531(4)
C30_2 C 0.3166(3) 0.7784(2) 0.4283(4)
H25_2 H 0.3046 0.8085 0.4576
C31_2 C 0.3512(3) 0.7837(2) 0.3586(4)
H26_2 H 0.3613 0.8176 0.3405
C32_2 C 0.2635(3) 0.6827(2) 0.5768(4)
C33_2 C 0.2142(3) 0.6714(3) 0.6117(4)
H27_2 H 0.1844 0.6914 0.5962
C34_2 C 0.2096(2) 0.6298(3) 0.6702(4)
H28_2 H 0.1763 0.6212 0.6930
C35_2 C 0.2540(3) 0.6011(2) 0.6945(3)
C36_2 C 0.3043(3) 0.6149(3) 0.6614(4)
H29_2 H 0.3348 0.5970 0.6794
C37_2 C 0.3075(3) 0.6556(3) 0.6016(4)
H30_2 H 0.3405 0.6644 0.5781
C38_2 C 0.2482(3) 0.5575(2) 0.7580(3)
Co6_2 Co 0.48377(3) 0.80520(2) 0.13601(4)
O12_2 O 0.42750(19) 0.70957(15) 0.0231(3)
O14_2 O 0.54362(18) 0.70270(18) 0.0297(3)
O15_2 O 0.53512(18) 0.70957(19) 0.2149(3)
O6_3 O 0.70271(15) 0.57754(16) 0.7955(2)
O7_3 O 0.79043(15) 0.57250(19) 0.7731(3)
O8_3 O 0.72650(19) 0.7355(2) 0.4798(3)
O9_3 O 0.54362(18) 0.79730(18) 0.2203(3)
C25_3 C 0.7446(2) 0.5906(2) 0.7570(4)
C26_3 C 0.7392(2) 0.6292(2) 0.6843(4)
C27_3 C 0.6898(3) 0.6478(3) 0.6584(4)
H23_3 H 0.6595 0.6364 0.6878
C28_3 C 0.6840(3) 0.6824(3) 0.5904(4)
H24_3 H 0.6502 0.6940 0.5740
C29_3 C 0.7284(3) 0.6998(3) 0.5469(4)
C30_3 C 0.7784(2) 0.6834(3) 0.5717(4)
H25_3 H 0.8085 0.6954 0.5424
C31_3 C 0.7837(2) 0.6488(3) 0.6414(4)
H26_3 H 0.8176 0.6387 0.6595
C32_3 C 0.6827(2) 0.7365(3) 0.4232(4)
C33_3 C 0.6714(3) 0.7858(3) 0.3883(4)
H27_3 H 0.6914 0.8156 0.4038
C34_3 C 0.6298(3) 0.7904(2) 0.3298(4)
H28_3 H 0.6212 0.8237 0.3070
C35_3 C 0.6011(2) 0.7460(3) 0.3055(3)
C36_3 C 0.6149(3) 0.6957(3) 0.3386(4)
H29_3 H 0.5970 0.6652 0.3206
C37_3 C 0.6556(3) 0.6925(3) 0.3984(4)
H30_3 H 0.6644 0.6595 0.4219
C38_3 C 0.5575(2) 0.7518(3) 0.2420(3)
O12_3 O 0.70957(15) 0.57250(19) 0.9769(3)
O14_3 O 0.70270(18) 0.45638(18) 0.9703(3)
O1_2 O 0.57754(16) 0.20271(15) 0.0455(2)
N1_2 N 0.5201(2) 0.11413(16) 0.1166(3)
N2_3 N 0.5637(3) 0.0950(2) 0.0757(5)
H1_3 H 0.5907 0.1141 0.0614
C1_2 C 0.5906(2) 0.2446(2) 0.0070(4)
C15_3 C 0.5596(5) 0.0431(3) 0.0603(8)
C16_3 C 0.5094(4) 0.0272(2) 0.0934(5)
C17_3 C 0.4887(3) 0.0732(2) 0.1295(4)
C18_3 C 0.4378(3) 0.0786(3) 0.1764(8)
H10_3 H 0.4428 0.1014 0.2253
H11_3 H 0.4261 0.0441 0.1953
H12_3 H 0.4114 0.0939 0.1390
C19_3 C 0.6053(7) 0.0127(4) 0.0181(12)
H15_3 H 0.6387 0.0265 0.0385
H21_3 H 0.3974 0.0245 0.0325
O10_2 O 0.46488(18) 0.20957(19) 0.0351(3)
C38_4 C 0.4425(2) 0.2518(3) 0.0080(3)
H14_3 H 0.6026 0.9755 0.0325
N3_3 N 0.4799(2) 0.88587(16) 0.1166(3)
N4_3 N 0.4363(3) 0.9050(2) 0.0757(5)
H16_3 H 0.4093 0.8859 0.0614
C20_3 C 0.4404(5) 0.9569(3) 0.0603(8)
C21_3 C 0.4906(4) 0.9728(2) 0.0934(5)
C22_3 C 0.5113(3) 0.9268(2) 0.1295(4)
C23_3 C 0.5622(3) 0.9214(3) 0.1764(8)
H17_3 H 0.5572 0.8986 0.2253
H18_3 H 0.5739 0.9559 0.1953
H19_3 H 0.5886 0.9061 0.1390
C24_3 C 0.3947(7) 0.9873(4) 0.0181(12)
H22_3 H 0.3613 0.9735 0.0385
O1_3 O 0.42246(16) 0.79729(15) 0.0455(2)
C1_3 C 0.4094(2) 0.7554(2) 0.0070(4)
O10_3 O 0.53512(18) 0.79043(19) 0.0351(3)
C38_5 C 0.5575(2) 0.7482(3) 0.0080(3)
O5_2 O 0.20957(19) 0.53512(18) 0.9649(3)
C14_2 C 0.2518(3) 0.5575(2) 0.9920(3)
O6_4 O 0.79729(15) 0.57754(16) 0.9545(2)
C25_4 C 0.7554(2) 0.5906(2) 0.9930(4)
O15_3 O 0.79043(19) 0.46488(18) 0.9649(3)
N5_2 N 0.88587(16) 0.5201(2) 0.8834(3)
O6_5 O 0.20271(15) 0.42246(16) 0.9545(2)
C25_5 C 0.2446(2) 0.4094(2) 0.9930(4)
N5_3 N 0.11413(16) 0.4799(2) 0.8834(3)
C14_3 C 0.7482(3) 0.4425(2) 0.9920(3)
N2_4 N 0.0950(2) 0.4363(3) 0.9243(5)
H1_4 H 0.1141 0.4093 0.9386
C15_4 C 0.0431(3) 0.4404(5) 0.9397(8)
C16_4 C 0.0272(2) 0.4906(4) 0.9066(5)
C17_4 C 0.0732(2) 0.5113(3) 0.8705(4)
C18_4 C 0.0786(3) 0.5622(3) 0.8236(8)
H10_4 H 0.1014 0.5572 0.7747
H11_4 H 0.0441 0.5739 0.8047
H12_4 H 0.0939 0.5886 0.8610
C19_4 C 0.0127(4) 0.3947(7) 0.9819(12)
H15_4 H 0.0265 0.3613 0.9615
H21_4 H 0.0245 0.6026 0.9675
H14_4 H 0.9755 0.3974 0.9675
N4_4 N 0.9050(2) 0.5637(3) 0.9243(5)
H16_4 H 0.8859 0.5907 0.9386
C20_4 C 0.9569(3) 0.5596(5) 0.9397(8)
C21_4 C 0.9728(2) 0.5094(4) 0.9066(5)
C22_4 C 0.9268(2) 0.4887(3) 0.8705(4)
C23_4 C 0.9214(3) 0.4378(3) 0.8236(8)
H17_4 H 0.8986 0.4428 0.7747
H18_4 H 0.9559 0.4261 0.8047
H19_4 H 0.9061 0.4114 0.8610
C24_4 C 0.9873(4) 0.6053(7) 0.9819(12)
H22_4 H 0.9735 0.6387 0.9615
O3_2 O 0.7355(2) 0.22650(19) 0.7298(3)
O4_2 O 0.79730(18) 0.04362(18) 0.4703(3)
O5_3 O 0.70957(19) 0.03512(18) 0.4649(3)
C2_2 C 0.6292(2) 0.2392(2) 0.9343(4)
C3_2 C 0.6478(3) 0.1898(3) 0.9084(4)
H2_2 H 0.6364 0.1595 0.9378
C4_2 C 0.6824(3) 0.1840(3) 0.8404(4)
H3_2 H 0.6940 0.1502 0.8240
C5_2 C 0.6998(3) 0.2284(3) 0.7969(4)
C6_2 C 0.6834(3) 0.2784(2) 0.8217(4)
H4_2 H 0.6954 0.3085 0.7924
C7_2 C 0.6488(3) 0.2837(2) 0.8914(4)
H5_2 H 0.6387 0.3176 0.9095
C8_2 C 0.7365(3) 0.1827(2) 0.6732(4)
C9_2 C 0.7858(3) 0.1714(3) 0.6383(4)
H6_2 H 0.8156 0.1914 0.6538
C10_2 C 0.7904(2) 0.1298(3) 0.5798(4)
H7_2 H 0.8237 0.1212 0.5570
C11_2 C 0.7460(3) 0.1011(2) 0.5555(3)
C12_2 C 0.6957(3) 0.1149(3) 0.5886(4)
H8_2 H 0.6652 0.0970 0.5706
C13_2 C 0.6925(3) 0.1556(3) 0.6484(4)
H9_2 H 0.6595 0.1644 0.6719
C14_4 C 0.7518(3) 0.0575(2) 0.4920(3)
H13_3 H 0.6033 0.0169 0.9568
Co2_2 Co 0.30520(2) 0.01623(3) 0.36399(4)
O6_6 O 0.29729(15) 0.07754(16) 0.4545(2)
O7_4 O 0.20957(15) 0.07250(19) 0.4769(3)
O8_4 O 0.27350(19) 0.2355(2) 0.7702(3)
C25_6 C 0.2554(2) 0.0906(2) 0.4930(4)
C26_4 C 0.2608(2) 0.1292(2) 0.5657(4)
C27_4 C 0.3102(3) 0.1478(3) 0.5916(4)
H23_4 H 0.3405 0.1364 0.5622
C28_4 C 0.3160(3) 0.1824(3) 0.6596(4)
H24_4 H 0.3498 0.1940 0.6760
C29_4 C 0.2716(3) 0.1998(3) 0.7031(4)
C30_4 C 0.2216(2) 0.1834(3) 0.6783(4)
H25_4 H 0.1915 0.1954 0.7076
C31_4 C 0.2163(2) 0.1488(3) 0.6086(4)
H26_4 H 0.1824 0.1387 0.5905
C32_4 C 0.3173(2) 0.2365(3) 0.8268(4)
C33_4 C 0.3286(3) 0.2858(3) 0.8617(4)
H27_4 H 0.3086 0.3156 0.8462
C34_4 C 0.3702(3) 0.2904(2) 0.9202(4)
H28_4 H 0.3788 0.3237 0.9430
C35_4 C 0.3989(2) 0.2460(3) 0.9445(3)
C36_4 C 0.3851(3) 0.1957(3) 0.9114(4)
H29_4 H 0.4030 0.1652 0.9294
C37_4 C 0.3444(3) 0.1925(3) 0.8516(4)
H30_4 H 0.3356 0.1595 0.8281
Co6_3 Co 0.19480(2) 0.01623(3) 0.38601(4)
O12_4 O 0.29043(15) 0.07250(19) 0.2731(3)
N5_4 N 0.38587(16) 0.0201(2) 0.3834(3)
O14_4 O 0.70270(18) 0.04362(18) 0.2797(3)
C17_5 C 0.5732(2) 0.0113(3) 0.3705(4)
C18_5 C 0.5786(3) 0.0622(3) 0.3236(8)
H10_5 H 0.6014 0.0572 0.2747
H11_5 H 0.5441 0.0739 0.3047
H12_5 H 0.5939 0.0886 0.3610
N4_5 N 0.4050(2) 0.0637(3) 0.4243(5)
H16_5 H 0.3859 0.0907 0.4386
C20_5 C 0.4569(3) 0.0596(5) 0.4397(8)
C21_5 C 0.4728(2) 0.0094(4) 0.4066(5)
C24_5 C 0.4873(4) 0.1053(7) 0.4819(12)
H20_3 H 0.4831 0.1033 0.5432
H21_5 H 0.5245 0.1026 0.4675
H22_5 H 0.4735 0.1387 0.4615
O15_4 O 0.79043(19) 0.03512(18) 0.2851(3)
N3_4 N 0.11413(16) 0.0201(2) 0.3666(3)
N4_6 N 0.0950(2) 0.0637(3) 0.3257(5)
H16_6 H 0.1141 0.0907 0.3114
C20_6 C 0.0431(3) 0.0596(5) 0.3103(8)
C21_6 C 0.0272(2) 0.0094(4) 0.3434(5)
C24_6 C 0.0127(4) 0.1053(7) 0.2681(12)
H20_4 H 0.0169 0.1033 0.2068
H22_6 H 0.0265 0.1387 0.2885
C17_6 C 0.9268(2) 0.0113(3) 0.3795(4)
C18_6 C 0.9214(3) 0.0622(3) 0.4264(8)
H10_6 H 0.8986 0.0572 0.4753
H11_6 H 0.9559 0.0739 0.4453
H12_6 H 0.9061 0.0886 0.3890
H21_6 H 0.9755 0.1026 0.2825
O8_5 O 0.7645(2) 0.22650(19) 0.0202(3)
C32_5 C 0.7635(3) 0.1827(2) 0.0768(4)
C33_5 C 0.7142(3) 0.1714(3) 0.1117(4)
H27_5 H 0.6844 0.1914 0.0962
C34_5 C 0.7096(2) 0.1298(3) 0.1702(4)
H28_5 H 0.6763 0.1212 0.1930
C35_5 C 0.7540(3) 0.1011(2) 0.1945(3)
C36_5 C 0.8043(3) 0.1149(3) 0.1614(4)
H29_5 H 0.8348 0.0970 0.1794
C37_5 C 0.8075(3) 0.1556(3) 0.1016(4)
H30_5 H 0.8405 0.1644 0.0781
C38_6 C 0.7482(3) 0.0575(2) 0.2580(3)
O6_7 O 0.20271(15) 0.07754(16) 0.2955(2)
C25_7 C 0.2446(2) 0.0906(2) 0.2570(4)
C26_5 C 0.2392(2) 0.1292(2) 0.1843(4)
C27_5 C 0.1898(3) 0.1478(3) 0.1584(4)
H23_5 H 0.1595 0.1364 0.1878
C28_5 C 0.1840(3) 0.1824(3) 0.0904(4)
H24_5 H 0.1502 0.1940 0.0740
C29_5 C 0.2284(3) 0.1998(3) 0.0469(4)
C30_5 C 0.2784(2) 0.1834(3) 0.0717(4)
H25_5 H 0.3085 0.1954 0.0424
C31_5 C 0.2837(2) 0.1488(3) 0.1414(4)
H26_5 H 0.3176 0.1387 0.1595
H20_5 H 0.3967 0.9831 0.9568
Co4_2 Co 0.69480(2) 0.98377(3) 0.36399(4)
Co7_2 Co 0.80520(2) 0.98377(3) 0.38601(4)
O14_5 O 0.29730(18) 0.95638(18) 0.2797(3)
O15_5 O 0.29043(19) 0.96488(18) 0.4649(3)
O3_3 O 0.2645(2) 0.77350(19) 0.7298(3)
O4_3 O 0.20270(18) 0.95638(18) 0.4703(3)
C2_3 C 0.3708(2) 0.7608(2) 0.9343(4)
C3_3 C 0.3522(3) 0.8102(3) 0.9084(4)
H2_3 H 0.3636 0.8405 0.9378
C4_3 C 0.3176(3) 0.8160(3) 0.8404(4)
H3_3 H 0.3060 0.8498 0.8240
C5_3 C 0.3002(3) 0.7716(3) 0.7969(4)
C6_3 C 0.3166(3) 0.7216(2) 0.8217(4)
H4_3 H 0.3046 0.6915 0.7924
C7_3 C 0.3512(3) 0.7163(2) 0.8914(4)
H5_3 H 0.3613 0.6824 0.9095
C8_3 C 0.2635(3) 0.8173(2) 0.6732(4)
C9_3 C 0.2142(3) 0.8286(3) 0.6383(4)
H6_3 H 0.1844 0.8086 0.6538
C10_3 C 0.2096(2) 0.8702(3) 0.5798(4)
H7_3 H 0.1763 0.8788 0.5570
C11_3 C 0.2540(3) 0.8989(2) 0.5555(3)
C12_3 C 0.3043(3) 0.8851(3) 0.5886(4)
H8_3 H 0.3348 0.9030 0.5706
C13_3 C 0.3075(3) 0.8444(3) 0.6484(4)
H9_3 H 0.3405 0.8356 0.6719
C14_5 C 0.2482(3) 0.9425(2) 0.4920(3)
O6_8 O 0.70271(15) 0.92246(16) 0.4545(2)
O7_5 O 0.79043(15) 0.92750(19) 0.4769(3)
O8_6 O 0.72650(19) 0.7645(2) 0.7702(3)
C25_8 C 0.7446(2) 0.9094(2) 0.4930(4)
C26_6 C 0.7392(2) 0.8708(2) 0.5657(4)
C27_6 C 0.6898(3) 0.8522(3) 0.5916(4)
H23_6 H 0.6595 0.8636 0.5622
C28_6 C 0.6840(3) 0.8176(3) 0.6596(4)
H24_6 H 0.6502 0.8060 0.6760
C29_6 C 0.7284(3) 0.8002(3) 0.7031(4)
C30_6 C 0.7784(2) 0.8166(3) 0.6783(4)
H25_6 H 0.8085 0.8046 0.7076
C31_6 C 0.7837(2) 0.8512(3) 0.6086(4)
H26_6 H 0.8176 0.8613 0.5905
C32_6 C 0.6827(2) 0.7635(3) 0.8268(4)
C33_6 C 0.6714(3) 0.7142(3) 0.8617(4)
H27_6 H 0.6914 0.6844 0.8462
C34_6 C 0.6298(3) 0.7096(2) 0.9202(4)
H28_6 H 0.6212 0.6763 0.9430
C35_6 C 0.6011(2) 0.7540(3) 0.9445(3)
C36_6 C 0.6149(3) 0.8043(3) 0.9114(4)
H29_6 H 0.5970 0.8348 0.9294
C37_6 C 0.6556(3) 0.8075(3) 0.8516(4)
H30_6 H 0.6644 0.8405 0.8281
O12_5 O 0.70957(15) 0.92750(19) 0.2731(3)
N5_5 N 0.61413(16) 0.9799(2) 0.3834(3)
N2_5 N 0.5950(2) 0.9363(3) 0.4243(5)
H1_5 H 0.6141 0.9093 0.4386
C15_5 C 0.5431(3) 0.9404(5) 0.4397(8)
C16_5 C 0.5272(2) 0.9906(4) 0.4066(5)
C19_5 C 0.5127(4) 0.8947(7) 0.4819(12)
H13_4 H 0.5169 0.8967 0.5432
H14_5 H 0.4755 0.8974 0.4675
H15_5 H 0.5265 0.8613 0.4615
C22_5 C 0.4268(2) 0.9887(3) 0.3705(4)
C23_5 C 0.4214(3) 0.9378(3) 0.3236(8)
H17_5 H 0.3986 0.9428 0.2747
H18_5 H 0.4559 0.9261 0.3047
H19_5 H 0.4061 0.9114 0.3610
O3_4 O 0.2355(2) 0.77350(19) 0.0202(3)
O5_4 O 0.20957(19) 0.96488(18) 0.2851(3)
C8_4 C 0.2365(3) 0.8173(2) 0.0768(4)
C9_4 C 0.2858(3) 0.8286(3) 0.1117(4)
H6_4 H 0.3156 0.8086 0.0962
C10_4 C 0.2904(2) 0.8702(3) 0.1702(4)
H7_4 H 0.3237 0.8788 0.1930
C11_4 C 0.2460(3) 0.8989(2) 0.1945(3)
C12_4 C 0.1957(3) 0.8851(3) 0.1614(4)
H8_4 H 0.1652 0.9030 0.1794
C13_4 C 0.1925(3) 0.8444(3) 0.1016(4)
H9_4 H 0.1595 0.8356 0.0781
C14_6 C 0.2518(3) 0.9425(2) 0.2580(3)
O6_9 O 0.79729(15) 0.92246(16) 0.2955(2)
C25_9 C 0.7554(2) 0.9094(2) 0.2570(4)
C26_7 C 0.7608(2) 0.8708(2) 0.1843(4)
C27_7 C 0.8102(3) 0.8522(3) 0.1584(4)
H23_7 H 0.8405 0.8636 0.1878
C28_7 C 0.8160(3) 0.8176(3) 0.0904(4)
H24_7 H 0.8498 0.8060 0.0740
C29_7 C 0.7716(3) 0.8002(3) 0.0469(4)
C30_7 C 0.7216(2) 0.8166(3) 0.0717(4)
H25_7 H 0.6915 0.8046 0.0424
C31_7 C 0.7163(2) 0.8512(3) 0.1414(4)
H26_7 H 0.6824 0.8613 0.1595
N5_6 N 0.88587(16) 0.9799(2) 0.3666(3)
H14_6 H 0.0245 0.8974 0.2825
C22_6 C 0.0732(2) 0.9887(3) 0.3795(4)
C23_6 C 0.0786(3) 0.9378(3) 0.4264(8)
H17_6 H 0.1014 0.9428 0.4753
H18_6 H 0.0441 0.9261 0.4453
H19_6 H 0.0939 0.9114 0.3890
N2_6 N 0.9050(2) 0.9363(3) 0.3257(5)
H1_6 H 0.8859 0.9093 0.3114
C15_6 C 0.9569(3) 0.9404(5) 0.3103(8)
C16_6 C 0.9728(2) 0.9906(4) 0.3434(5)
C19_6 C 0.9873(4) 0.8947(7) 0.2681(12)
H13_5 H 0.9831 0.8967 0.2068
H15_6 H 0.9735 0.8613 0.2885
H14_7 H 0.1026 0.0245 0.7175
C22_7 C 0.0113(3) 0.0732(2) 0.6205(4)
C23_7 C 0.0622(3) 0.0786(3) 0.5736(8)
H17_7 H 0.0572 0.1014 0.5247
H18_7 H 0.0739 0.0441 0.5547
H19_7 H 0.0886 0.0939 0.6110
Co1_2 Co 0.01623(3) 0.80520(2) 0.61399(4)
O1_4 O 0.07754(16) 0.79729(15) 0.7045(2)
O2_2 O 0.07250(19) 0.70957(15) 0.7269(3)
N1_3 N 0.0201(2) 0.88587(16) 0.6334(3)
N2_7 N 0.0637(3) 0.9050(2) 0.6743(5)
H1_7 H 0.0907 0.8859 0.6886
C1_4 C 0.0906(2) 0.7554(2) 0.7430(4)
C2_4 C 0.1292(2) 0.7608(2) 0.8157(4)
C3_4 C 0.1478(3) 0.8102(3) 0.8416(4)
H2_4 H 0.1364 0.8405 0.8122
C4_4 C 0.1824(3) 0.8160(3) 0.9096(4)
H3_4 H 0.1940 0.8498 0.9260
C5_4 C 0.1998(3) 0.7716(3) 0.9531(4)
C6_4 C 0.1834(3) 0.7216(2) 0.9283(4)
H4_4 H 0.1954 0.6915 0.9576
C7_4 C 0.1488(3) 0.7163(2) 0.8586(4)
H5_4 H 0.1387 0.6824 0.8405
C15_7 C 0.0596(5) 0.9569(3) 0.6897(8)
C16_7 C 0.0094(4) 0.9728(2) 0.6566(5)
C19_7 C 0.1053(7) 0.9873(4) 0.7319(12)
H13_6 H 0.1033 0.9831 0.7932
H15_7 H 0.1387 0.9735 0.7115
Co5_2 Co 0.01623(3) 0.69480(2) 0.63601(4)
O11_2 O 0.07250(19) 0.79043(15) 0.5231(3)
O14_6 O 0.04362(18) 0.20270(18) 0.5297(3)
O15_6 O 0.03512(18) 0.20957(19) 0.7149(3)
O8_7 O 0.22650(19) 0.2355(2) 0.9798(3)
O9_4 O 0.04362(18) 0.29730(18) 0.7203(3)
C32_7 C 0.1827(2) 0.2365(3) 0.9232(4)
C33_7 C 0.1714(3) 0.2858(3) 0.8883(4)
H27_7 H 0.1914 0.3156 0.9038
C34_7 C 0.1298(3) 0.2904(2) 0.8298(4)
H28_7 H 0.1212 0.3237 0.8070
C35_7 C 0.1011(2) 0.2460(3) 0.8055(3)
C36_7 C 0.1149(3) 0.1957(3) 0.8386(4)
H29_7 H 0.0970 0.1652 0.8206
C37_7 C 0.1556(3) 0.1925(3) 0.8984(4)
H30_7 H 0.1644 0.1595 0.9219
C38_7 C 0.0575(2) 0.2518(3) 0.7420(3)
O1_5 O 0.07754(16) 0.70271(15) 0.5455(2)
O3_5 O 0.2355(2) 0.72650(19) 0.2298(3)
N1_4 N 0.0201(2) 0.61413(16) 0.6166(3)
N2_8 N 0.0637(3) 0.5950(2) 0.5757(5)
H1_8 H 0.0907 0.6141 0.5614
C1_5 C 0.0906(2) 0.7446(2) 0.5070(4)
C2_5 C 0.1292(2) 0.7392(2) 0.4343(4)
C3_5 C 0.1478(3) 0.6898(3) 0.4084(4)
H2_5 H 0.1364 0.6595 0.4378
C4_5 C 0.1824(3) 0.6840(3) 0.3404(4)
H3_5 H 0.1940 0.6502 0.3240
C5_5 C 0.1998(3) 0.7284(3) 0.2969(4)
C6_5 C 0.1834(3) 0.7784(2) 0.3217(4)
H4_5 H 0.1954 0.8085 0.2924
C7_5 C 0.1488(3) 0.7837(2) 0.3914(4)
H5_5 H 0.1387 0.8176 0.4095
C8_5 C 0.2365(3) 0.6827(2) 0.1732(4)
C9_5 C 0.2858(3) 0.6714(3) 0.1383(4)
H6_5 H 0.3156 0.6914 0.1538
C10_5 C 0.2904(2) 0.6298(3) 0.0798(4)
H7_5 H 0.3237 0.6212 0.0570
C11_5 C 0.2460(3) 0.6011(2) 0.0555(3)
C12_5 C 0.1957(3) 0.6149(3) 0.0886(4)
H8_5 H 0.1652 0.5970 0.0706
C13_5 C 0.1925(3) 0.6556(3) 0.1484(4)
H9_5 H 0.1595 0.6644 0.1719
C15_8 C 0.0596(5) 0.5431(3) 0.5603(8)
C16_8 C 0.0094(4) 0.5272(2) 0.5934(5)
C19_8 C 0.1053(7) 0.5127(4) 0.5181(12)
H13_7 H 0.1033 0.5169 0.4568
H14_8 H 0.1026 0.4755 0.5325
H15_8 H 0.1387 0.5265 0.5385
C22_8 C 0.0113(3) 0.4268(2) 0.6295(4)
C23_8 C 0.0622(3) 0.4214(3) 0.6764(8)
H17_8 H 0.0572 0.3986 0.7253
H18_8 H 0.0739 0.4559 0.6953
H19_8 H 0.0886 0.4061 0.6390
O8_8 O 0.22650(19) 0.2645(2) 0.2702(3)
O10_4 O 0.03512(18) 0.29043(19) 0.5351(3)
C26_8 C 0.2392(2) 0.3708(2) 0.0657(4)
C27_8 C 0.1898(3) 0.3522(3) 0.0916(4)
H23_8 H 0.1595 0.3636 0.0622
C28_8 C 0.1840(3) 0.3176(3) 0.1596(4)
H24_8 H 0.1502 0.3060 0.1760
C29_8 C 0.2284(3) 0.3002(3) 0.2031(4)
C30_8 C 0.2784(2) 0.3166(3) 0.1783(4)
H25_8 H 0.3085 0.3046 0.2076
C31_8 C 0.2837(2) 0.3512(3) 0.1086(4)
H26_8 H 0.3176 0.3613 0.0905
C32_8 C 0.1827(2) 0.2635(3) 0.3268(4)
C33_8 C 0.1714(3) 0.2142(3) 0.3617(4)
H27_8 H 0.1914 0.1844 0.3462
C34_8 C 0.1298(3) 0.2096(2) 0.4202(4)
H28_8 H 0.1212 0.1763 0.4430
C35_8 C 0.1011(2) 0.2540(3) 0.4445(3)
C36_8 C 0.1149(3) 0.3043(3) 0.4114(4)
H29_8 H 0.0970 0.3348 0.4294
C37_8 C 0.1556(3) 0.3075(3) 0.3516(4)
H30_8 H 0.1644 0.3405 0.3281
C38_8 C 0.0575(2) 0.2482(3) 0.5080(3)
H13_8 H 0.0169 0.3967 0.0432
N3_5 N 0.9799(2) 0.11413(16) 0.6334(3)
N4_7 N 0.9363(3) 0.0950(2) 0.6743(5)
H16_7 H 0.9093 0.1141 0.6886
C20_7 C 0.9404(5) 0.0431(3) 0.6897(8)
C21_7 C 0.9906(4) 0.0272(2) 0.6566(5)
C24_7 C 0.8947(7) 0.0127(4) 0.7319(12)
H20_6 H 0.8967 0.0169 0.7932
H22_7 H 0.8613 0.0265 0.7115
Co3_2 Co 0.98377(3) 0.19480(2) 0.61399(4)
C17_7 C 0.9887(3) 0.9268(2) 0.6205(4)
C18_7 C 0.9378(3) 0.9214(3) 0.5736(8)
H10_7 H 0.9428 0.8986 0.5247
H11_7 H 0.9261 0.9559 0.5547
H12_7 H 0.9114 0.9061 0.6110
H21_7 H 0.8974 0.9755 0.7175
O8_9 O 0.77350(19) 0.7645(2) 0.9798(3)
O9_5 O 0.95638(18) 0.70270(18) 0.7203(3)
O10_5 O 0.96488(18) 0.79043(19) 0.7149(3)
C32_9 C 0.8173(2) 0.7635(3) 0.9232(4)
C33_9 C 0.8286(3) 0.7142(3) 0.8883(4)
H27_9 H 0.8086 0.6844 0.9038
C34_9 C 0.8702(3) 0.7096(2) 0.8298(4)
H28_9 H 0.8788 0.6763 0.8070
C35_9 C 0.8989(2) 0.7540(3) 0.8055(3)
C36_9 C 0.8851(3) 0.8043(3) 0.8386(4)
H29_9 H 0.9030 0.8348 0.8206
C37_9 C 0.8444(3) 0.8075(3) 0.8984(4)
H30_9 H 0.8356 0.8405 0.9219
C38_9 C 0.9425(2) 0.7482(3) 0.7420(3)
O13_2 O 0.95638(18) 0.79730(18) 0.5297(3)
O6_10 O 0.92246(16) 0.20271(15) 0.7045(2)
O7_6 O 0.92750(19) 0.29043(15) 0.7269(3)
C25_10 C 0.9094(2) 0.2446(2) 0.7430(4)
C26_9 C 0.8708(2) 0.2392(2) 0.8157(4)
C27_9 C 0.8522(3) 0.1898(3) 0.8416(4)
H23_9 H 0.8636 0.1595 0.8122
C28_9 C 0.8176(3) 0.1840(3) 0.9096(4)
H24_9 H 0.8060 0.1502 0.9260
C29_9 C 0.8002(3) 0.2284(3) 0.9531(4)
C30_9 C 0.8166(3) 0.2784(2) 0.9283(4)
H25_9 H 0.8046 0.3085 0.9576
C31_9 C 0.8512(3) 0.2837(2) 0.8586(4)
H26_9 H 0.8613 0.3176 0.8405
Co6_4 Co 0.98377(3) 0.30520(2) 0.63601(4)
O12_6 O 0.92750(19) 0.20957(15) 0.5231(3)
C17_8 C 0.9887(3) 0.5732(2) 0.6295(4)
C18_8 C 0.9378(3) 0.5786(3) 0.6764(8)
H10_8 H 0.9428 0.6014 0.7253
H11_8 H 0.9261 0.5441 0.6953
H12_8 H 0.9114 0.5939 0.6390
N3_6 N 0.9799(2) 0.38587(16) 0.6166(3)
N4_8 N 0.9363(3) 0.4050(2) 0.5757(5)
H16_8 H 0.9093 0.3859 0.5614
C20_8 C 0.9404(5) 0.4569(3) 0.5603(8)
C21_8 C 0.9906(4) 0.4728(2) 0.5934(5)
C24_8 C 0.8947(7) 0.4873(4) 0.5181(12)
H20_7 H 0.8967 0.4831 0.4568
H21_8 H 0.8974 0.5245 0.5325
H22_8 H 0.8613 0.4735 0.5385
O8_10 O 0.77350(19) 0.7355(2) 0.2702(3)
O10_6 O 0.96488(18) 0.70957(19) 0.5351(3)
C26_10 C 0.7608(2) 0.6292(2) 0.0657(4)
C27_10 C 0.8102(3) 0.6478(3) 0.0916(4)
H23_10 H 0.8405 0.6364 0.0622
C28_10 C 0.8160(3) 0.6824(3) 0.1596(4)
H24_10 H 0.8498 0.6940 0.1760
C29_10 C 0.7716(3) 0.6998(3) 0.2031(4)
C30_10 C 0.7216(2) 0.6834(3) 0.1783(4)
H25_10 H 0.6915 0.6954 0.2076
C31_10 C 0.7163(2) 0.6488(3) 0.1086(4)
H26_10 H 0.6824 0.6387 0.0905
C32_10 C 0.8173(2) 0.7365(3) 0.3268(4)
C33_10 C 0.8286(3) 0.7858(3) 0.3617(4)
H27_10 H 0.8086 0.8156 0.3462
C34_10 C 0.8702(3) 0.7904(2) 0.4202(4)
H28_10 H 0.8788 0.8237 0.4430
C35_10 C 0.8989(2) 0.7460(3) 0.4445(3)
C36_10 C 0.8851(3) 0.6957(3) 0.4114(4)
H29_10 H 0.9030 0.6652 0.4294
C37_10 C 0.8444(3) 0.6925(3) 0.3516(4)
H30_10 H 0.8356 0.6595 0.3281
C38_10 C 0.9425(2) 0.7518(3) 0.5080(3)
O1_6 O 0.92246(16) 0.29729(15) 0.5455(2)
O3_6 O 0.7645(2) 0.27350(19) 0.2298(3)
C1_6 C 0.9094(2) 0.2554(2) 0.5070(4)
C2_6 C 0.8708(2) 0.2608(2) 0.4343(4)
C3_6 C 0.8522(3) 0.3102(3) 0.4084(4)
H2_6 H 0.8636 0.3405 0.4378
C4_6 C 0.8176(3) 0.3160(3) 0.3404(4)
H3_6 H 0.8060 0.3498 0.3240
C5_6 C 0.8002(3) 0.2716(3) 0.2969(4)
C6_6 C 0.8166(3) 0.2216(2) 0.3217(4)
H4_6 H 0.8046 0.1915 0.2924
C7_6 C 0.8512(3) 0.2163(2) 0.3914(4)
H5_6 H 0.8613 0.1824 0.4095
C8_6 C 0.7635(3) 0.3173(2) 0.1732(4)
C9_6 C 0.7142(3) 0.3286(3) 0.1383(4)
H6_6 H 0.6844 0.3086 0.1538
C10_6 C 0.7096(2) 0.3702(3) 0.0798(4)
H7_6 H 0.6763 0.3788 0.0570
C11_6 C 0.7540(3) 0.3989(2) 0.0555(3)
C12_6 C 0.8043(3) 0.3851(3) 0.0886(4)
H8_6 H 0.8348 0.4030 0.0706
C13_6 C 0.8075(3) 0.3444(3) 0.1484(4)
H9_6 H 0.8405 0.3356 0.1719
H20_8 H 0.9831 0.6033 0.0432
loop_
_geom_bond_atom_site_label_1
_geom_bond_atom_site_label_2
_geom_bond_site_symmetry_1
_geom_bond_site_symmetry_2
Co1 O1 1_555 1_555
O1 C1 1_555 1_555
O2 C1 1_555 1_555
O3 C5 1_555 1_555
O4 C14 1_555 1_555
O5 C14 1_555 1_555
N1 Co1 1_555 1_555
N2 N1 1_555 1_555
H1 N2 1_555 1_555
C1 C2 1_555 1_555
C2 C3 1_555 1_555
C3 H2 1_555 1_555
C4 C3 1_555 1_555
H3 C4 1_555 1_555
C5 C4 1_555 1_555
C6 C5 1_555 1_555
H4 C6 1_555 1_555
C7 C2 1_555 1_555
H5 C7 1_555 1_555
C8 O3 1_555 1_555
C9 C8 1_555 1_555
H6 C9 1_555 1_555
C10 C9 1_555 1_555
H7 C10 1_555 1_555
C11 C10 1_555 1_555
C12 C11 1_555 1_555
H8 C12 1_555 1_555
C13 C8 1_555 1_555
H9 C13 1_555 1_555
C14 C11 1_555 1_555
C15 N2 1_555 1_555
C16 C15 1_555 1_555
C17 N1 1_555 1_555
C18 C17 1_555 1_555
H10 C18 1_555 1_555
H11 C18 1_555 1_555
H12 C18 1_555 1_555
C19 C15 1_555 1_555
H13 C19 1_555 1_555
H14 C19 1_555 1_555
H15 C19 1_555 1_555
N3 N4 1_555 1_555
N4 H16 1_555 1_555
C20 N4 1_555 1_555
C21 C16 1_555 1_555
C22 N3 1_555 1_555
C23 C22 1_555 1_555
H17 C23 1_555 1_555
H18 C23 1_555 1_555
H19 C23 1_555 1_555
C24 C20 1_555 1_555
H20 C24 1_555 1_555
H21 C24 1_555 1_555
H22 C24 1_555 1_555
Co2 O6 1_555 1_555
O6 C25 1_555 1_555
O7 C25 1_555 1_555
O8 C29 1_555 1_555
O9 C38 1_555 1_555
O10 Co1 1_555 1_555
C25 C26 1_555 1_555
C26 C27 1_555 1_555
C27 H23 1_555 1_555
C28 C27 1_555 1_555
H24 C28 1_555 1_555
C29 C28 1_555 1_555
C30 C29 1_555 1_555
H25 C30 1_555 1_555
C31 C26 1_555 1_555
H26 C31 1_555 1_555
C32 O8 1_555 1_555
C33 C32 1_555 1_555
H27 C33 1_555 1_555
C34 C33 1_555 1_555
H28 C34 1_555 1_555
C35 C34 1_555 1_555
C36 C35 1_555 1_555
H29 C36 1_555 1_555
C37 C32 1_555 1_555
H30 C37 1_555 1_555
C38 O10 1_555 1_555
Co3 N3 1_555 1_555
Co4 O5 1_555 1_555
Co5 Co1 1_555 1_555
Co6 Co2 1_555 1_555
Co7 O4 1_555 1_555
O11 Co1 1_555 1_555
O12 Co2 1_555 1_555
O13 Co1 1_555 1_555
O14 Co2 1_555 1_555
O15 Co2 1_555 1_555
N5 Co2 1_555 1_555
O2 Co5 1_555 1_555
C6 C7 1_555 1_555
C12 C13 1_555 1_555
C16 C17 1_555 1_555
C20 C21 1_555 1_555
C21 C22 1_555 1_555
O7 Co6 1_555 1_555
O9 Co5 1_555 1_555
C30 C31 1_555 1_555
C35 C38 1_555 1_555
C36 C37 1_555 1_555
Co4 Co7 1_555 1_555
N2_2 N5 1_555 1_555
H1_2 N2_2 1_555 1_555
C15_2 N2_2 1_555 1_555
C16_2 C15_2 1_555 1_555
C17_2 N5 1_555 1_555
C18_2 C17_2 1_555 1_555
H10_2 C18_2 1_555 1_555
H11_2 C18_2 1_555 1_555
H12_2 C18_2 1_555 1_555
C19_2 C15_2 1_555 1_555
H13_2 C19_2 1_555 1_555
H14_2 C19_2 1_555 1_555
H15_2 C19_2 1_555 1_555
N3_2 N4_2 1_555 1_555
N4_2 H16_2 1_555 1_555
C20_2 N4_2 1_555 1_555
C21_2 C16_2 1_555 1_555
C22_2 N3_2 1_555 1_555
C23_2 C22_2 1_555 1_555
H17_2 C23_2 1_555 1_555
H18_2 C23_2 1_555 1_555
H19_2 C23_2 1_555 1_555
C24_2 C20_2 1_555 1_555
H20_2 C24_2 1_555 1_555
H21_2 C24_2 1_555 1_555
H22_2 C24_2 1_555 1_555
Co3 O6_2 1_555 1_555
O6_2 C25_2 1_555 1_555
O7_2 C25_2 1_555 1_555
O8_2 C29_2 1_555 1_555
O9_2 C38_2 1_555 1_555
C25_2 C26_2 1_555 1_555
C26_2 C27_2 1_555 1_555
C27_2 H23_2 1_555 1_555
C28_2 C27_2 1_555 1_555
H24_2 C28_2 1_555 1_555
C29_2 C28_2 1_555 1_555
C30_2 C29_2 1_555 1_555
H25_2 C30_2 1_555 1_555
C31_2 C26_2 1_555 1_555
H26_2 C31_2 1_555 1_555
C32_2 O8_2 1_555 1_555
C33_2 C32_2 1_555 1_555
H27_2 C33_2 1_555 1_555
C34_2 C33_2 1_555 1_555
H28_2 C34_2 1_555 1_555
C35_2 C34_2 1_555 1_555
C36_2 C35_2 1_555 1_555
H29_2 C36_2 1_555 1_555
C37_2 C32_2 1_555 1_555
H30_2 C37_2 1_555 1_555
C38_2 O15 1_555 1_555
Co4 N3_2 1_555 1_555
Co6_2 Co3 1_555 1_555
O12_2 Co3 1_555 1_555
O14_2 Co3 1_555 1_555
O15_2 Co3 1_555 1_555
C16_2 C17_2 1_555 1_555
C20_2 C21_2 1_555 1_555
C21_2 C22_2 1_555 1_555
O7_2 Co6_2 1_555 1_555
O9_2 Co6 1_555 1_555
C30_2 C31_2 1_555 1_555
C35_2 C38_2 1_555 1_555
C36_2 C37_2 1_555 1_555
Co4 O6_3 1_555 1_555
O6_3 C25_3 1_555 1_555
O7_3 C25_3 1_555 1_555
O8_3 C29_3 1_555 1_555
O9_3 C38_3 1_555 1_555
C25_3 C26_3 1_555 1_555
C26_3 C27_3 1_555 1_555
C27_3 H23_3 1_555 1_555
C28_3 C27_3 1_555 1_555
H24_3 C28_3 1_555 1_555
C29_3 C28_3 1_555 1_555
C30_3 C29_3 1_555 1_555
H25_3 C30_3 1_555 1_555
C31_3 C26_3 1_555 1_555
H26_3 C31_3 1_555 1_555
C32_3 O8_3 1_555 1_555
C33_3 C32_3 1_555 1_555
H27_3 C33_3 1_555 1_555
C34_3 C33_3 1_555 1_555
H28_3 C34_3 1_555 1_555
C35_3 C34_3 1_555 1_555
C36_3 C35_3 1_555 1_555
H29_3 C36_3 1_555 1_555
C37_3 C32_3 1_555 1_555
H30_3 C37_3 1_555 1_555
C38_3 O15_2 1_555 1_555
O12_3 Co4 1_555 1_555
O14_3 Co4 1_555 1_555
O7_3 Co7 1_555 1_555
O9_3 Co6_2 1_555 1_555
C30_3 C31_3 1_555 1_555
C35_3 C38_3 1_555 1_555
C36_3 C37_3 1_555 1_555
Co5 O1_2 1_555 1_555
O1_2 C1_2 1_555 1_555
O11 C1_2 1_555 1_555
N1_2 Co5 1_555 1_555
N2_3 N1_2 1_555 1_555
H1_3 N2_3 1_555 1_555
C15_3 N2_3 1_555 1_555
C16_3 C15_3 1_555 1_555
C17_3 N1_2 1_555 1_555
C18_3 C17_3 1_555 1_555
H10_3 C18_3 1_555 1_555
H11_3 C18_3 1_555 1_555
H12_3 C18_3 1_555 1_555
C19_3 C15_3 1_555 1_555
H15_3 C19_3 1_555 1_555
O13 C38_4 1_555 1_555
O10_2 Co5 1_555 1_555
C38_4 O10_2 1_555 1_555
C16_3 C17_3 1_555 1_555
N3_3 N4_3 1_555 1_555
N4_3 H16_3 1_555 1_555
C20_3 N4_3 1_555 1_555
C22_3 N3_3 1_555 1_555
C23_3 C22_3 1_555 1_555
H17_3 C23_3 1_555 1_555
H18_3 C23_3 1_555 1_555
H19_3 C23_3 1_555 1_555
C24_3 C20_3 1_555 1_555
H22_3 C24_3 1_555 1_555
Co6_2 N3_3 1_555 1_555
C20_3 C21_3 1_555 1_555
C21_3 C22_3 1_555 1_555
Co6_2 O1_3 1_555 1_555
O1_3 C1_3 1_555 1_555
O12_2 C1_3 1_555 1_555
O14_2 C38_5 1_555 1_555
O10_3 Co6_2 1_555 1_555
C38_5 O10_3 1_555 1_555
O14 C14_2 1_555 1_555
O5_2 C14_2 1_555 1_555
Co6 O5_2 1_555 1_555
Co7 O6_4 1_555 1_555
O6_4 C25_4 1_555 1_555
O12_3 C25_4 1_555 1_555
O15_3 Co7 1_555 1_555
N5_2 Co7 1_555 1_555
Co6 O6_5 1_555 1_555
O6_5 C25_5 1_555 1_555
O12 C25_5 1_555 1_555
N5_3 Co6 1_555 1_555
O14_3 C14_3 1_555 1_555
O15_3 C14_3 1_555 1_555
N2_4 N5_3 1_555 1_555
H1_4 N2_4 1_555 1_555
C15_4 N2_4 1_555 1_555
C16_4 C15_4 1_555 1_555
C17_4 N5_3 1_555 1_555
C18_4 C17_4 1_555 1_555
H10_4 C18_4 1_555 1_555
H11_4 C18_4 1_555 1_555
H12_4 C18_4 1_555 1_555
C19_4 C15_4 1_555 1_555
H15_4 C19_4 1_555 1_555
C16_4 C17_4 1_555 1_555
N5_2 N4_4 1_555 1_555
N4_4 H16_4 1_555 1_555
C20_4 N4_4 1_555 1_555
C22_4 N5_2 1_555 1_555
C23_4 C22_4 1_555 1_555
H17_4 C23_4 1_555 1_555
H18_4 C23_4 1_555 1_555
H19_4 C23_4 1_555 1_555
C24_4 C20_4 1_555 1_555
H22_4 C24_4 1_555 1_555
C20_4 C21_4 1_555 1_555
C21_4 C22_4 1_555 1_555
O3_2 C5_2 1_555 1_555
O4_2 C14_4 1_555 1_555
O5_3 C14_4 1_555 1_555
C2_2 C3_2 1_555 1_555
C3_2 H2_2 1_555 1_555
C4_2 C3_2 1_555 1_555
H3_2 C4_2 1_555 1_555
C5_2 C4_2 1_555 1_555
C6_2 C5_2 1_555 1_555
H4_2 C6_2 1_555 1_555
C7_2 C2_2 1_555 1_555
H5_2 C7_2 1_555 1_555
C8_2 O3_2 1_555 1_555
C9_2 C8_2 1_555 1_555
H6_2 C9_2 1_555 1_555
C10_2 C9_2 1_555 1_555
H7_2 C10_2 1_555 1_555
C11_2 C10_2 1_555 1_555
C12_2 C11_2 1_555 1_555
H8_2 C12_2 1_555 1_555
C13_2 C8_2 1_555 1_555
H9_2 C13_2 1_555 1_555
C14_4 C11_2 1_555 1_555
Co2_2 O6_6 1_555 1_555
O6_6 C25_6 1_555 1_555
O7_4 C25_6 1_555 1_555
O8_4 C29_4 1_555 1_555
C25_6 C26_4 1_555 1_555
C26_4 C27_4 1_555 1_555
C27_4 H23_4 1_555 1_555
C28_4 C27_4 1_555 1_555
H24_4 C28_4 1_555 1_555
C29_4 C28_4 1_555 1_555
C30_4 C29_4 1_555 1_555
H25_4 C30_4 1_555 1_555
C31_4 C26_4 1_555 1_555
H26_4 C31_4 1_555 1_555
C32_4 O8_4 1_555 1_555
C33_4 C32_4 1_555 1_555
H27_4 C33_4 1_555 1_555
C34_4 C33_4 1_555 1_555
H28_4 C34_4 1_555 1_555
C35_4 C34_4 1_555 1_555
C36_4 C35_4 1_555 1_555
H29_4 C36_4 1_555 1_555
C37_4 C32_4 1_555 1_555
H30_4 C37_4 1_555 1_555
Co6_3 Co2_2 1_555 1_555
O12_4 Co2_2 1_555 1_555
N5_4 Co2_2 1_555 1_555
C6_2 C7_2 1_555 1_555
C12_2 C13_2 1_555 1_555
O7_4 Co6_3 1_555 1_555
C30_4 C31_4 1_555 1_555
C36_4 C37_4 1_555 1_555
C18_5 C17_5 1_555 1_555
H10_5 C18_5 1_555 1_555
H11_5 C18_5 1_555 1_555
H12_5 C18_5 1_555 1_555
N5_4 N4_5 1_555 1_555
N4_5 H16_5 1_555 1_555
C20_5 N4_5 1_555 1_555
C24_5 C20_5 1_555 1_555
H20_3 C24_5 1_555 1_555
H21_5 C24_5 1_555 1_555
H22_5 C24_5 1_555 1_555
C20_5 C21_5 1_555 1_555
N3_4 N4_6 1_555 1_555
N4_6 H16_6 1_555 1_555
C20_6 N4_6 1_555 1_555
C24_6 C20_6 1_555 1_555
H20_4 C24_6 1_555 1_555
H22_6 C24_6 1_555 1_555
Co6_3 N3_4 1_555 1_555
C20_6 C21_6 1_555 1_555
C18_6 C17_6 1_555 1_555
H10_6 C18_6 1_555 1_555
H11_6 C18_6 1_555 1_555
H12_6 C18_6 1_555 1_555
O14_4 C38_6 1_555 1_555
C32_5 O8_5 1_555 1_555
C33_5 C32_5 1_555 1_555
H27_5 C33_5 1_555 1_555
C34_5 C33_5 1_555 1_555
H28_5 C34_5 1_555 1_555
C35_5 C34_5 1_555 1_555
C36_5 C35_5 1_555 1_555
H29_5 C36_5 1_555 1_555
C37_5 C32_5 1_555 1_555
H30_5 C37_5 1_555 1_555
C38_6 O15_4 1_555 1_555
C35_5 C38_6 1_555 1_555
C36_5 C37_5 1_555 1_555
Co6_3 O6_7 1_555 1_555
O6_7 C25_7 1_555 1_555
O12_4 C25_7 1_555 1_555
C25_7 C26_5 1_555 1_555
C26_5 C27_5 1_555 1_555
C27_5 H23_5 1_555 1_555
C28_5 C27_5 1_555 1_555
H24_5 C28_5 1_555 1_555
C29_5 C28_5 1_555 1_555
C30_5 C29_5 1_555 1_555
H25_5 C30_5 1_555 1_555
C31_5 C26_5 1_555 1_555
H26_5 C31_5 1_555 1_555
C30_5 C31_5 1_555 1_555
Co4_2 Co7_2 1_555 1_555
O3_3 C5_3 1_555 1_555
O4_3 C14_5 1_555 1_555
O15_5 C14_5 1_555 1_555
C2_3 C3_3 1_555 1_555
C3_3 H2_3 1_555 1_555
C4_3 C3_3 1_555 1_555
H3_3 C4_3 1_555 1_555
C5_3 C4_3 1_555 1_555
C6_3 C5_3 1_555 1_555
H4_3 C6_3 1_555 1_555
C7_3 C2_3 1_555 1_555
H5_3 C7_3 1_555 1_555
C8_3 O3_3 1_555 1_555
C9_3 C8_3 1_555 1_555
H6_3 C9_3 1_555 1_555
C10_3 C9_3 1_555 1_555
H7_3 C10_3 1_555 1_555
C11_3 C10_3 1_555 1_555
C12_3 C11_3 1_555 1_555
H8_3 C12_3 1_555 1_555
C13_3 C8_3 1_555 1_555
H9_3 C13_3 1_555 1_555
C14_5 C11_3 1_555 1_555
Co4_2 O6_8 1_555 1_555
O6_8 C25_8 1_555 1_555
O7_5 C25_8 1_555 1_555
O8_6 C29_6 1_555 1_555
C25_8 C26_6 1_555 1_555
C26_6 C27_6 1_555 1_555
C27_6 H23_6 1_555 1_555
C28_6 C27_6 1_555 1_555
H24_6 C28_6 1_555 1_555
C29_6 C28_6 1_555 1_555
C30_6 C29_6 1_555 1_555
H25_6 C30_6 1_555 1_555
C31_6 C26_6 1_555 1_555
H26_6 C31_6 1_555 1_555
C32_6 O8_6 1_555 1_555
C33_6 C32_6 1_555 1_555
H27_6 C33_6 1_555 1_555
C34_6 C33_6 1_555 1_555
H28_6 C34_6 1_555 1_555
C35_6 C34_6 1_555 1_555
C36_6 C35_6 1_555 1_555
H29_6 C36_6 1_555 1_555
C37_6 C32_6 1_555 1_555
H30_6 C37_6 1_555 1_555
O12_5 Co4_2 1_555 1_555
N5_5 Co4_2 1_555 1_555
C6_3 C7_3 1_555 1_555
C12_3 C13_3 1_555 1_555
O7_5 Co7_2 1_555 1_555
C30_6 C31_6 1_555 1_555
C36_6 C37_6 1_555 1_555
N2_5 N5_5 1_555 1_555
H1_5 N2_5 1_555 1_555
C15_5 N2_5 1_555 1_555
C16_5 C15_5 1_555 1_555
C19_5 C15_5 1_555 1_555
H13_4 C19_5 1_555 1_555
H14_5 C19_5 1_555 1_555
H15_5 C19_5 1_555 1_555
C23_5 C22_5 1_555 1_555
H17_5 C23_5 1_555 1_555
H18_5 C23_5 1_555 1_555
H19_5 C23_5 1_555 1_555
O14_5 C14_6 1_555 1_555
O5_4 C14_6 1_555 1_555
C8_4 O3_4 1_555 1_555
C9_4 C8_4 1_555 1_555
H6_4 C9_4 1_555 1_555
C10_4 C9_4 1_555 1_555
H7_4 C10_4 1_555 1_555
C11_4 C10_4 1_555 1_555
C12_4 C11_4 1_555 1_555
H8_4 C12_4 1_555 1_555
C13_4 C8_4 1_555 1_555
H9_4 C13_4 1_555 1_555
C14_6 C11_4 1_555 1_555
C12_4 C13_4 1_555 1_555
Co7_2 O6_9 1_555 1_555
O6_9 C25_9 1_555 1_555
O12_5 C25_9 1_555 1_555
C25_9 C26_7 1_555 1_555
C26_7 C27_7 1_555 1_555
C27_7 H23_7 1_555 1_555
C28_7 C27_7 1_555 1_555
H24_7 C28_7 1_555 1_555
C29_7 C28_7 1_555 1_555
C30_7 C29_7 1_555 1_555
H25_7 C30_7 1_555 1_555
C31_7 C26_7 1_555 1_555
H26_7 C31_7 1_555 1_555
N5_6 Co7_2 1_555 1_555
C30_7 C31_7 1_555 1_555
C23_6 C22_6 1_555 1_555
H17_6 C23_6 1_555 1_555
H18_6 C23_6 1_555 1_555
H19_6 C23_6 1_555 1_555
N2_6 N5_6 1_555 1_555
H1_6 N2_6 1_555 1_555
C15_6 N2_6 1_555 1_555
C16_6 C15_6 1_555 1_555
C19_6 C15_6 1_555 1_555
H13_5 C19_6 1_555 1_555
H15_6 C19_6 1_555 1_555
C23_7 C22_7 1_555 1_555
H17_7 C23_7 1_555 1_555
H18_7 C23_7 1_555 1_555
H19_7 C23_7 1_555 1_555
Co1_2 O1_4 1_555 1_555
O1_4 C1_4 1_555 1_555
O2_2 C1_4 1_555 1_555
N1_3 Co1_2 1_555 1_555
N2_7 N1_3 1_555 1_555
H1_7 N2_7 1_555 1_555
C1_4 C2_4 1_555 1_555
C2_4 C3_4 1_555 1_555
C3_4 H2_4 1_555 1_555
C4_4 C3_4 1_555 1_555
H3_4 C4_4 1_555 1_555
C5_4 C4_4 1_555 1_555
C6_4 C5_4 1_555 1_555
H4_4 C6_4 1_555 1_555
C7_4 C2_4 1_555 1_555
H5_4 C7_4 1_555 1_555
C15_7 N2_7 1_555 1_555
C16_7 C15_7 1_555 1_555
C19_7 C15_7 1_555 1_555
H13_6 C19_7 1_555 1_555
H15_7 C19_7 1_555 1_555
Co5_2 Co1_2 1_555 1_555
O11_2 Co1_2 1_555 1_555
O2_2 Co5_2 1_555 1_555
C6_4 C7_4 1_555 1_555
O9_4 C38_7 1_555 1_555
C32_7 O8_7 1_555 1_555
C33_7 C32_7 1_555 1_555
H27_7 C33_7 1_555 1_555
C34_7 C33_7 1_555 1_555
H28_7 C34_7 1_555 1_555
C35_7 C34_7 1_555 1_555
C36_7 C35_7 1_555 1_555
H29_7 C36_7 1_555 1_555
C37_7 C32_7 1_555 1_555
H30_7 C37_7 1_555 1_555
C38_7 O15_6 1_555 1_555
C35_7 C38_7 1_555 1_555
C36_7 C37_7 1_555 1_555
Co5_2 O1_5 1_555 1_555
O1_5 C1_5 1_555 1_555
O11_2 C1_5 1_555 1_555
O3_5 C5_5 1_555 1_555
N1_4 Co5_2 1_555 1_555
N2_8 N1_4 1_555 1_555
H1_8 N2_8 1_555 1_555
C1_5 C2_5 1_555 1_555
C2_5 C3_5 1_555 1_555
C3_5 H2_5 1_555 1_555
C4_5 C3_5 1_555 1_555
H3_5 C4_5 1_555 1_555
C5_5 C4_5 1_555 1_555
C6_5 C5_5 1_555 1_555
H4_5 C6_5 1_555 1_555
C7_5 C2_5 1_555 1_555
H5_5 C7_5 1_555 1_555
C8_5 O3_5 1_555 1_555
C9_5 C8_5 1_555 1_555
H6_5 C9_5 1_555 1_555
C10_5 C9_5 1_555 1_555
H7_5 C10_5 1_555 1_555
C11_5 C10_5 1_555 1_555
C12_5 C11_5 1_555 1_555
H8_5 C12_5 1_555 1_555
C13_5 C8_5 1_555 1_555
H9_5 C13_5 1_555 1_555
C15_8 N2_8 1_555 1_555
C16_8 C15_8 1_555 1_555
C19_8 C15_8 1_555 1_555
H13_7 C19_8 1_555 1_555
H14_8 C19_8 1_555 1_555
H15_8 C19_8 1_555 1_555
C23_8 C22_8 1_555 1_555
H17_8 C23_8 1_555 1_555
H18_8 C23_8 1_555 1_555
H19_8 C23_8 1_555 1_555
C6_5 C7_5 1_555 1_555
C12_5 C13_5 1_555 1_555
O8_8 C29_8 1_555 1_555
O14_6 C38_8 1_555 1_555
C26_8 C27_8 1_555 1_555
C27_8 H23_8 1_555 1_555
C28_8 C27_8 1_555 1_555
H24_8 C28_8 1_555 1_555
C29_8 C28_8 1_555 1_555
C30_8 C29_8 1_555 1_555
H25_8 C30_8 1_555 1_555
C31_8 C26_8 1_555 1_555
H26_8 C31_8 1_555 1_555
C32_8 O8_8 1_555 1_555
C33_8 C32_8 1_555 1_555
H27_8 C33_8 1_555 1_555
C34_8 C33_8 1_555 1_555
H28_8 C34_8 1_555 1_555
C35_8 C34_8 1_555 1_555
C36_8 C35_8 1_555 1_555
H29_8 C36_8 1_555 1_555
C37_8 C32_8 1_555 1_555
H30_8 C37_8 1_555 1_555
C38_8 O10_4 1_555 1_555
C30_8 C31_8 1_555 1_555
C35_8 C38_8 1_555 1_555
C36_8 C37_8 1_555 1_555
N3_5 N4_7 1_555 1_555
N4_7 H16_7 1_555 1_555
C20_7 N4_7 1_555 1_555
C24_7 C20_7 1_555 1_555
H20_6 C24_7 1_555 1_555
H22_7 C24_7 1_555 1_555
Co3_2 N3_5 1_555 1_555
C20_7 C21_7 1_555 1_555
C18_7 C17_7 1_555 1_555
H10_7 C18_7 1_555 1_555
H11_7 C18_7 1_555 1_555
H12_7 C18_7 1_555 1_555
O9_5 C38_9 1_555 1_555
C32_9 O8_9 1_555 1_555
C33_9 C32_9 1_555 1_555
H27_9 C33_9 1_555 1_555
C34_9 C33_9 1_555 1_555
H28_9 C34_9 1_555 1_555
C35_9 C34_9 1_555 1_555
C36_9 C35_9 1_555 1_555
H29_9 C36_9 1_555 1_555
C37_9 C32_9 1_555 1_555
H30_9 C37_9 1_555 1_555
C38_9 O10_5 1_555 1_555
C35_9 C38_9 1_555 1_555
C36_9 C37_9 1_555 1_555
Co3_2 O6_10 1_555 1_555
O6_10 C25_10 1_555 1_555
O7_6 C25_10 1_555 1_555
C25_10 C26_9 1_555 1_555
C26_9 C27_9 1_555 1_555
C27_9 H23_9 1_555 1_555
C28_9 C27_9 1_555 1_555
H24_9 C28_9 1_555 1_555
C29_9 C28_9 1_555 1_555
C30_9 C29_9 1_555 1_555
H25_9 C30_9 1_555 1_555
C31_9 C26_9 1_555 1_555
H26_9 C31_9 1_555 1_555
Co6_4 Co3_2 1_555 1_555
O12_6 Co3_2 1_555 1_555
O7_6 Co6_4 1_555 1_555
C30_9 C31_9 1_555 1_555
C18_8 C17_8 1_555 1_555
H10_8 C18_8 1_555 1_555
H11_8 C18_8 1_555 1_555
H12_8 C18_8 1_555 1_555
N3_6 N4_8 1_555 1_555
N4_8 H16_8 1_555 1_555
C20_8 N4_8 1_555 1_555
C24_8 C20_8 1_555 1_555
H20_7 C24_8 1_555 1_555
H21_8 C24_8 1_555 1_555
H22_8 C24_8 1_555 1_555
O8_10 C29_10 1_555 1_555
O13_2 C38_10 1_555 1_555
C26_10 C27_10 1_555 1_555
C27_10 H23_10 1_555 1_555
C28_10 C27_10 1_555 1_555
H24_10 C28_10 1_555 1_555
C29_10 C28_10 1_555 1_555
C30_10 C29_10 1_555 1_555
H25_10 C30_10 1_555 1_555
C31_10 C26_10 1_555 1_555
H26_10 C31_10 1_555 1_555
C32_10 O8_10 1_555 1_555
C33_10 C32_10 1_555 1_555
H27_10 C33_10 1_555 1_555
C34_10 C33_10 1_555 1_555
H28_10 C34_10 1_555 1_555
C35_10 C34_10 1_555 1_555
C36_10 C35_10 1_555 1_555
H29_10 C36_10 1_555 1_555
C37_10 C32_10 1_555 1_555
H30_10 C37_10 1_555 1_555
C38_10 O10_6 1_555 1_555
Co6_4 N3_6 1_555 1_555
C20_8 C21_8 1_555 1_555
C30_10 C31_10 1_555 1_555
C35_10 C38_10 1_555 1_555
C36_10 C37_10 1_555 1_555
Co6_4 O1_6 1_555 1_555
O1_6 C1_6 1_555 1_555
O12_6 C1_6 1_555 1_555
O3_6 C5_6 1_555 1_555
C1_6 C2_6 1_555 1_555
C2_6 C3_6 1_555 1_555
C3_6 H2_6 1_555 1_555
C4_6 C3_6 1_555 1_555
H3_6 C4_6 1_555 1_555
C5_6 C4_6 1_555 1_555
C6_6 C5_6 1_555 1_555
H4_6 C6_6 1_555 1_555
C7_6 C2_6 1_555 1_555
H5_6 C7_6 1_555 1_555
C8_6 O3_6 1_555 1_555
C9_6 C8_6 1_555 1_555
H6_6 C9_6 1_555 1_555
C10_6 C9_6 1_555 1_555
H7_6 C10_6 1_555 1_555
C11_6 C10_6 1_555 1_555
C12_6 C11_6 1_555 1_555
H8_6 C12_6 1_555 1_555
C13_6 C8_6 1_555 1_555
H9_6 C13_6 1_555 1_555
C6_6 C7_6 1_555 1_555
C12_6 C13_6 1_555 1_555

#END
