
###############################################################################
#
# This file contains modified crystal structure data generated from the
# MOF subset of the Cambridge Structural Database (CSD) v543 
# hosted by the Cambridge Crystallographic Data Centre (CCDC).
#
# This work is licensed under the Creative Commons
# Attribution-NonCommercial-ShareAlike 4.0 International License.
# To view a copy of this license, visit
# http://creativecommons.org/licenses/by-nc-sa/4.0/
# or send a letter to
# Creative Commons, PO Box 1866, Mountain View, CA 94042, USA.
#
# CIF created using the CSD Python API on 29 September 2022
# The structure has been converted into the P1 space group
# The structure has a 3D framework
# The original CSD entry OKOJAC is in the monoclinic crystal system
# The framework has been calculated to contain at least 10.0% void space
# The void calculation uses a probe of radius 1.32A, grid spacing 0.4
#
###############################################################################

data_OKOJAC
_chemical_formula_moiety         '(C240 H176 Cd18 N52 O56)n'
_symmetry_cell_setting           triclinic
_symmetry_space_group_name_H-M   'P 1'
_symmetry_Int_Tables_number      1
_space_group_name_Hall           'P 1'
loop_
_symmetry_equiv_pos_site_id
_symmetry_equiv_pos_as_xyz
1 x,y,z
_cell_length_a                   41.129(8)
_cell_length_b                   11.649(2)
_cell_length_c                   16.487(3)
_cell_angle_alpha                90
_cell_angle_beta                 100.533(7)
_cell_angle_gamma                90
_cell_volume                     7766.01
loop_
_atom_site_label
_atom_site_type_symbol
_atom_site_fract_x
_atom_site_fract_y
_atom_site_fract_z
Cd1 Cd 0.223592(16) 0.27300(5) 0.08730(4)
Cd2 Cd 0.000 0.500 0.500
N1 N 0.2217(2) 0.0754(7) 0.0856(5)
O2 O 0.1665(2) 0.2924(7) 0.0917(5)
O4 O 0.2014(2) 0.2905(8) 0.2127(5)
C3 C 0.2037(3) 0.0170(10) 0.0213(7)
C6 C 0.1730(3) 0.2982(10) 0.1725(7)
C8 C 0.1445(3) 0.3085(12) 0.2178(8)
C9 C 0.2386(4) 0.0142(10) 0.1468(7)
H6 H 0.2505(4) 0.0535(10) 0.1917(7)
C12 C 0.1122(3) 0.2747(15) 0.1774(9)
H9 H 0.1089(3) 0.2457(15) 0.1239(9)
C13 C 0.1219(3) 0.3639(16) 0.3369(9)
H10 H 0.1249(3) 0.3928(16) 0.3903(9)
C14 C 0.1487(3) 0.3525(14) 0.2949(8)
H11 H 0.1696(3) 0.3758(14) 0.3208(8)
C16 C 0.0858(3) 0.2853(16) 0.2183(9)
H12 H 0.0647(3) 0.2620(16) 0.1934(9)
C17 C 0.0915(3) 0.3311(18) 0.2963(9)
N4 N 0.0294(3) 0.403(2) 0.4140(9)
N6 N 0.0640(3) 0.3443(17) 0.3369(9)
C26 C 0.0367(4) 0.274(2) 0.3140(14)
H18 H 0.0334(4) 0.219(2) 0.2725(14)
C27 C 0.0598(5) 0.416(2) 0.3967(9)
H19 H 0.0756(5) 0.467(2) 0.4228(9)
C29 C 0.0164(5) 0.303(4) 0.3645(16)
O5 O 0.0432(7) 0.639(4) 0.504(3)
N7 N 0.0448(14) 0.731(5) 0.494(3)
O6 O 0.0712(13) 0.784(6) 0.481(4)
O7 O 0.0200(11) 0.761(4) 0.474(5)
N15 N 0.2249(2) 0.4678(7) 0.0748(5)
O16 O 0.27322(18) 0.2615(6) 0.1770(5)
O18 O 0.2864(2) 0.2420(7) 0.0545(5)
N18 N 0.0354(3) 0.437(3) 0.6149(9)
O1 O 0.22678(18) 0.2385(6) 0.8230(5)
O3 O 0.2136(2) 0.2580(7) 0.9455(5)
C2 C 0.1663(3) 0.3166(14) 0.7427(7)
H1 H 0.1834(3) 0.3076(14) 0.7133(7)
H2 H 0.1912(3) 0.0579(10) 0.9782(7)
C11 C 0.1460(3) 0.2948(11) 0.8693(7)
H8 H 0.1498(3) 0.2778(11) 0.9253(7)
C15 C 0.1720(2) 0.2949(7) 0.8270(6)
C18 C 0.1101(4) 0.3499(19) 0.7475(9)
C19 C 0.1353(3) 0.3515(16) 0.7016(8)
H13 H 0.1316(3) 0.3746(16) 0.6467(8)
N3 N 0.0772(3) 0.3762(19) 0.7065(8)
C20 C 0.1144(3) 0.3199(15) 0.8288(8)
H14 H 0.0966(3) 0.3164(15) 0.8561(8)
C23 C 0.2064(3) 0.2601(8) 0.8690(6)
C25 C 0.0669(4) 0.424(3) 0.6337(10)
H17 H 0.0813(4) 0.447(3) 0.5992(10)
C28 C 0.0512(4) 0.376(4) 0.7399(9)
H20 H 0.0508(4) 0.366(4) 0.7957(9)
C30 C 0.0255(5) 0.392(5) 0.6820(16)
H22 H 0.0038(5) 0.376(5) 0.6862(16)
H43 H 0.0033(5) 0.735(4) 0.6321(16)
Cd7 Cd 0.276408(16) 0.22700(5) 0.91270(4)
C1 C 0.2224(2) 0.8361(8) 0.0840(6)
C4 C 0.2036(3) 0.8979(10) 0.0182(8)
C5 C 0.2397(4) 0.8964(11) 0.1480(8)
H4 H 0.2522(4) 0.8582(11) 0.1926(8)
C7 C 0.2478(3) 0.5281(10) 0.1263(7)
H5 H 0.2645(3) 0.4881(10) 0.1604(7)
C10 C 0.2027(4) 0.5297(12) 0.0253(10)
C21 C 0.2237(2) 0.7132(7) 0.0733(7)
C22 C 0.2477(3) 0.6480(10) 0.1310(7)
H15 H 0.2629(3) 0.6858(10) 0.1708(7)
C24 C 0.1995(4) 0.6468(11) 0.0284(9)
N9 N 0.2751(2) 0.0322(7) 0.9252(5)
H27 H 0.2355(3) 0.0119(10) 0.8396(7)
Cd2_2 Cd 0.500 0.000 0.500
O5_2 O 0.5432(7) 0.139(4) 0.504(3)
N7_2 N 0.5448(14) 0.231(5) 0.494(3)
O6_2 O 0.5712(13) 0.284(6) 0.481(4)
O7_2 O 0.5200(11) 0.261(4) 0.474(5)
C32 C 0.3337(3) 0.1834(14) 0.2573(7)
H23 H 0.3166(3) 0.1924(14) 0.2867(7)
H24 H 0.3088(3) 0.4421(10) 0.0218(7)
H25 H 0.3087(3) 0.6405(10) 0.0265(8)
C41 C 0.3540(3) 0.2052(11) 0.1307(7)
H30 H 0.3502(3) 0.2222(11) 0.0747(7)
C45 C 0.3280(2) 0.2051(7) 0.1730(6)
C48 C 0.3899(4) 0.1501(19) 0.2525(9)
C49 C 0.3647(3) 0.1485(16) 0.2984(8)
H35 H 0.3684(3) 0.1254(16) 0.3533(8)
N10 N 0.4228(3) 0.1238(19) 0.2935(8)
C50 C 0.3856(3) 0.1801(15) 0.1712(8)
H36 H 0.4034(3) 0.1836(15) 0.1439(8)
C53 C 0.2936(3) 0.2399(8) 0.1310(6)
H38 H 0.3194(4) 0.8184(11) 0.0005(9)
C55 C 0.4331(4) 0.076(3) 0.3663(10)
H39 H 0.4187(4) 0.053(3) 0.4008(10)
N12 N 0.4646(3) 0.063(3) 0.3851(9)
C58 C 0.4488(4) 0.124(4) 0.2601(9)
H42 H 0.4492(4) 0.134(4) 0.2043(9)
C60 C 0.4745(5) 0.108(5) 0.3180(16)
H44 H 0.4962(5) 0.124(5) 0.3138(16)
N17 N 0.4706(3) 0.097(2) 0.5860(9)
N8 N 0.2783(2) 0.4246(7) 0.9144(5)
C31 C 0.2776(2) 0.6639(8) 0.9160(6)
O9 O 0.3335(2) 0.2076(7) 0.9083(5)
O11 O 0.2986(2) 0.2095(8) 0.7873(5)
C33 C 0.2963(3) 0.4830(10) 0.9787(7)
C34 C 0.2964(3) 0.6021(10) 0.9818(8)
C35 C 0.2603(4) 0.6036(11) 0.8520(8)
H26 H 0.2478(4) 0.6418(11) 0.8074(8)
C36 C 0.3270(3) 0.2018(10) 0.8275(7)
C37 C 0.2522(3) 0.9719(10) 0.8737(7)
C38 C 0.3555(3) 0.1915(12) 0.7822(8)
C39 C 0.2614(4) 0.4858(10) 0.8532(7)
H28 H 0.2495(4) 0.4465(10) 0.8083(7)
C40 C 0.2973(4) 0.9703(12) 0.9747(10)
C42 C 0.3878(3) 0.2253(15) 0.8226(9)
H31 H 0.3911(3) 0.2543(15) 0.8761(9)
C43 C 0.3781(3) 0.1361(16) 0.6631(9)
H32 H 0.3751(3) 0.1072(16) 0.6097(9)
C44 C 0.3513(3) 0.1475(14) 0.7051(8)
H33 H 0.3304(3) 0.1242(14) 0.6792(8)
C46 C 0.4142(3) 0.2147(16) 0.7817(9)
H34 H 0.4353(3) 0.2380(16) 0.8066(9)
C47 C 0.4085(3) 0.1689(18) 0.7037(9)
C51 C 0.2763(2) 0.7868(7) 0.9267(7)
C52 C 0.2523(3) 0.8520(10) 0.8690(7)
H37 H 0.2371(3) 0.8142(10) 0.8292(7)
C54 C 0.3005(4) 0.8532(11) 0.9716(9)
N13 N 0.4360(3) 0.1557(17) 0.6631(9)
C56 C 0.4633(4) 0.226(2) 0.6860(14)
H40 H 0.4666(4) 0.281(2) 0.7275(14)
C57 C 0.4402(5) 0.084(2) 0.6033(9)
H41 H 0.4244(5) 0.033(2) 0.5772(9)
C59 C 0.4836(5) 0.197(4) 0.6355(16)
H43_2 H 0.5033(5) 0.235(4) 0.6321(16)
H3 H 0.1913(3) 0.8595(10) 0.9735(8)
H7 H 0.1880(4) 0.4906(12) 0.9851(10)
H16 H 0.1806(4) 0.6816(11) 0.9995(9)
H25_2 H 0.8087(3) 0.1405(10) 0.0265(8)
H29 H 0.8120(4) 0.5094(12) 0.0149(10)
H38_2 H 0.8194(4) 0.3184(11) 0.0005(9)
N9_2 N 0.7751(2) 0.5322(7) 0.9252(5)
C31_2 C 0.7776(2) 0.1639(8) 0.9160(6)
C34_2 C 0.7964(3) 0.1021(10) 0.9818(8)
C35_2 C 0.7603(4) 0.1036(11) 0.8520(8)
H26_2 H 0.7478(4) 0.1418(11) 0.8074(8)
C37_2 C 0.7522(3) 0.4719(10) 0.8737(7)
H27_2 H 0.7355(3) 0.5119(10) 0.8396(7)
C40_2 C 0.7973(4) 0.4703(12) 0.9747(10)
C51_2 C 0.7763(2) 0.2868(7) 0.9267(7)
C52_2 C 0.7523(3) 0.3520(10) 0.8690(7)
H37_2 H 0.7371(3) 0.3142(10) 0.8292(7)
C54_2 C 0.8005(4) 0.3532(11) 0.9716(9)
Cd5 Cd 0.776408(16) 0.72700(5) 0.91270(4)
Cd2_3 Cd 1.000 0.500 0.500
H21 H 0.9967(5) 0.265(4) 0.3679(16)
O8 O 0.77322(18) 0.7615(6) 0.1770(5)
O10 O 0.7864(2) 0.7420(7) 0.0545(5)
C32_2 C 0.8337(3) 0.6834(14) 0.2573(7)
H23_2 H 0.8166(3) 0.6924(14) 0.2867(7)
H24_2 H 0.8088(3) 0.9421(10) 0.0218(7)
C41_2 C 0.8540(3) 0.7052(11) 0.1307(7)
H30_2 H 0.8502(3) 0.7222(11) 0.0747(7)
C45_2 C 0.8280(2) 0.7051(7) 0.1730(6)
C48_2 C 0.8899(4) 0.6501(19) 0.2525(9)
C49_2 C 0.8647(3) 0.6485(16) 0.2984(8)
H35_2 H 0.8684(3) 0.6254(16) 0.3533(8)
N10_2 N 0.9228(3) 0.6238(19) 0.2935(8)
C50_2 C 0.8856(3) 0.6801(15) 0.1712(8)
H36_2 H 0.9034(3) 0.6836(15) 0.1439(8)
C53_2 C 0.7936(3) 0.7399(8) 0.1310(6)
C55_2 C 0.9331(4) 0.576(3) 0.3663(10)
H39_2 H 0.9187(4) 0.553(3) 0.4008(10)
N12_2 N 0.9646(3) 0.563(3) 0.3851(9)
C58_2 C 0.9488(4) 0.624(4) 0.2601(9)
H42_2 H 0.9492(4) 0.634(4) 0.2043(9)
C60_2 C 0.9745(5) 0.608(5) 0.3180(16)
H44_2 H 0.9962(5) 0.624(5) 0.3138(16)
O12 O 0.9568(7) 0.361(4) 0.496(3)
N14 N 0.9552(14) 0.269(5) 0.506(3)
O13 O 0.9288(13) 0.216(6) 0.519(4)
O14 O 0.9800(11) 0.239(4) 0.526(5)
Cd6 Cd 0.723592(16) 0.77300(5) 0.08730(4)
N17_2 N 0.9706(3) 0.597(2) 0.5860(9)
N8_2 N 0.7783(2) 0.9246(7) 0.9144(5)
O9_2 O 0.8335(2) 0.7076(7) 0.9083(5)
O11_2 O 0.7986(2) 0.7095(8) 0.7873(5)
C33_2 C 0.7963(3) 0.9830(10) 0.9787(7)
C36_2 C 0.8270(3) 0.7018(10) 0.8275(7)
C38_2 C 0.8555(3) 0.6915(12) 0.7822(8)
C39_2 C 0.7614(4) 0.9858(10) 0.8532(7)
H28_2 H 0.7495(4) 0.9465(10) 0.8083(7)
C42_2 C 0.8878(3) 0.7253(15) 0.8226(9)
H31_2 H 0.8911(3) 0.7543(15) 0.8761(9)
C43_2 C 0.8781(3) 0.6361(16) 0.6631(9)
H32_2 H 0.8751(3) 0.6072(16) 0.6097(9)
C44_2 C 0.8513(3) 0.6475(14) 0.7051(8)
H33_2 H 0.8304(3) 0.6242(14) 0.6792(8)
C46_2 C 0.9142(3) 0.7147(16) 0.7817(9)
H34_2 H 0.9353(3) 0.7380(16) 0.8066(9)
C47_2 C 0.9085(3) 0.6689(18) 0.7037(9)
N13_2 N 0.9360(3) 0.6557(17) 0.6631(9)
C56_2 C 0.9633(4) 0.726(2) 0.6860(14)
H40_2 H 0.9666(4) 0.781(2) 0.7275(14)
C57_2 C 0.9402(5) 0.584(2) 0.6033(9)
H41_2 H 0.9244(5) 0.533(2) 0.5772(9)
C59_2 C 0.9836(5) 0.697(4) 0.6355(16)
O15 O 0.72678(18) 0.7385(6) 0.8230(5)
O17 O 0.7136(2) 0.7580(7) 0.9455(5)
Cd2_4 Cd 0.500 1.000 0.500
N1_2 N 0.7217(2) 0.5754(7) 0.0856(5)
C1_2 C 0.7224(2) 0.3361(8) 0.0840(6)
O2_2 O 0.6665(2) 0.7924(7) 0.0917(5)
O4_2 O 0.7014(2) 0.7905(8) 0.2127(5)
C3_2 C 0.7037(3) 0.5170(10) 0.0213(7)
C4_2 C 0.7036(3) 0.3979(10) 0.0182(8)
C5_2 C 0.7397(4) 0.3964(11) 0.1480(8)
H4_2 H 0.7522(4) 0.3582(11) 0.1926(8)
C6_2 C 0.6730(3) 0.7982(10) 0.1725(7)
C7_2 C 0.7478(3) 0.0281(10) 0.1263(7)
C8_2 C 0.6445(3) 0.8085(12) 0.2178(8)
C9_2 C 0.7386(4) 0.5142(10) 0.1468(7)
H6_2 H 0.7505(4) 0.5535(10) 0.1917(7)
C10_2 C 0.7027(4) 0.0297(12) 0.0253(10)
C12_2 C 0.6122(3) 0.7747(15) 0.1774(9)
H9_2 H 0.6089(3) 0.7457(15) 0.1239(9)
C13_2 C 0.6219(3) 0.8639(16) 0.3369(9)
H10_2 H 0.6249(3) 0.8928(16) 0.3903(9)
C14_2 C 0.6487(3) 0.8525(14) 0.2949(8)
H11_2 H 0.6696(3) 0.8758(14) 0.3208(8)
C16_2 C 0.5858(3) 0.7853(16) 0.2183(9)
H12_2 H 0.5647(3) 0.7620(16) 0.1934(9)
C17_2 C 0.5915(3) 0.8311(18) 0.2963(9)
C21_2 C 0.7237(2) 0.2132(7) 0.0733(7)
C22_2 C 0.7477(3) 0.1480(10) 0.1310(7)
H15_2 H 0.7629(3) 0.1858(10) 0.1708(7)
C24_2 C 0.6995(4) 0.1468(11) 0.0284(9)
N4_2 N 0.5294(3) 0.903(2) 0.4140(9)
N6_2 N 0.5640(3) 0.8443(17) 0.3369(9)
C26_2 C 0.5367(4) 0.774(2) 0.3140(14)
H18_2 H 0.5334(4) 0.719(2) 0.2725(14)
C27_2 C 0.5598(5) 0.916(2) 0.3967(9)
H19_2 H 0.5756(5) 0.967(2) 0.4228(9)
C29_2 C 0.5164(5) 0.803(4) 0.3645(16)
H21_2 H 0.4967(5) 0.765(4) 0.3679(16)
O12_2 O 0.4568(7) 0.861(4) 0.496(3)
N14_2 N 0.4552(14) 0.769(5) 0.506(3)
O13_2 O 0.4288(13) 0.716(6) 0.519(4)
O14_2 O 0.4800(11) 0.739(4) 0.526(5)
N15_2 N 0.7249(2) 0.9678(7) 0.0748(5)
N18_2 N 0.5354(3) 0.937(3) 0.6149(9)
C2_2 C 0.6663(3) 0.8166(14) 0.7427(7)
H1_2 H 0.6834(3) 0.8076(14) 0.7133(7)
H2_2 H 0.6912(3) 0.5579(10) 0.9782(7)
H3_2 H 0.6913(3) 0.3595(10) 0.9735(8)
C11_2 C 0.6460(3) 0.7948(11) 0.8693(7)
H8_2 H 0.6498(3) 0.7778(11) 0.9253(7)
C15_2 C 0.6720(2) 0.7949(7) 0.8270(6)
C18_2 C 0.6101(4) 0.8499(19) 0.7475(9)
C19_2 C 0.6353(3) 0.8515(16) 0.7016(8)
H13_2 H 0.6316(3) 0.8746(16) 0.6467(8)
N3_2 N 0.5772(3) 0.8762(19) 0.7065(8)
C20_2 C 0.6144(3) 0.8199(15) 0.8288(8)
H14_2 H 0.5966(3) 0.8164(15) 0.8561(8)
C23_2 C 0.7064(3) 0.7601(8) 0.8690(6)
H16_2 H 0.6806(4) 0.1816(11) 0.9995(9)
C25_2 C 0.5669(4) 0.924(3) 0.6337(10)
H17_2 H 0.5813(4) 0.947(3) 0.5992(10)
C28_2 C 0.5512(4) 0.876(4) 0.7399(9)
H20_2 H 0.5508(4) 0.866(4) 0.7957(9)
C30_2 C 0.5255(5) 0.892(5) 0.6820(16)
H22_2 H 0.5038(5) 0.876(5) 0.6862(16)
H5_2 H 0.7645(3) 0.9881(10) 0.1604(7)
N9_3 N 0.2249(2) 0.5322(7) 0.5748(5)
C31_3 C 0.2224(2) 0.1639(8) 0.5840(6)
C34_3 C 0.2036(3) 0.1021(10) 0.5182(8)
H25_3 H 0.1913(3) 0.1405(10) 0.4735(8)
C35_3 C 0.2397(4) 0.1036(11) 0.6480(8)
H26_3 H 0.2522(4) 0.1418(11) 0.6926(8)
C37_3 C 0.2478(3) 0.4719(10) 0.6263(7)
H27_3 H 0.2645(3) 0.5119(10) 0.6604(7)
C40_3 C 0.2027(4) 0.4703(12) 0.5253(10)
H29_2 H 0.1880(4) 0.5094(12) 0.4851(10)
C51_3 C 0.2237(2) 0.2868(7) 0.5733(7)
C52_3 C 0.2477(3) 0.3520(10) 0.6310(7)
H37_3 H 0.2629(3) 0.3142(10) 0.6708(7)
C54_3 C 0.1995(4) 0.3532(11) 0.5284(9)
H38_3 H 0.1806(4) 0.3184(11) 0.4995(9)
Cd5_2 Cd 0.223592(16) 0.72700(5) 0.58730(4)
Cd8 Cd 0.000 0.500 -0.000
H21_3 H 0.0033(5) 0.265(4) 0.1321(16)
N8_3 N 0.2217(2) 0.9246(7) 0.5856(5)
O8_2 O 0.22678(18) 0.7615(6) 0.3230(5)
O9_3 O 0.1665(2) 0.7076(7) 0.5917(5)
O10_2 O 0.2136(2) 0.7420(7) 0.4455(5)
O11_3 O 0.2014(2) 0.7095(8) 0.7127(5)
C32_3 C 0.1663(3) 0.6834(14) 0.2427(7)
H23_3 H 0.1834(3) 0.6924(14) 0.2133(7)
C33_3 C 0.2037(3) 0.9830(10) 0.5213(7)
H24_3 H 0.1912(3) 0.9421(10) 0.4782(7)
C36_3 C 0.1730(3) 0.7018(10) 0.6725(7)
C38_3 C 0.1445(3) 0.6915(12) 0.7178(8)
C39_3 C 0.2386(4) 0.9858(10) 0.6468(7)
H28_3 H 0.2505(4) 0.9465(10) 0.6917(7)
C41_3 C 0.1460(3) 0.7052(11) 0.3693(7)
H30_3 H 0.1498(3) 0.7222(11) 0.4253(7)
C42_3 C 0.1122(3) 0.7253(15) 0.6774(9)
H31_3 H 0.1089(3) 0.7543(15) 0.6239(9)
C43_3 C 0.1219(3) 0.6361(16) 0.8369(9)
H32_3 H 0.1249(3) 0.6072(16) 0.8903(9)
C44_3 C 0.1487(3) 0.6475(14) 0.7949(8)
H33_3 H 0.1696(3) 0.6242(14) 0.8208(8)
C45_3 C 0.1720(2) 0.7051(7) 0.3270(6)
C46_3 C 0.0858(3) 0.7147(16) 0.7183(9)
H34_3 H 0.0647(3) 0.7380(16) 0.6934(9)
C47_3 C 0.0915(3) 0.6689(18) 0.7963(9)
C48_3 C 0.1101(4) 0.6501(19) 0.2475(9)
C49_3 C 0.1353(3) 0.6485(16) 0.2016(8)
H35_3 H 0.1316(3) 0.6254(16) 0.1467(8)
N10_3 N 0.0772(3) 0.6238(19) 0.2065(8)
C50_3 C 0.1144(3) 0.6801(15) 0.3288(8)
H36_3 H 0.0966(3) 0.6836(15) 0.3561(8)
C53_3 C 0.2064(3) 0.7399(8) 0.3690(6)
N11 N 0.0294(3) 0.597(2) 0.9140(9)
C55_3 C 0.0669(4) 0.576(3) 0.1337(10)
H39_3 H 0.0813(4) 0.553(3) 0.0992(10)
N12_3 N 0.0354(3) 0.563(3) 0.1149(9)
N13_3 N 0.0640(3) 0.6557(17) 0.8369(9)
C56_3 C 0.0367(4) 0.726(2) 0.8140(14)
H40_3 H 0.0334(4) 0.781(2) 0.7725(14)
C57_3 C 0.0598(5) 0.584(2) 0.8967(9)
H41_3 H 0.0756(5) 0.533(2) 0.9228(9)
C58_3 C 0.0512(4) 0.624(4) 0.2399(9)
H42_3 H 0.0508(4) 0.634(4) 0.2957(9)
C59_3 C 0.0164(5) 0.697(4) 0.8645(16)
C60_3 C 0.0255(5) 0.608(5) 0.1820(16)
H44_3 H 0.0038(5) 0.624(5) 0.1862(16)
O12_3 O 0.0432(7) 0.361(4) 0.004(3)
Cd6_2 Cd 0.276408(16) 0.77300(5) 0.41270(4)
Cd8_2 Cd 0.000 0.500 1.000
O15_2 O 0.27322(18) 0.7385(6) 0.6770(5)
O17_2 O 0.2864(2) 0.7580(7) 0.5545(5)
N14_3 N 0.0448(14) 0.269(5) 0.994(3)
O13_3 O 0.0712(13) 0.216(6) 0.981(4)
O14_3 O 0.0200(11) 0.239(4) 0.974(5)
Cd8_3 Cd 0.500 1.000 -0.000
N1_3 N 0.2783(2) 0.5754(7) 0.4144(5)
C1_3 C 0.2776(2) 0.3361(8) 0.4160(6)
O2_3 O 0.3335(2) 0.7924(7) 0.4083(5)
O4_3 O 0.2986(2) 0.7905(8) 0.2873(5)
C2_3 C 0.3337(3) 0.8166(14) 0.7573(7)
H1_3 H 0.3166(3) 0.8076(14) 0.7867(7)
C3_3 C 0.2963(3) 0.5170(10) 0.4787(7)
H2_3 H 0.3088(3) 0.5579(10) 0.5218(7)
C4_3 C 0.2964(3) 0.3979(10) 0.4818(8)
H3_3 H 0.3087(3) 0.3595(10) 0.5265(8)
C5_3 C 0.2603(4) 0.3964(11) 0.3520(8)
H4_3 H 0.2478(4) 0.3582(11) 0.3074(8)
C6_3 C 0.3270(3) 0.7982(10) 0.3275(7)
C7_3 C 0.2522(3) 0.0281(10) 0.3737(7)
C8_3 C 0.3555(3) 0.8085(12) 0.2822(8)
C9_3 C 0.2614(4) 0.5142(10) 0.3532(7)
H6_3 H 0.2495(4) 0.5535(10) 0.3083(7)
C10_3 C 0.2973(4) 0.0297(12) 0.4747(10)
C11_3 C 0.3540(3) 0.7948(11) 0.6307(7)
H8_3 H 0.3502(3) 0.7778(11) 0.5747(7)
C12_3 C 0.3878(3) 0.7747(15) 0.3226(9)
H9_3 H 0.3911(3) 0.7457(15) 0.3761(9)
C13_3 C 0.3781(3) 0.8639(16) 0.1631(9)
H10_3 H 0.3751(3) 0.8928(16) 0.1097(9)
C14_3 C 0.3513(3) 0.8525(14) 0.2051(8)
H11_3 H 0.3304(3) 0.8758(14) 0.1792(8)
C15_3 C 0.3280(2) 0.7949(7) 0.6730(6)
C16_3 C 0.4142(3) 0.7853(16) 0.2817(9)
H12_3 H 0.4353(3) 0.7620(16) 0.3066(9)
C17_3 C 0.4085(3) 0.8311(18) 0.2037(9)
C18_3 C 0.3899(4) 0.8499(19) 0.7525(9)
C19_3 C 0.3647(3) 0.8515(16) 0.7984(8)
H13_3 H 0.3684(3) 0.8746(16) 0.8533(8)
N3_3 N 0.4228(3) 0.8762(19) 0.7935(8)
C20_3 C 0.3856(3) 0.8199(15) 0.6712(8)
H14_3 H 0.4034(3) 0.8164(15) 0.6439(8)
C21_3 C 0.2763(2) 0.2132(7) 0.4267(7)
C22_3 C 0.2523(3) 0.1480(10) 0.3690(7)
H15_3 H 0.2371(3) 0.1858(10) 0.3292(7)
C23_3 C 0.2936(3) 0.7601(8) 0.6310(6)
C24_3 C 0.3005(4) 0.1468(11) 0.4716(9)
H16_3 H 0.3194(4) 0.1816(11) 0.5005(9)
N4_3 N 0.4706(3) 0.903(2) 0.0860(9)
C25_3 C 0.4331(4) 0.924(3) 0.8663(10)
H17_3 H 0.4187(4) 0.947(3) 0.9008(10)
N5 N 0.4646(3) 0.937(3) 0.8851(9)
N6_3 N 0.4360(3) 0.8443(17) 0.1631(9)
C26_3 C 0.4633(4) 0.774(2) 0.1860(14)
H18_3 H 0.4666(4) 0.719(2) 0.2275(14)
C27_3 C 0.4402(5) 0.916(2) 0.1033(9)
H19_3 H 0.4244(5) 0.967(2) 0.0772(9)
C28_3 C 0.4488(4) 0.876(4) 0.7601(9)
H20_3 H 0.4492(4) 0.866(4) 0.7043(9)
C29_3 C 0.4836(5) 0.803(4) 0.1355(16)
H21_4 H 0.5033(5) 0.765(4) 0.1321(16)
C30_3 C 0.4745(5) 0.892(5) 0.8180(16)
H22_3 H 0.4962(5) 0.876(5) 0.8138(16)
O12_4 O 0.5432(7) 0.861(4) 0.004(3)
Cd8_4 Cd 0.500 1.000 1.000
N15_3 N 0.2751(2) 0.9678(7) 0.4252(5)
N14_4 N 0.5448(14) 0.769(5) 0.994(3)
O13_4 O 0.5712(13) 0.716(6) 0.981(4)
O14_4 O 0.5200(11) 0.739(4) 0.974(5)
H5_3 H 0.2355(3) 0.9881(10) 0.3396(7)
H7_2 H 0.3120(4) 0.9906(12) 0.5149(10)
Cd8_5 Cd 1.000 0.500 -0.000
Cd1_2 Cd 0.776408(16) 0.27300(5) 0.41270(4)
N1_4 N 0.7783(2) 0.0754(7) 0.4144(5)
O1_2 O 0.77322(18) 0.2385(6) 0.6770(5)
O2_4 O 0.8335(2) 0.2924(7) 0.4083(5)
O3_2 O 0.7864(2) 0.2580(7) 0.5545(5)
O4_4 O 0.7986(2) 0.2905(8) 0.2873(5)
C2_4 C 0.8337(3) 0.3166(14) 0.7573(7)
H1_4 H 0.8166(3) 0.3076(14) 0.7867(7)
C3_4 C 0.7963(3) 0.0170(10) 0.4787(7)
H2_4 H 0.8088(3) 0.0579(10) 0.5218(7)
C6_4 C 0.8270(3) 0.2982(10) 0.3275(7)
C8_4 C 0.8555(3) 0.3085(12) 0.2822(8)
C9_4 C 0.7614(4) 0.0142(10) 0.3532(7)
H6_4 H 0.7495(4) 0.0535(10) 0.3083(7)
C11_4 C 0.8540(3) 0.2948(11) 0.6307(7)
H8_4 H 0.8502(3) 0.2778(11) 0.5747(7)
C12_4 C 0.8878(3) 0.2747(15) 0.3226(9)
H9_4 H 0.8911(3) 0.2457(15) 0.3761(9)
C13_4 C 0.8781(3) 0.3639(16) 0.1631(9)
H10_4 H 0.8751(3) 0.3928(16) 0.1097(9)
C14_4 C 0.8513(3) 0.3525(14) 0.2051(8)
H11_4 H 0.8304(3) 0.3758(14) 0.1792(8)
C15_4 C 0.8280(2) 0.2949(7) 0.6730(6)
C16_4 C 0.9142(3) 0.2853(16) 0.2817(9)
H12_4 H 0.9353(3) 0.2620(16) 0.3066(9)
C17_4 C 0.9085(3) 0.3311(18) 0.2037(9)
C18_4 C 0.8899(4) 0.3499(19) 0.7525(9)
C19_4 C 0.8647(3) 0.3515(16) 0.7984(8)
H13_4 H 0.8684(3) 0.3746(16) 0.8533(8)
N3_4 N 0.9228(3) 0.3762(19) 0.7935(8)
C20_4 C 0.8856(3) 0.3199(15) 0.6712(8)
H14_4 H 0.9034(3) 0.3164(15) 0.6439(8)
C23_4 C 0.7936(3) 0.2601(8) 0.6310(6)
N4_4 N 0.9706(3) 0.403(2) 0.0860(9)
C25_4 C 0.9331(4) 0.424(3) 0.8663(10)
H17_4 H 0.9187(4) 0.447(3) 0.9008(10)
N5_2 N 0.9646(3) 0.437(3) 0.8851(9)
N6_4 N 0.9360(3) 0.3443(17) 0.1631(9)
C26_4 C 0.9633(4) 0.274(2) 0.1860(14)
H18_4 H 0.9666(4) 0.219(2) 0.2275(14)
C27_4 C 0.9402(5) 0.416(2) 0.1033(9)
H19_4 H 0.9244(5) 0.467(2) 0.0772(9)
C28_4 C 0.9488(4) 0.376(4) 0.7601(9)
H20_4 H 0.9492(4) 0.366(4) 0.7043(9)
C29_4 C 0.9836(5) 0.303(4) 0.1355(16)
C30_4 C 0.9745(5) 0.392(5) 0.8180(16)
H22_4 H 0.9962(5) 0.376(5) 0.8138(16)
N7_3 N 0.9552(14) 0.731(5) 0.006(3)
O6_3 O 0.9288(13) 0.784(6) 0.019(4)
O7_3 O 0.9800(11) 0.761(4) 0.026(5)
H43_3 H 0.9967(5) 0.735(4) 0.8679(16)
Cd7_2 Cd 0.723592(16) 0.22700(5) 0.58730(4)
Cd8_6 Cd 1.000 0.500 1.000
N15_4 N 0.7751(2) 0.4678(7) 0.4252(5)
O16_2 O 0.72678(18) 0.2615(6) 0.3230(5)
O18_2 O 0.7136(2) 0.2420(7) 0.4455(5)
O5_3 O 0.9568(7) 0.639(4) 0.996(3)
C1_4 C 0.7776(2) 0.8361(8) 0.4160(6)
C4_4 C 0.7964(3) 0.8979(10) 0.4818(8)
H3_4 H 0.8087(3) 0.8595(10) 0.5265(8)
C5_4 C 0.7603(4) 0.8964(11) 0.3520(8)
H4_4 H 0.7478(4) 0.8582(11) 0.3074(8)
C7_4 C 0.7522(3) 0.5281(10) 0.3737(7)
H5_4 H 0.7355(3) 0.4881(10) 0.3396(7)
C10_4 C 0.7973(4) 0.5297(12) 0.4747(10)
H7_3 H 0.8120(4) 0.4906(12) 0.5149(10)
C21_4 C 0.7763(2) 0.7132(7) 0.4267(7)
C22_4 C 0.7523(3) 0.6480(10) 0.3690(7)
H15_4 H 0.7371(3) 0.6858(10) 0.3292(7)
C24_4 C 0.8005(4) 0.6468(11) 0.4716(9)
H16_4 H 0.8194(4) 0.6816(11) 0.5005(9)
N9_4 N 0.7249(2) 0.0322(7) 0.5748(5)
H27_4 H 0.7645(3) 0.0119(10) 0.6604(7)
H29_3 H 0.6880(4) 0.0094(12) 0.4851(10)
Cd8_7 Cd 0.500 0.000 -0.000
N7_4 N 0.4552(14) 0.231(5) 0.006(3)
O6_4 O 0.4288(13) 0.284(6) 0.019(4)
O7_4 O 0.4800(11) 0.261(4) 0.026(5)
N8_4 N 0.7217(2) 0.4246(7) 0.5856(5)
C31_4 C 0.7224(2) 0.6639(8) 0.5840(6)
O9_4 O 0.6665(2) 0.2076(7) 0.5917(5)
O11_4 O 0.7014(2) 0.2095(8) 0.7127(5)
C32_4 C 0.6663(3) 0.1834(14) 0.2427(7)
H23_4 H 0.6834(3) 0.1924(14) 0.2133(7)
C33_4 C 0.7037(3) 0.4830(10) 0.5213(7)
H24_4 H 0.6912(3) 0.4421(10) 0.4782(7)
C34_4 C 0.7036(3) 0.6021(10) 0.5182(8)
H25_4 H 0.6913(3) 0.6405(10) 0.4735(8)
C35_4 C 0.7397(4) 0.6036(11) 0.6480(8)
H26_4 H 0.7522(4) 0.6418(11) 0.6926(8)
C36_4 C 0.6730(3) 0.2018(10) 0.6725(7)
C37_4 C 0.7478(3) 0.9719(10) 0.6263(7)
C38_4 C 0.6445(3) 0.1915(12) 0.7178(8)
C39_4 C 0.7386(4) 0.4858(10) 0.6468(7)
H28_4 H 0.7505(4) 0.4465(10) 0.6917(7)
C40_4 C 0.7027(4) 0.9703(12) 0.5253(10)
C41_4 C 0.6460(3) 0.2052(11) 0.3693(7)
H30_4 H 0.6498(3) 0.2222(11) 0.4253(7)
C42_4 C 0.6122(3) 0.2253(15) 0.6774(9)
H31_4 H 0.6089(3) 0.2543(15) 0.6239(9)
C43_4 C 0.6219(3) 0.1361(16) 0.8369(9)
H32_4 H 0.6249(3) 0.1072(16) 0.8903(9)
C44_4 C 0.6487(3) 0.1475(14) 0.7949(8)
H33_4 H 0.6696(3) 0.1242(14) 0.8208(8)
C45_4 C 0.6720(2) 0.2051(7) 0.3270(6)
C46_4 C 0.5858(3) 0.2147(16) 0.7183(9)
H34_4 H 0.5647(3) 0.2380(16) 0.6934(9)
C47_4 C 0.5915(3) 0.1689(18) 0.7963(9)
C48_4 C 0.6101(4) 0.1501(19) 0.2475(9)
C49_4 C 0.6353(3) 0.1485(16) 0.2016(8)
H35_4 H 0.6316(3) 0.1254(16) 0.1467(8)
N10_4 N 0.5772(3) 0.1238(19) 0.2065(8)
C50_4 C 0.6144(3) 0.1801(15) 0.3288(8)
H36_4 H 0.5966(3) 0.1836(15) 0.3561(8)
C51_4 C 0.7237(2) 0.7868(7) 0.5733(7)
C52_4 C 0.7477(3) 0.8520(10) 0.6310(7)
H37_4 H 0.7629(3) 0.8142(10) 0.6708(7)
C53_4 C 0.7064(3) 0.2399(8) 0.3690(6)
C54_4 C 0.6995(4) 0.8532(11) 0.5284(9)
H38_4 H 0.6806(4) 0.8184(11) 0.4995(9)
N11_2 N 0.5294(3) 0.097(2) 0.9140(9)
C55_4 C 0.5669(4) 0.076(3) 0.1337(10)
H39_4 H 0.5813(4) 0.053(3) 0.0992(10)
N12_4 N 0.5354(3) 0.063(3) 0.1149(9)
N13_4 N 0.5640(3) 0.1557(17) 0.8369(9)
C56_4 C 0.5367(4) 0.226(2) 0.8140(14)
H40_4 H 0.5334(4) 0.281(2) 0.7725(14)
C57_4 C 0.5598(5) 0.084(2) 0.8967(9)
H41_4 H 0.5756(5) 0.033(2) 0.9228(9)
C58_4 C 0.5512(4) 0.124(4) 0.2399(9)
H42_4 H 0.5508(4) 0.134(4) 0.2957(9)
C59_4 C 0.5164(5) 0.197(4) 0.8645(16)
H43_4 H 0.4967(5) 0.235(4) 0.8679(16)
C60_4 C 0.5255(5) 0.108(5) 0.1820(16)
H44_4 H 0.5038(5) 0.124(5) 0.1862(16)
Cd8_8 Cd 0.500 0.000 1.000
O5_4 O 0.4568(7) 0.139(4) 0.996(3)
H29_4 H 0.3120(4) 0.0094(12) 0.0149(10)
H7_4 H 0.6880(4) 0.9906(12) 0.9851(10)
loop_
_geom_bond_atom_site_label_1
_geom_bond_atom_site_label_2
_geom_bond_site_symmetry_1
_geom_bond_site_symmetry_2
Cd1 N1 1_555 1_555
Cd2 N4 1_555 1_555
N1 C3 1_555 1_555
O2 Cd1 1_555 1_555
O4 Cd1 1_555 1_555
C6 O2 1_555 1_555
C8 C6 1_555 1_555
C9 N1 1_555 1_555
H6 C9 1_555 1_555
C12 C8 1_555 1_555
H9 C12 1_555 1_555
C13 H10 1_555 1_555
C14 C8 1_555 1_555
H11 C14 1_555 1_555
C16 C12 1_555 1_555
H12 C16 1_555 1_555
C17 C13 1_555 1_555
N4 C27 1_555 1_555
N6 C17 1_555 1_555
C26 N6 1_555 1_555
H18 C26 1_555 1_555
C27 N6 1_555 1_555
H19 C27 1_555 1_555
C29 N4 1_555 1_555
O5 Cd2 1_555 1_555
N7 O5 1_555 1_555
O6 N7 1_555 1_555
O7 N7 1_555 1_555
N15 Cd1 1_555 1_555
O16 Cd1 1_555 1_555
O18 Cd1 1_555 1_555
N18 Cd2 1_555 1_555
O4 C6 1_555 1_555
C13 C14 1_555 1_555
C16 C17 1_555 1_555
C26 C29 1_555 1_555
O1 C23 1_555 1_555
C2 H1 1_555 1_555
C11 H8 1_555 1_555
C15 C2 1_555 1_555
C18 C19 1_555 1_555
C19 C2 1_555 1_555
H13 C19 1_555 1_555
N3 C18 1_555 1_555
C20 C11 1_555 1_555
H14 C20 1_555 1_555
C23 O3 1_555 1_555
C25 N3 1_555 1_555
H17 C25 1_555 1_555
N18 C25 1_555 1_555
C28 N3 1_555 1_555
H20 C28 1_555 1_555
C30 N18 1_555 1_555
H22 C30 1_555 1_555
Cd7 O1 1_555 1_555
O3 Cd7 1_555 1_555
C11 C15 1_555 1_555
C15 C23 1_555 1_555
C18 C20 1_555 1_555
C28 C30 1_555 1_555
N15 C7 1_555 1_555
C1 C4 1_555 1_555
C5 C1 1_555 1_555
H4 C5 1_555 1_555
C7 H5 1_555 1_555
C10 N15 1_555 1_555
C21 C1 1_555 1_555
C22 C7 1_555 1_555
H15 C22 1_555 1_555
C24 C10 1_555 1_555
C21 C22 1_555 1_555
C21 C24 1_555 1_555
Cd7 N9 1_555 1_555
O5_2 Cd2_2 1_555 1_555
N7_2 O5_2 1_555 1_555
O6_2 N7_2 1_555 1_555
O7_2 N7_2 1_555 1_555
O16 C53 1_555 1_555
C32 H23 1_555 1_555
C41 H30 1_555 1_555
C45 C32 1_555 1_555
C48 C49 1_555 1_555
C49 C32 1_555 1_555
H35 C49 1_555 1_555
N10 C48 1_555 1_555
C50 C41 1_555 1_555
H36 C50 1_555 1_555
C53 O18 1_555 1_555
C55 N10 1_555 1_555
H39 C55 1_555 1_555
N12 Cd2_2 1_555 1_555
C58 N10 1_555 1_555
H42 C58 1_555 1_555
C60 N12 1_555 1_555
H44 C60 1_555 1_555
N17 Cd2_2 1_555 1_555
C41 C45 1_555 1_555
C45 C53 1_555 1_555
C48 C50 1_555 1_555
C55 N12 1_555 1_555
C58 C60 1_555 1_555
Cd7 N8 1_555 1_555
N8 C33 1_555 1_555
C31 C34 1_555 1_555
O9 Cd7 1_555 1_555
O11 Cd7 1_555 1_555
C34 C33 1_555 1_555
C35 C31 1_555 1_555
H26 C35 1_555 1_555
C36 O9 1_555 1_555
C38 C36 1_555 1_555
C39 N8 1_555 1_555
H28 C39 1_555 1_555
C42 C38 1_555 1_555
H31 C42 1_555 1_555
C43 H32 1_555 1_555
C44 C38 1_555 1_555
H33 C44 1_555 1_555
C46 C42 1_555 1_555
H34 C46 1_555 1_555
C47 C43 1_555 1_555
C51 C31 1_555 1_555
C52 C37 1_555 1_555
H37 C52 1_555 1_555
C54 C40 1_555 1_555
N17 C57 1_555 1_555
N13 C47 1_555 1_555
C56 N13 1_555 1_555
H40 C56 1_555 1_555
C57 N13 1_555 1_555
H41 C57 1_555 1_555
C59 N17 1_555 1_555
H43_2 C59 1_555 1_555
O11 C36 1_555 1_555
C35 C39 1_555 1_555
C43 C44 1_555 1_555
C46 C47 1_555 1_555
C51 C52 1_555 1_555
C51 C54 1_555 1_555
C56 C59 1_555 1_555
N9_2 C37_2 1_555 1_555
C31_2 C34_2 1_555 1_555
C35_2 C31_2 1_555 1_555
H26_2 C35_2 1_555 1_555
C37_2 H27_2 1_555 1_555
C40_2 N9_2 1_555 1_555
C51_2 C31_2 1_555 1_555
C52_2 C37_2 1_555 1_555
H37_2 C52_2 1_555 1_555
C54_2 C40_2 1_555 1_555
Cd5 N9_2 1_555 1_555
C51_2 C52_2 1_555 1_555
C51_2 C54_2 1_555 1_555
O8 C53_2 1_555 1_555
C32_2 H23_2 1_555 1_555
C41_2 H30_2 1_555 1_555
C45_2 C32_2 1_555 1_555
C48_2 C49_2 1_555 1_555
C49_2 C32_2 1_555 1_555
H35_2 C49_2 1_555 1_555
N10_2 C48_2 1_555 1_555
C50_2 C41_2 1_555 1_555
H36_2 C50_2 1_555 1_555
C53_2 O10 1_555 1_555
C55_2 N10_2 1_555 1_555
H39_2 C55_2 1_555 1_555
N12_2 Cd2_3 1_555 1_555
C58_2 N10_2 1_555 1_555
H42_2 C58_2 1_555 1_555
C60_2 N12_2 1_555 1_555
H44_2 C60_2 1_555 1_555
O12 Cd2_3 1_555 1_555
N14 O12 1_555 1_555
O13 N14 1_555 1_555
O14 N14 1_555 1_555
Cd6 O8 1_555 1_555
N17_2 Cd2_3 1_555 1_555
O10 Cd6 1_555 1_555
C41_2 C45_2 1_555 1_555
C45_2 C53_2 1_555 1_555
C48_2 C50_2 1_555 1_555
C55_2 N12_2 1_555 1_555
C58_2 C60_2 1_555 1_555
Cd5 N8_2 1_555 1_555
N8_2 C33_2 1_555 1_555
O9_2 Cd5 1_555 1_555
O11_2 Cd5 1_555 1_555
C36_2 O9_2 1_555 1_555
C38_2 C36_2 1_555 1_555
C39_2 N8_2 1_555 1_555
H28_2 C39_2 1_555 1_555
C42_2 C38_2 1_555 1_555
H31_2 C42_2 1_555 1_555
C43_2 H32_2 1_555 1_555
C44_2 C38_2 1_555 1_555
H33_2 C44_2 1_555 1_555
C46_2 C42_2 1_555 1_555
H34_2 C46_2 1_555 1_555
C47_2 C43_2 1_555 1_555
N17_2 C57_2 1_555 1_555
N13_2 C47_2 1_555 1_555
C56_2 N13_2 1_555 1_555
H40_2 C56_2 1_555 1_555
C57_2 N13_2 1_555 1_555
H41_2 C57_2 1_555 1_555
C59_2 N17_2 1_555 1_555
O15 Cd5 1_555 1_555
O17 Cd5 1_555 1_555
O11_2 C36_2 1_555 1_555
C43_2 C44_2 1_555 1_555
C46_2 C47_2 1_555 1_555
C56_2 C59_2 1_555 1_555
Cd6 N1_2 1_555 1_555
Cd2_4 N4_2 1_555 1_555
N1_2 C3_2 1_555 1_555
C1_2 C4_2 1_555 1_555
O2_2 Cd6 1_555 1_555
O4_2 Cd6 1_555 1_555
C4_2 C3_2 1_555 1_555
C5_2 C1_2 1_555 1_555
H4_2 C5_2 1_555 1_555
C6_2 O2_2 1_555 1_555
C8_2 C6_2 1_555 1_555
C9_2 N1_2 1_555 1_555
H6_2 C9_2 1_555 1_555
C12_2 C8_2 1_555 1_555
H9_2 C12_2 1_555 1_555
C13_2 H10_2 1_555 1_555
C14_2 C8_2 1_555 1_555
H11_2 C14_2 1_555 1_555
C16_2 C12_2 1_555 1_555
H12_2 C16_2 1_555 1_555
C17_2 C13_2 1_555 1_555
C21_2 C1_2 1_555 1_555
C22_2 C7_2 1_555 1_555
H15_2 C22_2 1_555 1_555
C24_2 C10_2 1_555 1_555
N4_2 C27_2 1_555 1_555
N6_2 C17_2 1_555 1_555
C26_2 N6_2 1_555 1_555
H18_2 C26_2 1_555 1_555
C27_2 N6_2 1_555 1_555
H19_2 C27_2 1_555 1_555
C29_2 N4_2 1_555 1_555
H21_2 C29_2 1_555 1_555
O12_2 Cd2_4 1_555 1_555
N14_2 O12_2 1_555 1_555
O13_2 N14_2 1_555 1_555
O14_2 N14_2 1_555 1_555
N15_2 Cd6 1_555 1_555
N18_2 Cd2_4 1_555 1_555
O4_2 C6_2 1_555 1_555
C5_2 C9_2 1_555 1_555
C13_2 C14_2 1_555 1_555
C16_2 C17_2 1_555 1_555
C21_2 C22_2 1_555 1_555
C21_2 C24_2 1_555 1_555
C26_2 C29_2 1_555 1_555
O15 C23_2 1_555 1_555
C2_2 H1_2 1_555 1_555
C11_2 H8_2 1_555 1_555
C15_2 C2_2 1_555 1_555
C18_2 C19_2 1_555 1_555
C19_2 C2_2 1_555 1_555
H13_2 C19_2 1_555 1_555
N3_2 C18_2 1_555 1_555
C20_2 C11_2 1_555 1_555
H14_2 C20_2 1_555 1_555
C23_2 O17 1_555 1_555
C25_2 N3_2 1_555 1_555
H17_2 C25_2 1_555 1_555
N18_2 C25_2 1_555 1_555
C28_2 N3_2 1_555 1_555
H20_2 C28_2 1_555 1_555
C30_2 N18_2 1_555 1_555
H22_2 C30_2 1_555 1_555
C11_2 C15_2 1_555 1_555
C15_2 C23_2 1_555 1_555
C18_2 C20_2 1_555 1_555
C28_2 C30_2 1_555 1_555
N9_3 C37_3 1_555 1_555
C31_3 C34_3 1_555 1_555
H25_3 C34_3 1_555 1_555
C35_3 C31_3 1_555 1_555
H26_3 C35_3 1_555 1_555
C37_3 H27_3 1_555 1_555
C40_3 N9_3 1_555 1_555
H29_2 C40_3 1_555 1_555
C51_3 C31_3 1_555 1_555
C52_3 C37_3 1_555 1_555
H37_3 C52_3 1_555 1_555
C54_3 C40_3 1_555 1_555
H38_3 C54_3 1_555 1_555
Cd5_2 N9_3 1_555 1_555
C51_3 C52_3 1_555 1_555
C51_3 C54_3 1_555 1_555
Cd5_2 N8_3 1_555 1_555
N8_3 C33_3 1_555 1_555
O8_2 C53_3 1_555 1_555
O9_3 Cd5_2 1_555 1_555
O10_2 Cd5_2 1_555 1_555
O11_3 Cd5_2 1_555 1_555
C32_3 H23_3 1_555 1_555
C33_3 H24_3 1_555 1_555
C36_3 O9_3 1_555 1_555
C38_3 C36_3 1_555 1_555
C39_3 N8_3 1_555 1_555
H28_3 C39_3 1_555 1_555
C41_3 H30_3 1_555 1_555
C42_3 C38_3 1_555 1_555
H31_3 C42_3 1_555 1_555
C43_3 H32_3 1_555 1_555
C44_3 C38_3 1_555 1_555
H33_3 C44_3 1_555 1_555
C45_3 C32_3 1_555 1_555
C46_3 C42_3 1_555 1_555
H34_3 C46_3 1_555 1_555
C47_3 C43_3 1_555 1_555
C48_3 C49_3 1_555 1_555
C49_3 C32_3 1_555 1_555
H35_3 C49_3 1_555 1_555
N10_3 C48_3 1_555 1_555
C50_3 C41_3 1_555 1_555
H36_3 C50_3 1_555 1_555
C53_3 O10_2 1_555 1_555
N11 C57_3 1_555 1_555
C55_3 N10_3 1_555 1_555
H39_3 C55_3 1_555 1_555
N12_3 Cd8 1_555 1_555
N13_3 C47_3 1_555 1_555
C56_3 N13_3 1_555 1_555
H40_3 C56_3 1_555 1_555
C57_3 N13_3 1_555 1_555
H41_3 C57_3 1_555 1_555
C58_3 N10_3 1_555 1_555
H42_3 C58_3 1_555 1_555
C59_3 N11 1_555 1_555
C60_3 N12_3 1_555 1_555
H44_3 C60_3 1_555 1_555
O12_3 Cd8 1_555 1_555
Cd6_2 O8_2 1_555 1_555
O15_2 Cd5_2 1_555 1_555
O17_2 Cd5_2 1_555 1_555
O10_2 Cd6_2 1_555 1_555
O11_3 C36_3 1_555 1_555
C41_3 C45_3 1_555 1_555
C43_3 C44_3 1_555 1_555
C45_3 C53_3 1_555 1_555
C46_3 C47_3 1_555 1_555
C48_3 C50_3 1_555 1_555
N11 Cd8_2 1_555 1_555
C55_3 N12_3 1_555 1_555
C56_3 C59_3 1_555 1_555
C58_3 C60_3 1_555 1_555
Cd6_2 O17_2 1_555 1_555
O13_3 N14_3 1_555 1_555
O14_3 N14_3 1_555 1_555
Cd6_2 N1_3 1_555 1_555
Cd8_3 N4_3 1_555 1_555
N1_3 C3_3 1_555 1_555
O15_2 C23_3 1_555 1_555
C1_3 C4_3 1_555 1_555
O2_3 Cd6_2 1_555 1_555
O4_3 Cd6_2 1_555 1_555
C2_3 H1_3 1_555 1_555
C3_3 H2_3 1_555 1_555
C4_3 C3_3 1_555 1_555
H3_3 C4_3 1_555 1_555
C5_3 C1_3 1_555 1_555
H4_3 C5_3 1_555 1_555
C6_3 O2_3 1_555 1_555
C8_3 C6_3 1_555 1_555
C9_3 N1_3 1_555 1_555
H6_3 C9_3 1_555 1_555
C11_3 H8_3 1_555 1_555
C12_3 C8_3 1_555 1_555
H9_3 C12_3 1_555 1_555
C13_3 H10_3 1_555 1_555
C14_3 C8_3 1_555 1_555
H11_3 C14_3 1_555 1_555
C15_3 C2_3 1_555 1_555
C16_3 C12_3 1_555 1_555
H12_3 C16_3 1_555 1_555
C17_3 C13_3 1_555 1_555
C18_3 C19_3 1_555 1_555
C19_3 C2_3 1_555 1_555
H13_3 C19_3 1_555 1_555
N3_3 C18_3 1_555 1_555
C20_3 C11_3 1_555 1_555
H14_3 C20_3 1_555 1_555
C21_3 C1_3 1_555 1_555
C22_3 C7_3 1_555 1_555
H15_3 C22_3 1_555 1_555
C23_3 O17_2 1_555 1_555
C24_3 C10_3 1_555 1_555
H16_3 C24_3 1_555 1_555
N4_3 C27_3 1_555 1_555
C25_3 N3_3 1_555 1_555
H17_3 C25_3 1_555 1_555
N5 C25_3 1_555 1_555
N6_3 C17_3 1_555 1_555
C26_3 N6_3 1_555 1_555
H18_3 C26_3 1_555 1_555
C27_3 N6_3 1_555 1_555
H19_3 C27_3 1_555 1_555
C28_3 N3_3 1_555 1_555
H20_3 C28_3 1_555 1_555
C29_3 N4_3 1_555 1_555
H21_4 C29_3 1_555 1_555
C30_3 N5 1_555 1_555
H22_3 C30_3 1_555 1_555
O12_4 Cd8_3 1_555 1_555
Cd8_4 N5 1_555 1_555
N15_3 Cd6_2 1_555 1_555
O4_3 C6_3 1_555 1_555
C5_3 C9_3 1_555 1_555
C11_3 C15_3 1_555 1_555
C13_3 C14_3 1_555 1_555
C15_3 C23_3 1_555 1_555
C16_3 C17_3 1_555 1_555
C18_3 C20_3 1_555 1_555
C21_3 C22_3 1_555 1_555
C21_3 C24_3 1_555 1_555
C26_3 C29_3 1_555 1_555
C28_3 C30_3 1_555 1_555
O13_4 N14_4 1_555 1_555
O14_4 N14_4 1_555 1_555
Cd1_2 N1_4 1_555 1_555
Cd8_5 N4_4 1_555 1_555
N1_4 C3_4 1_555 1_555
O1_2 C23_4 1_555 1_555
O2_4 Cd1_2 1_555 1_555
O3_2 Cd1_2 1_555 1_555
O4_4 Cd1_2 1_555 1_555
C2_4 H1_4 1_555 1_555
C3_4 H2_4 1_555 1_555
C6_4 O2_4 1_555 1_555
C8_4 C6_4 1_555 1_555
C9_4 N1_4 1_555 1_555
H6_4 C9_4 1_555 1_555
C11_4 H8_4 1_555 1_555
C12_4 C8_4 1_555 1_555
H9_4 C12_4 1_555 1_555
C13_4 H10_4 1_555 1_555
C14_4 C8_4 1_555 1_555
H11_4 C14_4 1_555 1_555
C15_4 C2_4 1_555 1_555
C16_4 C12_4 1_555 1_555
H12_4 C16_4 1_555 1_555
C17_4 C13_4 1_555 1_555
C18_4 C19_4 1_555 1_555
C19_4 C2_4 1_555 1_555
H13_4 C19_4 1_555 1_555
N3_4 C18_4 1_555 1_555
C20_4 C11_4 1_555 1_555
H14_4 C20_4 1_555 1_555
C23_4 O3_2 1_555 1_555
N4_4 C27_4 1_555 1_555
C25_4 N3_4 1_555 1_555
H17_4 C25_4 1_555 1_555
N5_2 C25_4 1_555 1_555
N6_4 C17_4 1_555 1_555
C26_4 N6_4 1_555 1_555
H18_4 C26_4 1_555 1_555
C27_4 N6_4 1_555 1_555
H19_4 C27_4 1_555 1_555
C28_4 N3_4 1_555 1_555
H20_4 C28_4 1_555 1_555
C29_4 N4_4 1_555 1_555
C30_4 N5_2 1_555 1_555
H22_4 C30_4 1_555 1_555
O6_3 N7_3 1_555 1_555
O7_3 N7_3 1_555 1_555
Cd7_2 O1_2 1_555 1_555
Cd8_6 N5_2 1_555 1_555
N15_4 Cd1_2 1_555 1_555
O16_2 Cd1_2 1_555 1_555
O18_2 Cd1_2 1_555 1_555
O3_2 Cd7_2 1_555 1_555
O4_4 C6_4 1_555 1_555
C11_4 C15_4 1_555 1_555
C13_4 C14_4 1_555 1_555
C15_4 C23_4 1_555 1_555
C16_4 C17_4 1_555 1_555
C18_4 C20_4 1_555 1_555
C26_4 C29_4 1_555 1_555
C28_4 C30_4 1_555 1_555
Cd7_2 O18_2 1_555 1_555
O5_3 Cd8_6 1_555 1_555
N15_4 C7_4 1_555 1_555
C1_4 C4_4 1_555 1_555
H3_4 C4_4 1_555 1_555
C5_4 C1_4 1_555 1_555
H4_4 C5_4 1_555 1_555
C7_4 H5_4 1_555 1_555
C10_4 N15_4 1_555 1_555
H7_3 C10_4 1_555 1_555
C21_4 C1_4 1_555 1_555
C22_4 C7_4 1_555 1_555
H15_4 C22_4 1_555 1_555
C24_4 C10_4 1_555 1_555
H16_4 C24_4 1_555 1_555
C21_4 C22_4 1_555 1_555
C21_4 C24_4 1_555 1_555
Cd7_2 N9_4 1_555 1_555
O6_4 N7_4 1_555 1_555
O7_4 N7_4 1_555 1_555
Cd7_2 N8_4 1_555 1_555
N8_4 C33_4 1_555 1_555
O16_2 C53_4 1_555 1_555
C31_4 C34_4 1_555 1_555
O9_4 Cd7_2 1_555 1_555
O11_4 Cd7_2 1_555 1_555
C32_4 H23_4 1_555 1_555
C33_4 H24_4 1_555 1_555
C34_4 C33_4 1_555 1_555
H25_4 C34_4 1_555 1_555
C35_4 C31_4 1_555 1_555
H26_4 C35_4 1_555 1_555
C36_4 O9_4 1_555 1_555
C38_4 C36_4 1_555 1_555
C39_4 N8_4 1_555 1_555
H28_4 C39_4 1_555 1_555
C41_4 H30_4 1_555 1_555
C42_4 C38_4 1_555 1_555
H31_4 C42_4 1_555 1_555
C43_4 H32_4 1_555 1_555
C44_4 C38_4 1_555 1_555
H33_4 C44_4 1_555 1_555
C45_4 C32_4 1_555 1_555
C46_4 C42_4 1_555 1_555
H34_4 C46_4 1_555 1_555
C47_4 C43_4 1_555 1_555
C48_4 C49_4 1_555 1_555
C49_4 C32_4 1_555 1_555
H35_4 C49_4 1_555 1_555
N10_4 C48_4 1_555 1_555
C50_4 C41_4 1_555 1_555
H36_4 C50_4 1_555 1_555
C51_4 C31_4 1_555 1_555
C52_4 C37_4 1_555 1_555
H37_4 C52_4 1_555 1_555
C53_4 O18_2 1_555 1_555
C54_4 C40_4 1_555 1_555
H38_4 C54_4 1_555 1_555
N11_2 C57_4 1_555 1_555
C55_4 N10_4 1_555 1_555
H39_4 C55_4 1_555 1_555
N12_4 Cd8_7 1_555 1_555
N13_4 C47_4 1_555 1_555
C56_4 N13_4 1_555 1_555
H40_4 C56_4 1_555 1_555
C57_4 N13_4 1_555 1_555
H41_4 C57_4 1_555 1_555
C58_4 N10_4 1_555 1_555
H42_4 C58_4 1_555 1_555
C59_4 N11_2 1_555 1_555
H43_4 C59_4 1_555 1_555
C60_4 N12_4 1_555 1_555
H44_4 C60_4 1_555 1_555
O11_4 C36_4 1_555 1_555
C35_4 C39_4 1_555 1_555
C41_4 C45_4 1_555 1_555
C43_4 C44_4 1_555 1_555
C45_4 C53_4 1_555 1_555
C46_4 C47_4 1_555 1_555
C48_4 C50_4 1_555 1_555
C51_4 C52_4 1_555 1_555
C51_4 C54_4 1_555 1_555
N11_2 Cd8_8 1_555 1_555
C55_4 N12_4 1_555 1_555
C56_4 C59_4 1_555 1_555
C58_4 C60_4 1_555 1_555
O5_4 Cd8_8 1_555 1_555

#END
