
###############################################################################
#
# This file contains modified crystal structure data generated from the
# MOF subset of the Cambridge Structural Database (CSD) v543 
# hosted by the Cambridge Crystallographic Data Centre (CCDC).
#
# This work is licensed under the Creative Commons
# Attribution-NonCommercial-ShareAlike 4.0 International License.
# To view a copy of this license, visit
# http://creativecommons.org/licenses/by-nc-sa/4.0/
# or send a letter to
# Creative Commons, PO Box 1866, Mountain View, CA 94042, USA.
#
# CIF created using the CSD Python API on 29 September 2022
# The structure has been converted into the P1 space group
# The structure has a 3D framework
# The original CSD entry OKOSUE is in the monoclinic crystal system
# The framework has been calculated to contain at least 10.0% void space
# The void calculation uses a probe of radius 1.32A, grid spacing 0.4
#
###############################################################################

data_OKOSUE
_chemical_formula_moiety         '(C304 H192 Cd24 O120)n'
_symmetry_cell_setting           triclinic
_symmetry_space_group_name_H-M   'P 1'
_symmetry_Int_Tables_number      1
_space_group_name_Hall           'P 1'
loop_
_symmetry_equiv_pos_site_id
_symmetry_equiv_pos_as_xyz
1 x,y,z
_cell_length_a                   36.061(5)
_cell_length_b                   18.233(3)
_cell_length_c                   25.146(4)
_cell_angle_alpha                90
_cell_angle_beta                 121.237(7)
_cell_angle_gamma                90
_cell_volume                     14136.6
loop_
_atom_site_label
_atom_site_type_symbol
_atom_site_fract_x
_atom_site_fract_y
_atom_site_fract_z
O3 O 0.20204(12) 0.2532(2) 0.2240(2)
O4 O 0.25850(12) 0.3218(2) 0.24917(18)
O5 O 0.62286(12) 0.0666(3) 0.5636(3)
O6 O 0.61153(14) 0.1553(3) 0.6133(3)
O13 O 0.32545(10) 0.04566(19) 0.48067(17)
H1 H 0.3264 0.0503 0.5150
H2 H 0.3480 0.0646 0.4838
C1 C 0.27676(16) 0.0711(3) 0.3140(3)
C2 C 0.25148(17) 0.1305(3) 0.2817(3)
H7 H 0.2215 0.1254 0.2570
C3 C 0.27073(16) 0.1984(3) 0.2861(3)
C4 C 0.31527(16) 0.2050(3) 0.3217(3)
H8 H 0.3280 0.2500 0.3235
C5 C 0.34149(17) 0.1464(3) 0.3547(3)
C6 C 0.32172(16) 0.0795(3) 0.3497(3)
H9 H 0.3389 0.0390 0.3706
C8 C 0.24251(16) 0.2626(3) 0.2514(3)
C9 C 0.38931(16) 0.1523(3) 0.3958(3)
C10 C 0.40727(19) 0.2097(4) 0.4391(3)
H10 H 0.3893 0.2457 0.4400
C11 C 0.45061(19) 0.2128(4) 0.4797(4)
H11 H 0.4619 0.2513 0.5081
C12 C 0.47889(17) 0.1602(4) 0.4802(3)
C13 C 0.52437(19) 0.1606(4) 0.5237(3)
H12 H 0.5361 0.1964 0.5545
C14 C 0.55082(17) 0.1103(4) 0.5212(3)
C15 C 0.5338(2) 0.0566(4) 0.4753(4)
H13 H 0.5523 0.0228 0.4732
C16 C 0.4895(2) 0.0527(4) 0.4325(4)
H14 H 0.4785 0.0159 0.4026
C17 C 0.46141(17) 0.1048(4) 0.4345(3)
C18 C 0.41611(17) 0.1014(4) 0.3939(3)
H15 H 0.4043 0.0634 0.3652
C19 C 0.59853(19) 0.1108(5) 0.5690(4)
Cd5 Cd 0.290724(11) 0.37224(2) 0.192826(19)
Cd7 Cd 0.181950(11) 0.36042(2) 0.173769(19)
Cd8 Cd 0.681950(11) 0.13958(2) 0.673769(19)
Cd10 Cd 0.677202(12) 0.07240(3) 0.54229(2)
Cd1 Cd 0.209276(11) 0.87224(2) 0.307174(19)
Cd2 Cd 0.318050(11) 0.86042(2) 0.326231(19)
Cd3 Cd 0.322798(12) 0.92760(3) 0.45771(2)
O1 O 0.21725(11) 0.9883(2) 0.2751(2)
O2 O 0.28083(11) 0.9474(2) 0.34769(18)
O7 O 0.28122(12) 0.8902(3) 0.4937(2)
O8 O 0.22533(13) 0.9246(2) 0.4009(2)
O9 O 0.25639(11) 0.7270(2) 0.62969(19)
O10 O 0.18866(12) 0.6871(2) 0.59220(19)
O14 O 0.31684(10) 0.94096(19) 0.25710(17)
H3 H 0.3157 0.9175 0.2270
H4 H 0.2948 0.9687 0.2434
O15 O 0.37767(10) 0.88859(19) 0.55886(17)
H5 H 0.3743 0.9102 0.5860
H6 H 0.3760 0.8425 0.5621
C7 C 0.25653(16) 0.9980(3) 0.3112(2)
C20 C 0.21103(16) 0.8621(3) 0.4717(3)
C21 C 0.22729(15) 0.8178(3) 0.5238(3)
H16 H 0.2571 0.8110 0.5491
C22 C 0.19963(15) 0.7835(3) 0.5386(2)
C23 C 0.15538(16) 0.7960(3) 0.5022(3)
H17 H 0.1368 0.7735 0.5125
C24 C 0.13801(16) 0.8425(3) 0.4497(3)
C25 C 0.16657(16) 0.8732(3) 0.4344(3)
H18 H 0.1557 0.9016 0.3986
C26 C 0.24052(17) 0.8950(3) 0.4533(3)
C27 C 0.21670(15) 0.7294(3) 0.5920(3)
C28 C 0.09022(17) 0.8551(4) 0.4104(3)
C29 C 0.06120(17) 0.8080(4) 0.4083(3)
H19 H 0.0712 0.7652 0.4317
C30 C 0.01575(18) 0.8203(4) 0.3718(3)
C35 C 0.00025(18) 0.8827(4) 0.3356(3)
C36 C 0.0307(2) 0.9344(5) 0.3382(4)
H23 H 0.0210 0.9774 0.3151
C37 C 0.0746(2) 0.9209(5) 0.3752(4)
H24 H 0.0943 0.9553 0.3770
Cd6 Cd 0.290724(11) 0.62776(2) 0.692826(19)
Cd9 Cd 0.181950(11) 0.63958(2) 0.673769(19)
Cd11 Cd 0.177202(12) 0.57240(3) 0.54229(2)
O16 O 0.29796(12) 0.7532(2) 0.2760(2)
O17 O 0.24150(12) 0.8218(2) 0.25083(18)
O18 O 0.37714(12) 0.9334(3) 0.4364(3)
O19 O 0.38847(14) 0.8447(3) 0.3867(3)
O20 O 0.24361(11) 0.7730(2) 0.37031(19)
O21 O 0.31134(12) 0.8129(2) 0.40780(19)
O22 O 0.13575(15) 0.9133(4) 0.2767(3)
O23 O 0.14671(15) 0.8153(4) 0.2410(3)
O11 O 0.86425(15) 0.9133(4) 0.2233(3)
O12 O 0.85329(15) 0.8153(4) 0.2590(3)
C31 C 0.98560(19) 0.7670(5) 0.3681(4)
H20 H 0.9954 0.7224 0.3888
C32 C 0.9420(2) 0.7819(5) 0.3338(4)
H21 H 0.9223 0.7481 0.3329
C33 C 0.92641(17) 0.8490(4) 0.2992(3)
C34 C 0.95481(19) 0.8953(5) 0.2989(3)
H22 H 0.9447 0.9370 0.2740
C38 C 0.87843(19) 0.8614(5) 0.2589(3)
Cd4 Cd 0.790724(11) 0.87224(2) 0.192826(19)
C31_2 C 0.01440(19) 0.7670(5) 0.1319(4)
H20_2 H 0.0046 0.7224 0.1112
C32_2 C 0.0580(2) 0.7819(5) 0.1662(4)
H21_2 H 0.0777 0.7481 0.1671
C33_2 C 0.07359(17) 0.8490(4) 0.2008(3)
C34_2 C 0.04519(19) 0.8953(5) 0.2011(3)
H22_2 H 0.0553 0.9370 0.2260
C38_2 C 0.12157(19) 0.8614(5) 0.2411(3)
O3_2 O 0.79796(12) 0.2532(2) 0.2760(2)
O4_2 O 0.74150(12) 0.3218(2) 0.25083(18)
O13_2 O 0.67455(10) 0.04566(19) 0.01933(17)
H2_2 H 0.6520 0.0646 0.0162
C1_2 C 0.72324(16) 0.0711(3) 0.1860(3)
C2_2 C 0.74852(17) 0.1305(3) 0.2183(3)
H7_2 H 0.7785 0.1254 0.2430
C3_2 C 0.72927(16) 0.1984(3) 0.2139(3)
C4_2 C 0.68473(16) 0.2050(3) 0.1783(3)
H8_2 H 0.6720 0.2500 0.1765
C5_2 C 0.65851(17) 0.1464(3) 0.1453(3)
C6_2 C 0.67828(16) 0.0795(3) 0.1503(3)
H9_2 H 0.6611 0.0390 0.1294
C8_2 C 0.75749(16) 0.2626(3) 0.2486(3)
C9_2 C 0.61069(16) 0.1523(3) 0.1042(3)
C10_2 C 0.59273(19) 0.2097(4) 0.0609(3)
H10_2 H 0.6107 0.2457 0.0600
C11_2 C 0.54939(19) 0.2128(4) 0.0203(4)
C12_2 C 0.52111(17) 0.1602(4) 0.0198(3)
C15_2 C 0.4662(2) 0.0566(4) 0.0247(4)
H13_2 H 0.4477 0.0228 0.0268
C16_2 C 0.5105(2) 0.0527(4) 0.0675(4)
H14_2 H 0.5215 0.0159 0.0974
C17_2 C 0.53859(17) 0.1048(4) 0.0655(3)
C18_2 C 0.58389(17) 0.1014(4) 0.1061(3)
H15_2 H 0.5957 0.0634 0.1348
Cd5_2 Cd 0.709276(11) 0.37224(2) 0.307174(19)
Cd7_2 Cd 0.818050(11) 0.36042(2) 0.326231(19)
O5_2 O 0.37714(12) 0.0666(3) 0.9364(3)
O6_2 O 0.38847(14) 0.1553(3) 0.8867(3)
H1_2 H 0.6736 0.0503 0.9850
H11_2 H 0.5381 0.2513 0.9919
C13_2 C 0.47563(19) 0.1606(4) 0.9763(3)
H12_2 H 0.4639 0.1964 0.9455
C14_2 C 0.44918(17) 0.1103(4) 0.9788(3)
C19_2 C 0.40147(19) 0.1108(5) 0.9310(4)
Cd8_2 Cd 0.318050(11) 0.13958(2) 0.826231(19)
Cd10_2 Cd 0.322798(12) 0.07240(3) 0.95771(2)
Cd2_2 Cd 0.681950(11) 0.86042(2) 0.173769(19)
Cd3_2 Cd 0.677202(12) 0.92760(3) 0.04229(2)
O1_2 O 0.78275(11) 0.9883(2) 0.2249(2)
O2_2 O 0.71917(11) 0.9474(2) 0.15231(18)
O7_2 O 0.71878(12) 0.8902(3) 0.0063(2)
O8_2 O 0.77467(13) 0.9246(2) 0.0991(2)
O14_2 O 0.68316(10) 0.94096(19) 0.24290(17)
H3_2 H 0.6843 0.9175 0.2730
H4_2 H 0.7052 0.9687 0.2566
C7_2 C 0.74347(16) 0.9980(3) 0.1888(2)
C20_2 C 0.78897(16) 0.8621(3) 0.0283(3)
C24_2 C 0.86199(16) 0.8425(3) 0.0503(3)
C25_2 C 0.83343(16) 0.8732(3) 0.0656(3)
H18_2 H 0.8443 0.9016 0.1014
C26_2 C 0.75948(17) 0.8950(3) 0.0467(3)
C28_2 C 0.90978(17) 0.8551(4) 0.0896(3)
C29_2 C 0.93880(17) 0.8080(4) 0.0917(3)
H19_2 H 0.9288 0.7652 0.0683
C30_2 C 0.98425(18) 0.8203(4) 0.1282(3)
C35_2 C 0.99975(18) 0.8827(4) 0.1644(3)
C36_2 C 0.9693(2) 0.9344(5) 0.1618(4)
H23_2 H 0.9790 0.9774 0.1849
C37_2 C 0.9254(2) 0.9209(5) 0.1248(4)
H24_2 H 0.9057 0.9553 0.1230
O16_2 O 0.70204(12) 0.7532(2) 0.2240(2)
O17_2 O 0.75850(12) 0.8218(2) 0.24917(18)
O18_2 O 0.62286(12) 0.9334(3) 0.0636(3)
O19_2 O 0.61153(14) 0.8447(3) 0.1133(3)
O20_2 O 0.75639(11) 0.7730(2) 0.12969(19)
O21_2 O 0.68866(12) 0.8129(2) 0.09220(19)
O9_2 O 0.74361(11) 0.7270(2) 0.87031(19)
O10_2 O 0.81134(12) 0.6871(2) 0.90780(19)
O15_2 O 0.62233(10) 0.88859(19) 0.94114(17)
H5_2 H 0.6257 0.9102 0.9140
H6_2 H 0.6240 0.8425 0.9379
C21_2 C 0.77271(15) 0.8178(3) 0.9762(3)
H16_2 H 0.7429 0.8110 0.9509
C22_2 C 0.80037(15) 0.7835(3) 0.9614(2)
C23_2 C 0.84462(16) 0.7960(3) 0.9978(3)
H17_2 H 0.8632 0.7735 0.9875
C27_2 C 0.78330(15) 0.7294(3) 0.9080(3)
Cd6_2 Cd 0.709276(11) 0.62776(2) 0.807174(19)
Cd9_2 Cd 0.818050(11) 0.63958(2) 0.826231(19)
Cd11_2 Cd 0.822798(12) 0.57240(3) 0.95771(2)
O5_3 O 0.12286(12) 0.5666(3) 0.5636(3)
O6_3 O 0.11153(14) 0.6553(3) 0.6133(3)
C13_3 C 0.02437(19) 0.6606(4) 0.5237(3)
H12_3 H 0.0361 0.6964 0.5545
C14_3 C 0.05082(17) 0.6103(4) 0.5212(3)
C15_3 C 0.0338(2) 0.5566(4) 0.4753(4)
H13_3 H 0.0523 0.5228 0.4732
C19_3 C 0.09853(19) 0.6108(5) 0.5690(4)
Cd3_3 Cd 0.822798(12) 0.42760(3) 0.45771(2)
O1_3 O 0.71725(11) 0.4883(2) 0.2751(2)
O2_3 O 0.78083(11) 0.4474(2) 0.34769(18)
O7_3 O 0.78122(12) 0.3902(3) 0.4937(2)
O8_3 O 0.72533(13) 0.4246(2) 0.4009(2)
O9_3 O 0.75639(11) 0.2270(2) 0.62969(19)
O10_3 O 0.68866(12) 0.1871(2) 0.59220(19)
O11_2 O 0.36425(15) 0.4133(4) 0.2233(3)
O12_2 O 0.35329(15) 0.3153(4) 0.2590(3)
O13_3 O 0.82545(10) 0.54566(19) 0.48067(17)
H1_3 H 0.8264 0.5503 0.5150
H2_3 H 0.8480 0.5646 0.4838
O14_3 O 0.81684(10) 0.44096(19) 0.25710(17)
H3_3 H 0.8157 0.4175 0.2270
H4_3 H 0.7948 0.4687 0.2434
O15_3 O 0.87767(10) 0.38859(19) 0.55886(17)
H5_3 H 0.8743 0.4102 0.5860
H6_3 H 0.8760 0.3425 0.5621
C1_3 C 0.77676(16) 0.5711(3) 0.3140(3)
C2_3 C 0.75148(17) 0.6305(3) 0.2817(3)
H7_3 H 0.7215 0.6254 0.2570
C3_3 C 0.77073(16) 0.6984(3) 0.2861(3)
C4_3 C 0.81527(16) 0.7050(3) 0.3217(3)
H8_3 H 0.8280 0.7500 0.3235
C5_3 C 0.84149(17) 0.6464(3) 0.3547(3)
C6_3 C 0.82172(16) 0.5795(3) 0.3497(3)
H9_3 H 0.8389 0.5390 0.3706
C7_3 C 0.75653(16) 0.4980(3) 0.3112(2)
C8_3 C 0.74251(16) 0.7626(3) 0.2514(3)
C9_3 C 0.88931(16) 0.6523(3) 0.3958(3)
C10_3 C 0.90727(19) 0.7097(4) 0.4391(3)
H10_3 H 0.8893 0.7457 0.4400
C11_3 C 0.95061(19) 0.7128(4) 0.4797(4)
H11_3 H 0.9619 0.7513 0.5081
C12_3 C 0.97889(17) 0.6602(4) 0.4802(3)
C16_3 C 0.9895(2) 0.5527(4) 0.4325(4)
H14_3 H 0.9785 0.5159 0.4026
C17_3 C 0.96141(17) 0.6048(4) 0.4345(3)
C18_3 C 0.91611(17) 0.6014(4) 0.3939(3)
H15_3 H 0.9043 0.5634 0.3652
C20_3 C 0.71103(16) 0.3621(3) 0.4717(3)
C21_3 C 0.72729(15) 0.3178(3) 0.5238(3)
H16_3 H 0.7571 0.3110 0.5491
C22_3 C 0.69963(15) 0.2835(3) 0.5386(2)
C23_3 C 0.65538(16) 0.2960(3) 0.5022(3)
H17_3 H 0.6368 0.2735 0.5125
C24_3 C 0.63801(16) 0.3425(3) 0.4497(3)
C25_3 C 0.66657(16) 0.3732(3) 0.4344(3)
H18_3 H 0.6557 0.4016 0.3986
C26_3 C 0.74052(17) 0.3950(3) 0.4533(3)
C27_3 C 0.71670(15) 0.2294(3) 0.5920(3)
C28_3 C 0.59022(17) 0.3551(4) 0.4104(3)
C29_3 C 0.56120(17) 0.3080(4) 0.4083(3)
H19_3 H 0.5712 0.2652 0.4317
C30_3 C 0.51575(18) 0.3203(4) 0.3718(3)
C31_3 C 0.48560(19) 0.2670(5) 0.3681(4)
H20_3 H 0.4954 0.2224 0.3888
C32_3 C 0.4420(2) 0.2819(5) 0.3338(4)
H21_3 H 0.4223 0.2481 0.3329
C33_3 C 0.42641(17) 0.3490(4) 0.2992(3)
C34_3 C 0.45481(19) 0.3953(5) 0.2989(3)
H22_3 H 0.4447 0.4370 0.2740
C35_3 C 0.50025(18) 0.3827(4) 0.3356(3)
C36_3 C 0.5307(2) 0.4344(5) 0.3382(4)
H23_3 H 0.5210 0.4774 0.3151
C37_3 C 0.5746(2) 0.4209(5) 0.3752(4)
H24_3 H 0.5943 0.4553 0.3770
C38_3 C 0.37843(19) 0.3614(5) 0.2589(3)
Cd6_3 Cd 0.790724(11) 0.12776(2) 0.692826(19)
O18_3 O 0.87714(12) 0.4334(3) 0.4364(3)
O19_3 O 0.88847(14) 0.3447(3) 0.3867(3)
O20_3 O 0.74361(11) 0.2730(2) 0.37031(19)
O21_3 O 0.81134(12) 0.3129(2) 0.40780(19)
O22_2 O 0.63575(15) 0.4133(4) 0.2767(3)
O23_2 O 0.64671(15) 0.3153(4) 0.2410(3)
Cd3_4 Cd 0.177202(12) 0.42760(3) 0.04229(2)
O1_4 O 0.28275(11) 0.4883(2) 0.2249(2)
O2_4 O 0.21917(11) 0.4474(2) 0.15231(18)
O7_4 O 0.21878(12) 0.3902(3) 0.0063(2)
O8_4 O 0.27467(13) 0.4246(2) 0.0991(2)
O13_4 O 0.17455(10) 0.54566(19) 0.01933(17)
H2_4 H 0.1520 0.5646 0.0162
O14_4 O 0.18316(10) 0.44096(19) 0.24290(17)
H3_4 H 0.1843 0.4175 0.2730
H4_4 H 0.2052 0.4687 0.2566
C1_4 C 0.22324(16) 0.5711(3) 0.1860(3)
C2_4 C 0.24852(17) 0.6305(3) 0.2183(3)
H7_4 H 0.2785 0.6254 0.2430
C3_4 C 0.22927(16) 0.6984(3) 0.2139(3)
C4_4 C 0.18473(16) 0.7050(3) 0.1783(3)
H8_4 H 0.1720 0.7500 0.1765
C5_4 C 0.15851(17) 0.6464(3) 0.1453(3)
C6_4 C 0.17828(16) 0.5795(3) 0.1503(3)
H9_4 H 0.1611 0.5390 0.1294
C7_4 C 0.24347(16) 0.4980(3) 0.1888(2)
C8_4 C 0.25749(16) 0.7626(3) 0.2486(3)
C9_4 C 0.11069(16) 0.6523(3) 0.1042(3)
C10_4 C 0.09273(19) 0.7097(4) 0.0609(3)
H10_4 H 0.1107 0.7457 0.0600
C11_4 C 0.04939(19) 0.7128(4) 0.0203(4)
C12_4 C 0.02111(17) 0.6602(4) 0.0198(3)
C16_4 C 0.0105(2) 0.5527(4) 0.0675(4)
H14_4 H 0.0215 0.5159 0.0974
C17_4 C 0.03859(17) 0.6048(4) 0.0655(3)
C18_4 C 0.08389(17) 0.6014(4) 0.1061(3)
H15_4 H 0.0957 0.5634 0.1348
C20_4 C 0.28897(16) 0.3621(3) 0.0283(3)
C24_4 C 0.36199(16) 0.3425(3) 0.0503(3)
C25_4 C 0.33343(16) 0.3732(3) 0.0656(3)
H18_4 H 0.3443 0.4016 0.1014
C26_4 C 0.25948(17) 0.3950(3) 0.0467(3)
C28_4 C 0.40978(17) 0.3551(4) 0.0896(3)
C29_4 C 0.43880(17) 0.3080(4) 0.0917(3)
H19_4 H 0.4288 0.2652 0.0683
C30_4 C 0.48425(18) 0.3203(4) 0.1282(3)
C31_4 C 0.51440(19) 0.2670(5) 0.1319(4)
H20_4 H 0.5046 0.2224 0.1112
C32_4 C 0.5580(2) 0.2819(5) 0.1662(4)
H21_4 H 0.5777 0.2481 0.1671
C33_4 C 0.57359(17) 0.3490(4) 0.2008(3)
C34_4 C 0.54519(19) 0.3953(5) 0.2011(3)
H22_4 H 0.5553 0.4370 0.2260
C35_4 C 0.49975(18) 0.3827(4) 0.1644(3)
C36_4 C 0.4693(2) 0.4344(5) 0.1618(4)
H23_4 H 0.4790 0.4774 0.1849
C37_4 C 0.4254(2) 0.4209(5) 0.1248(4)
H24_4 H 0.4057 0.4553 0.1230
C38_4 C 0.62157(19) 0.3614(5) 0.2411(3)
O18_4 O 0.12286(12) 0.4334(3) 0.0636(3)
O19_4 O 0.11153(14) 0.3447(3) 0.1133(3)
O20_4 O 0.25639(11) 0.2730(2) 0.12969(19)
O21_4 O 0.18866(12) 0.3129(2) 0.09220(19)
O9_4 O 0.24361(11) 0.2270(2) 0.87031(19)
O10_4 O 0.31134(12) 0.1871(2) 0.90780(19)
H1_4 H 0.1736 0.5503 0.9850
O15_4 O 0.12233(10) 0.38859(19) 0.94114(17)
H5_4 H 0.1257 0.4102 0.9140
H6_4 H 0.1240 0.3425 0.9379
H11_4 H 0.0381 0.7513 0.9919
C21_4 C 0.27271(15) 0.3178(3) 0.9762(3)
H16_4 H 0.2429 0.3110 0.9509
C22_4 C 0.30037(15) 0.2835(3) 0.9614(2)
C23_4 C 0.34462(16) 0.2960(3) 0.9978(3)
H17_4 H 0.3632 0.2735 0.9875
C27_4 C 0.28330(15) 0.2294(3) 0.9080(3)
Cd6_4 Cd 0.209276(11) 0.12776(2) 0.807174(19)
O5_4 O 0.87714(12) 0.5666(3) 0.9364(3)
O6_4 O 0.88847(14) 0.6553(3) 0.8867(3)
C13_4 C 0.97563(19) 0.6606(4) 0.9763(3)
H12_4 H 0.9639 0.6964 0.9455
C14_4 C 0.94918(17) 0.6103(4) 0.9788(3)
C19_4 C 0.90147(19) 0.6108(5) 0.9310(4)
O11_3 O 0.13575(15) 0.0867(4) 0.7767(3)
O12_3 O 0.14671(15) 0.1847(4) 0.7410(3)
C31_5 C 0.01440(19) 0.2330(5) 0.6319(4)
H20_5 H 0.0046 0.2776 0.6112
C32_5 C 0.0580(2) 0.2181(5) 0.6662(4)
H21_5 H 0.0777 0.2519 0.6671
C33_5 C 0.07359(17) 0.1510(4) 0.7008(3)
C34_5 C 0.04519(19) 0.1047(5) 0.7011(3)
H22_5 H 0.0553 0.0630 0.7260
C38_5 C 0.12157(19) 0.1386(5) 0.7411(3)
O1_5 O 0.78275(11) 0.0117(2) 0.7249(2)
O2_5 O 0.71917(11) 0.0526(2) 0.65231(18)
O7_5 O 0.71878(12) 0.1098(3) 0.5063(2)
O8_5 O 0.77467(13) 0.0754(2) 0.5991(2)
O14_5 O 0.68316(10) 0.05904(19) 0.74290(17)
H3_5 H 0.6843 0.0825 0.7730
H4_5 H 0.7052 0.0313 0.7566
O15_5 O 0.62233(10) 0.11141(19) 0.44114(17)
H5_5 H 0.6257 0.0898 0.4140
H6_5 H 0.6240 0.1575 0.4379
C7_5 C 0.74347(16) 0.0020(3) 0.6888(2)
C20_5 C 0.78897(16) 0.1379(3) 0.5283(3)
C21_5 C 0.77271(15) 0.1822(3) 0.4762(3)
H16_5 H 0.7429 0.1890 0.4509
C22_5 C 0.80037(15) 0.2165(3) 0.4614(2)
C23_5 C 0.84462(16) 0.2040(3) 0.4978(3)
H17_5 H 0.8632 0.2265 0.4875
C24_5 C 0.86199(16) 0.1575(3) 0.5503(3)
C25_5 C 0.83343(16) 0.1268(3) 0.5656(3)
H18_5 H 0.8443 0.0984 0.6014
C26_5 C 0.75948(17) 0.1050(3) 0.5467(3)
C27_5 C 0.78330(15) 0.2706(3) 0.4080(3)
C28_5 C 0.90978(17) 0.1449(4) 0.5896(3)
C29_5 C 0.93880(17) 0.1920(4) 0.5917(3)
H19_5 H 0.9288 0.2348 0.5683
C30_5 C 0.98425(18) 0.1797(4) 0.6282(3)
C35_5 C 0.99975(18) 0.1173(4) 0.6644(3)
C36_5 C 0.9693(2) 0.0656(5) 0.6618(4)
H23_5 H 0.9790 0.0226 0.6849
C37_5 C 0.9254(2) 0.0791(5) 0.6248(4)
H24_5 H 0.9057 0.0447 0.6230
O16_3 O 0.70204(12) 0.2468(2) 0.7240(2)
O17_3 O 0.75850(12) 0.1782(2) 0.74917(18)
O22_3 O 0.86425(15) 0.0867(4) 0.7233(3)
O23_3 O 0.85329(15) 0.1847(4) 0.7590(3)
O3_3 O 0.79796(12) 0.7468(2) 0.7760(2)
O4_3 O 0.74150(12) 0.6782(2) 0.75083(18)
O13_5 O 0.67455(10) 0.95434(19) 0.51933(17)
H1_5 H 0.6736 0.9497 0.4850
H2_5 H 0.6520 0.9354 0.5162
C1_5 C 0.72324(16) 0.9289(3) 0.6860(3)
C2_5 C 0.74852(17) 0.8695(3) 0.7183(3)
H7_5 H 0.7785 0.8746 0.7430
C3_5 C 0.72927(16) 0.8016(3) 0.7139(3)
C4_5 C 0.68473(16) 0.7950(3) 0.6783(3)
H8_5 H 0.6720 0.7500 0.6765
C5_5 C 0.65851(17) 0.8536(3) 0.6453(3)
C6_5 C 0.67828(16) 0.9205(3) 0.6503(3)
H9_5 H 0.6611 0.9610 0.6294
C8_5 C 0.75749(16) 0.7374(3) 0.7486(3)
C9_5 C 0.61069(16) 0.8477(3) 0.6042(3)
C10_5 C 0.59273(19) 0.7903(4) 0.5609(3)
H10_5 H 0.6107 0.7543 0.5600
C11_5 C 0.54939(19) 0.7872(4) 0.5203(4)
H11_5 H 0.5381 0.7487 0.4919
C12_5 C 0.52111(17) 0.8398(4) 0.5198(3)
C13_5 C 0.47563(19) 0.8394(4) 0.4763(3)
H12_5 H 0.4639 0.8036 0.4455
C14_5 C 0.44918(17) 0.8897(4) 0.4788(3)
C15_4 C 0.4662(2) 0.9434(4) 0.5247(4)
H13_4 H 0.4477 0.9772 0.5268
C16_5 C 0.5105(2) 0.9473(4) 0.5675(4)
H14_5 H 0.5215 0.9841 0.5974
C17_5 C 0.53859(17) 0.8952(4) 0.5655(3)
C18_5 C 0.58389(17) 0.8986(4) 0.6061(3)
H15_5 H 0.5957 0.9366 0.6348
C19_5 C 0.40147(19) 0.8892(5) 0.4310(4)
O15_6 O 0.37767(10) 0.11141(19) 0.05886(17)
H5_6 H 0.3743 0.0898 0.0860
H6_6 H 0.3760 0.1575 0.0621
C21_6 C 0.22729(15) 0.1822(3) 0.0238(3)
H16_6 H 0.2571 0.1890 0.0491
C22_6 C 0.19963(15) 0.2165(3) 0.0386(2)
C23_6 C 0.15538(16) 0.2040(3) 0.0022(3)
H17_6 H 0.1368 0.2265 0.0125
C27_6 C 0.21670(15) 0.2706(3) 0.0920(3)
O1_6 O 0.21725(11) 0.0117(2) 0.7751(2)
O2_6 O 0.28083(11) 0.0526(2) 0.84769(18)
O7_6 O 0.28122(12) 0.1098(3) 0.9937(2)
O8_6 O 0.22533(13) 0.0754(2) 0.9009(2)
O14_6 O 0.31684(10) 0.05904(19) 0.75710(17)
H3_6 H 0.3157 0.0825 0.7270
H4_6 H 0.2948 0.0313 0.7434
C7_6 C 0.25653(16) 0.0020(3) 0.8112(2)
C20_6 C 0.21103(16) 0.1379(3) 0.9717(3)
C24_6 C 0.13801(16) 0.1575(3) 0.9497(3)
C25_6 C 0.16657(16) 0.1268(3) 0.9344(3)
H18_6 H 0.1557 0.0984 0.8986
C26_6 C 0.24052(17) 0.1050(3) 0.9533(3)
C28_6 C 0.09022(17) 0.1449(4) 0.9104(3)
C29_6 C 0.06120(17) 0.1920(4) 0.9083(3)
H19_6 H 0.0712 0.2348 0.9317
C30_6 C 0.01575(18) 0.1797(4) 0.8718(3)
C35_6 C 0.00025(18) 0.1173(4) 0.8356(3)
C36_6 C 0.0307(2) 0.0656(5) 0.8382(4)
H23_6 H 0.0210 0.0226 0.8151
C37_6 C 0.0746(2) 0.0791(5) 0.8752(4)
H24_6 H 0.0943 0.0447 0.8770
O16_4 O 0.29796(12) 0.2468(2) 0.7760(2)
O17_4 O 0.24150(12) 0.1782(2) 0.75083(18)
H1_6 H 0.3264 0.9497 0.0150
H11_6 H 0.4619 0.7487 0.0081
C13_6 C 0.52437(19) 0.8394(4) 0.0237(3)
H12_6 H 0.5361 0.8036 0.0545
C14_6 C 0.55082(17) 0.8897(4) 0.0212(3)
C19_6 C 0.59853(19) 0.8892(5) 0.0690(4)
O3_4 O 0.20204(12) 0.7468(2) 0.7240(2)
O4_4 O 0.25850(12) 0.6782(2) 0.74917(18)
O13_6 O 0.32545(10) 0.95434(19) 0.98067(17)
H2_6 H 0.3480 0.9354 0.9838
C1_6 C 0.27676(16) 0.9289(3) 0.8140(3)
C2_6 C 0.25148(17) 0.8695(3) 0.7817(3)
H7_6 H 0.2215 0.8746 0.7570
C3_6 C 0.27073(16) 0.8016(3) 0.7861(3)
C4_6 C 0.31527(16) 0.7950(3) 0.8217(3)
H8_6 H 0.3280 0.7500 0.8235
C5_6 C 0.34149(17) 0.8536(3) 0.8547(3)
C6_6 C 0.32172(16) 0.9205(3) 0.8497(3)
H9_6 H 0.3389 0.9610 0.8706
C8_6 C 0.24251(16) 0.7374(3) 0.7514(3)
C9_6 C 0.38931(16) 0.8477(3) 0.8958(3)
C10_6 C 0.40727(19) 0.7903(4) 0.9391(3)
H10_6 H 0.3893 0.7543 0.9400
C11_6 C 0.45061(19) 0.7872(4) 0.9797(4)
C12_6 C 0.47889(17) 0.8398(4) 0.9802(3)
C15_5 C 0.5338(2) 0.9434(4) 0.9753(4)
H13_5 H 0.5523 0.9772 0.9732
C16_6 C 0.4895(2) 0.9473(4) 0.9325(4)
H14_6 H 0.4785 0.9841 0.9026
C17_6 C 0.46141(17) 0.8952(4) 0.9345(3)
C18_6 C 0.41611(17) 0.8986(4) 0.8939(3)
H15_6 H 0.4043 0.9366 0.8652
C31_6 C 0.98560(19) 0.2330(5) 0.8681(4)
H20_6 H 0.9954 0.2776 0.8888
C32_6 C 0.9420(2) 0.2181(5) 0.8338(4)
H21_6 H 0.9223 0.2519 0.8329
C33_6 C 0.92641(17) 0.1510(4) 0.7992(3)
C34_6 C 0.95481(19) 0.1047(5) 0.7989(3)
H22_6 H 0.9447 0.0630 0.7740
C38_6 C 0.87843(19) 0.1386(5) 0.7589(3)
O1_7 O 0.28275(11) 0.5117(2) 0.7249(2)
O2_7 O 0.21917(11) 0.5526(2) 0.65231(18)
O7_7 O 0.21878(12) 0.6098(3) 0.5063(2)
O8_7 O 0.27467(13) 0.5754(2) 0.5991(2)
O11_4 O 0.63575(15) 0.5867(4) 0.7767(3)
O12_4 O 0.64671(15) 0.6847(4) 0.7410(3)
O13_7 O 0.17455(10) 0.45434(19) 0.51933(17)
H1_7 H 0.1736 0.4497 0.4850
H2_7 H 0.1520 0.4354 0.5162
O14_7 O 0.18316(10) 0.55904(19) 0.74290(17)
H3_7 H 0.1843 0.5825 0.7730
H4_7 H 0.2052 0.5313 0.7566
O15_7 O 0.12233(10) 0.61141(19) 0.44114(17)
H5_7 H 0.1257 0.5898 0.4140
H6_7 H 0.1240 0.6575 0.4379
C1_7 C 0.22324(16) 0.4289(3) 0.6860(3)
C2_7 C 0.24852(17) 0.3695(3) 0.7183(3)
H7_7 H 0.2785 0.3746 0.7430
C3_7 C 0.22927(16) 0.3016(3) 0.7139(3)
C4_7 C 0.18473(16) 0.2950(3) 0.6783(3)
H8_7 H 0.1720 0.2500 0.6765
C5_7 C 0.15851(17) 0.3536(3) 0.6453(3)
C6_7 C 0.17828(16) 0.4205(3) 0.6503(3)
H9_7 H 0.1611 0.4610 0.6294
C7_7 C 0.24347(16) 0.5020(3) 0.6888(2)
C8_7 C 0.25749(16) 0.2374(3) 0.7486(3)
C9_7 C 0.11069(16) 0.3477(3) 0.6042(3)
C10_7 C 0.09273(19) 0.2903(4) 0.5609(3)
H10_7 H 0.1107 0.2543 0.5600
C11_7 C 0.04939(19) 0.2872(4) 0.5203(4)
H11_7 H 0.0381 0.2487 0.4919
C12_7 C 0.02111(17) 0.3398(4) 0.5198(3)
C16_7 C 0.0105(2) 0.4473(4) 0.5675(4)
H14_7 H 0.0215 0.4841 0.5974
C17_7 C 0.03859(17) 0.3952(4) 0.5655(3)
C18_7 C 0.08389(17) 0.3986(4) 0.6061(3)
H15_7 H 0.0957 0.4366 0.6348
C20_7 C 0.28897(16) 0.6379(3) 0.5283(3)
C21_7 C 0.27271(15) 0.6822(3) 0.4762(3)
H16_7 H 0.2429 0.6890 0.4509
C22_7 C 0.30037(15) 0.7165(3) 0.4614(2)
C23_7 C 0.34462(16) 0.7040(3) 0.4978(3)
H17_7 H 0.3632 0.7265 0.4875
C24_7 C 0.36199(16) 0.6575(3) 0.5503(3)
C25_7 C 0.33343(16) 0.6268(3) 0.5656(3)
H18_7 H 0.3443 0.5984 0.6014
C26_7 C 0.25948(17) 0.6050(3) 0.5467(3)
C27_7 C 0.28330(15) 0.7706(3) 0.4080(3)
C28_7 C 0.40978(17) 0.6449(4) 0.5896(3)
C29_7 C 0.43880(17) 0.6920(4) 0.5917(3)
H19_7 H 0.4288 0.7348 0.5683
C30_7 C 0.48425(18) 0.6797(4) 0.6282(3)
C31_7 C 0.51440(19) 0.7330(5) 0.6319(4)
H20_7 H 0.5046 0.7776 0.6112
C32_7 C 0.5580(2) 0.7181(5) 0.6662(4)
H21_7 H 0.5777 0.7519 0.6671
C33_7 C 0.57359(17) 0.6510(4) 0.7008(3)
C34_7 C 0.54519(19) 0.6047(5) 0.7011(3)
H22_7 H 0.5553 0.5630 0.7260
C35_7 C 0.49975(18) 0.6173(4) 0.6644(3)
C36_7 C 0.4693(2) 0.5656(5) 0.6618(4)
H23_7 H 0.4790 0.5226 0.6849
C37_7 C 0.4254(2) 0.5791(5) 0.6248(4)
H24_7 H 0.4057 0.5447 0.6230
C38_7 C 0.62157(19) 0.6386(5) 0.7411(3)
O22_4 O 0.36425(15) 0.5867(4) 0.7233(3)
O23_4 O 0.35329(15) 0.6847(4) 0.7590(3)
C13_7 C 0.97563(19) 0.3394(4) 0.4763(3)
H12_7 H 0.9639 0.3036 0.4455
C14_7 C 0.94918(17) 0.3897(4) 0.4788(3)
C15_6 C 0.9662(2) 0.4434(4) 0.5247(4)
H13_6 H 0.9477 0.4772 0.5268
C19_7 C 0.90147(19) 0.3892(5) 0.4310(4)
C13_8 C 0.02437(19) 0.3394(4) 0.0237(3)
H12_8 H 0.0361 0.3036 0.0545
C14_8 C 0.05082(17) 0.3897(4) 0.0212(3)
C19_8 C 0.09853(19) 0.3892(5) 0.0690(4)
H1_8 H 0.8264 0.4497 0.0150
O15_8 O 0.87767(10) 0.61141(19) 0.05886(17)
H5_8 H 0.8743 0.5898 0.0860
H6_8 H 0.8760 0.6575 0.0621
H11_8 H 0.9619 0.2487 0.0081
C21_8 C 0.72729(15) 0.6822(3) 0.0238(3)
H16_8 H 0.7571 0.6890 0.0491
C22_8 C 0.69963(15) 0.7165(3) 0.0386(2)
C23_8 C 0.65538(16) 0.7040(3) 0.0022(3)
H17_8 H 0.6368 0.7265 0.0125
C27_8 C 0.71670(15) 0.7706(3) 0.0920(3)
O1_8 O 0.71725(11) 0.5117(2) 0.7751(2)
O2_8 O 0.78083(11) 0.5526(2) 0.84769(18)
O7_8 O 0.78122(12) 0.6098(3) 0.9937(2)
O8_8 O 0.72533(13) 0.5754(2) 0.9009(2)
O13_8 O 0.82545(10) 0.45434(19) 0.98067(17)
H2_8 H 0.8480 0.4354 0.9838
O14_8 O 0.81684(10) 0.55904(19) 0.75710(17)
H3_8 H 0.8157 0.5825 0.7270
H4_8 H 0.7948 0.5313 0.7434
C1_8 C 0.77676(16) 0.4289(3) 0.8140(3)
C2_8 C 0.75148(17) 0.3695(3) 0.7817(3)
H7_8 H 0.7215 0.3746 0.7570
C3_8 C 0.77073(16) 0.3016(3) 0.7861(3)
C4_8 C 0.81527(16) 0.2950(3) 0.8217(3)
H8_8 H 0.8280 0.2500 0.8235
C5_8 C 0.84149(17) 0.3536(3) 0.8547(3)
C6_8 C 0.82172(16) 0.4205(3) 0.8497(3)
H9_8 H 0.8389 0.4610 0.8706
C7_8 C 0.75653(16) 0.5020(3) 0.8112(2)
C8_8 C 0.74251(16) 0.2374(3) 0.7514(3)
C9_8 C 0.88931(16) 0.3477(3) 0.8958(3)
C10_8 C 0.90727(19) 0.2903(4) 0.9391(3)
H10_8 H 0.8893 0.2543 0.9400
C11_8 C 0.95061(19) 0.2872(4) 0.9797(4)
C12_8 C 0.97889(17) 0.3398(4) 0.9802(3)
C16_8 C 0.9895(2) 0.4473(4) 0.9325(4)
H14_8 H 0.9785 0.4841 0.9026
C17_8 C 0.96141(17) 0.3952(4) 0.9345(3)
C18_8 C 0.91611(17) 0.3986(4) 0.8939(3)
H15_8 H 0.9043 0.4366 0.8652
C20_8 C 0.71103(16) 0.6379(3) 0.9717(3)
C24_8 C 0.63801(16) 0.6575(3) 0.9497(3)
C25_8 C 0.66657(16) 0.6268(3) 0.9344(3)
H18_8 H 0.6557 0.5984 0.8986
C26_8 C 0.74052(17) 0.6050(3) 0.9533(3)
C28_8 C 0.59022(17) 0.6449(4) 0.9104(3)
C29_8 C 0.56120(17) 0.6920(4) 0.9083(3)
H19_8 H 0.5712 0.7348 0.9317
C30_8 C 0.51575(18) 0.6797(4) 0.8718(3)
C31_8 C 0.48560(19) 0.7330(5) 0.8681(4)
H20_8 H 0.4954 0.7776 0.8888
C32_8 C 0.4420(2) 0.7181(5) 0.8338(4)
H21_8 H 0.4223 0.7519 0.8329
C33_8 C 0.42641(17) 0.6510(4) 0.7992(3)
C34_8 C 0.45481(19) 0.6047(5) 0.7989(3)
H22_8 H 0.4447 0.5630 0.7740
C35_8 C 0.50025(18) 0.6173(4) 0.8356(3)
C36_8 C 0.5307(2) 0.5656(5) 0.8382(4)
H23_8 H 0.5210 0.5226 0.8151
C37_8 C 0.5746(2) 0.5791(5) 0.8752(4)
H24_8 H 0.5943 0.5447 0.8770
C38_8 C 0.37843(19) 0.6386(5) 0.7589(3)
C15_7 C 0.9662(2) 0.5566(4) 0.0247(4)
H13_7 H 0.9477 0.5228 0.0268
C15_8 C 0.0338(2) 0.4434(4) 0.9753(4)
H13_8 H 0.0523 0.4772 0.9732
loop_
_geom_bond_atom_site_label_1
_geom_bond_atom_site_label_2
_geom_bond_site_symmetry_1
_geom_bond_site_symmetry_2
O3 C8 1_555 1_555
O4 C8 1_555 1_555
O5 C19 1_555 1_555
O6 C19 1_555 1_555
H1 O13 1_555 1_555
H2 O13 1_555 1_555
C1 C2 1_555 1_555
C2 H7 1_555 1_555
C3 C2 1_555 1_555
C4 C3 1_555 1_555
H8 C4 1_555 1_555
C5 C4 1_555 1_555
C6 C1 1_555 1_555
H9 C6 1_555 1_555
C8 C3 1_555 1_555
C9 C5 1_555 1_555
C10 C9 1_555 1_555
H10 C10 1_555 1_555
C11 C10 1_555 1_555
H11 C11 1_555 1_555
C12 C11 1_555 1_555
C13 C12 1_555 1_555
H12 C13 1_555 1_555
C14 C13 1_555 1_555
C15 C14 1_555 1_555
H13 C15 1_555 1_555
C16 C15 1_555 1_555
H14 C16 1_555 1_555
C17 C12 1_555 1_555
C18 C9 1_555 1_555
H15 C18 1_555 1_555
C19 C14 1_555 1_555
Cd5 O4 1_555 1_555
Cd7 O3 1_555 1_555
Cd8 O5 1_555 1_555
Cd10 O5 1_555 1_555
O4 Cd7 1_555 1_555
O6 Cd8 1_555 1_555
C5 C6 1_555 1_555
C16 C17 1_555 1_555
C17 C18 1_555 1_555
Cd1 O1 1_555 1_555
Cd2 O2 1_555 1_555
Cd3 O2 1_555 1_555
O1 C7 1_555 1_555
O2 Cd1 1_555 1_555
O7 Cd3 1_555 1_555
O8 Cd1 1_555 1_555
O9 C27 1_555 1_555
O10 C27 1_555 1_555
O14 Cd2 1_555 1_555
H3 O14 1_555 1_555
H4 O14 1_555 1_555
O15 Cd3 1_555 1_555
H5 O15 1_555 1_555
H6 O15 1_555 1_555
C7 O2 1_555 1_555
C20 C21 1_555 1_555
C21 H16 1_555 1_555
C22 C21 1_555 1_555
C23 C22 1_555 1_555
H17 C23 1_555 1_555
C24 C23 1_555 1_555
C25 C20 1_555 1_555
H18 C25 1_555 1_555
C26 O7 1_555 1_555
C27 C22 1_555 1_555
C28 C24 1_555 1_555
C29 C28 1_555 1_555
H19 C29 1_555 1_555
C30 C29 1_555 1_555
C35 C30 1_555 1_555
C36 C35 1_555 1_555
H23 C36 1_555 1_555
C37 C28 1_555 1_555
H24 C37 1_555 1_555
Cd6 O9 1_555 1_555
Cd9 O10 1_555 1_555
Cd11 O10 1_555 1_555
O16 Cd2 1_555 1_555
O17 Cd1 1_555 1_555
O18 Cd2 1_555 1_555
O19 Cd2 1_555 1_555
O20 Cd1 1_555 1_555
O21 Cd2 1_555 1_555
O22 Cd1 1_555 1_555
O23 Cd1 1_555 1_555
Cd2 O17 1_555 1_555
Cd3 O18 1_555 1_555
Cd3 O21 1_555 1_555
O8 C26 1_555 1_555
C20 C26 1_555 1_555
C24 C25 1_555 1_555
C36 C37 1_555 1_555
O11 C38 1_555 1_555
O12 C38 1_555 1_555
H20 C31 1_555 1_555
C32 C31 1_555 1_555
H21 C32 1_555 1_555
C33 C32 1_555 1_555
C34 C33 1_555 1_555
H22 C34 1_555 1_555
C38 C33 1_555 1_555
Cd4 O11 1_555 1_555
O12 Cd4 1_555 1_555
O22 C38_2 1_555 1_555
O23 C38_2 1_555 1_555
H20_2 C31_2 1_555 1_555
C32_2 C31_2 1_555 1_555
H21_2 C32_2 1_555 1_555
C33_2 C32_2 1_555 1_555
C34_2 C33_2 1_555 1_555
H22_2 C34_2 1_555 1_555
C38_2 C33_2 1_555 1_555
O3_2 C8_2 1_555 1_555
O4_2 C8_2 1_555 1_555
H2_2 O13_2 1_555 1_555
C1_2 C2_2 1_555 1_555
C2_2 H7_2 1_555 1_555
C3_2 C2_2 1_555 1_555
C4_2 C3_2 1_555 1_555
H8_2 C4_2 1_555 1_555
C5_2 C4_2 1_555 1_555
C6_2 C1_2 1_555 1_555
H9_2 C6_2 1_555 1_555
C8_2 C3_2 1_555 1_555
C9_2 C5_2 1_555 1_555
C10_2 C9_2 1_555 1_555
H10_2 C10_2 1_555 1_555
C11_2 C10_2 1_555 1_555
C12_2 C11_2 1_555 1_555
H13_2 C15_2 1_555 1_555
C16_2 C15_2 1_555 1_555
H14_2 C16_2 1_555 1_555
C17_2 C12_2 1_555 1_555
C18_2 C9_2 1_555 1_555
H15_2 C18_2 1_555 1_555
Cd5_2 O4_2 1_555 1_555
Cd7_2 O3_2 1_555 1_555
O4_2 Cd7_2 1_555 1_555
C5_2 C6_2 1_555 1_555
C16_2 C17_2 1_555 1_555
C17_2 C18_2 1_555 1_555
O5_2 C19_2 1_555 1_555
O6_2 C19_2 1_555 1_555
H12_2 C13_2 1_555 1_555
C14_2 C13_2 1_555 1_555
C19_2 C14_2 1_555 1_555
Cd8_2 O5_2 1_555 1_555
Cd10_2 O5_2 1_555 1_555
O6_2 Cd8_2 1_555 1_555
Cd4 O1_2 1_555 1_555
Cd2_2 O2_2 1_555 1_555
Cd3_2 O2_2 1_555 1_555
O1_2 C7_2 1_555 1_555
O2_2 Cd4 1_555 1_555
O7_2 Cd3_2 1_555 1_555
O8_2 Cd4 1_555 1_555
O14_2 Cd2_2 1_555 1_555
H3_2 O14_2 1_555 1_555
H4_2 O14_2 1_555 1_555
C7_2 O2_2 1_555 1_555
C25_2 C20_2 1_555 1_555
H18_2 C25_2 1_555 1_555
C26_2 O7_2 1_555 1_555
C28_2 C24_2 1_555 1_555
C29_2 C28_2 1_555 1_555
H19_2 C29_2 1_555 1_555
C30_2 C29_2 1_555 1_555
C35_2 C30_2 1_555 1_555
C36_2 C35_2 1_555 1_555
H23_2 C36_2 1_555 1_555
C37_2 C28_2 1_555 1_555
H24_2 C37_2 1_555 1_555
O16_2 Cd2_2 1_555 1_555
O17_2 Cd4 1_555 1_555
O18_2 Cd2_2 1_555 1_555
O19_2 Cd2_2 1_555 1_555
O20_2 Cd4 1_555 1_555
O21_2 Cd2_2 1_555 1_555
Cd2_2 O17_2 1_555 1_555
Cd3_2 O18_2 1_555 1_555
Cd3_2 O21_2 1_555 1_555
O8_2 C26_2 1_555 1_555
C20_2 C26_2 1_555 1_555
C24_2 C25_2 1_555 1_555
C36_2 C37_2 1_555 1_555
O9_2 C27_2 1_555 1_555
O10_2 C27_2 1_555 1_555
H5_2 O15_2 1_555 1_555
H6_2 O15_2 1_555 1_555
C21_2 H16_2 1_555 1_555
C22_2 C21_2 1_555 1_555
C23_2 C22_2 1_555 1_555
H17_2 C23_2 1_555 1_555
C27_2 C22_2 1_555 1_555
Cd6_2 O9_2 1_555 1_555
Cd9_2 O10_2 1_555 1_555
Cd11_2 O10_2 1_555 1_555
O5_3 C19_3 1_555 1_555
O6_3 C19_3 1_555 1_555
H12_3 C13_3 1_555 1_555
C14_3 C13_3 1_555 1_555
C15_3 C14_3 1_555 1_555
H13_3 C15_3 1_555 1_555
C19_3 C14_3 1_555 1_555
Cd9 O5_3 1_555 1_555
Cd11 O5_3 1_555 1_555
O6_3 Cd9 1_555 1_555
Cd5_2 O1_3 1_555 1_555
Cd7_2 O2_3 1_555 1_555
Cd3_3 O2_3 1_555 1_555
O1_3 C7_3 1_555 1_555
O2_3 Cd5_2 1_555 1_555
O16_2 C8_3 1_555 1_555
O17_2 C8_3 1_555 1_555
O7_3 Cd3_3 1_555 1_555
O8_3 Cd5_2 1_555 1_555
O9_3 C27_3 1_555 1_555
O10_3 C27_3 1_555 1_555
O11_2 C38_3 1_555 1_555
O12_2 C38_3 1_555 1_555
O13_3 Cd3_3 1_555 1_555
H1_3 O13_3 1_555 1_555
H2_3 O13_3 1_555 1_555
O14_3 Cd7_2 1_555 1_555
H3_3 O14_3 1_555 1_555
H4_3 O14_3 1_555 1_555
O15_3 Cd3_3 1_555 1_555
H5_3 O15_3 1_555 1_555
H6_3 O15_3 1_555 1_555
C1_3 C2_3 1_555 1_555
C2_3 H7_3 1_555 1_555
C3_3 C2_3 1_555 1_555
C4_3 C3_3 1_555 1_555
H8_3 C4_3 1_555 1_555
C5_3 C4_3 1_555 1_555
C6_3 C1_3 1_555 1_555
H9_3 C6_3 1_555 1_555
C7_3 O2_3 1_555 1_555
C8_3 C3_3 1_555 1_555
C9_3 C5_3 1_555 1_555
C10_3 C9_3 1_555 1_555
H10_3 C10_3 1_555 1_555
C11_3 C10_3 1_555 1_555
H11_3 C11_3 1_555 1_555
C12_3 C11_3 1_555 1_555
H14_3 C16_3 1_555 1_555
C17_3 C12_3 1_555 1_555
C18_3 C9_3 1_555 1_555
H15_3 C18_3 1_555 1_555
C20_3 C21_3 1_555 1_555
C21_3 H16_3 1_555 1_555
C22_3 C21_3 1_555 1_555
C23_3 C22_3 1_555 1_555
H17_3 C23_3 1_555 1_555
C24_3 C23_3 1_555 1_555
C25_3 C20_3 1_555 1_555
H18_3 C25_3 1_555 1_555
C26_3 O7_3 1_555 1_555
C27_3 C22_3 1_555 1_555
C28_3 C24_3 1_555 1_555
C29_3 C28_3 1_555 1_555
H19_3 C29_3 1_555 1_555
C30_3 C29_3 1_555 1_555
C31_3 C30_3 1_555 1_555
H20_3 C31_3 1_555 1_555
C32_3 C31_3 1_555 1_555
H21_3 C32_3 1_555 1_555
C33_3 C32_3 1_555 1_555
C34_3 C33_3 1_555 1_555
H22_3 C34_3 1_555 1_555
C35_3 C30_3 1_555 1_555
C36_3 C35_3 1_555 1_555
H23_3 C36_3 1_555 1_555
C37_3 C28_3 1_555 1_555
H24_3 C37_3 1_555 1_555
C38_3 C33_3 1_555 1_555
Cd5 O11_2 1_555 1_555
Cd6_3 O9_3 1_555 1_555
Cd8 O10_3 1_555 1_555
Cd10 O10_3 1_555 1_555
O18_3 Cd7_2 1_555 1_555
O19_3 Cd7_2 1_555 1_555
O20_3 Cd5_2 1_555 1_555
O21_3 Cd7_2 1_555 1_555
O22_2 Cd5_2 1_555 1_555
O23_2 Cd5_2 1_555 1_555
Cd3_3 O18_3 1_555 1_555
Cd3_3 O21_3 1_555 1_555
O8_3 C26_3 1_555 1_555
O12_2 Cd5 1_555 1_555
C1_3 C7_3 1_555 1_555
C5_3 C6_3 1_555 1_555
C16_3 C17_3 1_555 1_555
C17_3 C18_3 1_555 1_555
C20_3 C26_3 1_555 1_555
C24_3 C25_3 1_555 1_555
C34_3 C35_3 1_555 1_555
C36_3 C37_3 1_555 1_555
Cd5 O1_4 1_555 1_555
Cd7 O2_4 1_555 1_555
Cd3_4 O2_4 1_555 1_555
O1_4 C7_4 1_555 1_555
O2_4 Cd5 1_555 1_555
O16 C8_4 1_555 1_555
O17 C8_4 1_555 1_555
O7_4 Cd3_4 1_555 1_555
O8_4 Cd5 1_555 1_555
O22_2 C38_4 1_555 1_555
O23_2 C38_4 1_555 1_555
O13_4 Cd3_4 1_555 1_555
H2_4 O13_4 1_555 1_555
O14_4 Cd7 1_555 1_555
H3_4 O14_4 1_555 1_555
H4_4 O14_4 1_555 1_555
C1_4 C2_4 1_555 1_555
C2_4 H7_4 1_555 1_555
C3_4 C2_4 1_555 1_555
C4_4 C3_4 1_555 1_555
H8_4 C4_4 1_555 1_555
C5_4 C4_4 1_555 1_555
C6_4 C1_4 1_555 1_555
H9_4 C6_4 1_555 1_555
C7_4 O2_4 1_555 1_555
C8_4 C3_4 1_555 1_555
C9_4 C5_4 1_555 1_555
C10_4 C9_4 1_555 1_555
H10_4 C10_4 1_555 1_555
C11_4 C10_4 1_555 1_555
C12_4 C11_4 1_555 1_555
H14_4 C16_4 1_555 1_555
C17_4 C12_4 1_555 1_555
C18_4 C9_4 1_555 1_555
H15_4 C18_4 1_555 1_555
C25_4 C20_4 1_555 1_555
H18_4 C25_4 1_555 1_555
C26_4 O7_4 1_555 1_555
C28_4 C24_4 1_555 1_555
C29_4 C28_4 1_555 1_555
H19_4 C29_4 1_555 1_555
C30_4 C29_4 1_555 1_555
C31_4 C30_4 1_555 1_555
H20_4 C31_4 1_555 1_555
C32_4 C31_4 1_555 1_555
H21_4 C32_4 1_555 1_555
C33_4 C32_4 1_555 1_555
C34_4 C33_4 1_555 1_555
H22_4 C34_4 1_555 1_555
C35_4 C30_4 1_555 1_555
C36_4 C35_4 1_555 1_555
H23_4 C36_4 1_555 1_555
C37_4 C28_4 1_555 1_555
H24_4 C37_4 1_555 1_555
C38_4 C33_4 1_555 1_555
O18_4 Cd7 1_555 1_555
O19_4 Cd7 1_555 1_555
O20_4 Cd5 1_555 1_555
O21_4 Cd7 1_555 1_555
Cd3_4 O18_4 1_555 1_555
Cd3_4 O21_4 1_555 1_555
O8_4 C26_4 1_555 1_555
C1_4 C7_4 1_555 1_555
C5_4 C6_4 1_555 1_555
C16_4 C17_4 1_555 1_555
C17_4 C18_4 1_555 1_555
C20_4 C26_4 1_555 1_555
C24_4 C25_4 1_555 1_555
C34_4 C35_4 1_555 1_555
C36_4 C37_4 1_555 1_555
O9_4 C27_4 1_555 1_555
O10_4 C27_4 1_555 1_555
H5_4 O15_4 1_555 1_555
H6_4 O15_4 1_555 1_555
C21_4 H16_4 1_555 1_555
C22_4 C21_4 1_555 1_555
C23_4 C22_4 1_555 1_555
H17_4 C23_4 1_555 1_555
C27_4 C22_4 1_555 1_555
Cd6_4 O9_4 1_555 1_555
Cd8_2 O10_4 1_555 1_555
Cd10_2 O10_4 1_555 1_555
O5_4 C19_4 1_555 1_555
O6_4 C19_4 1_555 1_555
H12_4 C13_4 1_555 1_555
C14_4 C13_4 1_555 1_555
C19_4 C14_4 1_555 1_555
Cd9_2 O5_4 1_555 1_555
Cd11_2 O5_4 1_555 1_555
O6_4 Cd9_2 1_555 1_555
O11_3 C38_5 1_555 1_555
O12_3 C38_5 1_555 1_555
H20_5 C31_5 1_555 1_555
C32_5 C31_5 1_555 1_555
H21_5 C32_5 1_555 1_555
C33_5 C32_5 1_555 1_555
C34_5 C33_5 1_555 1_555
H22_5 C34_5 1_555 1_555
C38_5 C33_5 1_555 1_555
Cd6_4 O11_3 1_555 1_555
O12_3 Cd6_4 1_555 1_555
Cd6_3 O1_5 1_555 1_555
Cd8 O2_5 1_555 1_555
Cd10 O2_5 1_555 1_555
O1_5 C7_5 1_555 1_555
O2_5 Cd6_3 1_555 1_555
O7_5 Cd10 1_555 1_555
O8_5 Cd6_3 1_555 1_555
O20_3 C27_5 1_555 1_555
O21_3 C27_5 1_555 1_555
O14_5 Cd8 1_555 1_555
H3_5 O14_5 1_555 1_555
H4_5 O14_5 1_555 1_555
O15_5 Cd10 1_555 1_555
H5_5 O15_5 1_555 1_555
H6_5 O15_5 1_555 1_555
C7_5 O2_5 1_555 1_555
C20_5 C21_5 1_555 1_555
C21_5 H16_5 1_555 1_555
C22_5 C21_5 1_555 1_555
C23_5 C22_5 1_555 1_555
H17_5 C23_5 1_555 1_555
C24_5 C23_5 1_555 1_555
C25_5 C20_5 1_555 1_555
H18_5 C25_5 1_555 1_555
C26_5 O7_5 1_555 1_555
C27_5 C22_5 1_555 1_555
C28_5 C24_5 1_555 1_555
C29_5 C28_5 1_555 1_555
H19_5 C29_5 1_555 1_555
C30_5 C29_5 1_555 1_555
C35_5 C30_5 1_555 1_555
C36_5 C35_5 1_555 1_555
H23_5 C36_5 1_555 1_555
C37_5 C28_5 1_555 1_555
H24_5 C37_5 1_555 1_555
O16_3 Cd8 1_555 1_555
O17_3 Cd6_3 1_555 1_555
O22_3 Cd6_3 1_555 1_555
O23_3 Cd6_3 1_555 1_555
Cd8 O17_3 1_555 1_555
O8_5 C26_5 1_555 1_555
C20_5 C26_5 1_555 1_555
C24_5 C25_5 1_555 1_555
C36_5 C37_5 1_555 1_555
O3_3 C8_5 1_555 1_555
O4_3 C8_5 1_555 1_555
O18 C19_5 1_555 1_555
O19 C19_5 1_555 1_555
H1_5 O13_5 1_555 1_555
H2_5 O13_5 1_555 1_555
C1_5 C2_5 1_555 1_555
C2_5 H7_5 1_555 1_555
C3_5 C2_5 1_555 1_555
C4_5 C3_5 1_555 1_555
H8_5 C4_5 1_555 1_555
C5_5 C4_5 1_555 1_555
C6_5 C1_5 1_555 1_555
H9_5 C6_5 1_555 1_555
C8_5 C3_5 1_555 1_555
C9_5 C5_5 1_555 1_555
C10_5 C9_5 1_555 1_555
H10_5 C10_5 1_555 1_555
C11_5 C10_5 1_555 1_555
H11_5 C11_5 1_555 1_555
C12_5 C11_5 1_555 1_555
C13_5 C12_5 1_555 1_555
H12_5 C13_5 1_555 1_555
C14_5 C13_5 1_555 1_555
C15_4 C14_5 1_555 1_555
H13_4 C15_4 1_555 1_555
C16_5 C15_4 1_555 1_555
H14_5 C16_5 1_555 1_555
C17_5 C12_5 1_555 1_555
C18_5 C9_5 1_555 1_555
H15_5 C18_5 1_555 1_555
C19_5 C14_5 1_555 1_555
Cd6_2 O4_3 1_555 1_555
Cd9_2 O3_3 1_555 1_555
O4_3 Cd9_2 1_555 1_555
C5_5 C6_5 1_555 1_555
C16_5 C17_5 1_555 1_555
C17_5 C18_5 1_555 1_555
O20_4 C27_6 1_555 1_555
O21_4 C27_6 1_555 1_555
H5_6 O15_6 1_555 1_555
H6_6 O15_6 1_555 1_555
C21_6 H16_6 1_555 1_555
C22_6 C21_6 1_555 1_555
C23_6 C22_6 1_555 1_555
H17_6 C23_6 1_555 1_555
C27_6 C22_6 1_555 1_555
Cd6_4 O1_6 1_555 1_555
Cd8_2 O2_6 1_555 1_555
Cd10_2 O2_6 1_555 1_555
O1_6 C7_6 1_555 1_555
O2_6 Cd6_4 1_555 1_555
O7_6 Cd10_2 1_555 1_555
O8_6 Cd6_4 1_555 1_555
O14_6 Cd8_2 1_555 1_555
H3_6 O14_6 1_555 1_555
H4_6 O14_6 1_555 1_555
C7_6 O2_6 1_555 1_555
C25_6 C20_6 1_555 1_555
H18_6 C25_6 1_555 1_555
C26_6 O7_6 1_555 1_555
C28_6 C24_6 1_555 1_555
C29_6 C28_6 1_555 1_555
H19_6 C29_6 1_555 1_555
C30_6 C29_6 1_555 1_555
C35_6 C30_6 1_555 1_555
C36_6 C35_6 1_555 1_555
H23_6 C36_6 1_555 1_555
C37_6 C28_6 1_555 1_555
H24_6 C37_6 1_555 1_555
O16_4 Cd8_2 1_555 1_555
O17_4 Cd6_4 1_555 1_555
Cd8_2 O17_4 1_555 1_555
O8_6 C26_6 1_555 1_555
C20_6 C26_6 1_555 1_555
C24_6 C25_6 1_555 1_555
C36_6 C37_6 1_555 1_555
O18_2 C19_6 1_555 1_555
O19_2 C19_6 1_555 1_555
H12_6 C13_6 1_555 1_555
C14_6 C13_6 1_555 1_555
C19_6 C14_6 1_555 1_555
O3_4 C8_6 1_555 1_555
O4_4 C8_6 1_555 1_555
H2_6 O13_6 1_555 1_555
C1_6 C2_6 1_555 1_555
C2_6 H7_6 1_555 1_555
C3_6 C2_6 1_555 1_555
C4_6 C3_6 1_555 1_555
H8_6 C4_6 1_555 1_555
C5_6 C4_6 1_555 1_555
C6_6 C1_6 1_555 1_555
H9_6 C6_6 1_555 1_555
C8_6 C3_6 1_555 1_555
C9_6 C5_6 1_555 1_555
C10_6 C9_6 1_555 1_555
H10_6 C10_6 1_555 1_555
C11_6 C10_6 1_555 1_555
C12_6 C11_6 1_555 1_555
H13_5 C15_5 1_555 1_555
C16_6 C15_5 1_555 1_555
H14_6 C16_6 1_555 1_555
C17_6 C12_6 1_555 1_555
C18_6 C9_6 1_555 1_555
H15_6 C18_6 1_555 1_555
Cd6 O4_4 1_555 1_555
Cd9 O3_4 1_555 1_555
O4_4 Cd9 1_555 1_555
C5_6 C6_6 1_555 1_555
C16_6 C17_6 1_555 1_555
C17_6 C18_6 1_555 1_555
O22_3 C38_6 1_555 1_555
O23_3 C38_6 1_555 1_555
H20_6 C31_6 1_555 1_555
C32_6 C31_6 1_555 1_555
H21_6 C32_6 1_555 1_555
C33_6 C32_6 1_555 1_555
C34_6 C33_6 1_555 1_555
H22_6 C34_6 1_555 1_555
C38_6 C33_6 1_555 1_555
Cd6 O1_7 1_555 1_555
Cd9 O2_7 1_555 1_555
Cd11 O2_7 1_555 1_555
O1_7 C7_7 1_555 1_555
O2_7 Cd6 1_555 1_555
O16_4 C8_7 1_555 1_555
O17_4 C8_7 1_555 1_555
O7_7 Cd11 1_555 1_555
O8_7 Cd6 1_555 1_555
O20 C27_7 1_555 1_555
O21 C27_7 1_555 1_555
O11_4 C38_7 1_555 1_555
O12_4 C38_7 1_555 1_555
O13_7 Cd11 1_555 1_555
H1_7 O13_7 1_555 1_555
H2_7 O13_7 1_555 1_555
O14_7 Cd9 1_555 1_555
H3_7 O14_7 1_555 1_555
H4_7 O14_7 1_555 1_555
O15_7 Cd11 1_555 1_555
H5_7 O15_7 1_555 1_555
H6_7 O15_7 1_555 1_555
C1_7 C2_7 1_555 1_555
C2_7 H7_7 1_555 1_555
C3_7 C2_7 1_555 1_555
C4_7 C3_7 1_555 1_555
H8_7 C4_7 1_555 1_555
C5_7 C4_7 1_555 1_555
C6_7 C1_7 1_555 1_555
H9_7 C6_7 1_555 1_555
C7_7 O2_7 1_555 1_555
C8_7 C3_7 1_555 1_555
C9_7 C5_7 1_555 1_555
C10_7 C9_7 1_555 1_555
H10_7 C10_7 1_555 1_555
C11_7 C10_7 1_555 1_555
H11_7 C11_7 1_555 1_555
C12_7 C11_7 1_555 1_555
H14_7 C16_7 1_555 1_555
C17_7 C12_7 1_555 1_555
C18_7 C9_7 1_555 1_555
H15_7 C18_7 1_555 1_555
C20_7 C21_7 1_555 1_555
C21_7 H16_7 1_555 1_555
C22_7 C21_7 1_555 1_555
C23_7 C22_7 1_555 1_555
H17_7 C23_7 1_555 1_555
C24_7 C23_7 1_555 1_555
C25_7 C20_7 1_555 1_555
H18_7 C25_7 1_555 1_555
C26_7 O7_7 1_555 1_555
C27_7 C22_7 1_555 1_555
C28_7 C24_7 1_555 1_555
C29_7 C28_7 1_555 1_555
H19_7 C29_7 1_555 1_555
C30_7 C29_7 1_555 1_555
C31_7 C30_7 1_555 1_555
H20_7 C31_7 1_555 1_555
C32_7 C31_7 1_555 1_555
H21_7 C32_7 1_555 1_555
C33_7 C32_7 1_555 1_555
C34_7 C33_7 1_555 1_555
H22_7 C34_7 1_555 1_555
C35_7 C30_7 1_555 1_555
C36_7 C35_7 1_555 1_555
H23_7 C36_7 1_555 1_555
C37_7 C28_7 1_555 1_555
H24_7 C37_7 1_555 1_555
C38_7 C33_7 1_555 1_555
Cd6_2 O11_4 1_555 1_555
O22_4 Cd6 1_555 1_555
O23_4 Cd6 1_555 1_555
O8_7 C26_7 1_555 1_555
O12_4 Cd6_2 1_555 1_555
C1_7 C7_7 1_555 1_555
C5_7 C6_7 1_555 1_555
C16_7 C17_7 1_555 1_555
C17_7 C18_7 1_555 1_555
C20_7 C26_7 1_555 1_555
C24_7 C25_7 1_555 1_555
C34_7 C35_7 1_555 1_555
C36_7 C37_7 1_555 1_555
O18_3 C19_7 1_555 1_555
O19_3 C19_7 1_555 1_555
H12_7 C13_7 1_555 1_555
C14_7 C13_7 1_555 1_555
C15_6 C14_7 1_555 1_555
H13_6 C15_6 1_555 1_555
C19_7 C14_7 1_555 1_555
O18_4 C19_8 1_555 1_555
O19_4 C19_8 1_555 1_555
H12_8 C13_8 1_555 1_555
C14_8 C13_8 1_555 1_555
C19_8 C14_8 1_555 1_555
O20_2 C27_8 1_555 1_555
O21_2 C27_8 1_555 1_555
H5_8 O15_8 1_555 1_555
H6_8 O15_8 1_555 1_555
C21_8 H16_8 1_555 1_555
C22_8 C21_8 1_555 1_555
C23_8 C22_8 1_555 1_555
H17_8 C23_8 1_555 1_555
C27_8 C22_8 1_555 1_555
Cd6_2 O1_8 1_555 1_555
Cd9_2 O2_8 1_555 1_555
Cd11_2 O2_8 1_555 1_555
O1_8 C7_8 1_555 1_555
O2_8 Cd6_2 1_555 1_555
O16_3 C8_8 1_555 1_555
O17_3 C8_8 1_555 1_555
O7_8 Cd11_2 1_555 1_555
O8_8 Cd6_2 1_555 1_555
O22_4 C38_8 1_555 1_555
O23_4 C38_8 1_555 1_555
O13_8 Cd11_2 1_555 1_555
H2_8 O13_8 1_555 1_555
O14_8 Cd9_2 1_555 1_555
H3_8 O14_8 1_555 1_555
H4_8 O14_8 1_555 1_555
C1_8 C2_8 1_555 1_555
C2_8 H7_8 1_555 1_555
C3_8 C2_8 1_555 1_555
C4_8 C3_8 1_555 1_555
H8_8 C4_8 1_555 1_555
C5_8 C4_8 1_555 1_555
C6_8 C1_8 1_555 1_555
H9_8 C6_8 1_555 1_555
C7_8 O2_8 1_555 1_555
C8_8 C3_8 1_555 1_555
C9_8 C5_8 1_555 1_555
C10_8 C9_8 1_555 1_555
H10_8 C10_8 1_555 1_555
C11_8 C10_8 1_555 1_555
C12_8 C11_8 1_555 1_555
H14_8 C16_8 1_555 1_555
C17_8 C12_8 1_555 1_555
C18_8 C9_8 1_555 1_555
H15_8 C18_8 1_555 1_555
C25_8 C20_8 1_555 1_555
H18_8 C25_8 1_555 1_555
C26_8 O7_8 1_555 1_555
C28_8 C24_8 1_555 1_555
C29_8 C28_8 1_555 1_555
H19_8 C29_8 1_555 1_555
C30_8 C29_8 1_555 1_555
C31_8 C30_8 1_555 1_555
H20_8 C31_8 1_555 1_555
C32_8 C31_8 1_555 1_555
H21_8 C32_8 1_555 1_555
C33_8 C32_8 1_555 1_555
C34_8 C33_8 1_555 1_555
H22_8 C34_8 1_555 1_555
C35_8 C30_8 1_555 1_555
C36_8 C35_8 1_555 1_555
H23_8 C36_8 1_555 1_555
C37_8 C28_8 1_555 1_555
H24_8 C37_8 1_555 1_555
C38_8 C33_8 1_555 1_555
O8_8 C26_8 1_555 1_555
C1_8 C7_8 1_555 1_555
C5_8 C6_8 1_555 1_555
C16_8 C17_8 1_555 1_555
C17_8 C18_8 1_555 1_555
C20_8 C26_8 1_555 1_555
C24_8 C25_8 1_555 1_555
C34_8 C35_8 1_555 1_555
C36_8 C37_8 1_555 1_555
H13_7 C15_7 1_555 1_555
H13_8 C15_8 1_555 1_555

#END
