
###############################################################################
#
# This file contains modified crystal structure data generated from the
# MOF subset of the Cambridge Structural Database (CSD) v543 
# hosted by the Cambridge Crystallographic Data Centre (CCDC).
#
# This work is licensed under the Creative Commons
# Attribution-NonCommercial-ShareAlike 4.0 International License.
# To view a copy of this license, visit
# http://creativecommons.org/licenses/by-nc-sa/4.0/
# or send a letter to
# Creative Commons, PO Box 1866, Mountain View, CA 94042, USA.
#
# CIF created using the CSD Python API on 29 September 2022
# The structure has been converted into the P1 space group
# The structure has a 3D framework
# The original CSD entry OKUJUB is in the monoclinic crystal system
# The framework has been calculated to contain at least 10.0% void space
# The void calculation uses a probe of radius 1.32A, grid spacing 0.4
# The framework is charged, counterions have been retained in the structure
# H atom positions have been added when not included in the experimental data
#
###############################################################################

data_OKUJUB
_chemical_formula_moiety         '(C1352 H1520 B48 N168 O336 Zn80 8-)n'
_symmetry_cell_setting           triclinic
_symmetry_space_group_name_H-M   'P 1'
_symmetry_Int_Tables_number      1
_space_group_name_Hall           'P 1'
loop_
_symmetry_equiv_pos_site_id
_symmetry_equiv_pos_as_xyz
1 x,y,z
_cell_length_a                   35.8409(2)
_cell_length_b                   42.7516(2)
_cell_length_c                   50.8130(5)
_cell_angle_alpha                90
_cell_angle_beta                 91.5280(10)
_cell_angle_gamma                90
_cell_volume                     77830.8
loop_
_atom_site_label
_atom_site_type_symbol
_atom_site_fract_x
_atom_site_fract_y
_atom_site_fract_z
N1 N 0.1970(5) 0.3910(4) 0.3926(4)
C1 C 0.1803(7) 0.4221(5) 0.3837(5)
H1 H 0.1859 0.4374 0.3979
H2 H 0.1941 0.4289 0.3681
C2 C 0.1415(6) 0.4249(5) 0.3771(4)
H3 H 0.1360 0.4465 0.3719
H4 H 0.1351 0.4108 0.3625
H5 H 0.1268 0.4194 0.3924
C3 C 0.1748(8) 0.3753(6) 0.4137(5)
H6 H 0.1536 0.3644 0.4050
H7 H 0.1909 0.3591 0.4221
C4 C 0.1600(9) 0.3943(8) 0.4344(5)
H8 H 0.1464 0.3810 0.4466
H9 H 0.1806 0.4047 0.4440
H10 H 0.1431 0.4100 0.4268
C5 C 0.2372(6) 0.3972(6) 0.4015(5)
H11 H 0.2373 0.4120 0.4165
H12 H 0.2485 0.3773 0.4079
C6 C 0.2604(7) 0.4103(6) 0.3803(6)
H13 H 0.2859 0.4138 0.3872
H14 H 0.2609 0.3955 0.3656
H15 H 0.2497 0.4302 0.3742
C7 C 0.1986(9) 0.3730(6) 0.3672(4)
H16 H 0.2111 0.3856 0.3536
H17 H 0.1731 0.3677 0.3607
C8 C 0.2212(9) 0.3427(6) 0.3732(5)
H18 H 0.2230 0.3303 0.3571
H19 H 0.2464 0.3483 0.3796
H20 H 0.2087 0.3305 0.3866
N1_2 N 0.8030(5) 0.3910(4) 0.1074(4)
C1_2 C 0.8197(7) 0.4221(5) 0.1163(5)
H1_2 H 0.8141 0.4374 0.1021
H2_2 H 0.8059 0.4289 0.1319
C2_2 C 0.8585(6) 0.4249(5) 0.1229(4)
H3_2 H 0.8640 0.4465 0.1281
H4_2 H 0.8649 0.4108 0.1375
H5_2 H 0.8732 0.4194 0.1076
C3_2 C 0.8252(8) 0.3753(6) 0.0863(5)
H6_2 H 0.8464 0.3644 0.0950
H7_2 H 0.8091 0.3591 0.0779
C4_2 C 0.8400(9) 0.3943(8) 0.0656(5)
H8_2 H 0.8536 0.3810 0.0534
H9_2 H 0.8194 0.4047 0.0560
H10_2 H 0.8569 0.4100 0.0732
C5_2 C 0.7628(6) 0.3972(6) 0.0985(5)
H11_2 H 0.7627 0.4120 0.0835
H12_2 H 0.7515 0.3773 0.0921
C6_2 C 0.7396(7) 0.4103(6) 0.1197(6)
H13_2 H 0.7141 0.4138 0.1128
H14_2 H 0.7391 0.3955 0.1344
H15_2 H 0.7503 0.4302 0.1258
C7_2 C 0.8014(9) 0.3730(6) 0.1328(4)
H16_2 H 0.7889 0.3856 0.1464
H17_2 H 0.8269 0.3677 0.1393
C8_2 C 0.7788(9) 0.3427(6) 0.1268(5)
H18_2 H 0.7770 0.3303 0.1429
H19_2 H 0.7536 0.3483 0.1204
H20_2 H 0.7913 0.3305 0.1134
N1_3 N 0.6970(5) 0.8910(4) 0.3926(4)
C1_3 C 0.6803(7) 0.9221(5) 0.3837(5)
H1_3 H 0.6859 0.9374 0.3979
H2_3 H 0.6941 0.9289 0.3681
C2_3 C 0.6415(6) 0.9249(5) 0.3771(4)
H3_3 H 0.6360 0.9465 0.3719
H4_3 H 0.6351 0.9108 0.3625
H5_3 H 0.6268 0.9194 0.3924
C3_3 C 0.6748(8) 0.8753(6) 0.4137(5)
H6_3 H 0.6536 0.8644 0.4050
H7_3 H 0.6909 0.8591 0.4221
C4_3 C 0.6600(9) 0.8943(8) 0.4344(5)
H8_3 H 0.6464 0.8810 0.4466
H9_3 H 0.6806 0.9047 0.4440
H10_3 H 0.6431 0.9100 0.4268
C5_3 C 0.7372(6) 0.8972(6) 0.4015(5)
H11_3 H 0.7373 0.9120 0.4165
H12_3 H 0.7485 0.8773 0.4079
C6_3 C 0.7604(7) 0.9103(6) 0.3803(6)
H13_3 H 0.7859 0.9138 0.3872
H14_3 H 0.7609 0.8955 0.3656
H15_3 H 0.7497 0.9302 0.3742
C7_3 C 0.6986(9) 0.8730(6) 0.3672(4)
H16_3 H 0.7111 0.8856 0.3536
H17_3 H 0.6731 0.8677 0.3607
C8_3 C 0.7212(9) 0.8427(6) 0.3732(5)
H18_3 H 0.7230 0.8303 0.3571
H19_3 H 0.7464 0.8483 0.3796
H20_3 H 0.7087 0.8305 0.3866
N1_4 N 0.3030(5) 0.8910(4) 0.1074(4)
C1_4 C 0.3197(7) 0.9221(5) 0.1163(5)
H1_4 H 0.3141 0.9374 0.1021
H2_4 H 0.3059 0.9289 0.1319
C2_4 C 0.3585(6) 0.9249(5) 0.1229(4)
H3_4 H 0.3640 0.9465 0.1281
H4_4 H 0.3649 0.9108 0.1375
H5_4 H 0.3732 0.9194 0.1076
C3_4 C 0.3252(8) 0.8753(6) 0.0863(5)
H6_4 H 0.3464 0.8644 0.0950
H7_4 H 0.3091 0.8591 0.0779
C4_4 C 0.3400(9) 0.8943(8) 0.0656(5)
H8_4 H 0.3536 0.8810 0.0534
H9_4 H 0.3194 0.9047 0.0560
H10_4 H 0.3569 0.9100 0.0732
C5_4 C 0.2628(6) 0.8972(6) 0.0985(5)
H11_4 H 0.2627 0.9120 0.0835
H12_4 H 0.2515 0.8773 0.0921
C6_4 C 0.2396(7) 0.9103(6) 0.1197(6)
H13_4 H 0.2141 0.9138 0.1128
H14_4 H 0.2391 0.8955 0.1344
H15_4 H 0.2503 0.9302 0.1258
C7_4 C 0.3014(9) 0.8730(6) 0.1328(4)
H16_4 H 0.2889 0.8856 0.1464
H17_4 H 0.3269 0.8677 0.1393
C8_4 C 0.2788(9) 0.8427(6) 0.1268(5)
H18_4 H 0.2770 0.8303 0.1429
H19_4 H 0.2536 0.8483 0.1204
H20_4 H 0.2913 0.8305 0.1134
N1_5 N 0.8030(5) 0.6090(4) 0.6074(4)
C1_5 C 0.8197(7) 0.5779(5) 0.6163(5)
H1_5 H 0.8141 0.5626 0.6021
H2_5 H 0.8059 0.5711 0.6319
C2_5 C 0.8585(6) 0.5751(5) 0.6229(4)
H3_5 H 0.8640 0.5535 0.6281
H4_5 H 0.8649 0.5892 0.6375
H5_5 H 0.8732 0.5806 0.6076
C3_5 C 0.8252(8) 0.6247(6) 0.5863(5)
H6_5 H 0.8464 0.6356 0.5950
H7_5 H 0.8091 0.6409 0.5779
C4_5 C 0.8400(9) 0.6057(8) 0.5656(5)
H8_5 H 0.8536 0.6190 0.5534
H9_5 H 0.8194 0.5953 0.5560
H10_5 H 0.8569 0.5900 0.5732
C5_5 C 0.7628(6) 0.6028(6) 0.5985(5)
H11_5 H 0.7627 0.5880 0.5835
H12_5 H 0.7515 0.6227 0.5921
C6_5 C 0.7396(7) 0.5897(6) 0.6197(6)
H13_5 H 0.7141 0.5862 0.6128
H14_5 H 0.7391 0.6045 0.6344
H15_5 H 0.7503 0.5698 0.6258
C7_5 C 0.8014(9) 0.6270(6) 0.6328(4)
H16_5 H 0.7889 0.6144 0.6464
H17_5 H 0.8269 0.6323 0.6393
C8_5 C 0.7788(9) 0.6573(6) 0.6268(5)
H18_5 H 0.7770 0.6697 0.6429
H19_5 H 0.7536 0.6517 0.6204
H20_5 H 0.7913 0.6695 0.6134
N1_6 N 0.1970(5) 0.6090(4) 0.8926(4)
C1_6 C 0.1803(7) 0.5779(5) 0.8837(5)
H1_6 H 0.1859 0.5626 0.8979
H2_6 H 0.1941 0.5711 0.8681
C2_6 C 0.1415(6) 0.5751(5) 0.8771(4)
H3_6 H 0.1360 0.5535 0.8719
H4_6 H 0.1351 0.5892 0.8625
H5_6 H 0.1268 0.5806 0.8924
C3_6 C 0.1748(8) 0.6247(6) 0.9137(5)
H6_6 H 0.1536 0.6356 0.9050
H7_6 H 0.1909 0.6409 0.9221
C4_6 C 0.1600(9) 0.6057(8) 0.9344(5)
H8_6 H 0.1464 0.6190 0.9466
H9_6 H 0.1806 0.5953 0.9440
H10_6 H 0.1431 0.5900 0.9268
C5_6 C 0.2372(6) 0.6028(6) 0.9015(5)
H11_6 H 0.2373 0.5880 0.9165
H12_6 H 0.2485 0.6227 0.9079
C6_6 C 0.2604(7) 0.5897(6) 0.8803(6)
H13_6 H 0.2859 0.5862 0.8872
H14_6 H 0.2609 0.6045 0.8656
H15_6 H 0.2497 0.5698 0.8742
C7_6 C 0.1986(9) 0.6270(6) 0.8672(4)
H16_6 H 0.2111 0.6144 0.8536
H17_6 H 0.1731 0.6323 0.8607
C8_6 C 0.2212(9) 0.6573(6) 0.8732(5)
H18_6 H 0.2230 0.6697 0.8571
H19_6 H 0.2464 0.6517 0.8796
H20_6 H 0.2087 0.6695 0.8866
N1_7 N 0.3030(5) 0.1090(4) 0.6074(4)
C1_7 C 0.3197(7) 0.0779(5) 0.6163(5)
H1_7 H 0.3141 0.0626 0.6021
H2_7 H 0.3059 0.0711 0.6319
C2_7 C 0.3585(6) 0.0751(5) 0.6229(4)
H3_7 H 0.3640 0.0535 0.6281
H4_7 H 0.3649 0.0892 0.6375
H5_7 H 0.3732 0.0806 0.6076
C3_7 C 0.3252(8) 0.1247(6) 0.5863(5)
H6_7 H 0.3464 0.1356 0.5950
H7_7 H 0.3091 0.1409 0.5779
C4_7 C 0.3400(9) 0.1057(8) 0.5656(5)
H8_7 H 0.3536 0.1190 0.5534
H9_7 H 0.3194 0.0953 0.5560
H10_7 H 0.3569 0.0900 0.5732
C5_7 C 0.2628(6) 0.1028(6) 0.5985(5)
H11_7 H 0.2627 0.0880 0.5835
H12_7 H 0.2515 0.1227 0.5921
C6_7 C 0.2396(7) 0.0897(6) 0.6197(6)
H13_7 H 0.2141 0.0862 0.6128
H14_7 H 0.2391 0.1045 0.6344
H15_7 H 0.2503 0.0698 0.6258
C7_7 C 0.3014(9) 0.1270(6) 0.6328(4)
H16_7 H 0.2889 0.1144 0.6464
H17_7 H 0.3269 0.1323 0.6393
C8_7 C 0.2788(9) 0.1573(6) 0.6268(5)
H18_7 H 0.2770 0.1697 0.6429
H19_7 H 0.2536 0.1517 0.6204
H20_7 H 0.2913 0.1695 0.6134
N1_8 N 0.6970(5) 0.1090(4) 0.8926(4)
C1_8 C 0.6803(7) 0.0779(5) 0.8837(5)
H1_8 H 0.6859 0.0626 0.8979
H2_8 H 0.6941 0.0711 0.8681
C2_8 C 0.6415(6) 0.0751(5) 0.8771(4)
H3_8 H 0.6360 0.0535 0.8719
H4_8 H 0.6351 0.0892 0.8625
H5_8 H 0.6268 0.0806 0.8924
C3_8 C 0.6748(8) 0.1247(6) 0.9137(5)
H6_8 H 0.6536 0.1356 0.9050
H7_8 H 0.6909 0.1409 0.9221
C4_8 C 0.6600(9) 0.1057(8) 0.9344(5)
H8_8 H 0.6464 0.1190 0.9466
H9_8 H 0.6806 0.0953 0.9440
H10_8 H 0.6431 0.0900 0.9268
C5_8 C 0.7372(6) 0.1028(6) 0.9015(5)
H11_8 H 0.7373 0.0880 0.9165
H12_8 H 0.7485 0.1227 0.9079
C6_8 C 0.7604(7) 0.0897(6) 0.8803(6)
H13_8 H 0.7859 0.0862 0.8872
H14_8 H 0.7609 0.1045 0.8656
H15_8 H 0.7497 0.0698 0.8742
C7_8 C 0.6986(9) 0.1270(6) 0.8672(4)
H16_8 H 0.7111 0.1144 0.8536
H17_8 H 0.6731 0.1323 0.8607
C8_8 C 0.7212(9) 0.1573(6) 0.8732(5)
H18_8 H 0.7230 0.1697 0.8571
H19_8 H 0.7464 0.1517 0.8796
H20_8 H 0.7087 0.1695 0.8866
N2 N 0.1557(8) 0.4741(5) 0.2248(5)
C9 C 0.1857(10) 0.4535(7) 0.2377(7)
H21 H 0.2089 0.4560 0.2279
H22 H 0.1907 0.4613 0.2558
C10 C 0.1767(13) 0.4189(6) 0.2393(7)
H23 H 0.1976 0.4078 0.2479
H24 H 0.1542 0.4159 0.2495
H25 H 0.1725 0.4105 0.2215
C11 C 0.1279(10) 0.4726(9) 0.2465(6)
H26 H 0.1199 0.4506 0.2489
H27 H 0.1401 0.4796 0.2632
C12 C 0.0942(11) 0.4924(10) 0.2408(6)
H28 H 0.0770 0.4907 0.2554
H29 H 0.1018 0.5143 0.2388
H30 H 0.0817 0.4852 0.2245
C13 C 0.1647(13) 0.5086(6) 0.2284(6)
H31 H 0.1843 0.5134 0.2156
H32 H 0.1421 0.5201 0.2223
C14 C 0.1767(12) 0.5232(6) 0.2528(5)
H33 H 0.1807 0.5456 0.2499
H34 H 0.1574 0.5203 0.2660
H35 H 0.2000 0.5135 0.2592
C15 C 0.1349(10) 0.4667(8) 0.1998(6)
H36 H 0.1177 0.4495 0.2043
H37 H 0.1189 0.4851 0.1962
C16 C 0.1496(15) 0.4579(10) 0.1740(6)
H38 H 0.1288 0.4545 0.1614
H39 H 0.1655 0.4748 0.1676
H40 H 0.1643 0.4387 0.1758
N2_2 N 0.8443(8) 0.4741(5) 0.2752(5)
C9_2 C 0.8143(10) 0.4535(7) 0.2623(7)
H21_2 H 0.7911 0.4560 0.2721
H22_2 H 0.8093 0.4613 0.2442
C10_2 C 0.8233(13) 0.4189(6) 0.2607(7)
H23_2 H 0.8024 0.4078 0.2521
H24_2 H 0.8458 0.4159 0.2505
H25_2 H 0.8275 0.4105 0.2785
C11_2 C 0.8721(10) 0.4726(9) 0.2535(6)
H26_2 H 0.8801 0.4506 0.2511
H27_2 H 0.8599 0.4796 0.2368
C12_2 C 0.9058(11) 0.4924(10) 0.2592(6)
H28_2 H 0.9230 0.4907 0.2446
H29_2 H 0.8982 0.5143 0.2612
H30_2 H 0.9183 0.4852 0.2755
C13_2 C 0.8353(13) 0.5086(6) 0.2716(6)
H31_2 H 0.8157 0.5134 0.2844
H32_2 H 0.8579 0.5201 0.2777
C14_2 C 0.8233(12) 0.5232(6) 0.2472(5)
H33_2 H 0.8193 0.5456 0.2501
H34_2 H 0.8426 0.5203 0.2340
H35_2 H 0.8000 0.5135 0.2408
C15_2 C 0.8651(10) 0.4667(8) 0.3002(6)
H36_2 H 0.8823 0.4495 0.2957
H37_2 H 0.8811 0.4851 0.3038
C16_2 C 0.8504(15) 0.4579(10) 0.3260(6)
H38_2 H 0.8712 0.4545 0.3386
H39_2 H 0.8345 0.4748 0.3324
H40_2 H 0.8357 0.4387 0.3242
H29_3 H 0.6018 0.0143 0.2388
C13_3 C 0.6647(13) 0.0086(6) 0.2284(6)
H31_3 H 0.6843 0.0134 0.2156
H32_3 H 0.6421 0.0201 0.2223
C14_3 C 0.6767(12) 0.0232(6) 0.2528(5)
H33_3 H 0.6807 0.0456 0.2499
H34_3 H 0.6574 0.0203 0.2660
H35_3 H 0.7000 0.0135 0.2592
N2_3 N 0.6557(8) 0.9741(5) 0.2248(5)
C9_3 C 0.6857(10) 0.9535(7) 0.2377(7)
H21_3 H 0.7089 0.9560 0.2279
H22_3 H 0.6907 0.9613 0.2558
C10_3 C 0.6767(13) 0.9189(6) 0.2393(7)
H23_3 H 0.6976 0.9078 0.2479
H24_3 H 0.6542 0.9159 0.2495
H25_3 H 0.6725 0.9105 0.2215
C11_3 C 0.6279(10) 0.9726(9) 0.2465(6)
H26_3 H 0.6199 0.9506 0.2489
H27_3 H 0.6401 0.9796 0.2632
C12_3 C 0.5942(11) 0.9924(10) 0.2408(6)
H28_3 H 0.5770 0.9907 0.2554
H30_3 H 0.5817 0.9852 0.2245
C15_3 C 0.6349(10) 0.9667(8) 0.1998(6)
H36_3 H 0.6177 0.9495 0.2043
H37_3 H 0.6189 0.9851 0.1962
C16_3 C 0.6496(15) 0.9579(10) 0.1740(6)
H38_3 H 0.6288 0.9545 0.1614
H39_3 H 0.6655 0.9748 0.1676
H40_3 H 0.6643 0.9387 0.1758
H29_4 H 0.3982 0.0143 0.2612
C13_4 C 0.3353(13) 0.0086(6) 0.2716(6)
H31_4 H 0.3157 0.0134 0.2844
H32_4 H 0.3579 0.0201 0.2777
C14_4 C 0.3233(12) 0.0232(6) 0.2472(5)
H33_4 H 0.3193 0.0456 0.2501
H34_4 H 0.3426 0.0203 0.2340
H35_4 H 0.3000 0.0135 0.2408
N2_4 N 0.3443(8) 0.9741(5) 0.2752(5)
C9_4 C 0.3143(10) 0.9535(7) 0.2623(7)
H21_4 H 0.2911 0.9560 0.2721
H22_4 H 0.3093 0.9613 0.2442
C10_4 C 0.3233(13) 0.9189(6) 0.2607(7)
H23_4 H 0.3024 0.9078 0.2521
H24_4 H 0.3458 0.9159 0.2505
H25_4 H 0.3275 0.9105 0.2785
C11_4 C 0.3721(10) 0.9726(9) 0.2535(6)
H26_4 H 0.3801 0.9506 0.2511
H27_4 H 0.3599 0.9796 0.2368
C12_4 C 0.4058(11) 0.9924(10) 0.2592(6)
H28_4 H 0.4230 0.9907 0.2446
H30_4 H 0.4183 0.9852 0.2755
C15_4 C 0.3651(10) 0.9667(8) 0.3002(6)
H36_4 H 0.3823 0.9495 0.2957
H37_4 H 0.3811 0.9851 0.3038
C16_4 C 0.3504(15) 0.9579(10) 0.3260(6)
H38_4 H 0.3712 0.9545 0.3386
H39_4 H 0.3345 0.9748 0.3324
H40_4 H 0.3357 0.9387 0.3242
N2_5 N 0.8443(8) 0.5259(5) 0.7752(5)
C9_5 C 0.8143(10) 0.5465(7) 0.7623(7)
H21_5 H 0.7911 0.5440 0.7721
H22_5 H 0.8093 0.5387 0.7442
C10_5 C 0.8233(13) 0.5811(6) 0.7607(7)
H23_5 H 0.8024 0.5922 0.7521
H24_5 H 0.8458 0.5841 0.7505
H25_5 H 0.8275 0.5895 0.7785
C11_5 C 0.8721(10) 0.5274(9) 0.7535(6)
H26_5 H 0.8801 0.5494 0.7511
H27_5 H 0.8599 0.5204 0.7368
C12_5 C 0.9058(11) 0.5076(10) 0.7592(6)
H28_5 H 0.9230 0.5093 0.7446
H29_5 H 0.8982 0.4857 0.7612
H30_5 H 0.9183 0.5148 0.7755
C13_5 C 0.8353(13) 0.4914(6) 0.7716(6)
H31_5 H 0.8157 0.4866 0.7844
H32_5 H 0.8579 0.4799 0.7777
C14_5 C 0.8233(12) 0.4768(6) 0.7472(5)
H33_5 H 0.8193 0.4544 0.7501
H34_5 H 0.8426 0.4797 0.7340
H35_5 H 0.8000 0.4865 0.7408
C15_5 C 0.8651(10) 0.5333(8) 0.8002(6)
H36_5 H 0.8823 0.5505 0.7957
H37_5 H 0.8811 0.5149 0.8038
C16_5 C 0.8504(15) 0.5421(10) 0.8260(6)
H38_5 H 0.8712 0.5455 0.8386
H39_5 H 0.8345 0.5252 0.8324
H40_5 H 0.8357 0.5613 0.8242
N2_6 N 0.1557(8) 0.5259(5) 0.7248(5)
C9_6 C 0.1857(10) 0.5465(7) 0.7377(7)
H21_6 H 0.2089 0.5440 0.7279
H22_6 H 0.1907 0.5387 0.7558
C10_6 C 0.1767(13) 0.5811(6) 0.7393(7)
H23_6 H 0.1976 0.5922 0.7479
H24_6 H 0.1542 0.5841 0.7495
H25_6 H 0.1725 0.5895 0.7215
C11_6 C 0.1279(10) 0.5274(9) 0.7465(6)
H26_6 H 0.1199 0.5494 0.7489
H27_6 H 0.1401 0.5204 0.7632
C12_6 C 0.0942(11) 0.5076(10) 0.7408(6)
H28_6 H 0.0770 0.5093 0.7554
H29_6 H 0.1018 0.4857 0.7388
H30_6 H 0.0817 0.5148 0.7245
C13_6 C 0.1647(13) 0.4914(6) 0.7284(6)
H31_6 H 0.1843 0.4866 0.7156
H32_6 H 0.1421 0.4799 0.7223
C14_6 C 0.1767(12) 0.4768(6) 0.7528(5)
H33_6 H 0.1807 0.4544 0.7499
H34_6 H 0.1574 0.4797 0.7660
H35_6 H 0.2000 0.4865 0.7592
C15_6 C 0.1349(10) 0.5333(8) 0.6998(6)
H36_6 H 0.1177 0.5505 0.7043
H37_6 H 0.1189 0.5149 0.6962
C16_6 C 0.1496(15) 0.5421(10) 0.6740(6)
H38_6 H 0.1288 0.5455 0.6614
H39_6 H 0.1655 0.5252 0.6676
H40_6 H 0.1643 0.5613 0.6758
N2_7 N 0.3443(8) 0.0259(5) 0.7752(5)
C9_7 C 0.3143(10) 0.0465(7) 0.7623(7)
H21_7 H 0.2911 0.0440 0.7721
H22_7 H 0.3093 0.0387 0.7442
C10_7 C 0.3233(13) 0.0811(6) 0.7607(7)
H23_7 H 0.3024 0.0922 0.7521
H24_7 H 0.3458 0.0841 0.7505
H25_7 H 0.3275 0.0895 0.7785
C11_7 C 0.3721(10) 0.0274(9) 0.7535(6)
H26_7 H 0.3801 0.0494 0.7511
H27_7 H 0.3599 0.0204 0.7368
C12_7 C 0.4058(11) 0.0076(10) 0.7592(6)
H28_7 H 0.4230 0.0093 0.7446
H30_7 H 0.4183 0.0148 0.7755
C15_7 C 0.3651(10) 0.0333(8) 0.8002(6)
H36_7 H 0.3823 0.0505 0.7957
H37_7 H 0.3811 0.0149 0.8038
C16_7 C 0.3504(15) 0.0421(10) 0.8260(6)
H38_7 H 0.3712 0.0455 0.8386
H39_7 H 0.3345 0.0252 0.8324
H40_7 H 0.3357 0.0613 0.8242
H29_7 H 0.3982 0.9857 0.7612
C13_7 C 0.3353(13) 0.9914(6) 0.7716(6)
H31_7 H 0.3157 0.9866 0.7844
H32_7 H 0.3579 0.9799 0.7777
C14_7 C 0.3233(12) 0.9768(6) 0.7472(5)
H33_7 H 0.3193 0.9544 0.7501
H34_7 H 0.3426 0.9797 0.7340
H35_7 H 0.3000 0.9865 0.7408
N2_8 N 0.6557(8) 0.0259(5) 0.7248(5)
C9_8 C 0.6857(10) 0.0465(7) 0.7377(7)
H21_8 H 0.7089 0.0440 0.7279
H22_8 H 0.6907 0.0387 0.7558
C10_8 C 0.6767(13) 0.0811(6) 0.7393(7)
H23_8 H 0.6976 0.0922 0.7479
H24_8 H 0.6542 0.0841 0.7495
H25_8 H 0.6725 0.0895 0.7215
C11_8 C 0.6279(10) 0.0274(9) 0.7465(6)
H26_8 H 0.6199 0.0494 0.7489
H27_8 H 0.6401 0.0204 0.7632
C12_8 C 0.5942(11) 0.0076(10) 0.7408(6)
H28_8 H 0.5770 0.0093 0.7554
H30_8 H 0.5817 0.0148 0.7245
C15_8 C 0.6349(10) 0.0333(8) 0.6998(6)
H36_8 H 0.6177 0.0505 0.7043
H37_8 H 0.6189 0.0149 0.6962
C16_8 C 0.6496(15) 0.0421(10) 0.6740(6)
H38_8 H 0.6288 0.0455 0.6614
H39_8 H 0.6655 0.0252 0.6676
H40_8 H 0.6643 0.0613 0.6758
H29_8 H 0.6018 0.9857 0.7388
C13_8 C 0.6647(13) 0.9914(6) 0.7284(6)
H31_8 H 0.6843 0.9866 0.7156
H32_8 H 0.6421 0.9799 0.7223
C14_8 C 0.6767(12) 0.9768(6) 0.7528(5)
H33_8 H 0.6807 0.9544 0.7499
H34_8 H 0.6574 0.9797 0.7660
H35_8 H 0.7000 0.9865 0.7592
Zn1 Zn 0.38589(3) 0.40853(2) 0.19797(3)
Zn2 Zn 0.43392(3) 0.35294(2) 0.19631(2)
Zn5 Zn 0.14387(4) 0.47468(3) 0.46581(2)
Zn6 Zn 0.14425(3) 0.50890(3) 0.41570(2)
Zn7 Zn 0.10391(2) 0.62328(2) 0.21151(2)
Zn8 Zn 0.15309(3) 0.58240(2) 0.17263(2)
Zn9 Zn 0.19219(2) 0.62564(2) 0.21532(2)
Zn10 Zn 0.14734(2) 0.65473(2) 0.16586(2)
O1 O 0.14930(11) 0.62221(9) 0.19211(9)
O2 O 0.1645(4) 0.5487(3) 0.1416(3)
C17 C 0.5116(2) 0.26552(16) 0.19444(17)
C18 C 0.5100(3) 0.24141(18) 0.21315(19)
H41 H 0.4931 0.2434 0.2271
C19 C 0.5321(3) 0.21493(18) 0.21208(18)
H42 H 0.5307 0.1995 0.2255
C20 C 0.5564(2) 0.21080(15) 0.19163(16)
C21 C 0.5592(2) 0.23448(16) 0.17305(17)
H43 H 0.5759 0.2322 0.1590
C22 C 0.5378(2) 0.26133(17) 0.17476(18)
H44 H 0.5410 0.2775 0.1622
B1 B 0.4852(3) 0.2958(2) 0.1953(2)
O3 O 0.45397(18) 0.28962(15) 0.17588(15)
N3 N 0.4281(2) 0.31302(19) 0.17229(18)
C23 C 0.4047(3) 0.3073(2) 0.1539(2)
H45 H 0.4072 0.2877 0.1453
C24 C 0.3746(3) 0.3272(2) 0.1443(2)
C25 C 0.3660(3) 0.3563(2) 0.1565(2)
C26 C 0.3346(3) 0.3732(2) 0.1451(2)
C27 C 0.3154(4) 0.3626(3) 0.1225(3)
H46 H 0.2957 0.3749 0.1151
C28 C 0.3246(3) 0.3346(3) 0.1106(2)
C29 C 0.3541(4) 0.3175(3) 0.1219(3)
H47 H 0.3606 0.2982 0.1139
C30 C 0.3225(3) 0.4021(3) 0.1563(2)
H48 H 0.2998 0.4106 0.1494
N4 N 0.3389(3) 0.4176(2) 0.1744(2)
O4 O 0.3193(2) 0.44437(19) 0.17939(18)
B2 B 0.3346(3) 0.4662(2) 0.1990(3)
O5 O 0.50798(17) 0.32215(13) 0.18672(15)
N5 N 0.49050(18) 0.35155(14) 0.18704(17)
C31 C 0.5133(2) 0.37312(16) 0.1816(2)
H49 H 0.5381 0.3668 0.1781
C32 C 0.5057(2) 0.40669(16) 0.1802(2)
C33 C 0.4695(2) 0.41916(17) 0.1838(2)
C34 C 0.4658(2) 0.45201(18) 0.1823(2)
C35 C 0.4977(2) 0.4710(2) 0.1790(3)
H50 H 0.4947 0.4930 0.1790
C36 C 0.5332(2) 0.45875(19) 0.1757(3)
C37 C 0.5356(2) 0.42636(18) 0.1753(3)
H51 H 0.5589 0.4171 0.1714
C38 C 0.4311(2) 0.4688(2) 0.1859(2)
H52 H 0.4314 0.4909 0.1839
N6 N 0.4004(2) 0.45597(18) 0.1916(2)
O6 O 0.37154(19) 0.47845(16) 0.19392(18)
O7 O 0.47249(18) 0.29850(14) 0.22213(14)
N7 N 0.4482(2) 0.32243(16) 0.22748(15)
C39 C 0.4384(2) 0.32137(19) 0.25124(17)
H53 H 0.4493 0.3054 0.2620
C40 C 0.4119(2) 0.34232(17) 0.26364(16)
C41 C 0.3964(2) 0.36876(17) 0.25007(17)
C42 C 0.3706(2) 0.38767(18) 0.26430(16)
C43 C 0.3610(3) 0.3790(2) 0.28976(17)
H54 H 0.3432 0.3914 0.2985
C44 C 0.3759(2) 0.3534(2) 0.30294(15)
C45 C 0.4018(2) 0.3354(2) 0.28961(16)
H55 H 0.4130 0.3179 0.2983
C46 C 0.3531(3) 0.4153(2) 0.25307(19)
H56 H 0.3379 0.4272 0.2644
N8 N 0.3560(2) 0.4254(2) 0.22976(18)
O8 O 0.3342(2) 0.45220(18) 0.22571(17)
C47 C 0.3051(2) 0.49403(17) 0.19999(18)
C48 C 0.25200(19) 0.54311(16) 0.20178(18)
C49 C 0.5802(2) 0.18190(16) 0.19002(17)
O9 O 0.57731(16) 0.16238(13) 0.20815(13)
O10 O 0.60243(16) 0.18103(12) 0.17120(12)
O11 O 0.3834(2) 0.36583(17) 0.17686(17)
C50 C 0.3037(4) 0.3226(4) 0.0859(3)
O12 O 0.44134(17) 0.40084(14) 0.18847(16)
C51 C 0.5680(3) 0.4795(3) 0.1734(3)
C52 C 0.5942(4) 0.4764(4) 0.1987(3)
H57 H 0.5813 0.4846 0.2140
H58 H 0.6006 0.4544 0.2016
H59 H 0.6171 0.4885 0.1962
C53 C 0.5940(4) 0.4659(4) 0.1542(4)
H60 H 0.5969 0.4435 0.1577
H61 H 0.5839 0.4690 0.1363
H62 H 0.6183 0.4762 0.1561
C54 C 0.5581(4) 0.5136(3) 0.1729(4)
H63 H 0.5407 0.5181 0.1870
H64 H 0.5808 0.5261 0.1756
H65 H 0.5464 0.5189 0.1558
O13 O 0.40533(17) 0.37603(14) 0.22612(14)
C55 C 0.3642(3) 0.3449(3) 0.33082(16)
C56 C 0.2237(2) 0.56839(18) 0.2037(2)
O14 O 0.19085(17) 0.56142(15) 0.19611(18)
O15 O 0.23229(15) 0.59485(13) 0.21289(14)
C57 C 0.2759(4) 0.4966(3) 0.1809(3)
H66 H 0.2741 0.4818 0.1671
C58 C 0.2497(4) 0.5204(3) 0.1820(3)
H67 H 0.2300 0.5213 0.1692
C59 C 0.2814(3) 0.5418(3) 0.2201(3)
H68 H 0.2840 0.5574 0.2333
C60 C 0.3068(4) 0.5175(3) 0.2189(3)
H69 H 0.3266 0.5169 0.2317
C61 C 0.3943(5) 0.3491(7) 0.3516(4)
H70 H 0.4177 0.3400 0.3454
H71 H 0.3979 0.3714 0.3551
H72 H 0.3870 0.3385 0.3678
C62 C 0.3567(7) 0.3087(4) 0.3315(5)
H73 H 0.3371 0.3034 0.3185
H74 H 0.3797 0.2974 0.3275
H75 H 0.3487 0.3027 0.3491
C63 C 0.3268(5) 0.3582(6) 0.3385(5)
H76 H 0.3085 0.3547 0.3241
H77 H 0.3185 0.3478 0.3544
H78 H 0.3294 0.3807 0.3418
C64 C 0.3289(6) 0.3250(5) 0.0620(3)
H79 H 0.3523 0.3138 0.0657
H80 H 0.3161 0.3156 0.0466
H81 H 0.3342 0.3470 0.0583
C65 C 0.2672(5) 0.3398(5) 0.0803(4)
H82 H 0.2551 0.3313 0.0643
H83 H 0.2507 0.3372 0.0952
H84 H 0.2723 0.3621 0.0777
C66 C 0.2960(6) 0.2874(4) 0.0893(4)
H85 H 0.3196 0.2764 0.0929
H86 H 0.2793 0.2843 0.1040
H87 H 0.2842 0.2792 0.0731
C67 C 0.1404(3) 0.4217(2) 0.54612(14)
C68 C 0.1373(3) 0.3937(2) 0.59645(14)
B3 B 0.1436(3) 0.4389(3) 0.51853(18)
O16 O 0.1418(2) 0.47199(19) 0.52490(13)
N9 N 0.1395(3) 0.4934(2) 0.50412(16)
C69 C 0.1380(3) 0.5213(2) 0.51192(19)
H88 H 0.1382 0.5246 0.5304
C70 C 0.1360(3) 0.54887(19) 0.49532(16)
C71 C 0.1370(3) 0.5477(2) 0.46725(15)
C72 C 0.1340(3) 0.5767(2) 0.45350(15)
C73 C 0.1292(4) 0.6042(2) 0.46792(17)
H89 H 0.1260 0.6232 0.4584
C74 C 0.1289(4) 0.6056(2) 0.49478(18)
C75 C 0.1318(4) 0.5778(2) 0.5083(2)
H90 H 0.1309 0.5780 0.5270
C76 C 0.1359(3) 0.5794(2) 0.42539(15)
H91 H 0.1339 0.6000 0.4184
N10 N 0.1398(2) 0.55772(17) 0.40880(14)
O17 O 0.1407(2) 0.56835(16) 0.38337(12)
B4 B 0.1457(3) 0.5446(2) 0.36304(17)
O18 O 0.1112(2) 0.42846(19) 0.50317(13)
N11 N 0.1052(2) 0.4416(2) 0.47851(15)
C77 C 0.0727(3) 0.4355(2) 0.46934(17)
H92 H 0.0571 0.4228 0.4798
C78 C 0.0577(2) 0.4462(2) 0.44447(15)
C79 C 0.0780(3) 0.4643(2) 0.42574(16)
C80 C 0.0581(2) 0.4732(2) 0.40216(16)
C81 C 0.0203(2) 0.4655(2) 0.39872(18)
H93 H 0.0075 0.4722 0.3831
C82 C 0.0005(2) 0.4484(2) 0.41702(17)
C83 C 0.0199(2) 0.4390(3) 0.43926(17)
H94 H 0.0070 0.4269 0.4518
C84 C 0.0748(2) 0.4920(2) 0.38172(17)
H95 H 0.0610 0.4944 0.3656
N12 N 0.1063(2) 0.50542(19) 0.38373(15)
O19 O 0.1147(2) 0.52119(17) 0.36128(13)
C85 C 0.1458(2) 0.56220(19) 0.33514(13)
C86 C 0.1137(2) 0.5641(2) 0.31886(15)
H96 H 0.0915 0.5541 0.3242
C87 C 0.1136(2) 0.5803(2) 0.29512(15)
H97 H 0.0912 0.5821 0.2848
C88 C 0.1462(2) 0.59388(18) 0.28644(13)
C89 C 0.1786(2) 0.5916(2) 0.30171(15)
H98 H 0.2010 0.6009 0.2960
C90 C 0.1781(2) 0.5757(2) 0.32556(15)
H99 H 0.2007 0.5739 0.3357
C91 C 0.1365(3) 0.3808(2) 0.62373(16)
O20 O 0.14858(19) 0.35353(18) 0.62776(12)
O21 O 0.1200(2) 0.3956(2) 0.64072(14)
O22 O 0.1379(2) 0.52162(16) 0.45522(12)
C92 C 0.1240(4) 0.6370(2) 0.5089(2)
O23 O 0.1122(2) 0.47147(18) 0.42989(13)
C97 C 0.1464(2) 0.60984(19) 0.26006(14)
O24 O 0.11526(18) 0.61289(17) 0.24811(12)
O25 O 0.17775(16) 0.61917(14) 0.25214(11)
O26 O 0.1748(5) 0.4262(4) 0.5032(3)
C98 C 0.1520(5) 0.3777(3) 0.5756(2)
H109 H 0.1612 0.3571 0.5781
C99 C 0.1535(5) 0.3916(3) 0.5510(2)
H110 H 0.1638 0.3801 0.5369
C100 C 0.1241(5) 0.4370(3) 0.5674(2)
H111 H 0.1136 0.4571 0.5646
C101 C 0.1227(5) 0.4239(3) 0.5923(2)
H112 H 0.1121 0.4352 0.6063
N13 N 0.1821(5) 0.4417(5) 0.4807(4)
C102 C 0.2113(5) 0.4305(5) 0.4708(3)
H113 H 0.2242 0.4144 0.4803
C103 C 0.2263(4) 0.4405(4) 0.4460(3)
C104 C 0.2092(5) 0.4635(4) 0.4290(3)
C105 C 0.2263(4) 0.4692(4) 0.4043(3)
C106 C 0.2590(5) 0.4532(4) 0.3977(3)
H114 H 0.2695 0.4569 0.3810
C107 C 0.2760(4) 0.4323(4) 0.4148(3)
C108 C 0.2594(5) 0.4262(5) 0.4384(3)
H115 H 0.2710 0.4116 0.4501
C109 C 0.2120(5) 0.4910(4) 0.3848(3)
H116 H 0.2257 0.4930 0.3691
N14 N 0.1830(5) 0.5077(5) 0.3866(4)
O27 O 0.1781(5) 0.5244(4) 0.3639(4)
O28 O 0.1807(6) 0.4783(7) 0.4359(6)
C110 C 0.3128(4) 0.4166(5) 0.4077(4)
C111 C 0.3036(8) 0.3817(5) 0.4077(6)
H117 H 0.2966 0.3752 0.4254
H118 H 0.2828 0.3776 0.3952
H119 H 0.3255 0.3698 0.4024
C112 C 0.3435(6) 0.4244(7) 0.4279(5)
H120 H 0.3359 0.4175 0.4454
H121 H 0.3665 0.4135 0.4233
H122 H 0.3478 0.4470 0.4281
C113 C 0.3238(8) 0.4269(7) 0.3804(4)
H123 H 0.3037 0.4217 0.3677
H124 H 0.3280 0.4495 0.3804
H125 H 0.3467 0.4161 0.3756
C145 C 0.01489(19) 0.54322(18) 0.20287(19)
H141 H 0.0098 0.5622 0.2118
C146 C 0.04888(18) 0.53924(15) 0.19076(16)
C147 C 0.0555(2) 0.51200(16) 0.17729(18)
H142 H 0.0783 0.5093 0.1684
C148 C 0.02885(19) 0.48849(17) 0.17665(18)
H143 H 0.0340 0.4697 0.1674
C152 C 0.07818(19) 0.56436(16) 0.19207(17)
O40 O 0.06901(14) 0.59035(12) 0.20123(12)
O41 O 0.10982(15) 0.55750(13) 0.18503(15)
H156 H 0.0024 0.3297 0.0844
H168 H 0.0090 0.3569 0.3111
H169 H 0.0099 0.3313 0.3341
N21 N 0.2440(4) 0.6191(4) 0.1230(3)
C164 C 0.2463(6) 0.6516(5) 0.1303(5)
H171 H 0.2643 0.6622 0.1192
H172 H 0.2218 0.6614 0.1279
H173 H 0.2545 0.6534 0.1488
C165 C 0.2669(6) 0.6102(6) 0.1015(4)
H174 H 0.2811 0.6284 0.0957
H175 H 0.2841 0.5936 0.1072
H176 H 0.2510 0.6026 0.0869
C166 C 0.2206(4) 0.6001(4) 0.1359(3)
H177 H 0.2186 0.5792 0.1298
O42 O 0.2025(3) 0.6069(3) 0.1543(2)
C167 C 0.0922(8) 0.6363(6) 0.5285(5)
H178 H 0.0956 0.6183 0.5402
H179 H 0.0925 0.6556 0.5388
H180 H 0.0683 0.6344 0.5188
C168 C 0.1184(10) 0.6652(4) 0.4906(4)
H181 H 0.1386 0.6659 0.4780
H182 H 0.0944 0.6633 0.4811
H183 H 0.1186 0.6844 0.5011
C169 C 0.1613(6) 0.6440(6) 0.5239(5)
H184 H 0.1670 0.6269 0.5362
H185 H 0.1814 0.6459 0.5113
H186 H 0.1591 0.6636 0.5337
Zn11 Zn 0.60391(2) 0.12328(2) 0.21151(2)
Zn12 Zn 0.15309(3) 0.41760(2) 0.67263(2)
Zn15 Zn 0.64734(2) 0.15473(2) 0.16586(2)
Zn16 Zn 0.14734(2) 0.34527(2) 0.66586(2)
O43 O 0.07731(16) 0.66238(13) 0.20815(13)
O44 O 0.10243(16) 0.68103(12) 0.17120(12)
O45 O 0.14858(19) 0.64647(18) 0.12776(12)
O46 O 0.1200(2) 0.6044(2) 0.14072(14)
O47 O 0.21588(15) 0.66651(12) 0.21125(11)
O48 O 0.18756(16) 0.68449(12) 0.17429(11)
H189 H 0.191528 0.549053 0.137791
H190 H 0.157347 0.52742 0.147459
Zn3 Zn 0.85748(3) 0.35585(3) 0.19508(3)
Zn4 Zn 0.91014(3) 0.40824(2) 0.19212(2)
C93 C 0.9593(2) 0.4392(3) 0.4133(2)
C94 C 0.9543(4) 0.4034(3) 0.4157(3)
H100 H 0.9643 0.3963 0.4328
H101 H 0.9278 0.3981 0.4140
H102 H 0.9679 0.3930 0.4016
C95 C 0.9367(4) 0.4538(4) 0.4355(2)
H103 H 0.9477 0.4477 0.4526
H104 H 0.9371 0.4766 0.4339
H105 H 0.9108 0.4464 0.4342
C96 C 0.9434(3) 0.4479(4) 0.3867(2)
H106 H 0.9584 0.4382 0.3730
H107 H 0.9176 0.4404 0.3850
H108 H 0.9439 0.4707 0.3847
C114 C 0.7757(2) 0.27126(18) 0.19831(19)
C115 C 0.7809(3) 0.24677(19) 0.2162(2)
H126 H 0.8001 0.2487 0.2293
C116 C 0.7595(3) 0.22006(18) 0.21580(19)
H127 H 0.7637 0.2042 0.2287
C117 C 0.7316(2) 0.21636(15) 0.19642(16)
C118 C 0.7248(2) 0.24060(16) 0.17872(18)
H128 H 0.7053 0.2389 0.1657
C119 C 0.7465(2) 0.26718(18) 0.18018(19)
H129 H 0.7411 0.2836 0.1681
B5 B 0.8030(3) 0.3010(2) 0.1979(3)
O29 O 0.7792(2) 0.32932(16) 0.19656(18)
N15 N 0.7984(2) 0.35825(16) 0.1946(2)
C120 C 0.7761(3) 0.38130(17) 0.1949(2)
H130 H 0.7503 0.3768 0.1968
C121 C 0.7866(2) 0.41376(16) 0.19279(19)
C122 C 0.8239(2) 0.42374(17) 0.18964(19)
C123 C 0.82978(18) 0.45658(16) 0.18668(17)
C124 C 0.79925(18) 0.47757(18) 0.18702(19)
H131 H 0.8038 0.4993 0.1850
C125 C 0.76308(18) 0.46731(16) 0.19016(19)
C126 C 0.7574(2) 0.43531(17) 0.1927(2)
H132 H 0.7327 0.4278 0.1944
C127 C 0.86685(18) 0.47029(18) 0.18506(18)
H133 H 0.8678 0.4922 0.1822
N16 N 0.89797(17) 0.45645(15) 0.18698(16)
O30 O 0.92785(15) 0.47662(13) 0.18552(14)
B6 B 0.9657(2) 0.4630(2) 0.1890(2)
O31 O 0.8236(2) 0.29622(17) 0.17433(18)
N17 N 0.8514(3) 0.3180(2) 0.16957(19)
C128 C 0.8675(3) 0.3121(2) 0.1482(2)
H134 H 0.8594 0.2939 0.1390
C129 C 0.8967(3) 0.3302(2) 0.13654(19)
C130 C 0.9119(3) 0.3576(2) 0.14841(19)
C131 C 0.9387(3) 0.37436(19) 0.13328(17)
C132 C 0.9493(3) 0.3635(2) 0.10865(19)
H135 H 0.9674 0.3750 0.0993
C133 C 0.9345(3) 0.3366(2) 0.09725(18)
C134 C 0.9087(4) 0.3207(3) 0.1119(2)
H136 H 0.8984 0.3020 0.1047
C135 C 0.9559(3) 0.40291(19) 0.14246(18)
H137 H 0.9729 0.4124 0.1309
N18 N 0.9512(2) 0.41681(16) 0.16396(15)
O32 O 0.97453(17) 0.44172(15) 0.16732(14)
O33 O 0.8247(2) 0.30011(17) 0.22242(18)
N19 N 0.8503(3) 0.3244(2) 0.22597(19)
C136 C 0.8651(3) 0.3236(2) 0.2488(2)
H138 H 0.8565 0.3075 0.2600
C137 C 0.8932(3) 0.3441(2) 0.26007(17)
C138 C 0.9080(3) 0.3696(2) 0.24513(19)
C139 C 0.9346(3) 0.3891(2) 0.25843(16)
C140 C 0.9454(3) 0.3828(2) 0.28459(18)
C141 C 0.9056(3) 0.3394(3) 0.28597(19)
C142 C 0.9521(3) 0.4161(2) 0.24598(17)
H139 H 0.9674 0.4291 0.2569
N20 N 0.9486(2) 0.42343(17) 0.22179(15)
O34 O 0.97180(17) 0.44841(14) 0.21524(13)
C143 C 0.99466(18) 0.49142(15) 0.18908(17)
C144 C 0.9885(2) 0.51961(17) 0.2020(2)
H140 H 0.9654 0.5227 0.2104
C149 C 0.7102(2) 0.18650(16) 0.19350(16)
O35 O 0.71588(15) 0.16651(12) 0.21125(11)
O36 O 0.68756(16) 0.18449(12) 0.17429(11)
O37 O 0.85116(17) 0.40421(14) 0.18890(15)
C150 C 0.7302(2) 0.48983(19) 0.1919(2)
O38 O 0.90060(19) 0.36785(15) 0.17004(15)
C151 C 0.9473(4) 0.3249(3) 0.0704(2)
O39 O 0.8980(2) 0.37411(16) 0.22078(15)
C153 C 0.9343(4) 0.3563(3) 0.2981(2)
C154 C 0.7218(8) 0.5100(6) 0.1684(5)
H144 H 0.7450 0.5188 0.1620
H145 H 0.7097 0.4974 0.1545
H146 H 0.7050 0.5270 0.1734
C155 C 0.7414(8) 0.5127(6) 0.2154(5)
H147 H 0.7472 0.5004 0.2312
H148 H 0.7633 0.5249 0.2107
H149 H 0.7206 0.5268 0.2187
C156 C 0.6944(5) 0.4762(6) 0.2020(7)
H150 H 0.7001 0.4630 0.2173
H151 H 0.6777 0.4931 0.2070
H152 H 0.6824 0.4635 0.1881
C157 C 0.9260(7) 0.2966(5) 0.0595(5)
H153 H 0.9263 0.2799 0.0726
H154 H 0.9001 0.3026 0.0553
H155 H 0.9379 0.2893 0.0435
C158 C 0.9871(5) 0.3126(6) 0.0772(5)
H157 H 0.9857 0.2958 0.0902
H158 H 0.9984 0.3045 0.0612
C159 C 0.9483(9) 0.3524(5) 0.0513(4)
H159 H 0.9623 0.3697 0.0594
H160 H 0.9606 0.3458 0.0351
H161 H 0.9228 0.3592 0.0469
C160 C 0.9561(5) 0.3437(4) 0.3223(3)
C161 C 0.9408(8) 0.3130(5) 0.3322(5)
H162 H 0.9431 0.2970 0.3185
H163 H 0.9550 0.3065 0.3481
H164 H 0.9145 0.3156 0.3364
C162 C 0.9527(8) 0.3688(6) 0.3434(4)
H165 H 0.9626 0.3886 0.3369
H166 H 0.9263 0.3715 0.3476
H167 H 0.9668 0.3624 0.3593
C163 C 0.9974(5) 0.3377(6) 0.3176(5)
H170 H 0.9999 0.3211 0.3045
Zn13 Zn 0.69219(2) 0.12564(2) 0.21532(2)
H187 H 0.96344 0.399558 0.294866
H188 H 0.891952 0.321371 0.297402
C17_2 C 0.0116(2) 0.76552(16) 0.19444(17)
C18_2 C 0.0100(3) 0.74141(18) 0.21315(19)
C19_2 C 0.0321(3) 0.71493(18) 0.21208(18)
H42_2 H 0.0307 0.6995 0.2255
C20_2 C 0.0564(2) 0.71080(15) 0.19163(16)
C21_2 C 0.0592(2) 0.73448(16) 0.17305(17)
H43_2 H 0.0759 0.7322 0.1590
C22_2 C 0.0378(2) 0.76133(17) 0.17476(18)
H44_2 H 0.0410 0.7775 0.1622
O5_2 O 0.00798(17) 0.82215(13) 0.18672(15)
C31_2 C 0.0133(2) 0.87312(16) 0.1816(2)
H49_2 H 0.0381 0.8668 0.1781
C32_2 C 0.0057(2) 0.90669(16) 0.1802(2)
C36_2 C 0.0332(2) 0.95875(19) 0.1757(3)
C37_2 C 0.0356(2) 0.92636(18) 0.1753(3)
H51_2 H 0.0589 0.9171 0.1714
C49_2 C 0.0802(2) 0.68190(16) 0.19002(17)
C51_2 C 0.0680(3) 0.9795(3) 0.1734(3)
C52_2 C 0.0942(4) 0.9764(4) 0.1987(3)
H57_2 H 0.0813 0.9846 0.2140
H58_2 H 0.1006 0.9544 0.2016
H59_2 H 0.1171 0.9885 0.1962
C53_2 C 0.0940(4) 0.9659(4) 0.1542(4)
H60_2 H 0.0969 0.9435 0.1577
H61_2 H 0.0839 0.9690 0.1363
H62_2 H 0.1183 0.9762 0.1561
Zn6_2 Zn 0.64425(3) 0.00890(3) 0.41570(2)
Zn8_2 Zn 0.65309(3) 0.08240(2) 0.17263(2)
O1_2 O 0.64930(11) 0.12221(9) 0.19211(9)
O2_2 O 0.6645(4) 0.0487(3) 0.1416(3)
C48_2 C 0.75200(19) 0.04311(16) 0.20178(18)
C56_2 C 0.7237(2) 0.06839(18) 0.2037(2)
O14_2 O 0.69085(17) 0.06142(15) 0.19611(18)
O15_2 O 0.73229(15) 0.09485(13) 0.21289(14)
C58_2 C 0.7497(4) 0.0204(3) 0.1820(3)
H67_2 H 0.7300 0.0213 0.1692
C59_2 C 0.7814(3) 0.0418(3) 0.2201(3)
H68_2 H 0.7840 0.0574 0.2333
C60_2 C 0.8068(4) 0.0175(3) 0.2189(3)
H69_2 H 0.8266 0.0169 0.2317
C69_2 C 0.6380(3) 0.0213(2) 0.51192(19)
H88_2 H 0.6382 0.0246 0.5304
C70_2 C 0.6360(3) 0.04887(19) 0.49532(16)
C71_2 C 0.6370(3) 0.0477(2) 0.46725(15)
C72_2 C 0.6340(3) 0.0767(2) 0.45350(15)
C73_2 C 0.6292(4) 0.1042(2) 0.46792(17)
H89_2 H 0.6260 0.1232 0.4584
C74_2 C 0.6289(4) 0.1056(2) 0.49478(18)
C75_2 C 0.6318(4) 0.0778(2) 0.5083(2)
H90_2 H 0.6309 0.0780 0.5270
C76_2 C 0.6359(3) 0.0794(2) 0.42539(15)
H91_2 H 0.6339 0.1000 0.4184
N10_2 N 0.6398(2) 0.05772(17) 0.40880(14)
O17_2 O 0.6407(2) 0.06835(16) 0.38337(12)
B4_2 B 0.6457(3) 0.0446(2) 0.36304(17)
N12_2 N 0.6063(2) 0.00542(19) 0.38373(15)
O19_2 O 0.6147(2) 0.02119(17) 0.36128(13)
C85_2 C 0.6458(2) 0.06220(19) 0.33514(13)
C86_2 C 0.6137(2) 0.0641(2) 0.31886(15)
H96_2 H 0.5915 0.0541 0.3242
C87_2 C 0.6136(2) 0.0803(2) 0.29512(15)
H97_2 H 0.5912 0.0821 0.2848
C88_2 C 0.6462(2) 0.09388(18) 0.28644(13)
C89_2 C 0.6786(2) 0.0916(2) 0.30171(15)
H98_2 H 0.7010 0.1009 0.2960
C90_2 C 0.6781(2) 0.0757(2) 0.32556(15)
H99_2 H 0.7007 0.0739 0.3357
O22_2 O 0.6379(2) 0.02162(16) 0.45522(12)
C92_2 C 0.6240(4) 0.1370(2) 0.5089(2)
C97_2 C 0.6464(2) 0.10984(19) 0.26006(14)
O24_2 O 0.61526(18) 0.11289(17) 0.24811(12)
O25_2 O 0.67775(16) 0.11917(14) 0.25214(11)
N14_2 N 0.6830(5) 0.0077(5) 0.3866(4)
O27_2 O 0.6781(5) 0.0244(4) 0.3639(4)
C144_2 C 0.4885(2) 0.01961(17) 0.2020(2)
H140_2 H 0.4654 0.0227 0.2104
C145_2 C 0.51489(19) 0.04322(18) 0.20287(19)
H141_2 H 0.5098 0.0622 0.2118
C146_2 C 0.54888(18) 0.03924(15) 0.19076(16)
C147_2 C 0.5555(2) 0.01200(16) 0.17729(18)
H142_2 H 0.5783 0.0093 0.1684
C152_2 C 0.57818(19) 0.06436(16) 0.19207(17)
O40_2 O 0.56901(14) 0.09035(12) 0.20123(12)
O41_2 O 0.60982(15) 0.05750(13) 0.18503(15)
C154_2 C 0.2218(8) 0.0100(6) 0.1684(5)
H144_2 H 0.2450 0.0188 0.1620
H146_2 H 0.2050 0.0270 0.1734
C155_2 C 0.2414(8) 0.0127(6) 0.2154(5)
H147_2 H 0.2472 0.0004 0.2312
H148_2 H 0.2633 0.0249 0.2107
H149_2 H 0.2206 0.0268 0.2187
N21_2 N 0.7440(4) 0.1191(4) 0.1230(3)
C164_2 C 0.7463(6) 0.1516(5) 0.1303(5)
H171_2 H 0.7643 0.1622 0.1192
H172_2 H 0.7218 0.1614 0.1279
H173_2 H 0.7545 0.1534 0.1488
C165_2 C 0.7669(6) 0.1102(6) 0.1015(4)
H174_2 H 0.7811 0.1284 0.0957
H175_2 H 0.7841 0.0936 0.1072
H176_2 H 0.7510 0.1026 0.0869
C166_2 C 0.7206(4) 0.1001(4) 0.1359(3)
H177_2 H 0.7186 0.0792 0.1298
O42_2 O 0.7025(3) 0.1069(3) 0.1543(2)
C167_2 C 0.5922(8) 0.1363(6) 0.5285(5)
H178_2 H 0.5956 0.1183 0.5402
H179_2 H 0.5925 0.1556 0.5388
H180_2 H 0.5683 0.1344 0.5188
C168_2 C 0.6184(10) 0.1652(4) 0.4906(4)
H181_2 H 0.6386 0.1659 0.4780
H182_2 H 0.5944 0.1633 0.4811
H183_2 H 0.6186 0.1844 0.5011
C169_2 C 0.6613(6) 0.1440(6) 0.5239(5)
H184_2 H 0.6670 0.1269 0.5362
H185_2 H 0.6814 0.1459 0.5113
H186_2 H 0.6591 0.1636 0.5337
O45_2 O 0.64858(19) 0.14647(18) 0.12776(12)
O46_2 O 0.6200(2) 0.1044(2) 0.14072(14)
H189_2 H 0.691528 0.0490527 0.137791
H190_2 H 0.657347 0.0274203 0.147459
Zn1_2 Zn 0.88589(3) 0.90853(2) 0.19797(3)
Zn2_2 Zn 0.93392(3) 0.85294(2) 0.19631(2)
Zn3_2 Zn 0.35748(3) 0.85585(3) 0.19508(3)
Zn4_2 Zn 0.41014(3) 0.90824(2) 0.19212(2)
Zn5_2 Zn 0.64387(4) 0.97468(3) 0.46581(2)
H41_2 H 0.9931 0.7434 0.2271
B1_2 B 0.9852(3) 0.7958(2) 0.1953(2)
O3_2 O 0.95397(18) 0.78962(15) 0.17588(15)
N3_2 N 0.9281(2) 0.81302(19) 0.17229(18)
C23_2 C 0.9047(3) 0.8073(2) 0.1539(2)
H45_2 H 0.9072 0.7877 0.1453
C24_2 C 0.8746(3) 0.8272(2) 0.1443(2)
C25_2 C 0.8660(3) 0.8563(2) 0.1565(2)
C26_2 C 0.8346(3) 0.8732(2) 0.1451(2)
C27_2 C 0.8154(4) 0.8626(3) 0.1225(3)
H46_2 H 0.7957 0.8749 0.1151
C28_2 C 0.8246(3) 0.8346(3) 0.1106(2)
C29_2 C 0.8541(4) 0.8175(3) 0.1219(3)
H47_2 H 0.8606 0.7982 0.1139
C30_2 C 0.8225(3) 0.9021(3) 0.1563(2)
H48_2 H 0.7998 0.9106 0.1494
N4_2 N 0.8389(3) 0.9176(2) 0.1744(2)
O4_2 O 0.8193(2) 0.94437(19) 0.17939(18)
B2_2 B 0.8346(3) 0.9662(2) 0.1990(3)
N5_2 N 0.99050(18) 0.85155(14) 0.18704(17)
C33_2 C 0.9695(2) 0.91916(17) 0.1838(2)
C34_2 C 0.9658(2) 0.95201(18) 0.1823(2)
C35_2 C 0.9977(2) 0.9710(2) 0.1790(3)
H50_2 H 0.9947 0.9930 0.1790
C38_2 C 0.9311(2) 0.9688(2) 0.1859(2)
H52_2 H 0.9314 0.9909 0.1839
N6_2 N 0.9004(2) 0.95597(18) 0.1916(2)
O6_2 O 0.87154(19) 0.97845(16) 0.19392(18)
O7_2 O 0.97249(18) 0.79850(14) 0.22213(14)
N7_2 N 0.9482(2) 0.82243(16) 0.22748(15)
C39_2 C 0.9384(2) 0.82137(19) 0.25124(17)
H53_2 H 0.9493 0.8054 0.2620
C40_2 C 0.9119(2) 0.84232(17) 0.26364(16)
C41_2 C 0.8964(2) 0.86876(17) 0.25007(17)
C42_2 C 0.8706(2) 0.88767(18) 0.26430(16)
C43_2 C 0.8610(3) 0.8790(2) 0.28976(17)
H54_2 H 0.8432 0.8914 0.2985
C44_2 C 0.8759(2) 0.8534(2) 0.30294(15)
C45_2 C 0.9018(2) 0.8354(2) 0.28961(16)
H55_2 H 0.9130 0.8179 0.2983
C46_2 C 0.8531(3) 0.9153(2) 0.25307(19)
H56_2 H 0.8379 0.9272 0.2644
N8_2 N 0.8560(2) 0.9254(2) 0.22976(18)
O8_2 O 0.8342(2) 0.95220(18) 0.22571(17)
C47_2 C 0.8051(2) 0.99403(17) 0.19999(18)
O11_2 O 0.8834(2) 0.86583(17) 0.17686(17)
C50_2 C 0.8037(4) 0.8226(4) 0.0859(3)
O12_2 O 0.94134(17) 0.90084(14) 0.18847(16)
O13_2 O 0.90533(17) 0.87603(14) 0.22612(14)
C55_2 C 0.8642(3) 0.8449(3) 0.33082(16)
C57_2 C 0.7759(4) 0.9966(3) 0.1809(3)
H66_2 H 0.7741 0.9818 0.1671
C61_2 C 0.8943(5) 0.8491(7) 0.3516(4)
H70_2 H 0.9177 0.8400 0.3454
H71_2 H 0.8979 0.8714 0.3551
H72_2 H 0.8870 0.8385 0.3678
C62_2 C 0.8567(7) 0.8087(4) 0.3315(5)
H73_2 H 0.8371 0.8034 0.3185
H74_2 H 0.8797 0.7974 0.3275
H75_2 H 0.8487 0.8027 0.3491
C63_2 C 0.8268(5) 0.8582(6) 0.3385(5)
H76_2 H 0.8085 0.8547 0.3241
H77_2 H 0.8185 0.8478 0.3544
H78_2 H 0.8294 0.8807 0.3418
C64_2 C 0.8289(6) 0.8250(5) 0.0620(3)
H79_2 H 0.8523 0.8138 0.0657
H80_2 H 0.8161 0.8156 0.0466
H81_2 H 0.8342 0.8470 0.0583
C65_2 C 0.7672(5) 0.8398(5) 0.0803(4)
H82_2 H 0.7551 0.8313 0.0643
H83_2 H 0.7507 0.8372 0.0952
H84_2 H 0.7723 0.8621 0.0777
C66_2 C 0.7960(6) 0.7874(4) 0.0893(4)
H85_2 H 0.8196 0.7764 0.0929
H86_2 H 0.7793 0.7843 0.1040
H87_2 H 0.7842 0.7792 0.0731
C67_2 C 0.6404(3) 0.9217(2) 0.54612(14)
C68_2 C 0.6373(3) 0.8937(2) 0.59645(14)
B3_2 B 0.6436(3) 0.9389(3) 0.51853(18)
O16_2 O 0.6418(2) 0.97199(19) 0.52490(13)
N9_2 N 0.6395(3) 0.9934(2) 0.50412(16)
O18_2 O 0.6112(2) 0.92846(19) 0.50317(13)
N11_2 N 0.6052(2) 0.9416(2) 0.47851(15)
C77_2 C 0.5727(3) 0.9355(2) 0.46934(17)
H92_2 H 0.5571 0.9228 0.4798
C78_2 C 0.5577(2) 0.9462(2) 0.44447(15)
C79_2 C 0.5780(3) 0.9643(2) 0.42574(16)
C80_2 C 0.5581(2) 0.9732(2) 0.40216(16)
C81_2 C 0.5203(2) 0.9655(2) 0.39872(18)
H93_2 H 0.5075 0.9722 0.3831
C82_2 C 0.5005(2) 0.9484(2) 0.41702(17)
C83_2 C 0.5199(2) 0.9390(3) 0.43926(17)
H94_2 H 0.5070 0.9269 0.4518
C84_2 C 0.5748(2) 0.9920(2) 0.38172(17)
H95_2 H 0.5610 0.9944 0.3656
C91_2 C 0.6365(3) 0.8808(2) 0.62373(16)
O20_2 O 0.64858(19) 0.85353(18) 0.62776(12)
O21_2 O 0.6200(2) 0.8956(2) 0.64072(14)
O23_2 O 0.6122(2) 0.97147(18) 0.42989(13)
C93_2 C 0.4593(2) 0.9392(3) 0.4133(2)
C94_2 C 0.4543(4) 0.9034(3) 0.4157(3)
H100_2 H 0.4643 0.8963 0.4328
H101_2 H 0.4278 0.8981 0.4140
H102_2 H 0.4679 0.8930 0.4016
C95_2 C 0.4367(4) 0.9538(4) 0.4355(2)
H103_2 H 0.4477 0.9477 0.4526
H104_2 H 0.4371 0.9766 0.4339
H105_2 H 0.4108 0.9464 0.4342
C96_2 C 0.4434(3) 0.9479(4) 0.3867(2)
H106_2 H 0.4584 0.9382 0.3730
H107_2 H 0.4176 0.9404 0.3850
H108_2 H 0.4439 0.9707 0.3847
O26_2 O 0.6748(5) 0.9262(4) 0.5032(3)
C98_2 C 0.6520(5) 0.8777(3) 0.5756(2)
H109_2 H 0.6612 0.8571 0.5781
C99_2 C 0.6535(5) 0.8916(3) 0.5510(2)
H110_2 H 0.6638 0.8801 0.5369
C100_2 C 0.6241(5) 0.9370(3) 0.5674(2)
H111_2 H 0.6136 0.9571 0.5646
C101_2 C 0.6227(5) 0.9239(3) 0.5923(2)
H112_2 H 0.6121 0.9352 0.6063
N13_2 N 0.6821(5) 0.9417(5) 0.4807(4)
C102_2 C 0.7113(5) 0.9305(5) 0.4708(3)
H113_2 H 0.7242 0.9144 0.4803
C103_2 C 0.7263(4) 0.9405(4) 0.4460(3)
C104_2 C 0.7092(5) 0.9635(4) 0.4290(3)
C105_2 C 0.7263(4) 0.9692(4) 0.4043(3)
C106_2 C 0.7590(5) 0.9532(4) 0.3977(3)
H114_2 H 0.7695 0.9569 0.3810
C107_2 C 0.7760(4) 0.9323(4) 0.4148(3)
C108_2 C 0.7594(5) 0.9262(5) 0.4384(3)
H115_2 H 0.7710 0.9116 0.4501
C109_2 C 0.7120(5) 0.9910(4) 0.3848(3)
H116_2 H 0.7257 0.9930 0.3691
O28_2 O 0.6807(6) 0.9783(7) 0.4359(6)
C110_2 C 0.8128(4) 0.9166(5) 0.4077(4)
C111_2 C 0.8036(8) 0.8817(5) 0.4077(6)
H117_2 H 0.7966 0.8752 0.4254
H118_2 H 0.7828 0.8776 0.3952
H119_2 H 0.8255 0.8698 0.4024
C112_2 C 0.8435(6) 0.9244(7) 0.4279(5)
H120_2 H 0.8359 0.9175 0.4454
H121_2 H 0.8665 0.9135 0.4233
H122_2 H 0.8478 0.9470 0.4281
C113_2 C 0.8238(8) 0.9269(7) 0.3804(4)
H123_2 H 0.8037 0.9217 0.3677
H124_2 H 0.8280 0.9495 0.3804
H125_2 H 0.8467 0.9161 0.3756
C114_2 C 0.2757(2) 0.77126(18) 0.19831(19)
C115_2 C 0.2809(3) 0.74677(19) 0.2162(2)
H126_2 H 0.3001 0.7487 0.2293
C116_2 C 0.2595(3) 0.72006(18) 0.21580(19)
H127_2 H 0.2637 0.7042 0.2287
C117_2 C 0.2316(2) 0.71636(15) 0.19642(16)
C118_2 C 0.2248(2) 0.74060(16) 0.17872(18)
H128_2 H 0.2053 0.7389 0.1657
C119_2 C 0.2465(2) 0.76718(18) 0.18018(19)
H129_2 H 0.2411 0.7836 0.1681
B5_2 B 0.3030(3) 0.8010(2) 0.1979(3)
O29_2 O 0.2792(2) 0.82932(16) 0.19656(18)
N15_2 N 0.2984(2) 0.85825(16) 0.1946(2)
C120_2 C 0.2761(3) 0.88130(17) 0.1949(2)
H130_2 H 0.2503 0.8768 0.1968
C121_2 C 0.2866(2) 0.91376(16) 0.19279(19)
C122_2 C 0.3239(2) 0.92374(17) 0.18964(19)
C123_2 C 0.32978(18) 0.95658(16) 0.18668(17)
C124_2 C 0.29925(18) 0.97757(18) 0.18702(19)
H131_2 H 0.3038 0.9993 0.1850
C125_2 C 0.26308(18) 0.96731(16) 0.19016(19)
C126_2 C 0.2574(2) 0.93531(17) 0.1927(2)
H132_2 H 0.2327 0.9278 0.1944
C127_2 C 0.36685(18) 0.97029(18) 0.18506(18)
H133_2 H 0.3678 0.9922 0.1822
N16_2 N 0.39797(17) 0.95645(15) 0.18698(16)
O30_2 O 0.42785(15) 0.97662(13) 0.18552(14)
B6_2 B 0.4657(2) 0.9630(2) 0.1890(2)
O31_2 O 0.3236(2) 0.79622(17) 0.17433(18)
N17_2 N 0.3514(3) 0.8180(2) 0.16957(19)
C128_2 C 0.3675(3) 0.8121(2) 0.1482(2)
H134_2 H 0.3594 0.7939 0.1390
C129_2 C 0.3967(3) 0.8302(2) 0.13654(19)
C130_2 C 0.4119(3) 0.8576(2) 0.14841(19)
C131_2 C 0.4387(3) 0.87436(19) 0.13328(17)
C132_2 C 0.4493(3) 0.8635(2) 0.10865(19)
H135_2 H 0.4674 0.8750 0.0993
C133_2 C 0.4345(3) 0.8366(2) 0.09725(18)
C134_2 C 0.4087(4) 0.8207(3) 0.1119(2)
H136_2 H 0.3984 0.8020 0.1047
C135_2 C 0.4559(3) 0.90291(19) 0.14246(18)
H137_2 H 0.4729 0.9124 0.1309
N18_2 N 0.4512(2) 0.91681(16) 0.16396(15)
O32_2 O 0.47453(17) 0.94172(15) 0.16732(14)
O33_2 O 0.3247(2) 0.80011(17) 0.22242(18)
N19_2 N 0.3503(3) 0.8244(2) 0.22597(19)
C136_2 C 0.3651(3) 0.8236(2) 0.2488(2)
H138_2 H 0.3565 0.8075 0.2600
C137_2 C 0.3932(3) 0.8441(2) 0.26007(17)
C138_2 C 0.4080(3) 0.8696(2) 0.24513(19)
C139_2 C 0.4346(3) 0.8891(2) 0.25843(16)
C140_2 C 0.4454(3) 0.8828(2) 0.28459(18)
C141_2 C 0.4056(3) 0.8394(3) 0.28597(19)
C142_2 C 0.4521(3) 0.9161(2) 0.24598(17)
H139_2 H 0.4674 0.9291 0.2569
N20_2 N 0.4486(2) 0.92343(17) 0.22179(15)
O34_2 O 0.47180(17) 0.94841(14) 0.21524(13)
C143_2 C 0.49466(18) 0.99142(15) 0.18908(17)
C148_2 C 0.52885(19) 0.98849(17) 0.17665(18)
H143_2 H 0.5340 0.9697 0.1674
C149_2 C 0.2102(2) 0.68650(16) 0.19350(16)
O37_2 O 0.35116(17) 0.90421(14) 0.18890(15)
C150_2 C 0.2302(2) 0.98983(19) 0.1919(2)
O38_2 O 0.40060(19) 0.86785(15) 0.17004(15)
C151_2 C 0.4473(4) 0.8249(3) 0.0704(2)
O39_2 O 0.3980(2) 0.87411(16) 0.22078(15)
C153_2 C 0.4343(4) 0.8563(3) 0.2981(2)
H145_2 H 0.2097 0.9974 0.1545
C156_2 C 0.1944(5) 0.9762(6) 0.2020(7)
H150_2 H 0.2001 0.9630 0.2173
H151_2 H 0.1777 0.9931 0.2070
H152_2 H 0.1824 0.9635 0.1881
C157_2 C 0.4260(7) 0.7966(5) 0.0595(5)
H153_2 H 0.4263 0.7799 0.0726
H154_2 H 0.4001 0.8026 0.0553
H155_2 H 0.4379 0.7893 0.0435
C158_2 C 0.4871(5) 0.8126(6) 0.0772(5)
H156_2 H 0.5024 0.8297 0.0844
H157_2 H 0.4857 0.7958 0.0902
H158_2 H 0.4984 0.8045 0.0612
C159_2 C 0.4483(9) 0.8524(5) 0.0513(4)
H159_2 H 0.4623 0.8697 0.0594
H160_2 H 0.4606 0.8458 0.0351
H161_2 H 0.4228 0.8592 0.0469
C160_2 C 0.4561(5) 0.8437(4) 0.3223(3)
C161_2 C 0.4408(8) 0.8130(5) 0.3322(5)
H162_2 H 0.4431 0.7970 0.3185
H163_2 H 0.4550 0.8065 0.3481
H164_2 H 0.4145 0.8156 0.3364
C162_2 C 0.4527(8) 0.8688(6) 0.3434(4)
H165_2 H 0.4626 0.8886 0.3369
H166_2 H 0.4263 0.8715 0.3476
H167_2 H 0.4668 0.8624 0.3593
C163_2 C 0.4974(5) 0.8377(6) 0.3176(5)
H168_2 H 0.5090 0.8569 0.3111
H169_2 H 0.5099 0.8313 0.3341
H170_2 H 0.4999 0.8211 0.3045
Zn12_2 Zn 0.65309(3) 0.91760(2) 0.67263(2)
Zn16_2 Zn 0.64734(2) 0.84527(2) 0.66586(2)
H187_2 H 0.46344 0.899558 0.294866
H188_2 H 0.391952 0.821371 0.297402
C67_3 C 0.1404(3) 0.5783(2) 0.04612(14)
C68_3 C 0.1373(3) 0.6063(2) 0.09645(14)
B3_3 B 0.1436(3) 0.5611(3) 0.01853(18)
O16_3 O 0.1418(2) 0.52801(19) 0.02490(13)
N9_3 N 0.1395(3) 0.5066(2) 0.00412(16)
C69_3 C 0.1380(3) 0.4787(2) 0.01192(19)
H88_3 H 0.1382 0.4754 0.0304
C75_3 C 0.1318(4) 0.4222(2) 0.0083(2)
H90_3 H 0.1309 0.4220 0.0270
O18_3 O 0.1112(2) 0.57154(19) 0.00317(13)
C91_3 C 0.1365(3) 0.6192(2) 0.12373(16)
C92_3 C 0.1240(4) 0.3630(2) 0.0089(2)
O26_3 O 0.1748(5) 0.5738(4) 0.0032(3)
C98_3 C 0.1520(5) 0.6223(3) 0.0756(2)
H109_3 H 0.1612 0.6429 0.0781
C99_3 C 0.1535(5) 0.6084(3) 0.0510(2)
H110_3 H 0.1638 0.6199 0.0369
C100_3 C 0.1241(5) 0.5630(3) 0.0674(2)
H111_3 H 0.1136 0.5429 0.0646
C101_3 C 0.1227(5) 0.5761(3) 0.0923(2)
H112_3 H 0.1121 0.5648 0.1063
C167_3 C 0.0922(8) 0.3637(6) 0.0285(5)
H178_3 H 0.0956 0.3817 0.0402
H179_3 H 0.0925 0.3444 0.0388
H180_3 H 0.0683 0.3656 0.0188
H183_3 H 0.1186 0.3156 0.0011
C169_3 C 0.1613(6) 0.3560(6) 0.0239(5)
H184_3 H 0.1670 0.3731 0.0362
H185_3 H 0.1814 0.3541 0.0113
H186_3 H 0.1591 0.3364 0.0337
Zn1_3 Zn 0.38589(3) 0.59147(2) 0.69797(3)
Zn2_3 Zn 0.43392(3) 0.64706(2) 0.69631(2)
Zn5_3 Zn 0.14387(4) 0.52532(3) 0.96581(2)
Zn6_3 Zn 0.14425(3) 0.49110(3) 0.91570(2)
Zn7_2 Zn 0.10391(2) 0.37672(2) 0.71151(2)
Zn9_2 Zn 0.19219(2) 0.37436(2) 0.71532(2)
O1_3 O 0.14930(11) 0.37779(9) 0.69211(9)
O2_3 O 0.1645(4) 0.4513(3) 0.6416(3)
C17_3 C 0.5116(2) 0.73448(16) 0.69444(17)
C18_3 C 0.5100(3) 0.75859(18) 0.71315(19)
H41_3 H 0.4931 0.7566 0.7271
C19_3 C 0.5321(3) 0.78507(18) 0.71208(18)
H42_3 H 0.5307 0.8005 0.7255
C20_3 C 0.5564(2) 0.78920(15) 0.69163(16)
C21_3 C 0.5592(2) 0.76552(16) 0.67305(17)
H43_3 H 0.5759 0.7678 0.6590
C22_3 C 0.5378(2) 0.73867(17) 0.67476(18)
H44_3 H 0.5410 0.7225 0.6622
B1_3 B 0.4852(3) 0.7042(2) 0.6953(2)
O3_3 O 0.45397(18) 0.71038(15) 0.67588(15)
N3_3 N 0.4281(2) 0.68698(19) 0.67229(18)
C23_3 C 0.4047(3) 0.6927(2) 0.6539(2)
H45_3 H 0.4072 0.7123 0.6453
C24_3 C 0.3746(3) 0.6728(2) 0.6443(2)
C25_3 C 0.3660(3) 0.6437(2) 0.6565(2)
C26_3 C 0.3346(3) 0.6268(2) 0.6451(2)
C27_3 C 0.3154(4) 0.6374(3) 0.6225(3)
H46_3 H 0.2957 0.6251 0.6151
C28_3 C 0.3246(3) 0.6654(3) 0.6106(2)
C29_3 C 0.3541(4) 0.6825(3) 0.6219(3)
H47_3 H 0.3606 0.7018 0.6139
C30_3 C 0.3225(3) 0.5979(3) 0.6563(2)
H48_3 H 0.2998 0.5894 0.6494
N4_3 N 0.3389(3) 0.5824(2) 0.6744(2)
O4_3 O 0.3193(2) 0.55563(19) 0.67939(18)
B2_3 B 0.3346(3) 0.5338(2) 0.6990(3)
O5_3 O 0.50798(17) 0.67785(13) 0.68672(15)
N5_3 N 0.49050(18) 0.64845(14) 0.68704(17)
C31_3 C 0.5133(2) 0.62688(16) 0.6816(2)
H49_3 H 0.5381 0.6332 0.6781
C32_3 C 0.5057(2) 0.59331(16) 0.6802(2)
C33_3 C 0.4695(2) 0.58084(17) 0.6838(2)
C34_3 C 0.4658(2) 0.54799(18) 0.6823(2)
C35_3 C 0.4977(2) 0.5290(2) 0.6790(3)
H50_3 H 0.4947 0.5070 0.6790
C36_3 C 0.5332(2) 0.54125(19) 0.6757(3)
C37_3 C 0.5356(2) 0.57364(18) 0.6753(3)
H51_3 H 0.5589 0.5829 0.6714
C38_3 C 0.4311(2) 0.5312(2) 0.6859(2)
H52_3 H 0.4314 0.5091 0.6839
N6_3 N 0.4004(2) 0.54403(18) 0.6916(2)
O6_3 O 0.37154(19) 0.52155(16) 0.69392(18)
O7_3 O 0.47249(18) 0.70150(14) 0.72213(14)
N7_3 N 0.4482(2) 0.67757(16) 0.72748(15)
C39_3 C 0.4384(2) 0.67863(19) 0.75124(17)
H53_3 H 0.4493 0.6946 0.7620
C40_3 C 0.4119(2) 0.65768(17) 0.76364(16)
C41_3 C 0.3964(2) 0.63124(17) 0.75007(17)
C42_3 C 0.3706(2) 0.61233(18) 0.76430(16)
C43_3 C 0.3610(3) 0.6210(2) 0.78976(17)
H54_3 H 0.3432 0.6086 0.7985
C44_3 C 0.3759(2) 0.6466(2) 0.80294(15)
C45_3 C 0.4018(2) 0.6646(2) 0.78961(16)
H55_3 H 0.4130 0.6821 0.7983
C46_3 C 0.3531(3) 0.5847(2) 0.75307(19)
H56_3 H 0.3379 0.5728 0.7644
N8_3 N 0.3560(2) 0.5746(2) 0.72976(18)
O8_3 O 0.3342(2) 0.54780(18) 0.72571(17)
C47_3 C 0.3051(2) 0.50597(17) 0.69999(18)
C48_3 C 0.25200(19) 0.45689(16) 0.70178(18)
C49_3 C 0.5802(2) 0.81810(16) 0.69002(17)
O9_2 O 0.57731(16) 0.83762(13) 0.70815(13)
O10_2 O 0.60243(16) 0.81897(12) 0.67120(12)
O11_3 O 0.3834(2) 0.63417(17) 0.67686(17)
C50_3 C 0.3037(4) 0.6774(4) 0.5859(3)
O12_3 O 0.44134(17) 0.59916(14) 0.68847(16)
C51_3 C 0.5680(3) 0.5205(3) 0.6734(3)
C52_3 C 0.5942(4) 0.5236(4) 0.6987(3)
H57_3 H 0.5813 0.5154 0.7140
H58_3 H 0.6006 0.5456 0.7016
H59_3 H 0.6171 0.5115 0.6962
C53_3 C 0.5940(4) 0.5341(4) 0.6542(4)
H60_3 H 0.5969 0.5565 0.6577
H61_3 H 0.5839 0.5310 0.6363
H62_3 H 0.6183 0.5238 0.6561
C54_2 C 0.5581(4) 0.4864(3) 0.6729(4)
H63_2 H 0.5407 0.4819 0.6870
H64_2 H 0.5808 0.4739 0.6756
H65_2 H 0.5464 0.4811 0.6558
O13_3 O 0.40533(17) 0.62397(14) 0.72612(14)
C55_3 C 0.3642(3) 0.6551(3) 0.83082(16)
C56_3 C 0.2237(2) 0.43161(18) 0.7037(2)
O14_3 O 0.19085(17) 0.43858(15) 0.69611(18)
O15_3 O 0.23229(15) 0.40515(13) 0.71289(14)
C57_3 C 0.2759(4) 0.5034(3) 0.6809(3)
H66_3 H 0.2741 0.5182 0.6671
C58_3 C 0.2497(4) 0.4796(3) 0.6820(3)
H67_3 H 0.2300 0.4787 0.6692
C59_3 C 0.2814(3) 0.4582(3) 0.7201(3)
H68_3 H 0.2840 0.4426 0.7333
C60_3 C 0.3068(4) 0.4825(3) 0.7189(3)
H69_3 H 0.3266 0.4831 0.7317
C61_3 C 0.3943(5) 0.6509(7) 0.8516(4)
H70_3 H 0.4177 0.6600 0.8454
H71_3 H 0.3979 0.6286 0.8551
H72_3 H 0.3870 0.6615 0.8678
C62_3 C 0.3567(7) 0.6913(4) 0.8315(5)
H73_3 H 0.3371 0.6966 0.8185
H74_3 H 0.3797 0.7026 0.8275
H75_3 H 0.3487 0.6973 0.8491
C63_3 C 0.3268(5) 0.6418(6) 0.8385(5)
H76_3 H 0.3085 0.6453 0.8241
H77_3 H 0.3185 0.6522 0.8544
H78_3 H 0.3294 0.6193 0.8418
C64_3 C 0.3289(6) 0.6750(5) 0.5620(3)
H79_3 H 0.3523 0.6862 0.5657
H80_3 H 0.3161 0.6844 0.5466
H81_3 H 0.3342 0.6530 0.5583
C65_3 C 0.2672(5) 0.6602(5) 0.5803(4)
H82_3 H 0.2551 0.6687 0.5643
H83_3 H 0.2507 0.6628 0.5952
H84_3 H 0.2723 0.6379 0.5777
C66_3 C 0.2960(6) 0.7126(4) 0.5893(4)
H85_3 H 0.3196 0.7236 0.5929
H86_3 H 0.2793 0.7157 0.6040
H87_3 H 0.2842 0.7208 0.5731
C70_3 C 0.1360(3) 0.45113(19) 0.99532(16)
C71_3 C 0.1370(3) 0.4523(2) 0.96725(15)
C72_3 C 0.1340(3) 0.4233(2) 0.95350(15)
C73_3 C 0.1292(4) 0.3958(2) 0.96792(17)
H89_3 H 0.1260 0.3768 0.9584
C74_3 C 0.1289(4) 0.3944(2) 0.99478(18)
C76_3 C 0.1359(3) 0.4206(2) 0.92539(15)
H91_3 H 0.1339 0.4000 0.9184
N10_3 N 0.1398(2) 0.44228(17) 0.90880(14)
O17_3 O 0.1407(2) 0.43165(16) 0.88337(12)
B4_3 B 0.1457(3) 0.4554(2) 0.86304(17)
N11_3 N 0.1052(2) 0.5584(2) 0.97851(15)
C77_3 C 0.0727(3) 0.5645(2) 0.96934(17)
H92_3 H 0.0571 0.5772 0.9798
C78_3 C 0.0577(2) 0.5538(2) 0.94447(15)
C79_3 C 0.0780(3) 0.5357(2) 0.92574(16)
C80_3 C 0.0581(2) 0.5268(2) 0.90216(16)
C81_3 C 0.0203(2) 0.5345(2) 0.89872(18)
H93_3 H 0.0075 0.5278 0.8831
C82_3 C 0.0005(2) 0.5516(2) 0.91702(17)
C83_3 C 0.0199(2) 0.5610(3) 0.93926(17)
H94_3 H 0.0070 0.5731 0.9518
C84_3 C 0.0748(2) 0.5080(2) 0.88172(17)
H95_3 H 0.0610 0.5056 0.8656
N12_3 N 0.1063(2) 0.49458(19) 0.88373(15)
O19_3 O 0.1147(2) 0.47881(17) 0.86128(13)
C85_3 C 0.1458(2) 0.43780(19) 0.83514(13)
C86_3 C 0.1137(2) 0.4359(2) 0.81886(15)
H96_3 H 0.0915 0.4459 0.8242
C87_3 C 0.1136(2) 0.4197(2) 0.79512(15)
H97_3 H 0.0912 0.4179 0.7848
C88_3 C 0.1462(2) 0.40612(18) 0.78644(13)
C89_3 C 0.1786(2) 0.4084(2) 0.80171(15)
H98_3 H 0.2010 0.3991 0.7960
C90_3 C 0.1781(2) 0.4243(2) 0.82556(15)
H99_3 H 0.2007 0.4261 0.8357
O22_3 O 0.1379(2) 0.47838(16) 0.95522(12)
O23_3 O 0.1122(2) 0.52853(18) 0.92989(13)
C97_3 C 0.1464(2) 0.39016(19) 0.76006(14)
O24_3 O 0.11526(18) 0.38711(17) 0.74811(12)
O25_3 O 0.17775(16) 0.38083(14) 0.75214(11)
N13_3 N 0.1821(5) 0.5583(5) 0.9807(4)
C102_3 C 0.2113(5) 0.5695(5) 0.9708(3)
H113_3 H 0.2242 0.5856 0.9803
C103_3 C 0.2263(4) 0.5595(4) 0.9460(3)
C104_3 C 0.2092(5) 0.5365(4) 0.9290(3)
C105_3 C 0.2263(4) 0.5308(4) 0.9043(3)
C106_3 C 0.2590(5) 0.5468(4) 0.8977(3)
H114_3 H 0.2695 0.5431 0.8810
C107_3 C 0.2760(4) 0.5677(4) 0.9148(3)
C108_3 C 0.2594(5) 0.5738(5) 0.9384(3)
H115_3 H 0.2710 0.5884 0.9501
C109_3 C 0.2120(5) 0.5090(4) 0.8848(3)
H116_3 H 0.2257 0.5070 0.8691
N14_3 N 0.1830(5) 0.4923(5) 0.8866(4)
O27_3 O 0.1781(5) 0.4756(4) 0.8639(4)
O28_3 O 0.1807(6) 0.5217(7) 0.9359(6)
C110_3 C 0.3128(4) 0.5834(5) 0.9077(4)
C111_3 C 0.3036(8) 0.6183(5) 0.9077(6)
H117_3 H 0.2966 0.6248 0.9254
H118_3 H 0.2828 0.6224 0.8952
H119_3 H 0.3255 0.6302 0.9024
C112_3 C 0.3435(6) 0.5756(7) 0.9279(5)
H120_3 H 0.3359 0.5825 0.9454
H121_3 H 0.3665 0.5865 0.9233
H122_3 H 0.3478 0.5530 0.9281
C113_3 C 0.3238(8) 0.5731(7) 0.8804(4)
H123_3 H 0.3037 0.5783 0.8677
H124_3 H 0.3280 0.5505 0.8804
H125_3 H 0.3467 0.5839 0.8756
C145_3 C 0.01489(19) 0.45678(18) 0.70287(19)
H141_3 H 0.0098 0.4378 0.7118
C146_3 C 0.04888(18) 0.46076(15) 0.69076(16)
C147_3 C 0.0555(2) 0.48800(16) 0.67729(18)
H142_3 H 0.0783 0.4907 0.6684
C148_3 C 0.02885(19) 0.51151(17) 0.67665(18)
H143_3 H 0.0340 0.5303 0.6674
C152_3 C 0.07818(19) 0.43564(16) 0.69207(17)
O40_3 O 0.06901(14) 0.40965(12) 0.70123(12)
O41_3 O 0.10982(15) 0.44250(13) 0.68503(15)
H156_3 H 0.0024 0.6703 0.5844
H168_3 H 0.0090 0.6431 0.8111
H169_3 H 0.0099 0.6687 0.8341
N21_3 N 0.2440(4) 0.3809(4) 0.6230(3)
C164_3 C 0.2463(6) 0.3484(5) 0.6303(5)
H171_3 H 0.2643 0.3378 0.6192
H172_3 H 0.2218 0.3386 0.6279
H173_3 H 0.2545 0.3466 0.6488
C165_3 C 0.2669(6) 0.3898(6) 0.6015(4)
H174_3 H 0.2811 0.3716 0.5957
H175_3 H 0.2841 0.4064 0.6072
H176_3 H 0.2510 0.3974 0.5869
C166_3 C 0.2206(4) 0.3999(4) 0.6359(3)
H177_3 H 0.2186 0.4208 0.6298
O42_3 O 0.2025(3) 0.3931(3) 0.6543(2)
C168_3 C 0.1184(10) 0.3348(4) 0.9906(4)
H181_3 H 0.1386 0.3341 0.9780
H182_3 H 0.0944 0.3367 0.9811
Zn11_2 Zn 0.60391(2) 0.87672(2) 0.71151(2)
O43_2 O 0.07731(16) 0.33762(13) 0.70815(13)
O44_2 O 0.10243(16) 0.31897(12) 0.67120(12)
O47_2 O 0.21588(15) 0.33349(12) 0.71125(11)
O48_2 O 0.18756(16) 0.31551(12) 0.67429(11)
H189_3 H 0.191528 0.450947 0.637791
H190_3 H 0.157347 0.47258 0.647459
Zn3_3 Zn 0.85748(3) 0.64415(3) 0.69508(3)
Zn4_3 Zn 0.91014(3) 0.59176(2) 0.69212(2)
C93_3 C 0.9593(2) 0.5608(3) 0.9133(2)
C94_3 C 0.9543(4) 0.5966(3) 0.9157(3)
H100_3 H 0.9643 0.6037 0.9328
H101_3 H 0.9278 0.6019 0.9140
H102_3 H 0.9679 0.6070 0.9016
C95_3 C 0.9367(4) 0.5462(4) 0.9355(2)
H103_3 H 0.9477 0.5523 0.9526
H104_3 H 0.9371 0.5234 0.9339
H105_3 H 0.9108 0.5536 0.9342
C96_3 C 0.9434(3) 0.5521(4) 0.8867(2)
H106_3 H 0.9584 0.5618 0.8730
H107_3 H 0.9176 0.5596 0.8850
H108_3 H 0.9439 0.5293 0.8847
C114_3 C 0.7757(2) 0.72874(18) 0.69831(19)
C115_3 C 0.7809(3) 0.75323(19) 0.7162(2)
H126_3 H 0.8001 0.7513 0.7293
C116_3 C 0.7595(3) 0.77994(18) 0.71580(19)
H127_3 H 0.7637 0.7958 0.7287
C117_3 C 0.7316(2) 0.78364(15) 0.69642(16)
C118_3 C 0.7248(2) 0.75940(16) 0.67872(18)
H128_3 H 0.7053 0.7611 0.6657
C119_3 C 0.7465(2) 0.73282(18) 0.68018(19)
H129_3 H 0.7411 0.7164 0.6681
B5_3 B 0.8030(3) 0.6990(2) 0.6979(3)
O29_3 O 0.7792(2) 0.67068(16) 0.69656(18)
N15_3 N 0.7984(2) 0.64175(16) 0.6946(2)
C120_3 C 0.7761(3) 0.61870(17) 0.6949(2)
H130_3 H 0.7503 0.6232 0.6968
C121_3 C 0.7866(2) 0.58624(16) 0.69279(19)
C122_3 C 0.8239(2) 0.57626(17) 0.68964(19)
C123_3 C 0.82978(18) 0.54342(16) 0.68668(17)
C124_3 C 0.79925(18) 0.52243(18) 0.68702(19)
H131_3 H 0.8038 0.5007 0.6850
C125_3 C 0.76308(18) 0.53269(16) 0.69016(19)
C126_3 C 0.7574(2) 0.56469(17) 0.6927(2)
H132_3 H 0.7327 0.5722 0.6944
C127_3 C 0.86685(18) 0.52971(18) 0.68506(18)
H133_3 H 0.8678 0.5078 0.6822
N16_3 N 0.89797(17) 0.54355(15) 0.68698(16)
O30_3 O 0.92785(15) 0.52338(13) 0.68552(14)
B6_3 B 0.9657(2) 0.5370(2) 0.6890(2)
O31_3 O 0.8236(2) 0.70378(17) 0.67433(18)
N17_3 N 0.8514(3) 0.6820(2) 0.66957(19)
C128_3 C 0.8675(3) 0.6879(2) 0.6482(2)
H134_3 H 0.8594 0.7061 0.6390
C129_3 C 0.8967(3) 0.6698(2) 0.63654(19)
C130_3 C 0.9119(3) 0.6424(2) 0.64841(19)
C131_3 C 0.9387(3) 0.62564(19) 0.63328(17)
C132_3 C 0.9493(3) 0.6365(2) 0.60865(19)
H135_3 H 0.9674 0.6250 0.5993
C133_3 C 0.9345(3) 0.6634(2) 0.59725(18)
C134_3 C 0.9087(4) 0.6793(3) 0.6119(2)
H136_3 H 0.8984 0.6980 0.6047
C135_3 C 0.9559(3) 0.59709(19) 0.64246(18)
H137_3 H 0.9729 0.5876 0.6309
N18_3 N 0.9512(2) 0.58319(16) 0.66396(15)
O32_3 O 0.97453(17) 0.55828(15) 0.66732(14)
O33_3 O 0.8247(2) 0.69989(17) 0.72242(18)
N19_3 N 0.8503(3) 0.6756(2) 0.72597(19)
C136_3 C 0.8651(3) 0.6764(2) 0.7488(2)
H138_3 H 0.8565 0.6925 0.7600
C137_3 C 0.8932(3) 0.6559(2) 0.76007(17)
C138_3 C 0.9080(3) 0.6304(2) 0.74513(19)
C139_3 C 0.9346(3) 0.6109(2) 0.75843(16)
C140_3 C 0.9454(3) 0.6172(2) 0.78459(18)
C141_3 C 0.9056(3) 0.6606(3) 0.78597(19)
C142_3 C 0.9521(3) 0.5839(2) 0.74598(17)
H139_3 H 0.9674 0.5709 0.7569
N20_3 N 0.9486(2) 0.57657(17) 0.72179(15)
O34_3 O 0.97180(17) 0.55159(14) 0.71524(13)
C143_3 C 0.99466(18) 0.50858(15) 0.68908(17)
C144_3 C 0.9885(2) 0.48039(17) 0.7020(2)
H140_3 H 0.9654 0.4773 0.7104
C149_3 C 0.7102(2) 0.81350(16) 0.69350(16)
O35_2 O 0.71588(15) 0.83349(12) 0.71125(11)
O36_2 O 0.68756(16) 0.81551(12) 0.67429(11)
O37_3 O 0.85116(17) 0.59579(14) 0.68890(15)
C150_3 C 0.7302(2) 0.51017(19) 0.6919(2)
O38_3 O 0.90060(19) 0.63215(15) 0.67004(15)
C151_3 C 0.9473(4) 0.6751(3) 0.5704(2)
O39_3 O 0.8980(2) 0.62589(16) 0.72078(15)
C153_3 C 0.9343(4) 0.6437(3) 0.7981(2)
C154_3 C 0.7218(8) 0.4900(6) 0.6684(5)
H144_3 H 0.7450 0.4812 0.6620
H145_3 H 0.7097 0.5026 0.6545
H146_3 H 0.7050 0.4730 0.6734
C155_3 C 0.7414(8) 0.4873(6) 0.7154(5)
H147_3 H 0.7472 0.4996 0.7312
H148_3 H 0.7633 0.4751 0.7107
H149_3 H 0.7206 0.4732 0.7187
C156_3 C 0.6944(5) 0.5238(6) 0.7020(7)
H150_3 H 0.7001 0.5370 0.7173
H151_3 H 0.6777 0.5069 0.7070
H152_3 H 0.6824 0.5365 0.6881
C157_3 C 0.9260(7) 0.7034(5) 0.5595(5)
H153_3 H 0.9263 0.7201 0.5726
H154_3 H 0.9001 0.6974 0.5553
H155_3 H 0.9379 0.7107 0.5435
C158_3 C 0.9871(5) 0.6874(6) 0.5772(5)
H157_3 H 0.9857 0.7042 0.5902
H158_3 H 0.9984 0.6955 0.5612
C159_3 C 0.9483(9) 0.6476(5) 0.5513(4)
H159_3 H 0.9623 0.6303 0.5594
H160_3 H 0.9606 0.6542 0.5351
H161_3 H 0.9228 0.6408 0.5469
C160_3 C 0.9561(5) 0.6563(4) 0.8223(3)
C161_3 C 0.9408(8) 0.6870(5) 0.8322(5)
H162_3 H 0.9431 0.7030 0.8185
H163_3 H 0.9550 0.6935 0.8481
H164_3 H 0.9145 0.6844 0.8364
C162_3 C 0.9527(8) 0.6312(6) 0.8434(4)
H165_3 H 0.9626 0.6114 0.8369
H166_3 H 0.9263 0.6285 0.8476
H167_3 H 0.9668 0.6376 0.8593
C163_3 C 0.9974(5) 0.6623(6) 0.8176(5)
H170_3 H 0.9999 0.6789 0.8045
Zn13_2 Zn 0.69219(2) 0.87436(2) 0.71532(2)
H187_3 H 0.96344 0.600442 0.794866
H188_3 H 0.891952 0.678629 0.797402
C17_4 C 0.0116(2) 0.23448(16) 0.69444(17)
C18_4 C 0.0100(3) 0.25859(18) 0.71315(19)
C19_4 C 0.0321(3) 0.28507(18) 0.71208(18)
H42_4 H 0.0307 0.3005 0.7255
C20_4 C 0.0564(2) 0.28920(15) 0.69163(16)
C21_4 C 0.0592(2) 0.26552(16) 0.67305(17)
H43_4 H 0.0759 0.2678 0.6590
C22_4 C 0.0378(2) 0.23867(17) 0.67476(18)
H44_4 H 0.0410 0.2225 0.6622
O5_4 O 0.00798(17) 0.17785(13) 0.68672(15)
C31_4 C 0.0133(2) 0.12688(16) 0.6816(2)
H49_4 H 0.0381 0.1332 0.6781
C32_4 C 0.0057(2) 0.09331(16) 0.6802(2)
C36_4 C 0.0332(2) 0.04125(19) 0.6757(3)
C37_4 C 0.0356(2) 0.07364(18) 0.6753(3)
H51_4 H 0.0589 0.0829 0.6714
C49_4 C 0.0802(2) 0.31810(16) 0.69002(17)
C51_4 C 0.0680(3) 0.0205(3) 0.6734(3)
C52_4 C 0.0942(4) 0.0236(4) 0.6987(3)
H57_4 H 0.0813 0.0154 0.7140
H58_4 H 0.1006 0.0456 0.7016
H59_4 H 0.1171 0.0115 0.6962
C53_4 C 0.0940(4) 0.0341(4) 0.6542(4)
H60_4 H 0.0969 0.0565 0.6577
H61_4 H 0.0839 0.0310 0.6363
H62_4 H 0.1183 0.0238 0.6561
C67_4 C 0.6404(3) 0.0783(2) 0.04612(14)
C68_4 C 0.6373(3) 0.1063(2) 0.09645(14)
B3_4 B 0.6436(3) 0.0611(3) 0.01853(18)
O16_4 O 0.6418(2) 0.02801(19) 0.02490(13)
N9_4 N 0.6395(3) 0.0066(2) 0.00412(16)
O18_4 O 0.6112(2) 0.07154(19) 0.00317(13)
C91_4 C 0.6365(3) 0.1192(2) 0.12373(16)
O26_4 O 0.6748(5) 0.0738(4) 0.0032(3)
C98_4 C 0.6520(5) 0.1223(3) 0.0756(2)
H109_4 H 0.6612 0.1429 0.0781
C99_4 C 0.6535(5) 0.1084(3) 0.0510(2)
H110_4 H 0.6638 0.1199 0.0369
C100_4 C 0.6241(5) 0.0630(3) 0.0674(2)
H111_4 H 0.6136 0.0429 0.0646
C101_4 C 0.6227(5) 0.0761(3) 0.0923(2)
H112_4 H 0.6121 0.0648 0.1063
Zn1_4 Zn 0.88589(3) 0.09147(2) 0.69797(3)
Zn2_4 Zn 0.93392(3) 0.14706(2) 0.69631(2)
Zn3_4 Zn 0.35748(3) 0.14415(3) 0.69508(3)
Zn4_4 Zn 0.41014(3) 0.09176(2) 0.69212(2)
Zn5_4 Zn 0.64387(4) 0.02532(3) 0.96581(2)
H41_4 H 0.9931 0.2566 0.7271
B1_4 B 0.9852(3) 0.2042(2) 0.6953(2)
O3_4 O 0.95397(18) 0.21038(15) 0.67588(15)
N3_4 N 0.9281(2) 0.18698(19) 0.67229(18)
C23_4 C 0.9047(3) 0.1927(2) 0.6539(2)
H45_4 H 0.9072 0.2123 0.6453
C24_4 C 0.8746(3) 0.1728(2) 0.6443(2)
C25_4 C 0.8660(3) 0.1437(2) 0.6565(2)
C26_4 C 0.8346(3) 0.1268(2) 0.6451(2)
C27_4 C 0.8154(4) 0.1374(3) 0.6225(3)
H46_4 H 0.7957 0.1251 0.6151
C28_4 C 0.8246(3) 0.1654(3) 0.6106(2)
C29_4 C 0.8541(4) 0.1825(3) 0.6219(3)
H47_4 H 0.8606 0.2018 0.6139
C30_4 C 0.8225(3) 0.0979(3) 0.6563(2)
H48_4 H 0.7998 0.0894 0.6494
N4_4 N 0.8389(3) 0.0824(2) 0.6744(2)
O4_4 O 0.8193(2) 0.05563(19) 0.67939(18)
B2_4 B 0.8346(3) 0.0338(2) 0.6990(3)
N5_4 N 0.99050(18) 0.14845(14) 0.68704(17)
C33_4 C 0.9695(2) 0.08084(17) 0.6838(2)
C34_4 C 0.9658(2) 0.04799(18) 0.6823(2)
C35_4 C 0.9977(2) 0.0290(2) 0.6790(3)
H50_4 H 0.9947 0.0070 0.6790
C38_4 C 0.9311(2) 0.0312(2) 0.6859(2)
H52_4 H 0.9314 0.0091 0.6839
N6_4 N 0.9004(2) 0.04403(18) 0.6916(2)
O6_4 O 0.87154(19) 0.02155(16) 0.69392(18)
O7_4 O 0.97249(18) 0.20150(14) 0.72213(14)
N7_4 N 0.9482(2) 0.17757(16) 0.72748(15)
C39_4 C 0.9384(2) 0.17863(19) 0.75124(17)
H53_4 H 0.9493 0.1946 0.7620
C40_4 C 0.9119(2) 0.15768(17) 0.76364(16)
C41_4 C 0.8964(2) 0.13124(17) 0.75007(17)
C42_4 C 0.8706(2) 0.11233(18) 0.76430(16)
C43_4 C 0.8610(3) 0.1210(2) 0.78976(17)
H54_4 H 0.8432 0.1086 0.7985
C44_4 C 0.8759(2) 0.1466(2) 0.80294(15)
C45_4 C 0.9018(2) 0.1646(2) 0.78961(16)
H55_4 H 0.9130 0.1821 0.7983
C46_4 C 0.8531(3) 0.0847(2) 0.75307(19)
H56_4 H 0.8379 0.0728 0.7644
N8_4 N 0.8560(2) 0.0746(2) 0.72976(18)
O8_4 O 0.8342(2) 0.04780(18) 0.72571(17)
C47_4 C 0.8051(2) 0.00597(17) 0.69999(18)
O11_4 O 0.8834(2) 0.13417(17) 0.67686(17)
C50_4 C 0.8037(4) 0.1774(4) 0.5859(3)
O12_4 O 0.94134(17) 0.09916(14) 0.68847(16)
O13_4 O 0.90533(17) 0.12397(14) 0.72612(14)
C55_4 C 0.8642(3) 0.1551(3) 0.83082(16)
C57_4 C 0.7759(4) 0.0034(3) 0.6809(3)
H66_4 H 0.7741 0.0182 0.6671
C61_4 C 0.8943(5) 0.1509(7) 0.8516(4)
H70_4 H 0.9177 0.1600 0.8454
H71_4 H 0.8979 0.1286 0.8551
H72_4 H 0.8870 0.1615 0.8678
C62_4 C 0.8567(7) 0.1913(4) 0.8315(5)
H73_4 H 0.8371 0.1966 0.8185
H74_4 H 0.8797 0.2026 0.8275
H75_4 H 0.8487 0.1973 0.8491
C63_4 C 0.8268(5) 0.1418(6) 0.8385(5)
H76_4 H 0.8085 0.1453 0.8241
H77_4 H 0.8185 0.1522 0.8544
H78_4 H 0.8294 0.1193 0.8418
C64_4 C 0.8289(6) 0.1750(5) 0.5620(3)
H79_4 H 0.8523 0.1862 0.5657
H80_4 H 0.8161 0.1844 0.5466
H81_4 H 0.8342 0.1530 0.5583
C65_4 C 0.7672(5) 0.1602(5) 0.5803(4)
H82_4 H 0.7551 0.1687 0.5643
H83_4 H 0.7507 0.1628 0.5952
H84_4 H 0.7723 0.1379 0.5777
C66_4 C 0.7960(6) 0.2126(4) 0.5893(4)
H85_4 H 0.8196 0.2236 0.5929
H86_4 H 0.7793 0.2157 0.6040
H87_4 H 0.7842 0.2208 0.5731
N11_4 N 0.6052(2) 0.0584(2) 0.97851(15)
C77_4 C 0.5727(3) 0.0645(2) 0.96934(17)
H92_4 H 0.5571 0.0772 0.9798
C78_4 C 0.5577(2) 0.0538(2) 0.94447(15)
C79_4 C 0.5780(3) 0.0357(2) 0.92574(16)
C80_4 C 0.5581(2) 0.0268(2) 0.90216(16)
C81_4 C 0.5203(2) 0.0345(2) 0.89872(18)
H93_4 H 0.5075 0.0278 0.8831
C82_4 C 0.5005(2) 0.0516(2) 0.91702(17)
C83_4 C 0.5199(2) 0.0610(3) 0.93926(17)
H94_4 H 0.5070 0.0731 0.9518
C84_4 C 0.5748(2) 0.0080(2) 0.88172(17)
H95_4 H 0.5610 0.0056 0.8656
O23_4 O 0.6122(2) 0.02853(18) 0.92989(13)
C93_4 C 0.4593(2) 0.0608(3) 0.9133(2)
C94_4 C 0.4543(4) 0.0966(3) 0.9157(3)
H100_4 H 0.4643 0.1037 0.9328
H101_4 H 0.4278 0.1019 0.9140
H102_4 H 0.4679 0.1070 0.9016
C95_4 C 0.4367(4) 0.0462(4) 0.9355(2)
H103_4 H 0.4477 0.0523 0.9526
H104_4 H 0.4371 0.0234 0.9339
H105_4 H 0.4108 0.0536 0.9342
C96_4 C 0.4434(3) 0.0521(4) 0.8867(2)
H106_4 H 0.4584 0.0618 0.8730
H107_4 H 0.4176 0.0596 0.8850
H108_4 H 0.4439 0.0293 0.8847
N13_4 N 0.6821(5) 0.0583(5) 0.9807(4)
C102_4 C 0.7113(5) 0.0695(5) 0.9708(3)
H113_4 H 0.7242 0.0856 0.9803
C103_4 C 0.7263(4) 0.0595(4) 0.9460(3)
C104_4 C 0.7092(5) 0.0365(4) 0.9290(3)
C105_4 C 0.7263(4) 0.0308(4) 0.9043(3)
C106_4 C 0.7590(5) 0.0468(4) 0.8977(3)
H114_4 H 0.7695 0.0431 0.8810
C107_4 C 0.7760(4) 0.0677(4) 0.9148(3)
C108_4 C 0.7594(5) 0.0738(5) 0.9384(3)
H115_4 H 0.7710 0.0884 0.9501
C109_4 C 0.7120(5) 0.0090(4) 0.8848(3)
H116_4 H 0.7257 0.0070 0.8691
O28_4 O 0.6807(6) 0.0217(7) 0.9359(6)
C110_4 C 0.8128(4) 0.0834(5) 0.9077(4)
C111_4 C 0.8036(8) 0.1183(5) 0.9077(6)
H117_4 H 0.7966 0.1248 0.9254
H118_4 H 0.7828 0.1224 0.8952
H119_4 H 0.8255 0.1302 0.9024
C112_4 C 0.8435(6) 0.0756(7) 0.9279(5)
H120_4 H 0.8359 0.0825 0.9454
H121_4 H 0.8665 0.0865 0.9233
H122_4 H 0.8478 0.0530 0.9281
C113_4 C 0.8238(8) 0.0731(7) 0.8804(4)
H123_4 H 0.8037 0.0783 0.8677
H124_4 H 0.8280 0.0505 0.8804
H125_4 H 0.8467 0.0839 0.8756
C114_4 C 0.2757(2) 0.22874(18) 0.69831(19)
C115_4 C 0.2809(3) 0.25323(19) 0.7162(2)
H126_4 H 0.3001 0.2513 0.7293
C116_4 C 0.2595(3) 0.27994(18) 0.71580(19)
H127_4 H 0.2637 0.2958 0.7287
C117_4 C 0.2316(2) 0.28364(15) 0.69642(16)
C118_4 C 0.2248(2) 0.25940(16) 0.67872(18)
H128_4 H 0.2053 0.2611 0.6657
C119_4 C 0.2465(2) 0.23282(18) 0.68018(19)
H129_4 H 0.2411 0.2164 0.6681
B5_4 B 0.3030(3) 0.1990(2) 0.6979(3)
O29_4 O 0.2792(2) 0.17068(16) 0.69656(18)
N15_4 N 0.2984(2) 0.14175(16) 0.6946(2)
C120_4 C 0.2761(3) 0.11870(17) 0.6949(2)
H130_4 H 0.2503 0.1232 0.6968
C121_4 C 0.2866(2) 0.08624(16) 0.69279(19)
C122_4 C 0.3239(2) 0.07626(17) 0.68964(19)
C123_4 C 0.32978(18) 0.04342(16) 0.68668(17)
C124_4 C 0.29925(18) 0.02243(18) 0.68702(19)
H131_4 H 0.3038 0.0007 0.6850
C125_4 C 0.26308(18) 0.03269(16) 0.69016(19)
C126_4 C 0.2574(2) 0.06469(17) 0.6927(2)
H132_4 H 0.2327 0.0722 0.6944
C127_4 C 0.36685(18) 0.02971(18) 0.68506(18)
H133_4 H 0.3678 0.0078 0.6822
N16_4 N 0.39797(17) 0.04355(15) 0.68698(16)
O30_4 O 0.42785(15) 0.02338(13) 0.68552(14)
B6_4 B 0.4657(2) 0.0370(2) 0.6890(2)
O31_4 O 0.3236(2) 0.20378(17) 0.67433(18)
N17_4 N 0.3514(3) 0.1820(2) 0.66957(19)
C128_4 C 0.3675(3) 0.1879(2) 0.6482(2)
H134_4 H 0.3594 0.2061 0.6390
C129_4 C 0.3967(3) 0.1698(2) 0.63654(19)
C130_4 C 0.4119(3) 0.1424(2) 0.64841(19)
C131_4 C 0.4387(3) 0.12564(19) 0.63328(17)
C132_4 C 0.4493(3) 0.1365(2) 0.60865(19)
H135_4 H 0.4674 0.1250 0.5993
C133_4 C 0.4345(3) 0.1634(2) 0.59725(18)
C134_4 C 0.4087(4) 0.1793(3) 0.6119(2)
H136_4 H 0.3984 0.1980 0.6047
C135_4 C 0.4559(3) 0.09709(19) 0.64246(18)
H137_4 H 0.4729 0.0876 0.6309
N18_4 N 0.4512(2) 0.08319(16) 0.66396(15)
O32_4 O 0.47453(17) 0.05828(15) 0.66732(14)
O33_4 O 0.3247(2) 0.19989(17) 0.72242(18)
N19_4 N 0.3503(3) 0.1756(2) 0.72597(19)
C136_4 C 0.3651(3) 0.1764(2) 0.7488(2)
H138_4 H 0.3565 0.1925 0.7600
C137_4 C 0.3932(3) 0.1559(2) 0.76007(17)
C138_4 C 0.4080(3) 0.1304(2) 0.74513(19)
C139_4 C 0.4346(3) 0.1109(2) 0.75843(16)
C140_4 C 0.4454(3) 0.1172(2) 0.78459(18)
C141_4 C 0.4056(3) 0.1606(3) 0.78597(19)
C142_4 C 0.4521(3) 0.0839(2) 0.74598(17)
H139_4 H 0.4674 0.0709 0.7569
N20_4 N 0.4486(2) 0.07657(17) 0.72179(15)
O34_4 O 0.47180(17) 0.05159(14) 0.71524(13)
C143_4 C 0.49466(18) 0.00858(15) 0.68908(17)
C148_4 C 0.52885(19) 0.01151(17) 0.67665(18)
H143_4 H 0.5340 0.0303 0.6674
C149_4 C 0.2102(2) 0.31350(16) 0.69350(16)
O37_4 O 0.35116(17) 0.09579(14) 0.68890(15)
C150_4 C 0.2302(2) 0.01017(19) 0.6919(2)
O38_4 O 0.40060(19) 0.13215(15) 0.67004(15)
C151_4 C 0.4473(4) 0.1751(3) 0.5704(2)
O39_4 O 0.3980(2) 0.12589(16) 0.72078(15)
C153_4 C 0.4343(4) 0.1437(3) 0.7981(2)
H145_4 H 0.2097 0.0026 0.6545
C156_4 C 0.1944(5) 0.0238(6) 0.7020(7)
H150_4 H 0.2001 0.0370 0.7173
H151_4 H 0.1777 0.0069 0.7070
H152_4 H 0.1824 0.0365 0.6881
C157_4 C 0.4260(7) 0.2034(5) 0.5595(5)
H153_4 H 0.4263 0.2201 0.5726
H154_4 H 0.4001 0.1974 0.5553
H155_4 H 0.4379 0.2107 0.5435
C158_4 C 0.4871(5) 0.1874(6) 0.5772(5)
H156_4 H 0.5024 0.1703 0.5844
H157_4 H 0.4857 0.2042 0.5902
H158_4 H 0.4984 0.1955 0.5612
C159_4 C 0.4483(9) 0.1476(5) 0.5513(4)
H159_4 H 0.4623 0.1303 0.5594
H160_4 H 0.4606 0.1542 0.5351
H161_4 H 0.4228 0.1408 0.5469
C160_4 C 0.4561(5) 0.1563(4) 0.8223(3)
C161_4 C 0.4408(8) 0.1870(5) 0.8322(5)
H162_4 H 0.4431 0.2030 0.8185
H163_4 H 0.4550 0.1935 0.8481
H164_4 H 0.4145 0.1844 0.8364
C162_4 C 0.4527(8) 0.1312(6) 0.8434(4)
H165_4 H 0.4626 0.1114 0.8369
H166_4 H 0.4263 0.1285 0.8476
H167_4 H 0.4668 0.1376 0.8593
C163_4 C 0.4974(5) 0.1623(6) 0.8176(5)
H168_4 H 0.5090 0.1431 0.8111
H169_4 H 0.5099 0.1687 0.8341
H170_4 H 0.4999 0.1789 0.8045
H187_4 H 0.46344 0.100442 0.794866
H188_4 H 0.391952 0.178629 0.797402
Zn6_4 Zn 0.64425(3) 0.99110(3) 0.91570(2)
O1_4 O 0.64930(11) 0.87779(9) 0.69211(9)
O2_4 O 0.6645(4) 0.9513(3) 0.6416(3)
C48_4 C 0.75200(19) 0.95689(16) 0.70178(18)
C56_4 C 0.7237(2) 0.93161(18) 0.7037(2)
O14_4 O 0.69085(17) 0.93858(15) 0.69611(18)
O15_4 O 0.73229(15) 0.90515(13) 0.71289(14)
C58_4 C 0.7497(4) 0.9796(3) 0.6820(3)
H67_4 H 0.7300 0.9787 0.6692
C59_4 C 0.7814(3) 0.9582(3) 0.7201(3)
H68_4 H 0.7840 0.9426 0.7333
C60_4 C 0.8068(4) 0.9825(3) 0.7189(3)
H69_4 H 0.8266 0.9831 0.7317
C70_4 C 0.6360(3) 0.95113(19) 0.99532(16)
C71_4 C 0.6370(3) 0.9523(2) 0.96725(15)
C72_4 C 0.6340(3) 0.9233(2) 0.95350(15)
C73_4 C 0.6292(4) 0.8958(2) 0.96792(17)
H89_4 H 0.6260 0.8768 0.9584
C74_4 C 0.6289(4) 0.8944(2) 0.99478(18)
C76_4 C 0.6359(3) 0.9206(2) 0.92539(15)
H91_4 H 0.6339 0.9000 0.9184
N10_4 N 0.6398(2) 0.94228(17) 0.90880(14)
O17_4 O 0.6407(2) 0.93165(16) 0.88337(12)
B4_4 B 0.6457(3) 0.9554(2) 0.86304(17)
N12_4 N 0.6063(2) 0.99458(19) 0.88373(15)
O19_4 O 0.6147(2) 0.97881(17) 0.86128(13)
C85_4 C 0.6458(2) 0.93780(19) 0.83514(13)
C86_4 C 0.6137(2) 0.9359(2) 0.81886(15)
H96_4 H 0.5915 0.9459 0.8242
C87_4 C 0.6136(2) 0.9197(2) 0.79512(15)
H97_4 H 0.5912 0.9179 0.7848
C88_4 C 0.6462(2) 0.90612(18) 0.78644(13)
C89_4 C 0.6786(2) 0.9084(2) 0.80171(15)
H98_4 H 0.7010 0.8991 0.7960
C90_4 C 0.6781(2) 0.9243(2) 0.82556(15)
H99_4 H 0.7007 0.9261 0.8357
O22_4 O 0.6379(2) 0.97838(16) 0.95522(12)
C97_4 C 0.6464(2) 0.89016(19) 0.76006(14)
O24_4 O 0.61526(18) 0.88711(17) 0.74811(12)
O25_4 O 0.67775(16) 0.88083(14) 0.75214(11)
N14_4 N 0.6830(5) 0.9923(5) 0.8866(4)
O27_4 O 0.6781(5) 0.9756(4) 0.8639(4)
C144_4 C 0.4885(2) 0.98039(17) 0.7020(2)
H140_4 H 0.4654 0.9773 0.7104
C145_4 C 0.51489(19) 0.95678(18) 0.70287(19)
H141_4 H 0.5098 0.9378 0.7118
C146_4 C 0.54888(18) 0.96076(15) 0.69076(16)
C147_4 C 0.5555(2) 0.98800(16) 0.67729(18)
H142_4 H 0.5783 0.9907 0.6684
C152_4 C 0.57818(19) 0.93564(16) 0.69207(17)
O40_4 O 0.56901(14) 0.90965(12) 0.70123(12)
O41_4 O 0.60982(15) 0.94250(13) 0.68503(15)
C154_4 C 0.2218(8) 0.9900(6) 0.6684(5)
H144_4 H 0.2450 0.9812 0.6620
H146_4 H 0.2050 0.9730 0.6734
C155_4 C 0.2414(8) 0.9873(6) 0.7154(5)
H147_4 H 0.2472 0.9996 0.7312
H148_4 H 0.2633 0.9751 0.7107
H149_4 H 0.2206 0.9732 0.7187
N21_4 N 0.7440(4) 0.8809(4) 0.6230(3)
C164_4 C 0.7463(6) 0.8484(5) 0.6303(5)
H171_4 H 0.7643 0.8378 0.6192
H172_4 H 0.7218 0.8386 0.6279
H173_4 H 0.7545 0.8466 0.6488
C165_4 C 0.7669(6) 0.8898(6) 0.6015(4)
H174_4 H 0.7811 0.8716 0.5957
H175_4 H 0.7841 0.9064 0.6072
H176_4 H 0.7510 0.8974 0.5869
C166_4 C 0.7206(4) 0.8999(4) 0.6359(3)
H177_4 H 0.7186 0.9208 0.6298
O42_4 O 0.7025(3) 0.8931(3) 0.6543(2)
C168_4 C 0.6184(10) 0.8348(4) 0.9906(4)
H181_4 H 0.6386 0.8341 0.9780
H182_4 H 0.5944 0.8367 0.9811
H189_4 H 0.691528 0.950947 0.637791
H190_4 H 0.657347 0.97258 0.647459
Zn3_5 Zn 0.14252(3) 0.35585(3) 0.30492(3)
Zn4_5 Zn 0.08986(3) 0.40824(2) 0.30788(2)
C93_5 C 0.0407(2) 0.4392(3) 0.0867(2)
C94_5 C 0.0457(4) 0.4034(3) 0.0843(3)
H100_5 H 0.0357 0.3963 0.0672
H101_5 H 0.0722 0.3981 0.0860
H102_5 H 0.0321 0.3930 0.0984
C95_5 C 0.0633(4) 0.4538(4) 0.0645(2)
H103_5 H 0.0523 0.4477 0.0474
H104_5 H 0.0629 0.4766 0.0661
H105_5 H 0.0892 0.4464 0.0658
C96_5 C 0.0566(3) 0.4479(4) 0.1133(2)
H106_5 H 0.0416 0.4382 0.1270
H107_5 H 0.0824 0.4404 0.1150
H108_5 H 0.0561 0.4707 0.1153
C114_5 C 0.2243(2) 0.27126(18) 0.30169(19)
C115_5 C 0.2191(3) 0.24677(19) 0.2838(2)
H126_5 H 0.1999 0.2487 0.2707
C116_5 C 0.2405(3) 0.22006(18) 0.28420(19)
H127_5 H 0.2363 0.2042 0.2713
C117_5 C 0.2684(2) 0.21636(15) 0.30358(16)
C118_5 C 0.2752(2) 0.24060(16) 0.32128(18)
H128_5 H 0.2947 0.2389 0.3343
C119_5 C 0.2535(2) 0.26718(18) 0.31982(19)
H129_5 H 0.2589 0.2836 0.3319
B5_5 B 0.1970(3) 0.3010(2) 0.3021(3)
O29_5 O 0.2208(2) 0.32932(16) 0.30344(18)
N15_5 N 0.2016(2) 0.35825(16) 0.3054(2)
C120_5 C 0.2239(3) 0.38130(17) 0.3051(2)
H130_5 H 0.2497 0.3768 0.3032
C121_5 C 0.2134(2) 0.41376(16) 0.30721(19)
C122_5 C 0.1761(2) 0.42374(17) 0.31036(19)
C123_5 C 0.17022(18) 0.45658(16) 0.31332(17)
C124_5 C 0.20075(18) 0.47757(18) 0.31298(19)
H131_5 H 0.1962 0.4993 0.3150
C125_5 C 0.23692(18) 0.46731(16) 0.30984(19)
C126_5 C 0.2426(2) 0.43531(17) 0.3073(2)
H132_5 H 0.2673 0.4278 0.3056
C127_5 C 0.13315(18) 0.47029(18) 0.31494(18)
H133_5 H 0.1322 0.4922 0.3178
N16_5 N 0.10203(17) 0.45645(15) 0.31302(16)
O30_5 O 0.07215(15) 0.47662(13) 0.31448(14)
B6_5 B 0.0343(2) 0.4630(2) 0.3110(2)
O31_5 O 0.1764(2) 0.29622(17) 0.32567(18)
N17_5 N 0.1486(3) 0.3180(2) 0.33043(19)
C128_5 C 0.1325(3) 0.3121(2) 0.3518(2)
H134_5 H 0.1406 0.2939 0.3610
C129_5 C 0.1033(3) 0.3302(2) 0.36346(19)
C130_5 C 0.0881(3) 0.3576(2) 0.35159(19)
C131_5 C 0.0613(3) 0.37436(19) 0.36672(17)
C132_5 C 0.0507(3) 0.3635(2) 0.39135(19)
H135_5 H 0.0326 0.3750 0.4007
C133_5 C 0.0655(3) 0.3366(2) 0.40275(18)
C134_5 C 0.0913(4) 0.3207(3) 0.3881(2)
H136_5 H 0.1016 0.3020 0.3953
C135_5 C 0.0441(3) 0.40291(19) 0.35754(18)
H137_5 H 0.0271 0.4124 0.3691
N18_5 N 0.0488(2) 0.41681(16) 0.33604(15)
O32_5 O 0.02547(17) 0.44172(15) 0.33268(14)
O33_5 O 0.1753(2) 0.30011(17) 0.27758(18)
N19_5 N 0.1497(3) 0.3244(2) 0.27403(19)
C136_5 C 0.1349(3) 0.3236(2) 0.2512(2)
H138_5 H 0.1435 0.3075 0.2400
C137_5 C 0.1068(3) 0.3441(2) 0.23993(17)
C138_5 C 0.0920(3) 0.3696(2) 0.25487(19)
C139_5 C 0.0654(3) 0.3891(2) 0.24157(16)
C140_5 C 0.0546(3) 0.3828(2) 0.21541(18)
C141_5 C 0.0944(3) 0.3394(3) 0.21403(19)
C142_5 C 0.0479(3) 0.4161(2) 0.25402(17)
H139_5 H 0.0326 0.4291 0.2431
N20_5 N 0.0514(2) 0.42343(17) 0.27821(15)
O34_5 O 0.02820(17) 0.44841(14) 0.28476(13)
C143_5 C 0.00534(18) 0.49142(15) 0.31092(17)
C144_5 C 0.0115(2) 0.51961(17) 0.2980(2)
H140_5 H 0.0346 0.5227 0.2896
C149_5 C 0.2898(2) 0.18650(16) 0.30650(16)
O35_3 O 0.28412(15) 0.16651(12) 0.28875(11)
O36_3 O 0.31244(16) 0.18449(12) 0.32571(11)
O37_5 O 0.14884(17) 0.40421(14) 0.31110(15)
C150_5 C 0.2698(2) 0.48983(19) 0.3081(2)
O38_5 O 0.09940(19) 0.36785(15) 0.32996(15)
C151_5 C 0.0527(4) 0.3249(3) 0.4296(2)
O39_5 O 0.1020(2) 0.37411(16) 0.27922(15)
C153_5 C 0.0657(4) 0.3563(3) 0.2019(2)
C154_5 C 0.2782(8) 0.5100(6) 0.3316(5)
H144_5 H 0.2550 0.5188 0.3380
H145_5 H 0.2903 0.4974 0.3455
H146_5 H 0.2950 0.5270 0.3266
C155_5 C 0.2586(8) 0.5127(6) 0.2846(5)
H147_5 H 0.2528 0.5004 0.2688
H148_5 H 0.2367 0.5249 0.2893
H149_5 H 0.2794 0.5268 0.2813
C156_5 C 0.3056(5) 0.4762(6) 0.2980(7)
H150_5 H 0.2999 0.4630 0.2827
H151_5 H 0.3223 0.4931 0.2930
H152_5 H 0.3176 0.4635 0.3119
C157_5 C 0.0740(7) 0.2966(5) 0.4405(5)
H153_5 H 0.0737 0.2799 0.4274
H154_5 H 0.0999 0.3026 0.4447
H155_5 H 0.0621 0.2893 0.4565
C158_5 C 0.0129(5) 0.3126(6) 0.4228(5)
H157_5 H 0.0143 0.2958 0.4098
H158_5 H 0.0016 0.3045 0.4388
C159_5 C 0.0517(9) 0.3524(5) 0.4487(4)
H159_5 H 0.0377 0.3697 0.4406
H160_5 H 0.0394 0.3458 0.4649
H161_5 H 0.0772 0.3592 0.4531
C160_5 C 0.0439(5) 0.3437(4) 0.1777(3)
C161_5 C 0.0592(8) 0.3130(5) 0.1678(5)
H162_5 H 0.0569 0.2970 0.1815
H163_5 H 0.0450 0.3065 0.1519
H164_5 H 0.0855 0.3156 0.1636
C162_5 C 0.0473(8) 0.3688(6) 0.1566(4)
H165_5 H 0.0374 0.3886 0.1631
H166_5 H 0.0737 0.3715 0.1524
H167_5 H 0.0332 0.3624 0.1407
C163_5 C 0.0026(5) 0.3377(6) 0.1824(5)
H170_5 H 0.0001 0.3211 0.1955
Zn13_3 Zn 0.30781(2) 0.12564(2) 0.28468(2)
Zn14 Zn 0.35266(2) 0.15473(2) 0.33414(2)
H187_5 H 0.0365601 0.399558 0.205134
H188_5 H 0.108048 0.321371 0.202598
Zn1_5 Zn 0.61411(3) 0.40853(2) 0.30203(3)
Zn2_5 Zn 0.56608(3) 0.35294(2) 0.30369(2)
Zn5_5 Zn 0.85613(4) 0.47468(3) 0.03419(2)
Zn6_5 Zn 0.85575(3) 0.50890(3) 0.08430(2)
Zn7_3 Zn 0.89609(2) 0.62328(2) 0.28849(2)
Zn8_3 Zn 0.84691(3) 0.58240(2) 0.32737(2)
Zn9_3 Zn 0.80781(2) 0.62564(2) 0.28468(2)
Zn10_2 Zn 0.85266(2) 0.65473(2) 0.33414(2)
O1_5 O 0.85070(11) 0.62221(9) 0.30789(9)
O2_5 O 0.8355(4) 0.5487(3) 0.3584(3)
C17_5 C 0.4884(2) 0.26552(16) 0.30556(17)
C18_5 C 0.4900(3) 0.24141(18) 0.28685(19)
H41_5 H 0.5069 0.2434 0.2729
C19_5 C 0.4679(3) 0.21493(18) 0.28792(18)
H42_5 H 0.4693 0.1995 0.2745
C20_5 C 0.4436(2) 0.21080(15) 0.30837(16)
C21_5 C 0.4408(2) 0.23448(16) 0.32695(17)
H43_5 H 0.4241 0.2322 0.3410
C22_5 C 0.4622(2) 0.26133(17) 0.32524(18)
H44_5 H 0.4590 0.2775 0.3378
B1_5 B 0.5148(3) 0.2958(2) 0.3047(2)
O3_5 O 0.54603(18) 0.28962(15) 0.32412(15)
N3_5 N 0.5719(2) 0.31302(19) 0.32771(18)
C23_5 C 0.5953(3) 0.3073(2) 0.3461(2)
H45_5 H 0.5928 0.2877 0.3547
C24_5 C 0.6254(3) 0.3272(2) 0.3557(2)
C25_5 C 0.6340(3) 0.3563(2) 0.3435(2)
C26_5 C 0.6654(3) 0.3732(2) 0.3549(2)
C27_5 C 0.6846(4) 0.3626(3) 0.3775(3)
H46_5 H 0.7043 0.3749 0.3849
C28_5 C 0.6754(3) 0.3346(3) 0.3894(2)
C29_5 C 0.6459(4) 0.3175(3) 0.3781(3)
H47_5 H 0.6394 0.2982 0.3861
C30_5 C 0.6775(3) 0.4021(3) 0.3437(2)
H48_5 H 0.7002 0.4106 0.3506
N4_5 N 0.6611(3) 0.4176(2) 0.3256(2)
O4_5 O 0.6807(2) 0.44437(19) 0.32061(18)
B2_5 B 0.6654(3) 0.4662(2) 0.3010(3)
O5_5 O 0.49202(17) 0.32215(13) 0.31328(15)
N5_5 N 0.50950(18) 0.35155(14) 0.31296(17)
C31_5 C 0.4867(2) 0.37312(16) 0.3184(2)
H49_5 H 0.4619 0.3668 0.3219
C32_5 C 0.4943(2) 0.40669(16) 0.3198(2)
C33_5 C 0.5305(2) 0.41916(17) 0.3162(2)
C34_5 C 0.5342(2) 0.45201(18) 0.3177(2)
C35_5 C 0.5023(2) 0.4710(2) 0.3210(3)
H50_5 H 0.5053 0.4930 0.3210
C36_5 C 0.4668(2) 0.45875(19) 0.3243(3)
C37_5 C 0.4644(2) 0.42636(18) 0.3247(3)
H51_5 H 0.4411 0.4171 0.3286
C38_5 C 0.5689(2) 0.4688(2) 0.3141(2)
H52_5 H 0.5686 0.4909 0.3161
N6_5 N 0.5996(2) 0.45597(18) 0.3084(2)
O6_5 O 0.62846(19) 0.47845(16) 0.30608(18)
O7_5 O 0.52751(18) 0.29850(14) 0.27787(14)
N7_5 N 0.5518(2) 0.32243(16) 0.27252(15)
C39_5 C 0.5616(2) 0.32137(19) 0.24876(17)
H53_5 H 0.5507 0.3054 0.2380
C40_5 C 0.5881(2) 0.34232(17) 0.23636(16)
C41_5 C 0.6036(2) 0.36876(17) 0.24993(17)
C42_5 C 0.6294(2) 0.38767(18) 0.23570(16)
C43_5 C 0.6390(3) 0.3790(2) 0.21024(17)
H54_5 H 0.6568 0.3914 0.2015
C44_5 C 0.6241(2) 0.3534(2) 0.19706(15)
C45_5 C 0.5982(2) 0.3354(2) 0.21039(16)
H55_5 H 0.5870 0.3179 0.2017
C46_5 C 0.6469(3) 0.4153(2) 0.24693(19)
H56_5 H 0.6621 0.4272 0.2356
N8_5 N 0.6440(2) 0.4254(2) 0.27024(18)
O8_5 O 0.6658(2) 0.45220(18) 0.27429(17)
C47_5 C 0.6949(2) 0.49403(17) 0.30001(18)
C48_5 C 0.74800(19) 0.54311(16) 0.29822(18)
C49_5 C 0.4198(2) 0.18190(16) 0.30998(17)
O9_3 O 0.42269(16) 0.16238(13) 0.29185(13)
O10_3 O 0.39757(16) 0.18103(12) 0.32880(12)
O11_5 O 0.6166(2) 0.36583(17) 0.32314(17)
C50_5 C 0.6963(4) 0.3226(4) 0.4141(3)
O12_5 O 0.55866(17) 0.40084(14) 0.31153(16)
C51_5 C 0.4320(3) 0.4795(3) 0.3266(3)
C52_5 C 0.4058(4) 0.4764(4) 0.3013(3)
H57_5 H 0.4187 0.4846 0.2860
H58_5 H 0.3994 0.4544 0.2984
H59_5 H 0.3829 0.4885 0.3038
C53_5 C 0.4060(4) 0.4659(4) 0.3458(4)
H60_5 H 0.4031 0.4435 0.3423
H61_5 H 0.4161 0.4690 0.3637
H62_5 H 0.3817 0.4762 0.3439
C54_3 C 0.4419(4) 0.5136(3) 0.3271(4)
H63_3 H 0.4593 0.5181 0.3130
H64_3 H 0.4192 0.5261 0.3244
H65_3 H 0.4536 0.5189 0.3442
O13_5 O 0.59467(17) 0.37603(14) 0.27388(14)
C55_5 C 0.6358(3) 0.3449(3) 0.16918(16)
C56_5 C 0.7763(2) 0.56839(18) 0.2963(2)
O14_5 O 0.80915(17) 0.56142(15) 0.30389(18)
O15_5 O 0.76771(15) 0.59485(13) 0.28711(14)
C57_5 C 0.7241(4) 0.4966(3) 0.3191(3)
H66_5 H 0.7259 0.4818 0.3329
C58_5 C 0.7503(4) 0.5204(3) 0.3180(3)
H67_5 H 0.7700 0.5213 0.3308
C59_5 C 0.7186(3) 0.5418(3) 0.2799(3)
H68_5 H 0.7160 0.5574 0.2667
C60_5 C 0.6932(4) 0.5175(3) 0.2811(3)
H69_5 H 0.6734 0.5169 0.2683
C61_5 C 0.6057(5) 0.3491(7) 0.1484(4)
H70_5 H 0.5823 0.3400 0.1546
H71_5 H 0.6021 0.3714 0.1449
H72_5 H 0.6130 0.3385 0.1322
C62_5 C 0.6433(7) 0.3087(4) 0.1685(5)
H73_5 H 0.6629 0.3034 0.1815
H74_5 H 0.6203 0.2974 0.1725
H75_5 H 0.6513 0.3027 0.1509
C63_5 C 0.6732(5) 0.3582(6) 0.1615(5)
H76_5 H 0.6915 0.3547 0.1759
H77_5 H 0.6815 0.3478 0.1456
H78_5 H 0.6706 0.3807 0.1582
C64_5 C 0.6711(6) 0.3250(5) 0.4380(3)
H79_5 H 0.6477 0.3138 0.4343
H80_5 H 0.6839 0.3156 0.4534
H81_5 H 0.6658 0.3470 0.4417
C65_5 C 0.7328(5) 0.3398(5) 0.4197(4)
H82_5 H 0.7449 0.3313 0.4357
H83_5 H 0.7493 0.3372 0.4048
H84_5 H 0.7277 0.3621 0.4223
C66_5 C 0.7040(6) 0.2874(4) 0.4107(4)
H85_5 H 0.6804 0.2764 0.4071
H86_5 H 0.7207 0.2843 0.3960
H87_5 H 0.7158 0.2792 0.4269
C70_5 C 0.8640(3) 0.54887(19) 0.00468(16)
C71_5 C 0.8630(3) 0.5477(2) 0.03275(15)
C72_5 C 0.8660(3) 0.5767(2) 0.04650(15)
C73_5 C 0.8708(4) 0.6042(2) 0.03208(17)
H89_5 H 0.8740 0.6232 0.0416
C74_5 C 0.8711(4) 0.6056(2) 0.00522(18)
C76_5 C 0.8641(3) 0.5794(2) 0.07461(15)
H91_5 H 0.8661 0.6000 0.0816
N10_5 N 0.8602(2) 0.55772(17) 0.09120(14)
O17_5 O 0.8593(2) 0.56835(16) 0.11663(12)
B4_5 B 0.8543(3) 0.5446(2) 0.13696(17)
N11_5 N 0.8948(2) 0.4416(2) 0.02149(15)
C77_5 C 0.9273(3) 0.4355(2) 0.03066(17)
H92_5 H 0.9429 0.4228 0.0202
C78_5 C 0.9423(2) 0.4462(2) 0.05553(15)
C79_5 C 0.9220(3) 0.4643(2) 0.07426(16)
C80_5 C 0.9419(2) 0.4732(2) 0.09784(16)
C81_5 C 0.9797(2) 0.4655(2) 0.10128(18)
H93_5 H 0.9925 0.4722 0.1169
C82_5 C 0.9995(2) 0.4484(2) 0.08298(17)
C83_5 C 0.9801(2) 0.4390(3) 0.06074(17)
H94_5 H 0.9930 0.4269 0.0482
C84_5 C 0.9252(2) 0.4920(2) 0.11828(17)
H95_5 H 0.9390 0.4944 0.1344
N12_5 N 0.8937(2) 0.50542(19) 0.11627(15)
O19_5 O 0.8853(2) 0.52119(17) 0.13872(13)
C85_5 C 0.8542(2) 0.56220(19) 0.16486(13)
C86_5 C 0.8863(2) 0.5641(2) 0.18114(15)
H96_5 H 0.9085 0.5541 0.1758
C87_5 C 0.8864(2) 0.5803(2) 0.20488(15)
H97_5 H 0.9088 0.5821 0.2152
C88_5 C 0.8538(2) 0.59388(18) 0.21356(13)
C89_5 C 0.8214(2) 0.5916(2) 0.19829(15)
H98_5 H 0.7990 0.6009 0.2040
C90_5 C 0.8219(2) 0.5757(2) 0.17444(15)
H99_5 H 0.7993 0.5739 0.1643
O22_5 O 0.8621(2) 0.52162(16) 0.04478(12)
O23_5 O 0.8878(2) 0.47147(18) 0.07011(13)
C97_5 C 0.8536(2) 0.60984(19) 0.23994(14)
O24_5 O 0.88474(18) 0.61289(17) 0.25189(12)
O25_5 O 0.82225(16) 0.61917(14) 0.24786(11)
N13_5 N 0.8179(5) 0.4417(5) 0.0193(4)
C102_5 C 0.7887(5) 0.4305(5) 0.0292(3)
H113_5 H 0.7758 0.4144 0.0197
C103_5 C 0.7737(4) 0.4405(4) 0.0540(3)
C104_5 C 0.7908(5) 0.4635(4) 0.0710(3)
C105_5 C 0.7737(4) 0.4692(4) 0.0957(3)
C106_5 C 0.7410(5) 0.4532(4) 0.1023(3)
H114_5 H 0.7305 0.4569 0.1190
C107_5 C 0.7240(4) 0.4323(4) 0.0852(3)
C108_5 C 0.7406(5) 0.4262(5) 0.0616(3)
H115_5 H 0.7290 0.4116 0.0499
C109_5 C 0.7880(5) 0.4910(4) 0.1152(3)
H116_5 H 0.7743 0.4930 0.1309
N14_5 N 0.8170(5) 0.5077(5) 0.1134(4)
O27_5 O 0.8219(5) 0.5244(4) 0.1361(4)
O28_5 O 0.8193(6) 0.4783(7) 0.0641(6)
C110_5 C 0.6872(4) 0.4166(5) 0.0923(4)
C111_5 C 0.6964(8) 0.3817(5) 0.0923(6)
H117_5 H 0.7034 0.3752 0.0746
H118_5 H 0.7172 0.3776 0.1048
H119_5 H 0.6745 0.3698 0.0976
C112_5 C 0.6565(6) 0.4244(7) 0.0721(5)
H120_5 H 0.6641 0.4175 0.0546
H121_5 H 0.6335 0.4135 0.0767
H122_5 H 0.6522 0.4470 0.0719
C113_5 C 0.6762(8) 0.4269(7) 0.1196(4)
H123_5 H 0.6963 0.4217 0.1323
H124_5 H 0.6720 0.4495 0.1196
H125_5 H 0.6533 0.4161 0.1244
C145_5 C 0.98511(19) 0.54322(18) 0.29713(19)
H141_5 H 0.9902 0.5622 0.2882
C146_5 C 0.95112(18) 0.53924(15) 0.30924(16)
C147_5 C 0.9445(2) 0.51200(16) 0.32271(18)
H142_5 H 0.9217 0.5093 0.3316
C148_5 C 0.97115(19) 0.48849(17) 0.32335(18)
H143_5 H 0.9660 0.4697 0.3326
C152_5 C 0.92182(19) 0.56436(16) 0.30793(17)
O40_5 O 0.93099(14) 0.59035(12) 0.29877(12)
O41_5 O 0.89018(15) 0.55750(13) 0.31497(15)
H156_5 H 0.9976 0.3297 0.4156
H168_5 H 0.9910 0.3569 0.1889
H169_5 H 0.9901 0.3313 0.1659
N21_5 N 0.7560(4) 0.6191(4) 0.3770(3)
C164_5 C 0.7537(6) 0.6516(5) 0.3697(5)
H171_5 H 0.7357 0.6622 0.3808
H172_5 H 0.7782 0.6614 0.3721
H173_5 H 0.7455 0.6534 0.3512
C165_5 C 0.7331(6) 0.6102(6) 0.3985(4)
H174_5 H 0.7189 0.6284 0.4043
H175_5 H 0.7159 0.5936 0.3928
H176_5 H 0.7490 0.6026 0.4131
C166_5 C 0.7794(4) 0.6001(4) 0.3641(3)
H177_5 H 0.7814 0.5792 0.3702
O42_5 O 0.7975(3) 0.6069(3) 0.3457(2)
C168_5 C 0.8816(10) 0.6652(4) 0.0094(4)
H181_5 H 0.8614 0.6659 0.0220
H182_5 H 0.9056 0.6633 0.0189
Zn11_3 Zn 0.39609(2) 0.12328(2) 0.28849(2)
O43_3 O 0.92269(16) 0.66238(13) 0.29185(13)
O44_3 O 0.89757(16) 0.68103(12) 0.32880(12)
O45_3 O 0.85142(19) 0.64647(18) 0.37224(12)
O46_3 O 0.8800(2) 0.6044(2) 0.35928(14)
O47_3 O 0.78412(15) 0.66651(12) 0.28875(11)
O48_3 O 0.81244(16) 0.68449(12) 0.32571(11)
H189_5 H 0.808472 0.549053 0.362209
H190_5 H 0.842653 0.52742 0.352541
C67_5 C 0.8596(3) 0.4217(2) 0.95388(14)
C68_5 C 0.8627(3) 0.3937(2) 0.90355(14)
B3_5 B 0.8564(3) 0.4389(3) 0.98147(18)
O16_5 O 0.8582(2) 0.47199(19) 0.97510(13)
N9_5 N 0.8605(3) 0.4934(2) 0.99588(16)
C69_4 C 0.8620(3) 0.5213(2) 0.98808(19)
H88_4 H 0.8618 0.5246 0.9696
C75_4 C 0.8682(4) 0.5778(2) 0.9917(2)
H90_4 H 0.8691 0.5780 0.9730
O18_5 O 0.8888(2) 0.42846(19) 0.99683(13)
C91_5 C 0.8635(3) 0.3808(2) 0.87627(16)
O20_3 O 0.85142(19) 0.35353(18) 0.87224(12)
O21_3 O 0.8800(2) 0.3956(2) 0.85928(14)
C92_4 C 0.8760(4) 0.6370(2) 0.9911(2)
O26_5 O 0.8252(5) 0.4262(4) 0.9968(3)
C98_5 C 0.8480(5) 0.3777(3) 0.9244(2)
H109_5 H 0.8388 0.3571 0.9219
C99_5 C 0.8465(5) 0.3916(3) 0.9490(2)
H110_5 H 0.8362 0.3801 0.9631
C100_5 C 0.8759(5) 0.4370(3) 0.9326(2)
H111_5 H 0.8864 0.4571 0.9354
C101_5 C 0.8773(5) 0.4239(3) 0.9077(2)
H112_5 H 0.8879 0.4352 0.8937
C167_4 C 0.9078(8) 0.6363(6) 0.9715(5)
H178_4 H 0.9044 0.6183 0.9598
H179_4 H 0.9075 0.6556 0.9612
H180_4 H 0.9317 0.6344 0.9812
H183_4 H 0.8814 0.6844 0.9989
C169_4 C 0.8387(6) 0.6440(6) 0.9761(5)
H184_4 H 0.8330 0.6269 0.9638
H185_4 H 0.8186 0.6459 0.9887
H186_4 H 0.8409 0.6636 0.9663
Zn12_3 Zn 0.84691(3) 0.41760(2) 0.82737(2)
Zn16_3 Zn 0.85266(2) 0.34527(2) 0.83414(2)
Zn6_6 Zn 0.35575(3) 0.00890(3) 0.08430(2)
Zn8_4 Zn 0.34691(3) 0.08240(2) 0.32737(2)
O1_6 O 0.35070(11) 0.12221(9) 0.30789(9)
O2_6 O 0.3355(4) 0.0487(3) 0.3584(3)
C48_6 C 0.24800(19) 0.04311(16) 0.29822(18)
C56_6 C 0.2763(2) 0.06839(18) 0.2963(2)
O14_6 O 0.30915(17) 0.06142(15) 0.30389(18)
O15_6 O 0.26771(15) 0.09485(13) 0.28711(14)
C58_6 C 0.2503(4) 0.0204(3) 0.3180(3)
H67_6 H 0.2700 0.0213 0.3308
C59_6 C 0.2186(3) 0.0418(3) 0.2799(3)
H68_6 H 0.2160 0.0574 0.2667
C60_6 C 0.1932(4) 0.0175(3) 0.2811(3)
H69_6 H 0.1734 0.0169 0.2683
C70_6 C 0.3640(3) 0.04887(19) 0.00468(16)
C71_6 C 0.3630(3) 0.0477(2) 0.03275(15)
C72_6 C 0.3660(3) 0.0767(2) 0.04650(15)
C73_6 C 0.3708(4) 0.1042(2) 0.03208(17)
H89_6 H 0.3740 0.1232 0.0416
C74_6 C 0.3711(4) 0.1056(2) 0.00522(18)
C76_6 C 0.3641(3) 0.0794(2) 0.07461(15)
H91_6 H 0.3661 0.1000 0.0816
N10_6 N 0.3602(2) 0.05772(17) 0.09120(14)
O17_6 O 0.3593(2) 0.06835(16) 0.11663(12)
B4_6 B 0.3543(3) 0.0446(2) 0.13696(17)
N12_6 N 0.3937(2) 0.00542(19) 0.11627(15)
O19_6 O 0.3853(2) 0.02119(17) 0.13872(13)
C85_6 C 0.3542(2) 0.06220(19) 0.16486(13)
C86_6 C 0.3863(2) 0.0641(2) 0.18114(15)
H96_6 H 0.4085 0.0541 0.1758
C87_6 C 0.3864(2) 0.0803(2) 0.20488(15)
H97_6 H 0.4088 0.0821 0.2152
C88_6 C 0.3538(2) 0.09388(18) 0.21356(13)
C89_6 C 0.3214(2) 0.0916(2) 0.19829(15)
H98_6 H 0.2990 0.1009 0.2040
C90_6 C 0.3219(2) 0.0757(2) 0.17444(15)
H99_6 H 0.2993 0.0739 0.1643
O22_6 O 0.3621(2) 0.02162(16) 0.04478(12)
C97_6 C 0.3536(2) 0.10984(19) 0.23994(14)
O24_6 O 0.38474(18) 0.11289(17) 0.25189(12)
O25_6 O 0.32225(16) 0.11917(14) 0.24786(11)
N14_6 N 0.3170(5) 0.0077(5) 0.1134(4)
O27_6 O 0.3219(5) 0.0244(4) 0.1361(4)
C144_6 C 0.5115(2) 0.01961(17) 0.2980(2)
H140_6 H 0.5346 0.0227 0.2896
C145_6 C 0.48511(19) 0.04322(18) 0.29713(19)
H141_6 H 0.4902 0.0622 0.2882
C146_6 C 0.45112(18) 0.03924(15) 0.30924(16)
C147_6 C 0.4445(2) 0.01200(16) 0.32271(18)
H142_6 H 0.4217 0.0093 0.3316
C152_6 C 0.42182(19) 0.06436(16) 0.30793(17)
O40_6 O 0.43099(14) 0.09035(12) 0.29877(12)
O41_6 O 0.39018(15) 0.05750(13) 0.31497(15)
C154_6 C 0.7782(8) 0.0100(6) 0.3316(5)
H144_6 H 0.7550 0.0188 0.3380
H146_6 H 0.7950 0.0270 0.3266
C155_6 C 0.7586(8) 0.0127(6) 0.2846(5)
H147_6 H 0.7528 0.0004 0.2688
H148_6 H 0.7367 0.0249 0.2893
H149_6 H 0.7794 0.0268 0.2813
N21_6 N 0.2560(4) 0.1191(4) 0.3770(3)
C164_6 C 0.2537(6) 0.1516(5) 0.3697(5)
H171_6 H 0.2357 0.1622 0.3808
H172_6 H 0.2782 0.1614 0.3721
H173_6 H 0.2455 0.1534 0.3512
C165_6 C 0.2331(6) 0.1102(6) 0.3985(4)
H174_6 H 0.2189 0.1284 0.4043
H175_6 H 0.2159 0.0936 0.3928
H176_6 H 0.2490 0.1026 0.4131
C166_6 C 0.2794(4) 0.1001(4) 0.3641(3)
H177_6 H 0.2814 0.0792 0.3702
O42_6 O 0.2975(3) 0.1069(3) 0.3457(2)
C168_6 C 0.3816(10) 0.1652(4) 0.0094(4)
H181_6 H 0.3614 0.1659 0.0220
H182_6 H 0.4056 0.1633 0.0189
O45_4 O 0.35142(19) 0.14647(18) 0.37224(12)
O46_4 O 0.3800(2) 0.1044(2) 0.35928(14)
H189_6 H 0.308472 0.0490527 0.362209
H190_6 H 0.342653 0.0274203 0.352541
Zn1_6 Zn 0.11411(3) 0.90853(2) 0.30203(3)
Zn2_6 Zn 0.06608(3) 0.85294(2) 0.30369(2)
Zn3_6 Zn 0.64252(3) 0.85585(3) 0.30492(3)
Zn4_6 Zn 0.58986(3) 0.90824(2) 0.30788(2)
Zn5_6 Zn 0.35613(4) 0.97468(3) 0.03419(2)
H41_6 H 0.0069 0.7434 0.2729
B1_6 B 0.0148(3) 0.7958(2) 0.3047(2)
O3_6 O 0.04603(18) 0.78962(15) 0.32412(15)
N3_6 N 0.0719(2) 0.81302(19) 0.32771(18)
C23_6 C 0.0953(3) 0.8073(2) 0.3461(2)
H45_6 H 0.0928 0.7877 0.3547
C24_6 C 0.1254(3) 0.8272(2) 0.3557(2)
C25_6 C 0.1340(3) 0.8563(2) 0.3435(2)
C26_6 C 0.1654(3) 0.8732(2) 0.3549(2)
C27_6 C 0.1846(4) 0.8626(3) 0.3775(3)
H46_6 H 0.2043 0.8749 0.3849
C28_6 C 0.1754(3) 0.8346(3) 0.3894(2)
C29_6 C 0.1459(4) 0.8175(3) 0.3781(3)
H47_6 H 0.1394 0.7982 0.3861
C30_6 C 0.1775(3) 0.9021(3) 0.3437(2)
H48_6 H 0.2002 0.9106 0.3506
N4_6 N 0.1611(3) 0.9176(2) 0.3256(2)
O4_6 O 0.1807(2) 0.94437(19) 0.32061(18)
B2_6 B 0.1654(3) 0.9662(2) 0.3010(3)
N5_6 N 0.00950(18) 0.85155(14) 0.31296(17)
C33_6 C 0.0305(2) 0.91916(17) 0.3162(2)
C34_6 C 0.0342(2) 0.95201(18) 0.3177(2)
C35_6 C 0.0023(2) 0.9710(2) 0.3210(3)
H50_6 H 0.0053 0.9930 0.3210
C38_6 C 0.0689(2) 0.9688(2) 0.3141(2)
H52_6 H 0.0686 0.9909 0.3161
N6_6 N 0.0996(2) 0.95597(18) 0.3084(2)
O6_6 O 0.12846(19) 0.97845(16) 0.30608(18)
O7_6 O 0.02751(18) 0.79850(14) 0.27787(14)
N7_6 N 0.0518(2) 0.82243(16) 0.27252(15)
C39_6 C 0.0616(2) 0.82137(19) 0.24876(17)
H53_6 H 0.0507 0.8054 0.2380
C40_6 C 0.0881(2) 0.84232(17) 0.23636(16)
C41_6 C 0.1036(2) 0.86876(17) 0.24993(17)
C42_6 C 0.1294(2) 0.88767(18) 0.23570(16)
C43_6 C 0.1390(3) 0.8790(2) 0.21024(17)
H54_6 H 0.1568 0.8914 0.2015
C44_6 C 0.1241(2) 0.8534(2) 0.19706(15)
C45_6 C 0.0982(2) 0.8354(2) 0.21039(16)
H55_6 H 0.0870 0.8179 0.2017
C46_6 C 0.1469(3) 0.9153(2) 0.24693(19)
H56_6 H 0.1621 0.9272 0.2356
N8_6 N 0.1440(2) 0.9254(2) 0.27024(18)
O8_6 O 0.1658(2) 0.95220(18) 0.27429(17)
C47_6 C 0.1949(2) 0.99403(17) 0.30001(18)
O11_6 O 0.1166(2) 0.86583(17) 0.32314(17)
C50_6 C 0.1963(4) 0.8226(4) 0.4141(3)
O12_6 O 0.05866(17) 0.90084(14) 0.31153(16)
O13_6 O 0.09467(17) 0.87603(14) 0.27388(14)
C55_6 C 0.1358(3) 0.8449(3) 0.16918(16)
C57_6 C 0.2241(4) 0.9966(3) 0.3191(3)
H66_6 H 0.2259 0.9818 0.3329
C61_6 C 0.1057(5) 0.8491(7) 0.1484(4)
H70_6 H 0.0823 0.8400 0.1546
H71_6 H 0.1021 0.8714 0.1449
H72_6 H 0.1130 0.8385 0.1322
C62_6 C 0.1433(7) 0.8087(4) 0.1685(5)
H73_6 H 0.1629 0.8034 0.1815
H74_6 H 0.1203 0.7974 0.1725
H75_6 H 0.1513 0.8027 0.1509
C63_6 C 0.1732(5) 0.8582(6) 0.1615(5)
H76_6 H 0.1915 0.8547 0.1759
H77_6 H 0.1815 0.8478 0.1456
H78_6 H 0.1706 0.8807 0.1582
C64_6 C 0.1711(6) 0.8250(5) 0.4380(3)
H79_6 H 0.1477 0.8138 0.4343
H80_6 H 0.1839 0.8156 0.4534
H81_6 H 0.1658 0.8470 0.4417
C65_6 C 0.2328(5) 0.8398(5) 0.4197(4)
H82_6 H 0.2449 0.8313 0.4357
H83_6 H 0.2493 0.8372 0.4048
H84_6 H 0.2277 0.8621 0.4223
C66_6 C 0.2040(6) 0.7874(4) 0.4107(4)
H85_6 H 0.1804 0.7764 0.4071
H86_6 H 0.2207 0.7843 0.3960
H87_6 H 0.2158 0.7792 0.4269
N11_6 N 0.3948(2) 0.9416(2) 0.02149(15)
C77_6 C 0.4273(3) 0.9355(2) 0.03066(17)
H92_6 H 0.4429 0.9228 0.0202
C78_6 C 0.4423(2) 0.9462(2) 0.05553(15)
C79_6 C 0.4220(3) 0.9643(2) 0.07426(16)
C80_6 C 0.4419(2) 0.9732(2) 0.09784(16)
C81_6 C 0.4797(2) 0.9655(2) 0.10128(18)
H93_6 H 0.4925 0.9722 0.1169
C82_6 C 0.4995(2) 0.9484(2) 0.08298(17)
C83_6 C 0.4801(2) 0.9390(3) 0.06074(17)
H94_6 H 0.4930 0.9269 0.0482
C84_6 C 0.4252(2) 0.9920(2) 0.11828(17)
H95_6 H 0.4390 0.9944 0.1344
O23_6 O 0.3878(2) 0.97147(18) 0.07011(13)
C93_6 C 0.5407(2) 0.9392(3) 0.0867(2)
C94_6 C 0.5457(4) 0.9034(3) 0.0843(3)
H100_6 H 0.5357 0.8963 0.0672
H101_6 H 0.5722 0.8981 0.0860
H102_6 H 0.5321 0.8930 0.0984
C95_6 C 0.5633(4) 0.9538(4) 0.0645(2)
H103_6 H 0.5523 0.9477 0.0474
H104_6 H 0.5629 0.9766 0.0661
H105_6 H 0.5892 0.9464 0.0658
C96_6 C 0.5566(3) 0.9479(4) 0.1133(2)
H106_6 H 0.5416 0.9382 0.1270
H107_6 H 0.5824 0.9404 0.1150
H108_6 H 0.5561 0.9707 0.1153
N13_6 N 0.3179(5) 0.9417(5) 0.0193(4)
C102_6 C 0.2887(5) 0.9305(5) 0.0292(3)
H113_6 H 0.2758 0.9144 0.0197
C103_6 C 0.2737(4) 0.9405(4) 0.0540(3)
C104_6 C 0.2908(5) 0.9635(4) 0.0710(3)
C105_6 C 0.2737(4) 0.9692(4) 0.0957(3)
C106_6 C 0.2410(5) 0.9532(4) 0.1023(3)
H114_6 H 0.2305 0.9569 0.1190
C107_6 C 0.2240(4) 0.9323(4) 0.0852(3)
C108_6 C 0.2406(5) 0.9262(5) 0.0616(3)
H115_6 H 0.2290 0.9116 0.0499
C109_6 C 0.2880(5) 0.9910(4) 0.1152(3)
H116_6 H 0.2743 0.9930 0.1309
O28_6 O 0.3193(6) 0.9783(7) 0.0641(6)
C110_6 C 0.1872(4) 0.9166(5) 0.0923(4)
C111_6 C 0.1964(8) 0.8817(5) 0.0923(6)
H117_6 H 0.2034 0.8752 0.0746
H118_6 H 0.2172 0.8776 0.1048
H119_6 H 0.1745 0.8698 0.0976
C112_6 C 0.1565(6) 0.9244(7) 0.0721(5)
H120_6 H 0.1641 0.9175 0.0546
H121_6 H 0.1335 0.9135 0.0767
H122_6 H 0.1522 0.9470 0.0719
C113_6 C 0.1762(8) 0.9269(7) 0.1196(4)
H123_6 H 0.1963 0.9217 0.1323
H124_6 H 0.1720 0.9495 0.1196
H125_6 H 0.1533 0.9161 0.1244
C114_6 C 0.7243(2) 0.77126(18) 0.30169(19)
C115_6 C 0.7191(3) 0.74677(19) 0.2838(2)
H126_6 H 0.6999 0.7487 0.2707
C116_6 C 0.7405(3) 0.72006(18) 0.28420(19)
H127_6 H 0.7363 0.7042 0.2713
C117_6 C 0.7684(2) 0.71636(15) 0.30358(16)
C118_6 C 0.7752(2) 0.74060(16) 0.32128(18)
H128_6 H 0.7947 0.7389 0.3343
C119_6 C 0.7535(2) 0.76718(18) 0.31982(19)
H129_6 H 0.7589 0.7836 0.3319
B5_6 B 0.6970(3) 0.8010(2) 0.3021(3)
O29_6 O 0.7208(2) 0.82932(16) 0.30344(18)
N15_6 N 0.7016(2) 0.85825(16) 0.3054(2)
C120_6 C 0.7239(3) 0.88130(17) 0.3051(2)
H130_6 H 0.7497 0.8768 0.3032
C121_6 C 0.7134(2) 0.91376(16) 0.30721(19)
C122_6 C 0.6761(2) 0.92374(17) 0.31036(19)
C123_6 C 0.67022(18) 0.95658(16) 0.31332(17)
C124_6 C 0.70075(18) 0.97757(18) 0.31298(19)
H131_6 H 0.6962 0.9993 0.3150
C125_6 C 0.73692(18) 0.96731(16) 0.30984(19)
C126_6 C 0.7426(2) 0.93531(17) 0.3073(2)
H132_6 H 0.7673 0.9278 0.3056
C127_6 C 0.63315(18) 0.97029(18) 0.31494(18)
H133_6 H 0.6322 0.9922 0.3178
N16_6 N 0.60203(17) 0.95645(15) 0.31302(16)
O30_6 O 0.57215(15) 0.97662(13) 0.31448(14)
B6_6 B 0.5343(2) 0.9630(2) 0.3110(2)
O31_6 O 0.6764(2) 0.79622(17) 0.32567(18)
N17_6 N 0.6486(3) 0.8180(2) 0.33043(19)
C128_6 C 0.6325(3) 0.8121(2) 0.3518(2)
H134_6 H 0.6406 0.7939 0.3610
C129_6 C 0.6033(3) 0.8302(2) 0.36346(19)
C130_6 C 0.5881(3) 0.8576(2) 0.35159(19)
C131_6 C 0.5613(3) 0.87436(19) 0.36672(17)
C132_6 C 0.5507(3) 0.8635(2) 0.39135(19)
H135_6 H 0.5326 0.8750 0.4007
C133_6 C 0.5655(3) 0.8366(2) 0.40275(18)
C134_6 C 0.5913(4) 0.8207(3) 0.3881(2)
H136_6 H 0.6016 0.8020 0.3953
C135_6 C 0.5441(3) 0.90291(19) 0.35754(18)
H137_6 H 0.5271 0.9124 0.3691
N18_6 N 0.5488(2) 0.91681(16) 0.33604(15)
O32_6 O 0.52547(17) 0.94172(15) 0.33268(14)
O33_6 O 0.6753(2) 0.80011(17) 0.27758(18)
N19_6 N 0.6497(3) 0.8244(2) 0.27403(19)
C136_6 C 0.6349(3) 0.8236(2) 0.2512(2)
H138_6 H 0.6435 0.8075 0.2400
C137_6 C 0.6068(3) 0.8441(2) 0.23993(17)
C138_6 C 0.5920(3) 0.8696(2) 0.25487(19)
C139_6 C 0.5654(3) 0.8891(2) 0.24157(16)
C140_6 C 0.5546(3) 0.8828(2) 0.21541(18)
C141_6 C 0.5944(3) 0.8394(3) 0.21403(19)
C142_6 C 0.5479(3) 0.9161(2) 0.25402(17)
H139_6 H 0.5326 0.9291 0.2431
N20_6 N 0.5514(2) 0.92343(17) 0.27821(15)
O34_6 O 0.52820(17) 0.94841(14) 0.28476(13)
C143_6 C 0.50534(18) 0.99142(15) 0.31092(17)
C148_6 C 0.47115(19) 0.98849(17) 0.32335(18)
H143_6 H 0.4660 0.9697 0.3326
C149_6 C 0.7898(2) 0.68650(16) 0.30650(16)
O37_6 O 0.64884(17) 0.90421(14) 0.31110(15)
C150_6 C 0.7698(2) 0.98983(19) 0.3081(2)
O38_6 O 0.59940(19) 0.86785(15) 0.32996(15)
C151_6 C 0.5527(4) 0.8249(3) 0.4296(2)
O39_6 O 0.6020(2) 0.87411(16) 0.27922(15)
C153_6 C 0.5657(4) 0.8563(3) 0.2019(2)
H145_6 H 0.7903 0.9974 0.3455
C156_6 C 0.8056(5) 0.9762(6) 0.2980(7)
H150_6 H 0.7999 0.9630 0.2827
H151_6 H 0.8223 0.9931 0.2930
H152_6 H 0.8176 0.9635 0.3119
C157_6 C 0.5740(7) 0.7966(5) 0.4405(5)
H153_6 H 0.5737 0.7799 0.4274
H154_6 H 0.5999 0.8026 0.4447
H155_6 H 0.5621 0.7893 0.4565
C158_6 C 0.5129(5) 0.8126(6) 0.4228(5)
H156_6 H 0.4976 0.8297 0.4156
H157_6 H 0.5143 0.7958 0.4098
H158_6 H 0.5016 0.8045 0.4388
C159_6 C 0.5517(9) 0.8524(5) 0.4487(4)
H159_6 H 0.5377 0.8697 0.4406
H160_6 H 0.5394 0.8458 0.4649
H161_6 H 0.5772 0.8592 0.4531
C160_6 C 0.5439(5) 0.8437(4) 0.1777(3)
C161_6 C 0.5592(8) 0.8130(5) 0.1678(5)
H162_6 H 0.5569 0.7970 0.1815
H163_6 H 0.5450 0.8065 0.1519
H164_6 H 0.5855 0.8156 0.1636
C162_6 C 0.5473(8) 0.8688(6) 0.1566(4)
H165_6 H 0.5374 0.8886 0.1631
H166_6 H 0.5737 0.8715 0.1524
H167_6 H 0.5332 0.8624 0.1407
C163_6 C 0.5026(5) 0.8377(6) 0.1824(5)
H168_6 H 0.4910 0.8569 0.1889
H169_6 H 0.4901 0.8313 0.1659
H170_6 H 0.5001 0.8211 0.1955
H187_6 H 0.53656 0.899558 0.205134
H188_6 H 0.608048 0.821371 0.202598
C67_6 C 0.3596(3) 0.9217(2) 0.95388(14)
C68_6 C 0.3627(3) 0.8937(2) 0.90355(14)
B3_6 B 0.3564(3) 0.9389(3) 0.98147(18)
O16_6 O 0.3582(2) 0.97199(19) 0.97510(13)
N9_6 N 0.3605(3) 0.9934(2) 0.99588(16)
O18_6 O 0.3888(2) 0.92846(19) 0.99683(13)
C91_6 C 0.3635(3) 0.8808(2) 0.87627(16)
O20_4 O 0.35142(19) 0.85353(18) 0.87224(12)
O21_4 O 0.3800(2) 0.8956(2) 0.85928(14)
O26_6 O 0.3252(5) 0.9262(4) 0.9968(3)
C98_6 C 0.3480(5) 0.8777(3) 0.9244(2)
H109_6 H 0.3388 0.8571 0.9219
C99_6 C 0.3465(5) 0.8916(3) 0.9490(2)
H110_6 H 0.3362 0.8801 0.9631
C100_6 C 0.3759(5) 0.9370(3) 0.9326(2)
H111_6 H 0.3864 0.9571 0.9354
C101_6 C 0.3773(5) 0.9239(3) 0.9077(2)
H112_6 H 0.3879 0.9352 0.8937
Zn12_4 Zn 0.34691(3) 0.91760(2) 0.82737(2)
Zn16_4 Zn 0.35266(2) 0.84527(2) 0.83414(2)
C17_6 C 0.9884(2) 0.76552(16) 0.30556(17)
C18_6 C 0.9900(3) 0.74141(18) 0.28685(19)
C19_6 C 0.9679(3) 0.71493(18) 0.28792(18)
H42_6 H 0.9693 0.6995 0.2745
C20_6 C 0.9436(2) 0.71080(15) 0.30837(16)
C21_6 C 0.9408(2) 0.73448(16) 0.32695(17)
H43_6 H 0.9241 0.7322 0.3410
C22_6 C 0.9622(2) 0.76133(17) 0.32524(18)
H44_6 H 0.9590 0.7775 0.3378
O5_6 O 0.99202(17) 0.82215(13) 0.31328(15)
C31_6 C 0.9867(2) 0.87312(16) 0.3184(2)
H49_6 H 0.9619 0.8668 0.3219
C32_6 C 0.9943(2) 0.90669(16) 0.3198(2)
C36_6 C 0.9668(2) 0.95875(19) 0.3243(3)
C37_6 C 0.9644(2) 0.92636(18) 0.3247(3)
H51_6 H 0.9411 0.9171 0.3286
C49_6 C 0.9198(2) 0.68190(16) 0.30998(17)
C51_6 C 0.9320(3) 0.9795(3) 0.3266(3)
C52_6 C 0.9058(4) 0.9764(4) 0.3013(3)
H57_6 H 0.9187 0.9846 0.2860
H58_6 H 0.8994 0.9544 0.2984
H59_6 H 0.8829 0.9885 0.3038
C53_6 C 0.9060(4) 0.9659(4) 0.3458(4)
H60_6 H 0.9031 0.9435 0.3423
H61_6 H 0.9161 0.9690 0.3637
H62_6 H 0.8817 0.9762 0.3439
Zn3_7 Zn 0.14252(3) 0.64415(3) 0.80492(3)
Zn4_7 Zn 0.08986(3) 0.59176(2) 0.80788(2)
C93_7 C 0.0407(2) 0.5608(3) 0.5867(2)
C94_7 C 0.0457(4) 0.5966(3) 0.5843(3)
H100_7 H 0.0357 0.6037 0.5672
H101_7 H 0.0722 0.6019 0.5860
H102_7 H 0.0321 0.6070 0.5984
C95_7 C 0.0633(4) 0.5462(4) 0.5645(2)
H103_7 H 0.0523 0.5523 0.5474
H104_7 H 0.0629 0.5234 0.5661
H105_7 H 0.0892 0.5536 0.5658
C96_7 C 0.0566(3) 0.5521(4) 0.6133(2)
H106_7 H 0.0416 0.5618 0.6270
H107_7 H 0.0824 0.5596 0.6150
H108_7 H 0.0561 0.5293 0.6153
C114_7 C 0.2243(2) 0.72874(18) 0.80169(19)
C115_7 C 0.2191(3) 0.75323(19) 0.7838(2)
H126_7 H 0.1999 0.7513 0.7707
C116_7 C 0.2405(3) 0.77994(18) 0.78420(19)
H127_7 H 0.2363 0.7958 0.7713
C117_7 C 0.2684(2) 0.78364(15) 0.80358(16)
C118_7 C 0.2752(2) 0.75940(16) 0.82128(18)
H128_7 H 0.2947 0.7611 0.8343
C119_7 C 0.2535(2) 0.73282(18) 0.81982(19)
H129_7 H 0.2589 0.7164 0.8319
B5_7 B 0.1970(3) 0.6990(2) 0.8021(3)
O29_7 O 0.2208(2) 0.67068(16) 0.80344(18)
N15_7 N 0.2016(2) 0.64175(16) 0.8054(2)
C120_7 C 0.2239(3) 0.61870(17) 0.8051(2)
H130_7 H 0.2497 0.6232 0.8032
C121_7 C 0.2134(2) 0.58624(16) 0.80721(19)
C122_7 C 0.1761(2) 0.57626(17) 0.81036(19)
C123_7 C 0.17022(18) 0.54342(16) 0.81332(17)
C124_7 C 0.20075(18) 0.52243(18) 0.81298(19)
H131_7 H 0.1962 0.5007 0.8150
C125_7 C 0.23692(18) 0.53269(16) 0.80984(19)
C126_7 C 0.2426(2) 0.56469(17) 0.8073(2)
H132_7 H 0.2673 0.5722 0.8056
C127_7 C 0.13315(18) 0.52971(18) 0.81494(18)
H133_7 H 0.1322 0.5078 0.8178
N16_7 N 0.10203(17) 0.54355(15) 0.81302(16)
O30_7 O 0.07215(15) 0.52338(13) 0.81448(14)
B6_7 B 0.0343(2) 0.5370(2) 0.8110(2)
O31_7 O 0.1764(2) 0.70378(17) 0.82567(18)
N17_7 N 0.1486(3) 0.6820(2) 0.83043(19)
C128_7 C 0.1325(3) 0.6879(2) 0.8518(2)
H134_7 H 0.1406 0.7061 0.8610
C129_7 C 0.1033(3) 0.6698(2) 0.86346(19)
C130_7 C 0.0881(3) 0.6424(2) 0.85159(19)
C131_7 C 0.0613(3) 0.62564(19) 0.86672(17)
C132_7 C 0.0507(3) 0.6365(2) 0.89135(19)
H135_7 H 0.0326 0.6250 0.9007
C133_7 C 0.0655(3) 0.6634(2) 0.90275(18)
C134_7 C 0.0913(4) 0.6793(3) 0.8881(2)
H136_7 H 0.1016 0.6980 0.8953
C135_7 C 0.0441(3) 0.59709(19) 0.85754(18)
H137_7 H 0.0271 0.5876 0.8691
N18_7 N 0.0488(2) 0.58319(16) 0.83604(15)
O32_7 O 0.02547(17) 0.55828(15) 0.83268(14)
O33_7 O 0.1753(2) 0.69989(17) 0.77758(18)
N19_7 N 0.1497(3) 0.6756(2) 0.77403(19)
C136_7 C 0.1349(3) 0.6764(2) 0.7512(2)
H138_7 H 0.1435 0.6925 0.7400
C137_7 C 0.1068(3) 0.6559(2) 0.73993(17)
C138_7 C 0.0920(3) 0.6304(2) 0.75487(19)
C139_7 C 0.0654(3) 0.6109(2) 0.74157(16)
C140_7 C 0.0546(3) 0.6172(2) 0.71541(18)
C141_7 C 0.0944(3) 0.6606(3) 0.71403(19)
C142_7 C 0.0479(3) 0.5839(2) 0.75402(17)
H139_7 H 0.0326 0.5709 0.7431
N20_7 N 0.0514(2) 0.57657(17) 0.77821(15)
O34_7 O 0.02820(17) 0.55159(14) 0.78476(13)
C143_7 C 0.00534(18) 0.50858(15) 0.81092(17)
C144_7 C 0.0115(2) 0.48039(17) 0.7980(2)
H140_7 H 0.0346 0.4773 0.7896
C149_7 C 0.2898(2) 0.81350(16) 0.80650(16)
O35_4 O 0.28412(15) 0.83349(12) 0.78875(11)
O36_4 O 0.31244(16) 0.81551(12) 0.82571(11)
O37_7 O 0.14884(17) 0.59579(14) 0.81110(15)
C150_7 C 0.2698(2) 0.51017(19) 0.8081(2)
O38_7 O 0.09940(19) 0.63215(15) 0.82996(15)
C151_7 C 0.0527(4) 0.6751(3) 0.9296(2)
O39_7 O 0.1020(2) 0.62589(16) 0.77922(15)
C153_7 C 0.0657(4) 0.6437(3) 0.7019(2)
C154_7 C 0.2782(8) 0.4900(6) 0.8316(5)
H144_7 H 0.2550 0.4812 0.8380
H145_7 H 0.2903 0.5026 0.8455
H146_7 H 0.2950 0.4730 0.8266
C155_7 C 0.2586(8) 0.4873(6) 0.7846(5)
H147_7 H 0.2528 0.4996 0.7688
H148_7 H 0.2367 0.4751 0.7893
H149_7 H 0.2794 0.4732 0.7813
C156_7 C 0.3056(5) 0.5238(6) 0.7980(7)
H150_7 H 0.2999 0.5370 0.7827
H151_7 H 0.3223 0.5069 0.7930
H152_7 H 0.3176 0.5365 0.8119
C157_7 C 0.0740(7) 0.7034(5) 0.9405(5)
H153_7 H 0.0737 0.7201 0.9274
H154_7 H 0.0999 0.6974 0.9447
H155_7 H 0.0621 0.7107 0.9565
C158_7 C 0.0129(5) 0.6874(6) 0.9228(5)
H157_7 H 0.0143 0.7042 0.9098
H158_7 H 0.0016 0.6955 0.9388
C159_7 C 0.0517(9) 0.6476(5) 0.9487(4)
H159_7 H 0.0377 0.6303 0.9406
H160_7 H 0.0394 0.6542 0.9649
H161_7 H 0.0772 0.6408 0.9531
C160_7 C 0.0439(5) 0.6563(4) 0.6777(3)
C161_7 C 0.0592(8) 0.6870(5) 0.6678(5)
H162_7 H 0.0569 0.7030 0.6815
H163_7 H 0.0450 0.6935 0.6519
H164_7 H 0.0855 0.6844 0.6636
C162_7 C 0.0473(8) 0.6312(6) 0.6566(4)
H165_7 H 0.0374 0.6114 0.6631
H166_7 H 0.0737 0.6285 0.6524
H167_7 H 0.0332 0.6376 0.6407
C163_7 C 0.0026(5) 0.6623(6) 0.6824(5)
H170_7 H 0.0001 0.6789 0.6955
Zn13_4 Zn 0.30781(2) 0.87436(2) 0.78468(2)
H187_7 H 0.0365601 0.600442 0.705134
H188_7 H 0.108048 0.678629 0.702598
Zn1_7 Zn 0.61411(3) 0.59147(2) 0.80203(3)
Zn2_7 Zn 0.56608(3) 0.64706(2) 0.80369(2)
Zn5_7 Zn 0.85613(4) 0.52532(3) 0.53419(2)
Zn6_7 Zn 0.85575(3) 0.49110(3) 0.58430(2)
Zn7_4 Zn 0.89609(2) 0.37672(2) 0.78849(2)
Zn9_4 Zn 0.80781(2) 0.37436(2) 0.78468(2)
O1_7 O 0.85070(11) 0.37779(9) 0.80789(9)
O2_7 O 0.8355(4) 0.4513(3) 0.8584(3)
C17_7 C 0.4884(2) 0.73448(16) 0.80556(17)
C18_7 C 0.4900(3) 0.75859(18) 0.78685(19)
H41_7 H 0.5069 0.7566 0.7729
C19_7 C 0.4679(3) 0.78507(18) 0.78792(18)
H42_7 H 0.4693 0.8005 0.7745
C20_7 C 0.4436(2) 0.78920(15) 0.80837(16)
C21_7 C 0.4408(2) 0.76552(16) 0.82695(17)
H43_7 H 0.4241 0.7678 0.8410
C22_7 C 0.4622(2) 0.73867(17) 0.82524(18)
H44_7 H 0.4590 0.7225 0.8378
B1_7 B 0.5148(3) 0.7042(2) 0.8047(2)
O3_7 O 0.54603(18) 0.71038(15) 0.82412(15)
N3_7 N 0.5719(2) 0.68698(19) 0.82771(18)
C23_7 C 0.5953(3) 0.6927(2) 0.8461(2)
H45_7 H 0.5928 0.7123 0.8547
C24_7 C 0.6254(3) 0.6728(2) 0.8557(2)
C25_7 C 0.6340(3) 0.6437(2) 0.8435(2)
C26_7 C 0.6654(3) 0.6268(2) 0.8549(2)
C27_7 C 0.6846(4) 0.6374(3) 0.8775(3)
H46_7 H 0.7043 0.6251 0.8849
C28_7 C 0.6754(3) 0.6654(3) 0.8894(2)
C29_7 C 0.6459(4) 0.6825(3) 0.8781(3)
H47_7 H 0.6394 0.7018 0.8861
C30_7 C 0.6775(3) 0.5979(3) 0.8437(2)
H48_7 H 0.7002 0.5894 0.8506
N4_7 N 0.6611(3) 0.5824(2) 0.8256(2)
O4_7 O 0.6807(2) 0.55563(19) 0.82061(18)
B2_7 B 0.6654(3) 0.5338(2) 0.8010(3)
O5_7 O 0.49202(17) 0.67785(13) 0.81328(15)
N5_7 N 0.50950(18) 0.64845(14) 0.81296(17)
C31_7 C 0.4867(2) 0.62688(16) 0.8184(2)
H49_7 H 0.4619 0.6332 0.8219
C32_7 C 0.4943(2) 0.59331(16) 0.8198(2)
C33_7 C 0.5305(2) 0.58084(17) 0.8162(2)
C34_7 C 0.5342(2) 0.54799(18) 0.8177(2)
C35_7 C 0.5023(2) 0.5290(2) 0.8210(3)
H50_7 H 0.5053 0.5070 0.8210
C36_7 C 0.4668(2) 0.54125(19) 0.8243(3)
C37_7 C 0.4644(2) 0.57364(18) 0.8247(3)
H51_7 H 0.4411 0.5829 0.8286
C38_7 C 0.5689(2) 0.5312(2) 0.8141(2)
H52_7 H 0.5686 0.5091 0.8161
N6_7 N 0.5996(2) 0.54403(18) 0.8084(2)
O6_7 O 0.62846(19) 0.52155(16) 0.80608(18)
O7_7 O 0.52751(18) 0.70150(14) 0.77787(14)
N7_7 N 0.5518(2) 0.67757(16) 0.77252(15)
C39_7 C 0.5616(2) 0.67863(19) 0.74876(17)
H53_7 H 0.5507 0.6946 0.7380
C40_7 C 0.5881(2) 0.65768(17) 0.73636(16)
C41_7 C 0.6036(2) 0.63124(17) 0.74993(17)
C42_7 C 0.6294(2) 0.61233(18) 0.73570(16)
C43_7 C 0.6390(3) 0.6210(2) 0.71024(17)
H54_7 H 0.6568 0.6086 0.7015
C44_7 C 0.6241(2) 0.6466(2) 0.69706(15)
C45_7 C 0.5982(2) 0.6646(2) 0.71039(16)
H55_7 H 0.5870 0.6821 0.7017
C46_7 C 0.6469(3) 0.5847(2) 0.74693(19)
H56_7 H 0.6621 0.5728 0.7356
N8_7 N 0.6440(2) 0.5746(2) 0.77024(18)
O8_7 O 0.6658(2) 0.54780(18) 0.77429(17)
C47_7 C 0.6949(2) 0.50597(17) 0.80001(18)
C48_7 C 0.74800(19) 0.45689(16) 0.79822(18)
C49_7 C 0.4198(2) 0.81810(16) 0.80998(17)
O9_4 O 0.42269(16) 0.83762(13) 0.79185(13)
O10_4 O 0.39757(16) 0.81897(12) 0.82880(12)
O11_7 O 0.6166(2) 0.63417(17) 0.82314(17)
C50_7 C 0.6963(4) 0.6774(4) 0.9141(3)
O12_7 O 0.55866(17) 0.59916(14) 0.81153(16)
C51_7 C 0.4320(3) 0.5205(3) 0.8266(3)
C52_7 C 0.4058(4) 0.5236(4) 0.8013(3)
H57_7 H 0.4187 0.5154 0.7860
H58_7 H 0.3994 0.5456 0.7984
H59_7 H 0.3829 0.5115 0.8038
C53_7 C 0.4060(4) 0.5341(4) 0.8458(4)
H60_7 H 0.4031 0.5565 0.8423
H61_7 H 0.4161 0.5310 0.8637
H62_7 H 0.3817 0.5238 0.8439
C54_4 C 0.4419(4) 0.4864(3) 0.8271(4)
H63_4 H 0.4593 0.4819 0.8130
H64_4 H 0.4192 0.4739 0.8244
H65_4 H 0.4536 0.4811 0.8442
O13_7 O 0.59467(17) 0.62397(14) 0.77388(14)
C55_7 C 0.6358(3) 0.6551(3) 0.66918(16)
C56_7 C 0.7763(2) 0.43161(18) 0.7963(2)
O14_7 O 0.80915(17) 0.43858(15) 0.80389(18)
O15_7 O 0.76771(15) 0.40515(13) 0.78711(14)
C57_7 C 0.7241(4) 0.5034(3) 0.8191(3)
H66_7 H 0.7259 0.5182 0.8329
C58_7 C 0.7503(4) 0.4796(3) 0.8180(3)
H67_7 H 0.7700 0.4787 0.8308
C59_7 C 0.7186(3) 0.4582(3) 0.7799(3)
H68_7 H 0.7160 0.4426 0.7667
C60_7 C 0.6932(4) 0.4825(3) 0.7811(3)
H69_7 H 0.6734 0.4831 0.7683
C61_7 C 0.6057(5) 0.6509(7) 0.6484(4)
H70_7 H 0.5823 0.6600 0.6546
H71_7 H 0.6021 0.6286 0.6449
H72_7 H 0.6130 0.6615 0.6322
C62_7 C 0.6433(7) 0.6913(4) 0.6685(5)
H73_7 H 0.6629 0.6966 0.6815
H74_7 H 0.6203 0.7026 0.6725
H75_7 H 0.6513 0.6973 0.6509
C63_7 C 0.6732(5) 0.6418(6) 0.6615(5)
H76_7 H 0.6915 0.6453 0.6759
H77_7 H 0.6815 0.6522 0.6456
H78_7 H 0.6706 0.6193 0.6582
C64_7 C 0.6711(6) 0.6750(5) 0.9380(3)
H79_7 H 0.6477 0.6862 0.9343
H80_7 H 0.6839 0.6844 0.9534
H81_7 H 0.6658 0.6530 0.9417
C65_7 C 0.7328(5) 0.6602(5) 0.9197(4)
H82_7 H 0.7449 0.6687 0.9357
H83_7 H 0.7493 0.6628 0.9048
H84_7 H 0.7277 0.6379 0.9223
C66_7 C 0.7040(6) 0.7126(4) 0.9107(4)
H85_7 H 0.6804 0.7236 0.9071
H86_7 H 0.7207 0.7157 0.8960
H87_7 H 0.7158 0.7208 0.9269
C67_7 C 0.8596(3) 0.5783(2) 0.45388(14)
C68_7 C 0.8627(3) 0.6063(2) 0.40355(14)
B3_7 B 0.8564(3) 0.5611(3) 0.48147(18)
O16_7 O 0.8582(2) 0.52801(19) 0.47510(13)
N9_7 N 0.8605(3) 0.5066(2) 0.49588(16)
C69_5 C 0.8620(3) 0.4787(2) 0.48808(19)
H88_5 H 0.8618 0.4754 0.4696
C70_7 C 0.8640(3) 0.45113(19) 0.50468(16)
C71_7 C 0.8630(3) 0.4523(2) 0.53275(15)
C72_7 C 0.8660(3) 0.4233(2) 0.54650(15)
C73_7 C 0.8708(4) 0.3958(2) 0.53208(17)
H89_7 H 0.8740 0.3768 0.5416
C74_7 C 0.8711(4) 0.3944(2) 0.50522(18)
C75_5 C 0.8682(4) 0.4222(2) 0.4917(2)
H90_5 H 0.8691 0.4220 0.4730
C76_7 C 0.8641(3) 0.4206(2) 0.57461(15)
H91_7 H 0.8661 0.4000 0.5816
N10_7 N 0.8602(2) 0.44228(17) 0.59120(14)
O17_7 O 0.8593(2) 0.43165(16) 0.61663(12)
B4_7 B 0.8543(3) 0.4554(2) 0.63696(17)
O18_7 O 0.8888(2) 0.57154(19) 0.49683(13)
N11_7 N 0.8948(2) 0.5584(2) 0.52149(15)
C77_7 C 0.9273(3) 0.5645(2) 0.53066(17)
H92_7 H 0.9429 0.5772 0.5202
C78_7 C 0.9423(2) 0.5538(2) 0.55553(15)
C79_7 C 0.9220(3) 0.5357(2) 0.57426(16)
C80_7 C 0.9419(2) 0.5268(2) 0.59784(16)
C81_7 C 0.9797(2) 0.5345(2) 0.60128(18)
H93_7 H 0.9925 0.5278 0.6169
C82_7 C 0.9995(2) 0.5516(2) 0.58298(17)
C83_7 C 0.9801(2) 0.5610(3) 0.56074(17)
H94_7 H 0.9930 0.5731 0.5482
C84_7 C 0.9252(2) 0.5080(2) 0.61828(17)
H95_7 H 0.9390 0.5056 0.6344
N12_7 N 0.8937(2) 0.49458(19) 0.61627(15)
O19_7 O 0.8853(2) 0.47881(17) 0.63872(13)
C85_7 C 0.8542(2) 0.43780(19) 0.66486(13)
C86_7 C 0.8863(2) 0.4359(2) 0.68114(15)
H96_7 H 0.9085 0.4459 0.6758
C87_7 C 0.8864(2) 0.4197(2) 0.70488(15)
H97_7 H 0.9088 0.4179 0.7152
C88_7 C 0.8538(2) 0.40612(18) 0.71356(13)
C89_7 C 0.8214(2) 0.4084(2) 0.69829(15)
H98_7 H 0.7990 0.3991 0.7040
C90_7 C 0.8219(2) 0.4243(2) 0.67444(15)
H99_7 H 0.7993 0.4261 0.6643
C91_7 C 0.8635(3) 0.6192(2) 0.37627(16)
O22_7 O 0.8621(2) 0.47838(16) 0.54478(12)
C92_5 C 0.8760(4) 0.3630(2) 0.4911(2)
O23_7 O 0.8878(2) 0.52853(18) 0.57011(13)
C97_7 C 0.8536(2) 0.39016(19) 0.73994(14)
O24_7 O 0.88474(18) 0.38711(17) 0.75189(12)
O25_7 O 0.82225(16) 0.38083(14) 0.74786(11)
O26_7 O 0.8252(5) 0.5738(4) 0.4968(3)
C98_7 C 0.8480(5) 0.6223(3) 0.4244(2)
H109_7 H 0.8388 0.6429 0.4219
C99_7 C 0.8465(5) 0.6084(3) 0.4490(2)
H110_7 H 0.8362 0.6199 0.4631
C100_7 C 0.8759(5) 0.5630(3) 0.4326(2)
H111_7 H 0.8864 0.5429 0.4354
C101_7 C 0.8773(5) 0.5761(3) 0.4077(2)
H112_7 H 0.8879 0.5648 0.3937
N13_7 N 0.8179(5) 0.5583(5) 0.5193(4)
C102_7 C 0.7887(5) 0.5695(5) 0.5292(3)
H113_7 H 0.7758 0.5856 0.5197
C103_7 C 0.7737(4) 0.5595(4) 0.5540(3)
C104_7 C 0.7908(5) 0.5365(4) 0.5710(3)
C105_7 C 0.7737(4) 0.5308(4) 0.5957(3)
C106_7 C 0.7410(5) 0.5468(4) 0.6023(3)
H114_7 H 0.7305 0.5431 0.6190
C107_7 C 0.7240(4) 0.5677(4) 0.5852(3)
C108_7 C 0.7406(5) 0.5738(5) 0.5616(3)
H115_7 H 0.7290 0.5884 0.5499
C109_7 C 0.7880(5) 0.5090(4) 0.6152(3)
H116_7 H 0.7743 0.5070 0.6309
N14_7 N 0.8170(5) 0.4923(5) 0.6134(4)
O27_7 O 0.8219(5) 0.4756(4) 0.6361(4)
O28_7 O 0.8193(6) 0.5217(7) 0.5641(6)
C110_7 C 0.6872(4) 0.5834(5) 0.5923(4)
C111_7 C 0.6964(8) 0.6183(5) 0.5923(6)
H117_7 H 0.7034 0.6248 0.5746
H118_7 H 0.7172 0.6224 0.6048
H119_7 H 0.6745 0.6302 0.5976
C112_7 C 0.6565(6) 0.5756(7) 0.5721(5)
H120_7 H 0.6641 0.5825 0.5546
H121_7 H 0.6335 0.5865 0.5767
H122_7 H 0.6522 0.5530 0.5719
C113_7 C 0.6762(8) 0.5731(7) 0.6196(4)
H123_7 H 0.6963 0.5783 0.6323
H124_7 H 0.6720 0.5505 0.6196
H125_7 H 0.6533 0.5839 0.6244
C145_7 C 0.98511(19) 0.45678(18) 0.79713(19)
H141_7 H 0.9902 0.4378 0.7882
C146_7 C 0.95112(18) 0.46076(15) 0.80924(16)
C147_7 C 0.9445(2) 0.48800(16) 0.82271(18)
H142_7 H 0.9217 0.4907 0.8316
C148_7 C 0.97115(19) 0.51151(17) 0.82335(18)
H143_7 H 0.9660 0.5303 0.8326
C152_7 C 0.92182(19) 0.43564(16) 0.80793(17)
O40_7 O 0.93099(14) 0.40965(12) 0.79877(12)
O41_7 O 0.89018(15) 0.44250(13) 0.81497(15)
H156_7 H 0.9976 0.6703 0.9156
H168_7 H 0.9910 0.6431 0.6889
H169_7 H 0.9901 0.6687 0.6659
N21_7 N 0.7560(4) 0.3809(4) 0.8770(3)
C164_7 C 0.7537(6) 0.3484(5) 0.8697(5)
H171_7 H 0.7357 0.3378 0.8808
H172_7 H 0.7782 0.3386 0.8721
H173_7 H 0.7455 0.3466 0.8512
C165_7 C 0.7331(6) 0.3898(6) 0.8985(4)
H174_7 H 0.7189 0.3716 0.9043
H175_7 H 0.7159 0.4064 0.8928
H176_7 H 0.7490 0.3974 0.9131
C166_7 C 0.7794(4) 0.3999(4) 0.8641(3)
H177_7 H 0.7814 0.4208 0.8702
O42_7 O 0.7975(3) 0.3931(3) 0.8457(2)
C167_5 C 0.9078(8) 0.3637(6) 0.4715(5)
H178_5 H 0.9044 0.3817 0.4598
H179_5 H 0.9075 0.3444 0.4612
H180_5 H 0.9317 0.3656 0.4812
C168_7 C 0.8816(10) 0.3348(4) 0.5094(4)
H181_7 H 0.8614 0.3341 0.5220
H182_7 H 0.9056 0.3367 0.5189
H183_5 H 0.8814 0.3156 0.4989
C169_5 C 0.8387(6) 0.3560(6) 0.4761(5)
H184_5 H 0.8330 0.3731 0.4638
H185_5 H 0.8186 0.3541 0.4887
H186_5 H 0.8409 0.3364 0.4663
Zn11_4 Zn 0.39609(2) 0.87672(2) 0.78849(2)
O43_4 O 0.92269(16) 0.33762(13) 0.79185(13)
O44_4 O 0.89757(16) 0.31897(12) 0.82880(12)
O47_4 O 0.78412(15) 0.33349(12) 0.78875(11)
O48_4 O 0.81244(16) 0.31551(12) 0.82571(11)
H189_7 H 0.808472 0.450947 0.862209
H190_7 H 0.842653 0.47258 0.852541
Zn1_8 Zn 0.11411(3) 0.09147(2) 0.80203(3)
Zn2_8 Zn 0.06608(3) 0.14706(2) 0.80369(2)
Zn3_8 Zn 0.64252(3) 0.14415(3) 0.80492(3)
Zn4_8 Zn 0.58986(3) 0.09176(2) 0.80788(2)
Zn5_8 Zn 0.35613(4) 0.02532(3) 0.53419(2)
H41_8 H 0.0069 0.2566 0.7729
B1_8 B 0.0148(3) 0.2042(2) 0.8047(2)
O3_8 O 0.04603(18) 0.21038(15) 0.82412(15)
N3_8 N 0.0719(2) 0.18698(19) 0.82771(18)
C23_8 C 0.0953(3) 0.1927(2) 0.8461(2)
H45_8 H 0.0928 0.2123 0.8547
C24_8 C 0.1254(3) 0.1728(2) 0.8557(2)
C25_8 C 0.1340(3) 0.1437(2) 0.8435(2)
C26_8 C 0.1654(3) 0.1268(2) 0.8549(2)
C27_8 C 0.1846(4) 0.1374(3) 0.8775(3)
H46_8 H 0.2043 0.1251 0.8849
C28_8 C 0.1754(3) 0.1654(3) 0.8894(2)
C29_8 C 0.1459(4) 0.1825(3) 0.8781(3)
H47_8 H 0.1394 0.2018 0.8861
C30_8 C 0.1775(3) 0.0979(3) 0.8437(2)
H48_8 H 0.2002 0.0894 0.8506
N4_8 N 0.1611(3) 0.0824(2) 0.8256(2)
O4_8 O 0.1807(2) 0.05563(19) 0.82061(18)
B2_8 B 0.1654(3) 0.0338(2) 0.8010(3)
N5_8 N 0.00950(18) 0.14845(14) 0.81296(17)
C33_8 C 0.0305(2) 0.08084(17) 0.8162(2)
C34_8 C 0.0342(2) 0.04799(18) 0.8177(2)
C35_8 C 0.0023(2) 0.0290(2) 0.8210(3)
H50_8 H 0.0053 0.0070 0.8210
C38_8 C 0.0689(2) 0.0312(2) 0.8141(2)
H52_8 H 0.0686 0.0091 0.8161
N6_8 N 0.0996(2) 0.04403(18) 0.8084(2)
O6_8 O 0.12846(19) 0.02155(16) 0.80608(18)
O7_8 O 0.02751(18) 0.20150(14) 0.77787(14)
N7_8 N 0.0518(2) 0.17757(16) 0.77252(15)
C39_8 C 0.0616(2) 0.17863(19) 0.74876(17)
H53_8 H 0.0507 0.1946 0.7380
C40_8 C 0.0881(2) 0.15768(17) 0.73636(16)
C41_8 C 0.1036(2) 0.13124(17) 0.74993(17)
C42_8 C 0.1294(2) 0.11233(18) 0.73570(16)
C43_8 C 0.1390(3) 0.1210(2) 0.71024(17)
H54_8 H 0.1568 0.1086 0.7015
C44_8 C 0.1241(2) 0.1466(2) 0.69706(15)
C45_8 C 0.0982(2) 0.1646(2) 0.71039(16)
H55_8 H 0.0870 0.1821 0.7017
C46_8 C 0.1469(3) 0.0847(2) 0.74693(19)
H56_8 H 0.1621 0.0728 0.7356
N8_8 N 0.1440(2) 0.0746(2) 0.77024(18)
O8_8 O 0.1658(2) 0.04780(18) 0.77429(17)
C47_8 C 0.1949(2) 0.00597(17) 0.80001(18)
O11_8 O 0.1166(2) 0.13417(17) 0.82314(17)
C50_8 C 0.1963(4) 0.1774(4) 0.9141(3)
O12_8 O 0.05866(17) 0.09916(14) 0.81153(16)
O13_8 O 0.09467(17) 0.12397(14) 0.77388(14)
C55_8 C 0.1358(3) 0.1551(3) 0.66918(16)
C57_8 C 0.2241(4) 0.0034(3) 0.8191(3)
H66_8 H 0.2259 0.0182 0.8329
C61_8 C 0.1057(5) 0.1509(7) 0.6484(4)
H70_8 H 0.0823 0.1600 0.6546
H71_8 H 0.1021 0.1286 0.6449
H72_8 H 0.1130 0.1615 0.6322
C62_8 C 0.1433(7) 0.1913(4) 0.6685(5)
H73_8 H 0.1629 0.1966 0.6815
H74_8 H 0.1203 0.2026 0.6725
H75_8 H 0.1513 0.1973 0.6509
C63_8 C 0.1732(5) 0.1418(6) 0.6615(5)
H76_8 H 0.1915 0.1453 0.6759
H77_8 H 0.1815 0.1522 0.6456
H78_8 H 0.1706 0.1193 0.6582
C64_8 C 0.1711(6) 0.1750(5) 0.9380(3)
H79_8 H 0.1477 0.1862 0.9343
H80_8 H 0.1839 0.1844 0.9534
H81_8 H 0.1658 0.1530 0.9417
C65_8 C 0.2328(5) 0.1602(5) 0.9197(4)
H82_8 H 0.2449 0.1687 0.9357
H83_8 H 0.2493 0.1628 0.9048
H84_8 H 0.2277 0.1379 0.9223
C66_8 C 0.2040(6) 0.2126(4) 0.9107(4)
H85_8 H 0.1804 0.2236 0.9071
H86_8 H 0.2207 0.2157 0.8960
H87_8 H 0.2158 0.2208 0.9269
C67_8 C 0.3596(3) 0.0783(2) 0.45388(14)
C68_8 C 0.3627(3) 0.1063(2) 0.40355(14)
B3_8 B 0.3564(3) 0.0611(3) 0.48147(18)
O16_8 O 0.3582(2) 0.02801(19) 0.47510(13)
N9_8 N 0.3605(3) 0.0066(2) 0.49588(16)
O18_8 O 0.3888(2) 0.07154(19) 0.49683(13)
N11_8 N 0.3948(2) 0.0584(2) 0.52149(15)
C77_8 C 0.4273(3) 0.0645(2) 0.53066(17)
H92_8 H 0.4429 0.0772 0.5202
C78_8 C 0.4423(2) 0.0538(2) 0.55553(15)
C79_8 C 0.4220(3) 0.0357(2) 0.57426(16)
C80_8 C 0.4419(2) 0.0268(2) 0.59784(16)
C81_8 C 0.4797(2) 0.0345(2) 0.60128(18)
H93_8 H 0.4925 0.0278 0.6169
C82_8 C 0.4995(2) 0.0516(2) 0.58298(17)
C83_8 C 0.4801(2) 0.0610(3) 0.56074(17)
H94_8 H 0.4930 0.0731 0.5482
C84_8 C 0.4252(2) 0.0080(2) 0.61828(17)
H95_8 H 0.4390 0.0056 0.6344
C91_8 C 0.3635(3) 0.1192(2) 0.37627(16)
O23_8 O 0.3878(2) 0.02853(18) 0.57011(13)
C93_8 C 0.5407(2) 0.0608(3) 0.5867(2)
C94_8 C 0.5457(4) 0.0966(3) 0.5843(3)
H100_8 H 0.5357 0.1037 0.5672
H101_8 H 0.5722 0.1019 0.5860
H102_8 H 0.5321 0.1070 0.5984
C95_8 C 0.5633(4) 0.0462(4) 0.5645(2)
H103_8 H 0.5523 0.0523 0.5474
H104_8 H 0.5629 0.0234 0.5661
H105_8 H 0.5892 0.0536 0.5658
C96_8 C 0.5566(3) 0.0521(4) 0.6133(2)
H106_8 H 0.5416 0.0618 0.6270
H107_8 H 0.5824 0.0596 0.6150
H108_8 H 0.5561 0.0293 0.6153
O26_8 O 0.3252(5) 0.0738(4) 0.4968(3)
C98_8 C 0.3480(5) 0.1223(3) 0.4244(2)
H109_8 H 0.3388 0.1429 0.4219
C99_8 C 0.3465(5) 0.1084(3) 0.4490(2)
H110_8 H 0.3362 0.1199 0.4631
C100_8 C 0.3759(5) 0.0630(3) 0.4326(2)
H111_8 H 0.3864 0.0429 0.4354
C101_8 C 0.3773(5) 0.0761(3) 0.4077(2)
H112_8 H 0.3879 0.0648 0.3937
N13_8 N 0.3179(5) 0.0583(5) 0.5193(4)
C102_8 C 0.2887(5) 0.0695(5) 0.5292(3)
H113_8 H 0.2758 0.0856 0.5197
C103_8 C 0.2737(4) 0.0595(4) 0.5540(3)
C104_8 C 0.2908(5) 0.0365(4) 0.5710(3)
C105_8 C 0.2737(4) 0.0308(4) 0.5957(3)
C106_8 C 0.2410(5) 0.0468(4) 0.6023(3)
H114_8 H 0.2305 0.0431 0.6190
C107_8 C 0.2240(4) 0.0677(4) 0.5852(3)
C108_8 C 0.2406(5) 0.0738(5) 0.5616(3)
H115_8 H 0.2290 0.0884 0.5499
C109_8 C 0.2880(5) 0.0090(4) 0.6152(3)
H116_8 H 0.2743 0.0070 0.6309
O28_8 O 0.3193(6) 0.0217(7) 0.5641(6)
C110_8 C 0.1872(4) 0.0834(5) 0.5923(4)
C111_8 C 0.1964(8) 0.1183(5) 0.5923(6)
H117_8 H 0.2034 0.1248 0.5746
H118_8 H 0.2172 0.1224 0.6048
H119_8 H 0.1745 0.1302 0.5976
C112_8 C 0.1565(6) 0.0756(7) 0.5721(5)
H120_8 H 0.1641 0.0825 0.5546
H121_8 H 0.1335 0.0865 0.5767
H122_8 H 0.1522 0.0530 0.5719
C113_8 C 0.1762(8) 0.0731(7) 0.6196(4)
H123_8 H 0.1963 0.0783 0.6323
H124_8 H 0.1720 0.0505 0.6196
H125_8 H 0.1533 0.0839 0.6244
C114_8 C 0.7243(2) 0.22874(18) 0.80169(19)
C115_8 C 0.7191(3) 0.25323(19) 0.7838(2)
H126_8 H 0.6999 0.2513 0.7707
C116_8 C 0.7405(3) 0.27994(18) 0.78420(19)
H127_8 H 0.7363 0.2958 0.7713
C117_8 C 0.7684(2) 0.28364(15) 0.80358(16)
C118_8 C 0.7752(2) 0.25940(16) 0.82128(18)
H128_8 H 0.7947 0.2611 0.8343
C119_8 C 0.7535(2) 0.23282(18) 0.81982(19)
H129_8 H 0.7589 0.2164 0.8319
B5_8 B 0.6970(3) 0.1990(2) 0.8021(3)
O29_8 O 0.7208(2) 0.17068(16) 0.80344(18)
N15_8 N 0.7016(2) 0.14175(16) 0.8054(2)
C120_8 C 0.7239(3) 0.11870(17) 0.8051(2)
H130_8 H 0.7497 0.1232 0.8032
C121_8 C 0.7134(2) 0.08624(16) 0.80721(19)
C122_8 C 0.6761(2) 0.07626(17) 0.81036(19)
C123_8 C 0.67022(18) 0.04342(16) 0.81332(17)
C124_8 C 0.70075(18) 0.02243(18) 0.81298(19)
H131_8 H 0.6962 0.0007 0.8150
C125_8 C 0.73692(18) 0.03269(16) 0.80984(19)
C126_8 C 0.7426(2) 0.06469(17) 0.8073(2)
H132_8 H 0.7673 0.0722 0.8056
C127_8 C 0.63315(18) 0.02971(18) 0.81494(18)
H133_8 H 0.6322 0.0078 0.8178
N16_8 N 0.60203(17) 0.04355(15) 0.81302(16)
O30_8 O 0.57215(15) 0.02338(13) 0.81448(14)
B6_8 B 0.5343(2) 0.0370(2) 0.8110(2)
O31_8 O 0.6764(2) 0.20378(17) 0.82567(18)
N17_8 N 0.6486(3) 0.1820(2) 0.83043(19)
C128_8 C 0.6325(3) 0.1879(2) 0.8518(2)
H134_8 H 0.6406 0.2061 0.8610
C129_8 C 0.6033(3) 0.1698(2) 0.86346(19)
C130_8 C 0.5881(3) 0.1424(2) 0.85159(19)
C131_8 C 0.5613(3) 0.12564(19) 0.86672(17)
C132_8 C 0.5507(3) 0.1365(2) 0.89135(19)
H135_8 H 0.5326 0.1250 0.9007
C133_8 C 0.5655(3) 0.1634(2) 0.90275(18)
C134_8 C 0.5913(4) 0.1793(3) 0.8881(2)
H136_8 H 0.6016 0.1980 0.8953
C135_8 C 0.5441(3) 0.09709(19) 0.85754(18)
H137_8 H 0.5271 0.0876 0.8691
N18_8 N 0.5488(2) 0.08319(16) 0.83604(15)
O32_8 O 0.52547(17) 0.05828(15) 0.83268(14)
O33_8 O 0.6753(2) 0.19989(17) 0.77758(18)
N19_8 N 0.6497(3) 0.1756(2) 0.77403(19)
C136_8 C 0.6349(3) 0.1764(2) 0.7512(2)
H138_8 H 0.6435 0.1925 0.7400
C137_8 C 0.6068(3) 0.1559(2) 0.73993(17)
C138_8 C 0.5920(3) 0.1304(2) 0.75487(19)
C139_8 C 0.5654(3) 0.1109(2) 0.74157(16)
C140_8 C 0.5546(3) 0.1172(2) 0.71541(18)
C141_8 C 0.5944(3) 0.1606(3) 0.71403(19)
C142_8 C 0.5479(3) 0.0839(2) 0.75402(17)
H139_8 H 0.5326 0.0709 0.7431
N20_8 N 0.5514(2) 0.07657(17) 0.77821(15)
O34_8 O 0.52820(17) 0.05159(14) 0.78476(13)
C143_8 C 0.50534(18) 0.00858(15) 0.81092(17)
C148_8 C 0.47115(19) 0.01151(17) 0.82335(18)
H143_8 H 0.4660 0.0303 0.8326
C149_8 C 0.7898(2) 0.31350(16) 0.80650(16)
O37_8 O 0.64884(17) 0.09579(14) 0.81110(15)
C150_8 C 0.7698(2) 0.01017(19) 0.8081(2)
O38_8 O 0.59940(19) 0.13215(15) 0.82996(15)
C151_8 C 0.5527(4) 0.1751(3) 0.9296(2)
O39_8 O 0.6020(2) 0.12589(16) 0.77922(15)
C153_8 C 0.5657(4) 0.1437(3) 0.7019(2)
H145_8 H 0.7903 0.0026 0.8455
C156_8 C 0.8056(5) 0.0238(6) 0.7980(7)
H150_8 H 0.7999 0.0370 0.7827
H151_8 H 0.8223 0.0069 0.7930
H152_8 H 0.8176 0.0365 0.8119
C157_8 C 0.5740(7) 0.2034(5) 0.9405(5)
H153_8 H 0.5737 0.2201 0.9274
H154_8 H 0.5999 0.1974 0.9447
H155_8 H 0.5621 0.2107 0.9565
C158_8 C 0.5129(5) 0.1874(6) 0.9228(5)
H156_8 H 0.4976 0.1703 0.9156
H157_8 H 0.5143 0.2042 0.9098
H158_8 H 0.5016 0.1955 0.9388
C159_8 C 0.5517(9) 0.1476(5) 0.9487(4)
H159_8 H 0.5377 0.1303 0.9406
H160_8 H 0.5394 0.1542 0.9649
H161_8 H 0.5772 0.1408 0.9531
C160_8 C 0.5439(5) 0.1563(4) 0.6777(3)
C161_8 C 0.5592(8) 0.1870(5) 0.6678(5)
H162_8 H 0.5569 0.2030 0.6815
H163_8 H 0.5450 0.1935 0.6519
H164_8 H 0.5855 0.1844 0.6636
C162_8 C 0.5473(8) 0.1312(6) 0.6566(4)
H165_8 H 0.5374 0.1114 0.6631
H166_8 H 0.5737 0.1285 0.6524
H167_8 H 0.5332 0.1376 0.6407
C163_8 C 0.5026(5) 0.1623(6) 0.6824(5)
H168_8 H 0.4910 0.1431 0.6889
H169_8 H 0.4901 0.1687 0.6659
H170_8 H 0.5001 0.1789 0.6955
H187_8 H 0.53656 0.100442 0.705134
H188_8 H 0.608048 0.178629 0.702598
Zn6_8 Zn 0.35575(3) 0.99110(3) 0.58430(2)
O1_8 O 0.35070(11) 0.87779(9) 0.80789(9)
O2_8 O 0.3355(4) 0.9513(3) 0.8584(3)
C48_8 C 0.24800(19) 0.95689(16) 0.79822(18)
C56_8 C 0.2763(2) 0.93161(18) 0.7963(2)
O14_8 O 0.30915(17) 0.93858(15) 0.80389(18)
O15_8 O 0.26771(15) 0.90515(13) 0.78711(14)
C58_8 C 0.2503(4) 0.9796(3) 0.8180(3)
H67_8 H 0.2700 0.9787 0.8308
C59_8 C 0.2186(3) 0.9582(3) 0.7799(3)
H68_8 H 0.2160 0.9426 0.7667
C60_8 C 0.1932(4) 0.9825(3) 0.7811(3)
H69_8 H 0.1734 0.9831 0.7683
C69_6 C 0.3620(3) 0.9787(2) 0.48808(19)
H88_6 H 0.3618 0.9754 0.4696
C70_8 C 0.3640(3) 0.95113(19) 0.50468(16)
C71_8 C 0.3630(3) 0.9523(2) 0.53275(15)
C72_8 C 0.3660(3) 0.9233(2) 0.54650(15)
C73_8 C 0.3708(4) 0.8958(2) 0.53208(17)
H89_8 H 0.3740 0.8768 0.5416
C74_8 C 0.3711(4) 0.8944(2) 0.50522(18)
C75_6 C 0.3682(4) 0.9222(2) 0.4917(2)
H90_6 H 0.3691 0.9220 0.4730
C76_8 C 0.3641(3) 0.9206(2) 0.57461(15)
H91_8 H 0.3661 0.9000 0.5816
N10_8 N 0.3602(2) 0.94228(17) 0.59120(14)
O17_8 O 0.3593(2) 0.93165(16) 0.61663(12)
B4_8 B 0.3543(3) 0.9554(2) 0.63696(17)
N12_8 N 0.3937(2) 0.99458(19) 0.61627(15)
O19_8 O 0.3853(2) 0.97881(17) 0.63872(13)
C85_8 C 0.3542(2) 0.93780(19) 0.66486(13)
C86_8 C 0.3863(2) 0.9359(2) 0.68114(15)
H96_8 H 0.4085 0.9459 0.6758
C87_8 C 0.3864(2) 0.9197(2) 0.70488(15)
H97_8 H 0.4088 0.9179 0.7152
C88_8 C 0.3538(2) 0.90612(18) 0.71356(13)
C89_8 C 0.3214(2) 0.9084(2) 0.69829(15)
H98_8 H 0.2990 0.8991 0.7040
C90_8 C 0.3219(2) 0.9243(2) 0.67444(15)
H99_8 H 0.2993 0.9261 0.6643
O22_8 O 0.3621(2) 0.97838(16) 0.54478(12)
C92_6 C 0.3760(4) 0.8630(2) 0.4911(2)
C97_8 C 0.3536(2) 0.89016(19) 0.73994(14)
O24_8 O 0.38474(18) 0.88711(17) 0.75189(12)
O25_8 O 0.32225(16) 0.88083(14) 0.74786(11)
N14_8 N 0.3170(5) 0.9923(5) 0.6134(4)
O27_8 O 0.3219(5) 0.9756(4) 0.6361(4)
C144_8 C 0.5115(2) 0.98039(17) 0.7980(2)
H140_8 H 0.5346 0.9773 0.7896
C145_8 C 0.48511(19) 0.95678(18) 0.79713(19)
H141_8 H 0.4902 0.9378 0.7882
C146_8 C 0.45112(18) 0.96076(15) 0.80924(16)
C147_8 C 0.4445(2) 0.98800(16) 0.82271(18)
H142_8 H 0.4217 0.9907 0.8316
C152_8 C 0.42182(19) 0.93564(16) 0.80793(17)
O40_8 O 0.43099(14) 0.90965(12) 0.79877(12)
O41_8 O 0.39018(15) 0.94250(13) 0.81497(15)
C154_8 C 0.7782(8) 0.9900(6) 0.8316(5)
H144_8 H 0.7550 0.9812 0.8380
H146_8 H 0.7950 0.9730 0.8266
C155_8 C 0.7586(8) 0.9873(6) 0.7846(5)
H147_8 H 0.7528 0.9996 0.7688
H148_8 H 0.7367 0.9751 0.7893
H149_8 H 0.7794 0.9732 0.7813
N21_8 N 0.2560(4) 0.8809(4) 0.8770(3)
C164_8 C 0.2537(6) 0.8484(5) 0.8697(5)
H171_8 H 0.2357 0.8378 0.8808
H172_8 H 0.2782 0.8386 0.8721
H173_8 H 0.2455 0.8466 0.8512
C165_8 C 0.2331(6) 0.8898(6) 0.8985(4)
H174_8 H 0.2189 0.8716 0.9043
H175_8 H 0.2159 0.9064 0.8928
H176_8 H 0.2490 0.8974 0.9131
C166_8 C 0.2794(4) 0.8999(4) 0.8641(3)
H177_8 H 0.2814 0.9208 0.8702
O42_8 O 0.2975(3) 0.8931(3) 0.8457(2)
C167_6 C 0.4078(8) 0.8637(6) 0.4715(5)
H178_6 H 0.4044 0.8817 0.4598
H179_6 H 0.4075 0.8444 0.4612
H180_6 H 0.4317 0.8656 0.4812
C168_8 C 0.3816(10) 0.8348(4) 0.5094(4)
H181_8 H 0.3614 0.8341 0.5220
H182_8 H 0.4056 0.8367 0.5189
H183_6 H 0.3814 0.8156 0.4989
C169_6 C 0.3387(6) 0.8560(6) 0.4761(5)
H184_6 H 0.3330 0.8731 0.4638
H185_6 H 0.3186 0.8541 0.4887
H186_6 H 0.3409 0.8364 0.4663
H189_8 H 0.308472 0.950947 0.862209
H190_8 H 0.342653 0.97258 0.852541
C17_8 C 0.9884(2) 0.23448(16) 0.80556(17)
C18_8 C 0.9900(3) 0.25859(18) 0.78685(19)
C19_8 C 0.9679(3) 0.28507(18) 0.78792(18)
H42_8 H 0.9693 0.3005 0.7745
C20_8 C 0.9436(2) 0.28920(15) 0.80837(16)
C21_8 C 0.9408(2) 0.26552(16) 0.82695(17)
H43_8 H 0.9241 0.2678 0.8410
C22_8 C 0.9622(2) 0.23867(17) 0.82524(18)
H44_8 H 0.9590 0.2225 0.8378
O5_8 O 0.99202(17) 0.17785(13) 0.81328(15)
C31_8 C 0.9867(2) 0.12688(16) 0.8184(2)
H49_8 H 0.9619 0.1332 0.8219
C32_8 C 0.9943(2) 0.09331(16) 0.8198(2)
C36_8 C 0.9668(2) 0.04125(19) 0.8243(3)
C37_8 C 0.9644(2) 0.07364(18) 0.8247(3)
H51_8 H 0.9411 0.0829 0.8286
C49_8 C 0.9198(2) 0.31810(16) 0.80998(17)
C51_8 C 0.9320(3) 0.0205(3) 0.8266(3)
C52_8 C 0.9058(4) 0.0236(4) 0.8013(3)
H57_8 H 0.9187 0.0154 0.7860
H58_8 H 0.8994 0.0456 0.7984
H59_8 H 0.8829 0.0115 0.8038
C53_8 C 0.9060(4) 0.0341(4) 0.8458(4)
H60_8 H 0.9031 0.0565 0.8423
H61_8 H 0.9161 0.0310 0.8637
H62_8 H 0.8817 0.0238 0.8439
C54_5 C 0.0581(4) 0.0136(3) 0.1729(4)
H63_5 H 0.0407 0.0181 0.1870
H64_5 H 0.0808 0.0261 0.1756
H65_5 H 0.0464 0.0189 0.1558
C69_7 C 0.3620(3) 0.0213(2) 0.98808(19)
H88_7 H 0.3618 0.0246 0.9696
C75_7 C 0.3682(4) 0.0778(2) 0.9917(2)
H90_7 H 0.3691 0.0780 0.9730
C92_7 C 0.3760(4) 0.1370(2) 0.9911(2)
C167_7 C 0.4078(8) 0.1363(6) 0.9715(5)
H178_7 H 0.4044 0.1183 0.9598
H179_7 H 0.4075 0.1556 0.9612
H180_7 H 0.4317 0.1344 0.9812
H183_7 H 0.3814 0.1844 0.9989
C169_7 C 0.3387(6) 0.1440(6) 0.9761(5)
H184_7 H 0.3330 0.1269 0.9638
H185_7 H 0.3186 0.1459 0.9887
H186_7 H 0.3409 0.1636 0.9663
C54_6 C 0.9419(4) 0.0136(3) 0.3271(4)
H63_6 H 0.9593 0.0181 0.3130
H64_6 H 0.9192 0.0261 0.3244
H65_6 H 0.9536 0.0189 0.3442
C54_7 C 0.9419(4) 0.9864(3) 0.8271(4)
H63_7 H 0.9593 0.9819 0.8130
H64_7 H 0.9192 0.9739 0.8244
H65_7 H 0.9536 0.9811 0.8442
C54_8 C 0.0581(4) 0.9864(3) 0.6729(4)
H63_8 H 0.0407 0.9819 0.6870
H64_8 H 0.0808 0.9739 0.6756
H65_8 H 0.0464 0.9811 0.6558
C69_8 C 0.6380(3) 0.9787(2) 0.01192(19)
H88_8 H 0.6382 0.9754 0.0304
C75_8 C 0.6318(4) 0.9222(2) 0.0083(2)
H90_8 H 0.6309 0.9220 0.0270
C92_8 C 0.6240(4) 0.8630(2) 0.0089(2)
C167_8 C 0.5922(8) 0.8637(6) 0.0285(5)
H178_8 H 0.5956 0.8817 0.0402
H179_8 H 0.5925 0.8444 0.0388
H180_8 H 0.5683 0.8656 0.0188
H183_8 H 0.6186 0.8156 0.0011
C169_8 C 0.6613(6) 0.8560(6) 0.0239(5)
H184_8 H 0.6670 0.8731 0.0362
H185_8 H 0.6814 0.8541 0.0113
H186_8 H 0.6591 0.8364 0.0337
loop_
_geom_bond_atom_site_label_1
_geom_bond_atom_site_label_2
_geom_bond_site_symmetry_1
_geom_bond_site_symmetry_2
N1 C1 1_555 1_555
C1 H1 1_555 1_555
H2 C1 1_555 1_555
C2 C1 1_555 1_555
H3 C2 1_555 1_555
H4 C2 1_555 1_555
H5 C2 1_555 1_555
C3 N1 1_555 1_555
H6 C3 1_555 1_555
H7 C3 1_555 1_555
C4 C3 1_555 1_555
H8 C4 1_555 1_555
H9 C4 1_555 1_555
H10 C4 1_555 1_555
C5 N1 1_555 1_555
H11 C5 1_555 1_555
H12 C5 1_555 1_555
C6 C5 1_555 1_555
H13 C6 1_555 1_555
H14 C6 1_555 1_555
H15 C6 1_555 1_555
C7 N1 1_555 1_555
H16 C7 1_555 1_555
H17 C7 1_555 1_555
C8 C7 1_555 1_555
H18 C8 1_555 1_555
H19 C8 1_555 1_555
H20 C8 1_555 1_555
N1_2 C1_2 1_555 1_555
C1_2 H1_2 1_555 1_555
H2_2 C1_2 1_555 1_555
C2_2 C1_2 1_555 1_555
H3_2 C2_2 1_555 1_555
H4_2 C2_2 1_555 1_555
H5_2 C2_2 1_555 1_555
C3_2 N1_2 1_555 1_555
H6_2 C3_2 1_555 1_555
H7_2 C3_2 1_555 1_555
C4_2 C3_2 1_555 1_555
H8_2 C4_2 1_555 1_555
H9_2 C4_2 1_555 1_555
H10_2 C4_2 1_555 1_555
C5_2 N1_2 1_555 1_555
H11_2 C5_2 1_555 1_555
H12_2 C5_2 1_555 1_555
C6_2 C5_2 1_555 1_555
H13_2 C6_2 1_555 1_555
H14_2 C6_2 1_555 1_555
H15_2 C6_2 1_555 1_555
C7_2 N1_2 1_555 1_555
H16_2 C7_2 1_555 1_555
H17_2 C7_2 1_555 1_555
C8_2 C7_2 1_555 1_555
H18_2 C8_2 1_555 1_555
H19_2 C8_2 1_555 1_555
H20_2 C8_2 1_555 1_555
N1_3 C1_3 1_555 1_555
C1_3 H1_3 1_555 1_555
H2_3 C1_3 1_555 1_555
C2_3 C1_3 1_555 1_555
H3_3 C2_3 1_555 1_555
H4_3 C2_3 1_555 1_555
H5_3 C2_3 1_555 1_555
C3_3 N1_3 1_555 1_555
H6_3 C3_3 1_555 1_555
H7_3 C3_3 1_555 1_555
C4_3 C3_3 1_555 1_555
H8_3 C4_3 1_555 1_555
H9_3 C4_3 1_555 1_555
H10_3 C4_3 1_555 1_555
C5_3 N1_3 1_555 1_555
H11_3 C5_3 1_555 1_555
H12_3 C5_3 1_555 1_555
C6_3 C5_3 1_555 1_555
H13_3 C6_3 1_555 1_555
H14_3 C6_3 1_555 1_555
H15_3 C6_3 1_555 1_555
C7_3 N1_3 1_555 1_555
H16_3 C7_3 1_555 1_555
H17_3 C7_3 1_555 1_555
C8_3 C7_3 1_555 1_555
H18_3 C8_3 1_555 1_555
H19_3 C8_3 1_555 1_555
H20_3 C8_3 1_555 1_555
N1_4 C1_4 1_555 1_555
C1_4 H1_4 1_555 1_555
H2_4 C1_4 1_555 1_555
C2_4 C1_4 1_555 1_555
H3_4 C2_4 1_555 1_555
H4_4 C2_4 1_555 1_555
H5_4 C2_4 1_555 1_555
C3_4 N1_4 1_555 1_555
H6_4 C3_4 1_555 1_555
H7_4 C3_4 1_555 1_555
C4_4 C3_4 1_555 1_555
H8_4 C4_4 1_555 1_555
H9_4 C4_4 1_555 1_555
H10_4 C4_4 1_555 1_555
C5_4 N1_4 1_555 1_555
H11_4 C5_4 1_555 1_555
H12_4 C5_4 1_555 1_555
C6_4 C5_4 1_555 1_555
H13_4 C6_4 1_555 1_555
H14_4 C6_4 1_555 1_555
H15_4 C6_4 1_555 1_555
C7_4 N1_4 1_555 1_555
H16_4 C7_4 1_555 1_555
H17_4 C7_4 1_555 1_555
C8_4 C7_4 1_555 1_555
H18_4 C8_4 1_555 1_555
H19_4 C8_4 1_555 1_555
H20_4 C8_4 1_555 1_555
N1_5 C1_5 1_555 1_555
C1_5 H1_5 1_555 1_555
H2_5 C1_5 1_555 1_555
C2_5 C1_5 1_555 1_555
H3_5 C2_5 1_555 1_555
H4_5 C2_5 1_555 1_555
H5_5 C2_5 1_555 1_555
C3_5 N1_5 1_555 1_555
H6_5 C3_5 1_555 1_555
H7_5 C3_5 1_555 1_555
C4_5 C3_5 1_555 1_555
H8_5 C4_5 1_555 1_555
H9_5 C4_5 1_555 1_555
H10_5 C4_5 1_555 1_555
C5_5 N1_5 1_555 1_555
H11_5 C5_5 1_555 1_555
H12_5 C5_5 1_555 1_555
C6_5 C5_5 1_555 1_555
H13_5 C6_5 1_555 1_555
H14_5 C6_5 1_555 1_555
H15_5 C6_5 1_555 1_555
C7_5 N1_5 1_555 1_555
H16_5 C7_5 1_555 1_555
H17_5 C7_5 1_555 1_555
C8_5 C7_5 1_555 1_555
H18_5 C8_5 1_555 1_555
H19_5 C8_5 1_555 1_555
H20_5 C8_5 1_555 1_555
N1_6 C1_6 1_555 1_555
C1_6 H1_6 1_555 1_555
H2_6 C1_6 1_555 1_555
C2_6 C1_6 1_555 1_555
H3_6 C2_6 1_555 1_555
H4_6 C2_6 1_555 1_555
H5_6 C2_6 1_555 1_555
C3_6 N1_6 1_555 1_555
H6_6 C3_6 1_555 1_555
H7_6 C3_6 1_555 1_555
C4_6 C3_6 1_555 1_555
H8_6 C4_6 1_555 1_555
H9_6 C4_6 1_555 1_555
H10_6 C4_6 1_555 1_555
C5_6 N1_6 1_555 1_555
H11_6 C5_6 1_555 1_555
H12_6 C5_6 1_555 1_555
C6_6 C5_6 1_555 1_555
H13_6 C6_6 1_555 1_555
H14_6 C6_6 1_555 1_555
H15_6 C6_6 1_555 1_555
C7_6 N1_6 1_555 1_555
H16_6 C7_6 1_555 1_555
H17_6 C7_6 1_555 1_555
C8_6 C7_6 1_555 1_555
H18_6 C8_6 1_555 1_555
H19_6 C8_6 1_555 1_555
H20_6 C8_6 1_555 1_555
N1_7 C1_7 1_555 1_555
C1_7 H1_7 1_555 1_555
H2_7 C1_7 1_555 1_555
C2_7 C1_7 1_555 1_555
H3_7 C2_7 1_555 1_555
H4_7 C2_7 1_555 1_555
H5_7 C2_7 1_555 1_555
C3_7 N1_7 1_555 1_555
H6_7 C3_7 1_555 1_555
H7_7 C3_7 1_555 1_555
C4_7 C3_7 1_555 1_555
H8_7 C4_7 1_555 1_555
H9_7 C4_7 1_555 1_555
H10_7 C4_7 1_555 1_555
C5_7 N1_7 1_555 1_555
H11_7 C5_7 1_555 1_555
H12_7 C5_7 1_555 1_555
C6_7 C5_7 1_555 1_555
H13_7 C6_7 1_555 1_555
H14_7 C6_7 1_555 1_555
H15_7 C6_7 1_555 1_555
C7_7 N1_7 1_555 1_555
H16_7 C7_7 1_555 1_555
H17_7 C7_7 1_555 1_555
C8_7 C7_7 1_555 1_555
H18_7 C8_7 1_555 1_555
H19_7 C8_7 1_555 1_555
H20_7 C8_7 1_555 1_555
N1_8 C1_8 1_555 1_555
C1_8 H1_8 1_555 1_555
H2_8 C1_8 1_555 1_555
C2_8 C1_8 1_555 1_555
H3_8 C2_8 1_555 1_555
H4_8 C2_8 1_555 1_555
H5_8 C2_8 1_555 1_555
C3_8 N1_8 1_555 1_555
H6_8 C3_8 1_555 1_555
H7_8 C3_8 1_555 1_555
C4_8 C3_8 1_555 1_555
H8_8 C4_8 1_555 1_555
H9_8 C4_8 1_555 1_555
H10_8 C4_8 1_555 1_555
C5_8 N1_8 1_555 1_555
H11_8 C5_8 1_555 1_555
H12_8 C5_8 1_555 1_555
C6_8 C5_8 1_555 1_555
H13_8 C6_8 1_555 1_555
H14_8 C6_8 1_555 1_555
H15_8 C6_8 1_555 1_555
C7_8 N1_8 1_555 1_555
H16_8 C7_8 1_555 1_555
H17_8 C7_8 1_555 1_555
C8_8 C7_8 1_555 1_555
H18_8 C8_8 1_555 1_555
H19_8 C8_8 1_555 1_555
H20_8 C8_8 1_555 1_555
N2 C9 1_555 1_555
C9 H21 1_555 1_555
H22 C9 1_555 1_555
C10 C9 1_555 1_555
H23 C10 1_555 1_555
H24 C10 1_555 1_555
H25 C10 1_555 1_555
C11 N2 1_555 1_555
H26 C11 1_555 1_555
H27 C11 1_555 1_555
C12 C11 1_555 1_555
H28 C12 1_555 1_555
H29 C12 1_555 1_555
H30 C12 1_555 1_555
C13 N2 1_555 1_555
H31 C13 1_555 1_555
H32 C13 1_555 1_555
C14 C13 1_555 1_555
H33 C14 1_555 1_555
H34 C14 1_555 1_555
H35 C14 1_555 1_555
C15 N2 1_555 1_555
H36 C15 1_555 1_555
H37 C15 1_555 1_555
C16 C15 1_555 1_555
H38 C16 1_555 1_555
H39 C16 1_555 1_555
H40 C16 1_555 1_555
N2_2 C9_2 1_555 1_555
C9_2 H21_2 1_555 1_555
H22_2 C9_2 1_555 1_555
C10_2 C9_2 1_555 1_555
H23_2 C10_2 1_555 1_555
H24_2 C10_2 1_555 1_555
H25_2 C10_2 1_555 1_555
C11_2 N2_2 1_555 1_555
H26_2 C11_2 1_555 1_555
H27_2 C11_2 1_555 1_555
C12_2 C11_2 1_555 1_555
H28_2 C12_2 1_555 1_555
H29_2 C12_2 1_555 1_555
H30_2 C12_2 1_555 1_555
C13_2 N2_2 1_555 1_555
H31_2 C13_2 1_555 1_555
H32_2 C13_2 1_555 1_555
C14_2 C13_2 1_555 1_555
H33_2 C14_2 1_555 1_555
H34_2 C14_2 1_555 1_555
H35_2 C14_2 1_555 1_555
C15_2 N2_2 1_555 1_555
H36_2 C15_2 1_555 1_555
H37_2 C15_2 1_555 1_555
C16_2 C15_2 1_555 1_555
H38_2 C16_2 1_555 1_555
H39_2 C16_2 1_555 1_555
H40_2 C16_2 1_555 1_555
H31_3 C13_3 1_555 1_555
H32_3 C13_3 1_555 1_555
C14_3 C13_3 1_555 1_555
H33_3 C14_3 1_555 1_555
H34_3 C14_3 1_555 1_555
H35_3 C14_3 1_555 1_555
N2_3 C9_3 1_555 1_555
C9_3 H21_3 1_555 1_555
H22_3 C9_3 1_555 1_555
C10_3 C9_3 1_555 1_555
H23_3 C10_3 1_555 1_555
H24_3 C10_3 1_555 1_555
H25_3 C10_3 1_555 1_555
C11_3 N2_3 1_555 1_555
H26_3 C11_3 1_555 1_555
H27_3 C11_3 1_555 1_555
C12_3 C11_3 1_555 1_555
H28_3 C12_3 1_555 1_555
H30_3 C12_3 1_555 1_555
C15_3 N2_3 1_555 1_555
H36_3 C15_3 1_555 1_555
H37_3 C15_3 1_555 1_555
C16_3 C15_3 1_555 1_555
H38_3 C16_3 1_555 1_555
H39_3 C16_3 1_555 1_555
H40_3 C16_3 1_555 1_555
H31_4 C13_4 1_555 1_555
H32_4 C13_4 1_555 1_555
C14_4 C13_4 1_555 1_555
H33_4 C14_4 1_555 1_555
H34_4 C14_4 1_555 1_555
H35_4 C14_4 1_555 1_555
N2_4 C9_4 1_555 1_555
C9_4 H21_4 1_555 1_555
H22_4 C9_4 1_555 1_555
C10_4 C9_4 1_555 1_555
H23_4 C10_4 1_555 1_555
H24_4 C10_4 1_555 1_555
H25_4 C10_4 1_555 1_555
C11_4 N2_4 1_555 1_555
H26_4 C11_4 1_555 1_555
H27_4 C11_4 1_555 1_555
C12_4 C11_4 1_555 1_555
H28_4 C12_4 1_555 1_555
H30_4 C12_4 1_555 1_555
C15_4 N2_4 1_555 1_555
H36_4 C15_4 1_555 1_555
H37_4 C15_4 1_555 1_555
C16_4 C15_4 1_555 1_555
H38_4 C16_4 1_555 1_555
H39_4 C16_4 1_555 1_555
H40_4 C16_4 1_555 1_555
N2_5 C9_5 1_555 1_555
C9_5 H21_5 1_555 1_555
H22_5 C9_5 1_555 1_555
C10_5 C9_5 1_555 1_555
H23_5 C10_5 1_555 1_555
H24_5 C10_5 1_555 1_555
H25_5 C10_5 1_555 1_555
C11_5 N2_5 1_555 1_555
H26_5 C11_5 1_555 1_555
H27_5 C11_5 1_555 1_555
C12_5 C11_5 1_555 1_555
H28_5 C12_5 1_555 1_555
H29_5 C12_5 1_555 1_555
H30_5 C12_5 1_555 1_555
C13_5 N2_5 1_555 1_555
H31_5 C13_5 1_555 1_555
H32_5 C13_5 1_555 1_555
C14_5 C13_5 1_555 1_555
H33_5 C14_5 1_555 1_555
H34_5 C14_5 1_555 1_555
H35_5 C14_5 1_555 1_555
C15_5 N2_5 1_555 1_555
H36_5 C15_5 1_555 1_555
H37_5 C15_5 1_555 1_555
C16_5 C15_5 1_555 1_555
H38_5 C16_5 1_555 1_555
H39_5 C16_5 1_555 1_555
H40_5 C16_5 1_555 1_555
N2_6 C9_6 1_555 1_555
C9_6 H21_6 1_555 1_555
H22_6 C9_6 1_555 1_555
C10_6 C9_6 1_555 1_555
H23_6 C10_6 1_555 1_555
H24_6 C10_6 1_555 1_555
H25_6 C10_6 1_555 1_555
C11_6 N2_6 1_555 1_555
H26_6 C11_6 1_555 1_555
H27_6 C11_6 1_555 1_555
C12_6 C11_6 1_555 1_555
H28_6 C12_6 1_555 1_555
H29_6 C12_6 1_555 1_555
H30_6 C12_6 1_555 1_555
C13_6 N2_6 1_555 1_555
H31_6 C13_6 1_555 1_555
H32_6 C13_6 1_555 1_555
C14_6 C13_6 1_555 1_555
H33_6 C14_6 1_555 1_555
H34_6 C14_6 1_555 1_555
H35_6 C14_6 1_555 1_555
C15_6 N2_6 1_555 1_555
H36_6 C15_6 1_555 1_555
H37_6 C15_6 1_555 1_555
C16_6 C15_6 1_555 1_555
H38_6 C16_6 1_555 1_555
H39_6 C16_6 1_555 1_555
H40_6 C16_6 1_555 1_555
N2_7 C9_7 1_555 1_555
C9_7 H21_7 1_555 1_555
H22_7 C9_7 1_555 1_555
C10_7 C9_7 1_555 1_555
H23_7 C10_7 1_555 1_555
H24_7 C10_7 1_555 1_555
H25_7 C10_7 1_555 1_555
C11_7 N2_7 1_555 1_555
H26_7 C11_7 1_555 1_555
H27_7 C11_7 1_555 1_555
C12_7 C11_7 1_555 1_555
H28_7 C12_7 1_555 1_555
H30_7 C12_7 1_555 1_555
C15_7 N2_7 1_555 1_555
H36_7 C15_7 1_555 1_555
H37_7 C15_7 1_555 1_555
C16_7 C15_7 1_555 1_555
H38_7 C16_7 1_555 1_555
H39_7 C16_7 1_555 1_555
H40_7 C16_7 1_555 1_555
H31_7 C13_7 1_555 1_555
H32_7 C13_7 1_555 1_555
C14_7 C13_7 1_555 1_555
H33_7 C14_7 1_555 1_555
H34_7 C14_7 1_555 1_555
H35_7 C14_7 1_555 1_555
N2_8 C9_8 1_555 1_555
C9_8 H21_8 1_555 1_555
H22_8 C9_8 1_555 1_555
C10_8 C9_8 1_555 1_555
H23_8 C10_8 1_555 1_555
H24_8 C10_8 1_555 1_555
H25_8 C10_8 1_555 1_555
C11_8 N2_8 1_555 1_555
H26_8 C11_8 1_555 1_555
H27_8 C11_8 1_555 1_555
C12_8 C11_8 1_555 1_555
H28_8 C12_8 1_555 1_555
H30_8 C12_8 1_555 1_555
C15_8 N2_8 1_555 1_555
H36_8 C15_8 1_555 1_555
H37_8 C15_8 1_555 1_555
C16_8 C15_8 1_555 1_555
H38_8 C16_8 1_555 1_555
H39_8 C16_8 1_555 1_555
H40_8 C16_8 1_555 1_555
H31_8 C13_8 1_555 1_555
H32_8 C13_8 1_555 1_555
C14_8 C13_8 1_555 1_555
H33_8 C14_8 1_555 1_555
H34_8 C14_8 1_555 1_555
H35_8 C14_8 1_555 1_555
Zn1 N4 1_555 1_555
Zn2 N3 1_555 1_555
Zn5 N9 1_555 1_555
Zn6 N10 1_555 1_555
Zn7 O1 1_555 1_555
Zn8 O1 1_555 1_555
Zn9 O1 1_555 1_555
Zn10 O1 1_555 1_555
O2 Zn8 1_555 1_555
C17 C18 1_555 1_555
C18 H41 1_555 1_555
C19 C18 1_555 1_555
H42 C19 1_555 1_555
C20 C19 1_555 1_555
C21 C20 1_555 1_555
H43 C21 1_555 1_555
C22 C17 1_555 1_555
H44 C22 1_555 1_555
B1 C17 1_555 1_555
O3 B1 1_555 1_555
N3 O3 1_555 1_555
C23 N3 1_555 1_555
H45 C23 1_555 1_555
C24 C23 1_555 1_555
C25 C24 1_555 1_555
C26 C25 1_555 1_555
C27 C26 1_555 1_555
H46 C27 1_555 1_555
C28 C27 1_555 1_555
C29 C24 1_555 1_555
H47 C29 1_555 1_555
C30 C26 1_555 1_555
H48 C30 1_555 1_555
N4 C30 1_555 1_555
O4 N4 1_555 1_555
B2 O4 1_555 1_555
O5 B1 1_555 1_555
N5 Zn2 1_555 1_555
C31 N5 1_555 1_555
H49 C31 1_555 1_555
C32 C31 1_555 1_555
C33 C32 1_555 1_555
C34 C33 1_555 1_555
C35 C34 1_555 1_555
H50 C35 1_555 1_555
C36 C35 1_555 1_555
C37 C32 1_555 1_555
H51 C37 1_555 1_555
C38 C34 1_555 1_555
H52 C38 1_555 1_555
N6 Zn1 1_555 1_555
O6 B2 1_555 1_555
O7 B1 1_555 1_555
N7 Zn2 1_555 1_555
C39 N7 1_555 1_555
H53 C39 1_555 1_555
C40 C39 1_555 1_555
C41 C40 1_555 1_555
C42 C41 1_555 1_555
C43 C42 1_555 1_555
H54 C43 1_555 1_555
C44 C43 1_555 1_555
C45 C40 1_555 1_555
H55 C45 1_555 1_555
C46 C42 1_555 1_555
H56 C46 1_555 1_555
N8 Zn1 1_555 1_555
O8 B2 1_555 1_555
C47 B2 1_555 1_555
C48 C56 1_555 1_555
C49 C20 1_555 1_555
O9 C49 1_555 1_555
O10 C49 1_555 1_555
O11 Zn1 1_555 1_555
C50 C28 1_555 1_555
O12 Zn1 1_555 1_555
C51 C36 1_555 1_555
C52 C51 1_555 1_555
H57 C52 1_555 1_555
H58 C52 1_555 1_555
H59 C52 1_555 1_555
C53 C51 1_555 1_555
H60 C53 1_555 1_555
H61 C53 1_555 1_555
H62 C53 1_555 1_555
C54 C51 1_555 1_555
H63 C54 1_555 1_555
H64 C54 1_555 1_555
H65 C54 1_555 1_555
O13 Zn1 1_555 1_555
C55 C44 1_555 1_555
C56 O14 1_555 1_555
O14 Zn8 1_555 1_555
O15 Zn9 1_555 1_555
C57 C47 1_555 1_555
H66 C57 1_555 1_555
C58 C48 1_555 1_555
H67 C58 1_555 1_555
C59 C48 1_555 1_555
H68 C59 1_555 1_555
C60 C47 1_555 1_555
H69 C60 1_555 1_555
C61 C55 1_555 1_555
H70 C61 1_555 1_555
H71 C61 1_555 1_555
H72 C61 1_555 1_555
C62 C55 1_555 1_555
H73 C62 1_555 1_555
H74 C62 1_555 1_555
H75 C62 1_555 1_555
C63 C55 1_555 1_555
H76 C63 1_555 1_555
H77 C63 1_555 1_555
H78 C63 1_555 1_555
C64 C50 1_555 1_555
H79 C64 1_555 1_555
H80 C64 1_555 1_555
H81 C64 1_555 1_555
C65 C50 1_555 1_555
H82 C65 1_555 1_555
H83 C65 1_555 1_555
H84 C65 1_555 1_555
C66 C50 1_555 1_555
H85 C66 1_555 1_555
H86 C66 1_555 1_555
H87 C66 1_555 1_555
C67 B3 1_555 1_555
C68 C91 1_555 1_555
B3 O16 1_555 1_555
O16 N9 1_555 1_555
N9 C69 1_555 1_555
C69 H88 1_555 1_555
C70 C69 1_555 1_555
C71 C70 1_555 1_555
C72 C71 1_555 1_555
C73 C72 1_555 1_555
H89 C73 1_555 1_555
C74 C73 1_555 1_555
C75 C70 1_555 1_555
H90 C75 1_555 1_555
C76 C72 1_555 1_555
H91 C76 1_555 1_555
N10 C76 1_555 1_555
O17 N10 1_555 1_555
B4 O17 1_555 1_555
O18 B3 1_555 1_555
N11 Zn5 1_555 1_555
C77 N11 1_555 1_555
H92 C77 1_555 1_555
C78 C77 1_555 1_555
C79 C78 1_555 1_555
C80 C79 1_555 1_555
C81 C80 1_555 1_555
H93 C81 1_555 1_555
C82 C81 1_555 1_555
C83 C78 1_555 1_555
H94 C83 1_555 1_555
C84 C80 1_555 1_555
H95 C84 1_555 1_555
N12 Zn6 1_555 1_555
O19 B4 1_555 1_555
C85 B4 1_555 1_555
C86 C85 1_555 1_555
H96 C86 1_555 1_555
C87 C86 1_555 1_555
H97 C87 1_555 1_555
C88 C87 1_555 1_555
C89 C88 1_555 1_555
H98 C89 1_555 1_555
C90 C85 1_555 1_555
H99 C90 1_555 1_555
C91 O20 1_555 1_555
O20 Zn16 1_555 1_555
O21 C91 1_555 1_555
O22 Zn5 1_555 1_555
C92 C74 1_555 1_555
O23 Zn5 1_555 1_555
C97 C88 1_555 1_555
O24 Zn7 1_555 1_555
O25 Zn9 1_555 1_555
O26 B3 1_555 1_555
C98 C68 1_555 1_555
H109 C98 1_555 1_555
C99 C67 1_555 1_555
H110 C99 1_555 1_555
C100 C67 1_555 1_555
H111 C100 1_555 1_555
C101 C68 1_555 1_555
H112 C101 1_555 1_555
N13 Zn5 1_555 1_555
C102 N13 1_555 1_555
H113 C102 1_555 1_555
C103 C102 1_555 1_555
C104 C103 1_555 1_555
C105 C104 1_555 1_555
C106 C105 1_555 1_555
H114 C106 1_555 1_555
C107 C106 1_555 1_555
C108 C103 1_555 1_555
H115 C108 1_555 1_555
C109 C105 1_555 1_555
H116 C109 1_555 1_555
N14 Zn6 1_555 1_555
O27 B4 1_555 1_555
O28 Zn5 1_555 1_555
C110 C107 1_555 1_555
C111 C110 1_555 1_555
H117 C111 1_555 1_555
H118 C111 1_555 1_555
H119 C111 1_555 1_555
C112 C110 1_555 1_555
H120 C112 1_555 1_555
H121 C112 1_555 1_555
H122 C112 1_555 1_555
C113 C110 1_555 1_555
H123 C113 1_555 1_555
H124 C113 1_555 1_555
H125 C113 1_555 1_555
H141 C145 1_555 1_555
C146 C145 1_555 1_555
C147 C146 1_555 1_555
H142 C147 1_555 1_555
H143 C148 1_555 1_555
C152 C146 1_555 1_555
O40 Zn7 1_555 1_555
O41 Zn8 1_555 1_555
N21 C164 1_555 1_555
C164 H171 1_555 1_555
H172 C164 1_555 1_555
H173 C164 1_555 1_555
C165 N21 1_555 1_555
H174 C165 1_555 1_555
H175 C165 1_555 1_555
H176 C165 1_555 1_555
C166 N21 1_555 1_555
H177 C166 1_555 1_555
O42 Zn8 1_555 1_555
C167 C92 1_555 1_555
H178 C167 1_555 1_555
H179 C167 1_555 1_555
H180 C167 1_555 1_555
C168 C92 1_555 1_555
H181 C168 1_555 1_555
H182 C168 1_555 1_555
H183 C168 1_555 1_555
C169 C92 1_555 1_555
H184 C169 1_555 1_555
H185 C169 1_555 1_555
H186 C169 1_555 1_555
Zn11 O9 1_555 1_555
Zn12 O21 1_555 1_555
Zn15 O10 1_555 1_555
O43 Zn7 1_555 1_555
O44 Zn10 1_555 1_555
O45 Zn10 1_555 1_555
O46 Zn8 1_555 1_555
O47 Zn9 1_555 1_555
O48 Zn10 1_555 1_555
Zn2 O11 1_555 1_555
Zn2 O12 1_555 1_555
Zn2 O13 1_555 1_555
Zn6 O22 1_555 1_555
Zn6 O23 1_555 1_555
Zn6 O28 1_555 1_555
C21 C22 1_555 1_555
C25 O11 1_555 1_555
C28 C29 1_555 1_555
O5 N5 1_555 1_555
C33 O12 1_555 1_555
C36 C37 1_555 1_555
C38 N6 1_555 1_555
N6 O6 1_555 1_555
O7 N7 1_555 1_555
C41 O13 1_555 1_555
C44 C45 1_555 1_555
C46 N8 1_555 1_555
N8 O8 1_555 1_555
C56 O15 1_555 1_555
C57 C58 1_555 1_555
C59 C60 1_555 1_555
C71 O22 1_555 1_555
C74 C75 1_555 1_555
O18 N11 1_555 1_555
C79 O23 1_555 1_555
C82 C83 1_555 1_555
C84 N12 1_555 1_555
N12 O19 1_555 1_555
C89 C90 1_555 1_555
C97 O24 1_555 1_555
C97 O25 1_555 1_555
O26 N13 1_555 1_555
C98 C99 1_555 1_555
C100 C101 1_555 1_555
C104 O28 1_555 1_555
C107 C108 1_555 1_555
C109 N14 1_555 1_555
N14 O27 1_555 1_555
C147 C148 1_555 1_555
C152 O40 1_555 1_555
C152 O41 1_555 1_555
C166 O42 1_555 1_555
O2 H189 1_555 1_555
O2 H190 1_555 1_555
Zn3 N15 1_555 1_555
Zn4 N16 1_555 1_555
C94 C93 1_555 1_555
H100 C94 1_555 1_555
H101 C94 1_555 1_555
H102 C94 1_555 1_555
C95 C93 1_555 1_555
H103 C95 1_555 1_555
H104 C95 1_555 1_555
H105 C95 1_555 1_555
C96 C93 1_555 1_555
H106 C96 1_555 1_555
H107 C96 1_555 1_555
H108 C96 1_555 1_555
C114 C115 1_555 1_555
C115 H126 1_555 1_555
C116 C115 1_555 1_555
H127 C116 1_555 1_555
C117 C116 1_555 1_555
C118 C117 1_555 1_555
H128 C118 1_555 1_555
C119 C114 1_555 1_555
H129 C119 1_555 1_555
B5 C114 1_555 1_555
O29 B5 1_555 1_555
N15 O29 1_555 1_555
C120 N15 1_555 1_555
H130 C120 1_555 1_555
C121 C120 1_555 1_555
C122 C121 1_555 1_555
C123 C122 1_555 1_555
C124 C123 1_555 1_555
H131 C124 1_555 1_555
C125 C124 1_555 1_555
C126 C121 1_555 1_555
H132 C126 1_555 1_555
C127 C123 1_555 1_555
H133 C127 1_555 1_555
N16 C127 1_555 1_555
O30 N16 1_555 1_555
B6 O30 1_555 1_555
O31 B5 1_555 1_555
N17 Zn3 1_555 1_555
C128 N17 1_555 1_555
H134 C128 1_555 1_555
C129 C128 1_555 1_555
C130 C129 1_555 1_555
C131 C130 1_555 1_555
C132 C131 1_555 1_555
H135 C132 1_555 1_555
C133 C132 1_555 1_555
C134 C129 1_555 1_555
H136 C134 1_555 1_555
C135 C131 1_555 1_555
H137 C135 1_555 1_555
N18 Zn4 1_555 1_555
O32 B6 1_555 1_555
O33 B5 1_555 1_555
N19 Zn3 1_555 1_555
C136 N19 1_555 1_555
H138 C136 1_555 1_555
C137 C136 1_555 1_555
C138 C137 1_555 1_555
C139 C138 1_555 1_555
C140 C139 1_555 1_555
C141 C137 1_555 1_555
C142 C139 1_555 1_555
H139 C142 1_555 1_555
N20 Zn4 1_555 1_555
O34 B6 1_555 1_555
C143 B6 1_555 1_555
C144 C143 1_555 1_555
H140 C144 1_555 1_555
C149 C117 1_555 1_555
O35 C149 1_555 1_555
O36 C149 1_555 1_555
O37 Zn3 1_555 1_555
C150 C125 1_555 1_555
O38 Zn3 1_555 1_555
C151 C133 1_555 1_555
O39 Zn3 1_555 1_555
C153 C140 1_555 1_555
C154 C150 1_555 1_555
H144 C154 1_555 1_555
H145 C154 1_555 1_555
H146 C154 1_555 1_555
C155 C150 1_555 1_555
H147 C155 1_555 1_555
H148 C155 1_555 1_555
H149 C155 1_555 1_555
C156 C150 1_555 1_555
H150 C156 1_555 1_555
H151 C156 1_555 1_555
H152 C156 1_555 1_555
C157 C151 1_555 1_555
H153 C157 1_555 1_555
H154 C157 1_555 1_555
H155 C157 1_555 1_555
C158 C151 1_555 1_555
H157 C158 1_555 1_555
H158 C158 1_555 1_555
C159 C151 1_555 1_555
H159 C159 1_555 1_555
H160 C159 1_555 1_555
H161 C159 1_555 1_555
C160 C153 1_555 1_555
C161 C160 1_555 1_555
H162 C161 1_555 1_555
H163 C161 1_555 1_555
H164 C161 1_555 1_555
C162 C160 1_555 1_555
H165 C162 1_555 1_555
H166 C162 1_555 1_555
H167 C162 1_555 1_555
C163 C160 1_555 1_555
H170 C163 1_555 1_555
Zn13 O35 1_555 1_555
Zn15 O36 1_555 1_555
Zn4 O37 1_555 1_555
Zn4 O38 1_555 1_555
Zn4 O39 1_555 1_555
C118 C119 1_555 1_555
C122 O37 1_555 1_555
C125 C126 1_555 1_555
O31 N17 1_555 1_555
C130 O38 1_555 1_555
C133 C134 1_555 1_555
C135 N18 1_555 1_555
N18 O32 1_555 1_555
O33 N19 1_555 1_555
C138 O39 1_555 1_555
C141 C153 1_555 1_555
C142 N20 1_555 1_555
N20 O34 1_555 1_555
C140 H187 1_555 1_555
C141 H188 1_555 1_555
C17_2 C18_2 1_555 1_555
C19_2 C18_2 1_555 1_555
H42_2 C19_2 1_555 1_555
C20_2 C19_2 1_555 1_555
C21_2 C20_2 1_555 1_555
H43_2 C21_2 1_555 1_555
C22_2 C17_2 1_555 1_555
H44_2 C22_2 1_555 1_555
H49_2 C31_2 1_555 1_555
C32_2 C31_2 1_555 1_555
C37_2 C32_2 1_555 1_555
H51_2 C37_2 1_555 1_555
C49_2 C20_2 1_555 1_555
O43 C49_2 1_555 1_555
O44 C49_2 1_555 1_555
C51_2 C36_2 1_555 1_555
C52_2 C51_2 1_555 1_555
H57_2 C52_2 1_555 1_555
H58_2 C52_2 1_555 1_555
H59_2 C52_2 1_555 1_555
C53_2 C51_2 1_555 1_555
H60_2 C53_2 1_555 1_555
H61_2 C53_2 1_555 1_555
H62_2 C53_2 1_555 1_555
C21_2 C22_2 1_555 1_555
C36_2 C37_2 1_555 1_555
Zn6_2 N10_2 1_555 1_555
Zn11 O1_2 1_555 1_555
Zn8_2 O1_2 1_555 1_555
Zn13 O1_2 1_555 1_555
Zn15 O1_2 1_555 1_555
O2_2 Zn8_2 1_555 1_555
C48_2 C56_2 1_555 1_555
C56_2 O14_2 1_555 1_555
O14_2 Zn8_2 1_555 1_555
O15_2 Zn13 1_555 1_555
C58_2 C48_2 1_555 1_555
H67_2 C58_2 1_555 1_555
C59_2 C48_2 1_555 1_555
H68_2 C59_2 1_555 1_555
H69_2 C60_2 1_555 1_555
C69_2 H88_2 1_555 1_555
C70_2 C69_2 1_555 1_555
C71_2 C70_2 1_555 1_555
C72_2 C71_2 1_555 1_555
C73_2 C72_2 1_555 1_555
H89_2 C73_2 1_555 1_555
C74_2 C73_2 1_555 1_555
C75_2 C70_2 1_555 1_555
H90_2 C75_2 1_555 1_555
C76_2 C72_2 1_555 1_555
H91_2 C76_2 1_555 1_555
N10_2 C76_2 1_555 1_555
O17_2 N10_2 1_555 1_555
B4_2 O17_2 1_555 1_555
N12_2 Zn6_2 1_555 1_555
O19_2 B4_2 1_555 1_555
C85_2 B4_2 1_555 1_555
C86_2 C85_2 1_555 1_555
H96_2 C86_2 1_555 1_555
C87_2 C86_2 1_555 1_555
H97_2 C87_2 1_555 1_555
C88_2 C87_2 1_555 1_555
C89_2 C88_2 1_555 1_555
H98_2 C89_2 1_555 1_555
C90_2 C85_2 1_555 1_555
H99_2 C90_2 1_555 1_555
C92_2 C74_2 1_555 1_555
C97_2 C88_2 1_555 1_555
O24_2 Zn11 1_555 1_555
O25_2 Zn13 1_555 1_555
N14_2 Zn6_2 1_555 1_555
O27_2 B4_2 1_555 1_555
H140_2 C144_2 1_555 1_555
C145_2 C144_2 1_555 1_555
H141_2 C145_2 1_555 1_555
C146_2 C145_2 1_555 1_555
C147_2 C146_2 1_555 1_555
H142_2 C147_2 1_555 1_555
C152_2 C146_2 1_555 1_555
O40_2 Zn11 1_555 1_555
O41_2 Zn8_2 1_555 1_555
H144_2 C154_2 1_555 1_555
H146_2 C154_2 1_555 1_555
H147_2 C155_2 1_555 1_555
H148_2 C155_2 1_555 1_555
H149_2 C155_2 1_555 1_555
N21_2 C164_2 1_555 1_555
C164_2 H171_2 1_555 1_555
H172_2 C164_2 1_555 1_555
H173_2 C164_2 1_555 1_555
C165_2 N21_2 1_555 1_555
H174_2 C165_2 1_555 1_555
H175_2 C165_2 1_555 1_555
H176_2 C165_2 1_555 1_555
C166_2 N21_2 1_555 1_555
H177_2 C166_2 1_555 1_555
O42_2 Zn8_2 1_555 1_555
C167_2 C92_2 1_555 1_555
H178_2 C167_2 1_555 1_555
H179_2 C167_2 1_555 1_555
H180_2 C167_2 1_555 1_555
C168_2 C92_2 1_555 1_555
H181_2 C168_2 1_555 1_555
H182_2 C168_2 1_555 1_555
H183_2 C168_2 1_555 1_555
C169_2 C92_2 1_555 1_555
H184_2 C169_2 1_555 1_555
H185_2 C169_2 1_555 1_555
H186_2 C169_2 1_555 1_555
O45_2 Zn15 1_555 1_555
O46_2 Zn8_2 1_555 1_555
Zn6_2 O22_2 1_555 1_555
C56_2 O15_2 1_555 1_555
C59_2 C60_2 1_555 1_555
C71_2 O22_2 1_555 1_555
C74_2 C75_2 1_555 1_555
N12_2 O19_2 1_555 1_555
C89_2 C90_2 1_555 1_555
C97_2 O24_2 1_555 1_555
C97_2 O25_2 1_555 1_555
N14_2 O27_2 1_555 1_555
C152_2 O40_2 1_555 1_555
C152_2 O41_2 1_555 1_555
C166_2 O42_2 1_555 1_555
O2_2 H189_2 1_555 1_555
O2_2 H190_2 1_555 1_555
Zn1_2 N4_2 1_555 1_555
Zn2_2 N3_2 1_555 1_555
Zn3_2 N15_2 1_555 1_555
Zn4_2 N16_2 1_555 1_555
Zn5_2 N9_2 1_555 1_555
O3_2 B1_2 1_555 1_555
N3_2 O3_2 1_555 1_555
C23_2 N3_2 1_555 1_555
H45_2 C23_2 1_555 1_555
C24_2 C23_2 1_555 1_555
C25_2 C24_2 1_555 1_555
C26_2 C25_2 1_555 1_555
C27_2 C26_2 1_555 1_555
H46_2 C27_2 1_555 1_555
C28_2 C27_2 1_555 1_555
C29_2 C24_2 1_555 1_555
H47_2 C29_2 1_555 1_555
C30_2 C26_2 1_555 1_555
H48_2 C30_2 1_555 1_555
N4_2 C30_2 1_555 1_555
O4_2 N4_2 1_555 1_555
B2_2 O4_2 1_555 1_555
N5_2 Zn2_2 1_555 1_555
C34_2 C33_2 1_555 1_555
C35_2 C34_2 1_555 1_555
H50_2 C35_2 1_555 1_555
C38_2 C34_2 1_555 1_555
H52_2 C38_2 1_555 1_555
N6_2 Zn1_2 1_555 1_555
O6_2 B2_2 1_555 1_555
O7_2 B1_2 1_555 1_555
N7_2 Zn2_2 1_555 1_555
C39_2 N7_2 1_555 1_555
H53_2 C39_2 1_555 1_555
C40_2 C39_2 1_555 1_555
C41_2 C40_2 1_555 1_555
C42_2 C41_2 1_555 1_555
C43_2 C42_2 1_555 1_555
H54_2 C43_2 1_555 1_555
C44_2 C43_2 1_555 1_555
C45_2 C40_2 1_555 1_555
H55_2 C45_2 1_555 1_555
C46_2 C42_2 1_555 1_555
H56_2 C46_2 1_555 1_555
N8_2 Zn1_2 1_555 1_555
O8_2 B2_2 1_555 1_555
C47_2 B2_2 1_555 1_555
O11_2 Zn1_2 1_555 1_555
C50_2 C28_2 1_555 1_555
O12_2 Zn1_2 1_555 1_555
O13_2 Zn1_2 1_555 1_555
C55_2 C44_2 1_555 1_555
C57_2 C47_2 1_555 1_555
H66_2 C57_2 1_555 1_555
C61_2 C55_2 1_555 1_555
H70_2 C61_2 1_555 1_555
H71_2 C61_2 1_555 1_555
H72_2 C61_2 1_555 1_555
C62_2 C55_2 1_555 1_555
H73_2 C62_2 1_555 1_555
H74_2 C62_2 1_555 1_555
H75_2 C62_2 1_555 1_555
C63_2 C55_2 1_555 1_555
H76_2 C63_2 1_555 1_555
H77_2 C63_2 1_555 1_555
H78_2 C63_2 1_555 1_555
C64_2 C50_2 1_555 1_555
H79_2 C64_2 1_555 1_555
H80_2 C64_2 1_555 1_555
H81_2 C64_2 1_555 1_555
C65_2 C50_2 1_555 1_555
H82_2 C65_2 1_555 1_555
H83_2 C65_2 1_555 1_555
H84_2 C65_2 1_555 1_555
C66_2 C50_2 1_555 1_555
H85_2 C66_2 1_555 1_555
H86_2 C66_2 1_555 1_555
H87_2 C66_2 1_555 1_555
C67_2 B3_2 1_555 1_555
C68_2 C91_2 1_555 1_555
B3_2 O16_2 1_555 1_555
O16_2 N9_2 1_555 1_555
O18_2 B3_2 1_555 1_555
N11_2 Zn5_2 1_555 1_555
C77_2 N11_2 1_555 1_555
H92_2 C77_2 1_555 1_555
C78_2 C77_2 1_555 1_555
C79_2 C78_2 1_555 1_555
C80_2 C79_2 1_555 1_555
C81_2 C80_2 1_555 1_555
H93_2 C81_2 1_555 1_555
C82_2 C81_2 1_555 1_555
C83_2 C78_2 1_555 1_555
H94_2 C83_2 1_555 1_555
C84_2 C80_2 1_555 1_555
H95_2 C84_2 1_555 1_555
C91_2 O20_2 1_555 1_555
O20_2 Zn16_2 1_555 1_555
O21_2 C91_2 1_555 1_555
O23_2 Zn5_2 1_555 1_555
C93_2 C82_2 1_555 1_555
C94_2 C93_2 1_555 1_555
H100_2 C94_2 1_555 1_555
H101_2 C94_2 1_555 1_555
H102_2 C94_2 1_555 1_555
C95_2 C93_2 1_555 1_555
H103_2 C95_2 1_555 1_555
H104_2 C95_2 1_555 1_555
H105_2 C95_2 1_555 1_555
C96_2 C93_2 1_555 1_555
H106_2 C96_2 1_555 1_555
H107_2 C96_2 1_555 1_555
H108_2 C96_2 1_555 1_555
O26_2 B3_2 1_555 1_555
C98_2 C68_2 1_555 1_555
H109_2 C98_2 1_555 1_555
C99_2 C67_2 1_555 1_555
H110_2 C99_2 1_555 1_555
C100_2 C67_2 1_555 1_555
H111_2 C100_2 1_555 1_555
C101_2 C68_2 1_555 1_555
H112_2 C101_2 1_555 1_555
N13_2 Zn5_2 1_555 1_555
C102_2 N13_2 1_555 1_555
H113_2 C102_2 1_555 1_555
C103_2 C102_2 1_555 1_555
C104_2 C103_2 1_555 1_555
C105_2 C104_2 1_555 1_555
C106_2 C105_2 1_555 1_555
H114_2 C106_2 1_555 1_555
C107_2 C106_2 1_555 1_555
C108_2 C103_2 1_555 1_555
H115_2 C108_2 1_555 1_555
C109_2 C105_2 1_555 1_555
H116_2 C109_2 1_555 1_555
O28_2 Zn5_2 1_555 1_555
C110_2 C107_2 1_555 1_555
C111_2 C110_2 1_555 1_555
H117_2 C111_2 1_555 1_555
H118_2 C111_2 1_555 1_555
H119_2 C111_2 1_555 1_555
C112_2 C110_2 1_555 1_555
H120_2 C112_2 1_555 1_555
H121_2 C112_2 1_555 1_555
H122_2 C112_2 1_555 1_555
C113_2 C110_2 1_555 1_555
H123_2 C113_2 1_555 1_555
H124_2 C113_2 1_555 1_555
H125_2 C113_2 1_555 1_555
C114_2 C115_2 1_555 1_555
C115_2 H126_2 1_555 1_555
C116_2 C115_2 1_555 1_555
H127_2 C116_2 1_555 1_555
C117_2 C116_2 1_555 1_555
C118_2 C117_2 1_555 1_555
H128_2 C118_2 1_555 1_555
C119_2 C114_2 1_555 1_555
H129_2 C119_2 1_555 1_555
B5_2 C114_2 1_555 1_555
O29_2 B5_2 1_555 1_555
N15_2 O29_2 1_555 1_555
C120_2 N15_2 1_555 1_555
H130_2 C120_2 1_555 1_555
C121_2 C120_2 1_555 1_555
C122_2 C121_2 1_555 1_555
C123_2 C122_2 1_555 1_555
C124_2 C123_2 1_555 1_555
H131_2 C124_2 1_555 1_555
C125_2 C124_2 1_555 1_555
C126_2 C121_2 1_555 1_555
H132_2 C126_2 1_555 1_555
C127_2 C123_2 1_555 1_555
H133_2 C127_2 1_555 1_555
N16_2 C127_2 1_555 1_555
O30_2 N16_2 1_555 1_555
B6_2 O30_2 1_555 1_555
O31_2 B5_2 1_555 1_555
N17_2 Zn3_2 1_555 1_555
C128_2 N17_2 1_555 1_555
H134_2 C128_2 1_555 1_555
C129_2 C128_2 1_555 1_555
C130_2 C129_2 1_555 1_555
C131_2 C130_2 1_555 1_555
C132_2 C131_2 1_555 1_555
H135_2 C132_2 1_555 1_555
C133_2 C132_2 1_555 1_555
C134_2 C129_2 1_555 1_555
H136_2 C134_2 1_555 1_555
C135_2 C131_2 1_555 1_555
H137_2 C135_2 1_555 1_555
N18_2 Zn4_2 1_555 1_555
O32_2 B6_2 1_555 1_555
O33_2 B5_2 1_555 1_555
N19_2 Zn3_2 1_555 1_555
C136_2 N19_2 1_555 1_555
H138_2 C136_2 1_555 1_555
C137_2 C136_2 1_555 1_555
C138_2 C137_2 1_555 1_555
C139_2 C138_2 1_555 1_555
C140_2 C139_2 1_555 1_555
C141_2 C137_2 1_555 1_555
C142_2 C139_2 1_555 1_555
H139_2 C142_2 1_555 1_555
N20_2 Zn4_2 1_555 1_555
O34_2 B6_2 1_555 1_555
C143_2 B6_2 1_555 1_555
C148_2 C143_2 1_555 1_555
H143_2 C148_2 1_555 1_555
C149_2 C117_2 1_555 1_555
O47 C149_2 1_555 1_555
O48 C149_2 1_555 1_555
O37_2 Zn3_2 1_555 1_555
C150_2 C125_2 1_555 1_555
O38_2 Zn3_2 1_555 1_555
C151_2 C133_2 1_555 1_555
O39_2 Zn3_2 1_555 1_555
C153_2 C140_2 1_555 1_555
C156_2 C150_2 1_555 1_555
H150_2 C156_2 1_555 1_555
H151_2 C156_2 1_555 1_555
H152_2 C156_2 1_555 1_555
C157_2 C151_2 1_555 1_555
H153_2 C157_2 1_555 1_555
H154_2 C157_2 1_555 1_555
H155_2 C157_2 1_555 1_555
C158_2 C151_2 1_555 1_555
H156_2 C158_2 1_555 1_555
H157_2 C158_2 1_555 1_555
H158_2 C158_2 1_555 1_555
C159_2 C151_2 1_555 1_555
H159_2 C159_2 1_555 1_555
H160_2 C159_2 1_555 1_555
H161_2 C159_2 1_555 1_555
C160_2 C153_2 1_555 1_555
C161_2 C160_2 1_555 1_555
H162_2 C161_2 1_555 1_555
H163_2 C161_2 1_555 1_555
H164_2 C161_2 1_555 1_555
C162_2 C160_2 1_555 1_555
H165_2 C162_2 1_555 1_555
H166_2 C162_2 1_555 1_555
H167_2 C162_2 1_555 1_555
C163_2 C160_2 1_555 1_555
H168_2 C163_2 1_555 1_555
H169_2 C163_2 1_555 1_555
H170_2 C163_2 1_555 1_555
Zn12_2 O21_2 1_555 1_555
Zn2_2 O11_2 1_555 1_555
Zn2_2 O12_2 1_555 1_555
Zn2_2 O13_2 1_555 1_555
Zn4_2 O37_2 1_555 1_555
Zn4_2 O38_2 1_555 1_555
Zn4_2 O39_2 1_555 1_555
C25_2 O11_2 1_555 1_555
C28_2 C29_2 1_555 1_555
C33_2 O12_2 1_555 1_555
C38_2 N6_2 1_555 1_555
N6_2 O6_2 1_555 1_555
O7_2 N7_2 1_555 1_555
C41_2 O13_2 1_555 1_555
C44_2 C45_2 1_555 1_555
C46_2 N8_2 1_555 1_555
N8_2 O8_2 1_555 1_555
O18_2 N11_2 1_555 1_555
C79_2 O23_2 1_555 1_555
C82_2 C83_2 1_555 1_555
O26_2 N13_2 1_555 1_555
C98_2 C99_2 1_555 1_555
C100_2 C101_2 1_555 1_555
C104_2 O28_2 1_555 1_555
C107_2 C108_2 1_555 1_555
C118_2 C119_2 1_555 1_555
C122_2 O37_2 1_555 1_555
C125_2 C126_2 1_555 1_555
O31_2 N17_2 1_555 1_555
C130_2 O38_2 1_555 1_555
C133_2 C134_2 1_555 1_555
C135_2 N18_2 1_555 1_555
N18_2 O32_2 1_555 1_555
O33_2 N19_2 1_555 1_555
C138_2 O39_2 1_555 1_555
C141_2 C153_2 1_555 1_555
C142_2 N20_2 1_555 1_555
N20_2 O34_2 1_555 1_555
C140_2 H187_2 1_555 1_555
C141_2 H188_2 1_555 1_555
C67_3 B3_3 1_555 1_555
C68_3 C91_3 1_555 1_555
B3_3 O16_3 1_555 1_555
O16_3 N9_3 1_555 1_555
N9_3 C69_3 1_555 1_555
C69_3 H88_3 1_555 1_555
H90_3 C75_3 1_555 1_555
O18_3 B3_3 1_555 1_555
C91_3 O45 1_555 1_555
O46 C91_3 1_555 1_555
O26_3 B3_3 1_555 1_555
C98_3 C68_3 1_555 1_555
H109_3 C98_3 1_555 1_555
C99_3 C67_3 1_555 1_555
H110_3 C99_3 1_555 1_555
C100_3 C67_3 1_555 1_555
H111_3 C100_3 1_555 1_555
C101_3 C68_3 1_555 1_555
H112_3 C101_3 1_555 1_555
C167_3 C92_3 1_555 1_555
H178_3 C167_3 1_555 1_555
H179_3 C167_3 1_555 1_555
H180_3 C167_3 1_555 1_555
C169_3 C92_3 1_555 1_555
H184_3 C169_3 1_555 1_555
H185_3 C169_3 1_555 1_555
H186_3 C169_3 1_555 1_555
C98_3 C99_3 1_555 1_555
C100_3 C101_3 1_555 1_555
Zn1_3 N4_3 1_555 1_555
Zn2_3 N3_3 1_555 1_555
Zn6_3 N10_3 1_555 1_555
Zn7_2 O1_3 1_555 1_555
Zn12 O1_3 1_555 1_555
Zn9_2 O1_3 1_555 1_555
Zn16 O1_3 1_555 1_555
O2_3 Zn12 1_555 1_555
C17_3 C18_3 1_555 1_555
C18_3 H41_3 1_555 1_555
C19_3 C18_3 1_555 1_555
H42_3 C19_3 1_555 1_555
C20_3 C19_3 1_555 1_555
C21_3 C20_3 1_555 1_555
H43_3 C21_3 1_555 1_555
C22_3 C17_3 1_555 1_555
H44_3 C22_3 1_555 1_555
B1_3 C17_3 1_555 1_555
O3_3 B1_3 1_555 1_555
N3_3 O3_3 1_555 1_555
C23_3 N3_3 1_555 1_555
H45_3 C23_3 1_555 1_555
C24_3 C23_3 1_555 1_555
C25_3 C24_3 1_555 1_555
C26_3 C25_3 1_555 1_555
C27_3 C26_3 1_555 1_555
H46_3 C27_3 1_555 1_555
C28_3 C27_3 1_555 1_555
C29_3 C24_3 1_555 1_555
H47_3 C29_3 1_555 1_555
C30_3 C26_3 1_555 1_555
H48_3 C30_3 1_555 1_555
N4_3 C30_3 1_555 1_555
O4_3 N4_3 1_555 1_555
B2_3 O4_3 1_555 1_555
O5_3 B1_3 1_555 1_555
N5_3 Zn2_3 1_555 1_555
C31_3 N5_3 1_555 1_555
H49_3 C31_3 1_555 1_555
C32_3 C31_3 1_555 1_555
C33_3 C32_3 1_555 1_555
C34_3 C33_3 1_555 1_555
C35_3 C34_3 1_555 1_555
H50_3 C35_3 1_555 1_555
C36_3 C35_3 1_555 1_555
C37_3 C32_3 1_555 1_555
H51_3 C37_3 1_555 1_555
C38_3 C34_3 1_555 1_555
H52_3 C38_3 1_555 1_555
N6_3 Zn1_3 1_555 1_555
O6_3 B2_3 1_555 1_555
O7_3 B1_3 1_555 1_555
N7_3 Zn2_3 1_555 1_555
C39_3 N7_3 1_555 1_555
H53_3 C39_3 1_555 1_555
C40_3 C39_3 1_555 1_555
C41_3 C40_3 1_555 1_555
C42_3 C41_3 1_555 1_555
C43_3 C42_3 1_555 1_555
H54_3 C43_3 1_555 1_555
C44_3 C43_3 1_555 1_555
C45_3 C40_3 1_555 1_555
H55_3 C45_3 1_555 1_555
C46_3 C42_3 1_555 1_555
H56_3 C46_3 1_555 1_555
N8_3 Zn1_3 1_555 1_555
O8_3 B2_3 1_555 1_555
C47_3 B2_3 1_555 1_555
C48_3 C56_3 1_555 1_555
C49_3 C20_3 1_555 1_555
O9_2 C49_3 1_555 1_555
O10_2 C49_3 1_555 1_555
O11_3 Zn1_3 1_555 1_555
C50_3 C28_3 1_555 1_555
O12_3 Zn1_3 1_555 1_555
C51_3 C36_3 1_555 1_555
C52_3 C51_3 1_555 1_555
H57_3 C52_3 1_555 1_555
H58_3 C52_3 1_555 1_555
H59_3 C52_3 1_555 1_555
C53_3 C51_3 1_555 1_555
H60_3 C53_3 1_555 1_555
H61_3 C53_3 1_555 1_555
H62_3 C53_3 1_555 1_555
C54_2 C51_3 1_555 1_555
H63_2 C54_2 1_555 1_555
H64_2 C54_2 1_555 1_555
H65_2 C54_2 1_555 1_555
O13_3 Zn1_3 1_555 1_555
C55_3 C44_3 1_555 1_555
C56_3 O14_3 1_555 1_555
O14_3 Zn12 1_555 1_555
O15_3 Zn9_2 1_555 1_555
C57_3 C47_3 1_555 1_555
H66_3 C57_3 1_555 1_555
C58_3 C48_3 1_555 1_555
H67_3 C58_3 1_555 1_555
C59_3 C48_3 1_555 1_555
H68_3 C59_3 1_555 1_555
C60_3 C47_3 1_555 1_555
H69_3 C60_3 1_555 1_555
C61_3 C55_3 1_555 1_555
H70_3 C61_3 1_555 1_555
H71_3 C61_3 1_555 1_555
H72_3 C61_3 1_555 1_555
C62_3 C55_3 1_555 1_555
H73_3 C62_3 1_555 1_555
H74_3 C62_3 1_555 1_555
H75_3 C62_3 1_555 1_555
C63_3 C55_3 1_555 1_555
H76_3 C63_3 1_555 1_555
H77_3 C63_3 1_555 1_555
H78_3 C63_3 1_555 1_555
C64_3 C50_3 1_555 1_555
H79_3 C64_3 1_555 1_555
H80_3 C64_3 1_555 1_555
H81_3 C64_3 1_555 1_555
C65_3 C50_3 1_555 1_555
H82_3 C65_3 1_555 1_555
H83_3 C65_3 1_555 1_555
H84_3 C65_3 1_555 1_555
C66_3 C50_3 1_555 1_555
H85_3 C66_3 1_555 1_555
H86_3 C66_3 1_555 1_555
H87_3 C66_3 1_555 1_555
C71_3 C70_3 1_555 1_555
C72_3 C71_3 1_555 1_555
C73_3 C72_3 1_555 1_555
H89_3 C73_3 1_555 1_555
C74_3 C73_3 1_555 1_555
C76_3 C72_3 1_555 1_555
H91_3 C76_3 1_555 1_555
N10_3 C76_3 1_555 1_555
O17_3 N10_3 1_555 1_555
B4_3 O17_3 1_555 1_555
N11_3 Zn5_3 1_555 1_555
C77_3 N11_3 1_555 1_555
H92_3 C77_3 1_555 1_555
C78_3 C77_3 1_555 1_555
C79_3 C78_3 1_555 1_555
C80_3 C79_3 1_555 1_555
C81_3 C80_3 1_555 1_555
H93_3 C81_3 1_555 1_555
C82_3 C81_3 1_555 1_555
C83_3 C78_3 1_555 1_555
H94_3 C83_3 1_555 1_555
C84_3 C80_3 1_555 1_555
H95_3 C84_3 1_555 1_555
N12_3 Zn6_3 1_555 1_555
O19_3 B4_3 1_555 1_555
C85_3 B4_3 1_555 1_555
C86_3 C85_3 1_555 1_555
H96_3 C86_3 1_555 1_555
C87_3 C86_3 1_555 1_555
H97_3 C87_3 1_555 1_555
C88_3 C87_3 1_555 1_555
C89_3 C88_3 1_555 1_555
H98_3 C89_3 1_555 1_555
C90_3 C85_3 1_555 1_555
H99_3 C90_3 1_555 1_555
O22_3 Zn5_3 1_555 1_555
O23_3 Zn5_3 1_555 1_555
C97_3 C88_3 1_555 1_555
O24_3 Zn7_2 1_555 1_555
O25_3 Zn9_2 1_555 1_555
N13_3 Zn5_3 1_555 1_555
C102_3 N13_3 1_555 1_555
H113_3 C102_3 1_555 1_555
C103_3 C102_3 1_555 1_555
C104_3 C103_3 1_555 1_555
C105_3 C104_3 1_555 1_555
C106_3 C105_3 1_555 1_555
H114_3 C106_3 1_555 1_555
C107_3 C106_3 1_555 1_555
C108_3 C103_3 1_555 1_555
H115_3 C108_3 1_555 1_555
C109_3 C105_3 1_555 1_555
H116_3 C109_3 1_555 1_555
N14_3 Zn6_3 1_555 1_555
O27_3 B4_3 1_555 1_555
O28_3 Zn5_3 1_555 1_555
C110_3 C107_3 1_555 1_555
C111_3 C110_3 1_555 1_555
H117_3 C111_3 1_555 1_555
H118_3 C111_3 1_555 1_555
H119_3 C111_3 1_555 1_555
C112_3 C110_3 1_555 1_555
H120_3 C112_3 1_555 1_555
H121_3 C112_3 1_555 1_555
H122_3 C112_3 1_555 1_555
C113_3 C110_3 1_555 1_555
H123_3 C113_3 1_555 1_555
H124_3 C113_3 1_555 1_555
H125_3 C113_3 1_555 1_555
H141_3 C145_3 1_555 1_555
C146_3 C145_3 1_555 1_555
C147_3 C146_3 1_555 1_555
H142_3 C147_3 1_555 1_555
H143_3 C148_3 1_555 1_555
C152_3 C146_3 1_555 1_555
O40_3 Zn7_2 1_555 1_555
O41_3 Zn12 1_555 1_555
N21_3 C164_3 1_555 1_555
C164_3 H171_3 1_555 1_555
H172_3 C164_3 1_555 1_555
H173_3 C164_3 1_555 1_555
C165_3 N21_3 1_555 1_555
H174_3 C165_3 1_555 1_555
H175_3 C165_3 1_555 1_555
H176_3 C165_3 1_555 1_555
C166_3 N21_3 1_555 1_555
H177_3 C166_3 1_555 1_555
O42_3 Zn12 1_555 1_555
H181_3 C168_3 1_555 1_555
H182_3 C168_3 1_555 1_555
Zn11_2 O9_2 1_555 1_555
Zn16_2 O10_2 1_555 1_555
O43_2 Zn7_2 1_555 1_555
O44_2 Zn16 1_555 1_555
O47_2 Zn9_2 1_555 1_555
O48_2 Zn16 1_555 1_555
Zn2_3 O11_3 1_555 1_555
Zn2_3 O12_3 1_555 1_555
Zn2_3 O13_3 1_555 1_555
Zn6_3 O22_3 1_555 1_555
Zn6_3 O23_3 1_555 1_555
Zn6_3 O28_3 1_555 1_555
C21_3 C22_3 1_555 1_555
C25_3 O11_3 1_555 1_555
C28_3 C29_3 1_555 1_555
O5_3 N5_3 1_555 1_555
C33_3 O12_3 1_555 1_555
C36_3 C37_3 1_555 1_555
C38_3 N6_3 1_555 1_555
N6_3 O6_3 1_555 1_555
O7_3 N7_3 1_555 1_555
C41_3 O13_3 1_555 1_555
C44_3 C45_3 1_555 1_555
C46_3 N8_3 1_555 1_555
N8_3 O8_3 1_555 1_555
C56_3 O15_3 1_555 1_555
C57_3 C58_3 1_555 1_555
C59_3 C60_3 1_555 1_555
C71_3 O22_3 1_555 1_555
C79_3 O23_3 1_555 1_555
C82_3 C83_3 1_555 1_555
C84_3 N12_3 1_555 1_555
N12_3 O19_3 1_555 1_555
C89_3 C90_3 1_555 1_555
C97_3 O24_3 1_555 1_555
C97_3 O25_3 1_555 1_555
C104_3 O28_3 1_555 1_555
C107_3 C108_3 1_555 1_555
C109_3 N14_3 1_555 1_555
N14_3 O27_3 1_555 1_555
C147_3 C148_3 1_555 1_555
C152_3 O40_3 1_555 1_555
C152_3 O41_3 1_555 1_555
C166_3 O42_3 1_555 1_555
O2_3 H189_3 1_555 1_555
O2_3 H190_3 1_555 1_555
Zn3_3 N15_3 1_555 1_555
Zn4_3 N16_3 1_555 1_555
C94_3 C93_3 1_555 1_555
H100_3 C94_3 1_555 1_555
H101_3 C94_3 1_555 1_555
H102_3 C94_3 1_555 1_555
C95_3 C93_3 1_555 1_555
H103_3 C95_3 1_555 1_555
H104_3 C95_3 1_555 1_555
H105_3 C95_3 1_555 1_555
C96_3 C93_3 1_555 1_555
H106_3 C96_3 1_555 1_555
H107_3 C96_3 1_555 1_555
H108_3 C96_3 1_555 1_555
C114_3 C115_3 1_555 1_555
C115_3 H126_3 1_555 1_555
C116_3 C115_3 1_555 1_555
H127_3 C116_3 1_555 1_555
C117_3 C116_3 1_555 1_555
C118_3 C117_3 1_555 1_555
H128_3 C118_3 1_555 1_555
C119_3 C114_3 1_555 1_555
H129_3 C119_3 1_555 1_555
B5_3 C114_3 1_555 1_555
O29_3 B5_3 1_555 1_555
N15_3 O29_3 1_555 1_555
C120_3 N15_3 1_555 1_555
H130_3 C120_3 1_555 1_555
C121_3 C120_3 1_555 1_555
C122_3 C121_3 1_555 1_555
C123_3 C122_3 1_555 1_555
C124_3 C123_3 1_555 1_555
H131_3 C124_3 1_555 1_555
C125_3 C124_3 1_555 1_555
C126_3 C121_3 1_555 1_555
H132_3 C126_3 1_555 1_555
C127_3 C123_3 1_555 1_555
H133_3 C127_3 1_555 1_555
N16_3 C127_3 1_555 1_555
O30_3 N16_3 1_555 1_555
B6_3 O30_3 1_555 1_555
O31_3 B5_3 1_555 1_555
N17_3 Zn3_3 1_555 1_555
C128_3 N17_3 1_555 1_555
H134_3 C128_3 1_555 1_555
C129_3 C128_3 1_555 1_555
C130_3 C129_3 1_555 1_555
C131_3 C130_3 1_555 1_555
C132_3 C131_3 1_555 1_555
H135_3 C132_3 1_555 1_555
C133_3 C132_3 1_555 1_555
C134_3 C129_3 1_555 1_555
H136_3 C134_3 1_555 1_555
C135_3 C131_3 1_555 1_555
H137_3 C135_3 1_555 1_555
N18_3 Zn4_3 1_555 1_555
O32_3 B6_3 1_555 1_555
O33_3 B5_3 1_555 1_555
N19_3 Zn3_3 1_555 1_555
C136_3 N19_3 1_555 1_555
H138_3 C136_3 1_555 1_555
C137_3 C136_3 1_555 1_555
C138_3 C137_3 1_555 1_555
C139_3 C138_3 1_555 1_555
C140_3 C139_3 1_555 1_555
C141_3 C137_3 1_555 1_555
C142_3 C139_3 1_555 1_555
H139_3 C142_3 1_555 1_555
N20_3 Zn4_3 1_555 1_555
O34_3 B6_3 1_555 1_555
C143_3 B6_3 1_555 1_555
C144_3 C143_3 1_555 1_555
H140_3 C144_3 1_555 1_555
C149_3 C117_3 1_555 1_555
O35_2 C149_3 1_555 1_555
O36_2 C149_3 1_555 1_555
O37_3 Zn3_3 1_555 1_555
C150_3 C125_3 1_555 1_555
O38_3 Zn3_3 1_555 1_555
C151_3 C133_3 1_555 1_555
O39_3 Zn3_3 1_555 1_555
C153_3 C140_3 1_555 1_555
C154_3 C150_3 1_555 1_555
H144_3 C154_3 1_555 1_555
H145_3 C154_3 1_555 1_555
H146_3 C154_3 1_555 1_555
C155_3 C150_3 1_555 1_555
H147_3 C155_3 1_555 1_555
H148_3 C155_3 1_555 1_555
H149_3 C155_3 1_555 1_555
C156_3 C150_3 1_555 1_555
H150_3 C156_3 1_555 1_555
H151_3 C156_3 1_555 1_555
H152_3 C156_3 1_555 1_555
C157_3 C151_3 1_555 1_555
H153_3 C157_3 1_555 1_555
H154_3 C157_3 1_555 1_555
H155_3 C157_3 1_555 1_555
C158_3 C151_3 1_555 1_555
H157_3 C158_3 1_555 1_555
H158_3 C158_3 1_555 1_555
C159_3 C151_3 1_555 1_555
H159_3 C159_3 1_555 1_555
H160_3 C159_3 1_555 1_555
H161_3 C159_3 1_555 1_555
C160_3 C153_3 1_555 1_555
C161_3 C160_3 1_555 1_555
H162_3 C161_3 1_555 1_555
H163_3 C161_3 1_555 1_555
H164_3 C161_3 1_555 1_555
C162_3 C160_3 1_555 1_555
H165_3 C162_3 1_555 1_555
H166_3 C162_3 1_555 1_555
H167_3 C162_3 1_555 1_555
C163_3 C160_3 1_555 1_555
H170_3 C163_3 1_555 1_555
Zn13_2 O35_2 1_555 1_555
Zn16_2 O36_2 1_555 1_555
Zn4_3 O37_3 1_555 1_555
Zn4_3 O38_3 1_555 1_555
Zn4_3 O39_3 1_555 1_555
C118_3 C119_3 1_555 1_555
C122_3 O37_3 1_555 1_555
C125_3 C126_3 1_555 1_555
O31_3 N17_3 1_555 1_555
C130_3 O38_3 1_555 1_555
C133_3 C134_3 1_555 1_555
C135_3 N18_3 1_555 1_555
N18_3 O32_3 1_555 1_555
O33_3 N19_3 1_555 1_555
C138_3 O39_3 1_555 1_555
C141_3 C153_3 1_555 1_555
C142_3 N20_3 1_555 1_555
N20_3 O34_3 1_555 1_555
C140_3 H187_3 1_555 1_555
C141_3 H188_3 1_555 1_555
C17_4 C18_4 1_555 1_555
C19_4 C18_4 1_555 1_555
H42_4 C19_4 1_555 1_555
C20_4 C19_4 1_555 1_555
C21_4 C20_4 1_555 1_555
H43_4 C21_4 1_555 1_555
C22_4 C17_4 1_555 1_555
H44_4 C22_4 1_555 1_555
H49_4 C31_4 1_555 1_555
C32_4 C31_4 1_555 1_555
C37_4 C32_4 1_555 1_555
H51_4 C37_4 1_555 1_555
C49_4 C20_4 1_555 1_555
O43_2 C49_4 1_555 1_555
O44_2 C49_4 1_555 1_555
C51_4 C36_4 1_555 1_555
C52_4 C51_4 1_555 1_555
H57_4 C52_4 1_555 1_555
H58_4 C52_4 1_555 1_555
H59_4 C52_4 1_555 1_555
C53_4 C51_4 1_555 1_555
H60_4 C53_4 1_555 1_555
H61_4 C53_4 1_555 1_555
H62_4 C53_4 1_555 1_555
C21_4 C22_4 1_555 1_555
C36_4 C37_4 1_555 1_555
C67_4 B3_4 1_555 1_555
C68_4 C91_4 1_555 1_555
B3_4 O16_4 1_555 1_555
O16_4 N9_4 1_555 1_555
O18_4 B3_4 1_555 1_555
C91_4 O45_2 1_555 1_555
O46_2 C91_4 1_555 1_555
O26_4 B3_4 1_555 1_555
C98_4 C68_4 1_555 1_555
H109_4 C98_4 1_555 1_555
C99_4 C67_4 1_555 1_555
H110_4 C99_4 1_555 1_555
C100_4 C67_4 1_555 1_555
H111_4 C100_4 1_555 1_555
C101_4 C68_4 1_555 1_555
H112_4 C101_4 1_555 1_555
C98_4 C99_4 1_555 1_555
C100_4 C101_4 1_555 1_555
Zn1_4 N4_4 1_555 1_555
Zn2_4 N3_4 1_555 1_555
Zn3_4 N15_4 1_555 1_555
Zn4_4 N16_4 1_555 1_555
O3_4 B1_4 1_555 1_555
N3_4 O3_4 1_555 1_555
C23_4 N3_4 1_555 1_555
H45_4 C23_4 1_555 1_555
C24_4 C23_4 1_555 1_555
C25_4 C24_4 1_555 1_555
C26_4 C25_4 1_555 1_555
C27_4 C26_4 1_555 1_555
H46_4 C27_4 1_555 1_555
C28_4 C27_4 1_555 1_555
C29_4 C24_4 1_555 1_555
H47_4 C29_4 1_555 1_555
C30_4 C26_4 1_555 1_555
H48_4 C30_4 1_555 1_555
N4_4 C30_4 1_555 1_555
O4_4 N4_4 1_555 1_555
B2_4 O4_4 1_555 1_555
N5_4 Zn2_4 1_555 1_555
C34_4 C33_4 1_555 1_555
C35_4 C34_4 1_555 1_555
H50_4 C35_4 1_555 1_555
C38_4 C34_4 1_555 1_555
H52_4 C38_4 1_555 1_555
N6_4 Zn1_4 1_555 1_555
O6_4 B2_4 1_555 1_555
O7_4 B1_4 1_555 1_555
N7_4 Zn2_4 1_555 1_555
C39_4 N7_4 1_555 1_555
H53_4 C39_4 1_555 1_555
C40_4 C39_4 1_555 1_555
C41_4 C40_4 1_555 1_555
C42_4 C41_4 1_555 1_555
C43_4 C42_4 1_555 1_555
H54_4 C43_4 1_555 1_555
C44_4 C43_4 1_555 1_555
C45_4 C40_4 1_555 1_555
H55_4 C45_4 1_555 1_555
C46_4 C42_4 1_555 1_555
H56_4 C46_4 1_555 1_555
N8_4 Zn1_4 1_555 1_555
O8_4 B2_4 1_555 1_555
C47_4 B2_4 1_555 1_555
O11_4 Zn1_4 1_555 1_555
C50_4 C28_4 1_555 1_555
O12_4 Zn1_4 1_555 1_555
O13_4 Zn1_4 1_555 1_555
C55_4 C44_4 1_555 1_555
C57_4 C47_4 1_555 1_555
H66_4 C57_4 1_555 1_555
C61_4 C55_4 1_555 1_555
H70_4 C61_4 1_555 1_555
H71_4 C61_4 1_555 1_555
H72_4 C61_4 1_555 1_555
C62_4 C55_4 1_555 1_555
H73_4 C62_4 1_555 1_555
H74_4 C62_4 1_555 1_555
H75_4 C62_4 1_555 1_555
C63_4 C55_4 1_555 1_555
H76_4 C63_4 1_555 1_555
H77_4 C63_4 1_555 1_555
H78_4 C63_4 1_555 1_555
C64_4 C50_4 1_555 1_555
H79_4 C64_4 1_555 1_555
H80_4 C64_4 1_555 1_555
H81_4 C64_4 1_555 1_555
C65_4 C50_4 1_555 1_555
H82_4 C65_4 1_555 1_555
H83_4 C65_4 1_555 1_555
H84_4 C65_4 1_555 1_555
C66_4 C50_4 1_555 1_555
H85_4 C66_4 1_555 1_555
H86_4 C66_4 1_555 1_555
H87_4 C66_4 1_555 1_555
N11_4 Zn5_4 1_555 1_555
C77_4 N11_4 1_555 1_555
H92_4 C77_4 1_555 1_555
C78_4 C77_4 1_555 1_555
C79_4 C78_4 1_555 1_555
C80_4 C79_4 1_555 1_555
C81_4 C80_4 1_555 1_555
H93_4 C81_4 1_555 1_555
C82_4 C81_4 1_555 1_555
C83_4 C78_4 1_555 1_555
H94_4 C83_4 1_555 1_555
C84_4 C80_4 1_555 1_555
H95_4 C84_4 1_555 1_555
O23_4 Zn5_4 1_555 1_555
C93_4 C82_4 1_555 1_555
C94_4 C93_4 1_555 1_555
H100_4 C94_4 1_555 1_555
H101_4 C94_4 1_555 1_555
H102_4 C94_4 1_555 1_555
C95_4 C93_4 1_555 1_555
H103_4 C95_4 1_555 1_555
H104_4 C95_4 1_555 1_555
H105_4 C95_4 1_555 1_555
C96_4 C93_4 1_555 1_555
H106_4 C96_4 1_555 1_555
H107_4 C96_4 1_555 1_555
H108_4 C96_4 1_555 1_555
N13_4 Zn5_4 1_555 1_555
C102_4 N13_4 1_555 1_555
H113_4 C102_4 1_555 1_555
C103_4 C102_4 1_555 1_555
C104_4 C103_4 1_555 1_555
C105_4 C104_4 1_555 1_555
C106_4 C105_4 1_555 1_555
H114_4 C106_4 1_555 1_555
C107_4 C106_4 1_555 1_555
C108_4 C103_4 1_555 1_555
H115_4 C108_4 1_555 1_555
C109_4 C105_4 1_555 1_555
H116_4 C109_4 1_555 1_555
O28_4 Zn5_4 1_555 1_555
C110_4 C107_4 1_555 1_555
C111_4 C110_4 1_555 1_555
H117_4 C111_4 1_555 1_555
H118_4 C111_4 1_555 1_555
H119_4 C111_4 1_555 1_555
C112_4 C110_4 1_555 1_555
H120_4 C112_4 1_555 1_555
H121_4 C112_4 1_555 1_555
H122_4 C112_4 1_555 1_555
C113_4 C110_4 1_555 1_555
H123_4 C113_4 1_555 1_555
H124_4 C113_4 1_555 1_555
H125_4 C113_4 1_555 1_555
C114_4 C115_4 1_555 1_555
C115_4 H126_4 1_555 1_555
C116_4 C115_4 1_555 1_555
H127_4 C116_4 1_555 1_555
C117_4 C116_4 1_555 1_555
C118_4 C117_4 1_555 1_555
H128_4 C118_4 1_555 1_555
C119_4 C114_4 1_555 1_555
H129_4 C119_4 1_555 1_555
B5_4 C114_4 1_555 1_555
O29_4 B5_4 1_555 1_555
N15_4 O29_4 1_555 1_555
C120_4 N15_4 1_555 1_555
H130_4 C120_4 1_555 1_555
C121_4 C120_4 1_555 1_555
C122_4 C121_4 1_555 1_555
C123_4 C122_4 1_555 1_555
C124_4 C123_4 1_555 1_555
H131_4 C124_4 1_555 1_555
C125_4 C124_4 1_555 1_555
C126_4 C121_4 1_555 1_555
H132_4 C126_4 1_555 1_555
C127_4 C123_4 1_555 1_555
H133_4 C127_4 1_555 1_555
N16_4 C127_4 1_555 1_555
O30_4 N16_4 1_555 1_555
B6_4 O30_4 1_555 1_555
O31_4 B5_4 1_555 1_555
N17_4 Zn3_4 1_555 1_555
C128_4 N17_4 1_555 1_555
H134_4 C128_4 1_555 1_555
C129_4 C128_4 1_555 1_555
C130_4 C129_4 1_555 1_555
C131_4 C130_4 1_555 1_555
C132_4 C131_4 1_555 1_555
H135_4 C132_4 1_555 1_555
C133_4 C132_4 1_555 1_555
C134_4 C129_4 1_555 1_555
H136_4 C134_4 1_555 1_555
C135_4 C131_4 1_555 1_555
H137_4 C135_4 1_555 1_555
N18_4 Zn4_4 1_555 1_555
O32_4 B6_4 1_555 1_555
O33_4 B5_4 1_555 1_555
N19_4 Zn3_4 1_555 1_555
C136_4 N19_4 1_555 1_555
H138_4 C136_4 1_555 1_555
C137_4 C136_4 1_555 1_555
C138_4 C137_4 1_555 1_555
C139_4 C138_4 1_555 1_555
C140_4 C139_4 1_555 1_555
C141_4 C137_4 1_555 1_555
C142_4 C139_4 1_555 1_555
H139_4 C142_4 1_555 1_555
N20_4 Zn4_4 1_555 1_555
O34_4 B6_4 1_555 1_555
C143_4 B6_4 1_555 1_555
C148_4 C143_4 1_555 1_555
H143_4 C148_4 1_555 1_555
C149_4 C117_4 1_555 1_555
O47_2 C149_4 1_555 1_555
O48_2 C149_4 1_555 1_555
O37_4 Zn3_4 1_555 1_555
C150_4 C125_4 1_555 1_555
O38_4 Zn3_4 1_555 1_555
C151_4 C133_4 1_555 1_555
O39_4 Zn3_4 1_555 1_555
C153_4 C140_4 1_555 1_555
C156_4 C150_4 1_555 1_555
H150_4 C156_4 1_555 1_555
H151_4 C156_4 1_555 1_555
H152_4 C156_4 1_555 1_555
C157_4 C151_4 1_555 1_555
H153_4 C157_4 1_555 1_555
H154_4 C157_4 1_555 1_555
H155_4 C157_4 1_555 1_555
C158_4 C151_4 1_555 1_555
H156_4 C158_4 1_555 1_555
H157_4 C158_4 1_555 1_555
H158_4 C158_4 1_555 1_555
C159_4 C151_4 1_555 1_555
H159_4 C159_4 1_555 1_555
H160_4 C159_4 1_555 1_555
H161_4 C159_4 1_555 1_555
C160_4 C153_4 1_555 1_555
C161_4 C160_4 1_555 1_555
H162_4 C161_4 1_555 1_555
H163_4 C161_4 1_555 1_555
H164_4 C161_4 1_555 1_555
C162_4 C160_4 1_555 1_555
H165_4 C162_4 1_555 1_555
H166_4 C162_4 1_555 1_555
H167_4 C162_4 1_555 1_555
C163_4 C160_4 1_555 1_555
H168_4 C163_4 1_555 1_555
H169_4 C163_4 1_555 1_555
H170_4 C163_4 1_555 1_555
Zn2_4 O11_4 1_555 1_555
Zn2_4 O12_4 1_555 1_555
Zn2_4 O13_4 1_555 1_555
Zn4_4 O37_4 1_555 1_555
Zn4_4 O38_4 1_555 1_555
Zn4_4 O39_4 1_555 1_555
C25_4 O11_4 1_555 1_555
C28_4 C29_4 1_555 1_555
C33_4 O12_4 1_555 1_555
C38_4 N6_4 1_555 1_555
N6_4 O6_4 1_555 1_555
O7_4 N7_4 1_555 1_555
C41_4 O13_4 1_555 1_555
C44_4 C45_4 1_555 1_555
C46_4 N8_4 1_555 1_555
N8_4 O8_4 1_555 1_555
C79_4 O23_4 1_555 1_555
C82_4 C83_4 1_555 1_555
C104_4 O28_4 1_555 1_555
C107_4 C108_4 1_555 1_555
C118_4 C119_4 1_555 1_555
C122_4 O37_4 1_555 1_555
C125_4 C126_4 1_555 1_555
O31_4 N17_4 1_555 1_555
C130_4 O38_4 1_555 1_555
C133_4 C134_4 1_555 1_555
C135_4 N18_4 1_555 1_555
N18_4 O32_4 1_555 1_555
O33_4 N19_4 1_555 1_555
C138_4 O39_4 1_555 1_555
C141_4 C153_4 1_555 1_555
C142_4 N20_4 1_555 1_555
N20_4 O34_4 1_555 1_555
C140_4 H187_4 1_555 1_555
C141_4 H188_4 1_555 1_555
Zn6_4 N10_4 1_555 1_555
Zn11_2 O1_4 1_555 1_555
Zn12_2 O1_4 1_555 1_555
Zn13_2 O1_4 1_555 1_555
Zn16_2 O1_4 1_555 1_555
O2_4 Zn12_2 1_555 1_555
C48_4 C56_4 1_555 1_555
C56_4 O14_4 1_555 1_555
O14_4 Zn12_2 1_555 1_555
O15_4 Zn13_2 1_555 1_555
C58_4 C48_4 1_555 1_555
H67_4 C58_4 1_555 1_555
C59_4 C48_4 1_555 1_555
H68_4 C59_4 1_555 1_555
H69_4 C60_4 1_555 1_555
C71_4 C70_4 1_555 1_555
C72_4 C71_4 1_555 1_555
C73_4 C72_4 1_555 1_555
H89_4 C73_4 1_555 1_555
C74_4 C73_4 1_555 1_555
C76_4 C72_4 1_555 1_555
H91_4 C76_4 1_555 1_555
N10_4 C76_4 1_555 1_555
O17_4 N10_4 1_555 1_555
B4_4 O17_4 1_555 1_555
N12_4 Zn6_4 1_555 1_555
O19_4 B4_4 1_555 1_555
C85_4 B4_4 1_555 1_555
C86_4 C85_4 1_555 1_555
H96_4 C86_4 1_555 1_555
C87_4 C86_4 1_555 1_555
H97_4 C87_4 1_555 1_555
C88_4 C87_4 1_555 1_555
C89_4 C88_4 1_555 1_555
H98_4 C89_4 1_555 1_555
C90_4 C85_4 1_555 1_555
H99_4 C90_4 1_555 1_555
C97_4 C88_4 1_555 1_555
O24_4 Zn11_2 1_555 1_555
O25_4 Zn13_2 1_555 1_555
N14_4 Zn6_4 1_555 1_555
O27_4 B4_4 1_555 1_555
H140_4 C144_4 1_555 1_555
C145_4 C144_4 1_555 1_555
H141_4 C145_4 1_555 1_555
C146_4 C145_4 1_555 1_555
C147_4 C146_4 1_555 1_555
H142_4 C147_4 1_555 1_555
C152_4 C146_4 1_555 1_555
O40_4 Zn11_2 1_555 1_555
O41_4 Zn12_2 1_555 1_555
H144_4 C154_4 1_555 1_555
H146_4 C154_4 1_555 1_555
H147_4 C155_4 1_555 1_555
H148_4 C155_4 1_555 1_555
H149_4 C155_4 1_555 1_555
N21_4 C164_4 1_555 1_555
C164_4 H171_4 1_555 1_555
H172_4 C164_4 1_555 1_555
H173_4 C164_4 1_555 1_555
C165_4 N21_4 1_555 1_555
H174_4 C165_4 1_555 1_555
H175_4 C165_4 1_555 1_555
H176_4 C165_4 1_555 1_555
C166_4 N21_4 1_555 1_555
H177_4 C166_4 1_555 1_555
O42_4 Zn12_2 1_555 1_555
H181_4 C168_4 1_555 1_555
H182_4 C168_4 1_555 1_555
Zn6_4 O22_4 1_555 1_555
C56_4 O15_4 1_555 1_555
C59_4 C60_4 1_555 1_555
C71_4 O22_4 1_555 1_555
N12_4 O19_4 1_555 1_555
C89_4 C90_4 1_555 1_555
C97_4 O24_4 1_555 1_555
C97_4 O25_4 1_555 1_555
N14_4 O27_4 1_555 1_555
C152_4 O40_4 1_555 1_555
C152_4 O41_4 1_555 1_555
C166_4 O42_4 1_555 1_555
O2_4 H189_4 1_555 1_555
O2_4 H190_4 1_555 1_555
Zn3_5 N15_5 1_555 1_555
Zn4_5 N16_5 1_555 1_555
C94_5 C93_5 1_555 1_555
H100_5 C94_5 1_555 1_555
H101_5 C94_5 1_555 1_555
H102_5 C94_5 1_555 1_555
C95_5 C93_5 1_555 1_555
H103_5 C95_5 1_555 1_555
H104_5 C95_5 1_555 1_555
H105_5 C95_5 1_555 1_555
C96_5 C93_5 1_555 1_555
H106_5 C96_5 1_555 1_555
H107_5 C96_5 1_555 1_555
H108_5 C96_5 1_555 1_555
C114_5 C115_5 1_555 1_555
C115_5 H126_5 1_555 1_555
C116_5 C115_5 1_555 1_555
H127_5 C116_5 1_555 1_555
C117_5 C116_5 1_555 1_555
C118_5 C117_5 1_555 1_555
H128_5 C118_5 1_555 1_555
C119_5 C114_5 1_555 1_555
H129_5 C119_5 1_555 1_555
B5_5 C114_5 1_555 1_555
O29_5 B5_5 1_555 1_555
N15_5 O29_5 1_555 1_555
C120_5 N15_5 1_555 1_555
H130_5 C120_5 1_555 1_555
C121_5 C120_5 1_555 1_555
C122_5 C121_5 1_555 1_555
C123_5 C122_5 1_555 1_555
C124_5 C123_5 1_555 1_555
H131_5 C124_5 1_555 1_555
C125_5 C124_5 1_555 1_555
C126_5 C121_5 1_555 1_555
H132_5 C126_5 1_555 1_555
C127_5 C123_5 1_555 1_555
H133_5 C127_5 1_555 1_555
N16_5 C127_5 1_555 1_555
O30_5 N16_5 1_555 1_555
B6_5 O30_5 1_555 1_555
O31_5 B5_5 1_555 1_555
N17_5 Zn3_5 1_555 1_555
C128_5 N17_5 1_555 1_555
H134_5 C128_5 1_555 1_555
C129_5 C128_5 1_555 1_555
C130_5 C129_5 1_555 1_555
C131_5 C130_5 1_555 1_555
C132_5 C131_5 1_555 1_555
H135_5 C132_5 1_555 1_555
C133_5 C132_5 1_555 1_555
C134_5 C129_5 1_555 1_555
H136_5 C134_5 1_555 1_555
C135_5 C131_5 1_555 1_555
H137_5 C135_5 1_555 1_555
N18_5 Zn4_5 1_555 1_555
O32_5 B6_5 1_555 1_555
O33_5 B5_5 1_555 1_555
N19_5 Zn3_5 1_555 1_555
C136_5 N19_5 1_555 1_555
H138_5 C136_5 1_555 1_555
C137_5 C136_5 1_555 1_555
C138_5 C137_5 1_555 1_555
C139_5 C138_5 1_555 1_555
C140_5 C139_5 1_555 1_555
C141_5 C137_5 1_555 1_555
C142_5 C139_5 1_555 1_555
H139_5 C142_5 1_555 1_555
N20_5 Zn4_5 1_555 1_555
O34_5 B6_5 1_555 1_555
C143_5 B6_5 1_555 1_555
C144_5 C143_5 1_555 1_555
H140_5 C144_5 1_555 1_555
C149_5 C117_5 1_555 1_555
O35_3 C149_5 1_555 1_555
O36_3 C149_5 1_555 1_555
O37_5 Zn3_5 1_555 1_555
C150_5 C125_5 1_555 1_555
O38_5 Zn3_5 1_555 1_555
C151_5 C133_5 1_555 1_555
O39_5 Zn3_5 1_555 1_555
C153_5 C140_5 1_555 1_555
C154_5 C150_5 1_555 1_555
H144_5 C154_5 1_555 1_555
H145_5 C154_5 1_555 1_555
H146_5 C154_5 1_555 1_555
C155_5 C150_5 1_555 1_555
H147_5 C155_5 1_555 1_555
H148_5 C155_5 1_555 1_555
H149_5 C155_5 1_555 1_555
C156_5 C150_5 1_555 1_555
H150_5 C156_5 1_555 1_555
H151_5 C156_5 1_555 1_555
H152_5 C156_5 1_555 1_555
C157_5 C151_5 1_555 1_555
H153_5 C157_5 1_555 1_555
H154_5 C157_5 1_555 1_555
H155_5 C157_5 1_555 1_555
C158_5 C151_5 1_555 1_555
H157_5 C158_5 1_555 1_555
H158_5 C158_5 1_555 1_555
C159_5 C151_5 1_555 1_555
H159_5 C159_5 1_555 1_555
H160_5 C159_5 1_555 1_555
H161_5 C159_5 1_555 1_555
C160_5 C153_5 1_555 1_555
C161_5 C160_5 1_555 1_555
H162_5 C161_5 1_555 1_555
H163_5 C161_5 1_555 1_555
H164_5 C161_5 1_555 1_555
C162_5 C160_5 1_555 1_555
H165_5 C162_5 1_555 1_555
H166_5 C162_5 1_555 1_555
H167_5 C162_5 1_555 1_555
C163_5 C160_5 1_555 1_555
H170_5 C163_5 1_555 1_555
Zn13_3 O35_3 1_555 1_555
Zn14 O36_3 1_555 1_555
Zn4_5 O37_5 1_555 1_555
Zn4_5 O38_5 1_555 1_555
Zn4_5 O39_5 1_555 1_555
C118_5 C119_5 1_555 1_555
C122_5 O37_5 1_555 1_555
C125_5 C126_5 1_555 1_555
O31_5 N17_5 1_555 1_555
C130_5 O38_5 1_555 1_555
C133_5 C134_5 1_555 1_555
C135_5 N18_5 1_555 1_555
N18_5 O32_5 1_555 1_555
O33_5 N19_5 1_555 1_555
C138_5 O39_5 1_555 1_555
C141_5 C153_5 1_555 1_555
C142_5 N20_5 1_555 1_555
N20_5 O34_5 1_555 1_555
C140_5 H187_5 1_555 1_555
C141_5 H188_5 1_555 1_555
Zn1_5 N4_5 1_555 1_555
Zn2_5 N3_5 1_555 1_555
Zn6_5 N10_5 1_555 1_555
Zn7_3 O1_5 1_555 1_555
Zn8_3 O1_5 1_555 1_555
Zn9_3 O1_5 1_555 1_555
Zn10_2 O1_5 1_555 1_555
O2_5 Zn8_3 1_555 1_555
C17_5 C18_5 1_555 1_555
C18_5 H41_5 1_555 1_555
C19_5 C18_5 1_555 1_555
H42_5 C19_5 1_555 1_555
C20_5 C19_5 1_555 1_555
C21_5 C20_5 1_555 1_555
H43_5 C21_5 1_555 1_555
C22_5 C17_5 1_555 1_555
H44_5 C22_5 1_555 1_555
B1_5 C17_5 1_555 1_555
O3_5 B1_5 1_555 1_555
N3_5 O3_5 1_555 1_555
C23_5 N3_5 1_555 1_555
H45_5 C23_5 1_555 1_555
C24_5 C23_5 1_555 1_555
C25_5 C24_5 1_555 1_555
C26_5 C25_5 1_555 1_555
C27_5 C26_5 1_555 1_555
H46_5 C27_5 1_555 1_555
C28_5 C27_5 1_555 1_555
C29_5 C24_5 1_555 1_555
H47_5 C29_5 1_555 1_555
C30_5 C26_5 1_555 1_555
H48_5 C30_5 1_555 1_555
N4_5 C30_5 1_555 1_555
O4_5 N4_5 1_555 1_555
B2_5 O4_5 1_555 1_555
O5_5 B1_5 1_555 1_555
N5_5 Zn2_5 1_555 1_555
C31_5 N5_5 1_555 1_555
H49_5 C31_5 1_555 1_555
C32_5 C31_5 1_555 1_555
C33_5 C32_5 1_555 1_555
C34_5 C33_5 1_555 1_555
C35_5 C34_5 1_555 1_555
H50_5 C35_5 1_555 1_555
C36_5 C35_5 1_555 1_555
C37_5 C32_5 1_555 1_555
H51_5 C37_5 1_555 1_555
C38_5 C34_5 1_555 1_555
H52_5 C38_5 1_555 1_555
N6_5 Zn1_5 1_555 1_555
O6_5 B2_5 1_555 1_555
O7_5 B1_5 1_555 1_555
N7_5 Zn2_5 1_555 1_555
C39_5 N7_5 1_555 1_555
H53_5 C39_5 1_555 1_555
C40_5 C39_5 1_555 1_555
C41_5 C40_5 1_555 1_555
C42_5 C41_5 1_555 1_555
C43_5 C42_5 1_555 1_555
H54_5 C43_5 1_555 1_555
C44_5 C43_5 1_555 1_555
C45_5 C40_5 1_555 1_555
H55_5 C45_5 1_555 1_555
C46_5 C42_5 1_555 1_555
H56_5 C46_5 1_555 1_555
N8_5 Zn1_5 1_555 1_555
O8_5 B2_5 1_555 1_555
C47_5 B2_5 1_555 1_555
C48_5 C56_5 1_555 1_555
C49_5 C20_5 1_555 1_555
O9_3 C49_5 1_555 1_555
O10_3 C49_5 1_555 1_555
O11_5 Zn1_5 1_555 1_555
C50_5 C28_5 1_555 1_555
O12_5 Zn1_5 1_555 1_555
C51_5 C36_5 1_555 1_555
C52_5 C51_5 1_555 1_555
H57_5 C52_5 1_555 1_555
H58_5 C52_5 1_555 1_555
H59_5 C52_5 1_555 1_555
C53_5 C51_5 1_555 1_555
H60_5 C53_5 1_555 1_555
H61_5 C53_5 1_555 1_555
H62_5 C53_5 1_555 1_555
C54_3 C51_5 1_555 1_555
H63_3 C54_3 1_555 1_555
H64_3 C54_3 1_555 1_555
H65_3 C54_3 1_555 1_555
O13_5 Zn1_5 1_555 1_555
C55_5 C44_5 1_555 1_555
C56_5 O14_5 1_555 1_555
O14_5 Zn8_3 1_555 1_555
O15_5 Zn9_3 1_555 1_555
C57_5 C47_5 1_555 1_555
H66_5 C57_5 1_555 1_555
C58_5 C48_5 1_555 1_555
H67_5 C58_5 1_555 1_555
C59_5 C48_5 1_555 1_555
H68_5 C59_5 1_555 1_555
C60_5 C47_5 1_555 1_555
H69_5 C60_5 1_555 1_555
C61_5 C55_5 1_555 1_555
H70_5 C61_5 1_555 1_555
H71_5 C61_5 1_555 1_555
H72_5 C61_5 1_555 1_555
C62_5 C55_5 1_555 1_555
H73_5 C62_5 1_555 1_555
H74_5 C62_5 1_555 1_555
H75_5 C62_5 1_555 1_555
C63_5 C55_5 1_555 1_555
H76_5 C63_5 1_555 1_555
H77_5 C63_5 1_555 1_555
H78_5 C63_5 1_555 1_555
C64_5 C50_5 1_555 1_555
H79_5 C64_5 1_555 1_555
H80_5 C64_5 1_555 1_555
H81_5 C64_5 1_555 1_555
C65_5 C50_5 1_555 1_555
H82_5 C65_5 1_555 1_555
H83_5 C65_5 1_555 1_555
H84_5 C65_5 1_555 1_555
C66_5 C50_5 1_555 1_555
H85_5 C66_5 1_555 1_555
H86_5 C66_5 1_555 1_555
H87_5 C66_5 1_555 1_555
C71_5 C70_5 1_555 1_555
C72_5 C71_5 1_555 1_555
C73_5 C72_5 1_555 1_555
H89_5 C73_5 1_555 1_555
C74_5 C73_5 1_555 1_555
C76_5 C72_5 1_555 1_555
H91_5 C76_5 1_555 1_555
N10_5 C76_5 1_555 1_555
O17_5 N10_5 1_555 1_555
B4_5 O17_5 1_555 1_555
N11_5 Zn5_5 1_555 1_555
C77_5 N11_5 1_555 1_555
H92_5 C77_5 1_555 1_555
C78_5 C77_5 1_555 1_555
C79_5 C78_5 1_555 1_555
C80_5 C79_5 1_555 1_555
C81_5 C80_5 1_555 1_555
H93_5 C81_5 1_555 1_555
C82_5 C81_5 1_555 1_555
C83_5 C78_5 1_555 1_555
H94_5 C83_5 1_555 1_555
C84_5 C80_5 1_555 1_555
H95_5 C84_5 1_555 1_555
N12_5 Zn6_5 1_555 1_555
O19_5 B4_5 1_555 1_555
C85_5 B4_5 1_555 1_555
C86_5 C85_5 1_555 1_555
H96_5 C86_5 1_555 1_555
C87_5 C86_5 1_555 1_555
H97_5 C87_5 1_555 1_555
C88_5 C87_5 1_555 1_555
C89_5 C88_5 1_555 1_555
H98_5 C89_5 1_555 1_555
C90_5 C85_5 1_555 1_555
H99_5 C90_5 1_555 1_555
O22_5 Zn5_5 1_555 1_555
O23_5 Zn5_5 1_555 1_555
C97_5 C88_5 1_555 1_555
O24_5 Zn7_3 1_555 1_555
O25_5 Zn9_3 1_555 1_555
N13_5 Zn5_5 1_555 1_555
C102_5 N13_5 1_555 1_555
H113_5 C102_5 1_555 1_555
C103_5 C102_5 1_555 1_555
C104_5 C103_5 1_555 1_555
C105_5 C104_5 1_555 1_555
C106_5 C105_5 1_555 1_555
H114_5 C106_5 1_555 1_555
C107_5 C106_5 1_555 1_555
C108_5 C103_5 1_555 1_555
H115_5 C108_5 1_555 1_555
C109_5 C105_5 1_555 1_555
H116_5 C109_5 1_555 1_555
N14_5 Zn6_5 1_555 1_555
O27_5 B4_5 1_555 1_555
O28_5 Zn5_5 1_555 1_555
C110_5 C107_5 1_555 1_555
C111_5 C110_5 1_555 1_555
H117_5 C111_5 1_555 1_555
H118_5 C111_5 1_555 1_555
H119_5 C111_5 1_555 1_555
C112_5 C110_5 1_555 1_555
H120_5 C112_5 1_555 1_555
H121_5 C112_5 1_555 1_555
H122_5 C112_5 1_555 1_555
C113_5 C110_5 1_555 1_555
H123_5 C113_5 1_555 1_555
H124_5 C113_5 1_555 1_555
H125_5 C113_5 1_555 1_555
H141_5 C145_5 1_555 1_555
C146_5 C145_5 1_555 1_555
C147_5 C146_5 1_555 1_555
H142_5 C147_5 1_555 1_555
H143_5 C148_5 1_555 1_555
C152_5 C146_5 1_555 1_555
O40_5 Zn7_3 1_555 1_555
O41_5 Zn8_3 1_555 1_555
N21_5 C164_5 1_555 1_555
C164_5 H171_5 1_555 1_555
H172_5 C164_5 1_555 1_555
H173_5 C164_5 1_555 1_555
C165_5 N21_5 1_555 1_555
H174_5 C165_5 1_555 1_555
H175_5 C165_5 1_555 1_555
H176_5 C165_5 1_555 1_555
C166_5 N21_5 1_555 1_555
H177_5 C166_5 1_555 1_555
O42_5 Zn8_3 1_555 1_555
H181_5 C168_5 1_555 1_555
H182_5 C168_5 1_555 1_555
Zn11_3 O9_3 1_555 1_555
Zn14 O10_3 1_555 1_555
O43_3 Zn7_3 1_555 1_555
O44_3 Zn10_2 1_555 1_555
O45_3 Zn10_2 1_555 1_555
O46_3 Zn8_3 1_555 1_555
O47_3 Zn9_3 1_555 1_555
O48_3 Zn10_2 1_555 1_555
Zn2_5 O11_5 1_555 1_555
Zn2_5 O12_5 1_555 1_555
Zn2_5 O13_5 1_555 1_555
Zn6_5 O22_5 1_555 1_555
Zn6_5 O23_5 1_555 1_555
Zn6_5 O28_5 1_555 1_555
C21_5 C22_5 1_555 1_555
C25_5 O11_5 1_555 1_555
C28_5 C29_5 1_555 1_555
O5_5 N5_5 1_555 1_555
C33_5 O12_5 1_555 1_555
C36_5 C37_5 1_555 1_555
C38_5 N6_5 1_555 1_555
N6_5 O6_5 1_555 1_555
O7_5 N7_5 1_555 1_555
C41_5 O13_5 1_555 1_555
C44_5 C45_5 1_555 1_555
C46_5 N8_5 1_555 1_555
N8_5 O8_5 1_555 1_555
C56_5 O15_5 1_555 1_555
C57_5 C58_5 1_555 1_555
C59_5 C60_5 1_555 1_555
C71_5 O22_5 1_555 1_555
C79_5 O23_5 1_555 1_555
C82_5 C83_5 1_555 1_555
C84_5 N12_5 1_555 1_555
N12_5 O19_5 1_555 1_555
C89_5 C90_5 1_555 1_555
C97_5 O24_5 1_555 1_555
C97_5 O25_5 1_555 1_555
C104_5 O28_5 1_555 1_555
C107_5 C108_5 1_555 1_555
C109_5 N14_5 1_555 1_555
N14_5 O27_5 1_555 1_555
C147_5 C148_5 1_555 1_555
C152_5 O40_5 1_555 1_555
C152_5 O41_5 1_555 1_555
C166_5 O42_5 1_555 1_555
O2_5 H189_5 1_555 1_555
O2_5 H190_5 1_555 1_555
C67_5 B3_5 1_555 1_555
C68_5 C91_5 1_555 1_555
B3_5 O16_5 1_555 1_555
O16_5 N9_5 1_555 1_555
N9_5 C69_4 1_555 1_555
C69_4 H88_4 1_555 1_555
H90_4 C75_4 1_555 1_555
O18_5 B3_5 1_555 1_555
C91_5 O20_3 1_555 1_555
O20_3 Zn16_3 1_555 1_555
O21_3 C91_5 1_555 1_555
O26_5 B3_5 1_555 1_555
C98_5 C68_5 1_555 1_555
H109_5 C98_5 1_555 1_555
C99_5 C67_5 1_555 1_555
H110_5 C99_5 1_555 1_555
C100_5 C67_5 1_555 1_555
H111_5 C100_5 1_555 1_555
C101_5 C68_5 1_555 1_555
H112_5 C101_5 1_555 1_555
C167_4 C92_4 1_555 1_555
H178_4 C167_4 1_555 1_555
H179_4 C167_4 1_555 1_555
H180_4 C167_4 1_555 1_555
C169_4 C92_4 1_555 1_555
H184_4 C169_4 1_555 1_555
H185_4 C169_4 1_555 1_555
H186_4 C169_4 1_555 1_555
Zn12_3 O21_3 1_555 1_555
C98_5 C99_5 1_555 1_555
C100_5 C101_5 1_555 1_555
Zn6_6 N10_6 1_555 1_555
Zn11_3 O1_6 1_555 1_555
Zn8_4 O1_6 1_555 1_555
Zn13_3 O1_6 1_555 1_555
Zn14 O1_6 1_555 1_555
O2_6 Zn8_4 1_555 1_555
C48_6 C56_6 1_555 1_555
C56_6 O14_6 1_555 1_555
O14_6 Zn8_4 1_555 1_555
O15_6 Zn13_3 1_555 1_555
C58_6 C48_6 1_555 1_555
H67_6 C58_6 1_555 1_555
C59_6 C48_6 1_555 1_555
H68_6 C59_6 1_555 1_555
H69_6 C60_6 1_555 1_555
C71_6 C70_6 1_555 1_555
C72_6 C71_6 1_555 1_555
C73_6 C72_6 1_555 1_555
H89_6 C73_6 1_555 1_555
C74_6 C73_6 1_555 1_555
C76_6 C72_6 1_555 1_555
H91_6 C76_6 1_555 1_555
N10_6 C76_6 1_555 1_555
O17_6 N10_6 1_555 1_555
B4_6 O17_6 1_555 1_555
N12_6 Zn6_6 1_555 1_555
O19_6 B4_6 1_555 1_555
C85_6 B4_6 1_555 1_555
C86_6 C85_6 1_555 1_555
H96_6 C86_6 1_555 1_555
C87_6 C86_6 1_555 1_555
H97_6 C87_6 1_555 1_555
C88_6 C87_6 1_555 1_555
C89_6 C88_6 1_555 1_555
H98_6 C89_6 1_555 1_555
C90_6 C85_6 1_555 1_555
H99_6 C90_6 1_555 1_555
C97_6 C88_6 1_555 1_555
O24_6 Zn11_3 1_555 1_555
O25_6 Zn13_3 1_555 1_555
N14_6 Zn6_6 1_555 1_555
O27_6 B4_6 1_555 1_555
H140_6 C144_6 1_555 1_555
C145_6 C144_6 1_555 1_555
H141_6 C145_6 1_555 1_555
C146_6 C145_6 1_555 1_555
C147_6 C146_6 1_555 1_555
H142_6 C147_6 1_555 1_555
C152_6 C146_6 1_555 1_555
O40_6 Zn11_3 1_555 1_555
O41_6 Zn8_4 1_555 1_555
H144_6 C154_6 1_555 1_555
H146_6 C154_6 1_555 1_555
H147_6 C155_6 1_555 1_555
H148_6 C155_6 1_555 1_555
H149_6 C155_6 1_555 1_555
N21_6 C164_6 1_555 1_555
C164_6 H171_6 1_555 1_555
H172_6 C164_6 1_555 1_555
H173_6 C164_6 1_555 1_555
C165_6 N21_6 1_555 1_555
H174_6 C165_6 1_555 1_555
H175_6 C165_6 1_555 1_555
H176_6 C165_6 1_555 1_555
C166_6 N21_6 1_555 1_555
H177_6 C166_6 1_555 1_555
O42_6 Zn8_4 1_555 1_555
H181_6 C168_6 1_555 1_555
H182_6 C168_6 1_555 1_555
O45_4 Zn14 1_555 1_555
O46_4 Zn8_4 1_555 1_555
Zn6_6 O22_6 1_555 1_555
C56_6 O15_6 1_555 1_555
C59_6 C60_6 1_555 1_555
C71_6 O22_6 1_555 1_555
N12_6 O19_6 1_555 1_555
C89_6 C90_6 1_555 1_555
C97_6 O24_6 1_555 1_555
C97_6 O25_6 1_555 1_555
N14_6 O27_6 1_555 1_555
C152_6 O40_6 1_555 1_555
C152_6 O41_6 1_555 1_555
C166_6 O42_6 1_555 1_555
O2_6 H189_6 1_555 1_555
O2_6 H190_6 1_555 1_555
Zn1_6 N4_6 1_555 1_555
Zn2_6 N3_6 1_555 1_555
Zn3_6 N15_6 1_555 1_555
Zn4_6 N16_6 1_555 1_555
O3_6 B1_6 1_555 1_555
N3_6 O3_6 1_555 1_555
C23_6 N3_6 1_555 1_555
H45_6 C23_6 1_555 1_555
C24_6 C23_6 1_555 1_555
C25_6 C24_6 1_555 1_555
C26_6 C25_6 1_555 1_555
C27_6 C26_6 1_555 1_555
H46_6 C27_6 1_555 1_555
C28_6 C27_6 1_555 1_555
C29_6 C24_6 1_555 1_555
H47_6 C29_6 1_555 1_555
C30_6 C26_6 1_555 1_555
H48_6 C30_6 1_555 1_555
N4_6 C30_6 1_555 1_555
O4_6 N4_6 1_555 1_555
B2_6 O4_6 1_555 1_555
N5_6 Zn2_6 1_555 1_555
C34_6 C33_6 1_555 1_555
C35_6 C34_6 1_555 1_555
H50_6 C35_6 1_555 1_555
C38_6 C34_6 1_555 1_555
H52_6 C38_6 1_555 1_555
N6_6 Zn1_6 1_555 1_555
O6_6 B2_6 1_555 1_555
O7_6 B1_6 1_555 1_555
N7_6 Zn2_6 1_555 1_555
C39_6 N7_6 1_555 1_555
H53_6 C39_6 1_555 1_555
C40_6 C39_6 1_555 1_555
C41_6 C40_6 1_555 1_555
C42_6 C41_6 1_555 1_555
C43_6 C42_6 1_555 1_555
H54_6 C43_6 1_555 1_555
C44_6 C43_6 1_555 1_555
C45_6 C40_6 1_555 1_555
H55_6 C45_6 1_555 1_555
C46_6 C42_6 1_555 1_555
H56_6 C46_6 1_555 1_555
N8_6 Zn1_6 1_555 1_555
O8_6 B2_6 1_555 1_555
C47_6 B2_6 1_555 1_555
O11_6 Zn1_6 1_555 1_555
C50_6 C28_6 1_555 1_555
O12_6 Zn1_6 1_555 1_555
O13_6 Zn1_6 1_555 1_555
C55_6 C44_6 1_555 1_555
C57_6 C47_6 1_555 1_555
H66_6 C57_6 1_555 1_555
C61_6 C55_6 1_555 1_555
H70_6 C61_6 1_555 1_555
H71_6 C61_6 1_555 1_555
H72_6 C61_6 1_555 1_555
C62_6 C55_6 1_555 1_555
H73_6 C62_6 1_555 1_555
H74_6 C62_6 1_555 1_555
H75_6 C62_6 1_555 1_555
C63_6 C55_6 1_555 1_555
H76_6 C63_6 1_555 1_555
H77_6 C63_6 1_555 1_555
H78_6 C63_6 1_555 1_555
C64_6 C50_6 1_555 1_555
H79_6 C64_6 1_555 1_555
H80_6 C64_6 1_555 1_555
H81_6 C64_6 1_555 1_555
C65_6 C50_6 1_555 1_555
H82_6 C65_6 1_555 1_555
H83_6 C65_6 1_555 1_555
H84_6 C65_6 1_555 1_555
C66_6 C50_6 1_555 1_555
H85_6 C66_6 1_555 1_555
H86_6 C66_6 1_555 1_555
H87_6 C66_6 1_555 1_555
N11_6 Zn5_6 1_555 1_555
C77_6 N11_6 1_555 1_555
H92_6 C77_6 1_555 1_555
C78_6 C77_6 1_555 1_555
C79_6 C78_6 1_555 1_555
C80_6 C79_6 1_555 1_555
C81_6 C80_6 1_555 1_555
H93_6 C81_6 1_555 1_555
C82_6 C81_6 1_555 1_555
C83_6 C78_6 1_555 1_555
H94_6 C83_6 1_555 1_555
C84_6 C80_6 1_555 1_555
H95_6 C84_6 1_555 1_555
O23_6 Zn5_6 1_555 1_555
C93_6 C82_6 1_555 1_555
C94_6 C93_6 1_555 1_555
H100_6 C94_6 1_555 1_555
H101_6 C94_6 1_555 1_555
H102_6 C94_6 1_555 1_555
C95_6 C93_6 1_555 1_555
H103_6 C95_6 1_555 1_555
H104_6 C95_6 1_555 1_555
H105_6 C95_6 1_555 1_555
C96_6 C93_6 1_555 1_555
H106_6 C96_6 1_555 1_555
H107_6 C96_6 1_555 1_555
H108_6 C96_6 1_555 1_555
N13_6 Zn5_6 1_555 1_555
C102_6 N13_6 1_555 1_555
H113_6 C102_6 1_555 1_555
C103_6 C102_6 1_555 1_555
C104_6 C103_6 1_555 1_555
C105_6 C104_6 1_555 1_555
C106_6 C105_6 1_555 1_555
H114_6 C106_6 1_555 1_555
C107_6 C106_6 1_555 1_555
C108_6 C103_6 1_555 1_555
H115_6 C108_6 1_555 1_555
C109_6 C105_6 1_555 1_555
H116_6 C109_6 1_555 1_555
O28_6 Zn5_6 1_555 1_555
C110_6 C107_6 1_555 1_555
C111_6 C110_6 1_555 1_555
H117_6 C111_6 1_555 1_555
H118_6 C111_6 1_555 1_555
H119_6 C111_6 1_555 1_555
C112_6 C110_6 1_555 1_555
H120_6 C112_6 1_555 1_555
H121_6 C112_6 1_555 1_555
H122_6 C112_6 1_555 1_555
C113_6 C110_6 1_555 1_555
H123_6 C113_6 1_555 1_555
H124_6 C113_6 1_555 1_555
H125_6 C113_6 1_555 1_555
C114_6 C115_6 1_555 1_555
C115_6 H126_6 1_555 1_555
C116_6 C115_6 1_555 1_555
H127_6 C116_6 1_555 1_555
C117_6 C116_6 1_555 1_555
C118_6 C117_6 1_555 1_555
H128_6 C118_6 1_555 1_555
C119_6 C114_6 1_555 1_555
H129_6 C119_6 1_555 1_555
B5_6 C114_6 1_555 1_555
O29_6 B5_6 1_555 1_555
N15_6 O29_6 1_555 1_555
C120_6 N15_6 1_555 1_555
H130_6 C120_6 1_555 1_555
C121_6 C120_6 1_555 1_555
C122_6 C121_6 1_555 1_555
C123_6 C122_6 1_555 1_555
C124_6 C123_6 1_555 1_555
H131_6 C124_6 1_555 1_555
C125_6 C124_6 1_555 1_555
C126_6 C121_6 1_555 1_555
H132_6 C126_6 1_555 1_555
C127_6 C123_6 1_555 1_555
H133_6 C127_6 1_555 1_555
N16_6 C127_6 1_555 1_555
O30_6 N16_6 1_555 1_555
B6_6 O30_6 1_555 1_555
O31_6 B5_6 1_555 1_555
N17_6 Zn3_6 1_555 1_555
C128_6 N17_6 1_555 1_555
H134_6 C128_6 1_555 1_555
C129_6 C128_6 1_555 1_555
C130_6 C129_6 1_555 1_555
C131_6 C130_6 1_555 1_555
C132_6 C131_6 1_555 1_555
H135_6 C132_6 1_555 1_555
C133_6 C132_6 1_555 1_555
C134_6 C129_6 1_555 1_555
H136_6 C134_6 1_555 1_555
C135_6 C131_6 1_555 1_555
H137_6 C135_6 1_555 1_555
N18_6 Zn4_6 1_555 1_555
O32_6 B6_6 1_555 1_555
O33_6 B5_6 1_555 1_555
N19_6 Zn3_6 1_555 1_555
C136_6 N19_6 1_555 1_555
H138_6 C136_6 1_555 1_555
C137_6 C136_6 1_555 1_555
C138_6 C137_6 1_555 1_555
C139_6 C138_6 1_555 1_555
C140_6 C139_6 1_555 1_555
C141_6 C137_6 1_555 1_555
C142_6 C139_6 1_555 1_555
H139_6 C142_6 1_555 1_555
N20_6 Zn4_6 1_555 1_555
O34_6 B6_6 1_555 1_555
C143_6 B6_6 1_555 1_555
C148_6 C143_6 1_555 1_555
H143_6 C148_6 1_555 1_555
C149_6 C117_6 1_555 1_555
O47_3 C149_6 1_555 1_555
O48_3 C149_6 1_555 1_555
O37_6 Zn3_6 1_555 1_555
C150_6 C125_6 1_555 1_555
O38_6 Zn3_6 1_555 1_555
C151_6 C133_6 1_555 1_555
O39_6 Zn3_6 1_555 1_555
C153_6 C140_6 1_555 1_555
C156_6 C150_6 1_555 1_555
H150_6 C156_6 1_555 1_555
H151_6 C156_6 1_555 1_555
H152_6 C156_6 1_555 1_555
C157_6 C151_6 1_555 1_555
H153_6 C157_6 1_555 1_555
H154_6 C157_6 1_555 1_555
H155_6 C157_6 1_555 1_555
C158_6 C151_6 1_555 1_555
H156_6 C158_6 1_555 1_555
H157_6 C158_6 1_555 1_555
H158_6 C158_6 1_555 1_555
C159_6 C151_6 1_555 1_555
H159_6 C159_6 1_555 1_555
H160_6 C159_6 1_555 1_555
H161_6 C159_6 1_555 1_555
C160_6 C153_6 1_555 1_555
C161_6 C160_6 1_555 1_555
H162_6 C161_6 1_555 1_555
H163_6 C161_6 1_555 1_555
H164_6 C161_6 1_555 1_555
C162_6 C160_6 1_555 1_555
H165_6 C162_6 1_555 1_555
H166_6 C162_6 1_555 1_555
H167_6 C162_6 1_555 1_555
C163_6 C160_6 1_555 1_555
H168_6 C163_6 1_555 1_555
H169_6 C163_6 1_555 1_555
H170_6 C163_6 1_555 1_555
Zn2_6 O11_6 1_555 1_555
Zn2_6 O12_6 1_555 1_555
Zn2_6 O13_6 1_555 1_555
Zn4_6 O37_6 1_555 1_555
Zn4_6 O38_6 1_555 1_555
Zn4_6 O39_6 1_555 1_555
C25_6 O11_6 1_555 1_555
C28_6 C29_6 1_555 1_555
C33_6 O12_6 1_555 1_555
C38_6 N6_6 1_555 1_555
N6_6 O6_6 1_555 1_555
O7_6 N7_6 1_555 1_555
C41_6 O13_6 1_555 1_555
C44_6 C45_6 1_555 1_555
C46_6 N8_6 1_555 1_555
N8_6 O8_6 1_555 1_555
C79_6 O23_6 1_555 1_555
C82_6 C83_6 1_555 1_555
C104_6 O28_6 1_555 1_555
C107_6 C108_6 1_555 1_555
C118_6 C119_6 1_555 1_555
C122_6 O37_6 1_555 1_555
C125_6 C126_6 1_555 1_555
O31_6 N17_6 1_555 1_555
C130_6 O38_6 1_555 1_555
C133_6 C134_6 1_555 1_555
C135_6 N18_6 1_555 1_555
N18_6 O32_6 1_555 1_555
O33_6 N19_6 1_555 1_555
C138_6 O39_6 1_555 1_555
C141_6 C153_6 1_555 1_555
C142_6 N20_6 1_555 1_555
N20_6 O34_6 1_555 1_555
C140_6 H187_6 1_555 1_555
C141_6 H188_6 1_555 1_555
C67_6 B3_6 1_555 1_555
C68_6 C91_6 1_555 1_555
B3_6 O16_6 1_555 1_555
O16_6 N9_6 1_555 1_555
O18_6 B3_6 1_555 1_555
C91_6 O20_4 1_555 1_555
O20_4 Zn16_4 1_555 1_555
O21_4 C91_6 1_555 1_555
O26_6 B3_6 1_555 1_555
C98_6 C68_6 1_555 1_555
H109_6 C98_6 1_555 1_555
C99_6 C67_6 1_555 1_555
H110_6 C99_6 1_555 1_555
C100_6 C67_6 1_555 1_555
H111_6 C100_6 1_555 1_555
C101_6 C68_6 1_555 1_555
H112_6 C101_6 1_555 1_555
Zn12_4 O21_4 1_555 1_555
C98_6 C99_6 1_555 1_555
C100_6 C101_6 1_555 1_555
C17_6 C18_6 1_555 1_555
C19_6 C18_6 1_555 1_555
H42_6 C19_6 1_555 1_555
C20_6 C19_6 1_555 1_555
C21_6 C20_6 1_555 1_555
H43_6 C21_6 1_555 1_555
C22_6 C17_6 1_555 1_555
H44_6 C22_6 1_555 1_555
H49_6 C31_6 1_555 1_555
C32_6 C31_6 1_555 1_555
C37_6 C32_6 1_555 1_555
H51_6 C37_6 1_555 1_555
C49_6 C20_6 1_555 1_555
O43_3 C49_6 1_555 1_555
O44_3 C49_6 1_555 1_555
C51_6 C36_6 1_555 1_555
C52_6 C51_6 1_555 1_555
H57_6 C52_6 1_555 1_555
H58_6 C52_6 1_555 1_555
H59_6 C52_6 1_555 1_555
C53_6 C51_6 1_555 1_555
H60_6 C53_6 1_555 1_555
H61_6 C53_6 1_555 1_555
H62_6 C53_6 1_555 1_555
C21_6 C22_6 1_555 1_555
C36_6 C37_6 1_555 1_555
Zn3_7 N15_7 1_555 1_555
Zn4_7 N16_7 1_555 1_555
C94_7 C93_7 1_555 1_555
H100_7 C94_7 1_555 1_555
H101_7 C94_7 1_555 1_555
H102_7 C94_7 1_555 1_555
C95_7 C93_7 1_555 1_555
H103_7 C95_7 1_555 1_555
H104_7 C95_7 1_555 1_555
H105_7 C95_7 1_555 1_555
C96_7 C93_7 1_555 1_555
H106_7 C96_7 1_555 1_555
H107_7 C96_7 1_555 1_555
H108_7 C96_7 1_555 1_555
C114_7 C115_7 1_555 1_555
C115_7 H126_7 1_555 1_555
C116_7 C115_7 1_555 1_555
H127_7 C116_7 1_555 1_555
C117_7 C116_7 1_555 1_555
C118_7 C117_7 1_555 1_555
H128_7 C118_7 1_555 1_555
C119_7 C114_7 1_555 1_555
H129_7 C119_7 1_555 1_555
B5_7 C114_7 1_555 1_555
O29_7 B5_7 1_555 1_555
N15_7 O29_7 1_555 1_555
C120_7 N15_7 1_555 1_555
H130_7 C120_7 1_555 1_555
C121_7 C120_7 1_555 1_555
C122_7 C121_7 1_555 1_555
C123_7 C122_7 1_555 1_555
C124_7 C123_7 1_555 1_555
H131_7 C124_7 1_555 1_555
C125_7 C124_7 1_555 1_555
C126_7 C121_7 1_555 1_555
H132_7 C126_7 1_555 1_555
C127_7 C123_7 1_555 1_555
H133_7 C127_7 1_555 1_555
N16_7 C127_7 1_555 1_555
O30_7 N16_7 1_555 1_555
B6_7 O30_7 1_555 1_555
O31_7 B5_7 1_555 1_555
N17_7 Zn3_7 1_555 1_555
C128_7 N17_7 1_555 1_555
H134_7 C128_7 1_555 1_555
C129_7 C128_7 1_555 1_555
C130_7 C129_7 1_555 1_555
C131_7 C130_7 1_555 1_555
C132_7 C131_7 1_555 1_555
H135_7 C132_7 1_555 1_555
C133_7 C132_7 1_555 1_555
C134_7 C129_7 1_555 1_555
H136_7 C134_7 1_555 1_555
C135_7 C131_7 1_555 1_555
H137_7 C135_7 1_555 1_555
N18_7 Zn4_7 1_555 1_555
O32_7 B6_7 1_555 1_555
O33_7 B5_7 1_555 1_555
N19_7 Zn3_7 1_555 1_555
C136_7 N19_7 1_555 1_555
H138_7 C136_7 1_555 1_555
C137_7 C136_7 1_555 1_555
C138_7 C137_7 1_555 1_555
C139_7 C138_7 1_555 1_555
C140_7 C139_7 1_555 1_555
C141_7 C137_7 1_555 1_555
C142_7 C139_7 1_555 1_555
H139_7 C142_7 1_555 1_555
N20_7 Zn4_7 1_555 1_555
O34_7 B6_7 1_555 1_555
C143_7 B6_7 1_555 1_555
C144_7 C143_7 1_555 1_555
H140_7 C144_7 1_555 1_555
C149_7 C117_7 1_555 1_555
O35_4 C149_7 1_555 1_555
O36_4 C149_7 1_555 1_555
O37_7 Zn3_7 1_555 1_555
C150_7 C125_7 1_555 1_555
O38_7 Zn3_7 1_555 1_555
C151_7 C133_7 1_555 1_555
O39_7 Zn3_7 1_555 1_555
C153_7 C140_7 1_555 1_555
C154_7 C150_7 1_555 1_555
H144_7 C154_7 1_555 1_555
H145_7 C154_7 1_555 1_555
H146_7 C154_7 1_555 1_555
C155_7 C150_7 1_555 1_555
H147_7 C155_7 1_555 1_555
H148_7 C155_7 1_555 1_555
H149_7 C155_7 1_555 1_555
C156_7 C150_7 1_555 1_555
H150_7 C156_7 1_555 1_555
H151_7 C156_7 1_555 1_555
H152_7 C156_7 1_555 1_555
C157_7 C151_7 1_555 1_555
H153_7 C157_7 1_555 1_555
H154_7 C157_7 1_555 1_555
H155_7 C157_7 1_555 1_555
C158_7 C151_7 1_555 1_555
H157_7 C158_7 1_555 1_555
H158_7 C158_7 1_555 1_555
C159_7 C151_7 1_555 1_555
H159_7 C159_7 1_555 1_555
H160_7 C159_7 1_555 1_555
H161_7 C159_7 1_555 1_555
C160_7 C153_7 1_555 1_555
C161_7 C160_7 1_555 1_555
H162_7 C161_7 1_555 1_555
H163_7 C161_7 1_555 1_555
H164_7 C161_7 1_555 1_555
C162_7 C160_7 1_555 1_555
H165_7 C162_7 1_555 1_555
H166_7 C162_7 1_555 1_555
H167_7 C162_7 1_555 1_555
C163_7 C160_7 1_555 1_555
H170_7 C163_7 1_555 1_555
Zn13_4 O35_4 1_555 1_555
Zn16_4 O36_4 1_555 1_555
Zn4_7 O37_7 1_555 1_555
Zn4_7 O38_7 1_555 1_555
Zn4_7 O39_7 1_555 1_555
C118_7 C119_7 1_555 1_555
C122_7 O37_7 1_555 1_555
C125_7 C126_7 1_555 1_555
O31_7 N17_7 1_555 1_555
C130_7 O38_7 1_555 1_555
C133_7 C134_7 1_555 1_555
C135_7 N18_7 1_555 1_555
N18_7 O32_7 1_555 1_555
O33_7 N19_7 1_555 1_555
C138_7 O39_7 1_555 1_555
C141_7 C153_7 1_555 1_555
C142_7 N20_7 1_555 1_555
N20_7 O34_7 1_555 1_555
C140_7 H187_7 1_555 1_555
C141_7 H188_7 1_555 1_555
Zn1_7 N4_7 1_555 1_555
Zn2_7 N3_7 1_555 1_555
Zn5_7 N9_7 1_555 1_555
Zn6_7 N10_7 1_555 1_555
Zn7_4 O1_7 1_555 1_555
Zn12_3 O1_7 1_555 1_555
Zn9_4 O1_7 1_555 1_555
Zn16_3 O1_7 1_555 1_555
O2_7 Zn12_3 1_555 1_555
C17_7 C18_7 1_555 1_555
C18_7 H41_7 1_555 1_555
C19_7 C18_7 1_555 1_555
H42_7 C19_7 1_555 1_555
C20_7 C19_7 1_555 1_555
C21_7 C20_7 1_555 1_555
H43_7 C21_7 1_555 1_555
C22_7 C17_7 1_555 1_555
H44_7 C22_7 1_555 1_555
B1_7 C17_7 1_555 1_555
O3_7 B1_7 1_555 1_555
N3_7 O3_7 1_555 1_555
C23_7 N3_7 1_555 1_555
H45_7 C23_7 1_555 1_555
C24_7 C23_7 1_555 1_555
C25_7 C24_7 1_555 1_555
C26_7 C25_7 1_555 1_555
C27_7 C26_7 1_555 1_555
H46_7 C27_7 1_555 1_555
C28_7 C27_7 1_555 1_555
C29_7 C24_7 1_555 1_555
H47_7 C29_7 1_555 1_555
C30_7 C26_7 1_555 1_555
H48_7 C30_7 1_555 1_555
N4_7 C30_7 1_555 1_555
O4_7 N4_7 1_555 1_555
B2_7 O4_7 1_555 1_555
O5_7 B1_7 1_555 1_555
N5_7 Zn2_7 1_555 1_555
C31_7 N5_7 1_555 1_555
H49_7 C31_7 1_555 1_555
C32_7 C31_7 1_555 1_555
C33_7 C32_7 1_555 1_555
C34_7 C33_7 1_555 1_555
C35_7 C34_7 1_555 1_555
H50_7 C35_7 1_555 1_555
C36_7 C35_7 1_555 1_555
C37_7 C32_7 1_555 1_555
H51_7 C37_7 1_555 1_555
C38_7 C34_7 1_555 1_555
H52_7 C38_7 1_555 1_555
N6_7 Zn1_7 1_555 1_555
O6_7 B2_7 1_555 1_555
O7_7 B1_7 1_555 1_555
N7_7 Zn2_7 1_555 1_555
C39_7 N7_7 1_555 1_555
H53_7 C39_7 1_555 1_555
C40_7 C39_7 1_555 1_555
C41_7 C40_7 1_555 1_555
C42_7 C41_7 1_555 1_555
C43_7 C42_7 1_555 1_555
H54_7 C43_7 1_555 1_555
C44_7 C43_7 1_555 1_555
C45_7 C40_7 1_555 1_555
H55_7 C45_7 1_555 1_555
C46_7 C42_7 1_555 1_555
H56_7 C46_7 1_555 1_555
N8_7 Zn1_7 1_555 1_555
O8_7 B2_7 1_555 1_555
C47_7 B2_7 1_555 1_555
C48_7 C56_7 1_555 1_555
C49_7 C20_7 1_555 1_555
O9_4 C49_7 1_555 1_555
O10_4 C49_7 1_555 1_555
O11_7 Zn1_7 1_555 1_555
C50_7 C28_7 1_555 1_555
O12_7 Zn1_7 1_555 1_555
C51_7 C36_7 1_555 1_555
C52_7 C51_7 1_555 1_555
H57_7 C52_7 1_555 1_555
H58_7 C52_7 1_555 1_555
H59_7 C52_7 1_555 1_555
C53_7 C51_7 1_555 1_555
H60_7 C53_7 1_555 1_555
H61_7 C53_7 1_555 1_555
H62_7 C53_7 1_555 1_555
C54_4 C51_7 1_555 1_555
H63_4 C54_4 1_555 1_555
H64_4 C54_4 1_555 1_555
H65_4 C54_4 1_555 1_555
O13_7 Zn1_7 1_555 1_555
C55_7 C44_7 1_555 1_555
C56_7 O14_7 1_555 1_555
O14_7 Zn12_3 1_555 1_555
O15_7 Zn9_4 1_555 1_555
C57_7 C47_7 1_555 1_555
H66_7 C57_7 1_555 1_555
C58_7 C48_7 1_555 1_555
H67_7 C58_7 1_555 1_555
C59_7 C48_7 1_555 1_555
H68_7 C59_7 1_555 1_555
C60_7 C47_7 1_555 1_555
H69_7 C60_7 1_555 1_555
C61_7 C55_7 1_555 1_555
H70_7 C61_7 1_555 1_555
H71_7 C61_7 1_555 1_555
H72_7 C61_7 1_555 1_555
C62_7 C55_7 1_555 1_555
H73_7 C62_7 1_555 1_555
H74_7 C62_7 1_555 1_555
H75_7 C62_7 1_555 1_555
C63_7 C55_7 1_555 1_555
H76_7 C63_7 1_555 1_555
H77_7 C63_7 1_555 1_555
H78_7 C63_7 1_555 1_555
C64_7 C50_7 1_555 1_555
H79_7 C64_7 1_555 1_555
H80_7 C64_7 1_555 1_555
H81_7 C64_7 1_555 1_555
C65_7 C50_7 1_555 1_555
H82_7 C65_7 1_555 1_555
H83_7 C65_7 1_555 1_555
H84_7 C65_7 1_555 1_555
C66_7 C50_7 1_555 1_555
H85_7 C66_7 1_555 1_555
H86_7 C66_7 1_555 1_555
H87_7 C66_7 1_555 1_555
C67_7 B3_7 1_555 1_555
C68_7 C91_7 1_555 1_555
B3_7 O16_7 1_555 1_555
O16_7 N9_7 1_555 1_555
N9_7 C69_5 1_555 1_555
C69_5 H88_5 1_555 1_555
C70_7 C69_5 1_555 1_555
C71_7 C70_7 1_555 1_555
C72_7 C71_7 1_555 1_555
C73_7 C72_7 1_555 1_555
H89_7 C73_7 1_555 1_555
C74_7 C73_7 1_555 1_555
C75_5 C70_7 1_555 1_555
H90_5 C75_5 1_555 1_555
C76_7 C72_7 1_555 1_555
H91_7 C76_7 1_555 1_555
N10_7 C76_7 1_555 1_555
O17_7 N10_7 1_555 1_555
B4_7 O17_7 1_555 1_555
O18_7 B3_7 1_555 1_555
N11_7 Zn5_7 1_555 1_555
C77_7 N11_7 1_555 1_555
H92_7 C77_7 1_555 1_555
C78_7 C77_7 1_555 1_555
C79_7 C78_7 1_555 1_555
C80_7 C79_7 1_555 1_555
C81_7 C80_7 1_555 1_555
H93_7 C81_7 1_555 1_555
C82_7 C81_7 1_555 1_555
C83_7 C78_7 1_555 1_555
H94_7 C83_7 1_555 1_555
C84_7 C80_7 1_555 1_555
H95_7 C84_7 1_555 1_555
N12_7 Zn6_7 1_555 1_555
O19_7 B4_7 1_555 1_555
C85_7 B4_7 1_555 1_555
C86_7 C85_7 1_555 1_555
H96_7 C86_7 1_555 1_555
C87_7 C86_7 1_555 1_555
H97_7 C87_7 1_555 1_555
C88_7 C87_7 1_555 1_555
C89_7 C88_7 1_555 1_555
H98_7 C89_7 1_555 1_555
C90_7 C85_7 1_555 1_555
H99_7 C90_7 1_555 1_555
C91_7 O45_3 1_555 1_555
O46_3 C91_7 1_555 1_555
O22_7 Zn5_7 1_555 1_555
C92_5 C74_7 1_555 1_555
O23_7 Zn5_7 1_555 1_555
C97_7 C88_7 1_555 1_555
O24_7 Zn7_4 1_555 1_555
O25_7 Zn9_4 1_555 1_555
O26_7 B3_7 1_555 1_555
C98_7 C68_7 1_555 1_555
H109_7 C98_7 1_555 1_555
C99_7 C67_7 1_555 1_555
H110_7 C99_7 1_555 1_555
C100_7 C67_7 1_555 1_555
H111_7 C100_7 1_555 1_555
C101_7 C68_7 1_555 1_555
H112_7 C101_7 1_555 1_555
N13_7 Zn5_7 1_555 1_555
C102_7 N13_7 1_555 1_555
H113_7 C102_7 1_555 1_555
C103_7 C102_7 1_555 1_555
C104_7 C103_7 1_555 1_555
C105_7 C104_7 1_555 1_555
C106_7 C105_7 1_555 1_555
H114_7 C106_7 1_555 1_555
C107_7 C106_7 1_555 1_555
C108_7 C103_7 1_555 1_555
H115_7 C108_7 1_555 1_555
C109_7 C105_7 1_555 1_555
H116_7 C109_7 1_555 1_555
N14_7 Zn6_7 1_555 1_555
O27_7 B4_7 1_555 1_555
O28_7 Zn5_7 1_555 1_555
C110_7 C107_7 1_555 1_555
C111_7 C110_7 1_555 1_555
H117_7 C111_7 1_555 1_555
H118_7 C111_7 1_555 1_555
H119_7 C111_7 1_555 1_555
C112_7 C110_7 1_555 1_555
H120_7 C112_7 1_555 1_555
H121_7 C112_7 1_555 1_555
H122_7 C112_7 1_555 1_555
C113_7 C110_7 1_555 1_555
H123_7 C113_7 1_555 1_555
H124_7 C113_7 1_555 1_555
H125_7 C113_7 1_555 1_555
H141_7 C145_7 1_555 1_555
C146_7 C145_7 1_555 1_555
C147_7 C146_7 1_555 1_555
H142_7 C147_7 1_555 1_555
H143_7 C148_7 1_555 1_555
C152_7 C146_7 1_555 1_555
O40_7 Zn7_4 1_555 1_555
O41_7 Zn12_3 1_555 1_555
N21_7 C164_7 1_555 1_555
C164_7 H171_7 1_555 1_555
H172_7 C164_7 1_555 1_555
H173_7 C164_7 1_555 1_555
C165_7 N21_7 1_555 1_555
H174_7 C165_7 1_555 1_555
H175_7 C165_7 1_555 1_555
H176_7 C165_7 1_555 1_555
C166_7 N21_7 1_555 1_555
H177_7 C166_7 1_555 1_555
O42_7 Zn12_3 1_555 1_555
C167_5 C92_5 1_555 1_555
H178_5 C167_5 1_555 1_555
H179_5 C167_5 1_555 1_555
H180_5 C167_5 1_555 1_555
C168_7 C92_5 1_555 1_555
H181_7 C168_7 1_555 1_555
H182_7 C168_7 1_555 1_555
H183_5 C168_7 1_555 1_555
C169_5 C92_5 1_555 1_555
H184_5 C169_5 1_555 1_555
H185_5 C169_5 1_555 1_555
H186_5 C169_5 1_555 1_555
Zn11_4 O9_4 1_555 1_555
Zn16_4 O10_4 1_555 1_555
O43_4 Zn7_4 1_555 1_555
O44_4 Zn16_3 1_555 1_555
O47_4 Zn9_4 1_555 1_555
O48_4 Zn16_3 1_555 1_555
Zn2_7 O11_7 1_555 1_555
Zn2_7 O12_7 1_555 1_555
Zn2_7 O13_7 1_555 1_555
Zn6_7 O22_7 1_555 1_555
Zn6_7 O23_7 1_555 1_555
Zn6_7 O28_7 1_555 1_555
C21_7 C22_7 1_555 1_555
C25_7 O11_7 1_555 1_555
C28_7 C29_7 1_555 1_555
O5_7 N5_7 1_555 1_555
C33_7 O12_7 1_555 1_555
C36_7 C37_7 1_555 1_555
C38_7 N6_7 1_555 1_555
N6_7 O6_7 1_555 1_555
O7_7 N7_7 1_555 1_555
C41_7 O13_7 1_555 1_555
C44_7 C45_7 1_555 1_555
C46_7 N8_7 1_555 1_555
N8_7 O8_7 1_555 1_555
C56_7 O15_7 1_555 1_555
C57_7 C58_7 1_555 1_555
C59_7 C60_7 1_555 1_555
C71_7 O22_7 1_555 1_555
C74_7 C75_5 1_555 1_555
O18_7 N11_7 1_555 1_555
C79_7 O23_7 1_555 1_555
C82_7 C83_7 1_555 1_555
C84_7 N12_7 1_555 1_555
N12_7 O19_7 1_555 1_555
C89_7 C90_7 1_555 1_555
C97_7 O24_7 1_555 1_555
C97_7 O25_7 1_555 1_555
O26_7 N13_7 1_555 1_555
C98_7 C99_7 1_555 1_555
C100_7 C101_7 1_555 1_555
C104_7 O28_7 1_555 1_555
C107_7 C108_7 1_555 1_555
C109_7 N14_7 1_555 1_555
N14_7 O27_7 1_555 1_555
C147_7 C148_7 1_555 1_555
C152_7 O40_7 1_555 1_555
C152_7 O41_7 1_555 1_555
C166_7 O42_7 1_555 1_555
O2_7 H189_7 1_555 1_555
O2_7 H190_7 1_555 1_555
Zn1_8 N4_8 1_555 1_555
Zn2_8 N3_8 1_555 1_555
Zn3_8 N15_8 1_555 1_555
Zn4_8 N16_8 1_555 1_555
Zn5_8 N9_8 1_555 1_555
O3_8 B1_8 1_555 1_555
N3_8 O3_8 1_555 1_555
C23_8 N3_8 1_555 1_555
H45_8 C23_8 1_555 1_555
C24_8 C23_8 1_555 1_555
C25_8 C24_8 1_555 1_555
C26_8 C25_8 1_555 1_555
C27_8 C26_8 1_555 1_555
H46_8 C27_8 1_555 1_555
C28_8 C27_8 1_555 1_555
C29_8 C24_8 1_555 1_555
H47_8 C29_8 1_555 1_555
C30_8 C26_8 1_555 1_555
H48_8 C30_8 1_555 1_555
N4_8 C30_8 1_555 1_555
O4_8 N4_8 1_555 1_555
B2_8 O4_8 1_555 1_555
N5_8 Zn2_8 1_555 1_555
C34_8 C33_8 1_555 1_555
C35_8 C34_8 1_555 1_555
H50_8 C35_8 1_555 1_555
C38_8 C34_8 1_555 1_555
H52_8 C38_8 1_555 1_555
N6_8 Zn1_8 1_555 1_555
O6_8 B2_8 1_555 1_555
O7_8 B1_8 1_555 1_555
N7_8 Zn2_8 1_555 1_555
C39_8 N7_8 1_555 1_555
H53_8 C39_8 1_555 1_555
C40_8 C39_8 1_555 1_555
C41_8 C40_8 1_555 1_555
C42_8 C41_8 1_555 1_555
C43_8 C42_8 1_555 1_555
H54_8 C43_8 1_555 1_555
C44_8 C43_8 1_555 1_555
C45_8 C40_8 1_555 1_555
H55_8 C45_8 1_555 1_555
C46_8 C42_8 1_555 1_555
H56_8 C46_8 1_555 1_555
N8_8 Zn1_8 1_555 1_555
O8_8 B2_8 1_555 1_555
C47_8 B2_8 1_555 1_555
O11_8 Zn1_8 1_555 1_555
C50_8 C28_8 1_555 1_555
O12_8 Zn1_8 1_555 1_555
O13_8 Zn1_8 1_555 1_555
C55_8 C44_8 1_555 1_555
C57_8 C47_8 1_555 1_555
H66_8 C57_8 1_555 1_555
C61_8 C55_8 1_555 1_555
H70_8 C61_8 1_555 1_555
H71_8 C61_8 1_555 1_555
H72_8 C61_8 1_555 1_555
C62_8 C55_8 1_555 1_555
H73_8 C62_8 1_555 1_555
H74_8 C62_8 1_555 1_555
H75_8 C62_8 1_555 1_555
C63_8 C55_8 1_555 1_555
H76_8 C63_8 1_555 1_555
H77_8 C63_8 1_555 1_555
H78_8 C63_8 1_555 1_555
C64_8 C50_8 1_555 1_555
H79_8 C64_8 1_555 1_555
H80_8 C64_8 1_555 1_555
H81_8 C64_8 1_555 1_555
C65_8 C50_8 1_555 1_555
H82_8 C65_8 1_555 1_555
H83_8 C65_8 1_555 1_555
H84_8 C65_8 1_555 1_555
C66_8 C50_8 1_555 1_555
H85_8 C66_8 1_555 1_555
H86_8 C66_8 1_555 1_555
H87_8 C66_8 1_555 1_555
C67_8 B3_8 1_555 1_555
C68_8 C91_8 1_555 1_555
B3_8 O16_8 1_555 1_555
O16_8 N9_8 1_555 1_555
O18_8 B3_8 1_555 1_555
N11_8 Zn5_8 1_555 1_555
C77_8 N11_8 1_555 1_555
H92_8 C77_8 1_555 1_555
C78_8 C77_8 1_555 1_555
C79_8 C78_8 1_555 1_555
C80_8 C79_8 1_555 1_555
C81_8 C80_8 1_555 1_555
H93_8 C81_8 1_555 1_555
C82_8 C81_8 1_555 1_555
C83_8 C78_8 1_555 1_555
H94_8 C83_8 1_555 1_555
C84_8 C80_8 1_555 1_555
H95_8 C84_8 1_555 1_555
C91_8 O45_4 1_555 1_555
O46_4 C91_8 1_555 1_555
O23_8 Zn5_8 1_555 1_555
C93_8 C82_8 1_555 1_555
C94_8 C93_8 1_555 1_555
H100_8 C94_8 1_555 1_555
H101_8 C94_8 1_555 1_555
H102_8 C94_8 1_555 1_555
C95_8 C93_8 1_555 1_555
H103_8 C95_8 1_555 1_555
H104_8 C95_8 1_555 1_555
H105_8 C95_8 1_555 1_555
C96_8 C93_8 1_555 1_555
H106_8 C96_8 1_555 1_555
H107_8 C96_8 1_555 1_555
H108_8 C96_8 1_555 1_555
O26_8 B3_8 1_555 1_555
C98_8 C68_8 1_555 1_555
H109_8 C98_8 1_555 1_555
C99_8 C67_8 1_555 1_555
H110_8 C99_8 1_555 1_555
C100_8 C67_8 1_555 1_555
H111_8 C100_8 1_555 1_555
C101_8 C68_8 1_555 1_555
H112_8 C101_8 1_555 1_555
N13_8 Zn5_8 1_555 1_555
C102_8 N13_8 1_555 1_555
H113_8 C102_8 1_555 1_555
C103_8 C102_8 1_555 1_555
C104_8 C103_8 1_555 1_555
C105_8 C104_8 1_555 1_555
C106_8 C105_8 1_555 1_555
H114_8 C106_8 1_555 1_555
C107_8 C106_8 1_555 1_555
C108_8 C103_8 1_555 1_555
H115_8 C108_8 1_555 1_555
C109_8 C105_8 1_555 1_555
H116_8 C109_8 1_555 1_555
O28_8 Zn5_8 1_555 1_555
C110_8 C107_8 1_555 1_555
C111_8 C110_8 1_555 1_555
H117_8 C111_8 1_555 1_555
H118_8 C111_8 1_555 1_555
H119_8 C111_8 1_555 1_555
C112_8 C110_8 1_555 1_555
H120_8 C112_8 1_555 1_555
H121_8 C112_8 1_555 1_555
H122_8 C112_8 1_555 1_555
C113_8 C110_8 1_555 1_555
H123_8 C113_8 1_555 1_555
H124_8 C113_8 1_555 1_555
H125_8 C113_8 1_555 1_555
C114_8 C115_8 1_555 1_555
C115_8 H126_8 1_555 1_555
C116_8 C115_8 1_555 1_555
H127_8 C116_8 1_555 1_555
C117_8 C116_8 1_555 1_555
C118_8 C117_8 1_555 1_555
H128_8 C118_8 1_555 1_555
C119_8 C114_8 1_555 1_555
H129_8 C119_8 1_555 1_555
B5_8 C114_8 1_555 1_555
O29_8 B5_8 1_555 1_555
N15_8 O29_8 1_555 1_555
C120_8 N15_8 1_555 1_555
H130_8 C120_8 1_555 1_555
C121_8 C120_8 1_555 1_555
C122_8 C121_8 1_555 1_555
C123_8 C122_8 1_555 1_555
C124_8 C123_8 1_555 1_555
H131_8 C124_8 1_555 1_555
C125_8 C124_8 1_555 1_555
C126_8 C121_8 1_555 1_555
H132_8 C126_8 1_555 1_555
C127_8 C123_8 1_555 1_555
H133_8 C127_8 1_555 1_555
N16_8 C127_8 1_555 1_555
O30_8 N16_8 1_555 1_555
B6_8 O30_8 1_555 1_555
O31_8 B5_8 1_555 1_555
N17_8 Zn3_8 1_555 1_555
C128_8 N17_8 1_555 1_555
H134_8 C128_8 1_555 1_555
C129_8 C128_8 1_555 1_555
C130_8 C129_8 1_555 1_555
C131_8 C130_8 1_555 1_555
C132_8 C131_8 1_555 1_555
H135_8 C132_8 1_555 1_555
C133_8 C132_8 1_555 1_555
C134_8 C129_8 1_555 1_555
H136_8 C134_8 1_555 1_555
C135_8 C131_8 1_555 1_555
H137_8 C135_8 1_555 1_555
N18_8 Zn4_8 1_555 1_555
O32_8 B6_8 1_555 1_555
O33_8 B5_8 1_555 1_555
N19_8 Zn3_8 1_555 1_555
C136_8 N19_8 1_555 1_555
H138_8 C136_8 1_555 1_555
C137_8 C136_8 1_555 1_555
C138_8 C137_8 1_555 1_555
C139_8 C138_8 1_555 1_555
C140_8 C139_8 1_555 1_555
C141_8 C137_8 1_555 1_555
C142_8 C139_8 1_555 1_555
H139_8 C142_8 1_555 1_555
N20_8 Zn4_8 1_555 1_555
O34_8 B6_8 1_555 1_555
C143_8 B6_8 1_555 1_555
C148_8 C143_8 1_555 1_555
H143_8 C148_8 1_555 1_555
C149_8 C117_8 1_555 1_555
O47_4 C149_8 1_555 1_555
O48_4 C149_8 1_555 1_555
O37_8 Zn3_8 1_555 1_555
C150_8 C125_8 1_555 1_555
O38_8 Zn3_8 1_555 1_555
C151_8 C133_8 1_555 1_555
O39_8 Zn3_8 1_555 1_555
C153_8 C140_8 1_555 1_555
C156_8 C150_8 1_555 1_555
H150_8 C156_8 1_555 1_555
H151_8 C156_8 1_555 1_555
H152_8 C156_8 1_555 1_555
C157_8 C151_8 1_555 1_555
H153_8 C157_8 1_555 1_555
H154_8 C157_8 1_555 1_555
H155_8 C157_8 1_555 1_555
C158_8 C151_8 1_555 1_555
H156_8 C158_8 1_555 1_555
H157_8 C158_8 1_555 1_555
H158_8 C158_8 1_555 1_555
C159_8 C151_8 1_555 1_555
H159_8 C159_8 1_555 1_555
H160_8 C159_8 1_555 1_555
H161_8 C159_8 1_555 1_555
C160_8 C153_8 1_555 1_555
C161_8 C160_8 1_555 1_555
H162_8 C161_8 1_555 1_555
H163_8 C161_8 1_555 1_555
H164_8 C161_8 1_555 1_555
C162_8 C160_8 1_555 1_555
H165_8 C162_8 1_555 1_555
H166_8 C162_8 1_555 1_555
H167_8 C162_8 1_555 1_555
C163_8 C160_8 1_555 1_555
H168_8 C163_8 1_555 1_555
H169_8 C163_8 1_555 1_555
H170_8 C163_8 1_555 1_555
Zn2_8 O11_8 1_555 1_555
Zn2_8 O12_8 1_555 1_555
Zn2_8 O13_8 1_555 1_555
Zn4_8 O37_8 1_555 1_555
Zn4_8 O38_8 1_555 1_555
Zn4_8 O39_8 1_555 1_555
C25_8 O11_8 1_555 1_555
C28_8 C29_8 1_555 1_555
C33_8 O12_8 1_555 1_555
C38_8 N6_8 1_555 1_555
N6_8 O6_8 1_555 1_555
O7_8 N7_8 1_555 1_555
C41_8 O13_8 1_555 1_555
C44_8 C45_8 1_555 1_555
C46_8 N8_8 1_555 1_555
N8_8 O8_8 1_555 1_555
O18_8 N11_8 1_555 1_555
C79_8 O23_8 1_555 1_555
C82_8 C83_8 1_555 1_555
O26_8 N13_8 1_555 1_555
C98_8 C99_8 1_555 1_555
C100_8 C101_8 1_555 1_555
C104_8 O28_8 1_555 1_555
C107_8 C108_8 1_555 1_555
C118_8 C119_8 1_555 1_555
C122_8 O37_8 1_555 1_555
C125_8 C126_8 1_555 1_555
O31_8 N17_8 1_555 1_555
C130_8 O38_8 1_555 1_555
C133_8 C134_8 1_555 1_555
C135_8 N18_8 1_555 1_555
N18_8 O32_8 1_555 1_555
O33_8 N19_8 1_555 1_555
C138_8 O39_8 1_555 1_555
C141_8 C153_8 1_555 1_555
C142_8 N20_8 1_555 1_555
N20_8 O34_8 1_555 1_555
C140_8 H187_8 1_555 1_555
C141_8 H188_8 1_555 1_555
Zn6_8 N10_8 1_555 1_555
Zn11_4 O1_8 1_555 1_555
Zn12_4 O1_8 1_555 1_555
Zn13_4 O1_8 1_555 1_555
Zn16_4 O1_8 1_555 1_555
O2_8 Zn12_4 1_555 1_555
C48_8 C56_8 1_555 1_555
C56_8 O14_8 1_555 1_555
O14_8 Zn12_4 1_555 1_555
O15_8 Zn13_4 1_555 1_555
C58_8 C48_8 1_555 1_555
H67_8 C58_8 1_555 1_555
C59_8 C48_8 1_555 1_555
H68_8 C59_8 1_555 1_555
H69_8 C60_8 1_555 1_555
C69_6 H88_6 1_555 1_555
C70_8 C69_6 1_555 1_555
C71_8 C70_8 1_555 1_555
C72_8 C71_8 1_555 1_555
C73_8 C72_8 1_555 1_555
H89_8 C73_8 1_555 1_555
C74_8 C73_8 1_555 1_555
C75_6 C70_8 1_555 1_555
H90_6 C75_6 1_555 1_555
C76_8 C72_8 1_555 1_555
H91_8 C76_8 1_555 1_555
N10_8 C76_8 1_555 1_555
O17_8 N10_8 1_555 1_555
B4_8 O17_8 1_555 1_555
N12_8 Zn6_8 1_555 1_555
O19_8 B4_8 1_555 1_555
C85_8 B4_8 1_555 1_555
C86_8 C85_8 1_555 1_555
H96_8 C86_8 1_555 1_555
C87_8 C86_8 1_555 1_555
H97_8 C87_8 1_555 1_555
C88_8 C87_8 1_555 1_555
C89_8 C88_8 1_555 1_555
H98_8 C89_8 1_555 1_555
C90_8 C85_8 1_555 1_555
H99_8 C90_8 1_555 1_555
C92_6 C74_8 1_555 1_555
C97_8 C88_8 1_555 1_555
O24_8 Zn11_4 1_555 1_555
O25_8 Zn13_4 1_555 1_555
N14_8 Zn6_8 1_555 1_555
O27_8 B4_8 1_555 1_555
H140_8 C144_8 1_555 1_555
C145_8 C144_8 1_555 1_555
H141_8 C145_8 1_555 1_555
C146_8 C145_8 1_555 1_555
C147_8 C146_8 1_555 1_555
H142_8 C147_8 1_555 1_555
C152_8 C146_8 1_555 1_555
O40_8 Zn11_4 1_555 1_555
O41_8 Zn12_4 1_555 1_555
H144_8 C154_8 1_555 1_555
H146_8 C154_8 1_555 1_555
H147_8 C155_8 1_555 1_555
H148_8 C155_8 1_555 1_555
H149_8 C155_8 1_555 1_555
N21_8 C164_8 1_555 1_555
C164_8 H171_8 1_555 1_555
H172_8 C164_8 1_555 1_555
H173_8 C164_8 1_555 1_555
C165_8 N21_8 1_555 1_555
H174_8 C165_8 1_555 1_555
H175_8 C165_8 1_555 1_555
H176_8 C165_8 1_555 1_555
C166_8 N21_8 1_555 1_555
H177_8 C166_8 1_555 1_555
O42_8 Zn12_4 1_555 1_555
C167_6 C92_6 1_555 1_555
H178_6 C167_6 1_555 1_555
H179_6 C167_6 1_555 1_555
H180_6 C167_6 1_555 1_555
C168_8 C92_6 1_555 1_555
H181_8 C168_8 1_555 1_555
H182_8 C168_8 1_555 1_555
H183_6 C168_8 1_555 1_555
C169_6 C92_6 1_555 1_555
H184_6 C169_6 1_555 1_555
H185_6 C169_6 1_555 1_555
H186_6 C169_6 1_555 1_555
Zn6_8 O22_8 1_555 1_555
C56_8 O15_8 1_555 1_555
C59_8 C60_8 1_555 1_555
C71_8 O22_8 1_555 1_555
C74_8 C75_6 1_555 1_555
N12_8 O19_8 1_555 1_555
C89_8 C90_8 1_555 1_555
C97_8 O24_8 1_555 1_555
C97_8 O25_8 1_555 1_555
N14_8 O27_8 1_555 1_555
C152_8 O40_8 1_555 1_555
C152_8 O41_8 1_555 1_555
C166_8 O42_8 1_555 1_555
O2_8 H189_8 1_555 1_555
O2_8 H190_8 1_555 1_555
C17_8 C18_8 1_555 1_555
C19_8 C18_8 1_555 1_555
H42_8 C19_8 1_555 1_555
C20_8 C19_8 1_555 1_555
C21_8 C20_8 1_555 1_555
H43_8 C21_8 1_555 1_555
C22_8 C17_8 1_555 1_555
H44_8 C22_8 1_555 1_555
H49_8 C31_8 1_555 1_555
C32_8 C31_8 1_555 1_555
C37_8 C32_8 1_555 1_555
H51_8 C37_8 1_555 1_555
C49_8 C20_8 1_555 1_555
O43_4 C49_8 1_555 1_555
O44_4 C49_8 1_555 1_555
C51_8 C36_8 1_555 1_555
C52_8 C51_8 1_555 1_555
H57_8 C52_8 1_555 1_555
H58_8 C52_8 1_555 1_555
H59_8 C52_8 1_555 1_555
C53_8 C51_8 1_555 1_555
H60_8 C53_8 1_555 1_555
H61_8 C53_8 1_555 1_555
H62_8 C53_8 1_555 1_555
C21_8 C22_8 1_555 1_555
C36_8 C37_8 1_555 1_555
H63_5 C54_5 1_555 1_555
H64_5 C54_5 1_555 1_555
H65_5 C54_5 1_555 1_555
C69_7 H88_7 1_555 1_555
H90_7 C75_7 1_555 1_555
C167_7 C92_7 1_555 1_555
H178_7 C167_7 1_555 1_555
H179_7 C167_7 1_555 1_555
H180_7 C167_7 1_555 1_555
C169_7 C92_7 1_555 1_555
H184_7 C169_7 1_555 1_555
H185_7 C169_7 1_555 1_555
H186_7 C169_7 1_555 1_555
H63_6 C54_6 1_555 1_555
H64_6 C54_6 1_555 1_555
H65_6 C54_6 1_555 1_555
H63_7 C54_7 1_555 1_555
H64_7 C54_7 1_555 1_555
H65_7 C54_7 1_555 1_555
H63_8 C54_8 1_555 1_555
H64_8 C54_8 1_555 1_555
H65_8 C54_8 1_555 1_555
C69_8 H88_8 1_555 1_555
H90_8 C75_8 1_555 1_555
C167_8 C92_8 1_555 1_555
H178_8 C167_8 1_555 1_555
H179_8 C167_8 1_555 1_555
H180_8 C167_8 1_555 1_555
C169_8 C92_8 1_555 1_555
H184_8 C169_8 1_555 1_555
H185_8 C169_8 1_555 1_555
H186_8 C169_8 1_555 1_555

#END
