
###############################################################################
#
# This file contains modified crystal structure data generated from the
# MOF subset of the Cambridge Structural Database (CSD) v543 
# hosted by the Cambridge Crystallographic Data Centre (CCDC).
#
# This work is licensed under the Creative Commons
# Attribution-NonCommercial-ShareAlike 4.0 International License.
# To view a copy of this license, visit
# http://creativecommons.org/licenses/by-nc-sa/4.0/
# or send a letter to
# Creative Commons, PO Box 1866, Mountain View, CA 94042, USA.
#
# CIF created using the CSD Python API on 29 September 2022
# The structure has been converted into the P1 space group
# The structure has a 3D framework
# The original CSD entry OKUJUC is in the monoclinic crystal system
# The framework has been calculated to contain at least 10.0% void space
# The void calculation uses a probe of radius 1.32A, grid spacing 0.4
#
###############################################################################

data_OKUJUC
_chemical_formula_moiety         '(C144 H124 Fe16 N64 O84)n'
_symmetry_cell_setting           triclinic
_symmetry_space_group_name_H-M   'P 1'
_symmetry_Int_Tables_number      1
_space_group_name_Hall           'P 1'
loop_
_symmetry_equiv_pos_site_id
_symmetry_equiv_pos_as_xyz
1 x,y,z
_cell_length_a                   15.6854(3)
_cell_length_b                   27.7963(14)
_cell_length_c                   16.1324(5)
_cell_angle_alpha                90
_cell_angle_beta                 90.508(2)
_cell_angle_gamma                90
_cell_volume                     7033.39
loop_
_atom_site_label
_atom_site_type_symbol
_atom_site_fract_x
_atom_site_fract_y
_atom_site_fract_z
N10 N 0.0370(5) 0.1586(4) 0.5636(6)
C29 C 0.0369(6) 0.1936(5) 0.6237(6)
H21 H 0.078196 0.194406 0.665361
H49 H 0.052403 0.605062 0.371065
O42 O 0.001(2) 0.4695(10) 0.1066(17)
Fe16 Fe 0.02785(6) 0.23350(5) 0.25642(7)
N33 N 0.0393(5) 0.6488(3) 0.1948(5)
Fe1 Fe 0.40548(6) 0.36437(5) 0.75184(7)
Fe2 Fe 0.61707(6) 0.37319(5) 0.74795(7)
Fe3 Fe 0.52785(6) 0.26650(5) 0.75642(7)
Fe4 Fe 0.07036(9) 0.39565(7) 0.76769(11)
O1 O 0.5171(3) 0.3341(2) 0.7531(3)
O2 O 0.1861(3) 0.1607(2) 0.3408(4)
O3 O 0.6817(3) 0.3309(2) 0.6657(3)
O4 O 0.4309(3) 0.4150(2) 0.6616(4)
O5 O 0.5726(3) 0.4101(2) 0.6475(4)
O6 O 0.3612(3) 0.3201(3) 0.6593(4)
O7 O 0.8563(3) 0.1823(2) 0.3390(4)
O8 O 0.5763(3) 0.4218(2) 0.8345(4)
O9 O 0.1273(3) 0.2343(2) 0.3359(4)
O10 O 0.9481(4) 0.2422(3) 0.3553(4)
O11 O 0.6104(4) 0.2620(2) 0.6586(4)
O12 O 0.5408(4) 0.1918(2) 0.7672(4)
H1 H 0.588421 0.173720 0.779616
H2 H 0.499041 0.169182 0.758576
O13 O 0.4358(3) 0.4103(3) 0.8469(4)
O14 O 0.4327(4) 0.2508(3) 0.6743(4)
O15 O 0.7168(3) 0.4213(2) 0.7380(4)
H3 H 0.778283 0.417731 0.757201
H4 H 0.716973 0.454688 0.713203
O16 O 0.2851(3) 0.3918(3) 0.7555(4)
N1 N 0.3673(4) 0.1918(3) 0.3763(4)
N2 N 0.9313(4) 0.2103(3) 0.5508(4)
N3 N 0.3469(4) 0.4478(3) 0.5116(5)
N4 N 0.1932(4) 0.2846(3) 0.6321(4)
N5 N 0.6174(5) 0.2959(4) 0.4614(5)
C1 C 0.8818(4) 0.2184(3) 0.3748(5)
C2 C 0.4973(4) 0.4625(3) 0.5594(5)
N6 N 0.3622(5) 0.2068(3) 0.2956(5)
C3 C 0.3769(4) 0.2764(4) 0.6416(5)
C4 C 0.2348(4) 0.2217(3) 0.4351(5)
C5 C 0.6665(4) 0.2898(3) 0.6368(5)
C6 C 0.7236(5) 0.2722(4) 0.5686(5)
C7 C 0.1785(4) 0.2034(4) 0.3643(5)
C8 C 0.3263(4) 0.2546(3) 0.5730(5)
C9 C 0.4983(4) 0.4264(3) 0.6274(5)
N7 N 0.1222(5) 0.3308(4) 0.7098(5)
N8 N 0.9759(4) 0.2257(4) 0.6196(5)
C10 C 0.5714(4) 0.4891(3) 0.5464(5)
H5 H 0.620274 0.481305 0.576598
C11 C 0.2383(5) 0.2617(4) 0.5663(6)
C12 C 0.8018(5) 0.2516(4) 0.5886(5)
H6 H 0.818876 0.249572 0.643855
C13 C 0.4253(4) 0.4742(4) 0.5088(5)
C14 C 0.8542(5) 0.2343(3) 0.5278(6)
N9 N 0.4607(5) 0.1488(3) 0.3052(5)
C15 C 0.5042(5) 0.4667(3) 0.9381(5)
H7 H 0.533081 0.453741 0.985822
H8 H 0.446201 0.473930 0.951939
H9 H 0.532416 0.495507 0.920518
C16 C 0.5055(5) 0.4294(3) 0.8673(5)
N11 N 0.5707(5) 0.2730(4) 0.3994(6)
C17 C 0.8306(5) 0.2379(4) 0.4442(5)
C18 C 0.3206(4) 0.2140(3) 0.4413(5)
O17 O 0.1735(5) 0.4404(4) 0.7292(7)
C19 C 0.3657(5) 0.2300(3) 0.5106(5)
H10 H 0.423868 0.223899 0.514607
O18 O 0.1195(5) 0.3773(4) 0.8842(5)
N12 N 0.5060(6) 0.3397(5) 0.4499(6)
C20 C 0.1935(5) 0.2460(4) 0.4969(5)
H11 H 0.135292 0.251935 0.492275
C21 C 0.9689(6) 0.1732(4) 0.5190(6)
H12 H 0.950779 0.158212 0.470457
N13 N 0.1931(5) 0.2638(4) 0.7095(5)
C22 C 0.7005(5) 0.2759(4) 0.4848(6)
C23 C 0.7515(5) 0.2587(4) 0.4225(6)
H13 H 0.734148 0.260739 0.367314
O19 O 0.0123(5) 0.4583(4) 0.8233(7)
C24 C 0.2510(6) 0.3920(5) 0.5013(7)
H14 H 0.223567 0.362406 0.497417
C25 C 0.4274(5) 0.1569(4) 0.3805(6)
H15 H 0.443385 0.140755 0.428665
C26 C 0.1510(5) 0.3228(4) 0.6305(7)
H16 H 0.140919 0.342198 0.584422
C27 C 0.2723(4) 0.4703(4) 0.5056(8)
H17 H 0.261143 0.503149 0.505292
O20 O 0.0040(6) 0.4124(4) 0.6582(6)
H19 H 0.015863 0.441224 0.612812
N14 N 0.3321(6) 0.4008(5) 0.5092(6)
C28 C 0.4168(5) 0.1816(4) 0.2577(7)
H20 H 0.426421 0.185035 0.201252
C30 C 0.1486(6) 0.2931(4) 0.7531(6)
H22 H 0.136337 0.288276 0.808750
C31 C 0.5762(8) 0.3328(6) 0.4896(7)
H23 H 0.595193 0.351943 0.533241
C32 C 0.5042(6) 0.3029(6) 0.3964(8)
H24 H 0.459238 0.298529 0.359213
C33 C 0.2544(6) 0.4273(6) 0.7206(9)
H25 H 0.289282 0.445684 0.686701
N15 N 0.2185(7) 0.4342(7) 0.5002(11)
C34 C 0.1821(8) 0.3771(8) 0.9252(10)
H26 H 0.231878 0.388219 0.900752
C36 C 0.0438(17) 0.4970(8) 0.8534(17)
H31 H 0.101976 0.502227 0.846975
O22 O 0.5691(3) 0.5850(2) 0.3384(4)
O23 O 0.4274(3) 0.5899(2) 0.3525(4)
N17 N 0.6531(4) 0.5522(3) 0.4884(5)
C37 C 0.5027(4) 0.5375(3) 0.4406(5)
C38 C 0.5017(4) 0.5736(3) 0.3726(5)
C39 C 0.4286(4) 0.5109(3) 0.4536(5)
H32 H 0.379726 0.518695 0.423402
C40 C 0.5747(4) 0.5258(4) 0.4912(5)
C41 C 0.7490(6) 0.6080(5) 0.4987(7)
H33 H 0.776433 0.637594 0.502583
C42 C 0.7277(4) 0.5297(4) 0.4944(8)
H34 H 0.738857 0.496851 0.494708
N18 N 0.6679(6) 0.5992(5) 0.4908(6)
N19 N 0.7815(7) 0.5658(7) 0.4998(11)
Fe5 Fe 0.59452(6) 0.63563(5) 0.24816(7)
Fe6 Fe 0.38293(6) 0.62681(5) 0.25205(7)
Fe7 Fe 0.47215(6) 0.73350(5) 0.24358(7)
Fe8 Fe 0.92964(9) 0.60435(7) 0.23231(11)
O24 O 0.4829(3) 0.6659(2) 0.2469(3)
O25 O 0.8139(3) 0.8393(2) 0.6592(4)
O26 O 0.3183(3) 0.6691(2) 0.3343(3)
O27 O 0.6388(3) 0.6799(3) 0.3407(4)
O28 O 0.1437(3) 0.8177(2) 0.6610(4)
O29 O 0.4237(3) 0.5782(2) 0.1655(4)
O30 O 0.8727(3) 0.7657(2) 0.6641(4)
O31 O 0.0519(4) 0.7578(3) 0.6447(4)
O32 O 0.3896(4) 0.7380(2) 0.3414(4)
O33 O 0.4592(4) 0.8082(2) 0.2328(4)
H35 H 0.411579 0.826280 0.220384
H36 H 0.500959 0.830818 0.241424
O34 O 0.5642(3) 0.5897(3) 0.1531(4)
O35 O 0.5673(4) 0.7492(3) 0.3257(4)
O36 O 0.2832(3) 0.5787(2) 0.2620(4)
H37 H 0.221717 0.582269 0.242799
H38 H 0.283027 0.545312 0.286797
O37 O 0.7149(3) 0.6082(3) 0.2445(4)
N20 N 0.6327(4) 0.8082(3) 0.6237(4)
N21 N 0.0687(4) 0.7897(3) 0.4492(4)
N22 N 0.8068(4) 0.7154(3) 0.3679(4)
N23 N 0.3826(5) 0.7041(4) 0.5386(5)
C43 C 0.1182(4) 0.7816(3) 0.6252(5)
N24 N 0.6378(5) 0.7932(3) 0.7044(5)
C44 C 0.6231(4) 0.7236(4) 0.3584(5)
C45 C 0.7652(4) 0.7783(3) 0.5649(5)
C46 C 0.3335(4) 0.7102(3) 0.3632(5)
C47 C 0.2764(5) 0.7278(4) 0.4314(5)
C48 C 0.8215(4) 0.7966(4) 0.6357(5)
C49 C 0.6737(4) 0.7454(3) 0.4270(5)
N25 N 0.8778(5) 0.6692(4) 0.2902(5)
N26 N 0.0241(4) 0.7743(4) 0.3804(5)
C50 C 0.7617(5) 0.7383(4) 0.4337(6)
C51 C 0.1982(5) 0.7484(4) 0.4114(5)
H39 H 0.181124 0.750428 0.356145
C52 C 0.1458(5) 0.7657(3) 0.4722(6)
N27 N 0.5393(5) 0.8512(3) 0.6948(5)
C53 C 0.4958(5) 0.5333(3) 0.0619(5)
H40 H 0.466919 0.546259 0.014178
H41 H 0.553799 0.526070 0.048061
H42 H 0.467584 0.504493 0.079482
C54 C 0.4945(5) 0.5706(3) 0.1327(5)
N29 N 0.4293(5) 0.7270(4) 0.6006(6)
C55 C 0.1694(5) 0.7621(4) 0.5558(5)
C56 C 0.6794(4) 0.7860(3) 0.5587(5)
O38 O 0.8265(5) 0.5596(4) 0.2708(7)
C57 C 0.6343(5) 0.7700(3) 0.4894(5)
H43 H 0.576132 0.776101 0.485393
O39 O 0.8805(5) 0.6227(4) 0.1158(5)
N30 N 0.4940(6) 0.6603(5) 0.5501(6)
C58 C 0.8065(5) 0.7540(4) 0.5031(5)
H44 H 0.864708 0.748065 0.507725
C59 C 0.0311(6) 0.8268(4) 0.4810(6)
H45 H 0.049221 0.841788 0.529543
N31 N 0.8069(5) 0.7362(4) 0.2905(5)
C60 C 0.2995(5) 0.7241(4) 0.5152(6)
C61 C 0.2485(5) 0.7413(4) 0.5775(6)
H46 H 0.265852 0.739261 0.632686
O40 O 0.9877(5) 0.5417(4) 0.1767(7)
C62 C 0.5726(5) 0.8431(4) 0.6195(6)
H47 H 0.556615 0.859245 0.571335
C63 C 0.8490(5) 0.6772(4) 0.3695(7)
H48 H 0.859081 0.657802 0.415578
O41 O 0.9960(6) 0.5876(4) 0.3418(6)
H50 H 0.984137 0.558776 0.387188
C64 C 0.5832(5) 0.8184(4) 0.7423(7)
H51 H 0.573579 0.814965 0.798748
C66 C 0.8514(6) 0.7069(4) 0.2469(6)
H53 H 0.863663 0.711724 0.191250
C67 C 0.4238(8) 0.6672(6) 0.5104(7)
H54 H 0.404807 0.648057 0.466759
C68 C 0.4958(6) 0.6971(6) 0.6036(8)
H55 H 0.540762 0.701471 0.640787
C69 C 0.7456(6) 0.5727(6) 0.2794(9)
H56 H 0.710718 0.554316 0.313299
C70 C 0.8179(8) 0.6229(8) 0.0748(10)
H57 H 0.768122 0.611781 0.099248
C72 C 0.9562(17) 0.5030(8) 0.1466(17)
H62 H 0.898024 0.497773 0.153025
Fe9 Fe 0.09452(6) 0.86437(5) 0.74816(7)
Fe10 Fe 0.90548(6) 0.13563(5) 0.25184(7)
Fe11 Fe 0.88293(6) 0.87319(5) 0.75205(7)
Fe12 Fe 0.11707(6) 0.12681(5) 0.24795(7)
Fe14 Fe 0.97215(6) 0.76650(5) 0.74358(7)
Fe17 Fe 0.42964(9) 0.89565(7) 0.73231(11)
Fe18 Fe 0.57036(9) 0.10435(7) 0.26769(11)
O43 O 0.3139(3) 0.6607(2) 0.1592(4)
O44 O 0.6861(3) 0.3393(2) 0.8408(4)
O45 O 0.6437(3) 0.6823(2) 0.1610(4)
O46 O 0.3563(3) 0.3177(2) 0.8390(4)
O47 O 0.3727(3) 0.7343(2) 0.1641(4)
O48 O 0.6273(3) 0.2657(2) 0.8359(4)
O49 O 0.5519(4) 0.7422(3) 0.1447(4)
O50 O 0.4481(4) 0.2578(3) 0.8553(4)
H18 H 0.947597 0.394938 0.628935
O21 O 0.999(2) 0.5305(10) 0.8934(17)
N28 N 0.9630(5) 0.8414(4) 0.4364(6)
C65 C 0.9631(6) 0.8064(5) 0.3763(6)
H52 H 0.921804 0.805594 0.334639
N34 N 0.9607(5) 0.3512(3) 0.8052(5)
O23_2 O 0.0726(3) 0.0899(2) 0.1475(4)
C39_2 C 0.0714(4) 0.0109(3) 0.0464(5)
H32_2 H 0.120274 0.018695 0.076598
O24_2 O 0.0171(3) 0.1659(2) 0.2531(3)
O26_2 O 0.1817(3) 0.1691(2) 0.1657(3)
O29_2 O 0.0763(3) 0.0782(2) 0.3345(4)
O32_2 O 0.1104(4) 0.2380(2) 0.1586(4)
O33_2 O 0.0408(4) 0.3082(2) 0.2672(4)
H35_2 H 0.088421 0.326280 0.279616
O36_2 O 0.2168(3) 0.0787(2) 0.2380(4)
H37_2 H 0.278283 0.082269 0.257201
H38_2 H 0.216973 0.045312 0.213203
N21_2 N 0.4313(4) 0.2897(3) 0.0508(4)
C46_2 C 0.1665(4) 0.2102(3) 0.1368(5)
C47_2 C 0.2236(5) 0.2278(4) 0.0686(5)
N26_2 N 0.4759(4) 0.2743(4) 0.1196(5)
C51_2 C 0.3018(5) 0.2484(4) 0.0886(5)
H39_2 H 0.318876 0.250428 0.143855
C52_2 C 0.3542(5) 0.2657(3) 0.0278(6)
C53_2 C 0.0042(5) 0.0333(3) 0.4381(5)
H40_2 H 0.033081 0.046259 0.485822
H42_2 H 0.032416 0.004493 0.420518
C54_2 C 0.0055(5) 0.0706(3) 0.3673(5)
N28_2 N 0.5370(5) 0.3414(4) 0.0636(6)
C59_2 C 0.4689(6) 0.3268(4) 0.0190(6)
C65_2 C 0.5369(6) 0.3064(5) 0.1237(6)
H52_2 H 0.578196 0.305594 0.165361
H54_2 H 0.095193 0.148057 0.033241
H17_2 H 0.238857 0.003149 0.994708
O21_2 O 0.501(2) 0.0305(10) 0.6066(17)
H31_2 H 0.398024 0.002227 0.653025
N23_2 N 0.1174(5) 0.2041(4) 0.9614(5)
C43_2 C 0.3818(4) 0.2816(3) 0.8748(5)
N29_2 N 0.0707(5) 0.2270(4) 0.8994(6)
C55_2 C 0.3306(5) 0.2621(4) 0.9442(5)
N30_2 N 0.0060(6) 0.1603(5) 0.9499(6)
H45_2 H 0.450779 0.341788 0.970457
C60_2 C 0.2005(5) 0.2241(4) 0.9848(6)
C61_2 C 0.2515(5) 0.2413(4) 0.9225(6)
H46_2 H 0.234148 0.239261 0.867314
C67_2 C 0.0762(8) 0.1672(6) 0.9896(7)
C68_2 C 0.0042(6) 0.1971(6) 0.8964(8)
N1_2 N 0.1327(4) 0.6918(3) 0.1237(4)
N6_2 N 0.1378(5) 0.7068(3) 0.2044(5)
C4_2 C 0.2652(4) 0.7217(3) 0.0649(5)
C7_2 C 0.3215(4) 0.7034(4) 0.1357(5)
C18_2 C 0.1794(4) 0.7140(3) 0.0587(5)
C20_2 C 0.3065(5) 0.7460(4) 0.0031(5)
H11_2 H 0.364708 0.751935 0.007725
H14_2 H 0.276433 0.862406 0.002583
C25_2 C 0.0726(5) 0.6569(4) 0.1195(6)
H15_2 H 0.056615 0.640755 0.071335
C28_2 C 0.0832(5) 0.6816(4) 0.2423(7)
H20_2 H 0.073579 0.685035 0.298748
H24_2 H 0.040762 0.798529 0.140787
O4_2 O 0.0691(3) 0.9150(2) 0.8384(4)
O6_2 O 0.1388(3) 0.8201(3) 0.8407(4)
H2_2 H 0.000959 0.669182 0.741424
O13_2 O 0.0642(3) 0.9103(3) 0.6531(4)
O14_2 O 0.0673(4) 0.7508(3) 0.8257(4)
O16_2 O 0.2149(3) 0.8918(3) 0.7445(4)
N3_2 N 0.1531(4) 0.9478(3) 0.9884(5)
N4_2 N 0.3068(4) 0.7846(3) 0.8679(4)
C2_2 C 0.0027(4) 0.9625(3) 0.9406(5)
C3_2 C 0.1231(4) 0.7764(4) 0.8584(5)
C8_2 C 0.1737(4) 0.7546(3) 0.9270(5)
C9_2 C 0.0017(4) 0.9264(3) 0.8726(5)
N7_2 N 0.3778(5) 0.8308(4) 0.7902(5)
C11_2 C 0.2617(5) 0.7617(4) 0.9337(6)
C13_2 C 0.0747(4) 0.9742(4) 0.9912(5)
H8_2 H 0.053799 0.973930 0.548061
O17_2 O 0.3265(5) 0.9404(4) 0.7708(7)
C19_2 C 0.1343(5) 0.7300(3) 0.9894(5)
H10_2 H 0.076132 0.723899 0.985393
O18_2 O 0.3805(5) 0.8773(4) 0.6158(5)
N13_2 N 0.3069(5) 0.7638(4) 0.7905(5)
O19_2 O 0.4877(5) 0.9583(4) 0.6767(7)
C24_2 C 0.2490(6) 0.8920(5) 0.9987(7)
C26_2 C 0.3490(5) 0.8228(4) 0.8695(7)
H16_2 H 0.359081 0.842198 0.915578
C27_2 C 0.2277(4) 0.9703(4) 0.9944(8)
O20_2 O 0.4960(6) 0.9124(4) 0.8418(6)
H18_2 H 0.552403 0.894938 0.871065
H19_2 H 0.484137 0.941224 0.887188
N14_2 N 0.1679(6) 0.9008(5) 0.9908(6)
C30_2 C 0.3514(6) 0.7931(4) 0.7469(6)
H22_2 H 0.363663 0.788276 0.691250
C33_2 C 0.2456(6) 0.9273(6) 0.7794(9)
H25_2 H 0.210718 0.945684 0.813299
N15_2 N 0.2815(7) 0.9342(7) 0.9998(11)
C34_2 C 0.3179(8) 0.8771(8) 0.5748(10)
H26_2 H 0.268122 0.888219 0.599248
N16 N 0.3126(8) 0.8621(7) 0.4951(8)
H27 H 0.263855 0.865152 0.470780
C35 C 0.3846(13) 0.8400(8) 0.4435(15)
H28 H 0.405233 0.811404 0.470242
H29 H 0.430363 0.862816 0.438851
H30 H 0.363356 0.832150 0.389212
C36_2 C 0.4562(17) 0.9970(8) 0.6466(17)
O22_2 O 0.9309(3) 0.0850(2) 0.1616(4)
N17_2 N 0.8469(4) 0.0522(3) 0.0116(5)
C37_2 C 0.9973(4) 0.0375(3) 0.0594(5)
C38_2 C 0.9983(4) 0.0736(3) 0.1274(5)
C40_2 C 0.9253(4) 0.0258(4) 0.0088(5)
C41_2 C 0.7510(6) 0.1080(5) 0.0013(7)
C42_2 C 0.7723(4) 0.0297(4) 0.0056(8)
N18_2 N 0.8321(6) 0.0992(5) 0.0092(6)
N19_2 N 0.7185(7) 0.0658(7) 0.0002(11)
O27_2 O 0.8612(3) 0.1799(3) 0.1593(4)
H36_2 H 0.999041 0.330818 0.258576
O34_2 O 0.9358(3) 0.0897(3) 0.3469(4)
O35_2 O 0.9327(4) 0.2492(3) 0.1743(4)
O37_2 O 0.7851(3) 0.1082(3) 0.2555(4)
N22_2 N 0.6932(4) 0.2154(3) 0.1321(4)
C44_2 C 0.8769(4) 0.2236(4) 0.1416(5)
C49_2 C 0.8263(4) 0.2454(3) 0.0730(5)
N25_2 N 0.6222(5) 0.1692(4) 0.2098(5)
C50_2 C 0.7383(5) 0.2383(4) 0.0663(6)
H41_2 H 0.946201 0.026070 0.451939
O38_2 O 0.6735(5) 0.0596(4) 0.2292(7)
C57_2 C 0.8657(5) 0.2700(3) 0.0106(5)
H43_2 H 0.923868 0.276101 0.014607
O39_2 O 0.6195(5) 0.1227(4) 0.3842(5)
N31_2 N 0.6931(5) 0.2362(4) 0.2095(5)
O40_2 O 0.5123(5) 0.0417(4) 0.3233(7)
C63_2 C 0.6510(5) 0.1772(4) 0.1305(7)
H48_2 H 0.640919 0.157802 0.084422
O41_2 O 0.5040(6) 0.0876(4) 0.1582(6)
H49_2 H 0.447597 0.105062 0.128935
H50_2 H 0.515863 0.058776 0.112812
C66_2 C 0.6486(6) 0.2069(4) 0.2531(6)
H53_2 H 0.636337 0.211724 0.308750
C69_2 C 0.7544(6) 0.0727(6) 0.2206(9)
H56_2 H 0.789282 0.054316 0.186701
C70_2 C 0.6821(8) 0.1229(8) 0.4252(10)
H57_2 H 0.731878 0.111781 0.400752
N32 N 0.6874(8) 0.1379(7) 0.5049(8)
H58 H 0.736145 0.134848 0.529220
C71 C 0.6154(13) 0.1600(8) 0.5565(15)
H59 H 0.594767 0.188596 0.529758
H60 H 0.569637 0.137184 0.561149
H61 H 0.636644 0.167850 0.610788
C72_2 C 0.5438(17) 0.0030(8) 0.3534(17)
H33_2 H 0.723567 0.137594 0.997417
N20_2 N 0.8673(4) 0.3082(3) 0.8763(4)
N24_2 N 0.8622(5) 0.2932(3) 0.7956(5)
C45_2 C 0.7348(4) 0.2783(3) 0.9351(5)
C48_2 C 0.6785(4) 0.2966(4) 0.8643(5)
C56_2 C 0.8206(4) 0.2860(3) 0.9413(5)
C58_2 C 0.6935(5) 0.2540(4) 0.9969(5)
H44_2 H 0.635292 0.248065 0.992275
C62_2 C 0.9274(5) 0.3431(4) 0.8805(6)
H47_2 H 0.943385 0.359245 0.928665
C64_2 C 0.9168(5) 0.3184(4) 0.7577(7)
H51_2 H 0.926421 0.314965 0.701252
H55_2 H 0.959238 0.201471 0.859213
N5_2 N 0.8826(5) 0.7959(4) 0.0386(5)
C1_2 C 0.6182(4) 0.7184(3) 0.1252(5)
N11_2 N 0.9293(5) 0.7730(4) 0.1006(6)
C17_2 C 0.6694(5) 0.7379(4) 0.0558(5)
N12_2 N 0.9940(6) 0.8397(5) 0.0501(6)
H12_2 H 0.549221 0.658212 0.029543
C22_2 C 0.7995(5) 0.7759(4) 0.0152(6)
C23_2 C 0.7485(5) 0.7587(4) 0.0775(6)
H13_2 H 0.765852 0.760739 0.132686
C31_2 C 0.9238(8) 0.8328(6) 0.0104(7)
C32_2 C 0.9958(6) 0.8029(6) 0.1036(8)
H34_2 H 0.761143 0.996851 0.005292
O42_2 O 0.499(2) 0.9695(10) 0.3934(17)
H62_2 H 0.601976 0.997773 0.346975
O1_2 O 0.9829(3) 0.8341(2) 0.7469(3)
O3_2 O 0.8183(3) 0.8309(2) 0.8343(3)
O5_2 O 0.9274(3) 0.9101(2) 0.8525(4)
O8_2 O 0.9237(3) 0.9218(2) 0.6655(4)
O11_2 O 0.8896(4) 0.7620(2) 0.8414(4)
O12_2 O 0.9592(4) 0.6918(2) 0.7328(4)
H1_2 H 0.911579 0.673720 0.720384
O15_2 O 0.7832(3) 0.9213(2) 0.7620(4)
H3_2 H 0.721717 0.917731 0.742799
H4_2 H 0.783027 0.954688 0.786797
N2_2 N 0.5687(4) 0.7103(3) 0.9492(4)
C5_2 C 0.8335(4) 0.7898(3) 0.8632(5)
C6_2 C 0.7764(5) 0.7722(4) 0.9314(5)
N8_2 N 0.5241(4) 0.7257(4) 0.8804(5)
C10_2 C 0.9286(4) 0.9891(3) 0.9536(5)
H5_2 H 0.879726 0.981305 0.923402
C12_2 C 0.6982(5) 0.7516(4) 0.9114(5)
H6_2 H 0.681124 0.749572 0.856145
C14_2 C 0.6458(5) 0.7343(3) 0.9722(6)
C15_2 C 0.9958(5) 0.9667(3) 0.5619(5)
H7_2 H 0.966919 0.953741 0.514178
H9_2 H 0.967584 0.995507 0.579482
C16_2 C 0.9945(5) 0.9294(3) 0.6327(5)
N10_2 N 0.4630(5) 0.6586(4) 0.9364(6)
C21_2 C 0.5311(6) 0.6732(4) 0.9810(6)
C29_2 C 0.4631(6) 0.6936(5) 0.8763(6)
H21_2 H 0.421804 0.694406 0.834639
H23_2 H 0.904807 0.851943 0.966759
N16_2 N 0.1874(8) 0.3621(7) 0.0049(8)
H27_2 H 0.236145 0.365152 0.029220
C35_2 C 0.1154(13) 0.3400(8) 0.0565(15)
H28_2 H 0.094767 0.311404 0.029758
H29_2 H 0.069637 0.362816 0.061149
H30_2 H 0.136644 0.332150 0.110788
N32_2 N 0.8126(8) 0.6379(7) 0.9951(8)
H58_2 H 0.763855 0.634848 0.970780
C71_2 C 0.8846(13) 0.6600(8) 0.9435(15)
H59_2 H 0.905233 0.688596 0.970242
H60_2 H 0.930363 0.637184 0.938851
H61_2 H 0.863356 0.667850 0.889212
loop_
_geom_bond_atom_site_label_1
_geom_bond_atom_site_label_2
_geom_bond_site_symmetry_1
_geom_bond_site_symmetry_2
C29 N10 1_555 1_555
H21 C29 1_555 1_555
Fe1 O1 1_555 1_555
Fe2 O1 1_555 1_555
Fe3 O1 1_555 1_555
Fe4 N7 1_555 1_555
O2 C7 1_555 1_555
O3 Fe2 1_555 1_555
O4 Fe1 1_555 1_555
O5 Fe2 1_555 1_555
O6 Fe1 1_555 1_555
O7 C1 1_555 1_555
O8 Fe2 1_555 1_555
O9 C7 1_555 1_555
O10 C1 1_555 1_555
O11 Fe3 1_555 1_555
O12 Fe3 1_555 1_555
H1 O12 1_555 1_555
H2 O12 1_555 1_555
O13 Fe1 1_555 1_555
O14 Fe3 1_555 1_555
O15 Fe2 1_555 1_555
H3 O15 1_555 1_555
H4 O15 1_555 1_555
O16 Fe1 1_555 1_555
N1 N6 1_555 1_555
N2 N8 1_555 1_555
N3 C13 1_555 1_555
N4 C11 1_555 1_555
N5 N11 1_555 1_555
C1 C17 1_555 1_555
C2 C9 1_555 1_555
N6 C28 1_555 1_555
C3 O6 1_555 1_555
C4 C7 1_555 1_555
C5 O3 1_555 1_555
C6 C5 1_555 1_555
C8 C3 1_555 1_555
C9 O4 1_555 1_555
N7 C26 1_555 1_555
C10 C2 1_555 1_555
H5 C10 1_555 1_555
C11 C8 1_555 1_555
C12 C6 1_555 1_555
H6 C12 1_555 1_555
C13 C2 1_555 1_555
C14 N2 1_555 1_555
N9 C25 1_555 1_555
C15 H7 1_555 1_555
H8 C15 1_555 1_555
H9 C15 1_555 1_555
C16 O8 1_555 1_555
N11 C32 1_555 1_555
C17 C14 1_555 1_555
C18 N1 1_555 1_555
O17 Fe4 1_555 1_555
C19 C8 1_555 1_555
H10 C19 1_555 1_555
O18 Fe4 1_555 1_555
N12 C31 1_555 1_555
C20 C4 1_555 1_555
H11 C20 1_555 1_555
C21 N2 1_555 1_555
H12 C21 1_555 1_555
N13 N4 1_555 1_555
C22 N5 1_555 1_555
C23 C17 1_555 1_555
H13 C23 1_555 1_555
O19 Fe4 1_555 1_555
C24 H14 1_555 1_555
C25 N1 1_555 1_555
H15 C25 1_555 1_555
C26 N4 1_555 1_555
H16 C26 1_555 1_555
C27 N3 1_555 1_555
H17 C27 1_555 1_555
O20 Fe4 1_555 1_555
H19 O20 1_555 1_555
N14 N3 1_555 1_555
C28 N9 1_555 1_555
H20 C28 1_555 1_555
C30 N7 1_555 1_555
H22 C30 1_555 1_555
C31 N5 1_555 1_555
H23 C31 1_555 1_555
C32 N12 1_555 1_555
H24 C32 1_555 1_555
C33 O16 1_555 1_555
H25 C33 1_555 1_555
N15 C24 1_555 1_555
C34 O18 1_555 1_555
H26 C34 1_555 1_555
C36 O19 1_555 1_555
H31 C36 1_555 1_555
O22 C38 1_555 1_555
O23 C38 1_555 1_555
N17 C40 1_555 1_555
C37 C38 1_555 1_555
C39 C13 1_555 1_555
H32 C39 1_555 1_555
C40 C10 1_555 1_555
C41 H33 1_555 1_555
C42 N17 1_555 1_555
H34 C42 1_555 1_555
N18 N17 1_555 1_555
N19 C41 1_555 1_555
Fe5 O22 1_555 1_555
Fe6 O23 1_555 1_555
Fe7 O24 1_555 1_555
Fe8 N25 1_555 1_555
O24 Fe5 1_555 1_555
O25 C48 1_555 1_555
O26 Fe6 1_555 1_555
O27 Fe5 1_555 1_555
O28 C43 1_555 1_555
O29 Fe6 1_555 1_555
O30 C48 1_555 1_555
O31 C43 1_555 1_555
O32 Fe7 1_555 1_555
O33 Fe7 1_555 1_555
H35 O33 1_555 1_555
H36 O33 1_555 1_555
O34 Fe5 1_555 1_555
O35 Fe7 1_555 1_555
O36 Fe6 1_555 1_555
H37 O36 1_555 1_555
H38 O36 1_555 1_555
O37 Fe5 1_555 1_555
N20 N24 1_555 1_555
N21 N26 1_555 1_555
N22 C50 1_555 1_555
N23 N29 1_555 1_555
C43 C55 1_555 1_555
N24 C64 1_555 1_555
C44 O27 1_555 1_555
C45 C48 1_555 1_555
C46 O26 1_555 1_555
C47 C46 1_555 1_555
C49 C44 1_555 1_555
N25 C63 1_555 1_555
C50 C49 1_555 1_555
C51 C47 1_555 1_555
H39 C51 1_555 1_555
C52 N21 1_555 1_555
N27 C62 1_555 1_555
C53 H40 1_555 1_555
H41 C53 1_555 1_555
H42 C53 1_555 1_555
C54 O29 1_555 1_555
N29 C68 1_555 1_555
C55 C52 1_555 1_555
C56 N20 1_555 1_555
O38 Fe8 1_555 1_555
C57 C49 1_555 1_555
H43 C57 1_555 1_555
O39 Fe8 1_555 1_555
N30 C67 1_555 1_555
C58 C45 1_555 1_555
H44 C58 1_555 1_555
C59 N21 1_555 1_555
H45 C59 1_555 1_555
N31 N22 1_555 1_555
C60 N23 1_555 1_555
C61 C55 1_555 1_555
H46 C61 1_555 1_555
O40 Fe8 1_555 1_555
C62 N20 1_555 1_555
H47 C62 1_555 1_555
C63 N22 1_555 1_555
H48 C63 1_555 1_555
O41 Fe8 1_555 1_555
H50 O41 1_555 1_555
C64 N27 1_555 1_555
H51 C64 1_555 1_555
C66 N25 1_555 1_555
H53 C66 1_555 1_555
C67 N23 1_555 1_555
H54 C67 1_555 1_555
C68 N30 1_555 1_555
H55 C68 1_555 1_555
C69 O37 1_555 1_555
H56 C69 1_555 1_555
C70 O39 1_555 1_555
H57 C70 1_555 1_555
C72 O40 1_555 1_555
H62 C72 1_555 1_555
Fe9 O28 1_555 1_555
Fe10 O7 1_555 1_555
Fe11 O25 1_555 1_555
Fe12 O2 1_555 1_555
Fe14 O30 1_555 1_555
Fe16 O9 1_555 1_555
Fe17 N27 1_555 1_555
Fe18 N9 1_555 1_555
O43 Fe6 1_555 1_555
O44 Fe2 1_555 1_555
O45 Fe5 1_555 1_555
O46 Fe1 1_555 1_555
O47 Fe7 1_555 1_555
O48 Fe3 1_555 1_555
O49 Fe7 1_555 1_555
O50 Fe3 1_555 1_555
O5 C9 1_555 1_555
O11 C5 1_555 1_555
O13 C16 1_555 1_555
O14 C3 1_555 1_555
C4 C18 1_555 1_555
C6 C22 1_555 1_555
C11 C20 1_555 1_555
C12 C14 1_555 1_555
C15 C16 1_555 1_555
C18 C19 1_555 1_555
O17 C33 1_555 1_555
N13 C30 1_555 1_555
C22 C23 1_555 1_555
C24 N14 1_555 1_555
C27 N15 1_555 1_555
C37 C39 1_555 1_555
C37 C40 1_555 1_555
C41 N18 1_555 1_555
C42 N19 1_555 1_555
Fe6 O24 1_555 1_555
O32 C46 1_555 1_555
O34 C54 1_555 1_555
O35 C44 1_555 1_555
C45 C56 1_555 1_555
C47 C60 1_555 1_555
C50 C58 1_555 1_555
C51 C52 1_555 1_555
C53 C54 1_555 1_555
C56 C57 1_555 1_555
O38 C69 1_555 1_555
N31 C66 1_555 1_555
C60 C61 1_555 1_555
C65 N28 1_555 1_555
H52 C65 1_555 1_555
H32_2 C39_2 1_555 1_555
Fe12 O23_2 1_555 1_555
Fe16 O24_2 1_555 1_555
O26_2 Fe12 1_555 1_555
O29_2 Fe12 1_555 1_555
O32_2 Fe16 1_555 1_555
O33_2 Fe16 1_555 1_555
H35_2 O33_2 1_555 1_555
O36_2 Fe12 1_555 1_555
H37_2 O36_2 1_555 1_555
H38_2 O36_2 1_555 1_555
N21_2 N26_2 1_555 1_555
C46_2 O26_2 1_555 1_555
C47_2 C46_2 1_555 1_555
N26_2 C65_2 1_555 1_555
C51_2 C47_2 1_555 1_555
H39_2 C51_2 1_555 1_555
C52_2 N21_2 1_555 1_555
C53_2 H40_2 1_555 1_555
H42_2 C53_2 1_555 1_555
C54_2 O29_2 1_555 1_555
N28_2 C59_2 1_555 1_555
C59_2 N21_2 1_555 1_555
C65_2 N28_2 1_555 1_555
H52_2 C65_2 1_555 1_555
Fe12 O24_2 1_555 1_555
O32_2 C46_2 1_555 1_555
C51_2 C52_2 1_555 1_555
C53_2 C54_2 1_555 1_555
O46 C43_2 1_555 1_555
O50 C43_2 1_555 1_555
N23_2 N29_2 1_555 1_555
C43_2 C55_2 1_555 1_555
N29_2 C68_2 1_555 1_555
N30_2 C67_2 1_555 1_555
C60_2 N23_2 1_555 1_555
C61_2 C55_2 1_555 1_555
H46_2 C61_2 1_555 1_555
C67_2 N23_2 1_555 1_555
C68_2 N30_2 1_555 1_555
C60_2 C61_2 1_555 1_555
O43 C7_2 1_555 1_555
O47 C7_2 1_555 1_555
N1_2 N6_2 1_555 1_555
N6_2 C28_2 1_555 1_555
C4_2 C7_2 1_555 1_555
N33 C25_2 1_555 1_555
C18_2 N1_2 1_555 1_555
C20_2 C4_2 1_555 1_555
H11_2 C20_2 1_555 1_555
C25_2 N1_2 1_555 1_555
H15_2 C25_2 1_555 1_555
C28_2 N33 1_555 1_555
H20_2 C28_2 1_555 1_555
C4_2 C18_2 1_555 1_555
Fe17 N7_2 1_555 1_555
O4_2 Fe9 1_555 1_555
O6_2 Fe9 1_555 1_555
O13_2 Fe9 1_555 1_555
O16_2 Fe9 1_555 1_555
N3_2 C13_2 1_555 1_555
N4_2 C11_2 1_555 1_555
C2_2 C9_2 1_555 1_555
C3_2 O6_2 1_555 1_555
C8_2 C3_2 1_555 1_555
C9_2 O4_2 1_555 1_555
N7_2 C26_2 1_555 1_555
C11_2 C8_2 1_555 1_555
C13_2 C2_2 1_555 1_555
O17_2 Fe17 1_555 1_555
C19_2 C8_2 1_555 1_555
H10_2 C19_2 1_555 1_555
O18_2 Fe17 1_555 1_555
N13_2 N4_2 1_555 1_555
O19_2 Fe17 1_555 1_555
C26_2 N4_2 1_555 1_555
H16_2 C26_2 1_555 1_555
C27_2 N3_2 1_555 1_555
O20_2 Fe17 1_555 1_555
H18_2 O20_2 1_555 1_555
H19_2 O20_2 1_555 1_555
N14_2 N3_2 1_555 1_555
C30_2 N7_2 1_555 1_555
H22_2 C30_2 1_555 1_555
C33_2 O16_2 1_555 1_555
H25_2 C33_2 1_555 1_555
N15_2 C24_2 1_555 1_555
C34_2 O18_2 1_555 1_555
H26_2 C34_2 1_555 1_555
N16 C34_2 1_555 1_555
H27 N16 1_555 1_555
C35 N16 1_555 1_555
H28 C35 1_555 1_555
H29 C35 1_555 1_555
H30 C35 1_555 1_555
C36_2 O19_2 1_555 1_555
O14_2 C3_2 1_555 1_555
O17_2 C33_2 1_555 1_555
N13_2 C30_2 1_555 1_555
C24_2 N14_2 1_555 1_555
C27_2 N15_2 1_555 1_555
O22_2 C38_2 1_555 1_555
N17_2 C40_2 1_555 1_555
C37_2 C38_2 1_555 1_555
C42_2 N17_2 1_555 1_555
N18_2 N17_2 1_555 1_555
N19_2 C41_2 1_555 1_555
Fe10 O22_2 1_555 1_555
Fe18 N25_2 1_555 1_555
O27_2 Fe10 1_555 1_555
O34_2 Fe10 1_555 1_555
O37_2 Fe10 1_555 1_555
N22_2 C50_2 1_555 1_555
C44_2 O27_2 1_555 1_555
C49_2 C44_2 1_555 1_555
N25_2 C63_2 1_555 1_555
C50_2 C49_2 1_555 1_555
O38_2 Fe18 1_555 1_555
C57_2 C49_2 1_555 1_555
H43_2 C57_2 1_555 1_555
O39_2 Fe18 1_555 1_555
N31_2 N22_2 1_555 1_555
O40_2 Fe18 1_555 1_555
C63_2 N22_2 1_555 1_555
H48_2 C63_2 1_555 1_555
O41_2 Fe18 1_555 1_555
H49_2 O41_2 1_555 1_555
H50_2 O41_2 1_555 1_555
C66_2 N25_2 1_555 1_555
H53_2 C66_2 1_555 1_555
C69_2 O37_2 1_555 1_555
H56_2 C69_2 1_555 1_555
C70_2 O39_2 1_555 1_555
H57_2 C70_2 1_555 1_555
N32 C70_2 1_555 1_555
H58 N32 1_555 1_555
C71 N32 1_555 1_555
H59 C71 1_555 1_555
H60 C71 1_555 1_555
H61 C71 1_555 1_555
C72_2 O40_2 1_555 1_555
C37_2 C40_2 1_555 1_555
C41_2 N18_2 1_555 1_555
C42_2 N19_2 1_555 1_555
O35_2 C44_2 1_555 1_555
O38_2 C69_2 1_555 1_555
N31_2 C66_2 1_555 1_555
O44 C48_2 1_555 1_555
O48 C48_2 1_555 1_555
N20_2 N24_2 1_555 1_555
N24_2 C64_2 1_555 1_555
C45_2 C48_2 1_555 1_555
N34 C62_2 1_555 1_555
C56_2 N20_2 1_555 1_555
C58_2 C45_2 1_555 1_555
H44_2 C58_2 1_555 1_555
C62_2 N20_2 1_555 1_555
H47_2 C62_2 1_555 1_555
C64_2 N34 1_555 1_555
H51_2 C64_2 1_555 1_555
C45_2 C56_2 1_555 1_555
O45 C1_2 1_555 1_555
O49 C1_2 1_555 1_555
N5_2 N11_2 1_555 1_555
C1_2 C17_2 1_555 1_555
N11_2 C32_2 1_555 1_555
N12_2 C31_2 1_555 1_555
C22_2 N5_2 1_555 1_555
C23_2 C17_2 1_555 1_555
H13_2 C23_2 1_555 1_555
C31_2 N5_2 1_555 1_555
C32_2 N12_2 1_555 1_555
C22_2 C23_2 1_555 1_555
Fe11 O1_2 1_555 1_555
Fe14 O1_2 1_555 1_555
O3_2 Fe11 1_555 1_555
O5_2 Fe11 1_555 1_555
O8_2 Fe11 1_555 1_555
O11_2 Fe14 1_555 1_555
O12_2 Fe14 1_555 1_555
H1_2 O12_2 1_555 1_555
O15_2 Fe11 1_555 1_555
H3_2 O15_2 1_555 1_555
H4_2 O15_2 1_555 1_555
N2_2 N8_2 1_555 1_555
C5_2 O3_2 1_555 1_555
C6_2 C5_2 1_555 1_555
N8_2 C29_2 1_555 1_555
H5_2 C10_2 1_555 1_555
C12_2 C6_2 1_555 1_555
H6_2 C12_2 1_555 1_555
C14_2 N2_2 1_555 1_555
C15_2 H7_2 1_555 1_555
H9_2 C15_2 1_555 1_555
C16_2 O8_2 1_555 1_555
N10_2 C21_2 1_555 1_555
C21_2 N2_2 1_555 1_555
C29_2 N10_2 1_555 1_555
H21_2 C29_2 1_555 1_555
O11_2 C5_2 1_555 1_555
C12_2 C14_2 1_555 1_555
C15_2 C16_2 1_555 1_555
H27_2 N16_2 1_555 1_555
C35_2 N16_2 1_555 1_555
H28_2 C35_2 1_555 1_555
H29_2 C35_2 1_555 1_555
H30_2 C35_2 1_555 1_555
H58_2 N32_2 1_555 1_555
C71_2 N32_2 1_555 1_555
H59_2 C71_2 1_555 1_555
H60_2 C71_2 1_555 1_555
H61_2 C71_2 1_555 1_555

#END
