
###############################################################################
#
# This file contains modified crystal structure data generated from the
# MOF subset of the Cambridge Structural Database (CSD) v543 
# hosted by the Cambridge Crystallographic Data Centre (CCDC).
#
# This work is licensed under the Creative Commons
# Attribution-NonCommercial-ShareAlike 4.0 International License.
# To view a copy of this license, visit
# http://creativecommons.org/licenses/by-nc-sa/4.0/
# or send a letter to
# Creative Commons, PO Box 1866, Mountain View, CA 94042, USA.
#
# CIF created using the CSD Python API on 29 September 2022
# The structure has been converted into the P1 space group
# The structure has a 3D framework
# The original CSD entry OKUKOW is in the monoclinic crystal system
# The framework has been calculated to contain at least 10.0% void space
# The void calculation uses a probe of radius 1.32A, grid spacing 0.4
# The framework is charged, counterions have been retained in the structure
#
###############################################################################

data_OKUKOW
_chemical_formula_moiety         '(C944 H608 B32 Br32 N96 O264 S16 Zn64 16-)n'
_symmetry_cell_setting           triclinic
_symmetry_space_group_name_H-M   'P 1'
_symmetry_Int_Tables_number      1
_space_group_name_Hall           'P 1'
loop_
_symmetry_equiv_pos_site_id
_symmetry_equiv_pos_as_xyz
1 x,y,z
_cell_length_a                   40.845(5)
_cell_length_b                   42.367(5)
_cell_length_c                   34.547(9)
_cell_angle_alpha                90
_cell_angle_beta                 115.816(11)
_cell_angle_gamma                90
_cell_volume                     53816.4
loop_
_atom_site_label
_atom_site_type_symbol
_atom_site_fract_x
_atom_site_fract_y
_atom_site_fract_z
Zn3 Zn 0.47740(7) 0.13126(5) 0.57873(9)
Zn4 Zn 0.51979(6) 0.08404(5) 0.55561(8)
C1 C 0.5862(3) 0.0083(3) 0.5185(5)
C2 C 0.6187(4) 0.0155(3) 0.5162(6)
H1 H 0.6278 0.0365 0.5224
B1 B 0.5624(4) 0.0326(3) 0.5311(6)
O2 O 0.5899(3) 0.0618(3) 0.5547(4)
N1 N 0.5733(4) 0.0867(3) 0.5613(5)
C7 C 0.5963(4) 0.1120(3) 0.5750(6)
H5 H 0.6202 0.1091 0.5773
C8 C 0.5875(3) 0.1438(3) 0.5868(5)
C9 C 0.5565(4) 0.1504(3) 0.5933(5)
C10 C 0.5520(3) 0.1820(3) 0.6042(5)
C11 C 0.5786(4) 0.2048(3) 0.6085(5)
H6 H 0.5759 0.2257 0.6165
C12 C 0.6086(3) 0.1975(3) 0.6013(5)
C13 C 0.6131(4) 0.1668(3) 0.5907(5)
H7 H 0.6338 0.1614 0.5862
C14 C 0.5212(4) 0.1932(4) 0.6104(6)
H8 H 0.5212 0.2148 0.6176
N2 N 0.4943(4) 0.1768(4) 0.6071(6)
O3 O 0.4698(4) 0.1939(3) 0.6164(5)
B2 B 0.4331(6) 0.1805(4) 0.6022(7)
O4 O 0.5341(3) 0.0444(2) 0.4907(4)
N3 N 0.5107(3) 0.0677(3) 0.4929(4)
C15 C 0.4859(3) 0.0759(3) 0.4567(5)
H9 H 0.4870 0.0664 0.4324
C16 C 0.4561(3) 0.0976(3) 0.4472(4)
C17 C 0.4500(3) 0.1142(3) 0.4798(4)
C18 C 0.4193(4) 0.1350(3) 0.4663(4)
C19 C 0.3959(4) 0.1382(3) 0.4221(4)
H10 H 0.3753 0.1517 0.4134
C20 C 0.4021(3) 0.1220(3) 0.3911(3)
C21 C 0.4322(3) 0.1021(3) 0.4036(4)
H11 H 0.4367 0.0914 0.3822
C22 C 0.4110(4) 0.1541(4) 0.4957(5)
H12 H 0.3894 0.1664 0.4835
N4 N 0.4297(5) 0.1562(4) 0.5362(5)
O5 O 0.4144(4) 0.1772(4) 0.5556(5)
O6 O 0.5516(3) 0.0190(3) 0.5606(4)
N5 N 0.5281(3) 0.0357(3) 0.5725(5)
C23 C 0.5099(4) 0.0183(3) 0.5861(5)
C24 C 0.4835(3) 0.0286(3) 0.6009(5)
C25 C 0.4762(4) 0.0613(3) 0.6056(5)
C26 C 0.4487(4) 0.0678(3) 0.6197(5)
C27 C 0.4285(4) 0.0431(3) 0.6263(6)
H14 H 0.4103 0.0480 0.6355
C28 C 0.4348(3) 0.0118(3) 0.6195(5)
C29 C 0.4628(4) 0.0049(3) 0.6083(6)
C30 C 0.4389(4) 0.0993(3) 0.6268(6)
H16 H 0.4227 0.1009 0.6398
N6 N 0.4496(5) 0.1250(3) 0.6175(6)
O7 O 0.4337(4) 0.1522(3) 0.6264(5)
C31 C 0.4112(5) 0.2065(4) 0.6148(6)
C32 C 0.4131(6) 0.2094(5) 0.6561(6)
H17 H 0.4280 0.1950 0.6776
C33 C 0.3942(6) 0.2321(5) 0.6669(7)
H18 H 0.3958 0.2326 0.6952
Br2 Br 0.3450(2) 0.28409(14) 0.6501(3)
C34 C 0.3734(5) 0.2539(4) 0.6372(7)
C35 C 0.3714(6) 0.2529(5) 0.5965(7)
H19 H 0.3579 0.2684 0.5758
C36 C 0.3895(6) 0.2292(5) 0.5860(6)
H20 H 0.3869 0.2283 0.5573
O8 O 0.5322(3) 0.1288(3) 0.5877(4)
C37 C 0.6341(4) 0.2225(3) 0.6013(5)
C38 C 0.6444(4) 0.2242(3) 0.5679(5)
H21 H 0.6364 0.2085 0.5461
C39 C 0.6664(4) 0.2486(3) 0.5663(5)
H22 H 0.6724 0.2500 0.5427
C40 C 0.6797(4) 0.2712(3) 0.5988(5)
C41 C 0.6703(4) 0.2687(3) 0.6329(5)
H23 H 0.6799 0.2834 0.6559
C42 C 0.6474(4) 0.2452(3) 0.6337(5)
H24 H 0.6405 0.2445 0.6567
C43 C 0.7030(4) 0.2981(3) 0.5967(5)
O9 O 0.7104(3) 0.2985(2) 0.5648(4)
O10 O 0.4719(3) 0.1100(3) 0.5210(4)
O11 O 0.7138(3) 0.3172(3) 0.6269(4)
C44 C 0.3783(3) 0.1262(3) 0.3444(3)
C45 C 0.3917(4) 0.1231(4) 0.3137(4)
H25 H 0.4165 0.1177 0.3228
C46 C 0.3697(4) 0.1277(4) 0.2704(4)
H26 H 0.3797 0.1263 0.2503
C47 C 0.3327(4) 0.1346(4) 0.2562(4)
C48 C 0.3191(4) 0.1373(4) 0.2864(4)
H27 H 0.2940 0.1416 0.2773
C49 C 0.3417(3) 0.1337(4) 0.3301(4)
H28 H 0.3321 0.1365 0.3505
C50 C 0.3083(4) 0.1375(4) 0.2087(4)
O12 O 0.4949(3) 0.0843(2) 0.5988(4)
O13 O 0.3227(4) 0.1334(4) 0.1831(5)
O14 O 0.2753(3) 0.1425(3) 0.1948(4)
H29 H 0.3645 0.0144 0.5980
H37 H 0.0135 0.0008 0.1020
H39 H 0.0693 0.0133 0.1039
C94 C 0.1309(3) 0.0120(2) 0.0956(5)
C95 C 0.1322(4) 0.0407(3) 0.1158(5)
H53 H 0.1157 0.0444 0.1280
C96 C 0.1567(3) 0.0640(3) 0.1188(5)
H54 H 0.1569 0.0833 0.1329
C97 C 0.1811(3) 0.0596(3) 0.1011(5)
C98 C 0.1804(4) 0.0308(3) 0.0814(5)
H55 H 0.1972 0.0271 0.0697
C99 C 0.1558(4) 0.0076(3) 0.0785(5)
C100 C 0.2072(4) 0.0848(3) 0.1020(5)
O24 O 0.2092(3) 0.1096(3) 0.1223(4)
O26 O 0.2266(3) 0.0783(3) 0.0824(4)
Zn9 Zn 0.74734(5) 0.32115(4) 0.55412(8)
Zn11 Zn 0.25701(5) 0.10452(5) 0.06353(8)
Zn12 Zn 0.31938(5) 0.15259(5) 0.12691(8)
Zn14 Zn 0.74428(5) 0.35505(4) 0.63393(8)
Zn15 Zn 0.24428(5) 0.14495(4) 0.13393(8)
Zn1 Zn 0.00374(5) 0.91164(4) 0.13000(8)
Zn2 Zn 0.04890(6) 0.86507(5) 0.11157(8)
Zn5 Zn 0.24734(5) 0.82115(4) 0.55412(8)
Zn6 Zn 0.25701(5) 0.89548(5) 0.56353(8)
Zn7 Zn 0.31938(5) 0.84741(5) 0.62691(8)
Zn8 Zn 0.24428(5) 0.85505(4) 0.63393(8)
O1 O 0.2655(2) 0.8557(2) 0.5942(3)
C3 C 0.6383(4) 0.9934(3) 0.5052(6)
H2 H 0.6606 0.9992 0.5046
Br1 Br 0.65013(8) 0.93162(6) 0.47872(13)
C4 C 0.6252(4) 0.9630(3) 0.4951(5)
C5 C 0.5931(4) 0.9555(3) 0.4964(6)
H3 H 0.5838 0.9347 0.4893
C6 C 0.5740(4) 0.9773(3) 0.5077(5)
H4 H 0.5518 0.9711 0.5083
H13 H 0.5141 0.9962 0.5866
H15 H 0.4680 0.9834 0.6054
C51 C 0.4096(3) 0.9865(3) 0.6196(5)
C52 C 0.3728(3) 0.9933(3) 0.6048(6)
C53 C 0.3484(3) 0.9693(3) 0.6001(6)
H30 H 0.3233 0.9742 0.5892
C54 C 0.3599(3) 0.9382(3) 0.6110(5)
C55 C 0.3972(3) 0.9318(3) 0.6282(6)
H31 H 0.4060 0.9110 0.6370
C56 C 0.4214(3) 0.9560(3) 0.6323(6)
H32 H 0.4467 0.9516 0.6441
C57 C 0.3320(4) 0.9123(3) 0.6024(6)
O15 O 0.3445(3) 0.8857(3) 0.6182(5)
O16 O 0.2991(3) 0.9195(3) 0.5809(5)
C64 C 0.0194(3) 0.9790(3) 0.1065(6)
C65 C 0.0520(3) 0.9682(3) 0.1010(5)
C66 C 0.0589(3) 0.9361(3) 0.0954(5)
C67 C 0.0899(3) 0.9297(2) 0.0879(5)
C68 C 0.1121(3) 0.9550(2) 0.0876(5)
H38 H 0.1328 0.9503 0.0828
C69 C 0.1058(3) 0.9864(2) 0.0940(5)
C70 C 0.0750(3) 0.9921(3) 0.1001(5)
C71 C 0.1006(4) 0.8983(3) 0.0821(6)
H40 H 0.1208 0.8969 0.0754
N8 N 0.0865(4) 0.8723(3) 0.0848(6)
O18 O 0.1052(4) 0.8456(3) 0.0801(5)
B4 B 0.0960(5) 0.8146(4) 0.0934(7)
N9 N 0.0098(3) 0.9289(3) 0.1924(4)
C72 C 0.0344(3) 0.9224(3) 0.2297(4)
H41 H 0.0336 0.9336 0.2531
C73 C 0.0637(3) 0.8995(3) 0.2401(4)
C74 C 0.0687(4) 0.8798(3) 0.2093(4)
C75 C 0.0991(4) 0.8585(3) 0.2244(4)
C76 C 0.1219(4) 0.8570(3) 0.2687(4)
H42 H 0.1414 0.8423 0.2787
C77 C 0.1170(3) 0.8761(3) 0.2984(3)
C78 C 0.0882(3) 0.8972(3) 0.2838(4)
H43 H 0.0849 0.9104 0.3040
C79 C 0.1083(4) 0.8381(4) 0.1968(5)
H44 H 0.1283 0.8243 0.2107
N10 N 0.0923(4) 0.8369(4) 0.1561(5)
O20 O 0.1077(4) 0.8157(3) 0.1386(5)
C87 C 0.0033(3) 0.8070(3) 0.0650(6)
H48 H 0.0025 0.7867 0.0532
N12 N 0.0324(3) 0.8230(3) 0.0757(6)
O22 O 0.0580(3) 0.8066(3) 0.0689(5)
C88 C 0.1202(5) 0.7883(4) 0.0850(6)
C89 C 0.1514(5) 0.7749(5) 0.1169(6)
H49 H 0.1601 0.7833 0.1452
C90 C 0.1100(5) 0.7752(5) 0.0443(6)
H50 H 0.0890 0.7835 0.0210
C91 C 0.1706(6) 0.7501(5) 0.1100(6)
H51 H 0.1912 0.7413 0.1332
C92 C 0.1286(6) 0.7509(5) 0.0361(7)
H52 H 0.1204 0.7429 0.0078
Br4 Br 0.18548(11) 0.70600(11) 0.0570(2)
C93 C 0.1591(5) 0.7385(4) 0.0691(7)
O23 O 0.0383(3) 0.9134(2) 0.0977(4)
H56 H 0.1558 0.9882 0.0646
O25 O 0.0456(3) 0.8805(3) 0.1689(4)
C101 C 0.1424(3) 0.8744(3) 0.3448(3)
C102 C 0.1523(4) 0.9009(3) 0.3714(4)
H57 H 0.1429 0.9210 0.3595
C103 C 0.1757(4) 0.8986(3) 0.4147(4)
H58 H 0.1825 0.9170 0.4321
C104 C 0.1892(3) 0.8690(3) 0.4328(4)
C105 C 0.1797(4) 0.8424(3) 0.4061(4)
H59 H 0.1892 0.8224 0.4179
C106 C 0.1568(4) 0.8451(3) 0.3628(4)
H60 H 0.1508 0.8268 0.3450
C107 C 0.2131(4) 0.8650(4) 0.4804(4)
O28 O 0.2264(3) 0.8899(3) 0.5027(4)
O29 O 0.2208(3) 0.8374(3) 0.4946(4)
O32 O 0.3746(7) 0.8268(8) 0.6599(12)
S1 S 0.4114(6) 0.8367(4) 0.6874(8)
C115 C 0.4269(12) 0.8105(12) 0.7329(11)
H65 H 0.4519 0.8160 0.7530
H66 H 0.4111 0.8125 0.7475
H67 H 0.4262 0.7886 0.7232
C116 C 0.4442(10) 0.8178(12) 0.6727(16)
H68 H 0.4687 0.8250 0.6920
H69 H 0.4428 0.7948 0.6752
H70 H 0.4389 0.8233 0.6430
O33 O 0.2969(5) 0.8035(4) 0.6429(6)
S2 S 0.3158(2) 0.7850(2) 0.6825(4)
C117 C 0.2814(6) 0.7646(6) 0.6901(10)
H71 H 0.2925 0.7517 0.7162
H72 H 0.2646 0.7799 0.6930
H73 H 0.2682 0.7509 0.6653
C118 C 0.3344(7) 0.7496(5) 0.6735(11)
H74 H 0.3467 0.7381 0.7006
H75 H 0.3148 0.7365 0.6527
H76 H 0.3519 0.7545 0.6620
O34 O 0.2104(3) 0.7985(2) 0.5648(4)
O35 O 0.2138(3) 0.8172(3) 0.6269(4)
O36 O 0.3227(4) 0.8666(4) 0.6831(5)
O37 O 0.2753(3) 0.8575(3) 0.6948(4)
O38 O 0.2092(3) 0.8904(3) 0.6223(4)
O39 O 0.2266(3) 0.9217(3) 0.5824(4)
O40 O 0.2775(3) 0.7889(2) 0.5453(5)
O41 O 0.3230(3) 0.8219(3) 0.5765(5)
C58 C 0.9303(4) 0.9855(3) 0.1585(5)
C63 C 0.8924(4) 0.9857(4) 0.1362(6)
H36 H 0.8808 0.9694 0.1160
B3 B 0.9545(4) 0.9586(3) 0.1514(6)
O17 O 0.9712(3) 0.9768(2) 0.1213(4)
N7 N 0.9978(3) 0.9607(3) 0.1171(5)
O19 O 0.9852(3) 0.9517(2) 0.1921(4)
O21 O 0.9316(3) 0.9341(3) 0.1265(4)
N11 N 0.9472(3) 0.9088(3) 0.1148(5)
C80 C 0.9259(4) 0.8855(3) 0.1001(5)
H45 H 0.9021 0.8878 0.0983
C81 C 0.9340(3) 0.8556(2) 0.0858(5)
C82 C 0.9671(3) 0.8489(3) 0.0825(5)
C83 C 0.9713(3) 0.8177(3) 0.0697(5)
C84 C 0.9449(3) 0.7945(3) 0.0626(6)
H46 H 0.9488 0.7737 0.0550
C85 C 0.9130(3) 0.8010(2) 0.0665(5)
C86 C 0.9082(3) 0.8313(2) 0.0777(6)
H47 H 0.8864 0.8361 0.0802
O27 O 0.9921(3) 0.8703(2) 0.0908(4)
C108 C 0.8863(3) 0.7754(2) 0.0610(5)
C109 C 0.8983(3) 0.7451(3) 0.0772(5)
H61 H 0.9234 0.7402 0.0890
C110 C 0.8737(3) 0.7224(3) 0.0762(5)
H62 H 0.8823 0.7020 0.0872
C111 C 0.8368(3) 0.7287(3) 0.0596(5)
C112 C 0.8244(3) 0.7584(3) 0.0420(5)
H63 H 0.7991 0.7631 0.0298
C113 C 0.8488(3) 0.7810(3) 0.0423(5)
H64 H 0.8399 0.8009 0.0295
C114 C 0.8101(4) 0.7042(3) 0.0603(5)
O30 O 0.7775(3) 0.7111(2) 0.0453(5)
O31 O 0.8230(3) 0.6781(3) 0.0765(5)
Zn10 Zn 0.74734(5) 0.67885(4) 0.05412(8)
Zn13 Zn 0.81938(5) 0.65259(5) 0.12691(8)
Zn4_2 Zn 0.01979(6) 0.58404(5) 0.55561(8)
C1_2 C 0.0862(3) 0.5083(3) 0.5185(5)
C2_2 C 0.1187(4) 0.5155(3) 0.5162(6)
H1_2 H 0.1278 0.5365 0.5224
C3_2 C 0.1383(4) 0.4934(3) 0.5052(6)
H2_2 H 0.1606 0.4992 0.5046
Br1_2 Br 0.15013(8) 0.43162(6) 0.47872(13)
C4_2 C 0.1252(4) 0.4630(3) 0.4951(5)
C5_2 C 0.0931(4) 0.4555(3) 0.4964(6)
H3_2 H 0.0838 0.4347 0.4893
C6_2 C 0.0740(4) 0.4773(3) 0.5077(5)
H4_2 H 0.0518 0.4711 0.5083
B1_2 B 0.0624(4) 0.5326(3) 0.5311(6)
O2_2 O 0.0899(3) 0.5618(3) 0.5547(4)
N1_2 N 0.0733(4) 0.5867(3) 0.5613(5)
C7_2 C 0.0963(4) 0.6120(3) 0.5750(6)
H5_2 H 0.1202 0.6091 0.5773
C8_2 C 0.0875(3) 0.6438(3) 0.5868(5)
C9_2 C 0.0565(4) 0.6504(3) 0.5933(5)
C10_2 C 0.0520(3) 0.6820(3) 0.6042(5)
C11_2 C 0.0786(4) 0.7048(3) 0.6085(5)
H6_2 H 0.0759 0.7257 0.6165
C12_2 C 0.1086(3) 0.6975(3) 0.6013(5)
C13_2 C 0.1131(4) 0.6668(3) 0.5907(5)
H7_2 H 0.1338 0.6614 0.5862
C14_2 C 0.0212(4) 0.6932(4) 0.6104(6)
H8_2 H 0.0212 0.7148 0.6176
O4_2 O 0.0341(3) 0.5444(2) 0.4907(4)
N3_2 N 0.0107(3) 0.5677(3) 0.4929(4)
O6_2 O 0.0516(3) 0.5190(3) 0.5606(4)
N5_2 N 0.0281(3) 0.5357(3) 0.5725(5)
C23_2 C 0.0099(4) 0.5183(3) 0.5861(5)
H13_2 H 0.0141 0.4962 0.5866
O8_2 O 0.0322(3) 0.6288(3) 0.5877(4)
C37_2 C 0.1341(4) 0.7225(3) 0.6013(5)
C38_2 C 0.1444(4) 0.7242(3) 0.5679(5)
H21_2 H 0.1364 0.7085 0.5461
C39_2 C 0.1664(4) 0.7486(3) 0.5663(5)
H22_2 H 0.1724 0.7500 0.5427
C40_2 C 0.1797(4) 0.7712(3) 0.5988(5)
C41_2 C 0.1703(4) 0.7687(3) 0.6329(5)
H23_2 H 0.1799 0.7834 0.6559
C42_2 C 0.1474(4) 0.7452(3) 0.6337(5)
H24_2 H 0.1405 0.7445 0.6567
C43_2 C 0.2030(4) 0.7981(3) 0.5967(5)
Zn1_2 Zn 0.50374(5) 0.41164(4) 0.13000(8)
Zn2_2 Zn 0.54890(6) 0.36507(5) 0.11157(8)
Zn3_2 Zn 0.97740(7) 0.63126(5) 0.57873(9)
Zn6_2 Zn 0.75701(5) 0.39548(5) 0.56353(8)
Zn7_2 Zn 0.81938(5) 0.34741(5) 0.62691(8)
O1_2 O 0.7655(2) 0.3557(2) 0.5942(3)
N2_2 N 0.9943(4) 0.6768(4) 0.6071(6)
O3_2 O 0.9698(4) 0.6939(3) 0.6164(5)
B2_2 B 0.9331(6) 0.6805(4) 0.6022(7)
C15_2 C 0.9859(3) 0.5759(3) 0.4567(5)
H9_2 H 0.9870 0.5664 0.4324
C16_2 C 0.9561(3) 0.5976(3) 0.4472(4)
C17_2 C 0.9500(3) 0.6142(3) 0.4798(4)
C18_2 C 0.9193(4) 0.6350(3) 0.4663(4)
C19_2 C 0.8959(4) 0.6382(3) 0.4221(4)
H10_2 H 0.8753 0.6517 0.4134
C20_2 C 0.9021(3) 0.6220(3) 0.3911(3)
C21_2 C 0.9322(3) 0.6021(3) 0.4036(4)
H11_2 H 0.9367 0.5914 0.3822
C22_2 C 0.9110(4) 0.6541(4) 0.4957(5)
H12_2 H 0.8894 0.6664 0.4835
N4_2 N 0.9297(5) 0.6562(4) 0.5362(5)
O5_2 O 0.9144(4) 0.6772(4) 0.5556(5)
C24_2 C 0.9835(3) 0.5286(3) 0.6009(5)
C25_2 C 0.9762(4) 0.5613(3) 0.6056(5)
C26_2 C 0.9487(4) 0.5678(3) 0.6197(5)
C27_2 C 0.9285(4) 0.5431(3) 0.6263(6)
H14_2 H 0.9103 0.5480 0.6355
C28_2 C 0.9348(3) 0.5118(3) 0.6195(5)
C29_2 C 0.9628(4) 0.5049(3) 0.6083(6)
H15_2 H 0.9680 0.4834 0.6054
C30_2 C 0.9389(4) 0.5993(3) 0.6268(6)
H16_2 H 0.9227 0.6009 0.6398
N6_2 N 0.9496(5) 0.6250(3) 0.6175(6)
O7_2 O 0.9337(4) 0.6522(3) 0.6264(5)
C31_2 C 0.9112(5) 0.7065(4) 0.6148(6)
C32_2 C 0.9131(6) 0.7094(5) 0.6561(6)
H17_2 H 0.9280 0.6950 0.6776
C33_2 C 0.8942(6) 0.7321(5) 0.6669(7)
H18_2 H 0.8958 0.7326 0.6952
Br2_2 Br 0.8450(2) 0.78409(14) 0.6501(3)
C34_2 C 0.8734(5) 0.7539(4) 0.6372(7)
C35_2 C 0.8714(6) 0.7529(5) 0.5965(7)
H19_2 H 0.8579 0.7684 0.5758
C36_2 C 0.8895(6) 0.7292(5) 0.5860(6)
H20_2 H 0.8869 0.7283 0.5573
O10_2 O 0.9719(3) 0.6100(3) 0.5210(4)
C44_2 C 0.8783(3) 0.6262(3) 0.3444(3)
C45_2 C 0.8917(4) 0.6231(4) 0.3137(4)
H25_2 H 0.9165 0.6177 0.3228
C46_2 C 0.8697(4) 0.6277(4) 0.2704(4)
H26_2 H 0.8797 0.6263 0.2503
C47_2 C 0.8327(4) 0.6346(4) 0.2562(4)
C48_2 C 0.8191(4) 0.6373(4) 0.2864(4)
H27_2 H 0.7940 0.6416 0.2773
C49_2 C 0.8417(3) 0.6337(4) 0.3301(4)
H28_2 H 0.8321 0.6365 0.3505
C50_2 C 0.8083(4) 0.6375(4) 0.2087(4)
O12_2 O 0.9949(3) 0.5843(2) 0.5988(4)
O13_2 O 0.8227(4) 0.6334(4) 0.1831(5)
O14_2 O 0.7753(3) 0.6425(3) 0.1948(4)
C51_2 C 0.9096(3) 0.4865(3) 0.6196(5)
C52_2 C 0.8728(3) 0.4933(3) 0.6048(6)
H29_2 H 0.8645 0.5144 0.5980
C53_2 C 0.8484(3) 0.4693(3) 0.6001(6)
H30_2 H 0.8233 0.4742 0.5892
C54_2 C 0.8599(3) 0.4382(3) 0.6110(5)
C55_2 C 0.8972(3) 0.4318(3) 0.6282(6)
H31_2 H 0.9060 0.4110 0.6370
C56_2 C 0.9214(3) 0.4560(3) 0.6323(6)
H32_2 H 0.9467 0.4516 0.6441
C57_2 C 0.8320(4) 0.4123(3) 0.6024(6)
O15_2 O 0.8445(3) 0.3857(3) 0.6182(5)
O16_2 O 0.7991(3) 0.4195(3) 0.5809(5)
C58_2 C 0.4303(4) 0.4855(3) 0.1585(5)
C59 C 0.4448(4) 0.5107(4) 0.1869(6)
H33 H 0.4706 0.5123 0.2020
C60 C 0.4240(4) 0.5333(4) 0.1941(7)
H34 H 0.4352 0.5494 0.2148
Br3 Br 0.35755(14) 0.56425(12) 0.1790(2)
C61 C 0.3868(4) 0.5323(3) 0.1714(6)
C62 C 0.3711(4) 0.5087(4) 0.1423(6)
H35 H 0.3454 0.5080 0.1262
C63_2 C 0.3924(4) 0.4857(4) 0.1362(6)
H36_2 H 0.3808 0.4694 0.1160
B3_2 B 0.4545(4) 0.4586(3) 0.1514(6)
O17_2 O 0.4712(3) 0.4768(2) 0.1213(4)
N7_2 N 0.4978(3) 0.4607(3) 0.1171(5)
C64_2 C 0.5194(3) 0.4790(3) 0.1065(6)
H37_2 H 0.5135 0.5008 0.1020
C65_2 C 0.5520(3) 0.4682(3) 0.1010(5)
C66_2 C 0.5589(3) 0.4361(3) 0.0954(5)
C67_2 C 0.5899(3) 0.4297(2) 0.0879(5)
C68_2 C 0.6121(3) 0.4550(2) 0.0876(5)
H38_2 H 0.6328 0.4503 0.0828
C69_2 C 0.6058(3) 0.4864(2) 0.0940(5)
C70_2 C 0.5750(3) 0.4921(3) 0.1001(5)
H39_2 H 0.5693 0.5133 0.1039
C71_2 C 0.6006(4) 0.3983(3) 0.0821(6)
H40_2 H 0.6208 0.3969 0.0754
N8_2 N 0.5865(4) 0.3723(3) 0.0848(6)
O18_2 O 0.6052(4) 0.3456(3) 0.0801(5)
B4_2 B 0.5960(5) 0.3146(4) 0.0934(7)
O19_2 O 0.4852(3) 0.4517(2) 0.1921(4)
N9_2 N 0.5098(3) 0.4289(3) 0.1924(4)
C72_2 C 0.5344(3) 0.4224(3) 0.2297(4)
H41_2 H 0.5336 0.4336 0.2531
C73_2 C 0.5637(3) 0.3995(3) 0.2401(4)
C74_2 C 0.5687(4) 0.3798(3) 0.2093(4)
C75_2 C 0.5991(4) 0.3585(3) 0.2244(4)
C76_2 C 0.6219(4) 0.3570(3) 0.2687(4)
H42_2 H 0.6414 0.3423 0.2787
C77_2 C 0.6170(3) 0.3761(3) 0.2984(3)
C78_2 C 0.5882(3) 0.3972(3) 0.2838(4)
H43_2 H 0.5849 0.4104 0.3040
C79_2 C 0.6083(4) 0.3381(4) 0.1968(5)
H44_2 H 0.6283 0.3243 0.2107
N10_2 N 0.5923(4) 0.3369(4) 0.1561(5)
O20_2 O 0.6077(4) 0.3157(3) 0.1386(5)
O21_2 O 0.4316(3) 0.4341(3) 0.1265(4)
N11_2 N 0.4472(3) 0.4088(3) 0.1148(5)
C80_2 C 0.4259(4) 0.3855(3) 0.1001(5)
H45_2 H 0.4021 0.3878 0.0983
C81_2 C 0.4340(3) 0.3556(2) 0.0858(5)
C82_2 C 0.4671(3) 0.3489(3) 0.0825(5)
C83_2 C 0.4713(3) 0.3177(3) 0.0697(5)
C84_2 C 0.4449(3) 0.2945(3) 0.0626(6)
H46_2 H 0.4488 0.2737 0.0550
C85_2 C 0.4130(3) 0.3010(2) 0.0665(5)
C86_2 C 0.4082(3) 0.3313(2) 0.0777(6)
H47_2 H 0.3864 0.3361 0.0802
C87_2 C 0.5033(3) 0.3070(3) 0.0650(6)
H48_2 H 0.5025 0.2867 0.0532
N12_2 N 0.5324(3) 0.3230(3) 0.0757(6)
O22_2 O 0.5580(3) 0.3066(3) 0.0689(5)
C88_2 C 0.6202(5) 0.2883(4) 0.0850(6)
C89_2 C 0.6514(5) 0.2749(5) 0.1169(6)
H49_2 H 0.6601 0.2833 0.1452
C90_2 C 0.6100(5) 0.2752(5) 0.0443(6)
H50_2 H 0.5890 0.2835 0.0210
C91_2 C 0.6706(6) 0.2501(5) 0.1100(6)
H51_2 H 0.6912 0.2413 0.1332
C92_2 C 0.6286(6) 0.2509(5) 0.0361(7)
H52_2 H 0.6204 0.2429 0.0078
Br4_2 Br 0.68548(11) 0.20600(11) 0.0570(2)
C93_2 C 0.6591(5) 0.2385(4) 0.0691(7)
O23_2 O 0.5383(3) 0.4134(2) 0.0977(4)
C94_2 C 0.6309(3) 0.5120(2) 0.0956(5)
C95_2 C 0.6322(4) 0.5407(3) 0.1158(5)
H53_2 H 0.6157 0.5444 0.1280
C96_2 C 0.6567(3) 0.5640(3) 0.1188(5)
H54_2 H 0.6569 0.5833 0.1329
C97_2 C 0.6811(3) 0.5596(3) 0.1011(5)
C98_2 C 0.6804(4) 0.5308(3) 0.0814(5)
H55_2 H 0.6972 0.5271 0.0697
C99_2 C 0.6558(4) 0.5076(3) 0.0785(5)
H56_2 H 0.6558 0.4882 0.0646
C100_2 C 0.7072(4) 0.5848(3) 0.1020(5)
O24_2 O 0.7092(3) 0.6096(3) 0.1223(4)
O25_2 O 0.5456(3) 0.3805(3) 0.1689(4)
O26_2 O 0.7266(3) 0.5783(3) 0.0824(4)
C101_2 C 0.6424(3) 0.3744(3) 0.3448(3)
C102_2 C 0.6523(4) 0.4009(3) 0.3714(4)
H57_2 H 0.6429 0.4210 0.3595
C103_2 C 0.6757(4) 0.3986(3) 0.4147(4)
H58_2 H 0.6825 0.4170 0.4321
C104_2 C 0.6892(3) 0.3690(3) 0.4328(4)
C105_2 C 0.6797(4) 0.3424(3) 0.4061(4)
H59_2 H 0.6892 0.3224 0.4179
C106_2 C 0.6568(4) 0.3451(3) 0.3628(4)
H60_2 H 0.6508 0.3268 0.3450
C107_2 C 0.7131(4) 0.3650(4) 0.4804(4)
O27_2 O 0.4921(3) 0.3703(2) 0.0908(4)
O28_2 O 0.7264(3) 0.3899(3) 0.5027(4)
O29_2 O 0.7208(3) 0.3374(3) 0.4946(4)
C108_2 C 0.3863(3) 0.2754(2) 0.0610(5)
C109_2 C 0.3983(3) 0.2451(3) 0.0772(5)
H61_2 H 0.4234 0.2402 0.0890
C110_2 C 0.3737(3) 0.2224(3) 0.0762(5)
H62_2 H 0.3823 0.2020 0.0872
C111_2 C 0.3368(3) 0.2287(3) 0.0596(5)
C112_2 C 0.3244(3) 0.2584(3) 0.0420(5)
H63_2 H 0.2991 0.2631 0.0298
C113_2 C 0.3488(3) 0.2810(3) 0.0423(5)
H64_2 H 0.3399 0.3009 0.0295
C114_2 C 0.3101(4) 0.2042(3) 0.0603(5)
O30_2 O 0.2775(3) 0.2111(2) 0.0453(5)
O31_2 O 0.3230(3) 0.1781(3) 0.0765(5)
O32_2 O 0.8746(7) 0.3268(8) 0.6599(12)
S1_2 S 0.9114(6) 0.3367(4) 0.6874(8)
C115_2 C 0.9269(12) 0.3105(12) 0.7329(11)
H65_2 H 0.9519 0.3160 0.7530
H66_2 H 0.9111 0.3125 0.7475
H67_2 H 0.9262 0.2886 0.7232
C116_2 C 0.9442(10) 0.3178(12) 0.6727(16)
H68_2 H 0.9687 0.3250 0.6920
H69_2 H 0.9428 0.2948 0.6752
H70_2 H 0.9389 0.3233 0.6430
O33_2 O 0.7969(5) 0.3035(4) 0.6429(6)
S2_2 S 0.8158(2) 0.2850(2) 0.6825(4)
C117_2 C 0.7814(6) 0.2646(6) 0.6901(10)
H71_2 H 0.7925 0.2517 0.7162
H72_2 H 0.7646 0.2799 0.6930
H73_2 H 0.7682 0.2509 0.6653
C118_2 C 0.8344(7) 0.2496(5) 0.6735(11)
H74_2 H 0.8467 0.2381 0.7006
H75_2 H 0.8148 0.2365 0.6527
H76_2 H 0.8519 0.2545 0.6620
Zn10_2 Zn 0.24734(5) 0.17885(4) 0.05412(8)
Zn11_2 Zn 0.75701(5) 0.60452(5) 0.06353(8)
Zn15_2 Zn 0.74428(5) 0.64495(4) 0.13393(8)
O36_2 O 0.8227(4) 0.3666(4) 0.6831(5)
O37_2 O 0.7753(3) 0.3575(3) 0.6948(4)
O38_2 O 0.7092(3) 0.3904(3) 0.6223(4)
O39_2 O 0.7266(3) 0.4217(3) 0.5824(4)
O40_2 O 0.7775(3) 0.2889(2) 0.5453(5)
O41_2 O 0.8230(3) 0.3219(3) 0.5765(5)
O1_3 O 0.2655(2) 0.1443(2) 0.0942(3)
C3_3 C 0.6383(4) 0.0066(3) 0.0052(6)
H2_3 H 0.6606 0.0008 0.0046
C6_3 C 0.5740(4) 0.0227(3) 0.0077(5)
H4_3 H 0.5518 0.0289 0.0083
H13_3 H 0.5141 0.0038 0.0866
H15_3 H 0.4680 0.0166 0.1054
C51_3 C 0.4096(3) 0.0135(3) 0.1196(5)
C52_3 C 0.3728(3) 0.0067(3) 0.1048(6)
C53_3 C 0.3484(3) 0.0307(3) 0.1001(6)
H30_3 H 0.3233 0.0258 0.0892
C54_3 C 0.3599(3) 0.0618(3) 0.1110(5)
C55_3 C 0.3972(3) 0.0682(3) 0.1282(6)
H31_3 H 0.4060 0.0890 0.1370
C56_3 C 0.4214(3) 0.0440(3) 0.1323(6)
H32_3 H 0.4467 0.0484 0.1441
C57_3 C 0.3320(4) 0.0877(3) 0.1024(6)
O15_3 O 0.3445(3) 0.1143(3) 0.1182(5)
O16_3 O 0.2991(3) 0.0805(3) 0.0809(5)
O28_3 O 0.2264(3) 0.1101(3) 0.0027(4)
O32_3 O 0.3746(7) 0.1732(8) 0.1599(12)
S1_3 S 0.4114(6) 0.1633(4) 0.1874(8)
C115_3 C 0.4269(12) 0.1895(12) 0.2329(11)
H65_3 H 0.4519 0.1840 0.2530
H66_3 H 0.4111 0.1875 0.2475
H67_3 H 0.4262 0.2114 0.2232
C116_3 C 0.4442(10) 0.1822(12) 0.1727(16)
H68_3 H 0.4687 0.1750 0.1920
H69_3 H 0.4428 0.2052 0.1752
H70_3 H 0.4389 0.1767 0.1430
O33_3 O 0.2969(5) 0.1965(4) 0.1429(6)
S2_3 S 0.3158(2) 0.2150(2) 0.1825(4)
C117_3 C 0.2814(6) 0.2354(6) 0.1901(10)
H71_3 H 0.2925 0.2483 0.2162
H72_3 H 0.2646 0.2201 0.1930
H73_3 H 0.2682 0.2491 0.1653
C118_3 C 0.3344(7) 0.2504(5) 0.1735(11)
H74_3 H 0.3467 0.2619 0.2006
H75_3 H 0.3148 0.2635 0.1527
H76_3 H 0.3519 0.2455 0.1620
O34_2 O 0.2104(3) 0.2015(2) 0.0648(4)
O35_2 O 0.2138(3) 0.1828(3) 0.1269(4)
Zn3_3 Zn 0.47740(7) 0.86874(5) 0.07873(9)
Zn4_3 Zn 0.51979(6) 0.91596(5) 0.05561(8)
C1_3 C 0.5862(3) 0.9917(3) 0.0185(5)
C2_3 C 0.6187(4) 0.9845(3) 0.0162(6)
H1_3 H 0.6278 0.9635 0.0224
B1_3 B 0.5624(4) 0.9674(3) 0.0311(6)
O2_3 O 0.5899(3) 0.9382(3) 0.0547(4)
N1_3 N 0.5733(4) 0.9133(3) 0.0613(5)
C7_3 C 0.5963(4) 0.8880(3) 0.0750(6)
H5_3 H 0.6202 0.8909 0.0773
C8_3 C 0.5875(3) 0.8562(3) 0.0868(5)
C9_3 C 0.5565(4) 0.8496(3) 0.0933(5)
C10_3 C 0.5520(3) 0.8180(3) 0.1042(5)
C11_3 C 0.5786(4) 0.7952(3) 0.1085(5)
H6_3 H 0.5759 0.7743 0.1165
C12_3 C 0.6086(3) 0.8025(3) 0.1013(5)
C13_3 C 0.6131(4) 0.8332(3) 0.0907(5)
H7_3 H 0.6338 0.8386 0.0862
C14_3 C 0.5212(4) 0.8068(4) 0.1104(6)
H8_3 H 0.5212 0.7852 0.1176
N2_3 N 0.4943(4) 0.8232(4) 0.1071(6)
O3_3 O 0.4698(4) 0.8061(3) 0.1164(5)
B2_3 B 0.4331(6) 0.8195(4) 0.1022(7)
N4_3 N 0.4297(5) 0.8438(4) 0.0362(5)
O5_3 O 0.4144(4) 0.8228(4) 0.0556(5)
O6_3 O 0.5516(3) 0.9810(3) 0.0606(4)
N5_3 N 0.5281(3) 0.9643(3) 0.0725(5)
C23_3 C 0.5099(4) 0.9817(3) 0.0861(5)
C24_3 C 0.4835(3) 0.9714(3) 0.1009(5)
C25_3 C 0.4762(4) 0.9387(3) 0.1056(5)
C26_3 C 0.4487(4) 0.9322(3) 0.1197(5)
C27_3 C 0.4285(4) 0.9569(3) 0.1263(6)
H14_3 H 0.4103 0.9520 0.1355
C28_3 C 0.4348(3) 0.9882(3) 0.1195(5)
C29_3 C 0.4628(4) 0.9951(3) 0.1083(6)
C30_3 C 0.4389(4) 0.9007(3) 0.1268(6)
H16_3 H 0.4227 0.8991 0.1398
N6_3 N 0.4496(5) 0.8750(3) 0.1175(6)
O7_3 O 0.4337(4) 0.8478(3) 0.1264(5)
C31_3 C 0.4112(5) 0.7935(4) 0.1148(6)
C32_3 C 0.4131(6) 0.7906(5) 0.1561(6)
H17_3 H 0.4280 0.8050 0.1776
C33_3 C 0.3942(6) 0.7679(5) 0.1669(7)
H18_3 H 0.3958 0.7674 0.1952
Br2_3 Br 0.3450(2) 0.71591(14) 0.1501(3)
C34_3 C 0.3734(5) 0.7461(4) 0.1372(7)
C35_3 C 0.3714(6) 0.7471(5) 0.0965(7)
H19_3 H 0.3579 0.7316 0.0758
C36_3 C 0.3895(6) 0.7708(5) 0.0860(6)
H20_3 H 0.3869 0.7717 0.0573
O8_3 O 0.5322(3) 0.8712(3) 0.0877(4)
C37_3 C 0.6341(4) 0.7775(3) 0.1013(5)
C38_3 C 0.6444(4) 0.7758(3) 0.0679(5)
H21_3 H 0.6364 0.7915 0.0461
C39_3 C 0.6664(4) 0.7514(3) 0.0663(5)
H22_3 H 0.6724 0.7500 0.0427
C40_3 C 0.6797(4) 0.7288(3) 0.0988(5)
C41_3 C 0.6703(4) 0.7313(3) 0.1329(5)
H23_3 H 0.6799 0.7166 0.1559
C42_3 C 0.6474(4) 0.7548(3) 0.1337(5)
H24_3 H 0.6405 0.7555 0.1567
C43_3 C 0.7030(4) 0.7019(3) 0.0967(5)
O9_2 O 0.7104(3) 0.7015(2) 0.0648(4)
O10_3 O 0.4719(3) 0.8900(3) 0.0210(4)
O11_2 O 0.7138(3) 0.6828(3) 0.1269(4)
O12_3 O 0.4949(3) 0.9157(2) 0.0988(4)
H29_3 H 0.3645 0.9856 0.0980
O4_3 O 0.5341(3) 0.9556(2) 0.9907(4)
N3_3 N 0.5107(3) 0.9323(3) 0.9929(4)
C15_3 C 0.4859(3) 0.9241(3) 0.9567(5)
H9_3 H 0.4870 0.9336 0.9324
C16_3 C 0.4561(3) 0.9024(3) 0.9472(4)
C17_3 C 0.4500(3) 0.8858(3) 0.9798(4)
C18_3 C 0.4193(4) 0.8650(3) 0.9663(4)
C19_3 C 0.3959(4) 0.8618(3) 0.9221(4)
H10_3 H 0.3753 0.8483 0.9134
C20_3 C 0.4021(3) 0.8780(3) 0.8911(3)
C21_3 C 0.4322(3) 0.8979(3) 0.9036(4)
H11_3 H 0.4367 0.9086 0.8822
C22_3 C 0.4110(4) 0.8459(4) 0.9957(5)
H12_3 H 0.3894 0.8336 0.9835
C44_3 C 0.3783(3) 0.8738(3) 0.8444(3)
C45_3 C 0.3917(4) 0.8769(4) 0.8137(4)
H25_3 H 0.4165 0.8823 0.8228
C46_3 C 0.3697(4) 0.8723(4) 0.7704(4)
H26_3 H 0.3797 0.8737 0.7503
C47_3 C 0.3327(4) 0.8654(4) 0.7562(4)
C48_3 C 0.3191(4) 0.8627(4) 0.7864(4)
H27_3 H 0.2940 0.8584 0.7773
C49_3 C 0.3417(3) 0.8663(4) 0.8301(4)
H28_3 H 0.3321 0.8635 0.8505
C50_3 C 0.3083(4) 0.8625(4) 0.7087(4)
H37_3 H 0.0135 0.9992 0.6020
H39_3 H 0.0693 0.9867 0.6039
C94_3 C 0.1309(3) 0.9880(2) 0.5956(5)
C95_3 C 0.1322(4) 0.9593(3) 0.6158(5)
H53_3 H 0.1157 0.9556 0.6280
C96_3 C 0.1567(3) 0.9360(3) 0.6188(5)
H54_3 H 0.1569 0.9167 0.6329
C97_3 C 0.1811(3) 0.9404(3) 0.6011(5)
C98_3 C 0.1804(4) 0.9692(3) 0.5814(5)
H55_3 H 0.1972 0.9729 0.5697
C99_3 C 0.1558(4) 0.9924(3) 0.5785(5)
C100_3 C 0.2072(4) 0.9152(3) 0.6020(5)
C58_3 C 0.9303(4) 0.0145(3) 0.6585(5)
C63_3 C 0.8924(4) 0.0143(4) 0.6362(6)
H36_3 H 0.8808 0.0306 0.6160
B3_3 B 0.9545(4) 0.0414(3) 0.6514(6)
O17_3 O 0.9712(3) 0.0232(2) 0.6213(4)
N7_3 N 0.9978(3) 0.0393(3) 0.6171(5)
O19_3 O 0.9852(3) 0.0483(2) 0.6921(4)
O21_3 O 0.9316(3) 0.0659(3) 0.6265(4)
N11_3 N 0.9472(3) 0.0912(3) 0.6148(5)
C80_3 C 0.9259(4) 0.1145(3) 0.6001(5)
H45_3 H 0.9021 0.1122 0.5983
C81_3 C 0.9340(3) 0.1444(2) 0.5858(5)
C82_3 C 0.9671(3) 0.1511(3) 0.5825(5)
C83_3 C 0.9713(3) 0.1823(3) 0.5697(5)
C84_3 C 0.9449(3) 0.2055(3) 0.5626(6)
H46_3 H 0.9488 0.2263 0.5550
C85_3 C 0.9130(3) 0.1990(2) 0.5665(5)
C86_3 C 0.9082(3) 0.1687(2) 0.5777(6)
H47_3 H 0.8864 0.1639 0.5802
O27_3 O 0.9921(3) 0.1297(2) 0.5908(4)
C108_3 C 0.8863(3) 0.2246(2) 0.5610(5)
C109_3 C 0.8983(3) 0.2549(3) 0.5772(5)
H61_3 H 0.9234 0.2598 0.5890
C110_3 C 0.8737(3) 0.2776(3) 0.5762(5)
H62_3 H 0.8823 0.2980 0.5872
C111_3 C 0.8368(3) 0.2713(3) 0.5596(5)
C112_3 C 0.8244(3) 0.2416(3) 0.5420(5)
H63_3 H 0.7991 0.2369 0.5298
C113_3 C 0.8488(3) 0.2190(3) 0.5423(5)
H64_3 H 0.8399 0.1991 0.5295
C114_3 C 0.8101(4) 0.2958(3) 0.5603(5)
Zn4_4 Zn 0.01979(6) 0.41596(5) 0.05561(8)
C1_4 C 0.0862(3) 0.4917(3) 0.0185(5)
C2_4 C 0.1187(4) 0.4845(3) 0.0162(6)
H1_4 H 0.1278 0.4635 0.0224
C3_4 C 0.1383(4) 0.5066(3) 0.0052(6)
H2_4 H 0.1606 0.5008 0.0046
C6_4 C 0.0740(4) 0.5227(3) 0.0077(5)
H4_4 H 0.0518 0.5289 0.0083
B1_4 B 0.0624(4) 0.4674(3) 0.0311(6)
O2_4 O 0.0899(3) 0.4382(3) 0.0547(4)
N1_4 N 0.0733(4) 0.4133(3) 0.0613(5)
C7_4 C 0.0963(4) 0.3880(3) 0.0750(6)
H5_4 H 0.1202 0.3909 0.0773
C8_4 C 0.0875(3) 0.3562(3) 0.0868(5)
C9_4 C 0.0565(4) 0.3496(3) 0.0933(5)
C10_4 C 0.0520(3) 0.3180(3) 0.1042(5)
C11_4 C 0.0786(4) 0.2952(3) 0.1085(5)
H6_4 H 0.0759 0.2743 0.1165
C12_4 C 0.1086(3) 0.3025(3) 0.1013(5)
C13_4 C 0.1131(4) 0.3332(3) 0.0907(5)
H7_4 H 0.1338 0.3386 0.0862
C14_4 C 0.0212(4) 0.3068(4) 0.1104(6)
H8_4 H 0.0212 0.2852 0.1176
O6_4 O 0.0516(3) 0.4810(3) 0.0606(4)
N5_4 N 0.0281(3) 0.4643(3) 0.0725(5)
C23_4 C 0.0099(4) 0.4817(3) 0.0861(5)
H13_4 H 0.0141 0.5038 0.0866
O8_4 O 0.0322(3) 0.3712(3) 0.0877(4)
C37_4 C 0.1341(4) 0.2775(3) 0.1013(5)
C38_4 C 0.1444(4) 0.2758(3) 0.0679(5)
H21_4 H 0.1364 0.2915 0.0461
C39_4 C 0.1664(4) 0.2514(3) 0.0663(5)
H22_4 H 0.1724 0.2500 0.0427
C40_4 C 0.1797(4) 0.2288(3) 0.0988(5)
C41_4 C 0.1703(4) 0.2313(3) 0.1329(5)
H23_4 H 0.1799 0.2166 0.1559
C42_4 C 0.1474(4) 0.2548(3) 0.1337(5)
H24_4 H 0.1405 0.2555 0.1567
C43_4 C 0.2030(4) 0.2019(3) 0.0967(5)
Zn3_4 Zn 0.97740(7) 0.36874(5) 0.07873(9)
O1_4 O 0.7655(2) 0.6443(2) 0.0942(3)
N2_4 N 0.9943(4) 0.3232(4) 0.1071(6)
O3_4 O 0.9698(4) 0.3061(3) 0.1164(5)
B2_4 B 0.9331(6) 0.3195(4) 0.1022(7)
N4_4 N 0.9297(5) 0.3438(4) 0.0362(5)
O5_4 O 0.9144(4) 0.3228(4) 0.0556(5)
C24_4 C 0.9835(3) 0.4714(3) 0.1009(5)
C25_4 C 0.9762(4) 0.4387(3) 0.1056(5)
C26_4 C 0.9487(4) 0.4322(3) 0.1197(5)
C27_4 C 0.9285(4) 0.4569(3) 0.1263(6)
H14_4 H 0.9103 0.4520 0.1355
C28_4 C 0.9348(3) 0.4882(3) 0.1195(5)
C29_4 C 0.9628(4) 0.4951(3) 0.1083(6)
H15_4 H 0.9680 0.5166 0.1054
C30_4 C 0.9389(4) 0.4007(3) 0.1268(6)
H16_4 H 0.9227 0.3991 0.1398
N6_4 N 0.9496(5) 0.3750(3) 0.1175(6)
O7_4 O 0.9337(4) 0.3478(3) 0.1264(5)
C31_4 C 0.9112(5) 0.2935(4) 0.1148(6)
C32_4 C 0.9131(6) 0.2906(5) 0.1561(6)
H17_4 H 0.9280 0.3050 0.1776
C33_4 C 0.8942(6) 0.2679(5) 0.1669(7)
H18_4 H 0.8958 0.2674 0.1952
Br2_4 Br 0.8450(2) 0.21591(14) 0.1501(3)
C34_4 C 0.8734(5) 0.2461(4) 0.1372(7)
C35_4 C 0.8714(6) 0.2471(5) 0.0965(7)
H19_4 H 0.8579 0.2316 0.0758
C36_4 C 0.8895(6) 0.2708(5) 0.0860(6)
H20_4 H 0.8869 0.2717 0.0573
O10_4 O 0.9719(3) 0.3900(3) 0.0210(4)
O12_4 O 0.9949(3) 0.4157(2) 0.0988(4)
C51_4 C 0.9096(3) 0.5135(3) 0.1196(5)
C52_4 C 0.8728(3) 0.5067(3) 0.1048(6)
H29_4 H 0.8645 0.4856 0.0980
C53_4 C 0.8484(3) 0.5307(3) 0.1001(6)
H30_4 H 0.8233 0.5258 0.0892
C54_4 C 0.8599(3) 0.5618(3) 0.1110(5)
C55_4 C 0.8972(3) 0.5682(3) 0.1282(6)
H31_4 H 0.9060 0.5890 0.1370
C56_4 C 0.9214(3) 0.5440(3) 0.1323(6)
H32_4 H 0.9467 0.5484 0.1441
C57_4 C 0.8320(4) 0.5877(3) 0.1024(6)
O15_4 O 0.8445(3) 0.6143(3) 0.1182(5)
O16_4 O 0.7991(3) 0.5805(3) 0.0809(5)
O28_4 O 0.7264(3) 0.6101(3) 0.0027(4)
O32_4 O 0.8746(7) 0.6732(8) 0.1599(12)
S1_4 S 0.9114(6) 0.6633(4) 0.1874(8)
C115_4 C 0.9269(12) 0.6895(12) 0.2329(11)
H65_4 H 0.9519 0.6840 0.2530
H66_4 H 0.9111 0.6875 0.2475
H67_4 H 0.9262 0.7114 0.2232
C116_4 C 0.9442(10) 0.6822(12) 0.1727(16)
H68_4 H 0.9687 0.6750 0.1920
H69_4 H 0.9428 0.7052 0.1752
H70_4 H 0.9389 0.6767 0.1430
O33_4 O 0.7969(5) 0.6965(4) 0.1429(6)
S2_4 S 0.8158(2) 0.7150(2) 0.1825(4)
C117_4 C 0.7814(6) 0.7354(6) 0.1901(10)
H71_4 H 0.7925 0.7483 0.2162
H72_4 H 0.7646 0.7201 0.1930
H73_4 H 0.7682 0.7491 0.1653
C118_4 C 0.8344(7) 0.7504(5) 0.1735(11)
H74_4 H 0.8467 0.7619 0.2006
H75_4 H 0.8148 0.7635 0.1527
H76_4 H 0.8519 0.7455 0.1620
Zn1_3 Zn 0.50374(5) 0.58836(4) 0.63000(8)
Zn2_3 Zn 0.54890(6) 0.63493(5) 0.61157(8)
C15_4 C 0.9859(3) 0.4241(3) 0.9567(5)
H9_4 H 0.9870 0.4336 0.9324
C16_4 C 0.9561(3) 0.4024(3) 0.9472(4)
C17_4 C 0.9500(3) 0.3858(3) 0.9798(4)
C18_4 C 0.9193(4) 0.3650(3) 0.9663(4)
C19_4 C 0.8959(4) 0.3618(3) 0.9221(4)
H10_4 H 0.8753 0.3483 0.9134
C20_4 C 0.9021(3) 0.3780(3) 0.8911(3)
C21_4 C 0.9322(3) 0.3979(3) 0.9036(4)
H11_4 H 0.9367 0.4086 0.8822
C22_4 C 0.9110(4) 0.3459(4) 0.9957(5)
H12_4 H 0.8894 0.3336 0.9835
C44_4 C 0.8783(3) 0.3738(3) 0.8444(3)
C45_4 C 0.8917(4) 0.3769(4) 0.8137(4)
H25_4 H 0.9165 0.3823 0.8228
C46_4 C 0.8697(4) 0.3723(4) 0.7704(4)
H26_4 H 0.8797 0.3737 0.7503
C47_4 C 0.8327(4) 0.3654(4) 0.7562(4)
C48_4 C 0.8191(4) 0.3627(4) 0.7864(4)
H27_4 H 0.7940 0.3584 0.7773
C49_4 C 0.8417(3) 0.3663(4) 0.8301(4)
H28_4 H 0.8321 0.3635 0.8505
C50_4 C 0.8083(4) 0.3625(4) 0.7087(4)
C58_4 C 0.4303(4) 0.5145(3) 0.6585(5)
C59_2 C 0.4448(4) 0.4893(4) 0.6869(6)
H33_2 H 0.4706 0.4877 0.7020
C60_2 C 0.4240(4) 0.4667(4) 0.6941(7)
H34_2 H 0.4352 0.4506 0.7148
Br3_2 Br 0.35755(14) 0.43575(12) 0.6790(2)
C61_2 C 0.3868(4) 0.4677(3) 0.6714(6)
C62_2 C 0.3711(4) 0.4913(4) 0.6423(6)
H35_2 H 0.3454 0.4920 0.6262
C63_4 C 0.3924(4) 0.5143(4) 0.6362(6)
H36_4 H 0.3808 0.5306 0.6160
B3_4 B 0.4545(4) 0.5414(3) 0.6514(6)
O17_4 O 0.4712(3) 0.5232(2) 0.6213(4)
N7_4 N 0.4978(3) 0.5393(3) 0.6171(5)
C64_3 C 0.5194(3) 0.5210(3) 0.6065(6)
H37_4 H 0.5135 0.4992 0.6020
C65_3 C 0.5520(3) 0.5318(3) 0.6010(5)
C66_3 C 0.5589(3) 0.5639(3) 0.5954(5)
C67_3 C 0.5899(3) 0.5703(2) 0.5879(5)
C68_3 C 0.6121(3) 0.5450(2) 0.5876(5)
H38_3 H 0.6328 0.5497 0.5828
C69_3 C 0.6058(3) 0.5136(2) 0.5940(5)
C70_3 C 0.5750(3) 0.5079(3) 0.6001(5)
H39_4 H 0.5693 0.4867 0.6039
C71_3 C 0.6006(4) 0.6017(3) 0.5821(6)
H40_3 H 0.6208 0.6031 0.5754
N8_3 N 0.5865(4) 0.6277(3) 0.5848(6)
O18_3 O 0.6052(4) 0.6544(3) 0.5801(5)
B4_3 B 0.5960(5) 0.6854(4) 0.5934(7)
O19_4 O 0.4852(3) 0.5483(2) 0.6921(4)
N9_3 N 0.5098(3) 0.5711(3) 0.6924(4)
C72_3 C 0.5344(3) 0.5776(3) 0.7297(4)
H41_3 H 0.5336 0.5664 0.7531
C73_3 C 0.5637(3) 0.6005(3) 0.7401(4)
C74_3 C 0.5687(4) 0.6202(3) 0.7093(4)
C75_3 C 0.5991(4) 0.6415(3) 0.7244(4)
C76_3 C 0.6219(4) 0.6430(3) 0.7687(4)
H42_3 H 0.6414 0.6577 0.7787
C77_3 C 0.6170(3) 0.6239(3) 0.7984(3)
C78_3 C 0.5882(3) 0.6028(3) 0.7838(4)
H43_3 H 0.5849 0.5896 0.8040
C79_3 C 0.6083(4) 0.6619(4) 0.6968(5)
H44_3 H 0.6283 0.6757 0.7107
N10_3 N 0.5923(4) 0.6631(4) 0.6561(5)
O20_3 O 0.6077(4) 0.6843(3) 0.6386(5)
O21_4 O 0.4316(3) 0.5659(3) 0.6265(4)
N11_4 N 0.4472(3) 0.5912(3) 0.6148(5)
C80_4 C 0.4259(4) 0.6145(3) 0.6001(5)
H45_4 H 0.4021 0.6122 0.5983
C81_4 C 0.4340(3) 0.6444(2) 0.5858(5)
C82_4 C 0.4671(3) 0.6511(3) 0.5825(5)
C83_4 C 0.4713(3) 0.6823(3) 0.5697(5)
C84_4 C 0.4449(3) 0.7055(3) 0.5626(6)
H46_4 H 0.4488 0.7263 0.5550
C85_4 C 0.4130(3) 0.6990(2) 0.5665(5)
C86_4 C 0.4082(3) 0.6687(2) 0.5777(6)
H47_4 H 0.3864 0.6639 0.5802
C87_3 C 0.5033(3) 0.6930(3) 0.5650(6)
H48_3 H 0.5025 0.7133 0.5532
N12_3 N 0.5324(3) 0.6770(3) 0.5757(6)
O22_3 O 0.5580(3) 0.6934(3) 0.5689(5)
C88_3 C 0.6202(5) 0.7117(4) 0.5850(6)
C89_3 C 0.6514(5) 0.7251(5) 0.6169(6)
H49_3 H 0.6601 0.7167 0.6452
C90_3 C 0.6100(5) 0.7248(5) 0.5443(6)
H50_3 H 0.5890 0.7165 0.5210
C91_3 C 0.6706(6) 0.7499(5) 0.6100(6)
H51_3 H 0.6912 0.7587 0.6332
C92_3 C 0.6286(6) 0.7491(5) 0.5361(7)
H52_3 H 0.6204 0.7571 0.5078
Br4_3 Br 0.68548(11) 0.79400(11) 0.5570(2)
C93_3 C 0.6591(5) 0.7615(4) 0.5691(7)
O23_3 O 0.5383(3) 0.5866(2) 0.5977(4)
C94_4 C 0.6309(3) 0.4880(2) 0.5956(5)
C95_4 C 0.6322(4) 0.4593(3) 0.6158(5)
H53_4 H 0.6157 0.4556 0.6280
C96_4 C 0.6567(3) 0.4360(3) 0.6188(5)
H54_4 H 0.6569 0.4167 0.6329
C97_4 C 0.6811(3) 0.4404(3) 0.6011(5)
C98_4 C 0.6804(4) 0.4692(3) 0.5814(5)
H55_4 H 0.6972 0.4729 0.5697
C99_4 C 0.6558(4) 0.4924(3) 0.5785(5)
H56_3 H 0.6558 0.5118 0.5646
C100_4 C 0.7072(4) 0.4152(3) 0.6020(5)
O25_3 O 0.5456(3) 0.6195(3) 0.6689(4)
C101_3 C 0.6424(3) 0.6256(3) 0.8448(3)
C102_3 C 0.6523(4) 0.5991(3) 0.8714(4)
H57_3 H 0.6429 0.5790 0.8595
C103_3 C 0.6757(4) 0.6014(3) 0.9147(4)
H58_3 H 0.6825 0.5830 0.9321
C104_3 C 0.6892(3) 0.6310(3) 0.9328(4)
C105_3 C 0.6797(4) 0.6576(3) 0.9061(4)
H59_3 H 0.6892 0.6776 0.9179
C106_3 C 0.6568(4) 0.6549(3) 0.8628(4)
H60_3 H 0.6508 0.6732 0.8450
C107_3 C 0.7131(4) 0.6350(4) 0.9804(4)
O27_4 O 0.4921(3) 0.6297(2) 0.5908(4)
O29_3 O 0.7208(3) 0.6626(3) 0.9946(4)
C108_4 C 0.3863(3) 0.7246(2) 0.5610(5)
C109_4 C 0.3983(3) 0.7549(3) 0.5772(5)
H61_4 H 0.4234 0.7598 0.5890
C110_4 C 0.3737(3) 0.7776(3) 0.5762(5)
H62_4 H 0.3823 0.7980 0.5872
C111_4 C 0.3368(3) 0.7713(3) 0.5596(5)
C112_4 C 0.3244(3) 0.7416(3) 0.5420(5)
H63_4 H 0.2991 0.7369 0.5298
C113_4 C 0.3488(3) 0.7190(3) 0.5423(5)
H64_4 H 0.3399 0.6991 0.5295
C114_4 C 0.3101(4) 0.7958(3) 0.5603(5)
C59_3 C 0.9448(4) 0.0107(4) 0.1869(6)
H33_3 H 0.9706 0.0123 0.2020
C60_3 C 0.9240(4) 0.0333(4) 0.1941(7)
H34_3 H 0.9352 0.0494 0.2148
Br3_3 Br 0.85755(14) 0.06425(12) 0.1790(2)
C61_3 C 0.8868(4) 0.0323(3) 0.1714(6)
C62_3 C 0.8711(4) 0.0087(4) 0.1423(6)
H35_3 H 0.8454 0.0080 0.1262
C59_4 C 0.0552(4) 0.0107(4) 0.3131(6)
H33_4 H 0.0294 0.0123 0.2980
C60_4 C 0.0760(4) 0.0333(4) 0.3059(7)
H34_4 H 0.0648 0.0494 0.2852
Br3_4 Br 0.14245(14) 0.06425(12) 0.3210(2)
C61_4 C 0.1132(4) 0.0323(3) 0.3286(6)
C62_4 C 0.1289(4) 0.0087(4) 0.3577(6)
H35_4 H 0.1546 0.0080 0.3738
C58_5 C 0.0697(4) 0.9855(3) 0.3415(5)
C63_5 C 0.1076(4) 0.9857(4) 0.3638(6)
H36_5 H 0.1192 0.9694 0.3840
B3_5 B 0.0455(4) 0.9586(3) 0.3486(6)
O17_5 O 0.0288(3) 0.9768(2) 0.3787(4)
N7_5 N 0.0022(3) 0.9607(3) 0.3829(5)
O19_5 O 0.0148(3) 0.9517(2) 0.3079(4)
O21_5 O 0.0684(3) 0.9341(3) 0.3735(4)
N11_5 N 0.0528(3) 0.9088(3) 0.3852(5)
C80_5 C 0.0741(4) 0.8855(3) 0.3999(5)
H45_5 H 0.0979 0.8878 0.4017
C81_5 C 0.0660(3) 0.8556(2) 0.4142(5)
C82_5 C 0.0329(3) 0.8489(3) 0.4175(5)
C83_5 C 0.0287(3) 0.8177(3) 0.4303(5)
C84_5 C 0.0551(3) 0.7945(3) 0.4374(6)
H46_5 H 0.0512 0.7737 0.4450
C85_5 C 0.0870(3) 0.8010(2) 0.4335(5)
C86_5 C 0.0918(3) 0.8313(2) 0.4223(6)
H47_5 H 0.1136 0.8361 0.4198
O27_5 O 0.0079(3) 0.8703(2) 0.4092(4)
C108_5 C 0.1137(3) 0.7754(2) 0.4390(5)
C109_5 C 0.1017(3) 0.7451(3) 0.4228(5)
H61_5 H 0.0766 0.7402 0.4110
C110_5 C 0.1263(3) 0.7224(3) 0.4238(5)
H62_5 H 0.1177 0.7020 0.4128
C111_5 C 0.1632(3) 0.7287(3) 0.4404(5)
C112_5 C 0.1756(3) 0.7584(3) 0.4580(5)
H63_5 H 0.2009 0.7631 0.4702
C113_5 C 0.1512(3) 0.7810(3) 0.4577(5)
H64_5 H 0.1601 0.8009 0.4705
C114_5 C 0.1899(4) 0.7042(3) 0.4397(5)
O30_3 O 0.2225(3) 0.7111(2) 0.4547(5)
O31_3 O 0.1770(3) 0.6781(3) 0.4235(5)
Zn10_3 Zn 0.25266(5) 0.67885(4) 0.44588(8)
Zn13_2 Zn 0.18062(5) 0.65259(5) 0.37309(8)
O4_4 O 0.4659(3) 0.0444(2) 0.0093(4)
N3_4 N 0.4893(3) 0.0677(3) 0.0071(4)
C15_5 C 0.5141(3) 0.0759(3) 0.0433(5)
H9_5 H 0.5130 0.0664 0.0676
C16_5 C 0.5439(3) 0.0976(3) 0.0528(4)
C17_5 C 0.5500(3) 0.1142(3) 0.0202(4)
C18_5 C 0.5807(4) 0.1350(3) 0.0337(4)
C19_5 C 0.6041(4) 0.1382(3) 0.0779(4)
H10_5 H 0.6247 0.1517 0.0866
C20_5 C 0.5979(3) 0.1220(3) 0.1089(3)
C21_5 C 0.5678(3) 0.1021(3) 0.0964(4)
H11_5 H 0.5633 0.0914 0.1178
C22_5 C 0.5890(4) 0.1541(4) 0.0043(5)
H12_5 H 0.6106 0.1664 0.0165
C44_5 C 0.6217(3) 0.1262(3) 0.1556(3)
C45_5 C 0.6083(4) 0.1231(4) 0.1863(4)
H25_5 H 0.5835 0.1177 0.1772
C46_5 C 0.6303(4) 0.1277(4) 0.2296(4)
H26_5 H 0.6203 0.1263 0.2497
C47_5 C 0.6673(4) 0.1346(4) 0.2438(4)
C48_5 C 0.6809(4) 0.1373(4) 0.2136(4)
H27_5 H 0.7060 0.1416 0.2227
C49_5 C 0.6583(3) 0.1337(4) 0.1699(4)
H28_5 H 0.6679 0.1365 0.1495
C50_5 C 0.6917(4) 0.1375(4) 0.2913(4)
O13_3 O 0.6773(4) 0.1334(4) 0.3169(5)
O14_3 O 0.7247(3) 0.1425(3) 0.3052(4)
H37_5 H 0.9865 0.0008 0.3980
H39_5 H 0.9307 0.0133 0.3961
C94_5 C 0.8691(3) 0.0120(2) 0.4044(5)
C95_5 C 0.8678(4) 0.0407(3) 0.3842(5)
H53_5 H 0.8843 0.0444 0.3720
C96_5 C 0.8433(3) 0.0640(3) 0.3812(5)
H54_5 H 0.8431 0.0833 0.3671
C97_5 C 0.8189(3) 0.0596(3) 0.3989(5)
C98_5 C 0.8196(4) 0.0308(3) 0.4186(5)
H55_5 H 0.8028 0.0271 0.4303
C99_5 C 0.8442(4) 0.0076(3) 0.4215(5)
C100_5 C 0.7928(4) 0.0848(3) 0.3980(5)
O24_3 O 0.7908(3) 0.1096(3) 0.3777(4)
O26_3 O 0.7734(3) 0.0783(3) 0.4176(4)
Zn11_3 Zn 0.74299(5) 0.10452(5) 0.43647(8)
Zn12_2 Zn 0.68062(5) 0.15259(5) 0.37309(8)
Zn15_3 Zn 0.75572(5) 0.14495(4) 0.36607(8)
Zn3_5 Zn 0.52260(7) 0.13126(5) 0.92127(9)
Zn4_5 Zn 0.48021(6) 0.08404(5) 0.94439(8)
C1_5 C 0.4138(3) 0.0083(3) 0.9815(5)
C2_5 C 0.3813(4) 0.0155(3) 0.9838(6)
H1_5 H 0.3722 0.0365 0.9776
B1_5 B 0.4376(4) 0.0326(3) 0.9689(6)
O2_5 O 0.4101(3) 0.0618(3) 0.9453(4)
N1_5 N 0.4267(4) 0.0867(3) 0.9387(5)
C7_5 C 0.4037(4) 0.1120(3) 0.9250(6)
H5_5 H 0.3798 0.1091 0.9227
C8_5 C 0.4125(3) 0.1438(3) 0.9132(5)
C9_5 C 0.4435(4) 0.1504(3) 0.9067(5)
C10_5 C 0.4480(3) 0.1820(3) 0.8958(5)
C11_5 C 0.4214(4) 0.2048(3) 0.8915(5)
H6_5 H 0.4241 0.2257 0.8835
C12_5 C 0.3914(3) 0.1975(3) 0.8987(5)
C13_5 C 0.3869(4) 0.1668(3) 0.9093(5)
H7_5 H 0.3662 0.1614 0.9138
C14_5 C 0.4788(4) 0.1932(4) 0.8896(6)
H8_5 H 0.4788 0.2148 0.8824
N2_5 N 0.5057(4) 0.1768(4) 0.8929(6)
O3_5 O 0.5302(4) 0.1939(3) 0.8836(5)
B2_5 B 0.5669(6) 0.1805(4) 0.8978(7)
N4_5 N 0.5703(5) 0.1562(4) 0.9638(5)
O5_5 O 0.5856(4) 0.1772(4) 0.9444(5)
O6_5 O 0.4484(3) 0.0190(3) 0.9394(4)
N5_5 N 0.4719(3) 0.0357(3) 0.9275(5)
C23_5 C 0.4901(4) 0.0183(3) 0.9139(5)
C24_5 C 0.5165(3) 0.0286(3) 0.8991(5)
C25_5 C 0.5238(4) 0.0613(3) 0.8944(5)
C26_5 C 0.5513(4) 0.0678(3) 0.8803(5)
C27_5 C 0.5715(4) 0.0431(3) 0.8737(6)
H14_5 H 0.5897 0.0480 0.8645
C28_5 C 0.5652(3) 0.0118(3) 0.8805(5)
C29_5 C 0.5372(4) 0.0049(3) 0.8917(6)
C30_5 C 0.5611(4) 0.0993(3) 0.8732(6)
H16_5 H 0.5773 0.1009 0.8602
N6_5 N 0.5504(5) 0.1250(3) 0.8825(6)
O7_5 O 0.5663(4) 0.1522(3) 0.8736(5)
C31_5 C 0.5888(5) 0.2065(4) 0.8852(6)
C32_5 C 0.5869(6) 0.2094(5) 0.8439(6)
H17_5 H 0.5720 0.1950 0.8224
C33_5 C 0.6058(6) 0.2321(5) 0.8331(7)
H18_5 H 0.6042 0.2326 0.8048
Br2_5 Br 0.6550(2) 0.28409(14) 0.8499(3)
C34_5 C 0.6266(5) 0.2539(4) 0.8628(7)
C35_5 C 0.6286(6) 0.2529(5) 0.9035(7)
H19_5 H 0.6421 0.2684 0.9242
C36_5 C 0.6105(6) 0.2292(5) 0.9140(6)
H20_5 H 0.6131 0.2283 0.9427
O8_5 O 0.4678(3) 0.1288(3) 0.9123(4)
C37_5 C 0.3659(4) 0.2225(3) 0.8987(5)
C38_5 C 0.3556(4) 0.2242(3) 0.9321(5)
H21_5 H 0.3636 0.2085 0.9539
C39_5 C 0.3336(4) 0.2486(3) 0.9337(5)
H22_5 H 0.3276 0.2500 0.9573
C40_5 C 0.3203(4) 0.2712(3) 0.9012(5)
C41_5 C 0.3297(4) 0.2687(3) 0.8671(5)
H23_5 H 0.3201 0.2834 0.8441
C42_5 C 0.3526(4) 0.2452(3) 0.8663(5)
H24_5 H 0.3595 0.2445 0.8433
C43_5 C 0.2970(4) 0.2981(3) 0.9033(5)
O9_3 O 0.2896(3) 0.2985(2) 0.9352(4)
O10_5 O 0.5281(3) 0.1100(3) 0.9790(4)
O11_3 O 0.2862(3) 0.3172(3) 0.8731(4)
O12_5 O 0.5051(3) 0.0843(2) 0.9012(4)
H29_5 H 0.6355 0.0144 0.9020
Zn9_2 Zn 0.25266(5) 0.32115(4) 0.94588(8)
Zn14_2 Zn 0.25572(5) 0.35505(4) 0.86607(8)
Zn5_2 Zn 0.75266(5) 0.82115(4) 0.94588(8)
Zn6_3 Zn 0.74299(5) 0.89548(5) 0.93647(8)
Zn7_3 Zn 0.68062(5) 0.84741(5) 0.87309(8)
Zn8_2 Zn 0.75572(5) 0.85505(4) 0.86607(8)
O1_5 O 0.7345(2) 0.8557(2) 0.9058(3)
C3_5 C 0.3617(4) 0.9934(3) 0.9948(6)
H2_5 H 0.3394 0.9992 0.9954
C6_5 C 0.4260(4) 0.9773(3) 0.9923(5)
H4_5 H 0.4482 0.9711 0.9917
H13_5 H 0.4859 0.9962 0.9134
H15_5 H 0.5320 0.9834 0.8946
C51_5 C 0.5904(3) 0.9865(3) 0.8804(5)
C52_5 C 0.6272(3) 0.9933(3) 0.8952(6)
C53_5 C 0.6516(3) 0.9693(3) 0.8999(6)
H30_5 H 0.6767 0.9742 0.9108
C54_5 C 0.6401(3) 0.9382(3) 0.8890(5)
C55_5 C 0.6028(3) 0.9318(3) 0.8718(6)
H31_5 H 0.5940 0.9110 0.8630
C56_5 C 0.5786(3) 0.9560(3) 0.8677(6)
H32_5 H 0.5533 0.9516 0.8559
C57_5 C 0.6680(4) 0.9123(3) 0.8976(6)
O15_5 O 0.6555(3) 0.8857(3) 0.8818(5)
O16_5 O 0.7009(3) 0.9195(3) 0.9191(5)
O28_5 O 0.7736(3) 0.8899(3) 0.9973(4)
O32_5 O 0.6254(7) 0.8268(8) 0.8401(12)
S1_5 S 0.5886(6) 0.8367(4) 0.8126(8)
C115_5 C 0.5731(12) 0.8105(12) 0.7671(11)
H65_5 H 0.5481 0.8160 0.7470
H66_5 H 0.5889 0.8125 0.7525
H67_5 H 0.5738 0.7886 0.7768
C116_5 C 0.5558(10) 0.8178(12) 0.8273(16)
H68_5 H 0.5313 0.8250 0.8080
H69_5 H 0.5572 0.7948 0.8248
H70_5 H 0.5611 0.8233 0.8570
O33_5 O 0.7031(5) 0.8035(4) 0.8571(6)
S2_5 S 0.6842(2) 0.7850(2) 0.8175(4)
C117_5 C 0.7186(6) 0.7646(6) 0.8099(10)
H71_5 H 0.7075 0.7517 0.7838
H72_5 H 0.7354 0.7799 0.8070
H73_5 H 0.7318 0.7509 0.8347
C118_5 C 0.6656(7) 0.7496(5) 0.8265(11)
H74_5 H 0.6533 0.7381 0.7994
H75_5 H 0.6852 0.7365 0.8473
H76_5 H 0.6481 0.7545 0.8380
O34_3 O 0.7896(3) 0.7985(2) 0.9352(4)
O35_3 O 0.7862(3) 0.8172(3) 0.8731(4)
O36_3 O 0.6773(4) 0.8666(4) 0.8169(5)
O37_3 O 0.7247(3) 0.8575(3) 0.8052(4)
O38_3 O 0.7908(3) 0.8904(3) 0.8777(4)
O39_3 O 0.7734(3) 0.9217(3) 0.9176(4)
O40_3 O 0.7225(3) 0.7889(2) 0.9547(5)
O41_3 O 0.6770(3) 0.8219(3) 0.9235(5)
Zn1_4 Zn 0.49626(5) 0.41164(4) 0.37000(8)
Zn2_4 Zn 0.45110(6) 0.36507(5) 0.38843(8)
C15_6 C 0.0141(3) 0.5759(3) 0.0433(5)
H9_6 H 0.0130 0.5664 0.0676
C16_6 C 0.0439(3) 0.5976(3) 0.0528(4)
C17_6 C 0.0500(3) 0.6142(3) 0.0202(4)
C18_6 C 0.0807(4) 0.6350(3) 0.0337(4)
C19_6 C 0.1041(4) 0.6382(3) 0.0779(4)
H10_6 H 0.1247 0.6517 0.0866
C20_6 C 0.0979(3) 0.6220(3) 0.1089(3)
C21_6 C 0.0678(3) 0.6021(3) 0.0964(4)
H11_6 H 0.0633 0.5914 0.1178
C22_6 C 0.0890(4) 0.6541(4) 0.0043(5)
H12_6 H 0.1106 0.6664 0.0165
C44_6 C 0.1217(3) 0.6262(3) 0.1556(3)
C45_6 C 0.1083(4) 0.6231(4) 0.1863(4)
H25_6 H 0.0835 0.6177 0.1772
C46_6 C 0.1303(4) 0.6277(4) 0.2296(4)
H26_6 H 0.1203 0.6263 0.2497
C47_6 C 0.1673(4) 0.6346(4) 0.2438(4)
C48_6 C 0.1809(4) 0.6373(4) 0.2136(4)
H27_6 H 0.2060 0.6416 0.2227
C49_6 C 0.1583(3) 0.6337(4) 0.1699(4)
H28_6 H 0.1679 0.6365 0.1495
C50_6 C 0.1917(4) 0.6375(4) 0.2913(4)
O13_4 O 0.1773(4) 0.6334(4) 0.3169(5)
O14_4 O 0.2247(3) 0.6425(3) 0.3052(4)
C58_6 C 0.5697(4) 0.4855(3) 0.3415(5)
C59_5 C 0.5552(4) 0.5107(4) 0.3131(6)
H33_5 H 0.5294 0.5123 0.2980
C60_5 C 0.5760(4) 0.5333(4) 0.3059(7)
H34_5 H 0.5648 0.5494 0.2852
Br3_5 Br 0.64245(14) 0.56425(12) 0.3210(2)
C61_5 C 0.6132(4) 0.5323(3) 0.3286(6)
C62_5 C 0.6289(4) 0.5087(4) 0.3577(6)
H35_5 H 0.6546 0.5080 0.3738
C63_6 C 0.6076(4) 0.4857(4) 0.3638(6)
H36_6 H 0.6192 0.4694 0.3840
B3_6 B 0.5455(4) 0.4586(3) 0.3486(6)
O17_6 O 0.5288(3) 0.4768(2) 0.3787(4)
N7_6 N 0.5022(3) 0.4607(3) 0.3829(5)
C64_4 C 0.4806(3) 0.4790(3) 0.3935(6)
H37_6 H 0.4865 0.5008 0.3980
C65_4 C 0.4480(3) 0.4682(3) 0.3990(5)
C66_4 C 0.4411(3) 0.4361(3) 0.4046(5)
C67_4 C 0.4101(3) 0.4297(2) 0.4121(5)
C68_4 C 0.3879(3) 0.4550(2) 0.4124(5)
H38_4 H 0.3672 0.4503 0.4172
C69_4 C 0.3942(3) 0.4864(2) 0.4060(5)
C70_4 C 0.4250(3) 0.4921(3) 0.3999(5)
H39_6 H 0.4307 0.5133 0.3961
C71_4 C 0.3994(4) 0.3983(3) 0.4179(6)
H40_4 H 0.3792 0.3969 0.4246
N8_4 N 0.4135(4) 0.3723(3) 0.4152(6)
O18_4 O 0.3948(4) 0.3456(3) 0.4199(5)
B4_4 B 0.4040(5) 0.3146(4) 0.4066(7)
O19_6 O 0.5148(3) 0.4517(2) 0.3079(4)
N9_4 N 0.4902(3) 0.4289(3) 0.3076(4)
C72_4 C 0.4656(3) 0.4224(3) 0.2703(4)
H41_4 H 0.4664 0.4336 0.2469
C73_4 C 0.4363(3) 0.3995(3) 0.2599(4)
C74_4 C 0.4313(4) 0.3798(3) 0.2907(4)
C75_4 C 0.4009(4) 0.3585(3) 0.2756(4)
C76_4 C 0.3781(4) 0.3570(3) 0.2313(4)
H42_4 H 0.3586 0.3423 0.2213
C77_4 C 0.3830(3) 0.3761(3) 0.2016(3)
C78_4 C 0.4118(3) 0.3972(3) 0.2162(4)
H43_4 H 0.4151 0.4104 0.1960
C79_4 C 0.3917(4) 0.3381(4) 0.3032(5)
H44_4 H 0.3717 0.3243 0.2893
N10_4 N 0.4077(4) 0.3369(4) 0.3439(5)
O20_4 O 0.3923(4) 0.3157(3) 0.3614(5)
O21_6 O 0.5684(3) 0.4341(3) 0.3735(4)
N11_6 N 0.5528(3) 0.4088(3) 0.3852(5)
C80_6 C 0.5741(4) 0.3855(3) 0.3999(5)
H45_6 H 0.5979 0.3878 0.4017
C81_6 C 0.5660(3) 0.3556(2) 0.4142(5)
C82_6 C 0.5329(3) 0.3489(3) 0.4175(5)
C83_6 C 0.5287(3) 0.3177(3) 0.4303(5)
C84_6 C 0.5551(3) 0.2945(3) 0.4374(6)
H46_6 H 0.5512 0.2737 0.4450
C85_6 C 0.5870(3) 0.3010(2) 0.4335(5)
C86_6 C 0.5918(3) 0.3313(2) 0.4223(6)
H47_6 H 0.6136 0.3361 0.4198
C87_4 C 0.4967(3) 0.3070(3) 0.4350(6)
H48_4 H 0.4975 0.2867 0.4468
N12_4 N 0.4676(3) 0.3230(3) 0.4243(6)
O22_4 O 0.4420(3) 0.3066(3) 0.4311(5)
C88_4 C 0.3798(5) 0.2883(4) 0.4150(6)
C89_4 C 0.3486(5) 0.2749(5) 0.3831(6)
H49_4 H 0.3399 0.2833 0.3548
C90_4 C 0.3900(5) 0.2752(5) 0.4557(6)
H50_4 H 0.4110 0.2835 0.4790
C91_4 C 0.3294(6) 0.2501(5) 0.3900(6)
H51_4 H 0.3088 0.2413 0.3668
C92_4 C 0.3714(6) 0.2509(5) 0.4639(7)
H52_4 H 0.3796 0.2429 0.4922
Br4_4 Br 0.31452(11) 0.20600(11) 0.4430(2)
C93_4 C 0.3409(5) 0.2385(4) 0.4309(7)
O23_4 O 0.4617(3) 0.4134(2) 0.4023(4)
C94_6 C 0.3691(3) 0.5120(2) 0.4044(5)
C95_6 C 0.3678(4) 0.5407(3) 0.3842(5)
H53_6 H 0.3843 0.5444 0.3720
C96_6 C 0.3433(3) 0.5640(3) 0.3812(5)
H54_6 H 0.3431 0.5833 0.3671
C97_6 C 0.3189(3) 0.5596(3) 0.3989(5)
C98_6 C 0.3196(4) 0.5308(3) 0.4186(5)
H55_6 H 0.3028 0.5271 0.4303
C99_6 C 0.3442(4) 0.5076(3) 0.4215(5)
H56_4 H 0.3442 0.4882 0.4354
C100_6 C 0.2928(4) 0.5848(3) 0.3980(5)
O24_4 O 0.2908(3) 0.6096(3) 0.3777(4)
O25_4 O 0.4544(3) 0.3805(3) 0.3311(4)
O26_4 O 0.2734(3) 0.5783(3) 0.4176(4)
C101_4 C 0.3576(3) 0.3744(3) 0.1552(3)
C102_4 C 0.3477(4) 0.4009(3) 0.1286(4)
H57_4 H 0.3571 0.4210 0.1405
C103_4 C 0.3243(4) 0.3986(3) 0.0853(4)
H58_4 H 0.3175 0.4170 0.0679
C104_4 C 0.3108(3) 0.3690(3) 0.0672(4)
C105_4 C 0.3203(4) 0.3424(3) 0.0939(4)
H59_4 H 0.3108 0.3224 0.0821
C106_4 C 0.3432(4) 0.3451(3) 0.1372(4)
H60_4 H 0.3492 0.3268 0.1550
C107_4 C 0.2869(4) 0.3650(4) 0.0196(4)
O27_6 O 0.5079(3) 0.3703(2) 0.4092(4)
O29_4 O 0.2792(3) 0.3374(3) 0.0054(4)
C108_6 C 0.6137(3) 0.2754(2) 0.4390(5)
C109_6 C 0.6017(3) 0.2451(3) 0.4228(5)
H61_6 H 0.5766 0.2402 0.4110
C110_6 C 0.6263(3) 0.2224(3) 0.4238(5)
H62_6 H 0.6177 0.2020 0.4128
C111_6 C 0.6632(3) 0.2287(3) 0.4404(5)
C112_6 C 0.6756(3) 0.2584(3) 0.4580(5)
H63_6 H 0.7009 0.2631 0.4702
C113_6 C 0.6512(3) 0.2810(3) 0.4577(5)
H64_6 H 0.6601 0.3009 0.4705
C114_6 C 0.6899(4) 0.2042(3) 0.4397(5)
O30_4 O 0.7225(3) 0.2111(2) 0.4547(5)
O31_4 O 0.6770(3) 0.1781(3) 0.4235(5)
Zn10_4 Zn 0.75266(5) 0.17885(4) 0.44588(8)
Zn11_4 Zn 0.24299(5) 0.60452(5) 0.43647(8)
Zn15_4 Zn 0.25572(5) 0.64495(4) 0.36607(8)
Zn3_6 Zn 0.02260(7) 0.63126(5) 0.92127(9)
Zn6_4 Zn 0.24299(5) 0.39548(5) 0.93647(8)
Zn7_4 Zn 0.18062(5) 0.34741(5) 0.87309(8)
O1_6 O 0.2345(2) 0.3557(2) 0.9058(3)
N2_6 N 0.0057(4) 0.6768(4) 0.8929(6)
O3_6 O 0.0302(4) 0.6939(3) 0.8836(5)
B2_6 B 0.0669(6) 0.6805(4) 0.8978(7)
N4_6 N 0.0703(5) 0.6562(4) 0.9638(5)
O5_6 O 0.0856(4) 0.6772(4) 0.9444(5)
C24_6 C 0.0165(3) 0.5286(3) 0.8991(5)
C25_6 C 0.0238(4) 0.5613(3) 0.8944(5)
C26_6 C 0.0513(4) 0.5678(3) 0.8803(5)
C27_6 C 0.0715(4) 0.5431(3) 0.8737(6)
H14_6 H 0.0897 0.5480 0.8645
C28_6 C 0.0652(3) 0.5118(3) 0.8805(5)
C29_6 C 0.0372(4) 0.5049(3) 0.8917(6)
H15_6 H 0.0320 0.4834 0.8946
C30_6 C 0.0611(4) 0.5993(3) 0.8732(6)
H16_6 H 0.0773 0.6009 0.8602
N6_6 N 0.0504(5) 0.6250(3) 0.8825(6)
O7_6 O 0.0663(4) 0.6522(3) 0.8736(5)
C31_6 C 0.0888(5) 0.7065(4) 0.8852(6)
C32_6 C 0.0869(6) 0.7094(5) 0.8439(6)
H17_6 H 0.0720 0.6950 0.8224
C33_6 C 0.1058(6) 0.7321(5) 0.8331(7)
H18_6 H 0.1042 0.7326 0.8048
Br2_6 Br 0.1550(2) 0.78409(14) 0.8499(3)
C34_6 C 0.1266(5) 0.7539(4) 0.8628(7)
C35_6 C 0.1286(6) 0.7529(5) 0.9035(7)
H19_6 H 0.1421 0.7684 0.9242
C36_6 C 0.1105(6) 0.7292(5) 0.9140(6)
H20_6 H 0.1131 0.7283 0.9427
O10_6 O 0.0281(3) 0.6100(3) 0.9790(4)
O12_6 O 0.0051(3) 0.5843(2) 0.9012(4)
C51_6 C 0.0904(3) 0.4865(3) 0.8804(5)
C52_6 C 0.1272(3) 0.4933(3) 0.8952(6)
H29_6 H 0.1355 0.5144 0.9020
C53_6 C 0.1516(3) 0.4693(3) 0.8999(6)
H30_6 H 0.1767 0.4742 0.9108
C54_6 C 0.1401(3) 0.4382(3) 0.8890(5)
C55_6 C 0.1028(3) 0.4318(3) 0.8718(6)
H31_6 H 0.0940 0.4110 0.8630
C56_6 C 0.0786(3) 0.4560(3) 0.8677(6)
H32_6 H 0.0533 0.4516 0.8559
C57_6 C 0.1680(4) 0.4123(3) 0.8976(6)
O15_6 O 0.1555(3) 0.3857(3) 0.8818(5)
O16_6 O 0.2009(3) 0.4195(3) 0.9191(5)
O28_6 O 0.2736(3) 0.3899(3) 0.9973(4)
O32_6 O 0.1254(7) 0.3268(8) 0.8401(12)
S1_6 S 0.0886(6) 0.3367(4) 0.8126(8)
C115_6 C 0.0731(12) 0.3105(12) 0.7671(11)
H65_6 H 0.0481 0.3160 0.7470
H66_6 H 0.0889 0.3125 0.7525
H67_6 H 0.0738 0.2886 0.7768
C116_6 C 0.0558(10) 0.3178(12) 0.8273(16)
H68_6 H 0.0313 0.3250 0.8080
H69_6 H 0.0572 0.2948 0.8248
H70_6 H 0.0611 0.3233 0.8570
O33_6 O 0.2031(5) 0.3035(4) 0.8571(6)
S2_6 S 0.1842(2) 0.2850(2) 0.8175(4)
C117_6 C 0.2186(6) 0.2646(6) 0.8099(10)
H71_6 H 0.2075 0.2517 0.7838
H72_6 H 0.2354 0.2799 0.8070
H73_6 H 0.2318 0.2509 0.8347
C118_6 C 0.1656(7) 0.2496(5) 0.8265(11)
H74_6 H 0.1533 0.2381 0.7994
H75_6 H 0.1852 0.2365 0.8473
H76_6 H 0.1481 0.2545 0.8380
O36_4 O 0.1773(4) 0.3666(4) 0.8169(5)
O37_4 O 0.2247(3) 0.3575(3) 0.8052(4)
O38_4 O 0.2908(3) 0.3904(3) 0.8777(4)
O39_4 O 0.2734(3) 0.4217(3) 0.9176(4)
O40_4 O 0.2225(3) 0.2889(2) 0.9547(5)
O41_4 O 0.1770(3) 0.3219(3) 0.9235(5)
Zn4_6 Zn 0.98021(6) 0.58404(5) 0.94439(8)
C1_6 C 0.9138(3) 0.5083(3) 0.9815(5)
C2_6 C 0.8813(4) 0.5155(3) 0.9838(6)
H1_6 H 0.8722 0.5365 0.9776
C3_6 C 0.8617(4) 0.4934(3) 0.9948(6)
H2_6 H 0.8394 0.4992 0.9954
C6_6 C 0.9260(4) 0.4773(3) 0.9923(5)
H4_6 H 0.9482 0.4711 0.9917
B1_6 B 0.9376(4) 0.5326(3) 0.9689(6)
O2_6 O 0.9101(3) 0.5618(3) 0.9453(4)
N1_6 N 0.9267(4) 0.5867(3) 0.9387(5)
C7_6 C 0.9037(4) 0.6120(3) 0.9250(6)
H5_6 H 0.8798 0.6091 0.9227
C8_6 C 0.9125(3) 0.6438(3) 0.9132(5)
C9_6 C 0.9435(4) 0.6504(3) 0.9067(5)
C10_6 C 0.9480(3) 0.6820(3) 0.8958(5)
C11_6 C 0.9214(4) 0.7048(3) 0.8915(5)
H6_6 H 0.9241 0.7257 0.8835
C12_6 C 0.8914(3) 0.6975(3) 0.8987(5)
C13_6 C 0.8869(4) 0.6668(3) 0.9093(5)
H7_6 H 0.8662 0.6614 0.9138
C14_6 C 0.9788(4) 0.6932(4) 0.8896(6)
H8_6 H 0.9788 0.7148 0.8824
O6_6 O 0.9484(3) 0.5190(3) 0.9394(4)
N5_6 N 0.9719(3) 0.5357(3) 0.9275(5)
C23_6 C 0.9901(4) 0.5183(3) 0.9139(5)
H13_6 H 0.9859 0.4962 0.9134
O8_6 O 0.9678(3) 0.6288(3) 0.9123(4)
C37_6 C 0.8659(4) 0.7225(3) 0.8987(5)
C38_6 C 0.8556(4) 0.7242(3) 0.9321(5)
H21_6 H 0.8636 0.7085 0.9539
C39_6 C 0.8336(4) 0.7486(3) 0.9337(5)
H22_6 H 0.8276 0.7500 0.9573
C40_6 C 0.8203(4) 0.7712(3) 0.9012(5)
C41_6 C 0.8297(4) 0.7687(3) 0.8671(5)
H23_6 H 0.8201 0.7834 0.8441
C42_6 C 0.8526(4) 0.7452(3) 0.8663(5)
H24_6 H 0.8595 0.7445 0.8433
C43_6 C 0.7970(4) 0.7981(3) 0.9033(5)
C58_7 C 0.0697(4) 0.0145(3) 0.8415(5)
C63_7 C 0.1076(4) 0.0143(4) 0.8638(6)
H36_7 H 0.1192 0.0306 0.8840
B3_7 B 0.0455(4) 0.0414(3) 0.8486(6)
O17_7 O 0.0288(3) 0.0232(2) 0.8787(4)
N7_7 N 0.0022(3) 0.0393(3) 0.8829(5)
O19_7 O 0.0148(3) 0.0483(2) 0.8079(4)
O21_7 O 0.0684(3) 0.0659(3) 0.8735(4)
N11_7 N 0.0528(3) 0.0912(3) 0.8852(5)
C80_7 C 0.0741(4) 0.1145(3) 0.8999(5)
H45_7 H 0.0979 0.1122 0.9017
C81_7 C 0.0660(3) 0.1444(2) 0.9142(5)
C82_7 C 0.0329(3) 0.1511(3) 0.9175(5)
C83_7 C 0.0287(3) 0.1823(3) 0.9303(5)
C84_7 C 0.0551(3) 0.2055(3) 0.9374(6)
H46_7 H 0.0512 0.2263 0.9450
C85_7 C 0.0870(3) 0.1990(2) 0.9335(5)
C86_7 C 0.0918(3) 0.1687(2) 0.9223(6)
H47_7 H 0.1136 0.1639 0.9198
O27_7 O 0.0079(3) 0.1297(2) 0.9092(4)
C108_7 C 0.1137(3) 0.2246(2) 0.9390(5)
C109_7 C 0.1017(3) 0.2549(3) 0.9228(5)
H61_7 H 0.0766 0.2598 0.9110
C110_7 C 0.1263(3) 0.2776(3) 0.9238(5)
H62_7 H 0.1177 0.2980 0.9128
C111_7 C 0.1632(3) 0.2713(3) 0.9404(5)
C112_7 C 0.1756(3) 0.2416(3) 0.9580(5)
H63_7 H 0.2009 0.2369 0.9702
C113_7 C 0.1512(3) 0.2190(3) 0.9577(5)
H64_7 H 0.1601 0.1991 0.9705
C114_7 C 0.1899(4) 0.2958(3) 0.9397(5)
Zn1_5 Zn 0.99626(5) 0.08836(4) 0.87000(8)
Zn2_5 Zn 0.95110(6) 0.13493(5) 0.88843(8)
O1_7 O 0.7345(2) 0.1443(2) 0.4058(3)
C3_7 C 0.3617(4) 0.0066(3) 0.4948(6)
H2_7 H 0.3394 0.0008 0.4954
Br1_3 Br 0.34987(8) 0.06838(6) 0.52128(13)
C4_3 C 0.3748(4) 0.0370(3) 0.5049(5)
C5_3 C 0.4069(4) 0.0445(3) 0.5036(6)
H3_3 H 0.4162 0.0653 0.5107
C6_7 C 0.4260(4) 0.0227(3) 0.4923(5)
H4_7 H 0.4482 0.0289 0.4917
H13_7 H 0.4859 0.0038 0.4134
H15_7 H 0.5320 0.0166 0.3946
C51_7 C 0.5904(3) 0.0135(3) 0.3804(5)
C52_7 C 0.6272(3) 0.0067(3) 0.3952(6)
C53_7 C 0.6516(3) 0.0307(3) 0.3999(6)
H30_7 H 0.6767 0.0258 0.4108
C54_7 C 0.6401(3) 0.0618(3) 0.3890(5)
C55_7 C 0.6028(3) 0.0682(3) 0.3718(6)
H31_7 H 0.5940 0.0890 0.3630
C56_7 C 0.5786(3) 0.0440(3) 0.3677(6)
H32_7 H 0.5533 0.0484 0.3559
C57_7 C 0.6680(4) 0.0877(3) 0.3976(6)
O15_7 O 0.6555(3) 0.1143(3) 0.3818(5)
O16_7 O 0.7009(3) 0.0805(3) 0.4191(5)
C64_5 C 0.9806(3) 0.0210(3) 0.8935(6)
C65_5 C 0.9480(3) 0.0318(3) 0.8990(5)
C66_5 C 0.9411(3) 0.0639(3) 0.9046(5)
C67_5 C 0.9101(3) 0.0703(2) 0.9121(5)
C68_5 C 0.8879(3) 0.0450(2) 0.9124(5)
H38_5 H 0.8672 0.0497 0.9172
C69_5 C 0.8942(3) 0.0136(2) 0.9060(5)
C70_5 C 0.9250(3) 0.0079(3) 0.8999(5)
C71_5 C 0.8994(4) 0.1017(3) 0.9179(6)
H40_5 H 0.8792 0.1031 0.9246
N8_5 N 0.9135(4) 0.1277(3) 0.9152(6)
O18_5 O 0.8948(4) 0.1544(3) 0.9199(5)
B4_5 B 0.9040(5) 0.1854(4) 0.9066(7)
N9_5 N 0.9902(3) 0.0711(3) 0.8076(4)
C72_5 C 0.9656(3) 0.0776(3) 0.7703(4)
H41_5 H 0.9664 0.0664 0.7469
C73_5 C 0.9363(3) 0.1005(3) 0.7599(4)
C74_5 C 0.9313(4) 0.1202(3) 0.7907(4)
C75_5 C 0.9009(4) 0.1415(3) 0.7756(4)
C76_5 C 0.8781(4) 0.1430(3) 0.7313(4)
H42_5 H 0.8586 0.1577 0.7213
C77_5 C 0.8830(3) 0.1239(3) 0.7016(3)
C78_5 C 0.9118(3) 0.1028(3) 0.7162(4)
H43_5 H 0.9151 0.0896 0.6960
C79_5 C 0.8917(4) 0.1619(4) 0.8032(5)
H44_5 H 0.8717 0.1757 0.7893
N10_5 N 0.9077(4) 0.1631(4) 0.8439(5)
O20_5 O 0.8923(4) 0.1843(3) 0.8614(5)
C87_5 C 0.9967(3) 0.1930(3) 0.9350(6)
H48_5 H 0.9975 0.2133 0.9468
N12_5 N 0.9676(3) 0.1770(3) 0.9243(6)
O22_5 O 0.9420(3) 0.1934(3) 0.9311(5)
C88_5 C 0.8798(5) 0.2117(4) 0.9150(6)
C89_5 C 0.8486(5) 0.2251(5) 0.8831(6)
H49_5 H 0.8399 0.2167 0.8548
C90_5 C 0.8900(5) 0.2248(5) 0.9557(6)
H50_5 H 0.9110 0.2165 0.9790
C91_5 C 0.8294(6) 0.2499(5) 0.8900(6)
H51_5 H 0.8088 0.2587 0.8668
C92_5 C 0.8714(6) 0.2491(5) 0.9639(7)
H52_5 H 0.8796 0.2571 0.9922
Br4_5 Br 0.81452(11) 0.29400(11) 0.9430(2)
C93_5 C 0.8409(5) 0.2615(4) 0.9309(7)
O23_5 O 0.9617(3) 0.0866(2) 0.9023(4)
H56_5 H 0.8442 0.0118 0.9354
O25_5 O 0.9544(3) 0.1195(3) 0.8311(4)
C101_5 C 0.8576(3) 0.1256(3) 0.6552(3)
C102_5 C 0.8477(4) 0.0991(3) 0.6286(4)
H57_5 H 0.8571 0.0790 0.6405
C103_5 C 0.8243(4) 0.1014(3) 0.5853(4)
H58_5 H 0.8175 0.0830 0.5679
C104_5 C 0.8108(3) 0.1310(3) 0.5672(4)
C105_5 C 0.8203(4) 0.1576(3) 0.5939(4)
H59_5 H 0.8108 0.1776 0.5821
C106_5 C 0.8432(4) 0.1549(3) 0.6372(4)
H60_5 H 0.8492 0.1732 0.6550
C107_5 C 0.7869(4) 0.1350(4) 0.5196(4)
O28_7 O 0.7736(3) 0.1101(3) 0.4973(4)
O29_5 O 0.7792(3) 0.1626(3) 0.5054(4)
O32_7 O 0.6254(7) 0.1732(8) 0.3401(12)
S1_7 S 0.5886(6) 0.1633(4) 0.3126(8)
C115_7 C 0.5731(12) 0.1895(12) 0.2671(11)
H65_7 H 0.5481 0.1840 0.2470
H66_7 H 0.5889 0.1875 0.2525
H67_7 H 0.5738 0.2114 0.2768
C116_7 C 0.5558(10) 0.1822(12) 0.3273(16)
H68_7 H 0.5313 0.1750 0.3080
H69_7 H 0.5572 0.2052 0.3248
H70_7 H 0.5611 0.1767 0.3570
O33_7 O 0.7031(5) 0.1965(4) 0.3571(6)
S2_7 S 0.6842(2) 0.2150(2) 0.3175(4)
C117_7 C 0.7186(6) 0.2354(6) 0.3099(10)
H71_7 H 0.7075 0.2483 0.2838
H72_7 H 0.7354 0.2201 0.3070
H73_7 H 0.7318 0.2491 0.3347
C118_7 C 0.6656(7) 0.2504(5) 0.3265(11)
H74_7 H 0.6533 0.2619 0.2994
H75_7 H 0.6852 0.2635 0.3473
H76_7 H 0.6481 0.2455 0.3380
O34_4 O 0.7896(3) 0.2015(2) 0.4352(4)
O35_4 O 0.7862(3) 0.1828(3) 0.3731(4)
Zn3_7 Zn 0.52260(7) 0.86874(5) 0.42127(9)
Zn4_7 Zn 0.48021(6) 0.91596(5) 0.44439(8)
C1_7 C 0.4138(3) 0.9917(3) 0.4815(5)
C2_7 C 0.3813(4) 0.9845(3) 0.4838(6)
H1_7 H 0.3722 0.9635 0.4776
B1_7 B 0.4376(4) 0.9674(3) 0.4689(6)
O2_7 O 0.4101(3) 0.9382(3) 0.4453(4)
N1_7 N 0.4267(4) 0.9133(3) 0.4387(5)
C7_7 C 0.4037(4) 0.8880(3) 0.4250(6)
H5_7 H 0.3798 0.8909 0.4227
C8_7 C 0.4125(3) 0.8562(3) 0.4132(5)
C9_7 C 0.4435(4) 0.8496(3) 0.4067(5)
C10_7 C 0.4480(3) 0.8180(3) 0.3958(5)
C11_7 C 0.4214(4) 0.7952(3) 0.3915(5)
H6_7 H 0.4241 0.7743 0.3835
C12_7 C 0.3914(3) 0.8025(3) 0.3987(5)
C13_7 C 0.3869(4) 0.8332(3) 0.4093(5)
H7_7 H 0.3662 0.8386 0.4138
C14_7 C 0.4788(4) 0.8068(4) 0.3896(6)
H8_7 H 0.4788 0.7852 0.3824
N2_7 N 0.5057(4) 0.8232(4) 0.3929(6)
O3_7 O 0.5302(4) 0.8061(3) 0.3836(5)
B2_7 B 0.5669(6) 0.8195(4) 0.3978(7)
O4_5 O 0.4659(3) 0.9556(2) 0.5093(4)
N3_5 N 0.4893(3) 0.9323(3) 0.5071(4)
C15_7 C 0.5141(3) 0.9241(3) 0.5433(5)
H9_7 H 0.5130 0.9336 0.5676
C16_7 C 0.5439(3) 0.9024(3) 0.5528(4)
C17_7 C 0.5500(3) 0.8858(3) 0.5202(4)
C18_7 C 0.5807(4) 0.8650(3) 0.5337(4)
C19_7 C 0.6041(4) 0.8618(3) 0.5779(4)
H10_7 H 0.6247 0.8483 0.5866
C20_7 C 0.5979(3) 0.8780(3) 0.6089(3)
C21_7 C 0.5678(3) 0.8979(3) 0.5964(4)
H11_7 H 0.5633 0.9086 0.6178
C22_7 C 0.5890(4) 0.8459(4) 0.5043(5)
H12_7 H 0.6106 0.8336 0.5165
N4_7 N 0.5703(5) 0.8438(4) 0.4638(5)
O5_7 O 0.5856(4) 0.8228(4) 0.4444(5)
O6_7 O 0.4484(3) 0.9810(3) 0.4394(4)
N5_7 N 0.4719(3) 0.9643(3) 0.4275(5)
C23_7 C 0.4901(4) 0.9817(3) 0.4139(5)
C24_7 C 0.5165(3) 0.9714(3) 0.3991(5)
C25_7 C 0.5238(4) 0.9387(3) 0.3944(5)
C26_7 C 0.5513(4) 0.9322(3) 0.3803(5)
C27_7 C 0.5715(4) 0.9569(3) 0.3737(6)
H14_7 H 0.5897 0.9520 0.3645
C28_7 C 0.5652(3) 0.9882(3) 0.3805(5)
C29_7 C 0.5372(4) 0.9951(3) 0.3917(6)
C30_7 C 0.5611(4) 0.9007(3) 0.3732(6)
H16_7 H 0.5773 0.8991 0.3602
N6_7 N 0.5504(5) 0.8750(3) 0.3825(6)
O7_7 O 0.5663(4) 0.8478(3) 0.3736(5)
C31_7 C 0.5888(5) 0.7935(4) 0.3852(6)
C32_7 C 0.5869(6) 0.7906(5) 0.3439(6)
H17_7 H 0.5720 0.8050 0.3224
C33_7 C 0.6058(6) 0.7679(5) 0.3331(7)
H18_7 H 0.6042 0.7674 0.3048
Br2_7 Br 0.6550(2) 0.71591(14) 0.3499(3)
C34_7 C 0.6266(5) 0.7461(4) 0.3628(7)
C35_7 C 0.6286(6) 0.7471(5) 0.4035(7)
H19_7 H 0.6421 0.7316 0.4242
C36_7 C 0.6105(6) 0.7708(5) 0.4140(6)
H20_7 H 0.6131 0.7717 0.4427
O8_7 O 0.4678(3) 0.8712(3) 0.4123(4)
C37_7 C 0.3659(4) 0.7775(3) 0.3987(5)
C38_7 C 0.3556(4) 0.7758(3) 0.4321(5)
H21_7 H 0.3636 0.7915 0.4539
C39_7 C 0.3336(4) 0.7514(3) 0.4337(5)
H22_7 H 0.3276 0.7500 0.4573
C40_7 C 0.3203(4) 0.7288(3) 0.4012(5)
C41_7 C 0.3297(4) 0.7313(3) 0.3671(5)
H23_7 H 0.3201 0.7166 0.3441
C42_7 C 0.3526(4) 0.7548(3) 0.3663(5)
H24_7 H 0.3595 0.7555 0.3433
C43_7 C 0.2970(4) 0.7019(3) 0.4033(5)
O9_4 O 0.2896(3) 0.7015(2) 0.4352(4)
O10_7 O 0.5281(3) 0.8900(3) 0.4790(4)
O11_4 O 0.2862(3) 0.6828(3) 0.3731(4)
C44_7 C 0.6217(3) 0.8738(3) 0.6556(3)
C45_7 C 0.6083(4) 0.8769(4) 0.6863(4)
H25_7 H 0.5835 0.8823 0.6772
C46_7 C 0.6303(4) 0.8723(4) 0.7296(4)
H26_7 H 0.6203 0.8737 0.7497
C47_7 C 0.6673(4) 0.8654(4) 0.7438(4)
C48_7 C 0.6809(4) 0.8627(4) 0.7136(4)
H27_7 H 0.7060 0.8584 0.7227
C49_7 C 0.6583(3) 0.8663(4) 0.6699(4)
H28_7 H 0.6679 0.8635 0.6495
C50_7 C 0.6917(4) 0.8625(4) 0.7913(4)
O12_7 O 0.5051(3) 0.9157(2) 0.4012(4)
H29_7 H 0.6355 0.9856 0.4020
H37_7 H 0.9865 0.9992 0.8980
H39_7 H 0.9307 0.9867 0.8961
C94_7 C 0.8691(3) 0.9880(2) 0.9044(5)
C95_7 C 0.8678(4) 0.9593(3) 0.8842(5)
H53_7 H 0.8843 0.9556 0.8720
C96_7 C 0.8433(3) 0.9360(3) 0.8812(5)
H54_7 H 0.8431 0.9167 0.8671
C97_7 C 0.8189(3) 0.9404(3) 0.8989(5)
C98_7 C 0.8196(4) 0.9692(3) 0.9186(5)
H55_7 H 0.8028 0.9729 0.9303
C99_7 C 0.8442(4) 0.9924(3) 0.9215(5)
C100_7 C 0.7928(4) 0.9152(3) 0.8980(5)
Zn1_6 Zn 0.49626(5) 0.58836(4) 0.87000(8)
Zn2_6 Zn 0.45110(6) 0.63493(5) 0.88843(8)
Zn3_8 Zn 0.02260(7) 0.36874(5) 0.42127(9)
O1_8 O 0.2345(2) 0.6443(2) 0.4058(3)
N2_8 N 0.0057(4) 0.3232(4) 0.3929(6)
O3_8 O 0.0302(4) 0.3061(3) 0.3836(5)
B2_8 B 0.0669(6) 0.3195(4) 0.3978(7)
C15_8 C 0.0141(3) 0.4241(3) 0.5433(5)
H9_8 H 0.0130 0.4336 0.5676
C16_8 C 0.0439(3) 0.4024(3) 0.5528(4)
C17_8 C 0.0500(3) 0.3858(3) 0.5202(4)
C18_8 C 0.0807(4) 0.3650(3) 0.5337(4)
C19_8 C 0.1041(4) 0.3618(3) 0.5779(4)
H10_8 H 0.1247 0.3483 0.5866
C20_8 C 0.0979(3) 0.3780(3) 0.6089(3)
C21_8 C 0.0678(3) 0.3979(3) 0.5964(4)
H11_8 H 0.0633 0.4086 0.6178
C22_8 C 0.0890(4) 0.3459(4) 0.5043(5)
H12_8 H 0.1106 0.3336 0.5165
N4_8 N 0.0703(5) 0.3438(4) 0.4638(5)
O5_8 O 0.0856(4) 0.3228(4) 0.4444(5)
C24_8 C 0.0165(3) 0.4714(3) 0.3991(5)
C25_8 C 0.0238(4) 0.4387(3) 0.3944(5)
C26_8 C 0.0513(4) 0.4322(3) 0.3803(5)
C27_8 C 0.0715(4) 0.4569(3) 0.3737(6)
H14_8 H 0.0897 0.4520 0.3645
C28_8 C 0.0652(3) 0.4882(3) 0.3805(5)
C29_8 C 0.0372(4) 0.4951(3) 0.3917(6)
H15_8 H 0.0320 0.5166 0.3946
C30_8 C 0.0611(4) 0.4007(3) 0.3732(6)
H16_8 H 0.0773 0.3991 0.3602
N6_8 N 0.0504(5) 0.3750(3) 0.3825(6)
O7_8 O 0.0663(4) 0.3478(3) 0.3736(5)
C31_8 C 0.0888(5) 0.2935(4) 0.3852(6)
C32_8 C 0.0869(6) 0.2906(5) 0.3439(6)
H17_8 H 0.0720 0.3050 0.3224
C33_8 C 0.1058(6) 0.2679(5) 0.3331(7)
H18_8 H 0.1042 0.2674 0.3048
Br2_8 Br 0.1550(2) 0.21591(14) 0.3499(3)
C34_8 C 0.1266(5) 0.2461(4) 0.3628(7)
C35_8 C 0.1286(6) 0.2471(5) 0.4035(7)
H19_8 H 0.1421 0.2316 0.4242
C36_8 C 0.1105(6) 0.2708(5) 0.4140(6)
H20_8 H 0.1131 0.2717 0.4427
O10_8 O 0.0281(3) 0.3900(3) 0.4790(4)
C44_8 C 0.1217(3) 0.3738(3) 0.6556(3)
C45_8 C 0.1083(4) 0.3769(4) 0.6863(4)
H25_8 H 0.0835 0.3823 0.6772
C46_8 C 0.1303(4) 0.3723(4) 0.7296(4)
H26_8 H 0.1203 0.3737 0.7497
C47_8 C 0.1673(4) 0.3654(4) 0.7438(4)
C48_8 C 0.1809(4) 0.3627(4) 0.7136(4)
H27_8 H 0.2060 0.3584 0.7227
C49_8 C 0.1583(3) 0.3663(4) 0.6699(4)
H28_8 H 0.1679 0.3635 0.6495
C50_8 C 0.1917(4) 0.3625(4) 0.7913(4)
O12_8 O 0.0051(3) 0.4157(2) 0.4012(4)
C51_8 C 0.0904(3) 0.5135(3) 0.3804(5)
C52_8 C 0.1272(3) 0.5067(3) 0.3952(6)
H29_8 H 0.1355 0.4856 0.4020
C53_8 C 0.1516(3) 0.5307(3) 0.3999(6)
H30_8 H 0.1767 0.5258 0.4108
C54_8 C 0.1401(3) 0.5618(3) 0.3890(5)
C55_8 C 0.1028(3) 0.5682(3) 0.3718(6)
H31_8 H 0.0940 0.5890 0.3630
C56_8 C 0.0786(3) 0.5440(3) 0.3677(6)
H32_8 H 0.0533 0.5484 0.3559
C57_8 C 0.1680(4) 0.5877(3) 0.3976(6)
O15_8 O 0.1555(3) 0.6143(3) 0.3818(5)
O16_8 O 0.2009(3) 0.5805(3) 0.4191(5)
C58_8 C 0.5697(4) 0.5145(3) 0.8415(5)
C59_6 C 0.5552(4) 0.4893(4) 0.8131(6)
H33_6 H 0.5294 0.4877 0.7980
C60_6 C 0.5760(4) 0.4667(4) 0.8059(7)
H34_6 H 0.5648 0.4506 0.7852
Br3_6 Br 0.64245(14) 0.43575(12) 0.8210(2)
C61_6 C 0.6132(4) 0.4677(3) 0.8286(6)
C62_6 C 0.6289(4) 0.4913(4) 0.8577(6)
H35_6 H 0.6546 0.4920 0.8738
C63_8 C 0.6076(4) 0.5143(4) 0.8638(6)
H36_8 H 0.6192 0.5306 0.8840
B3_8 B 0.5455(4) 0.5414(3) 0.8486(6)
O17_8 O 0.5288(3) 0.5232(2) 0.8787(4)
N7_8 N 0.5022(3) 0.5393(3) 0.8829(5)
C64_6 C 0.4806(3) 0.5210(3) 0.8935(6)
H37_8 H 0.4865 0.4992 0.8980
C65_6 C 0.4480(3) 0.5318(3) 0.8990(5)
C66_6 C 0.4411(3) 0.5639(3) 0.9046(5)
C67_6 C 0.4101(3) 0.5703(2) 0.9121(5)
C68_6 C 0.3879(3) 0.5450(2) 0.9124(5)
H38_6 H 0.3672 0.5497 0.9172
C69_6 C 0.3942(3) 0.5136(2) 0.9060(5)
C70_6 C 0.4250(3) 0.5079(3) 0.8999(5)
H39_8 H 0.4307 0.4867 0.8961
C71_6 C 0.3994(4) 0.6017(3) 0.9179(6)
H40_6 H 0.3792 0.6031 0.9246
N8_6 N 0.4135(4) 0.6277(3) 0.9152(6)
O18_6 O 0.3948(4) 0.6544(3) 0.9199(5)
B4_6 B 0.4040(5) 0.6854(4) 0.9066(7)
O19_8 O 0.5148(3) 0.5483(2) 0.8079(4)
N9_6 N 0.4902(3) 0.5711(3) 0.8076(4)
C72_6 C 0.4656(3) 0.5776(3) 0.7703(4)
H41_6 H 0.4664 0.5664 0.7469
C73_6 C 0.4363(3) 0.6005(3) 0.7599(4)
C74_6 C 0.4313(4) 0.6202(3) 0.7907(4)
C75_6 C 0.4009(4) 0.6415(3) 0.7756(4)
C76_6 C 0.3781(4) 0.6430(3) 0.7313(4)
H42_6 H 0.3586 0.6577 0.7213
C77_6 C 0.3830(3) 0.6239(3) 0.7016(3)
C78_6 C 0.4118(3) 0.6028(3) 0.7162(4)
H43_6 H 0.4151 0.5896 0.6960
C79_6 C 0.3917(4) 0.6619(4) 0.8032(5)
H44_6 H 0.3717 0.6757 0.7893
N10_6 N 0.4077(4) 0.6631(4) 0.8439(5)
O20_6 O 0.3923(4) 0.6843(3) 0.8614(5)
O21_8 O 0.5684(3) 0.5659(3) 0.8735(4)
N11_8 N 0.5528(3) 0.5912(3) 0.8852(5)
C80_8 C 0.5741(4) 0.6145(3) 0.8999(5)
H45_8 H 0.5979 0.6122 0.9017
C81_8 C 0.5660(3) 0.6444(2) 0.9142(5)
C82_8 C 0.5329(3) 0.6511(3) 0.9175(5)
C83_8 C 0.5287(3) 0.6823(3) 0.9303(5)
C84_8 C 0.5551(3) 0.7055(3) 0.9374(6)
H46_8 H 0.5512 0.7263 0.9450
C85_8 C 0.5870(3) 0.6990(2) 0.9335(5)
C86_8 C 0.5918(3) 0.6687(2) 0.9223(6)
H47_8 H 0.6136 0.6639 0.9198
C87_6 C 0.4967(3) 0.6930(3) 0.9350(6)
H48_6 H 0.4975 0.7133 0.9468
N12_6 N 0.4676(3) 0.6770(3) 0.9243(6)
O22_6 O 0.4420(3) 0.6934(3) 0.9311(5)
C88_6 C 0.3798(5) 0.7117(4) 0.9150(6)
C89_6 C 0.3486(5) 0.7251(5) 0.8831(6)
H49_6 H 0.3399 0.7167 0.8548
C90_6 C 0.3900(5) 0.7248(5) 0.9557(6)
H50_6 H 0.4110 0.7165 0.9790
C91_6 C 0.3294(6) 0.7499(5) 0.8900(6)
H51_6 H 0.3088 0.7587 0.8668
C92_6 C 0.3714(6) 0.7491(5) 0.9639(7)
H52_6 H 0.3796 0.7571 0.9922
Br4_6 Br 0.31452(11) 0.79400(11) 0.9430(2)
C93_6 C 0.3409(5) 0.7615(4) 0.9309(7)
O23_6 O 0.4617(3) 0.5866(2) 0.9023(4)
C94_8 C 0.3691(3) 0.4880(2) 0.9044(5)
C95_8 C 0.3678(4) 0.4593(3) 0.8842(5)
H53_8 H 0.3843 0.4556 0.8720
C96_8 C 0.3433(3) 0.4360(3) 0.8812(5)
H54_8 H 0.3431 0.4167 0.8671
C97_8 C 0.3189(3) 0.4404(3) 0.8989(5)
C98_8 C 0.3196(4) 0.4692(3) 0.9186(5)
H55_8 H 0.3028 0.4729 0.9303
C99_8 C 0.3442(4) 0.4924(3) 0.9215(5)
H56_6 H 0.3442 0.5118 0.9354
C100_8 C 0.2928(4) 0.4152(3) 0.8980(5)
O25_6 O 0.4544(3) 0.6195(3) 0.8311(4)
C101_6 C 0.3576(3) 0.6256(3) 0.6552(3)
C102_6 C 0.3477(4) 0.5991(3) 0.6286(4)
H57_6 H 0.3571 0.5790 0.6405
C103_6 C 0.3243(4) 0.6014(3) 0.5853(4)
H58_6 H 0.3175 0.5830 0.5679
C104_6 C 0.3108(3) 0.6310(3) 0.5672(4)
C105_6 C 0.3203(4) 0.6576(3) 0.5939(4)
H59_6 H 0.3108 0.6776 0.5821
C106_6 C 0.3432(4) 0.6549(3) 0.6372(4)
H60_6 H 0.3492 0.6732 0.6550
C107_6 C 0.2869(4) 0.6350(4) 0.5196(4)
O27_8 O 0.5079(3) 0.6297(2) 0.9092(4)
O28_8 O 0.2736(3) 0.6101(3) 0.4973(4)
O29_6 O 0.2792(3) 0.6626(3) 0.5054(4)
C108_8 C 0.6137(3) 0.7246(2) 0.9390(5)
C109_8 C 0.6017(3) 0.7549(3) 0.9228(5)
H61_8 H 0.5766 0.7598 0.9110
C110_8 C 0.6263(3) 0.7776(3) 0.9238(5)
H62_8 H 0.6177 0.7980 0.9128
C111_8 C 0.6632(3) 0.7713(3) 0.9404(5)
C112_8 C 0.6756(3) 0.7416(3) 0.9580(5)
H63_8 H 0.7009 0.7369 0.9702
C113_8 C 0.6512(3) 0.7190(3) 0.9577(5)
H64_8 H 0.6601 0.6991 0.9705
C114_8 C 0.6899(4) 0.7958(3) 0.9397(5)
O32_8 O 0.1254(7) 0.6732(8) 0.3401(12)
S1_8 S 0.0886(6) 0.6633(4) 0.3126(8)
C115_8 C 0.0731(12) 0.6895(12) 0.2671(11)
H65_8 H 0.0481 0.6840 0.2470
H66_8 H 0.0889 0.6875 0.2525
H67_8 H 0.0738 0.7114 0.2768
C116_8 C 0.0558(10) 0.6822(12) 0.3273(16)
H68_8 H 0.0313 0.6750 0.3080
H69_8 H 0.0572 0.7052 0.3248
H70_8 H 0.0611 0.6767 0.3570
O33_8 O 0.2031(5) 0.6965(4) 0.3571(6)
S2_8 S 0.1842(2) 0.7150(2) 0.3175(4)
C117_8 C 0.2186(6) 0.7354(6) 0.3099(10)
H71_8 H 0.2075 0.7483 0.2838
H72_8 H 0.2354 0.7201 0.3070
H73_8 H 0.2318 0.7491 0.3347
C118_8 C 0.1656(7) 0.7504(5) 0.3265(11)
H74_8 H 0.1533 0.7619 0.2994
H75_8 H 0.1852 0.7635 0.3473
H76_8 H 0.1481 0.7455 0.3380
Zn4_8 Zn 0.98021(6) 0.41596(5) 0.44439(8)
C1_8 C 0.9138(3) 0.4917(3) 0.4815(5)
C2_8 C 0.8813(4) 0.4845(3) 0.4838(6)
H1_8 H 0.8722 0.4635 0.4776
C3_8 C 0.8617(4) 0.5066(3) 0.4948(6)
H2_8 H 0.8394 0.5008 0.4954
Br1_4 Br 0.84987(8) 0.56838(6) 0.52128(13)
C4_4 C 0.8748(4) 0.5370(3) 0.5049(5)
C5_4 C 0.9069(4) 0.5445(3) 0.5036(6)
H3_4 H 0.9162 0.5653 0.5107
C6_8 C 0.9260(4) 0.5227(3) 0.4923(5)
H4_8 H 0.9482 0.5289 0.4917
B1_8 B 0.9376(4) 0.4674(3) 0.4689(6)
O2_8 O 0.9101(3) 0.4382(3) 0.4453(4)
N1_8 N 0.9267(4) 0.4133(3) 0.4387(5)
C7_8 C 0.9037(4) 0.3880(3) 0.4250(6)
H5_8 H 0.8798 0.3909 0.4227
C8_8 C 0.9125(3) 0.3562(3) 0.4132(5)
C9_8 C 0.9435(4) 0.3496(3) 0.4067(5)
C10_8 C 0.9480(3) 0.3180(3) 0.3958(5)
C11_8 C 0.9214(4) 0.2952(3) 0.3915(5)
H6_8 H 0.9241 0.2743 0.3835
C12_8 C 0.8914(3) 0.3025(3) 0.3987(5)
C13_8 C 0.8869(4) 0.3332(3) 0.4093(5)
H7_8 H 0.8662 0.3386 0.4138
C14_8 C 0.9788(4) 0.3068(4) 0.3896(6)
H8_8 H 0.9788 0.2852 0.3824
O4_6 O 0.9659(3) 0.4556(2) 0.5093(4)
N3_6 N 0.9893(3) 0.4323(3) 0.5071(4)
O6_8 O 0.9484(3) 0.4810(3) 0.4394(4)
N5_8 N 0.9719(3) 0.4643(3) 0.4275(5)
C23_8 C 0.9901(4) 0.4817(3) 0.4139(5)
H13_8 H 0.9859 0.5038 0.4134
O8_8 O 0.9678(3) 0.3712(3) 0.4123(4)
C37_8 C 0.8659(4) 0.2775(3) 0.3987(5)
C38_8 C 0.8556(4) 0.2758(3) 0.4321(5)
H21_8 H 0.8636 0.2915 0.4539
C39_8 C 0.8336(4) 0.2514(3) 0.4337(5)
H22_8 H 0.8276 0.2500 0.4573
C40_8 C 0.8203(4) 0.2288(3) 0.4012(5)
C41_8 C 0.8297(4) 0.2313(3) 0.3671(5)
H23_8 H 0.8201 0.2166 0.3441
C42_8 C 0.8526(4) 0.2548(3) 0.3663(5)
H24_8 H 0.8595 0.2555 0.3433
C43_8 C 0.7970(4) 0.2019(3) 0.4033(5)
Zn1_7 Zn 0.99626(5) 0.91164(4) 0.37000(8)
Zn2_7 Zn 0.95110(6) 0.86507(5) 0.38843(8)
Br1_5 Br 0.34987(8) 0.93162(6) 0.02128(13)
C4_5 C 0.3748(4) 0.9630(3) 0.0049(5)
C5_5 C 0.4069(4) 0.9555(3) 0.0036(6)
H3_5 H 0.4162 0.9347 0.0107
C64_7 C 0.9806(3) 0.9790(3) 0.3935(6)
C65_7 C 0.9480(3) 0.9682(3) 0.3990(5)
C66_7 C 0.9411(3) 0.9361(3) 0.4046(5)
C67_7 C 0.9101(3) 0.9297(2) 0.4121(5)
C68_7 C 0.8879(3) 0.9550(2) 0.4124(5)
H38_7 H 0.8672 0.9503 0.4172
C69_7 C 0.8942(3) 0.9864(2) 0.4060(5)
C70_7 C 0.9250(3) 0.9921(3) 0.3999(5)
C71_7 C 0.8994(4) 0.8983(3) 0.4179(6)
H40_7 H 0.8792 0.8969 0.4246
N8_7 N 0.9135(4) 0.8723(3) 0.4152(6)
O18_7 O 0.8948(4) 0.8456(3) 0.4199(5)
B4_7 B 0.9040(5) 0.8146(4) 0.4066(7)
N9_7 N 0.9902(3) 0.9289(3) 0.3076(4)
C72_7 C 0.9656(3) 0.9224(3) 0.2703(4)
H41_7 H 0.9664 0.9336 0.2469
C73_7 C 0.9363(3) 0.8995(3) 0.2599(4)
C74_7 C 0.9313(4) 0.8798(3) 0.2907(4)
C75_7 C 0.9009(4) 0.8585(3) 0.2756(4)
C76_7 C 0.8781(4) 0.8570(3) 0.2313(4)
H42_7 H 0.8586 0.8423 0.2213
C77_7 C 0.8830(3) 0.8761(3) 0.2016(3)
C78_7 C 0.9118(3) 0.8972(3) 0.2162(4)
H43_7 H 0.9151 0.9104 0.1960
C79_7 C 0.8917(4) 0.8381(4) 0.3032(5)
H44_7 H 0.8717 0.8243 0.2893
N10_7 N 0.9077(4) 0.8369(4) 0.3439(5)
O20_7 O 0.8923(4) 0.8157(3) 0.3614(5)
C87_7 C 0.9967(3) 0.8070(3) 0.4350(6)
H48_7 H 0.9975 0.7867 0.4468
N12_7 N 0.9676(3) 0.8230(3) 0.4243(6)
O22_7 O 0.9420(3) 0.8066(3) 0.4311(5)
C88_7 C 0.8798(5) 0.7883(4) 0.4150(6)
C89_7 C 0.8486(5) 0.7749(5) 0.3831(6)
H49_7 H 0.8399 0.7833 0.3548
C90_7 C 0.8900(5) 0.7752(5) 0.4557(6)
H50_7 H 0.9110 0.7835 0.4790
C91_7 C 0.8294(6) 0.7501(5) 0.3900(6)
H51_7 H 0.8088 0.7413 0.3668
C92_7 C 0.8714(6) 0.7509(5) 0.4639(7)
H52_7 H 0.8796 0.7429 0.4922
Br4_7 Br 0.81452(11) 0.70600(11) 0.4430(2)
C93_7 C 0.8409(5) 0.7385(4) 0.4309(7)
O23_7 O 0.9617(3) 0.9134(2) 0.4023(4)
H56_7 H 0.8442 0.9882 0.4354
O25_7 O 0.9544(3) 0.8805(3) 0.3311(4)
C101_7 C 0.8576(3) 0.8744(3) 0.1552(3)
C102_7 C 0.8477(4) 0.9009(3) 0.1286(4)
H57_7 H 0.8571 0.9210 0.1405
C103_7 C 0.8243(4) 0.8986(3) 0.0853(4)
H58_7 H 0.8175 0.9170 0.0679
C104_7 C 0.8108(3) 0.8690(3) 0.0672(4)
C105_7 C 0.8203(4) 0.8424(3) 0.0939(4)
H59_7 H 0.8108 0.8224 0.0821
C106_7 C 0.8432(4) 0.8451(3) 0.1372(4)
H60_7 H 0.8492 0.8268 0.1550
C107_7 C 0.7869(4) 0.8650(4) 0.0196(4)
O29_7 O 0.7792(3) 0.8374(3) 0.0054(4)
Br1_6 Br 0.84987(8) 0.43162(6) 0.02128(13)
C4_6 C 0.8748(4) 0.4630(3) 0.0049(5)
C5_6 C 0.9069(4) 0.4555(3) 0.0036(6)
H3_6 H 0.9162 0.4347 0.0107
O4_7 O 0.9659(3) 0.5444(2) 0.0093(4)
N3_7 N 0.9893(3) 0.5677(3) 0.0071(4)
C59_7 C 0.0552(4) 0.9893(4) 0.8131(6)
H33_7 H 0.0294 0.9877 0.7980
C60_7 C 0.0760(4) 0.9667(4) 0.8059(7)
H34_7 H 0.0648 0.9506 0.7852
Br3_7 Br 0.14245(14) 0.93575(12) 0.8210(2)
C61_7 C 0.1132(4) 0.9677(3) 0.8286(6)
C62_7 C 0.1289(4) 0.9913(4) 0.8577(6)
H35_7 H 0.1546 0.9920 0.8738
Zn1_8 Zn 0.00374(5) 0.08836(4) 0.63000(8)
Zn2_8 Zn 0.04890(6) 0.13493(5) 0.61157(8)
Br1_7 Br 0.65013(8) 0.06838(6) 0.97872(13)
C4_7 C 0.6252(4) 0.0370(3) 0.9951(5)
C5_7 C 0.5931(4) 0.0445(3) 0.9964(6)
H3_7 H 0.5838 0.0653 0.9893
C64_8 C 0.0194(3) 0.0210(3) 0.6065(6)
C65_8 C 0.0520(3) 0.0318(3) 0.6010(5)
C66_8 C 0.0589(3) 0.0639(3) 0.5954(5)
C67_8 C 0.0899(3) 0.0703(2) 0.5879(5)
C68_8 C 0.1121(3) 0.0450(2) 0.5876(5)
H38_8 H 0.1328 0.0497 0.5828
C69_8 C 0.1058(3) 0.0136(2) 0.5940(5)
C70_8 C 0.0750(3) 0.0079(3) 0.6001(5)
C71_8 C 0.1006(4) 0.1017(3) 0.5821(6)
H40_8 H 0.1208 0.1031 0.5754
N8_8 N 0.0865(4) 0.1277(3) 0.5848(6)
O18_8 O 0.1052(4) 0.1544(3) 0.5801(5)
B4_8 B 0.0960(5) 0.1854(4) 0.5934(7)
N9_8 N 0.0098(3) 0.0711(3) 0.6924(4)
C72_8 C 0.0344(3) 0.0776(3) 0.7297(4)
H41_8 H 0.0336 0.0664 0.7531
C73_8 C 0.0637(3) 0.1005(3) 0.7401(4)
C74_8 C 0.0687(4) 0.1202(3) 0.7093(4)
C75_8 C 0.0991(4) 0.1415(3) 0.7244(4)
C76_8 C 0.1219(4) 0.1430(3) 0.7687(4)
H42_8 H 0.1414 0.1577 0.7787
C77_8 C 0.1170(3) 0.1239(3) 0.7984(3)
C78_8 C 0.0882(3) 0.1028(3) 0.7838(4)
H43_8 H 0.0849 0.0896 0.8040
C79_8 C 0.1083(4) 0.1619(4) 0.6968(5)
H44_8 H 0.1283 0.1757 0.7107
N10_8 N 0.0923(4) 0.1631(4) 0.6561(5)
O20_8 O 0.1077(4) 0.1843(3) 0.6386(5)
C87_8 C 0.0033(3) 0.1930(3) 0.5650(6)
H48_8 H 0.0025 0.2133 0.5532
N12_8 N 0.0324(3) 0.1770(3) 0.5757(6)
O22_8 O 0.0580(3) 0.1934(3) 0.5689(5)
C88_8 C 0.1202(5) 0.2117(4) 0.5850(6)
C89_8 C 0.1514(5) 0.2251(5) 0.6169(6)
H49_8 H 0.1601 0.2167 0.6452
C90_8 C 0.1100(5) 0.2248(5) 0.5443(6)
H50_8 H 0.0890 0.2165 0.5210
C91_8 C 0.1706(6) 0.2499(5) 0.6100(6)
H51_8 H 0.1912 0.2587 0.6332
C92_8 C 0.1286(6) 0.2491(5) 0.5361(7)
H52_8 H 0.1204 0.2571 0.5078
Br4_8 Br 0.18548(11) 0.29400(11) 0.5570(2)
C93_8 C 0.1591(5) 0.2615(4) 0.5691(7)
O23_8 O 0.0383(3) 0.0866(2) 0.5977(4)
H56_8 H 0.1558 0.0118 0.5646
O25_8 O 0.0456(3) 0.1195(3) 0.6689(4)
C101_8 C 0.1424(3) 0.1256(3) 0.8448(3)
C102_8 C 0.1523(4) 0.0991(3) 0.8714(4)
H57_8 H 0.1429 0.0790 0.8595
C103_8 C 0.1757(4) 0.1014(3) 0.9147(4)
H58_8 H 0.1825 0.0830 0.9321
C104_8 C 0.1892(3) 0.1310(3) 0.9328(4)
C105_8 C 0.1797(4) 0.1576(3) 0.9061(4)
H59_8 H 0.1892 0.1776 0.9179
C106_8 C 0.1568(4) 0.1549(3) 0.8628(4)
H60_8 H 0.1508 0.1732 0.8450
C107_8 C 0.2131(4) 0.1350(4) 0.9804(4)
O29_8 O 0.2208(3) 0.1626(3) 0.9946(4)
C59_8 C 0.9448(4) 0.9893(4) 0.6869(6)
H33_8 H 0.9706 0.9877 0.7020
C60_8 C 0.9240(4) 0.9667(4) 0.6941(7)
H34_8 H 0.9352 0.9506 0.7148
Br3_8 Br 0.85755(14) 0.93575(12) 0.6790(2)
C61_8 C 0.8868(4) 0.9677(3) 0.6714(6)
C62_8 C 0.8711(4) 0.9913(4) 0.6423(6)
H35_8 H 0.8454 0.9920 0.6262
Br1_8 Br 0.15013(8) 0.56838(6) 0.97872(13)
C4_8 C 0.1252(4) 0.5370(3) 0.9951(5)
C5_8 C 0.0931(4) 0.5445(3) 0.9964(6)
H3_8 H 0.0838 0.5653 0.9893
O4_8 O 0.0341(3) 0.4556(2) 0.9907(4)
N3_8 N 0.0107(3) 0.4323(3) 0.9929(4)
loop_
_geom_bond_atom_site_label_1
_geom_bond_atom_site_label_2
_geom_bond_site_symmetry_1
_geom_bond_site_symmetry_2
Zn3 N2 1_555 1_555
Zn4 N1 1_555 1_555
C1 C2 1_555 1_555
C2 H1 1_555 1_555
B1 C1 1_555 1_555
O2 B1 1_555 1_555
N1 O2 1_555 1_555
C7 N1 1_555 1_555
H5 C7 1_555 1_555
C8 C7 1_555 1_555
C9 C8 1_555 1_555
C10 C9 1_555 1_555
C11 C10 1_555 1_555
H6 C11 1_555 1_555
C12 C11 1_555 1_555
C13 C8 1_555 1_555
H7 C13 1_555 1_555
C14 C10 1_555 1_555
H8 C14 1_555 1_555
N2 C14 1_555 1_555
O3 N2 1_555 1_555
B2 O3 1_555 1_555
O4 B1 1_555 1_555
N3 Zn4 1_555 1_555
C15 N3 1_555 1_555
H9 C15 1_555 1_555
C16 C15 1_555 1_555
C17 C16 1_555 1_555
C18 C17 1_555 1_555
C19 C18 1_555 1_555
H10 C19 1_555 1_555
C20 C19 1_555 1_555
C21 C16 1_555 1_555
H11 C21 1_555 1_555
C22 C18 1_555 1_555
H12 C22 1_555 1_555
N4 Zn3 1_555 1_555
O5 B2 1_555 1_555
O6 B1 1_555 1_555
N5 Zn4 1_555 1_555
C23 N5 1_555 1_555
C24 C23 1_555 1_555
C25 C24 1_555 1_555
C26 C25 1_555 1_555
C27 C26 1_555 1_555
H14 C27 1_555 1_555
C28 C27 1_555 1_555
C29 C24 1_555 1_555
C30 C26 1_555 1_555
H16 C30 1_555 1_555
N6 Zn3 1_555 1_555
O7 B2 1_555 1_555
C31 B2 1_555 1_555
C32 C31 1_555 1_555
H17 C32 1_555 1_555
C33 C32 1_555 1_555
H18 C33 1_555 1_555
Br2 C34 1_555 1_555
C34 C33 1_555 1_555
C35 C34 1_555 1_555
H19 C35 1_555 1_555
C36 C31 1_555 1_555
H20 C36 1_555 1_555
O8 Zn3 1_555 1_555
C37 C12 1_555 1_555
C38 C37 1_555 1_555
H21 C38 1_555 1_555
C39 C38 1_555 1_555
H22 C39 1_555 1_555
C40 C39 1_555 1_555
C41 C40 1_555 1_555
H23 C41 1_555 1_555
C42 C37 1_555 1_555
H24 C42 1_555 1_555
C43 C40 1_555 1_555
O9 C43 1_555 1_555
O10 Zn3 1_555 1_555
O11 C43 1_555 1_555
C44 C20 1_555 1_555
C45 C44 1_555 1_555
H25 C45 1_555 1_555
C46 C45 1_555 1_555
H26 C46 1_555 1_555
C47 C46 1_555 1_555
C48 C47 1_555 1_555
H27 C48 1_555 1_555
C49 C44 1_555 1_555
H28 C49 1_555 1_555
C50 C47 1_555 1_555
O12 Zn3 1_555 1_555
O13 C50 1_555 1_555
O14 C50 1_555 1_555
C95 C94 1_555 1_555
H53 C95 1_555 1_555
C96 C95 1_555 1_555
H54 C96 1_555 1_555
C97 C96 1_555 1_555
C98 C97 1_555 1_555
H55 C98 1_555 1_555
C99 C94 1_555 1_555
C100 C97 1_555 1_555
O24 C100 1_555 1_555
O26 C100 1_555 1_555
Zn9 O9 1_555 1_555
Zn11 O26 1_555 1_555
Zn12 O13 1_555 1_555
Zn14 O11 1_555 1_555
Zn15 O14 1_555 1_555
Zn4 O8 1_555 1_555
Zn4 O10 1_555 1_555
Zn4 O12 1_555 1_555
C9 O8 1_555 1_555
C12 C13 1_555 1_555
O4 N3 1_555 1_555
C17 O10 1_555 1_555
C20 C21 1_555 1_555
C22 N4 1_555 1_555
N4 O5 1_555 1_555
O6 N5 1_555 1_555
C25 O12 1_555 1_555
C28 C29 1_555 1_555
C30 N6 1_555 1_555
N6 O7 1_555 1_555
C35 C36 1_555 1_555
C41 C42 1_555 1_555
C48 C49 1_555 1_555
C98 C99 1_555 1_555
O24 Zn15 1_555 1_555
Zn2 N8 1_555 1_555
Zn5 O1 1_555 1_555
Zn6 O1 1_555 1_555
Zn7 O1 1_555 1_555
Zn8 O1 1_555 1_555
H2 C3 1_555 1_555
Br1 C4 1_555 1_555
C4 C3 1_555 1_555
C5 C4 1_555 1_555
H3 C5 1_555 1_555
H4 C6 1_555 1_555
C52 C51 1_555 1_555
C53 C52 1_555 1_555
H30 C53 1_555 1_555
C54 C53 1_555 1_555
C55 C54 1_555 1_555
H31 C55 1_555 1_555
C56 C51 1_555 1_555
H32 C56 1_555 1_555
C57 C54 1_555 1_555
O15 Zn7 1_555 1_555
O16 Zn6 1_555 1_555
C65 C64 1_555 1_555
C66 C65 1_555 1_555
C67 C66 1_555 1_555
C68 C67 1_555 1_555
H38 C68 1_555 1_555
C69 C68 1_555 1_555
C70 C65 1_555 1_555
C71 C67 1_555 1_555
H40 C71 1_555 1_555
N8 C71 1_555 1_555
O18 N8 1_555 1_555
B4 O18 1_555 1_555
N9 Zn1 1_555 1_555
C72 N9 1_555 1_555
H41 C72 1_555 1_555
C73 C72 1_555 1_555
C74 C73 1_555 1_555
C75 C74 1_555 1_555
C76 C75 1_555 1_555
H42 C76 1_555 1_555
C77 C76 1_555 1_555
C78 C73 1_555 1_555
H43 C78 1_555 1_555
C79 C75 1_555 1_555
H44 C79 1_555 1_555
N10 Zn2 1_555 1_555
O20 B4 1_555 1_555
H48 C87 1_555 1_555
N12 Zn2 1_555 1_555
O22 B4 1_555 1_555
C88 B4 1_555 1_555
C89 C88 1_555 1_555
H49 C89 1_555 1_555
C90 C88 1_555 1_555
H50 C90 1_555 1_555
C91 C89 1_555 1_555
H51 C91 1_555 1_555
C92 C90 1_555 1_555
H52 C92 1_555 1_555
Br4 C93 1_555 1_555
C93 C91 1_555 1_555
O23 Zn1 1_555 1_555
O25 Zn1 1_555 1_555
C101 C77 1_555 1_555
C102 C101 1_555 1_555
H57 C102 1_555 1_555
C103 C102 1_555 1_555
H58 C103 1_555 1_555
C104 C103 1_555 1_555
C105 C104 1_555 1_555
H59 C105 1_555 1_555
C106 C101 1_555 1_555
H60 C106 1_555 1_555
C107 C104 1_555 1_555
O28 Zn6 1_555 1_555
O29 Zn5 1_555 1_555
O32 Zn7 1_555 1_555
S1 O32 1_555 1_555
C115 S1 1_555 1_555
H65 C115 1_555 1_555
H66 C115 1_555 1_555
H67 C115 1_555 1_555
C116 S1 1_555 1_555
H68 C116 1_555 1_555
H69 C116 1_555 1_555
H70 C116 1_555 1_555
O33 Zn7 1_555 1_555
S2 O33 1_555 1_555
C117 S2 1_555 1_555
H71 C117 1_555 1_555
H72 C117 1_555 1_555
H73 C117 1_555 1_555
C118 S2 1_555 1_555
H74 C118 1_555 1_555
H75 C118 1_555 1_555
H76 C118 1_555 1_555
O34 Zn5 1_555 1_555
O35 Zn8 1_555 1_555
O36 Zn7 1_555 1_555
O37 Zn8 1_555 1_555
O38 Zn8 1_555 1_555
O39 Zn6 1_555 1_555
O40 Zn5 1_555 1_555
O41 Zn7 1_555 1_555
Zn2 O23 1_555 1_555
Zn2 O25 1_555 1_555
C5 C6 1_555 1_555
C55 C56 1_555 1_555
C57 O15 1_555 1_555
C57 O16 1_555 1_555
C66 O23 1_555 1_555
C69 C70 1_555 1_555
C74 O25 1_555 1_555
C77 C78 1_555 1_555
C79 N10 1_555 1_555
N10 O20 1_555 1_555
C87 N12 1_555 1_555
N12 O22 1_555 1_555
C92 C93 1_555 1_555
C105 C106 1_555 1_555
C107 O28 1_555 1_555
C107 O29 1_555 1_555
C63 C58 1_555 1_555
H36 C63 1_555 1_555
B3 C58 1_555 1_555
O17 B3 1_555 1_555
N7 O17 1_555 1_555
O19 B3 1_555 1_555
O21 B3 1_555 1_555
C80 N11 1_555 1_555
H45 C80 1_555 1_555
C81 C80 1_555 1_555
C82 C81 1_555 1_555
C83 C82 1_555 1_555
C84 C83 1_555 1_555
H46 C84 1_555 1_555
C85 C84 1_555 1_555
C86 C81 1_555 1_555
H47 C86 1_555 1_555
C108 C85 1_555 1_555
C109 C108 1_555 1_555
H61 C109 1_555 1_555
C110 C109 1_555 1_555
H62 C110 1_555 1_555
C111 C110 1_555 1_555
C112 C111 1_555 1_555
H63 C112 1_555 1_555
C113 C108 1_555 1_555
H64 C113 1_555 1_555
C114 C111 1_555 1_555
O30 C114 1_555 1_555
O31 C114 1_555 1_555
Zn10 O30 1_555 1_555
Zn13 O31 1_555 1_555
O21 N11 1_555 1_555
C82 O27 1_555 1_555
C85 C86 1_555 1_555
C112 C113 1_555 1_555
Zn4_2 N1_2 1_555 1_555
C1_2 C2_2 1_555 1_555
C2_2 H1_2 1_555 1_555
C3_2 C2_2 1_555 1_555
H2_2 C3_2 1_555 1_555
Br1_2 C4_2 1_555 1_555
C4_2 C3_2 1_555 1_555
C5_2 C4_2 1_555 1_555
H3_2 C5_2 1_555 1_555
C6_2 C1_2 1_555 1_555
H4_2 C6_2 1_555 1_555
B1_2 C1_2 1_555 1_555
O2_2 B1_2 1_555 1_555
N1_2 O2_2 1_555 1_555
C7_2 N1_2 1_555 1_555
H5_2 C7_2 1_555 1_555
C8_2 C7_2 1_555 1_555
C9_2 C8_2 1_555 1_555
C10_2 C9_2 1_555 1_555
C11_2 C10_2 1_555 1_555
H6_2 C11_2 1_555 1_555
C12_2 C11_2 1_555 1_555
C13_2 C8_2 1_555 1_555
H7_2 C13_2 1_555 1_555
C14_2 C10_2 1_555 1_555
H8_2 C14_2 1_555 1_555
O4_2 B1_2 1_555 1_555
N3_2 Zn4_2 1_555 1_555
O6_2 B1_2 1_555 1_555
N5_2 Zn4_2 1_555 1_555
C23_2 N5_2 1_555 1_555
H13_2 C23_2 1_555 1_555
C37_2 C12_2 1_555 1_555
C38_2 C37_2 1_555 1_555
H21_2 C38_2 1_555 1_555
C39_2 C38_2 1_555 1_555
H22_2 C39_2 1_555 1_555
C40_2 C39_2 1_555 1_555
C41_2 C40_2 1_555 1_555
H23_2 C41_2 1_555 1_555
C42_2 C37_2 1_555 1_555
H24_2 C42_2 1_555 1_555
C43_2 C40_2 1_555 1_555
O34 C43_2 1_555 1_555
O35 C43_2 1_555 1_555
Zn4_2 O8_2 1_555 1_555
C5_2 C6_2 1_555 1_555
C9_2 O8_2 1_555 1_555
C12_2 C13_2 1_555 1_555
O4_2 N3_2 1_555 1_555
O6_2 N5_2 1_555 1_555
C41_2 C42_2 1_555 1_555
Zn1_2 N7_2 1_555 1_555
Zn2_2 N8_2 1_555 1_555
Zn3_2 N2_2 1_555 1_555
Zn9 O1_2 1_555 1_555
Zn6_2 O1_2 1_555 1_555
Zn7_2 O1_2 1_555 1_555
Zn14 O1_2 1_555 1_555
O3_2 N2_2 1_555 1_555
B2_2 O3_2 1_555 1_555
H9_2 C15_2 1_555 1_555
C16_2 C15_2 1_555 1_555
C17_2 C16_2 1_555 1_555
C18_2 C17_2 1_555 1_555
C19_2 C18_2 1_555 1_555
H10_2 C19_2 1_555 1_555
C20_2 C19_2 1_555 1_555
C21_2 C16_2 1_555 1_555
H11_2 C21_2 1_555 1_555
C22_2 C18_2 1_555 1_555
H12_2 C22_2 1_555 1_555
N4_2 Zn3_2 1_555 1_555
O5_2 B2_2 1_555 1_555
C25_2 C24_2 1_555 1_555
C26_2 C25_2 1_555 1_555
C27_2 C26_2 1_555 1_555
H14_2 C27_2 1_555 1_555
C28_2 C27_2 1_555 1_555
C29_2 C24_2 1_555 1_555
H15_2 C29_2 1_555 1_555
C30_2 C26_2 1_555 1_555
H16_2 C30_2 1_555 1_555
N6_2 Zn3_2 1_555 1_555
O7_2 B2_2 1_555 1_555
C31_2 B2_2 1_555 1_555
C32_2 C31_2 1_555 1_555
H17_2 C32_2 1_555 1_555
C33_2 C32_2 1_555 1_555
H18_2 C33_2 1_555 1_555
Br2_2 C34_2 1_555 1_555
C34_2 C33_2 1_555 1_555
C35_2 C34_2 1_555 1_555
H19_2 C35_2 1_555 1_555
C36_2 C31_2 1_555 1_555
H20_2 C36_2 1_555 1_555
O10_2 Zn3_2 1_555 1_555
C44_2 C20_2 1_555 1_555
C45_2 C44_2 1_555 1_555
H25_2 C45_2 1_555 1_555
C46_2 C45_2 1_555 1_555
H26_2 C46_2 1_555 1_555
C47_2 C46_2 1_555 1_555
C48_2 C47_2 1_555 1_555
H27_2 C48_2 1_555 1_555
C49_2 C44_2 1_555 1_555
H28_2 C49_2 1_555 1_555
C50_2 C47_2 1_555 1_555
O12_2 Zn3_2 1_555 1_555
O13_2 C50_2 1_555 1_555
O14_2 C50_2 1_555 1_555
C51_2 C28_2 1_555 1_555
C52_2 C51_2 1_555 1_555
H29_2 C52_2 1_555 1_555
C53_2 C52_2 1_555 1_555
H30_2 C53_2 1_555 1_555
C54_2 C53_2 1_555 1_555
C55_2 C54_2 1_555 1_555
H31_2 C55_2 1_555 1_555
C56_2 C51_2 1_555 1_555
H32_2 C56_2 1_555 1_555
C57_2 C54_2 1_555 1_555
O15_2 Zn7_2 1_555 1_555
O16_2 Zn6_2 1_555 1_555
C58_2 C59 1_555 1_555
C59 H33 1_555 1_555
C60 C59 1_555 1_555
H34 C60 1_555 1_555
Br3 C61 1_555 1_555
C61 C60 1_555 1_555
C62 C61 1_555 1_555
H35 C62 1_555 1_555
C63_2 C58_2 1_555 1_555
H36_2 C63_2 1_555 1_555
B3_2 C58_2 1_555 1_555
O17_2 B3_2 1_555 1_555
N7_2 O17_2 1_555 1_555
C64_2 N7_2 1_555 1_555
H37_2 C64_2 1_555 1_555
C65_2 C64_2 1_555 1_555
C66_2 C65_2 1_555 1_555
C67_2 C66_2 1_555 1_555
C68_2 C67_2 1_555 1_555
H38_2 C68_2 1_555 1_555
C69_2 C68_2 1_555 1_555
C70_2 C65_2 1_555 1_555
H39_2 C70_2 1_555 1_555
C71_2 C67_2 1_555 1_555
H40_2 C71_2 1_555 1_555
N8_2 C71_2 1_555 1_555
O18_2 N8_2 1_555 1_555
B4_2 O18_2 1_555 1_555
O19_2 B3_2 1_555 1_555
N9_2 Zn1_2 1_555 1_555
C72_2 N9_2 1_555 1_555
H41_2 C72_2 1_555 1_555
C73_2 C72_2 1_555 1_555
C74_2 C73_2 1_555 1_555
C75_2 C74_2 1_555 1_555
C76_2 C75_2 1_555 1_555
H42_2 C76_2 1_555 1_555
C77_2 C76_2 1_555 1_555
C78_2 C73_2 1_555 1_555
H43_2 C78_2 1_555 1_555
C79_2 C75_2 1_555 1_555
H44_2 C79_2 1_555 1_555
N10_2 Zn2_2 1_555 1_555
O20_2 B4_2 1_555 1_555
O21_2 B3_2 1_555 1_555
N11_2 Zn1_2 1_555 1_555
C80_2 N11_2 1_555 1_555
H45_2 C80_2 1_555 1_555
C81_2 C80_2 1_555 1_555
C82_2 C81_2 1_555 1_555
C83_2 C82_2 1_555 1_555
C84_2 C83_2 1_555 1_555
H46_2 C84_2 1_555 1_555
C85_2 C84_2 1_555 1_555
C86_2 C81_2 1_555 1_555
H47_2 C86_2 1_555 1_555
C87_2 C83_2 1_555 1_555
H48_2 C87_2 1_555 1_555
N12_2 Zn2_2 1_555 1_555
O22_2 B4_2 1_555 1_555
C88_2 B4_2 1_555 1_555
C89_2 C88_2 1_555 1_555
H49_2 C89_2 1_555 1_555
C90_2 C88_2 1_555 1_555
H50_2 C90_2 1_555 1_555
C91_2 C89_2 1_555 1_555
H51_2 C91_2 1_555 1_555
C92_2 C90_2 1_555 1_555
H52_2 C92_2 1_555 1_555
Br4_2 C93_2 1_555 1_555
C93_2 C91_2 1_555 1_555
O23_2 Zn1_2 1_555 1_555
C94_2 C69_2 1_555 1_555
C95_2 C94_2 1_555 1_555
H53_2 C95_2 1_555 1_555
C96_2 C95_2 1_555 1_555
H54_2 C96_2 1_555 1_555
C97_2 C96_2 1_555 1_555
C98_2 C97_2 1_555 1_555
H55_2 C98_2 1_555 1_555
C99_2 C94_2 1_555 1_555
H56_2 C99_2 1_555 1_555
C100_2 C97_2 1_555 1_555
O24_2 C100_2 1_555 1_555
O25_2 Zn1_2 1_555 1_555
O26_2 C100_2 1_555 1_555
C101_2 C77_2 1_555 1_555
C102_2 C101_2 1_555 1_555
H57_2 C102_2 1_555 1_555
C103_2 C102_2 1_555 1_555
H58_2 C103_2 1_555 1_555
C104_2 C103_2 1_555 1_555
C105_2 C104_2 1_555 1_555
H59_2 C105_2 1_555 1_555
C106_2 C101_2 1_555 1_555
H60_2 C106_2 1_555 1_555
C107_2 C104_2 1_555 1_555
O27_2 Zn1_2 1_555 1_555
O28_2 Zn6_2 1_555 1_555
O29_2 Zn9 1_555 1_555
C108_2 C85_2 1_555 1_555
C109_2 C108_2 1_555 1_555
H61_2 C109_2 1_555 1_555
C110_2 C109_2 1_555 1_555
H62_2 C110_2 1_555 1_555
C111_2 C110_2 1_555 1_555
C112_2 C111_2 1_555 1_555
H63_2 C112_2 1_555 1_555
C113_2 C108_2 1_555 1_555
H64_2 C113_2 1_555 1_555
C114_2 C111_2 1_555 1_555
O30_2 C114_2 1_555 1_555
O31_2 C114_2 1_555 1_555
O32_2 Zn7_2 1_555 1_555
S1_2 O32_2 1_555 1_555
C115_2 S1_2 1_555 1_555
H65_2 C115_2 1_555 1_555
H66_2 C115_2 1_555 1_555
H67_2 C115_2 1_555 1_555
C116_2 S1_2 1_555 1_555
H68_2 C116_2 1_555 1_555
H69_2 C116_2 1_555 1_555
H70_2 C116_2 1_555 1_555
O33_2 Zn7_2 1_555 1_555
S2_2 O33_2 1_555 1_555
C117_2 S2_2 1_555 1_555
H71_2 C117_2 1_555 1_555
H72_2 C117_2 1_555 1_555
H73_2 C117_2 1_555 1_555
C118_2 S2_2 1_555 1_555
H74_2 C118_2 1_555 1_555
H75_2 C118_2 1_555 1_555
H76_2 C118_2 1_555 1_555
Zn10_2 O30_2 1_555 1_555
Zn11_2 O26_2 1_555 1_555
Zn13 O13_2 1_555 1_555
Zn12 O31_2 1_555 1_555
Zn15_2 O14_2 1_555 1_555
O36_2 Zn7_2 1_555 1_555
O37_2 Zn14 1_555 1_555
O38_2 Zn14 1_555 1_555
O39_2 Zn6_2 1_555 1_555
O40_2 Zn9 1_555 1_555
O41_2 Zn7_2 1_555 1_555
Zn2_2 O23_2 1_555 1_555
Zn2_2 O25_2 1_555 1_555
Zn2_2 O27_2 1_555 1_555
C17_2 O10_2 1_555 1_555
C20_2 C21_2 1_555 1_555
C22_2 N4_2 1_555 1_555
N4_2 O5_2 1_555 1_555
C25_2 O12_2 1_555 1_555
C28_2 C29_2 1_555 1_555
C30_2 N6_2 1_555 1_555
N6_2 O7_2 1_555 1_555
C35_2 C36_2 1_555 1_555
C48_2 C49_2 1_555 1_555
C55_2 C56_2 1_555 1_555
C57_2 O15_2 1_555 1_555
C57_2 O16_2 1_555 1_555
C62 C63_2 1_555 1_555
C66_2 O23_2 1_555 1_555
C69_2 C70_2 1_555 1_555
O19_2 N9_2 1_555 1_555
C74_2 O25_2 1_555 1_555
C77_2 C78_2 1_555 1_555
C79_2 N10_2 1_555 1_555
N10_2 O20_2 1_555 1_555
O21_2 N11_2 1_555 1_555
C82_2 O27_2 1_555 1_555
C85_2 C86_2 1_555 1_555
C87_2 N12_2 1_555 1_555
N12_2 O22_2 1_555 1_555
C92_2 C93_2 1_555 1_555
C98_2 C99_2 1_555 1_555
O24_2 Zn15_2 1_555 1_555
C105_2 C106_2 1_555 1_555
C107_2 O28_2 1_555 1_555
C107_2 O29_2 1_555 1_555
C112_2 C113_2 1_555 1_555
Zn10_2 O1_3 1_555 1_555
Zn11 O1_3 1_555 1_555
Zn12 O1_3 1_555 1_555
Zn15 O1_3 1_555 1_555
H2_3 C3_3 1_555 1_555
H4_3 C6_3 1_555 1_555
C52_3 C51_3 1_555 1_555
C53_3 C52_3 1_555 1_555
H30_3 C53_3 1_555 1_555
C54_3 C53_3 1_555 1_555
C55_3 C54_3 1_555 1_555
H31_3 C55_3 1_555 1_555
C56_3 C51_3 1_555 1_555
H32_3 C56_3 1_555 1_555
C57_3 C54_3 1_555 1_555
O15_3 Zn12 1_555 1_555
O16_3 Zn11 1_555 1_555
O28_3 Zn11 1_555 1_555
O32_3 Zn12 1_555 1_555
S1_3 O32_3 1_555 1_555
C115_3 S1_3 1_555 1_555
H65_3 C115_3 1_555 1_555
H66_3 C115_3 1_555 1_555
H67_3 C115_3 1_555 1_555
C116_3 S1_3 1_555 1_555
H68_3 C116_3 1_555 1_555
H69_3 C116_3 1_555 1_555
H70_3 C116_3 1_555 1_555
O33_3 Zn12 1_555 1_555
S2_3 O33_3 1_555 1_555
C117_3 S2_3 1_555 1_555
H71_3 C117_3 1_555 1_555
H72_3 C117_3 1_555 1_555
H73_3 C117_3 1_555 1_555
C118_3 S2_3 1_555 1_555
H74_3 C118_3 1_555 1_555
H75_3 C118_3 1_555 1_555
H76_3 C118_3 1_555 1_555
O34_2 Zn10_2 1_555 1_555
O35_2 Zn15 1_555 1_555
C55_3 C56_3 1_555 1_555
C57_3 O15_3 1_555 1_555
C57_3 O16_3 1_555 1_555
Zn3_3 N2_3 1_555 1_555
Zn4_3 N1_3 1_555 1_555
C1_3 C2_3 1_555 1_555
C2_3 H1_3 1_555 1_555
B1_3 C1_3 1_555 1_555
O2_3 B1_3 1_555 1_555
N1_3 O2_3 1_555 1_555
C7_3 N1_3 1_555 1_555
H5_3 C7_3 1_555 1_555
C8_3 C7_3 1_555 1_555
C9_3 C8_3 1_555 1_555
C10_3 C9_3 1_555 1_555
C11_3 C10_3 1_555 1_555
H6_3 C11_3 1_555 1_555
C12_3 C11_3 1_555 1_555
C13_3 C8_3 1_555 1_555
H7_3 C13_3 1_555 1_555
C14_3 C10_3 1_555 1_555
H8_3 C14_3 1_555 1_555
N2_3 C14_3 1_555 1_555
O3_3 N2_3 1_555 1_555
B2_3 O3_3 1_555 1_555
N4_3 Zn3_3 1_555 1_555
O5_3 B2_3 1_555 1_555
O6_3 B1_3 1_555 1_555
N5_3 Zn4_3 1_555 1_555
C23_3 N5_3 1_555 1_555
C24_3 C23_3 1_555 1_555
C25_3 C24_3 1_555 1_555
C26_3 C25_3 1_555 1_555
C27_3 C26_3 1_555 1_555
H14_3 C27_3 1_555 1_555
C28_3 C27_3 1_555 1_555
C29_3 C24_3 1_555 1_555
C30_3 C26_3 1_555 1_555
H16_3 C30_3 1_555 1_555
N6_3 Zn3_3 1_555 1_555
O7_3 B2_3 1_555 1_555
C31_3 B2_3 1_555 1_555
C32_3 C31_3 1_555 1_555
H17_3 C32_3 1_555 1_555
C33_3 C32_3 1_555 1_555
H18_3 C33_3 1_555 1_555
Br2_3 C34_3 1_555 1_555
C34_3 C33_3 1_555 1_555
C35_3 C34_3 1_555 1_555
H19_3 C35_3 1_555 1_555
C36_3 C31_3 1_555 1_555
H20_3 C36_3 1_555 1_555
O8_3 Zn3_3 1_555 1_555
C37_3 C12_3 1_555 1_555
C38_3 C37_3 1_555 1_555
H21_3 C38_3 1_555 1_555
C39_3 C38_3 1_555 1_555
H22_3 C39_3 1_555 1_555
C40_3 C39_3 1_555 1_555
C41_3 C40_3 1_555 1_555
H23_3 C41_3 1_555 1_555
C42_3 C37_3 1_555 1_555
H24_3 C42_3 1_555 1_555
C43_3 C40_3 1_555 1_555
O9_2 C43_3 1_555 1_555
O10_3 Zn3_3 1_555 1_555
O11_2 C43_3 1_555 1_555
O12_3 Zn3_3 1_555 1_555
Zn10 O9_2 1_555 1_555
Zn15_2 O11_2 1_555 1_555
Zn4_3 O8_3 1_555 1_555
Zn4_3 O10_3 1_555 1_555
Zn4_3 O12_3 1_555 1_555
C9_3 O8_3 1_555 1_555
C12_3 C13_3 1_555 1_555
N4_3 O5_3 1_555 1_555
O6_3 N5_3 1_555 1_555
C25_3 O12_3 1_555 1_555
C28_3 C29_3 1_555 1_555
C30_3 N6_3 1_555 1_555
N6_3 O7_3 1_555 1_555
C35_3 C36_3 1_555 1_555
C41_3 C42_3 1_555 1_555
C15_3 N3_3 1_555 1_555
H9_3 C15_3 1_555 1_555
C16_3 C15_3 1_555 1_555
C17_3 C16_3 1_555 1_555
C18_3 C17_3 1_555 1_555
C19_3 C18_3 1_555 1_555
H10_3 C19_3 1_555 1_555
C20_3 C19_3 1_555 1_555
C21_3 C16_3 1_555 1_555
H11_3 C21_3 1_555 1_555
C22_3 C18_3 1_555 1_555
H12_3 C22_3 1_555 1_555
C44_3 C20_3 1_555 1_555
C45_3 C44_3 1_555 1_555
H25_3 C45_3 1_555 1_555
C46_3 C45_3 1_555 1_555
H26_3 C46_3 1_555 1_555
C47_3 C46_3 1_555 1_555
C48_3 C47_3 1_555 1_555
H27_3 C48_3 1_555 1_555
C49_3 C44_3 1_555 1_555
H28_3 C49_3 1_555 1_555
C50_3 C47_3 1_555 1_555
O36 C50_3 1_555 1_555
O37 C50_3 1_555 1_555
C95_3 C94_3 1_555 1_555
H53_3 C95_3 1_555 1_555
C96_3 C95_3 1_555 1_555
H54_3 C96_3 1_555 1_555
C97_3 C96_3 1_555 1_555
C98_3 C97_3 1_555 1_555
H55_3 C98_3 1_555 1_555
C99_3 C94_3 1_555 1_555
C100_3 C97_3 1_555 1_555
O38 C100_3 1_555 1_555
O39 C100_3 1_555 1_555
O4_3 N3_3 1_555 1_555
C20_3 C21_3 1_555 1_555
C48_3 C49_3 1_555 1_555
C98_3 C99_3 1_555 1_555
C63_3 C58_3 1_555 1_555
H36_3 C63_3 1_555 1_555
B3_3 C58_3 1_555 1_555
O17_3 B3_3 1_555 1_555
N7_3 O17_3 1_555 1_555
O19_3 B3_3 1_555 1_555
O21_3 B3_3 1_555 1_555
C80_3 N11_3 1_555 1_555
H45_3 C80_3 1_555 1_555
C81_3 C80_3 1_555 1_555
C82_3 C81_3 1_555 1_555
C83_3 C82_3 1_555 1_555
C84_3 C83_3 1_555 1_555
H46_3 C84_3 1_555 1_555
C85_3 C84_3 1_555 1_555
C86_3 C81_3 1_555 1_555
H47_3 C86_3 1_555 1_555
C108_3 C85_3 1_555 1_555
C109_3 C108_3 1_555 1_555
H61_3 C109_3 1_555 1_555
C110_3 C109_3 1_555 1_555
H62_3 C110_3 1_555 1_555
C111_3 C110_3 1_555 1_555
C112_3 C111_3 1_555 1_555
H63_3 C112_3 1_555 1_555
C113_3 C108_3 1_555 1_555
H64_3 C113_3 1_555 1_555
C114_3 C111_3 1_555 1_555
O40_2 C114_3 1_555 1_555
O41_2 C114_3 1_555 1_555
O21_3 N11_3 1_555 1_555
C82_3 O27_3 1_555 1_555
C85_3 C86_3 1_555 1_555
C112_3 C113_3 1_555 1_555
Zn4_4 N1_4 1_555 1_555
C1_4 C2_4 1_555 1_555
C2_4 H1_4 1_555 1_555
C3_4 C2_4 1_555 1_555
H2_4 C3_4 1_555 1_555
C6_4 C1_4 1_555 1_555
H4_4 C6_4 1_555 1_555
B1_4 C1_4 1_555 1_555
O2_4 B1_4 1_555 1_555
N1_4 O2_4 1_555 1_555
C7_4 N1_4 1_555 1_555
H5_4 C7_4 1_555 1_555
C8_4 C7_4 1_555 1_555
C9_4 C8_4 1_555 1_555
C10_4 C9_4 1_555 1_555
C11_4 C10_4 1_555 1_555
H6_4 C11_4 1_555 1_555
C12_4 C11_4 1_555 1_555
C13_4 C8_4 1_555 1_555
H7_4 C13_4 1_555 1_555
C14_4 C10_4 1_555 1_555
H8_4 C14_4 1_555 1_555
O6_4 B1_4 1_555 1_555
N5_4 Zn4_4 1_555 1_555
C23_4 N5_4 1_555 1_555
H13_4 C23_4 1_555 1_555
C37_4 C12_4 1_555 1_555
C38_4 C37_4 1_555 1_555
H21_4 C38_4 1_555 1_555
C39_4 C38_4 1_555 1_555
H22_4 C39_4 1_555 1_555
C40_4 C39_4 1_555 1_555
C41_4 C40_4 1_555 1_555
H23_4 C41_4 1_555 1_555
C42_4 C37_4 1_555 1_555
H24_4 C42_4 1_555 1_555
C43_4 C40_4 1_555 1_555
O34_2 C43_4 1_555 1_555
O35_2 C43_4 1_555 1_555
Zn4_4 O8_4 1_555 1_555
C9_4 O8_4 1_555 1_555
C12_4 C13_4 1_555 1_555
O6_4 N5_4 1_555 1_555
C41_4 C42_4 1_555 1_555
Zn3_4 N2_4 1_555 1_555
Zn10 O1_4 1_555 1_555
Zn11_2 O1_4 1_555 1_555
Zn13 O1_4 1_555 1_555
Zn15_2 O1_4 1_555 1_555
O3_4 N2_4 1_555 1_555
B2_4 O3_4 1_555 1_555
N4_4 Zn3_4 1_555 1_555
O5_4 B2_4 1_555 1_555
C25_4 C24_4 1_555 1_555
C26_4 C25_4 1_555 1_555
C27_4 C26_4 1_555 1_555
H14_4 C27_4 1_555 1_555
C28_4 C27_4 1_555 1_555
C29_4 C24_4 1_555 1_555
H15_4 C29_4 1_555 1_555
C30_4 C26_4 1_555 1_555
H16_4 C30_4 1_555 1_555
N6_4 Zn3_4 1_555 1_555
O7_4 B2_4 1_555 1_555
C31_4 B2_4 1_555 1_555
C32_4 C31_4 1_555 1_555
H17_4 C32_4 1_555 1_555
C33_4 C32_4 1_555 1_555
H18_4 C33_4 1_555 1_555
Br2_4 C34_4 1_555 1_555
C34_4 C33_4 1_555 1_555
C35_4 C34_4 1_555 1_555
H19_4 C35_4 1_555 1_555
C36_4 C31_4 1_555 1_555
H20_4 C36_4 1_555 1_555
O10_4 Zn3_4 1_555 1_555
O12_4 Zn3_4 1_555 1_555
C51_4 C28_4 1_555 1_555
C52_4 C51_4 1_555 1_555
H29_4 C52_4 1_555 1_555
C53_4 C52_4 1_555 1_555
H30_4 C53_4 1_555 1_555
C54_4 C53_4 1_555 1_555
C55_4 C54_4 1_555 1_555
H31_4 C55_4 1_555 1_555
C56_4 C51_4 1_555 1_555
H32_4 C56_4 1_555 1_555
C57_4 C54_4 1_555 1_555
O15_4 Zn13 1_555 1_555
O16_4 Zn11_2 1_555 1_555
O28_4 Zn11_2 1_555 1_555
O32_4 Zn13 1_555 1_555
S1_4 O32_4 1_555 1_555
C115_4 S1_4 1_555 1_555
H65_4 C115_4 1_555 1_555
H66_4 C115_4 1_555 1_555
H67_4 C115_4 1_555 1_555
C116_4 S1_4 1_555 1_555
H68_4 C116_4 1_555 1_555
H69_4 C116_4 1_555 1_555
H70_4 C116_4 1_555 1_555
O33_4 Zn13 1_555 1_555
S2_4 O33_4 1_555 1_555
C117_4 S2_4 1_555 1_555
H71_4 C117_4 1_555 1_555
H72_4 C117_4 1_555 1_555
H73_4 C117_4 1_555 1_555
C118_4 S2_4 1_555 1_555
H74_4 C118_4 1_555 1_555
H75_4 C118_4 1_555 1_555
H76_4 C118_4 1_555 1_555
N4_4 O5_4 1_555 1_555
C25_4 O12_4 1_555 1_555
C28_4 C29_4 1_555 1_555
C30_4 N6_4 1_555 1_555
N6_4 O7_4 1_555 1_555
C35_4 C36_4 1_555 1_555
C55_4 C56_4 1_555 1_555
C57_4 O15_4 1_555 1_555
C57_4 O16_4 1_555 1_555
Zn1_3 N7_4 1_555 1_555
Zn2_3 N8_3 1_555 1_555
H9_4 C15_4 1_555 1_555
C16_4 C15_4 1_555 1_555
C17_4 C16_4 1_555 1_555
C18_4 C17_4 1_555 1_555
C19_4 C18_4 1_555 1_555
H10_4 C19_4 1_555 1_555
C20_4 C19_4 1_555 1_555
C21_4 C16_4 1_555 1_555
H11_4 C21_4 1_555 1_555
C22_4 C18_4 1_555 1_555
H12_4 C22_4 1_555 1_555
C44_4 C20_4 1_555 1_555
C45_4 C44_4 1_555 1_555
H25_4 C45_4 1_555 1_555
C46_4 C45_4 1_555 1_555
H26_4 C46_4 1_555 1_555
C47_4 C46_4 1_555 1_555
C48_4 C47_4 1_555 1_555
H27_4 C48_4 1_555 1_555
C49_4 C44_4 1_555 1_555
H28_4 C49_4 1_555 1_555
C50_4 C47_4 1_555 1_555
O36_2 C50_4 1_555 1_555
O37_2 C50_4 1_555 1_555
C58_4 C59_2 1_555 1_555
C59_2 H33_2 1_555 1_555
C60_2 C59_2 1_555 1_555
H34_2 C60_2 1_555 1_555
Br3_2 C61_2 1_555 1_555
C61_2 C60_2 1_555 1_555
C62_2 C61_2 1_555 1_555
H35_2 C62_2 1_555 1_555
C63_4 C58_4 1_555 1_555
H36_4 C63_4 1_555 1_555
B3_4 C58_4 1_555 1_555
O17_4 B3_4 1_555 1_555
N7_4 O17_4 1_555 1_555
C64_3 N7_4 1_555 1_555
H37_4 C64_3 1_555 1_555
C65_3 C64_3 1_555 1_555
C66_3 C65_3 1_555 1_555
C67_3 C66_3 1_555 1_555
C68_3 C67_3 1_555 1_555
H38_3 C68_3 1_555 1_555
C69_3 C68_3 1_555 1_555
C70_3 C65_3 1_555 1_555
H39_4 C70_3 1_555 1_555
C71_3 C67_3 1_555 1_555
H40_3 C71_3 1_555 1_555
N8_3 C71_3 1_555 1_555
O18_3 N8_3 1_555 1_555
B4_3 O18_3 1_555 1_555
O19_4 B3_4 1_555 1_555
N9_3 Zn1_3 1_555 1_555
C72_3 N9_3 1_555 1_555
H41_3 C72_3 1_555 1_555
C73_3 C72_3 1_555 1_555
C74_3 C73_3 1_555 1_555
C75_3 C74_3 1_555 1_555
C76_3 C75_3 1_555 1_555
H42_3 C76_3 1_555 1_555
C77_3 C76_3 1_555 1_555
C78_3 C73_3 1_555 1_555
H43_3 C78_3 1_555 1_555
C79_3 C75_3 1_555 1_555
H44_3 C79_3 1_555 1_555
N10_3 Zn2_3 1_555 1_555
O20_3 B4_3 1_555 1_555
O21_4 B3_4 1_555 1_555
N11_4 Zn1_3 1_555 1_555
C80_4 N11_4 1_555 1_555
H45_4 C80_4 1_555 1_555
C81_4 C80_4 1_555 1_555
C82_4 C81_4 1_555 1_555
C83_4 C82_4 1_555 1_555
C84_4 C83_4 1_555 1_555
H46_4 C84_4 1_555 1_555
C85_4 C84_4 1_555 1_555
C86_4 C81_4 1_555 1_555
H47_4 C86_4 1_555 1_555
C87_3 C83_4 1_555 1_555
H48_3 C87_3 1_555 1_555
N12_3 Zn2_3 1_555 1_555
O22_3 B4_3 1_555 1_555
C88_3 B4_3 1_555 1_555
C89_3 C88_3 1_555 1_555
H49_3 C89_3 1_555 1_555
C90_3 C88_3 1_555 1_555
H50_3 C90_3 1_555 1_555
C91_3 C89_3 1_555 1_555
H51_3 C91_3 1_555 1_555
C92_3 C90_3 1_555 1_555
H52_3 C92_3 1_555 1_555
Br4_3 C93_3 1_555 1_555
C93_3 C91_3 1_555 1_555
O23_3 Zn1_3 1_555 1_555
C94_4 C69_3 1_555 1_555
C95_4 C94_4 1_555 1_555
H53_4 C95_4 1_555 1_555
C96_4 C95_4 1_555 1_555
H54_4 C96_4 1_555 1_555
C97_4 C96_4 1_555 1_555
C98_4 C97_4 1_555 1_555
H55_4 C98_4 1_555 1_555
C99_4 C94_4 1_555 1_555
H56_3 C99_4 1_555 1_555
C100_4 C97_4 1_555 1_555
O38_2 C100_4 1_555 1_555
O25_3 Zn1_3 1_555 1_555
O39_2 C100_4 1_555 1_555
C101_3 C77_3 1_555 1_555
C102_3 C101_3 1_555 1_555
H57_3 C102_3 1_555 1_555
C103_3 C102_3 1_555 1_555
H58_3 C103_3 1_555 1_555
C104_3 C103_3 1_555 1_555
C105_3 C104_3 1_555 1_555
H59_3 C105_3 1_555 1_555
C106_3 C101_3 1_555 1_555
H60_3 C106_3 1_555 1_555
C107_3 C104_3 1_555 1_555
O27_4 Zn1_3 1_555 1_555
C108_4 C85_4 1_555 1_555
C109_4 C108_4 1_555 1_555
H61_4 C109_4 1_555 1_555
C110_4 C109_4 1_555 1_555
H62_4 C110_4 1_555 1_555
C111_4 C110_4 1_555 1_555
C112_4 C111_4 1_555 1_555
H63_4 C112_4 1_555 1_555
C113_4 C108_4 1_555 1_555
H64_4 C113_4 1_555 1_555
C114_4 C111_4 1_555 1_555
O40 C114_4 1_555 1_555
O41 C114_4 1_555 1_555
Zn2_3 O23_3 1_555 1_555
Zn2_3 O25_3 1_555 1_555
Zn2_3 O27_4 1_555 1_555
C20_4 C21_4 1_555 1_555
C48_4 C49_4 1_555 1_555
C62_2 C63_4 1_555 1_555
C66_3 O23_3 1_555 1_555
C69_3 C70_3 1_555 1_555
O19_4 N9_3 1_555 1_555
C74_3 O25_3 1_555 1_555
C77_3 C78_3 1_555 1_555
C79_3 N10_3 1_555 1_555
N10_3 O20_3 1_555 1_555
O21_4 N11_4 1_555 1_555
C82_4 O27_4 1_555 1_555
C85_4 C86_4 1_555 1_555
C87_3 N12_3 1_555 1_555
N12_3 O22_3 1_555 1_555
C92_3 C93_3 1_555 1_555
C98_4 C99_4 1_555 1_555
C105_3 C106_3 1_555 1_555
C107_3 O29_3 1_555 1_555
C112_4 C113_4 1_555 1_555
C59_3 H33_3 1_555 1_555
C60_3 C59_3 1_555 1_555
H34_3 C60_3 1_555 1_555
Br3_3 C61_3 1_555 1_555
C61_3 C60_3 1_555 1_555
C62_3 C61_3 1_555 1_555
H35_3 C62_3 1_555 1_555
C59_4 H33_4 1_555 1_555
C60_4 C59_4 1_555 1_555
H34_4 C60_4 1_555 1_555
Br3_4 C61_4 1_555 1_555
C61_4 C60_4 1_555 1_555
C62_4 C61_4 1_555 1_555
H35_4 C62_4 1_555 1_555
C63_5 C58_5 1_555 1_555
H36_5 C63_5 1_555 1_555
B3_5 C58_5 1_555 1_555
O17_5 B3_5 1_555 1_555
N7_5 O17_5 1_555 1_555
O19_5 B3_5 1_555 1_555
O21_5 B3_5 1_555 1_555
C80_5 N11_5 1_555 1_555
H45_5 C80_5 1_555 1_555
C81_5 C80_5 1_555 1_555
C82_5 C81_5 1_555 1_555
C83_5 C82_5 1_555 1_555
C84_5 C83_5 1_555 1_555
H46_5 C84_5 1_555 1_555
C85_5 C84_5 1_555 1_555
C86_5 C81_5 1_555 1_555
H47_5 C86_5 1_555 1_555
C108_5 C85_5 1_555 1_555
C109_5 C108_5 1_555 1_555
H61_5 C109_5 1_555 1_555
C110_5 C109_5 1_555 1_555
H62_5 C110_5 1_555 1_555
C111_5 C110_5 1_555 1_555
C112_5 C111_5 1_555 1_555
H63_5 C112_5 1_555 1_555
C113_5 C108_5 1_555 1_555
H64_5 C113_5 1_555 1_555
C114_5 C111_5 1_555 1_555
O30_3 C114_5 1_555 1_555
O31_3 C114_5 1_555 1_555
Zn10_3 O30_3 1_555 1_555
Zn13_2 O31_3 1_555 1_555
O21_5 N11_5 1_555 1_555
C82_5 O27_5 1_555 1_555
C85_5 C86_5 1_555 1_555
C112_5 C113_5 1_555 1_555
C15_5 N3_4 1_555 1_555
H9_5 C15_5 1_555 1_555
C16_5 C15_5 1_555 1_555
C17_5 C16_5 1_555 1_555
C18_5 C17_5 1_555 1_555
C19_5 C18_5 1_555 1_555
H10_5 C19_5 1_555 1_555
C20_5 C19_5 1_555 1_555
C21_5 C16_5 1_555 1_555
H11_5 C21_5 1_555 1_555
C22_5 C18_5 1_555 1_555
H12_5 C22_5 1_555 1_555
C44_5 C20_5 1_555 1_555
C45_5 C44_5 1_555 1_555
H25_5 C45_5 1_555 1_555
C46_5 C45_5 1_555 1_555
H26_5 C46_5 1_555 1_555
C47_5 C46_5 1_555 1_555
C48_5 C47_5 1_555 1_555
H27_5 C48_5 1_555 1_555
C49_5 C44_5 1_555 1_555
H28_5 C49_5 1_555 1_555
C50_5 C47_5 1_555 1_555
O13_3 C50_5 1_555 1_555
O14_3 C50_5 1_555 1_555
C95_5 C94_5 1_555 1_555
H53_5 C95_5 1_555 1_555
C96_5 C95_5 1_555 1_555
H54_5 C96_5 1_555 1_555
C97_5 C96_5 1_555 1_555
C98_5 C97_5 1_555 1_555
H55_5 C98_5 1_555 1_555
C99_5 C94_5 1_555 1_555
C100_5 C97_5 1_555 1_555
O24_3 C100_5 1_555 1_555
O26_3 C100_5 1_555 1_555
Zn11_3 O26_3 1_555 1_555
Zn12_2 O13_3 1_555 1_555
Zn15_3 O14_3 1_555 1_555
O4_4 N3_4 1_555 1_555
C20_5 C21_5 1_555 1_555
C48_5 C49_5 1_555 1_555
C98_5 C99_5 1_555 1_555
O24_3 Zn15_3 1_555 1_555
Zn3_5 N2_5 1_555 1_555
Zn4_5 N1_5 1_555 1_555
C1_5 C2_5 1_555 1_555
C2_5 H1_5 1_555 1_555
B1_5 C1_5 1_555 1_555
O2_5 B1_5 1_555 1_555
N1_5 O2_5 1_555 1_555
C7_5 N1_5 1_555 1_555
H5_5 C7_5 1_555 1_555
C8_5 C7_5 1_555 1_555
C9_5 C8_5 1_555 1_555
C10_5 C9_5 1_555 1_555
C11_5 C10_5 1_555 1_555
H6_5 C11_5 1_555 1_555
C12_5 C11_5 1_555 1_555
C13_5 C8_5 1_555 1_555
H7_5 C13_5 1_555 1_555
C14_5 C10_5 1_555 1_555
H8_5 C14_5 1_555 1_555
N2_5 C14_5 1_555 1_555
O3_5 N2_5 1_555 1_555
B2_5 O3_5 1_555 1_555
N4_5 Zn3_5 1_555 1_555
O5_5 B2_5 1_555 1_555
O6_5 B1_5 1_555 1_555
N5_5 Zn4_5 1_555 1_555
C23_5 N5_5 1_555 1_555
C24_5 C23_5 1_555 1_555
C25_5 C24_5 1_555 1_555
C26_5 C25_5 1_555 1_555
C27_5 C26_5 1_555 1_555
H14_5 C27_5 1_555 1_555
C28_5 C27_5 1_555 1_555
C29_5 C24_5 1_555 1_555
C30_5 C26_5 1_555 1_555
H16_5 C30_5 1_555 1_555
N6_5 Zn3_5 1_555 1_555
O7_5 B2_5 1_555 1_555
C31_5 B2_5 1_555 1_555
C32_5 C31_5 1_555 1_555
H17_5 C32_5 1_555 1_555
C33_5 C32_5 1_555 1_555
H18_5 C33_5 1_555 1_555
Br2_5 C34_5 1_555 1_555
C34_5 C33_5 1_555 1_555
C35_5 C34_5 1_555 1_555
H19_5 C35_5 1_555 1_555
C36_5 C31_5 1_555 1_555
H20_5 C36_5 1_555 1_555
O8_5 Zn3_5 1_555 1_555
C37_5 C12_5 1_555 1_555
C38_5 C37_5 1_555 1_555
H21_5 C38_5 1_555 1_555
C39_5 C38_5 1_555 1_555
H22_5 C39_5 1_555 1_555
C40_5 C39_5 1_555 1_555
C41_5 C40_5 1_555 1_555
H23_5 C41_5 1_555 1_555
C42_5 C37_5 1_555 1_555
H24_5 C42_5 1_555 1_555
C43_5 C40_5 1_555 1_555
O9_3 C43_5 1_555 1_555
O10_5 Zn3_5 1_555 1_555
O11_3 C43_5 1_555 1_555
O12_5 Zn3_5 1_555 1_555
Zn9_2 O9_3 1_555 1_555
Zn14_2 O11_3 1_555 1_555
Zn4_5 O8_5 1_555 1_555
Zn4_5 O10_5 1_555 1_555
Zn4_5 O12_5 1_555 1_555
C9_5 O8_5 1_555 1_555
C12_5 C13_5 1_555 1_555
N4_5 O5_5 1_555 1_555
O6_5 N5_5 1_555 1_555
C25_5 O12_5 1_555 1_555
C28_5 C29_5 1_555 1_555
C30_5 N6_5 1_555 1_555
N6_5 O7_5 1_555 1_555
C35_5 C36_5 1_555 1_555
C41_5 C42_5 1_555 1_555
Zn5_2 O1_5 1_555 1_555
Zn6_3 O1_5 1_555 1_555
Zn7_3 O1_5 1_555 1_555
Zn8_2 O1_5 1_555 1_555
H2_5 C3_5 1_555 1_555
H4_5 C6_5 1_555 1_555
C52_5 C51_5 1_555 1_555
C53_5 C52_5 1_555 1_555
H30_5 C53_5 1_555 1_555
C54_5 C53_5 1_555 1_555
C55_5 C54_5 1_555 1_555
H31_5 C55_5 1_555 1_555
C56_5 C51_5 1_555 1_555
H32_5 C56_5 1_555 1_555
C57_5 C54_5 1_555 1_555
O15_5 Zn7_3 1_555 1_555
O16_5 Zn6_3 1_555 1_555
O28_5 Zn6_3 1_555 1_555
O32_5 Zn7_3 1_555 1_555
S1_5 O32_5 1_555 1_555
C115_5 S1_5 1_555 1_555
H65_5 C115_5 1_555 1_555
H66_5 C115_5 1_555 1_555
H67_5 C115_5 1_555 1_555
C116_5 S1_5 1_555 1_555
H68_5 C116_5 1_555 1_555
H69_5 C116_5 1_555 1_555
H70_5 C116_5 1_555 1_555
O33_5 Zn7_3 1_555 1_555
S2_5 O33_5 1_555 1_555
C117_5 S2_5 1_555 1_555
H71_5 C117_5 1_555 1_555
H72_5 C117_5 1_555 1_555
H73_5 C117_5 1_555 1_555
C118_5 S2_5 1_555 1_555
H74_5 C118_5 1_555 1_555
H75_5 C118_5 1_555 1_555
H76_5 C118_5 1_555 1_555
O34_3 Zn5_2 1_555 1_555
O35_3 Zn8_2 1_555 1_555
O36_3 Zn7_3 1_555 1_555
O37_3 Zn8_2 1_555 1_555
O38_3 Zn8_2 1_555 1_555
O39_3 Zn6_3 1_555 1_555
O40_3 Zn5_2 1_555 1_555
O41_3 Zn7_3 1_555 1_555
C55_5 C56_5 1_555 1_555
C57_5 O15_5 1_555 1_555
C57_5 O16_5 1_555 1_555
Zn1_4 N7_6 1_555 1_555
Zn2_4 N8_4 1_555 1_555
H9_6 C15_6 1_555 1_555
C16_6 C15_6 1_555 1_555
C17_6 C16_6 1_555 1_555
C18_6 C17_6 1_555 1_555
C19_6 C18_6 1_555 1_555
H10_6 C19_6 1_555 1_555
C20_6 C19_6 1_555 1_555
C21_6 C16_6 1_555 1_555
H11_6 C21_6 1_555 1_555
C22_6 C18_6 1_555 1_555
H12_6 C22_6 1_555 1_555
C44_6 C20_6 1_555 1_555
C45_6 C44_6 1_555 1_555
H25_6 C45_6 1_555 1_555
C46_6 C45_6 1_555 1_555
H26_6 C46_6 1_555 1_555
C47_6 C46_6 1_555 1_555
C48_6 C47_6 1_555 1_555
H27_6 C48_6 1_555 1_555
C49_6 C44_6 1_555 1_555
H28_6 C49_6 1_555 1_555
C50_6 C47_6 1_555 1_555
O13_4 C50_6 1_555 1_555
O14_4 C50_6 1_555 1_555
C58_6 C59_5 1_555 1_555
C59_5 H33_5 1_555 1_555
C60_5 C59_5 1_555 1_555
H34_5 C60_5 1_555 1_555
Br3_5 C61_5 1_555 1_555
C61_5 C60_5 1_555 1_555
C62_5 C61_5 1_555 1_555
H35_5 C62_5 1_555 1_555
C63_6 C58_6 1_555 1_555
H36_6 C63_6 1_555 1_555
B3_6 C58_6 1_555 1_555
O17_6 B3_6 1_555 1_555
N7_6 O17_6 1_555 1_555
C64_4 N7_6 1_555 1_555
H37_6 C64_4 1_555 1_555
C65_4 C64_4 1_555 1_555
C66_4 C65_4 1_555 1_555
C67_4 C66_4 1_555 1_555
C68_4 C67_4 1_555 1_555
H38_4 C68_4 1_555 1_555
C69_4 C68_4 1_555 1_555
C70_4 C65_4 1_555 1_555
H39_6 C70_4 1_555 1_555
C71_4 C67_4 1_555 1_555
H40_4 C71_4 1_555 1_555
N8_4 C71_4 1_555 1_555
O18_4 N8_4 1_555 1_555
B4_4 O18_4 1_555 1_555
O19_6 B3_6 1_555 1_555
N9_4 Zn1_4 1_555 1_555
C72_4 N9_4 1_555 1_555
H41_4 C72_4 1_555 1_555
C73_4 C72_4 1_555 1_555
C74_4 C73_4 1_555 1_555
C75_4 C74_4 1_555 1_555
C76_4 C75_4 1_555 1_555
H42_4 C76_4 1_555 1_555
C77_4 C76_4 1_555 1_555
C78_4 C73_4 1_555 1_555
H43_4 C78_4 1_555 1_555
C79_4 C75_4 1_555 1_555
H44_4 C79_4 1_555 1_555
N10_4 Zn2_4 1_555 1_555
O20_4 B4_4 1_555 1_555
O21_6 B3_6 1_555 1_555
N11_6 Zn1_4 1_555 1_555
C80_6 N11_6 1_555 1_555
H45_6 C80_6 1_555 1_555
C81_6 C80_6 1_555 1_555
C82_6 C81_6 1_555 1_555
C83_6 C82_6 1_555 1_555
C84_6 C83_6 1_555 1_555
H46_6 C84_6 1_555 1_555
C85_6 C84_6 1_555 1_555
C86_6 C81_6 1_555 1_555
H47_6 C86_6 1_555 1_555
C87_4 C83_6 1_555 1_555
H48_4 C87_4 1_555 1_555
N12_4 Zn2_4 1_555 1_555
O22_4 B4_4 1_555 1_555
C88_4 B4_4 1_555 1_555
C89_4 C88_4 1_555 1_555
H49_4 C89_4 1_555 1_555
C90_4 C88_4 1_555 1_555
H50_4 C90_4 1_555 1_555
C91_4 C89_4 1_555 1_555
H51_4 C91_4 1_555 1_555
C92_4 C90_4 1_555 1_555
H52_4 C92_4 1_555 1_555
Br4_4 C93_4 1_555 1_555
C93_4 C91_4 1_555 1_555
O23_4 Zn1_4 1_555 1_555
C94_6 C69_4 1_555 1_555
C95_6 C94_6 1_555 1_555
H53_6 C95_6 1_555 1_555
C96_6 C95_6 1_555 1_555
H54_6 C96_6 1_555 1_555
C97_6 C96_6 1_555 1_555
C98_6 C97_6 1_555 1_555
H55_6 C98_6 1_555 1_555
C99_6 C94_6 1_555 1_555
H56_4 C99_6 1_555 1_555
C100_6 C97_6 1_555 1_555
O24_4 C100_6 1_555 1_555
O25_4 Zn1_4 1_555 1_555
O26_4 C100_6 1_555 1_555
C101_4 C77_4 1_555 1_555
C102_4 C101_4 1_555 1_555
H57_4 C102_4 1_555 1_555
C103_4 C102_4 1_555 1_555
H58_4 C103_4 1_555 1_555
C104_4 C103_4 1_555 1_555
C105_4 C104_4 1_555 1_555
H59_4 C105_4 1_555 1_555
C106_4 C101_4 1_555 1_555
H60_4 C106_4 1_555 1_555
C107_4 C104_4 1_555 1_555
O27_6 Zn1_4 1_555 1_555
C108_6 C85_6 1_555 1_555
C109_6 C108_6 1_555 1_555
H61_6 C109_6 1_555 1_555
C110_6 C109_6 1_555 1_555
H62_6 C110_6 1_555 1_555
C111_6 C110_6 1_555 1_555
C112_6 C111_6 1_555 1_555
H63_6 C112_6 1_555 1_555
C113_6 C108_6 1_555 1_555
H64_6 C113_6 1_555 1_555
C114_6 C111_6 1_555 1_555
O30_4 C114_6 1_555 1_555
O31_4 C114_6 1_555 1_555
Zn10_4 O30_4 1_555 1_555
Zn11_4 O26_4 1_555 1_555
Zn13_2 O13_4 1_555 1_555
Zn12_2 O31_4 1_555 1_555
Zn15_4 O14_4 1_555 1_555
Zn2_4 O23_4 1_555 1_555
Zn2_4 O25_4 1_555 1_555
Zn2_4 O27_6 1_555 1_555
C20_6 C21_6 1_555 1_555
C48_6 C49_6 1_555 1_555
C62_5 C63_6 1_555 1_555
C66_4 O23_4 1_555 1_555
C69_4 C70_4 1_555 1_555
O19_6 N9_4 1_555 1_555
C74_4 O25_4 1_555 1_555
C77_4 C78_4 1_555 1_555
C79_4 N10_4 1_555 1_555
N10_4 O20_4 1_555 1_555
O21_6 N11_6 1_555 1_555
C82_6 O27_6 1_555 1_555
C85_6 C86_6 1_555 1_555
C87_4 N12_4 1_555 1_555
N12_4 O22_4 1_555 1_555
C92_4 C93_4 1_555 1_555
C98_6 C99_6 1_555 1_555
O24_4 Zn15_4 1_555 1_555
C105_4 C106_4 1_555 1_555
C107_4 O29_4 1_555 1_555
C112_6 C113_6 1_555 1_555
Zn3_6 N2_6 1_555 1_555
Zn9_2 O1_6 1_555 1_555
Zn6_4 O1_6 1_555 1_555
Zn7_4 O1_6 1_555 1_555
Zn14_2 O1_6 1_555 1_555
O3_6 N2_6 1_555 1_555
B2_6 O3_6 1_555 1_555
N4_6 Zn3_6 1_555 1_555
O5_6 B2_6 1_555 1_555
C25_6 C24_6 1_555 1_555
C26_6 C25_6 1_555 1_555
C27_6 C26_6 1_555 1_555
H14_6 C27_6 1_555 1_555
C28_6 C27_6 1_555 1_555
C29_6 C24_6 1_555 1_555
H15_6 C29_6 1_555 1_555
C30_6 C26_6 1_555 1_555
H16_6 C30_6 1_555 1_555
N6_6 Zn3_6 1_555 1_555
O7_6 B2_6 1_555 1_555
C31_6 B2_6 1_555 1_555
C32_6 C31_6 1_555 1_555
H17_6 C32_6 1_555 1_555
C33_6 C32_6 1_555 1_555
H18_6 C33_6 1_555 1_555
Br2_6 C34_6 1_555 1_555
C34_6 C33_6 1_555 1_555
C35_6 C34_6 1_555 1_555
H19_6 C35_6 1_555 1_555
C36_6 C31_6 1_555 1_555
H20_6 C36_6 1_555 1_555
O10_6 Zn3_6 1_555 1_555
O12_6 Zn3_6 1_555 1_555
C51_6 C28_6 1_555 1_555
C52_6 C51_6 1_555 1_555
H29_6 C52_6 1_555 1_555
C53_6 C52_6 1_555 1_555
H30_6 C53_6 1_555 1_555
C54_6 C53_6 1_555 1_555
C55_6 C54_6 1_555 1_555
H31_6 C55_6 1_555 1_555
C56_6 C51_6 1_555 1_555
H32_6 C56_6 1_555 1_555
C57_6 C54_6 1_555 1_555
O15_6 Zn7_4 1_555 1_555
O16_6 Zn6_4 1_555 1_555
O28_6 Zn6_4 1_555 1_555
O32_6 Zn7_4 1_555 1_555
S1_6 O32_6 1_555 1_555
C115_6 S1_6 1_555 1_555
H65_6 C115_6 1_555 1_555
H66_6 C115_6 1_555 1_555
H67_6 C115_6 1_555 1_555
C116_6 S1_6 1_555 1_555
H68_6 C116_6 1_555 1_555
H69_6 C116_6 1_555 1_555
H70_6 C116_6 1_555 1_555
O33_6 Zn7_4 1_555 1_555
S2_6 O33_6 1_555 1_555
C117_6 S2_6 1_555 1_555
H71_6 C117_6 1_555 1_555
H72_6 C117_6 1_555 1_555
H73_6 C117_6 1_555 1_555
C118_6 S2_6 1_555 1_555
H74_6 C118_6 1_555 1_555
H75_6 C118_6 1_555 1_555
H76_6 C118_6 1_555 1_555
O36_4 Zn7_4 1_555 1_555
O37_4 Zn14_2 1_555 1_555
O38_4 Zn14_2 1_555 1_555
O39_4 Zn6_4 1_555 1_555
O40_4 Zn9_2 1_555 1_555
O41_4 Zn7_4 1_555 1_555
N4_6 O5_6 1_555 1_555
C25_6 O12_6 1_555 1_555
C28_6 C29_6 1_555 1_555
C30_6 N6_6 1_555 1_555
N6_6 O7_6 1_555 1_555
C35_6 C36_6 1_555 1_555
C55_6 C56_6 1_555 1_555
C57_6 O15_6 1_555 1_555
C57_6 O16_6 1_555 1_555
Zn4_6 N1_6 1_555 1_555
C1_6 C2_6 1_555 1_555
C2_6 H1_6 1_555 1_555
C3_6 C2_6 1_555 1_555
H2_6 C3_6 1_555 1_555
C6_6 C1_6 1_555 1_555
H4_6 C6_6 1_555 1_555
B1_6 C1_6 1_555 1_555
O2_6 B1_6 1_555 1_555
N1_6 O2_6 1_555 1_555
C7_6 N1_6 1_555 1_555
H5_6 C7_6 1_555 1_555
C8_6 C7_6 1_555 1_555
C9_6 C8_6 1_555 1_555
C10_6 C9_6 1_555 1_555
C11_6 C10_6 1_555 1_555
H6_6 C11_6 1_555 1_555
C12_6 C11_6 1_555 1_555
C13_6 C8_6 1_555 1_555
H7_6 C13_6 1_555 1_555
C14_6 C10_6 1_555 1_555
H8_6 C14_6 1_555 1_555
O6_6 B1_6 1_555 1_555
N5_6 Zn4_6 1_555 1_555
C23_6 N5_6 1_555 1_555
H13_6 C23_6 1_555 1_555
C37_6 C12_6 1_555 1_555
C38_6 C37_6 1_555 1_555
H21_6 C38_6 1_555 1_555
C39_6 C38_6 1_555 1_555
H22_6 C39_6 1_555 1_555
C40_6 C39_6 1_555 1_555
C41_6 C40_6 1_555 1_555
H23_6 C41_6 1_555 1_555
C42_6 C37_6 1_555 1_555
H24_6 C42_6 1_555 1_555
C43_6 C40_6 1_555 1_555
O34_3 C43_6 1_555 1_555
O35_3 C43_6 1_555 1_555
Zn4_6 O8_6 1_555 1_555
C9_6 O8_6 1_555 1_555
C12_6 C13_6 1_555 1_555
O6_6 N5_6 1_555 1_555
C41_6 C42_6 1_555 1_555
C63_7 C58_7 1_555 1_555
H36_7 C63_7 1_555 1_555
B3_7 C58_7 1_555 1_555
O17_7 B3_7 1_555 1_555
N7_7 O17_7 1_555 1_555
O19_7 B3_7 1_555 1_555
O21_7 B3_7 1_555 1_555
C80_7 N11_7 1_555 1_555
H45_7 C80_7 1_555 1_555
C81_7 C80_7 1_555 1_555
C82_7 C81_7 1_555 1_555
C83_7 C82_7 1_555 1_555
C84_7 C83_7 1_555 1_555
H46_7 C84_7 1_555 1_555
C85_7 C84_7 1_555 1_555
C86_7 C81_7 1_555 1_555
H47_7 C86_7 1_555 1_555
C108_7 C85_7 1_555 1_555
C109_7 C108_7 1_555 1_555
H61_7 C109_7 1_555 1_555
C110_7 C109_7 1_555 1_555
H62_7 C110_7 1_555 1_555
C111_7 C110_7 1_555 1_555
C112_7 C111_7 1_555 1_555
H63_7 C112_7 1_555 1_555
C113_7 C108_7 1_555 1_555
H64_7 C113_7 1_555 1_555
C114_7 C111_7 1_555 1_555
O40_4 C114_7 1_555 1_555
O41_4 C114_7 1_555 1_555
O21_7 N11_7 1_555 1_555
C82_7 O27_7 1_555 1_555
C85_7 C86_7 1_555 1_555
C112_7 C113_7 1_555 1_555
Zn2_5 N8_5 1_555 1_555
Zn10_4 O1_7 1_555 1_555
Zn11_3 O1_7 1_555 1_555
Zn12_2 O1_7 1_555 1_555
Zn15_3 O1_7 1_555 1_555
H2_7 C3_7 1_555 1_555
Br1_3 C4_3 1_555 1_555
C4_3 C3_7 1_555 1_555
C5_3 C4_3 1_555 1_555
H3_3 C5_3 1_555 1_555
H4_7 C6_7 1_555 1_555
C52_7 C51_7 1_555 1_555
C53_7 C52_7 1_555 1_555
H30_7 C53_7 1_555 1_555
C54_7 C53_7 1_555 1_555
C55_7 C54_7 1_555 1_555
H31_7 C55_7 1_555 1_555
C56_7 C51_7 1_555 1_555
H32_7 C56_7 1_555 1_555
C57_7 C54_7 1_555 1_555
O15_7 Zn12_2 1_555 1_555
O16_7 Zn11_3 1_555 1_555
C65_5 C64_5 1_555 1_555
C66_5 C65_5 1_555 1_555
C67_5 C66_5 1_555 1_555
C68_5 C67_5 1_555 1_555
H38_5 C68_5 1_555 1_555
C69_5 C68_5 1_555 1_555
C70_5 C65_5 1_555 1_555
C71_5 C67_5 1_555 1_555
H40_5 C71_5 1_555 1_555
N8_5 C71_5 1_555 1_555
O18_5 N8_5 1_555 1_555
B4_5 O18_5 1_555 1_555
N9_5 Zn1_5 1_555 1_555
C72_5 N9_5 1_555 1_555
H41_5 C72_5 1_555 1_555
C73_5 C72_5 1_555 1_555
C74_5 C73_5 1_555 1_555
C75_5 C74_5 1_555 1_555
C76_5 C75_5 1_555 1_555
H42_5 C76_5 1_555 1_555
C77_5 C76_5 1_555 1_555
C78_5 C73_5 1_555 1_555
H43_5 C78_5 1_555 1_555
C79_5 C75_5 1_555 1_555
H44_5 C79_5 1_555 1_555
N10_5 Zn2_5 1_555 1_555
O20_5 B4_5 1_555 1_555
H48_5 C87_5 1_555 1_555
N12_5 Zn2_5 1_555 1_555
O22_5 B4_5 1_555 1_555
C88_5 B4_5 1_555 1_555
C89_5 C88_5 1_555 1_555
H49_5 C89_5 1_555 1_555
C90_5 C88_5 1_555 1_555
H50_5 C90_5 1_555 1_555
C91_5 C89_5 1_555 1_555
H51_5 C91_5 1_555 1_555
C92_5 C90_5 1_555 1_555
H52_5 C92_5 1_555 1_555
Br4_5 C93_5 1_555 1_555
C93_5 C91_5 1_555 1_555
O23_5 Zn1_5 1_555 1_555
O25_5 Zn1_5 1_555 1_555
C101_5 C77_5 1_555 1_555
C102_5 C101_5 1_555 1_555
H57_5 C102_5 1_555 1_555
C103_5 C102_5 1_555 1_555
H58_5 C103_5 1_555 1_555
C104_5 C103_5 1_555 1_555
C105_5 C104_5 1_555 1_555
H59_5 C105_5 1_555 1_555
C106_5 C101_5 1_555 1_555
H60_5 C106_5 1_555 1_555
C107_5 C104_5 1_555 1_555
O28_7 Zn11_3 1_555 1_555
O29_5 Zn10_4 1_555 1_555
O32_7 Zn12_2 1_555 1_555
S1_7 O32_7 1_555 1_555
C115_7 S1_7 1_555 1_555
H65_7 C115_7 1_555 1_555
H66_7 C115_7 1_555 1_555
H67_7 C115_7 1_555 1_555
C116_7 S1_7 1_555 1_555
H68_7 C116_7 1_555 1_555
H69_7 C116_7 1_555 1_555
H70_7 C116_7 1_555 1_555
O33_7 Zn12_2 1_555 1_555
S2_7 O33_7 1_555 1_555
C117_7 S2_7 1_555 1_555
H71_7 C117_7 1_555 1_555
H72_7 C117_7 1_555 1_555
H73_7 C117_7 1_555 1_555
C118_7 S2_7 1_555 1_555
H74_7 C118_7 1_555 1_555
H75_7 C118_7 1_555 1_555
H76_7 C118_7 1_555 1_555
O34_4 Zn10_4 1_555 1_555
O35_4 Zn15_3 1_555 1_555
Zn2_5 O23_5 1_555 1_555
Zn2_5 O25_5 1_555 1_555
C5_3 C6_7 1_555 1_555
C55_7 C56_7 1_555 1_555
C57_7 O15_7 1_555 1_555
C57_7 O16_7 1_555 1_555
C66_5 O23_5 1_555 1_555
C69_5 C70_5 1_555 1_555
C74_5 O25_5 1_555 1_555
C77_5 C78_5 1_555 1_555
C79_5 N10_5 1_555 1_555
N10_5 O20_5 1_555 1_555
C87_5 N12_5 1_555 1_555
N12_5 O22_5 1_555 1_555
C92_5 C93_5 1_555 1_555
C105_5 C106_5 1_555 1_555
C107_5 O28_7 1_555 1_555
C107_5 O29_5 1_555 1_555
Zn3_7 N2_7 1_555 1_555
Zn4_7 N1_7 1_555 1_555
C1_7 C2_7 1_555 1_555
C2_7 H1_7 1_555 1_555
B1_7 C1_7 1_555 1_555
O2_7 B1_7 1_555 1_555
N1_7 O2_7 1_555 1_555
C7_7 N1_7 1_555 1_555
H5_7 C7_7 1_555 1_555
C8_7 C7_7 1_555 1_555
C9_7 C8_7 1_555 1_555
C10_7 C9_7 1_555 1_555
C11_7 C10_7 1_555 1_555
H6_7 C11_7 1_555 1_555
C12_7 C11_7 1_555 1_555
C13_7 C8_7 1_555 1_555
H7_7 C13_7 1_555 1_555
C14_7 C10_7 1_555 1_555
H8_7 C14_7 1_555 1_555
N2_7 C14_7 1_555 1_555
O3_7 N2_7 1_555 1_555
B2_7 O3_7 1_555 1_555
O4_5 B1_7 1_555 1_555
N3_5 Zn4_7 1_555 1_555
C15_7 N3_5 1_555 1_555
H9_7 C15_7 1_555 1_555
C16_7 C15_7 1_555 1_555
C17_7 C16_7 1_555 1_555
C18_7 C17_7 1_555 1_555
C19_7 C18_7 1_555 1_555
H10_7 C19_7 1_555 1_555
C20_7 C19_7 1_555 1_555
C21_7 C16_7 1_555 1_555
H11_7 C21_7 1_555 1_555
C22_7 C18_7 1_555 1_555
H12_7 C22_7 1_555 1_555
N4_7 Zn3_7 1_555 1_555
O5_7 B2_7 1_555 1_555
O6_7 B1_7 1_555 1_555
N5_7 Zn4_7 1_555 1_555
C23_7 N5_7 1_555 1_555
C24_7 C23_7 1_555 1_555
C25_7 C24_7 1_555 1_555
C26_7 C25_7 1_555 1_555
C27_7 C26_7 1_555 1_555
H14_7 C27_7 1_555 1_555
C28_7 C27_7 1_555 1_555
C29_7 C24_7 1_555 1_555
C30_7 C26_7 1_555 1_555
H16_7 C30_7 1_555 1_555
N6_7 Zn3_7 1_555 1_555
O7_7 B2_7 1_555 1_555
C31_7 B2_7 1_555 1_555
C32_7 C31_7 1_555 1_555
H17_7 C32_7 1_555 1_555
C33_7 C32_7 1_555 1_555
H18_7 C33_7 1_555 1_555
Br2_7 C34_7 1_555 1_555
C34_7 C33_7 1_555 1_555
C35_7 C34_7 1_555 1_555
H19_7 C35_7 1_555 1_555
C36_7 C31_7 1_555 1_555
H20_7 C36_7 1_555 1_555
O8_7 Zn3_7 1_555 1_555
C37_7 C12_7 1_555 1_555
C38_7 C37_7 1_555 1_555
H21_7 C38_7 1_555 1_555
C39_7 C38_7 1_555 1_555
H22_7 C39_7 1_555 1_555
C40_7 C39_7 1_555 1_555
C41_7 C40_7 1_555 1_555
H23_7 C41_7 1_555 1_555
C42_7 C37_7 1_555 1_555
H24_7 C42_7 1_555 1_555
C43_7 C40_7 1_555 1_555
O9_4 C43_7 1_555 1_555
O10_7 Zn3_7 1_555 1_555
O11_4 C43_7 1_555 1_555
C44_7 C20_7 1_555 1_555
C45_7 C44_7 1_555 1_555
H25_7 C45_7 1_555 1_555
C46_7 C45_7 1_555 1_555
H26_7 C46_7 1_555 1_555
C47_7 C46_7 1_555 1_555
C48_7 C47_7 1_555 1_555
H27_7 C48_7 1_555 1_555
C49_7 C44_7 1_555 1_555
H28_7 C49_7 1_555 1_555
C50_7 C47_7 1_555 1_555
O12_7 Zn3_7 1_555 1_555
O36_3 C50_7 1_555 1_555
O37_3 C50_7 1_555 1_555
C95_7 C94_7 1_555 1_555
H53_7 C95_7 1_555 1_555
C96_7 C95_7 1_555 1_555
H54_7 C96_7 1_555 1_555
C97_7 C96_7 1_555 1_555
C98_7 C97_7 1_555 1_555
H55_7 C98_7 1_555 1_555
C99_7 C94_7 1_555 1_555
C100_7 C97_7 1_555 1_555
O38_3 C100_7 1_555 1_555
O39_3 C100_7 1_555 1_555
Zn10_3 O9_4 1_555 1_555
Zn15_4 O11_4 1_555 1_555
Zn4_7 O8_7 1_555 1_555
Zn4_7 O10_7 1_555 1_555
Zn4_7 O12_7 1_555 1_555
C9_7 O8_7 1_555 1_555
C12_7 C13_7 1_555 1_555
O4_5 N3_5 1_555 1_555
C17_7 O10_7 1_555 1_555
C20_7 C21_7 1_555 1_555
C22_7 N4_7 1_555 1_555
N4_7 O5_7 1_555 1_555
O6_7 N5_7 1_555 1_555
C25_7 O12_7 1_555 1_555
C28_7 C29_7 1_555 1_555
C30_7 N6_7 1_555 1_555
N6_7 O7_7 1_555 1_555
C35_7 C36_7 1_555 1_555
C41_7 C42_7 1_555 1_555
C48_7 C49_7 1_555 1_555
C98_7 C99_7 1_555 1_555
Zn1_6 N7_8 1_555 1_555
Zn2_6 N8_6 1_555 1_555
Zn3_8 N2_8 1_555 1_555
Zn10_3 O1_8 1_555 1_555
Zn11_4 O1_8 1_555 1_555
Zn13_2 O1_8 1_555 1_555
Zn15_4 O1_8 1_555 1_555
O3_8 N2_8 1_555 1_555
B2_8 O3_8 1_555 1_555
H9_8 C15_8 1_555 1_555
C16_8 C15_8 1_555 1_555
C17_8 C16_8 1_555 1_555
C18_8 C17_8 1_555 1_555
C19_8 C18_8 1_555 1_555
H10_8 C19_8 1_555 1_555
C20_8 C19_8 1_555 1_555
C21_8 C16_8 1_555 1_555
H11_8 C21_8 1_555 1_555
C22_8 C18_8 1_555 1_555
H12_8 C22_8 1_555 1_555
N4_8 Zn3_8 1_555 1_555
O5_8 B2_8 1_555 1_555
C25_8 C24_8 1_555 1_555
C26_8 C25_8 1_555 1_555
C27_8 C26_8 1_555 1_555
H14_8 C27_8 1_555 1_555
C28_8 C27_8 1_555 1_555
C29_8 C24_8 1_555 1_555
H15_8 C29_8 1_555 1_555
C30_8 C26_8 1_555 1_555
H16_8 C30_8 1_555 1_555
N6_8 Zn3_8 1_555 1_555
O7_8 B2_8 1_555 1_555
C31_8 B2_8 1_555 1_555
C32_8 C31_8 1_555 1_555
H17_8 C32_8 1_555 1_555
C33_8 C32_8 1_555 1_555
H18_8 C33_8 1_555 1_555
Br2_8 C34_8 1_555 1_555
C34_8 C33_8 1_555 1_555
C35_8 C34_8 1_555 1_555
H19_8 C35_8 1_555 1_555
C36_8 C31_8 1_555 1_555
H20_8 C36_8 1_555 1_555
O10_8 Zn3_8 1_555 1_555
C44_8 C20_8 1_555 1_555
C45_8 C44_8 1_555 1_555
H25_8 C45_8 1_555 1_555
C46_8 C45_8 1_555 1_555
H26_8 C46_8 1_555 1_555
C47_8 C46_8 1_555 1_555
C48_8 C47_8 1_555 1_555
H27_8 C48_8 1_555 1_555
C49_8 C44_8 1_555 1_555
H28_8 C49_8 1_555 1_555
C50_8 C47_8 1_555 1_555
O12_8 Zn3_8 1_555 1_555
O36_4 C50_8 1_555 1_555
O37_4 C50_8 1_555 1_555
C51_8 C28_8 1_555 1_555
C52_8 C51_8 1_555 1_555
H29_8 C52_8 1_555 1_555
C53_8 C52_8 1_555 1_555
H30_8 C53_8 1_555 1_555
C54_8 C53_8 1_555 1_555
C55_8 C54_8 1_555 1_555
H31_8 C55_8 1_555 1_555
C56_8 C51_8 1_555 1_555
H32_8 C56_8 1_555 1_555
C57_8 C54_8 1_555 1_555
O15_8 Zn13_2 1_555 1_555
O16_8 Zn11_4 1_555 1_555
C58_8 C59_6 1_555 1_555
C59_6 H33_6 1_555 1_555
C60_6 C59_6 1_555 1_555
H34_6 C60_6 1_555 1_555
Br3_6 C61_6 1_555 1_555
C61_6 C60_6 1_555 1_555
C62_6 C61_6 1_555 1_555
H35_6 C62_6 1_555 1_555
C63_8 C58_8 1_555 1_555
H36_8 C63_8 1_555 1_555
B3_8 C58_8 1_555 1_555
O17_8 B3_8 1_555 1_555
N7_8 O17_8 1_555 1_555
C64_6 N7_8 1_555 1_555
H37_8 C64_6 1_555 1_555
C65_6 C64_6 1_555 1_555
C66_6 C65_6 1_555 1_555
C67_6 C66_6 1_555 1_555
C68_6 C67_6 1_555 1_555
H38_6 C68_6 1_555 1_555
C69_6 C68_6 1_555 1_555
C70_6 C65_6 1_555 1_555
H39_8 C70_6 1_555 1_555
C71_6 C67_6 1_555 1_555
H40_6 C71_6 1_555 1_555
N8_6 C71_6 1_555 1_555
O18_6 N8_6 1_555 1_555
B4_6 O18_6 1_555 1_555
O19_8 B3_8 1_555 1_555
N9_6 Zn1_6 1_555 1_555
C72_6 N9_6 1_555 1_555
H41_6 C72_6 1_555 1_555
C73_6 C72_6 1_555 1_555
C74_6 C73_6 1_555 1_555
C75_6 C74_6 1_555 1_555
C76_6 C75_6 1_555 1_555
H42_6 C76_6 1_555 1_555
C77_6 C76_6 1_555 1_555
C78_6 C73_6 1_555 1_555
H43_6 C78_6 1_555 1_555
C79_6 C75_6 1_555 1_555
H44_6 C79_6 1_555 1_555
N10_6 Zn2_6 1_555 1_555
O20_6 B4_6 1_555 1_555
O21_8 B3_8 1_555 1_555
N11_8 Zn1_6 1_555 1_555
C80_8 N11_8 1_555 1_555
H45_8 C80_8 1_555 1_555
C81_8 C80_8 1_555 1_555
C82_8 C81_8 1_555 1_555
C83_8 C82_8 1_555 1_555
C84_8 C83_8 1_555 1_555
H46_8 C84_8 1_555 1_555
C85_8 C84_8 1_555 1_555
C86_8 C81_8 1_555 1_555
H47_8 C86_8 1_555 1_555
C87_6 C83_8 1_555 1_555
H48_6 C87_6 1_555 1_555
N12_6 Zn2_6 1_555 1_555
O22_6 B4_6 1_555 1_555
C88_6 B4_6 1_555 1_555
C89_6 C88_6 1_555 1_555
H49_6 C89_6 1_555 1_555
C90_6 C88_6 1_555 1_555
H50_6 C90_6 1_555 1_555
C91_6 C89_6 1_555 1_555
H51_6 C91_6 1_555 1_555
C92_6 C90_6 1_555 1_555
H52_6 C92_6 1_555 1_555
Br4_6 C93_6 1_555 1_555
C93_6 C91_6 1_555 1_555
O23_6 Zn1_6 1_555 1_555
C94_8 C69_6 1_555 1_555
C95_8 C94_8 1_555 1_555
H53_8 C95_8 1_555 1_555
C96_8 C95_8 1_555 1_555
H54_8 C96_8 1_555 1_555
C97_8 C96_8 1_555 1_555
C98_8 C97_8 1_555 1_555
H55_8 C98_8 1_555 1_555
C99_8 C94_8 1_555 1_555
H56_6 C99_8 1_555 1_555
C100_8 C97_8 1_555 1_555
O38_4 C100_8 1_555 1_555
O25_6 Zn1_6 1_555 1_555
O39_4 C100_8 1_555 1_555
C101_6 C77_6 1_555 1_555
C102_6 C101_6 1_555 1_555
H57_6 C102_6 1_555 1_555
C103_6 C102_6 1_555 1_555
H58_6 C103_6 1_555 1_555
C104_6 C103_6 1_555 1_555
C105_6 C104_6 1_555 1_555
H59_6 C105_6 1_555 1_555
C106_6 C101_6 1_555 1_555
H60_6 C106_6 1_555 1_555
C107_6 C104_6 1_555 1_555
O27_8 Zn1_6 1_555 1_555
O28_8 Zn11_4 1_555 1_555
O29_6 Zn10_3 1_555 1_555
C108_8 C85_8 1_555 1_555
C109_8 C108_8 1_555 1_555
H61_8 C109_8 1_555 1_555
C110_8 C109_8 1_555 1_555
H62_8 C110_8 1_555 1_555
C111_8 C110_8 1_555 1_555
C112_8 C111_8 1_555 1_555
H63_8 C112_8 1_555 1_555
C113_8 C108_8 1_555 1_555
H64_8 C113_8 1_555 1_555
C114_8 C111_8 1_555 1_555
O40_3 C114_8 1_555 1_555
O41_3 C114_8 1_555 1_555
O32_8 Zn13_2 1_555 1_555
S1_8 O32_8 1_555 1_555
C115_8 S1_8 1_555 1_555
H65_8 C115_8 1_555 1_555
H66_8 C115_8 1_555 1_555
H67_8 C115_8 1_555 1_555
C116_8 S1_8 1_555 1_555
H68_8 C116_8 1_555 1_555
H69_8 C116_8 1_555 1_555
H70_8 C116_8 1_555 1_555
O33_8 Zn13_2 1_555 1_555
S2_8 O33_8 1_555 1_555
C117_8 S2_8 1_555 1_555
H71_8 C117_8 1_555 1_555
H72_8 C117_8 1_555 1_555
H73_8 C117_8 1_555 1_555
C118_8 S2_8 1_555 1_555
H74_8 C118_8 1_555 1_555
H75_8 C118_8 1_555 1_555
H76_8 C118_8 1_555 1_555
Zn2_6 O23_6 1_555 1_555
Zn2_6 O25_6 1_555 1_555
Zn2_6 O27_8 1_555 1_555
C17_8 O10_8 1_555 1_555
C20_8 C21_8 1_555 1_555
C22_8 N4_8 1_555 1_555
N4_8 O5_8 1_555 1_555
C25_8 O12_8 1_555 1_555
C28_8 C29_8 1_555 1_555
C30_8 N6_8 1_555 1_555
N6_8 O7_8 1_555 1_555
C35_8 C36_8 1_555 1_555
C48_8 C49_8 1_555 1_555
C55_8 C56_8 1_555 1_555
C57_8 O15_8 1_555 1_555
C57_8 O16_8 1_555 1_555
C62_6 C63_8 1_555 1_555
C66_6 O23_6 1_555 1_555
C69_6 C70_6 1_555 1_555
O19_8 N9_6 1_555 1_555
C74_6 O25_6 1_555 1_555
C77_6 C78_6 1_555 1_555
C79_6 N10_6 1_555 1_555
N10_6 O20_6 1_555 1_555
O21_8 N11_8 1_555 1_555
C82_8 O27_8 1_555 1_555
C85_8 C86_8 1_555 1_555
C87_6 N12_6 1_555 1_555
N12_6 O22_6 1_555 1_555
C92_6 C93_6 1_555 1_555
C98_8 C99_8 1_555 1_555
C105_6 C106_6 1_555 1_555
C107_6 O28_8 1_555 1_555
C107_6 O29_6 1_555 1_555
C112_8 C113_8 1_555 1_555
Zn4_8 N1_8 1_555 1_555
C1_8 C2_8 1_555 1_555
C2_8 H1_8 1_555 1_555
C3_8 C2_8 1_555 1_555
H2_8 C3_8 1_555 1_555
Br1_4 C4_4 1_555 1_555
C4_4 C3_8 1_555 1_555
C5_4 C4_4 1_555 1_555
H3_4 C5_4 1_555 1_555
C6_8 C1_8 1_555 1_555
H4_8 C6_8 1_555 1_555
B1_8 C1_8 1_555 1_555
O2_8 B1_8 1_555 1_555
N1_8 O2_8 1_555 1_555
C7_8 N1_8 1_555 1_555
H5_8 C7_8 1_555 1_555
C8_8 C7_8 1_555 1_555
C9_8 C8_8 1_555 1_555
C10_8 C9_8 1_555 1_555
C11_8 C10_8 1_555 1_555
H6_8 C11_8 1_555 1_555
C12_8 C11_8 1_555 1_555
C13_8 C8_8 1_555 1_555
H7_8 C13_8 1_555 1_555
C14_8 C10_8 1_555 1_555
H8_8 C14_8 1_555 1_555
O4_6 B1_8 1_555 1_555
N3_6 Zn4_8 1_555 1_555
O6_8 B1_8 1_555 1_555
N5_8 Zn4_8 1_555 1_555
C23_8 N5_8 1_555 1_555
H13_8 C23_8 1_555 1_555
C37_8 C12_8 1_555 1_555
C38_8 C37_8 1_555 1_555
H21_8 C38_8 1_555 1_555
C39_8 C38_8 1_555 1_555
H22_8 C39_8 1_555 1_555
C40_8 C39_8 1_555 1_555
C41_8 C40_8 1_555 1_555
H23_8 C41_8 1_555 1_555
C42_8 C37_8 1_555 1_555
H24_8 C42_8 1_555 1_555
C43_8 C40_8 1_555 1_555
O34_4 C43_8 1_555 1_555
O35_4 C43_8 1_555 1_555
Zn4_8 O8_8 1_555 1_555
C5_4 C6_8 1_555 1_555
C9_8 O8_8 1_555 1_555
C12_8 C13_8 1_555 1_555
O4_6 N3_6 1_555 1_555
O6_8 N5_8 1_555 1_555
C41_8 C42_8 1_555 1_555
Zn2_7 N8_7 1_555 1_555
Br1_5 C4_5 1_555 1_555
C5_5 C4_5 1_555 1_555
H3_5 C5_5 1_555 1_555
C65_7 C64_7 1_555 1_555
C66_7 C65_7 1_555 1_555
C67_7 C66_7 1_555 1_555
C68_7 C67_7 1_555 1_555
H38_7 C68_7 1_555 1_555
C69_7 C68_7 1_555 1_555
C70_7 C65_7 1_555 1_555
C71_7 C67_7 1_555 1_555
H40_7 C71_7 1_555 1_555
N8_7 C71_7 1_555 1_555
O18_7 N8_7 1_555 1_555
B4_7 O18_7 1_555 1_555
N9_7 Zn1_7 1_555 1_555
C72_7 N9_7 1_555 1_555
H41_7 C72_7 1_555 1_555
C73_7 C72_7 1_555 1_555
C74_7 C73_7 1_555 1_555
C75_7 C74_7 1_555 1_555
C76_7 C75_7 1_555 1_555
H42_7 C76_7 1_555 1_555
C77_7 C76_7 1_555 1_555
C78_7 C73_7 1_555 1_555
H43_7 C78_7 1_555 1_555
C79_7 C75_7 1_555 1_555
H44_7 C79_7 1_555 1_555
N10_7 Zn2_7 1_555 1_555
O20_7 B4_7 1_555 1_555
H48_7 C87_7 1_555 1_555
N12_7 Zn2_7 1_555 1_555
O22_7 B4_7 1_555 1_555
C88_7 B4_7 1_555 1_555
C89_7 C88_7 1_555 1_555
H49_7 C89_7 1_555 1_555
C90_7 C88_7 1_555 1_555
H50_7 C90_7 1_555 1_555
C91_7 C89_7 1_555 1_555
H51_7 C91_7 1_555 1_555
C92_7 C90_7 1_555 1_555
H52_7 C92_7 1_555 1_555
Br4_7 C93_7 1_555 1_555
C93_7 C91_7 1_555 1_555
O23_7 Zn1_7 1_555 1_555
O25_7 Zn1_7 1_555 1_555
C101_7 C77_7 1_555 1_555
C102_7 C101_7 1_555 1_555
H57_7 C102_7 1_555 1_555
C103_7 C102_7 1_555 1_555
H58_7 C103_7 1_555 1_555
C104_7 C103_7 1_555 1_555
C105_7 C104_7 1_555 1_555
H59_7 C105_7 1_555 1_555
C106_7 C101_7 1_555 1_555
H60_7 C106_7 1_555 1_555
C107_7 C104_7 1_555 1_555
Zn2_7 O23_7 1_555 1_555
Zn2_7 O25_7 1_555 1_555
C66_7 O23_7 1_555 1_555
C69_7 C70_7 1_555 1_555
C74_7 O25_7 1_555 1_555
C77_7 C78_7 1_555 1_555
C79_7 N10_7 1_555 1_555
N10_7 O20_7 1_555 1_555
C87_7 N12_7 1_555 1_555
N12_7 O22_7 1_555 1_555
C92_7 C93_7 1_555 1_555
C105_7 C106_7 1_555 1_555
C107_7 O29_7 1_555 1_555
Br1_6 C4_6 1_555 1_555
C5_6 C4_6 1_555 1_555
H3_6 C5_6 1_555 1_555
O4_7 N3_7 1_555 1_555
C59_7 H33_7 1_555 1_555
C60_7 C59_7 1_555 1_555
H34_7 C60_7 1_555 1_555
Br3_7 C61_7 1_555 1_555
C61_7 C60_7 1_555 1_555
C62_7 C61_7 1_555 1_555
H35_7 C62_7 1_555 1_555
Zn2_8 N8_8 1_555 1_555
Br1_7 C4_7 1_555 1_555
C5_7 C4_7 1_555 1_555
H3_7 C5_7 1_555 1_555
C65_8 C64_8 1_555 1_555
C66_8 C65_8 1_555 1_555
C67_8 C66_8 1_555 1_555
C68_8 C67_8 1_555 1_555
H38_8 C68_8 1_555 1_555
C69_8 C68_8 1_555 1_555
C70_8 C65_8 1_555 1_555
C71_8 C67_8 1_555 1_555
H40_8 C71_8 1_555 1_555
N8_8 C71_8 1_555 1_555
O18_8 N8_8 1_555 1_555
B4_8 O18_8 1_555 1_555
N9_8 Zn1_8 1_555 1_555
C72_8 N9_8 1_555 1_555
H41_8 C72_8 1_555 1_555
C73_8 C72_8 1_555 1_555
C74_8 C73_8 1_555 1_555
C75_8 C74_8 1_555 1_555
C76_8 C75_8 1_555 1_555
H42_8 C76_8 1_555 1_555
C77_8 C76_8 1_555 1_555
C78_8 C73_8 1_555 1_555
H43_8 C78_8 1_555 1_555
C79_8 C75_8 1_555 1_555
H44_8 C79_8 1_555 1_555
N10_8 Zn2_8 1_555 1_555
O20_8 B4_8 1_555 1_555
H48_8 C87_8 1_555 1_555
N12_8 Zn2_8 1_555 1_555
O22_8 B4_8 1_555 1_555
C88_8 B4_8 1_555 1_555
C89_8 C88_8 1_555 1_555
H49_8 C89_8 1_555 1_555
C90_8 C88_8 1_555 1_555
H50_8 C90_8 1_555 1_555
C91_8 C89_8 1_555 1_555
H51_8 C91_8 1_555 1_555
C92_8 C90_8 1_555 1_555
H52_8 C92_8 1_555 1_555
Br4_8 C93_8 1_555 1_555
C93_8 C91_8 1_555 1_555
O23_8 Zn1_8 1_555 1_555
O25_8 Zn1_8 1_555 1_555
C101_8 C77_8 1_555 1_555
C102_8 C101_8 1_555 1_555
H57_8 C102_8 1_555 1_555
C103_8 C102_8 1_555 1_555
H58_8 C103_8 1_555 1_555
C104_8 C103_8 1_555 1_555
C105_8 C104_8 1_555 1_555
H59_8 C105_8 1_555 1_555
C106_8 C101_8 1_555 1_555
H60_8 C106_8 1_555 1_555
C107_8 C104_8 1_555 1_555
Zn2_8 O23_8 1_555 1_555
Zn2_8 O25_8 1_555 1_555
C66_8 O23_8 1_555 1_555
C69_8 C70_8 1_555 1_555
C74_8 O25_8 1_555 1_555
C77_8 C78_8 1_555 1_555
C79_8 N10_8 1_555 1_555
N10_8 O20_8 1_555 1_555
C87_8 N12_8 1_555 1_555
N12_8 O22_8 1_555 1_555
C92_8 C93_8 1_555 1_555
C105_8 C106_8 1_555 1_555
C107_8 O29_8 1_555 1_555
C59_8 H33_8 1_555 1_555
C60_8 C59_8 1_555 1_555
H34_8 C60_8 1_555 1_555
Br3_8 C61_8 1_555 1_555
C61_8 C60_8 1_555 1_555
C62_8 C61_8 1_555 1_555
H35_8 C62_8 1_555 1_555
Br1_8 C4_8 1_555 1_555
C5_8 C4_8 1_555 1_555
H3_8 C5_8 1_555 1_555
O4_8 N3_8 1_555 1_555

#END
