
###############################################################################
#
# This file contains modified crystal structure data generated from the
# MOF subset of the Cambridge Structural Database (CSD) v543 
# hosted by the Cambridge Crystallographic Data Centre (CCDC).
#
# This work is licensed under the Creative Commons
# Attribution-NonCommercial-ShareAlike 4.0 International License.
# To view a copy of this license, visit
# http://creativecommons.org/licenses/by-nc-sa/4.0/
# or send a letter to
# Creative Commons, PO Box 1866, Mountain View, CA 94042, USA.
#
# CIF created using the CSD Python API on 29 September 2022
# The structure has been converted into the P1 space group
# The structure has a 3D framework
# The original CSD entry OKUKAI is in the monoclinic crystal system
# The framework has been calculated to contain at least 10.0% void space
# The void calculation uses a probe of radius 1.32A, grid spacing 0.4
# The framework is charged, counterions have been retained in the structure
#
###############################################################################

data_OKUKAI
_chemical_formula_moiety         '(C492 H256 B28 Br38 Co28 N76 O172 Zn20 12-)n'
_symmetry_cell_setting           triclinic
_symmetry_space_group_name_H-M   'P 1'
_symmetry_Int_Tables_number      1
_space_group_name_Hall           'P 1'
loop_
_symmetry_equiv_pos_site_id
_symmetry_equiv_pos_as_xyz
1 x,y,z
_cell_length_a                   45.916(4)
_cell_length_b                   30.605(2)
_cell_length_c                   27.785(2)
_cell_angle_alpha                90
_cell_angle_beta                 100.851(8)
_cell_angle_gamma                90
_cell_volume                     38347
loop_
_atom_site_label
_atom_site_type_symbol
_atom_site_fract_x
_atom_site_fract_y
_atom_site_fract_z
Zn10 Zn 0.13925(4) 0.0000 0.40986(7)
H28 H 0.6842 0.5000 0.0183
O16 O 0.6375(3) 0.5000 0.0275(4)
B4 B 0.6060(5) 0.5000 0.0278(5)
O18 O 0.5909(2) 0.5398(3) 0.0082(3)
C61 C 0.6022(5) 0.5000 0.0837(5)
C62 C 0.5994(3) 0.5370(4) 0.1108(4)
H33 H 0.6003 0.5644 0.0952
C63 C 0.5954(3) 0.5376(4) 0.1581(4)
H34 H 0.5933 0.5649 0.1734
C64 C 0.5942(5) 0.5000 0.1842(5)
C66 C 0.5935(5) 0.5000 0.2384(5)
O23 O 0.5934(2) 0.5369(3) 0.2579(3)
O25 O 0.5909(2) 0.4602(3) 0.0082(3)
C75 C 0.5994(3) 0.4630(4) 0.1108(4)
H39 H 0.6003 0.4356 0.0952
C76 C 0.5954(3) 0.4624(4) 0.1581(4)
H40 H 0.5933 0.4351 0.1734
O27 O 0.5934(2) 0.4631(3) 0.2579(3)
Zn5 Zn 0.59759(3) 0.44866(4) 0.32554(4)
Zn7 Zn 0.59759(3) 0.55134(4) 0.32554(4)
Zn2 Zn 0.57065(4) 0.5000 0.40434(7)
Zn3 Zn 0.63925(4) 0.5000 0.40986(7)
Co1 Co 0.61685(4) 0.5000 0.81746(7)
Co2 Co 0.61081(5) 0.5000 0.92071(8)
Co3 Co 0.37772(4) 0.26877(6) 0.33791(7)
Co4 Co 0.32250(4) 0.22191(7) 0.34075(11)
O1 O 0.60168(15) 0.5000 0.3650(3)
C1 C 0.4642(2) 0.3458(4) 0.3357(4)
C2 C 0.4679(2) 0.3852(4) 0.3618(5)
H1 H 0.4526 0.3953 0.3776
C3 C 0.4936(2) 0.4097(4) 0.3648(5)
H2 H 0.4954 0.4366 0.3823
C4 C 0.5164(2) 0.3956(4) 0.3426(4)
C5 C 0.5136(2) 0.3567(4) 0.3170(4)
H3 H 0.5292 0.3463 0.3020
C6 C 0.4875(2) 0.3330(4) 0.3137(4)
H4 H 0.4855 0.3066 0.2953
B1 B 0.4346(3) 0.3182(5) 0.3350(6)
O2 O 0.4323(2) 0.2874(3) 0.2945(4)
N1 N 0.4084(3) 0.2602(4) 0.2905(5)
C7 C 0.4079(3) 0.2330(5) 0.2560(6)
H5 H 0.4238 0.2342 0.2386
C8 C 0.3855(3) 0.2002(4) 0.2404(5)
C9 C 0.3602(3) 0.1939(5) 0.2626(5)
C10 C 0.3401(3) 0.1596(4) 0.2444(5)
C11 C 0.3462(3) 0.1323(5) 0.2065(6)
H6 H 0.3333 0.1087 0.1951
Br1 Br 0.37980(14) 0.1012(2) 0.1374(2)
C12 C 0.3708(3) 0.1398(4) 0.1863(5)
C13 C 0.3900(3) 0.1736(5) 0.2013(6)
H7 H 0.4062 0.1790 0.1853
C14 C 0.3135(3) 0.1513(5) 0.2634(6)
H8 H 0.3013 0.1283 0.2481
N2 N 0.3045(3) 0.1710(5) 0.2978(6)
O3 O 0.2784(2) 0.1529(4) 0.3063(5)
B2 B 0.2656(3) 0.1728(6) 0.3448(8)
O4 O 0.4114(2) 0.3497(3) 0.3285(4)
N3 N 0.3830(2) 0.3351(4) 0.3255(5)
C15 C 0.3649(2) 0.3666(4) 0.3188(6)
H9 H 0.3728 0.3951 0.3170
C16 C 0.3332(2) 0.3627(4) 0.3137(5)
C17 C 0.3188(2) 0.3226(4) 0.3210(6)
C18 C 0.2870(3) 0.3221(3) 0.3122(6)
C19 C 0.2706(3) 0.3599(4) 0.2962(7)
H10 H 0.2495 0.3596 0.2902
Br2 Br 0.26363(7) 0.44894(9) 0.2706(2)
C20 C 0.2860(2) 0.3977(3) 0.2895(6)
C21 C 0.3162(2) 0.3995(4) 0.2977(6)
H11 H 0.3257 0.4262 0.2926
C22 C 0.2697(3) 0.2832(4) 0.3165(7)
H12 H 0.2487 0.2857 0.3090
N4 N 0.2807(3) 0.2460(4) 0.3297(7)
O5 O 0.2558(3) 0.2169(4) 0.3270(6)
O6 O 0.4380(2) 0.2958(3) 0.3818(3)
N5 N 0.4152(3) 0.2728(4) 0.3915(4)
C23 C 0.4192(3) 0.2579(5) 0.4345(5)
H13 H 0.4381 0.2637 0.4541
C24 C 0.3990(3) 0.2333(4) 0.4577(4)
C25 C 0.3695(3) 0.2215(5) 0.4338(5)
C26 C 0.3512(3) 0.1999(5) 0.4625(4)
C27 C 0.3612(3) 0.1913(6) 0.5129(5)
H14 H 0.3484 0.1781 0.5319
Br3 Br 0.40361(13) 0.1908(2) 0.60142(14)
C28 C 0.3899(3) 0.2025(5) 0.5340(3)
C29 C 0.4088(3) 0.2223(6) 0.5075(4)
H15 H 0.4287 0.2285 0.5229
C30 C 0.3218(3) 0.1847(5) 0.4419(6)
H16 H 0.3103 0.1716 0.4632
N6 N 0.3105(3) 0.1879(5) 0.3969(5)
O7 O 0.2838(3) 0.1706(4) 0.3951(6)
C31 C 0.2356(2) 0.1477(4) 0.3488(5)
C32 C 0.2083(3) 0.1563(4) 0.3181(6)
H17 H 0.2071 0.1783 0.2938
C33 C 0.1831(2) 0.1328(4) 0.3231(6)
H18 H 0.1648 0.1391 0.3021
C34 C 0.1844(2) 0.1005(4) 0.3581(5)
C35 C 0.2115(2) 0.0907(4) 0.3895(6)
H19 H 0.2128 0.0684 0.4136
C36 C 0.2359(2) 0.1144(5) 0.3840(6)
H20 H 0.2542 0.1080 0.4051
C37 C 0.5449(2) 0.4211(4) 0.3505(5)
O8 O 0.5460(2) 0.4497(3) 0.3846(4)
O9 O 0.56338(18) 0.4120(3) 0.3254(3)
O10 O 0.3549(2) 0.2186(4) 0.2970(4)
O11 O 0.3336(2) 0.2870(3) 0.3307(5)
O12 O 0.3618(2) 0.2310(4) 0.3885(4)
C38 C 0.1572(2) 0.0748(4) 0.3646(6)
O13 O 0.13321(18) 0.0869(3) 0.3374(4)
O14 O 0.1611(2) 0.0451(4) 0.3968(5)
C39 C 0.6216(3) 0.5000 0.6537(3)
C40 C 0.5942(3) 0.5000 0.6220(4)
H21 H 0.5767 0.5000 0.6358
C41 C 0.5911(3) 0.5000 0.5717(4)
H22 H 0.5719 0.5000 0.5518
C42 C 0.6161(3) 0.5000 0.5501(3)
C43 C 0.6437(3) 0.5000 0.5808(4)
H23 H 0.6612 0.5000 0.5671
C44 C 0.6461(3) 0.5000 0.6312(4)
H24 H 0.6654 0.5000 0.6512
B3 B 0.6230(4) 0.5000 0.7115(4)
O15 O 0.6527(2) 0.5000 0.7371(3)
N7 N 0.6555(2) 0.5000 0.7855(4)
C45 C 0.6825(3) 0.5000 0.8069(4)
H25 H 0.6970 0.5000 0.7867
C46 C 0.6928(2) 0.5000 0.8589(4)
C47 C 0.6746(3) 0.5000 0.8950(4)
C48 C 0.6886(2) 0.5000 0.9458(4)
C49 C 0.7197(2) 0.5000 0.9592(5)
H26 H 0.7290 0.5000 0.9928
Br4 Br 0.77836(7) 0.5000 0.94098(15)
C50 C 0.73662(19) 0.5000 0.9229(4)
C51 C 0.7242(2) 0.5000 0.8737(4)
H27 H 0.7366 0.5000 0.8499
C52 C 0.6727(3) 0.5000 0.9861(5)
N8 N 0.6450(3) 0.5000 0.9820(5)
O17 O 0.60638(16) 0.5392(2) 0.7184(3)
N9 N 0.6023(2) 0.5469(3) 0.7648(3)
C53 C 0.5877(2) 0.5819(3) 0.7664(4)
H29 H 0.5820 0.5975 0.7366
C54 C 0.5789(2) 0.6003(3) 0.8095(3)
C55 C 0.5842(2) 0.5796(3) 0.8560(3)
C56 C 0.5745(2) 0.6006(3) 0.8962(3)
C57 C 0.5604(3) 0.6410(3) 0.8886(4)
H30 H 0.5534 0.6551 0.9147
Br5 Br 0.53808(7) 0.71700(7) 0.83463(8)
C58 C 0.5565(2) 0.6604(3) 0.8434(4)
C59 C 0.5650(2) 0.6410(3) 0.8042(4)
H31 H 0.5615 0.6552 0.7732
C60 C 0.5781(3) 0.5828(4) 0.9449(4)
H32 H 0.5703 0.5991 0.9687
N10 N 0.5910(3) 0.5469(3) 0.9585(3)
C65 C 0.6117(3) 0.5000 0.4948(4)
O19 O 0.5852(3) 0.5000 0.4734(4)
O20 O 0.6356(3) 0.5000 0.4779(4)
O21 O 0.6468(2) 0.5000 0.8830(3)
O22 O 0.59857(18) 0.5428(2) 0.8618(3)
O24 O 0.60638(16) 0.4608(2) 0.7184(3)
N11 N 0.6023(2) 0.4531(3) 0.7648(3)
C67 C 0.5877(2) 0.4181(3) 0.7664(4)
H35 H 0.5820 0.4025 0.7366
C68 C 0.5789(2) 0.3997(3) 0.8095(3)
C69 C 0.5842(2) 0.4204(3) 0.8560(3)
C70 C 0.5745(2) 0.3994(3) 0.8962(3)
C71 C 0.5604(3) 0.3590(3) 0.8886(4)
H36 H 0.5534 0.3449 0.9147
Br6 Br 0.53808(7) 0.28300(7) 0.83463(8)
C72 C 0.5565(2) 0.3396(3) 0.8434(4)
C73 C 0.5650(2) 0.3590(3) 0.8042(4)
H37 H 0.5615 0.3448 0.7732
C74 C 0.5781(3) 0.4172(4) 0.9449(4)
H38 H 0.5703 0.4009 0.9687
N12 N 0.5910(3) 0.4531(3) 0.9585(3)
O26 O 0.59857(18) 0.4572(2) 0.8618(3)
Co5 Co 0.37772(4) 0.73123(6) 0.33791(7)
Co6 Co 0.32250(4) 0.77809(7) 0.34075(11)
C77 C 0.4642(2) 0.6542(4) 0.3357(4)
C78 C 0.4679(2) 0.6148(4) 0.3618(5)
H41 H 0.4526 0.6047 0.3776
C79 C 0.4936(2) 0.5903(4) 0.3648(5)
H42 H 0.4954 0.5634 0.3823
C80 C 0.5164(2) 0.6044(4) 0.3426(4)
C81 C 0.5136(2) 0.6433(4) 0.3170(4)
H43 H 0.5292 0.6537 0.3020
C82 C 0.4875(2) 0.6670(4) 0.3137(4)
H44 H 0.4855 0.6934 0.2953
B5 B 0.4346(3) 0.6818(5) 0.3350(6)
O28 O 0.4323(2) 0.7126(3) 0.2945(4)
N13 N 0.4084(3) 0.7398(4) 0.2905(5)
C83 C 0.4079(3) 0.7670(5) 0.2560(6)
H45 H 0.4238 0.7658 0.2386
C84 C 0.3855(3) 0.7998(4) 0.2404(5)
C85 C 0.3602(3) 0.8061(5) 0.2626(5)
C86 C 0.3401(3) 0.8404(4) 0.2444(5)
C87 C 0.3462(3) 0.8677(5) 0.2065(6)
H46 H 0.3333 0.8913 0.1951
Br7 Br 0.37980(14) 0.8988(2) 0.1374(2)
C88 C 0.3708(3) 0.8602(4) 0.1863(5)
C89 C 0.3900(3) 0.8264(5) 0.2013(6)
H47 H 0.4062 0.8210 0.1853
C90 C 0.3135(3) 0.8487(5) 0.2634(6)
H48 H 0.3013 0.8717 0.2481
N14 N 0.3045(3) 0.8290(5) 0.2978(6)
O29 O 0.2784(2) 0.8471(4) 0.3063(5)
B6 B 0.2656(3) 0.8272(6) 0.3448(8)
O30 O 0.4114(2) 0.6503(3) 0.3285(4)
N15 N 0.3830(2) 0.6649(4) 0.3255(5)
C91 C 0.3649(2) 0.6334(4) 0.3188(6)
H49 H 0.3728 0.6049 0.3170
C92 C 0.3332(2) 0.6373(4) 0.3137(5)
C93 C 0.3188(2) 0.6774(4) 0.3210(6)
C94 C 0.2870(3) 0.6779(3) 0.3122(6)
C95 C 0.2706(3) 0.6401(4) 0.2962(7)
H50 H 0.2495 0.6404 0.2902
Br8 Br 0.26363(7) 0.55106(9) 0.2706(2)
C96 C 0.2860(2) 0.6023(3) 0.2895(6)
C97 C 0.3162(2) 0.6005(4) 0.2977(6)
H51 H 0.3257 0.5738 0.2926
C98 C 0.2697(3) 0.7168(4) 0.3165(7)
H52 H 0.2487 0.7143 0.3090
N16 N 0.2807(3) 0.7540(4) 0.3297(7)
O31 O 0.2558(3) 0.7831(4) 0.3270(6)
O32 O 0.4380(2) 0.7042(3) 0.3818(3)
N17 N 0.4152(3) 0.7272(4) 0.3915(4)
C99 C 0.4192(3) 0.7421(5) 0.4345(5)
H53 H 0.4381 0.7363 0.4541
C100 C 0.3990(3) 0.7667(4) 0.4577(4)
C101 C 0.3695(3) 0.7785(5) 0.4338(5)
C102 C 0.3512(3) 0.8001(5) 0.4625(4)
C103 C 0.3612(3) 0.8087(6) 0.5129(5)
H54 H 0.3484 0.8219 0.5319
Br9 Br 0.40361(13) 0.8092(2) 0.60142(14)
C104 C 0.3899(3) 0.7975(5) 0.5340(3)
C105 C 0.4088(3) 0.7777(6) 0.5075(4)
H55 H 0.4287 0.7715 0.5229
C106 C 0.3218(3) 0.8153(5) 0.4419(6)
H56 H 0.3103 0.8284 0.4632
N18 N 0.3105(3) 0.8121(5) 0.3969(5)
O33 O 0.2838(3) 0.8294(4) 0.3951(6)
C107 C 0.2356(2) 0.8523(4) 0.3488(5)
C108 C 0.2083(3) 0.8437(4) 0.3181(6)
H57 H 0.2071 0.8217 0.2938
C109 C 0.1831(2) 0.8672(4) 0.3231(6)
H58 H 0.1648 0.8609 0.3021
C110 C 0.1844(2) 0.8995(4) 0.3581(5)
C111 C 0.2115(2) 0.9093(4) 0.3895(6)
H59 H 0.2128 0.9316 0.4136
C112 C 0.2359(2) 0.8856(5) 0.3840(6)
H60 H 0.2542 0.8920 0.4051
C113 C 0.5449(2) 0.5789(4) 0.3505(5)
O34 O 0.5460(2) 0.5503(3) 0.3846(4)
O35 O 0.56338(18) 0.5880(3) 0.3254(3)
O36 O 0.3549(2) 0.7814(4) 0.2970(4)
O37 O 0.3336(2) 0.7130(3) 0.3307(5)
O38 O 0.3618(2) 0.7690(4) 0.3885(4)
C114 C 0.1572(2) 0.9252(4) 0.3646(6)
O39 O 0.13321(18) 0.9131(3) 0.3374(4)
O40 O 0.1611(2) 0.9549(4) 0.3968(5)
Zn6 Zn 0.09759(3) 0.94866(4) 0.32554(4)
Zn8 Zn 0.09759(3) 0.05134(4) 0.32554(4)
Zn10_2 Zn 0.13925(4) 1.0000 0.40986(7)
O41 O 0.63321(18) 0.5869(3) 0.3374(4)
O42 O 0.63321(18) 0.4131(3) 0.3374(4)
O43 O 0.6611(2) 0.5451(4) 0.3968(5)
O44 O 0.6611(2) 0.4549(4) 0.3968(5)
H28_2 H 0.1842 -0.0000 0.0183
O16_2 O 0.1375(3) -0.0000 0.0275(4)
B4_2 B 0.1060(5) -0.0000 0.0278(5)
O18_2 O 0.0909(2) 0.0398(3) 0.0082(3)
C61_2 C 0.1022(5) -0.0000 0.0837(5)
C62_2 C 0.0994(3) 0.0370(4) 0.1108(4)
H33_2 H 0.1003 0.0644 0.0952
C63_2 C 0.0954(3) 0.0376(4) 0.1581(4)
H34_2 H 0.0933 0.0649 0.1734
C64_2 C 0.0942(5) -0.0000 0.1842(5)
C66_2 C 0.0935(5) -0.0000 0.2384(5)
O23_2 O 0.0934(2) 0.0369(3) 0.2579(3)
Zn2_2 Zn 0.07065(4) 0.0000 0.40434(7)
Co1_2 Co 0.11685(4) -0.0000 0.81746(7)
Co2_2 Co 0.11081(5) -0.0000 0.92071(8)
O1_2 O 0.10168(15) 0.0000 0.3650(3)
C39_2 C 0.1216(3) -0.0000 0.6537(3)
C40_2 C 0.0942(3) -0.0000 0.6220(4)
H21_2 H 0.0767 -0.0000 0.6358
C41_2 C 0.0911(3) -0.0000 0.5717(4)
H22_2 H 0.0719 -0.0000 0.5518
C42_2 C 0.1161(3) -0.0000 0.5501(3)
C43_2 C 0.1437(3) -0.0000 0.5808(4)
H23_2 H 0.1612 -0.0000 0.5671
C44_2 C 0.1461(3) -0.0000 0.6312(4)
H24_2 H 0.1654 -0.0000 0.6512
B3_2 B 0.1230(4) -0.0000 0.7115(4)
O15_2 O 0.1527(2) -0.0000 0.7371(3)
N7_2 N 0.1555(2) -0.0000 0.7855(4)
C45_2 C 0.1825(3) -0.0000 0.8069(4)
H25_2 H 0.1970 -0.0000 0.7867
C46_2 C 0.1928(2) -0.0000 0.8589(4)
C47_2 C 0.1746(3) -0.0000 0.8950(4)
C48_2 C 0.1886(2) -0.0000 0.9458(4)
C49_2 C 0.2197(2) -0.0000 0.9592(5)
H26_2 H 0.2290 -0.0000 0.9928
Br4_2 Br 0.27836(7) -0.0000 0.94098(15)
C50_2 C 0.23662(19) -0.0000 0.9229(4)
C51_2 C 0.2242(2) -0.0000 0.8737(4)
H27_2 H 0.2366 -0.0000 0.8499
C52_2 C 0.1727(3) -0.0000 0.9861(5)
N8_2 N 0.1450(3) -0.0000 0.9820(5)
O17_2 O 0.10638(16) 0.0392(2) 0.7184(3)
N9_2 N 0.1023(2) 0.0469(3) 0.7648(3)
C53_2 C 0.0877(2) 0.0819(3) 0.7664(4)
H29_2 H 0.0820 0.0975 0.7366
C54_2 C 0.0789(2) 0.1003(3) 0.8095(3)
C55_2 C 0.0842(2) 0.0796(3) 0.8560(3)
C56_2 C 0.0745(2) 0.1006(3) 0.8962(3)
C57_2 C 0.0604(3) 0.1410(3) 0.8886(4)
H30_2 H 0.0534 0.1551 0.9147
Br5_2 Br 0.03808(7) 0.21700(7) 0.83463(8)
C58_2 C 0.0565(2) 0.1604(3) 0.8434(4)
C59_2 C 0.0650(2) 0.1410(3) 0.8042(4)
H31_2 H 0.0615 0.1552 0.7732
C60_2 C 0.0781(3) 0.0828(4) 0.9449(4)
H32_2 H 0.0703 0.0991 0.9687
N10_2 N 0.0910(3) 0.0469(3) 0.9585(3)
C65_2 C 0.1117(3) -0.0000 0.4948(4)
O19_2 O 0.0852(3) -0.0000 0.4734(4)
O20_2 O 0.1356(3) -0.0000 0.4779(4)
O21_2 O 0.1468(2) -0.0000 0.8830(3)
O22_2 O 0.09857(18) 0.0428(2) 0.8618(3)
C80_2 C 0.0164(2) 0.1044(4) 0.3426(4)
C81_2 C 0.0136(2) 0.1433(4) 0.3170(4)
H43_2 H 0.0292 0.1537 0.3020
C113_2 C 0.0449(2) 0.0789(4) 0.3505(5)
O34_2 O 0.0460(2) 0.0503(3) 0.3846(4)
O35_2 O 0.06338(18) 0.0880(3) 0.3254(3)
H28_3 H 0.1842 1.0000 0.0183
O16_3 O 0.1375(3) 1.0000 0.0275(4)
B4_3 B 0.1060(5) 1.0000 0.0278(5)
C61_3 C 0.1022(5) 1.0000 0.0837(5)
C64_3 C 0.0942(5) 1.0000 0.1842(5)
C66_3 C 0.0935(5) 1.0000 0.2384(5)
O25_2 O 0.0909(2) 0.9602(3) 0.0082(3)
C75_2 C 0.0994(3) 0.9630(4) 0.1108(4)
H39_2 H 0.1003 0.9356 0.0952
C76_2 C 0.0954(3) 0.9624(4) 0.1581(4)
H40_2 H 0.0933 0.9351 0.1734
O27_2 O 0.0934(2) 0.9631(3) 0.2579(3)
Zn2_3 Zn 0.07065(4) 1.0000 0.40434(7)
Co1_3 Co 0.11685(4) 1.0000 0.81746(7)
Co2_3 Co 0.11081(5) 1.0000 0.92071(8)
O1_3 O 0.10168(15) 1.0000 0.3650(3)
C4_2 C 0.0164(2) 0.8956(4) 0.3426(4)
C5_2 C 0.0136(2) 0.8567(4) 0.3170(4)
H3_2 H 0.0292 0.8463 0.3020
C37_2 C 0.0449(2) 0.9211(4) 0.3505(5)
O8_2 O 0.0460(2) 0.9497(3) 0.3846(4)
O9_2 O 0.06338(18) 0.9120(3) 0.3254(3)
C39_3 C 0.1216(3) 1.0000 0.6537(3)
C40_3 C 0.0942(3) 1.0000 0.6220(4)
H21_3 H 0.0767 1.0000 0.6358
C41_3 C 0.0911(3) 1.0000 0.5717(4)
H22_3 H 0.0719 1.0000 0.5518
C42_3 C 0.1161(3) 1.0000 0.5501(3)
C43_3 C 0.1437(3) 1.0000 0.5808(4)
H23_3 H 0.1612 1.0000 0.5671
C44_3 C 0.1461(3) 1.0000 0.6312(4)
H24_3 H 0.1654 1.0000 0.6512
B3_3 B 0.1230(4) 1.0000 0.7115(4)
O15_3 O 0.1527(2) 1.0000 0.7371(3)
N7_3 N 0.1555(2) 1.0000 0.7855(4)
C45_3 C 0.1825(3) 1.0000 0.8069(4)
H25_3 H 0.1970 1.0000 0.7867
C46_3 C 0.1928(2) 1.0000 0.8589(4)
C47_3 C 0.1746(3) 1.0000 0.8950(4)
C48_3 C 0.1886(2) 1.0000 0.9458(4)
C49_3 C 0.2197(2) 1.0000 0.9592(5)
H26_3 H 0.2290 1.0000 0.9928
Br4_3 Br 0.27836(7) 1.0000 0.94098(15)
C50_3 C 0.23662(19) 1.0000 0.9229(4)
C51_3 C 0.2242(2) 1.0000 0.8737(4)
H27_3 H 0.2366 1.0000 0.8499
C52_3 C 0.1727(3) 1.0000 0.9861(5)
N8_3 N 0.1450(3) 1.0000 0.9820(5)
C65_3 C 0.1117(3) 1.0000 0.4948(4)
O19_3 O 0.0852(3) 1.0000 0.4734(4)
O20_3 O 0.1356(3) 1.0000 0.4779(4)
O21_3 O 0.1468(2) 1.0000 0.8830(3)
O24_2 O 0.10638(16) 0.9608(2) 0.7184(3)
N11_2 N 0.1023(2) 0.9531(3) 0.7648(3)
C67_2 C 0.0877(2) 0.9181(3) 0.7664(4)
H35_2 H 0.0820 0.9025 0.7366
C68_2 C 0.0789(2) 0.8997(3) 0.8095(3)
C69_2 C 0.0842(2) 0.9204(3) 0.8560(3)
C70_2 C 0.0745(2) 0.8994(3) 0.8962(3)
C71_2 C 0.0604(3) 0.8590(3) 0.8886(4)
H36_2 H 0.0534 0.8449 0.9147
Br6_2 Br 0.03808(7) 0.78300(7) 0.83463(8)
C72_2 C 0.0565(2) 0.8396(3) 0.8434(4)
C73_2 C 0.0650(2) 0.8590(3) 0.8042(4)
H37_2 H 0.0615 0.8448 0.7732
C74_2 C 0.0781(3) 0.9172(4) 0.9449(4)
H38_2 H 0.0703 0.9009 0.9687
N12_2 N 0.0910(3) 0.9531(3) 0.9585(3)
O26_2 O 0.09857(18) 0.9572(2) 0.8618(3)
Co5_2 Co 0.87772(4) 0.23123(6) 0.33791(7)
Co6_2 Co 0.82250(4) 0.27809(7) 0.34075(11)
C77_2 C 0.9642(2) 0.1542(4) 0.3357(4)
C78_2 C 0.9679(2) 0.1148(4) 0.3618(5)
H41_2 H 0.9526 0.1047 0.3776
C79_2 C 0.9936(2) 0.0903(4) 0.3648(5)
H42_2 H 0.9954 0.0634 0.3823
C82_2 C 0.9875(2) 0.1670(4) 0.3137(4)
H44_2 H 0.9855 0.1934 0.2953
B5_2 B 0.9346(3) 0.1818(5) 0.3350(6)
O28_2 O 0.9323(2) 0.2126(3) 0.2945(4)
N13_2 N 0.9084(3) 0.2398(4) 0.2905(5)
C83_2 C 0.9079(3) 0.2670(5) 0.2560(6)
H45_2 H 0.9238 0.2658 0.2386
C84_2 C 0.8855(3) 0.2998(4) 0.2404(5)
C85_2 C 0.8602(3) 0.3061(5) 0.2626(5)
C86_2 C 0.8401(3) 0.3404(4) 0.2444(5)
C87_2 C 0.8462(3) 0.3677(5) 0.2065(6)
H46_2 H 0.8333 0.3913 0.1951
Br7_2 Br 0.87980(14) 0.3988(2) 0.1374(2)
C88_2 C 0.8708(3) 0.3602(4) 0.1863(5)
C89_2 C 0.8900(3) 0.3264(5) 0.2013(6)
H47_2 H 0.9062 0.3210 0.1853
C90_2 C 0.8135(3) 0.3487(5) 0.2634(6)
H48_2 H 0.8013 0.3717 0.2481
N14_2 N 0.8045(3) 0.3290(5) 0.2978(6)
O29_2 O 0.7784(2) 0.3471(4) 0.3063(5)
B6_2 B 0.7656(3) 0.3272(6) 0.3448(8)
O30_2 O 0.9114(2) 0.1503(3) 0.3285(4)
N15_2 N 0.8830(2) 0.1649(4) 0.3255(5)
C91_2 C 0.8649(2) 0.1334(4) 0.3188(6)
H49_2 H 0.8728 0.1049 0.3170
C92_2 C 0.8332(2) 0.1373(4) 0.3137(5)
C93_2 C 0.8188(2) 0.1774(4) 0.3210(6)
C94_2 C 0.7870(3) 0.1779(3) 0.3122(6)
C95_2 C 0.7706(3) 0.1401(4) 0.2962(7)
H50_2 H 0.7495 0.1404 0.2902
Br8_2 Br 0.76363(7) 0.05106(9) 0.2706(2)
C96_2 C 0.7860(2) 0.1023(3) 0.2895(6)
C97_2 C 0.8162(2) 0.1005(4) 0.2977(6)
H51_2 H 0.8257 0.0738 0.2926
C98_2 C 0.7697(3) 0.2168(4) 0.3165(7)
H52_2 H 0.7487 0.2143 0.3090
N16_2 N 0.7807(3) 0.2540(4) 0.3297(7)
O31_2 O 0.7558(3) 0.2831(4) 0.3270(6)
O32_2 O 0.9380(2) 0.2042(3) 0.3818(3)
N17_2 N 0.9152(3) 0.2272(4) 0.3915(4)
C99_2 C 0.9192(3) 0.2421(5) 0.4345(5)
H53_2 H 0.9381 0.2363 0.4541
C100_2 C 0.8990(3) 0.2667(4) 0.4577(4)
C101_2 C 0.8695(3) 0.2785(5) 0.4338(5)
C102_2 C 0.8512(3) 0.3001(5) 0.4625(4)
C103_2 C 0.8612(3) 0.3087(6) 0.5129(5)
H54_2 H 0.8484 0.3219 0.5319
Br9_2 Br 0.90361(13) 0.3092(2) 0.60142(14)
C104_2 C 0.8899(3) 0.2975(5) 0.5340(3)
C105_2 C 0.9088(3) 0.2777(6) 0.5075(4)
H55_2 H 0.9287 0.2715 0.5229
C106_2 C 0.8218(3) 0.3153(5) 0.4419(6)
H56_2 H 0.8103 0.3284 0.4632
N18_2 N 0.8105(3) 0.3121(5) 0.3969(5)
O33_2 O 0.7838(3) 0.3294(4) 0.3951(6)
C107_2 C 0.7356(2) 0.3523(4) 0.3488(5)
C108_2 C 0.7083(3) 0.3437(4) 0.3181(6)
H57_2 H 0.7071 0.3217 0.2938
C109_2 C 0.6831(2) 0.3672(4) 0.3231(6)
H58_2 H 0.6648 0.3609 0.3021
C110_2 C 0.6844(2) 0.3995(4) 0.3581(5)
C111_2 C 0.7115(2) 0.4093(4) 0.3895(6)
H59_2 H 0.7128 0.4316 0.4136
C112_2 C 0.7359(2) 0.3856(5) 0.3840(6)
H60_2 H 0.7542 0.3920 0.4051
O36_2 O 0.8549(2) 0.2814(4) 0.2970(4)
O37_2 O 0.8336(2) 0.2130(3) 0.3307(5)
O38_2 O 0.8618(2) 0.2690(4) 0.3885(4)
C114_2 C 0.6572(2) 0.4252(4) 0.3646(6)
Co3_2 Co 0.87772(4) 0.76877(6) 0.33791(7)
Co4_2 Co 0.82250(4) 0.72191(7) 0.34075(11)
C1_2 C 0.9642(2) 0.8458(4) 0.3357(4)
C2_2 C 0.9679(2) 0.8852(4) 0.3618(5)
H1_2 H 0.9526 0.8953 0.3776
C3_2 C 0.9936(2) 0.9097(4) 0.3648(5)
H2_2 H 0.9954 0.9366 0.3823
C6_2 C 0.9875(2) 0.8330(4) 0.3137(4)
H4_2 H 0.9855 0.8066 0.2953
B1_2 B 0.9346(3) 0.8182(5) 0.3350(6)
O2_2 O 0.9323(2) 0.7874(3) 0.2945(4)
N1_2 N 0.9084(3) 0.7602(4) 0.2905(5)
C7_2 C 0.9079(3) 0.7330(5) 0.2560(6)
H5_2 H 0.9238 0.7342 0.2386
C8_2 C 0.8855(3) 0.7002(4) 0.2404(5)
C9_2 C 0.8602(3) 0.6939(5) 0.2626(5)
C10_2 C 0.8401(3) 0.6596(4) 0.2444(5)
C11_2 C 0.8462(3) 0.6323(5) 0.2065(6)
H6_2 H 0.8333 0.6087 0.1951
Br1_2 Br 0.87980(14) 0.6012(2) 0.1374(2)
C12_2 C 0.8708(3) 0.6398(4) 0.1863(5)
C13_2 C 0.8900(3) 0.6736(5) 0.2013(6)
H7_2 H 0.9062 0.6790 0.1853
C14_2 C 0.8135(3) 0.6513(5) 0.2634(6)
H8_2 H 0.8013 0.6283 0.2481
N2_2 N 0.8045(3) 0.6710(5) 0.2978(6)
O3_2 O 0.7784(2) 0.6529(4) 0.3063(5)
B2_2 B 0.7656(3) 0.6728(6) 0.3448(8)
O4_2 O 0.9114(2) 0.8497(3) 0.3285(4)
N3_2 N 0.8830(2) 0.8351(4) 0.3255(5)
C15_2 C 0.8649(2) 0.8666(4) 0.3188(6)
H9_2 H 0.8728 0.8951 0.3170
C16_2 C 0.8332(2) 0.8627(4) 0.3137(5)
C17_2 C 0.8188(2) 0.8226(4) 0.3210(6)
C18_2 C 0.7870(3) 0.8221(3) 0.3122(6)
C19_2 C 0.7706(3) 0.8599(4) 0.2962(7)
H10_2 H 0.7495 0.8596 0.2902
Br2_2 Br 0.76363(7) 0.94894(9) 0.2706(2)
C20_2 C 0.7860(2) 0.8977(3) 0.2895(6)
C21_2 C 0.8162(2) 0.8995(4) 0.2977(6)
H11_2 H 0.8257 0.9262 0.2926
C22_2 C 0.7697(3) 0.7832(4) 0.3165(7)
H12_2 H 0.7487 0.7857 0.3090
N4_2 N 0.7807(3) 0.7460(4) 0.3297(7)
O5_2 O 0.7558(3) 0.7169(4) 0.3270(6)
O6_2 O 0.9380(2) 0.7958(3) 0.3818(3)
N5_2 N 0.9152(3) 0.7728(4) 0.3915(4)
C23_2 C 0.9192(3) 0.7579(5) 0.4345(5)
H13_2 H 0.9381 0.7637 0.4541
C24_2 C 0.8990(3) 0.7333(4) 0.4577(4)
C25_2 C 0.8695(3) 0.7215(5) 0.4338(5)
C26_2 C 0.8512(3) 0.6999(5) 0.4625(4)
C27_2 C 0.8612(3) 0.6913(6) 0.5129(5)
H14_2 H 0.8484 0.6781 0.5319
Br3_2 Br 0.90361(13) 0.6908(2) 0.60142(14)
C28_2 C 0.8899(3) 0.7025(5) 0.5340(3)
C29_2 C 0.9088(3) 0.7223(6) 0.5075(4)
H15_2 H 0.9287 0.7285 0.5229
C30_2 C 0.8218(3) 0.6847(5) 0.4419(6)
H16_2 H 0.8103 0.6716 0.4632
N6_2 N 0.8105(3) 0.6879(5) 0.3969(5)
O7_2 O 0.7838(3) 0.6706(4) 0.3951(6)
C31_2 C 0.7356(2) 0.6477(4) 0.3488(5)
C32_2 C 0.7083(3) 0.6563(4) 0.3181(6)
H17_2 H 0.7071 0.6783 0.2938
C33_2 C 0.6831(2) 0.6328(4) 0.3231(6)
H18_2 H 0.6648 0.6391 0.3021
C34_2 C 0.6844(2) 0.6005(4) 0.3581(5)
C35_2 C 0.7115(2) 0.5907(4) 0.3895(6)
H19_2 H 0.7128 0.5684 0.4136
C36_2 C 0.7359(2) 0.6144(5) 0.3840(6)
H20_2 H 0.7542 0.6080 0.4051
O10_2 O 0.8549(2) 0.7186(4) 0.2970(4)
O11_2 O 0.8336(2) 0.7870(3) 0.3307(5)
O12_2 O 0.8618(2) 0.7310(4) 0.3885(4)
C38_2 C 0.6572(2) 0.5748(4) 0.3646(6)
Zn10_3 Zn 0.86075(4) 0.0000 0.59014(7)
Zn1 Zn 0.40241(3) 0.44866(4) 0.67446(4)
Zn2_4 Zn 0.42935(4) 0.5000 0.59566(7)
Zn3_2 Zn 0.36075(4) 0.5000 0.59014(7)
Co1_4 Co 0.38315(4) 0.5000 0.18254(7)
Co2_4 Co 0.38919(5) 0.5000 0.07929(8)
Co3_3 Co 0.62228(4) 0.26877(6) 0.66209(7)
Co4_3 Co 0.67750(4) 0.22191(7) 0.65925(11)
O1_4 O 0.39832(15) 0.5000 0.6350(3)
C1_3 C 0.5358(2) 0.3458(4) 0.6643(4)
C2_3 C 0.5321(2) 0.3852(4) 0.6382(5)
H1_3 H 0.5474 0.3953 0.6224
C3_3 C 0.5064(2) 0.4097(4) 0.6352(5)
H2_3 H 0.5046 0.4366 0.6177
C4_3 C 0.4836(2) 0.3956(4) 0.6574(4)
C5_3 C 0.4864(2) 0.3567(4) 0.6830(4)
H3_3 H 0.4708 0.3463 0.6980
C6_3 C 0.5125(2) 0.3330(4) 0.6863(4)
H4_3 H 0.5145 0.3066 0.7047
B1_3 B 0.5654(3) 0.3182(5) 0.6650(6)
O2_3 O 0.5677(2) 0.2874(3) 0.7055(4)
N1_3 N 0.5916(3) 0.2602(4) 0.7095(5)
C7_3 C 0.5921(3) 0.2330(5) 0.7440(6)
H5_3 H 0.5762 0.2342 0.7614
C8_3 C 0.6145(3) 0.2002(4) 0.7596(5)
C9_3 C 0.6398(3) 0.1939(5) 0.7374(5)
C10_3 C 0.6599(3) 0.1596(4) 0.7556(5)
C11_3 C 0.6538(3) 0.1323(5) 0.7935(6)
H6_3 H 0.6667 0.1087 0.8049
Br1_3 Br 0.62020(14) 0.1012(2) 0.8626(2)
C12_3 C 0.6292(3) 0.1398(4) 0.8137(5)
C13_3 C 0.6100(3) 0.1736(5) 0.7987(6)
H7_3 H 0.5938 0.1790 0.8147
C14_3 C 0.6865(3) 0.1513(5) 0.7366(6)
H8_3 H 0.6987 0.1283 0.7519
N2_3 N 0.6955(3) 0.1710(5) 0.7022(6)
O3_3 O 0.7216(2) 0.1529(4) 0.6937(5)
B2_3 B 0.7344(3) 0.1728(6) 0.6552(8)
O4_3 O 0.5886(2) 0.3497(3) 0.6715(4)
N3_3 N 0.6170(2) 0.3351(4) 0.6745(5)
C15_3 C 0.6351(2) 0.3666(4) 0.6812(6)
H9_3 H 0.6272 0.3951 0.6830
C16_3 C 0.6668(2) 0.3627(4) 0.6863(5)
C17_3 C 0.6812(2) 0.3226(4) 0.6790(6)
C18_3 C 0.7130(3) 0.3221(3) 0.6878(6)
C19_3 C 0.7294(3) 0.3599(4) 0.7038(7)
H10_3 H 0.7505 0.3596 0.7098
Br2_3 Br 0.73637(7) 0.44894(9) 0.7294(2)
C20_3 C 0.7140(2) 0.3977(3) 0.7105(6)
C21_3 C 0.6838(2) 0.3995(4) 0.7023(6)
H11_3 H 0.6743 0.4262 0.7074
C22_3 C 0.7303(3) 0.2832(4) 0.6835(7)
H12_3 H 0.7513 0.2857 0.6910
N4_3 N 0.7193(3) 0.2460(4) 0.6703(7)
O5_3 O 0.7442(3) 0.2169(4) 0.6730(6)
O6_3 O 0.5620(2) 0.2958(3) 0.6182(3)
N5_3 N 0.5848(3) 0.2728(4) 0.6085(4)
C23_3 C 0.5808(3) 0.2579(5) 0.5655(5)
H13_3 H 0.5619 0.2637 0.5459
C24_3 C 0.6010(3) 0.2333(4) 0.5423(4)
C25_3 C 0.6305(3) 0.2215(5) 0.5662(5)
C26_3 C 0.6488(3) 0.1999(5) 0.5375(4)
C27_3 C 0.6388(3) 0.1913(6) 0.4871(5)
H14_3 H 0.6516 0.1781 0.4681
Br3_3 Br 0.59639(13) 0.1908(2) 0.39858(14)
C28_3 C 0.6101(3) 0.2025(5) 0.4660(3)
C29_3 C 0.5912(3) 0.2223(6) 0.4925(4)
H15_3 H 0.5713 0.2285 0.4771
C30_3 C 0.6782(3) 0.1847(5) 0.5581(6)
H16_3 H 0.6897 0.1716 0.5368
N6_3 N 0.6895(3) 0.1879(5) 0.6031(5)
O7_3 O 0.7162(3) 0.1706(4) 0.6049(6)
C31_3 C 0.7644(2) 0.1477(4) 0.6512(5)
C32_3 C 0.7917(3) 0.1563(4) 0.6819(6)
H17_3 H 0.7929 0.1783 0.7062
C33_3 C 0.8169(2) 0.1328(4) 0.6769(6)
H18_3 H 0.8352 0.1391 0.6979
C34_3 C 0.8156(2) 0.1005(4) 0.6419(5)
C35_3 C 0.7885(2) 0.0907(4) 0.6105(6)
H19_3 H 0.7872 0.0684 0.5864
C36_3 C 0.7641(2) 0.1144(5) 0.6160(6)
H20_3 H 0.7458 0.1080 0.5949
C37_3 C 0.4551(2) 0.4211(4) 0.6495(5)
O8_3 O 0.4540(2) 0.4497(3) 0.6154(4)
O9_3 O 0.43662(18) 0.4120(3) 0.6746(3)
O10_3 O 0.6451(2) 0.2186(4) 0.7030(4)
O11_3 O 0.6664(2) 0.2870(3) 0.6693(5)
O12_3 O 0.6382(2) 0.2310(4) 0.6115(4)
C38_3 C 0.8428(2) 0.0748(4) 0.6354(6)
O13_2 O 0.86679(18) 0.0869(3) 0.6626(4)
O14_2 O 0.8389(2) 0.0451(4) 0.6032(5)
C39_4 C 0.3784(3) 0.5000 0.3463(3)
C40_4 C 0.4058(3) 0.5000 0.3780(4)
H21_4 H 0.4233 0.5000 0.3642
C41_4 C 0.4089(3) 0.5000 0.4283(4)
H22_4 H 0.4281 0.5000 0.4482
C42_4 C 0.3839(3) 0.5000 0.4499(3)
C43_4 C 0.3563(3) 0.5000 0.4192(4)
H23_4 H 0.3388 0.5000 0.4329
C44_4 C 0.3539(3) 0.5000 0.3688(4)
H24_4 H 0.3346 0.5000 0.3488
B3_4 B 0.3770(4) 0.5000 0.2885(4)
O15_4 O 0.3473(2) 0.5000 0.2629(3)
N7_4 N 0.3445(2) 0.5000 0.2145(4)
C45_4 C 0.3175(3) 0.5000 0.1931(4)
H25_4 H 0.3030 0.5000 0.2133
C46_4 C 0.3072(2) 0.5000 0.1411(4)
C47_4 C 0.3254(3) 0.5000 0.1050(4)
C48_4 C 0.3114(2) 0.5000 0.0542(4)
C49_4 C 0.2803(2) 0.5000 0.0408(5)
H26_4 H 0.2710 0.5000 0.0072
Br4_4 Br 0.22164(7) 0.5000 0.05902(15)
C50_4 C 0.26338(19) 0.5000 0.0771(4)
C51_4 C 0.2758(2) 0.5000 0.1263(4)
H27_4 H 0.2634 0.5000 0.1501
C52_4 C 0.3273(3) 0.5000 0.0139(5)
N8_4 N 0.3550(3) 0.5000 0.0180(5)
O17_3 O 0.39362(16) 0.5392(2) 0.2816(3)
N9_3 N 0.3977(2) 0.5469(3) 0.2352(3)
C53_3 C 0.4123(2) 0.5819(3) 0.2336(4)
H29_3 H 0.4180 0.5975 0.2634
C54_3 C 0.4211(2) 0.6003(3) 0.1905(3)
C55_3 C 0.4158(2) 0.5796(3) 0.1440(3)
C56_3 C 0.4255(2) 0.6006(3) 0.1038(3)
C57_3 C 0.4396(3) 0.6410(3) 0.1114(4)
H30_3 H 0.4466 0.6551 0.0853
Br5_3 Br 0.46192(7) 0.71700(7) 0.16537(8)
C58_3 C 0.4435(2) 0.6604(3) 0.1566(4)
C59_3 C 0.4350(2) 0.6410(3) 0.1958(4)
H31_3 H 0.4385 0.6552 0.2268
C60_3 C 0.4219(3) 0.5828(4) 0.0551(4)
H32_3 H 0.4297 0.5991 0.0313
N10_3 N 0.4090(3) 0.5469(3) 0.0415(3)
C65_4 C 0.3883(3) 0.5000 0.5052(4)
O19_4 O 0.4148(3) 0.5000 0.5266(4)
O20_4 O 0.3644(3) 0.5000 0.5221(4)
O21_4 O 0.3532(2) 0.5000 0.1170(3)
O22_3 O 0.40143(18) 0.5428(2) 0.1382(3)
O24_3 O 0.39362(16) 0.4608(2) 0.2816(3)
N11_3 N 0.3977(2) 0.4531(3) 0.2352(3)
C67_3 C 0.4123(2) 0.4181(3) 0.2336(4)
H35_3 H 0.4180 0.4025 0.2634
C68_3 C 0.4211(2) 0.3997(3) 0.1905(3)
C69_3 C 0.4158(2) 0.4204(3) 0.1440(3)
C70_3 C 0.4255(2) 0.3994(3) 0.1038(3)
C71_3 C 0.4396(3) 0.3590(3) 0.1114(4)
H36_3 H 0.4466 0.3449 0.0853
Br6_3 Br 0.46192(7) 0.28300(7) 0.16537(8)
C72_3 C 0.4435(2) 0.3396(3) 0.1566(4)
C73_3 C 0.4350(2) 0.3590(3) 0.1958(4)
H37_3 H 0.4385 0.3448 0.2268
C74_3 C 0.4219(3) 0.4172(4) 0.0551(4)
H38_3 H 0.4297 0.4009 0.0313
N12_3 N 0.4090(3) 0.4531(3) 0.0415(3)
O26_3 O 0.40143(18) 0.4572(2) 0.1382(3)
Zn4 Zn 0.40241(3) 0.55134(4) 0.67446(4)
Co5_3 Co 0.62228(4) 0.73123(6) 0.66209(7)
Co6_3 Co 0.67750(4) 0.77809(7) 0.65925(11)
C77_3 C 0.5358(2) 0.6542(4) 0.6643(4)
C78_3 C 0.5321(2) 0.6148(4) 0.6382(5)
H41_3 H 0.5474 0.6047 0.6224
C79_3 C 0.5064(2) 0.5903(4) 0.6352(5)
H42_3 H 0.5046 0.5634 0.6177
C80_3 C 0.4836(2) 0.6044(4) 0.6574(4)
C81_3 C 0.4864(2) 0.6433(4) 0.6830(4)
H43_3 H 0.4708 0.6537 0.6980
C82_3 C 0.5125(2) 0.6670(4) 0.6863(4)
H44_3 H 0.5145 0.6934 0.7047
B5_3 B 0.5654(3) 0.6818(5) 0.6650(6)
O28_3 O 0.5677(2) 0.7126(3) 0.7055(4)
N13_3 N 0.5916(3) 0.7398(4) 0.7095(5)
C83_3 C 0.5921(3) 0.7670(5) 0.7440(6)
H45_3 H 0.5762 0.7658 0.7614
C84_3 C 0.6145(3) 0.7998(4) 0.7596(5)
C85_3 C 0.6398(3) 0.8061(5) 0.7374(5)
C86_3 C 0.6599(3) 0.8404(4) 0.7556(5)
C87_3 C 0.6538(3) 0.8677(5) 0.7935(6)
H46_3 H 0.6667 0.8913 0.8049
Br7_3 Br 0.62020(14) 0.8988(2) 0.8626(2)
C88_3 C 0.6292(3) 0.8602(4) 0.8137(5)
C89_3 C 0.6100(3) 0.8264(5) 0.7987(6)
H47_3 H 0.5938 0.8210 0.8147
C90_3 C 0.6865(3) 0.8487(5) 0.7366(6)
H48_3 H 0.6987 0.8717 0.7519
N14_3 N 0.6955(3) 0.8290(5) 0.7022(6)
O29_3 O 0.7216(2) 0.8471(4) 0.6937(5)
B6_3 B 0.7344(3) 0.8272(6) 0.6552(8)
O30_3 O 0.5886(2) 0.6503(3) 0.6715(4)
N15_3 N 0.6170(2) 0.6649(4) 0.6745(5)
C91_3 C 0.6351(2) 0.6334(4) 0.6812(6)
H49_3 H 0.6272 0.6049 0.6830
C92_3 C 0.6668(2) 0.6373(4) 0.6863(5)
C93_3 C 0.6812(2) 0.6774(4) 0.6790(6)
C94_3 C 0.7130(3) 0.6779(3) 0.6878(6)
C95_3 C 0.7294(3) 0.6401(4) 0.7038(7)
H50_3 H 0.7505 0.6404 0.7098
Br8_3 Br 0.73637(7) 0.55106(9) 0.7294(2)
C96_3 C 0.7140(2) 0.6023(3) 0.7105(6)
C97_3 C 0.6838(2) 0.6005(4) 0.7023(6)
H51_3 H 0.6743 0.5738 0.7074
C98_3 C 0.7303(3) 0.7168(4) 0.6835(7)
H52_3 H 0.7513 0.7143 0.6910
N16_3 N 0.7193(3) 0.7540(4) 0.6703(7)
O31_3 O 0.7442(3) 0.7831(4) 0.6730(6)
O32_3 O 0.5620(2) 0.7042(3) 0.6182(3)
N17_3 N 0.5848(3) 0.7272(4) 0.6085(4)
C99_3 C 0.5808(3) 0.7421(5) 0.5655(5)
H53_3 H 0.5619 0.7363 0.5459
C100_3 C 0.6010(3) 0.7667(4) 0.5423(4)
C101_3 C 0.6305(3) 0.7785(5) 0.5662(5)
C102_3 C 0.6488(3) 0.8001(5) 0.5375(4)
C103_3 C 0.6388(3) 0.8087(6) 0.4871(5)
H54_3 H 0.6516 0.8219 0.4681
Br9_3 Br 0.59639(13) 0.8092(2) 0.39858(14)
C104_3 C 0.6101(3) 0.7975(5) 0.4660(3)
C105_3 C 0.5912(3) 0.7777(6) 0.4925(4)
H55_3 H 0.5713 0.7715 0.4771
C106_3 C 0.6782(3) 0.8153(5) 0.5581(6)
H56_3 H 0.6897 0.8284 0.5368
N18_3 N 0.6895(3) 0.8121(5) 0.6031(5)
O33_3 O 0.7162(3) 0.8294(4) 0.6049(6)
C107_3 C 0.7644(2) 0.8523(4) 0.6512(5)
C108_3 C 0.7917(3) 0.8437(4) 0.6819(6)
H57_3 H 0.7929 0.8217 0.7062
C109_3 C 0.8169(2) 0.8672(4) 0.6769(6)
H58_3 H 0.8352 0.8609 0.6979
C110_3 C 0.8156(2) 0.8995(4) 0.6419(5)
C111_3 C 0.7885(2) 0.9093(4) 0.6105(6)
H59_3 H 0.7872 0.9316 0.5864
C112_3 C 0.7641(2) 0.8856(5) 0.6160(6)
H60_3 H 0.7458 0.8920 0.5949
C113_3 C 0.4551(2) 0.5789(4) 0.6495(5)
O34_3 O 0.4540(2) 0.5503(3) 0.6154(4)
O35_3 O 0.43662(18) 0.5880(3) 0.6746(3)
O36_3 O 0.6451(2) 0.7814(4) 0.7030(4)
O37_3 O 0.6664(2) 0.7130(3) 0.6693(5)
O38_3 O 0.6382(2) 0.7690(4) 0.6115(4)
C114_3 C 0.8428(2) 0.9252(4) 0.6354(6)
O39_2 O 0.86679(18) 0.9131(3) 0.6626(4)
O40_2 O 0.8389(2) 0.9549(4) 0.6032(5)
Zn6_2 Zn 0.90241(3) 0.94866(4) 0.67446(4)
Zn8_2 Zn 0.90241(3) 0.05134(4) 0.67446(4)
Zn10_4 Zn 0.86075(4) 1.0000 0.59014(7)
O41_2 O 0.36679(18) 0.5869(3) 0.6626(4)
O42_2 O 0.36679(18) 0.4131(3) 0.6626(4)
O43_2 O 0.3389(2) 0.5451(4) 0.6032(5)
O44_2 O 0.3389(2) 0.4549(4) 0.6032(5)
O45 O 0.4066(2) 0.5369(3) 0.7421(3)
O46 O 0.4066(2) 0.4631(3) 0.7421(3)
H28_4 H 0.3158 0.5000 0.9817
O16_4 O 0.3625(3) 0.5000 0.9725(4)
B4_4 B 0.3940(5) 0.5000 0.9722(5)
O18_3 O 0.4091(2) 0.5398(3) 0.9918(3)
C61_4 C 0.3978(5) 0.5000 0.9163(5)
C62_3 C 0.4006(3) 0.5370(4) 0.8892(4)
H33_3 H 0.3997 0.5644 0.9048
C63_3 C 0.4046(3) 0.5376(4) 0.8419(4)
H34_3 H 0.4067 0.5649 0.8266
C64_4 C 0.4058(5) 0.5000 0.8158(5)
C66_4 C 0.4065(5) 0.5000 0.7616(5)
O25_3 O 0.4091(2) 0.4602(3) 0.9918(3)
C75_3 C 0.4006(3) 0.4630(4) 0.8892(4)
H39_3 H 0.3997 0.4356 0.9048
C76_3 C 0.4046(3) 0.4624(4) 0.8419(4)
H40_3 H 0.4067 0.4351 0.8266
Co5_4 Co 0.12228(4) 0.23123(6) 0.66209(7)
Co6_4 Co 0.17750(4) 0.27809(7) 0.65925(11)
C77_4 C 0.0358(2) 0.1542(4) 0.6643(4)
C78_4 C 0.0321(2) 0.1148(4) 0.6382(5)
H41_4 H 0.0474 0.1047 0.6224
C79_4 C 0.0064(2) 0.0903(4) 0.6352(5)
H42_4 H 0.0046 0.0634 0.6177
C82_4 C 0.0125(2) 0.1670(4) 0.6863(4)
H44_4 H 0.0145 0.1934 0.7047
B5_4 B 0.0654(3) 0.1818(5) 0.6650(6)
O28_4 O 0.0677(2) 0.2126(3) 0.7055(4)
N13_4 N 0.0916(3) 0.2398(4) 0.7095(5)
C83_4 C 0.0921(3) 0.2670(5) 0.7440(6)
H45_4 H 0.0762 0.2658 0.7614
C84_4 C 0.1145(3) 0.2998(4) 0.7596(5)
C85_4 C 0.1398(3) 0.3061(5) 0.7374(5)
C86_4 C 0.1599(3) 0.3404(4) 0.7556(5)
C87_4 C 0.1538(3) 0.3677(5) 0.7935(6)
H46_4 H 0.1667 0.3913 0.8049
Br7_4 Br 0.12020(14) 0.3988(2) 0.8626(2)
C88_4 C 0.1292(3) 0.3602(4) 0.8137(5)
C89_4 C 0.1100(3) 0.3264(5) 0.7987(6)
H47_4 H 0.0938 0.3210 0.8147
C90_4 C 0.1865(3) 0.3487(5) 0.7366(6)
H48_4 H 0.1987 0.3717 0.7519
N14_4 N 0.1955(3) 0.3290(5) 0.7022(6)
O29_4 O 0.2216(2) 0.3471(4) 0.6937(5)
B6_4 B 0.2344(3) 0.3272(6) 0.6552(8)
O30_4 O 0.0886(2) 0.1503(3) 0.6715(4)
N15_4 N 0.1170(2) 0.1649(4) 0.6745(5)
C91_4 C 0.1351(2) 0.1334(4) 0.6812(6)
H49_4 H 0.1272 0.1049 0.6830
C92_4 C 0.1668(2) 0.1373(4) 0.6863(5)
C93_4 C 0.1812(2) 0.1774(4) 0.6790(6)
C94_4 C 0.2130(3) 0.1779(3) 0.6878(6)
C95_4 C 0.2294(3) 0.1401(4) 0.7038(7)
H50_4 H 0.2505 0.1404 0.7098
Br8_4 Br 0.23637(7) 0.05106(9) 0.7294(2)
C96_4 C 0.2140(2) 0.1023(3) 0.7105(6)
C97_4 C 0.1838(2) 0.1005(4) 0.7023(6)
H51_4 H 0.1743 0.0738 0.7074
C98_4 C 0.2303(3) 0.2168(4) 0.6835(7)
H52_4 H 0.2513 0.2143 0.6910
N16_4 N 0.2193(3) 0.2540(4) 0.6703(7)
O31_4 O 0.2442(3) 0.2831(4) 0.6730(6)
O32_4 O 0.0620(2) 0.2042(3) 0.6182(3)
N17_4 N 0.0848(3) 0.2272(4) 0.6085(4)
C99_4 C 0.0808(3) 0.2421(5) 0.5655(5)
H53_4 H 0.0619 0.2363 0.5459
C100_4 C 0.1010(3) 0.2667(4) 0.5423(4)
C101_4 C 0.1305(3) 0.2785(5) 0.5662(5)
C102_4 C 0.1488(3) 0.3001(5) 0.5375(4)
C103_4 C 0.1388(3) 0.3087(6) 0.4871(5)
H54_4 H 0.1516 0.3219 0.4681
Br9_4 Br 0.09639(13) 0.3092(2) 0.39858(14)
C104_4 C 0.1101(3) 0.2975(5) 0.4660(3)
C105_4 C 0.0912(3) 0.2777(6) 0.4925(4)
H55_4 H 0.0713 0.2715 0.4771
C106_4 C 0.1782(3) 0.3153(5) 0.5581(6)
H56_4 H 0.1897 0.3284 0.5368
N18_4 N 0.1895(3) 0.3121(5) 0.6031(5)
O33_4 O 0.2162(3) 0.3294(4) 0.6049(6)
C107_4 C 0.2644(2) 0.3523(4) 0.6512(5)
C108_4 C 0.2917(3) 0.3437(4) 0.6819(6)
H57_4 H 0.2929 0.3217 0.7062
C109_4 C 0.3169(2) 0.3672(4) 0.6769(6)
H58_4 H 0.3352 0.3609 0.6979
C110_4 C 0.3156(2) 0.3995(4) 0.6419(5)
C111_4 C 0.2885(2) 0.4093(4) 0.6105(6)
H59_4 H 0.2872 0.4316 0.5864
C112_4 C 0.2641(2) 0.3856(5) 0.6160(6)
H60_4 H 0.2458 0.3920 0.5949
O36_4 O 0.1451(2) 0.2814(4) 0.7030(4)
O37_4 O 0.1664(2) 0.2130(3) 0.6693(5)
O38_4 O 0.1382(2) 0.2690(4) 0.6115(4)
C114_4 C 0.3428(2) 0.4252(4) 0.6354(6)
Co3_4 Co 0.12228(4) 0.76877(6) 0.66209(7)
Co4_4 Co 0.17750(4) 0.72191(7) 0.65925(11)
C1_4 C 0.0358(2) 0.8458(4) 0.6643(4)
C2_4 C 0.0321(2) 0.8852(4) 0.6382(5)
H1_4 H 0.0474 0.8953 0.6224
C3_4 C 0.0064(2) 0.9097(4) 0.6352(5)
H2_4 H 0.0046 0.9366 0.6177
C6_4 C 0.0125(2) 0.8330(4) 0.6863(4)
H4_4 H 0.0145 0.8066 0.7047
B1_4 B 0.0654(3) 0.8182(5) 0.6650(6)
O2_4 O 0.0677(2) 0.7874(3) 0.7055(4)
N1_4 N 0.0916(3) 0.7602(4) 0.7095(5)
C7_4 C 0.0921(3) 0.7330(5) 0.7440(6)
H5_4 H 0.0762 0.7342 0.7614
C8_4 C 0.1145(3) 0.7002(4) 0.7596(5)
C9_4 C 0.1398(3) 0.6939(5) 0.7374(5)
C10_4 C 0.1599(3) 0.6596(4) 0.7556(5)
C11_4 C 0.1538(3) 0.6323(5) 0.7935(6)
H6_4 H 0.1667 0.6087 0.8049
Br1_4 Br 0.12020(14) 0.6012(2) 0.8626(2)
C12_4 C 0.1292(3) 0.6398(4) 0.8137(5)
C13_4 C 0.1100(3) 0.6736(5) 0.7987(6)
H7_4 H 0.0938 0.6790 0.8147
C14_4 C 0.1865(3) 0.6513(5) 0.7366(6)
H8_4 H 0.1987 0.6283 0.7519
N2_4 N 0.1955(3) 0.6710(5) 0.7022(6)
O3_4 O 0.2216(2) 0.6529(4) 0.6937(5)
B2_4 B 0.2344(3) 0.6728(6) 0.6552(8)
O4_4 O 0.0886(2) 0.8497(3) 0.6715(4)
N3_4 N 0.1170(2) 0.8351(4) 0.6745(5)
C15_4 C 0.1351(2) 0.8666(4) 0.6812(6)
H9_4 H 0.1272 0.8951 0.6830
C16_4 C 0.1668(2) 0.8627(4) 0.6863(5)
C17_4 C 0.1812(2) 0.8226(4) 0.6790(6)
C18_4 C 0.2130(3) 0.8221(3) 0.6878(6)
C19_4 C 0.2294(3) 0.8599(4) 0.7038(7)
H10_4 H 0.2505 0.8596 0.7098
Br2_4 Br 0.23637(7) 0.94894(9) 0.7294(2)
C20_4 C 0.2140(2) 0.8977(3) 0.7105(6)
C21_4 C 0.1838(2) 0.8995(4) 0.7023(6)
H11_4 H 0.1743 0.9262 0.7074
C22_4 C 0.2303(3) 0.7832(4) 0.6835(7)
H12_4 H 0.2513 0.7857 0.6910
N4_4 N 0.2193(3) 0.7460(4) 0.6703(7)
O5_4 O 0.2442(3) 0.7169(4) 0.6730(6)
O6_4 O 0.0620(2) 0.7958(3) 0.6182(3)
N5_4 N 0.0848(3) 0.7728(4) 0.6085(4)
C23_4 C 0.0808(3) 0.7579(5) 0.5655(5)
H13_4 H 0.0619 0.7637 0.5459
C24_4 C 0.1010(3) 0.7333(4) 0.5423(4)
C25_4 C 0.1305(3) 0.7215(5) 0.5662(5)
C26_4 C 0.1488(3) 0.6999(5) 0.5375(4)
C27_4 C 0.1388(3) 0.6913(6) 0.4871(5)
H14_4 H 0.1516 0.6781 0.4681
Br3_4 Br 0.09639(13) 0.6908(2) 0.39858(14)
C28_4 C 0.1101(3) 0.7025(5) 0.4660(3)
C29_4 C 0.0912(3) 0.7223(6) 0.4925(4)
H15_4 H 0.0713 0.7285 0.4771
C30_4 C 0.1782(3) 0.6847(5) 0.5581(6)
H16_4 H 0.1897 0.6716 0.5368
N6_4 N 0.1895(3) 0.6879(5) 0.6031(5)
O7_4 O 0.2162(3) 0.6706(4) 0.6049(6)
C31_4 C 0.2644(2) 0.6477(4) 0.6512(5)
C32_4 C 0.2917(3) 0.6563(4) 0.6819(6)
H17_4 H 0.2929 0.6783 0.7062
C33_4 C 0.3169(2) 0.6328(4) 0.6769(6)
H18_4 H 0.3352 0.6391 0.6979
C34_4 C 0.3156(2) 0.6005(4) 0.6419(5)
C35_4 C 0.2885(2) 0.5907(4) 0.6105(6)
H19_4 H 0.2872 0.5684 0.5864
C36_4 C 0.2641(2) 0.6144(5) 0.6160(6)
H20_4 H 0.2458 0.6080 0.5949
O10_4 O 0.1451(2) 0.7186(4) 0.7030(4)
O11_4 O 0.1664(2) 0.7870(3) 0.6693(5)
O12_4 O 0.1382(2) 0.7310(4) 0.6115(4)
C38_4 C 0.3428(2) 0.5748(4) 0.6354(6)
Zn2_5 Zn 0.92935(4) 0.0000 0.59566(7)
Co1_5 Co 0.88315(4) -0.0000 0.18254(7)
Co2_5 Co 0.88919(5) -0.0000 0.07929(8)
O1_5 O 0.89832(15) 0.0000 0.6350(3)
C39_5 C 0.8784(3) -0.0000 0.3463(3)
C40_5 C 0.9058(3) -0.0000 0.3780(4)
H21_5 H 0.9233 -0.0000 0.3642
C41_5 C 0.9089(3) -0.0000 0.4283(4)
H22_5 H 0.9281 -0.0000 0.4482
C42_5 C 0.8839(3) -0.0000 0.4499(3)
C43_5 C 0.8563(3) -0.0000 0.4192(4)
H23_5 H 0.8388 -0.0000 0.4329
C44_5 C 0.8539(3) -0.0000 0.3688(4)
H24_5 H 0.8346 -0.0000 0.3488
B3_5 B 0.8770(4) -0.0000 0.2885(4)
O15_5 O 0.8473(2) -0.0000 0.2629(3)
N7_5 N 0.8445(2) -0.0000 0.2145(4)
C45_5 C 0.8175(3) -0.0000 0.1931(4)
H25_5 H 0.8030 -0.0000 0.2133
C46_5 C 0.8072(2) -0.0000 0.1411(4)
C47_5 C 0.8254(3) -0.0000 0.1050(4)
C48_5 C 0.8114(2) -0.0000 0.0542(4)
C49_5 C 0.7803(2) -0.0000 0.0408(5)
H26_5 H 0.7710 -0.0000 0.0072
Br4_5 Br 0.72164(7) -0.0000 0.05902(15)
C50_5 C 0.76338(19) -0.0000 0.0771(4)
C51_5 C 0.7758(2) -0.0000 0.1263(4)
H27_5 H 0.7634 -0.0000 0.1501
C52_5 C 0.8273(3) -0.0000 0.0139(5)
N8_5 N 0.8550(3) -0.0000 0.0180(5)
O17_4 O 0.89362(16) 0.0392(2) 0.2816(3)
N9_4 N 0.8977(2) 0.0469(3) 0.2352(3)
C53_4 C 0.9123(2) 0.0819(3) 0.2336(4)
H29_4 H 0.9180 0.0975 0.2634
C54_4 C 0.9211(2) 0.1003(3) 0.1905(3)
C55_4 C 0.9158(2) 0.0796(3) 0.1440(3)
C56_4 C 0.9255(2) 0.1006(3) 0.1038(3)
C57_4 C 0.9396(3) 0.1410(3) 0.1114(4)
H30_4 H 0.9466 0.1551 0.0853
Br5_4 Br 0.96192(7) 0.21700(7) 0.16537(8)
C58_4 C 0.9435(2) 0.1604(3) 0.1566(4)
C59_4 C 0.9350(2) 0.1410(3) 0.1958(4)
H31_4 H 0.9385 0.1552 0.2268
C60_4 C 0.9219(3) 0.0828(4) 0.0551(4)
H32_4 H 0.9297 0.0991 0.0313
N10_4 N 0.9090(3) 0.0469(3) 0.0415(3)
C65_5 C 0.8883(3) -0.0000 0.5052(4)
O19_5 O 0.9148(3) -0.0000 0.5266(4)
O20_5 O 0.8644(3) -0.0000 0.5221(4)
O21_5 O 0.8532(2) -0.0000 0.1170(3)
O22_4 O 0.90143(18) 0.0428(2) 0.1382(3)
C80_4 C 0.9836(2) 0.1044(4) 0.6574(4)
C81_4 C 0.9864(2) 0.1433(4) 0.6830(4)
H43_4 H 0.9708 0.1537 0.6980
C113_4 C 0.9551(2) 0.0789(4) 0.6495(5)
O34_4 O 0.9540(2) 0.0503(3) 0.6154(4)
O35_4 O 0.93662(18) 0.0880(3) 0.6746(3)
O45_2 O 0.9066(2) 0.0369(3) 0.7421(3)
H28_5 H 0.8158 -0.0000 0.9817
O16_5 O 0.8625(3) -0.0000 0.9725(4)
B4_5 B 0.8940(5) -0.0000 0.9722(5)
O18_4 O 0.9091(2) 0.0398(3) 0.9918(3)
C61_5 C 0.8978(5) -0.0000 0.9163(5)
C62_4 C 0.9006(3) 0.0370(4) 0.8892(4)
H33_4 H 0.8997 0.0644 0.9048
C63_4 C 0.9046(3) 0.0376(4) 0.8419(4)
H34_4 H 0.9067 0.0649 0.8266
C64_5 C 0.9058(5) -0.0000 0.8158(5)
C66_5 C 0.9065(5) -0.0000 0.7616(5)
Zn2_6 Zn 0.92935(4) 1.0000 0.59566(7)
Co1_6 Co 0.88315(4) 1.0000 0.18254(7)
Co2_6 Co 0.88919(5) 1.0000 0.07929(8)
O1_6 O 0.89832(15) 1.0000 0.6350(3)
C4_4 C 0.9836(2) 0.8956(4) 0.6574(4)
C5_4 C 0.9864(2) 0.8567(4) 0.6830(4)
H3_4 H 0.9708 0.8463 0.6980
C37_4 C 0.9551(2) 0.9211(4) 0.6495(5)
O8_4 O 0.9540(2) 0.9497(3) 0.6154(4)
O9_4 O 0.93662(18) 0.9120(3) 0.6746(3)
C39_6 C 0.8784(3) 1.0000 0.3463(3)
C40_6 C 0.9058(3) 1.0000 0.3780(4)
H21_6 H 0.9233 1.0000 0.3642
C41_6 C 0.9089(3) 1.0000 0.4283(4)
H22_6 H 0.9281 1.0000 0.4482
C42_6 C 0.8839(3) 1.0000 0.4499(3)
C43_6 C 0.8563(3) 1.0000 0.4192(4)
H23_6 H 0.8388 1.0000 0.4329
C44_6 C 0.8539(3) 1.0000 0.3688(4)
H24_6 H 0.8346 1.0000 0.3488
B3_6 B 0.8770(4) 1.0000 0.2885(4)
O15_6 O 0.8473(2) 1.0000 0.2629(3)
N7_6 N 0.8445(2) 1.0000 0.2145(4)
C45_6 C 0.8175(3) 1.0000 0.1931(4)
H25_6 H 0.8030 1.0000 0.2133
C46_6 C 0.8072(2) 1.0000 0.1411(4)
C47_6 C 0.8254(3) 1.0000 0.1050(4)
C48_6 C 0.8114(2) 1.0000 0.0542(4)
C49_6 C 0.7803(2) 1.0000 0.0408(5)
H26_6 H 0.7710 1.0000 0.0072
Br4_6 Br 0.72164(7) 1.0000 0.05902(15)
C50_6 C 0.76338(19) 1.0000 0.0771(4)
C51_6 C 0.7758(2) 1.0000 0.1263(4)
H27_6 H 0.7634 1.0000 0.1501
C52_6 C 0.8273(3) 1.0000 0.0139(5)
N8_6 N 0.8550(3) 1.0000 0.0180(5)
C65_6 C 0.8883(3) 1.0000 0.5052(4)
O19_6 O 0.9148(3) 1.0000 0.5266(4)
O20_6 O 0.8644(3) 1.0000 0.5221(4)
O21_6 O 0.8532(2) 1.0000 0.1170(3)
O24_4 O 0.89362(16) 0.9608(2) 0.2816(3)
N11_4 N 0.8977(2) 0.9531(3) 0.2352(3)
C67_4 C 0.9123(2) 0.9181(3) 0.2336(4)
H35_4 H 0.9180 0.9025 0.2634
C68_4 C 0.9211(2) 0.8997(3) 0.1905(3)
C69_4 C 0.9158(2) 0.9204(3) 0.1440(3)
C70_4 C 0.9255(2) 0.8994(3) 0.1038(3)
C71_4 C 0.9396(3) 0.8590(3) 0.1114(4)
H36_4 H 0.9466 0.8449 0.0853
Br6_4 Br 0.96192(7) 0.78300(7) 0.16537(8)
C72_4 C 0.9435(2) 0.8396(3) 0.1566(4)
C73_4 C 0.9350(2) 0.8590(3) 0.1958(4)
H37_4 H 0.9385 0.8448 0.2268
C74_4 C 0.9219(3) 0.9172(4) 0.0551(4)
H38_4 H 0.9297 0.9009 0.0313
N12_4 N 0.9090(3) 0.9531(3) 0.0415(3)
O26_4 O 0.90143(18) 0.9572(2) 0.1382(3)
O46_2 O 0.9066(2) 0.9631(3) 0.7421(3)
H28_6 H 0.8158 1.0000 0.9817
O16_6 O 0.8625(3) 1.0000 0.9725(4)
B4_6 B 0.8940(5) 1.0000 0.9722(5)
C61_6 C 0.8978(5) 1.0000 0.9163(5)
C64_6 C 0.9058(5) 1.0000 0.8158(5)
C66_6 C 0.9065(5) 1.0000 0.7616(5)
O25_4 O 0.9091(2) 0.9602(3) 0.9918(3)
C75_4 C 0.9006(3) 0.9630(4) 0.8892(4)
H39_4 H 0.8997 0.9356 0.9048
C76_4 C 0.9046(3) 0.9624(4) 0.8419(4)
H40_4 H 0.9067 0.9351 0.8266
loop_
_geom_bond_atom_site_label_1
_geom_bond_atom_site_label_2
_geom_bond_site_symmetry_1
_geom_bond_site_symmetry_2
B4 O16 1_555 1_555
O18 B4 1_555 1_555
C61 B4 1_555 1_555
C62 C61 1_555 1_555
H33 C62 1_555 1_555
C63 C62 1_555 1_555
H34 C63 1_555 1_555
C64 C63 1_555 1_555
C66 C64 1_555 1_555
O23 C66 1_555 1_555
O25 B4 1_555 1_555
C75 C61 1_555 1_555
H39 C75 1_555 1_555
C76 C64 1_555 1_555
H40 C76 1_555 1_555
O27 C66 1_555 1_555
Zn5 O27 1_555 1_555
Zn7 O23 1_555 1_555
C75 C76 1_555 1_555
Zn5 O1 1_555 1_555
Zn2 O1 1_555 1_555
Zn3 O1 1_555 1_555
Co1 N7 1_555 1_555
Co2 N8 1_555 1_555
Co3 N1 1_555 1_555
Co4 N2 1_555 1_555
O1 Zn7 1_555 1_555
C1 C2 1_555 1_555
C2 H1 1_555 1_555
C3 C2 1_555 1_555
H2 C3 1_555 1_555
C4 C3 1_555 1_555
C5 C4 1_555 1_555
H3 C5 1_555 1_555
C6 C1 1_555 1_555
H4 C6 1_555 1_555
B1 C1 1_555 1_555
O2 B1 1_555 1_555
N1 O2 1_555 1_555
C7 N1 1_555 1_555
H5 C7 1_555 1_555
C8 C7 1_555 1_555
C9 C8 1_555 1_555
C10 C9 1_555 1_555
C11 C10 1_555 1_555
H6 C11 1_555 1_555
Br1 C12 1_555 1_555
C12 C11 1_555 1_555
C13 C8 1_555 1_555
H7 C13 1_555 1_555
C14 C10 1_555 1_555
H8 C14 1_555 1_555
N2 C14 1_555 1_555
O3 N2 1_555 1_555
B2 O3 1_555 1_555
O4 B1 1_555 1_555
N3 Co3 1_555 1_555
C15 N3 1_555 1_555
H9 C15 1_555 1_555
C16 C15 1_555 1_555
C17 C16 1_555 1_555
C18 C17 1_555 1_555
C19 C18 1_555 1_555
H10 C19 1_555 1_555
Br2 C20 1_555 1_555
C20 C19 1_555 1_555
C21 C16 1_555 1_555
H11 C21 1_555 1_555
C22 C18 1_555 1_555
H12 C22 1_555 1_555
N4 Co4 1_555 1_555
O5 B2 1_555 1_555
O6 B1 1_555 1_555
N5 Co3 1_555 1_555
C23 N5 1_555 1_555
H13 C23 1_555 1_555
C24 C23 1_555 1_555
C25 C24 1_555 1_555
C26 C25 1_555 1_555
C27 C26 1_555 1_555
H14 C27 1_555 1_555
Br3 C28 1_555 1_555
C28 C27 1_555 1_555
C29 C24 1_555 1_555
H15 C29 1_555 1_555
C30 C26 1_555 1_555
H16 C30 1_555 1_555
N6 Co4 1_555 1_555
O7 B2 1_555 1_555
C31 B2 1_555 1_555
C32 C31 1_555 1_555
H17 C32 1_555 1_555
C33 C32 1_555 1_555
H18 C33 1_555 1_555
C34 C33 1_555 1_555
C35 C34 1_555 1_555
H19 C35 1_555 1_555
C36 C31 1_555 1_555
H20 C36 1_555 1_555
C37 C4 1_555 1_555
O8 Zn2 1_555 1_555
O9 Zn5 1_555 1_555
O10 Co3 1_555 1_555
O11 Co3 1_555 1_555
O12 Co3 1_555 1_555
C38 C34 1_555 1_555
O13 C38 1_555 1_555
O14 C38 1_555 1_555
C39 C40 1_555 1_555
C40 H21 1_555 1_555
C41 C40 1_555 1_555
H22 C41 1_555 1_555
C42 C41 1_555 1_555
C43 C42 1_555 1_555
H23 C43 1_555 1_555
C44 C39 1_555 1_555
H24 C44 1_555 1_555
B3 C39 1_555 1_555
O15 B3 1_555 1_555
N7 O15 1_555 1_555
C45 N7 1_555 1_555
H25 C45 1_555 1_555
C46 C45 1_555 1_555
C47 C46 1_555 1_555
C48 C47 1_555 1_555
C49 C48 1_555 1_555
H26 C49 1_555 1_555
Br4 C50 1_555 1_555
C50 C49 1_555 1_555
C51 C46 1_555 1_555
H27 C51 1_555 1_555
C52 C48 1_555 1_555
N8 C52 1_555 1_555
O17 B3 1_555 1_555
N9 Co1 1_555 1_555
C53 N9 1_555 1_555
H29 C53 1_555 1_555
C54 C53 1_555 1_555
C55 C54 1_555 1_555
C56 C55 1_555 1_555
C57 C56 1_555 1_555
H30 C57 1_555 1_555
Br5 C58 1_555 1_555
C58 C57 1_555 1_555
C59 C54 1_555 1_555
H31 C59 1_555 1_555
C60 C56 1_555 1_555
H32 C60 1_555 1_555
N10 Co2 1_555 1_555
C65 C42 1_555 1_555
O19 Zn2 1_555 1_555
O20 Zn3 1_555 1_555
O21 Co1 1_555 1_555
O22 Co1 1_555 1_555
O24 B3 1_555 1_555
N11 Co1 1_555 1_555
C67 N11 1_555 1_555
H35 C67 1_555 1_555
C68 C67 1_555 1_555
C69 C68 1_555 1_555
C70 C69 1_555 1_555
C71 C70 1_555 1_555
H36 C71 1_555 1_555
Br6 C72 1_555 1_555
C72 C71 1_555 1_555
C73 C68 1_555 1_555
H37 C73 1_555 1_555
C74 C70 1_555 1_555
H38 C74 1_555 1_555
N12 Co2 1_555 1_555
O26 Co1 1_555 1_555
Zn7 O35 1_555 1_555
Co5 N13 1_555 1_555
Co6 N14 1_555 1_555
C77 C78 1_555 1_555
C78 H41 1_555 1_555
C79 C78 1_555 1_555
H42 C79 1_555 1_555
C80 C79 1_555 1_555
C81 C80 1_555 1_555
H43 C81 1_555 1_555
C82 C77 1_555 1_555
H44 C82 1_555 1_555
B5 C77 1_555 1_555
O28 B5 1_555 1_555
N13 O28 1_555 1_555
C83 N13 1_555 1_555
H45 C83 1_555 1_555
C84 C83 1_555 1_555
C85 C84 1_555 1_555
C86 C85 1_555 1_555
C87 C86 1_555 1_555
H46 C87 1_555 1_555
Br7 C88 1_555 1_555
C88 C87 1_555 1_555
C89 C84 1_555 1_555
H47 C89 1_555 1_555
C90 C86 1_555 1_555
H48 C90 1_555 1_555
N14 C90 1_555 1_555
O29 N14 1_555 1_555
B6 O29 1_555 1_555
O30 B5 1_555 1_555
N15 Co5 1_555 1_555
C91 N15 1_555 1_555
H49 C91 1_555 1_555
C92 C91 1_555 1_555
C93 C92 1_555 1_555
C94 C93 1_555 1_555
C95 C94 1_555 1_555
H50 C95 1_555 1_555
Br8 C96 1_555 1_555
C96 C95 1_555 1_555
C97 C92 1_555 1_555
H51 C97 1_555 1_555
C98 C94 1_555 1_555
H52 C98 1_555 1_555
N16 Co6 1_555 1_555
O31 B6 1_555 1_555
O32 B5 1_555 1_555
N17 Co5 1_555 1_555
C99 N17 1_555 1_555
H53 C99 1_555 1_555
C100 C99 1_555 1_555
C101 C100 1_555 1_555
C102 C101 1_555 1_555
C103 C102 1_555 1_555
H54 C103 1_555 1_555
Br9 C104 1_555 1_555
C104 C103 1_555 1_555
C105 C100 1_555 1_555
H55 C105 1_555 1_555
C106 C102 1_555 1_555
H56 C106 1_555 1_555
N18 Co6 1_555 1_555
O33 B6 1_555 1_555
C107 B6 1_555 1_555
C108 C107 1_555 1_555
H57 C108 1_555 1_555
C109 C108 1_555 1_555
H58 C109 1_555 1_555
C110 C109 1_555 1_555
C111 C110 1_555 1_555
H59 C111 1_555 1_555
C112 C107 1_555 1_555
H60 C112 1_555 1_555
C113 C80 1_555 1_555
O34 Zn2 1_555 1_555
O35 C113 1_555 1_555
O36 Co5 1_555 1_555
O37 Co5 1_555 1_555
O38 Co5 1_555 1_555
C114 C110 1_555 1_555
O39 C114 1_555 1_555
O40 C114 1_555 1_555
Zn6 O39 1_555 1_555
Zn8 O13 1_555 1_555
Zn10 O14 1_555 1_555
Zn10_2 O40 1_555 1_555
O41 Zn7 1_555 1_555
O42 Zn5 1_555 1_555
O43 Zn3 1_555 1_555
O44 Zn3 1_555 1_555
Co2 O21 1_555 1_555
Co2 O22 1_555 1_555
Co2 O26 1_555 1_555
Co4 O10 1_555 1_555
Co4 O11 1_555 1_555
Co4 O12 1_555 1_555
C5 C6 1_555 1_555
C9 O10 1_555 1_555
C12 C13 1_555 1_555
O4 N3 1_555 1_555
C17 O11 1_555 1_555
C20 C21 1_555 1_555
C22 N4 1_555 1_555
N4 O5 1_555 1_555
O6 N5 1_555 1_555
C25 O12 1_555 1_555
C28 C29 1_555 1_555
C30 N6 1_555 1_555
N6 O7 1_555 1_555
C35 C36 1_555 1_555
C37 O8 1_555 1_555
C37 O9 1_555 1_555
C43 C44 1_555 1_555
C47 O21 1_555 1_555
C50 C51 1_555 1_555
O17 N9 1_555 1_555
C55 O22 1_555 1_555
C58 C59 1_555 1_555
C60 N10 1_555 1_555
C65 O19 1_555 1_555
C65 O20 1_555 1_555
O24 N11 1_555 1_555
C69 O26 1_555 1_555
C72 C73 1_555 1_555
C74 N12 1_555 1_555
Co6 O36 1_555 1_555
Co6 O37 1_555 1_555
Co6 O38 1_555 1_555
C81 C82 1_555 1_555
C85 O36 1_555 1_555
C88 C89 1_555 1_555
O30 N15 1_555 1_555
C93 O37 1_555 1_555
C96 C97 1_555 1_555
C98 N16 1_555 1_555
N16 O31 1_555 1_555
O32 N17 1_555 1_555
C101 O38 1_555 1_555
C104 C105 1_555 1_555
C106 N18 1_555 1_555
N18 O33 1_555 1_555
C111 C112 1_555 1_555
C113 O34 1_555 1_555
B4_2 O16_2 1_555 1_555
O18_2 B4_2 1_555 1_555
C61_2 B4_2 1_555 1_555
C62_2 C61_2 1_555 1_555
H33_2 C62_2 1_555 1_555
C63_2 C62_2 1_555 1_555
H34_2 C63_2 1_555 1_555
C64_2 C63_2 1_555 1_555
C66_2 C64_2 1_555 1_555
O23_2 C66_2 1_555 1_555
Zn8 O23_2 1_555 1_555
Zn2_2 O1_2 1_555 1_555
Zn10 O1_2 1_555 1_555
Co1_2 N7_2 1_555 1_555
Co2_2 N8_2 1_555 1_555
O1_2 Zn8 1_555 1_555
C39_2 C40_2 1_555 1_555
C40_2 H21_2 1_555 1_555
C41_2 C40_2 1_555 1_555
H22_2 C41_2 1_555 1_555
C42_2 C41_2 1_555 1_555
C43_2 C42_2 1_555 1_555
H23_2 C43_2 1_555 1_555
C44_2 C39_2 1_555 1_555
H24_2 C44_2 1_555 1_555
B3_2 C39_2 1_555 1_555
O15_2 B3_2 1_555 1_555
N7_2 O15_2 1_555 1_555
C45_2 N7_2 1_555 1_555
H25_2 C45_2 1_555 1_555
C46_2 C45_2 1_555 1_555
C47_2 C46_2 1_555 1_555
C48_2 C47_2 1_555 1_555
C49_2 C48_2 1_555 1_555
H26_2 C49_2 1_555 1_555
Br4_2 C50_2 1_555 1_555
C50_2 C49_2 1_555 1_555
C51_2 C46_2 1_555 1_555
H27_2 C51_2 1_555 1_555
C52_2 C48_2 1_555 1_555
N8_2 C52_2 1_555 1_555
O17_2 B3_2 1_555 1_555
N9_2 Co1_2 1_555 1_555
C53_2 N9_2 1_555 1_555
H29_2 C53_2 1_555 1_555
C54_2 C53_2 1_555 1_555
C55_2 C54_2 1_555 1_555
C56_2 C55_2 1_555 1_555
C57_2 C56_2 1_555 1_555
H30_2 C57_2 1_555 1_555
Br5_2 C58_2 1_555 1_555
C58_2 C57_2 1_555 1_555
C59_2 C54_2 1_555 1_555
H31_2 C59_2 1_555 1_555
C60_2 C56_2 1_555 1_555
H32_2 C60_2 1_555 1_555
N10_2 Co2_2 1_555 1_555
C65_2 C42_2 1_555 1_555
O19_2 Zn2_2 1_555 1_555
O20_2 Zn10 1_555 1_555
O21_2 Co1_2 1_555 1_555
O22_2 Co1_2 1_555 1_555
Zn8 O35_2 1_555 1_555
C81_2 C80_2 1_555 1_555
H43_2 C81_2 1_555 1_555
C113_2 C80_2 1_555 1_555
O34_2 Zn2_2 1_555 1_555
O35_2 C113_2 1_555 1_555
Co2_2 O21_2 1_555 1_555
Co2_2 O22_2 1_555 1_555
C43_2 C44_2 1_555 1_555
C47_2 O21_2 1_555 1_555
C50_2 C51_2 1_555 1_555
O17_2 N9_2 1_555 1_555
C55_2 O22_2 1_555 1_555
C58_2 C59_2 1_555 1_555
C60_2 N10_2 1_555 1_555
C65_2 O19_2 1_555 1_555
C65_2 O20_2 1_555 1_555
C113_2 O34_2 1_555 1_555
B4_3 O16_3 1_555 1_555
C61_3 B4_3 1_555 1_555
C66_3 C64_3 1_555 1_555
O25_2 B4_3 1_555 1_555
C75_2 C61_3 1_555 1_555
H39_2 C75_2 1_555 1_555
C76_2 C64_3 1_555 1_555
H40_2 C76_2 1_555 1_555
O27_2 C66_3 1_555 1_555
Zn6 O27_2 1_555 1_555
C75_2 C76_2 1_555 1_555
Zn6 O1_3 1_555 1_555
Zn2_3 O1_3 1_555 1_555
Zn10_2 O1_3 1_555 1_555
Co1_3 N7_3 1_555 1_555
Co2_3 N8_3 1_555 1_555
C5_2 C4_2 1_555 1_555
H3_2 C5_2 1_555 1_555
C37_2 C4_2 1_555 1_555
O8_2 Zn2_3 1_555 1_555
O9_2 Zn6 1_555 1_555
C39_3 C40_3 1_555 1_555
C40_3 H21_3 1_555 1_555
C41_3 C40_3 1_555 1_555
H22_3 C41_3 1_555 1_555
C42_3 C41_3 1_555 1_555
C43_3 C42_3 1_555 1_555
H23_3 C43_3 1_555 1_555
C44_3 C39_3 1_555 1_555
H24_3 C44_3 1_555 1_555
B3_3 C39_3 1_555 1_555
O15_3 B3_3 1_555 1_555
N7_3 O15_3 1_555 1_555
C45_3 N7_3 1_555 1_555
H25_3 C45_3 1_555 1_555
C46_3 C45_3 1_555 1_555
C47_3 C46_3 1_555 1_555
C48_3 C47_3 1_555 1_555
C49_3 C48_3 1_555 1_555
H26_3 C49_3 1_555 1_555
Br4_3 C50_3 1_555 1_555
C50_3 C49_3 1_555 1_555
C51_3 C46_3 1_555 1_555
H27_3 C51_3 1_555 1_555
C52_3 C48_3 1_555 1_555
N8_3 C52_3 1_555 1_555
C65_3 C42_3 1_555 1_555
O19_3 Zn2_3 1_555 1_555
O20_3 Zn10_2 1_555 1_555
O21_3 Co1_3 1_555 1_555
O24_2 B3_3 1_555 1_555
N11_2 Co1_3 1_555 1_555
C67_2 N11_2 1_555 1_555
H35_2 C67_2 1_555 1_555
C68_2 C67_2 1_555 1_555
C69_2 C68_2 1_555 1_555
C70_2 C69_2 1_555 1_555
C71_2 C70_2 1_555 1_555
H36_2 C71_2 1_555 1_555
Br6_2 C72_2 1_555 1_555
C72_2 C71_2 1_555 1_555
C73_2 C68_2 1_555 1_555
H37_2 C73_2 1_555 1_555
C74_2 C70_2 1_555 1_555
H38_2 C74_2 1_555 1_555
N12_2 Co2_3 1_555 1_555
O26_2 Co1_3 1_555 1_555
Co2_3 O21_3 1_555 1_555
Co2_3 O26_2 1_555 1_555
C37_2 O8_2 1_555 1_555
C37_2 O9_2 1_555 1_555
C43_3 C44_3 1_555 1_555
C47_3 O21_3 1_555 1_555
C50_3 C51_3 1_555 1_555
C65_3 O19_3 1_555 1_555
C65_3 O20_3 1_555 1_555
O24_2 N11_2 1_555 1_555
C69_2 O26_2 1_555 1_555
C72_2 C73_2 1_555 1_555
C74_2 N12_2 1_555 1_555
Co5_2 N13_2 1_555 1_555
Co6_2 N14_2 1_555 1_555
C77_2 C78_2 1_555 1_555
C78_2 H41_2 1_555 1_555
C79_2 C78_2 1_555 1_555
H42_2 C79_2 1_555 1_555
C82_2 C77_2 1_555 1_555
H44_2 C82_2 1_555 1_555
B5_2 C77_2 1_555 1_555
O28_2 B5_2 1_555 1_555
N13_2 O28_2 1_555 1_555
C83_2 N13_2 1_555 1_555
H45_2 C83_2 1_555 1_555
C84_2 C83_2 1_555 1_555
C85_2 C84_2 1_555 1_555
C86_2 C85_2 1_555 1_555
C87_2 C86_2 1_555 1_555
H46_2 C87_2 1_555 1_555
Br7_2 C88_2 1_555 1_555
C88_2 C87_2 1_555 1_555
C89_2 C84_2 1_555 1_555
H47_2 C89_2 1_555 1_555
C90_2 C86_2 1_555 1_555
H48_2 C90_2 1_555 1_555
N14_2 C90_2 1_555 1_555
O29_2 N14_2 1_555 1_555
B6_2 O29_2 1_555 1_555
O30_2 B5_2 1_555 1_555
N15_2 Co5_2 1_555 1_555
C91_2 N15_2 1_555 1_555
H49_2 C91_2 1_555 1_555
C92_2 C91_2 1_555 1_555
C93_2 C92_2 1_555 1_555
C94_2 C93_2 1_555 1_555
C95_2 C94_2 1_555 1_555
H50_2 C95_2 1_555 1_555
Br8_2 C96_2 1_555 1_555
C96_2 C95_2 1_555 1_555
C97_2 C92_2 1_555 1_555
H51_2 C97_2 1_555 1_555
C98_2 C94_2 1_555 1_555
H52_2 C98_2 1_555 1_555
N16_2 Co6_2 1_555 1_555
O31_2 B6_2 1_555 1_555
O32_2 B5_2 1_555 1_555
N17_2 Co5_2 1_555 1_555
C99_2 N17_2 1_555 1_555
H53_2 C99_2 1_555 1_555
C100_2 C99_2 1_555 1_555
C101_2 C100_2 1_555 1_555
C102_2 C101_2 1_555 1_555
C103_2 C102_2 1_555 1_555
H54_2 C103_2 1_555 1_555
Br9_2 C104_2 1_555 1_555
C104_2 C103_2 1_555 1_555
C105_2 C100_2 1_555 1_555
H55_2 C105_2 1_555 1_555
C106_2 C102_2 1_555 1_555
H56_2 C106_2 1_555 1_555
N18_2 Co6_2 1_555 1_555
O33_2 B6_2 1_555 1_555
C107_2 B6_2 1_555 1_555
C108_2 C107_2 1_555 1_555
H57_2 C108_2 1_555 1_555
C109_2 C108_2 1_555 1_555
H58_2 C109_2 1_555 1_555
C110_2 C109_2 1_555 1_555
C111_2 C110_2 1_555 1_555
H59_2 C111_2 1_555 1_555
C112_2 C107_2 1_555 1_555
H60_2 C112_2 1_555 1_555
O36_2 Co5_2 1_555 1_555
O37_2 Co5_2 1_555 1_555
O38_2 Co5_2 1_555 1_555
C114_2 C110_2 1_555 1_555
O42 C114_2 1_555 1_555
O44 C114_2 1_555 1_555
Co6_2 O36_2 1_555 1_555
Co6_2 O37_2 1_555 1_555
Co6_2 O38_2 1_555 1_555
C85_2 O36_2 1_555 1_555
C88_2 C89_2 1_555 1_555
O30_2 N15_2 1_555 1_555
C93_2 O37_2 1_555 1_555
C96_2 C97_2 1_555 1_555
C98_2 N16_2 1_555 1_555
N16_2 O31_2 1_555 1_555
O32_2 N17_2 1_555 1_555
C101_2 O38_2 1_555 1_555
C104_2 C105_2 1_555 1_555
C106_2 N18_2 1_555 1_555
N18_2 O33_2 1_555 1_555
C111_2 C112_2 1_555 1_555
Co3_2 N1_2 1_555 1_555
Co4_2 N2_2 1_555 1_555
C1_2 C2_2 1_555 1_555
C2_2 H1_2 1_555 1_555
C3_2 C2_2 1_555 1_555
H2_2 C3_2 1_555 1_555
C6_2 C1_2 1_555 1_555
H4_2 C6_2 1_555 1_555
B1_2 C1_2 1_555 1_555
O2_2 B1_2 1_555 1_555
N1_2 O2_2 1_555 1_555
C7_2 N1_2 1_555 1_555
H5_2 C7_2 1_555 1_555
C8_2 C7_2 1_555 1_555
C9_2 C8_2 1_555 1_555
C10_2 C9_2 1_555 1_555
C11_2 C10_2 1_555 1_555
H6_2 C11_2 1_555 1_555
Br1_2 C12_2 1_555 1_555
C12_2 C11_2 1_555 1_555
C13_2 C8_2 1_555 1_555
H7_2 C13_2 1_555 1_555
C14_2 C10_2 1_555 1_555
H8_2 C14_2 1_555 1_555
N2_2 C14_2 1_555 1_555
O3_2 N2_2 1_555 1_555
B2_2 O3_2 1_555 1_555
O4_2 B1_2 1_555 1_555
N3_2 Co3_2 1_555 1_555
C15_2 N3_2 1_555 1_555
H9_2 C15_2 1_555 1_555
C16_2 C15_2 1_555 1_555
C17_2 C16_2 1_555 1_555
C18_2 C17_2 1_555 1_555
C19_2 C18_2 1_555 1_555
H10_2 C19_2 1_555 1_555
Br2_2 C20_2 1_555 1_555
C20_2 C19_2 1_555 1_555
C21_2 C16_2 1_555 1_555
H11_2 C21_2 1_555 1_555
C22_2 C18_2 1_555 1_555
H12_2 C22_2 1_555 1_555
N4_2 Co4_2 1_555 1_555
O5_2 B2_2 1_555 1_555
O6_2 B1_2 1_555 1_555
N5_2 Co3_2 1_555 1_555
C23_2 N5_2 1_555 1_555
H13_2 C23_2 1_555 1_555
C24_2 C23_2 1_555 1_555
C25_2 C24_2 1_555 1_555
C26_2 C25_2 1_555 1_555
C27_2 C26_2 1_555 1_555
H14_2 C27_2 1_555 1_555
Br3_2 C28_2 1_555 1_555
C28_2 C27_2 1_555 1_555
C29_2 C24_2 1_555 1_555
H15_2 C29_2 1_555 1_555
C30_2 C26_2 1_555 1_555
H16_2 C30_2 1_555 1_555
N6_2 Co4_2 1_555 1_555
O7_2 B2_2 1_555 1_555
C31_2 B2_2 1_555 1_555
C32_2 C31_2 1_555 1_555
H17_2 C32_2 1_555 1_555
C33_2 C32_2 1_555 1_555
H18_2 C33_2 1_555 1_555
C34_2 C33_2 1_555 1_555
C35_2 C34_2 1_555 1_555
H19_2 C35_2 1_555 1_555
C36_2 C31_2 1_555 1_555
H20_2 C36_2 1_555 1_555
O10_2 Co3_2 1_555 1_555
O11_2 Co3_2 1_555 1_555
O12_2 Co3_2 1_555 1_555
C38_2 C34_2 1_555 1_555
O41 C38_2 1_555 1_555
O43 C38_2 1_555 1_555
Co4_2 O10_2 1_555 1_555
Co4_2 O11_2 1_555 1_555
Co4_2 O12_2 1_555 1_555
C9_2 O10_2 1_555 1_555
C12_2 C13_2 1_555 1_555
O4_2 N3_2 1_555 1_555
C17_2 O11_2 1_555 1_555
C20_2 C21_2 1_555 1_555
C22_2 N4_2 1_555 1_555
N4_2 O5_2 1_555 1_555
O6_2 N5_2 1_555 1_555
C25_2 O12_2 1_555 1_555
C28_2 C29_2 1_555 1_555
C30_2 N6_2 1_555 1_555
N6_2 O7_2 1_555 1_555
C35_2 C36_2 1_555 1_555
Zn1 O1_4 1_555 1_555
Zn2_4 O1_4 1_555 1_555
Zn3_2 O1_4 1_555 1_555
Co1_4 N7_4 1_555 1_555
Co2_4 N8_4 1_555 1_555
Co3_3 N1_3 1_555 1_555
Co4_3 N2_3 1_555 1_555
O1_4 Zn4 1_555 1_555
C1_3 C2_3 1_555 1_555
C2_3 H1_3 1_555 1_555
C3_3 C2_3 1_555 1_555
H2_3 C3_3 1_555 1_555
C4_3 C3_3 1_555 1_555
C5_3 C4_3 1_555 1_555
H3_3 C5_3 1_555 1_555
C6_3 C1_3 1_555 1_555
H4_3 C6_3 1_555 1_555
B1_3 C1_3 1_555 1_555
O2_3 B1_3 1_555 1_555
N1_3 O2_3 1_555 1_555
C7_3 N1_3 1_555 1_555
H5_3 C7_3 1_555 1_555
C8_3 C7_3 1_555 1_555
C9_3 C8_3 1_555 1_555
C10_3 C9_3 1_555 1_555
C11_3 C10_3 1_555 1_555
H6_3 C11_3 1_555 1_555
Br1_3 C12_3 1_555 1_555
C12_3 C11_3 1_555 1_555
C13_3 C8_3 1_555 1_555
H7_3 C13_3 1_555 1_555
C14_3 C10_3 1_555 1_555
H8_3 C14_3 1_555 1_555
N2_3 C14_3 1_555 1_555
O3_3 N2_3 1_555 1_555
B2_3 O3_3 1_555 1_555
O4_3 B1_3 1_555 1_555
N3_3 Co3_3 1_555 1_555
C15_3 N3_3 1_555 1_555
H9_3 C15_3 1_555 1_555
C16_3 C15_3 1_555 1_555
C17_3 C16_3 1_555 1_555
C18_3 C17_3 1_555 1_555
C19_3 C18_3 1_555 1_555
H10_3 C19_3 1_555 1_555
Br2_3 C20_3 1_555 1_555
C20_3 C19_3 1_555 1_555
C21_3 C16_3 1_555 1_555
H11_3 C21_3 1_555 1_555
C22_3 C18_3 1_555 1_555
H12_3 C22_3 1_555 1_555
N4_3 Co4_3 1_555 1_555
O5_3 B2_3 1_555 1_555
O6_3 B1_3 1_555 1_555
N5_3 Co3_3 1_555 1_555
C23_3 N5_3 1_555 1_555
H13_3 C23_3 1_555 1_555
C24_3 C23_3 1_555 1_555
C25_3 C24_3 1_555 1_555
C26_3 C25_3 1_555 1_555
C27_3 C26_3 1_555 1_555
H14_3 C27_3 1_555 1_555
Br3_3 C28_3 1_555 1_555
C28_3 C27_3 1_555 1_555
C29_3 C24_3 1_555 1_555
H15_3 C29_3 1_555 1_555
C30_3 C26_3 1_555 1_555
H16_3 C30_3 1_555 1_555
N6_3 Co4_3 1_555 1_555
O7_3 B2_3 1_555 1_555
C31_3 B2_3 1_555 1_555
C32_3 C31_3 1_555 1_555
H17_3 C32_3 1_555 1_555
C33_3 C32_3 1_555 1_555
H18_3 C33_3 1_555 1_555
C34_3 C33_3 1_555 1_555
C35_3 C34_3 1_555 1_555
H19_3 C35_3 1_555 1_555
C36_3 C31_3 1_555 1_555
H20_3 C36_3 1_555 1_555
C37_3 C4_3 1_555 1_555
O8_3 Zn2_4 1_555 1_555
O9_3 Zn1 1_555 1_555
O10_3 Co3_3 1_555 1_555
O11_3 Co3_3 1_555 1_555
O12_3 Co3_3 1_555 1_555
C38_3 C34_3 1_555 1_555
O13_2 C38_3 1_555 1_555
O14_2 C38_3 1_555 1_555
C39_4 C40_4 1_555 1_555
C40_4 H21_4 1_555 1_555
C41_4 C40_4 1_555 1_555
H22_4 C41_4 1_555 1_555
C42_4 C41_4 1_555 1_555
C43_4 C42_4 1_555 1_555
H23_4 C43_4 1_555 1_555
C44_4 C39_4 1_555 1_555
H24_4 C44_4 1_555 1_555
B3_4 C39_4 1_555 1_555
O15_4 B3_4 1_555 1_555
N7_4 O15_4 1_555 1_555
C45_4 N7_4 1_555 1_555
H25_4 C45_4 1_555 1_555
C46_4 C45_4 1_555 1_555
C47_4 C46_4 1_555 1_555
C48_4 C47_4 1_555 1_555
C49_4 C48_4 1_555 1_555
H26_4 C49_4 1_555 1_555
Br4_4 C50_4 1_555 1_555
C50_4 C49_4 1_555 1_555
C51_4 C46_4 1_555 1_555
H27_4 C51_4 1_555 1_555
C52_4 C48_4 1_555 1_555
N8_4 C52_4 1_555 1_555
O17_3 B3_4 1_555 1_555
N9_3 Co1_4 1_555 1_555
C53_3 N9_3 1_555 1_555
H29_3 C53_3 1_555 1_555
C54_3 C53_3 1_555 1_555
C55_3 C54_3 1_555 1_555
C56_3 C55_3 1_555 1_555
C57_3 C56_3 1_555 1_555
H30_3 C57_3 1_555 1_555
Br5_3 C58_3 1_555 1_555
C58_3 C57_3 1_555 1_555
C59_3 C54_3 1_555 1_555
H31_3 C59_3 1_555 1_555
C60_3 C56_3 1_555 1_555
H32_3 C60_3 1_555 1_555
N10_3 Co2_4 1_555 1_555
C65_4 C42_4 1_555 1_555
O19_4 Zn2_4 1_555 1_555
O20_4 Zn3_2 1_555 1_555
O21_4 Co1_4 1_555 1_555
O22_3 Co1_4 1_555 1_555
O24_3 B3_4 1_555 1_555
N11_3 Co1_4 1_555 1_555
C67_3 N11_3 1_555 1_555
H35_3 C67_3 1_555 1_555
C68_3 C67_3 1_555 1_555
C69_3 C68_3 1_555 1_555
C70_3 C69_3 1_555 1_555
C71_3 C70_3 1_555 1_555
H36_3 C71_3 1_555 1_555
Br6_3 C72_3 1_555 1_555
C72_3 C71_3 1_555 1_555
C73_3 C68_3 1_555 1_555
H37_3 C73_3 1_555 1_555
C74_3 C70_3 1_555 1_555
H38_3 C74_3 1_555 1_555
N12_3 Co2_4 1_555 1_555
O26_3 Co1_4 1_555 1_555
Zn4 O35_3 1_555 1_555
Co5_3 N13_3 1_555 1_555
Co6_3 N14_3 1_555 1_555
C77_3 C78_3 1_555 1_555
C78_3 H41_3 1_555 1_555
C79_3 C78_3 1_555 1_555
H42_3 C79_3 1_555 1_555
C80_3 C79_3 1_555 1_555
C81_3 C80_3 1_555 1_555
H43_3 C81_3 1_555 1_555
C82_3 C77_3 1_555 1_555
H44_3 C82_3 1_555 1_555
B5_3 C77_3 1_555 1_555
O28_3 B5_3 1_555 1_555
N13_3 O28_3 1_555 1_555
C83_3 N13_3 1_555 1_555
H45_3 C83_3 1_555 1_555
C84_3 C83_3 1_555 1_555
C85_3 C84_3 1_555 1_555
C86_3 C85_3 1_555 1_555
C87_3 C86_3 1_555 1_555
H46_3 C87_3 1_555 1_555
Br7_3 C88_3 1_555 1_555
C88_3 C87_3 1_555 1_555
C89_3 C84_3 1_555 1_555
H47_3 C89_3 1_555 1_555
C90_3 C86_3 1_555 1_555
H48_3 C90_3 1_555 1_555
N14_3 C90_3 1_555 1_555
O29_3 N14_3 1_555 1_555
B6_3 O29_3 1_555 1_555
O30_3 B5_3 1_555 1_555
N15_3 Co5_3 1_555 1_555
C91_3 N15_3 1_555 1_555
H49_3 C91_3 1_555 1_555
C92_3 C91_3 1_555 1_555
C93_3 C92_3 1_555 1_555
C94_3 C93_3 1_555 1_555
C95_3 C94_3 1_555 1_555
H50_3 C95_3 1_555 1_555
Br8_3 C96_3 1_555 1_555
C96_3 C95_3 1_555 1_555
C97_3 C92_3 1_555 1_555
H51_3 C97_3 1_555 1_555
C98_3 C94_3 1_555 1_555
H52_3 C98_3 1_555 1_555
N16_3 Co6_3 1_555 1_555
O31_3 B6_3 1_555 1_555
O32_3 B5_3 1_555 1_555
N17_3 Co5_3 1_555 1_555
C99_3 N17_3 1_555 1_555
H53_3 C99_3 1_555 1_555
C100_3 C99_3 1_555 1_555
C101_3 C100_3 1_555 1_555
C102_3 C101_3 1_555 1_555
C103_3 C102_3 1_555 1_555
H54_3 C103_3 1_555 1_555
Br9_3 C104_3 1_555 1_555
C104_3 C103_3 1_555 1_555
C105_3 C100_3 1_555 1_555
H55_3 C105_3 1_555 1_555
C106_3 C102_3 1_555 1_555
H56_3 C106_3 1_555 1_555
N18_3 Co6_3 1_555 1_555
O33_3 B6_3 1_555 1_555
C107_3 B6_3 1_555 1_555
C108_3 C107_3 1_555 1_555
H57_3 C108_3 1_555 1_555
C109_3 C108_3 1_555 1_555
H58_3 C109_3 1_555 1_555
C110_3 C109_3 1_555 1_555
C111_3 C110_3 1_555 1_555
H59_3 C111_3 1_555 1_555
C112_3 C107_3 1_555 1_555
H60_3 C112_3 1_555 1_555
C113_3 C80_3 1_555 1_555
O34_3 Zn2_4 1_555 1_555
O35_3 C113_3 1_555 1_555
O36_3 Co5_3 1_555 1_555
O37_3 Co5_3 1_555 1_555
O38_3 Co5_3 1_555 1_555
C114_3 C110_3 1_555 1_555
O39_2 C114_3 1_555 1_555
O40_2 C114_3 1_555 1_555
Zn6_2 O39_2 1_555 1_555
Zn8_2 O13_2 1_555 1_555
Zn10_3 O14_2 1_555 1_555
Zn10_4 O40_2 1_555 1_555
O41_2 Zn4 1_555 1_555
O42_2 Zn1 1_555 1_555
O43_2 Zn3_2 1_555 1_555
O44_2 Zn3_2 1_555 1_555
O45 Zn4 1_555 1_555
O46 Zn1 1_555 1_555
Co2_4 O21_4 1_555 1_555
Co2_4 O22_3 1_555 1_555
Co2_4 O26_3 1_555 1_555
Co4_3 O10_3 1_555 1_555
Co4_3 O11_3 1_555 1_555
Co4_3 O12_3 1_555 1_555
C5_3 C6_3 1_555 1_555
C9_3 O10_3 1_555 1_555
C12_3 C13_3 1_555 1_555
O4_3 N3_3 1_555 1_555
C17_3 O11_3 1_555 1_555
C20_3 C21_3 1_555 1_555
C22_3 N4_3 1_555 1_555
N4_3 O5_3 1_555 1_555
O6_3 N5_3 1_555 1_555
C25_3 O12_3 1_555 1_555
C28_3 C29_3 1_555 1_555
C30_3 N6_3 1_555 1_555
N6_3 O7_3 1_555 1_555
C35_3 C36_3 1_555 1_555
C37_3 O8_3 1_555 1_555
C37_3 O9_3 1_555 1_555
C43_4 C44_4 1_555 1_555
C47_4 O21_4 1_555 1_555
C50_4 C51_4 1_555 1_555
O17_3 N9_3 1_555 1_555
C55_3 O22_3 1_555 1_555
C58_3 C59_3 1_555 1_555
C60_3 N10_3 1_555 1_555
C65_4 O19_4 1_555 1_555
C65_4 O20_4 1_555 1_555
O24_3 N11_3 1_555 1_555
C69_3 O26_3 1_555 1_555
C72_3 C73_3 1_555 1_555
C74_3 N12_3 1_555 1_555
Co6_3 O36_3 1_555 1_555
Co6_3 O37_3 1_555 1_555
Co6_3 O38_3 1_555 1_555
C81_3 C82_3 1_555 1_555
C85_3 O36_3 1_555 1_555
C88_3 C89_3 1_555 1_555
O30_3 N15_3 1_555 1_555
C93_3 O37_3 1_555 1_555
C96_3 C97_3 1_555 1_555
C98_3 N16_3 1_555 1_555
N16_3 O31_3 1_555 1_555
O32_3 N17_3 1_555 1_555
C101_3 O38_3 1_555 1_555
C104_3 C105_3 1_555 1_555
C106_3 N18_3 1_555 1_555
N18_3 O33_3 1_555 1_555
C111_3 C112_3 1_555 1_555
C113_3 O34_3 1_555 1_555
B4_4 O16_4 1_555 1_555
O18_3 B4_4 1_555 1_555
C61_4 B4_4 1_555 1_555
C62_3 C61_4 1_555 1_555
H33_3 C62_3 1_555 1_555
C63_3 C62_3 1_555 1_555
H34_3 C63_3 1_555 1_555
C64_4 C63_3 1_555 1_555
C66_4 C64_4 1_555 1_555
O45 C66_4 1_555 1_555
O25_3 B4_4 1_555 1_555
C75_3 C61_4 1_555 1_555
H39_3 C75_3 1_555 1_555
C76_3 C64_4 1_555 1_555
H40_3 C76_3 1_555 1_555
O46 C66_4 1_555 1_555
C75_3 C76_3 1_555 1_555
Co5_4 N13_4 1_555 1_555
Co6_4 N14_4 1_555 1_555
C77_4 C78_4 1_555 1_555
C78_4 H41_4 1_555 1_555
C79_4 C78_4 1_555 1_555
H42_4 C79_4 1_555 1_555
C82_4 C77_4 1_555 1_555
H44_4 C82_4 1_555 1_555
B5_4 C77_4 1_555 1_555
O28_4 B5_4 1_555 1_555
N13_4 O28_4 1_555 1_555
C83_4 N13_4 1_555 1_555
H45_4 C83_4 1_555 1_555
C84_4 C83_4 1_555 1_555
C85_4 C84_4 1_555 1_555
C86_4 C85_4 1_555 1_555
C87_4 C86_4 1_555 1_555
H46_4 C87_4 1_555 1_555
Br7_4 C88_4 1_555 1_555
C88_4 C87_4 1_555 1_555
C89_4 C84_4 1_555 1_555
H47_4 C89_4 1_555 1_555
C90_4 C86_4 1_555 1_555
H48_4 C90_4 1_555 1_555
N14_4 C90_4 1_555 1_555
O29_4 N14_4 1_555 1_555
B6_4 O29_4 1_555 1_555
O30_4 B5_4 1_555 1_555
N15_4 Co5_4 1_555 1_555
C91_4 N15_4 1_555 1_555
H49_4 C91_4 1_555 1_555
C92_4 C91_4 1_555 1_555
C93_4 C92_4 1_555 1_555
C94_4 C93_4 1_555 1_555
C95_4 C94_4 1_555 1_555
H50_4 C95_4 1_555 1_555
Br8_4 C96_4 1_555 1_555
C96_4 C95_4 1_555 1_555
C97_4 C92_4 1_555 1_555
H51_4 C97_4 1_555 1_555
C98_4 C94_4 1_555 1_555
H52_4 C98_4 1_555 1_555
N16_4 Co6_4 1_555 1_555
O31_4 B6_4 1_555 1_555
O32_4 B5_4 1_555 1_555
N17_4 Co5_4 1_555 1_555
C99_4 N17_4 1_555 1_555
H53_4 C99_4 1_555 1_555
C100_4 C99_4 1_555 1_555
C101_4 C100_4 1_555 1_555
C102_4 C101_4 1_555 1_555
C103_4 C102_4 1_555 1_555
H54_4 C103_4 1_555 1_555
Br9_4 C104_4 1_555 1_555
C104_4 C103_4 1_555 1_555
C105_4 C100_4 1_555 1_555
H55_4 C105_4 1_555 1_555
C106_4 C102_4 1_555 1_555
H56_4 C106_4 1_555 1_555
N18_4 Co6_4 1_555 1_555
O33_4 B6_4 1_555 1_555
C107_4 B6_4 1_555 1_555
C108_4 C107_4 1_555 1_555
H57_4 C108_4 1_555 1_555
C109_4 C108_4 1_555 1_555
H58_4 C109_4 1_555 1_555
C110_4 C109_4 1_555 1_555
C111_4 C110_4 1_555 1_555
H59_4 C111_4 1_555 1_555
C112_4 C107_4 1_555 1_555
H60_4 C112_4 1_555 1_555
O36_4 Co5_4 1_555 1_555
O37_4 Co5_4 1_555 1_555
O38_4 Co5_4 1_555 1_555
C114_4 C110_4 1_555 1_555
O42_2 C114_4 1_555 1_555
O44_2 C114_4 1_555 1_555
Co6_4 O36_4 1_555 1_555
Co6_4 O37_4 1_555 1_555
Co6_4 O38_4 1_555 1_555
C85_4 O36_4 1_555 1_555
C88_4 C89_4 1_555 1_555
O30_4 N15_4 1_555 1_555
C93_4 O37_4 1_555 1_555
C96_4 C97_4 1_555 1_555
C98_4 N16_4 1_555 1_555
N16_4 O31_4 1_555 1_555
O32_4 N17_4 1_555 1_555
C101_4 O38_4 1_555 1_555
C104_4 C105_4 1_555 1_555
C106_4 N18_4 1_555 1_555
N18_4 O33_4 1_555 1_555
C111_4 C112_4 1_555 1_555
Co3_4 N1_4 1_555 1_555
Co4_4 N2_4 1_555 1_555
C1_4 C2_4 1_555 1_555
C2_4 H1_4 1_555 1_555
C3_4 C2_4 1_555 1_555
H2_4 C3_4 1_555 1_555
C6_4 C1_4 1_555 1_555
H4_4 C6_4 1_555 1_555
B1_4 C1_4 1_555 1_555
O2_4 B1_4 1_555 1_555
N1_4 O2_4 1_555 1_555
C7_4 N1_4 1_555 1_555
H5_4 C7_4 1_555 1_555
C8_4 C7_4 1_555 1_555
C9_4 C8_4 1_555 1_555
C10_4 C9_4 1_555 1_555
C11_4 C10_4 1_555 1_555
H6_4 C11_4 1_555 1_555
Br1_4 C12_4 1_555 1_555
C12_4 C11_4 1_555 1_555
C13_4 C8_4 1_555 1_555
H7_4 C13_4 1_555 1_555
C14_4 C10_4 1_555 1_555
H8_4 C14_4 1_555 1_555
N2_4 C14_4 1_555 1_555
O3_4 N2_4 1_555 1_555
B2_4 O3_4 1_555 1_555
O4_4 B1_4 1_555 1_555
N3_4 Co3_4 1_555 1_555
C15_4 N3_4 1_555 1_555
H9_4 C15_4 1_555 1_555
C16_4 C15_4 1_555 1_555
C17_4 C16_4 1_555 1_555
C18_4 C17_4 1_555 1_555
C19_4 C18_4 1_555 1_555
H10_4 C19_4 1_555 1_555
Br2_4 C20_4 1_555 1_555
C20_4 C19_4 1_555 1_555
C21_4 C16_4 1_555 1_555
H11_4 C21_4 1_555 1_555
C22_4 C18_4 1_555 1_555
H12_4 C22_4 1_555 1_555
N4_4 Co4_4 1_555 1_555
O5_4 B2_4 1_555 1_555
O6_4 B1_4 1_555 1_555
N5_4 Co3_4 1_555 1_555
C23_4 N5_4 1_555 1_555
H13_4 C23_4 1_555 1_555
C24_4 C23_4 1_555 1_555
C25_4 C24_4 1_555 1_555
C26_4 C25_4 1_555 1_555
C27_4 C26_4 1_555 1_555
H14_4 C27_4 1_555 1_555
Br3_4 C28_4 1_555 1_555
C28_4 C27_4 1_555 1_555
C29_4 C24_4 1_555 1_555
H15_4 C29_4 1_555 1_555
C30_4 C26_4 1_555 1_555
H16_4 C30_4 1_555 1_555
N6_4 Co4_4 1_555 1_555
O7_4 B2_4 1_555 1_555
C31_4 B2_4 1_555 1_555
C32_4 C31_4 1_555 1_555
H17_4 C32_4 1_555 1_555
C33_4 C32_4 1_555 1_555
H18_4 C33_4 1_555 1_555
C34_4 C33_4 1_555 1_555
C35_4 C34_4 1_555 1_555
H19_4 C35_4 1_555 1_555
C36_4 C31_4 1_555 1_555
H20_4 C36_4 1_555 1_555
O10_4 Co3_4 1_555 1_555
O11_4 Co3_4 1_555 1_555
O12_4 Co3_4 1_555 1_555
C38_4 C34_4 1_555 1_555
O41_2 C38_4 1_555 1_555
O43_2 C38_4 1_555 1_555
Co4_4 O10_4 1_555 1_555
Co4_4 O11_4 1_555 1_555
Co4_4 O12_4 1_555 1_555
C9_4 O10_4 1_555 1_555
C12_4 C13_4 1_555 1_555
O4_4 N3_4 1_555 1_555
C17_4 O11_4 1_555 1_555
C20_4 C21_4 1_555 1_555
C22_4 N4_4 1_555 1_555
N4_4 O5_4 1_555 1_555
O6_4 N5_4 1_555 1_555
C25_4 O12_4 1_555 1_555
C28_4 C29_4 1_555 1_555
C30_4 N6_4 1_555 1_555
N6_4 O7_4 1_555 1_555
C35_4 C36_4 1_555 1_555
Zn2_5 O1_5 1_555 1_555
Zn10_3 O1_5 1_555 1_555
Co1_5 N7_5 1_555 1_555
Co2_5 N8_5 1_555 1_555
O1_5 Zn8_2 1_555 1_555
C39_5 C40_5 1_555 1_555
C40_5 H21_5 1_555 1_555
C41_5 C40_5 1_555 1_555
H22_5 C41_5 1_555 1_555
C42_5 C41_5 1_555 1_555
C43_5 C42_5 1_555 1_555
H23_5 C43_5 1_555 1_555
C44_5 C39_5 1_555 1_555
H24_5 C44_5 1_555 1_555
B3_5 C39_5 1_555 1_555
O15_5 B3_5 1_555 1_555
N7_5 O15_5 1_555 1_555
C45_5 N7_5 1_555 1_555
H25_5 C45_5 1_555 1_555
C46_5 C45_5 1_555 1_555
C47_5 C46_5 1_555 1_555
C48_5 C47_5 1_555 1_555
C49_5 C48_5 1_555 1_555
H26_5 C49_5 1_555 1_555
Br4_5 C50_5 1_555 1_555
C50_5 C49_5 1_555 1_555
C51_5 C46_5 1_555 1_555
H27_5 C51_5 1_555 1_555
C52_5 C48_5 1_555 1_555
N8_5 C52_5 1_555 1_555
O17_4 B3_5 1_555 1_555
N9_4 Co1_5 1_555 1_555
C53_4 N9_4 1_555 1_555
H29_4 C53_4 1_555 1_555
C54_4 C53_4 1_555 1_555
C55_4 C54_4 1_555 1_555
C56_4 C55_4 1_555 1_555
C57_4 C56_4 1_555 1_555
H30_4 C57_4 1_555 1_555
Br5_4 C58_4 1_555 1_555
C58_4 C57_4 1_555 1_555
C59_4 C54_4 1_555 1_555
H31_4 C59_4 1_555 1_555
C60_4 C56_4 1_555 1_555
H32_4 C60_4 1_555 1_555
N10_4 Co2_5 1_555 1_555
C65_5 C42_5 1_555 1_555
O19_5 Zn2_5 1_555 1_555
O20_5 Zn10_3 1_555 1_555
O21_5 Co1_5 1_555 1_555
O22_4 Co1_5 1_555 1_555
Zn8_2 O35_4 1_555 1_555
C81_4 C80_4 1_555 1_555
H43_4 C81_4 1_555 1_555
C113_4 C80_4 1_555 1_555
O34_4 Zn2_5 1_555 1_555
O35_4 C113_4 1_555 1_555
O45_2 Zn8_2 1_555 1_555
Co2_5 O21_5 1_555 1_555
Co2_5 O22_4 1_555 1_555
C43_5 C44_5 1_555 1_555
C47_5 O21_5 1_555 1_555
C50_5 C51_5 1_555 1_555
O17_4 N9_4 1_555 1_555
C55_4 O22_4 1_555 1_555
C58_4 C59_4 1_555 1_555
C60_4 N10_4 1_555 1_555
C65_5 O19_5 1_555 1_555
C65_5 O20_5 1_555 1_555
C113_4 O34_4 1_555 1_555
B4_5 O16_5 1_555 1_555
O18_4 B4_5 1_555 1_555
C61_5 B4_5 1_555 1_555
C62_4 C61_5 1_555 1_555
H33_4 C62_4 1_555 1_555
C63_4 C62_4 1_555 1_555
H34_4 C63_4 1_555 1_555
C64_5 C63_4 1_555 1_555
C66_5 C64_5 1_555 1_555
O45_2 C66_5 1_555 1_555
Zn6_2 O1_6 1_555 1_555
Zn2_6 O1_6 1_555 1_555
Zn10_4 O1_6 1_555 1_555
Co1_6 N7_6 1_555 1_555
Co2_6 N8_6 1_555 1_555
C5_4 C4_4 1_555 1_555
H3_4 C5_4 1_555 1_555
C37_4 C4_4 1_555 1_555
O8_4 Zn2_6 1_555 1_555
O9_4 Zn6_2 1_555 1_555
C39_6 C40_6 1_555 1_555
C40_6 H21_6 1_555 1_555
C41_6 C40_6 1_555 1_555
H22_6 C41_6 1_555 1_555
C42_6 C41_6 1_555 1_555
C43_6 C42_6 1_555 1_555
H23_6 C43_6 1_555 1_555
C44_6 C39_6 1_555 1_555
H24_6 C44_6 1_555 1_555
B3_6 C39_6 1_555 1_555
O15_6 B3_6 1_555 1_555
N7_6 O15_6 1_555 1_555
C45_6 N7_6 1_555 1_555
H25_6 C45_6 1_555 1_555
C46_6 C45_6 1_555 1_555
C47_6 C46_6 1_555 1_555
C48_6 C47_6 1_555 1_555
C49_6 C48_6 1_555 1_555
H26_6 C49_6 1_555 1_555
Br4_6 C50_6 1_555 1_555
C50_6 C49_6 1_555 1_555
C51_6 C46_6 1_555 1_555
H27_6 C51_6 1_555 1_555
C52_6 C48_6 1_555 1_555
N8_6 C52_6 1_555 1_555
C65_6 C42_6 1_555 1_555
O19_6 Zn2_6 1_555 1_555
O20_6 Zn10_4 1_555 1_555
O21_6 Co1_6 1_555 1_555
O24_4 B3_6 1_555 1_555
N11_4 Co1_6 1_555 1_555
C67_4 N11_4 1_555 1_555
H35_4 C67_4 1_555 1_555
C68_4 C67_4 1_555 1_555
C69_4 C68_4 1_555 1_555
C70_4 C69_4 1_555 1_555
C71_4 C70_4 1_555 1_555
H36_4 C71_4 1_555 1_555
Br6_4 C72_4 1_555 1_555
C72_4 C71_4 1_555 1_555
C73_4 C68_4 1_555 1_555
H37_4 C73_4 1_555 1_555
C74_4 C70_4 1_555 1_555
H38_4 C74_4 1_555 1_555
N12_4 Co2_6 1_555 1_555
O26_4 Co1_6 1_555 1_555
O46_2 Zn6_2 1_555 1_555
Co2_6 O21_6 1_555 1_555
Co2_6 O26_4 1_555 1_555
C37_4 O8_4 1_555 1_555
C37_4 O9_4 1_555 1_555
C43_6 C44_6 1_555 1_555
C47_6 O21_6 1_555 1_555
C50_6 C51_6 1_555 1_555
C65_6 O19_6 1_555 1_555
C65_6 O20_6 1_555 1_555
O24_4 N11_4 1_555 1_555
C69_4 O26_4 1_555 1_555
C72_4 C73_4 1_555 1_555
C74_4 N12_4 1_555 1_555
B4_6 O16_6 1_555 1_555
C61_6 B4_6 1_555 1_555
C66_6 C64_6 1_555 1_555
O25_4 B4_6 1_555 1_555
C75_4 C61_6 1_555 1_555
H39_4 C75_4 1_555 1_555
C76_4 C64_6 1_555 1_555
H40_4 C76_4 1_555 1_555
O46_2 C66_6 1_555 1_555
C75_4 C76_4 1_555 1_555

#END
