
###############################################################################
#
# This file contains modified crystal structure data generated from the
# MOF subset of the Cambridge Structural Database (CSD) v543 
# hosted by the Cambridge Crystallographic Data Centre (CCDC).
#
# This work is licensed under the Creative Commons
# Attribution-NonCommercial-ShareAlike 4.0 International License.
# To view a copy of this license, visit
# http://creativecommons.org/licenses/by-nc-sa/4.0/
# or send a letter to
# Creative Commons, PO Box 1866, Mountain View, CA 94042, USA.
#
# CIF created using the CSD Python API on 29 September 2022
# The structure has been converted into the P1 space group
# The structure has a 3D framework
# The original CSD entry OKUTEV is in the cubic crystal system
# The framework has been calculated to contain at least 10.0% void space
# The void calculation uses a probe of radius 1.32A, grid spacing 0.4
#
###############################################################################

data_OKUTEV
_chemical_formula_moiety         '(C960 H480 Cu24 N48 O192)n'
_symmetry_cell_setting           triclinic
_symmetry_space_group_name_H-M   'P 1'
_symmetry_Int_Tables_number      1
_space_group_name_Hall           'P 1'
loop_
_symmetry_equiv_pos_site_id
_symmetry_equiv_pos_as_xyz
1 x,y,z
_cell_length_a                   45.5419
_cell_length_b                   45.5419
_cell_length_c                   45.5419
_cell_angle_alpha                90
_cell_angle_beta                 90
_cell_angle_gamma                90
_cell_volume                     94456.8
loop_
_atom_site_label
_atom_site_type_symbol
_atom_site_fract_x
_atom_site_fract_y
_atom_site_fract_z
_atom_site_U_iso_or_equiv
_atom_site_thermal_displace_type
O1 O 0.79585 0.01584 0.02295 0.0500 Uiso
O3 O 0.84413 0.01392 0.02906 0.0500 Uiso
O5 O 0.94472 0.00970 0.14893 0.0500 Uiso
O6 O 0.52464 0.01111 0.34708 0.0500 Uiso
O7 O 0.94310 0.01446 0.19737 0.0500 Uiso
O8 O 0.52197 0.01798 0.29892 0.0500 Uiso
N1 N 0.81064 0.03302 0.16020 0.0500 Uiso
N2 N 0.65874 0.00397 0.31312 0.0500 Uiso
C1 C 0.69571 0.00208 0.24050 0.0500 Uiso
C3 C 0.78642 0.02394 0.08348 0.0500 Uiso
H2 H 0.76703 0.02523 0.06982 0.0500 Uiso
C5 C 0.78356 0.02999 0.11353 0.0500 Uiso
H4 H 0.76250 0.03592 0.12273 0.0500 Uiso
C7 C 0.80858 0.02823 0.13099 0.0500 Uiso
C9 C 0.83548 0.02075 0.11925 0.0500 Uiso
C11 C 0.83897 0.01428 0.08955 0.0500 Uiso
H6 H 0.86028 0.00817 0.08102 0.0500 Uiso
C13 C 0.81397 0.01598 0.07121 0.0500 Uiso
C15 C 0.81782 0.01412 0.03964 0.0500 Uiso
C17 C 0.93006 0.01146 0.17310 0.0500 Uiso
C18 C 0.53706 0.01474 0.32186 0.0500 Uiso
C19 C 0.89850 0.01382 0.17172 0.0500 Uiso
C20 C 0.56878 0.01459 0.31938 0.0500 Uiso
C21 C 0.88473 0.01324 0.14388 0.0500 Uiso
H8 H 0.89655 0.00684 0.12429 0.0500 Uiso
C22 C 0.58647 0.00650 0.34354 0.0500 Uiso
H9 H 0.57717 0.00276 0.36508 0.0500 Uiso
C23 C 0.85508 0.02065 0.14234 0.0500 Uiso
C24 C 0.61651 0.00327 0.33893 0.0500 Uiso
C25 C 0.83917 0.02830 0.16693 0.0500 Uiso
C26 C 0.62927 0.00782 0.31184 0.0500 Uiso
C27 C 0.85212 0.02907 0.19461 0.0500 Uiso
H10 H 0.83960 0.03469 0.21398 0.0500 Uiso
C28 C 0.61246 0.01645 0.28776 0.0500 Uiso
H11 H 0.62230 0.02080 0.26662 0.0500 Uiso
C29 C 0.88198 0.02197 0.19686 0.0500 Uiso
H12 H 0.89205 0.02238 0.21838 0.0500 Uiso
C30 C 0.58205 0.01958 0.29163 0.0500 Uiso
H13 H 0.56892 0.02612 0.27295 0.0500 Uiso
C31 C 0.78700 0.03122 0.18015 0.0500 Uiso
C32 C 0.67936 0.00927 0.29068 0.0500 Uiso
C33 C 0.78261 0.05267 0.20164 0.0500 Uiso
H14 H 0.79654 0.07190 0.20230 0.0500 Uiso
C34 C 0.70402 0.02685 0.29595 0.0500 Uiso
H15 H 0.70738 0.03666 0.31732 0.0500 Uiso
C35 C 0.76066 0.04910 0.22272 0.0500 Uiso
H16 H 0.75773 0.06607 0.23906 0.0500 Uiso
C36 C 0.72472 0.03152 0.27391 0.0500 Uiso
H17 H 0.74406 0.04427 0.27911 0.0500 Uiso
C37 C 0.74308 0.02367 0.22293 0.0500 Uiso
C38 C 0.72094 0.01907 0.24591 0.0500 Uiso
C39 C 0.76887 0.00645 0.17943 0.0500 Uiso
C40 C 0.74719 0.00259 0.20073 0.0500 Uiso
Cu4 Cu 0.48502 0.01036 0.35130 0.0500 Uiso
Cu5 Cu 0.98502 0.01036 0.14870 0.0500 Uiso
Cu7 Cu 0.48301 0.01759 0.29715 0.0500 Uiso
Cu8 Cu 0.98301 0.01759 0.20285 0.0500 Uiso
Cu1 Cu 0.85130 0.01498 0.98964 0.0500 Uiso
Cu2 Cu 0.79715 0.01699 0.98241 0.0500 Uiso
O9 O 0.80530 0.01831 0.94439 0.0500 Uiso
O10 O 0.85363 0.01542 0.94960 0.0500 Uiso
O11 O 0.85107 0.05528 0.99030 0.0500 Uiso
O13 O 0.80263 0.05690 0.98554 0.0500 Uiso
O2 O 0.69470 0.98169 0.44439 0.0500 Uiso
O4 O 0.64637 0.98458 0.44960 0.0500 Uiso
C2 C 0.67520 0.99711 0.26276 0.0500 Uiso
H1 H 0.65629 0.98341 0.25837 0.0500 Uiso
C4 C 0.69238 0.98425 0.38428 0.0500 Uiso
H3 H 0.71345 0.97968 0.39424 0.0500 Uiso
C6 C 0.69148 0.99021 0.35409 0.0500 Uiso
H5 H 0.71142 0.98976 0.34126 0.0500 Uiso
C8 C 0.66439 0.99679 0.34144 0.0500 Uiso
C10 C 0.63900 0.99632 0.35789 0.0500 Uiso
C12 C 0.63915 0.99058 0.38793 0.0500 Uiso
H7 H 0.61892 0.99113 0.40036 0.0500 Uiso
C14 C 0.66644 0.98479 0.40154 0.0500 Uiso
C16 C 0.66944 0.98366 0.43321 0.0500 Uiso
H18 H 0.73266 0.98224 0.20023 0.0000 Uiso
H19 H 0.77185 0.98940 0.16138 0.0000 Uiso
H20 H 0.69207 0.99235 0.21774 0.0000 Uiso
Cu3 Cu 0.64870 0.98502 0.48964 0.0500 Uiso
Cu6 Cu 0.70285 0.98301 0.48241 0.0500 Uiso
O12 O 0.84708 0.97536 0.98889 0.0500 Uiso
O14 O 0.79892 0.97803 0.98202 0.0500 Uiso
Cu4_2 Cu 0.01498 0.98964 0.85130 0.0500 Uiso
Cu7_2 Cu 0.01699 0.98241 0.79715 0.0500 Uiso
C2_2 C 0.82480 0.00289 0.76276 0.0500 Uiso
H1_2 H 0.84371 0.01659 0.75837 0.0500 Uiso
C4_2 C 0.80762 0.01575 0.88428 0.0500 Uiso
H3_2 H 0.78655 0.02032 0.89424 0.0500 Uiso
C6_2 C 0.80852 0.00979 0.85409 0.0500 Uiso
H5_2 H 0.78858 0.01024 0.84126 0.0500 Uiso
C8_2 C 0.83561 0.00321 0.84144 0.0500 Uiso
C10_2 C 0.86100 0.00368 0.85789 0.0500 Uiso
C12_2 C 0.86085 0.00942 0.88793 0.0500 Uiso
H7_2 H 0.88108 0.00887 0.90036 0.0500 Uiso
C14_2 C 0.83356 0.01521 0.90154 0.0500 Uiso
C16_2 C 0.83056 0.01634 0.93321 0.0500 Uiso
H18_2 H 0.76734 0.01776 0.70023 0.0000 Uiso
H19_2 H 0.72815 0.01060 0.66138 0.0000 Uiso
H20_2 H 0.80793 0.00765 0.71774 0.0000 Uiso
O12_2 O 0.65292 0.02464 0.48889 0.0500 Uiso
O14_2 O 0.70108 0.02197 0.48202 0.0500 Uiso
O1_2 O 0.70415 0.98416 0.52295 0.0500 Uiso
O3_2 O 0.65587 0.98608 0.52906 0.0500 Uiso
O5_2 O 0.55528 0.99030 0.64893 0.0500 Uiso
O6_2 O 0.97536 0.98889 0.84708 0.0500 Uiso
O7_2 O 0.55690 0.98554 0.69737 0.0500 Uiso
O8_2 O 0.97803 0.98202 0.79892 0.0500 Uiso
N1_2 N 0.68936 0.96698 0.66020 0.0500 Uiso
N2_2 N 0.84126 0.99603 0.81312 0.0500 Uiso
C1_2 C 0.80429 0.99792 0.74050 0.0500 Uiso
C3_2 C 0.71358 0.97606 0.58348 0.0500 Uiso
H2_2 H 0.73297 0.97477 0.56982 0.0500 Uiso
C5_2 C 0.71644 0.97001 0.61353 0.0500 Uiso
H4_2 H 0.73750 0.96408 0.62273 0.0500 Uiso
C7_2 C 0.69142 0.97177 0.63099 0.0500 Uiso
C9_2 C 0.66452 0.97925 0.61925 0.0500 Uiso
C11_2 C 0.66103 0.98572 0.58955 0.0500 Uiso
H6_2 H 0.63972 0.99183 0.58102 0.0500 Uiso
C13_2 C 0.68603 0.98402 0.57121 0.0500 Uiso
C15_2 C 0.68218 0.98588 0.53964 0.0500 Uiso
C17_2 C 0.56994 0.98854 0.67310 0.0500 Uiso
C18_2 C 0.96294 0.98526 0.82186 0.0500 Uiso
C19_2 C 0.60150 0.98618 0.67172 0.0500 Uiso
C20_2 C 0.93122 0.98541 0.81938 0.0500 Uiso
C21_2 C 0.61527 0.98676 0.64388 0.0500 Uiso
H8_2 H 0.60345 0.99316 0.62429 0.0500 Uiso
C22_2 C 0.91353 0.99350 0.84354 0.0500 Uiso
H9_2 H 0.92283 0.99724 0.86508 0.0500 Uiso
C23_2 C 0.64492 0.97935 0.64234 0.0500 Uiso
C24_2 C 0.88349 0.99673 0.83893 0.0500 Uiso
C25_2 C 0.66083 0.97170 0.66693 0.0500 Uiso
C26_2 C 0.87073 0.99218 0.81184 0.0500 Uiso
C27_2 C 0.64788 0.97093 0.69461 0.0500 Uiso
H10_2 H 0.66040 0.96531 0.71398 0.0500 Uiso
C28_2 C 0.88754 0.98355 0.78776 0.0500 Uiso
H11_2 H 0.87770 0.97920 0.76662 0.0500 Uiso
C29_2 C 0.61802 0.97803 0.69686 0.0500 Uiso
H12_2 H 0.60795 0.97762 0.71838 0.0500 Uiso
C30_2 C 0.91795 0.98042 0.79163 0.0500 Uiso
H13_2 H 0.93108 0.97388 0.77295 0.0500 Uiso
C31_2 C 0.71300 0.96878 0.68015 0.0500 Uiso
C32_2 C 0.82064 0.99073 0.79068 0.0500 Uiso
C33_2 C 0.71739 0.94733 0.70164 0.0500 Uiso
H14_2 H 0.70346 0.92810 0.70230 0.0500 Uiso
C34_2 C 0.79598 0.97315 0.79595 0.0500 Uiso
H15_2 H 0.79262 0.96334 0.81732 0.0500 Uiso
C35_2 C 0.73934 0.95090 0.72272 0.0500 Uiso
H16_2 H 0.74227 0.93393 0.73906 0.0500 Uiso
C36_2 C 0.77528 0.96848 0.77391 0.0500 Uiso
H17_2 H 0.75594 0.95573 0.77911 0.0500 Uiso
C37_2 C 0.75692 0.97633 0.72293 0.0500 Uiso
C38_2 C 0.77906 0.98093 0.74591 0.0500 Uiso
C39_2 C 0.73113 0.99355 0.67943 0.0500 Uiso
C40_2 C 0.75281 0.99741 0.70073 0.0500 Uiso
O11_2 O 0.64893 0.94472 0.49030 0.0500 Uiso
O13_2 O 0.69737 0.94310 0.48554 0.0500 Uiso
Cu5_2 Cu 0.51498 0.98964 0.64870 0.0500 Uiso
Cu8_2 Cu 0.51699 0.98241 0.70285 0.0500 Uiso
O1_3 O 0.20415 0.51584 0.47705 0.0500 Uiso
O2_2 O 0.30530 0.48169 0.05561 0.0500 Uiso
O3_3 O 0.15587 0.51392 0.47094 0.0500 Uiso
O4_2 O 0.35363 0.48458 0.05040 0.0500 Uiso
O5_3 O 0.05528 0.50970 0.35107 0.0500 Uiso
O6_3 O 0.47536 0.51111 0.15292 0.0500 Uiso
O7_3 O 0.05690 0.51446 0.30263 0.0500 Uiso
O8_3 O 0.47803 0.51798 0.20108 0.0500 Uiso
N1_3 N 0.18936 0.53302 0.33980 0.0500 Uiso
N2_3 N 0.34126 0.50397 0.18688 0.0500 Uiso
C1_3 C 0.30429 0.50208 0.25950 0.0500 Uiso
C2_3 C 0.32480 0.49711 0.23724 0.0500 Uiso
H1_3 H 0.34371 0.48341 0.24163 0.0500 Uiso
C3_3 C 0.21358 0.52394 0.41652 0.0500 Uiso
H2_3 H 0.23297 0.52523 0.43018 0.0500 Uiso
C4_3 C 0.30762 0.48425 0.11572 0.0500 Uiso
H3_3 H 0.28655 0.47968 0.10576 0.0500 Uiso
C5_3 C 0.21644 0.52999 0.38647 0.0500 Uiso
H4_3 H 0.23750 0.53592 0.37727 0.0500 Uiso
C6_3 C 0.30852 0.49021 0.14591 0.0500 Uiso
H5_3 H 0.28858 0.48976 0.15874 0.0500 Uiso
C7_3 C 0.19142 0.52823 0.36901 0.0500 Uiso
C8_3 C 0.33561 0.49679 0.15856 0.0500 Uiso
C9_3 C 0.16452 0.52075 0.38075 0.0500 Uiso
C10_3 C 0.36100 0.49632 0.14211 0.0500 Uiso
C11_3 C 0.16103 0.51428 0.41045 0.0500 Uiso
H6_3 H 0.13972 0.50817 0.41898 0.0500 Uiso
C12_3 C 0.36085 0.49058 0.11207 0.0500 Uiso
H7_3 H 0.38108 0.49113 0.09964 0.0500 Uiso
C13_3 C 0.18603 0.51598 0.42879 0.0500 Uiso
C14_3 C 0.33356 0.48479 0.09846 0.0500 Uiso
C15_3 C 0.18218 0.51412 0.46036 0.0500 Uiso
C16_3 C 0.33056 0.48366 0.06679 0.0500 Uiso
C17_3 C 0.06994 0.51146 0.32690 0.0500 Uiso
C18_3 C 0.46294 0.51474 0.17814 0.0500 Uiso
C19_3 C 0.10150 0.51382 0.32828 0.0500 Uiso
C20_3 C 0.43122 0.51459 0.18062 0.0500 Uiso
C21_3 C 0.11527 0.51324 0.35612 0.0500 Uiso
H8_3 H 0.10345 0.50684 0.37571 0.0500 Uiso
C22_3 C 0.41353 0.50650 0.15646 0.0500 Uiso
H9_3 H 0.42283 0.50276 0.13492 0.0500 Uiso
C23_3 C 0.14492 0.52065 0.35766 0.0500 Uiso
C24_3 C 0.38349 0.50327 0.16107 0.0500 Uiso
C25_3 C 0.16083 0.52830 0.33307 0.0500 Uiso
C26_3 C 0.37073 0.50782 0.18816 0.0500 Uiso
C27_3 C 0.14788 0.52907 0.30539 0.0500 Uiso
H10_3 H 0.16040 0.53469 0.28602 0.0500 Uiso
C28_3 C 0.38754 0.51645 0.21224 0.0500 Uiso
H11_3 H 0.37770 0.52080 0.23338 0.0500 Uiso
C29_3 C 0.11802 0.52197 0.30314 0.0500 Uiso
H12_3 H 0.10795 0.52238 0.28162 0.0500 Uiso
C30_3 C 0.41795 0.51958 0.20837 0.0500 Uiso
H13_3 H 0.43108 0.52612 0.22705 0.0500 Uiso
C31_3 C 0.21300 0.53122 0.31985 0.0500 Uiso
C32_3 C 0.32064 0.50927 0.20932 0.0500 Uiso
C33_3 C 0.21739 0.55267 0.29836 0.0500 Uiso
H14_3 H 0.20346 0.57190 0.29770 0.0500 Uiso
C34_3 C 0.29598 0.52685 0.20405 0.0500 Uiso
H15_3 H 0.29262 0.53666 0.18268 0.0500 Uiso
C35_3 C 0.23934 0.54910 0.27728 0.0500 Uiso
H16_3 H 0.24227 0.56607 0.26094 0.0500 Uiso
C36_3 C 0.27528 0.53152 0.22609 0.0500 Uiso
H17_3 H 0.25594 0.54427 0.22089 0.0500 Uiso
C37_3 C 0.25692 0.52367 0.27707 0.0500 Uiso
C38_3 C 0.27906 0.51907 0.25409 0.0500 Uiso
C39_3 C 0.23113 0.50645 0.32057 0.0500 Uiso
C40_3 C 0.25281 0.50259 0.29927 0.0500 Uiso
H18_3 H 0.26734 0.48224 0.29977 0.0000 Uiso
H19_3 H 0.22815 0.48940 0.33862 0.0000 Uiso
H20_3 H 0.30793 0.49235 0.28226 0.0000 Uiso
Cu1_2 Cu 0.14870 0.51498 0.51036 0.0500 Uiso
Cu2_2 Cu 0.20285 0.51699 0.51759 0.0500 Uiso
O9_2 O 0.19470 0.51831 0.55561 0.0500 Uiso
O10_2 O 0.14637 0.51542 0.55040 0.0500 Uiso
O11_3 O 0.14893 0.55528 0.50970 0.0500 Uiso
O12_3 O 0.15292 0.47536 0.51111 0.0500 Uiso
O13_3 O 0.19737 0.55690 0.51446 0.0500 Uiso
O14_3 O 0.20108 0.47803 0.51798 0.0500 Uiso
Cu3_2 Cu 0.35130 0.48502 0.01036 0.0500 Uiso
Cu4_3 Cu 0.51498 0.51036 0.14870 0.0500 Uiso
Cu5_3 Cu 0.01498 0.51036 0.35130 0.0500 Uiso
Cu6_2 Cu 0.29715 0.48301 0.01759 0.0500 Uiso
Cu7_3 Cu 0.51699 0.51759 0.20285 0.0500 Uiso
Cu8_3 Cu 0.01699 0.51759 0.29715 0.0500 Uiso
O11_4 O 0.35107 0.44472 0.00970 0.0500 Uiso
O12_4 O 0.34708 0.52464 0.01111 0.0500 Uiso
O13_4 O 0.30263 0.44310 0.01446 0.0500 Uiso
O14_4 O 0.29892 0.52197 0.01798 0.0500 Uiso
O1_4 O 0.29585 0.48416 0.97705 0.0500 Uiso
O3_4 O 0.34413 0.48608 0.97094 0.0500 Uiso
O5_4 O 0.44472 0.49030 0.85107 0.0500 Uiso
O6_4 O 0.02464 0.48889 0.65292 0.0500 Uiso
O7_4 O 0.44310 0.48554 0.80263 0.0500 Uiso
O8_4 O 0.02197 0.48202 0.70108 0.0500 Uiso
N1_4 N 0.31064 0.46698 0.83980 0.0500 Uiso
N2_4 N 0.15874 0.49603 0.68688 0.0500 Uiso
C1_4 C 0.19571 0.49792 0.75950 0.0500 Uiso
C2_4 C 0.17520 0.50289 0.73724 0.0500 Uiso
H1_4 H 0.15629 0.51659 0.74163 0.0500 Uiso
C3_4 C 0.28642 0.47606 0.91652 0.0500 Uiso
H2_4 H 0.26703 0.47477 0.93018 0.0500 Uiso
C4_4 C 0.19238 0.51575 0.61572 0.0500 Uiso
H3_4 H 0.21345 0.52032 0.60576 0.0500 Uiso
C5_4 C 0.28356 0.47001 0.88647 0.0500 Uiso
H4_4 H 0.26250 0.46408 0.87727 0.0500 Uiso
C6_4 C 0.19148 0.50979 0.64591 0.0500 Uiso
H5_4 H 0.21142 0.51024 0.65874 0.0500 Uiso
C7_4 C 0.30858 0.47177 0.86901 0.0500 Uiso
C8_4 C 0.16439 0.50321 0.65856 0.0500 Uiso
C9_4 C 0.33548 0.47925 0.88075 0.0500 Uiso
C10_4 C 0.13900 0.50368 0.64211 0.0500 Uiso
C11_4 C 0.33897 0.48572 0.91045 0.0500 Uiso
H6_4 H 0.36028 0.49183 0.91898 0.0500 Uiso
C12_4 C 0.13915 0.50942 0.61207 0.0500 Uiso
H7_4 H 0.11892 0.50887 0.59964 0.0500 Uiso
C13_4 C 0.31397 0.48402 0.92879 0.0500 Uiso
C14_4 C 0.16644 0.51521 0.59846 0.0500 Uiso
C15_4 C 0.31782 0.48588 0.96036 0.0500 Uiso
C16_4 C 0.16944 0.51634 0.56679 0.0500 Uiso
C17_4 C 0.43006 0.48854 0.82690 0.0500 Uiso
C18_4 C 0.03706 0.48526 0.67814 0.0500 Uiso
C19_4 C 0.39850 0.48618 0.82828 0.0500 Uiso
C20_4 C 0.06878 0.48541 0.68062 0.0500 Uiso
C21_4 C 0.38473 0.48676 0.85612 0.0500 Uiso
H8_4 H 0.39655 0.49316 0.87571 0.0500 Uiso
C22_4 C 0.08647 0.49350 0.65646 0.0500 Uiso
H9_4 H 0.07717 0.49724 0.63492 0.0500 Uiso
C23_4 C 0.35508 0.47935 0.85766 0.0500 Uiso
C24_4 C 0.11651 0.49673 0.66107 0.0500 Uiso
C25_4 C 0.33917 0.47170 0.83307 0.0500 Uiso
C26_4 C 0.12927 0.49218 0.68816 0.0500 Uiso
C27_4 C 0.35212 0.47093 0.80539 0.0500 Uiso
H10_4 H 0.33960 0.46531 0.78602 0.0500 Uiso
C28_4 C 0.11246 0.48355 0.71224 0.0500 Uiso
H11_4 H 0.12230 0.47920 0.73338 0.0500 Uiso
C29_4 C 0.38198 0.47803 0.80314 0.0500 Uiso
H12_4 H 0.39205 0.47762 0.78162 0.0500 Uiso
C30_4 C 0.08205 0.48042 0.70837 0.0500 Uiso
H13_4 H 0.06892 0.47388 0.72705 0.0500 Uiso
C31_4 C 0.28700 0.46878 0.81985 0.0500 Uiso
C32_4 C 0.17936 0.49073 0.70932 0.0500 Uiso
C33_4 C 0.28261 0.44733 0.79836 0.0500 Uiso
H14_4 H 0.29654 0.42810 0.79770 0.0500 Uiso
C34_4 C 0.20402 0.47315 0.70405 0.0500 Uiso
H15_4 H 0.20738 0.46334 0.68268 0.0500 Uiso
C35_4 C 0.26066 0.45090 0.77728 0.0500 Uiso
H16_4 H 0.25773 0.43393 0.76094 0.0500 Uiso
C36_4 C 0.22472 0.46848 0.72609 0.0500 Uiso
H17_4 H 0.24406 0.45573 0.72089 0.0500 Uiso
C37_4 C 0.24308 0.47633 0.77707 0.0500 Uiso
C38_4 C 0.22094 0.48093 0.75409 0.0500 Uiso
C39_4 C 0.26887 0.49355 0.82057 0.0500 Uiso
C40_4 C 0.24719 0.49741 0.79927 0.0500 Uiso
H18_4 H 0.23266 0.51776 0.79977 0.0000 Uiso
H19_4 H 0.27185 0.51060 0.83862 0.0000 Uiso
H20_4 H 0.19207 0.50765 0.78226 0.0000 Uiso
Cu5_4 Cu 0.48502 0.48964 0.85130 0.0500 Uiso
Cu8_4 Cu 0.48301 0.48241 0.79715 0.0500 Uiso
Cu4_4 Cu 0.98502 0.48964 0.64870 0.0500 Uiso
Cu7_4 Cu 0.98301 0.48241 0.70285 0.0500 Uiso
O1_5 O 0.02295 0.79585 0.01584 0.0500 Uiso
O3_5 O 0.02906 0.84413 0.01392 0.0500 Uiso
O5_5 O 0.14893 0.94472 0.00970 0.0500 Uiso
O7_5 O 0.19737 0.94310 0.01446 0.0500 Uiso
N1_5 N 0.16020 0.81064 0.03302 0.0500 Uiso
N2_5 N 0.31312 0.65874 0.00397 0.0500 Uiso
C1_5 C 0.24050 0.69571 0.00208 0.0500 Uiso
C3_5 C 0.08348 0.78642 0.02394 0.0500 Uiso
H2_5 H 0.06982 0.76703 0.02523 0.0500 Uiso
C5_5 C 0.11353 0.78356 0.02999 0.0500 Uiso
H4_5 H 0.12273 0.76250 0.03592 0.0500 Uiso
C7_5 C 0.13099 0.80858 0.02823 0.0500 Uiso
C9_5 C 0.11925 0.83548 0.02075 0.0500 Uiso
C11_5 C 0.08955 0.83897 0.01428 0.0500 Uiso
H6_5 H 0.08102 0.86028 0.00817 0.0500 Uiso
C13_5 C 0.07121 0.81397 0.01598 0.0500 Uiso
C15_5 C 0.03964 0.81782 0.01412 0.0500 Uiso
C17_5 C 0.17310 0.93006 0.01146 0.0500 Uiso
C18_5 C 0.32186 0.53706 0.01474 0.0500 Uiso
C19_5 C 0.17172 0.89850 0.01382 0.0500 Uiso
C20_5 C 0.31938 0.56878 0.01459 0.0500 Uiso
C21_5 C 0.14388 0.88473 0.01324 0.0500 Uiso
H8_5 H 0.12429 0.89655 0.00684 0.0500 Uiso
C22_5 C 0.34354 0.58647 0.00650 0.0500 Uiso
H9_5 H 0.36508 0.57717 0.00276 0.0500 Uiso
C23_5 C 0.14234 0.85508 0.02065 0.0500 Uiso
C24_5 C 0.33893 0.61651 0.00327 0.0500 Uiso
C25_5 C 0.16693 0.83917 0.02830 0.0500 Uiso
C26_5 C 0.31184 0.62927 0.00782 0.0500 Uiso
C27_5 C 0.19461 0.85212 0.02907 0.0500 Uiso
H10_5 H 0.21398 0.83960 0.03469 0.0500 Uiso
C28_5 C 0.28776 0.61246 0.01645 0.0500 Uiso
H11_5 H 0.26662 0.62230 0.02080 0.0500 Uiso
C29_5 C 0.19686 0.88198 0.02197 0.0500 Uiso
H12_5 H 0.21838 0.89205 0.02238 0.0500 Uiso
C30_5 C 0.29163 0.58205 0.01958 0.0500 Uiso
H13_5 H 0.27295 0.56892 0.02612 0.0500 Uiso
C31_5 C 0.18015 0.78700 0.03122 0.0500 Uiso
C32_5 C 0.29068 0.67936 0.00927 0.0500 Uiso
C33_5 C 0.20164 0.78261 0.05267 0.0500 Uiso
H14_5 H 0.20230 0.79654 0.07190 0.0500 Uiso
C34_5 C 0.29595 0.70402 0.02685 0.0500 Uiso
H15_5 H 0.31732 0.70738 0.03666 0.0500 Uiso
C35_5 C 0.22272 0.76066 0.04910 0.0500 Uiso
H16_5 H 0.23906 0.75773 0.06607 0.0500 Uiso
C36_5 C 0.27391 0.72472 0.03152 0.0500 Uiso
H17_5 H 0.27911 0.74406 0.04427 0.0500 Uiso
C37_5 C 0.22293 0.74308 0.02367 0.0500 Uiso
C38_5 C 0.24591 0.72094 0.01907 0.0500 Uiso
C39_5 C 0.17943 0.76887 0.00645 0.0500 Uiso
C40_5 C 0.20073 0.74719 0.00259 0.0500 Uiso
Cu5_5 Cu 0.14870 0.98502 0.01036 0.0500 Uiso
Cu8_5 Cu 0.20285 0.98301 0.01759 0.0500 Uiso
O2_3 O 0.44439 0.69470 0.98169 0.0500 Uiso
O4_3 O 0.44960 0.64637 0.98458 0.0500 Uiso
C2_5 C 0.26276 0.67520 0.99711 0.0500 Uiso
H1_5 H 0.25837 0.65629 0.98341 0.0500 Uiso
C4_5 C 0.38428 0.69238 0.98425 0.0500 Uiso
H3_5 H 0.39424 0.71345 0.97968 0.0500 Uiso
C6_5 C 0.35409 0.69148 0.99021 0.0500 Uiso
H5_5 H 0.34126 0.71142 0.98976 0.0500 Uiso
C8_5 C 0.34144 0.66439 0.99679 0.0500 Uiso
C10_5 C 0.35789 0.63900 0.99632 0.0500 Uiso
C12_5 C 0.38793 0.63915 0.99058 0.0500 Uiso
H7_5 H 0.40036 0.61892 0.99113 0.0500 Uiso
C14_5 C 0.40154 0.66644 0.98479 0.0500 Uiso
C16_5 C 0.43321 0.66944 0.98366 0.0500 Uiso
H18_5 H 0.20023 0.73266 0.98224 0.0000 Uiso
H19_5 H 0.16138 0.77185 0.98940 0.0000 Uiso
H20_5 H 0.21774 0.69207 0.99235 0.0000 Uiso
Cu3_3 Cu 0.48964 0.64870 0.98502 0.0500 Uiso
Cu6_3 Cu 0.48241 0.70285 0.98301 0.0500 Uiso
Cu1_3 Cu 0.98964 0.85130 0.01498 0.0500 Uiso
Cu2_3 Cu 0.98241 0.79715 0.01699 0.0500 Uiso
O9_3 O 0.94439 0.80530 0.01831 0.0500 Uiso
O10_3 O 0.94960 0.85363 0.01542 0.0500 Uiso
O11_5 O 0.99030 0.85107 0.05528 0.0500 Uiso
O13_5 O 0.98554 0.80263 0.05690 0.0500 Uiso
O12_5 O 0.98889 0.84708 0.97536 0.0500 Uiso
O14_5 O 0.98202 0.79892 0.97803 0.0500 Uiso
C2_6 C 0.76276 0.82480 0.00289 0.0500 Uiso
H1_6 H 0.75837 0.84371 0.01659 0.0500 Uiso
C4_6 C 0.88428 0.80762 0.01575 0.0500 Uiso
H3_6 H 0.89424 0.78655 0.02032 0.0500 Uiso
C6_6 C 0.85409 0.80852 0.00979 0.0500 Uiso
H5_6 H 0.84126 0.78858 0.01024 0.0500 Uiso
C8_6 C 0.84144 0.83561 0.00321 0.0500 Uiso
C10_6 C 0.85789 0.86100 0.00368 0.0500 Uiso
C12_6 C 0.88793 0.86085 0.00942 0.0500 Uiso
H7_6 H 0.90036 0.88108 0.00887 0.0500 Uiso
C14_6 C 0.90154 0.83356 0.01521 0.0500 Uiso
C16_6 C 0.93321 0.83056 0.01634 0.0500 Uiso
H18_6 H 0.70023 0.76734 0.01776 0.0000 Uiso
H19_6 H 0.66138 0.72815 0.01060 0.0000 Uiso
H20_6 H 0.71774 0.80793 0.00765 0.0000 Uiso
O12_6 O 0.48889 0.65292 0.02464 0.0500 Uiso
O14_6 O 0.48202 0.70108 0.02197 0.0500 Uiso
O1_6 O 0.52295 0.70415 0.98416 0.0500 Uiso
O3_6 O 0.52906 0.65587 0.98608 0.0500 Uiso
O5_6 O 0.64893 0.55528 0.99030 0.0500 Uiso
O7_6 O 0.69737 0.55690 0.98554 0.0500 Uiso
N1_6 N 0.66020 0.68936 0.96698 0.0500 Uiso
N2_6 N 0.81312 0.84126 0.99603 0.0500 Uiso
C1_6 C 0.74050 0.80429 0.99792 0.0500 Uiso
C3_6 C 0.58348 0.71358 0.97606 0.0500 Uiso
H2_6 H 0.56982 0.73297 0.97477 0.0500 Uiso
C5_6 C 0.61353 0.71644 0.97001 0.0500 Uiso
H4_6 H 0.62273 0.73750 0.96408 0.0500 Uiso
C7_6 C 0.63099 0.69142 0.97177 0.0500 Uiso
C9_6 C 0.61925 0.66452 0.97925 0.0500 Uiso
C11_6 C 0.58955 0.66103 0.98572 0.0500 Uiso
H6_6 H 0.58102 0.63972 0.99183 0.0500 Uiso
C13_6 C 0.57121 0.68603 0.98402 0.0500 Uiso
C15_6 C 0.53964 0.68218 0.98588 0.0500 Uiso
C17_6 C 0.67310 0.56994 0.98854 0.0500 Uiso
C18_6 C 0.82186 0.96294 0.98526 0.0500 Uiso
C19_6 C 0.67172 0.60150 0.98618 0.0500 Uiso
C20_6 C 0.81938 0.93122 0.98541 0.0500 Uiso
C21_6 C 0.64388 0.61527 0.98676 0.0500 Uiso
H8_6 H 0.62429 0.60345 0.99316 0.0500 Uiso
C22_6 C 0.84354 0.91353 0.99350 0.0500 Uiso
H9_6 H 0.86508 0.92283 0.99724 0.0500 Uiso
C23_6 C 0.64234 0.64492 0.97935 0.0500 Uiso
C24_6 C 0.83893 0.88349 0.99673 0.0500 Uiso
C25_6 C 0.66693 0.66083 0.97170 0.0500 Uiso
C26_6 C 0.81184 0.87073 0.99218 0.0500 Uiso
C27_6 C 0.69461 0.64788 0.97093 0.0500 Uiso
H10_6 H 0.71398 0.66040 0.96531 0.0500 Uiso
C28_6 C 0.78776 0.88754 0.98355 0.0500 Uiso
H11_6 H 0.76662 0.87770 0.97920 0.0500 Uiso
C29_6 C 0.69686 0.61802 0.97803 0.0500 Uiso
H12_6 H 0.71838 0.60795 0.97762 0.0500 Uiso
C30_6 C 0.79163 0.91795 0.98042 0.0500 Uiso
H13_6 H 0.77295 0.93108 0.97388 0.0500 Uiso
C31_6 C 0.68015 0.71300 0.96878 0.0500 Uiso
C32_6 C 0.79068 0.82064 0.99073 0.0500 Uiso
C33_6 C 0.70164 0.71739 0.94733 0.0500 Uiso
H14_6 H 0.70230 0.70346 0.92810 0.0500 Uiso
C34_6 C 0.79595 0.79598 0.97315 0.0500 Uiso
H15_6 H 0.81732 0.79262 0.96334 0.0500 Uiso
C35_6 C 0.72272 0.73934 0.95090 0.0500 Uiso
H16_6 H 0.73906 0.74227 0.93393 0.0500 Uiso
C36_6 C 0.77391 0.77528 0.96848 0.0500 Uiso
H17_6 H 0.77911 0.75594 0.95573 0.0500 Uiso
C37_6 C 0.72293 0.75692 0.97633 0.0500 Uiso
C38_6 C 0.74591 0.77906 0.98093 0.0500 Uiso
C39_6 C 0.67943 0.73113 0.99355 0.0500 Uiso
C40_6 C 0.70073 0.75281 0.99741 0.0500 Uiso
O11_6 O 0.49030 0.64893 0.94472 0.0500 Uiso
O13_6 O 0.48554 0.69737 0.94310 0.0500 Uiso
Cu5_6 Cu 0.64870 0.51498 0.98964 0.0500 Uiso
Cu8_6 Cu 0.70285 0.51699 0.98241 0.0500 Uiso
O1_7 O 0.47705 0.20415 0.51584 0.0500 Uiso
O2_4 O 0.05561 0.30530 0.48169 0.0500 Uiso
O3_7 O 0.47094 0.15587 0.51392 0.0500 Uiso
O4_4 O 0.05040 0.35363 0.48458 0.0500 Uiso
O5_7 O 0.35107 0.05528 0.50970 0.0500 Uiso
O7_7 O 0.30263 0.05690 0.51446 0.0500 Uiso
N1_7 N 0.33980 0.18936 0.53302 0.0500 Uiso
N2_7 N 0.18688 0.34126 0.50397 0.0500 Uiso
C1_7 C 0.25950 0.30429 0.50208 0.0500 Uiso
C2_7 C 0.23724 0.32480 0.49711 0.0500 Uiso
H1_7 H 0.24163 0.34371 0.48341 0.0500 Uiso
C3_7 C 0.41652 0.21358 0.52394 0.0500 Uiso
H2_7 H 0.43018 0.23297 0.52523 0.0500 Uiso
C4_7 C 0.11572 0.30762 0.48425 0.0500 Uiso
H3_7 H 0.10576 0.28655 0.47968 0.0500 Uiso
C5_7 C 0.38647 0.21644 0.52999 0.0500 Uiso
H4_7 H 0.37727 0.23750 0.53592 0.0500 Uiso
C6_7 C 0.14591 0.30852 0.49021 0.0500 Uiso
H5_7 H 0.15874 0.28858 0.48976 0.0500 Uiso
C7_7 C 0.36901 0.19142 0.52823 0.0500 Uiso
C8_7 C 0.15856 0.33561 0.49679 0.0500 Uiso
C9_7 C 0.38075 0.16452 0.52075 0.0500 Uiso
C10_7 C 0.14211 0.36100 0.49632 0.0500 Uiso
C11_7 C 0.41045 0.16103 0.51428 0.0500 Uiso
H6_7 H 0.41898 0.13972 0.50817 0.0500 Uiso
C12_7 C 0.11207 0.36085 0.49058 0.0500 Uiso
H7_7 H 0.09964 0.38108 0.49113 0.0500 Uiso
C13_7 C 0.42879 0.18603 0.51598 0.0500 Uiso
C14_7 C 0.09846 0.33356 0.48479 0.0500 Uiso
C15_7 C 0.46036 0.18218 0.51412 0.0500 Uiso
C16_7 C 0.06679 0.33056 0.48366 0.0500 Uiso
C17_7 C 0.32690 0.06994 0.51146 0.0500 Uiso
C18_7 C 0.17814 0.46294 0.51474 0.0500 Uiso
C19_7 C 0.32828 0.10150 0.51382 0.0500 Uiso
C20_7 C 0.18062 0.43122 0.51459 0.0500 Uiso
C21_7 C 0.35612 0.11527 0.51324 0.0500 Uiso
H8_7 H 0.37571 0.10345 0.50684 0.0500 Uiso
C22_7 C 0.15646 0.41353 0.50650 0.0500 Uiso
H9_7 H 0.13492 0.42283 0.50276 0.0500 Uiso
C23_7 C 0.35766 0.14492 0.52065 0.0500 Uiso
C24_7 C 0.16107 0.38349 0.50327 0.0500 Uiso
C25_7 C 0.33307 0.16083 0.52830 0.0500 Uiso
C26_7 C 0.18816 0.37073 0.50782 0.0500 Uiso
C27_7 C 0.30539 0.14788 0.52907 0.0500 Uiso
H10_7 H 0.28602 0.16040 0.53469 0.0500 Uiso
C28_7 C 0.21224 0.38754 0.51645 0.0500 Uiso
H11_7 H 0.23338 0.37770 0.52080 0.0500 Uiso
C29_7 C 0.30314 0.11802 0.52197 0.0500 Uiso
H12_7 H 0.28162 0.10795 0.52238 0.0500 Uiso
C30_7 C 0.20837 0.41795 0.51958 0.0500 Uiso
H13_7 H 0.22705 0.43108 0.52612 0.0500 Uiso
C31_7 C 0.31985 0.21300 0.53122 0.0500 Uiso
C32_7 C 0.20932 0.32064 0.50927 0.0500 Uiso
C33_7 C 0.29836 0.21739 0.55267 0.0500 Uiso
H14_7 H 0.29770 0.20346 0.57190 0.0500 Uiso
C34_7 C 0.20405 0.29598 0.52685 0.0500 Uiso
H15_7 H 0.18268 0.29262 0.53666 0.0500 Uiso
C35_7 C 0.27728 0.23934 0.54910 0.0500 Uiso
H16_7 H 0.26094 0.24227 0.56607 0.0500 Uiso
C36_7 C 0.22609 0.27528 0.53152 0.0500 Uiso
H17_7 H 0.22089 0.25594 0.54427 0.0500 Uiso
C37_7 C 0.27707 0.25692 0.52367 0.0500 Uiso
C38_7 C 0.25409 0.27906 0.51907 0.0500 Uiso
C39_7 C 0.32057 0.23113 0.50645 0.0500 Uiso
C40_7 C 0.29927 0.25281 0.50259 0.0500 Uiso
H18_7 H 0.29977 0.26734 0.48224 0.0000 Uiso
H19_7 H 0.33862 0.22815 0.48940 0.0000 Uiso
H20_7 H 0.28226 0.30793 0.49235 0.0000 Uiso
Cu1_4 Cu 0.51036 0.14870 0.51498 0.0500 Uiso
Cu2_4 Cu 0.51759 0.20285 0.51699 0.0500 Uiso
O9_4 O 0.55561 0.19470 0.51831 0.0500 Uiso
O10_4 O 0.55040 0.14637 0.51542 0.0500 Uiso
O11_7 O 0.50970 0.14893 0.55528 0.0500 Uiso
O12_7 O 0.51111 0.15292 0.47536 0.0500 Uiso
O13_7 O 0.51446 0.19737 0.55690 0.0500 Uiso
O14_7 O 0.51798 0.20108 0.47803 0.0500 Uiso
Cu3_4 Cu 0.01036 0.35130 0.48502 0.0500 Uiso
Cu5_7 Cu 0.35130 0.01498 0.51036 0.0500 Uiso
Cu6_4 Cu 0.01759 0.29715 0.48301 0.0500 Uiso
Cu8_7 Cu 0.29715 0.01699 0.51759 0.0500 Uiso
O11_8 O 0.00970 0.35107 0.44472 0.0500 Uiso
O12_8 O 0.01111 0.34708 0.52464 0.0500 Uiso
O13_8 O 0.01446 0.30263 0.44310 0.0500 Uiso
O14_8 O 0.01798 0.29892 0.52197 0.0500 Uiso
O1_8 O 0.97705 0.29585 0.48416 0.0500 Uiso
O3_8 O 0.97094 0.34413 0.48608 0.0500 Uiso
O5_8 O 0.85107 0.44472 0.49030 0.0500 Uiso
O7_8 O 0.80263 0.44310 0.48554 0.0500 Uiso
N1_8 N 0.83980 0.31064 0.46698 0.0500 Uiso
N2_8 N 0.68688 0.15874 0.49603 0.0500 Uiso
C1_8 C 0.75950 0.19571 0.49792 0.0500 Uiso
C2_8 C 0.73724 0.17520 0.50289 0.0500 Uiso
H1_8 H 0.74163 0.15629 0.51659 0.0500 Uiso
C3_8 C 0.91652 0.28642 0.47606 0.0500 Uiso
H2_8 H 0.93018 0.26703 0.47477 0.0500 Uiso
C4_8 C 0.61572 0.19238 0.51575 0.0500 Uiso
H3_8 H 0.60576 0.21345 0.52032 0.0500 Uiso
C5_8 C 0.88647 0.28356 0.47001 0.0500 Uiso
H4_8 H 0.87727 0.26250 0.46408 0.0500 Uiso
C6_8 C 0.64591 0.19148 0.50979 0.0500 Uiso
H5_8 H 0.65874 0.21142 0.51024 0.0500 Uiso
C7_8 C 0.86901 0.30858 0.47177 0.0500 Uiso
C8_8 C 0.65856 0.16439 0.50321 0.0500 Uiso
C9_8 C 0.88075 0.33548 0.47925 0.0500 Uiso
C10_8 C 0.64211 0.13900 0.50368 0.0500 Uiso
C11_8 C 0.91045 0.33897 0.48572 0.0500 Uiso
H6_8 H 0.91898 0.36028 0.49183 0.0500 Uiso
C12_8 C 0.61207 0.13915 0.50942 0.0500 Uiso
H7_8 H 0.59964 0.11892 0.50887 0.0500 Uiso
C13_8 C 0.92879 0.31397 0.48402 0.0500 Uiso
C14_8 C 0.59846 0.16644 0.51521 0.0500 Uiso
C15_8 C 0.96036 0.31782 0.48588 0.0500 Uiso
C16_8 C 0.56679 0.16944 0.51634 0.0500 Uiso
C17_8 C 0.82690 0.43006 0.48854 0.0500 Uiso
C18_8 C 0.67814 0.03706 0.48526 0.0500 Uiso
C19_8 C 0.82828 0.39850 0.48618 0.0500 Uiso
C20_8 C 0.68062 0.06878 0.48541 0.0500 Uiso
C21_8 C 0.85612 0.38473 0.48676 0.0500 Uiso
H8_8 H 0.87571 0.39655 0.49316 0.0500 Uiso
C22_8 C 0.65646 0.08647 0.49350 0.0500 Uiso
H9_8 H 0.63492 0.07717 0.49724 0.0500 Uiso
C23_8 C 0.85766 0.35508 0.47935 0.0500 Uiso
C24_8 C 0.66107 0.11651 0.49673 0.0500 Uiso
C25_8 C 0.83307 0.33917 0.47170 0.0500 Uiso
C26_8 C 0.68816 0.12927 0.49218 0.0500 Uiso
C27_8 C 0.80539 0.35212 0.47093 0.0500 Uiso
H10_8 H 0.78602 0.33960 0.46531 0.0500 Uiso
C28_8 C 0.71224 0.11246 0.48355 0.0500 Uiso
H11_8 H 0.73338 0.12230 0.47920 0.0500 Uiso
C29_8 C 0.80314 0.38198 0.47803 0.0500 Uiso
H12_8 H 0.78162 0.39205 0.47762 0.0500 Uiso
C30_8 C 0.70837 0.08205 0.48042 0.0500 Uiso
H13_8 H 0.72705 0.06892 0.47388 0.0500 Uiso
C31_8 C 0.81985 0.28700 0.46878 0.0500 Uiso
C32_8 C 0.70932 0.17936 0.49073 0.0500 Uiso
C33_8 C 0.79836 0.28261 0.44733 0.0500 Uiso
H14_8 H 0.79770 0.29654 0.42810 0.0500 Uiso
C34_8 C 0.70405 0.20402 0.47315 0.0500 Uiso
H15_8 H 0.68268 0.20738 0.46334 0.0500 Uiso
C35_8 C 0.77728 0.26066 0.45090 0.0500 Uiso
H16_8 H 0.76094 0.25773 0.43393 0.0500 Uiso
C36_8 C 0.72609 0.22472 0.46848 0.0500 Uiso
H17_8 H 0.72089 0.24406 0.45573 0.0500 Uiso
C37_8 C 0.77707 0.24308 0.47633 0.0500 Uiso
C38_8 C 0.75409 0.22094 0.48093 0.0500 Uiso
C39_8 C 0.82057 0.26887 0.49355 0.0500 Uiso
C40_8 C 0.79927 0.24719 0.49741 0.0500 Uiso
H18_8 H 0.79977 0.23266 0.51776 0.0000 Uiso
H19_8 H 0.83862 0.27185 0.51060 0.0000 Uiso
H20_8 H 0.78226 0.19207 0.50765 0.0000 Uiso
Cu5_8 Cu 0.85130 0.48502 0.48964 0.0500 Uiso
Cu8_8 Cu 0.79715 0.48301 0.48241 0.0500 Uiso
O1_9 O 0.01584 0.02295 0.79585 0.0500 Uiso
O3_9 O 0.01392 0.02906 0.84413 0.0500 Uiso
O5_9 O 0.00970 0.14893 0.94472 0.0500 Uiso
O7_9 O 0.01446 0.19737 0.94310 0.0500 Uiso
N1_9 N 0.03302 0.16020 0.81064 0.0500 Uiso
N2_9 N 0.00397 0.31312 0.65874 0.0500 Uiso
C1_9 C 0.00208 0.24050 0.69571 0.0500 Uiso
C3_9 C 0.02394 0.08348 0.78642 0.0500 Uiso
H2_9 H 0.02523 0.06982 0.76703 0.0500 Uiso
C5_9 C 0.02999 0.11353 0.78356 0.0500 Uiso
H4_9 H 0.03592 0.12273 0.76250 0.0500 Uiso
C7_9 C 0.02823 0.13099 0.80858 0.0500 Uiso
C9_9 C 0.02075 0.11925 0.83548 0.0500 Uiso
C11_9 C 0.01428 0.08955 0.83897 0.0500 Uiso
H6_9 H 0.00817 0.08102 0.86028 0.0500 Uiso
C13_9 C 0.01598 0.07121 0.81397 0.0500 Uiso
C15_9 C 0.01412 0.03964 0.81782 0.0500 Uiso
C17_9 C 0.01146 0.17310 0.93006 0.0500 Uiso
C18_9 C 0.01474 0.32186 0.53706 0.0500 Uiso
C19_9 C 0.01382 0.17172 0.89850 0.0500 Uiso
C20_9 C 0.01459 0.31938 0.56878 0.0500 Uiso
C21_9 C 0.01324 0.14388 0.88473 0.0500 Uiso
H8_9 H 0.00684 0.12429 0.89655 0.0500 Uiso
C22_9 C 0.00650 0.34354 0.58647 0.0500 Uiso
H9_9 H 0.00276 0.36508 0.57717 0.0500 Uiso
C23_9 C 0.02065 0.14234 0.85508 0.0500 Uiso
C24_9 C 0.00327 0.33893 0.61651 0.0500 Uiso
C25_9 C 0.02830 0.16693 0.83917 0.0500 Uiso
C26_9 C 0.00782 0.31184 0.62927 0.0500 Uiso
C27_9 C 0.02907 0.19461 0.85212 0.0500 Uiso
H10_9 H 0.03469 0.21398 0.83960 0.0500 Uiso
C28_9 C 0.01645 0.28776 0.61246 0.0500 Uiso
H11_9 H 0.02080 0.26662 0.62230 0.0500 Uiso
C29_9 C 0.02197 0.19686 0.88198 0.0500 Uiso
H12_9 H 0.02238 0.21838 0.89205 0.0500 Uiso
C30_9 C 0.01958 0.29163 0.58205 0.0500 Uiso
H13_9 H 0.02612 0.27295 0.56892 0.0500 Uiso
C31_9 C 0.03122 0.18015 0.78700 0.0500 Uiso
C32_9 C 0.00927 0.29068 0.67936 0.0500 Uiso
C33_9 C 0.05267 0.20164 0.78261 0.0500 Uiso
H14_9 H 0.07190 0.20230 0.79654 0.0500 Uiso
C34_9 C 0.02685 0.29595 0.70402 0.0500 Uiso
H15_9 H 0.03666 0.31732 0.70738 0.0500 Uiso
C35_9 C 0.04910 0.22272 0.76066 0.0500 Uiso
H16_9 H 0.06607 0.23906 0.75773 0.0500 Uiso
C36_9 C 0.03152 0.27391 0.72472 0.0500 Uiso
H17_9 H 0.04427 0.27911 0.74406 0.0500 Uiso
C37_9 C 0.02367 0.22293 0.74308 0.0500 Uiso
C38_9 C 0.01907 0.24591 0.72094 0.0500 Uiso
C39_9 C 0.00645 0.17943 0.76887 0.0500 Uiso
C40_9 C 0.00259 0.20073 0.74719 0.0500 Uiso
Cu5_9 Cu 0.01036 0.14870 0.98502 0.0500 Uiso
Cu8_9 Cu 0.01759 0.20285 0.98301 0.0500 Uiso
O9_5 O 0.01831 0.94439 0.80530 0.0500 Uiso
O10_5 O 0.01542 0.94960 0.85363 0.0500 Uiso
O11_9 O 0.05528 0.99030 0.85107 0.0500 Uiso
O13_9 O 0.05690 0.98554 0.80263 0.0500 Uiso
O2_5 O 0.98169 0.44439 0.69470 0.0500 Uiso
O4_5 O 0.98458 0.44960 0.64637 0.0500 Uiso
C2_9 C 0.99711 0.26276 0.67520 0.0500 Uiso
H1_9 H 0.98341 0.25837 0.65629 0.0500 Uiso
C4_9 C 0.98425 0.38428 0.69238 0.0500 Uiso
H3_9 H 0.97968 0.39424 0.71345 0.0500 Uiso
C6_9 C 0.99021 0.35409 0.69148 0.0500 Uiso
H5_9 H 0.98976 0.34126 0.71142 0.0500 Uiso
C8_9 C 0.99679 0.34144 0.66439 0.0500 Uiso
C10_9 C 0.99632 0.35789 0.63900 0.0500 Uiso
C12_9 C 0.99058 0.38793 0.63915 0.0500 Uiso
H7_9 H 0.99113 0.40036 0.61892 0.0500 Uiso
C14_9 C 0.98479 0.40154 0.66644 0.0500 Uiso
C16_9 C 0.98366 0.43321 0.66944 0.0500 Uiso
H18_9 H 0.98224 0.20023 0.73266 0.0000 Uiso
H19_9 H 0.98940 0.16138 0.77185 0.0000 Uiso
H20_9 H 0.99235 0.21774 0.69207 0.0000 Uiso
C2_10 C 0.00289 0.76276 0.82480 0.0500 Uiso
H1_10 H 0.01659 0.75837 0.84371 0.0500 Uiso
C4_10 C 0.01575 0.88428 0.80762 0.0500 Uiso
H3_10 H 0.02032 0.89424 0.78655 0.0500 Uiso
C6_10 C 0.00979 0.85409 0.80852 0.0500 Uiso
H5_10 H 0.01024 0.84126 0.78858 0.0500 Uiso
C8_10 C 0.00321 0.84144 0.83561 0.0500 Uiso
C10_10 C 0.00368 0.85789 0.86100 0.0500 Uiso
C12_10 C 0.00942 0.88793 0.86085 0.0500 Uiso
H7_10 H 0.00887 0.90036 0.88108 0.0500 Uiso
C14_10 C 0.01521 0.90154 0.83356 0.0500 Uiso
C16_10 C 0.01634 0.93321 0.83056 0.0500 Uiso
H18_10 H 0.01776 0.70023 0.76734 0.0000 Uiso
H19_10 H 0.01060 0.66138 0.72815 0.0000 Uiso
H20_10 H 0.00765 0.71774 0.80793 0.0000 Uiso
O1_10 O 0.98416 0.52295 0.70415 0.0500 Uiso
O3_10 O 0.98608 0.52906 0.65587 0.0500 Uiso
O5_10 O 0.99030 0.64893 0.55528 0.0500 Uiso
O7_10 O 0.98554 0.69737 0.55690 0.0500 Uiso
N1_10 N 0.96698 0.66020 0.68936 0.0500 Uiso
N2_10 N 0.99603 0.81312 0.84126 0.0500 Uiso
C1_10 C 0.99792 0.74050 0.80429 0.0500 Uiso
C3_10 C 0.97606 0.58348 0.71358 0.0500 Uiso
H2_10 H 0.97477 0.56982 0.73297 0.0500 Uiso
C5_10 C 0.97001 0.61353 0.71644 0.0500 Uiso
H4_10 H 0.96408 0.62273 0.73750 0.0500 Uiso
C7_10 C 0.97177 0.63099 0.69142 0.0500 Uiso
C9_10 C 0.97925 0.61925 0.66452 0.0500 Uiso
C11_10 C 0.98572 0.58955 0.66103 0.0500 Uiso
H6_10 H 0.99183 0.58102 0.63972 0.0500 Uiso
C13_10 C 0.98402 0.57121 0.68603 0.0500 Uiso
C15_10 C 0.98588 0.53964 0.68218 0.0500 Uiso
C17_10 C 0.98854 0.67310 0.56994 0.0500 Uiso
C18_10 C 0.98526 0.82186 0.96294 0.0500 Uiso
C19_10 C 0.98618 0.67172 0.60150 0.0500 Uiso
C20_10 C 0.98541 0.81938 0.93122 0.0500 Uiso
C21_10 C 0.98676 0.64388 0.61527 0.0500 Uiso
H8_10 H 0.99316 0.62429 0.60345 0.0500 Uiso
C22_10 C 0.99350 0.84354 0.91353 0.0500 Uiso
H9_10 H 0.99724 0.86508 0.92283 0.0500 Uiso
C23_10 C 0.97935 0.64234 0.64492 0.0500 Uiso
C24_10 C 0.99673 0.83893 0.88349 0.0500 Uiso
C25_10 C 0.97170 0.66693 0.66083 0.0500 Uiso
C26_10 C 0.99218 0.81184 0.87073 0.0500 Uiso
C27_10 C 0.97093 0.69461 0.64788 0.0500 Uiso
H10_10 H 0.96531 0.71398 0.66040 0.0500 Uiso
C28_10 C 0.98355 0.78776 0.88754 0.0500 Uiso
H11_10 H 0.97920 0.76662 0.87770 0.0500 Uiso
C29_10 C 0.97803 0.69686 0.61802 0.0500 Uiso
H12_10 H 0.97762 0.71838 0.60795 0.0500 Uiso
C30_10 C 0.98042 0.79163 0.91795 0.0500 Uiso
H13_10 H 0.97388 0.77295 0.93108 0.0500 Uiso
C31_10 C 0.96878 0.68015 0.71300 0.0500 Uiso
C32_10 C 0.99073 0.79068 0.82064 0.0500 Uiso
C33_10 C 0.94733 0.70164 0.71739 0.0500 Uiso
H14_10 H 0.92810 0.70230 0.70346 0.0500 Uiso
C34_10 C 0.97315 0.79595 0.79598 0.0500 Uiso
H15_10 H 0.96334 0.81732 0.79262 0.0500 Uiso
C35_10 C 0.95090 0.72272 0.73934 0.0500 Uiso
H16_10 H 0.93393 0.73906 0.74227 0.0500 Uiso
C36_10 C 0.96848 0.77391 0.77528 0.0500 Uiso
H17_10 H 0.95573 0.77911 0.75594 0.0500 Uiso
C37_10 C 0.97633 0.72293 0.75692 0.0500 Uiso
C38_10 C 0.98093 0.74591 0.77906 0.0500 Uiso
C39_10 C 0.99355 0.67943 0.73113 0.0500 Uiso
C40_10 C 0.99741 0.70073 0.75281 0.0500 Uiso
O11_10 O 0.94472 0.49030 0.64893 0.0500 Uiso
O13_10 O 0.94310 0.48554 0.69737 0.0500 Uiso
Cu5_10 Cu 0.98964 0.64870 0.51498 0.0500 Uiso
Cu8_10 Cu 0.98241 0.70285 0.51699 0.0500 Uiso
O1_11 O 0.51584 0.47705 0.20415 0.0500 Uiso
O2_6 O 0.48169 0.05561 0.30530 0.0500 Uiso
O3_11 O 0.51392 0.47094 0.15587 0.0500 Uiso
O4_6 O 0.48458 0.05040 0.35363 0.0500 Uiso
O5_11 O 0.50970 0.35107 0.05528 0.0500 Uiso
O7_11 O 0.51446 0.30263 0.05690 0.0500 Uiso
N1_11 N 0.53302 0.33980 0.18936 0.0500 Uiso
N2_11 N 0.50397 0.18688 0.34126 0.0500 Uiso
C1_11 C 0.50208 0.25950 0.30429 0.0500 Uiso
C2_11 C 0.49711 0.23724 0.32480 0.0500 Uiso
H1_11 H 0.48341 0.24163 0.34371 0.0500 Uiso
C3_11 C 0.52394 0.41652 0.21358 0.0500 Uiso
H2_11 H 0.52523 0.43018 0.23297 0.0500 Uiso
C4_11 C 0.48425 0.11572 0.30762 0.0500 Uiso
H3_11 H 0.47968 0.10576 0.28655 0.0500 Uiso
C5_11 C 0.52999 0.38647 0.21644 0.0500 Uiso
H4_11 H 0.53592 0.37727 0.23750 0.0500 Uiso
C6_11 C 0.49021 0.14591 0.30852 0.0500 Uiso
H5_11 H 0.48976 0.15874 0.28858 0.0500 Uiso
C7_11 C 0.52823 0.36901 0.19142 0.0500 Uiso
C8_11 C 0.49679 0.15856 0.33561 0.0500 Uiso
C9_11 C 0.52075 0.38075 0.16452 0.0500 Uiso
C10_11 C 0.49632 0.14211 0.36100 0.0500 Uiso
C11_11 C 0.51428 0.41045 0.16103 0.0500 Uiso
H6_11 H 0.50817 0.41898 0.13972 0.0500 Uiso
C12_11 C 0.49058 0.11207 0.36085 0.0500 Uiso
H7_11 H 0.49113 0.09964 0.38108 0.0500 Uiso
C13_11 C 0.51598 0.42879 0.18603 0.0500 Uiso
C14_11 C 0.48479 0.09846 0.33356 0.0500 Uiso
C15_11 C 0.51412 0.46036 0.18218 0.0500 Uiso
C16_11 C 0.48366 0.06679 0.33056 0.0500 Uiso
C17_11 C 0.51146 0.32690 0.06994 0.0500 Uiso
C18_11 C 0.51474 0.17814 0.46294 0.0500 Uiso
C19_11 C 0.51382 0.32828 0.10150 0.0500 Uiso
C20_11 C 0.51459 0.18062 0.43122 0.0500 Uiso
C21_11 C 0.51324 0.35612 0.11527 0.0500 Uiso
H8_11 H 0.50684 0.37571 0.10345 0.0500 Uiso
C22_11 C 0.50650 0.15646 0.41353 0.0500 Uiso
H9_11 H 0.50276 0.13492 0.42283 0.0500 Uiso
C23_11 C 0.52065 0.35766 0.14492 0.0500 Uiso
C24_11 C 0.50327 0.16107 0.38349 0.0500 Uiso
C25_11 C 0.52830 0.33307 0.16083 0.0500 Uiso
C26_11 C 0.50782 0.18816 0.37073 0.0500 Uiso
C27_11 C 0.52907 0.30539 0.14788 0.0500 Uiso
H10_11 H 0.53469 0.28602 0.16040 0.0500 Uiso
C28_11 C 0.51645 0.21224 0.38754 0.0500 Uiso
H11_11 H 0.52080 0.23338 0.37770 0.0500 Uiso
C29_11 C 0.52197 0.30314 0.11802 0.0500 Uiso
H12_11 H 0.52238 0.28162 0.10795 0.0500 Uiso
C30_11 C 0.51958 0.20837 0.41795 0.0500 Uiso
H13_11 H 0.52612 0.22705 0.43108 0.0500 Uiso
C31_11 C 0.53122 0.31985 0.21300 0.0500 Uiso
C32_11 C 0.50927 0.20932 0.32064 0.0500 Uiso
C33_11 C 0.55267 0.29836 0.21739 0.0500 Uiso
H14_11 H 0.57190 0.29770 0.20346 0.0500 Uiso
C34_11 C 0.52685 0.20405 0.29598 0.0500 Uiso
H15_11 H 0.53666 0.18268 0.29262 0.0500 Uiso
C35_11 C 0.54910 0.27728 0.23934 0.0500 Uiso
H16_11 H 0.56607 0.26094 0.24227 0.0500 Uiso
C36_11 C 0.53152 0.22609 0.27528 0.0500 Uiso
H17_11 H 0.54427 0.22089 0.25594 0.0500 Uiso
C37_11 C 0.52367 0.27707 0.25692 0.0500 Uiso
C38_11 C 0.51907 0.25409 0.27906 0.0500 Uiso
C39_11 C 0.50645 0.32057 0.23113 0.0500 Uiso
C40_11 C 0.50259 0.29927 0.25281 0.0500 Uiso
H18_11 H 0.48224 0.29977 0.26734 0.0000 Uiso
H19_11 H 0.48940 0.33862 0.22815 0.0000 Uiso
H20_11 H 0.49235 0.28226 0.30793 0.0000 Uiso
O9_6 O 0.51831 0.55561 0.19470 0.0500 Uiso
O10_6 O 0.51542 0.55040 0.14637 0.0500 Uiso
O11_11 O 0.55528 0.50970 0.14893 0.0500 Uiso
O13_11 O 0.55690 0.51446 0.19737 0.0500 Uiso
Cu5_11 Cu 0.51036 0.35130 0.01498 0.0500 Uiso
Cu8_11 Cu 0.51759 0.29715 0.01699 0.0500 Uiso
O11_12 O 0.44472 0.00970 0.35107 0.0500 Uiso
O13_12 O 0.44310 0.01446 0.30263 0.0500 Uiso
O1_12 O 0.48416 0.97705 0.29585 0.0500 Uiso
O3_12 O 0.48608 0.97094 0.34413 0.0500 Uiso
O5_12 O 0.49030 0.85107 0.44472 0.0500 Uiso
O7_12 O 0.48554 0.80263 0.44310 0.0500 Uiso
N1_12 N 0.46698 0.83980 0.31064 0.0500 Uiso
N2_12 N 0.49603 0.68688 0.15874 0.0500 Uiso
C1_12 C 0.49792 0.75950 0.19571 0.0500 Uiso
C2_12 C 0.50289 0.73724 0.17520 0.0500 Uiso
H1_12 H 0.51659 0.74163 0.15629 0.0500 Uiso
C3_12 C 0.47606 0.91652 0.28642 0.0500 Uiso
H2_12 H 0.47477 0.93018 0.26703 0.0500 Uiso
C4_12 C 0.51575 0.61572 0.19238 0.0500 Uiso
H3_12 H 0.52032 0.60576 0.21345 0.0500 Uiso
C5_12 C 0.47001 0.88647 0.28356 0.0500 Uiso
H4_12 H 0.46408 0.87727 0.26250 0.0500 Uiso
C6_12 C 0.50979 0.64591 0.19148 0.0500 Uiso
H5_12 H 0.51024 0.65874 0.21142 0.0500 Uiso
C7_12 C 0.47177 0.86901 0.30858 0.0500 Uiso
C8_12 C 0.50321 0.65856 0.16439 0.0500 Uiso
C9_12 C 0.47925 0.88075 0.33548 0.0500 Uiso
C10_12 C 0.50368 0.64211 0.13900 0.0500 Uiso
C11_12 C 0.48572 0.91045 0.33897 0.0500 Uiso
H6_12 H 0.49183 0.91898 0.36028 0.0500 Uiso
C12_12 C 0.50942 0.61207 0.13915 0.0500 Uiso
H7_12 H 0.50887 0.59964 0.11892 0.0500 Uiso
C13_12 C 0.48402 0.92879 0.31397 0.0500 Uiso
C14_12 C 0.51521 0.59846 0.16644 0.0500 Uiso
C15_12 C 0.48588 0.96036 0.31782 0.0500 Uiso
C16_12 C 0.51634 0.56679 0.16944 0.0500 Uiso
C17_12 C 0.48854 0.82690 0.43006 0.0500 Uiso
C18_12 C 0.48526 0.67814 0.03706 0.0500 Uiso
C19_12 C 0.48618 0.82828 0.39850 0.0500 Uiso
C20_12 C 0.48541 0.68062 0.06878 0.0500 Uiso
C21_12 C 0.48676 0.85612 0.38473 0.0500 Uiso
H8_12 H 0.49316 0.87571 0.39655 0.0500 Uiso
C22_12 C 0.49350 0.65646 0.08647 0.0500 Uiso
H9_12 H 0.49724 0.63492 0.07717 0.0500 Uiso
C23_12 C 0.47935 0.85766 0.35508 0.0500 Uiso
C24_12 C 0.49673 0.66107 0.11651 0.0500 Uiso
C25_12 C 0.47170 0.83307 0.33917 0.0500 Uiso
C26_12 C 0.49218 0.68816 0.12927 0.0500 Uiso
C27_12 C 0.47093 0.80539 0.35212 0.0500 Uiso
H10_12 H 0.46531 0.78602 0.33960 0.0500 Uiso
C28_12 C 0.48355 0.71224 0.11246 0.0500 Uiso
H11_12 H 0.47920 0.73338 0.12230 0.0500 Uiso
C29_12 C 0.47803 0.80314 0.38198 0.0500 Uiso
H12_12 H 0.47762 0.78162 0.39205 0.0500 Uiso
C30_12 C 0.48042 0.70837 0.08205 0.0500 Uiso
H13_12 H 0.47388 0.72705 0.06892 0.0500 Uiso
C31_12 C 0.46878 0.81985 0.28700 0.0500 Uiso
C32_12 C 0.49073 0.70932 0.17936 0.0500 Uiso
C33_12 C 0.44733 0.79836 0.28261 0.0500 Uiso
H14_12 H 0.42810 0.79770 0.29654 0.0500 Uiso
C34_12 C 0.47315 0.70405 0.20402 0.0500 Uiso
H15_12 H 0.46334 0.68268 0.20738 0.0500 Uiso
C35_12 C 0.45090 0.77728 0.26066 0.0500 Uiso
H16_12 H 0.43393 0.76094 0.25773 0.0500 Uiso
C36_12 C 0.46848 0.72609 0.22472 0.0500 Uiso
H17_12 H 0.45573 0.72089 0.24406 0.0500 Uiso
C37_12 C 0.47633 0.77707 0.24308 0.0500 Uiso
C38_12 C 0.48093 0.75409 0.22094 0.0500 Uiso
C39_12 C 0.49355 0.82057 0.26887 0.0500 Uiso
C40_12 C 0.49741 0.79927 0.24719 0.0500 Uiso
H18_12 H 0.51776 0.79977 0.23266 0.0000 Uiso
H19_12 H 0.51060 0.83862 0.27185 0.0000 Uiso
H20_12 H 0.50765 0.78226 0.19207 0.0000 Uiso
Cu5_12 Cu 0.48964 0.85130 0.48502 0.0500 Uiso
Cu8_12 Cu 0.48241 0.79715 0.48301 0.0500 Uiso
O12_9 O 0.15292 0.02464 0.01111 0.0500 Uiso
O14_9 O 0.20108 0.02197 0.01798 0.0500 Uiso
O2_7 O 0.30530 0.01831 0.55561 0.0500 Uiso
O4_7 O 0.35363 0.01542 0.55040 0.0500 Uiso
C2_13 C 0.32480 0.00289 0.73724 0.0500 Uiso
H1_13 H 0.34371 0.01659 0.74163 0.0500 Uiso
C4_13 C 0.30762 0.01575 0.61572 0.0500 Uiso
H3_13 H 0.28655 0.02032 0.60576 0.0500 Uiso
C6_13 C 0.30852 0.00979 0.64591 0.0500 Uiso
H5_13 H 0.28858 0.01024 0.65874 0.0500 Uiso
C8_13 C 0.33561 0.00321 0.65856 0.0500 Uiso
C10_13 C 0.36100 0.00368 0.64211 0.0500 Uiso
C12_13 C 0.36085 0.00942 0.61207 0.0500 Uiso
H7_13 H 0.38108 0.00887 0.59964 0.0500 Uiso
C14_13 C 0.33356 0.01521 0.59846 0.0500 Uiso
C16_13 C 0.33056 0.01634 0.56679 0.0500 Uiso
H18_13 H 0.26734 0.01776 0.79977 0.0000 Uiso
H19_13 H 0.22815 0.01060 0.83862 0.0000 Uiso
H20_13 H 0.30793 0.00765 0.78226 0.0000 Uiso
O9_7 O 0.19470 0.98169 0.05561 0.0500 Uiso
O10_7 O 0.14637 0.98458 0.05040 0.0500 Uiso
O1_13 O 0.20415 0.98416 0.97705 0.0500 Uiso
O3_13 O 0.15587 0.98608 0.97094 0.0500 Uiso
O6_5 O 0.47536 0.98889 0.65292 0.0500 Uiso
O8_5 O 0.47803 0.98202 0.70108 0.0500 Uiso
N1_13 N 0.18936 0.96698 0.83980 0.0500 Uiso
N2_13 N 0.34126 0.99603 0.68688 0.0500 Uiso
C1_13 C 0.30429 0.99792 0.75950 0.0500 Uiso
C3_13 C 0.21358 0.97606 0.91652 0.0500 Uiso
H2_13 H 0.23297 0.97477 0.93018 0.0500 Uiso
C5_13 C 0.21644 0.97001 0.88647 0.0500 Uiso
H4_13 H 0.23750 0.96408 0.87727 0.0500 Uiso
C7_13 C 0.19142 0.97177 0.86901 0.0500 Uiso
C9_13 C 0.16452 0.97925 0.88075 0.0500 Uiso
C11_13 C 0.16103 0.98572 0.91045 0.0500 Uiso
H6_13 H 0.13972 0.99183 0.91898 0.0500 Uiso
C13_13 C 0.18603 0.98402 0.92879 0.0500 Uiso
C15_13 C 0.18218 0.98588 0.96036 0.0500 Uiso
C17_13 C 0.06994 0.98854 0.82690 0.0500 Uiso
C18_13 C 0.46294 0.98526 0.67814 0.0500 Uiso
C19_13 C 0.10150 0.98618 0.82828 0.0500 Uiso
C20_13 C 0.43122 0.98541 0.68062 0.0500 Uiso
C21_13 C 0.11527 0.98676 0.85612 0.0500 Uiso
H8_13 H 0.10345 0.99316 0.87571 0.0500 Uiso
C22_13 C 0.41353 0.99350 0.65646 0.0500 Uiso
H9_13 H 0.42283 0.99724 0.63492 0.0500 Uiso
C23_13 C 0.14492 0.97935 0.85766 0.0500 Uiso
C24_13 C 0.38349 0.99673 0.66107 0.0500 Uiso
C25_13 C 0.16083 0.97170 0.83307 0.0500 Uiso
C26_13 C 0.37073 0.99218 0.68816 0.0500 Uiso
C27_13 C 0.14788 0.97093 0.80539 0.0500 Uiso
H10_13 H 0.16040 0.96531 0.78602 0.0500 Uiso
C28_13 C 0.38754 0.98355 0.71224 0.0500 Uiso
H11_13 H 0.37770 0.97920 0.73338 0.0500 Uiso
C29_13 C 0.11802 0.97803 0.80314 0.0500 Uiso
H12_13 H 0.10795 0.97762 0.78162 0.0500 Uiso
C30_13 C 0.41795 0.98042 0.70837 0.0500 Uiso
H13_13 H 0.43108 0.97388 0.72705 0.0500 Uiso
C31_13 C 0.21300 0.96878 0.81985 0.0500 Uiso
C32_13 C 0.32064 0.99073 0.70932 0.0500 Uiso
C33_13 C 0.21739 0.94733 0.79836 0.0500 Uiso
H14_13 H 0.20346 0.92810 0.79770 0.0500 Uiso
C34_13 C 0.29598 0.97315 0.70405 0.0500 Uiso
H15_13 H 0.29262 0.96334 0.68268 0.0500 Uiso
C35_13 C 0.23934 0.95090 0.77728 0.0500 Uiso
H16_13 H 0.24227 0.93393 0.76094 0.0500 Uiso
C36_13 C 0.27528 0.96848 0.72609 0.0500 Uiso
H17_13 H 0.25594 0.95573 0.72089 0.0500 Uiso
C37_13 C 0.25692 0.97633 0.77707 0.0500 Uiso
C38_13 C 0.27906 0.98093 0.75409 0.0500 Uiso
C39_13 C 0.23113 0.99355 0.82057 0.0500 Uiso
C40_13 C 0.25281 0.99741 0.79927 0.0500 Uiso
O1_14 O 0.29585 0.01584 0.47705 0.0500 Uiso
O3_14 O 0.34413 0.01392 0.47094 0.0500 Uiso
O6_6 O 0.02464 0.01111 0.15292 0.0500 Uiso
O8_6 O 0.02197 0.01798 0.20108 0.0500 Uiso
N1_14 N 0.31064 0.03302 0.33980 0.0500 Uiso
N2_14 N 0.15874 0.00397 0.18688 0.0500 Uiso
C1_14 C 0.19571 0.00208 0.25950 0.0500 Uiso
C3_14 C 0.28642 0.02394 0.41652 0.0500 Uiso
H2_14 H 0.26703 0.02523 0.43018 0.0500 Uiso
C5_14 C 0.28356 0.02999 0.38647 0.0500 Uiso
H4_14 H 0.26250 0.03592 0.37727 0.0500 Uiso
C7_14 C 0.30858 0.02823 0.36901 0.0500 Uiso
C9_14 C 0.33548 0.02075 0.38075 0.0500 Uiso
C11_14 C 0.33897 0.01428 0.41045 0.0500 Uiso
H6_14 H 0.36028 0.00817 0.41898 0.0500 Uiso
C13_14 C 0.31397 0.01598 0.42879 0.0500 Uiso
C15_14 C 0.31782 0.01412 0.46036 0.0500 Uiso
C17_14 C 0.43006 0.01146 0.32690 0.0500 Uiso
C18_14 C 0.03706 0.01474 0.17814 0.0500 Uiso
C19_14 C 0.39850 0.01382 0.32828 0.0500 Uiso
C20_14 C 0.06878 0.01459 0.18062 0.0500 Uiso
C21_14 C 0.38473 0.01324 0.35612 0.0500 Uiso
H8_14 H 0.39655 0.00684 0.37571 0.0500 Uiso
C22_14 C 0.08647 0.00650 0.15646 0.0500 Uiso
H9_14 H 0.07717 0.00276 0.13492 0.0500 Uiso
C23_14 C 0.35508 0.02065 0.35766 0.0500 Uiso
C24_14 C 0.11651 0.00327 0.16107 0.0500 Uiso
C25_14 C 0.33917 0.02830 0.33307 0.0500 Uiso
C26_14 C 0.12927 0.00782 0.18816 0.0500 Uiso
C27_14 C 0.35212 0.02907 0.30539 0.0500 Uiso
H10_14 H 0.33960 0.03469 0.28602 0.0500 Uiso
C28_14 C 0.11246 0.01645 0.21224 0.0500 Uiso
H11_14 H 0.12230 0.02080 0.23338 0.0500 Uiso
C29_14 C 0.38198 0.02197 0.30314 0.0500 Uiso
H12_14 H 0.39205 0.02238 0.28162 0.0500 Uiso
C30_14 C 0.08205 0.01958 0.20837 0.0500 Uiso
H13_14 H 0.06892 0.02612 0.22705 0.0500 Uiso
C31_14 C 0.28700 0.03122 0.31985 0.0500 Uiso
C32_14 C 0.17936 0.00927 0.20932 0.0500 Uiso
C33_14 C 0.28261 0.05267 0.29836 0.0500 Uiso
H14_14 H 0.29654 0.07190 0.29770 0.0500 Uiso
C34_14 C 0.20402 0.02685 0.20405 0.0500 Uiso
H15_14 H 0.20738 0.03666 0.18268 0.0500 Uiso
C35_14 C 0.26066 0.04910 0.27728 0.0500 Uiso
H16_14 H 0.25773 0.06607 0.26094 0.0500 Uiso
C36_14 C 0.22472 0.03152 0.22609 0.0500 Uiso
H17_14 H 0.24406 0.04427 0.22089 0.0500 Uiso
C37_14 C 0.24308 0.02367 0.27707 0.0500 Uiso
C38_14 C 0.22094 0.01907 0.25409 0.0500 Uiso
C39_14 C 0.26887 0.00645 0.32057 0.0500 Uiso
C40_14 C 0.24719 0.00259 0.29927 0.0500 Uiso
C2_14 C 0.17520 0.99711 0.23724 0.0500 Uiso
H1_14 H 0.15629 0.98341 0.24163 0.0500 Uiso
C4_14 C 0.19238 0.98425 0.11572 0.0500 Uiso
H3_14 H 0.21345 0.97968 0.10576 0.0500 Uiso
C6_14 C 0.19148 0.99021 0.14591 0.0500 Uiso
H5_14 H 0.21142 0.98976 0.15874 0.0500 Uiso
C8_14 C 0.16439 0.99679 0.15856 0.0500 Uiso
C10_14 C 0.13900 0.99632 0.14211 0.0500 Uiso
C12_14 C 0.13915 0.99058 0.11207 0.0500 Uiso
H7_14 H 0.11892 0.99113 0.09964 0.0500 Uiso
C14_14 C 0.16644 0.98479 0.09846 0.0500 Uiso
C16_14 C 0.16944 0.98366 0.06679 0.0500 Uiso
H18_14 H 0.23266 0.98224 0.29977 0.0000 Uiso
H19_14 H 0.27185 0.98940 0.33862 0.0000 Uiso
H20_14 H 0.19207 0.99235 0.28226 0.0000 Uiso
O12_10 O 0.34708 0.97536 0.51111 0.0500 Uiso
O14_10 O 0.29892 0.97803 0.51798 0.0500 Uiso
O1_15 O 0.79585 0.48416 0.52295 0.0500 Uiso
O2_8 O 0.69470 0.51831 0.94439 0.0500 Uiso
O3_15 O 0.84413 0.48608 0.52906 0.0500 Uiso
O4_8 O 0.64637 0.51542 0.94960 0.0500 Uiso
O6_7 O 0.52464 0.48889 0.84708 0.0500 Uiso
O8_7 O 0.52197 0.48202 0.79892 0.0500 Uiso
N1_15 N 0.81064 0.46698 0.66020 0.0500 Uiso
N2_15 N 0.65874 0.49603 0.81312 0.0500 Uiso
C1_15 C 0.69571 0.49792 0.74050 0.0500 Uiso
C2_15 C 0.67520 0.50289 0.76276 0.0500 Uiso
H1_15 H 0.65629 0.51659 0.75837 0.0500 Uiso
C3_15 C 0.78642 0.47606 0.58348 0.0500 Uiso
H2_15 H 0.76703 0.47477 0.56982 0.0500 Uiso
C4_15 C 0.69238 0.51575 0.88428 0.0500 Uiso
H3_15 H 0.71345 0.52032 0.89424 0.0500 Uiso
C5_15 C 0.78356 0.47001 0.61353 0.0500 Uiso
H4_15 H 0.76250 0.46408 0.62273 0.0500 Uiso
C6_15 C 0.69148 0.50979 0.85409 0.0500 Uiso
H5_15 H 0.71142 0.51024 0.84126 0.0500 Uiso
C7_15 C 0.80858 0.47177 0.63099 0.0500 Uiso
C8_15 C 0.66439 0.50321 0.84144 0.0500 Uiso
C9_15 C 0.83548 0.47925 0.61925 0.0500 Uiso
C10_15 C 0.63900 0.50368 0.85789 0.0500 Uiso
C11_15 C 0.83897 0.48572 0.58955 0.0500 Uiso
H6_15 H 0.86028 0.49183 0.58102 0.0500 Uiso
C12_15 C 0.63915 0.50942 0.88793 0.0500 Uiso
H7_15 H 0.61892 0.50887 0.90036 0.0500 Uiso
C13_15 C 0.81397 0.48402 0.57121 0.0500 Uiso
C14_15 C 0.66644 0.51521 0.90154 0.0500 Uiso
C15_15 C 0.81782 0.48588 0.53964 0.0500 Uiso
C16_15 C 0.66944 0.51634 0.93321 0.0500 Uiso
C17_15 C 0.93006 0.48854 0.67310 0.0500 Uiso
C18_15 C 0.53706 0.48526 0.82186 0.0500 Uiso
C19_15 C 0.89850 0.48618 0.67172 0.0500 Uiso
C20_15 C 0.56878 0.48541 0.81938 0.0500 Uiso
C21_15 C 0.88473 0.48676 0.64388 0.0500 Uiso
H8_15 H 0.89655 0.49316 0.62429 0.0500 Uiso
C22_15 C 0.58647 0.49350 0.84354 0.0500 Uiso
H9_15 H 0.57717 0.49724 0.86508 0.0500 Uiso
C23_15 C 0.85508 0.47935 0.64234 0.0500 Uiso
C24_15 C 0.61651 0.49673 0.83893 0.0500 Uiso
C25_15 C 0.83917 0.47170 0.66693 0.0500 Uiso
C26_15 C 0.62927 0.49218 0.81184 0.0500 Uiso
C27_15 C 0.85212 0.47093 0.69461 0.0500 Uiso
H10_15 H 0.83960 0.46531 0.71398 0.0500 Uiso
C28_15 C 0.61246 0.48355 0.78776 0.0500 Uiso
H11_15 H 0.62230 0.47920 0.76662 0.0500 Uiso
C29_15 C 0.88198 0.47803 0.69686 0.0500 Uiso
H12_15 H 0.89205 0.47762 0.71838 0.0500 Uiso
C30_15 C 0.58205 0.48042 0.79163 0.0500 Uiso
H13_15 H 0.56892 0.47388 0.77295 0.0500 Uiso
C31_15 C 0.78700 0.46878 0.68015 0.0500 Uiso
C32_15 C 0.67936 0.49073 0.79068 0.0500 Uiso
C33_15 C 0.78261 0.44733 0.70164 0.0500 Uiso
H14_15 H 0.79654 0.42810 0.70230 0.0500 Uiso
C34_15 C 0.70402 0.47315 0.79595 0.0500 Uiso
H15_15 H 0.70738 0.46334 0.81732 0.0500 Uiso
C35_15 C 0.76066 0.45090 0.72272 0.0500 Uiso
H16_15 H 0.75773 0.43393 0.73906 0.0500 Uiso
C36_15 C 0.72472 0.46848 0.77391 0.0500 Uiso
H17_15 H 0.74406 0.45573 0.77911 0.0500 Uiso
C37_15 C 0.74308 0.47633 0.72293 0.0500 Uiso
C38_15 C 0.72094 0.48093 0.74591 0.0500 Uiso
C39_15 C 0.76887 0.49355 0.67943 0.0500 Uiso
C40_15 C 0.74719 0.49741 0.70073 0.0500 Uiso
H18_15 H 0.73266 0.51776 0.70023 0.0000 Uiso
H19_15 H 0.77185 0.51060 0.66138 0.0000 Uiso
H20_15 H 0.69207 0.50765 0.71774 0.0000 Uiso
O9_8 O 0.80530 0.48169 0.44439 0.0500 Uiso
O10_8 O 0.85363 0.48458 0.44960 0.0500 Uiso
O12_11 O 0.84708 0.52464 0.48889 0.0500 Uiso
O14_11 O 0.79892 0.52197 0.48202 0.0500 Uiso
O1_16 O 0.70415 0.51584 0.02295 0.0500 Uiso
O3_16 O 0.65587 0.51392 0.02906 0.0500 Uiso
O6_8 O 0.97536 0.51111 0.34708 0.0500 Uiso
O8_8 O 0.97803 0.51798 0.29892 0.0500 Uiso
N1_16 N 0.68936 0.53302 0.16020 0.0500 Uiso
N2_16 N 0.84126 0.50397 0.31312 0.0500 Uiso
C1_16 C 0.80429 0.50208 0.24050 0.0500 Uiso
C2_16 C 0.82480 0.49711 0.26276 0.0500 Uiso
H1_16 H 0.84371 0.48341 0.25837 0.0500 Uiso
C3_16 C 0.71358 0.52394 0.08348 0.0500 Uiso
H2_16 H 0.73297 0.52523 0.06982 0.0500 Uiso
C4_16 C 0.80762 0.48425 0.38428 0.0500 Uiso
H3_16 H 0.78655 0.47968 0.39424 0.0500 Uiso
C5_16 C 0.71644 0.52999 0.11353 0.0500 Uiso
H4_16 H 0.73750 0.53592 0.12273 0.0500 Uiso
C6_16 C 0.80852 0.49021 0.35409 0.0500 Uiso
H5_16 H 0.78858 0.48976 0.34126 0.0500 Uiso
C7_16 C 0.69142 0.52823 0.13099 0.0500 Uiso
C8_16 C 0.83561 0.49679 0.34144 0.0500 Uiso
C9_16 C 0.66452 0.52075 0.11925 0.0500 Uiso
C10_16 C 0.86100 0.49632 0.35789 0.0500 Uiso
C11_16 C 0.66103 0.51428 0.08955 0.0500 Uiso
H6_16 H 0.63972 0.50817 0.08102 0.0500 Uiso
C12_16 C 0.86085 0.49058 0.38793 0.0500 Uiso
H7_16 H 0.88108 0.49113 0.40036 0.0500 Uiso
C13_16 C 0.68603 0.51598 0.07121 0.0500 Uiso
C14_16 C 0.83356 0.48479 0.40154 0.0500 Uiso
C15_16 C 0.68218 0.51412 0.03964 0.0500 Uiso
C16_16 C 0.83056 0.48366 0.43321 0.0500 Uiso
C17_16 C 0.56994 0.51146 0.17310 0.0500 Uiso
C18_16 C 0.96294 0.51474 0.32186 0.0500 Uiso
C19_16 C 0.60150 0.51382 0.17172 0.0500 Uiso
C20_16 C 0.93122 0.51459 0.31938 0.0500 Uiso
C21_16 C 0.61527 0.51324 0.14388 0.0500 Uiso
H8_16 H 0.60345 0.50684 0.12429 0.0500 Uiso
C22_16 C 0.91353 0.50650 0.34354 0.0500 Uiso
H9_16 H 0.92283 0.50276 0.36508 0.0500 Uiso
C23_16 C 0.64492 0.52065 0.14234 0.0500 Uiso
C24_16 C 0.88349 0.50327 0.33893 0.0500 Uiso
C25_16 C 0.66083 0.52830 0.16693 0.0500 Uiso
C26_16 C 0.87073 0.50782 0.31184 0.0500 Uiso
C27_16 C 0.64788 0.52907 0.19461 0.0500 Uiso
H10_16 H 0.66040 0.53469 0.21398 0.0500 Uiso
C28_16 C 0.88754 0.51645 0.28776 0.0500 Uiso
H11_16 H 0.87770 0.52080 0.26662 0.0500 Uiso
C29_16 C 0.61802 0.52197 0.19686 0.0500 Uiso
H12_16 H 0.60795 0.52238 0.21838 0.0500 Uiso
C30_16 C 0.91795 0.51958 0.29163 0.0500 Uiso
H13_16 H 0.93108 0.52612 0.27295 0.0500 Uiso
C31_16 C 0.71300 0.53122 0.18015 0.0500 Uiso
C32_16 C 0.82064 0.50927 0.29068 0.0500 Uiso
C33_16 C 0.71739 0.55267 0.20164 0.0500 Uiso
H14_16 H 0.70346 0.57190 0.20230 0.0500 Uiso
C34_16 C 0.79598 0.52685 0.29595 0.0500 Uiso
H15_16 H 0.79262 0.53666 0.31732 0.0500 Uiso
C35_16 C 0.73934 0.54910 0.22272 0.0500 Uiso
H16_16 H 0.74227 0.56607 0.23906 0.0500 Uiso
C36_16 C 0.77528 0.53152 0.27391 0.0500 Uiso
H17_16 H 0.75594 0.54427 0.27911 0.0500 Uiso
C37_16 C 0.75692 0.52367 0.22293 0.0500 Uiso
C38_16 C 0.77906 0.51907 0.24591 0.0500 Uiso
C39_16 C 0.73113 0.50645 0.17943 0.0500 Uiso
C40_16 C 0.75281 0.50259 0.20073 0.0500 Uiso
H18_16 H 0.76734 0.48224 0.20023 0.0000 Uiso
H19_16 H 0.72815 0.48940 0.16138 0.0000 Uiso
H20_16 H 0.80793 0.49235 0.21774 0.0000 Uiso
O12_12 O 0.65292 0.47536 0.98889 0.0500 Uiso
O14_12 O 0.70108 0.47803 0.98202 0.0500 Uiso
O12_13 O 0.01111 0.15292 0.02464 0.0500 Uiso
O14_13 O 0.01798 0.20108 0.02197 0.0500 Uiso
O9_9 O 0.05561 0.19470 0.98169 0.0500 Uiso
O10_9 O 0.05040 0.14637 0.98458 0.0500 Uiso
O2_9 O 0.55561 0.30530 0.01831 0.0500 Uiso
O4_9 O 0.55040 0.35363 0.01542 0.0500 Uiso
C2_17 C 0.73724 0.32480 0.00289 0.0500 Uiso
H1_17 H 0.74163 0.34371 0.01659 0.0500 Uiso
C4_17 C 0.61572 0.30762 0.01575 0.0500 Uiso
H3_17 H 0.60576 0.28655 0.02032 0.0500 Uiso
C6_17 C 0.64591 0.30852 0.00979 0.0500 Uiso
H5_17 H 0.65874 0.28858 0.01024 0.0500 Uiso
C8_17 C 0.65856 0.33561 0.00321 0.0500 Uiso
C10_17 C 0.64211 0.36100 0.00368 0.0500 Uiso
C12_17 C 0.61207 0.36085 0.00942 0.0500 Uiso
H7_17 H 0.59964 0.38108 0.00887 0.0500 Uiso
C14_17 C 0.59846 0.33356 0.01521 0.0500 Uiso
C16_17 C 0.56679 0.33056 0.01634 0.0500 Uiso
H18_17 H 0.79977 0.26734 0.01776 0.0000 Uiso
H19_17 H 0.83862 0.22815 0.01060 0.0000 Uiso
H20_17 H 0.78226 0.30793 0.00765 0.0000 Uiso
O1_17 O 0.97705 0.20415 0.98416 0.0500 Uiso
O3_17 O 0.97094 0.15587 0.98608 0.0500 Uiso
N1_17 N 0.83980 0.18936 0.96698 0.0500 Uiso
N2_17 N 0.68688 0.34126 0.99603 0.0500 Uiso
C1_17 C 0.75950 0.30429 0.99792 0.0500 Uiso
C3_17 C 0.91652 0.21358 0.97606 0.0500 Uiso
H2_17 H 0.93018 0.23297 0.97477 0.0500 Uiso
C5_17 C 0.88647 0.21644 0.97001 0.0500 Uiso
H4_17 H 0.87727 0.23750 0.96408 0.0500 Uiso
C7_17 C 0.86901 0.19142 0.97177 0.0500 Uiso
C9_17 C 0.88075 0.16452 0.97925 0.0500 Uiso
C11_17 C 0.91045 0.16103 0.98572 0.0500 Uiso
H6_17 H 0.91898 0.13972 0.99183 0.0500 Uiso
C13_17 C 0.92879 0.18603 0.98402 0.0500 Uiso
C15_17 C 0.96036 0.18218 0.98588 0.0500 Uiso
C17_17 C 0.82690 0.06994 0.98854 0.0500 Uiso
C18_17 C 0.67814 0.46294 0.98526 0.0500 Uiso
C19_17 C 0.82828 0.10150 0.98618 0.0500 Uiso
C20_17 C 0.68062 0.43122 0.98541 0.0500 Uiso
C21_17 C 0.85612 0.11527 0.98676 0.0500 Uiso
H8_17 H 0.87571 0.10345 0.99316 0.0500 Uiso
C22_17 C 0.65646 0.41353 0.99350 0.0500 Uiso
H9_17 H 0.63492 0.42283 0.99724 0.0500 Uiso
C23_17 C 0.85766 0.14492 0.97935 0.0500 Uiso
C24_17 C 0.66107 0.38349 0.99673 0.0500 Uiso
C25_17 C 0.83307 0.16083 0.97170 0.0500 Uiso
C26_17 C 0.68816 0.37073 0.99218 0.0500 Uiso
C27_17 C 0.80539 0.14788 0.97093 0.0500 Uiso
H10_17 H 0.78602 0.16040 0.96531 0.0500 Uiso
C28_17 C 0.71224 0.38754 0.98355 0.0500 Uiso
H11_17 H 0.73338 0.37770 0.97920 0.0500 Uiso
C29_17 C 0.80314 0.11802 0.97803 0.0500 Uiso
H12_17 H 0.78162 0.10795 0.97762 0.0500 Uiso
C30_17 C 0.70837 0.41795 0.98042 0.0500 Uiso
H13_17 H 0.72705 0.43108 0.97388 0.0500 Uiso
C31_17 C 0.81985 0.21300 0.96878 0.0500 Uiso
C32_17 C 0.70932 0.32064 0.99073 0.0500 Uiso
C33_17 C 0.79836 0.21739 0.94733 0.0500 Uiso
H14_17 H 0.79770 0.20346 0.92810 0.0500 Uiso
C34_17 C 0.70405 0.29598 0.97315 0.0500 Uiso
H15_17 H 0.68268 0.29262 0.96334 0.0500 Uiso
C35_17 C 0.77728 0.23934 0.95090 0.0500 Uiso
H16_17 H 0.76094 0.24227 0.93393 0.0500 Uiso
C36_17 C 0.72609 0.27528 0.96848 0.0500 Uiso
H17_17 H 0.72089 0.25594 0.95573 0.0500 Uiso
C37_17 C 0.77707 0.25692 0.97633 0.0500 Uiso
C38_17 C 0.75409 0.27906 0.98093 0.0500 Uiso
C39_17 C 0.82057 0.23113 0.99355 0.0500 Uiso
C40_17 C 0.79927 0.25281 0.99741 0.0500 Uiso
O1_18 O 0.47705 0.29585 0.01584 0.0500 Uiso
O3_18 O 0.47094 0.34413 0.01392 0.0500 Uiso
N1_18 N 0.33980 0.31064 0.03302 0.0500 Uiso
N2_18 N 0.18688 0.15874 0.00397 0.0500 Uiso
C1_18 C 0.25950 0.19571 0.00208 0.0500 Uiso
C3_18 C 0.41652 0.28642 0.02394 0.0500 Uiso
H2_18 H 0.43018 0.26703 0.02523 0.0500 Uiso
C5_18 C 0.38647 0.28356 0.02999 0.0500 Uiso
H4_18 H 0.37727 0.26250 0.03592 0.0500 Uiso
C7_18 C 0.36901 0.30858 0.02823 0.0500 Uiso
C9_18 C 0.38075 0.33548 0.02075 0.0500 Uiso
C11_18 C 0.41045 0.33897 0.01428 0.0500 Uiso
H6_18 H 0.41898 0.36028 0.00817 0.0500 Uiso
C13_18 C 0.42879 0.31397 0.01598 0.0500 Uiso
C15_18 C 0.46036 0.31782 0.01412 0.0500 Uiso
C17_18 C 0.32690 0.43006 0.01146 0.0500 Uiso
C18_18 C 0.17814 0.03706 0.01474 0.0500 Uiso
C19_18 C 0.32828 0.39850 0.01382 0.0500 Uiso
C20_18 C 0.18062 0.06878 0.01459 0.0500 Uiso
C21_18 C 0.35612 0.38473 0.01324 0.0500 Uiso
H8_18 H 0.37571 0.39655 0.00684 0.0500 Uiso
C22_18 C 0.15646 0.08647 0.00650 0.0500 Uiso
H9_18 H 0.13492 0.07717 0.00276 0.0500 Uiso
C23_18 C 0.35766 0.35508 0.02065 0.0500 Uiso
C24_18 C 0.16107 0.11651 0.00327 0.0500 Uiso
C25_18 C 0.33307 0.33917 0.02830 0.0500 Uiso
C26_18 C 0.18816 0.12927 0.00782 0.0500 Uiso
C27_18 C 0.30539 0.35212 0.02907 0.0500 Uiso
H10_18 H 0.28602 0.33960 0.03469 0.0500 Uiso
C28_18 C 0.21224 0.11246 0.01645 0.0500 Uiso
H11_18 H 0.23338 0.12230 0.02080 0.0500 Uiso
C29_18 C 0.30314 0.38198 0.02197 0.0500 Uiso
H12_18 H 0.28162 0.39205 0.02238 0.0500 Uiso
C30_18 C 0.20837 0.08205 0.01958 0.0500 Uiso
H13_18 H 0.22705 0.06892 0.02612 0.0500 Uiso
C31_18 C 0.31985 0.28700 0.03122 0.0500 Uiso
C32_18 C 0.20932 0.17936 0.00927 0.0500 Uiso
C33_18 C 0.29836 0.28261 0.05267 0.0500 Uiso
H14_18 H 0.29770 0.29654 0.07190 0.0500 Uiso
C34_18 C 0.20405 0.20402 0.02685 0.0500 Uiso
H15_18 H 0.18268 0.20738 0.03666 0.0500 Uiso
C35_18 C 0.27728 0.26066 0.04910 0.0500 Uiso
H16_18 H 0.26094 0.25773 0.06607 0.0500 Uiso
C36_18 C 0.22609 0.22472 0.03152 0.0500 Uiso
H17_18 H 0.22089 0.24406 0.04427 0.0500 Uiso
C37_18 C 0.27707 0.24308 0.02367 0.0500 Uiso
C38_18 C 0.25409 0.22094 0.01907 0.0500 Uiso
C39_18 C 0.32057 0.26887 0.00645 0.0500 Uiso
C40_18 C 0.29927 0.24719 0.00259 0.0500 Uiso
C2_18 C 0.23724 0.17520 0.99711 0.0500 Uiso
H1_18 H 0.24163 0.15629 0.98341 0.0500 Uiso
C4_18 C 0.11572 0.19238 0.98425 0.0500 Uiso
H3_18 H 0.10576 0.21345 0.97968 0.0500 Uiso
C6_18 C 0.14591 0.19148 0.99021 0.0500 Uiso
H5_18 H 0.15874 0.21142 0.98976 0.0500 Uiso
C8_18 C 0.15856 0.16439 0.99679 0.0500 Uiso
C10_18 C 0.14211 0.13900 0.99632 0.0500 Uiso
C12_18 C 0.11207 0.13915 0.99058 0.0500 Uiso
H7_18 H 0.09964 0.11892 0.99113 0.0500 Uiso
C14_18 C 0.09846 0.16644 0.98479 0.0500 Uiso
C16_18 C 0.06679 0.16944 0.98366 0.0500 Uiso
H18_18 H 0.29977 0.23266 0.98224 0.0000 Uiso
H19_18 H 0.33862 0.27185 0.98940 0.0000 Uiso
H20_18 H 0.28226 0.19207 0.99235 0.0000 Uiso
O12_14 O 0.51111 0.34708 0.97536 0.0500 Uiso
O14_14 O 0.51798 0.29892 0.97803 0.0500 Uiso
O1_19 O 0.52295 0.79585 0.48416 0.0500 Uiso
O2_10 O 0.94439 0.69470 0.51831 0.0500 Uiso
O3_19 O 0.52906 0.84413 0.48608 0.0500 Uiso
O4_10 O 0.94960 0.64637 0.51542 0.0500 Uiso
N1_19 N 0.66020 0.81064 0.46698 0.0500 Uiso
N2_19 N 0.81312 0.65874 0.49603 0.0500 Uiso
C1_19 C 0.74050 0.69571 0.49792 0.0500 Uiso
C2_19 C 0.76276 0.67520 0.50289 0.0500 Uiso
H1_19 H 0.75837 0.65629 0.51659 0.0500 Uiso
C3_19 C 0.58348 0.78642 0.47606 0.0500 Uiso
H2_19 H 0.56982 0.76703 0.47477 0.0500 Uiso
C4_19 C 0.88428 0.69238 0.51575 0.0500 Uiso
H3_19 H 0.89424 0.71345 0.52032 0.0500 Uiso
C5_19 C 0.61353 0.78356 0.47001 0.0500 Uiso
H4_19 H 0.62273 0.76250 0.46408 0.0500 Uiso
C6_19 C 0.85409 0.69148 0.50979 0.0500 Uiso
H5_19 H 0.84126 0.71142 0.51024 0.0500 Uiso
C7_19 C 0.63099 0.80858 0.47177 0.0500 Uiso
C8_19 C 0.84144 0.66439 0.50321 0.0500 Uiso
C9_19 C 0.61925 0.83548 0.47925 0.0500 Uiso
C10_19 C 0.85789 0.63900 0.50368 0.0500 Uiso
C11_19 C 0.58955 0.83897 0.48572 0.0500 Uiso
H6_19 H 0.58102 0.86028 0.49183 0.0500 Uiso
C12_19 C 0.88793 0.63915 0.50942 0.0500 Uiso
H7_19 H 0.90036 0.61892 0.50887 0.0500 Uiso
C13_19 C 0.57121 0.81397 0.48402 0.0500 Uiso
C14_19 C 0.90154 0.66644 0.51521 0.0500 Uiso
C15_19 C 0.53964 0.81782 0.48588 0.0500 Uiso
C16_19 C 0.93321 0.66944 0.51634 0.0500 Uiso
C17_19 C 0.67310 0.93006 0.48854 0.0500 Uiso
C18_19 C 0.82186 0.53706 0.48526 0.0500 Uiso
C19_19 C 0.67172 0.89850 0.48618 0.0500 Uiso
C20_19 C 0.81938 0.56878 0.48541 0.0500 Uiso
C21_19 C 0.64388 0.88473 0.48676 0.0500 Uiso
H8_19 H 0.62429 0.89655 0.49316 0.0500 Uiso
C22_19 C 0.84354 0.58647 0.49350 0.0500 Uiso
H9_19 H 0.86508 0.57717 0.49724 0.0500 Uiso
C23_19 C 0.64234 0.85508 0.47935 0.0500 Uiso
C24_19 C 0.83893 0.61651 0.49673 0.0500 Uiso
C25_19 C 0.66693 0.83917 0.47170 0.0500 Uiso
C26_19 C 0.81184 0.62927 0.49218 0.0500 Uiso
C27_19 C 0.69461 0.85212 0.47093 0.0500 Uiso
H10_19 H 0.71398 0.83960 0.46531 0.0500 Uiso
C28_19 C 0.78776 0.61246 0.48355 0.0500 Uiso
H11_19 H 0.76662 0.62230 0.47920 0.0500 Uiso
C29_19 C 0.69686 0.88198 0.47803 0.0500 Uiso
H12_19 H 0.71838 0.89205 0.47762 0.0500 Uiso
C30_19 C 0.79163 0.58205 0.48042 0.0500 Uiso
H13_19 H 0.77295 0.56892 0.47388 0.0500 Uiso
C31_19 C 0.68015 0.78700 0.46878 0.0500 Uiso
C32_19 C 0.79068 0.67936 0.49073 0.0500 Uiso
C33_19 C 0.70164 0.78261 0.44733 0.0500 Uiso
H14_19 H 0.70230 0.79654 0.42810 0.0500 Uiso
C34_19 C 0.79595 0.70402 0.47315 0.0500 Uiso
H15_19 H 0.81732 0.70738 0.46334 0.0500 Uiso
C35_19 C 0.72272 0.76066 0.45090 0.0500 Uiso
H16_19 H 0.73906 0.75773 0.43393 0.0500 Uiso
C36_19 C 0.77391 0.72472 0.46848 0.0500 Uiso
H17_19 H 0.77911 0.74406 0.45573 0.0500 Uiso
C37_19 C 0.72293 0.74308 0.47633 0.0500 Uiso
C38_19 C 0.74591 0.72094 0.48093 0.0500 Uiso
C39_19 C 0.67943 0.76887 0.49355 0.0500 Uiso
C40_19 C 0.70073 0.74719 0.49741 0.0500 Uiso
H18_19 H 0.70023 0.73266 0.51776 0.0000 Uiso
H19_19 H 0.66138 0.77185 0.51060 0.0000 Uiso
H20_19 H 0.71774 0.69207 0.50765 0.0000 Uiso
O9_10 O 0.44439 0.80530 0.48169 0.0500 Uiso
O10_10 O 0.44960 0.85363 0.48458 0.0500 Uiso
O12_15 O 0.48889 0.84708 0.52464 0.0500 Uiso
O14_15 O 0.48202 0.79892 0.52197 0.0500 Uiso
O1_20 O 0.02295 0.70415 0.51584 0.0500 Uiso
O3_20 O 0.02906 0.65587 0.51392 0.0500 Uiso
N1_20 N 0.16020 0.68936 0.53302 0.0500 Uiso
N2_20 N 0.31312 0.84126 0.50397 0.0500 Uiso
C1_20 C 0.24050 0.80429 0.50208 0.0500 Uiso
C2_20 C 0.26276 0.82480 0.49711 0.0500 Uiso
H1_20 H 0.25837 0.84371 0.48341 0.0500 Uiso
C3_20 C 0.08348 0.71358 0.52394 0.0500 Uiso
H2_20 H 0.06982 0.73297 0.52523 0.0500 Uiso
C4_20 C 0.38428 0.80762 0.48425 0.0500 Uiso
H3_20 H 0.39424 0.78655 0.47968 0.0500 Uiso
C5_20 C 0.11353 0.71644 0.52999 0.0500 Uiso
H4_20 H 0.12273 0.73750 0.53592 0.0500 Uiso
C6_20 C 0.35409 0.80852 0.49021 0.0500 Uiso
H5_20 H 0.34126 0.78858 0.48976 0.0500 Uiso
C7_20 C 0.13099 0.69142 0.52823 0.0500 Uiso
C8_20 C 0.34144 0.83561 0.49679 0.0500 Uiso
C9_20 C 0.11925 0.66452 0.52075 0.0500 Uiso
C10_20 C 0.35789 0.86100 0.49632 0.0500 Uiso
C11_20 C 0.08955 0.66103 0.51428 0.0500 Uiso
H6_20 H 0.08102 0.63972 0.50817 0.0500 Uiso
C12_20 C 0.38793 0.86085 0.49058 0.0500 Uiso
H7_20 H 0.40036 0.88108 0.49113 0.0500 Uiso
C13_20 C 0.07121 0.68603 0.51598 0.0500 Uiso
C14_20 C 0.40154 0.83356 0.48479 0.0500 Uiso
C15_20 C 0.03964 0.68218 0.51412 0.0500 Uiso
C16_20 C 0.43321 0.83056 0.48366 0.0500 Uiso
C17_20 C 0.17310 0.56994 0.51146 0.0500 Uiso
C18_20 C 0.32186 0.96294 0.51474 0.0500 Uiso
C19_20 C 0.17172 0.60150 0.51382 0.0500 Uiso
C20_20 C 0.31938 0.93122 0.51459 0.0500 Uiso
C21_20 C 0.14388 0.61527 0.51324 0.0500 Uiso
H8_20 H 0.12429 0.60345 0.50684 0.0500 Uiso
C22_20 C 0.34354 0.91353 0.50650 0.0500 Uiso
H9_20 H 0.36508 0.92283 0.50276 0.0500 Uiso
C23_20 C 0.14234 0.64492 0.52065 0.0500 Uiso
C24_20 C 0.33893 0.88349 0.50327 0.0500 Uiso
C25_20 C 0.16693 0.66083 0.52830 0.0500 Uiso
C26_20 C 0.31184 0.87073 0.50782 0.0500 Uiso
C27_20 C 0.19461 0.64788 0.52907 0.0500 Uiso
H10_20 H 0.21398 0.66040 0.53469 0.0500 Uiso
C28_20 C 0.28776 0.88754 0.51645 0.0500 Uiso
H11_20 H 0.26662 0.87770 0.52080 0.0500 Uiso
C29_20 C 0.19686 0.61802 0.52197 0.0500 Uiso
H12_20 H 0.21838 0.60795 0.52238 0.0500 Uiso
C30_20 C 0.29163 0.91795 0.51958 0.0500 Uiso
H13_20 H 0.27295 0.93108 0.52612 0.0500 Uiso
C31_20 C 0.18015 0.71300 0.53122 0.0500 Uiso
C32_20 C 0.29068 0.82064 0.50927 0.0500 Uiso
C33_20 C 0.20164 0.71739 0.55267 0.0500 Uiso
H14_20 H 0.20230 0.70346 0.57190 0.0500 Uiso
C34_20 C 0.29595 0.79598 0.52685 0.0500 Uiso
H15_20 H 0.31732 0.79262 0.53666 0.0500 Uiso
C35_20 C 0.22272 0.73934 0.54910 0.0500 Uiso
H16_20 H 0.23906 0.74227 0.56607 0.0500 Uiso
C36_20 C 0.27391 0.77528 0.53152 0.0500 Uiso
H17_20 H 0.27911 0.75594 0.54427 0.0500 Uiso
C37_20 C 0.22293 0.75692 0.52367 0.0500 Uiso
C38_20 C 0.24591 0.77906 0.51907 0.0500 Uiso
C39_20 C 0.17943 0.73113 0.50645 0.0500 Uiso
C40_20 C 0.20073 0.75281 0.50259 0.0500 Uiso
H18_20 H 0.20023 0.76734 0.48224 0.0000 Uiso
H19_20 H 0.16138 0.72815 0.48940 0.0000 Uiso
H20_20 H 0.21774 0.80793 0.49235 0.0000 Uiso
O12_16 O 0.98889 0.65292 0.47536 0.0500 Uiso
O14_16 O 0.98202 0.70108 0.47803 0.0500 Uiso
O2_11 O 0.01831 0.55561 0.30530 0.0500 Uiso
O4_11 O 0.01542 0.55040 0.35363 0.0500 Uiso
C2_21 C 0.00289 0.73724 0.32480 0.0500 Uiso
H1_21 H 0.01659 0.74163 0.34371 0.0500 Uiso
C4_21 C 0.01575 0.61572 0.30762 0.0500 Uiso
H3_21 H 0.02032 0.60576 0.28655 0.0500 Uiso
C6_21 C 0.00979 0.64591 0.30852 0.0500 Uiso
H5_21 H 0.01024 0.65874 0.28858 0.0500 Uiso
C8_21 C 0.00321 0.65856 0.33561 0.0500 Uiso
C10_21 C 0.00368 0.64211 0.36100 0.0500 Uiso
C12_21 C 0.00942 0.61207 0.36085 0.0500 Uiso
H7_21 H 0.00887 0.59964 0.38108 0.0500 Uiso
C14_21 C 0.01521 0.59846 0.33356 0.0500 Uiso
C16_21 C 0.01634 0.56679 0.33056 0.0500 Uiso
H18_21 H 0.01776 0.79977 0.26734 0.0000 Uiso
H19_21 H 0.01060 0.83862 0.22815 0.0000 Uiso
H20_21 H 0.00765 0.78226 0.30793 0.0000 Uiso
O9_11 O 0.98169 0.05561 0.19470 0.0500 Uiso
O10_11 O 0.98458 0.05040 0.14637 0.0500 Uiso
O1_21 O 0.98416 0.97705 0.20415 0.0500 Uiso
O3_21 O 0.98608 0.97094 0.15587 0.0500 Uiso
N1_21 N 0.96698 0.83980 0.18936 0.0500 Uiso
N2_21 N 0.99603 0.68688 0.34126 0.0500 Uiso
C1_21 C 0.99792 0.75950 0.30429 0.0500 Uiso
C3_21 C 0.97606 0.91652 0.21358 0.0500 Uiso
H2_21 H 0.97477 0.93018 0.23297 0.0500 Uiso
C5_21 C 0.97001 0.88647 0.21644 0.0500 Uiso
H4_21 H 0.96408 0.87727 0.23750 0.0500 Uiso
C7_21 C 0.97177 0.86901 0.19142 0.0500 Uiso
C9_21 C 0.97925 0.88075 0.16452 0.0500 Uiso
C11_21 C 0.98572 0.91045 0.16103 0.0500 Uiso
H6_21 H 0.99183 0.91898 0.13972 0.0500 Uiso
C13_21 C 0.98402 0.92879 0.18603 0.0500 Uiso
C15_21 C 0.98588 0.96036 0.18218 0.0500 Uiso
C17_21 C 0.98854 0.82690 0.06994 0.0500 Uiso
C18_21 C 0.98526 0.67814 0.46294 0.0500 Uiso
C19_21 C 0.98618 0.82828 0.10150 0.0500 Uiso
C20_21 C 0.98541 0.68062 0.43122 0.0500 Uiso
C21_21 C 0.98676 0.85612 0.11527 0.0500 Uiso
H8_21 H 0.99316 0.87571 0.10345 0.0500 Uiso
C22_21 C 0.99350 0.65646 0.41353 0.0500 Uiso
H9_21 H 0.99724 0.63492 0.42283 0.0500 Uiso
C23_21 C 0.97935 0.85766 0.14492 0.0500 Uiso
C24_21 C 0.99673 0.66107 0.38349 0.0500 Uiso
C25_21 C 0.97170 0.83307 0.16083 0.0500 Uiso
C26_21 C 0.99218 0.68816 0.37073 0.0500 Uiso
C27_21 C 0.97093 0.80539 0.14788 0.0500 Uiso
H10_21 H 0.96531 0.78602 0.16040 0.0500 Uiso
C28_21 C 0.98355 0.71224 0.38754 0.0500 Uiso
H11_21 H 0.97920 0.73338 0.37770 0.0500 Uiso
C29_21 C 0.97803 0.80314 0.11802 0.0500 Uiso
H12_21 H 0.97762 0.78162 0.10795 0.0500 Uiso
C30_21 C 0.98042 0.70837 0.41795 0.0500 Uiso
H13_21 H 0.97388 0.72705 0.43108 0.0500 Uiso
C31_21 C 0.96878 0.81985 0.21300 0.0500 Uiso
C32_21 C 0.99073 0.70932 0.32064 0.0500 Uiso
C33_21 C 0.94733 0.79836 0.21739 0.0500 Uiso
H14_21 H 0.92810 0.79770 0.20346 0.0500 Uiso
C34_21 C 0.97315 0.70405 0.29598 0.0500 Uiso
H15_21 H 0.96334 0.68268 0.29262 0.0500 Uiso
C35_21 C 0.95090 0.77728 0.23934 0.0500 Uiso
H16_21 H 0.93393 0.76094 0.24227 0.0500 Uiso
C36_21 C 0.96848 0.72609 0.27528 0.0500 Uiso
H17_21 H 0.95573 0.72089 0.25594 0.0500 Uiso
C37_21 C 0.97633 0.77707 0.25692 0.0500 Uiso
C38_21 C 0.98093 0.75409 0.27906 0.0500 Uiso
C39_21 C 0.99355 0.82057 0.23113 0.0500 Uiso
C40_21 C 0.99741 0.79927 0.25281 0.0500 Uiso
O1_22 O 0.01584 0.47705 0.29585 0.0500 Uiso
O3_22 O 0.01392 0.47094 0.34413 0.0500 Uiso
N1_22 N 0.03302 0.33980 0.31064 0.0500 Uiso
N2_22 N 0.00397 0.18688 0.15874 0.0500 Uiso
C1_22 C 0.00208 0.25950 0.19571 0.0500 Uiso
C3_22 C 0.02394 0.41652 0.28642 0.0500 Uiso
H2_22 H 0.02523 0.43018 0.26703 0.0500 Uiso
C5_22 C 0.02999 0.38647 0.28356 0.0500 Uiso
H4_22 H 0.03592 0.37727 0.26250 0.0500 Uiso
C7_22 C 0.02823 0.36901 0.30858 0.0500 Uiso
C9_22 C 0.02075 0.38075 0.33548 0.0500 Uiso
C11_22 C 0.01428 0.41045 0.33897 0.0500 Uiso
H6_22 H 0.00817 0.41898 0.36028 0.0500 Uiso
C13_22 C 0.01598 0.42879 0.31397 0.0500 Uiso
C15_22 C 0.01412 0.46036 0.31782 0.0500 Uiso
C17_22 C 0.01146 0.32690 0.43006 0.0500 Uiso
C18_22 C 0.01474 0.17814 0.03706 0.0500 Uiso
C19_22 C 0.01382 0.32828 0.39850 0.0500 Uiso
C20_22 C 0.01459 0.18062 0.06878 0.0500 Uiso
C21_22 C 0.01324 0.35612 0.38473 0.0500 Uiso
H8_22 H 0.00684 0.37571 0.39655 0.0500 Uiso
C22_22 C 0.00650 0.15646 0.08647 0.0500 Uiso
H9_22 H 0.00276 0.13492 0.07717 0.0500 Uiso
C23_22 C 0.02065 0.35766 0.35508 0.0500 Uiso
C24_22 C 0.00327 0.16107 0.11651 0.0500 Uiso
C25_22 C 0.02830 0.33307 0.33917 0.0500 Uiso
C26_22 C 0.00782 0.18816 0.12927 0.0500 Uiso
C27_22 C 0.02907 0.30539 0.35212 0.0500 Uiso
H10_22 H 0.03469 0.28602 0.33960 0.0500 Uiso
C28_22 C 0.01645 0.21224 0.11246 0.0500 Uiso
H11_22 H 0.02080 0.23338 0.12230 0.0500 Uiso
C29_22 C 0.02197 0.30314 0.38198 0.0500 Uiso
H12_22 H 0.02238 0.28162 0.39205 0.0500 Uiso
C30_22 C 0.01958 0.20837 0.08205 0.0500 Uiso
H13_22 H 0.02612 0.22705 0.06892 0.0500 Uiso
C31_22 C 0.03122 0.31985 0.28700 0.0500 Uiso
C32_22 C 0.00927 0.20932 0.17936 0.0500 Uiso
C33_22 C 0.05267 0.29836 0.28261 0.0500 Uiso
H14_22 H 0.07190 0.29770 0.29654 0.0500 Uiso
C34_22 C 0.02685 0.20405 0.20402 0.0500 Uiso
H15_22 H 0.03666 0.18268 0.20738 0.0500 Uiso
C35_22 C 0.04910 0.27728 0.26066 0.0500 Uiso
H16_22 H 0.06607 0.26094 0.25773 0.0500 Uiso
C36_22 C 0.03152 0.22609 0.22472 0.0500 Uiso
H17_22 H 0.04427 0.22089 0.24406 0.0500 Uiso
C37_22 C 0.02367 0.27707 0.24308 0.0500 Uiso
C38_22 C 0.01907 0.25409 0.22094 0.0500 Uiso
C39_22 C 0.00645 0.32057 0.26887 0.0500 Uiso
C40_22 C 0.00259 0.29927 0.24719 0.0500 Uiso
C2_22 C 0.99711 0.23724 0.17520 0.0500 Uiso
H1_22 H 0.98341 0.24163 0.15629 0.0500 Uiso
C4_22 C 0.98425 0.11572 0.19238 0.0500 Uiso
H3_22 H 0.97968 0.10576 0.21345 0.0500 Uiso
C6_22 C 0.99021 0.14591 0.19148 0.0500 Uiso
H5_22 H 0.98976 0.15874 0.21142 0.0500 Uiso
C8_22 C 0.99679 0.15856 0.16439 0.0500 Uiso
C10_22 C 0.99632 0.14211 0.13900 0.0500 Uiso
C12_22 C 0.99058 0.11207 0.13915 0.0500 Uiso
H7_22 H 0.99113 0.09964 0.11892 0.0500 Uiso
C14_22 C 0.98479 0.09846 0.16644 0.0500 Uiso
C16_22 C 0.98366 0.06679 0.16944 0.0500 Uiso
H18_22 H 0.98224 0.29977 0.23266 0.0000 Uiso
H19_22 H 0.98940 0.33862 0.27185 0.0000 Uiso
H20_22 H 0.99235 0.28226 0.19207 0.0000 Uiso
O1_23 O 0.48416 0.52295 0.79585 0.0500 Uiso
O2_12 O 0.51831 0.94439 0.69470 0.0500 Uiso
O3_23 O 0.48608 0.52906 0.84413 0.0500 Uiso
O4_12 O 0.51542 0.94960 0.64637 0.0500 Uiso
N1_23 N 0.46698 0.66020 0.81064 0.0500 Uiso
N2_23 N 0.49603 0.81312 0.65874 0.0500 Uiso
C1_23 C 0.49792 0.74050 0.69571 0.0500 Uiso
C2_23 C 0.50289 0.76276 0.67520 0.0500 Uiso
H1_23 H 0.51659 0.75837 0.65629 0.0500 Uiso
C3_23 C 0.47606 0.58348 0.78642 0.0500 Uiso
H2_23 H 0.47477 0.56982 0.76703 0.0500 Uiso
C4_23 C 0.51575 0.88428 0.69238 0.0500 Uiso
H3_23 H 0.52032 0.89424 0.71345 0.0500 Uiso
C5_23 C 0.47001 0.61353 0.78356 0.0500 Uiso
H4_23 H 0.46408 0.62273 0.76250 0.0500 Uiso
C6_23 C 0.50979 0.85409 0.69148 0.0500 Uiso
H5_23 H 0.51024 0.84126 0.71142 0.0500 Uiso
C7_23 C 0.47177 0.63099 0.80858 0.0500 Uiso
C8_23 C 0.50321 0.84144 0.66439 0.0500 Uiso
C9_23 C 0.47925 0.61925 0.83548 0.0500 Uiso
C10_23 C 0.50368 0.85789 0.63900 0.0500 Uiso
C11_23 C 0.48572 0.58955 0.83897 0.0500 Uiso
H6_23 H 0.49183 0.58102 0.86028 0.0500 Uiso
C12_23 C 0.50942 0.88793 0.63915 0.0500 Uiso
H7_23 H 0.50887 0.90036 0.61892 0.0500 Uiso
C13_23 C 0.48402 0.57121 0.81397 0.0500 Uiso
C14_23 C 0.51521 0.90154 0.66644 0.0500 Uiso
C15_23 C 0.48588 0.53964 0.81782 0.0500 Uiso
C16_23 C 0.51634 0.93321 0.66944 0.0500 Uiso
C17_23 C 0.48854 0.67310 0.93006 0.0500 Uiso
C18_23 C 0.48526 0.82186 0.53706 0.0500 Uiso
C19_23 C 0.48618 0.67172 0.89850 0.0500 Uiso
C20_23 C 0.48541 0.81938 0.56878 0.0500 Uiso
C21_23 C 0.48676 0.64388 0.88473 0.0500 Uiso
H8_23 H 0.49316 0.62429 0.89655 0.0500 Uiso
C22_23 C 0.49350 0.84354 0.58647 0.0500 Uiso
H9_23 H 0.49724 0.86508 0.57717 0.0500 Uiso
C23_23 C 0.47935 0.64234 0.85508 0.0500 Uiso
C24_23 C 0.49673 0.83893 0.61651 0.0500 Uiso
C25_23 C 0.47170 0.66693 0.83917 0.0500 Uiso
C26_23 C 0.49218 0.81184 0.62927 0.0500 Uiso
C27_23 C 0.47093 0.69461 0.85212 0.0500 Uiso
H10_23 H 0.46531 0.71398 0.83960 0.0500 Uiso
C28_23 C 0.48355 0.78776 0.61246 0.0500 Uiso
H11_23 H 0.47920 0.76662 0.62230 0.0500 Uiso
C29_23 C 0.47803 0.69686 0.88198 0.0500 Uiso
H12_23 H 0.47762 0.71838 0.89205 0.0500 Uiso
C30_23 C 0.48042 0.79163 0.58205 0.0500 Uiso
H13_23 H 0.47388 0.77295 0.56892 0.0500 Uiso
C31_23 C 0.46878 0.68015 0.78700 0.0500 Uiso
C32_23 C 0.49073 0.79068 0.67936 0.0500 Uiso
C33_23 C 0.44733 0.70164 0.78261 0.0500 Uiso
H14_23 H 0.42810 0.70230 0.79654 0.0500 Uiso
C34_23 C 0.47315 0.79595 0.70402 0.0500 Uiso
H15_23 H 0.46334 0.81732 0.70738 0.0500 Uiso
C35_23 C 0.45090 0.72272 0.76066 0.0500 Uiso
H16_23 H 0.43393 0.73906 0.75773 0.0500 Uiso
C36_23 C 0.46848 0.77391 0.72472 0.0500 Uiso
H17_23 H 0.45573 0.77911 0.74406 0.0500 Uiso
C37_23 C 0.47633 0.72293 0.74308 0.0500 Uiso
C38_23 C 0.48093 0.74591 0.72094 0.0500 Uiso
C39_23 C 0.49355 0.67943 0.76887 0.0500 Uiso
C40_23 C 0.49741 0.70073 0.74719 0.0500 Uiso
H18_23 H 0.51776 0.70023 0.73266 0.0000 Uiso
H19_23 H 0.51060 0.66138 0.77185 0.0000 Uiso
H20_23 H 0.50765 0.71774 0.69207 0.0000 Uiso
O9_12 O 0.48169 0.44439 0.80530 0.0500 Uiso
O10_12 O 0.48458 0.44960 0.85363 0.0500 Uiso
O1_24 O 0.51584 0.02295 0.70415 0.0500 Uiso
O3_24 O 0.51392 0.02906 0.65587 0.0500 Uiso
N1_24 N 0.53302 0.16020 0.68936 0.0500 Uiso
N2_24 N 0.50397 0.31312 0.84126 0.0500 Uiso
C1_24 C 0.50208 0.24050 0.80429 0.0500 Uiso
C2_24 C 0.49711 0.26276 0.82480 0.0500 Uiso
H1_24 H 0.48341 0.25837 0.84371 0.0500 Uiso
C3_24 C 0.52394 0.08348 0.71358 0.0500 Uiso
H2_24 H 0.52523 0.06982 0.73297 0.0500 Uiso
C4_24 C 0.48425 0.38428 0.80762 0.0500 Uiso
H3_24 H 0.47968 0.39424 0.78655 0.0500 Uiso
C5_24 C 0.52999 0.11353 0.71644 0.0500 Uiso
H4_24 H 0.53592 0.12273 0.73750 0.0500 Uiso
C6_24 C 0.49021 0.35409 0.80852 0.0500 Uiso
H5_24 H 0.48976 0.34126 0.78858 0.0500 Uiso
C7_24 C 0.52823 0.13099 0.69142 0.0500 Uiso
C8_24 C 0.49679 0.34144 0.83561 0.0500 Uiso
C9_24 C 0.52075 0.11925 0.66452 0.0500 Uiso
C10_24 C 0.49632 0.35789 0.86100 0.0500 Uiso
C11_24 C 0.51428 0.08955 0.66103 0.0500 Uiso
H6_24 H 0.50817 0.08102 0.63972 0.0500 Uiso
C12_24 C 0.49058 0.38793 0.86085 0.0500 Uiso
H7_24 H 0.49113 0.40036 0.88108 0.0500 Uiso
C13_24 C 0.51598 0.07121 0.68603 0.0500 Uiso
C14_24 C 0.48479 0.40154 0.83356 0.0500 Uiso
C15_24 C 0.51412 0.03964 0.68218 0.0500 Uiso
C16_24 C 0.48366 0.43321 0.83056 0.0500 Uiso
C17_24 C 0.51146 0.17310 0.56994 0.0500 Uiso
C18_24 C 0.51474 0.32186 0.96294 0.0500 Uiso
C19_24 C 0.51382 0.17172 0.60150 0.0500 Uiso
C20_24 C 0.51459 0.31938 0.93122 0.0500 Uiso
C21_24 C 0.51324 0.14388 0.61527 0.0500 Uiso
H8_24 H 0.50684 0.12429 0.60345 0.0500 Uiso
C22_24 C 0.50650 0.34354 0.91353 0.0500 Uiso
H9_24 H 0.50276 0.36508 0.92283 0.0500 Uiso
C23_24 C 0.52065 0.14234 0.64492 0.0500 Uiso
C24_24 C 0.50327 0.33893 0.88349 0.0500 Uiso
C25_24 C 0.52830 0.16693 0.66083 0.0500 Uiso
C26_24 C 0.50782 0.31184 0.87073 0.0500 Uiso
C27_24 C 0.52907 0.19461 0.64788 0.0500 Uiso
H10_24 H 0.53469 0.21398 0.66040 0.0500 Uiso
C28_24 C 0.51645 0.28776 0.88754 0.0500 Uiso
H11_24 H 0.52080 0.26662 0.87770 0.0500 Uiso
C29_24 C 0.52197 0.19686 0.61802 0.0500 Uiso
H12_24 H 0.52238 0.21838 0.60795 0.0500 Uiso
C30_24 C 0.51958 0.29163 0.91795 0.0500 Uiso
H13_24 H 0.52612 0.27295 0.93108 0.0500 Uiso
C31_24 C 0.53122 0.18015 0.71300 0.0500 Uiso
C32_24 C 0.50927 0.29068 0.82064 0.0500 Uiso
C33_24 C 0.55267 0.20164 0.71739 0.0500 Uiso
H14_24 H 0.57190 0.20230 0.70346 0.0500 Uiso
C34_24 C 0.52685 0.29595 0.79598 0.0500 Uiso
H15_24 H 0.53666 0.31732 0.79262 0.0500 Uiso
C35_24 C 0.54910 0.22272 0.73934 0.0500 Uiso
H16_24 H 0.56607 0.23906 0.74227 0.0500 Uiso
C36_24 C 0.53152 0.27391 0.77528 0.0500 Uiso
H17_24 H 0.54427 0.27911 0.75594 0.0500 Uiso
C37_24 C 0.52367 0.22293 0.75692 0.0500 Uiso
C38_24 C 0.51907 0.24591 0.77906 0.0500 Uiso
C39_24 C 0.50645 0.17943 0.73113 0.0500 Uiso
C40_24 C 0.50259 0.20073 0.75281 0.0500 Uiso
H18_24 H 0.48224 0.20023 0.76734 0.0000 Uiso
H19_24 H 0.48940 0.16138 0.72815 0.0000 Uiso
H20_24 H 0.49235 0.21774 0.80793 0.0000 Uiso
loop_
_geom_bond_atom_site_label_1
_geom_bond_atom_site_label_2
_geom_bond_site_symmetry_1
_geom_bond_site_symmetry_2
O1 C15 1_555 1_555
O3 C15 1_555 1_555
O5 C17 1_555 1_555
O6 C18 1_555 1_555
O7 C17 1_555 1_555
O8 C18 1_555 1_555
N1 C7 1_555 1_555
C3 H2 1_555 1_555
C5 C3 1_555 1_555
H4 C5 1_555 1_555
C7 C5 1_555 1_555
C9 C7 1_555 1_555
C11 C9 1_555 1_555
H6 C11 1_555 1_555
C13 C3 1_555 1_555
C15 C13 1_555 1_555
C17 C19 1_555 1_555
C18 C20 1_555 1_555
C19 C21 1_555 1_555
C20 C22 1_555 1_555
C21 H8 1_555 1_555
C22 H9 1_555 1_555
C23 C9 1_555 1_555
C25 N1 1_555 1_555
C26 N2 1_555 1_555
C27 C25 1_555 1_555
H10 C27 1_555 1_555
C28 C26 1_555 1_555
H11 C28 1_555 1_555
C29 C19 1_555 1_555
H12 C29 1_555 1_555
C30 C20 1_555 1_555
H13 C30 1_555 1_555
C31 N1 1_555 1_555
C32 N2 1_555 1_555
C33 C31 1_555 1_555
H14 C33 1_555 1_555
C34 C32 1_555 1_555
H15 C34 1_555 1_555
C35 C33 1_555 1_555
H16 C35 1_555 1_555
C36 C34 1_555 1_555
H17 C36 1_555 1_555
C37 C35 1_555 1_555
C38 C1 1_555 1_555
C39 C31 1_555 1_555
C40 C37 1_555 1_555
Cu4 O6 1_555 1_555
Cu5 O5 1_555 1_555
Cu7 O8 1_555 1_555
Cu8 O7 1_555 1_555
C11 C13 1_555 1_555
C21 C23 1_555 1_555
C22 C24 1_555 1_555
C23 C25 1_555 1_555
C24 C26 1_555 1_555
C27 C29 1_555 1_555
C28 C30 1_555 1_555
C36 C38 1_555 1_555
C37 C38 1_555 1_555
C39 C40 1_555 1_555
O9 Cu2 1_555 1_555
O10 Cu1 1_555 1_555
O11 Cu1 1_555 1_555
O13 Cu2 1_555 1_555
O2 C16 1_555 1_555
O4 C16 1_555 1_555
C2 H1 1_555 1_555
C4 H3 1_555 1_555
C6 C4 1_555 1_555
H5 C6 1_555 1_555
C8 C6 1_555 1_555
C10 C8 1_555 1_555
C12 C10 1_555 1_555
H7 C12 1_555 1_555
C14 C4 1_555 1_555
C16 C14 1_555 1_555
Cu3 O4 1_555 1_555
Cu6 O2 1_555 1_555
C12 C14 1_555 1_555
O9 C16_2 1_555 1_555
O10 C16_2 1_555 1_555
C2_2 H1_2 1_555 1_555
C4_2 H3_2 1_555 1_555
C6_2 C4_2 1_555 1_555
H5_2 C6_2 1_555 1_555
C8_2 C6_2 1_555 1_555
C10_2 C8_2 1_555 1_555
C12_2 C10_2 1_555 1_555
H7_2 C12_2 1_555 1_555
C14_2 C4_2 1_555 1_555
C16_2 C14_2 1_555 1_555
C12_2 C14_2 1_555 1_555
O1_2 C15_2 1_555 1_555
O3_2 C15_2 1_555 1_555
O5_2 C17_2 1_555 1_555
O6_2 C18_2 1_555 1_555
O7_2 C17_2 1_555 1_555
O8_2 C18_2 1_555 1_555
N1_2 C7_2 1_555 1_555
C3_2 H2_2 1_555 1_555
C5_2 C3_2 1_555 1_555
H4_2 C5_2 1_555 1_555
C7_2 C5_2 1_555 1_555
C9_2 C7_2 1_555 1_555
C11_2 C9_2 1_555 1_555
H6_2 C11_2 1_555 1_555
C13_2 C3_2 1_555 1_555
C15_2 C13_2 1_555 1_555
C17_2 C19_2 1_555 1_555
C18_2 C20_2 1_555 1_555
C19_2 C21_2 1_555 1_555
C20_2 C22_2 1_555 1_555
C21_2 H8_2 1_555 1_555
C22_2 H9_2 1_555 1_555
C23_2 C9_2 1_555 1_555
C25_2 N1_2 1_555 1_555
C26_2 N2_2 1_555 1_555
C27_2 C25_2 1_555 1_555
H10_2 C27_2 1_555 1_555
C28_2 C26_2 1_555 1_555
H11_2 C28_2 1_555 1_555
C29_2 C19_2 1_555 1_555
H12_2 C29_2 1_555 1_555
C30_2 C20_2 1_555 1_555
H13_2 C30_2 1_555 1_555
C31_2 N1_2 1_555 1_555
C32_2 N2_2 1_555 1_555
C33_2 C31_2 1_555 1_555
H14_2 C33_2 1_555 1_555
C34_2 C32_2 1_555 1_555
H15_2 C34_2 1_555 1_555
C35_2 C33_2 1_555 1_555
H16_2 C35_2 1_555 1_555
C36_2 C34_2 1_555 1_555
H17_2 C36_2 1_555 1_555
C37_2 C35_2 1_555 1_555
C38_2 C1_2 1_555 1_555
C39_2 C31_2 1_555 1_555
C40_2 C37_2 1_555 1_555
Cu3 O3_2 1_555 1_555
Cu6 O1_2 1_555 1_555
O11_2 Cu3 1_555 1_555
O13_2 Cu6 1_555 1_555
Cu5_2 O5_2 1_555 1_555
Cu8_2 O7_2 1_555 1_555
C11_2 C13_2 1_555 1_555
C21_2 C23_2 1_555 1_555
C22_2 C24_2 1_555 1_555
C23_2 C25_2 1_555 1_555
C24_2 C26_2 1_555 1_555
C27_2 C29_2 1_555 1_555
C28_2 C30_2 1_555 1_555
C36_2 C38_2 1_555 1_555
C37_2 C38_2 1_555 1_555
C39_2 C40_2 1_555 1_555
O1_3 C15_3 1_555 1_555
O2_2 C16_3 1_555 1_555
O3_3 C15_3 1_555 1_555
O4_2 C16_3 1_555 1_555
O5_3 C17_3 1_555 1_555
O6_3 C18_3 1_555 1_555
O7_3 C17_3 1_555 1_555
O8_3 C18_3 1_555 1_555
N1_3 C7_3 1_555 1_555
N2_3 C8_3 1_555 1_555
C1_3 C2_3 1_555 1_555
C2_3 H1_3 1_555 1_555
C3_3 H2_3 1_555 1_555
C4_3 H3_3 1_555 1_555
C5_3 C3_3 1_555 1_555
H4_3 C5_3 1_555 1_555
C6_3 C4_3 1_555 1_555
H5_3 C6_3 1_555 1_555
C7_3 C5_3 1_555 1_555
C8_3 C6_3 1_555 1_555
C9_3 C7_3 1_555 1_555
C10_3 C8_3 1_555 1_555
C11_3 C9_3 1_555 1_555
H6_3 C11_3 1_555 1_555
C12_3 C10_3 1_555 1_555
H7_3 C12_3 1_555 1_555
C13_3 C3_3 1_555 1_555
C14_3 C4_3 1_555 1_555
C15_3 C13_3 1_555 1_555
C16_3 C14_3 1_555 1_555
C17_3 C19_3 1_555 1_555
C18_3 C20_3 1_555 1_555
C19_3 C21_3 1_555 1_555
C20_3 C22_3 1_555 1_555
C21_3 H8_3 1_555 1_555
C22_3 H9_3 1_555 1_555
C23_3 C9_3 1_555 1_555
C24_3 C10_3 1_555 1_555
C25_3 N1_3 1_555 1_555
C26_3 N2_3 1_555 1_555
C27_3 C25_3 1_555 1_555
H10_3 C27_3 1_555 1_555
C28_3 C26_3 1_555 1_555
H11_3 C28_3 1_555 1_555
C29_3 C19_3 1_555 1_555
H12_3 C29_3 1_555 1_555
C30_3 C20_3 1_555 1_555
H13_3 C30_3 1_555 1_555
C31_3 N1_3 1_555 1_555
C32_3 N2_3 1_555 1_555
C33_3 C31_3 1_555 1_555
H14_3 C33_3 1_555 1_555
C34_3 C32_3 1_555 1_555
H15_3 C34_3 1_555 1_555
C35_3 C33_3 1_555 1_555
H16_3 C35_3 1_555 1_555
C36_3 C34_3 1_555 1_555
H17_3 C36_3 1_555 1_555
C37_3 C35_3 1_555 1_555
C38_3 C1_3 1_555 1_555
C39_3 C31_3 1_555 1_555
C40_3 C37_3 1_555 1_555
H18_3 C40_3 1_555 1_555
H19_3 C39_3 1_555 1_555
H20_3 C1_3 1_555 1_555
Cu1_2 O3_3 1_555 1_555
Cu2_2 O1_3 1_555 1_555
O9_2 Cu2_2 1_555 1_555
O10_2 Cu1_2 1_555 1_555
O11_3 Cu1_2 1_555 1_555
O12_3 Cu1_2 1_555 1_555
O13_3 Cu2_2 1_555 1_555
O14_3 Cu2_2 1_555 1_555
Cu3_2 O4_2 1_555 1_555
Cu4_3 O6_3 1_555 1_555
Cu5_3 O5_3 1_555 1_555
Cu6_2 O2_2 1_555 1_555
Cu7_3 O8_3 1_555 1_555
Cu8_3 O7_3 1_555 1_555
C2_3 C32_3 1_555 1_555
C11_3 C13_3 1_555 1_555
C12_3 C14_3 1_555 1_555
C21_3 C23_3 1_555 1_555
C22_3 C24_3 1_555 1_555
C23_3 C25_3 1_555 1_555
C24_3 C26_3 1_555 1_555
C27_3 C29_3 1_555 1_555
C28_3 C30_3 1_555 1_555
C36_3 C38_3 1_555 1_555
C37_3 C38_3 1_555 1_555
C39_3 C40_3 1_555 1_555
O11_4 Cu3_2 1_555 1_555
O12_4 Cu3_2 1_555 1_555
O13_4 Cu6_2 1_555 1_555
O14_4 Cu6_2 1_555 1_555
O1_4 C15_4 1_555 1_555
O9_2 C16_4 1_555 1_555
O3_4 C15_4 1_555 1_555
O10_2 C16_4 1_555 1_555
O5_4 C17_4 1_555 1_555
O6_4 C18_4 1_555 1_555
O7_4 C17_4 1_555 1_555
O8_4 C18_4 1_555 1_555
N1_4 C7_4 1_555 1_555
N2_4 C8_4 1_555 1_555
C1_4 C2_4 1_555 1_555
C2_4 H1_4 1_555 1_555
C3_4 H2_4 1_555 1_555
C4_4 H3_4 1_555 1_555
C5_4 C3_4 1_555 1_555
H4_4 C5_4 1_555 1_555
C6_4 C4_4 1_555 1_555
H5_4 C6_4 1_555 1_555
C7_4 C5_4 1_555 1_555
C8_4 C6_4 1_555 1_555
C9_4 C7_4 1_555 1_555
C10_4 C8_4 1_555 1_555
C11_4 C9_4 1_555 1_555
H6_4 C11_4 1_555 1_555
C12_4 C10_4 1_555 1_555
H7_4 C12_4 1_555 1_555
C13_4 C3_4 1_555 1_555
C14_4 C4_4 1_555 1_555
C15_4 C13_4 1_555 1_555
C16_4 C14_4 1_555 1_555
C17_4 C19_4 1_555 1_555
C18_4 C20_4 1_555 1_555
C19_4 C21_4 1_555 1_555
C20_4 C22_4 1_555 1_555
C21_4 H8_4 1_555 1_555
C22_4 H9_4 1_555 1_555
C23_4 C9_4 1_555 1_555
C24_4 C10_4 1_555 1_555
C25_4 N1_4 1_555 1_555
C26_4 N2_4 1_555 1_555
C27_4 C25_4 1_555 1_555
H10_4 C27_4 1_555 1_555
C28_4 C26_4 1_555 1_555
H11_4 C28_4 1_555 1_555
C29_4 C19_4 1_555 1_555
H12_4 C29_4 1_555 1_555
C30_4 C20_4 1_555 1_555
H13_4 C30_4 1_555 1_555
C31_4 N1_4 1_555 1_555
C32_4 N2_4 1_555 1_555
C33_4 C31_4 1_555 1_555
H14_4 C33_4 1_555 1_555
C34_4 C32_4 1_555 1_555
H15_4 C34_4 1_555 1_555
C35_4 C33_4 1_555 1_555
H16_4 C35_4 1_555 1_555
C36_4 C34_4 1_555 1_555
H17_4 C36_4 1_555 1_555
C37_4 C35_4 1_555 1_555
C38_4 C1_4 1_555 1_555
C39_4 C31_4 1_555 1_555
C40_4 C37_4 1_555 1_555
H18_4 C40_4 1_555 1_555
H19_4 C39_4 1_555 1_555
H20_4 C1_4 1_555 1_555
Cu5_4 O5_4 1_555 1_555
Cu8_4 O7_4 1_555 1_555
C2_4 C32_4 1_555 1_555
C11_4 C13_4 1_555 1_555
C12_4 C14_4 1_555 1_555
C21_4 C23_4 1_555 1_555
C22_4 C24_4 1_555 1_555
C23_4 C25_4 1_555 1_555
C24_4 C26_4 1_555 1_555
C27_4 C29_4 1_555 1_555
C28_4 C30_4 1_555 1_555
C36_4 C38_4 1_555 1_555
C37_4 C38_4 1_555 1_555
C39_4 C40_4 1_555 1_555
O1_5 C15_5 1_555 1_555
O3_5 C15_5 1_555 1_555
O5_5 C17_5 1_555 1_555
O12_4 C18_5 1_555 1_555
O7_5 C17_5 1_555 1_555
O14_4 C18_5 1_555 1_555
N1_5 C7_5 1_555 1_555
C3_5 H2_5 1_555 1_555
C5_5 C3_5 1_555 1_555
H4_5 C5_5 1_555 1_555
C7_5 C5_5 1_555 1_555
C9_5 C7_5 1_555 1_555
C11_5 C9_5 1_555 1_555
H6_5 C11_5 1_555 1_555
C13_5 C3_5 1_555 1_555
C15_5 C13_5 1_555 1_555
C17_5 C19_5 1_555 1_555
C18_5 C20_5 1_555 1_555
C19_5 C21_5 1_555 1_555
C20_5 C22_5 1_555 1_555
C21_5 H8_5 1_555 1_555
C22_5 H9_5 1_555 1_555
C23_5 C9_5 1_555 1_555
C25_5 N1_5 1_555 1_555
C26_5 N2_5 1_555 1_555
C27_5 C25_5 1_555 1_555
H10_5 C27_5 1_555 1_555
C28_5 C26_5 1_555 1_555
H11_5 C28_5 1_555 1_555
C29_5 C19_5 1_555 1_555
H12_5 C29_5 1_555 1_555
C30_5 C20_5 1_555 1_555
H13_5 C30_5 1_555 1_555
C31_5 N1_5 1_555 1_555
C32_5 N2_5 1_555 1_555
C33_5 C31_5 1_555 1_555
H14_5 C33_5 1_555 1_555
C34_5 C32_5 1_555 1_555
H15_5 C34_5 1_555 1_555
C35_5 C33_5 1_555 1_555
H16_5 C35_5 1_555 1_555
C36_5 C34_5 1_555 1_555
H17_5 C36_5 1_555 1_555
C37_5 C35_5 1_555 1_555
C38_5 C1_5 1_555 1_555
C39_5 C31_5 1_555 1_555
C40_5 C37_5 1_555 1_555
Cu5_5 O5_5 1_555 1_555
Cu8_5 O7_5 1_555 1_555
C11_5 C13_5 1_555 1_555
C21_5 C23_5 1_555 1_555
C22_5 C24_5 1_555 1_555
C23_5 C25_5 1_555 1_555
C24_5 C26_5 1_555 1_555
C27_5 C29_5 1_555 1_555
C28_5 C30_5 1_555 1_555
C36_5 C38_5 1_555 1_555
C37_5 C38_5 1_555 1_555
C39_5 C40_5 1_555 1_555
O2_3 C16_5 1_555 1_555
O4_3 C16_5 1_555 1_555
C2_5 H1_5 1_555 1_555
C4_5 H3_5 1_555 1_555
C6_5 C4_5 1_555 1_555
H5_5 C6_5 1_555 1_555
C8_5 C6_5 1_555 1_555
C10_5 C8_5 1_555 1_555
C12_5 C10_5 1_555 1_555
H7_5 C12_5 1_555 1_555
C14_5 C4_5 1_555 1_555
C16_5 C14_5 1_555 1_555
Cu3_3 O4_3 1_555 1_555
Cu6_3 O2_3 1_555 1_555
C12_5 C14_5 1_555 1_555
O9_3 Cu2_3 1_555 1_555
O10_3 Cu1_3 1_555 1_555
O11_5 Cu1_3 1_555 1_555
O13_5 Cu2_3 1_555 1_555
O9_3 C16_6 1_555 1_555
O10_3 C16_6 1_555 1_555
C2_6 H1_6 1_555 1_555
C4_6 H3_6 1_555 1_555
C6_6 C4_6 1_555 1_555
H5_6 C6_6 1_555 1_555
C8_6 C6_6 1_555 1_555
C10_6 C8_6 1_555 1_555
C12_6 C10_6 1_555 1_555
H7_6 C12_6 1_555 1_555
C14_6 C4_6 1_555 1_555
C16_6 C14_6 1_555 1_555
C12_6 C14_6 1_555 1_555
O1_6 C15_6 1_555 1_555
O3_6 C15_6 1_555 1_555
O5_6 C17_6 1_555 1_555
O12 C18_6 1_555 1_555
O7_6 C17_6 1_555 1_555
O14 C18_6 1_555 1_555
N1_6 C7_6 1_555 1_555
C3_6 H2_6 1_555 1_555
C5_6 C3_6 1_555 1_555
H4_6 C5_6 1_555 1_555
C7_6 C5_6 1_555 1_555
C9_6 C7_6 1_555 1_555
C11_6 C9_6 1_555 1_555
H6_6 C11_6 1_555 1_555
C13_6 C3_6 1_555 1_555
C15_6 C13_6 1_555 1_555
C17_6 C19_6 1_555 1_555
C18_6 C20_6 1_555 1_555
C19_6 C21_6 1_555 1_555
C20_6 C22_6 1_555 1_555
C21_6 H8_6 1_555 1_555
C22_6 H9_6 1_555 1_555
C23_6 C9_6 1_555 1_555
C25_6 N1_6 1_555 1_555
C26_6 N2_6 1_555 1_555
C27_6 C25_6 1_555 1_555
H10_6 C27_6 1_555 1_555
C28_6 C26_6 1_555 1_555
H11_6 C28_6 1_555 1_555
C29_6 C19_6 1_555 1_555
H12_6 C29_6 1_555 1_555
C30_6 C20_6 1_555 1_555
H13_6 C30_6 1_555 1_555
C31_6 N1_6 1_555 1_555
C32_6 N2_6 1_555 1_555
C33_6 C31_6 1_555 1_555
H14_6 C33_6 1_555 1_555
C34_6 C32_6 1_555 1_555
H15_6 C34_6 1_555 1_555
C35_6 C33_6 1_555 1_555
H16_6 C35_6 1_555 1_555
C36_6 C34_6 1_555 1_555
H17_6 C36_6 1_555 1_555
C37_6 C35_6 1_555 1_555
C38_6 C1_6 1_555 1_555
C39_6 C31_6 1_555 1_555
C40_6 C37_6 1_555 1_555
Cu3_3 O3_6 1_555 1_555
Cu6_3 O1_6 1_555 1_555
O11_6 Cu3_3 1_555 1_555
O13_6 Cu6_3 1_555 1_555
Cu5_6 O5_6 1_555 1_555
Cu8_6 O7_6 1_555 1_555
C11_6 C13_6 1_555 1_555
C21_6 C23_6 1_555 1_555
C22_6 C24_6 1_555 1_555
C23_6 C25_6 1_555 1_555
C24_6 C26_6 1_555 1_555
C27_6 C29_6 1_555 1_555
C28_6 C30_6 1_555 1_555
C36_6 C38_6 1_555 1_555
C37_6 C38_6 1_555 1_555
C39_6 C40_6 1_555 1_555
O1_7 C15_7 1_555 1_555
O2_4 C16_7 1_555 1_555
O3_7 C15_7 1_555 1_555
O4_4 C16_7 1_555 1_555
O5_7 C17_7 1_555 1_555
O12_3 C18_7 1_555 1_555
O7_7 C17_7 1_555 1_555
O14_3 C18_7 1_555 1_555
N1_7 C7_7 1_555 1_555
N2_7 C8_7 1_555 1_555
C1_7 C2_7 1_555 1_555
C2_7 H1_7 1_555 1_555
C3_7 H2_7 1_555 1_555
C4_7 H3_7 1_555 1_555
C5_7 C3_7 1_555 1_555
H4_7 C5_7 1_555 1_555
C6_7 C4_7 1_555 1_555
H5_7 C6_7 1_555 1_555
C7_7 C5_7 1_555 1_555
C8_7 C6_7 1_555 1_555
C9_7 C7_7 1_555 1_555
C10_7 C8_7 1_555 1_555
C11_7 C9_7 1_555 1_555
H6_7 C11_7 1_555 1_555
C12_7 C10_7 1_555 1_555
H7_7 C12_7 1_555 1_555
C13_7 C3_7 1_555 1_555
C14_7 C4_7 1_555 1_555
C15_7 C13_7 1_555 1_555
C16_7 C14_7 1_555 1_555
C17_7 C19_7 1_555 1_555
C18_7 C20_7 1_555 1_555
C19_7 C21_7 1_555 1_555
C20_7 C22_7 1_555 1_555
C21_7 H8_7 1_555 1_555
C22_7 H9_7 1_555 1_555
C23_7 C9_7 1_555 1_555
C24_7 C10_7 1_555 1_555
C25_7 N1_7 1_555 1_555
C26_7 N2_7 1_555 1_555
C27_7 C25_7 1_555 1_555
H10_7 C27_7 1_555 1_555
C28_7 C26_7 1_555 1_555
H11_7 C28_7 1_555 1_555
C29_7 C19_7 1_555 1_555
H12_7 C29_7 1_555 1_555
C30_7 C20_7 1_555 1_555
H13_7 C30_7 1_555 1_555
C31_7 N1_7 1_555 1_555
C32_7 N2_7 1_555 1_555
C33_7 C31_7 1_555 1_555
H14_7 C33_7 1_555 1_555
C34_7 C32_7 1_555 1_555
H15_7 C34_7 1_555 1_555
C35_7 C33_7 1_555 1_555
H16_7 C35_7 1_555 1_555
C36_7 C34_7 1_555 1_555
H17_7 C36_7 1_555 1_555
C37_7 C35_7 1_555 1_555
C38_7 C1_7 1_555 1_555
C39_7 C31_7 1_555 1_555
C40_7 C37_7 1_555 1_555
H18_7 C40_7 1_555 1_555
H19_7 C39_7 1_555 1_555
H20_7 C1_7 1_555 1_555
Cu1_4 O3_7 1_555 1_555
Cu2_4 O1_7 1_555 1_555
O9_4 Cu2_4 1_555 1_555
O10_4 Cu1_4 1_555 1_555
O11_7 Cu1_4 1_555 1_555
O12_7 Cu1_4 1_555 1_555
O13_7 Cu2_4 1_555 1_555
O14_7 Cu2_4 1_555 1_555
Cu3_4 O4_4 1_555 1_555
Cu5_7 O5_7 1_555 1_555
Cu6_4 O2_4 1_555 1_555
Cu8_7 O7_7 1_555 1_555
C2_7 C32_7 1_555 1_555
C11_7 C13_7 1_555 1_555
C12_7 C14_7 1_555 1_555
C21_7 C23_7 1_555 1_555
C22_7 C24_7 1_555 1_555
C23_7 C25_7 1_555 1_555
C24_7 C26_7 1_555 1_555
C27_7 C29_7 1_555 1_555
C28_7 C30_7 1_555 1_555
C36_7 C38_7 1_555 1_555
C37_7 C38_7 1_555 1_555
C39_7 C40_7 1_555 1_555
O11_8 Cu3_4 1_555 1_555
O12_8 Cu3_4 1_555 1_555
O13_8 Cu6_4 1_555 1_555
O14_8 Cu6_4 1_555 1_555
O1_8 C15_8 1_555 1_555
O9_4 C16_8 1_555 1_555
O3_8 C15_8 1_555 1_555
O10_4 C16_8 1_555 1_555
O5_8 C17_8 1_555 1_555
O12_2 C18_8 1_555 1_555
O7_8 C17_8 1_555 1_555
O14_2 C18_8 1_555 1_555
N1_8 C7_8 1_555 1_555
N2_8 C8_8 1_555 1_555
C1_8 C2_8 1_555 1_555
C2_8 H1_8 1_555 1_555
C3_8 H2_8 1_555 1_555
C4_8 H3_8 1_555 1_555
C5_8 C3_8 1_555 1_555
H4_8 C5_8 1_555 1_555
C6_8 C4_8 1_555 1_555
H5_8 C6_8 1_555 1_555
C7_8 C5_8 1_555 1_555
C8_8 C6_8 1_555 1_555
C9_8 C7_8 1_555 1_555
C10_8 C8_8 1_555 1_555
C11_8 C9_8 1_555 1_555
H6_8 C11_8 1_555 1_555
C12_8 C10_8 1_555 1_555
H7_8 C12_8 1_555 1_555
C13_8 C3_8 1_555 1_555
C14_8 C4_8 1_555 1_555
C15_8 C13_8 1_555 1_555
C16_8 C14_8 1_555 1_555
C17_8 C19_8 1_555 1_555
C18_8 C20_8 1_555 1_555
C19_8 C21_8 1_555 1_555
C20_8 C22_8 1_555 1_555
C21_8 H8_8 1_555 1_555
C22_8 H9_8 1_555 1_555
C23_8 C9_8 1_555 1_555
C24_8 C10_8 1_555 1_555
C25_8 N1_8 1_555 1_555
C26_8 N2_8 1_555 1_555
C27_8 C25_8 1_555 1_555
H10_8 C27_8 1_555 1_555
C28_8 C26_8 1_555 1_555
H11_8 C28_8 1_555 1_555
C29_8 C19_8 1_555 1_555
H12_8 C29_8 1_555 1_555
C30_8 C20_8 1_555 1_555
H13_8 C30_8 1_555 1_555
C31_8 N1_8 1_555 1_555
C32_8 N2_8 1_555 1_555
C33_8 C31_8 1_555 1_555
H14_8 C33_8 1_555 1_555
C34_8 C32_8 1_555 1_555
H15_8 C34_8 1_555 1_555
C35_8 C33_8 1_555 1_555
H16_8 C35_8 1_555 1_555
C36_8 C34_8 1_555 1_555
H17_8 C36_8 1_555 1_555
C37_8 C35_8 1_555 1_555
C38_8 C1_8 1_555 1_555
C39_8 C31_8 1_555 1_555
C40_8 C37_8 1_555 1_555
H18_8 C40_8 1_555 1_555
H19_8 C39_8 1_555 1_555
H20_8 C1_8 1_555 1_555
Cu5_8 O5_8 1_555 1_555
Cu8_8 O7_8 1_555 1_555
C2_8 C32_8 1_555 1_555
C11_8 C13_8 1_555 1_555
C12_8 C14_8 1_555 1_555
C21_8 C23_8 1_555 1_555
C22_8 C24_8 1_555 1_555
C23_8 C25_8 1_555 1_555
C24_8 C26_8 1_555 1_555
C27_8 C29_8 1_555 1_555
C28_8 C30_8 1_555 1_555
C36_8 C38_8 1_555 1_555
C37_8 C38_8 1_555 1_555
C39_8 C40_8 1_555 1_555
O1_9 C15_9 1_555 1_555
O3_9 C15_9 1_555 1_555
O5_9 C17_9 1_555 1_555
O12_8 C18_9 1_555 1_555
O7_9 C17_9 1_555 1_555
O14_8 C18_9 1_555 1_555
N1_9 C7_9 1_555 1_555
C3_9 H2_9 1_555 1_555
C5_9 C3_9 1_555 1_555
H4_9 C5_9 1_555 1_555
C7_9 C5_9 1_555 1_555
C9_9 C7_9 1_555 1_555
C11_9 C9_9 1_555 1_555
H6_9 C11_9 1_555 1_555
C13_9 C3_9 1_555 1_555
C15_9 C13_9 1_555 1_555
C17_9 C19_9 1_555 1_555
C18_9 C20_9 1_555 1_555
C19_9 C21_9 1_555 1_555
C20_9 C22_9 1_555 1_555
C21_9 H8_9 1_555 1_555
C22_9 H9_9 1_555 1_555
C23_9 C9_9 1_555 1_555
C25_9 N1_9 1_555 1_555
C26_9 N2_9 1_555 1_555
C27_9 C25_9 1_555 1_555
H10_9 C27_9 1_555 1_555
C28_9 C26_9 1_555 1_555
H11_9 C28_9 1_555 1_555
C29_9 C19_9 1_555 1_555
H12_9 C29_9 1_555 1_555
C30_9 C20_9 1_555 1_555
H13_9 C30_9 1_555 1_555
C31_9 N1_9 1_555 1_555
C32_9 N2_9 1_555 1_555
C33_9 C31_9 1_555 1_555
H14_9 C33_9 1_555 1_555
C34_9 C32_9 1_555 1_555
H15_9 C34_9 1_555 1_555
C35_9 C33_9 1_555 1_555
H16_9 C35_9 1_555 1_555
C36_9 C34_9 1_555 1_555
H17_9 C36_9 1_555 1_555
C37_9 C35_9 1_555 1_555
C38_9 C1_9 1_555 1_555
C39_9 C31_9 1_555 1_555
C40_9 C37_9 1_555 1_555
Cu5_9 O5_9 1_555 1_555
Cu8_9 O7_9 1_555 1_555
C11_9 C13_9 1_555 1_555
C21_9 C23_9 1_555 1_555
C22_9 C24_9 1_555 1_555
C23_9 C25_9 1_555 1_555
C24_9 C26_9 1_555 1_555
C27_9 C29_9 1_555 1_555
C28_9 C30_9 1_555 1_555
C36_9 C38_9 1_555 1_555
C37_9 C38_9 1_555 1_555
C39_9 C40_9 1_555 1_555
O9_5 Cu7_2 1_555 1_555
O10_5 Cu4_2 1_555 1_555
O11_9 Cu4_2 1_555 1_555
O13_9 Cu7_2 1_555 1_555
O2_5 C16_9 1_555 1_555
O4_5 C16_9 1_555 1_555
C2_9 H1_9 1_555 1_555
C4_9 H3_9 1_555 1_555
C6_9 C4_9 1_555 1_555
H5_9 C6_9 1_555 1_555
C8_9 C6_9 1_555 1_555
C10_9 C8_9 1_555 1_555
C12_9 C10_9 1_555 1_555
H7_9 C12_9 1_555 1_555
C14_9 C4_9 1_555 1_555
C16_9 C14_9 1_555 1_555
Cu4_4 O4_5 1_555 1_555
Cu7_4 O2_5 1_555 1_555
C12_9 C14_9 1_555 1_555
O9_5 C16_10 1_555 1_555
O10_5 C16_10 1_555 1_555
C2_10 H1_10 1_555 1_555
C4_10 H3_10 1_555 1_555
C6_10 C4_10 1_555 1_555
H5_10 C6_10 1_555 1_555
C8_10 C6_10 1_555 1_555
C10_10 C8_10 1_555 1_555
C12_10 C10_10 1_555 1_555
H7_10 C12_10 1_555 1_555
C14_10 C4_10 1_555 1_555
C16_10 C14_10 1_555 1_555
C12_10 C14_10 1_555 1_555
O1_10 C15_10 1_555 1_555
O3_10 C15_10 1_555 1_555
O5_10 C17_10 1_555 1_555
O12_5 C18_10 1_555 1_555
O7_10 C17_10 1_555 1_555
O14_5 C18_10 1_555 1_555
N1_10 C7_10 1_555 1_555
C3_10 H2_10 1_555 1_555
C5_10 C3_10 1_555 1_555
H4_10 C5_10 1_555 1_555
C7_10 C5_10 1_555 1_555
C9_10 C7_10 1_555 1_555
C11_10 C9_10 1_555 1_555
H6_10 C11_10 1_555 1_555
C13_10 C3_10 1_555 1_555
C15_10 C13_10 1_555 1_555
C17_10 C19_10 1_555 1_555
C18_10 C20_10 1_555 1_555
C19_10 C21_10 1_555 1_555
C20_10 C22_10 1_555 1_555
C21_10 H8_10 1_555 1_555
C22_10 H9_10 1_555 1_555
C23_10 C9_10 1_555 1_555
C25_10 N1_10 1_555 1_555
C26_10 N2_10 1_555 1_555
C27_10 C25_10 1_555 1_555
H10_10 C27_10 1_555 1_555
C28_10 C26_10 1_555 1_555
H11_10 C28_10 1_555 1_555
C29_10 C19_10 1_555 1_555
H12_10 C29_10 1_555 1_555
C30_10 C20_10 1_555 1_555
H13_10 C30_10 1_555 1_555
C31_10 N1_10 1_555 1_555
C32_10 N2_10 1_555 1_555
C33_10 C31_10 1_555 1_555
H14_10 C33_10 1_555 1_555
C34_10 C32_10 1_555 1_555
H15_10 C34_10 1_555 1_555
C35_10 C33_10 1_555 1_555
H16_10 C35_10 1_555 1_555
C36_10 C34_10 1_555 1_555
H17_10 C36_10 1_555 1_555
C37_10 C35_10 1_555 1_555
C38_10 C1_10 1_555 1_555
C39_10 C31_10 1_555 1_555
C40_10 C37_10 1_555 1_555
Cu4_4 O3_10 1_555 1_555
Cu7_4 O1_10 1_555 1_555
O11_10 Cu4_4 1_555 1_555
O13_10 Cu7_4 1_555 1_555
Cu5_10 O5_10 1_555 1_555
Cu8_10 O7_10 1_555 1_555
C11_10 C13_10 1_555 1_555
C21_10 C23_10 1_555 1_555
C22_10 C24_10 1_555 1_555
C23_10 C25_10 1_555 1_555
C24_10 C26_10 1_555 1_555
C27_10 C29_10 1_555 1_555
C28_10 C30_10 1_555 1_555
C36_10 C38_10 1_555 1_555
C37_10 C38_10 1_555 1_555
C39_10 C40_10 1_555 1_555
O1_11 C15_11 1_555 1_555
O2_6 C16_11 1_555 1_555
O3_11 C15_11 1_555 1_555
O4_6 C16_11 1_555 1_555
O5_11 C17_11 1_555 1_555
O12_7 C18_11 1_555 1_555
O7_11 C17_11 1_555 1_555
O14_7 C18_11 1_555 1_555
N1_11 C7_11 1_555 1_555
N2_11 C8_11 1_555 1_555
C1_11 C2_11 1_555 1_555
C2_11 H1_11 1_555 1_555
C3_11 H2_11 1_555 1_555
C4_11 H3_11 1_555 1_555
C5_11 C3_11 1_555 1_555
H4_11 C5_11 1_555 1_555
C6_11 C4_11 1_555 1_555
H5_11 C6_11 1_555 1_555
C7_11 C5_11 1_555 1_555
C8_11 C6_11 1_555 1_555
C9_11 C7_11 1_555 1_555
C10_11 C8_11 1_555 1_555
C11_11 C9_11 1_555 1_555
H6_11 C11_11 1_555 1_555
C12_11 C10_11 1_555 1_555
H7_11 C12_11 1_555 1_555
C13_11 C3_11 1_555 1_555
C14_11 C4_11 1_555 1_555
C15_11 C13_11 1_555 1_555
C16_11 C14_11 1_555 1_555
C17_11 C19_11 1_555 1_555
C18_11 C20_11 1_555 1_555
C19_11 C21_11 1_555 1_555
C20_11 C22_11 1_555 1_555
C21_11 H8_11 1_555 1_555
C22_11 H9_11 1_555 1_555
C23_11 C9_11 1_555 1_555
C24_11 C10_11 1_555 1_555
C25_11 N1_11 1_555 1_555
C26_11 N2_11 1_555 1_555
C27_11 C25_11 1_555 1_555
H10_11 C27_11 1_555 1_555
C28_11 C26_11 1_555 1_555
H11_11 C28_11 1_555 1_555
C29_11 C19_11 1_555 1_555
H12_11 C29_11 1_555 1_555
C30_11 C20_11 1_555 1_555
H13_11 C30_11 1_555 1_555
C31_11 N1_11 1_555 1_555
C32_11 N2_11 1_555 1_555
C33_11 C31_11 1_555 1_555
H14_11 C33_11 1_555 1_555
C34_11 C32_11 1_555 1_555
H15_11 C34_11 1_555 1_555
C35_11 C33_11 1_555 1_555
H16_11 C35_11 1_555 1_555
C36_11 C34_11 1_555 1_555
H17_11 C36_11 1_555 1_555
C37_11 C35_11 1_555 1_555
C38_11 C1_11 1_555 1_555
C39_11 C31_11 1_555 1_555
C40_11 C37_11 1_555 1_555
H18_11 C40_11 1_555 1_555
H19_11 C39_11 1_555 1_555
H20_11 C1_11 1_555 1_555
Cu4_3 O3_11 1_555 1_555
Cu7_3 O1_11 1_555 1_555
O9_6 Cu7_3 1_555 1_555
O10_6 Cu4_3 1_555 1_555
O11_11 Cu4_3 1_555 1_555
O13_11 Cu7_3 1_555 1_555
Cu4 O4_6 1_555 1_555
Cu5_11 O5_11 1_555 1_555
Cu7 O2_6 1_555 1_555
Cu8_11 O7_11 1_555 1_555
C2_11 C32_11 1_555 1_555
C11_11 C13_11 1_555 1_555
C12_11 C14_11 1_555 1_555
C21_11 C23_11 1_555 1_555
C22_11 C24_11 1_555 1_555
C23_11 C25_11 1_555 1_555
C24_11 C26_11 1_555 1_555
C27_11 C29_11 1_555 1_555
C28_11 C30_11 1_555 1_555
C36_11 C38_11 1_555 1_555
C37_11 C38_11 1_555 1_555
C39_11 C40_11 1_555 1_555
O11_12 Cu4 1_555 1_555
O13_12 Cu7 1_555 1_555
O1_12 C15_12 1_555 1_555
O9_6 C16_12 1_555 1_555
O3_12 C15_12 1_555 1_555
O10_6 C16_12 1_555 1_555
O5_12 C17_12 1_555 1_555
O12_6 C18_12 1_555 1_555
O7_12 C17_12 1_555 1_555
O14_6 C18_12 1_555 1_555
N1_12 C7_12 1_555 1_555
N2_12 C8_12 1_555 1_555
C1_12 C2_12 1_555 1_555
C2_12 H1_12 1_555 1_555
C3_12 H2_12 1_555 1_555
C4_12 H3_12 1_555 1_555
C5_12 C3_12 1_555 1_555
H4_12 C5_12 1_555 1_555
C6_12 C4_12 1_555 1_555
H5_12 C6_12 1_555 1_555
C7_12 C5_12 1_555 1_555
C8_12 C6_12 1_555 1_555
C9_12 C7_12 1_555 1_555
C10_12 C8_12 1_555 1_555
C11_12 C9_12 1_555 1_555
H6_12 C11_12 1_555 1_555
C12_12 C10_12 1_555 1_555
H7_12 C12_12 1_555 1_555
C13_12 C3_12 1_555 1_555
C14_12 C4_12 1_555 1_555
C15_12 C13_12 1_555 1_555
C16_12 C14_12 1_555 1_555
C17_12 C19_12 1_555 1_555
C18_12 C20_12 1_555 1_555
C19_12 C21_12 1_555 1_555
C20_12 C22_12 1_555 1_555
C21_12 H8_12 1_555 1_555
C22_12 H9_12 1_555 1_555
C23_12 C9_12 1_555 1_555
C24_12 C10_12 1_555 1_555
C25_12 N1_12 1_555 1_555
C26_12 N2_12 1_555 1_555
C27_12 C25_12 1_555 1_555
H10_12 C27_12 1_555 1_555
C28_12 C26_12 1_555 1_555
H11_12 C28_12 1_555 1_555
C29_12 C19_12 1_555 1_555
H12_12 C29_12 1_555 1_555
C30_12 C20_12 1_555 1_555
H13_12 C30_12 1_555 1_555
C31_12 N1_12 1_555 1_555
C32_12 N2_12 1_555 1_555
C33_12 C31_12 1_555 1_555
H14_12 C33_12 1_555 1_555
C34_12 C32_12 1_555 1_555
H15_12 C34_12 1_555 1_555
C35_12 C33_12 1_555 1_555
H16_12 C35_12 1_555 1_555
C36_12 C34_12 1_555 1_555
H17_12 C36_12 1_555 1_555
C37_12 C35_12 1_555 1_555
C38_12 C1_12 1_555 1_555
C39_12 C31_12 1_555 1_555
C40_12 C37_12 1_555 1_555
H18_12 C40_12 1_555 1_555
H19_12 C39_12 1_555 1_555
H20_12 C1_12 1_555 1_555
Cu5_12 O5_12 1_555 1_555
Cu8_12 O7_12 1_555 1_555
C2_12 C32_12 1_555 1_555
C11_12 C13_12 1_555 1_555
C12_12 C14_12 1_555 1_555
C21_12 C23_12 1_555 1_555
C22_12 C24_12 1_555 1_555
C23_12 C25_12 1_555 1_555
C24_12 C26_12 1_555 1_555
C27_12 C29_12 1_555 1_555
C28_12 C30_12 1_555 1_555
C36_12 C38_12 1_555 1_555
C37_12 C38_12 1_555 1_555
C39_12 C40_12 1_555 1_555
O2_7 C16_13 1_555 1_555
O4_7 C16_13 1_555 1_555
C2_13 H1_13 1_555 1_555
C4_13 H3_13 1_555 1_555
C6_13 C4_13 1_555 1_555
H5_13 C6_13 1_555 1_555
C8_13 C6_13 1_555 1_555
C10_13 C8_13 1_555 1_555
C12_13 C10_13 1_555 1_555
H7_13 C12_13 1_555 1_555
C14_13 C4_13 1_555 1_555
C16_13 C14_13 1_555 1_555
Cu5_7 O4_7 1_555 1_555
Cu8_7 O2_7 1_555 1_555
C12_13 C14_13 1_555 1_555
O9_7 Cu8_5 1_555 1_555
O10_7 Cu5_5 1_555 1_555
O1_13 C15_13 1_555 1_555
O3_13 C15_13 1_555 1_555
O11_9 C17_13 1_555 1_555
O6_5 C18_13 1_555 1_555
O13_9 C17_13 1_555 1_555
O8_5 C18_13 1_555 1_555
N1_13 C7_13 1_555 1_555
C3_13 H2_13 1_555 1_555
C5_13 C3_13 1_555 1_555
H4_13 C5_13 1_555 1_555
C7_13 C5_13 1_555 1_555
C9_13 C7_13 1_555 1_555
C11_13 C9_13 1_555 1_555
H6_13 C11_13 1_555 1_555
C13_13 C3_13 1_555 1_555
C15_13 C13_13 1_555 1_555
C17_13 C19_13 1_555 1_555
C18_13 C20_13 1_555 1_555
C19_13 C21_13 1_555 1_555
C20_13 C22_13 1_555 1_555
C21_13 H8_13 1_555 1_555
C22_13 H9_13 1_555 1_555
C23_13 C9_13 1_555 1_555
C25_13 N1_13 1_555 1_555
C26_13 N2_13 1_555 1_555
C27_13 C25_13 1_555 1_555
H10_13 C27_13 1_555 1_555
C28_13 C26_13 1_555 1_555
H11_13 C28_13 1_555 1_555
C29_13 C19_13 1_555 1_555
H12_13 C29_13 1_555 1_555
C30_13 C20_13 1_555 1_555
H13_13 C30_13 1_555 1_555
C31_13 N1_13 1_555 1_555
C32_13 N2_13 1_555 1_555
C33_13 C31_13 1_555 1_555
H14_13 C33_13 1_555 1_555
C34_13 C32_13 1_555 1_555
H15_13 C34_13 1_555 1_555
C35_13 C33_13 1_555 1_555
H16_13 C35_13 1_555 1_555
C36_13 C34_13 1_555 1_555
H17_13 C36_13 1_555 1_555
C37_13 C35_13 1_555 1_555
C38_13 C1_13 1_555 1_555
C39_13 C31_13 1_555 1_555
C40_13 C37_13 1_555 1_555
Cu5_2 O6_5 1_555 1_555
Cu8_2 O8_5 1_555 1_555
C11_13 C13_13 1_555 1_555
C21_13 C23_13 1_555 1_555
C22_13 C24_13 1_555 1_555
C23_13 C25_13 1_555 1_555
C24_13 C26_13 1_555 1_555
C27_13 C29_13 1_555 1_555
C28_13 C30_13 1_555 1_555
C36_13 C38_13 1_555 1_555
C37_13 C38_13 1_555 1_555
C39_13 C40_13 1_555 1_555
O1_14 C15_14 1_555 1_555
O3_14 C15_14 1_555 1_555
O11_12 C17_14 1_555 1_555
O6_6 C18_14 1_555 1_555
O13_12 C17_14 1_555 1_555
O8_6 C18_14 1_555 1_555
N1_14 C7_14 1_555 1_555
C3_14 H2_14 1_555 1_555
C5_14 C3_14 1_555 1_555
H4_14 C5_14 1_555 1_555
C7_14 C5_14 1_555 1_555
C9_14 C7_14 1_555 1_555
C11_14 C9_14 1_555 1_555
H6_14 C11_14 1_555 1_555
C13_14 C3_14 1_555 1_555
C15_14 C13_14 1_555 1_555
C17_14 C19_14 1_555 1_555
C18_14 C20_14 1_555 1_555
C19_14 C21_14 1_555 1_555
C20_14 C22_14 1_555 1_555
C21_14 H8_14 1_555 1_555
C22_14 H9_14 1_555 1_555
C23_14 C9_14 1_555 1_555
C25_14 N1_14 1_555 1_555
C26_14 N2_14 1_555 1_555
C27_14 C25_14 1_555 1_555
H10_14 C27_14 1_555 1_555
C28_14 C26_14 1_555 1_555
H11_14 C28_14 1_555 1_555
C29_14 C19_14 1_555 1_555
H12_14 C29_14 1_555 1_555
C30_14 C20_14 1_555 1_555
H13_14 C30_14 1_555 1_555
C31_14 N1_14 1_555 1_555
C32_14 N2_14 1_555 1_555
C33_14 C31_14 1_555 1_555
H14_14 C33_14 1_555 1_555
C34_14 C32_14 1_555 1_555
H15_14 C34_14 1_555 1_555
C35_14 C33_14 1_555 1_555
H16_14 C35_14 1_555 1_555
C36_14 C34_14 1_555 1_555
H17_14 C36_14 1_555 1_555
C37_14 C35_14 1_555 1_555
C38_14 C1_14 1_555 1_555
C39_14 C31_14 1_555 1_555
C40_14 C37_14 1_555 1_555
Cu5_7 O3_14 1_555 1_555
Cu8_7 O1_14 1_555 1_555
C11_14 C13_14 1_555 1_555
C21_14 C23_14 1_555 1_555
C22_14 C24_14 1_555 1_555
C23_14 C25_14 1_555 1_555
C24_14 C26_14 1_555 1_555
C27_14 C29_14 1_555 1_555
C28_14 C30_14 1_555 1_555
C36_14 C38_14 1_555 1_555
C37_14 C38_14 1_555 1_555
C39_14 C40_14 1_555 1_555
O9_7 C16_14 1_555 1_555
O10_7 C16_14 1_555 1_555
C2_14 H1_14 1_555 1_555
C4_14 H3_14 1_555 1_555
C6_14 C4_14 1_555 1_555
H5_14 C6_14 1_555 1_555
C8_14 C6_14 1_555 1_555
C10_14 C8_14 1_555 1_555
C12_14 C10_14 1_555 1_555
H7_14 C12_14 1_555 1_555
C14_14 C4_14 1_555 1_555
C16_14 C14_14 1_555 1_555
C12_14 C14_14 1_555 1_555
O1_15 C15_15 1_555 1_555
O2_8 C16_15 1_555 1_555
O3_15 C15_15 1_555 1_555
O4_8 C16_15 1_555 1_555
O11_10 C17_15 1_555 1_555
O6_7 C18_15 1_555 1_555
O13_10 C17_15 1_555 1_555
O8_7 C18_15 1_555 1_555
N1_15 C7_15 1_555 1_555
N2_15 C8_15 1_555 1_555
C1_15 C2_15 1_555 1_555
C2_15 H1_15 1_555 1_555
C3_15 H2_15 1_555 1_555
C4_15 H3_15 1_555 1_555
C5_15 C3_15 1_555 1_555
H4_15 C5_15 1_555 1_555
C6_15 C4_15 1_555 1_555
H5_15 C6_15 1_555 1_555
C7_15 C5_15 1_555 1_555
C8_15 C6_15 1_555 1_555
C9_15 C7_15 1_555 1_555
C10_15 C8_15 1_555 1_555
C11_15 C9_15 1_555 1_555
H6_15 C11_15 1_555 1_555
C12_15 C10_15 1_555 1_555
H7_15 C12_15 1_555 1_555
C13_15 C3_15 1_555 1_555
C14_15 C4_15 1_555 1_555
C15_15 C13_15 1_555 1_555
C16_15 C14_15 1_555 1_555
C17_15 C19_15 1_555 1_555
C18_15 C20_15 1_555 1_555
C19_15 C21_15 1_555 1_555
C20_15 C22_15 1_555 1_555
C21_15 H8_15 1_555 1_555
C22_15 H9_15 1_555 1_555
C23_15 C9_15 1_555 1_555
C24_15 C10_15 1_555 1_555
C25_15 N1_15 1_555 1_555
C26_15 N2_15 1_555 1_555
C27_15 C25_15 1_555 1_555
H10_15 C27_15 1_555 1_555
C28_15 C26_15 1_555 1_555
H11_15 C28_15 1_555 1_555
C29_15 C19_15 1_555 1_555
H12_15 C29_15 1_555 1_555
C30_15 C20_15 1_555 1_555
H13_15 C30_15 1_555 1_555
C31_15 N1_15 1_555 1_555
C32_15 N2_15 1_555 1_555
C33_15 C31_15 1_555 1_555
H14_15 C33_15 1_555 1_555
C34_15 C32_15 1_555 1_555
H15_15 C34_15 1_555 1_555
C35_15 C33_15 1_555 1_555
H16_15 C35_15 1_555 1_555
C36_15 C34_15 1_555 1_555
H17_15 C36_15 1_555 1_555
C37_15 C35_15 1_555 1_555
C38_15 C1_15 1_555 1_555
C39_15 C31_15 1_555 1_555
C40_15 C37_15 1_555 1_555
H18_15 C40_15 1_555 1_555
H19_15 C39_15 1_555 1_555
H20_15 C1_15 1_555 1_555
Cu5_8 O3_15 1_555 1_555
Cu8_8 O1_15 1_555 1_555
O9_8 Cu8_8 1_555 1_555
O10_8 Cu5_8 1_555 1_555
O12_11 Cu5_8 1_555 1_555
O14_11 Cu8_8 1_555 1_555
Cu5_6 O4_8 1_555 1_555
Cu5_4 O6_7 1_555 1_555
Cu8_6 O2_8 1_555 1_555
Cu8_4 O8_7 1_555 1_555
C2_15 C32_15 1_555 1_555
C11_15 C13_15 1_555 1_555
C12_15 C14_15 1_555 1_555
C21_15 C23_15 1_555 1_555
C22_15 C24_15 1_555 1_555
C23_15 C25_15 1_555 1_555
C24_15 C26_15 1_555 1_555
C27_15 C29_15 1_555 1_555
C28_15 C30_15 1_555 1_555
C36_15 C38_15 1_555 1_555
C37_15 C38_15 1_555 1_555
C39_15 C40_15 1_555 1_555
O1_16 C15_16 1_555 1_555
O9_8 C16_16 1_555 1_555
O3_16 C15_16 1_555 1_555
O10_8 C16_16 1_555 1_555
O11_11 C17_16 1_555 1_555
O6_8 C18_16 1_555 1_555
O13_11 C17_16 1_555 1_555
O8_8 C18_16 1_555 1_555
N1_16 C7_16 1_555 1_555
N2_16 C8_16 1_555 1_555
C1_16 C2_16 1_555 1_555
C2_16 H1_16 1_555 1_555
C3_16 H2_16 1_555 1_555
C4_16 H3_16 1_555 1_555
C5_16 C3_16 1_555 1_555
H4_16 C5_16 1_555 1_555
C6_16 C4_16 1_555 1_555
H5_16 C6_16 1_555 1_555
C7_16 C5_16 1_555 1_555
C8_16 C6_16 1_555 1_555
C9_16 C7_16 1_555 1_555
C10_16 C8_16 1_555 1_555
C11_16 C9_16 1_555 1_555
H6_16 C11_16 1_555 1_555
C12_16 C10_16 1_555 1_555
H7_16 C12_16 1_555 1_555
C13_16 C3_16 1_555 1_555
C14_16 C4_16 1_555 1_555
C15_16 C13_16 1_555 1_555
C16_16 C14_16 1_555 1_555
C17_16 C19_16 1_555 1_555
C18_16 C20_16 1_555 1_555
C19_16 C21_16 1_555 1_555
C20_16 C22_16 1_555 1_555
C21_16 H8_16 1_555 1_555
C22_16 H9_16 1_555 1_555
C23_16 C9_16 1_555 1_555
C24_16 C10_16 1_555 1_555
C25_16 N1_16 1_555 1_555
C26_16 N2_16 1_555 1_555
C27_16 C25_16 1_555 1_555
H10_16 C27_16 1_555 1_555
C28_16 C26_16 1_555 1_555
H11_16 C28_16 1_555 1_555
C29_16 C19_16 1_555 1_555
H12_16 C29_16 1_555 1_555
C30_16 C20_16 1_555 1_555
H13_16 C30_16 1_555 1_555
C31_16 N1_16 1_555 1_555
C32_16 N2_16 1_555 1_555
C33_16 C31_16 1_555 1_555
H14_16 C33_16 1_555 1_555
C34_16 C32_16 1_555 1_555
H15_16 C34_16 1_555 1_555
C35_16 C33_16 1_555 1_555
H16_16 C35_16 1_555 1_555
C36_16 C34_16 1_555 1_555
H17_16 C36_16 1_555 1_555
C37_16 C35_16 1_555 1_555
C38_16 C1_16 1_555 1_555
C39_16 C31_16 1_555 1_555
C40_16 C37_16 1_555 1_555
H18_16 C40_16 1_555 1_555
H19_16 C39_16 1_555 1_555
H20_16 C1_16 1_555 1_555
C2_16 C32_16 1_555 1_555
C11_16 C13_16 1_555 1_555
C12_16 C14_16 1_555 1_555
C21_16 C23_16 1_555 1_555
C22_16 C24_16 1_555 1_555
C23_16 C25_16 1_555 1_555
C24_16 C26_16 1_555 1_555
C27_16 C29_16 1_555 1_555
C28_16 C30_16 1_555 1_555
C36_16 C38_16 1_555 1_555
C37_16 C38_16 1_555 1_555
C39_16 C40_16 1_555 1_555
O12_12 Cu5_6 1_555 1_555
O14_12 Cu8_6 1_555 1_555
O9_9 Cu8_9 1_555 1_555
O10_9 Cu5_9 1_555 1_555
O2_9 C16_17 1_555 1_555
O4_9 C16_17 1_555 1_555
C2_17 H1_17 1_555 1_555
C4_17 H3_17 1_555 1_555
C6_17 C4_17 1_555 1_555
H5_17 C6_17 1_555 1_555
C8_17 C6_17 1_555 1_555
C10_17 C8_17 1_555 1_555
C12_17 C10_17 1_555 1_555
H7_17 C12_17 1_555 1_555
C14_17 C4_17 1_555 1_555
C16_17 C14_17 1_555 1_555
Cu5_11 O4_9 1_555 1_555
Cu8_11 O2_9 1_555 1_555
C12_17 C14_17 1_555 1_555
O1_17 C15_17 1_555 1_555
O3_17 C15_17 1_555 1_555
O11 C17_17 1_555 1_555
O12_12 C18_17 1_555 1_555
O13 C17_17 1_555 1_555
O14_12 C18_17 1_555 1_555
N1_17 C7_17 1_555 1_555
C3_17 H2_17 1_555 1_555
C5_17 C3_17 1_555 1_555
H4_17 C5_17 1_555 1_555
C7_17 C5_17 1_555 1_555
C9_17 C7_17 1_555 1_555
C11_17 C9_17 1_555 1_555
H6_17 C11_17 1_555 1_555
C13_17 C3_17 1_555 1_555
C15_17 C13_17 1_555 1_555
C17_17 C19_17 1_555 1_555
C18_17 C20_17 1_555 1_555
C19_17 C21_17 1_555 1_555
C20_17 C22_17 1_555 1_555
C21_17 H8_17 1_555 1_555
C22_17 H9_17 1_555 1_555
C23_17 C9_17 1_555 1_555
C25_17 N1_17 1_555 1_555
C26_17 N2_17 1_555 1_555
C27_17 C25_17 1_555 1_555
H10_17 C27_17 1_555 1_555
C28_17 C26_17 1_555 1_555
H11_17 C28_17 1_555 1_555
C29_17 C19_17 1_555 1_555
H12_17 C29_17 1_555 1_555
C30_17 C20_17 1_555 1_555
H13_17 C30_17 1_555 1_555
C31_17 N1_17 1_555 1_555
C32_17 N2_17 1_555 1_555
C33_17 C31_17 1_555 1_555
H14_17 C33_17 1_555 1_555
C34_17 C32_17 1_555 1_555
H15_17 C34_17 1_555 1_555
C35_17 C33_17 1_555 1_555
H16_17 C35_17 1_555 1_555
C36_17 C34_17 1_555 1_555
H17_17 C36_17 1_555 1_555
C37_17 C35_17 1_555 1_555
C38_17 C1_17 1_555 1_555
C39_17 C31_17 1_555 1_555
C40_17 C37_17 1_555 1_555
C11_17 C13_17 1_555 1_555
C21_17 C23_17 1_555 1_555
C22_17 C24_17 1_555 1_555
C23_17 C25_17 1_555 1_555
C24_17 C26_17 1_555 1_555
C27_17 C29_17 1_555 1_555
C28_17 C30_17 1_555 1_555
C36_17 C38_17 1_555 1_555
C37_17 C38_17 1_555 1_555
C39_17 C40_17 1_555 1_555
O1_18 C15_18 1_555 1_555
O3_18 C15_18 1_555 1_555
O11_4 C17_18 1_555 1_555
O12_9 C18_18 1_555 1_555
O13_4 C17_18 1_555 1_555
O14_9 C18_18 1_555 1_555
N1_18 C7_18 1_555 1_555
C3_18 H2_18 1_555 1_555
C5_18 C3_18 1_555 1_555
H4_18 C5_18 1_555 1_555
C7_18 C5_18 1_555 1_555
C9_18 C7_18 1_555 1_555
C11_18 C9_18 1_555 1_555
H6_18 C11_18 1_555 1_555
C13_18 C3_18 1_555 1_555
C15_18 C13_18 1_555 1_555
C17_18 C19_18 1_555 1_555
C18_18 C20_18 1_555 1_555
C19_18 C21_18 1_555 1_555
C20_18 C22_18 1_555 1_555
C21_18 H8_18 1_555 1_555
C22_18 H9_18 1_555 1_555
C23_18 C9_18 1_555 1_555
C25_18 N1_18 1_555 1_555
C26_18 N2_18 1_555 1_555
C27_18 C25_18 1_555 1_555
H10_18 C27_18 1_555 1_555
C28_18 C26_18 1_555 1_555
H11_18 C28_18 1_555 1_555
C29_18 C19_18 1_555 1_555
H12_18 C29_18 1_555 1_555
C30_18 C20_18 1_555 1_555
H13_18 C30_18 1_555 1_555
C31_18 N1_18 1_555 1_555
C32_18 N2_18 1_555 1_555
C33_18 C31_18 1_555 1_555
H14_18 C33_18 1_555 1_555
C34_18 C32_18 1_555 1_555
H15_18 C34_18 1_555 1_555
C35_18 C33_18 1_555 1_555
H16_18 C35_18 1_555 1_555
C36_18 C34_18 1_555 1_555
H17_18 C36_18 1_555 1_555
C37_18 C35_18 1_555 1_555
C38_18 C1_18 1_555 1_555
C39_18 C31_18 1_555 1_555
C40_18 C37_18 1_555 1_555
Cu5_11 O3_18 1_555 1_555
Cu8_11 O1_18 1_555 1_555
C11_18 C13_18 1_555 1_555
C21_18 C23_18 1_555 1_555
C22_18 C24_18 1_555 1_555
C23_18 C25_18 1_555 1_555
C24_18 C26_18 1_555 1_555
C27_18 C29_18 1_555 1_555
C28_18 C30_18 1_555 1_555
C36_18 C38_18 1_555 1_555
C37_18 C38_18 1_555 1_555
C39_18 C40_18 1_555 1_555
O9_9 C16_18 1_555 1_555
O10_9 C16_18 1_555 1_555
C2_18 H1_18 1_555 1_555
C4_18 H3_18 1_555 1_555
C6_18 C4_18 1_555 1_555
H5_18 C6_18 1_555 1_555
C8_18 C6_18 1_555 1_555
C10_18 C8_18 1_555 1_555
C12_18 C10_18 1_555 1_555
H7_18 C12_18 1_555 1_555
C14_18 C4_18 1_555 1_555
C16_18 C14_18 1_555 1_555
C12_18 C14_18 1_555 1_555
O1_19 C15_19 1_555 1_555
O2_10 C16_19 1_555 1_555
O3_19 C15_19 1_555 1_555
O4_10 C16_19 1_555 1_555
O11_2 C17_19 1_555 1_555
O12_11 C18_19 1_555 1_555
O13_2 C17_19 1_555 1_555
O14_11 C18_19 1_555 1_555
N1_19 C7_19 1_555 1_555
N2_19 C8_19 1_555 1_555
C1_19 C2_19 1_555 1_555
C2_19 H1_19 1_555 1_555
C3_19 H2_19 1_555 1_555
C4_19 H3_19 1_555 1_555
C5_19 C3_19 1_555 1_555
H4_19 C5_19 1_555 1_555
C6_19 C4_19 1_555 1_555
H5_19 C6_19 1_555 1_555
C7_19 C5_19 1_555 1_555
C8_19 C6_19 1_555 1_555
C9_19 C7_19 1_555 1_555
C10_19 C8_19 1_555 1_555
C11_19 C9_19 1_555 1_555
H6_19 C11_19 1_555 1_555
C12_19 C10_19 1_555 1_555
H7_19 C12_19 1_555 1_555
C13_19 C3_19 1_555 1_555
C14_19 C4_19 1_555 1_555
C15_19 C13_19 1_555 1_555
C16_19 C14_19 1_555 1_555
C17_19 C19_19 1_555 1_555
C18_19 C20_19 1_555 1_555
C19_19 C21_19 1_555 1_555
C20_19 C22_19 1_555 1_555
C21_19 H8_19 1_555 1_555
C22_19 H9_19 1_555 1_555
C23_19 C9_19 1_555 1_555
C24_19 C10_19 1_555 1_555
C25_19 N1_19 1_555 1_555
C26_19 N2_19 1_555 1_555
C27_19 C25_19 1_555 1_555
H10_19 C27_19 1_555 1_555
C28_19 C26_19 1_555 1_555
H11_19 C28_19 1_555 1_555
C29_19 C19_19 1_555 1_555
H12_19 C29_19 1_555 1_555
C30_19 C20_19 1_555 1_555
H13_19 C30_19 1_555 1_555
C31_19 N1_19 1_555 1_555
C32_19 N2_19 1_555 1_555
C33_19 C31_19 1_555 1_555
H14_19 C33_19 1_555 1_555
C34_19 C32_19 1_555 1_555
H15_19 C34_19 1_555 1_555
C35_19 C33_19 1_555 1_555
H16_19 C35_19 1_555 1_555
C36_19 C34_19 1_555 1_555
H17_19 C36_19 1_555 1_555
C37_19 C35_19 1_555 1_555
C38_19 C1_19 1_555 1_555
C39_19 C31_19 1_555 1_555
C40_19 C37_19 1_555 1_555
H18_19 C40_19 1_555 1_555
H19_19 C39_19 1_555 1_555
H20_19 C1_19 1_555 1_555
Cu5_12 O3_19 1_555 1_555
Cu8_12 O1_19 1_555 1_555
O9_10 Cu8_12 1_555 1_555
O10_10 Cu5_12 1_555 1_555
O12_15 Cu5_12 1_555 1_555
O14_15 Cu8_12 1_555 1_555
Cu5_10 O4_10 1_555 1_555
Cu8_10 O2_10 1_555 1_555
C2_19 C32_19 1_555 1_555
C11_19 C13_19 1_555 1_555
C12_19 C14_19 1_555 1_555
C21_19 C23_19 1_555 1_555
C22_19 C24_19 1_555 1_555
C23_19 C25_19 1_555 1_555
C24_19 C26_19 1_555 1_555
C27_19 C29_19 1_555 1_555
C28_19 C30_19 1_555 1_555
C36_19 C38_19 1_555 1_555
C37_19 C38_19 1_555 1_555
C39_19 C40_19 1_555 1_555
O1_20 C15_20 1_555 1_555
O9_10 C16_20 1_555 1_555
O3_20 C15_20 1_555 1_555
O10_10 C16_20 1_555 1_555
O11_3 C17_20 1_555 1_555
O12_10 C18_20 1_555 1_555
O13_3 C17_20 1_555 1_555
O14_10 C18_20 1_555 1_555
N1_20 C7_20 1_555 1_555
N2_20 C8_20 1_555 1_555
C1_20 C2_20 1_555 1_555
C2_20 H1_20 1_555 1_555
C3_20 H2_20 1_555 1_555
C4_20 H3_20 1_555 1_555
C5_20 C3_20 1_555 1_555
H4_20 C5_20 1_555 1_555
C6_20 C4_20 1_555 1_555
H5_20 C6_20 1_555 1_555
C7_20 C5_20 1_555 1_555
C8_20 C6_20 1_555 1_555
C9_20 C7_20 1_555 1_555
C10_20 C8_20 1_555 1_555
C11_20 C9_20 1_555 1_555
H6_20 C11_20 1_555 1_555
C12_20 C10_20 1_555 1_555
H7_20 C12_20 1_555 1_555
C13_20 C3_20 1_555 1_555
C14_20 C4_20 1_555 1_555
C15_20 C13_20 1_555 1_555
C16_20 C14_20 1_555 1_555
C17_20 C19_20 1_555 1_555
C18_20 C20_20 1_555 1_555
C19_20 C21_20 1_555 1_555
C20_20 C22_20 1_555 1_555
C21_20 H8_20 1_555 1_555
C22_20 H9_20 1_555 1_555
C23_20 C9_20 1_555 1_555
C24_20 C10_20 1_555 1_555
C25_20 N1_20 1_555 1_555
C26_20 N2_20 1_555 1_555
C27_20 C25_20 1_555 1_555
H10_20 C27_20 1_555 1_555
C28_20 C26_20 1_555 1_555
H11_20 C28_20 1_555 1_555
C29_20 C19_20 1_555 1_555
H12_20 C29_20 1_555 1_555
C30_20 C20_20 1_555 1_555
H13_20 C30_20 1_555 1_555
C31_20 N1_20 1_555 1_555
C32_20 N2_20 1_555 1_555
C33_20 C31_20 1_555 1_555
H14_20 C33_20 1_555 1_555
C34_20 C32_20 1_555 1_555
H15_20 C34_20 1_555 1_555
C35_20 C33_20 1_555 1_555
H16_20 C35_20 1_555 1_555
C36_20 C34_20 1_555 1_555
H17_20 C36_20 1_555 1_555
C37_20 C35_20 1_555 1_555
C38_20 C1_20 1_555 1_555
C39_20 C31_20 1_555 1_555
C40_20 C37_20 1_555 1_555
H18_20 C40_20 1_555 1_555
H19_20 C39_20 1_555 1_555
H20_20 C1_20 1_555 1_555
C2_20 C32_20 1_555 1_555
C11_20 C13_20 1_555 1_555
C12_20 C14_20 1_555 1_555
C21_20 C23_20 1_555 1_555
C22_20 C24_20 1_555 1_555
C23_20 C25_20 1_555 1_555
C24_20 C26_20 1_555 1_555
C27_20 C29_20 1_555 1_555
C28_20 C30_20 1_555 1_555
C36_20 C38_20 1_555 1_555
C37_20 C38_20 1_555 1_555
C39_20 C40_20 1_555 1_555
O12_16 Cu5_10 1_555 1_555
O14_16 Cu8_10 1_555 1_555
O2_11 C16_21 1_555 1_555
O4_11 C16_21 1_555 1_555
C2_21 H1_21 1_555 1_555
C4_21 H3_21 1_555 1_555
C6_21 C4_21 1_555 1_555
H5_21 C6_21 1_555 1_555
C8_21 C6_21 1_555 1_555
C10_21 C8_21 1_555 1_555
C12_21 C10_21 1_555 1_555
H7_21 C12_21 1_555 1_555
C14_21 C4_21 1_555 1_555
C16_21 C14_21 1_555 1_555
Cu5_3 O4_11 1_555 1_555
Cu8_3 O2_11 1_555 1_555
C12_21 C14_21 1_555 1_555
O9_11 Cu8 1_555 1_555
O10_11 Cu5 1_555 1_555
O1_21 C15_21 1_555 1_555
O3_21 C15_21 1_555 1_555
O11_5 C17_21 1_555 1_555
O12_16 C18_21 1_555 1_555
O13_5 C17_21 1_555 1_555
O14_16 C18_21 1_555 1_555
N1_21 C7_21 1_555 1_555
C3_21 H2_21 1_555 1_555
C5_21 C3_21 1_555 1_555
H4_21 C5_21 1_555 1_555
C7_21 C5_21 1_555 1_555
C9_21 C7_21 1_555 1_555
C11_21 C9_21 1_555 1_555
H6_21 C11_21 1_555 1_555
C13_21 C3_21 1_555 1_555
C15_21 C13_21 1_555 1_555
C17_21 C19_21 1_555 1_555
C18_21 C20_21 1_555 1_555
C19_21 C21_21 1_555 1_555
C20_21 C22_21 1_555 1_555
C21_21 H8_21 1_555 1_555
C22_21 H9_21 1_555 1_555
C23_21 C9_21 1_555 1_555
C25_21 N1_21 1_555 1_555
C26_21 N2_21 1_555 1_555
C27_21 C25_21 1_555 1_555
H10_21 C27_21 1_555 1_555
C28_21 C26_21 1_555 1_555
H11_21 C28_21 1_555 1_555
C29_21 C19_21 1_555 1_555
H12_21 C29_21 1_555 1_555
C30_21 C20_21 1_555 1_555
H13_21 C30_21 1_555 1_555
C31_21 N1_21 1_555 1_555
C32_21 N2_21 1_555 1_555
C33_21 C31_21 1_555 1_555
H14_21 C33_21 1_555 1_555
C34_21 C32_21 1_555 1_555
H15_21 C34_21 1_555 1_555
C35_21 C33_21 1_555 1_555
H16_21 C35_21 1_555 1_555
C36_21 C34_21 1_555 1_555
H17_21 C36_21 1_555 1_555
C37_21 C35_21 1_555 1_555
C38_21 C1_21 1_555 1_555
C39_21 C31_21 1_555 1_555
C40_21 C37_21 1_555 1_555
C11_21 C13_21 1_555 1_555
C21_21 C23_21 1_555 1_555
C22_21 C24_21 1_555 1_555
C23_21 C25_21 1_555 1_555
C24_21 C26_21 1_555 1_555
C27_21 C29_21 1_555 1_555
C28_21 C30_21 1_555 1_555
C36_21 C38_21 1_555 1_555
C37_21 C38_21 1_555 1_555
C39_21 C40_21 1_555 1_555
O1_22 C15_22 1_555 1_555
O3_22 C15_22 1_555 1_555
O11_8 C17_22 1_555 1_555
O12_13 C18_22 1_555 1_555
O13_8 C17_22 1_555 1_555
O14_13 C18_22 1_555 1_555
N1_22 C7_22 1_555 1_555
C3_22 H2_22 1_555 1_555
C5_22 C3_22 1_555 1_555
H4_22 C5_22 1_555 1_555
C7_22 C5_22 1_555 1_555
C9_22 C7_22 1_555 1_555
C11_22 C9_22 1_555 1_555
H6_22 C11_22 1_555 1_555
C13_22 C3_22 1_555 1_555
C15_22 C13_22 1_555 1_555
C17_22 C19_22 1_555 1_555
C18_22 C20_22 1_555 1_555
C19_22 C21_22 1_555 1_555
C20_22 C22_22 1_555 1_555
C21_22 H8_22 1_555 1_555
C22_22 H9_22 1_555 1_555
C23_22 C9_22 1_555 1_555
C25_22 N1_22 1_555 1_555
C26_22 N2_22 1_555 1_555
C27_22 C25_22 1_555 1_555
H10_22 C27_22 1_555 1_555
C28_22 C26_22 1_555 1_555
H11_22 C28_22 1_555 1_555
C29_22 C19_22 1_555 1_555
H12_22 C29_22 1_555 1_555
C30_22 C20_22 1_555 1_555
H13_22 C30_22 1_555 1_555
C31_22 N1_22 1_555 1_555
C32_22 N2_22 1_555 1_555
C33_22 C31_22 1_555 1_555
H14_22 C33_22 1_555 1_555
C34_22 C32_22 1_555 1_555
H15_22 C34_22 1_555 1_555
C35_22 C33_22 1_555 1_555
H16_22 C35_22 1_555 1_555
C36_22 C34_22 1_555 1_555
H17_22 C36_22 1_555 1_555
C37_22 C35_22 1_555 1_555
C38_22 C1_22 1_555 1_555
C39_22 C31_22 1_555 1_555
C40_22 C37_22 1_555 1_555
Cu5_3 O3_22 1_555 1_555
Cu8_3 O1_22 1_555 1_555
C11_22 C13_22 1_555 1_555
C21_22 C23_22 1_555 1_555
C22_22 C24_22 1_555 1_555
C23_22 C25_22 1_555 1_555
C24_22 C26_22 1_555 1_555
C27_22 C29_22 1_555 1_555
C28_22 C30_22 1_555 1_555
C36_22 C38_22 1_555 1_555
C37_22 C38_22 1_555 1_555
C39_22 C40_22 1_555 1_555
O9_11 C16_22 1_555 1_555
O10_11 C16_22 1_555 1_555
C2_22 H1_22 1_555 1_555
C4_22 H3_22 1_555 1_555
C6_22 C4_22 1_555 1_555
H5_22 C6_22 1_555 1_555
C8_22 C6_22 1_555 1_555
C10_22 C8_22 1_555 1_555
C12_22 C10_22 1_555 1_555
H7_22 C12_22 1_555 1_555
C14_22 C4_22 1_555 1_555
C16_22 C14_22 1_555 1_555
C12_22 C14_22 1_555 1_555
O1_23 C15_23 1_555 1_555
O2_12 C16_23 1_555 1_555
O3_23 C15_23 1_555 1_555
O4_12 C16_23 1_555 1_555
O11_6 C17_23 1_555 1_555
O12_15 C18_23 1_555 1_555
O13_6 C17_23 1_555 1_555
O14_15 C18_23 1_555 1_555
N1_23 C7_23 1_555 1_555
N2_23 C8_23 1_555 1_555
C1_23 C2_23 1_555 1_555
C2_23 H1_23 1_555 1_555
C3_23 H2_23 1_555 1_555
C4_23 H3_23 1_555 1_555
C5_23 C3_23 1_555 1_555
H4_23 C5_23 1_555 1_555
C6_23 C4_23 1_555 1_555
H5_23 C6_23 1_555 1_555
C7_23 C5_23 1_555 1_555
C8_23 C6_23 1_555 1_555
C9_23 C7_23 1_555 1_555
C10_23 C8_23 1_555 1_555
C11_23 C9_23 1_555 1_555
H6_23 C11_23 1_555 1_555
C12_23 C10_23 1_555 1_555
H7_23 C12_23 1_555 1_555
C13_23 C3_23 1_555 1_555
C14_23 C4_23 1_555 1_555
C15_23 C13_23 1_555 1_555
C16_23 C14_23 1_555 1_555
C17_23 C19_23 1_555 1_555
C18_23 C20_23 1_555 1_555
C19_23 C21_23 1_555 1_555
C20_23 C22_23 1_555 1_555
C21_23 H8_23 1_555 1_555
C22_23 H9_23 1_555 1_555
C23_23 C9_23 1_555 1_555
C24_23 C10_23 1_555 1_555
C25_23 N1_23 1_555 1_555
C26_23 N2_23 1_555 1_555
C27_23 C25_23 1_555 1_555
H10_23 C27_23 1_555 1_555
C28_23 C26_23 1_555 1_555
H11_23 C28_23 1_555 1_555
C29_23 C19_23 1_555 1_555
H12_23 C29_23 1_555 1_555
C30_23 C20_23 1_555 1_555
H13_23 C30_23 1_555 1_555
C31_23 N1_23 1_555 1_555
C32_23 N2_23 1_555 1_555
C33_23 C31_23 1_555 1_555
H14_23 C33_23 1_555 1_555
C34_23 C32_23 1_555 1_555
H15_23 C34_23 1_555 1_555
C35_23 C33_23 1_555 1_555
H16_23 C35_23 1_555 1_555
C36_23 C34_23 1_555 1_555
H17_23 C36_23 1_555 1_555
C37_23 C35_23 1_555 1_555
C38_23 C1_23 1_555 1_555
C39_23 C31_23 1_555 1_555
C40_23 C37_23 1_555 1_555
H18_23 C40_23 1_555 1_555
H19_23 C39_23 1_555 1_555
H20_23 C1_23 1_555 1_555
Cu5_4 O3_23 1_555 1_555
Cu8_4 O1_23 1_555 1_555
O9_12 Cu8_4 1_555 1_555
O10_12 Cu5_4 1_555 1_555
Cu5_2 O4_12 1_555 1_555
Cu8_2 O2_12 1_555 1_555
C2_23 C32_23 1_555 1_555
C11_23 C13_23 1_555 1_555
C12_23 C14_23 1_555 1_555
C21_23 C23_23 1_555 1_555
C22_23 C24_23 1_555 1_555
C23_23 C25_23 1_555 1_555
C24_23 C26_23 1_555 1_555
C27_23 C29_23 1_555 1_555
C28_23 C30_23 1_555 1_555
C36_23 C38_23 1_555 1_555
C37_23 C38_23 1_555 1_555
C39_23 C40_23 1_555 1_555
O1_24 C15_24 1_555 1_555
O9_12 C16_24 1_555 1_555
O3_24 C15_24 1_555 1_555
O10_12 C16_24 1_555 1_555
O11_7 C17_24 1_555 1_555
O12_14 C18_24 1_555 1_555
O13_7 C17_24 1_555 1_555
O14_14 C18_24 1_555 1_555
N1_24 C7_24 1_555 1_555
N2_24 C8_24 1_555 1_555
C1_24 C2_24 1_555 1_555
C2_24 H1_24 1_555 1_555
C3_24 H2_24 1_555 1_555
C4_24 H3_24 1_555 1_555
C5_24 C3_24 1_555 1_555
H4_24 C5_24 1_555 1_555
C6_24 C4_24 1_555 1_555
H5_24 C6_24 1_555 1_555
C7_24 C5_24 1_555 1_555
C8_24 C6_24 1_555 1_555
C9_24 C7_24 1_555 1_555
C10_24 C8_24 1_555 1_555
C11_24 C9_24 1_555 1_555
H6_24 C11_24 1_555 1_555
C12_24 C10_24 1_555 1_555
H7_24 C12_24 1_555 1_555
C13_24 C3_24 1_555 1_555
C14_24 C4_24 1_555 1_555
C15_24 C13_24 1_555 1_555
C16_24 C14_24 1_555 1_555
C17_24 C19_24 1_555 1_555
C18_24 C20_24 1_555 1_555
C19_24 C21_24 1_555 1_555
C20_24 C22_24 1_555 1_555
C21_24 H8_24 1_555 1_555
C22_24 H9_24 1_555 1_555
C23_24 C9_24 1_555 1_555
C24_24 C10_24 1_555 1_555
C25_24 N1_24 1_555 1_555
C26_24 N2_24 1_555 1_555
C27_24 C25_24 1_555 1_555
H10_24 C27_24 1_555 1_555
C28_24 C26_24 1_555 1_555
H11_24 C28_24 1_555 1_555
C29_24 C19_24 1_555 1_555
H12_24 C29_24 1_555 1_555
C30_24 C20_24 1_555 1_555
H13_24 C30_24 1_555 1_555
C31_24 N1_24 1_555 1_555
C32_24 N2_24 1_555 1_555
C33_24 C31_24 1_555 1_555
H14_24 C33_24 1_555 1_555
C34_24 C32_24 1_555 1_555
H15_24 C34_24 1_555 1_555
C35_24 C33_24 1_555 1_555
H16_24 C35_24 1_555 1_555
C36_24 C34_24 1_555 1_555
H17_24 C36_24 1_555 1_555
C37_24 C35_24 1_555 1_555
C38_24 C1_24 1_555 1_555
C39_24 C31_24 1_555 1_555
C40_24 C37_24 1_555 1_555
H18_24 C40_24 1_555 1_555
H19_24 C39_24 1_555 1_555
H20_24 C1_24 1_555 1_555
C2_24 C32_24 1_555 1_555
C11_24 C13_24 1_555 1_555
C12_24 C14_24 1_555 1_555
C21_24 C23_24 1_555 1_555
C22_24 C24_24 1_555 1_555
C23_24 C25_24 1_555 1_555
C24_24 C26_24 1_555 1_555
C27_24 C29_24 1_555 1_555
C28_24 C30_24 1_555 1_555
C36_24 C38_24 1_555 1_555
C37_24 C38_24 1_555 1_555
C39_24 C40_24 1_555 1_555

#END
