
###############################################################################
#
# This file contains modified crystal structure data generated from the
# MOF subset of the Cambridge Structural Database (CSD) v543 
# hosted by the Cambridge Crystallographic Data Centre (CCDC).
#
# This work is licensed under the Creative Commons
# Attribution-NonCommercial-ShareAlike 4.0 International License.
# To view a copy of this license, visit
# http://creativecommons.org/licenses/by-nc-sa/4.0/
# or send a letter to
# Creative Commons, PO Box 1866, Mountain View, CA 94042, USA.
#
# CIF created using the CSD Python API on 29 September 2022
# The structure has been converted into the P1 space group
# The structure has a 3D framework
# The original CSD entry OKUTAR is in the cubic crystal system
# The framework has been calculated to contain at least 10.0% void space
# The void calculation uses a probe of radius 1.32A, grid spacing 0.4
#
###############################################################################

data_OKUTAR
_chemical_formula_moiety         '(C960 H480 Cu48 N48 O192)n'
_symmetry_cell_setting           triclinic
_symmetry_space_group_name_H-M   'P 1'
_symmetry_Int_Tables_number      1
_space_group_name_Hall           'P 1'
loop_
_symmetry_equiv_pos_site_id
_symmetry_equiv_pos_as_xyz
1 x,y,z
_cell_length_a                   36.16010
_cell_length_b                   36.16010
_cell_length_c                   36.16010
_cell_angle_alpha                90
_cell_angle_beta                 90
_cell_angle_gamma                90
_cell_volume                     47281.2
loop_
_atom_site_label
_atom_site_type_symbol
_atom_site_fract_x
_atom_site_fract_y
_atom_site_fract_z
_atom_site_U_iso_or_equiv
_atom_site_thermal_displace_type
Cu1 Cu 0.08624 0.67345 0.32873 0.0150 Uiso
Cu2 Cu 0.06146 0.62778 0.37436 0.0150 Uiso
O1 O 0.11019 0.63401 0.30952 0.0150 Uiso
O2 O 0.09280 0.59429 0.35235 0.0150 Uiso
O5 O 0.18058 0.36218 0.37908 0.0150 Uiso
O6 O 0.14399 0.40512 0.40230 0.0150 Uiso
N1 N 0.17605 0.48127 0.25006 0.0150 Uiso
N2 N 0.08879 0.28896 0.08779 0.0150 Uiso
C1 C 0.11083 0.60153 0.32302 0.0150 Uiso
C3 C 0.16630 0.39433 0.37745 0.0150 Uiso
C5 C 0.13144 0.57193 0.30368 0.0150 Uiso
C6 C 0.14195 0.53936 0.32262 0.0150 Uiso
C7 C 0.15847 0.51102 0.30225 0.0150 Uiso
C8 C 0.16329 0.51349 0.26443 0.0150 Uiso
C9 C 0.15319 0.54527 0.24509 0.0150 Uiso
C10 C 0.13779 0.57480 0.26505 0.0150 Uiso
C11 C 0.17409 0.41798 0.34519 0.0150 Uiso
C12 C 0.16515 0.45610 0.34518 0.0150 Uiso
C13 C 0.16889 0.47564 0.31202 0.0150 Uiso
C14 C 0.17989 0.45856 0.27969 0.0150 Uiso
C15 C 0.18914 0.42106 0.27924 0.0150 Uiso
C16 C 0.18690 0.40110 0.31227 0.0150 Uiso
C17 C 0.12328 0.21652 0.00648 0.0150 Uiso
C18 C 0.08951 0.21228 0.02558 0.0150 Uiso
C19 C 0.08042 0.23850 0.05221 0.0150 Uiso
C20 C 0.10339 0.26773 0.06063 0.0150 Uiso
C21 C 0.13736 0.27209 0.04291 0.0150 Uiso
C22 C 0.14728 0.24611 0.01585 0.0150 Uiso
C24 C 0.02115 0.21723 0.08177 0.0150 Uiso
C25 C 0.05054 0.24127 0.07555 0.0150 Uiso
C26 C 0.05639 0.27234 0.09689 0.0150 Uiso
C27 C 0.03232 0.28135 0.12568 0.0150 Uiso
C28 C 0.00226 0.25761 0.13265 0.0150 Uiso
C29 C 0.10544 0.32066 0.10465 0.0150 Uiso
C30 C 0.11602 0.31950 0.14184 0.0150 Uiso
C31 C 0.13170 0.35047 0.15862 0.0150 Uiso
C32 C 0.13743 0.38325 0.13839 0.0150 Uiso
C33 C 0.12825 0.38361 0.10052 0.0150 Uiso
C34 C 0.11208 0.35264 0.08390 0.0150 Uiso
C35 C 0.16921 0.46766 0.21334 0.0150 Uiso
C36 C 0.13246 0.46509 0.20134 0.0150 Uiso
C37 C 0.12258 0.43973 0.17403 0.0150 Uiso
C38 C 0.14942 0.41667 0.15785 0.0150 Uiso
C39 C 0.18685 0.42245 0.16700 0.0150 Uiso
C40 C 0.19655 0.44738 0.19489 0.0150 Uiso
H1 H 0.13683 0.53607 0.35192 0.0180 Uiso
H2 H 0.15680 0.54719 0.21544 0.0180 Uiso
H3 H 0.12938 0.59935 0.25010 0.0180 Uiso
H4 H 0.15434 0.46955 0.36963 0.0180 Uiso
H5 H 0.19715 0.40705 0.25411 0.0180 Uiso
H6 H 0.19330 0.37186 0.31163 0.0180 Uiso
H7 H 0.07063 0.18992 0.01930 0.0180 Uiso
H8 H 0.15567 0.29481 0.04955 0.0180 Uiso
H9 H 0.17365 0.24905 0.00219 0.0180 Uiso
H10 H 0.01844 0.19228 0.06545 0.0180 Uiso
H11 H 0.03705 0.30529 0.14297 0.0180 Uiso
H13 H 0.11089 0.29495 0.15817 0.0180 Uiso
H14 H 0.13753 0.34917 0.18793 0.0180 Uiso
H15 H 0.13278 0.40807 0.08391 0.0180 Uiso
H16 H 0.11088 0.48006 0.21570 0.0180 Uiso
H17 H 0.09350 0.43601 0.16814 0.0180 Uiso
H18 H 0.20842 0.40593 0.15444 0.0180 Uiso
H19 H 0.22490 0.44849 0.20432 0.0180 Uiso
H20 H 0.10428 0.35341 0.05336 0.0180 Uiso
Cu5 Cu 0.17345 0.32873 0.41376 0.0150 Uiso
Cu8 Cu 0.12778 0.37436 0.43854 0.0150 Uiso
O9 O 0.05512 0.70613 0.35289 0.0150 Uiso
O10 O 0.03046 0.66510 0.39056 0.0150 Uiso
O11 O 0.12092 0.68058 0.36218 0.0150 Uiso
O12 O 0.09770 0.64399 0.40512 0.0150 Uiso
O13 O 0.04529 0.65956 0.30086 0.0150 Uiso
O14 O 0.02779 0.61543 0.33914 0.0150 Uiso
O7 O 0.15956 0.19914 0.95471 0.0150 Uiso
O8 O 0.11543 0.16086 0.97221 0.0150 Uiso
C4 C 0.13325 0.19088 0.97647 0.0150 Uiso
Cu4 Cu 0.17345 0.17127 0.91376 0.0150 Uiso
Cu7 Cu 0.12778 0.12564 0.93854 0.0150 Uiso
O3 O 0.94488 0.20613 0.14711 0.0150 Uiso
O4 O 0.96954 0.16510 0.10944 0.0150 Uiso
C2 C 0.96868 0.19765 0.12265 0.0150 Uiso
C23 C 0.99677 0.22507 0.11127 0.0150 Uiso
H12 H 0.98413 0.26391 0.15560 0.0180 Uiso
Cu3 Cu 0.91376 0.17345 0.17127 0.0150 Uiso
Cu6 Cu 0.93854 0.12778 0.12564 0.0150 Uiso
Cu1_2 Cu 0.41376 0.32655 0.82873 0.0150 Uiso
Cu2_2 Cu 0.43854 0.37222 0.87436 0.0150 Uiso
O1_2 O 0.38981 0.36599 0.80952 0.0150 Uiso
O2_2 O 0.40720 0.40571 0.85235 0.0150 Uiso
O3_2 O 0.55512 0.79387 0.64711 0.0150 Uiso
O4_2 O 0.53046 0.83490 0.60944 0.0150 Uiso
O5_2 O 0.31942 0.63782 0.87908 0.0150 Uiso
O6_2 O 0.35601 0.59488 0.90230 0.0150 Uiso
O7_2 O 0.34044 0.80086 0.45471 0.0150 Uiso
O8_2 O 0.38457 0.83914 0.47221 0.0150 Uiso
N1_2 N 0.32395 0.51873 0.75006 0.0150 Uiso
N2_2 N 0.41121 0.71104 0.58779 0.0150 Uiso
C1_2 C 0.38917 0.39847 0.82302 0.0150 Uiso
C2_2 C 0.53132 0.80235 0.62265 0.0150 Uiso
C3_2 C 0.33370 0.60567 0.87745 0.0150 Uiso
C4_2 C 0.36675 0.80912 0.47647 0.0150 Uiso
C5_2 C 0.36856 0.42807 0.80368 0.0150 Uiso
C6_2 C 0.35805 0.46064 0.82262 0.0150 Uiso
C7_2 C 0.34153 0.48898 0.80225 0.0150 Uiso
C8_2 C 0.33671 0.48651 0.76443 0.0150 Uiso
C9_2 C 0.34681 0.45473 0.74509 0.0150 Uiso
C10_2 C 0.36221 0.42520 0.76505 0.0150 Uiso
C11_2 C 0.32591 0.58202 0.84519 0.0150 Uiso
C12_2 C 0.33485 0.54390 0.84518 0.0150 Uiso
C13_2 C 0.33111 0.52436 0.81202 0.0150 Uiso
C14_2 C 0.32011 0.54144 0.77969 0.0150 Uiso
C15_2 C 0.31086 0.57894 0.77924 0.0150 Uiso
C16_2 C 0.31310 0.59890 0.81227 0.0150 Uiso
C17_2 C 0.37672 0.78348 0.50648 0.0150 Uiso
C18_2 C 0.41049 0.78772 0.52558 0.0150 Uiso
C19_2 C 0.41958 0.76150 0.55221 0.0150 Uiso
C20_2 C 0.39661 0.73227 0.56063 0.0150 Uiso
C21_2 C 0.36264 0.72791 0.54291 0.0150 Uiso
C22_2 C 0.35272 0.75389 0.51585 0.0150 Uiso
C23_2 C 0.50323 0.77493 0.61127 0.0150 Uiso
C24_2 C 0.47885 0.78277 0.58177 0.0150 Uiso
C25_2 C 0.44946 0.75873 0.57555 0.0150 Uiso
C26_2 C 0.44361 0.72766 0.59689 0.0150 Uiso
C27_2 C 0.46768 0.71865 0.62568 0.0150 Uiso
C28_2 C 0.49774 0.74239 0.63265 0.0150 Uiso
C29_2 C 0.39456 0.67934 0.60465 0.0150 Uiso
C30_2 C 0.38398 0.68050 0.64184 0.0150 Uiso
C31_2 C 0.36830 0.64953 0.65862 0.0150 Uiso
C32_2 C 0.36257 0.61675 0.63839 0.0150 Uiso
C33_2 C 0.37175 0.61639 0.60052 0.0150 Uiso
C34_2 C 0.38792 0.64736 0.58390 0.0150 Uiso
C35_2 C 0.33079 0.53234 0.71334 0.0150 Uiso
C36_2 C 0.36754 0.53491 0.70134 0.0150 Uiso
C37_2 C 0.37742 0.56027 0.67403 0.0150 Uiso
C38_2 C 0.35058 0.58333 0.65785 0.0150 Uiso
C39_2 C 0.31315 0.57755 0.66700 0.0150 Uiso
C40_2 C 0.30345 0.55262 0.69489 0.0150 Uiso
H1_2 H 0.36317 0.46393 0.85192 0.0180 Uiso
H2_2 H 0.34320 0.45281 0.71544 0.0180 Uiso
H3_2 H 0.37062 0.40065 0.75010 0.0180 Uiso
H4_2 H 0.34566 0.53045 0.86963 0.0180 Uiso
H5_2 H 0.30285 0.59295 0.75411 0.0180 Uiso
H6_2 H 0.30670 0.62814 0.81163 0.0180 Uiso
H7_2 H 0.42937 0.81008 0.51930 0.0180 Uiso
H8_2 H 0.34433 0.70519 0.54955 0.0180 Uiso
H9_2 H 0.32635 0.75095 0.50219 0.0180 Uiso
H10_2 H 0.48156 0.80772 0.56545 0.0180 Uiso
H11_2 H 0.46295 0.69471 0.64297 0.0180 Uiso
H12_2 H 0.51587 0.73609 0.65560 0.0180 Uiso
H13_2 H 0.38911 0.70505 0.65817 0.0180 Uiso
H14_2 H 0.36247 0.65083 0.68793 0.0180 Uiso
H15_2 H 0.36722 0.59193 0.58391 0.0180 Uiso
H16_2 H 0.38912 0.51994 0.71570 0.0180 Uiso
H17_2 H 0.40650 0.56399 0.66814 0.0180 Uiso
H18_2 H 0.29158 0.59407 0.65444 0.0180 Uiso
H19_2 H 0.27510 0.55151 0.70432 0.0180 Uiso
H20_2 H 0.39572 0.64659 0.55336 0.0180 Uiso
Cu3_2 Cu 0.58624 0.82655 0.67127 0.0150 Uiso
Cu4_2 Cu 0.32655 0.82873 0.41376 0.0150 Uiso
Cu5_2 Cu 0.32655 0.67127 0.91376 0.0150 Uiso
Cu6_2 Cu 0.56146 0.87222 0.62564 0.0150 Uiso
Cu7_2 Cu 0.37222 0.87436 0.43854 0.0150 Uiso
Cu8_2 Cu 0.37222 0.62564 0.93854 0.0150 Uiso
O9_2 O 0.44488 0.29387 0.85289 0.0150 Uiso
O10_2 O 0.46954 0.33490 0.89056 0.0150 Uiso
O11_2 O 0.37908 0.31942 0.86218 0.0150 Uiso
O12_2 O 0.40230 0.35601 0.90512 0.0150 Uiso
O13_2 O 0.45471 0.34044 0.80086 0.0150 Uiso
O14_2 O 0.47221 0.38457 0.83914 0.0150 Uiso
O7_3 O 0.65956 0.30086 0.04529 0.0150 Uiso
O8_3 O 0.61543 0.33914 0.02779 0.0150 Uiso
C4_3 C 0.63325 0.30912 0.02353 0.0150 Uiso
Cu4_3 Cu 0.67345 0.32873 0.08624 0.0150 Uiso
Cu7_3 Cu 0.62778 0.37436 0.06146 0.0150 Uiso
O5_3 O 0.68058 0.13782 0.62092 0.0150 Uiso
O6_3 O 0.64399 0.09488 0.59770 0.0150 Uiso
N1_3 N 0.67605 0.01873 0.74994 0.0150 Uiso
N2_3 N 0.58879 0.21104 0.91221 0.0150 Uiso
C2_3 C 0.46868 0.30235 0.87735 0.0150 Uiso
C3_3 C 0.66630 0.10567 0.62255 0.0150 Uiso
C11_3 C 0.67409 0.08202 0.65481 0.0150 Uiso
C12_3 C 0.66515 0.04390 0.65482 0.0150 Uiso
C13_3 C 0.66889 0.02436 0.68798 0.0150 Uiso
C14_3 C 0.67989 0.04144 0.72031 0.0150 Uiso
C15_3 C 0.68914 0.07894 0.72076 0.0150 Uiso
C16_3 C 0.68690 0.09890 0.68773 0.0150 Uiso
C17_3 C 0.62328 0.28348 0.99352 0.0150 Uiso
C18_3 C 0.58951 0.28772 0.97442 0.0150 Uiso
C19_3 C 0.58042 0.26150 0.94779 0.0150 Uiso
C20_3 C 0.60339 0.23227 0.93937 0.0150 Uiso
C21_3 C 0.63736 0.22791 0.95709 0.0150 Uiso
C22_3 C 0.64728 0.25389 0.98415 0.0150 Uiso
C23_3 C 0.49677 0.27493 0.88873 0.0150 Uiso
C24_3 C 0.52115 0.28277 0.91823 0.0150 Uiso
C25_3 C 0.55054 0.25873 0.92445 0.0150 Uiso
C26_3 C 0.55639 0.22766 0.90311 0.0150 Uiso
C27_3 C 0.53232 0.21865 0.87432 0.0150 Uiso
C28_3 C 0.50226 0.24239 0.86735 0.0150 Uiso
C29_3 C 0.60544 0.17934 0.89535 0.0150 Uiso
C30_3 C 0.61602 0.18050 0.85816 0.0150 Uiso
C31_3 C 0.63170 0.14953 0.84138 0.0150 Uiso
C32_3 C 0.63743 0.11675 0.86161 0.0150 Uiso
C33_3 C 0.62825 0.11639 0.89948 0.0150 Uiso
C34_3 C 0.61208 0.14736 0.91610 0.0150 Uiso
C35_3 C 0.66921 0.03234 0.78666 0.0150 Uiso
C36_3 C 0.63246 0.03491 0.79866 0.0150 Uiso
C37_3 C 0.62258 0.06027 0.82597 0.0150 Uiso
C38_3 C 0.64942 0.08333 0.84215 0.0150 Uiso
C39_3 C 0.68685 0.07755 0.83300 0.0150 Uiso
C40_3 C 0.69655 0.05262 0.80511 0.0150 Uiso
H4_3 H 0.65434 0.03045 0.63037 0.0180 Uiso
H5_3 H 0.69715 0.09295 0.74589 0.0180 Uiso
H6_3 H 0.69330 0.12814 0.68837 0.0180 Uiso
H7_3 H 0.57063 0.31008 0.98070 0.0180 Uiso
H8_3 H 0.65567 0.20519 0.95045 0.0180 Uiso
H9_3 H 0.67365 0.25095 0.99781 0.0180 Uiso
H10_3 H 0.51844 0.30772 0.93455 0.0180 Uiso
H11_3 H 0.53705 0.19471 0.85703 0.0180 Uiso
H12_3 H 0.48413 0.23609 0.84440 0.0180 Uiso
H13_3 H 0.61089 0.20505 0.84183 0.0180 Uiso
H14_3 H 0.63753 0.15083 0.81207 0.0180 Uiso
H15_3 H 0.63278 0.09193 0.91609 0.0180 Uiso
H16_3 H 0.61088 0.01994 0.78430 0.0180 Uiso
H17_3 H 0.59350 0.06399 0.83186 0.0180 Uiso
H18_3 H 0.70842 0.09407 0.84556 0.0180 Uiso
H19_3 H 0.72490 0.05151 0.79568 0.0180 Uiso
H20_3 H 0.60428 0.14659 0.94664 0.0180 Uiso
Cu5_3 Cu 0.67345 0.17127 0.58624 0.0150 Uiso
Cu8_3 Cu 0.62778 0.12564 0.56146 0.0150 Uiso
O1_3 O 0.61019 0.86599 0.69048 0.0150 Uiso
O2_3 O 0.59280 0.90571 0.64765 0.0150 Uiso
C1_3 C 0.61083 0.89847 0.67698 0.0150 Uiso
C5_3 C 0.63144 0.92807 0.69632 0.0150 Uiso
C6_3 C 0.64195 0.96064 0.67738 0.0150 Uiso
C7_3 C 0.65847 0.98898 0.69775 0.0150 Uiso
C8_3 C 0.66329 0.98651 0.73557 0.0150 Uiso
C9_3 C 0.65319 0.95473 0.75491 0.0150 Uiso
C10_3 C 0.63779 0.92520 0.73495 0.0150 Uiso
H1_3 H 0.63683 0.96393 0.64808 0.0180 Uiso
H2_3 H 0.65680 0.95281 0.78456 0.0180 Uiso
H3_3 H 0.62938 0.90065 0.74990 0.0180 Uiso
O11_3 O 0.62092 0.81942 0.63782 0.0150 Uiso
O12_3 O 0.59770 0.85601 0.59488 0.0150 Uiso
O13_3 O 0.54529 0.84044 0.69914 0.0150 Uiso
O14_3 O 0.52779 0.88457 0.66086 0.0150 Uiso
C2_4 C 0.03132 0.69765 0.37735 0.0150 Uiso
C23_4 C 0.00323 0.72507 0.38873 0.0150 Uiso
H12_4 H 0.01587 0.76391 0.34440 0.0180 Uiso
O1_4 O 0.88981 0.13401 0.19048 0.0150 Uiso
O2_4 O 0.90720 0.09429 0.14765 0.0150 Uiso
C1_4 C 0.88917 0.10153 0.17698 0.0150 Uiso
C5_4 C 0.86856 0.07193 0.19632 0.0150 Uiso
C6_4 C 0.85805 0.03936 0.17738 0.0150 Uiso
C7_4 C 0.84153 0.01102 0.19775 0.0150 Uiso
C8_4 C 0.83671 0.01349 0.23557 0.0150 Uiso
C9_4 C 0.84681 0.04527 0.25491 0.0150 Uiso
C10_4 C 0.86221 0.07480 0.23495 0.0150 Uiso
H1_4 H 0.86317 0.03607 0.14808 0.0180 Uiso
H2_4 H 0.84320 0.04719 0.28456 0.0180 Uiso
H3_4 H 0.87062 0.09935 0.24990 0.0180 Uiso
O11_4 O 0.87908 0.18058 0.13782 0.0150 Uiso
O12_4 O 0.90230 0.14399 0.09488 0.0150 Uiso
O13_4 O 0.95471 0.15956 0.19914 0.0150 Uiso
O14_4 O 0.97221 0.11543 0.16086 0.0150 Uiso
O5_4 O 0.81942 0.86218 0.12092 0.0150 Uiso
O6_4 O 0.85601 0.90512 0.09770 0.0150 Uiso
O7_4 O 0.84044 0.69914 0.54529 0.0150 Uiso
O8_4 O 0.88457 0.66086 0.52779 0.0150 Uiso
N1_4 N 0.82395 0.98127 0.24994 0.0150 Uiso
N2_4 N 0.91121 0.78896 0.41221 0.0150 Uiso
C3_4 C 0.83370 0.89433 0.12255 0.0150 Uiso
C4_4 C 0.86675 0.69088 0.52353 0.0150 Uiso
C11_4 C 0.82591 0.91798 0.15481 0.0150 Uiso
C12_4 C 0.83485 0.95610 0.15482 0.0150 Uiso
C13_4 C 0.83111 0.97564 0.18798 0.0150 Uiso
C14_4 C 0.82011 0.95856 0.22031 0.0150 Uiso
C15_4 C 0.81086 0.92106 0.22076 0.0150 Uiso
C16_4 C 0.81310 0.90110 0.18773 0.0150 Uiso
C17_4 C 0.87672 0.71652 0.49352 0.0150 Uiso
C18_4 C 0.91049 0.71228 0.47442 0.0150 Uiso
C19_4 C 0.91958 0.73850 0.44779 0.0150 Uiso
C20_4 C 0.89661 0.76773 0.43937 0.0150 Uiso
C21_4 C 0.86264 0.77209 0.45709 0.0150 Uiso
C22_4 C 0.85272 0.74611 0.48415 0.0150 Uiso
C24_4 C 0.97885 0.71723 0.41823 0.0150 Uiso
C25_4 C 0.94946 0.74127 0.42445 0.0150 Uiso
C26_4 C 0.94361 0.77234 0.40311 0.0150 Uiso
C27_4 C 0.96768 0.78135 0.37432 0.0150 Uiso
C28_4 C 0.99774 0.75761 0.36735 0.0150 Uiso
C29_4 C 0.89456 0.82066 0.39535 0.0150 Uiso
C30_4 C 0.88398 0.81950 0.35816 0.0150 Uiso
C31_4 C 0.86830 0.85047 0.34138 0.0150 Uiso
C32_4 C 0.86257 0.88325 0.36161 0.0150 Uiso
C33_4 C 0.87175 0.88361 0.39948 0.0150 Uiso
C34_4 C 0.88792 0.85264 0.41610 0.0150 Uiso
C35_4 C 0.83079 0.96766 0.28666 0.0150 Uiso
C36_4 C 0.86754 0.96509 0.29866 0.0150 Uiso
C37_4 C 0.87742 0.93973 0.32597 0.0150 Uiso
C38_4 C 0.85058 0.91667 0.34215 0.0150 Uiso
C39_4 C 0.81315 0.92245 0.33300 0.0150 Uiso
C40_4 C 0.80345 0.94738 0.30511 0.0150 Uiso
H4_4 H 0.84566 0.96955 0.13037 0.0180 Uiso
H5_4 H 0.80285 0.90705 0.24589 0.0180 Uiso
H6_4 H 0.80670 0.87186 0.18837 0.0180 Uiso
H7_4 H 0.92937 0.68992 0.48070 0.0180 Uiso
H8_4 H 0.84433 0.79481 0.45045 0.0180 Uiso
H9_4 H 0.82635 0.74905 0.49781 0.0180 Uiso
H10_4 H 0.98156 0.69228 0.43455 0.0180 Uiso
H11_4 H 0.96295 0.80529 0.35703 0.0180 Uiso
H13_4 H 0.88911 0.79495 0.34183 0.0180 Uiso
H14_4 H 0.86247 0.84917 0.31207 0.0180 Uiso
H15_4 H 0.86722 0.90807 0.41609 0.0180 Uiso
H16_4 H 0.88912 0.98006 0.28430 0.0180 Uiso
H17_4 H 0.90650 0.93601 0.33186 0.0180 Uiso
H18_4 H 0.79158 0.90593 0.34556 0.0180 Uiso
H19_4 H 0.77510 0.94849 0.29568 0.0180 Uiso
H20_4 H 0.89572 0.85341 0.44664 0.0180 Uiso
Cu4_4 Cu 0.82655 0.67127 0.58624 0.0150 Uiso
Cu5_4 Cu 0.82655 0.82873 0.08624 0.0150 Uiso
Cu7_4 Cu 0.87222 0.62564 0.56146 0.0150 Uiso
Cu8_4 Cu 0.87222 0.87436 0.06146 0.0150 Uiso
Cu1_3 Cu 0.32873 0.08624 0.67345 0.0150 Uiso
Cu2_3 Cu 0.37436 0.06146 0.62778 0.0150 Uiso
O1_5 O 0.30952 0.11019 0.63401 0.0150 Uiso
O2_5 O 0.35235 0.09280 0.59429 0.0150 Uiso
O5_5 O 0.37908 0.18058 0.36218 0.0150 Uiso
O6_5 O 0.40230 0.14399 0.40512 0.0150 Uiso
N1_5 N 0.25006 0.17605 0.48127 0.0150 Uiso
N2_5 N 0.08779 0.08879 0.28896 0.0150 Uiso
C1_5 C 0.32302 0.11083 0.60153 0.0150 Uiso
C3_5 C 0.37745 0.16630 0.39433 0.0150 Uiso
C5_5 C 0.30368 0.13144 0.57193 0.0150 Uiso
C6_5 C 0.32262 0.14195 0.53936 0.0150 Uiso
C7_5 C 0.30225 0.15847 0.51102 0.0150 Uiso
C8_5 C 0.26443 0.16329 0.51349 0.0150 Uiso
C9_5 C 0.24509 0.15319 0.54527 0.0150 Uiso
C10_5 C 0.26505 0.13779 0.57480 0.0150 Uiso
C11_5 C 0.34519 0.17409 0.41798 0.0150 Uiso
C12_5 C 0.34518 0.16515 0.45610 0.0150 Uiso
C13_5 C 0.31202 0.16889 0.47564 0.0150 Uiso
C14_5 C 0.27969 0.17989 0.45856 0.0150 Uiso
C15_5 C 0.27924 0.18914 0.42106 0.0150 Uiso
C16_5 C 0.31227 0.18690 0.40110 0.0150 Uiso
C17_5 C 0.00648 0.12328 0.21652 0.0150 Uiso
C18_5 C 0.02558 0.08951 0.21228 0.0150 Uiso
C19_5 C 0.05221 0.08042 0.23850 0.0150 Uiso
C20_5 C 0.06063 0.10339 0.26773 0.0150 Uiso
C21_5 C 0.04291 0.13736 0.27209 0.0150 Uiso
C22_5 C 0.01585 0.14728 0.24611 0.0150 Uiso
C24_5 C 0.08177 0.02115 0.21723 0.0150 Uiso
C25_5 C 0.07555 0.05054 0.24127 0.0150 Uiso
C26_5 C 0.09689 0.05639 0.27234 0.0150 Uiso
C27_5 C 0.12568 0.03232 0.28135 0.0150 Uiso
C28_5 C 0.13265 0.00226 0.25761 0.0150 Uiso
C29_5 C 0.10465 0.10544 0.32066 0.0150 Uiso
C30_5 C 0.14184 0.11602 0.31950 0.0150 Uiso
C31_5 C 0.15862 0.13170 0.35047 0.0150 Uiso
C32_5 C 0.13839 0.13743 0.38325 0.0150 Uiso
C33_5 C 0.10052 0.12825 0.38361 0.0150 Uiso
C34_5 C 0.08390 0.11208 0.35264 0.0150 Uiso
C35_5 C 0.21334 0.16921 0.46766 0.0150 Uiso
C36_5 C 0.20134 0.13246 0.46509 0.0150 Uiso
C37_5 C 0.17403 0.12258 0.43973 0.0150 Uiso
C38_5 C 0.15785 0.14942 0.41667 0.0150 Uiso
C39_5 C 0.16700 0.18685 0.42245 0.0150 Uiso
C40_5 C 0.19489 0.19655 0.44738 0.0150 Uiso
H1_5 H 0.35192 0.13683 0.53607 0.0180 Uiso
H2_5 H 0.21544 0.15680 0.54719 0.0180 Uiso
H3_5 H 0.25010 0.12938 0.59935 0.0180 Uiso
H4_5 H 0.36963 0.15434 0.46955 0.0180 Uiso
H5_5 H 0.25411 0.19715 0.40705 0.0180 Uiso
H6_5 H 0.31163 0.19330 0.37186 0.0180 Uiso
H7_5 H 0.01930 0.07063 0.18992 0.0180 Uiso
H8_5 H 0.04955 0.15567 0.29481 0.0180 Uiso
H9_5 H 0.00219 0.17365 0.24905 0.0180 Uiso
H10_5 H 0.06545 0.01844 0.19228 0.0180 Uiso
H11_5 H 0.14297 0.03705 0.30529 0.0180 Uiso
H13_5 H 0.15817 0.11089 0.29495 0.0180 Uiso
H14_5 H 0.18793 0.13753 0.34917 0.0180 Uiso
H15_5 H 0.08391 0.13278 0.40807 0.0180 Uiso
H16_5 H 0.21570 0.11088 0.48006 0.0180 Uiso
H17_5 H 0.16814 0.09350 0.43601 0.0180 Uiso
H18_5 H 0.15444 0.20842 0.40593 0.0180 Uiso
H19_5 H 0.20432 0.22490 0.44849 0.0180 Uiso
H20_5 H 0.05336 0.10428 0.35341 0.0180 Uiso
Cu5_5 Cu 0.41376 0.17345 0.32873 0.0150 Uiso
Cu8_5 Cu 0.43854 0.12778 0.37436 0.0150 Uiso
O9_3 O 0.35289 0.05512 0.70613 0.0150 Uiso
O10_3 O 0.39056 0.03046 0.66510 0.0150 Uiso
O11_5 O 0.36218 0.12092 0.68058 0.0150 Uiso
O12_5 O 0.40512 0.09770 0.64399 0.0150 Uiso
O13_5 O 0.30086 0.04529 0.65956 0.0150 Uiso
O14_5 O 0.33914 0.02779 0.61543 0.0150 Uiso
O3_3 O 0.14711 0.94488 0.20613 0.0150 Uiso
O4_3 O 0.10944 0.96954 0.16510 0.0150 Uiso
C2_5 C 0.12265 0.96868 0.19765 0.0150 Uiso
C23_5 C 0.11127 0.99677 0.22507 0.0150 Uiso
H12_5 H 0.15560 0.98413 0.26391 0.0180 Uiso
Cu3_3 Cu 0.17127 0.91376 0.17345 0.0150 Uiso
Cu6_3 Cu 0.12564 0.93854 0.12778 0.0150 Uiso
C4_5 C 0.97647 0.13325 0.19088 0.0150 Uiso
C2_6 C 0.37735 0.03132 0.69765 0.0150 Uiso
C23_6 C 0.38873 0.00323 0.72507 0.0150 Uiso
H12_6 H 0.34440 0.01587 0.76391 0.0180 Uiso
O1_6 O 0.19048 0.88981 0.13401 0.0150 Uiso
O2_6 O 0.14765 0.90720 0.09429 0.0150 Uiso
C1_6 C 0.17698 0.88917 0.10153 0.0150 Uiso
C5_6 C 0.19632 0.86856 0.07193 0.0150 Uiso
C6_6 C 0.17738 0.85805 0.03936 0.0150 Uiso
C7_6 C 0.19775 0.84153 0.01102 0.0150 Uiso
C8_6 C 0.23557 0.83671 0.01349 0.0150 Uiso
C9_6 C 0.25491 0.84681 0.04527 0.0150 Uiso
C10_6 C 0.23495 0.86221 0.07480 0.0150 Uiso
H1_6 H 0.14808 0.86317 0.03607 0.0180 Uiso
H2_6 H 0.28456 0.84320 0.04719 0.0180 Uiso
H3_6 H 0.24990 0.87062 0.09935 0.0180 Uiso
O11_6 O 0.13782 0.87908 0.18058 0.0150 Uiso
O12_6 O 0.09488 0.90230 0.14399 0.0150 Uiso
O13_6 O 0.19914 0.95471 0.15956 0.0150 Uiso
O14_6 O 0.16086 0.97221 0.11543 0.0150 Uiso
O5_6 O 0.12092 0.81942 0.86218 0.0150 Uiso
O6_6 O 0.09770 0.85601 0.90512 0.0150 Uiso
N1_6 N 0.24994 0.82395 0.98127 0.0150 Uiso
N2_6 N 0.41221 0.91121 0.78896 0.0150 Uiso
C3_6 C 0.12255 0.83370 0.89433 0.0150 Uiso
C4_6 C 0.52353 0.86675 0.69088 0.0150 Uiso
C11_6 C 0.15481 0.82591 0.91798 0.0150 Uiso
C12_6 C 0.15482 0.83485 0.95610 0.0150 Uiso
C13_6 C 0.18798 0.83111 0.97564 0.0150 Uiso
C14_6 C 0.22031 0.82011 0.95856 0.0150 Uiso
C15_6 C 0.22076 0.81086 0.92106 0.0150 Uiso
C16_6 C 0.18773 0.81310 0.90110 0.0150 Uiso
C17_6 C 0.49352 0.87672 0.71652 0.0150 Uiso
C18_6 C 0.47442 0.91049 0.71228 0.0150 Uiso
C19_6 C 0.44779 0.91958 0.73850 0.0150 Uiso
C20_6 C 0.43937 0.89661 0.76773 0.0150 Uiso
C21_6 C 0.45709 0.86264 0.77209 0.0150 Uiso
C22_6 C 0.48415 0.85272 0.74611 0.0150 Uiso
C24_6 C 0.41823 0.97885 0.71723 0.0150 Uiso
C25_6 C 0.42445 0.94946 0.74127 0.0150 Uiso
C26_6 C 0.40311 0.94361 0.77234 0.0150 Uiso
C27_6 C 0.37432 0.96768 0.78135 0.0150 Uiso
C28_6 C 0.36735 0.99774 0.75761 0.0150 Uiso
C29_6 C 0.39535 0.89456 0.82066 0.0150 Uiso
C30_6 C 0.35816 0.88398 0.81950 0.0150 Uiso
C31_6 C 0.34138 0.86830 0.85047 0.0150 Uiso
C32_6 C 0.36161 0.86257 0.88325 0.0150 Uiso
C33_6 C 0.39948 0.87175 0.88361 0.0150 Uiso
C34_6 C 0.41610 0.88792 0.85264 0.0150 Uiso
C35_6 C 0.28666 0.83079 0.96766 0.0150 Uiso
C36_6 C 0.29866 0.86754 0.96509 0.0150 Uiso
C37_6 C 0.32597 0.87742 0.93973 0.0150 Uiso
C38_6 C 0.34215 0.85058 0.91667 0.0150 Uiso
C39_6 C 0.33300 0.81315 0.92245 0.0150 Uiso
C40_6 C 0.30511 0.80345 0.94738 0.0150 Uiso
H4_6 H 0.13037 0.84566 0.96955 0.0180 Uiso
H5_6 H 0.24589 0.80285 0.90705 0.0180 Uiso
H6_6 H 0.18837 0.80670 0.87186 0.0180 Uiso
H7_6 H 0.48070 0.92937 0.68992 0.0180 Uiso
H8_6 H 0.45045 0.84433 0.79481 0.0180 Uiso
H9_6 H 0.49781 0.82635 0.74905 0.0180 Uiso
H10_6 H 0.43455 0.98156 0.69228 0.0180 Uiso
H11_6 H 0.35703 0.96295 0.80529 0.0180 Uiso
H13_6 H 0.34183 0.88911 0.79495 0.0180 Uiso
H14_6 H 0.31207 0.86247 0.84917 0.0180 Uiso
H15_6 H 0.41609 0.86722 0.90807 0.0180 Uiso
H16_6 H 0.28430 0.88912 0.98006 0.0180 Uiso
H17_6 H 0.33186 0.90650 0.93601 0.0180 Uiso
H18_6 H 0.34556 0.79158 0.90593 0.0180 Uiso
H19_6 H 0.29568 0.77510 0.94849 0.0180 Uiso
H20_6 H 0.44664 0.89572 0.85341 0.0180 Uiso
Cu5_6 Cu 0.08624 0.82655 0.82873 0.0150 Uiso
Cu8_6 Cu 0.06146 0.87222 0.87436 0.0150 Uiso
Cu1_4 Cu 0.82873 0.41376 0.32655 0.0150 Uiso
Cu2_4 Cu 0.87436 0.43854 0.37222 0.0150 Uiso
O1_7 O 0.80952 0.38981 0.36599 0.0150 Uiso
O2_7 O 0.85235 0.40720 0.40571 0.0150 Uiso
O3_4 O 0.64711 0.55512 0.79387 0.0150 Uiso
O4_4 O 0.60944 0.53046 0.83490 0.0150 Uiso
O5_7 O 0.87908 0.31942 0.63782 0.0150 Uiso
O6_7 O 0.90230 0.35601 0.59488 0.0150 Uiso
N1_7 N 0.75006 0.32395 0.51873 0.0150 Uiso
N2_7 N 0.58779 0.41121 0.71104 0.0150 Uiso
C1_7 C 0.82302 0.38917 0.39847 0.0150 Uiso
C2_7 C 0.62265 0.53132 0.80235 0.0150 Uiso
C3_7 C 0.87745 0.33370 0.60567 0.0150 Uiso
C4_7 C 0.47647 0.36675 0.80912 0.0150 Uiso
C5_7 C 0.80368 0.36856 0.42807 0.0150 Uiso
C6_7 C 0.82262 0.35805 0.46064 0.0150 Uiso
C7_7 C 0.80225 0.34153 0.48898 0.0150 Uiso
C8_7 C 0.76443 0.33671 0.48651 0.0150 Uiso
C9_7 C 0.74509 0.34681 0.45473 0.0150 Uiso
C10_7 C 0.76505 0.36221 0.42520 0.0150 Uiso
C11_7 C 0.84519 0.32591 0.58202 0.0150 Uiso
C12_7 C 0.84518 0.33485 0.54390 0.0150 Uiso
C13_7 C 0.81202 0.33111 0.52436 0.0150 Uiso
C14_7 C 0.77969 0.32011 0.54144 0.0150 Uiso
C15_7 C 0.77924 0.31086 0.57894 0.0150 Uiso
C16_7 C 0.81227 0.31310 0.59890 0.0150 Uiso
C17_7 C 0.50648 0.37672 0.78348 0.0150 Uiso
C18_7 C 0.52558 0.41049 0.78772 0.0150 Uiso
C19_7 C 0.55221 0.41958 0.76150 0.0150 Uiso
C20_7 C 0.56063 0.39661 0.73227 0.0150 Uiso
C21_7 C 0.54291 0.36264 0.72791 0.0150 Uiso
C22_7 C 0.51585 0.35272 0.75389 0.0150 Uiso
C23_7 C 0.61127 0.50323 0.77493 0.0150 Uiso
C24_7 C 0.58177 0.47885 0.78277 0.0150 Uiso
C25_7 C 0.57555 0.44946 0.75873 0.0150 Uiso
C26_7 C 0.59689 0.44361 0.72766 0.0150 Uiso
C27_7 C 0.62568 0.46768 0.71865 0.0150 Uiso
C28_7 C 0.63265 0.49774 0.74239 0.0150 Uiso
C29_7 C 0.60465 0.39456 0.67934 0.0150 Uiso
C30_7 C 0.64184 0.38398 0.68050 0.0150 Uiso
C31_7 C 0.65862 0.36830 0.64953 0.0150 Uiso
C32_7 C 0.63839 0.36257 0.61675 0.0150 Uiso
C33_7 C 0.60052 0.37175 0.61639 0.0150 Uiso
C34_7 C 0.58390 0.38792 0.64736 0.0150 Uiso
C35_7 C 0.71334 0.33079 0.53234 0.0150 Uiso
C36_7 C 0.70134 0.36754 0.53491 0.0150 Uiso
C37_7 C 0.67403 0.37742 0.56027 0.0150 Uiso
C38_7 C 0.65785 0.35058 0.58333 0.0150 Uiso
C39_7 C 0.66700 0.31315 0.57755 0.0150 Uiso
C40_7 C 0.69489 0.30345 0.55262 0.0150 Uiso
H1_7 H 0.85192 0.36317 0.46393 0.0180 Uiso
H2_7 H 0.71544 0.34320 0.45281 0.0180 Uiso
H3_7 H 0.75010 0.37062 0.40065 0.0180 Uiso
H4_7 H 0.86963 0.34566 0.53045 0.0180 Uiso
H5_7 H 0.75411 0.30285 0.59295 0.0180 Uiso
H6_7 H 0.81163 0.30670 0.62814 0.0180 Uiso
H7_7 H 0.51930 0.42937 0.81008 0.0180 Uiso
H8_7 H 0.54955 0.34433 0.70519 0.0180 Uiso
H9_7 H 0.50219 0.32635 0.75095 0.0180 Uiso
H10_7 H 0.56545 0.48156 0.80772 0.0180 Uiso
H11_7 H 0.64297 0.46295 0.69471 0.0180 Uiso
H12_7 H 0.65560 0.51587 0.73609 0.0180 Uiso
H13_7 H 0.65817 0.38911 0.70505 0.0180 Uiso
H14_7 H 0.68793 0.36247 0.65083 0.0180 Uiso
H15_7 H 0.58391 0.36722 0.59193 0.0180 Uiso
H16_7 H 0.71570 0.38912 0.51994 0.0180 Uiso
H17_7 H 0.66814 0.40650 0.56399 0.0180 Uiso
H18_7 H 0.65444 0.29158 0.59407 0.0180 Uiso
H19_7 H 0.70432 0.27510 0.55151 0.0180 Uiso
H20_7 H 0.55336 0.39572 0.64659 0.0180 Uiso
Cu3_4 Cu 0.67127 0.58624 0.82655 0.0150 Uiso
Cu5_7 Cu 0.91376 0.32655 0.67127 0.0150 Uiso
Cu6_4 Cu 0.62564 0.56146 0.87222 0.0150 Uiso
Cu8_7 Cu 0.93854 0.37222 0.62564 0.0150 Uiso
O9_4 O 0.85289 0.44488 0.29387 0.0150 Uiso
O10_4 O 0.89056 0.46954 0.33490 0.0150 Uiso
O11_7 O 0.86218 0.37908 0.31942 0.0150 Uiso
O12_7 O 0.90512 0.40230 0.35601 0.0150 Uiso
O13_7 O 0.80086 0.45471 0.34044 0.0150 Uiso
O14_7 O 0.83914 0.47221 0.38457 0.0150 Uiso
C4_8 C 0.02353 0.63325 0.30912 0.0150 Uiso
O5_8 O 0.62092 0.68058 0.13782 0.0150 Uiso
O6_8 O 0.59770 0.64399 0.09488 0.0150 Uiso
N1_8 N 0.74994 0.67605 0.01873 0.0150 Uiso
N2_8 N 0.91221 0.58879 0.21104 0.0150 Uiso
C2_8 C 0.87735 0.46868 0.30235 0.0150 Uiso
C3_8 C 0.62255 0.66630 0.10567 0.0150 Uiso
C11_8 C 0.65481 0.67409 0.08202 0.0150 Uiso
C12_8 C 0.65482 0.66515 0.04390 0.0150 Uiso
C13_8 C 0.68798 0.66889 0.02436 0.0150 Uiso
C14_8 C 0.72031 0.67989 0.04144 0.0150 Uiso
C15_8 C 0.72076 0.68914 0.07894 0.0150 Uiso
C16_8 C 0.68773 0.68690 0.09890 0.0150 Uiso
C17_8 C 0.99352 0.62328 0.28348 0.0150 Uiso
C18_8 C 0.97442 0.58951 0.28772 0.0150 Uiso
C19_8 C 0.94779 0.58042 0.26150 0.0150 Uiso
C20_8 C 0.93937 0.60339 0.23227 0.0150 Uiso
C21_8 C 0.95709 0.63736 0.22791 0.0150 Uiso
C22_8 C 0.98415 0.64728 0.25389 0.0150 Uiso
C23_8 C 0.88873 0.49677 0.27493 0.0150 Uiso
C24_8 C 0.91823 0.52115 0.28277 0.0150 Uiso
C25_8 C 0.92445 0.55054 0.25873 0.0150 Uiso
C26_8 C 0.90311 0.55639 0.22766 0.0150 Uiso
C27_8 C 0.87432 0.53232 0.21865 0.0150 Uiso
C28_8 C 0.86735 0.50226 0.24239 0.0150 Uiso
C29_8 C 0.89535 0.60544 0.17934 0.0150 Uiso
C30_8 C 0.85816 0.61602 0.18050 0.0150 Uiso
C31_8 C 0.84138 0.63170 0.14953 0.0150 Uiso
C32_8 C 0.86161 0.63743 0.11675 0.0150 Uiso
C33_8 C 0.89948 0.62825 0.11639 0.0150 Uiso
C34_8 C 0.91610 0.61208 0.14736 0.0150 Uiso
C35_8 C 0.78666 0.66921 0.03234 0.0150 Uiso
C36_8 C 0.79866 0.63246 0.03491 0.0150 Uiso
C37_8 C 0.82597 0.62258 0.06027 0.0150 Uiso
C38_8 C 0.84215 0.64942 0.08333 0.0150 Uiso
C39_8 C 0.83300 0.68685 0.07755 0.0150 Uiso
C40_8 C 0.80511 0.69655 0.05262 0.0150 Uiso
H4_8 H 0.63037 0.65434 0.03045 0.0180 Uiso
H5_8 H 0.74589 0.69715 0.09295 0.0180 Uiso
H6_8 H 0.68837 0.69330 0.12814 0.0180 Uiso
H7_8 H 0.98070 0.57063 0.31008 0.0180 Uiso
H8_8 H 0.95045 0.65567 0.20519 0.0180 Uiso
H9_8 H 0.99781 0.67365 0.25095 0.0180 Uiso
H10_8 H 0.93455 0.51844 0.30772 0.0180 Uiso
H11_8 H 0.85703 0.53705 0.19471 0.0180 Uiso
H12_8 H 0.84440 0.48413 0.23609 0.0180 Uiso
H13_8 H 0.84183 0.61089 0.20505 0.0180 Uiso
H14_8 H 0.81207 0.63753 0.15083 0.0180 Uiso
H15_8 H 0.91609 0.63278 0.09193 0.0180 Uiso
H16_8 H 0.78430 0.61088 0.01994 0.0180 Uiso
H17_8 H 0.83186 0.59350 0.06399 0.0180 Uiso
H18_8 H 0.84556 0.70842 0.09407 0.0180 Uiso
H19_8 H 0.79568 0.72490 0.05151 0.0180 Uiso
H20_8 H 0.94664 0.60428 0.14659 0.0180 Uiso
Cu5_8 Cu 0.58624 0.67345 0.17127 0.0150 Uiso
Cu8_8 Cu 0.56146 0.62778 0.12564 0.0150 Uiso
O1_8 O 0.69048 0.61019 0.86599 0.0150 Uiso
O2_8 O 0.64765 0.59280 0.90571 0.0150 Uiso
C1_8 C 0.67698 0.61083 0.89847 0.0150 Uiso
C5_8 C 0.69632 0.63144 0.92807 0.0150 Uiso
C6_8 C 0.67738 0.64195 0.96064 0.0150 Uiso
C7_8 C 0.69775 0.65847 0.98898 0.0150 Uiso
C8_8 C 0.73557 0.66329 0.98651 0.0150 Uiso
C9_8 C 0.75491 0.65319 0.95473 0.0150 Uiso
C10_8 C 0.73495 0.63779 0.92520 0.0150 Uiso
H1_8 H 0.64808 0.63683 0.96393 0.0180 Uiso
H2_8 H 0.78456 0.65680 0.95281 0.0180 Uiso
H3_8 H 0.74990 0.62938 0.90065 0.0180 Uiso
O11_8 O 0.63782 0.62092 0.81942 0.0150 Uiso
O12_8 O 0.59488 0.59770 0.85601 0.0150 Uiso
O13_8 O 0.69914 0.54529 0.84044 0.0150 Uiso
O14_8 O 0.66086 0.52779 0.88457 0.0150 Uiso
O1_9 O 0.63401 0.30952 0.11019 0.0150 Uiso
O2_9 O 0.59429 0.35235 0.09280 0.0150 Uiso
O5_9 O 0.36218 0.37908 0.18058 0.0150 Uiso
O6_9 O 0.40512 0.40230 0.14399 0.0150 Uiso
N1_9 N 0.48127 0.25006 0.17605 0.0150 Uiso
N2_9 N 0.28896 0.08779 0.08879 0.0150 Uiso
C1_9 C 0.60153 0.32302 0.11083 0.0150 Uiso
C3_9 C 0.39433 0.37745 0.16630 0.0150 Uiso
C5_9 C 0.57193 0.30368 0.13144 0.0150 Uiso
C6_9 C 0.53936 0.32262 0.14195 0.0150 Uiso
C7_9 C 0.51102 0.30225 0.15847 0.0150 Uiso
C8_9 C 0.51349 0.26443 0.16329 0.0150 Uiso
C9_9 C 0.54527 0.24509 0.15319 0.0150 Uiso
C10_9 C 0.57480 0.26505 0.13779 0.0150 Uiso
C11_9 C 0.41798 0.34519 0.17409 0.0150 Uiso
C12_9 C 0.45610 0.34518 0.16515 0.0150 Uiso
C13_9 C 0.47564 0.31202 0.16889 0.0150 Uiso
C14_9 C 0.45856 0.27969 0.17989 0.0150 Uiso
C15_9 C 0.42106 0.27924 0.18914 0.0150 Uiso
C16_9 C 0.40110 0.31227 0.18690 0.0150 Uiso
C17_9 C 0.21652 0.00648 0.12328 0.0150 Uiso
C18_9 C 0.21228 0.02558 0.08951 0.0150 Uiso
C19_9 C 0.23850 0.05221 0.08042 0.0150 Uiso
C20_9 C 0.26773 0.06063 0.10339 0.0150 Uiso
C21_9 C 0.27209 0.04291 0.13736 0.0150 Uiso
C22_9 C 0.24611 0.01585 0.14728 0.0150 Uiso
C24_9 C 0.21723 0.08177 0.02115 0.0150 Uiso
C25_9 C 0.24127 0.07555 0.05054 0.0150 Uiso
C26_9 C 0.27234 0.09689 0.05639 0.0150 Uiso
C27_9 C 0.28135 0.12568 0.03232 0.0150 Uiso
C28_9 C 0.25761 0.13265 0.00226 0.0150 Uiso
C29_9 C 0.32066 0.10465 0.10544 0.0150 Uiso
C30_9 C 0.31950 0.14184 0.11602 0.0150 Uiso
C31_9 C 0.35047 0.15862 0.13170 0.0150 Uiso
C32_9 C 0.38325 0.13839 0.13743 0.0150 Uiso
C33_9 C 0.38361 0.10052 0.12825 0.0150 Uiso
C34_9 C 0.35264 0.08390 0.11208 0.0150 Uiso
C35_9 C 0.46766 0.21334 0.16921 0.0150 Uiso
C36_9 C 0.46509 0.20134 0.13246 0.0150 Uiso
C37_9 C 0.43973 0.17403 0.12258 0.0150 Uiso
C38_9 C 0.41667 0.15785 0.14942 0.0150 Uiso
C39_9 C 0.42245 0.16700 0.18685 0.0150 Uiso
C40_9 C 0.44738 0.19489 0.19655 0.0150 Uiso
H1_9 H 0.53607 0.35192 0.13683 0.0180 Uiso
H2_9 H 0.54719 0.21544 0.15680 0.0180 Uiso
H3_9 H 0.59935 0.25010 0.12938 0.0180 Uiso
H4_9 H 0.46955 0.36963 0.15434 0.0180 Uiso
H5_9 H 0.40705 0.25411 0.19715 0.0180 Uiso
H6_9 H 0.37186 0.31163 0.19330 0.0180 Uiso
H7_9 H 0.18992 0.01930 0.07063 0.0180 Uiso
H8_9 H 0.29481 0.04955 0.15567 0.0180 Uiso
H9_9 H 0.24905 0.00219 0.17365 0.0180 Uiso
H10_9 H 0.19228 0.06545 0.01844 0.0180 Uiso
H11_9 H 0.30529 0.14297 0.03705 0.0180 Uiso
H13_9 H 0.29495 0.15817 0.11089 0.0180 Uiso
H14_9 H 0.34917 0.18793 0.13753 0.0180 Uiso
H15_9 H 0.40807 0.08391 0.13278 0.0180 Uiso
H16_9 H 0.48006 0.21570 0.11088 0.0180 Uiso
H17_9 H 0.43601 0.16814 0.09350 0.0180 Uiso
H18_9 H 0.40593 0.15444 0.20842 0.0180 Uiso
H19_9 H 0.44849 0.20432 0.22490 0.0180 Uiso
H20_9 H 0.35341 0.05336 0.10428 0.0180 Uiso
Cu5_9 Cu 0.32873 0.41376 0.17345 0.0150 Uiso
Cu8_9 Cu 0.37436 0.43854 0.12778 0.0150 Uiso
O9_5 O 0.70613 0.35289 0.05512 0.0150 Uiso
O10_5 O 0.66510 0.39056 0.03046 0.0150 Uiso
O11_9 O 0.68058 0.36218 0.12092 0.0150 Uiso
O12_9 O 0.64399 0.40512 0.09770 0.0150 Uiso
O3_5 O 0.20613 0.14711 0.94488 0.0150 Uiso
O4_5 O 0.16510 0.10944 0.96954 0.0150 Uiso
C2_9 C 0.19765 0.12265 0.96868 0.0150 Uiso
C23_9 C 0.22507 0.11127 0.99677 0.0150 Uiso
H12_9 H 0.26391 0.15560 0.98413 0.0180 Uiso
C4_9 C 0.19088 0.97647 0.13325 0.0150 Uiso
O1_10 O 0.13401 0.19048 0.88981 0.0150 Uiso
O2_10 O 0.09429 0.14765 0.90720 0.0150 Uiso
C1_10 C 0.10153 0.17698 0.88917 0.0150 Uiso
C5_10 C 0.07193 0.19632 0.86856 0.0150 Uiso
C6_10 C 0.03936 0.17738 0.85805 0.0150 Uiso
C7_10 C 0.01102 0.19775 0.84153 0.0150 Uiso
C8_10 C 0.01349 0.23557 0.83671 0.0150 Uiso
C9_10 C 0.04527 0.25491 0.84681 0.0150 Uiso
C10_10 C 0.07480 0.23495 0.86221 0.0150 Uiso
H1_10 H 0.03607 0.14808 0.86317 0.0180 Uiso
H2_10 H 0.04719 0.28456 0.84320 0.0180 Uiso
H3_10 H 0.09935 0.24990 0.87062 0.0180 Uiso
O11_10 O 0.18058 0.13782 0.87908 0.0150 Uiso
O12_10 O 0.14399 0.09488 0.90230 0.0150 Uiso
C2_10 C 0.69765 0.37735 0.03132 0.0150 Uiso
C23_10 C 0.72507 0.38873 0.00323 0.0150 Uiso
H12_10 H 0.76391 0.34440 0.01587 0.0180 Uiso
O5_10 O 0.86218 0.12092 0.81942 0.0150 Uiso
O6_10 O 0.90512 0.09770 0.85601 0.0150 Uiso
N1_10 N 0.98127 0.24994 0.82395 0.0150 Uiso
N2_10 N 0.78896 0.41221 0.91121 0.0150 Uiso
C3_10 C 0.89433 0.12255 0.83370 0.0150 Uiso
C4_10 C 0.69088 0.52353 0.86675 0.0150 Uiso
C11_10 C 0.91798 0.15481 0.82591 0.0150 Uiso
C12_10 C 0.95610 0.15482 0.83485 0.0150 Uiso
C13_10 C 0.97564 0.18798 0.83111 0.0150 Uiso
C14_10 C 0.95856 0.22031 0.82011 0.0150 Uiso
C15_10 C 0.92106 0.22076 0.81086 0.0150 Uiso
C16_10 C 0.90110 0.18773 0.81310 0.0150 Uiso
C17_10 C 0.71652 0.49352 0.87672 0.0150 Uiso
C18_10 C 0.71228 0.47442 0.91049 0.0150 Uiso
C19_10 C 0.73850 0.44779 0.91958 0.0150 Uiso
C20_10 C 0.76773 0.43937 0.89661 0.0150 Uiso
C21_10 C 0.77209 0.45709 0.86264 0.0150 Uiso
C22_10 C 0.74611 0.48415 0.85272 0.0150 Uiso
C24_10 C 0.71723 0.41823 0.97885 0.0150 Uiso
C25_10 C 0.74127 0.42445 0.94946 0.0150 Uiso
C26_10 C 0.77234 0.40311 0.94361 0.0150 Uiso
C27_10 C 0.78135 0.37432 0.96768 0.0150 Uiso
C28_10 C 0.75761 0.36735 0.99774 0.0150 Uiso
C29_10 C 0.82066 0.39535 0.89456 0.0150 Uiso
C30_10 C 0.81950 0.35816 0.88398 0.0150 Uiso
C31_10 C 0.85047 0.34138 0.86830 0.0150 Uiso
C32_10 C 0.88325 0.36161 0.86257 0.0150 Uiso
C33_10 C 0.88361 0.39948 0.87175 0.0150 Uiso
C34_10 C 0.85264 0.41610 0.88792 0.0150 Uiso
C35_10 C 0.96766 0.28666 0.83079 0.0150 Uiso
C36_10 C 0.96509 0.29866 0.86754 0.0150 Uiso
C37_10 C 0.93973 0.32597 0.87742 0.0150 Uiso
C38_10 C 0.91667 0.34215 0.85058 0.0150 Uiso
C39_10 C 0.92245 0.33300 0.81315 0.0150 Uiso
C40_10 C 0.94738 0.30511 0.80345 0.0150 Uiso
H4_10 H 0.96955 0.13037 0.84566 0.0180 Uiso
H5_10 H 0.90705 0.24589 0.80285 0.0180 Uiso
H6_10 H 0.87186 0.18837 0.80670 0.0180 Uiso
H7_10 H 0.68992 0.48070 0.92937 0.0180 Uiso
H8_10 H 0.79481 0.45045 0.84433 0.0180 Uiso
H9_10 H 0.74905 0.49781 0.82635 0.0180 Uiso
H10_10 H 0.69228 0.43455 0.98156 0.0180 Uiso
H11_10 H 0.80529 0.35703 0.96295 0.0180 Uiso
H13_10 H 0.79495 0.34183 0.88911 0.0180 Uiso
H14_10 H 0.84917 0.31207 0.86247 0.0180 Uiso
H15_10 H 0.90807 0.41609 0.86722 0.0180 Uiso
H16_10 H 0.98006 0.28430 0.88912 0.0180 Uiso
H17_10 H 0.93601 0.33186 0.90650 0.0180 Uiso
H18_10 H 0.90593 0.34556 0.79158 0.0180 Uiso
H19_10 H 0.94849 0.29568 0.77510 0.0180 Uiso
H20_10 H 0.85341 0.44664 0.89572 0.0180 Uiso
Cu5_10 Cu 0.82873 0.08624 0.82655 0.0150 Uiso
Cu8_10 Cu 0.87436 0.06146 0.87222 0.0150 Uiso
O1_11 O 0.36599 0.80952 0.38981 0.0150 Uiso
O2_11 O 0.40571 0.85235 0.40720 0.0150 Uiso
O3_6 O 0.79387 0.64711 0.55512 0.0150 Uiso
O4_6 O 0.83490 0.60944 0.53046 0.0150 Uiso
O5_11 O 0.63782 0.87908 0.31942 0.0150 Uiso
O6_11 O 0.59488 0.90230 0.35601 0.0150 Uiso
N1_11 N 0.51873 0.75006 0.32395 0.0150 Uiso
N2_11 N 0.71104 0.58779 0.41121 0.0150 Uiso
C1_11 C 0.39847 0.82302 0.38917 0.0150 Uiso
C2_11 C 0.80235 0.62265 0.53132 0.0150 Uiso
C3_11 C 0.60567 0.87745 0.33370 0.0150 Uiso
C4_11 C 0.80912 0.47647 0.36675 0.0150 Uiso
C5_11 C 0.42807 0.80368 0.36856 0.0150 Uiso
C6_11 C 0.46064 0.82262 0.35805 0.0150 Uiso
C7_11 C 0.48898 0.80225 0.34153 0.0150 Uiso
C8_11 C 0.48651 0.76443 0.33671 0.0150 Uiso
C9_11 C 0.45473 0.74509 0.34681 0.0150 Uiso
C10_11 C 0.42520 0.76505 0.36221 0.0150 Uiso
C11_11 C 0.58202 0.84519 0.32591 0.0150 Uiso
C12_11 C 0.54390 0.84518 0.33485 0.0150 Uiso
C13_11 C 0.52436 0.81202 0.33111 0.0150 Uiso
C14_11 C 0.54144 0.77969 0.32011 0.0150 Uiso
C15_11 C 0.57894 0.77924 0.31086 0.0150 Uiso
C16_11 C 0.59890 0.81227 0.31310 0.0150 Uiso
C17_11 C 0.78348 0.50648 0.37672 0.0150 Uiso
C18_11 C 0.78772 0.52558 0.41049 0.0150 Uiso
C19_11 C 0.76150 0.55221 0.41958 0.0150 Uiso
C20_11 C 0.73227 0.56063 0.39661 0.0150 Uiso
C21_11 C 0.72791 0.54291 0.36264 0.0150 Uiso
C22_11 C 0.75389 0.51585 0.35272 0.0150 Uiso
C23_11 C 0.77493 0.61127 0.50323 0.0150 Uiso
C24_11 C 0.78277 0.58177 0.47885 0.0150 Uiso
C25_11 C 0.75873 0.57555 0.44946 0.0150 Uiso
C26_11 C 0.72766 0.59689 0.44361 0.0150 Uiso
C27_11 C 0.71865 0.62568 0.46768 0.0150 Uiso
C28_11 C 0.74239 0.63265 0.49774 0.0150 Uiso
C29_11 C 0.67934 0.60465 0.39456 0.0150 Uiso
C30_11 C 0.68050 0.64184 0.38398 0.0150 Uiso
C31_11 C 0.64953 0.65862 0.36830 0.0150 Uiso
C32_11 C 0.61675 0.63839 0.36257 0.0150 Uiso
C33_11 C 0.61639 0.60052 0.37175 0.0150 Uiso
C34_11 C 0.64736 0.58390 0.38792 0.0150 Uiso
C35_11 C 0.53234 0.71334 0.33079 0.0150 Uiso
C36_11 C 0.53491 0.70134 0.36754 0.0150 Uiso
C37_11 C 0.56027 0.67403 0.37742 0.0150 Uiso
C38_11 C 0.58333 0.65785 0.35058 0.0150 Uiso
C39_11 C 0.57755 0.66700 0.31315 0.0150 Uiso
C40_11 C 0.55262 0.69489 0.30345 0.0150 Uiso
H1_11 H 0.46393 0.85192 0.36317 0.0180 Uiso
H2_11 H 0.45281 0.71544 0.34320 0.0180 Uiso
H3_11 H 0.40065 0.75010 0.37062 0.0180 Uiso
H4_11 H 0.53045 0.86963 0.34566 0.0180 Uiso
H5_11 H 0.59295 0.75411 0.30285 0.0180 Uiso
H6_11 H 0.62814 0.81163 0.30670 0.0180 Uiso
H7_11 H 0.81008 0.51930 0.42937 0.0180 Uiso
H8_11 H 0.70519 0.54955 0.34433 0.0180 Uiso
H9_11 H 0.75095 0.50219 0.32635 0.0180 Uiso
H10_11 H 0.80772 0.56545 0.48156 0.0180 Uiso
H11_11 H 0.69471 0.64297 0.46295 0.0180 Uiso
H12_11 H 0.73609 0.65560 0.51587 0.0180 Uiso
H13_11 H 0.70505 0.65817 0.38911 0.0180 Uiso
H14_11 H 0.65083 0.68793 0.36247 0.0180 Uiso
H15_11 H 0.59193 0.58391 0.36722 0.0180 Uiso
H16_11 H 0.51994 0.71570 0.38912 0.0180 Uiso
H17_11 H 0.56399 0.66814 0.40650 0.0180 Uiso
H18_11 H 0.59407 0.65444 0.29158 0.0180 Uiso
H19_11 H 0.55151 0.70432 0.27510 0.0180 Uiso
H20_11 H 0.64659 0.55336 0.39572 0.0180 Uiso
Cu5_11 Cu 0.67127 0.91376 0.32655 0.0150 Uiso
Cu8_11 Cu 0.62564 0.93854 0.37222 0.0150 Uiso
O9_6 O 0.29387 0.85289 0.44488 0.0150 Uiso
O10_6 O 0.33490 0.89056 0.46954 0.0150 Uiso
O11_11 O 0.31942 0.86218 0.37908 0.0150 Uiso
O12_11 O 0.35601 0.90512 0.40230 0.0150 Uiso
C4_12 C 0.30912 0.02353 0.63325 0.0150 Uiso
O5_12 O 0.13782 0.62092 0.68058 0.0150 Uiso
O6_12 O 0.09488 0.59770 0.64399 0.0150 Uiso
N1_12 N 0.01873 0.74994 0.67605 0.0150 Uiso
N2_12 N 0.21104 0.91221 0.58879 0.0150 Uiso
C2_12 C 0.30235 0.87735 0.46868 0.0150 Uiso
C3_12 C 0.10567 0.62255 0.66630 0.0150 Uiso
C11_12 C 0.08202 0.65481 0.67409 0.0150 Uiso
C12_12 C 0.04390 0.65482 0.66515 0.0150 Uiso
C13_12 C 0.02436 0.68798 0.66889 0.0150 Uiso
C14_12 C 0.04144 0.72031 0.67989 0.0150 Uiso
C15_12 C 0.07894 0.72076 0.68914 0.0150 Uiso
C16_12 C 0.09890 0.68773 0.68690 0.0150 Uiso
C17_12 C 0.28348 0.99352 0.62328 0.0150 Uiso
C18_12 C 0.28772 0.97442 0.58951 0.0150 Uiso
C19_12 C 0.26150 0.94779 0.58042 0.0150 Uiso
C20_12 C 0.23227 0.93937 0.60339 0.0150 Uiso
C21_12 C 0.22791 0.95709 0.63736 0.0150 Uiso
C22_12 C 0.25389 0.98415 0.64728 0.0150 Uiso
C23_12 C 0.27493 0.88873 0.49677 0.0150 Uiso
C24_12 C 0.28277 0.91823 0.52115 0.0150 Uiso
C25_12 C 0.25873 0.92445 0.55054 0.0150 Uiso
C26_12 C 0.22766 0.90311 0.55639 0.0150 Uiso
C27_12 C 0.21865 0.87432 0.53232 0.0150 Uiso
C28_12 C 0.24239 0.86735 0.50226 0.0150 Uiso
C29_12 C 0.17934 0.89535 0.60544 0.0150 Uiso
C30_12 C 0.18050 0.85816 0.61602 0.0150 Uiso
C31_12 C 0.14953 0.84138 0.63170 0.0150 Uiso
C32_12 C 0.11675 0.86161 0.63743 0.0150 Uiso
C33_12 C 0.11639 0.89948 0.62825 0.0150 Uiso
C34_12 C 0.14736 0.91610 0.61208 0.0150 Uiso
C35_12 C 0.03234 0.78666 0.66921 0.0150 Uiso
C36_12 C 0.03491 0.79866 0.63246 0.0150 Uiso
C37_12 C 0.06027 0.82597 0.62258 0.0150 Uiso
C38_12 C 0.08333 0.84215 0.64942 0.0150 Uiso
C39_12 C 0.07755 0.83300 0.68685 0.0150 Uiso
C40_12 C 0.05262 0.80511 0.69655 0.0150 Uiso
H4_12 H 0.03045 0.63037 0.65434 0.0180 Uiso
H5_12 H 0.09295 0.74589 0.69715 0.0180 Uiso
H6_12 H 0.12814 0.68837 0.69330 0.0180 Uiso
H7_12 H 0.31008 0.98070 0.57063 0.0180 Uiso
H8_12 H 0.20519 0.95045 0.65567 0.0180 Uiso
H9_12 H 0.25095 0.99781 0.67365 0.0180 Uiso
H10_12 H 0.30772 0.93455 0.51844 0.0180 Uiso
H11_12 H 0.19471 0.85703 0.53705 0.0180 Uiso
H12_12 H 0.23609 0.84440 0.48413 0.0180 Uiso
H13_12 H 0.20505 0.84183 0.61089 0.0180 Uiso
H14_12 H 0.15083 0.81207 0.63753 0.0180 Uiso
H15_12 H 0.09193 0.91609 0.63278 0.0180 Uiso
H16_12 H 0.01994 0.78430 0.61088 0.0180 Uiso
H17_12 H 0.06399 0.83186 0.59350 0.0180 Uiso
H18_12 H 0.09407 0.84556 0.70842 0.0180 Uiso
H19_12 H 0.05151 0.79568 0.72490 0.0180 Uiso
H20_12 H 0.14659 0.94664 0.60428 0.0180 Uiso
Cu5_12 Cu 0.17127 0.58624 0.67345 0.0150 Uiso
Cu8_12 Cu 0.12564 0.56146 0.62778 0.0150 Uiso
O1_12 O 0.86599 0.69048 0.61019 0.0150 Uiso
O2_12 O 0.90571 0.64765 0.59280 0.0150 Uiso
C1_12 C 0.89847 0.67698 0.61083 0.0150 Uiso
C5_12 C 0.92807 0.69632 0.63144 0.0150 Uiso
C6_12 C 0.96064 0.67738 0.64195 0.0150 Uiso
C7_12 C 0.98898 0.69775 0.65847 0.0150 Uiso
C8_12 C 0.98651 0.73557 0.66329 0.0150 Uiso
C9_12 C 0.95473 0.75491 0.65319 0.0150 Uiso
C10_12 C 0.92520 0.73495 0.63779 0.0150 Uiso
H1_12 H 0.96393 0.64808 0.63683 0.0180 Uiso
H2_12 H 0.95281 0.78456 0.65680 0.0180 Uiso
H3_12 H 0.90065 0.74990 0.62938 0.0180 Uiso
O11_12 O 0.81942 0.63782 0.62092 0.0150 Uiso
O12_12 O 0.85601 0.59488 0.59770 0.0150 Uiso
O3_7 O 0.05512 0.79387 0.85289 0.0150 Uiso
O4_7 O 0.03046 0.83490 0.89056 0.0150 Uiso
C2_13 C 0.03132 0.80235 0.87735 0.0150 Uiso
C23_13 C 0.00323 0.77493 0.88873 0.0150 Uiso
H12_13 H 0.01587 0.73609 0.84440 0.0180 Uiso
O7_5 O 0.84044 0.80086 0.04529 0.0150 Uiso
O8_5 O 0.88457 0.83914 0.02779 0.0150 Uiso
C4_13 C 0.86675 0.80912 0.02353 0.0150 Uiso
O1_13 O 0.88981 0.36599 0.69048 0.0150 Uiso
O2_13 O 0.90720 0.40571 0.64765 0.0150 Uiso
N1_13 N 0.82395 0.51873 0.74994 0.0150 Uiso
N2_13 N 0.91121 0.71104 0.91221 0.0150 Uiso
C1_13 C 0.88917 0.39847 0.67698 0.0150 Uiso
C3_13 C 0.83370 0.60567 0.62255 0.0150 Uiso
C5_13 C 0.86856 0.42807 0.69632 0.0150 Uiso
C6_13 C 0.85805 0.46064 0.67738 0.0150 Uiso
C7_13 C 0.84153 0.48898 0.69775 0.0150 Uiso
C8_13 C 0.83671 0.48651 0.73557 0.0150 Uiso
C9_13 C 0.84681 0.45473 0.75491 0.0150 Uiso
C10_13 C 0.86221 0.42520 0.73495 0.0150 Uiso
C11_13 C 0.82591 0.58202 0.65481 0.0150 Uiso
C12_13 C 0.83485 0.54390 0.65482 0.0150 Uiso
C13_13 C 0.83111 0.52436 0.68798 0.0150 Uiso
C14_13 C 0.82011 0.54144 0.72031 0.0150 Uiso
C15_13 C 0.81086 0.57894 0.72076 0.0150 Uiso
C16_13 C 0.81310 0.59890 0.68773 0.0150 Uiso
C17_13 C 0.87672 0.78348 0.99352 0.0150 Uiso
C18_13 C 0.91049 0.78772 0.97442 0.0150 Uiso
C19_13 C 0.91958 0.76150 0.94779 0.0150 Uiso
C20_13 C 0.89661 0.73227 0.93937 0.0150 Uiso
C21_13 C 0.86264 0.72791 0.95709 0.0150 Uiso
C22_13 C 0.85272 0.75389 0.98415 0.0150 Uiso
C24_13 C 0.97885 0.78277 0.91823 0.0150 Uiso
C25_13 C 0.94946 0.75873 0.92445 0.0150 Uiso
C26_13 C 0.94361 0.72766 0.90311 0.0150 Uiso
C27_13 C 0.96768 0.71865 0.87432 0.0150 Uiso
C28_13 C 0.99774 0.74239 0.86735 0.0150 Uiso
C29_13 C 0.89456 0.67934 0.89535 0.0150 Uiso
C30_13 C 0.88398 0.68050 0.85816 0.0150 Uiso
C31_13 C 0.86830 0.64953 0.84138 0.0150 Uiso
C32_13 C 0.86257 0.61675 0.86161 0.0150 Uiso
C33_13 C 0.87175 0.61639 0.89948 0.0150 Uiso
C34_13 C 0.88792 0.64736 0.91610 0.0150 Uiso
C35_13 C 0.83079 0.53234 0.78666 0.0150 Uiso
C36_13 C 0.86754 0.53491 0.79866 0.0150 Uiso
C37_13 C 0.87742 0.56027 0.82597 0.0150 Uiso
C38_13 C 0.85058 0.58333 0.84215 0.0150 Uiso
C39_13 C 0.81315 0.57755 0.83300 0.0150 Uiso
C40_13 C 0.80345 0.55262 0.80511 0.0150 Uiso
H1_13 H 0.86317 0.46393 0.64808 0.0180 Uiso
H2_13 H 0.84320 0.45281 0.78456 0.0180 Uiso
H3_13 H 0.87062 0.40065 0.74990 0.0180 Uiso
H4_13 H 0.84566 0.53045 0.63037 0.0180 Uiso
H5_13 H 0.80285 0.59295 0.74589 0.0180 Uiso
H6_13 H 0.80670 0.62814 0.68837 0.0180 Uiso
H7_13 H 0.92937 0.81008 0.98070 0.0180 Uiso
H8_13 H 0.84433 0.70519 0.95045 0.0180 Uiso
H9_13 H 0.82635 0.75095 0.99781 0.0180 Uiso
H10_13 H 0.98156 0.80772 0.93455 0.0180 Uiso
H11_13 H 0.96295 0.69471 0.85703 0.0180 Uiso
H13_13 H 0.88911 0.70505 0.84183 0.0180 Uiso
H14_13 H 0.86247 0.65083 0.81207 0.0180 Uiso
H15_13 H 0.86722 0.59193 0.91609 0.0180 Uiso
H16_13 H 0.88912 0.51994 0.78430 0.0180 Uiso
H17_13 H 0.90650 0.56399 0.83186 0.0180 Uiso
H18_13 H 0.79158 0.59407 0.84556 0.0180 Uiso
H19_13 H 0.77510 0.55151 0.79568 0.0180 Uiso
H20_13 H 0.89572 0.64659 0.94664 0.0180 Uiso
O9_7 O 0.94488 0.29387 0.64711 0.0150 Uiso
O10_7 O 0.96954 0.33490 0.60944 0.0150 Uiso
O13_9 O 0.95471 0.34044 0.69914 0.0150 Uiso
O14_9 O 0.97221 0.38457 0.66086 0.0150 Uiso
O1_14 O 0.61019 0.63401 0.19048 0.0150 Uiso
O2_14 O 0.59280 0.59429 0.14765 0.0150 Uiso
O3_8 O 0.44488 0.20613 0.35289 0.0150 Uiso
O4_8 O 0.46954 0.16510 0.39056 0.0150 Uiso
O7_6 O 0.65956 0.19914 0.54529 0.0150 Uiso
O8_6 O 0.61543 0.16086 0.52779 0.0150 Uiso
N1_14 N 0.67605 0.48127 0.24994 0.0150 Uiso
N2_14 N 0.58879 0.28896 0.41221 0.0150 Uiso
C1_14 C 0.61083 0.60153 0.17698 0.0150 Uiso
C2_14 C 0.46868 0.19765 0.37735 0.0150 Uiso
C3_14 C 0.66630 0.39433 0.12255 0.0150 Uiso
C4_14 C 0.63325 0.19088 0.52353 0.0150 Uiso
C5_14 C 0.63144 0.57193 0.19632 0.0150 Uiso
C6_14 C 0.64195 0.53936 0.17738 0.0150 Uiso
C7_14 C 0.65847 0.51102 0.19775 0.0150 Uiso
C8_14 C 0.66329 0.51349 0.23557 0.0150 Uiso
C9_14 C 0.65319 0.54527 0.25491 0.0150 Uiso
C10_14 C 0.63779 0.57480 0.23495 0.0150 Uiso
C11_14 C 0.67409 0.41798 0.15481 0.0150 Uiso
C12_14 C 0.66515 0.45610 0.15482 0.0150 Uiso
C13_14 C 0.66889 0.47564 0.18798 0.0150 Uiso
C14_14 C 0.67989 0.45856 0.22031 0.0150 Uiso
C15_14 C 0.68914 0.42106 0.22076 0.0150 Uiso
C16_14 C 0.68690 0.40110 0.18773 0.0150 Uiso
C17_14 C 0.62328 0.21652 0.49352 0.0150 Uiso
C18_14 C 0.58951 0.21228 0.47442 0.0150 Uiso
C19_14 C 0.58042 0.23850 0.44779 0.0150 Uiso
C20_14 C 0.60339 0.26773 0.43937 0.0150 Uiso
C21_14 C 0.63736 0.27209 0.45709 0.0150 Uiso
C22_14 C 0.64728 0.24611 0.48415 0.0150 Uiso
C23_14 C 0.49677 0.22507 0.38873 0.0150 Uiso
C24_14 C 0.52115 0.21723 0.41823 0.0150 Uiso
C25_14 C 0.55054 0.24127 0.42445 0.0150 Uiso
C26_14 C 0.55639 0.27234 0.40311 0.0150 Uiso
C27_14 C 0.53232 0.28135 0.37432 0.0150 Uiso
C28_14 C 0.50226 0.25761 0.36735 0.0150 Uiso
C29_14 C 0.60544 0.32066 0.39535 0.0150 Uiso
C30_14 C 0.61602 0.31950 0.35816 0.0150 Uiso
C31_14 C 0.63170 0.35047 0.34138 0.0150 Uiso
C32_14 C 0.63743 0.38325 0.36161 0.0150 Uiso
C33_14 C 0.62825 0.38361 0.39948 0.0150 Uiso
C34_14 C 0.61208 0.35264 0.41610 0.0150 Uiso
C35_14 C 0.66921 0.46766 0.28666 0.0150 Uiso
C36_14 C 0.63246 0.46509 0.29866 0.0150 Uiso
C37_14 C 0.62258 0.43973 0.32597 0.0150 Uiso
C38_14 C 0.64942 0.41667 0.34215 0.0150 Uiso
C39_14 C 0.68685 0.42245 0.33300 0.0150 Uiso
C40_14 C 0.69655 0.44738 0.30511 0.0150 Uiso
H1_14 H 0.63683 0.53607 0.14808 0.0180 Uiso
H2_14 H 0.65680 0.54719 0.28456 0.0180 Uiso
H3_14 H 0.62938 0.59935 0.24990 0.0180 Uiso
H4_14 H 0.65434 0.46955 0.13037 0.0180 Uiso
H5_14 H 0.69715 0.40705 0.24589 0.0180 Uiso
H6_14 H 0.69330 0.37186 0.18837 0.0180 Uiso
H7_14 H 0.57063 0.18992 0.48070 0.0180 Uiso
H8_14 H 0.65567 0.29481 0.45045 0.0180 Uiso
H9_14 H 0.67365 0.24905 0.49781 0.0180 Uiso
H10_14 H 0.51844 0.19228 0.43455 0.0180 Uiso
H11_14 H 0.53705 0.30529 0.35703 0.0180 Uiso
H12_14 H 0.48413 0.26391 0.34440 0.0180 Uiso
H13_14 H 0.61089 0.29495 0.34183 0.0180 Uiso
H14_14 H 0.63753 0.34917 0.31207 0.0180 Uiso
H15_14 H 0.63278 0.40807 0.41609 0.0180 Uiso
H16_14 H 0.61088 0.48006 0.28430 0.0180 Uiso
H17_14 H 0.59350 0.43601 0.33186 0.0180 Uiso
H18_14 H 0.70842 0.40593 0.34556 0.0180 Uiso
H19_14 H 0.72490 0.44849 0.29568 0.0180 Uiso
H20_14 H 0.60428 0.35341 0.44664 0.0180 Uiso
O9_8 O 0.55512 0.70613 0.14711 0.0150 Uiso
O10_8 O 0.53046 0.66510 0.10944 0.0150 Uiso
O13_10 O 0.54529 0.65956 0.19914 0.0150 Uiso
O14_10 O 0.52779 0.61543 0.16086 0.0150 Uiso
O1_15 O 0.38981 0.13401 0.30952 0.0150 Uiso
O2_15 O 0.40720 0.09429 0.35235 0.0150 Uiso
C1_15 C 0.38917 0.10153 0.32302 0.0150 Uiso
C5_15 C 0.36856 0.07193 0.30368 0.0150 Uiso
C6_15 C 0.35805 0.03936 0.32262 0.0150 Uiso
C7_15 C 0.34153 0.01102 0.30225 0.0150 Uiso
C8_15 C 0.33671 0.01349 0.26443 0.0150 Uiso
C9_15 C 0.34681 0.04527 0.24509 0.0150 Uiso
C10_15 C 0.36221 0.07480 0.26505 0.0150 Uiso
H1_15 H 0.36317 0.03607 0.35192 0.0180 Uiso
H2_15 H 0.34320 0.04719 0.21544 0.0180 Uiso
H3_15 H 0.37062 0.09935 0.25010 0.0180 Uiso
O13_11 O 0.45471 0.15956 0.30086 0.0150 Uiso
O14_11 O 0.47221 0.11543 0.33914 0.0150 Uiso
N1_15 N 0.32395 0.98127 0.25006 0.0150 Uiso
N2_15 N 0.41121 0.78896 0.08779 0.0150 Uiso
C2_15 C 0.53132 0.69765 0.12265 0.0150 Uiso
C3_15 C 0.33370 0.89433 0.37745 0.0150 Uiso
C11_15 C 0.32591 0.91798 0.34519 0.0150 Uiso
C12_15 C 0.33485 0.95610 0.34518 0.0150 Uiso
C13_15 C 0.33111 0.97564 0.31202 0.0150 Uiso
C14_15 C 0.32011 0.95856 0.27969 0.0150 Uiso
C15_15 C 0.31086 0.92106 0.27924 0.0150 Uiso
C16_15 C 0.31310 0.90110 0.31227 0.0150 Uiso
C17_15 C 0.37672 0.71652 0.00648 0.0150 Uiso
C18_15 C 0.41049 0.71228 0.02558 0.0150 Uiso
C19_15 C 0.41958 0.73850 0.05221 0.0150 Uiso
C20_15 C 0.39661 0.76773 0.06063 0.0150 Uiso
C21_15 C 0.36264 0.77209 0.04291 0.0150 Uiso
C22_15 C 0.35272 0.74611 0.01585 0.0150 Uiso
C23_15 C 0.50323 0.72507 0.11127 0.0150 Uiso
C24_15 C 0.47885 0.71723 0.08177 0.0150 Uiso
C25_15 C 0.44946 0.74127 0.07555 0.0150 Uiso
C26_15 C 0.44361 0.77234 0.09689 0.0150 Uiso
C27_15 C 0.46768 0.78135 0.12568 0.0150 Uiso
C28_15 C 0.49774 0.75761 0.13265 0.0150 Uiso
C29_15 C 0.39456 0.82066 0.10465 0.0150 Uiso
C30_15 C 0.38398 0.81950 0.14184 0.0150 Uiso
C31_15 C 0.36830 0.85047 0.15862 0.0150 Uiso
C32_15 C 0.36257 0.88325 0.13839 0.0150 Uiso
C33_15 C 0.37175 0.88361 0.10052 0.0150 Uiso
C34_15 C 0.38792 0.85264 0.08390 0.0150 Uiso
C35_15 C 0.33079 0.96766 0.21334 0.0150 Uiso
C36_15 C 0.36754 0.96509 0.20134 0.0150 Uiso
C37_15 C 0.37742 0.93973 0.17403 0.0150 Uiso
C38_15 C 0.35058 0.91667 0.15785 0.0150 Uiso
C39_15 C 0.31315 0.92245 0.16700 0.0150 Uiso
C40_15 C 0.30345 0.94738 0.19489 0.0150 Uiso
H4_15 H 0.34566 0.96955 0.36963 0.0180 Uiso
H5_15 H 0.30285 0.90705 0.25411 0.0180 Uiso
H6_15 H 0.30670 0.87186 0.31163 0.0180 Uiso
H7_15 H 0.42937 0.68992 0.01930 0.0180 Uiso
H8_15 H 0.34433 0.79481 0.04955 0.0180 Uiso
H9_15 H 0.32635 0.74905 0.00219 0.0180 Uiso
H10_15 H 0.48156 0.69228 0.06545 0.0180 Uiso
H11_15 H 0.46295 0.80529 0.14297 0.0180 Uiso
H12_15 H 0.51587 0.76391 0.15560 0.0180 Uiso
H13_15 H 0.38911 0.79495 0.15817 0.0180 Uiso
H14_15 H 0.36247 0.84917 0.18793 0.0180 Uiso
H15_15 H 0.36722 0.90807 0.08391 0.0180 Uiso
H16_15 H 0.38912 0.98006 0.21570 0.0180 Uiso
H17_15 H 0.40650 0.93601 0.16814 0.0180 Uiso
H18_15 H 0.29158 0.90593 0.15444 0.0180 Uiso
H19_15 H 0.27510 0.94849 0.20432 0.0180 Uiso
H20_15 H 0.39572 0.85341 0.05336 0.0180 Uiso
O7_7 O 0.34044 0.69914 0.95471 0.0150 Uiso
O8_7 O 0.38457 0.66086 0.97221 0.0150 Uiso
C4_15 C 0.36675 0.69088 0.97647 0.0150 Uiso
O7_8 O 0.15956 0.30086 0.45471 0.0150 Uiso
O8_8 O 0.11543 0.33914 0.47221 0.0150 Uiso
N1_16 N 0.17605 0.01873 0.75006 0.0150 Uiso
N2_16 N 0.08879 0.21104 0.58779 0.0150 Uiso
C3_16 C 0.16630 0.10567 0.87745 0.0150 Uiso
C4_16 C 0.13325 0.30912 0.47647 0.0150 Uiso
C11_16 C 0.17409 0.08202 0.84519 0.0150 Uiso
C12_16 C 0.16515 0.04390 0.84518 0.0150 Uiso
C13_16 C 0.16889 0.02436 0.81202 0.0150 Uiso
C14_16 C 0.17989 0.04144 0.77969 0.0150 Uiso
C15_16 C 0.18914 0.07894 0.77924 0.0150 Uiso
C16_16 C 0.18690 0.09890 0.81227 0.0150 Uiso
C17_16 C 0.12328 0.28348 0.50648 0.0150 Uiso
C18_16 C 0.08951 0.28772 0.52558 0.0150 Uiso
C19_16 C 0.08042 0.26150 0.55221 0.0150 Uiso
C20_16 C 0.10339 0.23227 0.56063 0.0150 Uiso
C21_16 C 0.13736 0.22791 0.54291 0.0150 Uiso
C22_16 C 0.14728 0.25389 0.51585 0.0150 Uiso
C24_16 C 0.02115 0.28277 0.58177 0.0150 Uiso
C25_16 C 0.05054 0.25873 0.57555 0.0150 Uiso
C26_16 C 0.05639 0.22766 0.59689 0.0150 Uiso
C27_16 C 0.03232 0.21865 0.62568 0.0150 Uiso
C28_16 C 0.00226 0.24239 0.63265 0.0150 Uiso
C29_16 C 0.10544 0.17934 0.60465 0.0150 Uiso
C30_16 C 0.11602 0.18050 0.64184 0.0150 Uiso
C31_16 C 0.13170 0.14953 0.65862 0.0150 Uiso
C32_16 C 0.13743 0.11675 0.63839 0.0150 Uiso
C33_16 C 0.12825 0.11639 0.60052 0.0150 Uiso
C34_16 C 0.11208 0.14736 0.58390 0.0150 Uiso
C35_16 C 0.16921 0.03234 0.71334 0.0150 Uiso
C36_16 C 0.13246 0.03491 0.70134 0.0150 Uiso
C37_16 C 0.12258 0.06027 0.67403 0.0150 Uiso
C38_16 C 0.14942 0.08333 0.65785 0.0150 Uiso
C39_16 C 0.18685 0.07755 0.66700 0.0150 Uiso
C40_16 C 0.19655 0.05262 0.69489 0.0150 Uiso
H4_16 H 0.15434 0.03045 0.86963 0.0180 Uiso
H5_16 H 0.19715 0.09295 0.75411 0.0180 Uiso
H6_16 H 0.19330 0.12814 0.81163 0.0180 Uiso
H7_16 H 0.07063 0.31008 0.51930 0.0180 Uiso
H8_16 H 0.15567 0.20519 0.54955 0.0180 Uiso
H9_16 H 0.17365 0.25095 0.50219 0.0180 Uiso
H10_16 H 0.01844 0.30772 0.56545 0.0180 Uiso
H11_16 H 0.03705 0.19471 0.64297 0.0180 Uiso
H13_16 H 0.11089 0.20505 0.65817 0.0180 Uiso
H14_16 H 0.13753 0.15083 0.68793 0.0180 Uiso
H15_16 H 0.13278 0.09193 0.58391 0.0180 Uiso
H16_16 H 0.11088 0.01994 0.71570 0.0180 Uiso
H17_16 H 0.09350 0.06399 0.66814 0.0180 Uiso
H18_16 H 0.20842 0.09407 0.65444 0.0180 Uiso
H19_16 H 0.22490 0.05151 0.70432 0.0180 Uiso
H20_16 H 0.10428 0.14659 0.55336 0.0180 Uiso
O1_16 O 0.11019 0.86599 0.80952 0.0150 Uiso
O2_16 O 0.09280 0.90571 0.85235 0.0150 Uiso
C1_16 C 0.11083 0.89847 0.82302 0.0150 Uiso
C5_16 C 0.13144 0.92807 0.80368 0.0150 Uiso
C6_16 C 0.14195 0.96064 0.82262 0.0150 Uiso
C7_16 C 0.15847 0.98898 0.80225 0.0150 Uiso
C8_16 C 0.16329 0.98651 0.76443 0.0150 Uiso
C9_16 C 0.15319 0.95473 0.74509 0.0150 Uiso
C10_16 C 0.13779 0.92520 0.76505 0.0150 Uiso
H1_16 H 0.13683 0.96393 0.85192 0.0180 Uiso
H2_16 H 0.15680 0.95281 0.71544 0.0180 Uiso
H3_16 H 0.12938 0.90065 0.75010 0.0180 Uiso
O13_12 O 0.04529 0.84044 0.80086 0.0150 Uiso
O14_12 O 0.02779 0.88457 0.83914 0.0150 Uiso
C2_16 C 0.96868 0.30235 0.62265 0.0150 Uiso
C23_16 C 0.99677 0.27493 0.61127 0.0150 Uiso
H12_16 H 0.98413 0.23609 0.65560 0.0180 Uiso
C4_17 C 0.02353 0.86675 0.80912 0.0150 Uiso
O3_9 O 0.85289 0.05512 0.79387 0.0150 Uiso
O4_9 O 0.89056 0.03046 0.83490 0.0150 Uiso
C2_17 C 0.87735 0.03132 0.80235 0.0150 Uiso
C23_17 C 0.88873 0.00323 0.77493 0.0150 Uiso
H12_17 H 0.84440 0.01587 0.73609 0.0180 Uiso
O1_17 O 0.69048 0.88981 0.36599 0.0150 Uiso
O2_17 O 0.64765 0.90720 0.40571 0.0150 Uiso
N1_17 N 0.74994 0.82395 0.51873 0.0150 Uiso
N2_17 N 0.91221 0.91121 0.71104 0.0150 Uiso
C1_17 C 0.67698 0.88917 0.39847 0.0150 Uiso
C3_17 C 0.62255 0.83370 0.60567 0.0150 Uiso
C5_17 C 0.69632 0.86856 0.42807 0.0150 Uiso
C6_17 C 0.67738 0.85805 0.46064 0.0150 Uiso
C7_17 C 0.69775 0.84153 0.48898 0.0150 Uiso
C8_17 C 0.73557 0.83671 0.48651 0.0150 Uiso
C9_17 C 0.75491 0.84681 0.45473 0.0150 Uiso
C10_17 C 0.73495 0.86221 0.42520 0.0150 Uiso
C11_17 C 0.65481 0.82591 0.58202 0.0150 Uiso
C12_17 C 0.65482 0.83485 0.54390 0.0150 Uiso
C13_17 C 0.68798 0.83111 0.52436 0.0150 Uiso
C14_17 C 0.72031 0.82011 0.54144 0.0150 Uiso
C15_17 C 0.72076 0.81086 0.57894 0.0150 Uiso
C16_17 C 0.68773 0.81310 0.59890 0.0150 Uiso
C17_17 C 0.99352 0.87672 0.78348 0.0150 Uiso
C18_17 C 0.97442 0.91049 0.78772 0.0150 Uiso
C19_17 C 0.94779 0.91958 0.76150 0.0150 Uiso
C20_17 C 0.93937 0.89661 0.73227 0.0150 Uiso
C21_17 C 0.95709 0.86264 0.72791 0.0150 Uiso
C22_17 C 0.98415 0.85272 0.75389 0.0150 Uiso
C24_17 C 0.91823 0.97885 0.78277 0.0150 Uiso
C25_17 C 0.92445 0.94946 0.75873 0.0150 Uiso
C26_17 C 0.90311 0.94361 0.72766 0.0150 Uiso
C27_17 C 0.87432 0.96768 0.71865 0.0150 Uiso
C28_17 C 0.86735 0.99774 0.74239 0.0150 Uiso
C29_17 C 0.89535 0.89456 0.67934 0.0150 Uiso
C30_17 C 0.85816 0.88398 0.68050 0.0150 Uiso
C31_17 C 0.84138 0.86830 0.64953 0.0150 Uiso
C32_17 C 0.86161 0.86257 0.61675 0.0150 Uiso
C33_17 C 0.89948 0.87175 0.61639 0.0150 Uiso
C34_17 C 0.91610 0.88792 0.64736 0.0150 Uiso
C35_17 C 0.78666 0.83079 0.53234 0.0150 Uiso
C36_17 C 0.79866 0.86754 0.53491 0.0150 Uiso
C37_17 C 0.82597 0.87742 0.56027 0.0150 Uiso
C38_17 C 0.84215 0.85058 0.58333 0.0150 Uiso
C39_17 C 0.83300 0.81315 0.57755 0.0150 Uiso
C40_17 C 0.80511 0.80345 0.55262 0.0150 Uiso
H1_17 H 0.64808 0.86317 0.46393 0.0180 Uiso
H2_17 H 0.78456 0.84320 0.45281 0.0180 Uiso
H3_17 H 0.74990 0.87062 0.40065 0.0180 Uiso
H4_17 H 0.63037 0.84566 0.53045 0.0180 Uiso
H5_17 H 0.74589 0.80285 0.59295 0.0180 Uiso
H6_17 H 0.68837 0.80670 0.62814 0.0180 Uiso
H7_17 H 0.98070 0.92937 0.81008 0.0180 Uiso
H8_17 H 0.95045 0.84433 0.70519 0.0180 Uiso
H9_17 H 0.99781 0.82635 0.75095 0.0180 Uiso
H10_17 H 0.93455 0.98156 0.80772 0.0180 Uiso
H11_17 H 0.85703 0.96295 0.69471 0.0180 Uiso
H13_17 H 0.84183 0.88911 0.70505 0.0180 Uiso
H14_17 H 0.81207 0.86247 0.65083 0.0180 Uiso
H15_17 H 0.91609 0.86722 0.59193 0.0180 Uiso
H16_17 H 0.78430 0.88912 0.51994 0.0180 Uiso
H17_17 H 0.83186 0.90650 0.56399 0.0180 Uiso
H18_17 H 0.84556 0.79158 0.59407 0.0180 Uiso
H19_17 H 0.79568 0.77510 0.55151 0.0180 Uiso
H20_17 H 0.94664 0.89572 0.64659 0.0180 Uiso
O9_9 O 0.64711 0.94488 0.29387 0.0150 Uiso
O10_9 O 0.60944 0.96954 0.33490 0.0150 Uiso
O13_13 O 0.69914 0.95471 0.34044 0.0150 Uiso
O14_13 O 0.66086 0.97221 0.38457 0.0150 Uiso
N1_18 N 0.75006 0.17605 0.01873 0.0150 Uiso
N2_18 N 0.58779 0.08879 0.21104 0.0150 Uiso
C3_18 C 0.87745 0.16630 0.10567 0.0150 Uiso
C4_18 C 0.47647 0.13325 0.30912 0.0150 Uiso
C11_18 C 0.84519 0.17409 0.08202 0.0150 Uiso
C12_18 C 0.84518 0.16515 0.04390 0.0150 Uiso
C13_18 C 0.81202 0.16889 0.02436 0.0150 Uiso
C14_18 C 0.77969 0.17989 0.04144 0.0150 Uiso
C15_18 C 0.77924 0.18914 0.07894 0.0150 Uiso
C16_18 C 0.81227 0.18690 0.09890 0.0150 Uiso
C17_18 C 0.50648 0.12328 0.28348 0.0150 Uiso
C18_18 C 0.52558 0.08951 0.28772 0.0150 Uiso
C19_18 C 0.55221 0.08042 0.26150 0.0150 Uiso
C20_18 C 0.56063 0.10339 0.23227 0.0150 Uiso
C21_18 C 0.54291 0.13736 0.22791 0.0150 Uiso
C22_18 C 0.51585 0.14728 0.25389 0.0150 Uiso
C24_18 C 0.58177 0.02115 0.28277 0.0150 Uiso
C25_18 C 0.57555 0.05054 0.25873 0.0150 Uiso
C26_18 C 0.59689 0.05639 0.22766 0.0150 Uiso
C27_18 C 0.62568 0.03232 0.21865 0.0150 Uiso
C28_18 C 0.63265 0.00226 0.24239 0.0150 Uiso
C29_18 C 0.60465 0.10544 0.17934 0.0150 Uiso
C30_18 C 0.64184 0.11602 0.18050 0.0150 Uiso
C31_18 C 0.65862 0.13170 0.14953 0.0150 Uiso
C32_18 C 0.63839 0.13743 0.11675 0.0150 Uiso
C33_18 C 0.60052 0.12825 0.11639 0.0150 Uiso
C34_18 C 0.58390 0.11208 0.14736 0.0150 Uiso
C35_18 C 0.71334 0.16921 0.03234 0.0150 Uiso
C36_18 C 0.70134 0.13246 0.03491 0.0150 Uiso
C37_18 C 0.67403 0.12258 0.06027 0.0150 Uiso
C38_18 C 0.65785 0.14942 0.08333 0.0150 Uiso
C39_18 C 0.66700 0.18685 0.07755 0.0150 Uiso
C40_18 C 0.69489 0.19655 0.05262 0.0150 Uiso
H4_18 H 0.86963 0.15434 0.03045 0.0180 Uiso
H5_18 H 0.75411 0.19715 0.09295 0.0180 Uiso
H6_18 H 0.81163 0.19330 0.12814 0.0180 Uiso
H7_18 H 0.51930 0.07063 0.31008 0.0180 Uiso
H8_18 H 0.54955 0.15567 0.20519 0.0180 Uiso
H9_18 H 0.50219 0.17365 0.25095 0.0180 Uiso
H10_18 H 0.56545 0.01844 0.30772 0.0180 Uiso
H11_18 H 0.64297 0.03705 0.19471 0.0180 Uiso
H13_18 H 0.65817 0.11089 0.20505 0.0180 Uiso
H14_18 H 0.68793 0.13753 0.15083 0.0180 Uiso
H15_18 H 0.58391 0.13278 0.09193 0.0180 Uiso
H16_18 H 0.71570 0.11088 0.01994 0.0180 Uiso
H17_18 H 0.66814 0.09350 0.06399 0.0180 Uiso
H18_18 H 0.65444 0.20842 0.09407 0.0180 Uiso
H19_18 H 0.70432 0.22490 0.05151 0.0180 Uiso
H20_18 H 0.55336 0.10428 0.14659 0.0180 Uiso
O1_18 O 0.80952 0.11019 0.86599 0.0150 Uiso
O2_18 O 0.85235 0.09280 0.90571 0.0150 Uiso
C1_18 C 0.82302 0.11083 0.89847 0.0150 Uiso
C5_18 C 0.80368 0.13144 0.92807 0.0150 Uiso
C6_18 C 0.82262 0.14195 0.96064 0.0150 Uiso
C7_18 C 0.80225 0.15847 0.98898 0.0150 Uiso
C8_18 C 0.76443 0.16329 0.98651 0.0150 Uiso
C9_18 C 0.74509 0.15319 0.95473 0.0150 Uiso
C10_18 C 0.76505 0.13779 0.92520 0.0150 Uiso
H1_18 H 0.85192 0.13683 0.96393 0.0180 Uiso
H2_18 H 0.71544 0.15680 0.95281 0.0180 Uiso
H3_18 H 0.75010 0.12938 0.90065 0.0180 Uiso
O13_14 O 0.80086 0.04529 0.84044 0.0150 Uiso
O14_14 O 0.83914 0.02779 0.88457 0.0150 Uiso
C2_18 C 0.62265 0.96868 0.30235 0.0150 Uiso
C23_18 C 0.61127 0.99677 0.27493 0.0150 Uiso
H12_18 H 0.65560 0.98413 0.23609 0.0180 Uiso
O1_19 O 0.19048 0.61019 0.63401 0.0150 Uiso
O2_19 O 0.14765 0.59280 0.59429 0.0150 Uiso
O3_10 O 0.35289 0.44488 0.20613 0.0150 Uiso
O4_10 O 0.39056 0.46954 0.16510 0.0150 Uiso
N1_19 N 0.24994 0.67605 0.48127 0.0150 Uiso
N2_19 N 0.41221 0.58879 0.28896 0.0150 Uiso
C1_19 C 0.17698 0.61083 0.60153 0.0150 Uiso
C2_19 C 0.37735 0.46868 0.19765 0.0150 Uiso
C3_19 C 0.12255 0.66630 0.39433 0.0150 Uiso
C4_19 C 0.52353 0.63325 0.19088 0.0150 Uiso
C5_19 C 0.19632 0.63144 0.57193 0.0150 Uiso
C6_19 C 0.17738 0.64195 0.53936 0.0150 Uiso
C7_19 C 0.19775 0.65847 0.51102 0.0150 Uiso
C8_19 C 0.23557 0.66329 0.51349 0.0150 Uiso
C9_19 C 0.25491 0.65319 0.54527 0.0150 Uiso
C10_19 C 0.23495 0.63779 0.57480 0.0150 Uiso
C11_19 C 0.15481 0.67409 0.41798 0.0150 Uiso
C12_19 C 0.15482 0.66515 0.45610 0.0150 Uiso
C13_19 C 0.18798 0.66889 0.47564 0.0150 Uiso
C14_19 C 0.22031 0.67989 0.45856 0.0150 Uiso
C15_19 C 0.22076 0.68914 0.42106 0.0150 Uiso
C16_19 C 0.18773 0.68690 0.40110 0.0150 Uiso
C17_19 C 0.49352 0.62328 0.21652 0.0150 Uiso
C18_19 C 0.47442 0.58951 0.21228 0.0150 Uiso
C19_19 C 0.44779 0.58042 0.23850 0.0150 Uiso
C20_19 C 0.43937 0.60339 0.26773 0.0150 Uiso
C21_19 C 0.45709 0.63736 0.27209 0.0150 Uiso
C22_19 C 0.48415 0.64728 0.24611 0.0150 Uiso
C23_19 C 0.38873 0.49677 0.22507 0.0150 Uiso
C24_19 C 0.41823 0.52115 0.21723 0.0150 Uiso
C25_19 C 0.42445 0.55054 0.24127 0.0150 Uiso
C26_19 C 0.40311 0.55639 0.27234 0.0150 Uiso
C27_19 C 0.37432 0.53232 0.28135 0.0150 Uiso
C28_19 C 0.36735 0.50226 0.25761 0.0150 Uiso
C29_19 C 0.39535 0.60544 0.32066 0.0150 Uiso
C30_19 C 0.35816 0.61602 0.31950 0.0150 Uiso
C31_19 C 0.34138 0.63170 0.35047 0.0150 Uiso
C32_19 C 0.36161 0.63743 0.38325 0.0150 Uiso
C33_19 C 0.39948 0.62825 0.38361 0.0150 Uiso
C34_19 C 0.41610 0.61208 0.35264 0.0150 Uiso
C35_19 C 0.28666 0.66921 0.46766 0.0150 Uiso
C36_19 C 0.29866 0.63246 0.46509 0.0150 Uiso
C37_19 C 0.32597 0.62258 0.43973 0.0150 Uiso
C38_19 C 0.34215 0.64942 0.41667 0.0150 Uiso
C39_19 C 0.33300 0.68685 0.42245 0.0150 Uiso
C40_19 C 0.30511 0.69655 0.44738 0.0150 Uiso
H1_19 H 0.14808 0.63683 0.53607 0.0180 Uiso
H2_19 H 0.28456 0.65680 0.54719 0.0180 Uiso
H3_19 H 0.24990 0.62938 0.59935 0.0180 Uiso
H4_19 H 0.13037 0.65434 0.46955 0.0180 Uiso
H5_19 H 0.24589 0.69715 0.40705 0.0180 Uiso
H6_19 H 0.18837 0.69330 0.37186 0.0180 Uiso
H7_19 H 0.48070 0.57063 0.18992 0.0180 Uiso
H8_19 H 0.45045 0.65567 0.29481 0.0180 Uiso
H9_19 H 0.49781 0.67365 0.24905 0.0180 Uiso
H10_19 H 0.43455 0.51844 0.19228 0.0180 Uiso
H11_19 H 0.35703 0.53705 0.30529 0.0180 Uiso
H12_19 H 0.34440 0.48413 0.26391 0.0180 Uiso
H13_19 H 0.34183 0.61089 0.29495 0.0180 Uiso
H14_19 H 0.31207 0.63753 0.34917 0.0180 Uiso
H15_19 H 0.41609 0.63278 0.40807 0.0180 Uiso
H16_19 H 0.28430 0.61088 0.48006 0.0180 Uiso
H17_19 H 0.33186 0.59350 0.43601 0.0180 Uiso
H18_19 H 0.34556 0.70842 0.40593 0.0180 Uiso
H19_19 H 0.29568 0.72490 0.44849 0.0180 Uiso
H20_19 H 0.44664 0.60428 0.35341 0.0180 Uiso
O9_10 O 0.14711 0.55512 0.70613 0.0150 Uiso
O10_10 O 0.10944 0.53046 0.66510 0.0150 Uiso
O13_15 O 0.19914 0.54529 0.65956 0.0150 Uiso
O14_15 O 0.16086 0.52779 0.61543 0.0150 Uiso
O1_20 O 0.30952 0.38981 0.13401 0.0150 Uiso
O2_20 O 0.35235 0.40720 0.09429 0.0150 Uiso
C1_20 C 0.32302 0.38917 0.10153 0.0150 Uiso
C5_20 C 0.30368 0.36856 0.07193 0.0150 Uiso
C6_20 C 0.32262 0.35805 0.03936 0.0150 Uiso
C7_20 C 0.30225 0.34153 0.01102 0.0150 Uiso
C8_20 C 0.26443 0.33671 0.01349 0.0150 Uiso
C9_20 C 0.24509 0.34681 0.04527 0.0150 Uiso
C10_20 C 0.26505 0.36221 0.07480 0.0150 Uiso
H1_20 H 0.35192 0.36317 0.03607 0.0180 Uiso
H2_20 H 0.21544 0.34320 0.04719 0.0180 Uiso
H3_20 H 0.25010 0.37062 0.09935 0.0180 Uiso
O13_16 O 0.30086 0.45471 0.15956 0.0150 Uiso
O14_16 O 0.33914 0.47221 0.11543 0.0150 Uiso
N1_20 N 0.25006 0.32395 0.98127 0.0150 Uiso
N2_20 N 0.08779 0.41121 0.78896 0.0150 Uiso
C2_20 C 0.12265 0.53132 0.69765 0.0150 Uiso
C3_20 C 0.37745 0.33370 0.89433 0.0150 Uiso
C11_20 C 0.34519 0.32591 0.91798 0.0150 Uiso
C12_20 C 0.34518 0.33485 0.95610 0.0150 Uiso
C13_20 C 0.31202 0.33111 0.97564 0.0150 Uiso
C14_20 C 0.27969 0.32011 0.95856 0.0150 Uiso
C15_20 C 0.27924 0.31086 0.92106 0.0150 Uiso
C16_20 C 0.31227 0.31310 0.90110 0.0150 Uiso
C17_20 C 0.00648 0.37672 0.71652 0.0150 Uiso
C18_20 C 0.02558 0.41049 0.71228 0.0150 Uiso
C19_20 C 0.05221 0.41958 0.73850 0.0150 Uiso
C20_20 C 0.06063 0.39661 0.76773 0.0150 Uiso
C21_20 C 0.04291 0.36264 0.77209 0.0150 Uiso
C22_20 C 0.01585 0.35272 0.74611 0.0150 Uiso
C23_20 C 0.11127 0.50323 0.72507 0.0150 Uiso
C24_20 C 0.08177 0.47885 0.71723 0.0150 Uiso
C25_20 C 0.07555 0.44946 0.74127 0.0150 Uiso
C26_20 C 0.09689 0.44361 0.77234 0.0150 Uiso
C27_20 C 0.12568 0.46768 0.78135 0.0150 Uiso
C28_20 C 0.13265 0.49774 0.75761 0.0150 Uiso
C29_20 C 0.10465 0.39456 0.82066 0.0150 Uiso
C30_20 C 0.14184 0.38398 0.81950 0.0150 Uiso
C31_20 C 0.15862 0.36830 0.85047 0.0150 Uiso
C32_20 C 0.13839 0.36257 0.88325 0.0150 Uiso
C33_20 C 0.10052 0.37175 0.88361 0.0150 Uiso
C34_20 C 0.08390 0.38792 0.85264 0.0150 Uiso
C35_20 C 0.21334 0.33079 0.96766 0.0150 Uiso
C36_20 C 0.20134 0.36754 0.96509 0.0150 Uiso
C37_20 C 0.17403 0.37742 0.93973 0.0150 Uiso
C38_20 C 0.15785 0.35058 0.91667 0.0150 Uiso
C39_20 C 0.16700 0.31315 0.92245 0.0150 Uiso
C40_20 C 0.19489 0.30345 0.94738 0.0150 Uiso
H4_20 H 0.36963 0.34566 0.96955 0.0180 Uiso
H5_20 H 0.25411 0.30285 0.90705 0.0180 Uiso
H6_20 H 0.31163 0.30670 0.87186 0.0180 Uiso
H7_20 H 0.01930 0.42937 0.68992 0.0180 Uiso
H8_20 H 0.04955 0.34433 0.79481 0.0180 Uiso
H9_20 H 0.00219 0.32635 0.74905 0.0180 Uiso
H10_20 H 0.06545 0.48156 0.69228 0.0180 Uiso
H11_20 H 0.14297 0.46295 0.80529 0.0180 Uiso
H12_20 H 0.15560 0.51587 0.76391 0.0180 Uiso
H13_20 H 0.15817 0.38911 0.79495 0.0180 Uiso
H14_20 H 0.18793 0.36247 0.84917 0.0180 Uiso
H15_20 H 0.08391 0.36722 0.90807 0.0180 Uiso
H16_20 H 0.21570 0.38912 0.98006 0.0180 Uiso
H17_20 H 0.16814 0.40650 0.93601 0.0180 Uiso
H18_20 H 0.15444 0.29158 0.90593 0.0180 Uiso
H19_20 H 0.20432 0.27510 0.94849 0.0180 Uiso
H20_20 H 0.05336 0.39572 0.85341 0.0180 Uiso
C4_20 C 0.97647 0.36675 0.69088 0.0150 Uiso
C4_21 C 0.80912 0.02353 0.86675 0.0150 Uiso
O3_11 O 0.79387 0.85289 0.05512 0.0150 Uiso
O4_11 O 0.83490 0.89056 0.03046 0.0150 Uiso
C2_21 C 0.80235 0.87735 0.03132 0.0150 Uiso
C23_21 C 0.77493 0.88873 0.00323 0.0150 Uiso
H12_21 H 0.73609 0.84440 0.01587 0.0180 Uiso
O1_21 O 0.36599 0.69048 0.88981 0.0150 Uiso
O2_21 O 0.40571 0.64765 0.90720 0.0150 Uiso
N1_21 N 0.51873 0.74994 0.82395 0.0150 Uiso
N2_21 N 0.71104 0.91221 0.91121 0.0150 Uiso
C1_21 C 0.39847 0.67698 0.88917 0.0150 Uiso
C3_21 C 0.60567 0.62255 0.83370 0.0150 Uiso
C5_21 C 0.42807 0.69632 0.86856 0.0150 Uiso
C6_21 C 0.46064 0.67738 0.85805 0.0150 Uiso
C7_21 C 0.48898 0.69775 0.84153 0.0150 Uiso
C8_21 C 0.48651 0.73557 0.83671 0.0150 Uiso
C9_21 C 0.45473 0.75491 0.84681 0.0150 Uiso
C10_21 C 0.42520 0.73495 0.86221 0.0150 Uiso
C11_21 C 0.58202 0.65481 0.82591 0.0150 Uiso
C12_21 C 0.54390 0.65482 0.83485 0.0150 Uiso
C13_21 C 0.52436 0.68798 0.83111 0.0150 Uiso
C14_21 C 0.54144 0.72031 0.82011 0.0150 Uiso
C15_21 C 0.57894 0.72076 0.81086 0.0150 Uiso
C16_21 C 0.59890 0.68773 0.81310 0.0150 Uiso
C17_21 C 0.78348 0.99352 0.87672 0.0150 Uiso
C18_21 C 0.78772 0.97442 0.91049 0.0150 Uiso
C19_21 C 0.76150 0.94779 0.91958 0.0150 Uiso
C20_21 C 0.73227 0.93937 0.89661 0.0150 Uiso
C21_21 C 0.72791 0.95709 0.86264 0.0150 Uiso
C22_21 C 0.75389 0.98415 0.85272 0.0150 Uiso
C24_21 C 0.78277 0.91823 0.97885 0.0150 Uiso
C25_21 C 0.75873 0.92445 0.94946 0.0150 Uiso
C26_21 C 0.72766 0.90311 0.94361 0.0150 Uiso
C27_21 C 0.71865 0.87432 0.96768 0.0150 Uiso
C28_21 C 0.74239 0.86735 0.99774 0.0150 Uiso
C29_21 C 0.67934 0.89535 0.89456 0.0150 Uiso
C30_21 C 0.68050 0.85816 0.88398 0.0150 Uiso
C31_21 C 0.64953 0.84138 0.86830 0.0150 Uiso
C32_21 C 0.61675 0.86161 0.86257 0.0150 Uiso
C33_21 C 0.61639 0.89948 0.87175 0.0150 Uiso
C34_21 C 0.64736 0.91610 0.88792 0.0150 Uiso
C35_21 C 0.53234 0.78666 0.83079 0.0150 Uiso
C36_21 C 0.53491 0.79866 0.86754 0.0150 Uiso
C37_21 C 0.56027 0.82597 0.87742 0.0150 Uiso
C38_21 C 0.58333 0.84215 0.85058 0.0150 Uiso
C39_21 C 0.57755 0.83300 0.81315 0.0150 Uiso
C40_21 C 0.55262 0.80511 0.80345 0.0150 Uiso
H1_21 H 0.46393 0.64808 0.86317 0.0180 Uiso
H2_21 H 0.45281 0.78456 0.84320 0.0180 Uiso
H3_21 H 0.40065 0.74990 0.87062 0.0180 Uiso
H4_21 H 0.53045 0.63037 0.84566 0.0180 Uiso
H5_21 H 0.59295 0.74589 0.80285 0.0180 Uiso
H6_21 H 0.62814 0.68837 0.80670 0.0180 Uiso
H7_21 H 0.81008 0.98070 0.92937 0.0180 Uiso
H8_21 H 0.70519 0.95045 0.84433 0.0180 Uiso
H9_21 H 0.75095 0.99781 0.82635 0.0180 Uiso
H10_21 H 0.80772 0.93455 0.98156 0.0180 Uiso
H11_21 H 0.69471 0.85703 0.96295 0.0180 Uiso
H13_21 H 0.70505 0.84183 0.88911 0.0180 Uiso
H14_21 H 0.65083 0.81207 0.86247 0.0180 Uiso
H15_21 H 0.59193 0.91609 0.86722 0.0180 Uiso
H16_21 H 0.51994 0.78430 0.88912 0.0180 Uiso
H17_21 H 0.56399 0.83186 0.90650 0.0180 Uiso
H18_21 H 0.59407 0.84556 0.79158 0.0180 Uiso
H19_21 H 0.55151 0.79568 0.77510 0.0180 Uiso
H20_21 H 0.64659 0.94664 0.89572 0.0180 Uiso
O9_11 O 0.29387 0.64711 0.94488 0.0150 Uiso
O10_11 O 0.33490 0.60944 0.96954 0.0150 Uiso
N1_22 N 0.01873 0.75006 0.17605 0.0150 Uiso
N2_22 N 0.21104 0.58779 0.08879 0.0150 Uiso
C3_22 C 0.10567 0.87745 0.16630 0.0150 Uiso
C4_22 C 0.30912 0.47647 0.13325 0.0150 Uiso
C11_22 C 0.08202 0.84519 0.17409 0.0150 Uiso
C12_22 C 0.04390 0.84518 0.16515 0.0150 Uiso
C13_22 C 0.02436 0.81202 0.16889 0.0150 Uiso
C14_22 C 0.04144 0.77969 0.17989 0.0150 Uiso
C15_22 C 0.07894 0.77924 0.18914 0.0150 Uiso
C16_22 C 0.09890 0.81227 0.18690 0.0150 Uiso
C17_22 C 0.28348 0.50648 0.12328 0.0150 Uiso
C18_22 C 0.28772 0.52558 0.08951 0.0150 Uiso
C19_22 C 0.26150 0.55221 0.08042 0.0150 Uiso
C20_22 C 0.23227 0.56063 0.10339 0.0150 Uiso
C21_22 C 0.22791 0.54291 0.13736 0.0150 Uiso
C22_22 C 0.25389 0.51585 0.14728 0.0150 Uiso
C24_22 C 0.28277 0.58177 0.02115 0.0150 Uiso
C25_22 C 0.25873 0.57555 0.05054 0.0150 Uiso
C26_22 C 0.22766 0.59689 0.05639 0.0150 Uiso
C27_22 C 0.21865 0.62568 0.03232 0.0150 Uiso
C28_22 C 0.24239 0.63265 0.00226 0.0150 Uiso
C29_22 C 0.17934 0.60465 0.10544 0.0150 Uiso
C30_22 C 0.18050 0.64184 0.11602 0.0150 Uiso
C31_22 C 0.14953 0.65862 0.13170 0.0150 Uiso
C32_22 C 0.11675 0.63839 0.13743 0.0150 Uiso
C33_22 C 0.11639 0.60052 0.12825 0.0150 Uiso
C34_22 C 0.14736 0.58390 0.11208 0.0150 Uiso
C35_22 C 0.03234 0.71334 0.16921 0.0150 Uiso
C36_22 C 0.03491 0.70134 0.13246 0.0150 Uiso
C37_22 C 0.06027 0.67403 0.12258 0.0150 Uiso
C38_22 C 0.08333 0.65785 0.14942 0.0150 Uiso
C39_22 C 0.07755 0.66700 0.18685 0.0150 Uiso
C40_22 C 0.05262 0.69489 0.19655 0.0150 Uiso
H4_22 H 0.03045 0.86963 0.15434 0.0180 Uiso
H5_22 H 0.09295 0.75411 0.19715 0.0180 Uiso
H6_22 H 0.12814 0.81163 0.19330 0.0180 Uiso
H7_22 H 0.31008 0.51930 0.07063 0.0180 Uiso
H8_22 H 0.20519 0.54955 0.15567 0.0180 Uiso
H9_22 H 0.25095 0.50219 0.17365 0.0180 Uiso
H10_22 H 0.30772 0.56545 0.01844 0.0180 Uiso
H11_22 H 0.19471 0.64297 0.03705 0.0180 Uiso
H13_22 H 0.20505 0.65817 0.11089 0.0180 Uiso
H14_22 H 0.15083 0.68793 0.13753 0.0180 Uiso
H15_22 H 0.09193 0.58391 0.13278 0.0180 Uiso
H16_22 H 0.01994 0.71570 0.11088 0.0180 Uiso
H17_22 H 0.06399 0.66814 0.09350 0.0180 Uiso
H18_22 H 0.09407 0.65444 0.20842 0.0180 Uiso
H19_22 H 0.05151 0.70432 0.22490 0.0180 Uiso
H20_22 H 0.14659 0.55336 0.10428 0.0180 Uiso
C2_22 C 0.30235 0.62265 0.96868 0.0150 Uiso
C23_22 C 0.27493 0.61127 0.99677 0.0150 Uiso
H12_22 H 0.23609 0.65560 0.98413 0.0180 Uiso
O1_22 O 0.86599 0.80952 0.11019 0.0150 Uiso
O2_22 O 0.90571 0.85235 0.09280 0.0150 Uiso
C1_22 C 0.89847 0.82302 0.11083 0.0150 Uiso
C5_22 C 0.92807 0.80368 0.13144 0.0150 Uiso
C6_22 C 0.96064 0.82262 0.14195 0.0150 Uiso
C7_22 C 0.98898 0.80225 0.15847 0.0150 Uiso
C8_22 C 0.98651 0.76443 0.16329 0.0150 Uiso
C9_22 C 0.95473 0.74509 0.15319 0.0150 Uiso
C10_22 C 0.92520 0.76505 0.13779 0.0150 Uiso
H1_22 H 0.96393 0.85192 0.13683 0.0180 Uiso
H2_22 H 0.95281 0.71544 0.15680 0.0180 Uiso
H3_22 H 0.90065 0.75010 0.12938 0.0180 Uiso
O1_23 O 0.63401 0.19048 0.61019 0.0150 Uiso
O2_23 O 0.59429 0.14765 0.59280 0.0150 Uiso
O3_12 O 0.20613 0.35289 0.44488 0.0150 Uiso
O4_12 O 0.16510 0.39056 0.46954 0.0150 Uiso
N1_23 N 0.48127 0.24994 0.67605 0.0150 Uiso
N2_23 N 0.28896 0.41221 0.58879 0.0150 Uiso
C1_23 C 0.60153 0.17698 0.61083 0.0150 Uiso
C2_23 C 0.19765 0.37735 0.46868 0.0150 Uiso
C3_23 C 0.39433 0.12255 0.66630 0.0150 Uiso
C4_23 C 0.19088 0.52353 0.63325 0.0150 Uiso
C5_23 C 0.57193 0.19632 0.63144 0.0150 Uiso
C6_23 C 0.53936 0.17738 0.64195 0.0150 Uiso
C7_23 C 0.51102 0.19775 0.65847 0.0150 Uiso
C8_23 C 0.51349 0.23557 0.66329 0.0150 Uiso
C9_23 C 0.54527 0.25491 0.65319 0.0150 Uiso
C10_23 C 0.57480 0.23495 0.63779 0.0150 Uiso
C11_23 C 0.41798 0.15481 0.67409 0.0150 Uiso
C12_23 C 0.45610 0.15482 0.66515 0.0150 Uiso
C13_23 C 0.47564 0.18798 0.66889 0.0150 Uiso
C14_23 C 0.45856 0.22031 0.67989 0.0150 Uiso
C15_23 C 0.42106 0.22076 0.68914 0.0150 Uiso
C16_23 C 0.40110 0.18773 0.68690 0.0150 Uiso
C17_23 C 0.21652 0.49352 0.62328 0.0150 Uiso
C18_23 C 0.21228 0.47442 0.58951 0.0150 Uiso
C19_23 C 0.23850 0.44779 0.58042 0.0150 Uiso
C20_23 C 0.26773 0.43937 0.60339 0.0150 Uiso
C21_23 C 0.27209 0.45709 0.63736 0.0150 Uiso
C22_23 C 0.24611 0.48415 0.64728 0.0150 Uiso
C23_23 C 0.22507 0.38873 0.49677 0.0150 Uiso
C24_23 C 0.21723 0.41823 0.52115 0.0150 Uiso
C25_23 C 0.24127 0.42445 0.55054 0.0150 Uiso
C26_23 C 0.27234 0.40311 0.55639 0.0150 Uiso
C27_23 C 0.28135 0.37432 0.53232 0.0150 Uiso
C28_23 C 0.25761 0.36735 0.50226 0.0150 Uiso
C29_23 C 0.32066 0.39535 0.60544 0.0150 Uiso
C30_23 C 0.31950 0.35816 0.61602 0.0150 Uiso
C31_23 C 0.35047 0.34138 0.63170 0.0150 Uiso
C32_23 C 0.38325 0.36161 0.63743 0.0150 Uiso
C33_23 C 0.38361 0.39948 0.62825 0.0150 Uiso
C34_23 C 0.35264 0.41610 0.61208 0.0150 Uiso
C35_23 C 0.46766 0.28666 0.66921 0.0150 Uiso
C36_23 C 0.46509 0.29866 0.63246 0.0150 Uiso
C37_23 C 0.43973 0.32597 0.62258 0.0150 Uiso
C38_23 C 0.41667 0.34215 0.64942 0.0150 Uiso
C39_23 C 0.42245 0.33300 0.68685 0.0150 Uiso
C40_23 C 0.44738 0.30511 0.69655 0.0150 Uiso
H1_23 H 0.53607 0.14808 0.63683 0.0180 Uiso
H2_23 H 0.54719 0.28456 0.65680 0.0180 Uiso
H3_23 H 0.59935 0.24990 0.62938 0.0180 Uiso
H4_23 H 0.46955 0.13037 0.65434 0.0180 Uiso
H5_23 H 0.40705 0.24589 0.69715 0.0180 Uiso
H6_23 H 0.37186 0.18837 0.69330 0.0180 Uiso
H7_23 H 0.18992 0.48070 0.57063 0.0180 Uiso
H8_23 H 0.29481 0.45045 0.65567 0.0180 Uiso
H9_23 H 0.24905 0.49781 0.67365 0.0180 Uiso
H10_23 H 0.19228 0.43455 0.51844 0.0180 Uiso
H11_23 H 0.30529 0.35703 0.53705 0.0180 Uiso
H12_23 H 0.26391 0.34440 0.48413 0.0180 Uiso
H13_23 H 0.29495 0.34183 0.61089 0.0180 Uiso
H14_23 H 0.34917 0.31207 0.63753 0.0180 Uiso
H15_23 H 0.40807 0.41609 0.63278 0.0180 Uiso
H16_23 H 0.48006 0.28430 0.61088 0.0180 Uiso
H17_23 H 0.43601 0.33186 0.59350 0.0180 Uiso
H18_23 H 0.40593 0.34556 0.70842 0.0180 Uiso
H19_23 H 0.44849 0.29568 0.72490 0.0180 Uiso
H20_23 H 0.35341 0.44664 0.60428 0.0180 Uiso
O9_12 O 0.70613 0.14711 0.55512 0.0150 Uiso
O10_12 O 0.66510 0.10944 0.53046 0.0150 Uiso
O1_24 O 0.13401 0.30952 0.38981 0.0150 Uiso
O2_24 O 0.09429 0.35235 0.40720 0.0150 Uiso
C1_24 C 0.10153 0.32302 0.38917 0.0150 Uiso
C5_24 C 0.07193 0.30368 0.36856 0.0150 Uiso
C6_24 C 0.03936 0.32262 0.35805 0.0150 Uiso
C7_24 C 0.01102 0.30225 0.34153 0.0150 Uiso
C8_24 C 0.01349 0.26443 0.33671 0.0150 Uiso
C9_24 C 0.04527 0.24509 0.34681 0.0150 Uiso
C10_24 C 0.07480 0.26505 0.36221 0.0150 Uiso
H1_24 H 0.03607 0.35192 0.36317 0.0180 Uiso
H2_24 H 0.04719 0.21544 0.34320 0.0180 Uiso
H3_24 H 0.09935 0.25010 0.37062 0.0180 Uiso
N1_24 N 0.98127 0.25006 0.32395 0.0150 Uiso
N2_24 N 0.78896 0.08779 0.41121 0.0150 Uiso
C2_24 C 0.69765 0.12265 0.53132 0.0150 Uiso
C3_24 C 0.89433 0.37745 0.33370 0.0150 Uiso
C11_24 C 0.91798 0.34519 0.32591 0.0150 Uiso
C12_24 C 0.95610 0.34518 0.33485 0.0150 Uiso
C13_24 C 0.97564 0.31202 0.33111 0.0150 Uiso
C14_24 C 0.95856 0.27969 0.32011 0.0150 Uiso
C15_24 C 0.92106 0.27924 0.31086 0.0150 Uiso
C16_24 C 0.90110 0.31227 0.31310 0.0150 Uiso
C17_24 C 0.71652 0.00648 0.37672 0.0150 Uiso
C18_24 C 0.71228 0.02558 0.41049 0.0150 Uiso
C19_24 C 0.73850 0.05221 0.41958 0.0150 Uiso
C20_24 C 0.76773 0.06063 0.39661 0.0150 Uiso
C21_24 C 0.77209 0.04291 0.36264 0.0150 Uiso
C22_24 C 0.74611 0.01585 0.35272 0.0150 Uiso
C23_24 C 0.72507 0.11127 0.50323 0.0150 Uiso
C24_24 C 0.71723 0.08177 0.47885 0.0150 Uiso
C25_24 C 0.74127 0.07555 0.44946 0.0150 Uiso
C26_24 C 0.77234 0.09689 0.44361 0.0150 Uiso
C27_24 C 0.78135 0.12568 0.46768 0.0150 Uiso
C28_24 C 0.75761 0.13265 0.49774 0.0150 Uiso
C29_24 C 0.82066 0.10465 0.39456 0.0150 Uiso
C30_24 C 0.81950 0.14184 0.38398 0.0150 Uiso
C31_24 C 0.85047 0.15862 0.36830 0.0150 Uiso
C32_24 C 0.88325 0.13839 0.36257 0.0150 Uiso
C33_24 C 0.88361 0.10052 0.37175 0.0150 Uiso
C34_24 C 0.85264 0.08390 0.38792 0.0150 Uiso
C35_24 C 0.96766 0.21334 0.33079 0.0150 Uiso
C36_24 C 0.96509 0.20134 0.36754 0.0150 Uiso
C37_24 C 0.93973 0.17403 0.37742 0.0150 Uiso
C38_24 C 0.91667 0.15785 0.35058 0.0150 Uiso
C39_24 C 0.92245 0.16700 0.31315 0.0150 Uiso
C40_24 C 0.94738 0.19489 0.30345 0.0150 Uiso
H4_24 H 0.96955 0.36963 0.34566 0.0180 Uiso
H5_24 H 0.90705 0.25411 0.30285 0.0180 Uiso
H6_24 H 0.87186 0.31163 0.30670 0.0180 Uiso
H7_24 H 0.68992 0.01930 0.42937 0.0180 Uiso
H8_24 H 0.79481 0.04955 0.34433 0.0180 Uiso
H9_24 H 0.74905 0.00219 0.32635 0.0180 Uiso
H10_24 H 0.69228 0.06545 0.48156 0.0180 Uiso
H11_24 H 0.80529 0.14297 0.46295 0.0180 Uiso
H12_24 H 0.76391 0.15560 0.51587 0.0180 Uiso
H13_24 H 0.79495 0.15817 0.38911 0.0180 Uiso
H14_24 H 0.84917 0.18793 0.36247 0.0180 Uiso
H15_24 H 0.90807 0.08391 0.36722 0.0180 Uiso
H16_24 H 0.98006 0.21570 0.38912 0.0180 Uiso
H17_24 H 0.93601 0.16814 0.40650 0.0180 Uiso
H18_24 H 0.90593 0.15444 0.29158 0.0180 Uiso
H19_24 H 0.94849 0.20432 0.27510 0.0180 Uiso
H20_24 H 0.85341 0.05336 0.39572 0.0180 Uiso
C4_24 C 0.69088 0.97647 0.36675 0.0150 Uiso
loop_
_geom_bond_atom_site_label_1
_geom_bond_atom_site_label_2
_geom_bond_site_symmetry_1
_geom_bond_site_symmetry_2
Cu1 O1 1_555 1_555
Cu2 O2 1_555 1_555
O1 C1 1_555 1_555
O2 C1 1_555 1_555
O5 C3 1_555 1_555
O6 C3 1_555 1_555
N1 C8 1_555 1_555
N2 C20 1_555 1_555
C1 C5 1_555 1_555
C3 C11 1_555 1_555
C5 C6 1_555 1_555
C6 C7 1_555 1_555
C7 C8 1_555 1_555
C8 C9 1_555 1_555
C9 C10 1_555 1_555
C10 C5 1_555 1_555
C11 C12 1_555 1_555
C12 C13 1_555 1_555
C13 C7 1_555 1_555
C14 N1 1_555 1_555
C15 C14 1_555 1_555
C16 C11 1_555 1_555
C17 C18 1_555 1_555
C18 C19 1_555 1_555
C19 C20 1_555 1_555
C20 C21 1_555 1_555
C21 C22 1_555 1_555
C22 C17 1_555 1_555
C24 C25 1_555 1_555
C25 C19 1_555 1_555
C26 N2 1_555 1_555
C27 C26 1_555 1_555
C29 N2 1_555 1_555
C30 C29 1_555 1_555
C31 C30 1_555 1_555
C32 C31 1_555 1_555
C33 C32 1_555 1_555
C34 C29 1_555 1_555
C35 N1 1_555 1_555
C36 C35 1_555 1_555
C37 C36 1_555 1_555
C38 C32 1_555 1_555
C39 C38 1_555 1_555
C40 C35 1_555 1_555
H1 C6 1_555 1_555
H2 C9 1_555 1_555
H3 C10 1_555 1_555
H4 C12 1_555 1_555
H5 C15 1_555 1_555
H6 C16 1_555 1_555
H7 C18 1_555 1_555
H8 C21 1_555 1_555
H9 C22 1_555 1_555
H10 C24 1_555 1_555
H11 C27 1_555 1_555
H13 C30 1_555 1_555
H14 C31 1_555 1_555
H15 C33 1_555 1_555
H16 C36 1_555 1_555
H17 C37 1_555 1_555
H18 C39 1_555 1_555
H19 C40 1_555 1_555
H20 C34 1_555 1_555
Cu5 O5 1_555 1_555
Cu8 O6 1_555 1_555
O9 Cu1 1_555 1_555
O10 Cu2 1_555 1_555
O11 Cu1 1_555 1_555
O12 Cu2 1_555 1_555
O13 Cu1 1_555 1_555
O14 Cu2 1_555 1_555
C13 C14 1_555 1_555
C15 C16 1_555 1_555
C25 C26 1_555 1_555
C27 C28 1_555 1_555
C33 C34 1_555 1_555
C37 C38 1_555 1_555
C39 C40 1_555 1_555
O7 C4 1_555 1_555
O8 C4 1_555 1_555
Cu4 O7 1_555 1_555
Cu7 O8 1_555 1_555
O3 C2 1_555 1_555
O4 C2 1_555 1_555
C2 C23 1_555 1_555
Cu3 O3 1_555 1_555
Cu6 O4 1_555 1_555
Cu1_2 O1_2 1_555 1_555
Cu2_2 O2_2 1_555 1_555
O1_2 C1_2 1_555 1_555
O2_2 C1_2 1_555 1_555
O3_2 C2_2 1_555 1_555
O4_2 C2_2 1_555 1_555
O5_2 C3_2 1_555 1_555
O6_2 C3_2 1_555 1_555
O7_2 C4_2 1_555 1_555
O8_2 C4_2 1_555 1_555
N1_2 C8_2 1_555 1_555
N2_2 C20_2 1_555 1_555
C1_2 C5_2 1_555 1_555
C2_2 C23_2 1_555 1_555
C3_2 C11_2 1_555 1_555
C4_2 C17_2 1_555 1_555
C5_2 C6_2 1_555 1_555
C6_2 C7_2 1_555 1_555
C7_2 C8_2 1_555 1_555
C8_2 C9_2 1_555 1_555
C9_2 C10_2 1_555 1_555
C10_2 C5_2 1_555 1_555
C11_2 C12_2 1_555 1_555
C12_2 C13_2 1_555 1_555
C13_2 C7_2 1_555 1_555
C14_2 N1_2 1_555 1_555
C15_2 C14_2 1_555 1_555
C16_2 C11_2 1_555 1_555
C17_2 C18_2 1_555 1_555
C18_2 C19_2 1_555 1_555
C19_2 C20_2 1_555 1_555
C20_2 C21_2 1_555 1_555
C21_2 C22_2 1_555 1_555
C22_2 C17_2 1_555 1_555
C23_2 C24_2 1_555 1_555
C24_2 C25_2 1_555 1_555
C25_2 C19_2 1_555 1_555
C26_2 N2_2 1_555 1_555
C27_2 C26_2 1_555 1_555
C28_2 C23_2 1_555 1_555
C29_2 N2_2 1_555 1_555
C30_2 C29_2 1_555 1_555
C31_2 C30_2 1_555 1_555
C32_2 C31_2 1_555 1_555
C33_2 C32_2 1_555 1_555
C34_2 C29_2 1_555 1_555
C35_2 N1_2 1_555 1_555
C36_2 C35_2 1_555 1_555
C37_2 C36_2 1_555 1_555
C38_2 C32_2 1_555 1_555
C39_2 C38_2 1_555 1_555
C40_2 C35_2 1_555 1_555
H1_2 C6_2 1_555 1_555
H2_2 C9_2 1_555 1_555
H3_2 C10_2 1_555 1_555
H4_2 C12_2 1_555 1_555
H5_2 C15_2 1_555 1_555
H6_2 C16_2 1_555 1_555
H7_2 C18_2 1_555 1_555
H8_2 C21_2 1_555 1_555
H9_2 C22_2 1_555 1_555
H10_2 C24_2 1_555 1_555
H11_2 C27_2 1_555 1_555
H12_2 C28_2 1_555 1_555
H13_2 C30_2 1_555 1_555
H14_2 C31_2 1_555 1_555
H15_2 C33_2 1_555 1_555
H16_2 C36_2 1_555 1_555
H17_2 C37_2 1_555 1_555
H18_2 C39_2 1_555 1_555
H19_2 C40_2 1_555 1_555
H20_2 C34_2 1_555 1_555
Cu3_2 O3_2 1_555 1_555
Cu4_2 O7_2 1_555 1_555
Cu5_2 O5_2 1_555 1_555
Cu6_2 O4_2 1_555 1_555
Cu7_2 O8_2 1_555 1_555
Cu8_2 O6_2 1_555 1_555
O9_2 Cu1_2 1_555 1_555
O10_2 Cu2_2 1_555 1_555
O11_2 Cu1_2 1_555 1_555
O12_2 Cu2_2 1_555 1_555
O13_2 Cu1_2 1_555 1_555
O14_2 Cu2_2 1_555 1_555
C13_2 C14_2 1_555 1_555
C15_2 C16_2 1_555 1_555
C25_2 C26_2 1_555 1_555
C27_2 C28_2 1_555 1_555
C33_2 C34_2 1_555 1_555
C37_2 C38_2 1_555 1_555
C39_2 C40_2 1_555 1_555
O7_3 C4_3 1_555 1_555
O8_3 C4_3 1_555 1_555
Cu4_3 O7_3 1_555 1_555
Cu7_3 O8_3 1_555 1_555
O9_2 C2_3 1_555 1_555
O10_2 C2_3 1_555 1_555
O5_3 C3_3 1_555 1_555
O6_3 C3_3 1_555 1_555
N2_3 C20_3 1_555 1_555
C2_3 C23_3 1_555 1_555
C3_3 C11_3 1_555 1_555
C11_3 C12_3 1_555 1_555
C12_3 C13_3 1_555 1_555
C14_3 N1_3 1_555 1_555
C15_3 C14_3 1_555 1_555
C16_3 C11_3 1_555 1_555
C17_3 C18_3 1_555 1_555
C18_3 C19_3 1_555 1_555
C19_3 C20_3 1_555 1_555
C20_3 C21_3 1_555 1_555
C21_3 C22_3 1_555 1_555
C22_3 C17_3 1_555 1_555
C23_3 C24_3 1_555 1_555
C24_3 C25_3 1_555 1_555
C25_3 C19_3 1_555 1_555
C26_3 N2_3 1_555 1_555
C27_3 C26_3 1_555 1_555
C28_3 C23_3 1_555 1_555
C29_3 N2_3 1_555 1_555
C30_3 C29_3 1_555 1_555
C31_3 C30_3 1_555 1_555
C32_3 C31_3 1_555 1_555
C33_3 C32_3 1_555 1_555
C34_3 C29_3 1_555 1_555
C35_3 N1_3 1_555 1_555
C36_3 C35_3 1_555 1_555
C37_3 C36_3 1_555 1_555
C38_3 C32_3 1_555 1_555
C39_3 C38_3 1_555 1_555
C40_3 C35_3 1_555 1_555
H4_3 C12_3 1_555 1_555
H5_3 C15_3 1_555 1_555
H6_3 C16_3 1_555 1_555
H7_3 C18_3 1_555 1_555
H8_3 C21_3 1_555 1_555
H9_3 C22_3 1_555 1_555
H10_3 C24_3 1_555 1_555
H11_3 C27_3 1_555 1_555
H12_3 C28_3 1_555 1_555
H13_3 C30_3 1_555 1_555
H14_3 C31_3 1_555 1_555
H15_3 C33_3 1_555 1_555
H16_3 C36_3 1_555 1_555
H17_3 C37_3 1_555 1_555
H18_3 C39_3 1_555 1_555
H19_3 C40_3 1_555 1_555
H20_3 C34_3 1_555 1_555
Cu5_3 O5_3 1_555 1_555
Cu8_3 O6_3 1_555 1_555
C13_3 C14_3 1_555 1_555
C15_3 C16_3 1_555 1_555
C25_3 C26_3 1_555 1_555
C27_3 C28_3 1_555 1_555
C33_3 C34_3 1_555 1_555
C37_3 C38_3 1_555 1_555
C39_3 C40_3 1_555 1_555
Cu3_2 O1_3 1_555 1_555
Cu6_2 O2_3 1_555 1_555
O1_3 C1_3 1_555 1_555
O2_3 C1_3 1_555 1_555
C1_3 C5_3 1_555 1_555
C5_3 C6_3 1_555 1_555
C6_3 C7_3 1_555 1_555
C7_3 C8_3 1_555 1_555
C8_3 C9_3 1_555 1_555
C9_3 C10_3 1_555 1_555
C10_3 C5_3 1_555 1_555
H1_3 C6_3 1_555 1_555
H2_3 C9_3 1_555 1_555
H3_3 C10_3 1_555 1_555
O11_3 Cu3_2 1_555 1_555
O12_3 Cu6_2 1_555 1_555
O13_3 Cu3_2 1_555 1_555
O14_3 Cu6_2 1_555 1_555
O9 C2_4 1_555 1_555
O10 C2_4 1_555 1_555
C2_4 C23_4 1_555 1_555
Cu3 O1_4 1_555 1_555
Cu6 O2_4 1_555 1_555
O1_4 C1_4 1_555 1_555
O2_4 C1_4 1_555 1_555
C1_4 C5_4 1_555 1_555
C5_4 C6_4 1_555 1_555
C6_4 C7_4 1_555 1_555
C7_4 C8_4 1_555 1_555
C8_4 C9_4 1_555 1_555
C9_4 C10_4 1_555 1_555
C10_4 C5_4 1_555 1_555
H1_4 C6_4 1_555 1_555
H2_4 C9_4 1_555 1_555
H3_4 C10_4 1_555 1_555
O11_4 Cu3 1_555 1_555
O12_4 Cu6 1_555 1_555
O13_4 Cu3 1_555 1_555
O14_4 Cu6 1_555 1_555
O5_4 C3_4 1_555 1_555
O6_4 C3_4 1_555 1_555
O7_4 C4_4 1_555 1_555
O8_4 C4_4 1_555 1_555
N2_4 C20_4 1_555 1_555
C3_4 C11_4 1_555 1_555
C4_4 C17_4 1_555 1_555
C11_4 C12_4 1_555 1_555
C12_4 C13_4 1_555 1_555
C14_4 N1_4 1_555 1_555
C15_4 C14_4 1_555 1_555
C16_4 C11_4 1_555 1_555
C17_4 C18_4 1_555 1_555
C18_4 C19_4 1_555 1_555
C19_4 C20_4 1_555 1_555
C20_4 C21_4 1_555 1_555
C21_4 C22_4 1_555 1_555
C22_4 C17_4 1_555 1_555
C24_4 C25_4 1_555 1_555
C25_4 C19_4 1_555 1_555
C26_4 N2_4 1_555 1_555
C27_4 C26_4 1_555 1_555
C29_4 N2_4 1_555 1_555
C30_4 C29_4 1_555 1_555
C31_4 C30_4 1_555 1_555
C32_4 C31_4 1_555 1_555
C33_4 C32_4 1_555 1_555
C34_4 C29_4 1_555 1_555
C35_4 N1_4 1_555 1_555
C36_4 C35_4 1_555 1_555
C37_4 C36_4 1_555 1_555
C38_4 C32_4 1_555 1_555
C39_4 C38_4 1_555 1_555
C40_4 C35_4 1_555 1_555
H4_4 C12_4 1_555 1_555
H5_4 C15_4 1_555 1_555
H6_4 C16_4 1_555 1_555
H7_4 C18_4 1_555 1_555
H8_4 C21_4 1_555 1_555
H9_4 C22_4 1_555 1_555
H10_4 C24_4 1_555 1_555
H11_4 C27_4 1_555 1_555
H13_4 C30_4 1_555 1_555
H14_4 C31_4 1_555 1_555
H15_4 C33_4 1_555 1_555
H16_4 C36_4 1_555 1_555
H17_4 C37_4 1_555 1_555
H18_4 C39_4 1_555 1_555
H19_4 C40_4 1_555 1_555
H20_4 C34_4 1_555 1_555
Cu4_4 O7_4 1_555 1_555
Cu5_4 O5_4 1_555 1_555
Cu7_4 O8_4 1_555 1_555
Cu8_4 O6_4 1_555 1_555
C13_4 C14_4 1_555 1_555
C15_4 C16_4 1_555 1_555
C25_4 C26_4 1_555 1_555
C27_4 C28_4 1_555 1_555
C33_4 C34_4 1_555 1_555
C37_4 C38_4 1_555 1_555
C39_4 C40_4 1_555 1_555
Cu1_3 O1_5 1_555 1_555
Cu2_3 O2_5 1_555 1_555
O1_5 C1_5 1_555 1_555
O2_5 C1_5 1_555 1_555
O5_5 C3_5 1_555 1_555
O6_5 C3_5 1_555 1_555
N1_5 C8_5 1_555 1_555
N2_5 C20_5 1_555 1_555
C1_5 C5_5 1_555 1_555
C3_5 C11_5 1_555 1_555
C5_5 C6_5 1_555 1_555
C6_5 C7_5 1_555 1_555
C7_5 C8_5 1_555 1_555
C8_5 C9_5 1_555 1_555
C9_5 C10_5 1_555 1_555
C10_5 C5_5 1_555 1_555
C11_5 C12_5 1_555 1_555
C12_5 C13_5 1_555 1_555
C13_5 C7_5 1_555 1_555
C14_5 N1_5 1_555 1_555
C15_5 C14_5 1_555 1_555
C16_5 C11_5 1_555 1_555
C17_5 C18_5 1_555 1_555
C18_5 C19_5 1_555 1_555
C19_5 C20_5 1_555 1_555
C20_5 C21_5 1_555 1_555
C21_5 C22_5 1_555 1_555
C22_5 C17_5 1_555 1_555
C24_5 C25_5 1_555 1_555
C25_5 C19_5 1_555 1_555
C26_5 N2_5 1_555 1_555
C27_5 C26_5 1_555 1_555
C29_5 N2_5 1_555 1_555
C30_5 C29_5 1_555 1_555
C31_5 C30_5 1_555 1_555
C32_5 C31_5 1_555 1_555
C33_5 C32_5 1_555 1_555
C34_5 C29_5 1_555 1_555
C35_5 N1_5 1_555 1_555
C36_5 C35_5 1_555 1_555
C37_5 C36_5 1_555 1_555
C38_5 C32_5 1_555 1_555
C39_5 C38_5 1_555 1_555
C40_5 C35_5 1_555 1_555
H1_5 C6_5 1_555 1_555
H2_5 C9_5 1_555 1_555
H3_5 C10_5 1_555 1_555
H4_5 C12_5 1_555 1_555
H5_5 C15_5 1_555 1_555
H6_5 C16_5 1_555 1_555
H7_5 C18_5 1_555 1_555
H8_5 C21_5 1_555 1_555
H9_5 C22_5 1_555 1_555
H10_5 C24_5 1_555 1_555
H11_5 C27_5 1_555 1_555
H13_5 C30_5 1_555 1_555
H14_5 C31_5 1_555 1_555
H15_5 C33_5 1_555 1_555
H16_5 C36_5 1_555 1_555
H17_5 C37_5 1_555 1_555
H18_5 C39_5 1_555 1_555
H19_5 C40_5 1_555 1_555
H20_5 C34_5 1_555 1_555
Cu5_5 O5_5 1_555 1_555
Cu8_5 O6_5 1_555 1_555
O9_3 Cu1_3 1_555 1_555
O10_3 Cu2_3 1_555 1_555
O11_5 Cu1_3 1_555 1_555
O12_5 Cu2_3 1_555 1_555
O13_5 Cu1_3 1_555 1_555
O14_5 Cu2_3 1_555 1_555
C13_5 C14_5 1_555 1_555
C15_5 C16_5 1_555 1_555
C25_5 C26_5 1_555 1_555
C27_5 C28_5 1_555 1_555
C33_5 C34_5 1_555 1_555
C37_5 C38_5 1_555 1_555
C39_5 C40_5 1_555 1_555
O3_3 C2_5 1_555 1_555
O4_3 C2_5 1_555 1_555
C2_5 C23_5 1_555 1_555
Cu3_3 O3_3 1_555 1_555
Cu6_3 O4_3 1_555 1_555
O13_4 C4_5 1_555 1_555
O14_4 C4_5 1_555 1_555
O9_3 C2_6 1_555 1_555
O10_3 C2_6 1_555 1_555
C2_6 C23_6 1_555 1_555
Cu3_3 O1_6 1_555 1_555
Cu6_3 O2_6 1_555 1_555
O1_6 C1_6 1_555 1_555
O2_6 C1_6 1_555 1_555
C1_6 C5_6 1_555 1_555
C5_6 C6_6 1_555 1_555
C6_6 C7_6 1_555 1_555
C7_6 C8_6 1_555 1_555
C8_6 C9_6 1_555 1_555
C9_6 C10_6 1_555 1_555
C10_6 C5_6 1_555 1_555
H1_6 C6_6 1_555 1_555
H2_6 C9_6 1_555 1_555
H3_6 C10_6 1_555 1_555
O11_6 Cu3_3 1_555 1_555
O12_6 Cu6_3 1_555 1_555
O13_6 Cu3_3 1_555 1_555
O14_6 Cu6_3 1_555 1_555
O5_6 C3_6 1_555 1_555
O6_6 C3_6 1_555 1_555
O13_3 C4_6 1_555 1_555
O14_3 C4_6 1_555 1_555
N2_6 C20_6 1_555 1_555
C3_6 C11_6 1_555 1_555
C4_6 C17_6 1_555 1_555
C11_6 C12_6 1_555 1_555
C12_6 C13_6 1_555 1_555
C14_6 N1_6 1_555 1_555
C15_6 C14_6 1_555 1_555
C16_6 C11_6 1_555 1_555
C17_6 C18_6 1_555 1_555
C18_6 C19_6 1_555 1_555
C19_6 C20_6 1_555 1_555
C20_6 C21_6 1_555 1_555
C21_6 C22_6 1_555 1_555
C22_6 C17_6 1_555 1_555
C24_6 C25_6 1_555 1_555
C25_6 C19_6 1_555 1_555
C26_6 N2_6 1_555 1_555
C27_6 C26_6 1_555 1_555
C29_6 N2_6 1_555 1_555
C30_6 C29_6 1_555 1_555
C31_6 C30_6 1_555 1_555
C32_6 C31_6 1_555 1_555
C33_6 C32_6 1_555 1_555
C34_6 C29_6 1_555 1_555
C35_6 N1_6 1_555 1_555
C36_6 C35_6 1_555 1_555
C37_6 C36_6 1_555 1_555
C38_6 C32_6 1_555 1_555
C39_6 C38_6 1_555 1_555
C40_6 C35_6 1_555 1_555
H4_6 C12_6 1_555 1_555
H5_6 C15_6 1_555 1_555
H6_6 C16_6 1_555 1_555
H7_6 C18_6 1_555 1_555
H8_6 C21_6 1_555 1_555
H9_6 C22_6 1_555 1_555
H10_6 C24_6 1_555 1_555
H11_6 C27_6 1_555 1_555
H13_6 C30_6 1_555 1_555
H14_6 C31_6 1_555 1_555
H15_6 C33_6 1_555 1_555
H16_6 C36_6 1_555 1_555
H17_6 C37_6 1_555 1_555
H18_6 C39_6 1_555 1_555
H19_6 C40_6 1_555 1_555
H20_6 C34_6 1_555 1_555
Cu5_6 O5_6 1_555 1_555
Cu8_6 O6_6 1_555 1_555
C13_6 C14_6 1_555 1_555
C15_6 C16_6 1_555 1_555
C25_6 C26_6 1_555 1_555
C27_6 C28_6 1_555 1_555
C33_6 C34_6 1_555 1_555
C37_6 C38_6 1_555 1_555
C39_6 C40_6 1_555 1_555
Cu1_4 O1_7 1_555 1_555
Cu2_4 O2_7 1_555 1_555
O1_7 C1_7 1_555 1_555
O2_7 C1_7 1_555 1_555
O3_4 C2_7 1_555 1_555
O4_4 C2_7 1_555 1_555
O5_7 C3_7 1_555 1_555
O6_7 C3_7 1_555 1_555
O13_2 C4_7 1_555 1_555
O14_2 C4_7 1_555 1_555
N1_7 C8_7 1_555 1_555
N2_7 C20_7 1_555 1_555
C1_7 C5_7 1_555 1_555
C2_7 C23_7 1_555 1_555
C3_7 C11_7 1_555 1_555
C4_7 C17_7 1_555 1_555
C5_7 C6_7 1_555 1_555
C6_7 C7_7 1_555 1_555
C7_7 C8_7 1_555 1_555
C8_7 C9_7 1_555 1_555
C9_7 C10_7 1_555 1_555
C10_7 C5_7 1_555 1_555
C11_7 C12_7 1_555 1_555
C12_7 C13_7 1_555 1_555
C13_7 C7_7 1_555 1_555
C14_7 N1_7 1_555 1_555
C15_7 C14_7 1_555 1_555
C16_7 C11_7 1_555 1_555
C17_7 C18_7 1_555 1_555
C18_7 C19_7 1_555 1_555
C19_7 C20_7 1_555 1_555
C20_7 C21_7 1_555 1_555
C21_7 C22_7 1_555 1_555
C22_7 C17_7 1_555 1_555
C23_7 C24_7 1_555 1_555
C24_7 C25_7 1_555 1_555
C25_7 C19_7 1_555 1_555
C26_7 N2_7 1_555 1_555
C27_7 C26_7 1_555 1_555
C28_7 C23_7 1_555 1_555
C29_7 N2_7 1_555 1_555
C30_7 C29_7 1_555 1_555
C31_7 C30_7 1_555 1_555
C32_7 C31_7 1_555 1_555
C33_7 C32_7 1_555 1_555
C34_7 C29_7 1_555 1_555
C35_7 N1_7 1_555 1_555
C36_7 C35_7 1_555 1_555
C37_7 C36_7 1_555 1_555
C38_7 C32_7 1_555 1_555
C39_7 C38_7 1_555 1_555
C40_7 C35_7 1_555 1_555
H1_7 C6_7 1_555 1_555
H2_7 C9_7 1_555 1_555
H3_7 C10_7 1_555 1_555
H4_7 C12_7 1_555 1_555
H5_7 C15_7 1_555 1_555
H6_7 C16_7 1_555 1_555
H7_7 C18_7 1_555 1_555
H8_7 C21_7 1_555 1_555
H9_7 C22_7 1_555 1_555
H10_7 C24_7 1_555 1_555
H11_7 C27_7 1_555 1_555
H12_7 C28_7 1_555 1_555
H13_7 C30_7 1_555 1_555
H14_7 C31_7 1_555 1_555
H15_7 C33_7 1_555 1_555
H16_7 C36_7 1_555 1_555
H17_7 C37_7 1_555 1_555
H18_7 C39_7 1_555 1_555
H19_7 C40_7 1_555 1_555
H20_7 C34_7 1_555 1_555
Cu3_4 O3_4 1_555 1_555
Cu5_7 O5_7 1_555 1_555
Cu6_4 O4_4 1_555 1_555
Cu8_7 O6_7 1_555 1_555
O9_4 Cu1_4 1_555 1_555
O10_4 Cu2_4 1_555 1_555
O11_7 Cu1_4 1_555 1_555
O12_7 Cu2_4 1_555 1_555
O13_7 Cu1_4 1_555 1_555
O14_7 Cu2_4 1_555 1_555
C13_7 C14_7 1_555 1_555
C15_7 C16_7 1_555 1_555
C25_7 C26_7 1_555 1_555
C27_7 C28_7 1_555 1_555
C33_7 C34_7 1_555 1_555
C37_7 C38_7 1_555 1_555
C39_7 C40_7 1_555 1_555
O13 C4_8 1_555 1_555
O14 C4_8 1_555 1_555
O9_4 C2_8 1_555 1_555
O10_4 C2_8 1_555 1_555
O5_8 C3_8 1_555 1_555
O6_8 C3_8 1_555 1_555
N2_8 C20_8 1_555 1_555
C2_8 C23_8 1_555 1_555
C3_8 C11_8 1_555 1_555
C11_8 C12_8 1_555 1_555
C12_8 C13_8 1_555 1_555
C14_8 N1_8 1_555 1_555
C15_8 C14_8 1_555 1_555
C16_8 C11_8 1_555 1_555
C17_8 C18_8 1_555 1_555
C18_8 C19_8 1_555 1_555
C19_8 C20_8 1_555 1_555
C20_8 C21_8 1_555 1_555
C21_8 C22_8 1_555 1_555
C22_8 C17_8 1_555 1_555
C23_8 C24_8 1_555 1_555
C24_8 C25_8 1_555 1_555
C25_8 C19_8 1_555 1_555
C26_8 N2_8 1_555 1_555
C27_8 C26_8 1_555 1_555
C28_8 C23_8 1_555 1_555
C29_8 N2_8 1_555 1_555
C30_8 C29_8 1_555 1_555
C31_8 C30_8 1_555 1_555
C32_8 C31_8 1_555 1_555
C33_8 C32_8 1_555 1_555
C34_8 C29_8 1_555 1_555
C35_8 N1_8 1_555 1_555
C36_8 C35_8 1_555 1_555
C37_8 C36_8 1_555 1_555
C38_8 C32_8 1_555 1_555
C39_8 C38_8 1_555 1_555
C40_8 C35_8 1_555 1_555
H4_8 C12_8 1_555 1_555
H5_8 C15_8 1_555 1_555
H6_8 C16_8 1_555 1_555
H7_8 C18_8 1_555 1_555
H8_8 C21_8 1_555 1_555
H9_8 C22_8 1_555 1_555
H10_8 C24_8 1_555 1_555
H11_8 C27_8 1_555 1_555
H12_8 C28_8 1_555 1_555
H13_8 C30_8 1_555 1_555
H14_8 C31_8 1_555 1_555
H15_8 C33_8 1_555 1_555
H16_8 C36_8 1_555 1_555
H17_8 C37_8 1_555 1_555
H18_8 C39_8 1_555 1_555
H19_8 C40_8 1_555 1_555
H20_8 C34_8 1_555 1_555
Cu5_8 O5_8 1_555 1_555
Cu8_8 O6_8 1_555 1_555
C13_8 C14_8 1_555 1_555
C15_8 C16_8 1_555 1_555
C25_8 C26_8 1_555 1_555
C27_8 C28_8 1_555 1_555
C33_8 C34_8 1_555 1_555
C37_8 C38_8 1_555 1_555
C39_8 C40_8 1_555 1_555
Cu3_4 O1_8 1_555 1_555
Cu6_4 O2_8 1_555 1_555
O1_8 C1_8 1_555 1_555
O2_8 C1_8 1_555 1_555
C1_8 C5_8 1_555 1_555
C5_8 C6_8 1_555 1_555
C6_8 C7_8 1_555 1_555
C7_8 C8_8 1_555 1_555
C8_8 C9_8 1_555 1_555
C9_8 C10_8 1_555 1_555
C10_8 C5_8 1_555 1_555
H1_8 C6_8 1_555 1_555
H2_8 C9_8 1_555 1_555
H3_8 C10_8 1_555 1_555
O11_8 Cu3_4 1_555 1_555
O12_8 Cu6_4 1_555 1_555
O13_8 Cu3_4 1_555 1_555
O14_8 Cu6_4 1_555 1_555
Cu4_3 O1_9 1_555 1_555
Cu7_3 O2_9 1_555 1_555
O1_9 C1_9 1_555 1_555
O2_9 C1_9 1_555 1_555
O5_9 C3_9 1_555 1_555
O6_9 C3_9 1_555 1_555
N1_9 C8_9 1_555 1_555
N2_9 C20_9 1_555 1_555
C1_9 C5_9 1_555 1_555
C3_9 C11_9 1_555 1_555
C5_9 C6_9 1_555 1_555
C6_9 C7_9 1_555 1_555
C7_9 C8_9 1_555 1_555
C8_9 C9_9 1_555 1_555
C9_9 C10_9 1_555 1_555
C10_9 C5_9 1_555 1_555
C11_9 C12_9 1_555 1_555
C12_9 C13_9 1_555 1_555
C13_9 C7_9 1_555 1_555
C14_9 N1_9 1_555 1_555
C15_9 C14_9 1_555 1_555
C16_9 C11_9 1_555 1_555
C17_9 C18_9 1_555 1_555
C18_9 C19_9 1_555 1_555
C19_9 C20_9 1_555 1_555
C20_9 C21_9 1_555 1_555
C21_9 C22_9 1_555 1_555
C22_9 C17_9 1_555 1_555
C24_9 C25_9 1_555 1_555
C25_9 C19_9 1_555 1_555
C26_9 N2_9 1_555 1_555
C27_9 C26_9 1_555 1_555
C29_9 N2_9 1_555 1_555
C30_9 C29_9 1_555 1_555
C31_9 C30_9 1_555 1_555
C32_9 C31_9 1_555 1_555
C33_9 C32_9 1_555 1_555
C34_9 C29_9 1_555 1_555
C35_9 N1_9 1_555 1_555
C36_9 C35_9 1_555 1_555
C37_9 C36_9 1_555 1_555
C38_9 C32_9 1_555 1_555
C39_9 C38_9 1_555 1_555
C40_9 C35_9 1_555 1_555
H1_9 C6_9 1_555 1_555
H2_9 C9_9 1_555 1_555
H3_9 C10_9 1_555 1_555
H4_9 C12_9 1_555 1_555
H5_9 C15_9 1_555 1_555
H6_9 C16_9 1_555 1_555
H7_9 C18_9 1_555 1_555
H8_9 C21_9 1_555 1_555
H9_9 C22_9 1_555 1_555
H10_9 C24_9 1_555 1_555
H11_9 C27_9 1_555 1_555
H13_9 C30_9 1_555 1_555
H14_9 C31_9 1_555 1_555
H15_9 C33_9 1_555 1_555
H16_9 C36_9 1_555 1_555
H17_9 C37_9 1_555 1_555
H18_9 C39_9 1_555 1_555
H19_9 C40_9 1_555 1_555
H20_9 C34_9 1_555 1_555
Cu5_9 O5_9 1_555 1_555
Cu8_9 O6_9 1_555 1_555
O9_5 Cu4_3 1_555 1_555
O10_5 Cu7_3 1_555 1_555
O11_9 Cu4_3 1_555 1_555
O12_9 Cu7_3 1_555 1_555
C13_9 C14_9 1_555 1_555
C15_9 C16_9 1_555 1_555
C25_9 C26_9 1_555 1_555
C27_9 C28_9 1_555 1_555
C33_9 C34_9 1_555 1_555
C37_9 C38_9 1_555 1_555
C39_9 C40_9 1_555 1_555
O3_5 C2_9 1_555 1_555
O4_5 C2_9 1_555 1_555
C2_9 C23_9 1_555 1_555
Cu4 O3_5 1_555 1_555
Cu7 O4_5 1_555 1_555
O13_6 C4_9 1_555 1_555
O14_6 C4_9 1_555 1_555
Cu4 O1_10 1_555 1_555
Cu7 O2_10 1_555 1_555
O1_10 C1_10 1_555 1_555
O2_10 C1_10 1_555 1_555
C1_10 C5_10 1_555 1_555
C5_10 C6_10 1_555 1_555
C6_10 C7_10 1_555 1_555
C7_10 C8_10 1_555 1_555
C8_10 C9_10 1_555 1_555
C9_10 C10_10 1_555 1_555
C10_10 C5_10 1_555 1_555
H1_10 C6_10 1_555 1_555
H2_10 C9_10 1_555 1_555
H3_10 C10_10 1_555 1_555
O11_10 Cu4 1_555 1_555
O12_10 Cu7 1_555 1_555
O9_5 C2_10 1_555 1_555
O10_5 C2_10 1_555 1_555
C2_10 C23_10 1_555 1_555
O5_10 C3_10 1_555 1_555
O6_10 C3_10 1_555 1_555
O13_8 C4_10 1_555 1_555
O14_8 C4_10 1_555 1_555
N2_10 C20_10 1_555 1_555
C3_10 C11_10 1_555 1_555
C4_10 C17_10 1_555 1_555
C11_10 C12_10 1_555 1_555
C12_10 C13_10 1_555 1_555
C14_10 N1_10 1_555 1_555
C15_10 C14_10 1_555 1_555
C16_10 C11_10 1_555 1_555
C17_10 C18_10 1_555 1_555
C18_10 C19_10 1_555 1_555
C19_10 C20_10 1_555 1_555
C20_10 C21_10 1_555 1_555
C21_10 C22_10 1_555 1_555
C22_10 C17_10 1_555 1_555
C24_10 C25_10 1_555 1_555
C25_10 C19_10 1_555 1_555
C26_10 N2_10 1_555 1_555
C27_10 C26_10 1_555 1_555
C29_10 N2_10 1_555 1_555
C30_10 C29_10 1_555 1_555
C31_10 C30_10 1_555 1_555
C32_10 C31_10 1_555 1_555
C33_10 C32_10 1_555 1_555
C34_10 C29_10 1_555 1_555
C35_10 N1_10 1_555 1_555
C36_10 C35_10 1_555 1_555
C37_10 C36_10 1_555 1_555
C38_10 C32_10 1_555 1_555
C39_10 C38_10 1_555 1_555
C40_10 C35_10 1_555 1_555
H4_10 C12_10 1_555 1_555
H5_10 C15_10 1_555 1_555
H6_10 C16_10 1_555 1_555
H7_10 C18_10 1_555 1_555
H8_10 C21_10 1_555 1_555
H9_10 C22_10 1_555 1_555
H10_10 C24_10 1_555 1_555
H11_10 C27_10 1_555 1_555
H13_10 C30_10 1_555 1_555
H14_10 C31_10 1_555 1_555
H15_10 C33_10 1_555 1_555
H16_10 C36_10 1_555 1_555
H17_10 C37_10 1_555 1_555
H18_10 C39_10 1_555 1_555
H19_10 C40_10 1_555 1_555
H20_10 C34_10 1_555 1_555
Cu5_10 O5_10 1_555 1_555
Cu8_10 O6_10 1_555 1_555
C13_10 C14_10 1_555 1_555
C15_10 C16_10 1_555 1_555
C25_10 C26_10 1_555 1_555
C27_10 C28_10 1_555 1_555
C33_10 C34_10 1_555 1_555
C37_10 C38_10 1_555 1_555
C39_10 C40_10 1_555 1_555
Cu4_2 O1_11 1_555 1_555
Cu7_2 O2_11 1_555 1_555
O1_11 C1_11 1_555 1_555
O2_11 C1_11 1_555 1_555
O3_6 C2_11 1_555 1_555
O4_6 C2_11 1_555 1_555
O5_11 C3_11 1_555 1_555
O6_11 C3_11 1_555 1_555
O13_7 C4_11 1_555 1_555
O14_7 C4_11 1_555 1_555
N1_11 C8_11 1_555 1_555
N2_11 C20_11 1_555 1_555
C1_11 C5_11 1_555 1_555
C2_11 C23_11 1_555 1_555
C3_11 C11_11 1_555 1_555
C4_11 C17_11 1_555 1_555
C5_11 C6_11 1_555 1_555
C6_11 C7_11 1_555 1_555
C7_11 C8_11 1_555 1_555
C8_11 C9_11 1_555 1_555
C9_11 C10_11 1_555 1_555
C10_11 C5_11 1_555 1_555
C11_11 C12_11 1_555 1_555
C12_11 C13_11 1_555 1_555
C13_11 C7_11 1_555 1_555
C14_11 N1_11 1_555 1_555
C15_11 C14_11 1_555 1_555
C16_11 C11_11 1_555 1_555
C17_11 C18_11 1_555 1_555
C18_11 C19_11 1_555 1_555
C19_11 C20_11 1_555 1_555
C20_11 C21_11 1_555 1_555
C21_11 C22_11 1_555 1_555
C22_11 C17_11 1_555 1_555
C23_11 C24_11 1_555 1_555
C24_11 C25_11 1_555 1_555
C25_11 C19_11 1_555 1_555
C26_11 N2_11 1_555 1_555
C27_11 C26_11 1_555 1_555
C28_11 C23_11 1_555 1_555
C29_11 N2_11 1_555 1_555
C30_11 C29_11 1_555 1_555
C31_11 C30_11 1_555 1_555
C32_11 C31_11 1_555 1_555
C33_11 C32_11 1_555 1_555
C34_11 C29_11 1_555 1_555
C35_11 N1_11 1_555 1_555
C36_11 C35_11 1_555 1_555
C37_11 C36_11 1_555 1_555
C38_11 C32_11 1_555 1_555
C39_11 C38_11 1_555 1_555
C40_11 C35_11 1_555 1_555
H1_11 C6_11 1_555 1_555
H2_11 C9_11 1_555 1_555
H3_11 C10_11 1_555 1_555
H4_11 C12_11 1_555 1_555
H5_11 C15_11 1_555 1_555
H6_11 C16_11 1_555 1_555
H7_11 C18_11 1_555 1_555
H8_11 C21_11 1_555 1_555
H9_11 C22_11 1_555 1_555
H10_11 C24_11 1_555 1_555
H11_11 C27_11 1_555 1_555
H12_11 C28_11 1_555 1_555
H13_11 C30_11 1_555 1_555
H14_11 C31_11 1_555 1_555
H15_11 C33_11 1_555 1_555
H16_11 C36_11 1_555 1_555
H17_11 C37_11 1_555 1_555
H18_11 C39_11 1_555 1_555
H19_11 C40_11 1_555 1_555
H20_11 C34_11 1_555 1_555
Cu4_4 O3_6 1_555 1_555
Cu5_11 O5_11 1_555 1_555
Cu7_4 O4_6 1_555 1_555
Cu8_11 O6_11 1_555 1_555
O9_6 Cu4_2 1_555 1_555
O10_6 Cu7_2 1_555 1_555
O11_11 Cu4_2 1_555 1_555
O12_11 Cu7_2 1_555 1_555
C13_11 C14_11 1_555 1_555
C15_11 C16_11 1_555 1_555
C25_11 C26_11 1_555 1_555
C27_11 C28_11 1_555 1_555
C33_11 C34_11 1_555 1_555
C37_11 C38_11 1_555 1_555
C39_11 C40_11 1_555 1_555
O13_5 C4_12 1_555 1_555
O14_5 C4_12 1_555 1_555
O9_6 C2_12 1_555 1_555
O10_6 C2_12 1_555 1_555
O5_12 C3_12 1_555 1_555
O6_12 C3_12 1_555 1_555
N2_12 C20_12 1_555 1_555
C2_12 C23_12 1_555 1_555
C3_12 C11_12 1_555 1_555
C11_12 C12_12 1_555 1_555
C12_12 C13_12 1_555 1_555
C14_12 N1_12 1_555 1_555
C15_12 C14_12 1_555 1_555
C16_12 C11_12 1_555 1_555
C17_12 C18_12 1_555 1_555
C18_12 C19_12 1_555 1_555
C19_12 C20_12 1_555 1_555
C20_12 C21_12 1_555 1_555
C21_12 C22_12 1_555 1_555
C22_12 C17_12 1_555 1_555
C23_12 C24_12 1_555 1_555
C24_12 C25_12 1_555 1_555
C25_12 C19_12 1_555 1_555
C26_12 N2_12 1_555 1_555
C27_12 C26_12 1_555 1_555
C28_12 C23_12 1_555 1_555
C29_12 N2_12 1_555 1_555
C30_12 C29_12 1_555 1_555
C31_12 C30_12 1_555 1_555
C32_12 C31_12 1_555 1_555
C33_12 C32_12 1_555 1_555
C34_12 C29_12 1_555 1_555
C35_12 N1_12 1_555 1_555
C36_12 C35_12 1_555 1_555
C37_12 C36_12 1_555 1_555
C38_12 C32_12 1_555 1_555
C39_12 C38_12 1_555 1_555
C40_12 C35_12 1_555 1_555
H4_12 C12_12 1_555 1_555
H5_12 C15_12 1_555 1_555
H6_12 C16_12 1_555 1_555
H7_12 C18_12 1_555 1_555
H8_12 C21_12 1_555 1_555
H9_12 C22_12 1_555 1_555
H10_12 C24_12 1_555 1_555
H11_12 C27_12 1_555 1_555
H12_12 C28_12 1_555 1_555
H13_12 C30_12 1_555 1_555
H14_12 C31_12 1_555 1_555
H15_12 C33_12 1_555 1_555
H16_12 C36_12 1_555 1_555
H17_12 C37_12 1_555 1_555
H18_12 C39_12 1_555 1_555
H19_12 C40_12 1_555 1_555
H20_12 C34_12 1_555 1_555
Cu5_12 O5_12 1_555 1_555
Cu8_12 O6_12 1_555 1_555
C13_12 C14_12 1_555 1_555
C15_12 C16_12 1_555 1_555
C25_12 C26_12 1_555 1_555
C27_12 C28_12 1_555 1_555
C33_12 C34_12 1_555 1_555
C37_12 C38_12 1_555 1_555
C39_12 C40_12 1_555 1_555
Cu4_4 O1_12 1_555 1_555
Cu7_4 O2_12 1_555 1_555
O1_12 C1_12 1_555 1_555
O2_12 C1_12 1_555 1_555
C1_12 C5_12 1_555 1_555
C5_12 C6_12 1_555 1_555
C6_12 C7_12 1_555 1_555
C7_12 C8_12 1_555 1_555
C8_12 C9_12 1_555 1_555
C9_12 C10_12 1_555 1_555
C10_12 C5_12 1_555 1_555
H1_12 C6_12 1_555 1_555
H2_12 C9_12 1_555 1_555
H3_12 C10_12 1_555 1_555
O11_12 Cu4_4 1_555 1_555
O12_12 Cu7_4 1_555 1_555
O3_7 C2_13 1_555 1_555
O4_7 C2_13 1_555 1_555
C2_13 C23_13 1_555 1_555
Cu5_6 O3_7 1_555 1_555
Cu8_6 O4_7 1_555 1_555
O7_5 C4_13 1_555 1_555
O8_5 C4_13 1_555 1_555
Cu5_4 O7_5 1_555 1_555
Cu8_4 O8_5 1_555 1_555
Cu5_7 O1_13 1_555 1_555
Cu8_7 O2_13 1_555 1_555
O1_13 C1_13 1_555 1_555
O2_13 C1_13 1_555 1_555
O11_12 C3_13 1_555 1_555
O12_12 C3_13 1_555 1_555
N1_13 C8_13 1_555 1_555
N2_13 C20_13 1_555 1_555
C1_13 C5_13 1_555 1_555
C3_13 C11_13 1_555 1_555
C5_13 C6_13 1_555 1_555
C6_13 C7_13 1_555 1_555
C7_13 C8_13 1_555 1_555
C8_13 C9_13 1_555 1_555
C9_13 C10_13 1_555 1_555
C10_13 C5_13 1_555 1_555
C11_13 C12_13 1_555 1_555
C12_13 C13_13 1_555 1_555
C13_13 C7_13 1_555 1_555
C14_13 N1_13 1_555 1_555
C15_13 C14_13 1_555 1_555
C16_13 C11_13 1_555 1_555
C17_13 C18_13 1_555 1_555
C18_13 C19_13 1_555 1_555
C19_13 C20_13 1_555 1_555
C20_13 C21_13 1_555 1_555
C21_13 C22_13 1_555 1_555
C22_13 C17_13 1_555 1_555
C24_13 C25_13 1_555 1_555
C25_13 C19_13 1_555 1_555
C26_13 N2_13 1_555 1_555
C27_13 C26_13 1_555 1_555
C29_13 N2_13 1_555 1_555
C30_13 C29_13 1_555 1_555
C31_13 C30_13 1_555 1_555
C32_13 C31_13 1_555 1_555
C33_13 C32_13 1_555 1_555
C34_13 C29_13 1_555 1_555
C35_13 N1_13 1_555 1_555
C36_13 C35_13 1_555 1_555
C37_13 C36_13 1_555 1_555
C38_13 C32_13 1_555 1_555
C39_13 C38_13 1_555 1_555
C40_13 C35_13 1_555 1_555
H1_13 C6_13 1_555 1_555
H2_13 C9_13 1_555 1_555
H3_13 C10_13 1_555 1_555
H4_13 C12_13 1_555 1_555
H5_13 C15_13 1_555 1_555
H6_13 C16_13 1_555 1_555
H7_13 C18_13 1_555 1_555
H8_13 C21_13 1_555 1_555
H9_13 C22_13 1_555 1_555
H10_13 C24_13 1_555 1_555
H11_13 C27_13 1_555 1_555
H13_13 C30_13 1_555 1_555
H14_13 C31_13 1_555 1_555
H15_13 C33_13 1_555 1_555
H16_13 C36_13 1_555 1_555
H17_13 C37_13 1_555 1_555
H18_13 C39_13 1_555 1_555
H19_13 C40_13 1_555 1_555
H20_13 C34_13 1_555 1_555
O9_7 Cu5_7 1_555 1_555
O10_7 Cu8_7 1_555 1_555
O13_9 Cu5_7 1_555 1_555
O14_9 Cu8_7 1_555 1_555
C13_13 C14_13 1_555 1_555
C15_13 C16_13 1_555 1_555
C25_13 C26_13 1_555 1_555
C27_13 C28_13 1_555 1_555
C33_13 C34_13 1_555 1_555
C37_13 C38_13 1_555 1_555
C39_13 C40_13 1_555 1_555
Cu5_8 O1_14 1_555 1_555
Cu8_8 O2_14 1_555 1_555
O1_14 C1_14 1_555 1_555
O2_14 C1_14 1_555 1_555
O3_8 C2_14 1_555 1_555
O4_8 C2_14 1_555 1_555
O11_9 C3_14 1_555 1_555
O12_9 C3_14 1_555 1_555
O7_6 C4_14 1_555 1_555
O8_6 C4_14 1_555 1_555
N1_14 C8_14 1_555 1_555
N2_14 C20_14 1_555 1_555
C1_14 C5_14 1_555 1_555
C2_14 C23_14 1_555 1_555
C3_14 C11_14 1_555 1_555
C4_14 C17_14 1_555 1_555
C5_14 C6_14 1_555 1_555
C6_14 C7_14 1_555 1_555
C7_14 C8_14 1_555 1_555
C8_14 C9_14 1_555 1_555
C9_14 C10_14 1_555 1_555
C10_14 C5_14 1_555 1_555
C11_14 C12_14 1_555 1_555
C12_14 C13_14 1_555 1_555
C13_14 C7_14 1_555 1_555
C14_14 N1_14 1_555 1_555
C15_14 C14_14 1_555 1_555
C16_14 C11_14 1_555 1_555
C17_14 C18_14 1_555 1_555
C18_14 C19_14 1_555 1_555
C19_14 C20_14 1_555 1_555
C20_14 C21_14 1_555 1_555
C21_14 C22_14 1_555 1_555
C22_14 C17_14 1_555 1_555
C23_14 C24_14 1_555 1_555
C24_14 C25_14 1_555 1_555
C25_14 C19_14 1_555 1_555
C26_14 N2_14 1_555 1_555
C27_14 C26_14 1_555 1_555
C28_14 C23_14 1_555 1_555
C29_14 N2_14 1_555 1_555
C30_14 C29_14 1_555 1_555
C31_14 C30_14 1_555 1_555
C32_14 C31_14 1_555 1_555
C33_14 C32_14 1_555 1_555
C34_14 C29_14 1_555 1_555
C35_14 N1_14 1_555 1_555
C36_14 C35_14 1_555 1_555
C37_14 C36_14 1_555 1_555
C38_14 C32_14 1_555 1_555
C39_14 C38_14 1_555 1_555
C40_14 C35_14 1_555 1_555
H1_14 C6_14 1_555 1_555
H2_14 C9_14 1_555 1_555
H3_14 C10_14 1_555 1_555
H4_14 C12_14 1_555 1_555
H5_14 C15_14 1_555 1_555
H6_14 C16_14 1_555 1_555
H7_14 C18_14 1_555 1_555
H8_14 C21_14 1_555 1_555
H9_14 C22_14 1_555 1_555
H10_14 C24_14 1_555 1_555
H11_14 C27_14 1_555 1_555
H12_14 C28_14 1_555 1_555
H13_14 C30_14 1_555 1_555
H14_14 C31_14 1_555 1_555
H15_14 C33_14 1_555 1_555
H16_14 C36_14 1_555 1_555
H17_14 C37_14 1_555 1_555
H18_14 C39_14 1_555 1_555
H19_14 C40_14 1_555 1_555
H20_14 C34_14 1_555 1_555
Cu5_5 O3_8 1_555 1_555
Cu5_3 O7_6 1_555 1_555
Cu8_5 O4_8 1_555 1_555
Cu8_3 O8_6 1_555 1_555
O9_8 Cu5_8 1_555 1_555
O10_8 Cu8_8 1_555 1_555
O13_10 Cu5_8 1_555 1_555
O14_10 Cu8_8 1_555 1_555
C13_14 C14_14 1_555 1_555
C15_14 C16_14 1_555 1_555
C25_14 C26_14 1_555 1_555
C27_14 C28_14 1_555 1_555
C33_14 C34_14 1_555 1_555
C37_14 C38_14 1_555 1_555
C39_14 C40_14 1_555 1_555
Cu5_5 O1_15 1_555 1_555
Cu8_5 O2_15 1_555 1_555
O1_15 C1_15 1_555 1_555
O2_15 C1_15 1_555 1_555
C1_15 C5_15 1_555 1_555
C5_15 C6_15 1_555 1_555
C6_15 C7_15 1_555 1_555
C7_15 C8_15 1_555 1_555
C8_15 C9_15 1_555 1_555
C9_15 C10_15 1_555 1_555
C10_15 C5_15 1_555 1_555
H1_15 C6_15 1_555 1_555
H2_15 C9_15 1_555 1_555
H3_15 C10_15 1_555 1_555
O13_11 Cu5_5 1_555 1_555
O14_11 Cu8_5 1_555 1_555
O9_8 C2_15 1_555 1_555
O10_8 C2_15 1_555 1_555
O11_11 C3_15 1_555 1_555
O12_11 C3_15 1_555 1_555
N2_15 C20_15 1_555 1_555
C2_15 C23_15 1_555 1_555
C3_15 C11_15 1_555 1_555
C11_15 C12_15 1_555 1_555
C12_15 C13_15 1_555 1_555
C14_15 N1_15 1_555 1_555
C15_15 C14_15 1_555 1_555
C16_15 C11_15 1_555 1_555
C17_15 C18_15 1_555 1_555
C18_15 C19_15 1_555 1_555
C19_15 C20_15 1_555 1_555
C20_15 C21_15 1_555 1_555
C21_15 C22_15 1_555 1_555
C22_15 C17_15 1_555 1_555
C23_15 C24_15 1_555 1_555
C24_15 C25_15 1_555 1_555
C25_15 C19_15 1_555 1_555
C26_15 N2_15 1_555 1_555
C27_15 C26_15 1_555 1_555
C28_15 C23_15 1_555 1_555
C29_15 N2_15 1_555 1_555
C30_15 C29_15 1_555 1_555
C31_15 C30_15 1_555 1_555
C32_15 C31_15 1_555 1_555
C33_15 C32_15 1_555 1_555
C34_15 C29_15 1_555 1_555
C35_15 N1_15 1_555 1_555
C36_15 C35_15 1_555 1_555
C37_15 C36_15 1_555 1_555
C38_15 C32_15 1_555 1_555
C39_15 C38_15 1_555 1_555
C40_15 C35_15 1_555 1_555
H4_15 C12_15 1_555 1_555
H5_15 C15_15 1_555 1_555
H6_15 C16_15 1_555 1_555
H7_15 C18_15 1_555 1_555
H8_15 C21_15 1_555 1_555
H9_15 C22_15 1_555 1_555
H10_15 C24_15 1_555 1_555
H11_15 C27_15 1_555 1_555
H12_15 C28_15 1_555 1_555
H13_15 C30_15 1_555 1_555
H14_15 C31_15 1_555 1_555
H15_15 C33_15 1_555 1_555
H16_15 C36_15 1_555 1_555
H17_15 C37_15 1_555 1_555
H18_15 C39_15 1_555 1_555
H19_15 C40_15 1_555 1_555
H20_15 C34_15 1_555 1_555
C13_15 C14_15 1_555 1_555
C15_15 C16_15 1_555 1_555
C25_15 C26_15 1_555 1_555
C27_15 C28_15 1_555 1_555
C33_15 C34_15 1_555 1_555
C37_15 C38_15 1_555 1_555
C39_15 C40_15 1_555 1_555
O7_7 C4_15 1_555 1_555
O8_7 C4_15 1_555 1_555
Cu5_2 O7_7 1_555 1_555
Cu8_2 O8_7 1_555 1_555
O11_10 C3_16 1_555 1_555
O12_10 C3_16 1_555 1_555
O7_8 C4_16 1_555 1_555
O8_8 C4_16 1_555 1_555
N2_16 C20_16 1_555 1_555
C3_16 C11_16 1_555 1_555
C4_16 C17_16 1_555 1_555
C11_16 C12_16 1_555 1_555
C12_16 C13_16 1_555 1_555
C14_16 N1_16 1_555 1_555
C15_16 C14_16 1_555 1_555
C16_16 C11_16 1_555 1_555
C17_16 C18_16 1_555 1_555
C18_16 C19_16 1_555 1_555
C19_16 C20_16 1_555 1_555
C20_16 C21_16 1_555 1_555
C21_16 C22_16 1_555 1_555
C22_16 C17_16 1_555 1_555
C24_16 C25_16 1_555 1_555
C25_16 C19_16 1_555 1_555
C26_16 N2_16 1_555 1_555
C27_16 C26_16 1_555 1_555
C29_16 N2_16 1_555 1_555
C30_16 C29_16 1_555 1_555
C31_16 C30_16 1_555 1_555
C32_16 C31_16 1_555 1_555
C33_16 C32_16 1_555 1_555
C34_16 C29_16 1_555 1_555
C35_16 N1_16 1_555 1_555
C36_16 C35_16 1_555 1_555
C37_16 C36_16 1_555 1_555
C38_16 C32_16 1_555 1_555
C39_16 C38_16 1_555 1_555
C40_16 C35_16 1_555 1_555
H4_16 C12_16 1_555 1_555
H5_16 C15_16 1_555 1_555
H6_16 C16_16 1_555 1_555
H7_16 C18_16 1_555 1_555
H8_16 C21_16 1_555 1_555
H9_16 C22_16 1_555 1_555
H10_16 C24_16 1_555 1_555
H11_16 C27_16 1_555 1_555
H13_16 C30_16 1_555 1_555
H14_16 C31_16 1_555 1_555
H15_16 C33_16 1_555 1_555
H16_16 C36_16 1_555 1_555
H17_16 C37_16 1_555 1_555
H18_16 C39_16 1_555 1_555
H19_16 C40_16 1_555 1_555
H20_16 C34_16 1_555 1_555
Cu5 O7_8 1_555 1_555
Cu8 O8_8 1_555 1_555
C13_16 C14_16 1_555 1_555
C15_16 C16_16 1_555 1_555
C25_16 C26_16 1_555 1_555
C27_16 C28_16 1_555 1_555
C33_16 C34_16 1_555 1_555
C37_16 C38_16 1_555 1_555
C39_16 C40_16 1_555 1_555
Cu5_6 O1_16 1_555 1_555
Cu8_6 O2_16 1_555 1_555
O1_16 C1_16 1_555 1_555
O2_16 C1_16 1_555 1_555
C1_16 C5_16 1_555 1_555
C5_16 C6_16 1_555 1_555
C6_16 C7_16 1_555 1_555
C7_16 C8_16 1_555 1_555
C8_16 C9_16 1_555 1_555
C9_16 C10_16 1_555 1_555
C10_16 C5_16 1_555 1_555
H1_16 C6_16 1_555 1_555
H2_16 C9_16 1_555 1_555
H3_16 C10_16 1_555 1_555
O13_12 Cu5_6 1_555 1_555
O14_12 Cu8_6 1_555 1_555
O9_7 C2_16 1_555 1_555
O10_7 C2_16 1_555 1_555
C2_16 C23_16 1_555 1_555
O13_12 C4_17 1_555 1_555
O14_12 C4_17 1_555 1_555
O3_9 C2_17 1_555 1_555
O4_9 C2_17 1_555 1_555
C2_17 C23_17 1_555 1_555
Cu5_10 O3_9 1_555 1_555
Cu8_10 O4_9 1_555 1_555
Cu5_11 O1_17 1_555 1_555
Cu8_11 O2_17 1_555 1_555
O1_17 C1_17 1_555 1_555
O2_17 C1_17 1_555 1_555
O11_3 C3_17 1_555 1_555
O12_3 C3_17 1_555 1_555
N1_17 C8_17 1_555 1_555
N2_17 C20_17 1_555 1_555
C1_17 C5_17 1_555 1_555
C3_17 C11_17 1_555 1_555
C5_17 C6_17 1_555 1_555
C6_17 C7_17 1_555 1_555
C7_17 C8_17 1_555 1_555
C8_17 C9_17 1_555 1_555
C9_17 C10_17 1_555 1_555
C10_17 C5_17 1_555 1_555
C11_17 C12_17 1_555 1_555
C12_17 C13_17 1_555 1_555
C13_17 C7_17 1_555 1_555
C14_17 N1_17 1_555 1_555
C15_17 C14_17 1_555 1_555
C16_17 C11_17 1_555 1_555
C17_17 C18_17 1_555 1_555
C18_17 C19_17 1_555 1_555
C19_17 C20_17 1_555 1_555
C20_17 C21_17 1_555 1_555
C21_17 C22_17 1_555 1_555
C22_17 C17_17 1_555 1_555
C24_17 C25_17 1_555 1_555
C25_17 C19_17 1_555 1_555
C26_17 N2_17 1_555 1_555
C27_17 C26_17 1_555 1_555
C29_17 N2_17 1_555 1_555
C30_17 C29_17 1_555 1_555
C31_17 C30_17 1_555 1_555
C32_17 C31_17 1_555 1_555
C33_17 C32_17 1_555 1_555
C34_17 C29_17 1_555 1_555
C35_17 N1_17 1_555 1_555
C36_17 C35_17 1_555 1_555
C37_17 C36_17 1_555 1_555
C38_17 C32_17 1_555 1_555
C39_17 C38_17 1_555 1_555
C40_17 C35_17 1_555 1_555
H1_17 C6_17 1_555 1_555
H2_17 C9_17 1_555 1_555
H3_17 C10_17 1_555 1_555
H4_17 C12_17 1_555 1_555
H5_17 C15_17 1_555 1_555
H6_17 C16_17 1_555 1_555
H7_17 C18_17 1_555 1_555
H8_17 C21_17 1_555 1_555
H9_17 C22_17 1_555 1_555
H10_17 C24_17 1_555 1_555
H11_17 C27_17 1_555 1_555
H13_17 C30_17 1_555 1_555
H14_17 C31_17 1_555 1_555
H15_17 C33_17 1_555 1_555
H16_17 C36_17 1_555 1_555
H17_17 C37_17 1_555 1_555
H18_17 C39_17 1_555 1_555
H19_17 C40_17 1_555 1_555
H20_17 C34_17 1_555 1_555
O9_9 Cu5_11 1_555 1_555
O10_9 Cu8_11 1_555 1_555
O13_13 Cu5_11 1_555 1_555
O14_13 Cu8_11 1_555 1_555
C13_17 C14_17 1_555 1_555
C15_17 C16_17 1_555 1_555
C25_17 C26_17 1_555 1_555
C27_17 C28_17 1_555 1_555
C33_17 C34_17 1_555 1_555
C37_17 C38_17 1_555 1_555
C39_17 C40_17 1_555 1_555
O11_4 C3_18 1_555 1_555
O12_4 C3_18 1_555 1_555
O13_11 C4_18 1_555 1_555
O14_11 C4_18 1_555 1_555
N2_18 C20_18 1_555 1_555
C3_18 C11_18 1_555 1_555
C4_18 C17_18 1_555 1_555
C11_18 C12_18 1_555 1_555
C12_18 C13_18 1_555 1_555
C14_18 N1_18 1_555 1_555
C15_18 C14_18 1_555 1_555
C16_18 C11_18 1_555 1_555
C17_18 C18_18 1_555 1_555
C18_18 C19_18 1_555 1_555
C19_18 C20_18 1_555 1_555
C20_18 C21_18 1_555 1_555
C21_18 C22_18 1_555 1_555
C22_18 C17_18 1_555 1_555
C24_18 C25_18 1_555 1_555
C25_18 C19_18 1_555 1_555
C26_18 N2_18 1_555 1_555
C27_18 C26_18 1_555 1_555
C29_18 N2_18 1_555 1_555
C30_18 C29_18 1_555 1_555
C31_18 C30_18 1_555 1_555
C32_18 C31_18 1_555 1_555
C33_18 C32_18 1_555 1_555
C34_18 C29_18 1_555 1_555
C35_18 N1_18 1_555 1_555
C36_18 C35_18 1_555 1_555
C37_18 C36_18 1_555 1_555
C38_18 C32_18 1_555 1_555
C39_18 C38_18 1_555 1_555
C40_18 C35_18 1_555 1_555
H4_18 C12_18 1_555 1_555
H5_18 C15_18 1_555 1_555
H6_18 C16_18 1_555 1_555
H7_18 C18_18 1_555 1_555
H8_18 C21_18 1_555 1_555
H9_18 C22_18 1_555 1_555
H10_18 C24_18 1_555 1_555
H11_18 C27_18 1_555 1_555
H13_18 C30_18 1_555 1_555
H14_18 C31_18 1_555 1_555
H15_18 C33_18 1_555 1_555
H16_18 C36_18 1_555 1_555
H17_18 C37_18 1_555 1_555
H18_18 C39_18 1_555 1_555
H19_18 C40_18 1_555 1_555
H20_18 C34_18 1_555 1_555
C13_18 C14_18 1_555 1_555
C15_18 C16_18 1_555 1_555
C25_18 C26_18 1_555 1_555
C27_18 C28_18 1_555 1_555
C33_18 C34_18 1_555 1_555
C37_18 C38_18 1_555 1_555
C39_18 C40_18 1_555 1_555
Cu5_10 O1_18 1_555 1_555
Cu8_10 O2_18 1_555 1_555
O1_18 C1_18 1_555 1_555
O2_18 C1_18 1_555 1_555
C1_18 C5_18 1_555 1_555
C5_18 C6_18 1_555 1_555
C6_18 C7_18 1_555 1_555
C7_18 C8_18 1_555 1_555
C8_18 C9_18 1_555 1_555
C9_18 C10_18 1_555 1_555
C10_18 C5_18 1_555 1_555
H1_18 C6_18 1_555 1_555
H2_18 C9_18 1_555 1_555
H3_18 C10_18 1_555 1_555
O13_14 Cu5_10 1_555 1_555
O14_14 Cu8_10 1_555 1_555
O9_9 C2_18 1_555 1_555
O10_9 C2_18 1_555 1_555
C2_18 C23_18 1_555 1_555
Cu5_12 O1_19 1_555 1_555
Cu8_12 O2_19 1_555 1_555
O1_19 C1_19 1_555 1_555
O2_19 C1_19 1_555 1_555
O3_10 C2_19 1_555 1_555
O4_10 C2_19 1_555 1_555
O11 C3_19 1_555 1_555
O12 C3_19 1_555 1_555
O13_10 C4_19 1_555 1_555
O14_10 C4_19 1_555 1_555
N1_19 C8_19 1_555 1_555
N2_19 C20_19 1_555 1_555
C1_19 C5_19 1_555 1_555
C2_19 C23_19 1_555 1_555
C3_19 C11_19 1_555 1_555
C4_19 C17_19 1_555 1_555
C5_19 C6_19 1_555 1_555
C6_19 C7_19 1_555 1_555
C7_19 C8_19 1_555 1_555
C8_19 C9_19 1_555 1_555
C9_19 C10_19 1_555 1_555
C10_19 C5_19 1_555 1_555
C11_19 C12_19 1_555 1_555
C12_19 C13_19 1_555 1_555
C13_19 C7_19 1_555 1_555
C14_19 N1_19 1_555 1_555
C15_19 C14_19 1_555 1_555
C16_19 C11_19 1_555 1_555
C17_19 C18_19 1_555 1_555
C18_19 C19_19 1_555 1_555
C19_19 C20_19 1_555 1_555
C20_19 C21_19 1_555 1_555
C21_19 C22_19 1_555 1_555
C22_19 C17_19 1_555 1_555
C23_19 C24_19 1_555 1_555
C24_19 C25_19 1_555 1_555
C25_19 C19_19 1_555 1_555
C26_19 N2_19 1_555 1_555
C27_19 C26_19 1_555 1_555
C28_19 C23_19 1_555 1_555
C29_19 N2_19 1_555 1_555
C30_19 C29_19 1_555 1_555
C31_19 C30_19 1_555 1_555
C32_19 C31_19 1_555 1_555
C33_19 C32_19 1_555 1_555
C34_19 C29_19 1_555 1_555
C35_19 N1_19 1_555 1_555
C36_19 C35_19 1_555 1_555
C37_19 C36_19 1_555 1_555
C38_19 C32_19 1_555 1_555
C39_19 C38_19 1_555 1_555
C40_19 C35_19 1_555 1_555
H1_19 C6_19 1_555 1_555
H2_19 C9_19 1_555 1_555
H3_19 C10_19 1_555 1_555
H4_19 C12_19 1_555 1_555
H5_19 C15_19 1_555 1_555
H6_19 C16_19 1_555 1_555
H7_19 C18_19 1_555 1_555
H8_19 C21_19 1_555 1_555
H9_19 C22_19 1_555 1_555
H10_19 C24_19 1_555 1_555
H11_19 C27_19 1_555 1_555
H12_19 C28_19 1_555 1_555
H13_19 C30_19 1_555 1_555
H14_19 C31_19 1_555 1_555
H15_19 C33_19 1_555 1_555
H16_19 C36_19 1_555 1_555
H17_19 C37_19 1_555 1_555
H18_19 C39_19 1_555 1_555
H19_19 C40_19 1_555 1_555
H20_19 C34_19 1_555 1_555
Cu5_9 O3_10 1_555 1_555
Cu8_9 O4_10 1_555 1_555
O9_10 Cu5_12 1_555 1_555
O10_10 Cu8_12 1_555 1_555
O13_15 Cu5_12 1_555 1_555
O14_15 Cu8_12 1_555 1_555
C13_19 C14_19 1_555 1_555
C15_19 C16_19 1_555 1_555
C25_19 C26_19 1_555 1_555
C27_19 C28_19 1_555 1_555
C33_19 C34_19 1_555 1_555
C37_19 C38_19 1_555 1_555
C39_19 C40_19 1_555 1_555
Cu5_9 O1_20 1_555 1_555
Cu8_9 O2_20 1_555 1_555
O1_20 C1_20 1_555 1_555
O2_20 C1_20 1_555 1_555
C1_20 C5_20 1_555 1_555
C5_20 C6_20 1_555 1_555
C6_20 C7_20 1_555 1_555
C7_20 C8_20 1_555 1_555
C8_20 C9_20 1_555 1_555
C9_20 C10_20 1_555 1_555
C10_20 C5_20 1_555 1_555
H1_20 C6_20 1_555 1_555
H2_20 C9_20 1_555 1_555
H3_20 C10_20 1_555 1_555
O13_16 Cu5_9 1_555 1_555
O14_16 Cu8_9 1_555 1_555
O9_10 C2_20 1_555 1_555
O10_10 C2_20 1_555 1_555
O11_2 C3_20 1_555 1_555
O12_2 C3_20 1_555 1_555
N2_20 C20_20 1_555 1_555
C2_20 C23_20 1_555 1_555
C3_20 C11_20 1_555 1_555
C11_20 C12_20 1_555 1_555
C12_20 C13_20 1_555 1_555
C14_20 N1_20 1_555 1_555
C15_20 C14_20 1_555 1_555
C16_20 C11_20 1_555 1_555
C17_20 C18_20 1_555 1_555
C18_20 C19_20 1_555 1_555
C19_20 C20_20 1_555 1_555
C20_20 C21_20 1_555 1_555
C21_20 C22_20 1_555 1_555
C22_20 C17_20 1_555 1_555
C23_20 C24_20 1_555 1_555
C24_20 C25_20 1_555 1_555
C25_20 C19_20 1_555 1_555
C26_20 N2_20 1_555 1_555
C27_20 C26_20 1_555 1_555
C28_20 C23_20 1_555 1_555
C29_20 N2_20 1_555 1_555
C30_20 C29_20 1_555 1_555
C31_20 C30_20 1_555 1_555
C32_20 C31_20 1_555 1_555
C33_20 C32_20 1_555 1_555
C34_20 C29_20 1_555 1_555
C35_20 N1_20 1_555 1_555
C36_20 C35_20 1_555 1_555
C37_20 C36_20 1_555 1_555
C38_20 C32_20 1_555 1_555
C39_20 C38_20 1_555 1_555
C40_20 C35_20 1_555 1_555
H4_20 C12_20 1_555 1_555
H5_20 C15_20 1_555 1_555
H6_20 C16_20 1_555 1_555
H7_20 C18_20 1_555 1_555
H8_20 C21_20 1_555 1_555
H9_20 C22_20 1_555 1_555
H10_20 C24_20 1_555 1_555
H11_20 C27_20 1_555 1_555
H12_20 C28_20 1_555 1_555
H13_20 C30_20 1_555 1_555
H14_20 C31_20 1_555 1_555
H15_20 C33_20 1_555 1_555
H16_20 C36_20 1_555 1_555
H17_20 C37_20 1_555 1_555
H18_20 C39_20 1_555 1_555
H19_20 C40_20 1_555 1_555
H20_20 C34_20 1_555 1_555
C13_20 C14_20 1_555 1_555
C15_20 C16_20 1_555 1_555
C25_20 C26_20 1_555 1_555
C27_20 C28_20 1_555 1_555
C33_20 C34_20 1_555 1_555
C37_20 C38_20 1_555 1_555
C39_20 C40_20 1_555 1_555
O13_9 C4_20 1_555 1_555
O14_9 C4_20 1_555 1_555
O13_14 C4_21 1_555 1_555
O14_14 C4_21 1_555 1_555
O3_11 C2_21 1_555 1_555
O4_11 C2_21 1_555 1_555
C2_21 C23_21 1_555 1_555
Cu5_4 O3_11 1_555 1_555
Cu8_4 O4_11 1_555 1_555
Cu5_2 O1_21 1_555 1_555
Cu8_2 O2_21 1_555 1_555
O1_21 C1_21 1_555 1_555
O2_21 C1_21 1_555 1_555
O11_8 C3_21 1_555 1_555
O12_8 C3_21 1_555 1_555
N1_21 C8_21 1_555 1_555
N2_21 C20_21 1_555 1_555
C1_21 C5_21 1_555 1_555
C3_21 C11_21 1_555 1_555
C5_21 C6_21 1_555 1_555
C6_21 C7_21 1_555 1_555
C7_21 C8_21 1_555 1_555
C8_21 C9_21 1_555 1_555
C9_21 C10_21 1_555 1_555
C10_21 C5_21 1_555 1_555
C11_21 C12_21 1_555 1_555
C12_21 C13_21 1_555 1_555
C13_21 C7_21 1_555 1_555
C14_21 N1_21 1_555 1_555
C15_21 C14_21 1_555 1_555
C16_21 C11_21 1_555 1_555
C17_21 C18_21 1_555 1_555
C18_21 C19_21 1_555 1_555
C19_21 C20_21 1_555 1_555
C20_21 C21_21 1_555 1_555
C21_21 C22_21 1_555 1_555
C22_21 C17_21 1_555 1_555
C24_21 C25_21 1_555 1_555
C25_21 C19_21 1_555 1_555
C26_21 N2_21 1_555 1_555
C27_21 C26_21 1_555 1_555
C29_21 N2_21 1_555 1_555
C30_21 C29_21 1_555 1_555
C31_21 C30_21 1_555 1_555
C32_21 C31_21 1_555 1_555
C33_21 C32_21 1_555 1_555
C34_21 C29_21 1_555 1_555
C35_21 N1_21 1_555 1_555
C36_21 C35_21 1_555 1_555
C37_21 C36_21 1_555 1_555
C38_21 C32_21 1_555 1_555
C39_21 C38_21 1_555 1_555
C40_21 C35_21 1_555 1_555
H1_21 C6_21 1_555 1_555
H2_21 C9_21 1_555 1_555
H3_21 C10_21 1_555 1_555
H4_21 C12_21 1_555 1_555
H5_21 C15_21 1_555 1_555
H6_21 C16_21 1_555 1_555
H7_21 C18_21 1_555 1_555
H8_21 C21_21 1_555 1_555
H9_21 C22_21 1_555 1_555
H10_21 C24_21 1_555 1_555
H11_21 C27_21 1_555 1_555
H13_21 C30_21 1_555 1_555
H14_21 C31_21 1_555 1_555
H15_21 C33_21 1_555 1_555
H16_21 C36_21 1_555 1_555
H17_21 C37_21 1_555 1_555
H18_21 C39_21 1_555 1_555
H19_21 C40_21 1_555 1_555
H20_21 C34_21 1_555 1_555
O9_11 Cu5_2 1_555 1_555
O10_11 Cu8_2 1_555 1_555
C13_21 C14_21 1_555 1_555
C15_21 C16_21 1_555 1_555
C25_21 C26_21 1_555 1_555
C27_21 C28_21 1_555 1_555
C33_21 C34_21 1_555 1_555
C37_21 C38_21 1_555 1_555
C39_21 C40_21 1_555 1_555
O11_6 C3_22 1_555 1_555
O12_6 C3_22 1_555 1_555
O13_16 C4_22 1_555 1_555
O14_16 C4_22 1_555 1_555
N2_22 C20_22 1_555 1_555
C3_22 C11_22 1_555 1_555
C4_22 C17_22 1_555 1_555
C11_22 C12_22 1_555 1_555
C12_22 C13_22 1_555 1_555
C14_22 N1_22 1_555 1_555
C15_22 C14_22 1_555 1_555
C16_22 C11_22 1_555 1_555
C17_22 C18_22 1_555 1_555
C18_22 C19_22 1_555 1_555
C19_22 C20_22 1_555 1_555
C20_22 C21_22 1_555 1_555
C21_22 C22_22 1_555 1_555
C22_22 C17_22 1_555 1_555
C24_22 C25_22 1_555 1_555
C25_22 C19_22 1_555 1_555
C26_22 N2_22 1_555 1_555
C27_22 C26_22 1_555 1_555
C29_22 N2_22 1_555 1_555
C30_22 C29_22 1_555 1_555
C31_22 C30_22 1_555 1_555
C32_22 C31_22 1_555 1_555
C33_22 C32_22 1_555 1_555
C34_22 C29_22 1_555 1_555
C35_22 N1_22 1_555 1_555
C36_22 C35_22 1_555 1_555
C37_22 C36_22 1_555 1_555
C38_22 C32_22 1_555 1_555
C39_22 C38_22 1_555 1_555
C40_22 C35_22 1_555 1_555
H4_22 C12_22 1_555 1_555
H5_22 C15_22 1_555 1_555
H6_22 C16_22 1_555 1_555
H7_22 C18_22 1_555 1_555
H8_22 C21_22 1_555 1_555
H9_22 C22_22 1_555 1_555
H10_22 C24_22 1_555 1_555
H11_22 C27_22 1_555 1_555
H13_22 C30_22 1_555 1_555
H14_22 C31_22 1_555 1_555
H15_22 C33_22 1_555 1_555
H16_22 C36_22 1_555 1_555
H17_22 C37_22 1_555 1_555
H18_22 C39_22 1_555 1_555
H19_22 C40_22 1_555 1_555
H20_22 C34_22 1_555 1_555
C13_22 C14_22 1_555 1_555
C15_22 C16_22 1_555 1_555
C25_22 C26_22 1_555 1_555
C27_22 C28_22 1_555 1_555
C33_22 C34_22 1_555 1_555
C37_22 C38_22 1_555 1_555
C39_22 C40_22 1_555 1_555
O9_11 C2_22 1_555 1_555
O10_11 C2_22 1_555 1_555
C2_22 C23_22 1_555 1_555
Cu5_4 O1_22 1_555 1_555
Cu8_4 O2_22 1_555 1_555
O1_22 C1_22 1_555 1_555
O2_22 C1_22 1_555 1_555
C1_22 C5_22 1_555 1_555
C5_22 C6_22 1_555 1_555
C6_22 C7_22 1_555 1_555
C7_22 C8_22 1_555 1_555
C8_22 C9_22 1_555 1_555
C9_22 C10_22 1_555 1_555
C10_22 C5_22 1_555 1_555
H1_22 C6_22 1_555 1_555
H2_22 C9_22 1_555 1_555
H3_22 C10_22 1_555 1_555
Cu5_3 O1_23 1_555 1_555
Cu8_3 O2_23 1_555 1_555
O1_23 C1_23 1_555 1_555
O2_23 C1_23 1_555 1_555
O3_12 C2_23 1_555 1_555
O4_12 C2_23 1_555 1_555
O11_5 C3_23 1_555 1_555
O12_5 C3_23 1_555 1_555
O13_15 C4_23 1_555 1_555
O14_15 C4_23 1_555 1_555
N1_23 C8_23 1_555 1_555
N2_23 C20_23 1_555 1_555
C1_23 C5_23 1_555 1_555
C2_23 C23_23 1_555 1_555
C3_23 C11_23 1_555 1_555
C4_23 C17_23 1_555 1_555
C5_23 C6_23 1_555 1_555
C6_23 C7_23 1_555 1_555
C7_23 C8_23 1_555 1_555
C8_23 C9_23 1_555 1_555
C9_23 C10_23 1_555 1_555
C10_23 C5_23 1_555 1_555
C11_23 C12_23 1_555 1_555
C12_23 C13_23 1_555 1_555
C13_23 C7_23 1_555 1_555
C14_23 N1_23 1_555 1_555
C15_23 C14_23 1_555 1_555
C16_23 C11_23 1_555 1_555
C17_23 C18_23 1_555 1_555
C18_23 C19_23 1_555 1_555
C19_23 C20_23 1_555 1_555
C20_23 C21_23 1_555 1_555
C21_23 C22_23 1_555 1_555
C22_23 C17_23 1_555 1_555
C23_23 C24_23 1_555 1_555
C24_23 C25_23 1_555 1_555
C25_23 C19_23 1_555 1_555
C26_23 N2_23 1_555 1_555
C27_23 C26_23 1_555 1_555
C28_23 C23_23 1_555 1_555
C29_23 N2_23 1_555 1_555
C30_23 C29_23 1_555 1_555
C31_23 C30_23 1_555 1_555
C32_23 C31_23 1_555 1_555
C33_23 C32_23 1_555 1_555
C34_23 C29_23 1_555 1_555
C35_23 N1_23 1_555 1_555
C36_23 C35_23 1_555 1_555
C37_23 C36_23 1_555 1_555
C38_23 C32_23 1_555 1_555
C39_23 C38_23 1_555 1_555
C40_23 C35_23 1_555 1_555
H1_23 C6_23 1_555 1_555
H2_23 C9_23 1_555 1_555
H3_23 C10_23 1_555 1_555
H4_23 C12_23 1_555 1_555
H5_23 C15_23 1_555 1_555
H6_23 C16_23 1_555 1_555
H7_23 C18_23 1_555 1_555
H8_23 C21_23 1_555 1_555
H9_23 C22_23 1_555 1_555
H10_23 C24_23 1_555 1_555
H11_23 C27_23 1_555 1_555
H12_23 C28_23 1_555 1_555
H13_23 C30_23 1_555 1_555
H14_23 C31_23 1_555 1_555
H15_23 C33_23 1_555 1_555
H16_23 C36_23 1_555 1_555
H17_23 C37_23 1_555 1_555
H18_23 C39_23 1_555 1_555
H19_23 C40_23 1_555 1_555
H20_23 C34_23 1_555 1_555
Cu5 O3_12 1_555 1_555
Cu8 O4_12 1_555 1_555
O9_12 Cu5_3 1_555 1_555
O10_12 Cu8_3 1_555 1_555
C13_23 C14_23 1_555 1_555
C15_23 C16_23 1_555 1_555
C25_23 C26_23 1_555 1_555
C27_23 C28_23 1_555 1_555
C33_23 C34_23 1_555 1_555
C37_23 C38_23 1_555 1_555
C39_23 C40_23 1_555 1_555
Cu5 O1_24 1_555 1_555
Cu8 O2_24 1_555 1_555
O1_24 C1_24 1_555 1_555
O2_24 C1_24 1_555 1_555
C1_24 C5_24 1_555 1_555
C5_24 C6_24 1_555 1_555
C6_24 C7_24 1_555 1_555
C7_24 C8_24 1_555 1_555
C8_24 C9_24 1_555 1_555
C9_24 C10_24 1_555 1_555
C10_24 C5_24 1_555 1_555
H1_24 C6_24 1_555 1_555
H2_24 C9_24 1_555 1_555
H3_24 C10_24 1_555 1_555
O9_12 C2_24 1_555 1_555
O10_12 C2_24 1_555 1_555
O11_7 C3_24 1_555 1_555
O12_7 C3_24 1_555 1_555
N2_24 C20_24 1_555 1_555
C2_24 C23_24 1_555 1_555
C3_24 C11_24 1_555 1_555
C11_24 C12_24 1_555 1_555
C12_24 C13_24 1_555 1_555
C14_24 N1_24 1_555 1_555
C15_24 C14_24 1_555 1_555
C16_24 C11_24 1_555 1_555
C17_24 C18_24 1_555 1_555
C18_24 C19_24 1_555 1_555
C19_24 C20_24 1_555 1_555
C20_24 C21_24 1_555 1_555
C21_24 C22_24 1_555 1_555
C22_24 C17_24 1_555 1_555
C23_24 C24_24 1_555 1_555
C24_24 C25_24 1_555 1_555
C25_24 C19_24 1_555 1_555
C26_24 N2_24 1_555 1_555
C27_24 C26_24 1_555 1_555
C28_24 C23_24 1_555 1_555
C29_24 N2_24 1_555 1_555
C30_24 C29_24 1_555 1_555
C31_24 C30_24 1_555 1_555
C32_24 C31_24 1_555 1_555
C33_24 C32_24 1_555 1_555
C34_24 C29_24 1_555 1_555
C35_24 N1_24 1_555 1_555
C36_24 C35_24 1_555 1_555
C37_24 C36_24 1_555 1_555
C38_24 C32_24 1_555 1_555
C39_24 C38_24 1_555 1_555
C40_24 C35_24 1_555 1_555
H4_24 C12_24 1_555 1_555
H5_24 C15_24 1_555 1_555
H6_24 C16_24 1_555 1_555
H7_24 C18_24 1_555 1_555
H8_24 C21_24 1_555 1_555
H9_24 C22_24 1_555 1_555
H10_24 C24_24 1_555 1_555
H11_24 C27_24 1_555 1_555
H12_24 C28_24 1_555 1_555
H13_24 C30_24 1_555 1_555
H14_24 C31_24 1_555 1_555
H15_24 C33_24 1_555 1_555
H16_24 C36_24 1_555 1_555
H17_24 C37_24 1_555 1_555
H18_24 C39_24 1_555 1_555
H19_24 C40_24 1_555 1_555
H20_24 C34_24 1_555 1_555
C13_24 C14_24 1_555 1_555
C15_24 C16_24 1_555 1_555
C25_24 C26_24 1_555 1_555
C27_24 C28_24 1_555 1_555
C33_24 C34_24 1_555 1_555
C37_24 C38_24 1_555 1_555
C39_24 C40_24 1_555 1_555
O13_13 C4_24 1_555 1_555
O14_13 C4_24 1_555 1_555

#END
