
###############################################################################
#
# This file contains modified crystal structure data generated from the
# MOF subset of the Cambridge Structural Database (CSD) v543 
# hosted by the Cambridge Crystallographic Data Centre (CCDC).
#
# This work is licensed under the Creative Commons
# Attribution-NonCommercial-ShareAlike 4.0 International License.
# To view a copy of this license, visit
# http://creativecommons.org/licenses/by-nc-sa/4.0/
# or send a letter to
# Creative Commons, PO Box 1866, Mountain View, CA 94042, USA.
#
# CIF created using the CSD Python API on 29 September 2022
# The structure has been converted into the P1 space group
# The structure has a 3D framework
# The original CSD entry OKUWUN is in the monoclinic crystal system
# The framework has been calculated to contain at least 10.0% void space
# The void calculation uses a probe of radius 1.32A, grid spacing 0.4
#
###############################################################################

data_OKUWUN
_chemical_formula_moiety         '(C48 H32 As8 O44 Pb10 S8)n'
_symmetry_cell_setting           triclinic
_symmetry_space_group_name_H-M   'P 1'
_symmetry_Int_Tables_number      1
_space_group_name_Hall           'P 1'
loop_
_symmetry_equiv_pos_site_id
_symmetry_equiv_pos_as_xyz
1 x,y,z
_cell_length_a                   19.2559(8)
_cell_length_b                   15.4069(8)
_cell_length_c                   10.7376(7)
_cell_angle_alpha                90
_cell_angle_beta                 103.3470(9)
_cell_angle_gamma                90
_cell_volume                     3099.52
loop_
_atom_site_label
_atom_site_type_symbol
_atom_site_fract_x
_atom_site_fract_y
_atom_site_fract_z
Pb7 Pb 0.86612(3) 0.41315(5) 0.05971(6)
Pb2 Pb 0.5000 0.08350(7) 0.2500
As1 As 0.55741(8) 0.10045(11) 0.58875(16)
S1 S 0.7909(3) 0.4061(4) 0.7318(5)
C1 C 0.6252(9) 0.1898(12) 0.6300(18)
C2 C 0.6984(10) 0.1759(15) 0.632(3)
H1 H 0.7137 0.1214 0.6125
C3 C 0.7465(10) 0.2420(15) 0.663(3)
H2 H 0.7942 0.2320 0.6635
C4 C 0.7260(9) 0.3214(12) 0.6923(16)
C5 C 0.6591(10) 0.3367(15) 0.690(3)
H3 H 0.6457 0.3927 0.7069
C6 C 0.6070(11) 0.2719(19) 0.664(3)
H4 H 0.5605 0.2838 0.6700
O1 O 0.5716(6) 0.0393(8) 0.4648(11)
O2 O 0.5701(6) 0.0363(8) 0.7194(10)
O3 O 0.4778(6) 0.1470(8) 0.5462(12)
O4 O 0.7831(7) 0.4581(8) 0.6168(13)
O5 O 0.7735(9) 0.4537(10) 0.8359(14)
O6 O 0.8588(7) 0.3652(11) 0.7726(16)
Pb4 Pb 0.63388(3) 0.08685(5) 0.94029(6)
Pb5 Pb 0.36612(3) 0.08685(5) 0.55971(6)
Pb6 Pb 0.86612(3) 0.58685(5) 0.55971(6)
O7 O 0.4284(6) 0.0393(8) 0.0352(11)
O15 O 0.7169(7) 0.0419(8) 0.3832(13)
O16 O 0.2831(7) 0.0419(8) 0.1168(13)
Pb10 Pb 0.13388(3) 0.58685(5) 0.94029(6)
Pb11 Pb 0.13388(3) 0.41315(5) 0.44029(6)
As2 As 0.44259(8) 0.10045(11) 0.91125(16)
S2 S 0.2091(3) 0.4061(4) 0.7682(5)
C7 C 0.3748(9) 0.1898(12) 0.8700(18)
C8 C 0.3016(10) 0.1759(15) 0.868(3)
H5 H 0.2863 0.1214 0.8875
C9 C 0.2535(10) 0.2420(15) 0.837(3)
H6 H 0.2058 0.2320 0.8365
C10 C 0.2740(9) 0.3214(12) 0.8077(16)
C11 C 0.3409(10) 0.3367(15) 0.810(3)
H7 H 0.3543 0.3927 0.7931
C12 C 0.3930(11) 0.2719(19) 0.836(3)
H8 H 0.4395 0.2838 0.8300
O8 O 0.4299(6) 0.0363(8) 0.7806(10)
O11 O 0.5222(6) 0.1470(8) 0.9538(12)
O14 O 0.2169(7) 0.4581(8) 0.8832(13)
O17 O 0.2265(9) 0.4537(10) 0.6641(14)
O20 O 0.1412(7) 0.3652(11) 0.7274(16)
Pb1 Pb 0.63388(3) 0.91315(5) 0.44029(6)
Pb3 Pb 0.36612(3) 0.91315(5) 0.05971(6)
Pb12 Pb 0.5000 0.91650(7) 0.7500
O9 O 0.5701(6) 0.9637(8) 0.2194(10)
O10 O 0.4299(6) 0.9637(8) 0.2806(10)
O12 O 0.5222(6) 0.8530(8) 0.4538(12)
O13 O 0.4778(6) 0.8530(8) 0.0462(12)
O18 O 0.7265(9) 0.9537(10) 0.6641(14)
O19 O 0.2735(9) 0.9537(10) 0.8359(14)
Pb2_2 Pb 0.0000 0.58350(7) 0.2500
As1_2 As 0.05741(8) 0.60045(11) 0.58875(16)
S1_2 S 0.2909(3) 0.9061(4) 0.7318(5)
C1_2 C 0.1252(9) 0.6898(12) 0.6300(18)
C2_2 C 0.1984(10) 0.6759(15) 0.632(3)
H1_2 H 0.2137 0.6214 0.6125
C3_2 C 0.2465(10) 0.7420(15) 0.663(3)
H2_2 H 0.2942 0.7320 0.6635
C4_2 C 0.2260(9) 0.8214(12) 0.6923(16)
C5_2 C 0.1591(10) 0.8367(15) 0.690(3)
H3_2 H 0.1457 0.8927 0.7069
C6_2 C 0.1070(11) 0.7719(19) 0.664(3)
H4_2 H 0.0605 0.7838 0.6700
O1_2 O 0.0716(6) 0.5393(8) 0.4648(11)
O2_2 O 0.0701(6) 0.5363(8) 0.7194(10)
O4_2 O 0.2831(7) 0.9581(8) 0.6168(13)
O6_2 O 0.3588(7) 0.8652(11) 0.7726(16)
Pb12_2 Pb 0.0000 0.41650(7) 0.7500
O9_2 O 0.0701(6) 0.4637(8) 0.2194(10)
O12_2 O 0.0222(6) 0.3530(8) 0.4538(12)
O15_2 O 0.2169(7) 0.5419(8) 0.3832(13)
O11_2 O 0.0222(6) 0.6470(8) 0.9538(12)
Pb2_3 Pb 1.0000 0.58350(7) 0.2500
O3_2 O 0.9778(6) 0.6470(8) 0.5462(12)
Pb12_3 Pb 1.0000 0.41650(7) 0.7500
O7_2 O 0.9284(6) 0.5393(8) 0.0352(11)
O10_2 O 0.9299(6) 0.4637(8) 0.2806(10)
O13_2 O 0.9778(6) 0.3530(8) 0.0462(12)
O16_2 O 0.7831(7) 0.5419(8) 0.1168(13)
As2_2 As 0.94259(8) 0.60045(11) 0.91125(16)
S2_2 S 0.7091(3) 0.9061(4) 0.7682(5)
C7_2 C 0.8748(9) 0.6898(12) 0.8700(18)
C8_2 C 0.8016(10) 0.6759(15) 0.868(3)
H5_2 H 0.7863 0.6214 0.8875
C9_2 C 0.7535(10) 0.7420(15) 0.837(3)
H6_2 H 0.7058 0.7320 0.8365
C10_2 C 0.7740(9) 0.8214(12) 0.8077(16)
C11_2 C 0.8409(10) 0.8367(15) 0.810(3)
H7_2 H 0.8543 0.8927 0.7931
C12_2 C 0.8930(11) 0.7719(19) 0.836(3)
H8_2 H 0.9395 0.7838 0.8300
O8_2 O 0.9299(6) 0.5363(8) 0.7806(10)
O14_2 O 0.7169(7) 0.9581(8) 0.8832(13)
O20_2 O 0.6412(7) 0.8652(11) 0.7274(16)
O19_2 O 0.7265(9) 0.0463(10) 0.1641(14)
O18_2 O 0.2735(9) 0.0463(10) 0.3359(14)
As2_3 As 0.55741(8) 0.89955(11) 0.08875(16)
S2_3 S 0.7909(3) 0.5939(4) 0.2318(5)
C7_3 C 0.6252(9) 0.8102(12) 0.1300(18)
C8_3 C 0.6984(10) 0.8241(15) 0.132(3)
H5_3 H 0.7137 0.8786 0.1125
C9_3 C 0.7465(10) 0.7580(15) 0.163(3)
H6_3 H 0.7942 0.7680 0.1635
C10_3 C 0.7260(9) 0.6786(12) 0.1923(16)
C11_3 C 0.6591(10) 0.6633(15) 0.190(3)
H7_3 H 0.6457 0.6073 0.2069
C12_3 C 0.6070(11) 0.7281(19) 0.164(3)
H8_3 H 0.5605 0.7162 0.1700
O17_2 O 0.7735(9) 0.5463(10) 0.3359(14)
O20_3 O 0.8588(7) 0.6348(11) 0.2726(16)
As1_3 As 0.44259(8) 0.89955(11) 0.41125(16)
S1_3 S 0.2091(3) 0.5939(4) 0.2682(5)
C1_3 C 0.3748(9) 0.8102(12) 0.3700(18)
C2_3 C 0.3016(10) 0.8241(15) 0.368(3)
H1_3 H 0.2863 0.8786 0.3875
C3_3 C 0.2535(10) 0.7580(15) 0.337(3)
H2_3 H 0.2058 0.7680 0.3365
C4_3 C 0.2740(9) 0.6786(12) 0.3077(16)
C5_3 C 0.3409(10) 0.6633(15) 0.310(3)
H3_3 H 0.3543 0.6073 0.2931
C6_3 C 0.3930(11) 0.7281(19) 0.336(3)
H4_3 H 0.4395 0.7162 0.3300
O1_3 O 0.4284(6) 0.9607(8) 0.5352(11)
O5_2 O 0.2265(9) 0.5463(10) 0.1641(14)
O6_3 O 0.1412(7) 0.6348(11) 0.2274(16)
O7_3 O 0.5716(6) 0.9607(8) 0.9648(11)
As2_4 As 0.05741(8) 0.39955(11) 0.08875(16)
S2_4 S 0.2909(3) 0.0939(4) 0.2318(5)
C7_4 C 0.1252(9) 0.3102(12) 0.1300(18)
C8_4 C 0.1984(10) 0.3241(15) 0.132(3)
H5_4 H 0.2137 0.3786 0.1125
C9_4 C 0.2465(10) 0.2580(15) 0.163(3)
H6_4 H 0.2942 0.2680 0.1635
C10_4 C 0.2260(9) 0.1786(12) 0.1923(16)
C11_4 C 0.1591(10) 0.1633(15) 0.190(3)
H7_4 H 0.1457 0.1073 0.2069
C12_4 C 0.1070(11) 0.2281(19) 0.164(3)
H8_4 H 0.0605 0.2162 0.1700
O20_4 O 0.3588(7) 0.1348(11) 0.2726(16)
O7_4 O 0.0716(6) 0.4607(8) 0.9648(11)
As1_4 As 0.94259(8) 0.39955(11) 0.41125(16)
S1_4 S 0.7091(3) 0.0939(4) 0.2682(5)
C1_4 C 0.8748(9) 0.3102(12) 0.3700(18)
C2_4 C 0.8016(10) 0.3241(15) 0.368(3)
H1_4 H 0.7863 0.3786 0.3875
C3_4 C 0.7535(10) 0.2580(15) 0.337(3)
H2_4 H 0.7058 0.2680 0.3365
C4_4 C 0.7740(9) 0.1786(12) 0.3077(16)
C5_4 C 0.8409(10) 0.1633(15) 0.310(3)
H3_4 H 0.8543 0.1073 0.2931
C6_4 C 0.8930(11) 0.2281(19) 0.336(3)
H4_4 H 0.9395 0.2162 0.3300
O1_4 O 0.9284(6) 0.4607(8) 0.5352(11)
O6_4 O 0.6412(7) 0.1348(11) 0.2274(16)
loop_
_geom_bond_atom_site_label_1
_geom_bond_atom_site_label_2
_geom_bond_site_symmetry_1
_geom_bond_site_symmetry_2
Pb2 O1 1_555 1_555
As1 C1 1_555 1_555
S1 C4 1_555 1_555
C1 C2 1_555 1_555
C2 H1 1_555 1_555
C3 C2 1_555 1_555
H2 C3 1_555 1_555
C4 C3 1_555 1_555
C5 C4 1_555 1_555
H3 C5 1_555 1_555
C6 C1 1_555 1_555
H4 C6 1_555 1_555
O1 As1 1_555 1_555
O2 As1 1_555 1_555
O3 As1 1_555 1_555
O4 S1 1_555 1_555
O5 S1 1_555 1_555
O6 S1 1_555 1_555
Pb4 O2 1_555 1_555
Pb5 O3 1_555 1_555
Pb6 O4 1_555 1_555
O7 Pb2 1_555 1_555
C5 C6 1_555 1_555
Pb5 O8 1_555 1_555
Pb4 O11 1_555 1_555
Pb10 O14 1_555 1_555
Pb11 O17 1_555 1_555
As2 C7 1_555 1_555
S2 C10 1_555 1_555
C7 C8 1_555 1_555
C8 H5 1_555 1_555
C9 C8 1_555 1_555
H6 C9 1_555 1_555
C10 C9 1_555 1_555
C11 C10 1_555 1_555
H7 C11 1_555 1_555
C12 C7 1_555 1_555
H8 C12 1_555 1_555
O8 As2 1_555 1_555
O11 As2 1_555 1_555
O14 S2 1_555 1_555
O17 S2 1_555 1_555
O20 S2 1_555 1_555
C11 C12 1_555 1_555
O9 Pb1 1_555 1_555
O12 Pb1 1_555 1_555
O13 Pb3 1_555 1_555
O18 Pb1 1_555 1_555
Pb3 O10 1_555 1_555
Pb11 O1_2 1_555 1_555
Pb2_2 O1_2 1_555 1_555
As1_2 C1_2 1_555 1_555
S1_2 C4_2 1_555 1_555
C1_2 C2_2 1_555 1_555
C2_2 H1_2 1_555 1_555
C3_2 C2_2 1_555 1_555
H2_2 C3_2 1_555 1_555
C4_2 C3_2 1_555 1_555
C5_2 C4_2 1_555 1_555
H3_2 C5_2 1_555 1_555
C6_2 C1_2 1_555 1_555
H4_2 C6_2 1_555 1_555
O1_2 As1_2 1_555 1_555
O2_2 As1_2 1_555 1_555
O4_2 S1_2 1_555 1_555
O19 S1_2 1_555 1_555
O6_2 S1_2 1_555 1_555
Pb10 O2_2 1_555 1_555
Pb12_2 O2_2 1_555 1_555
O9_2 Pb11 1_555 1_555
O12_2 Pb11 1_555 1_555
O15_2 Pb11 1_555 1_555
Pb2_2 O9_2 1_555 1_555
C5_2 C6_2 1_555 1_555
Pb10 O11_2 1_555 1_555
Pb7 O7_2 1_555 1_555
Pb6 O3_2 1_555 1_555
O7_2 Pb2_3 1_555 1_555
O10_2 Pb2_3 1_555 1_555
O13_2 Pb7 1_555 1_555
O16_2 Pb7 1_555 1_555
Pb7 O10_2 1_555 1_555
Pb6 O8_2 1_555 1_555
Pb12_3 O8_2 1_555 1_555
As2_2 C7_2 1_555 1_555
S2_2 C10_2 1_555 1_555
C7_2 C8_2 1_555 1_555
C8_2 H5_2 1_555 1_555
C9_2 C8_2 1_555 1_555
H6_2 C9_2 1_555 1_555
C10_2 C9_2 1_555 1_555
C11_2 C10_2 1_555 1_555
H7_2 C11_2 1_555 1_555
C12_2 C7_2 1_555 1_555
H8_2 C12_2 1_555 1_555
O8_2 As2_2 1_555 1_555
O14_2 S2_2 1_555 1_555
O18 S2_2 1_555 1_555
O20_2 S2_2 1_555 1_555
C11_2 C12_2 1_555 1_555
O18_2 Pb5 1_555 1_555
Pb6 O17_2 1_555 1_555
As2_3 C7_3 1_555 1_555
S2_3 C10_3 1_555 1_555
C7_3 C8_3 1_555 1_555
C8_3 H5_3 1_555 1_555
C9_3 C8_3 1_555 1_555
H6_3 C9_3 1_555 1_555
C10_3 C9_3 1_555 1_555
C11_3 C10_3 1_555 1_555
H7_3 C11_3 1_555 1_555
C12_3 C7_3 1_555 1_555
H8_3 C12_3 1_555 1_555
O9 As2_3 1_555 1_555
O13 As2_3 1_555 1_555
O16_2 S2_3 1_555 1_555
O17_2 S2_3 1_555 1_555
O20_3 S2_3 1_555 1_555
C11_3 C12_3 1_555 1_555
Pb12 O1_3 1_555 1_555
As1_3 C1_3 1_555 1_555
S1_3 C4_3 1_555 1_555
C1_3 C2_3 1_555 1_555
C2_3 H1_3 1_555 1_555
C3_3 C2_3 1_555 1_555
H2_3 C3_3 1_555 1_555
C4_3 C3_3 1_555 1_555
C5_3 C4_3 1_555 1_555
H3_3 C5_3 1_555 1_555
C6_3 C1_3 1_555 1_555
H4_3 C6_3 1_555 1_555
O1_3 As1_3 1_555 1_555
O10 As1_3 1_555 1_555
O12 As1_3 1_555 1_555
O15_2 S1_3 1_555 1_555
O5_2 S1_3 1_555 1_555
O6_3 S1_3 1_555 1_555
O7_3 Pb12 1_555 1_555
C5_3 C6_3 1_555 1_555
As2_4 C7_4 1_555 1_555
S2_4 C10_4 1_555 1_555
C7_4 C8_4 1_555 1_555
C8_4 H5_4 1_555 1_555
C9_4 C8_4 1_555 1_555
H6_4 C9_4 1_555 1_555
C10_4 C9_4 1_555 1_555
C11_4 C10_4 1_555 1_555
H7_4 C11_4 1_555 1_555
C12_4 C7_4 1_555 1_555
H8_4 C12_4 1_555 1_555
O9_2 As2_4 1_555 1_555
O16 S2_4 1_555 1_555
O18_2 S2_4 1_555 1_555
O20_4 S2_4 1_555 1_555
C11_4 C12_4 1_555 1_555
Pb10 O7_4 1_555 1_555
O7_4 Pb12_2 1_555 1_555
Pb6 O1_4 1_555 1_555
Pb12_3 O1_4 1_555 1_555
As1_4 C1_4 1_555 1_555
S1_4 C4_4 1_555 1_555
C1_4 C2_4 1_555 1_555
C2_4 H1_4 1_555 1_555
C3_4 C2_4 1_555 1_555
H2_4 C3_4 1_555 1_555
C4_4 C3_4 1_555 1_555
C5_4 C4_4 1_555 1_555
H3_4 C5_4 1_555 1_555
C6_4 C1_4 1_555 1_555
H4_4 C6_4 1_555 1_555
O1_4 As1_4 1_555 1_555
O10_2 As1_4 1_555 1_555
O15 S1_4 1_555 1_555
O19_2 S1_4 1_555 1_555
O6_4 S1_4 1_555 1_555
C5_4 C6_4 1_555 1_555

#END
