
###############################################################################
#
# This file contains modified crystal structure data generated from the
# MOF subset of the Cambridge Structural Database (CSD) v543 
# hosted by the Cambridge Crystallographic Data Centre (CCDC).
#
# This work is licensed under the Creative Commons
# Attribution-NonCommercial-ShareAlike 4.0 International License.
# To view a copy of this license, visit
# http://creativecommons.org/licenses/by-nc-sa/4.0/
# or send a letter to
# Creative Commons, PO Box 1866, Mountain View, CA 94042, USA.
#
# CIF created using the CSD Python API on 29 September 2022
# The structure has been converted into the P1 space group
# The structure has a 3D framework
# The original CSD entry OLANEW is in the triclinic crystal system
# The framework has been calculated to contain at least 10.0% void space
# The void calculation uses a probe of radius 1.32A, grid spacing 0.4
# H atom positions have been added when not included in the experimental data
#
###############################################################################

data_OLANEW
_chemical_formula_moiety         '(C184 H156 Cd15 Co4 N24 O122)n'
_symmetry_cell_setting           triclinic
_symmetry_space_group_name_H-M   'P 1'
_symmetry_Int_Tables_number      1
_space_group_name_Hall           'P 1'
loop_
_symmetry_equiv_pos_site_id
_symmetry_equiv_pos_as_xyz
1 x,y,z
_cell_length_a                   16.413(5)
_cell_length_b                   18.430(5)
_cell_length_c                   24.700(5)
_cell_angle_alpha                87.900(5)
_cell_angle_beta                 85.395(5)
_cell_angle_gamma                75.058(5)
_cell_volume                     7194.62
loop_
_atom_site_label
_atom_site_type_symbol
_atom_site_fract_x
_atom_site_fract_y
_atom_site_fract_z
C26 C 0.0266(7) 0.0302(7) 0.3908(5)
H12 H 0.0798 0.0039 0.3767
C27 C 0.0152(7) 0.0582(7) 0.4424(5)
H13 H 0.0611 0.0510 0.4636
O21 O 0.0192(5) 0.9776(5) 0.2784(3)
Cd1 Cd 0.24619(4) 0.17842(4) 0.35282(3)
Cd4 Cd 0.72753(6) 0.23500(4) 0.03138(3)
Cd7 Cd 0.60974(7) 0.49941(6) 0.18520(5)
Co2 Co 0.23631(8) 0.36464(7) 0.15232(5)
O5 O 0.1158(4) 0.1706(4) 0.3239(3)
O6 O 0.0120(8) 0.4030(8) 0.5323(6)
O7 O 0.1201(4) 0.2361(5) 0.3969(3)
O23 O 0.7566(5) 0.1733(5) 0.4911(3)
O24 O 0.5966(5) 0.2521(5) 0.0782(4)
O25 O 0.3547(4) 0.2048(4) 0.3846(4)
O27 O 0.4536(5) 0.0981(5) 0.3682(4)
O29 O 0.4373(7) 0.4226(6) 0.4513(5)
O31 O 0.5614(7) 0.4031(6) 0.4824(6)
O34 O 0.6259(9) 0.4469(8) 0.2747(6)
O36 O 0.5980(9) 0.6228(8) 0.1594(8)
O37 O 0.7939(5) 0.1778(4) 0.1061(3)
O38 O 0.7475(6) 0.4964(6) 0.1886(4)
O39 O 0.7465(6) 0.0967(5) 0.0622(3)
O40 O 0.6668(6) 0.3718(5) 0.1646(4)
O41 O 0.0765(7) 0.5704(5) 0.1583(5)
O42 O 0.5724(6) 0.4842(6) 0.0964(4)
O43 O 0.1957(5) 0.2030(4) 0.0604(3)
O44 O 0.3112(5) 0.0964(4) 0.2872(3)
O45 O 0.4292(5) 0.0111(4) 0.2644(3)
O46 O 0.5504(6) 0.1304(6) 0.0428(4)
O47 O 0.5579(9) 0.0167(6) 0.0690(5)
O48 O 0.4723(6) 0.5161(7) 0.1999(5)
O49 O 0.4544(8) 0.5868(9) 0.2694(6)
O50 O 0.1849(7) 0.6105(7) 0.3881(4)
O51 O 0.0750(8) 0.6021(10) 0.3519(5)
O52 O 0.4627(5) 0.3863(4) 0.0855(3)
O53 O 0.2123(4) 0.2973(4) 0.3086(3)
O59 O 0.3087(7) 0.6476(5) 0.0158(4)
N4 N 0.8787(5) 0.0450(4) 0.2851(3)
N5 N 0.8816(5) 0.0799(4) 0.3811(3)
N6 N 0.7298(5) 0.1513(4) 0.4028(3)
N7 N 0.1906(6) 0.4702(5) 0.1712(4)
N8 N 0.1431(5) 0.3865(5) 0.1105(3)
N9 N 0.2517(5) 0.2656(5) 0.1209(4)
N10 N 0.1829(5) 0.3341(5) 0.2198(3)
N11 N 0.3303(5) 0.3429(4) 0.1938(3)
N12 N 0.3206(5) 0.3897(4) 0.0983(3)
C14 C 0.0807(7) 0.2150(6) 0.3620(4)
C24 C 0.9546(6) 0.0189(5) 0.3029(4)
C25 C 0.9572(6) 0.0421(5) 0.3601(4)
C28 C 0.9352(7) 0.0972(7) 0.4633(5)
H14 H 0.9269 0.1158 0.4984
C29 C 0.8687(6) 0.1075(5) 0.4306(4)
C30 C 0.7789(6) 0.1485(6) 0.4447(4)
C31 C 0.6440(6) 0.1920(5) 0.4092(4)
C32 C 0.6200(7) 0.2651(6) 0.4293(4)
H15 H 0.6613 0.2871 0.4395
C33 C 0.5359(7) 0.3056(6) 0.4343(5)
C34 C 0.4745(7) 0.2735(6) 0.4178(4)
H16 H 0.4183 0.3009 0.4199
C35 C 0.4958(6) 0.2011(6) 0.3982(4)
C36 C 0.5806(6) 0.1618(6) 0.3945(4)
H17 H 0.5951 0.1130 0.3815
C37 C 0.5105(8) 0.3823(7) 0.4594(6)
C38 C 0.4305(6) 0.1638(6) 0.3828(4)
C39 C 0.8623(6) 0.0220(5) 0.2339(4)
C43 C 0.8146(7) 0.0530(6) 0.1441(4)
C44 C 0.8425(6) 0.0721(5) 0.1916(4)
H20 H 0.8481 0.1207 0.1950
C46 C 0.7832(7) 0.1123(7) 0.1012(4)
C47 C 0.1179(7) 0.5043(6) 0.1506(5)
C48 C 0.0913(7) 0.4549(6) 0.1134(5)
C49 C 0.0187(9) 0.4719(7) 0.0839(6)
C50 C 0.0055(9) 0.4171(8) 0.0526(6)
C51 C 0.0626(8) 0.3468(7) 0.0499(5)
H23 H 0.0542 0.3101 0.0277
C52 C 0.1302(7) 0.3325(6) 0.0798(5)
C53 C 0.1975(7) 0.2594(6) 0.0855(5)
C54 C 0.3161(6) 0.2004(6) 0.1339(5)
C55 C 0.3110(7) 0.1641(5) 0.1841(4)
H24 H 0.2646 0.1810 0.2087
C56 C 0.3753(6) 0.1029(6) 0.1972(4)
C57 C 0.4422(6) 0.0751(6) 0.1595(4)
H25 H 0.4831 0.0316 0.1676
C58 C 0.4488(6) 0.1114(6) 0.1100(4)
C59 C 0.3862(7) 0.1756(5) 0.0972(4)
H26 H 0.3913 0.2015 0.0646
C60 C 0.3706(7) 0.0684(6) 0.2527(4)
C61 C 0.5231(8) 0.0836(6) 0.0704(4)
C62 C 0.2215(7) 0.5081(6) 0.2115(4)
C63 C 0.3026(7) 0.5172(6) 0.2044(5)
H27 H 0.3341 0.5035 0.1716
C64 C 0.3379(8) 0.5461(7) 0.2443(5)
C65 C 0.2864(8) 0.5726(7) 0.2911(5)
H28 H 0.3073 0.5960 0.3176
C66 C 0.2067(8) 0.5646(7) 0.2983(5)
C67 C 0.1722(8) 0.5327(6) 0.2587(4)
H29 H 0.1171 0.5279 0.2638
C68 C 0.4266(9) 0.5522(8) 0.2365(6)
C69 C 0.1502(9) 0.5937(8) 0.3496(6)
C70 C 0.3981(6) 0.3768(5) 0.1128(4)
C71 C 0.4040(7) 0.3503(6) 0.1710(4)
C72 C 0.4711(7) 0.3412(6) 0.2017(5)
H30 H 0.5228 0.3463 0.1861
C73 C 0.4620(7) 0.3244(7) 0.2558(5)
H31 H 0.5075 0.3191 0.2772
C74 C 0.3840(7) 0.3151(7) 0.2797(5)
H32 H 0.3763 0.3039 0.3165
C75 C 0.3206(6) 0.3234(5) 0.2456(4)
C76 C 0.2311(6) 0.3178(5) 0.2609(4)
C77 C 0.0950(6) 0.3348(6) 0.2269(4)
C78 C 0.0382(7) 0.3880(7) 0.2614(5)
H33 H 0.0592 0.4181 0.2831
C82 C 0.0625(7) 0.2878(6) 0.1990(4)
H35 H 0.0991 0.2491 0.1792
C85 C 0.2993(6) 0.4247(5) 0.0472(4)
C86 C 0.2759(7) 0.3870(6) 0.0068(4)
H36 H 0.2800 0.3358 0.0109
C90 C 0.2986(7) 0.5007(6) 0.0397(4)
H38 H 0.3160 0.5263 0.0666
Cd11 Cd 0.08111(6) 0.67049(6) 0.44593(4)
Cd12 Cd 0.63596(6) 0.48584(6) 0.49610(5)
Cd13 Cd 0.36404(6) 0.51416(6) 0.50390(5)
Cd16 Cd 0.39361(5) 0.00351(4) 0.35636(3)
Co3 Co 0.79073(8) 0.10140(7) 0.33712(5)
O62 O 0.2622(5) 0.0717(4) 0.4085(3)
O63 O 0.0232(6) 0.2341(6) 0.5193(4)
O64 O 0.0130(7) 0.2258(5) 0.6072(4)
O72 O 0.7522(5) 0.3487(4) 0.0606(3)
H53 H 0.597735 0.209929 0.104571
H54 H 0.582652 0.300193 0.0979869
H55 H 0.576574 0.472209 0.299184
H56 H 0.629354 0.392355 0.273899
H62 H 0.0314035 0.418265 0.566155
H71 H 0.628711 0.341854 0.181338
H72 H 0.672437 0.365715 0.124586
H73 H 0.513056 0.480212 0.0980654
H74 H 0.57789 0.528218 0.0733482
H75 H 0.649444 0.63752 0.168226
H76 H 0.59197 0.628655 0.119685
H77 H 0.780601 0.443774 0.194278
H78 H 0.768462 0.516555 0.153903
Cd8 Cd 0.66898(7) 0.05213(6) 0.99895(5)
O4 O 0.8502(8) 0.1983(9) 0.9809(5)
O26 O 0.6712(6) 0.1810(5) 0.9627(3)
O30 O 0.5892(14) 0.0552(9) 0.9252(7)
O32 O 0.7992(9) 0.0285(8) 0.9524(7)
O58 O 0.2478(5) 0.6513(4) 0.9394(3)
O60 O 0.1811(6) 0.4154(4) 0.8783(3)
O61 O 0.2314(7) 0.3106(5) 0.9243(4)
C87 C 0.2461(7) 0.4245(6) 0.9597(4)
C88 C 0.2443(7) 0.4999(6) 0.9519(5)
H37 H 0.2249 0.5248 0.9202
C89 C 0.2711(7) 0.5378(6) 0.9912(4)
C91 C 0.2189(7) 0.3812(6) 0.9182(5)
C92 C 0.2757(8) 0.6172(6) 0.9818(5)
Cd14 Cd 0.27247(6) 0.76500(4) 0.96862(3)
Cd15 Cd 0.16538(6) 0.30010(5) 0.84406(4)
O73 O 0.6913(7) 0.3524(5) 0.9842(4)
H43 H 0.623321 0.0618009 0.891194
H44 H 0.572255 0.00734539 0.923943
H49 H 0.8338 0.0584706 0.967887
H51 H 0.838687 0.192907 0.942595
H52 H 0.882961 0.236425 0.982747
Cd5 Cd 0.83462(6) 0.69990(5) 0.15594(4)
O18 O 0.9619(7) 0.6824(6) 0.1015(5)
O20 O 0.9126(9) 0.6195(6) 0.2173(5)
O22 O 0.7081(8) 0.7096(7) 0.2089(6)
O28 O 0.6987(10) 0.9234(6) 0.0030(6)
O33 O 0.8047(7) 0.8286(5) 0.1296(4)
O35 O 0.8591(7) 0.7988(5) 0.2073(4)
C40 C 0.8597(6) 0.9479(6) 0.2262(4)
H18 H 0.8743 0.9127 0.2540
C41 C 0.8360(7) 0.9257(6) 0.1786(4)
C42 C 0.8102(8) 0.9798(6) 0.1373(4)
H19 H 0.7903 0.9665 0.1058
C45 C 0.8309(8) 0.8464(7) 0.1710(5)
O74 O 0.8189(6) 0.5846(4) 0.1217(3)
O75 O 0.7686(7) 0.6894(5) 0.0757(4)
H47 H 0.760703 0.902188 0.00373106
H48 H 0.669712 0.907396 0.036415
H57 H 0.717312 0.671445 0.238751
H58 H 0.688504 0.76058 0.224528
H65 H 0.984035 0.628357 0.0928631
H66 H 0.951638 0.712218 0.0672757
H67 H 0.958059 0.641026 0.228592
H68 H 0.875157 0.612631 0.24965
Cd2 Cd 0.91889(6) 0.32951(6) 0.55407(4)
O2 O 0.8242(8) 0.2548(8) 0.5553(5)
O3 O 0.7273(5) 0.3013(4) 0.2593(3)
O8 O 0.6596(8) 0.4137(9) 0.5742(5)
O9 O 0.8520(6) 0.3979(5) 0.4833(4)
O10 O 0.7518(7) 0.5330(6) 0.5141(5)
O11 O 0.7373(6) 0.4136(6) 0.4390(4)
O12 O 0.6002(9) 0.5555(8) 0.4192(6)
O13 O 0.6378(5) 0.0052(5) 0.5494(3)
O14 O 0.6678(9) 0.0904(8) 0.6596(6)
O16 O 0.4793(6) 0.0808(5) 0.6299(4)
O54 O 0.9926(7) 0.1963(7) 0.1379(6)
O55 O 0.8650(5) 0.2592(5) 0.1642(4)
H1 H 0.8532 0.2295 0.1442
O56 O 0.8172(6) 0.4723(6) 0.2890(4)
H2 H 0.7906 0.5041 0.3107
O57 O 0.9219(6) 0.4791(6) 0.3368(4)
N1 N 0.7515(5) 0.0112(4) 0.3524(3)
N2 N 0.7062(5) 0.1200(4) 0.2892(3)
N3 N 0.8020(5) 0.2001(4) 0.3086(3)
C2 C 0.6706(6) 0.0628(5) 0.2811(4)
C3 C 0.6161(7) 0.0715(7) 0.2408(5)
H3 H 0.5885 0.0345 0.2353
C4 C 0.6025(8) 0.1353(7) 0.2086(5)
H4 H 0.5663 0.1403 0.1808
C5 C 0.6404(7) 0.1915(6) 0.2163(4)
H5 H 0.6315 0.2343 0.1942
C6 C 0.6935(6) 0.1819(6) 0.2592(4)
C7 C 0.7427(6) 0.2349(5) 0.2762(4)
C8 C 0.8498(6) 0.2400(5) 0.3345(4)
C9 C 0.9374(6) 0.2151(5) 0.3310(4)
H6 H 0.9645 0.1789 0.3057
C10 C 0.9847(6) 0.2436(6) 0.3645(4)
C11 C 0.9454(7) 0.2979(6) 0.4015(4)
H7 H 0.9774 0.3164 0.4244
C12 C 0.8569(7) 0.3256(6) 0.4047(4)
C13 C 0.8108(6) 0.2971(5) 0.3704(4)
H8 H 0.7525 0.3165 0.3714
C15 C 0.8122(7) 0.3828(7) 0.4452(5)
H9 H 0.6815 0.0195 0.4513
H21 H 0.9808 0.5191 0.0858
H22 H 0.9578 0.4269 0.0328
C79 C 0.9523(7) 0.3953(6) 0.2631(4)
C80 C 0.9206(7) 0.3493(6) 0.2299(4)
H34 H 0.8627 0.3555 0.2292
C81 C 0.9756(7) 0.2964(6) 0.1993(5)
C83 C 0.8939(8) 0.4536(7) 0.2991(5)
C84 C 0.9460(8) 0.2461(7) 0.1644(5)
O66 O 0.5627(7) 0.5774(6) 0.5487(5)
O70 O 0.8151(7) 0.3895(7) 0.6119(4)
O71 O 0.9250(8) 0.3979(10) 0.6481(5)
H39 H 0.851055 0.207804 0.535382
H40 H 0.808367 0.242258 0.593482
H41 H 0.638464 0.137021 0.640502
H42 H 0.66344 0.0993923 0.699246
H45 H 0.803573 0.490906 0.514938
H46 H 0.760292 0.569718 0.485144
H59 H 0.447961 0.0591737 0.604704
H60 H 0.445354 0.0915376 0.665162
H61 H 0.983141 0.448467 0.511785
H63 H 0.550494 0.598229 0.428035
H64 H 0.648585 0.575038 0.404338
H69 H 0.654086 0.446928 0.605762
H70 H 0.617459 0.383431 0.579588
Cd6 Cd 0.60639(5) 0.99649(4) 0.64364(3)
O1 O 0.6655(5) 0.9439(4) 0.3208(3)
O15 O 0.7378(5) 0.9283(4) 0.5915(3)
O17 O 0.9768(6) 0.7659(6) 0.4807(4)
O19 O 0.9870(7) 0.7742(5) 0.3928(4)
C1 C 0.6969(6) 0.9993(5) 0.3207(4)
C16 C 0.7759(6) 0.9633(5) 0.3982(4)
C17 C 0.7303(6) 0.9803(5) 0.4488(4)
C18 C 0.7578(6) 0.9392(6) 0.4947(4)
C19 C 0.8293(7) 0.8796(6) 0.4911(4)
H10 H 0.8465 0.8511 0.5219
C20 C 0.8751(7) 0.8623(5) 0.4415(4)
C21 C 0.8474(7) 0.9047(5) 0.3955(4)
H11 H 0.8781 0.8930 0.3622
C22 C 0.7073(7) 0.9589(6) 0.5481(4)
C23 C 0.9515(7) 0.7967(7) 0.4389(5)
Cd9 Cd 0.75381(4) 0.82158(4) 0.64718(3)
O65 O 0.5464(5) 0.9019(5) 0.6318(4)
O68 O 0.6888(5) 0.9036(4) 0.7128(3)
O69 O 0.5708(5) 0.9889(4) 0.7356(3)
O1_2 O 0.3345(5) 0.0561(4) 0.6792(3)
C1_2 C 0.3031(6) 0.0007(5) 0.6793(4)
C16_2 C 0.2241(6) 0.0367(5) 0.6018(4)
C17_2 C 0.2697(6) 0.0197(5) 0.5512(4)
C18_2 C 0.2422(6) 0.0608(6) 0.5053(4)
C19_2 C 0.1707(7) 0.1204(6) 0.5089(4)
H10_2 H 0.1535 0.1489 0.4781
C20_2 C 0.1249(7) 0.1377(5) 0.5585(4)
C21_2 C 0.1526(7) 0.0953(5) 0.6045(4)
H11_2 H 0.1219 0.1070 0.6378
C22_2 C 0.2927(7) 0.0411(6) 0.4519(4)
C23_2 C 0.0485(7) 0.2033(7) 0.5611(5)
Co1 Co 0.20927(8) 0.89860(7) 0.66288(5)
O2_2 O 0.1758(8) 0.7452(8) 0.4447(5)
O3_2 O 0.2727(5) 0.6987(4) 0.7407(3)
O8_2 O 0.3404(8) 0.5863(9) 0.4258(5)
O9_2 O 0.1480(6) 0.6021(5) 0.5167(4)
O10_2 O 0.2482(7) 0.4670(6) 0.4859(5)
O11_2 O 0.2627(6) 0.5864(6) 0.5610(4)
O12_2 O 0.3998(9) 0.4445(8) 0.5808(6)
O13_2 O 0.3622(5) 0.9948(5) 0.4506(3)
O14_2 O 0.3322(9) 0.9096(8) 0.3404(6)
O16_2 O 0.5207(6) 0.9192(5) 0.3701(4)
O54_2 O 0.0074(7) 0.8037(7) 0.8621(6)
O55_2 O 0.1350(5) 0.7408(5) 0.8358(4)
H1_2 H 0.1468 0.7705 0.8558
O56_2 O 0.1828(6) 0.5277(6) 0.7110(4)
H2_2 H 0.2094 0.4959 0.6893
O57_2 O 0.0781(6) 0.5209(6) 0.6632(4)
N1_2 N 0.2485(5) 0.9888(4) 0.6476(3)
N2_2 N 0.2938(5) 0.8800(4) 0.7108(3)
N3_2 N 0.1980(5) 0.7999(4) 0.6914(3)
C2_2 C 0.3294(6) 0.9372(5) 0.7189(4)
C3_2 C 0.3839(7) 0.9285(7) 0.7592(5)
H3_2 H 0.4115 0.9655 0.7647
C4_2 C 0.3975(8) 0.8647(7) 0.7914(5)
H4_2 H 0.4337 0.8597 0.8192
C5_2 C 0.3596(7) 0.8085(6) 0.7837(4)
H5_2 H 0.3685 0.7657 0.8058
C6_2 C 0.3065(6) 0.8181(6) 0.7408(4)
C7_2 C 0.2573(6) 0.7651(5) 0.7238(4)
C8_2 C 0.1502(6) 0.7600(5) 0.6655(4)
C9_2 C 0.0626(6) 0.7849(5) 0.6690(4)
H6_2 H 0.0355 0.8211 0.6943
C10_2 C 0.0153(6) 0.7564(6) 0.6355(4)
C11_2 C 0.0546(7) 0.7021(6) 0.5985(4)
H7_2 H 0.0226 0.6836 0.5756
C12_2 C 0.1431(7) 0.6744(6) 0.5953(4)
C13_2 C 0.1892(6) 0.7029(5) 0.6296(4)
H8_2 H 0.2475 0.6835 0.6286
C15_2 C 0.1878(7) 0.6172(7) 0.5548(5)
H9_2 H 0.3185 0.9805 0.5487
H21_2 H 0.0192 0.4809 0.9142
H22_2 H 0.0422 0.5731 0.9672
C79_2 C 0.0477(7) 0.6047(6) 0.7369(4)
C80_2 C 0.0794(7) 0.6507(6) 0.7701(4)
H34_2 H 0.1373 0.6445 0.7708
C81_2 C 0.0244(7) 0.7036(6) 0.8007(5)
C83_2 C 0.1061(8) 0.5464(7) 0.7009(5)
C84_2 C 0.0540(8) 0.7539(7) 0.8356(5)
O67 O 0.4386(7) 0.5969(6) 0.5176(6)
N13 N 0.1213(5) 0.9550(4) 0.7149(3)
N14 N 0.1184(5) 0.9201(4) 0.6189(3)
N15 N 0.2702(5) 0.8487(4) 0.5972(3)
H39_2 H 0.148945 0.792196 0.464618
H40_2 H 0.191633 0.757742 0.406518
H41_2 H 0.361536 0.862979 0.359498
H42_2 H 0.33656 0.900608 0.300754
H45_2 H 0.196427 0.509094 0.485062
H46_2 H 0.239708 0.430282 0.514856
H59_2 H 0.552039 0.940826 0.395296
H60_2 H 0.554646 0.908462 0.334838
H61_2 H 0.0168589 0.551533 0.488215
H63_2 H 0.449506 0.401771 0.571965
H64_2 H 0.351415 0.424962 0.595662
H69_2 H 0.345914 0.553072 0.394238
H70_2 H 0.382541 0.616569 0.420412
O18_2 O 0.0381(7) 0.3176(6) 0.8985(5)
O20_2 O 0.0874(9) 0.3805(6) 0.7827(5)
O22_2 O 0.2919(8) 0.2904(7) 0.7911(6)
O28_2 O 0.3013(10) 0.0766(6) 0.9970(6)
O33_2 O 0.1953(7) 0.1714(5) 0.8704(4)
O35_2 O 0.1409(7) 0.2012(5) 0.7927(4)
C40_2 C 0.1403(6) 0.0521(6) 0.7738(4)
H18_2 H 0.1257 0.0873 0.7460
C41_2 C 0.1640(7) 0.0743(6) 0.8214(4)
C42_2 C 0.1898(8) 0.0202(6) 0.8627(4)
H19_2 H 0.2097 0.0335 0.8942
C45_2 C 0.1691(8) 0.1536(7) 0.8290(5)
H47_2 H 0.239297 0.0978118 0.996269
H48_2 H 0.330288 0.0926042 0.963585
H57_2 H 0.282688 0.328555 0.761249
H58_2 H 0.311496 0.23942 0.775472
H65_2 H 0.0159652 0.371643 0.907137
H66_2 H 0.0483618 0.287782 0.932724
H67_2 H 0.0419412 0.358974 0.771408
H68_2 H 0.124843 0.387369 0.75035
Cd8_2 Cd 0.33102(7) 0.94787(6) 0.00105(5)
O4_2 O 0.1498(8) 0.8017(9) 0.0191(5)
O26_2 O 0.3288(6) 0.8190(5) 0.0373(3)
O30_2 O 0.4108(14) 0.9448(9) 0.0748(7)
O32_2 O 0.2008(9) 0.9715(8) 0.0476(7)
C87_2 C 0.7539(7) 0.5755(6) 0.0403(4)
C88_2 C 0.7557(7) 0.5001(6) 0.0481(5)
H37_2 H 0.7751 0.4752 0.0798
C89_2 C 0.7289(7) 0.4622(6) 0.0088(4)
C91_2 C 0.7811(7) 0.6188(6) 0.0818(5)
C92_2 C 0.7243(8) 0.3828(6) 0.0182(5)
H43_2 H 0.376679 0.938199 0.108806
H44_2 H 0.427745 0.992655 0.0760567
H49_2 H 0.1662 0.941529 0.0321128
H51_2 H 0.161313 0.807093 0.0574052
H52_2 H 0.117039 0.763575 0.0172532
Cd7_2 Cd 0.39026(7) 0.50059(6) 0.81480(5)
Co2_2 Co 0.76369(8) 0.63536(7) 0.84768(5)
O5_2 O 0.8842(4) 0.8294(4) 0.6761(3)
O6_2 O 0.9880(8) 0.5970(8) 0.4677(6)
O7_2 O 0.8799(4) 0.7639(5) 0.6031(3)
O23_2 O 0.2434(5) 0.8267(5) 0.5089(3)
O24_2 O 0.4034(5) 0.7479(5) 0.9218(4)
O25_2 O 0.6453(4) 0.7952(4) 0.6154(4)
O34_2 O 0.3741(9) 0.5531(8) 0.7253(6)
O36_2 O 0.4020(9) 0.3772(8) 0.8406(8)
O37_2 O 0.2061(5) 0.8222(4) 0.8939(3)
O38_2 O 0.2525(6) 0.5036(6) 0.8114(4)
O39_2 O 0.2535(6) 0.9033(5) 0.9378(3)
O40_2 O 0.3332(6) 0.6282(5) 0.8354(4)
O41_2 O 0.9235(7) 0.4296(5) 0.8417(5)
O42_2 O 0.4276(6) 0.5158(6) 0.9036(4)
O43_2 O 0.8043(5) 0.7970(4) 0.9396(3)
O46_2 O 0.4496(6) 0.8696(6) 0.9572(4)
O47_2 O 0.4421(9) 0.9833(6) 0.9310(5)
O48_2 O 0.5277(6) 0.4839(7) 0.8001(5)
O49_2 O 0.5456(8) 0.4132(9) 0.7306(6)
O52_2 O 0.5373(5) 0.6137(4) 0.9145(3)
O53_2 O 0.7877(4) 0.7027(4) 0.6914(3)
N7_2 N 0.8094(6) 0.5298(5) 0.8288(4)
N8_2 N 0.8569(5) 0.6135(5) 0.8895(3)
N9_2 N 0.7483(5) 0.7344(5) 0.8791(4)
N10_2 N 0.8171(5) 0.6659(5) 0.7802(3)
N11_2 N 0.6697(5) 0.6571(4) 0.8062(3)
N12_2 N 0.6794(5) 0.6103(4) 0.9017(3)
C14_2 C 0.9193(7) 0.7850(6) 0.6380(4)
C24_2 C 0.0454(6) 0.9811(5) 0.6971(4)
C25_2 C 0.0428(6) 0.9579(5) 0.6399(4)
C28_2 C 0.0648(7) 0.9028(7) 0.5367(5)
H14_2 H 0.0731 0.8842 0.5016
C29_2 C 0.1313(6) 0.8925(5) 0.5694(4)
C30_2 C 0.2211(6) 0.8515(6) 0.5553(4)
C31_2 C 0.3560(6) 0.8080(5) 0.5908(4)
C32_2 C 0.3800(7) 0.7349(6) 0.5707(4)
H15_2 H 0.3387 0.7129 0.5605
C33_2 C 0.4641(7) 0.6944(6) 0.5657(5)
C34_2 C 0.5255(7) 0.7265(6) 0.5822(4)
H16_2 H 0.5817 0.6991 0.5801
C35_2 C 0.5042(6) 0.7989(6) 0.6018(4)
C36_2 C 0.4194(6) 0.8382(6) 0.6055(4)
H17_2 H 0.4049 0.8870 0.6185
C37_2 C 0.4895(8) 0.6177(7) 0.5406(6)
C38_2 C 0.5695(6) 0.8362(6) 0.6172(4)
C39_2 C 0.1377(6) 0.9780(5) 0.7661(4)
C43_2 C 0.1854(7) 0.9470(6) 0.8559(4)
C44_2 C 0.1575(6) 0.9279(5) 0.8084(4)
H20_2 H 0.1519 0.8793 0.8050
C46_2 C 0.2168(7) 0.8877(7) 0.8988(4)
C47_2 C 0.8821(7) 0.4957(6) 0.8494(5)
C48_2 C 0.9087(7) 0.5451(6) 0.8866(5)
C49_2 C 0.9813(9) 0.5281(7) 0.9161(6)
C50_2 C 0.9945(9) 0.5829(8) 0.9474(6)
C51_2 C 0.9374(8) 0.6532(7) 0.9501(5)
H23_2 H 0.9458 0.6899 0.9723
C52_2 C 0.8698(7) 0.6675(6) 0.9202(5)
C53_2 C 0.8025(7) 0.7406(6) 0.9145(5)
C54_2 C 0.6839(6) 0.7996(6) 0.8661(5)
C55_2 C 0.6890(7) 0.8359(5) 0.8159(4)
H24_2 H 0.7354 0.8190 0.7913
C56_2 C 0.6247(6) 0.8971(6) 0.8028(4)
C57_2 C 0.5578(6) 0.9249(6) 0.8405(4)
H25_2 H 0.5169 0.9684 0.8324
C58_2 C 0.5512(6) 0.8886(6) 0.8900(4)
C59_2 C 0.6138(7) 0.8244(5) 0.9028(4)
H26_2 H 0.6087 0.7985 0.9354
C60_2 C 0.6294(7) 0.9316(6) 0.7473(4)
C61_2 C 0.4769(8) 0.9164(6) 0.9296(4)
C62_2 C 0.7785(7) 0.4919(6) 0.7885(4)
C63_2 C 0.6974(7) 0.4828(6) 0.7956(5)
H27_2 H 0.6659 0.4965 0.8284
C64_2 C 0.6621(8) 0.4539(7) 0.7557(5)
C65_2 C 0.7136(8) 0.4274(7) 0.7089(5)
H28_2 H 0.6927 0.4040 0.6824
C66_2 C 0.7933(8) 0.4354(7) 0.7017(5)
C67_2 C 0.8278(8) 0.4673(6) 0.7413(4)
H29_2 H 0.8829 0.4721 0.7362
C68_2 C 0.5734(9) 0.4478(8) 0.7635(6)
C69_2 C 0.8498(9) 0.4063(8) 0.6504(6)
C70_2 C 0.6019(6) 0.6232(5) 0.8872(4)
C71_2 C 0.5960(7) 0.6497(6) 0.8290(4)
C72_2 C 0.5289(7) 0.6588(6) 0.7983(5)
H30_2 H 0.4772 0.6537 0.8139
C73_2 C 0.5380(7) 0.6756(7) 0.7442(5)
H31_2 H 0.4925 0.6809 0.7228
C74_2 C 0.6160(7) 0.6849(7) 0.7203(5)
H32_2 H 0.6237 0.6961 0.6835
C75_2 C 0.6794(6) 0.6766(5) 0.7544(4)
C76_2 C 0.7689(6) 0.6822(5) 0.7391(4)
C77_2 C 0.9050(6) 0.6652(6) 0.7731(4)
C78_2 C 0.9618(7) 0.6120(7) 0.7386(5)
H33_2 H 0.9408 0.5819 0.7169
C82_2 C 0.9375(7) 0.7122(6) 0.8010(4)
H35_2 H 0.9009 0.7509 0.8208
C85_2 C 0.7007(6) 0.5753(5) 0.9528(4)
C86_2 C 0.7241(7) 0.6130(6) 0.9932(4)
H36_2 H 0.7200 0.6642 0.9891
C90_2 C 0.7014(7) 0.4993(6) 0.9603(4)
H38_2 H 0.6840 0.4737 0.9334
H53_2 H 0.402265 0.790071 0.895429
H54_2 H 0.417348 0.699807 0.902013
H55_2 H 0.423426 0.527791 0.700816
H56_2 H 0.370646 0.607645 0.726101
H62_2 H 0.968597 0.581735 0.433845
H71_2 H 0.371289 0.658146 0.818662
H72_2 H 0.327563 0.634285 0.875414
H73_2 H 0.486944 0.519788 0.901935
H74_2 H 0.42211 0.471782 0.926652
H75_2 H 0.350556 0.36248 0.831774
H76_2 H 0.40803 0.371345 0.880315
H77_2 H 0.219399 0.556226 0.805722
H78_2 H 0.231538 0.483445 0.846097
H50 H 0.827888 0.974219 0.955605
H50_2 H 0.172112 0.0257813 0.0443948
O21_2 O 0.9808(5) 0.0224(5) 0.7216(3)
C26_2 C 0.9734(7) 0.9698(7) 0.6092(5)
H12_2 H 0.9202 0.9961 0.6233
C27_2 C 0.9848(7) 0.9418(7) 0.5576(5)
H13_2 H 0.9389 0.9490 0.5364
loop_
_geom_bond_atom_site_label_1
_geom_bond_atom_site_label_2
_geom_bond_site_symmetry_1
_geom_bond_site_symmetry_2
C26 H12 1_555 1_555
C27 C26 1_555 1_555
H13 C27 1_555 1_555
Cd1 O5 1_555 1_555
Cd7 O34 1_555 1_555
Co2 N7 1_555 1_555
O5 C14 1_555 1_555
O7 Cd1 1_555 1_555
O23 C30 1_555 1_555
O24 Cd4 1_555 1_555
O25 Cd1 1_555 1_555
O27 C38 1_555 1_555
O29 C37 1_555 1_555
O31 C37 1_555 1_555
O36 Cd7 1_555 1_555
O37 Cd4 1_555 1_555
O38 Cd7 1_555 1_555
O39 Cd4 1_555 1_555
O40 Cd7 1_555 1_555
O41 C47 1_555 1_555
O42 Cd7 1_555 1_555
O43 C53 1_555 1_555
O44 Cd1 1_555 1_555
O45 C60 1_555 1_555
O48 Cd7 1_555 1_555
O49 C68 1_555 1_555
O50 C69 1_555 1_555
O51 C69 1_555 1_555
O52 C70 1_555 1_555
O53 Cd1 1_555 1_555
N4 C24 1_555 1_555
N5 C25 1_555 1_555
N6 C30 1_555 1_555
N7 C47 1_555 1_555
N8 Co2 1_555 1_555
N9 Co2 1_555 1_555
N10 Co2 1_555 1_555
N11 Co2 1_555 1_555
N12 Co2 1_555 1_555
C14 O7 1_555 1_555
C24 C25 1_555 1_555
H14 C28 1_555 1_555
C29 N5 1_555 1_555
C30 C29 1_555 1_555
C31 N6 1_555 1_555
C32 C31 1_555 1_555
H15 C32 1_555 1_555
C33 C32 1_555 1_555
C34 C33 1_555 1_555
H16 C34 1_555 1_555
C35 C34 1_555 1_555
C36 C31 1_555 1_555
H17 C36 1_555 1_555
C37 C33 1_555 1_555
C38 O25 1_555 1_555
C39 N4 1_555 1_555
C44 C39 1_555 1_555
H20 C44 1_555 1_555
C46 O37 1_555 1_555
C47 C48 1_555 1_555
C48 N8 1_555 1_555
C49 C48 1_555 1_555
C50 C49 1_555 1_555
C51 C50 1_555 1_555
H23 C51 1_555 1_555
C52 N8 1_555 1_555
C53 N9 1_555 1_555
C54 N9 1_555 1_555
C55 C54 1_555 1_555
H24 C55 1_555 1_555
C56 C55 1_555 1_555
C57 C56 1_555 1_555
H25 C57 1_555 1_555
C58 C57 1_555 1_555
C59 C54 1_555 1_555
H26 C59 1_555 1_555
C60 O44 1_555 1_555
C61 O46 1_555 1_555
C62 N7 1_555 1_555
C63 C62 1_555 1_555
H27 C63 1_555 1_555
C64 C63 1_555 1_555
C65 C64 1_555 1_555
H28 C65 1_555 1_555
C66 C65 1_555 1_555
C67 C62 1_555 1_555
H29 C67 1_555 1_555
C68 O48 1_555 1_555
C69 C66 1_555 1_555
C70 N12 1_555 1_555
C71 N11 1_555 1_555
C72 C71 1_555 1_555
H30 C72 1_555 1_555
C73 C72 1_555 1_555
H31 C73 1_555 1_555
C74 C73 1_555 1_555
H32 C74 1_555 1_555
C75 N11 1_555 1_555
C76 O53 1_555 1_555
C77 N10 1_555 1_555
C78 C77 1_555 1_555
H33 C78 1_555 1_555
C82 C77 1_555 1_555
H35 C82 1_555 1_555
C85 N12 1_555 1_555
C86 C85 1_555 1_555
H36 C86 1_555 1_555
C90 C85 1_555 1_555
H38 C90 1_555 1_555
Cd11 O50 1_555 1_555
Cd12 O31 1_555 1_555
Cd13 O29 1_555 1_555
Cd16 O27 1_555 1_555
Co3 N4 1_555 1_555
O62 Cd1 1_555 1_555
O72 Cd4 1_555 1_555
O39 C46 1_555 1_555
O44 Cd16 1_555 1_555
O45 Cd16 1_555 1_555
O47 C61 1_555 1_555
O51 Cd11 1_555 1_555
N5 Co3 1_555 1_555
N6 Co3 1_555 1_555
N10 C76 1_555 1_555
C28 C29 1_555 1_555
C35 C36 1_555 1_555
C35 C38 1_555 1_555
C43 C44 1_555 1_555
C43 C46 1_555 1_555
C51 C52 1_555 1_555
C52 C53 1_555 1_555
C56 C60 1_555 1_555
C58 C59 1_555 1_555
C58 C61 1_555 1_555
C64 C68 1_555 1_555
C66 C67 1_555 1_555
C70 C71 1_555 1_555
C74 C75 1_555 1_555
C75 C76 1_555 1_555
Cd16 O62 1_555 1_555
O24 H53 1_555 1_555
O24 H54 1_555 1_555
O34 H55 1_555 1_555
O34 H56 1_555 1_555
O6 H62 1_555 1_555
O40 H71 1_555 1_555
O40 H72 1_555 1_555
O42 H73 1_555 1_555
O42 H74 1_555 1_555
O36 H75 1_555 1_555
O36 H76 1_555 1_555
O38 H77 1_555 1_555
O38 H78 1_555 1_555
Cd8 O26 1_555 1_555
O30 Cd8 1_555 1_555
O32 Cd8 1_555 1_555
O58 C92 1_555 1_555
O60 C91 1_555 1_555
O61 C91 1_555 1_555
C88 C87 1_555 1_555
H37 C88 1_555 1_555
C89 C88 1_555 1_555
C91 C87 1_555 1_555
C92 C89 1_555 1_555
Cd14 O58 1_555 1_555
Cd15 O60 1_555 1_555
O61 Cd15 1_555 1_555
O30 H43 1_555 1_555
O30 H44 1_555 1_555
O32 H49 1_555 1_555
O4 H51 1_555 1_555
O4 H52 1_555 1_555
Cd5 O18 1_555 1_555
O20 Cd5 1_555 1_555
O22 Cd5 1_555 1_555
O33 Cd5 1_555 1_555
O35 Cd5 1_555 1_555
H18 C40 1_555 1_555
C41 C40 1_555 1_555
C42 C41 1_555 1_555
H19 C42 1_555 1_555
C45 O33 1_555 1_555
O74 Cd5 1_555 1_555
O75 Cd5 1_555 1_555
O35 C45 1_555 1_555
C41 C45 1_555 1_555
O28 H47 1_555 1_555
O28 H48 1_555 1_555
O22 H57 1_555 1_555
O22 H58 1_555 1_555
O18 H65 1_555 1_555
O18 H66 1_555 1_555
O20 H67 1_555 1_555
O20 H68 1_555 1_555
Cd2 O2 1_555 1_555
Cd12 O8 1_555 1_555
Co3 N1 1_555 1_555
O3 C7 1_555 1_555
O9 Cd2 1_555 1_555
O10 Cd12 1_555 1_555
O11 Cd12 1_555 1_555
O12 Cd12 1_555 1_555
O54 C84 1_555 1_555
O55 H1 1_555 1_555
O56 H2 1_555 1_555
O57 C83 1_555 1_555
N2 Co3 1_555 1_555
N3 Co3 1_555 1_555
C2 N2 1_555 1_555
C3 C2 1_555 1_555
H3 C3 1_555 1_555
C4 C3 1_555 1_555
H4 C4 1_555 1_555
C5 C4 1_555 1_555
H5 C5 1_555 1_555
C6 N2 1_555 1_555
C7 N3 1_555 1_555
C8 N3 1_555 1_555
C9 C8 1_555 1_555
H6 C9 1_555 1_555
C10 C9 1_555 1_555
C11 C10 1_555 1_555
H7 C11 1_555 1_555
C12 C11 1_555 1_555
C13 C8 1_555 1_555
H8 C13 1_555 1_555
C15 O9 1_555 1_555
C80 C79 1_555 1_555
H34 C80 1_555 1_555
C81 C80 1_555 1_555
C83 O56 1_555 1_555
C84 O55 1_555 1_555
O66 Cd12 1_555 1_555
O70 Cd2 1_555 1_555
O71 Cd2 1_555 1_555
O11 C15 1_555 1_555
C5 C6 1_555 1_555
C6 C7 1_555 1_555
C12 C13 1_555 1_555
C12 C15 1_555 1_555
C79 C83 1_555 1_555
C81 C84 1_555 1_555
O2 H39 1_555 1_555
O2 H40 1_555 1_555
O14 H41 1_555 1_555
O14 H42 1_555 1_555
O10 H45 1_555 1_555
O10 H46 1_555 1_555
O16 H59 1_555 1_555
O16 H60 1_555 1_555
O12 H63 1_555 1_555
O12 H64 1_555 1_555
O8 H69 1_555 1_555
O8 H70 1_555 1_555
O1 C1 1_555 1_555
O15 Cd6 1_555 1_555
O17 C23 1_555 1_555
O19 C23 1_555 1_555
C17 C16 1_555 1_555
C18 C17 1_555 1_555
C19 C18 1_555 1_555
H10 C19 1_555 1_555
C20 C19 1_555 1_555
C21 C16 1_555 1_555
H11 C21 1_555 1_555
C22 O15 1_555 1_555
C23 C20 1_555 1_555
Cd9 O15 1_555 1_555
O65 Cd6 1_555 1_555
O68 Cd6 1_555 1_555
O69 Cd6 1_555 1_555
C18 C22 1_555 1_555
C20 C21 1_555 1_555
Cd9 O68 1_555 1_555
O1_2 C1_2 1_555 1_555
O63 C23_2 1_555 1_555
O64 C23_2 1_555 1_555
C17_2 C16_2 1_555 1_555
C18_2 C17_2 1_555 1_555
C19_2 C18_2 1_555 1_555
H10_2 C19_2 1_555 1_555
C20_2 C19_2 1_555 1_555
C21_2 C16_2 1_555 1_555
H11_2 C21_2 1_555 1_555
C22_2 O62 1_555 1_555
C23_2 C20_2 1_555 1_555
C18_2 C22_2 1_555 1_555
C20_2 C21_2 1_555 1_555
Cd11 O2_2 1_555 1_555
Cd13 O8_2 1_555 1_555
Co1 N1_2 1_555 1_555
O3_2 C7_2 1_555 1_555
O9_2 Cd11 1_555 1_555
O10_2 Cd13 1_555 1_555
O11_2 Cd13 1_555 1_555
O12_2 Cd13 1_555 1_555
O54_2 C84_2 1_555 1_555
O55_2 H1_2 1_555 1_555
O56_2 H2_2 1_555 1_555
O57_2 C83_2 1_555 1_555
N2_2 Co1 1_555 1_555
N3_2 Co1 1_555 1_555
C2_2 N2_2 1_555 1_555
C3_2 C2_2 1_555 1_555
H3_2 C3_2 1_555 1_555
C4_2 C3_2 1_555 1_555
H4_2 C4_2 1_555 1_555
C5_2 C4_2 1_555 1_555
H5_2 C5_2 1_555 1_555
C6_2 N2_2 1_555 1_555
C7_2 N3_2 1_555 1_555
C8_2 N3_2 1_555 1_555
C9_2 C8_2 1_555 1_555
H6_2 C9_2 1_555 1_555
C10_2 C9_2 1_555 1_555
C11_2 C10_2 1_555 1_555
H7_2 C11_2 1_555 1_555
C12_2 C11_2 1_555 1_555
C13_2 C8_2 1_555 1_555
H8_2 C13_2 1_555 1_555
C15_2 O9_2 1_555 1_555
C80_2 C79_2 1_555 1_555
H34_2 C80_2 1_555 1_555
C81_2 C80_2 1_555 1_555
C83_2 O56_2 1_555 1_555
C84_2 O55_2 1_555 1_555
O67 Cd13 1_555 1_555
N13 Co1 1_555 1_555
N14 Co1 1_555 1_555
N15 Co1 1_555 1_555
O11_2 C15_2 1_555 1_555
C5_2 C6_2 1_555 1_555
C6_2 C7_2 1_555 1_555
C12_2 C13_2 1_555 1_555
C12_2 C15_2 1_555 1_555
C79_2 C83_2 1_555 1_555
C81_2 C84_2 1_555 1_555
O2_2 H39_2 1_555 1_555
O2_2 H40_2 1_555 1_555
O14_2 H41_2 1_555 1_555
O14_2 H42_2 1_555 1_555
O10_2 H45_2 1_555 1_555
O10_2 H46_2 1_555 1_555
O16_2 H59_2 1_555 1_555
O16_2 H60_2 1_555 1_555
O12_2 H63_2 1_555 1_555
O12_2 H64_2 1_555 1_555
O8_2 H69_2 1_555 1_555
O8_2 H70_2 1_555 1_555
Cd15 O18_2 1_555 1_555
O20_2 Cd15 1_555 1_555
O22_2 Cd15 1_555 1_555
O33_2 Cd15 1_555 1_555
O35_2 Cd15 1_555 1_555
H18_2 C40_2 1_555 1_555
C41_2 C40_2 1_555 1_555
C42_2 C41_2 1_555 1_555
H19_2 C42_2 1_555 1_555
C45_2 O33_2 1_555 1_555
O35_2 C45_2 1_555 1_555
C41_2 C45_2 1_555 1_555
O28_2 H47_2 1_555 1_555
O28_2 H48_2 1_555 1_555
O22_2 H57_2 1_555 1_555
O22_2 H58_2 1_555 1_555
O18_2 H65_2 1_555 1_555
O18_2 H66_2 1_555 1_555
O20_2 H67_2 1_555 1_555
O20_2 H68_2 1_555 1_555
Cd8_2 O26_2 1_555 1_555
O30_2 Cd8_2 1_555 1_555
O32_2 Cd8_2 1_555 1_555
O72 C92_2 1_555 1_555
O74 C91_2 1_555 1_555
O75 C91_2 1_555 1_555
C88_2 C87_2 1_555 1_555
H37_2 C88_2 1_555 1_555
C89_2 C88_2 1_555 1_555
C91_2 C87_2 1_555 1_555
C92_2 C89_2 1_555 1_555
O30_2 H43_2 1_555 1_555
O30_2 H44_2 1_555 1_555
O32_2 H49_2 1_555 1_555
O4_2 H51_2 1_555 1_555
O4_2 H52_2 1_555 1_555
Cd9 O5_2 1_555 1_555
Cd7_2 O34_2 1_555 1_555
Co2_2 N7_2 1_555 1_555
O5_2 C14_2 1_555 1_555
O7_2 Cd9 1_555 1_555
O23_2 C30_2 1_555 1_555
O24_2 Cd14 1_555 1_555
O25_2 Cd9 1_555 1_555
O65 C38_2 1_555 1_555
O66 C37_2 1_555 1_555
O67 C37_2 1_555 1_555
O36_2 Cd7_2 1_555 1_555
O37_2 Cd14 1_555 1_555
O38_2 Cd7_2 1_555 1_555
O39_2 Cd14 1_555 1_555
O40_2 Cd7_2 1_555 1_555
O41_2 C47_2 1_555 1_555
O42_2 Cd7_2 1_555 1_555
O43_2 C53_2 1_555 1_555
O69 C60_2 1_555 1_555
O48_2 Cd7_2 1_555 1_555
O49_2 C68_2 1_555 1_555
O70 C69_2 1_555 1_555
O71 C69_2 1_555 1_555
O52_2 C70_2 1_555 1_555
O53_2 Cd9 1_555 1_555
N13 C24_2 1_555 1_555
N14 C25_2 1_555 1_555
N15 C30_2 1_555 1_555
N7_2 C47_2 1_555 1_555
N8_2 Co2_2 1_555 1_555
N9_2 Co2_2 1_555 1_555
N10_2 Co2_2 1_555 1_555
N11_2 Co2_2 1_555 1_555
N12_2 Co2_2 1_555 1_555
C14_2 O7_2 1_555 1_555
C24_2 C25_2 1_555 1_555
H14_2 C28_2 1_555 1_555
C29_2 N14 1_555 1_555
C30_2 C29_2 1_555 1_555
C31_2 N15 1_555 1_555
C32_2 C31_2 1_555 1_555
H15_2 C32_2 1_555 1_555
C33_2 C32_2 1_555 1_555
C34_2 C33_2 1_555 1_555
H16_2 C34_2 1_555 1_555
C35_2 C34_2 1_555 1_555
C36_2 C31_2 1_555 1_555
H17_2 C36_2 1_555 1_555
C37_2 C33_2 1_555 1_555
C38_2 O25_2 1_555 1_555
C39_2 N13 1_555 1_555
C44_2 C39_2 1_555 1_555
H20_2 C44_2 1_555 1_555
C46_2 O37_2 1_555 1_555
C47_2 C48_2 1_555 1_555
C48_2 N8_2 1_555 1_555
C49_2 C48_2 1_555 1_555
C50_2 C49_2 1_555 1_555
C51_2 C50_2 1_555 1_555
H23_2 C51_2 1_555 1_555
C52_2 N8_2 1_555 1_555
C53_2 N9_2 1_555 1_555
C54_2 N9_2 1_555 1_555
C55_2 C54_2 1_555 1_555
H24_2 C55_2 1_555 1_555
C56_2 C55_2 1_555 1_555
C57_2 C56_2 1_555 1_555
H25_2 C57_2 1_555 1_555
C58_2 C57_2 1_555 1_555
C59_2 C54_2 1_555 1_555
H26_2 C59_2 1_555 1_555
C60_2 O68 1_555 1_555
C61_2 O46_2 1_555 1_555
C62_2 N7_2 1_555 1_555
C63_2 C62_2 1_555 1_555
H27_2 C63_2 1_555 1_555
C64_2 C63_2 1_555 1_555
C65_2 C64_2 1_555 1_555
H28_2 C65_2 1_555 1_555
C66_2 C65_2 1_555 1_555
C67_2 C62_2 1_555 1_555
H29_2 C67_2 1_555 1_555
C68_2 O48_2 1_555 1_555
C69_2 C66_2 1_555 1_555
C70_2 N12_2 1_555 1_555
C71_2 N11_2 1_555 1_555
C72_2 C71_2 1_555 1_555
H30_2 C72_2 1_555 1_555
C73_2 C72_2 1_555 1_555
H31_2 C73_2 1_555 1_555
C74_2 C73_2 1_555 1_555
H32_2 C74_2 1_555 1_555
C75_2 N11_2 1_555 1_555
C76_2 O53_2 1_555 1_555
C77_2 N10_2 1_555 1_555
C78_2 C77_2 1_555 1_555
H33_2 C78_2 1_555 1_555
C82_2 C77_2 1_555 1_555
H35_2 C82_2 1_555 1_555
C85_2 N12_2 1_555 1_555
C86_2 C85_2 1_555 1_555
H36_2 C86_2 1_555 1_555
C90_2 C85_2 1_555 1_555
H38_2 C90_2 1_555 1_555
O39_2 C46_2 1_555 1_555
O47_2 C61_2 1_555 1_555
N10_2 C76_2 1_555 1_555
C28_2 C29_2 1_555 1_555
C35_2 C36_2 1_555 1_555
C35_2 C38_2 1_555 1_555
C43_2 C44_2 1_555 1_555
C43_2 C46_2 1_555 1_555
C51_2 C52_2 1_555 1_555
C52_2 C53_2 1_555 1_555
C56_2 C60_2 1_555 1_555
C58_2 C59_2 1_555 1_555
C58_2 C61_2 1_555 1_555
C64_2 C68_2 1_555 1_555
C66_2 C67_2 1_555 1_555
C70_2 C71_2 1_555 1_555
C74_2 C75_2 1_555 1_555
C75_2 C76_2 1_555 1_555
O24_2 H53_2 1_555 1_555
O24_2 H54_2 1_555 1_555
O34_2 H55_2 1_555 1_555
O34_2 H56_2 1_555 1_555
O6_2 H62_2 1_555 1_555
O40_2 H71_2 1_555 1_555
O40_2 H72_2 1_555 1_555
O42_2 H73_2 1_555 1_555
O42_2 H74_2 1_555 1_555
O36_2 H75_2 1_555 1_555
O36_2 H76_2 1_555 1_555
O38_2 H77_2 1_555 1_555
O38_2 H78_2 1_555 1_555
C26_2 H12_2 1_555 1_555
C27_2 C26_2 1_555 1_555
H13_2 C27_2 1_555 1_555

#END
