
###############################################################################
#
# This file contains modified crystal structure data generated from the
# MOF subset of the Cambridge Structural Database (CSD) v543 
# hosted by the Cambridge Crystallographic Data Centre (CCDC).
#
# This work is licensed under the Creative Commons
# Attribution-NonCommercial-ShareAlike 4.0 International License.
# To view a copy of this license, visit
# http://creativecommons.org/licenses/by-nc-sa/4.0/
# or send a letter to
# Creative Commons, PO Box 1866, Mountain View, CA 94042, USA.
#
# CIF created using the CSD Python API on 29 September 2022
# The structure has been converted into the P1 space group
# The structure has a 3D framework
# The original CSD entry OLANAS is in the monoclinic crystal system
# The framework has been calculated to contain at least 10.0% void space
# The void calculation uses a probe of radius 1.32A, grid spacing 0.4
# H atom positions have been added when not included in the experimental data
# Generated hydrogen atom positions removed from atoms on special positions
#
###############################################################################

data_OLANAS
_chemical_formula_moiety         '(C184 H192 Co12 N24 Na6 O130 Zn20)n'
_symmetry_cell_setting           triclinic
_symmetry_space_group_name_H-M   'P 1'
_symmetry_Int_Tables_number      1
_space_group_name_Hall           'P 1'
loop_
_symmetry_equiv_pos_site_id
_symmetry_equiv_pos_as_xyz
1 x,y,z
_cell_length_a                   19.108(5)
_cell_length_b                   28.704(5)
_cell_length_c                   13.646(5)
_cell_angle_alpha                90
_cell_angle_beta                 99.582(5)
_cell_angle_gamma                90
_cell_volume                     7380.08
loop_
_atom_site_label
_atom_site_type_symbol
_atom_site_fract_x
_atom_site_fract_y
_atom_site_fract_z
Zn1 Zn 0.19707(4) 0.31411(3) 0.60688(6)
Zn2 Zn 0.31612(6) 0.5000 0.19872(9)
Co1 Co 0.0000 0.27867(3) 0.0000
O3 O 0.1294(4) 0.2959(2) 0.4506(4)
O4 O 0.1917(3) 0.3574(2) 0.4837(4)
O5 O 0.2415(4) 0.4512(3) 0.2009(6)
O6 O 0.1729(6) 0.4465(3) 0.0562(5)
O11 O 0.3015(4) 0.5000 0.0287(6)
O12 O 0.0000 0.0000 0.0000
O13 O 0.2928(3) 0.2883(2) 0.5749(5)
O14 O 0.1103(5) 0.3573(4) 0.6391(6)
O15 O 0.2576(4) 0.3466(3) 0.7257(6)
O16 O 0.3354(5) 0.5000 0.3555(6)
C8 C 0.0492(3) 0.34670(19) 0.1641(4)
C9 C 0.0883(3) 0.3808(2) 0.1286(4)
H4 H 0.0740 0.3924 0.0648
C10 C 0.1481(4) 0.3982(2) 0.1858(4)
C11 C 0.1679(3) 0.3829(2) 0.2814(5)
H5 H 0.2077 0.3955 0.3211
C12 C 0.1288(3) 0.3486(2) 0.3192(4)
C13 C 0.0695(3) 0.3300(2) 0.2604(4)
H6 H 0.0435 0.3067 0.2849
C14 C 0.1956(5) 0.4345(3) 0.1451(6)
C15 C 0.1511(4) 0.3324(3) 0.4244(5)
O18 O 0.1149(3) 0.2010(2) 0.2068(5)
N4 N 0.0205(2) 0.23110(15) 0.1041(3)
N5 N 0.0985(2) 0.28160(15) 0.0176(3)
C24 C 0.0884(3) 0.2261(2) 0.1405(5)
C25 C 0.1354(3) 0.2566(2) 0.0911(4)
C26 C 0.2074(3) 0.2640(3) 0.1187(5)
H10 H 0.2334 0.2478 0.1717
C27 C 0.2402(3) 0.2968(2) 0.0640(5)
H11 H 0.2887 0.3023 0.0807
Na4 Na 0.4034(2) 0.5000 0.0148(3)
O63 O 0.2415(4) 0.5488(3) 0.2009(6)
O65 O 0.1729(6) 0.5535(3) 0.0562(5)
O66 O 0.1619(3) 0.2641(2) 0.6822(4)
O71 O 0.3891(3) 0.55283(17) 0.2009(5)
O72 O 0.3891(3) 0.44717(17) 0.2009(5)
Zn3 Zn 0.19214(12) 0.5000 0.96917(12)
Co1_2 Co 0.0000 0.27867(3) 1.0000
Na1 Na 0.0966(2) -0.0000 0.9852(3)
O8 O 0.1796(4) 0.1962(3) 0.6077(5)
O9 O 0.1109(3) 0.05283(17) 0.7991(5)
O10 O 0.1017(5) 0.0705(2) 0.9527(6)
O12_2 O 0.0000 -0.0000 1.0000
O17 O 0.1995(11) 0.4485(4) 0.8619(9)
C16 C 0.0299(3) 0.20421(19) 0.8547(4)
C17 C 0.0674(3) 0.2233(2) 0.7873(4)
H7 H 0.0611 0.2548 0.7720
C18 C 0.1135(3) 0.1982(2) 0.7415(5)
C19 C 0.1225(4) 0.1508(2) 0.7647(5)
H8 H 0.1518 0.1326 0.7323
C20 C 0.0877(4) 0.1310(2) 0.8357(5)
C21 C 0.0414(3) 0.1580(2) 0.8819(5)
H9 H 0.0186 0.1450 0.9304
C22 C 0.1549(4) 0.2207(3) 0.6709(5)
C23 C 0.1014(5) 0.0815(3) 0.8661(7)
O19 O 0.0941(3) 0.36862(18) 0.8347(4)
N6 N 0.0092(2) 0.32572(17) 0.8990(3)
C28 C 0.2009(3) 0.3209(2) 0.9858(5)
H12 H 0.2223 0.3417 0.9478
C29 C 0.1289(3) 0.31288(19) 0.9663(4)
C30 C 0.0762(3) 0.3380(2) 0.8928(4)
O60 O 0.1995(11) 0.5515(4) 0.8619(9)
Zn16 Zn 0.18388(6) 0.0000 0.80128(9)
O75 O 0.1985(4) -0.0000 0.9713(6)
O12_3 O -0.0000 1.0000 0.0000
Co2 Co 0.0000 0.72133(3) 0.0000
O34 O 0.1149(3) 0.7990(2) 0.2068(5)
N7 N 0.0205(2) 0.76890(15) 0.1041(3)
N8 N 0.0985(2) 0.71840(15) 0.0176(3)
C47 C 0.0884(3) 0.7739(2) 0.1405(5)
C48 C 0.1354(3) 0.7434(2) 0.0911(4)
C49 C 0.2074(3) 0.7360(3) 0.1187(5)
H19 H 0.2334 0.7522 0.1717
C50 C 0.2402(3) 0.7032(2) 0.0640(5)
H20 H 0.2887 0.6977 0.0807
Zn8 Zn 0.19707(4) 0.68589(3) 0.60688(6)
O49 O 0.1294(4) 0.7041(2) 0.4506(4)
O50 O 0.1917(3) 0.6426(2) 0.4837(4)
O57 O 0.2928(3) 0.7117(2) 0.5749(5)
O58 O 0.1103(5) 0.6427(4) 0.6391(6)
O59 O 0.2576(4) 0.6534(3) 0.7257(6)
C77 C 0.0492(3) 0.65330(19) 0.1641(4)
C78 C 0.0883(3) 0.6192(2) 0.1286(4)
H31 H 0.0740 0.6076 0.0648
C79 C 0.1481(4) 0.6018(2) 0.1858(4)
C80 C 0.1679(3) 0.6171(2) 0.2814(5)
H32 H 0.2077 0.6045 0.3211
C81 C 0.1288(3) 0.6514(2) 0.3192(4)
C82 C 0.0695(3) 0.6700(2) 0.2604(4)
H33 H 0.0435 0.6933 0.2849
C83 C 0.1956(5) 0.5655(3) 0.1451(6)
C84 C 0.1511(4) 0.6676(3) 0.4244(5)
O69 O 0.1619(3) 0.7359(2) 0.6822(4)
Na1_2 Na 0.0966(2) 1.0000 0.9852(3)
O12_4 O 0.0000 1.0000 1.0000
Co2_2 Co 0.0000 0.72133(3) 1.0000
O35 O 0.0941(3) 0.63138(18) 0.8347(4)
N9 N 0.0092(2) 0.67428(17) 0.8990(3)
C51 C 0.2009(3) 0.6791(2) 0.9858(5)
H21 H 0.2223 0.6583 0.9478
C52 C 0.1289(3) 0.68712(19) 0.9663(4)
C53 C 0.0762(3) 0.6620(2) 0.8928(4)
O54 O 0.1796(4) 0.8038(3) 0.6077(5)
O55 O 0.1109(3) 0.94717(17) 0.7991(5)
O56 O 0.1017(5) 0.9295(2) 0.9527(6)
C85 C 0.0299(3) 0.79579(19) 0.8547(4)
C86 C 0.0674(3) 0.7767(2) 0.7873(4)
H34 H 0.0611 0.7452 0.7720
C87 C 0.1135(3) 0.8018(2) 0.7415(5)
C88 C 0.1225(4) 0.8492(2) 0.7647(5)
H35 H 0.1518 0.8674 0.7323
C89 C 0.0877(4) 0.8690(2) 0.8357(5)
C90 C 0.0414(3) 0.8420(2) 0.8819(5)
H36 H 0.0186 0.8550 0.9304
C91 C 0.1549(4) 0.7793(3) 0.6709(5)
C92 C 0.1014(5) 0.9185(3) 0.8661(7)
Zn16_2 Zn 0.18388(6) 1.0000 0.80128(9)
O75_2 O 0.1985(4) 1.0000 0.9713(6)
Co1_3 Co 1.0000 0.27867(3) 0.0000
O2 O 0.9059(3) 0.36862(18) 0.1653(4)
O12_5 O 1.0000 0.0000 0.0000
N3 N 0.9908(2) 0.32572(17) 0.1010(3)
C5 C 0.7991(3) 0.3209(2) 0.0142(5)
H3 H 0.7777 0.3417 0.0522
C6 C 0.8711(3) 0.31288(19) 0.0337(4)
C7 C 0.9238(3) 0.3380(2) 0.1072(4)
Zn6 Zn 0.80786(12) 0.5000 0.03083(12)
Na2 Na 0.9034(2) -0.0000 0.0148(3)
O24 O 0.8381(3) 0.2641(2) 0.3178(4)
O25 O 0.8204(4) 0.1962(3) 0.3923(5)
O26 O 0.8891(3) 0.05283(17) 0.2009(5)
O27 O 0.8983(5) 0.0705(2) 0.0473(6)
O33 O 0.8005(11) 0.4485(4) 0.1381(9)
C39 C 0.9701(3) 0.20421(19) 0.1453(4)
C40 C 0.9326(3) 0.2233(2) 0.2127(4)
H16 H 0.9389 0.2548 0.2280
C41 C 0.8865(3) 0.1982(2) 0.2585(5)
C42 C 0.8775(4) 0.1508(2) 0.2353(5)
H17 H 0.8482 0.1326 0.2677
C43 C 0.9123(4) 0.1310(2) 0.1643(5)
C44 C 0.9586(3) 0.1580(2) 0.1181(5)
H18 H 0.9814 0.1450 0.0696
C45 C 0.8451(4) 0.2207(3) 0.3291(5)
C46 C 0.8986(5) 0.0815(3) 0.1339(7)
O61 O 0.8005(11) 0.5515(4) 0.1381(9)
Zn10 Zn 0.80293(4) 0.31411(3) 0.39312(6)
Zn15 Zn 0.81612(6) 0.0000 0.19872(9)
O74 O 0.8015(4) -0.0000 0.0287(6)
Co1_4 Co 1.0000 0.27867(3) 1.0000
O1 O 0.8851(3) 0.2010(2) 0.7932(5)
O12_6 O 1.0000 -0.0000 1.0000
N1 N 0.9795(2) 0.23110(15) 0.8959(3)
N2 N 0.9015(2) 0.28160(15) 0.9824(3)
C1 C 0.9116(3) 0.2261(2) 0.8595(5)
C2 C 0.8646(3) 0.2566(2) 0.9089(4)
C3 C 0.7926(3) 0.2640(3) 0.8813(5)
H1 H 0.7666 0.2478 0.8283
C4 C 0.7598(3) 0.2968(2) 0.9360(5)
H2 H 0.7113 0.3023 0.9193
Zn5 Zn 0.68388(6) 0.5000 0.80128(9)
O20 O 0.8706(4) 0.2959(2) 0.5494(4)
O21 O 0.8083(3) 0.3574(2) 0.5163(4)
O22 O 0.7585(4) 0.4512(3) 0.7991(6)
O23 O 0.8271(6) 0.4465(3) 0.9438(5)
O28 O 0.6985(4) 0.5000 0.9713(6)
O29 O 0.7072(3) 0.2883(2) 0.4251(5)
O30 O 0.8897(5) 0.3573(4) 0.3609(6)
O31 O 0.7424(4) 0.3466(3) 0.2743(6)
O32 O 0.6646(5) 0.5000 0.6445(6)
C31 C 0.9508(3) 0.34670(19) 0.8359(4)
C32 C 0.9117(3) 0.3808(2) 0.8714(4)
H13 H 0.9260 0.3924 0.9352
C33 C 0.8519(4) 0.3982(2) 0.8142(4)
C34 C 0.8321(3) 0.3829(2) 0.7186(5)
H14 H 0.7923 0.3955 0.6789
C35 C 0.8712(3) 0.3486(2) 0.6808(4)
C36 C 0.9305(3) 0.3300(2) 0.7396(4)
H15 H 0.9565 0.3067 0.7151
C37 C 0.8044(5) 0.4345(3) 0.8549(6)
C38 C 0.8489(4) 0.3324(3) 0.5756(5)
Na3 Na 0.5966(2) 0.5000 0.9852(3)
O62 O 0.7585(4) 0.5488(3) 0.7991(6)
O64 O 0.8271(6) 0.5535(3) 0.9438(5)
O70 O 0.6109(3) 0.55283(17) 0.7991(5)
O73 O 0.6109(3) 0.44717(17) 0.7991(5)
O12_7 O 1.0000 1.0000 0.0000
Na2_2 Na 0.9034(2) 1.0000 0.0148(3)
Co2_3 Co 1.0000 0.72133(3) 0.0000
O40 O 0.8381(3) 0.7359(2) 0.3178(4)
O41 O 0.8204(4) 0.8038(3) 0.3923(5)
O42 O 0.8891(3) 0.94717(17) 0.2009(5)
O43 O 0.8983(5) 0.9295(2) 0.0473(6)
C62 C 0.9701(3) 0.79579(19) 0.1453(4)
C63 C 0.9326(3) 0.7767(2) 0.2127(4)
H25 H 0.9389 0.7452 0.2280
C64 C 0.8865(3) 0.8018(2) 0.2585(5)
C65 C 0.8775(4) 0.8492(2) 0.2353(5)
H26 H 0.8482 0.8674 0.2677
C66 C 0.9123(4) 0.8690(2) 0.1643(5)
C67 C 0.9586(3) 0.8420(2) 0.1181(5)
H27 H 0.9814 0.8550 0.0696
C68 C 0.8451(4) 0.7793(3) 0.3291(5)
C69 C 0.8986(5) 0.9185(3) 0.1339(7)
O48 O 0.9059(3) 0.63138(18) 0.1653(4)
N12 N 0.9908(2) 0.67428(17) 0.1010(3)
C74 C 0.7991(3) 0.6791(2) 0.0142(5)
H30 H 0.7777 0.6583 0.0522
C75 C 0.8711(3) 0.68712(19) 0.0337(4)
C76 C 0.9238(3) 0.6620(2) 0.1072(4)
Zn11 Zn 0.80293(4) 0.68589(3) 0.39312(6)
Zn15_2 Zn 0.81612(6) 1.0000 0.19872(9)
O74_2 O 0.8015(4) 1.0000 0.0287(6)
O12_8 O 1.0000 1.0000 1.0000
Co2_4 Co 1.0000 0.72133(3) 1.0000
O36 O 0.8706(4) 0.7041(2) 0.5494(4)
O37 O 0.8083(3) 0.6426(2) 0.5163(4)
O44 O 0.7072(3) 0.7117(2) 0.4251(5)
O45 O 0.8897(5) 0.6427(4) 0.3609(6)
O46 O 0.7424(4) 0.6534(3) 0.2743(6)
C54 C 0.9508(3) 0.65330(19) 0.8359(4)
C55 C 0.9117(3) 0.6192(2) 0.8714(4)
H22 H 0.9260 0.6076 0.9352
C56 C 0.8519(4) 0.6018(2) 0.8142(4)
C57 C 0.8321(3) 0.6171(2) 0.7186(5)
H23 H 0.7923 0.6045 0.6789
C58 C 0.8712(3) 0.6514(2) 0.6808(4)
C59 C 0.9305(3) 0.6700(2) 0.7396(4)
H24 H 0.9565 0.6933 0.7151
C60 C 0.8044(5) 0.5655(3) 0.8549(6)
C61 C 0.8489(4) 0.6676(3) 0.5756(5)
O47 O 0.8851(3) 0.7990(2) 0.7932(5)
N10 N 0.9795(2) 0.76890(15) 0.8959(3)
N11 N 0.9015(2) 0.71840(15) 0.9824(3)
C70 C 0.9116(3) 0.7739(2) 0.8595(5)
C71 C 0.8646(3) 0.7434(2) 0.9089(4)
C72 C 0.7926(3) 0.7360(3) 0.8813(5)
H28 H 0.7666 0.7522 0.8283
C73 C 0.7598(3) 0.7032(2) 0.9360(5)
H29 H 0.7113 0.6977 0.9193
O16_2 O 0.8354(5) -0.0000 0.3555(6)
Zn6_2 Zn 0.30786(12) -0.0000 0.03083(12)
O61_2 O 0.3005(11) 0.0515(4) 0.1381(9)
O63_2 O 0.7415(4) 0.0488(3) 0.2009(6)
O65_2 O 0.6729(6) 0.0535(3) 0.0562(5)
H58 H 0.873403 0.0228159 0.37981
Zn3_2 Zn 0.69214(12) -0.0000 0.96917(12)
O32_2 O 0.1646(5) -0.0000 0.6445(6)
O60_2 O 0.6995(11) 0.0515(4) 0.8619(9)
O62_2 O 0.2585(4) 0.0488(3) 0.7991(6)
O64_2 O 0.3271(6) 0.0535(3) 0.9438(5)
H70 H 0.126597 0.0228159 0.62019
Zn1_2 Zn 0.69707(4) 0.81411(3) 0.60688(6)
Co1_5 Co 0.5000 0.77867(3) 0.0000
O2_2 O 0.4059(3) 0.86862(18) 0.1653(4)
O3_2 O 0.6294(4) 0.7959(2) 0.4506(4)
O4_2 O 0.6917(3) 0.8574(2) 0.4837(4)
O5_2 O 0.7415(4) 0.9512(3) 0.2009(6)
O6_2 O 0.6729(6) 0.9465(3) 0.0562(5)
O12_9 O 0.5000 0.5000 0.0000
O13_2 O 0.7928(3) 0.7883(2) 0.5749(5)
O14_2 O 0.6103(5) 0.8573(4) 0.6391(6)
O15_2 O 0.7576(4) 0.8466(3) 0.7257(6)
O16_3 O 0.8354(5) 1.0000 0.3555(6)
N3_2 N 0.4908(2) 0.82572(17) 0.1010(3)
C5_2 C 0.2991(3) 0.8209(2) 0.0142(5)
H3_2 H 0.2777 0.8417 0.0522
C6_2 C 0.3711(3) 0.81288(19) 0.0337(4)
C7_2 C 0.4238(3) 0.8380(2) 0.1072(4)
C8_2 C 0.5492(3) 0.84670(19) 0.1641(4)
C9_2 C 0.5883(3) 0.8808(2) 0.1286(4)
H4_2 H 0.5740 0.8924 0.0648
C10_2 C 0.6481(4) 0.8982(2) 0.1858(4)
C11_2 C 0.6679(3) 0.8829(2) 0.2814(5)
H5_2 H 0.7077 0.8955 0.3211
C12_2 C 0.6288(3) 0.8486(2) 0.3192(4)
C13_2 C 0.5695(3) 0.8300(2) 0.2604(4)
H6_2 H 0.5435 0.8067 0.2849
C14_2 C 0.6956(5) 0.9345(3) 0.1451(6)
C15_2 C 0.6511(4) 0.8324(3) 0.4244(5)
Zn6_3 Zn 0.30786(12) 1.0000 0.03083(12)
O18_2 O 0.6149(3) 0.7010(2) 0.2068(5)
O24_2 O 0.3381(3) 0.7641(2) 0.3178(4)
O25_2 O 0.3204(4) 0.6962(3) 0.3923(5)
O27_2 O 0.3983(5) 0.5705(2) 0.0473(6)
O33_2 O 0.3005(11) 0.9485(4) 0.1381(9)
N4_2 N 0.5205(2) 0.73110(15) 0.1041(3)
N5_2 N 0.5985(2) 0.78160(15) 0.0176(3)
C24_2 C 0.5884(3) 0.7261(2) 0.1405(5)
C25_2 C 0.6354(3) 0.7566(2) 0.0911(4)
C26_2 C 0.7074(3) 0.7640(3) 0.1187(5)
H10_2 H 0.7334 0.7478 0.1717
C27_2 C 0.7402(3) 0.7968(2) 0.0640(5)
H11_2 H 0.7887 0.8023 0.0807
C39_2 C 0.4701(3) 0.70421(19) 0.1453(4)
C40_2 C 0.4326(3) 0.7233(2) 0.2127(4)
H16_2 H 0.4389 0.7548 0.2280
C41_2 C 0.3865(3) 0.6982(2) 0.2585(5)
C42_2 C 0.3775(4) 0.6508(2) 0.2353(5)
H17_2 H 0.3482 0.6326 0.2677
C43_2 C 0.4123(4) 0.6310(2) 0.1643(5)
C44_2 C 0.4586(3) 0.6580(2) 0.1181(5)
H18_2 H 0.4814 0.6450 0.0696
C45_2 C 0.3451(4) 0.7207(3) 0.3291(5)
C46_2 C 0.3986(5) 0.5815(3) 0.1339(7)
Co2_5 Co 0.5000 0.22133(3) 0.0000
O34_2 O 0.6149(3) 0.2990(2) 0.2068(5)
O40_2 O 0.3381(3) 0.2359(2) 0.3178(4)
O41_2 O 0.3204(4) 0.3038(3) 0.3923(5)
O43_2 O 0.3983(5) 0.4295(2) 0.0473(6)
N7_2 N 0.5205(2) 0.26890(15) 0.1041(3)
N8_2 N 0.5985(2) 0.21840(15) 0.0176(3)
C47_2 C 0.5884(3) 0.2739(2) 0.1405(5)
C48_2 C 0.6354(3) 0.2434(2) 0.0911(4)
C49_2 C 0.7074(3) 0.2360(3) 0.1187(5)
H19_2 H 0.7334 0.2522 0.1717
C50_2 C 0.7402(3) 0.2032(2) 0.0640(5)
H20_2 H 0.7887 0.1977 0.0807
C62_2 C 0.4701(3) 0.29579(19) 0.1453(4)
C63_2 C 0.4326(3) 0.2767(2) 0.2127(4)
H25_2 H 0.4389 0.2452 0.2280
C64_2 C 0.3865(3) 0.3018(2) 0.2585(5)
C65_2 C 0.3775(4) 0.3492(2) 0.2353(5)
H26_2 H 0.3482 0.3674 0.2677
C66_2 C 0.4123(4) 0.3690(2) 0.1643(5)
C67_2 C 0.4586(3) 0.3420(2) 0.1181(5)
H27_2 H 0.4814 0.3550 0.0696
C68_2 C 0.3451(4) 0.2793(3) 0.3291(5)
C69_2 C 0.3986(5) 0.4185(3) 0.1339(7)
Zn8_2 Zn 0.69707(4) 0.18589(3) 0.60688(6)
O48_2 O 0.4059(3) 0.13138(18) 0.1653(4)
O49_2 O 0.6294(4) 0.2041(2) 0.4506(4)
O50_2 O 0.6917(3) 0.1426(2) 0.4837(4)
O57_2 O 0.7928(3) 0.2117(2) 0.5749(5)
O58_2 O 0.6103(5) 0.1427(4) 0.6391(6)
O59_2 O 0.7576(4) 0.1534(3) 0.7257(6)
N12_2 N 0.4908(2) 0.17428(17) 0.1010(3)
C74_2 C 0.2991(3) 0.1791(2) 0.0142(5)
H30_2 H 0.2777 0.1583 0.0522
C75_2 C 0.3711(3) 0.18712(19) 0.0337(4)
C76_2 C 0.4238(3) 0.1620(2) 0.1072(4)
C77_2 C 0.5492(3) 0.15330(19) 0.1641(4)
C78_2 C 0.5883(3) 0.1192(2) 0.1286(4)
H31_2 H 0.5740 0.1076 0.0648
C79_2 C 0.6481(4) 0.1018(2) 0.1858(4)
C80_2 C 0.6679(3) 0.1171(2) 0.2814(5)
H32_2 H 0.7077 0.1045 0.3211
C81_2 C 0.6288(3) 0.1514(2) 0.3192(4)
C82_2 C 0.5695(3) 0.1700(2) 0.2604(4)
H33_2 H 0.5435 0.1933 0.2849
C83_2 C 0.6956(5) 0.0655(3) 0.1451(6)
C84_2 C 0.6511(4) 0.1676(3) 0.4244(5)
Zn10_2 Zn 0.30293(4) 0.81411(3) 0.39312(6)
Zn11_2 Zn 0.30293(4) 0.18589(3) 0.39312(6)
O66_2 O 0.6619(3) 0.7641(2) 0.6822(4)
O69_2 O 0.6619(3) 0.2359(2) 0.6822(4)
H57 H 0.850589 0.968407 0.379998
Zn3_3 Zn 0.69214(12) 1.0000 0.96917(12)
Co1_6 Co 0.5000 0.77867(3) 1.0000
O1_2 O 0.3851(3) 0.7010(2) 0.7932(5)
O8_2 O 0.6796(4) 0.6962(3) 0.6077(5)
O10_2 O 0.6017(5) 0.5705(2) 0.9527(6)
O12_10 O 0.5000 0.5000 1.0000
O17_2 O 0.6995(11) 0.9485(4) 0.8619(9)
N1_2 N 0.4795(2) 0.73110(15) 0.8959(3)
N2_2 N 0.4015(2) 0.78160(15) 0.9824(3)
C1_2 C 0.4116(3) 0.7261(2) 0.8595(5)
C2_2 C 0.3646(3) 0.7566(2) 0.9089(4)
C3_2 C 0.2926(3) 0.7640(3) 0.8813(5)
H1_2 H 0.2666 0.7478 0.8283
C4_2 C 0.2598(3) 0.7968(2) 0.9360(5)
H2_2 H 0.2113 0.8023 0.9193
C16_2 C 0.5299(3) 0.70421(19) 0.8547(4)
C17_2 C 0.5674(3) 0.7233(2) 0.7873(4)
H7_2 H 0.5611 0.7548 0.7720
C18_2 C 0.6135(3) 0.6982(2) 0.7415(5)
C19_2 C 0.6225(4) 0.6508(2) 0.7647(5)
H8_2 H 0.6518 0.6326 0.7323
C20_2 C 0.5877(4) 0.6310(2) 0.8357(5)
C21_2 C 0.5414(3) 0.6580(2) 0.8819(5)
H9_2 H 0.5186 0.6450 0.9304
C22_2 C 0.6549(4) 0.7207(3) 0.6709(5)
C23_2 C 0.6014(5) 0.5815(3) 0.8661(7)
O19_2 O 0.5941(3) 0.86862(18) 0.8347(4)
O20_2 O 0.3706(4) 0.7959(2) 0.5494(4)
O21_2 O 0.3083(3) 0.8574(2) 0.5163(4)
O22_2 O 0.2585(4) 0.9512(3) 0.7991(6)
O23_2 O 0.3271(6) 0.9465(3) 0.9438(5)
O29_2 O 0.2072(3) 0.7883(2) 0.4251(5)
O30_2 O 0.3897(5) 0.8573(4) 0.3609(6)
O31_2 O 0.2424(4) 0.8466(3) 0.2743(6)
O32_3 O 0.1646(5) 1.0000 0.6445(6)
N6_2 N 0.5092(2) 0.82572(17) 0.8990(3)
C28_2 C 0.7009(3) 0.8209(2) 0.9858(5)
H12_2 H 0.7223 0.8417 0.9478
C29_2 C 0.6289(3) 0.81288(19) 0.9663(4)
C30_2 C 0.5762(3) 0.8380(2) 0.8928(4)
C31_2 C 0.4508(3) 0.84670(19) 0.8359(4)
C32_2 C 0.4117(3) 0.8808(2) 0.8714(4)
H13_2 H 0.4260 0.8924 0.9352
C33_2 C 0.3519(4) 0.8982(2) 0.8142(4)
C34_2 C 0.3321(3) 0.8829(2) 0.7186(5)
H14_2 H 0.2923 0.8955 0.6789
C35_2 C 0.3712(3) 0.8486(2) 0.6808(4)
C36_2 C 0.4305(3) 0.8300(2) 0.7396(4)
H15_2 H 0.4565 0.8067 0.7151
C37_2 C 0.3044(5) 0.9345(3) 0.8549(6)
C38_2 C 0.3489(4) 0.8324(3) 0.5756(5)
Co2_6 Co 0.5000 0.22133(3) 1.0000
O35_2 O 0.5941(3) 0.13138(18) 0.8347(4)
O36_2 O 0.3706(4) 0.2041(2) 0.5494(4)
O37_2 O 0.3083(3) 0.1426(2) 0.5163(4)
O44_2 O 0.2072(3) 0.2117(2) 0.4251(5)
O45_2 O 0.3897(5) 0.1427(4) 0.3609(6)
O46_2 O 0.2424(4) 0.1534(3) 0.2743(6)
N9_2 N 0.5092(2) 0.17428(17) 0.8990(3)
C51_2 C 0.7009(3) 0.1791(2) 0.9858(5)
H21_2 H 0.7223 0.1583 0.9478
C52_2 C 0.6289(3) 0.18712(19) 0.9663(4)
C53_2 C 0.5762(3) 0.1620(2) 0.8928(4)
C54_2 C 0.4508(3) 0.15330(19) 0.8359(4)
C55_2 C 0.4117(3) 0.1192(2) 0.8714(4)
H22_2 H 0.4260 0.1076 0.9352
C56_2 C 0.3519(4) 0.1018(2) 0.8142(4)
C57_2 C 0.3321(3) 0.1171(2) 0.7186(5)
H23_2 H 0.2923 0.1045 0.6789
C58_2 C 0.3712(3) 0.1514(2) 0.6808(4)
C59_2 C 0.4305(3) 0.1700(2) 0.7396(4)
H24_2 H 0.4565 0.1933 0.7151
C60_2 C 0.3044(5) 0.0655(3) 0.8549(6)
C61_2 C 0.3489(4) 0.1676(3) 0.5756(5)
O47_2 O 0.3851(3) 0.2990(2) 0.7932(5)
O54_2 O 0.6796(4) 0.3038(3) 0.6077(5)
O56_2 O 0.6017(5) 0.4295(2) 0.9527(6)
N10_2 N 0.4795(2) 0.26890(15) 0.8959(3)
N11_2 N 0.4015(2) 0.21840(15) 0.9824(3)
C70_2 C 0.4116(3) 0.2739(2) 0.8595(5)
C71_2 C 0.3646(3) 0.2434(2) 0.9089(4)
C72_2 C 0.2926(3) 0.2360(3) 0.8813(5)
H28_2 H 0.2666 0.2522 0.8283
C73_2 C 0.2598(3) 0.2032(2) 0.9360(5)
H29_2 H 0.2113 0.1977 0.9193
C85_2 C 0.5299(3) 0.29579(19) 0.8547(4)
C86_2 C 0.5674(3) 0.2767(2) 0.7873(4)
H34_2 H 0.5611 0.2452 0.7720
C87_2 C 0.6135(3) 0.3018(2) 0.7415(5)
C88_2 C 0.6225(4) 0.3492(2) 0.7647(5)
H35_2 H 0.6518 0.3674 0.7323
C89_2 C 0.5877(4) 0.3690(2) 0.8357(5)
C90_2 C 0.5414(3) 0.3420(2) 0.8819(5)
H36_2 H 0.5186 0.3550 0.9304
C91_2 C 0.6549(4) 0.2793(3) 0.6709(5)
C92_2 C 0.6014(5) 0.4185(3) 0.8661(7)
H69 H 0.149411 0.968407 0.620002
H69_2 H 0.850589 0.0315928 0.379998
H57_2 H 0.149411 0.0315928 0.620002
H70_2 H 0.873403 0.977184 0.37981
H58_2 H 0.126597 0.977184 0.62019
loop_
_geom_bond_atom_site_label_1
_geom_bond_atom_site_label_2
_geom_bond_site_symmetry_1
_geom_bond_site_symmetry_2
Zn1 O3 1_555 1_555
Zn2 O5 1_555 1_555
O3 C15 1_555 1_555
O4 Zn1 1_555 1_555
O5 C14 1_555 1_555
O6 C14 1_555 1_555
O11 Zn2 1_555 1_555
O13 Zn1 1_555 1_555
O14 Zn1 1_555 1_555
O15 Zn1 1_555 1_555
O16 Zn2 1_555 1_555
C9 C8 1_555 1_555
H4 C9 1_555 1_555
C10 C9 1_555 1_555
C11 C10 1_555 1_555
H5 C11 1_555 1_555
C12 C11 1_555 1_555
C13 C8 1_555 1_555
H6 C13 1_555 1_555
C14 C10 1_555 1_555
C15 O4 1_555 1_555
O18 C24 1_555 1_555
N4 Co1 1_555 1_555
N5 Co1 1_555 1_555
C24 N4 1_555 1_555
C25 N5 1_555 1_555
C26 C25 1_555 1_555
H10 C26 1_555 1_555
C27 C26 1_555 1_555
H11 C27 1_555 1_555
Na4 O11 1_555 1_555
O63 Zn2 1_555 1_555
O66 Zn1 1_555 1_555
O71 Zn2 1_555 1_555
O72 Zn2 1_555 1_555
C12 C13 1_555 1_555
C12 C15 1_555 1_555
C24 C25 1_555 1_555
Na4 O71 1_555 1_555
Na4 O72 1_555 1_555
Na1 O9 1_555 1_555
O66 C22 1_555 1_555
O8 C22 1_555 1_555
O9 C23 1_555 1_555
O10 Na1 1_555 1_555
O12_2 Na1 1_555 1_555
O17 Zn3 1_555 1_555
C17 C16 1_555 1_555
H7 C17 1_555 1_555
C18 C17 1_555 1_555
C19 C18 1_555 1_555
H8 C19 1_555 1_555
C20 C19 1_555 1_555
C21 C16 1_555 1_555
H9 C21 1_555 1_555
C22 C18 1_555 1_555
C23 O10 1_555 1_555
O19 C30 1_555 1_555
N6 Co1_2 1_555 1_555
H12 C28 1_555 1_555
C30 N6 1_555 1_555
O60 Zn3 1_555 1_555
Zn16 O9 1_555 1_555
O75 Na1 1_555 1_555
C20 C21 1_555 1_555
C20 C23 1_555 1_555
C28 C29 1_555 1_555
C29 C30 1_555 1_555
Zn16 O75 1_555 1_555
Co2 N7 1_555 1_555
O34 C47 1_555 1_555
N7 C47 1_555 1_555
N8 Co2 1_555 1_555
C47 C48 1_555 1_555
C48 N8 1_555 1_555
C49 C48 1_555 1_555
H19 C49 1_555 1_555
C50 C49 1_555 1_555
H20 C50 1_555 1_555
Zn8 O49 1_555 1_555
O49 C84 1_555 1_555
O50 Zn8 1_555 1_555
O63 C83 1_555 1_555
O65 C83 1_555 1_555
O57 Zn8 1_555 1_555
O58 Zn8 1_555 1_555
O59 Zn8 1_555 1_555
C78 C77 1_555 1_555
H31 C78 1_555 1_555
C79 C78 1_555 1_555
C80 C79 1_555 1_555
H32 C80 1_555 1_555
C81 C80 1_555 1_555
C82 C77 1_555 1_555
H33 C82 1_555 1_555
C83 C79 1_555 1_555
C84 O50 1_555 1_555
O69 Zn8 1_555 1_555
C81 C82 1_555 1_555
C81 C84 1_555 1_555
O12_4 Na1_2 1_555 1_555
O35 C53 1_555 1_555
N9 Co2_2 1_555 1_555
H21 C51 1_555 1_555
C53 N9 1_555 1_555
O69 C91 1_555 1_555
O54 C91 1_555 1_555
O55 Na1_2 1_555 1_555
O56 Na1_2 1_555 1_555
C86 C85 1_555 1_555
H34 C86 1_555 1_555
C87 C86 1_555 1_555
C88 C87 1_555 1_555
H35 C88 1_555 1_555
C89 C88 1_555 1_555
C90 C85 1_555 1_555
H36 C90 1_555 1_555
C91 C87 1_555 1_555
C92 O55 1_555 1_555
O75_2 Na1_2 1_555 1_555
C51 C52 1_555 1_555
C52 C53 1_555 1_555
O55 Zn16_2 1_555 1_555
O56 C92 1_555 1_555
C89 C90 1_555 1_555
C89 C92 1_555 1_555
Zn16_2 O75_2 1_555 1_555
O2 C7 1_555 1_555
N3 Co1_3 1_555 1_555
H3 C5 1_555 1_555
C7 N3 1_555 1_555
Na2 O12_5 1_555 1_555
O24 C45 1_555 1_555
O25 C45 1_555 1_555
O26 Na2 1_555 1_555
O27 Na2 1_555 1_555
O33 Zn6 1_555 1_555
C40 C39 1_555 1_555
H16 C40 1_555 1_555
C41 C40 1_555 1_555
C42 C41 1_555 1_555
H17 C42 1_555 1_555
C43 C42 1_555 1_555
C44 C39 1_555 1_555
H18 C44 1_555 1_555
C45 C41 1_555 1_555
C46 O26 1_555 1_555
O61 Zn6 1_555 1_555
Zn10 O24 1_555 1_555
Zn15 O26 1_555 1_555
O74 Na2 1_555 1_555
C5 C6 1_555 1_555
C6 C7 1_555 1_555
O27 C46 1_555 1_555
C43 C44 1_555 1_555
C43 C46 1_555 1_555
Zn15 O74 1_555 1_555
Co1_4 N1 1_555 1_555
O1 C1 1_555 1_555
N1 C1 1_555 1_555
N2 Co1_4 1_555 1_555
C1 C2 1_555 1_555
C2 N2 1_555 1_555
C3 C2 1_555 1_555
H1 C3 1_555 1_555
C4 C3 1_555 1_555
H2 C4 1_555 1_555
Zn10 O20 1_555 1_555
Zn5 O22 1_555 1_555
O20 C38 1_555 1_555
O21 Zn10 1_555 1_555
O22 C37 1_555 1_555
O23 C37 1_555 1_555
O28 Zn5 1_555 1_555
O29 Zn10 1_555 1_555
O30 Zn10 1_555 1_555
O31 Zn10 1_555 1_555
O32 Zn5 1_555 1_555
C32 C31 1_555 1_555
H13 C32 1_555 1_555
C33 C32 1_555 1_555
C34 C33 1_555 1_555
H14 C34 1_555 1_555
C35 C34 1_555 1_555
C36 C31 1_555 1_555
H15 C36 1_555 1_555
C37 C33 1_555 1_555
C38 O21 1_555 1_555
Na3 O28 1_555 1_555
O62 Zn5 1_555 1_555
O70 Zn5 1_555 1_555
O73 Zn5 1_555 1_555
C35 C36 1_555 1_555
C35 C38 1_555 1_555
Na3 O70 1_555 1_555
Na3 O73 1_555 1_555
Na2_2 O12_7 1_555 1_555
O40 C68 1_555 1_555
O41 C68 1_555 1_555
O42 Na2_2 1_555 1_555
O43 Na2_2 1_555 1_555
C63 C62 1_555 1_555
H25 C63 1_555 1_555
C64 C63 1_555 1_555
C65 C64 1_555 1_555
H26 C65 1_555 1_555
C66 C65 1_555 1_555
C67 C62 1_555 1_555
H27 C67 1_555 1_555
C68 C64 1_555 1_555
C69 O42 1_555 1_555
O48 C76 1_555 1_555
N12 Co2_3 1_555 1_555
H30 C74 1_555 1_555
C76 N12 1_555 1_555
Zn11 O40 1_555 1_555
O74_2 Na2_2 1_555 1_555
O42 Zn15_2 1_555 1_555
O43 C69 1_555 1_555
C66 C67 1_555 1_555
C66 C69 1_555 1_555
C74 C75 1_555 1_555
C75 C76 1_555 1_555
Zn15_2 O74_2 1_555 1_555
Zn11 O36 1_555 1_555
O36 C61 1_555 1_555
O37 Zn11 1_555 1_555
O62 C60 1_555 1_555
O64 C60 1_555 1_555
O44 Zn11 1_555 1_555
O45 Zn11 1_555 1_555
O46 Zn11 1_555 1_555
C55 C54 1_555 1_555
H22 C55 1_555 1_555
C56 C55 1_555 1_555
C57 C56 1_555 1_555
H23 C57 1_555 1_555
C58 C57 1_555 1_555
C59 C54 1_555 1_555
H24 C59 1_555 1_555
C60 C56 1_555 1_555
C61 O37 1_555 1_555
O47 C70 1_555 1_555
N10 Co2_4 1_555 1_555
N11 Co2_4 1_555 1_555
C70 N10 1_555 1_555
C71 N11 1_555 1_555
C72 C71 1_555 1_555
H28 C72 1_555 1_555
C73 C72 1_555 1_555
H29 C73 1_555 1_555
C58 C59 1_555 1_555
C58 C61 1_555 1_555
C70 C71 1_555 1_555
O16_2 Zn15 1_555 1_555
O61_2 Zn6_2 1_555 1_555
O63_2 Zn15 1_555 1_555
O16_2 H58 1_555 1_555
O32_2 Zn16 1_555 1_555
O60_2 Zn3_2 1_555 1_555
O62_2 Zn16 1_555 1_555
O32_2 H70 1_555 1_555
Zn1_2 O3_2 1_555 1_555
Zn15_2 O5_2 1_555 1_555
O2_2 C7_2 1_555 1_555
O3_2 C15_2 1_555 1_555
O4_2 Zn1_2 1_555 1_555
O5_2 C14_2 1_555 1_555
O6_2 C14_2 1_555 1_555
O13_2 Zn1_2 1_555 1_555
O14_2 Zn1_2 1_555 1_555
O15_2 Zn1_2 1_555 1_555
O16_3 Zn15_2 1_555 1_555
N3_2 Co1_5 1_555 1_555
H3_2 C5_2 1_555 1_555
C7_2 N3_2 1_555 1_555
C8_2 N3_2 1_555 1_555
C9_2 C8_2 1_555 1_555
H4_2 C9_2 1_555 1_555
C10_2 C9_2 1_555 1_555
C11_2 C10_2 1_555 1_555
H5_2 C11_2 1_555 1_555
C12_2 C11_2 1_555 1_555
C13_2 C8_2 1_555 1_555
H6_2 C13_2 1_555 1_555
C14_2 C10_2 1_555 1_555
C15_2 O4_2 1_555 1_555
Na4 O12_9 1_555 1_555
O18_2 C24_2 1_555 1_555
O24_2 C45_2 1_555 1_555
O25_2 C45_2 1_555 1_555
O27_2 Na4 1_555 1_555
O33_2 Zn6_3 1_555 1_555
N4_2 Co1_5 1_555 1_555
N5_2 Co1_5 1_555 1_555
C24_2 N4_2 1_555 1_555
C25_2 N5_2 1_555 1_555
C26_2 C25_2 1_555 1_555
H10_2 C26_2 1_555 1_555
C27_2 C26_2 1_555 1_555
H11_2 C27_2 1_555 1_555
C39_2 N4_2 1_555 1_555
C40_2 C39_2 1_555 1_555
H16_2 C40_2 1_555 1_555
C41_2 C40_2 1_555 1_555
C42_2 C41_2 1_555 1_555
H17_2 C42_2 1_555 1_555
C43_2 C42_2 1_555 1_555
C44_2 C39_2 1_555 1_555
H18_2 C44_2 1_555 1_555
C45_2 C41_2 1_555 1_555
C46_2 O71 1_555 1_555
Co2_5 N7_2 1_555 1_555
O34_2 C47_2 1_555 1_555
O40_2 C68_2 1_555 1_555
O41_2 C68_2 1_555 1_555
O43_2 Na4 1_555 1_555
N7_2 C47_2 1_555 1_555
N8_2 Co2_5 1_555 1_555
C47_2 C48_2 1_555 1_555
C48_2 N8_2 1_555 1_555
C49_2 C48_2 1_555 1_555
H19_2 C49_2 1_555 1_555
C50_2 C49_2 1_555 1_555
H20_2 C50_2 1_555 1_555
C62_2 N7_2 1_555 1_555
C63_2 C62_2 1_555 1_555
H25_2 C63_2 1_555 1_555
C64_2 C63_2 1_555 1_555
C65_2 C64_2 1_555 1_555
H26_2 C65_2 1_555 1_555
C66_2 C65_2 1_555 1_555
C67_2 C62_2 1_555 1_555
H27_2 C67_2 1_555 1_555
C68_2 C64_2 1_555 1_555
C69_2 O72 1_555 1_555
Zn8_2 O49_2 1_555 1_555
O48_2 C76_2 1_555 1_555
O49_2 C84_2 1_555 1_555
O50_2 Zn8_2 1_555 1_555
O63_2 C83_2 1_555 1_555
O65_2 C83_2 1_555 1_555
O57_2 Zn8_2 1_555 1_555
O58_2 Zn8_2 1_555 1_555
O59_2 Zn8_2 1_555 1_555
N12_2 Co2_5 1_555 1_555
H30_2 C74_2 1_555 1_555
C76_2 N12_2 1_555 1_555
C77_2 N12_2 1_555 1_555
C78_2 C77_2 1_555 1_555
H31_2 C78_2 1_555 1_555
C79_2 C78_2 1_555 1_555
C80_2 C79_2 1_555 1_555
H32_2 C80_2 1_555 1_555
C81_2 C80_2 1_555 1_555
C82_2 C77_2 1_555 1_555
H33_2 C82_2 1_555 1_555
C83_2 C79_2 1_555 1_555
C84_2 O50_2 1_555 1_555
Zn10_2 O24_2 1_555 1_555
Zn11_2 O40_2 1_555 1_555
O66_2 Zn1_2 1_555 1_555
O69_2 Zn8_2 1_555 1_555
C5_2 C6_2 1_555 1_555
C6_2 C7_2 1_555 1_555
C12_2 C13_2 1_555 1_555
C12_2 C15_2 1_555 1_555
O27_2 C46_2 1_555 1_555
C24_2 C25_2 1_555 1_555
C43_2 C44_2 1_555 1_555
C43_2 C46_2 1_555 1_555
O43_2 C69_2 1_555 1_555
C66_2 C67_2 1_555 1_555
C66_2 C69_2 1_555 1_555
C74_2 C75_2 1_555 1_555
C75_2 C76_2 1_555 1_555
C81_2 C82_2 1_555 1_555
C81_2 C84_2 1_555 1_555
O16_3 H57 1_555 1_555
Co1_6 N1_2 1_555 1_555
O1_2 C1_2 1_555 1_555
O66_2 C22_2 1_555 1_555
O8_2 C22_2 1_555 1_555
O70 C23_2 1_555 1_555
O10_2 Na3 1_555 1_555
O12_10 Na3 1_555 1_555
O17_2 Zn3_3 1_555 1_555
N1_2 C1_2 1_555 1_555
N2_2 Co1_6 1_555 1_555
C1_2 C2_2 1_555 1_555
C2_2 N2_2 1_555 1_555
C3_2 C2_2 1_555 1_555
H1_2 C3_2 1_555 1_555
C4_2 C3_2 1_555 1_555
H2_2 C4_2 1_555 1_555
C16_2 N1_2 1_555 1_555
C17_2 C16_2 1_555 1_555
H7_2 C17_2 1_555 1_555
C18_2 C17_2 1_555 1_555
C19_2 C18_2 1_555 1_555
H8_2 C19_2 1_555 1_555
C20_2 C19_2 1_555 1_555
C21_2 C16_2 1_555 1_555
H9_2 C21_2 1_555 1_555
C22_2 C18_2 1_555 1_555
C23_2 O10_2 1_555 1_555
Zn10_2 O20_2 1_555 1_555
Zn16_2 O22_2 1_555 1_555
O19_2 C30_2 1_555 1_555
O20_2 C38_2 1_555 1_555
O21_2 Zn10_2 1_555 1_555
O22_2 C37_2 1_555 1_555
O23_2 C37_2 1_555 1_555
O29_2 Zn10_2 1_555 1_555
O30_2 Zn10_2 1_555 1_555
O31_2 Zn10_2 1_555 1_555
O32_3 Zn16_2 1_555 1_555
N6_2 Co1_6 1_555 1_555
H12_2 C28_2 1_555 1_555
C30_2 N6_2 1_555 1_555
C31_2 N6_2 1_555 1_555
C32_2 C31_2 1_555 1_555
H13_2 C32_2 1_555 1_555
C33_2 C32_2 1_555 1_555
C34_2 C33_2 1_555 1_555
H14_2 C34_2 1_555 1_555
C35_2 C34_2 1_555 1_555
C36_2 C31_2 1_555 1_555
H15_2 C36_2 1_555 1_555
C37_2 C33_2 1_555 1_555
C38_2 O21_2 1_555 1_555
Zn11_2 O36_2 1_555 1_555
O35_2 C53_2 1_555 1_555
O36_2 C61_2 1_555 1_555
O37_2 Zn11_2 1_555 1_555
O62_2 C60_2 1_555 1_555
O64_2 C60_2 1_555 1_555
O44_2 Zn11_2 1_555 1_555
O45_2 Zn11_2 1_555 1_555
O46_2 Zn11_2 1_555 1_555
N9_2 Co2_6 1_555 1_555
H21_2 C51_2 1_555 1_555
C53_2 N9_2 1_555 1_555
C54_2 N9_2 1_555 1_555
C55_2 C54_2 1_555 1_555
H22_2 C55_2 1_555 1_555
C56_2 C55_2 1_555 1_555
C57_2 C56_2 1_555 1_555
H23_2 C57_2 1_555 1_555
C58_2 C57_2 1_555 1_555
C59_2 C54_2 1_555 1_555
H24_2 C59_2 1_555 1_555
C60_2 C56_2 1_555 1_555
C61_2 O37_2 1_555 1_555
O47_2 C70_2 1_555 1_555
O69_2 C91_2 1_555 1_555
O54_2 C91_2 1_555 1_555
O56_2 Na3 1_555 1_555
N10_2 Co2_6 1_555 1_555
N11_2 Co2_6 1_555 1_555
C70_2 N10_2 1_555 1_555
C71_2 N11_2 1_555 1_555
C72_2 C71_2 1_555 1_555
H28_2 C72_2 1_555 1_555
C73_2 C72_2 1_555 1_555
H29_2 C73_2 1_555 1_555
C85_2 N10_2 1_555 1_555
C86_2 C85_2 1_555 1_555
H34_2 C86_2 1_555 1_555
C87_2 C86_2 1_555 1_555
C88_2 C87_2 1_555 1_555
H35_2 C88_2 1_555 1_555
C89_2 C88_2 1_555 1_555
C90_2 C85_2 1_555 1_555
H36_2 C90_2 1_555 1_555
C91_2 C87_2 1_555 1_555
C92_2 O73 1_555 1_555
C20_2 C21_2 1_555 1_555
C20_2 C23_2 1_555 1_555
C28_2 C29_2 1_555 1_555
C29_2 C30_2 1_555 1_555
C35_2 C36_2 1_555 1_555
C35_2 C38_2 1_555 1_555
C51_2 C52_2 1_555 1_555
C52_2 C53_2 1_555 1_555
C58_2 C59_2 1_555 1_555
C58_2 C61_2 1_555 1_555
O56_2 C92_2 1_555 1_555
C70_2 C71_2 1_555 1_555
C89_2 C90_2 1_555 1_555
C89_2 C92_2 1_555 1_555
O32_3 H69 1_555 1_555
O16_2 H69_2 1_555 1_555
O32_2 H57_2 1_555 1_555
O16_3 H70_2 1_555 1_555
O32_3 H58_2 1_555 1_555

#END
