
###############################################################################
#
# This file contains modified crystal structure data generated from the
# MOF subset of the Cambridge Structural Database (CSD) v543 
# hosted by the Cambridge Crystallographic Data Centre (CCDC).
#
# This work is licensed under the Creative Commons
# Attribution-NonCommercial-ShareAlike 4.0 International License.
# To view a copy of this license, visit
# http://creativecommons.org/licenses/by-nc-sa/4.0/
# or send a letter to
# Creative Commons, PO Box 1866, Mountain View, CA 94042, USA.
#
# CIF created using the CSD Python API on 29 September 2022
# The structure has been converted into the P1 space group
# The structure has a 3D framework
# The original CSD entry OLAVOO is in the triclinic crystal system
# The framework has been calculated to contain at least 10.0% void space
# The void calculation uses a probe of radius 1.32A, grid spacing 0.4
#
###############################################################################

data_OLAVOO
_chemical_formula_moiety         '(C96 H68 N8 O20 Zn4)n'
_symmetry_cell_setting           triclinic
_symmetry_space_group_name_H-M   'P 1'
_symmetry_Int_Tables_number      1
_space_group_name_Hall           'P 1'
loop_
_symmetry_equiv_pos_site_id
_symmetry_equiv_pos_as_xyz
1 x,y,z
_cell_length_a                   10.068(7)
_cell_length_b                   13.608(10)
_cell_length_c                   20.223(14)
_cell_angle_alpha                77.414(9)
_cell_angle_beta                 76.358(9)
_cell_angle_gamma                87.703(9)
_cell_volume                     2627.61
loop_
_atom_site_label
_atom_site_type_symbol
_atom_site_fract_x
_atom_site_fract_y
_atom_site_fract_z
Zn5 Zn 0.59902(6) 0.15492(5) 0.34248(3)
C21 C 0.0362(6) 0.1817(5) 0.1125(3)
C22 C 0.0557(6) 0.1853(5) 0.0439(3)
H14 H 0.1455 0.1871 0.0152
C23 C 0.1627(6) 0.1792(5) 0.1416(3)
O7 O 0.2784(4) 0.1790(4) 0.1023(2)
O8 O 0.1469(4) 0.1730(4) 0.2062(2)
Zn8 Zn 0.35869(6) 0.16464(5) 0.20651(3)
C1 C 0.1646(6) 0.1403(4) 0.4177(2)
C2 C 0.0526(6) 0.1384(4) 0.3899(3)
H1 H 0.0652 0.1391 0.3418
C5 C 0.0134(6) 0.1367(5) 0.5305(3)
C6 C 0.1454(6) 0.1382(5) 0.4891(3)
H3 H 0.2221 0.1378 0.5090
C7 C 0.3056(6) 0.1440(4) 0.3742(2)
C9 C 0.0964(6) 0.1427(6) 0.6301(3)
H4 H 0.1571 0.2007 0.6039
H5 H 0.1500 0.0802 0.6295
C10 C 0.0395(6) 0.1535(6) 0.7040(3)
C11 C 0.0019(7) 0.0686(6) 0.7569(3)
H6 H 0.0167 0.0029 0.7481
C15 C 0.0270(7) 0.2510(6) 0.7172(3)
H9 H 0.0579 0.3087 0.6814
C25 C 0.5312(9) 0.3562(6) 0.3855(4)
H15 H 0.4748 0.3135 0.4247
C26 C 0.5350(9) 0.4564(6) 0.3843(4)
H16 H 0.4857 0.4811 0.4234
C27 C 0.6108(8) 0.5237(5) 0.3261(4)
C28 C 0.6777(10) 0.4801(6) 0.2731(4)
H17 H 0.7302 0.5212 0.2317
C29 C 0.6708(10) 0.3778(6) 0.2782(4)
H18 H 0.7174 0.3515 0.2393
C30 C 0.6207(9) 0.6300(5) 0.3211(4)
H19 H 0.6762 0.6671 0.2790
C31 C 0.5621(8) 0.6836(5) 0.3680(3)
H20 H 0.5103 0.6472 0.4114
C32 C 0.5698(7) 0.7895(5) 0.3592(3)
C33 C 0.5143(7) 0.8354(5) 0.4142(3)
H21 H 0.4695 0.7950 0.4577
C34 C 0.5223(7) 0.9372(5) 0.4074(3)
H22 H 0.4827 0.9655 0.4465
C35 C 0.6396(6) 0.9552(5) 0.2938(3)
H23 H 0.6843 0.9970 0.2507
C36 C 0.6352(6) 0.8548(5) 0.2978(3)
H24 H 0.6773 0.8283 0.2582
H25 H 0.4716 0.0091 0.1215
N1 N 0.6039(6) 0.3144(4) 0.3336(2)
N2 N 0.5846(5) 0.9991(4) 0.3470(2)
N3 N 0.3643(5) 0.0050(4) 0.2175(2)
O1 O 0.4044(4) 0.1524(3) 0.40117(18)
O2 O 0.3224(4) 0.1388(3) 0.31183(18)
N6 N 0.3630(6) 0.3250(4) 0.1996(3)
O11 O 0.6809(4) 0.1331(4) 0.4396(2)
O12 O 0.8166(4) 0.1463(4) 0.33714(19)
O15 O 0.6383(4) 0.1842(3) 0.23392(17)
O16 O 0.5525(4) 0.1746(3) 0.14404(19)
C37 C 0.4266(7) 0.9647(5) 0.1632(3)
C38 C 0.4291(8) 0.8636(6) 0.1644(4)
H26 H 0.4746 0.8394 0.1244
C39 C 0.3644(8) 0.7972(6) 0.2247(4)
C40 C 0.2999(7) 0.8401(5) 0.2797(3)
H27 H 0.2526 0.7983 0.3221
C41 C 0.3034(6) 0.9410(5) 0.2738(3)
H28 H 0.2586 0.9671 0.3131
C42 C 0.3534(9) 0.6853(7) 0.2295(5)
H29 H 0.3085 0.6463 0.2735
C43 C 0.3959(9) 0.6390(7) 0.1829(4)
H30 H 0.4425 0.6770 0.1389
C44 C 0.3814(9) 0.5320(7) 0.1891(5)
C45 C 0.3048(11) 0.4693(7) 0.2485(4)
H31 H 0.2579 0.4957 0.2873
C46 C 0.2986(11) 0.3665(6) 0.2498(4)
H32 H 0.2438 0.3244 0.2899
C47 C 0.4372(10) 0.3829(7) 0.1425(4)
H33 H 0.4857 0.3526 0.1059
C48 C 0.4462(10) 0.4876(6) 0.1345(4)
H34 H 0.4960 0.5279 0.0920
C17 C 0.9374(6) 0.1867(6) 0.0143(3)
C18 C 0.8103(6) 0.1864(5) 0.0563(3)
H12 H 0.7322 0.1879 0.0374
C19 C 0.7942(6) 0.1839(4) 0.1271(2)
C20 C 0.9053(6) 0.1810(4) 0.1554(3)
H13 H 0.8936 0.1786 0.2038
C24 C 0.6509(6) 0.1800(4) 0.1731(3)
C3 C 0.9206(6) 0.1355(5) 0.4321(3)
C4 C 0.9021(6) 0.1337(5) 0.5015(3)
H2 H 0.8122 0.1304 0.5302
C8 C 0.7987(6) 0.1363(5) 0.4014(3)
C12 C 0.9415(7) 0.0834(6) 0.8237(3)
H7 H 0.9113 0.0263 0.8601
C13 C 0.9244(7) 0.1759(6) 0.8385(3)
C14 C 0.9661(7) 0.2590(6) 0.7864(3)
H8 H 0.9538 0.3239 0.7971
C16 C 0.8591(7) 0.1884(7) 0.9112(3)
H10 H 0.8082 0.2523 0.9098
H11 H 0.7949 0.1320 0.9361
O5 O 0.9831(4) 0.1393(4) 0.59950(19)
O6 O 0.9702(5) 0.1892(5) 0.9455(2)
C3_2 C 0.0794(6) 0.8645(5) 0.5679(3)
C4_2 C 0.0979(6) 0.8663(5) 0.4985(3)
H2_2 H 0.1878 0.8696 0.4698
C8_2 C 0.2013(6) 0.8637(5) 0.5986(3)
C12_2 C 0.0585(7) 0.9166(6) 0.1763(3)
H7_2 H 0.0887 0.9737 0.1399
C13_2 C 0.0756(7) 0.8241(6) 0.1615(3)
C14_2 C 0.0339(7) 0.7410(6) 0.2136(3)
H8_2 H 0.0462 0.6761 0.2029
C16_2 C 0.1409(7) 0.8116(7) 0.0888(3)
H10_2 H 0.1918 0.7477 0.0902
H11_2 H 0.2051 0.8680 0.0639
O3 O 0.3191(4) 0.8669(4) 0.5604(2)
O4 O 0.1834(4) 0.8537(4) 0.66286(19)
O5_2 O 0.0169(4) 0.8607(4) 0.40050(19)
O6_2 O 0.0298(5) 0.8108(5) 0.0545(2)
Zn3 Zn 0.40098(6) 0.84508(5) 0.65752(3)
C17_2 C 0.0626(6) 0.8133(6) 0.9857(3)
C18_2 C 0.1897(6) 0.8136(5) 0.9437(3)
H12_2 H 0.2678 0.8121 0.9626
C19_2 C 0.2058(6) 0.8161(4) 0.8729(2)
C20_2 C 0.0947(6) 0.8190(4) 0.8446(3)
H13_2 H 0.1064 0.8214 0.7962
C24_2 C 0.3491(6) 0.8200(4) 0.8269(3)
O9 O 0.3617(4) 0.8158(3) 0.76608(17)
O10 O 0.4475(4) 0.8254(3) 0.85596(19)
Zn6 Zn 0.64131(6) 0.83536(5) 0.79349(3)
C37_2 C 0.5734(7) 0.0353(5) 0.8368(3)
C38_2 C 0.5709(8) 0.1364(6) 0.8356(4)
H26_2 H 0.5254 0.1606 0.8756
C39_2 C 0.6356(8) 0.2028(6) 0.7753(4)
C40_2 C 0.7001(7) 0.1599(5) 0.7203(3)
H27_2 H 0.7474 0.2017 0.6779
C41_2 C 0.6966(6) 0.0590(5) 0.7262(3)
H28_2 H 0.7414 0.0329 0.6869
C42_2 C 0.6466(9) 0.3147(7) 0.7705(5)
H29_2 H 0.6915 0.3537 0.7265
C43_2 C 0.6041(9) 0.3610(7) 0.8171(4)
H30_2 H 0.5575 0.3230 0.8611
C44_2 C 0.6186(9) 0.4680(7) 0.8109(5)
C45_2 C 0.6952(11) 0.5307(7) 0.7515(4)
H31_2 H 0.7421 0.5043 0.7127
C46_2 C 0.7014(11) 0.6335(6) 0.7502(4)
H32_2 H 0.7562 0.6756 0.7101
C47_2 C 0.5628(10) 0.6171(7) 0.8575(4)
H33_2 H 0.5143 0.6474 0.8941
C48_2 C 0.5538(10) 0.5124(6) 0.8655(4)
H34_2 H 0.5040 0.4721 0.9080
N4 N 0.6370(6) 0.6750(4) 0.8004(3)
N5 N 0.4154(5) 0.0009(4) 0.6530(2)
C1_2 C 0.8354(6) 0.8597(4) 0.5823(2)
C2_2 C 0.9474(6) 0.8616(4) 0.6101(3)
H1_2 H 0.9348 0.8609 0.6582
C5_2 C 0.9866(6) 0.8633(5) 0.4695(3)
C6_2 C 0.8546(6) 0.8618(5) 0.5109(3)
H3_2 H 0.7779 0.8622 0.4910
C7_2 C 0.6944(6) 0.8560(4) 0.6258(2)
C9_2 C 0.9036(6) 0.8573(6) 0.3699(3)
H4_2 H 0.8429 0.7993 0.3961
H5_2 H 0.8500 0.9198 0.3705
C10_2 C 0.9605(6) 0.8465(6) 0.2960(3)
C11_2 C 0.9981(7) 0.9314(6) 0.2431(3)
H6_2 H 0.9833 0.9971 0.2519
C15_2 C 0.9730(7) 0.7490(6) 0.2828(3)
H9_2 H 0.9421 0.6913 0.3186
C25_2 C 0.4688(9) 0.6438(6) 0.6145(4)
H15_2 H 0.5252 0.6865 0.5753
C26_2 C 0.4650(9) 0.5436(6) 0.6157(4)
H16_2 H 0.5143 0.5189 0.5766
C27_2 C 0.3892(8) 0.4763(5) 0.6739(4)
C28_2 C 0.3223(10) 0.5199(6) 0.7269(4)
H17_2 H 0.2698 0.4788 0.7683
C29_2 C 0.3292(10) 0.6222(6) 0.7218(4)
H18_2 H 0.2826 0.6485 0.7607
C30_2 C 0.3793(9) 0.3700(5) 0.6789(4)
H19_2 H 0.3238 0.3329 0.7210
C31_2 C 0.4379(8) 0.3164(5) 0.6320(3)
H20_2 H 0.4897 0.3528 0.5886
C32_2 C 0.4302(7) 0.2105(5) 0.6408(3)
C33_2 C 0.4857(7) 0.1646(5) 0.5858(3)
H21_2 H 0.5305 0.2050 0.5423
C34_2 C 0.4777(7) 0.0628(5) 0.5926(3)
H22_2 H 0.5173 0.0345 0.5535
C35_2 C 0.3604(6) 0.0448(5) 0.7062(3)
H23_2 H 0.3157 0.0030 0.7493
C36_2 C 0.3648(6) 0.1452(5) 0.7022(3)
H24_2 H 0.3227 0.1717 0.7418
H25_2 H 0.5284 0.9909 0.8785
N1_2 N 0.3961(6) 0.6856(4) 0.6664(2)
N3_2 N 0.6357(5) 0.9950(4) 0.7825(2)
O1_2 O 0.5956(4) 0.8476(3) 0.59883(18)
O2_2 O 0.6776(4) 0.8612(3) 0.68817(18)
O13 O 0.7216(4) 0.8210(4) 0.8977(2)
O14 O 0.8531(4) 0.8270(4) 0.7938(2)
C21_2 C 0.9638(6) 0.8183(5) 0.8875(3)
C22_2 C 0.9443(6) 0.8147(5) 0.9561(3)
H14_2 H 0.8545 0.8129 0.9848
C23_2 C 0.8373(6) 0.8208(5) 0.8584(3)
loop_
_geom_bond_atom_site_label_1
_geom_bond_atom_site_label_2
_geom_bond_site_symmetry_1
_geom_bond_site_symmetry_2
H14 C22 1_555 1_555
C23 C21 1_555 1_555
O7 C23 1_555 1_555
O8 C23 1_555 1_555
Zn8 O7 1_555 1_555
C21 C22 1_555 1_555
O8 Zn8 1_555 1_555
Zn5 N1 1_555 1_555
Zn8 N3 1_555 1_555
C1 C2 1_555 1_555
C2 H1 1_555 1_555
C6 C1 1_555 1_555
H3 C6 1_555 1_555
C7 C1 1_555 1_555
C9 H4 1_555 1_555
H5 C9 1_555 1_555
C10 C9 1_555 1_555
C11 C10 1_555 1_555
H6 C11 1_555 1_555
C15 C10 1_555 1_555
H9 C15 1_555 1_555
C25 H15 1_555 1_555
C26 C25 1_555 1_555
H16 C26 1_555 1_555
C27 C26 1_555 1_555
C28 C27 1_555 1_555
H17 C28 1_555 1_555
C29 C28 1_555 1_555
H18 C29 1_555 1_555
C30 C27 1_555 1_555
H19 C30 1_555 1_555
C31 C30 1_555 1_555
H20 C31 1_555 1_555
C32 C31 1_555 1_555
C33 C32 1_555 1_555
H21 C33 1_555 1_555
C34 C33 1_555 1_555
H22 C34 1_555 1_555
C35 H23 1_555 1_555
C36 C32 1_555 1_555
H24 C36 1_555 1_555
N1 C25 1_555 1_555
N2 C34 1_555 1_555
O1 Zn5 1_555 1_555
O2 Zn8 1_555 1_555
N6 Zn8 1_555 1_555
O11 Zn5 1_555 1_555
O12 Zn5 1_555 1_555
O15 Zn5 1_555 1_555
O16 Zn8 1_555 1_555
C5 C6 1_555 1_555
C7 O1 1_555 1_555
C7 O2 1_555 1_555
C29 N1 1_555 1_555
C35 C36 1_555 1_555
C35 N2 1_555 1_555
C38 C37 1_555 1_555
H26 C38 1_555 1_555
C39 C38 1_555 1_555
C40 C39 1_555 1_555
H27 C40 1_555 1_555
C41 C40 1_555 1_555
H28 C41 1_555 1_555
C42 C39 1_555 1_555
H29 C42 1_555 1_555
C43 C42 1_555 1_555
H30 C43 1_555 1_555
C44 C43 1_555 1_555
C45 C44 1_555 1_555
H31 C45 1_555 1_555
C46 C45 1_555 1_555
H32 C46 1_555 1_555
C47 H33 1_555 1_555
C48 C44 1_555 1_555
H34 C48 1_555 1_555
N6 C46 1_555 1_555
C47 C48 1_555 1_555
C47 N6 1_555 1_555
C17 C18 1_555 1_555
C18 H12 1_555 1_555
C19 C18 1_555 1_555
C20 C19 1_555 1_555
H13 C20 1_555 1_555
C24 C19 1_555 1_555
O15 C24 1_555 1_555
O16 C24 1_555 1_555
C4 C3 1_555 1_555
H2 C4 1_555 1_555
C8 C3 1_555 1_555
H7 C12 1_555 1_555
C13 C12 1_555 1_555
C14 C13 1_555 1_555
H8 C14 1_555 1_555
C16 C13 1_555 1_555
H10 C16 1_555 1_555
H11 C16 1_555 1_555
O11 C8 1_555 1_555
O12 C8 1_555 1_555
O6 C16 1_555 1_555
C4_2 C3_2 1_555 1_555
H2_2 C4_2 1_555 1_555
C8_2 C3_2 1_555 1_555
H7_2 C12_2 1_555 1_555
C13_2 C12_2 1_555 1_555
C14_2 C13_2 1_555 1_555
H8_2 C14_2 1_555 1_555
C16_2 C13_2 1_555 1_555
H10_2 C16_2 1_555 1_555
H11_2 C16_2 1_555 1_555
O3 C8_2 1_555 1_555
O4 C8_2 1_555 1_555
O6_2 C16_2 1_555 1_555
Zn3 O3 1_555 1_555
O4 Zn3 1_555 1_555
C17_2 C18_2 1_555 1_555
C18_2 H12_2 1_555 1_555
C19_2 C18_2 1_555 1_555
C20_2 C19_2 1_555 1_555
H13_2 C20_2 1_555 1_555
C24_2 C19_2 1_555 1_555
O9 C24_2 1_555 1_555
O10 C24_2 1_555 1_555
Zn3 O9 1_555 1_555
Zn6 O10 1_555 1_555
C38_2 C37_2 1_555 1_555
H26_2 C38_2 1_555 1_555
C39_2 C38_2 1_555 1_555
C40_2 C39_2 1_555 1_555
H27_2 C40_2 1_555 1_555
C41_2 C40_2 1_555 1_555
H28_2 C41_2 1_555 1_555
C42_2 C39_2 1_555 1_555
H29_2 C42_2 1_555 1_555
C43_2 C42_2 1_555 1_555
H30_2 C43_2 1_555 1_555
C44_2 C43_2 1_555 1_555
C45_2 C44_2 1_555 1_555
H31_2 C45_2 1_555 1_555
C46_2 C45_2 1_555 1_555
H32_2 C46_2 1_555 1_555
C47_2 H33_2 1_555 1_555
C48_2 C44_2 1_555 1_555
H34_2 C48_2 1_555 1_555
N4 C46_2 1_555 1_555
Zn6 N4 1_555 1_555
C47_2 C48_2 1_555 1_555
C47_2 N4 1_555 1_555
Zn3 N1_2 1_555 1_555
Zn6 N3_2 1_555 1_555
C1_2 C2_2 1_555 1_555
C2_2 H1_2 1_555 1_555
C6_2 C1_2 1_555 1_555
H3_2 C6_2 1_555 1_555
C7_2 C1_2 1_555 1_555
C9_2 H4_2 1_555 1_555
H5_2 C9_2 1_555 1_555
C10_2 C9_2 1_555 1_555
C11_2 C10_2 1_555 1_555
H6_2 C11_2 1_555 1_555
C15_2 C10_2 1_555 1_555
H9_2 C15_2 1_555 1_555
C25_2 H15_2 1_555 1_555
C26_2 C25_2 1_555 1_555
H16_2 C26_2 1_555 1_555
C27_2 C26_2 1_555 1_555
C28_2 C27_2 1_555 1_555
H17_2 C28_2 1_555 1_555
C29_2 C28_2 1_555 1_555
H18_2 C29_2 1_555 1_555
C30_2 C27_2 1_555 1_555
H19_2 C30_2 1_555 1_555
C31_2 C30_2 1_555 1_555
H20_2 C31_2 1_555 1_555
C32_2 C31_2 1_555 1_555
C33_2 C32_2 1_555 1_555
H21_2 C33_2 1_555 1_555
C34_2 C33_2 1_555 1_555
H22_2 C34_2 1_555 1_555
C35_2 H23_2 1_555 1_555
C36_2 C32_2 1_555 1_555
H24_2 C36_2 1_555 1_555
N1_2 C25_2 1_555 1_555
N5 C34_2 1_555 1_555
O1_2 Zn3 1_555 1_555
O2_2 Zn6 1_555 1_555
O13 Zn6 1_555 1_555
O14 Zn6 1_555 1_555
C5_2 C6_2 1_555 1_555
C7_2 O1_2 1_555 1_555
C7_2 O2_2 1_555 1_555
C29_2 N1_2 1_555 1_555
C35_2 C36_2 1_555 1_555
C35_2 N5 1_555 1_555
H14_2 C22_2 1_555 1_555
C23_2 C21_2 1_555 1_555
O13 C23_2 1_555 1_555
O14 C23_2 1_555 1_555
C21_2 C22_2 1_555 1_555

#END
