
###############################################################################
#
# This file contains modified crystal structure data generated from the
# MOF subset of the Cambridge Structural Database (CSD) v543 
# hosted by the Cambridge Crystallographic Data Centre (CCDC).
#
# This work is licensed under the Creative Commons
# Attribution-NonCommercial-ShareAlike 4.0 International License.
# To view a copy of this license, visit
# http://creativecommons.org/licenses/by-nc-sa/4.0/
# or send a letter to
# Creative Commons, PO Box 1866, Mountain View, CA 94042, USA.
#
# CIF created using the CSD Python API on 29 September 2022
# The structure has been converted into the P1 space group
# The structure has a 3D framework
# The original CSD entry OLEKUM is in the tetragonal crystal system
# The framework has been calculated to contain at least 10.0% void space
# The void calculation uses a probe of radius 1.32A, grid spacing 0.4
# H atom positions have been added when not included in the experimental data
#
###############################################################################

data_OLEKUM
_chemical_formula_moiety         '(C352 H256 Cl64 N32 O128 Zn24)n'
_symmetry_cell_setting           triclinic
_symmetry_space_group_name_H-M   'P 1'
_symmetry_Int_Tables_number      1
_space_group_name_Hall           'P 1'
loop_
_symmetry_equiv_pos_site_id
_symmetry_equiv_pos_as_xyz
1 x,y,z
_cell_length_a                   21.818(3)
_cell_length_b                   21.818(3)
_cell_length_c                   38.660(8)
_cell_angle_alpha                90
_cell_angle_beta                 90
_cell_angle_gamma                90
_cell_volume                     18403.1
loop_
_atom_site_label
_atom_site_type_symbol
_atom_site_fract_x
_atom_site_fract_y
_atom_site_fract_z
N1 N 0.2460(2) 0.0149(2) 0.03324(12)
C11 C 0.2474(5) 0.0791(3) 0.01990(17)
Zn2 Zn 0.23976(3) 0.01397(3) 0.086330(15)
H1 H 0.150363 0.00509287 0.0257579
H4 H 0.342483 0.00760144 0.0325083
H15 H 0.286705 0.102957 0.0308607
H16 H 0.20542 0.102523 0.0274782
Zn1 Zn 0.26024(3) 0.01397(3) 0.913670(15)
O1 O 0.3542(2) 0.02210(19) 0.84855(11)
O2 O 0.35180(19) 0.0006(2) 0.90520(11)
C2 C 0.4477(3) 0.0072(3) 0.87695(16)
C3 C 0.3786(3) 0.0107(3) 0.87685(15)
O3 O 0.6722(2) 0.0022(2) 0.84436(12)
C8 C 0.5486(3) 0.0180(3) 0.90180(17)
C9 C 0.4858(4) 0.0243(3) 0.90364(16)
Zn3 Zn 0.26397(3) 0.01024(3) 0.836330(15)
N2 N 0.2540(2) 0.0149(2) 0.96676(12)
O5 O 0.27210(19) 0.1042(2) 0.90145(11)
O11 O 0.1698(2) 0.02510(19) 0.90027(11)
O13 O 0.77510(19) 0.0802(2) 0.84973(11)
Cl3 Cl 0.45747(9) 0.05761(15) 0.94179(6)
C22 C 0.2526(5) 0.0791(3) 0.98010(17)
H5 H 0.576911 0.0321038 0.923591
H8 H 0.349637 0.00509287 0.974242
H9 H 0.29458 0.102523 0.972522
H10 H 0.213295 0.102957 0.969139
H11 H 0.157517 0.00760144 0.967492
C5 C 0.1925(4) 0.9824(4) 0.01776(17)
C6 C 0.3030(4) 0.9834(4) 0.02200(17)
H2 H 0.192046 0.935069 0.0266995
H3 H 0.302656 0.936504 0.0316422
C1 C 0.5761(3) 0.9938(3) 0.87237(16)
C4 C 0.6447(3) 0.9898(3) 0.87208(16)
O4 O 0.27510(19) 0.9198(2) 0.84973(11)
C7 C 0.2673(3) 0.7253(3) 0.90250(18)
Cl1 Cl 0.19239(15) 0.70747(9) 0.80821(6)
Cl2 Cl 0.30635(9) 0.81636(15) 0.94237(6)
C10 C 0.2741(3) 0.7878(4) 0.90463(17)
Zn4 Zn 0.76397(3) 0.98976(3) 0.836330(15)
Zn5 Zn 0.76024(3) 0.98603(3) 0.913670(15)
Zn6 Zn 0.23976(3) 0.51397(3) 0.913670(15)
Zn7 Zn 0.23603(3) 0.51024(3) 0.836330(15)
N3 N 0.7649(2) 0.9960(2) 0.78324(12)
O6 O 0.8542(2) 0.97790(19) 0.84855(11)
O7 O 0.22790(19) 0.6042(2) 0.90145(11)
O8 O 0.7506(2) 0.89820(19) 0.84480(11)
O9 O 0.2494(2) 0.60180(19) 0.84480(11)
C12 C 0.2562(3) 0.8261(3) 0.87763(16)
C13 C 0.2428(3) 0.6977(3) 0.87305(16)
C14 C 0.2393(3) 0.6286(3) 0.87315(15)
O10 O 0.2478(2) 0.9222(2) 0.90564(12)
C15 C 0.2602(3) 0.8947(3) 0.87792(16)
O12 O 0.6698(2) 0.97490(19) 0.90027(11)
C16 C 0.3075(4) 0.9824(4) 0.98224(17)
C17 C 0.1970(4) 0.9834(4) 0.97800(17)
C18 C 0.4753(3) 0.9827(3) 0.84750(18)
C19 C 0.2320(3) 0.7986(3) 0.84820(17)
Cl4 Cl 0.56636(15) 0.94365(9) 0.80763(6)
C20 C 0.2257(3) 0.7358(4) 0.84636(16)
C21 C 0.5378(4) 0.9759(3) 0.84537(17)
H6 H 0.28131 0.69678 0.924223
H7 H 0.307954 0.935069 0.9733
H12 H 0.197344 0.936504 0.968358
H13 H 0.44678 0.96869 0.825777
H14 H 0.217896 0.826911 0.826409
O4_2 O 0.22490(19) 0.0802(2) 0.34973(11)
C5_2 C 0.3075(4) 0.0176(4) 0.51776(17)
C6_2 C 0.1970(4) 0.0166(4) 0.52200(17)
C7_2 C 0.2327(3) 0.2747(3) 0.40250(18)
Cl1_2 Cl 0.30761(15) 0.29253(9) 0.30821(6)
Cl2_2 Cl 0.19365(9) 0.18364(15) 0.44237(6)
C10_2 C 0.2259(3) 0.2122(4) 0.40463(17)
Zn6_2 Zn 0.26024(3) 0.48603(3) 0.413670(15)
Zn7_2 Zn 0.26397(3) 0.48976(3) 0.336330(15)
O7_2 O 0.27210(19) 0.3958(2) 0.40145(11)
O9_2 O 0.2506(2) 0.39820(19) 0.34480(11)
C12_2 C 0.2438(3) 0.1739(3) 0.37763(16)
C13_2 C 0.2572(3) 0.3023(3) 0.37305(16)
C14_2 C 0.2607(3) 0.3714(3) 0.37315(15)
O10_2 O 0.2522(2) 0.0778(2) 0.40564(12)
C15_2 C 0.2398(3) 0.1053(3) 0.37792(16)
C16_2 C 0.1925(4) 0.0176(4) 0.48224(17)
C17_2 C 0.3030(4) 0.0166(4) 0.47800(17)
C18_2 C 0.0247(3) 0.0173(3) 0.34750(18)
C19_2 C 0.2680(3) 0.2014(3) 0.34820(17)
C20_2 C 0.2743(3) 0.2642(4) 0.34636(16)
H2_2 H 0.307954 0.0649305 0.5267
H3_2 H 0.197344 0.0634964 0.531642
H6_2 H 0.21869 0.30322 0.424223
H7_2 H 0.192046 0.0649305 0.4733
H12_2 H 0.302656 0.0634964 0.468358
H13_2 H 0.0532195 0.0313101 0.325777
H14_2 H 0.282104 0.173089 0.326409
Zn1_2 Zn 0.23976(3) 0.98603(3) 0.413670(15)
N1_2 N 0.2540(2) 0.9851(2) 0.53324(12)
O1_2 O 0.1458(2) 0.97790(19) 0.34855(11)
O2_2 O 0.14820(19) 0.9994(2) 0.40520(11)
C2_2 C 0.0523(3) 0.9928(3) 0.37695(16)
C3_2 C 0.1214(3) 0.9893(3) 0.37685(15)
C9_2 C 0.0142(4) 0.9757(3) 0.40364(16)
C11_2 C 0.2526(5) 0.9209(3) 0.51990(17)
Zn2_2 Zn 0.26024(3) 0.98603(3) 0.586330(15)
Zn3_2 Zn 0.23603(3) 0.98976(3) 0.336330(15)
N2_2 N 0.2460(2) 0.9851(2) 0.46676(12)
O5_2 O 0.22790(19) 0.8958(2) 0.40145(11)
O11_2 O 0.3302(2) 0.97490(19) 0.40027(11)
Cl3_2 Cl 0.04253(9) 0.94239(15) 0.44179(6)
C22_2 C 0.2474(5) 0.9209(3) 0.48010(17)
H1_2 H 0.349637 0.994907 0.525758
H4_2 H 0.157517 0.992399 0.532508
H8_2 H 0.150363 0.994907 0.474242
H9_2 H 0.20542 0.897477 0.472522
H10_2 H 0.286705 0.897043 0.469139
H11_2 H 0.342483 0.992399 0.467492
H15_2 H 0.213295 0.897043 0.530861
H16_2 H 0.29458 0.897477 0.527478
C1_2 C 0.9239(3) 0.0062(3) 0.37237(16)
C4_2 C 0.8553(3) 0.0102(3) 0.37208(16)
Zn4_2 Zn 0.73603(3) 0.01024(3) 0.336330(15)
Zn5_2 Zn 0.73976(3) 0.01397(3) 0.413670(15)
N3_2 N 0.7351(2) 0.0040(2) 0.28324(12)
O6_2 O 0.6458(2) 0.02210(19) 0.34855(11)
O8_2 O 0.7494(2) 0.10180(19) 0.34480(11)
O12_2 O 0.8302(2) 0.02510(19) 0.40027(11)
Cl4_2 Cl 0.93364(15) 0.05635(9) 0.30763(6)
C21_2 C 0.9622(4) 0.0241(3) 0.34537(17)
O3_2 O 0.8278(2) 0.9978(2) 0.34436(12)
C8_2 C 0.9514(3) 0.9820(3) 0.40180(17)
O13_2 O 0.72490(19) 0.9198(2) 0.34973(11)
H5_2 H 0.923089 0.967896 0.423591
Zn1_3 Zn 0.23603(3) 0.01024(3) 0.163670(15)
O1_3 O 0.22790(19) 0.1042(2) 0.09855(11)
O2_3 O 0.2494(2) 0.10180(19) 0.15520(11)
C1_3 C 0.2562(3) 0.3261(3) 0.12237(16)
C2_3 C 0.2428(3) 0.1977(3) 0.12695(16)
C3_3 C 0.2393(3) 0.1286(3) 0.12685(15)
O3_3 O 0.2478(2) 0.4222(2) 0.09436(12)
C4_3 C 0.2602(3) 0.3947(3) 0.12208(16)
O4_3 O 0.3302(2) 0.02510(19) 0.09973(11)
C6_3 C 0.2666(4) 0.0530(4) 0.27200(17)
C7_3 C 0.5247(3) 0.0173(3) 0.15250(18)
C8_3 C 0.2320(3) 0.2986(3) 0.15180(17)
Cl2_3 Cl 0.43364(15) 0.05635(9) 0.19237(6)
C9_3 C 0.2257(3) 0.2358(4) 0.15364(16)
C10_3 C 0.4622(4) 0.0241(3) 0.15463(17)
Zn4_3 Zn 0.26024(3) 0.51397(3) 0.086330(15)
Zn5_3 Zn 0.26397(3) 0.51024(3) 0.163670(15)
N2_3 N 0.2351(2) 0.0040(2) 0.21676(12)
N3_3 N 0.2540(2) 0.5149(2) 0.03324(12)
O5_3 O 0.1458(2) 0.02210(19) 0.15145(11)
O6_3 O 0.27210(19) 0.6042(2) 0.09855(11)
O8_3 O 0.35180(19) 0.5006(2) 0.09480(11)
C12_3 C 0.4239(3) 0.0062(3) 0.12763(16)
C15_3 C 0.3553(3) 0.0102(3) 0.12792(16)
O12_3 O 0.27510(19) 0.4198(2) 0.15027(11)
O13_3 O 0.1698(2) 0.52510(19) 0.09973(11)
C16_3 C 0.2676(4) 0.0575(4) 0.23224(17)
C18_3 C 0.2673(3) 0.2253(3) 0.09750(18)
Cl3_3 Cl 0.19239(15) 0.20747(9) 0.19179(6)
Cl4_3 Cl 0.30635(9) 0.31636(15) 0.05763(6)
C21_3 C 0.2741(3) 0.2878(4) 0.09537(17)
C22_3 C 0.1709(3) 0.0026(5) 0.23010(17)
H3_3 H 0.313496 0.0526555 0.281642
H4_3 H 0.242399 0.0924827 0.282508
H5_3 H 0.217896 0.326911 0.173591
H6_3 H 0.55322 0.0313101 0.174223
H7_3 H 0.314931 0.0579545 0.2233
H8_3 H 0.244907 0.0996366 0.224242
H9_3 H 0.147477 0.0445802 0.222522
H13_3 H 0.28131 0.19678 0.0757767
H15_3 H 0.147043 0.0367055 0.280861
N1_3 N 0.2351(2) 0.9960(2) 0.28324(12)
C5_3 C 0.2676(4) 0.9425(4) 0.26776(17)
Cl1_3 Cl 0.54253(9) 0.94239(15) 0.05821(6)
C11_3 C 0.1709(3) 0.9974(5) 0.26990(17)
Zn6_3 Zn 0.73603(3) 0.98976(3) 0.163670(15)
Zn7_3 Zn 0.73976(3) 0.98603(3) 0.086330(15)
O7_3 O 0.6458(2) 0.97790(19) 0.15145(11)
O9_3 O 0.64820(19) 0.9994(2) 0.09480(11)
C13_3 C 0.5523(3) 0.9928(3) 0.12305(16)
C14_3 C 0.6214(3) 0.9893(3) 0.12315(15)
O10_3 O 0.3278(2) 0.9978(2) 0.15564(12)
O11_3 O 0.22490(19) 0.9198(2) 0.15027(11)
C17_3 C 0.2666(4) 0.9470(4) 0.22800(17)
C19_3 C 0.4514(3) 0.9820(3) 0.09820(17)
C20_3 C 0.5142(4) 0.9757(3) 0.09636(16)
H1_3 H 0.244907 0.900363 0.275758
H2_3 H 0.314931 0.942046 0.2767
H10_3 H 0.147043 0.963295 0.219139
H11_3 H 0.242399 0.907517 0.217492
H12_3 H 0.313496 0.947344 0.218358
H14_3 H 0.423089 0.967896 0.0764092
H16_3 H 0.147477 0.95542 0.277478
N1_4 N 0.2649(2) 0.0040(2) 0.78324(12)
C5_4 C 0.2324(4) 0.0575(4) 0.76776(17)
C11_4 C 0.3291(3) 0.0026(5) 0.76990(17)
O10_4 O 0.1722(2) 0.0022(2) 0.65564(12)
O11_4 O 0.27510(19) 0.0802(2) 0.65027(11)
C17_4 C 0.2334(4) 0.0530(4) 0.72800(17)
C19_4 C 0.0486(3) 0.0180(3) 0.59820(17)
H1_4 H 0.255093 0.0996366 0.775758
H2_4 H 0.185069 0.0579545 0.7767
H10_4 H 0.352957 0.0367055 0.719139
H11_4 H 0.257601 0.0924827 0.717492
H12_4 H 0.186504 0.0526555 0.718358
H14_4 H 0.0769111 0.0321038 0.576409
H16_4 H 0.352523 0.0445802 0.777478
Zn1_4 Zn 0.26397(3) 0.98976(3) 0.663670(15)
O1_4 O 0.27210(19) 0.8958(2) 0.59855(11)
O2_4 O 0.2506(2) 0.89820(19) 0.65520(11)
C1_4 C 0.2438(3) 0.6739(3) 0.62237(16)
C2_4 C 0.2572(3) 0.8023(3) 0.62695(16)
C3_4 C 0.2607(3) 0.8714(3) 0.62685(15)
O3_4 O 0.2522(2) 0.5778(2) 0.59436(12)
C4_4 C 0.2398(3) 0.6053(3) 0.62208(16)
O4_4 O 0.1698(2) 0.97490(19) 0.59973(11)
C6_4 C 0.2334(4) 0.9470(4) 0.77200(17)
C8_4 C 0.2680(3) 0.7014(3) 0.65180(17)
Cl2_4 Cl 0.06636(15) 0.94365(9) 0.69237(6)
C9_4 C 0.2743(3) 0.7642(4) 0.65364(16)
C10_4 C 0.0378(4) 0.9759(3) 0.65463(17)
Zn4_4 Zn 0.23976(3) 0.48603(3) 0.586330(15)
Zn5_4 Zn 0.23603(3) 0.48976(3) 0.663670(15)
N2_4 N 0.2649(2) 0.9960(2) 0.71676(12)
N3_4 N 0.2460(2) 0.4851(2) 0.53324(12)
O5_4 O 0.3542(2) 0.97790(19) 0.65145(11)
O6_4 O 0.22790(19) 0.3958(2) 0.59855(11)
O8_4 O 0.14820(19) 0.4994(2) 0.59480(11)
C12_4 C 0.0761(3) 0.9938(3) 0.62763(16)
C15_4 C 0.1447(3) 0.9898(3) 0.62792(16)
O12_4 O 0.22490(19) 0.5802(2) 0.65027(11)
O13_4 O 0.3302(2) 0.47490(19) 0.59973(11)
C16_4 C 0.2324(4) 0.9425(4) 0.73224(17)
C18_4 C 0.2327(3) 0.7747(3) 0.59750(18)
Cl3_4 Cl 0.30761(15) 0.79253(9) 0.69179(6)
Cl4_4 Cl 0.19365(9) 0.68364(15) 0.55763(6)
C21_4 C 0.2259(3) 0.7122(4) 0.59537(17)
C22_4 C 0.3291(3) 0.9974(5) 0.73010(17)
H3_4 H 0.186504 0.947344 0.781642
H4_4 H 0.257601 0.907517 0.782508
H5_4 H 0.282104 0.673089 0.673591
H7_4 H 0.185069 0.942046 0.7233
H8_4 H 0.255093 0.900363 0.724242
H9_4 H 0.352523 0.95542 0.722522
H13_4 H 0.21869 0.80322 0.575777
H15_4 H 0.352957 0.963295 0.780861
Cl1_4 Cl 0.95747(9) 0.05761(15) 0.55821(6)
Zn6_4 Zn 0.76397(3) 0.01024(3) 0.663670(15)
Zn7_4 Zn 0.76024(3) 0.01397(3) 0.586330(15)
O7_4 O 0.8542(2) 0.02210(19) 0.65145(11)
O9_4 O 0.85180(19) 0.0006(2) 0.59480(11)
C13_4 C 0.9477(3) 0.0072(3) 0.62305(16)
C14_4 C 0.8786(3) 0.0107(3) 0.62315(15)
C20_4 C 0.9858(4) 0.0243(3) 0.59636(16)
C7_4 C 0.9753(3) 0.9827(3) 0.65250(18)
H6_4 H 0.94678 0.96869 0.674223
O2_5 O 0.14820(19) 0.0006(2) 0.09480(11)
C2_5 C 0.0523(3) 0.0072(3) 0.12305(16)
C3_5 C 0.1214(3) 0.0107(3) 0.12315(15)
C9_5 C 0.0142(4) 0.0243(3) 0.09636(16)
Cl3_5 Cl 0.04253(9) 0.05761(15) 0.05821(6)
C7_5 C 0.2327(3) 0.7253(3) 0.09750(18)
Cl1_5 Cl 0.30761(15) 0.70747(9) 0.19179(6)
Cl2_5 Cl 0.19365(9) 0.81636(15) 0.05763(6)
C10_5 C 0.2259(3) 0.7878(4) 0.09537(17)
O9_5 O 0.2506(2) 0.60180(19) 0.15520(11)
C12_5 C 0.2438(3) 0.8261(3) 0.12237(16)
C13_5 C 0.2572(3) 0.6977(3) 0.12695(16)
C14_5 C 0.2607(3) 0.6286(3) 0.12685(15)
O10_5 O 0.2522(2) 0.9222(2) 0.09436(12)
C15_5 C 0.2398(3) 0.8947(3) 0.12208(16)
C18_5 C 0.0247(3) 0.9827(3) 0.15250(18)
C19_5 C 0.2680(3) 0.7986(3) 0.15180(17)
C20_5 C 0.2743(3) 0.7358(4) 0.15364(16)
H6_5 H 0.21869 0.69678 0.0757767
H13_5 H 0.0532195 0.96869 0.174223
H14_5 H 0.282104 0.826911 0.173591
O3_5 O 0.8278(2) 0.0022(2) 0.15564(12)
C8_5 C 0.9514(3) 0.0180(3) 0.09820(17)
O13_5 O 0.72490(19) 0.0802(2) 0.15027(11)
H5_5 H 0.923089 0.0321038 0.0764092
C1_5 C 0.9239(3) 0.9938(3) 0.12763(16)
C4_5 C 0.8553(3) 0.9898(3) 0.12792(16)
N3_5 N 0.7351(2) 0.9960(2) 0.21676(12)
O8_5 O 0.7494(2) 0.89820(19) 0.15520(11)
O12_5 O 0.8302(2) 0.97490(19) 0.09973(11)
Cl4_5 Cl 0.93364(15) 0.94365(9) 0.19237(6)
C21_5 C 0.9622(4) 0.9759(3) 0.15463(17)
C1_6 C 0.5761(3) 0.0062(3) 0.62763(16)
C4_6 C 0.6447(3) 0.0102(3) 0.62792(16)
C7_6 C 0.2673(3) 0.2747(3) 0.59750(18)
Cl1_6 Cl 0.19239(15) 0.29253(9) 0.69179(6)
Cl2_6 Cl 0.30635(9) 0.18364(15) 0.55763(6)
C10_6 C 0.2741(3) 0.2122(4) 0.59537(17)
N3_6 N 0.7649(2) 0.0040(2) 0.71676(12)
O8_6 O 0.7506(2) 0.10180(19) 0.65520(11)
O9_6 O 0.2494(2) 0.39820(19) 0.65520(11)
C12_6 C 0.2562(3) 0.1739(3) 0.62237(16)
C13_6 C 0.2428(3) 0.3023(3) 0.62695(16)
C14_6 C 0.2393(3) 0.3714(3) 0.62685(15)
O10_6 O 0.2478(2) 0.0778(2) 0.59436(12)
C15_6 C 0.2602(3) 0.1053(3) 0.62208(16)
O12_6 O 0.6698(2) 0.02510(19) 0.59973(11)
C18_6 C 0.4753(3) 0.0173(3) 0.65250(18)
C19_6 C 0.2320(3) 0.2014(3) 0.65180(17)
Cl4_6 Cl 0.56636(15) 0.05635(9) 0.69237(6)
C20_6 C 0.2257(3) 0.2642(4) 0.65364(16)
C21_6 C 0.5378(4) 0.0241(3) 0.65463(17)
H6_6 H 0.28131 0.30322 0.575777
H13_6 H 0.44678 0.0313101 0.674223
H14_6 H 0.217896 0.173089 0.673591
O2_6 O 0.35180(19) 0.9994(2) 0.59480(11)
C2_6 C 0.4477(3) 0.9928(3) 0.62305(16)
C3_6 C 0.3786(3) 0.9893(3) 0.62315(15)
O3_6 O 0.6722(2) 0.9978(2) 0.65564(12)
C8_6 C 0.5486(3) 0.9820(3) 0.59820(17)
C9_6 C 0.4858(4) 0.9757(3) 0.59636(16)
O13_6 O 0.77510(19) 0.9198(2) 0.65027(11)
Cl3_6 Cl 0.45747(9) 0.94239(15) 0.55821(6)
H5_6 H 0.576911 0.967896 0.576409
O2_7 O 0.2506(2) 0.10180(19) 0.84480(11)
C1_7 C 0.2438(3) 0.3261(3) 0.87763(16)
C2_7 C 0.2572(3) 0.1977(3) 0.87305(16)
C3_7 C 0.2607(3) 0.1286(3) 0.87315(15)
O3_7 O 0.2522(2) 0.4222(2) 0.90564(12)
C4_7 C 0.2398(3) 0.3947(3) 0.87792(16)
C8_7 C 0.2680(3) 0.2986(3) 0.84820(17)
Cl2_7 Cl 0.06636(15) 0.05635(9) 0.80763(6)
C9_7 C 0.2743(3) 0.2358(4) 0.84636(16)
C10_7 C 0.0378(4) 0.0241(3) 0.84537(17)
N3_7 N 0.2460(2) 0.5149(2) 0.96676(12)
O8_7 O 0.14820(19) 0.5006(2) 0.90520(11)
C12_7 C 0.0761(3) 0.0062(3) 0.87237(16)
C15_7 C 0.1447(3) 0.0102(3) 0.87208(16)
O12_7 O 0.22490(19) 0.4198(2) 0.84973(11)
O13_7 O 0.3302(2) 0.52510(19) 0.90027(11)
C18_7 C 0.2327(3) 0.2253(3) 0.90250(18)
Cl3_7 Cl 0.30761(15) 0.20747(9) 0.80821(6)
Cl4_7 Cl 0.19365(9) 0.31636(15) 0.94237(6)
C21_7 C 0.2259(3) 0.2878(4) 0.90463(17)
H5_7 H 0.282104 0.326911 0.826409
H13_7 H 0.21869 0.19678 0.924223
O10_7 O 0.1722(2) 0.9978(2) 0.84436(12)
C19_7 C 0.0486(3) 0.9820(3) 0.90180(17)
H14_7 H 0.0769111 0.967896 0.923591
C7_7 C 0.9753(3) 0.0173(3) 0.84750(18)
H6_7 H 0.94678 0.0313101 0.825777
Cl1_7 Cl 0.95747(9) 0.94239(15) 0.94179(6)
O9_7 O 0.85180(19) 0.9994(2) 0.90520(11)
C13_7 C 0.9477(3) 0.9928(3) 0.87695(16)
C14_7 C 0.8786(3) 0.9893(3) 0.87685(15)
C20_7 C 0.9858(4) 0.9757(3) 0.90364(16)
Cl1_8 Cl 0.54253(9) 0.05761(15) 0.44179(6)
O9_8 O 0.64820(19) 0.0006(2) 0.40520(11)
C13_8 C 0.5523(3) 0.0072(3) 0.37695(16)
C14_8 C 0.6214(3) 0.0107(3) 0.37685(15)
O10_8 O 0.3278(2) 0.0022(2) 0.34436(12)
C19_8 C 0.4514(3) 0.0180(3) 0.40180(17)
C20_8 C 0.5142(4) 0.0243(3) 0.40364(16)
H14_8 H 0.423089 0.0321038 0.423591
O2_8 O 0.2494(2) 0.89820(19) 0.34480(11)
C1_8 C 0.2562(3) 0.6739(3) 0.37763(16)
C2_8 C 0.2428(3) 0.8023(3) 0.37305(16)
C3_8 C 0.2393(3) 0.8714(3) 0.37315(15)
O3_8 O 0.2478(2) 0.5778(2) 0.40564(12)
C4_8 C 0.2602(3) 0.6053(3) 0.37792(16)
C7_8 C 0.5247(3) 0.9827(3) 0.34750(18)
C8_8 C 0.2320(3) 0.7014(3) 0.34820(17)
Cl2_8 Cl 0.43364(15) 0.94365(9) 0.30763(6)
C9_8 C 0.2257(3) 0.7642(4) 0.34636(16)
C10_8 C 0.4622(4) 0.9759(3) 0.34537(17)
N3_8 N 0.2540(2) 0.4851(2) 0.46676(12)
O8_8 O 0.35180(19) 0.4994(2) 0.40520(11)
C12_8 C 0.4239(3) 0.9938(3) 0.37237(16)
C15_8 C 0.3553(3) 0.9898(3) 0.37208(16)
O12_8 O 0.27510(19) 0.5802(2) 0.34973(11)
O13_8 O 0.1698(2) 0.47490(19) 0.40027(11)
C18_8 C 0.2673(3) 0.7747(3) 0.40250(18)
Cl3_8 Cl 0.19239(15) 0.79253(9) 0.30821(6)
Cl4_8 Cl 0.30635(9) 0.68364(15) 0.44237(6)
C21_8 C 0.2741(3) 0.7122(4) 0.40463(17)
H5_8 H 0.217896 0.673089 0.326409
H6_8 H 0.55322 0.96869 0.325777
H13_8 H 0.28131 0.80322 0.424223
C1_9 C 0.0761(3) 0.4938(3) 0.37237(16)
O3_9 O 0.1722(2) 0.5022(2) 0.34436(12)
C4_9 C 0.1447(3) 0.4898(3) 0.37208(16)
C8_9 C 0.0486(3) 0.5180(3) 0.40180(17)
N3_9 N 0.2649(2) 0.4960(2) 0.28324(12)
O6_5 O 0.3542(2) 0.47790(19) 0.34855(11)
Cl4_9 Cl 0.06636(15) 0.44365(9) 0.30763(6)
C21_9 C 0.0378(4) 0.4759(3) 0.34537(17)
H5_9 H 0.0769111 0.532104 0.423591
Zn1_5 Zn 0.76024(3) 0.51397(3) 0.413670(15)
N1_5 N 0.7460(2) 0.5149(2) 0.53324(12)
O1_5 O 0.8542(2) 0.52210(19) 0.34855(11)
O2_9 O 0.85180(19) 0.5006(2) 0.40520(11)
C2_9 C 0.9477(3) 0.5072(3) 0.37695(16)
C3_9 C 0.8786(3) 0.5107(3) 0.37685(15)
O4_5 O 0.77510(19) 0.4198(2) 0.34973(11)
C5_5 C 0.6925(4) 0.4824(4) 0.51776(17)
C6_5 C 0.8030(4) 0.4834(4) 0.52200(17)
C7_9 C 0.7673(3) 0.2253(3) 0.40250(18)
Cl1_9 Cl 0.69239(15) 0.20747(9) 0.30821(6)
Cl2_9 Cl 0.80635(9) 0.31636(15) 0.44237(6)
C9_9 C 0.9858(4) 0.5243(3) 0.40364(16)
C10_9 C 0.7741(3) 0.2878(4) 0.40463(17)
C11_5 C 0.7474(5) 0.5791(3) 0.51990(17)
Zn2_3 Zn 0.73976(3) 0.51397(3) 0.586330(15)
Zn3_3 Zn 0.76397(3) 0.51024(3) 0.336330(15)
N2_5 N 0.7540(2) 0.5149(2) 0.46676(12)
O5_5 O 0.77210(19) 0.6042(2) 0.40145(11)
O7_5 O 0.72790(19) 0.1042(2) 0.40145(11)
C12_9 C 0.7562(3) 0.3261(3) 0.37763(16)
C13_9 C 0.7428(3) 0.1977(3) 0.37305(16)
C14_9 C 0.7393(3) 0.1286(3) 0.37315(15)
O10_9 O 0.7478(2) 0.4222(2) 0.40564(12)
C15_9 C 0.7602(3) 0.3947(3) 0.37792(16)
O11_5 O 0.6698(2) 0.52510(19) 0.40027(11)
C16_5 C 0.8075(4) 0.4824(4) 0.48224(17)
C17_5 C 0.6970(4) 0.4834(4) 0.47800(17)
C18_9 C 0.9753(3) 0.4827(3) 0.34750(18)
C19_9 C 0.7320(3) 0.2986(3) 0.34820(17)
Cl3_9 Cl 0.95747(9) 0.55761(15) 0.44179(6)
C20_9 C 0.7257(3) 0.2358(4) 0.34636(16)
C22_5 C 0.7526(5) 0.5791(3) 0.48010(17)
H1_5 H 0.650363 0.505093 0.525758
H2_5 H 0.692046 0.435069 0.5267
H3_5 H 0.802656 0.436504 0.531642
H4_5 H 0.842483 0.507601 0.532508
H6_9 H 0.78131 0.19678 0.424223
H7_5 H 0.807954 0.435069 0.4733
H8_5 H 0.849637 0.505093 0.474242
H9_5 H 0.79458 0.602523 0.472522
H10_5 H 0.713295 0.602957 0.469139
H11_5 H 0.657517 0.507601 0.467492
H12_5 H 0.697344 0.436504 0.468358
H13_9 H 0.94678 0.46869 0.325777
H14_9 H 0.717896 0.326911 0.326409
H15_5 H 0.786705 0.602957 0.530861
H16_5 H 0.70542 0.602523 0.527478
N1_6 N 0.7540(2) 0.4851(2) 0.03324(12)
C5_6 C 0.8075(4) 0.5176(4) 0.01776(17)
C6_6 C 0.6970(4) 0.5166(4) 0.02200(17)
C11_6 C 0.7526(5) 0.4209(3) 0.01990(17)
Zn2_4 Zn 0.76024(3) 0.48603(3) 0.086330(15)
H1_6 H 0.849637 0.494907 0.0257579
H2_6 H 0.807954 0.564931 0.0266995
H3_6 H 0.697344 0.563496 0.0316422
H4_6 H 0.657517 0.492399 0.0325083
H15_6 H 0.713295 0.397043 0.0308607
H16_6 H 0.79458 0.397477 0.0274782
Zn1_6 Zn 0.73976(3) 0.48603(3) 0.913670(15)
O1_6 O 0.6458(2) 0.47790(19) 0.84855(11)
O2_10 O 0.64820(19) 0.4994(2) 0.90520(11)
C1_10 C 0.4239(3) 0.5062(3) 0.87237(16)
C2_10 C 0.5523(3) 0.4928(3) 0.87695(16)
C3_10 C 0.6214(3) 0.4893(3) 0.87685(15)
O3_10 O 0.3278(2) 0.4978(2) 0.84436(12)
C4_10 C 0.3553(3) 0.5102(3) 0.87208(16)
O4_6 O 0.72490(19) 0.5802(2) 0.84973(11)
C7_10 C 0.7327(3) 0.7747(3) 0.90250(18)
C8_10 C 0.4514(3) 0.4820(3) 0.90180(17)
Cl1_10 Cl 0.80761(15) 0.79253(9) 0.80821(6)
Cl2_10 Cl 0.69365(9) 0.68364(15) 0.94237(6)
C9_10 C 0.5142(4) 0.4757(3) 0.90364(16)
C10_10 C 0.7259(3) 0.7122(4) 0.90463(17)
Zn3_4 Zn 0.73603(3) 0.48976(3) 0.836330(15)
N2_6 N 0.7460(2) 0.4851(2) 0.96676(12)
N3_10 N 0.2351(2) 0.5040(2) 0.78324(12)
O5_6 O 0.72790(19) 0.3958(2) 0.90145(11)
O6_6 O 0.1458(2) 0.52210(19) 0.84855(11)
O7_6 O 0.77210(19) 0.8958(2) 0.90145(11)
C12_10 C 0.7438(3) 0.6739(3) 0.87763(16)
C13_10 C 0.7572(3) 0.8023(3) 0.87305(16)
C14_10 C 0.7607(3) 0.8714(3) 0.87315(15)
O10_10 O 0.7522(2) 0.5778(2) 0.90564(12)
C15_10 C 0.7398(3) 0.6053(3) 0.87792(16)
O11_6 O 0.8302(2) 0.47490(19) 0.90027(11)
C16_6 C 0.6925(4) 0.5176(4) 0.98224(17)
C17_6 C 0.8030(4) 0.5166(4) 0.97800(17)
C18_10 C 0.5247(3) 0.5173(3) 0.84750(18)
C19_10 C 0.7680(3) 0.7014(3) 0.84820(17)
Cl3_10 Cl 0.54253(9) 0.44239(15) 0.94179(6)
Cl4_10 Cl 0.43364(15) 0.55635(9) 0.80763(6)
C20_10 C 0.7743(3) 0.7642(4) 0.84636(16)
C21_10 C 0.4622(4) 0.5241(3) 0.84537(17)
C22_6 C 0.7474(5) 0.4209(3) 0.98010(17)
H5_10 H 0.423089 0.467896 0.923591
H6_10 H 0.71869 0.80322 0.924223
H7_6 H 0.692046 0.564931 0.9733
H8_6 H 0.650363 0.494907 0.974242
H9_6 H 0.70542 0.397477 0.972522
H10_6 H 0.786705 0.397043 0.969139
H11_6 H 0.842483 0.492399 0.967492
H12_6 H 0.802656 0.563496 0.968358
H13_10 H 0.55322 0.53131 0.825777
H14_10 H 0.782104 0.673089 0.826409
C7_11 C 0.0247(3) 0.5173(3) 0.65250(18)
Cl1_11 Cl 0.04253(9) 0.44239(15) 0.55821(6)
O7_7 O 0.1458(2) 0.47790(19) 0.65145(11)
C13_11 C 0.0523(3) 0.4928(3) 0.62305(16)
C14_11 C 0.1214(3) 0.4893(3) 0.62315(15)
C20_11 C 0.0142(4) 0.4757(3) 0.59636(16)
H6_11 H 0.0532195 0.53131 0.674223
N3_11 N 0.7540(2) 0.0149(2) 0.53324(12)
O6_7 O 0.77210(19) 0.1042(2) 0.59855(11)
Zn1_7 Zn 0.73603(3) 0.51024(3) 0.663670(15)
N1_7 N 0.7351(2) 0.4960(2) 0.78324(12)
O1_7 O 0.72790(19) 0.6042(2) 0.59855(11)
O2_11 O 0.7494(2) 0.60180(19) 0.65520(11)
C1_11 C 0.7562(3) 0.8261(3) 0.62237(16)
C2_11 C 0.7428(3) 0.6977(3) 0.62695(16)
C3_11 C 0.7393(3) 0.6286(3) 0.62685(15)
O3_11 O 0.7478(2) 0.9222(2) 0.59436(12)
C4_11 C 0.7602(3) 0.8947(3) 0.62208(16)
O4_7 O 0.8302(2) 0.52510(19) 0.59973(11)
C5_7 C 0.7676(4) 0.4425(4) 0.76776(17)
C6_7 C 0.7666(4) 0.5530(4) 0.77200(17)
C8_11 C 0.7320(3) 0.7986(3) 0.65180(17)
Cl2_11 Cl 0.93364(15) 0.55635(9) 0.69237(6)
C9_11 C 0.7257(3) 0.7358(4) 0.65364(16)
C10_11 C 0.9622(4) 0.5241(3) 0.65463(17)
C11_7 C 0.6709(3) 0.4974(5) 0.76990(17)
N2_7 N 0.7351(2) 0.5040(2) 0.71676(12)
O5_7 O 0.6458(2) 0.52210(19) 0.65145(11)
C12_11 C 0.9239(3) 0.5062(3) 0.62763(16)
O10_11 O 0.8278(2) 0.4978(2) 0.65564(12)
C15_11 C 0.8553(3) 0.5102(3) 0.62792(16)
O11_7 O 0.72490(19) 0.4198(2) 0.65027(11)
C16_7 C 0.7676(4) 0.5575(4) 0.73224(17)
C17_7 C 0.7666(4) 0.4470(4) 0.72800(17)
C18_11 C 0.7673(3) 0.7253(3) 0.59750(18)
C19_11 C 0.9514(3) 0.4820(3) 0.59820(17)
Cl3_11 Cl 0.69239(15) 0.70747(9) 0.69179(6)
Cl4_11 Cl 0.80635(9) 0.81636(15) 0.55763(6)
C21_11 C 0.7741(3) 0.7878(4) 0.59537(17)
C22_7 C 0.6709(3) 0.5026(5) 0.73010(17)
H1_7 H 0.744907 0.400363 0.775758
H2_7 H 0.814931 0.442046 0.7767
H3_7 H 0.813496 0.552656 0.781642
H4_7 H 0.742399 0.592483 0.782508
H5_11 H 0.717896 0.826911 0.673591
H7_7 H 0.814931 0.557954 0.7233
H8_7 H 0.744907 0.599637 0.724242
H9_7 H 0.647477 0.54458 0.722522
H10_7 H 0.647043 0.463295 0.719139
H11_7 H 0.742399 0.407517 0.717492
H12_7 H 0.813496 0.447344 0.718358
H13_11 H 0.78131 0.69678 0.575777
H14_11 H 0.923089 0.467896 0.576409
H15_7 H 0.647043 0.536705 0.780861
H16_7 H 0.647477 0.45542 0.777478
Zn1_8 Zn 0.76397(3) 0.48976(3) 0.163670(15)
N1_8 N 0.7649(2) 0.5040(2) 0.28324(12)
O1_8 O 0.77210(19) 0.3958(2) 0.09855(11)
O2_12 O 0.7506(2) 0.39820(19) 0.15520(11)
C1_12 C 0.7438(3) 0.1739(3) 0.12237(16)
C2_12 C 0.7572(3) 0.3023(3) 0.12695(16)
C3_12 C 0.7607(3) 0.3714(3) 0.12685(15)
O3_12 O 0.7522(2) 0.0778(2) 0.09436(12)
C4_12 C 0.7398(3) 0.1053(3) 0.12208(16)
O4_8 O 0.6698(2) 0.47490(19) 0.09973(11)
C5_8 C 0.7324(4) 0.5575(4) 0.26776(17)
C6_8 C 0.7334(4) 0.4470(4) 0.27200(17)
C7_12 C 0.4753(3) 0.4827(3) 0.15250(18)
C8_12 C 0.7680(3) 0.2014(3) 0.15180(17)
Cl1_12 Cl 0.45747(9) 0.55761(15) 0.05821(6)
Cl2_12 Cl 0.56636(15) 0.44365(9) 0.19237(6)
C9_12 C 0.7743(3) 0.2642(4) 0.15364(16)
C10_12 C 0.5378(4) 0.4759(3) 0.15463(17)
C11_8 C 0.8291(3) 0.5026(5) 0.26990(17)
N2_8 N 0.7649(2) 0.4960(2) 0.21676(12)
O5_8 O 0.8542(2) 0.47790(19) 0.15145(11)
O7_8 O 0.3542(2) 0.52210(19) 0.15145(11)
C12_12 C 0.5761(3) 0.4938(3) 0.12763(16)
C13_12 C 0.4477(3) 0.5072(3) 0.12305(16)
C14_12 C 0.3786(3) 0.5107(3) 0.12315(15)
O10_12 O 0.6722(2) 0.5022(2) 0.15564(12)
C15_12 C 0.6447(3) 0.4898(3) 0.12792(16)
O11_8 O 0.77510(19) 0.5802(2) 0.15027(11)
C16_8 C 0.7324(4) 0.4425(4) 0.23224(17)
C17_8 C 0.7334(4) 0.5530(4) 0.22800(17)
C18_12 C 0.7327(3) 0.2747(3) 0.09750(18)
C19_12 C 0.5486(3) 0.5180(3) 0.09820(17)
Cl3_12 Cl 0.80761(15) 0.29253(9) 0.19179(6)
Cl4_12 Cl 0.69365(9) 0.18364(15) 0.05763(6)
C20_12 C 0.4858(4) 0.5243(3) 0.09636(16)
C21_12 C 0.7259(3) 0.2122(4) 0.09537(17)
C22_8 C 0.8291(3) 0.4974(5) 0.23010(17)
H1_8 H 0.755093 0.599637 0.275758
H2_8 H 0.685069 0.557954 0.2767
H3_8 H 0.686504 0.447344 0.281642
H4_8 H 0.757601 0.407517 0.282508
H5_12 H 0.782104 0.173089 0.173591
H6_12 H 0.44678 0.46869 0.174223
H7_8 H 0.685069 0.442046 0.2233
H8_8 H 0.755093 0.400363 0.224242
H9_8 H 0.852523 0.45542 0.222522
H10_8 H 0.852957 0.536705 0.219139
H11_8 H 0.757601 0.592483 0.217492
H12_8 H 0.686504 0.552656 0.218358
H13_12 H 0.71869 0.30322 0.0757767
H14_12 H 0.576911 0.532104 0.0764092
H15_8 H 0.852957 0.463295 0.280861
H16_8 H 0.852523 0.54458 0.277478
N3_12 N 0.7460(2) 0.9851(2) 0.03324(12)
O6_8 O 0.72790(19) 0.8958(2) 0.09855(11)
O2_13 O 0.64820(19) 0.5006(2) 0.59480(11)
C1_13 C 0.4239(3) 0.4938(3) 0.62763(16)
C2_13 C 0.5523(3) 0.5072(3) 0.62305(16)
C3_13 C 0.6214(3) 0.5107(3) 0.62315(15)
O3_13 O 0.3278(2) 0.5022(2) 0.65564(12)
C4_13 C 0.3553(3) 0.4898(3) 0.62792(16)
C7_13 C 0.7327(3) 0.2253(3) 0.59750(18)
C8_13 C 0.4514(3) 0.5180(3) 0.59820(17)
Cl1_13 Cl 0.80761(15) 0.20747(9) 0.69179(6)
Cl2_13 Cl 0.69365(9) 0.31636(15) 0.55763(6)
C9_13 C 0.5142(4) 0.5243(3) 0.59636(16)
C10_13 C 0.7259(3) 0.2878(4) 0.59537(17)
N3_13 N 0.2351(2) 0.4960(2) 0.71676(12)
C12_13 C 0.7438(3) 0.3261(3) 0.62237(16)
C13_13 C 0.7572(3) 0.1977(3) 0.62695(16)
C14_13 C 0.7607(3) 0.1286(3) 0.62685(15)
O10_13 O 0.7522(2) 0.4222(2) 0.59436(12)
C15_13 C 0.7398(3) 0.3947(3) 0.62208(16)
C18_13 C 0.5247(3) 0.4827(3) 0.65250(18)
C19_13 C 0.7680(3) 0.2986(3) 0.65180(17)
Cl3_13 Cl 0.54253(9) 0.55761(15) 0.55821(6)
Cl4_13 Cl 0.43364(15) 0.44365(9) 0.69237(6)
C20_13 C 0.7743(3) 0.2358(4) 0.65364(16)
C21_13 C 0.4622(4) 0.4759(3) 0.65463(17)
H5_13 H 0.423089 0.532104 0.576409
H6_13 H 0.71869 0.19678 0.575777
H13_13 H 0.55322 0.46869 0.674223
H14_13 H 0.782104 0.326911 0.673591
C1_14 C 0.0761(3) 0.5062(3) 0.12763(16)
O3_14 O 0.1722(2) 0.4978(2) 0.15564(12)
C4_14 C 0.1447(3) 0.5102(3) 0.12792(16)
C8_14 C 0.0486(3) 0.4820(3) 0.09820(17)
N3_14 N 0.2649(2) 0.5040(2) 0.21676(12)
Cl4_14 Cl 0.06636(15) 0.55635(9) 0.19237(6)
C21_14 C 0.0378(4) 0.5241(3) 0.15463(17)
H5_14 H 0.0769111 0.467896 0.0764092
O2_14 O 0.85180(19) 0.4994(2) 0.09480(11)
C2_14 C 0.9477(3) 0.4928(3) 0.12305(16)
C3_14 C 0.8786(3) 0.4893(3) 0.12315(15)
C7_14 C 0.7673(3) 0.7747(3) 0.09750(18)
Cl1_14 Cl 0.69239(15) 0.79253(9) 0.19179(6)
Cl2_14 Cl 0.80635(9) 0.68364(15) 0.05763(6)
C9_14 C 0.9858(4) 0.4757(3) 0.09636(16)
C10_14 C 0.7741(3) 0.7122(4) 0.09537(17)
C12_14 C 0.7562(3) 0.6739(3) 0.12237(16)
C13_14 C 0.7428(3) 0.8023(3) 0.12695(16)
C14_14 C 0.7393(3) 0.8714(3) 0.12685(15)
O10_14 O 0.7478(2) 0.5778(2) 0.09436(12)
C15_14 C 0.7602(3) 0.6053(3) 0.12208(16)
C18_14 C 0.9753(3) 0.5173(3) 0.15250(18)
C19_14 C 0.7320(3) 0.7014(3) 0.15180(17)
Cl3_14 Cl 0.95747(9) 0.44239(15) 0.05821(6)
C20_14 C 0.7257(3) 0.7642(4) 0.15364(16)
H6_14 H 0.78131 0.80322 0.0757767
H13_14 H 0.94678 0.53131 0.174223
H14_14 H 0.717896 0.673089 0.173591
N3_15 N 0.7460(2) 0.0149(2) 0.46676(12)
O2_15 O 0.7506(2) 0.60180(19) 0.34480(11)
C1_15 C 0.7438(3) 0.8261(3) 0.37763(16)
C2_15 C 0.7572(3) 0.6977(3) 0.37305(16)
C3_15 C 0.7607(3) 0.6286(3) 0.37315(15)
O3_15 O 0.7522(2) 0.9222(2) 0.40564(12)
C4_15 C 0.7398(3) 0.8947(3) 0.37792(16)
C7_15 C 0.4753(3) 0.5173(3) 0.34750(18)
C8_15 C 0.7680(3) 0.7986(3) 0.34820(17)
Cl1_15 Cl 0.45747(9) 0.44239(15) 0.44179(6)
Cl2_15 Cl 0.56636(15) 0.55635(9) 0.30763(6)
C9_15 C 0.7743(3) 0.7358(4) 0.34636(16)
C10_15 C 0.5378(4) 0.5241(3) 0.34537(17)
C12_15 C 0.5761(3) 0.5062(3) 0.37237(16)
C13_15 C 0.4477(3) 0.4928(3) 0.37695(16)
C14_15 C 0.3786(3) 0.4893(3) 0.37685(15)
O10_15 O 0.6722(2) 0.4978(2) 0.34436(12)
C15_15 C 0.6447(3) 0.5102(3) 0.37208(16)
C18_15 C 0.7327(3) 0.7253(3) 0.40250(18)
C19_15 C 0.5486(3) 0.4820(3) 0.40180(17)
Cl3_15 Cl 0.80761(15) 0.70747(9) 0.30821(6)
Cl4_15 Cl 0.69365(9) 0.81636(15) 0.44237(6)
C20_15 C 0.4858(4) 0.4757(3) 0.40364(16)
C21_15 C 0.7259(3) 0.7878(4) 0.40463(17)
H5_15 H 0.782104 0.826911 0.326409
H6_15 H 0.44678 0.53131 0.325777
H13_15 H 0.71869 0.69678 0.424223
H14_15 H 0.576911 0.467896 0.423591
C7_16 C 0.0247(3) 0.4827(3) 0.84750(18)
Cl1_16 Cl 0.04253(9) 0.55761(15) 0.94179(6)
C13_16 C 0.0523(3) 0.5072(3) 0.87695(16)
C14_16 C 0.1214(3) 0.5107(3) 0.87685(15)
C20_16 C 0.0142(4) 0.5243(3) 0.90364(16)
H6_16 H 0.0532195 0.46869 0.825777
O2_16 O 0.7494(2) 0.39820(19) 0.84480(11)
C1_16 C 0.7562(3) 0.1739(3) 0.87763(16)
C2_16 C 0.7428(3) 0.3023(3) 0.87305(16)
C3_16 C 0.7393(3) 0.3714(3) 0.87315(15)
O3_16 O 0.7478(2) 0.0778(2) 0.90564(12)
C4_16 C 0.7602(3) 0.1053(3) 0.87792(16)
C8_16 C 0.7320(3) 0.2014(3) 0.84820(17)
Cl2_16 Cl 0.93364(15) 0.44365(9) 0.80763(6)
C9_16 C 0.7257(3) 0.2642(4) 0.84636(16)
C10_16 C 0.9622(4) 0.4759(3) 0.84537(17)
C12_16 C 0.9239(3) 0.4938(3) 0.87237(16)
O10_16 O 0.8278(2) 0.5022(2) 0.84436(12)
C15_16 C 0.8553(3) 0.4898(3) 0.87208(16)
C18_16 C 0.7673(3) 0.2747(3) 0.90250(18)
C19_16 C 0.9514(3) 0.5180(3) 0.90180(17)
Cl3_16 Cl 0.69239(15) 0.29253(9) 0.80821(6)
Cl4_16 Cl 0.80635(9) 0.18364(15) 0.94237(6)
C21_16 C 0.7741(3) 0.2122(4) 0.90463(17)
H5_16 H 0.717896 0.173089 0.826409
H13_16 H 0.78131 0.30322 0.924223
H14_16 H 0.923089 0.532104 0.923591
N3_16 N 0.7540(2) 0.9851(2) 0.96676(12)
C16_9 C 0.6925(4) 0.0176(4) 0.01776(17)
C17_9 C 0.8030(4) 0.0166(4) 0.02200(17)
H7_9 H 0.692046 0.0649305 0.0266995
H12_9 H 0.802656 0.0634964 0.0316422
C5_9 C 0.8075(4) 0.0176(4) 0.98224(17)
C6_9 C 0.6970(4) 0.0166(4) 0.97800(17)
H2_9 H 0.807954 0.0649305 0.9733
H3_9 H 0.697344 0.0634964 0.968358
C22_9 C 0.7474(5) 0.9209(3) 0.01990(17)
H8_9 H 0.650363 0.994907 0.0257579
H9_9 H 0.70542 0.897477 0.0274782
H10_9 H 0.786705 0.897043 0.0308607
H11_9 H 0.842483 0.992399 0.0325083
C11_9 C 0.7526(5) 0.9209(3) 0.98010(17)
H1_9 H 0.849637 0.994907 0.974242
H4_9 H 0.657517 0.992399 0.967492
H15_9 H 0.713295 0.897043 0.969139
H16_9 H 0.79458 0.897477 0.972522
C11_10 C 0.7474(5) 0.0791(3) 0.48010(17)
C22_10 C 0.7526(5) 0.0791(3) 0.51990(17)
H1_10 H 0.650363 0.00509287 0.474242
H4_10 H 0.842483 0.00760144 0.467492
H8_10 H 0.849637 0.00509287 0.525758
H9_10 H 0.79458 0.102523 0.527478
H10_10 H 0.713295 0.102957 0.530861
H11_10 H 0.657517 0.00760144 0.532508
H15_10 H 0.786705 0.102957 0.469139
H16_10 H 0.70542 0.102523 0.472522
C5_10 C 0.6925(4) 0.9824(4) 0.48224(17)
C6_10 C 0.8030(4) 0.9834(4) 0.47800(17)
C16_10 C 0.8075(4) 0.9824(4) 0.51776(17)
C17_10 C 0.6970(4) 0.9834(4) 0.52200(17)
H2_10 H 0.692046 0.935069 0.4733
H3_10 H 0.802656 0.936504 0.468358
H7_10 H 0.807954 0.935069 0.5267
H12_10 H 0.697344 0.936504 0.531642
C5_11 C 0.7324(4) 0.0575(4) 0.73224(17)
C11_11 C 0.8291(3) 0.0026(5) 0.73010(17)
C17_11 C 0.7334(4) 0.0530(4) 0.77200(17)
H1_11 H 0.755093 0.0996366 0.724242
H2_11 H 0.685069 0.0579545 0.7233
H10_11 H 0.852957 0.0367055 0.780861
H11_11 H 0.757601 0.0924827 0.782508
H12_11 H 0.686504 0.0526555 0.781642
H16_11 H 0.852523 0.0445802 0.722522
C6_11 C 0.7334(4) 0.9470(4) 0.72800(17)
C16_11 C 0.7324(4) 0.9425(4) 0.76776(17)
C22_11 C 0.8291(3) 0.9974(5) 0.76990(17)
H3_11 H 0.686504 0.947344 0.718358
H4_11 H 0.757601 0.907517 0.717492
H7_11 H 0.685069 0.942046 0.7767
H8_11 H 0.755093 0.900363 0.775758
H9_11 H 0.852523 0.95542 0.777478
H15_11 H 0.852957 0.963295 0.719139
C6_12 C 0.7666(4) 0.0530(4) 0.22800(17)
C16_12 C 0.7676(4) 0.0575(4) 0.26776(17)
C22_12 C 0.6709(3) 0.0026(5) 0.26990(17)
H3_12 H 0.813496 0.0526555 0.218358
H4_12 H 0.742399 0.0924827 0.217492
H7_12 H 0.814931 0.0579545 0.2767
H8_12 H 0.744907 0.0996366 0.275758
H9_12 H 0.647477 0.0445802 0.277478
H15_12 H 0.647043 0.0367055 0.219139
C5_12 C 0.7676(4) 0.9425(4) 0.23224(17)
C11_12 C 0.6709(3) 0.9974(5) 0.23010(17)
C17_12 C 0.7666(4) 0.9470(4) 0.27200(17)
H1_12 H 0.744907 0.900363 0.224242
H2_12 H 0.814931 0.942046 0.2233
H10_12 H 0.647043 0.963295 0.280861
H11_12 H 0.742399 0.907517 0.282508
H12_12 H 0.813496 0.947344 0.281642
H16_12 H 0.647477 0.95542 0.222522
C5_13 C 0.3075(4) 0.5176(4) 0.48224(17)
C6_13 C 0.1970(4) 0.5166(4) 0.47800(17)
C11_13 C 0.2526(5) 0.4209(3) 0.48010(17)
C16_13 C 0.1925(4) 0.5176(4) 0.51776(17)
C17_13 C 0.3030(4) 0.5166(4) 0.52200(17)
C22_13 C 0.2474(5) 0.4209(3) 0.51990(17)
H1_13 H 0.349637 0.494907 0.474242
H2_13 H 0.307954 0.564931 0.4733
H3_13 H 0.197344 0.563496 0.468358
H4_13 H 0.157517 0.492399 0.467492
H7_13 H 0.192046 0.564931 0.5267
H8_13 H 0.150363 0.494907 0.525758
H9_13 H 0.20542 0.397477 0.527478
H10_13 H 0.286705 0.397043 0.530861
H11_13 H 0.342483 0.492399 0.532508
H12_13 H 0.302656 0.563496 0.531642
H15_13 H 0.213295 0.397043 0.469139
H16_13 H 0.29458 0.397477 0.472522
C16_14 C 0.3075(4) 0.4824(4) 0.01776(17)
C17_14 C 0.1970(4) 0.4834(4) 0.02200(17)
C22_14 C 0.2526(5) 0.5791(3) 0.01990(17)
H7_14 H 0.307954 0.435069 0.0266995
H8_14 H 0.349637 0.505093 0.0257579
H9_14 H 0.29458 0.602523 0.0274782
H10_14 H 0.213295 0.602957 0.0308607
H11_14 H 0.157517 0.507601 0.0325083
H12_14 H 0.197344 0.436504 0.0316422
C5_14 C 0.1925(4) 0.4824(4) 0.98224(17)
C6_14 C 0.3030(4) 0.4834(4) 0.97800(17)
C11_14 C 0.2474(5) 0.5791(3) 0.98010(17)
H1_14 H 0.150363 0.505093 0.974242
H2_14 H 0.192046 0.435069 0.9733
H3_14 H 0.302656 0.436504 0.968358
H4_14 H 0.342483 0.507601 0.967492
H15_14 H 0.286705 0.602957 0.969139
H16_14 H 0.20542 0.602523 0.972522
C5_15 C 0.2324(4) 0.5575(4) 0.23224(17)
C6_15 C 0.2334(4) 0.4470(4) 0.22800(17)
C11_15 C 0.3291(3) 0.5026(5) 0.23010(17)
C16_15 C 0.2324(4) 0.4425(4) 0.26776(17)
C17_15 C 0.2334(4) 0.5530(4) 0.27200(17)
C22_15 C 0.3291(3) 0.4974(5) 0.26990(17)
H1_15 H 0.255093 0.599637 0.224242
H2_15 H 0.185069 0.557954 0.2233
H3_15 H 0.186504 0.447344 0.218358
H4_15 H 0.257601 0.407517 0.217492
H7_15 H 0.185069 0.442046 0.2767
H8_15 H 0.255093 0.400363 0.275758
H9_15 H 0.352523 0.45542 0.277478
H10_15 H 0.352957 0.536705 0.280861
H11_15 H 0.257601 0.592483 0.282508
H12_15 H 0.186504 0.552656 0.281642
H15_15 H 0.352957 0.463295 0.219139
H16_15 H 0.352523 0.54458 0.222522
C5_16 C 0.2676(4) 0.4425(4) 0.73224(17)
C6_16 C 0.2666(4) 0.5530(4) 0.72800(17)
C11_16 C 0.1709(3) 0.4974(5) 0.73010(17)
C16_16 C 0.2676(4) 0.5575(4) 0.76776(17)
C17_16 C 0.2666(4) 0.4470(4) 0.77200(17)
C22_16 C 0.1709(3) 0.5026(5) 0.76990(17)
H1_16 H 0.244907 0.400363 0.724242
H2_16 H 0.314931 0.442046 0.7233
H3_16 H 0.313496 0.552656 0.718358
H4_16 H 0.242399 0.592483 0.717492
H7_16 H 0.314931 0.557954 0.7767
H8_16 H 0.244907 0.599637 0.775758
H9_16 H 0.147477 0.54458 0.777478
H10_16 H 0.147043 0.463295 0.780861
H11_16 H 0.242399 0.407517 0.782508
H12_16 H 0.313496 0.447344 0.781642
H15_16 H 0.147043 0.536705 0.719139
H16_16 H 0.147477 0.45542 0.722522
loop_
_geom_bond_atom_site_label_1
_geom_bond_atom_site_label_2
_geom_bond_site_symmetry_1
_geom_bond_site_symmetry_2
C11 N1 1_555 1_555
Zn2 N1 1_555 1_555
C11 H15 1_555 1_555
C11 H16 1_555 1_555
Zn1 O2 1_555 1_555
O1 C3 1_555 1_555
O2 C3 1_555 1_555
C2 C3 1_555 1_555
C9 C2 1_555 1_555
Zn3 O1 1_555 1_555
N2 Zn1 1_555 1_555
O5 Zn1 1_555 1_555
O11 Zn1 1_555 1_555
Cl3 C9 1_555 1_555
C8 C9 1_555 1_555
N2 C22 1_555 1_555
C8 H5 1_555 1_555
C22 H9 1_555 1_555
C22 H10 1_555 1_555
C5 H2 1_555 1_555
C6 H3 1_555 1_555
C1 C4 1_555 1_555
C4 O12 1_555 1_555
C7 C10 1_555 1_555
Cl1 C20 1_555 1_555
Cl2 C10 1_555 1_555
C10 C12 1_555 1_555
Zn5 O12 1_555 1_555
Zn6 O7 1_555 1_555
Zn7 O9 1_555 1_555
N3 Zn4 1_555 1_555
O6 Zn4 1_555 1_555
O7 C14 1_555 1_555
O8 Zn4 1_555 1_555
O9 C14 1_555 1_555
C12 C15 1_555 1_555
C13 C7 1_555 1_555
C14 C13 1_555 1_555
C15 O4 1_555 1_555
C19 C12 1_555 1_555
Cl4 C21 1_555 1_555
C20 C13 1_555 1_555
C21 C1 1_555 1_555
O10 C15 1_555 1_555
C18 C21 1_555 1_555
C19 C20 1_555 1_555
C7 H6 1_555 1_555
C16 H7 1_555 1_555
C17 H12 1_555 1_555
C18 H13 1_555 1_555
C19 H14 1_555 1_555
C5_2 C17_2 1_555 1_555
C7_2 C10_2 1_555 1_555
Cl1_2 C20_2 1_555 1_555
Cl2_2 C10_2 1_555 1_555
C10_2 C12_2 1_555 1_555
Zn6_2 O7_2 1_555 1_555
Zn7_2 O9_2 1_555 1_555
O7_2 C14_2 1_555 1_555
O9_2 C14_2 1_555 1_555
C12_2 C15_2 1_555 1_555
C13_2 C7_2 1_555 1_555
C14_2 C13_2 1_555 1_555
C15_2 O4_2 1_555 1_555
C16_2 C6_2 1_555 1_555
C19_2 C12_2 1_555 1_555
C20_2 C13_2 1_555 1_555
O10_2 C15_2 1_555 1_555
C19_2 C20_2 1_555 1_555
C5_2 H2_2 1_555 1_555
C6_2 H3_2 1_555 1_555
C7_2 H6_2 1_555 1_555
C16_2 H7_2 1_555 1_555
C17_2 H12_2 1_555 1_555
C18_2 H13_2 1_555 1_555
C19_2 H14_2 1_555 1_555
Zn1_2 O2_2 1_555 1_555
O1_2 C3_2 1_555 1_555
O2_2 C3_2 1_555 1_555
C2_2 C3_2 1_555 1_555
C9_2 C2_2 1_555 1_555
C11_2 N1_2 1_555 1_555
Zn2_2 N1_2 1_555 1_555
Zn3_2 O1_2 1_555 1_555
N2_2 Zn1_2 1_555 1_555
O5_2 Zn1_2 1_555 1_555
O11_2 Zn1_2 1_555 1_555
Cl3_2 C9_2 1_555 1_555
C22_2 C11_2 1_555 1_555
N2_2 C22_2 1_555 1_555
C22_2 H9_2 1_555 1_555
C22_2 H10_2 1_555 1_555
C11_2 H15_2 1_555 1_555
C11_2 H16_2 1_555 1_555
C1_2 C4_2 1_555 1_555
C4_2 O12_2 1_555 1_555
Zn5_2 O12_2 1_555 1_555
N3_2 Zn4_2 1_555 1_555
O6_2 Zn4_2 1_555 1_555
O8_2 Zn4_2 1_555 1_555
Cl4_2 C21_2 1_555 1_555
C21_2 C1_2 1_555 1_555
C8_2 H5_2 1_555 1_555
Zn1_3 O2_3 1_555 1_555
O1_3 C3_3 1_555 1_555
O2_3 C3_3 1_555 1_555
C1_3 C4_3 1_555 1_555
C2_3 C3_3 1_555 1_555
O3_3 C4_3 1_555 1_555
C4_3 O12_3 1_555 1_555
O4_3 Zn2 1_555 1_555
C7_3 C10_3 1_555 1_555
C8_3 C1_3 1_555 1_555
Cl2_3 C10_3 1_555 1_555
C9_3 C2_3 1_555 1_555
C10_3 C12_3 1_555 1_555
Zn2 O1_3 1_555 1_555
Zn4_3 O3_3 1_555 1_555
Zn5_3 O12_3 1_555 1_555
N2_3 Zn1_3 1_555 1_555
N3_3 Zn4_3 1_555 1_555
O5_3 Zn1_3 1_555 1_555
O6_3 Zn4_3 1_555 1_555
O8_3 Zn4_3 1_555 1_555
C12_3 C15_3 1_555 1_555
C15_3 O4_3 1_555 1_555
O13_3 Zn4_3 1_555 1_555
C16_3 C6_3 1_555 1_555
C18_3 C2_3 1_555 1_555
Cl3_3 C9_3 1_555 1_555
Cl4_3 C21_3 1_555 1_555
C21_3 C1_3 1_555 1_555
C8_3 C9_3 1_555 1_555
N2_3 C16_3 1_555 1_555
N2_3 C22_3 1_555 1_555
C18_3 C21_3 1_555 1_555
C6_3 H3_3 1_555 1_555
C6_3 H4_3 1_555 1_555
C8_3 H5_3 1_555 1_555
C7_3 H6_3 1_555 1_555
C16_3 H7_3 1_555 1_555
C16_3 H8_3 1_555 1_555
C22_3 H9_3 1_555 1_555
C18_3 H13_3 1_555 1_555
N1_3 C5_3 1_555 1_555
C5_3 C17_3 1_555 1_555
Cl1_3 C20_3 1_555 1_555
C11_3 N1_3 1_555 1_555
Zn3_2 N1_3 1_555 1_555
Zn6_3 O7_3 1_555 1_555
Zn7_3 O9_3 1_555 1_555
O7_3 C14_3 1_555 1_555
O9_3 C14_3 1_555 1_555
C14_3 C13_3 1_555 1_555
C20_3 C13_3 1_555 1_555
C19_3 C20_3 1_555 1_555
C5_3 H1_3 1_555 1_555
C5_3 H2_3 1_555 1_555
C17_3 H11_3 1_555 1_555
C17_3 H12_3 1_555 1_555
C19_3 H14_3 1_555 1_555
C11_3 H16_3 1_555 1_555
N1_4 C5_4 1_555 1_555
C5_4 C17_4 1_555 1_555
C11_4 N1_4 1_555 1_555
Zn3 N1_4 1_555 1_555
C5_4 H1_4 1_555 1_555
C5_4 H2_4 1_555 1_555
C17_4 H11_4 1_555 1_555
C17_4 H12_4 1_555 1_555
C19_4 H14_4 1_555 1_555
C11_4 H16_4 1_555 1_555
Zn1_4 O2_4 1_555 1_555
O1_4 C3_4 1_555 1_555
O2_4 C3_4 1_555 1_555
C1_4 C4_4 1_555 1_555
C2_4 C3_4 1_555 1_555
O3_4 C4_4 1_555 1_555
C4_4 O12_4 1_555 1_555
O4_4 Zn2_2 1_555 1_555
C8_4 C1_4 1_555 1_555
Cl2_4 C10_4 1_555 1_555
C9_4 C2_4 1_555 1_555
C10_4 C12_4 1_555 1_555
Zn2_2 O1_4 1_555 1_555
Zn4_4 O3_4 1_555 1_555
Zn5_4 O12_4 1_555 1_555
N2_4 Zn1_4 1_555 1_555
N3_4 Zn4_4 1_555 1_555
O5_4 Zn1_4 1_555 1_555
O6_4 Zn4_4 1_555 1_555
O8_4 Zn4_4 1_555 1_555
C12_4 C15_4 1_555 1_555
C15_4 O4_4 1_555 1_555
O13_4 Zn4_4 1_555 1_555
C16_4 C6_4 1_555 1_555
C18_4 C2_4 1_555 1_555
Cl3_4 C9_4 1_555 1_555
Cl4_4 C21_4 1_555 1_555
C21_4 C1_4 1_555 1_555
C8_4 C9_4 1_555 1_555
N2_4 C16_4 1_555 1_555
N2_4 C22_4 1_555 1_555
C18_4 C21_4 1_555 1_555
C6_4 H3_4 1_555 1_555
C6_4 H4_4 1_555 1_555
C8_4 H5_4 1_555 1_555
C16_4 H7_4 1_555 1_555
C16_4 H8_4 1_555 1_555
C22_4 H9_4 1_555 1_555
C18_4 H13_4 1_555 1_555
Cl1_4 C20_4 1_555 1_555
Zn6_4 O7_4 1_555 1_555
Zn7_4 O9_4 1_555 1_555
O7_4 C14_4 1_555 1_555
O9_4 C14_4 1_555 1_555
C14_4 C13_4 1_555 1_555
C20_4 C13_4 1_555 1_555
C7_4 H6_4 1_555 1_555
Zn2 O2_5 1_555 1_555
O5_3 C3_5 1_555 1_555
O2_5 C3_5 1_555 1_555
C2_5 C3_5 1_555 1_555
C9_5 C2_5 1_555 1_555
Cl3_5 C9_5 1_555 1_555
C7_5 C10_5 1_555 1_555
Cl1_5 C20_5 1_555 1_555
Cl2_5 C10_5 1_555 1_555
C10_5 C12_5 1_555 1_555
Zn5_3 O9_5 1_555 1_555
O6_3 C14_5 1_555 1_555
O9_5 C14_5 1_555 1_555
C12_5 C15_5 1_555 1_555
C13_5 C7_5 1_555 1_555
C14_5 C13_5 1_555 1_555
C15_5 O11_3 1_555 1_555
C19_5 C12_5 1_555 1_555
C20_5 C13_5 1_555 1_555
O10_5 C15_5 1_555 1_555
C19_5 C20_5 1_555 1_555
C7_5 H6_5 1_555 1_555
C18_5 H13_5 1_555 1_555
C19_5 H14_5 1_555 1_555
C8_5 H5_5 1_555 1_555
C1_5 C4_5 1_555 1_555
C4_5 O12_5 1_555 1_555
Zn7_3 O12_5 1_555 1_555
N3_5 Zn6_3 1_555 1_555
O8_5 Zn6_3 1_555 1_555
Cl4_5 C21_5 1_555 1_555
C21_5 C1_5 1_555 1_555
C1_6 C4_6 1_555 1_555
C4_6 O12_6 1_555 1_555
C7_6 C10_6 1_555 1_555
Cl1_6 C20_6 1_555 1_555
Cl2_6 C10_6 1_555 1_555
C10_6 C12_6 1_555 1_555
Zn7_4 O12_6 1_555 1_555
Zn5_4 O9_6 1_555 1_555
N3_6 Zn6_4 1_555 1_555
O6_4 C14_6 1_555 1_555
O8_6 Zn6_4 1_555 1_555
O9_6 C14_6 1_555 1_555
C12_6 C15_6 1_555 1_555
C13_6 C7_6 1_555 1_555
C14_6 C13_6 1_555 1_555
C15_6 O11_4 1_555 1_555
C19_6 C12_6 1_555 1_555
Cl4_6 C21_6 1_555 1_555
C20_6 C13_6 1_555 1_555
C21_6 C1_6 1_555 1_555
O10_6 C15_6 1_555 1_555
C18_6 C21_6 1_555 1_555
C19_6 C20_6 1_555 1_555
C7_6 H6_6 1_555 1_555
C18_6 H13_6 1_555 1_555
C19_6 H14_6 1_555 1_555
Zn2_2 O2_6 1_555 1_555
O5_4 C3_6 1_555 1_555
O2_6 C3_6 1_555 1_555
C2_6 C3_6 1_555 1_555
C9_6 C2_6 1_555 1_555
Cl3_6 C9_6 1_555 1_555
C8_6 C9_6 1_555 1_555
C8_6 H5_6 1_555 1_555
Zn3 O2_7 1_555 1_555
O5 C3_7 1_555 1_555
O2_7 C3_7 1_555 1_555
C1_7 C4_7 1_555 1_555
C2_7 C3_7 1_555 1_555
O3_7 C4_7 1_555 1_555
C4_7 O12_7 1_555 1_555
C8_7 C1_7 1_555 1_555
Cl2_7 C10_7 1_555 1_555
C9_7 C2_7 1_555 1_555
C10_7 C12_7 1_555 1_555
Zn6 O3_7 1_555 1_555
Zn7 O12_7 1_555 1_555
N3_7 Zn6 1_555 1_555
O8_7 Zn6 1_555 1_555
C12_7 C15_7 1_555 1_555
C15_7 O11 1_555 1_555
O13_7 Zn6 1_555 1_555
C18_7 C2_7 1_555 1_555
Cl3_7 C9_7 1_555 1_555
Cl4_7 C21_7 1_555 1_555
C21_7 C1_7 1_555 1_555
C8_7 C9_7 1_555 1_555
C18_7 C21_7 1_555 1_555
C8_7 H5_7 1_555 1_555
C18_7 H13_7 1_555 1_555
C19_7 H14_7 1_555 1_555
C7_7 H6_7 1_555 1_555
Cl1_7 C20_7 1_555 1_555
Zn5 O9_7 1_555 1_555
O6 C14_7 1_555 1_555
O9_7 C14_7 1_555 1_555
C14_7 C13_7 1_555 1_555
C20_7 C13_7 1_555 1_555
Cl1_8 C20_8 1_555 1_555
Zn5_2 O9_8 1_555 1_555
O6_2 C14_8 1_555 1_555
O9_8 C14_8 1_555 1_555
C14_8 C13_8 1_555 1_555
C20_8 C13_8 1_555 1_555
C19_8 C20_8 1_555 1_555
C19_8 H14_8 1_555 1_555
Zn3_2 O2_8 1_555 1_555
O5_2 C3_8 1_555 1_555
O2_8 C3_8 1_555 1_555
C1_8 C4_8 1_555 1_555
C2_8 C3_8 1_555 1_555
O3_8 C4_8 1_555 1_555
C4_8 O12_8 1_555 1_555
C7_8 C10_8 1_555 1_555
C8_8 C1_8 1_555 1_555
Cl2_8 C10_8 1_555 1_555
C9_8 C2_8 1_555 1_555
C10_8 C12_8 1_555 1_555
Zn6_2 O3_8 1_555 1_555
Zn7_2 O12_8 1_555 1_555
N3_8 Zn6_2 1_555 1_555
O8_8 Zn6_2 1_555 1_555
C12_8 C15_8 1_555 1_555
C15_8 O11_2 1_555 1_555
O13_8 Zn6_2 1_555 1_555
C18_8 C2_8 1_555 1_555
Cl3_8 C9_8 1_555 1_555
Cl4_8 C21_8 1_555 1_555
C21_8 C1_8 1_555 1_555
C8_8 C9_8 1_555 1_555
C18_8 C21_8 1_555 1_555
C8_8 H5_8 1_555 1_555
C7_8 H6_8 1_555 1_555
C18_8 H13_8 1_555 1_555
C1_9 C4_9 1_555 1_555
O3_9 C4_9 1_555 1_555
C4_9 O13_8 1_555 1_555
C8_9 C1_9 1_555 1_555
Zn7_2 O3_9 1_555 1_555
N3_9 Zn7_2 1_555 1_555
O6_5 Zn7_2 1_555 1_555
Cl4_9 C21_9 1_555 1_555
C21_9 C1_9 1_555 1_555
C8_9 H5_9 1_555 1_555
Zn1_5 O2_9 1_555 1_555
N1_5 C5_5 1_555 1_555
O1_5 C3_9 1_555 1_555
O2_9 C3_9 1_555 1_555
C2_9 C3_9 1_555 1_555
O4_5 Zn3_3 1_555 1_555
C5_5 C17_5 1_555 1_555
C6_5 N1_5 1_555 1_555
C7_9 C10_9 1_555 1_555
Cl1_9 C20_9 1_555 1_555
Cl2_9 C10_9 1_555 1_555
C9_9 C2_9 1_555 1_555
C10_9 C12_9 1_555 1_555
C11_5 N1_5 1_555 1_555
Zn2_3 N1_5 1_555 1_555
Zn3_3 O1_5 1_555 1_555
Zn5_2 O7_5 1_555 1_555
N2_5 Zn1_5 1_555 1_555
O5_5 Zn1_5 1_555 1_555
O7_5 C14_9 1_555 1_555
O8_2 C14_9 1_555 1_555
C12_9 C15_9 1_555 1_555
C13_9 C7_9 1_555 1_555
C14_9 C13_9 1_555 1_555
O10_9 Zn1_5 1_555 1_555
C15_9 O4_5 1_555 1_555
O11_5 Zn1_5 1_555 1_555
C16_5 C6_5 1_555 1_555
C17_5 N2_5 1_555 1_555
C18_9 C2_9 1_555 1_555
C19_9 C12_9 1_555 1_555
Cl3_9 C9_9 1_555 1_555
C20_9 C13_9 1_555 1_555
C22_5 C11_5 1_555 1_555
N2_5 C16_5 1_555 1_555
N2_5 C22_5 1_555 1_555
O10_9 C15_9 1_555 1_555
C19_9 C20_9 1_555 1_555
C5_5 H1_5 1_555 1_555
C5_5 H2_5 1_555 1_555
C6_5 H3_5 1_555 1_555
C6_5 H4_5 1_555 1_555
C7_9 H6_9 1_555 1_555
C16_5 H7_5 1_555 1_555
C16_5 H8_5 1_555 1_555
C22_5 H9_5 1_555 1_555
C22_5 H10_5 1_555 1_555
C17_5 H11_5 1_555 1_555
C17_5 H12_5 1_555 1_555
C18_9 H13_9 1_555 1_555
C19_9 H14_9 1_555 1_555
C11_5 H15_5 1_555 1_555
C11_5 H16_5 1_555 1_555
N1_6 C5_6 1_555 1_555
C6_6 N1_6 1_555 1_555
C11_6 N1_6 1_555 1_555
Zn2_4 N1_6 1_555 1_555
C5_6 H1_6 1_555 1_555
C5_6 H2_6 1_555 1_555
C6_6 H3_6 1_555 1_555
C6_6 H4_6 1_555 1_555
C11_6 H15_6 1_555 1_555
C11_6 H16_6 1_555 1_555
Zn1_6 O2_10 1_555 1_555
O1_6 C3_10 1_555 1_555
O2_10 C3_10 1_555 1_555
C1_10 C4_10 1_555 1_555
C2_10 C3_10 1_555 1_555
O3_10 C4_10 1_555 1_555
C4_10 O13_7 1_555 1_555
O4_6 Zn3_4 1_555 1_555
C7_10 C10_10 1_555 1_555
C8_10 C1_10 1_555 1_555
Cl1_10 C20_10 1_555 1_555
Cl2_10 C10_10 1_555 1_555
C9_10 C2_10 1_555 1_555
C10_10 C12_10 1_555 1_555
Zn3_4 O1_6 1_555 1_555
Zn7 O3_10 1_555 1_555
Zn5 O7_6 1_555 1_555
N2_6 Zn1_6 1_555 1_555
N3_10 Zn7 1_555 1_555
O5_6 Zn1_6 1_555 1_555
O6_6 Zn7 1_555 1_555
O7_6 C14_10 1_555 1_555
O8 C14_10 1_555 1_555
C12_10 C15_10 1_555 1_555
C13_10 C7_10 1_555 1_555
C14_10 C13_10 1_555 1_555
O10_10 Zn1_6 1_555 1_555
C15_10 O4_6 1_555 1_555
O11_6 Zn1_6 1_555 1_555
C17_6 N2_6 1_555 1_555
C18_10 C2_10 1_555 1_555
C19_10 C12_10 1_555 1_555
Cl3_10 C9_10 1_555 1_555
Cl4_10 C21_10 1_555 1_555
C20_10 C13_10 1_555 1_555
C21_10 C1_10 1_555 1_555
C8_10 C9_10 1_555 1_555
N2_6 C16_6 1_555 1_555
N2_6 C22_6 1_555 1_555
O10_10 C15_10 1_555 1_555
C18_10 C21_10 1_555 1_555
C19_10 C20_10 1_555 1_555
C8_10 H5_10 1_555 1_555
C7_10 H6_10 1_555 1_555
C16_6 H7_6 1_555 1_555
C16_6 H8_6 1_555 1_555
C22_6 H9_6 1_555 1_555
C22_6 H10_6 1_555 1_555
C17_6 H11_6 1_555 1_555
C17_6 H12_6 1_555 1_555
C18_10 H13_10 1_555 1_555
C19_10 H14_10 1_555 1_555
Cl1_11 C20_11 1_555 1_555
Zn5_4 O7_7 1_555 1_555
O7_7 C14_11 1_555 1_555
O8_4 C14_11 1_555 1_555
C13_11 C7_11 1_555 1_555
C14_11 C13_11 1_555 1_555
C20_11 C13_11 1_555 1_555
C7_11 H6_11 1_555 1_555
N3_11 Zn7_4 1_555 1_555
O6_7 Zn7_4 1_555 1_555
Zn1_7 O2_11 1_555 1_555
N1_7 C5_7 1_555 1_555
O1_7 C3_11 1_555 1_555
O2_11 C3_11 1_555 1_555
C1_11 C4_11 1_555 1_555
C2_11 C3_11 1_555 1_555
O3_11 C4_11 1_555 1_555
C4_11 O13_6 1_555 1_555
O4_7 Zn2_3 1_555 1_555
C5_7 C17_7 1_555 1_555
C6_7 N1_7 1_555 1_555
C8_11 C1_11 1_555 1_555
Cl2_11 C10_11 1_555 1_555
C9_11 C2_11 1_555 1_555
C10_11 C12_11 1_555 1_555
C11_7 N1_7 1_555 1_555
Zn3_4 N1_7 1_555 1_555
Zn2_3 O1_7 1_555 1_555
N2_7 Zn1_7 1_555 1_555
O5_7 Zn1_7 1_555 1_555
C12_11 C15_11 1_555 1_555
O10_11 Zn1_7 1_555 1_555
C15_11 O4_7 1_555 1_555
O11_7 Zn1_7 1_555 1_555
C16_7 C6_7 1_555 1_555
C17_7 N2_7 1_555 1_555
C18_11 C2_11 1_555 1_555
C19_11 C12_11 1_555 1_555
Cl3_11 C9_11 1_555 1_555
Cl4_11 C21_11 1_555 1_555
C21_11 C1_11 1_555 1_555
C22_7 C11_7 1_555 1_555
C8_11 C9_11 1_555 1_555
N2_7 C16_7 1_555 1_555
N2_7 C22_7 1_555 1_555
O10_11 C15_11 1_555 1_555
C18_11 C21_11 1_555 1_555
C5_7 H1_7 1_555 1_555
C5_7 H2_7 1_555 1_555
C6_7 H3_7 1_555 1_555
C6_7 H4_7 1_555 1_555
C8_11 H5_11 1_555 1_555
C16_7 H7_7 1_555 1_555
C16_7 H8_7 1_555 1_555
C22_7 H9_7 1_555 1_555
C22_7 H10_7 1_555 1_555
C17_7 H11_7 1_555 1_555
C17_7 H12_7 1_555 1_555
C18_11 H13_11 1_555 1_555
C19_11 H14_11 1_555 1_555
C11_7 H15_7 1_555 1_555
C11_7 H16_7 1_555 1_555
Zn1_8 O2_12 1_555 1_555
N1_8 C5_8 1_555 1_555
O1_8 C3_12 1_555 1_555
O2_12 C3_12 1_555 1_555
C1_12 C4_12 1_555 1_555
C2_12 C3_12 1_555 1_555
O3_12 C4_12 1_555 1_555
C4_12 O13_5 1_555 1_555
O4_8 Zn2_4 1_555 1_555
C5_8 C17_8 1_555 1_555
C6_8 N1_8 1_555 1_555
C7_12 C10_12 1_555 1_555
C8_12 C1_12 1_555 1_555
Cl1_12 C20_12 1_555 1_555
Cl2_12 C10_12 1_555 1_555
C9_12 C2_12 1_555 1_555
C10_12 C12_12 1_555 1_555
C11_8 N1_8 1_555 1_555
Zn3_3 N1_8 1_555 1_555
Zn2_4 O1_8 1_555 1_555
Zn5_3 O7_8 1_555 1_555
N2_8 Zn1_8 1_555 1_555
O5_8 Zn1_8 1_555 1_555
O7_8 C14_12 1_555 1_555
O8_3 C14_12 1_555 1_555
C12_12 C15_12 1_555 1_555
C13_12 C7_12 1_555 1_555
C14_12 C13_12 1_555 1_555
O10_12 Zn1_8 1_555 1_555
C15_12 O4_8 1_555 1_555
O11_8 Zn1_8 1_555 1_555
C16_8 C6_8 1_555 1_555
C17_8 N2_8 1_555 1_555
C18_12 C2_12 1_555 1_555
C19_12 C12_12 1_555 1_555
Cl3_12 C9_12 1_555 1_555
Cl4_12 C21_12 1_555 1_555
C20_12 C13_12 1_555 1_555
C21_12 C1_12 1_555 1_555
C22_8 C11_8 1_555 1_555
C8_12 C9_12 1_555 1_555
N2_8 C16_8 1_555 1_555
N2_8 C22_8 1_555 1_555
O10_12 C15_12 1_555 1_555
C18_12 C21_12 1_555 1_555
C19_12 C20_12 1_555 1_555
C5_8 H1_8 1_555 1_555
C5_8 H2_8 1_555 1_555
C6_8 H3_8 1_555 1_555
C6_8 H4_8 1_555 1_555
C8_12 H5_12 1_555 1_555
C7_12 H6_12 1_555 1_555
C16_8 H7_8 1_555 1_555
C16_8 H8_8 1_555 1_555
C22_8 H9_8 1_555 1_555
C22_8 H10_8 1_555 1_555
C17_8 H11_8 1_555 1_555
C17_8 H12_8 1_555 1_555
C18_12 H13_12 1_555 1_555
C19_12 H14_12 1_555 1_555
C11_8 H15_8 1_555 1_555
C11_8 H16_8 1_555 1_555
N3_12 Zn7_3 1_555 1_555
O6_8 Zn7_3 1_555 1_555
Zn2_3 O2_13 1_555 1_555
O5_7 C3_13 1_555 1_555
O2_13 C3_13 1_555 1_555
C1_13 C4_13 1_555 1_555
C2_13 C3_13 1_555 1_555
O3_13 C4_13 1_555 1_555
C4_13 O13_4 1_555 1_555
C7_13 C10_13 1_555 1_555
C8_13 C1_13 1_555 1_555
Cl1_13 C20_13 1_555 1_555
Cl2_13 C10_13 1_555 1_555
C9_13 C2_13 1_555 1_555
C10_13 C12_13 1_555 1_555
Zn5_4 O3_13 1_555 1_555
N3_13 Zn5_4 1_555 1_555
O6_7 C14_13 1_555 1_555
O8_6 C14_13 1_555 1_555
C12_13 C15_13 1_555 1_555
C13_13 C7_13 1_555 1_555
C14_13 C13_13 1_555 1_555
O10_13 Zn2_3 1_555 1_555
C15_13 O11_7 1_555 1_555
C18_13 C2_13 1_555 1_555
C19_13 C12_13 1_555 1_555
Cl3_13 C9_13 1_555 1_555
Cl4_13 C21_13 1_555 1_555
C20_13 C13_13 1_555 1_555
C21_13 C1_13 1_555 1_555
C8_13 C9_13 1_555 1_555
O10_13 C15_13 1_555 1_555
C18_13 C21_13 1_555 1_555
C19_13 C20_13 1_555 1_555
C8_13 H5_13 1_555 1_555
C7_13 H6_13 1_555 1_555
C18_13 H13_13 1_555 1_555
C19_13 H14_13 1_555 1_555
C1_14 C4_14 1_555 1_555
O3_14 C4_14 1_555 1_555
C4_14 O13_3 1_555 1_555
C8_14 C1_14 1_555 1_555
Zn5_3 O3_14 1_555 1_555
N3_14 Zn5_3 1_555 1_555
Cl4_14 C21_14 1_555 1_555
C21_14 C1_14 1_555 1_555
C8_14 H5_14 1_555 1_555
Zn2_4 O2_14 1_555 1_555
O5_8 C3_14 1_555 1_555
O2_14 C3_14 1_555 1_555
C2_14 C3_14 1_555 1_555
C7_14 C10_14 1_555 1_555
Cl1_14 C20_14 1_555 1_555
Cl2_14 C10_14 1_555 1_555
C9_14 C2_14 1_555 1_555
C10_14 C12_14 1_555 1_555
O6_8 C14_14 1_555 1_555
O8_5 C14_14 1_555 1_555
C12_14 C15_14 1_555 1_555
C13_14 C7_14 1_555 1_555
C14_14 C13_14 1_555 1_555
O10_14 Zn2_4 1_555 1_555
C15_14 O11_8 1_555 1_555
C18_14 C2_14 1_555 1_555
C19_14 C12_14 1_555 1_555
Cl3_14 C9_14 1_555 1_555
C20_14 C13_14 1_555 1_555
O10_14 C15_14 1_555 1_555
C19_14 C20_14 1_555 1_555
C7_14 H6_14 1_555 1_555
C18_14 H13_14 1_555 1_555
C19_14 H14_14 1_555 1_555
N3_15 Zn5_2 1_555 1_555
Zn3_3 O2_15 1_555 1_555
O5_5 C3_15 1_555 1_555
O2_15 C3_15 1_555 1_555
C1_15 C4_15 1_555 1_555
C2_15 C3_15 1_555 1_555
O3_15 C4_15 1_555 1_555
C4_15 O13_2 1_555 1_555
C7_15 C10_15 1_555 1_555
C8_15 C1_15 1_555 1_555
Cl1_15 C20_15 1_555 1_555
Cl2_15 C10_15 1_555 1_555
C9_15 C2_15 1_555 1_555
C10_15 C12_15 1_555 1_555
O6_5 C14_15 1_555 1_555
O8_8 C14_15 1_555 1_555
C12_15 C15_15 1_555 1_555
C13_15 C7_15 1_555 1_555
C14_15 C13_15 1_555 1_555
O10_15 Zn3_3 1_555 1_555
C15_15 O11_5 1_555 1_555
C18_15 C2_15 1_555 1_555
C19_15 C12_15 1_555 1_555
Cl3_15 C9_15 1_555 1_555
Cl4_15 C21_15 1_555 1_555
C20_15 C13_15 1_555 1_555
C21_15 C1_15 1_555 1_555
C8_15 C9_15 1_555 1_555
O10_15 C15_15 1_555 1_555
C18_15 C21_15 1_555 1_555
C19_15 C20_15 1_555 1_555
C8_15 H5_15 1_555 1_555
C7_15 H6_15 1_555 1_555
C18_15 H13_15 1_555 1_555
C19_15 H14_15 1_555 1_555
Cl1_16 C20_16 1_555 1_555
O6_6 C14_16 1_555 1_555
O8_7 C14_16 1_555 1_555
C13_16 C7_16 1_555 1_555
C14_16 C13_16 1_555 1_555
C20_16 C13_16 1_555 1_555
C7_16 H6_16 1_555 1_555
Zn3_4 O2_16 1_555 1_555
O5_6 C3_16 1_555 1_555
O2_16 C3_16 1_555 1_555
C1_16 C4_16 1_555 1_555
C2_16 C3_16 1_555 1_555
O3_16 C4_16 1_555 1_555
C4_16 O13 1_555 1_555
C8_16 C1_16 1_555 1_555
Cl2_16 C10_16 1_555 1_555
C9_16 C2_16 1_555 1_555
C10_16 C12_16 1_555 1_555
C12_16 C15_16 1_555 1_555
O10_16 Zn3_4 1_555 1_555
C15_16 O11_6 1_555 1_555
C18_16 C2_16 1_555 1_555
C19_16 C12_16 1_555 1_555
Cl3_16 C9_16 1_555 1_555
Cl4_16 C21_16 1_555 1_555
C21_16 C1_16 1_555 1_555
C8_16 C9_16 1_555 1_555
O10_16 C15_16 1_555 1_555
C18_16 C21_16 1_555 1_555
C8_16 H5_16 1_555 1_555
C18_16 H13_16 1_555 1_555
C19_16 H14_16 1_555 1_555
N3_16 Zn5 1_555 1_555
C16_9 H7_9 1_555 1_555
C17_9 H12_9 1_555 1_555
C5_9 H2_9 1_555 1_555
C6_9 H3_9 1_555 1_555
N3_12 C22_9 1_555 1_555
C22_9 H9_9 1_555 1_555
C22_9 H10_9 1_555 1_555
C11_9 N3_16 1_555 1_555
C11_9 H15_9 1_555 1_555
C11_9 H16_9 1_555 1_555
C11_10 N3_15 1_555 1_555
C22_10 C11_10 1_555 1_555
N3_11 C22_10 1_555 1_555
C22_10 H9_10 1_555 1_555
C22_10 H10_10 1_555 1_555
C11_10 H15_10 1_555 1_555
C11_10 H16_10 1_555 1_555
C5_10 C17_10 1_555 1_555
C16_10 C6_10 1_555 1_555
C5_10 H2_10 1_555 1_555
C6_10 H3_10 1_555 1_555
C16_10 H7_10 1_555 1_555
C17_10 H12_10 1_555 1_555
N3_6 C5_11 1_555 1_555
C5_11 C17_11 1_555 1_555
C11_11 N3_6 1_555 1_555
C5_11 H1_11 1_555 1_555
C5_11 H2_11 1_555 1_555
C17_11 H11_11 1_555 1_555
C17_11 H12_11 1_555 1_555
C11_11 H16_11 1_555 1_555
C16_11 C6_11 1_555 1_555
N3 C16_11 1_555 1_555
N3 C22_11 1_555 1_555
C6_11 H3_11 1_555 1_555
C6_11 H4_11 1_555 1_555
C16_11 H7_11 1_555 1_555
C16_11 H8_11 1_555 1_555
C22_11 H9_11 1_555 1_555
C16_12 C6_12 1_555 1_555
N3_2 C16_12 1_555 1_555
N3_2 C22_12 1_555 1_555
C6_12 H3_12 1_555 1_555
C6_12 H4_12 1_555 1_555
C16_12 H7_12 1_555 1_555
C16_12 H8_12 1_555 1_555
C22_12 H9_12 1_555 1_555
N3_5 C5_12 1_555 1_555
C5_12 C17_12 1_555 1_555
C11_12 N3_5 1_555 1_555
C5_12 H1_12 1_555 1_555
C5_12 H2_12 1_555 1_555
C17_12 H11_12 1_555 1_555
C17_12 H12_12 1_555 1_555
C11_12 H16_12 1_555 1_555
N3_8 C5_13 1_555 1_555
C5_13 C17_13 1_555 1_555
C6_13 N3_8 1_555 1_555
C11_13 N3_8 1_555 1_555
C16_13 C6_13 1_555 1_555
C17_13 N3_4 1_555 1_555
C22_13 C11_13 1_555 1_555
N3_4 C16_13 1_555 1_555
N3_4 C22_13 1_555 1_555
C5_13 H1_13 1_555 1_555
C5_13 H2_13 1_555 1_555
C6_13 H3_13 1_555 1_555
C6_13 H4_13 1_555 1_555
C16_13 H7_13 1_555 1_555
C16_13 H8_13 1_555 1_555
C22_13 H9_13 1_555 1_555
C22_13 H10_13 1_555 1_555
C17_13 H11_13 1_555 1_555
C17_13 H12_13 1_555 1_555
C11_13 H15_13 1_555 1_555
C11_13 H16_13 1_555 1_555
C17_14 N3_3 1_555 1_555
N3_3 C16_14 1_555 1_555
N3_3 C22_14 1_555 1_555
C16_14 H7_14 1_555 1_555
C16_14 H8_14 1_555 1_555
C22_14 H9_14 1_555 1_555
C22_14 H10_14 1_555 1_555
C17_14 H11_14 1_555 1_555
C17_14 H12_14 1_555 1_555
N3_7 C5_14 1_555 1_555
C6_14 N3_7 1_555 1_555
C11_14 N3_7 1_555 1_555
C5_14 H1_14 1_555 1_555
C5_14 H2_14 1_555 1_555
C6_14 H3_14 1_555 1_555
C6_14 H4_14 1_555 1_555
C11_14 H15_14 1_555 1_555
C11_14 H16_14 1_555 1_555
N3_14 C5_15 1_555 1_555
C5_15 C17_15 1_555 1_555
C6_15 N3_14 1_555 1_555
C11_15 N3_14 1_555 1_555
C16_15 C6_15 1_555 1_555
C17_15 N3_9 1_555 1_555
C22_15 C11_15 1_555 1_555
N3_9 C16_15 1_555 1_555
N3_9 C22_15 1_555 1_555
C5_15 H1_15 1_555 1_555
C5_15 H2_15 1_555 1_555
C6_15 H3_15 1_555 1_555
C6_15 H4_15 1_555 1_555
C16_15 H7_15 1_555 1_555
C16_15 H8_15 1_555 1_555
C22_15 H9_15 1_555 1_555
C22_15 H10_15 1_555 1_555
C17_15 H11_15 1_555 1_555
C17_15 H12_15 1_555 1_555
C11_15 H15_15 1_555 1_555
C11_15 H16_15 1_555 1_555
N3_13 C5_16 1_555 1_555
C5_16 C17_16 1_555 1_555
C6_16 N3_13 1_555 1_555
C11_16 N3_13 1_555 1_555
C16_16 C6_16 1_555 1_555
C17_16 N3_10 1_555 1_555
C22_16 C11_16 1_555 1_555
N3_10 C16_16 1_555 1_555
N3_10 C22_16 1_555 1_555
C5_16 H1_16 1_555 1_555
C5_16 H2_16 1_555 1_555
C6_16 H3_16 1_555 1_555
C6_16 H4_16 1_555 1_555
C16_16 H7_16 1_555 1_555
C16_16 H8_16 1_555 1_555
C22_16 H9_16 1_555 1_555
C22_16 H10_16 1_555 1_555
C17_16 H11_16 1_555 1_555
C17_16 H12_16 1_555 1_555
C11_16 H15_16 1_555 1_555
C11_16 H16_16 1_555 1_555

#END
