
###############################################################################
#
# This file contains modified crystal structure data generated from the
# MOF subset of the Cambridge Structural Database (CSD) v543 
# hosted by the Cambridge Crystallographic Data Centre (CCDC).
#
# This work is licensed under the Creative Commons
# Attribution-NonCommercial-ShareAlike 4.0 International License.
# To view a copy of this license, visit
# http://creativecommons.org/licenses/by-nc-sa/4.0/
# or send a letter to
# Creative Commons, PO Box 1866, Mountain View, CA 94042, USA.
#
# CIF created using the CSD Python API on 29 September 2022
# The structure has been converted into the P1 space group
# The structure has a 3D framework
# The original CSD entry OLEYAH is in the rhombohedral crystal system
# The framework has been calculated to contain at least 10.0% void space
# The void calculation uses a probe of radius 1.32A, grid spacing 0.4
#
###############################################################################

data_OLEYAH
_chemical_formula_moiety         '(C144 H36 O97 Zn18)n'
_symmetry_cell_setting           triclinic
_symmetry_space_group_name_H-M   'P 1'
_symmetry_Int_Tables_number      1
_space_group_name_Hall           'P 1'
loop_
_symmetry_equiv_pos_site_id
_symmetry_equiv_pos_as_xyz
1 x,y,z
_cell_length_a                   22.9556(13)
_cell_length_b                   22.9556(13)
_cell_length_c                   15.883(2)
_cell_angle_alpha                90
_cell_angle_beta                 90
_cell_angle_gamma                120
_cell_volume                     7248.37
loop_
_atom_site_label
_atom_site_type_symbol
_atom_site_fract_x
_atom_site_fract_y
_atom_site_fract_z
O1 O 0.7520(6) 0.0123(4) 0.8782(5)
Zn4 Zn 0.76134(9) 0.09464(9) 0.9167
O2 O 0.6835(5) 0.8344(4) 0.0060(4)
Zn1 Zn 0.6667 0.76134(9) 0.0833
Zn2 Zn 0.6667 0.89296(14) 0.0833
O7 O 0.7397(7) 0.7520(6) 0.1218(5)
O8 O 0.5936(7) 0.6790(4) 0.0449(5)
O9 O 0.6498(5) 0.8176(6) 0.1607(4)
O10 O 0.6331(5) 0.9302(6) 0.1710(5)
C1 C 0.6750(8) 0.8328(7) 0.9212(7)
C2 C 0.6879(7) 0.8925(6) 0.8786(6)
C3 C 0.6526(7) 0.7731(7) 0.8761(8)
H1 H 0.6427 0.7334 0.9036
C4 C 0.7161(9) 0.9581(5) 0.9210(7)
O3 O 0.7002(5) 0.9637(4) 0.9957(5)
C5 C 0.6583(8) 0.8339(7) 0.7455(7)
C6 C 0.6454(7) 0.7742(6) 0.7881(6)
C7 C 0.6807(7) 0.8936(7) 0.7906(8)
H2 H 0.6906 0.9333 0.7631
O4 O 0.6498(5) 0.8323(4) 0.6607(4)
C8 C 0.6172(9) 0.7086(5) 0.7457(7)
O5 O 0.5813(6) 0.6544(4) 0.7885(5)
O6 O 0.6331(5) 0.7030(4) 0.6710(5)
Zn3 Zn 0.57203(9) 0.57199(9) 0.7500
Zn5 Zn 0.6667 0.90536(9) 0.5833
Zn6 Zn 0.6667 0.77374(14) 0.5833
Zn3_2 Zn 0.42801(9) 0.00003(13) 0.7500
O2_2 O 0.1656(4) 0.8491(6) 0.0060(4)
Zn1_2 Zn 0.23866(9) 0.90536(9) 0.0833
Zn2_2 Zn 0.10704(14) 0.77374(14) 0.0833
O7_2 O 0.2480(6) 0.9877(9) 0.1218(5)
O8_2 O 0.3210(4) 0.9147(8) 0.0449(5)
O9_2 O 0.1824(6) 0.8323(8) 0.1607(4)
O10_2 O 0.0698(6) 0.7030(8) 0.1710(5)
C1_2 C 0.1672(7) 0.8422(11) 0.9212(7)
C2_2 C 0.1075(6) 0.7954(9) 0.8786(6)
C3_2 C 0.2269(7) 0.8795(10) 0.8761(8)
H1_2 H 0.2666 0.9093 0.9036
C4_2 C 0.0419(5) 0.7580(10) 0.9210(7)
O3_2 O 0.0363(4) 0.7365(6) 0.9957(5)
C5_2 C 0.1661(7) 0.8245(11) 0.7455(7)
C6_2 C 0.2258(6) 0.8713(9) 0.7881(6)
C7_2 C 0.1064(7) 0.7872(10) 0.7906(8)
H2_2 H 0.0667 0.7574 0.7631
O4_2 O 0.1677(4) 0.8176(6) 0.6607(4)
C8_2 C 0.2914(5) 0.9087(10) 0.7457(7)
O5_2 O 0.3456(4) 0.9270(7) 0.7885(5)
O6_2 O 0.2970(4) 0.9302(6) 0.6710(5)
Zn3_3 Zn 0.42801(9) 1.00003(13) 0.7500
Zn5_2 Zn 0.09464(9) 0.76134(9) 0.5833
Zn6_2 Zn 0.22626(14) 0.89296(14) 0.5833
O1_2 O 0.9877(4) 0.7397(7) 0.8782(5)
Zn4_2 Zn 0.90536(9) 0.66670(13) 0.9167
O2_3 O 0.1509(6) 0.3165(5) 0.0060(4)
Zn1_3 Zn 0.09464(9) 0.3333 0.0833
Zn2_3 Zn 0.22626(14) 0.3333 0.0833
O7_3 O 0.0123(9) 0.2603(7) 0.1218(5)
O8_3 O 0.0853(8) 0.4064(7) 0.0449(5)
O9_3 O 0.1677(8) 0.3502(5) 0.1607(4)
O10_3 O 0.2970(8) 0.3669(5) 0.1710(5)
C1_3 C 0.1578(11) 0.3250(8) 0.9212(7)
C2_3 C 0.2046(9) 0.3121(7) 0.8786(6)
C3_3 C 0.1205(10) 0.3474(7) 0.8761(8)
H1_3 H 0.0907 0.3573 0.9036
C4_3 C 0.2420(10) 0.2839(9) 0.9210(7)
O1_3 O 0.2603(7) 0.2480(6) 0.8782(5)
O3_3 O 0.2635(6) 0.2998(5) 0.9957(5)
C5_3 C 0.1755(11) 0.3417(8) 0.7455(7)
C6_3 C 0.1287(9) 0.3546(7) 0.7881(6)
C7_3 C 0.2128(10) 0.3193(7) 0.7906(8)
H2_3 H 0.2426 0.3094 0.7631
O4_3 O 0.1824(6) 0.3502(5) 0.6607(4)
C8_3 C 0.0913(10) 0.3828(9) 0.7457(7)
O5_3 O 0.0730(7) 0.4187(6) 0.7885(5)
O6_3 O 0.0698(6) 0.3669(5) 0.6710(5)
Zn3_4 Zn -0.00003(13) 0.42797(9) 0.7500
Zn4_3 Zn 0.33330(13) 0.23866(9) 0.9167
Zn5_3 Zn 0.23866(9) 0.3333 0.5833
Zn6_3 Zn 0.10704(14) 0.3333 0.5833
Zn3_5 Zn 0.99997(13) 0.42797(9) 0.7500
O1_4 O 0.0123(4) 0.7520(6) 0.6218(5)
C1_4 C 0.8328(7) 0.6750(8) 0.5788(7)
C2_4 C 0.8925(6) 0.6879(7) 0.6214(6)
C3_4 C 0.7731(7) 0.6526(7) 0.6239(8)
H1_4 H 0.7334 0.6427 0.5964
C4_4 C 0.9581(5) 0.7161(9) 0.5790(7)
O2_4 O 0.8344(4) 0.6835(5) 0.4940(4)
O3_4 O 0.9637(4) 0.7002(5) 0.5043(5)
Zn1_4 Zn 0.76134(9) 0.6667 0.4167
Zn2_4 Zn 0.89296(14) 0.6667 0.4167
C5_4 C 0.8339(7) 0.6583(8) 0.7545(7)
C6_4 C 0.7742(6) 0.6454(7) 0.7119(6)
C7_4 C 0.8936(7) 0.6807(7) 0.7094(8)
H2_4 H 0.9333 0.6906 0.7369
O4_4 O 0.8323(4) 0.6498(5) 0.8393(4)
C8_4 C 0.7086(5) 0.6172(9) 0.7543(7)
O5_4 O 0.6544(4) 0.5813(6) 0.7115(5)
O6_4 O 0.7030(4) 0.6331(5) 0.8290(5)
O7_4 O 0.7520(6) 0.7397(7) 0.3782(5)
O8_4 O 0.6790(4) 0.5936(7) 0.4551(5)
O9_4 O 0.8176(6) 0.6498(5) 0.3393(4)
O10_4 O 0.9302(6) 0.6331(5) 0.3290(5)
Zn6_4 Zn 0.77374(14) 0.6667 0.9167
C1_5 C 0.8422(11) 0.1672(7) 0.5788(7)
C2_5 C 0.7954(9) 0.1075(6) 0.6214(6)
C3_5 C 0.8795(10) 0.2269(7) 0.6239(8)
H1_5 H 0.9093 0.2666 0.5964
C4_5 C 0.7580(10) 0.0419(5) 0.5790(7)
O2_5 O 0.8491(6) 0.1656(4) 0.4940(4)
O3_5 O 0.7365(6) 0.0363(4) 0.5043(5)
Zn1_5 Zn 0.90536(9) 0.23866(9) 0.4167
Zn2_5 Zn 0.77374(14) 0.10704(14) 0.4167
C5_5 C 0.8245(11) 0.1661(7) 0.7545(7)
C6_5 C 0.8713(9) 0.2258(6) 0.7119(6)
C7_5 C 0.7872(10) 0.1064(7) 0.7094(8)
H2_5 H 0.7574 0.0667 0.7369
O4_5 O 0.8176(6) 0.1677(4) 0.8393(4)
C8_5 C 0.9087(10) 0.2914(5) 0.7543(7)
O5_5 O 0.9270(7) 0.3456(4) 0.7115(5)
O6_5 O 0.9302(6) 0.2970(4) 0.8290(5)
O7_5 O 0.9877(9) 0.2480(6) 0.3782(5)
O8_5 O 0.9147(8) 0.3210(4) 0.4551(5)
O9_5 O 0.8323(8) 0.1824(6) 0.3393(4)
O10_5 O 0.7030(8) 0.0698(6) 0.3290(5)
Zn6_5 Zn 0.89296(14) 0.22626(14) 0.9167
O1_5 O 0.7397(7) 0.9877(4) 0.6218(5)
C1_6 C 0.3250(8) 0.1578(11) 0.5788(7)
C2_6 C 0.3121(7) 0.2046(9) 0.6214(6)
C3_6 C 0.3474(7) 0.1205(10) 0.6239(8)
H1_6 H 0.3573 0.0907 0.5964
C4_6 C 0.2839(9) 0.2420(10) 0.5790(7)
O1_6 O 0.2480(6) 0.2603(7) 0.6218(5)
O2_6 O 0.3165(5) 0.1509(6) 0.4940(4)
O3_6 O 0.2998(5) 0.2635(6) 0.5043(5)
Zn1_6 Zn 0.3333 0.09464(9) 0.4167
Zn2_6 Zn 0.3333 0.22626(14) 0.4167
C5_6 C 0.3417(8) 0.1755(11) 0.7545(7)
C6_6 C 0.3546(7) 0.1287(9) 0.7119(6)
C7_6 C 0.3193(7) 0.2128(10) 0.7094(8)
H2_6 H 0.3094 0.2426 0.7369
O4_6 O 0.3502(5) 0.1824(6) 0.8393(4)
C8_6 C 0.3828(9) 0.0913(10) 0.7543(7)
O5_6 O 0.4187(6) 0.0730(7) 0.7115(5)
O6_6 O 0.3669(5) 0.0698(6) 0.8290(5)
O7_6 O 0.2603(7) 0.0123(9) 0.3782(5)
O8_6 O 0.4064(7) 0.0853(8) 0.4551(5)
O9_6 O 0.3502(5) 0.1677(8) 0.3393(4)
O10_6 O 0.3669(5) 0.2970(8) 0.3290(5)
Zn6_6 Zn 0.3333 0.10704(14) 0.9167
C1_7 C 0.3417(8) 0.1661(7) 0.2545(7)
C2_7 C 0.3546(7) 0.2258(6) 0.2119(6)
C3_7 C 0.3193(7) 0.1064(7) 0.2094(8)
H1_7 H 0.3094 0.0667 0.2369
C4_7 C 0.3828(9) 0.2914(5) 0.2543(7)
O1_7 O 0.4187(6) 0.3456(4) 0.2115(5)
C5_7 C 0.3250(8) 0.1672(7) 0.0788(7)
C6_7 C 0.3121(7) 0.1075(6) 0.1214(6)
C7_7 C 0.3474(7) 0.2269(7) 0.1239(8)
H2_7 H 0.3573 0.2666 0.0964
C8_7 C 0.2839(9) 0.0419(5) 0.0790(7)
O6_7 O 0.2998(5) 0.0363(4) 0.0043(5)
Zn4_4 Zn 0.42801(9) 0.42797(9) 0.2500
O4_7 O 0.3165(5) 0.1656(4) 0.9940(4)
C1_8 C 0.8339(7) 0.1755(11) 0.2545(7)
C2_8 C 0.7742(6) 0.1287(9) 0.2119(6)
C3_8 C 0.8936(7) 0.2128(10) 0.2094(8)
H1_8 H 0.9333 0.2426 0.2369
C4_8 C 0.7086(5) 0.0913(10) 0.2543(7)
O1_8 O 0.6544(4) 0.0730(7) 0.2115(5)
C5_8 C 0.8328(7) 0.1578(11) 0.0788(7)
C6_8 C 0.8925(6) 0.2046(9) 0.1214(6)
C7_8 C 0.7731(7) 0.1205(10) 0.1239(8)
H2_8 H 0.7334 0.0907 0.0964
C8_8 C 0.9581(5) 0.2420(10) 0.0790(7)
O6_8 O 0.9637(4) 0.2635(6) 0.0043(5)
Zn4_5 Zn 0.57203(9) 0.00003(13) 0.2500
O4_8 O 0.8344(4) 0.1509(6) 0.9940(4)
Zn4_6 Zn 0.57203(9) 1.00003(13) 0.2500
Zn4_7 Zn -0.00003(13) 0.57199(9) 0.2500
C1_9 C 0.8245(11) 0.6583(8) 0.2545(7)
C2_9 C 0.8713(9) 0.6454(7) 0.2119(6)
C3_9 C 0.7872(10) 0.6807(7) 0.2094(8)
H1_9 H 0.7574 0.6906 0.2369
C4_9 C 0.9087(10) 0.6172(9) 0.2543(7)
O1_9 O 0.9270(7) 0.5813(6) 0.2115(5)
C5_9 C 0.8422(11) 0.6750(8) 0.0788(7)
C6_9 C 0.7954(9) 0.6879(7) 0.1214(6)
C7_9 C 0.8795(10) 0.6526(7) 0.1239(8)
H2_9 H 0.9093 0.6427 0.0964
C8_9 C 0.7580(10) 0.7161(9) 0.0790(7)
O6_9 O 0.7365(6) 0.7002(5) 0.0043(5)
Zn4_8 Zn 0.99997(13) 0.57199(9) 0.2500
O4_9 O 0.8491(6) 0.6835(5) 0.9940(4)
C7_10 C 0.5602(7) 0.0141(7) 0.0428(8)
H2_10 H 0.5999 0.0240 0.0703
Zn6_7 Zn 0.44041(14) 0.0000 0.2500
C1_10 C 0.4995(7) 0.0083(8) 0.9121(7)
C2_10 C 0.5592(6) 0.0212(7) 0.9547(6)
C4_10 C 0.6248(5) 0.0494(9) 0.9123(7)
O1_10 O 0.6790(4) 0.0853(6) 0.9551(5)
O2_7 O 0.5011(4) 0.0168(5) 0.8273(4)
O3_7 O 0.6304(4) 0.0335(5) 0.8376(5)
Zn2_7 Zn 0.55963(14) 0.0000 0.7500
C5_10 C 0.5005(7) 0.9917(8) 0.0879(7)
C6_10 C 0.4408(6) 0.9788(7) 0.0453(6)
O4_10 O 0.4989(4) 0.9832(5) 0.1727(4)
C8_10 C 0.3752(5) 0.9506(9) 0.0877(7)
O6_10 O 0.3696(4) 0.9665(5) 0.1624(5)
Zn6_8 Zn 0.44041(14) 1.0000 0.2500
C3_10 C 0.4398(7) 0.9859(7) 0.9572(8)
H1_10 H 0.4001 0.9760 0.9297
Zn2_8 Zn 0.55963(14) 1.0000 0.7500
O9_7 O 0.4842(6) 0.9832(5) 0.6727(4)
O10_7 O 0.5968(6) 0.9665(5) 0.6624(5)
C5_11 C 0.4911(11) 0.4995(7) 0.0879(7)
C6_11 C 0.5379(9) 0.5592(6) 0.0453(6)
C7_11 C 0.4538(10) 0.4398(7) 0.0428(8)
H2_11 H 0.4240 0.4001 0.0703
O4_11 O 0.4842(6) 0.5011(4) 0.1727(4)
C8_11 C 0.5753(10) 0.6248(5) 0.0877(7)
O6_11 O 0.5968(6) 0.6304(4) 0.1624(5)
Zn6_9 Zn 0.55963(14) 0.55959(14) 0.2500
C1_11 C 0.5089(11) 0.5005(7) 0.9121(7)
C2_11 C 0.4621(9) 0.4408(6) 0.9547(6)
C3_11 C 0.5462(10) 0.5602(7) 0.9572(8)
H1_11 H 0.5760 0.5999 0.9297
C4_11 C 0.4247(10) 0.3752(5) 0.9123(7)
O1_11 O 0.4064(7) 0.3210(4) 0.9551(5)
O2_8 O 0.5158(6) 0.4989(4) 0.8273(4)
O3_8 O 0.4032(6) 0.3696(4) 0.8376(5)
Zn2_9 Zn 0.44041(14) 0.44037(14) 0.7500
O9_8 O 0.4989(8) 0.5158(6) 0.6727(4)
O10_8 O 0.3696(8) 0.4032(6) 0.6624(5)
C5_12 C 0.0083(8) 0.5089(11) 0.0879(7)
C6_12 C 0.0212(7) 0.4621(9) 0.0453(6)
O4_12 O 0.0168(5) 0.5158(6) 0.1727(4)
C8_12 C 0.0494(9) 0.4247(10) 0.0877(7)
O6_12 O 0.0335(5) 0.4032(6) 0.1624(5)
Zn6_10 Zn -0.0000 0.44037(14) 0.2500
C3_12 C 0.0141(7) 0.4538(10) 0.9572(8)
H1_12 H 0.0240 0.4240 0.9297
Zn2_10 Zn -0.0000 0.55959(14) 0.7500
O9_9 O 0.0168(5) 0.5011(8) 0.6727(4)
O10_9 O 0.0335(5) 0.6304(8) 0.6624(5)
C7_12 C 0.9859(7) 0.5462(10) 0.0428(8)
H2_12 H 0.9760 0.5760 0.0703
Zn6_11 Zn 1.0000 0.44037(14) 0.2500
C1_12 C 0.9917(8) 0.4911(11) 0.9121(7)
C2_12 C 0.9788(7) 0.5379(9) 0.9547(6)
C4_12 C 0.9506(9) 0.5753(10) 0.9123(7)
O1_12 O 0.9147(6) 0.5936(7) 0.9551(5)
O2_9 O 0.9832(5) 0.4842(6) 0.8273(4)
O3_9 O 0.9665(5) 0.5968(6) 0.8376(5)
Zn2_11 Zn 1.0000 0.55959(14) 0.7500
C1_13 C 0.0083(8) 0.4995(7) 0.5879(7)
C2_13 C 0.0212(7) 0.5592(6) 0.5453(6)
C4_13 C 0.0494(9) 0.6248(5) 0.5877(7)
O1_13 O 0.0853(6) 0.6790(4) 0.5449(5)
C7_13 C 0.0141(7) 0.5602(7) 0.4572(8)
H2_13 H 0.0240 0.5999 0.4297
C3_13 C 0.9859(7) 0.4398(7) 0.5428(8)
H1_13 H 0.9760 0.4001 0.5703
C5_13 C 0.9917(8) 0.5005(7) 0.4121(7)
C6_13 C 0.9788(7) 0.4408(6) 0.4547(6)
O4_13 O 0.9832(5) 0.4989(4) 0.3273(4)
C8_13 C 0.9506(9) 0.3752(5) 0.4123(7)
O6_13 O 0.9665(5) 0.3696(4) 0.3376(5)
C1_14 C 0.5005(7) 0.5089(11) 0.5879(7)
C2_14 C 0.4408(6) 0.4621(9) 0.5453(6)
C3_14 C 0.5602(7) 0.5462(10) 0.5428(8)
H1_14 H 0.5999 0.5760 0.5703
C4_14 C 0.3752(5) 0.4247(10) 0.5877(7)
O1_14 O 0.3210(4) 0.4064(7) 0.5449(5)
C5_14 C 0.4995(7) 0.4911(11) 0.4121(7)
C6_14 C 0.5592(6) 0.5379(9) 0.4547(6)
C7_14 C 0.4398(7) 0.4538(10) 0.4572(8)
H2_14 H 0.4001 0.4240 0.4297
O4_14 O 0.5011(4) 0.4842(6) 0.3273(4)
C8_14 C 0.6248(5) 0.5753(10) 0.4123(7)
O6_14 O 0.6304(4) 0.5968(6) 0.3376(5)
C3_15 C 0.4538(10) 0.0141(7) 0.5428(8)
H1_15 H 0.4240 0.0240 0.5703
C5_15 C 0.5089(11) 0.0083(8) 0.4121(7)
C6_15 C 0.4621(9) 0.0212(7) 0.4547(6)
O4_15 O 0.5158(6) 0.0168(5) 0.3273(4)
C8_15 C 0.4247(10) 0.0494(9) 0.4123(7)
O6_15 O 0.4032(6) 0.0335(5) 0.3376(5)
C1_15 C 0.4911(11) 0.9917(8) 0.5879(7)
C2_15 C 0.5379(9) 0.9788(7) 0.5453(6)
C4_15 C 0.5753(10) 0.9506(9) 0.5877(7)
O1_15 O 0.5936(7) 0.9147(6) 0.5449(5)
C7_15 C 0.5462(10) 0.9859(7) 0.4572(8)
H2_15 H 0.5760 0.9760 0.4297
C1_16 C 0.1661(7) 0.3417(8) 0.2455(7)
C2_16 C 0.2258(6) 0.3546(7) 0.2881(6)
C3_16 C 0.1064(7) 0.3193(7) 0.2906(8)
H1_16 H 0.0667 0.3094 0.2631
C4_16 C 0.2914(5) 0.3828(9) 0.2457(7)
O1_16 O 0.3456(4) 0.4187(6) 0.2885(5)
C5_16 C 0.1672(7) 0.3250(8) 0.4212(7)
C6_16 C 0.1075(6) 0.3121(7) 0.3786(6)
C7_16 C 0.2269(7) 0.3474(7) 0.3761(8)
H2_16 H 0.2666 0.3573 0.4036
O4_16 O 0.1656(4) 0.3165(5) 0.5060(4)
C8_16 C 0.0419(5) 0.2839(9) 0.4210(7)
O6_16 O 0.0363(4) 0.2998(5) 0.4957(5)
C1_17 C 0.1755(11) 0.8339(7) 0.2455(7)
C2_17 C 0.1287(9) 0.7742(6) 0.2881(6)
C3_17 C 0.2128(10) 0.8936(7) 0.2906(8)
H1_17 H 0.2426 0.9333 0.2631
C4_17 C 0.0913(10) 0.7086(5) 0.2457(7)
O1_17 O 0.0730(7) 0.6544(4) 0.2885(5)
C5_17 C 0.1578(11) 0.8328(7) 0.4212(7)
C6_17 C 0.2046(9) 0.8925(6) 0.3786(6)
C7_17 C 0.1205(10) 0.7731(7) 0.3761(8)
H2_17 H 0.0907 0.7334 0.4036
O4_17 O 0.1509(6) 0.8344(4) 0.5060(4)
C8_17 C 0.2420(10) 0.9581(5) 0.4210(7)
O6_17 O 0.2635(6) 0.9637(4) 0.4957(5)
C1_18 C 0.6583(8) 0.8245(11) 0.2455(7)
C2_18 C 0.6454(7) 0.8713(9) 0.2881(6)
C3_18 C 0.6807(7) 0.7872(10) 0.2906(8)
H1_18 H 0.6906 0.7574 0.2631
C4_18 C 0.6172(9) 0.9087(10) 0.2457(7)
O1_18 O 0.5813(6) 0.9270(7) 0.2885(5)
C5_18 C 0.6750(8) 0.8422(11) 0.4212(7)
C6_18 C 0.6879(7) 0.7954(9) 0.3786(6)
C7_18 C 0.6526(7) 0.8795(10) 0.3761(8)
H2_18 H 0.6427 0.9093 0.4036
O4_18 O 0.6835(5) 0.8491(6) 0.5060(4)
C8_18 C 0.7161(9) 0.7580(10) 0.4210(7)
O6_18 O 0.7002(5) 0.7365(6) 0.4957(5)
loop_
_geom_bond_atom_site_label_1
_geom_bond_atom_site_label_2
_geom_bond_site_symmetry_1
_geom_bond_site_symmetry_2
O1 Zn4 1_555 1_555
Zn1 O2 1_555 1_555
Zn2 O2 1_555 1_555
O7 Zn1 1_555 1_555
O8 Zn1 1_555 1_555
O9 Zn1 1_555 1_555
O10 Zn2 1_555 1_555
Zn2 O9 1_555 1_555
C1 C2 1_555 1_555
C2 C4 1_555 1_555
C3 C1 1_555 1_555
H1 C3 1_555 1_555
O3 C4 1_555 1_555
C5 C6 1_555 1_555
C6 C3 1_555 1_555
C7 C2 1_555 1_555
H2 C7 1_555 1_555
O4 C5 1_555 1_555
C8 C6 1_555 1_555
O5 C8 1_555 1_555
O6 C8 1_555 1_555
Zn3 O5 1_555 1_555
Zn5 O4 1_555 1_555
Zn6 O4 1_555 1_555
C5 C7 1_555 1_555
O6 Zn6 1_555 1_555
Zn1_2 O2_2 1_555 1_555
Zn2_2 O2_2 1_555 1_555
O7_2 Zn1_2 1_555 1_555
O8_2 Zn1_2 1_555 1_555
O9_2 Zn1_2 1_555 1_555
O10_2 Zn2_2 1_555 1_555
Zn2_2 O9_2 1_555 1_555
C1_2 C2_2 1_555 1_555
C2_2 C4_2 1_555 1_555
C3_2 C1_2 1_555 1_555
H1_2 C3_2 1_555 1_555
O3_2 C4_2 1_555 1_555
C5_2 C6_2 1_555 1_555
C6_2 C3_2 1_555 1_555
C7_2 C2_2 1_555 1_555
H2_2 C7_2 1_555 1_555
O4_2 C5_2 1_555 1_555
C8_2 C6_2 1_555 1_555
O5_2 C8_2 1_555 1_555
O6_2 C8_2 1_555 1_555
Zn3_3 O5_2 1_555 1_555
Zn5_2 O4_2 1_555 1_555
Zn6_2 O4_2 1_555 1_555
C5_2 C7_2 1_555 1_555
O6_2 Zn6_2 1_555 1_555
O1_2 Zn4_2 1_555 1_555
Zn1_3 O2_3 1_555 1_555
Zn2_3 O2_3 1_555 1_555
O7_3 Zn1_3 1_555 1_555
O8_3 Zn1_3 1_555 1_555
O9_3 Zn1_3 1_555 1_555
O10_3 Zn2_3 1_555 1_555
Zn2_3 O9_3 1_555 1_555
C1_3 C2_3 1_555 1_555
C2_3 C4_3 1_555 1_555
C3_3 C1_3 1_555 1_555
H1_3 C3_3 1_555 1_555
C4_3 O1_3 1_555 1_555
O1_3 Zn4_3 1_555 1_555
O3_3 C4_3 1_555 1_555
C5_3 C6_3 1_555 1_555
C6_3 C3_3 1_555 1_555
C7_3 C2_3 1_555 1_555
H2_3 C7_3 1_555 1_555
O4_3 C5_3 1_555 1_555
C8_3 C6_3 1_555 1_555
O5_3 C8_3 1_555 1_555
O6_3 C8_3 1_555 1_555
Zn3_4 O5_3 1_555 1_555
Zn5_3 O4_3 1_555 1_555
Zn6_3 O4_3 1_555 1_555
C5_3 C7_3 1_555 1_555
O6_3 Zn6_3 1_555 1_555
O1_4 Zn5_2 1_555 1_555
C1_4 C2_4 1_555 1_555
C2_4 C4_4 1_555 1_555
C3_4 C1_4 1_555 1_555
H1_4 C3_4 1_555 1_555
O2_4 C1_4 1_555 1_555
O3_4 C4_4 1_555 1_555
Zn1_4 O2_4 1_555 1_555
Zn2_4 O2_4 1_555 1_555
C5_4 C6_4 1_555 1_555
C6_4 C3_4 1_555 1_555
C7_4 C2_4 1_555 1_555
H2_4 C7_4 1_555 1_555
O4_4 C5_4 1_555 1_555
C8_4 C6_4 1_555 1_555
O5_4 C8_4 1_555 1_555
O6_4 C8_4 1_555 1_555
O7_4 Zn1_4 1_555 1_555
O8_4 Zn1_4 1_555 1_555
O9_4 Zn1_4 1_555 1_555
O10_4 Zn2_4 1_555 1_555
Zn3 O5_4 1_555 1_555
Zn4_2 O4_4 1_555 1_555
Zn6_4 O4_4 1_555 1_555
O3_4 Zn2_4 1_555 1_555
Zn2_4 O9_4 1_555 1_555
C5_4 C7_4 1_555 1_555
O6_4 Zn6_4 1_555 1_555
C1_5 C2_5 1_555 1_555
C2_5 C4_5 1_555 1_555
C3_5 C1_5 1_555 1_555
H1_5 C3_5 1_555 1_555
O2_5 C1_5 1_555 1_555
O3_5 C4_5 1_555 1_555
Zn1_5 O2_5 1_555 1_555
Zn2_5 O2_5 1_555 1_555
C5_5 C6_5 1_555 1_555
C6_5 C3_5 1_555 1_555
C7_5 C2_5 1_555 1_555
H2_5 C7_5 1_555 1_555
O4_5 C5_5 1_555 1_555
C8_5 C6_5 1_555 1_555
O5_5 C8_5 1_555 1_555
O6_5 C8_5 1_555 1_555
O7_5 Zn1_5 1_555 1_555
O8_5 Zn1_5 1_555 1_555
O9_5 Zn1_5 1_555 1_555
O10_5 Zn2_5 1_555 1_555
Zn3_5 O5_5 1_555 1_555
Zn4 O4_5 1_555 1_555
Zn6_5 O4_5 1_555 1_555
O3_5 Zn2_5 1_555 1_555
Zn2_5 O9_5 1_555 1_555
C5_5 C7_5 1_555 1_555
O6_5 Zn6_5 1_555 1_555
O1_5 Zn5 1_555 1_555
C1_6 C2_6 1_555 1_555
C2_6 C4_6 1_555 1_555
C3_6 C1_6 1_555 1_555
H1_6 C3_6 1_555 1_555
C4_6 O1_6 1_555 1_555
O1_6 Zn5_3 1_555 1_555
O2_6 C1_6 1_555 1_555
O3_6 C4_6 1_555 1_555
Zn1_6 O2_6 1_555 1_555
Zn2_6 O2_6 1_555 1_555
C5_6 C6_6 1_555 1_555
C6_6 C3_6 1_555 1_555
C7_6 C2_6 1_555 1_555
H2_6 C7_6 1_555 1_555
O4_6 C5_6 1_555 1_555
C8_6 C6_6 1_555 1_555
O5_6 C8_6 1_555 1_555
O6_6 C8_6 1_555 1_555
O7_6 Zn1_6 1_555 1_555
O8_6 Zn1_6 1_555 1_555
O9_6 Zn1_6 1_555 1_555
O10_6 Zn2_6 1_555 1_555
Zn3_2 O5_6 1_555 1_555
Zn4_3 O4_6 1_555 1_555
Zn6_6 O4_6 1_555 1_555
O3_6 Zn2_6 1_555 1_555
Zn2_6 O9_6 1_555 1_555
C5_6 C7_6 1_555 1_555
O6_6 Zn6_6 1_555 1_555
C1_7 C2_7 1_555 1_555
C2_7 C4_7 1_555 1_555
C3_7 C1_7 1_555 1_555
H1_7 C3_7 1_555 1_555
C4_7 O1_7 1_555 1_555
O1_7 Zn4_4 1_555 1_555
O9_6 C1_7 1_555 1_555
O10_6 C4_7 1_555 1_555
C5_7 C6_7 1_555 1_555
C6_7 C3_7 1_555 1_555
C7_7 C2_7 1_555 1_555
H2_7 C7_7 1_555 1_555
C8_7 C6_7 1_555 1_555
O6_7 C8_7 1_555 1_555
C5_7 C7_7 1_555 1_555
Zn4_3 O4_7 1_555 1_555
Zn6_6 O4_7 1_555 1_555
C1_8 C2_8 1_555 1_555
C2_8 C4_8 1_555 1_555
C3_8 C1_8 1_555 1_555
H1_8 C3_8 1_555 1_555
C4_8 O1_8 1_555 1_555
O1_8 Zn4_5 1_555 1_555
O9_5 C1_8 1_555 1_555
O10_5 C4_8 1_555 1_555
C5_8 C6_8 1_555 1_555
C6_8 C3_8 1_555 1_555
C7_8 C2_8 1_555 1_555
H2_8 C7_8 1_555 1_555
C8_8 C6_8 1_555 1_555
O6_8 C8_8 1_555 1_555
C5_8 C7_8 1_555 1_555
Zn4 O4_8 1_555 1_555
Zn6_5 O4_8 1_555 1_555
C1_9 C2_9 1_555 1_555
C2_9 C4_9 1_555 1_555
C3_9 C1_9 1_555 1_555
H1_9 C3_9 1_555 1_555
C4_9 O1_9 1_555 1_555
O1_9 Zn4_8 1_555 1_555
O9_4 C1_9 1_555 1_555
O10_4 C4_9 1_555 1_555
C5_9 C6_9 1_555 1_555
C6_9 C3_9 1_555 1_555
C7_9 C2_9 1_555 1_555
H2_9 C7_9 1_555 1_555
C8_9 C6_9 1_555 1_555
O7 C8_9 1_555 1_555
O6_9 C8_9 1_555 1_555
C5_9 C7_9 1_555 1_555
Zn4_2 O4_9 1_555 1_555
Zn6_4 O4_9 1_555 1_555
H2_10 C7_10 1_555 1_555
C1_10 C2_10 1_555 1_555
C2_10 C4_10 1_555 1_555
C4_10 O1_10 1_555 1_555
O1_10 Zn4 1_555 1_555
O2_7 C1_10 1_555 1_555
O3_7 C4_10 1_555 1_555
Zn3_2 O2_7 1_555 1_555
Zn2_7 O2_7 1_555 1_555
O3_7 Zn2_7 1_555 1_555
C5_10 C6_10 1_555 1_555
O4_10 C5_10 1_555 1_555
C8_10 C6_10 1_555 1_555
O8_2 C8_10 1_555 1_555
O6_10 C8_10 1_555 1_555
Zn4_6 O4_10 1_555 1_555
Zn6_8 O4_10 1_555 1_555
O6_10 Zn6_8 1_555 1_555
H1_10 C3_10 1_555 1_555
O9_7 Zn3_3 1_555 1_555
O10_7 Zn2_8 1_555 1_555
Zn2_8 O9_7 1_555 1_555
C5_11 C6_11 1_555 1_555
H2_11 C7_11 1_555 1_555
O4_11 C5_11 1_555 1_555
C8_11 C6_11 1_555 1_555
O8 C8_11 1_555 1_555
O6_11 C8_11 1_555 1_555
Zn4_4 O4_11 1_555 1_555
Zn6_9 O4_11 1_555 1_555
C5_11 C7_11 1_555 1_555
O6_11 Zn6_9 1_555 1_555
C1_11 C2_11 1_555 1_555
C2_11 C4_11 1_555 1_555
C3_11 C1_11 1_555 1_555
H1_11 C3_11 1_555 1_555
C4_11 O1_11 1_555 1_555
O1_11 Zn4_3 1_555 1_555
O2_8 C1_11 1_555 1_555
O3_8 C4_11 1_555 1_555
Zn3 O2_8 1_555 1_555
Zn2_9 O2_8 1_555 1_555
O9_8 Zn3 1_555 1_555
O10_8 Zn2_9 1_555 1_555
O3_8 Zn2_9 1_555 1_555
Zn2_9 O9_8 1_555 1_555
C5_12 C6_12 1_555 1_555
O4_12 C5_12 1_555 1_555
C8_12 C6_12 1_555 1_555
O8_3 C8_12 1_555 1_555
O6_12 C8_12 1_555 1_555
Zn4_7 O4_12 1_555 1_555
Zn6_10 O4_12 1_555 1_555
O6_12 Zn6_10 1_555 1_555
H1_12 C3_12 1_555 1_555
O9_9 Zn3_4 1_555 1_555
O10_9 Zn2_10 1_555 1_555
Zn2_10 O9_9 1_555 1_555
H2_12 C7_12 1_555 1_555
C1_12 C2_12 1_555 1_555
C2_12 C4_12 1_555 1_555
C4_12 O1_12 1_555 1_555
O1_12 Zn4_2 1_555 1_555
O2_9 C1_12 1_555 1_555
O3_9 C4_12 1_555 1_555
Zn3_5 O2_9 1_555 1_555
Zn2_11 O2_9 1_555 1_555
O3_9 Zn2_11 1_555 1_555
C1_13 C2_13 1_555 1_555
C2_13 C4_13 1_555 1_555
C4_13 O1_13 1_555 1_555
O1_13 Zn5_2 1_555 1_555
O9_9 C1_13 1_555 1_555
O10_9 C4_13 1_555 1_555
C7_13 C2_13 1_555 1_555
H2_13 C7_13 1_555 1_555
H1_13 C3_13 1_555 1_555
C5_13 C6_13 1_555 1_555
C6_13 C3_13 1_555 1_555
O4_13 C5_13 1_555 1_555
C8_13 C6_13 1_555 1_555
O8_5 C8_13 1_555 1_555
O6_13 C8_13 1_555 1_555
Zn4_8 O4_13 1_555 1_555
Zn6_11 O4_13 1_555 1_555
O6_13 Zn6_11 1_555 1_555
C1_14 C2_14 1_555 1_555
C2_14 C4_14 1_555 1_555
C3_14 C1_14 1_555 1_555
H1_14 C3_14 1_555 1_555
C4_14 O1_14 1_555 1_555
O1_14 Zn5_3 1_555 1_555
O9_8 C1_14 1_555 1_555
O10_8 C4_14 1_555 1_555
C5_14 C6_14 1_555 1_555
C6_14 C3_14 1_555 1_555
C7_14 C2_14 1_555 1_555
H2_14 C7_14 1_555 1_555
O4_14 C5_14 1_555 1_555
C8_14 C6_14 1_555 1_555
O8_4 C8_14 1_555 1_555
O6_14 C8_14 1_555 1_555
Zn4_4 O4_14 1_555 1_555
Zn6_9 O4_14 1_555 1_555
C5_14 C7_14 1_555 1_555
O6_14 Zn6_9 1_555 1_555
H1_15 C3_15 1_555 1_555
C5_15 C6_15 1_555 1_555
C6_15 C3_15 1_555 1_555
O4_15 C5_15 1_555 1_555
C8_15 C6_15 1_555 1_555
O8_6 C8_15 1_555 1_555
O6_15 C8_15 1_555 1_555
Zn4_5 O4_15 1_555 1_555
Zn6_7 O4_15 1_555 1_555
O6_15 Zn6_7 1_555 1_555
C1_15 C2_15 1_555 1_555
C2_15 C4_15 1_555 1_555
C4_15 O1_15 1_555 1_555
O1_15 Zn5 1_555 1_555
O9_7 C1_15 1_555 1_555
O10_7 C4_15 1_555 1_555
C7_15 C2_15 1_555 1_555
H2_15 C7_15 1_555 1_555
C1_16 C2_16 1_555 1_555
C2_16 C4_16 1_555 1_555
C3_16 C1_16 1_555 1_555
H1_16 C3_16 1_555 1_555
C4_16 O1_16 1_555 1_555
O1_16 Zn4_4 1_555 1_555
O9_3 C1_16 1_555 1_555
O10_3 C4_16 1_555 1_555
C5_16 C6_16 1_555 1_555
C6_16 C3_16 1_555 1_555
C7_16 C2_16 1_555 1_555
H2_16 C7_16 1_555 1_555
O4_16 C5_16 1_555 1_555
C8_16 C6_16 1_555 1_555
O6_16 C8_16 1_555 1_555
Zn5_3 O4_16 1_555 1_555
Zn6_3 O4_16 1_555 1_555
C5_16 C7_16 1_555 1_555
O6_16 Zn6_3 1_555 1_555
C1_17 C2_17 1_555 1_555
C2_17 C4_17 1_555 1_555
C3_17 C1_17 1_555 1_555
H1_17 C3_17 1_555 1_555
C4_17 O1_17 1_555 1_555
O1_17 Zn4_7 1_555 1_555
O9_2 C1_17 1_555 1_555
O10_2 C4_17 1_555 1_555
C5_17 C6_17 1_555 1_555
C6_17 C3_17 1_555 1_555
C7_17 C2_17 1_555 1_555
H2_17 C7_17 1_555 1_555
O4_17 C5_17 1_555 1_555
C8_17 C6_17 1_555 1_555
O6_17 C8_17 1_555 1_555
Zn5_2 O4_17 1_555 1_555
Zn6_2 O4_17 1_555 1_555
C5_17 C7_17 1_555 1_555
O6_17 Zn6_2 1_555 1_555
C1_18 C2_18 1_555 1_555
C2_18 C4_18 1_555 1_555
C3_18 C1_18 1_555 1_555
H1_18 C3_18 1_555 1_555
C4_18 O1_18 1_555 1_555
O1_18 Zn4_6 1_555 1_555
O9 C1_18 1_555 1_555
O10 C4_18 1_555 1_555
C5_18 C6_18 1_555 1_555
C6_18 C3_18 1_555 1_555
C7_18 C2_18 1_555 1_555
H2_18 C7_18 1_555 1_555
O4_18 C5_18 1_555 1_555
C8_18 C6_18 1_555 1_555
O7_4 C8_18 1_555 1_555
O6_18 C8_18 1_555 1_555
Zn5 O4_18 1_555 1_555
Zn6 O4_18 1_555 1_555
C5_18 C7_18 1_555 1_555
O6_18 Zn6 1_555 1_555

#END
