
###############################################################################
#
# This file contains modified crystal structure data generated from the
# MOF subset of the Cambridge Structural Database (CSD) v543 
# hosted by the Cambridge Crystallographic Data Centre (CCDC).
#
# This work is licensed under the Creative Commons
# Attribution-NonCommercial-ShareAlike 4.0 International License.
# To view a copy of this license, visit
# http://creativecommons.org/licenses/by-nc-sa/4.0/
# or send a letter to
# Creative Commons, PO Box 1866, Mountain View, CA 94042, USA.
#
# CIF created using the CSD Python API on 29 September 2022
# The structure has been converted into the P1 space group
# The structure has a 3D framework
# The original CSD entry OLEZUD is in the monoclinic crystal system
# The framework has been calculated to contain at least 10.0% void space
# The void calculation uses a probe of radius 1.32A, grid spacing 0.4
# The framework is charged, counterions have been retained in the structure
# H atom positions have been added when not included in the experimental data
#
###############################################################################

data_OLEZUD
_chemical_formula_moiety         '(C224 H112 Co6 La8 N8 O88 8-)n'
_symmetry_cell_setting           triclinic
_symmetry_space_group_name_H-M   'P 1'
_symmetry_Int_Tables_number      1
_space_group_name_Hall           'P 1'
loop_
_symmetry_equiv_pos_site_id
_symmetry_equiv_pos_as_xyz
1 x,y,z
_cell_length_a                   30.4968(12)
_cell_length_b                   9.3380(4)
_cell_length_c                   28.2013(8)
_cell_angle_alpha                90
_cell_angle_beta                 99.5220(10)
_cell_angle_gamma                90
_cell_volume                     7920.49
loop_
_atom_site_label
_atom_site_type_symbol
_atom_site_fract_x
_atom_site_fract_y
_atom_site_fract_z
C13 C 0.2596(2) 0.0044(7) 0.49705(19)
C15 C 0.2270(2) 0.0517(8) 0.5675(2)
H7 H 0.204875 0.033198 0.585794
C16 C 0.2589(2) 0.1544(7) 0.5833(2)
C17 C 0.2915(2) 0.1826(8) 0.5546(2)
H8 H 0.313170 0.251601 0.564278
C18 C 0.2916(2) 0.1087(7) 0.5124(2)
H9 H 0.313327 0.128518 0.493741
C19 C 0.2591(2) 0.2302(7) 0.6286(2)
La1 La 0.23988(2) 0.14024(3) 0.28411(2)
O9 O 0.28915(18) 0.3191(6) 0.64464(16)
O10 O 0.22848(16) 0.2045(5) 0.65378(15)
O11 O 0.22788(15) 0.0645(5) 0.20495(14)
La5 La 0.26012(2) 0.35976(3) 0.71589(2)
O24 O 0.29065(15) 0.2749(5) 0.25621(14)
O26 O 0.19476(14) 0.3131(5) 0.25031(14)
O29 O 0.21085(18) 0.1809(6) 0.35536(16)
O31 O 0.27152(16) 0.2955(5) 0.34622(15)
H27 H 0.195511 0.0659722 0.192241
H28 H 0.243578 0.129477 0.185473
C1 C 0.22376(19) 0.7823(7) 0.38492(19)
C2 C 0.2220(2) 0.8601(7) 0.4262(2)
H1 H 0.194969 0.871400 0.436907
C3 C 0.26021(19) 0.9217(7) 0.45193(19)
C4 C 0.2998(2) 0.9010(7) 0.4340(2)
H2 H 0.326173 0.940532 0.449798
C5 C 0.29961(19) 0.8223(7) 0.39295(19)
C6 C 0.34234(19) 0.7889(7) 0.3754(2)
C7 C 0.34757(19) 0.8059(7) 0.3271(2)
C8 C 0.3874(2) 0.7677(7) 0.3131(2)
H3 H 0.390250 0.775835 0.280904
C9 C 0.4234(2) 0.7173(8) 0.3458(2)
C10 C 0.4179(2) 0.7025(10) 0.3941(3)
H4 H 0.441433 0.669145 0.416528
C11 C 0.3786(2) 0.7362(10) 0.4086(2)
H5 H 0.375635 0.724274 0.440699
C12 C 0.4662(3) 0.6794(9) 0.3304(3)
C14 C 0.2271(2) 0.9765(7) 0.5256(2)
H6 H 0.205637 0.906919 0.516271
C20 C 0.18363(19) 0.7086(7) 0.3585(2)
C21 C 0.17146(19) 0.7208(6) 0.30870(19)
C22 C 0.1353(2) 0.6446(7) 0.2841(2)
H10 H 0.128310 0.650034 0.250798
C23 C 0.1095(2) 0.5591(8) 0.3104(3)
C24 C 0.1218(2) 0.5469(9) 0.3592(3)
H11 H 0.105629 0.488035 0.376563
C25 C 0.1587(2) 0.6225(8) 0.3834(2)
H12 H 0.166443 0.614127 0.416559
C26 C 0.0690(2) 0.4859(9) 0.2831(3)
C27 C 0.19489(19) 0.8204(6) 0.27957(19)
C28 C 0.31277(19) 0.8700(6) 0.2903(2)
Co1 Co 0.000000 0.34558(14) 0.250000
N1 N 0.26232(15) 0.7610(5) 0.36794(16)
O1 O 0.19692(14) 0.9499(5) 0.29224(15)
O2 O 0.20935(15) 0.7749(5) 0.24379(14)
O3 O 0.29398(15) 0.9804(5) 0.30163(15)
O4 O 0.30524(14) 0.8131(5) 0.24969(14)
O5 O 0.05365(19) 0.5185(7) 0.2408(2)
O6 O 0.0504(2) 0.3900(7) 0.3052(2)
O7 O 0.4972(2) 0.6332(9) 0.3606(3)
O8 O 0.46865(17) 0.6959(7) 0.2863(2)
La4 La 0.26012(2) 0.64024(3) 0.21589(2)
Co3 Co 0.500000 0.84558(14) 0.250000
O28 O 0.03135(17) 0.1959(7) 0.2137(2)
C41 C 0.7404(2) 0.0044(7) 0.00295(19)
H21 H 0.686673 0.128518 0.006259
La2 La 0.76012(2) 0.14024(3) 0.21589(2)
O22 O 0.77212(15) 0.0645(5) 0.29505(14)
O23 O 0.70935(15) 0.2749(5) 0.24379(14)
O25 O 0.80524(14) 0.3131(5) 0.24969(14)
O30 O 0.78915(18) 0.1809(6) 0.14464(16)
O32 O 0.72848(16) 0.2955(5) 0.15378(15)
H25 H 0.804489 0.0659722 0.307759
H26 H 0.756422 0.129477 0.314527
C43 C 0.7730(2) 0.0517(8) 0.9325(2)
H19 H 0.795125 0.033198 0.914206
C44 C 0.7411(2) 0.1544(7) 0.9167(2)
C45 C 0.7085(2) 0.1826(8) 0.9454(2)
H20 H 0.686830 0.251601 0.935722
C46 C 0.7084(2) 0.1087(7) 0.9876(2)
C47 C 0.7409(2) 0.2302(7) 0.8714(2)
O20 O 0.71085(18) 0.3191(6) 0.85536(16)
O21 O 0.77152(16) 0.2045(5) 0.84622(15)
La6 La 0.73988(2) 0.35976(3) 0.78411(2)
Co1_2 Co 1.000000 0.34558(14) 0.250000
C29 C 0.77624(19) 0.7823(7) 0.11508(19)
C30 C 0.7780(2) 0.8601(7) 0.0738(2)
H13 H 0.805031 0.871400 0.063093
C31 C 0.73979(19) 0.9217(7) 0.04807(19)
C32 C 0.7002(2) 0.9010(7) 0.0660(2)
H14 H 0.673827 0.940532 0.050202
C33 C 0.70039(19) 0.8223(7) 0.10705(19)
C34 C 0.65766(19) 0.7889(7) 0.1246(2)
C35 C 0.65243(19) 0.8059(7) 0.1729(2)
C36 C 0.6126(2) 0.7677(7) 0.1869(2)
H15 H 0.609750 0.775835 0.219096
C37 C 0.5766(2) 0.7173(8) 0.1542(2)
C38 C 0.5821(2) 0.7025(10) 0.1059(3)
H16 H 0.558567 0.669145 0.083472
C39 C 0.6214(2) 0.7362(10) 0.0914(2)
H17 H 0.624365 0.724274 0.059301
C40 C 0.5338(3) 0.6794(9) 0.1696(3)
C48 C 0.81637(19) 0.7086(7) 0.1415(2)
C49 C 0.82854(19) 0.7208(6) 0.19130(19)
C50 C 0.8647(2) 0.6446(7) 0.2159(2)
H22 H 0.871690 0.650034 0.249202
C51 C 0.8905(2) 0.5591(8) 0.1896(3)
C52 C 0.8782(2) 0.5469(9) 0.1408(3)
H23 H 0.894371 0.488035 0.123437
C53 C 0.8413(2) 0.6225(8) 0.1166(2)
H24 H 0.833557 0.614127 0.083441
C54 C 0.9310(2) 0.4859(9) 0.2169(3)
C55 C 0.80511(19) 0.8204(6) 0.22043(19)
C56 C 0.68723(19) 0.8700(6) 0.2097(2)
N2 N 0.73768(15) 0.7610(5) 0.13206(16)
O12 O 0.80308(14) 0.9499(5) 0.20776(15)
O13 O 0.79065(15) 0.7749(5) 0.25621(14)
O14 O 0.70602(15) 0.9804(5) 0.19837(15)
O15 O 0.69476(14) 0.8131(5) 0.25031(14)
O16 O 0.94635(19) 0.5185(7) 0.2592(2)
O17 O 0.9496(2) 0.3900(7) 0.1948(2)
O18 O 0.5028(2) 0.6332(9) 0.1394(3)
O19 O 0.53135(17) 0.6959(7) 0.2137(2)
La3 La 0.73988(2) 0.64024(3) 0.28411(2)
O27 O 0.96865(17) 0.1959(7) 0.2863(2)
C1_2 C 0.72376(19) 0.2823(7) 0.38492(19)
C2_2 C 0.7220(2) 0.3601(7) 0.4262(2)
H1_2 H 0.694969 0.371400 0.436907
C3_2 C 0.76021(19) 0.4217(7) 0.45193(19)
C4_2 C 0.7998(2) 0.4010(7) 0.4340(2)
H2_2 H 0.826173 0.440532 0.449798
C5_2 C 0.79961(19) 0.3223(7) 0.39295(19)
C6_2 C 0.84234(19) 0.2889(7) 0.3754(2)
C7_2 C 0.84757(19) 0.3059(7) 0.3271(2)
C8_2 C 0.8874(2) 0.2677(7) 0.3131(2)
H3_2 H 0.890250 0.275835 0.280904
C9_2 C 0.9234(2) 0.2173(8) 0.3458(2)
C10_2 C 0.9179(2) 0.2025(10) 0.3941(3)
H4_2 H 0.941433 0.169145 0.416528
C11_2 C 0.8786(2) 0.2362(10) 0.4086(2)
H5_2 H 0.875635 0.224274 0.440699
C12_2 C 0.9662(3) 0.1794(9) 0.3304(3)
C13_2 C 0.7596(2) 0.5044(7) 0.49705(19)
C14_2 C 0.7271(2) 0.4765(7) 0.5256(2)
H6_2 H 0.705637 0.406919 0.516271
C15_2 C 0.7270(2) 0.5517(8) 0.5675(2)
H7_2 H 0.704875 0.533198 0.585794
C16_2 C 0.7589(2) 0.6544(7) 0.5833(2)
C17_2 C 0.7915(2) 0.6826(8) 0.5546(2)
H8_2 H 0.813170 0.751601 0.564278
C18_2 C 0.7916(2) 0.6087(7) 0.5124(2)
H9_2 H 0.813327 0.628518 0.493741
C19_2 C 0.7591(2) 0.7302(7) 0.6286(2)
C20_2 C 0.68363(19) 0.2086(7) 0.3585(2)
C21_2 C 0.67146(19) 0.2208(6) 0.30870(19)
C22_2 C 0.6353(2) 0.1446(7) 0.2841(2)
H10_2 H 0.628310 0.150034 0.250798
C23_2 C 0.6095(2) 0.0591(8) 0.3104(3)
C24_2 C 0.6218(2) 0.0469(9) 0.3592(3)
C25_2 C 0.6587(2) 0.1225(8) 0.3834(2)
H12_2 H 0.666443 0.114127 0.416559
C27_2 C 0.69489(19) 0.3204(6) 0.27957(19)
C28_2 C 0.81277(19) 0.3700(6) 0.2903(2)
N1_2 N 0.76232(15) 0.2610(5) 0.36794(16)
O1_2 O 0.69692(14) 0.4499(5) 0.29224(15)
O3_2 O 0.79398(15) 0.4804(5) 0.30163(15)
O5_2 O 0.55365(19) 0.0185(7) 0.2408(2)
O7_2 O 0.9972(2) 0.1332(9) 0.3606(3)
O9_2 O 0.78915(18) 0.8191(6) 0.64464(16)
O10_2 O 0.72848(16) 0.7045(5) 0.65378(15)
O11_2 O 0.72788(15) 0.5645(5) 0.20495(14)
C29_2 C 0.27624(19) 0.2823(7) 0.11508(19)
C30_2 C 0.2780(2) 0.3601(7) 0.0738(2)
H13_2 H 0.305031 0.371400 0.063093
C31_2 C 0.23979(19) 0.4217(7) 0.04807(19)
C32_2 C 0.2002(2) 0.4010(7) 0.0660(2)
H14_2 H 0.173827 0.440532 0.050202
C33_2 C 0.20039(19) 0.3223(7) 0.10705(19)
C34_2 C 0.15766(19) 0.2889(7) 0.1246(2)
C35_2 C 0.15243(19) 0.3059(7) 0.1729(2)
C36_2 C 0.1126(2) 0.2677(7) 0.1869(2)
H15_2 H 0.109750 0.275835 0.219096
C37_2 C 0.0766(2) 0.2173(8) 0.1542(2)
C38_2 C 0.0821(2) 0.2025(10) 0.1059(3)
H16_2 H 0.058567 0.169145 0.083472
C39_2 C 0.1214(2) 0.2362(10) 0.0914(2)
H17_2 H 0.124365 0.224274 0.059301
C40_2 C 0.0338(3) 0.1794(9) 0.1696(3)
C41_2 C 0.2404(2) 0.5044(7) 0.00295(19)
H21_2 H 0.186673 0.628518 0.006259
C48_2 C 0.31637(19) 0.2086(7) 0.1415(2)
C49_2 C 0.32854(19) 0.2208(6) 0.19130(19)
C50_2 C 0.3647(2) 0.1446(7) 0.2159(2)
H22_2 H 0.371690 0.150034 0.249202
C51_2 C 0.3905(2) 0.0591(8) 0.1896(3)
C52_2 C 0.3782(2) 0.0469(9) 0.1408(3)
C53_2 C 0.3413(2) 0.1225(8) 0.1166(2)
H24_2 H 0.333557 0.114127 0.083441
C55_2 C 0.30511(19) 0.3204(6) 0.22043(19)
C56_2 C 0.18723(19) 0.3700(6) 0.2097(2)
N2_2 N 0.23768(15) 0.2610(5) 0.13206(16)
O12_2 O 0.30308(14) 0.4499(5) 0.20776(15)
O14_2 O 0.20602(15) 0.4804(5) 0.19837(15)
O16_2 O 0.44635(19) 0.0185(7) 0.2592(2)
O18_2 O 0.0028(2) 0.1332(9) 0.1394(3)
O22_2 O 0.27212(15) 0.5645(5) 0.29505(14)
La5_2 La 0.76012(2) 0.85976(3) 0.71589(2)
O29_2 O 0.71085(18) 0.6809(6) 0.35536(16)
O30_2 O 0.28915(18) 0.6809(6) 0.14464(16)
O31_2 O 0.77152(16) 0.7955(5) 0.34622(15)
O32_2 O 0.22848(16) 0.7955(5) 0.15378(15)
H25_2 H 0.304489 0.565972 0.307759
H26_2 H 0.256422 0.629477 0.314527
H27_2 H 0.695511 0.565972 0.192241
H28_2 H 0.743578 0.629477 0.185473
C42 C 0.2729(2) 0.4765(7) 0.9744(2)
H18 H 0.294363 0.406919 0.983729
C43_2 C 0.2730(2) 0.5517(8) 0.9325(2)
H19_2 H 0.295125 0.533198 0.914206
C44_2 C 0.2411(2) 0.6544(7) 0.9167(2)
C45_2 C 0.2085(2) 0.6826(8) 0.9454(2)
H20_2 H 0.186830 0.751601 0.935722
C46_2 C 0.2084(2) 0.6087(7) 0.9876(2)
C47_2 C 0.2409(2) 0.7302(7) 0.8714(2)
O20_2 O 0.21085(18) 0.8191(6) 0.85536(16)
O21_2 O 0.27152(16) 0.7045(5) 0.84622(15)
La6_2 La 0.23988(2) 0.85976(3) 0.78411(2)
H11_2 H 0.605629 0.988035 0.376563
C26_2 C 0.5690(2) 0.9859(9) 0.2831(3)
O6_2 O 0.5504(2) 0.8900(7) 0.3052(2)
H23_2 H 0.394371 0.988035 0.123437
C54_2 C 0.4310(2) 0.9859(9) 0.2169(3)
O17_2 O 0.4496(2) 0.8900(7) 0.1948(2)
Co1_3 Co -0.000000 0.65442(14) 0.750000
C29_3 C 0.22376(19) 0.2177(7) 0.88492(19)
C30_3 C 0.2220(2) 0.1399(7) 0.9262(2)
H13_3 H 0.194969 0.128600 0.936907
C31_3 C 0.26021(19) 0.0783(7) 0.95193(19)
C32_3 C 0.2998(2) 0.0990(7) 0.9340(2)
H14_3 H 0.326173 0.059468 0.949798
C33_3 C 0.29961(19) 0.1777(7) 0.89295(19)
C34_3 C 0.34234(19) 0.2111(7) 0.8754(2)
C35_3 C 0.34757(19) 0.1941(7) 0.8271(2)
C36_3 C 0.3874(2) 0.2323(7) 0.8131(2)
H15_3 H 0.390250 0.224165 0.780904
C37_3 C 0.4234(2) 0.2827(8) 0.8458(2)
C38_3 C 0.4179(2) 0.2975(10) 0.8941(3)
H16_3 H 0.441433 0.330855 0.916528
C39_3 C 0.3786(2) 0.2638(10) 0.9086(2)
H17_3 H 0.375635 0.275726 0.940699
C40_3 C 0.4662(3) 0.3206(9) 0.8304(3)
C48_3 C 0.18363(19) 0.2914(7) 0.8585(2)
C49_3 C 0.17146(19) 0.2792(6) 0.80870(19)
C50_3 C 0.1353(2) 0.3554(7) 0.7841(2)
H22_3 H 0.128310 0.349966 0.750798
C51_3 C 0.1095(2) 0.4409(8) 0.8104(3)
C52_3 C 0.1218(2) 0.4531(9) 0.8592(3)
H23_3 H 0.105629 0.511965 0.876563
C53_3 C 0.1587(2) 0.3775(8) 0.8834(2)
H24_3 H 0.166443 0.385873 0.916559
C54_3 C 0.0690(2) 0.5141(9) 0.7831(3)
C55_3 C 0.19489(19) 0.1796(6) 0.77957(19)
C56_3 C 0.31277(19) 0.1300(6) 0.7903(2)
N2_3 N 0.26232(15) 0.2390(5) 0.86794(16)
O12_3 O 0.19692(14) 0.0501(5) 0.79224(15)
O13_2 O 0.20935(15) 0.2251(5) 0.74379(14)
O14_3 O 0.29398(15) 0.0196(5) 0.80163(15)
O15_2 O 0.30524(14) 0.1869(5) 0.74969(14)
O16_3 O 0.05365(19) 0.4815(7) 0.7408(2)
O17_3 O 0.0504(2) 0.6100(7) 0.8052(2)
O18_3 O 0.4972(2) 0.3668(9) 0.8606(3)
O19_2 O 0.46865(17) 0.3041(7) 0.7863(2)
Co2 Co 0.500000 0.15442(14) 0.750000
O27_2 O 0.03135(17) 0.8041(7) 0.7137(2)
C43_3 C 0.2270(2) 0.9483(8) 0.0675(2)
H19_3 H 0.204875 0.966802 0.085794
C44_3 C 0.2589(2) 0.8456(7) 0.0833(2)
C45_3 C 0.2915(2) 0.8174(8) 0.0546(2)
H20_3 H 0.313170 0.748399 0.064278
C46_3 C 0.2916(2) 0.8913(7) 0.0124(2)
C47_3 C 0.2591(2) 0.7698(7) 0.1286(2)
C41_3 C 0.2596(2) 0.9956(7) 0.99705(19)
H21_3 H 0.313327 0.871482 0.993741
O22_3 O 0.22788(15) 0.9355(5) 0.70495(14)
O23_2 O 0.29065(15) 0.7251(5) 0.75621(14)
O25_2 O 0.19476(14) 0.6869(5) 0.75031(14)
H25_3 H 0.195511 0.934028 0.692241
H26_3 H 0.243578 0.870523 0.685473
C1_3 C 0.77624(19) 0.2177(7) 0.61508(19)
C2_3 C 0.7780(2) 0.1399(7) 0.5738(2)
H1_3 H 0.805031 0.128600 0.563093
C3_3 C 0.73979(19) 0.0783(7) 0.54807(19)
C4_3 C 0.7002(2) 0.0990(7) 0.5660(2)
H2_3 H 0.673827 0.059468 0.550202
C5_3 C 0.70039(19) 0.1777(7) 0.60705(19)
C6_3 C 0.65766(19) 0.2111(7) 0.6246(2)
C7_3 C 0.65243(19) 0.1941(7) 0.6729(2)
C8_3 C 0.6126(2) 0.2323(7) 0.6869(2)
H3_3 H 0.609750 0.224165 0.719096
C9_3 C 0.5766(2) 0.2827(8) 0.6542(2)
C10_3 C 0.5821(2) 0.2975(10) 0.6059(3)
H4_3 H 0.558567 0.330855 0.583472
C11_3 C 0.6214(2) 0.2638(10) 0.5914(2)
H5_3 H 0.624365 0.275726 0.559301
C12_3 C 0.5338(3) 0.3206(9) 0.6696(3)
C14_3 C 0.7729(2) 0.0235(7) 0.4744(2)
H6_3 H 0.794363 0.093081 0.483729
C20_3 C 0.81637(19) 0.2914(7) 0.6415(2)
C21_3 C 0.82854(19) 0.2792(6) 0.69130(19)
C22_3 C 0.8647(2) 0.3554(7) 0.7159(2)
H10_3 H 0.871690 0.349966 0.749202
C23_3 C 0.8905(2) 0.4409(8) 0.6896(3)
C24_3 C 0.8782(2) 0.4531(9) 0.6408(3)
H11_3 H 0.894371 0.511965 0.623437
C25_3 C 0.8413(2) 0.3775(8) 0.6166(2)
H12_3 H 0.833557 0.385873 0.583441
C26_3 C 0.9310(2) 0.5141(9) 0.7169(3)
C27_3 C 0.80511(19) 0.1796(6) 0.72043(19)
C28_3 C 0.68723(19) 0.1300(6) 0.7097(2)
Co1_4 Co 1.000000 0.65442(14) 0.750000
N1_3 N 0.73768(15) 0.2390(5) 0.63206(16)
O1_3 O 0.80308(14) 0.0501(5) 0.70776(15)
O2_2 O 0.79065(15) 0.2251(5) 0.75621(14)
O3_3 O 0.70602(15) 0.0196(5) 0.69837(15)
O4_2 O 0.69476(14) 0.1869(5) 0.75031(14)
O5_3 O 0.94635(19) 0.4815(7) 0.7592(2)
O6_3 O 0.9496(2) 0.6100(7) 0.6948(2)
O7_3 O 0.5028(2) 0.3668(9) 0.6394(3)
O8_2 O 0.53135(17) 0.3041(7) 0.7137(2)
O28_2 O 0.96865(17) 0.8041(7) 0.7863(2)
C13_3 C 0.7404(2) 0.9956(7) 0.50295(19)
C15_3 C 0.7730(2) 0.9483(8) 0.4325(2)
H7_3 H 0.795125 0.966802 0.414206
C16_3 C 0.7411(2) 0.8456(7) 0.4167(2)
C17_3 C 0.7085(2) 0.8174(8) 0.4454(2)
H8_3 H 0.686830 0.748399 0.435722
C18_3 C 0.7084(2) 0.8913(7) 0.4876(2)
H9_3 H 0.686673 0.871482 0.506259
C19_3 C 0.7409(2) 0.7698(7) 0.3714(2)
O11_3 O 0.77212(15) 0.9355(5) 0.79505(14)
O24_2 O 0.70935(15) 0.7251(5) 0.74379(14)
O26_2 O 0.80524(14) 0.6869(5) 0.74969(14)
H27_3 H 0.804489 0.934028 0.807759
H28_3 H 0.756422 0.870523 0.814527
H11_4 H 0.394371 0.011965 0.623437
C26_4 C 0.4310(2) 0.0141(9) 0.7169(3)
O6_4 O 0.4496(2) 0.1100(7) 0.6948(2)
H23_4 H 0.605629 0.011965 0.876563
C54_4 C 0.5690(2) 0.0141(9) 0.7831(3)
O17_4 O 0.5504(2) 0.1100(7) 0.8052(2)
C42_2 C 0.7271(2) 0.5235(7) 0.0256(2)
H18_2 H 0.705637 0.593081 0.016271
C43_4 C 0.7270(2) 0.4483(8) 0.0675(2)
H19_4 H 0.704875 0.466802 0.085794
C44_4 C 0.7589(2) 0.3456(7) 0.0833(2)
C45_4 C 0.7915(2) 0.3174(8) 0.0546(2)
H20_4 H 0.813170 0.248399 0.064278
C46_4 C 0.7916(2) 0.3913(7) 0.0124(2)
C47_4 C 0.7591(2) 0.2698(7) 0.1286(2)
C1_4 C 0.27624(19) 0.7177(7) 0.61508(19)
C2_4 C 0.2780(2) 0.6399(7) 0.5738(2)
H1_4 H 0.305031 0.628600 0.563093
C3_4 C 0.23979(19) 0.5783(7) 0.54807(19)
C4_4 C 0.2002(2) 0.5990(7) 0.5660(2)
H2_4 H 0.173827 0.559468 0.550202
C5_4 C 0.20039(19) 0.6777(7) 0.60705(19)
C6_4 C 0.15766(19) 0.7111(7) 0.6246(2)
C7_4 C 0.15243(19) 0.6941(7) 0.6729(2)
C8_4 C 0.1126(2) 0.7323(7) 0.6869(2)
H3_4 H 0.109750 0.724165 0.719096
C9_4 C 0.0766(2) 0.7827(8) 0.6542(2)
C10_4 C 0.0821(2) 0.7975(10) 0.6059(3)
H4_4 H 0.058567 0.830855 0.583472
C11_4 C 0.1214(2) 0.7638(10) 0.5914(2)
H5_4 H 0.124365 0.775726 0.559301
C12_4 C 0.0338(3) 0.8206(9) 0.6696(3)
C13_4 C 0.2404(2) 0.4956(7) 0.50295(19)
C14_4 C 0.2729(2) 0.5235(7) 0.4744(2)
H6_4 H 0.294363 0.593081 0.483729
C15_4 C 0.2730(2) 0.4483(8) 0.4325(2)
H7_4 H 0.295125 0.466802 0.414206
C16_4 C 0.2411(2) 0.3456(7) 0.4167(2)
C17_4 C 0.2085(2) 0.3174(8) 0.4454(2)
H8_4 H 0.186830 0.248399 0.435722
C18_4 C 0.2084(2) 0.3913(7) 0.4876(2)
H9_4 H 0.186673 0.371482 0.506259
C19_4 C 0.2409(2) 0.2698(7) 0.3714(2)
C20_4 C 0.31637(19) 0.7914(7) 0.6415(2)
C21_4 C 0.32854(19) 0.7792(6) 0.69130(19)
C22_4 C 0.3647(2) 0.8554(7) 0.7159(2)
H10_4 H 0.371690 0.849966 0.749202
C23_4 C 0.3905(2) 0.9409(8) 0.6896(3)
C24_4 C 0.3782(2) 0.9531(9) 0.6408(3)
C25_4 C 0.3413(2) 0.8775(8) 0.6166(2)
H12_4 H 0.333557 0.885873 0.583441
C27_4 C 0.30511(19) 0.6796(6) 0.72043(19)
C28_4 C 0.18723(19) 0.6300(6) 0.7097(2)
N1_4 N 0.23768(15) 0.7390(5) 0.63206(16)
O1_4 O 0.30308(14) 0.5501(5) 0.70776(15)
O3_4 O 0.20602(15) 0.5196(5) 0.69837(15)
O5_4 O 0.44635(19) 0.9815(7) 0.7592(2)
O7_4 O 0.0028(2) 0.8668(9) 0.6394(3)
O11_4 O 0.27212(15) 0.4355(5) 0.79505(14)
C29_4 C 0.72376(19) 0.7177(7) 0.88492(19)
C30_4 C 0.7220(2) 0.6399(7) 0.9262(2)
H13_4 H 0.694969 0.628600 0.936907
C31_4 C 0.76021(19) 0.5783(7) 0.95193(19)
C32_4 C 0.7998(2) 0.5990(7) 0.9340(2)
H14_4 H 0.826173 0.559468 0.949798
C33_4 C 0.79961(19) 0.6777(7) 0.89295(19)
C34_4 C 0.84234(19) 0.7111(7) 0.8754(2)
C35_4 C 0.84757(19) 0.6941(7) 0.8271(2)
C36_4 C 0.8874(2) 0.7323(7) 0.8131(2)
H15_4 H 0.890250 0.724165 0.780904
C37_4 C 0.9234(2) 0.7827(8) 0.8458(2)
C38_4 C 0.9179(2) 0.7975(10) 0.8941(3)
H16_4 H 0.941433 0.830855 0.916528
C39_4 C 0.8786(2) 0.7638(10) 0.9086(2)
H17_4 H 0.875635 0.775726 0.940699
C40_4 C 0.9662(3) 0.8206(9) 0.8304(3)
C41_4 C 0.7596(2) 0.4956(7) 0.99705(19)
H21_4 H 0.813327 0.371482 0.993741
C48_4 C 0.68363(19) 0.7914(7) 0.8585(2)
C49_4 C 0.67146(19) 0.7792(6) 0.80870(19)
C50_4 C 0.6353(2) 0.8554(7) 0.7841(2)
H22_4 H 0.628310 0.849966 0.750798
C51_4 C 0.6095(2) 0.9409(8) 0.8104(3)
C52_4 C 0.6218(2) 0.9531(9) 0.8592(3)
C53_4 C 0.6587(2) 0.8775(8) 0.8834(2)
H24_4 H 0.666443 0.885873 0.916559
C55_4 C 0.69489(19) 0.6796(6) 0.77957(19)
C56_4 C 0.81277(19) 0.6300(6) 0.7903(2)
N2_4 N 0.76232(15) 0.7390(5) 0.86794(16)
O12_4 O 0.69692(14) 0.5501(5) 0.79224(15)
O14_4 O 0.79398(15) 0.5196(5) 0.80163(15)
O16_4 O 0.55365(19) 0.9815(7) 0.7408(2)
O18_4 O 0.9972(2) 0.8668(9) 0.8606(3)
O22_4 O 0.72788(15) 0.4355(5) 0.70495(14)
H25_4 H 0.695511 0.434028 0.692241
H26_4 H 0.743578 0.370523 0.685473
H27_4 H 0.304489 0.434028 0.807759
H28_4 H 0.256422 0.370523 0.814527
C42_3 C 0.7729(2) 0.9765(7) 0.9744(2)
H18_3 H 0.794363 0.906919 0.983729
C42_4 C 0.2271(2) 0.0235(7) 0.0256(2)
H18_4 H 0.205637 0.093081 0.016271
loop_
_geom_bond_atom_site_label_1
_geom_bond_atom_site_label_2
_geom_bond_site_symmetry_1
_geom_bond_site_symmetry_2
H7 C15 1_555 1_555
C16 C15 1_555 1_555
C17 C16 1_555 1_555
H8 C17 1_555 1_555
C18 C13 1_555 1_555
H9 C18 1_555 1_555
C19 C16 1_555 1_555
O9 C19 1_555 1_555
O10 C19 1_555 1_555
O11 La1 1_555 1_555
La5 O9 1_555 1_555
O24 La1 1_555 1_555
O26 La1 1_555 1_555
O29 La1 1_555 1_555
O31 La1 1_555 1_555
C17 C18 1_555 1_555
O10 La5 1_555 1_555
O11 H27 1_555 1_555
O11 H28 1_555 1_555
C1 C2 1_555 1_555
C2 H1 1_555 1_555
C3 C2 1_555 1_555
C4 C3 1_555 1_555
H2 C4 1_555 1_555
C5 C4 1_555 1_555
C6 C5 1_555 1_555
C7 C6 1_555 1_555
C8 C7 1_555 1_555
H3 C8 1_555 1_555
C9 C8 1_555 1_555
C10 C9 1_555 1_555
H4 C10 1_555 1_555
C11 C6 1_555 1_555
H5 C11 1_555 1_555
C12 C9 1_555 1_555
H6 C14 1_555 1_555
C20 C1 1_555 1_555
C21 C20 1_555 1_555
C22 C21 1_555 1_555
H10 C22 1_555 1_555
C23 C22 1_555 1_555
C24 C23 1_555 1_555
H11 C24 1_555 1_555
C25 C20 1_555 1_555
H12 C25 1_555 1_555
C26 C23 1_555 1_555
C27 C21 1_555 1_555
C28 C7 1_555 1_555
Co1 O5 1_555 1_555
N1 C1 1_555 1_555
O1 C27 1_555 1_555
O2 C27 1_555 1_555
O3 C28 1_555 1_555
O4 C28 1_555 1_555
O5 C26 1_555 1_555
O6 C26 1_555 1_555
O7 C12 1_555 1_555
O8 C12 1_555 1_555
La4 O2 1_555 1_555
Co3 O8 1_555 1_555
O28 Co1 1_555 1_555
C5 N1 1_555 1_555
C10 C11 1_555 1_555
C24 C25 1_555 1_555
Co1 O6 1_555 1_555
O4 La4 1_555 1_555
O22 La2 1_555 1_555
O23 La2 1_555 1_555
O25 La2 1_555 1_555
O30 La2 1_555 1_555
O32 La2 1_555 1_555
O22 H25 1_555 1_555
O22 H26 1_555 1_555
H19 C43 1_555 1_555
C44 C43 1_555 1_555
C45 C44 1_555 1_555
H20 C45 1_555 1_555
C47 C44 1_555 1_555
O20 C47 1_555 1_555
O21 C47 1_555 1_555
La6 O20 1_555 1_555
C45 C46 1_555 1_555
O21 La6 1_555 1_555
C29 C30 1_555 1_555
C30 H13 1_555 1_555
C31 C30 1_555 1_555
C32 C31 1_555 1_555
H14 C32 1_555 1_555
C33 C32 1_555 1_555
C34 C33 1_555 1_555
C35 C34 1_555 1_555
C36 C35 1_555 1_555
H15 C36 1_555 1_555
C37 C36 1_555 1_555
C38 C37 1_555 1_555
H16 C38 1_555 1_555
C39 C34 1_555 1_555
H17 C39 1_555 1_555
C40 C37 1_555 1_555
C48 C29 1_555 1_555
C49 C48 1_555 1_555
C50 C49 1_555 1_555
H22 C50 1_555 1_555
C51 C50 1_555 1_555
C52 C51 1_555 1_555
H23 C52 1_555 1_555
C53 C48 1_555 1_555
H24 C53 1_555 1_555
C54 C51 1_555 1_555
C55 C49 1_555 1_555
C56 C35 1_555 1_555
N2 C29 1_555 1_555
O12 C55 1_555 1_555
O13 C55 1_555 1_555
O14 C56 1_555 1_555
O15 C56 1_555 1_555
O16 Co1_2 1_555 1_555
O17 Co1_2 1_555 1_555
O18 C40 1_555 1_555
O19 C40 1_555 1_555
La3 O13 1_555 1_555
Co3 O19 1_555 1_555
O27 Co1_2 1_555 1_555
C33 N2 1_555 1_555
C38 C39 1_555 1_555
C52 C53 1_555 1_555
C54 O16 1_555 1_555
C54 O17 1_555 1_555
O15 La3 1_555 1_555
C1_2 C2_2 1_555 1_555
C2_2 H1_2 1_555 1_555
C3_2 C2_2 1_555 1_555
C4_2 C3_2 1_555 1_555
H2_2 C4_2 1_555 1_555
C5_2 C4_2 1_555 1_555
C6_2 C5_2 1_555 1_555
C7_2 C6_2 1_555 1_555
C8_2 C7_2 1_555 1_555
H3_2 C8_2 1_555 1_555
C9_2 C8_2 1_555 1_555
C10_2 C9_2 1_555 1_555
H4_2 C10_2 1_555 1_555
C11_2 C6_2 1_555 1_555
H5_2 C11_2 1_555 1_555
C12_2 C9_2 1_555 1_555
C13_2 C3_2 1_555 1_555
C14_2 C13_2 1_555 1_555
H6_2 C14_2 1_555 1_555
C15_2 C14_2 1_555 1_555
H7_2 C15_2 1_555 1_555
C16_2 C15_2 1_555 1_555
C17_2 C16_2 1_555 1_555
H8_2 C17_2 1_555 1_555
C18_2 C13_2 1_555 1_555
H9_2 C18_2 1_555 1_555
C19_2 C16_2 1_555 1_555
C20_2 C1_2 1_555 1_555
C21_2 C20_2 1_555 1_555
C22_2 C21_2 1_555 1_555
H10_2 C22_2 1_555 1_555
C23_2 C22_2 1_555 1_555
C24_2 C23_2 1_555 1_555
C25_2 C20_2 1_555 1_555
H12_2 C25_2 1_555 1_555
C27_2 C21_2 1_555 1_555
C28_2 C7_2 1_555 1_555
La3 O1_2 1_555 1_555
N1_2 C1_2 1_555 1_555
O1_2 C27_2 1_555 1_555
O23 C27_2 1_555 1_555
O3_2 C28_2 1_555 1_555
O25 C28_2 1_555 1_555
O7_2 C12_2 1_555 1_555
O27 C12_2 1_555 1_555
O9_2 C19_2 1_555 1_555
O10_2 C19_2 1_555 1_555
O11_2 La3 1_555 1_555
C29_2 C30_2 1_555 1_555
C30_2 H13_2 1_555 1_555
C31_2 C30_2 1_555 1_555
C32_2 C31_2 1_555 1_555
H14_2 C32_2 1_555 1_555
C33_2 C32_2 1_555 1_555
C34_2 C33_2 1_555 1_555
C35_2 C34_2 1_555 1_555
C36_2 C35_2 1_555 1_555
H15_2 C36_2 1_555 1_555
C37_2 C36_2 1_555 1_555
C38_2 C37_2 1_555 1_555
H16_2 C38_2 1_555 1_555
C39_2 C34_2 1_555 1_555
H17_2 C39_2 1_555 1_555
C40_2 C37_2 1_555 1_555
C41_2 C31_2 1_555 1_555
C48_2 C29_2 1_555 1_555
C49_2 C48_2 1_555 1_555
C50_2 C49_2 1_555 1_555
H22_2 C50_2 1_555 1_555
C51_2 C50_2 1_555 1_555
C52_2 C51_2 1_555 1_555
C53_2 C48_2 1_555 1_555
H24_2 C53_2 1_555 1_555
C55_2 C49_2 1_555 1_555
C56_2 C35_2 1_555 1_555
La4 O12_2 1_555 1_555
N2_2 C29_2 1_555 1_555
O12_2 C55_2 1_555 1_555
O24 C55_2 1_555 1_555
O14_2 C56_2 1_555 1_555
O26 C56_2 1_555 1_555
O18_2 C40_2 1_555 1_555
O28 C40_2 1_555 1_555
O22_2 La4 1_555 1_555
La5_2 O9_2 1_555 1_555
O29_2 La3 1_555 1_555
O30_2 La4 1_555 1_555
O31_2 La3 1_555 1_555
O32_2 La4 1_555 1_555
C5_2 N1_2 1_555 1_555
C10_2 C11_2 1_555 1_555
C17_2 C18_2 1_555 1_555
C24_2 C25_2 1_555 1_555
La3 O3_2 1_555 1_555
O10_2 La5_2 1_555 1_555
C33_2 N2_2 1_555 1_555
C38_2 C39_2 1_555 1_555
C52_2 C53_2 1_555 1_555
La4 O14_2 1_555 1_555
O22_2 H25_2 1_555 1_555
O22_2 H26_2 1_555 1_555
O11_2 H27_2 1_555 1_555
O11_2 H28_2 1_555 1_555
H18 C42 1_555 1_555
C43_2 C42 1_555 1_555
H19_2 C43_2 1_555 1_555
C44_2 C43_2 1_555 1_555
C45_2 C44_2 1_555 1_555
H20_2 C45_2 1_555 1_555
C47_2 C44_2 1_555 1_555
O20_2 C47_2 1_555 1_555
O21_2 C47_2 1_555 1_555
La6_2 O20_2 1_555 1_555
C45_2 C46_2 1_555 1_555
O21_2 La6_2 1_555 1_555
O6_2 C26_2 1_555 1_555
O17_2 Co3 1_555 1_555
Co3 O6_2 1_555 1_555
C54_2 O17_2 1_555 1_555
C29_3 C30_3 1_555 1_555
C30_3 H13_3 1_555 1_555
C31_3 C30_3 1_555 1_555
C32_3 C31_3 1_555 1_555
H14_3 C32_3 1_555 1_555
C33_3 C32_3 1_555 1_555
C34_3 C33_3 1_555 1_555
C35_3 C34_3 1_555 1_555
C36_3 C35_3 1_555 1_555
H15_3 C36_3 1_555 1_555
C37_3 C36_3 1_555 1_555
C38_3 C37_3 1_555 1_555
H16_3 C38_3 1_555 1_555
C39_3 C34_3 1_555 1_555
H17_3 C39_3 1_555 1_555
C40_3 C37_3 1_555 1_555
C48_3 C29_3 1_555 1_555
C49_3 C48_3 1_555 1_555
C50_3 C49_3 1_555 1_555
H22_3 C50_3 1_555 1_555
C51_3 C50_3 1_555 1_555
C52_3 C51_3 1_555 1_555
H23_3 C52_3 1_555 1_555
C53_3 C48_3 1_555 1_555
H24_3 C53_3 1_555 1_555
C54_3 C51_3 1_555 1_555
C55_3 C49_3 1_555 1_555
C56_3 C35_3 1_555 1_555
N2_3 C29_3 1_555 1_555
O12_3 C55_3 1_555 1_555
O13_2 C55_3 1_555 1_555
O14_3 C56_3 1_555 1_555
O15_2 C56_3 1_555 1_555
O16_3 Co1_3 1_555 1_555
O17_3 Co1_3 1_555 1_555
O18_3 C40_3 1_555 1_555
O19_2 C40_3 1_555 1_555
La5 O13_2 1_555 1_555
Co2 O19_2 1_555 1_555
O27_2 Co1_3 1_555 1_555
C33_3 N2_3 1_555 1_555
C38_3 C39_3 1_555 1_555
C52_3 C53_3 1_555 1_555
C54_3 O16_3 1_555 1_555
C54_3 O17_3 1_555 1_555
O15_2 La5 1_555 1_555
H19_3 C43_3 1_555 1_555
C44_3 C43_3 1_555 1_555
C45_3 C44_3 1_555 1_555
H20_3 C45_3 1_555 1_555
C47_3 C44_3 1_555 1_555
O30_2 C47_3 1_555 1_555
O32_2 C47_3 1_555 1_555
C45_3 C46_3 1_555 1_555
O22_3 La6_2 1_555 1_555
O23_2 La6_2 1_555 1_555
O25_2 La6_2 1_555 1_555
O22_3 H25_3 1_555 1_555
O22_3 H26_3 1_555 1_555
C1_3 C2_3 1_555 1_555
C2_3 H1_3 1_555 1_555
C3_3 C2_3 1_555 1_555
C4_3 C3_3 1_555 1_555
H2_3 C4_3 1_555 1_555
C5_3 C4_3 1_555 1_555
C6_3 C5_3 1_555 1_555
C7_3 C6_3 1_555 1_555
C8_3 C7_3 1_555 1_555
H3_3 C8_3 1_555 1_555
C9_3 C8_3 1_555 1_555
C10_3 C9_3 1_555 1_555
H4_3 C10_3 1_555 1_555
C11_3 C6_3 1_555 1_555
H5_3 C11_3 1_555 1_555
C12_3 C9_3 1_555 1_555
H6_3 C14_3 1_555 1_555
C20_3 C1_3 1_555 1_555
C21_3 C20_3 1_555 1_555
C22_3 C21_3 1_555 1_555
H10_3 C22_3 1_555 1_555
C23_3 C22_3 1_555 1_555
C24_3 C23_3 1_555 1_555
H11_3 C24_3 1_555 1_555
C25_3 C20_3 1_555 1_555
H12_3 C25_3 1_555 1_555
C26_3 C23_3 1_555 1_555
C27_3 C21_3 1_555 1_555
C28_3 C7_3 1_555 1_555
Co1_4 O5_3 1_555 1_555
N1_3 C1_3 1_555 1_555
O1_3 C27_3 1_555 1_555
O2_2 C27_3 1_555 1_555
O3_3 C28_3 1_555 1_555
O4_2 C28_3 1_555 1_555
O5_3 C26_3 1_555 1_555
O6_3 C26_3 1_555 1_555
O7_3 C12_3 1_555 1_555
O8_2 C12_3 1_555 1_555
La6 O2_2 1_555 1_555
Co2 O8_2 1_555 1_555
O28_2 Co1_4 1_555 1_555
C5_3 N1_3 1_555 1_555
C10_3 C11_3 1_555 1_555
C24_3 C25_3 1_555 1_555
Co1_4 O6_3 1_555 1_555
O4_2 La6 1_555 1_555
H7_3 C15_3 1_555 1_555
C16_3 C15_3 1_555 1_555
C17_3 C16_3 1_555 1_555
H8_3 C17_3 1_555 1_555
C18_3 C13_3 1_555 1_555
H9_3 C18_3 1_555 1_555
C19_3 C16_3 1_555 1_555
O29_2 C19_3 1_555 1_555
O31_2 C19_3 1_555 1_555
O11_3 La5_2 1_555 1_555
O24_2 La5_2 1_555 1_555
O26_2 La5_2 1_555 1_555
C17_3 C18_3 1_555 1_555
O11_3 H27_3 1_555 1_555
O11_3 H28_3 1_555 1_555
O6_4 C26_4 1_555 1_555
O17_4 Co2 1_555 1_555
Co2 O6_4 1_555 1_555
C54_4 O17_4 1_555 1_555
H18_2 C42_2 1_555 1_555
C43_4 C42_2 1_555 1_555
H19_4 C43_4 1_555 1_555
C44_4 C43_4 1_555 1_555
C45_4 C44_4 1_555 1_555
H20_4 C45_4 1_555 1_555
C47_4 C44_4 1_555 1_555
O30 C47_4 1_555 1_555
O32 C47_4 1_555 1_555
C45_4 C46_4 1_555 1_555
C1_4 C2_4 1_555 1_555
C2_4 H1_4 1_555 1_555
C3_4 C2_4 1_555 1_555
C4_4 C3_4 1_555 1_555
H2_4 C4_4 1_555 1_555
C5_4 C4_4 1_555 1_555
C6_4 C5_4 1_555 1_555
C7_4 C6_4 1_555 1_555
C8_4 C7_4 1_555 1_555
H3_4 C8_4 1_555 1_555
C9_4 C8_4 1_555 1_555
C10_4 C9_4 1_555 1_555
H4_4 C10_4 1_555 1_555
C11_4 C6_4 1_555 1_555
H5_4 C11_4 1_555 1_555
C12_4 C9_4 1_555 1_555
C13_4 C3_4 1_555 1_555
C14_4 C13_4 1_555 1_555
H6_4 C14_4 1_555 1_555
C15_4 C14_4 1_555 1_555
H7_4 C15_4 1_555 1_555
C16_4 C15_4 1_555 1_555
C17_4 C16_4 1_555 1_555
H8_4 C17_4 1_555 1_555
C18_4 C13_4 1_555 1_555
H9_4 C18_4 1_555 1_555
C19_4 C16_4 1_555 1_555
C20_4 C1_4 1_555 1_555
C21_4 C20_4 1_555 1_555
C22_4 C21_4 1_555 1_555
H10_4 C22_4 1_555 1_555
C23_4 C22_4 1_555 1_555
C24_4 C23_4 1_555 1_555
C25_4 C20_4 1_555 1_555
H12_4 C25_4 1_555 1_555
C27_4 C21_4 1_555 1_555
C28_4 C7_4 1_555 1_555
La5 O1_4 1_555 1_555
N1_4 C1_4 1_555 1_555
O1_4 C27_4 1_555 1_555
O23_2 C27_4 1_555 1_555
O3_4 C28_4 1_555 1_555
O25_2 C28_4 1_555 1_555
O7_4 C12_4 1_555 1_555
O27_2 C12_4 1_555 1_555
O29 C19_4 1_555 1_555
O31 C19_4 1_555 1_555
O11_4 La5 1_555 1_555
C29_4 C30_4 1_555 1_555
C30_4 H13_4 1_555 1_555
C31_4 C30_4 1_555 1_555
C32_4 C31_4 1_555 1_555
H14_4 C32_4 1_555 1_555
C33_4 C32_4 1_555 1_555
C34_4 C33_4 1_555 1_555
C35_4 C34_4 1_555 1_555
C36_4 C35_4 1_555 1_555
H15_4 C36_4 1_555 1_555
C37_4 C36_4 1_555 1_555
C38_4 C37_4 1_555 1_555
H16_4 C38_4 1_555 1_555
C39_4 C34_4 1_555 1_555
H17_4 C39_4 1_555 1_555
C40_4 C37_4 1_555 1_555
C41_4 C31_4 1_555 1_555
C48_4 C29_4 1_555 1_555
C49_4 C48_4 1_555 1_555
C50_4 C49_4 1_555 1_555
H22_4 C50_4 1_555 1_555
C51_4 C50_4 1_555 1_555
C52_4 C51_4 1_555 1_555
C53_4 C48_4 1_555 1_555
H24_4 C53_4 1_555 1_555
C55_4 C49_4 1_555 1_555
C56_4 C35_4 1_555 1_555
La6 O12_4 1_555 1_555
N2_4 C29_4 1_555 1_555
O12_4 C55_4 1_555 1_555
O24_2 C55_4 1_555 1_555
O14_4 C56_4 1_555 1_555
O26_2 C56_4 1_555 1_555
O18_4 C40_4 1_555 1_555
O28_2 C40_4 1_555 1_555
O22_4 La6 1_555 1_555
C5_4 N1_4 1_555 1_555
C10_4 C11_4 1_555 1_555
C17_4 C18_4 1_555 1_555
C24_4 C25_4 1_555 1_555
La5 O3_4 1_555 1_555
C33_4 N2_4 1_555 1_555
C38_4 C39_4 1_555 1_555
C52_4 C53_4 1_555 1_555
La6 O14_4 1_555 1_555
O22_4 H25_4 1_555 1_555
O22_4 H26_4 1_555 1_555
O11_4 H27_4 1_555 1_555
O11_4 H28_4 1_555 1_555
H18_3 C42_3 1_555 1_555
H18_4 C42_4 1_555 1_555

#END
