
###############################################################################
#
# This file contains modified crystal structure data generated from the
# MOF subset of the Cambridge Structural Database (CSD) v543 
# hosted by the Cambridge Crystallographic Data Centre (CCDC).
#
# This work is licensed under the Creative Commons
# Attribution-NonCommercial-ShareAlike 4.0 International License.
# To view a copy of this license, visit
# http://creativecommons.org/licenses/by-nc-sa/4.0/
# or send a letter to
# Creative Commons, PO Box 1866, Mountain View, CA 94042, USA.
#
# CIF created using the CSD Python API on 29 September 2022
# The structure has been converted into the P1 space group
# The structure has a 3D framework
# The original CSD entry OLICET is in the cubic crystal system
# The framework has been calculated to contain at least 10.0% void space
# The void calculation uses a probe of radius 1.32A, grid spacing 0.4
# The framework is charged, counterions have been retained in the structure
#
###############################################################################

data_OLICET
_chemical_formula_moiety         '(C912 H384 Cl12 Fe144 N576 O144 12-)n'
_symmetry_cell_setting           triclinic
_symmetry_space_group_name_H-M   'P 1'
_symmetry_Int_Tables_number      1
_space_group_name_Hall           'P 1'
loop_
_symmetry_equiv_pos_site_id
_symmetry_equiv_pos_as_xyz
1 x,y,z
_cell_length_a                   37.2012(9)
_cell_length_b                   37.2012(9)
_cell_length_c                   37.2012(9)
_cell_angle_alpha                90
_cell_angle_beta                 90
_cell_angle_gamma                90
_cell_volume                     51483.8
loop_
_atom_site_label
_atom_site_type_symbol
_atom_site_fract_x
_atom_site_fract_y
_atom_site_fract_z
Fe8 Fe 0.0000 0.68398(2) 0.24486(2)
O8 O 0.0000 0.60770(9) 0.23774(9)
C56 C -0.0000 0.63651(13) 0.24033(10)
Fe15 Fe 0.0000 0.75514(2) 0.18398(2)
Fe17 Fe 0.0000 0.74486(2) 0.31602(2)
Fe20 Fe 0.0000 0.81602(2) 0.25514(2)
Cl5 Cl 0.0000 0.7500 0.2500
N78 N 0.03744(5) 0.68337(5) 0.28293(5)
N92 N 0.03717(5) 0.68990(5) 0.20733(5)
Fe5 Fe 0.74486(2) 0.0000 0.18398(2)
O5 O 0.73774(9) 0.0000 0.10770(9)
C29 C 0.74033(10) 0.0000 0.13651(13)
Fe14 Fe 0.81602(2) 0.0000 0.24486(2)
Fe19 Fe 0.68398(2) 0.0000 0.25514(2)
Fe21 Fe 0.75514(2) 0.0000 0.31602(2)
Cl4 Cl 0.7500 0.0000 0.2500
N75 N 0.78293(5) 0.03744(5) 0.18337(5)
N89 N 0.70733(5) 0.03717(5) 0.18990(5)
Fe1 Fe 0.68398(2) 0.74486(2) 0.5000
Cl1 Cl 0.7500 0.7500 0.5000
O1 O 0.60770(9) 0.73774(9) 0.5000
N1 N 0.71707(5) 0.68337(5) 0.46256(5)
N2 N 0.68990(5) 0.70733(5) 0.46283(5)
N3 N 0.66791(5) 0.70182(5) 0.43544(5)
C1 C 0.71187(6) 0.66225(6) 0.43398(6)
H1 H 0.7268 0.6429 0.4267
C2 C 0.68120(6) 0.67339(6) 0.41702(6)
C3 C 0.66345(6) 0.65967(6) 0.38420(6)
C4 C 0.63290(6) 0.67675(6) 0.37066(6)
H2 H 0.6238 0.6976 0.3823
C5 C 0.63651(13) 0.74033(10) 0.5000
N4 N 0.53744(5) 0.71707(5) 0.31663(5)
N5 N 0.53717(5) 0.68990(5) 0.29267(5)
N6 N 0.56456(5) 0.66791(5) 0.29818(5)
C6 C 0.56602(6) 0.71187(6) 0.33775(6)
H3 H 0.5733 0.7268 0.3571
C7 C 0.58298(6) 0.68120(6) 0.32661(6)
C8 C 0.61580(6) 0.66345(6) 0.34033(6)
C9 C 0.62934(6) 0.63290(6) 0.32325(6)
H4 H 0.6177 0.6238 0.3024
N7 N 0.68337(5) 0.53744(5) 0.28293(5)
N8 N 0.70733(5) 0.53717(5) 0.31010(5)
N9 N 0.70182(5) 0.56456(5) 0.33209(5)
C10 C 0.66225(6) 0.56602(6) 0.28813(6)
H5 H 0.6429 0.5733 0.2732
C11 C 0.67339(6) 0.58298(6) 0.31880(6)
C12 C 0.65967(6) 0.61580(6) 0.33655(6)
C13 C 0.67675(6) 0.62934(6) 0.36710(6)
H6 H 0.6976 0.6177 0.3762
Fe2 Fe 0.5000 0.68398(2) 0.25514(2)
Cl2 Cl 0.5000 0.7500 0.2500
O2 O 0.5000 0.60770(9) 0.26226(9)
C14 C 0.5000 0.63651(13) 0.25967(10)
Fe3 Fe 0.74486(2) 0.5000 0.31602(2)
Cl3 Cl 0.7500 0.5000 0.2500
O3 O 0.73774(9) 0.5000 0.39230(9)
C15 C 0.74033(10) 0.5000 0.36349(13)
Fe4 Fe 0.5000 0.81602(2) 0.24486(2)
O4 O 0.5000 0.89230(9) 0.23774(9)
N10 N 0.53744(5) 0.78293(5) 0.18337(5)
N11 N 0.53717(5) 0.81010(5) 0.20733(5)
N12 N 0.56456(5) 0.83209(5) 0.20182(5)
C16 C 0.56602(6) 0.78813(6) 0.16225(6)
H7 H 0.5733 0.7732 0.1429
C17 C 0.58298(6) 0.81880(6) 0.17339(6)
C18 C 0.61580(6) 0.83655(6) 0.15967(6)
C19 C 0.62934(6) 0.86710(6) 0.17675(6)
H8 H 0.6177 0.8762 0.1976
C20 C 0.5000 0.86349(13) 0.24033(10)
N13 N 0.68337(5) 0.96256(5) 0.21707(5)
N14 N 0.70733(5) 0.96283(5) 0.18990(5)
N15 N 0.70182(5) 0.93544(5) 0.16791(5)
C21 C 0.66225(6) 0.93398(6) 0.21187(6)
H9 H 0.6429 0.9267 0.2268
C22 C 0.67339(6) 0.91702(6) 0.18120(6)
C23 C 0.65967(6) 0.88420(6) 0.16345(6)
C24 C 0.67675(6) 0.87066(6) 0.13290(6)
H10 H 0.6976 0.8823 0.1238
N16 N 0.71707(5) 0.81663(5) 0.03744(5)
N17 N 0.68990(5) 0.79267(5) 0.03717(5)
N18 N 0.66791(5) 0.79818(5) 0.06456(5)
C25 C 0.71187(6) 0.83775(6) 0.06602(6)
H11 H 0.7268 0.8571 0.0733
C26 C 0.68120(6) 0.82661(6) 0.08298(6)
C27 C 0.66345(6) 0.84033(6) 0.11580(6)
C28 C 0.63290(6) 0.82325(6) 0.12934(6)
H12 H 0.6238 0.8024 0.1177
Fe5_2 Fe 0.74486(2) 1.0000 0.18398(2)
O5_2 O 0.73774(9) 1.0000 0.10770(9)
C29_2 C 0.74033(10) 1.0000 0.13651(13)
Fe6 Fe 0.75514(2) 0.68398(2) 0.5000
O6 O 0.76226(9) 0.60770(9) 0.5000
N19 N 0.81663(5) 0.71707(5) 0.46256(5)
N20 N 0.79267(5) 0.68990(5) 0.46283(5)
N21 N 0.79818(5) 0.66791(5) 0.43544(5)
C30 C 0.83775(6) 0.71187(6) 0.43398(6)
H13 H 0.8571 0.7268 0.4267
C31 C 0.82661(6) 0.68120(6) 0.41702(6)
C32 C 0.84033(6) 0.66345(6) 0.38420(6)
C33 C 0.82325(6) 0.63290(6) 0.37066(6)
H14 H 0.8024 0.6238 0.3823
C34 C 0.75967(10) 0.63651(13) 0.5000
N22 N 0.78293(5) 0.53744(5) 0.31663(5)
N23 N 0.81010(5) 0.53717(5) 0.29267(5)
N24 N 0.83209(5) 0.56456(5) 0.29818(5)
C35 C 0.78813(6) 0.56602(6) 0.33775(6)
H15 H 0.7732 0.5733 0.3571
C36 C 0.81880(6) 0.58298(6) 0.32661(6)
C37 C 0.83655(6) 0.61580(6) 0.34033(6)
C38 C 0.86710(6) 0.62934(6) 0.32325(6)
H16 H 0.8762 0.6177 0.3024
N25 N 0.96256(5) 0.68337(5) 0.28293(5)
N26 N 0.96283(5) 0.70733(5) 0.31010(5)
N27 N 0.93544(5) 0.70182(5) 0.33209(5)
C39 C 0.93398(6) 0.66225(6) 0.28813(6)
H17 H 0.9267 0.6429 0.2732
C40 C 0.91702(6) 0.67339(6) 0.31880(6)
C41 C 0.88420(6) 0.65967(6) 0.33655(6)
C42 C 0.87066(6) 0.67675(6) 0.36710(6)
H18 H 0.8823 0.6976 0.3762
Fe7 Fe 0.81602(2) 0.5000 0.25514(2)
O7 O 0.89230(9) 0.5000 0.26226(9)
C43 C 0.86349(13) 0.5000 0.25967(10)
N28 N 0.78293(5) 0.68337(5) 0.03744(5)
N29 N 0.81010(5) 0.70733(5) 0.03717(5)
N30 N 0.83209(5) 0.70182(5) 0.06456(5)
C44 C 0.78813(6) 0.66225(6) 0.06602(6)
H19 H 0.7732 0.6429 0.0733
C45 C 0.81880(6) 0.67339(6) 0.08298(6)
C46 C 0.83655(6) 0.65967(6) 0.11580(6)
C47 C 0.86710(6) 0.67675(6) 0.12934(6)
H20 H 0.8762 0.6976 0.1177
N31 N 0.96256(5) 0.71707(5) 0.18337(5)
N32 N 0.96283(5) 0.68990(5) 0.20733(5)
N33 N 0.93544(5) 0.66791(5) 0.20182(5)
C48 C 0.93398(6) 0.71187(6) 0.16225(6)
H21 H 0.9267 0.7268 0.1429
C49 C 0.91702(6) 0.68120(6) 0.17339(6)
C50 C 0.88420(6) 0.66345(6) 0.15967(6)
C51 C 0.87066(6) 0.63290(6) 0.17675(6)
H22 H 0.8823 0.6238 0.1976
N34 N 0.81663(5) 0.53744(5) 0.21707(5)
N35 N 0.79267(5) 0.53717(5) 0.18990(5)
N36 N 0.79818(5) 0.56456(5) 0.16791(5)
C52 C 0.83775(6) 0.56602(6) 0.21187(6)
H23 H 0.8571 0.5733 0.2268
C53 C 0.82661(6) 0.58298(6) 0.18120(6)
C54 C 0.84033(6) 0.61580(6) 0.16345(6)
C55 C 0.82325(6) 0.62934(6) 0.13290(6)
H24 H 0.8024 0.6177 0.1238
Fe8_2 Fe 1.0000 0.68398(2) 0.24486(2)
O8_2 O 1.0000 0.60770(9) 0.23774(9)
C56_2 C 1.0000 0.63651(13) 0.24033(10)
Fe9 Fe 0.75514(2) 0.5000 0.18398(2)
O9 O 0.76226(9) 0.5000 0.10770(9)
C57 C 0.75967(10) 0.5000 0.13651(13)
Fe10 Fe 0.74486(2) 0.81602(2) 0.5000
O10 O 0.73774(9) 0.89230(9) 0.5000
N37 N 0.68337(5) 0.78293(5) 0.46256(5)
N38 N 0.70733(5) 0.81010(5) 0.46283(5)
N39 N 0.70182(5) 0.83209(5) 0.43544(5)
C58 C 0.66225(6) 0.78813(6) 0.43398(6)
H25 H 0.6429 0.7732 0.4267
C59 C 0.67339(6) 0.81880(6) 0.41702(6)
C60 C 0.65967(6) 0.83655(6) 0.38420(6)
C61 C 0.67675(6) 0.86710(6) 0.37066(6)
H26 H 0.6976 0.8762 0.3823
C62 C 0.74033(10) 0.86349(13) 0.5000
N40 N 0.71707(5) 0.96256(5) 0.31663(5)
N41 N 0.68990(5) 0.96283(5) 0.29267(5)
N42 N 0.66791(5) 0.93544(5) 0.29818(5)
C63 C 0.71187(6) 0.93398(6) 0.33775(6)
H27 H 0.7268 0.9267 0.3571
C64 C 0.68120(6) 0.91702(6) 0.32661(6)
C65 C 0.66345(6) 0.88420(6) 0.34033(6)
C66 C 0.63290(6) 0.87066(6) 0.32325(6)
H28 H 0.6238 0.8823 0.3024
N43 N 0.53744(5) 0.81663(5) 0.28293(5)
N44 N 0.53717(5) 0.79267(5) 0.31010(5)
N45 N 0.56456(5) 0.79818(5) 0.33209(5)
C67 C 0.56602(6) 0.83775(6) 0.28813(6)
H29 H 0.5733 0.8571 0.2732
C68 C 0.58298(6) 0.82661(6) 0.31880(6)
C69 C 0.61580(6) 0.84033(6) 0.33655(6)
C70 C 0.62934(6) 0.82325(6) 0.36710(6)
H30 H 0.6177 0.8024 0.3762
Fe11 Fe 0.5000 0.75514(2) 0.31602(2)
O11 O 0.5000 0.76226(9) 0.39230(9)
C71 C 0.5000 0.75967(10) 0.36349(13)
Fe12 Fe 0.81602(2) 0.75514(2) 0.5000
O12 O 0.89230(9) 0.76226(9) 0.5000
N46 N 0.78293(5) 0.81663(5) 0.46256(5)
N47 N 0.81010(5) 0.79267(5) 0.46283(5)
N48 N 0.83209(5) 0.79818(5) 0.43544(5)
C72 C 0.78813(6) 0.83775(6) 0.43398(6)
H31 H 0.7732 0.8571 0.4267
C73 C 0.81880(6) 0.82661(6) 0.41702(6)
C74 C 0.83655(6) 0.84033(6) 0.38420(6)
C75 C 0.86710(6) 0.82325(6) 0.37066(6)
H32 H 0.8762 0.8024 0.3823
C76 C 0.86349(13) 0.75967(10) 0.5000
N49 N 0.96256(5) 0.78293(5) 0.31663(5)
N50 N 0.96283(5) 0.81010(5) 0.29267(5)
N51 N 0.93544(5) 0.83209(5) 0.29818(5)
C77 C 0.93398(6) 0.78813(6) 0.33775(6)
H33 H 0.9267 0.7732 0.3571
C78 C 0.91702(6) 0.81880(6) 0.32661(6)
C79 C 0.88420(6) 0.83655(6) 0.34033(6)
C80 C 0.87066(6) 0.86710(6) 0.32325(6)
H34 H 0.8823 0.8762 0.3024
N52 N 0.81663(5) 0.96256(5) 0.28293(5)
N53 N 0.79267(5) 0.96283(5) 0.31010(5)
N54 N 0.79818(5) 0.93544(5) 0.33209(5)
C81 C 0.83775(6) 0.93398(6) 0.28813(6)
H35 H 0.8571 0.9267 0.2732
C82 C 0.82661(6) 0.91702(6) 0.31880(6)
C83 C 0.84033(6) 0.88420(6) 0.33655(6)
C84 C 0.82325(6) 0.87066(6) 0.36710(6)
H36 H 0.8024 0.8823 0.3762
N55 N 0.68337(5) 0.71707(5) 0.03744(5)
N56 N 0.70733(5) 0.68990(5) 0.03717(5)
N57 N 0.70182(5) 0.66791(5) 0.06456(5)
C85 C 0.66225(6) 0.71187(6) 0.06602(6)
H37 H 0.6429 0.7268 0.0733
C86 C 0.67339(6) 0.68120(6) 0.08298(6)
C87 C 0.65967(6) 0.66345(6) 0.11580(6)
C88 C 0.67675(6) 0.63290(6) 0.12934(6)
H38 H 0.6976 0.6238 0.1177
N58 N 0.71707(5) 0.53744(5) 0.18337(5)
N59 N 0.68990(5) 0.53717(5) 0.20733(5)
N60 N 0.66791(5) 0.56456(5) 0.20182(5)
C89 C 0.71187(6) 0.56602(6) 0.16225(6)
H39 H 0.7268 0.5733 0.1429
C90 C 0.68120(6) 0.58298(6) 0.17339(6)
C91 C 0.66345(6) 0.61580(6) 0.15967(6)
C92 C 0.63290(6) 0.62934(6) 0.17675(6)
H40 H 0.6238 0.6177 0.1976
N61 N 0.53744(5) 0.68337(5) 0.21707(5)
N62 N 0.53717(5) 0.70733(5) 0.18990(5)
N63 N 0.56456(5) 0.70182(5) 0.16791(5)
C93 C 0.56602(6) 0.66225(6) 0.21187(6)
H41 H 0.5733 0.6429 0.2268
C94 C 0.58298(6) 0.67339(6) 0.18120(6)
C95 C 0.61580(6) 0.65967(6) 0.16345(6)
C96 C 0.62934(6) 0.67675(6) 0.13290(6)
H42 H 0.6177 0.6976 0.1238
N64 N 0.81663(5) 0.78293(5) 0.03744(5)
N65 N 0.79267(5) 0.81010(5) 0.03717(5)
N66 N 0.79818(5) 0.83209(5) 0.06456(5)
C97 C 0.83775(6) 0.78813(6) 0.06602(6)
H43 H 0.8571 0.7732 0.0733
C98 C 0.82661(6) 0.81880(6) 0.08298(6)
C99 C 0.84033(6) 0.83655(6) 0.11580(6)
C100 C 0.82325(6) 0.86710(6) 0.12934(6)
H44 H 0.8024 0.8762 0.1177
N67 N 0.78293(5) 0.96256(5) 0.18337(5)
N68 N 0.81010(5) 0.96283(5) 0.20733(5)
N69 N 0.83209(5) 0.93544(5) 0.20182(5)
C101 C 0.78813(6) 0.93398(6) 0.16225(6)
H45 H 0.7732 0.9267 0.1429
C102 C 0.81880(6) 0.91702(6) 0.17339(6)
C103 C 0.83655(6) 0.88420(6) 0.15967(6)
C104 C 0.86710(6) 0.87066(6) 0.17675(6)
H46 H 0.8762 0.8823 0.1976
N70 N 0.96256(5) 0.81663(5) 0.21707(5)
N71 N 0.96283(5) 0.79267(5) 0.18990(5)
N72 N 0.93544(5) 0.79818(5) 0.16791(5)
C105 C 0.93398(6) 0.83775(6) 0.21187(6)
H47 H 0.9267 0.8571 0.2268
C106 C 0.91702(6) 0.82661(6) 0.18120(6)
C107 C 0.88420(6) 0.84033(6) 0.16345(6)
C108 C 0.87066(6) 0.82325(6) 0.13290(6)
H48 H 0.8823 0.8024 0.1238
Fe13 Fe 0.75514(2) 0.81602(2) 0.0000
Fe14_2 Fe 0.81602(2) 1.0000 0.24486(2)
Fe15_2 Fe 1.0000 0.75514(2) 0.18398(2)
Fe16 Fe 0.68398(2) 0.75514(2) 0.0000
Fe17_2 Fe 1.0000 0.74486(2) 0.31602(2)
Fe18 Fe 0.81602(2) 0.74486(2) 0.0000
Fe19_2 Fe 0.68398(2) 1.0000 0.25514(2)
Fe20_2 Fe 1.0000 0.81602(2) 0.25514(2)
Fe21_2 Fe 0.75514(2) 1.0000 0.31602(2)
Fe22 Fe 0.74486(2) 0.68398(2) 0.0000
Fe23 Fe 0.68398(2) 0.5000 0.24486(2)
Fe24 Fe 0.5000 0.74486(2) 0.18398(2)
Cl4_2 Cl 0.7500 1.0000 0.2500
Cl5_2 Cl 1.0000 0.7500 0.2500
N73 N 0.71707(5) 0.68337(5) 0.53744(5)
N74 N 0.46256(5) 0.71707(5) 0.31663(5)
N76 N 0.81663(5) 0.71707(5) 0.53744(5)
N77 N 0.78293(5) 0.46256(5) 0.31663(5)
N79 N 0.81663(5) 0.46256(5) 0.21707(5)
N80 N 0.68337(5) 0.78293(5) 0.53744(5)
N81 N 0.46256(5) 0.81663(5) 0.28293(5)
N82 N 0.78293(5) 0.81663(5) 0.53744(5)
N83 N 0.71707(5) 0.46256(5) 0.18337(5)
N84 N 0.46256(5) 0.68337(5) 0.21707(5)
N85 N 0.68990(5) 0.70733(5) 0.53717(5)
N86 N 0.46283(5) 0.68990(5) 0.29267(5)
N87 N 0.70733(5) 0.46283(5) 0.31010(5)
N88 N 0.46283(5) 0.81010(5) 0.20733(5)
N90 N 0.79267(5) 0.68990(5) 0.53717(5)
N91 N 0.81010(5) 0.46283(5) 0.29267(5)
N93 N 0.79267(5) 0.46283(5) 0.18990(5)
N94 N 0.70733(5) 0.81010(5) 0.53717(5)
N95 N 0.46283(5) 0.79267(5) 0.31010(5)
N96 N 0.81010(5) 0.79267(5) 0.53717(5)
Fe13_2 Fe 0.75514(2) 0.81602(2) 1.0000
Fe16_2 Fe 0.68398(2) 0.75514(2) 1.0000
Fe18_2 Fe 0.81602(2) 0.74486(2) 1.0000
Fe22_2 Fe 0.74486(2) 0.68398(2) 1.0000
Fe1_2 Fe 0.31602(2) 0.25514(2) 0.5000
Cl1_2 Cl 0.2500 0.2500 0.5000
O1_2 O 0.39230(9) 0.26226(9) 0.5000
N1_2 N 0.28293(5) 0.31663(5) 0.46256(5)
N2_2 N 0.31010(5) 0.29267(5) 0.46283(5)
N3_2 N 0.33209(5) 0.29818(5) 0.43544(5)
C1_2 C 0.28813(6) 0.33775(6) 0.43398(6)
H1_2 H 0.2732 0.3571 0.4267
C2_2 C 0.31880(6) 0.32661(6) 0.41702(6)
C3_2 C 0.33655(6) 0.34033(6) 0.38420(6)
C4_2 C 0.36710(6) 0.32325(6) 0.37066(6)
H2_2 H 0.3762 0.3024 0.3823
C5_2 C 0.36349(13) 0.25967(10) 0.5000
N4_2 N 0.46256(5) 0.28293(5) 0.31663(5)
N5_2 N 0.46283(5) 0.31010(5) 0.29267(5)
N6_2 N 0.43544(5) 0.33209(5) 0.29818(5)
C6_2 C 0.43398(6) 0.28813(6) 0.33775(6)
H3_2 H 0.4267 0.2732 0.3571
C7_2 C 0.41702(6) 0.31880(6) 0.32661(6)
C8_2 C 0.38420(6) 0.33655(6) 0.34033(6)
C9_2 C 0.37066(6) 0.36710(6) 0.32325(6)
H4_2 H 0.3823 0.3762 0.3024
N7_2 N 0.31663(5) 0.46256(5) 0.28293(5)
N8_2 N 0.29267(5) 0.46283(5) 0.31010(5)
N9_2 N 0.29818(5) 0.43544(5) 0.33209(5)
C10_2 C 0.33775(6) 0.43398(6) 0.28813(6)
H5_2 H 0.3571 0.4267 0.2732
C11_2 C 0.32661(6) 0.41702(6) 0.31880(6)
C12_2 C 0.34033(6) 0.38420(6) 0.33655(6)
C13_2 C 0.32325(6) 0.37066(6) 0.36710(6)
H6_2 H 0.3024 0.3823 0.3762
Fe2_2 Fe 0.5000 0.31602(2) 0.25514(2)
Cl2_2 Cl 0.5000 0.2500 0.2500
O2_2 O 0.5000 0.39230(9) 0.26226(9)
C14_2 C 0.5000 0.36349(13) 0.25967(10)
Fe3_2 Fe 0.25514(2) 0.5000 0.31602(2)
Cl3_2 Cl 0.2500 0.5000 0.2500
O3_2 O 0.26226(9) 0.5000 0.39230(9)
C15_2 C 0.25967(10) 0.5000 0.36349(13)
Fe4_2 Fe 0.5000 0.18398(2) 0.24486(2)
O4_2 O 0.5000 0.10770(9) 0.23774(9)
N10_2 N 0.46256(5) 0.21707(5) 0.18337(5)
N11_2 N 0.46283(5) 0.18990(5) 0.20733(5)
N12_2 N 0.43544(5) 0.16791(5) 0.20182(5)
C16_2 C 0.43398(6) 0.21187(6) 0.16225(6)
H7_2 H 0.4267 0.2268 0.1429
C17_2 C 0.41702(6) 0.18120(6) 0.17339(6)
C18_2 C 0.38420(6) 0.16345(6) 0.15967(6)
C19_2 C 0.37066(6) 0.13290(6) 0.17675(6)
H8_2 H 0.3823 0.1238 0.1976
C20_2 C 0.5000 0.13651(13) 0.24033(10)
N13_2 N 0.31663(5) 0.03744(5) 0.21707(5)
N14_2 N 0.29267(5) 0.03717(5) 0.18990(5)
N15_2 N 0.29818(5) 0.06456(5) 0.16791(5)
C21_2 C 0.33775(6) 0.06602(6) 0.21187(6)
H9_2 H 0.3571 0.0733 0.2268
C22_2 C 0.32661(6) 0.08298(6) 0.18120(6)
C23_2 C 0.34033(6) 0.11580(6) 0.16345(6)
C24_2 C 0.32325(6) 0.12934(6) 0.13290(6)
H10_2 H 0.3024 0.1177 0.1238
N16_2 N 0.28293(5) 0.18337(5) 0.03744(5)
N17_2 N 0.31010(5) 0.20733(5) 0.03717(5)
N18_2 N 0.33209(5) 0.20182(5) 0.06456(5)
C25_2 C 0.28813(6) 0.16225(6) 0.06602(6)
H11_2 H 0.2732 0.1429 0.0733
C26_2 C 0.31880(6) 0.17339(6) 0.08298(6)
C27_2 C 0.33655(6) 0.15967(6) 0.11580(6)
C28_2 C 0.36710(6) 0.17675(6) 0.12934(6)
H12_2 H 0.3762 0.1976 0.1177
Fe5_3 Fe 0.25514(2) 0.0000 0.18398(2)
O5_3 O 0.26226(9) 0.0000 0.10770(9)
C29_3 C 0.25967(10) 0.0000 0.13651(13)
Fe6_2 Fe 0.24486(2) 0.31602(2) 0.5000
O6_2 O 0.23774(9) 0.39230(9) 0.5000
N19_2 N 0.18337(5) 0.28293(5) 0.46256(5)
N20_2 N 0.20733(5) 0.31010(5) 0.46283(5)
N21_2 N 0.20182(5) 0.33209(5) 0.43544(5)
C30_2 C 0.16225(6) 0.28813(6) 0.43398(6)
H13_2 H 0.1429 0.2732 0.4267
C31_2 C 0.17339(6) 0.31880(6) 0.41702(6)
C32_2 C 0.15967(6) 0.33655(6) 0.38420(6)
C33_2 C 0.17675(6) 0.36710(6) 0.37066(6)
H14_2 H 0.1976 0.3762 0.3823
C34_2 C 0.24033(10) 0.36349(13) 0.5000
N22_2 N 0.21707(5) 0.46256(5) 0.31663(5)
N23_2 N 0.18990(5) 0.46283(5) 0.29267(5)
N24_2 N 0.16791(5) 0.43544(5) 0.29818(5)
C35_2 C 0.21187(6) 0.43398(6) 0.33775(6)
H15_2 H 0.2268 0.4267 0.3571
C36_2 C 0.18120(6) 0.41702(6) 0.32661(6)
C37_2 C 0.16345(6) 0.38420(6) 0.34033(6)
C38_2 C 0.13290(6) 0.37066(6) 0.32325(6)
H16_2 H 0.1238 0.3823 0.3024
N25_2 N 0.03744(5) 0.31663(5) 0.28293(5)
N26_2 N 0.03717(5) 0.29267(5) 0.31010(5)
N27_2 N 0.06456(5) 0.29818(5) 0.33209(5)
C39_2 C 0.06602(6) 0.33775(6) 0.28813(6)
H17_2 H 0.0733 0.3571 0.2732
C40_2 C 0.08298(6) 0.32661(6) 0.31880(6)
C41_2 C 0.11580(6) 0.34033(6) 0.33655(6)
C42_2 C 0.12934(6) 0.32325(6) 0.36710(6)
H18_2 H 0.1177 0.3024 0.3762
Fe7_2 Fe 0.18398(2) 0.5000 0.25514(2)
O7_2 O 0.10770(9) 0.5000 0.26226(9)
C43_2 C 0.13651(13) 0.5000 0.25967(10)
N28_2 N 0.21707(5) 0.31663(5) 0.03744(5)
N29_2 N 0.18990(5) 0.29267(5) 0.03717(5)
N30_2 N 0.16791(5) 0.29818(5) 0.06456(5)
C44_2 C 0.21187(6) 0.33775(6) 0.06602(6)
H19_2 H 0.2268 0.3571 0.0733
C45_2 C 0.18120(6) 0.32661(6) 0.08298(6)
C46_2 C 0.16345(6) 0.34033(6) 0.11580(6)
C47_2 C 0.13290(6) 0.32325(6) 0.12934(6)
H20_2 H 0.1238 0.3024 0.1177
N31_2 N 0.03744(5) 0.28293(5) 0.18337(5)
N32_2 N 0.03717(5) 0.31010(5) 0.20733(5)
N33_2 N 0.06456(5) 0.33209(5) 0.20182(5)
C48_2 C 0.06602(6) 0.28813(6) 0.16225(6)
H21_2 H 0.0733 0.2732 0.1429
C49_2 C 0.08298(6) 0.31880(6) 0.17339(6)
C50_2 C 0.11580(6) 0.33655(6) 0.15967(6)
C51_2 C 0.12934(6) 0.36710(6) 0.17675(6)
H22_2 H 0.1177 0.3762 0.1976
N34_2 N 0.18337(5) 0.46256(5) 0.21707(5)
N35_2 N 0.20733(5) 0.46283(5) 0.18990(5)
N36_2 N 0.20182(5) 0.43544(5) 0.16791(5)
C52_2 C 0.16225(6) 0.43398(6) 0.21187(6)
H23_2 H 0.1429 0.4267 0.2268
C53_2 C 0.17339(6) 0.41702(6) 0.18120(6)
C54_2 C 0.15967(6) 0.38420(6) 0.16345(6)
C55_2 C 0.17675(6) 0.37066(6) 0.13290(6)
H24_2 H 0.1976 0.3823 0.1238
Fe8_3 Fe 0.0000 0.31602(2) 0.24486(2)
O8_3 O 0.0000 0.39230(9) 0.23774(9)
C56_3 C 0.0000 0.36349(13) 0.24033(10)
Fe9_2 Fe 0.24486(2) 0.5000 0.18398(2)
O9_2 O 0.23774(9) 0.5000 0.10770(9)
C57_2 C 0.24033(10) 0.5000 0.13651(13)
Fe10_2 Fe 0.25514(2) 0.18398(2) 0.5000
O10_2 O 0.26226(9) 0.10770(9) 0.5000
N37_2 N 0.31663(5) 0.21707(5) 0.46256(5)
N38_2 N 0.29267(5) 0.18990(5) 0.46283(5)
N39_2 N 0.29818(5) 0.16791(5) 0.43544(5)
C58_2 C 0.33775(6) 0.21187(6) 0.43398(6)
H25_2 H 0.3571 0.2268 0.4267
C59_2 C 0.32661(6) 0.18120(6) 0.41702(6)
C60_2 C 0.34033(6) 0.16345(6) 0.38420(6)
C61_2 C 0.32325(6) 0.13290(6) 0.37066(6)
H26_2 H 0.3024 0.1238 0.3823
C62_2 C 0.25967(10) 0.13651(13) 0.5000
N40_2 N 0.28293(5) 0.03744(5) 0.31663(5)
N41_2 N 0.31010(5) 0.03717(5) 0.29267(5)
N42_2 N 0.33209(5) 0.06456(5) 0.29818(5)
C63_2 C 0.28813(6) 0.06602(6) 0.33775(6)
H27_2 H 0.2732 0.0733 0.3571
C64_2 C 0.31880(6) 0.08298(6) 0.32661(6)
C65_2 C 0.33655(6) 0.11580(6) 0.34033(6)
C66_2 C 0.36710(6) 0.12934(6) 0.32325(6)
H28_2 H 0.3762 0.1177 0.3024
N43_2 N 0.46256(5) 0.18337(5) 0.28293(5)
N44_2 N 0.46283(5) 0.20733(5) 0.31010(5)
N45_2 N 0.43544(5) 0.20182(5) 0.33209(5)
C67_2 C 0.43398(6) 0.16225(6) 0.28813(6)
H29_2 H 0.4267 0.1429 0.2732
C68_2 C 0.41702(6) 0.17339(6) 0.31880(6)
C69_2 C 0.38420(6) 0.15967(6) 0.33655(6)
C70_2 C 0.37066(6) 0.17675(6) 0.36710(6)
H30_2 H 0.3823 0.1976 0.3762
Fe11_2 Fe 0.5000 0.24486(2) 0.31602(2)
O11_2 O 0.5000 0.23774(9) 0.39230(9)
C71_2 C 0.5000 0.24033(10) 0.36349(13)
Fe12_2 Fe 0.18398(2) 0.24486(2) 0.5000
O12_2 O 0.10770(9) 0.23774(9) 0.5000
N46_2 N 0.21707(5) 0.18337(5) 0.46256(5)
N47_2 N 0.18990(5) 0.20733(5) 0.46283(5)
N48_2 N 0.16791(5) 0.20182(5) 0.43544(5)
C72_2 C 0.21187(6) 0.16225(6) 0.43398(6)
H31_2 H 0.2268 0.1429 0.4267
C73_2 C 0.18120(6) 0.17339(6) 0.41702(6)
C74_2 C 0.16345(6) 0.15967(6) 0.38420(6)
C75_2 C 0.13290(6) 0.17675(6) 0.37066(6)
H32_2 H 0.1238 0.1976 0.3823
C76_2 C 0.13651(13) 0.24033(10) 0.5000
N49_2 N 0.03744(5) 0.21707(5) 0.31663(5)
N50_2 N 0.03717(5) 0.18990(5) 0.29267(5)
N51_2 N 0.06456(5) 0.16791(5) 0.29818(5)
C77_2 C 0.06602(6) 0.21187(6) 0.33775(6)
H33_2 H 0.0733 0.2268 0.3571
C78_2 C 0.08298(6) 0.18120(6) 0.32661(6)
C79_2 C 0.11580(6) 0.16345(6) 0.34033(6)
C80_2 C 0.12934(6) 0.13290(6) 0.32325(6)
H34_2 H 0.1177 0.1238 0.3024
N52_2 N 0.18337(5) 0.03744(5) 0.28293(5)
N53_2 N 0.20733(5) 0.03717(5) 0.31010(5)
N54_2 N 0.20182(5) 0.06456(5) 0.33209(5)
C81_2 C 0.16225(6) 0.06602(6) 0.28813(6)
H35_2 H 0.1429 0.0733 0.2732
C82_2 C 0.17339(6) 0.08298(6) 0.31880(6)
C83_2 C 0.15967(6) 0.11580(6) 0.33655(6)
C84_2 C 0.17675(6) 0.12934(6) 0.36710(6)
H36_2 H 0.1976 0.1177 0.3762
N55_2 N 0.31663(5) 0.28293(5) 0.03744(5)
N56_2 N 0.29267(5) 0.31010(5) 0.03717(5)
N57_2 N 0.29818(5) 0.33209(5) 0.06456(5)
C85_2 C 0.33775(6) 0.28813(6) 0.06602(6)
H37_2 H 0.3571 0.2732 0.0733
C86_2 C 0.32661(6) 0.31880(6) 0.08298(6)
C87_2 C 0.34033(6) 0.33655(6) 0.11580(6)
C88_2 C 0.32325(6) 0.36710(6) 0.12934(6)
H38_2 H 0.3024 0.3762 0.1177
N58_2 N 0.28293(5) 0.46256(5) 0.18337(5)
N59_2 N 0.31010(5) 0.46283(5) 0.20733(5)
N60_2 N 0.33209(5) 0.43544(5) 0.20182(5)
C89_2 C 0.28813(6) 0.43398(6) 0.16225(6)
H39_2 H 0.2732 0.4267 0.1429
C90_2 C 0.31880(6) 0.41702(6) 0.17339(6)
C91_2 C 0.33655(6) 0.38420(6) 0.15967(6)
C92_2 C 0.36710(6) 0.37066(6) 0.17675(6)
H40_2 H 0.3762 0.3823 0.1976
N61_2 N 0.46256(5) 0.31663(5) 0.21707(5)
N62_2 N 0.46283(5) 0.29267(5) 0.18990(5)
N63_2 N 0.43544(5) 0.29818(5) 0.16791(5)
C93_2 C 0.43398(6) 0.33775(6) 0.21187(6)
H41_2 H 0.4267 0.3571 0.2268
C94_2 C 0.41702(6) 0.32661(6) 0.18120(6)
C95_2 C 0.38420(6) 0.34033(6) 0.16345(6)
C96_2 C 0.37066(6) 0.32325(6) 0.13290(6)
H42_2 H 0.3823 0.3024 0.1238
N64_2 N 0.18337(5) 0.21707(5) 0.03744(5)
N65_2 N 0.20733(5) 0.18990(5) 0.03717(5)
N66_2 N 0.20182(5) 0.16791(5) 0.06456(5)
C97_2 C 0.16225(6) 0.21187(6) 0.06602(6)
H43_2 H 0.1429 0.2268 0.0733
C98_2 C 0.17339(6) 0.18120(6) 0.08298(6)
C99_2 C 0.15967(6) 0.16345(6) 0.11580(6)
C100_2 C 0.17675(6) 0.13290(6) 0.12934(6)
H44_2 H 0.1976 0.1238 0.1177
N67_2 N 0.21707(5) 0.03744(5) 0.18337(5)
N68_2 N 0.18990(5) 0.03717(5) 0.20733(5)
N69_2 N 0.16791(5) 0.06456(5) 0.20182(5)
C101_2 C 0.21187(6) 0.06602(6) 0.16225(6)
H45_2 H 0.2268 0.0733 0.1429
C102_2 C 0.18120(6) 0.08298(6) 0.17339(6)
C103_2 C 0.16345(6) 0.11580(6) 0.15967(6)
C104_2 C 0.13290(6) 0.12934(6) 0.17675(6)
H46_2 H 0.1238 0.1177 0.1976
N70_2 N 0.03744(5) 0.18337(5) 0.21707(5)
N71_2 N 0.03717(5) 0.20733(5) 0.18990(5)
N72_2 N 0.06456(5) 0.20182(5) 0.16791(5)
C105_2 C 0.06602(6) 0.16225(6) 0.21187(6)
H47_2 H 0.0733 0.1429 0.2268
C106_2 C 0.08298(6) 0.17339(6) 0.18120(6)
C107_2 C 0.11580(6) 0.15967(6) 0.16345(6)
C108_2 C 0.12934(6) 0.17675(6) 0.13290(6)
H48_2 H 0.1177 0.1976 0.1238
Fe13_3 Fe 0.24486(2) 0.18398(2) 0.0000
Fe14_3 Fe 0.18398(2) 0.0000 0.24486(2)
Fe15_3 Fe -0.0000 0.24486(2) 0.18398(2)
Fe16_3 Fe 0.31602(2) 0.24486(2) 0.0000
Fe17_3 Fe 0.0000 0.25514(2) 0.31602(2)
Fe18_3 Fe 0.18398(2) 0.25514(2) 0.0000
Fe19_3 Fe 0.31602(2) 0.0000 0.25514(2)
Fe20_3 Fe 0.0000 0.18398(2) 0.25514(2)
Fe21_3 Fe 0.24486(2) 0.0000 0.31602(2)
Fe22_3 Fe 0.25514(2) 0.31602(2) 0.0000
Fe23_2 Fe 0.31602(2) 0.5000 0.24486(2)
Fe24_2 Fe 0.5000 0.25514(2) 0.18398(2)
Cl4_3 Cl 0.2500 0.0000 0.2500
Cl5_3 Cl 0.0000 0.2500 0.2500
N73_2 N 0.28293(5) 0.31663(5) 0.53744(5)
N74_2 N 0.53744(5) 0.28293(5) 0.31663(5)
N76_2 N 0.18337(5) 0.28293(5) 0.53744(5)
N77_2 N 0.21707(5) 0.53744(5) 0.31663(5)
N79_2 N 0.18337(5) 0.53744(5) 0.21707(5)
N80_2 N 0.31663(5) 0.21707(5) 0.53744(5)
N81_2 N 0.53744(5) 0.18337(5) 0.28293(5)
N82_2 N 0.21707(5) 0.18337(5) 0.53744(5)
N83_2 N 0.28293(5) 0.53744(5) 0.18337(5)
N84_2 N 0.53744(5) 0.31663(5) 0.21707(5)
N85_2 N 0.31010(5) 0.29267(5) 0.53717(5)
N86_2 N 0.53717(5) 0.31010(5) 0.29267(5)
N87_2 N 0.29267(5) 0.53717(5) 0.31010(5)
N88_2 N 0.53717(5) 0.18990(5) 0.20733(5)
N90_2 N 0.20733(5) 0.31010(5) 0.53717(5)
N91_2 N 0.18990(5) 0.53717(5) 0.29267(5)
N93_2 N 0.20733(5) 0.53717(5) 0.18990(5)
N94_2 N 0.29267(5) 0.18990(5) 0.53717(5)
N95_2 N 0.53717(5) 0.20733(5) 0.31010(5)
N96_2 N 0.18990(5) 0.20733(5) 0.53717(5)
Fe13_4 Fe 0.24486(2) 0.18398(2) 1.0000
Fe16_4 Fe 0.31602(2) 0.24486(2) 1.0000
Fe18_4 Fe 0.18398(2) 0.25514(2) 1.0000
Fe22_4 Fe 0.25514(2) 0.31602(2) 1.0000
Fe5_4 Fe 0.25514(2) 1.0000 0.18398(2)
O5_4 O 0.26226(9) 1.0000 0.10770(9)
C29_4 C 0.25967(10) 1.0000 0.13651(13)
Fe14_4 Fe 0.18398(2) 1.0000 0.24486(2)
Fe19_4 Fe 0.31602(2) 1.0000 0.25514(2)
Fe21_4 Fe 0.24486(2) 1.0000 0.31602(2)
Cl4_4 Cl 0.2500 1.0000 0.2500
N75_2 N 0.21707(5) 0.96256(5) 0.18337(5)
N89_2 N 0.29267(5) 0.96283(5) 0.18990(5)
Fe8_4 Fe 1.0000 0.31602(2) 0.24486(2)
O8_4 O 1.0000 0.39230(9) 0.23774(9)
C56_4 C 1.0000 0.36349(13) 0.24033(10)
Fe15_4 Fe 1.0000 0.24486(2) 0.18398(2)
Fe17_4 Fe 1.0000 0.25514(2) 0.31602(2)
Fe20_4 Fe 1.0000 0.18398(2) 0.25514(2)
Cl5_4 Cl 1.0000 0.2500 0.2500
N78_2 N 0.96256(5) 0.31663(5) 0.28293(5)
N92_2 N 0.96283(5) 0.31010(5) 0.20733(5)
Fe5_5 Fe 0.25514(2) 0.0000 0.81602(2)
O5_5 O 0.26226(9) 0.0000 0.89230(9)
C29_5 C 0.25967(10) 0.0000 0.86349(13)
Fe14_5 Fe 0.18398(2) -0.0000 0.75514(2)
Fe19_5 Fe 0.31602(2) 0.0000 0.74486(2)
Fe21_5 Fe 0.24486(2) 0.0000 0.68398(2)
Cl4_5 Cl 0.2500 0.0000 0.7500
N75_3 N 0.21707(5) 0.03744(5) 0.81663(5)
N89_3 N 0.29267(5) 0.03717(5) 0.81010(5)
Fe13_5 Fe 0.24486(2) 0.81602(2) 0.0000
Fe16_5 Fe 0.31602(2) 0.75514(2) 0.0000
Fe18_5 Fe 0.18398(2) 0.74486(2) 0.0000
Fe22_5 Fe 0.25514(2) 0.68398(2) 0.0000
Fe1_3 Fe 0.31602(2) 0.74486(2) 0.5000
Cl1_3 Cl 0.2500 0.7500 0.5000
O1_3 O 0.39230(9) 0.73774(9) 0.5000
N1_3 N 0.28293(5) 0.68337(5) 0.53744(5)
N2_3 N 0.31010(5) 0.70733(5) 0.53717(5)
N3_3 N 0.33209(5) 0.70182(5) 0.56456(5)
C1_3 C 0.28813(6) 0.66225(6) 0.56602(6)
H1_3 H 0.2732 0.6429 0.5733
C2_3 C 0.31880(6) 0.67339(6) 0.58298(6)
C3_3 C 0.33655(6) 0.65967(6) 0.61580(6)
C4_3 C 0.36710(6) 0.67675(6) 0.62934(6)
H2_3 H 0.3762 0.6976 0.6177
C5_3 C 0.36349(13) 0.74033(10) 0.5000
N4_3 N 0.46256(5) 0.71707(5) 0.68337(5)
N5_3 N 0.46283(5) 0.68990(5) 0.70733(5)
N6_3 N 0.43544(5) 0.66791(5) 0.70182(5)
C6_3 C 0.43398(6) 0.71187(6) 0.66225(6)
H3_3 H 0.4267 0.7268 0.6429
C7_3 C 0.41702(6) 0.68120(6) 0.67339(6)
C8_3 C 0.38420(6) 0.66345(6) 0.65967(6)
C9_3 C 0.37066(6) 0.63290(6) 0.67675(6)
H4_3 H 0.3823 0.6238 0.6976
N7_3 N 0.31663(5) 0.53744(5) 0.71707(5)
N8_3 N 0.29267(5) 0.53717(5) 0.68990(5)
N9_3 N 0.29818(5) 0.56456(5) 0.66791(5)
C10_3 C 0.33775(6) 0.56602(6) 0.71187(6)
H5_3 H 0.3571 0.5733 0.7268
C11_3 C 0.32661(6) 0.58298(6) 0.68120(6)
C12_3 C 0.34033(6) 0.61580(6) 0.66345(6)
C13_3 C 0.32325(6) 0.62934(6) 0.63290(6)
H6_3 H 0.3024 0.6177 0.6238
Fe2_3 Fe 0.5000 0.68398(2) 0.74486(2)
Cl2_3 Cl 0.5000 0.7500 0.7500
O2_3 O 0.5000 0.60770(9) 0.73774(9)
C14_3 C 0.5000 0.63651(13) 0.74033(10)
Fe3_3 Fe 0.25514(2) 0.5000 0.68398(2)
Cl3_3 Cl 0.2500 0.5000 0.7500
O3_3 O 0.26226(9) 0.5000 0.60770(9)
C15_3 C 0.25967(10) 0.5000 0.63651(13)
Fe4_3 Fe 0.5000 0.81602(2) 0.75514(2)
O4_3 O 0.5000 0.89230(9) 0.76226(9)
N10_3 N 0.46256(5) 0.78293(5) 0.81663(5)
N11_3 N 0.46283(5) 0.81010(5) 0.79267(5)
N12_3 N 0.43544(5) 0.83209(5) 0.79818(5)
C16_3 C 0.43398(6) 0.78813(6) 0.83775(6)
H7_3 H 0.4267 0.7732 0.8571
C17_3 C 0.41702(6) 0.81880(6) 0.82661(6)
C18_3 C 0.38420(6) 0.83655(6) 0.84033(6)
C19_3 C 0.37066(6) 0.86710(6) 0.82325(6)
H8_3 H 0.3823 0.8762 0.8024
C20_3 C 0.5000 0.86349(13) 0.75967(10)
N13_3 N 0.31663(5) 0.96256(5) 0.78293(5)
N14_3 N 0.29267(5) 0.96283(5) 0.81010(5)
N15_3 N 0.29818(5) 0.93544(5) 0.83209(5)
C21_3 C 0.33775(6) 0.93398(6) 0.78813(6)
H9_3 H 0.3571 0.9267 0.7732
C22_3 C 0.32661(6) 0.91702(6) 0.81880(6)
C23_3 C 0.34033(6) 0.88420(6) 0.83655(6)
C24_3 C 0.32325(6) 0.87066(6) 0.86710(6)
H10_3 H 0.3024 0.8823 0.8762
N16_3 N 0.28293(5) 0.81663(5) 0.96256(5)
N17_3 N 0.31010(5) 0.79267(5) 0.96283(5)
N18_3 N 0.33209(5) 0.79818(5) 0.93544(5)
C25_3 C 0.28813(6) 0.83775(6) 0.93398(6)
H11_3 H 0.2732 0.8571 0.9267
C26_3 C 0.31880(6) 0.82661(6) 0.91702(6)
C27_3 C 0.33655(6) 0.84033(6) 0.88420(6)
C28_3 C 0.36710(6) 0.82325(6) 0.87066(6)
H12_3 H 0.3762 0.8024 0.8823
Fe5_6 Fe 0.25514(2) 1.0000 0.81602(2)
O5_6 O 0.26226(9) 1.0000 0.89230(9)
C29_6 C 0.25967(10) 1.0000 0.86349(13)
Fe6_3 Fe 0.24486(2) 0.68398(2) 0.5000
O6_3 O 0.23774(9) 0.60770(9) 0.5000
N19_3 N 0.18337(5) 0.71707(5) 0.53744(5)
N20_3 N 0.20733(5) 0.68990(5) 0.53717(5)
N21_3 N 0.20182(5) 0.66791(5) 0.56456(5)
C30_3 C 0.16225(6) 0.71187(6) 0.56602(6)
H13_3 H 0.1429 0.7268 0.5733
C31_3 C 0.17339(6) 0.68120(6) 0.58298(6)
C32_3 C 0.15967(6) 0.66345(6) 0.61580(6)
C33_3 C 0.17675(6) 0.63290(6) 0.62934(6)
H14_3 H 0.1976 0.6238 0.6177
C34_3 C 0.24033(10) 0.63651(13) 0.5000
N22_3 N 0.21707(5) 0.53744(5) 0.68337(5)
N23_3 N 0.18990(5) 0.53717(5) 0.70733(5)
N24_3 N 0.16791(5) 0.56456(5) 0.70182(5)
C35_3 C 0.21187(6) 0.56602(6) 0.66225(6)
H15_3 H 0.2268 0.5733 0.6429
C36_3 C 0.18120(6) 0.58298(6) 0.67339(6)
C37_3 C 0.16345(6) 0.61580(6) 0.65967(6)
C38_3 C 0.13290(6) 0.62934(6) 0.67675(6)
H16_3 H 0.1238 0.6177 0.6976
N25_3 N 0.03744(5) 0.68337(5) 0.71707(5)
N26_3 N 0.03717(5) 0.70733(5) 0.68990(5)
N27_3 N 0.06456(5) 0.70182(5) 0.66791(5)
C39_3 C 0.06602(6) 0.66225(6) 0.71187(6)
H17_3 H 0.0733 0.6429 0.7268
C40_3 C 0.08298(6) 0.67339(6) 0.68120(6)
C41_3 C 0.11580(6) 0.65967(6) 0.66345(6)
C42_3 C 0.12934(6) 0.67675(6) 0.63290(6)
H18_3 H 0.1177 0.6976 0.6238
Fe7_3 Fe 0.18398(2) 0.5000 0.74486(2)
O7_3 O 0.10770(9) 0.5000 0.73774(9)
C43_3 C 0.13651(13) 0.5000 0.74033(10)
N28_3 N 0.21707(5) 0.68337(5) 0.96256(5)
N29_3 N 0.18990(5) 0.70733(5) 0.96283(5)
N30_3 N 0.16791(5) 0.70182(5) 0.93544(5)
C44_3 C 0.21187(6) 0.66225(6) 0.93398(6)
H19_3 H 0.2268 0.6429 0.9267
C45_3 C 0.18120(6) 0.67339(6) 0.91702(6)
C46_3 C 0.16345(6) 0.65967(6) 0.88420(6)
C47_3 C 0.13290(6) 0.67675(6) 0.87066(6)
H20_3 H 0.1238 0.6976 0.8823
N31_3 N 0.03744(5) 0.71707(5) 0.81663(5)
N32_3 N 0.03717(5) 0.68990(5) 0.79267(5)
N33_3 N 0.06456(5) 0.66791(5) 0.79818(5)
C48_3 C 0.06602(6) 0.71187(6) 0.83775(6)
H21_3 H 0.0733 0.7268 0.8571
C49_3 C 0.08298(6) 0.68120(6) 0.82661(6)
C50_3 C 0.11580(6) 0.66345(6) 0.84033(6)
C51_3 C 0.12934(6) 0.63290(6) 0.82325(6)
H22_3 H 0.1177 0.6238 0.8024
N34_3 N 0.18337(5) 0.53744(5) 0.78293(5)
N35_3 N 0.20733(5) 0.53717(5) 0.81010(5)
N36_3 N 0.20182(5) 0.56456(5) 0.83209(5)
C52_3 C 0.16225(6) 0.56602(6) 0.78813(6)
H23_3 H 0.1429 0.5733 0.7732
C53_3 C 0.17339(6) 0.58298(6) 0.81880(6)
C54_3 C 0.15967(6) 0.61580(6) 0.83655(6)
C55_3 C 0.17675(6) 0.62934(6) 0.86710(6)
H24_3 H 0.1976 0.6177 0.8762
Fe8_5 Fe 0.0000 0.68398(2) 0.75514(2)
O8_5 O 0.0000 0.60770(9) 0.76226(9)
C56_5 C -0.0000 0.63651(13) 0.75967(10)
Fe9_3 Fe 0.24486(2) 0.5000 0.81602(2)
O9_3 O 0.23774(9) 0.5000 0.89230(9)
C57_3 C 0.24033(10) 0.5000 0.86349(13)
Fe10_3 Fe 0.25514(2) 0.81602(2) 0.5000
O10_3 O 0.26226(9) 0.89230(9) 0.5000
N37_3 N 0.31663(5) 0.78293(5) 0.53744(5)
N38_3 N 0.29267(5) 0.81010(5) 0.53717(5)
N39_3 N 0.29818(5) 0.83209(5) 0.56456(5)
C58_3 C 0.33775(6) 0.78813(6) 0.56602(6)
H25_3 H 0.3571 0.7732 0.5733
C59_3 C 0.32661(6) 0.81880(6) 0.58298(6)
C60_3 C 0.34033(6) 0.83655(6) 0.61580(6)
C61_3 C 0.32325(6) 0.86710(6) 0.62934(6)
H26_3 H 0.3024 0.8762 0.6177
C62_3 C 0.25967(10) 0.86349(13) 0.5000
N40_3 N 0.28293(5) 0.96256(5) 0.68337(5)
N41_3 N 0.31010(5) 0.96283(5) 0.70733(5)
N42_3 N 0.33209(5) 0.93544(5) 0.70182(5)
C63_3 C 0.28813(6) 0.93398(6) 0.66225(6)
H27_3 H 0.2732 0.9267 0.6429
C64_3 C 0.31880(6) 0.91702(6) 0.67339(6)
C65_3 C 0.33655(6) 0.88420(6) 0.65967(6)
C66_3 C 0.36710(6) 0.87066(6) 0.67675(6)
H28_3 H 0.3762 0.8823 0.6976
N43_3 N 0.46256(5) 0.81663(5) 0.71707(5)
N44_3 N 0.46283(5) 0.79267(5) 0.68990(5)
N45_3 N 0.43544(5) 0.79818(5) 0.66791(5)
C67_3 C 0.43398(6) 0.83775(6) 0.71187(6)
H29_3 H 0.4267 0.8571 0.7268
C68_3 C 0.41702(6) 0.82661(6) 0.68120(6)
C69_3 C 0.38420(6) 0.84033(6) 0.66345(6)
C70_3 C 0.37066(6) 0.82325(6) 0.63290(6)
H30_3 H 0.3823 0.8024 0.6238
Fe11_3 Fe 0.5000 0.75514(2) 0.68398(2)
O11_3 O 0.5000 0.76226(9) 0.60770(9)
C71_3 C 0.5000 0.75967(10) 0.63651(13)
Fe12_3 Fe 0.18398(2) 0.75514(2) 0.5000
O12_3 O 0.10770(9) 0.76226(9) 0.5000
N46_3 N 0.21707(5) 0.81663(5) 0.53744(5)
N47_3 N 0.18990(5) 0.79267(5) 0.53717(5)
N48_3 N 0.16791(5) 0.79818(5) 0.56456(5)
C72_3 C 0.21187(6) 0.83775(6) 0.56602(6)
H31_3 H 0.2268 0.8571 0.5733
C73_3 C 0.18120(6) 0.82661(6) 0.58298(6)
C74_3 C 0.16345(6) 0.84033(6) 0.61580(6)
C75_3 C 0.13290(6) 0.82325(6) 0.62934(6)
H32_3 H 0.1238 0.8024 0.6177
C76_3 C 0.13651(13) 0.75967(10) 0.5000
N49_3 N 0.03744(5) 0.78293(5) 0.68337(5)
N50_3 N 0.03717(5) 0.81010(5) 0.70733(5)
N51_3 N 0.06456(5) 0.83209(5) 0.70182(5)
C77_3 C 0.06602(6) 0.78813(6) 0.66225(6)
H33_3 H 0.0733 0.7732 0.6429
C78_3 C 0.08298(6) 0.81880(6) 0.67339(6)
C79_3 C 0.11580(6) 0.83655(6) 0.65967(6)
C80_3 C 0.12934(6) 0.86710(6) 0.67675(6)
H34_3 H 0.1177 0.8762 0.6976
N52_3 N 0.18337(5) 0.96256(5) 0.71707(5)
N53_3 N 0.20733(5) 0.96283(5) 0.68990(5)
N54_3 N 0.20182(5) 0.93544(5) 0.66791(5)
C81_3 C 0.16225(6) 0.93398(6) 0.71187(6)
H35_3 H 0.1429 0.9267 0.7268
C82_3 C 0.17339(6) 0.91702(6) 0.68120(6)
C83_3 C 0.15967(6) 0.88420(6) 0.66345(6)
C84_3 C 0.17675(6) 0.87066(6) 0.63290(6)
H36_3 H 0.1976 0.8823 0.6238
N55_3 N 0.31663(5) 0.71707(5) 0.96256(5)
N56_3 N 0.29267(5) 0.68990(5) 0.96283(5)
N57_3 N 0.29818(5) 0.66791(5) 0.93544(5)
C85_3 C 0.33775(6) 0.71187(6) 0.93398(6)
H37_3 H 0.3571 0.7268 0.9267
C86_3 C 0.32661(6) 0.68120(6) 0.91702(6)
C87_3 C 0.34033(6) 0.66345(6) 0.88420(6)
C88_3 C 0.32325(6) 0.63290(6) 0.87066(6)
H38_3 H 0.3024 0.6238 0.8823
N58_3 N 0.28293(5) 0.53744(5) 0.81663(5)
N59_3 N 0.31010(5) 0.53717(5) 0.79267(5)
N60_3 N 0.33209(5) 0.56456(5) 0.79818(5)
C89_3 C 0.28813(6) 0.56602(6) 0.83775(6)
H39_3 H 0.2732 0.5733 0.8571
C90_3 C 0.31880(6) 0.58298(6) 0.82661(6)
C91_3 C 0.33655(6) 0.61580(6) 0.84033(6)
C92_3 C 0.36710(6) 0.62934(6) 0.82325(6)
H40_3 H 0.3762 0.6177 0.8024
N61_3 N 0.46256(5) 0.68337(5) 0.78293(5)
N62_3 N 0.46283(5) 0.70733(5) 0.81010(5)
N63_3 N 0.43544(5) 0.70182(5) 0.83209(5)
C93_3 C 0.43398(6) 0.66225(6) 0.78813(6)
H41_3 H 0.4267 0.6429 0.7732
C94_3 C 0.41702(6) 0.67339(6) 0.81880(6)
C95_3 C 0.38420(6) 0.65967(6) 0.83655(6)
C96_3 C 0.37066(6) 0.67675(6) 0.86710(6)
H42_3 H 0.3823 0.6976 0.8762
N64_3 N 0.18337(5) 0.78293(5) 0.96256(5)
N65_3 N 0.20733(5) 0.81010(5) 0.96283(5)
N66_3 N 0.20182(5) 0.83209(5) 0.93544(5)
C97_3 C 0.16225(6) 0.78813(6) 0.93398(6)
H43_3 H 0.1429 0.7732 0.9267
C98_3 C 0.17339(6) 0.81880(6) 0.91702(6)
C99_3 C 0.15967(6) 0.83655(6) 0.88420(6)
C100_3 C 0.17675(6) 0.86710(6) 0.87066(6)
H44_3 H 0.1976 0.8762 0.8823
N67_3 N 0.21707(5) 0.96256(5) 0.81663(5)
N68_3 N 0.18990(5) 0.96283(5) 0.79267(5)
N69_3 N 0.16791(5) 0.93544(5) 0.79818(5)
C101_3 C 0.21187(6) 0.93398(6) 0.83775(6)
H45_3 H 0.2268 0.9267 0.8571
C102_3 C 0.18120(6) 0.91702(6) 0.82661(6)
C103_3 C 0.16345(6) 0.88420(6) 0.84033(6)
C104_3 C 0.13290(6) 0.87066(6) 0.82325(6)
H46_3 H 0.1238 0.8823 0.8024
N70_3 N 0.03744(5) 0.81663(5) 0.78293(5)
N71_3 N 0.03717(5) 0.79267(5) 0.81010(5)
N72_3 N 0.06456(5) 0.79818(5) 0.83209(5)
C105_3 C 0.06602(6) 0.83775(6) 0.78813(6)
H47_3 H 0.0733 0.8571 0.7732
C106_3 C 0.08298(6) 0.82661(6) 0.81880(6)
C107_3 C 0.11580(6) 0.84033(6) 0.83655(6)
C108_3 C 0.12934(6) 0.82325(6) 0.86710(6)
H48_3 H 0.1177 0.8024 0.8762
Fe13_6 Fe 0.24486(2) 0.81602(2) 1.0000
Fe14_6 Fe 0.18398(2) 1.0000 0.75514(2)
Fe15_5 Fe 0.0000 0.75514(2) 0.81602(2)
Fe16_6 Fe 0.31602(2) 0.75514(2) 1.0000
Fe17_5 Fe 0.0000 0.74486(2) 0.68398(2)
Fe18_6 Fe 0.18398(2) 0.74486(2) 1.0000
Fe19_6 Fe 0.31602(2) 1.0000 0.74486(2)
Fe20_5 Fe 0.0000 0.81602(2) 0.74486(2)
Fe21_6 Fe 0.24486(2) 1.0000 0.68398(2)
Fe22_6 Fe 0.25514(2) 0.68398(2) 1.0000
Fe23_3 Fe 0.31602(2) 0.5000 0.75514(2)
Fe24_3 Fe 0.5000 0.74486(2) 0.81602(2)
Cl4_6 Cl 0.2500 1.0000 0.7500
Cl5_5 Cl 0.0000 0.7500 0.7500
N73_3 N 0.28293(5) 0.68337(5) 0.46256(5)
N74_3 N 0.53744(5) 0.71707(5) 0.68337(5)
N76_3 N 0.18337(5) 0.71707(5) 0.46256(5)
N77_3 N 0.21707(5) 0.46256(5) 0.68337(5)
N79_3 N 0.18337(5) 0.46256(5) 0.78293(5)
N80_3 N 0.31663(5) 0.78293(5) 0.46256(5)
N81_3 N 0.53744(5) 0.81663(5) 0.71707(5)
N82_3 N 0.21707(5) 0.81663(5) 0.46256(5)
N83_3 N 0.28293(5) 0.46256(5) 0.81663(5)
N84_3 N 0.53744(5) 0.68337(5) 0.78293(5)
N85_3 N 0.31010(5) 0.70733(5) 0.46283(5)
N86_3 N 0.53717(5) 0.68990(5) 0.70733(5)
N87_3 N 0.29267(5) 0.46283(5) 0.68990(5)
N88_3 N 0.53717(5) 0.81010(5) 0.79267(5)
N90_3 N 0.20733(5) 0.68990(5) 0.46283(5)
N91_3 N 0.18990(5) 0.46283(5) 0.70733(5)
N93_3 N 0.20733(5) 0.46283(5) 0.81010(5)
N94_3 N 0.29267(5) 0.81010(5) 0.46283(5)
N95_3 N 0.53717(5) 0.79267(5) 0.68990(5)
N96_3 N 0.18990(5) 0.79267(5) 0.46283(5)
Fe8_6 Fe 1.0000 0.68398(2) 0.75514(2)
O8_6 O 1.0000 0.60770(9) 0.76226(9)
C56_6 C 1.0000 0.63651(13) 0.75967(10)
Fe15_6 Fe 1.0000 0.75514(2) 0.81602(2)
Fe17_6 Fe 1.0000 0.74486(2) 0.68398(2)
Fe20_6 Fe 1.0000 0.81602(2) 0.74486(2)
Cl5_6 Cl 1.0000 0.7500 0.7500
N78_3 N 0.96256(5) 0.68337(5) 0.71707(5)
N92_3 N 0.96283(5) 0.68990(5) 0.79267(5)
Fe8_7 Fe -0.0000 0.31602(2) 0.75514(2)
O8_7 O -0.0000 0.39230(9) 0.76226(9)
C56_7 C 0.0000 0.36349(13) 0.75967(10)
Fe15_7 Fe 0.0000 0.24486(2) 0.81602(2)
Fe17_7 Fe 0.0000 0.25514(2) 0.68398(2)
Fe20_7 Fe 0.0000 0.18398(2) 0.74486(2)
Cl5_7 Cl 0.0000 0.2500 0.7500
N78_4 N 0.03744(5) 0.31663(5) 0.71707(5)
N92_4 N 0.03717(5) 0.31010(5) 0.79267(5)
Fe13_7 Fe 0.75514(2) 0.18398(2) 0.0000
Fe16_7 Fe 0.68398(2) 0.24486(2) 0.0000
Fe18_7 Fe 0.81602(2) 0.25514(2) 0.0000
Fe22_7 Fe 0.74486(2) 0.31602(2) 0.0000
Fe1_4 Fe 0.68398(2) 0.25514(2) 0.5000
Cl1_4 Cl 0.7500 0.2500 0.5000
O1_4 O 0.60770(9) 0.26226(9) 0.5000
N1_4 N 0.71707(5) 0.31663(5) 0.53744(5)
N2_4 N 0.68990(5) 0.29267(5) 0.53717(5)
N3_4 N 0.66791(5) 0.29818(5) 0.56456(5)
C1_4 C 0.71187(6) 0.33775(6) 0.56602(6)
H1_4 H 0.7268 0.3571 0.5733
C2_4 C 0.68120(6) 0.32661(6) 0.58298(6)
C3_4 C 0.66345(6) 0.34033(6) 0.61580(6)
C4_4 C 0.63290(6) 0.32325(6) 0.62934(6)
H2_4 H 0.6238 0.3024 0.6177
C5_4 C 0.63651(13) 0.25967(10) 0.5000
N4_4 N 0.53744(5) 0.28293(5) 0.68337(5)
N5_4 N 0.53717(5) 0.31010(5) 0.70733(5)
N6_4 N 0.56456(5) 0.33209(5) 0.70182(5)
C6_4 C 0.56602(6) 0.28813(6) 0.66225(6)
H3_4 H 0.5733 0.2732 0.6429
C7_4 C 0.58298(6) 0.31880(6) 0.67339(6)
C8_4 C 0.61580(6) 0.33655(6) 0.65967(6)
C9_4 C 0.62934(6) 0.36710(6) 0.67675(6)
H4_4 H 0.6177 0.3762 0.6976
N7_4 N 0.68337(5) 0.46256(5) 0.71707(5)
N8_4 N 0.70733(5) 0.46283(5) 0.68990(5)
N9_4 N 0.70182(5) 0.43544(5) 0.66791(5)
C10_4 C 0.66225(6) 0.43398(6) 0.71187(6)
H5_4 H 0.6429 0.4267 0.7268
C11_4 C 0.67339(6) 0.41702(6) 0.68120(6)
C12_4 C 0.65967(6) 0.38420(6) 0.66345(6)
C13_4 C 0.67675(6) 0.37066(6) 0.63290(6)
H6_4 H 0.6976 0.3823 0.6238
Fe2_4 Fe 0.5000 0.31602(2) 0.74486(2)
Cl2_4 Cl 0.5000 0.2500 0.7500
O2_4 O 0.5000 0.39230(9) 0.73774(9)
C14_4 C 0.5000 0.36349(13) 0.74033(10)
Fe3_4 Fe 0.74486(2) 0.5000 0.68398(2)
Cl3_4 Cl 0.7500 0.5000 0.7500
O3_4 O 0.73774(9) 0.5000 0.60770(9)
C15_4 C 0.74033(10) 0.5000 0.63651(13)
Fe4_4 Fe 0.5000 0.18398(2) 0.75514(2)
O4_4 O 0.5000 0.10770(9) 0.76226(9)
N10_4 N 0.53744(5) 0.21707(5) 0.81663(5)
N11_4 N 0.53717(5) 0.18990(5) 0.79267(5)
N12_4 N 0.56456(5) 0.16791(5) 0.79818(5)
C16_4 C 0.56602(6) 0.21187(6) 0.83775(6)
H7_4 H 0.5733 0.2268 0.8571
C17_4 C 0.58298(6) 0.18120(6) 0.82661(6)
C18_4 C 0.61580(6) 0.16345(6) 0.84033(6)
C19_4 C 0.62934(6) 0.13290(6) 0.82325(6)
H8_4 H 0.6177 0.1238 0.8024
C20_4 C 0.5000 0.13651(13) 0.75967(10)
N13_4 N 0.68337(5) 0.03744(5) 0.78293(5)
N14_4 N 0.70733(5) 0.03717(5) 0.81010(5)
N15_4 N 0.70182(5) 0.06456(5) 0.83209(5)
C21_4 C 0.66225(6) 0.06602(6) 0.78813(6)
H9_4 H 0.6429 0.0733 0.7732
C22_4 C 0.67339(6) 0.08298(6) 0.81880(6)
C23_4 C 0.65967(6) 0.11580(6) 0.83655(6)
C24_4 C 0.67675(6) 0.12934(6) 0.86710(6)
H10_4 H 0.6976 0.1177 0.8762
N16_4 N 0.71707(5) 0.18337(5) 0.96256(5)
N17_4 N 0.68990(5) 0.20733(5) 0.96283(5)
N18_4 N 0.66791(5) 0.20182(5) 0.93544(5)
C25_4 C 0.71187(6) 0.16225(6) 0.93398(6)
H11_4 H 0.7268 0.1429 0.9267
C26_4 C 0.68120(6) 0.17339(6) 0.91702(6)
C27_4 C 0.66345(6) 0.15967(6) 0.88420(6)
C28_4 C 0.63290(6) 0.17675(6) 0.87066(6)
H12_4 H 0.6238 0.1976 0.8823
Fe5_7 Fe 0.74486(2) 0.0000 0.81602(2)
O5_7 O 0.73774(9) 0.0000 0.89230(9)
C29_7 C 0.74033(10) 0.0000 0.86349(13)
Fe6_4 Fe 0.75514(2) 0.31602(2) 0.5000
O6_4 O 0.76226(9) 0.39230(9) 0.5000
N19_4 N 0.81663(5) 0.28293(5) 0.53744(5)
N20_4 N 0.79267(5) 0.31010(5) 0.53717(5)
N21_4 N 0.79818(5) 0.33209(5) 0.56456(5)
C30_4 C 0.83775(6) 0.28813(6) 0.56602(6)
H13_4 H 0.8571 0.2732 0.5733
C31_4 C 0.82661(6) 0.31880(6) 0.58298(6)
C32_4 C 0.84033(6) 0.33655(6) 0.61580(6)
C33_4 C 0.82325(6) 0.36710(6) 0.62934(6)
H14_4 H 0.8024 0.3762 0.6177
C34_4 C 0.75967(10) 0.36349(13) 0.5000
N22_4 N 0.78293(5) 0.46256(5) 0.68337(5)
N23_4 N 0.81010(5) 0.46283(5) 0.70733(5)
N24_4 N 0.83209(5) 0.43544(5) 0.70182(5)
C35_4 C 0.78813(6) 0.43398(6) 0.66225(6)
H15_4 H 0.7732 0.4267 0.6429
C36_4 C 0.81880(6) 0.41702(6) 0.67339(6)
C37_4 C 0.83655(6) 0.38420(6) 0.65967(6)
C38_4 C 0.86710(6) 0.37066(6) 0.67675(6)
H16_4 H 0.8762 0.3823 0.6976
N25_4 N 0.96256(5) 0.31663(5) 0.71707(5)
N26_4 N 0.96283(5) 0.29267(5) 0.68990(5)
N27_4 N 0.93544(5) 0.29818(5) 0.66791(5)
C39_4 C 0.93398(6) 0.33775(6) 0.71187(6)
H17_4 H 0.9267 0.3571 0.7268
C40_4 C 0.91702(6) 0.32661(6) 0.68120(6)
C41_4 C 0.88420(6) 0.34033(6) 0.66345(6)
C42_4 C 0.87066(6) 0.32325(6) 0.63290(6)
H18_4 H 0.8823 0.3024 0.6238
Fe7_4 Fe 0.81602(2) 0.5000 0.74486(2)
O7_4 O 0.89230(9) 0.5000 0.73774(9)
C43_4 C 0.86349(13) 0.5000 0.74033(10)
N28_4 N 0.78293(5) 0.31663(5) 0.96256(5)
N29_4 N 0.81010(5) 0.29267(5) 0.96283(5)
N30_4 N 0.83209(5) 0.29818(5) 0.93544(5)
C44_4 C 0.78813(6) 0.33775(6) 0.93398(6)
H19_4 H 0.7732 0.3571 0.9267
C45_4 C 0.81880(6) 0.32661(6) 0.91702(6)
C46_4 C 0.83655(6) 0.34033(6) 0.88420(6)
C47_4 C 0.86710(6) 0.32325(6) 0.87066(6)
H20_4 H 0.8762 0.3024 0.8823
N31_4 N 0.96256(5) 0.28293(5) 0.81663(5)
N32_4 N 0.96283(5) 0.31010(5) 0.79267(5)
N33_4 N 0.93544(5) 0.33209(5) 0.79818(5)
C48_4 C 0.93398(6) 0.28813(6) 0.83775(6)
H21_4 H 0.9267 0.2732 0.8571
C49_4 C 0.91702(6) 0.31880(6) 0.82661(6)
C50_4 C 0.88420(6) 0.33655(6) 0.84033(6)
C51_4 C 0.87066(6) 0.36710(6) 0.82325(6)
H22_4 H 0.8823 0.3762 0.8024
N34_4 N 0.81663(5) 0.46256(5) 0.78293(5)
N35_4 N 0.79267(5) 0.46283(5) 0.81010(5)
N36_4 N 0.79818(5) 0.43544(5) 0.83209(5)
C52_4 C 0.83775(6) 0.43398(6) 0.78813(6)
H23_4 H 0.8571 0.4267 0.7732
C53_4 C 0.82661(6) 0.41702(6) 0.81880(6)
C54_4 C 0.84033(6) 0.38420(6) 0.83655(6)
C55_4 C 0.82325(6) 0.37066(6) 0.86710(6)
H24_4 H 0.8024 0.3823 0.8762
Fe8_8 Fe 1.0000 0.31602(2) 0.75514(2)
O8_8 O 1.0000 0.39230(9) 0.76226(9)
C56_8 C 1.0000 0.36349(13) 0.75967(10)
Fe9_4 Fe 0.75514(2) 0.5000 0.81602(2)
O9_4 O 0.76226(9) 0.5000 0.89230(9)
C57_4 C 0.75967(10) 0.5000 0.86349(13)
Fe10_4 Fe 0.74486(2) 0.18398(2) 0.5000
O10_4 O 0.73774(9) 0.10770(9) 0.5000
N37_4 N 0.68337(5) 0.21707(5) 0.53744(5)
N38_4 N 0.70733(5) 0.18990(5) 0.53717(5)
N39_4 N 0.70182(5) 0.16791(5) 0.56456(5)
C58_4 C 0.66225(6) 0.21187(6) 0.56602(6)
H25_4 H 0.6429 0.2268 0.5733
C59_4 C 0.67339(6) 0.18120(6) 0.58298(6)
C60_4 C 0.65967(6) 0.16345(6) 0.61580(6)
C61_4 C 0.67675(6) 0.13290(6) 0.62934(6)
H26_4 H 0.6976 0.1238 0.6177
C62_4 C 0.74033(10) 0.13651(13) 0.5000
N40_4 N 0.71707(5) 0.03744(5) 0.68337(5)
N41_4 N 0.68990(5) 0.03717(5) 0.70733(5)
N42_4 N 0.66791(5) 0.06456(5) 0.70182(5)
C63_4 C 0.71187(6) 0.06602(6) 0.66225(6)
H27_4 H 0.7268 0.0733 0.6429
C64_4 C 0.68120(6) 0.08298(6) 0.67339(6)
C65_4 C 0.66345(6) 0.11580(6) 0.65967(6)
C66_4 C 0.63290(6) 0.12934(6) 0.67675(6)
H28_4 H 0.6238 0.1177 0.6976
N43_4 N 0.53744(5) 0.18337(5) 0.71707(5)
N44_4 N 0.53717(5) 0.20733(5) 0.68990(5)
N45_4 N 0.56456(5) 0.20182(5) 0.66791(5)
C67_4 C 0.56602(6) 0.16225(6) 0.71187(6)
H29_4 H 0.5733 0.1429 0.7268
C68_4 C 0.58298(6) 0.17339(6) 0.68120(6)
C69_4 C 0.61580(6) 0.15967(6) 0.66345(6)
C70_4 C 0.62934(6) 0.17675(6) 0.63290(6)
H30_4 H 0.6177 0.1976 0.6238
Fe11_4 Fe 0.5000 0.24486(2) 0.68398(2)
O11_4 O 0.5000 0.23774(9) 0.60770(9)
C71_4 C 0.5000 0.24033(10) 0.63651(13)
Fe12_4 Fe 0.81602(2) 0.24486(2) 0.5000
O12_4 O 0.89230(9) 0.23774(9) 0.5000
N46_4 N 0.78293(5) 0.18337(5) 0.53744(5)
N47_4 N 0.81010(5) 0.20733(5) 0.53717(5)
N48_4 N 0.83209(5) 0.20182(5) 0.56456(5)
C72_4 C 0.78813(6) 0.16225(6) 0.56602(6)
H31_4 H 0.7732 0.1429 0.5733
C73_4 C 0.81880(6) 0.17339(6) 0.58298(6)
C74_4 C 0.83655(6) 0.15967(6) 0.61580(6)
C75_4 C 0.86710(6) 0.17675(6) 0.62934(6)
H32_4 H 0.8762 0.1976 0.6177
C76_4 C 0.86349(13) 0.24033(10) 0.5000
N49_4 N 0.96256(5) 0.21707(5) 0.68337(5)
N50_4 N 0.96283(5) 0.18990(5) 0.70733(5)
N51_4 N 0.93544(5) 0.16791(5) 0.70182(5)
C77_4 C 0.93398(6) 0.21187(6) 0.66225(6)
H33_4 H 0.9267 0.2268 0.6429
C78_4 C 0.91702(6) 0.18120(6) 0.67339(6)
C79_4 C 0.88420(6) 0.16345(6) 0.65967(6)
C80_4 C 0.87066(6) 0.13290(6) 0.67675(6)
H34_4 H 0.8823 0.1238 0.6976
N52_4 N 0.81663(5) 0.03744(5) 0.71707(5)
N53_4 N 0.79267(5) 0.03717(5) 0.68990(5)
N54_4 N 0.79818(5) 0.06456(5) 0.66791(5)
C81_4 C 0.83775(6) 0.06602(6) 0.71187(6)
H35_4 H 0.8571 0.0733 0.7268
C82_4 C 0.82661(6) 0.08298(6) 0.68120(6)
C83_4 C 0.84033(6) 0.11580(6) 0.66345(6)
C84_4 C 0.82325(6) 0.12934(6) 0.63290(6)
H36_4 H 0.8024 0.1177 0.6238
N55_4 N 0.68337(5) 0.28293(5) 0.96256(5)
N56_4 N 0.70733(5) 0.31010(5) 0.96283(5)
N57_4 N 0.70182(5) 0.33209(5) 0.93544(5)
C85_4 C 0.66225(6) 0.28813(6) 0.93398(6)
H37_4 H 0.6429 0.2732 0.9267
C86_4 C 0.67339(6) 0.31880(6) 0.91702(6)
C87_4 C 0.65967(6) 0.33655(6) 0.88420(6)
C88_4 C 0.67675(6) 0.36710(6) 0.87066(6)
H38_4 H 0.6976 0.3762 0.8823
N58_4 N 0.71707(5) 0.46256(5) 0.81663(5)
N59_4 N 0.68990(5) 0.46283(5) 0.79267(5)
N60_4 N 0.66791(5) 0.43544(5) 0.79818(5)
C89_4 C 0.71187(6) 0.43398(6) 0.83775(6)
H39_4 H 0.7268 0.4267 0.8571
C90_4 C 0.68120(6) 0.41702(6) 0.82661(6)
C91_4 C 0.66345(6) 0.38420(6) 0.84033(6)
C92_4 C 0.63290(6) 0.37066(6) 0.82325(6)
H40_4 H 0.6238 0.3823 0.8024
N61_4 N 0.53744(5) 0.31663(5) 0.78293(5)
N62_4 N 0.53717(5) 0.29267(5) 0.81010(5)
N63_4 N 0.56456(5) 0.29818(5) 0.83209(5)
C93_4 C 0.56602(6) 0.33775(6) 0.78813(6)
H41_4 H 0.5733 0.3571 0.7732
C94_4 C 0.58298(6) 0.32661(6) 0.81880(6)
C95_4 C 0.61580(6) 0.34033(6) 0.83655(6)
C96_4 C 0.62934(6) 0.32325(6) 0.86710(6)
H42_4 H 0.6177 0.3024 0.8762
N64_4 N 0.81663(5) 0.21707(5) 0.96256(5)
N65_4 N 0.79267(5) 0.18990(5) 0.96283(5)
N66_4 N 0.79818(5) 0.16791(5) 0.93544(5)
C97_4 C 0.83775(6) 0.21187(6) 0.93398(6)
H43_4 H 0.8571 0.2268 0.9267
C98_4 C 0.82661(6) 0.18120(6) 0.91702(6)
C99_4 C 0.84033(6) 0.16345(6) 0.88420(6)
C100_4 C 0.82325(6) 0.13290(6) 0.87066(6)
H44_4 H 0.8024 0.1238 0.8823
N67_4 N 0.78293(5) 0.03744(5) 0.81663(5)
N68_4 N 0.81010(5) 0.03717(5) 0.79267(5)
N69_4 N 0.83209(5) 0.06456(5) 0.79818(5)
C101_4 C 0.78813(6) 0.06602(6) 0.83775(6)
H45_4 H 0.7732 0.0733 0.8571
C102_4 C 0.81880(6) 0.08298(6) 0.82661(6)
C103_4 C 0.83655(6) 0.11580(6) 0.84033(6)
C104_4 C 0.86710(6) 0.12934(6) 0.82325(6)
H46_4 H 0.8762 0.1177 0.8024
N70_4 N 0.96256(5) 0.18337(5) 0.78293(5)
N71_4 N 0.96283(5) 0.20733(5) 0.81010(5)
N72_4 N 0.93544(5) 0.20182(5) 0.83209(5)
C105_4 C 0.93398(6) 0.16225(6) 0.78813(6)
H47_4 H 0.9267 0.1429 0.7732
C106_4 C 0.91702(6) 0.17339(6) 0.81880(6)
C107_4 C 0.88420(6) 0.15967(6) 0.83655(6)
C108_4 C 0.87066(6) 0.17675(6) 0.86710(6)
H48_4 H 0.8823 0.1976 0.8762
Fe13_8 Fe 0.75514(2) 0.18398(2) 1.0000
Fe14_7 Fe 0.81602(2) -0.0000 0.75514(2)
Fe15_8 Fe 1.0000 0.24486(2) 0.81602(2)
Fe16_8 Fe 0.68398(2) 0.24486(2) 1.0000
Fe17_8 Fe 1.0000 0.25514(2) 0.68398(2)
Fe18_8 Fe 0.81602(2) 0.25514(2) 1.0000
Fe19_7 Fe 0.68398(2) 0.0000 0.74486(2)
Fe20_8 Fe 1.0000 0.18398(2) 0.74486(2)
Fe21_7 Fe 0.75514(2) 0.0000 0.68398(2)
Fe22_8 Fe 0.74486(2) 0.31602(2) 1.0000
Fe23_4 Fe 0.68398(2) 0.5000 0.75514(2)
Fe24_4 Fe 0.5000 0.25514(2) 0.81602(2)
Cl4_7 Cl 0.7500 0.0000 0.7500
Cl5_8 Cl 1.0000 0.2500 0.7500
N73_4 N 0.71707(5) 0.31663(5) 0.46256(5)
N74_4 N 0.46256(5) 0.28293(5) 0.68337(5)
N76_4 N 0.81663(5) 0.28293(5) 0.46256(5)
N77_4 N 0.78293(5) 0.53744(5) 0.68337(5)
N79_4 N 0.81663(5) 0.53744(5) 0.78293(5)
N80_4 N 0.68337(5) 0.21707(5) 0.46256(5)
N81_4 N 0.46256(5) 0.18337(5) 0.71707(5)
N82_4 N 0.78293(5) 0.18337(5) 0.46256(5)
N83_4 N 0.71707(5) 0.53744(5) 0.81663(5)
N84_4 N 0.46256(5) 0.31663(5) 0.78293(5)
N85_4 N 0.68990(5) 0.29267(5) 0.46283(5)
N86_4 N 0.46283(5) 0.31010(5) 0.70733(5)
N87_4 N 0.70733(5) 0.53717(5) 0.68990(5)
N88_4 N 0.46283(5) 0.18990(5) 0.79267(5)
N90_4 N 0.79267(5) 0.31010(5) 0.46283(5)
N91_4 N 0.81010(5) 0.53717(5) 0.70733(5)
N93_4 N 0.79267(5) 0.53717(5) 0.81010(5)
N94_4 N 0.70733(5) 0.18990(5) 0.46283(5)
N95_4 N 0.46283(5) 0.20733(5) 0.68990(5)
N96_4 N 0.81010(5) 0.20733(5) 0.46283(5)
Fe5_8 Fe 0.74486(2) 1.0000 0.81602(2)
O5_8 O 0.73774(9) 1.0000 0.89230(9)
C29_8 C 0.74033(10) 1.0000 0.86349(13)
Fe14_8 Fe 0.81602(2) 1.0000 0.75514(2)
Fe19_8 Fe 0.68398(2) 1.0000 0.74486(2)
Fe21_8 Fe 0.75514(2) 1.0000 0.68398(2)
Cl4_8 Cl 0.7500 1.0000 0.7500
N75_4 N 0.78293(5) 0.96256(5) 0.81663(5)
N89_4 N 0.70733(5) 0.96283(5) 0.81010(5)
O8_9 O 0.23774(9) 0.0000 0.60770(9)
C56_9 C 0.24033(10) 0.0000 0.63651(13)
N78_5 N 0.28293(5) 0.03744(5) 0.68337(5)
N92_5 N 0.20733(5) 0.03717(5) 0.68990(5)
O5_9 O 0.10770(9) 0.73774(9) 0.0000
C29_9 C 0.13651(13) 0.74033(10) 0.0000
Cl4_9 Cl 0.2500 0.7500 0.0000
N75_5 N 0.18337(5) 0.78293(5) 0.03744(5)
N89_5 N 0.18990(5) 0.70733(5) 0.03717(5)
O5_10 O 0.10770(9) 0.73774(9) 1.0000
C29_10 C 0.13651(13) 0.74033(10) 1.0000
O8_10 O 0.23774(9) 1.0000 0.60770(9)
C56_10 C 0.24033(10) 1.0000 0.63651(13)
O10_5 O 0.5000 0.73774(9) 0.89230(9)
C62_5 C 0.5000 0.74033(10) 0.86349(13)
O11_5 O 0.39230(9) 0.5000 0.76226(9)
C71_5 C 0.36349(13) 0.5000 0.75967(10)
Cl4_10 Cl 0.2500 0.7500 1.0000
N74_5 N 0.31663(5) 0.46256(5) 0.71707(5)
N82_5 N 0.53744(5) 0.78293(5) 0.81663(5)
N94_5 N 0.53717(5) 0.70733(5) 0.81010(5)
N95_5 N 0.31010(5) 0.46283(5) 0.79267(5)
O5_11 O 0.10770(9) 0.26226(9) 0.0000
C29_11 C 0.13651(13) 0.25967(10) 0.0000
O8_11 O 0.23774(9) 0.0000 0.39230(9)
C56_11 C 0.24033(10) 0.0000 0.36349(13)
O10_6 O 0.5000 0.26226(9) 0.10770(9)
C62_6 C 0.5000 0.25967(10) 0.13651(13)
O11_6 O 0.39230(9) 0.5000 0.23774(9)
C71_6 C 0.36349(13) 0.5000 0.24033(10)
Cl4_11 Cl 0.2500 0.2500 0.0000
N74_6 N 0.31663(5) 0.53744(5) 0.28293(5)
N82_6 N 0.53744(5) 0.21707(5) 0.18337(5)
N94_6 N 0.53717(5) 0.29267(5) 0.18990(5)
N95_6 N 0.31010(5) 0.53717(5) 0.20733(5)
O5_12 O 0.10770(9) 0.26226(9) 1.0000
C29_12 C 0.13651(13) 0.25967(10) 1.0000
Cl4_12 Cl 0.2500 0.2500 1.0000
N75_6 N 0.18337(5) 0.21707(5) 0.96256(5)
N89_6 N 0.18990(5) 0.29267(5) 0.96283(5)
O8_12 O 0.23774(9) 1.0000 0.39230(9)
C56_12 C 0.24033(10) 1.0000 0.36349(13)
N78_6 N 0.28293(5) 0.96256(5) 0.31663(5)
N92_6 N 0.20733(5) 0.96283(5) 0.31010(5)
O5_13 O 0.89230(9) 0.26226(9) 0.0000
C29_13 C 0.86349(13) 0.25967(10) 0.0000
Cl4_13 Cl 0.7500 0.2500 0.0000
N75_7 N 0.81663(5) 0.21707(5) 0.03744(5)
N89_7 N 0.81010(5) 0.29267(5) 0.03717(5)
O5_14 O 0.89230(9) 0.26226(9) 1.0000
C29_14 C 0.86349(13) 0.25967(10) 1.0000
O8_13 O 0.76226(9) 0.0000 0.60770(9)
C56_13 C 0.75967(10) 0.0000 0.63651(13)
O10_7 O 0.5000 0.26226(9) 0.89230(9)
C62_7 C 0.5000 0.25967(10) 0.86349(13)
O11_7 O 0.60770(9) 0.5000 0.76226(9)
C71_7 C 0.63651(13) 0.5000 0.75967(10)
Cl4_14 Cl 0.7500 0.2500 1.0000
N74_7 N 0.68337(5) 0.53744(5) 0.71707(5)
N82_7 N 0.46256(5) 0.21707(5) 0.81663(5)
N94_7 N 0.46283(5) 0.29267(5) 0.81010(5)
N95_7 N 0.68990(5) 0.53717(5) 0.79267(5)
O8_14 O 0.76226(9) 1.0000 0.60770(9)
C56_14 C 0.75967(10) 1.0000 0.63651(13)
N78_7 N 0.71707(5) 0.96256(5) 0.68337(5)
N92_7 N 0.79267(5) 0.96283(5) 0.68990(5)
O8_15 O 0.76226(9) 0.0000 0.39230(9)
C56_15 C 0.75967(10) 0.0000 0.36349(13)
N78_8 N 0.71707(5) 0.03744(5) 0.31663(5)
N92_8 N 0.79267(5) 0.03717(5) 0.31010(5)
O5_15 O 0.89230(9) 0.73774(9) 0.0000
C29_15 C 0.86349(13) 0.74033(10) 0.0000
O8_16 O 0.76226(9) 1.0000 0.39230(9)
C56_16 C 0.75967(10) 1.0000 0.36349(13)
O10_8 O 0.5000 0.73774(9) 0.10770(9)
C62_8 C 0.5000 0.74033(10) 0.13651(13)
O11_8 O 0.60770(9) 0.5000 0.23774(9)
C71_8 C 0.63651(13) 0.5000 0.24033(10)
Cl4_15 Cl 0.7500 0.7500 0.0000
N74_8 N 0.68337(5) 0.46256(5) 0.28293(5)
N82_8 N 0.46256(5) 0.78293(5) 0.18337(5)
N94_8 N 0.46283(5) 0.70733(5) 0.18990(5)
N95_8 N 0.68990(5) 0.46283(5) 0.20733(5)
O5_16 O 0.89230(9) 0.73774(9) 1.0000
C29_16 C 0.86349(13) 0.74033(10) 1.0000
Cl4_16 Cl 0.7500 0.7500 1.0000
N75_8 N 0.81663(5) 0.78293(5) 0.96256(5)
N89_8 N 0.81010(5) 0.70733(5) 0.96283(5)
O5_17 O 0.0000 0.10770(9) 0.73774(9)
C29_17 C -0.0000 0.13651(13) 0.74033(10)
N75_9 N 0.03744(5) 0.18337(5) 0.78293(5)
N89_9 N 0.03717(5) 0.18990(5) 0.70733(5)
O8_17 O 0.60770(9) 0.23774(9) 0.0000
C56_17 C 0.63651(13) 0.24033(10) 0.0000
N78_9 N 0.68337(5) 0.28293(5) 0.03744(5)
N92_9 N 0.68990(5) 0.20733(5) 0.03717(5)
O5_18 O 1.0000 0.10770(9) 0.73774(9)
C29_18 C 1.0000 0.13651(13) 0.74033(10)
O8_18 O 0.60770(9) 0.23774(9) 1.0000
C56_18 C 0.63651(13) 0.24033(10) 1.0000
O5_19 O 0.0000 0.10770(9) 0.26226(9)
C29_19 C 0.0000 0.13651(13) 0.25967(10)
O8_19 O 0.39230(9) 0.23774(9) 0.0000
C56_19 C 0.36349(13) 0.24033(10) 0.0000
O8_20 O 0.39230(9) 0.23774(9) 1.0000
C56_20 C 0.36349(13) 0.24033(10) 1.0000
N78_10 N 0.31663(5) 0.28293(5) 0.96256(5)
N92_10 N 0.31010(5) 0.20733(5) 0.96283(5)
O5_20 O 1.0000 0.10770(9) 0.26226(9)
C29_20 C 1.0000 0.13651(13) 0.25967(10)
N75_10 N 0.96256(5) 0.18337(5) 0.21707(5)
N89_10 N 0.96283(5) 0.18990(5) 0.29267(5)
O5_21 O 0.0000 0.89230(9) 0.26226(9)
C29_21 C 0.0000 0.86349(13) 0.25967(10)
N75_11 N 0.03744(5) 0.81663(5) 0.21707(5)
N89_11 N 0.03717(5) 0.81010(5) 0.29267(5)
O5_22 O 1.0000 0.89230(9) 0.26226(9)
C29_22 C 1.0000 0.86349(13) 0.25967(10)
O8_21 O 0.60770(9) 0.76226(9) 0.0000
C56_21 C 0.63651(13) 0.75967(10) 0.0000
O8_22 O 0.60770(9) 0.76226(9) 1.0000
C56_22 C 0.63651(13) 0.75967(10) 1.0000
N78_11 N 0.68337(5) 0.71707(5) 0.96256(5)
N92_11 N 0.68990(5) 0.79267(5) 0.96283(5)
O8_23 O 0.39230(9) 0.76226(9) 0.0000
C56_23 C 0.36349(13) 0.75967(10) 0.0000
N78_12 N 0.31663(5) 0.71707(5) 0.03744(5)
N92_12 N 0.31010(5) 0.79267(5) 0.03717(5)
O5_23 O 0.0000 0.89230(9) 0.73774(9)
C29_23 C 0.0000 0.86349(13) 0.74033(10)
O8_24 O 0.39230(9) 0.76226(9) 1.0000
C56_24 C 0.36349(13) 0.75967(10) 1.0000
O5_24 O 1.0000 0.89230(9) 0.73774(9)
C29_24 C 1.0000 0.86349(13) 0.74033(10)
N75_12 N 0.96256(5) 0.81663(5) 0.78293(5)
N89_12 N 0.96283(5) 0.81010(5) 0.70733(5)
O1_5 O 0.23774(9) 0.10770(9) 0.0000
C5_5 C 0.24033(10) 0.13651(13) 0.0000
O2_5 O 0.10770(9) -0.0000 0.23774(9)
C14_5 C 0.13651(13) -0.0000 0.24033(10)
O3_5 O 0.0000 0.23774(9) 0.10770(9)
C15_5 C 0.0000 0.24033(10) 0.13651(13)
O4_5 O 0.39230(9) 0.0000 0.26226(9)
C20_5 C 0.36349(13) 0.0000 0.25967(10)
O9_5 O -0.0000 0.26226(9) 0.39230(9)
C57_5 C 0.0000 0.25967(10) 0.36349(13)
O12_5 O 0.26226(9) 0.39230(9) 0.0000
C76_5 C 0.25967(10) 0.36349(13) 0.0000
O1_6 O 0.23774(9) 0.10770(9) 1.0000
C5_6 C 0.24033(10) 0.13651(13) 1.0000
O12_6 O 0.26226(9) 0.39230(9) 1.0000
C76_6 C 0.25967(10) 0.36349(13) 1.0000
N76_5 N 0.21707(5) 0.31663(5) 0.96256(5)
N80_5 N 0.28293(5) 0.18337(5) 0.96256(5)
N85_5 N 0.20733(5) 0.18990(5) 0.96283(5)
N96_5 N 0.29267(5) 0.31010(5) 0.96283(5)
O2_6 O 0.10770(9) 1.0000 0.23774(9)
C14_6 C 0.13651(13) 1.0000 0.24033(10)
O4_6 O 0.39230(9) 1.0000 0.26226(9)
C20_6 C 0.36349(13) 1.0000 0.25967(10)
N81_5 N 0.31663(5) 0.96256(5) 0.21707(5)
N84_5 N 0.18337(5) 0.96256(5) 0.28293(5)
N86_5 N 0.18990(5) 0.96283(5) 0.20733(5)
N88_5 N 0.31010(5) 0.96283(5) 0.29267(5)
O3_6 O 1.0000 0.23774(9) 0.10770(9)
C15_6 C 1.0000 0.24033(10) 0.13651(13)
O9_6 O 1.0000 0.26226(9) 0.39230(9)
C57_6 C 1.0000 0.25967(10) 0.36349(13)
N77_5 N 0.96256(5) 0.28293(5) 0.18337(5)
N83_5 N 0.96256(5) 0.21707(5) 0.31663(5)
N87_5 N 0.96283(5) 0.20733(5) 0.18990(5)
N93_5 N 0.96283(5) 0.29267(5) 0.31010(5)
O3_7 O -0.0000 0.76226(9) 0.10770(9)
C15_7 C 0.0000 0.75967(10) 0.13651(13)
O9_7 O 0.0000 0.73774(9) 0.39230(9)
C57_7 C 0.0000 0.74033(10) 0.36349(13)
N77_6 N 0.03744(5) 0.71707(5) 0.18337(5)
N83_6 N 0.03744(5) 0.78293(5) 0.31663(5)
N87_6 N 0.03717(5) 0.79267(5) 0.18990(5)
N93_6 N 0.03717(5) 0.70733(5) 0.31010(5)
O2_7 O 0.89230(9) 0.0000 0.23774(9)
C14_7 C 0.86349(13) 0.0000 0.24033(10)
O4_7 O 0.60770(9) -0.0000 0.26226(9)
C20_7 C 0.63651(13) -0.0000 0.25967(10)
N81_6 N 0.68337(5) 0.03744(5) 0.21707(5)
N84_6 N 0.81663(5) 0.03744(5) 0.28293(5)
N86_6 N 0.81010(5) 0.03717(5) 0.20733(5)
N88_6 N 0.68990(5) 0.03717(5) 0.29267(5)
O1_7 O 0.76226(9) 0.89230(9) 0.0000
C5_7 C 0.75967(10) 0.86349(13) 0.0000
O2_8 O 0.89230(9) 1.0000 0.23774(9)
C14_8 C 0.86349(13) 1.0000 0.24033(10)
O3_8 O 1.0000 0.76226(9) 0.10770(9)
C15_8 C 1.0000 0.75967(10) 0.13651(13)
O4_8 O 0.60770(9) 1.0000 0.26226(9)
C20_8 C 0.63651(13) 1.0000 0.25967(10)
O9_8 O 1.0000 0.73774(9) 0.39230(9)
C57_8 C 1.0000 0.74033(10) 0.36349(13)
O12_7 O 0.73774(9) 0.60770(9) 0.0000
C76_7 C 0.74033(10) 0.63651(13) 0.0000
O1_8 O 0.76226(9) 0.89230(9) 1.0000
C5_8 C 0.75967(10) 0.86349(13) 1.0000
O12_8 O 0.73774(9) 0.60770(9) 1.0000
C76_8 C 0.74033(10) 0.63651(13) 1.0000
N76_6 N 0.78293(5) 0.68337(5) 0.96256(5)
N80_6 N 0.71707(5) 0.81663(5) 0.96256(5)
N85_6 N 0.79267(5) 0.81010(5) 0.96283(5)
N96_6 N 0.70733(5) 0.68990(5) 0.96283(5)
O2_9 O 0.10770(9) 0.0000 0.76226(9)
C14_9 C 0.13651(13) 0.0000 0.75967(10)
O4_9 O 0.39230(9) -0.0000 0.73774(9)
C20_9 C 0.36349(13) -0.0000 0.74033(10)
N81_7 N 0.31663(5) 0.03744(5) 0.78293(5)
N84_7 N 0.18337(5) 0.03744(5) 0.71707(5)
N86_7 N 0.18990(5) 0.03717(5) 0.79267(5)
N88_7 N 0.31010(5) 0.03717(5) 0.70733(5)
O1_9 O 0.23774(9) 0.89230(9) 0.0000
C5_9 C 0.24033(10) 0.86349(13) 0.0000
O12_9 O 0.26226(9) 0.60770(9) 0.0000
C76_9 C 0.25967(10) 0.63651(13) 0.0000
N76_7 N 0.21707(5) 0.68337(5) 0.03744(5)
N80_7 N 0.28293(5) 0.81663(5) 0.03744(5)
N85_7 N 0.20733(5) 0.81010(5) 0.03717(5)
N96_7 N 0.29267(5) 0.68990(5) 0.03717(5)
O1_10 O 0.23774(9) 0.89230(9) 1.0000
C5_10 C 0.24033(10) 0.86349(13) 1.0000
O2_10 O 0.10770(9) 1.0000 0.76226(9)
C14_10 C 0.13651(13) 1.0000 0.75967(10)
O3_9 O -0.0000 0.76226(9) 0.89230(9)
C15_9 C -0.0000 0.75967(10) 0.86349(13)
O4_10 O 0.39230(9) 1.0000 0.73774(9)
C20_10 C 0.36349(13) 1.0000 0.74033(10)
O9_9 O 0.0000 0.73774(9) 0.60770(9)
C57_9 C 0.0000 0.74033(10) 0.63651(13)
O12_10 O 0.26226(9) 0.60770(9) 1.0000
C76_10 C 0.25967(10) 0.63651(13) 1.0000
O3_10 O 1.0000 0.76226(9) 0.89230(9)
C15_10 C 1.0000 0.75967(10) 0.86349(13)
O9_10 O 1.0000 0.73774(9) 0.60770(9)
C57_10 C 1.0000 0.74033(10) 0.63651(13)
N77_7 N 0.96256(5) 0.71707(5) 0.81663(5)
N83_7 N 0.96256(5) 0.78293(5) 0.68337(5)
N87_7 N 0.96283(5) 0.79267(5) 0.81010(5)
N93_7 N 0.96283(5) 0.70733(5) 0.68990(5)
O3_11 O 0.0000 0.23774(9) 0.89230(9)
C15_11 C -0.0000 0.24033(10) 0.86349(13)
O9_11 O -0.0000 0.26226(9) 0.60770(9)
C57_11 C -0.0000 0.25967(10) 0.63651(13)
N77_8 N 0.03744(5) 0.28293(5) 0.81663(5)
N83_8 N 0.03744(5) 0.21707(5) 0.68337(5)
N87_8 N 0.03717(5) 0.20733(5) 0.81010(5)
N93_8 N 0.03717(5) 0.29267(5) 0.68990(5)
O1_11 O 0.76226(9) 0.10770(9) 0.0000
C5_11 C 0.75967(10) 0.13651(13) 0.0000
O12_11 O 0.73774(9) 0.39230(9) 0.0000
C76_11 C 0.74033(10) 0.36349(13) 0.0000
N76_8 N 0.78293(5) 0.31663(5) 0.03744(5)
N80_8 N 0.71707(5) 0.18337(5) 0.03744(5)
N85_8 N 0.79267(5) 0.18990(5) 0.03717(5)
N96_8 N 0.70733(5) 0.31010(5) 0.03717(5)
O1_12 O 0.76226(9) 0.10770(9) 1.0000
C5_12 C 0.75967(10) 0.13651(13) 1.0000
O2_11 O 0.89230(9) -0.0000 0.76226(9)
C14_11 C 0.86349(13) -0.0000 0.75967(10)
O3_12 O 1.0000 0.23774(9) 0.89230(9)
C15_12 C 1.0000 0.24033(10) 0.86349(13)
O4_11 O 0.60770(9) 0.0000 0.73774(9)
C20_11 C 0.63651(13) 0.0000 0.74033(10)
O9_12 O 1.0000 0.26226(9) 0.60770(9)
C57_12 C 1.0000 0.25967(10) 0.63651(13)
O12_12 O 0.73774(9) 0.39230(9) 1.0000
C76_12 C 0.74033(10) 0.36349(13) 1.0000
O2_12 O 0.89230(9) 1.0000 0.76226(9)
C14_12 C 0.86349(13) 1.0000 0.75967(10)
O4_12 O 0.60770(9) 1.0000 0.73774(9)
C20_12 C 0.63651(13) 1.0000 0.74033(10)
N81_8 N 0.68337(5) 0.96256(5) 0.78293(5)
N84_8 N 0.81663(5) 0.96256(5) 0.71707(5)
N86_8 N 0.81010(5) 0.96283(5) 0.79267(5)
N88_8 N 0.68990(5) 0.96283(5) 0.70733(5)
N3_5 N 0.33209(5) 0.29818(5) 0.56456(5)
C1_5 C 0.28813(6) 0.33775(6) 0.56602(6)
H1_5 H 0.2732 0.3571 0.5733
C2_5 C 0.31880(6) 0.32661(6) 0.58298(6)
C3_5 C 0.33655(6) 0.34033(6) 0.61580(6)
C4_5 C 0.36710(6) 0.32325(6) 0.62934(6)
H2_5 H 0.3762 0.3024 0.6177
N6_5 N 0.43544(5) 0.33209(5) 0.70182(5)
C6_5 C 0.43398(6) 0.28813(6) 0.66225(6)
H3_5 H 0.4267 0.2732 0.6429
C7_5 C 0.41702(6) 0.31880(6) 0.67339(6)
C8_5 C 0.38420(6) 0.33655(6) 0.65967(6)
C9_5 C 0.37066(6) 0.36710(6) 0.67675(6)
H4_5 H 0.3823 0.3762 0.6976
N9_5 N 0.29818(5) 0.43544(5) 0.66791(5)
C10_5 C 0.33775(6) 0.43398(6) 0.71187(6)
H5_5 H 0.3571 0.4267 0.7268
C11_5 C 0.32661(6) 0.41702(6) 0.68120(6)
C12_5 C 0.34033(6) 0.38420(6) 0.66345(6)
C13_5 C 0.32325(6) 0.37066(6) 0.63290(6)
H6_5 H 0.3024 0.3823 0.6238
N12_5 N 0.43544(5) 0.16791(5) 0.79818(5)
C16_5 C 0.43398(6) 0.21187(6) 0.83775(6)
H7_5 H 0.4267 0.2268 0.8571
C17_5 C 0.41702(6) 0.18120(6) 0.82661(6)
C18_5 C 0.38420(6) 0.16345(6) 0.84033(6)
C19_5 C 0.37066(6) 0.13290(6) 0.82325(6)
H8_5 H 0.3823 0.1238 0.8024
N15_5 N 0.29818(5) 0.06456(5) 0.83209(5)
C21_5 C 0.33775(6) 0.06602(6) 0.78813(6)
H9_5 H 0.3571 0.0733 0.7732
C22_5 C 0.32661(6) 0.08298(6) 0.81880(6)
C23_5 C 0.34033(6) 0.11580(6) 0.83655(6)
C24_5 C 0.32325(6) 0.12934(6) 0.86710(6)
H10_5 H 0.3024 0.1177 0.8762
N18_5 N 0.33209(5) 0.20182(5) 0.93544(5)
C25_5 C 0.28813(6) 0.16225(6) 0.93398(6)
H11_5 H 0.2732 0.1429 0.9267
C26_5 C 0.31880(6) 0.17339(6) 0.91702(6)
C27_5 C 0.33655(6) 0.15967(6) 0.88420(6)
C28_5 C 0.36710(6) 0.17675(6) 0.87066(6)
H12_5 H 0.3762 0.1976 0.8823
N21_5 N 0.20182(5) 0.33209(5) 0.56456(5)
C30_5 C 0.16225(6) 0.28813(6) 0.56602(6)
H13_5 H 0.1429 0.2732 0.5733
C31_5 C 0.17339(6) 0.31880(6) 0.58298(6)
C32_5 C 0.15967(6) 0.33655(6) 0.61580(6)
C33_5 C 0.17675(6) 0.36710(6) 0.62934(6)
H14_5 H 0.1976 0.3762 0.6177
N24_5 N 0.16791(5) 0.43544(5) 0.70182(5)
C35_5 C 0.21187(6) 0.43398(6) 0.66225(6)
H15_5 H 0.2268 0.4267 0.6429
C36_5 C 0.18120(6) 0.41702(6) 0.67339(6)
C37_5 C 0.16345(6) 0.38420(6) 0.65967(6)
C38_5 C 0.13290(6) 0.37066(6) 0.67675(6)
H16_5 H 0.1238 0.3823 0.6976
N27_5 N 0.06456(5) 0.29818(5) 0.66791(5)
C39_5 C 0.06602(6) 0.33775(6) 0.71187(6)
H17_5 H 0.0733 0.3571 0.7268
C40_5 C 0.08298(6) 0.32661(6) 0.68120(6)
C41_5 C 0.11580(6) 0.34033(6) 0.66345(6)
C42_5 C 0.12934(6) 0.32325(6) 0.63290(6)
H18_5 H 0.1177 0.3024 0.6238
N30_5 N 0.16791(5) 0.29818(5) 0.93544(5)
C44_5 C 0.21187(6) 0.33775(6) 0.93398(6)
H19_5 H 0.2268 0.3571 0.9267
C45_5 C 0.18120(6) 0.32661(6) 0.91702(6)
C46_5 C 0.16345(6) 0.34033(6) 0.88420(6)
C47_5 C 0.13290(6) 0.32325(6) 0.87066(6)
H20_5 H 0.1238 0.3024 0.8823
N33_5 N 0.06456(5) 0.33209(5) 0.79818(5)
C48_5 C 0.06602(6) 0.28813(6) 0.83775(6)
H21_5 H 0.0733 0.2732 0.8571
C49_5 C 0.08298(6) 0.31880(6) 0.82661(6)
C50_5 C 0.11580(6) 0.33655(6) 0.84033(6)
C51_5 C 0.12934(6) 0.36710(6) 0.82325(6)
H22_5 H 0.1177 0.3762 0.8024
N36_5 N 0.20182(5) 0.43544(5) 0.83209(5)
C52_5 C 0.16225(6) 0.43398(6) 0.78813(6)
H23_5 H 0.1429 0.4267 0.7732
C53_5 C 0.17339(6) 0.41702(6) 0.81880(6)
C54_5 C 0.15967(6) 0.38420(6) 0.83655(6)
C55_5 C 0.17675(6) 0.37066(6) 0.86710(6)
H24_5 H 0.1976 0.3823 0.8762
N39_5 N 0.29818(5) 0.16791(5) 0.56456(5)
C58_5 C 0.33775(6) 0.21187(6) 0.56602(6)
H25_5 H 0.3571 0.2268 0.5733
C59_5 C 0.32661(6) 0.18120(6) 0.58298(6)
C60_5 C 0.34033(6) 0.16345(6) 0.61580(6)
C61_5 C 0.32325(6) 0.13290(6) 0.62934(6)
H26_5 H 0.3024 0.1238 0.6177
N42_5 N 0.33209(5) 0.06456(5) 0.70182(5)
C63_5 C 0.28813(6) 0.06602(6) 0.66225(6)
H27_5 H 0.2732 0.0733 0.6429
C64_5 C 0.31880(6) 0.08298(6) 0.67339(6)
C65_5 C 0.33655(6) 0.11580(6) 0.65967(6)
C66_5 C 0.36710(6) 0.12934(6) 0.67675(6)
H28_5 H 0.3762 0.1177 0.6976
N45_5 N 0.43544(5) 0.20182(5) 0.66791(5)
C67_5 C 0.43398(6) 0.16225(6) 0.71187(6)
H29_5 H 0.4267 0.1429 0.7268
C68_5 C 0.41702(6) 0.17339(6) 0.68120(6)
C69_5 C 0.38420(6) 0.15967(6) 0.66345(6)
C70_5 C 0.37066(6) 0.17675(6) 0.63290(6)
H30_5 H 0.3823 0.1976 0.6238
N48_5 N 0.16791(5) 0.20182(5) 0.56456(5)
C72_5 C 0.21187(6) 0.16225(6) 0.56602(6)
H31_5 H 0.2268 0.1429 0.5733
C73_5 C 0.18120(6) 0.17339(6) 0.58298(6)
C74_5 C 0.16345(6) 0.15967(6) 0.61580(6)
C75_5 C 0.13290(6) 0.17675(6) 0.62934(6)
H32_5 H 0.1238 0.1976 0.6177
N51_5 N 0.06456(5) 0.16791(5) 0.70182(5)
C77_5 C 0.06602(6) 0.21187(6) 0.66225(6)
H33_5 H 0.0733 0.2268 0.6429
C78_5 C 0.08298(6) 0.18120(6) 0.67339(6)
C79_5 C 0.11580(6) 0.16345(6) 0.65967(6)
C80_5 C 0.12934(6) 0.13290(6) 0.67675(6)
H34_5 H 0.1177 0.1238 0.6976
N54_5 N 0.20182(5) 0.06456(5) 0.66791(5)
C81_5 C 0.16225(6) 0.06602(6) 0.71187(6)
H35_5 H 0.1429 0.0733 0.7268
C82_5 C 0.17339(6) 0.08298(6) 0.68120(6)
C83_5 C 0.15967(6) 0.11580(6) 0.66345(6)
C84_5 C 0.17675(6) 0.12934(6) 0.63290(6)
H36_5 H 0.1976 0.1177 0.6238
N57_5 N 0.29818(5) 0.33209(5) 0.93544(5)
C85_5 C 0.33775(6) 0.28813(6) 0.93398(6)
H37_5 H 0.3571 0.2732 0.9267
C86_5 C 0.32661(6) 0.31880(6) 0.91702(6)
C87_5 C 0.34033(6) 0.33655(6) 0.88420(6)
C88_5 C 0.32325(6) 0.36710(6) 0.87066(6)
H38_5 H 0.3024 0.3762 0.8823
N60_5 N 0.33209(5) 0.43544(5) 0.79818(5)
C89_5 C 0.28813(6) 0.43398(6) 0.83775(6)
H39_5 H 0.2732 0.4267 0.8571
C90_5 C 0.31880(6) 0.41702(6) 0.82661(6)
C91_5 C 0.33655(6) 0.38420(6) 0.84033(6)
C92_5 C 0.36710(6) 0.37066(6) 0.82325(6)
H40_5 H 0.3762 0.3823 0.8024
N63_5 N 0.43544(5) 0.29818(5) 0.83209(5)
C93_5 C 0.43398(6) 0.33775(6) 0.78813(6)
H41_5 H 0.4267 0.3571 0.7732
C94_5 C 0.41702(6) 0.32661(6) 0.81880(6)
C95_5 C 0.38420(6) 0.34033(6) 0.83655(6)
C96_5 C 0.37066(6) 0.32325(6) 0.86710(6)
H42_5 H 0.3823 0.3024 0.8762
N66_5 N 0.20182(5) 0.16791(5) 0.93544(5)
C97_5 C 0.16225(6) 0.21187(6) 0.93398(6)
H43_5 H 0.1429 0.2268 0.9267
C98_5 C 0.17339(6) 0.18120(6) 0.91702(6)
C99_5 C 0.15967(6) 0.16345(6) 0.88420(6)
C100_5 C 0.17675(6) 0.13290(6) 0.87066(6)
H44_5 H 0.1976 0.1238 0.8823
N69_5 N 0.16791(5) 0.06456(5) 0.79818(5)
C101_5 C 0.21187(6) 0.06602(6) 0.83775(6)
H45_5 H 0.2268 0.0733 0.8571
C102_5 C 0.18120(6) 0.08298(6) 0.82661(6)
C103_5 C 0.16345(6) 0.11580(6) 0.84033(6)
C104_5 C 0.13290(6) 0.12934(6) 0.82325(6)
H46_5 H 0.1238 0.1177 0.8024
N72_5 N 0.06456(5) 0.20182(5) 0.83209(5)
C105_5 C 0.06602(6) 0.16225(6) 0.78813(6)
H47_5 H 0.0733 0.1429 0.7732
C106_5 C 0.08298(6) 0.17339(6) 0.81880(6)
C107_5 C 0.11580(6) 0.15967(6) 0.83655(6)
C108_5 C 0.12934(6) 0.17675(6) 0.86710(6)
H48_5 H 0.1177 0.1976 0.8762
N3_6 N 0.66791(5) 0.70182(5) 0.56456(5)
C1_6 C 0.71187(6) 0.66225(6) 0.56602(6)
H1_6 H 0.7268 0.6429 0.5733
C2_6 C 0.68120(6) 0.67339(6) 0.58298(6)
C3_6 C 0.66345(6) 0.65967(6) 0.61580(6)
C4_6 C 0.63290(6) 0.67675(6) 0.62934(6)
H2_6 H 0.6238 0.6976 0.6177
N6_6 N 0.56456(5) 0.66791(5) 0.70182(5)
C6_6 C 0.56602(6) 0.71187(6) 0.66225(6)
H3_6 H 0.5733 0.7268 0.6429
C7_6 C 0.58298(6) 0.68120(6) 0.67339(6)
C8_6 C 0.61580(6) 0.66345(6) 0.65967(6)
C9_6 C 0.62934(6) 0.63290(6) 0.67675(6)
H4_6 H 0.6177 0.6238 0.6976
N9_6 N 0.70182(5) 0.56456(5) 0.66791(5)
C10_6 C 0.66225(6) 0.56602(6) 0.71187(6)
H5_6 H 0.6429 0.5733 0.7268
C11_6 C 0.67339(6) 0.58298(6) 0.68120(6)
C12_6 C 0.65967(6) 0.61580(6) 0.66345(6)
C13_6 C 0.67675(6) 0.62934(6) 0.63290(6)
H6_6 H 0.6976 0.6177 0.6238
N12_6 N 0.56456(5) 0.83209(5) 0.79818(5)
C16_6 C 0.56602(6) 0.78813(6) 0.83775(6)
H7_6 H 0.5733 0.7732 0.8571
C17_6 C 0.58298(6) 0.81880(6) 0.82661(6)
C18_6 C 0.61580(6) 0.83655(6) 0.84033(6)
C19_6 C 0.62934(6) 0.86710(6) 0.82325(6)
H8_6 H 0.6177 0.8762 0.8024
N15_6 N 0.70182(5) 0.93544(5) 0.83209(5)
C21_6 C 0.66225(6) 0.93398(6) 0.78813(6)
H9_6 H 0.6429 0.9267 0.7732
C22_6 C 0.67339(6) 0.91702(6) 0.81880(6)
C23_6 C 0.65967(6) 0.88420(6) 0.83655(6)
C24_6 C 0.67675(6) 0.87066(6) 0.86710(6)
H10_6 H 0.6976 0.8823 0.8762
N18_6 N 0.66791(5) 0.79818(5) 0.93544(5)
C25_6 C 0.71187(6) 0.83775(6) 0.93398(6)
H11_6 H 0.7268 0.8571 0.9267
C26_6 C 0.68120(6) 0.82661(6) 0.91702(6)
C27_6 C 0.66345(6) 0.84033(6) 0.88420(6)
C28_6 C 0.63290(6) 0.82325(6) 0.87066(6)
H12_6 H 0.6238 0.8024 0.8823
N21_6 N 0.79818(5) 0.66791(5) 0.56456(5)
C30_6 C 0.83775(6) 0.71187(6) 0.56602(6)
H13_6 H 0.8571 0.7268 0.5733
C31_6 C 0.82661(6) 0.68120(6) 0.58298(6)
C32_6 C 0.84033(6) 0.66345(6) 0.61580(6)
C33_6 C 0.82325(6) 0.63290(6) 0.62934(6)
H14_6 H 0.8024 0.6238 0.6177
N24_6 N 0.83209(5) 0.56456(5) 0.70182(5)
C35_6 C 0.78813(6) 0.56602(6) 0.66225(6)
H15_6 H 0.7732 0.5733 0.6429
C36_6 C 0.81880(6) 0.58298(6) 0.67339(6)
C37_6 C 0.83655(6) 0.61580(6) 0.65967(6)
C38_6 C 0.86710(6) 0.62934(6) 0.67675(6)
H16_6 H 0.8762 0.6177 0.6976
N27_6 N 0.93544(5) 0.70182(5) 0.66791(5)
C39_6 C 0.93398(6) 0.66225(6) 0.71187(6)
H17_6 H 0.9267 0.6429 0.7268
C40_6 C 0.91702(6) 0.67339(6) 0.68120(6)
C41_6 C 0.88420(6) 0.65967(6) 0.66345(6)
C42_6 C 0.87066(6) 0.67675(6) 0.63290(6)
H18_6 H 0.8823 0.6976 0.6238
N30_6 N 0.83209(5) 0.70182(5) 0.93544(5)
C44_6 C 0.78813(6) 0.66225(6) 0.93398(6)
H19_6 H 0.7732 0.6429 0.9267
C45_6 C 0.81880(6) 0.67339(6) 0.91702(6)
C46_6 C 0.83655(6) 0.65967(6) 0.88420(6)
C47_6 C 0.86710(6) 0.67675(6) 0.87066(6)
H20_6 H 0.8762 0.6976 0.8823
N33_6 N 0.93544(5) 0.66791(5) 0.79818(5)
C48_6 C 0.93398(6) 0.71187(6) 0.83775(6)
H21_6 H 0.9267 0.7268 0.8571
C49_6 C 0.91702(6) 0.68120(6) 0.82661(6)
C50_6 C 0.88420(6) 0.66345(6) 0.84033(6)
C51_6 C 0.87066(6) 0.63290(6) 0.82325(6)
H22_6 H 0.8823 0.6238 0.8024
N36_6 N 0.79818(5) 0.56456(5) 0.83209(5)
C52_6 C 0.83775(6) 0.56602(6) 0.78813(6)
H23_6 H 0.8571 0.5733 0.7732
C53_6 C 0.82661(6) 0.58298(6) 0.81880(6)
C54_6 C 0.84033(6) 0.61580(6) 0.83655(6)
C55_6 C 0.82325(6) 0.62934(6) 0.86710(6)
H24_6 H 0.8024 0.6177 0.8762
N39_6 N 0.70182(5) 0.83209(5) 0.56456(5)
C58_6 C 0.66225(6) 0.78813(6) 0.56602(6)
H25_6 H 0.6429 0.7732 0.5733
C59_6 C 0.67339(6) 0.81880(6) 0.58298(6)
C60_6 C 0.65967(6) 0.83655(6) 0.61580(6)
C61_6 C 0.67675(6) 0.86710(6) 0.62934(6)
H26_6 H 0.6976 0.8762 0.6177
N42_6 N 0.66791(5) 0.93544(5) 0.70182(5)
C63_6 C 0.71187(6) 0.93398(6) 0.66225(6)
H27_6 H 0.7268 0.9267 0.6429
C64_6 C 0.68120(6) 0.91702(6) 0.67339(6)
C65_6 C 0.66345(6) 0.88420(6) 0.65967(6)
C66_6 C 0.63290(6) 0.87066(6) 0.67675(6)
H28_6 H 0.6238 0.8823 0.6976
N45_6 N 0.56456(5) 0.79818(5) 0.66791(5)
C67_6 C 0.56602(6) 0.83775(6) 0.71187(6)
H29_6 H 0.5733 0.8571 0.7268
C68_6 C 0.58298(6) 0.82661(6) 0.68120(6)
C69_6 C 0.61580(6) 0.84033(6) 0.66345(6)
C70_6 C 0.62934(6) 0.82325(6) 0.63290(6)
H30_6 H 0.6177 0.8024 0.6238
N48_6 N 0.83209(5) 0.79818(5) 0.56456(5)
C72_6 C 0.78813(6) 0.83775(6) 0.56602(6)
H31_6 H 0.7732 0.8571 0.5733
C73_6 C 0.81880(6) 0.82661(6) 0.58298(6)
C74_6 C 0.83655(6) 0.84033(6) 0.61580(6)
C75_6 C 0.86710(6) 0.82325(6) 0.62934(6)
H32_6 H 0.8762 0.8024 0.6177
N51_6 N 0.93544(5) 0.83209(5) 0.70182(5)
C77_6 C 0.93398(6) 0.78813(6) 0.66225(6)
H33_6 H 0.9267 0.7732 0.6429
C78_6 C 0.91702(6) 0.81880(6) 0.67339(6)
C79_6 C 0.88420(6) 0.83655(6) 0.65967(6)
C80_6 C 0.87066(6) 0.86710(6) 0.67675(6)
H34_6 H 0.8823 0.8762 0.6976
N54_6 N 0.79818(5) 0.93544(5) 0.66791(5)
C81_6 C 0.83775(6) 0.93398(6) 0.71187(6)
H35_6 H 0.8571 0.9267 0.7268
C82_6 C 0.82661(6) 0.91702(6) 0.68120(6)
C83_6 C 0.84033(6) 0.88420(6) 0.66345(6)
C84_6 C 0.82325(6) 0.87066(6) 0.63290(6)
H36_6 H 0.8024 0.8823 0.6238
N57_6 N 0.70182(5) 0.66791(5) 0.93544(5)
C85_6 C 0.66225(6) 0.71187(6) 0.93398(6)
H37_6 H 0.6429 0.7268 0.9267
C86_6 C 0.67339(6) 0.68120(6) 0.91702(6)
C87_6 C 0.65967(6) 0.66345(6) 0.88420(6)
C88_6 C 0.67675(6) 0.63290(6) 0.87066(6)
H38_6 H 0.6976 0.6238 0.8823
N60_6 N 0.66791(5) 0.56456(5) 0.79818(5)
C89_6 C 0.71187(6) 0.56602(6) 0.83775(6)
H39_6 H 0.7268 0.5733 0.8571
C90_6 C 0.68120(6) 0.58298(6) 0.82661(6)
C91_6 C 0.66345(6) 0.61580(6) 0.84033(6)
C92_6 C 0.63290(6) 0.62934(6) 0.82325(6)
H40_6 H 0.6238 0.6177 0.8024
N63_6 N 0.56456(5) 0.70182(5) 0.83209(5)
C93_6 C 0.56602(6) 0.66225(6) 0.78813(6)
H41_6 H 0.5733 0.6429 0.7732
C94_6 C 0.58298(6) 0.67339(6) 0.81880(6)
C95_6 C 0.61580(6) 0.65967(6) 0.83655(6)
C96_6 C 0.62934(6) 0.67675(6) 0.86710(6)
H42_6 H 0.6177 0.6976 0.8762
N66_6 N 0.79818(5) 0.83209(5) 0.93544(5)
C97_6 C 0.83775(6) 0.78813(6) 0.93398(6)
H43_6 H 0.8571 0.7732 0.9267
C98_6 C 0.82661(6) 0.81880(6) 0.91702(6)
C99_6 C 0.84033(6) 0.83655(6) 0.88420(6)
C100_6 C 0.82325(6) 0.86710(6) 0.87066(6)
H44_6 H 0.8024 0.8762 0.8823
N69_6 N 0.83209(5) 0.93544(5) 0.79818(5)
C101_6 C 0.78813(6) 0.93398(6) 0.83775(6)
H45_6 H 0.7732 0.9267 0.8571
C102_6 C 0.81880(6) 0.91702(6) 0.82661(6)
C103_6 C 0.83655(6) 0.88420(6) 0.84033(6)
C104_6 C 0.86710(6) 0.87066(6) 0.82325(6)
H46_6 H 0.8762 0.8823 0.8024
N72_6 N 0.93544(5) 0.79818(5) 0.83209(5)
C105_6 C 0.93398(6) 0.83775(6) 0.78813(6)
H47_6 H 0.9267 0.8571 0.7732
C106_6 C 0.91702(6) 0.82661(6) 0.81880(6)
C107_6 C 0.88420(6) 0.84033(6) 0.83655(6)
C108_6 C 0.87066(6) 0.82325(6) 0.86710(6)
H48_6 H 0.8823 0.8024 0.8762
N3_7 N 0.66791(5) 0.29818(5) 0.43544(5)
C1_7 C 0.71187(6) 0.33775(6) 0.43398(6)
H1_7 H 0.7268 0.3571 0.4267
C2_7 C 0.68120(6) 0.32661(6) 0.41702(6)
C3_7 C 0.66345(6) 0.34033(6) 0.38420(6)
C4_7 C 0.63290(6) 0.32325(6) 0.37066(6)
H2_7 H 0.6238 0.3024 0.3823
N6_7 N 0.56456(5) 0.33209(5) 0.29818(5)
C6_7 C 0.56602(6) 0.28813(6) 0.33775(6)
H3_7 H 0.5733 0.2732 0.3571
C7_7 C 0.58298(6) 0.31880(6) 0.32661(6)
C8_7 C 0.61580(6) 0.33655(6) 0.34033(6)
C9_7 C 0.62934(6) 0.36710(6) 0.32325(6)
H4_7 H 0.6177 0.3762 0.3024
N9_7 N 0.70182(5) 0.43544(5) 0.33209(5)
C10_7 C 0.66225(6) 0.43398(6) 0.28813(6)
H5_7 H 0.6429 0.4267 0.2732
C11_7 C 0.67339(6) 0.41702(6) 0.31880(6)
C12_7 C 0.65967(6) 0.38420(6) 0.33655(6)
C13_7 C 0.67675(6) 0.37066(6) 0.36710(6)
H6_7 H 0.6976 0.3823 0.3762
N12_7 N 0.56456(5) 0.16791(5) 0.20182(5)
C16_7 C 0.56602(6) 0.21187(6) 0.16225(6)
H7_7 H 0.5733 0.2268 0.1429
C17_7 C 0.58298(6) 0.18120(6) 0.17339(6)
C18_7 C 0.61580(6) 0.16345(6) 0.15967(6)
C19_7 C 0.62934(6) 0.13290(6) 0.17675(6)
H8_7 H 0.6177 0.1238 0.1976
N15_7 N 0.70182(5) 0.06456(5) 0.16791(5)
C21_7 C 0.66225(6) 0.06602(6) 0.21187(6)
H9_7 H 0.6429 0.0733 0.2268
C22_7 C 0.67339(6) 0.08298(6) 0.18120(6)
C23_7 C 0.65967(6) 0.11580(6) 0.16345(6)
C24_7 C 0.67675(6) 0.12934(6) 0.13290(6)
H10_7 H 0.6976 0.1177 0.1238
N18_7 N 0.66791(5) 0.20182(5) 0.06456(5)
C25_7 C 0.71187(6) 0.16225(6) 0.06602(6)
H11_7 H 0.7268 0.1429 0.0733
C26_7 C 0.68120(6) 0.17339(6) 0.08298(6)
C27_7 C 0.66345(6) 0.15967(6) 0.11580(6)
C28_7 C 0.63290(6) 0.17675(6) 0.12934(6)
H12_7 H 0.6238 0.1976 0.1177
N21_7 N 0.79818(5) 0.33209(5) 0.43544(5)
C30_7 C 0.83775(6) 0.28813(6) 0.43398(6)
H13_7 H 0.8571 0.2732 0.4267
C31_7 C 0.82661(6) 0.31880(6) 0.41702(6)
C32_7 C 0.84033(6) 0.33655(6) 0.38420(6)
C33_7 C 0.82325(6) 0.36710(6) 0.37066(6)
H14_7 H 0.8024 0.3762 0.3823
N24_7 N 0.83209(5) 0.43544(5) 0.29818(5)
C35_7 C 0.78813(6) 0.43398(6) 0.33775(6)
H15_7 H 0.7732 0.4267 0.3571
C36_7 C 0.81880(6) 0.41702(6) 0.32661(6)
C37_7 C 0.83655(6) 0.38420(6) 0.34033(6)
C38_7 C 0.86710(6) 0.37066(6) 0.32325(6)
H16_7 H 0.8762 0.3823 0.3024
N27_7 N 0.93544(5) 0.29818(5) 0.33209(5)
C39_7 C 0.93398(6) 0.33775(6) 0.28813(6)
H17_7 H 0.9267 0.3571 0.2732
C40_7 C 0.91702(6) 0.32661(6) 0.31880(6)
C41_7 C 0.88420(6) 0.34033(6) 0.33655(6)
C42_7 C 0.87066(6) 0.32325(6) 0.36710(6)
H18_7 H 0.8823 0.3024 0.3762
N30_7 N 0.83209(5) 0.29818(5) 0.06456(5)
C44_7 C 0.78813(6) 0.33775(6) 0.06602(6)
H19_7 H 0.7732 0.3571 0.0733
C45_7 C 0.81880(6) 0.32661(6) 0.08298(6)
C46_7 C 0.83655(6) 0.34033(6) 0.11580(6)
C47_7 C 0.86710(6) 0.32325(6) 0.12934(6)
H20_7 H 0.8762 0.3024 0.1177
N33_7 N 0.93544(5) 0.33209(5) 0.20182(5)
C48_7 C 0.93398(6) 0.28813(6) 0.16225(6)
H21_7 H 0.9267 0.2732 0.1429
C49_7 C 0.91702(6) 0.31880(6) 0.17339(6)
C50_7 C 0.88420(6) 0.33655(6) 0.15967(6)
C51_7 C 0.87066(6) 0.36710(6) 0.17675(6)
H22_7 H 0.8823 0.3762 0.1976
N36_7 N 0.79818(5) 0.43544(5) 0.16791(5)
C52_7 C 0.83775(6) 0.43398(6) 0.21187(6)
H23_7 H 0.8571 0.4267 0.2268
C53_7 C 0.82661(6) 0.41702(6) 0.18120(6)
C54_7 C 0.84033(6) 0.38420(6) 0.16345(6)
C55_7 C 0.82325(6) 0.37066(6) 0.13290(6)
H24_7 H 0.8024 0.3823 0.1238
N39_7 N 0.70182(5) 0.16791(5) 0.43544(5)
C58_7 C 0.66225(6) 0.21187(6) 0.43398(6)
H25_7 H 0.6429 0.2268 0.4267
C59_7 C 0.67339(6) 0.18120(6) 0.41702(6)
C60_7 C 0.65967(6) 0.16345(6) 0.38420(6)
C61_7 C 0.67675(6) 0.13290(6) 0.37066(6)
H26_7 H 0.6976 0.1238 0.3823
N42_7 N 0.66791(5) 0.06456(5) 0.29818(5)
C63_7 C 0.71187(6) 0.06602(6) 0.33775(6)
H27_7 H 0.7268 0.0733 0.3571
C64_7 C 0.68120(6) 0.08298(6) 0.32661(6)
C65_7 C 0.66345(6) 0.11580(6) 0.34033(6)
C66_7 C 0.63290(6) 0.12934(6) 0.32325(6)
H28_7 H 0.6238 0.1177 0.3024
N45_7 N 0.56456(5) 0.20182(5) 0.33209(5)
C67_7 C 0.56602(6) 0.16225(6) 0.28813(6)
H29_7 H 0.5733 0.1429 0.2732
C68_7 C 0.58298(6) 0.17339(6) 0.31880(6)
C69_7 C 0.61580(6) 0.15967(6) 0.33655(6)
C70_7 C 0.62934(6) 0.17675(6) 0.36710(6)
H30_7 H 0.6177 0.1976 0.3762
N48_7 N 0.83209(5) 0.20182(5) 0.43544(5)
C72_7 C 0.78813(6) 0.16225(6) 0.43398(6)
H31_7 H 0.7732 0.1429 0.4267
C73_7 C 0.81880(6) 0.17339(6) 0.41702(6)
C74_7 C 0.83655(6) 0.15967(6) 0.38420(6)
C75_7 C 0.86710(6) 0.17675(6) 0.37066(6)
H32_7 H 0.8762 0.1976 0.3823
N51_7 N 0.93544(5) 0.16791(5) 0.29818(5)
C77_7 C 0.93398(6) 0.21187(6) 0.33775(6)
H33_7 H 0.9267 0.2268 0.3571
C78_7 C 0.91702(6) 0.18120(6) 0.32661(6)
C79_7 C 0.88420(6) 0.16345(6) 0.34033(6)
C80_7 C 0.87066(6) 0.13290(6) 0.32325(6)
H34_7 H 0.8823 0.1238 0.3024
N54_7 N 0.79818(5) 0.06456(5) 0.33209(5)
C81_7 C 0.83775(6) 0.06602(6) 0.28813(6)
H35_7 H 0.8571 0.0733 0.2732
C82_7 C 0.82661(6) 0.08298(6) 0.31880(6)
C83_7 C 0.84033(6) 0.11580(6) 0.33655(6)
C84_7 C 0.82325(6) 0.12934(6) 0.36710(6)
H36_7 H 0.8024 0.1177 0.3762
N57_7 N 0.70182(5) 0.33209(5) 0.06456(5)
C85_7 C 0.66225(6) 0.28813(6) 0.06602(6)
H37_7 H 0.6429 0.2732 0.0733
C86_7 C 0.67339(6) 0.31880(6) 0.08298(6)
C87_7 C 0.65967(6) 0.33655(6) 0.11580(6)
C88_7 C 0.67675(6) 0.36710(6) 0.12934(6)
H38_7 H 0.6976 0.3762 0.1177
N60_7 N 0.66791(5) 0.43544(5) 0.20182(5)
C89_7 C 0.71187(6) 0.43398(6) 0.16225(6)
H39_7 H 0.7268 0.4267 0.1429
C90_7 C 0.68120(6) 0.41702(6) 0.17339(6)
C91_7 C 0.66345(6) 0.38420(6) 0.15967(6)
C92_7 C 0.63290(6) 0.37066(6) 0.17675(6)
H40_7 H 0.6238 0.3823 0.1976
N63_7 N 0.56456(5) 0.29818(5) 0.16791(5)
C93_7 C 0.56602(6) 0.33775(6) 0.21187(6)
H41_7 H 0.5733 0.3571 0.2268
C94_7 C 0.58298(6) 0.32661(6) 0.18120(6)
C95_7 C 0.61580(6) 0.34033(6) 0.16345(6)
C96_7 C 0.62934(6) 0.32325(6) 0.13290(6)
H42_7 H 0.6177 0.3024 0.1238
N66_7 N 0.79818(5) 0.16791(5) 0.06456(5)
C97_7 C 0.83775(6) 0.21187(6) 0.06602(6)
H43_7 H 0.8571 0.2268 0.0733
C98_7 C 0.82661(6) 0.18120(6) 0.08298(6)
C99_7 C 0.84033(6) 0.16345(6) 0.11580(6)
C100_7 C 0.82325(6) 0.13290(6) 0.12934(6)
H44_7 H 0.8024 0.1238 0.1177
N69_7 N 0.83209(5) 0.06456(5) 0.20182(5)
C101_7 C 0.78813(6) 0.06602(6) 0.16225(6)
H45_7 H 0.7732 0.0733 0.1429
C102_7 C 0.81880(6) 0.08298(6) 0.17339(6)
C103_7 C 0.83655(6) 0.11580(6) 0.15967(6)
C104_7 C 0.86710(6) 0.12934(6) 0.17675(6)
H46_7 H 0.8762 0.1177 0.1976
N72_7 N 0.93544(5) 0.20182(5) 0.16791(5)
C105_7 C 0.93398(6) 0.16225(6) 0.21187(6)
H47_7 H 0.9267 0.1429 0.2268
C106_7 C 0.91702(6) 0.17339(6) 0.18120(6)
C107_7 C 0.88420(6) 0.15967(6) 0.16345(6)
C108_7 C 0.87066(6) 0.17675(6) 0.13290(6)
H48_7 H 0.8823 0.1976 0.1238
N3_8 N 0.33209(5) 0.70182(5) 0.43544(5)
C1_8 C 0.28813(6) 0.66225(6) 0.43398(6)
H1_8 H 0.2732 0.6429 0.4267
C2_8 C 0.31880(6) 0.67339(6) 0.41702(6)
C3_8 C 0.33655(6) 0.65967(6) 0.38420(6)
C4_8 C 0.36710(6) 0.67675(6) 0.37066(6)
H2_8 H 0.3762 0.6976 0.3823
N6_8 N 0.43544(5) 0.66791(5) 0.29818(5)
C6_8 C 0.43398(6) 0.71187(6) 0.33775(6)
H3_8 H 0.4267 0.7268 0.3571
C7_8 C 0.41702(6) 0.68120(6) 0.32661(6)
C8_8 C 0.38420(6) 0.66345(6) 0.34033(6)
C9_8 C 0.37066(6) 0.63290(6) 0.32325(6)
H4_8 H 0.3823 0.6238 0.3024
N9_8 N 0.29818(5) 0.56456(5) 0.33209(5)
C10_8 C 0.33775(6) 0.56602(6) 0.28813(6)
H5_8 H 0.3571 0.5733 0.2732
C11_8 C 0.32661(6) 0.58298(6) 0.31880(6)
C12_8 C 0.34033(6) 0.61580(6) 0.33655(6)
C13_8 C 0.32325(6) 0.62934(6) 0.36710(6)
H6_8 H 0.3024 0.6177 0.3762
N12_8 N 0.43544(5) 0.83209(5) 0.20182(5)
C16_8 C 0.43398(6) 0.78813(6) 0.16225(6)
H7_8 H 0.4267 0.7732 0.1429
C17_8 C 0.41702(6) 0.81880(6) 0.17339(6)
C18_8 C 0.38420(6) 0.83655(6) 0.15967(6)
C19_8 C 0.37066(6) 0.86710(6) 0.17675(6)
H8_8 H 0.3823 0.8762 0.1976
N15_8 N 0.29818(5) 0.93544(5) 0.16791(5)
C21_8 C 0.33775(6) 0.93398(6) 0.21187(6)
H9_8 H 0.3571 0.9267 0.2268
C22_8 C 0.32661(6) 0.91702(6) 0.18120(6)
C23_8 C 0.34033(6) 0.88420(6) 0.16345(6)
C24_8 C 0.32325(6) 0.87066(6) 0.13290(6)
H10_8 H 0.3024 0.8823 0.1238
N18_8 N 0.33209(5) 0.79818(5) 0.06456(5)
C25_8 C 0.28813(6) 0.83775(6) 0.06602(6)
H11_8 H 0.2732 0.8571 0.0733
C26_8 C 0.31880(6) 0.82661(6) 0.08298(6)
C27_8 C 0.33655(6) 0.84033(6) 0.11580(6)
C28_8 C 0.36710(6) 0.82325(6) 0.12934(6)
H12_8 H 0.3762 0.8024 0.1177
N21_8 N 0.20182(5) 0.66791(5) 0.43544(5)
C30_8 C 0.16225(6) 0.71187(6) 0.43398(6)
H13_8 H 0.1429 0.7268 0.4267
C31_8 C 0.17339(6) 0.68120(6) 0.41702(6)
C32_8 C 0.15967(6) 0.66345(6) 0.38420(6)
C33_8 C 0.17675(6) 0.63290(6) 0.37066(6)
H14_8 H 0.1976 0.6238 0.3823
N24_8 N 0.16791(5) 0.56456(5) 0.29818(5)
C35_8 C 0.21187(6) 0.56602(6) 0.33775(6)
H15_8 H 0.2268 0.5733 0.3571
C36_8 C 0.18120(6) 0.58298(6) 0.32661(6)
C37_8 C 0.16345(6) 0.61580(6) 0.34033(6)
C38_8 C 0.13290(6) 0.62934(6) 0.32325(6)
H16_8 H 0.1238 0.6177 0.3024
N27_8 N 0.06456(5) 0.70182(5) 0.33209(5)
C39_8 C 0.06602(6) 0.66225(6) 0.28813(6)
H17_8 H 0.0733 0.6429 0.2732
C40_8 C 0.08298(6) 0.67339(6) 0.31880(6)
C41_8 C 0.11580(6) 0.65967(6) 0.33655(6)
C42_8 C 0.12934(6) 0.67675(6) 0.36710(6)
H18_8 H 0.1177 0.6976 0.3762
N30_8 N 0.16791(5) 0.70182(5) 0.06456(5)
C44_8 C 0.21187(6) 0.66225(6) 0.06602(6)
H19_8 H 0.2268 0.6429 0.0733
C45_8 C 0.18120(6) 0.67339(6) 0.08298(6)
C46_8 C 0.16345(6) 0.65967(6) 0.11580(6)
C47_8 C 0.13290(6) 0.67675(6) 0.12934(6)
H20_8 H 0.1238 0.6976 0.1177
N33_8 N 0.06456(5) 0.66791(5) 0.20182(5)
C48_8 C 0.06602(6) 0.71187(6) 0.16225(6)
H21_8 H 0.0733 0.7268 0.1429
C49_8 C 0.08298(6) 0.68120(6) 0.17339(6)
C50_8 C 0.11580(6) 0.66345(6) 0.15967(6)
C51_8 C 0.12934(6) 0.63290(6) 0.17675(6)
H22_8 H 0.1177 0.6238 0.1976
N36_8 N 0.20182(5) 0.56456(5) 0.16791(5)
C52_8 C 0.16225(6) 0.56602(6) 0.21187(6)
H23_8 H 0.1429 0.5733 0.2268
C53_8 C 0.17339(6) 0.58298(6) 0.18120(6)
C54_8 C 0.15967(6) 0.61580(6) 0.16345(6)
C55_8 C 0.17675(6) 0.62934(6) 0.13290(6)
H24_8 H 0.1976 0.6177 0.1238
N39_8 N 0.29818(5) 0.83209(5) 0.43544(5)
C58_8 C 0.33775(6) 0.78813(6) 0.43398(6)
H25_8 H 0.3571 0.7732 0.4267
C59_8 C 0.32661(6) 0.81880(6) 0.41702(6)
C60_8 C 0.34033(6) 0.83655(6) 0.38420(6)
C61_8 C 0.32325(6) 0.86710(6) 0.37066(6)
H26_8 H 0.3024 0.8762 0.3823
N42_8 N 0.33209(5) 0.93544(5) 0.29818(5)
C63_8 C 0.28813(6) 0.93398(6) 0.33775(6)
H27_8 H 0.2732 0.9267 0.3571
C64_8 C 0.31880(6) 0.91702(6) 0.32661(6)
C65_8 C 0.33655(6) 0.88420(6) 0.34033(6)
C66_8 C 0.36710(6) 0.87066(6) 0.32325(6)
H28_8 H 0.3762 0.8823 0.3024
N45_8 N 0.43544(5) 0.79818(5) 0.33209(5)
C67_8 C 0.43398(6) 0.83775(6) 0.28813(6)
H29_8 H 0.4267 0.8571 0.2732
C68_8 C 0.41702(6) 0.82661(6) 0.31880(6)
C69_8 C 0.38420(6) 0.84033(6) 0.33655(6)
C70_8 C 0.37066(6) 0.82325(6) 0.36710(6)
H30_8 H 0.3823 0.8024 0.3762
N48_8 N 0.16791(5) 0.79818(5) 0.43544(5)
C72_8 C 0.21187(6) 0.83775(6) 0.43398(6)
H31_8 H 0.2268 0.8571 0.4267
C73_8 C 0.18120(6) 0.82661(6) 0.41702(6)
C74_8 C 0.16345(6) 0.84033(6) 0.38420(6)
C75_8 C 0.13290(6) 0.82325(6) 0.37066(6)
H32_8 H 0.1238 0.8024 0.3823
N51_8 N 0.06456(5) 0.83209(5) 0.29818(5)
C77_8 C 0.06602(6) 0.78813(6) 0.33775(6)
H33_8 H 0.0733 0.7732 0.3571
C78_8 C 0.08298(6) 0.81880(6) 0.32661(6)
C79_8 C 0.11580(6) 0.83655(6) 0.34033(6)
C80_8 C 0.12934(6) 0.86710(6) 0.32325(6)
H34_8 H 0.1177 0.8762 0.3024
N54_8 N 0.20182(5) 0.93544(5) 0.33209(5)
C81_8 C 0.16225(6) 0.93398(6) 0.28813(6)
H35_8 H 0.1429 0.9267 0.2732
C82_8 C 0.17339(6) 0.91702(6) 0.31880(6)
C83_8 C 0.15967(6) 0.88420(6) 0.33655(6)
C84_8 C 0.17675(6) 0.87066(6) 0.36710(6)
H36_8 H 0.1976 0.8823 0.3762
N57_8 N 0.29818(5) 0.66791(5) 0.06456(5)
C85_8 C 0.33775(6) 0.71187(6) 0.06602(6)
H37_8 H 0.3571 0.7268 0.0733
C86_8 C 0.32661(6) 0.68120(6) 0.08298(6)
C87_8 C 0.34033(6) 0.66345(6) 0.11580(6)
C88_8 C 0.32325(6) 0.63290(6) 0.12934(6)
H38_8 H 0.3024 0.6238 0.1177
N60_8 N 0.33209(5) 0.56456(5) 0.20182(5)
C89_8 C 0.28813(6) 0.56602(6) 0.16225(6)
H39_8 H 0.2732 0.5733 0.1429
C90_8 C 0.31880(6) 0.58298(6) 0.17339(6)
C91_8 C 0.33655(6) 0.61580(6) 0.15967(6)
C92_8 C 0.36710(6) 0.62934(6) 0.17675(6)
H40_8 H 0.3762 0.6177 0.1976
N63_8 N 0.43544(5) 0.70182(5) 0.16791(5)
C93_8 C 0.43398(6) 0.66225(6) 0.21187(6)
H41_8 H 0.4267 0.6429 0.2268
C94_8 C 0.41702(6) 0.67339(6) 0.18120(6)
C95_8 C 0.38420(6) 0.65967(6) 0.16345(6)
C96_8 C 0.37066(6) 0.67675(6) 0.13290(6)
H42_8 H 0.3823 0.6976 0.1238
N66_8 N 0.20182(5) 0.83209(5) 0.06456(5)
C97_8 C 0.16225(6) 0.78813(6) 0.06602(6)
H43_8 H 0.1429 0.7732 0.0733
C98_8 C 0.17339(6) 0.81880(6) 0.08298(6)
C99_8 C 0.15967(6) 0.83655(6) 0.11580(6)
C100_8 C 0.17675(6) 0.86710(6) 0.12934(6)
H44_8 H 0.1976 0.8762 0.1177
N69_8 N 0.16791(5) 0.93544(5) 0.20182(5)
C101_8 C 0.21187(6) 0.93398(6) 0.16225(6)
H45_8 H 0.2268 0.9267 0.1429
C102_8 C 0.18120(6) 0.91702(6) 0.17339(6)
C103_8 C 0.16345(6) 0.88420(6) 0.15967(6)
C104_8 C 0.13290(6) 0.87066(6) 0.17675(6)
H46_8 H 0.1238 0.8823 0.1976
N72_8 N 0.06456(5) 0.79818(5) 0.16791(5)
C105_8 C 0.06602(6) 0.83775(6) 0.21187(6)
H47_8 H 0.0733 0.8571 0.2268
C106_8 C 0.08298(6) 0.82661(6) 0.18120(6)
C107_8 C 0.11580(6) 0.84033(6) 0.16345(6)
C108_8 C 0.12934(6) 0.82325(6) 0.13290(6)
H48_8 H 0.1177 0.8024 0.1238
loop_
_geom_bond_atom_site_label_1
_geom_bond_atom_site_label_2
_geom_bond_site_symmetry_1
_geom_bond_site_symmetry_2
O8 C56 1_555 1_555
C56 Fe8 1_555 1_555
Cl5 Fe8 1_555 1_555
N78 Fe8 1_555 1_555
N92 Fe8 1_555 1_555
Fe15 Cl5 1_555 1_555
Fe17 Cl5 1_555 1_555
Fe20 Cl5 1_555 1_555
O5 C29 1_555 1_555
C29 Fe5 1_555 1_555
Cl4 Fe5 1_555 1_555
N75 Fe5 1_555 1_555
N89 Fe5 1_555 1_555
Fe14 Cl4 1_555 1_555
Fe19 Cl4 1_555 1_555
Fe21 Cl4 1_555 1_555
Fe1 Cl1 1_555 1_555
Cl1 Fe6 1_555 1_555
O1 C5 1_555 1_555
N1 N2 1_555 1_555
N2 Fe1 1_555 1_555
N3 N2 1_555 1_555
C1 N1 1_555 1_555
H1 C1 1_555 1_555
C2 N3 1_555 1_555
C3 C2 1_555 1_555
C4 C3 1_555 1_555
H2 C4 1_555 1_555
C5 Fe1 1_555 1_555
N4 N5 1_555 1_555
N5 N6 1_555 1_555
N6 C7 1_555 1_555
C6 N4 1_555 1_555
H3 C6 1_555 1_555
C7 C6 1_555 1_555
C8 C4 1_555 1_555
C9 C8 1_555 1_555
H4 C9 1_555 1_555
N7 N8 1_555 1_555
N8 N9 1_555 1_555
N9 C11 1_555 1_555
C10 N7 1_555 1_555
H5 C10 1_555 1_555
C11 C10 1_555 1_555
C12 C9 1_555 1_555
C13 C3 1_555 1_555
H6 C13 1_555 1_555
Fe2 N5 1_555 1_555
Cl2 Fe2 1_555 1_555
O2 C14 1_555 1_555
C14 Fe2 1_555 1_555
Fe3 N8 1_555 1_555
Cl3 Fe3 1_555 1_555
O3 C15 1_555 1_555
C15 Fe3 1_555 1_555
Fe4 Cl2 1_555 1_555
O4 C20 1_555 1_555
N10 N11 1_555 1_555
N11 Fe4 1_555 1_555
N12 N11 1_555 1_555
C16 N10 1_555 1_555
H7 C16 1_555 1_555
C17 N12 1_555 1_555
C18 C17 1_555 1_555
C19 C18 1_555 1_555
H8 C19 1_555 1_555
C20 Fe4 1_555 1_555
N13 N14 1_555 1_555
N14 N15 1_555 1_555
N15 C22 1_555 1_555
C21 N13 1_555 1_555
H9 C21 1_555 1_555
C22 C21 1_555 1_555
C23 C19 1_555 1_555
C24 C23 1_555 1_555
H10 C24 1_555 1_555
N16 N17 1_555 1_555
N17 N18 1_555 1_555
N18 C26 1_555 1_555
C25 N16 1_555 1_555
H11 C25 1_555 1_555
C26 C25 1_555 1_555
C27 C24 1_555 1_555
C28 C18 1_555 1_555
H12 C28 1_555 1_555
Fe5_2 N14 1_555 1_555
O5_2 C29_2 1_555 1_555
C29_2 Fe5_2 1_555 1_555
Fe6 N1 1_555 1_555
O6 C34 1_555 1_555
N19 N20 1_555 1_555
N20 Fe6 1_555 1_555
N21 N20 1_555 1_555
C30 N19 1_555 1_555
H13 C30 1_555 1_555
C31 N21 1_555 1_555
C32 C31 1_555 1_555
C33 C32 1_555 1_555
H14 C33 1_555 1_555
C34 Fe6 1_555 1_555
N22 Fe3 1_555 1_555
N23 N22 1_555 1_555
N24 N23 1_555 1_555
C35 N22 1_555 1_555
H15 C35 1_555 1_555
C36 N24 1_555 1_555
C37 C33 1_555 1_555
C38 C37 1_555 1_555
H16 C38 1_555 1_555
N25 N26 1_555 1_555
N26 N27 1_555 1_555
N27 C40 1_555 1_555
C39 N25 1_555 1_555
H17 C39 1_555 1_555
C40 C39 1_555 1_555
C41 C38 1_555 1_555
C42 C32 1_555 1_555
H18 C42 1_555 1_555
Fe7 Cl3 1_555 1_555
O7 C43 1_555 1_555
C43 Fe7 1_555 1_555
N28 N29 1_555 1_555
N29 N30 1_555 1_555
N30 C45 1_555 1_555
C44 N28 1_555 1_555
H19 C44 1_555 1_555
C45 C44 1_555 1_555
C46 C45 1_555 1_555
C47 C46 1_555 1_555
H20 C47 1_555 1_555
N31 N32 1_555 1_555
N32 N33 1_555 1_555
N33 C49 1_555 1_555
C48 N31 1_555 1_555
H21 C48 1_555 1_555
C49 C48 1_555 1_555
C50 C47 1_555 1_555
C51 C50 1_555 1_555
H22 C51 1_555 1_555
N34 Fe7 1_555 1_555
N35 N34 1_555 1_555
N36 N35 1_555 1_555
C52 N34 1_555 1_555
H23 C52 1_555 1_555
C53 N36 1_555 1_555
C54 C51 1_555 1_555
C55 C46 1_555 1_555
H24 C55 1_555 1_555
Fe8_2 N25 1_555 1_555
O8_2 C56_2 1_555 1_555
C56_2 Fe8_2 1_555 1_555
Fe9 Cl3 1_555 1_555
O9 C57 1_555 1_555
C57 Fe9 1_555 1_555
Fe10 Cl1 1_555 1_555
O10 C62 1_555 1_555
N37 Fe1 1_555 1_555
N38 Fe10 1_555 1_555
N39 N38 1_555 1_555
C58 N37 1_555 1_555
H25 C58 1_555 1_555
C59 N39 1_555 1_555
C60 C59 1_555 1_555
C61 C60 1_555 1_555
H26 C61 1_555 1_555
C62 Fe10 1_555 1_555
N40 N41 1_555 1_555
N41 N42 1_555 1_555
N42 C64 1_555 1_555
C63 N40 1_555 1_555
H27 C63 1_555 1_555
C64 C63 1_555 1_555
C65 C61 1_555 1_555
C66 C65 1_555 1_555
H28 C66 1_555 1_555
N43 Fe4 1_555 1_555
N44 N43 1_555 1_555
N45 N44 1_555 1_555
C67 N43 1_555 1_555
H29 C67 1_555 1_555
C68 N45 1_555 1_555
C69 C66 1_555 1_555
C70 C60 1_555 1_555
H30 C70 1_555 1_555
Fe11 N4 1_555 1_555
O11 C71 1_555 1_555
C71 Fe11 1_555 1_555
Fe12 Cl1 1_555 1_555
O12 C76 1_555 1_555
N46 Fe10 1_555 1_555
N47 Fe12 1_555 1_555
N48 N47 1_555 1_555
C72 N46 1_555 1_555
H31 C72 1_555 1_555
C73 N48 1_555 1_555
C74 C73 1_555 1_555
C75 C74 1_555 1_555
H32 C75 1_555 1_555
C76 Fe12 1_555 1_555
N49 N50 1_555 1_555
N50 N51 1_555 1_555
N51 C78 1_555 1_555
C77 N49 1_555 1_555
H33 C77 1_555 1_555
C78 C77 1_555 1_555
C79 C75 1_555 1_555
C80 C79 1_555 1_555
H34 C80 1_555 1_555
N52 N53 1_555 1_555
N53 N54 1_555 1_555
N54 C82 1_555 1_555
C81 N52 1_555 1_555
H35 C81 1_555 1_555
C82 C81 1_555 1_555
C83 C80 1_555 1_555
C84 C74 1_555 1_555
H36 C84 1_555 1_555
N55 N56 1_555 1_555
N56 N57 1_555 1_555
N57 C86 1_555 1_555
C85 N55 1_555 1_555
H37 C85 1_555 1_555
C86 C85 1_555 1_555
C87 C86 1_555 1_555
C88 C87 1_555 1_555
H38 C88 1_555 1_555
N58 Fe9 1_555 1_555
N59 N58 1_555 1_555
N60 N59 1_555 1_555
C89 N58 1_555 1_555
H39 C89 1_555 1_555
C90 N60 1_555 1_555
C91 C88 1_555 1_555
C92 C91 1_555 1_555
H40 C92 1_555 1_555
N61 Fe2 1_555 1_555
N62 N61 1_555 1_555
N63 N62 1_555 1_555
C93 N61 1_555 1_555
H41 C93 1_555 1_555
C94 N63 1_555 1_555
C95 C92 1_555 1_555
C96 C87 1_555 1_555
H42 C96 1_555 1_555
N64 N65 1_555 1_555
N65 N66 1_555 1_555
N66 C98 1_555 1_555
C97 N64 1_555 1_555
H43 C97 1_555 1_555
C98 C97 1_555 1_555
C99 C98 1_555 1_555
C100 C99 1_555 1_555
H44 C100 1_555 1_555
N67 Fe5_2 1_555 1_555
N68 N67 1_555 1_555
N69 N68 1_555 1_555
C101 N67 1_555 1_555
H45 C101 1_555 1_555
C102 N69 1_555 1_555
C103 C100 1_555 1_555
C104 C103 1_555 1_555
H46 C104 1_555 1_555
N70 N71 1_555 1_555
N71 N72 1_555 1_555
N72 C106 1_555 1_555
C105 N70 1_555 1_555
H47 C105 1_555 1_555
C106 C105 1_555 1_555
C107 C104 1_555 1_555
C108 C99 1_555 1_555
H48 C108 1_555 1_555
Fe13 N16 1_555 1_555
Fe14_2 N52 1_555 1_555
Fe15_2 N31 1_555 1_555
Fe16 N17 1_555 1_555
Fe17_2 N26 1_555 1_555
Fe18 N29 1_555 1_555
Fe19_2 N13 1_555 1_555
Fe20_2 N50 1_555 1_555
Fe21_2 N40 1_555 1_555
Fe22 N28 1_555 1_555
Fe23 N7 1_555 1_555
Fe24 Cl2 1_555 1_555
Cl4_2 Fe5_2 1_555 1_555
Cl5_2 Fe8_2 1_555 1_555
N73 Fe6 1_555 1_555
N74 Fe11 1_555 1_555
N76 Fe12 1_555 1_555
N77 Fe3 1_555 1_555
N79 Fe7 1_555 1_555
N80 Fe1 1_555 1_555
N81 Fe4 1_555 1_555
N82 Fe10 1_555 1_555
N83 Fe9 1_555 1_555
N84 Fe2 1_555 1_555
N85 Fe1 1_555 1_555
N86 Fe2 1_555 1_555
N87 Fe3 1_555 1_555
N88 Fe4 1_555 1_555
N90 Fe6 1_555 1_555
N91 Fe7 1_555 1_555
N93 Fe9 1_555 1_555
N94 Fe10 1_555 1_555
N95 Fe11 1_555 1_555
N96 Fe12 1_555 1_555
C1 C2 1_555 1_555
C7 C8 1_555 1_555
C11 C12 1_555 1_555
C12 C13 1_555 1_555
Cl2 Fe11 1_555 1_555
Cl3 Fe23 1_555 1_555
N10 Fe24 1_555 1_555
C16 C17 1_555 1_555
C22 C23 1_555 1_555
C26 C27 1_555 1_555
C27 C28 1_555 1_555
N19 Fe12 1_555 1_555
C30 C31 1_555 1_555
N23 Fe7 1_555 1_555
C35 C36 1_555 1_555
C36 C37 1_555 1_555
C40 C41 1_555 1_555
C41 C42 1_555 1_555
N32 Fe8_2 1_555 1_555
C49 C50 1_555 1_555
N35 Fe9 1_555 1_555
C52 C53 1_555 1_555
C53 C54 1_555 1_555
C54 C55 1_555 1_555
N37 N38 1_555 1_555
C58 C59 1_555 1_555
N41 Fe19_2 1_555 1_555
C64 C65 1_555 1_555
N44 Fe11 1_555 1_555
C67 C68 1_555 1_555
C68 C69 1_555 1_555
C69 C70 1_555 1_555
N46 N47 1_555 1_555
C72 C73 1_555 1_555
N49 Fe17_2 1_555 1_555
C78 C79 1_555 1_555
N53 Fe21_2 1_555 1_555
C82 C83 1_555 1_555
C83 C84 1_555 1_555
N55 Fe16 1_555 1_555
N56 Fe22 1_555 1_555
N59 Fe23 1_555 1_555
C89 C90 1_555 1_555
C90 C91 1_555 1_555
N62 Fe24 1_555 1_555
C93 C94 1_555 1_555
C94 C95 1_555 1_555
C95 C96 1_555 1_555
N64 Fe18 1_555 1_555
N65 Fe13 1_555 1_555
N68 Fe14_2 1_555 1_555
C101 C102 1_555 1_555
C102 C103 1_555 1_555
N70 Fe20_2 1_555 1_555
N71 Fe15_2 1_555 1_555
C106 C107 1_555 1_555
C107 C108 1_555 1_555
Fe14_2 Cl4_2 1_555 1_555
Fe15_2 Cl5_2 1_555 1_555
Fe17_2 Cl5_2 1_555 1_555
Fe19_2 Cl4_2 1_555 1_555
Fe20_2 Cl5_2 1_555 1_555
Fe21_2 Cl4_2 1_555 1_555
N73 N85 1_555 1_555
N74 N86 1_555 1_555
N76 N90 1_555 1_555
N77 N91 1_555 1_555
N79 N93 1_555 1_555
N80 N94 1_555 1_555
N81 N95 1_555 1_555
N82 N96 1_555 1_555
Fe1_2 Cl1_2 1_555 1_555
Cl1_2 Fe6_2 1_555 1_555
O1_2 C5_2 1_555 1_555
N1_2 N2_2 1_555 1_555
N2_2 Fe1_2 1_555 1_555
N3_2 N2_2 1_555 1_555
C1_2 N1_2 1_555 1_555
H1_2 C1_2 1_555 1_555
C2_2 N3_2 1_555 1_555
C3_2 C2_2 1_555 1_555
C4_2 C3_2 1_555 1_555
H2_2 C4_2 1_555 1_555
C5_2 Fe1_2 1_555 1_555
N4_2 N5_2 1_555 1_555
N5_2 N6_2 1_555 1_555
N6_2 C7_2 1_555 1_555
C6_2 N4_2 1_555 1_555
H3_2 C6_2 1_555 1_555
C7_2 C6_2 1_555 1_555
C8_2 C4_2 1_555 1_555
C9_2 C8_2 1_555 1_555
H4_2 C9_2 1_555 1_555
N7_2 N8_2 1_555 1_555
N8_2 N9_2 1_555 1_555
N9_2 C11_2 1_555 1_555
C10_2 N7_2 1_555 1_555
H5_2 C10_2 1_555 1_555
C11_2 C10_2 1_555 1_555
C12_2 C9_2 1_555 1_555
C13_2 C3_2 1_555 1_555
H6_2 C13_2 1_555 1_555
Fe2_2 N5_2 1_555 1_555
Cl2_2 Fe2_2 1_555 1_555
O2_2 C14_2 1_555 1_555
C14_2 Fe2_2 1_555 1_555
Fe3_2 N8_2 1_555 1_555
Cl3_2 Fe3_2 1_555 1_555
O3_2 C15_2 1_555 1_555
C15_2 Fe3_2 1_555 1_555
Fe4_2 Cl2_2 1_555 1_555
O4_2 C20_2 1_555 1_555
N10_2 N11_2 1_555 1_555
N11_2 Fe4_2 1_555 1_555
N12_2 N11_2 1_555 1_555
C16_2 N10_2 1_555 1_555
H7_2 C16_2 1_555 1_555
C17_2 N12_2 1_555 1_555
C18_2 C17_2 1_555 1_555
C19_2 C18_2 1_555 1_555
H8_2 C19_2 1_555 1_555
C20_2 Fe4_2 1_555 1_555
N13_2 N14_2 1_555 1_555
N14_2 N15_2 1_555 1_555
N15_2 C22_2 1_555 1_555
C21_2 N13_2 1_555 1_555
H9_2 C21_2 1_555 1_555
C22_2 C21_2 1_555 1_555
C23_2 C19_2 1_555 1_555
C24_2 C23_2 1_555 1_555
H10_2 C24_2 1_555 1_555
N16_2 N17_2 1_555 1_555
N17_2 N18_2 1_555 1_555
N18_2 C26_2 1_555 1_555
C25_2 N16_2 1_555 1_555
H11_2 C25_2 1_555 1_555
C26_2 C25_2 1_555 1_555
C27_2 C24_2 1_555 1_555
C28_2 C18_2 1_555 1_555
H12_2 C28_2 1_555 1_555
Fe5_3 N14_2 1_555 1_555
O5_3 C29_3 1_555 1_555
C29_3 Fe5_3 1_555 1_555
Fe6_2 N1_2 1_555 1_555
O6_2 C34_2 1_555 1_555
N19_2 N20_2 1_555 1_555
N20_2 Fe6_2 1_555 1_555
N21_2 N20_2 1_555 1_555
C30_2 N19_2 1_555 1_555
H13_2 C30_2 1_555 1_555
C31_2 N21_2 1_555 1_555
C32_2 C31_2 1_555 1_555
C33_2 C32_2 1_555 1_555
H14_2 C33_2 1_555 1_555
C34_2 Fe6_2 1_555 1_555
N22_2 Fe3_2 1_555 1_555
N23_2 N22_2 1_555 1_555
N24_2 N23_2 1_555 1_555
C35_2 N22_2 1_555 1_555
H15_2 C35_2 1_555 1_555
C36_2 N24_2 1_555 1_555
C37_2 C33_2 1_555 1_555
C38_2 C37_2 1_555 1_555
H16_2 C38_2 1_555 1_555
N25_2 N26_2 1_555 1_555
N26_2 N27_2 1_555 1_555
N27_2 C40_2 1_555 1_555
C39_2 N25_2 1_555 1_555
H17_2 C39_2 1_555 1_555
C40_2 C39_2 1_555 1_555
C41_2 C38_2 1_555 1_555
C42_2 C32_2 1_555 1_555
H18_2 C42_2 1_555 1_555
Fe7_2 Cl3_2 1_555 1_555
O7_2 C43_2 1_555 1_555
C43_2 Fe7_2 1_555 1_555
N28_2 N29_2 1_555 1_555
N29_2 N30_2 1_555 1_555
N30_2 C45_2 1_555 1_555
C44_2 N28_2 1_555 1_555
H19_2 C44_2 1_555 1_555
C45_2 C44_2 1_555 1_555
C46_2 C45_2 1_555 1_555
C47_2 C46_2 1_555 1_555
H20_2 C47_2 1_555 1_555
N31_2 N32_2 1_555 1_555
N32_2 N33_2 1_555 1_555
N33_2 C49_2 1_555 1_555
C48_2 N31_2 1_555 1_555
H21_2 C48_2 1_555 1_555
C49_2 C48_2 1_555 1_555
C50_2 C47_2 1_555 1_555
C51_2 C50_2 1_555 1_555
H22_2 C51_2 1_555 1_555
N34_2 Fe7_2 1_555 1_555
N35_2 N34_2 1_555 1_555
N36_2 N35_2 1_555 1_555
C52_2 N34_2 1_555 1_555
H23_2 C52_2 1_555 1_555
C53_2 N36_2 1_555 1_555
C54_2 C51_2 1_555 1_555
C55_2 C46_2 1_555 1_555
H24_2 C55_2 1_555 1_555
Fe8_3 N25_2 1_555 1_555
O8_3 C56_3 1_555 1_555
C56_3 Fe8_3 1_555 1_555
Fe9_2 Cl3_2 1_555 1_555
O9_2 C57_2 1_555 1_555
C57_2 Fe9_2 1_555 1_555
Fe10_2 Cl1_2 1_555 1_555
O10_2 C62_2 1_555 1_555
N37_2 Fe1_2 1_555 1_555
N38_2 Fe10_2 1_555 1_555
N39_2 N38_2 1_555 1_555
C58_2 N37_2 1_555 1_555
H25_2 C58_2 1_555 1_555
C59_2 N39_2 1_555 1_555
C60_2 C59_2 1_555 1_555
C61_2 C60_2 1_555 1_555
H26_2 C61_2 1_555 1_555
C62_2 Fe10_2 1_555 1_555
N40_2 N41_2 1_555 1_555
N41_2 N42_2 1_555 1_555
N42_2 C64_2 1_555 1_555
C63_2 N40_2 1_555 1_555
H27_2 C63_2 1_555 1_555
C64_2 C63_2 1_555 1_555
C65_2 C61_2 1_555 1_555
C66_2 C65_2 1_555 1_555
H28_2 C66_2 1_555 1_555
N43_2 Fe4_2 1_555 1_555
N44_2 N43_2 1_555 1_555
N45_2 N44_2 1_555 1_555
C67_2 N43_2 1_555 1_555
H29_2 C67_2 1_555 1_555
C68_2 N45_2 1_555 1_555
C69_2 C66_2 1_555 1_555
C70_2 C60_2 1_555 1_555
H30_2 C70_2 1_555 1_555
Fe11_2 N4_2 1_555 1_555
O11_2 C71_2 1_555 1_555
C71_2 Fe11_2 1_555 1_555
Fe12_2 Cl1_2 1_555 1_555
O12_2 C76_2 1_555 1_555
N46_2 Fe10_2 1_555 1_555
N47_2 Fe12_2 1_555 1_555
N48_2 N47_2 1_555 1_555
C72_2 N46_2 1_555 1_555
H31_2 C72_2 1_555 1_555
C73_2 N48_2 1_555 1_555
C74_2 C73_2 1_555 1_555
C75_2 C74_2 1_555 1_555
H32_2 C75_2 1_555 1_555
C76_2 Fe12_2 1_555 1_555
N49_2 N50_2 1_555 1_555
N50_2 N51_2 1_555 1_555
N51_2 C78_2 1_555 1_555
C77_2 N49_2 1_555 1_555
H33_2 C77_2 1_555 1_555
C78_2 C77_2 1_555 1_555
C79_2 C75_2 1_555 1_555
C80_2 C79_2 1_555 1_555
H34_2 C80_2 1_555 1_555
N52_2 N53_2 1_555 1_555
N53_2 N54_2 1_555 1_555
N54_2 C82_2 1_555 1_555
C81_2 N52_2 1_555 1_555
H35_2 C81_2 1_555 1_555
C82_2 C81_2 1_555 1_555
C83_2 C80_2 1_555 1_555
C84_2 C74_2 1_555 1_555
H36_2 C84_2 1_555 1_555
N55_2 N56_2 1_555 1_555
N56_2 N57_2 1_555 1_555
N57_2 C86_2 1_555 1_555
C85_2 N55_2 1_555 1_555
H37_2 C85_2 1_555 1_555
C86_2 C85_2 1_555 1_555
C87_2 C86_2 1_555 1_555
C88_2 C87_2 1_555 1_555
H38_2 C88_2 1_555 1_555
N58_2 Fe9_2 1_555 1_555
N59_2 N58_2 1_555 1_555
N60_2 N59_2 1_555 1_555
C89_2 N58_2 1_555 1_555
H39_2 C89_2 1_555 1_555
C90_2 N60_2 1_555 1_555
C91_2 C88_2 1_555 1_555
C92_2 C91_2 1_555 1_555
H40_2 C92_2 1_555 1_555
N61_2 Fe2_2 1_555 1_555
N62_2 N61_2 1_555 1_555
N63_2 N62_2 1_555 1_555
C93_2 N61_2 1_555 1_555
H41_2 C93_2 1_555 1_555
C94_2 N63_2 1_555 1_555
C95_2 C92_2 1_555 1_555
C96_2 C87_2 1_555 1_555
H42_2 C96_2 1_555 1_555
N64_2 N65_2 1_555 1_555
N65_2 N66_2 1_555 1_555
N66_2 C98_2 1_555 1_555
C97_2 N64_2 1_555 1_555
H43_2 C97_2 1_555 1_555
C98_2 C97_2 1_555 1_555
C99_2 C98_2 1_555 1_555
C100_2 C99_2 1_555 1_555
H44_2 C100_2 1_555 1_555
N67_2 Fe5_3 1_555 1_555
N68_2 N67_2 1_555 1_555
N69_2 N68_2 1_555 1_555
C101_2 N67_2 1_555 1_555
H45_2 C101_2 1_555 1_555
C102_2 N69_2 1_555 1_555
C103_2 C100_2 1_555 1_555
C104_2 C103_2 1_555 1_555
H46_2 C104_2 1_555 1_555
N70_2 N71_2 1_555 1_555
N71_2 N72_2 1_555 1_555
N72_2 C106_2 1_555 1_555
C105_2 N70_2 1_555 1_555
H47_2 C105_2 1_555 1_555
C106_2 C105_2 1_555 1_555
C107_2 C104_2 1_555 1_555
C108_2 C99_2 1_555 1_555
H48_2 C108_2 1_555 1_555
Fe13_3 N16_2 1_555 1_555
Fe14_3 N52_2 1_555 1_555
Fe15_3 N31_2 1_555 1_555
Fe16_3 N17_2 1_555 1_555
Fe17_3 N26_2 1_555 1_555
Fe18_3 N29_2 1_555 1_555
Fe19_3 N13_2 1_555 1_555
Fe20_3 N50_2 1_555 1_555
Fe21_3 N40_2 1_555 1_555
Fe22_3 N28_2 1_555 1_555
Fe23_2 N7_2 1_555 1_555
Fe24_2 Cl2_2 1_555 1_555
Cl4_3 Fe5_3 1_555 1_555
Cl5_3 Fe8_3 1_555 1_555
N73_2 Fe6_2 1_555 1_555
N74_2 Fe11_2 1_555 1_555
N76_2 Fe12_2 1_555 1_555
N77_2 Fe3_2 1_555 1_555
N79_2 Fe7_2 1_555 1_555
N80_2 Fe1_2 1_555 1_555
N81_2 Fe4_2 1_555 1_555
N82_2 Fe10_2 1_555 1_555
N83_2 Fe9_2 1_555 1_555
N84_2 Fe2_2 1_555 1_555
N85_2 Fe1_2 1_555 1_555
N86_2 Fe2_2 1_555 1_555
N87_2 Fe3_2 1_555 1_555
N88_2 Fe4_2 1_555 1_555
N90_2 Fe6_2 1_555 1_555
N91_2 Fe7_2 1_555 1_555
N93_2 Fe9_2 1_555 1_555
N94_2 Fe10_2 1_555 1_555
N95_2 Fe11_2 1_555 1_555
N96_2 Fe12_2 1_555 1_555
C1_2 C2_2 1_555 1_555
C7_2 C8_2 1_555 1_555
C11_2 C12_2 1_555 1_555
C12_2 C13_2 1_555 1_555
Cl2_2 Fe11_2 1_555 1_555
Cl3_2 Fe23_2 1_555 1_555
N10_2 Fe24_2 1_555 1_555
C16_2 C17_2 1_555 1_555
C22_2 C23_2 1_555 1_555
C26_2 C27_2 1_555 1_555
C27_2 C28_2 1_555 1_555
N19_2 Fe12_2 1_555 1_555
C30_2 C31_2 1_555 1_555
N23_2 Fe7_2 1_555 1_555
C35_2 C36_2 1_555 1_555
C36_2 C37_2 1_555 1_555
C40_2 C41_2 1_555 1_555
C41_2 C42_2 1_555 1_555
N32_2 Fe8_3 1_555 1_555
C49_2 C50_2 1_555 1_555
N35_2 Fe9_2 1_555 1_555
C52_2 C53_2 1_555 1_555
C53_2 C54_2 1_555 1_555
C54_2 C55_2 1_555 1_555
N37_2 N38_2 1_555 1_555
C58_2 C59_2 1_555 1_555
N41_2 Fe19_3 1_555 1_555
C64_2 C65_2 1_555 1_555
N44_2 Fe11_2 1_555 1_555
C67_2 C68_2 1_555 1_555
C68_2 C69_2 1_555 1_555
C69_2 C70_2 1_555 1_555
N46_2 N47_2 1_555 1_555
C72_2 C73_2 1_555 1_555
N49_2 Fe17_3 1_555 1_555
C78_2 C79_2 1_555 1_555
N53_2 Fe21_3 1_555 1_555
C82_2 C83_2 1_555 1_555
C83_2 C84_2 1_555 1_555
N55_2 Fe16_3 1_555 1_555
N56_2 Fe22_3 1_555 1_555
N59_2 Fe23_2 1_555 1_555
C89_2 C90_2 1_555 1_555
C90_2 C91_2 1_555 1_555
N62_2 Fe24_2 1_555 1_555
C93_2 C94_2 1_555 1_555
C94_2 C95_2 1_555 1_555
C95_2 C96_2 1_555 1_555
N64_2 Fe18_3 1_555 1_555
N65_2 Fe13_3 1_555 1_555
N68_2 Fe14_3 1_555 1_555
C101_2 C102_2 1_555 1_555
C102_2 C103_2 1_555 1_555
N70_2 Fe20_3 1_555 1_555
N71_2 Fe15_3 1_555 1_555
C106_2 C107_2 1_555 1_555
C107_2 C108_2 1_555 1_555
Fe14_3 Cl4_3 1_555 1_555
Fe15_3 Cl5_3 1_555 1_555
Fe17_3 Cl5_3 1_555 1_555
Fe19_3 Cl4_3 1_555 1_555
Fe20_3 Cl5_3 1_555 1_555
Fe21_3 Cl4_3 1_555 1_555
N73_2 N85_2 1_555 1_555
N74_2 N86_2 1_555 1_555
N76_2 N90_2 1_555 1_555
N77_2 N91_2 1_555 1_555
N79_2 N93_2 1_555 1_555
N80_2 N94_2 1_555 1_555
N81_2 N95_2 1_555 1_555
N82_2 N96_2 1_555 1_555
O5_4 C29_4 1_555 1_555
C29_4 Fe5_4 1_555 1_555
Cl4_4 Fe5_4 1_555 1_555
N75_2 Fe5_4 1_555 1_555
N89_2 Fe5_4 1_555 1_555
Fe14_4 Cl4_4 1_555 1_555
Fe19_4 Cl4_4 1_555 1_555
Fe21_4 Cl4_4 1_555 1_555
O8_4 C56_4 1_555 1_555
C56_4 Fe8_4 1_555 1_555
Cl5_4 Fe8_4 1_555 1_555
N78_2 Fe8_4 1_555 1_555
N92_2 Fe8_4 1_555 1_555
Fe15_4 Cl5_4 1_555 1_555
Fe17_4 Cl5_4 1_555 1_555
Fe20_4 Cl5_4 1_555 1_555
O5_5 C29_5 1_555 1_555
C29_5 Fe5_5 1_555 1_555
Cl4_5 Fe5_5 1_555 1_555
N75_3 Fe5_5 1_555 1_555
N89_3 Fe5_5 1_555 1_555
Fe14_5 Cl4_5 1_555 1_555
Fe19_5 Cl4_5 1_555 1_555
Fe21_5 Cl4_5 1_555 1_555
Fe1_3 Cl1_3 1_555 1_555
Cl1_3 Fe6_3 1_555 1_555
O1_3 C5_3 1_555 1_555
N1_3 N2_3 1_555 1_555
N2_3 Fe1_3 1_555 1_555
N3_3 N2_3 1_555 1_555
C1_3 N1_3 1_555 1_555
H1_3 C1_3 1_555 1_555
C2_3 N3_3 1_555 1_555
C3_3 C2_3 1_555 1_555
C4_3 C3_3 1_555 1_555
H2_3 C4_3 1_555 1_555
C5_3 Fe1_3 1_555 1_555
N4_3 N5_3 1_555 1_555
N5_3 N6_3 1_555 1_555
N6_3 C7_3 1_555 1_555
C6_3 N4_3 1_555 1_555
H3_3 C6_3 1_555 1_555
C7_3 C6_3 1_555 1_555
C8_3 C4_3 1_555 1_555
C9_3 C8_3 1_555 1_555
H4_3 C9_3 1_555 1_555
N7_3 N8_3 1_555 1_555
N8_3 N9_3 1_555 1_555
N9_3 C11_3 1_555 1_555
C10_3 N7_3 1_555 1_555
H5_3 C10_3 1_555 1_555
C11_3 C10_3 1_555 1_555
C12_3 C9_3 1_555 1_555
C13_3 C3_3 1_555 1_555
H6_3 C13_3 1_555 1_555
Fe2_3 N5_3 1_555 1_555
Cl2_3 Fe2_3 1_555 1_555
O2_3 C14_3 1_555 1_555
C14_3 Fe2_3 1_555 1_555
Fe3_3 N8_3 1_555 1_555
Cl3_3 Fe3_3 1_555 1_555
O3_3 C15_3 1_555 1_555
C15_3 Fe3_3 1_555 1_555
Fe4_3 Cl2_3 1_555 1_555
O4_3 C20_3 1_555 1_555
N10_3 N11_3 1_555 1_555
N11_3 Fe4_3 1_555 1_555
N12_3 N11_3 1_555 1_555
C16_3 N10_3 1_555 1_555
H7_3 C16_3 1_555 1_555
C17_3 N12_3 1_555 1_555
C18_3 C17_3 1_555 1_555
C19_3 C18_3 1_555 1_555
H8_3 C19_3 1_555 1_555
C20_3 Fe4_3 1_555 1_555
N13_3 N14_3 1_555 1_555
N14_3 N15_3 1_555 1_555
N15_3 C22_3 1_555 1_555
C21_3 N13_3 1_555 1_555
H9_3 C21_3 1_555 1_555
C22_3 C21_3 1_555 1_555
C23_3 C19_3 1_555 1_555
C24_3 C23_3 1_555 1_555
H10_3 C24_3 1_555 1_555
N16_3 N17_3 1_555 1_555
N17_3 N18_3 1_555 1_555
N18_3 C26_3 1_555 1_555
C25_3 N16_3 1_555 1_555
H11_3 C25_3 1_555 1_555
C26_3 C25_3 1_555 1_555
C27_3 C24_3 1_555 1_555
C28_3 C18_3 1_555 1_555
H12_3 C28_3 1_555 1_555
Fe5_6 N14_3 1_555 1_555
O5_6 C29_6 1_555 1_555
C29_6 Fe5_6 1_555 1_555
Fe6_3 N1_3 1_555 1_555
O6_3 C34_3 1_555 1_555
N19_3 N20_3 1_555 1_555
N20_3 Fe6_3 1_555 1_555
N21_3 N20_3 1_555 1_555
C30_3 N19_3 1_555 1_555
H13_3 C30_3 1_555 1_555
C31_3 N21_3 1_555 1_555
C32_3 C31_3 1_555 1_555
C33_3 C32_3 1_555 1_555
H14_3 C33_3 1_555 1_555
C34_3 Fe6_3 1_555 1_555
N22_3 Fe3_3 1_555 1_555
N23_3 N22_3 1_555 1_555
N24_3 N23_3 1_555 1_555
C35_3 N22_3 1_555 1_555
H15_3 C35_3 1_555 1_555
C36_3 N24_3 1_555 1_555
C37_3 C33_3 1_555 1_555
C38_3 C37_3 1_555 1_555
H16_3 C38_3 1_555 1_555
N25_3 N26_3 1_555 1_555
N26_3 N27_3 1_555 1_555
N27_3 C40_3 1_555 1_555
C39_3 N25_3 1_555 1_555
H17_3 C39_3 1_555 1_555
C40_3 C39_3 1_555 1_555
C41_3 C38_3 1_555 1_555
C42_3 C32_3 1_555 1_555
H18_3 C42_3 1_555 1_555
Fe7_3 Cl3_3 1_555 1_555
O7_3 C43_3 1_555 1_555
C43_3 Fe7_3 1_555 1_555
N28_3 N29_3 1_555 1_555
N29_3 N30_3 1_555 1_555
N30_3 C45_3 1_555 1_555
C44_3 N28_3 1_555 1_555
H19_3 C44_3 1_555 1_555
C45_3 C44_3 1_555 1_555
C46_3 C45_3 1_555 1_555
C47_3 C46_3 1_555 1_555
H20_3 C47_3 1_555 1_555
N31_3 N32_3 1_555 1_555
N32_3 N33_3 1_555 1_555
N33_3 C49_3 1_555 1_555
C48_3 N31_3 1_555 1_555
H21_3 C48_3 1_555 1_555
C49_3 C48_3 1_555 1_555
C50_3 C47_3 1_555 1_555
C51_3 C50_3 1_555 1_555
H22_3 C51_3 1_555 1_555
N34_3 Fe7_3 1_555 1_555
N35_3 N34_3 1_555 1_555
N36_3 N35_3 1_555 1_555
C52_3 N34_3 1_555 1_555
H23_3 C52_3 1_555 1_555
C53_3 N36_3 1_555 1_555
C54_3 C51_3 1_555 1_555
C55_3 C46_3 1_555 1_555
H24_3 C55_3 1_555 1_555
Fe8_5 N25_3 1_555 1_555
O8_5 C56_5 1_555 1_555
C56_5 Fe8_5 1_555 1_555
Fe9_3 Cl3_3 1_555 1_555
O9_3 C57_3 1_555 1_555
C57_3 Fe9_3 1_555 1_555
Fe10_3 Cl1_3 1_555 1_555
O10_3 C62_3 1_555 1_555
N37_3 Fe1_3 1_555 1_555
N38_3 Fe10_3 1_555 1_555
N39_3 N38_3 1_555 1_555
C58_3 N37_3 1_555 1_555
H25_3 C58_3 1_555 1_555
C59_3 N39_3 1_555 1_555
C60_3 C59_3 1_555 1_555
C61_3 C60_3 1_555 1_555
H26_3 C61_3 1_555 1_555
C62_3 Fe10_3 1_555 1_555
N40_3 N41_3 1_555 1_555
N41_3 N42_3 1_555 1_555
N42_3 C64_3 1_555 1_555
C63_3 N40_3 1_555 1_555
H27_3 C63_3 1_555 1_555
C64_3 C63_3 1_555 1_555
C65_3 C61_3 1_555 1_555
C66_3 C65_3 1_555 1_555
H28_3 C66_3 1_555 1_555
N43_3 Fe4_3 1_555 1_555
N44_3 N43_3 1_555 1_555
N45_3 N44_3 1_555 1_555
C67_3 N43_3 1_555 1_555
H29_3 C67_3 1_555 1_555
C68_3 N45_3 1_555 1_555
C69_3 C66_3 1_555 1_555
C70_3 C60_3 1_555 1_555
H30_3 C70_3 1_555 1_555
Fe11_3 N4_3 1_555 1_555
O11_3 C71_3 1_555 1_555
C71_3 Fe11_3 1_555 1_555
Fe12_3 Cl1_3 1_555 1_555
O12_3 C76_3 1_555 1_555
N46_3 Fe10_3 1_555 1_555
N47_3 Fe12_3 1_555 1_555
N48_3 N47_3 1_555 1_555
C72_3 N46_3 1_555 1_555
H31_3 C72_3 1_555 1_555
C73_3 N48_3 1_555 1_555
C74_3 C73_3 1_555 1_555
C75_3 C74_3 1_555 1_555
H32_3 C75_3 1_555 1_555
C76_3 Fe12_3 1_555 1_555
N49_3 N50_3 1_555 1_555
N50_3 N51_3 1_555 1_555
N51_3 C78_3 1_555 1_555
C77_3 N49_3 1_555 1_555
H33_3 C77_3 1_555 1_555
C78_3 C77_3 1_555 1_555
C79_3 C75_3 1_555 1_555
C80_3 C79_3 1_555 1_555
H34_3 C80_3 1_555 1_555
N52_3 N53_3 1_555 1_555
N53_3 N54_3 1_555 1_555
N54_3 C82_3 1_555 1_555
C81_3 N52_3 1_555 1_555
H35_3 C81_3 1_555 1_555
C82_3 C81_3 1_555 1_555
C83_3 C80_3 1_555 1_555
C84_3 C74_3 1_555 1_555
H36_3 C84_3 1_555 1_555
N55_3 N56_3 1_555 1_555
N56_3 N57_3 1_555 1_555
N57_3 C86_3 1_555 1_555
C85_3 N55_3 1_555 1_555
H37_3 C85_3 1_555 1_555
C86_3 C85_3 1_555 1_555
C87_3 C86_3 1_555 1_555
C88_3 C87_3 1_555 1_555
H38_3 C88_3 1_555 1_555
N58_3 Fe9_3 1_555 1_555
N59_3 N58_3 1_555 1_555
N60_3 N59_3 1_555 1_555
C89_3 N58_3 1_555 1_555
H39_3 C89_3 1_555 1_555
C90_3 N60_3 1_555 1_555
C91_3 C88_3 1_555 1_555
C92_3 C91_3 1_555 1_555
H40_3 C92_3 1_555 1_555
N61_3 Fe2_3 1_555 1_555
N62_3 N61_3 1_555 1_555
N63_3 N62_3 1_555 1_555
C93_3 N61_3 1_555 1_555
H41_3 C93_3 1_555 1_555
C94_3 N63_3 1_555 1_555
C95_3 C92_3 1_555 1_555
C96_3 C87_3 1_555 1_555
H42_3 C96_3 1_555 1_555
N64_3 N65_3 1_555 1_555
N65_3 N66_3 1_555 1_555
N66_3 C98_3 1_555 1_555
C97_3 N64_3 1_555 1_555
H43_3 C97_3 1_555 1_555
C98_3 C97_3 1_555 1_555
C99_3 C98_3 1_555 1_555
C100_3 C99_3 1_555 1_555
H44_3 C100_3 1_555 1_555
N67_3 Fe5_6 1_555 1_555
N68_3 N67_3 1_555 1_555
N69_3 N68_3 1_555 1_555
C101_3 N67_3 1_555 1_555
H45_3 C101_3 1_555 1_555
C102_3 N69_3 1_555 1_555
C103_3 C100_3 1_555 1_555
C104_3 C103_3 1_555 1_555
H46_3 C104_3 1_555 1_555
N70_3 N71_3 1_555 1_555
N71_3 N72_3 1_555 1_555
N72_3 C106_3 1_555 1_555
C105_3 N70_3 1_555 1_555
H47_3 C105_3 1_555 1_555
C106_3 C105_3 1_555 1_555
C107_3 C104_3 1_555 1_555
C108_3 C99_3 1_555 1_555
H48_3 C108_3 1_555 1_555
Fe13_6 N16_3 1_555 1_555
Fe14_6 N52_3 1_555 1_555
Fe15_5 N31_3 1_555 1_555
Fe16_6 N17_3 1_555 1_555
Fe17_5 N26_3 1_555 1_555
Fe18_6 N29_3 1_555 1_555
Fe19_6 N13_3 1_555 1_555
Fe20_5 N50_3 1_555 1_555
Fe21_6 N40_3 1_555 1_555
Fe22_6 N28_3 1_555 1_555
Fe23_3 N7_3 1_555 1_555
Fe24_3 Cl2_3 1_555 1_555
Cl4_6 Fe5_6 1_555 1_555
Cl5_5 Fe8_5 1_555 1_555
N73_3 Fe6_3 1_555 1_555
N74_3 Fe11_3 1_555 1_555
N76_3 Fe12_3 1_555 1_555
N77_3 Fe3_3 1_555 1_555
N79_3 Fe7_3 1_555 1_555
N80_3 Fe1_3 1_555 1_555
N81_3 Fe4_3 1_555 1_555
N82_3 Fe10_3 1_555 1_555
N83_3 Fe9_3 1_555 1_555
N84_3 Fe2_3 1_555 1_555
N85_3 Fe1_3 1_555 1_555
N86_3 Fe2_3 1_555 1_555
N87_3 Fe3_3 1_555 1_555
N88_3 Fe4_3 1_555 1_555
N90_3 Fe6_3 1_555 1_555
N91_3 Fe7_3 1_555 1_555
N93_3 Fe9_3 1_555 1_555
N94_3 Fe10_3 1_555 1_555
N95_3 Fe11_3 1_555 1_555
N96_3 Fe12_3 1_555 1_555
C1_3 C2_3 1_555 1_555
C7_3 C8_3 1_555 1_555
C11_3 C12_3 1_555 1_555
C12_3 C13_3 1_555 1_555
Cl2_3 Fe11_3 1_555 1_555
Cl3_3 Fe23_3 1_555 1_555
N10_3 Fe24_3 1_555 1_555
C16_3 C17_3 1_555 1_555
C22_3 C23_3 1_555 1_555
C26_3 C27_3 1_555 1_555
C27_3 C28_3 1_555 1_555
N19_3 Fe12_3 1_555 1_555
C30_3 C31_3 1_555 1_555
N23_3 Fe7_3 1_555 1_555
C35_3 C36_3 1_555 1_555
C36_3 C37_3 1_555 1_555
C40_3 C41_3 1_555 1_555
C41_3 C42_3 1_555 1_555
N32_3 Fe8_5 1_555 1_555
C49_3 C50_3 1_555 1_555
N35_3 Fe9_3 1_555 1_555
C52_3 C53_3 1_555 1_555
C53_3 C54_3 1_555 1_555
C54_3 C55_3 1_555 1_555
N37_3 N38_3 1_555 1_555
C58_3 C59_3 1_555 1_555
N41_3 Fe19_6 1_555 1_555
C64_3 C65_3 1_555 1_555
N44_3 Fe11_3 1_555 1_555
C67_3 C68_3 1_555 1_555
C68_3 C69_3 1_555 1_555
C69_3 C70_3 1_555 1_555
N46_3 N47_3 1_555 1_555
C72_3 C73_3 1_555 1_555
N49_3 Fe17_5 1_555 1_555
C78_3 C79_3 1_555 1_555
N53_3 Fe21_6 1_555 1_555
C82_3 C83_3 1_555 1_555
C83_3 C84_3 1_555 1_555
N55_3 Fe16_6 1_555 1_555
N56_3 Fe22_6 1_555 1_555
N59_3 Fe23_3 1_555 1_555
C89_3 C90_3 1_555 1_555
C90_3 C91_3 1_555 1_555
N62_3 Fe24_3 1_555 1_555
C93_3 C94_3 1_555 1_555
C94_3 C95_3 1_555 1_555
C95_3 C96_3 1_555 1_555
N64_3 Fe18_6 1_555 1_555
N65_3 Fe13_6 1_555 1_555
N68_3 Fe14_6 1_555 1_555
C101_3 C102_3 1_555 1_555
C102_3 C103_3 1_555 1_555
N70_3 Fe20_5 1_555 1_555
N71_3 Fe15_5 1_555 1_555
C106_3 C107_3 1_555 1_555
C107_3 C108_3 1_555 1_555
Fe14_6 Cl4_6 1_555 1_555
Fe15_5 Cl5_5 1_555 1_555
Fe17_5 Cl5_5 1_555 1_555
Fe19_6 Cl4_6 1_555 1_555
Fe20_5 Cl5_5 1_555 1_555
Fe21_6 Cl4_6 1_555 1_555
N73_3 N85_3 1_555 1_555
N74_3 N86_3 1_555 1_555
N76_3 N90_3 1_555 1_555
N77_3 N91_3 1_555 1_555
N79_3 N93_3 1_555 1_555
N80_3 N94_3 1_555 1_555
N81_3 N95_3 1_555 1_555
N82_3 N96_3 1_555 1_555
O8_6 C56_6 1_555 1_555
C56_6 Fe8_6 1_555 1_555
Cl5_6 Fe8_6 1_555 1_555
N78_3 Fe8_6 1_555 1_555
N92_3 Fe8_6 1_555 1_555
Fe15_6 Cl5_6 1_555 1_555
Fe17_6 Cl5_6 1_555 1_555
Fe20_6 Cl5_6 1_555 1_555
O8_7 C56_7 1_555 1_555
C56_7 Fe8_7 1_555 1_555
Cl5_7 Fe8_7 1_555 1_555
N78_4 Fe8_7 1_555 1_555
N92_4 Fe8_7 1_555 1_555
Fe15_7 Cl5_7 1_555 1_555
Fe17_7 Cl5_7 1_555 1_555
Fe20_7 Cl5_7 1_555 1_555
Fe1_4 Cl1_4 1_555 1_555
Cl1_4 Fe6_4 1_555 1_555
O1_4 C5_4 1_555 1_555
N1_4 N2_4 1_555 1_555
N2_4 Fe1_4 1_555 1_555
N3_4 N2_4 1_555 1_555
C1_4 N1_4 1_555 1_555
H1_4 C1_4 1_555 1_555
C2_4 N3_4 1_555 1_555
C3_4 C2_4 1_555 1_555
C4_4 C3_4 1_555 1_555
H2_4 C4_4 1_555 1_555
C5_4 Fe1_4 1_555 1_555
N4_4 N5_4 1_555 1_555
N5_4 N6_4 1_555 1_555
N6_4 C7_4 1_555 1_555
C6_4 N4_4 1_555 1_555
H3_4 C6_4 1_555 1_555
C7_4 C6_4 1_555 1_555
C8_4 C4_4 1_555 1_555
C9_4 C8_4 1_555 1_555
H4_4 C9_4 1_555 1_555
N7_4 N8_4 1_555 1_555
N8_4 N9_4 1_555 1_555
N9_4 C11_4 1_555 1_555
C10_4 N7_4 1_555 1_555
H5_4 C10_4 1_555 1_555
C11_4 C10_4 1_555 1_555
C12_4 C9_4 1_555 1_555
C13_4 C3_4 1_555 1_555
H6_4 C13_4 1_555 1_555
Fe2_4 N5_4 1_555 1_555
Cl2_4 Fe2_4 1_555 1_555
O2_4 C14_4 1_555 1_555
C14_4 Fe2_4 1_555 1_555
Fe3_4 N8_4 1_555 1_555
Cl3_4 Fe3_4 1_555 1_555
O3_4 C15_4 1_555 1_555
C15_4 Fe3_4 1_555 1_555
Fe4_4 Cl2_4 1_555 1_555
O4_4 C20_4 1_555 1_555
N10_4 N11_4 1_555 1_555
N11_4 Fe4_4 1_555 1_555
N12_4 N11_4 1_555 1_555
C16_4 N10_4 1_555 1_555
H7_4 C16_4 1_555 1_555
C17_4 N12_4 1_555 1_555
C18_4 C17_4 1_555 1_555
C19_4 C18_4 1_555 1_555
H8_4 C19_4 1_555 1_555
C20_4 Fe4_4 1_555 1_555
N13_4 N14_4 1_555 1_555
N14_4 N15_4 1_555 1_555
N15_4 C22_4 1_555 1_555
C21_4 N13_4 1_555 1_555
H9_4 C21_4 1_555 1_555
C22_4 C21_4 1_555 1_555
C23_4 C19_4 1_555 1_555
C24_4 C23_4 1_555 1_555
H10_4 C24_4 1_555 1_555
N16_4 N17_4 1_555 1_555
N17_4 N18_4 1_555 1_555
N18_4 C26_4 1_555 1_555
C25_4 N16_4 1_555 1_555
H11_4 C25_4 1_555 1_555
C26_4 C25_4 1_555 1_555
C27_4 C24_4 1_555 1_555
C28_4 C18_4 1_555 1_555
H12_4 C28_4 1_555 1_555
Fe5_7 N14_4 1_555 1_555
O5_7 C29_7 1_555 1_555
C29_7 Fe5_7 1_555 1_555
Fe6_4 N1_4 1_555 1_555
O6_4 C34_4 1_555 1_555
N19_4 N20_4 1_555 1_555
N20_4 Fe6_4 1_555 1_555
N21_4 N20_4 1_555 1_555
C30_4 N19_4 1_555 1_555
H13_4 C30_4 1_555 1_555
C31_4 N21_4 1_555 1_555
C32_4 C31_4 1_555 1_555
C33_4 C32_4 1_555 1_555
H14_4 C33_4 1_555 1_555
C34_4 Fe6_4 1_555 1_555
N22_4 Fe3_4 1_555 1_555
N23_4 N22_4 1_555 1_555
N24_4 N23_4 1_555 1_555
C35_4 N22_4 1_555 1_555
H15_4 C35_4 1_555 1_555
C36_4 N24_4 1_555 1_555
C37_4 C33_4 1_555 1_555
C38_4 C37_4 1_555 1_555
H16_4 C38_4 1_555 1_555
N25_4 N26_4 1_555 1_555
N26_4 N27_4 1_555 1_555
N27_4 C40_4 1_555 1_555
C39_4 N25_4 1_555 1_555
H17_4 C39_4 1_555 1_555
C40_4 C39_4 1_555 1_555
C41_4 C38_4 1_555 1_555
C42_4 C32_4 1_555 1_555
H18_4 C42_4 1_555 1_555
Fe7_4 Cl3_4 1_555 1_555
O7_4 C43_4 1_555 1_555
C43_4 Fe7_4 1_555 1_555
N28_4 N29_4 1_555 1_555
N29_4 N30_4 1_555 1_555
N30_4 C45_4 1_555 1_555
C44_4 N28_4 1_555 1_555
H19_4 C44_4 1_555 1_555
C45_4 C44_4 1_555 1_555
C46_4 C45_4 1_555 1_555
C47_4 C46_4 1_555 1_555
H20_4 C47_4 1_555 1_555
N31_4 N32_4 1_555 1_555
N32_4 N33_4 1_555 1_555
N33_4 C49_4 1_555 1_555
C48_4 N31_4 1_555 1_555
H21_4 C48_4 1_555 1_555
C49_4 C48_4 1_555 1_555
C50_4 C47_4 1_555 1_555
C51_4 C50_4 1_555 1_555
H22_4 C51_4 1_555 1_555
N34_4 Fe7_4 1_555 1_555
N35_4 N34_4 1_555 1_555
N36_4 N35_4 1_555 1_555
C52_4 N34_4 1_555 1_555
H23_4 C52_4 1_555 1_555
C53_4 N36_4 1_555 1_555
C54_4 C51_4 1_555 1_555
C55_4 C46_4 1_555 1_555
H24_4 C55_4 1_555 1_555
Fe8_8 N25_4 1_555 1_555
O8_8 C56_8 1_555 1_555
C56_8 Fe8_8 1_555 1_555
Fe9_4 Cl3_4 1_555 1_555
O9_4 C57_4 1_555 1_555
C57_4 Fe9_4 1_555 1_555
Fe10_4 Cl1_4 1_555 1_555
O10_4 C62_4 1_555 1_555
N37_4 Fe1_4 1_555 1_555
N38_4 Fe10_4 1_555 1_555
N39_4 N38_4 1_555 1_555
C58_4 N37_4 1_555 1_555
H25_4 C58_4 1_555 1_555
C59_4 N39_4 1_555 1_555
C60_4 C59_4 1_555 1_555
C61_4 C60_4 1_555 1_555
H26_4 C61_4 1_555 1_555
C62_4 Fe10_4 1_555 1_555
N40_4 N41_4 1_555 1_555
N41_4 N42_4 1_555 1_555
N42_4 C64_4 1_555 1_555
C63_4 N40_4 1_555 1_555
H27_4 C63_4 1_555 1_555
C64_4 C63_4 1_555 1_555
C65_4 C61_4 1_555 1_555
C66_4 C65_4 1_555 1_555
H28_4 C66_4 1_555 1_555
N43_4 Fe4_4 1_555 1_555
N44_4 N43_4 1_555 1_555
N45_4 N44_4 1_555 1_555
C67_4 N43_4 1_555 1_555
H29_4 C67_4 1_555 1_555
C68_4 N45_4 1_555 1_555
C69_4 C66_4 1_555 1_555
C70_4 C60_4 1_555 1_555
H30_4 C70_4 1_555 1_555
Fe11_4 N4_4 1_555 1_555
O11_4 C71_4 1_555 1_555
C71_4 Fe11_4 1_555 1_555
Fe12_4 Cl1_4 1_555 1_555
O12_4 C76_4 1_555 1_555
N46_4 Fe10_4 1_555 1_555
N47_4 Fe12_4 1_555 1_555
N48_4 N47_4 1_555 1_555
C72_4 N46_4 1_555 1_555
H31_4 C72_4 1_555 1_555
C73_4 N48_4 1_555 1_555
C74_4 C73_4 1_555 1_555
C75_4 C74_4 1_555 1_555
H32_4 C75_4 1_555 1_555
C76_4 Fe12_4 1_555 1_555
N49_4 N50_4 1_555 1_555
N50_4 N51_4 1_555 1_555
N51_4 C78_4 1_555 1_555
C77_4 N49_4 1_555 1_555
H33_4 C77_4 1_555 1_555
C78_4 C77_4 1_555 1_555
C79_4 C75_4 1_555 1_555
C80_4 C79_4 1_555 1_555
H34_4 C80_4 1_555 1_555
N52_4 N53_4 1_555 1_555
N53_4 N54_4 1_555 1_555
N54_4 C82_4 1_555 1_555
C81_4 N52_4 1_555 1_555
H35_4 C81_4 1_555 1_555
C82_4 C81_4 1_555 1_555
C83_4 C80_4 1_555 1_555
C84_4 C74_4 1_555 1_555
H36_4 C84_4 1_555 1_555
N55_4 N56_4 1_555 1_555
N56_4 N57_4 1_555 1_555
N57_4 C86_4 1_555 1_555
C85_4 N55_4 1_555 1_555
H37_4 C85_4 1_555 1_555
C86_4 C85_4 1_555 1_555
C87_4 C86_4 1_555 1_555
C88_4 C87_4 1_555 1_555
H38_4 C88_4 1_555 1_555
N58_4 Fe9_4 1_555 1_555
N59_4 N58_4 1_555 1_555
N60_4 N59_4 1_555 1_555
C89_4 N58_4 1_555 1_555
H39_4 C89_4 1_555 1_555
C90_4 N60_4 1_555 1_555
C91_4 C88_4 1_555 1_555
C92_4 C91_4 1_555 1_555
H40_4 C92_4 1_555 1_555
N61_4 Fe2_4 1_555 1_555
N62_4 N61_4 1_555 1_555
N63_4 N62_4 1_555 1_555
C93_4 N61_4 1_555 1_555
H41_4 C93_4 1_555 1_555
C94_4 N63_4 1_555 1_555
C95_4 C92_4 1_555 1_555
C96_4 C87_4 1_555 1_555
H42_4 C96_4 1_555 1_555
N64_4 N65_4 1_555 1_555
N65_4 N66_4 1_555 1_555
N66_4 C98_4 1_555 1_555
C97_4 N64_4 1_555 1_555
H43_4 C97_4 1_555 1_555
C98_4 C97_4 1_555 1_555
C99_4 C98_4 1_555 1_555
C100_4 C99_4 1_555 1_555
H44_4 C100_4 1_555 1_555
N67_4 Fe5_7 1_555 1_555
N68_4 N67_4 1_555 1_555
N69_4 N68_4 1_555 1_555
C101_4 N67_4 1_555 1_555
H45_4 C101_4 1_555 1_555
C102_4 N69_4 1_555 1_555
C103_4 C100_4 1_555 1_555
C104_4 C103_4 1_555 1_555
H46_4 C104_4 1_555 1_555
N70_4 N71_4 1_555 1_555
N71_4 N72_4 1_555 1_555
N72_4 C106_4 1_555 1_555
C105_4 N70_4 1_555 1_555
H47_4 C105_4 1_555 1_555
C106_4 C105_4 1_555 1_555
C107_4 C104_4 1_555 1_555
C108_4 C99_4 1_555 1_555
H48_4 C108_4 1_555 1_555
Fe13_8 N16_4 1_555 1_555
Fe14_7 N52_4 1_555 1_555
Fe15_8 N31_4 1_555 1_555
Fe16_8 N17_4 1_555 1_555
Fe17_8 N26_4 1_555 1_555
Fe18_8 N29_4 1_555 1_555
Fe19_7 N13_4 1_555 1_555
Fe20_8 N50_4 1_555 1_555
Fe21_7 N40_4 1_555 1_555
Fe22_8 N28_4 1_555 1_555
Fe23_4 N7_4 1_555 1_555
Fe24_4 Cl2_4 1_555 1_555
Cl4_7 Fe5_7 1_555 1_555
Cl5_8 Fe8_8 1_555 1_555
N73_4 Fe6_4 1_555 1_555
N74_4 Fe11_4 1_555 1_555
N76_4 Fe12_4 1_555 1_555
N77_4 Fe3_4 1_555 1_555
N79_4 Fe7_4 1_555 1_555
N80_4 Fe1_4 1_555 1_555
N81_4 Fe4_4 1_555 1_555
N82_4 Fe10_4 1_555 1_555
N83_4 Fe9_4 1_555 1_555
N84_4 Fe2_4 1_555 1_555
N85_4 Fe1_4 1_555 1_555
N86_4 Fe2_4 1_555 1_555
N87_4 Fe3_4 1_555 1_555
N88_4 Fe4_4 1_555 1_555
N90_4 Fe6_4 1_555 1_555
N91_4 Fe7_4 1_555 1_555
N93_4 Fe9_4 1_555 1_555
N94_4 Fe10_4 1_555 1_555
N95_4 Fe11_4 1_555 1_555
N96_4 Fe12_4 1_555 1_555
C1_4 C2_4 1_555 1_555
C7_4 C8_4 1_555 1_555
C11_4 C12_4 1_555 1_555
C12_4 C13_4 1_555 1_555
Cl2_4 Fe11_4 1_555 1_555
Cl3_4 Fe23_4 1_555 1_555
N10_4 Fe24_4 1_555 1_555
C16_4 C17_4 1_555 1_555
C22_4 C23_4 1_555 1_555
C26_4 C27_4 1_555 1_555
C27_4 C28_4 1_555 1_555
N19_4 Fe12_4 1_555 1_555
C30_4 C31_4 1_555 1_555
N23_4 Fe7_4 1_555 1_555
C35_4 C36_4 1_555 1_555
C36_4 C37_4 1_555 1_555
C40_4 C41_4 1_555 1_555
C41_4 C42_4 1_555 1_555
N32_4 Fe8_8 1_555 1_555
C49_4 C50_4 1_555 1_555
N35_4 Fe9_4 1_555 1_555
C52_4 C53_4 1_555 1_555
C53_4 C54_4 1_555 1_555
C54_4 C55_4 1_555 1_555
N37_4 N38_4 1_555 1_555
C58_4 C59_4 1_555 1_555
N41_4 Fe19_7 1_555 1_555
C64_4 C65_4 1_555 1_555
N44_4 Fe11_4 1_555 1_555
C67_4 C68_4 1_555 1_555
C68_4 C69_4 1_555 1_555
C69_4 C70_4 1_555 1_555
N46_4 N47_4 1_555 1_555
C72_4 C73_4 1_555 1_555
N49_4 Fe17_8 1_555 1_555
C78_4 C79_4 1_555 1_555
N53_4 Fe21_7 1_555 1_555
C82_4 C83_4 1_555 1_555
C83_4 C84_4 1_555 1_555
N55_4 Fe16_8 1_555 1_555
N56_4 Fe22_8 1_555 1_555
N59_4 Fe23_4 1_555 1_555
C89_4 C90_4 1_555 1_555
C90_4 C91_4 1_555 1_555
N62_4 Fe24_4 1_555 1_555
C93_4 C94_4 1_555 1_555
C94_4 C95_4 1_555 1_555
C95_4 C96_4 1_555 1_555
N64_4 Fe18_8 1_555 1_555
N65_4 Fe13_8 1_555 1_555
N68_4 Fe14_7 1_555 1_555
C101_4 C102_4 1_555 1_555
C102_4 C103_4 1_555 1_555
N70_4 Fe20_8 1_555 1_555
N71_4 Fe15_8 1_555 1_555
C106_4 C107_4 1_555 1_555
C107_4 C108_4 1_555 1_555
Fe14_7 Cl4_7 1_555 1_555
Fe15_8 Cl5_8 1_555 1_555
Fe17_8 Cl5_8 1_555 1_555
Fe19_7 Cl4_7 1_555 1_555
Fe20_8 Cl5_8 1_555 1_555
Fe21_7 Cl4_7 1_555 1_555
N73_4 N85_4 1_555 1_555
N74_4 N86_4 1_555 1_555
N76_4 N90_4 1_555 1_555
N77_4 N91_4 1_555 1_555
N79_4 N93_4 1_555 1_555
N80_4 N94_4 1_555 1_555
N81_4 N95_4 1_555 1_555
N82_4 N96_4 1_555 1_555
O5_8 C29_8 1_555 1_555
C29_8 Fe5_8 1_555 1_555
Cl4_8 Fe5_8 1_555 1_555
N75_4 Fe5_8 1_555 1_555
N89_4 Fe5_8 1_555 1_555
Fe14_8 Cl4_8 1_555 1_555
Fe19_8 Cl4_8 1_555 1_555
Fe21_8 Cl4_8 1_555 1_555
O8_9 C56_9 1_555 1_555
C56_9 Fe21_5 1_555 1_555
N78_5 Fe21_5 1_555 1_555
N92_5 Fe21_5 1_555 1_555
O5_9 C29_9 1_555 1_555
C29_9 Fe18_5 1_555 1_555
Cl4_9 Fe18_5 1_555 1_555
N75_5 Fe18_5 1_555 1_555
N89_5 Fe18_5 1_555 1_555
Fe13_5 Cl4_9 1_555 1_555
Fe22_5 Cl4_9 1_555 1_555
Fe16_5 Cl4_9 1_555 1_555
O5_10 C29_10 1_555 1_555
C29_10 Fe18_6 1_555 1_555
O8_10 C56_10 1_555 1_555
C56_10 Fe21_6 1_555 1_555
O10_5 C62_5 1_555 1_555
C62_5 Fe24_3 1_555 1_555
O11_5 C71_5 1_555 1_555
C71_5 Fe23_3 1_555 1_555
Cl4_10 Fe18_6 1_555 1_555
N74_5 Fe23_3 1_555 1_555
N82_5 Fe24_3 1_555 1_555
N94_5 Fe24_3 1_555 1_555
N95_5 Fe23_3 1_555 1_555
Fe13_6 Cl4_10 1_555 1_555
Fe22_6 Cl4_10 1_555 1_555
Fe16_6 Cl4_10 1_555 1_555
N74_5 N87_3 1_555 1_555
N84_3 N94_5 1_555 1_555
N83_3 N95_5 1_555 1_555
N82_5 N88_3 1_555 1_555
O5_11 C29_11 1_555 1_555
C29_11 Fe18_3 1_555 1_555
O8_11 C56_11 1_555 1_555
C56_11 Fe21_3 1_555 1_555
O10_6 C62_6 1_555 1_555
C62_6 Fe24_2 1_555 1_555
O11_6 C71_6 1_555 1_555
C71_6 Fe23_2 1_555 1_555
Cl4_11 Fe18_3 1_555 1_555
N74_6 Fe23_2 1_555 1_555
N82_6 Fe24_2 1_555 1_555
N94_6 Fe24_2 1_555 1_555
N95_6 Fe23_2 1_555 1_555
Fe13_3 Cl4_11 1_555 1_555
Fe22_3 Cl4_11 1_555 1_555
Fe16_3 Cl4_11 1_555 1_555
N74_6 N87_2 1_555 1_555
N84_2 N94_6 1_555 1_555
N83_2 N95_6 1_555 1_555
N82_6 N88_2 1_555 1_555
O5_12 C29_12 1_555 1_555
C29_12 Fe18_4 1_555 1_555
Cl4_12 Fe18_4 1_555 1_555
N75_6 Fe18_4 1_555 1_555
N89_6 Fe18_4 1_555 1_555
Fe13_4 Cl4_12 1_555 1_555
Fe22_4 Cl4_12 1_555 1_555
Fe16_4 Cl4_12 1_555 1_555
O8_12 C56_12 1_555 1_555
C56_12 Fe21_4 1_555 1_555
N78_6 Fe21_4 1_555 1_555
N92_6 Fe21_4 1_555 1_555
O5_13 C29_13 1_555 1_555
C29_13 Fe18_7 1_555 1_555
Cl4_13 Fe18_7 1_555 1_555
N75_7 Fe18_7 1_555 1_555
N89_7 Fe18_7 1_555 1_555
Fe13_7 Cl4_13 1_555 1_555
Fe22_7 Cl4_13 1_555 1_555
Fe16_7 Cl4_13 1_555 1_555
O5_14 C29_14 1_555 1_555
C29_14 Fe18_8 1_555 1_555
O8_13 C56_13 1_555 1_555
C56_13 Fe21_7 1_555 1_555
O10_7 C62_7 1_555 1_555
C62_7 Fe24_4 1_555 1_555
O11_7 C71_7 1_555 1_555
C71_7 Fe23_4 1_555 1_555
Cl4_14 Fe18_8 1_555 1_555
N74_7 Fe23_4 1_555 1_555
N82_7 Fe24_4 1_555 1_555
N94_7 Fe24_4 1_555 1_555
N95_7 Fe23_4 1_555 1_555
Fe13_8 Cl4_14 1_555 1_555
Fe22_8 Cl4_14 1_555 1_555
Fe16_8 Cl4_14 1_555 1_555
N74_7 N87_4 1_555 1_555
N84_4 N94_7 1_555 1_555
N83_4 N95_7 1_555 1_555
N82_7 N88_4 1_555 1_555
O8_14 C56_14 1_555 1_555
C56_14 Fe21_8 1_555 1_555
N78_7 Fe21_8 1_555 1_555
N92_7 Fe21_8 1_555 1_555
O8_15 C56_15 1_555 1_555
C56_15 Fe21 1_555 1_555
N78_8 Fe21 1_555 1_555
N92_8 Fe21 1_555 1_555
O5_15 C29_15 1_555 1_555
C29_15 Fe18 1_555 1_555
O8_16 C56_16 1_555 1_555
C56_16 Fe21_2 1_555 1_555
O10_8 C62_8 1_555 1_555
C62_8 Fe24 1_555 1_555
O11_8 C71_8 1_555 1_555
C71_8 Fe23 1_555 1_555
Cl4_15 Fe18 1_555 1_555
N74_8 Fe23 1_555 1_555
N82_8 Fe24 1_555 1_555
N94_8 Fe24 1_555 1_555
N95_8 Fe23 1_555 1_555
Fe13 Cl4_15 1_555 1_555
Fe22 Cl4_15 1_555 1_555
Fe16 Cl4_15 1_555 1_555
N74_8 N87 1_555 1_555
N84 N94_8 1_555 1_555
N83 N95_8 1_555 1_555
N82_8 N88 1_555 1_555
O5_16 C29_16 1_555 1_555
C29_16 Fe18_2 1_555 1_555
Cl4_16 Fe18_2 1_555 1_555
N75_8 Fe18_2 1_555 1_555
N89_8 Fe18_2 1_555 1_555
Fe13_2 Cl4_16 1_555 1_555
Fe22_2 Cl4_16 1_555 1_555
Fe16_2 Cl4_16 1_555 1_555
O5_17 C29_17 1_555 1_555
C29_17 Fe20_7 1_555 1_555
N75_9 Fe20_7 1_555 1_555
N89_9 Fe20_7 1_555 1_555
O8_17 C56_17 1_555 1_555
C56_17 Fe16_7 1_555 1_555
N78_9 Fe16_7 1_555 1_555
N92_9 Fe16_7 1_555 1_555
O5_18 C29_18 1_555 1_555
C29_18 Fe20_8 1_555 1_555
O8_18 C56_18 1_555 1_555
C56_18 Fe16_8 1_555 1_555
O5_19 C29_19 1_555 1_555
C29_19 Fe20_3 1_555 1_555
O8_19 C56_19 1_555 1_555
C56_19 Fe16_3 1_555 1_555
O8_20 C56_20 1_555 1_555
C56_20 Fe16_4 1_555 1_555
N78_10 Fe16_4 1_555 1_555
N92_10 Fe16_4 1_555 1_555
O5_20 C29_20 1_555 1_555
C29_20 Fe20_4 1_555 1_555
N75_10 Fe20_4 1_555 1_555
N89_10 Fe20_4 1_555 1_555
O5_21 C29_21 1_555 1_555
C29_21 Fe20 1_555 1_555
N75_11 Fe20 1_555 1_555
N89_11 Fe20 1_555 1_555
O5_22 C29_22 1_555 1_555
C29_22 Fe20_2 1_555 1_555
O8_21 C56_21 1_555 1_555
C56_21 Fe16 1_555 1_555
O8_22 C56_22 1_555 1_555
C56_22 Fe16_2 1_555 1_555
N78_11 Fe16_2 1_555 1_555
N92_11 Fe16_2 1_555 1_555
O8_23 C56_23 1_555 1_555
C56_23 Fe16_5 1_555 1_555
N78_12 Fe16_5 1_555 1_555
N92_12 Fe16_5 1_555 1_555
O5_23 C29_23 1_555 1_555
C29_23 Fe20_5 1_555 1_555
O8_24 C56_24 1_555 1_555
C56_24 Fe16_6 1_555 1_555
O5_24 C29_24 1_555 1_555
C29_24 Fe20_6 1_555 1_555
N75_12 Fe20_6 1_555 1_555
N89_12 Fe20_6 1_555 1_555
O1_5 C5_5 1_555 1_555
C5_5 Fe13_3 1_555 1_555
O2_5 C14_5 1_555 1_555
C14_5 Fe14_3 1_555 1_555
O3_5 C15_5 1_555 1_555
C15_5 Fe15_3 1_555 1_555
O4_5 C20_5 1_555 1_555
C20_5 Fe19_3 1_555 1_555
O9_5 C57_5 1_555 1_555
C57_5 Fe17_3 1_555 1_555
O12_5 C76_5 1_555 1_555
C76_5 Fe22_3 1_555 1_555
O1_6 C5_6 1_555 1_555
C5_6 Fe13_4 1_555 1_555
O12_6 C76_6 1_555 1_555
C76_6 Fe22_4 1_555 1_555
N76_5 Fe22_4 1_555 1_555
N80_5 Fe13_4 1_555 1_555
N85_5 Fe13_4 1_555 1_555
N96_5 Fe22_4 1_555 1_555
N75_6 N85_5 1_555 1_555
N76_5 N89_6 1_555 1_555
N80_5 N92_10 1_555 1_555
N78_10 N96_5 1_555 1_555
O2_6 C14_6 1_555 1_555
C14_6 Fe14_4 1_555 1_555
O4_6 C20_6 1_555 1_555
C20_6 Fe19_4 1_555 1_555
N81_5 Fe19_4 1_555 1_555
N84_5 Fe14_4 1_555 1_555
N86_5 Fe14_4 1_555 1_555
N88_5 Fe19_4 1_555 1_555
N75_2 N86_5 1_555 1_555
N81_5 N89_2 1_555 1_555
O3_6 C15_6 1_555 1_555
C15_6 Fe15_4 1_555 1_555
O9_6 C57_6 1_555 1_555
C57_6 Fe17_4 1_555 1_555
N77_5 Fe15_4 1_555 1_555
N83_5 Fe17_4 1_555 1_555
N87_5 Fe15_4 1_555 1_555
N93_5 Fe17_4 1_555 1_555
N77_5 N92_2 1_555 1_555
N78_2 N93_5 1_555 1_555
O3_7 C15_7 1_555 1_555
C15_7 Fe15 1_555 1_555
O9_7 C57_7 1_555 1_555
C57_7 Fe17 1_555 1_555
N77_6 Fe15 1_555 1_555
N83_6 Fe17 1_555 1_555
N87_6 Fe15 1_555 1_555
N93_6 Fe17 1_555 1_555
N77_6 N92 1_555 1_555
N78 N93_6 1_555 1_555
O2_7 C14_7 1_555 1_555
C14_7 Fe14 1_555 1_555
O4_7 C20_7 1_555 1_555
C20_7 Fe19 1_555 1_555
N81_6 Fe19 1_555 1_555
N84_6 Fe14 1_555 1_555
N86_6 Fe14 1_555 1_555
N88_6 Fe19 1_555 1_555
N75 N86_6 1_555 1_555
N81_6 N89 1_555 1_555
O1_7 C5_7 1_555 1_555
C5_7 Fe13 1_555 1_555
O2_8 C14_8 1_555 1_555
C14_8 Fe14_2 1_555 1_555
O3_8 C15_8 1_555 1_555
C15_8 Fe15_2 1_555 1_555
O4_8 C20_8 1_555 1_555
C20_8 Fe19_2 1_555 1_555
O9_8 C57_8 1_555 1_555
C57_8 Fe17_2 1_555 1_555
O12_7 C76_7 1_555 1_555
C76_7 Fe22 1_555 1_555
O1_8 C5_8 1_555 1_555
C5_8 Fe13_2 1_555 1_555
O12_8 C76_8 1_555 1_555
C76_8 Fe22_2 1_555 1_555
N76_6 Fe22_2 1_555 1_555
N80_6 Fe13_2 1_555 1_555
N85_6 Fe13_2 1_555 1_555
N96_6 Fe22_2 1_555 1_555
N75_8 N85_6 1_555 1_555
N76_6 N89_8 1_555 1_555
N80_6 N92_11 1_555 1_555
N78_11 N96_6 1_555 1_555
O2_9 C14_9 1_555 1_555
C14_9 Fe14_5 1_555 1_555
O4_9 C20_9 1_555 1_555
C20_9 Fe19_5 1_555 1_555
N81_7 Fe19_5 1_555 1_555
N84_7 Fe14_5 1_555 1_555
N86_7 Fe14_5 1_555 1_555
N88_7 Fe19_5 1_555 1_555
N75_3 N86_7 1_555 1_555
N81_7 N89_3 1_555 1_555
O1_9 C5_9 1_555 1_555
C5_9 Fe13_5 1_555 1_555
O12_9 C76_9 1_555 1_555
C76_9 Fe22_5 1_555 1_555
N76_7 Fe22_5 1_555 1_555
N80_7 Fe13_5 1_555 1_555
N85_7 Fe13_5 1_555 1_555
N96_7 Fe22_5 1_555 1_555
N75_5 N85_7 1_555 1_555
N76_7 N89_5 1_555 1_555
N80_7 N92_12 1_555 1_555
N78_12 N96_7 1_555 1_555
O1_10 C5_10 1_555 1_555
C5_10 Fe13_6 1_555 1_555
O2_10 C14_10 1_555 1_555
C14_10 Fe14_6 1_555 1_555
O3_9 C15_9 1_555 1_555
C15_9 Fe15_5 1_555 1_555
O4_10 C20_10 1_555 1_555
C20_10 Fe19_6 1_555 1_555
O9_9 C57_9 1_555 1_555
C57_9 Fe17_5 1_555 1_555
O12_10 C76_10 1_555 1_555
C76_10 Fe22_6 1_555 1_555
O3_10 C15_10 1_555 1_555
C15_10 Fe15_6 1_555 1_555
O9_10 C57_10 1_555 1_555
C57_10 Fe17_6 1_555 1_555
N77_7 Fe15_6 1_555 1_555
N83_7 Fe17_6 1_555 1_555
N87_7 Fe15_6 1_555 1_555
N93_7 Fe17_6 1_555 1_555
N77_7 N92_3 1_555 1_555
N78_3 N93_7 1_555 1_555
O3_11 C15_11 1_555 1_555
C15_11 Fe15_7 1_555 1_555
O9_11 C57_11 1_555 1_555
C57_11 Fe17_7 1_555 1_555
N77_8 Fe15_7 1_555 1_555
N83_8 Fe17_7 1_555 1_555
N87_8 Fe15_7 1_555 1_555
N93_8 Fe17_7 1_555 1_555
N77_8 N92_4 1_555 1_555
N78_4 N93_8 1_555 1_555
O1_11 C5_11 1_555 1_555
C5_11 Fe13_7 1_555 1_555
O12_11 C76_11 1_555 1_555
C76_11 Fe22_7 1_555 1_555
N76_8 Fe22_7 1_555 1_555
N80_8 Fe13_7 1_555 1_555
N85_8 Fe13_7 1_555 1_555
N96_8 Fe22_7 1_555 1_555
N75_7 N85_8 1_555 1_555
N76_8 N89_7 1_555 1_555
N80_8 N92_9 1_555 1_555
N78_9 N96_8 1_555 1_555
O1_12 C5_12 1_555 1_555
C5_12 Fe13_8 1_555 1_555
O2_11 C14_11 1_555 1_555
C14_11 Fe14_7 1_555 1_555
O3_12 C15_12 1_555 1_555
C15_12 Fe15_8 1_555 1_555
O4_11 C20_11 1_555 1_555
C20_11 Fe19_7 1_555 1_555
O9_12 C57_12 1_555 1_555
C57_12 Fe17_8 1_555 1_555
O12_12 C76_12 1_555 1_555
C76_12 Fe22_8 1_555 1_555
O2_12 C14_12 1_555 1_555
C14_12 Fe14_8 1_555 1_555
O4_12 C20_12 1_555 1_555
C20_12 Fe19_8 1_555 1_555
N81_8 Fe19_8 1_555 1_555
N84_8 Fe14_8 1_555 1_555
N86_8 Fe14_8 1_555 1_555
N88_8 Fe19_8 1_555 1_555
N75_4 N86_8 1_555 1_555
N81_8 N89_4 1_555 1_555
N84_7 N92_5 1_555 1_555
N78_5 N88_7 1_555 1_555
N75_12 N87_7 1_555 1_555
N83_7 N89_12 1_555 1_555
N75_11 N87_6 1_555 1_555
N83_6 N89_11 1_555 1_555
N84_6 N92_8 1_555 1_555
N78_8 N88_6 1_555 1_555
N75_9 N87_8 1_555 1_555
N83_8 N89_9 1_555 1_555
N84_8 N92_7 1_555 1_555
N78_7 N88_8 1_555 1_555
N84_5 N92_6 1_555 1_555
N78_6 N88_5 1_555 1_555
N75_10 N87_5 1_555 1_555
N83_5 N89_10 1_555 1_555
N3_5 N85_2 1_555 1_555
C1_5 N73_2 1_555 1_555
H1_5 C1_5 1_555 1_555
C2_5 N3_5 1_555 1_555
C3_5 C2_5 1_555 1_555
C4_5 C3_5 1_555 1_555
H2_5 C4_5 1_555 1_555
N86_4 N6_5 1_555 1_555
N6_5 C7_5 1_555 1_555
C6_5 N74_4 1_555 1_555
H3_5 C6_5 1_555 1_555
C7_5 C6_5 1_555 1_555
C8_5 C4_5 1_555 1_555
C9_5 C8_5 1_555 1_555
H4_5 C9_5 1_555 1_555
N87_3 N9_5 1_555 1_555
N9_5 C11_5 1_555 1_555
C10_5 N74_5 1_555 1_555
H5_5 C10_5 1_555 1_555
C11_5 C10_5 1_555 1_555
C12_5 C9_5 1_555 1_555
C13_5 C3_5 1_555 1_555
H6_5 C13_5 1_555 1_555
N12_5 N88_4 1_555 1_555
C16_5 N82_7 1_555 1_555
H7_5 C16_5 1_555 1_555
C17_5 N12_5 1_555 1_555
C18_5 C17_5 1_555 1_555
C19_5 C18_5 1_555 1_555
H8_5 C19_5 1_555 1_555
N89_3 N15_5 1_555 1_555
N15_5 C22_5 1_555 1_555
C21_5 N81_7 1_555 1_555
H9_5 C21_5 1_555 1_555
C22_5 C21_5 1_555 1_555
C23_5 C19_5 1_555 1_555
C24_5 C23_5 1_555 1_555
H10_5 C24_5 1_555 1_555
N92_10 N18_5 1_555 1_555
N18_5 C26_5 1_555 1_555
C25_5 N80_5 1_555 1_555
H11_5 C25_5 1_555 1_555
C26_5 C25_5 1_555 1_555
C27_5 C24_5 1_555 1_555
C28_5 C18_5 1_555 1_555
H12_5 C28_5 1_555 1_555
N21_5 N90_2 1_555 1_555
C30_5 N76_2 1_555 1_555
H13_5 C30_5 1_555 1_555
C31_5 N21_5 1_555 1_555
C32_5 C31_5 1_555 1_555
C33_5 C32_5 1_555 1_555
H14_5 C33_5 1_555 1_555
N24_5 N91_3 1_555 1_555
C35_5 N77_3 1_555 1_555
H15_5 C35_5 1_555 1_555
C36_5 N24_5 1_555 1_555
C37_5 C33_5 1_555 1_555
C38_5 C37_5 1_555 1_555
H16_5 C38_5 1_555 1_555
N93_8 N27_5 1_555 1_555
N27_5 C40_5 1_555 1_555
C39_5 N78_4 1_555 1_555
H17_5 C39_5 1_555 1_555
C40_5 C39_5 1_555 1_555
C41_5 C38_5 1_555 1_555
C42_5 C32_5 1_555 1_555
H18_5 C42_5 1_555 1_555
N89_6 N30_5 1_555 1_555
N30_5 C45_5 1_555 1_555
C44_5 N76_5 1_555 1_555
H19_5 C44_5 1_555 1_555
C45_5 C44_5 1_555 1_555
C46_5 C45_5 1_555 1_555
C47_5 C46_5 1_555 1_555
H20_5 C47_5 1_555 1_555
N92_4 N33_5 1_555 1_555
N33_5 C49_5 1_555 1_555
C48_5 N77_8 1_555 1_555
H21_5 C48_5 1_555 1_555
C49_5 C48_5 1_555 1_555
C50_5 C47_5 1_555 1_555
C51_5 C50_5 1_555 1_555
H22_5 C51_5 1_555 1_555
N36_5 N93_3 1_555 1_555
C52_5 N79_3 1_555 1_555
H23_5 C52_5 1_555 1_555
C53_5 N36_5 1_555 1_555
C54_5 C51_5 1_555 1_555
C55_5 C46_5 1_555 1_555
H24_5 C55_5 1_555 1_555
N39_5 N94_2 1_555 1_555
C58_5 N80_2 1_555 1_555
H25_5 C58_5 1_555 1_555
C59_5 N39_5 1_555 1_555
C60_5 C59_5 1_555 1_555
C61_5 C60_5 1_555 1_555
H26_5 C61_5 1_555 1_555
N88_7 N42_5 1_555 1_555
N42_5 C64_5 1_555 1_555
C63_5 N78_5 1_555 1_555
H27_5 C63_5 1_555 1_555
C64_5 C63_5 1_555 1_555
C65_5 C61_5 1_555 1_555
C66_5 C65_5 1_555 1_555
H28_5 C66_5 1_555 1_555
N45_5 N95_4 1_555 1_555
C67_5 N81_4 1_555 1_555
H29_5 C67_5 1_555 1_555
C68_5 N45_5 1_555 1_555
C69_5 C66_5 1_555 1_555
C70_5 C60_5 1_555 1_555
H30_5 C70_5 1_555 1_555
N48_5 N96_2 1_555 1_555
C72_5 N82_2 1_555 1_555
H31_5 C72_5 1_555 1_555
C73_5 N48_5 1_555 1_555
C74_5 C73_5 1_555 1_555
C75_5 C74_5 1_555 1_555
H32_5 C75_5 1_555 1_555
N89_9 N51_5 1_555 1_555
N51_5 C78_5 1_555 1_555
C77_5 N83_8 1_555 1_555
H33_5 C77_5 1_555 1_555
C78_5 C77_5 1_555 1_555
C79_5 C75_5 1_555 1_555
C80_5 C79_5 1_555 1_555
H34_5 C80_5 1_555 1_555
N92_5 N54_5 1_555 1_555
N54_5 C82_5 1_555 1_555
C81_5 N84_7 1_555 1_555
H35_5 C81_5 1_555 1_555
C82_5 C81_5 1_555 1_555
C83_5 C80_5 1_555 1_555
C84_5 C74_5 1_555 1_555
H36_5 C84_5 1_555 1_555
N96_5 N57_5 1_555 1_555
N57_5 C86_5 1_555 1_555
C85_5 N78_10 1_555 1_555
H37_5 C85_5 1_555 1_555
C86_5 C85_5 1_555 1_555
C87_5 C86_5 1_555 1_555
C88_5 C87_5 1_555 1_555
H38_5 C88_5 1_555 1_555
N60_5 N95_5 1_555 1_555
C89_5 N83_3 1_555 1_555
H39_5 C89_5 1_555 1_555
C90_5 N60_5 1_555 1_555
C91_5 C88_5 1_555 1_555
C92_5 C91_5 1_555 1_555
H40_5 C92_5 1_555 1_555
N63_5 N94_7 1_555 1_555
C93_5 N84_4 1_555 1_555
H41_5 C93_5 1_555 1_555
C94_5 N63_5 1_555 1_555
C95_5 C92_5 1_555 1_555
C96_5 C87_5 1_555 1_555
H42_5 C96_5 1_555 1_555
N85_5 N66_5 1_555 1_555
N66_5 C98_5 1_555 1_555
C97_5 N75_6 1_555 1_555
H43_5 C97_5 1_555 1_555
C98_5 C97_5 1_555 1_555
C99_5 C98_5 1_555 1_555
C100_5 C99_5 1_555 1_555
H44_5 C100_5 1_555 1_555
N69_5 N86_7 1_555 1_555
C101_5 N75_3 1_555 1_555
H45_5 C101_5 1_555 1_555
C102_5 N69_5 1_555 1_555
C103_5 C100_5 1_555 1_555
C104_5 C103_5 1_555 1_555
H46_5 C104_5 1_555 1_555
N87_8 N72_5 1_555 1_555
N72_5 C106_5 1_555 1_555
C105_5 N75_9 1_555 1_555
H47_5 C105_5 1_555 1_555
C106_5 C105_5 1_555 1_555
C107_5 C104_5 1_555 1_555
C108_5 C99_5 1_555 1_555
H48_5 C108_5 1_555 1_555
C1_5 C2_5 1_555 1_555
C7_5 C8_5 1_555 1_555
C11_5 C12_5 1_555 1_555
C12_5 C13_5 1_555 1_555
C16_5 C17_5 1_555 1_555
C22_5 C23_5 1_555 1_555
C26_5 C27_5 1_555 1_555
C27_5 C28_5 1_555 1_555
C30_5 C31_5 1_555 1_555
C35_5 C36_5 1_555 1_555
C36_5 C37_5 1_555 1_555
C40_5 C41_5 1_555 1_555
C41_5 C42_5 1_555 1_555
C49_5 C50_5 1_555 1_555
C52_5 C53_5 1_555 1_555
C53_5 C54_5 1_555 1_555
C54_5 C55_5 1_555 1_555
C58_5 C59_5 1_555 1_555
C64_5 C65_5 1_555 1_555
C67_5 C68_5 1_555 1_555
C68_5 C69_5 1_555 1_555
C69_5 C70_5 1_555 1_555
C72_5 C73_5 1_555 1_555
C78_5 C79_5 1_555 1_555
C82_5 C83_5 1_555 1_555
C83_5 C84_5 1_555 1_555
C89_5 C90_5 1_555 1_555
C90_5 C91_5 1_555 1_555
C93_5 C94_5 1_555 1_555
C94_5 C95_5 1_555 1_555
C95_5 C96_5 1_555 1_555
C101_5 C102_5 1_555 1_555
C102_5 C103_5 1_555 1_555
C106_5 C107_5 1_555 1_555
C107_5 C108_5 1_555 1_555
N3_6 N85 1_555 1_555
C1_6 N73 1_555 1_555
H1_6 C1_6 1_555 1_555
C2_6 N3_6 1_555 1_555
C3_6 C2_6 1_555 1_555
C4_6 C3_6 1_555 1_555
H2_6 C4_6 1_555 1_555
N86_3 N6_6 1_555 1_555
N6_6 C7_6 1_555 1_555
C6_6 N74_3 1_555 1_555
H3_6 C6_6 1_555 1_555
C7_6 C6_6 1_555 1_555
C8_6 C4_6 1_555 1_555
C9_6 C8_6 1_555 1_555
H4_6 C9_6 1_555 1_555
N87_4 N9_6 1_555 1_555
N9_6 C11_6 1_555 1_555
C10_6 N74_7 1_555 1_555
H5_6 C10_6 1_555 1_555
C11_6 C10_6 1_555 1_555
C12_6 C9_6 1_555 1_555
C13_6 C3_6 1_555 1_555
H6_6 C13_6 1_555 1_555
N12_6 N88_3 1_555 1_555
C16_6 N82_5 1_555 1_555
H7_6 C16_6 1_555 1_555
C17_6 N12_6 1_555 1_555
C18_6 C17_6 1_555 1_555
C19_6 C18_6 1_555 1_555
H8_6 C19_6 1_555 1_555
N89_4 N15_6 1_555 1_555
N15_6 C22_6 1_555 1_555
C21_6 N81_8 1_555 1_555
H9_6 C21_6 1_555 1_555
C22_6 C21_6 1_555 1_555
C23_6 C19_6 1_555 1_555
C24_6 C23_6 1_555 1_555
H10_6 C24_6 1_555 1_555
N92_11 N18_6 1_555 1_555
N18_6 C26_6 1_555 1_555
C25_6 N80_6 1_555 1_555
H11_6 C25_6 1_555 1_555
C26_6 C25_6 1_555 1_555
C27_6 C24_6 1_555 1_555
C28_6 C18_6 1_555 1_555
H12_6 C28_6 1_555 1_555
N21_6 N90 1_555 1_555
C30_6 N76 1_555 1_555
H13_6 C30_6 1_555 1_555
C31_6 N21_6 1_555 1_555
C32_6 C31_6 1_555 1_555
C33_6 C32_6 1_555 1_555
H14_6 C33_6 1_555 1_555
N24_6 N91_4 1_555 1_555
C35_6 N77_4 1_555 1_555
H15_6 C35_6 1_555 1_555
C36_6 N24_6 1_555 1_555
C37_6 C33_6 1_555 1_555
C38_6 C37_6 1_555 1_555
H16_6 C38_6 1_555 1_555
N93_7 N27_6 1_555 1_555
N27_6 C40_6 1_555 1_555
C39_6 N78_3 1_555 1_555
H17_6 C39_6 1_555 1_555
C40_6 C39_6 1_555 1_555
C41_6 C38_6 1_555 1_555
C42_6 C32_6 1_555 1_555
H18_6 C42_6 1_555 1_555
N89_8 N30_6 1_555 1_555
N30_6 C45_6 1_555 1_555
C44_6 N76_6 1_555 1_555
H19_6 C44_6 1_555 1_555
C45_6 C44_6 1_555 1_555
C46_6 C45_6 1_555 1_555
C47_6 C46_6 1_555 1_555
H20_6 C47_6 1_555 1_555
N92_3 N33_6 1_555 1_555
N33_6 C49_6 1_555 1_555
C48_6 N77_7 1_555 1_555
H21_6 C48_6 1_555 1_555
C49_6 C48_6 1_555 1_555
C50_6 C47_6 1_555 1_555
C51_6 C50_6 1_555 1_555
H22_6 C51_6 1_555 1_555
N36_6 N93_4 1_555 1_555
C52_6 N79_4 1_555 1_555
H23_6 C52_6 1_555 1_555
C53_6 N36_6 1_555 1_555
C54_6 C51_6 1_555 1_555
C55_6 C46_6 1_555 1_555
H24_6 C55_6 1_555 1_555
N39_6 N94 1_555 1_555
C58_6 N80 1_555 1_555
H25_6 C58_6 1_555 1_555
C59_6 N39_6 1_555 1_555
C60_6 C59_6 1_555 1_555
C61_6 C60_6 1_555 1_555
H26_6 C61_6 1_555 1_555
N88_8 N42_6 1_555 1_555
N42_6 C64_6 1_555 1_555
C63_6 N78_7 1_555 1_555
H27_6 C63_6 1_555 1_555
C64_6 C63_6 1_555 1_555
C65_6 C61_6 1_555 1_555
C66_6 C65_6 1_555 1_555
H28_6 C66_6 1_555 1_555
N45_6 N95_3 1_555 1_555
C67_6 N81_3 1_555 1_555
H29_6 C67_6 1_555 1_555
C68_6 N45_6 1_555 1_555
C69_6 C66_6 1_555 1_555
C70_6 C60_6 1_555 1_555
H30_6 C70_6 1_555 1_555
N48_6 N96 1_555 1_555
C72_6 N82 1_555 1_555
H31_6 C72_6 1_555 1_555
C73_6 N48_6 1_555 1_555
C74_6 C73_6 1_555 1_555
C75_6 C74_6 1_555 1_555
H32_6 C75_6 1_555 1_555
N89_12 N51_6 1_555 1_555
N51_6 C78_6 1_555 1_555
C77_6 N83_7 1_555 1_555
H33_6 C77_6 1_555 1_555
C78_6 C77_6 1_555 1_555
C79_6 C75_6 1_555 1_555
C80_6 C79_6 1_555 1_555
H34_6 C80_6 1_555 1_555
N92_7 N54_6 1_555 1_555
N54_6 C82_6 1_555 1_555
C81_6 N84_8 1_555 1_555
H35_6 C81_6 1_555 1_555
C82_6 C81_6 1_555 1_555
C83_6 C80_6 1_555 1_555
C84_6 C74_6 1_555 1_555
H36_6 C84_6 1_555 1_555
N96_6 N57_6 1_555 1_555
N57_6 C86_6 1_555 1_555
C85_6 N78_11 1_555 1_555
H37_6 C85_6 1_555 1_555
C86_6 C85_6 1_555 1_555
C87_6 C86_6 1_555 1_555
C88_6 C87_6 1_555 1_555
H38_6 C88_6 1_555 1_555
N60_6 N95_7 1_555 1_555
C89_6 N83_4 1_555 1_555
H39_6 C89_6 1_555 1_555
C90_6 N60_6 1_555 1_555
C91_6 C88_6 1_555 1_555
C92_6 C91_6 1_555 1_555
H40_6 C92_6 1_555 1_555
N63_6 N94_5 1_555 1_555
C93_6 N84_3 1_555 1_555
H41_6 C93_6 1_555 1_555
C94_6 N63_6 1_555 1_555
C95_6 C92_6 1_555 1_555
C96_6 C87_6 1_555 1_555
H42_6 C96_6 1_555 1_555
N85_6 N66_6 1_555 1_555
N66_6 C98_6 1_555 1_555
C97_6 N75_8 1_555 1_555
H43_6 C97_6 1_555 1_555
C98_6 C97_6 1_555 1_555
C99_6 C98_6 1_555 1_555
C100_6 C99_6 1_555 1_555
H44_6 C100_6 1_555 1_555
N69_6 N86_8 1_555 1_555
C101_6 N75_4 1_555 1_555
H45_6 C101_6 1_555 1_555
C102_6 N69_6 1_555 1_555
C103_6 C100_6 1_555 1_555
C104_6 C103_6 1_555 1_555
H46_6 C104_6 1_555 1_555
N87_7 N72_6 1_555 1_555
N72_6 C106_6 1_555 1_555
C105_6 N75_12 1_555 1_555
H47_6 C105_6 1_555 1_555
C106_6 C105_6 1_555 1_555
C107_6 C104_6 1_555 1_555
C108_6 C99_6 1_555 1_555
H48_6 C108_6 1_555 1_555
C1_6 C2_6 1_555 1_555
C7_6 C8_6 1_555 1_555
C11_6 C12_6 1_555 1_555
C12_6 C13_6 1_555 1_555
C16_6 C17_6 1_555 1_555
C22_6 C23_6 1_555 1_555
C26_6 C27_6 1_555 1_555
C27_6 C28_6 1_555 1_555
C30_6 C31_6 1_555 1_555
C35_6 C36_6 1_555 1_555
C36_6 C37_6 1_555 1_555
C40_6 C41_6 1_555 1_555
C41_6 C42_6 1_555 1_555
C49_6 C50_6 1_555 1_555
C52_6 C53_6 1_555 1_555
C53_6 C54_6 1_555 1_555
C54_6 C55_6 1_555 1_555
C58_6 C59_6 1_555 1_555
C64_6 C65_6 1_555 1_555
C67_6 C68_6 1_555 1_555
C68_6 C69_6 1_555 1_555
C69_6 C70_6 1_555 1_555
C72_6 C73_6 1_555 1_555
C78_6 C79_6 1_555 1_555
C82_6 C83_6 1_555 1_555
C83_6 C84_6 1_555 1_555
C89_6 C90_6 1_555 1_555
C90_6 C91_6 1_555 1_555
C93_6 C94_6 1_555 1_555
C94_6 C95_6 1_555 1_555
C95_6 C96_6 1_555 1_555
C101_6 C102_6 1_555 1_555
C102_6 C103_6 1_555 1_555
C106_6 C107_6 1_555 1_555
C107_6 C108_6 1_555 1_555
N3_7 N85_4 1_555 1_555
C1_7 N73_4 1_555 1_555
H1_7 C1_7 1_555 1_555
C2_7 N3_7 1_555 1_555
C3_7 C2_7 1_555 1_555
C4_7 C3_7 1_555 1_555
H2_7 C4_7 1_555 1_555
N86_2 N6_7 1_555 1_555
N6_7 C7_7 1_555 1_555
C6_7 N74_2 1_555 1_555
H3_7 C6_7 1_555 1_555
C7_7 C6_7 1_555 1_555
C8_7 C4_7 1_555 1_555
C9_7 C8_7 1_555 1_555
H4_7 C9_7 1_555 1_555
N87 N9_7 1_555 1_555
N9_7 C11_7 1_555 1_555
C10_7 N74_8 1_555 1_555
H5_7 C10_7 1_555 1_555
C11_7 C10_7 1_555 1_555
C12_7 C9_7 1_555 1_555
C13_7 C3_7 1_555 1_555
H6_7 C13_7 1_555 1_555
N12_7 N88_2 1_555 1_555
C16_7 N82_6 1_555 1_555
H7_7 C16_7 1_555 1_555
C17_7 N12_7 1_555 1_555
C18_7 C17_7 1_555 1_555
C19_7 C18_7 1_555 1_555
H8_7 C19_7 1_555 1_555
N89 N15_7 1_555 1_555
N15_7 C22_7 1_555 1_555
C21_7 N81_6 1_555 1_555
H9_7 C21_7 1_555 1_555
C22_7 C21_7 1_555 1_555
C23_7 C19_7 1_555 1_555
C24_7 C23_7 1_555 1_555
H10_7 C24_7 1_555 1_555
N92_9 N18_7 1_555 1_555
N18_7 C26_7 1_555 1_555
C25_7 N80_8 1_555 1_555
H11_7 C25_7 1_555 1_555
C26_7 C25_7 1_555 1_555
C27_7 C24_7 1_555 1_555
C28_7 C18_7 1_555 1_555
H12_7 C28_7 1_555 1_555
N21_7 N90_4 1_555 1_555
C30_7 N76_4 1_555 1_555
H13_7 C30_7 1_555 1_555
C31_7 N21_7 1_555 1_555
C32_7 C31_7 1_555 1_555
C33_7 C32_7 1_555 1_555
H14_7 C33_7 1_555 1_555
N24_7 N91 1_555 1_555
C35_7 N77 1_555 1_555
H15_7 C35_7 1_555 1_555
C36_7 N24_7 1_555 1_555
C37_7 C33_7 1_555 1_555
C38_7 C37_7 1_555 1_555
H16_7 C38_7 1_555 1_555
N93_5 N27_7 1_555 1_555
N27_7 C40_7 1_555 1_555
C39_7 N78_2 1_555 1_555
H17_7 C39_7 1_555 1_555
C40_7 C39_7 1_555 1_555
C41_7 C38_7 1_555 1_555
C42_7 C32_7 1_555 1_555
H18_7 C42_7 1_555 1_555
N89_7 N30_7 1_555 1_555
N30_7 C45_7 1_555 1_555
C44_7 N76_8 1_555 1_555
H19_7 C44_7 1_555 1_555
C45_7 C44_7 1_555 1_555
C46_7 C45_7 1_555 1_555
C47_7 C46_7 1_555 1_555
H20_7 C47_7 1_555 1_555
N92_2 N33_7 1_555 1_555
N33_7 C49_7 1_555 1_555
C48_7 N77_5 1_555 1_555
H21_7 C48_7 1_555 1_555
C49_7 C48_7 1_555 1_555
C50_7 C47_7 1_555 1_555
C51_7 C50_7 1_555 1_555
H22_7 C51_7 1_555 1_555
N36_7 N93 1_555 1_555
C52_7 N79 1_555 1_555
H23_7 C52_7 1_555 1_555
C53_7 N36_7 1_555 1_555
C54_7 C51_7 1_555 1_555
C55_7 C46_7 1_555 1_555
H24_7 C55_7 1_555 1_555
N39_7 N94_4 1_555 1_555
C58_7 N80_4 1_555 1_555
H25_7 C58_7 1_555 1_555
C59_7 N39_7 1_555 1_555
C60_7 C59_7 1_555 1_555
C61_7 C60_7 1_555 1_555
H26_7 C61_7 1_555 1_555
N88_6 N42_7 1_555 1_555
N42_7 C64_7 1_555 1_555
C63_7 N78_8 1_555 1_555
H27_7 C63_7 1_555 1_555
C64_7 C63_7 1_555 1_555
C65_7 C61_7 1_555 1_555
C66_7 C65_7 1_555 1_555
H28_7 C66_7 1_555 1_555
N45_7 N95_2 1_555 1_555
C67_7 N81_2 1_555 1_555
H29_7 C67_7 1_555 1_555
C68_7 N45_7 1_555 1_555
C69_7 C66_7 1_555 1_555
C70_7 C60_7 1_555 1_555
H30_7 C70_7 1_555 1_555
N48_7 N96_4 1_555 1_555
C72_7 N82_4 1_555 1_555
H31_7 C72_7 1_555 1_555
C73_7 N48_7 1_555 1_555
C74_7 C73_7 1_555 1_555
C75_7 C74_7 1_555 1_555
H32_7 C75_7 1_555 1_555
N89_10 N51_7 1_555 1_555
N51_7 C78_7 1_555 1_555
C77_7 N83_5 1_555 1_555
H33_7 C77_7 1_555 1_555
C78_7 C77_7 1_555 1_555
C79_7 C75_7 1_555 1_555
C80_7 C79_7 1_555 1_555
H34_7 C80_7 1_555 1_555
N92_8 N54_7 1_555 1_555
N54_7 C82_7 1_555 1_555
C81_7 N84_6 1_555 1_555
H35_7 C81_7 1_555 1_555
C82_7 C81_7 1_555 1_555
C83_7 C80_7 1_555 1_555
C84_7 C74_7 1_555 1_555
H36_7 C84_7 1_555 1_555
N96_8 N57_7 1_555 1_555
N57_7 C86_7 1_555 1_555
C85_7 N78_9 1_555 1_555
H37_7 C85_7 1_555 1_555
C86_7 C85_7 1_555 1_555
C87_7 C86_7 1_555 1_555
C88_7 C87_7 1_555 1_555
H38_7 C88_7 1_555 1_555
N60_7 N95_8 1_555 1_555
C89_7 N83 1_555 1_555
H39_7 C89_7 1_555 1_555
C90_7 N60_7 1_555 1_555
C91_7 C88_7 1_555 1_555
C92_7 C91_7 1_555 1_555
H40_7 C92_7 1_555 1_555
N63_7 N94_6 1_555 1_555
C93_7 N84_2 1_555 1_555
H41_7 C93_7 1_555 1_555
C94_7 N63_7 1_555 1_555
C95_7 C92_7 1_555 1_555
C96_7 C87_7 1_555 1_555
H42_7 C96_7 1_555 1_555
N85_8 N66_7 1_555 1_555
N66_7 C98_7 1_555 1_555
C97_7 N75_7 1_555 1_555
H43_7 C97_7 1_555 1_555
C98_7 C97_7 1_555 1_555
C99_7 C98_7 1_555 1_555
C100_7 C99_7 1_555 1_555
H44_7 C100_7 1_555 1_555
N69_7 N86_6 1_555 1_555
C101_7 N75 1_555 1_555
H45_7 C101_7 1_555 1_555
C102_7 N69_7 1_555 1_555
C103_7 C100_7 1_555 1_555
C104_7 C103_7 1_555 1_555
H46_7 C104_7 1_555 1_555
N87_5 N72_7 1_555 1_555
N72_7 C106_7 1_555 1_555
C105_7 N75_10 1_555 1_555
H47_7 C105_7 1_555 1_555
C106_7 C105_7 1_555 1_555
C107_7 C104_7 1_555 1_555
C108_7 C99_7 1_555 1_555
H48_7 C108_7 1_555 1_555
C1_7 C2_7 1_555 1_555
C7_7 C8_7 1_555 1_555
C11_7 C12_7 1_555 1_555
C12_7 C13_7 1_555 1_555
C16_7 C17_7 1_555 1_555
C22_7 C23_7 1_555 1_555
C26_7 C27_7 1_555 1_555
C27_7 C28_7 1_555 1_555
C30_7 C31_7 1_555 1_555
C35_7 C36_7 1_555 1_555
C36_7 C37_7 1_555 1_555
C40_7 C41_7 1_555 1_555
C41_7 C42_7 1_555 1_555
C49_7 C50_7 1_555 1_555
C52_7 C53_7 1_555 1_555
C53_7 C54_7 1_555 1_555
C54_7 C55_7 1_555 1_555
C58_7 C59_7 1_555 1_555
C64_7 C65_7 1_555 1_555
C67_7 C68_7 1_555 1_555
C68_7 C69_7 1_555 1_555
C69_7 C70_7 1_555 1_555
C72_7 C73_7 1_555 1_555
C78_7 C79_7 1_555 1_555
C82_7 C83_7 1_555 1_555
C83_7 C84_7 1_555 1_555
C89_7 C90_7 1_555 1_555
C90_7 C91_7 1_555 1_555
C93_7 C94_7 1_555 1_555
C94_7 C95_7 1_555 1_555
C95_7 C96_7 1_555 1_555
C101_7 C102_7 1_555 1_555
C102_7 C103_7 1_555 1_555
C106_7 C107_7 1_555 1_555
C107_7 C108_7 1_555 1_555
N3_8 N85_3 1_555 1_555
C1_8 N73_3 1_555 1_555
H1_8 C1_8 1_555 1_555
C2_8 N3_8 1_555 1_555
C3_8 C2_8 1_555 1_555
C4_8 C3_8 1_555 1_555
H2_8 C4_8 1_555 1_555
N86 N6_8 1_555 1_555
N6_8 C7_8 1_555 1_555
C6_8 N74 1_555 1_555
H3_8 C6_8 1_555 1_555
C7_8 C6_8 1_555 1_555
C8_8 C4_8 1_555 1_555
C9_8 C8_8 1_555 1_555
H4_8 C9_8 1_555 1_555
N87_2 N9_8 1_555 1_555
N9_8 C11_8 1_555 1_555
C10_8 N74_6 1_555 1_555
H5_8 C10_8 1_555 1_555
C11_8 C10_8 1_555 1_555
C12_8 C9_8 1_555 1_555
C13_8 C3_8 1_555 1_555
H6_8 C13_8 1_555 1_555
N12_8 N88 1_555 1_555
C16_8 N82_8 1_555 1_555
H7_8 C16_8 1_555 1_555
C17_8 N12_8 1_555 1_555
C18_8 C17_8 1_555 1_555
C19_8 C18_8 1_555 1_555
H8_8 C19_8 1_555 1_555
N89_2 N15_8 1_555 1_555
N15_8 C22_8 1_555 1_555
C21_8 N81_5 1_555 1_555
H9_8 C21_8 1_555 1_555
C22_8 C21_8 1_555 1_555
C23_8 C19_8 1_555 1_555
C24_8 C23_8 1_555 1_555
H10_8 C24_8 1_555 1_555
N92_12 N18_8 1_555 1_555
N18_8 C26_8 1_555 1_555
C25_8 N80_7 1_555 1_555
H11_8 C25_8 1_555 1_555
C26_8 C25_8 1_555 1_555
C27_8 C24_8 1_555 1_555
C28_8 C18_8 1_555 1_555
H12_8 C28_8 1_555 1_555
N21_8 N90_3 1_555 1_555
C30_8 N76_3 1_555 1_555
H13_8 C30_8 1_555 1_555
C31_8 N21_8 1_555 1_555
C32_8 C31_8 1_555 1_555
C33_8 C32_8 1_555 1_555
H14_8 C33_8 1_555 1_555
N24_8 N91_2 1_555 1_555
C35_8 N77_2 1_555 1_555
H15_8 C35_8 1_555 1_555
C36_8 N24_8 1_555 1_555
C37_8 C33_8 1_555 1_555
C38_8 C37_8 1_555 1_555
H16_8 C38_8 1_555 1_555
N93_6 N27_8 1_555 1_555
N27_8 C40_8 1_555 1_555
C39_8 N78 1_555 1_555
H17_8 C39_8 1_555 1_555
C40_8 C39_8 1_555 1_555
C41_8 C38_8 1_555 1_555
C42_8 C32_8 1_555 1_555
H18_8 C42_8 1_555 1_555
N89_5 N30_8 1_555 1_555
N30_8 C45_8 1_555 1_555
C44_8 N76_7 1_555 1_555
H19_8 C44_8 1_555 1_555
C45_8 C44_8 1_555 1_555
C46_8 C45_8 1_555 1_555
C47_8 C46_8 1_555 1_555
H20_8 C47_8 1_555 1_555
N92 N33_8 1_555 1_555
N33_8 C49_8 1_555 1_555
C48_8 N77_6 1_555 1_555
H21_8 C48_8 1_555 1_555
C49_8 C48_8 1_555 1_555
C50_8 C47_8 1_555 1_555
C51_8 C50_8 1_555 1_555
H22_8 C51_8 1_555 1_555
N36_8 N93_2 1_555 1_555
C52_8 N79_2 1_555 1_555
H23_8 C52_8 1_555 1_555
C53_8 N36_8 1_555 1_555
C54_8 C51_8 1_555 1_555
C55_8 C46_8 1_555 1_555
H24_8 C55_8 1_555 1_555
N39_8 N94_3 1_555 1_555
C58_8 N80_3 1_555 1_555
H25_8 C58_8 1_555 1_555
C59_8 N39_8 1_555 1_555
C60_8 C59_8 1_555 1_555
C61_8 C60_8 1_555 1_555
H26_8 C61_8 1_555 1_555
N88_5 N42_8 1_555 1_555
N42_8 C64_8 1_555 1_555
C63_8 N78_6 1_555 1_555
H27_8 C63_8 1_555 1_555
C64_8 C63_8 1_555 1_555
C65_8 C61_8 1_555 1_555
C66_8 C65_8 1_555 1_555
H28_8 C66_8 1_555 1_555
N45_8 N95 1_555 1_555
C67_8 N81 1_555 1_555
H29_8 C67_8 1_555 1_555
C68_8 N45_8 1_555 1_555
C69_8 C66_8 1_555 1_555
C70_8 C60_8 1_555 1_555
H30_8 C70_8 1_555 1_555
N48_8 N96_3 1_555 1_555
C72_8 N82_3 1_555 1_555
H31_8 C72_8 1_555 1_555
C73_8 N48_8 1_555 1_555
C74_8 C73_8 1_555 1_555
C75_8 C74_8 1_555 1_555
H32_8 C75_8 1_555 1_555
N89_11 N51_8 1_555 1_555
N51_8 C78_8 1_555 1_555
C77_8 N83_6 1_555 1_555
H33_8 C77_8 1_555 1_555
C78_8 C77_8 1_555 1_555
C79_8 C75_8 1_555 1_555
C80_8 C79_8 1_555 1_555
H34_8 C80_8 1_555 1_555
N92_6 N54_8 1_555 1_555
N54_8 C82_8 1_555 1_555
C81_8 N84_5 1_555 1_555
H35_8 C81_8 1_555 1_555
C82_8 C81_8 1_555 1_555
C83_8 C80_8 1_555 1_555
C84_8 C74_8 1_555 1_555
H36_8 C84_8 1_555 1_555
N96_7 N57_8 1_555 1_555
N57_8 C86_8 1_555 1_555
C85_8 N78_12 1_555 1_555
H37_8 C85_8 1_555 1_555
C86_8 C85_8 1_555 1_555
C87_8 C86_8 1_555 1_555
C88_8 C87_8 1_555 1_555
H38_8 C88_8 1_555 1_555
N60_8 N95_6 1_555 1_555
C89_8 N83_2 1_555 1_555
H39_8 C89_8 1_555 1_555
C90_8 N60_8 1_555 1_555
C91_8 C88_8 1_555 1_555
C92_8 C91_8 1_555 1_555
H40_8 C92_8 1_555 1_555
N63_8 N94_8 1_555 1_555
C93_8 N84 1_555 1_555
H41_8 C93_8 1_555 1_555
C94_8 N63_8 1_555 1_555
C95_8 C92_8 1_555 1_555
C96_8 C87_8 1_555 1_555
H42_8 C96_8 1_555 1_555
N85_7 N66_8 1_555 1_555
N66_8 C98_8 1_555 1_555
C97_8 N75_5 1_555 1_555
H43_8 C97_8 1_555 1_555
C98_8 C97_8 1_555 1_555
C99_8 C98_8 1_555 1_555
C100_8 C99_8 1_555 1_555
H44_8 C100_8 1_555 1_555
N69_8 N86_5 1_555 1_555
C101_8 N75_2 1_555 1_555
H45_8 C101_8 1_555 1_555
C102_8 N69_8 1_555 1_555
C103_8 C100_8 1_555 1_555
C104_8 C103_8 1_555 1_555
H46_8 C104_8 1_555 1_555
N87_6 N72_8 1_555 1_555
N72_8 C106_8 1_555 1_555
C105_8 N75_11 1_555 1_555
H47_8 C105_8 1_555 1_555
C106_8 C105_8 1_555 1_555
C107_8 C104_8 1_555 1_555
C108_8 C99_8 1_555 1_555
H48_8 C108_8 1_555 1_555
C1_8 C2_8 1_555 1_555
C7_8 C8_8 1_555 1_555
C11_8 C12_8 1_555 1_555
C12_8 C13_8 1_555 1_555
C16_8 C17_8 1_555 1_555
C22_8 C23_8 1_555 1_555
C26_8 C27_8 1_555 1_555
C27_8 C28_8 1_555 1_555
C30_8 C31_8 1_555 1_555
C35_8 C36_8 1_555 1_555
C36_8 C37_8 1_555 1_555
C40_8 C41_8 1_555 1_555
C41_8 C42_8 1_555 1_555
C49_8 C50_8 1_555 1_555
C52_8 C53_8 1_555 1_555
C53_8 C54_8 1_555 1_555
C54_8 C55_8 1_555 1_555
C58_8 C59_8 1_555 1_555
C64_8 C65_8 1_555 1_555
C67_8 C68_8 1_555 1_555
C68_8 C69_8 1_555 1_555
C69_8 C70_8 1_555 1_555
C72_8 C73_8 1_555 1_555
C78_8 C79_8 1_555 1_555
C82_8 C83_8 1_555 1_555
C83_8 C84_8 1_555 1_555
C89_8 C90_8 1_555 1_555
C90_8 C91_8 1_555 1_555
C93_8 C94_8 1_555 1_555
C94_8 C95_8 1_555 1_555
C95_8 C96_8 1_555 1_555
C101_8 C102_8 1_555 1_555
C102_8 C103_8 1_555 1_555
C106_8 C107_8 1_555 1_555
C107_8 C108_8 1_555 1_555

#END
