
###############################################################################
#
# This file contains modified crystal structure data generated from the
# MOF subset of the Cambridge Structural Database (CSD) v543 
# hosted by the Cambridge Crystallographic Data Centre (CCDC).
#
# This work is licensed under the Creative Commons
# Attribution-NonCommercial-ShareAlike 4.0 International License.
# To view a copy of this license, visit
# http://creativecommons.org/licenses/by-nc-sa/4.0/
# or send a letter to
# Creative Commons, PO Box 1866, Mountain View, CA 94042, USA.
#
# CIF created using the CSD Python API on 29 September 2022
# The structure has been converted into the P1 space group
# The structure has a 3D framework
# The original CSD entry OLODIE is in the orthorhombic crystal system
# The framework has been calculated to contain at least 10.0% void space
# The void calculation uses a probe of radius 1.32A, grid spacing 0.4
#
###############################################################################

data_OLODIE
_chemical_formula_moiety         '(C144 H128 N96 Zn16)n'
_symmetry_cell_setting           triclinic
_symmetry_space_group_name_H-M   'P 1'
_symmetry_Int_Tables_number      1
_space_group_name_Hall           'P 1'
loop_
_symmetry_equiv_pos_site_id
_symmetry_equiv_pos_as_xyz
1 x,y,z
_cell_length_a                   16.2940(4)
_cell_length_b                   16.6579(4)
_cell_length_c                   19.1723(4)
_cell_angle_alpha                90
_cell_angle_beta                 90
_cell_angle_gamma                90
_cell_volume                     5203.82
loop_
_atom_site_label
_atom_site_type_symbol
_atom_site_fract_x
_atom_site_fract_y
_atom_site_fract_z
C10 C 0.0307(2) 0.1844(3) 0.74783(17)
H5 H 0.0739 0.2075 0.7754
H6 H 0.0420 0.1285 0.7401
H7 H 0.0276 0.2117 0.7038
Zn3 Zn 0.03904(2) 0.27212(2) 0.90240(2)
Zn1 Zn 0.53904(2) 0.27212(2) 0.59760(2)
Zn2 Zn 0.86218(2) 0.11860(2) 0.66596(2)
N1 N 0.43528(15) 0.32765(15) 0.40702(12)
C1 C 0.46808(19) 0.35170(19) 0.46599(15)
N2 N 0.50428(15) 0.29160(15) 0.49835(12)
N3 N 0.4935(2) 0.22686(17) 0.45717(15)
N4 N 0.90020(15) 0.00304(14) 0.66337(13)
N7 N 0.88038(14) 0.16621(15) 0.75951(12)
N8 N 0.94509(15) 0.22662(15) 0.84875(12)
N9 N 0.63080(15) 0.19361(14) 0.60009(12)
N10 N 0.74600(14) 0.13089(14) 0.63457(12)
N11 N 0.4524(2) 0.24832(18) 0.40246(15)
C3 C 0.82232(18) 0.18292(19) 0.81050(14)
C4 C 0.7388(2) 0.1679(3) 0.81294(17)
H1 H 0.7121 0.1427 0.7761
C5 C 0.6966(2) 0.1916(4) 0.8717(2)
H2 H 0.6405 0.1819 0.8747
C6 C 0.7366(2) 0.2299(4) 0.9268(2)
H3 H 0.7066 0.2450 0.9659
C7 C 0.8193(2) 0.2456(3) 0.92477(18)
H4 H 0.8455 0.2719 0.9614
C8 C 0.86268(17) 0.22079(19) 0.86553(15)
C9 C 0.95159(17) 0.19284(18) 0.78512(14)
C11 C 0.61617(19) 0.11096(18) 0.59862(16)
C12 C 0.5456(2) 0.0686(2) 0.5811(3)
H8 H 0.4989 0.0946 0.5646
C16 C 0.68737(18) 0.07254(18) 0.62136(16)
C17 C 0.70815(16) 0.20098(17) 0.62238(14)
C18 C 0.7480(2) 0.2800(2) 0.6334(2)
H12 H 0.8032 0.2721 0.6494
H13 H 0.7488 0.3093 0.5902
H14 H 0.7178 0.3099 0.6677
H15 H 0.463(3) 0.402(3) 0.485(2)
Zn5 Zn 0.36218(2) 0.38140(2) 0.33404(2)
N13 N 0.93528(15) 0.17235(15) 0.59298(12)
N14 N 0.56548(16) 0.38074(15) 0.63875(14)
N15 N 0.44509(15) 0.22662(15) 0.65125(12)
C2 C 0.9126(2) 0.95072(18) 0.61308(16)
N5 N 0.93452(16) 0.88074(15) 0.63875(14)
N6 N 0.9343(4) 0.8905(2) 0.70783(17)
N12 N 0.9144(3) 0.9637(2) 0.72239(16)
C13 C 0.5480(3) 0.9863(2) 0.5893(3)
H9 H 0.5016 0.9560 0.5791
C14 C 0.6189(3) 0.9478(2) 0.6127(4)
H10 H 0.6185 0.8922 0.6174
C15 C 0.6893(2) 0.9894(2) 0.6290(3)
H11 H 0.7363 0.9631 0.6444
H16 H 0.900(3) 0.962(3) 0.562(2)
Zn4 Zn 0.96096(2) 0.77212(2) 0.59760(2)
H8_2 H 0.0011 0.9054 0.0646
N15_2 N 0.05491(15) 0.77338(15) 0.15125(12)
N1_2 N 0.06472(15) 0.67235(15) 0.90702(12)
C1_2 C 0.03192(19) 0.64830(19) 0.96599(15)
N3_2 N 0.0065(2) 0.77314(17) 0.95717(15)
N11_2 N 0.0476(2) 0.75168(18) 0.90246(15)
H15_2 H 0.037(3) 0.598(3) 0.985(2)
Zn5_2 Zn 0.13782(2) 0.61860(2) 0.83404(2)
C2_2 C 0.5874(2) 0.04928(18) 0.11308(16)
N5_2 N 0.56548(16) 0.11926(15) 0.13875(14)
N6_2 N 0.5657(4) 0.1095(2) 0.20783(17)
N12_2 N 0.5856(3) 0.0363(2) 0.22239(16)
C13_2 C 0.9520(3) 0.0137(2) 0.0893(3)
H9_2 H 0.9984 0.0440 0.0791
C14_2 C 0.8811(3) 0.0522(2) 0.1127(4)
H10_2 H 0.8815 0.1078 0.1174
C15_2 C 0.8107(2) 0.0106(2) 0.1290(3)
H11_2 H 0.7637 0.0369 0.1444
H16_2 H 0.600(3) 0.038(3) 0.062(2)
Zn4_2 Zn 0.53904(2) 0.22788(2) 0.09760(2)
Zn1_2 Zn 0.96096(2) 0.72788(2) 0.09760(2)
Zn2_2 Zn 0.63782(2) 0.88140(2) 0.16596(2)
N4_2 N 0.59980(15) 0.99696(14) 0.16337(13)
N7_2 N 0.61962(14) 0.83379(15) 0.25951(12)
N8_2 N 0.55491(15) 0.77338(15) 0.34875(12)
N9_2 N 0.86920(15) 0.80639(14) 0.10009(12)
N10_2 N 0.75400(14) 0.86911(14) 0.13457(12)
C3_2 C 0.67768(18) 0.81708(19) 0.31050(14)
C4_2 C 0.7612(2) 0.8321(3) 0.31294(17)
H1_2 H 0.7879 0.8573 0.2761
C5_2 C 0.8034(2) 0.8084(4) 0.3717(2)
H2_2 H 0.8595 0.8181 0.3747
C6_2 C 0.7634(2) 0.7701(4) 0.4268(2)
H3_2 H 0.7934 0.7550 0.4659
C7_2 C 0.6807(2) 0.7544(3) 0.42477(18)
H4_2 H 0.6545 0.7281 0.4614
C8_2 C 0.63732(17) 0.77921(19) 0.36553(15)
C9_2 C 0.54841(17) 0.80716(18) 0.28512(14)
C10_2 C 0.4693(2) 0.8156(3) 0.24783(17)
H5_2 H 0.4261 0.7925 0.2754
H6_2 H 0.4580 0.8715 0.2401
H7_2 H 0.4724 0.7883 0.2038
C11_2 C 0.88383(19) 0.88904(18) 0.09862(16)
C12_2 C 0.9544(2) 0.9314(2) 0.0811(3)
C16_2 C 0.81263(18) 0.92746(18) 0.12136(16)
C17_2 C 0.79185(16) 0.79902(17) 0.12238(14)
C18_2 C 0.7520(2) 0.7200(2) 0.1334(2)
H12_2 H 0.6968 0.7279 0.1494
H13_2 H 0.7512 0.6907 0.0902
H14_2 H 0.7822 0.6901 0.1677
Zn3_2 Zn 0.46096(2) 0.72788(2) 0.40240(2)
N13_2 N 0.56472(15) 0.82765(15) 0.09298(12)
N14_2 N 0.93452(16) 0.61926(15) 0.13875(14)
C1_3 C 0.53192(19) 0.85170(19) 0.03401(15)
N2_2 N 0.49572(15) 0.79160(15) 0.00165(12)
N3_3 N 0.5065(2) 0.72686(17) 0.04283(15)
N11_3 N 0.5476(2) 0.74832(18) 0.09754(15)
H15_3 H 0.537(3) 0.902(3) 0.015(2)
Zn1_3 Zn 0.46096(2) 0.77212(2) 0.90240(2)
N4_3 N 0.09980(15) 0.50304(14) 0.83663(13)
C2_3 C 0.0874(2) 0.45072(18) 0.88692(16)
N5_3 N 0.06548(16) 0.38074(15) 0.86125(14)
N6_3 N 0.0657(4) 0.3905(2) 0.79217(17)
N7_3 N 0.11962(14) 0.66621(15) 0.74049(12)
N8_3 N 0.05491(15) 0.72662(15) 0.65125(12)
N9_3 N 0.36920(15) 0.69361(14) 0.89991(12)
N10_3 N 0.25400(14) 0.63089(14) 0.86543(12)
N12_3 N 0.0856(3) 0.4637(2) 0.77761(16)
C3_3 C 0.17768(18) 0.68292(19) 0.68950(14)
C4_3 C 0.2612(2) 0.6679(3) 0.68706(17)
H1_3 H 0.2879 0.6427 0.7239
C5_3 C 0.3034(2) 0.6916(4) 0.6283(2)
H2_3 H 0.3595 0.6819 0.6253
C6_3 C 0.2634(2) 0.7299(4) 0.5732(2)
H3_3 H 0.2934 0.7450 0.5341
C7_3 C 0.1807(2) 0.7456(3) 0.57523(18)
H4_3 H 0.1545 0.7719 0.5386
C8_3 C 0.13732(17) 0.72079(19) 0.63447(15)
C9_3 C 0.04841(17) 0.69284(18) 0.71488(14)
C11_3 C 0.38383(19) 0.61096(18) 0.90138(16)
C12_3 C 0.4544(2) 0.5686(2) 0.9189(3)
H8_3 H 0.5011 0.5946 0.9354
C13_3 C 0.4520(3) 0.4863(2) 0.9107(3)
H9_3 H 0.4984 0.4560 0.9209
C14_3 C 0.3811(3) 0.4478(2) 0.8873(4)
H10_3 H 0.3815 0.3922 0.8826
C15_3 C 0.3107(2) 0.4894(2) 0.8710(3)
H11_3 H 0.2637 0.4631 0.8556
C16_3 C 0.31263(18) 0.57254(18) 0.87864(16)
C17_3 C 0.29185(16) 0.70098(17) 0.87762(14)
C18_3 C 0.2520(2) 0.7800(2) 0.8666(2)
H12_3 H 0.1968 0.7721 0.8506
H13_3 H 0.2512 0.8093 0.9098
H14_3 H 0.2822 0.8099 0.8323
H16_3 H 0.100(3) 0.462(3) 0.938(2)
N14_3 N 0.43452(16) 0.88074(15) 0.86125(14)
N15_3 N 0.55491(15) 0.72662(15) 0.84875(12)
C10_3 C 0.9693(2) 0.6844(3) 0.75217(17)
H5_3 H 0.9261 0.7075 0.7246
H6_3 H 0.9580 0.6285 0.7599
H7_3 H 0.9724 0.7117 0.7962
Zn1_4 Zn 0.03904(2) 0.22788(2) 0.40240(2)
N2_3 N 0.00428(15) 0.20840(15) 0.50165(12)
N4_4 N 0.40020(15) 0.49696(14) 0.33663(13)
C2_4 C 0.4126(2) 0.54928(18) 0.38692(16)
N5_4 N 0.43452(16) 0.61926(15) 0.36125(14)
N6_4 N 0.4343(4) 0.6095(2) 0.29217(17)
N7_4 N 0.38038(14) 0.33379(15) 0.24049(12)
N8_4 N 0.44509(15) 0.27338(15) 0.15125(12)
N9_4 N 0.13080(15) 0.30639(14) 0.39991(12)
N10_4 N 0.24600(14) 0.36911(14) 0.36543(12)
N12_4 N 0.4144(3) 0.5363(2) 0.27761(16)
C3_4 C 0.32232(18) 0.31708(19) 0.18950(14)
C4_4 C 0.2388(2) 0.3321(3) 0.18706(17)
H1_4 H 0.2121 0.3573 0.2239
C5_4 C 0.1966(2) 0.3084(4) 0.1283(2)
H2_4 H 0.1405 0.3181 0.1253
C6_4 C 0.2366(2) 0.2701(4) 0.0732(2)
H3_4 H 0.2066 0.2550 0.0341
C7_4 C 0.3193(2) 0.2544(3) 0.07523(18)
H4_4 H 0.3455 0.2281 0.0386
C8_4 C 0.36268(17) 0.27921(19) 0.13447(15)
C9_4 C 0.45159(17) 0.30716(18) 0.21488(14)
C10_4 C 0.5307(2) 0.3156(3) 0.25217(17)
H5_4 H 0.5739 0.2925 0.2246
H6_4 H 0.5420 0.3715 0.2599
H7_4 H 0.5276 0.2883 0.2962
C11_4 C 0.11617(19) 0.38904(18) 0.40138(16)
C12_4 C 0.0456(2) 0.4314(2) 0.4189(3)
C13_4 C 0.0480(3) 0.5137(2) 0.4107(3)
H9_4 H 0.0016 0.5440 0.4209
C14_4 C 0.1189(3) 0.5522(2) 0.3873(4)
H10_4 H 0.1185 0.6078 0.3826
C15_4 C 0.1893(2) 0.5106(2) 0.3710(3)
H11_4 H 0.2363 0.5369 0.3556
C16_4 C 0.18737(18) 0.42746(18) 0.37864(16)
C17_4 C 0.20815(16) 0.29902(17) 0.37762(14)
C18_4 C 0.2480(2) 0.2200(2) 0.3666(2)
H12_4 H 0.3032 0.2279 0.3506
H13_4 H 0.2488 0.1907 0.4098
H14_4 H 0.2178 0.1901 0.3323
H16_4 H 0.400(3) 0.538(3) 0.438(2)
N14_4 N 0.06548(16) 0.11926(15) 0.36125(14)
C1_4 C 0.96808(19) 0.14830(19) 0.53401(15)
N3_4 N 0.9935(2) 0.27314(17) 0.54283(15)
N11_4 N 0.9524(2) 0.25168(18) 0.59754(15)
H8_4 H 0.9989 0.4054 0.4354
H15_4 H 0.963(3) 0.098(3) 0.515(2)
N15_4 N 0.94509(15) 0.27338(15) 0.34875(12)
C2_5 C 0.0874(2) 0.04928(18) 0.38692(16)
N6_5 N 0.0657(4) 0.1095(2) 0.29217(17)
N12_5 N 0.0856(3) 0.0363(2) 0.27761(16)
C13_5 C 0.4520(3) 0.0137(2) 0.4107(3)
H9_5 H 0.4984 0.0440 0.4209
C14_5 C 0.3811(3) 0.0522(2) 0.3873(4)
H10_5 H 0.3815 0.1078 0.3826
C15_5 C 0.3107(2) 0.0106(2) 0.3710(3)
H11_5 H 0.2637 0.0369 0.3556
H16_5 H 0.100(3) 0.038(3) 0.438(2)
Zn2_3 Zn 0.13782(2) 0.88140(2) 0.33404(2)
N1_3 N 0.56472(15) 0.67235(15) 0.59298(12)
C1_5 C 0.53192(19) 0.64830(19) 0.53401(15)
N2_4 N 0.49572(15) 0.70840(15) 0.50165(12)
N3_5 N 0.5065(2) 0.77314(17) 0.54283(15)
N4_5 N 0.09980(15) 0.99696(14) 0.33663(13)
N7_5 N 0.11962(14) 0.83379(15) 0.24049(12)
N9_5 N 0.36920(15) 0.80639(14) 0.39991(12)
N10_5 N 0.25400(14) 0.86911(14) 0.36543(12)
N11_5 N 0.5476(2) 0.75168(18) 0.59754(15)
C3_5 C 0.17768(18) 0.81708(19) 0.18950(14)
C4_5 C 0.2612(2) 0.8321(3) 0.18706(17)
H1_5 H 0.2879 0.8573 0.2239
C5_5 C 0.3034(2) 0.8084(4) 0.1283(2)
H2_5 H 0.3595 0.8181 0.1253
C6_5 C 0.2634(2) 0.7701(4) 0.0732(2)
H3_5 H 0.2934 0.7550 0.0341
C7_5 C 0.1807(2) 0.7544(3) 0.07523(18)
H4_5 H 0.1545 0.7281 0.0386
C8_5 C 0.13732(17) 0.77921(19) 0.13447(15)
C9_5 C 0.04841(17) 0.80716(18) 0.21488(14)
C11_5 C 0.38383(19) 0.88904(18) 0.40138(16)
C12_5 C 0.4544(2) 0.9314(2) 0.4189(3)
H8_5 H 0.5011 0.9054 0.4354
C16_5 C 0.31263(18) 0.92746(18) 0.37864(16)
C17_5 C 0.29185(16) 0.79902(17) 0.37762(14)
C18_5 C 0.2520(2) 0.7200(2) 0.3666(2)
H12_5 H 0.1968 0.7279 0.3506
H13_5 H 0.2512 0.6907 0.4098
H14_5 H 0.2822 0.6901 0.3323
H15_5 H 0.537(3) 0.598(3) 0.515(2)
Zn5_3 Zn 0.63782(2) 0.61860(2) 0.66596(2)
N13_3 N 0.06472(15) 0.82765(15) 0.40702(12)
C10_5 C 0.9693(2) 0.8156(3) 0.25217(17)
H5_5 H 0.9261 0.7925 0.2246
H6_5 H 0.9580 0.8715 0.2599
H7_5 H 0.9724 0.7883 0.2962
Zn2_4 Zn 0.36218(2) 0.11860(2) 0.83404(2)
N4_6 N 0.40020(15) 0.00304(14) 0.83663(13)
N7_6 N 0.38038(14) 0.16621(15) 0.74049(12)
N9_6 N 0.13080(15) 0.19361(14) 0.89991(12)
N10_6 N 0.24600(14) 0.13089(14) 0.86543(12)
C3_6 C 0.32232(18) 0.18292(19) 0.68950(14)
C4_6 C 0.2388(2) 0.1679(3) 0.68706(17)
H1_6 H 0.2121 0.1427 0.7239
C5_6 C 0.1966(2) 0.1916(4) 0.6283(2)
H2_6 H 0.1405 0.1819 0.6253
C6_6 C 0.2366(2) 0.2299(4) 0.5732(2)
H3_6 H 0.2066 0.2450 0.5341
C7_6 C 0.3193(2) 0.2456(3) 0.57523(18)
H4_6 H 0.3455 0.2719 0.5386
C8_6 C 0.36268(17) 0.22079(19) 0.63447(15)
C9_6 C 0.45159(17) 0.19284(18) 0.71488(14)
C10_6 C 0.5307(2) 0.1844(3) 0.75217(17)
H5_6 H 0.5739 0.2075 0.7246
H6_6 H 0.5420 0.1285 0.7599
H7_6 H 0.5276 0.2117 0.7962
C11_6 C 0.11617(19) 0.11096(18) 0.90138(16)
C12_6 C 0.0456(2) 0.0686(2) 0.9189(3)
C16_6 C 0.18737(18) 0.07254(18) 0.87864(16)
C17_6 C 0.20815(16) 0.20098(17) 0.87762(14)
C18_6 C 0.2480(2) 0.2800(2) 0.8666(2)
H12_6 H 0.3032 0.2721 0.8506
H13_6 H 0.2488 0.3093 0.9098
H14_6 H 0.2178 0.3099 0.8323
N13_4 N 0.43528(15) 0.17235(15) 0.90702(12)
C2_6 C 0.4126(2) 0.95072(18) 0.88692(16)
N6_6 N 0.4343(4) 0.8905(2) 0.79217(17)
N12_6 N 0.4144(3) 0.9637(2) 0.77761(16)
C13_6 C 0.0480(3) 0.9863(2) 0.9107(3)
H9_6 H 0.0016 0.9560 0.9209
C14_6 C 0.1189(3) 0.9478(2) 0.8873(4)
H10_6 H 0.1185 0.8922 0.8826
C15_6 C 0.1893(2) 0.9894(2) 0.8710(3)
H11_6 H 0.2363 0.9631 0.8556
H16_6 H 0.400(3) 0.962(3) 0.938(2)
N1_4 N 0.93528(15) 0.32765(15) 0.09298(12)
C1_6 C 0.96808(19) 0.35170(19) 0.03401(15)
N3_6 N 0.9935(2) 0.22686(17) 0.04283(15)
N11_6 N 0.9524(2) 0.24832(18) 0.09754(15)
H15_6 H 0.963(3) 0.402(3) 0.015(2)
Zn5_4 Zn 0.86218(2) 0.38140(2) 0.16596(2)
H8_6 H 0.9989 0.0946 0.9354
C10_7 C 0.0307(2) 0.3156(3) 0.24783(17)
H5_7 H 0.0739 0.2925 0.2754
H6_7 H 0.0420 0.3715 0.2401
H7_7 H 0.0276 0.2883 0.2038
N4_7 N 0.90020(15) 0.49696(14) 0.16337(13)
C2_7 C 0.9126(2) 0.54928(18) 0.11308(16)
N6_7 N 0.9343(4) 0.6095(2) 0.20783(17)
N7_7 N 0.88038(14) 0.33379(15) 0.25951(12)
N9_7 N 0.63080(15) 0.30639(14) 0.10009(12)
N10_7 N 0.74600(14) 0.36911(14) 0.13457(12)
N12_7 N 0.9144(3) 0.5363(2) 0.22239(16)
C3_7 C 0.82232(18) 0.31708(19) 0.31050(14)
C4_7 C 0.7388(2) 0.3321(3) 0.31294(17)
H1_7 H 0.7121 0.3573 0.2761
C5_7 C 0.6966(2) 0.3084(4) 0.3717(2)
H2_7 H 0.6405 0.3181 0.3747
C6_7 C 0.7366(2) 0.2701(4) 0.4268(2)
H3_7 H 0.7066 0.2550 0.4659
C7_7 C 0.8193(2) 0.2544(3) 0.42477(18)
H4_7 H 0.8455 0.2281 0.4614
C8_7 C 0.86268(17) 0.27921(19) 0.36553(15)
C9_7 C 0.95159(17) 0.30716(18) 0.28512(14)
C11_7 C 0.61617(19) 0.38904(18) 0.09862(16)
C12_7 C 0.5456(2) 0.4314(2) 0.0811(3)
H8_7 H 0.4989 0.4054 0.0646
C13_7 C 0.5480(3) 0.5137(2) 0.0893(3)
H9_7 H 0.5016 0.5440 0.0791
C14_7 C 0.6189(3) 0.5522(2) 0.1127(4)
H10_7 H 0.6185 0.6078 0.1174
C15_7 C 0.6893(2) 0.5106(2) 0.1290(3)
H11_7 H 0.7363 0.5369 0.1444
C16_7 C 0.68737(18) 0.42746(18) 0.12136(16)
C17_7 C 0.70815(16) 0.29902(17) 0.12238(14)
C18_7 C 0.7480(2) 0.2200(2) 0.1334(2)
H12_7 H 0.8032 0.2279 0.1494
H13_7 H 0.7488 0.1907 0.0902
H14_7 H 0.7178 0.1901 0.1677
H16_7 H 0.900(3) 0.538(3) 0.062(2)
C1_7 C 0.46808(19) 0.14830(19) 0.96599(15)
N2_5 N 0.50428(15) 0.20840(15) 0.99835(12)
N3_7 N 0.4935(2) 0.27314(17) 0.95717(15)
N11_7 N 0.4524(2) 0.25168(18) 0.90246(15)
H15_7 H 0.463(3) 0.098(3) 0.985(2)
C1_8 C 0.03192(19) 0.85170(19) 0.46599(15)
N3_8 N 0.0065(2) 0.72686(17) 0.45717(15)
N11_8 N 0.0476(2) 0.74832(18) 0.40246(15)
H8_8 H 0.0011 0.5946 0.5646
H15_8 H 0.037(3) 0.902(3) 0.485(2)
N2_6 N 0.99572(15) 0.79160(15) 0.49835(12)
N4_8 N 0.59980(15) 0.50304(14) 0.66337(13)
C2_8 C 0.5874(2) 0.45072(18) 0.61308(16)
N6_8 N 0.5657(4) 0.3905(2) 0.70783(17)
N7_8 N 0.61962(14) 0.66621(15) 0.75951(12)
N9_8 N 0.86920(15) 0.69361(14) 0.60009(12)
N10_8 N 0.75400(14) 0.63089(14) 0.63457(12)
N12_8 N 0.5856(3) 0.4637(2) 0.72239(16)
C3_8 C 0.67768(18) 0.68292(19) 0.81050(14)
C4_8 C 0.7612(2) 0.6679(3) 0.81294(17)
H1_8 H 0.7879 0.6427 0.7761
C5_8 C 0.8034(2) 0.6916(4) 0.8717(2)
H2_8 H 0.8595 0.6819 0.8747
C6_8 C 0.7634(2) 0.7299(4) 0.9268(2)
H3_8 H 0.7934 0.7450 0.9659
C7_8 C 0.6807(2) 0.7456(3) 0.92477(18)
H4_8 H 0.6545 0.7719 0.9614
C8_8 C 0.63732(17) 0.72079(19) 0.86553(15)
C9_8 C 0.54841(17) 0.69284(18) 0.78512(14)
C10_8 C 0.4693(2) 0.6844(3) 0.74783(17)
H5_8 H 0.4261 0.7075 0.7754
H6_8 H 0.4580 0.6285 0.7401
H7_8 H 0.4724 0.7117 0.7038
C11_8 C 0.88383(19) 0.61096(18) 0.59862(16)
C12_8 C 0.9544(2) 0.5686(2) 0.5811(3)
C13_8 C 0.9520(3) 0.4863(2) 0.5893(3)
H9_8 H 0.9984 0.4560 0.5791
C14_8 C 0.8811(3) 0.4478(2) 0.6127(4)
H10_8 H 0.8815 0.3922 0.6174
C15_8 C 0.8107(2) 0.4894(2) 0.6290(3)
H11_8 H 0.7637 0.4631 0.6444
C16_8 C 0.81263(18) 0.57254(18) 0.62136(16)
C17_8 C 0.79185(16) 0.70098(17) 0.62238(14)
C18_8 C 0.7520(2) 0.7800(2) 0.6334(2)
H12_8 H 0.6968 0.7721 0.6494
H13_8 H 0.7512 0.8093 0.5902
H14_8 H 0.7822 0.8099 0.6677
H16_8 H 0.600(3) 0.462(3) 0.562(2)
N2_7 N 0.99572(15) 0.70840(15) 0.99835(12)
N2_8 N 0.00428(15) 0.29160(15) 0.00165(12)
loop_
_geom_bond_atom_site_label_1
_geom_bond_atom_site_label_2
_geom_bond_site_symmetry_1
_geom_bond_site_symmetry_2
H5 C10 1_555 1_555
H6 C10 1_555 1_555
H7 C10 1_555 1_555
Zn1 N2 1_555 1_555
Zn2 N4 1_555 1_555
N1 C1 1_555 1_555
C1 N2 1_555 1_555
N2 N3 1_555 1_555
N3 N11 1_555 1_555
N7 Zn2 1_555 1_555
N8 C8 1_555 1_555
N9 Zn1 1_555 1_555
N10 Zn2 1_555 1_555
N11 N1 1_555 1_555
C3 N7 1_555 1_555
C4 C3 1_555 1_555
H1 C4 1_555 1_555
C5 C4 1_555 1_555
H2 C5 1_555 1_555
C6 C5 1_555 1_555
H3 C6 1_555 1_555
C7 C6 1_555 1_555
H4 C7 1_555 1_555
C8 C3 1_555 1_555
C9 N7 1_555 1_555
C11 N9 1_555 1_555
C12 C11 1_555 1_555
H8 C12 1_555 1_555
C16 N10 1_555 1_555
C17 N9 1_555 1_555
C18 C17 1_555 1_555
H12 C18 1_555 1_555
H13 C18 1_555 1_555
H14 C18 1_555 1_555
H15 C1 1_555 1_555
Zn5 N1 1_555 1_555
N13 Zn2 1_555 1_555
N14 Zn1 1_555 1_555
N15 Zn1 1_555 1_555
N8 C9 1_555 1_555
N10 C17 1_555 1_555
C7 C8 1_555 1_555
C11 C16 1_555 1_555
C2 N5 1_555 1_555
N5 N6 1_555 1_555
N6 N12 1_555 1_555
H9 C13 1_555 1_555
C14 C13 1_555 1_555
H10 C14 1_555 1_555
C15 C14 1_555 1_555
H11 C15 1_555 1_555
H16 C2 1_555 1_555
Zn4 N5 1_555 1_555
N1_2 C1_2 1_555 1_555
N3_2 N11_2 1_555 1_555
N11_2 N1_2 1_555 1_555
H15_2 C1_2 1_555 1_555
Zn5_2 N1_2 1_555 1_555
C2_2 N5_2 1_555 1_555
N5_2 N6_2 1_555 1_555
N6_2 N12_2 1_555 1_555
H9_2 C13_2 1_555 1_555
C14_2 C13_2 1_555 1_555
H10_2 C14_2 1_555 1_555
C15_2 C14_2 1_555 1_555
H11_2 C15_2 1_555 1_555
H16_2 C2_2 1_555 1_555
Zn4_2 N5_2 1_555 1_555
Zn2_2 N4_2 1_555 1_555
N7_2 Zn2_2 1_555 1_555
N8_2 C8_2 1_555 1_555
N9_2 Zn1_2 1_555 1_555
N10_2 Zn2_2 1_555 1_555
C3_2 N7_2 1_555 1_555
C4_2 C3_2 1_555 1_555
H1_2 C4_2 1_555 1_555
C5_2 C4_2 1_555 1_555
H2_2 C5_2 1_555 1_555
C6_2 C5_2 1_555 1_555
H3_2 C6_2 1_555 1_555
C7_2 C6_2 1_555 1_555
H4_2 C7_2 1_555 1_555
C8_2 C3_2 1_555 1_555
C9_2 N7_2 1_555 1_555
C10_2 C9_2 1_555 1_555
H5_2 C10_2 1_555 1_555
H6_2 C10_2 1_555 1_555
H7_2 C10_2 1_555 1_555
C11_2 N9_2 1_555 1_555
C12_2 C11_2 1_555 1_555
C16_2 N10_2 1_555 1_555
C17_2 N9_2 1_555 1_555
C18_2 C17_2 1_555 1_555
H12_2 C18_2 1_555 1_555
H13_2 C18_2 1_555 1_555
H14_2 C18_2 1_555 1_555
Zn3_2 N8_2 1_555 1_555
N13_2 Zn2_2 1_555 1_555
N14_2 Zn1_2 1_555 1_555
N8_2 C9_2 1_555 1_555
N10_2 C17_2 1_555 1_555
C7_2 C8_2 1_555 1_555
C11_2 C16_2 1_555 1_555
N13_2 C1_3 1_555 1_555
C1_3 N2_2 1_555 1_555
N2_2 N3_3 1_555 1_555
N3_3 N11_3 1_555 1_555
N11_3 N13_2 1_555 1_555
H15_3 C1_3 1_555 1_555
Zn5_2 N4_3 1_555 1_555
N4_3 C2_3 1_555 1_555
C2_3 N5_3 1_555 1_555
N5_3 N6_3 1_555 1_555
N6_3 N12_3 1_555 1_555
N7_3 Zn5_2 1_555 1_555
N8_3 C8_3 1_555 1_555
N9_3 Zn1_3 1_555 1_555
N10_3 Zn5_2 1_555 1_555
N12_3 N4_3 1_555 1_555
C3_3 N7_3 1_555 1_555
C4_3 C3_3 1_555 1_555
H1_3 C4_3 1_555 1_555
C5_3 C4_3 1_555 1_555
H2_3 C5_3 1_555 1_555
C6_3 C5_3 1_555 1_555
H3_3 C6_3 1_555 1_555
C7_3 C6_3 1_555 1_555
H4_3 C7_3 1_555 1_555
C8_3 C3_3 1_555 1_555
C9_3 N7_3 1_555 1_555
C11_3 N9_3 1_555 1_555
C12_3 C11_3 1_555 1_555
H8_3 C12_3 1_555 1_555
C13_3 C12_3 1_555 1_555
H9_3 C13_3 1_555 1_555
C14_3 C13_3 1_555 1_555
H10_3 C14_3 1_555 1_555
C15_3 C14_3 1_555 1_555
H11_3 C15_3 1_555 1_555
C16_3 N10_3 1_555 1_555
C17_3 N9_3 1_555 1_555
C18_3 C17_3 1_555 1_555
H12_3 C18_3 1_555 1_555
H13_3 C18_3 1_555 1_555
H14_3 C18_3 1_555 1_555
H16_3 C2_3 1_555 1_555
Zn3 N5_3 1_555 1_555
N14_3 Zn1_3 1_555 1_555
N15_3 Zn1_3 1_555 1_555
N8_3 C9_3 1_555 1_555
N10_3 C17_3 1_555 1_555
C7_3 C8_3 1_555 1_555
C11_3 C16_3 1_555 1_555
C15_3 C16_3 1_555 1_555
H5_3 C10_3 1_555 1_555
H6_3 C10_3 1_555 1_555
H7_3 C10_3 1_555 1_555
Zn1_4 N2_3 1_555 1_555
Zn5 N4_4 1_555 1_555
N4_4 C2_4 1_555 1_555
C2_4 N5_4 1_555 1_555
N5_4 N6_4 1_555 1_555
N6_4 N12_4 1_555 1_555
N7_4 Zn5 1_555 1_555
N8_4 C8_4 1_555 1_555
N9_4 Zn1_4 1_555 1_555
N10_4 Zn5 1_555 1_555
N12_4 N4_4 1_555 1_555
C3_4 N7_4 1_555 1_555
C4_4 C3_4 1_555 1_555
H1_4 C4_4 1_555 1_555
C5_4 C4_4 1_555 1_555
H2_4 C5_4 1_555 1_555
C6_4 C5_4 1_555 1_555
H3_4 C6_4 1_555 1_555
C7_4 C6_4 1_555 1_555
H4_4 C7_4 1_555 1_555
C8_4 C3_4 1_555 1_555
C9_4 N7_4 1_555 1_555
C10_4 C9_4 1_555 1_555
H5_4 C10_4 1_555 1_555
H6_4 C10_4 1_555 1_555
H7_4 C10_4 1_555 1_555
C11_4 N9_4 1_555 1_555
C12_4 C11_4 1_555 1_555
C13_4 C12_4 1_555 1_555
H9_4 C13_4 1_555 1_555
C14_4 C13_4 1_555 1_555
H10_4 C14_4 1_555 1_555
C15_4 C14_4 1_555 1_555
H11_4 C15_4 1_555 1_555
C16_4 N10_4 1_555 1_555
C17_4 N9_4 1_555 1_555
C18_4 C17_4 1_555 1_555
H12_4 C18_4 1_555 1_555
H13_4 C18_4 1_555 1_555
H14_4 C18_4 1_555 1_555
H16_4 C2_4 1_555 1_555
Zn4_2 N8_4 1_555 1_555
Zn3_2 N5_4 1_555 1_555
N14_4 Zn1_4 1_555 1_555
N8_4 C9_4 1_555 1_555
N10_4 C17_4 1_555 1_555
C7_4 C8_4 1_555 1_555
C11_4 C16_4 1_555 1_555
C15_4 C16_4 1_555 1_555
N13 C1_4 1_555 1_555
N3_4 N11_4 1_555 1_555
N11_4 N13 1_555 1_555
H15_4 C1_4 1_555 1_555
C2_5 N14_4 1_555 1_555
N14_4 N6_5 1_555 1_555
N6_5 N12_5 1_555 1_555
H9_5 C13_5 1_555 1_555
C14_5 C13_5 1_555 1_555
H10_5 C14_5 1_555 1_555
C15_5 C14_5 1_555 1_555
H11_5 C15_5 1_555 1_555
H16_5 C2_5 1_555 1_555
Zn3_2 N2_4 1_555 1_555
Zn2_3 N4_5 1_555 1_555
N1_3 C1_5 1_555 1_555
C1_5 N2_4 1_555 1_555
N2_4 N3_5 1_555 1_555
N3_5 N11_5 1_555 1_555
N7_5 Zn2_3 1_555 1_555
N15_2 C8_5 1_555 1_555
N9_5 Zn3_2 1_555 1_555
N10_5 Zn2_3 1_555 1_555
N11_5 N1_3 1_555 1_555
C3_5 N7_5 1_555 1_555
C4_5 C3_5 1_555 1_555
H1_5 C4_5 1_555 1_555
C5_5 C4_5 1_555 1_555
H2_5 C5_5 1_555 1_555
C6_5 C5_5 1_555 1_555
H3_5 C6_5 1_555 1_555
C7_5 C6_5 1_555 1_555
H4_5 C7_5 1_555 1_555
C8_5 C3_5 1_555 1_555
C9_5 N7_5 1_555 1_555
C11_5 N9_5 1_555 1_555
C12_5 C11_5 1_555 1_555
H8_5 C12_5 1_555 1_555
C16_5 N10_5 1_555 1_555
C17_5 N9_5 1_555 1_555
C18_5 C17_5 1_555 1_555
H12_5 C18_5 1_555 1_555
H13_5 C18_5 1_555 1_555
H14_5 C18_5 1_555 1_555
H15_5 C1_5 1_555 1_555
Zn5_3 N1_3 1_555 1_555
N13_3 Zn2_3 1_555 1_555
N15_2 C9_5 1_555 1_555
N10_5 C17_5 1_555 1_555
C7_5 C8_5 1_555 1_555
C11_5 C16_5 1_555 1_555
H5_5 C10_5 1_555 1_555
H6_5 C10_5 1_555 1_555
H7_5 C10_5 1_555 1_555
Zn2_4 N4_6 1_555 1_555
N7_6 Zn2_4 1_555 1_555
N15 C8_6 1_555 1_555
N9_6 Zn3 1_555 1_555
N10_6 Zn2_4 1_555 1_555
C3_6 N7_6 1_555 1_555
C4_6 C3_6 1_555 1_555
H1_6 C4_6 1_555 1_555
C5_6 C4_6 1_555 1_555
H2_6 C5_6 1_555 1_555
C6_6 C5_6 1_555 1_555
H3_6 C6_6 1_555 1_555
C7_6 C6_6 1_555 1_555
H4_6 C7_6 1_555 1_555
C8_6 C3_6 1_555 1_555
C9_6 N7_6 1_555 1_555
C10_6 C9_6 1_555 1_555
H5_6 C10_6 1_555 1_555
H6_6 C10_6 1_555 1_555
H7_6 C10_6 1_555 1_555
C11_6 N9_6 1_555 1_555
C12_6 C11_6 1_555 1_555
C16_6 N10_6 1_555 1_555
C17_6 N9_6 1_555 1_555
C18_6 C17_6 1_555 1_555
H12_6 C18_6 1_555 1_555
H13_6 C18_6 1_555 1_555
H14_6 C18_6 1_555 1_555
N13_4 Zn2_4 1_555 1_555
N15 C9_6 1_555 1_555
N10_6 C17_6 1_555 1_555
C7_6 C8_6 1_555 1_555
C11_6 C16_6 1_555 1_555
C2_6 N14_3 1_555 1_555
N14_3 N6_6 1_555 1_555
N6_6 N12_6 1_555 1_555
H9_6 C13_6 1_555 1_555
C14_6 C13_6 1_555 1_555
H10_6 C14_6 1_555 1_555
C15_6 C14_6 1_555 1_555
H11_6 C15_6 1_555 1_555
H16_6 C2_6 1_555 1_555
N1_4 C1_6 1_555 1_555
N3_6 N11_6 1_555 1_555
N11_6 N1_4 1_555 1_555
H15_6 C1_6 1_555 1_555
Zn5_4 N1_4 1_555 1_555
H5_7 C10_7 1_555 1_555
H6_7 C10_7 1_555 1_555
H7_7 C10_7 1_555 1_555
Zn5_4 N4_7 1_555 1_555
N4_7 C2_7 1_555 1_555
C2_7 N14_2 1_555 1_555
N14_2 N6_7 1_555 1_555
N6_7 N12_7 1_555 1_555
N7_7 Zn5_4 1_555 1_555
N15_4 C8_7 1_555 1_555
N9_7 Zn4_2 1_555 1_555
N10_7 Zn5_4 1_555 1_555
N12_7 N4_7 1_555 1_555
C3_7 N7_7 1_555 1_555
C4_7 C3_7 1_555 1_555
H1_7 C4_7 1_555 1_555
C5_7 C4_7 1_555 1_555
H2_7 C5_7 1_555 1_555
C6_7 C5_7 1_555 1_555
H3_7 C6_7 1_555 1_555
C7_7 C6_7 1_555 1_555
H4_7 C7_7 1_555 1_555
C8_7 C3_7 1_555 1_555
C9_7 N7_7 1_555 1_555
C11_7 N9_7 1_555 1_555
C12_7 C11_7 1_555 1_555
H8_7 C12_7 1_555 1_555
C13_7 C12_7 1_555 1_555
H9_7 C13_7 1_555 1_555
C14_7 C13_7 1_555 1_555
H10_7 C14_7 1_555 1_555
C15_7 C14_7 1_555 1_555
H11_7 C15_7 1_555 1_555
C16_7 N10_7 1_555 1_555
C17_7 N9_7 1_555 1_555
C18_7 C17_7 1_555 1_555
H12_7 C18_7 1_555 1_555
H13_7 C18_7 1_555 1_555
H14_7 C18_7 1_555 1_555
H16_7 C2_7 1_555 1_555
N15_4 C9_7 1_555 1_555
N10_7 C17_7 1_555 1_555
C7_7 C8_7 1_555 1_555
C11_7 C16_7 1_555 1_555
C15_7 C16_7 1_555 1_555
N13_4 C1_7 1_555 1_555
C1_7 N2_5 1_555 1_555
N2_5 N3_7 1_555 1_555
N3_7 N11_7 1_555 1_555
N11_7 N13_4 1_555 1_555
H15_7 C1_7 1_555 1_555
N13_3 C1_8 1_555 1_555
N3_8 N11_8 1_555 1_555
N11_8 N13_3 1_555 1_555
H15_8 C1_8 1_555 1_555
Zn4 N2_6 1_555 1_555
Zn5_3 N4_8 1_555 1_555
N4_8 C2_8 1_555 1_555
C2_8 N14 1_555 1_555
N14 N6_8 1_555 1_555
N6_8 N12_8 1_555 1_555
N7_8 Zn5_3 1_555 1_555
N15_3 C8_8 1_555 1_555
N9_8 Zn4 1_555 1_555
N10_8 Zn5_3 1_555 1_555
N12_8 N4_8 1_555 1_555
C3_8 N7_8 1_555 1_555
C4_8 C3_8 1_555 1_555
H1_8 C4_8 1_555 1_555
C5_8 C4_8 1_555 1_555
H2_8 C5_8 1_555 1_555
C6_8 C5_8 1_555 1_555
H3_8 C6_8 1_555 1_555
C7_8 C6_8 1_555 1_555
H4_8 C7_8 1_555 1_555
C8_8 C3_8 1_555 1_555
C9_8 N7_8 1_555 1_555
C10_8 C9_8 1_555 1_555
H5_8 C10_8 1_555 1_555
H6_8 C10_8 1_555 1_555
H7_8 C10_8 1_555 1_555
C11_8 N9_8 1_555 1_555
C12_8 C11_8 1_555 1_555
C13_8 C12_8 1_555 1_555
H9_8 C13_8 1_555 1_555
C14_8 C13_8 1_555 1_555
H10_8 C14_8 1_555 1_555
C15_8 C14_8 1_555 1_555
H11_8 C15_8 1_555 1_555
C16_8 N10_8 1_555 1_555
C17_8 N9_8 1_555 1_555
C18_8 C17_8 1_555 1_555
H12_8 C18_8 1_555 1_555
H13_8 C18_8 1_555 1_555
H14_8 C18_8 1_555 1_555
H16_8 C2_8 1_555 1_555
N15_3 C9_8 1_555 1_555
N10_8 C17_8 1_555 1_555
C7_8 C8_8 1_555 1_555
C11_8 C16_8 1_555 1_555
C15_8 C16_8 1_555 1_555

#END
