
###############################################################################
#
# This file contains modified crystal structure data generated from the
# MOF subset of the Cambridge Structural Database (CSD) v543 
# hosted by the Cambridge Crystallographic Data Centre (CCDC).
#
# This work is licensed under the Creative Commons
# Attribution-NonCommercial-ShareAlike 4.0 International License.
# To view a copy of this license, visit
# http://creativecommons.org/licenses/by-nc-sa/4.0/
# or send a letter to
# Creative Commons, PO Box 1866, Mountain View, CA 94042, USA.
#
# CIF created using the CSD Python API on 29 September 2022
# The structure has been converted into the P1 space group
# The structure has a 3D framework
# The original CSD entry OLOGEC is in the monoclinic crystal system
# The framework has been calculated to contain at least 10.0% void space
# The void calculation uses a probe of radius 1.32A, grid spacing 0.4
# H atom positions have been added when not included in the experimental data
#
###############################################################################

data_OLOGEC
_chemical_formula_moiety         '(C204 H164 N20 O72 Zn14)n'
_symmetry_cell_setting           triclinic
_symmetry_space_group_name_H-M   'P 1'
_symmetry_Int_Tables_number      1
_space_group_name_Hall           'P 1'
loop_
_symmetry_equiv_pos_site_id
_symmetry_equiv_pos_as_xyz
1 x,y,z
_cell_length_a                   19.0893(15)
_cell_length_b                   26.952(2)
_cell_length_c                   31.7133(18)
_cell_angle_alpha                90
_cell_angle_beta                 119.592(3)
_cell_angle_gamma                90
_cell_volume                     14188.1
loop_
_atom_site_label
_atom_site_type_symbol
_atom_site_fract_x
_atom_site_fract_y
_atom_site_fract_z
H6 H 0.0189 0.6804 0.5262
C12 C 0.01272(19) 0.61068(11) 0.50175(10)
C15 C 0.09003(19) 0.61324(11) 0.50112(11)
O4 O 0.12271(12) 0.65277(7) 0.50498(7)
O5 O 0.12315(12) 0.57331(7) 0.49985(7)
Zn6 Zn 0.21945(2) 0.553006(12) 0.503833(12)
Zn8 Zn 0.22157(2) 0.668665(12) 0.503853(12)
C1 C 0.41782(18) 0.58932(11) 0.45930(11)
C2 C 0.49471(19) 0.59058(11) 0.45739(10)
C3 C 0.51357(19) 0.63409(11) 0.44130(11)
H1 H 0.4776 0.6606 0.4306
C4 C 0.58579(18) 0.63775(11) 0.44127(11)
H2 H 0.5980 0.6666 0.4301
C5 C 0.64019(18) 0.59863(10) 0.45781(11)
C6 C 0.62131(18) 0.55564(11) 0.47409(11)
H3 H 0.6576 0.5293 0.4852
C7 C 0.54864(18) 0.55167(12) 0.47386(11)
H4 H 0.5363 0.5227 0.4848
C8 C 0.71762(18) 0.60239(11) 0.45745(11)
C9 C 0.86638(18) 0.60879(10) 0.50121(11)
C10 C 0.91377(17) 0.65135(11) 0.51565(11)
H5 H 0.8965 0.6794 0.5250
C11 C 0.98705(18) 0.65203(10) 0.51614(10)
C13 C 0.96499(18) 0.56765(11) 0.48707(11)
H7 H 0.9822 0.5397 0.4775
C14 C 0.89241(18) 0.56677(11) 0.48691(11)
H8 H 0.8609 0.5382 0.4773
C16 C 0.34835(19) 0.51170(11) 0.58528(11)
C17 C 0.38861(18) 0.47073(11) 0.62062(11)
C18 C 0.38853(19) 0.47145(12) 0.66455(11)
H9 H 0.3635 0.4974 0.6714
C19 C 0.42548(19) 0.43373(12) 0.69815(12)
H10 H 0.4254 0.4343 0.7274
C20 C 0.46265(18) 0.39497(10) 0.68772(10)
C21 C 0.4635(2) 0.39387(12) 0.64422(11)
H11 H 0.4889 0.3681 0.6376
C22 C 0.4261(2) 0.43138(11) 0.61087(11)
H12 H 0.4260 0.4305 0.5815
C23 C 0.49592(18) 0.35133(12) 0.76387(11)
C24 C 0.53529(19) 0.31083(11) 0.80122(11)
C25 C 0.61433(19) 0.31657(11) 0.83883(10)
H13 H 0.6415 0.3462 0.8419
C26 C 0.65289(18) 0.27834(11) 0.87188(10)
H14 H 0.7061 0.2819 0.8964
C27 C 0.61065(18) 0.23474(11) 0.86768(10)
C28 C 0.53105(17) 0.22907(11) 0.83031(10)
H15 H 0.5031 0.1998 0.8275
C29 C 0.49412(18) 0.26757(11) 0.79749(11)
H16 H 0.4411 0.2641 0.7728
C30 C 0.65038(18) 0.19667(11) 0.90527(10)
C31 C 0.17548(18) 0.51368(12) 0.40938(11)
C32 C 0.13262(17) 0.47507(11) 0.37276(10)
C33 C 0.10902(17) 0.43183(11) 0.38573(11)
H17 H 0.1184 0.4277 0.4172
C34 C 0.07125(18) 0.39455(11) 0.35151(10)
H18 H 0.0554 0.3654 0.3600
C35 C 0.05743(19) 0.40103(10) 0.30496(11)
C36 C 0.08083(18) 0.44406(11) 0.29143(11)
H19 H 0.0712 0.4480 0.2599
C37 C 0.11898(18) 0.48154(11) 0.32571(10)
H20 H 0.1352 0.5106 0.3172
C38 C 0.02004(18) 0.35903(11) 0.27086(11)
C46 C 0.54806(16) 0.57261(11) 0.59435(10)
H25 H 0.5205 0.5426 0.5863
C47 C 0.68170(18) 0.52411(11) 0.62854(11)
H26 H 0.6907 0.5109 0.6589
H27 H 0.7326 0.5296 0.6301
H28 H 0.6506 0.5009 0.6031
C48 C 0.68522(18) 0.62003(10) 0.62965(11)
H29 H 0.6654 0.6394 0.6006
H30 H 0.7410 0.6124 0.6417
H31 H 0.6796 0.6385 0.6537
C49 C 0.45184(17) 0.70220(10) 0.52444(11)
H32 H 0.4966 0.6964 0.5547
C50 C 0.53517(17) 0.76377(11) 0.50495(11)
H33 H 0.5413 0.7960 0.5193
H34 H 0.5375 0.7667 0.4755
H35 H 0.5777 0.7424 0.5271
C51 C 0.37799(18) 0.75890(10) 0.44972(11)
H36 H 0.3507 0.7308 0.4298
H37 H 0.3908 0.7820 0.4315
H38 H 0.3437 0.7747 0.4599
N1 N 0.78770(15) 0.60560(9) 0.49946(9)
N3 N 0.49748(15) 0.35211(9) 0.72319(9)
N4 N 0.63709(14) 0.57201(8) 0.61854(8)
N5 N 0.45463(14) 0.74200(8) 0.49374(8)
O1 O 0.27413(12) 0.61011(7) 0.49826(7)
O2 O 0.35842(12) 0.61148(7) 0.42729(7)
O3 O 0.71826(12) 0.60140(7) 0.41816(7)
O6 O 0.39279(12) 0.54573(7) 0.58495(7)
O7 O 0.27629(12) 0.50732(7) 0.55778(7)
O8 O 0.46084(12) 0.38550(7) 0.77377(7)
O9 O 0.71892(12) 0.20906(7) 0.93866(7)
O10 O 0.19755(12) 0.55302(7) 0.39707(7)
O11 O 0.18717(12) 0.50476(7) 0.45123(7)
O12 O 0.01946(12) 0.31191(7) 0.27575(7)
O14 O 0.50929(12) 0.61121(7) 0.58453(7)
O15 O 0.39269(12) 0.67696(7) 0.51112(7)
Zn1 Zn 0.26501(2) 0.609406(12) 0.434883(12)
O17 O 0.41226(12) 0.56477(7) 0.49014(7)
Zn3 Zn 0.38863(2) 0.611770(12) 0.549624(12)
O18 O 0.61544(12) 0.15720(7) 0.89997(7)
O21 O 0.28108(12) 0.70906(7) 0.56134(7)
O22 O 0.18414(12) 0.70537(7) 0.44779(7)
O23 O 0.19845(11) 0.66818(7) 0.39237(7)
Zn7 Zn 0.61137(2) 0.111770(12) 0.950376(12)
O24 O 0.38456(12) 0.65720(7) 0.60003(7)
Zn9 Zn 0.77843(2) 0.168665(12) 0.996147(12)
H40 H 0.522742 0.323188 0.715035
H41 H 0.786461 0.605838 0.53109
C39 C 0.06312(18) 0.82535(11) 0.30837(11)
C40 C 0.08485(18) 0.78347(11) 0.29306(11)
H21 H 0.0752 0.7815 0.2614
C41 C 0.12148(18) 0.74357(11) 0.32494(10)
H22 H 0.1373 0.7155 0.3148
C42 C 0.13396(18) 0.74661(11) 0.37236(10)
C43 C 0.11086(18) 0.78818(11) 0.38727(12)
H23 H 0.1186 0.7896 0.4186
C44 C 0.07553(19) 0.82878(12) 0.35563(11)
H24 H 0.0608 0.8572 0.3659
C45 C 0.17358(17) 0.70328(11) 0.40579(11)
N2 N 0.01978(15) 0.86573(9) 0.27361(9)
H39 H 0.0227027 0.900498 0.286682
C9_2 C 0.13362(18) 0.10879(10) 0.99879(11)
C10_2 C 0.08623(17) 0.15135(11) 0.98435(11)
H5_2 H 0.1035 0.1794 0.9750
C11_2 C 0.01295(18) 0.15203(10) 0.98386(10)
C16_2 C 0.65165(19) 0.01170(11) 0.91472(11)
C46_2 C 0.45194(16) 0.07261(11) 0.90565(10)
H25_2 H 0.4795 0.0426 0.9137
C47_2 C 0.31830(18) 0.02411(11) 0.87146(11)
H26_2 H 0.3093 0.0109 0.8411
H27_2 H 0.2674 0.0296 0.8699
H28_2 H 0.3494 0.0009 0.8969
C48_2 C 0.31478(18) 0.12003(10) 0.87035(11)
H29_2 H 0.3346 0.1394 0.8994
H30_2 H 0.2590 0.1124 0.8583
H31_2 H 0.3204 0.1385 0.8463
C49_2 C 0.54816(17) 0.20220(10) 0.97556(11)
H32_2 H 0.5034 0.1964 0.9453
C50_2 C 0.46483(17) 0.26377(11) 0.99505(11)
H33_2 H 0.4587 0.2960 0.9807
H35_2 H 0.4223 0.2424 0.9729
N4_2 N 0.36291(14) 0.07201(8) 0.88146(8)
O6_2 O 0.60721(12) 0.04573(7) 0.91505(7)
O7_2 O 0.72371(12) 0.00732(7) 0.94222(7)
O14_2 O 0.49071(12) 0.11121(7) 0.91547(7)
O15_2 O 0.60731(12) 0.17696(7) 0.98888(7)
Zn2 Zn 0.78055(2) 0.053006(12) 0.996167(12)
O19 O 0.87729(12) 0.15277(7) 0.99502(7)
H41_2 H 0.213539 0.105838 0.96891
C17_2 C 0.61139(18) 0.97073(11) 0.87938(11)
C18_2 C 0.61147(19) 0.97145(12) 0.83545(11)
H9_2 H 0.6365 0.9974 0.8286
C19_2 C 0.57452(19) 0.93373(12) 0.80185(12)
H10_2 H 0.5746 0.9343 0.7726
C20_2 C 0.53735(18) 0.89497(10) 0.81228(10)
C21_2 C 0.5365(2) 0.89387(12) 0.85578(11)
H11_2 H 0.5111 0.8681 0.8624
C22_2 C 0.5739(2) 0.93138(11) 0.88913(11)
H12_2 H 0.5740 0.9305 0.9185
C23_2 C 0.50408(18) 0.85133(12) 0.73613(11)
C24_2 C 0.46471(19) 0.81083(11) 0.69878(11)
C25_2 C 0.38567(19) 0.81657(11) 0.66117(10)
H13_2 H 0.3585 0.8462 0.6581
C26_2 C 0.34711(18) 0.77834(11) 0.62812(10)
H14_2 H 0.2939 0.7819 0.6036
C27_2 C 0.38935(18) 0.73474(11) 0.63232(10)
C28_2 C 0.46895(17) 0.72907(11) 0.66969(10)
H15_2 H 0.4969 0.6998 0.6725
C29_2 C 0.50588(18) 0.76757(11) 0.70251(11)
H16_2 H 0.5589 0.7641 0.7272
C30_2 C 0.34962(18) 0.69667(11) 0.59473(10)
N3_2 N 0.50252(15) 0.85211(9) 0.77681(9)
O8_2 O 0.53916(12) 0.88550(7) 0.72623(7)
H40_2 H 0.477258 0.823188 0.784965
H6_2 H 0.9811 0.1804 0.9738
C12_2 C 0.98728(19) 0.11068(11) 0.99825(10)
C15_2 C 0.90997(19) 0.11324(11) 0.99888(11)
C39_2 C 0.93688(18) 0.32535(11) 0.19163(11)
C40_2 C 0.91515(18) 0.28347(11) 0.20694(11)
H21_2 H 0.9248 0.2815 0.2386
C41_2 C 0.87852(18) 0.24357(11) 0.17506(10)
H22_2 H 0.8627 0.2155 0.1852
C42_2 C 0.86604(18) 0.24661(11) 0.12764(10)
C43_2 C 0.88914(18) 0.28818(11) 0.11273(12)
H23_2 H 0.8814 0.2896 0.0814
C44_2 C 0.92447(19) 0.32878(12) 0.14437(11)
H24_2 H 0.9392 0.3572 0.1341
C45_2 C 0.82642(17) 0.20328(11) 0.09421(11)
N2_2 N 0.98022(15) 0.36573(9) 0.22639(9)
O13 O 0.81586(12) 0.20537(7) 0.05221(7)
O16 O 0.80155(11) 0.16818(7) 0.10763(7)
Zn5 Zn 0.73499(2) 0.109406(12) 0.065117(12)
H39_2 H 0.977297 0.400498 0.213318
C1_2 C 0.58218(18) 0.08932(11) 0.04070(11)
C2_2 C 0.50529(19) 0.09058(11) 0.04261(10)
C3_2 C 0.48643(19) 0.13409(11) 0.05870(11)
H1_2 H 0.5224 0.1606 0.0694
C4_2 C 0.41421(18) 0.13775(11) 0.05873(11)
H2_2 H 0.4020 0.1666 0.0699
C5_2 C 0.35981(18) 0.09863(10) 0.04219(11)
C6_2 C 0.37869(18) 0.05564(11) 0.02591(11)
H3_2 H 0.3424 0.0293 0.0148
C7_2 C 0.45136(18) 0.05167(12) 0.02614(11)
H4_2 H 0.4637 0.0227 0.0152
C8_2 C 0.28238(18) 0.10239(11) 0.04255(11)
C13_2 C 0.03501(18) 0.06765(11) 0.01293(11)
H7_2 H 0.0178 0.0397 0.0225
C14_2 C 0.10759(18) 0.06677(11) 0.01309(11)
H8_2 H 0.1391 0.0382 0.0227
C31_2 C 0.82452(18) 0.01368(12) 0.09062(11)
H20_2 H 0.8648 0.0106 0.1828
H34_2 H 0.4625 0.2667 0.0245
C51_2 C 0.62201(18) 0.25890(10) 0.05028(11)
H36_2 H 0.6493 0.2308 0.0702
H37_2 H 0.6092 0.2820 0.0685
H38_2 H 0.6563 0.2747 0.0401
N1_2 N 0.21230(15) 0.10560(9) 0.00054(9)
N5_2 N 0.54537(14) 0.24200(8) 0.00626(8)
O1_2 O 0.72587(12) 0.11011(7) 0.00174(7)
O2_2 O 0.64158(12) 0.11148(7) 0.07271(7)
O3_2 O 0.28174(12) 0.10140(7) 0.08184(7)
O10_2 O 0.80245(12) 0.05302(7) 0.10293(7)
O11_2 O 0.81283(12) 0.00476(7) 0.04877(7)
O17_2 O 0.58774(12) 0.06477(7) 0.00986(7)
O20 O 0.87685(12) 0.07331(7) 0.00015(7)
C32_2 C 0.86738(17) 0.97507(11) 0.12724(10)
C33_2 C 0.89098(17) 0.93183(11) 0.11427(11)
H17_2 H 0.8816 0.9277 0.0828
C34_2 C 0.92875(18) 0.89455(11) 0.14849(10)
H18_2 H 0.9446 0.8654 0.1400
C35_2 C 0.94257(19) 0.90103(10) 0.19504(11)
C36_2 C 0.91917(18) 0.94406(11) 0.20857(11)
H19_2 H 0.9288 0.9480 0.2401
C37_2 C 0.88102(18) 0.98154(11) 0.17429(10)
C38_2 C 0.97996(18) 0.85903(11) 0.22914(11)
O12_2 O 0.98054(12) 0.81191(7) 0.22425(7)
Zn10 Zn 0.22157(2) 0.831335(12) 0.003853(12)
C1_3 C 0.58218(18) 0.41068(11) 0.54070(11)
C2_3 C 0.50529(19) 0.40942(11) 0.54261(10)
C3_3 C 0.48643(19) 0.36591(11) 0.55870(11)
H1_3 H 0.5224 0.3394 0.5694
C4_3 C 0.41421(18) 0.36225(11) 0.55873(11)
H2_3 H 0.4020 0.3334 0.5699
C5_3 C 0.35981(18) 0.40137(10) 0.54219(11)
C6_3 C 0.37869(18) 0.44436(11) 0.52591(11)
H3_3 H 0.3424 0.4707 0.5148
C7_3 C 0.45136(18) 0.44833(12) 0.52614(11)
H4_3 H 0.4637 0.4773 0.5152
C8_3 C 0.28238(18) 0.39761(11) 0.54255(11)
C9_3 C 0.13362(18) 0.39121(10) 0.49879(11)
C10_3 C 0.08623(17) 0.34865(11) 0.48435(11)
H5_3 H 0.1035 0.3206 0.4750
C11_3 C 0.01295(18) 0.34797(10) 0.48386(10)
C13_3 C 0.03501(18) 0.43235(11) 0.51293(11)
H7_3 H 0.0178 0.4603 0.5225
C14_3 C 0.10759(18) 0.43323(11) 0.51309(11)
H8_3 H 0.1391 0.4618 0.5227
C16_3 C 0.65165(19) 0.48830(11) 0.41472(11)
C17_3 C 0.61139(18) 0.52927(11) 0.37938(11)
C18_3 C 0.61147(19) 0.52855(12) 0.33545(11)
H9_3 H 0.6365 0.5026 0.3286
C19_3 C 0.57452(19) 0.56627(12) 0.30185(12)
H10_3 H 0.5746 0.5657 0.2726
C20_3 C 0.53735(18) 0.60503(10) 0.31228(10)
C21_3 C 0.5365(2) 0.60613(12) 0.35578(11)
H11_3 H 0.5111 0.6319 0.3624
C22_3 C 0.5739(2) 0.56862(11) 0.38913(11)
H12_3 H 0.5740 0.5695 0.4185
C23_3 C 0.50408(18) 0.64867(12) 0.23613(11)
C24_3 C 0.46471(19) 0.68917(11) 0.19878(11)
C25_3 C 0.38567(19) 0.68343(11) 0.16117(10)
H13_3 H 0.3585 0.6538 0.1581
C26_3 C 0.34711(18) 0.72166(11) 0.12812(10)
H14_3 H 0.2939 0.7181 0.1036
C27_3 C 0.38935(18) 0.76526(11) 0.13232(10)
C28_3 C 0.46895(17) 0.77093(11) 0.16969(10)
H15_3 H 0.4969 0.8002 0.1725
C29_3 C 0.50588(18) 0.73243(11) 0.20251(11)
H16_3 H 0.5589 0.7359 0.2272
C30_3 C 0.34962(18) 0.80333(11) 0.09473(10)
C31_3 C 0.82452(18) 0.48632(12) 0.59062(11)
C32_3 C 0.86738(17) 0.52493(11) 0.62724(10)
C33_3 C 0.89098(17) 0.56817(11) 0.61427(11)
H17_3 H 0.8816 0.5723 0.5828
C34_3 C 0.92875(18) 0.60545(11) 0.64849(10)
H18_3 H 0.9446 0.6346 0.6400
C35_3 C 0.94257(19) 0.59897(10) 0.69504(11)
C36_3 C 0.91917(18) 0.55594(11) 0.70857(11)
H19_3 H 0.9288 0.5520 0.7401
C37_3 C 0.88102(18) 0.51846(11) 0.67429(10)
H20_3 H 0.8648 0.4894 0.6828
C38_3 C 0.97996(18) 0.64097(11) 0.72914(11)
C46_3 C 0.45194(16) 0.42739(11) 0.40565(10)
H25_3 H 0.4795 0.4574 0.4137
C47_3 C 0.31830(18) 0.47589(11) 0.37146(11)
H26_3 H 0.3093 0.4891 0.3411
H27_3 H 0.2674 0.4704 0.3699
H28_3 H 0.3494 0.4991 0.3969
C48_3 C 0.31478(18) 0.37997(10) 0.37035(11)
H29_3 H 0.3346 0.3606 0.3994
H30_3 H 0.2590 0.3876 0.3583
H31_3 H 0.3204 0.3615 0.3463
C49_3 C 0.54816(17) 0.29780(10) 0.47556(11)
H32_3 H 0.5034 0.3036 0.4453
C50_3 C 0.46483(17) 0.23623(11) 0.49505(11)
H33_3 H 0.4587 0.2040 0.4807
H34_3 H 0.4625 0.2333 0.5245
H35_3 H 0.4223 0.2576 0.4729
C51_3 C 0.62201(18) 0.24110(10) 0.55028(11)
H36_3 H 0.6493 0.2692 0.5702
H37_3 H 0.6092 0.2180 0.5685
H38_3 H 0.6563 0.2253 0.5401
N1_3 N 0.21230(15) 0.39440(9) 0.50054(9)
N3_3 N 0.50252(15) 0.64789(9) 0.27681(9)
N4_3 N 0.36291(14) 0.42799(8) 0.38146(8)
N5_3 N 0.54537(14) 0.25800(8) 0.50626(8)
O1_3 O 0.72587(12) 0.38989(7) 0.50174(7)
O2_3 O 0.64158(12) 0.38852(7) 0.57271(7)
O3_3 O 0.28174(12) 0.39860(7) 0.58184(7)
O6_3 O 0.60721(12) 0.45427(7) 0.41505(7)
O7_3 O 0.72371(12) 0.49268(7) 0.44222(7)
O8_3 O 0.53916(12) 0.61450(7) 0.22623(7)
O9_2 O 0.28108(12) 0.79094(7) 0.06134(7)
O10_3 O 0.80245(12) 0.44698(7) 0.60293(7)
O11_3 O 0.81283(12) 0.49524(7) 0.54877(7)
O12_3 O 0.98054(12) 0.68809(7) 0.72425(7)
O14_3 O 0.49071(12) 0.38879(7) 0.41547(7)
O15_3 O 0.60731(12) 0.32304(7) 0.48888(7)
Zn1_2 Zn 0.73499(2) 0.390594(12) 0.565117(12)
Zn2_2 Zn 0.78055(2) 0.446994(12) 0.496167(12)
O17_3 O 0.58774(12) 0.43523(7) 0.50986(7)
Zn3_2 Zn 0.61137(2) 0.388230(12) 0.450376(12)
O18_2 O 0.38456(12) 0.84280(7) 0.10003(7)
Zn4 Zn 0.77843(2) 0.331335(12) 0.496147(12)
O19_2 O 0.87729(12) 0.34723(7) 0.49502(7)
O20_2 O 0.87685(12) 0.42669(7) 0.50015(7)
O21_2 O 0.71892(12) 0.29094(7) 0.43866(7)
O22_2 O 0.81586(12) 0.29463(7) 0.55221(7)
O23_2 O 0.80155(11) 0.33182(7) 0.60763(7)
Zn7_2 Zn 0.38863(2) 0.888230(12) 0.049624(12)
O24_2 O 0.61544(12) 0.34280(7) 0.39997(7)
H40_3 H 0.477258 0.676812 0.284965
H41_3 H 0.213539 0.394162 0.46891
H6_3 H 0.9811 0.3196 0.4738
C12_3 C 0.98728(19) 0.38932(11) 0.49825(10)
C15_3 C 0.90997(19) 0.38676(11) 0.49888(11)
H6_4 H 0.0189 0.8196 0.0262
C12_4 C 0.01272(19) 0.88932(11) 0.00175(10)
C15_4 C 0.09003(19) 0.88676(11) 0.00112(11)
O4_2 O 0.12271(12) 0.84723(7) 0.00498(7)
Zn6_2 Zn 0.21945(2) 0.946994(12) 0.003833(12)
C17_4 C 0.38861(18) 0.02927(11) 0.12062(11)
C18_4 C 0.38853(19) 0.02855(12) 0.16455(11)
H9_4 H 0.3635 0.0026 0.1714
C19_4 C 0.42548(19) 0.06627(12) 0.19815(12)
H10_4 H 0.4254 0.0657 0.2274
C20_4 C 0.46265(18) 0.10503(10) 0.18772(10)
C21_4 C 0.4635(2) 0.10613(12) 0.14422(11)
H11_4 H 0.4889 0.1319 0.1376
C22_4 C 0.4261(2) 0.06862(11) 0.11087(11)
H12_4 H 0.4260 0.0695 0.0815
C23_4 C 0.49592(18) 0.14867(12) 0.26387(11)
C24_4 C 0.53529(19) 0.18917(11) 0.30122(11)
C25_4 C 0.61433(19) 0.18343(11) 0.33883(10)
H13_4 H 0.6415 0.1538 0.3419
C26_4 C 0.65289(18) 0.22166(11) 0.37188(10)
H14_4 H 0.7061 0.2181 0.3964
C27_4 C 0.61065(18) 0.26526(11) 0.36768(10)
C28_4 C 0.53105(17) 0.27093(11) 0.33031(10)
H15_4 H 0.5031 0.3002 0.3275
C29_4 C 0.49412(18) 0.23243(11) 0.29749(11)
H16_4 H 0.4411 0.2359 0.2728
C30_4 C 0.65038(18) 0.30333(11) 0.40527(10)
N3_4 N 0.49748(15) 0.14789(9) 0.22319(9)
O8_4 O 0.46084(12) 0.11450(7) 0.27377(7)
H40_4 H 0.522742 0.176812 0.215035
C9_4 C 0.86638(18) 0.89121(10) 0.00121(11)
C10_4 C 0.91377(17) 0.84865(11) 0.01565(11)
H5_4 H 0.8965 0.8206 0.0250
C11_4 C 0.98705(18) 0.84797(10) 0.01614(10)
C16_4 C 0.34835(19) 0.98830(11) 0.08528(11)
C46_4 C 0.54806(16) 0.92739(11) 0.09435(10)
H25_4 H 0.5205 0.9574 0.0863
C47_4 C 0.68170(18) 0.97589(11) 0.12854(11)
H26_4 H 0.6907 0.9891 0.1589
H27_4 H 0.7326 0.9704 0.1301
H28_4 H 0.6506 0.9991 0.1031
C48_4 C 0.68522(18) 0.87997(10) 0.12965(11)
H29_4 H 0.6654 0.8606 0.1006
H30_4 H 0.7410 0.8876 0.1417
H31_4 H 0.6796 0.8615 0.1537
C49_4 C 0.45184(17) 0.79780(10) 0.02444(11)
H32_4 H 0.4966 0.8036 0.0547
C50_4 C 0.53517(17) 0.73623(11) 0.00495(11)
H33_4 H 0.5413 0.7040 0.0193
H35_4 H 0.5777 0.7576 0.0271
N4_4 N 0.63709(14) 0.92799(8) 0.11854(8)
O6_4 O 0.39279(12) 0.95427(7) 0.08495(7)
O7_4 O 0.27629(12) 0.99268(7) 0.05778(7)
O14_4 O 0.50929(12) 0.88879(7) 0.08453(7)
O15_4 O 0.39269(12) 0.82304(7) 0.01112(7)
H41_4 H 0.786461 0.894162 0.0310899
C39_3 C 0.93688(18) 0.17465(11) 0.69163(11)
C40_3 C 0.91515(18) 0.21653(11) 0.70694(11)
H21_3 H 0.9248 0.2185 0.7386
C41_3 C 0.87852(18) 0.25643(11) 0.67506(10)
H22_3 H 0.8627 0.2845 0.6852
C42_3 C 0.86604(18) 0.25339(11) 0.62764(10)
C43_3 C 0.88914(18) 0.21182(11) 0.61273(12)
H23_3 H 0.8814 0.2104 0.5814
C44_3 C 0.92447(19) 0.17122(12) 0.64437(11)
H24_3 H 0.9392 0.1428 0.6341
C45_3 C 0.82642(17) 0.29672(11) 0.59421(11)
N2_3 N 0.98022(15) 0.13427(9) 0.72639(9)
H39_3 H 0.977297 0.0995019 0.713318
C39_4 C 0.06312(18) 0.67465(11) 0.80837(11)
C40_4 C 0.08485(18) 0.71653(11) 0.79306(11)
H21_4 H 0.0752 0.7185 0.7614
C41_4 C 0.12148(18) 0.75643(11) 0.82494(10)
H22_4 H 0.1373 0.7845 0.8148
C42_4 C 0.13396(18) 0.75339(11) 0.87236(10)
C43_4 C 0.11086(18) 0.71182(11) 0.88727(12)
H23_4 H 0.1186 0.7104 0.9186
C44_4 C 0.07553(19) 0.67122(12) 0.85563(11)
H24_4 H 0.0608 0.6428 0.8659
C45_4 C 0.17358(17) 0.79672(11) 0.90579(11)
N2_4 N 0.01978(15) 0.63427(9) 0.77361(9)
O13_2 O 0.18414(12) 0.79463(7) 0.94779(7)
O16_2 O 0.19845(11) 0.83182(7) 0.89237(7)
Zn5_2 Zn 0.26501(2) 0.890594(12) 0.934883(12)
H39_4 H 0.0227027 0.599502 0.786682
O5_2 O 0.12315(12) 0.92669(7) 0.99985(7)
C1_4 C 0.41782(18) 0.91068(11) 0.95930(11)
C2_4 C 0.49471(19) 0.90942(11) 0.95739(10)
C3_4 C 0.51357(19) 0.86591(11) 0.94130(11)
H1_4 H 0.4776 0.8394 0.9306
C4_4 C 0.58579(18) 0.86225(11) 0.94127(11)
H2_4 H 0.5980 0.8334 0.9301
C5_4 C 0.64019(18) 0.90137(10) 0.95781(11)
C6_4 C 0.62131(18) 0.94436(11) 0.97409(11)
H3_4 H 0.6576 0.9707 0.9852
C7_4 C 0.54864(18) 0.94833(12) 0.97386(11)
H4_4 H 0.5363 0.9773 0.9848
C8_4 C 0.71762(18) 0.89761(11) 0.95745(11)
C13_4 C 0.96499(18) 0.93235(11) 0.98707(11)
H7_4 H 0.9822 0.9603 0.9775
C14_4 C 0.89241(18) 0.93323(11) 0.98691(11)
H8_4 H 0.8609 0.9618 0.9773
C31_4 C 0.17548(18) 0.98632(12) 0.90938(11)
H20_4 H 0.1352 0.9894 0.8172
H34_4 H 0.5375 0.7333 0.9755
C51_4 C 0.37799(18) 0.74110(10) 0.94972(11)
H36_4 H 0.3507 0.7692 0.9298
H37_4 H 0.3908 0.7180 0.9315
H38_4 H 0.3437 0.7253 0.9599
N1_4 N 0.78770(15) 0.89440(9) 0.99946(9)
N5_4 N 0.45463(14) 0.75800(8) 0.99374(8)
O1_4 O 0.27413(12) 0.88989(7) 0.99826(7)
O2_4 O 0.35842(12) 0.88852(7) 0.92729(7)
O3_4 O 0.71826(12) 0.89860(7) 0.91816(7)
O10_4 O 0.19755(12) 0.94698(7) 0.89707(7)
O11_4 O 0.18717(12) 0.99524(7) 0.95123(7)
O17_4 O 0.41226(12) 0.93523(7) 0.99014(7)
C32_4 C 0.13262(17) 0.02493(11) 0.87276(10)
C33_4 C 0.10902(17) 0.06817(11) 0.88573(11)
H17_4 H 0.1184 0.0723 0.9172
C34_4 C 0.07125(18) 0.10545(11) 0.85151(10)
H18_4 H 0.0554 0.1346 0.8600
C35_4 C 0.05743(19) 0.09897(10) 0.80496(11)
C36_4 C 0.08083(18) 0.05594(11) 0.79143(11)
H19_4 H 0.0712 0.0520 0.7599
C37_4 C 0.11898(18) 0.01846(11) 0.82571(10)
C38_4 C 0.02004(18) 0.14097(11) 0.77086(11)
O12_4 O 0.01946(12) 0.18809(7) 0.77575(7)
loop_
_geom_bond_atom_site_label_1
_geom_bond_atom_site_label_2
_geom_bond_site_symmetry_1
_geom_bond_site_symmetry_2
C15 C12 1_555 1_555
O4 C15 1_555 1_555
O5 C15 1_555 1_555
Zn6 O5 1_555 1_555
Zn8 O4 1_555 1_555
C1 C2 1_555 1_555
C2 C3 1_555 1_555
C3 H1 1_555 1_555
C4 C3 1_555 1_555
H2 C4 1_555 1_555
C5 C4 1_555 1_555
C6 C5 1_555 1_555
H3 C6 1_555 1_555
C7 C2 1_555 1_555
H4 C7 1_555 1_555
C8 C5 1_555 1_555
C9 C10 1_555 1_555
C10 H5 1_555 1_555
C11 C10 1_555 1_555
H7 C13 1_555 1_555
C14 C9 1_555 1_555
H8 C14 1_555 1_555
C16 C17 1_555 1_555
C17 C18 1_555 1_555
C18 H9 1_555 1_555
C19 C18 1_555 1_555
H10 C19 1_555 1_555
C20 C19 1_555 1_555
C21 C20 1_555 1_555
H11 C21 1_555 1_555
C22 C17 1_555 1_555
H12 C22 1_555 1_555
C23 C24 1_555 1_555
C24 C25 1_555 1_555
C25 H13 1_555 1_555
C26 C25 1_555 1_555
H14 C26 1_555 1_555
C27 C26 1_555 1_555
C28 C27 1_555 1_555
H15 C28 1_555 1_555
C29 C24 1_555 1_555
H16 C29 1_555 1_555
C30 C27 1_555 1_555
C31 C32 1_555 1_555
C32 C33 1_555 1_555
C33 H17 1_555 1_555
C34 C33 1_555 1_555
H18 C34 1_555 1_555
C35 C34 1_555 1_555
C36 C35 1_555 1_555
H19 C36 1_555 1_555
C37 C32 1_555 1_555
H20 C37 1_555 1_555
C38 C35 1_555 1_555
C46 H25 1_555 1_555
C47 H26 1_555 1_555
H27 C47 1_555 1_555
H28 C47 1_555 1_555
C48 H29 1_555 1_555
H30 C48 1_555 1_555
H31 C48 1_555 1_555
C49 H32 1_555 1_555
C50 H33 1_555 1_555
H34 C50 1_555 1_555
H35 C50 1_555 1_555
C51 H36 1_555 1_555
H37 C51 1_555 1_555
H38 C51 1_555 1_555
N1 C8 1_555 1_555
N3 C20 1_555 1_555
N4 C46 1_555 1_555
N5 C49 1_555 1_555
O1 Zn1 1_555 1_555
O2 C1 1_555 1_555
O3 C8 1_555 1_555
O6 C16 1_555 1_555
O7 C16 1_555 1_555
O8 C23 1_555 1_555
O9 C30 1_555 1_555
O10 C31 1_555 1_555
O11 C31 1_555 1_555
O12 C38 1_555 1_555
O14 C46 1_555 1_555
O15 C49 1_555 1_555
Zn1 O2 1_555 1_555
Zn6 O1 1_555 1_555
O17 C1 1_555 1_555
Zn3 O1 1_555 1_555
O18 C30 1_555 1_555
Zn8 O1 1_555 1_555
O21 Zn8 1_555 1_555
O22 Zn8 1_555 1_555
O23 Zn1 1_555 1_555
Zn7 O18 1_555 1_555
O24 Zn3 1_555 1_555
Zn9 O9 1_555 1_555
C6 C7 1_555 1_555
C9 N1 1_555 1_555
C13 C14 1_555 1_555
C21 C22 1_555 1_555
C23 N3 1_555 1_555
C28 C29 1_555 1_555
C36 C37 1_555 1_555
C47 N4 1_555 1_555
C48 N4 1_555 1_555
C50 N5 1_555 1_555
C51 N5 1_555 1_555
O6 Zn3 1_555 1_555
O7 Zn6 1_555 1_555
O10 Zn1 1_555 1_555
O11 Zn6 1_555 1_555
O14 Zn3 1_555 1_555
O15 Zn3 1_555 1_555
N3 H40 1_555 1_555
N1 H41 1_555 1_555
C39 C40 1_555 1_555
C40 H21 1_555 1_555
C41 C40 1_555 1_555
H22 C41 1_555 1_555
C42 C41 1_555 1_555
C43 C42 1_555 1_555
H23 C43 1_555 1_555
C44 C39 1_555 1_555
H24 C44 1_555 1_555
C45 C42 1_555 1_555
O22 C45 1_555 1_555
O23 C45 1_555 1_555
C39 N2 1_555 1_555
C43 C44 1_555 1_555
N2 H39 1_555 1_555
C9_2 C10_2 1_555 1_555
C10_2 H5_2 1_555 1_555
C11_2 C10_2 1_555 1_555
C46_2 H25_2 1_555 1_555
C47_2 H26_2 1_555 1_555
H27_2 C47_2 1_555 1_555
H28_2 C47_2 1_555 1_555
C48_2 H29_2 1_555 1_555
H30_2 C48_2 1_555 1_555
H31_2 C48_2 1_555 1_555
C49_2 H32_2 1_555 1_555
C50_2 H33_2 1_555 1_555
H35_2 C50_2 1_555 1_555
N4_2 C46_2 1_555 1_555
O6_2 C16_2 1_555 1_555
O7_2 C16_2 1_555 1_555
O14_2 C46_2 1_555 1_555
O15_2 C49_2 1_555 1_555
O19 Zn9 1_555 1_555
C47_2 N4_2 1_555 1_555
C48_2 N4_2 1_555 1_555
O6_2 Zn7 1_555 1_555
O7_2 Zn2 1_555 1_555
O14_2 Zn7 1_555 1_555
O15_2 Zn7 1_555 1_555
C17_2 C18_2 1_555 1_555
C18_2 H9_2 1_555 1_555
C19_2 C18_2 1_555 1_555
H10_2 C19_2 1_555 1_555
C20_2 C19_2 1_555 1_555
C21_2 C20_2 1_555 1_555
H11_2 C21_2 1_555 1_555
C22_2 C17_2 1_555 1_555
H12_2 C22_2 1_555 1_555
C23_2 C24_2 1_555 1_555
C24_2 C25_2 1_555 1_555
C25_2 H13_2 1_555 1_555
C26_2 C25_2 1_555 1_555
H14_2 C26_2 1_555 1_555
C27_2 C26_2 1_555 1_555
C28_2 C27_2 1_555 1_555
H15_2 C28_2 1_555 1_555
C29_2 C24_2 1_555 1_555
H16_2 C29_2 1_555 1_555
C30_2 C27_2 1_555 1_555
N3_2 C20_2 1_555 1_555
O8_2 C23_2 1_555 1_555
O21 C30_2 1_555 1_555
O24 C30_2 1_555 1_555
C21_2 C22_2 1_555 1_555
C23_2 N3_2 1_555 1_555
C28_2 C29_2 1_555 1_555
N3_2 H40_2 1_555 1_555
C15_2 C12_2 1_555 1_555
O19 C15_2 1_555 1_555
C39_2 C40_2 1_555 1_555
C40_2 H21_2 1_555 1_555
C41_2 C40_2 1_555 1_555
H22_2 C41_2 1_555 1_555
C42_2 C41_2 1_555 1_555
C43_2 C42_2 1_555 1_555
H23_2 C43_2 1_555 1_555
C44_2 C39_2 1_555 1_555
H24_2 C44_2 1_555 1_555
C45_2 C42_2 1_555 1_555
O13 C45_2 1_555 1_555
O16 C45_2 1_555 1_555
Zn5 O16 1_555 1_555
C39_2 N2_2 1_555 1_555
C43_2 C44_2 1_555 1_555
N2_2 H39_2 1_555 1_555
C1_2 C2_2 1_555 1_555
C2_2 C3_2 1_555 1_555
C3_2 H1_2 1_555 1_555
C4_2 C3_2 1_555 1_555
H2_2 C4_2 1_555 1_555
C5_2 C4_2 1_555 1_555
C6_2 C5_2 1_555 1_555
H3_2 C6_2 1_555 1_555
C7_2 C2_2 1_555 1_555
H4_2 C7_2 1_555 1_555
C8_2 C5_2 1_555 1_555
H7_2 C13_2 1_555 1_555
H8_2 C14_2 1_555 1_555
C51_2 H36_2 1_555 1_555
H37_2 C51_2 1_555 1_555
H38_2 C51_2 1_555 1_555
N1_2 C8_2 1_555 1_555
O1_2 Zn5 1_555 1_555
O2_2 C1_2 1_555 1_555
O3_2 C8_2 1_555 1_555
O10_2 C31_2 1_555 1_555
O11_2 C31_2 1_555 1_555
Zn5 O2_2 1_555 1_555
O17_2 C1_2 1_555 1_555
C6_2 C7_2 1_555 1_555
C13_2 C14_2 1_555 1_555
C51_2 N5_2 1_555 1_555
O10_2 Zn5 1_555 1_555
C32_2 C33_2 1_555 1_555
C33_2 H17_2 1_555 1_555
C34_2 C33_2 1_555 1_555
H18_2 C34_2 1_555 1_555
C35_2 C34_2 1_555 1_555
C36_2 C35_2 1_555 1_555
H19_2 C36_2 1_555 1_555
C37_2 C32_2 1_555 1_555
C38_2 C35_2 1_555 1_555
O12_2 C38_2 1_555 1_555
C36_2 C37_2 1_555 1_555
C1_3 C2_3 1_555 1_555
C2_3 C3_3 1_555 1_555
C3_3 H1_3 1_555 1_555
C4_3 C3_3 1_555 1_555
H2_3 C4_3 1_555 1_555
C5_3 C4_3 1_555 1_555
C6_3 C5_3 1_555 1_555
H3_3 C6_3 1_555 1_555
C7_3 C2_3 1_555 1_555
H4_3 C7_3 1_555 1_555
C8_3 C5_3 1_555 1_555
C9_3 C10_3 1_555 1_555
C10_3 H5_3 1_555 1_555
C11_3 C10_3 1_555 1_555
H7_3 C13_3 1_555 1_555
C14_3 C9_3 1_555 1_555
H8_3 C14_3 1_555 1_555
C16_3 C17_3 1_555 1_555
C17_3 C18_3 1_555 1_555
C18_3 H9_3 1_555 1_555
C19_3 C18_3 1_555 1_555
H10_3 C19_3 1_555 1_555
C20_3 C19_3 1_555 1_555
C21_3 C20_3 1_555 1_555
H11_3 C21_3 1_555 1_555
C22_3 C17_3 1_555 1_555
H12_3 C22_3 1_555 1_555
C23_3 C24_3 1_555 1_555
C24_3 C25_3 1_555 1_555
C25_3 H13_3 1_555 1_555
C26_3 C25_3 1_555 1_555
H14_3 C26_3 1_555 1_555
C27_3 C26_3 1_555 1_555
C28_3 C27_3 1_555 1_555
H15_3 C28_3 1_555 1_555
C29_3 C24_3 1_555 1_555
H16_3 C29_3 1_555 1_555
C30_3 C27_3 1_555 1_555
C31_3 C32_3 1_555 1_555
C32_3 C33_3 1_555 1_555
C33_3 H17_3 1_555 1_555
C34_3 C33_3 1_555 1_555
H18_3 C34_3 1_555 1_555
C35_3 C34_3 1_555 1_555
C36_3 C35_3 1_555 1_555
H19_3 C36_3 1_555 1_555
C37_3 C32_3 1_555 1_555
H20_3 C37_3 1_555 1_555
C38_3 C35_3 1_555 1_555
C46_3 H25_3 1_555 1_555
C47_3 H26_3 1_555 1_555
H27_3 C47_3 1_555 1_555
H28_3 C47_3 1_555 1_555
C48_3 H29_3 1_555 1_555
H30_3 C48_3 1_555 1_555
H31_3 C48_3 1_555 1_555
C49_3 H32_3 1_555 1_555
C50_3 H33_3 1_555 1_555
H34_3 C50_3 1_555 1_555
H35_3 C50_3 1_555 1_555
C51_3 H36_3 1_555 1_555
H37_3 C51_3 1_555 1_555
H38_3 C51_3 1_555 1_555
N1_3 C8_3 1_555 1_555
N3_3 C20_3 1_555 1_555
N4_3 C46_3 1_555 1_555
N5_3 C49_3 1_555 1_555
O1_3 Zn1_2 1_555 1_555
O2_3 C1_3 1_555 1_555
O3_3 C8_3 1_555 1_555
O6_3 C16_3 1_555 1_555
O7_3 C16_3 1_555 1_555
O8_3 C23_3 1_555 1_555
O9_2 C30_3 1_555 1_555
O10_3 C31_3 1_555 1_555
O11_3 C31_3 1_555 1_555
O12_3 C38_3 1_555 1_555
O14_3 C46_3 1_555 1_555
O15_3 C49_3 1_555 1_555
Zn1_2 O2_3 1_555 1_555
Zn2_2 O1_3 1_555 1_555
O17_3 C1_3 1_555 1_555
Zn3_2 O1_3 1_555 1_555
O18_2 C30_3 1_555 1_555
Zn4 O1_3 1_555 1_555
O19_2 Zn4 1_555 1_555
O20_2 Zn2_2 1_555 1_555
O21_2 Zn4 1_555 1_555
O22_2 Zn4 1_555 1_555
O23_2 Zn1_2 1_555 1_555
Zn7_2 O18_2 1_555 1_555
O24_2 Zn3_2 1_555 1_555
Zn10 O9_2 1_555 1_555
C6_3 C7_3 1_555 1_555
C9_3 N1_3 1_555 1_555
C13_3 C14_3 1_555 1_555
C21_3 C22_3 1_555 1_555
C23_3 N3_3 1_555 1_555
C28_3 C29_3 1_555 1_555
C36_3 C37_3 1_555 1_555
C47_3 N4_3 1_555 1_555
C48_3 N4_3 1_555 1_555
C50_3 N5_3 1_555 1_555
C51_3 N5_3 1_555 1_555
O6_3 Zn3_2 1_555 1_555
O7_3 Zn2_2 1_555 1_555
O10_3 Zn1_2 1_555 1_555
O11_3 Zn2_2 1_555 1_555
O14_3 Zn3_2 1_555 1_555
O15_3 Zn3_2 1_555 1_555
N3_3 H40_3 1_555 1_555
N1_3 H41_3 1_555 1_555
C15_3 C12_3 1_555 1_555
O19_2 C15_3 1_555 1_555
O20_2 C15_3 1_555 1_555
C15_4 C12_4 1_555 1_555
O4_2 C15_4 1_555 1_555
Zn10 O4_2 1_555 1_555
C17_4 C18_4 1_555 1_555
C18_4 H9_4 1_555 1_555
C19_4 C18_4 1_555 1_555
H10_4 C19_4 1_555 1_555
C20_4 C19_4 1_555 1_555
C21_4 C20_4 1_555 1_555
H11_4 C21_4 1_555 1_555
C22_4 C17_4 1_555 1_555
H12_4 C22_4 1_555 1_555
C23_4 C24_4 1_555 1_555
C24_4 C25_4 1_555 1_555
C25_4 H13_4 1_555 1_555
C26_4 C25_4 1_555 1_555
H14_4 C26_4 1_555 1_555
C27_4 C26_4 1_555 1_555
C28_4 C27_4 1_555 1_555
H15_4 C28_4 1_555 1_555
C29_4 C24_4 1_555 1_555
H16_4 C29_4 1_555 1_555
C30_4 C27_4 1_555 1_555
N3_4 C20_4 1_555 1_555
O8_4 C23_4 1_555 1_555
O21_2 C30_4 1_555 1_555
O24_2 C30_4 1_555 1_555
C21_4 C22_4 1_555 1_555
C23_4 N3_4 1_555 1_555
C28_4 C29_4 1_555 1_555
N3_4 H40_4 1_555 1_555
C9_4 C10_4 1_555 1_555
C10_4 H5_4 1_555 1_555
C11_4 C10_4 1_555 1_555
C46_4 H25_4 1_555 1_555
C47_4 H26_4 1_555 1_555
H27_4 C47_4 1_555 1_555
H28_4 C47_4 1_555 1_555
C48_4 H29_4 1_555 1_555
H30_4 C48_4 1_555 1_555
H31_4 C48_4 1_555 1_555
C49_4 H32_4 1_555 1_555
C50_4 H33_4 1_555 1_555
H35_4 C50_4 1_555 1_555
N4_4 C46_4 1_555 1_555
O6_4 C16_4 1_555 1_555
O7_4 C16_4 1_555 1_555
O14_4 C46_4 1_555 1_555
O15_4 C49_4 1_555 1_555
C47_4 N4_4 1_555 1_555
C48_4 N4_4 1_555 1_555
O6_4 Zn7_2 1_555 1_555
O7_4 Zn6_2 1_555 1_555
O14_4 Zn7_2 1_555 1_555
O15_4 Zn7_2 1_555 1_555
C39_3 C40_3 1_555 1_555
C40_3 H21_3 1_555 1_555
C41_3 C40_3 1_555 1_555
H22_3 C41_3 1_555 1_555
C42_3 C41_3 1_555 1_555
C43_3 C42_3 1_555 1_555
H23_3 C43_3 1_555 1_555
C44_3 C39_3 1_555 1_555
H24_3 C44_3 1_555 1_555
C45_3 C42_3 1_555 1_555
O22_2 C45_3 1_555 1_555
O23_2 C45_3 1_555 1_555
C39_3 N2_3 1_555 1_555
C43_3 C44_3 1_555 1_555
N2_3 H39_3 1_555 1_555
C39_4 C40_4 1_555 1_555
C40_4 H21_4 1_555 1_555
C41_4 C40_4 1_555 1_555
H22_4 C41_4 1_555 1_555
C42_4 C41_4 1_555 1_555
C43_4 C42_4 1_555 1_555
H23_4 C43_4 1_555 1_555
C44_4 C39_4 1_555 1_555
H24_4 C44_4 1_555 1_555
C45_4 C42_4 1_555 1_555
O13_2 C45_4 1_555 1_555
O16_2 C45_4 1_555 1_555
Zn5_2 O16_2 1_555 1_555
C39_4 N2_4 1_555 1_555
C43_4 C44_4 1_555 1_555
N2_4 H39_4 1_555 1_555
C1_4 C2_4 1_555 1_555
C2_4 C3_4 1_555 1_555
C3_4 H1_4 1_555 1_555
C4_4 C3_4 1_555 1_555
H2_4 C4_4 1_555 1_555
C5_4 C4_4 1_555 1_555
C6_4 C5_4 1_555 1_555
H3_4 C6_4 1_555 1_555
C7_4 C2_4 1_555 1_555
H4_4 C7_4 1_555 1_555
C8_4 C5_4 1_555 1_555
H7_4 C13_4 1_555 1_555
H8_4 C14_4 1_555 1_555
C51_4 H36_4 1_555 1_555
H37_4 C51_4 1_555 1_555
H38_4 C51_4 1_555 1_555
N1_4 C8_4 1_555 1_555
O1_4 Zn5_2 1_555 1_555
O2_4 C1_4 1_555 1_555
O3_4 C8_4 1_555 1_555
O10_4 C31_4 1_555 1_555
O11_4 C31_4 1_555 1_555
Zn5_2 O2_4 1_555 1_555
O17_4 C1_4 1_555 1_555
C6_4 C7_4 1_555 1_555
C13_4 C14_4 1_555 1_555
C51_4 N5_4 1_555 1_555
O10_4 Zn5_2 1_555 1_555
C32_4 C33_4 1_555 1_555
C33_4 H17_4 1_555 1_555
C34_4 C33_4 1_555 1_555
H18_4 C34_4 1_555 1_555
C35_4 C34_4 1_555 1_555
C36_4 C35_4 1_555 1_555
H19_4 C36_4 1_555 1_555
C37_4 C32_4 1_555 1_555
C38_4 C35_4 1_555 1_555
O12_4 C38_4 1_555 1_555
C36_4 C37_4 1_555 1_555

#END
