
###############################################################################
#
# This file contains modified crystal structure data generated from the
# MOF subset of the Cambridge Structural Database (CSD) v543 
# hosted by the Cambridge Crystallographic Data Centre (CCDC).
#
# This work is licensed under the Creative Commons
# Attribution-NonCommercial-ShareAlike 4.0 International License.
# To view a copy of this license, visit
# http://creativecommons.org/licenses/by-nc-sa/4.0/
# or send a letter to
# Creative Commons, PO Box 1866, Mountain View, CA 94042, USA.
#
# CIF created using the CSD Python API on 29 September 2022
# The structure has been converted into the P1 space group
# The structure has a 3D framework
# The original CSD entry OLOKEF is in the triclinic crystal system
# The framework has been calculated to contain at least 10.0% void space
# The void calculation uses a probe of radius 1.32A, grid spacing 0.4
#
###############################################################################

data_OLOKEF
_chemical_formula_moiety         '(C10 H10 Ni6 O12)n'
_symmetry_cell_setting           triclinic
_symmetry_space_group_name_H-M   'P 1'
_symmetry_Int_Tables_number      1
_space_group_name_Hall           'P 1'
loop_
_symmetry_equiv_pos_site_id
_symmetry_equiv_pos_as_xyz
1 x,y,z
_cell_length_a                   6.9100(10)
_cell_length_b                   7.3890(10)
_cell_length_c                   8.2230(10)
_cell_angle_alpha                90.08(7)
_cell_angle_beta                 109.83(8)
_cell_angle_gamma                93.37(7)
_cell_volume                     394.169
loop_
_atom_site_label
_atom_site_type_symbol
_atom_site_fract_x
_atom_site_fract_y
_atom_site_fract_z
Ni3 Ni 0.0000 0.5000 0.0000
Ni3_2 Ni 0.0000 0.5000 1.0000
Ni4 Ni 0.5000 0.0000 0.0000
Ni4_2 Ni 0.5000 0.0000 1.0000
Ni3_3 Ni 1.0000 0.5000 0.0000
Ni4_3 Ni 0.5000 1.0000 0.0000
O1 O 0.5524(4) 0.2356(3) 0.1490(3)
O2 O 0.2549(4) 0.3621(4) 0.0385(3)
O3 O 0.1707(4) 0.7297(3) 0.1046(3)
O4 O 0.4875(4) 0.8589(4) 0.2103(3)
C1 C 0.4190(6) 0.3387(5) 0.1597(5)
C2 C 0.4605(6) 0.4286(5) 0.3332(4)
C3 C 0.4188(5) 0.6079(5) 0.3572(5)
C4 C 0.5421(6) 0.3230(5) 0.4774(5)
C5 C 0.3524(6) 0.7395(5) 0.2120(4)
H5 H 0.5710 0.2040 0.4625
C6 C 0.4579(6) 0.6770(5) 0.5226(5)
C7 C 0.5395(6) 0.5714(5) 0.6668(4)
C8 C 0.5810(6) 0.6613(5) 0.8403(5)
O7 O 0.4476(4) 0.7644(3) 0.8510(3)
O8 O 0.7451(4) 0.6379(4) 0.9615(3)
C9 C 0.5812(5) 0.3921(5) 0.6428(5)
C10 C 0.6476(6) 0.2605(5) 0.7880(4)
O9 O 0.8293(4) 0.2703(3) 0.8954(3)
O10 O 0.5125(4) 0.1411(4) 0.7897(3)
H6 H 0.4290 0.7960 0.5375
Ni3_4 Ni 1.0000 0.5000 1.0000
Ni4_4 Ni 0.5000 1.0000 1.0000
H9 H 0.862(7) 0.070(3) 0.057(5)
O5 O 0.0415(5) 0.5832(5) 0.7685(4)
O6 O 0.1856(4) 0.0133(4) 0.8934(4)
H1 H 0.149(4) 0.648(5) 0.772(6)
H2 H 0.039(7) 0.483(3) 0.717(6)
H4 H 0.154(7) 0.116(2) 0.919(5)
O17 O 0.8144(4) 0.9867(4) 0.1066(4)
H10 H 0.846(7) 0.884(2) 0.081(5)
H3 H 0.138(7) 0.930(3) 0.943(5)
O13 O 0.9585(5) 0.4168(5) 0.2315(4)
H7 H 0.851(4) 0.352(5) 0.228(6)
H8 H 0.961(7) 0.517(3) 0.283(6)
loop_
_geom_bond_atom_site_label_1
_geom_bond_atom_site_label_2
_geom_bond_site_symmetry_1
_geom_bond_site_symmetry_2
Ni3 O2 1_555 1_555
Ni4 O1 1_555 1_555
O1 C1 1_555 1_555
O2 C1 1_555 1_555
O3 Ni3 1_555 1_555
O4 C5 1_555 1_555
C1 C2 1_555 1_555
C2 C3 1_555 1_555
C3 C5 1_555 1_555
C4 C2 1_555 1_555
C5 O3 1_555 1_555
H5 C4 1_555 1_555
C6 C3 1_555 1_555
C7 C6 1_555 1_555
C8 C7 1_555 1_555
O7 C8 1_555 1_555
O8 C8 1_555 1_555
C9 C4 1_555 1_555
C10 C9 1_555 1_555
O9 C10 1_555 1_555
O10 C10 1_555 1_555
H6 C6 1_555 1_555
Ni3_4 O8 1_555 1_555
Ni4_4 O7 1_555 1_555
Ni4_3 O4 1_555 1_555
Ni4_2 O10 1_555 1_555
C7 C9 1_555 1_555
O9 Ni3_4 1_555 1_555
O5 Ni3_2 1_555 1_555
O6 Ni4_2 1_555 1_555
H1 O5 1_555 1_555
H2 O5 1_555 1_555
H4 O6 1_555 1_555
O17 Ni4_3 1_555 1_555
H10 O17 1_555 1_555
O13 Ni3_3 1_555 1_555
H7 O13 1_555 1_555
H8 O13 1_555 1_555

#END
