
###############################################################################
#
# This file contains modified crystal structure data generated from the
# MOF subset of the Cambridge Structural Database (CSD) v543 
# hosted by the Cambridge Crystallographic Data Centre (CCDC).
#
# This work is licensed under the Creative Commons
# Attribution-NonCommercial-ShareAlike 4.0 International License.
# To view a copy of this license, visit
# http://creativecommons.org/licenses/by-nc-sa/4.0/
# or send a letter to
# Creative Commons, PO Box 1866, Mountain View, CA 94042, USA.
#
# CIF created using the CSD Python API on 29 September 2022
# The structure has been converted into the P1 space group
# The structure has a 3D framework
# The original CSD entry OLOMUZ is in the rhombohedral crystal system
# The framework has been calculated to contain at least 10.0% void space
# The void calculation uses a probe of radius 1.32A, grid spacing 0.4
# H atom positions have been added when not included in the experimental data
#
###############################################################################

data_OLOMUZ
_chemical_formula_moiety         '(C432 H432 Ag72 Ca36 N72 O252 S72)n'
_symmetry_cell_setting           triclinic
_symmetry_space_group_name_H-M   'P 1'
_symmetry_Int_Tables_number      1
_space_group_name_Hall           'P 1'
loop_
_symmetry_equiv_pos_site_id
_symmetry_equiv_pos_as_xyz
1 x,y,z
_cell_length_a                   21.8815(6)
_cell_length_b                   21.8815(6)
_cell_length_c                   75.310(4)
_cell_angle_alpha                90
_cell_angle_beta                 90
_cell_angle_gamma                120
_cell_volume                     31227.5
loop_
_atom_site_label
_atom_site_type_symbol
_atom_site_fract_x
_atom_site_fract_y
_atom_site_fract_z
Ag1 Ag 0.43243(4) 0.74044(3) 0.005468(8)
H3 H 0.5912 0.8589 0.0122
S2 S 0.42580(16) 0.63529(11) 0.01944(3)
O6 O 0.5525(6) 0.5605(4) 0.04434(9)
O7 O 0.5398(7) 0.6527(5) 0.04596(11)
C7 C 0.5379(9) 0.6012(7) 0.03763(15)
C8 C 0.5280(7) 0.5960(5) 0.01737(11)
C9 C 0.4829(6) 0.6143(4) 0.00781(9)
C12 C 0.5706(7) 0.5781(5) 0.00726(13)
H6 H 0.5997 0.5648 0.0130
Ag3 Ag 0.30801(5) 0.56757(4) 0.005468(8)
Ca3 Ca 0.57029(18) 0.53417(14) 0.07288(3)
S4 S 0.36471(11) 0.79051(19) 0.01944(3)
Ca1 Ca 0.63054(11) 0.86750(14) 0.90621(3)
S1 S 0.45857(11) 0.75814(10) 0.96130(2)
N1 N 0.5342(4) 0.8155(3) 0.99093(8)
O1 O 0.5813(4) 0.8916(4) 0.93484(9)
O2 O 0.6288(5) 0.8260(5) 0.93689(9)
O3 O 0.5307(5) 0.7607(5) 0.89821(11)
O4 O 0.7254(5) 0.9834(6) 0.91313(11)
O5 O 0.7053(7) 0.8177(9) 0.90602(14)
C1 C 0.5354(4) 0.8153(4) 0.97354(9)
C2 C 0.5981(4) 0.8594(4) 0.96350(11)
C3 C 0.6592(5) 0.9051(5) 0.97324(13)
H1 H 0.7009 0.9359 0.9674
C4 C 0.6560(5) 0.9033(4) 0.99155(12)
H2 H 0.6961 0.9319 0.9982
C5 C 0.5929(5) 0.8588(4) 0.99986(12)
C6 C 0.6031(5) 0.8594(5) 0.94375(12)
Ag2 Ag 0.40566(4) 0.64057(3) 0.975840(8)
N2 N 0.4822(5) 0.6140(3) 0.99019(8)
C10 C 0.5239(7) 0.5963(5) 0.98141(12)
H4 H 0.5216 0.5952 0.9690
C11 C 0.5699(7) 0.5796(5) 0.98936(13)
H5 H 0.5997 0.5698 0.9826
Ca2 Ca 0.53417(14) 0.96387(11) 0.92712(3)
S3 S 0.29957(15) 0.54143(11) 0.96130(2)
O8 O 0.5583(4) 0.9146(4) 0.89849(9)
Ag4 Ag 0.35943(3) 0.76509(5) 0.975840(8)
O9 O 0.6747(7) 0.8938(4) 0.87767(9)
H7 H 0.49011 0.768407 0.89638
H8 H 0.540385 0.742915 0.887043
H9 H 0.745034 0.982838 0.924977
H10 H 0.762966 0.998276 0.904008
H11 H 0.680446 0.770301 0.911632
H12 H 0.71763 0.813274 0.89358
H6_2 H 0.4352 0.0349 0.0130
Ca3_2 Ca 0.46583(14) 0.03613(23) 0.07288(3)
Ag1_2 Ag 0.25956(3) 0.69199(5) 0.005468(8)
H3_2 H 0.1411 0.7323 0.0122
O6_2 O 0.4395(4) 0.9920(7) 0.04434(9)
O7_2 O 0.3473(5) 0.8871(9) 0.04596(11)
C7_2 C 0.3988(7) 0.9367(11) 0.03763(15)
C8_2 C 0.4040(5) 0.9320(9) 0.01737(11)
C9_2 C 0.3857(4) 0.8686(7) 0.00781(9)
C12_2 C 0.4219(5) 0.9925(9) 0.00726(13)
S4_2 S 0.20949(19) 0.57420(22) 0.01944(3)
Ca1_2 Ca 0.13250(14) 0.76304(18) 0.90621(3)
S1_2 S 0.24186(10) 0.70043(15) 0.96130(2)
N1_2 N 0.1845(3) 0.7187(5) 0.99093(8)
O1_2 O 0.1084(4) 0.6897(6) 0.93484(9)
O2_2 O 0.1740(5) 0.8028(7) 0.93689(9)
O3_2 O 0.2393(5) 0.7700(7) 0.89821(11)
O4_2 O 0.0166(6) 0.7420(8) 0.91313(11)
O5_2 O 0.1823(9) 0.8876(11) 0.90602(14)
C1_2 C 0.1847(4) 0.7201(6) 0.97354(9)
C2_2 C 0.1406(4) 0.7387(6) 0.96350(11)
C3_2 C 0.0949(5) 0.7541(7) 0.97324(13)
H1_2 H 0.0641 0.7650 0.9674
C4_2 C 0.0967(4) 0.7527(6) 0.99155(12)
H2_2 H 0.0681 0.7642 0.9982
C5_2 C 0.1412(4) 0.7341(6) 0.99986(12)
C6_2 C 0.1406(5) 0.7437(7) 0.94375(12)
N2_2 N 0.3860(3) 0.8682(6) 0.99019(8)
C10_2 C 0.4037(5) 0.9276(9) 0.98141(12)
H4_2 H 0.4048 0.9264 0.9690
C11_2 C 0.4204(5) 0.9903(9) 0.98936(13)
Ca2_2 Ca 0.03613(11) 0.57029(18) 0.92712(3)
O8_2 O 0.0854(4) 0.6436(6) 0.89849(9)
Ag4_2 Ag 0.23491(5) 0.59434(6) 0.975840(8)
O9_2 O 0.1062(4) 0.7808(8) 0.87767(9)
H7_2 H 0.231593 0.721703 0.89638
H8_2 H 0.257085 0.797471 0.887043
H9_2 H 0.0171616 0.762196 0.924977
H10_2 H 0.00172373 0.76469 0.904008
H11_2 H 0.229699 0.910145 0.911632
H12_2 H 0.186726 0.904356 0.89358
H3_3 H 0.2677 0.4088 0.0122
O6_3 O 0.0080(7) 0.4475(6) 0.04434(9)
O7_3 O 0.1129(9) 0.4602(7) 0.04596(11)
C7_3 C 0.0633(11) 0.4621(9) 0.03763(15)
C8_3 C 0.0680(9) 0.4720(7) 0.01737(11)
C9_3 C 0.1314(7) 0.5171(6) 0.00781(9)
C12_3 C 0.0075(9) 0.4294(7) 0.00726(13)
Ca1_3 Ca 0.23696(18) 0.36946(11) 0.90621(3)
N1_3 N 0.2813(5) 0.4658(4) 0.99093(8)
O1_3 O 0.3103(6) 0.4187(4) 0.93484(9)
O2_3 O 0.1972(7) 0.3712(5) 0.93689(9)
O3_3 O 0.2300(7) 0.4693(5) 0.89821(11)
O4_3 O 0.2580(8) 0.2746(5) 0.91313(11)
O5_3 O 0.1124(11) 0.2947(7) 0.90602(14)
C1_3 C 0.2799(6) 0.4646(4) 0.97354(9)
C2_3 C 0.2613(6) 0.4019(4) 0.96350(11)
C3_3 C 0.2459(7) 0.3408(5) 0.97324(13)
H1_3 H 0.2350 0.2991 0.9674
C4_3 C 0.2473(6) 0.3440(5) 0.99155(12)
H2_3 H 0.2358 0.3039 0.9982
C5_3 C 0.2659(6) 0.4071(5) 0.99986(12)
C6_3 C 0.2563(7) 0.3969(5) 0.94375(12)
N2_3 N 0.1318(6) 0.5178(5) 0.99019(8)
C10_3 C 0.0724(9) 0.4761(7) 0.98141(12)
H4_3 H 0.0736 0.4784 0.9690
C11_3 C 0.0097(9) 0.4301(7) 0.98936(13)
Ca2_3 Ca 0.42971(18) 0.46583(14) 0.92712(3)
O8_3 O 0.3564(6) 0.4417(4) 0.89849(9)
O9_3 O 0.2192(8) 0.3253(7) 0.87767(9)
H7_3 H 0.278297 0.50989 0.89638
H8_3 H 0.202529 0.459615 0.887043
H9_3 H 0.237804 0.254966 0.924977
H10_3 H 0.23531 0.237034 0.904008
H11_3 H 0.0898548 0.319554 0.911632
H12_3 H 0.0956438 0.28237 0.89358
H6_3 H 0.9651 0.4003 0.0130
Ca3_3 Ca 0.96387(23) 0.42971(18) 0.07288(3)
H5_2 H 0.0299 0.4302 0.5174
H6_4 H 0.0349 0.4352 0.4870
Ca3_4 Ca 0.03613(23) 0.46583(14) 0.42712(3)
Ag1_3 Ag 0.69199(5) 0.25956(3) 0.494532(8)
Ca1_4 Ca 0.76304(18) 0.13250(14) 0.59379(3)
S1_3 S 0.70043(15) 0.24186(10) 0.53870(2)
N1_4 N 0.7187(5) 0.1845(3) 0.50907(8)
O1_4 O 0.6897(6) 0.1084(4) 0.56516(9)
O2_4 O 0.8028(7) 0.1740(5) 0.56311(9)
O3_4 O 0.7700(7) 0.2393(5) 0.60179(11)
O4_4 O 0.7420(8) 0.0166(6) 0.58687(11)
O5_4 O 0.8876(11) 0.1823(9) 0.59398(14)
C1_4 C 0.7201(6) 0.1847(4) 0.52646(9)
C2_4 C 0.7387(6) 0.1406(4) 0.53650(11)
C3_4 C 0.7541(7) 0.0949(5) 0.52676(13)
H1_4 H 0.7650 0.0641 0.5326
C4_4 C 0.7527(6) 0.0967(4) 0.50845(12)
H2_4 H 0.7642 0.0681 0.5018
C5_4 C 0.7341(6) 0.1412(4) 0.50014(12)
H3_4 H 0.7323 0.1411 0.4878
C6_4 C 0.7437(7) 0.1406(5) 0.55625(12)
Ag2_2 Ag 0.76509(5) 0.35943(3) 0.524160(8)
S2_2 S 0.79051(19) 0.36471(11) 0.48056(3)
N2_4 N 0.8682(6) 0.3860(3) 0.50981(8)
O6_4 O 0.9920(7) 0.4395(4) 0.45566(9)
O7_4 O 0.8871(9) 0.3473(5) 0.45404(11)
C7_4 C 0.9367(11) 0.3988(7) 0.46237(15)
C8_4 C 0.9320(9) 0.4040(5) 0.48263(11)
C9_4 C 0.8686(7) 0.3857(4) 0.49219(9)
C10_4 C 0.9276(9) 0.4037(5) 0.51859(12)
H4_4 H 0.9264 0.4048 0.5310
C11_4 C 0.9903(9) 0.4204(5) 0.51064(13)
C12_4 C 0.9925(9) 0.4219(5) 0.49274(13)
Ag3_2 Ag 0.74044(6) 0.43243(4) 0.494532(8)
Ca2_4 Ca 0.57029(18) 0.03613(11) 0.57288(3)
S3_2 S 0.75814(19) 0.45857(11) 0.53870(2)
O8_4 O 0.6436(6) 0.0854(4) 0.60151(9)
Ag4_3 Ag 0.59434(6) 0.23491(5) 0.524160(8)
S4_3 S 0.57420(22) 0.20949(19) 0.48056(3)
O9_4 O 0.7808(8) 0.1062(4) 0.62233(9)
H7_4 H 0.721703 0.231593 0.60362
H8_4 H 0.797471 0.257085 0.612957
H9_4 H 0.762196 0.0171616 0.575023
H10_4 H 0.76469 0.00172373 0.595992
H11_4 H 0.910145 0.229699 0.588368
H12_4 H 0.904356 0.186726 0.60642
Ag1_4 Ag 0.56757(4) 0.30801(5) 0.494532(8)
Ca1_5 Ca 0.36946(11) 0.23696(18) 0.59379(3)
S1_4 S 0.54143(11) 0.29957(15) 0.53870(2)
N1_5 N 0.4658(4) 0.2813(5) 0.50907(8)
O1_5 O 0.4187(4) 0.3103(6) 0.56516(9)
O2_5 O 0.3712(5) 0.1972(7) 0.56311(9)
O3_5 O 0.4693(5) 0.2300(7) 0.60179(11)
O4_5 O 0.2746(5) 0.2580(8) 0.58687(11)
O5_5 O 0.2947(7) 0.1124(11) 0.59398(14)
C1_5 C 0.4646(4) 0.2799(6) 0.52646(9)
C2_5 C 0.4019(4) 0.2613(6) 0.53650(11)
C3_5 C 0.3408(5) 0.2459(7) 0.52676(13)
H1_5 H 0.2991 0.2350 0.5326
C4_5 C 0.3440(5) 0.2473(6) 0.50845(12)
H2_5 H 0.3039 0.2358 0.5018
C5_5 C 0.4071(5) 0.2659(6) 0.50014(12)
H3_5 H 0.4088 0.2677 0.4878
C6_5 C 0.3969(5) 0.2563(7) 0.55625(12)
N2_5 N 0.5178(5) 0.1318(6) 0.50981(8)
O6_5 O 0.4475(6) 0.0080(7) 0.45566(9)
O7_5 O 0.4602(7) 0.1129(9) 0.45404(11)
C7_5 C 0.4621(9) 0.0633(11) 0.46237(15)
C8_5 C 0.4720(7) 0.0680(9) 0.48263(11)
C9_5 C 0.5171(6) 0.1314(7) 0.49219(9)
C10_5 C 0.4761(7) 0.0724(9) 0.51859(12)
H4_5 H 0.4784 0.0736 0.5310
C11_5 C 0.4301(7) 0.0097(9) 0.51064(13)
C12_5 C 0.4294(7) 0.0075(9) 0.49274(13)
Ca2_5 Ca 0.46583(14) 0.42971(18) 0.57288(3)
O8_5 O 0.4417(4) 0.3564(6) 0.60151(9)
Ag4_4 Ag 0.64057(3) 0.40566(6) 0.524160(8)
S4_4 S 0.63529(11) 0.42580(22) 0.48056(3)
O9_5 O 0.3253(7) 0.2192(8) 0.62233(9)
H7_5 H 0.50989 0.278297 0.60362
H8_5 H 0.459615 0.202529 0.612957
H9_5 H 0.254966 0.237804 0.575023
H10_5 H 0.237034 0.23531 0.595992
H11_5 H 0.319554 0.0898548 0.588368
H12_5 H 0.28237 0.0956438 0.60642
H5_3 H 0.4003 0.9701 0.5174
H6_5 H 0.4003 0.9651 0.4870
Ca3_5 Ca 0.42971(18) 0.96387(23) 0.42712(3)
Ca1_6 Ca 0.86750(14) 0.63054(11) 0.59379(3)
N1_6 N 0.8155(3) 0.5342(4) 0.50907(8)
O1_6 O 0.8916(4) 0.5813(4) 0.56516(9)
O2_6 O 0.8260(5) 0.6288(5) 0.56311(9)
O3_6 O 0.7607(5) 0.5307(5) 0.60179(11)
O4_6 O 0.9834(6) 0.7254(5) 0.58687(11)
O5_6 O 0.8177(9) 0.7053(7) 0.59398(14)
C1_6 C 0.8153(4) 0.5354(4) 0.52646(9)
C2_6 C 0.8594(4) 0.5981(4) 0.53650(11)
C3_6 C 0.9051(5) 0.6592(5) 0.52676(13)
H1_6 H 0.9359 0.7009 0.5326
C4_6 C 0.9033(4) 0.6560(5) 0.50845(12)
H2_6 H 0.9319 0.6961 0.5018
C5_6 C 0.8588(4) 0.5929(5) 0.50014(12)
H3_6 H 0.8589 0.5912 0.4878
C6_6 C 0.8594(5) 0.6031(5) 0.55625(12)
N2_6 N 0.6140(3) 0.4822(5) 0.50981(8)
O6_6 O 0.5605(4) 0.5525(6) 0.45566(9)
O7_6 O 0.6527(5) 0.5398(7) 0.45404(11)
C7_6 C 0.6012(7) 0.5379(9) 0.46237(15)
C8_6 C 0.5960(5) 0.5280(7) 0.48263(11)
C9_6 C 0.6143(4) 0.4829(6) 0.49219(9)
C10_6 C 0.5963(5) 0.5239(7) 0.51859(12)
H4_6 H 0.5952 0.5216 0.5310
C11_6 C 0.5796(5) 0.5699(7) 0.51064(13)
H5_4 H 0.5698 0.5997 0.5174
C12_6 C 0.5781(5) 0.5706(7) 0.49274(13)
H6_6 H 0.5648 0.5997 0.4870
Ca2_6 Ca 0.96387(11) 0.53417(14) 0.57288(3)
Ca3_6 Ca 0.53417(14) 0.57029(18) 0.42712(3)
O8_6 O 0.9146(4) 0.5583(4) 0.60151(9)
O9_6 O 0.8938(4) 0.6747(7) 0.62233(9)
H7_6 H 0.768407 0.49011 0.60362
H8_6 H 0.742915 0.540385 0.612957
H9_6 H 0.982838 0.745034 0.575023
H10_6 H 0.998276 0.762966 0.595992
H11_6 H 0.770301 0.680446 0.588368
H12_6 H 0.813274 0.71763 0.60642
Ag1_5 Ag 0.09910(4) 0.07377(3) 0.338801(8)
Ca1_7 Ca 0.29721(11) 0.20083(14) 0.23954(3)
S1_5 S 0.12524(11) 0.09147(10) 0.29463(2)
N1_7 N 0.2009(4) 0.1488(3) 0.32426(8)
O1_7 O 0.2480(4) 0.2249(4) 0.26817(9)
O2_7 O 0.2955(5) 0.1593(5) 0.27022(9)
O3_7 O 0.1974(5) 0.0940(5) 0.23154(11)
O4_7 O 0.3921(5) 0.3167(6) 0.24646(11)
O5_7 O 0.3720(7) 0.1510(9) 0.23935(14)
C1_7 C 0.2021(4) 0.1486(4) 0.30687(9)
C2_7 C 0.2648(4) 0.1927(4) 0.29683(11)
C3_7 C 0.3259(5) 0.2384(5) 0.30657(13)
H1_7 H 0.3676 0.2692 0.3007
C4_7 C 0.3227(5) 0.2366(4) 0.32488(12)
H2_7 H 0.3628 0.2652 0.3315
C5_7 C 0.2596(5) 0.1921(4) 0.33319(12)
H3_7 H 0.2579 0.1922 0.3455
C6_7 C 0.2698(5) 0.1927(5) 0.27708(12)
Ca2_7 Ca 0.20083(14) 0.29721(11) 0.26046(3)
O8_7 O 0.2249(4) 0.2480(4) 0.23183(9)
Ag4_5 Ag 0.02610(3) 0.09842(5) 0.309173(8)
S4_5 S 0.03138(11) 0.12384(19) 0.35277(3)
O9_7 O 0.3413(7) 0.2272(4) 0.21101(9)
H7_7 H 0.156777 0.10174 0.229714
H8_7 H 0.207052 0.076248 0.220377
H9_7 H 0.411701 0.316172 0.258311
H10_7 H 0.429632 0.33161 0.237341
H11_7 H 0.347113 0.103635 0.244966
H12_7 H 0.384297 0.146607 0.226913
Ag2_3 Ag 0.07233(4) 0.97390(3) 0.309173(8)
S2_3 S 0.09247(16) 0.96862(11) 0.35277(3)
N2_7 N 0.1489(5) 0.9473(3) 0.32352(8)
O6_7 O 0.2192(6) 0.8938(4) 0.37767(9)
O7_7 O 0.2065(7) 0.9860(5) 0.37929(11)
C7_7 C 0.2046(9) 0.9345(7) 0.37096(15)
C8_7 C 0.1947(7) 0.9293(5) 0.35070(11)
C9_7 C 0.1496(6) 0.9476(4) 0.34114(9)
C10_7 C 0.1906(7) 0.9296(5) 0.31474(12)
H4_7 H 0.1883 0.9285 0.3023
C11_7 C 0.2366(7) 0.9129(5) 0.32269(13)
H5_5 H 0.2664 0.9031 0.3159
C12_7 C 0.2373(7) 0.9114(5) 0.34059(13)
H6_7 H 0.2664 0.8981 0.3463
Ca3_7 Ca 0.23696(18) 0.86750(14) 0.40621(3)
Ag3_3 Ag 0.97468(5) 0.90090(4) 0.338801(8)
S3_3 S 0.96624(15) 0.87476(11) 0.29463(2)
N2_8 N 0.0527(3) 0.2015(6) 0.32352(8)
O6_8 O 0.1062(4) 0.3253(7) 0.37767(9)
O7_8 O 0.0140(5) 0.2204(9) 0.37929(11)
C7_8 C 0.0655(7) 0.2700(11) 0.37096(15)
C8_8 C 0.0707(5) 0.2653(9) 0.35070(11)
C9_8 C 0.0524(4) 0.2019(7) 0.34114(9)
C10_8 C 0.0704(5) 0.2609(9) 0.31474(12)
H4_8 H 0.0715 0.2597 0.3023
C11_8 C 0.0871(5) 0.3236(9) 0.32269(13)
H5_6 H 0.0969 0.3632 0.3159
C12_8 C 0.0886(5) 0.3258(9) 0.34059(13)
H6_8 H 0.1019 0.3682 0.3463
Ca3_8 Ca 0.13250(14) 0.36946(23) 0.40621(3)
Ag1_6 Ag 0.92623(3) 0.02532(5) 0.338801(8)
Ca1_8 Ca 0.79917(14) 0.09637(18) 0.23954(3)
S1_6 S 0.90853(10) 0.03376(15) 0.29463(2)
N1_8 N 0.8512(3) 0.0520(5) 0.32426(8)
O1_8 O 0.7751(4) 0.0230(6) 0.26817(9)
O2_8 O 0.8407(5) 0.1361(7) 0.27022(9)
O3_8 O 0.9060(5) 0.1033(7) 0.23154(11)
O4_8 O 0.6833(6) 0.0753(8) 0.24646(11)
O5_8 O 0.8490(9) 0.2209(11) 0.23935(14)
C1_8 C 0.8514(4) 0.0534(6) 0.30687(9)
C2_8 C 0.8073(4) 0.0720(6) 0.29683(11)
C3_8 C 0.7616(5) 0.0874(7) 0.30657(13)
H1_8 H 0.7308 0.0983 0.3007
C4_8 C 0.7634(4) 0.0860(6) 0.32488(12)
H2_8 H 0.7348 0.0975 0.3315
C5_8 C 0.8079(4) 0.0674(6) 0.33319(12)
H3_8 H 0.8078 0.0656 0.3455
C6_8 C 0.8073(5) 0.0770(7) 0.27708(12)
O9_8 O 0.7728(4) 0.1142(8) 0.21101(9)
H7_8 H 0.89826 0.0550365 0.229714
H8_8 H 0.923752 0.130804 0.220377
H9_8 H 0.683828 0.0955291 0.258311
H10_8 H 0.66839 0.0980229 0.237341
H11_8 H 0.896365 0.243479 0.244966
H12_8 H 0.853393 0.23769 0.226913
Ca2_8 Ca 0.70279(11) 0.90363(18) 0.26046(3)
O8_8 O 0.7520(4) 0.9770(6) 0.23183(9)
Ag4_6 Ag 0.90158(5) 0.92767(6) 0.309173(8)
S4_6 S 0.87616(19) 0.90753(22) 0.35277(3)
Ca2_9 Ca 0.09637(18) 0.79917(14) 0.26046(3)
O8_9 O 0.0230(6) 0.7751(4) 0.23183(9)
Ca1_9 Ca 0.90363(18) 0.70279(11) 0.23954(3)
N1_9 N 0.9480(5) 0.7991(4) 0.32426(8)
O1_9 O 0.9770(6) 0.7520(4) 0.26817(9)
O2_9 O 0.8639(7) 0.7045(5) 0.27022(9)
O3_9 O 0.8967(7) 0.8026(5) 0.23154(11)
O4_9 O 0.9247(8) 0.6079(5) 0.24646(11)
O5_9 O 0.7791(11) 0.6280(7) 0.23935(14)
C1_9 C 0.9466(6) 0.7979(4) 0.30687(9)
C2_9 C 0.9280(6) 0.7352(4) 0.29683(11)
C3_9 C 0.9126(7) 0.6741(5) 0.30657(13)
H1_9 H 0.9017 0.6324 0.3007
C4_9 C 0.9140(6) 0.6773(5) 0.32488(12)
H2_9 H 0.9025 0.6372 0.3315
C5_9 C 0.9326(6) 0.7404(5) 0.33319(12)
H3_9 H 0.9344 0.7421 0.3455
C6_9 C 0.9230(7) 0.7302(5) 0.27708(12)
N2_9 N 0.7985(6) 0.8511(5) 0.32352(8)
O6_9 O 0.6747(7) 0.7808(6) 0.37767(9)
O7_9 O 0.7796(9) 0.7935(7) 0.37929(11)
C7_9 C 0.7300(11) 0.7954(9) 0.37096(15)
C8_9 C 0.7347(9) 0.8053(7) 0.35070(11)
C9_9 C 0.7981(7) 0.8504(6) 0.34114(9)
C10_9 C 0.7391(9) 0.8094(7) 0.31474(12)
H4_9 H 0.7403 0.8117 0.3023
C11_9 C 0.6764(9) 0.7634(7) 0.32269(13)
H5_7 H 0.6368 0.7336 0.3159
C12_9 C 0.6742(9) 0.7627(7) 0.34059(13)
H6_9 H 0.6318 0.7336 0.3463
Ca3_9 Ca 0.63054(23) 0.76304(18) 0.40621(3)
O9_9 O 0.8858(8) 0.6587(7) 0.21101(9)
H7_9 H 0.944963 0.843223 0.229714
H8_9 H 0.869196 0.792948 0.220377
H9_9 H 0.904471 0.588299 0.258311
H10_9 H 0.901977 0.570368 0.237341
H11_9 H 0.756521 0.652887 0.244966
H12_9 H 0.76231 0.615703 0.226913
Ag1_7 Ag 0.35866(5) 0.59289(3) 0.827865(8)
S1_7 S 0.36710(15) 0.57519(10) 0.87203(2)
N1_10 N 0.3854(5) 0.5178(3) 0.84240(8)
O2_10 O 0.4695(7) 0.5073(5) 0.89644(9)
O3_10 O 0.4367(7) 0.5726(5) 0.93512(11)
O4_10 O 0.4087(8) 0.3499(6) 0.92020(11)
O5_10 O 0.5543(11) 0.5156(9) 0.92731(14)
C1_10 C 0.3868(6) 0.5180(4) 0.85979(9)
C2_10 C 0.4054(6) 0.4739(4) 0.86983(11)
C3_10 C 0.4208(7) 0.4282(5) 0.86009(13)
H1_10 H 0.4317 0.3974 0.8659
C4_10 C 0.4194(6) 0.4300(4) 0.84178(12)
H2_10 H 0.4309 0.4014 0.8351
C5_10 C 0.4008(6) 0.4745(4) 0.83347(12)
H3_10 H 0.3990 0.4744 0.8211
C6_10 C 0.4104(7) 0.4739(5) 0.88958(12)
Ag2_4 Ag 0.43176(5) 0.69276(3) 0.857493(8)
S2_4 S 0.45718(19) 0.69804(11) 0.81389(3)
N2_10 N 0.5349(6) 0.7193(3) 0.84314(8)
O6_10 O 0.6587(7) 0.7728(4) 0.78899(9)
O7_10 O 0.5538(9) 0.6806(5) 0.78737(11)
C7_10 C 0.6034(11) 0.7321(7) 0.79570(15)
C8_10 C 0.5987(9) 0.7373(5) 0.81596(11)
C9_10 C 0.5353(7) 0.7190(4) 0.82552(9)
C10_10 C 0.5943(9) 0.7370(5) 0.85192(12)
H4_10 H 0.5931 0.7381 0.8643
C11_10 C 0.6570(9) 0.7537(5) 0.84397(13)
H5_8 H 0.6966 0.7635 0.8507
C12_10 C 0.6592(9) 0.7552(5) 0.82607(13)
H6_10 H 0.7016 0.7685 0.8203
Ag3_4 Ag 0.40711(6) 0.76576(4) 0.827865(8)
Ca3_10 Ca 0.70279(23) 0.79917(14) 0.76046(3)
S3_4 S 0.42481(19) 0.79190(11) 0.87203(2)
Ag4_7 Ag 0.26101(6) 0.56824(5) 0.857493(8)
S4_7 S 0.24087(22) 0.54282(19) 0.81389(3)
O9_10 O 0.4475(8) 0.4395(4) 0.95566(9)
H7_10 H 0.38837 0.564927 0.936953
H8_10 H 0.464137 0.590419 0.94629
H9_10 H 0.428862 0.350495 0.908356
H10_10 H 0.431356 0.335057 0.929326
H11_10 H 0.576812 0.563032 0.921701
H12_10 H 0.571023 0.520059 0.939754
Ag1_8 Ag 0.23424(4) 0.64134(5) 0.827865(8)
S1_8 S 0.20810(11) 0.63290(15) 0.87203(2)
N1_11 N 0.1325(4) 0.6146(5) 0.84240(8)
O2_11 O 0.0379(5) 0.5305(7) 0.89644(9)
O3_11 O 0.1360(5) 0.5633(7) 0.93512(11)
C1_11 C 0.1313(4) 0.6132(6) 0.85979(9)
C2_11 C 0.0686(4) 0.5946(6) 0.86983(11)
C3_11 C 0.0075(5) 0.5792(7) 0.86009(13)
C4_11 C 0.0107(5) 0.5806(6) 0.84178(12)
C5_11 C 0.0738(5) 0.5992(6) 0.83347(12)
H3_11 H 0.0755 0.6010 0.8211
C6_11 C 0.0636(5) 0.5896(7) 0.88958(12)
N2_11 N 0.1845(5) 0.4651(6) 0.84314(8)
O6_11 O 0.1142(6) 0.3413(7) 0.78899(9)
O7_11 O 0.1269(7) 0.4462(9) 0.78737(11)
C7_11 C 0.1288(9) 0.3966(11) 0.79570(15)
C8_11 C 0.1387(7) 0.4013(9) 0.81596(11)
C9_11 C 0.1838(6) 0.4647(7) 0.82552(9)
C10_11 C 0.1428(7) 0.4057(9) 0.85192(12)
H4_11 H 0.1451 0.4069 0.8643
C11_11 C 0.0968(7) 0.3430(9) 0.84397(13)
H5_9 H 0.0670 0.3034 0.8507
C12_11 C 0.0961(7) 0.3408(9) 0.82607(13)
H6_11 H 0.0670 0.2984 0.8203
Ca3_11 Ca 0.09637(18) 0.29721(23) 0.76046(3)
Ag4_8 Ag 0.30724(3) 0.73899(6) 0.857493(8)
S4_8 S 0.30196(11) 0.75913(22) 0.81389(3)
H7_11 H 0.176557 0.61163 0.936953
H8_11 H 0.126281 0.535863 0.94629
O4_11 O 0.9413(5) 0.5913(8) 0.92020(11)
O5_11 O 0.9614(7) 0.4457(11) 0.92731(14)
H1_11 H 0.9658 0.5683 0.8659
H2_11 H 0.9706 0.5691 0.8351
O9_11 O 0.9920(7) 0.5525(8) 0.95566(9)
H9_11 H 0.921633 0.571138 0.908356
H10_11 H 0.903701 0.568644 0.929326
H11_11 H 0.98622 0.423188 0.921701
H12_11 H 0.949036 0.428977 0.939754
O4_12 O 0.6501(6) 0.0587(5) 0.92020(11)
O5_12 O 0.4844(9) 0.0386(7) 0.92731(14)
H1_12 H 0.6026 0.0342 0.8659
H2_12 H 0.5986 0.0294 0.8351
O9_12 O 0.5605(4) 0.0080(7) 0.95566(9)
H9_12 H 0.649505 0.0783675 0.908356
H10_12 H 0.664943 0.0962991 0.929326
H11_12 H 0.436968 0.0137798 0.921701
H12_12 H 0.479941 0.0509635 0.939754
N1_12 N 0.4822(3) 0.8675(4) 0.84240(8)
O2_12 O 0.4927(5) 0.9621(5) 0.89644(9)
O3_12 O 0.4274(5) 0.8640(5) 0.93512(11)
C1_12 C 0.4820(4) 0.8687(4) 0.85979(9)
C2_12 C 0.5261(4) 0.9314(4) 0.86983(11)
C3_12 C 0.5718(5) 0.9925(5) 0.86009(13)
C4_12 C 0.5700(4) 0.9893(5) 0.84178(12)
C5_12 C 0.5255(4) 0.9262(5) 0.83347(12)
H3_12 H 0.5256 0.9245 0.8211
C6_12 C 0.5261(5) 0.9364(5) 0.88958(12)
N2_12 N 0.2807(3) 0.8155(5) 0.84314(8)
O6_12 O 0.2272(4) 0.8858(6) 0.78899(9)
O7_12 O 0.3194(5) 0.8731(7) 0.78737(11)
C7_12 C 0.2679(7) 0.8712(9) 0.79570(15)
C8_12 C 0.2627(5) 0.8613(7) 0.81596(11)
C9_12 C 0.2810(4) 0.8162(6) 0.82552(9)
C10_12 C 0.2630(5) 0.8572(7) 0.85192(12)
H4_12 H 0.2619 0.8549 0.8643
C11_12 C 0.2463(5) 0.9032(7) 0.84397(13)
H5_10 H 0.2365 0.9330 0.8507
C12_12 C 0.2448(5) 0.9039(7) 0.82607(13)
H6_12 H 0.2315 0.9330 0.8203
Ca3_12 Ca 0.20083(14) 0.90363(18) 0.76046(3)
H7_12 H 0.435073 0.823443 0.936953
H8_12 H 0.409581 0.873719 0.94629
O4_13 O 0.0587(5) 0.6501(6) 0.57980(11)
O5_13 O 0.0386(7) 0.4844(9) 0.57269(14)
H1_13 H 0.0342 0.6026 0.6341
H2_13 H 0.0294 0.5986 0.6649
O9_13 O 0.0080(7) 0.5605(4) 0.54434(9)
H9_13 H 0.0783675 0.649505 0.591644
H10_13 H 0.0962991 0.664943 0.570674
H11_13 H 0.0137798 0.436968 0.578299
H12_13 H 0.0509635 0.479941 0.560246
Ag1_9 Ag 0.76576(4) 0.40711(3) 0.672135(8)
S1_9 S 0.79190(11) 0.42481(10) 0.62797(2)
N1_13 N 0.8675(4) 0.4822(3) 0.65760(8)
O2_13 O 0.9621(5) 0.4927(5) 0.60356(9)
O3_13 O 0.8640(5) 0.4274(5) 0.56488(11)
C1_13 C 0.8687(4) 0.4820(4) 0.64021(9)
C2_13 C 0.9314(4) 0.5261(4) 0.63017(11)
C3_13 C 0.9925(5) 0.5718(5) 0.63991(13)
C4_13 C 0.9893(5) 0.5700(4) 0.65822(12)
C5_13 C 0.9262(5) 0.5255(4) 0.66653(12)
H3_13 H 0.9245 0.5256 0.6789
C6_13 C 0.9364(5) 0.5261(5) 0.61042(12)
Ag2_5 Ag 0.73899(4) 0.30724(3) 0.642507(8)
S2_5 S 0.75913(16) 0.30196(11) 0.68611(3)
N2_13 N 0.8155(5) 0.2807(3) 0.65686(8)
O6_13 O 0.8858(6) 0.2272(4) 0.71101(9)
O7_13 O 0.8731(7) 0.3194(5) 0.71263(11)
C7_13 C 0.8712(9) 0.2679(7) 0.70430(15)
C8_13 C 0.8613(7) 0.2627(5) 0.68404(11)
C9_13 C 0.8162(6) 0.2810(4) 0.67448(9)
C10_13 C 0.8572(7) 0.2630(5) 0.64808(12)
H4_13 H 0.8549 0.2619 0.6357
C11_13 C 0.9032(7) 0.2463(5) 0.65603(13)
H5_11 H 0.9330 0.2365 0.6493
C12_13 C 0.9039(7) 0.2448(5) 0.67393(13)
H6_13 H 0.9330 0.2315 0.6797
Ag3_5 Ag 0.64134(5) 0.23424(4) 0.672135(8)
Ca3_13 Ca 0.90363(18) 0.20083(14) 0.73954(3)
S3_5 S 0.63290(15) 0.20810(11) 0.62797(2)
Ag4_9 Ag 0.69276(3) 0.43176(5) 0.642507(8)
S4_9 S 0.69804(11) 0.45718(19) 0.68611(3)
H7_13 H 0.823443 0.435073 0.563047
H8_13 H 0.873719 0.409581 0.55371
Ag1_10 Ag 0.59289(3) 0.35866(5) 0.672135(8)
S1_10 S 0.57519(10) 0.36710(15) 0.62797(2)
N1_14 N 0.5178(3) 0.3854(5) 0.65760(8)
O2_14 O 0.5073(5) 0.4695(7) 0.60356(9)
O3_14 O 0.5726(5) 0.4367(7) 0.56488(11)
O4_14 O 0.3499(6) 0.4087(8) 0.57980(11)
O5_14 O 0.5156(9) 0.5543(11) 0.57269(14)
C1_14 C 0.5180(4) 0.3868(6) 0.64021(9)
C2_14 C 0.4739(4) 0.4054(6) 0.63017(11)
C3_14 C 0.4282(5) 0.4208(7) 0.63991(13)
H1_14 H 0.3974 0.4317 0.6341
C4_14 C 0.4300(4) 0.4194(6) 0.65822(12)
H2_14 H 0.4014 0.4309 0.6649
C5_14 C 0.4745(4) 0.4008(6) 0.66653(12)
H3_14 H 0.4744 0.3990 0.6789
C6_14 C 0.4739(5) 0.4104(7) 0.61042(12)
N2_14 N 0.7193(3) 0.5349(6) 0.65686(8)
O6_14 O 0.7728(4) 0.6587(7) 0.71101(9)
O7_14 O 0.6806(5) 0.5538(9) 0.71263(11)
C7_14 C 0.7321(7) 0.6034(11) 0.70430(15)
C8_14 C 0.7373(5) 0.5987(9) 0.68404(11)
C9_14 C 0.7190(4) 0.5353(7) 0.67448(9)
C10_14 C 0.7370(5) 0.5943(9) 0.64808(12)
H4_14 H 0.7381 0.5931 0.6357
C11_14 C 0.7537(5) 0.6570(9) 0.65603(13)
H5_12 H 0.7635 0.6966 0.6493
C12_14 C 0.7552(5) 0.6592(9) 0.67393(13)
H6_14 H 0.7685 0.7016 0.6797
Ca3_14 Ca 0.79917(14) 0.70279(23) 0.73954(3)
Ag4_10 Ag 0.56824(5) 0.26101(6) 0.642507(8)
S4_10 S 0.54282(19) 0.24087(22) 0.68611(3)
O9_14 O 0.4395(4) 0.4475(8) 0.54434(9)
H7_14 H 0.564927 0.38837 0.563047
H8_14 H 0.590419 0.464137 0.55371
H9_14 H 0.350495 0.428862 0.591644
H10_14 H 0.335057 0.431356 0.570674
H11_14 H 0.563032 0.576812 0.578299
H12_14 H 0.520059 0.571023 0.560246
N1_15 N 0.6146(5) 0.1325(4) 0.65760(8)
O2_15 O 0.5305(7) 0.0379(5) 0.60356(9)
O3_15 O 0.5633(7) 0.1360(5) 0.56488(11)
C1_15 C 0.6132(6) 0.1313(4) 0.64021(9)
C2_15 C 0.5946(6) 0.0686(4) 0.63017(11)
C3_15 C 0.5792(7) 0.0075(5) 0.63991(13)
C4_15 C 0.5806(6) 0.0107(5) 0.65822(12)
C5_15 C 0.5992(6) 0.0738(5) 0.66653(12)
H3_15 H 0.6010 0.0755 0.6789
C6_15 C 0.5896(7) 0.0636(5) 0.61042(12)
N2_15 N 0.4651(6) 0.1845(5) 0.65686(8)
O6_15 O 0.3413(7) 0.1142(6) 0.71101(9)
O7_15 O 0.4462(9) 0.1269(7) 0.71263(11)
C7_15 C 0.3966(11) 0.1288(9) 0.70430(15)
C8_15 C 0.4013(9) 0.1387(7) 0.68404(11)
C9_15 C 0.4647(7) 0.1838(6) 0.67448(9)
C10_15 C 0.4057(9) 0.1428(7) 0.64808(12)
H4_15 H 0.4069 0.1451 0.6357
C11_15 C 0.3430(9) 0.0968(7) 0.65603(13)
H5_13 H 0.3034 0.0670 0.6493
C12_15 C 0.3408(9) 0.0961(7) 0.67393(13)
H6_15 H 0.2984 0.0670 0.6797
Ca3_15 Ca 0.29721(23) 0.09637(18) 0.73954(3)
H7_15 H 0.61163 0.176557 0.563047
H8_15 H 0.535863 0.126281 0.55371
O4_15 O 0.5913(8) 0.9413(5) 0.57980(11)
O5_15 O 0.4457(11) 0.9614(7) 0.57269(14)
H1_15 H 0.5683 0.9658 0.6341
H2_15 H 0.5691 0.9706 0.6649
O9_15 O 0.5525(8) 0.9920(7) 0.54434(9)
H9_15 H 0.571138 0.921633 0.591644
H10_15 H 0.568644 0.903701 0.570674
H11_15 H 0.423188 0.98622 0.578299
H12_15 H 0.428977 0.949036 0.560246
Ag2_6 Ag 0.09842(5) 0.02610(3) 0.190827(8)
S2_6 S 0.12384(19) 0.03138(11) 0.14723(3)
N2_16 N 0.2015(6) 0.0527(3) 0.17648(8)
O6_16 O 0.3253(7) 0.1062(4) 0.12233(9)
O7_16 O 0.2204(9) 0.0140(5) 0.12071(11)
C7_16 C 0.2700(11) 0.0655(7) 0.12904(15)
C8_16 C 0.2653(9) 0.0707(5) 0.14930(11)
C9_16 C 0.2019(7) 0.0524(4) 0.15886(9)
C10_16 C 0.2609(9) 0.0704(5) 0.18526(12)
H4_16 H 0.2597 0.0715 0.1977
C11_16 C 0.3236(9) 0.0871(5) 0.17731(13)
H5_14 H 0.3632 0.0969 0.1841
C12_16 C 0.3258(9) 0.0886(5) 0.15941(13)
H6_16 H 0.3682 0.1019 0.1537
Ag3_6 Ag 0.07377(6) 0.09910(4) 0.161199(8)
Ca3_16 Ca 0.36946(23) 0.13250(14) 0.09379(3)
S3_6 S 0.09147(19) 0.12524(11) 0.20537(2)
Ag1_11 Ag 0.02532(5) 0.92623(3) 0.161199(8)
S1_11 S 0.03376(15) 0.90853(10) 0.20537(2)
N1_16 N 0.0520(5) 0.8512(3) 0.17574(8)
O2_16 O 0.1361(7) 0.8407(5) 0.22978(9)
O3_16 O 0.1033(7) 0.9060(5) 0.26846(11)
O4_16 O 0.0753(8) 0.6833(6) 0.25354(11)
O5_16 O 0.2209(11) 0.8490(9) 0.26065(14)
C1_16 C 0.0534(6) 0.8514(4) 0.19313(9)
C2_16 C 0.0720(6) 0.8073(4) 0.20317(11)
C3_16 C 0.0874(7) 0.7616(5) 0.19343(13)
H1_16 H 0.0983 0.7308 0.1993
C4_16 C 0.0860(6) 0.7634(4) 0.17512(12)
H2_16 H 0.0975 0.7348 0.1685
C5_16 C 0.0674(6) 0.8079(4) 0.16681(12)
H3_16 H 0.0656 0.8078 0.1545
C6_16 C 0.0770(7) 0.8073(5) 0.22292(12)
O9_16 O 0.1142(8) 0.7728(4) 0.28899(9)
H7_16 H 0.0550365 0.89826 0.270286
H8_16 H 0.130804 0.923752 0.279623
H9_16 H 0.0955291 0.683828 0.241689
H10_16 H 0.0980229 0.66839 0.262659
H11_16 H 0.243479 0.896365 0.255034
H12_16 H 0.23769 0.853393 0.273087
Ag4_11 Ag 0.92767(6) 0.90158(5) 0.190827(8)
S4_11 S 0.90753(22) 0.87616(19) 0.14723(3)
Ag4_12 Ag 0.97390(3) 0.07233(6) 0.190827(8)
S4_12 S 0.96862(11) 0.09247(22) 0.14723(3)
Ag1_12 Ag 0.90090(4) 0.97468(5) 0.161199(8)
S1_12 S 0.87476(11) 0.96624(15) 0.20537(2)
N1_17 N 0.7991(4) 0.9480(5) 0.17574(8)
O2_17 O 0.7045(5) 0.8639(7) 0.22978(9)
O3_17 O 0.8026(5) 0.8967(7) 0.26846(11)
O4_17 O 0.6079(5) 0.9247(8) 0.25354(11)
O5_17 O 0.6280(7) 0.7791(11) 0.26065(14)
C1_17 C 0.7979(4) 0.9466(6) 0.19313(9)
C2_17 C 0.7352(4) 0.9280(6) 0.20317(11)
C3_17 C 0.6741(5) 0.9126(7) 0.19343(13)
H1_17 H 0.6324 0.9017 0.1993
C4_17 C 0.6773(5) 0.9140(6) 0.17512(12)
H2_17 H 0.6372 0.9025 0.1685
C5_17 C 0.7404(5) 0.9326(6) 0.16681(12)
H3_17 H 0.7421 0.9344 0.1545
C6_17 C 0.7302(5) 0.9230(7) 0.22292(12)
N2_17 N 0.8511(5) 0.7985(6) 0.17648(8)
O6_17 O 0.7808(6) 0.6747(7) 0.12233(9)
O7_17 O 0.7935(7) 0.7796(9) 0.12071(11)
C7_17 C 0.7954(9) 0.7300(11) 0.12904(15)
C8_17 C 0.8053(7) 0.7347(9) 0.14930(11)
C9_17 C 0.8504(6) 0.7981(7) 0.15886(9)
C10_17 C 0.8094(7) 0.7391(9) 0.18526(12)
H4_17 H 0.8117 0.7403 0.1977
C11_17 C 0.7634(7) 0.6764(9) 0.17731(13)
H5_15 H 0.7336 0.6368 0.1841
C12_17 C 0.7627(7) 0.6742(9) 0.15941(13)
H6_17 H 0.7336 0.6318 0.1537
Ca3_17 Ca 0.76304(18) 0.63054(23) 0.09379(3)
O9_17 O 0.6587(7) 0.8858(8) 0.28899(9)
H7_17 H 0.843223 0.944963 0.270286
H8_17 H 0.792948 0.869196 0.279623
H9_17 H 0.588299 0.904471 0.241689
H10_17 H 0.570368 0.901977 0.262659
H11_17 H 0.652887 0.756521 0.255034
H12_17 H 0.615703 0.76231 0.273087
N1_18 N 0.1488(3) 0.2009(4) 0.17574(8)
O2_18 O 0.1593(5) 0.2955(5) 0.22978(9)
O3_18 O 0.0940(5) 0.1974(5) 0.26846(11)
O4_18 O 0.3167(6) 0.3921(5) 0.25354(11)
O5_18 O 0.1510(9) 0.3720(7) 0.26065(14)
C1_18 C 0.1486(4) 0.2021(4) 0.19313(9)
C2_18 C 0.1927(4) 0.2648(4) 0.20317(11)
C3_18 C 0.2384(5) 0.3259(5) 0.19343(13)
H1_18 H 0.2692 0.3676 0.1993
C4_18 C 0.2366(4) 0.3227(5) 0.17512(12)
H2_18 H 0.2652 0.3628 0.1685
C5_18 C 0.1921(4) 0.2596(5) 0.16681(12)
H3_18 H 0.1922 0.2579 0.1545
C6_18 C 0.1927(5) 0.2698(5) 0.22292(12)
O9_18 O 0.2272(4) 0.3413(7) 0.28899(9)
H7_18 H 0.10174 0.156777 0.270286
H8_18 H 0.076248 0.207052 0.279623
H9_18 H 0.316172 0.411701 0.241689
H10_18 H 0.33161 0.429632 0.262659
H11_18 H 0.103635 0.347113 0.255034
H12_18 H 0.146607 0.384297 0.273087
N2_18 N 0.9473(3) 0.1489(5) 0.17648(8)
O6_18 O 0.8938(4) 0.2192(6) 0.12233(9)
O7_18 O 0.9860(5) 0.2065(7) 0.12071(11)
C7_18 C 0.9345(7) 0.2046(9) 0.12904(15)
C8_18 C 0.9293(5) 0.1947(7) 0.14930(11)
C9_18 C 0.9476(4) 0.1496(6) 0.15886(9)
C10_18 C 0.9296(5) 0.1906(7) 0.18526(12)
H4_18 H 0.9285 0.1883 0.1977
C11_18 C 0.9129(5) 0.2366(7) 0.17731(13)
H5_16 H 0.9031 0.2664 0.1841
C12_18 C 0.9114(5) 0.2373(7) 0.15941(13)
H6_18 H 0.8981 0.2664 0.1537
Ca3_18 Ca 0.86750(14) 0.23696(18) 0.09379(3)
S1_13 S 0.54143(11) 0.24186(10) 0.03870(2)
N1_19 N 0.4658(4) 0.1845(3) 0.00907(8)
O1_10 O 0.4187(4) 0.1084(4) 0.06516(9)
O2_19 O 0.3712(5) 0.1740(5) 0.06311(9)
O3_19 O 0.4693(5) 0.2393(5) 0.10179(11)
O4_19 O 0.2746(5) 0.0166(6) 0.08687(11)
O5_19 O 0.2947(7) 0.1823(9) 0.09398(14)
C1_19 C 0.4646(4) 0.1847(4) 0.02646(9)
C2_19 C 0.4019(4) 0.1406(4) 0.03650(11)
C3_19 C 0.3408(5) 0.0949(5) 0.02676(13)
H1_19 H 0.2991 0.0641 0.0326
C4_19 C 0.3440(5) 0.0967(4) 0.00845(12)
H2_19 H 0.3039 0.0681 0.0018
C5_19 C 0.4071(5) 0.1412(4) 0.00014(12)
C6_19 C 0.3969(5) 0.1406(5) 0.05625(12)
Ag2_7 Ag 0.59434(4) 0.35943(3) 0.024160(8)
N2_19 N 0.5178(5) 0.3860(3) 0.00981(8)
C10_19 C 0.4761(7) 0.4037(5) 0.01859(12)
H4_19 H 0.4784 0.4048 0.0310
C11_19 C 0.4301(7) 0.4204(5) 0.01064(13)
H5_17 H 0.4003 0.4302 0.0174
S3_7 S 0.70043(15) 0.45857(11) 0.03870(2)
O8_10 O 0.4417(4) 0.0854(4) 0.10151(9)
Ag4_13 Ag 0.64057(3) 0.23491(5) 0.024160(8)
H7_19 H 0.50989 0.231593 0.10362
H8_19 H 0.459615 0.257085 0.112957
H9_19 H 0.254966 0.0171616 0.0750228
H10_19 H 0.237034 0.00172373 0.0959924
H11_19 H 0.319554 0.229699 0.0883677
H12_19 H 0.28237 0.186726 0.10642
Ag1_13 Ag 0.56757(4) 0.25956(3) 0.994532(8)
H3_19 H 0.4088 0.1411 0.9878
S2_7 S 0.57420(16) 0.36471(11) 0.98056(3)
O7_19 O 0.4602(7) 0.3473(5) 0.95404(11)
C7_19 C 0.4621(9) 0.3988(7) 0.96237(15)
C8_19 C 0.4720(7) 0.4040(5) 0.98263(11)
C9_19 C 0.5171(6) 0.3857(4) 0.99219(9)
C12_19 C 0.4294(7) 0.4219(5) 0.99274(13)
H6_19 H 0.4003 0.4352 0.9870
Ag3_7 Ag 0.69199(5) 0.43243(4) 0.994532(8)
S4_13 S 0.63529(11) 0.20949(19) 0.98056(3)
S1_14 S 0.75814(10) 0.29957(15) 0.03870(2)
N1_20 N 0.8155(3) 0.2813(5) 0.00907(8)
O1_11 O 0.8916(4) 0.3103(6) 0.06516(9)
O2_20 O 0.8260(5) 0.1972(7) 0.06311(9)
O3_20 O 0.7607(5) 0.2300(7) 0.10179(11)
O4_20 O 0.9834(6) 0.2580(8) 0.08687(11)
O5_20 O 0.8177(9) 0.1124(11) 0.09398(14)
C1_20 C 0.8153(4) 0.2799(6) 0.02646(9)
C2_20 C 0.8594(4) 0.2613(6) 0.03650(11)
C3_20 C 0.9051(5) 0.2459(7) 0.02676(13)
H1_20 H 0.9359 0.2350 0.0326
C4_20 C 0.9033(4) 0.2473(6) 0.00845(12)
H2_20 H 0.9319 0.2358 0.0018
C5_20 C 0.8588(4) 0.2659(6) 0.00014(12)
C6_20 C 0.8594(5) 0.2563(7) 0.05625(12)
N2_20 N 0.6140(3) 0.1318(6) 0.00981(8)
C10_20 C 0.5963(5) 0.0724(9) 0.01859(12)
H4_20 H 0.5952 0.0736 0.0310
C11_20 C 0.5796(5) 0.0097(9) 0.01064(13)
O8_11 O 0.9146(4) 0.3564(6) 0.10151(9)
Ag4_14 Ag 0.76509(5) 0.40566(6) 0.024160(8)
H7_20 H 0.768407 0.278297 0.10362
H8_20 H 0.742915 0.202529 0.112957
H9_20 H 0.982838 0.237804 0.0750228
H10_20 H 0.998276 0.23531 0.0959924
H11_20 H 0.770301 0.0898548 0.0883677
H12_20 H 0.813274 0.0956438 0.10642
Ag1_14 Ag 0.74044(3) 0.30801(5) 0.994532(8)
H3_20 H 0.8589 0.2677 0.9878
O7_20 O 0.6527(5) 0.1129(9) 0.95404(11)
C7_20 C 0.6012(7) 0.0633(11) 0.96237(15)
C8_20 C 0.5960(5) 0.0680(9) 0.98263(11)
C9_20 C 0.6143(4) 0.1314(7) 0.99219(9)
C12_20 C 0.5781(5) 0.0075(9) 0.99274(13)
S4_14 S 0.79051(19) 0.42580(22) 0.98056(3)
H6_20 H 0.5648 0.9651 0.9870
H6_21 H 0.0349 0.5997 0.9870
N1_21 N 0.7187(5) 0.5342(4) 0.00907(8)
O1_12 O 0.6897(6) 0.5813(4) 0.06516(9)
O2_21 O 0.8028(7) 0.6288(5) 0.06311(9)
O3_21 O 0.7700(7) 0.5307(5) 0.10179(11)
O4_21 O 0.7420(8) 0.7254(5) 0.08687(11)
O5_21 O 0.8876(11) 0.7053(7) 0.09398(14)
C1_21 C 0.7201(6) 0.5354(4) 0.02646(9)
C2_21 C 0.7387(6) 0.5981(4) 0.03650(11)
C3_21 C 0.7541(7) 0.6592(5) 0.02676(13)
H1_21 H 0.7650 0.7009 0.0326
C4_21 C 0.7527(6) 0.6560(5) 0.00845(12)
H2_21 H 0.7642 0.6961 0.0018
C5_21 C 0.7341(6) 0.5929(5) 0.00014(12)
C6_21 C 0.7437(7) 0.6031(5) 0.05625(12)
N2_21 N 0.8682(6) 0.4822(5) 0.00981(8)
C10_21 C 0.9276(9) 0.5239(7) 0.01859(12)
H4_21 H 0.9264 0.5216 0.0310
C11_21 C 0.9903(9) 0.5699(7) 0.01064(13)
O8_12 O 0.6436(6) 0.5583(4) 0.10151(9)
H7_21 H 0.721703 0.49011 0.10362
H8_21 H 0.797471 0.540385 0.112957
H9_21 H 0.762196 0.745034 0.0750228
H10_21 H 0.76469 0.762966 0.0959924
H11_21 H 0.910145 0.680446 0.0883677
H12_21 H 0.904356 0.71763 0.10642
H3_21 H 0.7323 0.5912 0.9878
O7_21 O 0.8871(9) 0.5398(7) 0.95404(11)
C7_21 C 0.9367(11) 0.5379(9) 0.96237(15)
C8_21 C 0.9320(9) 0.5280(7) 0.98263(11)
C9_21 C 0.8686(7) 0.4829(6) 0.99219(9)
C12_21 C 0.9925(9) 0.5706(7) 0.99274(13)
Ag1_15 Ag 0.30801(5) 0.74044(3) 0.505468(8)
S1_15 S 0.29957(15) 0.75814(10) 0.46130(2)
N1_22 N 0.2813(5) 0.8155(3) 0.49093(8)
O1_13 O 0.3103(6) 0.8916(4) 0.43484(9)
O2_22 O 0.1972(7) 0.8260(5) 0.43689(9)
O3_22 O 0.2300(7) 0.7607(5) 0.39821(11)
O4_22 O 0.2580(8) 0.9834(6) 0.41313(11)
O5_22 O 0.1124(11) 0.8177(9) 0.40602(14)
C1_22 C 0.2799(6) 0.8153(4) 0.47354(9)
C2_22 C 0.2613(6) 0.8594(4) 0.46350(11)
C3_22 C 0.2459(7) 0.9051(5) 0.47324(13)
H1_22 H 0.2350 0.9359 0.4674
C4_22 C 0.2473(6) 0.9033(4) 0.49155(12)
H2_22 H 0.2358 0.9319 0.4982
C5_22 C 0.2659(6) 0.8588(4) 0.49986(12)
H3_22 H 0.2677 0.8589 0.5122
C6_22 C 0.2563(7) 0.8594(5) 0.44375(12)
Ag2_8 Ag 0.23491(5) 0.64057(3) 0.475840(8)
S2_8 S 0.20949(19) 0.63529(11) 0.51944(3)
N2_22 N 0.1318(6) 0.6140(3) 0.49019(8)
O7_22 O 0.1129(9) 0.6527(5) 0.54596(11)
C7_22 C 0.0633(11) 0.6012(7) 0.53763(15)
C8_22 C 0.0680(9) 0.5960(5) 0.51737(11)
C9_22 C 0.1314(7) 0.6143(4) 0.50781(9)
C10_22 C 0.0724(9) 0.5963(5) 0.48141(12)
H4_22 H 0.0736 0.5952 0.4690
C11_22 C 0.0097(9) 0.5796(5) 0.48936(13)
C12_22 C 0.0075(9) 0.5781(5) 0.50726(13)
Ag3_8 Ag 0.25956(6) 0.56757(4) 0.505468(8)
S3_8 S 0.24186(19) 0.54143(11) 0.46130(2)
O8_13 O 0.3564(6) 0.9146(4) 0.39849(9)
Ag4_15 Ag 0.40566(6) 0.76509(5) 0.475840(8)
S4_15 S 0.42580(22) 0.79051(19) 0.51944(3)
H7_22 H 0.278297 0.768407 0.39638
H8_22 H 0.202529 0.742915 0.387043
H9_22 H 0.237804 0.982838 0.424977
H10_22 H 0.23531 0.998276 0.404008
H11_22 H 0.0898548 0.770301 0.411632
H12_22 H 0.0956438 0.813274 0.39358
H5_18 H 0.9701 0.5698 0.4826
H6_22 H 0.9651 0.5648 0.5130
H5_19 H 0.5997 0.0299 0.4826
H6_23 H 0.5997 0.0349 0.5130
Ag1_16 Ag 0.43243(4) 0.69199(5) 0.505468(8)
S1_16 S 0.45857(11) 0.70043(15) 0.46130(2)
N1_23 N 0.5342(4) 0.7187(5) 0.49093(8)
O1_14 O 0.5813(4) 0.6897(6) 0.43484(9)
O2_23 O 0.6288(5) 0.8028(7) 0.43689(9)
O3_23 O 0.5307(5) 0.7700(7) 0.39821(11)
O4_23 O 0.7254(5) 0.7420(8) 0.41313(11)
O5_23 O 0.7053(7) 0.8876(11) 0.40602(14)
C1_23 C 0.5354(4) 0.7201(6) 0.47354(9)
C2_23 C 0.5981(4) 0.7387(6) 0.46350(11)
C3_23 C 0.6592(5) 0.7541(7) 0.47324(13)
H1_23 H 0.7009 0.7650 0.4674
C4_23 C 0.6560(5) 0.7527(6) 0.49155(12)
H2_23 H 0.6961 0.7642 0.4982
C5_23 C 0.5929(5) 0.7341(6) 0.49986(12)
H3_23 H 0.5912 0.7323 0.5122
C6_23 C 0.6031(5) 0.7437(7) 0.44375(12)
N2_23 N 0.4822(5) 0.8682(6) 0.49019(8)
O7_23 O 0.5398(7) 0.8871(9) 0.54596(11)
C7_23 C 0.5379(9) 0.9367(11) 0.53763(15)
C8_23 C 0.5280(7) 0.9320(9) 0.51737(11)
C9_23 C 0.4829(6) 0.8686(7) 0.50781(9)
C10_23 C 0.5239(7) 0.9276(9) 0.48141(12)
H4_23 H 0.5216 0.9264 0.4690
C11_23 C 0.5699(7) 0.9903(9) 0.48936(13)
C12_23 C 0.5706(7) 0.9925(9) 0.50726(13)
O8_14 O 0.5583(4) 0.6436(6) 0.39849(9)
Ag4_16 Ag 0.35943(3) 0.59434(6) 0.475840(8)
S4_16 S 0.36471(11) 0.57420(22) 0.51944(3)
H7_23 H 0.49011 0.721703 0.39638
H8_23 H 0.540385 0.797471 0.387043
H9_23 H 0.745034 0.762196 0.424977
H10_23 H 0.762966 0.76469 0.404008
H11_23 H 0.680446 0.910145 0.411632
H12_23 H 0.71763 0.904356 0.39358
N1_24 N 0.1845(3) 0.4658(4) 0.49093(8)
O1_15 O 0.1084(4) 0.4187(4) 0.43484(9)
O2_24 O 0.1740(5) 0.3712(5) 0.43689(9)
O3_24 O 0.2393(5) 0.4693(5) 0.39821(11)
O4_24 O 0.0166(6) 0.2746(5) 0.41313(11)
O5_24 O 0.1823(9) 0.2947(7) 0.40602(14)
C1_24 C 0.1847(4) 0.4646(4) 0.47354(9)
C2_24 C 0.1406(4) 0.4019(4) 0.46350(11)
C3_24 C 0.0949(5) 0.3408(5) 0.47324(13)
H1_24 H 0.0641 0.2991 0.4674
C4_24 C 0.0967(4) 0.3440(5) 0.49155(12)
H2_24 H 0.0681 0.3039 0.4982
C5_24 C 0.1412(4) 0.4071(5) 0.49986(12)
H3_24 H 0.1411 0.4088 0.5122
C6_24 C 0.1406(5) 0.3969(5) 0.44375(12)
N2_24 N 0.3860(3) 0.5178(5) 0.49019(8)
O7_24 O 0.3473(5) 0.4602(7) 0.54596(11)
C7_24 C 0.3988(7) 0.4621(9) 0.53763(15)
C8_24 C 0.4040(5) 0.4720(7) 0.51737(11)
C9_24 C 0.3857(4) 0.5171(6) 0.50781(9)
C10_24 C 0.4037(5) 0.4761(7) 0.48141(12)
H4_24 H 0.4048 0.4784 0.4690
C11_24 C 0.4204(5) 0.4301(7) 0.48936(13)
H5_20 H 0.4302 0.4003 0.4826
C12_24 C 0.4219(5) 0.4294(7) 0.50726(13)
H6_24 H 0.4352 0.4003 0.5130
O8_15 O 0.0854(4) 0.4417(4) 0.39849(9)
H7_24 H 0.231593 0.50989 0.39638
H8_24 H 0.257085 0.459615 0.387043
H9_24 H 0.0171616 0.254966 0.424977
H10_24 H 0.00172373 0.237034 0.404008
H11_24 H 0.229699 0.319554 0.411632
H12_24 H 0.186726 0.28237 0.39358
Ag3_9 Ag 0.02532(5) 0.09910(4) 0.661199(8)
S3_9 S 0.03376(15) 0.12524(11) 0.70537(2)
Ag2_9 Ag 0.92767(4) 0.02610(3) 0.690827(8)
S2_9 S 0.90753(16) 0.03138(11) 0.64723(3)
N2_25 N 0.8511(5) 0.0527(3) 0.67648(8)
O7_25 O 0.7935(7) 0.0140(5) 0.62071(11)
C7_25 C 0.7954(9) 0.0655(7) 0.62904(15)
C8_25 C 0.8053(7) 0.0707(5) 0.64930(11)
C9_25 C 0.8504(6) 0.0524(4) 0.65886(9)
C10_25 C 0.8094(7) 0.0704(5) 0.68526(12)
H4_25 H 0.8117 0.0715 0.6977
C11_25 C 0.7634(7) 0.0871(5) 0.67731(13)
H5_21 H 0.7336 0.0969 0.6841
C12_25 C 0.7627(7) 0.0886(5) 0.65941(13)
H6_25 H 0.7336 0.1019 0.6537
Ag1_17 Ag 0.90090(4) 0.92623(3) 0.661199(8)
S1_17 S 0.87476(11) 0.90853(10) 0.70537(2)
N1_25 N 0.7991(4) 0.8512(3) 0.67574(8)
O1_16 O 0.7520(4) 0.7751(4) 0.73183(9)
O2_25 O 0.7045(5) 0.8407(5) 0.72978(9)
O3_25 O 0.8026(5) 0.9060(5) 0.76846(11)
O4_25 O 0.6079(5) 0.6833(6) 0.75354(11)
O5_25 O 0.6280(7) 0.8490(9) 0.76065(14)
C1_25 C 0.7979(4) 0.8514(4) 0.69313(9)
C2_25 C 0.7352(4) 0.8073(4) 0.70317(11)
C3_25 C 0.6741(5) 0.7616(5) 0.69343(13)
H1_25 H 0.6324 0.7308 0.6993
C4_25 C 0.6773(5) 0.7634(4) 0.67512(12)
H2_25 H 0.6372 0.7348 0.6685
C5_25 C 0.7404(5) 0.8079(4) 0.66681(12)
H3_25 H 0.7421 0.8078 0.6545
C6_25 C 0.7302(5) 0.8073(5) 0.72292(12)
O8_16 O 0.7751(4) 0.7520(4) 0.76817(9)
Ag4_17 Ag 0.97390(3) 0.90158(5) 0.690827(8)
S4_17 S 0.96862(11) 0.87616(19) 0.64723(3)
H7_25 H 0.843223 0.89826 0.770286
H8_25 H 0.792948 0.923752 0.779623
H9_25 H 0.588299 0.683828 0.741689
H10_25 H 0.570368 0.66839 0.762659
H11_25 H 0.652887 0.896365 0.755034
H12_25 H 0.615703 0.853393 0.773087
O8_17 O 0.2480(4) 0.0230(6) 0.76817(9)
Ag4_18 Ag 0.09842(5) 0.07233(6) 0.690827(8)
S4_18 S 0.12384(19) 0.09247(22) 0.64723(3)
Ag1_18 Ag 0.07377(3) 0.97468(5) 0.661199(8)
S1_18 S 0.09147(10) 0.96624(15) 0.70537(2)
N1_26 N 0.1488(3) 0.9480(5) 0.67574(8)
O1_17 O 0.2249(4) 0.9770(6) 0.73183(9)
O2_26 O 0.1593(5) 0.8639(7) 0.72978(9)
O3_26 O 0.0940(5) 0.8967(7) 0.76846(11)
O4_26 O 0.3167(6) 0.9247(8) 0.75354(11)
O5_26 O 0.1510(9) 0.7791(11) 0.76065(14)
C1_26 C 0.1486(4) 0.9466(6) 0.69313(9)
C2_26 C 0.1927(4) 0.9280(6) 0.70317(11)
C3_26 C 0.2384(5) 0.9126(7) 0.69343(13)
H1_26 H 0.2692 0.9017 0.6993
C4_26 C 0.2366(4) 0.9140(6) 0.67512(12)
H2_26 H 0.2652 0.9025 0.6685
C5_26 C 0.1921(4) 0.9326(6) 0.66681(12)
H3_26 H 0.1922 0.9344 0.6545
C6_26 C 0.1927(5) 0.9230(7) 0.72292(12)
H7_26 H 0.10174 0.944963 0.770286
H8_26 H 0.076248 0.869196 0.779623
H9_26 H 0.316172 0.904471 0.741689
H10_26 H 0.33161 0.901977 0.762659
H11_26 H 0.103635 0.756521 0.755034
H12_26 H 0.146607 0.76231 0.773087
N2_26 N 0.9473(3) 0.7985(6) 0.67648(8)
O7_26 O 0.9860(5) 0.7796(9) 0.62071(11)
C7_26 C 0.9345(7) 0.7300(11) 0.62904(15)
C8_26 C 0.9293(5) 0.7347(9) 0.64930(11)
C9_26 C 0.9476(4) 0.7981(7) 0.65886(9)
C10_26 C 0.9296(5) 0.7391(9) 0.68526(12)
H4_26 H 0.9285 0.7403 0.6977
C11_26 C 0.9129(5) 0.6764(9) 0.67731(13)
H5_22 H 0.9031 0.6368 0.6841
C12_26 C 0.9114(5) 0.6742(9) 0.65941(13)
H6_26 H 0.8981 0.6318 0.6537
N1_27 N 0.0520(5) 0.2009(4) 0.67574(8)
O1_18 O 0.0230(6) 0.2480(4) 0.73183(9)
O2_27 O 0.1361(7) 0.2955(5) 0.72978(9)
O3_27 O 0.1033(7) 0.1974(5) 0.76846(11)
O4_27 O 0.0753(8) 0.3921(5) 0.75354(11)
O5_27 O 0.2209(11) 0.3720(7) 0.76065(14)
C1_27 C 0.0534(6) 0.2021(4) 0.69313(9)
C2_27 C 0.0720(6) 0.2648(4) 0.70317(11)
C3_27 C 0.0874(7) 0.3259(5) 0.69343(13)
H1_27 H 0.0983 0.3676 0.6993
C4_27 C 0.0860(6) 0.3227(5) 0.67512(12)
H2_27 H 0.0975 0.3628 0.6685
C5_27 C 0.0674(6) 0.2596(5) 0.66681(12)
H3_27 H 0.0656 0.2579 0.6545
C6_27 C 0.0770(7) 0.2698(5) 0.72292(12)
N2_27 N 0.2015(6) 0.1489(5) 0.67648(8)
O7_27 O 0.2204(9) 0.2065(7) 0.62071(11)
C7_27 C 0.2700(11) 0.2046(9) 0.62904(15)
C8_27 C 0.2653(9) 0.1947(7) 0.64930(11)
C9_27 C 0.2019(7) 0.1496(6) 0.65886(9)
C10_27 C 0.2609(9) 0.1906(7) 0.68526(12)
H4_27 H 0.2597 0.1883 0.6977
C11_27 C 0.3236(9) 0.2366(7) 0.67731(13)
H5_23 H 0.3632 0.2664 0.6841
C12_27 C 0.3258(9) 0.2373(7) 0.65941(13)
H6_27 H 0.3682 0.2664 0.6537
H7_27 H 0.0550365 0.156777 0.770286
H8_27 H 0.130804 0.207052 0.779623
H9_27 H 0.0955291 0.411701 0.741689
H10_27 H 0.0980229 0.429632 0.762659
H11_27 H 0.243479 0.347113 0.755034
H12_27 H 0.23769 0.384297 0.773087
O8_18 O 0.9770(6) 0.2249(4) 0.76817(9)
Ag1_19 Ag 0.64134(5) 0.40711(3) 0.172135(8)
S1_19 S 0.63290(15) 0.42481(10) 0.12797(2)
N1_28 N 0.6146(5) 0.4822(3) 0.15760(8)
O2_28 O 0.5305(7) 0.4927(5) 0.10356(9)
O3_28 O 0.5633(7) 0.4274(5) 0.06488(11)
O4_28 O 0.5913(8) 0.6501(6) 0.07980(11)
O5_28 O 0.4457(11) 0.4844(9) 0.07269(14)
C1_28 C 0.6132(6) 0.4820(4) 0.14021(9)
C2_28 C 0.5946(6) 0.5261(4) 0.13017(11)
C3_28 C 0.5792(7) 0.5718(5) 0.13991(13)
H1_28 H 0.5683 0.6026 0.1341
C4_28 C 0.5806(6) 0.5700(4) 0.15822(12)
H2_28 H 0.5691 0.5986 0.1649
C5_28 C 0.5992(6) 0.5255(4) 0.16653(12)
H3_28 H 0.6010 0.5256 0.1789
C6_28 C 0.5896(7) 0.5261(5) 0.11042(12)
Ag2_10 Ag 0.56824(5) 0.30724(3) 0.142507(8)
S2_10 S 0.54282(19) 0.30196(11) 0.18611(3)
N2_28 N 0.4651(6) 0.2807(3) 0.15686(8)
O7_28 O 0.4462(9) 0.3194(5) 0.21263(11)
C7_28 C 0.3966(11) 0.2679(7) 0.20430(15)
C8_28 C 0.4013(9) 0.2627(5) 0.18404(11)
C9_28 C 0.4647(7) 0.2810(4) 0.17448(9)
C10_28 C 0.4057(9) 0.2630(5) 0.14808(12)
H4_28 H 0.4069 0.2619 0.1357
C11_28 C 0.3430(9) 0.2463(5) 0.15603(13)
H5_24 H 0.3034 0.2365 0.1493
C12_28 C 0.3408(9) 0.2448(5) 0.17393(13)
H6_28 H 0.2984 0.2315 0.1797
Ag3_10 Ag 0.59289(6) 0.23424(4) 0.172135(8)
S3_10 S 0.57519(19) 0.20810(11) 0.12797(2)
Ag4_19 Ag 0.73899(6) 0.43176(5) 0.142507(8)
S4_19 S 0.75913(22) 0.45718(19) 0.18611(3)
H7_28 H 0.61163 0.435073 0.0630471
H8_28 H 0.535863 0.409581 0.0537101
H9_28 H 0.571138 0.649505 0.0916438
H10_28 H 0.568644 0.664943 0.0706742
H11_28 H 0.423188 0.436968 0.0782989
H12_28 H 0.428977 0.479941 0.0602463
O4_29 O 0.0587(5) 0.4087(8) 0.07980(11)
O5_29 O 0.0386(7) 0.5543(11) 0.07269(14)
H1_29 H 0.0342 0.4317 0.1341
H2_29 H 0.0294 0.4309 0.1649
H9_29 H 0.0783675 0.428862 0.0916438
H10_29 H 0.0962991 0.431356 0.0706742
H11_29 H 0.0137798 0.576812 0.0782989
H12_29 H 0.0509635 0.571023 0.0602463
Ag1_20 Ag 0.76576(4) 0.35866(5) 0.172135(8)
S1_20 S 0.79190(11) 0.36710(15) 0.12797(2)
N1_29 N 0.8675(4) 0.3854(5) 0.15760(8)
O2_29 O 0.9621(5) 0.4695(7) 0.10356(9)
O3_29 O 0.8640(5) 0.4367(7) 0.06488(11)
C1_29 C 0.8687(4) 0.3868(6) 0.14021(9)
C2_29 C 0.9314(4) 0.4054(6) 0.13017(11)
C3_29 C 0.9925(5) 0.4208(7) 0.13991(13)
C4_29 C 0.9893(5) 0.4194(6) 0.15822(12)
C5_29 C 0.9262(5) 0.4008(6) 0.16653(12)
H3_29 H 0.9245 0.3990 0.1789
C6_29 C 0.9364(5) 0.4104(7) 0.11042(12)
N2_29 N 0.8155(5) 0.5349(6) 0.15686(8)
O7_29 O 0.8731(7) 0.5538(9) 0.21263(11)
C7_29 C 0.8712(9) 0.6034(11) 0.20430(15)
C8_29 C 0.8613(7) 0.5987(9) 0.18404(11)
C9_29 C 0.8162(6) 0.5353(7) 0.17448(9)
C10_29 C 0.8572(7) 0.5943(9) 0.14808(12)
H4_29 H 0.8549 0.5931 0.1357
C11_29 C 0.9032(7) 0.6570(9) 0.15603(13)
H5_25 H 0.9330 0.6966 0.1493
C12_29 C 0.9039(7) 0.6592(9) 0.17393(13)
H6_29 H 0.9330 0.7016 0.1797
Ag4_20 Ag 0.69276(3) 0.26101(6) 0.142507(8)
S4_20 S 0.69804(11) 0.24087(22) 0.18611(3)
H7_29 H 0.823443 0.38837 0.0630471
H8_29 H 0.873719 0.464137 0.0537101
N1_30 N 0.5178(3) 0.1325(4) 0.15760(8)
O2_30 O 0.5073(5) 0.0379(5) 0.10356(9)
O3_30 O 0.5726(5) 0.1360(5) 0.06488(11)
C1_30 C 0.5180(4) 0.1313(4) 0.14021(9)
C2_30 C 0.4739(4) 0.0686(4) 0.13017(11)
C3_30 C 0.4282(5) 0.0075(5) 0.13991(13)
C4_30 C 0.4300(4) 0.0107(5) 0.15822(12)
C5_30 C 0.4745(4) 0.0738(5) 0.16653(12)
H3_30 H 0.4744 0.0755 0.1789
C6_30 C 0.4739(5) 0.0636(5) 0.11042(12)
N2_30 N 0.7193(3) 0.1845(5) 0.15686(8)
O7_30 O 0.6806(5) 0.1269(7) 0.21263(11)
C7_30 C 0.7321(7) 0.1288(9) 0.20430(15)
C8_30 C 0.7373(5) 0.1387(7) 0.18404(11)
C9_30 C 0.7190(4) 0.1838(6) 0.17448(9)
C10_30 C 0.7370(5) 0.1428(7) 0.14808(12)
H4_30 H 0.7381 0.1451 0.1357
C11_30 C 0.7537(5) 0.0968(7) 0.15603(13)
H5_26 H 0.7635 0.0670 0.1493
C12_30 C 0.7552(5) 0.0961(7) 0.17393(13)
H6_30 H 0.7685 0.0670 0.1797
H7_30 H 0.564927 0.176557 0.0630471
H8_30 H 0.590419 0.126281 0.0537101
O4_30 O 0.3499(6) 0.9413(5) 0.07980(11)
O5_30 O 0.5156(9) 0.9614(7) 0.07269(14)
H1_30 H 0.3974 0.9658 0.1341
H2_30 H 0.4014 0.9706 0.1649
H9_30 H 0.350495 0.921633 0.0916438
H10_30 H 0.335057 0.903701 0.0706742
H11_30 H 0.563032 0.98622 0.0782989
H12_30 H 0.520059 0.949036 0.0602463
Ag1_21 Ag 0.23424(4) 0.59289(3) 0.327865(8)
S1_21 S 0.20810(11) 0.57519(10) 0.37203(2)
N1_31 N 0.1325(4) 0.5178(3) 0.34240(8)
O2_31 O 0.0379(5) 0.5073(5) 0.39644(9)
O3_31 O 0.1360(5) 0.5726(5) 0.43512(11)
C1_31 C 0.1313(4) 0.5180(4) 0.35979(9)
C2_31 C 0.0686(4) 0.4739(4) 0.36983(11)
C3_31 C 0.0075(5) 0.4282(5) 0.36009(13)
C4_31 C 0.0107(5) 0.4300(4) 0.34178(12)
C5_31 C 0.0738(5) 0.4745(4) 0.33347(12)
H3_31 H 0.0755 0.4744 0.3211
C6_31 C 0.0636(5) 0.4739(5) 0.38958(12)
Ag2_11 Ag 0.26101(4) 0.69276(3) 0.357493(8)
S2_11 S 0.24087(16) 0.69804(11) 0.31389(3)
N2_31 N 0.1845(5) 0.7193(3) 0.34314(8)
O7_31 O 0.1269(7) 0.6806(5) 0.28737(11)
C7_31 C 0.1288(9) 0.7321(7) 0.29570(15)
C8_31 C 0.1387(7) 0.7373(5) 0.31596(11)
C9_31 C 0.1838(6) 0.7190(4) 0.32552(9)
C10_31 C 0.1428(7) 0.7370(5) 0.35192(12)
H4_31 H 0.1451 0.7381 0.3643
C11_31 C 0.0968(7) 0.7537(5) 0.34397(13)
H5_27 H 0.0670 0.7635 0.3507
C12_31 C 0.0961(7) 0.7552(5) 0.32607(13)
H6_31 H 0.0670 0.7685 0.3203
Ag3_11 Ag 0.35866(5) 0.76576(4) 0.327865(8)
S3_11 S 0.36710(15) 0.79190(11) 0.37203(2)
Ag4_21 Ag 0.30724(3) 0.56824(5) 0.357493(8)
S4_21 S 0.30196(11) 0.54282(19) 0.31389(3)
H7_31 H 0.176557 0.564927 0.436953
H8_31 H 0.126281 0.590419 0.44629
O4_31 O 0.9413(5) 0.3499(6) 0.42020(11)
O5_31 O 0.9614(7) 0.5156(9) 0.42731(14)
H1_31 H 0.9658 0.3974 0.3659
H2_31 H 0.9706 0.4014 0.3351
H9_31 H 0.921633 0.350495 0.408356
H10_31 H 0.903701 0.335057 0.429326
H11_31 H 0.98622 0.563032 0.421701
H12_31 H 0.949036 0.520059 0.439754
Ag1_22 Ag 0.40711(3) 0.64134(5) 0.327865(8)
S1_22 S 0.42481(10) 0.63290(15) 0.37203(2)
N1_32 N 0.4822(3) 0.6146(5) 0.34240(8)
O2_32 O 0.4927(5) 0.5305(7) 0.39644(9)
O3_32 O 0.4274(5) 0.5633(7) 0.43512(11)
O4_32 O 0.6501(6) 0.5913(8) 0.42020(11)
O5_32 O 0.4844(9) 0.4457(11) 0.42731(14)
C1_32 C 0.4820(4) 0.6132(6) 0.35979(9)
C2_32 C 0.5261(4) 0.5946(6) 0.36983(11)
C3_32 C 0.5718(5) 0.5792(7) 0.36009(13)
H1_32 H 0.6026 0.5683 0.3659
C4_32 C 0.5700(4) 0.5806(6) 0.34178(12)
H2_32 H 0.5986 0.5691 0.3351
C5_32 C 0.5255(4) 0.5992(6) 0.33347(12)
H3_32 H 0.5256 0.6010 0.3211
C6_32 C 0.5261(5) 0.5896(7) 0.38958(12)
N2_32 N 0.2807(3) 0.4651(6) 0.34314(8)
O7_32 O 0.3194(5) 0.4462(9) 0.28737(11)
C7_32 C 0.2679(7) 0.3966(11) 0.29570(15)
C8_32 C 0.2627(5) 0.4013(9) 0.31596(11)
C9_32 C 0.2810(4) 0.4647(7) 0.32552(9)
C10_32 C 0.2630(5) 0.4057(9) 0.35192(12)
H4_32 H 0.2619 0.4069 0.3643
C11_32 C 0.2463(5) 0.3430(9) 0.34397(13)
H5_28 H 0.2365 0.3034 0.3507
C12_32 C 0.2448(5) 0.3408(9) 0.32607(13)
H6_32 H 0.2315 0.2984 0.3203
Ag4_22 Ag 0.43176(5) 0.73899(6) 0.357493(8)
S4_22 S 0.45718(19) 0.75913(22) 0.31389(3)
H7_32 H 0.435073 0.61163 0.436953
H8_32 H 0.409581 0.535863 0.44629
H9_32 H 0.649505 0.571138 0.408356
H10_32 H 0.664943 0.568644 0.429326
H11_32 H 0.436968 0.423188 0.421701
H12_32 H 0.479941 0.428977 0.439754
O4_33 O 0.4087(8) 0.0587(5) 0.42020(11)
O5_33 O 0.5543(11) 0.0386(7) 0.42731(14)
H1_33 H 0.4317 0.0342 0.3659
H2_33 H 0.4309 0.0294 0.3351
H9_33 H 0.428862 0.0783675 0.408356
H10_33 H 0.431356 0.0962991 0.429326
H11_33 H 0.576812 0.0137798 0.421701
H12_33 H 0.571023 0.0509635 0.439754
N1_33 N 0.3854(5) 0.8675(4) 0.34240(8)
O2_33 O 0.4695(7) 0.9621(5) 0.39644(9)
O3_33 O 0.4367(7) 0.8640(5) 0.43512(11)
C1_33 C 0.3868(6) 0.8687(4) 0.35979(9)
C2_33 C 0.4054(6) 0.9314(4) 0.36983(11)
C3_33 C 0.4208(7) 0.9925(5) 0.36009(13)
C4_33 C 0.4194(6) 0.9893(5) 0.34178(12)
C5_33 C 0.4008(6) 0.9262(5) 0.33347(12)
H3_33 H 0.3990 0.9245 0.3211
C6_33 C 0.4104(7) 0.9364(5) 0.38958(12)
N2_33 N 0.5349(6) 0.8155(5) 0.34314(8)
O7_33 O 0.5538(9) 0.8731(7) 0.28737(11)
C7_33 C 0.6034(11) 0.8712(9) 0.29570(15)
C8_33 C 0.5987(9) 0.8613(7) 0.31596(11)
C9_33 C 0.5353(7) 0.8162(6) 0.32552(9)
C10_33 C 0.5943(9) 0.8572(7) 0.35192(12)
H4_33 H 0.5931 0.8549 0.3643
C11_33 C 0.6570(9) 0.9032(7) 0.34397(13)
H5_29 H 0.6966 0.9330 0.3507
C12_33 C 0.6592(9) 0.9039(7) 0.32607(13)
H6_33 H 0.7016 0.9330 0.3203
H7_33 H 0.38837 0.823443 0.436953
H8_33 H 0.464137 0.873719 0.44629
Ag4_23 Ag 0.07233(6) 0.09842(5) 0.809173(8)
S4_23 S 0.09247(22) 0.12384(19) 0.85277(3)
Ag1_23 Ag 0.97468(5) 0.07377(3) 0.838801(8)
S1_23 S 0.96624(15) 0.09147(10) 0.79463(2)
N1_34 N 0.9480(5) 0.1488(3) 0.82426(8)
O2_34 O 0.8639(7) 0.1593(5) 0.77022(9)
O3_34 O 0.8967(7) 0.0940(5) 0.73154(11)
O4_34 O 0.9247(8) 0.3167(6) 0.74646(11)
O5_34 O 0.7791(11) 0.1510(9) 0.73935(14)
C1_34 C 0.9466(6) 0.1486(4) 0.80687(9)
C2_34 C 0.9280(6) 0.1927(4) 0.79683(11)
C3_34 C 0.9126(7) 0.2384(5) 0.80657(13)
H1_34 H 0.9017 0.2692 0.8007
C4_34 C 0.9140(6) 0.2366(4) 0.82488(12)
H2_34 H 0.9025 0.2652 0.8315
C5_34 C 0.9326(6) 0.1921(4) 0.83319(12)
H3_34 H 0.9344 0.1922 0.8455
C6_34 C 0.9230(7) 0.1927(5) 0.77708(12)
H7_34 H 0.944963 0.10174 0.729714
H8_34 H 0.869196 0.076248 0.720377
H9_34 H 0.904471 0.316172 0.758311
H10_34 H 0.901977 0.33161 0.737341
H11_34 H 0.756521 0.103635 0.744966
H12_34 H 0.76231 0.146607 0.726913
Ag2_12 Ag 0.90158(5) 0.97390(3) 0.809173(8)
S2_12 S 0.87616(19) 0.96862(11) 0.85277(3)
N2_34 N 0.7985(6) 0.9473(3) 0.82352(8)
O7_34 O 0.7796(9) 0.9860(5) 0.87929(11)
C7_34 C 0.7300(11) 0.9345(7) 0.87096(15)
C8_34 C 0.7347(9) 0.9293(5) 0.85070(11)
C9_34 C 0.7981(7) 0.9476(4) 0.84114(9)
C10_34 C 0.7391(9) 0.9296(5) 0.81474(12)
H4_34 H 0.7403 0.9285 0.8023
C11_34 C 0.6764(9) 0.9129(5) 0.82269(13)
H5_30 H 0.6368 0.9031 0.8159
C12_34 C 0.6742(9) 0.9114(5) 0.84059(13)
H6_34 H 0.6318 0.8981 0.8463
Ag3_12 Ag 0.92623(6) 0.90090(4) 0.838801(8)
S3_12 S 0.90853(19) 0.87476(11) 0.79463(2)
Ag1_24 Ag 0.09910(4) 0.02532(5) 0.838801(8)
S1_24 S 0.12524(11) 0.03376(15) 0.79463(2)
N1_35 N 0.2009(4) 0.0520(5) 0.82426(8)
O2_35 O 0.2955(5) 0.1361(7) 0.77022(9)
O3_35 O 0.1974(5) 0.1033(7) 0.73154(11)
O4_35 O 0.3921(5) 0.0753(8) 0.74646(11)
O5_35 O 0.3720(7) 0.2209(11) 0.73935(14)
C1_35 C 0.2021(4) 0.0534(6) 0.80687(9)
C2_35 C 0.2648(4) 0.0720(6) 0.79683(11)
C3_35 C 0.3259(5) 0.0874(7) 0.80657(13)
H1_35 H 0.3676 0.0983 0.8007
C4_35 C 0.3227(5) 0.0860(6) 0.82488(12)
H2_35 H 0.3628 0.0975 0.8315
C5_35 C 0.2596(5) 0.0674(6) 0.83319(12)
H3_35 H 0.2579 0.0656 0.8455
C6_35 C 0.2698(5) 0.0770(7) 0.77708(12)
N2_35 N 0.1489(5) 0.2015(6) 0.82352(8)
O7_35 O 0.2065(7) 0.2204(9) 0.87929(11)
C7_35 C 0.2046(9) 0.2700(11) 0.87096(15)
C8_35 C 0.1947(7) 0.2653(9) 0.85070(11)
C9_35 C 0.1496(6) 0.2019(7) 0.84114(9)
C10_35 C 0.1906(7) 0.2609(9) 0.81474(12)
H4_35 H 0.1883 0.2597 0.8023
C11_35 C 0.2366(7) 0.3236(9) 0.82269(13)
H5_31 H 0.2664 0.3632 0.8159
C12_35 C 0.2373(7) 0.3258(9) 0.84059(13)
H6_35 H 0.2664 0.3682 0.8463
H7_35 H 0.156777 0.0550365 0.729714
H8_35 H 0.207052 0.130804 0.720377
H9_35 H 0.411701 0.0955291 0.758311
H10_35 H 0.429632 0.0980229 0.737341
H11_35 H 0.347113 0.243479 0.744966
H12_35 H 0.384297 0.23769 0.726913
Ag4_24 Ag 0.02610(3) 0.92767(6) 0.809173(8)
S4_24 S 0.03138(11) 0.90753(22) 0.85277(3)
N2_36 N 0.0527(3) 0.8511(5) 0.82352(8)
O7_36 O 0.0140(5) 0.7935(7) 0.87929(11)
C7_36 C 0.0655(7) 0.7954(9) 0.87096(15)
C8_36 C 0.0707(5) 0.8053(7) 0.85070(11)
C9_36 C 0.0524(4) 0.8504(6) 0.84114(9)
C10_36 C 0.0704(5) 0.8094(7) 0.81474(12)
H4_36 H 0.0715 0.8117 0.8023
C11_36 C 0.0871(5) 0.7634(7) 0.82269(13)
H5_32 H 0.0969 0.7336 0.8159
C12_36 C 0.0886(5) 0.7627(7) 0.84059(13)
H6_36 H 0.1019 0.7336 0.8463
N1_36 N 0.8512(3) 0.7991(4) 0.82426(8)
O2_36 O 0.8407(5) 0.7045(5) 0.77022(9)
O3_36 O 0.9060(5) 0.8026(5) 0.73154(11)
O4_36 O 0.6833(6) 0.6079(5) 0.74646(11)
O5_36 O 0.8490(9) 0.6280(7) 0.73935(14)
C1_36 C 0.8514(4) 0.7979(4) 0.80687(9)
C2_36 C 0.8073(4) 0.7352(4) 0.79683(11)
C3_36 C 0.7616(5) 0.6741(5) 0.80657(13)
H1_36 H 0.7308 0.6324 0.8007
C4_36 C 0.7634(4) 0.6773(5) 0.82488(12)
H2_36 H 0.7348 0.6372 0.8315
C5_36 C 0.8079(4) 0.7404(5) 0.83319(12)
H3_36 H 0.8078 0.7421 0.8455
C6_36 C 0.8073(5) 0.7302(5) 0.77708(12)
H7_36 H 0.89826 0.843223 0.729714
H8_36 H 0.923752 0.792948 0.720377
H9_36 H 0.683828 0.588299 0.758311
H10_36 H 0.66839 0.570368 0.737341
H11_36 H 0.896365 0.652887 0.744966
H12_36 H 0.853393 0.615703 0.726913
H5_33 H 0.4302 0.0299 0.9826
H5_34 H 0.9701 0.4003 0.9826
H5_35 H 0.5698 0.9701 0.0174
H5_36 H 0.0299 0.5997 0.0174
loop_
_geom_bond_atom_site_label_1
_geom_bond_atom_site_label_2
_geom_bond_site_symmetry_1
_geom_bond_site_symmetry_2
S2 Ag1 1_555 1_555
O6 C7 1_555 1_555
O7 C7 1_555 1_555
C7 C8 1_555 1_555
C8 C9 1_555 1_555
C9 S2 1_555 1_555
C12 C8 1_555 1_555
H6 C12 1_555 1_555
Ag3 S2 1_555 1_555
Ca3 O6 1_555 1_555
S4 Ag1 1_555 1_555
Ca1 O1 1_555 1_555
S1 C1 1_555 1_555
N1 C1 1_555 1_555
O1 C6 1_555 1_555
O2 Ca1 1_555 1_555
O3 Ca1 1_555 1_555
O4 Ca1 1_555 1_555
O5 Ca1 1_555 1_555
C1 C2 1_555 1_555
C2 C3 1_555 1_555
C3 H1 1_555 1_555
C4 C3 1_555 1_555
H2 C4 1_555 1_555
C5 N1 1_555 1_555
C6 O2 1_555 1_555
Ag2 S1 1_555 1_555
N2 Ag2 1_555 1_555
C10 N2 1_555 1_555
H4 C10 1_555 1_555
C11 C10 1_555 1_555
H5 C11 1_555 1_555
Ca2 O1 1_555 1_555
S3 Ag2 1_555 1_555
O8 Ca1 1_555 1_555
Ag4 S1 1_555 1_555
O9 Ca1 1_555 1_555
C2 C6 1_555 1_555
C4 C5 1_555 1_555
Ca2 O8 1_555 1_555
O3 H7 1_555 1_555
O3 H8 1_555 1_555
O4 H9 1_555 1_555
O4 H10 1_555 1_555
O5 H11 1_555 1_555
O5 H12 1_555 1_555
S4 Ag1_2 1_555 1_555
O6_2 C7_2 1_555 1_555
O7_2 C7_2 1_555 1_555
C7_2 C8_2 1_555 1_555
C8_2 C9_2 1_555 1_555
C9_2 S4 1_555 1_555
C12_2 C8_2 1_555 1_555
S4_2 Ag1_2 1_555 1_555
Ca1_2 O1_2 1_555 1_555
S1_2 C1_2 1_555 1_555
N1_2 C1_2 1_555 1_555
O1_2 C6_2 1_555 1_555
O2_2 Ca1_2 1_555 1_555
O3_2 Ca1_2 1_555 1_555
O4_2 Ca1_2 1_555 1_555
O5_2 Ca1_2 1_555 1_555
C1_2 C2_2 1_555 1_555
C2_2 C3_2 1_555 1_555
C3_2 H1_2 1_555 1_555
C4_2 C3_2 1_555 1_555
H2_2 C4_2 1_555 1_555
C5_2 N1_2 1_555 1_555
C6_2 O2_2 1_555 1_555
Ag4 S1_2 1_555 1_555
N2_2 Ag4 1_555 1_555
C10_2 N2_2 1_555 1_555
H4_2 C10_2 1_555 1_555
C11_2 C10_2 1_555 1_555
Ca2_2 O1_2 1_555 1_555
O8_2 Ca1_2 1_555 1_555
Ag4_2 S1_2 1_555 1_555
O9_2 Ca1_2 1_555 1_555
C2_2 C6_2 1_555 1_555
C4_2 C5_2 1_555 1_555
Ca2_2 O8_2 1_555 1_555
O3_2 H7_2 1_555 1_555
O3_2 H8_2 1_555 1_555
O4_2 H9_2 1_555 1_555
O4_2 H10_2 1_555 1_555
O5_2 H11_2 1_555 1_555
O5_2 H12_2 1_555 1_555
S4_2 Ag3 1_555 1_555
O6_3 C7_3 1_555 1_555
O7_3 C7_3 1_555 1_555
C7_3 C8_3 1_555 1_555
C8_3 C9_3 1_555 1_555
C9_3 S4_2 1_555 1_555
C12_3 C8_3 1_555 1_555
Ca1_3 O1_3 1_555 1_555
S3 C1_3 1_555 1_555
N1_3 C1_3 1_555 1_555
O1_3 C6_3 1_555 1_555
O2_3 Ca1_3 1_555 1_555
O3_3 Ca1_3 1_555 1_555
O4_3 Ca1_3 1_555 1_555
O5_3 Ca1_3 1_555 1_555
C1_3 C2_3 1_555 1_555
C2_3 C3_3 1_555 1_555
C3_3 H1_3 1_555 1_555
C4_3 C3_3 1_555 1_555
H2_3 C4_3 1_555 1_555
C5_3 N1_3 1_555 1_555
C6_3 O2_3 1_555 1_555
Ag4_2 S3 1_555 1_555
N2_3 Ag4_2 1_555 1_555
C10_3 N2_3 1_555 1_555
H4_3 C10_3 1_555 1_555
C11_3 C10_3 1_555 1_555
Ca2_3 O1_3 1_555 1_555
O8_3 Ca1_3 1_555 1_555
O9_3 Ca1_3 1_555 1_555
C2_3 C6_3 1_555 1_555
C4_3 C5_3 1_555 1_555
Ca2_3 O8_3 1_555 1_555
O3_3 H7_3 1_555 1_555
O3_3 H8_3 1_555 1_555
O4_3 H9_3 1_555 1_555
O4_3 H10_3 1_555 1_555
O5_3 H11_3 1_555 1_555
O5_3 H12_3 1_555 1_555
Ag1_3 N1_4 1_555 1_555
Ca1_4 O1_4 1_555 1_555
S1_3 C1_4 1_555 1_555
N1_4 C1_4 1_555 1_555
O1_4 C6_4 1_555 1_555
O2_4 Ca1_4 1_555 1_555
O3_4 Ca1_4 1_555 1_555
O4_4 Ca1_4 1_555 1_555
O5_4 Ca1_4 1_555 1_555
C1_4 C2_4 1_555 1_555
C2_4 C3_4 1_555 1_555
C3_4 H1_4 1_555 1_555
C4_4 C3_4 1_555 1_555
H2_4 C4_4 1_555 1_555
C5_4 N1_4 1_555 1_555
H3_4 C5_4 1_555 1_555
C6_4 O2_4 1_555 1_555
Ag2_2 S1_3 1_555 1_555
S2_2 Ag1_3 1_555 1_555
N2_4 Ag2_2 1_555 1_555
O6_4 C7_4 1_555 1_555
O7_4 C7_4 1_555 1_555
C7_4 C8_4 1_555 1_555
C8_4 C9_4 1_555 1_555
C9_4 S2_2 1_555 1_555
C10_4 N2_4 1_555 1_555
H4_4 C10_4 1_555 1_555
C11_4 C10_4 1_555 1_555
C12_4 C8_4 1_555 1_555
Ag3_2 S2_2 1_555 1_555
Ca2_4 O1_4 1_555 1_555
S3_2 Ag2_2 1_555 1_555
O8_4 Ca1_4 1_555 1_555
Ag4_3 S1_3 1_555 1_555
S4_3 Ag1_3 1_555 1_555
O9_4 Ca1_4 1_555 1_555
C2_4 C6_4 1_555 1_555
C4_4 C5_4 1_555 1_555
N2_4 C9_4 1_555 1_555
C11_4 C12_4 1_555 1_555
Ca2_4 O8_4 1_555 1_555
O3_4 H7_4 1_555 1_555
O3_4 H8_4 1_555 1_555
O4_4 H9_4 1_555 1_555
O4_4 H10_4 1_555 1_555
O5_4 H11_4 1_555 1_555
O5_4 H12_4 1_555 1_555
Ag1_4 N1_5 1_555 1_555
Ca1_5 O1_5 1_555 1_555
S1_4 C1_5 1_555 1_555
N1_5 C1_5 1_555 1_555
O1_5 C6_5 1_555 1_555
O2_5 Ca1_5 1_555 1_555
O3_5 Ca1_5 1_555 1_555
O4_5 Ca1_5 1_555 1_555
O5_5 Ca1_5 1_555 1_555
C1_5 C2_5 1_555 1_555
C2_5 C3_5 1_555 1_555
C3_5 H1_5 1_555 1_555
C4_5 C3_5 1_555 1_555
H2_5 C4_5 1_555 1_555
C5_5 N1_5 1_555 1_555
H3_5 C5_5 1_555 1_555
C6_5 O2_5 1_555 1_555
Ag4_3 S1_4 1_555 1_555
S4_3 Ag1_4 1_555 1_555
N2_5 Ag4_3 1_555 1_555
O6_5 C7_5 1_555 1_555
O7_5 C7_5 1_555 1_555
C7_5 C8_5 1_555 1_555
C8_5 C9_5 1_555 1_555
C9_5 S4_3 1_555 1_555
C10_5 N2_5 1_555 1_555
H4_5 C10_5 1_555 1_555
C11_5 C10_5 1_555 1_555
C12_5 C8_5 1_555 1_555
Ca2_5 O1_5 1_555 1_555
O8_5 Ca1_5 1_555 1_555
Ag4_4 S1_4 1_555 1_555
S4_4 Ag1_4 1_555 1_555
O9_5 Ca1_5 1_555 1_555
C2_5 C6_5 1_555 1_555
C4_5 C5_5 1_555 1_555
N2_5 C9_5 1_555 1_555
C11_5 C12_5 1_555 1_555
Ca2_5 O8_5 1_555 1_555
O3_5 H7_5 1_555 1_555
O3_5 H8_5 1_555 1_555
O4_5 H9_5 1_555 1_555
O4_5 H10_5 1_555 1_555
O5_5 H11_5 1_555 1_555
O5_5 H12_5 1_555 1_555
Ag3_2 N1_6 1_555 1_555
Ca1_6 O1_6 1_555 1_555
S3_2 C1_6 1_555 1_555
N1_6 C1_6 1_555 1_555
O1_6 C6_6 1_555 1_555
O2_6 Ca1_6 1_555 1_555
O3_6 Ca1_6 1_555 1_555
O4_6 Ca1_6 1_555 1_555
O5_6 Ca1_6 1_555 1_555
C1_6 C2_6 1_555 1_555
C2_6 C3_6 1_555 1_555
C3_6 H1_6 1_555 1_555
C4_6 C3_6 1_555 1_555
H2_6 C4_6 1_555 1_555
C5_6 N1_6 1_555 1_555
H3_6 C5_6 1_555 1_555
C6_6 O2_6 1_555 1_555
Ag4_4 S3_2 1_555 1_555
S4_4 Ag3_2 1_555 1_555
N2_6 Ag4_4 1_555 1_555
O6_6 C7_6 1_555 1_555
O7_6 C7_6 1_555 1_555
C7_6 C8_6 1_555 1_555
C8_6 C9_6 1_555 1_555
C9_6 S4_4 1_555 1_555
C10_6 N2_6 1_555 1_555
H4_6 C10_6 1_555 1_555
C11_6 C10_6 1_555 1_555
H5_4 C11_6 1_555 1_555
C12_6 C8_6 1_555 1_555
H6_6 C12_6 1_555 1_555
Ca2_6 O1_6 1_555 1_555
Ca3_6 O6_6 1_555 1_555
O8_6 Ca1_6 1_555 1_555
O9_6 Ca1_6 1_555 1_555
C2_6 C6_6 1_555 1_555
C4_6 C5_6 1_555 1_555
N2_6 C9_6 1_555 1_555
C11_6 C12_6 1_555 1_555
Ca2_6 O8_6 1_555 1_555
O3_6 H7_6 1_555 1_555
O3_6 H8_6 1_555 1_555
O4_6 H9_6 1_555 1_555
O4_6 H10_6 1_555 1_555
O5_6 H11_6 1_555 1_555
O5_6 H12_6 1_555 1_555
Ag1_5 N1_7 1_555 1_555
Ca1_7 O1_7 1_555 1_555
S1_5 C1_7 1_555 1_555
N1_7 C1_7 1_555 1_555
O1_7 C6_7 1_555 1_555
O2_7 Ca1_7 1_555 1_555
O3_7 Ca1_7 1_555 1_555
O4_7 Ca1_7 1_555 1_555
O5_7 Ca1_7 1_555 1_555
C1_7 C2_7 1_555 1_555
C2_7 C3_7 1_555 1_555
C3_7 H1_7 1_555 1_555
C4_7 C3_7 1_555 1_555
H2_7 C4_7 1_555 1_555
C5_7 N1_7 1_555 1_555
H3_7 C5_7 1_555 1_555
C6_7 O2_7 1_555 1_555
Ca2_7 O1_7 1_555 1_555
O8_7 Ca1_7 1_555 1_555
Ag4_5 S1_5 1_555 1_555
S4_5 Ag1_5 1_555 1_555
O9_7 Ca1_7 1_555 1_555
C2_7 C6_7 1_555 1_555
C4_7 C5_7 1_555 1_555
Ca2_7 O8_7 1_555 1_555
O3_7 H7_7 1_555 1_555
O3_7 H8_7 1_555 1_555
O4_7 H9_7 1_555 1_555
O4_7 H10_7 1_555 1_555
O5_7 H11_7 1_555 1_555
O5_7 H12_7 1_555 1_555
N2_7 Ag2_3 1_555 1_555
O6_7 C7_7 1_555 1_555
O7_7 C7_7 1_555 1_555
C7_7 C8_7 1_555 1_555
C8_7 C9_7 1_555 1_555
C9_7 S2_3 1_555 1_555
C10_7 N2_7 1_555 1_555
H4_7 C10_7 1_555 1_555
C11_7 C10_7 1_555 1_555
H5_5 C11_7 1_555 1_555
C12_7 C8_7 1_555 1_555
H6_7 C12_7 1_555 1_555
Ca3_7 O6_7 1_555 1_555
N2_7 C9_7 1_555 1_555
C11_7 C12_7 1_555 1_555
N2_8 Ag4_5 1_555 1_555
O6_8 C7_8 1_555 1_555
O7_8 C7_8 1_555 1_555
C7_8 C8_8 1_555 1_555
C8_8 C9_8 1_555 1_555
C9_8 S4_5 1_555 1_555
C10_8 N2_8 1_555 1_555
H4_8 C10_8 1_555 1_555
C11_8 C10_8 1_555 1_555
H5_6 C11_8 1_555 1_555
C12_8 C8_8 1_555 1_555
H6_8 C12_8 1_555 1_555
Ca3_8 O6_8 1_555 1_555
N2_8 C9_8 1_555 1_555
C11_8 C12_8 1_555 1_555
Ag1_6 N1_8 1_555 1_555
Ca1_8 O1_8 1_555 1_555
S1_6 C1_8 1_555 1_555
N1_8 C1_8 1_555 1_555
O1_8 C6_8 1_555 1_555
O2_8 Ca1_8 1_555 1_555
O3_8 Ca1_8 1_555 1_555
O4_8 Ca1_8 1_555 1_555
O5_8 Ca1_8 1_555 1_555
C1_8 C2_8 1_555 1_555
C2_8 C3_8 1_555 1_555
C3_8 H1_8 1_555 1_555
C4_8 C3_8 1_555 1_555
H2_8 C4_8 1_555 1_555
C5_8 N1_8 1_555 1_555
H3_8 C5_8 1_555 1_555
C6_8 O2_8 1_555 1_555
O9_8 Ca1_8 1_555 1_555
C2_8 C6_8 1_555 1_555
C4_8 C5_8 1_555 1_555
O3_8 H7_8 1_555 1_555
O3_8 H8_8 1_555 1_555
O4_8 H9_8 1_555 1_555
O4_8 H10_8 1_555 1_555
O5_8 H11_8 1_555 1_555
O5_8 H12_8 1_555 1_555
Ca2_8 O8_8 1_555 1_555
Ca2_9 O8_9 1_555 1_555
Ag3_3 N1_9 1_555 1_555
Ca1_9 O1_9 1_555 1_555
S3_3 C1_9 1_555 1_555
N1_9 C1_9 1_555 1_555
O1_9 C6_9 1_555 1_555
O2_9 Ca1_9 1_555 1_555
O3_9 Ca1_9 1_555 1_555
O4_9 Ca1_9 1_555 1_555
O5_9 Ca1_9 1_555 1_555
C1_9 C2_9 1_555 1_555
C2_9 C3_9 1_555 1_555
C3_9 H1_9 1_555 1_555
C4_9 C3_9 1_555 1_555
H2_9 C4_9 1_555 1_555
C5_9 N1_9 1_555 1_555
H3_9 C5_9 1_555 1_555
C6_9 O2_9 1_555 1_555
Ag4_6 S3_3 1_555 1_555
S4_6 Ag3_3 1_555 1_555
N2_9 Ag4_6 1_555 1_555
O6_9 C7_9 1_555 1_555
O7_9 C7_9 1_555 1_555
C7_9 C8_9 1_555 1_555
C8_9 C9_9 1_555 1_555
C9_9 S4_6 1_555 1_555
C10_9 N2_9 1_555 1_555
H4_9 C10_9 1_555 1_555
C11_9 C10_9 1_555 1_555
H5_7 C11_9 1_555 1_555
C12_9 C8_9 1_555 1_555
H6_9 C12_9 1_555 1_555
Ca3_9 O6_9 1_555 1_555
O9_9 Ca1_9 1_555 1_555
C2_9 C6_9 1_555 1_555
C4_9 C5_9 1_555 1_555
N2_9 C9_9 1_555 1_555
C11_9 C12_9 1_555 1_555
O3_9 H7_9 1_555 1_555
O3_9 H8_9 1_555 1_555
O4_9 H9_9 1_555 1_555
O4_9 H10_9 1_555 1_555
O5_9 H11_9 1_555 1_555
O5_9 H12_9 1_555 1_555
Ag1_7 N1_10 1_555 1_555
S1_7 C1_10 1_555 1_555
N1_10 C1_10 1_555 1_555
O8_3 C6_10 1_555 1_555
O2_10 Ca2_3 1_555 1_555
O3_10 Ca2_3 1_555 1_555
O4_10 Ca2_3 1_555 1_555
O5_10 Ca2_3 1_555 1_555
C1_10 C2_10 1_555 1_555
C2_10 C3_10 1_555 1_555
C3_10 H1_10 1_555 1_555
C4_10 C3_10 1_555 1_555
H2_10 C4_10 1_555 1_555
C5_10 N1_10 1_555 1_555
H3_10 C5_10 1_555 1_555
C6_10 O2_10 1_555 1_555
Ag2_4 S1_7 1_555 1_555
S2_4 Ag1_7 1_555 1_555
N2_10 Ag2_4 1_555 1_555
O6_10 C7_10 1_555 1_555
O7_10 C7_10 1_555 1_555
C7_10 C8_10 1_555 1_555
C8_10 C9_10 1_555 1_555
C9_10 S2_4 1_555 1_555
C10_10 N2_10 1_555 1_555
H4_10 C10_10 1_555 1_555
C11_10 C10_10 1_555 1_555
H5_8 C11_10 1_555 1_555
C12_10 C8_10 1_555 1_555
H6_10 C12_10 1_555 1_555
Ag3_4 S2_4 1_555 1_555
Ca3_10 O6_10 1_555 1_555
S3_4 Ag2_4 1_555 1_555
Ag4_7 S1_7 1_555 1_555
S4_7 Ag1_7 1_555 1_555
O9_10 Ca2_3 1_555 1_555
C2_10 C6_10 1_555 1_555
C4_10 C5_10 1_555 1_555
N2_10 C9_10 1_555 1_555
C11_10 C12_10 1_555 1_555
O3_10 H7_10 1_555 1_555
O3_10 H8_10 1_555 1_555
O4_10 H9_10 1_555 1_555
O4_10 H10_10 1_555 1_555
O5_10 H11_10 1_555 1_555
O5_10 H12_10 1_555 1_555
Ag1_8 N1_11 1_555 1_555
S1_8 C1_11 1_555 1_555
N1_11 C1_11 1_555 1_555
O8_2 C6_11 1_555 1_555
O2_11 Ca2_2 1_555 1_555
O3_11 Ca2_2 1_555 1_555
C1_11 C2_11 1_555 1_555
C2_11 C3_11 1_555 1_555
C4_11 C3_11 1_555 1_555
C5_11 N1_11 1_555 1_555
H3_11 C5_11 1_555 1_555
C6_11 O2_11 1_555 1_555
Ag4_7 S1_8 1_555 1_555
S4_7 Ag1_8 1_555 1_555
N2_11 Ag4_7 1_555 1_555
O6_11 C7_11 1_555 1_555
O7_11 C7_11 1_555 1_555
C7_11 C8_11 1_555 1_555
C8_11 C9_11 1_555 1_555
C9_11 S4_7 1_555 1_555
C10_11 N2_11 1_555 1_555
H4_11 C10_11 1_555 1_555
C11_11 C10_11 1_555 1_555
H5_9 C11_11 1_555 1_555
C12_11 C8_11 1_555 1_555
H6_11 C12_11 1_555 1_555
Ca3_11 O6_11 1_555 1_555
Ag4_8 S1_8 1_555 1_555
S4_8 Ag1_8 1_555 1_555
C2_11 C6_11 1_555 1_555
C4_11 C5_11 1_555 1_555
N2_11 C9_11 1_555 1_555
C11_11 C12_11 1_555 1_555
O3_11 H7_11 1_555 1_555
O3_11 H8_11 1_555 1_555
O4_11 H9_11 1_555 1_555
O4_11 H10_11 1_555 1_555
O5_11 H11_11 1_555 1_555
O5_11 H12_11 1_555 1_555
O4_12 H9_12 1_555 1_555
O4_12 H10_12 1_555 1_555
O5_12 H11_12 1_555 1_555
O5_12 H12_12 1_555 1_555
Ag3_4 N1_12 1_555 1_555
S3_4 C1_12 1_555 1_555
N1_12 C1_12 1_555 1_555
O8 C6_12 1_555 1_555
O2_12 Ca2 1_555 1_555
O3_12 Ca2 1_555 1_555
C1_12 C2_12 1_555 1_555
C2_12 C3_12 1_555 1_555
C4_12 C3_12 1_555 1_555
C5_12 N1_12 1_555 1_555
H3_12 C5_12 1_555 1_555
C6_12 O2_12 1_555 1_555
Ag4_8 S3_4 1_555 1_555
S4_8 Ag3_4 1_555 1_555
N2_12 Ag4_8 1_555 1_555
O6_12 C7_12 1_555 1_555
O7_12 C7_12 1_555 1_555
C7_12 C8_12 1_555 1_555
C8_12 C9_12 1_555 1_555
C9_12 S4_8 1_555 1_555
C10_12 N2_12 1_555 1_555
H4_12 C10_12 1_555 1_555
C11_12 C10_12 1_555 1_555
H5_10 C11_12 1_555 1_555
C12_12 C8_12 1_555 1_555
H6_12 C12_12 1_555 1_555
Ca3_12 O6_12 1_555 1_555
C2_12 C6_12 1_555 1_555
C4_12 C5_12 1_555 1_555
N2_12 C9_12 1_555 1_555
C11_12 C12_12 1_555 1_555
O3_12 H7_12 1_555 1_555
O3_12 H8_12 1_555 1_555
O4_13 H9_13 1_555 1_555
O4_13 H10_13 1_555 1_555
O5_13 H11_13 1_555 1_555
O5_13 H12_13 1_555 1_555
Ag1_9 N1_13 1_555 1_555
S1_9 C1_13 1_555 1_555
N1_13 C1_13 1_555 1_555
O8_6 C6_13 1_555 1_555
O2_13 Ca2_6 1_555 1_555
O3_13 Ca2_6 1_555 1_555
C1_13 C2_13 1_555 1_555
C2_13 C3_13 1_555 1_555
C4_13 C3_13 1_555 1_555
C5_13 N1_13 1_555 1_555
H3_13 C5_13 1_555 1_555
C6_13 O2_13 1_555 1_555
Ag2_5 S1_9 1_555 1_555
S2_5 Ag1_9 1_555 1_555
N2_13 Ag2_5 1_555 1_555
O6_13 C7_13 1_555 1_555
O7_13 C7_13 1_555 1_555
C7_13 C8_13 1_555 1_555
C8_13 C9_13 1_555 1_555
C9_13 S2_5 1_555 1_555
C10_13 N2_13 1_555 1_555
H4_13 C10_13 1_555 1_555
C11_13 C10_13 1_555 1_555
H5_11 C11_13 1_555 1_555
C12_13 C8_13 1_555 1_555
H6_13 C12_13 1_555 1_555
Ag3_5 S2_5 1_555 1_555
Ca3_13 O6_13 1_555 1_555
S3_5 Ag2_5 1_555 1_555
Ag4_9 S1_9 1_555 1_555
S4_9 Ag1_9 1_555 1_555
C2_13 C6_13 1_555 1_555
C4_13 C5_13 1_555 1_555
N2_13 C9_13 1_555 1_555
C11_13 C12_13 1_555 1_555
O3_13 H7_13 1_555 1_555
O3_13 H8_13 1_555 1_555
Ag1_10 N1_14 1_555 1_555
S1_10 C1_14 1_555 1_555
N1_14 C1_14 1_555 1_555
O8_5 C6_14 1_555 1_555
O2_14 Ca2_5 1_555 1_555
O3_14 Ca2_5 1_555 1_555
O4_14 Ca2_5 1_555 1_555
O5_14 Ca2_5 1_555 1_555
C1_14 C2_14 1_555 1_555
C2_14 C3_14 1_555 1_555
C3_14 H1_14 1_555 1_555
C4_14 C3_14 1_555 1_555
H2_14 C4_14 1_555 1_555
C5_14 N1_14 1_555 1_555
H3_14 C5_14 1_555 1_555
C6_14 O2_14 1_555 1_555
Ag4_9 S1_10 1_555 1_555
S4_9 Ag1_10 1_555 1_555
N2_14 Ag4_9 1_555 1_555
O6_14 C7_14 1_555 1_555
O7_14 C7_14 1_555 1_555
C7_14 C8_14 1_555 1_555
C8_14 C9_14 1_555 1_555
C9_14 S4_9 1_555 1_555
C10_14 N2_14 1_555 1_555
H4_14 C10_14 1_555 1_555
C11_14 C10_14 1_555 1_555
H5_12 C11_14 1_555 1_555
C12_14 C8_14 1_555 1_555
H6_14 C12_14 1_555 1_555
Ca3_14 O6_14 1_555 1_555
Ag4_10 S1_10 1_555 1_555
S4_10 Ag1_10 1_555 1_555
O9_14 Ca2_5 1_555 1_555
C2_14 C6_14 1_555 1_555
C4_14 C5_14 1_555 1_555
N2_14 C9_14 1_555 1_555
C11_14 C12_14 1_555 1_555
O3_14 H7_14 1_555 1_555
O3_14 H8_14 1_555 1_555
O4_14 H9_14 1_555 1_555
O4_14 H10_14 1_555 1_555
O5_14 H11_14 1_555 1_555
O5_14 H12_14 1_555 1_555
Ag3_5 N1_15 1_555 1_555
S3_5 C1_15 1_555 1_555
N1_15 C1_15 1_555 1_555
O8_4 C6_15 1_555 1_555
O2_15 Ca2_4 1_555 1_555
O3_15 Ca2_4 1_555 1_555
C1_15 C2_15 1_555 1_555
C2_15 C3_15 1_555 1_555
C4_15 C3_15 1_555 1_555
C5_15 N1_15 1_555 1_555
H3_15 C5_15 1_555 1_555
C6_15 O2_15 1_555 1_555
Ag4_10 S3_5 1_555 1_555
S4_10 Ag3_5 1_555 1_555
N2_15 Ag4_10 1_555 1_555
O6_15 C7_15 1_555 1_555
O7_15 C7_15 1_555 1_555
C7_15 C8_15 1_555 1_555
C8_15 C9_15 1_555 1_555
C9_15 S4_10 1_555 1_555
C10_15 N2_15 1_555 1_555
H4_15 C10_15 1_555 1_555
C11_15 C10_15 1_555 1_555
H5_13 C11_15 1_555 1_555
C12_15 C8_15 1_555 1_555
H6_15 C12_15 1_555 1_555
Ca3_15 O6_15 1_555 1_555
C2_15 C6_15 1_555 1_555
C4_15 C5_15 1_555 1_555
N2_15 C9_15 1_555 1_555
C11_15 C12_15 1_555 1_555
O3_15 H7_15 1_555 1_555
O3_15 H8_15 1_555 1_555
O4_15 H9_15 1_555 1_555
O4_15 H10_15 1_555 1_555
O5_15 H11_15 1_555 1_555
O5_15 H12_15 1_555 1_555
N2_16 Ag2_6 1_555 1_555
O6_16 C7_16 1_555 1_555
O7_16 C7_16 1_555 1_555
C7_16 C8_16 1_555 1_555
C8_16 C9_16 1_555 1_555
C9_16 S2_6 1_555 1_555
C10_16 N2_16 1_555 1_555
H4_16 C10_16 1_555 1_555
C11_16 C10_16 1_555 1_555
H5_14 C11_16 1_555 1_555
C12_16 C8_16 1_555 1_555
H6_16 C12_16 1_555 1_555
Ag3_6 S2_6 1_555 1_555
Ca3_16 O6_16 1_555 1_555
S3_6 Ag2_6 1_555 1_555
N2_16 C9_16 1_555 1_555
C11_16 C12_16 1_555 1_555
Ag1_11 N1_16 1_555 1_555
S1_11 C1_16 1_555 1_555
N1_16 C1_16 1_555 1_555
O8_9 C6_16 1_555 1_555
O2_16 Ca2_9 1_555 1_555
O3_16 Ca2_9 1_555 1_555
O4_16 Ca2_9 1_555 1_555
O5_16 Ca2_9 1_555 1_555
C1_16 C2_16 1_555 1_555
C2_16 C3_16 1_555 1_555
C3_16 H1_16 1_555 1_555
C4_16 C3_16 1_555 1_555
H2_16 C4_16 1_555 1_555
C5_16 N1_16 1_555 1_555
H3_16 C5_16 1_555 1_555
C6_16 O2_16 1_555 1_555
O9_16 Ca2_9 1_555 1_555
C2_16 C6_16 1_555 1_555
C4_16 C5_16 1_555 1_555
O3_16 H7_16 1_555 1_555
O3_16 H8_16 1_555 1_555
O4_16 H9_16 1_555 1_555
O4_16 H10_16 1_555 1_555
O5_16 H11_16 1_555 1_555
O5_16 H12_16 1_555 1_555
Ag1_12 N1_17 1_555 1_555
S1_12 C1_17 1_555 1_555
N1_17 C1_17 1_555 1_555
O8_8 C6_17 1_555 1_555
O2_17 Ca2_8 1_555 1_555
O3_17 Ca2_8 1_555 1_555
O4_17 Ca2_8 1_555 1_555
O5_17 Ca2_8 1_555 1_555
C1_17 C2_17 1_555 1_555
C2_17 C3_17 1_555 1_555
C3_17 H1_17 1_555 1_555
C4_17 C3_17 1_555 1_555
H2_17 C4_17 1_555 1_555
C5_17 N1_17 1_555 1_555
H3_17 C5_17 1_555 1_555
C6_17 O2_17 1_555 1_555
Ag4_11 S1_12 1_555 1_555
S4_11 Ag1_12 1_555 1_555
N2_17 Ag4_11 1_555 1_555
O6_17 C7_17 1_555 1_555
O7_17 C7_17 1_555 1_555
C7_17 C8_17 1_555 1_555
C8_17 C9_17 1_555 1_555
C9_17 S4_11 1_555 1_555
C10_17 N2_17 1_555 1_555
H4_17 C10_17 1_555 1_555
C11_17 C10_17 1_555 1_555
H5_15 C11_17 1_555 1_555
C12_17 C8_17 1_555 1_555
H6_17 C12_17 1_555 1_555
Ca3_17 O6_17 1_555 1_555
O9_17 Ca2_8 1_555 1_555
C2_17 C6_17 1_555 1_555
C4_17 C5_17 1_555 1_555
N2_17 C9_17 1_555 1_555
C11_17 C12_17 1_555 1_555
O3_17 H7_17 1_555 1_555
O3_17 H8_17 1_555 1_555
O4_17 H9_17 1_555 1_555
O4_17 H10_17 1_555 1_555
O5_17 H11_17 1_555 1_555
O5_17 H12_17 1_555 1_555
Ag3_6 N1_18 1_555 1_555
S3_6 C1_18 1_555 1_555
N1_18 C1_18 1_555 1_555
O8_7 C6_18 1_555 1_555
O2_18 Ca2_7 1_555 1_555
O3_18 Ca2_7 1_555 1_555
O4_18 Ca2_7 1_555 1_555
O5_18 Ca2_7 1_555 1_555
C1_18 C2_18 1_555 1_555
C2_18 C3_18 1_555 1_555
C3_18 H1_18 1_555 1_555
C4_18 C3_18 1_555 1_555
H2_18 C4_18 1_555 1_555
C5_18 N1_18 1_555 1_555
H3_18 C5_18 1_555 1_555
C6_18 O2_18 1_555 1_555
O9_18 Ca2_7 1_555 1_555
C2_18 C6_18 1_555 1_555
C4_18 C5_18 1_555 1_555
O3_18 H7_18 1_555 1_555
O3_18 H8_18 1_555 1_555
O4_18 H9_18 1_555 1_555
O4_18 H10_18 1_555 1_555
O5_18 H11_18 1_555 1_555
O5_18 H12_18 1_555 1_555
N2_18 Ag4_12 1_555 1_555
O6_18 C7_18 1_555 1_555
O7_18 C7_18 1_555 1_555
C7_18 C8_18 1_555 1_555
C8_18 C9_18 1_555 1_555
C9_18 S4_12 1_555 1_555
C10_18 N2_18 1_555 1_555
H4_18 C10_18 1_555 1_555
C11_18 C10_18 1_555 1_555
H5_16 C11_18 1_555 1_555
C12_18 C8_18 1_555 1_555
H6_18 C12_18 1_555 1_555
Ca3_18 O6_18 1_555 1_555
N2_18 C9_18 1_555 1_555
C11_18 C12_18 1_555 1_555
Ca3_16 O1_10 1_555 1_555
S1_13 C1_19 1_555 1_555
N1_19 C1_19 1_555 1_555
O1_10 C6_19 1_555 1_555
O2_19 Ca3_16 1_555 1_555
O3_19 Ca3_16 1_555 1_555
O4_19 Ca3_16 1_555 1_555
O5_19 Ca3_16 1_555 1_555
C1_19 C2_19 1_555 1_555
C2_19 C3_19 1_555 1_555
C3_19 H1_19 1_555 1_555
C4_19 C3_19 1_555 1_555
H2_19 C4_19 1_555 1_555
C5_19 N1_19 1_555 1_555
C6_19 O2_19 1_555 1_555
Ag2_7 S1_13 1_555 1_555
N2_19 Ag2_7 1_555 1_555
C10_19 N2_19 1_555 1_555
H4_19 C10_19 1_555 1_555
C11_19 C10_19 1_555 1_555
H5_17 C11_19 1_555 1_555
Ca3_2 O1_10 1_555 1_555
S3_7 Ag2_7 1_555 1_555
O8_10 Ca3_16 1_555 1_555
Ag4_13 S1_13 1_555 1_555
C2_19 C6_19 1_555 1_555
C4_19 C5_19 1_555 1_555
Ca3_2 O8_10 1_555 1_555
O3_19 H7_19 1_555 1_555
O3_19 H8_19 1_555 1_555
O4_19 H9_19 1_555 1_555
O4_19 H10_19 1_555 1_555
O5_19 H11_19 1_555 1_555
O5_19 H12_19 1_555 1_555
S2_7 Ag1_13 1_555 1_555
O9_10 C7_19 1_555 1_555
O7_19 C7_19 1_555 1_555
C7_19 C8_19 1_555 1_555
C8_19 C9_19 1_555 1_555
C9_19 S2_7 1_555 1_555
C12_19 C8_19 1_555 1_555
H6_19 C12_19 1_555 1_555
Ag3_7 S2_7 1_555 1_555
S4_13 Ag1_13 1_555 1_555
Ca3_18 O1_11 1_555 1_555
S1_14 C1_20 1_555 1_555
N1_20 C1_20 1_555 1_555
O1_11 C6_20 1_555 1_555
O2_20 Ca3_18 1_555 1_555
O3_20 Ca3_18 1_555 1_555
O4_20 Ca3_18 1_555 1_555
O5_20 Ca3_18 1_555 1_555
C1_20 C2_20 1_555 1_555
C2_20 C3_20 1_555 1_555
C3_20 H1_20 1_555 1_555
C4_20 C3_20 1_555 1_555
H2_20 C4_20 1_555 1_555
C5_20 N1_20 1_555 1_555
C6_20 O2_20 1_555 1_555
Ag4_13 S1_14 1_555 1_555
N2_20 Ag4_13 1_555 1_555
C10_20 N2_20 1_555 1_555
H4_20 C10_20 1_555 1_555
C11_20 C10_20 1_555 1_555
Ca3_3 O1_11 1_555 1_555
O8_11 Ca3_18 1_555 1_555
Ag4_14 S1_14 1_555 1_555
C2_20 C6_20 1_555 1_555
C4_20 C5_20 1_555 1_555
Ca3_3 O8_11 1_555 1_555
O3_20 H7_20 1_555 1_555
O3_20 H8_20 1_555 1_555
O4_20 H9_20 1_555 1_555
O4_20 H10_20 1_555 1_555
O5_20 H11_20 1_555 1_555
O5_20 H12_20 1_555 1_555
S4_13 Ag1_14 1_555 1_555
O9_12 C7_20 1_555 1_555
O7_20 C7_20 1_555 1_555
C7_20 C8_20 1_555 1_555
C8_20 C9_20 1_555 1_555
C9_20 S4_13 1_555 1_555
C12_20 C8_20 1_555 1_555
S4_14 Ag1_14 1_555 1_555
Ca3_17 O1_12 1_555 1_555
S3_7 C1_21 1_555 1_555
N1_21 C1_21 1_555 1_555
O1_12 C6_21 1_555 1_555
O2_21 Ca3_17 1_555 1_555
O3_21 Ca3_17 1_555 1_555
O4_21 Ca3_17 1_555 1_555
O5_21 Ca3_17 1_555 1_555
C1_21 C2_21 1_555 1_555
C2_21 C3_21 1_555 1_555
C3_21 H1_21 1_555 1_555
C4_21 C3_21 1_555 1_555
H2_21 C4_21 1_555 1_555
C5_21 N1_21 1_555 1_555
C6_21 O2_21 1_555 1_555
Ag4_14 S3_7 1_555 1_555
N2_21 Ag4_14 1_555 1_555
C10_21 N2_21 1_555 1_555
H4_21 C10_21 1_555 1_555
C11_21 C10_21 1_555 1_555
Ca3 O1_12 1_555 1_555
O8_12 Ca3_17 1_555 1_555
C2_21 C6_21 1_555 1_555
C4_21 C5_21 1_555 1_555
Ca3 O8_12 1_555 1_555
O3_21 H7_21 1_555 1_555
O3_21 H8_21 1_555 1_555
O4_21 H9_21 1_555 1_555
O4_21 H10_21 1_555 1_555
O5_21 H11_21 1_555 1_555
O5_21 H12_21 1_555 1_555
S4_14 Ag3_7 1_555 1_555
O9_11 C7_21 1_555 1_555
O7_21 C7_21 1_555 1_555
C7_21 C8_21 1_555 1_555
C8_21 C9_21 1_555 1_555
C9_21 S4_14 1_555 1_555
C12_21 C8_21 1_555 1_555
Ag1_15 N1_22 1_555 1_555
Ca3_7 O1_13 1_555 1_555
S1_15 C1_22 1_555 1_555
N1_22 C1_22 1_555 1_555
O1_13 C6_22 1_555 1_555
O2_22 Ca3_7 1_555 1_555
O3_22 Ca3_7 1_555 1_555
O4_22 Ca3_7 1_555 1_555
O5_22 Ca3_7 1_555 1_555
C1_22 C2_22 1_555 1_555
C2_22 C3_22 1_555 1_555
C3_22 H1_22 1_555 1_555
C4_22 C3_22 1_555 1_555
H2_22 C4_22 1_555 1_555
C5_22 N1_22 1_555 1_555
H3_22 C5_22 1_555 1_555
C6_22 O2_22 1_555 1_555
Ag2_8 S1_15 1_555 1_555
S2_8 Ag1_15 1_555 1_555
N2_22 Ag2_8 1_555 1_555
O9_13 C7_22 1_555 1_555
O7_22 C7_22 1_555 1_555
C7_22 C8_22 1_555 1_555
C8_22 C9_22 1_555 1_555
C9_22 S2_8 1_555 1_555
C10_22 N2_22 1_555 1_555
H4_22 C10_22 1_555 1_555
C11_22 C10_22 1_555 1_555
C12_22 C8_22 1_555 1_555
Ag3_8 S2_8 1_555 1_555
Ca3_5 O1_13 1_555 1_555
S3_8 Ag2_8 1_555 1_555
O8_13 Ca3_7 1_555 1_555
Ag4_15 S1_15 1_555 1_555
S4_15 Ag1_15 1_555 1_555
C2_22 C6_22 1_555 1_555
C4_22 C5_22 1_555 1_555
N2_22 C9_22 1_555 1_555
C11_22 C12_22 1_555 1_555
Ca3_5 O8_13 1_555 1_555
O3_22 H7_22 1_555 1_555
O3_22 H8_22 1_555 1_555
O4_22 H9_22 1_555 1_555
O4_22 H10_22 1_555 1_555
O5_22 H11_22 1_555 1_555
O5_22 H12_22 1_555 1_555
Ag1_16 N1_23 1_555 1_555
Ca3_9 O1_14 1_555 1_555
S1_16 C1_23 1_555 1_555
N1_23 C1_23 1_555 1_555
O1_14 C6_23 1_555 1_555
O2_23 Ca3_9 1_555 1_555
O3_23 Ca3_9 1_555 1_555
O4_23 Ca3_9 1_555 1_555
O5_23 Ca3_9 1_555 1_555
C1_23 C2_23 1_555 1_555
C2_23 C3_23 1_555 1_555
C3_23 H1_23 1_555 1_555
C4_23 C3_23 1_555 1_555
H2_23 C4_23 1_555 1_555
C5_23 N1_23 1_555 1_555
H3_23 C5_23 1_555 1_555
C6_23 O2_23 1_555 1_555
Ag4_15 S1_16 1_555 1_555
S4_15 Ag1_16 1_555 1_555
N2_23 Ag4_15 1_555 1_555
O9_15 C7_23 1_555 1_555
O7_23 C7_23 1_555 1_555
C7_23 C8_23 1_555 1_555
C8_23 C9_23 1_555 1_555
C9_23 S4_15 1_555 1_555
C10_23 N2_23 1_555 1_555
H4_23 C10_23 1_555 1_555
C11_23 C10_23 1_555 1_555
C12_23 C8_23 1_555 1_555
Ca3_6 O1_14 1_555 1_555
O8_14 Ca3_9 1_555 1_555
Ag4_16 S1_16 1_555 1_555
S4_16 Ag1_16 1_555 1_555
C2_23 C6_23 1_555 1_555
C4_23 C5_23 1_555 1_555
N2_23 C9_23 1_555 1_555
C11_23 C12_23 1_555 1_555
Ca3_6 O8_14 1_555 1_555
O3_23 H7_23 1_555 1_555
O3_23 H8_23 1_555 1_555
O4_23 H9_23 1_555 1_555
O4_23 H10_23 1_555 1_555
O5_23 H11_23 1_555 1_555
O5_23 H12_23 1_555 1_555
Ag3_8 N1_24 1_555 1_555
Ca3_8 O1_15 1_555 1_555
S3_8 C1_24 1_555 1_555
N1_24 C1_24 1_555 1_555
O1_15 C6_24 1_555 1_555
O2_24 Ca3_8 1_555 1_555
O3_24 Ca3_8 1_555 1_555
O4_24 Ca3_8 1_555 1_555
O5_24 Ca3_8 1_555 1_555
C1_24 C2_24 1_555 1_555
C2_24 C3_24 1_555 1_555
C3_24 H1_24 1_555 1_555
C4_24 C3_24 1_555 1_555
H2_24 C4_24 1_555 1_555
C5_24 N1_24 1_555 1_555
H3_24 C5_24 1_555 1_555
C6_24 O2_24 1_555 1_555
Ag4_16 S3_8 1_555 1_555
S4_16 Ag3_8 1_555 1_555
N2_24 Ag4_16 1_555 1_555
O9_14 C7_24 1_555 1_555
O7_24 C7_24 1_555 1_555
C7_24 C8_24 1_555 1_555
C8_24 C9_24 1_555 1_555
C9_24 S4_16 1_555 1_555
C10_24 N2_24 1_555 1_555
H4_24 C10_24 1_555 1_555
C11_24 C10_24 1_555 1_555
H5_20 C11_24 1_555 1_555
C12_24 C8_24 1_555 1_555
H6_24 C12_24 1_555 1_555
Ca3_4 O1_15 1_555 1_555
O8_15 Ca3_8 1_555 1_555
C2_24 C6_24 1_555 1_555
C4_24 C5_24 1_555 1_555
N2_24 C9_24 1_555 1_555
C11_24 C12_24 1_555 1_555
Ca3_4 O8_15 1_555 1_555
O3_24 H7_24 1_555 1_555
O3_24 H8_24 1_555 1_555
O4_24 H9_24 1_555 1_555
O4_24 H10_24 1_555 1_555
O5_24 H11_24 1_555 1_555
O5_24 H12_24 1_555 1_555
N2_25 Ag2_9 1_555 1_555
O9_4 C7_25 1_555 1_555
O7_25 C7_25 1_555 1_555
C7_25 C8_25 1_555 1_555
C8_25 C9_25 1_555 1_555
C9_25 S2_9 1_555 1_555
C10_25 N2_25 1_555 1_555
H4_25 C10_25 1_555 1_555
C11_25 C10_25 1_555 1_555
H5_21 C11_25 1_555 1_555
C12_25 C8_25 1_555 1_555
H6_25 C12_25 1_555 1_555
N2_25 C9_25 1_555 1_555
C11_25 C12_25 1_555 1_555
Ag1_17 N1_25 1_555 1_555
Ca3_10 O1_16 1_555 1_555
S1_17 C1_25 1_555 1_555
N1_25 C1_25 1_555 1_555
O1_16 C6_25 1_555 1_555
O2_25 Ca3_10 1_555 1_555
O3_25 Ca3_10 1_555 1_555
O4_25 Ca3_10 1_555 1_555
O5_25 Ca3_10 1_555 1_555
C1_25 C2_25 1_555 1_555
C2_25 C3_25 1_555 1_555
C3_25 H1_25 1_555 1_555
C4_25 C3_25 1_555 1_555
H2_25 C4_25 1_555 1_555
C5_25 N1_25 1_555 1_555
H3_25 C5_25 1_555 1_555
C6_25 O2_25 1_555 1_555
Ca3_14 O1_16 1_555 1_555
O8_16 Ca3_10 1_555 1_555
Ag4_17 S1_17 1_555 1_555
S4_17 Ag1_17 1_555 1_555
C2_25 C6_25 1_555 1_555
C4_25 C5_25 1_555 1_555
Ca3_14 O8_16 1_555 1_555
O3_25 H7_25 1_555 1_555
O3_25 H8_25 1_555 1_555
O4_25 H9_25 1_555 1_555
O4_25 H10_25 1_555 1_555
O5_25 H11_25 1_555 1_555
O5_25 H12_25 1_555 1_555
Ca3_15 O8_17 1_555 1_555
Ag1_18 N1_26 1_555 1_555
Ca3_12 O1_17 1_555 1_555
S1_18 C1_26 1_555 1_555
N1_26 C1_26 1_555 1_555
O1_17 C6_26 1_555 1_555
O2_26 Ca3_12 1_555 1_555
O3_26 Ca3_12 1_555 1_555
O4_26 Ca3_12 1_555 1_555
O5_26 Ca3_12 1_555 1_555
C1_26 C2_26 1_555 1_555
C2_26 C3_26 1_555 1_555
C3_26 H1_26 1_555 1_555
C4_26 C3_26 1_555 1_555
H2_26 C4_26 1_555 1_555
C5_26 N1_26 1_555 1_555
H3_26 C5_26 1_555 1_555
C6_26 O2_26 1_555 1_555
C2_26 C6_26 1_555 1_555
C4_26 C5_26 1_555 1_555
O3_26 H7_26 1_555 1_555
O3_26 H8_26 1_555 1_555
O4_26 H9_26 1_555 1_555
O4_26 H10_26 1_555 1_555
O5_26 H11_26 1_555 1_555
O5_26 H12_26 1_555 1_555
N2_26 Ag4_17 1_555 1_555
O9_6 C7_26 1_555 1_555
O7_26 C7_26 1_555 1_555
C7_26 C8_26 1_555 1_555
C8_26 C9_26 1_555 1_555
C9_26 S4_17 1_555 1_555
C10_26 N2_26 1_555 1_555
H4_26 C10_26 1_555 1_555
C11_26 C10_26 1_555 1_555
H5_22 C11_26 1_555 1_555
C12_26 C8_26 1_555 1_555
H6_26 C12_26 1_555 1_555
N2_26 C9_26 1_555 1_555
C11_26 C12_26 1_555 1_555
Ag3_9 N1_27 1_555 1_555
Ca3_11 O1_18 1_555 1_555
S3_9 C1_27 1_555 1_555
N1_27 C1_27 1_555 1_555
O1_18 C6_27 1_555 1_555
O2_27 Ca3_11 1_555 1_555
O3_27 Ca3_11 1_555 1_555
O4_27 Ca3_11 1_555 1_555
O5_27 Ca3_11 1_555 1_555
C1_27 C2_27 1_555 1_555
C2_27 C3_27 1_555 1_555
C3_27 H1_27 1_555 1_555
C4_27 C3_27 1_555 1_555
H2_27 C4_27 1_555 1_555
C5_27 N1_27 1_555 1_555
H3_27 C5_27 1_555 1_555
C6_27 O2_27 1_555 1_555
Ag4_18 S3_9 1_555 1_555
S4_18 Ag3_9 1_555 1_555
N2_27 Ag4_18 1_555 1_555
O9_5 C7_27 1_555 1_555
O7_27 C7_27 1_555 1_555
C7_27 C8_27 1_555 1_555
C8_27 C9_27 1_555 1_555
C9_27 S4_18 1_555 1_555
C10_27 N2_27 1_555 1_555
H4_27 C10_27 1_555 1_555
C11_27 C10_27 1_555 1_555
H5_23 C11_27 1_555 1_555
C12_27 C8_27 1_555 1_555
H6_27 C12_27 1_555 1_555
C2_27 C6_27 1_555 1_555
C4_27 C5_27 1_555 1_555
N2_27 C9_27 1_555 1_555
C11_27 C12_27 1_555 1_555
O3_27 H7_27 1_555 1_555
O3_27 H8_27 1_555 1_555
O4_27 H9_27 1_555 1_555
O4_27 H10_27 1_555 1_555
O5_27 H11_27 1_555 1_555
O5_27 H12_27 1_555 1_555
Ca3_13 O8_18 1_555 1_555
Ag1_19 N1_28 1_555 1_555
S1_19 C1_28 1_555 1_555
N1_28 C1_28 1_555 1_555
O8_12 C6_28 1_555 1_555
O2_28 Ca3 1_555 1_555
O3_28 Ca3 1_555 1_555
O4_28 Ca3 1_555 1_555
O5_28 Ca3 1_555 1_555
C1_28 C2_28 1_555 1_555
C2_28 C3_28 1_555 1_555
C3_28 H1_28 1_555 1_555
C4_28 C3_28 1_555 1_555
H2_28 C4_28 1_555 1_555
C5_28 N1_28 1_555 1_555
H3_28 C5_28 1_555 1_555
C6_28 O2_28 1_555 1_555
Ag2_10 S1_19 1_555 1_555
S2_10 Ag1_19 1_555 1_555
N2_28 Ag2_10 1_555 1_555
O9_7 C7_28 1_555 1_555
O7_28 C7_28 1_555 1_555
C7_28 C8_28 1_555 1_555
C8_28 C9_28 1_555 1_555
C9_28 S2_10 1_555 1_555
C10_28 N2_28 1_555 1_555
H4_28 C10_28 1_555 1_555
C11_28 C10_28 1_555 1_555
H5_24 C11_28 1_555 1_555
C12_28 C8_28 1_555 1_555
H6_28 C12_28 1_555 1_555
Ag3_10 S2_10 1_555 1_555
S3_10 Ag2_10 1_555 1_555
Ag4_19 S1_19 1_555 1_555
S4_19 Ag1_19 1_555 1_555
C2_28 C6_28 1_555 1_555
C4_28 C5_28 1_555 1_555
N2_28 C9_28 1_555 1_555
C11_28 C12_28 1_555 1_555
O3_28 H7_28 1_555 1_555
O3_28 H8_28 1_555 1_555
O4_28 H9_28 1_555 1_555
O4_28 H10_28 1_555 1_555
O5_28 H11_28 1_555 1_555
O5_28 H12_28 1_555 1_555
O4_29 H9_29 1_555 1_555
O4_29 H10_29 1_555 1_555
O5_29 H11_29 1_555 1_555
O5_29 H12_29 1_555 1_555
Ag1_20 N1_29 1_555 1_555
S1_20 C1_29 1_555 1_555
N1_29 C1_29 1_555 1_555
O8_11 C6_29 1_555 1_555
O2_29 Ca3_3 1_555 1_555
O3_29 Ca3_3 1_555 1_555
C1_29 C2_29 1_555 1_555
C2_29 C3_29 1_555 1_555
C4_29 C3_29 1_555 1_555
C5_29 N1_29 1_555 1_555
H3_29 C5_29 1_555 1_555
C6_29 O2_29 1_555 1_555
Ag4_19 S1_20 1_555 1_555
S4_19 Ag1_20 1_555 1_555
N2_29 Ag4_19 1_555 1_555
O9_9 C7_29 1_555 1_555
O7_29 C7_29 1_555 1_555
C7_29 C8_29 1_555 1_555
C8_29 C9_29 1_555 1_555
C9_29 S4_19 1_555 1_555
C10_29 N2_29 1_555 1_555
H4_29 C10_29 1_555 1_555
C11_29 C10_29 1_555 1_555
H5_25 C11_29 1_555 1_555
C12_29 C8_29 1_555 1_555
H6_29 C12_29 1_555 1_555
Ag4_20 S1_20 1_555 1_555
S4_20 Ag1_20 1_555 1_555
C2_29 C6_29 1_555 1_555
C4_29 C5_29 1_555 1_555
N2_29 C9_29 1_555 1_555
C11_29 C12_29 1_555 1_555
O3_29 H7_29 1_555 1_555
O3_29 H8_29 1_555 1_555
Ag3_10 N1_30 1_555 1_555
S3_10 C1_30 1_555 1_555
N1_30 C1_30 1_555 1_555
O8_10 C6_30 1_555 1_555
O2_30 Ca3_2 1_555 1_555
O3_30 Ca3_2 1_555 1_555
C1_30 C2_30 1_555 1_555
C2_30 C3_30 1_555 1_555
C4_30 C3_30 1_555 1_555
C5_30 N1_30 1_555 1_555
H3_30 C5_30 1_555 1_555
C6_30 O2_30 1_555 1_555
Ag4_20 S3_10 1_555 1_555
S4_20 Ag3_10 1_555 1_555
N2_30 Ag4_20 1_555 1_555
O9_8 C7_30 1_555 1_555
O7_30 C7_30 1_555 1_555
C7_30 C8_30 1_555 1_555
C8_30 C9_30 1_555 1_555
C9_30 S4_20 1_555 1_555
C10_30 N2_30 1_555 1_555
H4_30 C10_30 1_555 1_555
C11_30 C10_30 1_555 1_555
H5_26 C11_30 1_555 1_555
C12_30 C8_30 1_555 1_555
H6_30 C12_30 1_555 1_555
C2_30 C6_30 1_555 1_555
C4_30 C5_30 1_555 1_555
N2_30 C9_30 1_555 1_555
C11_30 C12_30 1_555 1_555
O3_30 H7_30 1_555 1_555
O3_30 H8_30 1_555 1_555
O4_30 H9_30 1_555 1_555
O4_30 H10_30 1_555 1_555
O5_30 H11_30 1_555 1_555
O5_30 H12_30 1_555 1_555
Ag1_21 N1_31 1_555 1_555
S1_21 C1_31 1_555 1_555
N1_31 C1_31 1_555 1_555
O8_15 C6_31 1_555 1_555
O2_31 Ca3_4 1_555 1_555
O3_31 Ca3_4 1_555 1_555
C1_31 C2_31 1_555 1_555
C2_31 C3_31 1_555 1_555
C4_31 C3_31 1_555 1_555
C5_31 N1_31 1_555 1_555
H3_31 C5_31 1_555 1_555
C6_31 O2_31 1_555 1_555
Ag2_11 S1_21 1_555 1_555
S2_11 Ag1_21 1_555 1_555
N2_31 Ag2_11 1_555 1_555
O9_16 C7_31 1_555 1_555
O7_31 C7_31 1_555 1_555
C7_31 C8_31 1_555 1_555
C8_31 C9_31 1_555 1_555
C9_31 S2_11 1_555 1_555
C10_31 N2_31 1_555 1_555
H4_31 C10_31 1_555 1_555
C11_31 C10_31 1_555 1_555
H5_27 C11_31 1_555 1_555
C12_31 C8_31 1_555 1_555
H6_31 C12_31 1_555 1_555
Ag3_11 S2_11 1_555 1_555
S3_11 Ag2_11 1_555 1_555
Ag4_21 S1_21 1_555 1_555
S4_21 Ag1_21 1_555 1_555
C2_31 C6_31 1_555 1_555
C4_31 C5_31 1_555 1_555
N2_31 C9_31 1_555 1_555
C11_31 C12_31 1_555 1_555
O3_31 H7_31 1_555 1_555
O3_31 H8_31 1_555 1_555
O4_31 H9_31 1_555 1_555
O4_31 H10_31 1_555 1_555
O5_31 H11_31 1_555 1_555
O5_31 H12_31 1_555 1_555
Ag1_22 N1_32 1_555 1_555
S1_22 C1_32 1_555 1_555
N1_32 C1_32 1_555 1_555
O8_14 C6_32 1_555 1_555
O2_32 Ca3_6 1_555 1_555
O3_32 Ca3_6 1_555 1_555
O4_32 Ca3_6 1_555 1_555
O5_32 Ca3_6 1_555 1_555
C1_32 C2_32 1_555 1_555
C2_32 C3_32 1_555 1_555
C3_32 H1_32 1_555 1_555
C4_32 C3_32 1_555 1_555
H2_32 C4_32 1_555 1_555
C5_32 N1_32 1_555 1_555
H3_32 C5_32 1_555 1_555
C6_32 O2_32 1_555 1_555
Ag4_21 S1_22 1_555 1_555
S4_21 Ag1_22 1_555 1_555
N2_32 Ag4_21 1_555 1_555
O9_18 C7_32 1_555 1_555
O7_32 C7_32 1_555 1_555
C7_32 C8_32 1_555 1_555
C8_32 C9_32 1_555 1_555
C9_32 S4_21 1_555 1_555
C10_32 N2_32 1_555 1_555
H4_32 C10_32 1_555 1_555
C11_32 C10_32 1_555 1_555
H5_28 C11_32 1_555 1_555
C12_32 C8_32 1_555 1_555
H6_32 C12_32 1_555 1_555
Ag4_22 S1_22 1_555 1_555
S4_22 Ag1_22 1_555 1_555
C2_32 C6_32 1_555 1_555
C4_32 C5_32 1_555 1_555
N2_32 C9_32 1_555 1_555
C11_32 C12_32 1_555 1_555
O3_32 H7_32 1_555 1_555
O3_32 H8_32 1_555 1_555
O4_32 H9_32 1_555 1_555
O4_32 H10_32 1_555 1_555
O5_32 H11_32 1_555 1_555
O5_32 H12_32 1_555 1_555
O4_33 H9_33 1_555 1_555
O4_33 H10_33 1_555 1_555
O5_33 H11_33 1_555 1_555
O5_33 H12_33 1_555 1_555
Ag3_11 N1_33 1_555 1_555
S3_11 C1_33 1_555 1_555
N1_33 C1_33 1_555 1_555
O8_13 C6_33 1_555 1_555
O2_33 Ca3_5 1_555 1_555
O3_33 Ca3_5 1_555 1_555
C1_33 C2_33 1_555 1_555
C2_33 C3_33 1_555 1_555
C4_33 C3_33 1_555 1_555
C5_33 N1_33 1_555 1_555
H3_33 C5_33 1_555 1_555
C6_33 O2_33 1_555 1_555
Ag4_22 S3_11 1_555 1_555
S4_22 Ag3_11 1_555 1_555
N2_33 Ag4_22 1_555 1_555
O9_17 C7_33 1_555 1_555
O7_33 C7_33 1_555 1_555
C7_33 C8_33 1_555 1_555
C8_33 C9_33 1_555 1_555
C9_33 S4_22 1_555 1_555
C10_33 N2_33 1_555 1_555
H4_33 C10_33 1_555 1_555
C11_33 C10_33 1_555 1_555
H5_29 C11_33 1_555 1_555
C12_33 C8_33 1_555 1_555
H6_33 C12_33 1_555 1_555
C2_33 C6_33 1_555 1_555
C4_33 C5_33 1_555 1_555
N2_33 C9_33 1_555 1_555
C11_33 C12_33 1_555 1_555
O3_33 H7_33 1_555 1_555
O3_33 H8_33 1_555 1_555
Ag1_23 N1_34 1_555 1_555
S1_23 C1_34 1_555 1_555
N1_34 C1_34 1_555 1_555
O8_18 C6_34 1_555 1_555
O2_34 Ca3_13 1_555 1_555
O3_34 Ca3_13 1_555 1_555
O4_34 Ca3_13 1_555 1_555
O5_34 Ca3_13 1_555 1_555
C1_34 C2_34 1_555 1_555
C2_34 C3_34 1_555 1_555
C3_34 H1_34 1_555 1_555
C4_34 C3_34 1_555 1_555
H2_34 C4_34 1_555 1_555
C5_34 N1_34 1_555 1_555
H3_34 C5_34 1_555 1_555
C6_34 O2_34 1_555 1_555
C2_34 C6_34 1_555 1_555
C4_34 C5_34 1_555 1_555
O3_34 H7_34 1_555 1_555
O3_34 H8_34 1_555 1_555
O4_34 H9_34 1_555 1_555
O4_34 H10_34 1_555 1_555
O5_34 H11_34 1_555 1_555
O5_34 H12_34 1_555 1_555
N2_34 Ag2_12 1_555 1_555
O9 C7_34 1_555 1_555
O7_34 C7_34 1_555 1_555
C7_34 C8_34 1_555 1_555
C8_34 C9_34 1_555 1_555
C9_34 S2_12 1_555 1_555
C10_34 N2_34 1_555 1_555
H4_34 C10_34 1_555 1_555
C11_34 C10_34 1_555 1_555
H5_30 C11_34 1_555 1_555
C12_34 C8_34 1_555 1_555
H6_34 C12_34 1_555 1_555
Ag3_12 S2_12 1_555 1_555
S3_12 Ag2_12 1_555 1_555
N2_34 C9_34 1_555 1_555
C11_34 C12_34 1_555 1_555
Ag1_24 N1_35 1_555 1_555
S1_24 C1_35 1_555 1_555
N1_35 C1_35 1_555 1_555
O8_17 C6_35 1_555 1_555
O2_35 Ca3_15 1_555 1_555
O3_35 Ca3_15 1_555 1_555
O4_35 Ca3_15 1_555 1_555
O5_35 Ca3_15 1_555 1_555
C1_35 C2_35 1_555 1_555
C2_35 C3_35 1_555 1_555
C3_35 H1_35 1_555 1_555
C4_35 C3_35 1_555 1_555
H2_35 C4_35 1_555 1_555
C5_35 N1_35 1_555 1_555
H3_35 C5_35 1_555 1_555
C6_35 O2_35 1_555 1_555
Ag4_23 S1_24 1_555 1_555
S4_23 Ag1_24 1_555 1_555
N2_35 Ag4_23 1_555 1_555
O9_3 C7_35 1_555 1_555
O7_35 C7_35 1_555 1_555
C7_35 C8_35 1_555 1_555
C8_35 C9_35 1_555 1_555
C9_35 S4_23 1_555 1_555
C10_35 N2_35 1_555 1_555
H4_35 C10_35 1_555 1_555
C11_35 C10_35 1_555 1_555
H5_31 C11_35 1_555 1_555
C12_35 C8_35 1_555 1_555
H6_35 C12_35 1_555 1_555
C2_35 C6_35 1_555 1_555
C4_35 C5_35 1_555 1_555
N2_35 C9_35 1_555 1_555
C11_35 C12_35 1_555 1_555
O3_35 H7_35 1_555 1_555
O3_35 H8_35 1_555 1_555
O4_35 H9_35 1_555 1_555
O4_35 H10_35 1_555 1_555
O5_35 H11_35 1_555 1_555
O5_35 H12_35 1_555 1_555
N2_36 Ag4_24 1_555 1_555
O9_2 C7_36 1_555 1_555
O7_36 C7_36 1_555 1_555
C7_36 C8_36 1_555 1_555
C8_36 C9_36 1_555 1_555
C9_36 S4_24 1_555 1_555
C10_36 N2_36 1_555 1_555
H4_36 C10_36 1_555 1_555
C11_36 C10_36 1_555 1_555
H5_32 C11_36 1_555 1_555
C12_36 C8_36 1_555 1_555
H6_36 C12_36 1_555 1_555
N2_36 C9_36 1_555 1_555
C11_36 C12_36 1_555 1_555
Ag3_12 N1_36 1_555 1_555
S3_12 C1_36 1_555 1_555
N1_36 C1_36 1_555 1_555
O8_16 C6_36 1_555 1_555
O2_36 Ca3_14 1_555 1_555
O3_36 Ca3_14 1_555 1_555
O4_36 Ca3_14 1_555 1_555
O5_36 Ca3_14 1_555 1_555
C1_36 C2_36 1_555 1_555
C2_36 C3_36 1_555 1_555
C3_36 H1_36 1_555 1_555
C4_36 C3_36 1_555 1_555
H2_36 C4_36 1_555 1_555
C5_36 N1_36 1_555 1_555
H3_36 C5_36 1_555 1_555
C6_36 O2_36 1_555 1_555
C2_36 C6_36 1_555 1_555
C4_36 C5_36 1_555 1_555
O3_36 H7_36 1_555 1_555
O3_36 H8_36 1_555 1_555
O4_36 H9_36 1_555 1_555
O4_36 H10_36 1_555 1_555
O5_36 H11_36 1_555 1_555
O5_36 H12_36 1_555 1_555

#END
