
###############################################################################
#
# This file contains modified crystal structure data generated from the
# MOF subset of the Cambridge Structural Database (CSD) v543 
# hosted by the Cambridge Crystallographic Data Centre (CCDC).
#
# This work is licensed under the Creative Commons
# Attribution-NonCommercial-ShareAlike 4.0 International License.
# To view a copy of this license, visit
# http://creativecommons.org/licenses/by-nc-sa/4.0/
# or send a letter to
# Creative Commons, PO Box 1866, Mountain View, CA 94042, USA.
#
# CIF created using the CSD Python API on 29 September 2022
# The structure has been converted into the P1 space group
# The structure has a 3D framework
# The original CSD entry OLUCAZ is in the orthorhombic crystal system
# The framework has been calculated to contain at least 10.0% void space
# The void calculation uses a probe of radius 1.32A, grid spacing 0.4
#
###############################################################################

data_OLUCAZ
_chemical_formula_moiety         '(C72 H80 Cu4 N16 O20)n'
_symmetry_cell_setting           triclinic
_symmetry_space_group_name_H-M   'P 1'
_symmetry_Int_Tables_number      1
_space_group_name_Hall           'P 1'
loop_
_symmetry_equiv_pos_site_id
_symmetry_equiv_pos_as_xyz
1 x,y,z
_cell_length_a                   15.401(3)
_cell_length_b                   17.141(3)
_cell_length_c                   9.0521(18)
_cell_angle_alpha                90
_cell_angle_beta                 90
_cell_angle_gamma                90
_cell_volume                     2389.65
loop_
_atom_site_label
_atom_site_type_symbol
_atom_site_fract_x
_atom_site_fract_y
_atom_site_fract_z
C15 C 0.0074(4) 0.4864(4) 0.2444(8)
H17 H 0.0639 0.5030 0.2625
H18 H 0.0181 0.3819 0.3469
H4 H 0.3330 0.2997 0.0240
H5 H 0.3462 0.2110 0.0588
H7 H 0.4802 0.2622 0.0682
C8 C 0.6542(4) 0.2218(4) 0.1308(7)
H12 H 0.6389 0.2739 0.1431
C9 C 0.6719(4) 0.1072(4) 0.0310(8)
C10 C 0.7039(4) 0.1061(4) 0.1703(8)
H14 H 0.7295 0.0635 0.2166
C11 C 0.8929(4) 0.3928(3) 0.2811(7)
C12 C 0.8372(4) 0.4403(3) 0.2033(7)
H15 H 0.7795 0.4257 0.1917
C13 C 0.8663(4) 0.5097(3) 0.1421(7)
C14 C 0.9522(4) 0.5323(3) 0.1642(7)
H16 H 0.9721 0.5789 0.1241
C16 C 0.9794(4) 0.4148(4) 0.2989(7)
C17 C 0.8614(4) 0.3169(4) 0.3438(7)
C18 C 0.8056(4) 0.5622(4) 0.0539(8)
N3 N 0.6403(3) 0.1801(3) 0.0067(6)
N4 N 0.6922(3) 0.1790(3) 0.2319(6)
O1 O 0.7800(3) 0.3065(3) 0.3390(5)
O2 O 0.9149(3) 0.2693(2) 0.3919(6)
O3 O 0.8341(3) 0.6289(2) 0.0256(5)
O4 O 0.7344(3) 0.5360(3) 0.0137(8)
O5 O 0.5898(3) 0.2834(3) 0.4538(9)
Cu1 Cu 0.72173(4) 0.21815(4) 0.42936(10)
H19 H 0.586(6) 0.331(3) 0.493(10)
H20 H 0.539(3) 0.269(5) 0.488(11)
N5 N 0.7621(3) 0.2586(3) 0.6253(6)
O6 O 0.6659(3) 0.1289(2) 0.5256(5)
C1 C 0.2971(4) 0.2788(4) 0.7349(7)
H1 H 0.3086 0.3321 0.7349
C2 C 0.2558(5) 0.1656(4) 0.6662(8)
H2 H 0.2330 0.1255 0.6089
C3 C 0.2885(4) 0.1580(5) 0.8053(9)
H3 H 0.2925 0.1123 0.8604
C4 C 0.3577(4) 0.2515(5) 0.9866(8)
C5 C 0.4543(4) 0.2614(4) 0.9705(7)
H6 H 0.4658 0.3114 0.9245
C6 C 0.4979(4) 0.1980(4) 0.8800(8)
H8 H 0.4846 0.1476 0.9233
H9 H 0.4743 0.1987 0.7807
C7 C 0.5976(4) 0.2075(4) 0.8715(8)
H10 H 0.6116 0.2621 0.8561
H11 H 0.6195 0.1783 0.7877
H13 H 0.6717 0.0659 0.9645
N1 N 0.2621(3) 0.2414(3) 0.6253(6)
N2 N 0.3144(3) 0.2311(3) 0.8476(6)
Cu2 Cu 0.22173(4) 0.28185(4) 0.42936(10)
Cu3 Cu 0.77827(4) 0.71815(4) 0.92936(10)
C1_2 C 0.7029(4) 0.7212(4) 0.2349(7)
H1_2 H 0.6914 0.6679 0.2349
C2_2 C 0.7442(5) 0.8344(4) 0.1662(8)
H2_2 H 0.7670 0.8745 0.1089
C3_2 C 0.7115(4) 0.8420(5) 0.3053(9)
H3_2 H 0.7075 0.8877 0.3604
C4_2 C 0.6423(4) 0.7485(5) 0.4866(8)
H4_2 H 0.6670 0.7003 0.5240
H5_2 H 0.6538 0.7890 0.5588
C5_2 C 0.5457(4) 0.7386(4) 0.4705(7)
H6_2 H 0.5342 0.6886 0.4245
H7_2 H 0.5198 0.7378 0.5682
C6_2 C 0.5021(4) 0.8020(4) 0.3800(8)
H8_2 H 0.5154 0.8524 0.4233
H9_2 H 0.5257 0.8013 0.2807
C7_2 C 0.4024(4) 0.7925(4) 0.3715(8)
H10_2 H 0.3884 0.7379 0.3561
H11_2 H 0.3805 0.8217 0.2877
C8_2 C 0.3458(4) 0.7782(4) 0.6308(7)
H12_2 H 0.3611 0.7261 0.6431
C9_2 C 0.3281(4) 0.8928(4) 0.5310(8)
H13_2 H 0.3283 0.9341 0.4645
C10_2 C 0.2961(4) 0.8939(4) 0.6703(8)
H14_2 H 0.2705 0.9365 0.7166
C11_2 C 0.1071(4) 0.6072(3) 0.7811(7)
C12_2 C 0.1628(4) 0.5597(3) 0.7033(7)
H15_2 H 0.2205 0.5743 0.6917
C13_2 C 0.1337(4) 0.4903(3) 0.6421(7)
C14_2 C 0.0478(4) 0.4677(3) 0.6642(7)
H16_2 H 0.0279 0.4211 0.6241
C16_2 C 0.0206(4) 0.5852(4) 0.7989(7)
C17_2 C 0.1386(4) 0.6831(4) 0.8438(7)
C18_2 C 0.1944(4) 0.4378(4) 0.5539(8)
N1_2 N 0.7379(3) 0.7586(3) 0.1253(6)
N2_2 N 0.6856(3) 0.7689(3) 0.3476(6)
N3_2 N 0.3597(3) 0.8199(3) 0.5067(6)
N4_2 N 0.3078(3) 0.8210(3) 0.7319(6)
O1_2 O 0.2200(3) 0.6935(3) 0.8390(5)
O2_2 O 0.0851(3) 0.7307(2) 0.8919(6)
O3_2 O 0.1659(3) 0.3711(2) 0.5256(5)
O4_2 O 0.2656(3) 0.4640(3) 0.5137(8)
O5_2 O 0.4102(3) 0.7166(3) 0.9538(9)
Cu1_2 Cu 0.27827(4) 0.78185(4) 0.92936(10)
H19_2 H 0.414(6) 0.669(3) 0.993(10)
H20_2 H 0.461(3) 0.731(5) 0.988(11)
C13_3 C 0.6337(4) 0.0097(3) 0.6421(7)
C14_3 C 0.5478(4) 0.0323(3) 0.6642(7)
H16_3 H 0.5279 0.0789 0.6241
H17_2 H 0.4361 0.0030 0.7625
C18_3 C 0.6944(4) 0.0622(4) 0.5539(8)
O4_3 O 0.7656(3) 0.0360(3) 0.5137(8)
C7_3 C 0.9024(4) 0.7075(4) 0.3715(8)
H10_3 H 0.8884 0.7621 0.3561
H11_3 H 0.8805 0.6783 0.2877
C8_3 C 0.8458(4) 0.7218(4) 0.6308(7)
H12_3 H 0.8611 0.7739 0.6431
C9_3 C 0.8281(4) 0.6072(4) 0.5310(8)
H13_3 H 0.8283 0.5659 0.4645
C10_3 C 0.7961(4) 0.6061(4) 0.6703(8)
H14_3 H 0.7705 0.5635 0.7166
C11_3 C 0.6071(4) 0.8928(3) 0.7811(7)
C12_3 C 0.6628(4) 0.9403(3) 0.7033(7)
H15_3 H 0.7205 0.9257 0.6917
C15_2 C 0.4926(4) 0.9864(4) 0.7444(8)
C16_3 C 0.5206(4) 0.9148(4) 0.7989(7)
H18_2 H 0.4819 0.8819 0.8469
C17_3 C 0.6386(4) 0.8169(4) 0.8438(7)
N3_3 N 0.8597(3) 0.6801(3) 0.5067(6)
N4_3 N 0.8078(3) 0.6790(3) 0.7319(6)
O1_3 O 0.7200(3) 0.8065(3) 0.8390(5)
O2_3 O 0.5851(3) 0.7693(2) 0.8919(6)
O5_3 O 0.9102(3) 0.7834(3) 0.9538(9)
H19_3 H 0.914(6) 0.831(3) 0.993(10)
H20_3 H 0.961(3) 0.769(5) 0.988(11)
C8_4 C 0.1542(4) 0.2782(4) 0.1308(7)
H12_4 H 0.1389 0.2261 0.1431
C9_4 C 0.1719(4) 0.3928(4) 0.0310(8)
C10_4 C 0.2039(4) 0.3939(4) 0.1703(8)
H14_4 H 0.2295 0.4365 0.2166
C11_4 C 0.3929(4) 0.1072(3) 0.2811(7)
C12_4 C 0.3372(4) 0.0597(3) 0.2033(7)
H15_4 H 0.2795 0.0743 0.1917
C15_3 C 0.5074(4) 0.0136(4) 0.2444(8)
C16_4 C 0.4794(4) 0.0852(4) 0.2989(7)
H18_3 H 0.5181 0.1181 0.3469
C17_4 C 0.3614(4) 0.1831(4) 0.3438(7)
N3_4 N 0.1403(3) 0.3199(3) 0.0067(6)
N4_4 N 0.1922(3) 0.3210(3) 0.2319(6)
O1_4 O 0.2800(3) 0.1935(3) 0.3390(5)
O2_4 O 0.4149(3) 0.2307(2) 0.3919(6)
O5_4 O 0.0898(3) 0.2166(3) 0.4538(9)
H19_4 H 0.086(6) 0.169(3) 0.493(10)
H20_4 H 0.039(3) 0.231(5) 0.488(11)
C1_3 C 0.7971(4) 0.2212(4) 0.7349(7)
H1_3 H 0.8086 0.1679 0.7349
C2_3 C 0.7558(5) 0.3344(4) 0.6662(8)
H2_3 H 0.7330 0.3745 0.6089
C3_3 C 0.7885(4) 0.3420(5) 0.8053(9)
H3_3 H 0.7925 0.3877 0.8604
C4_3 C 0.8577(4) 0.2485(5) 0.9866(8)
C5_3 C 0.9543(4) 0.2386(4) 0.9705(7)
H6_3 H 0.9658 0.1886 0.9245
C6_3 C 0.9979(4) 0.3020(4) 0.8800(8)
H8_3 H 0.9846 0.3524 0.9233
H9_3 H 0.9743 0.3013 0.7807
N2_3 N 0.8144(3) 0.2689(3) 0.8476(6)
N5_2 N 0.2379(3) 0.7414(3) 0.1253(6)
O6_2 O 0.3341(3) 0.8711(2) 0.0256(5)
C1_4 C 0.2029(4) 0.7788(4) 0.2349(7)
H1_4 H 0.1914 0.8321 0.2349
C2_4 C 0.2442(5) 0.6656(4) 0.1662(8)
H2_4 H 0.2670 0.6255 0.1089
C3_4 C 0.2115(4) 0.6580(5) 0.3053(9)
H3_4 H 0.2075 0.6123 0.3604
C4_4 C 0.1423(4) 0.7515(5) 0.4866(8)
H4_3 H 0.1670 0.7997 0.5240
H5_3 H 0.1538 0.7110 0.5588
C5_4 C 0.0457(4) 0.7614(4) 0.4705(7)
H6_4 H 0.0342 0.8114 0.4245
H7_3 H 0.0198 0.7622 0.5682
C6_4 C 0.0021(4) 0.6980(4) 0.3800(8)
H8_4 H 0.0154 0.6476 0.4233
H9_4 H 0.0257 0.6987 0.2807
N2_4 N 0.1856(3) 0.7311(3) 0.3476(6)
C13_4 C 0.3663(4) 0.9903(3) 0.1421(7)
C14_4 C 0.4522(4) 0.9677(3) 0.1642(7)
H16_4 H 0.4721 0.9211 0.1241
H17_3 H 0.5639 0.9970 0.2625
C18_4 C 0.3056(4) 0.9378(4) 0.0539(8)
O4_4 O 0.2344(3) 0.9640(3) 0.0137(8)
C15_4 C 0.9926(4) 0.5136(4) 0.7444(8)
H17_4 H 0.9361 0.4970 0.7625
H18_4 H 0.9819 0.6181 0.8469
C7_4 C 0.0976(4) 0.2925(4) 0.8715(8)
H10_4 H 0.1116 0.2379 0.8561
H11_4 H 0.1195 0.3217 0.7877
H13_4 H 0.1717 0.4341 0.9645
H4_4 H 0.8330 0.2003 0.0240
H5_4 H 0.8462 0.2890 0.0588
H7_4 H 0.9802 0.2378 0.0682
loop_
_geom_bond_atom_site_label_1
_geom_bond_atom_site_label_2
_geom_bond_site_symmetry_1
_geom_bond_site_symmetry_2
H17 C15 1_555 1_555
C8 H12 1_555 1_555
C10 C9 1_555 1_555
H14 C10 1_555 1_555
C11 C12 1_555 1_555
C12 H15 1_555 1_555
C13 C12 1_555 1_555
C14 C13 1_555 1_555
H16 C14 1_555 1_555
C16 C11 1_555 1_555
C17 C11 1_555 1_555
C18 C13 1_555 1_555
N4 C8 1_555 1_555
O1 C17 1_555 1_555
O2 C17 1_555 1_555
O3 C18 1_555 1_555
O4 C18 1_555 1_555
O5 Cu1 1_555 1_555
Cu1 N4 1_555 1_555
H19 O5 1_555 1_555
H20 O5 1_555 1_555
N5 Cu1 1_555 1_555
O6 Cu1 1_555 1_555
C8 N3 1_555 1_555
C9 N3 1_555 1_555
C10 N4 1_555 1_555
O1 Cu1 1_555 1_555
C1 H1 1_555 1_555
C2 H2 1_555 1_555
C3 C2 1_555 1_555
H3 C3 1_555 1_555
C5 C4 1_555 1_555
H6 C5 1_555 1_555
C6 C5 1_555 1_555
H8 C6 1_555 1_555
H9 C6 1_555 1_555
C7 C6 1_555 1_555
H10 C7 1_555 1_555
H11 C7 1_555 1_555
N1 C1 1_555 1_555
N2 C1 1_555 1_555
Cu2 N1 1_555 1_555
C2 N1 1_555 1_555
C3 N2 1_555 1_555
C4 N2 1_555 1_555
C1_2 H1_2 1_555 1_555
C2_2 H2_2 1_555 1_555
C3_2 C2_2 1_555 1_555
H3_2 C3_2 1_555 1_555
C4_2 H4_2 1_555 1_555
H5_2 C4_2 1_555 1_555
C5_2 C4_2 1_555 1_555
H6_2 C5_2 1_555 1_555
H7_2 C5_2 1_555 1_555
C6_2 C5_2 1_555 1_555
H8_2 C6_2 1_555 1_555
H9_2 C6_2 1_555 1_555
C7_2 C6_2 1_555 1_555
H10_2 C7_2 1_555 1_555
H11_2 C7_2 1_555 1_555
C8_2 H12_2 1_555 1_555
C9_2 H13_2 1_555 1_555
C10_2 C9_2 1_555 1_555
H14_2 C10_2 1_555 1_555
C11_2 C12_2 1_555 1_555
C12_2 H15_2 1_555 1_555
C13_2 C12_2 1_555 1_555
C14_2 C13_2 1_555 1_555
H16_2 C14_2 1_555 1_555
C16_2 C11_2 1_555 1_555
C17_2 C11_2 1_555 1_555
C18_2 C13_2 1_555 1_555
N1_2 C1_2 1_555 1_555
N2_2 C1_2 1_555 1_555
N3_2 C7_2 1_555 1_555
N4_2 C8_2 1_555 1_555
O1_2 C17_2 1_555 1_555
O2_2 C17_2 1_555 1_555
O3_2 C18_2 1_555 1_555
O4_2 C18_2 1_555 1_555
O5_2 Cu1_2 1_555 1_555
Cu1_2 N4_2 1_555 1_555
H19_2 O5_2 1_555 1_555
H20_2 O5_2 1_555 1_555
Cu2 O3_2 1_555 1_555
C2_2 N1_2 1_555 1_555
C3_2 N2_2 1_555 1_555
C4_2 N2_2 1_555 1_555
C8_2 N3_2 1_555 1_555
C9_2 N3_2 1_555 1_555
C10_2 N4_2 1_555 1_555
O1_2 Cu1_2 1_555 1_555
C14_3 C13_3 1_555 1_555
H16_3 C14_3 1_555 1_555
C18_3 C13_3 1_555 1_555
O6 C18_3 1_555 1_555
O4_3 C18_3 1_555 1_555
H10_3 C7_3 1_555 1_555
H11_3 C7_3 1_555 1_555
C8_3 H12_3 1_555 1_555
C9_3 H13_3 1_555 1_555
C10_3 C9_3 1_555 1_555
H14_3 C10_3 1_555 1_555
C11_3 C12_3 1_555 1_555
C12_3 H15_3 1_555 1_555
C16_3 C11_3 1_555 1_555
H18_2 C16_3 1_555 1_555
C17_3 C11_3 1_555 1_555
N3_3 C7_3 1_555 1_555
N4_3 C8_3 1_555 1_555
O1_3 C17_3 1_555 1_555
O2_3 C17_3 1_555 1_555
O5_3 Cu3 1_555 1_555
Cu3 N4_3 1_555 1_555
H19_3 O5_3 1_555 1_555
H20_3 O5_3 1_555 1_555
C8_3 N3_3 1_555 1_555
C9_3 N3_3 1_555 1_555
C10_3 N4_3 1_555 1_555
C15_2 C16_3 1_555 1_555
O1_3 Cu3 1_555 1_555
C8_4 H12_4 1_555 1_555
C10_4 C9_4 1_555 1_555
H14_4 C10_4 1_555 1_555
C11_4 C12_4 1_555 1_555
C12_4 H15_4 1_555 1_555
C16_4 C11_4 1_555 1_555
H18_3 C16_4 1_555 1_555
C17_4 C11_4 1_555 1_555
N4_4 C8_4 1_555 1_555
O1_4 C17_4 1_555 1_555
O2_4 C17_4 1_555 1_555
O5_4 Cu2 1_555 1_555
Cu2 N4_4 1_555 1_555
H19_4 O5_4 1_555 1_555
H20_4 O5_4 1_555 1_555
C8_4 N3_4 1_555 1_555
C9_4 N3_4 1_555 1_555
C10_4 N4_4 1_555 1_555
C15_3 C16_4 1_555 1_555
O1_4 Cu2 1_555 1_555
C1_3 H1_3 1_555 1_555
C2_3 H2_3 1_555 1_555
C3_3 C2_3 1_555 1_555
H3_3 C3_3 1_555 1_555
C5_3 C4_3 1_555 1_555
H6_3 C5_3 1_555 1_555
C6_3 C5_3 1_555 1_555
H8_3 C6_3 1_555 1_555
H9_3 C6_3 1_555 1_555
N5 C1_3 1_555 1_555
N2_3 C1_3 1_555 1_555
C2_3 N5 1_555 1_555
C3_3 N2_3 1_555 1_555
C4_3 N2_3 1_555 1_555
C1_4 H1_4 1_555 1_555
C2_4 H2_4 1_555 1_555
C3_4 C2_4 1_555 1_555
H3_4 C3_4 1_555 1_555
C4_4 H4_3 1_555 1_555
H5_3 C4_4 1_555 1_555
C5_4 C4_4 1_555 1_555
H6_4 C5_4 1_555 1_555
H7_3 C5_4 1_555 1_555
C6_4 C5_4 1_555 1_555
H8_4 C6_4 1_555 1_555
H9_4 C6_4 1_555 1_555
N5_2 C1_4 1_555 1_555
N2_4 C1_4 1_555 1_555
C2_4 N5_2 1_555 1_555
C3_4 N2_4 1_555 1_555
C4_4 N2_4 1_555 1_555
C14_4 C13_4 1_555 1_555
H16_4 C14_4 1_555 1_555
C18_4 C13_4 1_555 1_555
O6_2 C18_4 1_555 1_555
O4_4 C18_4 1_555 1_555
H17_4 C15_4 1_555 1_555
H10_4 C7_4 1_555 1_555
H11_4 C7_4 1_555 1_555

#END
