
###############################################################################
#
# This file contains modified crystal structure data generated from the
# MOF subset of the Cambridge Structural Database (CSD) v543 
# hosted by the Cambridge Crystallographic Data Centre (CCDC).
#
# This work is licensed under the Creative Commons
# Attribution-NonCommercial-ShareAlike 4.0 International License.
# To view a copy of this license, visit
# http://creativecommons.org/licenses/by-nc-sa/4.0/
# or send a letter to
# Creative Commons, PO Box 1866, Mountain View, CA 94042, USA.
#
# CIF created using the CSD Python API on 29 September 2022
# The structure has been converted into the P1 space group
# The structure has a 3D framework
# The original CSD entry OLUCAC is in the monoclinic crystal system
# The original CSD entry OLUCAC is in a Sohncke space group
# The framework has been calculated to contain at least 10.0% void space
# The void calculation uses a probe of radius 1.32A, grid spacing 0.4
#
###############################################################################

data_OLUCAC
_chemical_formula_moiety         '(C288 H192 I48 N96 Zn24)n'
_symmetry_cell_setting           triclinic
_symmetry_space_group_name_H-M   'P 1'
_symmetry_Int_Tables_number      1
_space_group_name_Hall           'P 1'
loop_
_symmetry_equiv_pos_site_id
_symmetry_equiv_pos_as_xyz
1 x,y,z
_cell_length_a                   32.5522(12)
_cell_length_b                   13.6440(5)
_cell_length_c                   28.5835(10)
_cell_angle_alpha                90
_cell_angle_beta                 100.9450(10)
_cell_angle_gamma                90
_cell_volume                     12464.2
loop_
_atom_site_label
_atom_site_type_symbol
_atom_site_fract_x
_atom_site_fract_y
_atom_site_fract_z
I4 I 0.10816(3) 0.02113(7) 0.35019(4)
I8 I 0.38260(3) 0.02713(7) 0.69231(3)
I11 I 0.37392(4) 0.43484(8) 0.05029(4)
H5 H 0.3677 0.2449 0.0115
H6 H 0.3577 0.0853 0.0093
C18 C 0.5659(4) 0.2746(11) 0.3455(5)
H12 H 0.5788 0.3041 0.3738
C19 C 0.5342(5) 0.2188(11) 0.3458(5)
H13 H 0.5238 0.2101 0.3737
C20 C 0.5167(4) 0.1748(10) 0.3070(5)
C21 C 0.5313(4) 0.1934(10) 0.2696(5)
H14 H 0.5184 0.1667 0.2405
C22 C 0.5633(4) 0.2482(11) 0.2717(5)
H15 H 0.5746 0.2567 0.2445
C28 C 0.4824(4) 0.1159(10) 0.3068(4)
C29 C 0.4341(4) 0.0702(10) 0.3391(5)
C30 C 0.3987(5) 0.1416(11) 0.4408(5)
H20 H 0.4097 0.1717 0.4696
C31 C 0.4230(6) 0.1317(14) 0.4115(6)
H21 H 0.4500 0.1568 0.4174
C32 C 0.4082(4) 0.0850(10) 0.3732(5)
C33 C 0.3711(4) 0.0539(10) 0.3652(5)
H22 H 0.3606 0.0202 0.3372
C34 C 0.3482(4) 0.0694(10) 0.3960(5)
H23 H 0.3208 0.0469 0.3904
C35 C 0.2868(4) 0.3083(10) 0.4445(5)
H24 H 0.2682 0.2659 0.4259
C36 C 0.2797(5) 0.3995(12) 0.4404(5)
H25 H 0.2560 0.4228 0.4200
C37 C 0.3056(4) 0.4589(9) 0.4644(4)
C38 C 0.3377(4) 0.4253(11) 0.4917(5)
H26 H 0.3570 0.4674 0.5096
C39 C 0.3431(5) 0.3325(12) 0.4942(6)
H27 H 0.3673 0.3081 0.5132
C40 C 0.1801(4) 0.7294(10) 0.3470(5)
H28 H 0.1668 0.6999 0.3188
C41 C 0.2103(4) 0.6851(10) 0.3730(4)
H29 H 0.2198 0.6256 0.3631
C42 C 0.2277(4) 0.7225(9) 0.4129(4)
C43 C 0.2155(4) 0.8072(11) 0.4242(5)
H30 H 0.2285 0.8384 0.4520
C44 C 0.1843(4) 0.8484(10) 0.3956(5)
H31 H 0.1743 0.9083 0.4043
C45 C 0.2602(4) 0.6779(9) 0.4426(4)
C46 C 0.2978(4) 0.5564(10) 0.4650(5)
C47 C 0.3098(4) 0.6918(9) 0.5009(4)
C48 C 0.3337(4) 0.7449(9) 0.5374(4)
C49 C 0.3240(5) 0.8318(11) 0.5467(5)
H32 H 0.3006 0.8618 0.5287
C50 C 0.3465(4) 0.8771(10) 0.5806(5)
H33 H 0.3384 0.9400 0.5876
C51 C 0.3893(5) 0.7576(11) 0.5960(5)
H34 H 0.4134 0.7298 0.6137
C52 C 0.3669(5) 0.7086(12) 0.5620(5)
H35 H 0.3751 0.6456 0.5554
C53 C 0.4039(5) 0.7804(12) 0.7203(6)
H36 H 0.3807 0.8205 0.7191
C54 C 0.4066(5) 0.7031(13) 0.7467(6)
H37 H 0.3854 0.6854 0.7627
C55 C 0.4421(4) 0.6488(10) 0.7499(4)
C56 C 0.4686(4) 0.6757(10) 0.7261(5)
H38 H 0.4929 0.6394 0.7272
C57 C 0.4623(4) 0.7544(10) 0.6999(5)
H39 H 0.4827 0.7735 0.6830
C58 C 0.4458(4) 0.5709(10) 0.7794(5)
C59 C 0.4816(4) 0.4472(9) 0.8054(4)
C60 C 0.4291(4) 0.4881(10) 0.8331(5)
C61 C 0.5154(4) 0.3847(10) 0.8065(5)
C62 C 0.5328(4) 0.3536(11) 0.8484(5)
H40 H 0.5239 0.3732 0.8761
C63 C 0.5628(5) 0.2942(13) 0.8488(6)
H41 H 0.5744 0.2650 0.8777
C64 C 0.5625(4) 0.3075(10) 0.7747(5)
H42 H 0.5736 0.2901 0.7482
C65 C 0.5306(4) 0.3695(10) 0.7701(5)
H43 H 0.5201 0.4001 0.7412
C66 C 0.4046(4) 0.4710(10) 0.8660(5)
C67 C 0.3742(5) 0.5227(12) 0.8677(5)
H44 H 0.3674 0.5739 0.8461
C68 C 0.3508(6) 0.5057(14) 0.9003(6)
H45 H 0.3285 0.5471 0.9020
C70 C 0.4143(7) 0.4039(17) 0.8971(8)
H47 H 0.4400 0.3721 0.9009
C71 C 0.3872(6) 0.3812(16) 0.9235(7)
H48 H 0.3897 0.3212 0.9392
I3 I 0.14949(3) 0.87227(9) 0.24050(4)
I5 I 0.37451(3) 0.12331(7) 0.55694(3)
I6 I 0.26849(3) 0.03829(7) 0.46180(3)
I7 I 0.47568(3) 0.93586(7) 0.61588(3)
I9 I 0.64283(4) 0.15263(10) 0.75096(4)
I10 I 0.59108(4) 0.05197(8) 0.86693(5)
I12 I 0.26412(3) 0.50290(7) 0.95521(4)
N8 N 0.5797(3) 0.2905(8) 0.3089(4)
N9 N 0.3627(3) 0.1157(8) 0.4347(4)
N10 N 0.4760(3) 0.0487(8) 0.2777(4)
N11 N 0.4619(3) 0.1302(8) 0.3388(3)
N13 N 0.3170(3) 0.2727(8) 0.4719(4)
N14 N 0.1676(3) 0.8111(8) 0.3579(4)
N15 N 0.3788(3) 0.8425(7) 0.6053(4)
N16 N 0.2682(3) 0.5908(8) 0.4364(4)
N17 N 0.2807(3) 0.7304(8) 0.4746(4)
N18 N 0.3213(3) 0.6044(8) 0.4965(4)
N19 N 0.4301(3) 0.8049(8) 0.6965(4)
N20 N 0.5777(3) 0.2726(8) 0.8142(4)
N21 N 0.3580(3) 0.4368(9) 0.9284(4)
N22 N 0.4765(3) 0.5135(8) 0.7742(4)
N23 N 0.4222(3) 0.5607(8) 0.8075(4)
N24 N 0.4583(4) 0.4309(9) 0.8335(4)
Zn2 Zn 0.32941(5) 0.13428(11) 0.48202(5)
Zn3 Zn 0.41738(5) 0.91235(11) 0.65229(5)
Zn4 Zn 0.12587(5) 0.87701(12) 0.31302(5)
Zn5 Zn 0.61970(5) 0.17375(12) 0.82262(6)
Zn6 Zn 0.32695(5) 0.41506(11) 0.97722(6)
N25 N 0.6641(3) 0.2395(8) 0.8647(4)
N26 N 0.3180(4) 0.2763(9) 0.9697(4)
N27 N 0.0797(3) 0.7905(8) 0.3089(4)
Zn7 Zn 0.62587(5) 0.37701(12) 0.31302(5)
C6 C 0.3436(5) 0.2195(11) 0.9926(5)
C7 C 0.3381(4) 0.1264(11) 0.9911(5)
C8 C 0.3054(4) 0.0900(10) 0.9645(5)
C9 C 0.2865(5) 0.2447(13) 0.9430(6)
H7 H 0.2676 0.2876 0.9250
C69 C 0.2798(4) 0.1480(11) 0.9404(5)
H46 H 0.2559 0.1235 0.9208
C1 C 0.1744(4) 0.8238(11) 0.8556(5)
H1 H 0.1597 0.8555 0.8287
C2 C 0.2042(4) 0.8679(10) 0.8818(4)
H2 H 0.2101 0.9327 0.8755
C3 C 0.2267(4) 0.8226(9) 0.9177(4)
C4 C 0.2155(4) 0.7363(10) 0.9264(5)
H3 H 0.2296 0.7031 0.9531
C5 C 0.1858(4) 0.6962(11) 0.8997(5)
H4 H 0.1794 0.6316 0.9057
C10 C 0.2972(4) 0.9896(9) 0.9654(4)
C11 C 0.2597(4) 0.8673(10) 0.9461(5)
N1 N 0.1641(3) 0.7395(8) 0.8647(4)
N4 N 0.2676(3) 0.9547(8) 0.9377(4)
N5 N 0.3207(3) 0.9440(8) 0.9967(4)
N6 N 0.2793(3) 0.8155(8) 0.9786(4)
Zn8 Zn 0.11970(5) 0.67375(12) 0.82262(6)
C18_2 C 0.0659(4) 0.7746(11) 0.3455(5)
H12_2 H 0.0788 0.8041 0.3738
C19_2 C 0.0342(5) 0.7188(11) 0.3458(5)
H13_2 H 0.0238 0.7101 0.3737
C20_2 C 0.0167(4) 0.6748(10) 0.3070(5)
C21_2 C 0.0313(4) 0.6934(10) 0.2696(5)
H14_2 H 0.0184 0.6667 0.2405
C22_2 C 0.0633(4) 0.7482(11) 0.2717(5)
H15_2 H 0.0746 0.7567 0.2445
C61_2 C 0.0154(4) 0.8847(10) 0.8065(5)
C62_2 C 0.0328(4) 0.8536(11) 0.8484(5)
H40_2 H 0.0239 0.8732 0.8761
C63_2 C 0.0628(5) 0.7942(13) 0.8488(6)
H41_2 H 0.0744 0.7650 0.8777
C64_2 C 0.0625(4) 0.8075(10) 0.7747(5)
H42_2 H 0.0736 0.7901 0.7482
C65_2 C 0.0306(4) 0.8695(10) 0.7701(5)
H43_2 H 0.0201 0.9001 0.7412
I9_2 I 0.14283(4) 0.65263(10) 0.75096(4)
I10_2 I 0.09108(4) 0.55197(8) 0.86693(5)
N20_2 N 0.0777(3) 0.7726(8) 0.8142(4)
C40_2 C 0.6801(4) 0.2294(10) 0.3470(5)
H28_2 H 0.6668 0.1999 0.3188
C41_2 C 0.7103(4) 0.1851(10) 0.3730(4)
H29_2 H 0.7198 0.1256 0.3631
C42_2 C 0.7277(4) 0.2225(9) 0.4129(4)
C43_2 C 0.7155(4) 0.3072(11) 0.4242(5)
H30_2 H 0.7285 0.3384 0.4520
C44_2 C 0.6843(4) 0.3484(10) 0.3956(5)
H31_2 H 0.6743 0.4083 0.4043
C45_2 C 0.7602(4) 0.1779(9) 0.4426(4)
C46_2 C 0.7978(4) 0.0564(10) 0.4650(5)
C47_2 C 0.8098(4) 0.1918(9) 0.5009(4)
C48_2 C 0.8337(4) 0.2449(9) 0.5374(4)
C49_2 C 0.8240(5) 0.3318(11) 0.5467(5)
H32_2 H 0.8006 0.3618 0.5287
C50_2 C 0.8465(4) 0.3771(10) 0.5806(5)
H33_2 H 0.8384 0.4400 0.5876
C51_2 C 0.8893(5) 0.2576(11) 0.5960(5)
H34_2 H 0.9134 0.2298 0.6137
C52_2 C 0.8669(5) 0.2086(12) 0.5620(5)
H35_2 H 0.8751 0.1456 0.5554
C53_2 C 0.9039(5) 0.2804(12) 0.7203(6)
H36_2 H 0.8807 0.3205 0.7191
C54_2 C 0.9066(5) 0.2031(13) 0.7467(6)
H37_2 H 0.8854 0.1854 0.7627
C55_2 C 0.9421(4) 0.1488(10) 0.7499(4)
C56_2 C 0.9686(4) 0.1757(10) 0.7261(5)
H38_2 H 0.9929 0.1394 0.7272
C57_2 C 0.9623(4) 0.2544(10) 0.6999(5)
H39_2 H 0.9827 0.2735 0.6830
C58_2 C 0.9458(4) 0.0709(10) 0.7794(5)
C67_2 C 0.8742(5) 0.0227(12) 0.8677(5)
H44_2 H 0.8674 0.0739 0.8461
C68_2 C 0.8508(6) 0.0057(14) 0.9003(6)
H45_2 H 0.8285 0.0471 0.9020
I3_2 I 0.64949(3) 0.37227(9) 0.24050(4)
I4_2 I 0.60816(3) 0.52113(7) 0.35019(4)
I7_2 I 0.97568(3) 0.43586(7) 0.61588(3)
I8_2 I 0.88260(3) 0.52713(7) 0.69231(3)
I12_2 I 0.76412(3) 0.00290(7) 0.95521(4)
N14_2 N 0.6676(3) 0.3111(8) 0.3579(4)
N15_2 N 0.8788(3) 0.3425(7) 0.6053(4)
N16_2 N 0.7682(3) 0.0908(8) 0.4364(4)
N17_2 N 0.7807(3) 0.2304(8) 0.4746(4)
N18_2 N 0.8213(3) 0.1044(8) 0.4965(4)
N19_2 N 0.9301(3) 0.3049(8) 0.6965(4)
N22_2 N 0.9765(3) 0.0135(8) 0.7742(4)
N23_2 N 0.9222(3) 0.0607(8) 0.8075(4)
Zn3_2 Zn 0.91738(5) 0.41235(11) 0.65229(5)
H5_2 H 0.8677 0.7449 0.0115
H6_2 H 0.8577 0.5853 0.0093
C12 C 0.8107(4) 0.3603(10) 0.0020(5)
C13 C 0.8355(4) 0.3064(10) 0.0387(5)
C14 C 0.8894(5) 0.2969(12) 0.0957(6)
H8 H 0.9139 0.3251 0.1123
C15 C 0.8481(4) 0.1754(11) 0.0838(5)
H9 H 0.8402 0.1132 0.0920
C16 C 0.8259(4) 0.2197(10) 0.0488(5)
H10 H 0.8027 0.1890 0.0307
C17 C 0.8679(5) 0.3444(12) 0.0633(5)
H11 H 0.8756 0.4080 0.0571
C23 C 0.9623(4) 0.3119(10) 0.1993(5)
H16 H 0.9809 0.2965 0.1794
C24 C 0.9692(4) 0.3875(10) 0.2262(5)
H17 H 0.9926 0.4267 0.2261
C25 C 0.9424(4) 0.4083(10) 0.2538(5)
C26 C 0.9116(4) 0.3532(11) 0.2524(5)
H18 H 0.8922 0.3672 0.2716
C27 C 0.9062(5) 0.2791(13) 0.2257(6)
H19 H 0.8831 0.2388 0.2257
C28_2 C 0.9824(4) 0.6159(10) 0.3068(4)
C29_2 C 0.9341(4) 0.5702(10) 0.3391(5)
C30_2 C 0.8987(5) 0.6416(11) 0.4408(5)
H20_2 H 0.9097 0.6717 0.4696
C31_2 C 0.9230(6) 0.6317(14) 0.4115(6)
H21_2 H 0.9500 0.6568 0.4174
C32_2 C 0.9082(4) 0.5850(10) 0.3732(5)
C33_2 C 0.8711(4) 0.5539(10) 0.3652(5)
H22_2 H 0.8606 0.5202 0.3372
C34_2 C 0.8482(4) 0.5694(10) 0.3960(5)
H23_2 H 0.8208 0.5469 0.3904
C35_2 C 0.7868(4) 0.8083(10) 0.4445(5)
H24_2 H 0.7682 0.7659 0.4259
C36_2 C 0.7797(5) 0.8995(12) 0.4404(5)
H25_2 H 0.7560 0.9228 0.4200
C37_2 C 0.8056(4) 0.9589(9) 0.4644(4)
C38_2 C 0.8377(4) 0.9253(11) 0.4917(5)
H26_2 H 0.8570 0.9674 0.5096
C39_2 C 0.8431(5) 0.8325(12) 0.4942(6)
H27_2 H 0.8673 0.8081 0.5132
C59_2 C 0.9816(4) 0.9472(9) 0.8054(4)
C60_2 C 0.9291(4) 0.9881(10) 0.8331(5)
C66_2 C 0.9046(4) 0.9710(10) 0.8660(5)
C70_2 C 0.9143(7) 0.9039(17) 0.8971(8)
H47_2 H 0.9400 0.8721 0.9009
C71_2 C 0.8872(6) 0.8812(16) 0.9235(7)
H48_2 H 0.8897 0.8212 0.9392
I1 I 0.97817(3) 0.12517(8) 0.11997(3)
I2 I 0.88228(3) 0.03446(7) 0.19343(3)
I5_2 I 0.87451(3) 0.62331(7) 0.55694(3)
I6_2 I 0.76849(3) 0.53829(7) 0.46180(3)
N3 N 0.8799(4) 0.2133(9) 0.1071(4)
N7 N 0.9317(3) 0.2593(8) 0.1991(4)
N9_2 N 0.8627(3) 0.6157(8) 0.4347(4)
N10_2 N 0.9760(3) 0.5487(8) 0.2777(4)
C72 C 0.9494(4) 0.4909(9) 0.2814(4)
N11_2 N 0.9619(3) 0.6302(8) 0.3388(3)
N12 N 0.9259(3) 0.4975(8) 0.3129(4)
N13_2 N 0.8170(3) 0.7727(8) 0.4719(4)
N21_2 N 0.8580(3) 0.9368(9) 0.9284(4)
N24_2 N 0.9583(4) 0.9309(9) 0.8335(4)
Zn1 Zn 0.91971(5) 0.14840(11) 0.15634(5)
Zn2_2 Zn 0.82941(5) 0.63428(11) 0.48202(5)
Zn6_2 Zn 0.82695(5) 0.91506(11) 0.97722(6)
N26_2 N 0.8180(4) 0.7763(9) 0.9697(4)
C1_2 C 0.6744(4) 0.3238(11) 0.8556(5)
H1_2 H 0.6597 0.3555 0.8287
C2_2 C 0.7042(4) 0.3679(10) 0.8818(4)
H2_2 H 0.7101 0.4327 0.8755
C3_2 C 0.7267(4) 0.3226(9) 0.9177(4)
C4_2 C 0.7155(4) 0.2363(10) 0.9264(5)
H3_2 H 0.7296 0.2031 0.9531
C5_2 C 0.6858(4) 0.1962(11) 0.8997(5)
H4_2 H 0.6794 0.1316 0.9057
C6_2 C 0.8436(5) 0.7195(11) 0.9926(5)
C7_2 C 0.8381(4) 0.6264(11) 0.9911(5)
C8_2 C 0.8054(4) 0.5900(10) 0.9645(5)
C9_2 C 0.7865(5) 0.7447(13) 0.9430(6)
H7_2 H 0.7676 0.7876 0.9250
C10_2 C 0.7972(4) 0.4896(9) 0.9654(4)
C11_2 C 0.7597(4) 0.3673(10) 0.9461(5)
C69_2 C 0.7798(4) 0.6480(11) 0.9404(5)
H46_2 H 0.7559 0.6235 0.9208
N4_2 N 0.7676(3) 0.4547(8) 0.9377(4)
N5_2 N 0.8207(3) 0.4440(8) 0.9967(4)
N6_2 N 0.7793(3) 0.3155(8) 0.9786(4)
C12_2 C 0.3107(4) 0.8603(10) 0.0020(5)
C13_2 C 0.3355(4) 0.8064(10) 0.0387(5)
C14_2 C 0.3894(5) 0.7969(12) 0.0957(6)
H8_2 H 0.4139 0.8251 0.1123
C15_2 C 0.3481(4) 0.6754(11) 0.0838(5)
H9_2 H 0.3402 0.6132 0.0920
C16_2 C 0.3259(4) 0.7197(10) 0.0488(5)
H10_2 H 0.3027 0.6890 0.0307
C17_2 C 0.3679(5) 0.8444(12) 0.0633(5)
H11_2 H 0.3756 0.9080 0.0571
C23_2 C 0.4623(4) 0.8119(10) 0.1993(5)
H16_2 H 0.4809 0.7965 0.1794
C24_2 C 0.4692(4) 0.8875(10) 0.2262(5)
H17_2 H 0.4926 0.9267 0.2261
C25_2 C 0.4424(4) 0.9083(10) 0.2538(5)
C26_2 C 0.4116(4) 0.8532(11) 0.2524(5)
H18_2 H 0.3922 0.8672 0.2716
C27_2 C 0.4062(5) 0.7791(13) 0.2257(6)
H19_2 H 0.3831 0.7388 0.2257
I1_2 I 0.47817(3) 0.62517(8) 0.11997(3)
I2_2 I 0.38228(3) 0.53446(7) 0.19343(3)
N3_2 N 0.3799(4) 0.7133(9) 0.1071(4)
N7_2 N 0.4317(3) 0.7593(8) 0.1991(4)
C72_2 C 0.4494(4) 0.9909(9) 0.2814(4)
N12_2 N 0.4259(3) 0.9975(8) 0.3129(4)
Zn1_2 Zn 0.41971(5) 0.64840(11) 0.15634(5)
I4_3 I 0.89184(3) 0.02113(7) 0.64981(4)
I8_3 I 0.61740(3) 0.02713(7) 0.30769(3)
C6_3 C 0.6564(5) 0.2195(11) 0.0074(5)
C7_3 C 0.6619(4) 0.1264(11) 0.0089(5)
C8_3 C 0.6946(4) 0.0900(10) 0.0355(5)
C9_3 C 0.7135(5) 0.2447(13) 0.0570(6)
H7_3 H 0.7324 0.2876 0.0750
C69_3 C 0.7202(4) 0.1480(11) 0.0596(5)
H46_3 H 0.7441 0.1235 0.0792
N2 N 0.6820(4) 0.2763(9) 0.0303(4)
Zn9 Zn 0.67305(5) 0.41506(11) 0.02278(6)
H5_3 H 0.6323 0.2449 0.9885
H6_3 H 0.6423 0.0853 0.9907
C18_3 C 0.4341(4) 0.2746(11) 0.6545(5)
H12_3 H 0.4212 0.3041 0.6262
C19_3 C 0.4658(5) 0.2188(11) 0.6542(5)
H13_3 H 0.4762 0.2101 0.6263
C20_3 C 0.4833(4) 0.1748(10) 0.6930(5)
C21_3 C 0.4687(4) 0.1934(10) 0.7304(5)
H14_3 H 0.4816 0.1667 0.7595
C22_3 C 0.4367(4) 0.2482(11) 0.7283(5)
H15_3 H 0.4254 0.2567 0.7555
C28_3 C 0.5176(4) 0.1159(10) 0.6932(4)
C29_3 C 0.5659(4) 0.0702(10) 0.6609(5)
C30_3 C 0.6013(5) 0.1416(11) 0.5592(5)
H20_3 H 0.5903 0.1717 0.5304
C31_3 C 0.5770(6) 0.1317(14) 0.5885(6)
H21_3 H 0.5500 0.1568 0.5826
C32_3 C 0.5918(4) 0.0850(10) 0.6268(5)
C33_3 C 0.6289(4) 0.0539(10) 0.6348(5)
H22_3 H 0.6394 0.0202 0.6628
C34_3 C 0.6518(4) 0.0694(10) 0.6040(5)
H23_3 H 0.6792 0.0469 0.6096
C35_3 C 0.7132(4) 0.3083(10) 0.5555(5)
H24_3 H 0.7318 0.2659 0.5741
C36_3 C 0.7203(5) 0.3995(12) 0.5596(5)
H25_3 H 0.7440 0.4228 0.5800
C37_3 C 0.6944(4) 0.4589(9) 0.5356(4)
C38_3 C 0.6623(4) 0.4253(11) 0.5083(5)
H26_3 H 0.6430 0.4674 0.4904
C39_3 C 0.6569(5) 0.3325(12) 0.5058(6)
H27_3 H 0.6327 0.3081 0.4868
C40_3 C 0.8199(4) 0.7294(10) 0.6530(5)
H28_3 H 0.8332 0.6999 0.6812
C41_3 C 0.7897(4) 0.6851(10) 0.6270(4)
H29_3 H 0.7802 0.6256 0.6369
C42_3 C 0.7723(4) 0.7225(9) 0.5871(4)
C43_3 C 0.7845(4) 0.8072(11) 0.5758(5)
H30_3 H 0.7715 0.8384 0.5480
C44_3 C 0.8157(4) 0.8484(10) 0.6044(5)
H31_3 H 0.8257 0.9083 0.5957
C45_3 C 0.7398(4) 0.6779(9) 0.5574(4)
C46_3 C 0.7022(4) 0.5564(10) 0.5350(5)
C47_3 C 0.6902(4) 0.6918(9) 0.4991(4)
C48_3 C 0.6663(4) 0.7449(9) 0.4626(4)
C49_3 C 0.6760(5) 0.8318(11) 0.4533(5)
H32_3 H 0.6994 0.8618 0.4713
C50_3 C 0.6535(4) 0.8771(10) 0.4194(5)
H33_3 H 0.6616 0.9400 0.4124
C51_3 C 0.6107(5) 0.7576(11) 0.4040(5)
H34_3 H 0.5866 0.7298 0.3863
C52_3 C 0.6331(5) 0.7086(12) 0.4380(5)
H35_3 H 0.6249 0.6456 0.4446
C53_3 C 0.5961(5) 0.7804(12) 0.2797(6)
H36_3 H 0.6193 0.8205 0.2809
C54_3 C 0.5934(5) 0.7031(13) 0.2533(6)
H37_3 H 0.6146 0.6854 0.2373
C55_3 C 0.5579(4) 0.6488(10) 0.2501(4)
C56_3 C 0.5314(4) 0.6757(10) 0.2739(5)
H38_3 H 0.5071 0.6394 0.2728
C57_3 C 0.5377(4) 0.7544(10) 0.3001(5)
H39_3 H 0.5173 0.7735 0.3170
C58_3 C 0.5542(4) 0.5709(10) 0.2206(5)
C59_3 C 0.5184(4) 0.4472(9) 0.1946(4)
C60_3 C 0.5709(4) 0.4881(10) 0.1669(5)
C61_3 C 0.4846(4) 0.3847(10) 0.1935(5)
C62_3 C 0.4672(4) 0.3536(11) 0.1516(5)
H40_3 H 0.4761 0.3732 0.1239
C63_3 C 0.4372(5) 0.2942(13) 0.1512(6)
H41_3 H 0.4256 0.2650 0.1223
C64_3 C 0.4375(4) 0.3075(10) 0.2253(5)
H42_3 H 0.4264 0.2901 0.2518
C65_3 C 0.4694(4) 0.3695(10) 0.2299(5)
H43_3 H 0.4799 0.4001 0.2588
C66_3 C 0.5954(4) 0.4710(10) 0.1340(5)
C67_3 C 0.6258(5) 0.5227(12) 0.1323(5)
H44_3 H 0.6326 0.5739 0.1539
C68_3 C 0.6492(6) 0.5057(14) 0.0997(6)
H45_3 H 0.6715 0.5471 0.0980
C70_3 C 0.5857(7) 0.4039(17) 0.1029(8)
H47_3 H 0.5600 0.3721 0.0991
C71_3 C 0.6128(6) 0.3812(16) 0.0765(7)
H48_3 H 0.6103 0.3212 0.0608
I3_3 I 0.85051(3) 0.87227(9) 0.75950(4)
I5_3 I 0.62549(3) 0.12331(7) 0.44306(3)
I6_3 I 0.73151(3) 0.03829(7) 0.53820(3)
I7_3 I 0.52432(3) 0.93586(7) 0.38412(3)
I9_3 I 0.35717(4) 0.15263(10) 0.24904(4)
I10_3 I 0.40892(4) 0.05197(8) 0.13307(5)
I12_3 I 0.73588(3) 0.50290(7) 0.04479(4)
N8_2 N 0.4203(3) 0.2905(8) 0.6911(4)
N9_3 N 0.6373(3) 0.1157(8) 0.5653(4)
N10_3 N 0.5240(3) 0.0487(8) 0.7223(4)
N11_3 N 0.5381(3) 0.1302(8) 0.6612(3)
N13_3 N 0.6830(3) 0.2727(8) 0.5281(4)
N14_3 N 0.8324(3) 0.8111(8) 0.6421(4)
N15_3 N 0.6212(3) 0.8425(7) 0.3947(4)
N16_3 N 0.7318(3) 0.5908(8) 0.5636(4)
N17_3 N 0.7193(3) 0.7304(8) 0.5254(4)
N18_3 N 0.6787(3) 0.6044(8) 0.5035(4)
N19_3 N 0.5699(3) 0.8049(8) 0.3035(4)
N20_3 N 0.4223(3) 0.2726(8) 0.1858(4)
N21_3 N 0.6420(3) 0.4368(9) 0.0716(4)
N22_3 N 0.5235(3) 0.5135(8) 0.2258(4)
N23_3 N 0.5778(3) 0.5607(8) 0.1925(4)
N24_3 N 0.5417(4) 0.4309(9) 0.1665(4)
Zn2_3 Zn 0.67059(5) 0.13428(11) 0.51798(5)
Zn3_3 Zn 0.58262(5) 0.91235(11) 0.34771(5)
Zn4_2 Zn 0.87413(5) 0.87701(12) 0.68698(5)
Zn5_2 Zn 0.38030(5) 0.17375(12) 0.17738(6)
N25_2 N 0.3359(3) 0.2395(8) 0.1353(4)
N27_2 N 0.9203(3) 0.7905(8) 0.6911(4)
Zn7_2 Zn 0.37413(5) 0.37701(12) 0.68698(5)
C1_3 C 0.8256(4) 0.8238(11) 0.1444(5)
H1_3 H 0.8403 0.8555 0.1713
C2_3 C 0.7958(4) 0.8679(10) 0.1182(4)
H2_3 H 0.7899 0.9327 0.1245
C3_3 C 0.7733(4) 0.8226(9) 0.0823(4)
C4_3 C 0.7845(4) 0.7363(10) 0.0736(5)
H3_3 H 0.7704 0.7031 0.0469
C5_3 C 0.8142(4) 0.6962(11) 0.1003(5)
H4_3 H 0.8206 0.6316 0.0943
C10_3 C 0.7028(4) 0.9896(9) 0.0346(4)
C11_3 C 0.7403(4) 0.8673(10) 0.0539(5)
N1_2 N 0.8359(3) 0.7395(8) 0.1353(4)
N4_3 N 0.7324(3) 0.9547(8) 0.0623(4)
N5_3 N 0.6793(3) 0.9440(8) 0.0033(4)
N6_3 N 0.7207(3) 0.8155(8) 0.0214(4)
Zn8_2 Zn 0.88030(5) 0.67375(12) 0.17738(6)
C40_4 C 0.3199(4) 0.2294(10) 0.6530(5)
H28_4 H 0.3332 0.1999 0.6812
C41_4 C 0.2897(4) 0.1851(10) 0.6270(4)
H29_4 H 0.2802 0.1256 0.6369
C42_4 C 0.2723(4) 0.2225(9) 0.5871(4)
C43_4 C 0.2845(4) 0.3072(11) 0.5758(5)
H30_4 H 0.2715 0.3384 0.5480
C44_4 C 0.3157(4) 0.3484(10) 0.6044(5)
H31_4 H 0.3257 0.4083 0.5957
C45_4 C 0.2398(4) 0.1779(9) 0.5574(4)
C46_4 C 0.2022(4) 0.0564(10) 0.5350(5)
C47_4 C 0.1902(4) 0.1918(9) 0.4991(4)
C48_4 C 0.1663(4) 0.2449(9) 0.4626(4)
C49_4 C 0.1760(5) 0.3318(11) 0.4533(5)
H32_4 H 0.1994 0.3618 0.4713
C50_4 C 0.1535(4) 0.3771(10) 0.4194(5)
H33_4 H 0.1616 0.4400 0.4124
C51_4 C 0.1107(5) 0.2576(11) 0.4040(5)
H34_4 H 0.0866 0.2298 0.3863
C52_4 C 0.1331(5) 0.2086(12) 0.4380(5)
H35_4 H 0.1249 0.1456 0.4446
C53_4 C 0.0961(5) 0.2804(12) 0.2797(6)
H36_4 H 0.1193 0.3205 0.2809
C54_4 C 0.0934(5) 0.2031(13) 0.2533(6)
H37_4 H 0.1146 0.1854 0.2373
C55_4 C 0.0579(4) 0.1488(10) 0.2501(4)
C56_4 C 0.0314(4) 0.1757(10) 0.2739(5)
H38_4 H 0.0071 0.1394 0.2728
C57_4 C 0.0377(4) 0.2544(10) 0.3001(5)
H39_4 H 0.0173 0.2735 0.3170
C58_4 C 0.0542(4) 0.0709(10) 0.2206(5)
C67_4 C 0.1258(5) 0.0227(12) 0.1323(5)
H44_4 H 0.1326 0.0739 0.1539
C68_4 C 0.1492(6) 0.0057(14) 0.0997(6)
H45_4 H 0.1715 0.0471 0.0980
I3_4 I 0.35051(3) 0.37227(9) 0.75950(4)
I4_4 I 0.39184(3) 0.52113(7) 0.64981(4)
I7_4 I 0.02432(3) 0.43586(7) 0.38412(3)
I8_4 I 0.11740(3) 0.52713(7) 0.30769(3)
I12_4 I 0.23588(3) 0.00290(7) 0.04479(4)
N14_4 N 0.3324(3) 0.3111(8) 0.6421(4)
N15_4 N 0.1212(3) 0.3425(7) 0.3947(4)
N16_4 N 0.2318(3) 0.0908(8) 0.5636(4)
N17_4 N 0.2193(3) 0.2304(8) 0.5254(4)
N18_4 N 0.1787(3) 0.1044(8) 0.5035(4)
N19_4 N 0.0699(3) 0.3049(8) 0.3035(4)
N22_4 N 0.0235(3) 0.0135(8) 0.2258(4)
N23_4 N 0.0778(3) 0.0607(8) 0.1925(4)
Zn3_4 Zn 0.08262(5) 0.41235(11) 0.34771(5)
C1_4 C 0.3256(4) 0.3238(11) 0.1444(5)
H1_4 H 0.3403 0.3555 0.1713
C2_4 C 0.2958(4) 0.3679(10) 0.1182(4)
H2_4 H 0.2899 0.4327 0.1245
C3_4 C 0.2733(4) 0.3226(9) 0.0823(4)
C4_4 C 0.2845(4) 0.2363(10) 0.0736(5)
H3_4 H 0.2704 0.2031 0.0469
C5_4 C 0.3142(4) 0.1962(11) 0.1003(5)
H4_4 H 0.3206 0.1316 0.0943
C6_4 C 0.1564(5) 0.7195(11) 0.0074(5)
C7_4 C 0.1619(4) 0.6264(11) 0.0089(5)
C8_4 C 0.1946(4) 0.5900(10) 0.0355(5)
C9_4 C 0.2135(5) 0.7447(13) 0.0570(6)
H7_4 H 0.2324 0.7876 0.0750
C10_4 C 0.2028(4) 0.4896(9) 0.0346(4)
C11_4 C 0.2403(4) 0.3673(10) 0.0539(5)
C69_4 C 0.2202(4) 0.6480(11) 0.0596(5)
H46_4 H 0.2441 0.6235 0.0792
N2_2 N 0.1820(4) 0.7763(9) 0.0303(4)
N4_4 N 0.2324(3) 0.4547(8) 0.0623(4)
N5_4 N 0.1793(3) 0.4440(8) 0.0033(4)
N6_4 N 0.2207(3) 0.3155(8) 0.0214(4)
Zn9_2 Zn 0.17305(5) 0.91506(11) 0.02278(6)
H5_4 H 0.1323 0.7449 0.9885
H6_4 H 0.1423 0.5853 0.9907
C12_3 C 0.1893(4) 0.3603(10) 0.9980(5)
C13_3 C 0.1645(4) 0.3064(10) 0.9613(5)
C14_3 C 0.1106(5) 0.2969(12) 0.9043(6)
H8_3 H 0.0861 0.3251 0.8877
C15_3 C 0.1519(4) 0.1754(11) 0.9162(5)
H9_3 H 0.1598 0.1132 0.9080
C16_3 C 0.1741(4) 0.2197(10) 0.9512(5)
H10_3 H 0.1973 0.1890 0.9693
C17_3 C 0.1321(5) 0.3444(12) 0.9367(5)
H11_3 H 0.1244 0.4080 0.9429
C23_3 C 0.0377(4) 0.3119(10) 0.8007(5)
H16_3 H 0.0191 0.2965 0.8206
C24_3 C 0.0308(4) 0.3875(10) 0.7738(5)
H17_3 H 0.0074 0.4267 0.7739
C25_3 C 0.0576(4) 0.4083(10) 0.7462(5)
C26_3 C 0.0884(4) 0.3532(11) 0.7476(5)
H18_3 H 0.1078 0.3672 0.7284
C27_3 C 0.0938(5) 0.2791(13) 0.7743(6)
H19_3 H 0.1169 0.2388 0.7743
C28_4 C 0.0176(4) 0.6159(10) 0.6932(4)
C29_4 C 0.0659(4) 0.5702(10) 0.6609(5)
C30_4 C 0.1013(5) 0.6416(11) 0.5592(5)
H20_4 H 0.0903 0.6717 0.5304
C31_4 C 0.0770(6) 0.6317(14) 0.5885(6)
H21_4 H 0.0500 0.6568 0.5826
C32_4 C 0.0918(4) 0.5850(10) 0.6268(5)
C33_4 C 0.1289(4) 0.5539(10) 0.6348(5)
H22_4 H 0.1394 0.5202 0.6628
C34_4 C 0.1518(4) 0.5694(10) 0.6040(5)
H23_4 H 0.1792 0.5469 0.6096
C35_4 C 0.2132(4) 0.8083(10) 0.5555(5)
H24_4 H 0.2318 0.7659 0.5741
C36_4 C 0.2203(5) 0.8995(12) 0.5596(5)
H25_4 H 0.2440 0.9228 0.5800
C37_4 C 0.1944(4) 0.9589(9) 0.5356(4)
C38_4 C 0.1623(4) 0.9253(11) 0.5083(5)
H26_4 H 0.1430 0.9674 0.4904
C39_4 C 0.1569(5) 0.8325(12) 0.5058(6)
H27_4 H 0.1327 0.8081 0.4868
C59_4 C 0.0184(4) 0.9472(9) 0.1946(4)
C60_4 C 0.0709(4) 0.9881(10) 0.1669(5)
C66_4 C 0.0954(4) 0.9710(10) 0.1340(5)
C70_4 C 0.0857(7) 0.9039(17) 0.1029(8)
H47_4 H 0.0600 0.8721 0.0991
C71_4 C 0.1128(6) 0.8812(16) 0.0765(7)
H48_4 H 0.1103 0.8212 0.0608
I1_3 I 0.02183(3) 0.12517(8) 0.88003(3)
I2_3 I 0.11772(3) 0.03446(7) 0.80657(3)
I5_4 I 0.12549(3) 0.62331(7) 0.44306(3)
I6_4 I 0.23151(3) 0.53829(7) 0.53820(3)
N3_3 N 0.1201(4) 0.2133(9) 0.8929(4)
N7_3 N 0.0683(3) 0.2593(8) 0.8009(4)
N9_4 N 0.1373(3) 0.6157(8) 0.5653(4)
N10_4 N 0.0240(3) 0.5487(8) 0.7223(4)
C72_3 C 0.0506(4) 0.4909(9) 0.7186(4)
N11_4 N 0.0381(3) 0.6302(8) 0.6612(3)
N12_3 N 0.0741(3) 0.4975(8) 0.6871(4)
N13_4 N 0.1830(3) 0.7727(8) 0.5281(4)
N21_4 N 0.1420(3) 0.9368(9) 0.0716(4)
N24_4 N 0.0417(4) 0.9309(9) 0.1665(4)
Zn1_3 Zn 0.08029(5) 0.14840(11) 0.84366(5)
Zn2_4 Zn 0.17059(5) 0.63428(11) 0.51798(5)
C18_4 C 0.9341(4) 0.7746(11) 0.6545(5)
H12_4 H 0.9212 0.8041 0.6262
C19_4 C 0.9658(5) 0.7188(11) 0.6542(5)
H13_4 H 0.9762 0.7101 0.6263
C20_4 C 0.9833(4) 0.6748(10) 0.6930(5)
C21_4 C 0.9687(4) 0.6934(10) 0.7304(5)
H14_4 H 0.9816 0.6667 0.7595
C22_4 C 0.9367(4) 0.7482(11) 0.7283(5)
H15_4 H 0.9254 0.7567 0.7555
C61_4 C 0.9846(4) 0.8847(10) 0.1935(5)
C62_4 C 0.9672(4) 0.8536(11) 0.1516(5)
H40_4 H 0.9761 0.8732 0.1239
C63_4 C 0.9372(5) 0.7942(13) 0.1512(6)
H41_4 H 0.9256 0.7650 0.1223
C64_4 C 0.9375(4) 0.8075(10) 0.2253(5)
H42_4 H 0.9264 0.7901 0.2518
C65_4 C 0.9694(4) 0.8695(10) 0.2299(5)
H43_4 H 0.9799 0.9001 0.2588
I9_4 I 0.85717(4) 0.65263(10) 0.24904(4)
I10_4 I 0.90892(4) 0.55197(8) 0.13307(5)
N20_4 N 0.9223(3) 0.7726(8) 0.1858(4)
I11_2 I 0.62608(4) 0.43484(8) 0.94971(4)
C12_4 C 0.6893(4) 0.8603(10) 0.9980(5)
C13_4 C 0.6645(4) 0.8064(10) 0.9613(5)
C14_4 C 0.6106(5) 0.7969(12) 0.9043(6)
H8_4 H 0.5861 0.8251 0.8877
C15_4 C 0.6519(4) 0.6754(11) 0.9162(5)
H9_4 H 0.6598 0.6132 0.9080
C16_4 C 0.6741(4) 0.7197(10) 0.9512(5)
H10_4 H 0.6973 0.6890 0.9693
C17_4 C 0.6321(5) 0.8444(12) 0.9367(5)
H11_4 H 0.6244 0.9080 0.9429
C23_4 C 0.5377(4) 0.8119(10) 0.8007(5)
H16_4 H 0.5191 0.7965 0.8206
C24_4 C 0.5308(4) 0.8875(10) 0.7738(5)
H17_4 H 0.5074 0.9267 0.7739
C25_4 C 0.5576(4) 0.9083(10) 0.7462(5)
C26_4 C 0.5884(4) 0.8532(11) 0.7476(5)
H18_4 H 0.6078 0.8672 0.7284
C27_4 C 0.5938(5) 0.7791(13) 0.7743(6)
H19_4 H 0.6169 0.7388 0.7743
I1_4 I 0.52183(3) 0.62517(8) 0.88003(3)
I2_4 I 0.61772(3) 0.53446(7) 0.80657(3)
N3_4 N 0.6201(4) 0.7133(9) 0.8929(4)
N7_4 N 0.5683(3) 0.7593(8) 0.8009(4)
C72_4 C 0.5506(4) 0.9909(9) 0.7186(4)
N12_4 N 0.5741(3) 0.9975(8) 0.6871(4)
Zn1_4 Zn 0.58029(5) 0.64840(11) 0.84366(5)
I11_3 I 0.87392(4) 0.93484(8) 0.05029(4)
I11_4 I 0.12608(4) 0.93484(8) 0.94971(4)
loop_
_geom_bond_atom_site_label_1
_geom_bond_atom_site_label_2
_geom_bond_site_symmetry_1
_geom_bond_site_symmetry_2
C18 H12 1_555 1_555
C19 C18 1_555 1_555
H13 C19 1_555 1_555
C20 C19 1_555 1_555
C21 C20 1_555 1_555
H14 C21 1_555 1_555
C22 C21 1_555 1_555
H15 C22 1_555 1_555
C28 C20 1_555 1_555
C29 C32 1_555 1_555
C30 H20 1_555 1_555
C31 C30 1_555 1_555
H21 C31 1_555 1_555
C32 C31 1_555 1_555
C33 C32 1_555 1_555
H22 C33 1_555 1_555
C34 C33 1_555 1_555
H23 C34 1_555 1_555
C35 H24 1_555 1_555
C36 C35 1_555 1_555
H25 C36 1_555 1_555
C37 C36 1_555 1_555
C38 C37 1_555 1_555
H26 C38 1_555 1_555
C39 C38 1_555 1_555
H27 C39 1_555 1_555
C40 H28 1_555 1_555
C41 C40 1_555 1_555
H29 C41 1_555 1_555
C42 C41 1_555 1_555
C43 C42 1_555 1_555
H30 C43 1_555 1_555
C44 C43 1_555 1_555
H31 C44 1_555 1_555
C45 C42 1_555 1_555
C46 C37 1_555 1_555
C47 C48 1_555 1_555
C48 C49 1_555 1_555
C49 H32 1_555 1_555
C50 C49 1_555 1_555
H33 C50 1_555 1_555
C51 H34 1_555 1_555
C52 C48 1_555 1_555
H35 C52 1_555 1_555
C53 H36 1_555 1_555
C54 C53 1_555 1_555
H37 C54 1_555 1_555
C55 C54 1_555 1_555
C56 C55 1_555 1_555
H38 C56 1_555 1_555
C57 C56 1_555 1_555
H39 C57 1_555 1_555
C58 C55 1_555 1_555
C59 C61 1_555 1_555
C60 C66 1_555 1_555
C61 C62 1_555 1_555
C62 H40 1_555 1_555
C63 C62 1_555 1_555
H41 C63 1_555 1_555
C64 H42 1_555 1_555
C65 C61 1_555 1_555
H43 C65 1_555 1_555
C66 C67 1_555 1_555
C67 H44 1_555 1_555
C68 C67 1_555 1_555
H45 C68 1_555 1_555
C70 C66 1_555 1_555
H47 C70 1_555 1_555
C71 C70 1_555 1_555
H48 C71 1_555 1_555
I3 Zn4 1_555 1_555
I5 Zn2 1_555 1_555
I6 Zn2 1_555 1_555
I7 Zn3 1_555 1_555
I9 Zn5 1_555 1_555
I10 Zn5 1_555 1_555
I12 Zn6 1_555 1_555
N8 C18 1_555 1_555
N9 C30 1_555 1_555
N10 C28 1_555 1_555
N11 C28 1_555 1_555
N13 C35 1_555 1_555
N14 C40 1_555 1_555
N15 C50 1_555 1_555
N16 C45 1_555 1_555
N17 C45 1_555 1_555
N18 C46 1_555 1_555
N19 C53 1_555 1_555
N20 C63 1_555 1_555
N21 C68 1_555 1_555
N22 C58 1_555 1_555
N23 C58 1_555 1_555
N24 C59 1_555 1_555
Zn2 N9 1_555 1_555
Zn3 N15 1_555 1_555
Zn4 N14 1_555 1_555
Zn5 N20 1_555 1_555
Zn6 N21 1_555 1_555
N25 Zn5 1_555 1_555
N26 Zn6 1_555 1_555
N27 Zn4 1_555 1_555
Zn7 N8 1_555 1_555
C22 N8 1_555 1_555
C29 N11 1_555 1_555
C34 N9 1_555 1_555
C39 N13 1_555 1_555
C44 N14 1_555 1_555
C46 N16 1_555 1_555
C47 N17 1_555 1_555
C47 N18 1_555 1_555
C51 C52 1_555 1_555
C51 N15 1_555 1_555
C57 N19 1_555 1_555
C59 N22 1_555 1_555
C60 N23 1_555 1_555
C60 N24 1_555 1_555
C64 C65 1_555 1_555
C64 N20 1_555 1_555
C71 N21 1_555 1_555
N13 Zn2 1_555 1_555
N19 Zn3 1_555 1_555
C7 C6 1_555 1_555
C8 C7 1_555 1_555
C9 H7 1_555 1_555
C69 C8 1_555 1_555
H46 C69 1_555 1_555
N26 C6 1_555 1_555
C9 C69 1_555 1_555
C9 N26 1_555 1_555
C1 H1 1_555 1_555
C2 C1 1_555 1_555
H2 C2 1_555 1_555
C3 C2 1_555 1_555
C4 C3 1_555 1_555
H3 C4 1_555 1_555
C5 C4 1_555 1_555
H4 C5 1_555 1_555
C11 C3 1_555 1_555
N1 C1 1_555 1_555
N4 C10 1_555 1_555
N5 C10 1_555 1_555
N6 C11 1_555 1_555
Zn8 N1 1_555 1_555
C5 N1 1_555 1_555
C11 N4 1_555 1_555
C18_2 H12_2 1_555 1_555
C19_2 C18_2 1_555 1_555
H13_2 C19_2 1_555 1_555
C20_2 C19_2 1_555 1_555
C21_2 C20_2 1_555 1_555
H14_2 C21_2 1_555 1_555
C22_2 C21_2 1_555 1_555
H15_2 C22_2 1_555 1_555
C61_2 C62_2 1_555 1_555
C62_2 H40_2 1_555 1_555
C63_2 C62_2 1_555 1_555
H41_2 C63_2 1_555 1_555
C64_2 H42_2 1_555 1_555
C65_2 C61_2 1_555 1_555
H43_2 C65_2 1_555 1_555
I9_2 Zn8 1_555 1_555
I10_2 Zn8 1_555 1_555
N27 C18_2 1_555 1_555
N20_2 C63_2 1_555 1_555
Zn8 N20_2 1_555 1_555
C22_2 N27 1_555 1_555
C64_2 C65_2 1_555 1_555
C64_2 N20_2 1_555 1_555
C40_2 H28_2 1_555 1_555
C41_2 C40_2 1_555 1_555
H29_2 C41_2 1_555 1_555
C42_2 C41_2 1_555 1_555
C43_2 C42_2 1_555 1_555
H30_2 C43_2 1_555 1_555
C44_2 C43_2 1_555 1_555
H31_2 C44_2 1_555 1_555
C45_2 C42_2 1_555 1_555
C47_2 C48_2 1_555 1_555
C48_2 C49_2 1_555 1_555
C49_2 H32_2 1_555 1_555
C50_2 C49_2 1_555 1_555
H33_2 C50_2 1_555 1_555
C51_2 H34_2 1_555 1_555
C52_2 C48_2 1_555 1_555
H35_2 C52_2 1_555 1_555
C53_2 H36_2 1_555 1_555
C54_2 C53_2 1_555 1_555
H37_2 C54_2 1_555 1_555
C55_2 C54_2 1_555 1_555
C56_2 C55_2 1_555 1_555
H38_2 C56_2 1_555 1_555
C57_2 C56_2 1_555 1_555
H39_2 C57_2 1_555 1_555
C58_2 C55_2 1_555 1_555
C67_2 H44_2 1_555 1_555
C68_2 C67_2 1_555 1_555
H45_2 C68_2 1_555 1_555
I3_2 Zn7 1_555 1_555
I4_2 Zn7 1_555 1_555
I7_2 Zn3_2 1_555 1_555
I8_2 Zn3_2 1_555 1_555
N14_2 C40_2 1_555 1_555
N15_2 C50_2 1_555 1_555
N16_2 C45_2 1_555 1_555
N17_2 C45_2 1_555 1_555
N18_2 C46_2 1_555 1_555
N19_2 C53_2 1_555 1_555
N22_2 C58_2 1_555 1_555
N23_2 C58_2 1_555 1_555
Zn3_2 N15_2 1_555 1_555
Zn7 N14_2 1_555 1_555
C44_2 N14_2 1_555 1_555
C46_2 N16_2 1_555 1_555
C47_2 N17_2 1_555 1_555
C47_2 N18_2 1_555 1_555
C51_2 C52_2 1_555 1_555
C51_2 N15_2 1_555 1_555
C57_2 N19_2 1_555 1_555
N19_2 Zn3_2 1_555 1_555
C12 C13 1_555 1_555
C13 C16 1_555 1_555
C14 H8 1_555 1_555
C15 H9 1_555 1_555
C16 C15 1_555 1_555
H10 C16 1_555 1_555
C17 C13 1_555 1_555
H11 C17 1_555 1_555
C23 H16 1_555 1_555
C24 C23 1_555 1_555
H17 C24 1_555 1_555
C25 C24 1_555 1_555
C26 C25 1_555 1_555
H18 C26 1_555 1_555
C27 C26 1_555 1_555
H19 C27 1_555 1_555
C29_2 C32_2 1_555 1_555
C30_2 H20_2 1_555 1_555
C31_2 C30_2 1_555 1_555
H21_2 C31_2 1_555 1_555
C32_2 C31_2 1_555 1_555
C33_2 C32_2 1_555 1_555
H22_2 C33_2 1_555 1_555
C34_2 C33_2 1_555 1_555
H23_2 C34_2 1_555 1_555
C35_2 H24_2 1_555 1_555
C36_2 C35_2 1_555 1_555
H25_2 C36_2 1_555 1_555
C37_2 C36_2 1_555 1_555
C38_2 C37_2 1_555 1_555
H26_2 C38_2 1_555 1_555
C39_2 C38_2 1_555 1_555
H27_2 C39_2 1_555 1_555
C60_2 C66_2 1_555 1_555
C70_2 C66_2 1_555 1_555
H47_2 C70_2 1_555 1_555
C71_2 C70_2 1_555 1_555
H48_2 C71_2 1_555 1_555
I1 Zn1 1_555 1_555
I2 Zn1 1_555 1_555
I5_2 Zn2_2 1_555 1_555
I6_2 Zn2_2 1_555 1_555
N3 C14 1_555 1_555
N7 C23 1_555 1_555
N9_2 C30_2 1_555 1_555
N10_2 C28_2 1_555 1_555
C72 C25 1_555 1_555
N11_2 C28_2 1_555 1_555
N12 C29_2 1_555 1_555
N13_2 C35_2 1_555 1_555
N24_2 C59_2 1_555 1_555
Zn1 N3 1_555 1_555
Zn2_2 N9_2 1_555 1_555
Zn6_2 N21_2 1_555 1_555
N26_2 Zn6_2 1_555 1_555
C14 C17 1_555 1_555
C15 N3 1_555 1_555
C27 N7 1_555 1_555
C29_2 N11_2 1_555 1_555
C34_2 N9_2 1_555 1_555
C39_2 N13_2 1_555 1_555
C60_2 N24_2 1_555 1_555
C71_2 N21_2 1_555 1_555
N7 Zn1 1_555 1_555
N10_2 C72 1_555 1_555
C72 N12 1_555 1_555
N13_2 Zn2_2 1_555 1_555
C1_2 H1_2 1_555 1_555
C2_2 C1_2 1_555 1_555
H2_2 C2_2 1_555 1_555
C3_2 C2_2 1_555 1_555
C4_2 C3_2 1_555 1_555
H3_2 C4_2 1_555 1_555
C5_2 C4_2 1_555 1_555
H4_2 C5_2 1_555 1_555
C7_2 C6_2 1_555 1_555
C8_2 C7_2 1_555 1_555
C9_2 H7_2 1_555 1_555
C10_2 C8_2 1_555 1_555
C11_2 C3_2 1_555 1_555
C69_2 C8_2 1_555 1_555
H46_2 C69_2 1_555 1_555
N25 C1_2 1_555 1_555
N26_2 C6_2 1_555 1_555
N4_2 C10_2 1_555 1_555
N5_2 C10_2 1_555 1_555
N6_2 C11_2 1_555 1_555
C5_2 N25 1_555 1_555
C9_2 C69_2 1_555 1_555
C9_2 N26_2 1_555 1_555
C11_2 N4_2 1_555 1_555
C12_2 C13_2 1_555 1_555
C13_2 C16_2 1_555 1_555
C14_2 H8_2 1_555 1_555
C15_2 H9_2 1_555 1_555
C16_2 C15_2 1_555 1_555
H10_2 C16_2 1_555 1_555
C17_2 C13_2 1_555 1_555
H11_2 C17_2 1_555 1_555
C23_2 H16_2 1_555 1_555
C24_2 C23_2 1_555 1_555
H17_2 C24_2 1_555 1_555
C25_2 C24_2 1_555 1_555
C26_2 C25_2 1_555 1_555
H18_2 C26_2 1_555 1_555
C27_2 C26_2 1_555 1_555
H19_2 C27_2 1_555 1_555
I1_2 Zn1_2 1_555 1_555
I2_2 Zn1_2 1_555 1_555
N3_2 C14_2 1_555 1_555
N7_2 C23_2 1_555 1_555
C72_2 C25_2 1_555 1_555
Zn1_2 N3_2 1_555 1_555
C14_2 C17_2 1_555 1_555
C15_2 N3_2 1_555 1_555
C27_2 N7_2 1_555 1_555
N7_2 Zn1_2 1_555 1_555
C72_2 N12_2 1_555 1_555
C7_3 C6_3 1_555 1_555
C8_3 C7_3 1_555 1_555
C9_3 H7_3 1_555 1_555
C69_3 C8_3 1_555 1_555
H46_3 C69_3 1_555 1_555
N2 C6_3 1_555 1_555
Zn9 N2 1_555 1_555
C9_3 C69_3 1_555 1_555
C9_3 N2 1_555 1_555
C18_3 H12_3 1_555 1_555
C19_3 C18_3 1_555 1_555
H13_3 C19_3 1_555 1_555
C20_3 C19_3 1_555 1_555
C21_3 C20_3 1_555 1_555
H14_3 C21_3 1_555 1_555
C22_3 C21_3 1_555 1_555
H15_3 C22_3 1_555 1_555
C28_3 C20_3 1_555 1_555
C29_3 C32_3 1_555 1_555
C30_3 H20_3 1_555 1_555
C31_3 C30_3 1_555 1_555
H21_3 C31_3 1_555 1_555
C32_3 C31_3 1_555 1_555
C33_3 C32_3 1_555 1_555
H22_3 C33_3 1_555 1_555
C34_3 C33_3 1_555 1_555
H23_3 C34_3 1_555 1_555
C35_3 H24_3 1_555 1_555
C36_3 C35_3 1_555 1_555
H25_3 C36_3 1_555 1_555
C37_3 C36_3 1_555 1_555
C38_3 C37_3 1_555 1_555
H26_3 C38_3 1_555 1_555
C39_3 C38_3 1_555 1_555
H27_3 C39_3 1_555 1_555
C40_3 H28_3 1_555 1_555
C41_3 C40_3 1_555 1_555
H29_3 C41_3 1_555 1_555
C42_3 C41_3 1_555 1_555
C43_3 C42_3 1_555 1_555
H30_3 C43_3 1_555 1_555
C44_3 C43_3 1_555 1_555
H31_3 C44_3 1_555 1_555
C45_3 C42_3 1_555 1_555
C46_3 C37_3 1_555 1_555
C47_3 C48_3 1_555 1_555
C48_3 C49_3 1_555 1_555
C49_3 H32_3 1_555 1_555
C50_3 C49_3 1_555 1_555
H33_3 C50_3 1_555 1_555
C51_3 H34_3 1_555 1_555
C52_3 C48_3 1_555 1_555
H35_3 C52_3 1_555 1_555
C53_3 H36_3 1_555 1_555
C54_3 C53_3 1_555 1_555
H37_3 C54_3 1_555 1_555
C55_3 C54_3 1_555 1_555
C56_3 C55_3 1_555 1_555
H38_3 C56_3 1_555 1_555
C57_3 C56_3 1_555 1_555
H39_3 C57_3 1_555 1_555
C58_3 C55_3 1_555 1_555
C59_3 C61_3 1_555 1_555
C60_3 C66_3 1_555 1_555
C61_3 C62_3 1_555 1_555
C62_3 H40_3 1_555 1_555
C63_3 C62_3 1_555 1_555
H41_3 C63_3 1_555 1_555
C64_3 H42_3 1_555 1_555
C65_3 C61_3 1_555 1_555
H43_3 C65_3 1_555 1_555
C66_3 C67_3 1_555 1_555
C67_3 H44_3 1_555 1_555
C68_3 C67_3 1_555 1_555
H45_3 C68_3 1_555 1_555
C70_3 C66_3 1_555 1_555
H47_3 C70_3 1_555 1_555
C71_3 C70_3 1_555 1_555
H48_3 C71_3 1_555 1_555
I3_3 Zn4_2 1_555 1_555
I5_3 Zn2_3 1_555 1_555
I6_3 Zn2_3 1_555 1_555
I7_3 Zn3_3 1_555 1_555
I9_3 Zn5_2 1_555 1_555
I10_3 Zn5_2 1_555 1_555
I12_3 Zn9 1_555 1_555
N8_2 C18_3 1_555 1_555
N9_3 C30_3 1_555 1_555
N10_3 C28_3 1_555 1_555
N11_3 C28_3 1_555 1_555
N13_3 C35_3 1_555 1_555
N14_3 C40_3 1_555 1_555
N15_3 C50_3 1_555 1_555
N16_3 C45_3 1_555 1_555
N17_3 C45_3 1_555 1_555
N18_3 C46_3 1_555 1_555
N19_3 C53_3 1_555 1_555
N20_3 C63_3 1_555 1_555
N21_3 C68_3 1_555 1_555
N22_3 C58_3 1_555 1_555
N23_3 C58_3 1_555 1_555
N24_3 C59_3 1_555 1_555
Zn2_3 N9_3 1_555 1_555
Zn3_3 N15_3 1_555 1_555
Zn4_2 N14_3 1_555 1_555
Zn5_2 N20_3 1_555 1_555
Zn9 N21_3 1_555 1_555
N25_2 Zn5_2 1_555 1_555
N27_2 Zn4_2 1_555 1_555
Zn7_2 N8_2 1_555 1_555
C22_3 N8_2 1_555 1_555
C29_3 N11_3 1_555 1_555
C34_3 N9_3 1_555 1_555
C39_3 N13_3 1_555 1_555
C44_3 N14_3 1_555 1_555
C46_3 N16_3 1_555 1_555
C47_3 N17_3 1_555 1_555
C47_3 N18_3 1_555 1_555
C51_3 C52_3 1_555 1_555
C51_3 N15_3 1_555 1_555
C57_3 N19_3 1_555 1_555
C59_3 N22_3 1_555 1_555
C60_3 N23_3 1_555 1_555
C60_3 N24_3 1_555 1_555
C64_3 C65_3 1_555 1_555
C64_3 N20_3 1_555 1_555
C71_3 N21_3 1_555 1_555
N13_3 Zn2_3 1_555 1_555
N19_3 Zn3_3 1_555 1_555
C1_3 H1_3 1_555 1_555
C2_3 C1_3 1_555 1_555
H2_3 C2_3 1_555 1_555
C3_3 C2_3 1_555 1_555
C4_3 C3_3 1_555 1_555
H3_3 C4_3 1_555 1_555
C5_3 C4_3 1_555 1_555
H4_3 C5_3 1_555 1_555
C11_3 C3_3 1_555 1_555
N1_2 C1_3 1_555 1_555
N4_3 C10_3 1_555 1_555
N5_3 C10_3 1_555 1_555
N6_3 C11_3 1_555 1_555
Zn8_2 N1_2 1_555 1_555
C5_3 N1_2 1_555 1_555
C11_3 N4_3 1_555 1_555
C40_4 H28_4 1_555 1_555
C41_4 C40_4 1_555 1_555
H29_4 C41_4 1_555 1_555
C42_4 C41_4 1_555 1_555
C43_4 C42_4 1_555 1_555
H30_4 C43_4 1_555 1_555
C44_4 C43_4 1_555 1_555
H31_4 C44_4 1_555 1_555
C45_4 C42_4 1_555 1_555
C47_4 C48_4 1_555 1_555
C48_4 C49_4 1_555 1_555
C49_4 H32_4 1_555 1_555
C50_4 C49_4 1_555 1_555
H33_4 C50_4 1_555 1_555
C51_4 H34_4 1_555 1_555
C52_4 C48_4 1_555 1_555
H35_4 C52_4 1_555 1_555
C53_4 H36_4 1_555 1_555
C54_4 C53_4 1_555 1_555
H37_4 C54_4 1_555 1_555
C55_4 C54_4 1_555 1_555
C56_4 C55_4 1_555 1_555
H38_4 C56_4 1_555 1_555
C57_4 C56_4 1_555 1_555
H39_4 C57_4 1_555 1_555
C58_4 C55_4 1_555 1_555
C67_4 H44_4 1_555 1_555
C68_4 C67_4 1_555 1_555
H45_4 C68_4 1_555 1_555
I3_4 Zn7_2 1_555 1_555
I4_4 Zn7_2 1_555 1_555
I7_4 Zn3_4 1_555 1_555
I8_4 Zn3_4 1_555 1_555
N14_4 C40_4 1_555 1_555
N15_4 C50_4 1_555 1_555
N16_4 C45_4 1_555 1_555
N17_4 C45_4 1_555 1_555
N18_4 C46_4 1_555 1_555
N19_4 C53_4 1_555 1_555
N22_4 C58_4 1_555 1_555
N23_4 C58_4 1_555 1_555
Zn3_4 N15_4 1_555 1_555
Zn7_2 N14_4 1_555 1_555
C44_4 N14_4 1_555 1_555
C46_4 N16_4 1_555 1_555
C47_4 N17_4 1_555 1_555
C47_4 N18_4 1_555 1_555
C51_4 C52_4 1_555 1_555
C51_4 N15_4 1_555 1_555
C57_4 N19_4 1_555 1_555
N19_4 Zn3_4 1_555 1_555
C1_4 H1_4 1_555 1_555
C2_4 C1_4 1_555 1_555
H2_4 C2_4 1_555 1_555
C3_4 C2_4 1_555 1_555
C4_4 C3_4 1_555 1_555
H3_4 C4_4 1_555 1_555
C5_4 C4_4 1_555 1_555
H4_4 C5_4 1_555 1_555
C7_4 C6_4 1_555 1_555
C8_4 C7_4 1_555 1_555
C9_4 H7_4 1_555 1_555
C10_4 C8_4 1_555 1_555
C11_4 C3_4 1_555 1_555
C69_4 C8_4 1_555 1_555
H46_4 C69_4 1_555 1_555
N25_2 C1_4 1_555 1_555
N2_2 C6_4 1_555 1_555
N4_4 C10_4 1_555 1_555
N5_4 C10_4 1_555 1_555
N6_4 C11_4 1_555 1_555
Zn9_2 N2_2 1_555 1_555
C5_4 N25_2 1_555 1_555
C9_4 C69_4 1_555 1_555
C9_4 N2_2 1_555 1_555
C11_4 N4_4 1_555 1_555
C12_3 C13_3 1_555 1_555
C13_3 C16_3 1_555 1_555
C14_3 H8_3 1_555 1_555
C15_3 H9_3 1_555 1_555
C16_3 C15_3 1_555 1_555
H10_3 C16_3 1_555 1_555
C17_3 C13_3 1_555 1_555
H11_3 C17_3 1_555 1_555
C23_3 H16_3 1_555 1_555
C24_3 C23_3 1_555 1_555
H17_3 C24_3 1_555 1_555
C25_3 C24_3 1_555 1_555
C26_3 C25_3 1_555 1_555
H18_3 C26_3 1_555 1_555
C27_3 C26_3 1_555 1_555
H19_3 C27_3 1_555 1_555
C29_4 C32_4 1_555 1_555
C30_4 H20_4 1_555 1_555
C31_4 C30_4 1_555 1_555
H21_4 C31_4 1_555 1_555
C32_4 C31_4 1_555 1_555
C33_4 C32_4 1_555 1_555
H22_4 C33_4 1_555 1_555
C34_4 C33_4 1_555 1_555
H23_4 C34_4 1_555 1_555
C35_4 H24_4 1_555 1_555
C36_4 C35_4 1_555 1_555
H25_4 C36_4 1_555 1_555
C37_4 C36_4 1_555 1_555
C38_4 C37_4 1_555 1_555
H26_4 C38_4 1_555 1_555
C39_4 C38_4 1_555 1_555
H27_4 C39_4 1_555 1_555
C60_4 C66_4 1_555 1_555
C70_4 C66_4 1_555 1_555
H47_4 C70_4 1_555 1_555
C71_4 C70_4 1_555 1_555
H48_4 C71_4 1_555 1_555
I1_3 Zn1_3 1_555 1_555
I2_3 Zn1_3 1_555 1_555
I5_4 Zn2_4 1_555 1_555
I6_4 Zn2_4 1_555 1_555
N3_3 C14_3 1_555 1_555
N7_3 C23_3 1_555 1_555
N9_4 C30_4 1_555 1_555
N10_4 C28_4 1_555 1_555
C72_3 C25_3 1_555 1_555
N11_4 C28_4 1_555 1_555
N12_3 C29_4 1_555 1_555
N13_4 C35_4 1_555 1_555
N24_4 C59_4 1_555 1_555
Zn1_3 N3_3 1_555 1_555
Zn2_4 N9_4 1_555 1_555
Zn9_2 N21_4 1_555 1_555
C14_3 C17_3 1_555 1_555
C15_3 N3_3 1_555 1_555
C27_3 N7_3 1_555 1_555
C29_4 N11_4 1_555 1_555
C34_4 N9_4 1_555 1_555
C39_4 N13_4 1_555 1_555
C60_4 N24_4 1_555 1_555
C71_4 N21_4 1_555 1_555
N7_3 Zn1_3 1_555 1_555
N10_4 C72_3 1_555 1_555
C72_3 N12_3 1_555 1_555
N13_4 Zn2_4 1_555 1_555
C18_4 H12_4 1_555 1_555
C19_4 C18_4 1_555 1_555
H13_4 C19_4 1_555 1_555
C20_4 C19_4 1_555 1_555
C21_4 C20_4 1_555 1_555
H14_4 C21_4 1_555 1_555
C22_4 C21_4 1_555 1_555
H15_4 C22_4 1_555 1_555
C61_4 C62_4 1_555 1_555
C62_4 H40_4 1_555 1_555
C63_4 C62_4 1_555 1_555
H41_4 C63_4 1_555 1_555
C64_4 H42_4 1_555 1_555
C65_4 C61_4 1_555 1_555
H43_4 C65_4 1_555 1_555
I9_4 Zn8_2 1_555 1_555
I10_4 Zn8_2 1_555 1_555
N27_2 C18_4 1_555 1_555
N20_4 C63_4 1_555 1_555
Zn8_2 N20_4 1_555 1_555
C22_4 N27_2 1_555 1_555
C64_4 C65_4 1_555 1_555
C64_4 N20_4 1_555 1_555
C12_4 C13_4 1_555 1_555
C13_4 C16_4 1_555 1_555
C14_4 H8_4 1_555 1_555
C15_4 H9_4 1_555 1_555
C16_4 C15_4 1_555 1_555
H10_4 C16_4 1_555 1_555
C17_4 C13_4 1_555 1_555
H11_4 C17_4 1_555 1_555
C23_4 H16_4 1_555 1_555
C24_4 C23_4 1_555 1_555
H17_4 C24_4 1_555 1_555
C25_4 C24_4 1_555 1_555
C26_4 C25_4 1_555 1_555
H18_4 C26_4 1_555 1_555
C27_4 C26_4 1_555 1_555
H19_4 C27_4 1_555 1_555
I1_4 Zn1_4 1_555 1_555
I2_4 Zn1_4 1_555 1_555
N3_4 C14_4 1_555 1_555
N7_4 C23_4 1_555 1_555
C72_4 C25_4 1_555 1_555
Zn1_4 N3_4 1_555 1_555
C14_4 C17_4 1_555 1_555
C15_4 N3_4 1_555 1_555
C27_4 N7_4 1_555 1_555
N7_4 Zn1_4 1_555 1_555
C72_4 N12_4 1_555 1_555

#END
