
###############################################################################
#
# This file contains modified crystal structure data generated from the
# MOF subset of the Cambridge Structural Database (CSD) v543 
# hosted by the Cambridge Crystallographic Data Centre (CCDC).
#
# This work is licensed under the Creative Commons
# Attribution-NonCommercial-ShareAlike 4.0 International License.
# To view a copy of this license, visit
# http://creativecommons.org/licenses/by-nc-sa/4.0/
# or send a letter to
# Creative Commons, PO Box 1866, Mountain View, CA 94042, USA.
#
# CIF created using the CSD Python API on 29 September 2022
# The structure has been converted into the P1 space group
# The structure has a 3D framework
# The original CSD entry OLUHAG is in the monoclinic crystal system
# The framework has been calculated to contain at least 10.0% void space
# The void calculation uses a probe of radius 1.32A, grid spacing 0.4
#
###############################################################################

data_OLUHAG
_chemical_formula_moiety         '(C40 H20 Cu4 N12 O16)n'
_symmetry_cell_setting           triclinic
_symmetry_space_group_name_H-M   'P 1'
_symmetry_Int_Tables_number      1
_space_group_name_Hall           'P 1'
loop_
_symmetry_equiv_pos_site_id
_symmetry_equiv_pos_as_xyz
1 x,y,z
_cell_length_a                   10.9121(3)
_cell_length_b                   11.8420(3)
_cell_length_c                   14.5557(5)
_cell_angle_alpha                90
_cell_angle_beta                 109.471(3)
_cell_angle_gamma                90
_cell_volume                     1773.34
loop_
_atom_site_label
_atom_site_type_symbol
_atom_site_fract_x
_atom_site_fract_y
_atom_site_fract_z
Cu2 Cu 0.09700(4) 0.57655(4) 0.02556(3)
Cu6 Cu 0.09700(4) 0.92345(4) 0.52556(3)
Cu3 Cu 0.90300(4) 0.07655(4) 0.47444(3)
O1 O 0.8251(2) 0.9735(2) 0.36402(18)
O2 O 0.8243(2) 0.5198(2) 0.04991(19)
O3 O 0.9901(2) 0.8503(2) 0.40395(18)
O4 O 0.9888(2) 0.6441(2) 0.09560(19)
N1 N 0.2648(2) 0.6861(2) 0.0692(2)
N2 N 0.4660(2) 0.7428(2) 0.1225(2)
N3 N 0.2640(3) 0.8021(3) 0.0785(3)
C1 C 0.6070(3) 0.7431(3) 0.1560(2)
C2 C 0.6711(3) 0.6727(3) 0.1121(2)
H1 H 0.6251 0.6236 0.0628
C3 C 0.8737(3) 0.7463(3) 0.2207(2)
H2 H 0.9640 0.7476 0.2422
C4 C 0.8791(3) 0.6077(3) 0.0919(2)
C5 C 0.8061(3) 0.6764(3) 0.1433(2)
C6 C 0.8797(3) 0.8846(3) 0.3515(2)
C7 C 0.3847(3) 0.6520(3) 0.0957(2)
H3 H 0.4111 0.5773 0.0964
C8 C 0.6727(3) 0.8127(3) 0.2333(3)
H4 H 0.6272 0.8580 0.2631
C9 C 0.3863(3) 0.8334(3) 0.1114(4)
H5 H 0.4145 0.9075 0.1251
C10 C 0.8076(3) 0.8133(3) 0.2656(2)
O5 O 0.1749(2) 0.4735(2) 0.13598(18)
Cu5 Cu 0.90300(4) 0.42345(4) 0.97444(3)
O6 O 0.1757(2) 0.4802(2) 0.95009(19)
O7 O 0.9901(2) 0.6497(2) 0.90395(18)
O7_2 O 0.0099(2) 0.1497(2) 0.59605(18)
O8 O 0.0112(2) 0.1441(2) 0.40440(19)
O2_2 O 0.1757(2) 0.0198(2) 0.45009(19)
O3_2 O 0.0099(2) 0.3503(2) 0.09605(18)
N1_2 N 0.7352(2) 0.1861(2) 0.4308(2)
N2_2 N 0.5340(2) 0.2428(2) 0.3775(2)
N3_2 N 0.7360(3) 0.3021(3) 0.4215(3)
C1_2 C 0.3930(3) 0.2431(3) 0.3440(2)
C2_2 C 0.3289(3) 0.1727(3) 0.3879(2)
H1_2 H 0.3749 0.1236 0.4372
C3_2 C 0.1263(3) 0.2463(3) 0.2793(2)
H2_2 H 0.0360 0.2476 0.2578
C4_2 C 0.1209(3) 0.1077(3) 0.4081(2)
C5_2 C 0.1939(3) 0.1764(3) 0.3567(2)
C6_2 C 0.1203(3) 0.3846(3) 0.1485(2)
C7_2 C 0.6153(3) 0.1520(3) 0.4043(2)
H3_2 H 0.5889 0.0773 0.4036
C8_2 C 0.3273(3) 0.3127(3) 0.2667(3)
H4_2 H 0.3728 0.3580 0.2369
C9_2 C 0.6137(3) 0.3334(3) 0.3886(4)
H5_2 H 0.5855 0.4075 0.3749
C10_2 C 0.1924(3) 0.3133(3) 0.2344(2)
O6_2 O 0.8243(2) 0.9802(2) 0.54991(19)
O8_2 O 0.0112(2) 0.3559(2) 0.90440(19)
O1_2 O 0.1749(2) 0.0265(2) 0.63598(18)
N1_3 N 0.7352(2) 0.3139(2) 0.9308(2)
N2_3 N 0.5340(2) 0.2572(2) 0.8775(2)
N3_3 N 0.7360(3) 0.1979(3) 0.9215(3)
C1_3 C 0.3930(3) 0.2569(3) 0.8440(2)
C2_3 C 0.3289(3) 0.3273(3) 0.8879(2)
H1_3 H 0.3749 0.3764 0.9372
C3_3 C 0.1263(3) 0.2537(3) 0.7793(2)
H2_3 H 0.0360 0.2524 0.7578
C4_3 C 0.1209(3) 0.3923(3) 0.9081(2)
C5_3 C 0.1939(3) 0.3236(3) 0.8567(2)
C6_3 C 0.1203(3) 0.1154(3) 0.6485(2)
C7_3 C 0.6153(3) 0.3480(3) 0.9043(2)
H3_3 H 0.5889 0.4227 0.9036
C8_3 C 0.3273(3) 0.1873(3) 0.7667(3)
H4_3 H 0.3728 0.1420 0.7369
C9_3 C 0.6137(3) 0.1666(3) 0.8886(4)
H5_3 H 0.5855 0.0925 0.8749
C10_3 C 0.1924(3) 0.1867(3) 0.7344(2)
O5_2 O 0.8251(2) 0.5265(2) 0.86402(18)
O4_2 O 0.9888(2) 0.8559(2) 0.59560(19)
N1_4 N 0.2648(2) 0.8139(2) 0.5692(2)
N2_4 N 0.4660(2) 0.7572(2) 0.6225(2)
N3_4 N 0.2640(3) 0.6979(3) 0.5785(3)
C1_4 C 0.6070(3) 0.7569(3) 0.6560(2)
C2_4 C 0.6711(3) 0.8273(3) 0.6121(2)
H1_4 H 0.6251 0.8764 0.5628
C3_4 C 0.8737(3) 0.7537(3) 0.7207(2)
H2_4 H 0.9640 0.7524 0.7422
C4_4 C 0.8791(3) 0.8923(3) 0.5919(2)
C5_4 C 0.8061(3) 0.8236(3) 0.6433(2)
C6_4 C 0.8797(3) 0.6154(3) 0.8515(2)
C7_4 C 0.3847(3) 0.8480(3) 0.5957(2)
H3_4 H 0.4111 0.9227 0.5964
C8_4 C 0.6727(3) 0.6873(3) 0.7333(3)
H4_4 H 0.6272 0.6420 0.7631
C9_4 C 0.3863(3) 0.6666(3) 0.6114(4)
H5_4 H 0.4145 0.5925 0.6251
C10_4 C 0.8076(3) 0.6867(3) 0.7656(2)
loop_
_geom_bond_atom_site_label_1
_geom_bond_atom_site_label_2
_geom_bond_site_symmetry_1
_geom_bond_site_symmetry_2
Cu2 N1 1_555 1_555
O1 C6 1_555 1_555
O2 C4 1_555 1_555
O3 C6 1_555 1_555
O4 C4 1_555 1_555
N1 N3 1_555 1_555
N2 C1 1_555 1_555
N3 C9 1_555 1_555
C1 C2 1_555 1_555
C2 H1 1_555 1_555
C3 H2 1_555 1_555
C4 C5 1_555 1_555
C5 C2 1_555 1_555
C6 C10 1_555 1_555
C7 N1 1_555 1_555
H3 C7 1_555 1_555
C8 C1 1_555 1_555
H4 C8 1_555 1_555
C9 N2 1_555 1_555
H5 C9 1_555 1_555
C10 C3 1_555 1_555
O5 Cu2 1_555 1_555
N2 C7 1_555 1_555
C3 C5 1_555 1_555
C8 C10 1_555 1_555
Cu3 N1_2 1_555 1_555
O5 C6_2 1_555 1_555
O2_2 C4_2 1_555 1_555
O3_2 C6_2 1_555 1_555
O8 C4_2 1_555 1_555
N1_2 N3_2 1_555 1_555
N2_2 C1_2 1_555 1_555
N3_2 C9_2 1_555 1_555
C1_2 C2_2 1_555 1_555
C2_2 H1_2 1_555 1_555
C3_2 H2_2 1_555 1_555
C4_2 C5_2 1_555 1_555
C5_2 C2_2 1_555 1_555
C6_2 C10_2 1_555 1_555
C7_2 N1_2 1_555 1_555
H3_2 C7_2 1_555 1_555
C8_2 C1_2 1_555 1_555
H4_2 C8_2 1_555 1_555
C9_2 N2_2 1_555 1_555
H5_2 C9_2 1_555 1_555
C10_2 C3_2 1_555 1_555
N2_2 C7_2 1_555 1_555
C3_2 C5_2 1_555 1_555
C8_2 C10_2 1_555 1_555
Cu5 N1_3 1_555 1_555
O1_2 C6_3 1_555 1_555
O6 C4_3 1_555 1_555
O7_2 C6_3 1_555 1_555
O8_2 C4_3 1_555 1_555
N1_3 N3_3 1_555 1_555
N2_3 C1_3 1_555 1_555
N3_3 C9_3 1_555 1_555
C1_3 C2_3 1_555 1_555
C2_3 H1_3 1_555 1_555
C3_3 H2_3 1_555 1_555
C4_3 C5_3 1_555 1_555
C5_3 C2_3 1_555 1_555
C6_3 C10_3 1_555 1_555
C7_3 N1_3 1_555 1_555
H3_3 C7_3 1_555 1_555
C8_3 C1_3 1_555 1_555
H4_3 C8_3 1_555 1_555
C9_3 N2_3 1_555 1_555
H5_3 C9_3 1_555 1_555
C10_3 C3_3 1_555 1_555
O5_2 Cu5 1_555 1_555
N2_3 C7_3 1_555 1_555
C3_3 C5_3 1_555 1_555
C8_3 C10_3 1_555 1_555
Cu6 N1_4 1_555 1_555
O5_2 C6_4 1_555 1_555
O6_2 C4_4 1_555 1_555
O7 C6_4 1_555 1_555
O4_2 C4_4 1_555 1_555
N1_4 N3_4 1_555 1_555
N2_4 C1_4 1_555 1_555
N3_4 C9_4 1_555 1_555
C1_4 C2_4 1_555 1_555
C2_4 H1_4 1_555 1_555
C3_4 H2_4 1_555 1_555
C4_4 C5_4 1_555 1_555
C5_4 C2_4 1_555 1_555
C6_4 C10_4 1_555 1_555
C7_4 N1_4 1_555 1_555
H3_4 C7_4 1_555 1_555
C8_4 C1_4 1_555 1_555
H4_4 C8_4 1_555 1_555
C9_4 N2_4 1_555 1_555
H5_4 C9_4 1_555 1_555
C10_4 C3_4 1_555 1_555
N2_4 C7_4 1_555 1_555
C3_4 C5_4 1_555 1_555
C8_4 C10_4 1_555 1_555

#END
