
###############################################################################
#
# This file contains modified crystal structure data generated from the
# MOF subset of the Cambridge Structural Database (CSD) v543 
# hosted by the Cambridge Crystallographic Data Centre (CCDC).
#
# This work is licensed under the Creative Commons
# Attribution-NonCommercial-ShareAlike 4.0 International License.
# To view a copy of this license, visit
# http://creativecommons.org/licenses/by-nc-sa/4.0/
# or send a letter to
# Creative Commons, PO Box 1866, Mountain View, CA 94042, USA.
#
# CIF created using the CSD Python API on 29 September 2022
# The structure has been converted into the P1 space group
# The structure has a 3D framework
# The original CSD entry OMABEL is in the hexagonal crystal system
# The original CSD entry OMABEL is in a Sohncke space group
# The framework has been calculated to contain at least 10.0% void space
# The void calculation uses a probe of radius 1.32A, grid spacing 0.4
#
###############################################################################

data_OMABEL
_chemical_formula_moiety         '(C128 H156 B6 Cu12 N54 S18 W6)n'
_symmetry_cell_setting           triclinic
_symmetry_space_group_name_H-M   'P 1'
_symmetry_Int_Tables_number      1
_space_group_name_Hall           'P 1'
loop_
_symmetry_equiv_pos_site_id
_symmetry_equiv_pos_as_xyz
1 x,y,z
_cell_length_a                   23.2955(8)
_cell_length_b                   23.2955(8)
_cell_length_c                   12.7489(9)
_cell_angle_alpha                90
_cell_angle_beta                 90
_cell_angle_gamma                120
_cell_volume                     5991.66
loop_
_atom_site_label
_atom_site_type_symbol
_atom_site_fract_x
_atom_site_fract_y
_atom_site_fract_z
Cu3 Cu 0.03632(6) 0.57711(9) 0.05928(10)
S4 S 0.03640(14) 0.66744(21) 0.1063(2)
H35 H 0.2838(15) 0.8970(21) 0.009(2)
N14 N 0.0064(4) 0.5088(6) 0.1637(7)
N15 N 0.2402(4) 0.8002(6) 0.0841(7)
N16 N 0.1911(4) 0.7346(6) 0.0849(6)
N17 N 0.1765(5) 0.8510(7) 0.0117(9)
C36 C 0.3456(6) 0.8800(9) 0.1747(12)
H36 H 0.3758 0.8903 0.1152
H37 H 0.3679 0.8792 0.2394
H38 H 0.3325 0.9138 0.1804
C37 C 0.2847(5) 0.8129(8) 0.1579(9)
C38 C 0.2665(5) 0.7541(8) 0.2088(8)
H39 H 0.2894 0.7472 0.2646
C39 C 0.2085(5) 0.7075(7) 0.1623(6)
C40 C 0.1705(6) 0.6367(9) 0.1949(9)
H40 H 0.1248 0.6248 0.2115
H41 H 0.1913 0.6301 0.2569
H42 H 0.1704 0.6086 0.1375
C41 C 0.2249(8) 0.9692(11) 0.068(2)
H43 H 0.2494 0.9653 0.1278
H44 H 0.2087 0.9995 0.0867
H45 H 0.2543 0.9866 0.0073
C42 C 0.1678(8) 0.9028(11) 0.0427(17)
C43 C 0.1014(9) 0.8802(11) 0.0418(18)
H46 H 0.0801 0.9042 0.0621
C44 C 0.0714(6) 0.8161(8) 0.0059(11)
W2 W 0.10308(2) 0.69355(3) 0.96630(4)
Cu4 Cu 0.04212(7) 0.59248(10) 0.83813(10)
S5 S 0.12057(10) 0.60455(15) 0.94817(16)
S6 S 0.03647(15) 0.68385(23) 0.8338(3)
B2 B 0.2389(6) 0.8452(9) 0.9999(11)
N18 N 0.1164(4) 0.7956(6) 0.9944(8)
N19 N 0.2409(5) 0.8181(9) 0.8922(8)
N20 N 0.1925(5) 0.7538(9) 0.8631(8)
C46 C 0.3466(8) 0.9120(14) 0.8293(15)
H50 H 0.3332 0.9457 0.8284
H51 H 0.3766 0.9195 0.7704
H52 H 0.3693 0.9148 0.8954
C47 C 0.2883(7) 0.8466(12) 0.8197(11)
C48 C 0.2708(9) 0.8010(17) 0.7414(14)
H53 H 0.2956 0.8062 0.6794
C49 C 0.2094(6) 0.7447(10) 0.7683(9)
C50 C 0.1739(9) 0.6842(16) 0.7062(13)
H54 H 0.1750 0.6477 0.7426
H55 H 0.1951 0.6909 0.6374
H56 H 0.1278 0.6733 0.6969
C68 C 0.0113(5) 0.5289(7) 0.7273(8)
C1 C 0.4824(5) 0.0113(5) 0.2273(8)
H17 H 0.8215 0.0259 0.0113
H18 H 0.7502 0.0195 0.0256
C35 C 0.9887(5) 0.4711(7) 0.2273(8)
H47 H 0.9741 0.7956 0.0113
H48 H 0.9805 0.7307 0.0256
Cu5 Cu 0.42289(9) 0.45921(7) 0.05928(10)
S7 S 0.33256(21) 0.36896(15) 0.1063(2)
H57 H 0.1030(21) 0.3868(14) 0.009(2)
N21 N 0.4912(6) 0.4976(5) 0.1637(7)
N22 N 0.1998(6) 0.4400(5) 0.0841(7)
N23 N 0.2654(6) 0.4565(5) 0.0849(6)
N24 N 0.1490(7) 0.3255(5) 0.0117(9)
C51 C 0.5289(7) 0.5176(5) 0.2273(8)
C52 C 0.1200(9) 0.4656(7) 0.1747(12)
H58 H 0.1097 0.4855 0.1152
H59 H 0.1208 0.4887 0.2394
H60 H 0.0862 0.4187 0.1804
C53 C 0.1871(8) 0.4718(6) 0.1579(9)
C54 C 0.2459(8) 0.5124(6) 0.2088(8)
H61 H 0.2528 0.5422 0.2646
C55 C 0.2925(7) 0.5010(5) 0.1623(6)
C56 C 0.3633(9) 0.5338(7) 0.1949(9)
H62 H 0.3752 0.5000 0.2115
H63 H 0.3699 0.5612 0.2569
H64 H 0.3914 0.5618 0.1375
C57 C 0.0308(11) 0.2557(8) 0.068(2)
H65 H 0.0347 0.2841 0.1278
H66 H 0.0005 0.2092 0.0867
H67 H 0.0134 0.2677 0.0073
C58 C 0.0972(11) 0.2650(8) 0.0427(17)
C59 C 0.1198(11) 0.2212(7) 0.0418(18)
H68 H 0.0958 0.1759 0.0621
C60 C 0.1839(8) 0.2553(6) 0.0059(11)
H69 H 0.2044 0.1785 0.0113
H70 H 0.2693 0.2498 0.0256
Cu7 Cu 0.44964(7) 0.04212(7) 0.33813(10)
Cu8 Cu 0.95788(7) 0.40752(10) 0.33813(10)
Cu9 Cu 0.59248(10) 0.55036(7) 0.33813(10)
N2 N 0.5801(3) 0.0630(3) 0.9617(11)
N3 N 0.6005(3) 0.2879(3) 0.9671(8)
C2 C 0.6452(4) 0.1076(4) 0.9659(11)
H2 H 0.6760 0.0922 0.9673
C3 C 0.6688(3) 0.1749(4) 0.9684(10)
H3 H 0.7152 0.2051 0.9726
C4 C 0.6245(3) 0.1984(3) 0.9647(9)
C5 C 0.5571(3) 0.1520(3) 0.9600(9)
H4 H 0.5249 0.1658 0.9593
C6 C 0.5380(4) 0.0854(4) 0.9564(10)
H5 H 0.4921 0.0541 0.9499
C7 C 0.6470(3) 0.2706(3) 0.9671(9)
C17 C 0.7754(7) 0.0030(7) 0.987(2)
H19 H 0.7742 0.0112 0.9118
N10 N 0.9370(3) 0.5171(4) 0.9617(11)
N11 N 0.7121(3) 0.3126(4) 0.9671(8)
C23 C 0.8924(4) 0.5376(6) 0.9659(11)
H27 H 0.9078 0.5838 0.9673
C24 C 0.8251(4) 0.4939(5) 0.9684(10)
H28 H 0.7949 0.5101 0.9726
C25 C 0.8016(3) 0.4261(4) 0.9647(9)
C26 C 0.8480(3) 0.4051(4) 0.9600(9)
H29 H 0.8342 0.3591 0.9593
C27 C 0.9146(4) 0.4526(6) 0.9564(10)
H30 H 0.9459 0.4380 0.9499
C28 C 0.7294(3) 0.3764(4) 0.9671(9)
N12 N 0.4829(4) 0.4199(3) 0.9617(11)
N13 N 0.6874(4) 0.3995(3) 0.9671(8)
C29 C 0.4624(6) 0.3548(4) 0.9659(11)
H31 H 0.4162 0.3240 0.9673
C30 C 0.5061(5) 0.3312(3) 0.9684(10)
H32 H 0.4899 0.2848 0.9726
C31 C 0.5739(4) 0.3755(3) 0.9647(9)
C32 C 0.5949(4) 0.4429(3) 0.9600(9)
H33 H 0.6409 0.4751 0.9593
C33 C 0.5474(6) 0.4620(4) 0.9564(10)
H34 H 0.5620 0.5079 0.9499
C34 C 0.6236(4) 0.3530(3) 0.9671(9)
C45 C 0.9970(7) 0.7724(10) 0.987(2)
H49 H 0.9888 0.7630 0.9118
W3 W 0.30645(3) 0.40953(2) 0.96630(4)
Cu6 Cu 0.40752(10) 0.44964(7) 0.83813(10)
S8 S 0.39545(15) 0.51602(11) 0.94817(16)
S9 S 0.31615(23) 0.35262(17) 0.8338(3)
B3 B 0.1548(9) 0.3937(7) 0.9999(11)
N25 N 0.2044(6) 0.3208(4) 0.9944(8)
N26 N 0.1819(9) 0.4228(7) 0.8922(8)
N27 N 0.2462(9) 0.4387(7) 0.8631(8)
C61 C 0.2276(10) 0.2246(7) 0.987(2)
H71 H 0.2370 0.2258 0.9118
C62 C 0.0880(14) 0.4346(12) 0.8293(15)
H72 H 0.0543 0.3875 0.8284
H73 H 0.0805 0.4571 0.7704
H74 H 0.0852 0.4545 0.8954
C63 C 0.1534(12) 0.4417(10) 0.8197(11)
C64 C 0.1990(17) 0.4698(14) 0.7414(14)
H75 H 0.1938 0.4894 0.6794
C65 C 0.2553(10) 0.4647(8) 0.7683(9)
C66 C 0.3158(16) 0.4897(13) 0.7062(13)
H76 H 0.3523 0.5273 0.7426
H77 H 0.3091 0.5042 0.6374
H78 H 0.3267 0.4545 0.6969
C69 C 0.4711(7) 0.4824(5) 0.7273(8)
W1 W 0.59047(2) 0.89692(2) 0.96630(4)
Cu2 Cu 0.55036(7) 0.95788(7) 0.83813(10)
S2 S 0.48398(11) 0.87943(10) 0.94817(16)
S3 S 0.64738(17) 0.96353(15) 0.8338(3)
B1 B 0.6063(7) 0.7611(6) 0.9999(11)
N7 N 0.6792(4) 0.8836(4) 0.9944(8)
N8 N 0.5772(7) 0.7591(5) 0.8922(8)
N9 N 0.5613(7) 0.8075(5) 0.8631(8)
C18 C 0.5654(12) 0.6534(8) 0.8293(15)
H20 H 0.6125 0.6668 0.8284
H21 H 0.5429 0.6234 0.7704
H22 H 0.5455 0.6307 0.8954
C19 C 0.5583(10) 0.7117(7) 0.8197(11)
C20 C 0.5302(14) 0.7292(9) 0.7414(14)
H23 H 0.5106 0.7044 0.6794
C21 C 0.5353(8) 0.7906(6) 0.7683(9)
C22 C 0.5103(13) 0.8261(9) 0.7062(13)
H24 H 0.4727 0.8250 0.7426
H25 H 0.4958 0.8049 0.6374
H26 H 0.5455 0.8722 0.6969
C67 C 0.5176(5) 0.9887(5) 0.7273(8)
W1_2 W 0.40953(2) 0.10308(2) 0.46630(4)
Cu1 Cu 0.45921(7) 0.03632(6) 0.55928(10)
S1 S 0.36896(15) 0.03640(14) 0.6063(2)
S2_2 S 0.51602(11) 0.12057(10) 0.44817(16)
S3_2 S 0.35262(17) 0.03647(15) 0.3338(3)
B1_2 B 0.3937(7) 0.2389(6) 0.4999(11)
H1 H 0.3868(14) 0.2838(15) 0.509(2)
N1 N 0.4976(5) 0.0064(4) 0.6637(7)
N4 N 0.4400(5) 0.2402(4) 0.5841(7)
N5 N 0.4565(5) 0.1911(4) 0.5849(6)
N6 N 0.3255(5) 0.1765(5) 0.5117(9)
N7_2 N 0.3208(4) 0.1164(4) 0.4944(8)
N8_2 N 0.4228(7) 0.2409(5) 0.3922(8)
N9_2 N 0.4387(7) 0.1925(5) 0.3631(8)
C8 C 0.4656(7) 0.3456(6) 0.6747(12)
H6 H 0.4855 0.3758 0.6152
H7 H 0.4887 0.3679 0.7394
H8 H 0.4187 0.3325 0.6804
C9 C 0.4718(6) 0.2847(5) 0.6579(9)
C10 C 0.5124(6) 0.2665(5) 0.7088(8)
H9 H 0.5422 0.2894 0.7646
C11 C 0.5010(5) 0.2085(5) 0.6623(6)
C12 C 0.5338(7) 0.1705(6) 0.6949(9)
H10 H 0.5000 0.1248 0.7115
H11 H 0.5612 0.1913 0.7569
H12 H 0.5618 0.1704 0.6375
C13 C 0.2557(8) 0.2249(8) 0.568(2)
H13 H 0.2841 0.2494 0.6278
H14 H 0.2092 0.2087 0.5867
H15 H 0.2677 0.2543 0.5073
C14 C 0.2650(8) 0.1678(8) 0.5427(17)
C15 C 0.2212(7) 0.1014(9) 0.5418(18)
H16 H 0.1759 0.0801 0.5621
C16 C 0.2553(6) 0.0714(6) 0.5059(11)
C18_2 C 0.4346(12) 0.3466(8) 0.3293(15)
H20_2 H 0.3875 0.3332 0.3284
H21_2 H 0.4571 0.3766 0.2704
H22_2 H 0.4545 0.3693 0.3954
C19_2 C 0.4417(10) 0.2883(7) 0.3197(11)
C20_2 C 0.4698(14) 0.2708(9) 0.2414(14)
H23_2 H 0.4894 0.2956 0.1794
C21_2 C 0.4647(8) 0.2094(6) 0.2683(9)
C22_2 C 0.4897(13) 0.1739(9) 0.2062(13)
H24_2 H 0.5273 0.1750 0.2426
H25_2 H 0.5042 0.1951 0.1374
H26_2 H 0.4545 0.1278 0.1969
N2_2 N 0.4199(3) 0.9370(3) 0.4617(11)
N3_2 N 0.3995(3) 0.7121(3) 0.4671(8)
C2_2 C 0.3548(4) 0.8924(4) 0.4659(11)
H2_2 H 0.3240 0.9078 0.4673
C3_2 C 0.3312(3) 0.8251(4) 0.4684(10)
H3_2 H 0.2848 0.7949 0.4726
C4_2 C 0.3755(3) 0.8016(3) 0.4647(9)
C5_2 C 0.4429(3) 0.8480(3) 0.4600(9)
H4_2 H 0.4751 0.8342 0.4593
C6_2 C 0.4620(4) 0.9146(4) 0.4564(10)
H5_2 H 0.5079 0.9459 0.4499
C7_2 C 0.3530(3) 0.7294(3) 0.4671(9)
C17_2 C 0.2246(7) 0.9970(7) 0.487(2)
H17_2 H 0.1785 0.9741 0.5113
H18_2 H 0.2498 0.9805 0.5256
H19_2 H 0.2258 0.9888 0.4118
N10_2 N 0.0630(3) 0.4829(4) 0.4617(11)
N11_2 N 0.2879(3) 0.6874(4) 0.4671(8)
C23_2 C 0.1076(4) 0.4624(6) 0.4659(11)
H27_2 H 0.0922 0.4162 0.4673
C24_2 C 0.1749(4) 0.5061(5) 0.4684(10)
H28_2 H 0.2051 0.4899 0.4726
C25_2 C 0.1984(3) 0.5739(4) 0.4647(9)
C26_2 C 0.1520(3) 0.5949(4) 0.4600(9)
H29_2 H 0.1658 0.6409 0.4593
C27_2 C 0.0854(4) 0.5474(6) 0.4564(10)
H30_2 H 0.0541 0.5620 0.4499
C28_2 C 0.2706(3) 0.6236(4) 0.4671(9)
N12_2 N 0.5171(4) 0.5801(3) 0.4617(11)
N13_2 N 0.3126(4) 0.6005(3) 0.4671(8)
C29_2 C 0.5376(6) 0.6452(4) 0.4659(11)
H31_2 H 0.5838 0.6760 0.4673
C30_2 C 0.4939(5) 0.6688(3) 0.4684(10)
H32_2 H 0.5101 0.7152 0.4726
C31_2 C 0.4261(4) 0.6245(3) 0.4647(9)
C32_2 C 0.4051(4) 0.5571(3) 0.4600(9)
H33_2 H 0.3591 0.5249 0.4593
C33_2 C 0.4526(6) 0.5380(4) 0.4564(10)
H34_2 H 0.4380 0.4921 0.4499
C34_2 C 0.3764(4) 0.6470(3) 0.4671(9)
C45_2 C 0.0030(7) 0.2276(10) 0.487(2)
H47_2 H 0.0259 0.2044 0.5113
H48_2 H 0.0195 0.2693 0.5256
H49_2 H 0.0112 0.2370 0.4118
W3_2 W 0.69355(3) 0.59047(2) 0.46630(4)
Cu5_2 Cu 0.57711(9) 0.54079(7) 0.55928(10)
S7_2 S 0.66744(21) 0.63104(15) 0.6063(2)
S8_2 S 0.60455(15) 0.48398(11) 0.44817(16)
S9_2 S 0.68385(23) 0.64738(17) 0.3338(3)
B3_2 B 0.8452(9) 0.6063(7) 0.4999(11)
H57_2 H 0.8970(21) 0.6132(14) 0.509(2)
N21_2 N 0.5088(6) 0.5024(5) 0.6637(7)
N22_2 N 0.8002(6) 0.5600(5) 0.5841(7)
N23_2 N 0.7346(6) 0.5435(5) 0.5849(6)
N24_2 N 0.8510(7) 0.6745(5) 0.5117(9)
N25_2 N 0.7956(6) 0.6792(4) 0.4944(8)
N26_2 N 0.8181(9) 0.5772(7) 0.3922(8)
N27_2 N 0.7538(9) 0.5613(7) 0.3631(8)
C52_2 C 0.8800(9) 0.5344(7) 0.6747(12)
H58_2 H 0.8903 0.5145 0.6152
H59_2 H 0.8792 0.5113 0.7394
H60_2 H 0.9138 0.5813 0.6804
C53_2 C 0.8129(8) 0.5282(6) 0.6579(9)
C54_2 C 0.7541(8) 0.4876(6) 0.7088(8)
H61_2 H 0.7472 0.4578 0.7646
C55_2 C 0.7075(7) 0.4990(5) 0.6623(6)
C56_2 C 0.6367(9) 0.4662(7) 0.6949(9)
H62_2 H 0.6248 0.5000 0.7115
H63_2 H 0.6301 0.4388 0.7569
H64_2 H 0.6086 0.4382 0.6375
C57_2 C 0.9692(11) 0.7443(8) 0.568(2)
H65_2 H 0.9653 0.7159 0.6278
H66_2 H 0.9995 0.7908 0.5867
H67_2 H 0.9866 0.7323 0.5073
C58_2 C 0.9028(11) 0.7350(8) 0.5427(17)
C59_2 C 0.8802(11) 0.7788(7) 0.5418(18)
H68_2 H 0.9042 0.8241 0.5621
C60_2 C 0.8161(8) 0.7447(6) 0.5059(11)
C61_2 C 0.7724(10) 0.7754(7) 0.487(2)
H69_2 H 0.7956 0.8215 0.5113
H70_2 H 0.7307 0.7502 0.5256
H71_2 H 0.7630 0.7742 0.4118
C62_2 C 0.9120(14) 0.5654(12) 0.3293(15)
H72_2 H 0.9457 0.6125 0.3284
H73_2 H 0.9195 0.5429 0.2704
H74_2 H 0.9148 0.5455 0.3954
C63_2 C 0.8466(12) 0.5583(10) 0.3197(11)
C64_2 C 0.8010(17) 0.5302(14) 0.2414(14)
H75_2 H 0.8062 0.5106 0.1794
C65_2 C 0.7447(10) 0.5353(8) 0.2683(9)
C66_2 C 0.6842(16) 0.5103(13) 0.2062(13)
H76_2 H 0.6477 0.4727 0.2426
H77_2 H 0.6909 0.4958 0.1374
H78_2 H 0.6733 0.5455 0.1969
W2_2 W 0.89692(2) 0.30645(3) 0.46630(4)
Cu3_2 Cu 0.96368(6) 0.42289(9) 0.55928(10)
S4_2 S 0.96360(14) 0.33256(21) 0.6063(2)
S5_2 S 0.87943(10) 0.39545(15) 0.44817(16)
S6_2 S 0.96353(15) 0.31615(23) 0.3338(3)
B2_2 B 0.7611(6) 0.1548(9) 0.4999(11)
H35_2 H 0.7162(15) 0.1030(21) 0.509(2)
N14_2 N 0.9936(4) 0.4912(6) 0.6637(7)
N15_2 N 0.7598(4) 0.1998(6) 0.5841(7)
N16_2 N 0.8089(4) 0.2654(6) 0.5849(6)
N17_2 N 0.8235(5) 0.1490(7) 0.5117(9)
N18_2 N 0.8836(4) 0.2044(6) 0.4944(8)
N19_2 N 0.7591(5) 0.1819(9) 0.3922(8)
N20_2 N 0.8075(5) 0.2462(9) 0.3631(8)
C36_2 C 0.6544(6) 0.1200(9) 0.6747(12)
H36_2 H 0.6242 0.1097 0.6152
H37_2 H 0.6321 0.1208 0.7394
H38_2 H 0.6675 0.0862 0.6804
C37_2 C 0.7153(5) 0.1871(8) 0.6579(9)
C38_2 C 0.7335(5) 0.2459(8) 0.7088(8)
H39_2 H 0.7106 0.2528 0.7646
C39_2 C 0.7915(5) 0.2925(7) 0.6623(6)
C40_2 C 0.8295(6) 0.3633(9) 0.6949(9)
H40_2 H 0.8752 0.3752 0.7115
H41_2 H 0.8087 0.3699 0.7569
H42_2 H 0.8296 0.3914 0.6375
C41_2 C 0.7751(8) 0.0308(11) 0.568(2)
H43_2 H 0.7506 0.0347 0.6278
H44_2 H 0.7913 0.0005 0.5867
H45_2 H 0.7457 0.0134 0.5073
C42_2 C 0.8322(8) 0.0972(11) 0.5427(17)
C43_2 C 0.8986(9) 0.1198(11) 0.5418(18)
H46_2 H 0.9199 0.0958 0.5621
C44_2 C 0.9286(6) 0.1839(8) 0.5059(11)
C46_2 C 0.6534(8) 0.0880(14) 0.3293(15)
H50_2 H 0.6668 0.0543 0.3284
H51_2 H 0.6234 0.0805 0.2704
H52_2 H 0.6307 0.0852 0.3954
C47_2 C 0.7117(7) 0.1534(12) 0.3197(11)
C48_2 C 0.7292(9) 0.1990(17) 0.2414(14)
H53_2 H 0.7044 0.1938 0.1794
C49_2 C 0.7906(6) 0.2553(10) 0.2683(9)
C50_2 C 0.8261(9) 0.3158(16) 0.2062(13)
H54_2 H 0.8250 0.3523 0.2426
H55_2 H 0.8049 0.3091 0.1374
H56_2 H 0.8722 0.3267 0.1969
Cu1_2 Cu 0.54079(7) 0.96368(6) 0.05928(10)
S1_2 S 0.63104(15) 0.96360(14) 0.1063(2)
H1_2 H 0.6132(14) 0.7162(15) 0.009(2)
N1_2 N 0.5024(5) 0.9936(4) 0.1637(7)
N4_2 N 0.5600(5) 0.7598(4) 0.0841(7)
N5_2 N 0.5435(5) 0.8089(4) 0.0849(6)
N6_2 N 0.6745(5) 0.8235(5) 0.0117(9)
C8_2 C 0.5344(7) 0.6544(6) 0.1747(12)
H6_2 H 0.5145 0.6242 0.1152
H7_2 H 0.5113 0.6321 0.2394
H8_2 H 0.5813 0.6675 0.1804
C9_2 C 0.5282(6) 0.7153(5) 0.1579(9)
C10_2 C 0.4876(6) 0.7335(5) 0.2088(8)
H9_2 H 0.4578 0.7106 0.2646
C11_2 C 0.4990(5) 0.7915(5) 0.1623(6)
C12_2 C 0.4662(7) 0.8295(6) 0.1949(9)
H10_2 H 0.5000 0.8752 0.2115
H11_2 H 0.4388 0.8087 0.2569
H12_2 H 0.4382 0.8296 0.1375
C13_2 C 0.7443(8) 0.7751(8) 0.068(2)
H13_2 H 0.7159 0.7506 0.1278
H14_2 H 0.7908 0.7913 0.0867
H15_2 H 0.7323 0.7457 0.0073
C14_2 C 0.7350(8) 0.8322(8) 0.0427(17)
C15_2 C 0.7788(7) 0.8986(9) 0.0418(18)
H16_2 H 0.8241 0.9199 0.0621
C16_2 C 0.7447(6) 0.9286(6) 0.0059(11)
loop_
_geom_bond_atom_site_label_1
_geom_bond_atom_site_label_2
_geom_bond_site_symmetry_1
_geom_bond_site_symmetry_2
S4 Cu3 1_555 1_555
N14 Cu3 1_555 1_555
C36 H36 1_555 1_555
H37 C36 1_555 1_555
H38 C36 1_555 1_555
C37 N15 1_555 1_555
C38 C37 1_555 1_555
H39 C38 1_555 1_555
C39 N16 1_555 1_555
C40 C39 1_555 1_555
H40 C40 1_555 1_555
H41 C40 1_555 1_555
H42 C40 1_555 1_555
C41 H43 1_555 1_555
H44 C41 1_555 1_555
H45 C41 1_555 1_555
C42 N17 1_555 1_555
C43 C42 1_555 1_555
H46 C43 1_555 1_555
N15 N16 1_555 1_555
C36 C37 1_555 1_555
C38 C39 1_555 1_555
C41 C42 1_555 1_555
C43 C44 1_555 1_555
S5 W2 1_555 1_555
S6 W2 1_555 1_555
N18 W2 1_555 1_555
N19 B2 1_555 1_555
N20 W2 1_555 1_555
C46 H50 1_555 1_555
H51 C46 1_555 1_555
H52 C46 1_555 1_555
C47 N19 1_555 1_555
C48 C47 1_555 1_555
H53 C48 1_555 1_555
C49 N20 1_555 1_555
C50 C49 1_555 1_555
H54 C50 1_555 1_555
H55 C50 1_555 1_555
H56 C50 1_555 1_555
C68 Cu4 1_555 1_555
Cu4 S5 1_555 1_555
Cu4 S6 1_555 1_555
N19 N20 1_555 1_555
C46 C47 1_555 1_555
C48 C49 1_555 1_555
S7 Cu5 1_555 1_555
N21 Cu5 1_555 1_555
C51 N21 1_555 1_555
C52 H58 1_555 1_555
H59 C52 1_555 1_555
H60 C52 1_555 1_555
C53 N22 1_555 1_555
C54 C53 1_555 1_555
H61 C54 1_555 1_555
C55 N23 1_555 1_555
C56 C55 1_555 1_555
H62 C56 1_555 1_555
H63 C56 1_555 1_555
H64 C56 1_555 1_555
C57 H65 1_555 1_555
H66 C57 1_555 1_555
H67 C57 1_555 1_555
C58 N24 1_555 1_555
C59 C58 1_555 1_555
H68 C59 1_555 1_555
Cu7 C1 1_555 1_555
Cu8 C35 1_555 1_555
Cu9 C51 1_555 1_555
N22 N23 1_555 1_555
C52 C53 1_555 1_555
C54 C55 1_555 1_555
C57 C58 1_555 1_555
C59 C60 1_555 1_555
N3 C7 1_555 1_555
C2 N2 1_555 1_555
H2 C2 1_555 1_555
C3 C2 1_555 1_555
H3 C3 1_555 1_555
C4 C3 1_555 1_555
C5 C4 1_555 1_555
H4 C5 1_555 1_555
C6 N2 1_555 1_555
H5 C6 1_555 1_555
C7 C4 1_555 1_555
H19 C17 1_555 1_555
N10 C23 1_555 1_555
N11 C7 1_555 1_555
C23 H27 1_555 1_555
C24 C23 1_555 1_555
H28 C24 1_555 1_555
C25 C24 1_555 1_555
C26 C25 1_555 1_555
H29 C26 1_555 1_555
C27 N10 1_555 1_555
H30 C27 1_555 1_555
C28 N11 1_555 1_555
N12 C29 1_555 1_555
N13 C28 1_555 1_555
C29 H31 1_555 1_555
C30 C29 1_555 1_555
H32 C30 1_555 1_555
C31 C30 1_555 1_555
C32 C31 1_555 1_555
H33 C32 1_555 1_555
C33 N12 1_555 1_555
H34 C33 1_555 1_555
C34 N3 1_555 1_555
H49 C45 1_555 1_555
Cu6 N12 1_555 1_555
S8 W3 1_555 1_555
S9 W3 1_555 1_555
N25 W3 1_555 1_555
N26 B3 1_555 1_555
N27 W3 1_555 1_555
H71 C61 1_555 1_555
C62 H72 1_555 1_555
H73 C62 1_555 1_555
H74 C62 1_555 1_555
C63 N26 1_555 1_555
C64 C63 1_555 1_555
H75 C64 1_555 1_555
C65 N27 1_555 1_555
C66 C65 1_555 1_555
H76 C66 1_555 1_555
H77 C66 1_555 1_555
H78 C66 1_555 1_555
C69 Cu6 1_555 1_555
C5 C6 1_555 1_555
C25 C28 1_555 1_555
C26 C27 1_555 1_555
N13 C34 1_555 1_555
C31 C34 1_555 1_555
C32 C33 1_555 1_555
Cu6 S8 1_555 1_555
Cu6 S9 1_555 1_555
N26 N27 1_555 1_555
C62 C63 1_555 1_555
C64 C65 1_555 1_555
Cu2 S2 1_555 1_555
S2 W1 1_555 1_555
S3 W1 1_555 1_555
N7 W1 1_555 1_555
N8 B1 1_555 1_555
N9 W1 1_555 1_555
C18 H20 1_555 1_555
H21 C18 1_555 1_555
H22 C18 1_555 1_555
C19 N8 1_555 1_555
C20 C19 1_555 1_555
H23 C20 1_555 1_555
C21 N9 1_555 1_555
C22 C21 1_555 1_555
H24 C22 1_555 1_555
H25 C22 1_555 1_555
H26 C22 1_555 1_555
C67 Cu2 1_555 1_555
Cu2 S3 1_555 1_555
N8 N9 1_555 1_555
C18 C19 1_555 1_555
C20 C21 1_555 1_555
W1_2 S1 1_555 1_555
Cu1 S1 1_555 1_555
Cu7 S2_2 1_555 1_555
S2_2 W1_2 1_555 1_555
S3_2 W1_2 1_555 1_555
B1_2 H1 1_555 1_555
N1 Cu1 1_555 1_555
N4 B1_2 1_555 1_555
N5 W1_2 1_555 1_555
N6 B1_2 1_555 1_555
N7_2 W1_2 1_555 1_555
N8_2 B1_2 1_555 1_555
N9_2 W1_2 1_555 1_555
C8 H6 1_555 1_555
H7 C8 1_555 1_555
H8 C8 1_555 1_555
C9 N4 1_555 1_555
C10 C9 1_555 1_555
H9 C10 1_555 1_555
C11 N5 1_555 1_555
C12 C11 1_555 1_555
H10 C12 1_555 1_555
H11 C12 1_555 1_555
H12 C12 1_555 1_555
C13 H13 1_555 1_555
H14 C13 1_555 1_555
H15 C13 1_555 1_555
C14 N6 1_555 1_555
C15 C14 1_555 1_555
H16 C15 1_555 1_555
C16 N7_2 1_555 1_555
C18_2 H20_2 1_555 1_555
H21_2 C18_2 1_555 1_555
H22_2 C18_2 1_555 1_555
C19_2 N8_2 1_555 1_555
C20_2 C19_2 1_555 1_555
H23_2 C20_2 1_555 1_555
C21_2 N9_2 1_555 1_555
C22_2 C21_2 1_555 1_555
H24_2 C22_2 1_555 1_555
H25_2 C22_2 1_555 1_555
H26_2 C22_2 1_555 1_555
Cu1 S2_2 1_555 1_555
Cu7 S3_2 1_555 1_555
N4 N5 1_555 1_555
N6 N7_2 1_555 1_555
N8_2 N9_2 1_555 1_555
C8 C9 1_555 1_555
C10 C11 1_555 1_555
C13 C14 1_555 1_555
C15 C16 1_555 1_555
C18_2 C19_2 1_555 1_555
C20_2 C21_2 1_555 1_555
N3_2 C7_2 1_555 1_555
C2_2 N2_2 1_555 1_555
H2_2 C2_2 1_555 1_555
C3_2 C2_2 1_555 1_555
H3_2 C3_2 1_555 1_555
C4_2 C3_2 1_555 1_555
C5_2 C4_2 1_555 1_555
H4_2 C5_2 1_555 1_555
C6_2 N2_2 1_555 1_555
H5_2 C6_2 1_555 1_555
C7_2 C4_2 1_555 1_555
H17_2 C17_2 1_555 1_555
H18_2 C17_2 1_555 1_555
H19_2 C17_2 1_555 1_555
N10_2 C23_2 1_555 1_555
N11_2 C7_2 1_555 1_555
C23_2 H27_2 1_555 1_555
C24_2 C23_2 1_555 1_555
H28_2 C24_2 1_555 1_555
C25_2 C24_2 1_555 1_555
C26_2 C25_2 1_555 1_555
H29_2 C26_2 1_555 1_555
C27_2 N10_2 1_555 1_555
H30_2 C27_2 1_555 1_555
C28_2 N11_2 1_555 1_555
N12_2 C29_2 1_555 1_555
N13_2 C28_2 1_555 1_555
C29_2 H31_2 1_555 1_555
C30_2 C29_2 1_555 1_555
H32_2 C30_2 1_555 1_555
C31_2 C30_2 1_555 1_555
C32_2 C31_2 1_555 1_555
H33_2 C32_2 1_555 1_555
C33_2 N12_2 1_555 1_555
H34_2 C33_2 1_555 1_555
C34_2 N3_2 1_555 1_555
H47_2 C45_2 1_555 1_555
H48_2 C45_2 1_555 1_555
H49_2 C45_2 1_555 1_555
W3_2 S7_2 1_555 1_555
Cu5_2 N12_2 1_555 1_555
Cu9 N12_2 1_555 1_555
S7_2 Cu5_2 1_555 1_555
S8_2 W3_2 1_555 1_555
S9_2 W3_2 1_555 1_555
B3_2 H57_2 1_555 1_555
N21_2 Cu5_2 1_555 1_555
N22_2 B3_2 1_555 1_555
N23_2 W3_2 1_555 1_555
N24_2 B3_2 1_555 1_555
N25_2 W3_2 1_555 1_555
N26_2 B3_2 1_555 1_555
N27_2 W3_2 1_555 1_555
C69 N21_2 1_555 1_555
C52_2 H58_2 1_555 1_555
H59_2 C52_2 1_555 1_555
H60_2 C52_2 1_555 1_555
C53_2 N22_2 1_555 1_555
C54_2 C53_2 1_555 1_555
H61_2 C54_2 1_555 1_555
C55_2 N23_2 1_555 1_555
C56_2 C55_2 1_555 1_555
H62_2 C56_2 1_555 1_555
H63_2 C56_2 1_555 1_555
H64_2 C56_2 1_555 1_555
C57_2 H65_2 1_555 1_555
H66_2 C57_2 1_555 1_555
H67_2 C57_2 1_555 1_555
C58_2 N24_2 1_555 1_555
C59_2 C58_2 1_555 1_555
H68_2 C59_2 1_555 1_555
C60_2 N25_2 1_555 1_555
C61_2 C60_2 1_555 1_555
H69_2 C61_2 1_555 1_555
H70_2 C61_2 1_555 1_555
H71_2 C61_2 1_555 1_555
C62_2 H72_2 1_555 1_555
H73_2 C62_2 1_555 1_555
H74_2 C62_2 1_555 1_555
C63_2 N26_2 1_555 1_555
C64_2 C63_2 1_555 1_555
H75_2 C64_2 1_555 1_555
C65_2 N27_2 1_555 1_555
C66_2 C65_2 1_555 1_555
H76_2 C66_2 1_555 1_555
H77_2 C66_2 1_555 1_555
H78_2 C66_2 1_555 1_555
C5_2 C6_2 1_555 1_555
C25_2 C28_2 1_555 1_555
C26_2 C27_2 1_555 1_555
N13_2 C34_2 1_555 1_555
C31_2 C34_2 1_555 1_555
C32_2 C33_2 1_555 1_555
Cu5_2 S8_2 1_555 1_555
Cu9 S8_2 1_555 1_555
Cu9 S9_2 1_555 1_555
N22_2 N23_2 1_555 1_555
N24_2 N25_2 1_555 1_555
N26_2 N27_2 1_555 1_555
C52_2 C53_2 1_555 1_555
C54_2 C55_2 1_555 1_555
C57_2 C58_2 1_555 1_555
C59_2 C60_2 1_555 1_555
C62_2 C63_2 1_555 1_555
C64_2 C65_2 1_555 1_555
W2_2 S4_2 1_555 1_555
S4_2 Cu3_2 1_555 1_555
S5_2 W2_2 1_555 1_555
S6_2 W2_2 1_555 1_555
B2_2 H35_2 1_555 1_555
N14_2 Cu3_2 1_555 1_555
N15_2 B2_2 1_555 1_555
N16_2 W2_2 1_555 1_555
N17_2 B2_2 1_555 1_555
N18_2 W2_2 1_555 1_555
N19_2 B2_2 1_555 1_555
N20_2 W2_2 1_555 1_555
C36_2 H36_2 1_555 1_555
H37_2 C36_2 1_555 1_555
H38_2 C36_2 1_555 1_555
C37_2 N15_2 1_555 1_555
C38_2 C37_2 1_555 1_555
H39_2 C38_2 1_555 1_555
C39_2 N16_2 1_555 1_555
C40_2 C39_2 1_555 1_555
H40_2 C40_2 1_555 1_555
H41_2 C40_2 1_555 1_555
H42_2 C40_2 1_555 1_555
C41_2 H43_2 1_555 1_555
H44_2 C41_2 1_555 1_555
H45_2 C41_2 1_555 1_555
C42_2 N17_2 1_555 1_555
C43_2 C42_2 1_555 1_555
H46_2 C43_2 1_555 1_555
C44_2 N18_2 1_555 1_555
C46_2 H50_2 1_555 1_555
H51_2 C46_2 1_555 1_555
H52_2 C46_2 1_555 1_555
C47_2 N19_2 1_555 1_555
C48_2 C47_2 1_555 1_555
H53_2 C48_2 1_555 1_555
C49_2 N20_2 1_555 1_555
C50_2 C49_2 1_555 1_555
H54_2 C50_2 1_555 1_555
H55_2 C50_2 1_555 1_555
H56_2 C50_2 1_555 1_555
Cu3_2 S5_2 1_555 1_555
Cu8 S5_2 1_555 1_555
Cu8 S6_2 1_555 1_555
N15_2 N16_2 1_555 1_555
N17_2 N18_2 1_555 1_555
N19_2 N20_2 1_555 1_555
C36_2 C37_2 1_555 1_555
C38_2 C39_2 1_555 1_555
C41_2 C42_2 1_555 1_555
C43_2 C44_2 1_555 1_555
C46_2 C47_2 1_555 1_555
C48_2 C49_2 1_555 1_555
Cu1_2 S1_2 1_555 1_555
N1_2 Cu1_2 1_555 1_555
C8_2 H6_2 1_555 1_555
H7_2 C8_2 1_555 1_555
H8_2 C8_2 1_555 1_555
C9_2 N4_2 1_555 1_555
C10_2 C9_2 1_555 1_555
H9_2 C10_2 1_555 1_555
C11_2 N5_2 1_555 1_555
C12_2 C11_2 1_555 1_555
H10_2 C12_2 1_555 1_555
H11_2 C12_2 1_555 1_555
H12_2 C12_2 1_555 1_555
C13_2 H13_2 1_555 1_555
H14_2 C13_2 1_555 1_555
H15_2 C13_2 1_555 1_555
C14_2 N6_2 1_555 1_555
C15_2 C14_2 1_555 1_555
H16_2 C15_2 1_555 1_555
N4_2 N5_2 1_555 1_555
C8_2 C9_2 1_555 1_555
C10_2 C11_2 1_555 1_555
C13_2 C14_2 1_555 1_555
C15_2 C16_2 1_555 1_555

#END
