
###############################################################################
#
# This file contains modified crystal structure data generated from the
# MOF subset of the Cambridge Structural Database (CSD) v543 
# hosted by the Cambridge Crystallographic Data Centre (CCDC).
#
# This work is licensed under the Creative Commons
# Attribution-NonCommercial-ShareAlike 4.0 International License.
# To view a copy of this license, visit
# http://creativecommons.org/licenses/by-nc-sa/4.0/
# or send a letter to
# Creative Commons, PO Box 1866, Mountain View, CA 94042, USA.
#
# CIF created using the CSD Python API on 29 September 2022
# The structure has been converted into the P1 space group
# The structure has a 3D framework
# The original CSD entry OMAQOL01 is in the cubic crystal system
# The framework has been calculated to contain at least 10.0% void space
# The void calculation uses a probe of radius 1.32A, grid spacing 0.4
# The framework is charged, counterions have been retained in the structure
#
###############################################################################

data_OMAQOL01
_chemical_formula_moiety         '(C192 H384 Mn18 N48 O48 36+)n'
_symmetry_cell_setting           triclinic
_symmetry_space_group_name_H-M   'P 1'
_symmetry_Int_Tables_number      1
_space_group_name_Hall           'P 1'
loop_
_symmetry_equiv_pos_site_id
_symmetry_equiv_pos_as_xyz
1 x,y,z
_cell_length_a                   19.447(5)
_cell_length_b                   19.447(5)
_cell_length_c                   19.447(5)
_cell_angle_alpha                90
_cell_angle_beta                 90
_cell_angle_gamma                90
_cell_volume                     7354.58
loop_
_atom_site_label
_atom_site_type_symbol
_atom_site_fract_x
_atom_site_fract_y
_atom_site_fract_z
Mn5 Mn -0.0000 0.5000 0.0000
H77 H 0.0031 0.6434 0.1507
Mn5_2 Mn -0.0000 0.5000 1.0000
Mn2 Mn 0.5000 0.0000 0.0000
O13 O 0.54648(14) 0.02889(15) 0.09598(12)
O14 O 0.40402(12) 0.04648(14) 0.02889(15)
Mn7 Mn 0.5000 0.0000 0.5000
Mn2_2 Mn 0.5000 0.0000 1.0000
H16 H 0.6507 0.0031 0.8566
O15 O 0.52889(15) 0.09598(12) 0.95352(14)
Mn1 Mn 0.5000 0.5000 0.0000
H6 H 0.6619 0.6533 0.0101
C5 C 0.6112(5) 0.7749(4) 0.0069(5)
C6 C 0.6628(8) 0.8290(6) 0.0010(6)
H9 H 0.6189 0.7516 0.0504
H10 H 0.5667 0.7971 0.0101
H11 H 0.7070 0.8072 0.0089
H12 H 0.6553 0.8600 0.0394
Mn2_3 Mn 0.5000 1.0000 0.0000
O3 O 0.3994(3) 0.4606(3) 0.0283(3)
O5 O 0.5394(3) 0.5283(3) 0.1006(3)
O6 O 0.5283(3) 0.3994(3) 0.0394(3)
C9 C 0.36829(17) 0.44706(19) 0.08355(19)
C11 C 0.55294(19) 0.58355(19) 0.13171(17)
C12 C 0.58355(19) 0.36829(17) 0.05294(19)
N3 N 0.3368(9) 0.3873(4) 0.0843(7)
C13 C 0.3675(5) 0.4881(4) 0.1473(4)
N5 N 0.6127(4) 0.5843(7) 0.1632(9)
C15 C 0.5119(4) 0.6473(4) 0.1325(5)
N6 N 0.5843(7) 0.3368(9) 0.1127(4)
C16 C 0.6473(4) 0.3675(5) 0.0119(4)
H17 H 0.3114 0.3811 0.1200
C17 C 0.3361(4) 0.3289(4) 0.0365(5)
H18 H 0.3389 0.5278 0.1409
H19 H 0.3497 0.4607 0.1843
H20 H 0.4135 0.5025 0.1582
H22 H 0.3591 0.6611 0.0278
H24 H 0.3418 0.5865 0.0025
H25 H 0.6189 0.6200 0.1886
C19 C 0.6711(4) 0.5365(5) 0.1639(4)
H26 H 0.4722 0.6409 0.1611
H27 H 0.5393 0.6843 0.1503
H28 H 0.4975 0.6582 0.0865
C20 C 0.5365(5) 0.3361(4) 0.1711(4)
H29 H 0.6200 0.3114 0.1189
H31 H 0.6843 0.3497 0.0393
C21 C 0.3937(3) 0.2772(3) 0.0455(3)
H33 H 0.2926 0.3050 0.0415
C23 C 0.7228(3) 0.5455(3) 0.1063(3)
H37 H 0.6950 0.5415 0.2074
H38 H 0.6533 0.4899 0.1619
C24 C 0.5455(3) 0.3937(3) 0.2228(3)
H39 H 0.5415 0.2926 0.1950
H40 H 0.4899 0.3381 0.1533
H41 H 0.3904 0.2560 0.0906
H42 H 0.4378 0.3003 0.0423
C27 C 0.7749(4) 0.4931(5) 0.1112(5)
H45 H 0.7440 0.5906 0.1096
H46 H 0.6997 0.5423 0.0622
H47 H 0.5423 0.4378 0.1997
C28 C 0.4931(5) 0.3888(5) 0.2749(4)
H48 H 0.5906 0.3904 0.2440
C31 C 0.8290(6) 0.4990(6) 0.1628(8)
H53 H 0.7516 0.4496 0.1189
H54 H 0.7971 0.4899 0.0667
C32 C 0.4990(6) 0.3372(8) 0.3290(6)
H55 H 0.4496 0.3811 0.2516
H56 H 0.4899 0.4333 0.2971
N7 N 0.3290(5) 0.1267(4) 0.0617(5)
N9 N 0.8733(4) 0.5617(5) 0.1710(5)
H61 H 0.8072 0.4911 0.2070
H62 H 0.8600 0.4606 0.1553
N10 N 0.5617(5) 0.3290(5) 0.3733(4)
H63 H 0.4606 0.3447 0.3600
H64 H 0.4911 0.2930 0.3072
H65 H 0.2972 0.1369 0.0908
C33 C 0.36915(18) 0.07180(18) 0.07466(19)
H67 H 0.8631 0.5908 0.2028
C35 C 0.92820(18) 0.57466(19) 0.13085(18)
C36 C 0.57466(19) 0.36915(18) 0.42820(18)
H68 H 0.5908 0.2972 0.3631
C37 C 0.3711(7) 0.0412(7) 0.1442(5)
O10 O 0.95352(14) 0.52889(15) 0.09598(12)
C39 C 0.9588(7) 0.6442(5) 0.1289(7)
C40 C 0.6442(5) 0.3711(7) 0.4588(7)
O11 O 0.52889(15) 0.40402(12) 0.45352(14)
H69 H 0.4180 0.0362 0.1587
H70 H 0.3473 0.0707 0.1758
Mn5_3 Mn 1.0000 0.5000 0.0000
H75 H 0.9638 0.6587 0.0820
H76 H 0.9293 0.6758 0.1527
H78 H 0.6434 0.3493 0.5031
H79 H 0.6587 0.4180 0.4638
H80 H 0.6758 0.3473 0.4293
Mn6 Mn 0.5000 0.5000 0.5000
O12 O 0.47111(15) 0.90402(12) 0.04648(14)
C41 C 0.42534(19) 0.86915(18) 0.07180(18)
N11 N 0.4383(5) 0.8290(5) 0.1267(4)
C42 C 0.3558(5) 0.8711(7) 0.0412(7)
H81 H 0.4092 0.7972 0.1369
C43 C 0.5010(6) 0.8372(8) 0.1710(6)
H82 H 0.3413 0.9180 0.0362
H83 H 0.3242 0.8473 0.0707
H85 H 0.5089 0.7930 0.1928
H86 H 0.5394 0.8447 0.1400
C44 C 0.5069(5) 0.8888(5) 0.2251(4)
H87 H 0.5504 0.8811 0.2484
H88 H 0.5101 0.9333 0.2029
C45 C 0.4545(3) 0.8937(3) 0.2772(3)
H89 H 0.4094 0.8904 0.2560
H90 H 0.4577 0.9378 0.3003
C46 C 0.4635(5) 0.8361(4) 0.3289(4)
N12 N 0.4157(7) 0.8368(9) 0.3873(4)
H91 H 0.4585 0.7926 0.3050
H92 H 0.5101 0.8381 0.3467
H93 H 0.3800 0.8114 0.3811
C47 C 0.41645(19) 0.86829(17) 0.44706(19)
O17 O 0.4717(3) 0.8994(3) 0.4606(3)
C48 C 0.3527(4) 0.8675(5) 0.4881(4)
Mn7_2 Mn 0.5000 1.0000 0.5000
H94 H 0.3591 0.8389 0.5278
H95 H 0.3157 0.8497 0.4607
H96 H 0.3418 0.9135 0.5025
Mn1_2 Mn 0.5000 0.5000 1.0000
O1 O 0.6006(3) 0.5394(3) 0.9717(3)
C1 C 0.63171(17) 0.55294(19) 0.91645(19)
N1 N 0.6632(9) 0.6127(4) 0.9157(7)
C2 C 0.6325(5) 0.5119(4) 0.8527(4)
H1 H 0.6886 0.6189 0.8800
C3 C 0.6639(4) 0.6711(4) 0.9635(5)
H2 H 0.6611 0.4722 0.8591
H3 H 0.6503 0.5393 0.8157
H4 H 0.5865 0.4975 0.8418
C4 C 0.6063(3) 0.7228(3) 0.9545(3)
H5 H 0.7074 0.6950 0.9585
H7 H 0.6096 0.7440 0.9094
H8 H 0.5622 0.6997 0.9577
N2 N 0.6710(5) 0.8733(4) 0.9383(5)
H13 H 0.7028 0.8631 0.9092
C7 C 0.63085(18) 0.92820(18) 0.92534(19)
O2 O 0.59598(12) 0.95352(14) 0.97111(15)
C8 C 0.6289(7) 0.9588(7) 0.8558(5)
Mn2_4 Mn 0.5000 1.0000 1.0000
H14 H 0.5820 0.9638 0.8413
H15 H 0.6527 0.9293 0.8242
O4 O 0.4717(3) 0.6006(3) 0.9606(3)
O7 O 0.4606(3) 0.4717(3) 0.8994(3)
C10 C 0.41645(19) 0.63171(17) 0.94706(19)
N4 N 0.4157(7) 0.6632(9) 0.8873(4)
C14 C 0.3527(4) 0.6325(5) 0.9881(4)
H21 H 0.3800 0.6886 0.8811
C18 C 0.4635(5) 0.6639(4) 0.8289(4)
H23 H 0.3157 0.6503 0.9607
H30 H 0.6582 0.4135 0.9975
H32 H 0.6409 0.3389 0.9722
H34 H 0.3381 0.3467 0.9899
C22 C 0.4545(3) 0.6063(3) 0.7772(3)
H35 H 0.4585 0.7074 0.8050
H36 H 0.5101 0.6619 0.8467
C25 C 0.3888(5) 0.2251(4) 0.9931(5)
C26 C 0.5069(5) 0.6112(5) 0.7251(4)
H43 H 0.4094 0.6096 0.7560
H44 H 0.4577 0.5622 0.8003
C29 C 0.3372(8) 0.1710(6) 0.9990(6)
H49 H 0.3811 0.2484 0.9496
H50 H 0.4333 0.2029 0.9899
C30 C 0.5010(6) 0.6628(8) 0.6710(6)
H51 H 0.5504 0.6189 0.7484
H52 H 0.5101 0.5667 0.7029
H57 H 0.2930 0.1928 0.9911
H58 H 0.3447 0.1400 0.9606
N8 N 0.4383(5) 0.6710(5) 0.6267(4)
H59 H 0.5089 0.7070 0.6928
H60 H 0.5394 0.6553 0.6400
H66 H 0.4092 0.7028 0.6369
C34 C 0.42534(19) 0.63085(18) 0.57180(18)
O9 O 0.47111(15) 0.59598(12) 0.54648(14)
C38 C 0.3558(5) 0.6289(7) 0.5412(7)
H72 H 0.3413 0.5820 0.5362
H73 H 0.3242 0.6527 0.5707
H74 H 0.3566 0.6507 0.4969
Mn5_4 Mn 1.0000 0.5000 1.0000
O16 O 0.45352(14) 0.97111(15) 0.90402(12)
H84 H 0.3566 0.8493 0.9969
H71 H 0.3493 0.9969 0.1434
Mn3 Mn 0.0000 -0.0000 0.5000
H71_2 H 0.1507 0.0031 0.6434
Mn7_3 Mn 0.0000 0.0000 -0.0000
H94_2 H 0.1409 0.1611 0.0278
H96_2 H 0.1582 0.0865 0.0025
Mn1_3 Mn -0.0000 0.5000 0.5000
O3_2 O 0.1006(3) 0.5394(3) 0.5283(3)
O4_2 O 0.0283(3) 0.3994(3) 0.4606(3)
O7_2 O 0.0394(3) 0.5283(3) 0.3994(3)
C9_2 C 0.13171(17) 0.55294(19) 0.58355(19)
C10_2 C 0.08355(19) 0.36829(17) 0.44706(19)
N3_2 N 0.1632(9) 0.6127(4) 0.5843(7)
C13_2 C 0.1325(5) 0.5119(4) 0.6473(4)
N4_2 N 0.0843(7) 0.3368(9) 0.3873(4)
C14_2 C 0.1473(4) 0.3675(5) 0.4881(4)
H17_2 H 0.1886 0.6189 0.6200
C17_2 C 0.1639(4) 0.6711(4) 0.5365(5)
H18_2 H 0.1611 0.4722 0.6409
H19_2 H 0.1503 0.5393 0.6843
H20_2 H 0.0865 0.4975 0.6582
H21_2 H 0.1200 0.3114 0.3811
C18_2 C 0.0365(5) 0.3361(4) 0.3289(4)
H22_2 H 0.1409 0.3389 0.5278
H23_2 H 0.1843 0.3497 0.4607
H24_2 H 0.1582 0.4135 0.5025
H26_2 H 0.0278 0.3591 0.6611
H28_2 H 0.0025 0.3418 0.5865
C21_2 C 0.1063(3) 0.7228(3) 0.5455(3)
H33_2 H 0.2074 0.6950 0.5415
H34_2 H 0.1619 0.6533 0.4899
C22_2 C 0.0455(3) 0.3937(3) 0.2772(3)
H35_2 H 0.0415 0.2926 0.3050
H40_2 H 0.0101 0.6619 0.6533
C25_2 C 0.1112(5) 0.7749(4) 0.4931(5)
H41_2 H 0.1096 0.7440 0.5906
H42_2 H 0.0622 0.6997 0.5423
H43_2 H 0.0906 0.3904 0.2560
H44_2 H 0.0423 0.4378 0.3003
C28_2 C 0.0069(5) 0.6112(5) 0.7749(4)
C29_2 C 0.1628(8) 0.8290(6) 0.4990(6)
H49_2 H 0.1189 0.7516 0.4496
H50_2 H 0.0667 0.7971 0.4899
C32_2 C 0.0010(6) 0.6628(8) 0.8290(6)
H55_2 H 0.0504 0.6189 0.7516
H56_2 H 0.0101 0.5667 0.7971
N7_2 N 0.1710(5) 0.8733(4) 0.5617(5)
H57_2 H 0.2070 0.8072 0.4911
H58_2 H 0.1553 0.8600 0.4606
N8_2 N 0.0617(5) 0.3290(5) 0.1267(4)
H63_2 H 0.0394 0.6553 0.8600
H64_2 H 0.0089 0.7070 0.8072
H65_2 H 0.2028 0.8631 0.5908
C33_2 C 0.13085(18) 0.92820(18) 0.57466(19)
H66_2 H 0.0908 0.2972 0.1369
C34_2 C 0.07466(19) 0.36915(18) 0.07180(18)
O8 O 0.09598(12) 0.95352(14) 0.52889(15)
C37_2 C 0.1289(7) 0.9588(7) 0.6442(5)
O9_2 O 0.02889(15) 0.40402(12) 0.04648(14)
C38_2 C 0.1442(5) 0.3711(7) 0.0412(7)
Mn3_2 Mn 0.0000 1.0000 0.5000
H69_2 H 0.0820 0.9638 0.6587
H70_2 H 0.1527 0.9293 0.6758
H72_2 H 0.1587 0.4180 0.0362
H73_2 H 0.1758 0.3473 0.0707
O12_2 O 0.02889(15) 0.09598(12) 0.54648(14)
O16_2 O 0.04648(14) 0.02889(15) 0.40402(12)
C41_2 C 0.07466(19) 0.13085(18) 0.57180(18)
N11_2 N 0.0617(5) 0.1710(5) 0.6267(4)
C42_2 C 0.1442(5) 0.1289(7) 0.5412(7)
H81_2 H 0.0908 0.2028 0.6369
H82_2 H 0.1587 0.0820 0.5362
H83_2 H 0.1758 0.1527 0.5707
H84_2 H 0.1434 0.1507 0.4969
C45_2 C 0.0455(3) 0.1063(3) 0.7772(3)
H89_2 H 0.0906 0.1096 0.7560
H90_2 H 0.0423 0.0622 0.8003
C46_2 C 0.0365(5) 0.1639(4) 0.8289(4)
N12_2 N 0.0843(7) 0.1632(9) 0.8873(4)
H91_2 H 0.0415 0.2074 0.8050
H93_2 H 0.1200 0.1886 0.8811
C47_2 C 0.08355(19) 0.13171(17) 0.94706(19)
O17_2 O 0.0283(3) 0.1006(3) 0.9606(3)
C48_2 C 0.1473(4) 0.1325(5) 0.9881(4)
Mn7_4 Mn 0.0000 0.0000 1.0000
H95_2 H 0.1843 0.1503 0.9607
H74_2 H 0.1434 0.3493 0.9969
Mn7_5 Mn 0.0000 1.0000 -0.0000
Mn7_6 Mn 0.0000 1.0000 1.0000
Mn3_3 Mn 1.0000 -0.0000 0.5000
H78_2 H 0.8566 0.6507 0.0031
Mn7_7 Mn 1.0000 0.0000 -0.0000
Mn1_4 Mn 1.0000 0.5000 0.5000
O1_2 O 0.8994(3) 0.4606(3) 0.4717(3)
C1_2 C 0.86829(17) 0.44706(19) 0.41645(19)
N1_2 N 0.8368(9) 0.3873(4) 0.4157(7)
C2_2 C 0.8675(5) 0.4881(4) 0.3527(4)
H1_2 H 0.8114 0.3811 0.3800
C3_2 C 0.8361(4) 0.3289(4) 0.4635(5)
H2_2 H 0.8389 0.5278 0.3591
H3_2 H 0.8497 0.4607 0.3157
H4_2 H 0.9135 0.5025 0.3418
C4_2 C 0.8937(3) 0.2772(3) 0.4545(3)
H5_2 H 0.7926 0.3050 0.4585
H6_2 H 0.8381 0.3467 0.5101
C5_2 C 0.8888(5) 0.2251(4) 0.5069(5)
H7_2 H 0.8904 0.2560 0.4094
H8_2 H 0.9378 0.3003 0.4577
C6_2 C 0.8372(8) 0.1710(6) 0.5010(6)
H9_2 H 0.8811 0.2484 0.5504
H10_2 H 0.9333 0.2029 0.5101
N2_2 N 0.8290(5) 0.1267(4) 0.4383(5)
H11_2 H 0.7930 0.1928 0.5089
H12_2 H 0.8447 0.1400 0.5394
H13_2 H 0.7972 0.1369 0.4092
C7_2 C 0.86915(18) 0.07180(18) 0.42534(19)
O2_2 O 0.90402(12) 0.04648(14) 0.47111(15)
C8_2 C 0.8711(7) 0.0412(7) 0.3558(5)
H14_2 H 0.9180 0.0362 0.3413
H15_2 H 0.8473 0.0707 0.3242
O5_2 O 0.9606(3) 0.4717(3) 0.6006(3)
O6_2 O 0.9717(3) 0.6006(3) 0.5394(3)
C11_2 C 0.94706(19) 0.41645(19) 0.63171(17)
C12_2 C 0.91645(19) 0.63171(17) 0.55294(19)
N5_2 N 0.8873(4) 0.4157(7) 0.6632(9)
C15_2 C 0.9881(4) 0.3527(4) 0.6325(5)
N6_2 N 0.9157(7) 0.6632(9) 0.6127(4)
C16_2 C 0.8527(4) 0.6325(5) 0.5119(4)
H25_2 H 0.8811 0.3800 0.6886
C19_2 C 0.8289(4) 0.4635(5) 0.6639(4)
H27_2 H 0.9607 0.3157 0.6503
C20_2 C 0.9635(5) 0.6639(4) 0.6711(4)
H29_2 H 0.8800 0.6886 0.6189
H30_2 H 0.8418 0.5865 0.4975
H31_2 H 0.8157 0.6503 0.5393
H32_2 H 0.8591 0.6611 0.4722
H36_2 H 0.9899 0.3381 0.3467
C23_2 C 0.7772(3) 0.4545(3) 0.6063(3)
H37_2 H 0.8050 0.4585 0.7074
H38_2 H 0.8467 0.5101 0.6619
C24_2 C 0.9545(3) 0.6063(3) 0.7228(3)
H39_2 H 0.9585 0.7074 0.6950
C26_2 C 0.9931(5) 0.3888(5) 0.2251(4)
C27_2 C 0.7251(4) 0.5069(5) 0.6112(5)
H45_2 H 0.7560 0.4094 0.6096
H46_2 H 0.8003 0.4577 0.5622
H47_2 H 0.9577 0.5622 0.6997
H48_2 H 0.9094 0.6096 0.7440
C30_2 C 0.9990(6) 0.3372(8) 0.1710(6)
H51_2 H 0.9496 0.3811 0.2484
H52_2 H 0.9899 0.4333 0.2029
C31_2 C 0.6710(6) 0.5010(6) 0.6628(8)
H53_2 H 0.7484 0.5504 0.6189
H54_2 H 0.7029 0.5101 0.5667
H59_2 H 0.9911 0.2930 0.1928
H60_2 H 0.9606 0.3447 0.1400
N9_2 N 0.6267(4) 0.4383(5) 0.6710(5)
H61_2 H 0.6928 0.5089 0.7070
H62_2 H 0.6400 0.5394 0.6553
N10_2 N 0.9383(5) 0.6710(5) 0.8733(4)
H67_2 H 0.6369 0.4092 0.7028
C35_2 C 0.57180(18) 0.42534(19) 0.63085(18)
C36_2 C 0.92534(19) 0.63085(18) 0.92820(18)
H68_2 H 0.9092 0.7028 0.8631
O10_2 O 0.54648(14) 0.47111(15) 0.59598(12)
C39_2 C 0.5412(7) 0.3558(5) 0.6289(7)
C40_2 C 0.8558(5) 0.6289(7) 0.9588(7)
O11_2 O 0.97111(15) 0.59598(12) 0.95352(14)
Mn3_4 Mn 1.0000 1.0000 0.5000
H75_2 H 0.5362 0.3413 0.5820
H76_2 H 0.5707 0.3242 0.6527
H77_2 H 0.4969 0.3566 0.6507
H79_2 H 0.8413 0.5820 0.9638
H80_2 H 0.8242 0.6527 0.9293
C43_2 C 0.9990(6) 0.1628(8) 0.6710(6)
H85_2 H 0.9911 0.2070 0.6928
H86_2 H 0.9606 0.1553 0.6400
C44_2 C 0.9931(5) 0.1112(5) 0.7251(4)
H87_2 H 0.9496 0.1189 0.7484
H88_2 H 0.9899 0.0667 0.7029
H92_2 H 0.9899 0.1619 0.8467
Mn7_8 Mn 1.0000 0.0000 1.0000
Mn7_9 Mn 1.0000 1.0000 -0.0000
H16_2 H 0.8493 0.9969 0.3566
O13_2 O 0.95352(14) 0.97111(15) 0.59598(12)
O15_2 O 0.97111(15) 0.90402(12) 0.45352(14)
Mn7_10 Mn 1.0000 1.0000 1.0000
H74_3 H 0.6434 0.1507 0.0031
O1_3 O 0.3994(3) 0.0394(3) 0.5283(3)
C1_3 C 0.36829(17) 0.05294(19) 0.58355(19)
N1_3 N 0.3368(9) 0.1127(4) 0.5843(7)
C2_3 C 0.3675(5) 0.0119(4) 0.6473(4)
H1_3 H 0.3114 0.1189 0.6200
C3_3 C 0.3361(4) 0.1711(4) 0.5365(5)
H3_3 H 0.3497 0.0393 0.6843
C4_3 C 0.3937(3) 0.2228(3) 0.5455(3)
H5_3 H 0.2926 0.1950 0.5415
H6_3 H 0.3381 0.1533 0.4899
C5_3 C 0.3888(5) 0.2749(4) 0.4931(5)
H7_3 H 0.3904 0.2440 0.5906
H8_3 H 0.4378 0.1997 0.5423
C6_3 C 0.3372(8) 0.3290(6) 0.4990(6)
H9_3 H 0.3811 0.2516 0.4496
H10_3 H 0.4333 0.2971 0.4899
N2_3 N 0.3290(5) 0.3733(4) 0.5617(5)
H11_3 H 0.2930 0.3072 0.4911
H12_3 H 0.3447 0.3600 0.4606
H13_3 H 0.2972 0.3631 0.5908
C7_3 C 0.36915(18) 0.42820(18) 0.57466(19)
O2_3 O 0.40402(12) 0.45352(14) 0.52889(15)
C8_3 C 0.3711(7) 0.4588(7) 0.6442(5)
H14_3 H 0.4180 0.4638 0.6587
H15_3 H 0.3473 0.4293 0.6758
H16_3 H 0.3493 0.5031 0.6434
O4_3 O 0.5283(3) 0.1006(3) 0.5394(3)
O5_3 O 0.4606(3) 0.0283(3) 0.3994(3)
C10_3 C 0.58355(19) 0.13171(17) 0.55294(19)
C11_3 C 0.44706(19) 0.08355(19) 0.36829(17)
N4_3 N 0.5843(7) 0.1632(9) 0.6127(4)
C14_3 C 0.6473(4) 0.1325(5) 0.5119(4)
N5_3 N 0.3873(4) 0.0843(7) 0.3368(9)
C15_3 C 0.4881(4) 0.1473(4) 0.3675(5)
H18_3 H 0.6611 0.0278 0.3591
H20_3 H 0.5865 0.0025 0.3418
H21_3 H 0.6200 0.1886 0.6189
C18_3 C 0.5365(5) 0.1639(4) 0.6711(4)
H22_3 H 0.6409 0.1611 0.4722
H23_3 H 0.6843 0.1503 0.5393
H24_3 H 0.6582 0.0865 0.4975
H25_3 H 0.3811 0.1200 0.3114
C19_3 C 0.3289(4) 0.0365(5) 0.3361(4)
H26_3 H 0.5278 0.1409 0.3389
H27_3 H 0.4607 0.1843 0.3497
H28_3 H 0.5025 0.1582 0.4135
C22_3 C 0.5455(3) 0.1063(3) 0.7228(3)
H35_3 H 0.5415 0.2074 0.6950
H36_3 H 0.4899 0.1619 0.6533
C23_3 C 0.2772(3) 0.0455(3) 0.3937(3)
H37_3 H 0.3050 0.0415 0.2926
C26_3 C 0.4931(5) 0.1112(5) 0.7749(4)
H43_3 H 0.5906 0.1096 0.7440
H44_3 H 0.5423 0.0622 0.6997
H45_3 H 0.2560 0.0906 0.3904
H46_3 H 0.3003 0.0423 0.4378
C30_3 C 0.4990(6) 0.1628(8) 0.8290(6)
H51_3 H 0.4496 0.1189 0.7516
H52_3 H 0.4899 0.0667 0.7971
N8_3 N 0.5617(5) 0.1710(5) 0.8733(4)
H59_3 H 0.4911 0.2070 0.8072
H60_3 H 0.4606 0.1553 0.8600
N9_3 N 0.1267(4) 0.0617(5) 0.3290(5)
H66_3 H 0.5908 0.2028 0.8631
C34_3 C 0.57466(19) 0.13085(18) 0.92820(18)
H67_3 H 0.1369 0.0908 0.2972
C35_3 C 0.07180(18) 0.07466(19) 0.36915(18)
C38_3 C 0.6442(5) 0.1289(7) 0.9588(7)
C39_3 C 0.0412(7) 0.1442(5) 0.3711(7)
H72_3 H 0.6587 0.0820 0.9638
H73_3 H 0.6758 0.1527 0.9293
H75_3 H 0.0362 0.1587 0.4180
H76_3 H 0.0707 0.1758 0.3473
O13_3 O 0.45352(14) 0.52889(15) 0.40402(12)
O14_2 O 0.59598(12) 0.54648(14) 0.47111(15)
H2_3 H 0.3389 0.9722 0.6409
H4_3 H 0.4135 0.9975 0.6582
O3_3 O 0.6006(3) 0.9606(3) 0.4717(3)
O7_3 O 0.5394(3) 0.9717(3) 0.6006(3)
C9_3 C 0.63171(17) 0.94706(19) 0.41645(19)
N3_3 N 0.6632(9) 0.8873(4) 0.4157(7)
C13_3 C 0.6325(5) 0.9881(4) 0.3527(4)
H17_3 H 0.6886 0.8811 0.3800
C17_3 C 0.6639(4) 0.8289(4) 0.4635(5)
H19_3 H 0.6503 0.9607 0.3157
C21_3 C 0.6063(3) 0.7772(3) 0.4545(3)
H33_3 H 0.7074 0.8050 0.4585
H34_3 H 0.6619 0.8467 0.5101
H38_3 H 0.3467 0.9899 0.3381
C25_3 C 0.6112(5) 0.7251(4) 0.5069(5)
H41_3 H 0.6096 0.7560 0.4094
H42_3 H 0.5622 0.8003 0.4577
C27_3 C 0.2251(4) 0.9931(5) 0.3888(5)
C29_3 C 0.6628(8) 0.6710(6) 0.5010(6)
H49_3 H 0.6189 0.7484 0.5504
H50_3 H 0.5667 0.7029 0.5101
C31_3 C 0.1710(6) 0.9990(6) 0.3372(8)
H53_3 H 0.2484 0.9496 0.3811
H54_3 H 0.2029 0.9899 0.4333
N7_3 N 0.6710(5) 0.6267(4) 0.4383(5)
H57_3 H 0.7070 0.6928 0.5089
H58_3 H 0.6553 0.6400 0.5394
H61_3 H 0.1928 0.9911 0.2930
H62_3 H 0.1400 0.9606 0.3447
H65_3 H 0.7028 0.6369 0.4092
C33_3 C 0.63085(18) 0.57180(18) 0.42534(19)
C37_3 C 0.6289(7) 0.5412(7) 0.3558(5)
H69_3 H 0.5820 0.5362 0.3413
H70_3 H 0.6527 0.5707 0.3242
H71_3 H 0.6507 0.4969 0.3566
H77_3 H 0.9969 0.1434 0.3493
H2_4 H 0.1611 0.0278 0.1409
H4_4 H 0.0865 0.0025 0.1582
H38_4 H 0.1533 0.0101 0.8381
C27_4 C 0.2749(4) 0.0069(5) 0.8888(5)
C31_4 C 0.3290(6) 0.0010(6) 0.8372(8)
H53_4 H 0.2516 0.0504 0.8811
H54_4 H 0.2971 0.0101 0.9333
H61_4 H 0.3072 0.0089 0.7930
H62_4 H 0.3600 0.0394 0.8447
O1_4 O 0.1006(3) 0.9606(3) 0.0283(3)
C1_4 C 0.13171(17) 0.94706(19) 0.08355(19)
N1_4 N 0.1632(9) 0.8873(4) 0.0843(7)
C2_4 C 0.1325(5) 0.9881(4) 0.1473(4)
H1_4 H 0.1886 0.8811 0.1200
C3_4 C 0.1639(4) 0.8289(4) 0.0365(5)
H3_4 H 0.1503 0.9607 0.1843
C4_4 C 0.1063(3) 0.7772(3) 0.0455(3)
H5_4 H 0.2074 0.8050 0.0415
H7_4 H 0.1096 0.7560 0.0906
H8_4 H 0.0622 0.8003 0.0423
N2_4 N 0.1710(5) 0.6267(4) 0.0617(5)
H13_4 H 0.2028 0.6369 0.0908
C7_4 C 0.13085(18) 0.57180(18) 0.07466(19)
O2_4 O 0.09598(12) 0.54648(14) 0.02889(15)
C8_4 C 0.1289(7) 0.5412(7) 0.1442(5)
H14_4 H 0.0820 0.5362 0.1587
H15_4 H 0.1527 0.5707 0.1758
H16_4 H 0.1507 0.4969 0.1434
H36_4 H 0.0101 0.8381 0.1533
C26_4 C 0.0069(5) 0.8888(5) 0.2749(4)
C30_4 C 0.0010(6) 0.8372(8) 0.3290(6)
H51_4 H 0.0504 0.8811 0.2516
H52_4 H 0.0101 0.9333 0.2971
H59_4 H 0.0089 0.7930 0.3072
H60_4 H 0.0394 0.8447 0.3600
H6_4 H 0.1619 0.8467 0.9899
C5_4 C 0.1112(5) 0.7251(4) 0.9931(5)
C6_4 C 0.1628(8) 0.6710(6) 0.9990(6)
H9_4 H 0.1189 0.7484 0.9496
H10_4 H 0.0667 0.7029 0.9899
H11_4 H 0.2070 0.6928 0.9911
H12_4 H 0.1553 0.6400 0.9606
O5_4 O 0.0394(3) 0.9717(3) 0.8994(3)
C11_4 C 0.05294(19) 0.91645(19) 0.86829(17)
N5_4 N 0.1127(4) 0.9157(7) 0.8368(9)
C15_4 C 0.0119(4) 0.8527(4) 0.8675(5)
H25_4 H 0.1189 0.8800 0.8114
C19_4 C 0.1711(4) 0.9635(5) 0.8361(4)
H27_4 H 0.0393 0.8157 0.8497
C23_4 C 0.2228(3) 0.9545(3) 0.8937(3)
H37_4 H 0.1950 0.9585 0.7926
H45_4 H 0.2440 0.9094 0.8904
H46_4 H 0.1997 0.9577 0.9378
N9_4 N 0.3733(4) 0.9383(5) 0.8290(5)
H67_4 H 0.3631 0.9092 0.7972
C35_4 C 0.42820(18) 0.92534(19) 0.86915(18)
C39_4 C 0.4588(7) 0.8558(5) 0.8711(7)
H75_4 H 0.4638 0.8413 0.9180
H76_4 H 0.4293 0.8242 0.8473
H77_4 H 0.5031 0.8566 0.8493
O13_4 O 0.04648(14) 0.47111(15) 0.90402(12)
O7_4 O 0.9606(3) 0.0283(3) 0.1006(3)
H34_4 H 0.8381 0.1533 0.0101
C25_4 C 0.8888(5) 0.2749(4) 0.0069(5)
C29_4 C 0.8372(8) 0.3290(6) 0.0010(6)
H49_4 H 0.8811 0.2516 0.0504
H50_4 H 0.9333 0.2971 0.0101
H57_4 H 0.7930 0.3072 0.0089
H58_4 H 0.8447 0.3600 0.0394
O3_4 O 0.8994(3) 0.0394(3) 0.9717(3)
C9_4 C 0.86829(17) 0.05294(19) 0.91645(19)
N3_4 N 0.8368(9) 0.1127(4) 0.9157(7)
C13_4 C 0.8675(5) 0.0119(4) 0.8527(4)
H17_4 H 0.8114 0.1189 0.8800
C17_4 C 0.8361(4) 0.1711(4) 0.9635(5)
H19_4 H 0.8497 0.0393 0.8157
C21_4 C 0.8937(3) 0.2228(3) 0.9545(3)
H33_4 H 0.7926 0.1950 0.9585
H41_4 H 0.8904 0.2440 0.9094
H42_4 H 0.9378 0.1997 0.9577
N7_4 N 0.8290(5) 0.3733(4) 0.9383(5)
H65_4 H 0.7972 0.3631 0.9092
C33_4 C 0.86915(18) 0.42820(18) 0.92534(19)
O8_2 O 0.90402(12) 0.45352(14) 0.97111(15)
C37_4 C 0.8711(7) 0.4588(7) 0.8558(5)
H69_4 H 0.9180 0.4638 0.8413
H70_4 H 0.8473 0.4293 0.8242
H71_4 H 0.8493 0.5031 0.8566
O4_4 O 0.9717(3) 0.8994(3) 0.0394(3)
C10_4 C 0.91645(19) 0.86829(17) 0.05294(19)
N4_4 N 0.9157(7) 0.8368(9) 0.1127(4)
C14_4 C 0.8527(4) 0.8675(5) 0.0119(4)
H21_4 H 0.8800 0.8114 0.1189
C18_4 C 0.9635(5) 0.8361(4) 0.1711(4)
H23_4 H 0.8157 0.8497 0.0393
C22_4 C 0.9545(3) 0.8937(3) 0.2228(3)
H35_4 H 0.9585 0.7926 0.1950
H43_4 H 0.9094 0.8904 0.2440
H44_4 H 0.9577 0.9378 0.1997
N8_4 N 0.9383(5) 0.8290(5) 0.3733(4)
H66_4 H 0.9092 0.7972 0.3631
C34_4 C 0.92534(19) 0.86915(18) 0.42820(18)
C38_4 C 0.8558(5) 0.8711(7) 0.4588(7)
H72_4 H 0.8413 0.9180 0.4638
H73_4 H 0.8242 0.8473 0.4293
H74_4 H 0.8566 0.8493 0.5031
H18_4 H 0.8389 0.9722 0.8591
H20_4 H 0.9135 0.9975 0.8418
H22_4 H 0.8591 0.8389 0.9722
H24_4 H 0.8418 0.9135 0.9975
H26_4 H 0.9722 0.8591 0.8389
H28_4 H 0.9975 0.8418 0.9135
C12_3 C 0.05294(19) 0.58355(19) 0.36829(17)
N6_3 N 0.1127(4) 0.5843(7) 0.3368(9)
C16_3 C 0.0119(4) 0.6473(4) 0.3675(5)
C20_3 C 0.1711(4) 0.5365(5) 0.3361(4)
H29_3 H 0.1189 0.6200 0.3114
H31_3 H 0.0393 0.6843 0.3497
C24_3 C 0.2228(3) 0.5455(3) 0.3937(3)
H39_3 H 0.1950 0.5415 0.2926
H40_3 H 0.1533 0.4899 0.3381
H47_3 H 0.1997 0.5423 0.4378
C28_3 C 0.2749(4) 0.4931(5) 0.3888(5)
H48_3 H 0.2440 0.5906 0.3904
C32_3 C 0.3290(6) 0.4990(6) 0.3372(8)
H55_3 H 0.2516 0.4496 0.3811
H56_3 H 0.2971 0.4899 0.4333
N10_3 N 0.3733(4) 0.5617(5) 0.3290(5)
H63_3 H 0.3600 0.4606 0.3447
H64_3 H 0.3072 0.4911 0.2930
C36_3 C 0.42820(18) 0.57466(19) 0.36915(18)
H68_3 H 0.3631 0.5908 0.2972
C40_3 C 0.4588(7) 0.6442(5) 0.3711(7)
H78_3 H 0.5031 0.6434 0.3493
H79_3 H 0.4638 0.6587 0.4180
H80_3 H 0.4293 0.6758 0.3473
C41_3 C 0.07180(18) 0.42534(19) 0.86915(18)
N11_3 N 0.1267(4) 0.4383(5) 0.8290(5)
C42_3 C 0.0412(7) 0.3558(5) 0.8711(7)
H81_3 H 0.1369 0.4092 0.7972
C43_3 C 0.1710(6) 0.5010(6) 0.8372(8)
H82_3 H 0.0362 0.3413 0.9180
H83_3 H 0.0707 0.3242 0.8473
H85_3 H 0.1928 0.5089 0.7930
H86_3 H 0.1400 0.5394 0.8447
C44_3 C 0.2251(4) 0.5069(5) 0.8888(5)
H87_3 H 0.2484 0.5504 0.8811
H88_3 H 0.2029 0.5101 0.9333
C45_3 C 0.2772(3) 0.4545(3) 0.8937(3)
H89_3 H 0.2560 0.4094 0.8904
H90_3 H 0.3003 0.4577 0.9378
C46_3 C 0.3289(4) 0.4635(5) 0.8361(4)
N12_3 N 0.3873(4) 0.4157(7) 0.8368(9)
H91_3 H 0.3050 0.4585 0.7926
H92_3 H 0.3467 0.5101 0.8381
H93_3 H 0.3811 0.3800 0.8114
C47_3 C 0.44706(19) 0.41645(19) 0.86829(17)
C48_3 C 0.4881(4) 0.3527(4) 0.8675(5)
H94_3 H 0.5278 0.3591 0.8389
H95_3 H 0.4607 0.3157 0.8497
H96_3 H 0.5025 0.3418 0.9135
H30_3 H 0.9975 0.6582 0.4135
H32_3 H 0.9722 0.6409 0.3389
H84_3 H 0.9969 0.3566 0.8493
H94_4 H 0.0278 0.1409 0.1611
H96_4 H 0.0025 0.1582 0.0865
H78_4 H 0.0031 0.8566 0.6507
H40_4 H 0.6533 0.0101 0.6619
C28_4 C 0.7749(4) 0.0069(5) 0.6112(5)
C32_4 C 0.8290(6) 0.0010(6) 0.6628(8)
H55_4 H 0.7516 0.0504 0.6189
H56_4 H 0.7971 0.0101 0.5667
H63_4 H 0.8600 0.0394 0.6553
H64_4 H 0.8072 0.0089 0.7070
C41_4 C 0.57180(18) 0.07466(19) 0.13085(18)
N11_4 N 0.6267(4) 0.0617(5) 0.1710(5)
C42_4 C 0.5412(7) 0.1442(5) 0.1289(7)
H81_4 H 0.6369 0.0908 0.2028
H82_4 H 0.5362 0.1587 0.0820
H83_4 H 0.5707 0.1758 0.1527
H84_4 H 0.4969 0.1434 0.1507
C45_4 C 0.7772(3) 0.0455(3) 0.1063(3)
H89_4 H 0.7560 0.0906 0.1096
H90_4 H 0.8003 0.0423 0.0622
C46_4 C 0.8289(4) 0.0365(5) 0.1639(4)
N12_4 N 0.8873(4) 0.0843(7) 0.1632(9)
H91_4 H 0.8050 0.0415 0.2074
H93_4 H 0.8811 0.1200 0.1886
C47_4 C 0.94706(19) 0.08355(19) 0.13171(17)
C48_4 C 0.9881(4) 0.1473(4) 0.1325(5)
H95_4 H 0.9607 0.1843 0.1503
C12_4 C 0.55294(19) 0.91645(19) 0.63171(17)
N6_4 N 0.6127(4) 0.9157(7) 0.6632(9)
C16_4 C 0.5119(4) 0.8527(4) 0.6325(5)
C20_4 C 0.6711(4) 0.9635(5) 0.6639(4)
H29_4 H 0.6189 0.8800 0.6886
H30_4 H 0.4975 0.8418 0.5865
H31_4 H 0.5393 0.8157 0.6503
H32_4 H 0.4722 0.8591 0.6611
C24_4 C 0.7228(3) 0.9545(3) 0.6063(3)
H39_4 H 0.6950 0.9585 0.7074
H47_4 H 0.6997 0.9577 0.5622
H48_4 H 0.7440 0.9094 0.6096
N10_4 N 0.8733(4) 0.9383(5) 0.6710(5)
C36_4 C 0.92820(18) 0.92534(19) 0.63085(18)
H68_4 H 0.8631 0.9092 0.7028
C40_4 C 0.9588(7) 0.8558(5) 0.6289(7)
H79_4 H 0.9638 0.8413 0.5820
H80_4 H 0.9293 0.8242 0.6527
C43_4 C 0.6710(6) 0.9990(6) 0.1628(8)
H85_4 H 0.6928 0.9911 0.2070
H86_4 H 0.6400 0.9606 0.1553
C44_4 C 0.7251(4) 0.9931(5) 0.1112(5)
H87_4 H 0.7484 0.9496 0.1189
H88_4 H 0.7029 0.9899 0.0667
H92_4 H 0.8467 0.9899 0.1619
loop_
_geom_bond_atom_site_label_1
_geom_bond_atom_site_label_2
_geom_bond_site_symmetry_1
_geom_bond_site_symmetry_2
O13 Mn2 1_555 1_555
O14 Mn2 1_555 1_555
O15 Mn2_2 1_555 1_555
C6 C5 1_555 1_555
H9 C5 1_555 1_555
H10 C5 1_555 1_555
H11 C6 1_555 1_555
H12 C6 1_555 1_555
O3 Mn1 1_555 1_555
O5 Mn1 1_555 1_555
O6 Mn1 1_555 1_555
C9 O3 1_555 1_555
C11 O5 1_555 1_555
C12 O6 1_555 1_555
N3 C9 1_555 1_555
C13 C9 1_555 1_555
N5 C11 1_555 1_555
C15 C11 1_555 1_555
N6 C12 1_555 1_555
C16 C12 1_555 1_555
H17 N3 1_555 1_555
C17 N3 1_555 1_555
H18 C13 1_555 1_555
H19 C13 1_555 1_555
H20 C13 1_555 1_555
H25 N5 1_555 1_555
C19 N5 1_555 1_555
H26 C15 1_555 1_555
H27 C15 1_555 1_555
H28 C15 1_555 1_555
C20 N6 1_555 1_555
H29 N6 1_555 1_555
H31 C16 1_555 1_555
C21 C17 1_555 1_555
H33 C17 1_555 1_555
C23 C19 1_555 1_555
H37 C19 1_555 1_555
H38 C19 1_555 1_555
C24 C20 1_555 1_555
H39 C20 1_555 1_555
H40 C20 1_555 1_555
H41 C21 1_555 1_555
H42 C21 1_555 1_555
C27 C23 1_555 1_555
H45 C23 1_555 1_555
H46 C23 1_555 1_555
H47 C24 1_555 1_555
C28 C24 1_555 1_555
H48 C24 1_555 1_555
C31 C27 1_555 1_555
H53 C27 1_555 1_555
H54 C27 1_555 1_555
C32 C28 1_555 1_555
H55 C28 1_555 1_555
H56 C28 1_555 1_555
N9 C31 1_555 1_555
H61 C31 1_555 1_555
H62 C31 1_555 1_555
N10 C32 1_555 1_555
H63 C32 1_555 1_555
H64 C32 1_555 1_555
H65 N7 1_555 1_555
C33 N7 1_555 1_555
H67 N9 1_555 1_555
C35 N9 1_555 1_555
C36 N10 1_555 1_555
H68 N10 1_555 1_555
O14 C33 1_555 1_555
C37 C33 1_555 1_555
O10 C35 1_555 1_555
C39 C35 1_555 1_555
C40 C36 1_555 1_555
O11 C36 1_555 1_555
H69 C37 1_555 1_555
H70 C37 1_555 1_555
Mn5_3 O10 1_555 1_555
H75 C39 1_555 1_555
H76 C39 1_555 1_555
H78 C40 1_555 1_555
H79 C40 1_555 1_555
H80 C40 1_555 1_555
Mn6 O11 1_555 1_555
O12 Mn2_3 1_555 1_555
C41 O12 1_555 1_555
N11 C41 1_555 1_555
C42 C41 1_555 1_555
H81 N11 1_555 1_555
C43 N11 1_555 1_555
H82 C42 1_555 1_555
H83 C42 1_555 1_555
H85 C43 1_555 1_555
H86 C43 1_555 1_555
C44 C43 1_555 1_555
H87 C44 1_555 1_555
H88 C44 1_555 1_555
C45 C44 1_555 1_555
H89 C45 1_555 1_555
H90 C45 1_555 1_555
C46 C45 1_555 1_555
N12 C46 1_555 1_555
H91 C46 1_555 1_555
H92 C46 1_555 1_555
H93 N12 1_555 1_555
C47 N12 1_555 1_555
O17 C47 1_555 1_555
C48 C47 1_555 1_555
Mn7_2 O17 1_555 1_555
H94 C48 1_555 1_555
H95 C48 1_555 1_555
H96 C48 1_555 1_555
Mn1_2 O1 1_555 1_555
O1 C1 1_555 1_555
C1 N1 1_555 1_555
N1 H1 1_555 1_555
C2 C1 1_555 1_555
C3 N1 1_555 1_555
H2 C2 1_555 1_555
H3 C2 1_555 1_555
H4 C2 1_555 1_555
C4 C3 1_555 1_555
H5 C3 1_555 1_555
H7 C4 1_555 1_555
H8 C4 1_555 1_555
H13 N2 1_555 1_555
C7 N2 1_555 1_555
O2 C7 1_555 1_555
C8 C7 1_555 1_555
Mn2_4 O2 1_555 1_555
H14 C8 1_555 1_555
H15 C8 1_555 1_555
O4 Mn1_2 1_555 1_555
O7 Mn1_2 1_555 1_555
C10 O4 1_555 1_555
N4 C10 1_555 1_555
C14 C10 1_555 1_555
H21 N4 1_555 1_555
C18 N4 1_555 1_555
H23 C14 1_555 1_555
C22 C18 1_555 1_555
H35 C18 1_555 1_555
H36 C18 1_555 1_555
C26 C22 1_555 1_555
H43 C22 1_555 1_555
H44 C22 1_555 1_555
C29 C25 1_555 1_555
H49 C25 1_555 1_555
H50 C25 1_555 1_555
C30 C26 1_555 1_555
H51 C26 1_555 1_555
H52 C26 1_555 1_555
H57 C29 1_555 1_555
H58 C29 1_555 1_555
N8 C30 1_555 1_555
H59 C30 1_555 1_555
H60 C30 1_555 1_555
H66 N8 1_555 1_555
C34 N8 1_555 1_555
O9 C34 1_555 1_555
C38 C34 1_555 1_555
Mn6 O9 1_555 1_555
H72 C38 1_555 1_555
H73 C38 1_555 1_555
H74 C38 1_555 1_555
O16 Mn2_4 1_555 1_555
O3_2 Mn1_3 1_555 1_555
O4_2 Mn1_3 1_555 1_555
O7_2 Mn1_3 1_555 1_555
C9_2 O3_2 1_555 1_555
C10_2 O4_2 1_555 1_555
N3_2 C9_2 1_555 1_555
C13_2 C9_2 1_555 1_555
N4_2 C10_2 1_555 1_555
C14_2 C10_2 1_555 1_555
H17_2 N3_2 1_555 1_555
C17_2 N3_2 1_555 1_555
H18_2 C13_2 1_555 1_555
H19_2 C13_2 1_555 1_555
H20_2 C13_2 1_555 1_555
H21_2 N4_2 1_555 1_555
C18_2 N4_2 1_555 1_555
H22_2 C14_2 1_555 1_555
H23_2 C14_2 1_555 1_555
H24_2 C14_2 1_555 1_555
C21_2 C17_2 1_555 1_555
H33_2 C17_2 1_555 1_555
H34_2 C17_2 1_555 1_555
C22_2 C18_2 1_555 1_555
H35_2 C18_2 1_555 1_555
C25_2 C21_2 1_555 1_555
H41_2 C21_2 1_555 1_555
H42_2 C21_2 1_555 1_555
H43_2 C22_2 1_555 1_555
H44_2 C22_2 1_555 1_555
C29_2 C25_2 1_555 1_555
H49_2 C25_2 1_555 1_555
H50_2 C25_2 1_555 1_555
C32_2 C28_2 1_555 1_555
H55_2 C28_2 1_555 1_555
H56_2 C28_2 1_555 1_555
N7_2 C29_2 1_555 1_555
H57_2 C29_2 1_555 1_555
H58_2 C29_2 1_555 1_555
H63_2 C32_2 1_555 1_555
H64_2 C32_2 1_555 1_555
H65_2 N7_2 1_555 1_555
C33_2 N7_2 1_555 1_555
H66_2 N8_2 1_555 1_555
C34_2 N8_2 1_555 1_555
O8 C33_2 1_555 1_555
C37_2 C33_2 1_555 1_555
O9_2 C34_2 1_555 1_555
C38_2 C34_2 1_555 1_555
Mn3_2 O8 1_555 1_555
H69_2 C37_2 1_555 1_555
H70_2 C37_2 1_555 1_555
Mn5 O9_2 1_555 1_555
H72_2 C38_2 1_555 1_555
H73_2 C38_2 1_555 1_555
O12_2 Mn3 1_555 1_555
O16_2 Mn3 1_555 1_555
C41_2 O12_2 1_555 1_555
N11_2 C41_2 1_555 1_555
C42_2 C41_2 1_555 1_555
H81_2 N11_2 1_555 1_555
H82_2 C42_2 1_555 1_555
H83_2 C42_2 1_555 1_555
H84_2 C42_2 1_555 1_555
H89_2 C45_2 1_555 1_555
H90_2 C45_2 1_555 1_555
C46_2 C45_2 1_555 1_555
N12_2 C46_2 1_555 1_555
H91_2 C46_2 1_555 1_555
H93_2 N12_2 1_555 1_555
C47_2 N12_2 1_555 1_555
O17_2 C47_2 1_555 1_555
C48_2 C47_2 1_555 1_555
Mn7_4 O17_2 1_555 1_555
H95_2 C48_2 1_555 1_555
Mn1_4 O1_2 1_555 1_555
O1_2 C1_2 1_555 1_555
C1_2 N1_2 1_555 1_555
N1_2 H1_2 1_555 1_555
C2_2 C1_2 1_555 1_555
C3_2 N1_2 1_555 1_555
H2_2 C2_2 1_555 1_555
H3_2 C2_2 1_555 1_555
H4_2 C2_2 1_555 1_555
C4_2 C3_2 1_555 1_555
H5_2 C3_2 1_555 1_555
H6_2 C3_2 1_555 1_555
C5_2 C4_2 1_555 1_555
H7_2 C4_2 1_555 1_555
H8_2 C4_2 1_555 1_555
C6_2 C5_2 1_555 1_555
H9_2 C5_2 1_555 1_555
H10_2 C5_2 1_555 1_555
N2_2 C6_2 1_555 1_555
H11_2 C6_2 1_555 1_555
H12_2 C6_2 1_555 1_555
H13_2 N2_2 1_555 1_555
C7_2 N2_2 1_555 1_555
O2_2 C7_2 1_555 1_555
C8_2 C7_2 1_555 1_555
Mn3_3 O2_2 1_555 1_555
H14_2 C8_2 1_555 1_555
H15_2 C8_2 1_555 1_555
O5_2 Mn1_4 1_555 1_555
O6_2 Mn1_4 1_555 1_555
C11_2 O5_2 1_555 1_555
C12_2 O6_2 1_555 1_555
N5_2 C11_2 1_555 1_555
C15_2 C11_2 1_555 1_555
N6_2 C12_2 1_555 1_555
C16_2 C12_2 1_555 1_555
H25_2 N5_2 1_555 1_555
C19_2 N5_2 1_555 1_555
H27_2 C15_2 1_555 1_555
C20_2 N6_2 1_555 1_555
H29_2 N6_2 1_555 1_555
H30_2 C16_2 1_555 1_555
H31_2 C16_2 1_555 1_555
H32_2 C16_2 1_555 1_555
C23_2 C19_2 1_555 1_555
H37_2 C19_2 1_555 1_555
H38_2 C19_2 1_555 1_555
C24_2 C20_2 1_555 1_555
H39_2 C20_2 1_555 1_555
C27_2 C23_2 1_555 1_555
H45_2 C23_2 1_555 1_555
H46_2 C23_2 1_555 1_555
H47_2 C24_2 1_555 1_555
H48_2 C24_2 1_555 1_555
C30_2 C26_2 1_555 1_555
H51_2 C26_2 1_555 1_555
H52_2 C26_2 1_555 1_555
C31_2 C27_2 1_555 1_555
H53_2 C27_2 1_555 1_555
H54_2 C27_2 1_555 1_555
H59_2 C30_2 1_555 1_555
H60_2 C30_2 1_555 1_555
N9_2 C31_2 1_555 1_555
H61_2 C31_2 1_555 1_555
H62_2 C31_2 1_555 1_555
H67_2 N9_2 1_555 1_555
C35_2 N9_2 1_555 1_555
C36_2 N10_2 1_555 1_555
H68_2 N10_2 1_555 1_555
O10_2 C35_2 1_555 1_555
C39_2 C35_2 1_555 1_555
C40_2 C36_2 1_555 1_555
O11_2 C36_2 1_555 1_555
Mn6 O10_2 1_555 1_555
H75_2 C39_2 1_555 1_555
H76_2 C39_2 1_555 1_555
H77_2 C39_2 1_555 1_555
H79_2 C40_2 1_555 1_555
H80_2 C40_2 1_555 1_555
Mn5_4 O11_2 1_555 1_555
H85_2 C43_2 1_555 1_555
H86_2 C43_2 1_555 1_555
C44_2 C43_2 1_555 1_555
H87_2 C44_2 1_555 1_555
H88_2 C44_2 1_555 1_555
O13_2 Mn3_4 1_555 1_555
O15_2 Mn3_4 1_555 1_555
Mn7 O1_3 1_555 1_555
O1_3 C1_3 1_555 1_555
C1_3 N1_3 1_555 1_555
N1_3 H1_3 1_555 1_555
C2_3 C1_3 1_555 1_555
C3_3 N1_3 1_555 1_555
H3_3 C2_3 1_555 1_555
C4_3 C3_3 1_555 1_555
H5_3 C3_3 1_555 1_555
H6_3 C3_3 1_555 1_555
C5_3 C4_3 1_555 1_555
H7_3 C4_3 1_555 1_555
H8_3 C4_3 1_555 1_555
C6_3 C5_3 1_555 1_555
H9_3 C5_3 1_555 1_555
H10_3 C5_3 1_555 1_555
N2_3 C6_3 1_555 1_555
H11_3 C6_3 1_555 1_555
H12_3 C6_3 1_555 1_555
H13_3 N2_3 1_555 1_555
C7_3 N2_3 1_555 1_555
O2_3 C7_3 1_555 1_555
C8_3 C7_3 1_555 1_555
Mn6 O2_3 1_555 1_555
H14_3 C8_3 1_555 1_555
H15_3 C8_3 1_555 1_555
H16_3 C8_3 1_555 1_555
O4_3 Mn7 1_555 1_555
O5_3 Mn7 1_555 1_555
C10_3 O4_3 1_555 1_555
C11_3 O5_3 1_555 1_555
N4_3 C10_3 1_555 1_555
C14_3 C10_3 1_555 1_555
N5_3 C11_3 1_555 1_555
C15_3 C11_3 1_555 1_555
H21_3 N4_3 1_555 1_555
C18_3 N4_3 1_555 1_555
H22_3 C14_3 1_555 1_555
H23_3 C14_3 1_555 1_555
H24_3 C14_3 1_555 1_555
H25_3 N5_3 1_555 1_555
C19_3 N5_3 1_555 1_555
H26_3 C15_3 1_555 1_555
H27_3 C15_3 1_555 1_555
H28_3 C15_3 1_555 1_555
C22_3 C18_3 1_555 1_555
H35_3 C18_3 1_555 1_555
H36_3 C18_3 1_555 1_555
C23_3 C19_3 1_555 1_555
H37_3 C19_3 1_555 1_555
C26_3 C22_3 1_555 1_555
H43_3 C22_3 1_555 1_555
H44_3 C22_3 1_555 1_555
H45_3 C23_3 1_555 1_555
H46_3 C23_3 1_555 1_555
C30_3 C26_3 1_555 1_555
H51_3 C26_3 1_555 1_555
H52_3 C26_3 1_555 1_555
N8_3 C30_3 1_555 1_555
H59_3 C30_3 1_555 1_555
H60_3 C30_3 1_555 1_555
H66_3 N8_3 1_555 1_555
C34_3 N8_3 1_555 1_555
H67_3 N9_3 1_555 1_555
C35_3 N9_3 1_555 1_555
O15 C34_3 1_555 1_555
C38_3 C34_3 1_555 1_555
O16_2 C35_3 1_555 1_555
C39_3 C35_3 1_555 1_555
H72_3 C38_3 1_555 1_555
H73_3 C38_3 1_555 1_555
H75_3 C39_3 1_555 1_555
H76_3 C39_3 1_555 1_555
O13_3 Mn6 1_555 1_555
O14_2 Mn6 1_555 1_555
O3_3 Mn7_2 1_555 1_555
O7_3 Mn7_2 1_555 1_555
C9_3 O3_3 1_555 1_555
N3_3 C9_3 1_555 1_555
C13_3 C9_3 1_555 1_555
H17_3 N3_3 1_555 1_555
C17_3 N3_3 1_555 1_555
H19_3 C13_3 1_555 1_555
C21_3 C17_3 1_555 1_555
H33_3 C17_3 1_555 1_555
H34_3 C17_3 1_555 1_555
C25_3 C21_3 1_555 1_555
H41_3 C21_3 1_555 1_555
H42_3 C21_3 1_555 1_555
C29_3 C25_3 1_555 1_555
H49_3 C25_3 1_555 1_555
H50_3 C25_3 1_555 1_555
C31_3 C27_3 1_555 1_555
H53_3 C27_3 1_555 1_555
H54_3 C27_3 1_555 1_555
N7_3 C29_3 1_555 1_555
H57_3 C29_3 1_555 1_555
H58_3 C29_3 1_555 1_555
H61_3 C31_3 1_555 1_555
H62_3 C31_3 1_555 1_555
H65_3 N7_3 1_555 1_555
C33_3 N7_3 1_555 1_555
O14_2 C33_3 1_555 1_555
C37_3 C33_3 1_555 1_555
H69_3 C37_3 1_555 1_555
H70_3 C37_3 1_555 1_555
H71_3 C37_3 1_555 1_555
C31_4 C27_4 1_555 1_555
H53_4 C27_4 1_555 1_555
H54_4 C27_4 1_555 1_555
H61_4 C31_4 1_555 1_555
H62_4 C31_4 1_555 1_555
Mn7_5 O1_4 1_555 1_555
O1_4 C1_4 1_555 1_555
C1_4 N1_4 1_555 1_555
N1_4 H1_4 1_555 1_555
C2_4 C1_4 1_555 1_555
C3_4 N1_4 1_555 1_555
H3_4 C2_4 1_555 1_555
C4_4 C3_4 1_555 1_555
H5_4 C3_4 1_555 1_555
H7_4 C4_4 1_555 1_555
H8_4 C4_4 1_555 1_555
H13_4 N2_4 1_555 1_555
C7_4 N2_4 1_555 1_555
O2_4 C7_4 1_555 1_555
C8_4 C7_4 1_555 1_555
Mn5 O2_4 1_555 1_555
H14_4 C8_4 1_555 1_555
H15_4 C8_4 1_555 1_555
H16_4 C8_4 1_555 1_555
C30_4 C26_4 1_555 1_555
H51_4 C26_4 1_555 1_555
H52_4 C26_4 1_555 1_555
H59_4 C30_4 1_555 1_555
H60_4 C30_4 1_555 1_555
C6_4 C5_4 1_555 1_555
H9_4 C5_4 1_555 1_555
H10_4 C5_4 1_555 1_555
H11_4 C6_4 1_555 1_555
H12_4 C6_4 1_555 1_555
O5_4 Mn7_6 1_555 1_555
C11_4 O5_4 1_555 1_555
N5_4 C11_4 1_555 1_555
C15_4 C11_4 1_555 1_555
H25_4 N5_4 1_555 1_555
C19_4 N5_4 1_555 1_555
H27_4 C15_4 1_555 1_555
C23_4 C19_4 1_555 1_555
H37_4 C19_4 1_555 1_555
H45_4 C23_4 1_555 1_555
H46_4 C23_4 1_555 1_555
H67_4 N9_4 1_555 1_555
C35_4 N9_4 1_555 1_555
O16 C35_4 1_555 1_555
C39_4 C35_4 1_555 1_555
H75_4 C39_4 1_555 1_555
H76_4 C39_4 1_555 1_555
H77_4 C39_4 1_555 1_555
O13_4 Mn5_2 1_555 1_555
O7_4 Mn7_7 1_555 1_555
C29_4 C25_4 1_555 1_555
H49_4 C25_4 1_555 1_555
H50_4 C25_4 1_555 1_555
H57_4 C29_4 1_555 1_555
H58_4 C29_4 1_555 1_555
O3_4 Mn7_8 1_555 1_555
C9_4 O3_4 1_555 1_555
N3_4 C9_4 1_555 1_555
C13_4 C9_4 1_555 1_555
H17_4 N3_4 1_555 1_555
C17_4 N3_4 1_555 1_555
H19_4 C13_4 1_555 1_555
C21_4 C17_4 1_555 1_555
H33_4 C17_4 1_555 1_555
H41_4 C21_4 1_555 1_555
H42_4 C21_4 1_555 1_555
H65_4 N7_4 1_555 1_555
C33_4 N7_4 1_555 1_555
O8_2 C33_4 1_555 1_555
C37_4 C33_4 1_555 1_555
Mn5_4 O8_2 1_555 1_555
H69_4 C37_4 1_555 1_555
H70_4 C37_4 1_555 1_555
H71_4 C37_4 1_555 1_555
O4_4 Mn7_9 1_555 1_555
C10_4 O4_4 1_555 1_555
N4_4 C10_4 1_555 1_555
C14_4 C10_4 1_555 1_555
H21_4 N4_4 1_555 1_555
C18_4 N4_4 1_555 1_555
H23_4 C14_4 1_555 1_555
C22_4 C18_4 1_555 1_555
H35_4 C18_4 1_555 1_555
H43_4 C22_4 1_555 1_555
H44_4 C22_4 1_555 1_555
H66_4 N8_4 1_555 1_555
C34_4 N8_4 1_555 1_555
O15_2 C34_4 1_555 1_555
C38_4 C34_4 1_555 1_555
H72_4 C38_4 1_555 1_555
H73_4 C38_4 1_555 1_555
H74_4 C38_4 1_555 1_555
C12_3 O7_2 1_555 1_555
N6_3 C12_3 1_555 1_555
C16_3 C12_3 1_555 1_555
C20_3 N6_3 1_555 1_555
H29_3 N6_3 1_555 1_555
H31_3 C16_3 1_555 1_555
C24_3 C20_3 1_555 1_555
H39_3 C20_3 1_555 1_555
H40_3 C20_3 1_555 1_555
H47_3 C24_3 1_555 1_555
C28_3 C24_3 1_555 1_555
H48_3 C24_3 1_555 1_555
C32_3 C28_3 1_555 1_555
H55_3 C28_3 1_555 1_555
H56_3 C28_3 1_555 1_555
N10_3 C32_3 1_555 1_555
H63_3 C32_3 1_555 1_555
H64_3 C32_3 1_555 1_555
C36_3 N10_3 1_555 1_555
H68_3 N10_3 1_555 1_555
C40_3 C36_3 1_555 1_555
O13_3 C36_3 1_555 1_555
H78_3 C40_3 1_555 1_555
H79_3 C40_3 1_555 1_555
H80_3 C40_3 1_555 1_555
C41_3 O13_4 1_555 1_555
N11_3 C41_3 1_555 1_555
C42_3 C41_3 1_555 1_555
H81_3 N11_3 1_555 1_555
C43_3 N11_3 1_555 1_555
H82_3 C42_3 1_555 1_555
H83_3 C42_3 1_555 1_555
H85_3 C43_3 1_555 1_555
H86_3 C43_3 1_555 1_555
C44_3 C43_3 1_555 1_555
H87_3 C44_3 1_555 1_555
H88_3 C44_3 1_555 1_555
C45_3 C44_3 1_555 1_555
H89_3 C45_3 1_555 1_555
H90_3 C45_3 1_555 1_555
C46_3 C45_3 1_555 1_555
N12_3 C46_3 1_555 1_555
H91_3 C46_3 1_555 1_555
H92_3 C46_3 1_555 1_555
H93_3 N12_3 1_555 1_555
C47_3 N12_3 1_555 1_555
O7 C47_3 1_555 1_555
C48_3 C47_3 1_555 1_555
H94_3 C48_3 1_555 1_555
H95_3 C48_3 1_555 1_555
H96_3 C48_3 1_555 1_555
C32_4 C28_4 1_555 1_555
H55_4 C28_4 1_555 1_555
H56_4 C28_4 1_555 1_555
H63_4 C32_4 1_555 1_555
H64_4 C32_4 1_555 1_555
C41_4 O13 1_555 1_555
N11_4 C41_4 1_555 1_555
C42_4 C41_4 1_555 1_555
H81_4 N11_4 1_555 1_555
H82_4 C42_4 1_555 1_555
H83_4 C42_4 1_555 1_555
H84_4 C42_4 1_555 1_555
H89_4 C45_4 1_555 1_555
H90_4 C45_4 1_555 1_555
C46_4 C45_4 1_555 1_555
N12_4 C46_4 1_555 1_555
H91_4 C46_4 1_555 1_555
H93_4 N12_4 1_555 1_555
C47_4 N12_4 1_555 1_555
O7_4 C47_4 1_555 1_555
C48_4 C47_4 1_555 1_555
H95_4 C48_4 1_555 1_555
C12_4 O7_3 1_555 1_555
N6_4 C12_4 1_555 1_555
C16_4 C12_4 1_555 1_555
C20_4 N6_4 1_555 1_555
H29_4 N6_4 1_555 1_555
H30_4 C16_4 1_555 1_555
H31_4 C16_4 1_555 1_555
H32_4 C16_4 1_555 1_555
C24_4 C20_4 1_555 1_555
H39_4 C20_4 1_555 1_555
H47_4 C24_4 1_555 1_555
H48_4 C24_4 1_555 1_555
C36_4 N10_4 1_555 1_555
H68_4 N10_4 1_555 1_555
C40_4 C36_4 1_555 1_555
O13_2 C36_4 1_555 1_555
H79_4 C40_4 1_555 1_555
H80_4 C40_4 1_555 1_555
H85_4 C43_4 1_555 1_555
H86_4 C43_4 1_555 1_555
C44_4 C43_4 1_555 1_555
H87_4 C44_4 1_555 1_555
H88_4 C44_4 1_555 1_555

#END
