
###############################################################################
#
# This file contains modified crystal structure data generated from the
# MOF subset of the Cambridge Structural Database (CSD) v543 
# hosted by the Cambridge Crystallographic Data Centre (CCDC).
#
# This work is licensed under the Creative Commons
# Attribution-NonCommercial-ShareAlike 4.0 International License.
# To view a copy of this license, visit
# http://creativecommons.org/licenses/by-nc-sa/4.0/
# or send a letter to
# Creative Commons, PO Box 1866, Mountain View, CA 94042, USA.
#
# CIF created using the CSD Python API on 29 September 2022
# The structure has been converted into the P1 space group
# The structure has a 3D framework
# The original CSD entry OMAQEB is in the cubic crystal system
# The framework has been calculated to contain at least 10.0% void space
# The void calculation uses a probe of radius 1.32A, grid spacing 0.4
# The framework is charged, counterions have been retained in the structure
#
###############################################################################

data_OMAQEB
_chemical_formula_moiety         '(C192 H384 Fe18 N48 O48 36+)n'
_symmetry_cell_setting           triclinic
_symmetry_space_group_name_H-M   'P 1'
_symmetry_Int_Tables_number      1
_space_group_name_Hall           'P 1'
loop_
_symmetry_equiv_pos_site_id
_symmetry_equiv_pos_as_xyz
1 x,y,z
_cell_length_a                   19.2987(8)
_cell_length_b                   19.2987(8)
_cell_length_c                   19.2987(8)
_cell_angle_alpha                90
_cell_angle_beta                 90
_cell_angle_gamma                90
_cell_volume                     7187.6
loop_
_atom_site_label
_atom_site_type_symbol
_atom_site_fract_x
_atom_site_fract_y
_atom_site_fract_z
Fe4 Fe 0.0000 -0.0000 0.5000
Fe7 Fe 0.0000 0.5000 -0.0000
Fe1 Fe 0.0000 0.5000 0.5000
O1 O 0.08962(18) 0.4529(2) 0.4599(2)
C1 C 0.1058(2) 0.3944(3) 0.4383(3)
N1 N 0.1478(2) 0.3878(3) 0.3842(3)
C2 C 0.0802(4) 0.3303(3) 0.4714(3)
H1 H 0.1620 0.3451 0.3768
C3 C 0.1745(6) 0.4376(6) 0.3354(6)
H2 H 0.1033 0.3240 0.5163
H3 H 0.0904 0.2906 0.4415
H4 H 0.0301 0.3337 0.4785
C4 C 0.2467(8) 0.4515(10) 0.3571(7)
H5 H 0.1467 0.4807 0.3366
H6 H 0.1734 0.4186 0.2878
H7 H 0.2723 0.4072 0.3602
H8 H 0.2465 0.4730 0.4037
C5 C 0.2826(6) 0.4985(6) 0.3072(6)
C6 C 0.3514(5) 0.5243(5) 0.3321(5)
H9 H 0.2523 0.5388 0.2978
H10 H 0.2894 0.4735 0.2630
N2 N 0.3424(3) 0.5765(4) 0.3844(3)
H11 H 0.3784 0.4852 0.3513
H12 H 0.3776 0.5439 0.2926
H13 H 0.3198 0.6144 0.3729
C7 C 0.3659(4) 0.5716(4) 0.4486(4)
O2 O 0.3957(3) 0.5189(3) 0.4707(3)
C8 C 0.3576(3) 0.6337(3) 0.5003(3)
Fe2 Fe 0.5000 0.5000 0.5000
H14 H 0.3264 0.6203 0.5380
H15 H 0.3383 0.6737 0.4757
H16 H 0.4030 0.6459 0.5195
O4 O 0.0401(2) 0.58962(18) 0.4529(2)
O7 O 0.0471(2) 0.5401(2) 0.58962(18)
C10 C 0.0617(3) 0.6058(2) 0.3944(3)
C13 C 0.1056(3) 0.5617(3) 0.6058(2)
N4 N 0.1158(3) 0.6478(2) 0.3878(3)
C15 C 0.0286(3) 0.5802(4) 0.3303(3)
N7 N 0.1122(3) 0.6158(3) 0.6478(2)
C18 C 0.1697(3) 0.5286(3) 0.5802(4)
H21 H 0.1232 0.6620 0.3451
C20 C 0.1646(6) 0.6745(6) 0.4376(6)
H23 H 0.0585 0.5904 0.2906
H24 H 0.0215 0.5301 0.3337
H29 H 0.0163 0.3967 0.6760
H33 H 0.1549 0.6232 0.6620
C23 C 0.0624(6) 0.6646(6) 0.6745(6)
H34 H 0.2094 0.5585 0.5904
H35 H 0.1760 0.4837 0.6033
H36 H 0.1663 0.5215 0.5301
C25 C 0.1429(7) 0.7467(8) 0.4515(10)
H39 H 0.1634 0.6467 0.4807
H40 H 0.2122 0.6734 0.4186
C28 C 0.0485(10) 0.6429(7) 0.7467(8)
H45 H 0.0193 0.6634 0.6467
H46 H 0.0814 0.7122 0.6734
H49 H 0.1398 0.7723 0.4072
H50 H 0.0963 0.7465 0.4730
C30 C 0.1928(6) 0.7826(6) 0.4985(6)
C33 C 0.0015(6) 0.6928(6) 0.7826(6)
H55 H 0.0270 0.5963 0.7465
H56 H 0.0928 0.6398 0.7723
C35 C 0.1679(5) 0.8514(5) 0.5243(5)
H59 H 0.2022 0.7523 0.5388
H60 H 0.2370 0.7894 0.4735
C36 C 0.0243(5) 0.3321(5) 0.1486(5)
H61 H 0.0388 0.2978 0.2477
H66 H 0.0265 0.7370 0.7894
N9 N 0.1156(3) 0.8424(3) 0.5765(4)
H69 H 0.1487 0.8784 0.4852
H70 H 0.2074 0.8776 0.5439
N10 N 0.0765(4) 0.3844(3) 0.1576(3)
H72 H 0.0439 0.2926 0.1224
H76 H 0.0148 0.6487 0.8784
H78 H 0.1271 0.8198 0.6144
C40 C 0.0514(4) 0.8659(4) 0.5716(4)
H79 H 0.1144 0.3729 0.1802
C41 C 0.0716(4) 0.4486(4) 0.1341(4)
O9 O 0.0293(3) 0.8957(3) 0.5189(3)
O10 O 0.0189(3) 0.4707(3) 0.1043(3)
C46 C 0.1337(3) 0.5003(3) 0.1424(3)
C47 C 0.0003(3) 0.1424(3) 0.3663(3)
Fe4_2 Fe 0.0000 1.0000 0.5000
H86 H 0.0243 0.8383 0.6737
H88 H 0.1203 0.5380 0.1736
H89 H 0.1737 0.4757 0.1617
H90 H 0.1459 0.5195 0.0970
H91 H 0.0380 0.1736 0.3797
H92 H 0.0195 0.0970 0.3541
Fe7_2 Fe 0.0000 0.5000 1.0000
O13 O 0.4707(3) 0.3957(3) 0.5189(3)
O14 O 0.5189(3) 0.4707(3) 0.3957(3)
O15 O 0.6043(3) 0.4811(3) 0.5293(3)
O16 O 0.5293(3) 0.6043(3) 0.4811(3)
O17 O 0.4811(3) 0.5293(3) 0.6043(3)
Fe4_3 Fe 1.0000 -0.0000 0.5000
Fe7_3 Fe 1.0000 0.5000 -0.0000
Fe1_2 Fe 1.0000 0.5000 0.5000
O3 O 0.91038(18) 0.5471(2) 0.5401(2)
O5 O 0.9529(2) 0.4599(2) 0.41038(18)
O6 O 0.9599(2) 0.41038(18) 0.5471(2)
C9 C 0.8942(2) 0.6056(3) 0.5617(3)
C11 C 0.8944(3) 0.4383(3) 0.3942(2)
C12 C 0.9383(3) 0.3942(2) 0.6056(3)
N3 N 0.8522(2) 0.6122(3) 0.6158(3)
C14 C 0.9198(4) 0.6697(3) 0.5286(3)
N5 N 0.8878(3) 0.3842(3) 0.3522(2)
C16 C 0.8303(3) 0.4714(3) 0.4198(4)
C17 C 0.9714(3) 0.4198(4) 0.6697(3)
N6 N 0.8842(3) 0.3522(2) 0.6122(3)
H17 H 0.8380 0.6549 0.6232
C19 C 0.8255(6) 0.5624(6) 0.6646(6)
H18 H 0.8967 0.6760 0.4837
H19 H 0.9096 0.7094 0.5585
H20 H 0.9699 0.6663 0.5215
H22 H 0.9837 0.6033 0.3240
H25 H 0.8451 0.3768 0.3380
C21 C 0.9376(6) 0.3354(6) 0.3255(6)
H26 H 0.8240 0.5163 0.3967
H27 H 0.7906 0.4415 0.4096
H28 H 0.8337 0.4785 0.4699
H30 H 0.9785 0.4699 0.6663
H31 H 0.9415 0.4096 0.7094
C22 C 0.8354(6) 0.3255(6) 0.5624(6)
H32 H 0.8768 0.3380 0.6549
C24 C 0.7533(8) 0.5485(10) 0.6429(7)
H37 H 0.8533 0.5193 0.6634
H38 H 0.8266 0.5814 0.7122
C26 C 0.9515(10) 0.3571(7) 0.2533(8)
H41 H 0.9807 0.3366 0.3533
H42 H 0.9186 0.2878 0.3266
C27 C 0.8571(7) 0.2533(8) 0.5485(10)
H43 H 0.7878 0.3266 0.5814
H44 H 0.8366 0.3533 0.5193
H47 H 0.7277 0.5928 0.6398
H48 H 0.7535 0.5270 0.5963
C29 C 0.7174(6) 0.5015(6) 0.6928(6)
H51 H 0.9072 0.3602 0.2277
H52 H 0.9730 0.4037 0.2535
C31 C 0.9985(6) 0.3072(6) 0.2174(6)
H53 H 0.8602 0.2277 0.5928
H54 H 0.9037 0.2535 0.5270
C32 C 0.8072(6) 0.2174(6) 0.5015(6)
C34 C 0.6486(5) 0.4757(5) 0.6679(5)
H57 H 0.7477 0.4612 0.7022
H58 H 0.7106 0.5265 0.7370
H62 H 0.9735 0.2630 0.2106
C37 C 0.8321(5) 0.1486(5) 0.4757(5)
H63 H 0.7630 0.2106 0.5265
H64 H 0.7978 0.2477 0.4612
C38 C 0.9757(5) 0.6679(5) 0.8514(5)
H65 H 0.9612 0.7022 0.7523
N8 N 0.6576(3) 0.4235(4) 0.6156(3)
H67 H 0.6216 0.5148 0.6487
H68 H 0.6224 0.4561 0.7074
H71 H 0.9852 0.3513 0.1216
N11 N 0.8844(3) 0.1576(3) 0.4235(4)
H73 H 0.7926 0.1224 0.4561
H74 H 0.8513 0.1216 0.5148
N12 N 0.9235(4) 0.6156(3) 0.8424(3)
H75 H 0.9561 0.7074 0.8776
H77 H 0.6802 0.3856 0.6271
C39 C 0.6341(4) 0.4284(4) 0.5514(4)
C42 C 0.9486(4) 0.1341(4) 0.4284(4)
H80 H 0.8729 0.1802 0.3856
C43 C 0.9284(4) 0.5514(4) 0.8659(4)
H81 H 0.8856 0.6271 0.8198
C44 C 0.6424(3) 0.3663(3) 0.4997(3)
C45 C 0.9997(3) 0.8576(3) 0.6337(3)
O11 O 0.9707(3) 0.1043(3) 0.4811(3)
C48 C 0.8663(3) 0.4997(3) 0.8576(3)
O12 O 0.9811(3) 0.5293(3) 0.8957(3)
H82 H 0.6736 0.3797 0.4620
H83 H 0.6617 0.3263 0.5243
H84 H 0.5970 0.3541 0.4805
Fe4_4 Fe 1.0000 1.0000 0.5000
H85 H 0.9620 0.8264 0.6203
H87 H 0.9805 0.9030 0.6459
H93 H 0.9757 0.1617 0.3263
H94 H 0.8263 0.5243 0.8383
H95 H 0.8541 0.4805 0.9030
H96 H 0.8797 0.4620 0.8264
Fe7_4 Fe 1.0000 0.5000 1.0000
Fe6 Fe 0.5000 -0.0000 -0.0000
Fe6_2 Fe 0.5000 0.0000 1.0000
Fe1_3 Fe 0.5000 0.5000 -0.0000
H2_2 H 0.3967 0.6760 0.0163
C8_2 C 0.1424(3) 0.3663(3) 0.0003(3)
H14_2 H 0.1736 0.3797 0.0380
H16_2 H 0.0970 0.3541 0.0195
O3_2 O 0.58962(18) 0.4529(2) 0.0401(2)
O6_2 O 0.5401(2) 0.58962(18) 0.0471(2)
O7_2 O 0.4529(2) 0.4599(2) 0.08962(18)
C9_2 C 0.6058(2) 0.3944(3) 0.0617(3)
C12_2 C 0.5617(3) 0.6058(2) 0.1056(3)
C13_2 C 0.3944(3) 0.4383(3) 0.1058(2)
N3_2 N 0.6478(2) 0.3878(3) 0.1158(3)
C14_2 C 0.5802(4) 0.3303(3) 0.0286(3)
C17_2 C 0.5286(3) 0.5802(4) 0.1697(3)
N6_2 N 0.6158(3) 0.6478(2) 0.1122(3)
N7_2 N 0.3878(3) 0.3842(3) 0.1478(2)
C18_2 C 0.3303(3) 0.4714(3) 0.0802(4)
H17_2 H 0.6620 0.3451 0.1232
C19_2 C 0.6745(6) 0.4376(6) 0.1646(6)
H19_2 H 0.5904 0.2906 0.0585
H20_2 H 0.5301 0.3337 0.0215
H29_2 H 0.4837 0.6033 0.1760
H30_2 H 0.5215 0.5301 0.1663
H31_2 H 0.5585 0.5904 0.2094
C22_2 C 0.6646(6) 0.6745(6) 0.0624(6)
H32_2 H 0.6232 0.6620 0.1549
H33_2 H 0.3451 0.3768 0.1620
C23_2 C 0.4376(6) 0.3354(6) 0.1745(6)
H34_2 H 0.2906 0.4415 0.0904
H35_2 H 0.3240 0.5163 0.1033
H36_2 H 0.3337 0.4785 0.0301
C24_2 C 0.7467(8) 0.4515(10) 0.1429(7)
H37_2 H 0.6467 0.4807 0.1634
H38_2 H 0.6734 0.4186 0.2122
C27_2 C 0.6429(7) 0.7467(8) 0.0485(10)
H43_2 H 0.7122 0.6734 0.0814
H44_2 H 0.6634 0.6467 0.0193
C28_2 C 0.4515(10) 0.3571(7) 0.2467(8)
H45_2 H 0.4807 0.3366 0.1467
H46_2 H 0.4186 0.2878 0.1734
H47_2 H 0.7723 0.4072 0.1398
H48_2 H 0.7465 0.4730 0.0963
C29_2 C 0.7826(6) 0.4985(6) 0.1928(6)
H53_2 H 0.6398 0.7723 0.0928
H54_2 H 0.5963 0.7465 0.0270
C32_2 C 0.6928(6) 0.7826(6) 0.0015(6)
C33_2 C 0.4985(6) 0.3072(6) 0.2826(6)
H55_2 H 0.4730 0.4037 0.2465
H56_2 H 0.4072 0.3602 0.2723
C34_2 C 0.8514(5) 0.5243(5) 0.1679(5)
H57_2 H 0.7523 0.5388 0.2022
H58_2 H 0.7894 0.4735 0.2370
C35_2 C 0.3321(5) 0.1486(5) 0.0243(5)
H59_2 H 0.2978 0.2477 0.0388
H63_2 H 0.7370 0.7894 0.0265
C38_2 C 0.5243(5) 0.3321(5) 0.3514(5)
H65_2 H 0.5388 0.2978 0.2523
H66_2 H 0.4735 0.2630 0.2894
N8_2 N 0.8424(3) 0.5765(4) 0.1156(3)
H67_2 H 0.8784 0.4852 0.1487
H68_2 H 0.8776 0.5439 0.2074
N9_2 N 0.3844(3) 0.1576(3) 0.0765(4)
H70_2 H 0.2926 0.1224 0.0439
H74_2 H 0.6487 0.8784 0.0148
N12_2 N 0.5765(4) 0.3844(3) 0.3424(3)
H75_2 H 0.5439 0.2926 0.3776
H76_2 H 0.4852 0.3513 0.3784
H77_2 H 0.8198 0.6144 0.1271
C39_2 C 0.8659(4) 0.5716(4) 0.0514(4)
H78_2 H 0.3729 0.1802 0.1144
C40_2 C 0.4486(4) 0.1341(4) 0.0716(4)
C43_2 C 0.5716(4) 0.4486(4) 0.3659(4)
H81_2 H 0.6144 0.3729 0.3198
O8 O 0.8957(3) 0.5189(3) 0.0293(3)
O9_2 O 0.4707(3) 0.1043(3) 0.0189(3)
C45_2 C 0.5003(3) 0.1424(3) 0.1337(3)
C48_2 C 0.6337(3) 0.5003(3) 0.3576(3)
H83_2 H 0.8383 0.6737 0.0243
H85_2 H 0.5380 0.1736 0.1203
H86_2 H 0.4757 0.1617 0.1737
H87_2 H 0.5195 0.0970 0.1459
Fe6_3 Fe 0.5000 1.0000 -0.0000
H94_2 H 0.6737 0.4757 0.3383
H95_2 H 0.6459 0.5195 0.4030
H96_2 H 0.6203 0.5380 0.3264
O13_2 O 0.0293(3) 0.6043(3) 0.0189(3)
Fe1_4 Fe 0.5000 0.5000 1.0000
O1_2 O 0.41038(18) 0.5471(2) 0.9599(2)
C1_2 C 0.3942(2) 0.6056(3) 0.9383(3)
N1_2 N 0.3522(2) 0.6122(3) 0.8842(3)
C2_2 C 0.4198(4) 0.6697(3) 0.9714(3)
H1_2 H 0.3380 0.6549 0.8768
C3_2 C 0.3255(6) 0.5624(6) 0.8354(6)
H3_2 H 0.4096 0.7094 0.9415
H4_2 H 0.4699 0.6663 0.9785
C4_2 C 0.2533(8) 0.5485(10) 0.8571(7)
H5_2 H 0.3533 0.5193 0.8366
H6_2 H 0.3266 0.5814 0.7878
H7_2 H 0.2277 0.5928 0.8602
H8_2 H 0.2535 0.5270 0.9037
C5_2 C 0.2174(6) 0.5015(6) 0.8072(6)
C6_2 C 0.1486(5) 0.4757(5) 0.8321(5)
H9_2 H 0.2477 0.4612 0.7978
H10_2 H 0.2106 0.5265 0.7630
N2_2 N 0.1576(3) 0.4235(4) 0.8844(3)
H11_2 H 0.1216 0.5148 0.8513
H12_2 H 0.1224 0.4561 0.7926
H13_2 H 0.1802 0.3856 0.8729
C7_2 C 0.1341(4) 0.4284(4) 0.9486(4)
O2_2 O 0.1043(3) 0.4811(3) 0.9707(3)
H15_2 H 0.1617 0.3263 0.9757
O4_2 O 0.4599(2) 0.41038(18) 0.9529(2)
O5_2 O 0.5471(2) 0.5401(2) 0.91038(18)
C10_2 C 0.4383(3) 0.3942(2) 0.8944(3)
C11_2 C 0.6056(3) 0.5617(3) 0.8942(2)
N4_2 N 0.3842(3) 0.3522(2) 0.8878(3)
C15_2 C 0.4714(3) 0.4198(4) 0.8303(3)
N5_2 N 0.6122(3) 0.6158(3) 0.8522(2)
C16_2 C 0.6697(3) 0.5286(3) 0.9198(4)
H18_2 H 0.6033 0.3240 0.9837
H21_2 H 0.3768 0.3380 0.8451
C20_2 C 0.3354(6) 0.3255(6) 0.9376(6)
H22_2 H 0.5163 0.3967 0.8240
H23_2 H 0.4415 0.4096 0.7906
H24_2 H 0.4785 0.4699 0.8337
H25_2 H 0.6549 0.6232 0.8380
C21_2 C 0.5624(6) 0.6646(6) 0.8255(6)
H26_2 H 0.6760 0.4837 0.8967
H27_2 H 0.7094 0.5585 0.9096
H28_2 H 0.6663 0.5215 0.9699
C25_2 C 0.3571(7) 0.2533(8) 0.9515(10)
H39_2 H 0.3366 0.3533 0.9807
H40_2 H 0.2878 0.3266 0.9186
C26_2 C 0.5485(10) 0.6429(7) 0.7533(8)
H41_2 H 0.5193 0.6634 0.8533
H42_2 H 0.5814 0.7122 0.8266
H49_2 H 0.3602 0.2277 0.9072
H50_2 H 0.4037 0.2535 0.9730
C30_2 C 0.3072(6) 0.2174(6) 0.9985(6)
H51_2 H 0.5928 0.6398 0.7277
H52_2 H 0.5270 0.5963 0.7535
C31_2 C 0.5015(6) 0.6928(6) 0.7174(6)
H60_2 H 0.2630 0.2106 0.9735
C36_2 C 0.4757(5) 0.6679(5) 0.6486(5)
H61_2 H 0.4612 0.7022 0.7477
H62_2 H 0.5265 0.7370 0.7106
C37_2 C 0.6679(5) 0.8514(5) 0.9757(5)
H64_2 H 0.7022 0.7523 0.9612
H69_2 H 0.3513 0.1216 0.9852
N10_2 N 0.4235(4) 0.6156(3) 0.6576(3)
H71_2 H 0.5148 0.6487 0.6216
H72_2 H 0.4561 0.7074 0.6224
N11_2 N 0.6156(3) 0.8424(3) 0.9235(4)
H73_2 H 0.7074 0.8776 0.9561
H79_2 H 0.3856 0.6271 0.6802
C41_2 C 0.4284(4) 0.5514(4) 0.6341(4)
C42_2 C 0.5514(4) 0.8659(4) 0.9284(4)
H80_2 H 0.6271 0.8198 0.8856
C44_2 C 0.8576(3) 0.6337(3) 0.9997(3)
C46_2 C 0.3663(3) 0.4997(3) 0.6424(3)
O11_2 O 0.5293(3) 0.8957(3) 0.9811(3)
C47_2 C 0.4997(3) 0.8576(3) 0.8663(3)
H82_2 H 0.8264 0.6203 0.9620
H84_2 H 0.9030 0.6459 0.9805
H88_2 H 0.3797 0.4620 0.6736
H89_2 H 0.3263 0.5243 0.6617
H90_2 H 0.3541 0.4805 0.5970
Fe6_4 Fe 0.5000 1.0000 1.0000
H91_2 H 0.4620 0.8264 0.8797
H92_2 H 0.4805 0.9030 0.8541
H93_2 H 0.5243 0.8383 0.8263
O16_2 O 0.9707(3) 0.3957(3) 0.9811(3)
Fe1_5 Fe -0.0000 -0.0000 0.0000
H18_3 H 0.1033 0.1760 0.0163
H22_3 H 0.0163 0.1033 0.1760
H26_3 H 0.1760 0.0163 0.1033
Fe1_6 Fe -0.0000 -0.0000 1.0000
O3_3 O 0.08962(18) 0.0471(2) 0.9599(2)
C9_3 C 0.1058(2) 0.1056(3) 0.9383(3)
N3_3 N 0.1478(2) 0.1122(3) 0.8842(3)
C14_3 C 0.0802(4) 0.1697(3) 0.9714(3)
H17_3 H 0.1620 0.1549 0.8768
C19_3 C 0.1745(6) 0.0624(6) 0.8354(6)
H19_3 H 0.0904 0.2094 0.9415
H20_3 H 0.0301 0.1663 0.9785
C24_3 C 0.2467(8) 0.0485(10) 0.8571(7)
H37_3 H 0.1467 0.0193 0.8366
H38_3 H 0.1734 0.0814 0.7878
H47_3 H 0.2723 0.0928 0.8602
H48_3 H 0.2465 0.0270 0.9037
C29_3 C 0.2826(6) 0.0015(6) 0.8072(6)
H58_3 H 0.2894 0.0265 0.7630
C38_3 C 0.0243(5) 0.1679(5) 0.6486(5)
H65_3 H 0.0388 0.2022 0.7477
H67_3 H 0.3784 0.0148 0.8513
N12_3 N 0.0765(4) 0.1156(3) 0.6576(3)
H75_3 H 0.0439 0.2074 0.6224
C43_3 C 0.0716(4) 0.0514(4) 0.6341(4)
H81_3 H 0.1144 0.1271 0.6802
C45_3 C 0.0003(3) 0.3576(3) 0.8663(3)
O12_2 O 0.0189(3) 0.0293(3) 0.6043(3)
H85_3 H 0.0380 0.3264 0.8797
H87_3 H 0.0195 0.4030 0.8541
H94_3 H 0.1737 0.0243 0.6617
Fe1_7 Fe -0.0000 1.0000 0.0000
O5_3 O 0.0471(2) 0.9599(2) 0.08962(18)
C11_3 C 0.1056(3) 0.9383(3) 0.1058(2)
N5_3 N 0.1122(3) 0.8842(3) 0.1478(2)
C16_3 C 0.1697(3) 0.9714(3) 0.0802(4)
H25_3 H 0.1549 0.8768 0.1620
C21_3 C 0.0624(6) 0.8354(6) 0.1745(6)
H27_3 H 0.2094 0.9415 0.0904
H28_3 H 0.1663 0.9785 0.0301
C26_3 C 0.0485(10) 0.8571(7) 0.2467(8)
H41_3 H 0.0193 0.8366 0.1467
H42_3 H 0.0814 0.7878 0.1734
H51_3 H 0.0928 0.8602 0.2723
H52_3 H 0.0270 0.9037 0.2465
C31_3 C 0.0015(6) 0.8072(6) 0.2826(6)
H62_3 H 0.0265 0.7630 0.2894
C37_3 C 0.1679(5) 0.6486(5) 0.0243(5)
H64_3 H 0.2022 0.7477 0.0388
H71_3 H 0.0148 0.8513 0.3784
N11_3 N 0.1156(3) 0.6576(3) 0.0765(4)
H73_3 H 0.2074 0.6224 0.0439
C42_3 C 0.0514(4) 0.6341(4) 0.0716(4)
H80_3 H 0.1271 0.6802 0.1144
C44_3 C 0.3576(3) 0.8663(3) 0.0003(3)
H82_3 H 0.3264 0.8797 0.0380
H84_3 H 0.4030 0.8541 0.0195
H93_3 H 0.0243 0.6617 0.1737
Fe1_8 Fe 0.0000 1.0000 1.0000
O6_3 O 0.0401(2) 0.91038(18) 0.9529(2)
C12_3 C 0.0617(3) 0.8942(2) 0.8944(3)
C17_3 C 0.0286(3) 0.9198(4) 0.8303(3)
N6_3 N 0.1158(3) 0.8522(2) 0.8878(3)
H30_3 H 0.0215 0.9699 0.8337
H31_3 H 0.0585 0.9096 0.7906
C22_3 C 0.1646(6) 0.8255(6) 0.9376(6)
H32_3 H 0.1232 0.8380 0.8451
C27_3 C 0.1429(7) 0.7533(8) 0.9515(10)
H43_3 H 0.2122 0.8266 0.9186
H44_3 H 0.1634 0.8533 0.9807
H53_3 H 0.1398 0.7277 0.9072
H54_3 H 0.0963 0.7535 0.9730
C32_3 C 0.1928(6) 0.7174(6) 0.9985(6)
C34_3 C 0.3514(5) 0.9757(5) 0.8321(5)
H57_3 H 0.2523 0.9612 0.7978
H63_3 H 0.2370 0.7106 0.9735
N8_3 N 0.3424(3) 0.9235(4) 0.8844(3)
H68_3 H 0.3776 0.9561 0.7926
H74_3 H 0.1487 0.6216 0.9852
H77_3 H 0.3198 0.8856 0.8729
C39_3 C 0.3659(4) 0.9284(4) 0.9486(4)
O8_2 O 0.3957(3) 0.9811(3) 0.9707(3)
C48_3 C 0.1337(3) 0.9997(3) 0.6424(3)
H83_3 H 0.3383 0.8263 0.9757
H95_3 H 0.1459 0.9805 0.5970
H96_3 H 0.1203 0.9620 0.6736
Fe1_9 Fe 1.0000 -0.0000 0.0000
C6_3 C 0.6486(5) 0.0243(5) 0.1679(5)
H9_3 H 0.7477 0.0388 0.2022
N2_3 N 0.6576(3) 0.0765(4) 0.1156(3)
H12_3 H 0.6224 0.0439 0.2074
H13_3 H 0.6802 0.1144 0.1271
C7_3 C 0.6341(4) 0.0716(4) 0.0514(4)
O2_3 O 0.6043(3) 0.0189(3) 0.0293(3)
H15_3 H 0.6617 0.1737 0.0243
O4_3 O 0.9599(2) 0.08962(18) 0.0471(2)
C10_3 C 0.9383(3) 0.1058(2) 0.1056(3)
N4_3 N 0.8842(3) 0.1478(2) 0.1122(3)
C15_3 C 0.9714(3) 0.0802(4) 0.1697(3)
H21_3 H 0.8768 0.1620 0.1549
C20_3 C 0.8354(6) 0.1745(6) 0.0624(6)
H23_3 H 0.9415 0.0904 0.2094
H24_3 H 0.9785 0.0301 0.1663
C25_3 C 0.8571(7) 0.2467(8) 0.0485(10)
H39_3 H 0.8366 0.1467 0.0193
H40_3 H 0.7878 0.1734 0.0814
H49_3 H 0.8602 0.2723 0.0928
H50_3 H 0.9037 0.2465 0.0270
C30_3 C 0.8072(6) 0.2826(6) 0.0015(6)
H60_3 H 0.7630 0.2894 0.0265
H69_3 H 0.8513 0.3784 0.0148
C46_3 C 0.8663(3) 0.0003(3) 0.3576(3)
H88_3 H 0.8797 0.0380 0.3264
H90_3 H 0.8541 0.0195 0.4030
Fe1_10 Fe 1.0000 -0.0000 1.0000
C8_3 C 0.6424(3) 0.1337(3) 0.9997(3)
H14_3 H 0.6736 0.1203 0.9620
H16_3 H 0.5970 0.1459 0.9805
O7_3 O 0.9529(2) 0.0401(2) 0.91038(18)
C13_3 C 0.8944(3) 0.0617(3) 0.8942(2)
N7_3 N 0.8878(3) 0.1158(3) 0.8522(2)
C18_3 C 0.8303(3) 0.0286(3) 0.9198(4)
H33_3 H 0.8451 0.1232 0.8380
C23_3 C 0.9376(6) 0.1646(6) 0.8255(6)
H34_3 H 0.7906 0.0585 0.9096
H36_3 H 0.8337 0.0215 0.9699
C28_3 C 0.9515(10) 0.1429(7) 0.7533(8)
H45_3 H 0.9807 0.1634 0.8533
H46_3 H 0.9186 0.2122 0.8266
C33_3 C 0.9985(6) 0.1928(6) 0.7174(6)
H55_3 H 0.9730 0.0963 0.7535
H56_3 H 0.9072 0.1398 0.7277
C35_3 C 0.8321(5) 0.3514(5) 0.9757(5)
H59_3 H 0.7978 0.2523 0.9612
H66_3 H 0.9735 0.2370 0.7106
N9_3 N 0.8844(3) 0.3424(3) 0.9235(4)
H70_3 H 0.7926 0.3776 0.9561
H76_3 H 0.9852 0.1487 0.6216
H78_3 H 0.8729 0.3198 0.8856
C40_3 C 0.9486(4) 0.3659(4) 0.9284(4)
H86_3 H 0.9757 0.3383 0.8263
O17_2 O 0.5189(3) 0.0293(3) 0.8957(3)
Fe1_11 Fe 1.0000 1.0000 0.0000
O1_3 O 0.91038(18) 0.9529(2) 0.0401(2)
C1_3 C 0.8942(2) 0.8944(3) 0.0617(3)
N1_3 N 0.8522(2) 0.8878(3) 0.1158(3)
C2_3 C 0.9198(4) 0.8303(3) 0.0286(3)
H1_3 H 0.8380 0.8451 0.1232
C3_3 C 0.8255(6) 0.9376(6) 0.1646(6)
H3_3 H 0.9096 0.7906 0.0585
H4_3 H 0.9699 0.8337 0.0215
C4_3 C 0.7533(8) 0.9515(10) 0.1429(7)
H5_3 H 0.8533 0.9807 0.1634
H6_3 H 0.8266 0.9186 0.2122
H7_3 H 0.7277 0.9072 0.1398
H8_3 H 0.7535 0.9730 0.0963
C5_3 C 0.7174(6) 0.9985(6) 0.1928(6)
H10_3 H 0.7106 0.9735 0.2370
H11_3 H 0.6216 0.9852 0.1487
C36_3 C 0.9757(5) 0.8321(5) 0.3514(5)
H61_3 H 0.9612 0.7978 0.2523
N10_3 N 0.9235(4) 0.8844(3) 0.3424(3)
H72_3 H 0.9561 0.7926 0.3776
H79_3 H 0.8856 0.8729 0.3198
C41_3 C 0.9284(4) 0.9486(4) 0.3659(4)
O10_2 O 0.9811(3) 0.9707(3) 0.3957(3)
C47_3 C 0.9997(3) 0.6424(3) 0.1337(3)
H89_3 H 0.8263 0.9757 0.3383
H91_3 H 0.9620 0.6736 0.1203
H92_3 H 0.9805 0.5970 0.1459
O14_2 O 0.4811(3) 0.9707(3) 0.1043(3)
Fe1_12 Fe 1.0000 1.0000 1.0000
H2_3 H 0.8967 0.8240 0.9837
H29_3 H 0.9837 0.8967 0.8240
H35_3 H 0.8240 0.9837 0.8967
O15_2 O 0.1043(3) 0.0189(3) 0.4707(3)
Fe1_13 Fe 0.5000 0.0000 0.5000
O1_4 O 0.58962(18) 0.0471(2) 0.5401(2)
C1_4 C 0.6058(2) 0.1056(3) 0.5617(3)
N1_4 N 0.6478(2) 0.1122(3) 0.6158(3)
C2_4 C 0.5802(4) 0.1697(3) 0.5286(3)
H1_4 H 0.6620 0.1549 0.6232
C3_4 C 0.6745(6) 0.0624(6) 0.6646(6)
H2_4 H 0.6033 0.1760 0.4837
H3_4 H 0.5904 0.2094 0.5585
H4_4 H 0.5301 0.1663 0.5215
C4_4 C 0.7467(8) 0.0485(10) 0.6429(7)
H5_4 H 0.6467 0.0193 0.6634
H6_4 H 0.6734 0.0814 0.7122
H7_4 H 0.7723 0.0928 0.6398
H8_4 H 0.7465 0.0270 0.5963
C5_4 C 0.7826(6) 0.0015(6) 0.6928(6)
H10_4 H 0.7894 0.0265 0.7370
H11_4 H 0.8784 0.0148 0.6487
O5_4 O 0.4529(2) 0.0401(2) 0.58962(18)
O6_4 O 0.4599(2) 0.08962(18) 0.4529(2)
C11_4 C 0.3944(3) 0.0617(3) 0.6058(2)
C12_4 C 0.4383(3) 0.1058(2) 0.3944(3)
N5_4 N 0.3878(3) 0.1158(3) 0.6478(2)
C16_4 C 0.3303(3) 0.0286(3) 0.5802(4)
C17_4 C 0.4714(3) 0.0802(4) 0.3303(3)
N6_4 N 0.3842(3) 0.1478(2) 0.3878(3)
H25_4 H 0.3451 0.1232 0.6620
C21_4 C 0.4376(6) 0.1646(6) 0.6745(6)
H27_4 H 0.2906 0.0585 0.5904
H28_4 H 0.3337 0.0215 0.5301
H29_4 H 0.5163 0.1033 0.3240
H30_4 H 0.4785 0.0301 0.3337
H31_4 H 0.4415 0.0904 0.2906
C22_4 C 0.3354(6) 0.1745(6) 0.4376(6)
H32_4 H 0.3768 0.1620 0.3451
H35_4 H 0.6760 0.0163 0.3967
C26_4 C 0.4515(10) 0.1429(7) 0.7467(8)
H41_4 H 0.4807 0.1634 0.6467
H42_4 H 0.4186 0.2122 0.6734
C27_4 C 0.3571(7) 0.2467(8) 0.4515(10)
H43_4 H 0.2878 0.1734 0.4186
H44_4 H 0.3366 0.1467 0.4807
H51_4 H 0.4072 0.1398 0.7723
H52_4 H 0.4730 0.0963 0.7465
C31_4 C 0.4985(6) 0.1928(6) 0.7826(6)
H53_4 H 0.3602 0.2723 0.4072
H54_4 H 0.4037 0.2465 0.4730
C32_4 C 0.3072(6) 0.2826(6) 0.4985(6)
C34_4 C 0.1486(5) 0.0243(5) 0.3321(5)
H57_4 H 0.2477 0.0388 0.2978
C36_4 C 0.5243(5) 0.1679(5) 0.8514(5)
H61_4 H 0.5388 0.2022 0.7523
H62_4 H 0.4735 0.2370 0.7894
C37_4 C 0.3321(5) 0.3514(5) 0.5243(5)
H63_4 H 0.2630 0.2894 0.4735
H64_4 H 0.2978 0.2523 0.5388
N8_4 N 0.1576(3) 0.0765(4) 0.3844(3)
H68_4 H 0.1224 0.0439 0.2926
N10_4 N 0.5765(4) 0.1156(3) 0.8424(3)
H71_4 H 0.4852 0.1487 0.8784
H72_4 H 0.5439 0.2074 0.8776
N11_4 N 0.3844(3) 0.3424(3) 0.5765(4)
H73_4 H 0.2926 0.3776 0.5439
H74_4 H 0.3513 0.3784 0.4852
H77_4 H 0.1802 0.1144 0.3729
C39_4 C 0.1341(4) 0.0716(4) 0.4486(4)
H79_4 H 0.6144 0.1271 0.8198
C41_4 C 0.5716(4) 0.0514(4) 0.8659(4)
C42_4 C 0.4486(4) 0.3659(4) 0.5716(4)
H80_4 H 0.3729 0.3198 0.6144
C44_4 C 0.1424(3) 0.1337(3) 0.5003(3)
C47_4 C 0.5003(3) 0.3576(3) 0.6337(3)
C48_4 C 0.3663(3) 0.0003(3) 0.1424(3)
H82_4 H 0.1736 0.1203 0.5380
H83_4 H 0.1617 0.1737 0.4757
H84_4 H 0.0970 0.1459 0.5195
H89_4 H 0.6737 0.0243 0.8383
H91_4 H 0.5380 0.3264 0.6203
H92_4 H 0.5195 0.4030 0.6459
H93_4 H 0.4757 0.3383 0.6737
H95_4 H 0.3541 0.0195 0.0970
H96_4 H 0.3797 0.0380 0.1736
Fe1_14 Fe 0.5000 1.0000 0.5000
C6_4 C 0.8514(5) 0.9757(5) 0.6679(5)
H9_4 H 0.7523 0.9612 0.7022
N2_4 N 0.8424(3) 0.9235(4) 0.6156(3)
H12_4 H 0.8776 0.9561 0.7074
H13_4 H 0.8198 0.8856 0.6271
C7_4 C 0.8659(4) 0.9284(4) 0.5514(4)
O2_4 O 0.8957(3) 0.9811(3) 0.5293(3)
C8_4 C 0.8576(3) 0.8663(3) 0.4997(3)
H14_4 H 0.8264 0.8797 0.4620
H15_4 H 0.8383 0.8263 0.5243
H16_4 H 0.9030 0.8541 0.4805
O3_4 O 0.41038(18) 0.9529(2) 0.4599(2)
O4_4 O 0.5401(2) 0.91038(18) 0.5471(2)
O7_4 O 0.5471(2) 0.9599(2) 0.41038(18)
C9_4 C 0.3942(2) 0.8944(3) 0.4383(3)
C10_4 C 0.5617(3) 0.8942(2) 0.6056(3)
C13_4 C 0.6056(3) 0.9383(3) 0.3942(2)
N3_4 N 0.3522(2) 0.8878(3) 0.3842(3)
C14_4 C 0.4198(4) 0.8303(3) 0.4714(3)
N4_4 N 0.6158(3) 0.8522(2) 0.6122(3)
C15_4 C 0.5286(3) 0.9198(4) 0.6697(3)
N7_4 N 0.6122(3) 0.8842(3) 0.3522(2)
C18_4 C 0.6697(3) 0.9714(3) 0.4198(4)
H17_4 H 0.3380 0.8451 0.3768
C19_4 C 0.3255(6) 0.9376(6) 0.3354(6)
H18_4 H 0.3967 0.8240 0.5163
H19_4 H 0.4096 0.7906 0.4415
H20_4 H 0.4699 0.8337 0.4785
H21_4 H 0.6232 0.8380 0.6549
C20_4 C 0.6646(6) 0.8255(6) 0.5624(6)
H22_4 H 0.4837 0.8967 0.6760
H23_4 H 0.5585 0.9096 0.7094
H24_4 H 0.5215 0.9699 0.6663
H26_4 H 0.3240 0.9837 0.6033
H33_4 H 0.6549 0.8768 0.3380
C23_4 C 0.5624(6) 0.8354(6) 0.3255(6)
H34_4 H 0.7094 0.9415 0.4096
H36_4 H 0.6663 0.9785 0.4699
C24_4 C 0.2533(8) 0.9515(10) 0.3571(7)
H37_4 H 0.3533 0.9807 0.3366
H38_4 H 0.3266 0.9186 0.2878
C25_4 C 0.6429(7) 0.7533(8) 0.5485(10)
H39_4 H 0.6634 0.8533 0.5193
H40_4 H 0.7122 0.8266 0.5814
C28_4 C 0.5485(10) 0.8571(7) 0.2533(8)
H45_4 H 0.5193 0.8366 0.3533
H46_4 H 0.5814 0.7878 0.3266
H47_4 H 0.2277 0.9072 0.3602
H48_4 H 0.2535 0.9730 0.4037
C29_4 C 0.2174(6) 0.9985(6) 0.3072(6)
H49_4 H 0.6398 0.7277 0.5928
H50_4 H 0.5963 0.7535 0.5270
C30_4 C 0.6928(6) 0.7174(6) 0.5015(6)
C33_4 C 0.5015(6) 0.8072(6) 0.2174(6)
H55_4 H 0.5270 0.9037 0.2535
H56_4 H 0.5928 0.8602 0.2277
H58_4 H 0.2106 0.9735 0.2630
C35_4 C 0.6679(5) 0.6486(5) 0.4757(5)
H59_4 H 0.7022 0.7477 0.4612
H60_4 H 0.7370 0.7106 0.5265
C38_4 C 0.4757(5) 0.8321(5) 0.1486(5)
H65_4 H 0.4612 0.7978 0.2477
H66_4 H 0.5265 0.7630 0.2106
H67_4 H 0.1216 0.9852 0.3513
N9_4 N 0.6156(3) 0.6576(3) 0.4235(4)
H69_4 H 0.6487 0.6216 0.5148
H70_4 H 0.7074 0.6224 0.4561
N12_4 N 0.4235(4) 0.8844(3) 0.1576(3)
H75_4 H 0.4561 0.7926 0.1224
H76_4 H 0.5148 0.8513 0.1216
H78_4 H 0.6271 0.6802 0.3856
C40_4 C 0.5514(4) 0.6341(4) 0.4284(4)
C43_4 C 0.4284(4) 0.9486(4) 0.1341(4)
H81_4 H 0.3856 0.8729 0.1802
C45_4 C 0.4997(3) 0.6424(3) 0.3663(3)
C46_4 C 0.6337(3) 0.9997(3) 0.8576(3)
H85_4 H 0.4620 0.6736 0.3797
H86_4 H 0.5243 0.6617 0.3263
H87_4 H 0.4805 0.5970 0.3541
H88_4 H 0.6203 0.9620 0.8264
H90_4 H 0.6459 0.9805 0.9030
H94_4 H 0.3263 0.9757 0.1617
loop_
_geom_bond_atom_site_label_1
_geom_bond_atom_site_label_2
_geom_bond_site_symmetry_1
_geom_bond_site_symmetry_2
Fe1 O1 1_555 1_555
O1 C1 1_555 1_555
C1 N1 1_555 1_555
N1 H1 1_555 1_555
C2 C1 1_555 1_555
C3 N1 1_555 1_555
H2 C2 1_555 1_555
H3 C2 1_555 1_555
H4 C2 1_555 1_555
C4 C3 1_555 1_555
H5 C3 1_555 1_555
H6 C3 1_555 1_555
H7 C4 1_555 1_555
H8 C4 1_555 1_555
C5 C4 1_555 1_555
C6 C5 1_555 1_555
H9 C5 1_555 1_555
H10 C5 1_555 1_555
N2 C6 1_555 1_555
H11 C6 1_555 1_555
H12 C6 1_555 1_555
H13 N2 1_555 1_555
C7 N2 1_555 1_555
O2 C7 1_555 1_555
C8 C7 1_555 1_555
Fe2 O2 1_555 1_555
H14 C8 1_555 1_555
H15 C8 1_555 1_555
H16 C8 1_555 1_555
O4 Fe1 1_555 1_555
O7 Fe1 1_555 1_555
C10 O4 1_555 1_555
C13 O7 1_555 1_555
N4 C10 1_555 1_555
C15 C10 1_555 1_555
N7 C13 1_555 1_555
C18 C13 1_555 1_555
H21 N4 1_555 1_555
C20 N4 1_555 1_555
H23 C15 1_555 1_555
H24 C15 1_555 1_555
H33 N7 1_555 1_555
C23 N7 1_555 1_555
H34 C18 1_555 1_555
H35 C18 1_555 1_555
H36 C18 1_555 1_555
C25 C20 1_555 1_555
H39 C20 1_555 1_555
H40 C20 1_555 1_555
C28 C23 1_555 1_555
H45 C23 1_555 1_555
H46 C23 1_555 1_555
H49 C25 1_555 1_555
H50 C25 1_555 1_555
C30 C25 1_555 1_555
C33 C28 1_555 1_555
H55 C28 1_555 1_555
H56 C28 1_555 1_555
C35 C30 1_555 1_555
H59 C30 1_555 1_555
H60 C30 1_555 1_555
H66 C33 1_555 1_555
N9 C35 1_555 1_555
H69 C35 1_555 1_555
H70 C35 1_555 1_555
N10 C36 1_555 1_555
H72 C36 1_555 1_555
H78 N9 1_555 1_555
C40 N9 1_555 1_555
H79 N10 1_555 1_555
C41 N10 1_555 1_555
O9 C40 1_555 1_555
O10 C41 1_555 1_555
C46 C41 1_555 1_555
Fe4_2 O9 1_555 1_555
Fe7 O10 1_555 1_555
H88 C46 1_555 1_555
H89 C46 1_555 1_555
H90 C46 1_555 1_555
H91 C47 1_555 1_555
H92 C47 1_555 1_555
O13 Fe2 1_555 1_555
O14 Fe2 1_555 1_555
O15 Fe2 1_555 1_555
O16 Fe2 1_555 1_555
O17 Fe2 1_555 1_555
O3 Fe1_2 1_555 1_555
O5 Fe1_2 1_555 1_555
O6 Fe1_2 1_555 1_555
C9 O3 1_555 1_555
C11 O5 1_555 1_555
C12 O6 1_555 1_555
N3 C9 1_555 1_555
C14 C9 1_555 1_555
N5 C11 1_555 1_555
C16 C11 1_555 1_555
C17 C12 1_555 1_555
N6 C12 1_555 1_555
H17 N3 1_555 1_555
C19 N3 1_555 1_555
H18 C14 1_555 1_555
H19 C14 1_555 1_555
H20 C14 1_555 1_555
H25 N5 1_555 1_555
C21 N5 1_555 1_555
H26 C16 1_555 1_555
H27 C16 1_555 1_555
H28 C16 1_555 1_555
H30 C17 1_555 1_555
H31 C17 1_555 1_555
C22 N6 1_555 1_555
H32 N6 1_555 1_555
C24 C19 1_555 1_555
H37 C19 1_555 1_555
H38 C19 1_555 1_555
C26 C21 1_555 1_555
H41 C21 1_555 1_555
H42 C21 1_555 1_555
C27 C22 1_555 1_555
H43 C22 1_555 1_555
H44 C22 1_555 1_555
H47 C24 1_555 1_555
H48 C24 1_555 1_555
C29 C24 1_555 1_555
H51 C26 1_555 1_555
H52 C26 1_555 1_555
C31 C26 1_555 1_555
H53 C27 1_555 1_555
H54 C27 1_555 1_555
C32 C27 1_555 1_555
C34 C29 1_555 1_555
H57 C29 1_555 1_555
H58 C29 1_555 1_555
H62 C31 1_555 1_555
C37 C32 1_555 1_555
H63 C32 1_555 1_555
H64 C32 1_555 1_555
N8 C34 1_555 1_555
H67 C34 1_555 1_555
H68 C34 1_555 1_555
N11 C37 1_555 1_555
H73 C37 1_555 1_555
H74 C37 1_555 1_555
N12 C38 1_555 1_555
H75 C38 1_555 1_555
H77 N8 1_555 1_555
C39 N8 1_555 1_555
C42 N11 1_555 1_555
H80 N11 1_555 1_555
C43 N12 1_555 1_555
H81 N12 1_555 1_555
O15 C39 1_555 1_555
C44 C39 1_555 1_555
O11 C42 1_555 1_555
C48 C43 1_555 1_555
O12 C43 1_555 1_555
H82 C44 1_555 1_555
H83 C44 1_555 1_555
H84 C44 1_555 1_555
H85 C45 1_555 1_555
H87 C45 1_555 1_555
Fe4_3 O11 1_555 1_555
H94 C48 1_555 1_555
H95 C48 1_555 1_555
H96 C48 1_555 1_555
Fe7_4 O12 1_555 1_555
H14_2 C8_2 1_555 1_555
H16_2 C8_2 1_555 1_555
O3_2 Fe1_3 1_555 1_555
O6_2 Fe1_3 1_555 1_555
O7_2 Fe1_3 1_555 1_555
C9_2 O3_2 1_555 1_555
C12_2 O6_2 1_555 1_555
C13_2 O7_2 1_555 1_555
N3_2 C9_2 1_555 1_555
C14_2 C9_2 1_555 1_555
C17_2 C12_2 1_555 1_555
N6_2 C12_2 1_555 1_555
N7_2 C13_2 1_555 1_555
C18_2 C13_2 1_555 1_555
H17_2 N3_2 1_555 1_555
C19_2 N3_2 1_555 1_555
H19_2 C14_2 1_555 1_555
H20_2 C14_2 1_555 1_555
H29_2 C17_2 1_555 1_555
H30_2 C17_2 1_555 1_555
H31_2 C17_2 1_555 1_555
C22_2 N6_2 1_555 1_555
H32_2 N6_2 1_555 1_555
H33_2 N7_2 1_555 1_555
C23_2 N7_2 1_555 1_555
H34_2 C18_2 1_555 1_555
H35_2 C18_2 1_555 1_555
H36_2 C18_2 1_555 1_555
C24_2 C19_2 1_555 1_555
H37_2 C19_2 1_555 1_555
H38_2 C19_2 1_555 1_555
C27_2 C22_2 1_555 1_555
H43_2 C22_2 1_555 1_555
H44_2 C22_2 1_555 1_555
C28_2 C23_2 1_555 1_555
H45_2 C23_2 1_555 1_555
H46_2 C23_2 1_555 1_555
H47_2 C24_2 1_555 1_555
H48_2 C24_2 1_555 1_555
C29_2 C24_2 1_555 1_555
H53_2 C27_2 1_555 1_555
H54_2 C27_2 1_555 1_555
C32_2 C27_2 1_555 1_555
C33_2 C28_2 1_555 1_555
H55_2 C28_2 1_555 1_555
H56_2 C28_2 1_555 1_555
C34_2 C29_2 1_555 1_555
H57_2 C29_2 1_555 1_555
H58_2 C29_2 1_555 1_555
H63_2 C32_2 1_555 1_555
C38_2 C33_2 1_555 1_555
H65_2 C33_2 1_555 1_555
H66_2 C33_2 1_555 1_555
N8_2 C34_2 1_555 1_555
H67_2 C34_2 1_555 1_555
H68_2 C34_2 1_555 1_555
N9_2 C35_2 1_555 1_555
H70_2 C35_2 1_555 1_555
N12_2 C38_2 1_555 1_555
H75_2 C38_2 1_555 1_555
H76_2 C38_2 1_555 1_555
H77_2 N8_2 1_555 1_555
C39_2 N8_2 1_555 1_555
H78_2 N9_2 1_555 1_555
C40_2 N9_2 1_555 1_555
C43_2 N12_2 1_555 1_555
H81_2 N12_2 1_555 1_555
O8 C39_2 1_555 1_555
O9_2 C40_2 1_555 1_555
C45_2 C40_2 1_555 1_555
C48_2 C43_2 1_555 1_555
O14 C43_2 1_555 1_555
Fe7_3 O8 1_555 1_555
Fe6 O9_2 1_555 1_555
H85_2 C45_2 1_555 1_555
H86_2 C45_2 1_555 1_555
H87_2 C45_2 1_555 1_555
H94_2 C48_2 1_555 1_555
H95_2 C48_2 1_555 1_555
H96_2 C48_2 1_555 1_555
O13_2 Fe7 1_555 1_555
Fe1_4 O1_2 1_555 1_555
O1_2 C1_2 1_555 1_555
C1_2 N1_2 1_555 1_555
N1_2 H1_2 1_555 1_555
C2_2 C1_2 1_555 1_555
C3_2 N1_2 1_555 1_555
H3_2 C2_2 1_555 1_555
H4_2 C2_2 1_555 1_555
C4_2 C3_2 1_555 1_555
H5_2 C3_2 1_555 1_555
H6_2 C3_2 1_555 1_555
H7_2 C4_2 1_555 1_555
H8_2 C4_2 1_555 1_555
C5_2 C4_2 1_555 1_555
C6_2 C5_2 1_555 1_555
H9_2 C5_2 1_555 1_555
H10_2 C5_2 1_555 1_555
N2_2 C6_2 1_555 1_555
H11_2 C6_2 1_555 1_555
H12_2 C6_2 1_555 1_555
H13_2 N2_2 1_555 1_555
C7_2 N2_2 1_555 1_555
O2_2 C7_2 1_555 1_555
Fe7_2 O2_2 1_555 1_555
O4_2 Fe1_4 1_555 1_555
O5_2 Fe1_4 1_555 1_555
C10_2 O4_2 1_555 1_555
C11_2 O5_2 1_555 1_555
N4_2 C10_2 1_555 1_555
C15_2 C10_2 1_555 1_555
N5_2 C11_2 1_555 1_555
C16_2 C11_2 1_555 1_555
H21_2 N4_2 1_555 1_555
C20_2 N4_2 1_555 1_555
H22_2 C15_2 1_555 1_555
H23_2 C15_2 1_555 1_555
H24_2 C15_2 1_555 1_555
H25_2 N5_2 1_555 1_555
C21_2 N5_2 1_555 1_555
H26_2 C16_2 1_555 1_555
H27_2 C16_2 1_555 1_555
H28_2 C16_2 1_555 1_555
C25_2 C20_2 1_555 1_555
H39_2 C20_2 1_555 1_555
H40_2 C20_2 1_555 1_555
C26_2 C21_2 1_555 1_555
H41_2 C21_2 1_555 1_555
H42_2 C21_2 1_555 1_555
H49_2 C25_2 1_555 1_555
H50_2 C25_2 1_555 1_555
C30_2 C25_2 1_555 1_555
H51_2 C26_2 1_555 1_555
H52_2 C26_2 1_555 1_555
C31_2 C26_2 1_555 1_555
H60_2 C30_2 1_555 1_555
C36_2 C31_2 1_555 1_555
H61_2 C31_2 1_555 1_555
H62_2 C31_2 1_555 1_555
N10_2 C36_2 1_555 1_555
H71_2 C36_2 1_555 1_555
H72_2 C36_2 1_555 1_555
N11_2 C37_2 1_555 1_555
H73_2 C37_2 1_555 1_555
H79_2 N10_2 1_555 1_555
C41_2 N10_2 1_555 1_555
C42_2 N11_2 1_555 1_555
H80_2 N11_2 1_555 1_555
O17 C41_2 1_555 1_555
C46_2 C41_2 1_555 1_555
O11_2 C42_2 1_555 1_555
C47_2 C42_2 1_555 1_555
H82_2 C44_2 1_555 1_555
H84_2 C44_2 1_555 1_555
H88_2 C46_2 1_555 1_555
H89_2 C46_2 1_555 1_555
H90_2 C46_2 1_555 1_555
Fe6_4 O11_2 1_555 1_555
H91_2 C47_2 1_555 1_555
H92_2 C47_2 1_555 1_555
H93_2 C47_2 1_555 1_555
O16_2 Fe7_4 1_555 1_555
O3_3 Fe1_6 1_555 1_555
C9_3 O3_3 1_555 1_555
N3_3 C9_3 1_555 1_555
C14_3 C9_3 1_555 1_555
H17_3 N3_3 1_555 1_555
C19_3 N3_3 1_555 1_555
H19_3 C14_3 1_555 1_555
H20_3 C14_3 1_555 1_555
C24_3 C19_3 1_555 1_555
H37_3 C19_3 1_555 1_555
H38_3 C19_3 1_555 1_555
H47_3 C24_3 1_555 1_555
H48_3 C24_3 1_555 1_555
C29_3 C24_3 1_555 1_555
H58_3 C29_3 1_555 1_555
N12_3 C38_3 1_555 1_555
H75_3 C38_3 1_555 1_555
C43_3 N12_3 1_555 1_555
H81_3 N12_3 1_555 1_555
O12_2 C43_3 1_555 1_555
H85_3 C45_3 1_555 1_555
H87_3 C45_3 1_555 1_555
Fe4 O12_2 1_555 1_555
O5_3 Fe1_7 1_555 1_555
C11_3 O5_3 1_555 1_555
N5_3 C11_3 1_555 1_555
C16_3 C11_3 1_555 1_555
H25_3 N5_3 1_555 1_555
C21_3 N5_3 1_555 1_555
H27_3 C16_3 1_555 1_555
H28_3 C16_3 1_555 1_555
C26_3 C21_3 1_555 1_555
H41_3 C21_3 1_555 1_555
H42_3 C21_3 1_555 1_555
H51_3 C26_3 1_555 1_555
H52_3 C26_3 1_555 1_555
C31_3 C26_3 1_555 1_555
H62_3 C31_3 1_555 1_555
N11_3 C37_3 1_555 1_555
H73_3 C37_3 1_555 1_555
C42_3 N11_3 1_555 1_555
H80_3 N11_3 1_555 1_555
O13_2 C42_3 1_555 1_555
H82_3 C44_3 1_555 1_555
H84_3 C44_3 1_555 1_555
O6_3 Fe1_8 1_555 1_555
C12_3 O6_3 1_555 1_555
C17_3 C12_3 1_555 1_555
N6_3 C12_3 1_555 1_555
H30_3 C17_3 1_555 1_555
H31_3 C17_3 1_555 1_555
C22_3 N6_3 1_555 1_555
H32_3 N6_3 1_555 1_555
C27_3 C22_3 1_555 1_555
H43_3 C22_3 1_555 1_555
H44_3 C22_3 1_555 1_555
H53_3 C27_3 1_555 1_555
H54_3 C27_3 1_555 1_555
C32_3 C27_3 1_555 1_555
H63_3 C32_3 1_555 1_555
N8_3 C34_3 1_555 1_555
H68_3 C34_3 1_555 1_555
H77_3 N8_3 1_555 1_555
C39_3 N8_3 1_555 1_555
O8_2 C39_3 1_555 1_555
Fe6_4 O8_2 1_555 1_555
H95_3 C48_3 1_555 1_555
H96_3 C48_3 1_555 1_555
N2_3 C6_3 1_555 1_555
H12_3 C6_3 1_555 1_555
H13_3 N2_3 1_555 1_555
C7_3 N2_3 1_555 1_555
O2_3 C7_3 1_555 1_555
Fe6 O2_3 1_555 1_555
O4_3 Fe1_9 1_555 1_555
C10_3 O4_3 1_555 1_555
N4_3 C10_3 1_555 1_555
C15_3 C10_3 1_555 1_555
H21_3 N4_3 1_555 1_555
C20_3 N4_3 1_555 1_555
H23_3 C15_3 1_555 1_555
H24_3 C15_3 1_555 1_555
C25_3 C20_3 1_555 1_555
H39_3 C20_3 1_555 1_555
H40_3 C20_3 1_555 1_555
H49_3 C25_3 1_555 1_555
H50_3 C25_3 1_555 1_555
C30_3 C25_3 1_555 1_555
H60_3 C30_3 1_555 1_555
H88_3 C46_3 1_555 1_555
H90_3 C46_3 1_555 1_555
H14_3 C8_3 1_555 1_555
H16_3 C8_3 1_555 1_555
O7_3 Fe1_10 1_555 1_555
C13_3 O7_3 1_555 1_555
N7_3 C13_3 1_555 1_555
C18_3 C13_3 1_555 1_555
H33_3 N7_3 1_555 1_555
C23_3 N7_3 1_555 1_555
H34_3 C18_3 1_555 1_555
H36_3 C18_3 1_555 1_555
C28_3 C23_3 1_555 1_555
H45_3 C23_3 1_555 1_555
H46_3 C23_3 1_555 1_555
C33_3 C28_3 1_555 1_555
H55_3 C28_3 1_555 1_555
H56_3 C28_3 1_555 1_555
H66_3 C33_3 1_555 1_555
N9_3 C35_3 1_555 1_555
H70_3 C35_3 1_555 1_555
H78_3 N9_3 1_555 1_555
C40_3 N9_3 1_555 1_555
O16_2 C40_3 1_555 1_555
O17_2 Fe6_2 1_555 1_555
Fe1_11 O1_3 1_555 1_555
O1_3 C1_3 1_555 1_555
C1_3 N1_3 1_555 1_555
N1_3 H1_3 1_555 1_555
C2_3 C1_3 1_555 1_555
C3_3 N1_3 1_555 1_555
H3_3 C2_3 1_555 1_555
H4_3 C2_3 1_555 1_555
C4_3 C3_3 1_555 1_555
H5_3 C3_3 1_555 1_555
H6_3 C3_3 1_555 1_555
H7_3 C4_3 1_555 1_555
H8_3 C4_3 1_555 1_555
C5_3 C4_3 1_555 1_555
H10_3 C5_3 1_555 1_555
N10_3 C36_3 1_555 1_555
H72_3 C36_3 1_555 1_555
H79_3 N10_3 1_555 1_555
C41_3 N10_3 1_555 1_555
O10_2 C41_3 1_555 1_555
Fe4_4 O10_2 1_555 1_555
H91_3 C47_3 1_555 1_555
H92_3 C47_3 1_555 1_555
O14_2 Fe6_3 1_555 1_555
O15_2 Fe4 1_555 1_555
Fe1_13 O1_4 1_555 1_555
O1_4 C1_4 1_555 1_555
C1_4 N1_4 1_555 1_555
N1_4 H1_4 1_555 1_555
C2_4 C1_4 1_555 1_555
C3_4 N1_4 1_555 1_555
H2_4 C2_4 1_555 1_555
H3_4 C2_4 1_555 1_555
H4_4 C2_4 1_555 1_555
C4_4 C3_4 1_555 1_555
H5_4 C3_4 1_555 1_555
H6_4 C3_4 1_555 1_555
H7_4 C4_4 1_555 1_555
H8_4 C4_4 1_555 1_555
C5_4 C4_4 1_555 1_555
H10_4 C5_4 1_555 1_555
O5_4 Fe1_13 1_555 1_555
O6_4 Fe1_13 1_555 1_555
C11_4 O5_4 1_555 1_555
C12_4 O6_4 1_555 1_555
N5_4 C11_4 1_555 1_555
C16_4 C11_4 1_555 1_555
C17_4 C12_4 1_555 1_555
N6_4 C12_4 1_555 1_555
H25_4 N5_4 1_555 1_555
C21_4 N5_4 1_555 1_555
H27_4 C16_4 1_555 1_555
H28_4 C16_4 1_555 1_555
H29_4 C17_4 1_555 1_555
H30_4 C17_4 1_555 1_555
H31_4 C17_4 1_555 1_555
C22_4 N6_4 1_555 1_555
H32_4 N6_4 1_555 1_555
C26_4 C21_4 1_555 1_555
H41_4 C21_4 1_555 1_555
H42_4 C21_4 1_555 1_555
C27_4 C22_4 1_555 1_555
H43_4 C22_4 1_555 1_555
H44_4 C22_4 1_555 1_555
H51_4 C26_4 1_555 1_555
H52_4 C26_4 1_555 1_555
C31_4 C26_4 1_555 1_555
H53_4 C27_4 1_555 1_555
H54_4 C27_4 1_555 1_555
C32_4 C27_4 1_555 1_555
C36_4 C31_4 1_555 1_555
H61_4 C31_4 1_555 1_555
H62_4 C31_4 1_555 1_555
C37_4 C32_4 1_555 1_555
H63_4 C32_4 1_555 1_555
H64_4 C32_4 1_555 1_555
N8_4 C34_4 1_555 1_555
H68_4 C34_4 1_555 1_555
N10_4 C36_4 1_555 1_555
H71_4 C36_4 1_555 1_555
H72_4 C36_4 1_555 1_555
N11_4 C37_4 1_555 1_555
H73_4 C37_4 1_555 1_555
H74_4 C37_4 1_555 1_555
H77_4 N8_4 1_555 1_555
C39_4 N8_4 1_555 1_555
H79_4 N10_4 1_555 1_555
C41_4 N10_4 1_555 1_555
C42_4 N11_4 1_555 1_555
H80_4 N11_4 1_555 1_555
O15_2 C39_4 1_555 1_555
C44_4 C39_4 1_555 1_555
O17_2 C41_4 1_555 1_555
O13 C42_4 1_555 1_555
C47_4 C42_4 1_555 1_555
H82_4 C44_4 1_555 1_555
H83_4 C44_4 1_555 1_555
H84_4 C44_4 1_555 1_555
H91_4 C47_4 1_555 1_555
H92_4 C47_4 1_555 1_555
H93_4 C47_4 1_555 1_555
H95_4 C48_4 1_555 1_555
H96_4 C48_4 1_555 1_555
N2_4 C6_4 1_555 1_555
H12_4 C6_4 1_555 1_555
H13_4 N2_4 1_555 1_555
C7_4 N2_4 1_555 1_555
O2_4 C7_4 1_555 1_555
C8_4 C7_4 1_555 1_555
Fe4_4 O2_4 1_555 1_555
H14_4 C8_4 1_555 1_555
H15_4 C8_4 1_555 1_555
H16_4 C8_4 1_555 1_555
O3_4 Fe1_14 1_555 1_555
O4_4 Fe1_14 1_555 1_555
O7_4 Fe1_14 1_555 1_555
C9_4 O3_4 1_555 1_555
C10_4 O4_4 1_555 1_555
C13_4 O7_4 1_555 1_555
N3_4 C9_4 1_555 1_555
C14_4 C9_4 1_555 1_555
N4_4 C10_4 1_555 1_555
C15_4 C10_4 1_555 1_555
N7_4 C13_4 1_555 1_555
C18_4 C13_4 1_555 1_555
H17_4 N3_4 1_555 1_555
C19_4 N3_4 1_555 1_555
H18_4 C14_4 1_555 1_555
H19_4 C14_4 1_555 1_555
H20_4 C14_4 1_555 1_555
H21_4 N4_4 1_555 1_555
C20_4 N4_4 1_555 1_555
H22_4 C15_4 1_555 1_555
H23_4 C15_4 1_555 1_555
H24_4 C15_4 1_555 1_555
H33_4 N7_4 1_555 1_555
C23_4 N7_4 1_555 1_555
H34_4 C18_4 1_555 1_555
H36_4 C18_4 1_555 1_555
C24_4 C19_4 1_555 1_555
H37_4 C19_4 1_555 1_555
H38_4 C19_4 1_555 1_555
C25_4 C20_4 1_555 1_555
H39_4 C20_4 1_555 1_555
H40_4 C20_4 1_555 1_555
C28_4 C23_4 1_555 1_555
H45_4 C23_4 1_555 1_555
H46_4 C23_4 1_555 1_555
H47_4 C24_4 1_555 1_555
H48_4 C24_4 1_555 1_555
C29_4 C24_4 1_555 1_555
H49_4 C25_4 1_555 1_555
H50_4 C25_4 1_555 1_555
C30_4 C25_4 1_555 1_555
C33_4 C28_4 1_555 1_555
H55_4 C28_4 1_555 1_555
H56_4 C28_4 1_555 1_555
H58_4 C29_4 1_555 1_555
C35_4 C30_4 1_555 1_555
H59_4 C30_4 1_555 1_555
H60_4 C30_4 1_555 1_555
C38_4 C33_4 1_555 1_555
H65_4 C33_4 1_555 1_555
H66_4 C33_4 1_555 1_555
N9_4 C35_4 1_555 1_555
H69_4 C35_4 1_555 1_555
H70_4 C35_4 1_555 1_555
N12_4 C38_4 1_555 1_555
H75_4 C38_4 1_555 1_555
H76_4 C38_4 1_555 1_555
H78_4 N9_4 1_555 1_555
C40_4 N9_4 1_555 1_555
C43_4 N12_4 1_555 1_555
H81_4 N12_4 1_555 1_555
O16 C40_4 1_555 1_555
C45_4 C40_4 1_555 1_555
O14_2 C43_4 1_555 1_555
H85_4 C45_4 1_555 1_555
H86_4 C45_4 1_555 1_555
H87_4 C45_4 1_555 1_555
H88_4 C46_4 1_555 1_555
H90_4 C46_4 1_555 1_555

#END
