
###############################################################################
#
# This file contains modified crystal structure data generated from the
# MOF subset of the Cambridge Structural Database (CSD) v543 
# hosted by the Cambridge Crystallographic Data Centre (CCDC).
#
# This work is licensed under the Creative Commons
# Attribution-NonCommercial-ShareAlike 4.0 International License.
# To view a copy of this license, visit
# http://creativecommons.org/licenses/by-nc-sa/4.0/
# or send a letter to
# Creative Commons, PO Box 1866, Mountain View, CA 94042, USA.
#
# CIF created using the CSD Python API on 29 September 2022
# The structure has been converted into the P1 space group
# The structure has a 3D framework
# The original CSD entry OMAQEB01 is in the cubic crystal system
# The framework has been calculated to contain at least 10.0% void space
# The void calculation uses a probe of radius 1.32A, grid spacing 0.4
# The framework is charged, counterions have been retained in the structure
#
###############################################################################

data_OMAQEB01
_chemical_formula_moiety         '(C192 H384 Fe19 N48 O48 38+)n'
_symmetry_cell_setting           triclinic
_symmetry_space_group_name_H-M   'P 1'
_symmetry_Int_Tables_number      1
_space_group_name_Hall           'P 1'
loop_
_symmetry_equiv_pos_site_id
_symmetry_equiv_pos_as_xyz
1 x,y,z
_cell_length_a                   19.4549(8)
_cell_length_b                   19.4549(8)
_cell_length_c                   19.4549(8)
_cell_angle_alpha                90
_cell_angle_beta                 90
_cell_angle_gamma                90
_cell_volume                     7363.55
loop_
_atom_site_label
_atom_site_type_symbol
_atom_site_fract_x
_atom_site_fract_y
_atom_site_fract_z
Fe5 Fe 0.0000 0.0000 0.0000
H30 H 0.0136 0.1479 0.9101
H31 H 0.0326 0.1355 0.8328
Fe5_2 Fe 0.0000 0.0000 1.0000
Fe5_3 Fe 0.0000 1.0000 0.0000
Fe5_4 Fe 0.0000 1.0000 1.0000
Fe1 Fe 0.5000 0.0000 0.0000
Fe2 Fe 0.5000 0.0000 0.5000
O1 O 0.54791(15) 0.03959(19) 0.08851(14)
N1 N 0.6113(2) 0.1116(2) 0.1496(2)
H1 H 0.6518 0.1176 0.1663
C1 C 0.6057(2) 0.0593(2) 0.10690(19)
C2 C 0.6701(2) 0.0274(3) 0.0817(3)
H3 H 0.7088 0.0538 0.0972
H4 H 0.6697 0.0263 0.0323
O2 O 0.4750(3) 0.0983(3) 0.4616(3)
C3 C 0.4888(7) 0.1749(11) 0.3506(8)
H5 H 0.5191 0.2129 0.3620
H6 H 0.5130 0.1333 0.3636
C4 C 0.5597(8) 0.1614(7) 0.1735(9)
H7 H 0.5780 0.2078 0.1717
H8 H 0.5189 0.1593 0.1449
N2 N 0.4314(4) 0.1802(5) 0.3964(4)
H9 H 0.4011 0.2118 0.3906
C5 C 0.4258(4) 0.1363(3) 0.4473(4)
C6 C 0.4845(8) 0.1738(11) 0.2783(8)
H10 H 0.4796 0.2206 0.2619
H11 H 0.4433 0.1489 0.2651
C7 C 0.5431(9) 0.1425(18) 0.2443(8)
H12 H 0.5364 0.0931 0.2453
H13 H 0.5834 0.1522 0.2721
C8 C 0.3586(3) 0.1353(3) 0.4954(3)
H14 H 0.3521 0.0899 0.5136
H15 H 0.3645 0.1672 0.5326
H16 H 0.3191 0.1481 0.4688
O9 O 0.41149(14) 0.04791(15) 0.03959(19)
N9 N 0.3504(2) 0.1113(2) 0.1116(2)
H65 H 0.3337 0.1518 0.1176
C33 C 0.39310(19) 0.1057(2) 0.0593(2)
C34 C 0.4183(3) 0.1701(2) 0.0274(3)
H67 H 0.4028 0.2088 0.0538
H68 H 0.4677 0.1697 0.0263
H69 H 0.1380 0.0191 0.2129
H70 H 0.1364 0.0130 0.1333
C36 C 0.3265(9) 0.0597(8) 0.1614(7)
H71 H 0.3283 0.0780 0.2078
H72 H 0.3551 0.0189 0.1593
C39 C 0.2557(8) 0.0431(9) 0.1425(18)
H76 H 0.2547 0.0364 0.0931
H77 H 0.2279 0.0834 0.1522
O12 O 0.5983(3) 0.4616(3) 0.0250(3)
C43 C 0.6749(11) 0.3506(8) 0.0112(7)
N12 N 0.6802(5) 0.3964(4) 0.0686(4)
H89 H 0.7118 0.3906 0.0989
C45 C 0.6363(3) 0.4473(4) 0.0742(4)
C46 C 0.6738(11) 0.2783(8) 0.0155(8)
H90 H 0.7206 0.2619 0.0204
H91 H 0.6489 0.2651 0.0567
C48 C 0.6353(3) 0.4954(3) 0.1414(3)
H94 H 0.5899 0.5136 0.1479
H95 H 0.6672 0.5326 0.1355
H96 H 0.6481 0.4688 0.1809
Fe5_5 Fe 1.0000 0.0000 0.0000
Fe7 Fe 0.5000 0.5000 0.0000
O14 O 0.5983(3) 0.0384(3) 0.5250(3)
O16 O 0.4616(3) 0.0250(3) 0.5983(3)
Fe1_2 Fe 0.5000 0.0000 1.0000
O4 O 0.9616(3) 0.0250(3) 0.9017(3)
C11 C 0.8506(8) 0.0112(7) 0.8251(11)
N4 N 0.8964(4) 0.0686(4) 0.8198(5)
H25 H 0.8906 0.0989 0.7882
C13 C 0.9473(4) 0.0742(4) 0.8637(3)
C14 C 0.7783(8) 0.0155(8) 0.8262(11)
H26 H 0.7619 0.0204 0.7794
H27 H 0.7651 0.0567 0.8511
C16 C 0.9954(3) 0.1414(3) 0.8647(3)
H32 H 0.9688 0.1809 0.8519
H50 H 0.3264 0.0186 0.9009
H66 H 0.4009 0.1736 0.9814
O11 O 0.53959(19) 0.08851(14) 0.95209(15)
N11 N 0.6116(2) 0.1496(2) 0.8887(2)
H81 H 0.6176 0.1663 0.8482
C41 C 0.5593(2) 0.10690(19) 0.8943(2)
C42 C 0.5274(3) 0.0817(3) 0.8299(2)
H82 H 0.4814 0.0991 0.8264
H83 H 0.5538 0.0972 0.7912
H84 H 0.5263 0.0323 0.8303
H85 H 0.7129 0.3620 0.9809
H86 H 0.6333 0.3636 0.9870
C44 C 0.6614(7) 0.1735(9) 0.9403(8)
H87 H 0.7078 0.1717 0.9220
H88 H 0.6593 0.1449 0.9811
C47 C 0.6425(18) 0.2443(8) 0.9569(9)
H92 H 0.5931 0.2453 0.9636
H93 H 0.6522 0.2721 0.9166
Fe5_6 Fe 1.0000 0.0000 1.0000
Fe7_2 Fe 0.5000 0.5000 1.0000
Fe1_3 Fe 0.5000 1.0000 0.0000
Fe2_2 Fe 0.5000 1.0000 0.5000
H2 H 0.6736 0.9814 0.0991
H18 H 0.5991 0.8264 0.0186
O5 O 0.46041(19) 0.91149(14) 0.04791(15)
N5 N 0.3884(2) 0.8504(2) 0.1113(2)
H33 H 0.3824 0.8337 0.1518
C17 C 0.4407(2) 0.89310(19) 0.1057(2)
C18 C 0.4726(3) 0.9183(3) 0.1701(2)
H34 H 0.5186 0.9009 0.1736
H35 H 0.4462 0.9028 0.2088
H36 H 0.4737 0.9677 0.1697
H37 H 0.2871 0.6380 0.0191
H38 H 0.3667 0.6364 0.0130
C20 C 0.3386(7) 0.8265(9) 0.0597(8)
H39 H 0.2922 0.8283 0.0780
H40 H 0.3407 0.8551 0.0189
C23 C 0.3575(18) 0.7557(8) 0.0431(9)
H44 H 0.4069 0.7547 0.0364
H45 H 0.3478 0.7279 0.0834
O10 O 0.0384(3) 0.9750(3) 0.0983(3)
C35 C 0.1494(8) 0.9888(7) 0.1749(11)
N10 N 0.1036(4) 0.9314(4) 0.1802(5)
H73 H 0.1094 0.9011 0.2118
C37 C 0.0527(4) 0.9258(4) 0.1363(3)
C38 C 0.2217(8) 0.9845(8) 0.1738(11)
H74 H 0.2381 0.9796 0.2206
H75 H 0.2349 0.9433 0.1489
C40 C 0.0046(3) 0.8586(3) 0.1353(3)
H80 H 0.0312 0.8191 0.1481
Fe5_7 Fe 1.0000 1.0000 0.0000
O13 O 0.5384(3) 0.9750(3) 0.4017(3)
O15 O 0.5250(3) 0.9017(3) 0.5384(3)
O17 O 0.4017(3) 0.9616(3) 0.4750(3)
Fe1_4 Fe 0.5000 1.0000 1.0000
O3 O 0.58851(14) 0.95209(15) 0.96041(19)
N3 N 0.6496(2) 0.8887(2) 0.8884(2)
H17 H 0.6663 0.8482 0.8824
C9 C 0.60690(19) 0.8943(2) 0.9407(2)
C10 C 0.5817(3) 0.8299(2) 0.9726(3)
H19 H 0.5972 0.7912 0.9462
H20 H 0.5323 0.8303 0.9737
H21 H 0.8620 0.9809 0.7871
H22 H 0.8636 0.9870 0.8667
C12 C 0.6735(9) 0.9403(8) 0.8386(7)
H23 H 0.6717 0.9220 0.7922
H24 H 0.6449 0.9811 0.8407
C15 C 0.7443(8) 0.9569(9) 0.8575(18)
H28 H 0.7453 0.9636 0.9069
H29 H 0.7721 0.9166 0.8478
O6 O 0.4017(3) 0.5384(3) 0.9750(3)
C19 C 0.3251(11) 0.6494(8) 0.9888(7)
N6 N 0.3198(5) 0.6036(4) 0.9314(4)
H41 H 0.2882 0.6094 0.9011
C21 C 0.3637(3) 0.5527(4) 0.9258(4)
C22 C 0.3262(11) 0.7217(8) 0.9845(8)
H42 H 0.2794 0.7381 0.9796
H43 H 0.3511 0.7349 0.9433
C24 C 0.3647(3) 0.5046(3) 0.8586(3)
H46 H 0.4101 0.4864 0.8521
H47 H 0.3328 0.4674 0.8645
H48 H 0.3519 0.5312 0.8191
O7 O 0.45209(15) 0.96041(19) 0.91149(14)
N7 N 0.3887(2) 0.8884(2) 0.8504(2)
H49 H 0.3482 0.8824 0.8337
C25 C 0.3943(2) 0.9407(2) 0.89310(19)
C26 C 0.3299(2) 0.9726(3) 0.9183(3)
H51 H 0.2912 0.9462 0.9028
H52 H 0.3303 0.9737 0.9677
C27 C 0.5112(7) 0.8251(11) 0.6494(8)
H53 H 0.4809 0.7871 0.6380
H54 H 0.4870 0.8667 0.6364
C28 C 0.4403(8) 0.8386(7) 0.8265(9)
H55 H 0.4220 0.7922 0.8283
H56 H 0.4811 0.8407 0.8551
N8 N 0.5686(4) 0.8198(5) 0.6036(4)
H57 H 0.5989 0.7882 0.6094
C29 C 0.5742(4) 0.8637(3) 0.5527(4)
C30 C 0.5155(8) 0.8262(11) 0.7217(8)
H58 H 0.5204 0.7794 0.7381
H59 H 0.5567 0.8511 0.7349
C31 C 0.4569(9) 0.8575(18) 0.7557(8)
H60 H 0.4636 0.9069 0.7547
H61 H 0.4166 0.8478 0.7279
C32 C 0.6414(3) 0.8647(3) 0.5046(3)
H62 H 0.6479 0.9101 0.4864
H63 H 0.6355 0.8328 0.4674
H64 H 0.6809 0.8519 0.5312
Fe5_8 Fe 1.0000 1.0000 1.0000
H78 H 0.9864 0.8521 0.0899
H79 H 0.9674 0.8645 0.1672
Fe1_5 Fe 0.0000 0.0000 0.5000
O5_2 O 0.03959(19) 0.08851(14) 0.54791(15)
N5_2 N 0.1116(2) 0.1496(2) 0.6113(2)
H33_2 H 0.1176 0.1663 0.6518
C17_2 C 0.0593(2) 0.10690(19) 0.6057(2)
C18_2 C 0.0274(3) 0.0817(3) 0.6701(2)
H35_2 H 0.0538 0.0972 0.7088
H36_2 H 0.0263 0.0323 0.6697
O6_2 O 0.0983(3) 0.4616(3) 0.4750(3)
C19_2 C 0.1749(11) 0.3506(8) 0.4888(7)
H37_2 H 0.2129 0.3620 0.5191
H38_2 H 0.1333 0.3636 0.5130
C20_2 C 0.1614(7) 0.1735(9) 0.5597(8)
H39_2 H 0.2078 0.1717 0.5780
H40_2 H 0.1593 0.1449 0.5189
N6_2 N 0.1802(5) 0.3964(4) 0.4314(4)
H41_2 H 0.2118 0.3906 0.4011
C21_2 C 0.1363(3) 0.4473(4) 0.4258(4)
C22_2 C 0.1738(11) 0.2783(8) 0.4845(8)
H42_2 H 0.2206 0.2619 0.4796
H43_2 H 0.1489 0.2651 0.4433
C23_2 C 0.1425(18) 0.2443(8) 0.5431(9)
H44_2 H 0.0931 0.2453 0.5364
H45_2 H 0.1522 0.2721 0.5834
C24_2 C 0.1353(3) 0.4954(3) 0.3586(3)
H46_2 H 0.0899 0.5136 0.3521
H47_2 H 0.1672 0.5326 0.3645
H48_2 H 0.1481 0.4688 0.3191
O7_2 O 0.04791(15) 0.03959(19) 0.41149(14)
N7_2 N 0.1113(2) 0.1116(2) 0.3504(2)
H49_2 H 0.1518 0.1176 0.3337
C25_2 C 0.1057(2) 0.0593(2) 0.39310(19)
C26_2 C 0.1701(2) 0.0274(3) 0.4183(3)
H51_2 H 0.2088 0.0538 0.4028
H52_2 H 0.1697 0.0263 0.4677
H53_2 H 0.0191 0.2129 0.1380
H54_2 H 0.0130 0.1333 0.1364
C28_2 C 0.0597(8) 0.1614(7) 0.3265(9)
H55_2 H 0.0780 0.2078 0.3283
H56_2 H 0.0189 0.1593 0.3551
C31_2 C 0.0431(9) 0.1425(18) 0.2557(8)
H60_2 H 0.0364 0.0931 0.2547
H61_2 H 0.0834 0.1522 0.2279
C35_2 C 0.3506(8) 0.0112(7) 0.6749(11)
N10_2 N 0.3964(4) 0.0686(4) 0.6802(5)
H73_2 H 0.3906 0.0989 0.7118
C37_2 C 0.4473(4) 0.0742(4) 0.6363(3)
C38_2 C 0.2783(8) 0.0155(8) 0.6738(11)
H74_2 H 0.2619 0.0204 0.7206
H75_2 H 0.2651 0.0567 0.6489
C40_2 C 0.4954(3) 0.1414(3) 0.6353(3)
H78_2 H 0.5136 0.1479 0.5899
H79_2 H 0.5326 0.1355 0.6672
H80_2 H 0.4688 0.1809 0.6481
Fe6 Fe 0.0000 0.5000 0.5000
O17_2 O 0.0983(3) 0.0384(3) 0.9750(3)
H14_2 H 0.1479 0.9101 0.0136
H15_2 H 0.1355 0.8328 0.0326
Fe1_6 Fe 0.0000 1.0000 0.5000
O2_2 O 0.0250(3) 0.9017(3) 0.9616(3)
C3_2 C 0.0112(7) 0.8251(11) 0.8506(8)
N2_2 N 0.0686(4) 0.8198(5) 0.8964(4)
H9_2 H 0.0989 0.7882 0.8906
C5_2 C 0.0742(4) 0.8637(3) 0.9473(4)
C6_2 C 0.0155(8) 0.8262(11) 0.7783(8)
H10_2 H 0.0204 0.7794 0.7619
H11_2 H 0.0567 0.8511 0.7651
C8_2 C 0.1414(3) 0.8647(3) 0.9954(3)
H16_2 H 0.1809 0.8519 0.9688
H50_2 H 0.1736 0.9814 0.4009
O9_2 O 0.08851(14) 0.95209(15) 0.53959(19)
N9_2 N 0.1496(2) 0.8887(2) 0.6116(2)
H65_2 H 0.1663 0.8482 0.6176
C33_2 C 0.10690(19) 0.8943(2) 0.5593(2)
C34_2 C 0.0817(3) 0.8299(2) 0.5274(3)
H66_2 H 0.0991 0.8264 0.4814
H67_2 H 0.0972 0.7912 0.5538
H68_2 H 0.0323 0.8303 0.5263
H69_2 H 0.3620 0.9809 0.7129
H70_2 H 0.3636 0.9870 0.6333
C36_2 C 0.1735(9) 0.9403(8) 0.6614(7)
H71_2 H 0.1717 0.9220 0.7078
H72_2 H 0.1449 0.9811 0.6593
C39_2 C 0.2443(8) 0.9569(9) 0.6425(18)
H76_2 H 0.2453 0.9636 0.5931
H77_2 H 0.2721 0.9166 0.6522
H82_2 H 0.0186 0.9009 0.3264
O15_2 O 0.9750(3) 0.0983(3) 0.0384(3)
Fe1_7 Fe 1.0000 0.0000 0.5000
H2_2 H 0.8264 0.0186 0.5991
O3_2 O 0.91149(14) 0.04791(15) 0.46041(19)
N3_2 N 0.8504(2) 0.1113(2) 0.3884(2)
H17_2 H 0.8337 0.1518 0.3824
C9_2 C 0.89310(19) 0.1057(2) 0.4407(2)
C10_2 C 0.9183(3) 0.1701(2) 0.4726(3)
H18_2 H 0.9009 0.1736 0.5186
H19_2 H 0.9028 0.2088 0.4462
H20_2 H 0.9677 0.1697 0.4737
H21_2 H 0.6380 0.0191 0.2871
H22_2 H 0.6364 0.0130 0.3667
C12_2 C 0.8265(9) 0.0597(8) 0.3386(7)
H23_2 H 0.8283 0.0780 0.2922
H24_2 H 0.8551 0.0189 0.3407
C15_2 C 0.7557(8) 0.0431(9) 0.3575(18)
H28_2 H 0.7547 0.0364 0.4069
H29_2 H 0.7279 0.0834 0.3478
H34_2 H 0.9814 0.0991 0.6736
C27_2 C 0.9888(7) 0.1749(11) 0.1494(8)
N8_2 N 0.9314(4) 0.1802(5) 0.1036(4)
H57_2 H 0.9011 0.2118 0.1094
C29_2 C 0.9258(4) 0.1363(3) 0.0527(4)
C30_2 C 0.9845(8) 0.1738(11) 0.2217(8)
H58_2 H 0.9796 0.2206 0.2381
H59_2 H 0.9433 0.1489 0.2349
C32_2 C 0.8586(3) 0.1353(3) 0.0046(3)
H64_2 H 0.8191 0.1481 0.0312
Fe6_2 Fe 1.0000 0.5000 0.5000
H62_2 H 0.8521 0.0899 0.9864
H63_2 H 0.8645 0.1672 0.9674
O14_2 O 0.9017(3) 0.9616(3) 0.0250(3)
Fe1_8 Fe 1.0000 1.0000 0.5000
O1_2 O 0.95209(15) 0.96041(19) 0.58851(14)
N1_2 N 0.8887(2) 0.8884(2) 0.6496(2)
H1_2 H 0.8482 0.8824 0.6663
C1_2 C 0.8943(2) 0.9407(2) 0.60690(19)
C2_2 C 0.8299(2) 0.9726(3) 0.5817(3)
H3_2 H 0.7912 0.9462 0.5972
H4_2 H 0.8303 0.9737 0.5323
H5_2 H 0.9809 0.7871 0.8620
H6_2 H 0.9870 0.8667 0.8636
C4_2 C 0.9403(8) 0.8386(7) 0.6735(9)
H7_2 H 0.9220 0.7922 0.6717
H8_2 H 0.9811 0.8407 0.6449
C7_2 C 0.9569(9) 0.8575(18) 0.7443(8)
H12_2 H 0.9636 0.9069 0.7453
H13_2 H 0.9166 0.8478 0.7721
C11_2 C 0.6494(8) 0.9888(7) 0.3251(11)
N4_2 N 0.6036(4) 0.9314(4) 0.3198(5)
H25_2 H 0.6094 0.9011 0.2882
C13_2 C 0.5527(4) 0.9258(4) 0.3637(3)
C14_2 C 0.7217(8) 0.9845(8) 0.3262(11)
H26_2 H 0.7381 0.9796 0.2794
H27_2 H 0.7349 0.9433 0.3511
C16_2 C 0.5046(3) 0.8586(3) 0.3647(3)
H30_2 H 0.4864 0.8521 0.4101
H31_2 H 0.4674 0.8645 0.3328
H32_2 H 0.5312 0.8191 0.3519
O11_2 O 0.96041(19) 0.91149(14) 0.45209(15)
N11_2 N 0.8884(2) 0.8504(2) 0.3887(2)
H81_2 H 0.8824 0.8337 0.3482
C41_2 C 0.9407(2) 0.89310(19) 0.3943(2)
C42_2 C 0.9726(3) 0.9183(3) 0.3299(2)
H83_2 H 0.9462 0.9028 0.2912
H84_2 H 0.9737 0.9677 0.3303
O12_2 O 0.9017(3) 0.5384(3) 0.5250(3)
C43_2 C 0.8251(11) 0.6494(8) 0.5112(7)
H85_2 H 0.7871 0.6380 0.4809
H86_2 H 0.8667 0.6364 0.4870
C44_2 C 0.8386(7) 0.8265(9) 0.4403(8)
H87_2 H 0.7922 0.8283 0.4220
H88_2 H 0.8407 0.8551 0.4811
N12_2 N 0.8198(5) 0.6036(4) 0.5686(4)
H89_2 H 0.7882 0.6094 0.5989
C45_2 C 0.8637(3) 0.5527(4) 0.5742(4)
C46_2 C 0.8262(11) 0.7217(8) 0.5155(8)
H90_2 H 0.7794 0.7381 0.5204
H91_2 H 0.8511 0.7349 0.5567
C47_2 C 0.8575(18) 0.7557(8) 0.4569(9)
H92_2 H 0.9069 0.7547 0.4636
H93_2 H 0.8478 0.7279 0.4166
C48_2 C 0.8647(3) 0.5046(3) 0.6414(3)
H94_2 H 0.9101 0.4864 0.6479
H95_2 H 0.8328 0.4674 0.6355
H96_2 H 0.8519 0.5312 0.6809
H78_3 H 0.0136 0.3521 0.4101
H79_3 H 0.0326 0.3645 0.3328
H94_3 H 0.4101 0.0136 0.3521
H95_3 H 0.3328 0.0326 0.3645
H62_3 H 0.3521 0.4101 0.0136
H63_3 H 0.3645 0.3328 0.0326
Fe1_9 Fe 0.5000 0.5000 0.5000
O1_3 O 0.45209(15) 0.53959(19) 0.41149(14)
N1_3 N 0.3887(2) 0.6116(2) 0.3504(2)
H1_3 H 0.3482 0.6176 0.3337
C1_3 C 0.3943(2) 0.5593(2) 0.39310(19)
C2_3 C 0.3299(2) 0.5274(3) 0.4183(3)
H2_3 H 0.3264 0.4814 0.4009
H3_3 H 0.2912 0.5538 0.4028
H4_3 H 0.3303 0.5263 0.4677
O2_3 O 0.5250(3) 0.5983(3) 0.0384(3)
C3_3 C 0.5112(7) 0.6749(11) 0.1494(8)
H5_3 H 0.4809 0.7129 0.1380
H6_3 H 0.4870 0.6333 0.1364
C4_3 C 0.4403(8) 0.6614(7) 0.3265(9)
H7_3 H 0.4220 0.7078 0.3283
H8_3 H 0.4811 0.6593 0.3551
N2_3 N 0.5686(4) 0.6802(5) 0.1036(4)
H9_3 H 0.5989 0.7118 0.1094
C5_3 C 0.5742(4) 0.6363(3) 0.0527(4)
C6_3 C 0.5155(8) 0.6738(11) 0.2217(8)
H10_3 H 0.5204 0.7206 0.2381
H11_3 H 0.5567 0.6489 0.2349
C7_3 C 0.4569(9) 0.6425(18) 0.2557(8)
H12_3 H 0.4636 0.5931 0.2547
H13_3 H 0.4166 0.6522 0.2279
C8_3 C 0.6414(3) 0.6353(3) 0.0046(3)
H16_3 H 0.6809 0.6481 0.0312
O3_3 O 0.41149(14) 0.45209(15) 0.53959(19)
N3_3 N 0.3504(2) 0.3887(2) 0.6116(2)
H17_3 H 0.3337 0.3482 0.6176
C9_3 C 0.39310(19) 0.3943(2) 0.5593(2)
C10_3 C 0.4183(3) 0.3299(2) 0.5274(3)
H18_3 H 0.4009 0.3264 0.4814
H19_3 H 0.4028 0.2912 0.5538
H20_3 H 0.4677 0.3303 0.5263
O4_2 O 0.0384(3) 0.5250(3) 0.5983(3)
C11_3 C 0.1494(8) 0.5112(7) 0.6749(11)
H21_3 H 0.1380 0.4809 0.7129
H22_3 H 0.1364 0.4870 0.6333
C12_3 C 0.3265(9) 0.4403(8) 0.6614(7)
H23_3 H 0.3283 0.4220 0.7078
H24_3 H 0.3551 0.4811 0.6593
N4_3 N 0.1036(4) 0.5686(4) 0.6802(5)
H25_3 H 0.1094 0.5989 0.7118
C13_3 C 0.0527(4) 0.5742(4) 0.6363(3)
C14_3 C 0.2217(8) 0.5155(8) 0.6738(11)
H26_3 H 0.2381 0.5204 0.7206
H27_3 H 0.2349 0.5567 0.6489
C15_3 C 0.2557(8) 0.4569(9) 0.6425(18)
H28_3 H 0.2547 0.4636 0.5931
H29_3 H 0.2279 0.4166 0.6522
C16_3 C 0.0046(3) 0.6414(3) 0.6353(3)
H32_3 H 0.0312 0.6809 0.6481
O5_3 O 0.53959(19) 0.41149(14) 0.45209(15)
N5_3 N 0.6116(2) 0.3504(2) 0.3887(2)
H33_3 H 0.6176 0.3337 0.3482
C17_3 C 0.5593(2) 0.39310(19) 0.3943(2)
C18_3 C 0.5274(3) 0.4183(3) 0.3299(2)
H34_3 H 0.4814 0.4009 0.3264
H35_3 H 0.5538 0.4028 0.2912
H36_3 H 0.5263 0.4677 0.3303
C19_3 C 0.6749(11) 0.1494(8) 0.5112(7)
H37_3 H 0.7129 0.1380 0.4809
H38_3 H 0.6333 0.1364 0.4870
C20_3 C 0.6614(7) 0.3265(9) 0.4403(8)
H39_3 H 0.7078 0.3283 0.4220
H40_3 H 0.6593 0.3551 0.4811
N6_3 N 0.6802(5) 0.1036(4) 0.5686(4)
H41_3 H 0.7118 0.1094 0.5989
C21_3 C 0.6363(3) 0.0527(4) 0.5742(4)
C22_3 C 0.6738(11) 0.2217(8) 0.5155(8)
H42_3 H 0.7206 0.2381 0.5204
H43_3 H 0.6489 0.2349 0.5567
C23_3 C 0.6425(18) 0.2557(8) 0.4569(9)
H44_3 H 0.5931 0.2547 0.4636
H45_3 H 0.6522 0.2279 0.4166
C24_3 C 0.6353(3) 0.0046(3) 0.6414(3)
H48_3 H 0.6481 0.0312 0.6809
O7_3 O 0.54791(15) 0.46041(19) 0.58851(14)
N7_3 N 0.6113(2) 0.3884(2) 0.6496(2)
H49_3 H 0.6518 0.3824 0.6663
C25_3 C 0.6057(2) 0.4407(2) 0.60690(19)
C26_3 C 0.6701(2) 0.4726(3) 0.5817(3)
H50_3 H 0.6736 0.5186 0.5991
H51_3 H 0.7088 0.4462 0.5972
H52_3 H 0.6697 0.4737 0.5323
O8 O 0.4750(3) 0.4017(3) 0.9616(3)
C27_3 C 0.4888(7) 0.3251(11) 0.8506(8)
H53_3 H 0.5191 0.2871 0.8620
H54_3 H 0.5130 0.3667 0.8636
C28_3 C 0.5597(8) 0.3386(7) 0.6735(9)
H55_3 H 0.5780 0.2922 0.6717
H56_3 H 0.5189 0.3407 0.6449
N8_3 N 0.4314(4) 0.3198(5) 0.8964(4)
H57_3 H 0.4011 0.2882 0.8906
C29_3 C 0.4258(4) 0.3637(3) 0.9473(4)
C30_3 C 0.4845(8) 0.3262(11) 0.7783(8)
H58_3 H 0.4796 0.2794 0.7619
H59_3 H 0.4433 0.3511 0.7651
C31_3 C 0.5431(9) 0.3575(18) 0.7443(8)
H60_3 H 0.5364 0.4069 0.7453
H61_3 H 0.5834 0.3478 0.7721
C32_3 C 0.3586(3) 0.3647(3) 0.9954(3)
H64_3 H 0.3191 0.3519 0.9688
O9_3 O 0.58851(14) 0.54791(15) 0.46041(19)
N9_3 N 0.6496(2) 0.6113(2) 0.3884(2)
H65_3 H 0.6663 0.6518 0.3824
C33_3 C 0.60690(19) 0.6057(2) 0.4407(2)
C34_3 C 0.5817(3) 0.6701(2) 0.4726(3)
H66_3 H 0.5991 0.6736 0.5186
H67_3 H 0.5972 0.7088 0.4462
H68_3 H 0.5323 0.6697 0.4737
O10_2 O 0.9616(3) 0.4750(3) 0.4017(3)
C35_3 C 0.8506(8) 0.4888(7) 0.3251(11)
H69_3 H 0.8620 0.5191 0.2871
H70_3 H 0.8636 0.5130 0.3667
C36_3 C 0.6735(9) 0.5597(8) 0.3386(7)
H71_3 H 0.6717 0.5780 0.2922
H72_3 H 0.6449 0.5189 0.3407
N10_3 N 0.8964(4) 0.4314(4) 0.3198(5)
H73_3 H 0.8906 0.4011 0.2882
C37_3 C 0.9473(4) 0.4258(4) 0.3637(3)
C38_3 C 0.7783(8) 0.4845(8) 0.3262(11)
H74_3 H 0.7619 0.4796 0.2794
H75_3 H 0.7651 0.4433 0.3511
C39_3 C 0.7443(8) 0.5431(9) 0.3575(18)
H76_3 H 0.7453 0.5364 0.4069
H77_3 H 0.7721 0.5834 0.3478
C40_3 C 0.9954(3) 0.3586(3) 0.3647(3)
H80_3 H 0.9688 0.3191 0.3519
O11_3 O 0.46041(19) 0.58851(14) 0.54791(15)
N11_3 N 0.3884(2) 0.6496(2) 0.6113(2)
H81_3 H 0.3824 0.6663 0.6518
C41_3 C 0.4407(2) 0.60690(19) 0.6057(2)
C42_3 C 0.4726(3) 0.5817(3) 0.6701(2)
H82_3 H 0.5186 0.5991 0.6736
H83_3 H 0.4462 0.5972 0.7088
H84_3 H 0.4737 0.5323 0.6697
C43_3 C 0.3251(11) 0.8506(8) 0.4888(7)
H85_3 H 0.2871 0.8620 0.5191
H86_3 H 0.3667 0.8636 0.5130
C44_3 C 0.3386(7) 0.6735(9) 0.5597(8)
H87_3 H 0.2922 0.6717 0.5780
H88_3 H 0.3407 0.6449 0.5189
N12_3 N 0.3198(5) 0.8964(4) 0.4314(4)
H89_3 H 0.2882 0.8906 0.4011
C45_3 C 0.3637(3) 0.9473(4) 0.4258(4)
C46_3 C 0.3262(11) 0.7783(8) 0.4845(8)
H90_3 H 0.2794 0.7619 0.4796
H91_3 H 0.3511 0.7651 0.4433
C47_3 C 0.3575(18) 0.7443(8) 0.5431(9)
H92_3 H 0.4069 0.7453 0.5364
H93_3 H 0.3478 0.7721 0.5834
C48_3 C 0.3647(3) 0.9954(3) 0.3586(3)
H96_3 H 0.3519 0.9688 0.3191
O13_2 O 0.4616(3) 0.4750(3) 0.0983(3)
H14_3 H 0.6479 0.5899 0.9864
H15_3 H 0.6355 0.6672 0.9674
O16_2 O 0.5384(3) 0.5250(3) 0.9017(3)
H46_3 H 0.5899 0.9864 0.6479
H47_3 H 0.6672 0.9674 0.6355
H30_3 H 0.9864 0.6479 0.5899
H31_3 H 0.9674 0.6355 0.6672
Fe1_10 Fe 0.0000 0.5000 0.0000
O3_4 O 0.08851(14) 0.54791(15) 0.03959(19)
N3_4 N 0.1496(2) 0.6113(2) 0.1116(2)
H17_4 H 0.1663 0.6518 0.1176
C9_4 C 0.10690(19) 0.6057(2) 0.0593(2)
C10_4 C 0.0817(3) 0.6701(2) 0.0274(3)
H19_4 H 0.0972 0.7088 0.0538
H20_4 H 0.0323 0.6697 0.0263
C11_4 C 0.3506(8) 0.4888(7) 0.1749(11)
H21_4 H 0.3620 0.5191 0.2129
H22_4 H 0.3636 0.5130 0.1333
C12_4 C 0.1735(9) 0.5597(8) 0.1614(7)
H23_4 H 0.1717 0.5780 0.2078
H24_4 H 0.1449 0.5189 0.1593
N4_4 N 0.3964(4) 0.4314(4) 0.1802(5)
H25_4 H 0.3906 0.4011 0.2118
C13_4 C 0.4473(4) 0.4258(4) 0.1363(3)
C14_4 C 0.2783(8) 0.4845(8) 0.1738(11)
H26_4 H 0.2619 0.4796 0.2206
H27_4 H 0.2651 0.4433 0.1489
C15_4 C 0.2443(8) 0.5431(9) 0.1425(18)
H28_4 H 0.2453 0.5364 0.0931
H29_4 H 0.2721 0.5834 0.1522
C16_4 C 0.4954(3) 0.3586(3) 0.1353(3)
H30_4 H 0.5136 0.3521 0.0899
H31_4 H 0.5326 0.3645 0.1672
H32_4 H 0.4688 0.3191 0.1481
O8_2 O 0.0250(3) 0.5983(3) 0.4616(3)
C27_4 C 0.0112(7) 0.6749(11) 0.3506(8)
N8_4 N 0.0686(4) 0.6802(5) 0.3964(4)
H57_4 H 0.0989 0.7118 0.3906
C29_4 C 0.0742(4) 0.6363(3) 0.4473(4)
C30_4 C 0.0155(8) 0.6738(11) 0.2783(8)
H58_4 H 0.0204 0.7206 0.2619
H59_4 H 0.0567 0.6489 0.2651
C32_4 C 0.1414(3) 0.6353(3) 0.4954(3)
H62_4 H 0.1479 0.5899 0.5136
H63_4 H 0.1355 0.6672 0.5326
H64_4 H 0.1809 0.6481 0.4688
O11_4 O 0.03959(19) 0.41149(14) 0.04791(15)
N11_4 N 0.1116(2) 0.3504(2) 0.1113(2)
H81_4 H 0.1176 0.3337 0.1518
C41_4 C 0.0593(2) 0.39310(19) 0.1057(2)
C42_4 C 0.0274(3) 0.4183(3) 0.1701(2)
H83_4 H 0.0538 0.4028 0.2088
H84_4 H 0.0263 0.4677 0.1697
H85_4 H 0.2129 0.1380 0.0191
H86_4 H 0.1333 0.1364 0.0130
C44_4 C 0.1614(7) 0.3265(9) 0.0597(8)
H87_4 H 0.2078 0.3283 0.0780
H88_4 H 0.1593 0.3551 0.0189
C47_4 C 0.1425(18) 0.2557(8) 0.0431(9)
H92_4 H 0.0931 0.2547 0.0364
H93_4 H 0.1522 0.2279 0.0834
Fe1_11 Fe 0.0000 0.5000 1.0000
O1_4 O 0.04791(15) 0.46041(19) 0.91149(14)
N1_4 N 0.1113(2) 0.3884(2) 0.8504(2)
H1_4 H 0.1518 0.3824 0.8337
C1_4 C 0.1057(2) 0.4407(2) 0.89310(19)
C2_4 C 0.1701(2) 0.4726(3) 0.9183(3)
H2_4 H 0.1736 0.5186 0.9009
H3_4 H 0.2088 0.4462 0.9028
H4_4 H 0.1697 0.4737 0.9677
H5_4 H 0.0191 0.2871 0.6380
H6_4 H 0.0130 0.3667 0.6364
C4_4 C 0.0597(8) 0.3386(7) 0.8265(9)
H7_4 H 0.0780 0.2922 0.8283
H8_4 H 0.0189 0.3407 0.8551
C7_4 C 0.0431(9) 0.3575(18) 0.7557(8)
H12_4 H 0.0364 0.4069 0.7547
H13_4 H 0.0834 0.3478 0.7279
H18_4 H 0.0991 0.6736 0.9814
H34_4 H 0.0186 0.5991 0.8264
C43_4 C 0.1749(11) 0.1494(8) 0.9888(7)
N12_4 N 0.1802(5) 0.1036(4) 0.9314(4)
H89_4 H 0.2118 0.1094 0.9011
C45_4 C 0.1363(3) 0.0527(4) 0.9258(4)
C46_4 C 0.1738(11) 0.2217(8) 0.9845(8)
H90_4 H 0.2206 0.2381 0.9796
H91_4 H 0.1489 0.2349 0.9433
C48_4 C 0.1353(3) 0.0046(3) 0.8586(3)
H96_4 H 0.1481 0.0312 0.8191
H94_4 H 0.0899 0.9864 0.8521
H95_4 H 0.1672 0.9674 0.8645
H46_4 H 0.9101 0.0136 0.1479
H47_4 H 0.8328 0.0326 0.1355
Fe1_12 Fe 1.0000 0.5000 0.0000
C19_4 C 0.8251(11) 0.8506(8) 0.0112(7)
N6_4 N 0.8198(5) 0.8964(4) 0.0686(4)
H41_4 H 0.7882 0.8906 0.0989
C21_4 C 0.8637(3) 0.9473(4) 0.0742(4)
C22_4 C 0.8262(11) 0.7783(8) 0.0155(8)
H42_4 H 0.7794 0.7619 0.0204
H43_4 H 0.8511 0.7651 0.0567
C24_4 C 0.8647(3) 0.9954(3) 0.1414(3)
H48_4 H 0.8519 0.9688 0.1809
O7_4 O 0.95209(15) 0.53959(19) 0.08851(14)
N7_4 N 0.8887(2) 0.6116(2) 0.1496(2)
H49_4 H 0.8482 0.6176 0.1663
C25_4 C 0.8943(2) 0.5593(2) 0.10690(19)
C26_4 C 0.8299(2) 0.5274(3) 0.0817(3)
H50_4 H 0.8264 0.4814 0.0991
H51_4 H 0.7912 0.5538 0.0972
H52_4 H 0.8303 0.5263 0.0323
H53_4 H 0.9809 0.7129 0.3620
H54_4 H 0.9870 0.6333 0.3636
C28_4 C 0.9403(8) 0.6614(7) 0.1735(9)
H55_4 H 0.9220 0.7078 0.1717
H56_4 H 0.9811 0.6593 0.1449
C31_4 C 0.9569(9) 0.6425(18) 0.2443(8)
H60_4 H 0.9636 0.5931 0.2453
H61_4 H 0.9166 0.6522 0.2721
H66_4 H 0.9009 0.3264 0.0186
H82_4 H 0.9814 0.4009 0.1736
Fe1_13 Fe 1.0000 0.5000 1.0000
O2_4 O 0.9750(3) 0.4017(3) 0.5384(3)
C3_4 C 0.9888(7) 0.3251(11) 0.6494(8)
N2_4 N 0.9314(4) 0.3198(5) 0.6036(4)
H9_4 H 0.9011 0.2882 0.6094
C5_4 C 0.9258(4) 0.3637(3) 0.5527(4)
C6_4 C 0.9845(8) 0.3262(11) 0.7217(8)
H10_4 H 0.9796 0.2794 0.7381
H11_4 H 0.9433 0.3511 0.7349
C8_4 C 0.8586(3) 0.3647(3) 0.5046(3)
H14_4 H 0.8521 0.4101 0.4864
H15_4 H 0.8645 0.3328 0.4674
H16_4 H 0.8191 0.3519 0.5312
O5_4 O 0.96041(19) 0.58851(14) 0.95209(15)
N5_4 N 0.8884(2) 0.6496(2) 0.8887(2)
H33_4 H 0.8824 0.6663 0.8482
C17_4 C 0.9407(2) 0.60690(19) 0.8943(2)
C18_4 C 0.9726(3) 0.5817(3) 0.8299(2)
H35_4 H 0.9462 0.5972 0.7912
H36_4 H 0.9737 0.5323 0.8303
H37_4 H 0.7871 0.8620 0.9809
H38_4 H 0.8667 0.8636 0.9870
C20_4 C 0.8386(7) 0.6735(9) 0.9403(8)
H39_4 H 0.7922 0.6717 0.9220
H40_4 H 0.8407 0.6449 0.9811
C23_4 C 0.8575(18) 0.7443(8) 0.9569(9)
H44_4 H 0.9069 0.7453 0.9636
H45_4 H 0.8478 0.7721 0.9166
O9_4 O 0.91149(14) 0.45209(15) 0.96041(19)
N9_4 N 0.8504(2) 0.3887(2) 0.8884(2)
H65_4 H 0.8337 0.3482 0.8824
C33_4 C 0.89310(19) 0.3943(2) 0.9407(2)
C34_4 C 0.9183(3) 0.3299(2) 0.9726(3)
H67_4 H 0.9028 0.2912 0.9462
H68_4 H 0.9677 0.3303 0.9737
C35_4 C 0.6494(8) 0.5112(7) 0.8251(11)
H69_4 H 0.6380 0.4809 0.7871
H70_4 H 0.6364 0.4870 0.8667
C36_4 C 0.8265(9) 0.4403(8) 0.8386(7)
H71_4 H 0.8283 0.4220 0.7922
H72_4 H 0.8551 0.4811 0.8407
N10_4 N 0.6036(4) 0.5686(4) 0.8198(5)
H73_4 H 0.6094 0.5989 0.7882
C37_4 C 0.5527(4) 0.5742(4) 0.8637(3)
C38_4 C 0.7217(8) 0.5155(8) 0.8262(11)
H74_4 H 0.7381 0.5204 0.7794
H75_4 H 0.7349 0.5567 0.8511
C39_4 C 0.7557(8) 0.4569(9) 0.8575(18)
H76_4 H 0.7547 0.4636 0.9069
H77_4 H 0.7279 0.4166 0.8478
C40_4 C 0.5046(3) 0.6414(3) 0.8647(3)
H78_4 H 0.4864 0.6479 0.9101
H79_4 H 0.4674 0.6355 0.8328
H80_4 H 0.5312 0.6809 0.8519
loop_
_geom_bond_atom_site_label_1
_geom_bond_atom_site_label_2
_geom_bond_site_symmetry_1
_geom_bond_site_symmetry_2
Fe1 O1 1_555 1_555
Fe2 O2 1_555 1_555
O1 C1 1_555 1_555
N1 H1 1_555 1_555
C1 N1 1_555 1_555
C2 C1 1_555 1_555
H3 C2 1_555 1_555
H4 C2 1_555 1_555
O2 C5 1_555 1_555
C3 H5 1_555 1_555
H6 C3 1_555 1_555
C4 N1 1_555 1_555
H7 C4 1_555 1_555
H8 C4 1_555 1_555
N2 C3 1_555 1_555
H9 N2 1_555 1_555
C5 N2 1_555 1_555
C6 C3 1_555 1_555
H10 C6 1_555 1_555
H11 C6 1_555 1_555
C7 C4 1_555 1_555
H12 C7 1_555 1_555
H13 C7 1_555 1_555
C8 C5 1_555 1_555
H14 C8 1_555 1_555
H15 C8 1_555 1_555
H16 C8 1_555 1_555
O9 Fe1 1_555 1_555
N9 H65 1_555 1_555
C33 O9 1_555 1_555
C34 C33 1_555 1_555
H67 C34 1_555 1_555
H68 C34 1_555 1_555
C36 N9 1_555 1_555
H71 C36 1_555 1_555
H72 C36 1_555 1_555
C39 C36 1_555 1_555
H76 C39 1_555 1_555
H77 C39 1_555 1_555
O12 C45 1_555 1_555
N12 C43 1_555 1_555
H89 N12 1_555 1_555
C45 N12 1_555 1_555
C46 C43 1_555 1_555
H90 C46 1_555 1_555
H91 C46 1_555 1_555
C48 C45 1_555 1_555
H94 C48 1_555 1_555
H95 C48 1_555 1_555
H96 C48 1_555 1_555
Fe7 O12 1_555 1_555
O14 Fe2 1_555 1_555
O16 Fe2 1_555 1_555
C6 C7 1_555 1_555
N9 C33 1_555 1_555
O4 C13 1_555 1_555
N4 C11 1_555 1_555
H25 N4 1_555 1_555
C13 N4 1_555 1_555
C14 C11 1_555 1_555
H26 C14 1_555 1_555
H27 C14 1_555 1_555
C16 C13 1_555 1_555
H32 C16 1_555 1_555
O11 Fe1_2 1_555 1_555
N11 H81 1_555 1_555
C41 O11 1_555 1_555
C42 C41 1_555 1_555
H82 C42 1_555 1_555
H83 C42 1_555 1_555
H84 C42 1_555 1_555
C44 N11 1_555 1_555
H87 C44 1_555 1_555
H88 C44 1_555 1_555
C47 C44 1_555 1_555
H92 C47 1_555 1_555
H93 C47 1_555 1_555
Fe5_6 O4 1_555 1_555
N11 C41 1_555 1_555
O5 Fe1_3 1_555 1_555
N5 H33 1_555 1_555
C17 O5 1_555 1_555
C18 C17 1_555 1_555
H34 C18 1_555 1_555
H35 C18 1_555 1_555
H36 C18 1_555 1_555
C20 N5 1_555 1_555
H39 C20 1_555 1_555
H40 C20 1_555 1_555
C23 C20 1_555 1_555
H44 C23 1_555 1_555
H45 C23 1_555 1_555
O10 C37 1_555 1_555
N10 C35 1_555 1_555
H73 N10 1_555 1_555
C37 N10 1_555 1_555
C38 C35 1_555 1_555
H74 C38 1_555 1_555
H75 C38 1_555 1_555
C40 C37 1_555 1_555
H80 C40 1_555 1_555
Fe5_3 O10 1_555 1_555
O13 Fe2_2 1_555 1_555
O15 Fe2_2 1_555 1_555
O17 Fe2_2 1_555 1_555
N5 C17 1_555 1_555
O3 Fe1_4 1_555 1_555
N3 H17 1_555 1_555
C9 O3 1_555 1_555
C10 C9 1_555 1_555
H19 C10 1_555 1_555
H20 C10 1_555 1_555
C12 N3 1_555 1_555
H23 C12 1_555 1_555
H24 C12 1_555 1_555
C15 C12 1_555 1_555
H28 C15 1_555 1_555
H29 C15 1_555 1_555
O6 C21 1_555 1_555
N6 C19 1_555 1_555
H41 N6 1_555 1_555
C21 N6 1_555 1_555
C22 C19 1_555 1_555
H42 C22 1_555 1_555
H43 C22 1_555 1_555
C24 C21 1_555 1_555
H46 C24 1_555 1_555
H47 C24 1_555 1_555
H48 C24 1_555 1_555
O7 Fe1_4 1_555 1_555
N7 H49 1_555 1_555
C25 O7 1_555 1_555
C26 C25 1_555 1_555
H51 C26 1_555 1_555
H52 C26 1_555 1_555
O15 C29 1_555 1_555
C27 H53 1_555 1_555
H54 C27 1_555 1_555
C28 N7 1_555 1_555
H55 C28 1_555 1_555
H56 C28 1_555 1_555
N8 C27 1_555 1_555
H57 N8 1_555 1_555
C29 N8 1_555 1_555
C30 C27 1_555 1_555
H58 C30 1_555 1_555
H59 C30 1_555 1_555
C31 C28 1_555 1_555
H60 C31 1_555 1_555
H61 C31 1_555 1_555
C32 C29 1_555 1_555
H62 C32 1_555 1_555
H63 C32 1_555 1_555
H64 C32 1_555 1_555
Fe7_2 O6 1_555 1_555
N3 C9 1_555 1_555
N7 C25 1_555 1_555
C30 C31 1_555 1_555
O5_2 Fe1_5 1_555 1_555
N5_2 H33_2 1_555 1_555
C17_2 O5_2 1_555 1_555
C18_2 C17_2 1_555 1_555
H35_2 C18_2 1_555 1_555
H36_2 C18_2 1_555 1_555
O6_2 C21_2 1_555 1_555
C19_2 H37_2 1_555 1_555
H38_2 C19_2 1_555 1_555
C20_2 N5_2 1_555 1_555
H39_2 C20_2 1_555 1_555
H40_2 C20_2 1_555 1_555
N6_2 C19_2 1_555 1_555
H41_2 N6_2 1_555 1_555
C21_2 N6_2 1_555 1_555
C22_2 C19_2 1_555 1_555
H42_2 C22_2 1_555 1_555
H43_2 C22_2 1_555 1_555
C23_2 C20_2 1_555 1_555
H44_2 C23_2 1_555 1_555
H45_2 C23_2 1_555 1_555
C24_2 C21_2 1_555 1_555
H46_2 C24_2 1_555 1_555
H47_2 C24_2 1_555 1_555
H48_2 C24_2 1_555 1_555
O7_2 Fe1_5 1_555 1_555
N7_2 H49_2 1_555 1_555
C25_2 O7_2 1_555 1_555
C26_2 C25_2 1_555 1_555
H51_2 C26_2 1_555 1_555
H52_2 C26_2 1_555 1_555
C28_2 N7_2 1_555 1_555
H55_2 C28_2 1_555 1_555
H56_2 C28_2 1_555 1_555
C31_2 C28_2 1_555 1_555
H60_2 C31_2 1_555 1_555
H61_2 C31_2 1_555 1_555
O16 C37_2 1_555 1_555
N10_2 C35_2 1_555 1_555
H73_2 N10_2 1_555 1_555
C37_2 N10_2 1_555 1_555
C38_2 C35_2 1_555 1_555
H74_2 C38_2 1_555 1_555
H75_2 C38_2 1_555 1_555
C40_2 C37_2 1_555 1_555
H78_2 C40_2 1_555 1_555
H79_2 C40_2 1_555 1_555
H80_2 C40_2 1_555 1_555
Fe6 O6_2 1_555 1_555
O17_2 Fe5_2 1_555 1_555
N5_2 C17_2 1_555 1_555
C22_2 C23_2 1_555 1_555
N7_2 C25_2 1_555 1_555
Fe5_4 O2_2 1_555 1_555
O2_2 C5_2 1_555 1_555
N2_2 C3_2 1_555 1_555
H9_2 N2_2 1_555 1_555
C5_2 N2_2 1_555 1_555
C6_2 C3_2 1_555 1_555
H10_2 C6_2 1_555 1_555
H11_2 C6_2 1_555 1_555
C8_2 C5_2 1_555 1_555
H16_2 C8_2 1_555 1_555
O9_2 Fe1_6 1_555 1_555
N9_2 H65_2 1_555 1_555
C33_2 O9_2 1_555 1_555
C34_2 C33_2 1_555 1_555
H66_2 C34_2 1_555 1_555
H67_2 C34_2 1_555 1_555
H68_2 C34_2 1_555 1_555
C36_2 N9_2 1_555 1_555
H71_2 C36_2 1_555 1_555
H72_2 C36_2 1_555 1_555
C39_2 C36_2 1_555 1_555
H76_2 C39_2 1_555 1_555
H77_2 C39_2 1_555 1_555
N9_2 C33_2 1_555 1_555
O15_2 Fe5_5 1_555 1_555
O3_2 Fe1_7 1_555 1_555
N3_2 H17_2 1_555 1_555
C9_2 O3_2 1_555 1_555
C10_2 C9_2 1_555 1_555
H18_2 C10_2 1_555 1_555
H19_2 C10_2 1_555 1_555
H20_2 C10_2 1_555 1_555
C12_2 N3_2 1_555 1_555
H23_2 C12_2 1_555 1_555
H24_2 C12_2 1_555 1_555
C15_2 C12_2 1_555 1_555
H28_2 C15_2 1_555 1_555
H29_2 C15_2 1_555 1_555
O15_2 C29_2 1_555 1_555
N8_2 C27_2 1_555 1_555
H57_2 N8_2 1_555 1_555
C29_2 N8_2 1_555 1_555
C30_2 C27_2 1_555 1_555
H58_2 C30_2 1_555 1_555
H59_2 C30_2 1_555 1_555
C32_2 C29_2 1_555 1_555
H64_2 C32_2 1_555 1_555
N3_2 C9_2 1_555 1_555
O14_2 Fe5_7 1_555 1_555
Fe1_8 O1_2 1_555 1_555
O1_2 C1_2 1_555 1_555
N1_2 H1_2 1_555 1_555
C1_2 N1_2 1_555 1_555
C2_2 C1_2 1_555 1_555
H3_2 C2_2 1_555 1_555
H4_2 C2_2 1_555 1_555
C4_2 N1_2 1_555 1_555
H7_2 C4_2 1_555 1_555
H8_2 C4_2 1_555 1_555
C7_2 C4_2 1_555 1_555
H12_2 C7_2 1_555 1_555
H13_2 C7_2 1_555 1_555
O13 C13_2 1_555 1_555
N4_2 C11_2 1_555 1_555
H25_2 N4_2 1_555 1_555
C13_2 N4_2 1_555 1_555
C14_2 C11_2 1_555 1_555
H26_2 C14_2 1_555 1_555
H27_2 C14_2 1_555 1_555
C16_2 C13_2 1_555 1_555
H30_2 C16_2 1_555 1_555
H31_2 C16_2 1_555 1_555
H32_2 C16_2 1_555 1_555
O11_2 Fe1_8 1_555 1_555
N11_2 H81_2 1_555 1_555
C41_2 O11_2 1_555 1_555
C42_2 C41_2 1_555 1_555
H83_2 C42_2 1_555 1_555
H84_2 C42_2 1_555 1_555
O12_2 C45_2 1_555 1_555
C43_2 H85_2 1_555 1_555
H86_2 C43_2 1_555 1_555
C44_2 N11_2 1_555 1_555
H87_2 C44_2 1_555 1_555
H88_2 C44_2 1_555 1_555
N12_2 C43_2 1_555 1_555
H89_2 N12_2 1_555 1_555
C45_2 N12_2 1_555 1_555
C46_2 C43_2 1_555 1_555
H90_2 C46_2 1_555 1_555
H91_2 C46_2 1_555 1_555
C47_2 C44_2 1_555 1_555
H92_2 C47_2 1_555 1_555
H93_2 C47_2 1_555 1_555
C48_2 C45_2 1_555 1_555
H94_2 C48_2 1_555 1_555
H95_2 C48_2 1_555 1_555
H96_2 C48_2 1_555 1_555
Fe6_2 O12_2 1_555 1_555
N11_2 C41_2 1_555 1_555
C46_2 C47_2 1_555 1_555
Fe1_9 O1_3 1_555 1_555
Fe7 O2_3 1_555 1_555
O1_3 C1_3 1_555 1_555
N1_3 H1_3 1_555 1_555
C1_3 N1_3 1_555 1_555
C2_3 C1_3 1_555 1_555
H2_3 C2_3 1_555 1_555
H3_3 C2_3 1_555 1_555
H4_3 C2_3 1_555 1_555
O2_3 C5_3 1_555 1_555
C3_3 H5_3 1_555 1_555
H6_3 C3_3 1_555 1_555
C4_3 N1_3 1_555 1_555
H7_3 C4_3 1_555 1_555
H8_3 C4_3 1_555 1_555
N2_3 C3_3 1_555 1_555
H9_3 N2_3 1_555 1_555
C5_3 N2_3 1_555 1_555
C6_3 C3_3 1_555 1_555
H10_3 C6_3 1_555 1_555
H11_3 C6_3 1_555 1_555
C7_3 C4_3 1_555 1_555
H12_3 C7_3 1_555 1_555
H13_3 C7_3 1_555 1_555
C8_3 C5_3 1_555 1_555
H16_3 C8_3 1_555 1_555
O3_3 Fe1_9 1_555 1_555
N3_3 H17_3 1_555 1_555
C9_3 O3_3 1_555 1_555
C10_3 C9_3 1_555 1_555
H18_3 C10_3 1_555 1_555
H19_3 C10_3 1_555 1_555
H20_3 C10_3 1_555 1_555
O4_2 C13_3 1_555 1_555
C11_3 H21_3 1_555 1_555
H22_3 C11_3 1_555 1_555
C12_3 N3_3 1_555 1_555
H23_3 C12_3 1_555 1_555
H24_3 C12_3 1_555 1_555
N4_3 C11_3 1_555 1_555
H25_3 N4_3 1_555 1_555
C13_3 N4_3 1_555 1_555
C14_3 C11_3 1_555 1_555
H26_3 C14_3 1_555 1_555
H27_3 C14_3 1_555 1_555
C15_3 C12_3 1_555 1_555
H28_3 C15_3 1_555 1_555
H29_3 C15_3 1_555 1_555
C16_3 C13_3 1_555 1_555
H32_3 C16_3 1_555 1_555
O5_3 Fe1_9 1_555 1_555
N5_3 H33_3 1_555 1_555
C17_3 O5_3 1_555 1_555
C18_3 C17_3 1_555 1_555
H34_3 C18_3 1_555 1_555
H35_3 C18_3 1_555 1_555
H36_3 C18_3 1_555 1_555
O14 C21_3 1_555 1_555
C19_3 H37_3 1_555 1_555
H38_3 C19_3 1_555 1_555
C20_3 N5_3 1_555 1_555
H39_3 C20_3 1_555 1_555
H40_3 C20_3 1_555 1_555
N6_3 C19_3 1_555 1_555
H41_3 N6_3 1_555 1_555
C21_3 N6_3 1_555 1_555
C22_3 C19_3 1_555 1_555
H42_3 C22_3 1_555 1_555
H43_3 C22_3 1_555 1_555
C23_3 C20_3 1_555 1_555
H44_3 C23_3 1_555 1_555
H45_3 C23_3 1_555 1_555
C24_3 C21_3 1_555 1_555
H48_3 C24_3 1_555 1_555
O7_3 Fe1_9 1_555 1_555
N7_3 H49_3 1_555 1_555
C25_3 O7_3 1_555 1_555
C26_3 C25_3 1_555 1_555
H50_3 C26_3 1_555 1_555
H51_3 C26_3 1_555 1_555
H52_3 C26_3 1_555 1_555
O8 C29_3 1_555 1_555
C27_3 H53_3 1_555 1_555
H54_3 C27_3 1_555 1_555
C28_3 N7_3 1_555 1_555
H55_3 C28_3 1_555 1_555
H56_3 C28_3 1_555 1_555
N8_3 C27_3 1_555 1_555
H57_3 N8_3 1_555 1_555
C29_3 N8_3 1_555 1_555
C30_3 C27_3 1_555 1_555
H58_3 C30_3 1_555 1_555
H59_3 C30_3 1_555 1_555
C31_3 C28_3 1_555 1_555
H60_3 C31_3 1_555 1_555
H61_3 C31_3 1_555 1_555
C32_3 C29_3 1_555 1_555
H64_3 C32_3 1_555 1_555
O9_3 Fe1_9 1_555 1_555
N9_3 H65_3 1_555 1_555
C33_3 O9_3 1_555 1_555
C34_3 C33_3 1_555 1_555
H66_3 C34_3 1_555 1_555
H67_3 C34_3 1_555 1_555
H68_3 C34_3 1_555 1_555
O10_2 C37_3 1_555 1_555
C35_3 H69_3 1_555 1_555
H70_3 C35_3 1_555 1_555
C36_3 N9_3 1_555 1_555
H71_3 C36_3 1_555 1_555
H72_3 C36_3 1_555 1_555
N10_3 C35_3 1_555 1_555
H73_3 N10_3 1_555 1_555
C37_3 N10_3 1_555 1_555
C38_3 C35_3 1_555 1_555
H74_3 C38_3 1_555 1_555
H75_3 C38_3 1_555 1_555
C39_3 C36_3 1_555 1_555
H76_3 C39_3 1_555 1_555
H77_3 C39_3 1_555 1_555
C40_3 C37_3 1_555 1_555
H80_3 C40_3 1_555 1_555
O11_3 Fe1_9 1_555 1_555
N11_3 H81_3 1_555 1_555
C41_3 O11_3 1_555 1_555
C42_3 C41_3 1_555 1_555
H82_3 C42_3 1_555 1_555
H83_3 C42_3 1_555 1_555
H84_3 C42_3 1_555 1_555
O17 C45_3 1_555 1_555
C43_3 H85_3 1_555 1_555
H86_3 C43_3 1_555 1_555
C44_3 N11_3 1_555 1_555
H87_3 C44_3 1_555 1_555
H88_3 C44_3 1_555 1_555
N12_3 C43_3 1_555 1_555
H89_3 N12_3 1_555 1_555
C45_3 N12_3 1_555 1_555
C46_3 C43_3 1_555 1_555
H90_3 C46_3 1_555 1_555
H91_3 C46_3 1_555 1_555
C47_3 C44_3 1_555 1_555
H92_3 C47_3 1_555 1_555
H93_3 C47_3 1_555 1_555
C48_3 C45_3 1_555 1_555
H96_3 C48_3 1_555 1_555
Fe7_2 O8 1_555 1_555
Fe6_2 O10_2 1_555 1_555
Fe6 O4_2 1_555 1_555
O13_2 Fe7 1_555 1_555
C6_3 C7_3 1_555 1_555
N3_3 C9_3 1_555 1_555
C14_3 C15_3 1_555 1_555
N5_3 C17_3 1_555 1_555
C22_3 C23_3 1_555 1_555
N7_3 C25_3 1_555 1_555
C30_3 C31_3 1_555 1_555
N9_3 C33_3 1_555 1_555
C38_3 C39_3 1_555 1_555
N11_3 C41_3 1_555 1_555
C46_3 C47_3 1_555 1_555
O16_2 Fe7_2 1_555 1_555
O3_4 Fe1_10 1_555 1_555
N3_4 H17_4 1_555 1_555
C9_4 O3_4 1_555 1_555
C10_4 C9_4 1_555 1_555
H19_4 C10_4 1_555 1_555
H20_4 C10_4 1_555 1_555
O13_2 C13_4 1_555 1_555
C11_4 H21_4 1_555 1_555
H22_4 C11_4 1_555 1_555
C12_4 N3_4 1_555 1_555
H23_4 C12_4 1_555 1_555
H24_4 C12_4 1_555 1_555
N4_4 C11_4 1_555 1_555
H25_4 N4_4 1_555 1_555
C13_4 N4_4 1_555 1_555
C14_4 C11_4 1_555 1_555
H26_4 C14_4 1_555 1_555
H27_4 C14_4 1_555 1_555
C15_4 C12_4 1_555 1_555
H28_4 C15_4 1_555 1_555
H29_4 C15_4 1_555 1_555
C16_4 C13_4 1_555 1_555
H30_4 C16_4 1_555 1_555
H31_4 C16_4 1_555 1_555
H32_4 C16_4 1_555 1_555
O8_2 C29_4 1_555 1_555
N8_4 C27_4 1_555 1_555
H57_4 N8_4 1_555 1_555
C29_4 N8_4 1_555 1_555
C30_4 C27_4 1_555 1_555
H58_4 C30_4 1_555 1_555
H59_4 C30_4 1_555 1_555
C32_4 C29_4 1_555 1_555
H62_4 C32_4 1_555 1_555
H63_4 C32_4 1_555 1_555
H64_4 C32_4 1_555 1_555
O11_4 Fe1_10 1_555 1_555
N11_4 H81_4 1_555 1_555
C41_4 O11_4 1_555 1_555
C42_4 C41_4 1_555 1_555
H83_4 C42_4 1_555 1_555
H84_4 C42_4 1_555 1_555
C44_4 N11_4 1_555 1_555
H87_4 C44_4 1_555 1_555
H88_4 C44_4 1_555 1_555
C47_4 C44_4 1_555 1_555
H92_4 C47_4 1_555 1_555
H93_4 C47_4 1_555 1_555
Fe6 O8_2 1_555 1_555
N3_4 C9_4 1_555 1_555
C14_4 C15_4 1_555 1_555
N11_4 C41_4 1_555 1_555
Fe1_11 O1_4 1_555 1_555
O1_4 C1_4 1_555 1_555
N1_4 H1_4 1_555 1_555
C1_4 N1_4 1_555 1_555
C2_4 C1_4 1_555 1_555
H2_4 C2_4 1_555 1_555
H3_4 C2_4 1_555 1_555
H4_4 C2_4 1_555 1_555
C4_4 N1_4 1_555 1_555
H7_4 C4_4 1_555 1_555
H8_4 C4_4 1_555 1_555
C7_4 C4_4 1_555 1_555
H12_4 C7_4 1_555 1_555
H13_4 C7_4 1_555 1_555
O17_2 C45_4 1_555 1_555
N12_4 C43_4 1_555 1_555
H89_4 N12_4 1_555 1_555
C45_4 N12_4 1_555 1_555
C46_4 C43_4 1_555 1_555
H90_4 C46_4 1_555 1_555
H91_4 C46_4 1_555 1_555
C48_4 C45_4 1_555 1_555
H96_4 C48_4 1_555 1_555
O14_2 C21_4 1_555 1_555
N6_4 C19_4 1_555 1_555
H41_4 N6_4 1_555 1_555
C21_4 N6_4 1_555 1_555
C22_4 C19_4 1_555 1_555
H42_4 C22_4 1_555 1_555
H43_4 C22_4 1_555 1_555
C24_4 C21_4 1_555 1_555
H48_4 C24_4 1_555 1_555
O7_4 Fe1_12 1_555 1_555
N7_4 H49_4 1_555 1_555
C25_4 O7_4 1_555 1_555
C26_4 C25_4 1_555 1_555
H50_4 C26_4 1_555 1_555
H51_4 C26_4 1_555 1_555
H52_4 C26_4 1_555 1_555
C28_4 N7_4 1_555 1_555
H55_4 C28_4 1_555 1_555
H56_4 C28_4 1_555 1_555
C31_4 C28_4 1_555 1_555
H60_4 C31_4 1_555 1_555
H61_4 C31_4 1_555 1_555
N7_4 C25_4 1_555 1_555
Fe6_2 O2_4 1_555 1_555
O2_4 C5_4 1_555 1_555
N2_4 C3_4 1_555 1_555
H9_4 N2_4 1_555 1_555
C5_4 N2_4 1_555 1_555
C6_4 C3_4 1_555 1_555
H10_4 C6_4 1_555 1_555
H11_4 C6_4 1_555 1_555
C8_4 C5_4 1_555 1_555
H14_4 C8_4 1_555 1_555
H15_4 C8_4 1_555 1_555
H16_4 C8_4 1_555 1_555
O5_4 Fe1_13 1_555 1_555
N5_4 H33_4 1_555 1_555
C17_4 O5_4 1_555 1_555
C18_4 C17_4 1_555 1_555
H35_4 C18_4 1_555 1_555
H36_4 C18_4 1_555 1_555
C20_4 N5_4 1_555 1_555
H39_4 C20_4 1_555 1_555
H40_4 C20_4 1_555 1_555
C23_4 C20_4 1_555 1_555
H44_4 C23_4 1_555 1_555
H45_4 C23_4 1_555 1_555
O9_4 Fe1_13 1_555 1_555
N9_4 H65_4 1_555 1_555
C33_4 O9_4 1_555 1_555
C34_4 C33_4 1_555 1_555
H67_4 C34_4 1_555 1_555
H68_4 C34_4 1_555 1_555
O16_2 C37_4 1_555 1_555
C35_4 H69_4 1_555 1_555
H70_4 C35_4 1_555 1_555
C36_4 N9_4 1_555 1_555
H71_4 C36_4 1_555 1_555
H72_4 C36_4 1_555 1_555
N10_4 C35_4 1_555 1_555
H73_4 N10_4 1_555 1_555
C37_4 N10_4 1_555 1_555
C38_4 C35_4 1_555 1_555
H74_4 C38_4 1_555 1_555
H75_4 C38_4 1_555 1_555
C39_4 C36_4 1_555 1_555
H76_4 C39_4 1_555 1_555
H77_4 C39_4 1_555 1_555
C40_4 C37_4 1_555 1_555
H78_4 C40_4 1_555 1_555
H79_4 C40_4 1_555 1_555
H80_4 C40_4 1_555 1_555
N5_4 C17_4 1_555 1_555
N9_4 C33_4 1_555 1_555
C38_4 C39_4 1_555 1_555

#END
