
###############################################################################
#
# This file contains modified crystal structure data generated from the
# MOF subset of the Cambridge Structural Database (CSD) v543 
# hosted by the Cambridge Crystallographic Data Centre (CCDC).
#
# This work is licensed under the Creative Commons
# Attribution-NonCommercial-ShareAlike 4.0 International License.
# To view a copy of this license, visit
# http://creativecommons.org/licenses/by-nc-sa/4.0/
# or send a letter to
# Creative Commons, PO Box 1866, Mountain View, CA 94042, USA.
#
# CIF created using the CSD Python API on 29 September 2022
# The structure has been converted into the P1 space group
# The structure has a 3D framework
# The original CSD entry OMAQOL is in the cubic crystal system
# The framework has been calculated to contain at least 10.0% void space
# The void calculation uses a probe of radius 1.32A, grid spacing 0.4
# The framework is charged, counterions have been retained in the structure
#
###############################################################################

data_OMAQOL
_chemical_formula_moiety         '(C192 H384 Mn20 N48 O48 40+)n'
_symmetry_cell_setting           triclinic
_symmetry_space_group_name_H-M   'P 1'
_symmetry_Int_Tables_number      1
_space_group_name_Hall           'P 1'
loop_
_symmetry_equiv_pos_site_id
_symmetry_equiv_pos_as_xyz
1 x,y,z
_cell_length_a                   19.2293(5)
_cell_length_b                   19.2293(5)
_cell_length_c                   19.2293(5)
_cell_angle_alpha                90
_cell_angle_beta                 90
_cell_angle_gamma                90
_cell_volume                     7110.34
loop_
_atom_site_label
_atom_site_type_symbol
_atom_site_fract_x
_atom_site_fract_y
_atom_site_fract_z
Mn7 Mn 0.5000 -0.0000 0.0000
Mn7_2 Mn 0.5000 -0.0000 1.0000
Mn1 Mn 0.5000 0.5000 0.0000
Mn2 Mn 0.0000 0.5000 0.0000
H25 H 0.6593 0.8611 0.0343
H26 H 0.7081 0.8027 0.0009
H29 H 0.6665 0.6528 0.0013
C16 C 0.6065(4) 0.7744(5) 0.0054(6)
H31 H 0.6134 0.7516 0.0511
H32 H 0.5617 0.7997 0.0078
O5 O 0.52929(18) 0.40368(17) 0.45156(18)
O6 O 0.5326(2) 0.4010(3) 0.0405(3)
N5 N 0.5985(2) 0.3436(2) 0.1144(2)
H33 H 0.6400 0.3265 0.1231
C17 C 0.5775(3) 0.3713(3) 0.4249(3)
N6 N 0.5702(5) 0.3386(6) 0.3634(4)
H34 H 0.6064 0.3175 0.3450
C18 C 0.5895(3) 0.3704(3) 0.0534(3)
C19 C 0.6471(5) 0.3758(5) 0.4566(5)
H35 H 0.6560 0.4238 0.4712
H36 H 0.6822 0.3615 0.4225
H37 H 0.6493 0.3450 0.4972
C20 C 0.6498(4) 0.3716(4) 0.0070(3)
H39 H 0.6851 0.3391 0.0242
H40 H 0.6693 0.4186 0.0056
C21 C 0.5037(5) 0.3373(5) 0.3266(5)
H41 H 0.4657 0.3407 0.3611
H42 H 0.4991 0.2919 0.3027
C22 C 0.5475(3) 0.4007(3) 0.2191(3)
H43 H 0.5941 0.4054 0.2403
H44 H 0.5380 0.4431 0.1915
C23 C 0.5459(4) 0.3385(4) 0.1729(4)
H45 H 0.4987 0.3335 0.1528
H46 H 0.5557 0.2964 0.2008
C24 C 0.4946(6) 0.3935(4) 0.2744(5)
H47 H 0.4489 0.3866 0.2516
H48 H 0.4922 0.4383 0.2997
O9 O 0.40368(17) 0.04844(18) 0.02929(18)
O10 O 0.4010(3) 0.4595(3) 0.0326(2)
N9 N 0.3436(2) 0.3856(2) 0.0985(2)
H65 H 0.3265 0.3769 0.1400
C33 C 0.3713(3) 0.0751(3) 0.0775(3)
N10 N 0.3386(6) 0.1366(4) 0.0702(5)
H66 H 0.3175 0.1550 0.1064
C34 C 0.3704(3) 0.4466(3) 0.0895(3)
C35 C 0.3758(5) 0.0434(5) 0.1471(5)
H67 H 0.4238 0.0288 0.1560
H68 H 0.3615 0.0775 0.1822
H69 H 0.3450 0.0028 0.1493
C36 C 0.3716(4) 0.4930(3) 0.1498(4)
H70 H 0.3578 0.5399 0.1354
H71 H 0.3391 0.4758 0.1851
H72 H 0.4186 0.4944 0.1693
C37 C 0.3373(5) 0.1734(5) 0.0037(5)
C38 C 0.4007(3) 0.2809(3) 0.0475(3)
H75 H 0.4054 0.2597 0.0941
H76 H 0.4431 0.3085 0.0380
C39 C 0.3385(4) 0.3271(4) 0.0459(4)
H78 H 0.2964 0.2992 0.0557
H86 H 0.3646 0.6422 0.0399
Mn5 Mn 0.5000 0.5000 0.5000
Mn7_3 Mn 0.5000 1.0000 0.0000
O13 O 0.09632(17) 0.54844(18) 0.02929(18)
O16 O 0.02929(18) 0.40368(17) 0.04844(18)
O17 O 0.5405(3) 0.5326(2) 0.0990(3)
Mn1_2 Mn 0.5000 0.5000 1.0000
Mn2_2 Mn 0.0000 0.5000 1.0000
O1 O 0.04844(18) 0.47071(18) 0.90368(17)
O2 O 0.4595(3) 0.4674(2) 0.9010(3)
N1 N 0.3856(2) 0.4015(2) 0.8436(2)
H1 H 0.3769 0.3600 0.8265
C1 C 0.0751(3) 0.4225(3) 0.8713(3)
N2 N 0.1366(4) 0.4298(5) 0.8386(6)
H2 H 0.1550 0.3936 0.8175
C2 C 0.4466(3) 0.4105(3) 0.8704(3)
C3 C 0.0434(5) 0.3529(5) 0.8758(5)
H3 H 0.0288 0.3440 0.9238
H4 H 0.0775 0.3178 0.8615
H5 H 0.0028 0.3507 0.8450
C4 C 0.4930(3) 0.3502(4) 0.8716(4)
H6 H 0.5399 0.3646 0.8578
H7 H 0.4758 0.3149 0.8391
H8 H 0.4944 0.3307 0.9186
C5 C 0.1734(5) 0.4963(5) 0.8373(5)
H9 H 0.1389 0.5343 0.8407
H10 H 0.1973 0.5009 0.7919
C6 C 0.2809(3) 0.4525(3) 0.9007(3)
H11 H 0.2597 0.4059 0.9054
H12 H 0.3085 0.4620 0.9431
C7 C 0.3271(4) 0.4541(4) 0.8385(4)
H13 H 0.3472 0.5013 0.8335
H14 H 0.2992 0.4443 0.7964
C8 C 0.2256(5) 0.5054(6) 0.8935(4)
H15 H 0.2484 0.5511 0.8866
H16 H 0.2003 0.5078 0.9383
O3 O 0.59632(17) 0.95156(18) 0.97071(18)
O4 O 0.5990(3) 0.5405(3) 0.9674(2)
N3 N 0.6564(2) 0.6144(2) 0.9015(2)
H17 H 0.6735 0.6231 0.8600
C9 C 0.6287(3) 0.9249(3) 0.9225(3)
N4 N 0.6614(6) 0.8634(4) 0.9298(5)
H18 H 0.6825 0.8450 0.8936
C10 C 0.6296(3) 0.5534(3) 0.9105(3)
C11 C 0.6242(5) 0.9566(5) 0.8529(5)
H19 H 0.5762 0.9712 0.8440
H20 H 0.6385 0.9225 0.8178
H21 H 0.6550 0.9972 0.8507
C12 C 0.6284(4) 0.5070(3) 0.8502(4)
H22 H 0.6422 0.4601 0.8646
H23 H 0.6609 0.5242 0.8149
H24 H 0.5814 0.5056 0.8307
C13 C 0.6627(5) 0.8266(5) 0.9963(5)
C14 C 0.5993(3) 0.7191(3) 0.9525(3)
H27 H 0.5946 0.7403 0.9059
H28 H 0.5569 0.6915 0.9620
C15 C 0.6615(4) 0.6729(4) 0.9541(4)
H30 H 0.7036 0.7008 0.9443
H38 H 0.6354 0.3578 0.9601
H73 H 0.3407 0.1389 0.9657
H74 H 0.2919 0.1973 0.9991
H77 H 0.3335 0.3472 0.9987
C40 C 0.3935(4) 0.2256(5) 0.9946(6)
H79 H 0.3866 0.2484 0.9489
H80 H 0.4383 0.2003 0.9922
O11 O 0.47071(18) 0.59632(17) 0.54844(18)
O12 O 0.4674(2) 0.5990(3) 0.9595(3)
N11 N 0.4015(2) 0.6564(2) 0.8856(2)
H81 H 0.3600 0.6735 0.8769
C41 C 0.4225(3) 0.6287(3) 0.5751(3)
N12 N 0.4298(5) 0.6614(6) 0.6366(4)
H82 H 0.3936 0.6825 0.6550
C42 C 0.4105(3) 0.6296(3) 0.9466(3)
C43 C 0.3529(5) 0.6242(5) 0.5434(5)
H83 H 0.3440 0.5762 0.5288
H84 H 0.3178 0.6385 0.5775
H85 H 0.3507 0.6550 0.5028
C44 C 0.3502(4) 0.6284(4) 0.9930(3)
H87 H 0.3149 0.6609 0.9758
H88 H 0.3307 0.5814 0.9944
C45 C 0.4963(5) 0.6627(5) 0.6734(5)
H89 H 0.5343 0.6593 0.6389
H90 H 0.5009 0.7081 0.6973
C46 C 0.4525(3) 0.5993(3) 0.7809(3)
H91 H 0.4059 0.5946 0.7597
H92 H 0.4620 0.5569 0.8085
C47 C 0.4541(4) 0.6615(4) 0.8271(4)
H93 H 0.5013 0.6665 0.8472
H94 H 0.4443 0.7036 0.7992
C48 C 0.5054(6) 0.6065(4) 0.7256(5)
H95 H 0.5511 0.6134 0.7484
H96 H 0.5078 0.5617 0.7003
Mn7_4 Mn 0.5000 1.0000 1.0000
Mn2_3 Mn 1.0000 0.5000 0.0000
O7 O 0.95156(18) 0.52929(18) 0.09632(17)
N7 N 0.6144(2) 0.5985(2) 0.1564(2)
H49 H 0.6231 0.6400 0.1735
C25 C 0.9249(3) 0.5775(3) 0.1287(3)
N8 N 0.8634(4) 0.5702(5) 0.1614(6)
H50 H 0.8450 0.6064 0.1825
C26 C 0.5534(3) 0.5895(3) 0.1296(3)
C27 C 0.9566(5) 0.6471(5) 0.1242(5)
H51 H 0.9712 0.6560 0.0762
H52 H 0.9225 0.6822 0.1385
H53 H 0.9972 0.6493 0.1550
C28 C 0.5070(3) 0.6498(4) 0.1284(4)
H54 H 0.4601 0.6354 0.1422
H55 H 0.5242 0.6851 0.1609
H56 H 0.5056 0.6693 0.0814
C29 C 0.8266(5) 0.5037(5) 0.1627(5)
H57 H 0.8611 0.4657 0.1593
H58 H 0.8027 0.4991 0.2081
C30 C 0.7191(3) 0.5475(3) 0.0993(3)
H59 H 0.7403 0.5941 0.0946
H60 H 0.6915 0.5380 0.0569
C31 C 0.6729(4) 0.5459(4) 0.1615(4)
H61 H 0.6528 0.4987 0.1665
H62 H 0.7008 0.5557 0.2036
C32 C 0.7744(5) 0.4946(6) 0.1065(4)
H63 H 0.7516 0.4489 0.1134
H64 H 0.7997 0.4922 0.0617
Mn2_4 Mn 1.0000 0.5000 1.0000
O14 O 0.97071(18) 0.59632(17) 0.95156(18)
O15 O 0.90368(17) 0.45156(18) 0.97071(18)
H54_2 H 0.0399 0.3646 0.6422
Mn3 Mn 0.0000 0.5000 0.5000
Mn6 Mn 0.0000 -0.0000 0.5000
O1_2 O 0.45156(18) 0.52929(18) 0.40368(17)
O2_2 O 0.0405(3) 0.5326(2) 0.4010(3)
N1_2 N 0.1144(2) 0.5985(2) 0.3436(2)
H1_2 H 0.1231 0.6400 0.3265
C1_2 C 0.4249(3) 0.5775(3) 0.3713(3)
N2_2 N 0.3634(4) 0.5702(5) 0.3386(6)
H2_2 H 0.3450 0.6064 0.3175
C2_2 C 0.0534(3) 0.5895(3) 0.3704(3)
C3_2 C 0.4566(5) 0.6471(5) 0.3758(5)
H3_2 H 0.4712 0.6560 0.4238
H4_2 H 0.4225 0.6822 0.3615
H5_2 H 0.4972 0.6493 0.3450
C4_2 C 0.0070(3) 0.6498(4) 0.3716(4)
H7_2 H 0.0242 0.6851 0.3391
H8_2 H 0.0056 0.6693 0.4186
C5_2 C 0.3266(5) 0.5037(5) 0.3373(5)
H9_2 H 0.3611 0.4657 0.3407
H10_2 H 0.3027 0.4991 0.2919
C6_2 C 0.2191(3) 0.5475(3) 0.4007(3)
H11_2 H 0.2403 0.5941 0.4054
H12_2 H 0.1915 0.5380 0.4431
C7_2 C 0.1729(4) 0.5459(4) 0.3385(4)
H13_2 H 0.1528 0.4987 0.3335
H14_2 H 0.2008 0.5557 0.2964
C8_2 C 0.2744(5) 0.4946(6) 0.3935(4)
H15_2 H 0.2516 0.4489 0.3866
H16_2 H 0.2997 0.4922 0.4383
H41_2 H 0.0343 0.6593 0.8611
H42_2 H 0.0009 0.7081 0.8027
H45_2 H 0.0013 0.6665 0.6528
C24_2 C 0.0054(6) 0.6065(4) 0.7744(5)
H47_2 H 0.0511 0.6134 0.7516
H48_2 H 0.0078 0.5617 0.7997
O7_2 O 0.54844(18) 0.47071(18) 0.59632(17)
O8 O 0.9595(3) 0.4674(2) 0.5990(3)
N7_2 N 0.8856(2) 0.4015(2) 0.6564(2)
H49_2 H 0.8769 0.3600 0.6735
C25_2 C 0.5751(3) 0.4225(3) 0.6287(3)
N8_2 N 0.6366(4) 0.4298(5) 0.6614(6)
H50_2 H 0.6550 0.3936 0.6825
C26_2 C 0.9466(3) 0.4105(3) 0.6296(3)
C27_2 C 0.5434(5) 0.3529(5) 0.6242(5)
H51_2 H 0.5288 0.3440 0.5762
H52_2 H 0.5775 0.3178 0.6385
H53_2 H 0.5028 0.3507 0.6550
C28_2 C 0.9930(3) 0.3502(4) 0.6284(4)
H55_2 H 0.9758 0.3149 0.6609
H56_2 H 0.9944 0.3307 0.5814
C29_2 C 0.6734(5) 0.4963(5) 0.6627(5)
H57_2 H 0.6389 0.5343 0.6593
H58_2 H 0.6973 0.5009 0.7081
C30_2 C 0.7809(3) 0.4525(3) 0.5993(3)
H59_2 H 0.7597 0.4059 0.5946
H60_2 H 0.8085 0.4620 0.5569
C31_2 C 0.8271(4) 0.4541(4) 0.6615(4)
H61_2 H 0.8472 0.5013 0.6665
H62_2 H 0.7992 0.4443 0.7036
C32_2 C 0.7256(5) 0.5054(6) 0.6065(4)
H63_2 H 0.7484 0.5511 0.6134
H64_2 H 0.7003 0.5078 0.5617
O9_2 O 0.09632(17) 0.95156(18) 0.52929(18)
O10_2 O 0.0990(3) 0.5405(3) 0.5326(2)
N9_2 N 0.1564(2) 0.6144(2) 0.5985(2)
H65_2 H 0.1735 0.6231 0.6400
C33_2 C 0.1287(3) 0.9249(3) 0.5775(3)
N10_2 N 0.1614(6) 0.8634(4) 0.5702(5)
H66_2 H 0.1825 0.8450 0.6064
C34_2 C 0.1296(3) 0.5534(3) 0.5895(3)
C35_2 C 0.1242(5) 0.9566(5) 0.6471(5)
H67_2 H 0.0762 0.9712 0.6560
H68_2 H 0.1385 0.9225 0.6822
H69_2 H 0.1550 0.9972 0.6493
C36_2 C 0.1284(4) 0.5070(3) 0.6498(4)
H70_2 H 0.1422 0.4601 0.6354
H71_2 H 0.1609 0.5242 0.6851
H72_2 H 0.0814 0.5056 0.6693
C37_2 C 0.1627(5) 0.8266(5) 0.5037(5)
H73_2 H 0.1593 0.8611 0.4657
H74_2 H 0.2081 0.8027 0.4991
C38_2 C 0.0993(3) 0.7191(3) 0.5475(3)
H75_2 H 0.0946 0.7403 0.5941
H76_2 H 0.0569 0.6915 0.5380
C39_2 C 0.1615(4) 0.6729(4) 0.5459(4)
H77_2 H 0.1665 0.6528 0.4987
H78_2 H 0.2036 0.7008 0.5557
C40_2 C 0.1065(4) 0.7744(5) 0.4946(6)
H79_2 H 0.1134 0.7516 0.4489
H80_2 H 0.0617 0.7997 0.4922
O12_2 O 0.0326(2) 0.4010(3) 0.4595(3)
N11_2 N 0.0985(2) 0.3436(2) 0.3856(2)
H81_2 H 0.1400 0.3265 0.3769
C41_2 C 0.0775(3) 0.3713(3) 0.0751(3)
N12_2 N 0.0702(5) 0.3386(6) 0.1366(4)
H82_2 H 0.1064 0.3175 0.1550
C42_2 C 0.0895(3) 0.3704(3) 0.4466(3)
C43_2 C 0.1471(5) 0.3758(5) 0.0434(5)
H83_2 H 0.1560 0.4238 0.0288
H84_2 H 0.1822 0.3615 0.0775
H85_2 H 0.1493 0.3450 0.0028
C44_2 C 0.1498(4) 0.3716(4) 0.4930(3)
H86_2 H 0.1354 0.3578 0.5399
H87_2 H 0.1851 0.3391 0.4758
H88_2 H 0.1693 0.4186 0.4944
C45_2 C 0.0037(5) 0.3373(5) 0.1734(5)
C46_2 C 0.0475(3) 0.4007(3) 0.2809(3)
H91_2 H 0.0941 0.4054 0.2597
H92_2 H 0.0380 0.4431 0.3085
C47_2 C 0.0459(4) 0.3385(4) 0.3271(4)
H94_2 H 0.0557 0.2964 0.2992
Mn3_2 Mn 1.0000 0.5000 0.5000
Mn6_2 Mn 0.0000 1.0000 0.5000
O13_2 O 0.40368(17) 0.45156(18) 0.52929(18)
O15_2 O 0.59632(17) 0.54844(18) 0.47071(18)
Mn6_3 Mn 1.0000 -0.0000 0.5000
H6_2 H 0.9601 0.6354 0.3578
O3_2 O 0.90368(17) 0.04844(18) 0.47071(18)
O4_2 O 0.9010(3) 0.4595(3) 0.4674(2)
N3_2 N 0.8436(2) 0.3856(2) 0.4015(2)
H17_2 H 0.8265 0.3769 0.3600
C9_2 C 0.8713(3) 0.0751(3) 0.4225(3)
N4_2 N 0.8386(6) 0.1366(4) 0.4298(5)
H18_2 H 0.8175 0.1550 0.3936
C10_2 C 0.8704(3) 0.4466(3) 0.4105(3)
C11_2 C 0.8758(5) 0.0434(5) 0.3529(5)
H19_2 H 0.9238 0.0288 0.3440
H20_2 H 0.8615 0.0775 0.3178
H21_2 H 0.8450 0.0028 0.3507
C12_2 C 0.8716(4) 0.4930(3) 0.3502(4)
H22_2 H 0.8578 0.5399 0.3646
H23_2 H 0.8391 0.4758 0.3149
H24_2 H 0.9186 0.4944 0.3307
C13_2 C 0.8373(5) 0.1734(5) 0.4963(5)
H25_2 H 0.8407 0.1389 0.5343
H26_2 H 0.7919 0.1973 0.5009
C14_2 C 0.9007(3) 0.2809(3) 0.4525(3)
H27_2 H 0.9054 0.2597 0.4059
H28_2 H 0.9431 0.3085 0.4620
C15_2 C 0.8385(4) 0.3271(4) 0.4541(4)
H29_2 H 0.8335 0.3472 0.5013
H30_2 H 0.7964 0.2992 0.4443
C16_2 C 0.8935(4) 0.2256(5) 0.5054(6)
H31_2 H 0.8866 0.2484 0.5511
H32_2 H 0.9383 0.2003 0.5078
O6_2 O 0.9674(2) 0.5990(3) 0.5405(3)
N5_2 N 0.9015(2) 0.6564(2) 0.6144(2)
H33_2 H 0.8600 0.6735 0.6231
C17_2 C 0.9225(3) 0.6287(3) 0.9249(3)
N6_2 N 0.9298(5) 0.6614(6) 0.8634(4)
H34_2 H 0.8936 0.6825 0.8450
C18_2 C 0.9105(3) 0.6296(3) 0.5534(3)
C19_2 C 0.8529(5) 0.6242(5) 0.9566(5)
H35_2 H 0.8440 0.5762 0.9712
H36_2 H 0.8178 0.6385 0.9225
H37_2 H 0.8507 0.6550 0.9972
C20_2 C 0.8502(4) 0.6284(4) 0.5070(3)
H38_2 H 0.8646 0.6422 0.4601
H39_2 H 0.8149 0.6609 0.5242
H40_2 H 0.8307 0.5814 0.5056
C21_2 C 0.9963(5) 0.6627(5) 0.8266(5)
C22_2 C 0.9525(3) 0.5993(3) 0.7191(3)
H43_2 H 0.9059 0.5946 0.7403
H44_2 H 0.9620 0.5569 0.6915
C23_2 C 0.9541(4) 0.6615(4) 0.6729(4)
H46_2 H 0.9443 0.7036 0.7008
H89_2 H 0.9657 0.3407 0.1389
H90_2 H 0.9991 0.2919 0.1973
H93_2 H 0.9987 0.3335 0.3472
C48_2 C 0.9946(6) 0.3935(4) 0.2256(5)
H95_2 H 0.9489 0.3866 0.2484
H96_2 H 0.9922 0.4383 0.2003
Mn6_4 Mn 1.0000 1.0000 0.5000
O7_3 O 0.04844(18) 0.02929(18) 0.40368(17)
O8_2 O 0.4595(3) 0.0326(2) 0.4010(3)
N7_3 N 0.3856(2) 0.0985(2) 0.3436(2)
H49_3 H 0.3769 0.1400 0.3265
C25_3 C 0.0751(3) 0.0775(3) 0.3713(3)
N8_3 N 0.1366(4) 0.0702(5) 0.3386(6)
H50_3 H 0.1550 0.1064 0.3175
C26_3 C 0.4466(3) 0.0895(3) 0.3704(3)
C27_3 C 0.0434(5) 0.1471(5) 0.3758(5)
H51_3 H 0.0288 0.1560 0.4238
H52_3 H 0.0775 0.1822 0.3615
H53_3 H 0.0028 0.1493 0.3450
C28_3 C 0.4930(3) 0.1498(4) 0.3716(4)
H54_3 H 0.5399 0.1354 0.3578
H55_3 H 0.4758 0.1851 0.3391
H56_3 H 0.4944 0.1693 0.4186
C29_3 C 0.1734(5) 0.0037(5) 0.3373(5)
C30_3 C 0.2809(3) 0.0475(3) 0.4007(3)
H59_3 H 0.2597 0.0941 0.4054
H60_3 H 0.3085 0.0380 0.4431
C31_3 C 0.3271(4) 0.0459(4) 0.3385(4)
H62_3 H 0.2992 0.0557 0.2964
Mn3_3 Mn 0.5000 0.0000 0.5000
O14_2 O 0.02929(18) 0.09632(17) 0.54844(18)
H57_3 H 0.1389 0.9657 0.3407
H58_3 H 0.1973 0.9991 0.2919
H61_3 H 0.3472 0.9987 0.3335
C32_3 C 0.2256(5) 0.9946(6) 0.3935(4)
H63_3 H 0.2484 0.9489 0.3866
H64_3 H 0.2003 0.9922 0.4383
Mn3_4 Mn 0.5000 1.0000 0.5000
H9_3 H 0.8611 0.0343 0.6593
H10_3 H 0.8027 0.0009 0.7081
H13_3 H 0.6528 0.0013 0.6665
C8_3 C 0.7744(5) 0.0054(6) 0.6065(4)
H15_3 H 0.7516 0.0511 0.6134
H16_3 H 0.7997 0.0078 0.5617
O4_3 O 0.4010(3) 0.0405(3) 0.5326(2)
N3_3 N 0.3436(2) 0.1144(2) 0.5985(2)
H17_3 H 0.3265 0.1231 0.6400
C9_3 C 0.3713(3) 0.4249(3) 0.5775(3)
N4_3 N 0.3386(6) 0.3634(4) 0.5702(5)
H18_3 H 0.3175 0.3450 0.6064
C10_3 C 0.3704(3) 0.0534(3) 0.5895(3)
C11_3 C 0.3758(5) 0.4566(5) 0.6471(5)
H19_3 H 0.4238 0.4712 0.6560
H20_3 H 0.3615 0.4225 0.6822
H21_3 H 0.3450 0.4972 0.6493
C12_3 C 0.3716(4) 0.0070(3) 0.6498(4)
H23_3 H 0.3391 0.0242 0.6851
H24_3 H 0.4186 0.0056 0.6693
C13_3 C 0.3373(5) 0.3266(5) 0.5037(5)
H25_3 H 0.3407 0.3611 0.4657
H26_3 H 0.2919 0.3027 0.4991
C14_3 C 0.4007(3) 0.2191(3) 0.5475(3)
H27_3 H 0.4054 0.2403 0.5941
H28_3 H 0.4431 0.1915 0.5380
C15_3 C 0.3385(4) 0.1729(4) 0.5459(4)
H29_3 H 0.3335 0.1528 0.4987
H30_3 H 0.2964 0.2008 0.5557
C16_3 C 0.3935(4) 0.2744(5) 0.4946(6)
H31_3 H 0.3866 0.2516 0.4489
H32_3 H 0.4383 0.2997 0.4922
H70_3 H 0.6422 0.0399 0.3646
O11_2 O 0.52929(18) 0.09632(17) 0.95156(18)
O12_3 O 0.5326(2) 0.0990(3) 0.5405(3)
N11_3 N 0.5985(2) 0.1564(2) 0.6144(2)
H81_3 H 0.6400 0.1735 0.6231
C41_3 C 0.5775(3) 0.1287(3) 0.9249(3)
N12_3 N 0.5702(5) 0.1614(6) 0.8634(4)
H82_3 H 0.6064 0.1825 0.8450
C42_3 C 0.5895(3) 0.1296(3) 0.5534(3)
C43_3 C 0.6471(5) 0.1242(5) 0.9566(5)
H83_3 H 0.6560 0.0762 0.9712
H84_3 H 0.6822 0.1385 0.9225
H85_3 H 0.6493 0.1550 0.9972
C44_3 C 0.6498(4) 0.1284(4) 0.5070(3)
H86_3 H 0.6354 0.1422 0.4601
H87_3 H 0.6851 0.1609 0.5242
H88_3 H 0.6693 0.0814 0.5056
C45_3 C 0.5037(5) 0.1627(5) 0.8266(5)
H89_3 H 0.4657 0.1593 0.8611
H90_3 H 0.4991 0.2081 0.8027
C46_3 C 0.5475(3) 0.0993(3) 0.7191(3)
H91_3 H 0.5941 0.0946 0.7403
H92_3 H 0.5380 0.0569 0.6915
C47_3 C 0.5459(4) 0.1615(4) 0.6729(4)
H93_3 H 0.4987 0.1665 0.6528
H94_3 H 0.5557 0.2036 0.7008
C48_3 C 0.4946(6) 0.1065(4) 0.7744(5)
H95_3 H 0.4489 0.1134 0.7516
H96_3 H 0.4922 0.0617 0.7997
O1_3 O 0.95156(18) 0.97071(18) 0.59632(17)
O2_3 O 0.5405(3) 0.9674(2) 0.5990(3)
N1_3 N 0.6144(2) 0.9015(2) 0.6564(2)
H1_3 H 0.6231 0.8600 0.6735
C1_3 C 0.9249(3) 0.9225(3) 0.6287(3)
N2_3 N 0.8634(4) 0.9298(5) 0.6614(6)
H2_3 H 0.8450 0.8936 0.6825
C2_3 C 0.5534(3) 0.9105(3) 0.6296(3)
C3_3 C 0.9566(5) 0.8529(5) 0.6242(5)
H3_3 H 0.9712 0.8440 0.5762
H4_3 H 0.9225 0.8178 0.6385
H5_3 H 0.9972 0.8507 0.6550
C4_3 C 0.5070(3) 0.8502(4) 0.6284(4)
H6_3 H 0.4601 0.8646 0.6422
H7_3 H 0.5242 0.8149 0.6609
H8_3 H 0.5056 0.8307 0.5814
C5_3 C 0.8266(5) 0.9963(5) 0.6627(5)
C6_3 C 0.7191(3) 0.9525(3) 0.5993(3)
H11_3 H 0.7403 0.9059 0.5946
H12_3 H 0.6915 0.9620 0.5569
C7_3 C 0.6729(4) 0.9541(4) 0.6615(4)
H14_3 H 0.7008 0.9443 0.7036
H22_3 H 0.3578 0.9601 0.6354
O5_2 O 0.47071(18) 0.90368(17) 0.04844(18)
O6_3 O 0.4674(2) 0.9010(3) 0.4595(3)
N5_3 N 0.4015(2) 0.8436(2) 0.3856(2)
H33_3 H 0.3600 0.8265 0.3769
C17_3 C 0.4225(3) 0.8713(3) 0.0751(3)
N6_3 N 0.4298(5) 0.8386(6) 0.1366(4)
H34_3 H 0.3936 0.8175 0.1550
C18_3 C 0.4105(3) 0.8704(3) 0.4466(3)
C19_3 C 0.3529(5) 0.8758(5) 0.0434(5)
H35_3 H 0.3440 0.9238 0.0288
H36_3 H 0.3178 0.8615 0.0775
H37_3 H 0.3507 0.8450 0.0028
C20_3 C 0.3502(4) 0.8716(4) 0.4930(3)
H38_3 H 0.3646 0.8578 0.5399
H39_3 H 0.3149 0.8391 0.4758
H40_3 H 0.3307 0.9186 0.4944
C21_3 C 0.4963(5) 0.8373(5) 0.1734(5)
H41_3 H 0.5343 0.8407 0.1389
H42_3 H 0.5009 0.7919 0.1973
C22_3 C 0.4525(3) 0.9007(3) 0.2809(3)
H43_3 H 0.4059 0.9054 0.2597
H44_3 H 0.4620 0.9431 0.3085
C23_3 C 0.4541(4) 0.8385(4) 0.3271(4)
H45_3 H 0.5013 0.8335 0.3472
H46_3 H 0.4443 0.7964 0.2992
C24_3 C 0.5054(6) 0.8935(4) 0.2256(5)
H47_3 H 0.5511 0.8866 0.2484
H48_3 H 0.5078 0.9383 0.2003
O10_3 O 0.5990(3) 0.9595(3) 0.4674(2)
N9_3 N 0.6564(2) 0.8856(2) 0.4015(2)
H65_3 H 0.6735 0.8769 0.3600
C33_3 C 0.6287(3) 0.5751(3) 0.4225(3)
N10_3 N 0.6614(6) 0.6366(4) 0.4298(5)
H66_3 H 0.6825 0.6550 0.3936
C34_3 C 0.6296(3) 0.9466(3) 0.4105(3)
C35_3 C 0.6242(5) 0.5434(5) 0.3529(5)
H67_3 H 0.5762 0.5288 0.3440
H68_3 H 0.6385 0.5775 0.3178
H69_3 H 0.6550 0.5028 0.3507
C36_3 C 0.6284(4) 0.9930(3) 0.3502(4)
H71_3 H 0.6609 0.9758 0.3149
H72_3 H 0.5814 0.9944 0.3307
C37_3 C 0.6627(5) 0.6734(5) 0.4963(5)
H73_3 H 0.6593 0.6389 0.5343
H74_3 H 0.7081 0.6973 0.5009
C38_3 C 0.5993(3) 0.7809(3) 0.4525(3)
H75_3 H 0.5946 0.7597 0.4059
H76_3 H 0.5569 0.8085 0.4620
C39_3 C 0.6615(4) 0.8271(4) 0.4541(4)
H77_3 H 0.6665 0.8472 0.5013
H78_3 H 0.7036 0.7992 0.4443
C40_3 C 0.6065(4) 0.7256(5) 0.5054(6)
H79_3 H 0.6134 0.7484 0.5511
H80_3 H 0.5617 0.7003 0.5078
O16_2 O 0.97071(18) 0.90368(17) 0.45156(18)
Mn1_3 Mn 0.0000 0.0000 0.0000
H6_4 H 0.0399 0.1354 0.1422
H22_4 H 0.1422 0.0399 0.1354
H38_4 H 0.1354 0.1422 0.0399
Mn1_4 Mn 0.0000 0.0000 1.0000
O6_4 O 0.0326(2) 0.0990(3) 0.9595(3)
N5_4 N 0.0985(2) 0.1564(2) 0.8856(2)
H33_4 H 0.1400 0.1735 0.8769
C17_4 C 0.0775(3) 0.1287(3) 0.5751(3)
N6_4 N 0.0702(5) 0.1614(6) 0.6366(4)
H34_4 H 0.1064 0.1825 0.6550
C18_4 C 0.0895(3) 0.1296(3) 0.9466(3)
C19_4 C 0.1471(5) 0.1242(5) 0.5434(5)
H35_4 H 0.1560 0.0762 0.5288
H36_4 H 0.1822 0.1385 0.5775
H37_4 H 0.1493 0.1550 0.5028
C20_4 C 0.1498(4) 0.1284(4) 0.9930(3)
H39_4 H 0.1851 0.1609 0.9758
H40_4 H 0.1693 0.0814 0.9944
C21_4 C 0.0037(5) 0.1627(5) 0.6734(5)
C22_4 C 0.0475(3) 0.0993(3) 0.7809(3)
H43_4 H 0.0941 0.0946 0.7597
H44_4 H 0.0380 0.0569 0.8085
C23_4 C 0.0459(4) 0.1615(4) 0.8271(4)
H46_4 H 0.0557 0.2036 0.7992
Mn1_5 Mn 0.0000 1.0000 0.0000
O4_4 O 0.0990(3) 0.9595(3) 0.0326(2)
N3_4 N 0.1564(2) 0.8856(2) 0.0985(2)
H17_4 H 0.1735 0.8769 0.1400
C9_4 C 0.1287(3) 0.5751(3) 0.0775(3)
N4_4 N 0.1614(6) 0.6366(4) 0.0702(5)
H18_4 H 0.1825 0.6550 0.1064
C10_4 C 0.1296(3) 0.9466(3) 0.0895(3)
C11_4 C 0.1242(5) 0.5434(5) 0.1471(5)
H19_4 H 0.0762 0.5288 0.1560
H20_4 H 0.1385 0.5775 0.1822
H21_4 H 0.1550 0.5028 0.1493
C12_4 C 0.1284(4) 0.9930(3) 0.1498(4)
H23_4 H 0.1609 0.9758 0.1851
H24_4 H 0.0814 0.9944 0.1693
C13_4 C 0.1627(5) 0.6734(5) 0.0037(5)
C14_4 C 0.0993(3) 0.7809(3) 0.0475(3)
H27_4 H 0.0946 0.7597 0.0941
H28_4 H 0.0569 0.8085 0.0380
C15_4 C 0.1615(4) 0.8271(4) 0.0459(4)
H30_4 H 0.2036 0.7992 0.0557
H89_4 H 0.0343 0.8407 0.3611
H90_4 H 0.0009 0.7919 0.3027
H93_4 H 0.0013 0.8335 0.1528
C48_4 C 0.0054(6) 0.8935(4) 0.2744(5)
H95_4 H 0.0511 0.8866 0.2516
H96_4 H 0.0078 0.9383 0.2997
Mn1_6 Mn 0.0000 1.0000 1.0000
H25_4 H 0.1593 0.6389 0.9657
H26_4 H 0.2081 0.6973 0.9991
H29_4 H 0.1665 0.8472 0.9987
C16_4 C 0.1065(4) 0.7256(5) 0.9946(6)
H31_4 H 0.1134 0.7484 0.9489
H32_4 H 0.0617 0.7003 0.9922
O17_2 O 0.0405(3) 0.9674(2) 0.9010(3)
Mn1_7 Mn 1.0000 0.0000 0.0000
O1_4 O 0.54844(18) 0.02929(18) 0.09632(17)
O2_4 O 0.9595(3) 0.0326(2) 0.0990(3)
N1_4 N 0.8856(2) 0.0985(2) 0.1564(2)
H1_4 H 0.8769 0.1400 0.1735
C1_4 C 0.5751(3) 0.0775(3) 0.1287(3)
N2_4 N 0.6366(4) 0.0702(5) 0.1614(6)
H2_4 H 0.6550 0.1064 0.1825
C2_4 C 0.9466(3) 0.0895(3) 0.1296(3)
C3_4 C 0.5434(5) 0.1471(5) 0.1242(5)
H3_4 H 0.5288 0.1560 0.0762
H4_4 H 0.5775 0.1822 0.1385
H5_4 H 0.5028 0.1493 0.1550
C4_4 C 0.9930(3) 0.1498(4) 0.1284(4)
H7_4 H 0.9758 0.1851 0.1609
H8_4 H 0.9944 0.1693 0.0814
C5_4 C 0.6734(5) 0.0037(5) 0.1627(5)
C6_4 C 0.7809(3) 0.0475(3) 0.0993(3)
H11_4 H 0.7597 0.0941 0.0946
H12_4 H 0.8085 0.0380 0.0569
C7_4 C 0.8271(4) 0.0459(4) 0.1615(4)
H14_4 H 0.7992 0.0557 0.2036
H73_4 H 0.8407 0.3611 0.0343
H74_4 H 0.7919 0.3027 0.0009
H77_4 H 0.8335 0.1528 0.0013
C40_4 C 0.8935(4) 0.2744(5) 0.0054(6)
H79_4 H 0.8866 0.2516 0.0511
H80_4 H 0.9383 0.2997 0.0078
Mn1_8 Mn 1.0000 0.0000 1.0000
H41_4 H 0.9657 0.1593 0.6389
H42_4 H 0.9991 0.2081 0.6973
H45_4 H 0.9987 0.1665 0.8472
C24_4 C 0.9946(6) 0.1065(4) 0.7256(5)
H47_4 H 0.9489 0.1134 0.7484
H48_4 H 0.9922 0.0617 0.7003
H57_4 H 0.3611 0.0343 0.8407
H58_4 H 0.3027 0.0009 0.7919
H61_4 H 0.1528 0.0013 0.8335
C32_4 C 0.2744(5) 0.0054(6) 0.8935(4)
H63_4 H 0.2516 0.0511 0.8866
H64_4 H 0.2997 0.0078 0.9383
O10_4 O 0.9010(3) 0.0405(3) 0.9674(2)
N9_4 N 0.8436(2) 0.1144(2) 0.9015(2)
H65_4 H 0.8265 0.1231 0.8600
C33_4 C 0.8713(3) 0.4249(3) 0.9225(3)
N10_4 N 0.8386(6) 0.3634(4) 0.9298(5)
H66_4 H 0.8175 0.3450 0.8936
C34_4 C 0.8704(3) 0.0534(3) 0.9105(3)
C35_4 C 0.8758(5) 0.4566(5) 0.8529(5)
H67_4 H 0.9238 0.4712 0.8440
H68_4 H 0.8615 0.4225 0.8178
H69_4 H 0.8450 0.4972 0.8507
C36_4 C 0.8716(4) 0.0070(3) 0.8502(4)
H71_4 H 0.8391 0.0242 0.8149
H72_4 H 0.9186 0.0056 0.8307
C37_4 C 0.8373(5) 0.3266(5) 0.9963(5)
C38_4 C 0.9007(3) 0.2191(3) 0.9525(3)
H75_4 H 0.9054 0.2403 0.9059
H76_4 H 0.9431 0.1915 0.9620
C39_4 C 0.8385(4) 0.1729(4) 0.9541(4)
H78_4 H 0.7964 0.2008 0.9443
Mn1_9 Mn 1.0000 1.0000 0.0000
H9_4 H 0.6389 0.9657 0.1593
H10_4 H 0.6973 0.9991 0.2081
H13_4 H 0.8472 0.9987 0.1665
C8_4 C 0.7256(5) 0.9946(6) 0.1065(4)
H15_4 H 0.7484 0.9489 0.1134
H16_4 H 0.7003 0.9922 0.0617
O12_4 O 0.9674(2) 0.9010(3) 0.0405(3)
N11_4 N 0.9015(2) 0.8436(2) 0.1144(2)
H81_4 H 0.8600 0.8265 0.1231
C41_4 C 0.9225(3) 0.8713(3) 0.4249(3)
N12_4 N 0.9298(5) 0.8386(6) 0.3634(4)
H82_4 H 0.8936 0.8175 0.3450
C42_4 C 0.9105(3) 0.8704(3) 0.0534(3)
C43_4 C 0.8529(5) 0.8758(5) 0.4566(5)
H83_4 H 0.8440 0.9238 0.4712
H84_4 H 0.8178 0.8615 0.4225
H85_4 H 0.8507 0.8450 0.4972
C44_4 C 0.8502(4) 0.8716(4) 0.0070(3)
H87_4 H 0.8149 0.8391 0.0242
H88_4 H 0.8307 0.9186 0.0056
C45_4 C 0.9963(5) 0.8373(5) 0.3266(5)
C46_4 C 0.9525(3) 0.9007(3) 0.2191(3)
H91_4 H 0.9059 0.9054 0.2403
H92_4 H 0.9620 0.9431 0.1915
C47_4 C 0.9541(4) 0.8385(4) 0.1729(4)
H94_4 H 0.9443 0.7964 0.2008
Mn1_10 Mn 1.0000 1.0000 1.0000
O7_4 O 0.45156(18) 0.97071(18) 0.90368(17)
N7_4 N 0.1144(2) 0.9015(2) 0.8436(2)
H49_4 H 0.1231 0.8600 0.8265
C25_4 C 0.4249(3) 0.9225(3) 0.8713(3)
N8_4 N 0.3634(4) 0.9298(5) 0.8386(6)
H50_4 H 0.3450 0.8936 0.8175
C26_4 C 0.0534(3) 0.9105(3) 0.8704(3)
C27_4 C 0.4566(5) 0.8529(5) 0.8758(5)
H51_4 H 0.4712 0.8440 0.9238
H52_4 H 0.4225 0.8178 0.8615
H53_4 H 0.4972 0.8507 0.8450
C28_4 C 0.0070(3) 0.8502(4) 0.8716(4)
H55_4 H 0.0242 0.8149 0.8391
H56_4 H 0.0056 0.8307 0.9186
C29_4 C 0.3266(5) 0.9963(5) 0.8373(5)
C30_4 C 0.2191(3) 0.9525(3) 0.9007(3)
H59_4 H 0.2403 0.9059 0.9054
H60_4 H 0.1915 0.9620 0.9431
C31_4 C 0.1729(4) 0.9541(4) 0.8385(4)
H62_4 H 0.2008 0.9443 0.7964
H70_4 H 0.8578 0.9601 0.8646
H86_4 H 0.8646 0.8578 0.9601
H54_4 H 0.9601 0.8646 0.8578
loop_
_geom_bond_atom_site_label_1
_geom_bond_atom_site_label_2
_geom_bond_site_symmetry_1
_geom_bond_site_symmetry_2
H31 C16 1_555 1_555
H32 C16 1_555 1_555
O5 C17 1_555 1_555
O6 Mn1 1_555 1_555
N5 H33 1_555 1_555
C17 N6 1_555 1_555
N6 H34 1_555 1_555
C18 O6 1_555 1_555
C19 C17 1_555 1_555
H35 C19 1_555 1_555
H36 C19 1_555 1_555
H37 C19 1_555 1_555
C20 C18 1_555 1_555
H39 C20 1_555 1_555
H40 C20 1_555 1_555
C21 N6 1_555 1_555
H41 C21 1_555 1_555
H42 C21 1_555 1_555
C22 H43 1_555 1_555
H44 C22 1_555 1_555
C23 N5 1_555 1_555
H45 C23 1_555 1_555
H46 C23 1_555 1_555
C24 C21 1_555 1_555
H47 C24 1_555 1_555
H48 C24 1_555 1_555
O9 C33 1_555 1_555
O10 Mn1 1_555 1_555
N9 H65 1_555 1_555
C33 N10 1_555 1_555
N10 H66 1_555 1_555
C34 O10 1_555 1_555
C35 C33 1_555 1_555
H67 C35 1_555 1_555
H68 C35 1_555 1_555
H69 C35 1_555 1_555
C36 C34 1_555 1_555
H70 C36 1_555 1_555
H71 C36 1_555 1_555
H72 C36 1_555 1_555
C37 N10 1_555 1_555
C38 H75 1_555 1_555
H76 C38 1_555 1_555
C39 N9 1_555 1_555
H78 C39 1_555 1_555
Mn5 O5 1_555 1_555
Mn7 O9 1_555 1_555
O13 Mn2 1_555 1_555
O16 Mn2 1_555 1_555
O17 Mn1 1_555 1_555
N5 C18 1_555 1_555
C22 C23 1_555 1_555
C22 C24 1_555 1_555
N9 C34 1_555 1_555
C38 C39 1_555 1_555
Mn1_2 O2 1_555 1_555
Mn2_2 O1 1_555 1_555
O1 C1 1_555 1_555
O2 C2 1_555 1_555
N1 H1 1_555 1_555
C1 N2 1_555 1_555
N2 H2 1_555 1_555
C2 N1 1_555 1_555
C3 C1 1_555 1_555
H3 C3 1_555 1_555
H4 C3 1_555 1_555
H5 C3 1_555 1_555
C4 C2 1_555 1_555
H6 C4 1_555 1_555
H7 C4 1_555 1_555
H8 C4 1_555 1_555
C5 N2 1_555 1_555
H9 C5 1_555 1_555
H10 C5 1_555 1_555
C6 H11 1_555 1_555
H12 C6 1_555 1_555
C7 N1 1_555 1_555
H13 C7 1_555 1_555
H14 C7 1_555 1_555
C8 C5 1_555 1_555
H15 C8 1_555 1_555
H16 C8 1_555 1_555
O3 C9 1_555 1_555
O4 Mn1_2 1_555 1_555
N3 H17 1_555 1_555
C9 N4 1_555 1_555
N4 H18 1_555 1_555
C10 O4 1_555 1_555
C11 C9 1_555 1_555
H19 C11 1_555 1_555
H20 C11 1_555 1_555
H21 C11 1_555 1_555
C12 C10 1_555 1_555
H22 C12 1_555 1_555
H23 C12 1_555 1_555
H24 C12 1_555 1_555
C13 N4 1_555 1_555
C14 H27 1_555 1_555
H28 C14 1_555 1_555
C15 N3 1_555 1_555
H30 C15 1_555 1_555
H79 C40 1_555 1_555
H80 C40 1_555 1_555
O11 C41 1_555 1_555
O12 Mn1_2 1_555 1_555
N11 H81 1_555 1_555
C41 N12 1_555 1_555
N12 H82 1_555 1_555
C42 O12 1_555 1_555
C43 C41 1_555 1_555
H83 C43 1_555 1_555
H84 C43 1_555 1_555
H85 C43 1_555 1_555
C44 C42 1_555 1_555
H87 C44 1_555 1_555
H88 C44 1_555 1_555
C45 N12 1_555 1_555
H89 C45 1_555 1_555
H90 C45 1_555 1_555
C46 H91 1_555 1_555
H92 C46 1_555 1_555
C47 N11 1_555 1_555
H93 C47 1_555 1_555
H94 C47 1_555 1_555
C48 C45 1_555 1_555
H95 C48 1_555 1_555
H96 C48 1_555 1_555
Mn5 O11 1_555 1_555
Mn7_4 O3 1_555 1_555
C6 C7 1_555 1_555
C6 C8 1_555 1_555
N3 C10 1_555 1_555
C14 C15 1_555 1_555
N11 C42 1_555 1_555
C46 C47 1_555 1_555
C46 C48 1_555 1_555
O7 Mn2_3 1_555 1_555
O17 C26 1_555 1_555
N7 H49 1_555 1_555
C25 O7 1_555 1_555
N8 C25 1_555 1_555
H50 N8 1_555 1_555
C26 N7 1_555 1_555
C27 C25 1_555 1_555
H51 C27 1_555 1_555
H52 C27 1_555 1_555
H53 C27 1_555 1_555
C28 C26 1_555 1_555
H54 C28 1_555 1_555
H55 C28 1_555 1_555
H56 C28 1_555 1_555
C29 N8 1_555 1_555
H57 C29 1_555 1_555
H58 C29 1_555 1_555
C30 H59 1_555 1_555
H60 C30 1_555 1_555
C31 N7 1_555 1_555
H61 C31 1_555 1_555
H62 C31 1_555 1_555
C32 C29 1_555 1_555
H63 C32 1_555 1_555
H64 C32 1_555 1_555
C30 C31 1_555 1_555
C30 C32 1_555 1_555
O14 Mn2_4 1_555 1_555
O15 Mn2_4 1_555 1_555
Mn3 O2_2 1_555 1_555
Mn5 O1_2 1_555 1_555
O1_2 C1_2 1_555 1_555
O2_2 C2_2 1_555 1_555
N1_2 H1_2 1_555 1_555
C1_2 N2_2 1_555 1_555
N2_2 H2_2 1_555 1_555
C2_2 N1_2 1_555 1_555
C3_2 C1_2 1_555 1_555
H3_2 C3_2 1_555 1_555
H4_2 C3_2 1_555 1_555
H5_2 C3_2 1_555 1_555
C4_2 C2_2 1_555 1_555
H7_2 C4_2 1_555 1_555
H8_2 C4_2 1_555 1_555
C5_2 N2_2 1_555 1_555
H9_2 C5_2 1_555 1_555
H10_2 C5_2 1_555 1_555
C6_2 H11_2 1_555 1_555
H12_2 C6_2 1_555 1_555
C7_2 N1_2 1_555 1_555
H13_2 C7_2 1_555 1_555
H14_2 C7_2 1_555 1_555
C8_2 C5_2 1_555 1_555
H15_2 C8_2 1_555 1_555
H16_2 C8_2 1_555 1_555
H47_2 C24_2 1_555 1_555
H48_2 C24_2 1_555 1_555
O7_2 Mn5 1_555 1_555
O8 C26_2 1_555 1_555
N7_2 H49_2 1_555 1_555
C25_2 O7_2 1_555 1_555
N8_2 C25_2 1_555 1_555
H50_2 N8_2 1_555 1_555
C26_2 N7_2 1_555 1_555
C27_2 C25_2 1_555 1_555
H51_2 C27_2 1_555 1_555
H52_2 C27_2 1_555 1_555
H53_2 C27_2 1_555 1_555
C28_2 C26_2 1_555 1_555
H55_2 C28_2 1_555 1_555
H56_2 C28_2 1_555 1_555
C29_2 N8_2 1_555 1_555
H57_2 C29_2 1_555 1_555
H58_2 C29_2 1_555 1_555
C30_2 H59_2 1_555 1_555
H60_2 C30_2 1_555 1_555
C31_2 N7_2 1_555 1_555
H61_2 C31_2 1_555 1_555
H62_2 C31_2 1_555 1_555
C32_2 C29_2 1_555 1_555
H63_2 C32_2 1_555 1_555
H64_2 C32_2 1_555 1_555
O9_2 C33_2 1_555 1_555
O10_2 Mn3 1_555 1_555
N9_2 H65_2 1_555 1_555
C33_2 N10_2 1_555 1_555
N10_2 H66_2 1_555 1_555
C34_2 O10_2 1_555 1_555
C35_2 C33_2 1_555 1_555
H67_2 C35_2 1_555 1_555
H68_2 C35_2 1_555 1_555
H69_2 C35_2 1_555 1_555
C36_2 C34_2 1_555 1_555
H70_2 C36_2 1_555 1_555
H71_2 C36_2 1_555 1_555
H72_2 C36_2 1_555 1_555
C37_2 N10_2 1_555 1_555
H73_2 C37_2 1_555 1_555
H74_2 C37_2 1_555 1_555
C38_2 H75_2 1_555 1_555
H76_2 C38_2 1_555 1_555
C39_2 N9_2 1_555 1_555
H77_2 C39_2 1_555 1_555
H78_2 C39_2 1_555 1_555
C40_2 C37_2 1_555 1_555
H79_2 C40_2 1_555 1_555
H80_2 C40_2 1_555 1_555
O16 C41_2 1_555 1_555
O12_2 Mn3 1_555 1_555
N11_2 H81_2 1_555 1_555
C41_2 N12_2 1_555 1_555
N12_2 H82_2 1_555 1_555
C42_2 O12_2 1_555 1_555
C43_2 C41_2 1_555 1_555
H83_2 C43_2 1_555 1_555
H84_2 C43_2 1_555 1_555
H85_2 C43_2 1_555 1_555
C44_2 C42_2 1_555 1_555
H86_2 C44_2 1_555 1_555
H87_2 C44_2 1_555 1_555
H88_2 C44_2 1_555 1_555
C45_2 N12_2 1_555 1_555
C46_2 H91_2 1_555 1_555
H92_2 C46_2 1_555 1_555
C47_2 N11_2 1_555 1_555
H94_2 C47_2 1_555 1_555
Mn3_2 O8 1_555 1_555
Mn6_2 O9_2 1_555 1_555
O13_2 Mn5 1_555 1_555
O15_2 Mn5 1_555 1_555
C6_2 C7_2 1_555 1_555
C6_2 C8_2 1_555 1_555
C30_2 C31_2 1_555 1_555
C30_2 C32_2 1_555 1_555
N9_2 C34_2 1_555 1_555
C38_2 C39_2 1_555 1_555
C38_2 C40_2 1_555 1_555
N11_2 C42_2 1_555 1_555
C46_2 C47_2 1_555 1_555
O3_2 C9_2 1_555 1_555
O4_2 Mn3_2 1_555 1_555
N3_2 H17_2 1_555 1_555
C9_2 N4_2 1_555 1_555
N4_2 H18_2 1_555 1_555
C10_2 O4_2 1_555 1_555
C11_2 C9_2 1_555 1_555
H19_2 C11_2 1_555 1_555
H20_2 C11_2 1_555 1_555
H21_2 C11_2 1_555 1_555
C12_2 C10_2 1_555 1_555
H22_2 C12_2 1_555 1_555
H23_2 C12_2 1_555 1_555
H24_2 C12_2 1_555 1_555
C13_2 N4_2 1_555 1_555
H25_2 C13_2 1_555 1_555
H26_2 C13_2 1_555 1_555
C14_2 H27_2 1_555 1_555
H28_2 C14_2 1_555 1_555
C15_2 N3_2 1_555 1_555
H29_2 C15_2 1_555 1_555
H30_2 C15_2 1_555 1_555
C16_2 C13_2 1_555 1_555
H31_2 C16_2 1_555 1_555
H32_2 C16_2 1_555 1_555
O14 C17_2 1_555 1_555
O6_2 Mn3_2 1_555 1_555
N5_2 H33_2 1_555 1_555
C17_2 N6_2 1_555 1_555
N6_2 H34_2 1_555 1_555
C18_2 O6_2 1_555 1_555
C19_2 C17_2 1_555 1_555
H35_2 C19_2 1_555 1_555
H36_2 C19_2 1_555 1_555
H37_2 C19_2 1_555 1_555
C20_2 C18_2 1_555 1_555
H38_2 C20_2 1_555 1_555
H39_2 C20_2 1_555 1_555
H40_2 C20_2 1_555 1_555
C21_2 N6_2 1_555 1_555
C22_2 H43_2 1_555 1_555
H44_2 C22_2 1_555 1_555
C23_2 N5_2 1_555 1_555
H46_2 C23_2 1_555 1_555
H95_2 C48_2 1_555 1_555
H96_2 C48_2 1_555 1_555
Mn6_3 O3_2 1_555 1_555
N3_2 C10_2 1_555 1_555
C14_2 C15_2 1_555 1_555
C14_2 C16_2 1_555 1_555
N5_2 C18_2 1_555 1_555
C22_2 C23_2 1_555 1_555
O7_3 Mn6 1_555 1_555
O8_2 C26_3 1_555 1_555
N7_3 H49_3 1_555 1_555
C25_3 O7_3 1_555 1_555
N8_3 C25_3 1_555 1_555
H50_3 N8_3 1_555 1_555
C26_3 N7_3 1_555 1_555
C27_3 C25_3 1_555 1_555
H51_3 C27_3 1_555 1_555
H52_3 C27_3 1_555 1_555
H53_3 C27_3 1_555 1_555
C28_3 C26_3 1_555 1_555
H54_3 C28_3 1_555 1_555
H55_3 C28_3 1_555 1_555
H56_3 C28_3 1_555 1_555
C29_3 N8_3 1_555 1_555
C30_3 H59_3 1_555 1_555
H60_3 C30_3 1_555 1_555
C31_3 N7_3 1_555 1_555
H62_3 C31_3 1_555 1_555
Mn3_3 O8_2 1_555 1_555
O14_2 Mn6 1_555 1_555
C30_3 C31_3 1_555 1_555
H63_3 C32_3 1_555 1_555
H64_3 C32_3 1_555 1_555
H15_3 C8_3 1_555 1_555
H16_3 C8_3 1_555 1_555
O13_2 C9_3 1_555 1_555
O4_3 Mn3_3 1_555 1_555
N3_3 H17_3 1_555 1_555
C9_3 N4_3 1_555 1_555
N4_3 H18_3 1_555 1_555
C10_3 O4_3 1_555 1_555
C11_3 C9_3 1_555 1_555
H19_3 C11_3 1_555 1_555
H20_3 C11_3 1_555 1_555
H21_3 C11_3 1_555 1_555
C12_3 C10_3 1_555 1_555
H23_3 C12_3 1_555 1_555
H24_3 C12_3 1_555 1_555
C13_3 N4_3 1_555 1_555
H25_3 C13_3 1_555 1_555
H26_3 C13_3 1_555 1_555
C14_3 H27_3 1_555 1_555
H28_3 C14_3 1_555 1_555
C15_3 N3_3 1_555 1_555
H29_3 C15_3 1_555 1_555
H30_3 C15_3 1_555 1_555
C16_3 C13_3 1_555 1_555
H31_3 C16_3 1_555 1_555
H32_3 C16_3 1_555 1_555
O11_2 C41_3 1_555 1_555
O12_3 Mn3_3 1_555 1_555
N11_3 H81_3 1_555 1_555
C41_3 N12_3 1_555 1_555
N12_3 H82_3 1_555 1_555
C42_3 O12_3 1_555 1_555
C43_3 C41_3 1_555 1_555
H83_3 C43_3 1_555 1_555
H84_3 C43_3 1_555 1_555
H85_3 C43_3 1_555 1_555
C44_3 C42_3 1_555 1_555
H86_3 C44_3 1_555 1_555
H87_3 C44_3 1_555 1_555
H88_3 C44_3 1_555 1_555
C45_3 N12_3 1_555 1_555
H89_3 C45_3 1_555 1_555
H90_3 C45_3 1_555 1_555
C46_3 H91_3 1_555 1_555
H92_3 C46_3 1_555 1_555
C47_3 N11_3 1_555 1_555
H93_3 C47_3 1_555 1_555
H94_3 C47_3 1_555 1_555
C48_3 C45_3 1_555 1_555
H95_3 C48_3 1_555 1_555
H96_3 C48_3 1_555 1_555
Mn7_2 O11_2 1_555 1_555
N3_3 C10_3 1_555 1_555
C14_3 C15_3 1_555 1_555
C14_3 C16_3 1_555 1_555
N11_3 C42_3 1_555 1_555
C46_3 C47_3 1_555 1_555
C46_3 C48_3 1_555 1_555
Mn3_4 O2_3 1_555 1_555
Mn6_4 O1_3 1_555 1_555
O1_3 C1_3 1_555 1_555
O2_3 C2_3 1_555 1_555
N1_3 H1_3 1_555 1_555
C1_3 N2_3 1_555 1_555
N2_3 H2_3 1_555 1_555
C2_3 N1_3 1_555 1_555
C3_3 C1_3 1_555 1_555
H3_3 C3_3 1_555 1_555
H4_3 C3_3 1_555 1_555
H5_3 C3_3 1_555 1_555
C4_3 C2_3 1_555 1_555
H6_3 C4_3 1_555 1_555
H7_3 C4_3 1_555 1_555
H8_3 C4_3 1_555 1_555
C5_3 N2_3 1_555 1_555
C6_3 H11_3 1_555 1_555
H12_3 C6_3 1_555 1_555
C7_3 N1_3 1_555 1_555
H14_3 C7_3 1_555 1_555
O5_2 C17_3 1_555 1_555
O6_3 Mn3_4 1_555 1_555
N5_3 H33_3 1_555 1_555
C17_3 N6_3 1_555 1_555
N6_3 H34_3 1_555 1_555
C18_3 O6_3 1_555 1_555
C19_3 C17_3 1_555 1_555
H35_3 C19_3 1_555 1_555
H36_3 C19_3 1_555 1_555
H37_3 C19_3 1_555 1_555
C20_3 C18_3 1_555 1_555
H38_3 C20_3 1_555 1_555
H39_3 C20_3 1_555 1_555
H40_3 C20_3 1_555 1_555
C21_3 N6_3 1_555 1_555
H41_3 C21_3 1_555 1_555
H42_3 C21_3 1_555 1_555
C22_3 H43_3 1_555 1_555
H44_3 C22_3 1_555 1_555
C23_3 N5_3 1_555 1_555
H45_3 C23_3 1_555 1_555
H46_3 C23_3 1_555 1_555
C24_3 C21_3 1_555 1_555
H47_3 C24_3 1_555 1_555
H48_3 C24_3 1_555 1_555
O15_2 C33_3 1_555 1_555
O10_3 Mn3_4 1_555 1_555
N9_3 H65_3 1_555 1_555
C33_3 N10_3 1_555 1_555
N10_3 H66_3 1_555 1_555
C34_3 O10_3 1_555 1_555
C35_3 C33_3 1_555 1_555
H67_3 C35_3 1_555 1_555
H68_3 C35_3 1_555 1_555
H69_3 C35_3 1_555 1_555
C36_3 C34_3 1_555 1_555
H71_3 C36_3 1_555 1_555
H72_3 C36_3 1_555 1_555
C37_3 N10_3 1_555 1_555
H73_3 C37_3 1_555 1_555
H74_3 C37_3 1_555 1_555
C38_3 H75_3 1_555 1_555
H76_3 C38_3 1_555 1_555
C39_3 N9_3 1_555 1_555
H77_3 C39_3 1_555 1_555
H78_3 C39_3 1_555 1_555
C40_3 C37_3 1_555 1_555
H79_3 C40_3 1_555 1_555
H80_3 C40_3 1_555 1_555
Mn7_3 O5_2 1_555 1_555
O16_2 Mn6_4 1_555 1_555
C6_3 C7_3 1_555 1_555
N5_3 C18_3 1_555 1_555
C22_3 C23_3 1_555 1_555
C22_3 C24_3 1_555 1_555
N9_3 C34_3 1_555 1_555
C38_3 C39_3 1_555 1_555
C38_3 C40_3 1_555 1_555
O14_2 C17_4 1_555 1_555
O6_4 Mn1_4 1_555 1_555
N5_4 H33_4 1_555 1_555
C17_4 N6_4 1_555 1_555
N6_4 H34_4 1_555 1_555
C18_4 O6_4 1_555 1_555
C19_4 C17_4 1_555 1_555
H35_4 C19_4 1_555 1_555
H36_4 C19_4 1_555 1_555
H37_4 C19_4 1_555 1_555
C20_4 C18_4 1_555 1_555
H39_4 C20_4 1_555 1_555
H40_4 C20_4 1_555 1_555
C21_4 N6_4 1_555 1_555
C22_4 H43_4 1_555 1_555
H44_4 C22_4 1_555 1_555
C23_4 N5_4 1_555 1_555
H46_4 C23_4 1_555 1_555
N5_4 C18_4 1_555 1_555
C22_4 C23_4 1_555 1_555
O13 C9_4 1_555 1_555
O4_4 Mn1_5 1_555 1_555
N3_4 H17_4 1_555 1_555
C9_4 N4_4 1_555 1_555
N4_4 H18_4 1_555 1_555
C10_4 O4_4 1_555 1_555
C11_4 C9_4 1_555 1_555
H19_4 C11_4 1_555 1_555
H20_4 C11_4 1_555 1_555
H21_4 C11_4 1_555 1_555
C12_4 C10_4 1_555 1_555
H23_4 C12_4 1_555 1_555
H24_4 C12_4 1_555 1_555
C13_4 N4_4 1_555 1_555
C14_4 H27_4 1_555 1_555
H28_4 C14_4 1_555 1_555
C15_4 N3_4 1_555 1_555
H30_4 C15_4 1_555 1_555
H95_4 C48_4 1_555 1_555
H96_4 C48_4 1_555 1_555
N3_4 C10_4 1_555 1_555
C14_4 C15_4 1_555 1_555
H31_4 C16_4 1_555 1_555
H32_4 C16_4 1_555 1_555
O17_2 Mn1_6 1_555 1_555
Mn1_7 O2_4 1_555 1_555
Mn7 O1_4 1_555 1_555
O1_4 C1_4 1_555 1_555
O2_4 C2_4 1_555 1_555
N1_4 H1_4 1_555 1_555
C1_4 N2_4 1_555 1_555
N2_4 H2_4 1_555 1_555
C2_4 N1_4 1_555 1_555
C3_4 C1_4 1_555 1_555
H3_4 C3_4 1_555 1_555
H4_4 C3_4 1_555 1_555
H5_4 C3_4 1_555 1_555
C4_4 C2_4 1_555 1_555
H7_4 C4_4 1_555 1_555
H8_4 C4_4 1_555 1_555
C5_4 N2_4 1_555 1_555
C6_4 H11_4 1_555 1_555
H12_4 C6_4 1_555 1_555
C7_4 N1_4 1_555 1_555
H14_4 C7_4 1_555 1_555
H79_4 C40_4 1_555 1_555
H80_4 C40_4 1_555 1_555
C6_4 C7_4 1_555 1_555
H47_4 C24_4 1_555 1_555
H48_4 C24_4 1_555 1_555
H63_4 C32_4 1_555 1_555
H64_4 C32_4 1_555 1_555
O15 C33_4 1_555 1_555
O10_4 Mn1_8 1_555 1_555
N9_4 H65_4 1_555 1_555
C33_4 N10_4 1_555 1_555
N10_4 H66_4 1_555 1_555
C34_4 O10_4 1_555 1_555
C35_4 C33_4 1_555 1_555
H67_4 C35_4 1_555 1_555
H68_4 C35_4 1_555 1_555
H69_4 C35_4 1_555 1_555
C36_4 C34_4 1_555 1_555
H71_4 C36_4 1_555 1_555
H72_4 C36_4 1_555 1_555
C37_4 N10_4 1_555 1_555
C38_4 H75_4 1_555 1_555
H76_4 C38_4 1_555 1_555
C39_4 N9_4 1_555 1_555
H78_4 C39_4 1_555 1_555
N9_4 C34_4 1_555 1_555
C38_4 C39_4 1_555 1_555
H15_4 C8_4 1_555 1_555
H16_4 C8_4 1_555 1_555
O16_2 C41_4 1_555 1_555
O12_4 Mn1_9 1_555 1_555
N11_4 H81_4 1_555 1_555
C41_4 N12_4 1_555 1_555
N12_4 H82_4 1_555 1_555
C42_4 O12_4 1_555 1_555
C43_4 C41_4 1_555 1_555
H83_4 C43_4 1_555 1_555
H84_4 C43_4 1_555 1_555
H85_4 C43_4 1_555 1_555
C44_4 C42_4 1_555 1_555
H87_4 C44_4 1_555 1_555
H88_4 C44_4 1_555 1_555
C45_4 N12_4 1_555 1_555
C46_4 H91_4 1_555 1_555
H92_4 C46_4 1_555 1_555
C47_4 N11_4 1_555 1_555
H94_4 C47_4 1_555 1_555
N11_4 C42_4 1_555 1_555
C46_4 C47_4 1_555 1_555
O7_4 Mn7_4 1_555 1_555
O17_2 C26_4 1_555 1_555
N7_4 H49_4 1_555 1_555
C25_4 O7_4 1_555 1_555
N8_4 C25_4 1_555 1_555
H50_4 N8_4 1_555 1_555
C26_4 N7_4 1_555 1_555
C27_4 C25_4 1_555 1_555
H51_4 C27_4 1_555 1_555
H52_4 C27_4 1_555 1_555
H53_4 C27_4 1_555 1_555
C28_4 C26_4 1_555 1_555
H55_4 C28_4 1_555 1_555
H56_4 C28_4 1_555 1_555
C29_4 N8_4 1_555 1_555
C30_4 H59_4 1_555 1_555
H60_4 C30_4 1_555 1_555
C31_4 N7_4 1_555 1_555
H62_4 C31_4 1_555 1_555
C30_4 C31_4 1_555 1_555

#END
