
###############################################################################
#
# This file contains modified crystal structure data generated from the
# MOF subset of the Cambridge Structural Database (CSD) v543 
# hosted by the Cambridge Crystallographic Data Centre (CCDC).
#
# This work is licensed under the Creative Commons
# Attribution-NonCommercial-ShareAlike 4.0 International License.
# To view a copy of this license, visit
# http://creativecommons.org/licenses/by-nc-sa/4.0/
# or send a letter to
# Creative Commons, PO Box 1866, Mountain View, CA 94042, USA.
#
# CIF created using the CSD Python API on 29 September 2022
# The structure has been converted into the P1 space group
# The structure has a 3D framework
# The original CSD entry OMAREC is in the cubic crystal system
# The framework has been calculated to contain at least 10.0% void space
# The void calculation uses a probe of radius 1.32A, grid spacing 0.4
# The framework is charged, counterions have been retained in the structure
#
###############################################################################

data_OMAREC
_chemical_formula_moiety         '(C204 H384 Mg19 N48 O48 38+)n'
_symmetry_cell_setting           triclinic
_symmetry_space_group_name_H-M   'P 1'
_symmetry_Int_Tables_number      1
_space_group_name_Hall           'P 1'
loop_
_symmetry_equiv_pos_site_id
_symmetry_equiv_pos_as_xyz
1 x,y,z
_cell_length_a                   19.0748(10)
_cell_length_b                   19.0748(10)
_cell_length_c                   19.0748(10)
_cell_angle_alpha                90
_cell_angle_beta                 90
_cell_angle_gamma                90
_cell_volume                     6940.33
loop_
_atom_site_label
_atom_site_type_symbol
_atom_site_fract_x
_atom_site_fract_y
_atom_site_fract_z
Mg5 Mg 0.0000 0.0000 0.0000
Mg5_2 Mg 0.0000 0.0000 1.0000
Mg5_3 Mg 0.0000 1.0000 0.0000
Mg5_4 Mg 0.0000 1.0000 1.0000
Mg1 Mg 0.5000 0.0000 0.0000
Mg2 Mg 0.5000 0.0000 0.5000
O1 O 0.4703(2) 0.09008(19) 0.44999(19)
O2 O 0.4644(5) 0.0921(6) 0.0411(6)
C1 C 0.4087(3) 0.1271(3) 0.0505(4)
N1 N 0.4009(3) 0.1547(2) 0.1131(2)
H1 H 0.3593 0.1723 0.1221
C2 C 0.3501(6) 0.1297(6) 0.0060(4)
H3 H 0.3160 0.1634 0.0244
H4 H 0.3284 0.0832 0.0034
N2 N 0.4353(3) 0.1646(3) 0.3688(3)
H5 H 0.4021 0.1933 0.3547
C3 C 0.5000(7) 0.1609(7) 0.3276(6)
H6 H 0.5398 0.1566 0.3606
H7 H 0.5056 0.2060 0.3025
C4 C 0.4240(3) 0.1272(3) 0.4259(3)
C5 C 0.3508(14) 0.1239(9) 0.4552(13)
H8 H 0.3401 0.0756 0.4691
H9 H 0.3173 0.1393 0.4194
H10 H 0.3474 0.1547 0.4962
C6 C 0.5058(5) 0.1022(5) 0.2742(5)
H11 H 0.5521 0.1066 0.2511
H12 H 0.5060 0.0573 0.3002
C7 C 0.4535(5) 0.1603(5) 0.1712(5)
H13 H 0.4433 0.2025 0.1996
H14 H 0.5010 0.1656 0.1510
C8 C 0.4519(4) 0.0964(5) 0.2177(4)
H15 H 0.4048 0.0916 0.2391
H16 H 0.4610 0.0539 0.1893
C35 C 0.1724(6) 0.0000(7) 0.1609(7)
H70 H 0.1394 0.0398 0.1566
H71 H 0.1975 0.0056 0.2060
C38 C 0.2258(5) 0.0058(5) 0.1022(5)
H75 H 0.2489 0.0521 0.1066
H76 H 0.1998 0.0060 0.0573
H78 H 0.3490 0.0010 0.1656
O11 O 0.59008(19) 0.44999(19) 0.0297(2)
O12 O 0.5921(6) 0.0411(6) 0.0356(5)
C41 C 0.6271(3) 0.0505(4) 0.0913(3)
N11 N 0.6547(2) 0.1131(2) 0.0991(3)
H81 H 0.6723 0.1221 0.1407
C42 C 0.6297(6) 0.0060(4) 0.1499(6)
H83 H 0.6634 0.0244 0.1840
H84 H 0.5832 0.0034 0.1716
N12 N 0.6646(3) 0.3688(3) 0.0647(3)
H85 H 0.6933 0.3547 0.0979
C43 C 0.6609(7) 0.3276(6) 0.0000(7)
C44 C 0.6272(3) 0.4259(3) 0.0760(3)
C45 C 0.6239(9) 0.4552(13) 0.1492(14)
H88 H 0.5756 0.4691 0.1599
H89 H 0.6393 0.4194 0.1827
H90 H 0.6547 0.4962 0.1526
C47 C 0.6603(5) 0.1712(5) 0.0465(5)
H93 H 0.7025 0.1996 0.0567
C48 C 0.5964(5) 0.2177(4) 0.0481(4)
H95 H 0.5916 0.2391 0.0952
H96 H 0.5539 0.1893 0.0390
Mg5_5 Mg 1.0000 0.0000 0.0000
Mg7 Mg 0.5000 0.5000 0.0000
O14 O 0.59008(19) 0.05001(19) 0.5297(2)
O16 O 0.44999(19) 0.0297(2) 0.59008(19)
Mg1_2 Mg 0.5000 0.0000 1.0000
H2 H 0.3649 0.1443 0.9590
O3 O 0.94999(19) 0.0297(2) 0.90992(19)
O4 O 0.5411(6) 0.0356(5) 0.9079(6)
C9 C 0.5505(4) 0.0913(3) 0.8729(3)
N3 N 0.6131(2) 0.0991(3) 0.8453(2)
H17 H 0.6221 0.1407 0.8277
C10 C 0.5060(4) 0.1499(6) 0.8703(6)
H18 H 0.4590 0.1351 0.8557
H19 H 0.5244 0.1840 0.8366
H20 H 0.5034 0.1716 0.9168
N4 N 0.8688(3) 0.0647(3) 0.8354(3)
H21 H 0.8547 0.0979 0.8067
C11 C 0.8276(6) -0.0000(7) 0.8391(7)
C12 C 0.9259(3) 0.0760(3) 0.8728(3)
C13 C 0.9552(13) 0.1492(14) 0.8761(9)
H24 H 0.9691 0.1599 0.9244
H25 H 0.9194 0.1827 0.8607
H26 H 0.9962 0.1526 0.8453
C15 C 0.6712(5) 0.0465(5) 0.8397(5)
H29 H 0.6996 0.0567 0.7975
C16 C 0.7177(4) 0.0481(4) 0.9036(5)
H31 H 0.7391 0.0952 0.9084
H32 H 0.6893 0.0390 0.9461
H34 H 0.3557 0.0410 0.8649
C43_2 C 0.6609(7) 0.3276(6) 1.0000(7)
H86 H 0.6566 0.3606 0.9602
H87 H 0.7060 0.3025 0.9944
C46 C 0.6022(5) 0.2742(5) 0.9942(5)
H91 H 0.6066 0.2511 0.9479
H92 H 0.5573 0.3002 0.9940
H94 H 0.6656 0.1510 0.9990
Mg5_6 Mg 1.0000 0.0000 1.0000
Mg7_2 Mg 0.5000 0.5000 1.0000
Mg1_3 Mg 0.5000 1.0000 0.0000
Mg2_2 Mg 0.5000 1.0000 0.5000
C19 C 0.3391(7) 0.6724(6) 0.0000(7)
H38 H 0.3434 0.6394 0.0398
H39 H 0.2940 0.6975 0.0056
C22 C 0.3978(5) 0.7258(5) 0.0058(5)
H43 H 0.3934 0.7489 0.0521
H44 H 0.4427 0.6998 0.0060
H46 H 0.3344 0.8490 0.0010
H50 H 0.6351 0.8557 0.0410
O9 O 0.05001(19) 0.9703(2) 0.09008(19)
O10 O 0.4589(6) 0.9644(5) 0.0921(6)
C33 C 0.4495(4) 0.9087(3) 0.1271(3)
N9 N 0.3869(2) 0.9009(3) 0.1547(2)
H65 H 0.3779 0.8593 0.1723
C34 C 0.4940(4) 0.8501(6) 0.1297(6)
H66 H 0.5410 0.8649 0.1443
H67 H 0.4756 0.8160 0.1634
H68 H 0.4966 0.8284 0.0832
N10 N 0.1312(3) 0.9353(3) 0.1646(3)
H69 H 0.1453 0.9021 0.1933
C35_2 C 0.1724(6) 1.0000(7) 0.1609(7)
C36 C 0.0741(3) 0.9240(3) 0.1272(3)
C37 C 0.0448(13) 0.8508(14) 0.1239(9)
H72 H 0.0309 0.8401 0.0756
H73 H 0.0806 0.8173 0.1393
H74 H 0.0038 0.8474 0.1547
C39 C 0.3288(5) 0.9535(5) 0.1603(5)
H77 H 0.3004 0.9433 0.2025
C40 C 0.2823(4) 0.9519(4) 0.0964(5)
H79 H 0.2609 0.9048 0.0916
H80 H 0.3107 0.9610 0.0539
H82 H 0.6443 0.9590 0.1351
Mg5_7 Mg 1.0000 1.0000 0.0000
O13 O 0.55001(19) 0.9703(2) 0.40992(19)
O15 O 0.5297(2) 0.90992(19) 0.55001(19)
O17 O 0.40992(19) 0.94999(19) 0.4703(2)
Mg1_4 Mg 0.5000 1.0000 1.0000
C11_2 C 0.8276(6) 1.0000(7) 0.8391(7)
H22 H 0.8606 0.9602 0.8434
H23 H 0.8025 0.9944 0.7940
C14 C 0.7742(5) 0.9942(5) 0.8978(5)
H27 H 0.7511 0.9479 0.8934
H28 H 0.8002 0.9940 0.9427
H30 H 0.6510 0.9990 0.8344
O5 O 0.40992(19) 0.55001(19) 0.9703(2)
O6 O 0.4079(6) 0.9589(6) 0.9644(5)
C17 C 0.3729(3) 0.9495(4) 0.9087(3)
N5 N 0.3453(2) 0.8869(2) 0.9009(3)
H33 H 0.3277 0.8779 0.8593
C18 C 0.3703(6) 0.9940(4) 0.8501(6)
H35 H 0.3366 0.9756 0.8160
H36 H 0.4168 0.9966 0.8284
N6 N 0.3354(3) 0.6312(3) 0.9353(3)
H37 H 0.3067 0.6453 0.9021
C19_2 C 0.3391(7) 0.6724(6) 1.0000(7)
C20 C 0.3728(3) 0.5741(3) 0.9240(3)
C21 C 0.3761(9) 0.5448(13) 0.8508(14)
H40 H 0.4244 0.5309 0.8401
H41 H 0.3607 0.5806 0.8173
H42 H 0.3453 0.5038 0.8474
C23 C 0.3397(5) 0.8288(5) 0.9535(5)
H45 H 0.2975 0.8004 0.9433
C24 C 0.4036(5) 0.7823(4) 0.9519(4)
H47 H 0.4084 0.7609 0.9048
H48 H 0.4461 0.8107 0.9610
O8 O 0.5356(5) 0.9079(6) 0.9589(6)
C25 C 0.5913(3) 0.8729(3) 0.9495(4)
N7 N 0.5991(3) 0.8453(2) 0.8869(2)
H49 H 0.6407 0.8277 0.8779
C26 C 0.6499(6) 0.8703(6) 0.9940(4)
H51 H 0.6840 0.8366 0.9756
H52 H 0.6716 0.9168 0.9966
N8 N 0.5647(3) 0.8354(3) 0.6312(3)
H53 H 0.5979 0.8067 0.6453
C27 C 0.5000(7) 0.8391(7) 0.6724(6)
H54 H 0.4602 0.8434 0.6394
H55 H 0.4944 0.7940 0.6975
C28 C 0.5760(3) 0.8728(3) 0.5741(3)
C29 C 0.6492(14) 0.8761(9) 0.5448(13)
H56 H 0.6599 0.9244 0.5309
H57 H 0.6827 0.8607 0.5806
H58 H 0.6526 0.8453 0.5038
C30 C 0.4942(5) 0.8978(5) 0.7258(5)
H59 H 0.4479 0.8934 0.7489
H60 H 0.4940 0.9427 0.6998
C31 C 0.5465(5) 0.8397(5) 0.8288(5)
H61 H 0.5567 0.7975 0.8004
H62 H 0.4990 0.8344 0.8490
C32 C 0.5481(4) 0.9036(5) 0.7823(4)
H63 H 0.5952 0.9084 0.7609
H64 H 0.5390 0.9461 0.8107
Mg5_8 Mg 1.0000 1.0000 1.0000
Mg1_5 Mg 0.0000 0.0000 0.5000
O5_2 O 0.09008(19) 0.44999(19) 0.4703(2)
O6_2 O 0.0921(6) 0.0411(6) 0.4644(5)
C17_2 C 0.1271(3) 0.0505(4) 0.4087(3)
N5_2 N 0.1547(2) 0.1131(2) 0.4009(3)
H33_2 H 0.1723 0.1221 0.3593
C18_2 C 0.1297(6) 0.0060(4) 0.3501(6)
H35_2 H 0.1634 0.0244 0.3160
H36_2 H 0.0832 0.0034 0.3284
N6_2 N 0.1646(3) 0.3688(3) 0.4353(3)
H37_2 H 0.1933 0.3547 0.4021
C19_3 C 0.1609(7) 0.3276(6) 0.5000(7)
H38_2 H 0.1566 0.3606 0.5398
H39_2 H 0.2060 0.3025 0.5056
C20_2 C 0.1272(3) 0.4259(3) 0.4240(3)
C21_2 C 0.1239(9) 0.4552(13) 0.3508(14)
H40_2 H 0.0756 0.4691 0.3401
H41_2 H 0.1393 0.4194 0.3173
H42_2 H 0.1547 0.4962 0.3474
C22_2 C 0.1022(5) 0.2742(5) 0.5058(5)
H43_2 H 0.1066 0.2511 0.5521
H44_2 H 0.0573 0.3002 0.5060
C23_2 C 0.1603(5) 0.1712(5) 0.4535(5)
H45_2 H 0.2025 0.1996 0.4433
H46_2 H 0.1656 0.1510 0.5010
C24_2 C 0.0964(5) 0.2177(4) 0.4519(4)
H47_2 H 0.0916 0.2391 0.4048
H48_2 H 0.0539 0.1893 0.4610
C27_2 C -0.0000(7) 0.1609(7) 0.1724(6)
H54_2 H 0.0398 0.1566 0.1394
H55_2 H 0.0056 0.2060 0.1975
C30_2 C 0.0058(5) 0.1022(5) 0.2258(5)
H59_2 H 0.0521 0.1066 0.2489
H60_2 H 0.0060 0.0573 0.1998
H62_2 H 0.0010 0.1656 0.3490
O10_2 O 0.0411(6) 0.0356(5) 0.5921(6)
C33_2 C 0.0505(4) 0.0913(3) 0.6271(3)
N9_2 N 0.1131(2) 0.0991(3) 0.6547(2)
H65_2 H 0.1221 0.1407 0.6723
C34_2 C 0.0060(4) 0.1499(6) 0.6297(6)
H67_2 H 0.0244 0.1840 0.6634
H68_2 H 0.0034 0.1716 0.5832
N10_2 N 0.3688(3) 0.0647(3) 0.6646(3)
H69_2 H 0.3547 0.0979 0.6933
C35_3 C 0.3276(6) 0.0000(7) 0.6609(7)
C36_2 C 0.4259(3) 0.0760(3) 0.6272(3)
C37_2 C 0.4552(13) 0.1492(14) 0.6239(9)
H72_2 H 0.4691 0.1599 0.5756
H73_2 H 0.4194 0.1827 0.6393
H74_2 H 0.4962 0.1526 0.6547
C39_2 C 0.1712(5) 0.0465(5) 0.6603(5)
H77_2 H 0.1996 0.0567 0.7025
C40_2 C 0.2177(4) 0.0481(4) 0.5964(5)
H79_2 H 0.2391 0.0952 0.5916
H80_2 H 0.1893 0.0390 0.5539
Mg6 Mg 0.0000 0.5000 0.5000
O17_2 O 0.09008(19) 0.05001(19) 0.9703(2)
Mg1_6 Mg 0.0000 1.0000 0.5000
O1_2 O 0.0297(2) 0.90992(19) 0.94999(19)
O2_2 O 0.0356(5) 0.9079(6) 0.5411(6)
C1_2 C 0.0913(3) 0.8729(3) 0.5505(4)
N1_2 N 0.0991(3) 0.8453(2) 0.6131(2)
H1_2 H 0.1407 0.8277 0.6221
C2_2 C 0.1499(6) 0.8703(6) 0.5060(4)
H2_2 H 0.1351 0.8557 0.4590
H3_2 H 0.1840 0.8366 0.5244
H4_2 H 0.1716 0.9168 0.5034
N2_2 N 0.0647(3) 0.8354(3) 0.8688(3)
H5_2 H 0.0979 0.8067 0.8547
C3_2 C -0.0000(7) 0.8391(7) 0.8276(6)
C4_2 C 0.0760(3) 0.8728(3) 0.9259(3)
C5_2 C 0.1492(14) 0.8761(9) 0.9552(13)
H8_2 H 0.1599 0.9244 0.9691
H9_2 H 0.1827 0.8607 0.9194
H10_2 H 0.1526 0.8453 0.9962
C7_2 C 0.0465(5) 0.8397(5) 0.6712(5)
H13_2 H 0.0567 0.7975 0.6996
C8_2 C 0.0481(4) 0.9036(5) 0.7177(4)
H15_2 H 0.0952 0.9084 0.7391
H16_2 H 0.0390 0.9461 0.6893
H18_2 H 0.0410 0.8649 0.3557
H34_2 H 0.1443 0.9590 0.3649
C35_4 C 0.3276(6) 1.0000(7) 0.6609(7)
H70_2 H 0.3606 0.9602 0.6566
H71_2 H 0.3025 0.9944 0.7060
C38_2 C 0.2742(5) 0.9942(5) 0.6022(5)
H75_2 H 0.2511 0.9479 0.6066
H76_2 H 0.3002 0.9940 0.5573
H78_2 H 0.1510 0.9990 0.6656
O15_2 O 0.9703(2) 0.09008(19) 0.05001(19)
Mg1_7 Mg 1.0000 0.0000 0.5000
C11_3 C 0.6724(6) 0.0000(7) 0.3391(7)
H22_2 H 0.6394 0.0398 0.3434
H23_2 H 0.6975 0.0056 0.2940
C14_2 C 0.7258(5) 0.0058(5) 0.3978(5)
H27_2 H 0.7489 0.0521 0.3934
H28_2 H 0.6998 0.0060 0.4427
H30_2 H 0.8490 0.0010 0.3344
O8_2 O 0.9644(5) 0.0921(6) 0.4589(6)
C25_2 C 0.9087(3) 0.1271(3) 0.4495(4)
N7_2 N 0.9009(3) 0.1547(2) 0.3869(2)
H49_2 H 0.8593 0.1723 0.3779
C26_2 C 0.8501(6) 0.1297(6) 0.4940(4)
H50_2 H 0.8649 0.1443 0.5410
H51_2 H 0.8160 0.1634 0.4756
H52_2 H 0.8284 0.0832 0.4966
N8_2 N 0.9353(3) 0.1646(3) 0.1312(3)
H53_2 H 0.9021 0.1933 0.1453
C27_3 C 1.0000(7) 0.1609(7) 0.1724(6)
C28_2 C 0.9240(3) 0.1272(3) 0.0741(3)
C29_2 C 0.8508(14) 0.1239(9) 0.0448(13)
H56_2 H 0.8401 0.0756 0.0309
H57_2 H 0.8173 0.1393 0.0806
H58_2 H 0.8474 0.1547 0.0038
C31_2 C 0.9535(5) 0.1603(5) 0.3288(5)
H61_2 H 0.9433 0.2025 0.3004
C32_2 C 0.9519(4) 0.0964(5) 0.2823(4)
H63_2 H 0.9048 0.0916 0.2609
H64_2 H 0.9610 0.0539 0.3107
H66_2 H 0.9590 0.1351 0.6443
H82_2 H 0.8557 0.0410 0.6351
Mg6_2 Mg 1.0000 0.5000 0.5000
O14_2 O 0.90992(19) 0.94999(19) 0.0297(2)
Mg1_8 Mg 1.0000 1.0000 0.5000
C3_3 C 1.0000(7) 0.8391(7) 0.8276(6)
H6_2 H 0.9602 0.8434 0.8606
H7_2 H 0.9944 0.7940 0.8025
C6_2 C 0.9942(5) 0.8978(5) 0.7742(5)
H11_2 H 0.9479 0.8934 0.7511
H12_2 H 0.9940 0.9427 0.8002
H14_2 H 0.9990 0.8344 0.6510
O4_2 O 0.9589(6) 0.9644(5) 0.4079(6)
C9_2 C 0.9495(4) 0.9087(3) 0.3729(3)
N3_2 N 0.8869(2) 0.9009(3) 0.3453(2)
H17_2 H 0.8779 0.8593 0.3277
C10_2 C 0.9940(4) 0.8501(6) 0.3703(6)
H19_2 H 0.9756 0.8160 0.3366
H20_2 H 0.9966 0.8284 0.4168
N4_2 N 0.6312(3) 0.9353(3) 0.3354(3)
H21_2 H 0.6453 0.9021 0.3067
C11_4 C 0.6724(6) 1.0000(7) 0.3391(7)
C12_2 C 0.5741(3) 0.9240(3) 0.3728(3)
C13_2 C 0.5448(13) 0.8508(14) 0.3761(9)
H24_2 H 0.5309 0.8401 0.4244
H25_2 H 0.5806 0.8173 0.3607
H26_2 H 0.5038 0.8474 0.3453
C15_2 C 0.8288(5) 0.9535(5) 0.3397(5)
H29_2 H 0.8004 0.9433 0.2975
C16_2 C 0.7823(4) 0.9519(4) 0.4036(5)
H31_2 H 0.7609 0.9048 0.4084
H32_2 H 0.8107 0.9610 0.4461
O11_2 O 0.90992(19) 0.55001(19) 0.5297(2)
O12_2 O 0.9079(6) 0.9589(6) 0.5356(5)
C41_2 C 0.8729(3) 0.9495(4) 0.5913(3)
N11_2 N 0.8453(2) 0.8869(2) 0.5991(3)
H81_2 H 0.8277 0.8779 0.6407
C42_2 C 0.8703(6) 0.9940(4) 0.6499(6)
H83_2 H 0.8366 0.9756 0.6840
H84_2 H 0.9168 0.9966 0.6716
N12_2 N 0.8354(3) 0.6312(3) 0.5647(3)
H85_2 H 0.8067 0.6453 0.5979
C43_3 C 0.8391(7) 0.6724(6) 0.5000(7)
H86_2 H 0.8434 0.6394 0.4602
H87_2 H 0.7940 0.6975 0.4944
C44_2 C 0.8728(3) 0.5741(3) 0.5760(3)
C45_2 C 0.8761(9) 0.5448(13) 0.6492(14)
H88_2 H 0.9244 0.5309 0.6599
H89_2 H 0.8607 0.5806 0.6827
H90_2 H 0.8453 0.5038 0.6526
C46_2 C 0.8978(5) 0.7258(5) 0.4942(5)
H91_2 H 0.8934 0.7489 0.4479
H92_2 H 0.9427 0.6998 0.4940
C47_2 C 0.8397(5) 0.8288(5) 0.5465(5)
H93_2 H 0.7975 0.8004 0.5567
H94_2 H 0.8344 0.8490 0.4990
C48_2 C 0.9036(5) 0.7823(4) 0.5481(4)
H95_2 H 0.9084 0.7609 0.5952
H96_2 H 0.9461 0.8107 0.5390
Mg1_9 Mg 0.5000 0.5000 0.5000
O1_3 O 0.5297(2) 0.59008(19) 0.05001(19)
O2_3 O 0.5356(5) 0.5921(6) 0.4589(6)
C1_3 C 0.5913(3) 0.6271(3) 0.4495(4)
N1_3 N 0.5991(3) 0.6547(2) 0.3869(2)
H1_3 H 0.6407 0.6723 0.3779
C2_3 C 0.6499(6) 0.6297(6) 0.4940(4)
H2_3 H 0.6351 0.6443 0.5410
H3_3 H 0.6840 0.6634 0.4756
H4_3 H 0.6716 0.5832 0.4966
N2_3 N 0.5647(3) 0.6646(3) 0.1312(3)
H5_3 H 0.5979 0.6933 0.1453
C3_4 C 0.5000(7) 0.6609(7) 0.1724(6)
H6_3 H 0.4602 0.6566 0.1394
H7_3 H 0.4944 0.7060 0.1975
C4_3 C 0.5760(3) 0.6272(3) 0.0741(3)
C5_3 C 0.6492(14) 0.6239(9) 0.0448(13)
H8_3 H 0.6599 0.5756 0.0309
H9_3 H 0.6827 0.6393 0.0806
H10_3 H 0.6526 0.6547 0.0038
C6_3 C 0.4942(5) 0.6022(5) 0.2258(5)
H11_3 H 0.4479 0.6066 0.2489
H12_3 H 0.4940 0.5573 0.1998
C7_3 C 0.5465(5) 0.6603(5) 0.3288(5)
H13_3 H 0.5567 0.7025 0.3004
H14_3 H 0.4990 0.6656 0.3490
C8_3 C 0.5481(4) 0.5964(5) 0.2823(4)
H15_3 H 0.5952 0.5916 0.2609
H16_3 H 0.5390 0.5539 0.3107
O3_2 O 0.05001(19) 0.5297(2) 0.59008(19)
O4_3 O 0.4589(6) 0.5356(5) 0.5921(6)
C9_3 C 0.4495(4) 0.5913(3) 0.6271(3)
N3_3 N 0.3869(2) 0.5991(3) 0.6547(2)
H17_3 H 0.3779 0.6407 0.6723
C10_3 C 0.4940(4) 0.6499(6) 0.6297(6)
H18_3 H 0.5410 0.6351 0.6443
H19_3 H 0.4756 0.6840 0.6634
H20_3 H 0.4966 0.6716 0.5832
N4_3 N 0.1312(3) 0.5647(3) 0.6646(3)
H21_3 H 0.1453 0.5979 0.6933
C11_5 C 0.1724(6) 0.5000(7) 0.6609(7)
H22_3 H 0.1394 0.4602 0.6566
H23_3 H 0.1975 0.4944 0.7060
C12_3 C 0.0741(3) 0.5760(3) 0.6272(3)
C13_3 C 0.0448(13) 0.6492(14) 0.6239(9)
H24_3 H 0.0309 0.6599 0.5756
H25_3 H 0.0806 0.6827 0.6393
H26_3 H 0.0038 0.6526 0.6547
C14_3 C 0.2258(5) 0.4942(5) 0.6022(5)
H27_3 H 0.2489 0.4479 0.6066
H28_3 H 0.1998 0.4940 0.5573
C15_3 C 0.3288(5) 0.5465(5) 0.6603(5)
H29_3 H 0.3004 0.5567 0.7025
H30_3 H 0.3490 0.4990 0.6656
C16_3 C 0.2823(4) 0.5481(4) 0.5964(5)
H31_3 H 0.2609 0.5952 0.5916
H32_3 H 0.3107 0.5390 0.5539
O6_3 O 0.5921(6) 0.4589(6) 0.5356(5)
C17_3 C 0.6271(3) 0.4495(4) 0.5913(3)
N5_3 N 0.6547(2) 0.3869(2) 0.5991(3)
H33_3 H 0.6723 0.3779 0.6407
C18_3 C 0.6297(6) 0.4940(4) 0.6499(6)
H34_3 H 0.6443 0.5410 0.6351
H35_3 H 0.6634 0.4756 0.6840
H36_3 H 0.5832 0.4966 0.6716
N6_3 N 0.6646(3) 0.1312(3) 0.5647(3)
H37_3 H 0.6933 0.1453 0.5979
C19_4 C 0.6609(7) 0.1724(6) 0.5000(7)
H38_3 H 0.6566 0.1394 0.4602
H39_3 H 0.7060 0.1975 0.4944
C20_3 C 0.6272(3) 0.0741(3) 0.5760(3)
C21_3 C 0.6239(9) 0.0448(13) 0.6492(14)
H40_3 H 0.5756 0.0309 0.6599
H41_3 H 0.6393 0.0806 0.6827
H42_3 H 0.6547 0.0038 0.6526
C22_3 C 0.6022(5) 0.2258(5) 0.4942(5)
H43_3 H 0.6066 0.2489 0.4479
H44_3 H 0.5573 0.1998 0.4940
C23_3 C 0.6603(5) 0.3288(5) 0.5465(5)
H45_3 H 0.7025 0.3004 0.5567
H46_3 H 0.6656 0.3490 0.4990
C24_3 C 0.5964(5) 0.2823(4) 0.5481(4)
H47_3 H 0.5916 0.2609 0.5952
H48_3 H 0.5539 0.3107 0.5390
O7 O 0.4703(2) 0.40992(19) 0.94999(19)
O8_3 O 0.4644(5) 0.4079(6) 0.5411(6)
C25_3 C 0.4087(3) 0.3729(3) 0.5505(4)
N7_3 N 0.4009(3) 0.3453(2) 0.6131(2)
H49_3 H 0.3593 0.3277 0.6221
C26_3 C 0.3501(6) 0.3703(6) 0.5060(4)
H50_3 H 0.3649 0.3557 0.4590
H51_3 H 0.3160 0.3366 0.5244
H52_3 H 0.3284 0.4168 0.5034
N8_3 N 0.4353(3) 0.3354(3) 0.8688(3)
H53_3 H 0.4021 0.3067 0.8547
C27_4 C 0.5000(7) 0.3391(7) 0.8276(6)
H54_3 H 0.5398 0.3434 0.8606
H55_3 H 0.5056 0.2940 0.8025
C28_3 C 0.4240(3) 0.3728(3) 0.9259(3)
C29_3 C 0.3508(14) 0.3761(9) 0.9552(13)
H56_3 H 0.3401 0.4244 0.9691
H57_3 H 0.3173 0.3607 0.9194
H58_3 H 0.3474 0.3453 0.9962
C30_3 C 0.5058(5) 0.3978(5) 0.7742(5)
H59_3 H 0.5521 0.3934 0.7511
H60_3 H 0.5060 0.4427 0.8002
C31_3 C 0.4535(5) 0.3397(5) 0.6712(5)
H61_3 H 0.4433 0.2975 0.6996
H62_3 H 0.5010 0.3344 0.6510
C32_3 C 0.4519(4) 0.4036(5) 0.7177(4)
H63_3 H 0.4048 0.4084 0.7391
H64_3 H 0.4610 0.4461 0.6893
O9_2 O 0.94999(19) 0.4703(2) 0.40992(19)
O10_3 O 0.5411(6) 0.4644(5) 0.4079(6)
C33_3 C 0.5505(4) 0.4087(3) 0.3729(3)
N9_3 N 0.6131(2) 0.4009(3) 0.3453(2)
H65_3 H 0.6221 0.3593 0.3277
C34_3 C 0.5060(4) 0.3501(6) 0.3703(6)
H66_3 H 0.4590 0.3649 0.3557
H67_3 H 0.5244 0.3160 0.3366
H68_3 H 0.5034 0.3284 0.4168
N10_3 N 0.8688(3) 0.4353(3) 0.3354(3)
H69_3 H 0.8547 0.4021 0.3067
C35_5 C 0.8276(6) 0.5000(7) 0.3391(7)
H70_3 H 0.8606 0.5398 0.3434
H71_3 H 0.8025 0.5056 0.2940
C36_3 C 0.9259(3) 0.4240(3) 0.3728(3)
C37_3 C 0.9552(13) 0.3508(14) 0.3761(9)
H72_3 H 0.9691 0.3401 0.4244
H73_3 H 0.9194 0.3173 0.3607
H74_3 H 0.9962 0.3474 0.3453
C38_3 C 0.7742(5) 0.5058(5) 0.3978(5)
H75_3 H 0.7511 0.5521 0.3934
H76_3 H 0.8002 0.5060 0.4427
C39_3 C 0.6712(5) 0.4535(5) 0.3397(5)
H77_3 H 0.6996 0.4433 0.2975
H78_3 H 0.6510 0.5010 0.3344
C40_3 C 0.7177(4) 0.4519(4) 0.4036(5)
H79_3 H 0.7391 0.4048 0.4084
H80_3 H 0.6893 0.4610 0.4461
O12_3 O 0.4079(6) 0.5411(6) 0.4644(5)
C41_3 C 0.3729(3) 0.5505(4) 0.4087(3)
N11_3 N 0.3453(2) 0.6131(2) 0.4009(3)
H81_3 H 0.3277 0.6221 0.3593
C42_3 C 0.3703(6) 0.5060(4) 0.3501(6)
H82_3 H 0.3557 0.4590 0.3649
H83_3 H 0.3366 0.5244 0.3160
H84_3 H 0.4168 0.5034 0.3284
N12_3 N 0.3354(3) 0.8688(3) 0.4353(3)
H85_3 H 0.3067 0.8547 0.4021
C43_4 C 0.3391(7) 0.8276(6) 0.5000(7)
H86_3 H 0.3434 0.8606 0.5398
H87_3 H 0.2940 0.8025 0.5056
C44_3 C 0.3728(3) 0.9259(3) 0.4240(3)
C45_3 C 0.3761(9) 0.9552(13) 0.3508(14)
H88_3 H 0.4244 0.9691 0.3401
H89_3 H 0.3607 0.9194 0.3173
H90_3 H 0.3453 0.9962 0.3474
C46_3 C 0.3978(5) 0.7742(5) 0.5058(5)
H91_3 H 0.3934 0.7511 0.5521
H92_3 H 0.4427 0.8002 0.5060
C47_3 C 0.3397(5) 0.6712(5) 0.4535(5)
H93_3 H 0.2975 0.6996 0.4433
H94_3 H 0.3344 0.6510 0.5010
C48_3 C 0.4036(5) 0.7177(4) 0.4519(4)
H95_3 H 0.4084 0.7391 0.4048
H96_3 H 0.4461 0.6893 0.4610
O13_2 O 0.44999(19) 0.4703(2) 0.09008(19)
O16_2 O 0.55001(19) 0.5297(2) 0.90992(19)
Mg1_10 Mg 0.0000 0.5000 0.0000
O4_4 O 0.0411(6) 0.4644(5) 0.0921(6)
C9_4 C 0.0505(4) 0.4087(3) 0.1271(3)
N3_4 N 0.1131(2) 0.4009(3) 0.1547(2)
H17_4 H 0.1221 0.3593 0.1723
C10_4 C 0.0060(4) 0.3501(6) 0.1297(6)
H19_4 H 0.0244 0.3160 0.1634
H20_4 H 0.0034 0.3284 0.0832
N4_4 N 0.3688(3) 0.4353(3) 0.1646(3)
H21_4 H 0.3547 0.4021 0.1933
C11_6 C 0.3276(6) 0.5000(7) 0.1609(7)
H22_4 H 0.3606 0.5398 0.1566
H23_4 H 0.3025 0.5056 0.2060
C12_4 C 0.4259(3) 0.4240(3) 0.1272(3)
C13_4 C 0.4552(13) 0.3508(14) 0.1239(9)
H24_4 H 0.4691 0.3401 0.0756
H25_4 H 0.4194 0.3173 0.1393
H26_4 H 0.4962 0.3474 0.1547
C14_4 C 0.2742(5) 0.5058(5) 0.1022(5)
H27_4 H 0.2511 0.5521 0.1066
H28_4 H 0.3002 0.5060 0.0573
C15_4 C 0.1712(5) 0.4535(5) 0.1603(5)
H29_4 H 0.1996 0.4433 0.2025
H30_4 H 0.1510 0.5010 0.1656
C16_4 C 0.2177(4) 0.4519(4) 0.0964(5)
H31_4 H 0.2391 0.4048 0.0916
H32_4 H 0.1893 0.4610 0.0539
O7_2 O 0.0297(2) 0.59008(19) 0.44999(19)
O8_4 O 0.0356(5) 0.5921(6) 0.0411(6)
C25_4 C 0.0913(3) 0.6271(3) 0.0505(4)
N7_4 N 0.0991(3) 0.6547(2) 0.1131(2)
H49_4 H 0.1407 0.6723 0.1221
C26_4 C 0.1499(6) 0.6297(6) 0.0060(4)
H51_4 H 0.1840 0.6634 0.0244
H52_4 H 0.1716 0.5832 0.0034
N8_4 N 0.0647(3) 0.6646(3) 0.3688(3)
H53_4 H 0.0979 0.6933 0.3547
C27_5 C -0.0000(7) 0.6609(7) 0.3276(6)
C28_4 C 0.0760(3) 0.6272(3) 0.4259(3)
C29_4 C 0.1492(14) 0.6239(9) 0.4552(13)
H56_4 H 0.1599 0.5756 0.4691
H57_4 H 0.1827 0.6393 0.4194
H58_4 H 0.1526 0.6547 0.4962
C31_4 C 0.0465(5) 0.6603(5) 0.1712(5)
H61_4 H 0.0567 0.7025 0.1996
C32_4 C 0.0481(4) 0.5964(5) 0.2177(4)
H63_4 H 0.0952 0.5916 0.2391
H64_4 H 0.0390 0.5539 0.1893
C43_5 C 0.1609(7) 0.1724(6) 0.0000(7)
H86_4 H 0.1566 0.1394 0.0398
H87_4 H 0.2060 0.1975 0.0056
C46_4 C 0.1022(5) 0.2258(5) 0.0058(5)
H91_4 H 0.1066 0.2489 0.0521
H92_4 H 0.0573 0.1998 0.0060
H94_4 H 0.1656 0.3490 0.0010
Mg1_11 Mg 0.0000 0.5000 1.0000
C3_5 C 0.0000(7) 0.3391(7) 0.6724(6)
H6_4 H 0.0398 0.3434 0.6394
H7_4 H 0.0056 0.2940 0.6975
C6_4 C 0.0058(5) 0.3978(5) 0.7258(5)
H11_4 H 0.0521 0.3934 0.7489
H12_4 H 0.0060 0.4427 0.6998
H14_4 H 0.0010 0.3344 0.8490
H50_4 H 0.1351 0.6443 0.9590
H66_4 H 0.0410 0.6351 0.8557
O12_4 O 0.0921(6) 0.4589(6) 0.9644(5)
C41_4 C 0.1271(3) 0.4495(4) 0.9087(3)
N11_4 N 0.1547(2) 0.3869(2) 0.9009(3)
H81_4 H 0.1723 0.3779 0.8593
C42_4 C 0.1297(6) 0.4940(4) 0.8501(6)
H82_4 H 0.1443 0.5410 0.8649
H83_4 H 0.1634 0.4756 0.8160
H84_4 H 0.0832 0.4966 0.8284
N12_4 N 0.1646(3) 0.1312(3) 0.9353(3)
H85_4 H 0.1933 0.1453 0.9021
C43_6 C 0.1609(7) 0.1724(6) 1.0000(7)
C44_4 C 0.1272(3) 0.0741(3) 0.9240(3)
C45_4 C 0.1239(9) 0.0448(13) 0.8508(14)
H88_4 H 0.0756 0.0309 0.8401
H89_4 H 0.1393 0.0806 0.8173
H90_4 H 0.1547 0.0038 0.8474
C47_4 C 0.1603(5) 0.3288(5) 0.9535(5)
H93_4 H 0.2025 0.3004 0.9433
C48_4 C 0.0964(5) 0.2823(4) 0.9519(4)
H95_4 H 0.0916 0.2609 0.9048
H96_4 H 0.0539 0.3107 0.9610
Mg1_12 Mg 1.0000 0.5000 0.0000
H2_4 H 0.8649 0.3557 0.0410
H18_4 H 0.9590 0.3649 0.1443
O6_4 O 0.9079(6) 0.5411(6) 0.0356(5)
C17_4 C 0.8729(3) 0.5505(4) 0.0913(3)
N5_4 N 0.8453(2) 0.6131(2) 0.0991(3)
H33_4 H 0.8277 0.6221 0.1407
C18_4 C 0.8703(6) 0.5060(4) 0.1499(6)
H34_4 H 0.8557 0.4590 0.1351
H35_4 H 0.8366 0.5244 0.1840
H36_4 H 0.9168 0.5034 0.1716
N6_4 N 0.8354(3) 0.8688(3) 0.0647(3)
H37_4 H 0.8067 0.8547 0.0979
C19_5 C 0.8391(7) 0.8276(6) 0.0000(7)
C20_4 C 0.8728(3) 0.9259(3) 0.0760(3)
C21_4 C 0.8761(9) 0.9552(13) 0.1492(14)
H40_4 H 0.9244 0.9691 0.1599
H41_4 H 0.8607 0.9194 0.1827
H42_4 H 0.8453 0.9962 0.1526
C23_4 C 0.8397(5) 0.6712(5) 0.0465(5)
H45_4 H 0.7975 0.6996 0.0567
C24_4 C 0.9036(5) 0.7177(4) 0.0481(4)
H47_4 H 0.9084 0.7391 0.0952
H48_4 H 0.9461 0.6893 0.0390
C27_6 C 1.0000(7) 0.6609(7) 0.3276(6)
H54_4 H 0.9602 0.6566 0.3606
H55_4 H 0.9944 0.7060 0.3025
C30_4 C 0.9942(5) 0.6022(5) 0.2742(5)
H59_4 H 0.9479 0.6066 0.2511
H60_4 H 0.9940 0.5573 0.3002
H62_4 H 0.9990 0.6656 0.1510
Mg1_13 Mg 1.0000 0.5000 1.0000
O1_4 O 0.9703(2) 0.40992(19) 0.55001(19)
O2_4 O 0.9644(5) 0.4079(6) 0.9589(6)
C1_4 C 0.9087(3) 0.3729(3) 0.9495(4)
N1_4 N 0.9009(3) 0.3453(2) 0.8869(2)
H1_4 H 0.8593 0.3277 0.8779
C2_4 C 0.8501(6) 0.3703(6) 0.9940(4)
H3_4 H 0.8160 0.3366 0.9756
H4_4 H 0.8284 0.4168 0.9966
N2_4 N 0.9353(3) 0.3354(3) 0.6312(3)
H5_4 H 0.9021 0.3067 0.6453
C3_6 C 1.0000(7) 0.3391(7) 0.6724(6)
C4_4 C 0.9240(3) 0.3728(3) 0.5741(3)
C5_4 C 0.8508(14) 0.3761(9) 0.5448(13)
H8_4 H 0.8401 0.4244 0.5309
H9_4 H 0.8173 0.3607 0.5806
H10_4 H 0.8474 0.3453 0.5038
C7_4 C 0.9535(5) 0.3397(5) 0.8288(5)
H13_4 H 0.9433 0.2975 0.8004
C8_4 C 0.9519(4) 0.4036(5) 0.7823(4)
H15_4 H 0.9048 0.4084 0.7609
H16_4 H 0.9610 0.4461 0.8107
C19_6 C 0.8391(7) 0.8276(6) 1.0000(7)
H38_4 H 0.8434 0.8606 0.9602
H39_4 H 0.7940 0.8025 0.9944
C22_4 C 0.8978(5) 0.7742(5) 0.9942(5)
H43_4 H 0.8934 0.7511 0.9479
H44_4 H 0.9427 0.8002 0.9940
H46_4 H 0.8344 0.6510 0.9990
O10_4 O 0.9589(6) 0.5356(5) 0.9079(6)
C33_4 C 0.9495(4) 0.5913(3) 0.8729(3)
N9_4 N 0.8869(2) 0.5991(3) 0.8453(2)
H65_4 H 0.8779 0.6407 0.8277
C34_4 C 0.9940(4) 0.6499(6) 0.8703(6)
H67_4 H 0.9756 0.6840 0.8366
H68_4 H 0.9966 0.6716 0.9168
N10_4 N 0.6312(3) 0.5647(3) 0.8354(3)
H69_4 H 0.6453 0.5979 0.8067
C35_6 C 0.6724(6) 0.5000(7) 0.8391(7)
H70_4 H 0.6394 0.4602 0.8434
H71_4 H 0.6975 0.4944 0.7940
C36_4 C 0.5741(3) 0.5760(3) 0.8728(3)
C37_4 C 0.5448(13) 0.6492(14) 0.8761(9)
H72_4 H 0.5309 0.6599 0.9244
H73_4 H 0.5806 0.6827 0.8607
H74_4 H 0.5038 0.6526 0.8453
C38_4 C 0.7258(5) 0.4942(5) 0.8978(5)
H75_4 H 0.7489 0.4479 0.8934
H76_4 H 0.6998 0.4940 0.9427
C39_4 C 0.8288(5) 0.5465(5) 0.8397(5)
H77_4 H 0.8004 0.5567 0.7975
H78_4 H 0.8490 0.4990 0.8344
C40_4 C 0.7823(4) 0.5481(4) 0.9036(5)
H79_4 H 0.7609 0.5952 0.9084
H80_4 H 0.8107 0.5390 0.9461
loop_
_geom_bond_atom_site_label_1
_geom_bond_atom_site_label_2
_geom_bond_site_symmetry_1
_geom_bond_site_symmetry_2
Mg1 O2 1_555 1_555
Mg2 O1 1_555 1_555
O1 C4 1_555 1_555
O2 C1 1_555 1_555
C1 N1 1_555 1_555
N1 H1 1_555 1_555
C2 C1 1_555 1_555
H3 C2 1_555 1_555
H4 C2 1_555 1_555
N2 H5 1_555 1_555
C3 N2 1_555 1_555
H6 C3 1_555 1_555
H7 C3 1_555 1_555
C4 N2 1_555 1_555
C5 C4 1_555 1_555
H8 C5 1_555 1_555
H9 C5 1_555 1_555
H10 C5 1_555 1_555
C6 C3 1_555 1_555
H11 C6 1_555 1_555
H12 C6 1_555 1_555
C7 N1 1_555 1_555
H13 C7 1_555 1_555
H14 C7 1_555 1_555
C8 C6 1_555 1_555
H15 C8 1_555 1_555
H16 C8 1_555 1_555
H70 C35 1_555 1_555
H71 C35 1_555 1_555
C38 C35 1_555 1_555
H75 C38 1_555 1_555
H76 C38 1_555 1_555
O11 C44 1_555 1_555
O12 Mg1 1_555 1_555
C41 O12 1_555 1_555
N11 C41 1_555 1_555
H81 N11 1_555 1_555
C42 C41 1_555 1_555
H83 C42 1_555 1_555
H84 C42 1_555 1_555
N12 H85 1_555 1_555
C43 N12 1_555 1_555
C44 N12 1_555 1_555
C45 C44 1_555 1_555
H88 C45 1_555 1_555
H89 C45 1_555 1_555
H90 C45 1_555 1_555
C47 N11 1_555 1_555
H93 C47 1_555 1_555
H95 C48 1_555 1_555
H96 C48 1_555 1_555
Mg7 O11 1_555 1_555
O14 Mg2 1_555 1_555
O16 Mg2 1_555 1_555
C7 C8 1_555 1_555
C47 C48 1_555 1_555
O3 C12 1_555 1_555
O4 Mg1_2 1_555 1_555
C9 O4 1_555 1_555
N3 C9 1_555 1_555
H17 N3 1_555 1_555
C10 C9 1_555 1_555
H18 C10 1_555 1_555
H19 C10 1_555 1_555
H20 C10 1_555 1_555
N4 H21 1_555 1_555
C11 N4 1_555 1_555
C12 N4 1_555 1_555
C13 C12 1_555 1_555
H24 C13 1_555 1_555
H25 C13 1_555 1_555
H26 C13 1_555 1_555
C15 N3 1_555 1_555
H29 C15 1_555 1_555
H31 C16 1_555 1_555
H32 C16 1_555 1_555
H86 C43_2 1_555 1_555
H87 C43_2 1_555 1_555
C46 C43_2 1_555 1_555
H91 C46 1_555 1_555
H92 C46 1_555 1_555
Mg5_6 O3 1_555 1_555
C15 C16 1_555 1_555
H38 C19 1_555 1_555
H39 C19 1_555 1_555
C22 C19 1_555 1_555
H43 C22 1_555 1_555
H44 C22 1_555 1_555
O9 C36 1_555 1_555
O10 Mg1_3 1_555 1_555
C33 O10 1_555 1_555
N9 C33 1_555 1_555
H65 N9 1_555 1_555
C34 C33 1_555 1_555
H66 C34 1_555 1_555
H67 C34 1_555 1_555
H68 C34 1_555 1_555
N10 H69 1_555 1_555
C35_2 N10 1_555 1_555
C36 N10 1_555 1_555
C37 C36 1_555 1_555
H72 C37 1_555 1_555
H73 C37 1_555 1_555
H74 C37 1_555 1_555
C39 N9 1_555 1_555
H77 C39 1_555 1_555
H79 C40 1_555 1_555
H80 C40 1_555 1_555
Mg5_3 O9 1_555 1_555
O13 Mg2_2 1_555 1_555
O15 Mg2_2 1_555 1_555
O17 Mg2_2 1_555 1_555
C39 C40 1_555 1_555
H22 C11_2 1_555 1_555
H23 C11_2 1_555 1_555
C14 C11_2 1_555 1_555
H27 C14 1_555 1_555
H28 C14 1_555 1_555
O5 C20 1_555 1_555
O6 Mg1_4 1_555 1_555
C17 O6 1_555 1_555
N5 C17 1_555 1_555
H33 N5 1_555 1_555
C18 C17 1_555 1_555
H35 C18 1_555 1_555
H36 C18 1_555 1_555
N6 H37 1_555 1_555
C19_2 N6 1_555 1_555
C20 N6 1_555 1_555
C21 C20 1_555 1_555
H40 C21 1_555 1_555
H41 C21 1_555 1_555
H42 C21 1_555 1_555
C23 N5 1_555 1_555
H45 C23 1_555 1_555
H47 C24 1_555 1_555
H48 C24 1_555 1_555
O15 C28 1_555 1_555
O8 Mg1_4 1_555 1_555
C25 O8 1_555 1_555
N7 C25 1_555 1_555
H49 N7 1_555 1_555
C26 C25 1_555 1_555
H51 C26 1_555 1_555
H52 C26 1_555 1_555
N8 H53 1_555 1_555
C27 N8 1_555 1_555
H54 C27 1_555 1_555
H55 C27 1_555 1_555
C28 N8 1_555 1_555
C29 C28 1_555 1_555
H56 C29 1_555 1_555
H57 C29 1_555 1_555
H58 C29 1_555 1_555
C30 C27 1_555 1_555
H59 C30 1_555 1_555
H60 C30 1_555 1_555
C31 N7 1_555 1_555
H61 C31 1_555 1_555
H62 C31 1_555 1_555
C32 C30 1_555 1_555
H63 C32 1_555 1_555
H64 C32 1_555 1_555
Mg7_2 O5 1_555 1_555
C23 C24 1_555 1_555
C31 C32 1_555 1_555
O5_2 C20_2 1_555 1_555
O6_2 Mg1_5 1_555 1_555
C17_2 O6_2 1_555 1_555
N5_2 C17_2 1_555 1_555
H33_2 N5_2 1_555 1_555
C18_2 C17_2 1_555 1_555
H35_2 C18_2 1_555 1_555
H36_2 C18_2 1_555 1_555
N6_2 H37_2 1_555 1_555
C19_3 N6_2 1_555 1_555
H38_2 C19_3 1_555 1_555
H39_2 C19_3 1_555 1_555
C20_2 N6_2 1_555 1_555
C21_2 C20_2 1_555 1_555
H40_2 C21_2 1_555 1_555
H41_2 C21_2 1_555 1_555
H42_2 C21_2 1_555 1_555
C22_2 C19_3 1_555 1_555
H43_2 C22_2 1_555 1_555
H44_2 C22_2 1_555 1_555
C23_2 N5_2 1_555 1_555
H45_2 C23_2 1_555 1_555
H46_2 C23_2 1_555 1_555
C24_2 C22_2 1_555 1_555
H47_2 C24_2 1_555 1_555
H48_2 C24_2 1_555 1_555
H54_2 C27_2 1_555 1_555
H55_2 C27_2 1_555 1_555
C30_2 C27_2 1_555 1_555
H59_2 C30_2 1_555 1_555
H60_2 C30_2 1_555 1_555
O16 C36_2 1_555 1_555
O10_2 Mg1_5 1_555 1_555
C33_2 O10_2 1_555 1_555
N9_2 C33_2 1_555 1_555
H65_2 N9_2 1_555 1_555
C34_2 C33_2 1_555 1_555
H67_2 C34_2 1_555 1_555
H68_2 C34_2 1_555 1_555
N10_2 H69_2 1_555 1_555
C35_3 N10_2 1_555 1_555
C36_2 N10_2 1_555 1_555
C37_2 C36_2 1_555 1_555
H72_2 C37_2 1_555 1_555
H73_2 C37_2 1_555 1_555
H74_2 C37_2 1_555 1_555
C39_2 N9_2 1_555 1_555
H77_2 C39_2 1_555 1_555
H79_2 C40_2 1_555 1_555
H80_2 C40_2 1_555 1_555
Mg6 O5_2 1_555 1_555
O17_2 Mg5_2 1_555 1_555
C23_2 C24_2 1_555 1_555
C39_2 C40_2 1_555 1_555
Mg1_6 O2_2 1_555 1_555
Mg5_4 O1_2 1_555 1_555
O1_2 C4_2 1_555 1_555
O2_2 C1_2 1_555 1_555
C1_2 N1_2 1_555 1_555
N1_2 H1_2 1_555 1_555
C2_2 C1_2 1_555 1_555
H2_2 C2_2 1_555 1_555
H3_2 C2_2 1_555 1_555
H4_2 C2_2 1_555 1_555
N2_2 H5_2 1_555 1_555
C3_2 N2_2 1_555 1_555
C4_2 N2_2 1_555 1_555
C5_2 C4_2 1_555 1_555
H8_2 C5_2 1_555 1_555
H9_2 C5_2 1_555 1_555
H10_2 C5_2 1_555 1_555
C7_2 N1_2 1_555 1_555
H13_2 C7_2 1_555 1_555
H15_2 C8_2 1_555 1_555
H16_2 C8_2 1_555 1_555
H70_2 C35_4 1_555 1_555
H71_2 C35_4 1_555 1_555
C38_2 C35_4 1_555 1_555
H75_2 C38_2 1_555 1_555
H76_2 C38_2 1_555 1_555
C7_2 C8_2 1_555 1_555
O15_2 Mg5_5 1_555 1_555
H22_2 C11_3 1_555 1_555
H23_2 C11_3 1_555 1_555
C14_2 C11_3 1_555 1_555
H27_2 C14_2 1_555 1_555
H28_2 C14_2 1_555 1_555
O15_2 C28_2 1_555 1_555
O8_2 Mg1_7 1_555 1_555
C25_2 O8_2 1_555 1_555
N7_2 C25_2 1_555 1_555
H49_2 N7_2 1_555 1_555
C26_2 C25_2 1_555 1_555
H50_2 C26_2 1_555 1_555
H51_2 C26_2 1_555 1_555
H52_2 C26_2 1_555 1_555
N8_2 H53_2 1_555 1_555
C27_3 N8_2 1_555 1_555
C28_2 N8_2 1_555 1_555
C29_2 C28_2 1_555 1_555
H56_2 C29_2 1_555 1_555
H57_2 C29_2 1_555 1_555
H58_2 C29_2 1_555 1_555
C31_2 N7_2 1_555 1_555
H61_2 C31_2 1_555 1_555
H63_2 C32_2 1_555 1_555
H64_2 C32_2 1_555 1_555
C31_2 C32_2 1_555 1_555
O14_2 Mg5_7 1_555 1_555
H6_2 C3_3 1_555 1_555
H7_2 C3_3 1_555 1_555
C6_2 C3_3 1_555 1_555
H11_2 C6_2 1_555 1_555
H12_2 C6_2 1_555 1_555
O13 C12_2 1_555 1_555
O4_2 Mg1_8 1_555 1_555
C9_2 O4_2 1_555 1_555
N3_2 C9_2 1_555 1_555
H17_2 N3_2 1_555 1_555
C10_2 C9_2 1_555 1_555
H19_2 C10_2 1_555 1_555
H20_2 C10_2 1_555 1_555
N4_2 H21_2 1_555 1_555
C11_4 N4_2 1_555 1_555
C12_2 N4_2 1_555 1_555
C13_2 C12_2 1_555 1_555
H24_2 C13_2 1_555 1_555
H25_2 C13_2 1_555 1_555
H26_2 C13_2 1_555 1_555
C15_2 N3_2 1_555 1_555
H29_2 C15_2 1_555 1_555
H31_2 C16_2 1_555 1_555
H32_2 C16_2 1_555 1_555
O11_2 C44_2 1_555 1_555
O12_2 Mg1_8 1_555 1_555
C41_2 O12_2 1_555 1_555
N11_2 C41_2 1_555 1_555
H81_2 N11_2 1_555 1_555
C42_2 C41_2 1_555 1_555
H83_2 C42_2 1_555 1_555
H84_2 C42_2 1_555 1_555
N12_2 H85_2 1_555 1_555
C43_3 N12_2 1_555 1_555
H86_2 C43_3 1_555 1_555
H87_2 C43_3 1_555 1_555
C44_2 N12_2 1_555 1_555
C45_2 C44_2 1_555 1_555
H88_2 C45_2 1_555 1_555
H89_2 C45_2 1_555 1_555
H90_2 C45_2 1_555 1_555
C46_2 C43_3 1_555 1_555
H91_2 C46_2 1_555 1_555
H92_2 C46_2 1_555 1_555
C47_2 N11_2 1_555 1_555
H93_2 C47_2 1_555 1_555
H94_2 C47_2 1_555 1_555
C48_2 C46_2 1_555 1_555
H95_2 C48_2 1_555 1_555
H96_2 C48_2 1_555 1_555
Mg6_2 O11_2 1_555 1_555
C15_2 C16_2 1_555 1_555
C47_2 C48_2 1_555 1_555
Mg1_9 O2_3 1_555 1_555
Mg7 O1_3 1_555 1_555
O1_3 C4_3 1_555 1_555
O2_3 C1_3 1_555 1_555
C1_3 N1_3 1_555 1_555
N1_3 H1_3 1_555 1_555
C2_3 C1_3 1_555 1_555
H2_3 C2_3 1_555 1_555
H3_3 C2_3 1_555 1_555
H4_3 C2_3 1_555 1_555
N2_3 H5_3 1_555 1_555
C3_4 N2_3 1_555 1_555
H6_3 C3_4 1_555 1_555
H7_3 C3_4 1_555 1_555
C4_3 N2_3 1_555 1_555
C5_3 C4_3 1_555 1_555
H8_3 C5_3 1_555 1_555
H9_3 C5_3 1_555 1_555
H10_3 C5_3 1_555 1_555
C6_3 C3_4 1_555 1_555
H11_3 C6_3 1_555 1_555
H12_3 C6_3 1_555 1_555
C7_3 N1_3 1_555 1_555
H13_3 C7_3 1_555 1_555
H14_3 C7_3 1_555 1_555
C8_3 C6_3 1_555 1_555
H15_3 C8_3 1_555 1_555
H16_3 C8_3 1_555 1_555
O3_2 C12_3 1_555 1_555
O4_3 Mg1_9 1_555 1_555
C9_3 O4_3 1_555 1_555
N3_3 C9_3 1_555 1_555
H17_3 N3_3 1_555 1_555
C10_3 C9_3 1_555 1_555
H18_3 C10_3 1_555 1_555
H19_3 C10_3 1_555 1_555
H20_3 C10_3 1_555 1_555
N4_3 H21_3 1_555 1_555
C11_5 N4_3 1_555 1_555
H22_3 C11_5 1_555 1_555
H23_3 C11_5 1_555 1_555
C12_3 N4_3 1_555 1_555
C13_3 C12_3 1_555 1_555
H24_3 C13_3 1_555 1_555
H25_3 C13_3 1_555 1_555
H26_3 C13_3 1_555 1_555
C14_3 C11_5 1_555 1_555
H27_3 C14_3 1_555 1_555
H28_3 C14_3 1_555 1_555
C15_3 N3_3 1_555 1_555
H29_3 C15_3 1_555 1_555
H30_3 C15_3 1_555 1_555
C16_3 C14_3 1_555 1_555
H31_3 C16_3 1_555 1_555
H32_3 C16_3 1_555 1_555
O14 C20_3 1_555 1_555
O6_3 Mg1_9 1_555 1_555
C17_3 O6_3 1_555 1_555
N5_3 C17_3 1_555 1_555
H33_3 N5_3 1_555 1_555
C18_3 C17_3 1_555 1_555
H34_3 C18_3 1_555 1_555
H35_3 C18_3 1_555 1_555
H36_3 C18_3 1_555 1_555
N6_3 H37_3 1_555 1_555
C19_4 N6_3 1_555 1_555
H38_3 C19_4 1_555 1_555
H39_3 C19_4 1_555 1_555
C20_3 N6_3 1_555 1_555
C21_3 C20_3 1_555 1_555
H40_3 C21_3 1_555 1_555
H41_3 C21_3 1_555 1_555
H42_3 C21_3 1_555 1_555
C22_3 C19_4 1_555 1_555
H43_3 C22_3 1_555 1_555
H44_3 C22_3 1_555 1_555
C23_3 N5_3 1_555 1_555
H45_3 C23_3 1_555 1_555
H46_3 C23_3 1_555 1_555
C24_3 C22_3 1_555 1_555
H47_3 C24_3 1_555 1_555
H48_3 C24_3 1_555 1_555
O7 C28_3 1_555 1_555
O8_3 Mg1_9 1_555 1_555
C25_3 O8_3 1_555 1_555
N7_3 C25_3 1_555 1_555
H49_3 N7_3 1_555 1_555
C26_3 C25_3 1_555 1_555
H50_3 C26_3 1_555 1_555
H51_3 C26_3 1_555 1_555
H52_3 C26_3 1_555 1_555
N8_3 H53_3 1_555 1_555
C27_4 N8_3 1_555 1_555
H54_3 C27_4 1_555 1_555
H55_3 C27_4 1_555 1_555
C28_3 N8_3 1_555 1_555
C29_3 C28_3 1_555 1_555
H56_3 C29_3 1_555 1_555
H57_3 C29_3 1_555 1_555
H58_3 C29_3 1_555 1_555
C30_3 C27_4 1_555 1_555
H59_3 C30_3 1_555 1_555
H60_3 C30_3 1_555 1_555
C31_3 N7_3 1_555 1_555
H61_3 C31_3 1_555 1_555
H62_3 C31_3 1_555 1_555
C32_3 C30_3 1_555 1_555
H63_3 C32_3 1_555 1_555
H64_3 C32_3 1_555 1_555
O9_2 C36_3 1_555 1_555
O10_3 Mg1_9 1_555 1_555
C33_3 O10_3 1_555 1_555
N9_3 C33_3 1_555 1_555
H65_3 N9_3 1_555 1_555
C34_3 C33_3 1_555 1_555
H66_3 C34_3 1_555 1_555
H67_3 C34_3 1_555 1_555
H68_3 C34_3 1_555 1_555
N10_3 H69_3 1_555 1_555
C35_5 N10_3 1_555 1_555
H70_3 C35_5 1_555 1_555
H71_3 C35_5 1_555 1_555
C36_3 N10_3 1_555 1_555
C37_3 C36_3 1_555 1_555
H72_3 C37_3 1_555 1_555
H73_3 C37_3 1_555 1_555
H74_3 C37_3 1_555 1_555
C38_3 C35_5 1_555 1_555
H75_3 C38_3 1_555 1_555
H76_3 C38_3 1_555 1_555
C39_3 N9_3 1_555 1_555
H77_3 C39_3 1_555 1_555
H78_3 C39_3 1_555 1_555
C40_3 C38_3 1_555 1_555
H79_3 C40_3 1_555 1_555
H80_3 C40_3 1_555 1_555
O17 C44_3 1_555 1_555
O12_3 Mg1_9 1_555 1_555
C41_3 O12_3 1_555 1_555
N11_3 C41_3 1_555 1_555
H81_3 N11_3 1_555 1_555
C42_3 C41_3 1_555 1_555
H82_3 C42_3 1_555 1_555
H83_3 C42_3 1_555 1_555
H84_3 C42_3 1_555 1_555
N12_3 H85_3 1_555 1_555
C43_4 N12_3 1_555 1_555
H86_3 C43_4 1_555 1_555
H87_3 C43_4 1_555 1_555
C44_3 N12_3 1_555 1_555
C45_3 C44_3 1_555 1_555
H88_3 C45_3 1_555 1_555
H89_3 C45_3 1_555 1_555
H90_3 C45_3 1_555 1_555
C46_3 C43_4 1_555 1_555
H91_3 C46_3 1_555 1_555
H92_3 C46_3 1_555 1_555
C47_3 N11_3 1_555 1_555
H93_3 C47_3 1_555 1_555
H94_3 C47_3 1_555 1_555
C48_3 C46_3 1_555 1_555
H95_3 C48_3 1_555 1_555
H96_3 C48_3 1_555 1_555
Mg7_2 O7 1_555 1_555
Mg6_2 O9_2 1_555 1_555
Mg6 O3_2 1_555 1_555
O13_2 Mg7 1_555 1_555
C7_3 C8_3 1_555 1_555
C15_3 C16_3 1_555 1_555
C23_3 C24_3 1_555 1_555
C31_3 C32_3 1_555 1_555
C39_3 C40_3 1_555 1_555
C47_3 C48_3 1_555 1_555
O16_2 Mg7_2 1_555 1_555
O13_2 C12_4 1_555 1_555
O4_4 Mg1_10 1_555 1_555
C9_4 O4_4 1_555 1_555
N3_4 C9_4 1_555 1_555
H17_4 N3_4 1_555 1_555
C10_4 C9_4 1_555 1_555
H19_4 C10_4 1_555 1_555
H20_4 C10_4 1_555 1_555
N4_4 H21_4 1_555 1_555
C11_6 N4_4 1_555 1_555
H22_4 C11_6 1_555 1_555
H23_4 C11_6 1_555 1_555
C12_4 N4_4 1_555 1_555
C13_4 C12_4 1_555 1_555
H24_4 C13_4 1_555 1_555
H25_4 C13_4 1_555 1_555
H26_4 C13_4 1_555 1_555
C14_4 C11_6 1_555 1_555
H27_4 C14_4 1_555 1_555
H28_4 C14_4 1_555 1_555
C15_4 N3_4 1_555 1_555
H29_4 C15_4 1_555 1_555
H30_4 C15_4 1_555 1_555
C16_4 C14_4 1_555 1_555
H31_4 C16_4 1_555 1_555
H32_4 C16_4 1_555 1_555
O7_2 C28_4 1_555 1_555
O8_4 Mg1_10 1_555 1_555
C25_4 O8_4 1_555 1_555
N7_4 C25_4 1_555 1_555
H49_4 N7_4 1_555 1_555
C26_4 C25_4 1_555 1_555
H51_4 C26_4 1_555 1_555
H52_4 C26_4 1_555 1_555
N8_4 H53_4 1_555 1_555
C27_5 N8_4 1_555 1_555
C28_4 N8_4 1_555 1_555
C29_4 C28_4 1_555 1_555
H56_4 C29_4 1_555 1_555
H57_4 C29_4 1_555 1_555
H58_4 C29_4 1_555 1_555
C31_4 N7_4 1_555 1_555
H61_4 C31_4 1_555 1_555
H63_4 C32_4 1_555 1_555
H64_4 C32_4 1_555 1_555
H86_4 C43_5 1_555 1_555
H87_4 C43_5 1_555 1_555
C46_4 C43_5 1_555 1_555
H91_4 C46_4 1_555 1_555
H92_4 C46_4 1_555 1_555
Mg6 O7_2 1_555 1_555
C15_4 C16_4 1_555 1_555
C31_4 C32_4 1_555 1_555
H6_4 C3_5 1_555 1_555
H7_4 C3_5 1_555 1_555
C6_4 C3_5 1_555 1_555
H11_4 C6_4 1_555 1_555
H12_4 C6_4 1_555 1_555
O17_2 C44_4 1_555 1_555
O12_4 Mg1_11 1_555 1_555
C41_4 O12_4 1_555 1_555
N11_4 C41_4 1_555 1_555
H81_4 N11_4 1_555 1_555
C42_4 C41_4 1_555 1_555
H82_4 C42_4 1_555 1_555
H83_4 C42_4 1_555 1_555
H84_4 C42_4 1_555 1_555
N12_4 H85_4 1_555 1_555
C43_6 N12_4 1_555 1_555
C44_4 N12_4 1_555 1_555
C45_4 C44_4 1_555 1_555
H88_4 C45_4 1_555 1_555
H89_4 C45_4 1_555 1_555
H90_4 C45_4 1_555 1_555
C47_4 N11_4 1_555 1_555
H93_4 C47_4 1_555 1_555
H95_4 C48_4 1_555 1_555
H96_4 C48_4 1_555 1_555
C47_4 C48_4 1_555 1_555
O14_2 C20_4 1_555 1_555
O6_4 Mg1_12 1_555 1_555
C17_4 O6_4 1_555 1_555
N5_4 C17_4 1_555 1_555
H33_4 N5_4 1_555 1_555
C18_4 C17_4 1_555 1_555
H34_4 C18_4 1_555 1_555
H35_4 C18_4 1_555 1_555
H36_4 C18_4 1_555 1_555
N6_4 H37_4 1_555 1_555
C19_5 N6_4 1_555 1_555
C20_4 N6_4 1_555 1_555
C21_4 C20_4 1_555 1_555
H40_4 C21_4 1_555 1_555
H41_4 C21_4 1_555 1_555
H42_4 C21_4 1_555 1_555
C23_4 N5_4 1_555 1_555
H45_4 C23_4 1_555 1_555
H47_4 C24_4 1_555 1_555
H48_4 C24_4 1_555 1_555
H54_4 C27_6 1_555 1_555
H55_4 C27_6 1_555 1_555
C30_4 C27_6 1_555 1_555
H59_4 C30_4 1_555 1_555
H60_4 C30_4 1_555 1_555
C23_4 C24_4 1_555 1_555
Mg1_13 O2_4 1_555 1_555
Mg6_2 O1_4 1_555 1_555
O1_4 C4_4 1_555 1_555
O2_4 C1_4 1_555 1_555
C1_4 N1_4 1_555 1_555
N1_4 H1_4 1_555 1_555
C2_4 C1_4 1_555 1_555
H3_4 C2_4 1_555 1_555
H4_4 C2_4 1_555 1_555
N2_4 H5_4 1_555 1_555
C3_6 N2_4 1_555 1_555
C4_4 N2_4 1_555 1_555
C5_4 C4_4 1_555 1_555
H8_4 C5_4 1_555 1_555
H9_4 C5_4 1_555 1_555
H10_4 C5_4 1_555 1_555
C7_4 N1_4 1_555 1_555
H13_4 C7_4 1_555 1_555
H15_4 C8_4 1_555 1_555
H16_4 C8_4 1_555 1_555
H38_4 C19_6 1_555 1_555
H39_4 C19_6 1_555 1_555
C22_4 C19_6 1_555 1_555
H43_4 C22_4 1_555 1_555
H44_4 C22_4 1_555 1_555
O16_2 C36_4 1_555 1_555
O10_4 Mg1_13 1_555 1_555
C33_4 O10_4 1_555 1_555
N9_4 C33_4 1_555 1_555
H65_4 N9_4 1_555 1_555
C34_4 C33_4 1_555 1_555
H67_4 C34_4 1_555 1_555
H68_4 C34_4 1_555 1_555
N10_4 H69_4 1_555 1_555
C35_6 N10_4 1_555 1_555
H70_4 C35_6 1_555 1_555
H71_4 C35_6 1_555 1_555
C36_4 N10_4 1_555 1_555
C37_4 C36_4 1_555 1_555
H72_4 C37_4 1_555 1_555
H73_4 C37_4 1_555 1_555
H74_4 C37_4 1_555 1_555
C38_4 C35_6 1_555 1_555
H75_4 C38_4 1_555 1_555
H76_4 C38_4 1_555 1_555
C39_4 N9_4 1_555 1_555
H77_4 C39_4 1_555 1_555
H78_4 C39_4 1_555 1_555
C40_4 C38_4 1_555 1_555
H79_4 C40_4 1_555 1_555
H80_4 C40_4 1_555 1_555
C7_4 C8_4 1_555 1_555
C39_4 C40_4 1_555 1_555

#END
