
###############################################################################
#
# This file contains modified crystal structure data generated from the
# MOF subset of the Cambridge Structural Database (CSD) v543 
# hosted by the Cambridge Crystallographic Data Centre (CCDC).
#
# This work is licensed under the Creative Commons
# Attribution-NonCommercial-ShareAlike 4.0 International License.
# To view a copy of this license, visit
# http://creativecommons.org/licenses/by-nc-sa/4.0/
# or send a letter to
# Creative Commons, PO Box 1866, Mountain View, CA 94042, USA.
#
# CIF created using the CSD Python API on 29 September 2022
# The structure has been converted into the P1 space group
# The structure has a 3D framework
# The original CSD entry OMARAY is in the cubic crystal system
# The framework has been calculated to contain at least 10.0% void space
# The void calculation uses a probe of radius 1.32A, grid spacing 0.4
# The framework is charged, counterions have been retained in the structure
#
###############################################################################

data_OMARAY
_chemical_formula_moiety         '(C192 H384 Mn18 N48 O48 36+)n'
_symmetry_cell_setting           triclinic
_symmetry_space_group_name_H-M   'P 1'
_symmetry_Int_Tables_number      1
_space_group_name_Hall           'P 1'
loop_
_symmetry_equiv_pos_site_id
_symmetry_equiv_pos_as_xyz
1 x,y,z
_cell_length_a                   19.1651(9)
_cell_length_b                   19.1651(9)
_cell_length_c                   19.1651(9)
_cell_angle_alpha                90
_cell_angle_beta                 90
_cell_angle_gamma                90
_cell_volume                     7039.36
loop_
_atom_site_label
_atom_site_type_symbol
_atom_site_fract_x
_atom_site_fract_y
_atom_site_fract_z
Mn1 Mn 0.0000 0.0000 0.0000
Mn2 Mn 0.0000 0.5000 0.0000
H54 H 0.0769 0.0021 0.1666
H56 H 0.1481 0.0378 0.1416
H70 H 0.1666 0.0769 0.0021
H72 H 0.1416 0.1481 0.0378
H86 H 0.0021 0.1666 0.0769
H88 H 0.0378 0.1416 0.1481
Mn5 Mn 0.0000 0.0000 0.5000
Mn7 Mn 0.5000 0.0000 0.0000
O13 O 0.02946(14) 0.40300(13) 0.04816(14)
O15 O 0.09700(13) 0.54816(14) 0.02946(14)
Mn1_2 Mn 0.0000 0.0000 1.0000
Mn2_2 Mn -0.0000 0.5000 1.0000
H43 H 0.3591 0.0346 0.8377
C24 C 0.2739(3) 0.0055(3) 0.8937(3)
H47 H 0.2509 0.0512 0.8863
H48 H 0.2998 0.0085 0.9383
O9 O 0.0351(2) 0.0987(2) 0.9596(2)
O10 O 0.02946(14) 0.09700(13) 0.54816(14)
C33 C 0.0779(2) 0.1288(2) 0.5752(2)
C34 C 0.0921(2) 0.1277(2) 0.9462(2)
N9 N 0.10215(19) 0.15525(18) 0.88525(17)
H65 H 0.1442 0.1719 0.8772
C35 C 0.0513(3) 0.1619(3) 0.8279(3)
H66 H 0.0044 0.1704 0.8478
H67 H 0.0637 0.2028 0.7989
C36 C 0.0485(2) 0.0981(2) 0.7821(2)
H68 H 0.0373 0.0567 0.8109
H69 H 0.0948 0.0904 0.7604
C37 C 0.1535(3) 0.1255(3) 0.9935(3)
H71 H 0.1926 0.1502 0.9717
N10 N 0.0688(2) 0.1631(2) 0.63432(19)
H73 H 0.1042 0.1874 0.6506
C38 C 0.0049(4) 0.1636(4) 0.6742(4)
H74 H 0.0021 0.2086 0.6993
C39 C 0.1487(3) 0.1250(4) 0.5440(4)
H76 H 0.1507 0.1551 0.5027
H77 H 0.1833 0.1407 0.5782
H78 H 0.1588 0.0768 0.5304
Mn7_2 Mn 0.5000 0.0000 1.0000
O17 O 0.04816(14) 0.47054(14) 0.90300(13)
Mn1_3 Mn 0.0000 1.0000 0.0000
H27 H 0.0346 0.8377 0.3591
C16 C 0.0055(3) 0.8937(3) 0.2739(3)
H31 H 0.0512 0.8863 0.2509
H32 H 0.0085 0.9383 0.2998
O7 O 0.0987(2) 0.9596(2) 0.0351(2)
C25 C 0.1288(2) 0.5752(2) 0.0779(2)
C26 C 0.1277(2) 0.9462(2) 0.0921(2)
N7 N 0.15525(18) 0.88525(17) 0.10215(19)
H49 H 0.1719 0.8772 0.1442
C27 C 0.1619(3) 0.8279(3) 0.0513(3)
H50 H 0.1704 0.8478 0.0044
H51 H 0.2028 0.7989 0.0637
C28 C 0.0981(2) 0.7821(2) 0.0485(2)
H52 H 0.0567 0.8109 0.0373
H53 H 0.0904 0.7604 0.0948
C29 C 0.1255(3) 0.9935(3) 0.1535(3)
H55 H 0.1502 0.9717 0.1926
N8 N 0.1631(2) 0.63432(19) 0.0688(2)
H57 H 0.1874 0.6506 0.1042
C30 C 0.1636(4) 0.6742(4) 0.0049(4)
H58 H 0.2086 0.6993 0.0021
C31 C 0.1250(4) 0.5440(4) 0.1487(3)
H60 H 0.1551 0.5027 0.1507
H61 H 0.1407 0.5782 0.1833
H62 H 0.0768 0.5304 0.1588
Mn5_2 Mn 0.0000 1.0000 0.5000
Mn7_3 Mn 0.5000 1.0000 0.0000
Mn1_4 Mn 0.0000 1.0000 1.0000
O5 O 0.0404(2) 0.9649(2) 0.9013(2)
O6 O 0.45184(14) 0.97054(14) 0.90300(13)
C17 C 0.4248(2) 0.9221(2) 0.8712(2)
C18 C 0.0538(2) 0.9079(2) 0.8723(2)
N5 N 0.11475(17) 0.89785(19) 0.84475(18)
H33 H 0.1228 0.8558 0.8281
C19 C 0.1721(3) 0.9487(3) 0.8381(3)
H34 H 0.1522 0.9956 0.8296
H35 H 0.2011 0.9363 0.7972
C20 C 0.2179(2) 0.9515(2) 0.9019(2)
H36 H 0.1891 0.9627 0.9433
H37 H 0.2396 0.9052 0.9096
C21 C 0.0065(3) 0.8465(3) 0.8745(3)
H39 H 0.0283 0.8074 0.8498
N6 N 0.36568(19) 0.9312(2) 0.8369(2)
H41 H 0.3494 0.8958 0.8126
C22 C 0.3258(4) 0.9951(4) 0.8364(4)
H42 H 0.3007 0.9979 0.7914
C23 C 0.4560(4) 0.8513(3) 0.8750(4)
H44 H 0.4973 0.8493 0.8449
H45 H 0.4218 0.8167 0.8593
H46 H 0.4696 0.8412 0.9232
H59 H 0.1623 0.6409 0.9654
C32 C 0.1063(3) 0.7261(3) 0.9945(3)
H63 H 0.1137 0.7491 0.9488
H64 H 0.0617 0.7002 0.9915
Mn7_4 Mn 0.5000 1.0000 1.0000
Mn1_5 Mn 1.0000 0.0000 0.0000
Mn2_3 Mn 1.0000 0.5000 0.0000
H11 H 0.8377 0.3591 0.0346
C8 C 0.8937(3) 0.2739(3) 0.0055(3)
H15 H 0.8863 0.2509 0.0512
H16 H 0.9383 0.2998 0.0085
O11 O 0.9596(2) 0.0351(2) 0.0987(2)
O12 O 0.54816(14) 0.02946(14) 0.09700(13)
C41 C 0.5752(2) 0.0779(2) 0.1288(2)
C42 C 0.9462(2) 0.0921(2) 0.1277(2)
N11 N 0.88525(17) 0.10215(19) 0.15525(18)
H81 H 0.8772 0.1442 0.1719
C43 C 0.8279(3) 0.0513(3) 0.1619(3)
H82 H 0.8478 0.0044 0.1704
H83 H 0.7989 0.0637 0.2028
C44 C 0.7821(2) 0.0485(2) 0.0981(2)
H84 H 0.8109 0.0373 0.0567
H85 H 0.7604 0.0948 0.0904
C45 C 0.9935(3) 0.1535(3) 0.1255(3)
H87 H 0.9717 0.1926 0.1502
N12 N 0.63432(19) 0.0688(2) 0.1631(2)
H89 H 0.6506 0.1042 0.1874
C46 C 0.6742(4) 0.0049(4) 0.1636(4)
H90 H 0.6993 0.0021 0.2086
C47 C 0.5440(4) 0.1487(3) 0.1250(4)
H92 H 0.5027 0.1507 0.1551
H93 H 0.5782 0.1833 0.1407
H94 H 0.5304 0.1588 0.0768
Mn5_3 Mn 1.0000 0.0000 0.5000
O14 O 0.95184(14) 0.52946(14) 0.09700(13)
Mn1_6 Mn 1.0000 0.0000 1.0000
Mn2_4 Mn 1.0000 0.5000 1.0000
O1 O 0.9013(2) 0.0404(2) 0.9649(2)
O2 O 0.90300(13) 0.45184(14) 0.97054(14)
C1 C 0.8712(2) 0.4248(2) 0.9221(2)
C2 C 0.8723(2) 0.0538(2) 0.9079(2)
N1 N 0.84475(18) 0.11475(17) 0.89785(19)
H1 H 0.8281 0.1228 0.8558
C3 C 0.8381(3) 0.1721(3) 0.9487(3)
H2 H 0.8296 0.1522 0.9956
H3 H 0.7972 0.2011 0.9363
C4 C 0.9019(2) 0.2179(2) 0.9515(2)
H4 H 0.9433 0.1891 0.9627
H5 H 0.9096 0.2396 0.9052
C5 C 0.8745(3) 0.0065(3) 0.8465(3)
H7 H 0.8498 0.0283 0.8074
N2 N 0.8369(2) 0.36568(19) 0.9312(2)
H9 H 0.8126 0.3494 0.8958
C6 C 0.8364(4) 0.3258(4) 0.9951(4)
H10 H 0.7914 0.3007 0.9979
C7 C 0.8750(4) 0.4560(4) 0.8513(3)
H12 H 0.8449 0.4973 0.8493
H13 H 0.8593 0.4218 0.8167
H14 H 0.9232 0.4696 0.8412
H75 H 0.9654 0.1623 0.6409
C40 C 0.9945(3) 0.1063(3) 0.7261(3)
H79 H 0.9488 0.1137 0.7491
H80 H 0.9915 0.0617 0.7002
O16 O 0.97054(14) 0.59700(13) 0.95184(14)
Mn1_7 Mn 1.0000 1.0000 0.0000
O3 O 0.9649(2) 0.9013(2) 0.0404(2)
O4 O 0.97054(14) 0.90300(13) 0.45184(14)
C9 C 0.9221(2) 0.8712(2) 0.4248(2)
C10 C 0.9079(2) 0.8723(2) 0.0538(2)
N3 N 0.89785(19) 0.84475(18) 0.11475(17)
H17 H 0.8558 0.8281 0.1228
C11 C 0.9487(3) 0.8381(3) 0.1721(3)
H18 H 0.9956 0.8296 0.1522
H19 H 0.9363 0.7972 0.2011
C12 C 0.9515(2) 0.9019(2) 0.2179(2)
H20 H 0.9627 0.9433 0.1891
H21 H 0.9052 0.9096 0.2396
C13 C 0.8465(3) 0.8745(3) 0.0065(3)
H23 H 0.8074 0.8498 0.0283
N4 N 0.9312(2) 0.8369(2) 0.36568(19)
H25 H 0.8958 0.8126 0.3494
C14 C 0.9951(4) 0.8364(4) 0.3258(4)
H26 H 0.9979 0.7914 0.3007
C15 C 0.8513(3) 0.8750(4) 0.4560(4)
H28 H 0.8493 0.8449 0.4973
H29 H 0.8167 0.8593 0.4218
H30 H 0.8412 0.9232 0.4696
H91 H 0.6409 0.9654 0.1623
C48 C 0.7261(3) 0.9945(3) 0.1063(3)
H95 H 0.7491 0.9488 0.1137
H96 H 0.7002 0.9915 0.0617
Mn5_4 Mn 1.0000 1.0000 0.5000
Mn1_8 Mn 1.0000 1.0000 1.0000
H6 H 0.9231 0.9979 0.8334
H8 H 0.8519 0.9622 0.8584
H22 H 0.8334 0.9231 0.9979
H24 H 0.8584 0.8519 0.9622
H38 H 0.9979 0.8334 0.9231
H40 H 0.9622 0.8584 0.8519
Mn1_9 Mn 0.5000 0.0000 0.5000
H6_2 H 0.5769 0.0021 0.3334
H8_2 H 0.6481 0.0378 0.3584
O3_2 O 0.5351(2) 0.0987(2) 0.5404(2)
O4_2 O 0.52946(14) 0.09700(13) 0.95184(14)
C9_2 C 0.5779(2) 0.1288(2) 0.9248(2)
C10_2 C 0.5921(2) 0.1277(2) 0.5538(2)
N3_2 N 0.60215(19) 0.15525(18) 0.61475(17)
H17_2 H 0.6442 0.1719 0.6228
C11_2 C 0.5513(3) 0.1619(3) 0.6721(3)
H18_2 H 0.5044 0.1704 0.6522
H19_2 H 0.5637 0.2028 0.7011
C12_2 C 0.5485(2) 0.0981(2) 0.7179(2)
H20_2 H 0.5373 0.0567 0.6891
H21_2 H 0.5948 0.0904 0.7396
C13_2 C 0.6535(3) 0.1255(3) 0.5065(3)
H22_2 H 0.6666 0.0769 0.4979
H23_2 H 0.6926 0.1502 0.5283
H24_2 H 0.6416 0.1481 0.4622
N4_2 N 0.5688(2) 0.1631(2) 0.86568(19)
H25_2 H 0.6042 0.1874 0.8494
C14_2 C 0.5049(4) 0.1636(4) 0.8258(4)
H26_2 H 0.5021 0.2086 0.8007
H27_2 H 0.4654 0.1623 0.8591
C15_2 C 0.6487(3) 0.1250(4) 0.9560(4)
H28_2 H 0.6507 0.1551 0.9973
H29_2 H 0.6833 0.1407 0.9218
H30_2 H 0.6588 0.0768 0.9696
C16_2 C 0.4945(3) 0.1063(3) 0.7739(3)
H31_2 H 0.4488 0.1137 0.7509
H32_2 H 0.4915 0.0617 0.7998
O5_2 O 0.4596(2) 0.0351(2) 0.4013(2)
O6_2 O 0.04816(14) 0.02946(14) 0.40300(13)
C17_2 C 0.0752(2) 0.0779(2) 0.3712(2)
C18_2 C 0.4462(2) 0.0921(2) 0.3723(2)
N5_2 N 0.38525(17) 0.10215(19) 0.34475(18)
H33_2 H 0.3772 0.1442 0.3281
C19_2 C 0.3279(3) 0.0513(3) 0.3381(3)
H34_2 H 0.3478 0.0044 0.3296
H35_2 H 0.2989 0.0637 0.2972
C20_2 C 0.2821(2) 0.0485(2) 0.4019(2)
H36_2 H 0.3109 0.0373 0.4433
H37_2 H 0.2604 0.0948 0.4096
C21_2 C 0.4935(3) 0.1535(3) 0.3745(3)
H38_2 H 0.5021 0.1666 0.4231
H39_2 H 0.4717 0.1926 0.3498
H40_2 H 0.5378 0.1416 0.3519
N6_2 N 0.13432(19) 0.0688(2) 0.3369(2)
H41_2 H 0.1506 0.1042 0.3126
C22_2 C 0.1742(4) 0.0049(4) 0.3364(4)
H42_2 H 0.1993 0.0021 0.2914
C23_2 C 0.0440(4) 0.1487(3) 0.3750(4)
H44_2 H 0.0027 0.1507 0.3449
H45_2 H 0.0782 0.1833 0.3593
H46_2 H 0.0304 0.1588 0.4232
O7_2 O 0.4013(2) 0.0404(2) 0.5351(2)
O8 O 0.40300(13) 0.45184(14) 0.52946(14)
C25_2 C 0.3712(2) 0.4248(2) 0.5779(2)
C26_2 C 0.3723(2) 0.0538(2) 0.5921(2)
N7_2 N 0.34475(18) 0.11475(17) 0.60215(19)
H49_2 H 0.3281 0.1228 0.6442
C27_2 C 0.3381(3) 0.1721(3) 0.5513(3)
H50_2 H 0.3296 0.1522 0.5044
H51_2 H 0.2972 0.2011 0.5637
C28_2 C 0.4019(2) 0.2179(2) 0.5485(2)
H52_2 H 0.4433 0.1891 0.5373
H53_2 H 0.4096 0.2396 0.5948
C29_2 C 0.3745(3) 0.0065(3) 0.6535(3)
H55_2 H 0.3498 0.0283 0.6926
N8_2 N 0.3369(2) 0.36568(19) 0.5688(2)
H57_2 H 0.3126 0.3494 0.6042
C30_2 C 0.3364(4) 0.3258(4) 0.5049(4)
H58_2 H 0.2914 0.3007 0.5021
H59_2 H 0.3377 0.3591 0.4654
C31_2 C 0.3750(4) 0.4560(4) 0.6487(3)
H60_2 H 0.3449 0.4973 0.6507
H61_2 H 0.3593 0.4218 0.6833
H62_2 H 0.4232 0.4696 0.6588
C32_2 C 0.3937(3) 0.2739(3) 0.4945(3)
H63_2 H 0.3863 0.2509 0.4488
H64_2 H 0.4383 0.2998 0.4915
H91_2 H 0.8591 0.0346 0.6623
C48_2 C 0.7739(3) 0.0055(3) 0.6063(3)
H95_2 H 0.7509 0.0512 0.6137
H96_2 H 0.7998 0.0085 0.5617
Mn3 Mn 0.5000 0.5000 0.5000
Mn1_10 Mn 0.5000 1.0000 0.5000
O1_2 O 0.5987(2) 0.9596(2) 0.4649(2)
O2_2 O 0.59700(13) 0.54816(14) 0.47054(14)
C1_2 C 0.6288(2) 0.5752(2) 0.4221(2)
C2_2 C 0.6277(2) 0.9462(2) 0.4079(2)
N1_2 N 0.65525(18) 0.88525(17) 0.39785(19)
H1_2 H 0.6719 0.8772 0.3558
C3_2 C 0.6619(3) 0.8279(3) 0.4487(3)
H2_2 H 0.6704 0.8478 0.4956
H3_2 H 0.7028 0.7989 0.4363
C4_2 C 0.5981(2) 0.7821(2) 0.4515(2)
H4_2 H 0.5567 0.8109 0.4627
H5_2 H 0.5904 0.7604 0.4052
C5_2 C 0.6255(3) 0.9935(3) 0.3465(3)
H7_2 H 0.6502 0.9717 0.3074
N2_2 N 0.6631(2) 0.63432(19) 0.4312(2)
H9_2 H 0.6874 0.6506 0.3958
C6_2 C 0.6636(4) 0.6742(4) 0.4951(4)
H10_2 H 0.7086 0.6993 0.4979
H11_2 H 0.6623 0.6409 0.5346
C7_2 C 0.6250(4) 0.5440(4) 0.3513(3)
H12_2 H 0.6551 0.5027 0.3493
H13_2 H 0.6407 0.5782 0.3167
H14_2 H 0.5768 0.5304 0.3412
C8_2 C 0.6063(3) 0.7261(3) 0.5055(3)
H15_2 H 0.6137 0.7491 0.5512
H16_2 H 0.5617 0.7002 0.5085
H43_2 H 0.1409 0.9654 0.3377
C24_2 C 0.2261(3) 0.9945(3) 0.3937(3)
H47_2 H 0.2491 0.9488 0.3863
H48_2 H 0.2002 0.9915 0.4383
H54_2 H 0.4231 0.9979 0.6666
H56_2 H 0.3519 0.9622 0.6416
O9_2 O 0.4649(2) 0.9013(2) 0.4596(2)
O10_2 O 0.47054(14) 0.90300(13) 0.04816(14)
C33_2 C 0.4221(2) 0.8712(2) 0.0752(2)
C34_2 C 0.4079(2) 0.8723(2) 0.4462(2)
N9_2 N 0.39785(19) 0.84475(18) 0.38525(17)
H65_2 H 0.3558 0.8281 0.3772
C35_2 C 0.4487(3) 0.8381(3) 0.3279(3)
H66_2 H 0.4956 0.8296 0.3478
H67_2 H 0.4363 0.7972 0.2989
C36_2 C 0.4515(2) 0.9019(2) 0.2821(2)
H68_2 H 0.4627 0.9433 0.3109
H69_2 H 0.4052 0.9096 0.2604
C37_2 C 0.3465(3) 0.8745(3) 0.4935(3)
H70_2 H 0.3334 0.9231 0.5021
H71_2 H 0.3074 0.8498 0.4717
H72_2 H 0.3584 0.8519 0.5378
N10_2 N 0.4312(2) 0.8369(2) 0.13432(19)
H73_2 H 0.3958 0.8126 0.1506
C38_2 C 0.4951(4) 0.8364(4) 0.1742(4)
H74_2 H 0.4979 0.7914 0.1993
H75_2 H 0.5346 0.8377 0.1409
C39_2 C 0.3513(3) 0.8750(4) 0.0440(4)
H76_2 H 0.3493 0.8449 0.0027
H77_2 H 0.3167 0.8593 0.0782
H78_2 H 0.3412 0.9232 0.0304
C40_2 C 0.5055(3) 0.8937(3) 0.2261(3)
H79_2 H 0.5512 0.8863 0.2491
H80_2 H 0.5085 0.9383 0.2002
O11_2 O 0.5404(2) 0.9649(2) 0.5987(2)
O12_2 O 0.95184(14) 0.97054(14) 0.59700(13)
C41_2 C 0.9248(2) 0.9221(2) 0.6288(2)
C42_2 C 0.5538(2) 0.9079(2) 0.6277(2)
N11_2 N 0.61475(17) 0.89785(19) 0.65525(18)
H81_2 H 0.6228 0.8558 0.6719
C43_2 C 0.6721(3) 0.9487(3) 0.6619(3)
H82_2 H 0.6522 0.9956 0.6704
H83_2 H 0.7011 0.9363 0.7028
C44_2 C 0.7179(2) 0.9515(2) 0.5981(2)
H84_2 H 0.6891 0.9627 0.5567
H85_2 H 0.7396 0.9052 0.5904
C45_2 C 0.5065(3) 0.8465(3) 0.6255(3)
H86_2 H 0.4979 0.8334 0.5769
H87_2 H 0.5283 0.8074 0.6502
H88_2 H 0.4622 0.8584 0.6481
N12_2 N 0.86568(19) 0.9312(2) 0.6631(2)
H89_2 H 0.8494 0.8958 0.6874
C46_2 C 0.8258(4) 0.9951(4) 0.6636(4)
H90_2 H 0.8007 0.9979 0.7086
C47_2 C 0.9560(4) 0.8513(3) 0.6250(4)
H92_2 H 0.9973 0.8493 0.6551
H93_2 H 0.9218 0.8167 0.6407
H94_2 H 0.9696 0.8412 0.5768
O13_2 O 0.47054(14) 0.59700(13) 0.54816(14)
O14_2 O 0.54816(14) 0.47054(14) 0.59700(13)
O16_2 O 0.52946(14) 0.40300(13) 0.45184(14)
O17_2 O 0.45184(14) 0.52946(14) 0.40300(13)
Mn1_11 Mn 0.0000 0.5000 0.5000
O1_3 O 0.0987(2) 0.5404(2) 0.5351(2)
O2_3 O 0.09700(13) 0.95184(14) 0.52946(14)
C1_3 C 0.1288(2) 0.9248(2) 0.5779(2)
C2_3 C 0.1277(2) 0.5538(2) 0.5921(2)
N1_3 N 0.15525(18) 0.61475(17) 0.60215(19)
H1_3 H 0.1719 0.6228 0.6442
C3_3 C 0.1619(3) 0.6721(3) 0.5513(3)
H2_3 H 0.1704 0.6522 0.5044
H3_3 H 0.2028 0.7011 0.5637
C4_3 C 0.0981(2) 0.7179(2) 0.5485(2)
H4_3 H 0.0567 0.6891 0.5373
H5_3 H 0.0904 0.7396 0.5948
C5_3 C 0.1255(3) 0.5065(3) 0.6535(3)
H6_3 H 0.0769 0.4979 0.6666
H7_3 H 0.1502 0.5283 0.6926
H8_3 H 0.1481 0.4622 0.6416
N2_3 N 0.1631(2) 0.86568(19) 0.5688(2)
H9_3 H 0.1874 0.8494 0.6042
C6_3 C 0.1636(4) 0.8258(4) 0.5049(4)
H10_3 H 0.2086 0.8007 0.5021
H11_3 H 0.1623 0.8591 0.4654
C7_3 C 0.1250(4) 0.9560(4) 0.6487(3)
H12_3 H 0.1551 0.9973 0.6507
H13_3 H 0.1407 0.9218 0.6833
H14_3 H 0.0768 0.9696 0.6588
C8_3 C 0.1063(3) 0.7739(3) 0.4945(3)
H15_3 H 0.1137 0.7509 0.4488
H16_3 H 0.0617 0.7998 0.4915
O3_3 O 0.0351(2) 0.4013(2) 0.4596(2)
C9_3 C 0.0779(2) 0.3712(2) 0.0752(2)
C10_3 C 0.0921(2) 0.3723(2) 0.4462(2)
N3_3 N 0.10215(19) 0.34475(18) 0.38525(17)
H17_3 H 0.1442 0.3281 0.3772
C11_3 C 0.0513(3) 0.3381(3) 0.3279(3)
H18_3 H 0.0044 0.3296 0.3478
H19_3 H 0.0637 0.2972 0.2989
C12_3 C 0.0485(2) 0.4019(2) 0.2821(2)
H20_3 H 0.0373 0.4433 0.3109
H21_3 H 0.0948 0.4096 0.2604
C13_3 C 0.1535(3) 0.3745(3) 0.4935(3)
H22_3 H 0.1666 0.4231 0.5021
H23_3 H 0.1926 0.3498 0.4717
H24_3 H 0.1416 0.3519 0.5378
N4_3 N 0.0688(2) 0.3369(2) 0.13432(19)
H25_3 H 0.1042 0.3126 0.1506
C14_3 C 0.0049(4) 0.3364(4) 0.1742(4)
H26_3 H 0.0021 0.2914 0.1993
C15_3 C 0.1487(3) 0.3750(4) 0.0440(4)
H28_3 H 0.1507 0.3449 0.0027
H29_3 H 0.1833 0.3593 0.0782
H30_3 H 0.1588 0.4232 0.0304
H38_3 H 0.0021 0.3334 0.5769
H40_3 H 0.0378 0.3584 0.6481
H75_3 H 0.0346 0.6623 0.8591
C40_3 C 0.0055(3) 0.6063(3) 0.7739(3)
H79_3 H 0.0512 0.6137 0.7509
H80_3 H 0.0085 0.5617 0.7998
O11_3 O 0.0404(2) 0.5351(2) 0.4013(2)
C41_3 C 0.4248(2) 0.5779(2) 0.3712(2)
C42_3 C 0.0538(2) 0.5921(2) 0.3723(2)
N11_3 N 0.11475(17) 0.60215(19) 0.34475(18)
H81_3 H 0.1228 0.6442 0.3281
C43_3 C 0.1721(3) 0.5513(3) 0.3381(3)
H82_3 H 0.1522 0.5044 0.3296
H83_3 H 0.2011 0.5637 0.2972
C44_3 C 0.2179(2) 0.5485(2) 0.4019(2)
H84_3 H 0.1891 0.5373 0.4433
H85_3 H 0.2396 0.5948 0.4096
C45_3 C 0.0065(3) 0.6535(3) 0.3745(3)
H87_3 H 0.0283 0.6926 0.3498
N12_3 N 0.36568(19) 0.5688(2) 0.3369(2)
H89_3 H 0.3494 0.6042 0.3126
C46_3 C 0.3258(4) 0.5049(4) 0.3364(4)
H90_3 H 0.3007 0.5021 0.2914
H91_3 H 0.3591 0.4654 0.3377
C47_3 C 0.4560(4) 0.6487(3) 0.3750(4)
H92_3 H 0.4973 0.6507 0.3449
H93_3 H 0.4218 0.6833 0.3593
H94_3 H 0.4696 0.6588 0.4232
C48_3 C 0.2739(3) 0.4945(3) 0.3937(3)
H95_3 H 0.2509 0.4488 0.3863
H96_3 H 0.2998 0.4915 0.4383
O15_2 O 0.90300(13) 0.04816(14) 0.47054(14)
Mn1_12 Mn 1.0000 0.5000 0.5000
H27_3 H 0.9654 0.3377 0.1409
C16_3 C 0.9945(3) 0.3937(3) 0.2261(3)
H31_3 H 0.9488 0.3863 0.2491
H32_3 H 0.9915 0.4383 0.2002
O5_3 O 0.9596(2) 0.4649(2) 0.5987(2)
C17_3 C 0.5752(2) 0.4221(2) 0.6288(2)
C18_3 C 0.9462(2) 0.4079(2) 0.6277(2)
N5_3 N 0.88525(17) 0.39785(19) 0.65525(18)
H33_3 H 0.8772 0.3558 0.6719
C19_3 C 0.8279(3) 0.4487(3) 0.6619(3)
H34_3 H 0.8478 0.4956 0.6704
H35_3 H 0.7989 0.4363 0.7028
C20_3 C 0.7821(2) 0.4515(2) 0.5981(2)
H36_3 H 0.8109 0.4627 0.5567
H37_3 H 0.7604 0.4052 0.5904
C21_3 C 0.9935(3) 0.3465(3) 0.6255(3)
H39_3 H 0.9717 0.3074 0.6502
N6_3 N 0.63432(19) 0.4312(2) 0.6631(2)
H41_3 H 0.6506 0.3958 0.6874
C22_3 C 0.6742(4) 0.4951(4) 0.6636(4)
H42_3 H 0.6993 0.4979 0.7086
H43_3 H 0.6409 0.5346 0.6623
C23_3 C 0.5440(4) 0.3513(3) 0.6250(4)
H44_3 H 0.5027 0.3493 0.6551
H45_3 H 0.5782 0.3167 0.6407
H46_3 H 0.5304 0.3412 0.5768
C24_3 C 0.7261(3) 0.5055(3) 0.6063(3)
H47_3 H 0.7491 0.5512 0.6137
H48_3 H 0.7002 0.5085 0.5617
O7_3 O 0.9013(2) 0.4596(2) 0.4649(2)
C25_3 C 0.8712(2) 0.0752(2) 0.4221(2)
C26_3 C 0.8723(2) 0.4462(2) 0.4079(2)
N7_3 N 0.84475(18) 0.38525(17) 0.39785(19)
H49_3 H 0.8281 0.3772 0.3558
C27_3 C 0.8381(3) 0.3279(3) 0.4487(3)
H50_3 H 0.8296 0.3478 0.4956
H51_3 H 0.7972 0.2989 0.4363
C28_3 C 0.9019(2) 0.2821(2) 0.4515(2)
H52_3 H 0.9433 0.3109 0.4627
H53_3 H 0.9096 0.2604 0.4052
C29_3 C 0.8745(3) 0.4935(3) 0.3465(3)
H54_3 H 0.9231 0.5021 0.3334
H55_3 H 0.8498 0.4717 0.3074
H56_3 H 0.8519 0.5378 0.3584
N8_3 N 0.8369(2) 0.13432(19) 0.4312(2)
H57_3 H 0.8126 0.1506 0.3958
C30_3 C 0.8364(4) 0.1742(4) 0.4951(4)
H58_3 H 0.7914 0.1993 0.4979
H59_3 H 0.8377 0.1409 0.5346
C31_3 C 0.8750(4) 0.0440(4) 0.3513(3)
H60_3 H 0.8449 0.0027 0.3493
H61_3 H 0.8593 0.0782 0.3167
H62_3 H 0.9232 0.0304 0.3412
C32_3 C 0.8937(3) 0.2261(3) 0.5055(3)
H63_3 H 0.8863 0.2491 0.5512
H64_3 H 0.9383 0.2002 0.5085
O9_3 O 0.9649(2) 0.5987(2) 0.5404(2)
C33_3 C 0.9221(2) 0.6288(2) 0.9248(2)
C34_3 C 0.9079(2) 0.6277(2) 0.5538(2)
N9_3 N 0.89785(19) 0.65525(18) 0.61475(17)
H65_3 H 0.8558 0.6719 0.6228
C35_3 C 0.9487(3) 0.6619(3) 0.6721(3)
H66_3 H 0.9956 0.6704 0.6522
H67_3 H 0.9363 0.7028 0.7011
C36_3 C 0.9515(2) 0.5981(2) 0.7179(2)
H68_3 H 0.9627 0.5567 0.6891
H69_3 H 0.9052 0.5904 0.7396
C37_3 C 0.8465(3) 0.6255(3) 0.5065(3)
H70_3 H 0.8334 0.5769 0.4979
H71_3 H 0.8074 0.6502 0.5283
H72_3 H 0.8584 0.6481 0.4622
N10_3 N 0.9312(2) 0.6631(2) 0.86568(19)
H73_3 H 0.8958 0.6874 0.8494
C38_3 C 0.9951(4) 0.6636(4) 0.8258(4)
H74_3 H 0.9979 0.7086 0.8007
C39_3 C 0.8513(3) 0.6250(4) 0.9560(4)
H76_3 H 0.8493 0.6551 0.9973
H77_3 H 0.8167 0.6407 0.9218
H78_3 H 0.8412 0.5768 0.9696
H86_3 H 0.9979 0.6666 0.4231
H88_3 H 0.9622 0.6416 0.3519
Mn1_13 Mn 0.5000 0.5000 0.0000
O1_4 O 0.4013(2) 0.4596(2) 0.0351(2)
O2_4 O 0.40300(13) 0.04816(14) 0.02946(14)
C1_4 C 0.3712(2) 0.0752(2) 0.0779(2)
C2_4 C 0.3723(2) 0.4462(2) 0.0921(2)
N1_4 N 0.34475(18) 0.38525(17) 0.10215(19)
H1_4 H 0.3281 0.3772 0.1442
C3_4 C 0.3381(3) 0.3279(3) 0.0513(3)
H2_4 H 0.3296 0.3478 0.0044
H3_4 H 0.2972 0.2989 0.0637
C4_4 C 0.4019(2) 0.2821(2) 0.0485(2)
H4_4 H 0.4433 0.3109 0.0373
H5_4 H 0.4096 0.2604 0.0948
C5_4 C 0.3745(3) 0.4935(3) 0.1535(3)
H6_4 H 0.4231 0.5021 0.1666
H7_4 H 0.3498 0.4717 0.1926
H8_4 H 0.3519 0.5378 0.1416
N2_4 N 0.3369(2) 0.13432(19) 0.0688(2)
H9_4 H 0.3126 0.1506 0.1042
C6_4 C 0.3364(4) 0.1742(4) 0.0049(4)
H10_4 H 0.2914 0.1993 0.0021
C7_4 C 0.3750(4) 0.0440(4) 0.1487(3)
H12_4 H 0.3449 0.0027 0.1507
H13_4 H 0.3593 0.0782 0.1833
H14_4 H 0.4232 0.0304 0.1588
H22_4 H 0.3334 0.5769 0.0021
H24_4 H 0.3584 0.6481 0.0378
O5_4 O 0.5404(2) 0.5351(2) 0.0987(2)
C17_4 C 0.9248(2) 0.5779(2) 0.1288(2)
C18_4 C 0.5538(2) 0.5921(2) 0.1277(2)
N5_4 N 0.61475(17) 0.60215(19) 0.15525(18)
H33_4 H 0.6228 0.6442 0.1719
C19_4 C 0.6721(3) 0.5513(3) 0.1619(3)
H34_4 H 0.6522 0.5044 0.1704
H35_4 H 0.7011 0.5637 0.2028
C20_4 C 0.7179(2) 0.5485(2) 0.0981(2)
H36_4 H 0.6891 0.5373 0.0567
H37_4 H 0.7396 0.5948 0.0904
C21_4 C 0.5065(3) 0.6535(3) 0.1255(3)
H38_4 H 0.4979 0.6666 0.0769
H39_4 H 0.5283 0.6926 0.1502
H40_4 H 0.4622 0.6416 0.1481
N6_4 N 0.86568(19) 0.5688(2) 0.1631(2)
H41_4 H 0.8494 0.6042 0.1874
C22_4 C 0.8258(4) 0.5049(4) 0.1636(4)
H42_4 H 0.8007 0.5021 0.2086
H43_4 H 0.8591 0.4654 0.1623
C23_4 C 0.9560(4) 0.6487(3) 0.1250(4)
H44_4 H 0.9973 0.6507 0.1551
H45_4 H 0.9218 0.6833 0.1407
H46_4 H 0.9696 0.6588 0.0768
C24_4 C 0.7739(3) 0.4945(3) 0.1063(3)
H47_4 H 0.7509 0.4488 0.1137
H48_4 H 0.7998 0.4915 0.0617
H59_4 H 0.6623 0.8591 0.0346
C32_4 C 0.6063(3) 0.7739(3) 0.0055(3)
H63_4 H 0.6137 0.7509 0.0512
H64_4 H 0.5617 0.7998 0.0085
O9_4 O 0.5351(2) 0.4013(2) 0.0404(2)
C33_4 C 0.5779(2) 0.3712(2) 0.4248(2)
C34_4 C 0.5921(2) 0.3723(2) 0.0538(2)
N9_4 N 0.60215(19) 0.34475(18) 0.11475(17)
H65_4 H 0.6442 0.3281 0.1228
C35_4 C 0.5513(3) 0.3381(3) 0.1721(3)
H66_4 H 0.5044 0.3296 0.1522
H67_4 H 0.5637 0.2972 0.2011
C36_4 C 0.5485(2) 0.4019(2) 0.2179(2)
H68_4 H 0.5373 0.4433 0.1891
H69_4 H 0.5948 0.4096 0.2396
C37_4 C 0.6535(3) 0.3745(3) 0.0065(3)
H71_4 H 0.6926 0.3498 0.0283
N10_4 N 0.5688(2) 0.3369(2) 0.36568(19)
H73_4 H 0.6042 0.3126 0.3494
C38_4 C 0.5049(4) 0.3364(4) 0.3258(4)
H74_4 H 0.5021 0.2914 0.3007
H75_4 H 0.4654 0.3377 0.3591
C39_4 C 0.6487(3) 0.3750(4) 0.4560(4)
H76_4 H 0.6507 0.3449 0.4973
H77_4 H 0.6833 0.3593 0.4218
H78_4 H 0.6588 0.4232 0.4696
C40_4 C 0.4945(3) 0.3937(3) 0.2739(3)
H79_4 H 0.4488 0.3863 0.2509
H80_4 H 0.4915 0.4383 0.2998
Mn1_14 Mn 0.5000 0.5000 1.0000
H11_4 H 0.3377 0.1409 0.9654
C8_4 C 0.3937(3) 0.2261(3) 0.9945(3)
H15_4 H 0.3863 0.2491 0.9488
H16_4 H 0.4383 0.2002 0.9915
O3_4 O 0.4649(2) 0.5987(2) 0.9596(2)
C9_4 C 0.4221(2) 0.6288(2) 0.5752(2)
C10_4 C 0.4079(2) 0.6277(2) 0.9462(2)
N3_4 N 0.39785(19) 0.65525(18) 0.88525(17)
H17_4 H 0.3558 0.6719 0.8772
C11_4 C 0.4487(3) 0.6619(3) 0.8279(3)
H18_4 H 0.4956 0.6704 0.8478
H19_4 H 0.4363 0.7028 0.7989
C12_4 C 0.4515(2) 0.5981(2) 0.7821(2)
H20_4 H 0.4627 0.5567 0.8109
H21_4 H 0.4052 0.5904 0.7604
C13_4 C 0.3465(3) 0.6255(3) 0.9935(3)
H23_4 H 0.3074 0.6502 0.9717
N4_4 N 0.4312(2) 0.6631(2) 0.63432(19)
H25_4 H 0.3958 0.6874 0.6506
C14_4 C 0.4951(4) 0.6636(4) 0.6742(4)
H26_4 H 0.4979 0.7086 0.6993
H27_4 H 0.5346 0.6623 0.6409
C15_4 C 0.3513(3) 0.6250(4) 0.5440(4)
H28_4 H 0.3493 0.6551 0.5027
H29_4 H 0.3167 0.6407 0.5782
H30_4 H 0.3412 0.5768 0.5304
C16_4 C 0.5055(3) 0.6063(3) 0.7261(3)
H31_4 H 0.5512 0.6137 0.7491
H32_4 H 0.5085 0.5617 0.7002
O7_4 O 0.5987(2) 0.5404(2) 0.9649(2)
O8_2 O 0.59700(13) 0.95184(14) 0.97054(14)
C25_4 C 0.6288(2) 0.9248(2) 0.9221(2)
C26_4 C 0.6277(2) 0.5538(2) 0.9079(2)
N7_4 N 0.65525(18) 0.61475(17) 0.89785(19)
H49_4 H 0.6719 0.6228 0.8558
C27_4 C 0.6619(3) 0.6721(3) 0.9487(3)
H50_4 H 0.6704 0.6522 0.9956
H51_4 H 0.7028 0.7011 0.9363
C28_4 C 0.5981(2) 0.7179(2) 0.9515(2)
H52_4 H 0.5567 0.6891 0.9627
H53_4 H 0.5904 0.7396 0.9052
C29_4 C 0.6255(3) 0.5065(3) 0.8465(3)
H54_4 H 0.5769 0.4979 0.8334
H55_4 H 0.6502 0.5283 0.8074
H56_4 H 0.6481 0.4622 0.8584
N8_4 N 0.6631(2) 0.86568(19) 0.9312(2)
H57_4 H 0.6874 0.8494 0.8958
C30_4 C 0.6636(4) 0.8258(4) 0.9951(4)
H58_4 H 0.7086 0.8007 0.9979
C31_4 C 0.6250(4) 0.9560(4) 0.8513(3)
H60_4 H 0.6551 0.9973 0.8493
H61_4 H 0.6407 0.9218 0.8167
H62_4 H 0.5768 0.9696 0.8412
H70_4 H 0.6666 0.4231 0.9979
H72_4 H 0.6416 0.3519 0.9622
O11_4 O 0.4596(2) 0.4649(2) 0.9013(2)
C41_4 C 0.0752(2) 0.4221(2) 0.8712(2)
C42_4 C 0.4462(2) 0.4079(2) 0.8723(2)
N11_4 N 0.38525(17) 0.39785(19) 0.84475(18)
H81_4 H 0.3772 0.3558 0.8281
C43_4 C 0.3279(3) 0.4487(3) 0.8381(3)
H82_4 H 0.3478 0.4956 0.8296
H83_4 H 0.2989 0.4363 0.7972
C44_4 C 0.2821(2) 0.4515(2) 0.9019(2)
H84_4 H 0.3109 0.4627 0.9433
H85_4 H 0.2604 0.4052 0.9096
C45_4 C 0.4935(3) 0.3465(3) 0.8745(3)
H86_4 H 0.5021 0.3334 0.9231
H87_4 H 0.4717 0.3074 0.8498
H88_4 H 0.5378 0.3584 0.8519
N12_4 N 0.13432(19) 0.4312(2) 0.8369(2)
H89_4 H 0.1506 0.3958 0.8126
C46_4 C 0.1742(4) 0.4951(4) 0.8364(4)
H90_4 H 0.1993 0.4979 0.7914
H91_4 H 0.1409 0.5346 0.8377
C47_4 C 0.0440(4) 0.3513(3) 0.8750(4)
H92_4 H 0.0027 0.3493 0.8449
H93_4 H 0.0782 0.3167 0.8593
H94_4 H 0.0304 0.3412 0.9232
C48_4 C 0.2261(3) 0.5055(3) 0.8937(3)
H95_4 H 0.2491 0.5512 0.8863
H96_4 H 0.2002 0.5085 0.9383
loop_
_geom_bond_atom_site_label_1
_geom_bond_atom_site_label_2
_geom_bond_site_symmetry_1
_geom_bond_site_symmetry_2
O13 Mn2 1_555 1_555
O15 Mn2 1_555 1_555
H47 C24 1_555 1_555
H48 C24 1_555 1_555
O9 Mn1_2 1_555 1_555
O10 C33 1_555 1_555
C33 N10 1_555 1_555
C34 O9 1_555 1_555
N9 C34 1_555 1_555
H65 N9 1_555 1_555
C35 N9 1_555 1_555
H66 C35 1_555 1_555
H67 C35 1_555 1_555
C36 C35 1_555 1_555
H68 C36 1_555 1_555
H69 C36 1_555 1_555
C37 C34 1_555 1_555
H71 C37 1_555 1_555
N10 H73 1_555 1_555
C38 N10 1_555 1_555
H74 C38 1_555 1_555
C39 C33 1_555 1_555
H76 C39 1_555 1_555
H77 C39 1_555 1_555
H78 C39 1_555 1_555
Mn5 O10 1_555 1_555
O17 Mn2_2 1_555 1_555
H31 C16 1_555 1_555
H32 C16 1_555 1_555
O7 Mn1_3 1_555 1_555
O15 C25 1_555 1_555
C25 N8 1_555 1_555
C26 O7 1_555 1_555
N7 C26 1_555 1_555
H49 N7 1_555 1_555
C27 N7 1_555 1_555
H50 C27 1_555 1_555
H51 C27 1_555 1_555
C28 C27 1_555 1_555
H52 C28 1_555 1_555
H53 C28 1_555 1_555
C29 C26 1_555 1_555
H55 C29 1_555 1_555
N8 H57 1_555 1_555
C30 N8 1_555 1_555
H58 C30 1_555 1_555
C31 C25 1_555 1_555
H60 C31 1_555 1_555
H61 C31 1_555 1_555
H62 C31 1_555 1_555
O5 Mn1_4 1_555 1_555
O6 C17 1_555 1_555
C17 N6 1_555 1_555
C18 O5 1_555 1_555
N5 C18 1_555 1_555
H33 N5 1_555 1_555
C19 N5 1_555 1_555
H34 C19 1_555 1_555
H35 C19 1_555 1_555
C20 C19 1_555 1_555
H36 C20 1_555 1_555
H37 C20 1_555 1_555
C21 C18 1_555 1_555
H39 C21 1_555 1_555
N6 H41 1_555 1_555
C22 N6 1_555 1_555
H42 C22 1_555 1_555
C23 C17 1_555 1_555
H44 C23 1_555 1_555
H45 C23 1_555 1_555
H46 C23 1_555 1_555
H63 C32 1_555 1_555
H64 C32 1_555 1_555
Mn7_4 O6 1_555 1_555
H15 C8 1_555 1_555
H16 C8 1_555 1_555
O11 Mn1_5 1_555 1_555
O12 C41 1_555 1_555
C41 N12 1_555 1_555
C42 O11 1_555 1_555
N11 C42 1_555 1_555
H81 N11 1_555 1_555
C43 N11 1_555 1_555
H82 C43 1_555 1_555
H83 C43 1_555 1_555
C44 C43 1_555 1_555
H84 C44 1_555 1_555
H85 C44 1_555 1_555
C45 C42 1_555 1_555
H87 C45 1_555 1_555
N12 H89 1_555 1_555
C46 N12 1_555 1_555
H90 C46 1_555 1_555
C47 C41 1_555 1_555
H92 C47 1_555 1_555
H93 C47 1_555 1_555
H94 C47 1_555 1_555
Mn7 O12 1_555 1_555
O14 Mn2_3 1_555 1_555
Mn1_6 O1 1_555 1_555
Mn2_4 O2 1_555 1_555
O1 C2 1_555 1_555
O2 C1 1_555 1_555
C1 N2 1_555 1_555
C2 N1 1_555 1_555
N1 H1 1_555 1_555
C3 N1 1_555 1_555
H2 C3 1_555 1_555
H3 C3 1_555 1_555
C4 C3 1_555 1_555
H4 C4 1_555 1_555
H5 C4 1_555 1_555
C5 C2 1_555 1_555
H7 C5 1_555 1_555
N2 H9 1_555 1_555
C6 N2 1_555 1_555
H10 C6 1_555 1_555
C7 C1 1_555 1_555
H12 C7 1_555 1_555
H13 C7 1_555 1_555
H14 C7 1_555 1_555
H79 C40 1_555 1_555
H80 C40 1_555 1_555
O16 Mn2_4 1_555 1_555
O3 Mn1_7 1_555 1_555
O4 C9 1_555 1_555
C9 N4 1_555 1_555
C10 O3 1_555 1_555
N3 C10 1_555 1_555
H17 N3 1_555 1_555
C11 N3 1_555 1_555
H18 C11 1_555 1_555
H19 C11 1_555 1_555
C12 C11 1_555 1_555
H20 C12 1_555 1_555
H21 C12 1_555 1_555
C13 C10 1_555 1_555
H23 C13 1_555 1_555
N4 H25 1_555 1_555
C14 N4 1_555 1_555
H26 C14 1_555 1_555
C15 C9 1_555 1_555
H28 C15 1_555 1_555
H29 C15 1_555 1_555
H30 C15 1_555 1_555
H95 C48 1_555 1_555
H96 C48 1_555 1_555
Mn5_4 O4 1_555 1_555
O3_2 Mn1_9 1_555 1_555
O4_2 C9_2 1_555 1_555
C9_2 N4_2 1_555 1_555
C10_2 O3_2 1_555 1_555
N3_2 C10_2 1_555 1_555
H17_2 N3_2 1_555 1_555
C11_2 N3_2 1_555 1_555
H18_2 C11_2 1_555 1_555
H19_2 C11_2 1_555 1_555
C12_2 C11_2 1_555 1_555
H20_2 C12_2 1_555 1_555
H21_2 C12_2 1_555 1_555
C13_2 C10_2 1_555 1_555
H22_2 C13_2 1_555 1_555
H23_2 C13_2 1_555 1_555
H24_2 C13_2 1_555 1_555
N4_2 H25_2 1_555 1_555
C14_2 N4_2 1_555 1_555
H26_2 C14_2 1_555 1_555
H27_2 C14_2 1_555 1_555
C15_2 C9_2 1_555 1_555
H28_2 C15_2 1_555 1_555
H29_2 C15_2 1_555 1_555
H30_2 C15_2 1_555 1_555
C16_2 C12_2 1_555 1_555
H31_2 C16_2 1_555 1_555
H32_2 C16_2 1_555 1_555
O5_2 Mn1_9 1_555 1_555
O6_2 C17_2 1_555 1_555
C17_2 N6_2 1_555 1_555
C18_2 O5_2 1_555 1_555
N5_2 C18_2 1_555 1_555
H33_2 N5_2 1_555 1_555
C19_2 N5_2 1_555 1_555
H34_2 C19_2 1_555 1_555
H35_2 C19_2 1_555 1_555
C20_2 C19_2 1_555 1_555
H36_2 C20_2 1_555 1_555
H37_2 C20_2 1_555 1_555
C21_2 C18_2 1_555 1_555
H38_2 C21_2 1_555 1_555
H39_2 C21_2 1_555 1_555
H40_2 C21_2 1_555 1_555
N6_2 H41_2 1_555 1_555
C22_2 N6_2 1_555 1_555
H42_2 C22_2 1_555 1_555
C23_2 C17_2 1_555 1_555
H44_2 C23_2 1_555 1_555
H45_2 C23_2 1_555 1_555
H46_2 C23_2 1_555 1_555
O7_2 Mn1_9 1_555 1_555
O8 C25_2 1_555 1_555
C25_2 N8_2 1_555 1_555
C26_2 O7_2 1_555 1_555
N7_2 C26_2 1_555 1_555
H49_2 N7_2 1_555 1_555
C27_2 N7_2 1_555 1_555
H50_2 C27_2 1_555 1_555
H51_2 C27_2 1_555 1_555
C28_2 C27_2 1_555 1_555
H52_2 C28_2 1_555 1_555
H53_2 C28_2 1_555 1_555
C29_2 C26_2 1_555 1_555
H55_2 C29_2 1_555 1_555
N8_2 H57_2 1_555 1_555
C30_2 N8_2 1_555 1_555
H58_2 C30_2 1_555 1_555
H59_2 C30_2 1_555 1_555
C31_2 C25_2 1_555 1_555
H60_2 C31_2 1_555 1_555
H61_2 C31_2 1_555 1_555
H62_2 C31_2 1_555 1_555
C32_2 C28_2 1_555 1_555
H63_2 C32_2 1_555 1_555
H64_2 C32_2 1_555 1_555
H95_2 C48_2 1_555 1_555
H96_2 C48_2 1_555 1_555
Mn3 O8 1_555 1_555
Mn7_2 O4_2 1_555 1_555
Mn5 O6_2 1_555 1_555
C14_2 C16_2 1_555 1_555
C30_2 C32_2 1_555 1_555
Mn1_10 O1_2 1_555 1_555
Mn3 O2_2 1_555 1_555
O1_2 C2_2 1_555 1_555
O2_2 C1_2 1_555 1_555
C1_2 N2_2 1_555 1_555
C2_2 N1_2 1_555 1_555
N1_2 H1_2 1_555 1_555
C3_2 N1_2 1_555 1_555
H2_2 C3_2 1_555 1_555
H3_2 C3_2 1_555 1_555
C4_2 C3_2 1_555 1_555
H4_2 C4_2 1_555 1_555
H5_2 C4_2 1_555 1_555
C5_2 C2_2 1_555 1_555
H7_2 C5_2 1_555 1_555
N2_2 H9_2 1_555 1_555
C6_2 N2_2 1_555 1_555
H10_2 C6_2 1_555 1_555
H11_2 C6_2 1_555 1_555
C7_2 C1_2 1_555 1_555
H12_2 C7_2 1_555 1_555
H13_2 C7_2 1_555 1_555
H14_2 C7_2 1_555 1_555
C8_2 C4_2 1_555 1_555
H15_2 C8_2 1_555 1_555
H16_2 C8_2 1_555 1_555
H47_2 C24_2 1_555 1_555
H48_2 C24_2 1_555 1_555
O9_2 Mn1_10 1_555 1_555
O10_2 C33_2 1_555 1_555
C33_2 N10_2 1_555 1_555
C34_2 O9_2 1_555 1_555
N9_2 C34_2 1_555 1_555
H65_2 N9_2 1_555 1_555
C35_2 N9_2 1_555 1_555
H66_2 C35_2 1_555 1_555
H67_2 C35_2 1_555 1_555
C36_2 C35_2 1_555 1_555
H68_2 C36_2 1_555 1_555
H69_2 C36_2 1_555 1_555
C37_2 C34_2 1_555 1_555
H70_2 C37_2 1_555 1_555
H71_2 C37_2 1_555 1_555
H72_2 C37_2 1_555 1_555
N10_2 H73_2 1_555 1_555
C38_2 N10_2 1_555 1_555
H74_2 C38_2 1_555 1_555
H75_2 C38_2 1_555 1_555
C39_2 C33_2 1_555 1_555
H76_2 C39_2 1_555 1_555
H77_2 C39_2 1_555 1_555
H78_2 C39_2 1_555 1_555
C40_2 C36_2 1_555 1_555
H79_2 C40_2 1_555 1_555
H80_2 C40_2 1_555 1_555
O11_2 Mn1_10 1_555 1_555
O12_2 C41_2 1_555 1_555
C41_2 N12_2 1_555 1_555
C42_2 O11_2 1_555 1_555
N11_2 C42_2 1_555 1_555
H81_2 N11_2 1_555 1_555
C43_2 N11_2 1_555 1_555
H82_2 C43_2 1_555 1_555
H83_2 C43_2 1_555 1_555
C44_2 C43_2 1_555 1_555
H84_2 C44_2 1_555 1_555
H85_2 C44_2 1_555 1_555
C45_2 C42_2 1_555 1_555
H86_2 C45_2 1_555 1_555
H87_2 C45_2 1_555 1_555
H88_2 C45_2 1_555 1_555
N12_2 H89_2 1_555 1_555
C46_2 N12_2 1_555 1_555
H90_2 C46_2 1_555 1_555
C47_2 C41_2 1_555 1_555
H92_2 C47_2 1_555 1_555
H93_2 C47_2 1_555 1_555
H94_2 C47_2 1_555 1_555
Mn7_3 O10_2 1_555 1_555
Mn5_4 O12_2 1_555 1_555
O13_2 Mn3 1_555 1_555
O14_2 Mn3 1_555 1_555
O16_2 Mn3 1_555 1_555
O17_2 Mn3 1_555 1_555
C6_2 C8_2 1_555 1_555
C38_2 C40_2 1_555 1_555
Mn1_11 O1_3 1_555 1_555
Mn5_2 O2_3 1_555 1_555
O1_3 C2_3 1_555 1_555
O2_3 C1_3 1_555 1_555
C1_3 N2_3 1_555 1_555
C2_3 N1_3 1_555 1_555
N1_3 H1_3 1_555 1_555
C3_3 N1_3 1_555 1_555
H2_3 C3_3 1_555 1_555
H3_3 C3_3 1_555 1_555
C4_3 C3_3 1_555 1_555
H4_3 C4_3 1_555 1_555
H5_3 C4_3 1_555 1_555
C5_3 C2_3 1_555 1_555
H6_3 C5_3 1_555 1_555
H7_3 C5_3 1_555 1_555
H8_3 C5_3 1_555 1_555
N2_3 H9_3 1_555 1_555
C6_3 N2_3 1_555 1_555
H10_3 C6_3 1_555 1_555
H11_3 C6_3 1_555 1_555
C7_3 C1_3 1_555 1_555
H12_3 C7_3 1_555 1_555
H13_3 C7_3 1_555 1_555
H14_3 C7_3 1_555 1_555
C8_3 C4_3 1_555 1_555
H15_3 C8_3 1_555 1_555
H16_3 C8_3 1_555 1_555
O3_3 Mn1_11 1_555 1_555
O13 C9_3 1_555 1_555
C9_3 N4_3 1_555 1_555
C10_3 O3_3 1_555 1_555
N3_3 C10_3 1_555 1_555
H17_3 N3_3 1_555 1_555
C11_3 N3_3 1_555 1_555
H18_3 C11_3 1_555 1_555
H19_3 C11_3 1_555 1_555
C12_3 C11_3 1_555 1_555
H20_3 C12_3 1_555 1_555
H21_3 C12_3 1_555 1_555
C13_3 C10_3 1_555 1_555
H22_3 C13_3 1_555 1_555
H23_3 C13_3 1_555 1_555
H24_3 C13_3 1_555 1_555
N4_3 H25_3 1_555 1_555
C14_3 N4_3 1_555 1_555
H26_3 C14_3 1_555 1_555
C15_3 C9_3 1_555 1_555
H28_3 C15_3 1_555 1_555
H29_3 C15_3 1_555 1_555
H30_3 C15_3 1_555 1_555
H79_3 C40_3 1_555 1_555
H80_3 C40_3 1_555 1_555
O11_3 Mn1_11 1_555 1_555
O17_2 C41_3 1_555 1_555
C41_3 N12_3 1_555 1_555
C42_3 O11_3 1_555 1_555
N11_3 C42_3 1_555 1_555
H81_3 N11_3 1_555 1_555
C43_3 N11_3 1_555 1_555
H82_3 C43_3 1_555 1_555
H83_3 C43_3 1_555 1_555
C44_3 C43_3 1_555 1_555
H84_3 C44_3 1_555 1_555
H85_3 C44_3 1_555 1_555
C45_3 C42_3 1_555 1_555
H87_3 C45_3 1_555 1_555
N12_3 H89_3 1_555 1_555
C46_3 N12_3 1_555 1_555
H90_3 C46_3 1_555 1_555
H91_3 C46_3 1_555 1_555
C47_3 C41_3 1_555 1_555
H92_3 C47_3 1_555 1_555
H93_3 C47_3 1_555 1_555
H94_3 C47_3 1_555 1_555
C48_3 C44_3 1_555 1_555
H95_3 C48_3 1_555 1_555
H96_3 C48_3 1_555 1_555
C6_3 C8_3 1_555 1_555
C46_3 C48_3 1_555 1_555
O15_2 Mn5_3 1_555 1_555
H31_3 C16_3 1_555 1_555
H32_3 C16_3 1_555 1_555
O5_3 Mn1_12 1_555 1_555
O14_2 C17_3 1_555 1_555
C17_3 N6_3 1_555 1_555
C18_3 O5_3 1_555 1_555
N5_3 C18_3 1_555 1_555
H33_3 N5_3 1_555 1_555
C19_3 N5_3 1_555 1_555
H34_3 C19_3 1_555 1_555
H35_3 C19_3 1_555 1_555
C20_3 C19_3 1_555 1_555
H36_3 C20_3 1_555 1_555
H37_3 C20_3 1_555 1_555
C21_3 C18_3 1_555 1_555
H39_3 C21_3 1_555 1_555
N6_3 H41_3 1_555 1_555
C22_3 N6_3 1_555 1_555
H42_3 C22_3 1_555 1_555
H43_3 C22_3 1_555 1_555
C23_3 C17_3 1_555 1_555
H44_3 C23_3 1_555 1_555
H45_3 C23_3 1_555 1_555
H46_3 C23_3 1_555 1_555
C24_3 C20_3 1_555 1_555
H47_3 C24_3 1_555 1_555
H48_3 C24_3 1_555 1_555
O7_3 Mn1_12 1_555 1_555
O15_2 C25_3 1_555 1_555
C25_3 N8_3 1_555 1_555
C26_3 O7_3 1_555 1_555
N7_3 C26_3 1_555 1_555
H49_3 N7_3 1_555 1_555
C27_3 N7_3 1_555 1_555
H50_3 C27_3 1_555 1_555
H51_3 C27_3 1_555 1_555
C28_3 C27_3 1_555 1_555
H52_3 C28_3 1_555 1_555
H53_3 C28_3 1_555 1_555
C29_3 C26_3 1_555 1_555
H54_3 C29_3 1_555 1_555
H55_3 C29_3 1_555 1_555
H56_3 C29_3 1_555 1_555
N8_3 H57_3 1_555 1_555
C30_3 N8_3 1_555 1_555
H58_3 C30_3 1_555 1_555
H59_3 C30_3 1_555 1_555
C31_3 C25_3 1_555 1_555
H60_3 C31_3 1_555 1_555
H61_3 C31_3 1_555 1_555
H62_3 C31_3 1_555 1_555
C32_3 C28_3 1_555 1_555
H63_3 C32_3 1_555 1_555
H64_3 C32_3 1_555 1_555
O9_3 Mn1_12 1_555 1_555
O16 C33_3 1_555 1_555
C33_3 N10_3 1_555 1_555
C34_3 O9_3 1_555 1_555
N9_3 C34_3 1_555 1_555
H65_3 N9_3 1_555 1_555
C35_3 N9_3 1_555 1_555
H66_3 C35_3 1_555 1_555
H67_3 C35_3 1_555 1_555
C36_3 C35_3 1_555 1_555
H68_3 C36_3 1_555 1_555
H69_3 C36_3 1_555 1_555
C37_3 C34_3 1_555 1_555
H70_3 C37_3 1_555 1_555
H71_3 C37_3 1_555 1_555
H72_3 C37_3 1_555 1_555
N10_3 H73_3 1_555 1_555
C38_3 N10_3 1_555 1_555
H74_3 C38_3 1_555 1_555
C39_3 C33_3 1_555 1_555
H76_3 C39_3 1_555 1_555
H77_3 C39_3 1_555 1_555
H78_3 C39_3 1_555 1_555
C22_3 C24_3 1_555 1_555
C30_3 C32_3 1_555 1_555
Mn1_13 O1_4 1_555 1_555
Mn7 O2_4 1_555 1_555
O1_4 C2_4 1_555 1_555
O2_4 C1_4 1_555 1_555
C1_4 N2_4 1_555 1_555
C2_4 N1_4 1_555 1_555
N1_4 H1_4 1_555 1_555
C3_4 N1_4 1_555 1_555
H2_4 C3_4 1_555 1_555
H3_4 C3_4 1_555 1_555
C4_4 C3_4 1_555 1_555
H4_4 C4_4 1_555 1_555
H5_4 C4_4 1_555 1_555
C5_4 C2_4 1_555 1_555
H6_4 C5_4 1_555 1_555
H7_4 C5_4 1_555 1_555
H8_4 C5_4 1_555 1_555
N2_4 H9_4 1_555 1_555
C6_4 N2_4 1_555 1_555
H10_4 C6_4 1_555 1_555
C7_4 C1_4 1_555 1_555
H12_4 C7_4 1_555 1_555
H13_4 C7_4 1_555 1_555
H14_4 C7_4 1_555 1_555
O5_4 Mn1_13 1_555 1_555
O14 C17_4 1_555 1_555
C17_4 N6_4 1_555 1_555
C18_4 O5_4 1_555 1_555
N5_4 C18_4 1_555 1_555
H33_4 N5_4 1_555 1_555
C19_4 N5_4 1_555 1_555
H34_4 C19_4 1_555 1_555
H35_4 C19_4 1_555 1_555
C20_4 C19_4 1_555 1_555
H36_4 C20_4 1_555 1_555
H37_4 C20_4 1_555 1_555
C21_4 C18_4 1_555 1_555
H38_4 C21_4 1_555 1_555
H39_4 C21_4 1_555 1_555
H40_4 C21_4 1_555 1_555
N6_4 H41_4 1_555 1_555
C22_4 N6_4 1_555 1_555
H42_4 C22_4 1_555 1_555
H43_4 C22_4 1_555 1_555
C23_4 C17_4 1_555 1_555
H44_4 C23_4 1_555 1_555
H45_4 C23_4 1_555 1_555
H46_4 C23_4 1_555 1_555
C24_4 C20_4 1_555 1_555
H47_4 C24_4 1_555 1_555
H48_4 C24_4 1_555 1_555
H63_4 C32_4 1_555 1_555
H64_4 C32_4 1_555 1_555
O9_4 Mn1_13 1_555 1_555
O16_2 C33_4 1_555 1_555
C33_4 N10_4 1_555 1_555
C34_4 O9_4 1_555 1_555
N9_4 C34_4 1_555 1_555
H65_4 N9_4 1_555 1_555
C35_4 N9_4 1_555 1_555
H66_4 C35_4 1_555 1_555
H67_4 C35_4 1_555 1_555
C36_4 C35_4 1_555 1_555
H68_4 C36_4 1_555 1_555
H69_4 C36_4 1_555 1_555
C37_4 C34_4 1_555 1_555
H71_4 C37_4 1_555 1_555
N10_4 H73_4 1_555 1_555
C38_4 N10_4 1_555 1_555
H74_4 C38_4 1_555 1_555
H75_4 C38_4 1_555 1_555
C39_4 C33_4 1_555 1_555
H76_4 C39_4 1_555 1_555
H77_4 C39_4 1_555 1_555
H78_4 C39_4 1_555 1_555
C40_4 C36_4 1_555 1_555
H79_4 C40_4 1_555 1_555
H80_4 C40_4 1_555 1_555
C22_4 C24_4 1_555 1_555
C38_4 C40_4 1_555 1_555
H15_4 C8_4 1_555 1_555
H16_4 C8_4 1_555 1_555
O3_4 Mn1_14 1_555 1_555
O13_2 C9_4 1_555 1_555
C9_4 N4_4 1_555 1_555
C10_4 O3_4 1_555 1_555
N3_4 C10_4 1_555 1_555
H17_4 N3_4 1_555 1_555
C11_4 N3_4 1_555 1_555
H18_4 C11_4 1_555 1_555
H19_4 C11_4 1_555 1_555
C12_4 C11_4 1_555 1_555
H20_4 C12_4 1_555 1_555
H21_4 C12_4 1_555 1_555
C13_4 C10_4 1_555 1_555
H23_4 C13_4 1_555 1_555
N4_4 H25_4 1_555 1_555
C14_4 N4_4 1_555 1_555
H26_4 C14_4 1_555 1_555
H27_4 C14_4 1_555 1_555
C15_4 C9_4 1_555 1_555
H28_4 C15_4 1_555 1_555
H29_4 C15_4 1_555 1_555
H30_4 C15_4 1_555 1_555
C16_4 C12_4 1_555 1_555
H31_4 C16_4 1_555 1_555
H32_4 C16_4 1_555 1_555
O7_4 Mn1_14 1_555 1_555
O8_2 C25_4 1_555 1_555
C25_4 N8_4 1_555 1_555
C26_4 O7_4 1_555 1_555
N7_4 C26_4 1_555 1_555
H49_4 N7_4 1_555 1_555
C27_4 N7_4 1_555 1_555
H50_4 C27_4 1_555 1_555
H51_4 C27_4 1_555 1_555
C28_4 C27_4 1_555 1_555
H52_4 C28_4 1_555 1_555
H53_4 C28_4 1_555 1_555
C29_4 C26_4 1_555 1_555
H54_4 C29_4 1_555 1_555
H55_4 C29_4 1_555 1_555
H56_4 C29_4 1_555 1_555
N8_4 H57_4 1_555 1_555
C30_4 N8_4 1_555 1_555
H58_4 C30_4 1_555 1_555
C31_4 C25_4 1_555 1_555
H60_4 C31_4 1_555 1_555
H61_4 C31_4 1_555 1_555
H62_4 C31_4 1_555 1_555
O11_4 Mn1_14 1_555 1_555
O17 C41_4 1_555 1_555
C41_4 N12_4 1_555 1_555
C42_4 O11_4 1_555 1_555
N11_4 C42_4 1_555 1_555
H81_4 N11_4 1_555 1_555
C43_4 N11_4 1_555 1_555
H82_4 C43_4 1_555 1_555
H83_4 C43_4 1_555 1_555
C44_4 C43_4 1_555 1_555
H84_4 C44_4 1_555 1_555
H85_4 C44_4 1_555 1_555
C45_4 C42_4 1_555 1_555
H86_4 C45_4 1_555 1_555
H87_4 C45_4 1_555 1_555
H88_4 C45_4 1_555 1_555
N12_4 H89_4 1_555 1_555
C46_4 N12_4 1_555 1_555
H90_4 C46_4 1_555 1_555
H91_4 C46_4 1_555 1_555
C47_4 C41_4 1_555 1_555
H92_4 C47_4 1_555 1_555
H93_4 C47_4 1_555 1_555
H94_4 C47_4 1_555 1_555
C48_4 C44_4 1_555 1_555
H95_4 C48_4 1_555 1_555
H96_4 C48_4 1_555 1_555
Mn7_4 O8_2 1_555 1_555
C14_4 C16_4 1_555 1_555
C46_4 C48_4 1_555 1_555

#END
