
###############################################################################
#
# This file contains modified crystal structure data generated from the
# MOF subset of the Cambridge Structural Database (CSD) v543 
# hosted by the Cambridge Crystallographic Data Centre (CCDC).
#
# This work is licensed under the Creative Commons
# Attribution-NonCommercial-ShareAlike 4.0 International License.
# To view a copy of this license, visit
# http://creativecommons.org/licenses/by-nc-sa/4.0/
# or send a letter to
# Creative Commons, PO Box 1866, Mountain View, CA 94042, USA.
#
# CIF created using the CSD Python API on 29 September 2022
# The structure has been converted into the P1 space group
# The structure has a 3D framework
# The original CSD entry OMEJIB is in the rhombohedral crystal system
# The framework has been calculated to contain at least 10.0% void space
# The void calculation uses a probe of radius 1.32A, grid spacing 0.4
# The framework is charged, counterions have been retained in the structure
#
###############################################################################

data_OMEJIB
_chemical_formula_moiety         '(C180 H144 Ag11 N54 O36 P18 11+)n'
_symmetry_cell_setting           triclinic
_symmetry_space_group_name_H-M   'P 1'
_symmetry_Int_Tables_number      1
_space_group_name_Hall           'P 1'
loop_
_symmetry_equiv_pos_site_id
_symmetry_equiv_pos_as_xyz
1 x,y,z
_cell_length_a                   12.5705(11)
_cell_length_b                   12.5705(11)
_cell_length_c                   38.213(6)
_cell_angle_alpha                90
_cell_angle_beta                 90
_cell_angle_gamma                120
_cell_volume                     5229.34
loop_
_atom_site_label
_atom_site_type_symbol
_atom_site_fract_x
_atom_site_fract_y
_atom_site_fract_z
Ag7 Ag 0.000 0.000 0.000
Ag7_2 Ag 0.000 0.000 1.000
Ag7_3 Ag 0.000 1.000 0.000
Ag7_4 Ag 0.000 1.000 1.000
H18 H 0.2928 0.032 0.0674
H22 H 0.2537 0.0295 0.1277
Ag7_5 Ag 1.000 0.000 0.000
H20 H 0.1302 0.0329 0.9177
Ag7_6 Ag 1.000 0.000 1.000
Ag1 Ag 0.3333 0.6667 0.1667
P1 P 0.19676(5) 0.55597(5) 0.01204(2)
O1 O 0.08475(13) 0.46469(13) 0.03560(4)
N1 N 0.22408(16) 0.69205(16) 0.01723(5)
N3 N 0.15963(18) 0.51644(18) 0.12871(5)
C1 C 0.08824(18) 0.44391(19) 0.07127(5)
H1 H 0.0923 0.3007 0.0025
C4 C 0.0171(2) 0.3259(2) 0.08304(6)
C5 C 0.0925(2) 0.4010(2) 0.13997(6)
H3 H 0.0956 0.3848 0.1641
C7 C 0.1555(2) 0.5370(2) 0.09458(6)
H5 H 0.2006 0.6189 0.0861
C8 C 0.0192(2) 0.3046(2) 0.11840(6)
P2 P 0.44403(5) 0.64079(7) 0.01204(2)
O3 O 0.53531(13) 0.62006(18) 0.03560(4)
N4 N 0.30795(16) 0.53203(23) 0.01723(5)
N6 N 0.48356(18) 0.64319(25) 0.12871(5)
C11 C 0.55609(19) 0.64433(26) 0.07127(5)
H9 H 0.6993 0.7916 0.0025
C14 C 0.6741(2) 0.6912(3) 0.08304(6)
H10 H 0.7392 0.7072 0.0674
C15 C 0.5990(2) 0.6915(3) 0.13997(6)
H11 H 0.6152 0.7108 0.1641
C17 C 0.4630(2) 0.6185(3) 0.09458(6)
H13 H 0.3811 0.5817 0.0861
C18 C 0.6954(2) 0.7146(3) 0.11840(6)
H14 H 0.7758 0.7463 0.1277
P3 P 0.35921(7) 0.80324(5) 0.01204(2)
O5 O 0.37994(18) 0.91525(13) 0.03560(4)
N7 N 0.46797(23) 0.77592(16) 0.01723(5)
N9 N 0.35681(25) 0.84037(18) 0.12871(5)
C21 C 0.35567(26) 0.91176(18) 0.07127(5)
H17 H 0.2084 0.9077 0.0025
C24 C 0.3088(3) 0.9829(2) 0.08304(6)
C25 C 0.3085(3) 0.9075(2) 0.13997(6)
H19 H 0.2892 0.9044 0.1641
C27 C 0.3815(3) 0.8445(2) 0.09458(6)
H21 H 0.4183 0.7994 0.0861
C28 C 0.2854(3) 0.9808(2) 0.11840(6)
Ag7_7 Ag 1.000 1.000 0.000
N21 N 0.18288(17) 0.15581(24) 0.03716(5)
N23 N 0.50704(18) 0.81689(18) 0.20462(5)
N24 N 0.18311(18) 0.69014(25) 0.20462(5)
N25 N 0.30986(25) 0.49296(18) 0.20462(5)
O2 O 0.13571(14) 0.51171(13) 0.97470(4)
N2 N 0.02707(17) 0.18288(17) 0.96284(5)
C2 C 0.09255(19) 0.3960(2) 0.95988(5)
C3 C 0.0729(2) 0.2932(2) 0.97823(6)
C6 C 0.0011(2) 0.1753(2) 0.92870(7)
C9 C 0.0210(3) 0.2744(3) 0.90878(7)
H7 H 0.0025 0.2649 0.8845
C10 C 0.0682(2) 0.3882(2) 0.92448(6)
H8 H 0.0834 0.4586 0.9114
O4 O 0.48829(13) 0.62400(19) 0.97470(4)
N5 N 0.81712(17) 0.84419(24) 0.96284(5)
C12 C 0.6040(2) 0.69655(28) 0.95988(5)
C13 C 0.7068(2) 0.7797(3) 0.97823(6)
C16 C 0.8247(2) 0.8258(3) 0.92870(7)
H12 H 0.9027 0.8698 0.9177
C19 C 0.7256(3) 0.7466(4) 0.90878(7)
H15 H 0.7351 0.7376 0.8845
C20 C 0.6118(2) 0.6800(3) 0.92448(6)
H16 H 0.5414 0.6248 0.9114
O6 O 0.37600(19) 0.86429(14) 0.97470(4)
N8 N 0.15581(24) 0.97293(17) 0.96284(5)
C22 C 0.30345(28) 0.90745(19) 0.95988(5)
C23 C 0.2203(3) 0.9271(2) 0.97823(6)
C26 C 0.1742(3) 0.9989(2) 0.92870(7)
C29 C 0.2534(4) 0.9790(3) 0.90878(7)
H23 H 0.2624 0.9975 0.8845
C30 C 0.3200(3) 0.9318(2) 0.92448(6)
H24 H 0.3752 0.9166 0.9114
Ag7_8 Ag 1.000 1.000 1.000
H28 H 0.0329 0.9027 0.0823
H26 H 0.032 0.7392 0.9326
H30 H 0.0295 0.7758 0.8723
H2 H 0.968 0.2608 0.0674
H6 H 0.9705 0.2242 0.1277
N22 N 0.84419(24) 0.02707(17) 0.03716(5)
H4 H 0.9671 0.0973 0.9177
O8 O 0.86429(14) 0.48829(13) 0.02530(4)
N11 N 0.97293(17) 0.81712(17) 0.03716(5)
C32 C 0.90745(19) 0.6040(2) 0.04012(5)
C33 C 0.9271(2) 0.7068(2) 0.02177(6)
C36 C 0.9989(2) 0.8247(2) 0.07130(7)
C39 C 0.9790(3) 0.7256(3) 0.09122(7)
H31 H 0.9975 0.7351 0.1155
C40 C 0.9318(2) 0.6118(2) 0.07552(6)
H32 H 0.9166 0.5414 0.0886
O10 O 0.51171(13) 0.37600(19) 0.02530(4)
C42 C 0.3960(2) 0.30345(28) 0.04012(5)
C43 C 0.2932(2) 0.2203(3) 0.02177(6)
C46 C 0.1753(2) 0.1742(3) 0.07130(7)
H36 H 0.0973 0.1302 0.0823
C49 C 0.2744(3) 0.2534(4) 0.09122(7)
H39 H 0.2649 0.2624 0.1155
C50 C 0.3882(2) 0.3200(3) 0.07552(6)
H40 H 0.4586 0.3752 0.0886
O12 O 0.62400(19) 0.13571(14) 0.02530(4)
C52 C 0.69655(28) 0.09255(19) 0.04012(5)
C53 C 0.7797(3) 0.0729(2) 0.02177(6)
C56 C 0.8258(3) 0.0011(2) 0.07130(7)
C59 C 0.7466(4) 0.0210(3) 0.09122(7)
H47 H 0.7376 0.0025 0.1155
C60 C 0.6800(3) 0.0682(2) 0.07552(6)
H48 H 0.6248 0.0834 0.0886
P4 P 0.80324(5) 0.44403(5) 0.98796(2)
O7 O 0.91525(13) 0.53531(13) 0.96440(4)
N10 N 0.77592(16) 0.30795(16) 0.98277(5)
N12 N 0.84037(18) 0.48356(18) 0.87129(5)
C31 C 0.91176(18) 0.55609(19) 0.92873(5)
H25 H 0.9077 0.6993 0.9975
C34 C 0.9829(2) 0.6741(2) 0.91696(6)
C35 C 0.9075(2) 0.5990(2) 0.86003(6)
H27 H 0.9044 0.6152 0.8359
C37 C 0.8445(2) 0.4630(2) 0.90542(6)
H29 H 0.7994 0.3811 0.9139
C38 C 0.9808(2) 0.6954(2) 0.88160(6)
P5 P 0.55597(5) 0.35921(7) 0.98796(2)
O9 O 0.46469(13) 0.37994(18) 0.96440(4)
N13 N 0.69205(16) 0.46797(23) 0.98277(5)
N15 N 0.51644(18) 0.35681(25) 0.87129(5)
C41 C 0.44391(19) 0.35567(26) 0.92873(5)
H33 H 0.3007 0.2084 0.9975
C44 C 0.3259(2) 0.3088(3) 0.91696(6)
H34 H 0.2608 0.2928 0.9326
C45 C 0.4010(2) 0.3085(3) 0.86003(6)
H35 H 0.3848 0.2892 0.8359
C47 C 0.5370(2) 0.3815(3) 0.90542(6)
H37 H 0.6189 0.4183 0.9139
C48 C 0.3046(2) 0.2854(3) 0.88160(6)
H38 H 0.2242 0.2537 0.8723
P6 P 0.64079(7) 0.19676(5) 0.98796(2)
O11 O 0.62006(18) 0.08475(13) 0.96440(4)
N16 N 0.53203(23) 0.22408(16) 0.98277(5)
N18 N 0.64319(25) 0.15963(18) 0.87129(5)
C51 C 0.64433(26) 0.08824(18) 0.92873(5)
H41 H 0.7916 0.0923 0.9975
C54 C 0.6912(3) 0.0171(2) 0.91696(6)
C55 C 0.6915(3) 0.0925(2) 0.86003(6)
H43 H 0.7108 0.0956 0.8359
C57 C 0.6185(3) 0.1555(2) 0.90542(6)
H45 H 0.5817 0.2006 0.9139
C58 C 0.7146(3) 0.0192(2) 0.88160(6)
Ag3 Ag 0.6666 0.3334 0.8334
H44 H 0.8698 0.9671 0.0823
H42 H 0.7072 0.968 0.9326
H46 H 0.7463 0.9705 0.8723
Ag1_2 Ag -0.0000 0.0000 0.5000
N5_2 N 0.48379(17) 0.17752(24) 0.29617(5)
C12_2 C 0.2707(2) 0.02988(28) 0.29321(5)
C13_2 C 0.3735(2) 0.1130(3) 0.31156(6)
H9_2 H 0.3660 0.1249 0.3358
C14_2 C 0.3408(2) 0.0245(3) 0.41637(6)
H10_2 H 0.4059 0.0405 0.4007
C15_2 C 0.2657(2) 0.0248(3) 0.47330(6)
H11_2 H 0.2819 0.0441 0.4974
C16_2 C 0.4914(2) 0.1591(3) 0.26203(7)
H12_2 H 0.5694 0.2031 0.2510
C18_2 C 0.3621(2) 0.0479(3) 0.45173(6)
H14_2 H 0.4425 0.0796 0.4610
C19_2 C 0.3923(3) 0.0799(4) 0.24211(7)
H15_2 H 0.4018 0.0709 0.2178
C20_2 C 0.2785(2) 0.0133(3) 0.25781(6)
P3_2 P 0.02588(7) 0.13657(5) 0.34537(2)
O5_2 O 0.04661(18) 0.24858(13) 0.36893(4)
O6_2 O 0.04267(19) 0.19762(14) 0.30803(4)
N7_2 N 0.13464(23) 0.10925(16) 0.35056(5)
N9_2 N 0.02348(25) 0.17370(18) 0.46204(5)
C21_2 C 0.02234(26) 0.24509(18) 0.40460(5)
C27_2 C 0.0482(3) 0.1778(2) 0.42791(6)
H21_2 H 0.0850 0.1327 0.4194
H24_2 H 0.0419 0.2499 0.2447
Ag7_9 Ag 0.666667 0.333333 0.333333
N23_2 N 0.17370(18) 0.15023(18) 0.53796(5)
Ag1_3 Ag -0.0000 1.0000 0.5000
P2_2 P 0.11070(5) 0.97412(7) 0.34537(2)
O3_2 O 0.20198(13) 0.95339(18) 0.36893(4)
O4_2 O 0.15496(13) 0.95733(19) 0.30803(4)
N6_2 N 0.15023(18) 0.97652(25) 0.46204(5)
C11_2 C 0.22276(19) 0.97766(26) 0.40460(5)
C17_2 C 0.1297(2) 0.9518(3) 0.42791(6)
H13_2 H 0.0478 0.9150 0.4194
H16_2 H 0.2081 0.9581 0.2447
Ag1_4 Ag 1.0000 0.0000 0.5000
N1_2 N 0.89075(16) 0.02538(16) 0.35056(5)
N8_2 N 0.82248(24) 0.30626(17) 0.29617(5)
C22_2 C 0.97012(28) 0.24078(19) 0.29321(5)
C23_2 C 0.8870(3) 0.2604(2) 0.31156(6)
H17_2 H 0.8751 0.2410 0.3358
C24_2 C 0.9755(3) 0.3162(2) 0.41637(6)
H18_2 H 0.9595 0.365333 0.4007
C25_2 C 0.9752(3) 0.2408(2) 0.47330(6)
H19_2 H 0.9559 0.2377 0.4974
C26_2 C 0.8409(3) 0.3322(2) 0.26203(7)
H20_2 H 0.7969 0.3662 0.2510
C28_2 C 0.9521(3) 0.3141(2) 0.45173(6)
H22_2 H 0.9204 0.3628 0.4610
C29_2 C 0.9201(4) 0.3123(3) 0.24211(7)
H23_2 H 0.9291 0.3308 0.2178
C30_2 C 0.9867(3) 0.2651(2) 0.25781(6)
N24_2 N 0.84977(18) 0.02348(25) 0.53796(5)
Ag1_5 Ag 1.0000 1.0000 0.5000
P1_2 P 0.86343(5) 0.88930(5) 0.34537(2)
O1_2 O 0.75142(13) 0.79802(13) 0.36893(4)
O2_2 O 0.80238(14) 0.84504(13) 0.30803(4)
N2_2 N 0.69374(17) 0.51621(17) 0.29617(5)
N3_2 N 0.82630(18) 0.84977(18) 0.46204(5)
C1_2 C 0.75491(18) 0.77724(19) 0.40460(5)
C2_2 C 0.75922(19) 0.7293(2) 0.29321(5)
C3_2 C 0.7396(2) 0.6265(2) 0.31156(6)
H1_2 H 0.7590 0.6340 0.3358
C4_2 C 0.6838(2) 0.6592(2) 0.41637(6)
H2_2 H 0.634667 0.5941 0.4007
C5_2 C 0.7592(2) 0.7343(2) 0.47330(6)
H3_2 H 0.7623 0.7181 0.4974
C6_2 C 0.6678(2) 0.5086(2) 0.26203(7)
H4_2 H 0.6338 0.4306 0.2510
C7_2 C 0.8222(2) 0.8703(2) 0.42791(6)
H5_2 H 0.8673 0.9522 0.4194
C8_2 C 0.6859(2) 0.6379(2) 0.45173(6)
H6_2 H 0.6372 0.5575 0.4610
C9_2 C 0.6877(3) 0.6077(3) 0.24211(7)
H7_2 H 0.6692 0.5982 0.2178
C10_2 C 0.7349(2) 0.7215(2) 0.25781(6)
H8_2 H 0.7501 0.7919 0.2447
N4_2 N 0.97462(16) 0.86536(23) 0.35056(5)
N11_2 N 0.63960(17) 0.15045(17) 0.37049(5)
C33_2 C 0.5938(2) 0.0401(2) 0.35510(6)
H25_2 H 0.5744 0.0326 0.3308
C34_2 C 0.6496(2) 0.0074(2) 0.25029(6)
H26_2 H 0.698667 0.0725 0.2659
C36_2 C 0.6656(2) 0.1580(2) 0.40463(7)
H28_2 H 0.6996 0.2360 0.4156
C38_2 C 0.6475(2) 0.0287(2) 0.21493(6)
H30_2 H 0.6962 0.1091 0.2056
C39_2 C 0.6457(3) 0.0589(3) 0.42455(7)
H31_2 H 0.6642 0.0684 0.4488
N21_2 N 0.84955(17) 0.48914(24) 0.37049(5)
N22_2 N 0.51086(24) 0.36040(17) 0.37049(5)
N25_2 N 0.97652(25) 0.82630(18) 0.53796(5)
P4_2 P 0.46991(5) 0.77736(5) 0.32129(2)
O7_2 O 0.58192(13) 0.86864(13) 0.29773(4)
O8_2 O 0.53096(14) 0.82162(13) 0.35863(4)
N10_2 N 0.44259(16) 0.64128(16) 0.31610(5)
C31_2 C 0.57843(18) 0.88942(19) 0.26206(5)
C32_2 C 0.57412(19) 0.9373(2) 0.37345(5)
C35_2 C 0.5742(2) 0.9323(2) 0.19336(6)
H27_2 H 0.5711 0.9485 0.1692
C37_2 C 0.5112(2) 0.7963(2) 0.23875(6)
H29_2 H 0.4661 0.7144 0.2472
C40_2 C 0.5985(2) 0.9451(2) 0.40885(6)
H32_2 H 0.5833 0.8747 0.4219
P5_2 P 0.22264(5) 0.69254(7) 0.32129(2)
O9_2 O 0.13136(13) 0.71327(18) 0.29773(4)
O10_2 O 0.17838(13) 0.70933(19) 0.35863(4)
N13_2 N 0.35872(16) 0.80130(23) 0.31610(5)
C41_2 C 0.11058(19) 0.68900(26) 0.26206(5)
C42_2 C 0.0627(2) 0.63678(28) 0.37345(5)
C45_2 C 0.0677(2) 0.6418(3) 0.19336(6)
H35_2 H 0.0515 0.6225 0.1692
C47_2 C 0.2037(2) 0.7148(3) 0.23875(6)
H37_2 H 0.2856 0.7516 0.2472
C50_2 C 0.0549(2) 0.6533(3) 0.40885(6)
H40_2 H 0.1253 0.7085 0.4219
P6_2 P 0.30746(7) 0.53009(5) 0.32129(2)
O11_2 O 0.28673(18) 0.41808(13) 0.29773(4)
O12_2 O 0.29067(19) 0.46904(14) 0.35863(4)
N16_2 N 0.19870(23) 0.55741(16) 0.31610(5)
C51_2 C 0.31100(26) 0.42157(18) 0.26206(5)
C52_2 C 0.36322(28) 0.42588(19) 0.37345(5)
C53_2 C 0.4464(3) 0.4062(2) 0.35510(6)
H41_2 H 0.4583 0.4256 0.3308
C54_2 C 0.3579(3) 0.3504(2) 0.25029(6)
H42_2 H 0.3739 0.301333 0.2659
C55_2 C 0.3582(3) 0.4258(2) 0.19336(6)
H43_2 H 0.3775 0.4289 0.1692
C56_2 C 0.4925(3) 0.3344(2) 0.40463(7)
H44_2 H 0.5365 0.3004 0.4156
C57_2 C 0.2852(3) 0.4888(2) 0.23875(6)
H45_2 H 0.2484 0.5339 0.2472
C58_2 C 0.3813(3) 0.3525(2) 0.21493(6)
H46_2 H 0.4130 0.3038 0.2056
C59_2 C 0.4133(4) 0.3543(3) 0.42455(7)
H47_2 H 0.4043 0.3358 0.4488
C60_2 C 0.3467(3) 0.4015(2) 0.40885(6)
H48_2 H 0.2915 0.4167 0.4219
C43_2 C 0.9599(2) 0.5536(3) 0.35510(6)
H33_2 H 0.9674 0.5417 0.3308
C44_2 C 0.9926(2) 0.6421(3) 0.25029(6)
H34_2 H 0.9275 0.6261 0.2659
C46_2 C 0.8420(2) 0.5075(3) 0.40463(7)
H36_2 H 0.7640 0.4635 0.4156
C48_2 C 0.9713(2) 0.6187(3) 0.21493(6)
H38_2 H 0.8909 0.5870 0.2056
C49_2 C 0.9411(3) 0.5867(4) 0.42455(7)
H39_2 H 0.9316 0.5957 0.4488
N5_3 N 0.15045(17) 0.51086(24) 0.62951(5)
C13_3 C 0.0401(2) 0.4464(3) 0.64490(6)
H9_3 H 0.0326 0.4583 0.6692
C14_3 C 0.0074(2) 0.3579(3) 0.74971(6)
H10_3 H 0.0725 0.3739 0.7341
C16_3 C 0.1580(2) 0.4925(3) 0.59537(7)
H12_3 H 0.2360 0.5365 0.5844
C18_3 C 0.0287(2) 0.3813(3) 0.78507(6)
H14_3 H 0.1091 0.4130 0.7944
C19_3 C 0.0589(3) 0.4133(4) 0.57545(7)
H15_3 H 0.0684 0.4043 0.5512
Ag7_10 Ag 0.333333 0.666667 0.666667
P1_3 P 0.53009(5) 0.22264(5) 0.67871(2)
O1_3 O 0.41808(13) 0.13136(13) 0.70227(4)
O2_3 O 0.46904(14) 0.17838(13) 0.64137(4)
N1_3 N 0.55741(16) 0.35872(16) 0.68390(5)
N3_3 N 0.49296(18) 0.18311(18) 0.79538(5)
C1_3 C 0.42157(18) 0.11058(19) 0.73794(5)
C2_3 C 0.42588(19) 0.0627(2) 0.62655(5)
C5_3 C 0.4258(2) 0.0677(2) 0.80664(6)
H3_3 H 0.4289 0.0515 0.8308
C7_3 C 0.4888(2) 0.2037(2) 0.76125(6)
H5_3 H 0.5339 0.2856 0.7528
C10_3 C 0.4015(2) 0.0549(2) 0.59115(6)
H8_3 H 0.4167 0.1253 0.5781
P2_3 P 0.77736(5) 0.30746(7) 0.67871(2)
O3_3 O 0.86864(13) 0.28673(18) 0.70227(4)
O4_3 O 0.82162(13) 0.29067(19) 0.64137(4)
N4_3 N 0.64128(16) 0.19870(23) 0.68390(5)
N6_3 N 0.81689(18) 0.30986(25) 0.79538(5)
C11_3 C 0.88942(19) 0.31100(26) 0.73794(5)
C12_3 C 0.9373(2) 0.36322(28) 0.62655(5)
C15_3 C 0.9323(2) 0.3582(3) 0.80664(6)
H11_3 H 0.9485 0.3775 0.8308
C17_3 C 0.7963(2) 0.2852(3) 0.76125(6)
H13_3 H 0.7144 0.2484 0.7528
C20_3 C 0.9451(2) 0.3467(3) 0.59115(6)
H16_3 H 0.8747 0.2915 0.5781
P3_3 P 0.69254(7) 0.46991(5) 0.67871(2)
O5_3 O 0.71327(18) 0.58192(13) 0.70227(4)
O6_3 O 0.70933(19) 0.53096(14) 0.64137(4)
N7_3 N 0.80130(23) 0.44259(16) 0.68390(5)
N8_3 N 0.48914(24) 0.63960(17) 0.62951(5)
N9_3 N 0.69014(25) 0.50704(18) 0.79538(5)
C21_3 C 0.68900(26) 0.57843(18) 0.73794(5)
C22_3 C 0.63678(28) 0.57412(19) 0.62655(5)
C23_3 C 0.5536(3) 0.5938(2) 0.64490(6)
H17_3 H 0.5417 0.5744 0.6692
C24_3 C 0.6421(3) 0.6496(2) 0.74971(6)
H18_3 H 0.6261 0.698667 0.7341
C25_3 C 0.6418(3) 0.5742(2) 0.80664(6)
H19_3 H 0.6225 0.5711 0.8308
C26_3 C 0.5075(3) 0.6656(2) 0.59537(7)
H20_3 H 0.4635 0.6996 0.5844
C27_3 C 0.7148(3) 0.5112(2) 0.76125(6)
H21_3 H 0.7516 0.4661 0.7528
C28_3 C 0.6187(3) 0.6475(2) 0.78507(6)
H22_3 H 0.5870 0.6962 0.7944
C29_3 C 0.5867(4) 0.6457(3) 0.57545(7)
H23_3 H 0.5957 0.6642 0.5512
C30_3 C 0.6533(3) 0.5985(2) 0.59115(6)
H24_3 H 0.7085 0.5833 0.5781
N2_3 N 0.36040(17) 0.84955(17) 0.62951(5)
C3_3 C 0.4062(2) 0.9599(2) 0.64490(6)
H1_3 H 0.4256 0.9674 0.6692
C4_3 C 0.3504(2) 0.9926(2) 0.74971(6)
H2_3 H 0.301333 0.9275 0.7341
C6_3 C 0.3344(2) 0.8420(2) 0.59537(7)
H4_3 H 0.3004 0.7640 0.5844
C8_3 C 0.3525(2) 0.9713(2) 0.78507(6)
H6_3 H 0.3038 0.8909 0.7944
C9_3 C 0.3543(3) 0.9411(3) 0.57545(7)
H7_3 H 0.3358 0.9316 0.5512
P4_3 P 0.13657(5) 0.11070(5) 0.65463(2)
O7_3 O 0.24858(13) 0.20198(13) 0.63107(4)
O8_3 O 0.19762(14) 0.15496(13) 0.69197(4)
N11_3 N 0.30626(17) 0.48379(17) 0.70383(5)
C31_3 C 0.24509(18) 0.22276(19) 0.59540(5)
C32_3 C 0.24078(19) 0.2707(2) 0.70679(5)
C33_3 C 0.2604(2) 0.3735(2) 0.68844(6)
H25_3 H 0.2410 0.3660 0.6642
C34_3 C 0.3162(2) 0.3408(2) 0.58363(6)
H26_3 H 0.365333 0.4059 0.5993
C35_3 C 0.2408(2) 0.2657(2) 0.52670(6)
H27_3 H 0.2377 0.2819 0.5026
C36_3 C 0.3322(2) 0.4914(2) 0.73797(7)
H28_3 H 0.3662 0.5694 0.7490
C37_3 C 0.1778(2) 0.1297(2) 0.57209(6)
H29_3 H 0.1327 0.0478 0.5806
C38_3 C 0.3141(2) 0.3621(2) 0.54827(6)
H30_3 H 0.3628 0.4425 0.5390
C39_3 C 0.3123(3) 0.3923(3) 0.75789(7)
H31_3 H 0.3308 0.4018 0.7822
C40_3 C 0.2651(2) 0.2785(2) 0.74219(6)
H32_3 H 0.2499 0.2081 0.7553
N13_3 N 0.02538(16) 0.13464(23) 0.64944(5)
N21_3 N 0.51621(17) 0.82248(24) 0.70383(5)
N22_3 N 0.17752(24) 0.69374(17) 0.70383(5)
N10_3 N 0.10925(16) 0.97462(16) 0.64944(5)
C52_3 C 0.02988(28) 0.75922(19) 0.70679(5)
C53_3 C 0.1130(3) 0.7396(2) 0.68844(6)
H41_3 H 0.1249 0.7590 0.6642
C54_3 C 0.0245(3) 0.6838(2) 0.58363(6)
H42_3 H 0.0405 0.634667 0.5993
C55_3 C 0.0248(3) 0.7592(2) 0.52670(6)
H43_3 H 0.0441 0.7623 0.5026
C56_3 C 0.1591(3) 0.6678(2) 0.73797(7)
H44_3 H 0.2031 0.6338 0.7490
C58_3 C 0.0479(3) 0.6859(2) 0.54827(6)
H46_3 H 0.0796 0.6372 0.5390
C59_3 C 0.0799(4) 0.6877(3) 0.75789(7)
H47_3 H 0.0709 0.6692 0.7822
C60_3 C 0.0133(3) 0.7349(2) 0.74219(6)
P5_3 P 0.88930(5) 0.02588(7) 0.65463(2)
O9_3 O 0.79802(13) 0.04661(18) 0.63107(4)
O10_3 O 0.84504(13) 0.04267(19) 0.69197(4)
C41_3 C 0.77724(19) 0.02234(26) 0.59540(5)
C47_3 C 0.8703(2) 0.0482(3) 0.57209(6)
H37_3 H 0.9522 0.0850 0.5806
H40_3 H 0.7919 0.0419 0.7553
C42_3 C 0.7293(2) 0.97012(28) 0.70679(5)
C43_3 C 0.6265(2) 0.8870(3) 0.68844(6)
H33_3 H 0.6340 0.8751 0.6642
C44_3 C 0.6592(2) 0.9755(3) 0.58363(6)
H34_3 H 0.5941 0.9595 0.5993
C45_3 C 0.7343(2) 0.9752(3) 0.52670(6)
H35_3 H 0.7181 0.9559 0.5026
C46_3 C 0.5086(2) 0.8409(3) 0.73797(7)
H36_3 H 0.4306 0.7969 0.7490
C48_3 C 0.6379(2) 0.9521(3) 0.54827(6)
H38_3 H 0.5575 0.9204 0.5390
C49_3 C 0.6077(3) 0.9201(4) 0.75789(7)
H39_3 H 0.5982 0.9291 0.7822
C50_3 C 0.7215(2) 0.9867(3) 0.74219(6)
P6_3 P 0.97412(7) 0.86343(5) 0.65463(2)
O11_3 O 0.95339(18) 0.75142(13) 0.63107(4)
O12_3 O 0.95733(19) 0.80238(14) 0.69197(4)
N16_3 N 0.86536(23) 0.89075(16) 0.64944(5)
C51_3 C 0.97766(26) 0.75491(18) 0.59540(5)
C57_3 C 0.9518(3) 0.8222(2) 0.57209(6)
H45_3 H 0.9150 0.8673 0.5806
H48_3 H 0.9581 0.7501 0.7553
loop_
_geom_bond_atom_site_label_1
_geom_bond_atom_site_label_2
_geom_bond_site_symmetry_1
_geom_bond_site_symmetry_2
Ag1 N3 1_555 1_555
P1 O1 1_555 1_555
O1 C1 1_555 1_555
N1 P1 1_555 1_555
N3 C5 1_555 1_555
C1 C4 1_555 1_555
C5 H3 1_555 1_555
C7 N3 1_555 1_555
H5 C7 1_555 1_555
C8 C4 1_555 1_555
P2 O3 1_555 1_555
O3 C11 1_555 1_555
N4 P1 1_555 1_555
N6 Ag1 1_555 1_555
C11 C14 1_555 1_555
C14 H10 1_555 1_555
C15 N6 1_555 1_555
H11 C15 1_555 1_555
C17 N6 1_555 1_555
H13 C17 1_555 1_555
C18 C14 1_555 1_555
H14 C18 1_555 1_555
P3 N1 1_555 1_555
O5 P3 1_555 1_555
N7 P2 1_555 1_555
N9 Ag1 1_555 1_555
C21 O5 1_555 1_555
C24 C21 1_555 1_555
C25 N9 1_555 1_555
H19 C25 1_555 1_555
C27 N9 1_555 1_555
H21 C27 1_555 1_555
C28 C24 1_555 1_555
N21 Ag7 1_555 1_555
N23 Ag1 1_555 1_555
N24 Ag1 1_555 1_555
N25 Ag1 1_555 1_555
C1 C7 1_555 1_555
C5 C8 1_555 1_555
P2 N4 1_555 1_555
C11 C17 1_555 1_555
C15 C18 1_555 1_555
P3 N7 1_555 1_555
C21 C27 1_555 1_555
C25 C28 1_555 1_555
Ag7_2 N2 1_555 1_555
N2 C3 1_555 1_555
C2 O2 1_555 1_555
C3 C2 1_555 1_555
C6 N2 1_555 1_555
C9 C6 1_555 1_555
H7 C9 1_555 1_555
C10 C2 1_555 1_555
H8 C10 1_555 1_555
N5 C13 1_555 1_555
C12 O4 1_555 1_555
C13 C12 1_555 1_555
C16 N5 1_555 1_555
H12 C16 1_555 1_555
C19 C16 1_555 1_555
H15 C19 1_555 1_555
C20 C12 1_555 1_555
H16 C20 1_555 1_555
N8 C23 1_555 1_555
C22 O6 1_555 1_555
C23 C22 1_555 1_555
C26 N8 1_555 1_555
C29 C26 1_555 1_555
H23 C29 1_555 1_555
C30 C22 1_555 1_555
H24 C30 1_555 1_555
Ag7_4 N8 1_555 1_555
Ag7_8 N5 1_555 1_555
C9 C10 1_555 1_555
C19 C20 1_555 1_555
C29 C30 1_555 1_555
N22 Ag7_5 1_555 1_555
N11 Ag7_7 1_555 1_555
C32 O8 1_555 1_555
C33 N11 1_555 1_555
C36 N11 1_555 1_555
C39 C36 1_555 1_555
H31 C39 1_555 1_555
C40 C32 1_555 1_555
H32 C40 1_555 1_555
N21 C43 1_555 1_555
C42 O10 1_555 1_555
C43 C42 1_555 1_555
C46 N21 1_555 1_555
H36 C46 1_555 1_555
C49 C46 1_555 1_555
H39 C49 1_555 1_555
C50 C42 1_555 1_555
H40 C50 1_555 1_555
N22 C53 1_555 1_555
C52 O12 1_555 1_555
C53 C52 1_555 1_555
C56 N22 1_555 1_555
C59 C56 1_555 1_555
H47 C59 1_555 1_555
C60 C52 1_555 1_555
H48 C60 1_555 1_555
C32 C33 1_555 1_555
C39 C40 1_555 1_555
C49 C50 1_555 1_555
C59 C60 1_555 1_555
P4 O7 1_555 1_555
O7 C31 1_555 1_555
N10 P4 1_555 1_555
N12 C35 1_555 1_555
C31 C34 1_555 1_555
C35 H27 1_555 1_555
C37 N12 1_555 1_555
H29 C37 1_555 1_555
C38 C34 1_555 1_555
P5 O9 1_555 1_555
O9 C41 1_555 1_555
N13 P4 1_555 1_555
N15 C45 1_555 1_555
C41 C44 1_555 1_555
C44 H34 1_555 1_555
C45 H35 1_555 1_555
C47 N15 1_555 1_555
H37 C47 1_555 1_555
C48 C44 1_555 1_555
H38 C48 1_555 1_555
P6 N10 1_555 1_555
O11 P6 1_555 1_555
N16 P5 1_555 1_555
N18 C55 1_555 1_555
C51 O11 1_555 1_555
C54 C51 1_555 1_555
C55 H43 1_555 1_555
C57 N18 1_555 1_555
H45 C57 1_555 1_555
C58 C54 1_555 1_555
Ag3 N12 1_555 1_555
C31 C37 1_555 1_555
C35 C38 1_555 1_555
P5 N13 1_555 1_555
N15 Ag3 1_555 1_555
C41 C47 1_555 1_555
C45 C48 1_555 1_555
P6 N16 1_555 1_555
N18 Ag3 1_555 1_555
C51 C57 1_555 1_555
C55 C58 1_555 1_555
N5_2 C13_2 1_555 1_555
C13_2 C12_2 1_555 1_555
H9_2 C13_2 1_555 1_555
C14_2 H10_2 1_555 1_555
H11_2 C15_2 1_555 1_555
C16_2 N5_2 1_555 1_555
H12_2 C16_2 1_555 1_555
C18_2 C14_2 1_555 1_555
H14_2 C18_2 1_555 1_555
C19_2 C16_2 1_555 1_555
H15_2 C19_2 1_555 1_555
C20_2 C12_2 1_555 1_555
O5_2 P3_2 1_555 1_555
O6_2 P3_2 1_555 1_555
N9_2 Ag1_2 1_555 1_555
C21_2 O5_2 1_555 1_555
C27_2 N9_2 1_555 1_555
H21_2 C27_2 1_555 1_555
Ag7_9 N5_2 1_555 1_555
N23_2 Ag1_2 1_555 1_555
C15_2 C18_2 1_555 1_555
C19_2 C20_2 1_555 1_555
P3_2 N7_2 1_555 1_555
C21_2 C27_2 1_555 1_555
P2_2 O3_2 1_555 1_555
O3_2 C11_2 1_555 1_555
O4_2 P2_2 1_555 1_555
N6_2 Ag1_3 1_555 1_555
C17_2 N6_2 1_555 1_555
H13_2 C17_2 1_555 1_555
C11_2 C17_2 1_555 1_555
N8_2 C23_2 1_555 1_555
C23_2 C22_2 1_555 1_555
H17_2 C23_2 1_555 1_555
H18_2 C24_2 1_555 1_555
H19_2 C25_2 1_555 1_555
C26_2 N8_2 1_555 1_555
H20_2 C26_2 1_555 1_555
C28_2 C24_2 1_555 1_555
H22_2 C28_2 1_555 1_555
C29_2 C26_2 1_555 1_555
H23_2 C29_2 1_555 1_555
C30_2 C22_2 1_555 1_555
Ag7_9 N8_2 1_555 1_555
N24_2 Ag1_4 1_555 1_555
C25_2 C28_2 1_555 1_555
C29_2 C30_2 1_555 1_555
Ag1_5 N3_2 1_555 1_555
Ag7_9 N2_2 1_555 1_555
P1_2 O1_2 1_555 1_555
O1_2 C1_2 1_555 1_555
O2_2 P1_2 1_555 1_555
N2_2 C3_2 1_555 1_555
N3_2 C5_2 1_555 1_555
C1_2 C4_2 1_555 1_555
C2_2 O2_2 1_555 1_555
C3_2 C2_2 1_555 1_555
H1_2 C3_2 1_555 1_555
C4_2 H2_2 1_555 1_555
C5_2 H3_2 1_555 1_555
C6_2 N2_2 1_555 1_555
H4_2 C6_2 1_555 1_555
C7_2 N3_2 1_555 1_555
H5_2 C7_2 1_555 1_555
C8_2 C4_2 1_555 1_555
H6_2 C8_2 1_555 1_555
C9_2 C6_2 1_555 1_555
H7_2 C9_2 1_555 1_555
C10_2 C2_2 1_555 1_555
H8_2 C10_2 1_555 1_555
N4_2 P1_2 1_555 1_555
N11_2 Ag7_9 1_555 1_555
C33_2 N11_2 1_555 1_555
H25_2 C33_2 1_555 1_555
C34_2 H26_2 1_555 1_555
C36_2 N11_2 1_555 1_555
H28_2 C36_2 1_555 1_555
C38_2 C34_2 1_555 1_555
H30_2 C38_2 1_555 1_555
C39_2 C36_2 1_555 1_555
H31_2 C39_2 1_555 1_555
N21_2 Ag7_9 1_555 1_555
N22_2 Ag7_9 1_555 1_555
N25_2 Ag1_5 1_555 1_555
C1_2 C7_2 1_555 1_555
C5_2 C8_2 1_555 1_555
C9_2 C10_2 1_555 1_555
P4_2 O7_2 1_555 1_555
O7_2 C31_2 1_555 1_555
O8_2 P4_2 1_555 1_555
N10_2 P4_2 1_555 1_555
N23 C35_2 1_555 1_555
C32_2 O8_2 1_555 1_555
C35_2 H27_2 1_555 1_555
C37_2 N23 1_555 1_555
H29_2 C37_2 1_555 1_555
C40_2 C32_2 1_555 1_555
H32_2 C40_2 1_555 1_555
P5_2 O9_2 1_555 1_555
O9_2 C41_2 1_555 1_555
O10_2 P5_2 1_555 1_555
N13_2 P4_2 1_555 1_555
N24 C45_2 1_555 1_555
C42_2 O10_2 1_555 1_555
C45_2 H35_2 1_555 1_555
C47_2 N24 1_555 1_555
H37_2 C47_2 1_555 1_555
C50_2 C42_2 1_555 1_555
H40_2 C50_2 1_555 1_555
P6_2 N10_2 1_555 1_555
O11_2 P6_2 1_555 1_555
O12_2 P6_2 1_555 1_555
N16_2 P5_2 1_555 1_555
N22_2 C53_2 1_555 1_555
N25 C55_2 1_555 1_555
C51_2 O11_2 1_555 1_555
C52_2 O12_2 1_555 1_555
C53_2 C52_2 1_555 1_555
H41_2 C53_2 1_555 1_555
C54_2 C51_2 1_555 1_555
H42_2 C54_2 1_555 1_555
C55_2 H43_2 1_555 1_555
C56_2 N22_2 1_555 1_555
H44_2 C56_2 1_555 1_555
C57_2 N25 1_555 1_555
H45_2 C57_2 1_555 1_555
C58_2 C54_2 1_555 1_555
H46_2 C58_2 1_555 1_555
C59_2 C56_2 1_555 1_555
H47_2 C59_2 1_555 1_555
C60_2 C52_2 1_555 1_555
H48_2 C60_2 1_555 1_555
C31_2 C37_2 1_555 1_555
P5_2 N13_2 1_555 1_555
C41_2 C47_2 1_555 1_555
P6_2 N16_2 1_555 1_555
C51_2 C57_2 1_555 1_555
C55_2 C58_2 1_555 1_555
C59_2 C60_2 1_555 1_555
N21_2 C43_2 1_555 1_555
H33_2 C43_2 1_555 1_555
C44_2 H34_2 1_555 1_555
C46_2 N21_2 1_555 1_555
H36_2 C46_2 1_555 1_555
C48_2 C44_2 1_555 1_555
H38_2 C48_2 1_555 1_555
C49_2 C46_2 1_555 1_555
H39_2 C49_2 1_555 1_555
N5_3 C13_3 1_555 1_555
H9_3 C13_3 1_555 1_555
C14_3 H10_3 1_555 1_555
C16_3 N5_3 1_555 1_555
H12_3 C16_3 1_555 1_555
C18_3 C14_3 1_555 1_555
H14_3 C18_3 1_555 1_555
C19_3 C16_3 1_555 1_555
H15_3 C19_3 1_555 1_555
Ag7_10 N5_3 1_555 1_555
Ag3 N3_3 1_555 1_555
P1_3 O1_3 1_555 1_555
O1_3 C1_3 1_555 1_555
O2_3 P1_3 1_555 1_555
N1_3 P1_3 1_555 1_555
N3_3 C5_3 1_555 1_555
C2_3 O2_3 1_555 1_555
C5_3 H3_3 1_555 1_555
C7_3 N3_3 1_555 1_555
H5_3 C7_3 1_555 1_555
C10_3 C2_3 1_555 1_555
H8_3 C10_3 1_555 1_555
P2_3 O3_3 1_555 1_555
O3_3 C11_3 1_555 1_555
O4_3 P2_3 1_555 1_555
N4_3 P1_3 1_555 1_555
N6_3 Ag3 1_555 1_555
C12_3 O4_3 1_555 1_555
C15_3 N6_3 1_555 1_555
H11_3 C15_3 1_555 1_555
C17_3 N6_3 1_555 1_555
H13_3 C17_3 1_555 1_555
C20_3 C12_3 1_555 1_555
H16_3 C20_3 1_555 1_555
P3_3 N1_3 1_555 1_555
O5_3 P3_3 1_555 1_555
O6_3 P3_3 1_555 1_555
N7_3 P2_3 1_555 1_555
N8_3 C23_3 1_555 1_555
N9_3 Ag3 1_555 1_555
C21_3 O5_3 1_555 1_555
C22_3 O6_3 1_555 1_555
C23_3 C22_3 1_555 1_555
H17_3 C23_3 1_555 1_555
C24_3 C21_3 1_555 1_555
H18_3 C24_3 1_555 1_555
C25_3 N9_3 1_555 1_555
H19_3 C25_3 1_555 1_555
C26_3 N8_3 1_555 1_555
H20_3 C26_3 1_555 1_555
C27_3 N9_3 1_555 1_555
H21_3 C27_3 1_555 1_555
C28_3 C24_3 1_555 1_555
H22_3 C28_3 1_555 1_555
C29_3 C26_3 1_555 1_555
H23_3 C29_3 1_555 1_555
C30_3 C22_3 1_555 1_555
H24_3 C30_3 1_555 1_555
Ag7_10 N8_3 1_555 1_555
C1_3 C7_3 1_555 1_555
P2_3 N4_3 1_555 1_555
C11_3 C17_3 1_555 1_555
P3_3 N7_3 1_555 1_555
C21_3 C27_3 1_555 1_555
C25_3 C28_3 1_555 1_555
C29_3 C30_3 1_555 1_555
Ag7_10 N2_3 1_555 1_555
N2_3 C3_3 1_555 1_555
H1_3 C3_3 1_555 1_555
C4_3 H2_3 1_555 1_555
C6_3 N2_3 1_555 1_555
H4_3 C6_3 1_555 1_555
C8_3 C4_3 1_555 1_555
H6_3 C8_3 1_555 1_555
C9_3 C6_3 1_555 1_555
H7_3 C9_3 1_555 1_555
P4_3 O7_3 1_555 1_555
O7_3 C31_3 1_555 1_555
O8_3 P4_3 1_555 1_555
N11_3 Ag7_10 1_555 1_555
N23_2 C35_3 1_555 1_555
C31_3 C34_3 1_555 1_555
C32_3 O8_3 1_555 1_555
C33_3 N11_3 1_555 1_555
H25_3 C33_3 1_555 1_555
C34_3 H26_3 1_555 1_555
C35_3 H27_3 1_555 1_555
C36_3 N11_3 1_555 1_555
H28_3 C36_3 1_555 1_555
C37_3 N23_2 1_555 1_555
H29_3 C37_3 1_555 1_555
C38_3 C34_3 1_555 1_555
H30_3 C38_3 1_555 1_555
C39_3 C36_3 1_555 1_555
H31_3 C39_3 1_555 1_555
C40_3 C32_3 1_555 1_555
H32_3 C40_3 1_555 1_555
N13_3 P4_3 1_555 1_555
N21_3 Ag7_10 1_555 1_555
N22_3 Ag7_10 1_555 1_555
C31_3 C37_3 1_555 1_555
C32_3 C33_3 1_555 1_555
C35_3 C38_3 1_555 1_555
C39_3 C40_3 1_555 1_555
N22_3 C53_3 1_555 1_555
C53_3 C52_3 1_555 1_555
H41_3 C53_3 1_555 1_555
H42_3 C54_3 1_555 1_555
C55_3 H43_3 1_555 1_555
C56_3 N22_3 1_555 1_555
H44_3 C56_3 1_555 1_555
C58_3 C54_3 1_555 1_555
H46_3 C58_3 1_555 1_555
C59_3 C56_3 1_555 1_555
H47_3 C59_3 1_555 1_555
C60_3 C52_3 1_555 1_555
C55_3 C58_3 1_555 1_555
C59_3 C60_3 1_555 1_555
P5_3 O9_3 1_555 1_555
O9_3 C41_3 1_555 1_555
O10_3 P5_3 1_555 1_555
C47_3 N24_2 1_555 1_555
H37_3 C47_3 1_555 1_555
C41_3 C47_3 1_555 1_555
N21_3 C43_3 1_555 1_555
C43_3 C42_3 1_555 1_555
H33_3 C43_3 1_555 1_555
C44_3 H34_3 1_555 1_555
C45_3 H35_3 1_555 1_555
C46_3 N21_3 1_555 1_555
H36_3 C46_3 1_555 1_555
C48_3 C44_3 1_555 1_555
H38_3 C48_3 1_555 1_555
C49_3 C46_3 1_555 1_555
H39_3 C49_3 1_555 1_555
C50_3 C42_3 1_555 1_555
O11_3 P6_3 1_555 1_555
O12_3 P6_3 1_555 1_555
C51_3 O11_3 1_555 1_555
C57_3 N25_2 1_555 1_555
H45_3 C57_3 1_555 1_555
C45_3 C48_3 1_555 1_555
C49_3 C50_3 1_555 1_555
P6_3 N16_3 1_555 1_555
C51_3 C57_3 1_555 1_555

#END
