
###############################################################################
#
# This file contains modified crystal structure data generated from the
# MOF subset of the Cambridge Structural Database (CSD) v543 
# hosted by the Cambridge Crystallographic Data Centre (CCDC).
#
# This work is licensed under the Creative Commons
# Attribution-NonCommercial-ShareAlike 4.0 International License.
# To view a copy of this license, visit
# http://creativecommons.org/licenses/by-nc-sa/4.0/
# or send a letter to
# Creative Commons, PO Box 1866, Mountain View, CA 94042, USA.
#
# CIF created using the CSD Python API on 29 September 2022
# The structure has been converted into the P1 space group
# The structure has a 3D framework
# The original CSD entry OMENUR is in the monoclinic crystal system
# The framework has been calculated to contain at least 10.0% void space
# The void calculation uses a probe of radius 1.32A, grid spacing 0.4
#
###############################################################################

data_OMENUR
_chemical_formula_moiety         '(C224 H164 N32 Ni28 O84)n'
_symmetry_cell_setting           triclinic
_symmetry_space_group_name_H-M   'P 1'
_symmetry_Int_Tables_number      1
_space_group_name_Hall           'P 1'
loop_
_symmetry_equiv_pos_site_id
_symmetry_equiv_pos_as_xyz
1 x,y,z
_cell_length_a                   31.086(6)
_cell_length_b                   12.676(3)
_cell_length_c                   16.113(3)
_cell_angle_alpha                90
_cell_angle_beta                 102.06(3)
_cell_angle_gamma                90
_cell_volume                     6209.13
loop_
_atom_site_label
_atom_site_type_symbol
_atom_site_fract_x
_atom_site_fract_y
_atom_site_fract_z
Ni15 Ni 0.00627(3) 0.70746(9) 0.04125(7)
Ni10 Ni 0.00627(3) 0.29254(9) 0.54125(7)
Ni16 Ni 0.04966(3) 0.49568(10) 0.50741(8)
O29 O 0.00442(18) 0.5910(5) 0.5462(4)
Ni1 Ni 0.58349(3) 0.77661(9) 0.68735(8)
Ni2 Ni 0.50627(3) 0.79254(9) 0.54125(7)
Ni3 Ni 0.5000 0.29722(13) 0.2500
Ni4 Ni 0.95034(3) 0.50432(10) 0.49259(8)
O1 O 0.61193(19) 0.7145(5) 0.5957(4)
O2 O 0.55264(19) 0.7158(5) 0.4884(4)
O3 O 0.5444(2) 0.4109(5) 0.2972(4)
O4 O 0.60664(18) 0.3486(5) 0.2645(4)
O5 O 0.89745(19) 0.5771(6) 0.5355(5)
O6 O 0.88685(19) 0.4422(6) 0.4481(5)
O7 O 0.55329(19) 0.8958(5) 0.6093(4)
H1 H 0.5366 0.9179 0.6415
O8 O 0.99558(18) 0.4090(5) 0.4538(4)
H2 H 0.9875 0.4160 0.4005
O9 O 0.47625(19) 0.2972(5) 0.3557(4)
H3 H 0.4784 0.3743 0.3633
O10 O 0.45173(19) 0.1798(5) 0.2149(4)
O11 O 0.45967(19) 0.1131(5) 0.0907(4)
N1 N 0.6399(2) 0.8602(7) 0.7366(5)
N2 N 0.7098(3) 0.8998(8) 0.7895(6)
N3 N 0.8925(3) 0.8696(8) 0.9116(6)
N4 N 0.9575(2) 0.8056(6) 0.9748(5)
C1 C 0.5917(3) 0.6911(7) 0.5241(6)
C2 C 0.6149(3) 0.6229(7) 0.4716(6)
C3 C 0.5908(3) 0.5541(7) 0.4092(6)
H4 H 0.5596 0.5564 0.3969
C4 C 0.6118(3) 0.4854(7) 0.3673(6)
C5 C 0.6575(3) 0.4810(9) 0.3826(7)
H5 H 0.6716 0.4326 0.3518
C6 C 0.6827(3) 0.5467(8) 0.4424(7)
C7 C 0.6616(3) 0.6160(8) 0.4884(6)
H6 H 0.6786 0.6588 0.5315
C8 C 0.5850(3) 0.4073(8) 0.3043(6)
C9 C 0.73206(16) 0.5396(7) 0.4549(6)
C10 C 0.7587(2) 0.6114(6) 0.5072(6)
H7 H 0.7458 0.6651 0.5352
C11 C 0.8042(2) 0.6047(7) 0.5186(6)
H8 H 0.8223 0.6538 0.5544
C12 C 0.82304(17) 0.5262(7) 0.4777(6)
C13 C 0.7964(3) 0.4544(8) 0.4253(7)
H9 H 0.8093 0.4008 0.3973
C14 C 0.7509(2) 0.4611(8) 0.4139(7)
H10 H 0.7328 0.4120 0.3781
C15 C 0.8723(3) 0.5139(8) 0.4864(7)
C16 C 0.6439(3) 0.9689(10) 0.7456(9)
C17 C 0.6866(4) 0.9944(11) 0.7795(10)
C18 C 0.6793(3) 0.8232(10) 0.7638(8)
H13 H 0.6861 0.7501 0.7657
C19 C 0.9145(3) 0.7916(8) 0.9606(7)
H14 H 0.9006 0.7339 0.9821
C20 C 0.84575(19) 0.8808(8) 0.8846(7)
C21 C 0.8177(3) 0.8084(8) 0.9106(8)
H15 H 0.8294 0.7532 0.9485
C22 C 0.7725(3) 0.8167(9) 0.8810(8)
H16 H 0.7533 0.7673 0.8987
C23 C 0.75537(17) 0.8975(9) 0.8255(7)
C24 C 0.7835(2) 0.9699(7) 0.7995(7)
C25 C 0.8286(2) 0.9616(8) 0.8291(7)
C26 C 0.9241(3) 0.9419(10) 0.8957(8)
C27 C 0.9629(3) 0.9021(10) 0.9356(8)
H20 H 0.9905 0.9350 0.9370
C28 C 0.4419(3) 0.1171(8) 0.1536(6)
H21 H 0.4204 0.0667 0.1549
Ni7 Ni 0.04966(3) 0.50432(10) 0.00741(8)
O13 O 0.44736(19) 0.7158(5) 0.0116(4)
O14 O 0.4556(2) 0.4109(5) 0.2028(4)
O15 O 0.39336(18) 0.3486(5) 0.2355(4)
O17 O 0.11315(19) 0.4422(6) 0.0519(5)
O19 O 0.00442(18) 0.4090(5) 0.0462(4)
H23 H 0.0125 0.4160 0.0995
O20 O 0.52375(19) 0.2972(5) 0.1443(4)
H24 H 0.5216 0.3743 0.1367
O21 O 0.54827(19) 0.1798(5) 0.2851(4)
O22 O 0.54033(19) 0.1131(5) 0.4093(4)
C30 C 0.3851(3) 0.6229(7) 0.0284(6)
C31 C 0.4092(3) 0.5541(7) 0.0908(6)
H25 H 0.4404 0.5564 0.1031
C32 C 0.3882(3) 0.4854(7) 0.1327(6)
C33 C 0.3425(3) 0.4810(9) 0.1174(7)
H26 H 0.3284 0.4326 0.1482
C34 C 0.3173(3) 0.5467(8) 0.0576(7)
C35 C 0.3384(3) 0.6160(8) 0.0116(6)
C36 C 0.4150(3) 0.4073(8) 0.1957(6)
C37 C 0.26794(16) 0.5396(7) 0.0451(6)
C40 C 0.17696(17) 0.5262(7) 0.0223(6)
C41 C 0.2036(3) 0.4544(8) 0.0747(7)
H30 H 0.1907 0.4008 0.1027
C42 C 0.2491(2) 0.4611(8) 0.0861(7)
H31 H 0.2672 0.4120 0.1219
C43 C 0.1277(3) 0.5139(8) 0.0136(7)
C56 C 0.5581(3) 0.1171(8) 0.3464(6)
H42 H 0.5796 0.0667 0.3451
Ni8 Ni 0.41651(3) 0.22339(9) 0.31265(8)
Ni9 Ni 0.58349(3) 0.22339(9) 0.18735(8)
Ni12 Ni 0.49373(3) 0.20746(9) 0.45875(7)
Ni13 Ni 0.50627(3) 0.20746(9) 0.04125(7)
Ni19 Ni 0.54966(3) 0.99568(10) 0.50741(8)
O24 O 0.60664(18) 0.6514(5) 0.7645(4)
O25 O 0.94671(19) 0.6042(5) 0.3907(4)
O26 O 0.05329(19) 0.6042(5) 0.1093(4)
O27 O 0.49558(18) 0.9090(5) 0.4538(4)
O28 O 0.50442(18) 0.9090(5) 0.0462(4)
O31 O 0.52375(19) 0.7028(5) 0.6443(4)
O33 O 0.54827(19) 0.8202(5) 0.7851(4)
O36 O 0.45967(19) 0.8869(5) 0.5907(4)
O38 O 0.95967(19) 0.3869(5) 0.5907(4)
N9 N 0.5425(2) 0.6944(6) 0.0252(5)
N10 N 0.4575(2) 0.6944(6) 0.4748(5)
Ni5 Ni 0.41651(3) 0.77661(9) 0.81265(8)
Ni6 Ni 0.49373(3) 0.79254(9) 0.95875(7)
O12 O 0.38807(19) 0.7145(5) 0.9043(4)
O16 O 0.10255(19) 0.5771(6) 0.9645(5)
O18 O 0.44671(19) 0.8958(5) 0.8907(4)
H22 H 0.4634 0.9179 0.8585
N5 N 0.3601(2) 0.8602(7) 0.7634(5)
N6 N 0.2902(3) 0.8998(8) 0.7105(6)
N7 N 0.1075(3) 0.8696(8) 0.5884(6)
N8 N 0.0425(2) 0.8056(6) 0.5252(5)
C29 C 0.4083(3) 0.6911(7) 0.9759(6)
H27 H 0.3214 0.6588 0.9685
C38 C 0.2413(2) 0.6114(6) 0.9928(6)
H28 H 0.2542 0.6651 0.9648
C39 C 0.1958(2) 0.6047(7) 0.9814(6)
H29 H 0.1777 0.6538 0.9456
C44 C 0.3561(3) 0.9689(10) 0.7544(9)
C45 C 0.3134(4) 0.9944(11) 0.7205(10)
C46 C 0.3207(3) 0.8232(10) 0.7362(8)
H34 H 0.3139 0.7501 0.7343
C47 C 0.0855(3) 0.7916(8) 0.5394(7)
H35 H 0.0994 0.7339 0.5179
C48 C 0.15425(19) 0.8808(8) 0.6154(7)
C49 C 0.1823(3) 0.8084(8) 0.5894(8)
H36 H 0.1706 0.7532 0.5515
C50 C 0.2275(3) 0.8167(9) 0.6190(8)
H37 H 0.2467 0.7673 0.6013
C51 C 0.24463(17) 0.8975(9) 0.6745(7)
C52 C 0.2165(2) 0.9699(7) 0.7005(7)
C53 C 0.1714(2) 0.9616(8) 0.6709(7)
C54 C 0.0759(3) 0.9419(10) 0.6043(8)
C55 C 0.0371(3) 0.9021(10) 0.5644(8)
H41 H 0.0095 0.9350 0.5630
Ni21 Ni 0.45034(3) 0.99568(10) 0.99259(8)
O23 O 0.39336(18) 0.6514(5) 0.7355(4)
O32 O 0.47625(19) 0.7028(5) 0.8557(4)
O34 O 0.45173(19) 0.8202(5) 0.7149(4)
O35 O 0.54033(19) 0.8869(5) 0.9093(4)
O37 O 0.04033(19) 0.3869(5) 0.9093(4)
Ni11 Ni 0.99373(3) 0.29254(9) 0.95875(7)
Ni14 Ni 0.99373(3) 0.70746(9) 0.45875(7)
Ni17 Ni 0.95034(3) 0.49568(10) 0.99259(8)
O30 O 0.99558(18) 0.5910(5) 0.9538(4)
Ni1_2 Ni 0.08349(3) 0.27661(9) 0.68735(8)
Ni4_2 Ni 0.45034(3) 0.00432(10) 0.49259(8)
O1_2 O 0.11193(19) 0.2145(5) 0.5957(4)
O2_2 O 0.05264(19) 0.2158(5) 0.4884(4)
O5_2 O 0.39745(19) 0.0771(6) 0.5355(5)
O7_2 O 0.05329(19) 0.3958(5) 0.6093(4)
H1_2 H 0.0366 0.4179 0.6415
N1_2 N 0.1399(2) 0.3602(7) 0.7366(5)
N2_2 N 0.2098(3) 0.3998(8) 0.7895(6)
N3_2 N 0.3925(3) 0.3696(8) 0.9116(6)
N4_2 N 0.4575(2) 0.3056(6) 0.9748(5)
C1_2 C 0.0917(3) 0.1911(7) 0.5241(6)
C2_2 C 0.1149(3) 0.1229(7) 0.4716(6)
C3_2 C 0.0908(3) 0.0541(7) 0.4092(6)
H4_2 H 0.0596 0.0564 0.3969
C6_2 C 0.1827(3) 0.0467(8) 0.4424(7)
C7_2 C 0.1616(3) 0.1160(8) 0.4884(6)
H6_2 H 0.1786 0.1588 0.5315
C9_2 C 0.23206(16) 0.0396(7) 0.4549(6)
C10_2 C 0.2587(2) 0.1114(6) 0.5072(6)
H7_2 H 0.2458 0.1651 0.5352
C11_2 C 0.3042(2) 0.1047(7) 0.5186(6)
H8_2 H 0.3223 0.1538 0.5544
C12_2 C 0.32304(17) 0.0262(7) 0.4777(6)
C15_2 C 0.3723(3) 0.0139(8) 0.4864(7)
C16_2 C 0.1439(3) 0.4689(10) 0.7456(9)
H11 H 0.1205 0.5180 0.7305
C17_2 C 0.1866(4) 0.4944(11) 0.7795(10)
H12 H 0.1982 0.5629 0.7936
C18_2 C 0.1793(3) 0.3232(10) 0.7638(8)
H13_2 H 0.1861 0.2501 0.7657
C19_2 C 0.4145(3) 0.2916(8) 0.9606(7)
H14_2 H 0.4006 0.2339 0.9821
C20_2 C 0.34575(19) 0.3808(8) 0.8846(7)
C21_2 C 0.3177(3) 0.3084(8) 0.9106(8)
H15_2 H 0.3294 0.2532 0.9485
C22_2 C 0.2725(3) 0.3167(9) 0.8810(8)
H16_2 H 0.2533 0.2673 0.8987
C23_2 C 0.25537(17) 0.3975(9) 0.8255(7)
C24_2 C 0.2835(2) 0.4699(7) 0.7995(7)
H17 H 0.2718 0.5251 0.7616
C25_2 C 0.3286(2) 0.4616(8) 0.8291(7)
H18 H 0.3478 0.5111 0.8114
C26_2 C 0.4241(3) 0.4419(10) 0.8957(8)
H19 H 0.4191 0.5053 0.8637
C27_2 C 0.4629(3) 0.4021(10) 0.9356(8)
H20_2 H 0.4905 0.4350 0.9370
O24_2 O 0.10664(18) 0.1514(5) 0.7645(4)
O25_2 O 0.44671(19) 0.1042(5) 0.3907(4)
O29_2 O 0.50442(18) 0.0910(5) 0.5462(4)
O31_2 O 0.02375(19) 0.2028(5) 0.6443(4)
O33_2 O 0.04827(19) 0.3202(5) 0.7851(4)
N9_2 N 0.0425(2) 0.1944(6) 0.0252(5)
Ni3_2 Ni 0.0000 0.79722(13) 0.2500
O3_2 O 0.0444(2) 0.9109(5) 0.2972(4)
O4_2 O 0.10664(18) 0.8486(5) 0.2645(4)
O6_2 O 0.38685(19) 0.9422(6) 0.4481(5)
H2_2 H 0.4875 0.9160 0.4005
C4_2 C 0.1118(3) 0.9854(7) 0.3673(6)
C5_2 C 0.1575(3) 0.9810(9) 0.3826(7)
H5_2 H 0.1716 0.9326 0.3518
C8_2 C 0.0850(3) 0.9073(8) 0.3043(6)
C13_2 C 0.2964(3) 0.9544(8) 0.4253(7)
H9_2 H 0.3093 0.9008 0.3973
C14_2 C 0.2509(2) 0.9611(8) 0.4139(7)
H10_2 H 0.2328 0.9120 0.3781
O20_2 O 0.02375(19) 0.7972(5) 0.1443(4)
H24_2 H 0.0216 0.8743 0.1367
O21_2 O 0.04827(19) 0.6798(5) 0.2851(4)
O22_2 O 0.04033(19) 0.6131(5) 0.4093(4)
C56_2 C 0.0581(3) 0.6171(8) 0.3464(6)
H42_2 H 0.0796 0.5667 0.3451
Ni9_2 Ni 0.08349(3) 0.72339(9) 0.18735(8)
Ni7_2 Ni 0.54966(3) 0.00432(10) 0.00741(8)
O13_2 O 0.94736(19) 0.2158(5) 0.0116(4)
C30_2 C 0.8851(3) 0.1229(7) 0.0284(6)
C31_2 C 0.9092(3) 0.0541(7) 0.0908(6)
H25_2 H 0.9404 0.0564 0.1031
C34_2 C 0.8173(3) 0.0467(8) 0.0576(7)
C35_2 C 0.8384(3) 0.1160(8) 0.0116(6)
C37_2 C 0.76794(16) 0.0396(7) 0.0451(6)
C40_2 C 0.67696(17) 0.0262(7) 0.0223(6)
C43_2 C 0.6277(3) 0.0139(8) 0.0136(7)
O26_2 O 0.55329(19) 0.1042(5) 0.1093(4)
N10_2 N 0.9575(2) 0.1944(6) 0.4748(5)
Ni5_2 Ni 0.91651(3) 0.27661(9) 0.81265(8)
O12_2 O 0.88807(19) 0.2145(5) 0.9043(4)
O16_2 O 0.60255(19) 0.0771(6) 0.9645(5)
O18_2 O 0.94671(19) 0.3958(5) 0.8907(4)
H22_2 H 0.9634 0.4179 0.8585
N5_2 N 0.8601(2) 0.3602(7) 0.7634(5)
N6_2 N 0.7902(3) 0.3998(8) 0.7105(6)
N7_2 N 0.6075(3) 0.3696(8) 0.5884(6)
N8_2 N 0.5425(2) 0.3056(6) 0.5252(5)
C29_2 C 0.9083(3) 0.1911(7) 0.9759(6)
H27_2 H 0.8214 0.1588 0.9685
C38_2 C 0.7413(2) 0.1114(6) 0.9928(6)
H28_2 H 0.7542 0.1651 0.9648
C39_2 C 0.6958(2) 0.1047(7) 0.9814(6)
H29_2 H 0.6777 0.1538 0.9456
C44_2 C 0.8561(3) 0.4689(10) 0.7544(9)
H32 H 0.8795 0.5180 0.7695
C45_2 C 0.8134(4) 0.4944(11) 0.7205(10)
H33 H 0.8018 0.5629 0.7064
C46_2 C 0.8207(3) 0.3232(10) 0.7362(8)
H34_2 H 0.8139 0.2501 0.7343
C47_2 C 0.5855(3) 0.2916(8) 0.5394(7)
H35_2 H 0.5994 0.2339 0.5179
C48_2 C 0.65425(19) 0.3808(8) 0.6154(7)
C49_2 C 0.6823(3) 0.3084(8) 0.5894(8)
H36_2 H 0.6706 0.2532 0.5515
C50_2 C 0.7275(3) 0.3167(9) 0.6190(8)
H37_2 H 0.7467 0.2673 0.6013
C51_2 C 0.74463(17) 0.3975(9) 0.6745(7)
C52_2 C 0.7165(2) 0.4699(7) 0.7005(7)
H38 H 0.7282 0.5251 0.7384
C53_2 C 0.6714(2) 0.4616(8) 0.6709(7)
H39 H 0.6522 0.5111 0.6886
C54_2 C 0.5759(3) 0.4419(10) 0.6043(8)
H40 H 0.5809 0.5053 0.6363
C55_2 C 0.5371(3) 0.4021(10) 0.5644(8)
H41_2 H 0.5095 0.4350 0.5630
O23_2 O 0.89336(18) 0.1514(5) 0.7355(4)
O30_2 O 0.49558(18) 0.0910(5) 0.9538(4)
O32_2 O 0.97625(19) 0.2028(5) 0.8557(4)
O34_2 O 0.95173(19) 0.3202(5) 0.7149(4)
Ni3_3 Ni 1.0000 0.79722(13) 0.2500
O9_2 O 0.97625(19) 0.7972(5) 0.3557(4)
H3_2 H 0.9784 0.8743 0.3633
O10_2 O 0.95173(19) 0.6798(5) 0.2149(4)
O11_2 O 0.95967(19) 0.6131(5) 0.0907(4)
C28_2 C 0.9419(3) 0.6171(8) 0.1536(6)
H21_2 H 0.9204 0.5667 0.1549
O14_2 O 0.9556(2) 0.9109(5) 0.2028(4)
O15_2 O 0.89336(18) 0.8486(5) 0.2355(4)
O17_2 O 0.61315(19) 0.9422(6) 0.0519(5)
H23_2 H 0.5125 0.9160 0.0995
C32_2 C 0.8882(3) 0.9854(7) 0.1327(6)
C33_2 C 0.8425(3) 0.9810(9) 0.1174(7)
H26_2 H 0.8284 0.9326 0.1482
C36_2 C 0.9150(3) 0.9073(8) 0.1957(6)
C41_2 C 0.7036(3) 0.9544(8) 0.0747(7)
H30_2 H 0.6907 0.9008 0.1027
C42_2 C 0.7491(2) 0.9611(8) 0.0861(7)
H31_2 H 0.7672 0.9120 0.1219
Ni8_2 Ni 0.91651(3) 0.72339(9) 0.31265(8)
O12_3 O 0.61193(19) 0.2855(5) 0.0957(4)
O16_3 O 0.89745(19) 0.4229(6) 0.0355(5)
H22_3 H 0.5366 0.0821 0.1415
N5_3 N 0.6399(2) 0.1398(7) 0.2366(5)
N6_3 N 0.7098(3) 0.1002(8) 0.2895(6)
N7_3 N 0.8925(3) 0.1304(8) 0.4116(6)
C29_3 C 0.5917(3) 0.3089(7) 0.0241(6)
H27_3 H 0.6786 0.3412 0.0315
C38_3 C 0.7587(2) 0.3886(6) 0.0072(6)
H28_3 H 0.7458 0.3349 0.0352
C39_3 C 0.8042(2) 0.3953(7) 0.0186(6)
H29_3 H 0.8223 0.3462 0.0544
C44_3 C 0.6439(3) 0.0311(10) 0.2456(9)
C45_3 C 0.6866(4) 0.0056(11) 0.2795(10)
C46_3 C 0.6793(3) 0.1768(10) 0.2638(8)
H34_3 H 0.6861 0.2499 0.2657
C47_3 C 0.9145(3) 0.2084(8) 0.4606(7)
H35_3 H 0.9006 0.2661 0.4821
C48_3 C 0.84575(19) 0.1192(8) 0.3846(7)
C49_3 C 0.8177(3) 0.1916(8) 0.4106(8)
H36_3 H 0.8294 0.2468 0.4485
C50_3 C 0.7725(3) 0.1833(9) 0.3810(8)
H37_3 H 0.7533 0.2327 0.3987
C51_3 C 0.75537(17) 0.1025(9) 0.3255(7)
C52_3 C 0.7835(2) 0.0301(7) 0.2995(7)
C53_3 C 0.8286(2) 0.0384(8) 0.3291(7)
C54_3 C 0.9241(3) 0.0581(10) 0.3957(8)
C55_3 C 0.9629(3) 0.0979(10) 0.4356(8)
H41_3 H 0.9905 0.0650 0.4370
Ni3_4 Ni 0.5000 0.70278(13) 0.7500
O1_3 O 0.38807(19) 0.2855(5) 0.4043(4)
O2_3 O 0.44736(19) 0.2842(5) 0.5116(4)
O3_3 O 0.4556(2) 0.5891(5) 0.7028(4)
O5_3 O 0.10255(19) 0.4229(6) 0.4645(5)
O6_3 O 0.11315(19) 0.5578(6) 0.5519(5)
H1_3 H 0.4634 0.0821 0.3585
H2_3 H 0.0125 0.5840 0.5995
H3_3 H 0.5216 0.6257 0.6367
N1_3 N 0.3601(2) 0.1398(7) 0.2634(5)
N2_3 N 0.2902(3) 0.1002(8) 0.2105(6)
N3_3 N 0.1075(3) 0.1304(8) 0.0884(6)
C1_3 C 0.4083(3) 0.3089(7) 0.4759(6)
C2_3 C 0.3851(3) 0.3771(7) 0.5284(6)
C3_3 C 0.4092(3) 0.4459(7) 0.5908(6)
H4_3 H 0.4404 0.4436 0.6031
C4_3 C 0.3882(3) 0.5146(7) 0.6327(6)
C5_3 C 0.3425(3) 0.5190(9) 0.6174(7)
H5_3 H 0.3284 0.5674 0.6482
C6_3 C 0.3173(3) 0.4533(8) 0.5576(7)
C7_3 C 0.3384(3) 0.3840(8) 0.5116(6)
H6_3 H 0.3214 0.3412 0.4685
C8_3 C 0.4150(3) 0.5927(8) 0.6957(6)
C9_3 C 0.26794(16) 0.4604(7) 0.5451(6)
C10_3 C 0.2413(2) 0.3886(6) 0.4928(6)
H7_3 H 0.2542 0.3349 0.4648
C11_3 C 0.1958(2) 0.3953(7) 0.4814(6)
H8_3 H 0.1777 0.3462 0.4456
C12_3 C 0.17696(17) 0.4738(7) 0.5223(6)
C13_3 C 0.2036(3) 0.5456(8) 0.5747(7)
H9_3 H 0.1907 0.5992 0.6027
C14_3 C 0.2491(2) 0.5389(8) 0.5861(7)
H10_3 H 0.2672 0.5880 0.6219
C15_3 C 0.1277(3) 0.4861(8) 0.5136(7)
C16_3 C 0.3561(3) 0.0311(10) 0.2544(9)
C17_3 C 0.3134(4) 0.0056(11) 0.2205(10)
C18_3 C 0.3207(3) 0.1768(10) 0.2362(8)
H13_3 H 0.3139 0.2499 0.2343
C19_3 C 0.0855(3) 0.2084(8) 0.0394(7)
H14_3 H 0.0994 0.2661 0.0179
C20_3 C 0.15425(19) 0.1192(8) 0.1154(7)
C21_3 C 0.1823(3) 0.1916(8) 0.0894(8)
H15_3 H 0.1706 0.2468 0.0515
C22_3 C 0.2275(3) 0.1833(9) 0.1190(8)
H16_3 H 0.2467 0.2327 0.1013
C23_3 C 0.24463(17) 0.1025(9) 0.1745(7)
C24_3 C 0.2165(2) 0.0301(7) 0.2005(7)
C25_3 C 0.1714(2) 0.0384(8) 0.1709(7)
C26_3 C 0.0759(3) 0.0581(10) 0.1043(8)
C27_3 C 0.0371(3) 0.0979(10) 0.0644(8)
H20_3 H 0.0095 0.0650 0.0630
C28_3 C 0.5581(3) 0.8829(8) 0.8464(6)
H21_3 H 0.5796 0.9333 0.8451
O13_3 O 0.55264(19) 0.2842(5) 0.9884(4)
O14_3 O 0.5444(2) 0.5891(5) 0.7972(4)
O17_3 O 0.88685(19) 0.5578(6) 0.9481(5)
H23_3 H 0.9875 0.5840 0.9005
H24_3 H 0.4784 0.6257 0.8633
C30_3 C 0.6149(3) 0.3771(7) 0.9716(6)
C31_3 C 0.5908(3) 0.4459(7) 0.9092(6)
H25_3 H 0.5596 0.4436 0.8969
C32_3 C 0.6118(3) 0.5146(7) 0.8673(6)
C33_3 C 0.6575(3) 0.5190(9) 0.8826(7)
H26_3 H 0.6716 0.5674 0.8518
C34_3 C 0.6827(3) 0.4533(8) 0.9424(7)
C35_3 C 0.6616(3) 0.3840(8) 0.9884(6)
C36_3 C 0.5850(3) 0.5927(8) 0.8043(6)
C37_3 C 0.73206(16) 0.4604(7) 0.9549(6)
C40_3 C 0.82304(17) 0.4738(7) 0.9777(6)
C41_3 C 0.7964(3) 0.5456(8) 0.9253(7)
H30_3 H 0.8093 0.5992 0.8973
C42_3 C 0.7509(2) 0.5389(8) 0.9139(7)
H31_3 H 0.7328 0.5880 0.8781
C43_3 C 0.8723(3) 0.4861(8) 0.9864(7)
C56_3 C 0.4419(3) 0.8829(8) 0.6536(6)
H42_3 H 0.4204 0.9333 0.6549
Ni3_5 Ni -0.0000 0.20278(13) 0.7500
H3_4 H 0.0216 0.1257 0.6367
C28_4 C 0.0581(3) 0.3829(8) 0.8464(6)
H21_4 H 0.0796 0.4333 0.8451
O14_4 O 0.0444(2) 0.0891(5) 0.7972(4)
O17_4 O 0.38685(19) 0.0578(6) 0.9481(5)
H23_4 H 0.4875 0.0840 0.9005
C32_4 C 0.1118(3) 0.0146(7) 0.8673(6)
C33_4 C 0.1575(3) 0.0190(9) 0.8826(7)
H26_4 H 0.1716 0.0674 0.8518
C36_4 C 0.0850(3) 0.0927(8) 0.8043(6)
C41_4 C 0.2964(3) 0.0456(8) 0.9253(7)
H30_4 H 0.3093 0.0992 0.8973
C42_4 C 0.2509(2) 0.0389(8) 0.9139(7)
H31_4 H 0.2328 0.0880 0.8781
O12_4 O 0.11193(19) 0.7855(5) 0.0957(4)
O16_4 O 0.39745(19) 0.9229(6) 0.0355(5)
H22_4 H 0.0366 0.5821 0.1415
N5_4 N 0.1399(2) 0.6398(7) 0.2366(5)
N6_4 N 0.2098(3) 0.6002(8) 0.2895(6)
N7_4 N 0.3925(3) 0.6304(8) 0.4116(6)
C29_4 C 0.0917(3) 0.8089(7) 0.0241(6)
H27_4 H 0.1786 0.8412 0.0315
C38_4 C 0.2587(2) 0.8886(6) 0.0072(6)
H28_4 H 0.2458 0.8349 0.0352
C39_4 C 0.3042(2) 0.8953(7) 0.0186(6)
H29_4 H 0.3223 0.8462 0.0544
C44_4 C 0.1439(3) 0.5311(10) 0.2456(9)
H32_2 H 0.1205 0.4820 0.2305
C45_4 C 0.1866(4) 0.5056(11) 0.2795(10)
H33_2 H 0.1982 0.4371 0.2936
C46_4 C 0.1793(3) 0.6768(10) 0.2638(8)
H34_4 H 0.1861 0.7499 0.2657
C47_4 C 0.4145(3) 0.7084(8) 0.4606(7)
H35_4 H 0.4006 0.7661 0.4821
C48_4 C 0.34575(19) 0.6192(8) 0.3846(7)
C49_4 C 0.3177(3) 0.6916(8) 0.4106(8)
H36_4 H 0.3294 0.7468 0.4485
C50_4 C 0.2725(3) 0.6833(9) 0.3810(8)
H37_4 H 0.2533 0.7327 0.3987
C51_4 C 0.25537(17) 0.6025(9) 0.3255(7)
C52_4 C 0.2835(2) 0.5301(7) 0.2995(7)
H38_2 H 0.2718 0.4749 0.2616
C53_4 C 0.3286(2) 0.5384(8) 0.3291(7)
H39_2 H 0.3478 0.4889 0.3114
C54_4 C 0.4241(3) 0.5581(10) 0.3957(8)
H40_2 H 0.4191 0.4947 0.3637
C55_4 C 0.4629(3) 0.5979(10) 0.4356(8)
H41_4 H 0.4905 0.5650 0.4370
O13_4 O 0.05264(19) 0.7842(5) 0.9884(4)
C30_4 C 0.1149(3) 0.8771(7) 0.9716(6)
C31_4 C 0.0908(3) 0.9459(7) 0.9092(6)
H25_4 H 0.0596 0.9436 0.8969
C34_4 C 0.1827(3) 0.9533(8) 0.9424(7)
C35_4 C 0.1616(3) 0.8840(8) 0.9884(6)
C37_4 C 0.23206(16) 0.9604(7) 0.9549(6)
C40_4 C 0.32304(17) 0.9738(7) 0.9777(6)
C43_4 C 0.3723(3) 0.9861(8) 0.9864(7)
Ni3_6 Ni 1.0000 0.20278(13) 0.7500
O3_4 O 0.9556(2) 0.0891(5) 0.7028(4)
O6_4 O 0.61315(19) 0.0578(6) 0.5519(5)
H2_4 H 0.5125 0.0840 0.5995
C4_4 C 0.8882(3) 0.0146(7) 0.6327(6)
C5_4 C 0.8425(3) 0.0190(9) 0.6174(7)
H5_4 H 0.8284 0.0674 0.6482
C8_4 C 0.9150(3) 0.0927(8) 0.6957(6)
C13_4 C 0.7036(3) 0.0456(8) 0.5747(7)
H9_4 H 0.6907 0.0992 0.6027
C14_4 C 0.7491(2) 0.0389(8) 0.5861(7)
H10_4 H 0.7672 0.0880 0.6219
H24_4 H 0.9784 0.1257 0.8633
C56_4 C 0.9419(3) 0.3829(8) 0.6536(6)
H42_4 H 0.9204 0.4333 0.6549
O1_4 O 0.88807(19) 0.7855(5) 0.4043(4)
O2_4 O 0.94736(19) 0.7842(5) 0.5116(4)
O5_4 O 0.60255(19) 0.9229(6) 0.4645(5)
H1_4 H 0.9634 0.5821 0.3585
N1_4 N 0.8601(2) 0.6398(7) 0.2634(5)
N2_4 N 0.7902(3) 0.6002(8) 0.2105(6)
N3_4 N 0.6075(3) 0.6304(8) 0.0884(6)
C1_4 C 0.9083(3) 0.8089(7) 0.4759(6)
C2_4 C 0.8851(3) 0.8771(7) 0.5284(6)
C3_4 C 0.9092(3) 0.9459(7) 0.5908(6)
H4_4 H 0.9404 0.9436 0.6031
C6_4 C 0.8173(3) 0.9533(8) 0.5576(7)
C7_4 C 0.8384(3) 0.8840(8) 0.5116(6)
H6_4 H 0.8214 0.8412 0.4685
C9_4 C 0.76794(16) 0.9604(7) 0.5451(6)
C10_4 C 0.7413(2) 0.8886(6) 0.4928(6)
H7_4 H 0.7542 0.8349 0.4648
C11_4 C 0.6958(2) 0.8953(7) 0.4814(6)
H8_4 H 0.6777 0.8462 0.4456
C12_4 C 0.67696(17) 0.9738(7) 0.5223(6)
C15_4 C 0.6277(3) 0.9861(8) 0.5136(7)
C16_4 C 0.8561(3) 0.5311(10) 0.2544(9)
H11_2 H 0.8795 0.4820 0.2695
C17_4 C 0.8134(4) 0.5056(11) 0.2205(10)
H12_2 H 0.8018 0.4371 0.2064
C18_4 C 0.8207(3) 0.6768(10) 0.2362(8)
H13_4 H 0.8139 0.7499 0.2343
C19_4 C 0.5855(3) 0.7084(8) 0.0394(7)
H14_4 H 0.5994 0.7661 0.0179
C20_4 C 0.65425(19) 0.6192(8) 0.1154(7)
C21_4 C 0.6823(3) 0.6916(8) 0.0894(8)
H15_4 H 0.6706 0.7468 0.0515
C22_4 C 0.7275(3) 0.6833(9) 0.1190(8)
H16_4 H 0.7467 0.7327 0.1013
C23_4 C 0.74463(17) 0.6025(9) 0.1745(7)
C24_4 C 0.7165(2) 0.5301(7) 0.2005(7)
H17_2 H 0.7282 0.4749 0.2384
C25_4 C 0.6714(2) 0.5384(8) 0.1709(7)
H18_2 H 0.6522 0.4889 0.1886
C26_4 C 0.5759(3) 0.5581(10) 0.1043(8)
H19_2 H 0.5809 0.4947 0.1363
C27_4 C 0.5371(3) 0.5979(10) 0.0644(8)
H20_4 H 0.5095 0.5650 0.0630
H11_3 H 0.6205 0.0180 0.7305
H12_3 H 0.6982 0.0629 0.7936
H17_3 H 0.7718 0.0251 0.7616
H18_3 H 0.8478 0.0111 0.8114
H19_3 H 0.9191 0.0053 0.8637
H32_3 H 0.3795 0.0180 0.7695
H33_3 H 0.3018 0.0629 0.7064
H38_3 H 0.2282 0.0251 0.7384
H39_3 H 0.1522 0.0111 0.6886
H40_3 H 0.0809 0.0053 0.6363
H32_4 H 0.6205 0.9820 0.2305
H33_4 H 0.6982 0.9371 0.2936
H38_4 H 0.7718 0.9749 0.2616
H39_4 H 0.8478 0.9889 0.3114
H40_4 H 0.9191 0.9947 0.3637
H11_4 H 0.3795 0.9820 0.2695
H12_4 H 0.3018 0.9371 0.2064
H17_4 H 0.2282 0.9749 0.2384
H18_4 H 0.1522 0.9889 0.1886
H19_4 H 0.0809 0.9947 0.1363
loop_
_geom_bond_atom_site_label_1
_geom_bond_atom_site_label_2
_geom_bond_site_symmetry_1
_geom_bond_site_symmetry_2
Ni16 O29 1_555 1_555
Ni1 O1 1_555 1_555
Ni2 O2 1_555 1_555
Ni3 O3 1_555 1_555
Ni4 O5 1_555 1_555
O1 C1 1_555 1_555
O2 C1 1_555 1_555
O3 C8 1_555 1_555
O4 C8 1_555 1_555
O5 C15 1_555 1_555
O6 Ni4 1_555 1_555
O7 Ni1 1_555 1_555
H1 O7 1_555 1_555
O8 Ni4 1_555 1_555
H2 O8 1_555 1_555
O9 Ni3 1_555 1_555
H3 O9 1_555 1_555
O10 Ni3 1_555 1_555
O11 C28 1_555 1_555
N1 Ni1 1_555 1_555
N2 C17 1_555 1_555
N3 C19 1_555 1_555
N4 C19 1_555 1_555
C1 C2 1_555 1_555
C2 C3 1_555 1_555
C3 H4 1_555 1_555
C4 C3 1_555 1_555
C5 C4 1_555 1_555
H5 C5 1_555 1_555
C6 C5 1_555 1_555
C7 C2 1_555 1_555
H6 C7 1_555 1_555
C8 C4 1_555 1_555
C9 C6 1_555 1_555
C10 C9 1_555 1_555
H7 C10 1_555 1_555
C11 C10 1_555 1_555
H8 C11 1_555 1_555
C12 C11 1_555 1_555
C13 C12 1_555 1_555
H9 C13 1_555 1_555
C14 C9 1_555 1_555
H10 C14 1_555 1_555
C15 O6 1_555 1_555
C16 N1 1_555 1_555
C17 C16 1_555 1_555
C18 N1 1_555 1_555
H13 C18 1_555 1_555
C19 H14 1_555 1_555
C20 N3 1_555 1_555
C21 C20 1_555 1_555
H15 C21 1_555 1_555
C22 C21 1_555 1_555
H16 C22 1_555 1_555
C23 N2 1_555 1_555
C24 C23 1_555 1_555
C25 C20 1_555 1_555
C26 N3 1_555 1_555
C27 N4 1_555 1_555
H20 C27 1_555 1_555
C28 O10 1_555 1_555
H21 C28 1_555 1_555
O14 Ni3 1_555 1_555
O15 C36 1_555 1_555
O17 Ni7 1_555 1_555
O19 Ni7 1_555 1_555
H23 O19 1_555 1_555
O20 Ni3 1_555 1_555
H24 O20 1_555 1_555
O21 Ni3 1_555 1_555
O22 C56 1_555 1_555
C30 C31 1_555 1_555
C31 H25 1_555 1_555
C32 C31 1_555 1_555
C33 C32 1_555 1_555
H26 C33 1_555 1_555
C34 C33 1_555 1_555
C35 C30 1_555 1_555
C36 O14 1_555 1_555
C37 C34 1_555 1_555
C41 C40 1_555 1_555
H30 C41 1_555 1_555
C42 C37 1_555 1_555
H31 C42 1_555 1_555
C43 O17 1_555 1_555
C56 O21 1_555 1_555
H42 C56 1_555 1_555
Ni8 O9 1_555 1_555
Ni9 O4 1_555 1_555
Ni12 O9 1_555 1_555
Ni13 O11 1_555 1_555
Ni19 O7 1_555 1_555
O24 Ni1 1_555 1_555
O25 Ni4 1_555 1_555
O26 Ni7 1_555 1_555
O27 Ni2 1_555 1_555
O31 Ni1 1_555 1_555
O33 Ni1 1_555 1_555
O36 Ni2 1_555 1_555
O38 Ni4 1_555 1_555
N10 Ni2 1_555 1_555
Ni2 O7 1_555 1_555
Ni2 O31 1_555 1_555
O10 Ni8 1_555 1_555
N2 C18 1_555 1_555
C6 C7 1_555 1_555
C12 C15 1_555 1_555
C13 C14 1_555 1_555
C22 C23 1_555 1_555
C24 C25 1_555 1_555
C26 C27 1_555 1_555
O15 Ni8 1_555 1_555
O20 Ni9 1_555 1_555
O20 Ni13 1_555 1_555
O21 Ni9 1_555 1_555
O22 Ni12 1_555 1_555
C32 C36 1_555 1_555
C34 C35 1_555 1_555
C40 C43 1_555 1_555
C41 C42 1_555 1_555
Ni19 O27 1_555 1_555
Ni5 O12 1_555 1_555
O12 C29 1_555 1_555
O18 Ni5 1_555 1_555
H22 O18 1_555 1_555
N5 Ni5 1_555 1_555
N6 C45 1_555 1_555
N7 C47 1_555 1_555
N8 C47 1_555 1_555
H28 C38 1_555 1_555
C39 C38 1_555 1_555
H29 C39 1_555 1_555
C44 N5 1_555 1_555
C45 C44 1_555 1_555
C46 N5 1_555 1_555
H34 C46 1_555 1_555
C47 H35 1_555 1_555
C48 N7 1_555 1_555
C49 C48 1_555 1_555
H36 C49 1_555 1_555
C50 C49 1_555 1_555
H37 C50 1_555 1_555
C51 N6 1_555 1_555
C52 C51 1_555 1_555
C53 C48 1_555 1_555
C54 N7 1_555 1_555
C55 N8 1_555 1_555
H41 C55 1_555 1_555
Ni21 O18 1_555 1_555
O23 Ni5 1_555 1_555
O32 Ni5 1_555 1_555
O34 Ni5 1_555 1_555
O35 Ni6 1_555 1_555
Ni6 O18 1_555 1_555
Ni6 O32 1_555 1_555
N6 C46 1_555 1_555
C50 C51 1_555 1_555
C52 C53 1_555 1_555
C54 C55 1_555 1_555
Ni17 O30 1_555 1_555
Ni1_2 O1_2 1_555 1_555
Ni10 O2_2 1_555 1_555
Ni4_2 O5_2 1_555 1_555
O1_2 C1_2 1_555 1_555
O2_2 C1_2 1_555 1_555
O5_2 C15_2 1_555 1_555
O7_2 Ni1_2 1_555 1_555
H1_2 O7_2 1_555 1_555
N1_2 Ni1_2 1_555 1_555
N2_2 C17_2 1_555 1_555
N3_2 C19_2 1_555 1_555
N4_2 C19_2 1_555 1_555
C1_2 C2_2 1_555 1_555
C2_2 C3_2 1_555 1_555
C3_2 H4_2 1_555 1_555
C7_2 C2_2 1_555 1_555
H6_2 C7_2 1_555 1_555
C9_2 C6_2 1_555 1_555
C10_2 C9_2 1_555 1_555
H7_2 C10_2 1_555 1_555
C11_2 C10_2 1_555 1_555
H8_2 C11_2 1_555 1_555
C12_2 C11_2 1_555 1_555
C16_2 N1_2 1_555 1_555
H11 C16_2 1_555 1_555
C17_2 C16_2 1_555 1_555
H12 C17_2 1_555 1_555
C18_2 N1_2 1_555 1_555
H13_2 C18_2 1_555 1_555
C19_2 H14_2 1_555 1_555
C20_2 N3_2 1_555 1_555
C21_2 C20_2 1_555 1_555
H15_2 C21_2 1_555 1_555
C22_2 C21_2 1_555 1_555
H16_2 C22_2 1_555 1_555
C23_2 N2_2 1_555 1_555
C24_2 C23_2 1_555 1_555
H17 C24_2 1_555 1_555
C25_2 C20_2 1_555 1_555
H18 C25_2 1_555 1_555
C26_2 N3_2 1_555 1_555
H19 C26_2 1_555 1_555
C27_2 N4_2 1_555 1_555
H20_2 C27_2 1_555 1_555
Ni16 O7_2 1_555 1_555
O24_2 Ni1_2 1_555 1_555
O25_2 Ni4_2 1_555 1_555
O29_2 Ni4_2 1_555 1_555
O31_2 Ni1_2 1_555 1_555
O33_2 Ni1_2 1_555 1_555
Ni10 O7_2 1_555 1_555
Ni10 O31_2 1_555 1_555
N2_2 C18_2 1_555 1_555
C6_2 C7_2 1_555 1_555
C12_2 C15_2 1_555 1_555
C22_2 C23_2 1_555 1_555
C24_2 C25_2 1_555 1_555
C26_2 C27_2 1_555 1_555
Ni3_2 O3_2 1_555 1_555
O3_2 C8_2 1_555 1_555
O4_2 C8_2 1_555 1_555
H2_2 O27 1_555 1_555
C5_2 C4_2 1_555 1_555
H5_2 C5_2 1_555 1_555
C8_2 C4_2 1_555 1_555
H9_2 C13_2 1_555 1_555
H10_2 C14_2 1_555 1_555
O20_2 Ni3_2 1_555 1_555
H24_2 O20_2 1_555 1_555
O21_2 Ni3_2 1_555 1_555
O22_2 C56_2 1_555 1_555
C56_2 O21_2 1_555 1_555
H42_2 C56_2 1_555 1_555
Ni9_2 O4_2 1_555 1_555
Ni16 O22_2 1_555 1_555
C13_2 C14_2 1_555 1_555
O20_2 Ni9_2 1_555 1_555
O20_2 Ni15 1_555 1_555
O21_2 Ni9_2 1_555 1_555
C30_2 C31_2 1_555 1_555
C31_2 H25_2 1_555 1_555
C35_2 C30_2 1_555 1_555
C37_2 C34_2 1_555 1_555
O26_2 Ni7_2 1_555 1_555
C34_2 C35_2 1_555 1_555
C40_2 C43_2 1_555 1_555
Ni5_2 O12_2 1_555 1_555
O12_2 C29_2 1_555 1_555
O18_2 Ni5_2 1_555 1_555
H22_2 O18_2 1_555 1_555
N5_2 Ni5_2 1_555 1_555
N6_2 C45_2 1_555 1_555
N7_2 C47_2 1_555 1_555
N8_2 C47_2 1_555 1_555
H28_2 C38_2 1_555 1_555
C39_2 C38_2 1_555 1_555
H29_2 C39_2 1_555 1_555
C44_2 N5_2 1_555 1_555
H32 C44_2 1_555 1_555
C45_2 C44_2 1_555 1_555
H33 C45_2 1_555 1_555
C46_2 N5_2 1_555 1_555
H34_2 C46_2 1_555 1_555
C47_2 H35_2 1_555 1_555
C48_2 N7_2 1_555 1_555
C49_2 C48_2 1_555 1_555
H36_2 C49_2 1_555 1_555
C50_2 C49_2 1_555 1_555
H37_2 C50_2 1_555 1_555
C51_2 N6_2 1_555 1_555
C52_2 C51_2 1_555 1_555
H38 C52_2 1_555 1_555
C53_2 C48_2 1_555 1_555
H39 C53_2 1_555 1_555
C54_2 N7_2 1_555 1_555
H40 C54_2 1_555 1_555
C55_2 N8_2 1_555 1_555
H41_2 C55_2 1_555 1_555
Ni12 N8_2 1_555 1_555
Ni17 O18_2 1_555 1_555
O23_2 Ni5_2 1_555 1_555
O32_2 Ni5_2 1_555 1_555
O34_2 Ni5_2 1_555 1_555
Ni11 O18_2 1_555 1_555
Ni11 O32_2 1_555 1_555
N6_2 C46_2 1_555 1_555
C50_2 C51_2 1_555 1_555
C52_2 C53_2 1_555 1_555
C54_2 C55_2 1_555 1_555
O9_2 Ni3_3 1_555 1_555
H3_2 O9_2 1_555 1_555
O10_2 Ni3_3 1_555 1_555
O11_2 C28_2 1_555 1_555
C28_2 O10_2 1_555 1_555
H21_2 C28_2 1_555 1_555
O14_2 Ni3_3 1_555 1_555
O15_2 C36_2 1_555 1_555
H23_2 O28 1_555 1_555
C33_2 C32_2 1_555 1_555
H26_2 C33_2 1_555 1_555
C36_2 O14_2 1_555 1_555
H30_2 C41_2 1_555 1_555
H31_2 C42_2 1_555 1_555
Ni8_2 O9_2 1_555 1_555
Ni14 O9_2 1_555 1_555
O10_2 Ni8_2 1_555 1_555
O15_2 Ni8_2 1_555 1_555
C32_2 C36_2 1_555 1_555
C41_2 C42_2 1_555 1_555
Ni9 O12_3 1_555 1_555
O12_3 C29_3 1_555 1_555
O26_2 Ni9 1_555 1_555
H22_3 O26_2 1_555 1_555
N5_3 Ni9 1_555 1_555
N6_3 C45_3 1_555 1_555
N7_3 C47_3 1_555 1_555
N10_2 C47_3 1_555 1_555
H28_3 C38_3 1_555 1_555
C39_3 C38_3 1_555 1_555
H29_3 C39_3 1_555 1_555
C44_3 N5_3 1_555 1_555
C45_3 C44_3 1_555 1_555
C46_3 N5_3 1_555 1_555
H34_3 C46_3 1_555 1_555
C47_3 H35_3 1_555 1_555
C48_3 N7_3 1_555 1_555
C49_3 C48_3 1_555 1_555
H36_3 C49_3 1_555 1_555
C50_3 C49_3 1_555 1_555
H37_3 C50_3 1_555 1_555
C51_3 N6_3 1_555 1_555
C52_3 C51_3 1_555 1_555
C53_3 C48_3 1_555 1_555
C54_3 N7_3 1_555 1_555
C55_3 N10_2 1_555 1_555
H41_3 C55_3 1_555 1_555
Ni13 O26_2 1_555 1_555
N6_3 C46_3 1_555 1_555
C50_3 C51_3 1_555 1_555
C52_3 C53_3 1_555 1_555
C54_3 C55_3 1_555 1_555
Ni8 O1_3 1_555 1_555
Ni12 O2_3 1_555 1_555
Ni3_4 O3_3 1_555 1_555
Ni16 O5_3 1_555 1_555
O1_3 C1_3 1_555 1_555
O2_3 C1_3 1_555 1_555
O3_3 C8_3 1_555 1_555
O23 C8_3 1_555 1_555
O5_3 C15_3 1_555 1_555
O6_3 Ni16 1_555 1_555
O25_2 Ni8 1_555 1_555
H1_3 O25_2 1_555 1_555
H2_3 O29 1_555 1_555
O31 Ni3_4 1_555 1_555
H3_3 O31 1_555 1_555
O33 Ni3_4 1_555 1_555
O35 C28_3 1_555 1_555
N1_3 Ni8 1_555 1_555
N2_3 C17_3 1_555 1_555
N3_3 C19_3 1_555 1_555
N9_2 C19_3 1_555 1_555
C1_3 C2_3 1_555 1_555
C2_3 C3_3 1_555 1_555
C3_3 H4_3 1_555 1_555
C4_3 C3_3 1_555 1_555
C5_3 C4_3 1_555 1_555
H5_3 C5_3 1_555 1_555
C6_3 C5_3 1_555 1_555
C7_3 C2_3 1_555 1_555
H6_3 C7_3 1_555 1_555
C8_3 C4_3 1_555 1_555
C9_3 C6_3 1_555 1_555
C10_3 C9_3 1_555 1_555
H7_3 C10_3 1_555 1_555
C11_3 C10_3 1_555 1_555
H8_3 C11_3 1_555 1_555
C12_3 C11_3 1_555 1_555
C13_3 C12_3 1_555 1_555
H9_3 C13_3 1_555 1_555
C14_3 C9_3 1_555 1_555
H10_3 C14_3 1_555 1_555
C15_3 O6_3 1_555 1_555
C16_3 N1_3 1_555 1_555
C17_3 C16_3 1_555 1_555
C18_3 N1_3 1_555 1_555
H13_3 C18_3 1_555 1_555
C19_3 H14_3 1_555 1_555
C20_3 N3_3 1_555 1_555
C21_3 C20_3 1_555 1_555
H15_3 C21_3 1_555 1_555
C22_3 C21_3 1_555 1_555
H16_3 C22_3 1_555 1_555
C23_3 N2_3 1_555 1_555
C24_3 C23_3 1_555 1_555
C25_3 C20_3 1_555 1_555
C26_3 N3_3 1_555 1_555
C27_3 N9_2 1_555 1_555
H20_3 C27_3 1_555 1_555
C28_3 O33 1_555 1_555
H21_3 C28_3 1_555 1_555
O14_3 Ni3_4 1_555 1_555
O24 C36_3 1_555 1_555
O17_3 Ni17 1_555 1_555
H23_3 O30 1_555 1_555
O32 Ni3_4 1_555 1_555
H24_3 O32 1_555 1_555
O34 Ni3_4 1_555 1_555
O36 C56_3 1_555 1_555
C30_3 C31_3 1_555 1_555
C31_3 H25_3 1_555 1_555
C32_3 C31_3 1_555 1_555
C33_3 C32_3 1_555 1_555
H26_3 C33_3 1_555 1_555
C34_3 C33_3 1_555 1_555
C35_3 C30_3 1_555 1_555
C36_3 O14_3 1_555 1_555
C37_3 C34_3 1_555 1_555
C41_3 C40_3 1_555 1_555
H30_3 C41_3 1_555 1_555
C42_3 C37_3 1_555 1_555
H31_3 C42_3 1_555 1_555
C43_3 O17_3 1_555 1_555
C56_3 O34 1_555 1_555
H42_3 C56_3 1_555 1_555
O29_2 Ni12 1_555 1_555
Ni12 O25_2 1_555 1_555
N2_3 C18_3 1_555 1_555
C6_3 C7_3 1_555 1_555
C12_3 C15_3 1_555 1_555
C13_3 C14_3 1_555 1_555
C22_3 C23_3 1_555 1_555
C24_3 C25_3 1_555 1_555
C26_3 C27_3 1_555 1_555
C32_3 C36_3 1_555 1_555
C34_3 C35_3 1_555 1_555
C40_3 C43_3 1_555 1_555
C41_3 C42_3 1_555 1_555
O31_2 Ni3_5 1_555 1_555
H3_4 O31_2 1_555 1_555
O33_2 Ni3_5 1_555 1_555
O37 C28_4 1_555 1_555
C28_4 O33_2 1_555 1_555
H21_4 C28_4 1_555 1_555
O14_4 Ni3_5 1_555 1_555
O24_2 C36_4 1_555 1_555
H23_4 O30_2 1_555 1_555
C33_4 C32_4 1_555 1_555
H26_4 C33_4 1_555 1_555
C36_4 O14_4 1_555 1_555
H30_4 C41_4 1_555 1_555
H31_4 C42_4 1_555 1_555
C32_4 C36_4 1_555 1_555
C41_4 C42_4 1_555 1_555
Ni9_2 O12_4 1_555 1_555
O12_4 C29_4 1_555 1_555
O26 Ni9_2 1_555 1_555
H22_4 O26 1_555 1_555
N5_4 Ni9_2 1_555 1_555
N6_4 C45_4 1_555 1_555
N7_4 C47_4 1_555 1_555
N10 C47_4 1_555 1_555
H28_4 C38_4 1_555 1_555
C39_4 C38_4 1_555 1_555
H29_4 C39_4 1_555 1_555
C44_4 N5_4 1_555 1_555
H32_2 C44_4 1_555 1_555
C45_4 C44_4 1_555 1_555
H33_2 C45_4 1_555 1_555
C46_4 N5_4 1_555 1_555
H34_4 C46_4 1_555 1_555
C47_4 H35_4 1_555 1_555
C48_4 N7_4 1_555 1_555
C49_4 C48_4 1_555 1_555
H36_4 C49_4 1_555 1_555
C50_4 C49_4 1_555 1_555
H37_4 C50_4 1_555 1_555
C51_4 N6_4 1_555 1_555
C52_4 C51_4 1_555 1_555
H38_2 C52_4 1_555 1_555
C53_4 C48_4 1_555 1_555
H39_2 C53_4 1_555 1_555
C54_4 N7_4 1_555 1_555
H40_2 C54_4 1_555 1_555
C55_4 N10 1_555 1_555
H41_4 C55_4 1_555 1_555
Ni15 O26 1_555 1_555
N6_4 C46_4 1_555 1_555
C50_4 C51_4 1_555 1_555
C52_4 C53_4 1_555 1_555
C54_4 C55_4 1_555 1_555
C30_4 C31_4 1_555 1_555
C31_4 H25_4 1_555 1_555
C35_4 C30_4 1_555 1_555
C37_4 C34_4 1_555 1_555
C34_4 C35_4 1_555 1_555
C40_4 C43_4 1_555 1_555
Ni3_6 O3_4 1_555 1_555
O3_4 C8_4 1_555 1_555
O23_2 C8_4 1_555 1_555
H2_4 O29_2 1_555 1_555
C5_4 C4_4 1_555 1_555
H5_4 C5_4 1_555 1_555
C8_4 C4_4 1_555 1_555
H9_4 C13_4 1_555 1_555
H10_4 C14_4 1_555 1_555
O32_2 Ni3_6 1_555 1_555
H24_4 O32_2 1_555 1_555
O34_2 Ni3_6 1_555 1_555
O38 C56_4 1_555 1_555
C56_4 O34_2 1_555 1_555
H42_4 C56_4 1_555 1_555
C13_4 C14_4 1_555 1_555
Ni8_2 O1_4 1_555 1_555
Ni14 O2_4 1_555 1_555
Ni19 O5_4 1_555 1_555
O1_4 C1_4 1_555 1_555
O2_4 C1_4 1_555 1_555
O5_4 C15_4 1_555 1_555
O25 Ni8_2 1_555 1_555
H1_4 O25 1_555 1_555
N1_4 Ni8_2 1_555 1_555
N2_4 C17_4 1_555 1_555
N3_4 C19_4 1_555 1_555
N9 C19_4 1_555 1_555
C1_4 C2_4 1_555 1_555
C2_4 C3_4 1_555 1_555
C3_4 H4_4 1_555 1_555
C7_4 C2_4 1_555 1_555
H6_4 C7_4 1_555 1_555
C9_4 C6_4 1_555 1_555
C10_4 C9_4 1_555 1_555
H7_4 C10_4 1_555 1_555
C11_4 C10_4 1_555 1_555
H8_4 C11_4 1_555 1_555
C12_4 C11_4 1_555 1_555
C16_4 N1_4 1_555 1_555
H11_2 C16_4 1_555 1_555
C17_4 C16_4 1_555 1_555
H12_2 C17_4 1_555 1_555
C18_4 N1_4 1_555 1_555
H13_4 C18_4 1_555 1_555
C19_4 H14_4 1_555 1_555
C20_4 N3_4 1_555 1_555
C21_4 C20_4 1_555 1_555
H15_4 C21_4 1_555 1_555
C22_4 C21_4 1_555 1_555
H16_4 C22_4 1_555 1_555
C23_4 N2_4 1_555 1_555
C24_4 C23_4 1_555 1_555
H17_2 C24_4 1_555 1_555
C25_4 C20_4 1_555 1_555
H18_2 C25_4 1_555 1_555
C26_4 N3_4 1_555 1_555
H19_2 C26_4 1_555 1_555
C27_4 N9 1_555 1_555
H20_4 C27_4 1_555 1_555
Ni14 O25 1_555 1_555
N2_4 C18_4 1_555 1_555
C6_4 C7_4 1_555 1_555
C12_4 C15_4 1_555 1_555
C22_4 C23_4 1_555 1_555
C24_4 C25_4 1_555 1_555
C26_4 C27_4 1_555 1_555

#END
