
###############################################################################
#
# This file contains modified crystal structure data generated from the
# MOF subset of the Cambridge Structural Database (CSD) v543 
# hosted by the Cambridge Crystallographic Data Centre (CCDC).
#
# This work is licensed under the Creative Commons
# Attribution-NonCommercial-ShareAlike 4.0 International License.
# To view a copy of this license, visit
# http://creativecommons.org/licenses/by-nc-sa/4.0/
# or send a letter to
# Creative Commons, PO Box 1866, Mountain View, CA 94042, USA.
#
# CIF created using the CSD Python API on 29 September 2022
# The structure has been converted into the P1 space group
# The structure has a 3D framework
# The original CSD entry OMICOD is in the orthorhombic crystal system
# The framework has been calculated to contain at least 10.0% void space
# The void calculation uses a probe of radius 1.32A, grid spacing 0.4
# The framework is charged, counterions have been retained in the structure
#
###############################################################################

data_OMICOD
_chemical_formula_moiety         '(C136 H160 N78 O48 Zn4 8-)n'
_symmetry_cell_setting           triclinic
_symmetry_space_group_name_H-M   'P 1'
_symmetry_Int_Tables_number      1
_space_group_name_Hall           'P 1'
loop_
_symmetry_equiv_pos_site_id
_symmetry_equiv_pos_as_xyz
1 x,y,z
_cell_length_a                   18.295(5)
_cell_length_b                   14.541(5)
_cell_length_c                   18.655(5)
_cell_angle_alpha                90
_cell_angle_beta                 90
_cell_angle_gamma                90
_cell_volume                     4962.74
loop_
_atom_site_label
_atom_site_type_symbol
_atom_site_fract_x
_atom_site_fract_y
_atom_site_fract_z
C11 C 0.08679(18) 0.2585(2) 0.69362(17)
H13 H 0.0756 0.2933 0.7339
C12 C 0.15372(18) 0.2319(3) 0.67183(17)
H14 H 0.1974 0.2457 0.6950
C13 C 0.07672(16) 0.1785(2) 0.59496(16)
H15 H 0.0566 0.1491 0.5553
N5 N 0.03816(13) 0.22358(17) 0.64421(12)
N6 N 0.14752(14) 0.18091(19) 0.60980(13)
Zn4 Zn 0.22629(2) 0.12570(3) 0.548420(19)
Zn1 Zn 0.72629(2) 0.37430(3) 0.451580(19)
C1 C 0.79761(16) 0.2878(2) 0.57885(16)
H1 H 0.8317 0.3349 0.5834
C2 C 0.70834(19) 0.2034(2) 0.54095(19)
H2 H 0.6695 0.1819 0.5135
C3 C 0.73516(17) 0.1626(2) 0.60034(19)
H3 H 0.7183 0.1086 0.6214
C4 C 0.83323(16) 0.2003(2) 0.69007(16)
H4 H 0.8341 0.2575 0.7169
H5 H 0.8065 0.1558 0.7186
C5 C 0.91286(14) 0.16596(19) 0.68242(14)
C6 C 0.94491(16) 0.1589(2) 0.75931(15)
H6 H 0.9552 0.2205 0.7765
H7 H 0.9910 0.1260 0.7569
C7 C 0.84835(16) 0.1552(2) 0.85266(15)
H8 H 0.8398 0.2182 0.8525
C8 C 0.89528(19) 0.0207(2) 0.82776(18)
C9 C 0.8430(2) 0.0108(2) 0.87829(19)
C10 C 0.95900(15) 0.23997(19) 0.64377(15)
H11 H 0.9495 0.2990 0.6662
H12 H 0.9428 0.2440 0.5944
C14 C 0.91893(16) 0.06990(19) 0.64855(14)
H16 H 0.8990 0.0257 0.6822
H17 H 0.9704 0.0557 0.6427
C16 C 0.8957(2) 0.0985(2) 0.51431(16)
H19 H 0.9264 0.1484 0.5061
C17 C 0.8548(2) 0.0534(2) 0.46494(17)
H20 H 0.8522 0.0676 0.4164
N1 N 0.74815(15) 0.28257(18) 0.52750(14)
N2 N 0.79215(13) 0.21613(18) 0.62354(14)
N3 N 0.89786(13) 0.11278(17) 0.81138(12)
N4 N 0.81333(14) 0.09565(18) 0.89362(13)
N7 N 0.88265(14) 0.05582(17) 0.57901(12)
Zn2 Zn 0.72629(2) 0.12570(3) 0.951580(19)
N9 N 0.81333(14) 0.40435(18) 0.39362(13)
N10 N 0.64752(14) 0.31909(19) 0.39020(13)
N11 N 0.68225(15) 0.48297(18) 0.49853(13)
H9 H 0.9239 0.9744 0.8079
H10 H 0.8292 0.9555 0.8994
C15 C 0.83650(17) 0.9867(2) 0.56677(16)
H18 H 0.8197 0.9464 0.6018
N8 N 0.81775(15) 0.98297(18) 0.49853(13)
Zn3 Zn 0.77371(2) 0.87430(3) 0.451580(19)
N8_2 N 0.68225(15) 0.01703(18) 0.99853(13)
C1_2 C 0.70239(16) 0.7122(2) 0.07885(16)
H1_2 H 0.6683 0.6651 0.0834
C2_2 C 0.79166(19) 0.7966(2) 0.04095(19)
H2_2 H 0.8305 0.8181 0.0135
C3_2 C 0.76484(17) 0.8374(2) 0.10034(19)
H3_2 H 0.7817 0.8914 0.1214
C4_2 C 0.66677(16) 0.7997(2) 0.19007(16)
H4_2 H 0.6659 0.7425 0.2169
H5_2 H 0.6935 0.8442 0.2186
C5_2 C 0.58714(14) 0.83404(19) 0.18242(14)
C6_2 C 0.55509(16) 0.8411(2) 0.25931(15)
H6_2 H 0.5448 0.7795 0.2765
H7_2 H 0.5090 0.8740 0.2569
C7_2 C 0.65165(16) 0.8448(2) 0.35266(15)
H8_2 H 0.6602 0.7818 0.3525
C8_2 C 0.60472(19) 0.9793(2) 0.32776(18)
C9_2 C 0.6570(2) 0.9892(2) 0.37829(19)
C10_2 C 0.54100(15) 0.76003(19) 0.14377(15)
H11_2 H 0.5505 0.7010 0.1662
H12_2 H 0.5572 0.7560 0.0944
C11_2 C 0.41321(18) 0.7415(2) 0.19362(17)
H13_2 H 0.4244 0.7067 0.2339
C12_2 C 0.34628(18) 0.7681(3) 0.17183(17)
H14_2 H 0.3026 0.7543 0.1950
C13_2 C 0.42328(16) 0.8215(2) 0.09496(16)
H15_2 H 0.4434 0.8509 0.0553
C14_2 C 0.58107(16) 0.93010(19) 0.14855(14)
H16_2 H 0.6010 0.9743 0.1822
H17_2 H 0.5296 0.9443 0.1427
C16_2 C 0.6043(2) 0.9015(2) 0.01431(16)
H19_2 H 0.5736 0.8516 0.0061
N1_2 N 0.75185(15) 0.71743(18) 0.02750(14)
N2_2 N 0.70785(13) 0.78387(18) 0.12354(14)
N3_2 N 0.60214(13) 0.88722(17) 0.31138(12)
N4_2 N 0.68667(14) 0.90435(18) 0.39362(13)
N5_2 N 0.46184(13) 0.77642(17) 0.14421(12)
N6_2 N 0.35248(14) 0.81909(19) 0.10980(13)
N7_2 N 0.61735(14) 0.94418(17) 0.07901(12)
Zn4_2 Zn 0.27371(2) 0.87430(3) 0.048420(19)
Zn1_2 Zn 0.77371(2) 0.62570(3) 0.951580(19)
C17_2 C 0.6452(2) 0.9466(2) 0.96494(17)
H20_2 H 0.6478 0.9324 0.9164
N9_2 N 0.68667(14) 0.59565(18) 0.89362(13)
N10_2 N 0.85248(14) 0.68091(19) 0.89020(13)
N11_2 N 0.81775(15) 0.51703(18) 0.99853(13)
C1_3 C 0.29761(16) 0.2122(2) 0.42115(16)
H1_3 H 0.3317 0.1651 0.4166
C2_3 C 0.20834(19) 0.2966(2) 0.45905(19)
H2_3 H 0.1695 0.3181 0.4865
C3_3 C 0.23516(17) 0.3374(2) 0.39966(19)
H3_3 H 0.2183 0.3914 0.3786
C4_3 C 0.33323(16) 0.2997(2) 0.30993(16)
H4_3 H 0.3341 0.2425 0.2831
H5_3 H 0.3065 0.3442 0.2814
C5_3 C 0.41286(14) 0.33404(19) 0.31758(14)
C6_3 C 0.44491(16) 0.3411(2) 0.24069(15)
H6_3 H 0.4552 0.2795 0.2235
H7_3 H 0.4910 0.3740 0.2431
C7_3 C 0.34835(16) 0.3448(2) 0.14734(15)
H8_3 H 0.3398 0.2818 0.1475
C8_3 C 0.39528(19) 0.4793(2) 0.17224(18)
H9_2 H 0.4239 0.5256 0.1921
C9_3 C 0.3430(2) 0.4892(2) 0.12171(19)
H10_2 H 0.3292 0.5445 0.1006
C10_3 C 0.45900(15) 0.26003(19) 0.35623(15)
H11_3 H 0.4495 0.2010 0.3338
H12_3 H 0.4428 0.2560 0.4056
C11_3 C 0.58679(18) 0.2415(2) 0.30638(17)
H13_3 H 0.5756 0.2067 0.2661
C12_3 C 0.65372(18) 0.2681(3) 0.32817(17)
H14_3 H 0.6974 0.2543 0.3050
C13_3 C 0.57672(16) 0.3215(2) 0.40504(16)
H15_3 H 0.5566 0.3509 0.4447
C14_3 C 0.41893(16) 0.43010(19) 0.35145(14)
H16_3 H 0.3990 0.4743 0.3178
H17_3 H 0.4704 0.4443 0.3573
C15_2 C 0.33650(17) 0.5133(2) 0.43323(16)
H18_2 H 0.3197 0.5536 0.3982
C16_3 C 0.3957(2) 0.4015(2) 0.48569(16)
H19_3 H 0.4264 0.3516 0.4939
C17_3 C 0.3548(2) 0.4466(2) 0.53506(17)
H20_3 H 0.3522 0.4324 0.5836
N1_3 N 0.24815(15) 0.21743(18) 0.47250(14)
N2_3 N 0.29215(13) 0.28387(18) 0.37646(14)
N3_3 N 0.39786(13) 0.38722(17) 0.18862(12)
N4_3 N 0.31333(14) 0.40435(18) 0.10638(13)
N5_3 N 0.53816(13) 0.27642(17) 0.35579(12)
N7_3 N 0.38265(14) 0.44418(17) 0.42099(12)
N8_3 N 0.31775(15) 0.51703(18) 0.50147(13)
Zn2_2 Zn 0.22629(2) 0.37430(3) 0.048420(19)
Zn3_2 Zn 0.27371(2) 0.62570(3) 0.548420(19)
N9_3 N 0.31333(14) 0.09565(18) 0.60638(13)
N11_3 N 0.18225(15) 0.01703(18) 0.50147(13)
C17_4 C 0.1452(2) 0.5534(2) 0.03506(17)
H20_4 H 0.1478 0.5676 0.0836
N8_4 N 0.18225(15) 0.48297(18) 0.00147(13)
N9_4 N 0.18667(14) 0.90435(18) 0.10638(13)
N11_4 N 0.31775(15) 0.98297(18) 0.00147(13)
C1_4 C 0.20239(16) 0.7878(2) 0.92115(16)
H1_4 H 0.1683 0.8349 0.9166
C2_4 C 0.29166(19) 0.7034(2) 0.95905(19)
H2_4 H 0.3305 0.6819 0.9865
C3_4 C 0.26484(17) 0.6626(2) 0.89966(19)
H3_4 H 0.2817 0.6086 0.8786
C4_4 C 0.16677(16) 0.7003(2) 0.80993(16)
H4_4 H 0.1659 0.7575 0.7831
H5_4 H 0.1935 0.6558 0.7814
C5_4 C 0.08714(14) 0.66596(19) 0.81758(14)
C6_4 C 0.05509(16) 0.6589(2) 0.74069(15)
H6_4 H 0.0448 0.7205 0.7235
H7_4 H 0.0090 0.6260 0.7431
C7_4 C 0.15165(16) 0.6552(2) 0.64734(15)
H8_4 H 0.1602 0.7182 0.6475
C8_4 C 0.10472(19) 0.5207(2) 0.67224(18)
H9_3 H 0.0761 0.4744 0.6921
C9_4 C 0.1570(2) 0.5108(2) 0.62171(19)
H10_3 H 0.1708 0.4555 0.6006
C10_4 C 0.04100(15) 0.73997(19) 0.85623(15)
H11_4 H 0.0505 0.7990 0.8338
H12_4 H 0.0572 0.7440 0.9056
C14_4 C 0.08107(16) 0.56990(19) 0.85145(14)
H16_4 H 0.1010 0.5257 0.8178
H17_4 H 0.0296 0.5557 0.8573
C15_3 C 0.16350(17) 0.4867(2) 0.93323(16)
H18_3 H 0.1803 0.4464 0.8982
C16_4 C 0.1043(2) 0.5985(2) 0.98569(16)
H19_4 H 0.0736 0.6484 0.9939
N1_4 N 0.25185(15) 0.78257(18) 0.97250(14)
N2_4 N 0.20785(13) 0.71613(18) 0.87646(14)
N3_4 N 0.10214(13) 0.61278(17) 0.68862(12)
N4_4 N 0.18667(14) 0.59565(18) 0.60638(13)
N7_4 N 0.11735(14) 0.55582(17) 0.92099(12)
C11_4 C 0.91321(18) 0.7585(2) 0.80638(17)
H13_4 H 0.9244 0.7933 0.7661
C12_4 C 0.84628(18) 0.7319(3) 0.82817(17)
H14_4 H 0.8026 0.7457 0.8050
C13_4 C 0.92328(16) 0.6785(2) 0.90504(16)
H15_4 H 0.9434 0.6491 0.9447
N5_4 N 0.96184(13) 0.72358(17) 0.85579(12)
H9_4 H 0.0761 0.0256 0.1921
H10_4 H 0.1708 0.0445 0.1006
C15_4 C 0.16350(17) 0.0133(2) 0.43323(16)
H18_4 H 0.1803 0.0536 0.3982
C1_5 C 0.20239(16) 0.7122(2) 0.42115(16)
H1_5 H 0.1683 0.6651 0.4166
C2_5 C 0.29166(19) 0.7966(2) 0.45905(19)
H2_5 H 0.3305 0.8181 0.4865
C3_5 C 0.26484(17) 0.8374(2) 0.39966(19)
H3_5 H 0.2817 0.8914 0.3786
C4_5 C 0.16677(16) 0.7997(2) 0.30993(16)
H4_5 H 0.1659 0.7425 0.2831
H5_5 H 0.1935 0.8442 0.2814
C5_5 C 0.08714(14) 0.83404(19) 0.31758(14)
C6_5 C 0.05509(16) 0.8411(2) 0.24069(15)
H6_5 H 0.0448 0.7795 0.2235
H7_5 H 0.0090 0.8740 0.2431
C7_5 C 0.15165(16) 0.8448(2) 0.14734(15)
H8_5 H 0.1602 0.7818 0.1475
C8_5 C 0.10472(19) 0.9793(2) 0.17224(18)
C9_5 C 0.1570(2) 0.9892(2) 0.12171(19)
C10_5 C 0.04100(15) 0.76003(19) 0.35623(15)
H11_5 H 0.0505 0.7010 0.3338
H12_5 H 0.0572 0.7560 0.4056
C14_5 C 0.08107(16) 0.93010(19) 0.35145(14)
H16_5 H 0.1010 0.9743 0.3178
H17_5 H 0.0296 0.9443 0.3573
C16_5 C 0.1043(2) 0.9015(2) 0.48569(16)
H19_5 H 0.0736 0.8516 0.4939
C17_5 C 0.1452(2) 0.9466(2) 0.53506(17)
H20_5 H 0.1478 0.9324 0.5836
N1_5 N 0.25185(15) 0.71743(18) 0.47250(14)
N2_5 N 0.20785(13) 0.78387(18) 0.37646(14)
N3_5 N 0.10214(13) 0.88722(17) 0.18862(12)
N7_5 N 0.11735(14) 0.94418(17) 0.42099(12)
N10_3 N 0.35248(14) 0.68091(19) 0.60980(13)
C11_5 C 0.91321(18) 0.7415(2) 0.30638(17)
H13_5 H 0.9244 0.7067 0.2661
C12_5 C 0.84628(18) 0.7681(3) 0.32817(17)
H14_5 H 0.8026 0.7543 0.3050
C13_5 C 0.92328(16) 0.8215(2) 0.40504(16)
H15_5 H 0.9434 0.8509 0.4447
N5_5 N 0.96184(13) 0.77642(17) 0.35579(12)
N6_3 N 0.85248(14) 0.81909(19) 0.39020(13)
C17_6 C 0.3548(2) 0.0534(2) 0.03506(17)
H20_6 H 0.3522 0.0676 0.0836
N10_4 N 0.14752(14) 0.31909(19) 0.10980(13)
C1_6 C 0.29761(16) 0.2878(2) 0.92115(16)
H1_6 H 0.3317 0.3349 0.9166
C2_6 C 0.20834(19) 0.2034(2) 0.95905(19)
H2_6 H 0.1695 0.1819 0.9865
C3_6 C 0.23516(17) 0.1626(2) 0.89966(19)
H3_6 H 0.2183 0.1086 0.8786
C4_6 C 0.33323(16) 0.2003(2) 0.80993(16)
H4_6 H 0.3341 0.2575 0.7831
H5_6 H 0.3065 0.1558 0.7814
C5_6 C 0.41286(14) 0.16596(19) 0.81758(14)
C6_6 C 0.44491(16) 0.1589(2) 0.74069(15)
H6_6 H 0.4552 0.2205 0.7235
H7_6 H 0.4910 0.1260 0.7431
C7_6 C 0.34835(16) 0.1552(2) 0.64734(15)
H8_6 H 0.3398 0.2182 0.6475
C8_6 C 0.39528(19) 0.0207(2) 0.67224(18)
C9_6 C 0.3430(2) 0.0108(2) 0.62171(19)
C10_6 C 0.45900(15) 0.23997(19) 0.85623(15)
H11_6 H 0.4495 0.2990 0.8338
H12_6 H 0.4428 0.2440 0.9056
C11_6 C 0.58679(18) 0.2585(2) 0.80638(17)
H13_6 H 0.5756 0.2933 0.7661
C12_6 C 0.65372(18) 0.2319(3) 0.82817(17)
H14_6 H 0.6974 0.2457 0.8050
C13_6 C 0.57672(16) 0.1785(2) 0.90504(16)
H15_6 H 0.5566 0.1491 0.9447
C14_6 C 0.41893(16) 0.06990(19) 0.85145(14)
H16_6 H 0.3990 0.0257 0.8178
H17_6 H 0.4704 0.0557 0.8573
C16_6 C 0.3957(2) 0.0985(2) 0.98569(16)
H19_6 H 0.4264 0.1484 0.9939
N1_6 N 0.24815(15) 0.28257(18) 0.97250(14)
N2_6 N 0.29215(13) 0.21613(18) 0.87646(14)
N3_6 N 0.39786(13) 0.11278(17) 0.68862(12)
N5_6 N 0.53816(13) 0.22358(17) 0.85579(12)
N6_4 N 0.64752(14) 0.18091(19) 0.89020(13)
N7_6 N 0.38265(14) 0.05582(17) 0.92099(12)
C1_7 C 0.70239(16) 0.7878(2) 0.57885(16)
H1_7 H 0.6683 0.8349 0.5834
C2_7 C 0.79166(19) 0.7034(2) 0.54095(19)
H2_7 H 0.8305 0.6819 0.5135
C3_7 C 0.76484(17) 0.6626(2) 0.60034(19)
H3_7 H 0.7817 0.6086 0.6214
C4_7 C 0.66677(16) 0.7003(2) 0.69007(16)
H4_7 H 0.6659 0.7575 0.7169
H5_7 H 0.6935 0.6558 0.7186
C5_7 C 0.58714(14) 0.66596(19) 0.68242(14)
C6_7 C 0.55509(16) 0.6589(2) 0.75931(15)
H6_7 H 0.5448 0.7205 0.7765
H7_7 H 0.5090 0.6260 0.7569
C7_7 C 0.65165(16) 0.6552(2) 0.85266(15)
H8_7 H 0.6602 0.7182 0.8525
C8_7 C 0.60472(19) 0.5207(2) 0.82776(18)
H9_5 H 0.5761 0.4744 0.8079
C9_7 C 0.6570(2) 0.5108(2) 0.87829(19)
H10_5 H 0.6708 0.4555 0.8994
C10_7 C 0.54100(15) 0.73997(19) 0.64377(15)
H11_7 H 0.5505 0.7990 0.6662
H12_7 H 0.5572 0.7440 0.5944
C11_7 C 0.41321(18) 0.7585(2) 0.69362(17)
H13_7 H 0.4244 0.7933 0.7339
C12_7 C 0.34628(18) 0.7319(3) 0.67183(17)
H14_7 H 0.3026 0.7457 0.6950
C13_7 C 0.42328(16) 0.6785(2) 0.59496(16)
H15_7 H 0.4434 0.6491 0.5553
C14_7 C 0.58107(16) 0.56990(19) 0.64855(14)
H16_7 H 0.6010 0.5257 0.6822
H17_7 H 0.5296 0.5557 0.6427
C15_5 C 0.66350(17) 0.4867(2) 0.56677(16)
H18_5 H 0.6803 0.4464 0.6018
C16_7 C 0.6043(2) 0.5985(2) 0.51431(16)
H19_7 H 0.5736 0.6484 0.5061
C17_7 C 0.6452(2) 0.5534(2) 0.46494(17)
H20_7 H 0.6478 0.5676 0.4164
N1_7 N 0.75185(15) 0.78257(18) 0.52750(14)
N2_7 N 0.70785(13) 0.71613(18) 0.62354(14)
N3_7 N 0.60214(13) 0.61278(17) 0.81138(12)
N5_7 N 0.46184(13) 0.72358(17) 0.64421(12)
N7_7 N 0.61735(14) 0.55582(17) 0.57901(12)
C11_8 C 0.08679(18) 0.2415(2) 0.19362(17)
H13_8 H 0.0756 0.2067 0.2339
C12_8 C 0.15372(18) 0.2681(3) 0.17183(17)
H14_8 H 0.1974 0.2543 0.1950
C13_8 C 0.07672(16) 0.3215(2) 0.09496(16)
H15_8 H 0.0566 0.3509 0.0553
N5_8 N 0.03816(13) 0.27642(17) 0.14421(12)
C1_8 C 0.79761(16) 0.2122(2) 0.07885(16)
H1_8 H 0.8317 0.1651 0.0834
C2_8 C 0.70834(19) 0.2966(2) 0.04095(19)
H2_8 H 0.6695 0.3181 0.0135
C3_8 C 0.73516(17) 0.3374(2) 0.10034(19)
H3_8 H 0.7183 0.3914 0.1214
C4_8 C 0.83323(16) 0.2997(2) 0.19007(16)
H4_8 H 0.8341 0.2425 0.2169
H5_8 H 0.8065 0.3442 0.2186
C5_8 C 0.91286(14) 0.33404(19) 0.18242(14)
C6_8 C 0.94491(16) 0.3411(2) 0.25931(15)
H6_8 H 0.9552 0.2795 0.2765
H7_8 H 0.9910 0.3740 0.2569
C7_8 C 0.84835(16) 0.3448(2) 0.35266(15)
H8_8 H 0.8398 0.2818 0.3525
C8_8 C 0.89528(19) 0.4793(2) 0.32776(18)
H9_6 H 0.9239 0.5256 0.3079
C9_8 C 0.8430(2) 0.4892(2) 0.37829(19)
H10_6 H 0.8292 0.5445 0.3994
C10_8 C 0.95900(15) 0.26003(19) 0.14377(15)
H11_8 H 0.9495 0.2010 0.1662
H12_8 H 0.9428 0.2560 0.0944
C14_8 C 0.91893(16) 0.43010(19) 0.14855(14)
H16_8 H 0.8990 0.4743 0.1822
H17_8 H 0.9704 0.4443 0.1427
C15_6 C 0.83650(17) 0.5133(2) 0.06677(16)
H18_6 H 0.8197 0.5536 0.1018
C16_8 C 0.8957(2) 0.4015(2) 0.01431(16)
H19_8 H 0.9264 0.3516 0.0061
N1_8 N 0.74815(15) 0.21743(18) 0.02750(14)
N2_8 N 0.79215(13) 0.28387(18) 0.12354(14)
N3_8 N 0.89786(13) 0.38722(17) 0.31138(12)
N7_8 N 0.88265(14) 0.44418(17) 0.07901(12)
C17_8 C 0.8548(2) 0.4466(2) 0.96494(17)
H20_8 H 0.8522 0.4324 0.9164
H9_7 H 0.5761 0.0256 0.3079
H10_7 H 0.6708 0.0445 0.3994
C15_7 C 0.66350(17) 0.0133(2) 0.06677(16)
H18_7 H 0.6803 0.0536 0.1018
H9_8 H 0.4239 0.9744 0.6921
H10_8 H 0.3292 0.9555 0.6006
C15_8 C 0.33650(17) 0.9867(2) 0.93323(16)
H18_8 H 0.3197 0.9464 0.8982
O1 O 0.70407(19) 0.6145(2) 0.29455(17)
O2 O 0.7895(2) 0.6137(3) 0.21597(18)
O3 O 0.7270(2) 0.4919(2) 0.2345(3)
N12 N 0.73987(19) 0.5725(2) 0.24827(19)
O1_2 O 0.79593(19) 0.3855(2) 0.79455(17)
O2_2 O 0.7105(2) 0.3863(3) 0.71597(18)
O3_2 O 0.7730(2) 0.5081(2) 0.7345(3)
N12_2 N 0.76013(19) 0.4275(2) 0.74827(19)
O3_3 O 0.2270(2) 0.0081(2) 0.7655(3)
O1_3 O 0.20407(19) 0.8855(2) 0.70545(17)
O2_3 O 0.2895(2) 0.8863(3) 0.78403(18)
N12_3 N 0.23987(19) 0.9275(2) 0.75173(19)
O1_4 O 0.29593(19) 0.1145(2) 0.20545(17)
O2_4 O 0.2105(2) 0.1137(3) 0.28403(18)
N12_4 N 0.26013(19) 0.0725(2) 0.25173(19)
O3_4 O 0.2730(2) 0.9919(2) 0.2655(3)
O1_5 O 0.29593(19) 0.3855(2) 0.70545(17)
O2_5 O 0.2105(2) 0.3863(3) 0.78403(18)
O3_5 O 0.2730(2) 0.5081(2) 0.7655(3)
N12_5 N 0.26013(19) 0.4275(2) 0.75173(19)
O1_6 O 0.20407(19) 0.6145(2) 0.20545(17)
O2_6 O 0.2895(2) 0.6137(3) 0.28403(18)
O3_6 O 0.2270(2) 0.4919(2) 0.2655(3)
N12_6 N 0.23987(19) 0.5725(2) 0.25173(19)
O1_7 O 0.79593(19) 0.1145(2) 0.29455(17)
O2_7 O 0.7105(2) 0.1137(3) 0.21597(18)
N12_7 N 0.76013(19) 0.0725(2) 0.24827(19)
O3_7 O 0.7730(2) 0.9919(2) 0.2345(3)
O3_8 O 0.7270(2) 0.0081(2) 0.7345(3)
O1_8 O 0.70407(19) 0.8855(2) 0.79455(17)
O2_8 O 0.7895(2) 0.8863(3) 0.71597(18)
N12_8 N 0.73987(19) 0.9275(2) 0.74827(19)
O6 O 0.0485(4) 0.3657(5) 0.9296(3)
N13 N 0.0105(2) 0.3268(3) 0.8884(2)
O4 O 0.9783(3) 0.2598(3) 0.9112(3)
O5 O 0.9999(3) 0.3612(3) 0.8287(2)
O4_2 O 0.5217(3) 0.7402(3) 0.4112(3)
O5_2 O 0.5001(3) 0.6388(3) 0.3287(2)
O6_2 O 0.4515(4) 0.6343(5) 0.4296(3)
N13_2 N 0.4895(2) 0.6732(3) 0.3884(2)
O4_3 O 0.4783(3) 0.2402(3) 0.0888(3)
O5_3 O 0.4999(3) 0.1388(3) 0.1713(2)
O6_3 O 0.5485(4) 0.1343(5) 0.0704(3)
N13_3 N 0.5105(2) 0.1732(3) 0.1116(2)
O4_4 O 0.0217(3) 0.7598(3) 0.5888(3)
O5_4 O 0.0001(3) 0.8612(3) 0.6713(2)
O6_4 O 0.9515(4) 0.8657(5) 0.5704(3)
N13_4 N 0.9895(2) 0.8268(3) 0.6116(2)
O4_5 O 0.0217(3) 0.7402(3) 0.0888(3)
O5_5 O 0.0001(3) 0.6388(3) 0.1713(2)
O6_5 O 0.9515(4) 0.6343(5) 0.0704(3)
N13_5 N 0.9895(2) 0.6732(3) 0.1116(2)
O4_6 O 0.4783(3) 0.2598(3) 0.5888(3)
O5_6 O 0.4999(3) 0.3612(3) 0.6713(2)
O6_6 O 0.5485(4) 0.3657(5) 0.5704(3)
N13_6 N 0.5105(2) 0.3268(3) 0.6116(2)
O4_7 O 0.5217(3) 0.7598(3) 0.9112(3)
O5_7 O 0.5001(3) 0.8612(3) 0.8287(2)
O6_7 O 0.4515(4) 0.8657(5) 0.9296(3)
N13_7 N 0.4895(2) 0.8268(3) 0.8884(2)
O6_8 O 0.0485(4) 0.1343(5) 0.4296(3)
N13_8 N 0.0105(2) 0.1732(3) 0.3884(2)
O4_8 O 0.9783(3) 0.2402(3) 0.4112(3)
O5_8 O 0.9999(3) 0.1388(3) 0.3287(2)
loop_
_geom_bond_atom_site_label_1
_geom_bond_atom_site_label_2
_geom_bond_site_symmetry_1
_geom_bond_site_symmetry_2
C11 H13 1_555 1_555
C12 C11 1_555 1_555
H14 C12 1_555 1_555
C13 H15 1_555 1_555
N6 C12 1_555 1_555
Zn4 N6 1_555 1_555
C11 N5 1_555 1_555
C13 N5 1_555 1_555
C13 N6 1_555 1_555
Zn1 N1 1_555 1_555
C1 H1 1_555 1_555
C2 H2 1_555 1_555
C3 C2 1_555 1_555
H3 C3 1_555 1_555
C4 H4 1_555 1_555
H5 C4 1_555 1_555
C5 C4 1_555 1_555
C6 C5 1_555 1_555
H6 C6 1_555 1_555
H7 C6 1_555 1_555
C7 H8 1_555 1_555
C9 C8 1_555 1_555
C10 C5 1_555 1_555
H11 C10 1_555 1_555
H12 C10 1_555 1_555
C14 C5 1_555 1_555
H16 C14 1_555 1_555
H17 C14 1_555 1_555
C16 H19 1_555 1_555
C17 C16 1_555 1_555
H20 C17 1_555 1_555
N1 C1 1_555 1_555
N2 C1 1_555 1_555
N3 C6 1_555 1_555
N4 C7 1_555 1_555
N7 C14 1_555 1_555
Zn2 N4 1_555 1_555
N9 Zn1 1_555 1_555
N10 Zn1 1_555 1_555
N11 Zn1 1_555 1_555
C2 N1 1_555 1_555
C3 N2 1_555 1_555
C4 N2 1_555 1_555
C7 N3 1_555 1_555
C8 N3 1_555 1_555
C9 N4 1_555 1_555
C16 N7 1_555 1_555
C15 H18 1_555 1_555
N8 C15 1_555 1_555
Zn3 N8 1_555 1_555
Zn2 N8_2 1_555 1_555
C1_2 H1_2 1_555 1_555
C2_2 H2_2 1_555 1_555
C3_2 C2_2 1_555 1_555
H3_2 C3_2 1_555 1_555
C4_2 H4_2 1_555 1_555
H5_2 C4_2 1_555 1_555
C5_2 C4_2 1_555 1_555
C6_2 C5_2 1_555 1_555
H6_2 C6_2 1_555 1_555
H7_2 C6_2 1_555 1_555
C7_2 H8_2 1_555 1_555
C9_2 C8_2 1_555 1_555
C10_2 C5_2 1_555 1_555
H11_2 C10_2 1_555 1_555
H12_2 C10_2 1_555 1_555
C11_2 H13_2 1_555 1_555
C12_2 C11_2 1_555 1_555
H14_2 C12_2 1_555 1_555
C13_2 H15_2 1_555 1_555
C14_2 C5_2 1_555 1_555
H16_2 C14_2 1_555 1_555
H17_2 C14_2 1_555 1_555
C16_2 H19_2 1_555 1_555
N1_2 C1_2 1_555 1_555
N2_2 C1_2 1_555 1_555
N3_2 C6_2 1_555 1_555
N4_2 C7_2 1_555 1_555
N5_2 C10_2 1_555 1_555
N6_2 C12_2 1_555 1_555
N7_2 C14_2 1_555 1_555
Zn3 N4_2 1_555 1_555
Zn4_2 N6_2 1_555 1_555
C2_2 N1_2 1_555 1_555
C3_2 N2_2 1_555 1_555
C4_2 N2_2 1_555 1_555
C7_2 N3_2 1_555 1_555
C8_2 N3_2 1_555 1_555
C9_2 N4_2 1_555 1_555
C11_2 N5_2 1_555 1_555
C13_2 N5_2 1_555 1_555
C13_2 N6_2 1_555 1_555
C16_2 N7_2 1_555 1_555
H20_2 C17_2 1_555 1_555
N9_2 Zn1_2 1_555 1_555
N10_2 Zn1_2 1_555 1_555
N11_2 Zn1_2 1_555 1_555
Zn4 N1_3 1_555 1_555
C1_3 H1_3 1_555 1_555
C2_3 H2_3 1_555 1_555
C3_3 C2_3 1_555 1_555
H3_3 C3_3 1_555 1_555
C4_3 H4_3 1_555 1_555
H5_3 C4_3 1_555 1_555
C5_3 C4_3 1_555 1_555
C6_3 C5_3 1_555 1_555
H6_3 C6_3 1_555 1_555
H7_3 C6_3 1_555 1_555
C7_3 H8_3 1_555 1_555
C8_3 H9_2 1_555 1_555
C9_3 C8_3 1_555 1_555
H10_2 C9_3 1_555 1_555
C10_3 C5_3 1_555 1_555
H11_3 C10_3 1_555 1_555
H12_3 C10_3 1_555 1_555
C11_3 H13_3 1_555 1_555
C12_3 C11_3 1_555 1_555
H14_3 C12_3 1_555 1_555
C13_3 H15_3 1_555 1_555
C14_3 C5_3 1_555 1_555
H16_3 C14_3 1_555 1_555
H17_3 C14_3 1_555 1_555
C15_2 H18_2 1_555 1_555
C16_3 H19_3 1_555 1_555
C17_3 C16_3 1_555 1_555
H20_3 C17_3 1_555 1_555
N1_3 C1_3 1_555 1_555
N2_3 C1_3 1_555 1_555
N3_3 C6_3 1_555 1_555
N4_3 C7_3 1_555 1_555
N5_3 C10_3 1_555 1_555
N10 C12_3 1_555 1_555
N7_3 C14_3 1_555 1_555
N8_3 C15_2 1_555 1_555
Zn2_2 N4_3 1_555 1_555
Zn3_2 N8_3 1_555 1_555
N9_3 Zn4 1_555 1_555
N11_3 Zn4 1_555 1_555
C2_3 N1_3 1_555 1_555
C3_3 N2_3 1_555 1_555
C4_3 N2_3 1_555 1_555
C7_3 N3_3 1_555 1_555
C8_3 N3_3 1_555 1_555
C9_3 N4_3 1_555 1_555
C11_3 N5_3 1_555 1_555
C13_3 N5_3 1_555 1_555
C13_3 N10 1_555 1_555
C15_2 N7_3 1_555 1_555
C16_3 N7_3 1_555 1_555
C17_3 N8_3 1_555 1_555
H20_4 C17_4 1_555 1_555
Zn2_2 N8_4 1_555 1_555
N9_4 Zn4_2 1_555 1_555
N11_4 Zn4_2 1_555 1_555
C17_4 N8_4 1_555 1_555
C1_4 H1_4 1_555 1_555
C2_4 H2_4 1_555 1_555
C3_4 C2_4 1_555 1_555
H3_4 C3_4 1_555 1_555
C4_4 H4_4 1_555 1_555
H5_4 C4_4 1_555 1_555
C5_4 C4_4 1_555 1_555
C6_4 C5_4 1_555 1_555
H6_4 C6_4 1_555 1_555
H7_4 C6_4 1_555 1_555
C7_4 H8_4 1_555 1_555
C8_4 H9_3 1_555 1_555
C9_4 C8_4 1_555 1_555
H10_3 C9_4 1_555 1_555
C10_4 C5_4 1_555 1_555
H11_4 C10_4 1_555 1_555
H12_4 C10_4 1_555 1_555
C14_4 C5_4 1_555 1_555
H16_4 C14_4 1_555 1_555
H17_4 C14_4 1_555 1_555
C15_3 H18_3 1_555 1_555
C16_4 H19_4 1_555 1_555
N1_4 C1_4 1_555 1_555
N2_4 C1_4 1_555 1_555
N3_4 C6_4 1_555 1_555
N4_4 C7_4 1_555 1_555
N7_4 C14_4 1_555 1_555
Zn3_2 N4_4 1_555 1_555
C2_4 N1_4 1_555 1_555
C3_4 N2_4 1_555 1_555
C4_4 N2_4 1_555 1_555
C7_4 N3_4 1_555 1_555
C8_4 N3_4 1_555 1_555
C9_4 N4_4 1_555 1_555
C15_3 N7_4 1_555 1_555
C16_4 N7_4 1_555 1_555
C11_4 H13_4 1_555 1_555
C12_4 C11_4 1_555 1_555
H14_4 C12_4 1_555 1_555
C13_4 H15_4 1_555 1_555
N10_2 C12_4 1_555 1_555
C11_4 N5_4 1_555 1_555
C13_4 N5_4 1_555 1_555
C13_4 N10_2 1_555 1_555
C15_4 H18_4 1_555 1_555
N11_3 C15_4 1_555 1_555
Zn3_2 N1_5 1_555 1_555
C1_5 H1_5 1_555 1_555
C2_5 H2_5 1_555 1_555
C3_5 C2_5 1_555 1_555
H3_5 C3_5 1_555 1_555
C4_5 H4_5 1_555 1_555
H5_5 C4_5 1_555 1_555
C5_5 C4_5 1_555 1_555
C6_5 C5_5 1_555 1_555
H6_5 C6_5 1_555 1_555
H7_5 C6_5 1_555 1_555
C7_5 H8_5 1_555 1_555
C9_5 C8_5 1_555 1_555
C10_5 C5_5 1_555 1_555
H11_5 C10_5 1_555 1_555
H12_5 C10_5 1_555 1_555
C14_5 C5_5 1_555 1_555
H16_5 C14_5 1_555 1_555
H17_5 C14_5 1_555 1_555
C16_5 H19_5 1_555 1_555
C17_5 C16_5 1_555 1_555
H20_5 C17_5 1_555 1_555
N1_5 C1_5 1_555 1_555
N2_5 C1_5 1_555 1_555
N3_5 C6_5 1_555 1_555
N9_4 C7_5 1_555 1_555
N7_5 C14_5 1_555 1_555
N10_3 Zn3_2 1_555 1_555
C2_5 N1_5 1_555 1_555
C3_5 N2_5 1_555 1_555
C4_5 N2_5 1_555 1_555
C7_5 N3_5 1_555 1_555
C8_5 N3_5 1_555 1_555
C9_5 N9_4 1_555 1_555
C16_5 N7_5 1_555 1_555
C11_5 H13_5 1_555 1_555
C12_5 C11_5 1_555 1_555
H14_5 C12_5 1_555 1_555
C13_5 H15_5 1_555 1_555
N6_3 C12_5 1_555 1_555
Zn3 N6_3 1_555 1_555
C11_5 N5_5 1_555 1_555
C13_5 N5_5 1_555 1_555
C13_5 N6_3 1_555 1_555
H20_6 C17_6 1_555 1_555
N10_4 Zn2_2 1_555 1_555
C1_6 H1_6 1_555 1_555
C2_6 H2_6 1_555 1_555
C3_6 C2_6 1_555 1_555
H3_6 C3_6 1_555 1_555
C4_6 H4_6 1_555 1_555
H5_6 C4_6 1_555 1_555
C5_6 C4_6 1_555 1_555
C6_6 C5_6 1_555 1_555
H6_6 C6_6 1_555 1_555
H7_6 C6_6 1_555 1_555
C7_6 H8_6 1_555 1_555
C9_6 C8_6 1_555 1_555
C10_6 C5_6 1_555 1_555
H11_6 C10_6 1_555 1_555
H12_6 C10_6 1_555 1_555
C11_6 H13_6 1_555 1_555
C12_6 C11_6 1_555 1_555
H14_6 C12_6 1_555 1_555
C13_6 H15_6 1_555 1_555
C14_6 C5_6 1_555 1_555
H16_6 C14_6 1_555 1_555
H17_6 C14_6 1_555 1_555
C16_6 H19_6 1_555 1_555
N1_6 C1_6 1_555 1_555
N2_6 C1_6 1_555 1_555
N3_6 C6_6 1_555 1_555
N9_3 C7_6 1_555 1_555
N5_6 C10_6 1_555 1_555
N6_4 C12_6 1_555 1_555
N7_6 C14_6 1_555 1_555
Zn2 N6_4 1_555 1_555
C2_6 N1_6 1_555 1_555
C3_6 N2_6 1_555 1_555
C4_6 N2_6 1_555 1_555
C7_6 N3_6 1_555 1_555
C8_6 N3_6 1_555 1_555
C9_6 N9_3 1_555 1_555
C11_6 N5_6 1_555 1_555
C13_6 N5_6 1_555 1_555
C13_6 N6_4 1_555 1_555
C16_6 N7_6 1_555 1_555
Zn3 N1_7 1_555 1_555
C1_7 H1_7 1_555 1_555
C2_7 H2_7 1_555 1_555
C3_7 C2_7 1_555 1_555
H3_7 C3_7 1_555 1_555
C4_7 H4_7 1_555 1_555
H5_7 C4_7 1_555 1_555
C5_7 C4_7 1_555 1_555
C6_7 C5_7 1_555 1_555
H6_7 C6_7 1_555 1_555
H7_7 C6_7 1_555 1_555
C7_7 H8_7 1_555 1_555
C8_7 H9_5 1_555 1_555
C9_7 C8_7 1_555 1_555
H10_5 C9_7 1_555 1_555
C10_7 C5_7 1_555 1_555
H11_7 C10_7 1_555 1_555
H12_7 C10_7 1_555 1_555
C11_7 H13_7 1_555 1_555
C12_7 C11_7 1_555 1_555
H14_7 C12_7 1_555 1_555
C13_7 H15_7 1_555 1_555
C14_7 C5_7 1_555 1_555
H16_7 C14_7 1_555 1_555
H17_7 C14_7 1_555 1_555
C15_5 H18_5 1_555 1_555
C16_7 H19_7 1_555 1_555
C17_7 C16_7 1_555 1_555
H20_7 C17_7 1_555 1_555
N1_7 C1_7 1_555 1_555
N2_7 C1_7 1_555 1_555
N3_7 C6_7 1_555 1_555
N9_2 C7_7 1_555 1_555
N5_7 C10_7 1_555 1_555
N10_3 C12_7 1_555 1_555
N7_7 C14_7 1_555 1_555
N11 C15_5 1_555 1_555
C2_7 N1_7 1_555 1_555
C3_7 N2_7 1_555 1_555
C4_7 N2_7 1_555 1_555
C7_7 N3_7 1_555 1_555
C8_7 N3_7 1_555 1_555
C9_7 N9_2 1_555 1_555
C11_7 N5_7 1_555 1_555
C13_7 N5_7 1_555 1_555
C13_7 N10_3 1_555 1_555
C15_5 N7_7 1_555 1_555
C16_7 N7_7 1_555 1_555
C17_7 N11 1_555 1_555
C11_8 H13_8 1_555 1_555
C12_8 C11_8 1_555 1_555
H14_8 C12_8 1_555 1_555
C13_8 H15_8 1_555 1_555
N10_4 C12_8 1_555 1_555
C11_8 N5_8 1_555 1_555
C13_8 N5_8 1_555 1_555
C13_8 N10_4 1_555 1_555
C1_8 H1_8 1_555 1_555
C2_8 H2_8 1_555 1_555
C3_8 C2_8 1_555 1_555
H3_8 C3_8 1_555 1_555
C4_8 H4_8 1_555 1_555
H5_8 C4_8 1_555 1_555
C5_8 C4_8 1_555 1_555
C6_8 C5_8 1_555 1_555
H6_8 C6_8 1_555 1_555
H7_8 C6_8 1_555 1_555
C7_8 H8_8 1_555 1_555
C8_8 H9_6 1_555 1_555
C9_8 C8_8 1_555 1_555
H10_6 C9_8 1_555 1_555
C10_8 C5_8 1_555 1_555
H11_8 C10_8 1_555 1_555
H12_8 C10_8 1_555 1_555
C14_8 C5_8 1_555 1_555
H16_8 C14_8 1_555 1_555
H17_8 C14_8 1_555 1_555
C15_6 H18_6 1_555 1_555
C16_8 H19_8 1_555 1_555
N1_8 C1_8 1_555 1_555
N2_8 C1_8 1_555 1_555
N3_8 C6_8 1_555 1_555
N9 C7_8 1_555 1_555
N7_8 C14_8 1_555 1_555
C2_8 N1_8 1_555 1_555
C3_8 N2_8 1_555 1_555
C4_8 N2_8 1_555 1_555
C7_8 N3_8 1_555 1_555
C8_8 N3_8 1_555 1_555
C9_8 N9 1_555 1_555
C15_6 N7_8 1_555 1_555
C16_8 N7_8 1_555 1_555
H20_8 C17_8 1_555 1_555
C17_8 N11_2 1_555 1_555
C15_7 H18_7 1_555 1_555
C15_8 H18_8 1_555 1_555
O1 N12 1_555 1_555
O2 N12 1_555 1_555
O3 N12 1_555 1_555
O1_2 N12_2 1_555 1_555
O2_2 N12_2 1_555 1_555
O3_2 N12_2 1_555 1_555
O1_3 N12_3 1_555 1_555
O2_3 N12_3 1_555 1_555
O1_4 N12_4 1_555 1_555
O2_4 N12_4 1_555 1_555
O1_5 N12_5 1_555 1_555
O2_5 N12_5 1_555 1_555
O3_5 N12_5 1_555 1_555
O1_6 N12_6 1_555 1_555
O2_6 N12_6 1_555 1_555
O3_6 N12_6 1_555 1_555
O1_7 N12_7 1_555 1_555
O2_7 N12_7 1_555 1_555
O1_8 N12_8 1_555 1_555
O2_8 N12_8 1_555 1_555
O6 N13 1_555 1_555
O4_2 N13_2 1_555 1_555
O5_2 N13_2 1_555 1_555
O6_2 N13_2 1_555 1_555
O4_3 N13_3 1_555 1_555
O5_3 N13_3 1_555 1_555
O6_3 N13_3 1_555 1_555
O6_4 N13_4 1_555 1_555
O6_5 N13_5 1_555 1_555
O4_6 N13_6 1_555 1_555
O5_6 N13_6 1_555 1_555
O6_6 N13_6 1_555 1_555
O4_7 N13_7 1_555 1_555
O5_7 N13_7 1_555 1_555
O6_7 N13_7 1_555 1_555
O6_8 N13_8 1_555 1_555

#END
