
###############################################################################
#
# This file contains modified crystal structure data generated from the
# MOF subset of the Cambridge Structural Database (CSD) v543 
# hosted by the Cambridge Crystallographic Data Centre (CCDC).
#
# This work is licensed under the Creative Commons
# Attribution-NonCommercial-ShareAlike 4.0 International License.
# To view a copy of this license, visit
# http://creativecommons.org/licenses/by-nc-sa/4.0/
# or send a letter to
# Creative Commons, PO Box 1866, Mountain View, CA 94042, USA.
#
# CIF created using the CSD Python API on 29 September 2022
# The structure has been converted into the P1 space group
# The structure has a 3D framework
# The original CSD entry OMIMUU is in the monoclinic crystal system
# The framework has been calculated to contain at least 10.0% void space
# The void calculation uses a probe of radius 1.32A, grid spacing 0.4
#
###############################################################################

data_OMIMUU
_chemical_formula_moiety         '(C672 H448 N48 O80 Zn16)n'
_symmetry_cell_setting           triclinic
_symmetry_space_group_name_H-M   'P 1'
_symmetry_Int_Tables_number      1
_space_group_name_Hall           'P 1'
loop_
_symmetry_equiv_pos_site_id
_symmetry_equiv_pos_as_xyz
1 x,y,z
_cell_length_a                   21.2969(18)
_cell_length_b                   37.398(3)
_cell_length_c                   28.267(2)
_cell_angle_alpha                90
_cell_angle_beta                 109.7320(10)
_cell_angle_gamma                90
_cell_volume                     21191.6
loop_
_atom_site_label
_atom_site_type_symbol
_atom_site_fract_x
_atom_site_fract_y
_atom_site_fract_z
H7 H 0.0299 0.4368 0.1762
C23 C 0.01015(15) 0.49658(8) 0.12849(12)
C24 C 0.00012(16) 0.47565(8) 0.08718(12)
C25 C 0.04677(16) 0.47482(8) 0.06224(12)
H18 H 0.0397 0.4596 0.0349
C26 C 0.10278(16) 0.49603(8) 0.07721(12)
C27 C 0.11440(16) 0.51599(8) 0.12148(13)
H19 H 0.1537 0.5290 0.1347
C28 C 0.06906(15) 0.51637(8) 0.14449(13)
H20 H 0.0772 0.5307 0.1729
C29 C 0.14954(15) 0.49689(8) 0.04744(12)
C30 C 0.12996(16) 0.48417(8) 0.00023(13)
C33 C 0.25546(17) 0.51360(8) 0.03971(13)
H23 H 0.2972 0.5241 0.0538
C34 C 0.21235(16) 0.51109(8) 0.06749(13)
H24 H 0.2267 0.5193 0.1005
C58 C 0.02528(16) 0.27714(8) 0.38192(12)
C59 C 0.08487(16) 0.25921(8) 0.38876(12)
H41 H 0.0848 0.2378 0.3720
C60 C 0.14459(15) 0.27330(8) 0.42059(12)
H42 H 0.1845 0.2613 0.4252
C61 C 0.14471(15) 0.30532(8) 0.44559(12)
C62 C 0.08511(15) 0.32325(8) 0.43876(11)
H43 H 0.0852 0.3447 0.4555
C63 C 0.02540(16) 0.30916(8) 0.40692(12)
C64 C 0.22203(14) 0.31222(8) 0.52847(11)
C65 C 0.28622(15) 0.32107(8) 0.55783(12)
H45 H 0.3145 0.3320 0.5433
C66 C 0.30833(15) 0.31383(8) 0.60801(12)
H46 H 0.3516 0.3200 0.6277
C67 C 0.26628(15) 0.29715(7) 0.63015(11)
C68 C 0.20184(15) 0.28887(7) 0.59959(12)
H47 H 0.1731 0.2779 0.6136
C69 C 0.17957(15) 0.29658(7) 0.54902(12)
H48 H 0.1360 0.2912 0.5291
C70 C 0.29051(14) 0.28693(8) 0.68502(11)
H54 H 0.0032 0.3249 0.5863
C84 C 0.03032(16) 0.26919(8) 0.64581(12)
O3 O 0.20492(9) 0.31955(5) 0.47775(7)
O4 O 0.35046(9) 0.29104(5) 0.71107(7)
O5 O 0.25029(9) 0.27248(5) 0.70280(7)
O9 O 0.08255(10) 0.27957(5) 0.64154(7)
O10 O 0.03120(10) 0.24604(5) 0.67837(8)
Zn4 Zn 0.339936(17) 0.257368(9) 0.781132(14)
Zn7 Zn 0.150844(17) 0.248415(9) 0.713838(14)
H21 H 0.0873 0.4746 0.9864
C31 C 0.17253(16) 0.48486(9) 0.97094(13)
H22 H 0.1589 0.4752 0.9387
C32 C 0.23592(16) 0.50057(8) 0.99199(12)
C35 C 0.28459(15) 0.47004(8) 0.93651(13)
C36 C 0.29765(15) 0.43870(8) 0.96459(13)
H25 H 0.3020 0.4393 0.9984
C37 C 0.30418(15) 0.40653(8) 0.94205(12)
H26 H 0.3129 0.3856 0.9608
C38 C 0.29765(15) 0.40571(8) 0.89145(12)
C39 C 0.28459(15) 0.43705(8) 0.86338(13)
H27 H 0.2802 0.4365 0.8295
C40 C 0.27806(16) 0.46922(9) 0.88591(13)
H28 H 0.2693 0.4902 0.8671
C41 C 0.30660(15) 0.37121(8) 0.86793(12)
C42 C 0.28338(15) 0.33873(8) 0.87869(12)
H29 H 0.2619 0.3377 0.9024
C43 C 0.29151(14) 0.30831(8) 0.85509(11)
H30 H 0.2747 0.2870 0.8628
C44 C 0.34675(15) 0.33860(8) 0.81071(12)
H31 H 0.3683 0.3388 0.7870
C45 C 0.34081(15) 0.36977(8) 0.83341(12)
H32 H 0.3597 0.3905 0.8259
C46 C 0.29090(16) 0.53645(8) 0.94481(12)
C47 C 0.25266(16) 0.56562(8) 0.94567(11)
H33 H 0.2184 0.5635 0.9589
C48 C 0.26414(15) 0.59834(8) 0.92716(12)
H34 H 0.2379 0.6179 0.9286
C49 C 0.31466(16) 0.60243(8) 0.90626(12)
C50 C 0.35154(15) 0.57259(8) 0.90640(12)
H35 H 0.3859 0.5744 0.8932
C51 C 0.34085(16) 0.53991(8) 0.92505(12)
H36 H 0.3675 0.5204 0.9242
C52 C 0.32259(15) 0.63573(8) 0.88132(12)
C53 C 0.29000(15) 0.66693(8) 0.88423(12)
H37 H 0.2634 0.6681 0.9044
C54 C 0.29660(15) 0.69628(8) 0.85758(12)
H38 H 0.2721 0.7165 0.8595
C55 C 0.36269(15) 0.66830(8) 0.82422(12)
H39 H 0.3907 0.6687 0.8052
C56 C 0.35369(15) 0.63652(8) 0.84475(13)
H40 H 0.3682 0.6154 0.8345
N4 N 0.27718(12) 0.50220(6) 0.96157(10)
N5 N 0.32299(11) 0.30785(6) 0.82103(9)
N6 N 0.33411(12) 0.69841(6) 0.82974(9)
Zn6 Zn 0.349156(17) 0.748415(9) 0.786162(14)
C1 C 0.82546(15) 0.32664(8) 0.25127(12)
H1 H 0.7942 0.3257 0.2676
C2 C 0.84099(15) 0.35852(8) 0.23636(12)
H2 H 0.8221 0.3791 0.2442
C3 C 0.88492(16) 0.36134(8) 0.20935(12)
C4 C 0.91327(15) 0.32909(8) 0.20035(12)
H3 H 0.9438 0.3290 0.1834
C5 C 0.89449(15) 0.29801(8) 0.21735(12)
H4 H 0.9119 0.2767 0.2100
C6 C 0.90408(16) 0.39640(8) 0.19284(12)
C7 C 0.86085(15) 0.42526(8) 0.18349(12)
H5 H 0.8187 0.4225 0.1861
C8 C 0.87995(15) 0.45873(8) 0.17013(12)
H6 H 0.8501 0.4778 0.1635
C9 C 0.94252(16) 0.46361(7) 0.16672(12)
C10 C 0.98687(16) 0.43408(8) 0.17705(12)
C11 C 0.96566(16) 0.40069(8) 0.18859(12)
H8 H 0.9941 0.3811 0.1934
C12 C 0.94212(15) 0.52975(8) 0.16820(13)
C13 C 0.92360(15) 0.53265(8) 0.21072(12)
H9 H 0.9236 0.5125 0.2300
C14 C 0.90511(15) 0.56566(8) 0.22443(12)
H10 H 0.8927 0.5676 0.2529
C15 C 0.90515(15) 0.59577(8) 0.19563(13)
C16 C 0.92367(15) 0.59288(8) 0.15310(12)
H11 H 0.9237 0.6130 0.1338
C17 C 0.94216(15) 0.55987(8) 0.13939(12)
H12 H 0.9545 0.5579 0.1109
C18 C 0.88809(15) 0.63160(8) 0.21231(12)
C19 C 0.84545(15) 0.63489(8) 0.24090(12)
H13 H 0.8251 0.6147 0.2484
C20 C 0.83414(15) 0.66784(8) 0.25758(12)
H14 H 0.8066 0.6690 0.2770
C21 C 0.90083(15) 0.69562(8) 0.21985(11)
H15 H 0.9196 0.7164 0.2125
C22 C 0.91606(15) 0.66411(8) 0.20185(12)
H16 H 0.9443 0.6638 0.1830
H17 H 0.9618 0.4617 0.0754
C57 C 0.96088(15) 0.26181(7) 0.34965(12)
H44 H 0.9855 0.3212 0.4024
C71 C 0.70138(15) 0.28282(8) 0.30890(12)
C72 C 0.72561(15) 0.29442(7) 0.36289(12)
C73 C 0.78833(15) 0.28650(7) 0.39409(12)
H49 H 0.8168 0.2744 0.3808
C74 C 0.81192(15) 0.29555(7) 0.44467(12)
H50 H 0.8559 0.2913 0.4647
C75 C 0.76649(15) 0.31127(8) 0.46392(12)
C76 C 0.70235(15) 0.32033(8) 0.43360(12)
H51 H 0.6730 0.3314 0.4469
C77 C 0.68395(15) 0.31256(8) 0.38424(12)
H52 H 0.6418 0.3195 0.3634
C78 C 0.84430(15) 0.30828(8) 0.54697(12)
C79 C 0.90334(16) 0.32593(8) 0.55105(12)
H53 H 0.9024 0.3463 0.5320
C80 C 0.96374(15) 0.31308(8) 0.58357(11)
C81 C 0.96511(14) 0.28258(8) 0.61200(11)
C82 C 0.90607(15) 0.26493(8) 0.60792(12)
H55 H 0.9070 0.2445 0.6269
C83 C 0.84566(15) 0.27778(8) 0.57541(11)
H56 H 0.8062 0.2660 0.5727
N1 N 0.85351(12) 0.29595(6) 0.24343(9)
N2 N 0.86026(11) 0.69871(6) 0.24765(9)
N3 N 0.96373(12) 0.49704(6) 0.15515(9)
O1 O 0.96161(9) 0.23911(5) 0.31780(8)
O2 O 0.90837(9) 0.27296(5) 0.35377(7)
O6 O 0.74087(10) 0.26789(5) 0.29142(7)
O7 O 0.64180(10) 0.28648(5) 0.28282(8)
O8 O 0.78319(10) 0.32050(5) 0.51452(8)
Zn1 Zn 0.839936(17) 0.242632(9) 0.281132(14)
Zn2 Zn 0.650844(17) 0.251585(9) 0.213838(14)
N7 N 0.63974(11) 0.19871(6) 0.25235(9)
N8 N 0.82299(11) 0.19215(6) 0.32103(9)
N9 N 0.66589(12) 0.30159(6) 0.17026(9)
O11 O 0.85046(9) 0.20896(5) 0.21107(7)
O12 O 0.75029(9) 0.22752(5) 0.20280(7)
O13 O 0.58255(10) 0.22043(5) 0.14154(7)
O14 O 0.53120(10) 0.25396(5) 0.17837(8)
Zn5 Zn 0.849156(17) 0.751585(9) 0.286162(14)
C12_2 C 0.55788(15) 0.02975(8) 0.33180(13)
C13_2 C 0.57640(15) 0.03265(8) 0.28928(12)
H9_2 H 0.5764 0.0125 0.2700
C14_2 C 0.59489(15) 0.06566(8) 0.27557(12)
H10_2 H 0.6073 0.0676 0.2471
C15_2 C 0.59485(15) 0.09577(8) 0.30437(13)
C16_2 C 0.57633(15) 0.09288(8) 0.34690(12)
H11_2 H 0.5763 0.1130 0.3662
C17_2 C 0.55784(15) 0.05987(8) 0.36061(12)
H12_2 H 0.5455 0.0579 0.3891
C18_2 C 0.61191(15) 0.13160(8) 0.28769(12)
C19_2 C 0.65455(15) 0.13489(8) 0.25910(12)
H13_2 H 0.6749 0.1147 0.2516
C20_2 C 0.66586(15) 0.16784(8) 0.24242(12)
H14_2 H 0.6934 0.1690 0.2230
C21_2 C 0.59917(15) 0.19562(8) 0.28015(11)
H15_2 H 0.5804 0.2164 0.2875
C22_2 C 0.58394(15) 0.16411(8) 0.29815(12)
H16_2 H 0.5557 0.1638 0.3170
C27_2 C 0.38560(16) 0.01599(8) 0.37852(13)
H19_2 H 0.3463 0.0290 0.3653
C28_2 C 0.43094(15) 0.01637(8) 0.35551(13)
H20_2 H 0.4228 0.0307 0.3271
C32_2 C 0.26408(16) 0.00057(8) 0.50801(12)
C33_2 C 0.24454(17) 0.01360(8) 0.46029(13)
H23_2 H 0.2028 0.0241 0.4462
C34_2 C 0.28765(16) 0.01109(8) 0.43251(13)
H24_2 H 0.2733 0.0193 0.3995
C46_2 C 0.20910(16) 0.03645(8) 0.55519(12)
C47_2 C 0.24734(16) 0.06562(8) 0.55433(11)
H33_2 H 0.2816 0.0635 0.5411
C48_2 C 0.23586(15) 0.09834(8) 0.57284(12)
H34_2 H 0.2621 0.1179 0.5714
C49_2 C 0.18534(16) 0.10243(8) 0.59374(12)
C50_2 C 0.14846(15) 0.07259(8) 0.59360(12)
H35_2 H 0.1141 0.0744 0.6068
C51_2 C 0.15915(16) 0.03991(8) 0.57495(12)
H36_2 H 0.1325 0.0204 0.5758
C52_2 C 0.17741(15) 0.13573(8) 0.61868(12)
C53_2 C 0.21000(15) 0.16693(8) 0.61577(12)
H37_2 H 0.2366 0.1681 0.5956
C54_2 C 0.20340(15) 0.19628(8) 0.64242(12)
H38_2 H 0.2279 0.2165 0.6405
C55_2 C 0.13731(15) 0.16830(8) 0.67578(12)
H39_2 H 0.1093 0.1687 0.6948
C56_2 C 0.14631(15) 0.13652(8) 0.65525(13)
H40_2 H 0.1318 0.1154 0.6655
N4_2 N 0.22282(12) 0.00220(6) 0.53843(10)
N6_2 N 0.16589(12) 0.19841(6) 0.67026(9)
C1_2 C 0.67454(15) 0.82664(8) 0.24873(12)
H1_2 H 0.7058 0.8257 0.2324
C2_2 C 0.65901(15) 0.85852(8) 0.26364(12)
H2_2 H 0.6779 0.8791 0.2558
C3_2 C 0.61508(16) 0.86134(8) 0.29065(12)
C4_2 C 0.58673(15) 0.82909(8) 0.29965(12)
H3_2 H 0.5562 0.8290 0.3166
C5_2 C 0.60551(15) 0.79801(8) 0.28265(12)
H4_2 H 0.5881 0.7767 0.2900
C6_2 C 0.59592(16) 0.89640(8) 0.30716(12)
C7_2 C 0.63915(15) 0.92526(8) 0.31651(12)
H5_2 H 0.6813 0.9225 0.3139
C8_2 C 0.62005(15) 0.95873(8) 0.32987(12)
H6_2 H 0.6499 0.9778 0.3365
C9_2 C 0.55748(16) 0.96361(7) 0.33328(12)
C10_2 C 0.51313(16) 0.93408(8) 0.32295(12)
H7_2 H 0.4701 0.9368 0.3238
C11_2 C 0.53434(16) 0.90069(8) 0.31141(12)
H8_2 H 0.5059 0.8811 0.3066
C23_2 C 0.48985(15) 0.99658(8) 0.37151(12)
C24_2 C 0.49988(16) 0.97565(8) 0.41282(12)
H17_2 H 0.5382 0.9617 0.4246
C25_2 C 0.45323(16) 0.97482(8) 0.43776(12)
H18_2 H 0.4603 0.9596 0.4651
C26_2 C 0.39722(16) 0.99603(8) 0.42279(12)
C29_2 C 0.35046(15) 0.99689(8) 0.45256(12)
C30_2 C 0.37004(16) 0.98417(8) 0.49977(13)
H21_2 H 0.4127 0.9746 0.5136
C31_2 C 0.32747(16) 0.98486(9) 0.52906(13)
H22_2 H 0.3411 0.9752 0.5613
C35_2 C 0.21541(15) 0.97004(8) 0.56349(13)
C36_2 C 0.20235(15) 0.93870(8) 0.53541(13)
H25_2 H 0.1980 0.9393 0.5016
C37_2 C 0.19582(15) 0.90653(8) 0.55795(12)
H26_2 H 0.1871 0.8856 0.5392
C38_2 C 0.20235(15) 0.90571(8) 0.60855(12)
C39_2 C 0.21541(15) 0.93705(8) 0.63662(13)
H27_2 H 0.2198 0.9365 0.6705
C40_2 C 0.22194(16) 0.96922(9) 0.61409(13)
H28_2 H 0.2307 0.9902 0.6329
C41_2 C 0.19340(15) 0.87121(8) 0.63207(12)
C42_2 C 0.21662(15) 0.83873(8) 0.62131(12)
H29_2 H 0.2381 0.8377 0.5976
C43_2 C 0.20849(14) 0.80831(8) 0.64491(11)
H30_2 H 0.2253 0.7870 0.6372
C44_2 C 0.15325(15) 0.83860(8) 0.68929(12)
H31_2 H 0.1317 0.8388 0.7130
C45_2 C 0.15919(15) 0.86977(8) 0.66659(12)
H32_2 H 0.1403 0.8905 0.6741
C57_2 C 0.53912(15) 0.76181(7) 0.15035(12)
C58_2 C 0.47472(16) 0.77714(8) 0.11808(12)
C59_2 C 0.41513(16) 0.75921(8) 0.11124(12)
H41_2 H 0.4152 0.7378 0.1280
C60_2 C 0.35541(15) 0.77330(8) 0.07941(12)
H42_2 H 0.3155 0.7613 0.0748
C61_2 C 0.35529(15) 0.80532(8) 0.05441(12)
C62_2 C 0.41489(15) 0.82325(8) 0.06124(11)
H43_2 H 0.4148 0.8447 0.0445
C63_2 C 0.47460(16) 0.80916(8) 0.09308(12)
H44_2 H 0.5145 0.8212 0.0976
C71_2 C 0.79862(15) 0.78282(8) 0.19110(12)
C72_2 C 0.77439(15) 0.79442(7) 0.13711(12)
C73_2 C 0.71167(15) 0.78650(7) 0.10591(12)
H49_2 H 0.6832 0.7744 0.1192
C74_2 C 0.68808(15) 0.79555(7) 0.05533(12)
H50_2 H 0.6441 0.7913 0.0353
C75_2 C 0.73351(15) 0.81127(8) 0.03608(12)
C76_2 C 0.79765(15) 0.82033(8) 0.06640(12)
H51_2 H 0.8270 0.8314 0.0531
C77_2 C 0.81605(15) 0.81256(8) 0.11576(12)
H52_2 H 0.8582 0.8195 0.1366
N1_2 N 0.64649(12) 0.79595(6) 0.25657(9)
N3_2 N 0.53627(12) 0.99704(6) 0.34485(9)
N5_2 N 0.17701(11) 0.80785(6) 0.67897(9)
O1_2 O 0.53839(9) 0.73911(5) 0.18220(8)
O2_2 O 0.59163(9) 0.77296(5) 0.14623(7)
O3_2 O 0.29508(9) 0.81955(5) 0.02225(7)
O6_2 O 0.75913(10) 0.76789(5) 0.20858(7)
O7_2 O 0.85820(10) 0.78648(5) 0.21718(8)
Zn1_2 Zn 0.660064(17) 0.742632(9) 0.218868(14)
N8_2 N 0.67701(11) 0.69215(6) 0.17897(9)
N9_2 N 0.83411(12) 0.80159(6) 0.32974(9)
O11_2 O 0.64954(9) 0.70896(5) 0.28893(7)
O12_2 O 0.74971(9) 0.72752(5) 0.29720(7)
O13_2 O 0.91745(10) 0.72043(5) 0.35846(7)
O14_2 O 0.96880(10) 0.75396(5) 0.32163(8)
Zn3 Zn 0.160064(17) 0.757368(9) 0.718868(14)
C64_2 C 0.27797(14) 0.81222(8) 0.97153(11)
C65_2 C 0.21378(15) 0.82107(8) 0.94217(12)
H45_2 H 0.1855 0.8320 0.9567
C66_2 C 0.19167(15) 0.81383(8) 0.89199(12)
H46_2 H 0.1484 0.8200 0.8723
C67_2 C 0.23372(15) 0.79715(7) 0.86985(11)
C68_2 C 0.29816(15) 0.78887(7) 0.90041(12)
H47_2 H 0.3269 0.7779 0.8864
C69_2 C 0.32043(15) 0.79658(7) 0.95098(12)
H48_2 H 0.3640 0.7912 0.9709
C70_2 C 0.20949(14) 0.78693(8) 0.81498(11)
C78_2 C 0.65570(15) 0.80828(8) 0.95303(12)
C79_2 C 0.59666(16) 0.82593(8) 0.94895(12)
H53_2 H 0.5976 0.8463 0.9680
C80_2 C 0.53626(15) 0.81308(8) 0.91643(11)
H54_2 H 0.4968 0.8249 0.9137
C81_2 C 0.53489(14) 0.78258(8) 0.88800(11)
C82_2 C 0.59393(15) 0.76493(8) 0.89208(12)
H55_2 H 0.5930 0.7445 0.8731
C83_2 C 0.65434(15) 0.77778(8) 0.92459(11)
H56_2 H 0.6938 0.7660 0.9273
C84_2 C 0.46968(16) 0.76919(8) 0.85419(12)
O4_2 O 0.14954(9) 0.79104(5) 0.78893(7)
O5_2 O 0.24971(9) 0.77248(5) 0.79720(7)
O8_2 O 0.71681(10) 0.82050(5) 0.98548(8)
O9_2 O 0.41745(10) 0.77957(5) 0.85846(7)
O10_2 O 0.46880(10) 0.74604(5) 0.82163(8)
C1_3 C 0.17454(15) 0.67336(8) 0.74873(12)
H1_3 H 0.2058 0.6743 0.7324
C2_3 C 0.15901(15) 0.64148(8) 0.76364(12)
H2_3 H 0.1779 0.6209 0.7558
C3_3 C 0.11508(16) 0.63866(8) 0.79065(12)
C4_3 C 0.08673(15) 0.67091(8) 0.79965(12)
H3_3 H 0.0562 0.6710 0.8166
C5_3 C 0.10551(15) 0.70199(8) 0.78265(12)
H4_3 H 0.0881 0.7233 0.7900
C6_3 C 0.09592(16) 0.60360(8) 0.80716(12)
C7_3 C 0.13915(15) 0.57474(8) 0.81651(12)
H5_3 H 0.1813 0.5775 0.8139
C8_3 C 0.12005(15) 0.54127(8) 0.82987(12)
H6_3 H 0.1499 0.5222 0.8365
C9_3 C 0.05748(16) 0.53639(7) 0.83328(12)
C10_3 C 0.01313(16) 0.56592(8) 0.82295(12)
C11_3 C 0.03434(16) 0.59931(8) 0.81141(12)
H8_3 H 0.0059 0.6189 0.8066
C12_3 C 0.05788(15) 0.47025(8) 0.83180(13)
C13_3 C 0.07640(15) 0.46735(8) 0.78928(12)
H9_3 H 0.0764 0.4875 0.7700
C14_3 C 0.09489(15) 0.43434(8) 0.77557(12)
H10_3 H 0.1073 0.4324 0.7471
C15_3 C 0.09485(15) 0.40423(8) 0.80437(13)
C16_3 C 0.07633(15) 0.40712(8) 0.84690(12)
H11_3 H 0.0763 0.3870 0.8662
C17_3 C 0.05784(15) 0.44013(8) 0.86061(12)
H12_3 H 0.0455 0.4421 0.8891
C18_3 C 0.11191(15) 0.36840(8) 0.78769(12)
C19_3 C 0.15455(15) 0.36511(8) 0.75910(12)
H13_3 H 0.1749 0.3853 0.7516
C20_3 C 0.16586(15) 0.33216(8) 0.74242(12)
H14_3 H 0.1934 0.3310 0.7230
C21_3 C 0.09917(15) 0.30438(8) 0.78015(11)
H15_3 H 0.0804 0.2836 0.7875
C22_3 C 0.08394(15) 0.33589(8) 0.79815(12)
H16_3 H 0.0557 0.3362 0.8170
H17_3 H 0.0382 0.5383 0.9246
C57_3 C 0.03912(15) 0.73819(7) 0.65035(12)
H44_3 H 0.0145 0.6788 0.5976
C71_3 C 0.29862(15) 0.71718(8) 0.69110(12)
C72_3 C 0.27439(15) 0.70558(7) 0.63711(12)
C73_3 C 0.21167(15) 0.71350(7) 0.60591(12)
H49_3 H 0.1832 0.7256 0.6192
C74_3 C 0.18808(15) 0.70445(7) 0.55533(12)
H50_3 H 0.1441 0.7087 0.5353
C75_3 C 0.23351(15) 0.68873(8) 0.53608(12)
C76_3 C 0.29765(15) 0.67967(8) 0.56640(12)
H51_3 H 0.3270 0.6686 0.5531
C77_3 C 0.31605(15) 0.68744(8) 0.61576(12)
H52_3 H 0.3582 0.6805 0.6366
C78_3 C 0.15570(15) 0.69172(8) 0.45303(12)
C79_3 C 0.09666(16) 0.67407(8) 0.44895(12)
H53_3 H 0.0976 0.6537 0.4680
C80_3 C 0.03626(15) 0.68692(8) 0.41643(11)
C81_3 C 0.03489(14) 0.71742(8) 0.38800(11)
C82_3 C 0.09393(15) 0.73507(8) 0.39208(12)
H55_3 H 0.0930 0.7555 0.3731
C83_3 C 0.15434(15) 0.72222(8) 0.42459(11)
H56_3 H 0.1938 0.7340 0.4273
N1_3 N 0.14649(12) 0.70405(6) 0.75657(9)
N2_2 N 0.13974(11) 0.30129(6) 0.75235(9)
N3_3 N 0.03627(12) 0.50296(6) 0.84485(9)
O1_3 O 0.03839(9) 0.76089(5) 0.68220(8)
O2_3 O 0.09163(9) 0.72704(5) 0.64623(7)
O6_3 O 0.25913(10) 0.73211(5) 0.70858(7)
O7_3 O 0.35820(10) 0.71352(5) 0.71718(8)
O8_3 O 0.21681(10) 0.67950(5) 0.48548(8)
N7_2 N 0.36026(11) 0.80129(6) 0.74765(9)
H21_3 H 0.9127 0.5254 0.0136
C31_3 C 0.82747(16) 0.51514(9) 0.02906(13)
H22_3 H 0.8411 0.5248 0.0613
C32_3 C 0.76408(16) 0.49943(8) 0.00801(12)
C35_3 C 0.71541(15) 0.52996(8) 0.06349(13)
C36_3 C 0.70235(15) 0.56130(8) 0.03541(13)
H25_3 H 0.6980 0.5607 0.0016
C37_3 C 0.69582(15) 0.59347(8) 0.05795(12)
H26_3 H 0.6871 0.6144 0.0392
C38_3 C 0.70235(15) 0.59429(8) 0.10855(12)
C39_3 C 0.71541(15) 0.56295(8) 0.13662(13)
H27_3 H 0.7198 0.5635 0.1705
C40_3 C 0.72194(16) 0.53078(9) 0.11409(13)
H28_3 H 0.7307 0.5098 0.1329
C41_3 C 0.69340(15) 0.62879(8) 0.13207(12)
C42_3 C 0.71662(15) 0.66127(8) 0.12131(12)
H29_3 H 0.7381 0.6623 0.0976
C43_3 C 0.70849(14) 0.69169(8) 0.14491(11)
H30_3 H 0.7253 0.7130 0.1372
C44_3 C 0.65325(15) 0.66140(8) 0.18929(12)
H31_3 H 0.6317 0.6612 0.2130
C45_3 C 0.65919(15) 0.63023(8) 0.16659(12)
H32_3 H 0.6403 0.6095 0.1741
C46_3 C 0.70910(16) 0.46355(8) 0.05519(12)
C47_3 C 0.74734(16) 0.43438(8) 0.05433(11)
H33_3 H 0.7816 0.4365 0.0411
C48_3 C 0.73586(15) 0.40166(8) 0.07284(12)
H34_3 H 0.7621 0.3821 0.0714
C49_3 C 0.68534(16) 0.39757(8) 0.09374(12)
C50_3 C 0.64846(15) 0.42741(8) 0.09360(12)
H35_3 H 0.6141 0.4256 0.1068
C51_3 C 0.65915(16) 0.46009(8) 0.07495(12)
H36_3 H 0.6325 0.4796 0.0758
C52_3 C 0.67741(15) 0.36427(8) 0.11868(12)
C53_3 C 0.71000(15) 0.33307(8) 0.11577(12)
H37_3 H 0.7366 0.3319 0.0956
C54_3 C 0.70340(15) 0.30372(8) 0.14242(12)
H38_3 H 0.7279 0.2835 0.1405
C55_3 C 0.63731(15) 0.33170(8) 0.17578(12)
H39_3 H 0.6093 0.3313 0.1948
C56_3 C 0.64631(15) 0.36348(8) 0.15525(13)
H40_3 H 0.6318 0.3846 0.1655
N4_3 N 0.72282(12) 0.49780(6) 0.03843(10)
H7_3 H 0.9701 0.5632 0.8238
C23_3 C 0.98985(15) 0.50342(8) 0.87151(12)
C24_3 C 0.99988(16) 0.52435(8) 0.91282(12)
C25_3 C 0.95323(16) 0.52518(8) 0.93776(12)
H18_3 H 0.9603 0.5404 0.9651
C26_3 C 0.89722(16) 0.50397(8) 0.92279(12)
C27_3 C 0.88560(16) 0.48401(8) 0.87852(13)
H19_3 H 0.8463 0.4710 0.8653
C28_3 C 0.93094(15) 0.48363(8) 0.85551(13)
H20_3 H 0.9228 0.4693 0.8271
C29_3 C 0.85046(15) 0.50311(8) 0.95256(12)
C30_3 C 0.87004(16) 0.51583(8) 0.99977(13)
C33_3 C 0.74454(17) 0.48640(8) 0.96029(13)
H23_3 H 0.7028 0.4759 0.9462
C34_3 C 0.78765(16) 0.48891(8) 0.93251(13)
H24_3 H 0.7733 0.4807 0.8995
C58_3 C 0.97472(16) 0.72286(8) 0.61808(12)
C59_3 C 0.91513(16) 0.74079(8) 0.61124(12)
H41_3 H 0.9152 0.7622 0.6280
C60_3 C 0.85541(15) 0.72670(8) 0.57941(12)
H42_3 H 0.8155 0.7387 0.5748
C61_3 C 0.85529(15) 0.69468(8) 0.55441(12)
C62_3 C 0.91489(15) 0.67675(8) 0.56124(11)
H43_3 H 0.9148 0.6553 0.5445
C63_3 C 0.97460(16) 0.69084(8) 0.59308(12)
C64_3 C 0.77797(14) 0.68778(8) 0.47153(11)
C65_3 C 0.71378(15) 0.67893(8) 0.44217(12)
H45_3 H 0.6855 0.6680 0.4567
C66_3 C 0.69167(15) 0.68617(8) 0.39199(12)
H46_3 H 0.6484 0.6800 0.3723
C67_3 C 0.73372(15) 0.70285(7) 0.36985(11)
C68_3 C 0.79816(15) 0.71113(7) 0.40041(12)
H47_3 H 0.8269 0.7221 0.3864
C69_3 C 0.82043(15) 0.70342(7) 0.45098(12)
H48_3 H 0.8640 0.7088 0.4709
C70_3 C 0.70949(14) 0.71307(8) 0.31498(11)
H54_3 H 0.9968 0.6751 0.4137
C84_3 C 0.96968(16) 0.73081(8) 0.35419(12)
O3_3 O 0.79508(9) 0.68045(5) 0.52225(7)
C64_4 C 0.72203(14) 0.18778(8) 0.02847(11)
C65_4 C 0.78622(15) 0.17893(8) 0.05783(12)
H45_4 H 0.8145 0.1680 0.0433
C66_4 C 0.80833(15) 0.18617(8) 0.10801(12)
H46_4 H 0.8516 0.1800 0.1277
C67_4 C 0.76628(15) 0.20285(7) 0.13015(11)
C68_4 C 0.70184(15) 0.21113(7) 0.09959(12)
H47_4 H 0.6731 0.2221 0.1136
C69_4 C 0.67957(15) 0.20342(7) 0.04902(12)
H48_4 H 0.6360 0.2088 0.0291
C70_4 C 0.79051(14) 0.21307(8) 0.18502(11)
C78_4 C 0.34430(15) 0.19172(8) 0.04697(12)
C79_4 C 0.40334(16) 0.17407(8) 0.05105(12)
H53_4 H 0.4024 0.1537 0.0320
C80_4 C 0.46374(15) 0.18692(8) 0.08357(11)
H54_4 H 0.5032 0.1751 0.0863
C81_4 C 0.46511(14) 0.21742(8) 0.11200(11)
C82_4 C 0.40607(15) 0.23507(8) 0.10792(12)
H55_4 H 0.4070 0.2555 0.1269
C83_4 C 0.34566(15) 0.22222(8) 0.07541(11)
H56_4 H 0.3062 0.2340 0.0727
C84_4 C 0.53032(16) 0.23081(8) 0.14581(12)
O8_4 O 0.28319(10) 0.17950(5) 0.01452(8)
C1_4 C 0.32546(15) 0.17336(8) 0.75127(12)
H1_4 H 0.2942 0.1743 0.7676
C2_4 C 0.34099(15) 0.14148(8) 0.73636(12)
H2_4 H 0.3221 0.1209 0.7442
C3_4 C 0.38492(16) 0.13866(8) 0.70935(12)
C4_4 C 0.41327(15) 0.17091(8) 0.70035(12)
H3_4 H 0.4438 0.1710 0.6834
C5_4 C 0.39449(15) 0.20199(8) 0.71735(12)
H4_4 H 0.4119 0.2233 0.7100
C6_4 C 0.40408(16) 0.10360(8) 0.69284(12)
C7_4 C 0.36085(15) 0.07474(8) 0.68349(12)
H5_4 H 0.3187 0.0775 0.6861
C8_4 C 0.37995(15) 0.04127(8) 0.67013(12)
H6_4 H 0.3501 0.0222 0.6635
C9_4 C 0.44252(16) 0.03639(7) 0.66672(12)
C10_4 C 0.48687(16) 0.06592(8) 0.67705(12)
H7_4 H 0.5299 0.0632 0.6762
C11_4 C 0.46566(16) 0.09931(8) 0.68859(12)
H8_4 H 0.4941 0.1189 0.6934
C23_4 C 0.51015(15) 0.00342(8) 0.62849(12)
C24_4 C 0.50012(16) 0.02435(8) 0.58718(12)
H17_4 H 0.4618 0.0383 0.5754
C25_4 C 0.54677(16) 0.02518(8) 0.56224(12)
H18_4 H 0.5397 0.0404 0.5349
C26_4 C 0.60278(16) 0.00397(8) 0.57721(12)
C29_4 C 0.64954(15) 0.00311(8) 0.54744(12)
C30_4 C 0.62996(16) 0.01583(8) 0.50023(13)
H21_4 H 0.5873 0.0254 0.4864
C31_4 C 0.67253(16) 0.01514(9) 0.47094(13)
H22_4 H 0.6589 0.0248 0.4387
C35_4 C 0.78459(15) 0.02996(8) 0.43651(13)
C36_4 C 0.79765(15) 0.06130(8) 0.46459(13)
H25_4 H 0.8020 0.0607 0.4984
C37_4 C 0.80418(15) 0.09347(8) 0.44205(12)
H26_4 H 0.8129 0.1144 0.4608
C38_4 C 0.79765(15) 0.09429(8) 0.39145(12)
C39_4 C 0.78459(15) 0.06295(8) 0.36338(13)
H27_4 H 0.7802 0.0635 0.3295
C40_4 C 0.77806(16) 0.03078(9) 0.38591(13)
H28_4 H 0.7693 0.0098 0.3671
C41_4 C 0.80660(15) 0.12879(8) 0.36793(12)
C42_4 C 0.78338(15) 0.16127(8) 0.37869(12)
H29_4 H 0.7619 0.1623 0.4024
C43_4 C 0.79151(14) 0.19169(8) 0.35509(11)
H30_4 H 0.7747 0.2130 0.3628
C44_4 C 0.84675(15) 0.16140(8) 0.31071(12)
H31_4 H 0.8683 0.1612 0.2870
C45_4 C 0.84081(15) 0.13023(8) 0.33341(12)
H32_4 H 0.8597 0.1095 0.3259
C57_4 C 0.46088(15) 0.23819(7) 0.84965(12)
C58_4 C 0.52528(16) 0.22286(8) 0.88192(12)
C59_4 C 0.58487(16) 0.24079(8) 0.88876(12)
H41_4 H 0.5848 0.2622 0.8720
C60_4 C 0.64459(15) 0.22670(8) 0.92059(12)
H42_4 H 0.6845 0.2387 0.9252
C61_4 C 0.64471(15) 0.19468(8) 0.94559(12)
C62_4 C 0.58511(15) 0.17675(8) 0.93876(11)
H43_4 H 0.5852 0.1553 0.9555
C63_4 C 0.52540(16) 0.19084(8) 0.90692(12)
H44_4 H 0.4855 0.1788 0.9024
C71_4 C 0.20138(15) 0.21718(8) 0.80890(12)
C72_4 C 0.22561(15) 0.20558(7) 0.86289(12)
C73_4 C 0.28833(15) 0.21350(7) 0.89409(12)
H49_4 H 0.3168 0.2256 0.8808
C74_4 C 0.31192(15) 0.20445(7) 0.94467(12)
H50_4 H 0.3559 0.2087 0.9647
C75_4 C 0.26649(15) 0.18873(8) 0.96392(12)
C76_4 C 0.20235(15) 0.17967(8) 0.93360(12)
H51_4 H 0.1730 0.1686 0.9469
C77_4 C 0.18395(15) 0.18744(8) 0.88424(12)
H52_4 H 0.1418 0.1805 0.8634
N1_4 N 0.35351(12) 0.20405(6) 0.74343(9)
N3_4 N 0.46373(12) 0.00296(6) 0.65515(9)
O1_4 O 0.46161(9) 0.26089(5) 0.81780(8)
O2_4 O 0.40837(9) 0.22704(5) 0.85377(7)
O3_4 O 0.70492(9) 0.18045(5) 0.97775(7)
O6_4 O 0.24087(10) 0.23211(5) 0.79142(7)
O7_4 O 0.14180(10) 0.21352(5) 0.78282(8)
C12_4 C 0.44212(15) 0.97025(8) 0.66820(13)
C13_4 C 0.42360(15) 0.96735(8) 0.71072(12)
H9_4 H 0.4236 0.9875 0.7300
C14_4 C 0.40511(15) 0.93434(8) 0.72443(12)
H10_4 H 0.3927 0.9324 0.7529
C15_4 C 0.40515(15) 0.90423(8) 0.69563(13)
C16_4 C 0.42367(15) 0.90712(8) 0.65310(12)
H11_4 H 0.4237 0.8870 0.6338
C17_4 C 0.44216(15) 0.94013(8) 0.63939(12)
H12_4 H 0.4545 0.9421 0.6109
C18_4 C 0.38809(15) 0.86840(8) 0.71231(12)
C19_4 C 0.34545(15) 0.86511(8) 0.74090(12)
H13_4 H 0.3251 0.8853 0.7484
C20_4 C 0.33414(15) 0.83216(8) 0.75758(12)
H14_4 H 0.3066 0.8310 0.7770
C21_4 C 0.40083(15) 0.80438(8) 0.71985(11)
H15_4 H 0.4196 0.7836 0.7125
C22_4 C 0.41606(15) 0.83589(8) 0.70185(12)
H16_4 H 0.4443 0.8362 0.6830
C27_4 C 0.61440(16) 0.98401(8) 0.62148(13)
H19_4 H 0.6537 0.9710 0.6347
C28_4 C 0.56906(15) 0.98363(8) 0.64449(13)
H20_4 H 0.5772 0.9693 0.6729
C32_4 C 0.73592(16) 0.99943(8) 0.49199(12)
C33_4 C 0.75546(17) 0.98640(8) 0.53971(13)
H23_4 H 0.7972 0.9759 0.5538
C34_4 C 0.71235(16) 0.98891(8) 0.56749(13)
H24_4 H 0.7267 0.9807 0.6005
C46_4 C 0.79090(16) 0.96355(8) 0.44481(12)
C47_4 C 0.75266(16) 0.93438(8) 0.44567(11)
H33_4 H 0.7184 0.9365 0.4589
C48_4 C 0.76414(15) 0.90166(8) 0.42716(12)
H34_4 H 0.7379 0.8821 0.4286
C49_4 C 0.81466(16) 0.89757(8) 0.40626(12)
C50_4 C 0.85154(15) 0.92741(8) 0.40640(12)
H35_4 H 0.8859 0.9256 0.3932
C51_4 C 0.84085(16) 0.96009(8) 0.42505(12)
H36_4 H 0.8675 0.9796 0.4242
C52_4 C 0.82259(15) 0.86427(8) 0.38132(12)
C53_4 C 0.79000(15) 0.83307(8) 0.38423(12)
H37_4 H 0.7634 0.8319 0.4044
C54_4 C 0.79660(15) 0.80372(8) 0.35758(12)
H38_4 H 0.7721 0.7835 0.3595
C55_4 C 0.86269(15) 0.83170(8) 0.32422(12)
H39_4 H 0.8907 0.8313 0.3052
C56_4 C 0.85369(15) 0.86348(8) 0.34475(13)
H40_4 H 0.8682 0.8846 0.3345
N4_4 N 0.77718(12) 0.99780(6) 0.46157(10)
C1_5 C 0.17454(15) 0.32664(8) 0.24873(12)
H1_5 H 0.2058 0.3257 0.2324
C2_5 C 0.15901(15) 0.35852(8) 0.26364(12)
H2_5 H 0.1779 0.3791 0.2558
C3_5 C 0.11508(16) 0.36134(8) 0.29065(12)
C4_5 C 0.08673(15) 0.32909(8) 0.29965(12)
H3_5 H 0.0562 0.3290 0.3166
C5_5 C 0.10551(15) 0.29801(8) 0.28265(12)
H4_5 H 0.0881 0.2767 0.2900
C6_5 C 0.09592(16) 0.39640(8) 0.30716(12)
C7_5 C 0.13915(15) 0.42526(8) 0.31651(12)
H5_5 H 0.1813 0.4225 0.3139
C8_5 C 0.12005(15) 0.45873(8) 0.32987(12)
H6_5 H 0.1499 0.4778 0.3365
C9_5 C 0.05748(16) 0.46361(7) 0.33328(12)
C10_5 C 0.01313(16) 0.43408(8) 0.32295(12)
C11_5 C 0.03434(16) 0.40069(8) 0.31141(12)
H8_5 H 0.0059 0.3811 0.3066
C12_5 C 0.05788(15) 0.52975(8) 0.33180(13)
C13_5 C 0.07640(15) 0.53265(8) 0.28928(12)
H9_5 H 0.0764 0.5125 0.2700
C14_5 C 0.09489(15) 0.56566(8) 0.27557(12)
H10_5 H 0.1073 0.5676 0.2471
C15_5 C 0.09485(15) 0.59577(8) 0.30437(13)
C16_5 C 0.07633(15) 0.59288(8) 0.34690(12)
H11_5 H 0.0763 0.6130 0.3662
C17_5 C 0.05784(15) 0.55987(8) 0.36061(12)
H12_5 H 0.0455 0.5579 0.3891
C18_5 C 0.11191(15) 0.63160(8) 0.28769(12)
C19_5 C 0.15455(15) 0.63489(8) 0.25910(12)
H13_5 H 0.1749 0.6147 0.2516
C20_5 C 0.16586(15) 0.66784(8) 0.24242(12)
H14_5 H 0.1934 0.6690 0.2230
C21_5 C 0.09917(15) 0.69562(8) 0.28015(11)
H15_5 H 0.0804 0.7164 0.2875
C22_5 C 0.08394(15) 0.66411(8) 0.29815(12)
H16_5 H 0.0557 0.6638 0.3170
H17_5 H 0.0382 0.4617 0.4246
C57_5 C 0.03912(15) 0.26181(7) 0.15035(12)
H44_5 H 0.0145 0.3212 0.0976
C71_5 C 0.29862(15) 0.28282(8) 0.19110(12)
C72_5 C 0.27439(15) 0.29442(7) 0.13711(12)
C73_5 C 0.21167(15) 0.28650(7) 0.10591(12)
H49_5 H 0.1832 0.2744 0.1192
C74_5 C 0.18808(15) 0.29555(7) 0.05533(12)
H50_5 H 0.1441 0.2913 0.0353
C75_5 C 0.23351(15) 0.31127(8) 0.03608(12)
C76_5 C 0.29765(15) 0.32033(8) 0.06640(12)
H51_5 H 0.3270 0.3314 0.0531
C77_5 C 0.31605(15) 0.31256(8) 0.11576(12)
H52_5 H 0.3582 0.3195 0.1366
N1_5 N 0.14649(12) 0.29595(6) 0.25657(9)
N2_3 N 0.13974(11) 0.69871(6) 0.25235(9)
N3_5 N 0.03627(12) 0.49704(6) 0.34485(9)
O1_5 O 0.03839(9) 0.23911(5) 0.18220(8)
O2_5 O 0.09163(9) 0.27296(5) 0.14623(7)
O6_5 O 0.25913(10) 0.26789(5) 0.20858(7)
O7_5 O 0.35820(10) 0.28648(5) 0.21718(8)
Zn1_3 Zn 0.160064(17) 0.242632(9) 0.218868(14)
Zn2_2 Zn 0.349156(17) 0.251585(9) 0.286162(14)
N7_3 N 0.36026(11) 0.19871(6) 0.24765(9)
N8_3 N 0.17701(11) 0.19215(6) 0.17897(9)
N9_3 N 0.33411(12) 0.30159(6) 0.32974(9)
O11_3 O 0.14954(9) 0.20896(5) 0.28893(7)
O12_3 O 0.24971(9) 0.22752(5) 0.29720(7)
O13_3 O 0.41745(10) 0.22043(5) 0.35846(7)
O14_3 O 0.46880(10) 0.25396(5) 0.32163(8)
Zn5_2 Zn 0.150844(17) 0.751585(9) 0.213838(14)
H7_5 H 0.9701 0.4368 0.3238
C23_5 C 0.98985(15) 0.49658(8) 0.37151(12)
C24_5 C 0.99988(16) 0.47565(8) 0.41282(12)
C25_5 C 0.95323(16) 0.47482(8) 0.43776(12)
H18_5 H 0.9603 0.4596 0.4651
C26_5 C 0.89722(16) 0.49603(8) 0.42279(12)
C27_5 C 0.88560(16) 0.51599(8) 0.37852(13)
H19_5 H 0.8463 0.5290 0.3653
C28_5 C 0.93094(15) 0.51637(8) 0.35551(13)
H20_5 H 0.9228 0.5307 0.3271
C29_5 C 0.85046(15) 0.49689(8) 0.45256(12)
C30_5 C 0.87004(16) 0.48417(8) 0.49977(13)
H21_5 H 0.9127 0.4746 0.5136
C31_5 C 0.82747(16) 0.48486(9) 0.52906(13)
H22_5 H 0.8411 0.4752 0.5613
C32_5 C 0.76408(16) 0.50057(8) 0.50801(12)
C33_5 C 0.74454(17) 0.51360(8) 0.46029(13)
H23_5 H 0.7028 0.5241 0.4462
C34_5 C 0.78765(16) 0.51109(8) 0.43251(13)
H24_5 H 0.7733 0.5193 0.3995
C35_5 C 0.71541(15) 0.47004(8) 0.56349(13)
C36_5 C 0.70235(15) 0.43870(8) 0.53541(13)
H25_5 H 0.6980 0.4393 0.5016
C37_5 C 0.69582(15) 0.40653(8) 0.55795(12)
H26_5 H 0.6871 0.3856 0.5392
C38_5 C 0.70235(15) 0.40571(8) 0.60855(12)
C39_5 C 0.71541(15) 0.43705(8) 0.63662(13)
H27_5 H 0.7198 0.4365 0.6705
C40_5 C 0.72194(16) 0.46922(9) 0.61409(13)
H28_5 H 0.7307 0.4902 0.6329
C41_5 C 0.69340(15) 0.37121(8) 0.63207(12)
C42_5 C 0.71662(15) 0.33873(8) 0.62131(12)
H29_5 H 0.7381 0.3377 0.5976
C43_5 C 0.70849(14) 0.30831(8) 0.64491(11)
H30_5 H 0.7253 0.2870 0.6372
C44_5 C 0.65325(15) 0.33860(8) 0.68929(12)
H31_5 H 0.6317 0.3388 0.7130
C45_5 C 0.65919(15) 0.36977(8) 0.66659(12)
H32_5 H 0.6403 0.3905 0.6741
C46_5 C 0.70910(16) 0.53645(8) 0.55519(12)
C47_5 C 0.74734(16) 0.56562(8) 0.55433(11)
H33_5 H 0.7816 0.5635 0.5411
C48_5 C 0.73586(15) 0.59834(8) 0.57284(12)
H34_5 H 0.7621 0.6179 0.5714
C49_5 C 0.68534(16) 0.60243(8) 0.59374(12)
C50_5 C 0.64846(15) 0.57259(8) 0.59360(12)
H35_5 H 0.6141 0.5744 0.6068
C51_5 C 0.65915(16) 0.53991(8) 0.57495(12)
H36_5 H 0.6325 0.5204 0.5758
C52_5 C 0.67741(15) 0.63573(8) 0.61868(12)
C53_5 C 0.71000(15) 0.66693(8) 0.61577(12)
H37_5 H 0.7366 0.6681 0.5956
C54_5 C 0.70340(15) 0.69628(8) 0.64242(12)
H38_5 H 0.7279 0.7165 0.6405
C55_5 C 0.63731(15) 0.66830(8) 0.67578(12)
H39_5 H 0.6093 0.6687 0.6948
C56_5 C 0.64631(15) 0.63652(8) 0.65525(13)
H40_5 H 0.6318 0.6154 0.6655
C58_5 C 0.97472(16) 0.27714(8) 0.11808(12)
C59_5 C 0.91513(16) 0.25921(8) 0.11124(12)
H41_5 H 0.9152 0.2378 0.1280
C60_5 C 0.85541(15) 0.27330(8) 0.07941(12)
H42_5 H 0.8155 0.2613 0.0748
C61_5 C 0.85529(15) 0.30532(8) 0.05441(12)
C62_5 C 0.91489(15) 0.32325(8) 0.06124(11)
H43_5 H 0.9148 0.3447 0.0445
C63_5 C 0.97460(16) 0.30916(8) 0.09308(12)
N4_5 N 0.72282(12) 0.50220(6) 0.53843(10)
N5_3 N 0.67701(11) 0.30785(6) 0.67897(9)
N6_3 N 0.66589(12) 0.69841(6) 0.67026(9)
O3_5 O 0.79508(9) 0.31955(5) 0.02225(7)
Zn3_2 Zn 0.660064(17) 0.257368(9) 0.718868(14)
Zn6_2 Zn 0.650844(17) 0.748415(9) 0.713838(14)
C64_5 C 0.77797(14) 0.31222(8) 0.97153(11)
C65_5 C 0.71378(15) 0.32107(8) 0.94217(12)
H45_5 H 0.6855 0.3320 0.9567
C66_5 C 0.69167(15) 0.31383(8) 0.89199(12)
H46_5 H 0.6484 0.3200 0.8723
C67_5 C 0.73372(15) 0.29715(7) 0.86985(11)
C68_5 C 0.79816(15) 0.28887(7) 0.90041(12)
H47_5 H 0.8269 0.2779 0.8864
C69_5 C 0.82043(15) 0.29658(7) 0.95098(12)
H48_5 H 0.8640 0.2912 0.9709
C70_5 C 0.70949(14) 0.28693(8) 0.81498(11)
H54_5 H 0.9968 0.3249 0.9137
C84_5 C 0.96968(16) 0.26919(8) 0.85419(12)
O4_3 O 0.64954(9) 0.29104(5) 0.78893(7)
O5_3 O 0.74971(9) 0.27248(5) 0.79720(7)
O9_3 O 0.91745(10) 0.27957(5) 0.85846(7)
O10_3 O 0.96880(10) 0.24604(5) 0.82163(8)
Zn7_2 Zn 0.849156(17) 0.248415(9) 0.786162(14)
C12_6 C 0.44212(15) 0.02975(8) 0.16820(13)
C13_6 C 0.42360(15) 0.03265(8) 0.21072(12)
H9_6 H 0.4236 0.0125 0.2300
C14_6 C 0.40511(15) 0.06566(8) 0.22443(12)
H10_6 H 0.3927 0.0676 0.2529
C15_6 C 0.40515(15) 0.09577(8) 0.19563(13)
C16_6 C 0.42367(15) 0.09288(8) 0.15310(12)
H11_6 H 0.4237 0.1130 0.1338
C17_6 C 0.44216(15) 0.05987(8) 0.13939(12)
H12_6 H 0.4545 0.0579 0.1109
C18_6 C 0.38809(15) 0.13160(8) 0.21231(12)
C19_6 C 0.34545(15) 0.13489(8) 0.24090(12)
H13_6 H 0.3251 0.1147 0.2484
C20_6 C 0.33414(15) 0.16784(8) 0.25758(12)
H14_6 H 0.3066 0.1690 0.2770
C21_6 C 0.40083(15) 0.19562(8) 0.21985(11)
H15_6 H 0.4196 0.2164 0.2125
C22_6 C 0.41606(15) 0.16411(8) 0.20185(12)
H16_6 H 0.4443 0.1638 0.1830
C27_6 C 0.61440(16) 0.01599(8) 0.12148(13)
H19_6 H 0.6537 0.0290 0.1347
C28_6 C 0.56906(15) 0.01637(8) 0.14449(13)
H20_6 H 0.5772 0.0307 0.1729
C33_6 C 0.75546(17) 0.01360(8) 0.03971(13)
H23_6 H 0.7972 0.0241 0.0538
C34_6 C 0.71235(16) 0.01109(8) 0.06749(13)
H24_6 H 0.7267 0.0193 0.1005
C32_6 C 0.73592(16) 0.00057(8) 0.99199(12)
C46_6 C 0.79090(16) 0.03645(8) 0.94481(12)
C47_6 C 0.75266(16) 0.06562(8) 0.94567(11)
H33_6 H 0.7184 0.0635 0.9589
C48_6 C 0.76414(15) 0.09834(8) 0.92716(12)
H34_6 H 0.7379 0.1179 0.9286
C49_6 C 0.81466(16) 0.10243(8) 0.90626(12)
C50_6 C 0.85154(15) 0.07259(8) 0.90640(12)
H35_6 H 0.8859 0.0744 0.8932
C51_6 C 0.84085(16) 0.03991(8) 0.92505(12)
H36_6 H 0.8675 0.0204 0.9242
C52_6 C 0.82259(15) 0.13573(8) 0.88132(12)
C53_6 C 0.79000(15) 0.16693(8) 0.88423(12)
H37_6 H 0.7634 0.1681 0.9044
C54_6 C 0.79660(15) 0.19628(8) 0.85758(12)
H38_6 H 0.7721 0.2165 0.8595
C55_6 C 0.86269(15) 0.16830(8) 0.82422(12)
H39_6 H 0.8907 0.1687 0.8052
C56_6 C 0.85369(15) 0.13652(8) 0.84475(13)
H40_6 H 0.8682 0.1154 0.8345
N4_6 N 0.77718(12) 0.00220(6) 0.96157(10)
N6_4 N 0.83411(12) 0.19841(6) 0.82974(9)
C1_6 C 0.32546(15) 0.82664(8) 0.25127(12)
H1_6 H 0.2942 0.8257 0.2676
C2_6 C 0.34099(15) 0.85852(8) 0.23636(12)
H2_6 H 0.3221 0.8791 0.2442
C3_6 C 0.38492(16) 0.86134(8) 0.20935(12)
C4_6 C 0.41327(15) 0.82909(8) 0.20035(12)
H3_6 H 0.4438 0.8290 0.1834
C5_6 C 0.39449(15) 0.79801(8) 0.21735(12)
H4_6 H 0.4119 0.7767 0.2100
C6_6 C 0.40408(16) 0.89640(8) 0.19284(12)
C7_6 C 0.36085(15) 0.92526(8) 0.18349(12)
H5_6 H 0.3187 0.9225 0.1861
C8_6 C 0.37995(15) 0.95873(8) 0.17013(12)
H6_6 H 0.3501 0.9778 0.1635
C9_6 C 0.44252(16) 0.96361(7) 0.16672(12)
C10_6 C 0.48687(16) 0.93408(8) 0.17705(12)
H7_6 H 0.5299 0.9368 0.1762
C11_6 C 0.46566(16) 0.90069(8) 0.18859(12)
H8_6 H 0.4941 0.8811 0.1934
C23_6 C 0.51015(15) 0.99658(8) 0.12849(12)
C24_6 C 0.50012(16) 0.97565(8) 0.08718(12)
H17_6 H 0.4618 0.9617 0.0754
C25_6 C 0.54677(16) 0.97482(8) 0.06224(12)
H18_6 H 0.5397 0.9596 0.0349
C26_6 C 0.60278(16) 0.99603(8) 0.07721(12)
C29_6 C 0.64954(15) 0.99689(8) 0.04744(12)
C30_6 C 0.62996(16) 0.98417(8) 0.00023(13)
C57_6 C 0.46088(15) 0.76181(7) 0.34965(12)
C58_6 C 0.52528(16) 0.77714(8) 0.38192(12)
C59_6 C 0.58487(16) 0.75921(8) 0.38876(12)
H41_6 H 0.5848 0.7378 0.3720
C60_6 C 0.64459(15) 0.77330(8) 0.42059(12)
H42_6 H 0.6845 0.7613 0.4252
C61_6 C 0.64471(15) 0.80532(8) 0.44559(12)
C62_6 C 0.58511(15) 0.82325(8) 0.43876(11)
H43_6 H 0.5852 0.8447 0.4555
C63_6 C 0.52540(16) 0.80916(8) 0.40692(12)
H44_6 H 0.4855 0.8212 0.4024
C64_6 C 0.72203(14) 0.81222(8) 0.52847(11)
C65_6 C 0.78622(15) 0.82107(8) 0.55783(12)
H45_6 H 0.8145 0.8320 0.5433
C66_6 C 0.80833(15) 0.81383(8) 0.60801(12)
H46_6 H 0.8516 0.8200 0.6277
C67_6 C 0.76628(15) 0.79715(7) 0.63015(11)
C68_6 C 0.70184(15) 0.78887(7) 0.59959(12)
H47_6 H 0.6731 0.7779 0.6136
C69_6 C 0.67957(15) 0.79658(7) 0.54902(12)
H48_6 H 0.6360 0.7912 0.5291
C70_6 C 0.79051(14) 0.78693(8) 0.68502(11)
C71_6 C 0.20138(15) 0.78282(8) 0.30890(12)
C72_6 C 0.22561(15) 0.79442(7) 0.36289(12)
C73_6 C 0.28833(15) 0.78650(7) 0.39409(12)
H49_6 H 0.3168 0.7744 0.3808
C74_6 C 0.31192(15) 0.79555(7) 0.44467(12)
H50_6 H 0.3559 0.7913 0.4647
C75_6 C 0.26649(15) 0.81127(8) 0.46392(12)
C76_6 C 0.20235(15) 0.82033(8) 0.43360(12)
H51_6 H 0.1730 0.8314 0.4469
C77_6 C 0.18395(15) 0.81256(8) 0.38424(12)
H52_6 H 0.1418 0.8195 0.3634
C78_5 C 0.34430(15) 0.80828(8) 0.54697(12)
C79_5 C 0.40334(16) 0.82593(8) 0.55105(12)
H53_5 H 0.4024 0.8463 0.5320
C80_5 C 0.46374(15) 0.81308(8) 0.58357(11)
H54_6 H 0.5032 0.8249 0.5863
C81_5 C 0.46511(14) 0.78258(8) 0.61200(11)
C82_5 C 0.40607(15) 0.76493(8) 0.60792(12)
H55_5 H 0.4070 0.7445 0.6269
C83_5 C 0.34566(15) 0.77778(8) 0.57541(11)
H56_5 H 0.3062 0.7660 0.5727
C84_6 C 0.53032(16) 0.76919(8) 0.64581(12)
N1_6 N 0.35351(12) 0.79595(6) 0.24343(9)
N3_6 N 0.46373(12) 0.99704(6) 0.15515(9)
O1_6 O 0.46161(9) 0.73911(5) 0.31780(8)
O2_6 O 0.40837(9) 0.77296(5) 0.35377(7)
O3_6 O 0.70492(9) 0.81955(5) 0.47775(7)
O4_4 O 0.85046(9) 0.79104(5) 0.71107(7)
O5_4 O 0.75029(9) 0.77248(5) 0.70280(7)
O6_6 O 0.24087(10) 0.76789(5) 0.29142(7)
O7_6 O 0.14180(10) 0.78648(5) 0.28282(8)
O8_5 O 0.28319(10) 0.82050(5) 0.51452(8)
O9_4 O 0.58255(10) 0.77957(5) 0.64154(7)
O10_4 O 0.53120(10) 0.74604(5) 0.67837(8)
Zn1_4 Zn 0.339936(17) 0.742632(9) 0.281132(14)
N8_4 N 0.32299(11) 0.69215(6) 0.32103(9)
N9_4 N 0.16589(12) 0.80159(6) 0.17026(9)
O11_4 O 0.35046(9) 0.70896(5) 0.21107(7)
O12_4 O 0.25029(9) 0.72752(5) 0.20280(7)
O13_4 O 0.08255(10) 0.72043(5) 0.14154(7)
O14_4 O 0.03120(10) 0.75396(5) 0.17837(8)
Zn4_2 Zn 0.839936(17) 0.757368(9) 0.781132(14)
H21_6 H 0.5873 0.9746 0.9864
C31_6 C 0.67253(16) 0.98486(9) 0.97094(13)
H22_6 H 0.6589 0.9752 0.9387
C35_6 C 0.78459(15) 0.97004(8) 0.93651(13)
C36_6 C 0.79765(15) 0.93870(8) 0.96459(13)
H25_6 H 0.8020 0.9393 0.9984
C37_6 C 0.80418(15) 0.90653(8) 0.94205(12)
H26_6 H 0.8129 0.8856 0.9608
C38_6 C 0.79765(15) 0.90571(8) 0.89145(12)
C39_6 C 0.78459(15) 0.93705(8) 0.86338(13)
H27_6 H 0.7802 0.9365 0.8295
C40_6 C 0.77806(16) 0.96922(9) 0.88591(13)
H28_6 H 0.7693 0.9902 0.8671
C41_6 C 0.80660(15) 0.87121(8) 0.86793(12)
C42_6 C 0.78338(15) 0.83873(8) 0.87869(12)
H29_6 H 0.7619 0.8377 0.9024
C43_6 C 0.79151(14) 0.80831(8) 0.85509(11)
H30_6 H 0.7747 0.7870 0.8628
C44_6 C 0.84675(15) 0.83860(8) 0.81071(12)
H31_6 H 0.8683 0.8388 0.7870
C45_6 C 0.84081(15) 0.86977(8) 0.83341(12)
H32_6 H 0.8597 0.8905 0.8259
N5_4 N 0.82299(11) 0.80785(6) 0.82103(9)
C64_7 C 0.22203(14) 0.68778(8) 0.02847(11)
C65_7 C 0.28622(15) 0.67893(8) 0.05783(12)
H45_7 H 0.3145 0.6680 0.0433
C66_7 C 0.30833(15) 0.68617(8) 0.10801(12)
H46_7 H 0.3516 0.6800 0.1277
C67_7 C 0.26628(15) 0.70285(7) 0.13015(11)
C68_7 C 0.20184(15) 0.71113(7) 0.09959(12)
H47_7 H 0.1731 0.7221 0.1136
C69_7 C 0.17957(15) 0.70342(7) 0.04902(12)
H48_7 H 0.1360 0.7088 0.0291
C70_7 C 0.29051(14) 0.71307(8) 0.18502(11)
H54_7 H 0.0032 0.6751 0.0863
C84_7 C 0.03032(16) 0.73081(8) 0.14581(12)
H7_7 H 0.0299 0.5632 0.6762
C23_7 C 0.01015(15) 0.50342(8) 0.62849(12)
C24_7 C 0.00012(16) 0.52435(8) 0.58718(12)
C25_7 C 0.04677(16) 0.52518(8) 0.56224(12)
H18_7 H 0.0397 0.5404 0.5349
C26_7 C 0.10278(16) 0.50397(8) 0.57721(12)
C27_7 C 0.11440(16) 0.48401(8) 0.62148(13)
H19_7 H 0.1537 0.4710 0.6347
C28_7 C 0.06906(15) 0.48363(8) 0.64449(13)
H20_7 H 0.0772 0.4693 0.6729
C29_7 C 0.14954(15) 0.50311(8) 0.54744(12)
C30_7 C 0.12996(16) 0.51583(8) 0.50023(13)
H21_7 H 0.0873 0.5254 0.4864
C31_7 C 0.17253(16) 0.51514(9) 0.47094(13)
H22_7 H 0.1589 0.5248 0.4387
C32_7 C 0.23592(16) 0.49943(8) 0.49199(12)
C33_7 C 0.25546(17) 0.48640(8) 0.53971(13)
H23_7 H 0.2972 0.4759 0.5538
C34_7 C 0.21235(16) 0.48891(8) 0.56749(13)
H24_7 H 0.2267 0.4807 0.6005
C35_7 C 0.28459(15) 0.52996(8) 0.43651(13)
C36_7 C 0.29765(15) 0.56130(8) 0.46459(13)
H25_7 H 0.3020 0.5607 0.4984
C37_7 C 0.30418(15) 0.59347(8) 0.44205(12)
H26_7 H 0.3129 0.6144 0.4608
C38_7 C 0.29765(15) 0.59429(8) 0.39145(12)
C39_7 C 0.28459(15) 0.56295(8) 0.36338(13)
H27_7 H 0.2802 0.5635 0.3295
C40_7 C 0.27806(16) 0.53078(9) 0.38591(13)
H28_7 H 0.2693 0.5098 0.3671
C41_7 C 0.30660(15) 0.62879(8) 0.36793(12)
C42_7 C 0.28338(15) 0.66127(8) 0.37869(12)
H29_7 H 0.2619 0.6623 0.4024
C43_7 C 0.29151(14) 0.69169(8) 0.35509(11)
H30_7 H 0.2747 0.7130 0.3628
C44_7 C 0.34675(15) 0.66140(8) 0.31071(12)
H31_7 H 0.3683 0.6612 0.2870
C45_7 C 0.34081(15) 0.63023(8) 0.33341(12)
H32_7 H 0.3597 0.6095 0.3259
C46_7 C 0.29090(16) 0.46355(8) 0.44481(12)
C47_7 C 0.25266(16) 0.43438(8) 0.44567(11)
H33_7 H 0.2184 0.4365 0.4589
C48_7 C 0.26414(15) 0.40166(8) 0.42716(12)
H34_7 H 0.2379 0.3821 0.4286
C49_7 C 0.31466(16) 0.39757(8) 0.40626(12)
C50_7 C 0.35154(15) 0.42741(8) 0.40640(12)
H35_7 H 0.3859 0.4256 0.3932
C51_7 C 0.34085(16) 0.46009(8) 0.42505(12)
H36_7 H 0.3675 0.4796 0.4242
C52_7 C 0.32259(15) 0.36427(8) 0.38132(12)
C53_7 C 0.29000(15) 0.33307(8) 0.38423(12)
H37_7 H 0.2634 0.3319 0.4044
C54_7 C 0.29660(15) 0.30372(8) 0.35758(12)
H38_7 H 0.2721 0.2835 0.3595
C55_7 C 0.36269(15) 0.33170(8) 0.32422(12)
H39_7 H 0.3907 0.3313 0.3052
C56_7 C 0.35369(15) 0.36348(8) 0.34475(13)
H40_7 H 0.3682 0.3846 0.3345
C58_7 C 0.02528(16) 0.72286(8) 0.88192(12)
C59_7 C 0.08487(16) 0.74079(8) 0.88876(12)
H41_7 H 0.0848 0.7622 0.8720
C60_7 C 0.14459(15) 0.72670(8) 0.92059(12)
H42_7 H 0.1845 0.7387 0.9252
C61_7 C 0.14471(15) 0.69468(8) 0.94559(12)
C62_7 C 0.08511(15) 0.67675(8) 0.93876(11)
H43_7 H 0.0852 0.6553 0.9555
C63_7 C 0.02540(16) 0.69084(8) 0.90692(12)
N4_7 N 0.27718(12) 0.49780(6) 0.46157(10)
O3_7 O 0.20492(9) 0.68045(5) 0.97775(7)
C1_7 C 0.82546(15) 0.67336(8) 0.75127(12)
H1_7 H 0.7942 0.6743 0.7676
C2_7 C 0.84099(15) 0.64148(8) 0.73636(12)
H2_7 H 0.8221 0.6209 0.7442
C3_7 C 0.88492(16) 0.63866(8) 0.70935(12)
C4_7 C 0.91327(15) 0.67091(8) 0.70035(12)
H3_7 H 0.9438 0.6710 0.6834
C5_7 C 0.89449(15) 0.70199(8) 0.71735(12)
H4_7 H 0.9119 0.7233 0.7100
C6_7 C 0.90408(16) 0.60360(8) 0.69284(12)
C7_7 C 0.86085(15) 0.57474(8) 0.68349(12)
H5_7 H 0.8187 0.5775 0.6861
C8_7 C 0.87995(15) 0.54127(8) 0.67013(12)
H6_7 H 0.8501 0.5222 0.6635
C9_7 C 0.94252(16) 0.53639(7) 0.66672(12)
C10_7 C 0.98687(16) 0.56592(8) 0.67705(12)
C11_7 C 0.96566(16) 0.59931(8) 0.68859(12)
H8_7 H 0.9941 0.6189 0.6934
C12_7 C 0.94212(15) 0.47025(8) 0.66820(13)
C13_7 C 0.92360(15) 0.46735(8) 0.71072(12)
H9_7 H 0.9236 0.4875 0.7300
C14_7 C 0.90511(15) 0.43434(8) 0.72443(12)
H10_7 H 0.8927 0.4324 0.7529
C15_7 C 0.90515(15) 0.40423(8) 0.69563(13)
C16_7 C 0.92367(15) 0.40712(8) 0.65310(12)
H11_7 H 0.9237 0.3870 0.6338
C17_7 C 0.94216(15) 0.44013(8) 0.63939(12)
H12_7 H 0.9545 0.4421 0.6109
C18_7 C 0.88809(15) 0.36840(8) 0.71231(12)
C19_7 C 0.84545(15) 0.36511(8) 0.74090(12)
H13_7 H 0.8251 0.3853 0.7484
C20_7 C 0.83414(15) 0.33216(8) 0.75758(12)
H14_7 H 0.8066 0.3310 0.7770
C21_7 C 0.90083(15) 0.30438(8) 0.71985(11)
H15_7 H 0.9196 0.2836 0.7125
C22_7 C 0.91606(15) 0.33589(8) 0.70185(12)
H16_7 H 0.9443 0.3362 0.6830
H17_7 H 0.9618 0.5383 0.5754
C57_7 C 0.96088(15) 0.73819(7) 0.84965(12)
H44_7 H 0.9855 0.6788 0.9024
C71_7 C 0.70138(15) 0.71718(8) 0.80890(12)
C72_7 C 0.72561(15) 0.70558(7) 0.86289(12)
C73_7 C 0.78833(15) 0.71350(7) 0.89409(12)
H49_7 H 0.8168 0.7256 0.8808
C74_7 C 0.81192(15) 0.70445(7) 0.94467(12)
H50_7 H 0.8559 0.7087 0.9647
C75_7 C 0.76649(15) 0.68873(8) 0.96392(12)
C76_7 C 0.70235(15) 0.67967(8) 0.93360(12)
H51_7 H 0.6730 0.6686 0.9469
C77_7 C 0.68395(15) 0.68744(8) 0.88424(12)
H52_7 H 0.6418 0.6805 0.8634
N1_7 N 0.85351(12) 0.70405(6) 0.74343(9)
N2_4 N 0.86026(11) 0.30129(6) 0.74765(9)
N3_7 N 0.96373(12) 0.50296(6) 0.65515(9)
O1_7 O 0.96161(9) 0.76089(5) 0.81780(8)
O2_7 O 0.90837(9) 0.72704(5) 0.85377(7)
O6_7 O 0.74087(10) 0.73211(5) 0.79142(7)
O7_7 O 0.64180(10) 0.71352(5) 0.78282(8)
N7_4 N 0.63974(11) 0.80129(6) 0.75235(9)
H21_8 H 0.4127 0.0254 0.0136
C31_8 C 0.32747(16) 0.01514(9) 0.02906(13)
H22_8 H 0.3411 0.0248 0.0613
C35_8 C 0.21541(15) 0.02996(8) 0.06349(13)
C36_8 C 0.20235(15) 0.06130(8) 0.03541(13)
H25_8 H 0.1980 0.0607 0.0016
C37_8 C 0.19582(15) 0.09347(8) 0.05795(12)
H26_8 H 0.1871 0.1144 0.0392
C38_8 C 0.20235(15) 0.09429(8) 0.10855(12)
C39_8 C 0.21541(15) 0.06295(8) 0.13662(13)
H27_8 H 0.2198 0.0635 0.1705
C40_8 C 0.22194(16) 0.03078(9) 0.11409(13)
H28_8 H 0.2307 0.0098 0.1329
C41_8 C 0.19340(15) 0.12879(8) 0.13207(12)
C42_8 C 0.21662(15) 0.16127(8) 0.12131(12)
H29_8 H 0.2381 0.1623 0.0976
C43_8 C 0.20849(14) 0.19169(8) 0.14491(11)
H30_8 H 0.2253 0.2130 0.1372
C44_8 C 0.15325(15) 0.16140(8) 0.18929(12)
H31_8 H 0.1317 0.1612 0.2130
C45_8 C 0.15919(15) 0.13023(8) 0.16659(12)
H32_8 H 0.1403 0.1095 0.1741
C1_8 C 0.67454(15) 0.17336(8) 0.74873(12)
H1_8 H 0.7058 0.1743 0.7324
C2_8 C 0.65901(15) 0.14148(8) 0.76364(12)
H2_8 H 0.6779 0.1209 0.7558
C3_8 C 0.61508(16) 0.13866(8) 0.79065(12)
C4_8 C 0.58673(15) 0.17091(8) 0.79965(12)
H3_8 H 0.5562 0.1710 0.8166
C5_8 C 0.60551(15) 0.20199(8) 0.78265(12)
H4_8 H 0.5881 0.2233 0.7900
C6_8 C 0.59592(16) 0.10360(8) 0.80716(12)
C7_8 C 0.63915(15) 0.07474(8) 0.81651(12)
H5_8 H 0.6813 0.0775 0.8139
C8_8 C 0.62005(15) 0.04127(8) 0.82987(12)
H6_8 H 0.6499 0.0222 0.8365
C9_8 C 0.55748(16) 0.03639(7) 0.83328(12)
C10_8 C 0.51313(16) 0.06592(8) 0.82295(12)
H7_8 H 0.4701 0.0632 0.8238
C11_8 C 0.53434(16) 0.09931(8) 0.81141(12)
H8_8 H 0.5059 0.1189 0.8066
C23_8 C 0.48985(15) 0.00342(8) 0.87151(12)
C24_8 C 0.49988(16) 0.02435(8) 0.91282(12)
H17_8 H 0.5382 0.0383 0.9246
C25_8 C 0.45323(16) 0.02518(8) 0.93776(12)
H18_8 H 0.4603 0.0404 0.9651
C26_8 C 0.39722(16) 0.00397(8) 0.92279(12)
C29_8 C 0.35046(15) 0.00311(8) 0.95256(12)
C30_8 C 0.37004(16) 0.01583(8) 0.99977(13)
C57_8 C 0.53912(15) 0.23819(7) 0.65035(12)
C58_8 C 0.47472(16) 0.22286(8) 0.61808(12)
C59_8 C 0.41513(16) 0.24079(8) 0.61124(12)
H41_8 H 0.4152 0.2622 0.6280
C60_8 C 0.35541(15) 0.22670(8) 0.57941(12)
H42_8 H 0.3155 0.2387 0.5748
C61_8 C 0.35529(15) 0.19468(8) 0.55441(12)
C62_8 C 0.41489(15) 0.17675(8) 0.56124(11)
H43_8 H 0.4148 0.1553 0.5445
C63_8 C 0.47460(16) 0.19084(8) 0.59308(12)
H44_8 H 0.5145 0.1788 0.5976
C64_8 C 0.27797(14) 0.18778(8) 0.47153(11)
C65_8 C 0.21378(15) 0.17893(8) 0.44217(12)
H45_8 H 0.1855 0.1680 0.4567
C66_8 C 0.19167(15) 0.18617(8) 0.39199(12)
H46_8 H 0.1484 0.1800 0.3723
C67_8 C 0.23372(15) 0.20285(7) 0.36985(11)
C68_8 C 0.29816(15) 0.21113(7) 0.40041(12)
H47_8 H 0.3269 0.2221 0.3864
C69_8 C 0.32043(15) 0.20342(7) 0.45098(12)
H48_8 H 0.3640 0.2088 0.4709
C70_8 C 0.20949(14) 0.21307(8) 0.31498(11)
C71_8 C 0.79862(15) 0.21718(8) 0.69110(12)
C72_8 C 0.77439(15) 0.20558(7) 0.63711(12)
C73_8 C 0.71167(15) 0.21350(7) 0.60591(12)
H49_8 H 0.6832 0.2256 0.6192
C74_8 C 0.68808(15) 0.20445(7) 0.55533(12)
H50_8 H 0.6441 0.2087 0.5353
C75_8 C 0.73351(15) 0.18873(8) 0.53608(12)
C76_8 C 0.79765(15) 0.17967(8) 0.56640(12)
H51_8 H 0.8270 0.1686 0.5531
C77_8 C 0.81605(15) 0.18744(8) 0.61576(12)
H52_8 H 0.8582 0.1805 0.6366
C78_6 C 0.65570(15) 0.19172(8) 0.45303(12)
C79_6 C 0.59666(16) 0.17407(8) 0.44895(12)
H53_6 H 0.5976 0.1537 0.4680
C80_6 C 0.53626(15) 0.18692(8) 0.41643(11)
H54_8 H 0.4968 0.1751 0.4137
C81_6 C 0.53489(14) 0.21742(8) 0.38800(11)
C82_6 C 0.59393(15) 0.23507(8) 0.39208(12)
H55_6 H 0.5930 0.2555 0.3731
C83_6 C 0.65434(15) 0.22222(8) 0.42459(11)
H56_6 H 0.6938 0.2340 0.4273
C84_8 C 0.46968(16) 0.23081(8) 0.35419(12)
N1_8 N 0.64649(12) 0.20405(6) 0.75657(9)
N3_8 N 0.53627(12) 0.00296(6) 0.84485(9)
O1_8 O 0.53839(9) 0.26089(5) 0.68220(8)
O2_8 O 0.59163(9) 0.22704(5) 0.64623(7)
O3_8 O 0.29508(9) 0.18045(5) 0.52225(7)
O6_8 O 0.75913(10) 0.23211(5) 0.70858(7)
O7_8 O 0.85820(10) 0.21352(5) 0.71718(8)
O8_6 O 0.71681(10) 0.17950(5) 0.48548(8)
C32_8 C 0.26408(16) 0.99943(8) 0.00801(12)
C46_8 C 0.20910(16) 0.96355(8) 0.05519(12)
C47_8 C 0.24734(16) 0.93438(8) 0.05433(11)
H33_8 H 0.2816 0.9365 0.0411
C48_8 C 0.23586(15) 0.90166(8) 0.07284(12)
H34_8 H 0.2621 0.8821 0.0714
C49_8 C 0.18534(16) 0.89757(8) 0.09374(12)
C50_8 C 0.14846(15) 0.92741(8) 0.09360(12)
H35_8 H 0.1141 0.9256 0.1068
C51_8 C 0.15915(16) 0.96009(8) 0.07495(12)
H36_8 H 0.1325 0.9796 0.0758
C52_8 C 0.17741(15) 0.86427(8) 0.11868(12)
C53_8 C 0.21000(15) 0.83307(8) 0.11577(12)
H37_8 H 0.2366 0.8319 0.0956
C54_8 C 0.20340(15) 0.80372(8) 0.14242(12)
H38_8 H 0.2279 0.7835 0.1405
C55_8 C 0.13731(15) 0.83170(8) 0.17578(12)
H39_8 H 0.1093 0.8313 0.1948
C56_8 C 0.14631(15) 0.86348(8) 0.15525(13)
H40_8 H 0.1318 0.8846 0.1655
N4_8 N 0.22282(12) 0.99780(6) 0.03843(10)
C12_8 C 0.55788(15) 0.97025(8) 0.83180(13)
C13_8 C 0.57640(15) 0.96735(8) 0.78928(12)
H9_8 H 0.5764 0.9875 0.7700
C14_8 C 0.59489(15) 0.93434(8) 0.77557(12)
H10_8 H 0.6073 0.9324 0.7471
C15_8 C 0.59485(15) 0.90423(8) 0.80437(13)
C16_8 C 0.57633(15) 0.90712(8) 0.84690(12)
H11_8 H 0.5763 0.8870 0.8662
C17_8 C 0.55784(15) 0.94013(8) 0.86061(12)
H12_8 H 0.5455 0.9421 0.8891
C18_8 C 0.61191(15) 0.86840(8) 0.78769(12)
C19_8 C 0.65455(15) 0.86511(8) 0.75910(12)
H13_8 H 0.6749 0.8853 0.7516
C20_8 C 0.66586(15) 0.83216(8) 0.74242(12)
H14_8 H 0.6934 0.8310 0.7230
C21_8 C 0.59917(15) 0.80438(8) 0.78015(11)
H15_8 H 0.5804 0.7836 0.7875
C22_8 C 0.58394(15) 0.83589(8) 0.79815(12)
H16_8 H 0.5557 0.8362 0.8170
C27_8 C 0.38560(16) 0.98401(8) 0.87852(13)
H19_8 H 0.3463 0.9710 0.8653
C28_8 C 0.43094(15) 0.98363(8) 0.85551(13)
H20_8 H 0.4228 0.9693 0.8271
C33_8 C 0.24454(17) 0.98640(8) 0.96029(13)
H23_8 H 0.2028 0.9759 0.9462
C34_8 C 0.28765(16) 0.98891(8) 0.93251(13)
H24_8 H 0.2733 0.9807 0.8995
C78_7 C 0.15570(15) 0.30828(8) 0.95303(12)
C79_7 C 0.09666(16) 0.32593(8) 0.94895(12)
H53_7 H 0.0976 0.3463 0.9680
C80_7 C 0.03626(15) 0.31308(8) 0.91643(11)
C81_7 C 0.03489(14) 0.28258(8) 0.88800(11)
C82_7 C 0.09393(15) 0.26493(8) 0.89208(12)
H55_7 H 0.0930 0.2445 0.8731
C83_7 C 0.15434(15) 0.27778(8) 0.92459(11)
H56_7 H 0.1938 0.2660 0.9273
O8_7 O 0.21681(10) 0.32050(5) 0.98548(8)
C78_8 C 0.84430(15) 0.69172(8) 0.04697(12)
C79_8 C 0.90334(16) 0.67407(8) 0.05105(12)
H53_8 H 0.9024 0.6537 0.0320
C80_8 C 0.96374(15) 0.68692(8) 0.08357(11)
C81_8 C 0.96511(14) 0.71742(8) 0.11200(11)
C82_8 C 0.90607(15) 0.73507(8) 0.10792(12)
H55_8 H 0.9070 0.7555 0.1269
C83_8 C 0.84566(15) 0.72222(8) 0.07541(11)
H56_8 H 0.8062 0.7340 0.0727
O8_8 O 0.78319(10) 0.67950(5) 0.01452(8)
loop_
_geom_bond_atom_site_label_1
_geom_bond_atom_site_label_2
_geom_bond_site_symmetry_1
_geom_bond_site_symmetry_2
C23 C24 1_555 1_555
C25 C24 1_555 1_555
H18 C25 1_555 1_555
C26 C25 1_555 1_555
C27 C26 1_555 1_555
H19 C27 1_555 1_555
C28 C23 1_555 1_555
H20 C28 1_555 1_555
C29 C26 1_555 1_555
C30 C29 1_555 1_555
H23 C33 1_555 1_555
C34 C29 1_555 1_555
H24 C34 1_555 1_555
C58 C59 1_555 1_555
C59 H41 1_555 1_555
C60 C59 1_555 1_555
H42 C60 1_555 1_555
C61 C60 1_555 1_555
C62 C61 1_555 1_555
H43 C62 1_555 1_555
C63 C58 1_555 1_555
C64 C65 1_555 1_555
C65 H45 1_555 1_555
C66 C65 1_555 1_555
H46 C66 1_555 1_555
C67 C66 1_555 1_555
C68 C67 1_555 1_555
H47 C68 1_555 1_555
C69 C64 1_555 1_555
H48 C69 1_555 1_555
C70 C67 1_555 1_555
O3 C61 1_555 1_555
O4 C70 1_555 1_555
O5 C70 1_555 1_555
O9 C84 1_555 1_555
O10 C84 1_555 1_555
Zn4 O4 1_555 1_555
Zn7 O5 1_555 1_555
C27 C28 1_555 1_555
C33 C34 1_555 1_555
C62 C63 1_555 1_555
C64 O3 1_555 1_555
C68 C69 1_555 1_555
O5 Zn4 1_555 1_555
O9 Zn7 1_555 1_555
O10 Zn7 1_555 1_555
H22 C31 1_555 1_555
C32 C31 1_555 1_555
C35 C36 1_555 1_555
C36 H25 1_555 1_555
C37 C36 1_555 1_555
H26 C37 1_555 1_555
C38 C37 1_555 1_555
C39 C38 1_555 1_555
H27 C39 1_555 1_555
C40 C35 1_555 1_555
H28 C40 1_555 1_555
C41 C38 1_555 1_555
C42 C41 1_555 1_555
H29 C42 1_555 1_555
C43 C42 1_555 1_555
H30 C43 1_555 1_555
C44 H31 1_555 1_555
C45 C41 1_555 1_555
H32 C45 1_555 1_555
C46 C47 1_555 1_555
C47 H33 1_555 1_555
C48 C47 1_555 1_555
H34 C48 1_555 1_555
C49 C48 1_555 1_555
C50 C49 1_555 1_555
H35 C50 1_555 1_555
C51 C46 1_555 1_555
H36 C51 1_555 1_555
C52 C49 1_555 1_555
C53 C52 1_555 1_555
H37 C53 1_555 1_555
C54 C53 1_555 1_555
H38 C54 1_555 1_555
C55 H39 1_555 1_555
C56 C52 1_555 1_555
H40 C56 1_555 1_555
N4 C32 1_555 1_555
N5 C43 1_555 1_555
N6 C54 1_555 1_555
Zn4 N5 1_555 1_555
Zn6 N6 1_555 1_555
C35 N4 1_555 1_555
C39 C40 1_555 1_555
C44 C45 1_555 1_555
C44 N5 1_555 1_555
C46 N4 1_555 1_555
C50 C51 1_555 1_555
C55 C56 1_555 1_555
C55 N6 1_555 1_555
C1 H1 1_555 1_555
C2 C1 1_555 1_555
H2 C2 1_555 1_555
C3 C2 1_555 1_555
C4 C3 1_555 1_555
H3 C4 1_555 1_555
C5 C4 1_555 1_555
H4 C5 1_555 1_555
C6 C3 1_555 1_555
C7 C6 1_555 1_555
H5 C7 1_555 1_555
C8 C7 1_555 1_555
H6 C8 1_555 1_555
C9 C8 1_555 1_555
C10 C9 1_555 1_555
C11 C6 1_555 1_555
H8 C11 1_555 1_555
C12 C13 1_555 1_555
C13 H9 1_555 1_555
C14 C13 1_555 1_555
H10 C14 1_555 1_555
C15 C14 1_555 1_555
C16 C15 1_555 1_555
H11 C16 1_555 1_555
C17 C12 1_555 1_555
H12 C17 1_555 1_555
C18 C15 1_555 1_555
C19 C18 1_555 1_555
H13 C19 1_555 1_555
C20 C19 1_555 1_555
H14 C20 1_555 1_555
C21 H15 1_555 1_555
C22 C18 1_555 1_555
H16 C22 1_555 1_555
C71 C72 1_555 1_555
C72 C73 1_555 1_555
C73 H49 1_555 1_555
C74 C73 1_555 1_555
H50 C74 1_555 1_555
C75 C74 1_555 1_555
C76 C75 1_555 1_555
H51 C76 1_555 1_555
C77 C72 1_555 1_555
H52 C77 1_555 1_555
C78 C79 1_555 1_555
C79 H53 1_555 1_555
C80 C79 1_555 1_555
C81 C80 1_555 1_555
C82 C81 1_555 1_555
H55 C82 1_555 1_555
C83 C78 1_555 1_555
H56 C83 1_555 1_555
N1 C1 1_555 1_555
N2 C20 1_555 1_555
N3 C9 1_555 1_555
O1 C57 1_555 1_555
O2 C57 1_555 1_555
O6 C71 1_555 1_555
O7 C71 1_555 1_555
O8 C75 1_555 1_555
Zn1 N1 1_555 1_555
Zn2 O6 1_555 1_555
N7 Zn2 1_555 1_555
N8 Zn1 1_555 1_555
N9 Zn2 1_555 1_555
O11 Zn1 1_555 1_555
O12 Zn1 1_555 1_555
O13 Zn2 1_555 1_555
O14 Zn2 1_555 1_555
Zn5 N2 1_555 1_555
C5 N1 1_555 1_555
C10 C11 1_555 1_555
C12 N3 1_555 1_555
C16 C17 1_555 1_555
C21 C22 1_555 1_555
C21 N2 1_555 1_555
C76 C77 1_555 1_555
C78 O8 1_555 1_555
C82 C83 1_555 1_555
O1 Zn1 1_555 1_555
O2 Zn1 1_555 1_555
O6 Zn1 1_555 1_555
O7 Zn2 1_555 1_555
Zn2 O12 1_555 1_555
C12_2 C13_2 1_555 1_555
C13_2 H9_2 1_555 1_555
C14_2 C13_2 1_555 1_555
H10_2 C14_2 1_555 1_555
C15_2 C14_2 1_555 1_555
C16_2 C15_2 1_555 1_555
H11_2 C16_2 1_555 1_555
C17_2 C12_2 1_555 1_555
H12_2 C17_2 1_555 1_555
C18_2 C15_2 1_555 1_555
C19_2 C18_2 1_555 1_555
H13_2 C19_2 1_555 1_555
C20_2 C19_2 1_555 1_555
H14_2 C20_2 1_555 1_555
C21_2 H15_2 1_555 1_555
C22_2 C18_2 1_555 1_555
H16_2 C22_2 1_555 1_555
H19_2 C27_2 1_555 1_555
H20_2 C28_2 1_555 1_555
C33_2 C32_2 1_555 1_555
H23_2 C33_2 1_555 1_555
H24_2 C34_2 1_555 1_555
C46_2 C47_2 1_555 1_555
C47_2 H33_2 1_555 1_555
C48_2 C47_2 1_555 1_555
H34_2 C48_2 1_555 1_555
C49_2 C48_2 1_555 1_555
C50_2 C49_2 1_555 1_555
H35_2 C50_2 1_555 1_555
C51_2 C46_2 1_555 1_555
H36_2 C51_2 1_555 1_555
C52_2 C49_2 1_555 1_555
C53_2 C52_2 1_555 1_555
H37_2 C53_2 1_555 1_555
C54_2 C53_2 1_555 1_555
H38_2 C54_2 1_555 1_555
C55_2 H39_2 1_555 1_555
C56_2 C52_2 1_555 1_555
H40_2 C56_2 1_555 1_555
N7 C20_2 1_555 1_555
N4_2 C32_2 1_555 1_555
N6_2 C54_2 1_555 1_555
Zn7 N6_2 1_555 1_555
C16_2 C17_2 1_555 1_555
C21_2 C22_2 1_555 1_555
C21_2 N7 1_555 1_555
C27_2 C28_2 1_555 1_555
C33_2 C34_2 1_555 1_555
C46_2 N4_2 1_555 1_555
C50_2 C51_2 1_555 1_555
C55_2 C56_2 1_555 1_555
C55_2 N6_2 1_555 1_555
C1_2 H1_2 1_555 1_555
C2_2 C1_2 1_555 1_555
H2_2 C2_2 1_555 1_555
C3_2 C2_2 1_555 1_555
C4_2 C3_2 1_555 1_555
H3_2 C4_2 1_555 1_555
C5_2 C4_2 1_555 1_555
H4_2 C5_2 1_555 1_555
C6_2 C3_2 1_555 1_555
C7_2 C6_2 1_555 1_555
H5_2 C7_2 1_555 1_555
C8_2 C7_2 1_555 1_555
H6_2 C8_2 1_555 1_555
C9_2 C8_2 1_555 1_555
C10_2 C9_2 1_555 1_555
H7_2 C10_2 1_555 1_555
C11_2 C6_2 1_555 1_555
H8_2 C11_2 1_555 1_555
C23_2 C24_2 1_555 1_555
C24_2 H17_2 1_555 1_555
C25_2 C24_2 1_555 1_555
H18_2 C25_2 1_555 1_555
C26_2 C25_2 1_555 1_555
C29_2 C26_2 1_555 1_555
C30_2 C29_2 1_555 1_555
H21_2 C30_2 1_555 1_555
C31_2 C30_2 1_555 1_555
H22_2 C31_2 1_555 1_555
C35_2 C36_2 1_555 1_555
C36_2 H25_2 1_555 1_555
C37_2 C36_2 1_555 1_555
H26_2 C37_2 1_555 1_555
C38_2 C37_2 1_555 1_555
C39_2 C38_2 1_555 1_555
H27_2 C39_2 1_555 1_555
C40_2 C35_2 1_555 1_555
H28_2 C40_2 1_555 1_555
C41_2 C38_2 1_555 1_555
C42_2 C41_2 1_555 1_555
H29_2 C42_2 1_555 1_555
C43_2 C42_2 1_555 1_555
H30_2 C43_2 1_555 1_555
C44_2 H31_2 1_555 1_555
C45_2 C41_2 1_555 1_555
H32_2 C45_2 1_555 1_555
C57_2 C58_2 1_555 1_555
C58_2 C59_2 1_555 1_555
C59_2 H41_2 1_555 1_555
C60_2 C59_2 1_555 1_555
H42_2 C60_2 1_555 1_555
C61_2 C60_2 1_555 1_555
C62_2 C61_2 1_555 1_555
H43_2 C62_2 1_555 1_555
C63_2 C58_2 1_555 1_555
H44_2 C63_2 1_555 1_555
C71_2 C72_2 1_555 1_555
C72_2 C73_2 1_555 1_555
C73_2 H49_2 1_555 1_555
C74_2 C73_2 1_555 1_555
H50_2 C74_2 1_555 1_555
C75_2 C74_2 1_555 1_555
C76_2 C75_2 1_555 1_555
H51_2 C76_2 1_555 1_555
C77_2 C72_2 1_555 1_555
H52_2 C77_2 1_555 1_555
N1_2 C1_2 1_555 1_555
N3_2 C9_2 1_555 1_555
N5_2 C43_2 1_555 1_555
O1_2 C57_2 1_555 1_555
O2_2 C57_2 1_555 1_555
O3_2 C61_2 1_555 1_555
O6_2 C71_2 1_555 1_555
O7_2 C71_2 1_555 1_555
Zn1_2 N1_2 1_555 1_555
Zn5 O6_2 1_555 1_555
N8_2 Zn1_2 1_555 1_555
N9_2 Zn5 1_555 1_555
O11_2 Zn1_2 1_555 1_555
O12_2 Zn1_2 1_555 1_555
O13_2 Zn5 1_555 1_555
O14_2 Zn5 1_555 1_555
Zn3 N5_2 1_555 1_555
C5_2 N1_2 1_555 1_555
C10_2 C11_2 1_555 1_555
C23_2 N3_2 1_555 1_555
C39_2 C40_2 1_555 1_555
C44_2 C45_2 1_555 1_555
C44_2 N5_2 1_555 1_555
C62_2 C63_2 1_555 1_555
C76_2 C77_2 1_555 1_555
O1_2 Zn1_2 1_555 1_555
O2_2 Zn1_2 1_555 1_555
O6_2 Zn1_2 1_555 1_555
O7_2 Zn5 1_555 1_555
Zn5 O12_2 1_555 1_555
C64_2 C65_2 1_555 1_555
C65_2 H45_2 1_555 1_555
C66_2 C65_2 1_555 1_555
H46_2 C66_2 1_555 1_555
C67_2 C66_2 1_555 1_555
C68_2 C67_2 1_555 1_555
H47_2 C68_2 1_555 1_555
C69_2 C64_2 1_555 1_555
H48_2 C69_2 1_555 1_555
C70_2 C67_2 1_555 1_555
C78_2 C79_2 1_555 1_555
C79_2 H53_2 1_555 1_555
C80_2 C79_2 1_555 1_555
H54_2 C80_2 1_555 1_555
C81_2 C80_2 1_555 1_555
C82_2 C81_2 1_555 1_555
H55_2 C82_2 1_555 1_555
C83_2 C78_2 1_555 1_555
H56_2 C83_2 1_555 1_555
C84_2 C81_2 1_555 1_555
O4_2 C70_2 1_555 1_555
O5_2 C70_2 1_555 1_555
O9_2 C84_2 1_555 1_555
O10_2 C84_2 1_555 1_555
Zn3 O4_2 1_555 1_555
Zn6 O5_2 1_555 1_555
C68_2 C69_2 1_555 1_555
C78_2 O8_2 1_555 1_555
C82_2 C83_2 1_555 1_555
O5_2 Zn3 1_555 1_555
O9_2 Zn6 1_555 1_555
O10_2 Zn6 1_555 1_555
C1_3 H1_3 1_555 1_555
C2_3 C1_3 1_555 1_555
H2_3 C2_3 1_555 1_555
C3_3 C2_3 1_555 1_555
C4_3 C3_3 1_555 1_555
H3_3 C4_3 1_555 1_555
C5_3 C4_3 1_555 1_555
H4_3 C5_3 1_555 1_555
C6_3 C3_3 1_555 1_555
C7_3 C6_3 1_555 1_555
H5_3 C7_3 1_555 1_555
C8_3 C7_3 1_555 1_555
H6_3 C8_3 1_555 1_555
C9_3 C8_3 1_555 1_555
C10_3 C9_3 1_555 1_555
C11_3 C6_3 1_555 1_555
H8_3 C11_3 1_555 1_555
C12_3 C13_3 1_555 1_555
C13_3 H9_3 1_555 1_555
C14_3 C13_3 1_555 1_555
H10_3 C14_3 1_555 1_555
C15_3 C14_3 1_555 1_555
C16_3 C15_3 1_555 1_555
H11_3 C16_3 1_555 1_555
C17_3 C12_3 1_555 1_555
H12_3 C17_3 1_555 1_555
C18_3 C15_3 1_555 1_555
C19_3 C18_3 1_555 1_555
H13_3 C19_3 1_555 1_555
C20_3 C19_3 1_555 1_555
H14_3 C20_3 1_555 1_555
C21_3 H15_3 1_555 1_555
C22_3 C18_3 1_555 1_555
H16_3 C22_3 1_555 1_555
C71_3 C72_3 1_555 1_555
C72_3 C73_3 1_555 1_555
C73_3 H49_3 1_555 1_555
C74_3 C73_3 1_555 1_555
H50_3 C74_3 1_555 1_555
C75_3 C74_3 1_555 1_555
C76_3 C75_3 1_555 1_555
H51_3 C76_3 1_555 1_555
C77_3 C72_3 1_555 1_555
H52_3 C77_3 1_555 1_555
C78_3 C79_3 1_555 1_555
C79_3 H53_3 1_555 1_555
C80_3 C79_3 1_555 1_555
C81_3 C80_3 1_555 1_555
C82_3 C81_3 1_555 1_555
H55_3 C82_3 1_555 1_555
C83_3 C78_3 1_555 1_555
H56_3 C83_3 1_555 1_555
N1_3 C1_3 1_555 1_555
N2_2 C20_3 1_555 1_555
N3_3 C9_3 1_555 1_555
O1_3 C57_3 1_555 1_555
O2_3 C57_3 1_555 1_555
O6_3 C71_3 1_555 1_555
O7_3 C71_3 1_555 1_555
O8_3 C75_3 1_555 1_555
Zn3 N1_3 1_555 1_555
Zn6 O6_3 1_555 1_555
N7_2 Zn6 1_555 1_555
Zn7 N2_2 1_555 1_555
C5_3 N1_3 1_555 1_555
C10_3 C11_3 1_555 1_555
C12_3 N3_3 1_555 1_555
C16_3 C17_3 1_555 1_555
C21_3 C22_3 1_555 1_555
C21_3 N2_2 1_555 1_555
C76_3 C77_3 1_555 1_555
C78_3 O8_3 1_555 1_555
C82_3 C83_3 1_555 1_555
O1_3 Zn3 1_555 1_555
O2_3 Zn3 1_555 1_555
O6_3 Zn3 1_555 1_555
O7_3 Zn6 1_555 1_555
H22_3 C31_3 1_555 1_555
C32_3 C31_3 1_555 1_555
C35_3 C36_3 1_555 1_555
C36_3 H25_3 1_555 1_555
C37_3 C36_3 1_555 1_555
H26_3 C37_3 1_555 1_555
C38_3 C37_3 1_555 1_555
C39_3 C38_3 1_555 1_555
H27_3 C39_3 1_555 1_555
C40_3 C35_3 1_555 1_555
H28_3 C40_3 1_555 1_555
C41_3 C38_3 1_555 1_555
C42_3 C41_3 1_555 1_555
H29_3 C42_3 1_555 1_555
C43_3 C42_3 1_555 1_555
H30_3 C43_3 1_555 1_555
C44_3 H31_3 1_555 1_555
C45_3 C41_3 1_555 1_555
H32_3 C45_3 1_555 1_555
C46_3 C47_3 1_555 1_555
C47_3 H33_3 1_555 1_555
C48_3 C47_3 1_555 1_555
H34_3 C48_3 1_555 1_555
C49_3 C48_3 1_555 1_555
C50_3 C49_3 1_555 1_555
H35_3 C50_3 1_555 1_555
C51_3 C46_3 1_555 1_555
H36_3 C51_3 1_555 1_555
C52_3 C49_3 1_555 1_555
C53_3 C52_3 1_555 1_555
H37_3 C53_3 1_555 1_555
C54_3 C53_3 1_555 1_555
H38_3 C54_3 1_555 1_555
C55_3 H39_3 1_555 1_555
C56_3 C52_3 1_555 1_555
H40_3 C56_3 1_555 1_555
N4_3 C32_3 1_555 1_555
N8_2 C43_3 1_555 1_555
N9 C54_3 1_555 1_555
C35_3 N4_3 1_555 1_555
C39_3 C40_3 1_555 1_555
C44_3 C45_3 1_555 1_555
C44_3 N8_2 1_555 1_555
C46_3 N4_3 1_555 1_555
C50_3 C51_3 1_555 1_555
C55_3 C56_3 1_555 1_555
C55_3 N9 1_555 1_555
C23_3 C24_3 1_555 1_555
C25_3 C24_3 1_555 1_555
H18_3 C25_3 1_555 1_555
C26_3 C25_3 1_555 1_555
C27_3 C26_3 1_555 1_555
H19_3 C27_3 1_555 1_555
C28_3 C23_3 1_555 1_555
H20_3 C28_3 1_555 1_555
C29_3 C26_3 1_555 1_555
C30_3 C29_3 1_555 1_555
H23_3 C33_3 1_555 1_555
C34_3 C29_3 1_555 1_555
H24_3 C34_3 1_555 1_555
C58_3 C59_3 1_555 1_555
C59_3 H41_3 1_555 1_555
C60_3 C59_3 1_555 1_555
H42_3 C60_3 1_555 1_555
C61_3 C60_3 1_555 1_555
C62_3 C61_3 1_555 1_555
H43_3 C62_3 1_555 1_555
C63_3 C58_3 1_555 1_555
C64_3 C65_3 1_555 1_555
C65_3 H45_3 1_555 1_555
C66_3 C65_3 1_555 1_555
H46_3 C66_3 1_555 1_555
C67_3 C66_3 1_555 1_555
C68_3 C67_3 1_555 1_555
H47_3 C68_3 1_555 1_555
C69_3 C64_3 1_555 1_555
H48_3 C69_3 1_555 1_555
C70_3 C67_3 1_555 1_555
O3_3 C61_3 1_555 1_555
O11_2 C70_3 1_555 1_555
O12_2 C70_3 1_555 1_555
O13_2 C84_3 1_555 1_555
O14_2 C84_3 1_555 1_555
C27_3 C28_3 1_555 1_555
C33_3 C34_3 1_555 1_555
C62_3 C63_3 1_555 1_555
C64_3 O3_3 1_555 1_555
C68_3 C69_3 1_555 1_555
C64_4 C65_4 1_555 1_555
C65_4 H45_4 1_555 1_555
C66_4 C65_4 1_555 1_555
H46_4 C66_4 1_555 1_555
C67_4 C66_4 1_555 1_555
C68_4 C67_4 1_555 1_555
H47_4 C68_4 1_555 1_555
C69_4 C64_4 1_555 1_555
H48_4 C69_4 1_555 1_555
C70_4 C67_4 1_555 1_555
C78_4 C79_4 1_555 1_555
C79_4 H53_4 1_555 1_555
C80_4 C79_4 1_555 1_555
H54_4 C80_4 1_555 1_555
C81_4 C80_4 1_555 1_555
C82_4 C81_4 1_555 1_555
H55_4 C82_4 1_555 1_555
C83_4 C78_4 1_555 1_555
H56_4 C83_4 1_555 1_555
C84_4 C81_4 1_555 1_555
O11 C70_4 1_555 1_555
O12 C70_4 1_555 1_555
O13 C84_4 1_555 1_555
O14 C84_4 1_555 1_555
C68_4 C69_4 1_555 1_555
C78_4 O8_4 1_555 1_555
C82_4 C83_4 1_555 1_555
C1_4 H1_4 1_555 1_555
C2_4 C1_4 1_555 1_555
H2_4 C2_4 1_555 1_555
C3_4 C2_4 1_555 1_555
C4_4 C3_4 1_555 1_555
H3_4 C4_4 1_555 1_555
C5_4 C4_4 1_555 1_555
H4_4 C5_4 1_555 1_555
C6_4 C3_4 1_555 1_555
C7_4 C6_4 1_555 1_555
H5_4 C7_4 1_555 1_555
C8_4 C7_4 1_555 1_555
H6_4 C8_4 1_555 1_555
C9_4 C8_4 1_555 1_555
C10_4 C9_4 1_555 1_555
H7_4 C10_4 1_555 1_555
C11_4 C6_4 1_555 1_555
H8_4 C11_4 1_555 1_555
C23_4 C24_4 1_555 1_555
C24_4 H17_4 1_555 1_555
C25_4 C24_4 1_555 1_555
H18_4 C25_4 1_555 1_555
C26_4 C25_4 1_555 1_555
C29_4 C26_4 1_555 1_555
C30_4 C29_4 1_555 1_555
H21_4 C30_4 1_555 1_555
C31_4 C30_4 1_555 1_555
H22_4 C31_4 1_555 1_555
C35_4 C36_4 1_555 1_555
C36_4 H25_4 1_555 1_555
C37_4 C36_4 1_555 1_555
H26_4 C37_4 1_555 1_555
C38_4 C37_4 1_555 1_555
C39_4 C38_4 1_555 1_555
H27_4 C39_4 1_555 1_555
C40_4 C35_4 1_555 1_555
H28_4 C40_4 1_555 1_555
C41_4 C38_4 1_555 1_555
C42_4 C41_4 1_555 1_555
H29_4 C42_4 1_555 1_555
C43_4 C42_4 1_555 1_555
H30_4 C43_4 1_555 1_555
C44_4 H31_4 1_555 1_555
C45_4 C41_4 1_555 1_555
H32_4 C45_4 1_555 1_555
C57_4 C58_4 1_555 1_555
C58_4 C59_4 1_555 1_555
C59_4 H41_4 1_555 1_555
C60_4 C59_4 1_555 1_555
H42_4 C60_4 1_555 1_555
C61_4 C60_4 1_555 1_555
C62_4 C61_4 1_555 1_555
H43_4 C62_4 1_555 1_555
C63_4 C58_4 1_555 1_555
H44_4 C63_4 1_555 1_555
C71_4 C72_4 1_555 1_555
C72_4 C73_4 1_555 1_555
C73_4 H49_4 1_555 1_555
C74_4 C73_4 1_555 1_555
H50_4 C74_4 1_555 1_555
C75_4 C74_4 1_555 1_555
C76_4 C75_4 1_555 1_555
H51_4 C76_4 1_555 1_555
C77_4 C72_4 1_555 1_555
H52_4 C77_4 1_555 1_555
N1_4 C1_4 1_555 1_555
N3_4 C9_4 1_555 1_555
N8 C43_4 1_555 1_555
O1_4 C57_4 1_555 1_555
O2_4 C57_4 1_555 1_555
O3_4 C61_4 1_555 1_555
O6_4 C71_4 1_555 1_555
O7_4 C71_4 1_555 1_555
Zn4 N1_4 1_555 1_555
Zn7 O6_4 1_555 1_555
C5_4 N1_4 1_555 1_555
C10_4 C11_4 1_555 1_555
C23_4 N3_4 1_555 1_555
C39_4 C40_4 1_555 1_555
C44_4 C45_4 1_555 1_555
C44_4 N8 1_555 1_555
C62_4 C63_4 1_555 1_555
C76_4 C77_4 1_555 1_555
O1_4 Zn4 1_555 1_555
O2_4 Zn4 1_555 1_555
O6_4 Zn4 1_555 1_555
O7_4 Zn7 1_555 1_555
C12_4 C13_4 1_555 1_555
C13_4 H9_4 1_555 1_555
C14_4 C13_4 1_555 1_555
H10_4 C14_4 1_555 1_555
C15_4 C14_4 1_555 1_555
C16_4 C15_4 1_555 1_555
H11_4 C16_4 1_555 1_555
C17_4 C12_4 1_555 1_555
H12_4 C17_4 1_555 1_555
C18_4 C15_4 1_555 1_555
C19_4 C18_4 1_555 1_555
H13_4 C19_4 1_555 1_555
C20_4 C19_4 1_555 1_555
H14_4 C20_4 1_555 1_555
C21_4 H15_4 1_555 1_555
C22_4 C18_4 1_555 1_555
H16_4 C22_4 1_555 1_555
H19_4 C27_4 1_555 1_555
H20_4 C28_4 1_555 1_555
C33_4 C32_4 1_555 1_555
H23_4 C33_4 1_555 1_555
H24_4 C34_4 1_555 1_555
C46_4 C47_4 1_555 1_555
C47_4 H33_4 1_555 1_555
C48_4 C47_4 1_555 1_555
H34_4 C48_4 1_555 1_555
C49_4 C48_4 1_555 1_555
C50_4 C49_4 1_555 1_555
H35_4 C50_4 1_555 1_555
C51_4 C46_4 1_555 1_555
H36_4 C51_4 1_555 1_555
C52_4 C49_4 1_555 1_555
C53_4 C52_4 1_555 1_555
H37_4 C53_4 1_555 1_555
C54_4 C53_4 1_555 1_555
H38_4 C54_4 1_555 1_555
C55_4 H39_4 1_555 1_555
C56_4 C52_4 1_555 1_555
H40_4 C56_4 1_555 1_555
N7_2 C20_4 1_555 1_555
N4_4 C32_4 1_555 1_555
N9_2 C54_4 1_555 1_555
C16_4 C17_4 1_555 1_555
C21_4 C22_4 1_555 1_555
C21_4 N7_2 1_555 1_555
C27_4 C28_4 1_555 1_555
C33_4 C34_4 1_555 1_555
C46_4 N4_4 1_555 1_555
C50_4 C51_4 1_555 1_555
C55_4 C56_4 1_555 1_555
C55_4 N9_2 1_555 1_555
C1_5 H1_5 1_555 1_555
C2_5 C1_5 1_555 1_555
H2_5 C2_5 1_555 1_555
C3_5 C2_5 1_555 1_555
C4_5 C3_5 1_555 1_555
H3_5 C4_5 1_555 1_555
C5_5 C4_5 1_555 1_555
H4_5 C5_5 1_555 1_555
C6_5 C3_5 1_555 1_555
C7_5 C6_5 1_555 1_555
H5_5 C7_5 1_555 1_555
C8_5 C7_5 1_555 1_555
H6_5 C8_5 1_555 1_555
C9_5 C8_5 1_555 1_555
C10_5 C9_5 1_555 1_555
C11_5 C6_5 1_555 1_555
H8_5 C11_5 1_555 1_555
C12_5 C13_5 1_555 1_555
C13_5 H9_5 1_555 1_555
C14_5 C13_5 1_555 1_555
H10_5 C14_5 1_555 1_555
C15_5 C14_5 1_555 1_555
C16_5 C15_5 1_555 1_555
H11_5 C16_5 1_555 1_555
C17_5 C12_5 1_555 1_555
H12_5 C17_5 1_555 1_555
C18_5 C15_5 1_555 1_555
C19_5 C18_5 1_555 1_555
H13_5 C19_5 1_555 1_555
C20_5 C19_5 1_555 1_555
H14_5 C20_5 1_555 1_555
C21_5 H15_5 1_555 1_555
C22_5 C18_5 1_555 1_555
H16_5 C22_5 1_555 1_555
C71_5 C72_5 1_555 1_555
C72_5 C73_5 1_555 1_555
C73_5 H49_5 1_555 1_555
C74_5 C73_5 1_555 1_555
H50_5 C74_5 1_555 1_555
C75_5 C74_5 1_555 1_555
C76_5 C75_5 1_555 1_555
H51_5 C76_5 1_555 1_555
C77_5 C72_5 1_555 1_555
H52_5 C77_5 1_555 1_555
N1_5 C1_5 1_555 1_555
N2_3 C20_5 1_555 1_555
N3_5 C9_5 1_555 1_555
O1_5 C57_5 1_555 1_555
O2_5 C57_5 1_555 1_555
O6_5 C71_5 1_555 1_555
O7_5 C71_5 1_555 1_555
Zn1_3 N1_5 1_555 1_555
Zn2_2 O6_5 1_555 1_555
N7_3 Zn2_2 1_555 1_555
N8_3 Zn1_3 1_555 1_555
N9_3 Zn2_2 1_555 1_555
O11_3 Zn1_3 1_555 1_555
O12_3 Zn1_3 1_555 1_555
O13_3 Zn2_2 1_555 1_555
O14_3 Zn2_2 1_555 1_555
Zn5_2 N2_3 1_555 1_555
C5_5 N1_5 1_555 1_555
C10_5 C11_5 1_555 1_555
C12_5 N3_5 1_555 1_555
C16_5 C17_5 1_555 1_555
C21_5 C22_5 1_555 1_555
C21_5 N2_3 1_555 1_555
C76_5 C77_5 1_555 1_555
O1_5 Zn1_3 1_555 1_555
O2_5 Zn1_3 1_555 1_555
O6_5 Zn1_3 1_555 1_555
O7_5 Zn2_2 1_555 1_555
Zn2_2 O12_3 1_555 1_555
C23_5 C24_5 1_555 1_555
C25_5 C24_5 1_555 1_555
H18_5 C25_5 1_555 1_555
C26_5 C25_5 1_555 1_555
C27_5 C26_5 1_555 1_555
H19_5 C27_5 1_555 1_555
C28_5 C23_5 1_555 1_555
H20_5 C28_5 1_555 1_555
C29_5 C26_5 1_555 1_555
C30_5 C29_5 1_555 1_555
H21_5 C30_5 1_555 1_555
C31_5 C30_5 1_555 1_555
H22_5 C31_5 1_555 1_555
C32_5 C31_5 1_555 1_555
C33_5 C32_5 1_555 1_555
H23_5 C33_5 1_555 1_555
C34_5 C29_5 1_555 1_555
H24_5 C34_5 1_555 1_555
C35_5 C36_5 1_555 1_555
C36_5 H25_5 1_555 1_555
C37_5 C36_5 1_555 1_555
H26_5 C37_5 1_555 1_555
C38_5 C37_5 1_555 1_555
C39_5 C38_5 1_555 1_555
H27_5 C39_5 1_555 1_555
C40_5 C35_5 1_555 1_555
H28_5 C40_5 1_555 1_555
C41_5 C38_5 1_555 1_555
C42_5 C41_5 1_555 1_555
H29_5 C42_5 1_555 1_555
C43_5 C42_5 1_555 1_555
H30_5 C43_5 1_555 1_555
C44_5 H31_5 1_555 1_555
C45_5 C41_5 1_555 1_555
H32_5 C45_5 1_555 1_555
C46_5 C47_5 1_555 1_555
C47_5 H33_5 1_555 1_555
C48_5 C47_5 1_555 1_555
H34_5 C48_5 1_555 1_555
C49_5 C48_5 1_555 1_555
C50_5 C49_5 1_555 1_555
H35_5 C50_5 1_555 1_555
C51_5 C46_5 1_555 1_555
H36_5 C51_5 1_555 1_555
C52_5 C49_5 1_555 1_555
C53_5 C52_5 1_555 1_555
H37_5 C53_5 1_555 1_555
C54_5 C53_5 1_555 1_555
H38_5 C54_5 1_555 1_555
C55_5 H39_5 1_555 1_555
C56_5 C52_5 1_555 1_555
H40_5 C56_5 1_555 1_555
C58_5 C59_5 1_555 1_555
C59_5 H41_5 1_555 1_555
C60_5 C59_5 1_555 1_555
H42_5 C60_5 1_555 1_555
C61_5 C60_5 1_555 1_555
C62_5 C61_5 1_555 1_555
H43_5 C62_5 1_555 1_555
C63_5 C58_5 1_555 1_555
N4_5 C32_5 1_555 1_555
N5_3 C43_5 1_555 1_555
N6_3 C54_5 1_555 1_555
O3_5 C61_5 1_555 1_555
Zn3_2 N5_3 1_555 1_555
Zn6_2 N6_3 1_555 1_555
C27_5 C28_5 1_555 1_555
C33_5 C34_5 1_555 1_555
C35_5 N4_5 1_555 1_555
C39_5 C40_5 1_555 1_555
C44_5 C45_5 1_555 1_555
C44_5 N5_3 1_555 1_555
C46_5 N4_5 1_555 1_555
C50_5 C51_5 1_555 1_555
C55_5 C56_5 1_555 1_555
C55_5 N6_3 1_555 1_555
C62_5 C63_5 1_555 1_555
C64_5 C65_5 1_555 1_555
C65_5 H45_5 1_555 1_555
C66_5 C65_5 1_555 1_555
H46_5 C66_5 1_555 1_555
C67_5 C66_5 1_555 1_555
C68_5 C67_5 1_555 1_555
H47_5 C68_5 1_555 1_555
C69_5 C64_5 1_555 1_555
H48_5 C69_5 1_555 1_555
C70_5 C67_5 1_555 1_555
O4_3 C70_5 1_555 1_555
O5_3 C70_5 1_555 1_555
O9_3 C84_5 1_555 1_555
O10_3 C84_5 1_555 1_555
Zn3_2 O4_3 1_555 1_555
Zn7_2 O5_3 1_555 1_555
C68_5 C69_5 1_555 1_555
O5_3 Zn3_2 1_555 1_555
O9_3 Zn7_2 1_555 1_555
O10_3 Zn7_2 1_555 1_555
C12_6 C13_6 1_555 1_555
C13_6 H9_6 1_555 1_555
C14_6 C13_6 1_555 1_555
H10_6 C14_6 1_555 1_555
C15_6 C14_6 1_555 1_555
C16_6 C15_6 1_555 1_555
H11_6 C16_6 1_555 1_555
C17_6 C12_6 1_555 1_555
H12_6 C17_6 1_555 1_555
C18_6 C15_6 1_555 1_555
C19_6 C18_6 1_555 1_555
H13_6 C19_6 1_555 1_555
C20_6 C19_6 1_555 1_555
H14_6 C20_6 1_555 1_555
C21_6 H15_6 1_555 1_555
C22_6 C18_6 1_555 1_555
H16_6 C22_6 1_555 1_555
H19_6 C27_6 1_555 1_555
H20_6 C28_6 1_555 1_555
H23_6 C33_6 1_555 1_555
H24_6 C34_6 1_555 1_555
N7_3 C20_6 1_555 1_555
C16_6 C17_6 1_555 1_555
C21_6 C22_6 1_555 1_555
C21_6 N7_3 1_555 1_555
C27_6 C28_6 1_555 1_555
C33_6 C34_6 1_555 1_555
C46_6 C47_6 1_555 1_555
C47_6 H33_6 1_555 1_555
C48_6 C47_6 1_555 1_555
H34_6 C48_6 1_555 1_555
C49_6 C48_6 1_555 1_555
C50_6 C49_6 1_555 1_555
H35_6 C50_6 1_555 1_555
C51_6 C46_6 1_555 1_555
H36_6 C51_6 1_555 1_555
C52_6 C49_6 1_555 1_555
C53_6 C52_6 1_555 1_555
H37_6 C53_6 1_555 1_555
C54_6 C53_6 1_555 1_555
H38_6 C54_6 1_555 1_555
C55_6 H39_6 1_555 1_555
C56_6 C52_6 1_555 1_555
H40_6 C56_6 1_555 1_555
N4_6 C32_6 1_555 1_555
N6_4 C54_6 1_555 1_555
Zn7_2 N6_4 1_555 1_555
C46_6 N4_6 1_555 1_555
C50_6 C51_6 1_555 1_555
C55_6 C56_6 1_555 1_555
C55_6 N6_4 1_555 1_555
C1_6 H1_6 1_555 1_555
C2_6 C1_6 1_555 1_555
H2_6 C2_6 1_555 1_555
C3_6 C2_6 1_555 1_555
C4_6 C3_6 1_555 1_555
H3_6 C4_6 1_555 1_555
C5_6 C4_6 1_555 1_555
H4_6 C5_6 1_555 1_555
C6_6 C3_6 1_555 1_555
C7_6 C6_6 1_555 1_555
H5_6 C7_6 1_555 1_555
C8_6 C7_6 1_555 1_555
H6_6 C8_6 1_555 1_555
C9_6 C8_6 1_555 1_555
C10_6 C9_6 1_555 1_555
H7_6 C10_6 1_555 1_555
C11_6 C6_6 1_555 1_555
H8_6 C11_6 1_555 1_555
C23_6 C24_6 1_555 1_555
C24_6 H17_6 1_555 1_555
C25_6 C24_6 1_555 1_555
H18_6 C25_6 1_555 1_555
C26_6 C25_6 1_555 1_555
C29_6 C26_6 1_555 1_555
C30_6 C29_6 1_555 1_555
C57_6 C58_6 1_555 1_555
C58_6 C59_6 1_555 1_555
C59_6 H41_6 1_555 1_555
C60_6 C59_6 1_555 1_555
H42_6 C60_6 1_555 1_555
C61_6 C60_6 1_555 1_555
C62_6 C61_6 1_555 1_555
H43_6 C62_6 1_555 1_555
C63_6 C58_6 1_555 1_555
H44_6 C63_6 1_555 1_555
C64_6 C65_6 1_555 1_555
C65_6 H45_6 1_555 1_555
C66_6 C65_6 1_555 1_555
H46_6 C66_6 1_555 1_555
C67_6 C66_6 1_555 1_555
C68_6 C67_6 1_555 1_555
H47_6 C68_6 1_555 1_555
C69_6 C64_6 1_555 1_555
H48_6 C69_6 1_555 1_555
C70_6 C67_6 1_555 1_555
C71_6 C72_6 1_555 1_555
C72_6 C73_6 1_555 1_555
C73_6 H49_6 1_555 1_555
C74_6 C73_6 1_555 1_555
H50_6 C74_6 1_555 1_555
C75_6 C74_6 1_555 1_555
C76_6 C75_6 1_555 1_555
H51_6 C76_6 1_555 1_555
C77_6 C72_6 1_555 1_555
H52_6 C77_6 1_555 1_555
C78_5 C79_5 1_555 1_555
C79_5 H53_5 1_555 1_555
C80_5 C79_5 1_555 1_555
H54_6 C80_5 1_555 1_555
C81_5 C80_5 1_555 1_555
C82_5 C81_5 1_555 1_555
H55_5 C82_5 1_555 1_555
C83_5 C78_5 1_555 1_555
H56_5 C83_5 1_555 1_555
C84_6 C81_5 1_555 1_555
N1_6 C1_6 1_555 1_555
N3_6 C9_6 1_555 1_555
O1_6 C57_6 1_555 1_555
O2_6 C57_6 1_555 1_555
O3_6 C61_6 1_555 1_555
O4_4 C70_6 1_555 1_555
O5_4 C70_6 1_555 1_555
O6_6 C71_6 1_555 1_555
O7_6 C71_6 1_555 1_555
O8_5 C75_6 1_555 1_555
O9_4 C84_6 1_555 1_555
O10_4 C84_6 1_555 1_555
Zn1_4 N1_6 1_555 1_555
Zn5_2 O6_6 1_555 1_555
N8_4 Zn1_4 1_555 1_555
N9_4 Zn5_2 1_555 1_555
O11_4 Zn1_4 1_555 1_555
O12_4 Zn1_4 1_555 1_555
O13_4 Zn5_2 1_555 1_555
O14_4 Zn5_2 1_555 1_555
Zn4_2 O4_4 1_555 1_555
Zn6_2 O5_4 1_555 1_555
C5_6 N1_6 1_555 1_555
C10_6 C11_6 1_555 1_555
C23_6 N3_6 1_555 1_555
C62_6 C63_6 1_555 1_555
C64_6 O3_6 1_555 1_555
C68_6 C69_6 1_555 1_555
C76_6 C77_6 1_555 1_555
C78_5 O8_5 1_555 1_555
C82_5 C83_5 1_555 1_555
O1_6 Zn1_4 1_555 1_555
O2_6 Zn1_4 1_555 1_555
O5_4 Zn4_2 1_555 1_555
O6_6 Zn1_4 1_555 1_555
O7_6 Zn5_2 1_555 1_555
O9_4 Zn6_2 1_555 1_555
O10_4 Zn6_2 1_555 1_555
Zn5_2 O12_4 1_555 1_555
H22_6 C31_6 1_555 1_555
C35_6 C36_6 1_555 1_555
C36_6 H25_6 1_555 1_555
C37_6 C36_6 1_555 1_555
H26_6 C37_6 1_555 1_555
C38_6 C37_6 1_555 1_555
C39_6 C38_6 1_555 1_555
H27_6 C39_6 1_555 1_555
C40_6 C35_6 1_555 1_555
H28_6 C40_6 1_555 1_555
C41_6 C38_6 1_555 1_555
C42_6 C41_6 1_555 1_555
H29_6 C42_6 1_555 1_555
C43_6 C42_6 1_555 1_555
H30_6 C43_6 1_555 1_555
C44_6 H31_6 1_555 1_555
C45_6 C41_6 1_555 1_555
H32_6 C45_6 1_555 1_555
N5_4 C43_6 1_555 1_555
Zn4_2 N5_4 1_555 1_555
C39_6 C40_6 1_555 1_555
C44_6 C45_6 1_555 1_555
C44_6 N5_4 1_555 1_555
C64_7 C65_7 1_555 1_555
C65_7 H45_7 1_555 1_555
C66_7 C65_7 1_555 1_555
H46_7 C66_7 1_555 1_555
C67_7 C66_7 1_555 1_555
C68_7 C67_7 1_555 1_555
H47_7 C68_7 1_555 1_555
C69_7 C64_7 1_555 1_555
H48_7 C69_7 1_555 1_555
C70_7 C67_7 1_555 1_555
O11_4 C70_7 1_555 1_555
O12_4 C70_7 1_555 1_555
O13_4 C84_7 1_555 1_555
O14_4 C84_7 1_555 1_555
C68_7 C69_7 1_555 1_555
C23_7 C24_7 1_555 1_555
C25_7 C24_7 1_555 1_555
H18_7 C25_7 1_555 1_555
C26_7 C25_7 1_555 1_555
C27_7 C26_7 1_555 1_555
H19_7 C27_7 1_555 1_555
C28_7 C23_7 1_555 1_555
H20_7 C28_7 1_555 1_555
C29_7 C26_7 1_555 1_555
C30_7 C29_7 1_555 1_555
H21_7 C30_7 1_555 1_555
C31_7 C30_7 1_555 1_555
H22_7 C31_7 1_555 1_555
C32_7 C31_7 1_555 1_555
C33_7 C32_7 1_555 1_555
H23_7 C33_7 1_555 1_555
C34_7 C29_7 1_555 1_555
H24_7 C34_7 1_555 1_555
C35_7 C36_7 1_555 1_555
C36_7 H25_7 1_555 1_555
C37_7 C36_7 1_555 1_555
H26_7 C37_7 1_555 1_555
C38_7 C37_7 1_555 1_555
C39_7 C38_7 1_555 1_555
H27_7 C39_7 1_555 1_555
C40_7 C35_7 1_555 1_555
H28_7 C40_7 1_555 1_555
C41_7 C38_7 1_555 1_555
C42_7 C41_7 1_555 1_555
H29_7 C42_7 1_555 1_555
C43_7 C42_7 1_555 1_555
H30_7 C43_7 1_555 1_555
C44_7 H31_7 1_555 1_555
C45_7 C41_7 1_555 1_555
H32_7 C45_7 1_555 1_555
C46_7 C47_7 1_555 1_555
C47_7 H33_7 1_555 1_555
C48_7 C47_7 1_555 1_555
H34_7 C48_7 1_555 1_555
C49_7 C48_7 1_555 1_555
C50_7 C49_7 1_555 1_555
H35_7 C50_7 1_555 1_555
C51_7 C46_7 1_555 1_555
H36_7 C51_7 1_555 1_555
C52_7 C49_7 1_555 1_555
C53_7 C52_7 1_555 1_555
H37_7 C53_7 1_555 1_555
C54_7 C53_7 1_555 1_555
H38_7 C54_7 1_555 1_555
C55_7 H39_7 1_555 1_555
C56_7 C52_7 1_555 1_555
H40_7 C56_7 1_555 1_555
C58_7 C59_7 1_555 1_555
C59_7 H41_7 1_555 1_555
C60_7 C59_7 1_555 1_555
H42_7 C60_7 1_555 1_555
C61_7 C60_7 1_555 1_555
C62_7 C61_7 1_555 1_555
H43_7 C62_7 1_555 1_555
C63_7 C58_7 1_555 1_555
N4_7 C32_7 1_555 1_555
N8_4 C43_7 1_555 1_555
N9_3 C54_7 1_555 1_555
O3_7 C61_7 1_555 1_555
C27_7 C28_7 1_555 1_555
C33_7 C34_7 1_555 1_555
C35_7 N4_7 1_555 1_555
C39_7 C40_7 1_555 1_555
C44_7 C45_7 1_555 1_555
C44_7 N8_4 1_555 1_555
C46_7 N4_7 1_555 1_555
C50_7 C51_7 1_555 1_555
C55_7 C56_7 1_555 1_555
C55_7 N9_3 1_555 1_555
C62_7 C63_7 1_555 1_555
C1_7 H1_7 1_555 1_555
C2_7 C1_7 1_555 1_555
H2_7 C2_7 1_555 1_555
C3_7 C2_7 1_555 1_555
C4_7 C3_7 1_555 1_555
H3_7 C4_7 1_555 1_555
C5_7 C4_7 1_555 1_555
H4_7 C5_7 1_555 1_555
C6_7 C3_7 1_555 1_555
C7_7 C6_7 1_555 1_555
H5_7 C7_7 1_555 1_555
C8_7 C7_7 1_555 1_555
H6_7 C8_7 1_555 1_555
C9_7 C8_7 1_555 1_555
C10_7 C9_7 1_555 1_555
C11_7 C6_7 1_555 1_555
H8_7 C11_7 1_555 1_555
C12_7 C13_7 1_555 1_555
C13_7 H9_7 1_555 1_555
C14_7 C13_7 1_555 1_555
H10_7 C14_7 1_555 1_555
C15_7 C14_7 1_555 1_555
C16_7 C15_7 1_555 1_555
H11_7 C16_7 1_555 1_555
C17_7 C12_7 1_555 1_555
H12_7 C17_7 1_555 1_555
C18_7 C15_7 1_555 1_555
C19_7 C18_7 1_555 1_555
H13_7 C19_7 1_555 1_555
C20_7 C19_7 1_555 1_555
H14_7 C20_7 1_555 1_555
C21_7 H15_7 1_555 1_555
C22_7 C18_7 1_555 1_555
H16_7 C22_7 1_555 1_555
C71_7 C72_7 1_555 1_555
C72_7 C73_7 1_555 1_555
C73_7 H49_7 1_555 1_555
C74_7 C73_7 1_555 1_555
H50_7 C74_7 1_555 1_555
C75_7 C74_7 1_555 1_555
C76_7 C75_7 1_555 1_555
H51_7 C76_7 1_555 1_555
C77_7 C72_7 1_555 1_555
H52_7 C77_7 1_555 1_555
N1_7 C1_7 1_555 1_555
N2_4 C20_7 1_555 1_555
N3_7 C9_7 1_555 1_555
O1_7 C57_7 1_555 1_555
O2_7 C57_7 1_555 1_555
O6_7 C71_7 1_555 1_555
O7_7 C71_7 1_555 1_555
Zn4_2 N1_7 1_555 1_555
Zn6_2 O6_7 1_555 1_555
N7_4 Zn6_2 1_555 1_555
Zn7_2 N2_4 1_555 1_555
C5_7 N1_7 1_555 1_555
C10_7 C11_7 1_555 1_555
C12_7 N3_7 1_555 1_555
C16_7 C17_7 1_555 1_555
C21_7 C22_7 1_555 1_555
C21_7 N2_4 1_555 1_555
C76_7 C77_7 1_555 1_555
O1_7 Zn4_2 1_555 1_555
O2_7 Zn4_2 1_555 1_555
O6_7 Zn4_2 1_555 1_555
O7_7 Zn6_2 1_555 1_555
H22_8 C31_8 1_555 1_555
C35_8 C36_8 1_555 1_555
C36_8 H25_8 1_555 1_555
C37_8 C36_8 1_555 1_555
H26_8 C37_8 1_555 1_555
C38_8 C37_8 1_555 1_555
C39_8 C38_8 1_555 1_555
H27_8 C39_8 1_555 1_555
C40_8 C35_8 1_555 1_555
H28_8 C40_8 1_555 1_555
C41_8 C38_8 1_555 1_555
C42_8 C41_8 1_555 1_555
H29_8 C42_8 1_555 1_555
C43_8 C42_8 1_555 1_555
H30_8 C43_8 1_555 1_555
C44_8 H31_8 1_555 1_555
C45_8 C41_8 1_555 1_555
H32_8 C45_8 1_555 1_555
N8_3 C43_8 1_555 1_555
C39_8 C40_8 1_555 1_555
C44_8 C45_8 1_555 1_555
C44_8 N8_3 1_555 1_555
C1_8 H1_8 1_555 1_555
C2_8 C1_8 1_555 1_555
H2_8 C2_8 1_555 1_555
C3_8 C2_8 1_555 1_555
C4_8 C3_8 1_555 1_555
H3_8 C4_8 1_555 1_555
C5_8 C4_8 1_555 1_555
H4_8 C5_8 1_555 1_555
C6_8 C3_8 1_555 1_555
C7_8 C6_8 1_555 1_555
H5_8 C7_8 1_555 1_555
C8_8 C7_8 1_555 1_555
H6_8 C8_8 1_555 1_555
C9_8 C8_8 1_555 1_555
C10_8 C9_8 1_555 1_555
H7_8 C10_8 1_555 1_555
C11_8 C6_8 1_555 1_555
H8_8 C11_8 1_555 1_555
C23_8 C24_8 1_555 1_555
C24_8 H17_8 1_555 1_555
C25_8 C24_8 1_555 1_555
H18_8 C25_8 1_555 1_555
C26_8 C25_8 1_555 1_555
C29_8 C26_8 1_555 1_555
C30_8 C29_8 1_555 1_555
C57_8 C58_8 1_555 1_555
C58_8 C59_8 1_555 1_555
C59_8 H41_8 1_555 1_555
C60_8 C59_8 1_555 1_555
H42_8 C60_8 1_555 1_555
C61_8 C60_8 1_555 1_555
C62_8 C61_8 1_555 1_555
H43_8 C62_8 1_555 1_555
C63_8 C58_8 1_555 1_555
H44_8 C63_8 1_555 1_555
C64_8 C65_8 1_555 1_555
C65_8 H45_8 1_555 1_555
C66_8 C65_8 1_555 1_555
H46_8 C66_8 1_555 1_555
C67_8 C66_8 1_555 1_555
C68_8 C67_8 1_555 1_555
H47_8 C68_8 1_555 1_555
C69_8 C64_8 1_555 1_555
H48_8 C69_8 1_555 1_555
C70_8 C67_8 1_555 1_555
C71_8 C72_8 1_555 1_555
C72_8 C73_8 1_555 1_555
C73_8 H49_8 1_555 1_555
C74_8 C73_8 1_555 1_555
H50_8 C74_8 1_555 1_555
C75_8 C74_8 1_555 1_555
C76_8 C75_8 1_555 1_555
H51_8 C76_8 1_555 1_555
C77_8 C72_8 1_555 1_555
H52_8 C77_8 1_555 1_555
C78_6 C79_6 1_555 1_555
C79_6 H53_6 1_555 1_555
C80_6 C79_6 1_555 1_555
H54_8 C80_6 1_555 1_555
C81_6 C80_6 1_555 1_555
C82_6 C81_6 1_555 1_555
H55_6 C82_6 1_555 1_555
C83_6 C78_6 1_555 1_555
H56_6 C83_6 1_555 1_555
C84_8 C81_6 1_555 1_555
N1_8 C1_8 1_555 1_555
N3_8 C9_8 1_555 1_555
O1_8 C57_8 1_555 1_555
O2_8 C57_8 1_555 1_555
O3_8 C61_8 1_555 1_555
O11_3 C70_8 1_555 1_555
O12_3 C70_8 1_555 1_555
O6_8 C71_8 1_555 1_555
O7_8 C71_8 1_555 1_555
O8_6 C75_8 1_555 1_555
O13_3 C84_8 1_555 1_555
O14_3 C84_8 1_555 1_555
Zn3_2 N1_8 1_555 1_555
Zn7_2 O6_8 1_555 1_555
C5_8 N1_8 1_555 1_555
C10_8 C11_8 1_555 1_555
C23_8 N3_8 1_555 1_555
C62_8 C63_8 1_555 1_555
C64_8 O3_8 1_555 1_555
C68_8 C69_8 1_555 1_555
C76_8 C77_8 1_555 1_555
C78_6 O8_6 1_555 1_555
C82_6 C83_6 1_555 1_555
O1_8 Zn3_2 1_555 1_555
O2_8 Zn3_2 1_555 1_555
O6_8 Zn3_2 1_555 1_555
O7_8 Zn7_2 1_555 1_555
C46_8 C47_8 1_555 1_555
C47_8 H33_8 1_555 1_555
C48_8 C47_8 1_555 1_555
H34_8 C48_8 1_555 1_555
C49_8 C48_8 1_555 1_555
C50_8 C49_8 1_555 1_555
H35_8 C50_8 1_555 1_555
C51_8 C46_8 1_555 1_555
H36_8 C51_8 1_555 1_555
C52_8 C49_8 1_555 1_555
C53_8 C52_8 1_555 1_555
H37_8 C53_8 1_555 1_555
C54_8 C53_8 1_555 1_555
H38_8 C54_8 1_555 1_555
C55_8 H39_8 1_555 1_555
C56_8 C52_8 1_555 1_555
H40_8 C56_8 1_555 1_555
N4_8 C32_8 1_555 1_555
N9_4 C54_8 1_555 1_555
C46_8 N4_8 1_555 1_555
C50_8 C51_8 1_555 1_555
C55_8 C56_8 1_555 1_555
C55_8 N9_4 1_555 1_555
C12_8 C13_8 1_555 1_555
C13_8 H9_8 1_555 1_555
C14_8 C13_8 1_555 1_555
H10_8 C14_8 1_555 1_555
C15_8 C14_8 1_555 1_555
C16_8 C15_8 1_555 1_555
H11_8 C16_8 1_555 1_555
C17_8 C12_8 1_555 1_555
H12_8 C17_8 1_555 1_555
C18_8 C15_8 1_555 1_555
C19_8 C18_8 1_555 1_555
H13_8 C19_8 1_555 1_555
C20_8 C19_8 1_555 1_555
H14_8 C20_8 1_555 1_555
C21_8 H15_8 1_555 1_555
C22_8 C18_8 1_555 1_555
H16_8 C22_8 1_555 1_555
H19_8 C27_8 1_555 1_555
H20_8 C28_8 1_555 1_555
H23_8 C33_8 1_555 1_555
H24_8 C34_8 1_555 1_555
N7_4 C20_8 1_555 1_555
C16_8 C17_8 1_555 1_555
C21_8 C22_8 1_555 1_555
C21_8 N7_4 1_555 1_555
C27_8 C28_8 1_555 1_555
C33_8 C34_8 1_555 1_555
C78_7 C79_7 1_555 1_555
C79_7 H53_7 1_555 1_555
C80_7 C79_7 1_555 1_555
C81_7 C80_7 1_555 1_555
C82_7 C81_7 1_555 1_555
H55_7 C82_7 1_555 1_555
C83_7 C78_7 1_555 1_555
H56_7 C83_7 1_555 1_555
C78_7 O8_7 1_555 1_555
C82_7 C83_7 1_555 1_555
C78_8 C79_8 1_555 1_555
C79_8 H53_8 1_555 1_555
C80_8 C79_8 1_555 1_555
C81_8 C80_8 1_555 1_555
C82_8 C81_8 1_555 1_555
H55_8 C82_8 1_555 1_555
C83_8 C78_8 1_555 1_555
H56_8 C83_8 1_555 1_555
C78_8 O8_8 1_555 1_555
C82_8 C83_8 1_555 1_555

#END
