
###############################################################################
#
# This file contains modified crystal structure data generated from the
# MOF subset of the Cambridge Structural Database (CSD) v543 
# hosted by the Cambridge Crystallographic Data Centre (CCDC).
#
# This work is licensed under the Creative Commons
# Attribution-NonCommercial-ShareAlike 4.0 International License.
# To view a copy of this license, visit
# http://creativecommons.org/licenses/by-nc-sa/4.0/
# or send a letter to
# Creative Commons, PO Box 1866, Mountain View, CA 94042, USA.
#
# CIF created using the CSD Python API on 29 September 2022
# The structure has been converted into the P1 space group
# The structure has a 3D framework
# The original CSD entry OMIPAD is in the monoclinic crystal system
# The framework has been calculated to contain at least 10.0% void space
# The void calculation uses a probe of radius 1.32A, grid spacing 0.4
#
###############################################################################

data_OMIPAD
_chemical_formula_moiety         '(C192 H128 N12 O16 Zn4)n'
_symmetry_cell_setting           triclinic
_symmetry_space_group_name_H-M   'P 1'
_symmetry_Int_Tables_number      1
_space_group_name_Hall           'P 1'
loop_
_symmetry_equiv_pos_site_id
_symmetry_equiv_pos_as_xyz
1 x,y,z
_cell_length_a                   8.9575(8)
_cell_length_b                   19.6850(18)
_cell_length_c                   25.063(2)
_cell_angle_alpha                90
_cell_angle_beta                 96.015(2)
_cell_angle_gamma                90
_cell_volume                     4394.99
loop_
_atom_site_label
_atom_site_type_symbol
_atom_site_fract_x
_atom_site_fract_y
_atom_site_fract_z
C91 C 0.5508(9) 0.0043(4) 0.7255(3)
H61 H 0.6247 0.0238 0.7495
C92 C 0.5064(10) 0.0379(4) 0.6778(3)
H62 H 0.5475 0.0801 0.6713
C95 C 0.4040(6) 0.0101(3) 0.6407(2)
C96 C 0.3493(8) 0.0461(5) 0.5904(3)
O7 O 0.3470(9) 0.1082(5) 0.5907(3)
O8 O 0.2846(8) 0.0194(5) 0.5533(2)
Zn6 Zn 0.22643(6) 0.12831(2) 0.517772(17)
C63 C 0.0230(5) 0.0082(2) 0.28734(16)
C66 C 0.0641(5) 0.0360(2) 0.34098(16)
C67 C 0.1040(8) 0.1038(3) 0.34923(19)
H45 H 0.1001 0.1334 0.3202
C68 C 0.1488(8) 0.1272(3) 0.3996(2)
H46 H 0.1769 0.1725 0.4038
C69 C 0.1128(6) 0.0241(3) 0.43686(18)
N6 N 0.1542(4) 0.08762(19) 0.44350(14)
C49 C 0.6100(5) 0.7511(2) 0.01758(16)
H33 H 0.6943 0.7728 0.0070
C50 C 0.5017(6) 0.7898(2) 0.03760(18)
H34 H 0.5127 0.8367 0.0396
C51 C 0.3762(5) 0.7595(2) 0.05486(16)
C52 C 0.3668(6) 0.6888(2) 0.05013(19)
H35 H 0.2847 0.6655 0.0609
C53 C 0.4811(6) 0.6543(2) 0.0292(2)
H36 H 0.4740 0.6072 0.0267
C54 C 0.2594(5) 0.8007(2) 0.07664(16)
C55 C 0.2966(6) 0.8619(2) 0.1022(2)
H37 H 0.3965 0.8755 0.1075
C56 C 0.1869(6) 0.9027(3) 0.1199(2)
H38 H 0.2141 0.9437 0.1366
C57 C 0.0395(5) 0.8843(2) 0.11354(16)
C58 C 0.0012(6) 0.8221(3) 0.0907(2)
C59 C 0.1109(6) 0.7812(3) 0.07242(19)
H40 H 0.0837 0.7394 0.0569
C64 C 0.0501(6) 0.9400(2) 0.27597(17)
H43 H 0.0927 0.9116 0.3031
C65 C 0.0144(6) 0.9143(2) 0.22510(17)
H44 H 0.0313 0.8685 0.2187
H47 H 0.1142 0.9962 0.4669
C70 C 0.0671(6) 0.9969(2) 0.38683(17)
H48 H 0.0381 0.9516 0.3841
N5 N 0.5997(4) 0.68372(18) 0.01261(13)
N8 N 0.8458(4) 0.58762(19) 0.05650(14)
C49_2 C 0.3900(5) 0.2511(2) 0.48242(16)
H33_2 H 0.3057 0.2728 0.4930
C50_2 C 0.4983(6) 0.2898(2) 0.46240(18)
H34_2 H 0.4873 0.3367 0.4604
C51_2 C 0.6238(5) 0.2595(2) 0.44514(16)
C52_2 C 0.6332(6) 0.1888(2) 0.44987(19)
H35_2 H 0.7153 0.1655 0.4391
C53_2 C 0.5189(6) 0.1543(2) 0.4708(2)
H36_2 H 0.5260 0.1072 0.4733
C54_2 C 0.7406(5) 0.3007(2) 0.42336(16)
C55_2 C 0.7034(6) 0.3619(2) 0.3978(2)
H37_2 H 0.6035 0.3755 0.3925
C56_2 C 0.8131(6) 0.4027(3) 0.3801(2)
H38_2 H 0.7859 0.4437 0.3634
C57_2 C 0.9605(5) 0.3843(2) 0.38646(16)
C58_2 C 0.9988(6) 0.3221(3) 0.4093(2)
C59_2 C 0.8891(6) 0.2812(3) 0.42758(19)
H40_2 H 0.9163 0.2394 0.4431
C63_2 C 0.9770(5) 0.5082(2) 0.21266(16)
C64_2 C 0.9499(6) 0.4400(2) 0.22403(17)
H43_2 H 0.9073 0.4116 0.1969
C65_2 C 0.9856(6) 0.4143(2) 0.27490(17)
H44_2 H 0.9687 0.3685 0.2813
C66_2 C 0.9359(5) 0.5360(2) 0.15902(16)
C67_2 C 0.8960(8) 0.6038(3) 0.15077(19)
H45_2 H 0.8999 0.6334 0.1798
C68_2 C 0.8512(8) 0.6272(3) 0.1004(2)
H46_2 H 0.8231 0.6725 0.0962
C69_2 C 0.8872(6) 0.5241(3) 0.06314(18)
H47_2 H 0.8858 0.4962 0.0331
C70_2 C 0.9329(6) 0.4969(2) 0.11317(17)
H48_2 H 0.9619 0.4516 0.1159
N5_2 N 0.4003(4) 0.18372(18) 0.48739(13)
C77 C 0.0017(7) 0.1903(3) 0.54741(18)
O5 O 0.1111(4) 0.2198(2) 0.53463(15)
C78 C 0.1257(6) 0.7290(2) 0.93156(16)
C79 C 0.2501(6) 0.6952(2) 0.91515(19)
H53 H 0.2561 0.6481 0.9180
C80 C 0.3635(6) 0.7304(2) 0.89490(18)
H54 H 0.4468 0.7071 0.8851
C81 C 0.3556(5) 0.8003(2) 0.88889(17)
C82 C 0.2349(6) 0.8334(2) 0.90728(19)
H55 H 0.2303 0.8805 0.9054
C83 C 0.1218(6) 0.7988(3) 0.92809(19)
H56 H 0.0418 0.8226 0.9400
C84 C 0.4727(5) 0.8379(2) 0.86323(17)
C85 C 0.6219(6) 0.8377(3) 0.8831(2)
H57 H 0.6528 0.8130 0.9139
C86 C 0.7267(7) 0.8740(3) 0.8577(2)
H58 H 0.8269 0.8738 0.8719
C87 C 0.6850(6) 0.9099(3) 0.8125(2)
H59 H 0.7561 0.9351 0.7966
C88 C 0.5377(5) 0.9093(2) 0.78975(17)
C89 C 0.4320(5) 0.8746(2) 0.81605(18)
H60 H 0.3318 0.8757 0.8020
C90 C 0.4915(5) 0.9448(2) 0.73834(17)
C93 C 0.3418(8) 0.9492(4) 0.6527(2)
H63 H 0.2693 0.9297 0.6282
C94 C 0.3842(7) 0.9163(3) 0.7003(2)
H64 H 0.3411 0.8747 0.7072
O6 O 0.0089(5) 0.6283(2) 0.95700(16)
C77_2 C 0.9983(7) 0.6903(3) 0.95259(18)
O5_2 O 0.8889(4) 0.7198(2) 0.96537(15)
Zn2 Zn 0.77357(6) 0.62831(2) 0.982228(17)
O10 O 0.6530(9) 0.6082(5) 0.9093(3)
O12 O 0.7154(8) 0.5194(5) 0.9467(2)
C78_2 C 0.8743(6) 0.2290(2) 0.56844(16)
C79_2 C 0.7499(6) 0.1952(2) 0.58485(19)
H53_2 H 0.7439 0.1481 0.5820
C80_2 C 0.6365(6) 0.2304(2) 0.60510(18)
H54_2 H 0.5532 0.2071 0.6149
C81_2 C 0.6444(5) 0.3003(2) 0.61111(17)
C82_2 C 0.7651(6) 0.3334(2) 0.59272(19)
H55_2 H 0.7697 0.3805 0.5946
C83_2 C 0.8782(6) 0.2988(3) 0.57191(19)
H56_2 H 0.9582 0.3226 0.5600
C84_2 C 0.5273(5) 0.3379(2) 0.63677(17)
C85_2 C 0.3781(6) 0.3377(3) 0.6169(2)
H57_2 H 0.3472 0.3130 0.5861
C86_2 C 0.2733(7) 0.3740(3) 0.6423(2)
H58_2 H 0.1731 0.3738 0.6281
C87_2 C 0.3150(6) 0.4099(3) 0.6875(2)
H59_2 H 0.2439 0.4351 0.7034
C88_2 C 0.4623(5) 0.4093(2) 0.71025(17)
C89_2 C 0.5680(5) 0.3746(2) 0.68395(18)
H60_2 H 0.6682 0.3757 0.6980
C90_2 C 0.5085(5) 0.4448(2) 0.76166(17)
C91_2 C 0.4492(9) 0.5043(4) 0.7745(3)
H61_2 H 0.3753 0.5238 0.7505
C92_2 C 0.4936(10) 0.5379(4) 0.8222(3)
H62_2 H 0.4525 0.5801 0.8287
C93_2 C 0.6582(8) 0.4492(4) 0.8473(2)
H63_2 H 0.7307 0.4297 0.8718
C94_2 C 0.6158(7) 0.4163(3) 0.7997(2)
H64_2 H 0.6589 0.3747 0.7928
C95_2 C 0.5960(6) 0.5101(3) 0.8593(2)
C96_2 C 0.6507(8) 0.5461(5) 0.9096(3)
O6_2 O 0.9911(5) 0.1283(2) 0.54300(16)
H18 H 0.2887 0.0327 0.0326
C61 C 0.9299(5) 0.0223(2) 0.19413(17)
H41 H 0.8898 0.0507 0.1667
C62 C 0.9638(5) 0.0484(2) 0.24503(17)
H42 H 0.9463 0.0942 0.2510
H51 H 0.4659 0.0048 0.0873
H7 H 0.0982 0.1923 0.9124
C12 C 0.0458(5) 0.0449(2) 0.81670(15)
C23 C 0.1939(5) 0.0509(2) 0.90538(16)
C24 C 0.1798(6) 0.0485(3) 0.95993(18)
H17 H 0.0881 0.0591 0.9722
C25 C 0.2998(6) 0.0309(3) 0.99618(18)
C26 C 0.4356(5) 0.0105(2) 0.98042(16)
C27 C 0.4456(5) 0.0099(2) 0.92529(16)
C28 C 0.3275(5) 0.0304(2) 0.88882(15)
H20 H 0.3392 0.0304 0.8524
N1 N 0.0736(4) 0.0725(2) 0.86876(13)
H39 H 0.9018 0.8077 0.0876
C60 C 0.9542(5) 0.9551(2) 0.18330(15)
C71 C 0.8061(5) 0.9491(2) 0.09462(16)
C72 C 0.8202(6) 0.9515(3) 0.04007(18)
H49 H 0.9119 0.9409 0.0278
C73 C 0.7002(6) 0.9691(3) 0.00382(18)
C74 C 0.5644(5) 0.9895(2) 0.01958(16)
C75 C 0.5544(5) 0.9901(2) 0.07471(16)
C76 C 0.6725(5) 0.9696(2) 0.11118(15)
H52 H 0.6608 0.9696 0.1476
N4 N 0.9264(4) 0.9275(2) 0.13124(13)
C13 C 0.0701(5) 0.9777(2) 0.80587(17)
H9 H 0.1102 0.9493 0.8333
C14 C 0.0362(5) 0.9516(2) 0.75497(17)
H10 H 0.0537 0.9058 0.7490
H19 H 0.5341 0.9952 0.9127
H50 H 0.7113 0.9673 0.9674
C29 C 0.0017(7) 0.3097(3) 0.04741(18)
O1 O 0.1111(4) 0.2802(2) 0.03463(15)
Zn1 Zn 0.22643(6) 0.37169(2) 0.017772(17)
O9 O 0.3470(9) 0.3918(5) 0.0907(3)
O11 O 0.2846(8) 0.4806(5) 0.0533(2)
C30 C 0.1257(6) 0.7710(2) 0.43156(16)
C31 C 0.2501(6) 0.8048(2) 0.41515(19)
H21 H 0.2561 0.8519 0.4180
C32 C 0.3635(6) 0.7696(2) 0.39490(18)
H22 H 0.4468 0.7929 0.3851
C33 C 0.3556(5) 0.6997(2) 0.38889(17)
C34 C 0.2349(6) 0.6666(2) 0.40728(19)
H23 H 0.2303 0.6195 0.4054
C35 C 0.1218(6) 0.7012(3) 0.42809(19)
H24 H 0.0418 0.6774 0.4400
C36 C 0.4727(5) 0.6621(2) 0.36323(17)
C37 C 0.6219(6) 0.6623(3) 0.3831(2)
H25 H 0.6528 0.6870 0.4139
C38 C 0.7267(7) 0.6260(3) 0.3577(2)
H26 H 0.8269 0.6262 0.3719
C39 C 0.6850(6) 0.5901(3) 0.3125(2)
H27 H 0.7561 0.5649 0.2966
C40 C 0.5377(5) 0.5907(2) 0.28975(17)
C41 C 0.4320(5) 0.6254(2) 0.31605(18)
H28 H 0.3318 0.6243 0.3020
C42 C 0.4915(5) 0.5552(2) 0.23834(17)
C43 C 0.5508(9) 0.4957(4) 0.2255(3)
H29 H 0.6247 0.4762 0.2495
C44 C 0.5064(10) 0.4621(4) 0.1778(3)
H30 H 0.5475 0.4199 0.1713
C45 C 0.3418(8) 0.5508(4) 0.1527(2)
H31 H 0.2693 0.5703 0.1282
C46 C 0.3842(7) 0.5837(3) 0.2003(2)
H32 H 0.3411 0.6253 0.2072
C47 C 0.4040(6) 0.4899(3) 0.1407(2)
C48 C 0.3493(8) 0.4539(5) 0.0904(3)
O2 O 0.0089(5) 0.8717(2) 0.45700(16)
C1 C 0.3900(5) 0.2489(2) 0.98242(16)
H1 H 0.3057 0.2272 0.9930
C2 C 0.4983(6) 0.2102(2) 0.96240(18)
H2 H 0.4873 0.1633 0.9604
C3 C 0.6238(5) 0.2405(2) 0.94514(16)
C4 C 0.6332(6) 0.3112(2) 0.94987(19)
H3 H 0.7153 0.3345 0.9391
C5 C 0.5189(6) 0.3457(2) 0.9708(2)
H4 H 0.5260 0.3928 0.9733
C6 C 0.7406(5) 0.1993(2) 0.92336(16)
C7 C 0.7034(6) 0.1381(2) 0.8978(2)
H5 H 0.6035 0.1245 0.8925
C8 C 0.8131(6) 0.0973(3) 0.8801(2)
H6 H 0.7859 0.0563 0.8634
C9 C 0.9605(5) 0.1157(2) 0.88646(16)
C10 C 0.9988(6) 0.1779(3) 0.9093(2)
C11 C 0.8891(6) 0.2188(3) 0.92758(19)
H8 H 0.9163 0.2606 0.9431
C16 C 0.9499(6) 0.0600(2) 0.72403(17)
H11 H 0.9073 0.0884 0.6969
C17 C 0.9856(6) 0.0857(2) 0.77490(17)
H12 H 0.9687 0.1315 0.7813
H15 H 0.8858 0.0038 0.5331
C22 C 0.9329(6) 0.0031(2) 0.61317(17)
H16 H 0.9619 0.0484 0.6159
N2 N 0.4003(4) 0.31628(18) 0.98739(13)
N7 N 0.1542(4) 0.41238(19) 0.94350(14)
C15 C 0.9770(5) 0.9918(2) 0.71266(16)
C18 C 0.9359(5) 0.9640(2) 0.65902(16)
C19 C 0.8960(8) 0.8962(3) 0.65077(19)
H13 H 0.8999 0.8666 0.6798
C20 C 0.8512(8) 0.8728(3) 0.6004(2)
H14 H 0.8231 0.8275 0.5962
C21 C 0.8872(6) 0.9759(3) 0.56314(18)
N3 N 0.8458(4) 0.91238(19) 0.55650(14)
Zn4 Zn 0.77357(6) 0.87169(2) 0.482228(17)
C43_2 C 0.4492(9) 0.9957(4) 0.2745(3)
H29_2 H 0.3753 0.9762 0.2505
C44_2 C 0.4936(10) 0.9621(4) 0.3222(3)
H30_2 H 0.4525 0.9199 0.3287
C47_2 C 0.5960(6) 0.9899(3) 0.3593(2)
C48_2 C 0.6507(8) 0.9539(5) 0.4096(3)
O3 O 0.6530(9) 0.8918(5) 0.4093(3)
O4 O 0.7154(8) 0.9806(5) 0.4467(2)
C1_2 C 0.6100(5) 0.7489(2) 0.51758(16)
H1_2 H 0.6943 0.7272 0.5070
C2_2 C 0.5017(6) 0.7102(2) 0.53760(18)
H2_2 H 0.5127 0.6633 0.5396
C3_2 C 0.3762(5) 0.7405(2) 0.55486(16)
C4_2 C 0.3668(6) 0.8112(2) 0.55013(19)
H3_2 H 0.2847 0.8345 0.5609
C5_2 C 0.4811(6) 0.8457(2) 0.5292(2)
H4_2 H 0.4740 0.8928 0.5267
C6_2 C 0.2594(5) 0.6993(2) 0.57664(16)
C7_2 C 0.2966(6) 0.6381(2) 0.6022(2)
H5_2 H 0.3965 0.6245 0.6075
C8_2 C 0.1869(6) 0.5973(3) 0.6199(2)
H6_2 H 0.2141 0.5563 0.6366
C9_2 C 0.0395(5) 0.6157(2) 0.61354(16)
C10_2 C 0.0012(6) 0.6779(3) 0.5907(2)
C11_2 C 0.1109(6) 0.7188(3) 0.57242(19)
H8_2 H 0.0837 0.7606 0.5569
C15_2 C 0.0230(5) 0.4918(2) 0.78734(16)
C16_2 C 0.0501(6) 0.5600(2) 0.77597(17)
H11_2 H 0.0927 0.5884 0.8031
C17_2 C 0.0144(6) 0.5857(2) 0.72510(17)
H12_2 H 0.0313 0.6315 0.7187
C18_2 C 0.0641(5) 0.4640(2) 0.84098(16)
C19_2 C 0.1040(8) 0.3962(3) 0.84923(19)
H13_2 H 0.1001 0.3666 0.8202
C20_2 C 0.1488(8) 0.3728(3) 0.8996(2)
H14_2 H 0.1769 0.3275 0.9038
C21_2 C 0.1128(6) 0.4759(3) 0.93686(18)
H15_2 H 0.1142 0.5038 0.9669
C22_2 C 0.0671(6) 0.5031(2) 0.88683(17)
H16_2 H 0.0381 0.5484 0.8841
C29_2 C 0.9983(7) 0.8097(3) 0.45259(18)
N2_2 N 0.5997(4) 0.81628(18) 0.51261(13)
O1_2 O 0.8889(4) 0.7802(2) 0.46537(15)
C30_2 C 0.8743(6) 0.2710(2) 0.06844(16)
C31_2 C 0.7499(6) 0.3048(2) 0.08485(19)
H21_2 H 0.7439 0.3519 0.0820
C32_2 C 0.6365(6) 0.2696(2) 0.10510(18)
H22_2 H 0.5532 0.2929 0.1149
C33_2 C 0.6444(5) 0.1997(2) 0.11111(17)
C34_2 C 0.7651(6) 0.1666(2) 0.09272(19)
H23_2 H 0.7697 0.1195 0.0946
C35_2 C 0.8782(6) 0.2012(3) 0.07191(19)
H24_2 H 0.9582 0.1774 0.0600
C36_2 C 0.5273(5) 0.1621(2) 0.13677(17)
C37_2 C 0.3781(6) 0.1623(3) 0.1169(2)
H25_2 H 0.3472 0.1870 0.0861
C38_2 C 0.2733(7) 0.1260(3) 0.1423(2)
H26_2 H 0.1731 0.1262 0.1281
C39_2 C 0.3150(6) 0.0901(3) 0.1875(2)
H27_2 H 0.2439 0.0649 0.2034
C40_2 C 0.4623(5) 0.0907(2) 0.21025(17)
C41_2 C 0.5680(5) 0.1254(2) 0.18395(18)
H28_2 H 0.6682 0.1243 0.1980
C42_2 C 0.5085(5) 0.0552(2) 0.26166(17)
C45_2 C 0.6582(8) 0.0508(4) 0.3473(2)
H31_2 H 0.7307 0.0703 0.3718
C46_2 C 0.6158(7) 0.0837(3) 0.2997(2)
H32_2 H 0.6589 0.1253 0.2928
O2_2 O 0.9911(5) 0.3717(2) 0.04300(16)
H7_2 H 0.9018 0.6923 0.5876
C12_2 C 0.9542(5) 0.5449(2) 0.68330(15)
C13_2 C 0.9299(5) 0.4777(2) 0.69413(17)
H9_2 H 0.8898 0.4493 0.6667
C14_2 C 0.9638(5) 0.4516(2) 0.74503(17)
H10_2 H 0.9463 0.4058 0.7510
C23_2 C 0.8061(5) 0.5509(2) 0.59462(16)
C24_2 C 0.8202(6) 0.5485(3) 0.54007(18)
H17_2 H 0.9119 0.5591 0.5278
C25_2 C 0.7002(6) 0.5309(3) 0.50382(18)
H18_2 H 0.7113 0.5327 0.4674
C26_2 C 0.5644(5) 0.5105(2) 0.51958(16)
C27_2 C 0.5544(5) 0.5099(2) 0.57471(16)
H19_2 H 0.4659 0.4952 0.5873
C28_2 C 0.6725(5) 0.5304(2) 0.61118(15)
H20_2 H 0.6608 0.5304 0.6476
N1_2 N 0.9264(4) 0.5725(2) 0.63124(13)
H39_2 H 0.0982 0.3077 0.4124
C60_2 C 0.0458(5) 0.4551(2) 0.31670(15)
C61_2 C 0.0701(5) 0.5223(2) 0.30587(17)
H41_2 H 0.1102 0.5507 0.3333
C62_2 C 0.0362(5) 0.5484(2) 0.25497(17)
H42_2 H 0.0537 0.5942 0.2490
C71_2 C 0.1939(5) 0.4491(2) 0.40538(16)
C72_2 C 0.1798(6) 0.4515(3) 0.45993(18)
H49_2 H 0.0881 0.4409 0.4722
C73_2 C 0.2998(6) 0.4691(3) 0.49618(18)
H50_2 H 0.2887 0.4673 0.5326
C74_2 C 0.4356(5) 0.4895(2) 0.48042(16)
C75_2 C 0.4456(5) 0.4901(2) 0.42529(16)
H51_2 H 0.5341 0.5048 0.4127
C76_2 C 0.3275(5) 0.4696(2) 0.38882(15)
H52_2 H 0.3392 0.4696 0.3524
N4_2 N 0.0736(4) 0.4275(2) 0.36876(13)
loop_
_geom_bond_atom_site_label_1
_geom_bond_atom_site_label_2
_geom_bond_site_symmetry_1
_geom_bond_site_symmetry_2
H61 C91 1_555 1_555
C92 C91 1_555 1_555
H62 C92 1_555 1_555
C95 C92 1_555 1_555
C96 C95 1_555 1_555
O7 C96 1_555 1_555
O8 C96 1_555 1_555
Zn6 O7 1_555 1_555
O8 Zn6 1_555 1_555
C66 C63 1_555 1_555
C67 C66 1_555 1_555
H45 C67 1_555 1_555
C68 C67 1_555 1_555
H46 C68 1_555 1_555
N6 C68 1_555 1_555
Zn6 N6 1_555 1_555
C69 N6 1_555 1_555
C49 H33 1_555 1_555
C50 C49 1_555 1_555
H34 C50 1_555 1_555
C51 C50 1_555 1_555
C52 C51 1_555 1_555
H35 C52 1_555 1_555
C53 C52 1_555 1_555
H36 C53 1_555 1_555
C54 C51 1_555 1_555
C55 C54 1_555 1_555
H37 C55 1_555 1_555
C56 C55 1_555 1_555
H38 C56 1_555 1_555
C57 C56 1_555 1_555
C58 C57 1_555 1_555
C59 C54 1_555 1_555
H40 C59 1_555 1_555
H43 C64 1_555 1_555
H44 C65 1_555 1_555
H48 C70 1_555 1_555
N5 C49 1_555 1_555
C53 N5 1_555 1_555
C58 C59 1_555 1_555
C64 C65 1_555 1_555
C49_2 H33_2 1_555 1_555
C50_2 C49_2 1_555 1_555
H34_2 C50_2 1_555 1_555
C51_2 C50_2 1_555 1_555
C52_2 C51_2 1_555 1_555
H35_2 C52_2 1_555 1_555
C53_2 C52_2 1_555 1_555
H36_2 C53_2 1_555 1_555
C54_2 C51_2 1_555 1_555
C55_2 C54_2 1_555 1_555
H37_2 C55_2 1_555 1_555
C56_2 C55_2 1_555 1_555
H38_2 C56_2 1_555 1_555
C57_2 C56_2 1_555 1_555
C58_2 C57_2 1_555 1_555
C59_2 C54_2 1_555 1_555
H40_2 C59_2 1_555 1_555
C64_2 C63_2 1_555 1_555
H43_2 C64_2 1_555 1_555
H44_2 C65_2 1_555 1_555
C66_2 C63_2 1_555 1_555
C67_2 C66_2 1_555 1_555
H45_2 C67_2 1_555 1_555
C68_2 C67_2 1_555 1_555
H46_2 C68_2 1_555 1_555
C69_2 H47_2 1_555 1_555
C70_2 C66_2 1_555 1_555
H48_2 C70_2 1_555 1_555
N5_2 C49_2 1_555 1_555
N8 C68_2 1_555 1_555
O5 C77 1_555 1_555
Zn6 N5_2 1_555 1_555
C53_2 N5_2 1_555 1_555
C58_2 C59_2 1_555 1_555
C64_2 C65_2 1_555 1_555
C69_2 C70_2 1_555 1_555
C69_2 N8 1_555 1_555
O5 Zn6 1_555 1_555
C78 C79 1_555 1_555
C79 H53 1_555 1_555
C80 C79 1_555 1_555
H54 C80 1_555 1_555
C81 C80 1_555 1_555
C82 C81 1_555 1_555
H55 C82 1_555 1_555
C83 C78 1_555 1_555
H56 C83 1_555 1_555
C84 C81 1_555 1_555
C85 C84 1_555 1_555
H57 C85 1_555 1_555
C86 C85 1_555 1_555
H58 C86 1_555 1_555
C87 C86 1_555 1_555
H59 C87 1_555 1_555
C88 C87 1_555 1_555
C89 C84 1_555 1_555
H60 C89 1_555 1_555
C90 C88 1_555 1_555
C93 H63 1_555 1_555
C94 C90 1_555 1_555
H64 C94 1_555 1_555
C82 C83 1_555 1_555
C88 C89 1_555 1_555
C93 C94 1_555 1_555
O5_2 C77_2 1_555 1_555
O10 Zn2 1_555 1_555
O12 Zn2 1_555 1_555
O5_2 Zn2 1_555 1_555
C78_2 C79_2 1_555 1_555
C79_2 H53_2 1_555 1_555
C80_2 C79_2 1_555 1_555
H54_2 C80_2 1_555 1_555
C81_2 C80_2 1_555 1_555
C82_2 C81_2 1_555 1_555
H55_2 C82_2 1_555 1_555
C83_2 C78_2 1_555 1_555
H56_2 C83_2 1_555 1_555
C84_2 C81_2 1_555 1_555
C85_2 C84_2 1_555 1_555
H57_2 C85_2 1_555 1_555
C86_2 C85_2 1_555 1_555
H58_2 C86_2 1_555 1_555
C87_2 C86_2 1_555 1_555
H59_2 C87_2 1_555 1_555
C88_2 C87_2 1_555 1_555
C89_2 C84_2 1_555 1_555
H60_2 C89_2 1_555 1_555
C90_2 C88_2 1_555 1_555
C91_2 C90_2 1_555 1_555
H61_2 C91_2 1_555 1_555
C92_2 C91_2 1_555 1_555
H62_2 C92_2 1_555 1_555
C93_2 H63_2 1_555 1_555
C94_2 C90_2 1_555 1_555
H64_2 C94_2 1_555 1_555
C95_2 C92_2 1_555 1_555
C96_2 C95_2 1_555 1_555
O10 C96_2 1_555 1_555
O12 C96_2 1_555 1_555
C82_2 C83_2 1_555 1_555
C88_2 C89_2 1_555 1_555
C93_2 C94_2 1_555 1_555
C93_2 C95_2 1_555 1_555
C61 H41 1_555 1_555
C62 C61 1_555 1_555
H42 C62 1_555 1_555
C23 C24 1_555 1_555
C24 H17 1_555 1_555
C25 C24 1_555 1_555
C26 C25 1_555 1_555
C27 C26 1_555 1_555
C28 C23 1_555 1_555
H20 C28 1_555 1_555
C12 N1 1_555 1_555
C23 N1 1_555 1_555
C27 C28 1_555 1_555
C71 C72 1_555 1_555
C72 H49 1_555 1_555
C73 C72 1_555 1_555
C75 C74 1_555 1_555
C76 C71 1_555 1_555
H52 C76 1_555 1_555
C60 N4 1_555 1_555
C71 N4 1_555 1_555
C73 C74 1_555 1_555
C75 C76 1_555 1_555
C13 H9 1_555 1_555
C14 C13 1_555 1_555
H10 C14 1_555 1_555
O1 C29 1_555 1_555
O9 Zn1 1_555 1_555
O11 Zn1 1_555 1_555
O1 Zn1 1_555 1_555
C30 C31 1_555 1_555
C31 H21 1_555 1_555
C32 C31 1_555 1_555
H22 C32 1_555 1_555
C33 C32 1_555 1_555
C34 C33 1_555 1_555
H23 C34 1_555 1_555
C35 C30 1_555 1_555
H24 C35 1_555 1_555
C36 C33 1_555 1_555
C37 C36 1_555 1_555
H25 C37 1_555 1_555
C38 C37 1_555 1_555
H26 C38 1_555 1_555
C39 C38 1_555 1_555
H27 C39 1_555 1_555
C40 C39 1_555 1_555
C41 C36 1_555 1_555
H28 C41 1_555 1_555
C42 C40 1_555 1_555
C43 C42 1_555 1_555
H29 C43 1_555 1_555
C44 C43 1_555 1_555
H30 C44 1_555 1_555
C45 H31 1_555 1_555
C46 C42 1_555 1_555
H32 C46 1_555 1_555
C47 C44 1_555 1_555
C48 C47 1_555 1_555
O9 C48 1_555 1_555
O11 C48 1_555 1_555
C34 C35 1_555 1_555
C40 C41 1_555 1_555
C45 C46 1_555 1_555
C45 C47 1_555 1_555
C1 H1 1_555 1_555
C2 C1 1_555 1_555
H2 C2 1_555 1_555
C3 C2 1_555 1_555
C4 C3 1_555 1_555
H3 C4 1_555 1_555
C5 C4 1_555 1_555
H4 C5 1_555 1_555
C6 C3 1_555 1_555
C7 C6 1_555 1_555
H5 C7 1_555 1_555
C8 C7 1_555 1_555
H6 C8 1_555 1_555
C9 C8 1_555 1_555
C10 C9 1_555 1_555
C11 C6 1_555 1_555
H8 C11 1_555 1_555
H11 C16 1_555 1_555
H12 C17 1_555 1_555
H16 C22 1_555 1_555
N2 C1 1_555 1_555
C5 N2 1_555 1_555
C10 C11 1_555 1_555
C16 C17 1_555 1_555
C18 C15 1_555 1_555
C19 C18 1_555 1_555
H13 C19 1_555 1_555
C20 C19 1_555 1_555
H14 C20 1_555 1_555
N3 C20 1_555 1_555
Zn4 N3 1_555 1_555
C21 N3 1_555 1_555
H29_2 C43_2 1_555 1_555
C44_2 C43_2 1_555 1_555
H30_2 C44_2 1_555 1_555
C47_2 C44_2 1_555 1_555
C48_2 C47_2 1_555 1_555
O3 C48_2 1_555 1_555
O4 C48_2 1_555 1_555
Zn4 O3 1_555 1_555
O4 Zn4 1_555 1_555
C1_2 H1_2 1_555 1_555
C2_2 C1_2 1_555 1_555
H2_2 C2_2 1_555 1_555
C3_2 C2_2 1_555 1_555
C4_2 C3_2 1_555 1_555
H3_2 C4_2 1_555 1_555
C5_2 C4_2 1_555 1_555
H4_2 C5_2 1_555 1_555
C6_2 C3_2 1_555 1_555
C7_2 C6_2 1_555 1_555
H5_2 C7_2 1_555 1_555
C8_2 C7_2 1_555 1_555
H6_2 C8_2 1_555 1_555
C9_2 C8_2 1_555 1_555
C10_2 C9_2 1_555 1_555
C11_2 C6_2 1_555 1_555
H8_2 C11_2 1_555 1_555
C16_2 C15_2 1_555 1_555
H11_2 C16_2 1_555 1_555
H12_2 C17_2 1_555 1_555
C18_2 C15_2 1_555 1_555
C19_2 C18_2 1_555 1_555
H13_2 C19_2 1_555 1_555
C20_2 C19_2 1_555 1_555
H14_2 C20_2 1_555 1_555
C21_2 H15_2 1_555 1_555
C22_2 C18_2 1_555 1_555
H16_2 C22_2 1_555 1_555
N2_2 C1_2 1_555 1_555
N7 C20_2 1_555 1_555
O1_2 C29_2 1_555 1_555
Zn4 N2_2 1_555 1_555
C5_2 N2_2 1_555 1_555
C10_2 C11_2 1_555 1_555
C16_2 C17_2 1_555 1_555
C21_2 C22_2 1_555 1_555
C21_2 N7 1_555 1_555
O1_2 Zn4 1_555 1_555
C30_2 C31_2 1_555 1_555
C31_2 H21_2 1_555 1_555
C32_2 C31_2 1_555 1_555
H22_2 C32_2 1_555 1_555
C33_2 C32_2 1_555 1_555
C34_2 C33_2 1_555 1_555
H23_2 C34_2 1_555 1_555
C35_2 C30_2 1_555 1_555
H24_2 C35_2 1_555 1_555
C36_2 C33_2 1_555 1_555
C37_2 C36_2 1_555 1_555
H25_2 C37_2 1_555 1_555
C38_2 C37_2 1_555 1_555
H26_2 C38_2 1_555 1_555
C39_2 C38_2 1_555 1_555
H27_2 C39_2 1_555 1_555
C40_2 C39_2 1_555 1_555
C41_2 C36_2 1_555 1_555
H28_2 C41_2 1_555 1_555
C42_2 C40_2 1_555 1_555
C45_2 H31_2 1_555 1_555
C46_2 C42_2 1_555 1_555
H32_2 C46_2 1_555 1_555
C34_2 C35_2 1_555 1_555
C40_2 C41_2 1_555 1_555
C45_2 C46_2 1_555 1_555
C12_2 C13_2 1_555 1_555
C13_2 H9_2 1_555 1_555
C14_2 C13_2 1_555 1_555
H10_2 C14_2 1_555 1_555
C23_2 C24_2 1_555 1_555
C24_2 H17_2 1_555 1_555
C25_2 C24_2 1_555 1_555
H18_2 C25_2 1_555 1_555
C26_2 C25_2 1_555 1_555
C27_2 C26_2 1_555 1_555
H19_2 C27_2 1_555 1_555
C28_2 C23_2 1_555 1_555
H20_2 C28_2 1_555 1_555
C60_2 C61_2 1_555 1_555
C61_2 H41_2 1_555 1_555
C62_2 C61_2 1_555 1_555
H42_2 C62_2 1_555 1_555
C71_2 C72_2 1_555 1_555
C72_2 H49_2 1_555 1_555
C73_2 C72_2 1_555 1_555
H50_2 C73_2 1_555 1_555
C74_2 C26_2 1_555 1_555
C75_2 C74_2 1_555 1_555
H51_2 C75_2 1_555 1_555
C76_2 C71_2 1_555 1_555
H52_2 C76_2 1_555 1_555
C12_2 N1_2 1_555 1_555
C23_2 N1_2 1_555 1_555
C27_2 C28_2 1_555 1_555
C60_2 N4_2 1_555 1_555
C71_2 N4_2 1_555 1_555
C73_2 C74_2 1_555 1_555
C75_2 C76_2 1_555 1_555

#END
