
###############################################################################
#
# This file contains modified crystal structure data generated from the
# MOF subset of the Cambridge Structural Database (CSD) v543 
# hosted by the Cambridge Crystallographic Data Centre (CCDC).
#
# This work is licensed under the Creative Commons
# Attribution-NonCommercial-ShareAlike 4.0 International License.
# To view a copy of this license, visit
# http://creativecommons.org/licenses/by-nc-sa/4.0/
# or send a letter to
# Creative Commons, PO Box 1866, Mountain View, CA 94042, USA.
#
# CIF created using the CSD Python API on 29 September 2022
# The structure has been converted into the P1 space group
# The structure has a 3D framework
# The original CSD entry OMIPEH is in the cubic crystal system
# The framework has been calculated to contain at least 10.0% void space
# The void calculation uses a probe of radius 1.32A, grid spacing 0.4
# The framework is charged, counterions have been retained in the structure
# H atom positions have been added when not included in the experimental data
# Generated hydrogen atom positions removed from atoms on special positions
#
###############################################################################

data_OMIPEH
_chemical_formula_moiety         '(C864 H2112 Cu240 N384 O633 60+)n'
_symmetry_cell_setting           triclinic
_symmetry_space_group_name_H-M   'P 1'
_symmetry_Int_Tables_number      1
_space_group_name_Hall           'P 1'
loop_
_symmetry_equiv_pos_site_id
_symmetry_equiv_pos_as_xyz
1 x,y,z
_cell_length_a                   44.4742(7)
_cell_length_b                   44.4742(7)
_cell_length_c                   44.4742(7)
_cell_angle_alpha                90
_cell_angle_beta                 90
_cell_angle_gamma                90
_cell_volume                     87967.9
loop_
_atom_site_label
_atom_site_type_symbol
_atom_site_fract_x
_atom_site_fract_y
_atom_site_fract_z
Cu1 Cu 0.168668(17) 0.168668(17) 0.000
Cu2 Cu 0.126563(18) 0.126563(18) 0.000
Cu3 Cu 0.32504(5) 0.17496(5) 0.12195(6)
O1 O 0.0928(3) 0.0928(3) 0.000
O2 O 0.20274(16) 0.20274(16) 0.000
O3 O 0.15180(9) 0.10747(9) 0.03080(9)
O4 O 0.18716(10) 0.14352(10) 0.03059(10)
O5 O 0.3393(2) 0.1607(2) 0.1607(2)
O6 O 0.3042(3) 0.1958(3) 0.0891(5)
N1 N 0.27094(17) 0.13891(19) 0.10352(18)
N2 N 0.29256(17) 0.14567(16) 0.12575(16)
C1 C 0.2560(3) 0.11874(18) 0.11874(18)
C2 C 0.2281(2) 0.10390(17) 0.10390(17)
C3 C 0.21645(15) 0.11625(16) 0.07728(16)
H1 H 0.22654(15) 0.13161(16) 0.06731(16)
C4 C 0.19021(13) 0.10528(12) 0.06648(12)
C5 C 0.17745(18) 0.08043(13) 0.08043(13)
H2 H 0.15955(18) 0.07278(13) 0.07278(13)
C6 C 0.17482(14) 0.12091(13) 0.04004(14)
O7 O 0.15180(9) 0.03080(9) 0.10747(9)
O8 O 0.18716(10) 0.03059(10) 0.14352(10)
N3 N 0.27094(17) 0.10352(18) 0.13891(19)
N4 N 0.29256(17) 0.12575(16) 0.14567(16)
C7 C 0.21645(15) 0.07728(16) 0.11625(16)
H3 H 0.22654(15) 0.06731(16) 0.13161(16)
C8 C 0.19021(13) 0.06648(12) 0.10528(12)
C9 C 0.17482(14) 0.04004(14) 0.12091(13)
Cu4 Cu 0.168668(17) 0.000 0.168668(17)
Cu5 Cu 0.126563(18) -0.000 0.126563(18)
O9 O 0.0928(3) -0.000 0.0928(3)
O10 O 0.20274(16) -0.000 0.20274(16)
Cu10 Cu 0.12195(6) 0.32504(5) 0.17496(5)
O24 O 0.03080(9) 0.15180(9) 0.10747(9)
O25 O 0.03059(10) 0.18716(10) 0.14352(10)
O26 O 0.0891(5) 0.3042(3) 0.1958(3)
N13 N 0.10352(18) 0.27094(17) 0.13891(19)
N14 N 0.12575(16) 0.29256(17) 0.14567(16)
C28 C 0.11874(18) 0.2560(3) 0.11874(18)
C29 C 0.10390(17) 0.2281(2) 0.10390(17)
C30 C 0.07728(16) 0.21645(15) 0.11625(16)
H10 H 0.06731(16) 0.22654(15) 0.13161(16)
C31 C 0.06648(12) 0.19021(13) 0.10528(12)
C32 C 0.08043(13) 0.17745(18) 0.08043(13)
H11 H 0.07278(13) 0.15955(18) 0.07278(13)
C33 C 0.04004(14) 0.17482(14) 0.12091(13)
O27 O 0.10747(9) 0.15180(9) 0.03080(9)
O28 O 0.14352(10) 0.18716(10) 0.03059(10)
N15 N 0.13891(19) 0.27094(17) 0.10352(18)
N16 N 0.14567(16) 0.29256(17) 0.12575(16)
C34 C 0.11625(16) 0.21645(15) 0.07728(16)
H12 H 0.13161(16) 0.22654(15) 0.06731(16)
C35 C 0.10528(12) 0.19021(13) 0.06648(12)
C36 C 0.12091(13) 0.17482(14) 0.04004(14)
Cu11 Cu 0.17496(5) 0.12195(6) 0.32504(5)
O29 O 0.10747(9) 0.03080(9) 0.15180(9)
O30 O 0.14352(10) 0.03059(10) 0.18716(10)
O31 O 0.1958(3) 0.0891(5) 0.3042(3)
N17 N 0.13891(19) 0.10352(18) 0.27094(17)
N18 N 0.14567(16) 0.12575(16) 0.29256(17)
C37 C 0.11874(18) 0.11874(18) 0.2560(3)
C38 C 0.10390(17) 0.10390(17) 0.2281(2)
C39 C 0.11625(16) 0.07728(16) 0.21645(15)
H13 H 0.13161(16) 0.06731(16) 0.22654(15)
C40 C 0.10528(12) 0.06648(12) 0.19021(13)
C41 C 0.08043(13) 0.08043(13) 0.17745(18)
H14 H 0.07278(13) 0.07278(13) 0.15955(18)
C42 C 0.12091(13) 0.04004(14) 0.17482(14)
O32 O 0.03080(9) 0.10747(9) 0.15180(9)
O33 O 0.03059(10) 0.14352(10) 0.18716(10)
N19 N 0.10352(18) 0.13891(19) 0.27094(17)
N20 N 0.12575(16) 0.14567(16) 0.29256(17)
C43 C 0.07728(16) 0.11625(16) 0.21645(15)
H15 H 0.06731(16) 0.13161(16) 0.22654(15)
C44 C 0.06648(12) 0.10528(12) 0.19021(13)
C45 C 0.04004(14) 0.12091(13) 0.17482(14)
Cu14 Cu -0.000 0.168668(17) 0.168668(17)
Cu17 Cu -0.000 0.126563(18) 0.126563(18)
Cu22 Cu 0.17496(5) 0.32504(5) 0.12195(6)
Cu23 Cu 0.12195(6) 0.17496(5) 0.32504(5)
Cu24 Cu 0.32504(5) 0.12195(6) 0.17496(5)
Cu26 Cu 0.37805(6) 0.17496(5) 0.17496(5)
O48 O 0.1607(2) 0.3393(2) 0.1607(2)
O49 O 0.1607(2) 0.1607(2) 0.3393(2)
N25 N 0.12575(16) 0.35433(16) 0.20744(17)
N26 N 0.20744(17) 0.12575(16) 0.35433(16)
N30 N 0.35433(16) 0.20744(17) 0.12575(16)
Cu1_2 Cu 0.168668(17) 0.168668(17) 1.000
Cu2_2 Cu 0.126563(18) 0.126563(18) 1.000
O1_2 O 0.0928(3) 0.0928(3) 1.000
O2_2 O 0.20274(16) 0.20274(16) 1.000
Cu7 Cu 0.168668(17) -0.000 0.831332(17)
Cu8 Cu 0.126563(18) -0.000 0.873437(18)
Cu9 Cu 0.32504(5) 0.12195(6) 0.82504(5)
O17 O 0.0928(3) 0.000 0.9072(3)
O18 O 0.20274(16) -0.000 0.79726(16)
O19 O 0.15180(9) 0.03080(9) 0.89253(9)
O20 O 0.18716(10) 0.03059(10) 0.85648(10)
O21 O 0.3042(3) 0.0891(5) 0.8042(3)
N9 N 0.27094(17) 0.10352(18) 0.86109(19)
N10 N 0.29256(17) 0.12575(16) 0.85433(16)
C19 C 0.2560(3) 0.11874(18) 0.88126(18)
C20 C 0.2281(2) 0.10390(17) 0.89610(17)
C21 C 0.21645(15) 0.07728(16) 0.88375(16)
H7 H 0.22654(15) 0.06731(16) 0.86839(16)
C22 C 0.19021(13) 0.06648(12) 0.89472(12)
C23 C 0.17745(18) 0.08043(13) 0.91957(13)
H8 H 0.15955(18) 0.07278(13) 0.92722(13)
C24 C 0.17482(14) 0.04004(14) 0.87909(13)
O22 O 0.15180(9) 0.10747(9) 0.96920(9)
O23 O 0.18716(10) 0.14352(10) 0.96941(10)
N11 N 0.27094(17) 0.13891(19) 0.89648(18)
N12 N 0.29256(17) 0.14567(16) 0.87425(16)
C25 C 0.21645(15) 0.11625(16) 0.92272(16)
H9 H 0.22654(15) 0.13161(16) 0.93269(16)
C26 C 0.19021(13) 0.10528(12) 0.93352(12)
C27 C 0.17482(14) 0.12091(13) 0.95996(14)
Cu12 Cu 0.17496(5) 0.32504(5) 0.87805(6)
O34 O 0.10747(9) 0.15180(9) 0.96920(9)
O35 O 0.14352(10) 0.18716(10) 0.96941(10)
O36 O 0.1958(3) 0.3042(3) 0.9109(5)
N21 N 0.13891(19) 0.27094(17) 0.89648(18)
N22 N 0.14567(16) 0.29256(17) 0.87425(16)
C46 C 0.11874(18) 0.2560(3) 0.88126(18)
C47 C 0.10390(17) 0.2281(2) 0.89610(17)
C48 C 0.11625(16) 0.21645(15) 0.92272(16)
H16 H 0.13161(16) 0.22654(15) 0.93269(16)
C49 C 0.10528(12) 0.19021(13) 0.93352(12)
C50 C 0.08043(13) 0.17745(18) 0.91957(13)
H17 H 0.07278(13) 0.15955(18) 0.92722(13)
C51 C 0.12091(13) 0.17482(14) 0.95996(14)
O37 O 0.03080(9) 0.15180(9) 0.89253(9)
O38 O 0.03059(10) 0.18716(10) 0.85648(10)
N23 N 0.10352(18) 0.27094(17) 0.86109(19)
N24 N 0.12575(16) 0.29256(17) 0.85433(16)
C52 C 0.07728(16) 0.21645(15) 0.88375(16)
H18 H 0.06731(16) 0.22654(15) 0.86839(16)
C53 C 0.06648(12) 0.19021(13) 0.89472(12)
C54 C 0.04004(14) 0.17482(14) 0.87909(13)
Cu13 Cu -0.000 0.168668(17) 0.831332(17)
Cu16 Cu -0.000 0.126563(18) 0.873437(18)
Cu19 Cu 0.12195(6) 0.32504(5) 0.82504(5)
Cu21 Cu 0.32504(5) 0.17496(5) 0.87805(6)
O40 O 0.10747(9) 0.03080(9) 0.84820(9)
O44 O 0.14352(10) 0.03059(10) 0.81284(10)
O47 O 0.3393(2) 0.1607(2) 0.8393(2)
O50 O 0.1607(2) 0.3393(2) 0.8393(2)
N28 N 0.35433(16) 0.12575(16) 0.79256(17)
N29 N 0.20744(17) 0.35433(16) 0.87425(16)
Cu4_2 Cu 0.168668(17) 1.000 0.168668(17)
Cu5_2 Cu 0.126563(18) 1.000 0.126563(18)
Cu6 Cu 0.32504(5) 0.87805(6) 0.17496(5)
O9_2 O 0.0928(3) 1.000 0.0928(3)
O10_2 O 0.20274(16) 1.000 0.20274(16)
O11 O 0.15180(9) 0.96920(9) 0.10747(9)
O12 O 0.18716(10) 0.96941(10) 0.14352(10)
O13 O 0.3393(2) 0.8393(2) 0.1607(2)
O14 O 0.3042(3) 0.9109(5) 0.1958(3)
N5 N 0.27094(17) 0.89648(18) 0.13891(19)
N6 N 0.29256(17) 0.87425(16) 0.14567(16)
C10 C 0.2560(3) 0.88126(18) 0.11874(18)
C11 C 0.2281(2) 0.89610(17) 0.10390(17)
C12 C 0.21645(15) 0.92272(16) 0.11625(16)
H4 H 0.22654(15) 0.93269(16) 0.13161(16)
C13 C 0.19021(13) 0.93352(12) 0.10528(12)
C14 C 0.17745(18) 0.91957(13) 0.08043(13)
H5 H 0.15955(18) 0.92722(13) 0.07278(13)
C15 C 0.17482(14) 0.95996(14) 0.12091(13)
O15 O 0.15180(9) 0.89253(9) 0.03080(9)
O16 O 0.18716(10) 0.85648(10) 0.03059(10)
N7 N 0.27094(17) 0.86109(19) 0.10352(18)
N8 N 0.29256(17) 0.85433(16) 0.12575(16)
C16 C 0.21645(15) 0.88375(16) 0.07728(16)
H6 H 0.22654(15) 0.86839(16) 0.06731(16)
C17 C 0.19021(13) 0.89472(12) 0.06648(12)
C18 C 0.17482(14) 0.87909(13) 0.04004(14)
Cu15 Cu 0.168668(17) 0.831332(17) 0.000
Cu18 Cu 0.126563(18) 0.873437(18) 0.000
Cu20 Cu 0.32504(5) 0.82504(5) 0.12195(6)
Cu25 Cu 0.37805(6) 0.82504(5) 0.17496(5)
O41 O 0.10747(9) 0.96920(9) 0.15180(9)
O45 O 0.14352(10) 0.96941(10) 0.18716(10)
N27 N 0.35433(16) 0.87425(16) 0.20744(17)
Cu7_2 Cu 0.168668(17) 1.000 0.831332(17)
Cu8_2 Cu 0.126563(18) 1.000 0.873437(18)
O17_2 O 0.0928(3) 1.000 0.9072(3)
O18_2 O 0.20274(16) 1.000 0.79726(16)
Cu15_2 Cu 0.168668(17) 0.831332(17) 1.000
Cu18_2 Cu 0.126563(18) 0.873437(18) 1.000
O39 O 0.10747(9) 0.96920(9) 0.84820(9)
O42 O 0.15180(9) 0.96920(9) 0.89253(9)
O43 O 0.14352(10) 0.96941(10) 0.81284(10)
O46 O 0.18716(10) 0.96941(10) 0.85648(10)
Cu14_2 Cu 1.000 0.168668(17) 0.168668(17)
Cu17_2 Cu 1.000 0.126563(18) 0.126563(18)
Cu13_2 Cu 1.000 0.168668(17) 0.831332(17)
Cu16_2 Cu 1.000 0.126563(18) 0.873437(18)
O9_3 O 0.0928(3) 0.9072(3) -0.000
O10_3 O 0.20274(16) 0.79726(16) -0.000
Cu10_2 Cu 0.12195(6) 0.82504(5) 0.32504(5)
O24_2 O 0.03080(9) 0.89253(9) 0.15180(9)
O25_2 O 0.03059(10) 0.85648(10) 0.18716(10)
O26_2 O 0.0891(5) 0.8042(3) 0.3042(3)
N13_2 N 0.10352(18) 0.86109(19) 0.27094(17)
N14_2 N 0.12575(16) 0.85433(16) 0.29256(17)
C28_2 C 0.11874(18) 0.88126(18) 0.2560(3)
C29_2 C 0.10390(17) 0.89610(17) 0.2281(2)
C30_2 C 0.07728(16) 0.88375(16) 0.21645(15)
H10_2 H 0.06731(16) 0.86839(16) 0.22654(15)
C31_2 C 0.06648(12) 0.89472(12) 0.19021(13)
C32_2 C 0.08043(13) 0.91957(13) 0.17745(18)
H11_2 H 0.07278(13) 0.92722(13) 0.15955(18)
C33_2 C 0.04004(14) 0.87909(13) 0.17482(14)
N15_2 N 0.13891(19) 0.89648(18) 0.27094(17)
N16_2 N 0.14567(16) 0.87425(16) 0.29256(17)
C34_2 C 0.11625(16) 0.92272(16) 0.21645(15)
H12_2 H 0.13161(16) 0.93269(16) 0.22654(15)
C35_2 C 0.10528(12) 0.93352(12) 0.19021(13)
C36_2 C 0.12091(13) 0.95996(14) 0.17482(14)
Cu11_2 Cu 0.17496(5) 0.67496(5) 0.12195(6)
O29_2 O 0.10747(9) 0.84820(9) 0.03080(9)
O30_2 O 0.14352(10) 0.81284(10) 0.03059(10)
O31_2 O 0.1958(3) 0.6958(3) 0.0891(5)
N17_2 N 0.13891(19) 0.72906(17) 0.10352(18)
N18_2 N 0.14567(16) 0.70744(17) 0.12575(16)
C37_2 C 0.11874(18) 0.7440(3) 0.11874(18)
C38_2 C 0.10390(17) 0.7719(2) 0.10390(17)
C39_2 C 0.11625(16) 0.78355(15) 0.07728(16)
H13_2 H 0.13161(16) 0.77346(15) 0.06731(16)
C40_2 C 0.10528(12) 0.80979(13) 0.06648(12)
C41_2 C 0.08043(13) 0.82255(18) 0.08043(13)
H14_2 H 0.07278(13) 0.84045(18) 0.07278(13)
C42_2 C 0.12091(13) 0.82518(14) 0.04004(14)
O32_2 O 0.03080(9) 0.84820(9) 0.10747(9)
O33_2 O 0.03059(10) 0.81284(10) 0.14352(10)
N19_2 N 0.10352(18) 0.72906(17) 0.13891(19)
N20_2 N 0.12575(16) 0.70744(17) 0.14567(16)
C43_2 C 0.07728(16) 0.78355(15) 0.11625(16)
H15_2 H 0.06731(16) 0.77346(15) 0.13161(16)
C44_2 C 0.06648(12) 0.80979(13) 0.10528(12)
C45_2 C 0.04004(14) 0.82518(14) 0.12091(13)
Cu14_3 Cu -0.000 0.831332(17) 0.168668(17)
Cu17_3 Cu -0.000 0.873437(18) 0.126563(18)
Cu22_2 Cu 0.17496(5) 0.87805(6) 0.32504(5)
Cu23_2 Cu 0.12195(6) 0.67496(5) 0.17496(5)
O48_2 O 0.1607(2) 0.8393(2) 0.3393(2)
O49_2 O 0.1607(2) 0.6607(2) 0.1607(2)
N25_2 N 0.12575(16) 0.79256(17) 0.35433(16)
N26_2 N 0.20744(17) 0.64567(16) 0.12575(16)
Cu6_2 Cu 0.32504(5) 0.82504(5) 0.87805(6)
O9_4 O 0.0928(3) 0.9072(3) 1.000
O10_4 O 0.20274(16) 0.79726(16) 1.000
O11_2 O 0.15180(9) 0.89253(9) 0.96920(9)
O12_2 O 0.18716(10) 0.85648(10) 0.96941(10)
O13_2 O 0.3393(2) 0.8393(2) 0.8393(2)
O14_2 O 0.3042(3) 0.8042(3) 0.9109(5)
N5_2 N 0.27094(17) 0.86109(19) 0.89648(18)
N6_2 N 0.29256(17) 0.85433(16) 0.87425(16)
C10_2 C 0.2560(3) 0.88126(18) 0.88126(18)
C11_2 C 0.2281(2) 0.89610(17) 0.89610(17)
C12_2 C 0.21645(15) 0.88375(16) 0.92272(16)
H4_2 H 0.22654(15) 0.86839(16) 0.93269(16)
C13_2 C 0.19021(13) 0.89472(12) 0.93352(12)
C14_2 C 0.17745(18) 0.91957(13) 0.91957(13)
H5_2 H 0.15955(18) 0.92722(13) 0.92722(13)
C15_2 C 0.17482(14) 0.87909(13) 0.95996(14)
N7_2 N 0.27094(17) 0.89648(18) 0.86109(19)
N8_2 N 0.29256(17) 0.87425(16) 0.85433(16)
C16_2 C 0.21645(15) 0.92272(16) 0.88375(16)
H6_2 H 0.22654(15) 0.93269(16) 0.86839(16)
C17_2 C 0.19021(13) 0.93352(12) 0.89472(12)
C18_2 C 0.17482(14) 0.95996(14) 0.87909(13)
Cu20_2 Cu 0.32504(5) 0.87805(6) 0.82504(5)
Cu25_2 Cu 0.37805(6) 0.82504(5) 0.82504(5)
O41_2 O 0.10747(9) 0.84820(9) 0.96920(9)
O45_2 O 0.14352(10) 0.81284(10) 0.96941(10)
N27_2 N 0.35433(16) 0.79256(17) 0.87425(16)
Cu14_4 Cu 1.000 0.831332(17) 0.168668(17)
Cu17_4 Cu 1.000 0.873437(18) 0.126563(18)
Cu10_3 Cu 0.12195(6) 0.17496(5) 0.67496(5)
O24_3 O 0.03080(9) 0.10747(9) 0.84820(9)
O25_3 O 0.03059(10) 0.14352(10) 0.81284(10)
O26_3 O 0.0891(5) 0.1958(3) 0.6958(3)
N13_3 N 0.10352(18) 0.13891(19) 0.72906(17)
N14_3 N 0.12575(16) 0.14567(16) 0.70744(17)
C28_3 C 0.11874(18) 0.11874(18) 0.7440(3)
C29_3 C 0.10390(17) 0.10390(17) 0.7719(2)
C30_3 C 0.07728(16) 0.11625(16) 0.78355(15)
H10_3 H 0.06731(16) 0.13161(16) 0.77346(15)
C31_3 C 0.06648(12) 0.10528(12) 0.80979(13)
C32_3 C 0.08043(13) 0.08043(13) 0.82255(18)
H11_3 H 0.07278(13) 0.07278(13) 0.84045(18)
C33_3 C 0.04004(14) 0.12091(13) 0.82518(14)
N15_3 N 0.13891(19) 0.10352(18) 0.72906(17)
N16_3 N 0.14567(16) 0.12575(16) 0.70744(17)
C34_3 C 0.11625(16) 0.07728(16) 0.78355(15)
H12_3 H 0.13161(16) 0.06731(16) 0.77346(15)
C35_3 C 0.10528(12) 0.06648(12) 0.80979(13)
C36_3 C 0.12091(13) 0.04004(14) 0.82518(14)
Cu22_3 Cu 0.17496(5) 0.12195(6) 0.67496(5)
Cu26_2 Cu 0.37805(6) 0.17496(5) 0.82504(5)
O48_3 O 0.1607(2) 0.1607(2) 0.6607(2)
N25_3 N 0.12575(16) 0.20744(17) 0.64567(16)
Cu12_2 Cu 0.17496(5) 0.87805(6) 0.67496(5)
O36_2 O 0.1958(3) 0.9109(5) 0.6958(3)
N21_2 N 0.13891(19) 0.89648(18) 0.72906(17)
N22_2 N 0.14567(16) 0.87425(16) 0.70744(17)
C46_2 C 0.11874(18) 0.88126(18) 0.7440(3)
C47_2 C 0.10390(17) 0.89610(17) 0.7719(2)
C48_2 C 0.11625(16) 0.92272(16) 0.78355(15)
H16_2 H 0.13161(16) 0.93269(16) 0.77346(15)
C49_2 C 0.10528(12) 0.93352(12) 0.80979(13)
C50_2 C 0.08043(13) 0.91957(13) 0.82255(18)
H17_2 H 0.07278(13) 0.92722(13) 0.84045(18)
C51_2 C 0.12091(13) 0.95996(14) 0.82518(14)
O37_2 O 0.03080(9) 0.89253(9) 0.84820(9)
O38_2 O 0.03059(10) 0.85648(10) 0.81284(10)
N23_2 N 0.10352(18) 0.86109(19) 0.72906(17)
N24_2 N 0.12575(16) 0.85433(16) 0.70744(17)
C52_2 C 0.07728(16) 0.88375(16) 0.78355(15)
H18_2 H 0.06731(16) 0.86839(16) 0.77346(15)
C53_2 C 0.06648(12) 0.89472(12) 0.80979(13)
C54_2 C 0.04004(14) 0.87909(13) 0.82518(14)
Cu13_3 Cu -0.000 0.831332(17) 0.831332(17)
Cu16_3 Cu -0.000 0.873437(18) 0.873437(18)
Cu19_2 Cu 0.12195(6) 0.82504(5) 0.67496(5)
O50_2 O 0.1607(2) 0.8393(2) 0.6607(2)
N29_2 N 0.20744(17) 0.87425(16) 0.64567(16)
Cu13_4 Cu 1.000 0.831332(17) 0.831332(17)
Cu16_4 Cu 1.000 0.873437(18) 0.873437(18)
O1_3 O 0.000 0.0928(3) 0.9072(3)
O2_3 O 0.000 0.20274(16) 0.79726(16)
Cu26_3 Cu 0.17496(5) 0.17496(5) 0.62195(6)
Cu25_3 Cu 0.17496(5) 0.82504(5) 0.62195(6)
Cu13_5 Cu 0.831332(17) 0.168668(17) -0.000
Cu16_5 Cu 0.873437(18) 0.126563(18) 0.000
O1_4 O 1.000 0.0928(3) 0.9072(3)
O2_4 O 1.000 0.20274(16) 0.79726(16)
Cu7_3 Cu 0.831332(17) -0.000 0.831332(17)
Cu8_3 Cu 0.873437(18) -0.000 0.873437(18)
Cu9_2 Cu 0.82504(5) 0.12195(6) 0.67496(5)
O17_3 O 0.9072(3) 0.000 0.9072(3)
O18_3 O 0.79726(16) -0.000 0.79726(16)
O19_2 O 0.89253(9) 0.03080(9) 0.84820(9)
O20_2 O 0.85648(10) 0.03059(10) 0.81284(10)
O21_2 O 0.8042(3) 0.0891(5) 0.6958(3)
N9_2 N 0.86109(19) 0.10352(18) 0.72906(17)
N10_2 N 0.85433(16) 0.12575(16) 0.70744(17)
C19_2 C 0.88126(18) 0.11874(18) 0.7440(3)
C20_2 C 0.89610(17) 0.10390(17) 0.7719(2)
C21_2 C 0.88375(16) 0.07728(16) 0.78355(15)
H7_2 H 0.86839(16) 0.06731(16) 0.77346(15)
C22_2 C 0.89472(12) 0.06648(12) 0.80979(13)
C23_2 C 0.91957(13) 0.08043(13) 0.82255(18)
H8_2 H 0.92722(13) 0.07278(13) 0.84045(18)
C24_2 C 0.87909(13) 0.04004(14) 0.82518(14)
O22_2 O 0.96920(9) 0.10747(9) 0.84820(9)
O23_2 O 0.96941(10) 0.14352(10) 0.81284(10)
N11_2 N 0.89648(18) 0.13891(19) 0.72906(17)
N12_2 N 0.87425(16) 0.14567(16) 0.70744(17)
C25_2 C 0.92272(16) 0.11625(16) 0.78355(15)
H9_2 H 0.93269(16) 0.13161(16) 0.77346(15)
C26_2 C 0.93352(12) 0.10528(12) 0.80979(13)
C27_2 C 0.95996(14) 0.12091(13) 0.82518(14)
Cu12_3 Cu 0.87805(6) 0.32504(5) 0.82504(5)
O34_2 O 0.96920(9) 0.15180(9) 0.89253(9)
O35_2 O 0.96941(10) 0.18716(10) 0.85648(10)
O36_3 O 0.9109(5) 0.3042(3) 0.8042(3)
N21_3 N 0.89648(18) 0.27094(17) 0.86109(19)
N22_3 N 0.87425(16) 0.29256(17) 0.85433(16)
C46_3 C 0.88126(18) 0.2560(3) 0.88126(18)
C47_3 C 0.89610(17) 0.2281(2) 0.89610(17)
C48_3 C 0.92272(16) 0.21645(15) 0.88375(16)
H16_3 H 0.93269(16) 0.22654(15) 0.86839(16)
C49_3 C 0.93352(12) 0.19021(13) 0.89472(12)
C50_3 C 0.91957(13) 0.17745(18) 0.91957(13)
H17_3 H 0.92722(13) 0.15955(18) 0.92722(13)
C51_3 C 0.95996(14) 0.17482(14) 0.87909(13)
O37_3 O 0.89253(9) 0.15180(9) 0.96920(9)
O38_3 O 0.85648(10) 0.18716(10) 0.96941(10)
N23_3 N 0.86109(19) 0.27094(17) 0.89648(18)
N24_3 N 0.85433(16) 0.29256(17) 0.87425(16)
C52_3 C 0.88375(16) 0.21645(15) 0.92272(16)
H18_3 H 0.86839(16) 0.22654(15) 0.93269(16)
C53_3 C 0.89472(12) 0.19021(13) 0.93352(12)
C54_3 C 0.87909(13) 0.17482(14) 0.95996(14)
Cu13_6 Cu 0.831332(17) 0.168668(17) 1.000
Cu16_6 Cu 0.873437(18) 0.126563(18) 1.000
Cu19_3 Cu 0.82504(5) 0.32504(5) 0.87805(6)
Cu21_2 Cu 0.87805(6) 0.17496(5) 0.67496(5)
O40_2 O 0.84820(9) 0.03080(9) 0.89253(9)
O44_2 O 0.81284(10) 0.03059(10) 0.85648(10)
O47_2 O 0.8393(2) 0.1607(2) 0.6607(2)
O50_3 O 0.8393(2) 0.3393(2) 0.8393(2)
N28_2 N 0.79256(17) 0.12575(16) 0.64567(16)
N29_3 N 0.87425(16) 0.35433(16) 0.79256(17)
Cu7_4 Cu 0.831332(17) 1.000 0.831332(17)
Cu8_4 Cu 0.873437(18) 1.000 0.873437(18)
O17_4 O 0.9072(3) 1.000 0.9072(3)
O18_4 O 0.79726(16) 1.000 0.79726(16)
O39_2 O 0.84820(9) 0.96920(9) 0.89253(9)
O42_2 O 0.89253(9) 0.96920(9) 0.84820(9)
O43_2 O 0.81284(10) 0.96941(10) 0.85648(10)
O46_2 O 0.85648(10) 0.96941(10) 0.81284(10)
O1_5 O -0.000 0.0928(3) 0.0928(3)
O2_5 O 0.000 0.20274(16) 0.20274(16)
Cu3_2 Cu 0.87805(6) 0.17496(5) 0.32504(5)
O1_6 O 1.000 0.0928(3) 0.0928(3)
O2_6 O 1.000 0.20274(16) 0.20274(16)
O3_2 O 0.96920(9) 0.10747(9) 0.15180(9)
O4_2 O 0.96941(10) 0.14352(10) 0.18716(10)
O5_2 O 0.8393(2) 0.1607(2) 0.3393(2)
O6_2 O 0.9109(5) 0.1958(3) 0.3042(3)
N1_2 N 0.89648(18) 0.13891(19) 0.27094(17)
N2_2 N 0.87425(16) 0.14567(16) 0.29256(17)
C1_2 C 0.88126(18) 0.11874(18) 0.2560(3)
C2_2 C 0.89610(17) 0.10390(17) 0.2281(2)
C3_2 C 0.92272(16) 0.11625(16) 0.21645(15)
H1_2 H 0.93269(16) 0.13161(16) 0.22654(15)
C4_2 C 0.93352(12) 0.10528(12) 0.19021(13)
C5_2 C 0.91957(13) 0.08043(13) 0.17745(18)
H2_2 H 0.92722(13) 0.07278(13) 0.15955(18)
C6_2 C 0.95996(14) 0.12091(13) 0.17482(14)
O7_2 O 0.89253(9) 0.03080(9) 0.15180(9)
O8_2 O 0.85648(10) 0.03059(10) 0.18716(10)
N3_2 N 0.86109(19) 0.10352(18) 0.27094(17)
N4_2 N 0.85433(16) 0.12575(16) 0.29256(17)
C7_2 C 0.88375(16) 0.07728(16) 0.21645(15)
H3_2 H 0.86839(16) 0.06731(16) 0.22654(15)
C8_2 C 0.89472(12) 0.06648(12) 0.19021(13)
C9_2 C 0.87909(13) 0.04004(14) 0.17482(14)
Cu4_3 Cu 0.831332(17) -0.000 0.168668(17)
Cu5_3 Cu 0.873437(18) -0.000 0.126563(18)
O9_5 O 0.9072(3) -0.000 0.0928(3)
O10_5 O 0.79726(16) -0.000 0.20274(16)
Cu10_4 Cu 0.82504(5) 0.32504(5) 0.12195(6)
O24_4 O 0.89253(9) 0.15180(9) 0.03080(9)
O25_4 O 0.85648(10) 0.18716(10) 0.03059(10)
O26_4 O 0.8042(3) 0.3042(3) 0.0891(5)
N13_4 N 0.86109(19) 0.27094(17) 0.10352(18)
N14_4 N 0.85433(16) 0.29256(17) 0.12575(16)
C28_4 C 0.88126(18) 0.2560(3) 0.11874(18)
C29_4 C 0.89610(17) 0.2281(2) 0.10390(17)
C30_4 C 0.88375(16) 0.21645(15) 0.07728(16)
H10_4 H 0.86839(16) 0.22654(15) 0.06731(16)
C31_4 C 0.89472(12) 0.19021(13) 0.06648(12)
C32_4 C 0.91957(13) 0.17745(18) 0.08043(13)
H11_4 H 0.92722(13) 0.15955(18) 0.07278(13)
C33_4 C 0.87909(13) 0.17482(14) 0.04004(14)
O27_2 O 0.96920(9) 0.15180(9) 0.10747(9)
O28_2 O 0.96941(10) 0.18716(10) 0.14352(10)
N15_4 N 0.89648(18) 0.27094(17) 0.13891(19)
N16_4 N 0.87425(16) 0.29256(17) 0.14567(16)
C34_4 C 0.92272(16) 0.21645(15) 0.11625(16)
H12_4 H 0.93269(16) 0.22654(15) 0.13161(16)
C35_4 C 0.93352(12) 0.19021(13) 0.10528(12)
C36_4 C 0.95996(14) 0.17482(14) 0.12091(13)
Cu11_3 Cu 0.67496(5) 0.12195(6) 0.17496(5)
O29_3 O 0.84820(9) 0.03080(9) 0.10747(9)
O30_3 O 0.81284(10) 0.03059(10) 0.14352(10)
O31_3 O 0.6958(3) 0.0891(5) 0.1958(3)
N17_3 N 0.72906(17) 0.10352(18) 0.13891(19)
N18_3 N 0.70744(17) 0.12575(16) 0.14567(16)
C37_3 C 0.7440(3) 0.11874(18) 0.11874(18)
C38_3 C 0.7719(2) 0.10390(17) 0.10390(17)
C39_3 C 0.78355(15) 0.07728(16) 0.11625(16)
H13_3 H 0.77346(15) 0.06731(16) 0.13161(16)
C40_3 C 0.80979(13) 0.06648(12) 0.10528(12)
C41_3 C 0.82255(18) 0.08043(13) 0.08043(13)
H14_3 H 0.84045(18) 0.07278(13) 0.07278(13)
C42_3 C 0.82518(14) 0.04004(14) 0.12091(13)
O32_3 O 0.84820(9) 0.10747(9) 0.03080(9)
O33_3 O 0.81284(10) 0.14352(10) 0.03059(10)
N19_3 N 0.72906(17) 0.13891(19) 0.10352(18)
N20_3 N 0.70744(17) 0.14567(16) 0.12575(16)
C43_3 C 0.78355(15) 0.11625(16) 0.07728(16)
H15_3 H 0.77346(15) 0.13161(16) 0.06731(16)
C44_3 C 0.80979(13) 0.10528(12) 0.06648(12)
C45_3 C 0.82518(14) 0.12091(13) 0.04004(14)
Cu22_4 Cu 0.87805(6) 0.32504(5) 0.17496(5)
Cu23_3 Cu 0.67496(5) 0.17496(5) 0.12195(6)
Cu24_2 Cu 0.82504(5) 0.12195(6) 0.32504(5)
Cu26_4 Cu 0.82504(5) 0.17496(5) 0.37805(6)
O48_4 O 0.8393(2) 0.3393(2) 0.1607(2)
O49_3 O 0.6607(2) 0.1607(2) 0.1607(2)
N25_4 N 0.79256(17) 0.35433(16) 0.12575(16)
N26_3 N 0.64567(16) 0.12575(16) 0.20744(17)
N30_2 N 0.87425(16) 0.20744(17) 0.35433(16)
Cu4_4 Cu 0.831332(17) 1.000 0.168668(17)
Cu5_4 Cu 0.873437(18) 1.000 0.126563(18)
Cu6_3 Cu 0.82504(5) 0.87805(6) 0.32504(5)
O9_6 O 0.9072(3) 1.000 0.0928(3)
O10_6 O 0.79726(16) 1.000 0.20274(16)
O11_3 O 0.89253(9) 0.96920(9) 0.15180(9)
O12_3 O 0.85648(10) 0.96941(10) 0.18716(10)
O13_3 O 0.8393(2) 0.8393(2) 0.3393(2)
O14_3 O 0.8042(3) 0.9109(5) 0.3042(3)
N5_3 N 0.86109(19) 0.89648(18) 0.27094(17)
N6_3 N 0.85433(16) 0.87425(16) 0.29256(17)
C10_3 C 0.88126(18) 0.88126(18) 0.2560(3)
C11_3 C 0.89610(17) 0.89610(17) 0.2281(2)
C12_3 C 0.88375(16) 0.92272(16) 0.21645(15)
H4_3 H 0.86839(16) 0.93269(16) 0.22654(15)
C13_3 C 0.89472(12) 0.93352(12) 0.19021(13)
C14_3 C 0.91957(13) 0.91957(13) 0.17745(18)
H5_3 H 0.92722(13) 0.92722(13) 0.15955(18)
C15_3 C 0.87909(13) 0.95996(14) 0.17482(14)
O15_2 O 0.96920(9) 0.89253(9) 0.15180(9)
O16_2 O 0.96941(10) 0.85648(10) 0.18716(10)
N7_3 N 0.89648(18) 0.86109(19) 0.27094(17)
N8_3 N 0.87425(16) 0.85433(16) 0.29256(17)
C16_3 C 0.92272(16) 0.88375(16) 0.21645(15)
H6_3 H 0.93269(16) 0.86839(16) 0.22654(15)
C17_3 C 0.93352(12) 0.89472(12) 0.19021(13)
C18_3 C 0.95996(14) 0.87909(13) 0.17482(14)
Cu20_3 Cu 0.87805(6) 0.82504(5) 0.32504(5)
Cu25_4 Cu 0.82504(5) 0.82504(5) 0.37805(6)
O41_3 O 0.84820(9) 0.96920(9) 0.10747(9)
O45_3 O 0.81284(10) 0.96941(10) 0.14352(10)
N27_3 N 0.79256(17) 0.87425(16) 0.35433(16)
Cu25_5 Cu 0.17496(5) 0.37805(6) 0.17496(5)
O1_7 O 0.9072(3) 0.0928(3) 0.000
O2_7 O 0.79726(16) 0.20274(16) 0.000
Cu26_5 Cu 0.82504(5) 0.37805(6) 0.17496(5)
O1_8 O 0.9072(3) 0.0928(3) 1.000
O2_8 O 0.79726(16) 0.20274(16) 1.000
Cu12_4 Cu 0.67496(5) 0.17496(5) 0.87805(6)
O34_3 O 0.84820(9) 0.10747(9) 0.96920(9)
O35_3 O 0.81284(10) 0.14352(10) 0.96941(10)
O36_4 O 0.6958(3) 0.1958(3) 0.9109(5)
N21_4 N 0.72906(17) 0.13891(19) 0.89648(18)
N22_4 N 0.70744(17) 0.14567(16) 0.87425(16)
C46_4 C 0.7440(3) 0.11874(18) 0.88126(18)
C47_4 C 0.7719(2) 0.10390(17) 0.89610(17)
C48_4 C 0.78355(15) 0.11625(16) 0.92272(16)
H16_4 H 0.77346(15) 0.13161(16) 0.93269(16)
C49_4 C 0.80979(13) 0.10528(12) 0.93352(12)
C50_4 C 0.82255(18) 0.08043(13) 0.91957(13)
H17_4 H 0.84045(18) 0.07278(13) 0.92722(13)
C51_4 C 0.82518(14) 0.12091(13) 0.95996(14)
N23_4 N 0.72906(17) 0.10352(18) 0.86109(19)
N24_4 N 0.70744(17) 0.12575(16) 0.85433(16)
C52_4 C 0.78355(15) 0.07728(16) 0.88375(16)
H18_4 H 0.77346(15) 0.06731(16) 0.86839(16)
C53_4 C 0.80979(13) 0.06648(12) 0.89472(12)
C54_4 C 0.82518(14) 0.04004(14) 0.87909(13)
Cu19_4 Cu 0.67496(5) 0.12195(6) 0.82504(5)
O50_4 O 0.6607(2) 0.1607(2) 0.8393(2)
N29_4 N 0.64567(16) 0.20744(17) 0.87425(16)
O9_7 O 0.000 0.9072(3) 0.0928(3)
O10_7 O 0.000 0.79726(16) 0.20274(16)
Cu26_6 Cu 0.17496(5) 0.62195(6) 0.17496(5)
Cu9_3 Cu 0.12195(6) 0.67496(5) 0.82504(5)
O17_5 O 0.000 0.9072(3) 0.9072(3)
O18_5 O -0.000 0.79726(16) 0.79726(16)
O19_3 O 0.03080(9) 0.84820(9) 0.89253(9)
O20_3 O 0.03059(10) 0.81284(10) 0.85648(10)
O21_3 O 0.0891(5) 0.6958(3) 0.8042(3)
N9_3 N 0.10352(18) 0.72906(17) 0.86109(19)
N10_3 N 0.12575(16) 0.70744(17) 0.85433(16)
C19_3 C 0.11874(18) 0.7440(3) 0.88126(18)
C20_3 C 0.10390(17) 0.7719(2) 0.89610(17)
C21_3 C 0.07728(16) 0.78355(15) 0.88375(16)
H7_3 H 0.06731(16) 0.77346(15) 0.86839(16)
C22_3 C 0.06648(12) 0.80979(13) 0.89472(12)
C23_3 C 0.08043(13) 0.82255(18) 0.91957(13)
H8_3 H 0.07278(13) 0.84045(18) 0.92722(13)
C24_3 C 0.04004(14) 0.82518(14) 0.87909(13)
N11_3 N 0.13891(19) 0.72906(17) 0.89648(18)
N12_3 N 0.14567(16) 0.70744(17) 0.87425(16)
C25_3 C 0.11625(16) 0.78355(15) 0.92272(16)
H9_3 H 0.13161(16) 0.77346(15) 0.93269(16)
C26_3 C 0.10528(12) 0.80979(13) 0.93352(12)
C27_3 C 0.12091(13) 0.82518(14) 0.95996(14)
Cu21_3 Cu 0.17496(5) 0.67496(5) 0.87805(6)
O47_3 O 0.1607(2) 0.6607(2) 0.8393(2)
N28_3 N 0.12575(16) 0.64567(16) 0.79256(17)
Cu6_4 Cu 0.87805(6) 0.67496(5) 0.17496(5)
O9_8 O 1.000 0.9072(3) 0.0928(3)
O10_8 O 1.000 0.79726(16) 0.20274(16)
O11_4 O 0.96920(9) 0.84820(9) 0.10747(9)
O12_4 O 0.96941(10) 0.81284(10) 0.14352(10)
O13_4 O 0.8393(2) 0.6607(2) 0.1607(2)
O14_4 O 0.9109(5) 0.6958(3) 0.1958(3)
N5_4 N 0.89648(18) 0.72906(17) 0.13891(19)
N6_4 N 0.87425(16) 0.70744(17) 0.14567(16)
C10_4 C 0.88126(18) 0.7440(3) 0.11874(18)
C11_4 C 0.89610(17) 0.7719(2) 0.10390(17)
C12_4 C 0.92272(16) 0.78355(15) 0.11625(16)
H4_4 H 0.93269(16) 0.77346(15) 0.13161(16)
C13_4 C 0.93352(12) 0.80979(13) 0.10528(12)
C14_4 C 0.91957(13) 0.82255(18) 0.08043(13)
H5_4 H 0.92722(13) 0.84045(18) 0.07278(13)
C15_4 C 0.95996(14) 0.82518(14) 0.12091(13)
O15_3 O 0.89253(9) 0.84820(9) 0.03080(9)
O16_3 O 0.85648(10) 0.81284(10) 0.03059(10)
N7_4 N 0.86109(19) 0.72906(17) 0.10352(18)
N8_4 N 0.85433(16) 0.70744(17) 0.12575(16)
C16_4 C 0.88375(16) 0.78355(15) 0.07728(16)
H6_4 H 0.86839(16) 0.77346(15) 0.06731(16)
C17_4 C 0.89472(12) 0.80979(13) 0.06648(12)
C18_4 C 0.87909(13) 0.82518(14) 0.04004(14)
Cu15_3 Cu 0.831332(17) 0.831332(17) 0.000
Cu18_3 Cu 0.873437(18) 0.873437(18) 0.000
Cu20_4 Cu 0.82504(5) 0.67496(5) 0.12195(6)
Cu25_6 Cu 0.82504(5) 0.62195(6) 0.17496(5)
N27_4 N 0.87425(16) 0.64567(16) 0.20744(17)
O17_6 O 1.000 0.9072(3) 0.9072(3)
O18_6 O 1.000 0.79726(16) 0.79726(16)
Cu15_4 Cu 0.831332(17) 0.831332(17) 1.000
Cu18_4 Cu 0.873437(18) 0.873437(18) 1.000
O39_3 O 0.96920(9) 0.89253(9) 0.84820(9)
O42_3 O 0.96920(9) 0.84820(9) 0.89253(9)
O43_3 O 0.96941(10) 0.85648(10) 0.81284(10)
O46_3 O 0.96941(10) 0.81284(10) 0.85648(10)
Cu25_7 Cu 0.17496(5) 0.37805(6) 0.82504(5)
Cu26_7 Cu 0.17496(5) 0.17496(5) 0.37805(6)
Cu25_8 Cu 0.17496(5) 0.82504(5) 0.37805(6)
Cu10_5 Cu 0.67496(5) 0.82504(5) 0.12195(6)
O24_5 O 0.84820(9) 0.89253(9) 0.03080(9)
O25_5 O 0.81284(10) 0.85648(10) 0.03059(10)
O26_5 O 0.6958(3) 0.8042(3) 0.0891(5)
N13_5 N 0.72906(17) 0.86109(19) 0.10352(18)
N14_5 N 0.70744(17) 0.85433(16) 0.12575(16)
C28_5 C 0.7440(3) 0.88126(18) 0.11874(18)
C29_5 C 0.7719(2) 0.89610(17) 0.10390(17)
C30_5 C 0.78355(15) 0.88375(16) 0.07728(16)
H10_5 H 0.77346(15) 0.86839(16) 0.06731(16)
C31_5 C 0.80979(13) 0.89472(12) 0.06648(12)
C32_5 C 0.82255(18) 0.91957(13) 0.08043(13)
H11_5 H 0.84045(18) 0.92722(13) 0.07278(13)
C33_5 C 0.82518(14) 0.87909(13) 0.04004(14)
N15_5 N 0.72906(17) 0.89648(18) 0.13891(19)
N16_5 N 0.70744(17) 0.87425(16) 0.14567(16)
C34_5 C 0.78355(15) 0.92272(16) 0.11625(16)
H12_5 H 0.77346(15) 0.93269(16) 0.13161(16)
C35_5 C 0.80979(13) 0.93352(12) 0.10528(12)
C36_5 C 0.82518(14) 0.95996(14) 0.12091(13)
Cu22_5 Cu 0.67496(5) 0.87805(6) 0.17496(5)
O48_5 O 0.6607(2) 0.8393(2) 0.1607(2)
N25_5 N 0.64567(16) 0.79256(17) 0.12575(16)
Cu26_8 Cu 0.17496(5) 0.62195(6) 0.82504(5)
O17_7 O 0.9072(3) 0.9072(3) -0.000
O18_7 O 0.79726(16) 0.79726(16) -0.000
Cu9_4 Cu 0.82504(5) 0.67496(5) 0.87805(6)
O17_8 O 0.9072(3) 0.9072(3) 1.000
O18_8 O 0.79726(16) 0.79726(16) 1.000
O19_4 O 0.89253(9) 0.84820(9) 0.96920(9)
O20_4 O 0.85648(10) 0.81284(10) 0.96941(10)
O21_4 O 0.8042(3) 0.6958(3) 0.9109(5)
N9_4 N 0.86109(19) 0.72906(17) 0.89648(18)
N10_4 N 0.85433(16) 0.70744(17) 0.87425(16)
C19_4 C 0.88126(18) 0.7440(3) 0.88126(18)
C20_4 C 0.89610(17) 0.7719(2) 0.89610(17)
C21_4 C 0.88375(16) 0.78355(15) 0.92272(16)
H7_4 H 0.86839(16) 0.77346(15) 0.93269(16)
C22_4 C 0.89472(12) 0.80979(13) 0.93352(12)
C23_4 C 0.91957(13) 0.82255(18) 0.91957(13)
H8_4 H 0.92722(13) 0.84045(18) 0.92722(13)
C24_4 C 0.87909(13) 0.82518(14) 0.95996(14)
N11_4 N 0.89648(18) 0.72906(17) 0.86109(19)
N12_4 N 0.87425(16) 0.70744(17) 0.85433(16)
C25_4 C 0.92272(16) 0.78355(15) 0.88375(16)
H9_4 H 0.93269(16) 0.77346(15) 0.86839(16)
C26_4 C 0.93352(12) 0.80979(13) 0.89472(12)
C27_4 C 0.95996(14) 0.82518(14) 0.87909(13)
Cu12_5 Cu 0.87805(6) 0.82504(5) 0.67496(5)
O36_5 O 0.9109(5) 0.8042(3) 0.6958(3)
N21_5 N 0.89648(18) 0.86109(19) 0.72906(17)
N22_5 N 0.87425(16) 0.85433(16) 0.70744(17)
C46_5 C 0.88126(18) 0.88126(18) 0.7440(3)
C47_5 C 0.89610(17) 0.89610(17) 0.7719(2)
C48_5 C 0.92272(16) 0.88375(16) 0.78355(15)
H16_5 H 0.93269(16) 0.86839(16) 0.77346(15)
C49_5 C 0.93352(12) 0.89472(12) 0.80979(13)
C50_5 C 0.91957(13) 0.91957(13) 0.82255(18)
H17_5 H 0.92722(13) 0.92722(13) 0.84045(18)
C51_5 C 0.95996(14) 0.87909(13) 0.82518(14)
N23_5 N 0.86109(19) 0.89648(18) 0.72906(17)
N24_5 N 0.85433(16) 0.87425(16) 0.70744(17)
C52_5 C 0.88375(16) 0.92272(16) 0.78355(15)
H18_5 H 0.86839(16) 0.93269(16) 0.77346(15)
C53_5 C 0.89472(12) 0.93352(12) 0.80979(13)
C54_5 C 0.87909(13) 0.95996(14) 0.82518(14)
Cu19_5 Cu 0.82504(5) 0.87805(6) 0.67496(5)
Cu21_4 Cu 0.87805(6) 0.67496(5) 0.82504(5)
O40_3 O 0.84820(9) 0.89253(9) 0.96920(9)
O44_3 O 0.81284(10) 0.85648(10) 0.96941(10)
O47_4 O 0.8393(2) 0.6607(2) 0.8393(2)
O50_5 O 0.8393(2) 0.8393(2) 0.6607(2)
N28_4 N 0.79256(17) 0.64567(16) 0.87425(16)
N29_5 N 0.87425(16) 0.79256(17) 0.64567(16)
Cu26_9 Cu 0.82504(5) 0.17496(5) 0.62195(6)
Cu12_6 Cu 0.67496(5) 0.87805(6) 0.82504(5)
O36_6 O 0.6958(3) 0.9109(5) 0.8042(3)
N21_6 N 0.72906(17) 0.89648(18) 0.86109(19)
N22_6 N 0.70744(17) 0.87425(16) 0.85433(16)
C46_6 C 0.7440(3) 0.88126(18) 0.88126(18)
C47_6 C 0.7719(2) 0.89610(17) 0.89610(17)
C48_6 C 0.78355(15) 0.92272(16) 0.88375(16)
H16_6 H 0.77346(15) 0.93269(16) 0.86839(16)
C49_6 C 0.80979(13) 0.93352(12) 0.89472(12)
C50_6 C 0.82255(18) 0.91957(13) 0.91957(13)
H17_6 H 0.84045(18) 0.92722(13) 0.92722(13)
C51_6 C 0.82518(14) 0.95996(14) 0.87909(13)
N23_6 N 0.72906(17) 0.86109(19) 0.89648(18)
N24_6 N 0.70744(17) 0.85433(16) 0.87425(16)
C52_6 C 0.78355(15) 0.88375(16) 0.92272(16)
H18_6 H 0.77346(15) 0.86839(16) 0.93269(16)
C53_6 C 0.80979(13) 0.89472(12) 0.93352(12)
C54_6 C 0.82518(14) 0.87909(13) 0.95996(14)
Cu19_6 Cu 0.67496(5) 0.82504(5) 0.87805(6)
O50_6 O 0.6607(2) 0.8393(2) 0.8393(2)
N29_6 N 0.64567(16) 0.87425(16) 0.79256(17)
Cu25_9 Cu 0.82504(5) 0.62195(6) 0.82504(5)
Cu26_10 Cu 0.82504(5) 0.37805(6) 0.82504(5)
Cu25_10 Cu 0.82504(5) 0.82504(5) 0.62195(6)
Cu26_11 Cu 0.62195(6) 0.17496(5) 0.82504(5)
Cu25_11 Cu 0.62195(6) 0.82504(5) 0.82504(5)
Cu25_12 Cu 0.62195(6) 0.17496(5) 0.17496(5)
Cu26_12 Cu 0.62195(6) 0.82504(5) 0.17496(5)
Cu1_3 Cu 0.168668(17) 0.668668(17) 0.500
Cu2_3 Cu 0.126563(18) 0.626563(18) 0.500
Cu3_3 Cu 0.32504(5) 0.67496(5) 0.62195(6)
O1_9 O 0.0928(3) 0.5928(3) 0.500
O2_9 O 0.20274(16) 0.70274(16) 0.500
O3_3 O 0.15180(9) 0.60747(9) 0.53080(9)
O4_3 O 0.18716(10) 0.64352(10) 0.53059(10)
O5_3 O 0.3393(2) 0.6607(2) 0.6607(2)
O6_3 O 0.3042(3) 0.6958(3) 0.5891(5)
N1_3 N 0.27094(17) 0.63891(19) 0.60352(18)
N2_3 N 0.29256(17) 0.64567(16) 0.62575(16)
C1_3 C 0.2560(3) 0.61874(18) 0.61874(18)
C2_3 C 0.2281(2) 0.60390(17) 0.60390(17)
C3_3 C 0.21645(15) 0.61625(16) 0.57728(16)
H1_3 H 0.22654(15) 0.63161(16) 0.56731(16)
C4_3 C 0.19021(13) 0.60528(12) 0.56648(12)
C5_3 C 0.17745(18) 0.58043(13) 0.58043(13)
H2_3 H 0.15955(18) 0.57278(13) 0.57278(13)
C6_3 C 0.17482(14) 0.62091(13) 0.54004(14)
O7_3 O 0.15180(9) 0.53080(9) 0.60747(9)
O8_3 O 0.18716(10) 0.53059(10) 0.64352(10)
N3_3 N 0.27094(17) 0.60352(18) 0.63891(19)
N4_3 N 0.29256(17) 0.62575(16) 0.64567(16)
C7_3 C 0.21645(15) 0.57728(16) 0.61625(16)
H3_3 H 0.22654(15) 0.56731(16) 0.63161(16)
C8_3 C 0.19021(13) 0.56648(12) 0.60528(12)
C9_3 C 0.17482(14) 0.54004(14) 0.62091(13)
Cu4_5 Cu 0.168668(17) 0.500 0.668668(17)
Cu5_5 Cu 0.126563(18) 0.500 0.626563(18)
Cu6_5 Cu 0.32504(5) 0.37805(6) 0.67496(5)
O9_9 O 0.0928(3) 0.500 0.5928(3)
O10_9 O 0.20274(16) 0.500 0.70274(16)
O11_5 O 0.15180(9) 0.46920(9) 0.60747(9)
O12_5 O 0.18716(10) 0.46941(10) 0.64352(10)
O13_5 O 0.3393(2) 0.3393(2) 0.6607(2)
O14_5 O 0.3042(3) 0.4109(5) 0.6958(3)
N5_5 N 0.27094(17) 0.39648(18) 0.63891(19)
N6_5 N 0.29256(17) 0.37425(16) 0.64567(16)
C10_5 C 0.2560(3) 0.38126(18) 0.61874(18)
C11_5 C 0.2281(2) 0.39610(17) 0.60390(17)
C12_5 C 0.21645(15) 0.42272(16) 0.61625(16)
H4_5 H 0.22654(15) 0.43269(16) 0.63161(16)
C13_5 C 0.19021(13) 0.43352(12) 0.60528(12)
C14_5 C 0.17745(18) 0.41957(13) 0.58043(13)
H5_5 H 0.15955(18) 0.42722(13) 0.57278(13)
C15_5 C 0.17482(14) 0.45996(14) 0.62091(13)
O15_4 O 0.15180(9) 0.39253(9) 0.53080(9)
O16_4 O 0.18716(10) 0.35648(10) 0.53059(10)
N7_5 N 0.27094(17) 0.36109(19) 0.60352(18)
N8_5 N 0.29256(17) 0.35433(16) 0.62575(16)
C16_5 C 0.21645(15) 0.38375(16) 0.57728(16)
H6_5 H 0.22654(15) 0.36839(16) 0.56731(16)
C17_5 C 0.19021(13) 0.39472(12) 0.56648(12)
C18_5 C 0.17482(14) 0.37909(13) 0.54004(14)
Cu7_5 Cu 0.168668(17) 0.500 0.331332(17)
Cu8_5 Cu 0.126563(18) 0.500 0.373437(18)
Cu9_5 Cu 0.32504(5) 0.62195(6) 0.32504(5)
O17_9 O 0.0928(3) 0.500 0.4072(3)
O18_9 O 0.20274(16) 0.500 0.29726(16)
O19_5 O 0.15180(9) 0.53080(9) 0.39253(9)
O20_5 O 0.18716(10) 0.53059(10) 0.35648(10)
O21_5 O 0.3042(3) 0.5891(5) 0.3042(3)
N9_5 N 0.27094(17) 0.60352(18) 0.36109(19)
N10_5 N 0.29256(17) 0.62575(16) 0.35433(16)
C19_5 C 0.2560(3) 0.61874(18) 0.38126(18)
C20_5 C 0.2281(2) 0.60390(17) 0.39610(17)
C21_5 C 0.21645(15) 0.57728(16) 0.38375(16)
H7_5 H 0.22654(15) 0.56731(16) 0.36839(16)
C22_5 C 0.19021(13) 0.56648(12) 0.39472(12)
C23_5 C 0.17745(18) 0.58043(13) 0.41957(13)
H8_5 H 0.15955(18) 0.57278(13) 0.42722(13)
C24_5 C 0.17482(14) 0.54004(14) 0.37909(13)
O22_3 O 0.15180(9) 0.60747(9) 0.46920(9)
O23_3 O 0.18716(10) 0.64352(10) 0.46941(10)
N11_5 N 0.27094(17) 0.63891(19) 0.39648(18)
N12_5 N 0.29256(17) 0.64567(16) 0.37425(16)
C25_5 C 0.21645(15) 0.61625(16) 0.42272(16)
H9_5 H 0.22654(15) 0.63161(16) 0.43269(16)
C26_5 C 0.19021(13) 0.60528(12) 0.43352(12)
C27_5 C 0.17482(14) 0.62091(13) 0.45996(14)
O24_6 O 0.03080(9) 0.65180(9) 0.60747(9)
O25_6 O 0.03059(10) 0.68716(10) 0.64352(10)
O26_6 O 0.0891(5) 0.8042(3) 0.6958(3)
N13_6 N 0.10352(18) 0.77094(17) 0.63891(19)
N14_6 N 0.12575(16) 0.79256(17) 0.64567(16)
C28_6 C 0.11874(18) 0.7560(3) 0.61874(18)
C29_6 C 0.10390(17) 0.7281(2) 0.60390(17)
C30_6 C 0.07728(16) 0.71645(15) 0.61625(16)
H10_6 H 0.06731(16) 0.72654(15) 0.63161(16)
C31_6 C 0.06648(12) 0.69021(13) 0.60528(12)
C32_6 C 0.08043(13) 0.67745(18) 0.58043(13)
H11_6 H 0.07278(13) 0.65955(18) 0.57278(13)
C33_6 C 0.04004(14) 0.67482(14) 0.62091(13)
O27_3 O 0.10747(9) 0.65180(9) 0.53080(9)
O28_3 O 0.14352(10) 0.68716(10) 0.53059(10)
N15_6 N 0.13891(19) 0.77094(17) 0.60352(18)
N16_6 N 0.14567(16) 0.79256(17) 0.62575(16)
C34_6 C 0.11625(16) 0.71645(15) 0.57728(16)
H12_6 H 0.13161(16) 0.72654(15) 0.56731(16)
C35_6 C 0.10528(12) 0.69021(13) 0.56648(12)
C36_6 C 0.12091(13) 0.67482(14) 0.54004(14)
O29_4 O 0.10747(9) 0.53080(9) 0.65180(9)
O30_4 O 0.14352(10) 0.53059(10) 0.68716(10)
O31_4 O 0.1958(3) 0.5891(5) 0.8042(3)
N17_4 N 0.13891(19) 0.60352(18) 0.77094(17)
N18_4 N 0.14567(16) 0.62575(16) 0.79256(17)
C37_4 C 0.11874(18) 0.61874(18) 0.7560(3)
C38_4 C 0.10390(17) 0.60390(17) 0.7281(2)
C39_4 C 0.11625(16) 0.57728(16) 0.71645(15)
H13_4 H 0.13161(16) 0.56731(16) 0.72654(15)
C40_4 C 0.10528(12) 0.56648(12) 0.69021(13)
C41_4 C 0.08043(13) 0.58043(13) 0.67745(18)
H14_4 H 0.07278(13) 0.57278(13) 0.65955(18)
C42_4 C 0.12091(13) 0.54004(14) 0.67482(14)
O32_4 O 0.03080(9) 0.60747(9) 0.65180(9)
O33_4 O 0.03059(10) 0.64352(10) 0.68716(10)
N19_4 N 0.10352(18) 0.63891(19) 0.77094(17)
C43_4 C 0.07728(16) 0.61625(16) 0.71645(15)
H15_4 H 0.06731(16) 0.63161(16) 0.72654(15)
C44_4 C 0.06648(12) 0.60528(12) 0.69021(13)
C45_4 C 0.04004(14) 0.62091(13) 0.67482(14)
O34_4 O 0.10747(9) 0.65180(9) 0.46920(9)
O35_4 O 0.14352(10) 0.68716(10) 0.46941(10)
O36_7 O 0.1958(3) 0.8042(3) 0.4109(5)
N21_7 N 0.13891(19) 0.77094(17) 0.39648(18)
N22_7 N 0.14567(16) 0.79256(17) 0.37425(16)
C46_7 C 0.11874(18) 0.7560(3) 0.38126(18)
C47_7 C 0.10390(17) 0.7281(2) 0.39610(17)
C48_7 C 0.11625(16) 0.71645(15) 0.42272(16)
H16_7 H 0.13161(16) 0.72654(15) 0.43269(16)
C49_7 C 0.10528(12) 0.69021(13) 0.43352(12)
C50_7 C 0.08043(13) 0.67745(18) 0.41957(13)
H17_7 H 0.07278(13) 0.65955(18) 0.42722(13)
C51_7 C 0.12091(13) 0.67482(14) 0.45996(14)
O37_4 O 0.03080(9) 0.65180(9) 0.39253(9)
O38_4 O 0.03059(10) 0.68716(10) 0.35648(10)
N23_7 N 0.10352(18) 0.77094(17) 0.36109(19)
C52_7 C 0.07728(16) 0.71645(15) 0.38375(16)
H18_7 H 0.06731(16) 0.72654(15) 0.36839(16)
C53_7 C 0.06648(12) 0.69021(13) 0.39472(12)
C54_7 C 0.04004(14) 0.67482(14) 0.37909(13)
Cu13_7 Cu 0.000 0.668668(17) 0.331332(17)
Cu14_5 Cu -0.000 0.668668(17) 0.668668(17)
Cu15_5 Cu 0.168668(17) 0.331332(17) 0.500
Cu16_7 Cu -0.000 0.626563(18) 0.373437(18)
Cu17_5 Cu -0.000 0.626563(18) 0.626563(18)
Cu18_5 Cu 0.126563(18) 0.373437(18) 0.500
Cu20_5 Cu 0.32504(5) 0.32504(5) 0.62195(6)
Cu21_5 Cu 0.32504(5) 0.67496(5) 0.37805(6)
Cu24_3 Cu 0.32504(5) 0.62195(6) 0.67496(5)
Cu25_13 Cu 0.37805(6) 0.32504(5) 0.67496(5)
Cu26_13 Cu 0.37805(6) 0.67496(5) 0.67496(5)
O39_4 O 0.10747(9) 0.46920(9) 0.34820(9)
O40_4 O 0.10747(9) 0.53080(9) 0.34820(9)
O41_4 O 0.10747(9) 0.46920(9) 0.65180(9)
O42_4 O 0.15180(9) 0.46920(9) 0.39253(9)
O43_4 O 0.14352(10) 0.46941(10) 0.31284(10)
O44_4 O 0.14352(10) 0.53059(10) 0.31284(10)
O45_4 O 0.14352(10) 0.46941(10) 0.68716(10)
O46_4 O 0.18716(10) 0.46941(10) 0.35648(10)
O47_5 O 0.3393(2) 0.6607(2) 0.3393(2)
N26_4 N 0.20744(17) 0.62575(16) 0.85433(16)
N27_5 N 0.35433(16) 0.37425(16) 0.70744(17)
N28_5 N 0.35433(16) 0.62575(16) 0.29256(17)
N29_7 N 0.20744(17) 0.85433(16) 0.37425(16)
N30_3 N 0.35433(16) 0.70744(17) 0.62575(16)
Cu13_8 Cu 1.000 0.668668(17) 0.331332(17)
Cu14_6 Cu 1.000 0.668668(17) 0.668668(17)
Cu16_8 Cu 1.000 0.626563(18) 0.373437(18)
Cu17_6 Cu 1.000 0.626563(18) 0.626563(18)
Cu6_6 Cu 0.32504(5) 0.32504(5) 0.37805(6)
O9_10 O 0.0928(3) 0.4072(3) 0.500
O10_10 O 0.20274(16) 0.29726(16) 0.500
O11_6 O 0.15180(9) 0.39253(9) 0.46920(9)
O12_6 O 0.18716(10) 0.35648(10) 0.46941(10)
O13_6 O 0.3393(2) 0.3393(2) 0.3393(2)
O14_6 O 0.3042(3) 0.3042(3) 0.4109(5)
N5_6 N 0.27094(17) 0.36109(19) 0.39648(18)
N6_6 N 0.29256(17) 0.35433(16) 0.37425(16)
C10_6 C 0.2560(3) 0.38126(18) 0.38126(18)
C11_6 C 0.2281(2) 0.39610(17) 0.39610(17)
C12_6 C 0.21645(15) 0.38375(16) 0.42272(16)
H4_6 H 0.22654(15) 0.36839(16) 0.43269(16)
C13_6 C 0.19021(13) 0.39472(12) 0.43352(12)
C14_6 C 0.17745(18) 0.41957(13) 0.41957(13)
H5_6 H 0.15955(18) 0.42722(13) 0.42722(13)
C15_6 C 0.17482(14) 0.37909(13) 0.45996(14)
N7_6 N 0.27094(17) 0.39648(18) 0.36109(19)
N8_6 N 0.29256(17) 0.37425(16) 0.35433(16)
C16_6 C 0.21645(15) 0.42272(16) 0.38375(16)
H6_6 H 0.22654(15) 0.43269(16) 0.36839(16)
C17_6 C 0.19021(13) 0.43352(12) 0.39472(12)
C18_6 C 0.17482(14) 0.45996(14) 0.37909(13)
O24_7 O 0.03080(9) 0.39253(9) 0.65180(9)
O25_7 O 0.03059(10) 0.35648(10) 0.68716(10)
O26_7 O 0.0891(5) 0.3042(3) 0.8042(3)
N13_7 N 0.10352(18) 0.36109(19) 0.77094(17)
N14_7 N 0.12575(16) 0.35433(16) 0.79256(17)
C28_7 C 0.11874(18) 0.38126(18) 0.7560(3)
C29_7 C 0.10390(17) 0.39610(17) 0.7281(2)
C30_7 C 0.07728(16) 0.38375(16) 0.71645(15)
H10_7 H 0.06731(16) 0.36839(16) 0.72654(15)
C31_7 C 0.06648(12) 0.39472(12) 0.69021(13)
C32_7 C 0.08043(13) 0.41957(13) 0.67745(18)
H11_7 H 0.07278(13) 0.42722(13) 0.65955(18)
C33_7 C 0.04004(14) 0.37909(13) 0.67482(14)
N15_7 N 0.13891(19) 0.39648(18) 0.77094(17)
N16_7 N 0.14567(16) 0.37425(16) 0.79256(17)
C34_7 C 0.11625(16) 0.42272(16) 0.71645(15)
H12_7 H 0.13161(16) 0.43269(16) 0.72654(15)
C35_7 C 0.10528(12) 0.43352(12) 0.69021(13)
C36_7 C 0.12091(13) 0.45996(14) 0.67482(14)
O29_5 O 0.10747(9) 0.34820(9) 0.53080(9)
O30_5 O 0.14352(10) 0.31284(10) 0.53059(10)
O31_5 O 0.1958(3) 0.1958(3) 0.5891(5)
N17_5 N 0.13891(19) 0.22906(17) 0.60352(18)
N18_5 N 0.14567(16) 0.20744(17) 0.62575(16)
C37_5 C 0.11874(18) 0.2440(3) 0.61874(18)
C38_5 C 0.10390(17) 0.2719(2) 0.60390(17)
C39_5 C 0.11625(16) 0.28355(15) 0.57728(16)
H13_5 H 0.13161(16) 0.27346(15) 0.56731(16)
C40_5 C 0.10528(12) 0.30979(13) 0.56648(12)
C41_5 C 0.08043(13) 0.32255(18) 0.58043(13)
H14_5 H 0.07278(13) 0.34045(18) 0.57278(13)
C42_5 C 0.12091(13) 0.32518(14) 0.54004(14)
O32_5 O 0.03080(9) 0.34820(9) 0.60747(9)
O33_5 O 0.03059(10) 0.31284(10) 0.64352(10)
N19_5 N 0.10352(18) 0.22906(17) 0.63891(19)
C43_5 C 0.07728(16) 0.28355(15) 0.61625(16)
H15_5 H 0.06731(16) 0.27346(15) 0.63161(16)
C44_5 C 0.06648(12) 0.30979(13) 0.60528(12)
C45_5 C 0.04004(14) 0.32518(14) 0.62091(13)
Cu14_7 Cu -0.000 0.331332(17) 0.668668(17)
Cu17_7 Cu -0.000 0.373437(18) 0.626563(18)
Cu20_6 Cu 0.32504(5) 0.37805(6) 0.32504(5)
Cu25_14 Cu 0.37805(6) 0.32504(5) 0.32504(5)
O41_5 O 0.10747(9) 0.34820(9) 0.46920(9)
O45_5 O 0.14352(10) 0.31284(10) 0.46941(10)
N26_5 N 0.20744(17) 0.14567(16) 0.62575(16)
N27_6 N 0.35433(16) 0.29256(17) 0.37425(16)
Cu14_8 Cu 1.000 0.331332(17) 0.668668(17)
Cu17_8 Cu 1.000 0.373437(18) 0.626563(18)
O24_8 O 0.03080(9) 0.60747(9) 0.34820(9)
O25_8 O 0.03059(10) 0.64352(10) 0.31284(10)
O26_8 O 0.0891(5) 0.6958(3) 0.1958(3)
N13_8 N 0.10352(18) 0.63891(19) 0.22906(17)
N14_8 N 0.12575(16) 0.64567(16) 0.20744(17)
C28_8 C 0.11874(18) 0.61874(18) 0.2440(3)
C29_8 C 0.10390(17) 0.60390(17) 0.2719(2)
C30_8 C 0.07728(16) 0.61625(16) 0.28355(15)
H10_8 H 0.06731(16) 0.63161(16) 0.27346(15)
C31_8 C 0.06648(12) 0.60528(12) 0.30979(13)
C32_8 C 0.08043(13) 0.58043(13) 0.32255(18)
H11_8 H 0.07278(13) 0.57278(13) 0.34045(18)
C33_8 C 0.04004(14) 0.62091(13) 0.32518(14)
N15_8 N 0.13891(19) 0.60352(18) 0.22906(17)
N16_8 N 0.14567(16) 0.62575(16) 0.20744(17)
C34_8 C 0.11625(16) 0.57728(16) 0.28355(15)
H12_8 H 0.13161(16) 0.56731(16) 0.27346(15)
C35_8 C 0.10528(12) 0.56648(12) 0.30979(13)
C36_8 C 0.12091(13) 0.54004(14) 0.32518(14)
O36_8 O 0.1958(3) 0.4109(5) 0.1958(3)
N21_8 N 0.13891(19) 0.39648(18) 0.22906(17)
N22_8 N 0.14567(16) 0.37425(16) 0.20744(17)
C46_8 C 0.11874(18) 0.38126(18) 0.2440(3)
C47_8 C 0.10390(17) 0.39610(17) 0.2719(2)
C48_8 C 0.11625(16) 0.42272(16) 0.28355(15)
H16_8 H 0.13161(16) 0.43269(16) 0.27346(15)
C49_8 C 0.10528(12) 0.43352(12) 0.30979(13)
C50_8 C 0.08043(13) 0.41957(13) 0.32255(18)
H17_8 H 0.07278(13) 0.42722(13) 0.34045(18)
C51_8 C 0.12091(13) 0.45996(14) 0.32518(14)
O37_5 O 0.03080(9) 0.39253(9) 0.34820(9)
O38_5 O 0.03059(10) 0.35648(10) 0.31284(10)
N23_8 N 0.10352(18) 0.36109(19) 0.22906(17)
C52_8 C 0.07728(16) 0.38375(16) 0.28355(15)
H18_8 H 0.06731(16) 0.36839(16) 0.27346(15)
C53_8 C 0.06648(12) 0.39472(12) 0.30979(13)
C54_8 C 0.04004(14) 0.37909(13) 0.32518(14)
Cu13_9 Cu -0.000 0.331332(17) 0.331332(17)
Cu16_9 Cu 0.000 0.373437(18) 0.373437(18)
Cu26_14 Cu 0.37805(6) 0.67496(5) 0.32504(5)
N29_8 N 0.20744(17) 0.37425(16) 0.14567(16)
Cu13_10 Cu 1.000 0.331332(17) 0.331332(17)
Cu16_10 Cu 1.000 0.373437(18) 0.373437(18)
O1_10 O -0.000 0.5928(3) 0.4072(3)
O2_10 O -0.000 0.70274(16) 0.29726(16)
O1_11 O 1.000 0.5928(3) 0.4072(3)
O2_11 O 1.000 0.70274(16) 0.29726(16)
Cu7_6 Cu 0.831332(17) 0.500 0.331332(17)
Cu8_6 Cu 0.873437(18) 0.500 0.373437(18)
O17_10 O 0.9072(3) 0.500 0.4072(3)
O18_10 O 0.79726(16) 0.500 0.29726(16)
O19_6 O 0.89253(9) 0.53080(9) 0.34820(9)
O20_6 O 0.85648(10) 0.53059(10) 0.31284(10)
O21_6 O 0.8042(3) 0.5891(5) 0.1958(3)
N9_6 N 0.86109(19) 0.60352(18) 0.22906(17)
N10_6 N 0.85433(16) 0.62575(16) 0.20744(17)
C19_6 C 0.88126(18) 0.61874(18) 0.2440(3)
C20_6 C 0.89610(17) 0.60390(17) 0.2719(2)
C21_6 C 0.88375(16) 0.57728(16) 0.28355(15)
H7_6 H 0.86839(16) 0.56731(16) 0.27346(15)
C22_6 C 0.89472(12) 0.56648(12) 0.30979(13)
C23_6 C 0.91957(13) 0.58043(13) 0.32255(18)
H8_6 H 0.92722(13) 0.57278(13) 0.34045(18)
C24_6 C 0.87909(13) 0.54004(14) 0.32518(14)
O22_4 O 0.96920(9) 0.60747(9) 0.34820(9)
O23_4 O 0.96941(10) 0.64352(10) 0.31284(10)
N11_6 N 0.89648(18) 0.63891(19) 0.22906(17)
C25_6 C 0.92272(16) 0.61625(16) 0.28355(15)
H9_6 H 0.93269(16) 0.63161(16) 0.27346(15)
C26_6 C 0.93352(12) 0.60528(12) 0.30979(13)
C27_6 C 0.95996(14) 0.62091(13) 0.32518(14)
O34_5 O 0.96920(9) 0.65180(9) 0.39253(9)
O35_5 O 0.96941(10) 0.68716(10) 0.35648(10)
O36_9 O 0.9109(5) 0.8042(3) 0.3042(3)
N21_9 N 0.89648(18) 0.77094(17) 0.36109(19)
N22_9 N 0.87425(16) 0.79256(17) 0.35433(16)
C46_9 C 0.88126(18) 0.7560(3) 0.38126(18)
C47_9 C 0.89610(17) 0.7281(2) 0.39610(17)
C48_9 C 0.92272(16) 0.71645(15) 0.38375(16)
H16_9 H 0.93269(16) 0.72654(15) 0.36839(16)
C49_9 C 0.93352(12) 0.69021(13) 0.39472(12)
C50_9 C 0.91957(13) 0.67745(18) 0.41957(13)
H17_9 H 0.92722(13) 0.65955(18) 0.42722(13)
C51_9 C 0.95996(14) 0.67482(14) 0.37909(13)
O37_6 O 0.89253(9) 0.65180(9) 0.46920(9)
O38_6 O 0.85648(10) 0.68716(10) 0.46941(10)
N23_9 N 0.86109(19) 0.77094(17) 0.39648(18)
N24_7 N 0.85433(16) 0.79256(17) 0.37425(16)
C52_9 C 0.88375(16) 0.71645(15) 0.42272(16)
H18_9 H 0.86839(16) 0.72654(15) 0.43269(16)
C53_9 C 0.89472(12) 0.69021(13) 0.43352(12)
C54_9 C 0.87909(13) 0.67482(14) 0.45996(14)
Cu13_11 Cu 0.831332(17) 0.668668(17) 0.500
Cu16_11 Cu 0.873437(18) 0.626563(18) 0.500
O39_5 O 0.84820(9) 0.46920(9) 0.39253(9)
O40_5 O 0.84820(9) 0.53080(9) 0.39253(9)
O42_5 O 0.89253(9) 0.46920(9) 0.34820(9)
O43_5 O 0.81284(10) 0.46941(10) 0.35648(10)
O44_5 O 0.81284(10) 0.53059(10) 0.35648(10)
O46_5 O 0.85648(10) 0.46941(10) 0.31284(10)
N28_6 N 0.79256(17) 0.62575(16) 0.14567(16)
O1_12 O 0.000 0.5928(3) 0.5928(3)
O2_12 O -0.000 0.70274(16) 0.70274(16)
O1_13 O 1.000 0.5928(3) 0.5928(3)
O2_13 O 1.000 0.70274(16) 0.70274(16)
O3_4 O 0.96920(9) 0.60747(9) 0.65180(9)
O4_4 O 0.96941(10) 0.64352(10) 0.68716(10)
O6_4 O 0.9109(5) 0.6958(3) 0.8042(3)
N1_4 N 0.89648(18) 0.63891(19) 0.77094(17)
N2_4 N 0.87425(16) 0.64567(16) 0.79256(17)
C1_4 C 0.88126(18) 0.61874(18) 0.7560(3)
C2_4 C 0.89610(17) 0.60390(17) 0.7281(2)
C3_4 C 0.92272(16) 0.61625(16) 0.71645(15)
H1_4 H 0.93269(16) 0.63161(16) 0.72654(15)
C4_4 C 0.93352(12) 0.60528(12) 0.69021(13)
C5_4 C 0.91957(13) 0.58043(13) 0.67745(18)
H2_4 H 0.92722(13) 0.57278(13) 0.65955(18)
C6_4 C 0.95996(14) 0.62091(13) 0.67482(14)
O7_4 O 0.89253(9) 0.53080(9) 0.65180(9)
O8_4 O 0.85648(10) 0.53059(10) 0.68716(10)
N3_4 N 0.86109(19) 0.60352(18) 0.77094(17)
N4_4 N 0.85433(16) 0.62575(16) 0.79256(17)
C7_4 C 0.88375(16) 0.57728(16) 0.71645(15)
H3_4 H 0.86839(16) 0.56731(16) 0.72654(15)
C8_4 C 0.89472(12) 0.56648(12) 0.69021(13)
C9_4 C 0.87909(13) 0.54004(14) 0.67482(14)
Cu4_6 Cu 0.831332(17) 0.500 0.668668(17)
Cu5_6 Cu 0.873437(18) 0.500 0.626563(18)
O9_11 O 0.9072(3) 0.500 0.5928(3)
O10_11 O 0.79726(16) 0.500 0.70274(16)
O11_7 O 0.89253(9) 0.46920(9) 0.65180(9)
O12_7 O 0.85648(10) 0.46941(10) 0.68716(10)
O14_7 O 0.8042(3) 0.4109(5) 0.8042(3)
N5_7 N 0.86109(19) 0.39648(18) 0.77094(17)
N6_7 N 0.85433(16) 0.37425(16) 0.79256(17)
C10_7 C 0.88126(18) 0.38126(18) 0.7560(3)
C11_7 C 0.89610(17) 0.39610(17) 0.7281(2)
C12_7 C 0.88375(16) 0.42272(16) 0.71645(15)
H4_7 H 0.86839(16) 0.43269(16) 0.72654(15)
C13_7 C 0.89472(12) 0.43352(12) 0.69021(13)
C14_7 C 0.91957(13) 0.41957(13) 0.67745(18)
H5_7 H 0.92722(13) 0.42722(13) 0.65955(18)
C15_7 C 0.87909(13) 0.45996(14) 0.67482(14)
O15_5 O 0.96920(9) 0.39253(9) 0.65180(9)
O16_5 O 0.96941(10) 0.35648(10) 0.68716(10)
N7_7 N 0.89648(18) 0.36109(19) 0.77094(17)
C16_7 C 0.92272(16) 0.38375(16) 0.71645(15)
H6_7 H 0.93269(16) 0.36839(16) 0.72654(15)
C17_7 C 0.93352(12) 0.39472(12) 0.69021(13)
C18_7 C 0.95996(14) 0.37909(13) 0.67482(14)
O24_9 O 0.89253(9) 0.65180(9) 0.53080(9)
O25_9 O 0.85648(10) 0.68716(10) 0.53059(10)
O26_9 O 0.8042(3) 0.8042(3) 0.5891(5)
N13_9 N 0.86109(19) 0.77094(17) 0.60352(18)
N14_9 N 0.85433(16) 0.79256(17) 0.62575(16)
C28_9 C 0.88126(18) 0.7560(3) 0.61874(18)
C29_9 C 0.89610(17) 0.7281(2) 0.60390(17)
C30_9 C 0.88375(16) 0.71645(15) 0.57728(16)
H10_9 H 0.86839(16) 0.72654(15) 0.56731(16)
C31_9 C 0.89472(12) 0.69021(13) 0.56648(12)
C32_9 C 0.91957(13) 0.67745(18) 0.58043(13)
H11_9 H 0.92722(13) 0.65955(18) 0.57278(13)
C33_9 C 0.87909(13) 0.67482(14) 0.54004(14)
O27_4 O 0.96920(9) 0.65180(9) 0.60747(9)
O28_4 O 0.96941(10) 0.68716(10) 0.64352(10)
N15_9 N 0.89648(18) 0.77094(17) 0.63891(19)
C34_9 C 0.92272(16) 0.71645(15) 0.61625(16)
H12_9 H 0.93269(16) 0.72654(15) 0.63161(16)
C35_9 C 0.93352(12) 0.69021(13) 0.60528(12)
C36_9 C 0.95996(14) 0.67482(14) 0.62091(13)
Cu11_4 Cu 0.67496(5) 0.62195(6) 0.67496(5)
O29_6 O 0.84820(9) 0.53080(9) 0.60747(9)
O30_6 O 0.81284(10) 0.53059(10) 0.64352(10)
O31_6 O 0.6958(3) 0.5891(5) 0.6958(3)
N17_6 N 0.72906(17) 0.60352(18) 0.63891(19)
N18_6 N 0.70744(17) 0.62575(16) 0.64567(16)
C37_6 C 0.7440(3) 0.61874(18) 0.61874(18)
C38_6 C 0.7719(2) 0.60390(17) 0.60390(17)
C39_6 C 0.78355(15) 0.57728(16) 0.61625(16)
H13_6 H 0.77346(15) 0.56731(16) 0.63161(16)
C40_6 C 0.80979(13) 0.56648(12) 0.60528(12)
C41_6 C 0.82255(18) 0.58043(13) 0.58043(13)
H14_6 H 0.84045(18) 0.57278(13) 0.57278(13)
C42_6 C 0.82518(14) 0.54004(14) 0.62091(13)
O32_6 O 0.84820(9) 0.60747(9) 0.53080(9)
O33_6 O 0.81284(10) 0.64352(10) 0.53059(10)
N19_6 N 0.72906(17) 0.63891(19) 0.60352(18)
N20_4 N 0.70744(17) 0.64567(16) 0.62575(16)
C43_6 C 0.78355(15) 0.61625(16) 0.57728(16)
H15_6 H 0.77346(15) 0.63161(16) 0.56731(16)
C44_6 C 0.80979(13) 0.60528(12) 0.56648(12)
C45_6 C 0.82518(14) 0.62091(13) 0.54004(14)
Cu23_4 Cu 0.67496(5) 0.67496(5) 0.62195(6)
O41_6 O 0.84820(9) 0.46920(9) 0.60747(9)
O45_6 O 0.81284(10) 0.46941(10) 0.64352(10)
O49_4 O 0.6607(2) 0.6607(2) 0.6607(2)
N25_6 N 0.79256(17) 0.85433(16) 0.62575(16)
N26_6 N 0.64567(16) 0.62575(16) 0.70744(17)
N27_7 N 0.79256(17) 0.37425(16) 0.85433(16)
O1_14 O 0.9072(3) 0.5928(3) 0.500
O2_14 O 0.79726(16) 0.70274(16) 0.500
Cu12_7 Cu 0.67496(5) 0.67496(5) 0.37805(6)
O34_6 O 0.84820(9) 0.60747(9) 0.46920(9)
O35_6 O 0.81284(10) 0.64352(10) 0.46941(10)
O36_10 O 0.6958(3) 0.6958(3) 0.4109(5)
N21_10 N 0.72906(17) 0.63891(19) 0.39648(18)
N22_10 N 0.70744(17) 0.64567(16) 0.37425(16)
C46_10 C 0.7440(3) 0.61874(18) 0.38126(18)
C47_10 C 0.7719(2) 0.60390(17) 0.39610(17)
C48_10 C 0.78355(15) 0.61625(16) 0.42272(16)
H16_10 H 0.77346(15) 0.63161(16) 0.43269(16)
C49_10 C 0.80979(13) 0.60528(12) 0.43352(12)
C50_10 C 0.82255(18) 0.58043(13) 0.41957(13)
H17_10 H 0.84045(18) 0.57278(13) 0.42722(13)
C51_10 C 0.82518(14) 0.62091(13) 0.45996(14)
N23_10 N 0.72906(17) 0.60352(18) 0.36109(19)
N24_8 N 0.70744(17) 0.62575(16) 0.35433(16)
C52_10 C 0.78355(15) 0.57728(16) 0.38375(16)
H18_10 H 0.77346(15) 0.56731(16) 0.36839(16)
C53_10 C 0.80979(13) 0.56648(12) 0.39472(12)
C54_10 C 0.82518(14) 0.54004(14) 0.37909(13)
Cu19_7 Cu 0.67496(5) 0.62195(6) 0.32504(5)
O50_7 O 0.6607(2) 0.6607(2) 0.3393(2)
N29_9 N 0.64567(16) 0.70744(17) 0.37425(16)
O9_12 O -0.000 0.4072(3) 0.5928(3)
O10_12 O -0.000 0.29726(16) 0.70274(16)
O17_11 O -0.000 0.4072(3) 0.4072(3)
O18_11 O -0.000 0.29726(16) 0.29726(16)
O19_7 O 0.03080(9) 0.34820(9) 0.39253(9)
O20_7 O 0.03059(10) 0.31284(10) 0.35648(10)
O21_7 O 0.0891(5) 0.1958(3) 0.3042(3)
N9_7 N 0.10352(18) 0.22906(17) 0.36109(19)
N10_7 N 0.12575(16) 0.20744(17) 0.35433(16)
C19_7 C 0.11874(18) 0.2440(3) 0.38126(18)
C20_7 C 0.10390(17) 0.2719(2) 0.39610(17)
C21_7 C 0.07728(16) 0.28355(15) 0.38375(16)
H7_7 H 0.06731(16) 0.27346(15) 0.36839(16)
C22_7 C 0.06648(12) 0.30979(13) 0.39472(12)
C23_7 C 0.08043(13) 0.32255(18) 0.41957(13)
H8_7 H 0.07278(13) 0.34045(18) 0.42722(13)
C24_7 C 0.04004(14) 0.32518(14) 0.37909(13)
N11_7 N 0.13891(19) 0.22906(17) 0.39648(18)
N12_6 N 0.14567(16) 0.20744(17) 0.37425(16)
C25_7 C 0.11625(16) 0.28355(15) 0.42272(16)
H9_7 H 0.13161(16) 0.27346(15) 0.43269(16)
C26_7 C 0.10528(12) 0.30979(13) 0.43352(12)
C27_7 C 0.12091(13) 0.32518(14) 0.45996(14)
O9_13 O 1.000 0.4072(3) 0.5928(3)
O10_13 O 1.000 0.29726(16) 0.70274(16)
O11_8 O 0.96920(9) 0.34820(9) 0.60747(9)
O12_8 O 0.96941(10) 0.31284(10) 0.64352(10)
O14_8 O 0.9109(5) 0.1958(3) 0.6958(3)
N5_8 N 0.89648(18) 0.22906(17) 0.63891(19)
N6_8 N 0.87425(16) 0.20744(17) 0.64567(16)
C10_8 C 0.88126(18) 0.2440(3) 0.61874(18)
C11_8 C 0.89610(17) 0.2719(2) 0.60390(17)
C12_8 C 0.92272(16) 0.28355(15) 0.61625(16)
H4_8 H 0.93269(16) 0.27346(15) 0.63161(16)
C13_8 C 0.93352(12) 0.30979(13) 0.60528(12)
C14_8 C 0.91957(13) 0.32255(18) 0.58043(13)
H5_8 H 0.92722(13) 0.34045(18) 0.57278(13)
C15_8 C 0.95996(14) 0.32518(14) 0.62091(13)
O15_6 O 0.89253(9) 0.34820(9) 0.53080(9)
O16_6 O 0.85648(10) 0.31284(10) 0.53059(10)
N7_8 N 0.86109(19) 0.22906(17) 0.60352(18)
N8_7 N 0.85433(16) 0.20744(17) 0.62575(16)
C16_8 C 0.88375(16) 0.28355(15) 0.57728(16)
H6_8 H 0.86839(16) 0.27346(15) 0.56731(16)
C17_8 C 0.89472(12) 0.30979(13) 0.56648(12)
C18_8 C 0.87909(13) 0.32518(14) 0.54004(14)
O17_12 O 1.000 0.4072(3) 0.4072(3)
O18_12 O 1.000 0.29726(16) 0.29726(16)
Cu15_6 Cu 0.831332(17) 0.331332(17) 0.500
Cu18_6 Cu 0.873437(18) 0.373437(18) 0.500
O39_6 O 0.96920(9) 0.39253(9) 0.34820(9)
O42_6 O 0.96920(9) 0.34820(9) 0.39253(9)
O43_6 O 0.96941(10) 0.35648(10) 0.31284(10)
O46_6 O 0.96941(10) 0.31284(10) 0.35648(10)
Cu10_6 Cu 0.67496(5) 0.32504(5) 0.62195(6)
O24_10 O 0.84820(9) 0.39253(9) 0.53080(9)
O25_10 O 0.81284(10) 0.35648(10) 0.53059(10)
O26_10 O 0.6958(3) 0.3042(3) 0.5891(5)
N13_10 N 0.72906(17) 0.36109(19) 0.60352(18)
N14_10 N 0.70744(17) 0.35433(16) 0.62575(16)
C28_10 C 0.7440(3) 0.38126(18) 0.61874(18)
C29_10 C 0.7719(2) 0.39610(17) 0.60390(17)
C30_10 C 0.78355(15) 0.38375(16) 0.57728(16)
H10_10 H 0.77346(15) 0.36839(16) 0.56731(16)
C31_10 C 0.80979(13) 0.39472(12) 0.56648(12)
C32_10 C 0.82255(18) 0.41957(13) 0.58043(13)
H11_10 H 0.84045(18) 0.42722(13) 0.57278(13)
C33_10 C 0.82518(14) 0.37909(13) 0.54004(14)
N15_10 N 0.72906(17) 0.39648(18) 0.63891(19)
N16_9 N 0.70744(17) 0.37425(16) 0.64567(16)
C34_10 C 0.78355(15) 0.42272(16) 0.61625(16)
H12_10 H 0.77346(15) 0.43269(16) 0.63161(16)
C35_10 C 0.80979(13) 0.43352(12) 0.60528(12)
C36_10 C 0.82518(14) 0.45996(14) 0.62091(13)
Cu22_6 Cu 0.67496(5) 0.37805(6) 0.67496(5)
O48_6 O 0.6607(2) 0.3393(2) 0.6607(2)
N25_7 N 0.64567(16) 0.29256(17) 0.62575(16)
O17_13 O 0.9072(3) 0.4072(3) 0.500
O18_13 O 0.79726(16) 0.29726(16) 0.500
O19_8 O 0.89253(9) 0.34820(9) 0.46920(9)
O20_8 O 0.85648(10) 0.31284(10) 0.46941(10)
O21_8 O 0.8042(3) 0.1958(3) 0.4109(5)
N9_8 N 0.86109(19) 0.22906(17) 0.39648(18)
N10_8 N 0.85433(16) 0.20744(17) 0.37425(16)
C19_8 C 0.88126(18) 0.2440(3) 0.38126(18)
C20_8 C 0.89610(17) 0.2719(2) 0.39610(17)
C21_8 C 0.88375(16) 0.28355(15) 0.42272(16)
H7_8 H 0.86839(16) 0.27346(15) 0.43269(16)
C22_8 C 0.89472(12) 0.30979(13) 0.43352(12)
C23_8 C 0.91957(13) 0.32255(18) 0.41957(13)
H8_8 H 0.92722(13) 0.34045(18) 0.42722(13)
C24_8 C 0.87909(13) 0.32518(14) 0.45996(14)
N11_8 N 0.89648(18) 0.22906(17) 0.36109(19)
C25_8 C 0.92272(16) 0.28355(15) 0.38375(16)
H9_8 H 0.93269(16) 0.27346(15) 0.36839(16)
C26_8 C 0.93352(12) 0.30979(13) 0.39472(12)
C27_8 C 0.95996(14) 0.32518(14) 0.37909(13)
O36_11 O 0.9109(5) 0.3042(3) 0.1958(3)
N21_11 N 0.89648(18) 0.36109(19) 0.22906(17)
N22_11 N 0.87425(16) 0.35433(16) 0.20744(17)
C46_11 C 0.88126(18) 0.38126(18) 0.2440(3)
C47_11 C 0.89610(17) 0.39610(17) 0.2719(2)
C48_11 C 0.92272(16) 0.38375(16) 0.28355(15)
H16_11 H 0.93269(16) 0.36839(16) 0.27346(15)
C49_11 C 0.93352(12) 0.39472(12) 0.30979(13)
C50_11 C 0.91957(13) 0.41957(13) 0.32255(18)
H17_11 H 0.92722(13) 0.42722(13) 0.34045(18)
C51_11 C 0.95996(14) 0.37909(13) 0.32518(14)
N23_11 N 0.86109(19) 0.39648(18) 0.22906(17)
N24_9 N 0.85433(16) 0.37425(16) 0.20744(17)
C52_11 C 0.88375(16) 0.42272(16) 0.28355(15)
H18_11 H 0.86839(16) 0.43269(16) 0.27346(15)
C53_11 C 0.89472(12) 0.43352(12) 0.30979(13)
C54_11 C 0.87909(13) 0.45996(14) 0.32518(14)
O40_6 O 0.84820(9) 0.39253(9) 0.46920(9)
O44_6 O 0.81284(10) 0.35648(10) 0.46941(10)
N28_7 N 0.79256(17) 0.14567(16) 0.37425(16)
Cu12_8 Cu 0.67496(5) 0.37805(6) 0.32504(5)
O36_12 O 0.6958(3) 0.4109(5) 0.3042(3)
N21_12 N 0.72906(17) 0.39648(18) 0.36109(19)
N22_12 N 0.70744(17) 0.37425(16) 0.35433(16)
C46_12 C 0.7440(3) 0.38126(18) 0.38126(18)
C47_12 C 0.7719(2) 0.39610(17) 0.39610(17)
C48_12 C 0.78355(15) 0.42272(16) 0.38375(16)
H16_12 H 0.77346(15) 0.43269(16) 0.36839(16)
C49_12 C 0.80979(13) 0.43352(12) 0.39472(12)
C50_12 C 0.82255(18) 0.41957(13) 0.41957(13)
H17_12 H 0.84045(18) 0.42722(13) 0.42722(13)
C51_12 C 0.82518(14) 0.45996(14) 0.37909(13)
N23_12 N 0.72906(17) 0.36109(19) 0.39648(18)
N24_10 N 0.70744(17) 0.35433(16) 0.37425(16)
C52_12 C 0.78355(15) 0.38375(16) 0.42272(16)
H18_12 H 0.77346(15) 0.36839(16) 0.43269(16)
C53_12 C 0.80979(13) 0.39472(12) 0.43352(12)
C54_12 C 0.82518(14) 0.37909(13) 0.45996(14)
Cu19_8 Cu 0.67496(5) 0.32504(5) 0.37805(6)
O50_8 O 0.6607(2) 0.3393(2) 0.3393(2)
N29_10 N 0.64567(16) 0.37425(16) 0.29256(17)
Cu25_15 Cu 0.62195(6) 0.32504(5) 0.32504(5)
Cu26_15 Cu 0.62195(6) 0.67496(5) 0.32504(5)
Cu25_16 Cu 0.62195(6) 0.67496(5) 0.67496(5)
Cu26_16 Cu 0.62195(6) 0.32504(5) 0.67496(5)
Cu1_4 Cu 0.668668(17) 0.168668(17) 0.500
Cu2_4 Cu 0.626563(18) 0.126563(18) 0.500
O1_15 O 0.5928(3) 0.0928(3) 0.500
O2_15 O 0.70274(16) 0.20274(16) 0.500
O3_5 O 0.65180(9) 0.10747(9) 0.53080(9)
O4_5 O 0.68716(10) 0.14352(10) 0.53059(10)
O6_5 O 0.8042(3) 0.1958(3) 0.5891(5)
N1_5 N 0.77094(17) 0.13891(19) 0.60352(18)
N2_5 N 0.79256(17) 0.14567(16) 0.62575(16)
C1_5 C 0.7560(3) 0.11874(18) 0.61874(18)
C2_5 C 0.7281(2) 0.10390(17) 0.60390(17)
C3_5 C 0.71645(15) 0.11625(16) 0.57728(16)
H1_5 H 0.72654(15) 0.13161(16) 0.56731(16)
C4_5 C 0.69021(13) 0.10528(12) 0.56648(12)
C5_5 C 0.67745(18) 0.08043(13) 0.58043(13)
H2_5 H 0.65955(18) 0.07278(13) 0.57278(13)
C6_5 C 0.67482(14) 0.12091(13) 0.54004(14)
O7_5 O 0.65180(9) 0.03080(9) 0.60747(9)
O8_5 O 0.68716(10) 0.03059(10) 0.64352(10)
N3_5 N 0.77094(17) 0.10352(18) 0.63891(19)
C7_5 C 0.71645(15) 0.07728(16) 0.61625(16)
H3_5 H 0.72654(15) 0.06731(16) 0.63161(16)
C8_5 C 0.69021(13) 0.06648(12) 0.60528(12)
C9_5 C 0.67482(14) 0.04004(14) 0.62091(13)
Cu4_7 Cu 0.668668(17) -0.000 0.668668(17)
Cu5_7 Cu 0.626563(18) -0.000 0.626563(18)
O9_14 O 0.5928(3) 0.000 0.5928(3)
O10_14 O 0.70274(16) -0.000 0.70274(16)
Cu7_7 Cu 0.668668(17) 0.000 0.331332(17)
Cu8_7 Cu 0.626563(18) 0.000 0.373437(18)
O17_14 O 0.5928(3) -0.000 0.4072(3)
O18_14 O 0.70274(16) 0.000 0.29726(16)
O19_9 O 0.65180(9) 0.03080(9) 0.39253(9)
O20_9 O 0.68716(10) 0.03059(10) 0.35648(10)
O21_9 O 0.8042(3) 0.0891(5) 0.3042(3)
N9_9 N 0.77094(17) 0.10352(18) 0.36109(19)
N10_9 N 0.79256(17) 0.12575(16) 0.35433(16)
C19_9 C 0.7560(3) 0.11874(18) 0.38126(18)
C20_9 C 0.7281(2) 0.10390(17) 0.39610(17)
C21_9 C 0.71645(15) 0.07728(16) 0.38375(16)
H7_9 H 0.72654(15) 0.06731(16) 0.36839(16)
C22_9 C 0.69021(13) 0.06648(12) 0.39472(12)
C23_9 C 0.67745(18) 0.08043(13) 0.41957(13)
H8_9 H 0.65955(18) 0.07278(13) 0.42722(13)
C24_9 C 0.67482(14) 0.04004(14) 0.37909(13)
O22_5 O 0.65180(9) 0.10747(9) 0.46920(9)
O23_5 O 0.68716(10) 0.14352(10) 0.46941(10)
N11_9 N 0.77094(17) 0.13891(19) 0.39648(18)
C25_9 C 0.71645(15) 0.11625(16) 0.42272(16)
H9_9 H 0.72654(15) 0.13161(16) 0.43269(16)
C26_9 C 0.69021(13) 0.10528(12) 0.43352(12)
C27_9 C 0.67482(14) 0.12091(13) 0.45996(14)
O24_11 O 0.53080(9) 0.15180(9) 0.60747(9)
O25_11 O 0.53059(10) 0.18716(10) 0.64352(10)
O26_11 O 0.5891(5) 0.3042(3) 0.6958(3)
N13_11 N 0.60352(18) 0.27094(17) 0.63891(19)
N14_11 N 0.62575(16) 0.29256(17) 0.64567(16)
C28_11 C 0.61874(18) 0.2560(3) 0.61874(18)
C29_11 C 0.60390(17) 0.2281(2) 0.60390(17)
C30_11 C 0.57728(16) 0.21645(15) 0.61625(16)
H10_11 H 0.56731(16) 0.22654(15) 0.63161(16)
C31_11 C 0.56648(12) 0.19021(13) 0.60528(12)
C32_11 C 0.58043(13) 0.17745(18) 0.58043(13)
H11_11 H 0.57278(13) 0.15955(18) 0.57278(13)
C33_11 C 0.54004(14) 0.17482(14) 0.62091(13)
O27_5 O 0.60747(9) 0.15180(9) 0.53080(9)
O28_5 O 0.64352(10) 0.18716(10) 0.53059(10)
N15_11 N 0.63891(19) 0.27094(17) 0.60352(18)
C34_11 C 0.61625(16) 0.21645(15) 0.57728(16)
H12_11 H 0.63161(16) 0.22654(15) 0.56731(16)
C35_11 C 0.60528(12) 0.19021(13) 0.56648(12)
C36_11 C 0.62091(13) 0.17482(14) 0.54004(14)
O29_7 O 0.60747(9) 0.03080(9) 0.65180(9)
O30_7 O 0.64352(10) 0.03059(10) 0.68716(10)
O31_7 O 0.6958(3) 0.0891(5) 0.8042(3)
N17_7 N 0.63891(19) 0.10352(18) 0.77094(17)
N18_7 N 0.64567(16) 0.12575(16) 0.79256(17)
C37_7 C 0.61874(18) 0.11874(18) 0.7560(3)
C38_7 C 0.60390(17) 0.10390(17) 0.7281(2)
C39_7 C 0.61625(16) 0.07728(16) 0.71645(15)
H13_7 H 0.63161(16) 0.06731(16) 0.72654(15)
C40_7 C 0.60528(12) 0.06648(12) 0.69021(13)
C41_7 C 0.58043(13) 0.08043(13) 0.67745(18)
H14_7 H 0.57278(13) 0.07278(13) 0.65955(18)
C42_7 C 0.62091(13) 0.04004(14) 0.67482(14)
O32_7 O 0.53080(9) 0.10747(9) 0.65180(9)
O33_7 O 0.53059(10) 0.14352(10) 0.68716(10)
N19_7 N 0.60352(18) 0.13891(19) 0.77094(17)
N20_5 N 0.62575(16) 0.14567(16) 0.79256(17)
C43_7 C 0.57728(16) 0.11625(16) 0.71645(15)
H15_7 H 0.56731(16) 0.13161(16) 0.72654(15)
C44_7 C 0.56648(12) 0.10528(12) 0.69021(13)
C45_7 C 0.54004(14) 0.12091(13) 0.67482(14)
O34_7 O 0.60747(9) 0.15180(9) 0.46920(9)
O35_7 O 0.64352(10) 0.18716(10) 0.46941(10)
O36_13 O 0.6958(3) 0.3042(3) 0.4109(5)
N21_13 N 0.63891(19) 0.27094(17) 0.39648(18)
N22_13 N 0.64567(16) 0.29256(17) 0.37425(16)
C46_13 C 0.61874(18) 0.2560(3) 0.38126(18)
C47_13 C 0.60390(17) 0.2281(2) 0.39610(17)
C48_13 C 0.61625(16) 0.21645(15) 0.42272(16)
H16_13 H 0.63161(16) 0.22654(15) 0.43269(16)
C49_13 C 0.60528(12) 0.19021(13) 0.43352(12)
C50_13 C 0.58043(13) 0.17745(18) 0.41957(13)
H17_13 H 0.57278(13) 0.15955(18) 0.42722(13)
C51_13 C 0.62091(13) 0.17482(14) 0.45996(14)
O37_7 O 0.53080(9) 0.15180(9) 0.39253(9)
O38_7 O 0.53059(10) 0.18716(10) 0.35648(10)
N23_13 N 0.60352(18) 0.27094(17) 0.36109(19)
N24_11 N 0.62575(16) 0.29256(17) 0.35433(16)
C52_13 C 0.57728(16) 0.21645(15) 0.38375(16)
H18_13 H 0.56731(16) 0.22654(15) 0.36839(16)
C53_13 C 0.56648(12) 0.19021(13) 0.39472(12)
C54_13 C 0.54004(14) 0.17482(14) 0.37909(13)
Cu13_12 Cu 0.500 0.168668(17) 0.331332(17)
Cu14_9 Cu 0.500 0.168668(17) 0.668668(17)
Cu16_12 Cu 0.500 0.126563(18) 0.373437(18)
Cu17_9 Cu 0.500 0.126563(18) 0.626563(18)
O40_7 O 0.60747(9) 0.03080(9) 0.34820(9)
O44_7 O 0.64352(10) 0.03059(10) 0.31284(10)
N25_8 N 0.62575(16) 0.35433(16) 0.70744(17)
Cu4_8 Cu 0.668668(17) 1.000 0.668668(17)
Cu5_8 Cu 0.626563(18) 1.000 0.626563(18)
O9_15 O 0.5928(3) 1.000 0.5928(3)
O10_15 O 0.70274(16) 1.000 0.70274(16)
O11_9 O 0.65180(9) 0.96920(9) 0.60747(9)
O12_9 O 0.68716(10) 0.96941(10) 0.64352(10)
O14_9 O 0.8042(3) 0.9109(5) 0.6958(3)
N5_9 N 0.77094(17) 0.89648(18) 0.63891(19)
N6_9 N 0.79256(17) 0.87425(16) 0.64567(16)
C10_9 C 0.7560(3) 0.88126(18) 0.61874(18)
C11_9 C 0.7281(2) 0.89610(17) 0.60390(17)
C12_9 C 0.71645(15) 0.92272(16) 0.61625(16)
H4_9 H 0.72654(15) 0.93269(16) 0.63161(16)
C13_9 C 0.69021(13) 0.93352(12) 0.60528(12)
C14_9 C 0.67745(18) 0.91957(13) 0.58043(13)
H5_9 H 0.65955(18) 0.92722(13) 0.57278(13)
C15_9 C 0.67482(14) 0.95996(14) 0.62091(13)
O15_7 O 0.65180(9) 0.89253(9) 0.53080(9)
O16_7 O 0.68716(10) 0.85648(10) 0.53059(10)
N7_9 N 0.77094(17) 0.86109(19) 0.60352(18)
C16_9 C 0.71645(15) 0.88375(16) 0.57728(16)
H6_9 H 0.72654(15) 0.86839(16) 0.56731(16)
C17_9 C 0.69021(13) 0.89472(12) 0.56648(12)
C18_9 C 0.67482(14) 0.87909(13) 0.54004(14)
Cu7_8 Cu 0.668668(17) 1.000 0.331332(17)
Cu8_8 Cu 0.626563(18) 1.000 0.373437(18)
O17_15 O 0.5928(3) 1.000 0.4072(3)
O18_15 O 0.70274(16) 1.000 0.29726(16)
Cu15_7 Cu 0.668668(17) 0.831332(17) 0.500
Cu18_7 Cu 0.626563(18) 0.873437(18) 0.500
O39_7 O 0.60747(9) 0.96920(9) 0.34820(9)
O41_7 O 0.60747(9) 0.96920(9) 0.65180(9)
O42_7 O 0.65180(9) 0.96920(9) 0.39253(9)
O43_7 O 0.64352(10) 0.96941(10) 0.31284(10)
O45_7 O 0.64352(10) 0.96941(10) 0.68716(10)
O46_7 O 0.68716(10) 0.96941(10) 0.35648(10)
O9_16 O 0.5928(3) 0.9072(3) 0.500
O10_16 O 0.70274(16) 0.79726(16) 0.500
O11_10 O 0.65180(9) 0.89253(9) 0.46920(9)
O12_10 O 0.68716(10) 0.85648(10) 0.46941(10)
O14_10 O 0.8042(3) 0.8042(3) 0.4109(5)
N5_10 N 0.77094(17) 0.86109(19) 0.39648(18)
N6_10 N 0.79256(17) 0.85433(16) 0.37425(16)
C10_10 C 0.7560(3) 0.88126(18) 0.38126(18)
C11_10 C 0.7281(2) 0.89610(17) 0.39610(17)
C12_10 C 0.71645(15) 0.88375(16) 0.42272(16)
H4_10 H 0.72654(15) 0.86839(16) 0.43269(16)
C13_10 C 0.69021(13) 0.89472(12) 0.43352(12)
C14_10 C 0.67745(18) 0.91957(13) 0.41957(13)
H5_10 H 0.65955(18) 0.92722(13) 0.42722(13)
C15_10 C 0.67482(14) 0.87909(13) 0.45996(14)
N7_10 N 0.77094(17) 0.89648(18) 0.36109(19)
C16_10 C 0.71645(15) 0.92272(16) 0.38375(16)
H6_10 H 0.72654(15) 0.93269(16) 0.36839(16)
C17_10 C 0.69021(13) 0.93352(12) 0.39472(12)
C18_10 C 0.67482(14) 0.95996(14) 0.37909(13)
O24_12 O 0.53080(9) 0.89253(9) 0.65180(9)
O25_12 O 0.53059(10) 0.85648(10) 0.68716(10)
O26_12 O 0.5891(5) 0.8042(3) 0.8042(3)
N13_12 N 0.60352(18) 0.86109(19) 0.77094(17)
N14_12 N 0.62575(16) 0.85433(16) 0.79256(17)
C28_12 C 0.61874(18) 0.88126(18) 0.7560(3)
C29_12 C 0.60390(17) 0.89610(17) 0.7281(2)
C30_12 C 0.57728(16) 0.88375(16) 0.71645(15)
H10_12 H 0.56731(16) 0.86839(16) 0.72654(15)
C31_12 C 0.56648(12) 0.89472(12) 0.69021(13)
C32_12 C 0.58043(13) 0.91957(13) 0.67745(18)
H11_12 H 0.57278(13) 0.92722(13) 0.65955(18)
C33_12 C 0.54004(14) 0.87909(13) 0.67482(14)
N15_12 N 0.63891(19) 0.89648(18) 0.77094(17)
C34_12 C 0.61625(16) 0.92272(16) 0.71645(15)
H12_12 H 0.63161(16) 0.93269(16) 0.72654(15)
C35_12 C 0.60528(12) 0.93352(12) 0.69021(13)
C36_12 C 0.62091(13) 0.95996(14) 0.67482(14)
O29_8 O 0.60747(9) 0.84820(9) 0.53080(9)
O30_8 O 0.64352(10) 0.81284(10) 0.53059(10)
O31_8 O 0.6958(3) 0.6958(3) 0.5891(5)
N17_8 N 0.63891(19) 0.72906(17) 0.60352(18)
N18_8 N 0.64567(16) 0.70744(17) 0.62575(16)
C37_8 C 0.61874(18) 0.7440(3) 0.61874(18)
C38_8 C 0.60390(17) 0.7719(2) 0.60390(17)
C39_8 C 0.61625(16) 0.78355(15) 0.57728(16)
H13_8 H 0.63161(16) 0.77346(15) 0.56731(16)
C40_8 C 0.60528(12) 0.80979(13) 0.56648(12)
C41_8 C 0.58043(13) 0.82255(18) 0.58043(13)
H14_8 H 0.57278(13) 0.84045(18) 0.57278(13)
C42_8 C 0.62091(13) 0.82518(14) 0.54004(14)
O32_8 O 0.53080(9) 0.84820(9) 0.60747(9)
O33_8 O 0.53059(10) 0.81284(10) 0.64352(10)
N19_8 N 0.60352(18) 0.72906(17) 0.63891(19)
N20_6 N 0.62575(16) 0.70744(17) 0.64567(16)
C43_8 C 0.57728(16) 0.78355(15) 0.61625(16)
H15_8 H 0.56731(16) 0.77346(15) 0.63161(16)
C44_8 C 0.56648(12) 0.80979(13) 0.60528(12)
C45_8 C 0.54004(14) 0.82518(14) 0.62091(13)
Cu14_10 Cu 0.500 0.831332(17) 0.668668(17)
Cu17_10 Cu 0.500 0.873437(18) 0.626563(18)
O41_8 O 0.60747(9) 0.84820(9) 0.46920(9)
O45_8 O 0.64352(10) 0.81284(10) 0.46941(10)
N25_9 N 0.62575(16) 0.79256(17) 0.85433(16)
O24_13 O 0.53080(9) 0.10747(9) 0.34820(9)
O25_13 O 0.53059(10) 0.14352(10) 0.31284(10)
O26_13 O 0.5891(5) 0.1958(3) 0.1958(3)
N13_13 N 0.60352(18) 0.13891(19) 0.22906(17)
N14_13 N 0.62575(16) 0.14567(16) 0.20744(17)
C28_13 C 0.61874(18) 0.11874(18) 0.2440(3)
C29_13 C 0.60390(17) 0.10390(17) 0.2719(2)
C30_13 C 0.57728(16) 0.11625(16) 0.28355(15)
H10_13 H 0.56731(16) 0.13161(16) 0.27346(15)
C31_13 C 0.56648(12) 0.10528(12) 0.30979(13)
C32_13 C 0.58043(13) 0.08043(13) 0.32255(18)
H11_13 H 0.57278(13) 0.07278(13) 0.34045(18)
C33_13 C 0.54004(14) 0.12091(13) 0.32518(14)
N15_13 N 0.63891(19) 0.10352(18) 0.22906(17)
C34_13 C 0.61625(16) 0.07728(16) 0.28355(15)
H12_13 H 0.63161(16) 0.06731(16) 0.27346(15)
C35_13 C 0.60528(12) 0.06648(12) 0.30979(13)
C36_13 C 0.62091(13) 0.04004(14) 0.32518(14)
N25_10 N 0.62575(16) 0.20744(17) 0.14567(16)
O36_14 O 0.6958(3) 0.9109(5) 0.1958(3)
N21_14 N 0.63891(19) 0.89648(18) 0.22906(17)
N22_14 N 0.64567(16) 0.87425(16) 0.20744(17)
C46_14 C 0.61874(18) 0.88126(18) 0.2440(3)
C47_14 C 0.60390(17) 0.89610(17) 0.2719(2)
C48_14 C 0.61625(16) 0.92272(16) 0.28355(15)
H16_14 H 0.63161(16) 0.93269(16) 0.27346(15)
C49_14 C 0.60528(12) 0.93352(12) 0.30979(13)
C50_14 C 0.58043(13) 0.91957(13) 0.32255(18)
H17_14 H 0.57278(13) 0.92722(13) 0.34045(18)
C51_14 C 0.62091(13) 0.95996(14) 0.32518(14)
O37_8 O 0.53080(9) 0.89253(9) 0.34820(9)
O38_8 O 0.53059(10) 0.85648(10) 0.31284(10)
N23_14 N 0.60352(18) 0.86109(19) 0.22906(17)
N24_12 N 0.62575(16) 0.85433(16) 0.20744(17)
C52_14 C 0.57728(16) 0.88375(16) 0.28355(15)
H18_14 H 0.56731(16) 0.86839(16) 0.27346(15)
C53_14 C 0.56648(12) 0.89472(12) 0.30979(13)
C54_14 C 0.54004(14) 0.87909(13) 0.32518(14)
Cu13_13 Cu 0.500 0.831332(17) 0.331332(17)
Cu16_13 Cu 0.500 0.873437(18) 0.373437(18)
O1_16 O 0.500 0.0928(3) 0.4072(3)
O2_16 O 0.500 0.20274(16) 0.29726(16)
Cu7_9 Cu 0.331332(17) 0.000 0.331332(17)
Cu8_9 Cu 0.373437(18) 0.000 0.373437(18)
O17_16 O 0.4072(3) -0.000 0.4072(3)
O18_16 O 0.29726(16) 0.000 0.29726(16)
O19_10 O 0.39253(9) 0.03080(9) 0.34820(9)
O20_10 O 0.35648(10) 0.03059(10) 0.31284(10)
O21_10 O 0.3042(3) 0.0891(5) 0.1958(3)
N9_10 N 0.36109(19) 0.10352(18) 0.22906(17)
N10_10 N 0.35433(16) 0.12575(16) 0.20744(17)
C19_10 C 0.38126(18) 0.11874(18) 0.2440(3)
C20_10 C 0.39610(17) 0.10390(17) 0.2719(2)
C21_10 C 0.38375(16) 0.07728(16) 0.28355(15)
H7_10 H 0.36839(16) 0.06731(16) 0.27346(15)
C22_10 C 0.39472(12) 0.06648(12) 0.30979(13)
C23_10 C 0.41957(13) 0.08043(13) 0.32255(18)
H8_10 H 0.42722(13) 0.07278(13) 0.34045(18)
C24_10 C 0.37909(13) 0.04004(14) 0.32518(14)
O22_6 O 0.46920(9) 0.10747(9) 0.34820(9)
O23_6 O 0.46941(10) 0.14352(10) 0.31284(10)
N11_10 N 0.39648(18) 0.13891(19) 0.22906(17)
N12_7 N 0.37425(16) 0.14567(16) 0.20744(17)
C25_10 C 0.42272(16) 0.11625(16) 0.28355(15)
H9_10 H 0.43269(16) 0.13161(16) 0.27346(15)
C26_10 C 0.43352(12) 0.10528(12) 0.30979(13)
C27_10 C 0.45996(14) 0.12091(13) 0.32518(14)
O34_8 O 0.46920(9) 0.15180(9) 0.39253(9)
O35_8 O 0.46941(10) 0.18716(10) 0.35648(10)
O36_15 O 0.4109(5) 0.3042(3) 0.3042(3)
N21_15 N 0.39648(18) 0.27094(17) 0.36109(19)
N22_15 N 0.37425(16) 0.29256(17) 0.35433(16)
C46_15 C 0.38126(18) 0.2560(3) 0.38126(18)
C47_15 C 0.39610(17) 0.2281(2) 0.39610(17)
C48_15 C 0.42272(16) 0.21645(15) 0.38375(16)
H16_15 H 0.43269(16) 0.22654(15) 0.36839(16)
C49_15 C 0.43352(12) 0.19021(13) 0.39472(12)
C50_15 C 0.41957(13) 0.17745(18) 0.41957(13)
H17_15 H 0.42722(13) 0.15955(18) 0.42722(13)
C51_15 C 0.45996(14) 0.17482(14) 0.37909(13)
O37_9 O 0.39253(9) 0.15180(9) 0.46920(9)
O38_9 O 0.35648(10) 0.18716(10) 0.46941(10)
N23_15 N 0.36109(19) 0.27094(17) 0.39648(18)
C52_15 C 0.38375(16) 0.21645(15) 0.42272(16)
H18_15 H 0.36839(16) 0.22654(15) 0.43269(16)
C53_15 C 0.39472(12) 0.19021(13) 0.43352(12)
C54_15 C 0.37909(13) 0.17482(14) 0.45996(14)
Cu13_14 Cu 0.331332(17) 0.168668(17) 0.500
Cu16_14 Cu 0.373437(18) 0.126563(18) 0.500
O40_8 O 0.34820(9) 0.03080(9) 0.39253(9)
O44_8 O 0.31284(10) 0.03059(10) 0.35648(10)
N29_11 N 0.37425(16) 0.35433(16) 0.29256(17)
Cu7_10 Cu 0.331332(17) 1.000 0.331332(17)
Cu8_10 Cu 0.373437(18) 1.000 0.373437(18)
O17_17 O 0.4072(3) 1.000 0.4072(3)
O18_17 O 0.29726(16) 1.000 0.29726(16)
O39_8 O 0.34820(9) 0.96920(9) 0.39253(9)
O42_8 O 0.39253(9) 0.96920(9) 0.34820(9)
O43_8 O 0.31284(10) 0.96941(10) 0.35648(10)
O46_8 O 0.35648(10) 0.96941(10) 0.31284(10)
O1_17 O 0.500 0.0928(3) 0.5928(3)
O2_17 O 0.500 0.20274(16) 0.70274(16)
O3_6 O 0.46920(9) 0.10747(9) 0.65180(9)
O4_6 O 0.46941(10) 0.14352(10) 0.68716(10)
O6_6 O 0.4109(5) 0.1958(3) 0.8042(3)
N1_6 N 0.39648(18) 0.13891(19) 0.77094(17)
N2_6 N 0.37425(16) 0.14567(16) 0.79256(17)
C1_6 C 0.38126(18) 0.11874(18) 0.7560(3)
C2_6 C 0.39610(17) 0.10390(17) 0.7281(2)
C3_6 C 0.42272(16) 0.11625(16) 0.71645(15)
H1_6 H 0.43269(16) 0.13161(16) 0.72654(15)
C4_6 C 0.43352(12) 0.10528(12) 0.69021(13)
C5_6 C 0.41957(13) 0.08043(13) 0.67745(18)
H2_6 H 0.42722(13) 0.07278(13) 0.65955(18)
C6_6 C 0.45996(14) 0.12091(13) 0.67482(14)
O7_6 O 0.39253(9) 0.03080(9) 0.65180(9)
O8_6 O 0.35648(10) 0.03059(10) 0.68716(10)
N3_6 N 0.36109(19) 0.10352(18) 0.77094(17)
C7_6 C 0.38375(16) 0.07728(16) 0.71645(15)
H3_6 H 0.36839(16) 0.06731(16) 0.72654(15)
C8_6 C 0.39472(12) 0.06648(12) 0.69021(13)
C9_6 C 0.37909(13) 0.04004(14) 0.67482(14)
Cu4_9 Cu 0.331332(17) -0.000 0.668668(17)
Cu5_9 Cu 0.373437(18) -0.000 0.626563(18)
O9_17 O 0.4072(3) 0.000 0.5928(3)
O10_17 O 0.29726(16) -0.000 0.70274(16)
O24_14 O 0.39253(9) 0.15180(9) 0.53080(9)
O25_14 O 0.35648(10) 0.18716(10) 0.53059(10)
O26_14 O 0.3042(3) 0.3042(3) 0.5891(5)
N13_14 N 0.36109(19) 0.27094(17) 0.60352(18)
N14_14 N 0.35433(16) 0.29256(17) 0.62575(16)
C28_14 C 0.38126(18) 0.2560(3) 0.61874(18)
C29_14 C 0.39610(17) 0.2281(2) 0.60390(17)
C30_14 C 0.38375(16) 0.21645(15) 0.57728(16)
H10_14 H 0.36839(16) 0.22654(15) 0.56731(16)
C31_14 C 0.39472(12) 0.19021(13) 0.56648(12)
C32_14 C 0.41957(13) 0.17745(18) 0.58043(13)
H11_14 H 0.42722(13) 0.15955(18) 0.57278(13)
C33_14 C 0.37909(13) 0.17482(14) 0.54004(14)
O27_6 O 0.46920(9) 0.15180(9) 0.60747(9)
O28_6 O 0.46941(10) 0.18716(10) 0.64352(10)
N15_14 N 0.39648(18) 0.27094(17) 0.63891(19)
N16_10 N 0.37425(16) 0.29256(17) 0.64567(16)
C34_14 C 0.42272(16) 0.21645(15) 0.61625(16)
H12_14 H 0.43269(16) 0.22654(15) 0.63161(16)
C35_14 C 0.43352(12) 0.19021(13) 0.60528(12)
C36_14 C 0.45996(14) 0.17482(14) 0.62091(13)
O29_9 O 0.34820(9) 0.03080(9) 0.60747(9)
O30_9 O 0.31284(10) 0.03059(10) 0.64352(10)
O31_9 O 0.1958(3) 0.0891(5) 0.6958(3)
N17_9 N 0.22906(17) 0.10352(18) 0.63891(19)
N18_9 N 0.20744(17) 0.12575(16) 0.64567(16)
C37_9 C 0.2440(3) 0.11874(18) 0.61874(18)
C38_9 C 0.2719(2) 0.10390(17) 0.60390(17)
C39_9 C 0.28355(15) 0.07728(16) 0.61625(16)
H13_9 H 0.27346(15) 0.06731(16) 0.63161(16)
C40_9 C 0.30979(13) 0.06648(12) 0.60528(12)
C41_9 C 0.32255(18) 0.08043(13) 0.58043(13)
H14_9 H 0.34045(18) 0.07278(13) 0.57278(13)
C42_9 C 0.32518(14) 0.04004(14) 0.62091(13)
O32_9 O 0.34820(9) 0.10747(9) 0.53080(9)
O33_9 O 0.31284(10) 0.14352(10) 0.53059(10)
N19_9 N 0.22906(17) 0.13891(19) 0.60352(18)
C43_9 C 0.28355(15) 0.11625(16) 0.57728(16)
H15_9 H 0.27346(15) 0.13161(16) 0.56731(16)
C44_9 C 0.30979(13) 0.10528(12) 0.56648(12)
C45_9 C 0.32518(14) 0.12091(13) 0.54004(14)
N30_4 N 0.37425(16) 0.20744(17) 0.85433(16)
Cu4_10 Cu 0.331332(17) 1.000 0.668668(17)
Cu5_10 Cu 0.373437(18) 1.000 0.626563(18)
O9_18 O 0.4072(3) 1.000 0.5928(3)
O10_18 O 0.29726(16) 1.000 0.70274(16)
O11_11 O 0.39253(9) 0.96920(9) 0.65180(9)
O12_11 O 0.35648(10) 0.96941(10) 0.68716(10)
O14_11 O 0.3042(3) 0.9109(5) 0.8042(3)
N5_11 N 0.36109(19) 0.89648(18) 0.77094(17)
N6_11 N 0.35433(16) 0.87425(16) 0.79256(17)
C10_11 C 0.38126(18) 0.88126(18) 0.7560(3)
C11_11 C 0.39610(17) 0.89610(17) 0.7281(2)
C12_11 C 0.38375(16) 0.92272(16) 0.71645(15)
H4_11 H 0.36839(16) 0.93269(16) 0.72654(15)
C13_11 C 0.39472(12) 0.93352(12) 0.69021(13)
C14_11 C 0.41957(13) 0.91957(13) 0.67745(18)
H5_11 H 0.42722(13) 0.92722(13) 0.65955(18)
C15_11 C 0.37909(13) 0.95996(14) 0.67482(14)
O15_8 O 0.46920(9) 0.89253(9) 0.65180(9)
O16_8 O 0.46941(10) 0.85648(10) 0.68716(10)
N7_11 N 0.39648(18) 0.86109(19) 0.77094(17)
N8_8 N 0.37425(16) 0.85433(16) 0.79256(17)
C16_11 C 0.42272(16) 0.88375(16) 0.71645(15)
H6_11 H 0.43269(16) 0.86839(16) 0.72654(15)
C17_11 C 0.43352(12) 0.89472(12) 0.69021(13)
C18_11 C 0.45996(14) 0.87909(13) 0.67482(14)
O41_9 O 0.34820(9) 0.96920(9) 0.60747(9)
O45_9 O 0.31284(10) 0.96941(10) 0.64352(10)
O1_18 O 0.4072(3) 0.0928(3) 0.500
O2_18 O 0.29726(16) 0.20274(16) 0.500
O34_9 O 0.34820(9) 0.10747(9) 0.46920(9)
O35_9 O 0.31284(10) 0.14352(10) 0.46941(10)
O36_16 O 0.1958(3) 0.1958(3) 0.4109(5)
N21_16 N 0.22906(17) 0.13891(19) 0.39648(18)
N22_16 N 0.20744(17) 0.14567(16) 0.37425(16)
C46_16 C 0.2440(3) 0.11874(18) 0.38126(18)
C47_16 C 0.2719(2) 0.10390(17) 0.39610(17)
C48_16 C 0.28355(15) 0.11625(16) 0.42272(16)
H16_16 H 0.27346(15) 0.13161(16) 0.43269(16)
C49_16 C 0.30979(13) 0.10528(12) 0.43352(12)
C50_16 C 0.32255(18) 0.08043(13) 0.41957(13)
H17_16 H 0.34045(18) 0.07278(13) 0.42722(13)
C51_16 C 0.32518(14) 0.12091(13) 0.45996(14)
N23_16 N 0.22906(17) 0.10352(18) 0.36109(19)
C52_16 C 0.28355(15) 0.07728(16) 0.38375(16)
H18_16 H 0.27346(15) 0.06731(16) 0.36839(16)
C53_16 C 0.30979(13) 0.06648(12) 0.39472(12)
C54_16 C 0.32518(14) 0.04004(14) 0.37909(13)
O9_19 O 0.500 0.9072(3) 0.5928(3)
O10_19 O 0.500 0.79726(16) 0.70274(16)
O11_12 O 0.46920(9) 0.84820(9) 0.60747(9)
O12_12 O 0.46941(10) 0.81284(10) 0.64352(10)
O14_12 O 0.4109(5) 0.6958(3) 0.6958(3)
N5_12 N 0.39648(18) 0.72906(17) 0.63891(19)
N6_12 N 0.37425(16) 0.70744(17) 0.64567(16)
C10_12 C 0.38126(18) 0.7440(3) 0.61874(18)
C11_12 C 0.39610(17) 0.7719(2) 0.60390(17)
C12_12 C 0.42272(16) 0.78355(15) 0.61625(16)
H4_12 H 0.43269(16) 0.77346(15) 0.63161(16)
C13_12 C 0.43352(12) 0.80979(13) 0.60528(12)
C14_12 C 0.41957(13) 0.82255(18) 0.58043(13)
H5_12 H 0.42722(13) 0.84045(18) 0.57278(13)
C15_12 C 0.45996(14) 0.82518(14) 0.62091(13)
O15_9 O 0.39253(9) 0.84820(9) 0.53080(9)
O16_9 O 0.35648(10) 0.81284(10) 0.53059(10)
N7_12 N 0.36109(19) 0.72906(17) 0.60352(18)
C16_12 C 0.38375(16) 0.78355(15) 0.57728(16)
H6_12 H 0.36839(16) 0.77346(15) 0.56731(16)
C17_12 C 0.39472(12) 0.80979(13) 0.56648(12)
C18_12 C 0.37909(13) 0.82518(14) 0.54004(14)
O17_18 O 0.500 0.9072(3) 0.4072(3)
O18_18 O 0.500 0.79726(16) 0.29726(16)
O19_11 O 0.53080(9) 0.84820(9) 0.39253(9)
O20_11 O 0.53059(10) 0.81284(10) 0.35648(10)
O21_11 O 0.5891(5) 0.6958(3) 0.3042(3)
N9_11 N 0.60352(18) 0.72906(17) 0.36109(19)
N10_11 N 0.62575(16) 0.70744(17) 0.35433(16)
C19_11 C 0.61874(18) 0.7440(3) 0.38126(18)
C20_11 C 0.60390(17) 0.7719(2) 0.39610(17)
C21_11 C 0.57728(16) 0.78355(15) 0.38375(16)
H7_11 H 0.56731(16) 0.77346(15) 0.36839(16)
C22_11 C 0.56648(12) 0.80979(13) 0.39472(12)
C23_11 C 0.58043(13) 0.82255(18) 0.41957(13)
H8_11 H 0.57278(13) 0.84045(18) 0.42722(13)
C24_11 C 0.54004(14) 0.82518(14) 0.37909(13)
N11_11 N 0.63891(19) 0.72906(17) 0.39648(18)
C25_11 C 0.61625(16) 0.78355(15) 0.42272(16)
H9_11 H 0.63161(16) 0.77346(15) 0.43269(16)
C26_11 C 0.60528(12) 0.80979(13) 0.43352(12)
C27_11 C 0.62091(13) 0.82518(14) 0.45996(14)
Cu15_8 Cu 0.331332(17) 0.831332(17) 0.500
Cu18_8 Cu 0.373437(18) 0.873437(18) 0.500
O39_9 O 0.46920(9) 0.89253(9) 0.34820(9)
O42_9 O 0.46920(9) 0.84820(9) 0.39253(9)
O43_9 O 0.46941(10) 0.85648(10) 0.31284(10)
O46_9 O 0.46941(10) 0.81284(10) 0.35648(10)
N27_8 N 0.37425(16) 0.64567(16) 0.70744(17)
N28_8 N 0.62575(16) 0.64567(16) 0.29256(17)
O24_15 O 0.34820(9) 0.89253(9) 0.53080(9)
O25_15 O 0.31284(10) 0.85648(10) 0.53059(10)
O26_15 O 0.1958(3) 0.8042(3) 0.5891(5)
N13_15 N 0.22906(17) 0.86109(19) 0.60352(18)
N14_15 N 0.20744(17) 0.85433(16) 0.62575(16)
C28_15 C 0.2440(3) 0.88126(18) 0.61874(18)
C29_15 C 0.2719(2) 0.89610(17) 0.60390(17)
C30_15 C 0.28355(15) 0.88375(16) 0.57728(16)
H10_15 H 0.27346(15) 0.86839(16) 0.56731(16)
C31_15 C 0.30979(13) 0.89472(12) 0.56648(12)
C32_15 C 0.32255(18) 0.91957(13) 0.58043(13)
H11_15 H 0.34045(18) 0.92722(13) 0.57278(13)
C33_15 C 0.32518(14) 0.87909(13) 0.54004(14)
N15_15 N 0.22906(17) 0.89648(18) 0.63891(19)
C34_15 C 0.28355(15) 0.92272(16) 0.61625(16)
H12_15 H 0.27346(15) 0.93269(16) 0.63161(16)
C35_15 C 0.30979(13) 0.93352(12) 0.60528(12)
C36_15 C 0.32518(14) 0.95996(14) 0.62091(13)
O17_19 O 0.4072(3) 0.9072(3) 0.500
O18_19 O 0.29726(16) 0.79726(16) 0.500
O19_12 O 0.39253(9) 0.84820(9) 0.46920(9)
O20_12 O 0.35648(10) 0.81284(10) 0.46941(10)
O21_12 O 0.3042(3) 0.6958(3) 0.4109(5)
N9_12 N 0.36109(19) 0.72906(17) 0.39648(18)
N10_12 N 0.35433(16) 0.70744(17) 0.37425(16)
C19_12 C 0.38126(18) 0.7440(3) 0.38126(18)
C20_12 C 0.39610(17) 0.7719(2) 0.39610(17)
C21_12 C 0.38375(16) 0.78355(15) 0.42272(16)
H7_12 H 0.36839(16) 0.77346(15) 0.43269(16)
C22_12 C 0.39472(12) 0.80979(13) 0.43352(12)
C23_12 C 0.41957(13) 0.82255(18) 0.41957(13)
H8_12 H 0.42722(13) 0.84045(18) 0.42722(13)
C24_12 C 0.37909(13) 0.82518(14) 0.45996(14)
N11_12 N 0.39648(18) 0.72906(17) 0.36109(19)
N12_8 N 0.37425(16) 0.70744(17) 0.35433(16)
C25_12 C 0.42272(16) 0.78355(15) 0.38375(16)
H9_12 H 0.43269(16) 0.77346(15) 0.36839(16)
C26_12 C 0.43352(12) 0.80979(13) 0.39472(12)
C27_12 C 0.45996(14) 0.82518(14) 0.37909(13)
O36_17 O 0.4109(5) 0.8042(3) 0.1958(3)
N21_17 N 0.39648(18) 0.86109(19) 0.22906(17)
N22_17 N 0.37425(16) 0.85433(16) 0.20744(17)
C46_17 C 0.38126(18) 0.88126(18) 0.2440(3)
C47_17 C 0.39610(17) 0.89610(17) 0.2719(2)
C48_17 C 0.42272(16) 0.88375(16) 0.28355(15)
H16_17 H 0.43269(16) 0.86839(16) 0.27346(15)
C49_17 C 0.43352(12) 0.89472(12) 0.30979(13)
C50_17 C 0.41957(13) 0.91957(13) 0.32255(18)
H17_17 H 0.42722(13) 0.92722(13) 0.34045(18)
C51_17 C 0.45996(14) 0.87909(13) 0.32518(14)
N23_17 N 0.36109(19) 0.89648(18) 0.22906(17)
C52_17 C 0.38375(16) 0.92272(16) 0.28355(15)
H18_17 H 0.36839(16) 0.93269(16) 0.27346(15)
C53_17 C 0.39472(12) 0.93352(12) 0.30979(13)
C54_17 C 0.37909(13) 0.95996(14) 0.32518(14)
O40_9 O 0.34820(9) 0.89253(9) 0.46920(9)
O44_9 O 0.31284(10) 0.85648(10) 0.46941(10)
N29_12 N 0.37425(16) 0.79256(17) 0.14567(16)
O36_18 O 0.1958(3) 0.9109(5) 0.3042(3)
N21_18 N 0.22906(17) 0.89648(18) 0.36109(19)
N22_18 N 0.20744(17) 0.87425(16) 0.35433(16)
C46_18 C 0.2440(3) 0.88126(18) 0.38126(18)
C47_18 C 0.2719(2) 0.89610(17) 0.39610(17)
C48_18 C 0.28355(15) 0.92272(16) 0.38375(16)
H16_18 H 0.27346(15) 0.93269(16) 0.36839(16)
C49_18 C 0.30979(13) 0.93352(12) 0.39472(12)
C50_18 C 0.32255(18) 0.91957(13) 0.41957(13)
H17_18 H 0.34045(18) 0.92722(13) 0.42722(13)
C51_18 C 0.32518(14) 0.95996(14) 0.37909(13)
N23_18 N 0.22906(17) 0.86109(19) 0.39648(18)
C52_18 C 0.28355(15) 0.88375(16) 0.42272(16)
H18_18 H 0.27346(15) 0.86839(16) 0.43269(16)
C53_18 C 0.30979(13) 0.89472(12) 0.43352(12)
C54_18 C 0.32518(14) 0.87909(13) 0.45996(14)
Cu1_5 Cu 0.668668(17) 0.668668(17) 0.000
Cu2_5 Cu 0.626563(18) 0.626563(18) 0.000
O1_19 O 0.5928(3) 0.5928(3) 0.000
O2_19 O 0.70274(16) 0.70274(16) 0.000
O3_7 O 0.65180(9) 0.60747(9) 0.03080(9)
O4_7 O 0.68716(10) 0.64352(10) 0.03059(10)
O6_7 O 0.8042(3) 0.6958(3) 0.0891(5)
N1_7 N 0.77094(17) 0.63891(19) 0.10352(18)
N2_7 N 0.79256(17) 0.64567(16) 0.12575(16)
C1_7 C 0.7560(3) 0.61874(18) 0.11874(18)
C2_7 C 0.7281(2) 0.60390(17) 0.10390(17)
C3_7 C 0.71645(15) 0.61625(16) 0.07728(16)
H1_7 H 0.72654(15) 0.63161(16) 0.06731(16)
C4_7 C 0.69021(13) 0.60528(12) 0.06648(12)
C5_7 C 0.67745(18) 0.58043(13) 0.08043(13)
H2_7 H 0.65955(18) 0.57278(13) 0.07278(13)
C6_7 C 0.67482(14) 0.62091(13) 0.04004(14)
O7_7 O 0.65180(9) 0.53080(9) 0.10747(9)
O8_7 O 0.68716(10) 0.53059(10) 0.14352(10)
N3_7 N 0.77094(17) 0.60352(18) 0.13891(19)
C7_7 C 0.71645(15) 0.57728(16) 0.11625(16)
H3_7 H 0.72654(15) 0.56731(16) 0.13161(16)
C8_7 C 0.69021(13) 0.56648(12) 0.10528(12)
C9_7 C 0.67482(14) 0.54004(14) 0.12091(13)
Cu4_11 Cu 0.668668(17) 0.500 0.168668(17)
Cu5_11 Cu 0.626563(18) 0.500 0.126563(18)
O9_20 O 0.5928(3) 0.500 0.0928(3)
O10_20 O 0.70274(16) 0.500 0.20274(16)
O11_13 O 0.65180(9) 0.46920(9) 0.10747(9)
O12_13 O 0.68716(10) 0.46941(10) 0.14352(10)
O14_13 O 0.8042(3) 0.4109(5) 0.1958(3)
N5_13 N 0.77094(17) 0.39648(18) 0.13891(19)
N6_13 N 0.79256(17) 0.37425(16) 0.14567(16)
C10_13 C 0.7560(3) 0.38126(18) 0.11874(18)
C11_13 C 0.7281(2) 0.39610(17) 0.10390(17)
C12_13 C 0.71645(15) 0.42272(16) 0.11625(16)
H4_13 H 0.72654(15) 0.43269(16) 0.13161(16)
C13_13 C 0.69021(13) 0.43352(12) 0.10528(12)
C14_13 C 0.67745(18) 0.41957(13) 0.08043(13)
H5_13 H 0.65955(18) 0.42722(13) 0.07278(13)
C15_13 C 0.67482(14) 0.45996(14) 0.12091(13)
O15_10 O 0.65180(9) 0.39253(9) 0.03080(9)
O16_10 O 0.68716(10) 0.35648(10) 0.03059(10)
N7_13 N 0.77094(17) 0.36109(19) 0.10352(18)
C16_13 C 0.71645(15) 0.38375(16) 0.07728(16)
H6_13 H 0.72654(15) 0.36839(16) 0.06731(16)
C17_13 C 0.69021(13) 0.39472(12) 0.06648(12)
C18_13 C 0.67482(14) 0.37909(13) 0.04004(14)
O24_16 O 0.53080(9) 0.65180(9) 0.10747(9)
O25_16 O 0.53059(10) 0.68716(10) 0.14352(10)
O26_16 O 0.5891(5) 0.8042(3) 0.1958(3)
N13_16 N 0.60352(18) 0.77094(17) 0.13891(19)
N14_16 N 0.62575(16) 0.79256(17) 0.14567(16)
C28_16 C 0.61874(18) 0.7560(3) 0.11874(18)
C29_16 C 0.60390(17) 0.7281(2) 0.10390(17)
C30_16 C 0.57728(16) 0.71645(15) 0.11625(16)
H10_16 H 0.56731(16) 0.72654(15) 0.13161(16)
C31_16 C 0.56648(12) 0.69021(13) 0.10528(12)
C32_16 C 0.58043(13) 0.67745(18) 0.08043(13)
H11_16 H 0.57278(13) 0.65955(18) 0.07278(13)
C33_16 C 0.54004(14) 0.67482(14) 0.12091(13)
O27_7 O 0.60747(9) 0.65180(9) 0.03080(9)
O28_7 O 0.64352(10) 0.68716(10) 0.03059(10)
N15_16 N 0.63891(19) 0.77094(17) 0.10352(18)
C34_16 C 0.61625(16) 0.71645(15) 0.07728(16)
H12_16 H 0.63161(16) 0.72654(15) 0.06731(16)
C35_16 C 0.60528(12) 0.69021(13) 0.06648(12)
C36_16 C 0.62091(13) 0.67482(14) 0.04004(14)
O29_10 O 0.60747(9) 0.53080(9) 0.15180(9)
O30_10 O 0.64352(10) 0.53059(10) 0.18716(10)
O31_10 O 0.6958(3) 0.5891(5) 0.3042(3)
N17_10 N 0.63891(19) 0.60352(18) 0.27094(17)
N18_10 N 0.64567(16) 0.62575(16) 0.29256(17)
C37_10 C 0.61874(18) 0.61874(18) 0.2560(3)
C38_10 C 0.60390(17) 0.60390(17) 0.2281(2)
C39_10 C 0.61625(16) 0.57728(16) 0.21645(15)
H13_10 H 0.63161(16) 0.56731(16) 0.22654(15)
C40_10 C 0.60528(12) 0.56648(12) 0.19021(13)
C41_10 C 0.58043(13) 0.58043(13) 0.17745(18)
H14_10 H 0.57278(13) 0.57278(13) 0.15955(18)
C42_10 C 0.62091(13) 0.54004(14) 0.17482(14)
O32_10 O 0.53080(9) 0.60747(9) 0.15180(9)
O33_10 O 0.53059(10) 0.64352(10) 0.18716(10)
N19_10 N 0.60352(18) 0.63891(19) 0.27094(17)
C43_10 C 0.57728(16) 0.61625(16) 0.21645(15)
H15_10 H 0.56731(16) 0.63161(16) 0.22654(15)
C44_10 C 0.56648(12) 0.60528(12) 0.19021(13)
C45_10 C 0.54004(14) 0.62091(13) 0.17482(14)
Cu14_11 Cu 0.500 0.668668(17) 0.168668(17)
Cu15_9 Cu 0.668668(17) 0.331332(17) 0.000
Cu17_11 Cu 0.500 0.626563(18) 0.126563(18)
Cu18_9 Cu 0.626563(18) 0.373437(18) 0.000
O41_10 O 0.60747(9) 0.46920(9) 0.15180(9)
O45_10 O 0.64352(10) 0.46941(10) 0.18716(10)
Cu1_6 Cu 0.668668(17) 0.668668(17) 1.000
Cu2_6 Cu 0.626563(18) 0.626563(18) 1.000
O1_20 O 0.5928(3) 0.5928(3) 1.000
O2_20 O 0.70274(16) 0.70274(16) 1.000
Cu7_11 Cu 0.668668(17) 0.500 0.831332(17)
Cu8_11 Cu 0.626563(18) 0.500 0.873437(18)
O17_20 O 0.5928(3) 0.500 0.9072(3)
O18_20 O 0.70274(16) 0.500 0.79726(16)
O19_13 O 0.65180(9) 0.53080(9) 0.89253(9)
O20_13 O 0.68716(10) 0.53059(10) 0.85648(10)
O21_13 O 0.8042(3) 0.5891(5) 0.8042(3)
N9_13 N 0.77094(17) 0.60352(18) 0.86109(19)
N10_13 N 0.79256(17) 0.62575(16) 0.85433(16)
C19_13 C 0.7560(3) 0.61874(18) 0.88126(18)
C20_13 C 0.7281(2) 0.60390(17) 0.89610(17)
C21_13 C 0.71645(15) 0.57728(16) 0.88375(16)
H7_13 H 0.72654(15) 0.56731(16) 0.86839(16)
C22_13 C 0.69021(13) 0.56648(12) 0.89472(12)
C23_13 C 0.67745(18) 0.58043(13) 0.91957(13)
H8_13 H 0.65955(18) 0.57278(13) 0.92722(13)
C24_13 C 0.67482(14) 0.54004(14) 0.87909(13)
O22_7 O 0.65180(9) 0.60747(9) 0.96920(9)
O23_7 O 0.68716(10) 0.64352(10) 0.96941(10)
N11_13 N 0.77094(17) 0.63891(19) 0.89648(18)
C25_13 C 0.71645(15) 0.61625(16) 0.92272(16)
H9_13 H 0.72654(15) 0.63161(16) 0.93269(16)
C26_13 C 0.69021(13) 0.60528(12) 0.93352(12)
C27_13 C 0.67482(14) 0.62091(13) 0.95996(14)
O34_10 O 0.60747(9) 0.65180(9) 0.96920(9)
O35_10 O 0.64352(10) 0.68716(10) 0.96941(10)
O36_19 O 0.6958(3) 0.8042(3) 0.9109(5)
N21_19 N 0.63891(19) 0.77094(17) 0.89648(18)
N22_19 N 0.64567(16) 0.79256(17) 0.87425(16)
C46_19 C 0.61874(18) 0.7560(3) 0.88126(18)
C47_19 C 0.60390(17) 0.7281(2) 0.89610(17)
C48_19 C 0.61625(16) 0.71645(15) 0.92272(16)
H16_19 H 0.63161(16) 0.72654(15) 0.93269(16)
C49_19 C 0.60528(12) 0.69021(13) 0.93352(12)
C50_19 C 0.58043(13) 0.67745(18) 0.91957(13)
H17_19 H 0.57278(13) 0.65955(18) 0.92722(13)
C51_19 C 0.62091(13) 0.67482(14) 0.95996(14)
O37_10 O 0.53080(9) 0.65180(9) 0.89253(9)
O38_10 O 0.53059(10) 0.68716(10) 0.85648(10)
N23_19 N 0.60352(18) 0.77094(17) 0.86109(19)
C52_19 C 0.57728(16) 0.71645(15) 0.88375(16)
H18_19 H 0.56731(16) 0.72654(15) 0.86839(16)
C53_19 C 0.56648(12) 0.69021(13) 0.89472(12)
C54_19 C 0.54004(14) 0.67482(14) 0.87909(13)
Cu13_15 Cu 0.500 0.668668(17) 0.831332(17)
Cu15_10 Cu 0.668668(17) 0.331332(17) 1.000
Cu16_15 Cu 0.500 0.626563(18) 0.873437(18)
Cu18_10 Cu 0.626563(18) 0.373437(18) 1.000
O39_10 O 0.60747(9) 0.46920(9) 0.84820(9)
O40_10 O 0.60747(9) 0.53080(9) 0.84820(9)
O42_10 O 0.65180(9) 0.46920(9) 0.89253(9)
O43_10 O 0.64352(10) 0.46941(10) 0.81284(10)
O44_10 O 0.64352(10) 0.53059(10) 0.81284(10)
O46_10 O 0.68716(10) 0.46941(10) 0.85648(10)
O9_21 O 0.5928(3) 0.4072(3) -0.000
O10_21 O 0.70274(16) 0.29726(16) -0.000
O24_17 O 0.53080(9) 0.39253(9) 0.15180(9)
O25_17 O 0.53059(10) 0.35648(10) 0.18716(10)
O26_17 O 0.5891(5) 0.3042(3) 0.3042(3)
N13_17 N 0.60352(18) 0.36109(19) 0.27094(17)
N14_17 N 0.62575(16) 0.35433(16) 0.29256(17)
C28_17 C 0.61874(18) 0.38126(18) 0.2560(3)
C29_17 C 0.60390(17) 0.39610(17) 0.2281(2)
C30_17 C 0.57728(16) 0.38375(16) 0.21645(15)
H10_17 H 0.56731(16) 0.36839(16) 0.22654(15)
C31_17 C 0.56648(12) 0.39472(12) 0.19021(13)
C32_17 C 0.58043(13) 0.41957(13) 0.17745(18)
H11_17 H 0.57278(13) 0.42722(13) 0.15955(18)
C33_17 C 0.54004(14) 0.37909(13) 0.17482(14)
N15_17 N 0.63891(19) 0.39648(18) 0.27094(17)
C34_17 C 0.61625(16) 0.42272(16) 0.21645(15)
H12_17 H 0.63161(16) 0.43269(16) 0.22654(15)
C35_17 C 0.60528(12) 0.43352(12) 0.19021(13)
C36_17 C 0.62091(13) 0.45996(14) 0.17482(14)
O29_11 O 0.60747(9) 0.34820(9) 0.03080(9)
O30_11 O 0.64352(10) 0.31284(10) 0.03059(10)
O31_11 O 0.6958(3) 0.1958(3) 0.0891(5)
N17_11 N 0.63891(19) 0.22906(17) 0.10352(18)
N18_11 N 0.64567(16) 0.20744(17) 0.12575(16)
C37_11 C 0.61874(18) 0.2440(3) 0.11874(18)
C38_11 C 0.60390(17) 0.2719(2) 0.10390(17)
C39_11 C 0.61625(16) 0.28355(15) 0.07728(16)
H13_11 H 0.63161(16) 0.27346(15) 0.06731(16)
C40_11 C 0.60528(12) 0.30979(13) 0.06648(12)
C41_11 C 0.58043(13) 0.32255(18) 0.08043(13)
H14_11 H 0.57278(13) 0.34045(18) 0.07278(13)
C42_11 C 0.62091(13) 0.32518(14) 0.04004(14)
O32_11 O 0.53080(9) 0.34820(9) 0.10747(9)
O33_11 O 0.53059(10) 0.31284(10) 0.14352(10)
N19_11 N 0.60352(18) 0.22906(17) 0.13891(19)
C43_11 C 0.57728(16) 0.28355(15) 0.11625(16)
H15_11 H 0.56731(16) 0.27346(15) 0.13161(16)
C44_11 C 0.56648(12) 0.30979(13) 0.10528(12)
C45_11 C 0.54004(14) 0.32518(14) 0.12091(13)
Cu14_12 Cu 0.500 0.331332(17) 0.168668(17)
Cu17_12 Cu 0.500 0.373437(18) 0.126563(18)
O9_22 O 0.5928(3) 0.4072(3) 1.000
O10_22 O 0.70274(16) 0.29726(16) 1.000
O11_14 O 0.65180(9) 0.39253(9) 0.96920(9)
O12_14 O 0.68716(10) 0.35648(10) 0.96941(10)
O14_14 O 0.8042(3) 0.3042(3) 0.9109(5)
N5_14 N 0.77094(17) 0.36109(19) 0.89648(18)
N6_14 N 0.79256(17) 0.35433(16) 0.87425(16)
C10_14 C 0.7560(3) 0.38126(18) 0.88126(18)
C11_14 C 0.7281(2) 0.39610(17) 0.89610(17)
C12_14 C 0.71645(15) 0.38375(16) 0.92272(16)
H4_14 H 0.72654(15) 0.36839(16) 0.93269(16)
C13_14 C 0.69021(13) 0.39472(12) 0.93352(12)
C14_14 C 0.67745(18) 0.41957(13) 0.91957(13)
H5_14 H 0.65955(18) 0.42722(13) 0.92722(13)
C15_14 C 0.67482(14) 0.37909(13) 0.95996(14)
N7_14 N 0.77094(17) 0.39648(18) 0.86109(19)
C16_14 C 0.71645(15) 0.42272(16) 0.88375(16)
H6_14 H 0.72654(15) 0.43269(16) 0.86839(16)
C17_14 C 0.69021(13) 0.43352(12) 0.89472(12)
C18_14 C 0.67482(14) 0.45996(14) 0.87909(13)
O41_11 O 0.60747(9) 0.34820(9) 0.96920(9)
O45_11 O 0.64352(10) 0.31284(10) 0.96941(10)
O24_18 O 0.53080(9) 0.60747(9) 0.84820(9)
O25_18 O 0.53059(10) 0.64352(10) 0.81284(10)
O26_18 O 0.5891(5) 0.6958(3) 0.6958(3)
N13_18 N 0.60352(18) 0.63891(19) 0.72906(17)
N14_18 N 0.62575(16) 0.64567(16) 0.70744(17)
C28_18 C 0.61874(18) 0.61874(18) 0.7440(3)
C29_18 C 0.60390(17) 0.60390(17) 0.7719(2)
C30_18 C 0.57728(16) 0.61625(16) 0.78355(15)
H10_18 H 0.56731(16) 0.63161(16) 0.77346(15)
C31_18 C 0.56648(12) 0.60528(12) 0.80979(13)
C32_18 C 0.58043(13) 0.58043(13) 0.82255(18)
H11_18 H 0.57278(13) 0.57278(13) 0.84045(18)
C33_18 C 0.54004(14) 0.62091(13) 0.82518(14)
N15_18 N 0.63891(19) 0.60352(18) 0.72906(17)
C34_18 C 0.61625(16) 0.57728(16) 0.78355(15)
H12_18 H 0.63161(16) 0.56731(16) 0.77346(15)
C35_18 C 0.60528(12) 0.56648(12) 0.80979(13)
C36_18 C 0.62091(13) 0.54004(14) 0.82518(14)
O36_20 O 0.6958(3) 0.4109(5) 0.6958(3)
N21_20 N 0.63891(19) 0.39648(18) 0.72906(17)
N22_20 N 0.64567(16) 0.37425(16) 0.70744(17)
C46_20 C 0.61874(18) 0.38126(18) 0.7440(3)
C47_20 C 0.60390(17) 0.39610(17) 0.7719(2)
C48_20 C 0.61625(16) 0.42272(16) 0.78355(15)
H16_20 H 0.63161(16) 0.43269(16) 0.77346(15)
C49_20 C 0.60528(12) 0.43352(12) 0.80979(13)
C50_20 C 0.58043(13) 0.41957(13) 0.82255(18)
H17_20 H 0.57278(13) 0.42722(13) 0.84045(18)
C51_20 C 0.62091(13) 0.45996(14) 0.82518(14)
O37_11 O 0.53080(9) 0.39253(9) 0.84820(9)
O38_11 O 0.53059(10) 0.35648(10) 0.81284(10)
N23_20 N 0.60352(18) 0.36109(19) 0.72906(17)
C52_20 C 0.57728(16) 0.38375(16) 0.78355(15)
H18_20 H 0.56731(16) 0.36839(16) 0.77346(15)
C53_20 C 0.56648(12) 0.39472(12) 0.80979(13)
C54_20 C 0.54004(14) 0.37909(13) 0.82518(14)
Cu13_16 Cu 0.500 0.331332(17) 0.831332(17)
Cu16_16 Cu 0.500 0.373437(18) 0.873437(18)
Cu13_17 Cu 0.331332(17) 0.668668(17) -0.000
Cu16_17 Cu 0.373437(18) 0.626563(18) 0.000
O1_21 O 0.500 0.5928(3) 0.9072(3)
O2_21 O 0.500 0.70274(16) 0.79726(16)
Cu7_12 Cu 0.331332(17) 0.500 0.831332(17)
Cu8_12 Cu 0.373437(18) 0.500 0.873437(18)
O17_21 O 0.4072(3) 0.500 0.9072(3)
O18_21 O 0.29726(16) 0.500 0.79726(16)
O19_14 O 0.39253(9) 0.53080(9) 0.84820(9)
O20_14 O 0.35648(10) 0.53059(10) 0.81284(10)
O21_14 O 0.3042(3) 0.5891(5) 0.6958(3)
N9_14 N 0.36109(19) 0.60352(18) 0.72906(17)
N10_14 N 0.35433(16) 0.62575(16) 0.70744(17)
C19_14 C 0.38126(18) 0.61874(18) 0.7440(3)
C20_14 C 0.39610(17) 0.60390(17) 0.7719(2)
C21_14 C 0.38375(16) 0.57728(16) 0.78355(15)
H7_14 H 0.36839(16) 0.56731(16) 0.77346(15)
C22_14 C 0.39472(12) 0.56648(12) 0.80979(13)
C23_14 C 0.41957(13) 0.58043(13) 0.82255(18)
H8_14 H 0.42722(13) 0.57278(13) 0.84045(18)
C24_14 C 0.37909(13) 0.54004(14) 0.82518(14)
O22_8 O 0.46920(9) 0.60747(9) 0.84820(9)
O23_8 O 0.46941(10) 0.64352(10) 0.81284(10)
N11_14 N 0.39648(18) 0.63891(19) 0.72906(17)
C25_14 C 0.42272(16) 0.61625(16) 0.78355(15)
H9_14 H 0.43269(16) 0.63161(16) 0.77346(15)
C26_14 C 0.43352(12) 0.60528(12) 0.80979(13)
C27_14 C 0.45996(14) 0.62091(13) 0.82518(14)
O34_11 O 0.46920(9) 0.65180(9) 0.89253(9)
O35_11 O 0.46941(10) 0.68716(10) 0.85648(10)
O36_21 O 0.4109(5) 0.8042(3) 0.8042(3)
N21_21 N 0.39648(18) 0.77094(17) 0.86109(19)
N22_21 N 0.37425(16) 0.79256(17) 0.85433(16)
C46_21 C 0.38126(18) 0.7560(3) 0.88126(18)
C47_21 C 0.39610(17) 0.7281(2) 0.89610(17)
C48_21 C 0.42272(16) 0.71645(15) 0.88375(16)
H16_21 H 0.43269(16) 0.72654(15) 0.86839(16)
C49_21 C 0.43352(12) 0.69021(13) 0.89472(12)
C50_21 C 0.41957(13) 0.67745(18) 0.91957(13)
H17_21 H 0.42722(13) 0.65955(18) 0.92722(13)
C51_21 C 0.45996(14) 0.67482(14) 0.87909(13)
O37_12 O 0.39253(9) 0.65180(9) 0.96920(9)
O38_12 O 0.35648(10) 0.68716(10) 0.96941(10)
N23_21 N 0.36109(19) 0.77094(17) 0.89648(18)
C52_21 C 0.38375(16) 0.71645(15) 0.92272(16)
H18_21 H 0.36839(16) 0.72654(15) 0.93269(16)
C53_21 C 0.39472(12) 0.69021(13) 0.93352(12)
C54_21 C 0.37909(13) 0.67482(14) 0.95996(14)
Cu13_18 Cu 0.331332(17) 0.668668(17) 1.000
Cu16_18 Cu 0.373437(18) 0.626563(18) 1.000
O39_11 O 0.34820(9) 0.46920(9) 0.89253(9)
O40_11 O 0.34820(9) 0.53080(9) 0.89253(9)
O42_11 O 0.39253(9) 0.46920(9) 0.84820(9)
O43_11 O 0.31284(10) 0.46941(10) 0.85648(10)
O44_11 O 0.31284(10) 0.53059(10) 0.85648(10)
O46_11 O 0.35648(10) 0.46941(10) 0.81284(10)
O1_22 O 0.500 0.5928(3) 0.0928(3)
O2_22 O 0.500 0.70274(16) 0.20274(16)
O3_8 O 0.46920(9) 0.60747(9) 0.15180(9)
O4_8 O 0.46941(10) 0.64352(10) 0.18716(10)
O6_8 O 0.4109(5) 0.6958(3) 0.3042(3)
N1_8 N 0.39648(18) 0.63891(19) 0.27094(17)
N2_8 N 0.37425(16) 0.64567(16) 0.29256(17)
C1_8 C 0.38126(18) 0.61874(18) 0.2560(3)
C2_8 C 0.39610(17) 0.60390(17) 0.2281(2)
C3_8 C 0.42272(16) 0.61625(16) 0.21645(15)
H1_8 H 0.43269(16) 0.63161(16) 0.22654(15)
C4_8 C 0.43352(12) 0.60528(12) 0.19021(13)
C5_8 C 0.41957(13) 0.58043(13) 0.17745(18)
H2_8 H 0.42722(13) 0.57278(13) 0.15955(18)
C6_8 C 0.45996(14) 0.62091(13) 0.17482(14)
O7_8 O 0.39253(9) 0.53080(9) 0.15180(9)
O8_8 O 0.35648(10) 0.53059(10) 0.18716(10)
N3_8 N 0.36109(19) 0.60352(18) 0.27094(17)
C7_8 C 0.38375(16) 0.57728(16) 0.21645(15)
H3_8 H 0.36839(16) 0.56731(16) 0.22654(15)
C8_8 C 0.39472(12) 0.56648(12) 0.19021(13)
C9_8 C 0.37909(13) 0.54004(14) 0.17482(14)
Cu4_12 Cu 0.331332(17) 0.500 0.168668(17)
Cu5_12 Cu 0.373437(18) 0.500 0.126563(18)
O9_23 O 0.4072(3) 0.500 0.0928(3)
O10_23 O 0.29726(16) 0.500 0.20274(16)
O11_15 O 0.39253(9) 0.46920(9) 0.15180(9)
O12_15 O 0.35648(10) 0.46941(10) 0.18716(10)
O14_15 O 0.3042(3) 0.4109(5) 0.3042(3)
N5_15 N 0.36109(19) 0.39648(18) 0.27094(17)
N6_15 N 0.35433(16) 0.37425(16) 0.29256(17)
C10_15 C 0.38126(18) 0.38126(18) 0.2560(3)
C11_15 C 0.39610(17) 0.39610(17) 0.2281(2)
C12_15 C 0.38375(16) 0.42272(16) 0.21645(15)
H4_15 H 0.36839(16) 0.43269(16) 0.22654(15)
C13_15 C 0.39472(12) 0.43352(12) 0.19021(13)
C14_15 C 0.41957(13) 0.41957(13) 0.17745(18)
H5_15 H 0.42722(13) 0.42722(13) 0.15955(18)
C15_15 C 0.37909(13) 0.45996(14) 0.17482(14)
O15_11 O 0.46920(9) 0.39253(9) 0.15180(9)
O16_11 O 0.46941(10) 0.35648(10) 0.18716(10)
N7_15 N 0.39648(18) 0.36109(19) 0.27094(17)
C16_15 C 0.42272(16) 0.38375(16) 0.21645(15)
H6_15 H 0.43269(16) 0.36839(16) 0.22654(15)
C17_15 C 0.43352(12) 0.39472(12) 0.19021(13)
C18_15 C 0.45996(14) 0.37909(13) 0.17482(14)
O24_19 O 0.39253(9) 0.65180(9) 0.03080(9)
O25_19 O 0.35648(10) 0.68716(10) 0.03059(10)
O26_19 O 0.3042(3) 0.8042(3) 0.0891(5)
N13_19 N 0.36109(19) 0.77094(17) 0.10352(18)
N14_19 N 0.35433(16) 0.79256(17) 0.12575(16)
C28_19 C 0.38126(18) 0.7560(3) 0.11874(18)
C29_19 C 0.39610(17) 0.7281(2) 0.10390(17)
C30_19 C 0.38375(16) 0.71645(15) 0.07728(16)
H10_19 H 0.36839(16) 0.72654(15) 0.06731(16)
C31_19 C 0.39472(12) 0.69021(13) 0.06648(12)
C32_19 C 0.41957(13) 0.67745(18) 0.08043(13)
H11_19 H 0.42722(13) 0.65955(18) 0.07278(13)
C33_19 C 0.37909(13) 0.67482(14) 0.04004(14)
O27_8 O 0.46920(9) 0.65180(9) 0.10747(9)
O28_8 O 0.46941(10) 0.68716(10) 0.14352(10)
N15_19 N 0.39648(18) 0.77094(17) 0.13891(19)
C34_19 C 0.42272(16) 0.71645(15) 0.11625(16)
H12_19 H 0.43269(16) 0.72654(15) 0.13161(16)
C35_19 C 0.43352(12) 0.69021(13) 0.10528(12)
C36_19 C 0.45996(14) 0.67482(14) 0.12091(13)
O29_12 O 0.34820(9) 0.53080(9) 0.10747(9)
O30_12 O 0.31284(10) 0.53059(10) 0.14352(10)
O31_12 O 0.1958(3) 0.5891(5) 0.1958(3)
N17_12 N 0.22906(17) 0.60352(18) 0.13891(19)
N18_12 N 0.20744(17) 0.62575(16) 0.14567(16)
C37_12 C 0.2440(3) 0.61874(18) 0.11874(18)
C38_12 C 0.2719(2) 0.60390(17) 0.10390(17)
C39_12 C 0.28355(15) 0.57728(16) 0.11625(16)
H13_12 H 0.27346(15) 0.56731(16) 0.13161(16)
C40_12 C 0.30979(13) 0.56648(12) 0.10528(12)
C41_12 C 0.32255(18) 0.58043(13) 0.08043(13)
H14_12 H 0.34045(18) 0.57278(13) 0.07278(13)
C42_12 C 0.32518(14) 0.54004(14) 0.12091(13)
O32_12 O 0.34820(9) 0.60747(9) 0.03080(9)
O33_12 O 0.31284(10) 0.64352(10) 0.03059(10)
N19_12 N 0.22906(17) 0.63891(19) 0.10352(18)
C43_12 C 0.28355(15) 0.61625(16) 0.07728(16)
H15_12 H 0.27346(15) 0.63161(16) 0.06731(16)
C44_12 C 0.30979(13) 0.60528(12) 0.06648(12)
C45_12 C 0.32518(14) 0.62091(13) 0.04004(14)
O41_12 O 0.34820(9) 0.46920(9) 0.10747(9)
O45_12 O 0.31284(10) 0.46941(10) 0.14352(10)
O1_23 O 0.4072(3) 0.5928(3) 0.000
O2_23 O 0.29726(16) 0.70274(16) 0.000
O1_24 O 0.4072(3) 0.5928(3) 1.000
O2_24 O 0.29726(16) 0.70274(16) 1.000
O34_12 O 0.34820(9) 0.60747(9) 0.96920(9)
O35_12 O 0.31284(10) 0.64352(10) 0.96941(10)
O36_22 O 0.1958(3) 0.6958(3) 0.9109(5)
N21_22 N 0.22906(17) 0.63891(19) 0.89648(18)
N22_22 N 0.20744(17) 0.64567(16) 0.87425(16)
C46_22 C 0.2440(3) 0.61874(18) 0.88126(18)
C47_22 C 0.2719(2) 0.60390(17) 0.89610(17)
C48_22 C 0.28355(15) 0.61625(16) 0.92272(16)
H16_22 H 0.27346(15) 0.63161(16) 0.93269(16)
C49_22 C 0.30979(13) 0.60528(12) 0.93352(12)
C50_22 C 0.32255(18) 0.58043(13) 0.91957(13)
H17_22 H 0.34045(18) 0.57278(13) 0.92722(13)
C51_22 C 0.32518(14) 0.62091(13) 0.95996(14)
N23_22 N 0.22906(17) 0.60352(18) 0.86109(19)
C52_22 C 0.28355(15) 0.57728(16) 0.88375(16)
H18_22 H 0.27346(15) 0.56731(16) 0.86839(16)
C53_22 C 0.30979(13) 0.56648(12) 0.89472(12)
C54_22 C 0.32518(14) 0.54004(14) 0.87909(13)
O9_24 O 0.500 0.4072(3) 0.0928(3)
O10_24 O 0.500 0.29726(16) 0.20274(16)
O11_16 O 0.46920(9) 0.34820(9) 0.10747(9)
O12_16 O 0.46941(10) 0.31284(10) 0.14352(10)
O14_16 O 0.4109(5) 0.1958(3) 0.1958(3)
N5_16 N 0.39648(18) 0.22906(17) 0.13891(19)
N6_16 N 0.37425(16) 0.20744(17) 0.14567(16)
C10_16 C 0.38126(18) 0.2440(3) 0.11874(18)
C11_16 C 0.39610(17) 0.2719(2) 0.10390(17)
C12_16 C 0.42272(16) 0.28355(15) 0.11625(16)
H4_16 H 0.43269(16) 0.27346(15) 0.13161(16)
C13_16 C 0.43352(12) 0.30979(13) 0.10528(12)
C14_16 C 0.41957(13) 0.32255(18) 0.08043(13)
H5_16 H 0.42722(13) 0.34045(18) 0.07278(13)
C15_16 C 0.45996(14) 0.32518(14) 0.12091(13)
O15_12 O 0.39253(9) 0.34820(9) 0.03080(9)
O16_12 O 0.35648(10) 0.31284(10) 0.03059(10)
N7_16 N 0.36109(19) 0.22906(17) 0.10352(18)
C16_16 C 0.38375(16) 0.28355(15) 0.07728(16)
H6_16 H 0.36839(16) 0.27346(15) 0.06731(16)
C17_16 C 0.39472(12) 0.30979(13) 0.06648(12)
C18_16 C 0.37909(13) 0.32518(14) 0.04004(14)
Cu15_11 Cu 0.331332(17) 0.331332(17) 0.000
Cu18_11 Cu 0.373437(18) 0.373437(18) 0.000
O17_22 O 0.500 0.4072(3) 0.9072(3)
O18_22 O 0.500 0.29726(16) 0.79726(16)
O19_15 O 0.53080(9) 0.34820(9) 0.89253(9)
O20_15 O 0.53059(10) 0.31284(10) 0.85648(10)
O21_15 O 0.5891(5) 0.1958(3) 0.8042(3)
N9_15 N 0.60352(18) 0.22906(17) 0.86109(19)
N10_15 N 0.62575(16) 0.20744(17) 0.85433(16)
C19_15 C 0.61874(18) 0.2440(3) 0.88126(18)
C20_15 C 0.60390(17) 0.2719(2) 0.89610(17)
C21_15 C 0.57728(16) 0.28355(15) 0.88375(16)
H7_15 H 0.56731(16) 0.27346(15) 0.86839(16)
C22_15 C 0.56648(12) 0.30979(13) 0.89472(12)
C23_15 C 0.58043(13) 0.32255(18) 0.91957(13)
H8_15 H 0.57278(13) 0.34045(18) 0.92722(13)
C24_15 C 0.54004(14) 0.32518(14) 0.87909(13)
N11_15 N 0.63891(19) 0.22906(17) 0.89648(18)
C25_15 C 0.61625(16) 0.28355(15) 0.92272(16)
H9_15 H 0.63161(16) 0.27346(15) 0.93269(16)
C26_15 C 0.60528(12) 0.30979(13) 0.93352(12)
C27_15 C 0.62091(13) 0.32518(14) 0.95996(14)
Cu15_12 Cu 0.331332(17) 0.331332(17) 1.000
Cu18_12 Cu 0.373437(18) 0.373437(18) 1.000
O39_12 O 0.46920(9) 0.39253(9) 0.84820(9)
O42_12 O 0.46920(9) 0.34820(9) 0.89253(9)
O43_12 O 0.46941(10) 0.35648(10) 0.81284(10)
O46_12 O 0.46941(10) 0.31284(10) 0.85648(10)
O24_20 O 0.34820(9) 0.39253(9) 0.03080(9)
O25_20 O 0.31284(10) 0.35648(10) 0.03059(10)
O26_20 O 0.1958(3) 0.3042(3) 0.0891(5)
N13_20 N 0.22906(17) 0.36109(19) 0.10352(18)
N14_20 N 0.20744(17) 0.35433(16) 0.12575(16)
C28_20 C 0.2440(3) 0.38126(18) 0.11874(18)
C29_20 C 0.2719(2) 0.39610(17) 0.10390(17)
C30_20 C 0.28355(15) 0.38375(16) 0.07728(16)
H10_20 H 0.27346(15) 0.36839(16) 0.06731(16)
C31_20 C 0.30979(13) 0.39472(12) 0.06648(12)
C32_20 C 0.32255(18) 0.41957(13) 0.08043(13)
H11_20 H 0.34045(18) 0.42722(13) 0.07278(13)
C33_20 C 0.32518(14) 0.37909(13) 0.04004(14)
N15_20 N 0.22906(17) 0.39648(18) 0.13891(19)
C34_20 C 0.28355(15) 0.42272(16) 0.11625(16)
H12_20 H 0.27346(15) 0.43269(16) 0.13161(16)
C35_20 C 0.30979(13) 0.43352(12) 0.10528(12)
C36_20 C 0.32518(14) 0.45996(14) 0.12091(13)
O17_23 O 0.4072(3) 0.4072(3) -0.000
O18_23 O 0.29726(16) 0.29726(16) -0.000
O17_24 O 0.4072(3) 0.4072(3) 1.000
O18_24 O 0.29726(16) 0.29726(16) 1.000
O19_16 O 0.39253(9) 0.34820(9) 0.96920(9)
O20_16 O 0.35648(10) 0.31284(10) 0.96941(10)
O21_16 O 0.3042(3) 0.1958(3) 0.9109(5)
N9_16 N 0.36109(19) 0.22906(17) 0.89648(18)
N10_16 N 0.35433(16) 0.20744(17) 0.87425(16)
C19_16 C 0.38126(18) 0.2440(3) 0.88126(18)
C20_16 C 0.39610(17) 0.2719(2) 0.89610(17)
C21_16 C 0.38375(16) 0.28355(15) 0.92272(16)
H7_16 H 0.36839(16) 0.27346(15) 0.93269(16)
C22_16 C 0.39472(12) 0.30979(13) 0.93352(12)
C23_16 C 0.41957(13) 0.32255(18) 0.91957(13)
H8_16 H 0.42722(13) 0.34045(18) 0.92722(13)
C24_16 C 0.37909(13) 0.32518(14) 0.95996(14)
N11_16 N 0.39648(18) 0.22906(17) 0.86109(19)
C25_16 C 0.42272(16) 0.28355(15) 0.88375(16)
H9_16 H 0.43269(16) 0.27346(15) 0.86839(16)
C26_16 C 0.43352(12) 0.30979(13) 0.89472(12)
C27_16 C 0.45996(14) 0.32518(14) 0.87909(13)
O36_23 O 0.4109(5) 0.3042(3) 0.6958(3)
N21_23 N 0.39648(18) 0.36109(19) 0.72906(17)
N22_23 N 0.37425(16) 0.35433(16) 0.70744(17)
C46_23 C 0.38126(18) 0.38126(18) 0.7440(3)
C47_23 C 0.39610(17) 0.39610(17) 0.7719(2)
C48_23 C 0.42272(16) 0.38375(16) 0.78355(15)
H16_23 H 0.43269(16) 0.36839(16) 0.77346(15)
C49_23 C 0.43352(12) 0.39472(12) 0.80979(13)
C50_23 C 0.41957(13) 0.41957(13) 0.82255(18)
H17_23 H 0.42722(13) 0.42722(13) 0.84045(18)
C51_23 C 0.45996(14) 0.37909(13) 0.82518(14)
N23_23 N 0.36109(19) 0.39648(18) 0.72906(17)
C52_23 C 0.38375(16) 0.42272(16) 0.78355(15)
H18_23 H 0.36839(16) 0.43269(16) 0.77346(15)
C53_23 C 0.39472(12) 0.43352(12) 0.80979(13)
C54_23 C 0.37909(13) 0.45996(14) 0.82518(14)
O40_12 O 0.34820(9) 0.39253(9) 0.96920(9)
O44_12 O 0.31284(10) 0.35648(10) 0.96941(10)
O36_24 O 0.1958(3) 0.4109(5) 0.8042(3)
N21_24 N 0.22906(17) 0.39648(18) 0.86109(19)
N22_24 N 0.20744(17) 0.37425(16) 0.85433(16)
C46_24 C 0.2440(3) 0.38126(18) 0.88126(18)
C47_24 C 0.2719(2) 0.39610(17) 0.89610(17)
C48_24 C 0.28355(15) 0.42272(16) 0.88375(16)
H16_24 H 0.27346(15) 0.43269(16) 0.86839(16)
C49_24 C 0.30979(13) 0.43352(12) 0.89472(12)
C50_24 C 0.32255(18) 0.41957(13) 0.91957(13)
H17_24 H 0.34045(18) 0.42722(13) 0.92722(13)
C51_24 C 0.32518(14) 0.45996(14) 0.87909(13)
N23_24 N 0.22906(17) 0.36109(19) 0.89648(18)
C52_24 C 0.28355(15) 0.38375(16) 0.92272(16)
H18_24 H 0.27346(15) 0.36839(16) 0.93269(16)
C53_24 C 0.30979(13) 0.39472(12) 0.93352(12)
C54_24 C 0.32518(14) 0.37909(13) 0.95996(14)
loop_
_geom_bond_atom_site_label_1
_geom_bond_atom_site_label_2
_geom_bond_site_symmetry_1
_geom_bond_site_symmetry_2
Cu1 Cu2 1_555 1_555
Cu2 O1 1_555 1_555
Cu3 O5 1_555 1_555
O2 Cu1 1_555 1_555
O3 Cu2 1_555 1_555
O4 Cu1 1_555 1_555
O5 Cu24 1_555 1_555
O6 Cu3 1_555 1_555
N1 N2 1_555 1_555
N2 Cu3 1_555 1_555
C1 N1 1_555 1_555
C2 C1 1_555 1_555
C3 C2 1_555 1_555
H1 C3 1_555 1_555
C4 C3 1_555 1_555
C5 C4 1_555 1_555
H2 C5 1_555 1_555
C6 O3 1_555 1_555
O7 C9 1_555 1_555
O8 C9 1_555 1_555
N3 C1 1_555 1_555
N4 N2 1_555 1_555
C7 C2 1_555 1_555
H3 C7 1_555 1_555
C8 C5 1_555 1_555
C9 C8 1_555 1_555
Cu4 O8 1_555 1_555
Cu5 O7 1_555 1_555
O9 Cu5 1_555 1_555
O10 Cu4 1_555 1_555
Cu10 O26 1_555 1_555
O24 C33 1_555 1_555
O25 C33 1_555 1_555
N13 N14 1_555 1_555
N14 Cu10 1_555 1_555
C28 N13 1_555 1_555
C29 C28 1_555 1_555
C30 C29 1_555 1_555
H10 C30 1_555 1_555
C31 C30 1_555 1_555
C32 C31 1_555 1_555
H11 C32 1_555 1_555
C33 C31 1_555 1_555
O27 Cu2 1_555 1_555
O28 Cu1 1_555 1_555
N15 C28 1_555 1_555
N16 N14 1_555 1_555
C34 C29 1_555 1_555
H12 C34 1_555 1_555
C35 C32 1_555 1_555
C36 O27 1_555 1_555
Cu11 O31 1_555 1_555
O29 Cu5 1_555 1_555
O30 Cu4 1_555 1_555
N17 N18 1_555 1_555
N18 Cu11 1_555 1_555
C37 N17 1_555 1_555
C38 C37 1_555 1_555
C39 C38 1_555 1_555
H13 C39 1_555 1_555
C40 C39 1_555 1_555
C41 C40 1_555 1_555
H14 C41 1_555 1_555
C42 O29 1_555 1_555
O32 C45 1_555 1_555
O33 C45 1_555 1_555
N19 C37 1_555 1_555
N20 N18 1_555 1_555
C43 C38 1_555 1_555
H15 C43 1_555 1_555
C44 C41 1_555 1_555
C45 C44 1_555 1_555
Cu14 O25 1_555 1_555
Cu17 O24 1_555 1_555
Cu22 N16 1_555 1_555
Cu23 N20 1_555 1_555
Cu24 N4 1_555 1_555
Cu26 O5 1_555 1_555
O48 Cu10 1_555 1_555
O49 Cu11 1_555 1_555
N25 Cu10 1_555 1_555
N26 Cu11 1_555 1_555
N30 Cu3 1_555 1_555
O4 C6 1_555 1_555
C4 C6 1_555 1_555
N3 N4 1_555 1_555
C7 C8 1_555 1_555
Cu4 Cu5 1_555 1_555
O28 C36 1_555 1_555
N15 N16 1_555 1_555
C34 C35 1_555 1_555
C35 C36 1_555 1_555
O30 C42 1_555 1_555
C40 C42 1_555 1_555
O32 Cu17 1_555 1_555
O33 Cu14 1_555 1_555
N19 N20 1_555 1_555
C43 C44 1_555 1_555
Cu14 Cu17 1_555 1_555
Cu22 O48 1_555 1_555
Cu23 O49 1_555 1_555
Cu1_2 Cu2_2 1_555 1_555
Cu2_2 O1_2 1_555 1_555
O2_2 Cu1_2 1_555 1_555
Cu7 Cu8 1_555 1_555
Cu8 O17 1_555 1_555
Cu9 O21 1_555 1_555
O18 Cu7 1_555 1_555
O19 Cu8 1_555 1_555
O20 Cu7 1_555 1_555
N9 N10 1_555 1_555
N10 Cu9 1_555 1_555
C19 N9 1_555 1_555
C20 C19 1_555 1_555
C21 C20 1_555 1_555
H7 C21 1_555 1_555
C22 C21 1_555 1_555
C23 C22 1_555 1_555
H8 C23 1_555 1_555
C24 O19 1_555 1_555
O22 Cu2_2 1_555 1_555
O23 Cu1_2 1_555 1_555
N11 C19 1_555 1_555
N12 N10 1_555 1_555
C25 C20 1_555 1_555
H9 C25 1_555 1_555
C26 C23 1_555 1_555
C27 O22 1_555 1_555
Cu12 O36 1_555 1_555
O34 Cu2_2 1_555 1_555
O35 Cu1_2 1_555 1_555
N21 N22 1_555 1_555
N22 Cu12 1_555 1_555
C46 N21 1_555 1_555
C47 C46 1_555 1_555
C48 C47 1_555 1_555
H16 C48 1_555 1_555
C49 C48 1_555 1_555
C50 C49 1_555 1_555
H17 C50 1_555 1_555
C51 O34 1_555 1_555
O37 C54 1_555 1_555
O38 C54 1_555 1_555
N23 C46 1_555 1_555
N24 N22 1_555 1_555
C52 C47 1_555 1_555
H18 C52 1_555 1_555
C53 C50 1_555 1_555
C54 C53 1_555 1_555
Cu13 O38 1_555 1_555
Cu16 O37 1_555 1_555
Cu19 N24 1_555 1_555
Cu21 N12 1_555 1_555
O40 Cu8 1_555 1_555
O44 Cu7 1_555 1_555
O47 Cu9 1_555 1_555
O50 Cu12 1_555 1_555
N28 Cu9 1_555 1_555
N29 Cu12 1_555 1_555
O20 C24 1_555 1_555
C22 C24 1_555 1_555
O23 C27 1_555 1_555
N11 N12 1_555 1_555
C25 C26 1_555 1_555
C26 C27 1_555 1_555
O35 C51 1_555 1_555
C49 C51 1_555 1_555
N23 N24 1_555 1_555
C52 C53 1_555 1_555
Cu13 Cu16 1_555 1_555
Cu19 O50 1_555 1_555
Cu21 O47 1_555 1_555
Cu6 O13 1_555 1_555
O9_2 Cu5_2 1_555 1_555
O10_2 Cu4_2 1_555 1_555
O11 Cu5_2 1_555 1_555
O12 Cu4_2 1_555 1_555
O13 Cu20 1_555 1_555
O14 Cu6 1_555 1_555
N5 N6 1_555 1_555
N6 Cu6 1_555 1_555
C10 N5 1_555 1_555
C11 C10 1_555 1_555
C12 C11 1_555 1_555
H4 C12 1_555 1_555
C13 C12 1_555 1_555
C14 C13 1_555 1_555
H5 C14 1_555 1_555
C15 O11 1_555 1_555
O15 C18 1_555 1_555
O16 C18 1_555 1_555
N7 C10 1_555 1_555
N8 N6 1_555 1_555
C16 C11 1_555 1_555
H6 C16 1_555 1_555
C17 C14 1_555 1_555
C18 C17 1_555 1_555
Cu15 O16 1_555 1_555
Cu18 O15 1_555 1_555
Cu20 N8 1_555 1_555
Cu25 O13 1_555 1_555
O41 Cu5_2 1_555 1_555
O45 Cu4_2 1_555 1_555
N27 Cu6 1_555 1_555
Cu4_2 Cu5_2 1_555 1_555
O12 C15 1_555 1_555
C13 C15 1_555 1_555
N7 N8 1_555 1_555
C16 C17 1_555 1_555
Cu15 Cu18 1_555 1_555
Cu7_2 Cu8_2 1_555 1_555
Cu8_2 O17_2 1_555 1_555
O18_2 Cu7_2 1_555 1_555
O39 Cu8_2 1_555 1_555
O42 Cu8_2 1_555 1_555
O43 Cu7_2 1_555 1_555
O46 Cu7_2 1_555 1_555
Cu15_2 Cu18_2 1_555 1_555
Cu14_2 Cu17_2 1_555 1_555
Cu13_2 Cu16_2 1_555 1_555
O9_3 Cu18 1_555 1_555
O10_3 Cu15 1_555 1_555
Cu10_2 O26_2 1_555 1_555
O24_2 C33_2 1_555 1_555
O25_2 C33_2 1_555 1_555
N13_2 N14_2 1_555 1_555
N14_2 Cu10_2 1_555 1_555
C28_2 N13_2 1_555 1_555
C29_2 C28_2 1_555 1_555
C30_2 C29_2 1_555 1_555
H10_2 C30_2 1_555 1_555
C31_2 C30_2 1_555 1_555
C32_2 C31_2 1_555 1_555
H11_2 C32_2 1_555 1_555
C33_2 C31_2 1_555 1_555
N15_2 C28_2 1_555 1_555
N16_2 N14_2 1_555 1_555
C34_2 C29_2 1_555 1_555
H12_2 C34_2 1_555 1_555
C35_2 C32_2 1_555 1_555
C36_2 O41 1_555 1_555
Cu11_2 O31_2 1_555 1_555
O29_2 Cu18 1_555 1_555
O30_2 Cu15 1_555 1_555
N17_2 N18_2 1_555 1_555
N18_2 Cu11_2 1_555 1_555
C37_2 N17_2 1_555 1_555
C38_2 C37_2 1_555 1_555
C39_2 C38_2 1_555 1_555
H13_2 C39_2 1_555 1_555
C40_2 C39_2 1_555 1_555
C41_2 C40_2 1_555 1_555
H14_2 C41_2 1_555 1_555
C42_2 O29_2 1_555 1_555
O32_2 C45_2 1_555 1_555
O33_2 C45_2 1_555 1_555
N19_2 C37_2 1_555 1_555
N20_2 N18_2 1_555 1_555
C43_2 C38_2 1_555 1_555
H15_2 C43_2 1_555 1_555
C44_2 C41_2 1_555 1_555
C45_2 C44_2 1_555 1_555
Cu14_3 O25_2 1_555 1_555
Cu17_3 O24_2 1_555 1_555
Cu22_2 N16_2 1_555 1_555
Cu23_2 N20_2 1_555 1_555
O48_2 Cu10_2 1_555 1_555
O49_2 Cu11_2 1_555 1_555
N25_2 Cu10_2 1_555 1_555
N26_2 Cu11_2 1_555 1_555
O45 C36_2 1_555 1_555
N15_2 N16_2 1_555 1_555
C34_2 C35_2 1_555 1_555
C35_2 C36_2 1_555 1_555
O30_2 C42_2 1_555 1_555
C40_2 C42_2 1_555 1_555
O32_2 Cu17_3 1_555 1_555
O33_2 Cu14_3 1_555 1_555
N19_2 N20_2 1_555 1_555
C43_2 C44_2 1_555 1_555
Cu14_3 Cu17_3 1_555 1_555
Cu22_2 O48_2 1_555 1_555
Cu23_2 O49_2 1_555 1_555
Cu6_2 O13_2 1_555 1_555
O9_4 Cu18_2 1_555 1_555
O10_4 Cu15_2 1_555 1_555
O11_2 Cu18_2 1_555 1_555
O12_2 Cu15_2 1_555 1_555
O13_2 Cu20_2 1_555 1_555
O14_2 Cu6_2 1_555 1_555
N5_2 N6_2 1_555 1_555
N6_2 Cu6_2 1_555 1_555
C10_2 N5_2 1_555 1_555
C11_2 C10_2 1_555 1_555
C12_2 C11_2 1_555 1_555
H4_2 C12_2 1_555 1_555
C13_2 C12_2 1_555 1_555
C14_2 C13_2 1_555 1_555
H5_2 C14_2 1_555 1_555
C15_2 O11_2 1_555 1_555
O42 C18_2 1_555 1_555
O46 C18_2 1_555 1_555
N7_2 C10_2 1_555 1_555
N8_2 N6_2 1_555 1_555
C16_2 C11_2 1_555 1_555
H6_2 C16_2 1_555 1_555
C17_2 C14_2 1_555 1_555
C18_2 C17_2 1_555 1_555
Cu20_2 N8_2 1_555 1_555
Cu25_2 O13_2 1_555 1_555
O41_2 Cu18_2 1_555 1_555
O45_2 Cu15_2 1_555 1_555
N27_2 Cu6_2 1_555 1_555
O12_2 C15_2 1_555 1_555
C13_2 C15_2 1_555 1_555
N7_2 N8_2 1_555 1_555
C16_2 C17_2 1_555 1_555
Cu14_4 Cu17_4 1_555 1_555
Cu10_3 O26_3 1_555 1_555
O24_3 C33_3 1_555 1_555
O25_3 C33_3 1_555 1_555
N13_3 N14_3 1_555 1_555
N14_3 Cu10_3 1_555 1_555
C28_3 N13_3 1_555 1_555
C29_3 C28_3 1_555 1_555
C30_3 C29_3 1_555 1_555
H10_3 C30_3 1_555 1_555
C31_3 C30_3 1_555 1_555
C32_3 C31_3 1_555 1_555
H11_3 C32_3 1_555 1_555
C33_3 C31_3 1_555 1_555
N15_3 C28_3 1_555 1_555
N16_3 N14_3 1_555 1_555
C34_3 C29_3 1_555 1_555
H12_3 C34_3 1_555 1_555
C35_3 C32_3 1_555 1_555
C36_3 O40 1_555 1_555
Cu13 O25_3 1_555 1_555
Cu16 O24_3 1_555 1_555
Cu22_3 N16_3 1_555 1_555
Cu26_2 O47 1_555 1_555
O48_3 Cu10_3 1_555 1_555
N25_3 Cu10_3 1_555 1_555
O44 C36_3 1_555 1_555
N15_3 N16_3 1_555 1_555
C34_3 C35_3 1_555 1_555
C35_3 C36_3 1_555 1_555
Cu22_3 O48_3 1_555 1_555
Cu12_2 O36_2 1_555 1_555
N21_2 N22_2 1_555 1_555
N22_2 Cu12_2 1_555 1_555
C46_2 N21_2 1_555 1_555
C47_2 C46_2 1_555 1_555
C48_2 C47_2 1_555 1_555
H16_2 C48_2 1_555 1_555
C49_2 C48_2 1_555 1_555
C50_2 C49_2 1_555 1_555
H17_2 C50_2 1_555 1_555
C51_2 O39 1_555 1_555
O37_2 C54_2 1_555 1_555
O38_2 C54_2 1_555 1_555
N23_2 C46_2 1_555 1_555
N24_2 N22_2 1_555 1_555
C52_2 C47_2 1_555 1_555
H18_2 C52_2 1_555 1_555
C53_2 C50_2 1_555 1_555
C54_2 C53_2 1_555 1_555
Cu13_3 O38_2 1_555 1_555
Cu16_3 O37_2 1_555 1_555
Cu19_2 N24_2 1_555 1_555
O50_2 Cu12_2 1_555 1_555
N29_2 Cu12_2 1_555 1_555
O43 C51_2 1_555 1_555
C49_2 C51_2 1_555 1_555
N23_2 N24_2 1_555 1_555
C52_2 C53_2 1_555 1_555
Cu13_3 Cu16_3 1_555 1_555
Cu19_2 O50_2 1_555 1_555
Cu13_4 Cu16_4 1_555 1_555
Cu16 O1_3 1_555 1_555
O2_3 Cu13 1_555 1_555
Cu26_3 O48_3 1_555 1_555
Cu25_3 O50_2 1_555 1_555
Cu13_5 Cu16_5 1_555 1_555
Cu16_2 O1_4 1_555 1_555
O2_4 Cu13_2 1_555 1_555
Cu7_3 Cu8_3 1_555 1_555
Cu8_3 O17_3 1_555 1_555
Cu9_2 O21_2 1_555 1_555
O18_3 Cu7_3 1_555 1_555
O19_2 Cu8_3 1_555 1_555
O20_2 Cu7_3 1_555 1_555
N9_2 N10_2 1_555 1_555
N10_2 Cu9_2 1_555 1_555
C19_2 N9_2 1_555 1_555
C20_2 C19_2 1_555 1_555
C21_2 C20_2 1_555 1_555
H7_2 C21_2 1_555 1_555
C22_2 C21_2 1_555 1_555
C23_2 C22_2 1_555 1_555
H8_2 C23_2 1_555 1_555
C24_2 O19_2 1_555 1_555
O22_2 Cu16_2 1_555 1_555
O23_2 Cu13_2 1_555 1_555
N11_2 C19_2 1_555 1_555
N12_2 N10_2 1_555 1_555
C25_2 C20_2 1_555 1_555
H9_2 C25_2 1_555 1_555
C26_2 C23_2 1_555 1_555
C27_2 O22_2 1_555 1_555
Cu12_3 O36_3 1_555 1_555
O34_2 Cu16_2 1_555 1_555
O35_2 Cu13_2 1_555 1_555
N21_3 N22_3 1_555 1_555
N22_3 Cu12_3 1_555 1_555
C46_3 N21_3 1_555 1_555
C47_3 C46_3 1_555 1_555
C48_3 C47_3 1_555 1_555
H16_3 C48_3 1_555 1_555
C49_3 C48_3 1_555 1_555
C50_3 C49_3 1_555 1_555
H17_3 C50_3 1_555 1_555
C51_3 O34_2 1_555 1_555
O37_3 C54_3 1_555 1_555
O38_3 C54_3 1_555 1_555
N23_3 C46_3 1_555 1_555
N24_3 N22_3 1_555 1_555
C52_3 C47_3 1_555 1_555
H18_3 C52_3 1_555 1_555
C53_3 C50_3 1_555 1_555
C54_3 C53_3 1_555 1_555
Cu13_6 O38_3 1_555 1_555
Cu16_6 O37_3 1_555 1_555
Cu19_3 N24_3 1_555 1_555
Cu21_2 N12_2 1_555 1_555
O40_2 Cu8_3 1_555 1_555
O44_2 Cu7_3 1_555 1_555
O47_2 Cu9_2 1_555 1_555
O50_3 Cu12_3 1_555 1_555
N28_2 Cu9_2 1_555 1_555
N29_3 Cu12_3 1_555 1_555
O20_2 C24_2 1_555 1_555
C22_2 C24_2 1_555 1_555
O23_2 C27_2 1_555 1_555
N11_2 N12_2 1_555 1_555
C25_2 C26_2 1_555 1_555
C26_2 C27_2 1_555 1_555
O35_2 C51_3 1_555 1_555
C49_3 C51_3 1_555 1_555
N23_3 N24_3 1_555 1_555
C52_3 C53_3 1_555 1_555
Cu13_6 Cu16_6 1_555 1_555
Cu19_3 O50_3 1_555 1_555
Cu21_2 O47_2 1_555 1_555
Cu7_4 Cu8_4 1_555 1_555
Cu8_4 O17_4 1_555 1_555
O18_4 Cu7_4 1_555 1_555
O39_2 Cu8_4 1_555 1_555
O42_2 Cu8_4 1_555 1_555
O43_2 Cu7_4 1_555 1_555
O46_2 Cu7_4 1_555 1_555
Cu17 O1_5 1_555 1_555
O2_5 Cu14 1_555 1_555
Cu17_2 O1_6 1_555 1_555
Cu3_2 O5_2 1_555 1_555
O2_6 Cu14_2 1_555 1_555
O3_2 Cu17_2 1_555 1_555
O4_2 Cu14_2 1_555 1_555
O5_2 Cu24_2 1_555 1_555
O6_2 Cu3_2 1_555 1_555
N1_2 N2_2 1_555 1_555
N2_2 Cu3_2 1_555 1_555
C1_2 N1_2 1_555 1_555
C2_2 C1_2 1_555 1_555
C3_2 C2_2 1_555 1_555
H1_2 C3_2 1_555 1_555
C4_2 C3_2 1_555 1_555
C5_2 C4_2 1_555 1_555
H2_2 C5_2 1_555 1_555
C6_2 O3_2 1_555 1_555
O7_2 C9_2 1_555 1_555
O8_2 C9_2 1_555 1_555
N3_2 C1_2 1_555 1_555
N4_2 N2_2 1_555 1_555
C7_2 C2_2 1_555 1_555
H3_2 C7_2 1_555 1_555
C8_2 C5_2 1_555 1_555
C9_2 C8_2 1_555 1_555
Cu4_3 O8_2 1_555 1_555
Cu5_3 O7_2 1_555 1_555
O9_5 Cu5_3 1_555 1_555
O10_5 Cu4_3 1_555 1_555
Cu10_4 O26_4 1_555 1_555
O24_4 C33_4 1_555 1_555
O25_4 C33_4 1_555 1_555
N13_4 N14_4 1_555 1_555
N14_4 Cu10_4 1_555 1_555
C28_4 N13_4 1_555 1_555
C29_4 C28_4 1_555 1_555
C30_4 C29_4 1_555 1_555
H10_4 C30_4 1_555 1_555
C31_4 C30_4 1_555 1_555
C32_4 C31_4 1_555 1_555
H11_4 C32_4 1_555 1_555
C33_4 C31_4 1_555 1_555
O27_2 Cu17_2 1_555 1_555
O28_2 Cu14_2 1_555 1_555
N15_4 C28_4 1_555 1_555
N16_4 N14_4 1_555 1_555
C34_4 C29_4 1_555 1_555
H12_4 C34_4 1_555 1_555
C35_4 C32_4 1_555 1_555
C36_4 O27_2 1_555 1_555
Cu11_3 O31_3 1_555 1_555
O29_3 Cu5_3 1_555 1_555
O30_3 Cu4_3 1_555 1_555
N17_3 N18_3 1_555 1_555
N18_3 Cu11_3 1_555 1_555
C37_3 N17_3 1_555 1_555
C38_3 C37_3 1_555 1_555
C39_3 C38_3 1_555 1_555
H13_3 C39_3 1_555 1_555
C40_3 C39_3 1_555 1_555
C41_3 C40_3 1_555 1_555
H14_3 C41_3 1_555 1_555
C42_3 O29_3 1_555 1_555
O32_3 C45_3 1_555 1_555
O33_3 C45_3 1_555 1_555
N19_3 C37_3 1_555 1_555
N20_3 N18_3 1_555 1_555
C43_3 C38_3 1_555 1_555
H15_3 C43_3 1_555 1_555
C44_3 C41_3 1_555 1_555
C45_3 C44_3 1_555 1_555
Cu13_5 O25_4 1_555 1_555
Cu16_5 O24_4 1_555 1_555
Cu22_4 N16_4 1_555 1_555
Cu23_3 N20_3 1_555 1_555
Cu24_2 N4_2 1_555 1_555
Cu26_4 O5_2 1_555 1_555
O48_4 Cu10_4 1_555 1_555
O49_3 Cu11_3 1_555 1_555
N25_4 Cu10_4 1_555 1_555
N26_3 Cu11_3 1_555 1_555
N30_2 Cu3_2 1_555 1_555
O4_2 C6_2 1_555 1_555
C4_2 C6_2 1_555 1_555
N3_2 N4_2 1_555 1_555
C7_2 C8_2 1_555 1_555
Cu4_3 Cu5_3 1_555 1_555
O28_2 C36_4 1_555 1_555
N15_4 N16_4 1_555 1_555
C34_4 C35_4 1_555 1_555
C35_4 C36_4 1_555 1_555
O30_3 C42_3 1_555 1_555
C40_3 C42_3 1_555 1_555
O32_3 Cu16_5 1_555 1_555
O33_3 Cu13_5 1_555 1_555
N19_3 N20_3 1_555 1_555
C43_3 C44_3 1_555 1_555
Cu22_4 O48_4 1_555 1_555
Cu23_3 O49_3 1_555 1_555
Cu6_3 O13_3 1_555 1_555
O9_6 Cu5_4 1_555 1_555
O10_6 Cu4_4 1_555 1_555
O11_3 Cu5_4 1_555 1_555
O12_3 Cu4_4 1_555 1_555
O13_3 Cu20_3 1_555 1_555
O14_3 Cu6_3 1_555 1_555
N5_3 N6_3 1_555 1_555
N6_3 Cu6_3 1_555 1_555
C10_3 N5_3 1_555 1_555
C11_3 C10_3 1_555 1_555
C12_3 C11_3 1_555 1_555
H4_3 C12_3 1_555 1_555
C13_3 C12_3 1_555 1_555
C14_3 C13_3 1_555 1_555
H5_3 C14_3 1_555 1_555
C15_3 O11_3 1_555 1_555
O15_2 C18_3 1_555 1_555
O16_2 C18_3 1_555 1_555
N7_3 C10_3 1_555 1_555
N8_3 N6_3 1_555 1_555
C16_3 C11_3 1_555 1_555
H6_3 C16_3 1_555 1_555
C17_3 C14_3 1_555 1_555
C18_3 C17_3 1_555 1_555
Cu14_4 O16_2 1_555 1_555
Cu17_4 O15_2 1_555 1_555
Cu20_3 N8_3 1_555 1_555
Cu25_4 O13_3 1_555 1_555
O41_3 Cu5_4 1_555 1_555
O45_3 Cu4_4 1_555 1_555
N27_3 Cu6_3 1_555 1_555
Cu4_4 Cu5_4 1_555 1_555
O12_3 C15_3 1_555 1_555
C13_3 C15_3 1_555 1_555
N7_3 N8_3 1_555 1_555
C16_3 C17_3 1_555 1_555
Cu25_5 O48 1_555 1_555
Cu16_5 O1_7 1_555 1_555
O2_7 Cu13_5 1_555 1_555
Cu26_5 O48_4 1_555 1_555
Cu16_6 O1_8 1_555 1_555
O2_8 Cu13_6 1_555 1_555
Cu12_4 O36_4 1_555 1_555
O34_3 Cu16_6 1_555 1_555
O35_3 Cu13_6 1_555 1_555
N21_4 N22_4 1_555 1_555
N22_4 Cu12_4 1_555 1_555
C46_4 N21_4 1_555 1_555
C47_4 C46_4 1_555 1_555
C48_4 C47_4 1_555 1_555
H16_4 C48_4 1_555 1_555
C49_4 C48_4 1_555 1_555
C50_4 C49_4 1_555 1_555
H17_4 C50_4 1_555 1_555
C51_4 O34_3 1_555 1_555
O40_2 C54_4 1_555 1_555
O44_2 C54_4 1_555 1_555
N23_4 C46_4 1_555 1_555
N24_4 N22_4 1_555 1_555
C52_4 C47_4 1_555 1_555
H18_4 C52_4 1_555 1_555
C53_4 C50_4 1_555 1_555
C54_4 C53_4 1_555 1_555
Cu19_4 N24_4 1_555 1_555
O50_4 Cu12_4 1_555 1_555
N29_4 Cu12_4 1_555 1_555
O35_3 C51_4 1_555 1_555
C49_4 C51_4 1_555 1_555
N23_4 N24_4 1_555 1_555
C52_4 C53_4 1_555 1_555
Cu19_4 O50_4 1_555 1_555
O9_7 Cu17_3 1_555 1_555
O10_7 Cu14_3 1_555 1_555
Cu26_6 O49_2 1_555 1_555
Cu16_3 O17_5 1_555 1_555
Cu9_3 O21_3 1_555 1_555
O18_5 Cu13_3 1_555 1_555
O19_3 Cu16_3 1_555 1_555
O20_3 Cu13_3 1_555 1_555
N9_3 N10_3 1_555 1_555
N10_3 Cu9_3 1_555 1_555
C19_3 N9_3 1_555 1_555
C20_3 C19_3 1_555 1_555
C21_3 C20_3 1_555 1_555
H7_3 C21_3 1_555 1_555
C22_3 C21_3 1_555 1_555
C23_3 C22_3 1_555 1_555
H8_3 C23_3 1_555 1_555
C24_3 O19_3 1_555 1_555
N11_3 C19_3 1_555 1_555
N12_3 N10_3 1_555 1_555
C25_3 C20_3 1_555 1_555
H9_3 C25_3 1_555 1_555
C26_3 C23_3 1_555 1_555
C27_3 O41_2 1_555 1_555
Cu21_3 N12_3 1_555 1_555
O47_3 Cu9_3 1_555 1_555
N28_3 Cu9_3 1_555 1_555
O20_3 C24_3 1_555 1_555
C22_3 C24_3 1_555 1_555
O45_2 C27_3 1_555 1_555
N11_3 N12_3 1_555 1_555
C25_3 C26_3 1_555 1_555
C26_3 C27_3 1_555 1_555
Cu21_3 O47_3 1_555 1_555
Cu6_4 O13_4 1_555 1_555
O9_8 Cu17_4 1_555 1_555
O10_8 Cu14_4 1_555 1_555
O11_4 Cu17_4 1_555 1_555
O12_4 Cu14_4 1_555 1_555
O13_4 Cu20_4 1_555 1_555
O14_4 Cu6_4 1_555 1_555
N5_4 N6_4 1_555 1_555
N6_4 Cu6_4 1_555 1_555
C10_4 N5_4 1_555 1_555
C11_4 C10_4 1_555 1_555
C12_4 C11_4 1_555 1_555
H4_4 C12_4 1_555 1_555
C13_4 C12_4 1_555 1_555
C14_4 C13_4 1_555 1_555
H5_4 C14_4 1_555 1_555
C15_4 O11_4 1_555 1_555
O15_3 C18_4 1_555 1_555
O16_3 C18_4 1_555 1_555
N7_4 C10_4 1_555 1_555
N8_4 N6_4 1_555 1_555
C16_4 C11_4 1_555 1_555
H6_4 C16_4 1_555 1_555
C17_4 C14_4 1_555 1_555
C18_4 C17_4 1_555 1_555
Cu15_3 O16_3 1_555 1_555
Cu18_3 O15_3 1_555 1_555
Cu20_4 N8_4 1_555 1_555
Cu25_6 O13_4 1_555 1_555
N27_4 Cu6_4 1_555 1_555
O12_4 C15_4 1_555 1_555
C13_4 C15_4 1_555 1_555
N7_4 N8_4 1_555 1_555
C16_4 C17_4 1_555 1_555
Cu15_3 Cu18_3 1_555 1_555
Cu16_4 O17_6 1_555 1_555
O18_6 Cu13_4 1_555 1_555
O39_3 Cu16_4 1_555 1_555
O42_3 Cu16_4 1_555 1_555
O43_3 Cu13_4 1_555 1_555
O46_3 Cu13_4 1_555 1_555
Cu15_4 Cu18_4 1_555 1_555
Cu25_7 O50 1_555 1_555
Cu26_7 O49 1_555 1_555
Cu25_8 O48_2 1_555 1_555
Cu10_5 O26_5 1_555 1_555
O24_5 C33_5 1_555 1_555
O25_5 C33_5 1_555 1_555
N13_5 N14_5 1_555 1_555
N14_5 Cu10_5 1_555 1_555
C28_5 N13_5 1_555 1_555
C29_5 C28_5 1_555 1_555
C30_5 C29_5 1_555 1_555
H10_5 C30_5 1_555 1_555
C31_5 C30_5 1_555 1_555
C32_5 C31_5 1_555 1_555
H11_5 C32_5 1_555 1_555
C33_5 C31_5 1_555 1_555
N15_5 C28_5 1_555 1_555
N16_5 N14_5 1_555 1_555
C34_5 C29_5 1_555 1_555
H12_5 C34_5 1_555 1_555
C35_5 C32_5 1_555 1_555
C36_5 O41_3 1_555 1_555
Cu15_3 O25_5 1_555 1_555
Cu18_3 O24_5 1_555 1_555
Cu22_5 N16_5 1_555 1_555
O48_5 Cu10_5 1_555 1_555
N25_5 Cu10_5 1_555 1_555
O45_3 C36_5 1_555 1_555
N15_5 N16_5 1_555 1_555
C34_5 C35_5 1_555 1_555
C35_5 C36_5 1_555 1_555
Cu22_5 O48_5 1_555 1_555
Cu26_8 O47_3 1_555 1_555
Cu18_3 O17_7 1_555 1_555
O18_7 Cu15_3 1_555 1_555
Cu18_4 O17_8 1_555 1_555
Cu9_4 O21_4 1_555 1_555
O18_8 Cu15_4 1_555 1_555
O19_4 Cu18_4 1_555 1_555
O20_4 Cu15_4 1_555 1_555
N9_4 N10_4 1_555 1_555
N10_4 Cu9_4 1_555 1_555
C19_4 N9_4 1_555 1_555
C20_4 C19_4 1_555 1_555
C21_4 C20_4 1_555 1_555
H7_4 C21_4 1_555 1_555
C22_4 C21_4 1_555 1_555
C23_4 C22_4 1_555 1_555
H8_4 C23_4 1_555 1_555
C24_4 O19_4 1_555 1_555
N11_4 C19_4 1_555 1_555
N12_4 N10_4 1_555 1_555
C25_4 C20_4 1_555 1_555
H9_4 C25_4 1_555 1_555
C26_4 C23_4 1_555 1_555
C27_4 O42_3 1_555 1_555
Cu12_5 O36_5 1_555 1_555
N21_5 N22_5 1_555 1_555
N22_5 Cu12_5 1_555 1_555
C46_5 N21_5 1_555 1_555
C47_5 C46_5 1_555 1_555
C48_5 C47_5 1_555 1_555
H16_5 C48_5 1_555 1_555
C49_5 C48_5 1_555 1_555
C50_5 C49_5 1_555 1_555
H17_5 C50_5 1_555 1_555
C51_5 O39_3 1_555 1_555
O42_2 C54_5 1_555 1_555
O46_2 C54_5 1_555 1_555
N23_5 C46_5 1_555 1_555
N24_5 N22_5 1_555 1_555
C52_5 C47_5 1_555 1_555
H18_5 C52_5 1_555 1_555
C53_5 C50_5 1_555 1_555
C54_5 C53_5 1_555 1_555
Cu19_5 N24_5 1_555 1_555
Cu21_4 N12_4 1_555 1_555
O40_3 Cu18_4 1_555 1_555
O44_3 Cu15_4 1_555 1_555
O47_4 Cu9_4 1_555 1_555
O50_5 Cu12_5 1_555 1_555
N28_4 Cu9_4 1_555 1_555
N29_5 Cu12_5 1_555 1_555
O20_4 C24_4 1_555 1_555
C22_4 C24_4 1_555 1_555
O46_3 C27_4 1_555 1_555
N11_4 N12_4 1_555 1_555
C25_4 C26_4 1_555 1_555
C26_4 C27_4 1_555 1_555
O43_3 C51_5 1_555 1_555
C49_5 C51_5 1_555 1_555
N23_5 N24_5 1_555 1_555
C52_5 C53_5 1_555 1_555
Cu19_5 O50_5 1_555 1_555
Cu21_4 O47_4 1_555 1_555
Cu26_9 O47_2 1_555 1_555
Cu12_6 O36_6 1_555 1_555
N21_6 N22_6 1_555 1_555
N22_6 Cu12_6 1_555 1_555
C46_6 N21_6 1_555 1_555
C47_6 C46_6 1_555 1_555
C48_6 C47_6 1_555 1_555
H16_6 C48_6 1_555 1_555
C49_6 C48_6 1_555 1_555
C50_6 C49_6 1_555 1_555
H17_6 C50_6 1_555 1_555
C51_6 O39_2 1_555 1_555
O40_3 C54_6 1_555 1_555
O44_3 C54_6 1_555 1_555
N23_6 C46_6 1_555 1_555
N24_6 N22_6 1_555 1_555
C52_6 C47_6 1_555 1_555
H18_6 C52_6 1_555 1_555
C53_6 C50_6 1_555 1_555
C54_6 C53_6 1_555 1_555
Cu19_6 N24_6 1_555 1_555
O50_6 Cu12_6 1_555 1_555
N29_6 Cu12_6 1_555 1_555
O43_2 C51_6 1_555 1_555
C49_6 C51_6 1_555 1_555
N23_6 N24_6 1_555 1_555
C52_6 C53_6 1_555 1_555
Cu19_6 O50_6 1_555 1_555
Cu25_9 O47_4 1_555 1_555
Cu26_10 O50_3 1_555 1_555
Cu25_10 O50_5 1_555 1_555
Cu26_11 O50_4 1_555 1_555
Cu25_11 O50_6 1_555 1_555
Cu25_12 O49_3 1_555 1_555
Cu26_12 O48_5 1_555 1_555
Cu1_3 Cu2_3 1_555 1_555
Cu2_3 O1_9 1_555 1_555
Cu3_3 O5_3 1_555 1_555
O2_9 Cu1_3 1_555 1_555
O3_3 Cu2_3 1_555 1_555
O4_3 Cu1_3 1_555 1_555
O5_3 Cu24_3 1_555 1_555
O6_3 Cu3_3 1_555 1_555
N1_3 N2_3 1_555 1_555
N2_3 Cu3_3 1_555 1_555
C1_3 N1_3 1_555 1_555
C2_3 C1_3 1_555 1_555
C3_3 C2_3 1_555 1_555
H1_3 C3_3 1_555 1_555
C4_3 C3_3 1_555 1_555
C5_3 C4_3 1_555 1_555
H2_3 C5_3 1_555 1_555
C6_3 O3_3 1_555 1_555
O7_3 C9_3 1_555 1_555
O8_3 C9_3 1_555 1_555
N3_3 C1_3 1_555 1_555
N4_3 N2_3 1_555 1_555
C7_3 C2_3 1_555 1_555
H3_3 C7_3 1_555 1_555
C8_3 C5_3 1_555 1_555
C9_3 C8_3 1_555 1_555
Cu4_5 O8_3 1_555 1_555
Cu5_5 O7_3 1_555 1_555
Cu6_5 O13_5 1_555 1_555
O9_9 Cu5_5 1_555 1_555
O10_9 Cu4_5 1_555 1_555
O11_5 Cu5_5 1_555 1_555
O12_5 Cu4_5 1_555 1_555
O13_5 Cu20_5 1_555 1_555
O14_5 Cu6_5 1_555 1_555
N5_5 N6_5 1_555 1_555
N6_5 Cu6_5 1_555 1_555
C10_5 N5_5 1_555 1_555
C11_5 C10_5 1_555 1_555
C12_5 C11_5 1_555 1_555
H4_5 C12_5 1_555 1_555
C13_5 C12_5 1_555 1_555
C14_5 C13_5 1_555 1_555
H5_5 C14_5 1_555 1_555
C15_5 O11_5 1_555 1_555
O15_4 C18_5 1_555 1_555
O16_4 C18_5 1_555 1_555
N7_5 C10_5 1_555 1_555
N8_5 N6_5 1_555 1_555
C16_5 C11_5 1_555 1_555
H6_5 C16_5 1_555 1_555
C17_5 C14_5 1_555 1_555
C18_5 C17_5 1_555 1_555
Cu7_5 Cu8_5 1_555 1_555
Cu8_5 O17_9 1_555 1_555
Cu9_5 O21_5 1_555 1_555
O18_9 Cu7_5 1_555 1_555
O19_5 Cu8_5 1_555 1_555
O20_5 Cu7_5 1_555 1_555
N9_5 N10_5 1_555 1_555
N10_5 Cu9_5 1_555 1_555
C19_5 N9_5 1_555 1_555
C20_5 C19_5 1_555 1_555
C21_5 C20_5 1_555 1_555
H7_5 C21_5 1_555 1_555
C22_5 C21_5 1_555 1_555
C23_5 C22_5 1_555 1_555
H8_5 C23_5 1_555 1_555
C24_5 O19_5 1_555 1_555
O22_3 Cu2_3 1_555 1_555
O23_3 Cu1_3 1_555 1_555
N11_5 C19_5 1_555 1_555
N12_5 N10_5 1_555 1_555
C25_5 C20_5 1_555 1_555
H9_5 C25_5 1_555 1_555
C26_5 C23_5 1_555 1_555
C27_5 O22_3 1_555 1_555
Cu19_2 O26_6 1_555 1_555
O24_6 C33_6 1_555 1_555
O25_6 C33_6 1_555 1_555
N13_6 N14_6 1_555 1_555
N14_6 Cu19_2 1_555 1_555
C28_6 N13_6 1_555 1_555
C29_6 C28_6 1_555 1_555
C30_6 C29_6 1_555 1_555
H10_6 C30_6 1_555 1_555
C31_6 C30_6 1_555 1_555
C32_6 C31_6 1_555 1_555
H11_6 C32_6 1_555 1_555
C33_6 C31_6 1_555 1_555
O27_3 Cu2_3 1_555 1_555
O28_3 Cu1_3 1_555 1_555
N15_6 C28_6 1_555 1_555
N16_6 N14_6 1_555 1_555
C34_6 C29_6 1_555 1_555
H12_6 C34_6 1_555 1_555
C35_6 C32_6 1_555 1_555
C36_6 O27_3 1_555 1_555
Cu26_8 O31_4 1_555 1_555
O29_4 Cu5_5 1_555 1_555
O30_4 Cu4_5 1_555 1_555
N17_4 N18_4 1_555 1_555
N18_4 Cu26_8 1_555 1_555
C37_4 N17_4 1_555 1_555
C38_4 C37_4 1_555 1_555
C39_4 C38_4 1_555 1_555
H13_4 C39_4 1_555 1_555
C40_4 C39_4 1_555 1_555
C41_4 C40_4 1_555 1_555
H14_4 C41_4 1_555 1_555
C42_4 O29_4 1_555 1_555
O32_4 C45_4 1_555 1_555
O33_4 C45_4 1_555 1_555
N19_4 C37_4 1_555 1_555
N28_3 N18_4 1_555 1_555
C43_4 C38_4 1_555 1_555
H15_4 C43_4 1_555 1_555
C44_4 C41_4 1_555 1_555
C45_4 C44_4 1_555 1_555
Cu25_8 O36_7 1_555 1_555
O34_4 Cu2_3 1_555 1_555
O35_4 Cu1_3 1_555 1_555
N21_7 N22_7 1_555 1_555
N22_7 Cu25_8 1_555 1_555
C46_7 N21_7 1_555 1_555
C47_7 C46_7 1_555 1_555
C48_7 C47_7 1_555 1_555
H16_7 C48_7 1_555 1_555
C49_7 C48_7 1_555 1_555
C50_7 C49_7 1_555 1_555
H17_7 C50_7 1_555 1_555
C51_7 O34_4 1_555 1_555
O37_4 C54_7 1_555 1_555
O38_4 C54_7 1_555 1_555
N23_7 C46_7 1_555 1_555
N25_2 N22_7 1_555 1_555
C52_7 C47_7 1_555 1_555
H18_7 C52_7 1_555 1_555
C53_7 C50_7 1_555 1_555
C54_7 C53_7 1_555 1_555
Cu13_7 O38_4 1_555 1_555
Cu14_5 O25_6 1_555 1_555
Cu15_5 O16_4 1_555 1_555
Cu16_7 O37_4 1_555 1_555
Cu17_5 O24_6 1_555 1_555
Cu18_5 O15_4 1_555 1_555
Cu20_5 N8_5 1_555 1_555
Cu21_5 N12_5 1_555 1_555
Cu25_3 N16_6 1_555 1_555
Cu24_3 N4_3 1_555 1_555
Cu25_13 O13_5 1_555 1_555
Cu26_13 O5_3 1_555 1_555
O39_4 Cu8_5 1_555 1_555
O40_4 Cu8_5 1_555 1_555
O41_4 Cu5_5 1_555 1_555
O42_4 Cu8_5 1_555 1_555
O43_4 Cu7_5 1_555 1_555
O44_4 Cu7_5 1_555 1_555
O45_4 Cu4_5 1_555 1_555
O46_4 Cu7_5 1_555 1_555
O47_5 Cu9_5 1_555 1_555
N26_4 Cu26_8 1_555 1_555
N27_5 Cu6_5 1_555 1_555
N28_5 Cu9_5 1_555 1_555
N29_7 Cu25_8 1_555 1_555
N30_3 Cu3_3 1_555 1_555
O4_3 C6_3 1_555 1_555
C4_3 C6_3 1_555 1_555
N3_3 N4_3 1_555 1_555
C7_3 C8_3 1_555 1_555
Cu4_5 Cu5_5 1_555 1_555
O12_5 C15_5 1_555 1_555
C13_5 C15_5 1_555 1_555
N7_5 N8_5 1_555 1_555
C16_5 C17_5 1_555 1_555
O20_5 C24_5 1_555 1_555
C22_5 C24_5 1_555 1_555
O23_3 C27_5 1_555 1_555
N11_5 N12_5 1_555 1_555
C25_5 C26_5 1_555 1_555
C26_5 C27_5 1_555 1_555
O28_3 C36_6 1_555 1_555
N15_6 N16_6 1_555 1_555
C34_6 C35_6 1_555 1_555
C35_6 C36_6 1_555 1_555
O30_4 C42_4 1_555 1_555
C40_4 C42_4 1_555 1_555
O32_4 Cu17_5 1_555 1_555
O33_4 Cu14_5 1_555 1_555
N19_4 N28_3 1_555 1_555
C43_4 C44_4 1_555 1_555
O35_4 C51_7 1_555 1_555
C49_7 C51_7 1_555 1_555
N23_7 N25_2 1_555 1_555
C52_7 C53_7 1_555 1_555
Cu13_7 Cu16_7 1_555 1_555
Cu14_5 Cu17_5 1_555 1_555
Cu15_5 Cu18_5 1_555 1_555
Cu21_5 O47_5 1_555 1_555
Cu13_8 Cu16_8 1_555 1_555
Cu14_6 Cu17_6 1_555 1_555
Cu6_6 O13_6 1_555 1_555
O9_10 Cu18_5 1_555 1_555
O10_10 Cu15_5 1_555 1_555
O11_6 Cu18_5 1_555 1_555
O12_6 Cu15_5 1_555 1_555
O13_6 Cu20_6 1_555 1_555
O14_6 Cu6_6 1_555 1_555
N5_6 N6_6 1_555 1_555
N6_6 Cu6_6 1_555 1_555
C10_6 N5_6 1_555 1_555
C11_6 C10_6 1_555 1_555
C12_6 C11_6 1_555 1_555
H4_6 C12_6 1_555 1_555
C13_6 C12_6 1_555 1_555
C14_6 C13_6 1_555 1_555
H5_6 C14_6 1_555 1_555
C15_6 O11_6 1_555 1_555
O42_4 C18_6 1_555 1_555
O46_4 C18_6 1_555 1_555
N7_6 C10_6 1_555 1_555
N8_6 N6_6 1_555 1_555
C16_6 C11_6 1_555 1_555
H6_6 C16_6 1_555 1_555
C17_6 C14_6 1_555 1_555
C18_6 C17_6 1_555 1_555
Cu19 O26_7 1_555 1_555
O24_7 C33_7 1_555 1_555
O25_7 C33_7 1_555 1_555
N13_7 N14_7 1_555 1_555
N14_7 Cu19 1_555 1_555
C28_7 N13_7 1_555 1_555
C29_7 C28_7 1_555 1_555
C30_7 C29_7 1_555 1_555
H10_7 C30_7 1_555 1_555
C31_7 C30_7 1_555 1_555
C32_7 C31_7 1_555 1_555
H11_7 C32_7 1_555 1_555
C33_7 C31_7 1_555 1_555
N15_7 C28_7 1_555 1_555
N16_7 N14_7 1_555 1_555
C34_7 C29_7 1_555 1_555
H12_7 C34_7 1_555 1_555
C35_7 C32_7 1_555 1_555
C36_7 O41_4 1_555 1_555
Cu26_3 O31_5 1_555 1_555
O29_5 Cu18_5 1_555 1_555
O30_5 Cu15_5 1_555 1_555
N17_5 N18_5 1_555 1_555
N18_5 Cu26_3 1_555 1_555
C37_5 N17_5 1_555 1_555
C38_5 C37_5 1_555 1_555
C39_5 C38_5 1_555 1_555
H13_5 C39_5 1_555 1_555
C40_5 C39_5 1_555 1_555
C41_5 C40_5 1_555 1_555
H14_5 C41_5 1_555 1_555
C42_5 O29_5 1_555 1_555
O32_5 C45_5 1_555 1_555
O33_5 C45_5 1_555 1_555
N19_5 C37_5 1_555 1_555
N25_3 N18_5 1_555 1_555
C43_5 C38_5 1_555 1_555
H15_5 C43_5 1_555 1_555
C44_5 C41_5 1_555 1_555
C45_5 C44_5 1_555 1_555
Cu14_7 O25_7 1_555 1_555
Cu17_7 O24_7 1_555 1_555
Cu20_6 N8_6 1_555 1_555
Cu25_7 N16_7 1_555 1_555
Cu25_14 O13_6 1_555 1_555
O41_5 Cu18_5 1_555 1_555
O45_5 Cu15_5 1_555 1_555
N26_5 Cu26_3 1_555 1_555
N27_6 Cu6_6 1_555 1_555
O12_6 C15_6 1_555 1_555
C13_6 C15_6 1_555 1_555
N7_6 N8_6 1_555 1_555
C16_6 C17_6 1_555 1_555
O45_4 C36_7 1_555 1_555
N15_7 N16_7 1_555 1_555
C34_7 C35_7 1_555 1_555
C35_7 C36_7 1_555 1_555
O30_5 C42_5 1_555 1_555
C40_5 C42_5 1_555 1_555
O32_5 Cu17_7 1_555 1_555
O33_5 Cu14_7 1_555 1_555
N19_5 N25_3 1_555 1_555
C43_5 C44_5 1_555 1_555
Cu14_7 Cu17_7 1_555 1_555
Cu14_8 Cu17_8 1_555 1_555
Cu23_2 O26_8 1_555 1_555
O24_8 C33_8 1_555 1_555
O25_8 C33_8 1_555 1_555
N13_8 N14_8 1_555 1_555
N14_8 Cu23_2 1_555 1_555
C28_8 N13_8 1_555 1_555
C29_8 C28_8 1_555 1_555
C30_8 C29_8 1_555 1_555
H10_8 C30_8 1_555 1_555
C31_8 C30_8 1_555 1_555
C32_8 C31_8 1_555 1_555
H11_8 C32_8 1_555 1_555
C33_8 C31_8 1_555 1_555
N15_8 C28_8 1_555 1_555
N16_8 N14_8 1_555 1_555
C34_8 C29_8 1_555 1_555
H12_8 C34_8 1_555 1_555
C35_8 C32_8 1_555 1_555
C36_8 O40_4 1_555 1_555
Cu25_5 O36_8 1_555 1_555
N21_8 N22_8 1_555 1_555
N22_8 Cu25_5 1_555 1_555
C46_8 N21_8 1_555 1_555
C47_8 C46_8 1_555 1_555
C48_8 C47_8 1_555 1_555
H16_8 C48_8 1_555 1_555
C49_8 C48_8 1_555 1_555
C50_8 C49_8 1_555 1_555
H17_8 C50_8 1_555 1_555
C51_8 O39_4 1_555 1_555
O37_5 C54_8 1_555 1_555
O38_5 C54_8 1_555 1_555
N23_8 C46_8 1_555 1_555
N25 N22_8 1_555 1_555
C52_8 C47_8 1_555 1_555
H18_8 C52_8 1_555 1_555
C53_8 C50_8 1_555 1_555
C54_8 C53_8 1_555 1_555
Cu13_9 O38_5 1_555 1_555
Cu13_7 O25_8 1_555 1_555
Cu16_9 O37_5 1_555 1_555
Cu16_7 O24_8 1_555 1_555
Cu26_6 N16_8 1_555 1_555
Cu26_14 O47_5 1_555 1_555
N29_8 Cu25_5 1_555 1_555
O44_4 C36_8 1_555 1_555
N15_8 N16_8 1_555 1_555
C34_8 C35_8 1_555 1_555
C35_8 C36_8 1_555 1_555
O43_4 C51_8 1_555 1_555
C49_8 C51_8 1_555 1_555
N23_8 N25 1_555 1_555
C52_8 C53_8 1_555 1_555
Cu13_9 Cu16_9 1_555 1_555
Cu13_10 Cu16_10 1_555 1_555
Cu16_7 O1_10 1_555 1_555
O2_10 Cu13_7 1_555 1_555
Cu16_8 O1_11 1_555 1_555
O2_11 Cu13_8 1_555 1_555
Cu7_6 Cu8_6 1_555 1_555
Cu8_6 O17_10 1_555 1_555
Cu25_6 O21_6 1_555 1_555
O18_10 Cu7_6 1_555 1_555
O19_6 Cu8_6 1_555 1_555
O20_6 Cu7_6 1_555 1_555
N9_6 N10_6 1_555 1_555
N10_6 Cu25_6 1_555 1_555
C19_6 N9_6 1_555 1_555
C20_6 C19_6 1_555 1_555
C21_6 C20_6 1_555 1_555
H7_6 C21_6 1_555 1_555
C22_6 C21_6 1_555 1_555
C23_6 C22_6 1_555 1_555
H8_6 C23_6 1_555 1_555
C24_6 O19_6 1_555 1_555
O22_4 Cu16_8 1_555 1_555
O23_4 Cu13_8 1_555 1_555
N11_6 C19_6 1_555 1_555
N27_4 N10_6 1_555 1_555
C25_6 C20_6 1_555 1_555
H9_6 C25_6 1_555 1_555
C26_6 C23_6 1_555 1_555
C27_6 O22_4 1_555 1_555
Cu20_3 O36_9 1_555 1_555
O34_5 Cu16_8 1_555 1_555
O35_5 Cu13_8 1_555 1_555
N21_9 N22_9 1_555 1_555
N22_9 Cu20_3 1_555 1_555
C46_9 N21_9 1_555 1_555
C47_9 C46_9 1_555 1_555
C48_9 C47_9 1_555 1_555
H16_9 C48_9 1_555 1_555
C49_9 C48_9 1_555 1_555
C50_9 C49_9 1_555 1_555
H17_9 C50_9 1_555 1_555
C51_9 O34_5 1_555 1_555
O37_6 C54_9 1_555 1_555
O38_6 C54_9 1_555 1_555
N23_9 C46_9 1_555 1_555
N24_7 N22_9 1_555 1_555
C52_9 C47_9 1_555 1_555
H18_9 C52_9 1_555 1_555
C53_9 C50_9 1_555 1_555
C54_9 C53_9 1_555 1_555
Cu13_11 O38_6 1_555 1_555
Cu16_11 O37_6 1_555 1_555
Cu25_4 N24_7 1_555 1_555
O39_5 Cu8_6 1_555 1_555
O40_5 Cu8_6 1_555 1_555
O42_5 Cu8_6 1_555 1_555
O43_5 Cu7_6 1_555 1_555
O44_5 Cu7_6 1_555 1_555
O46_5 Cu7_6 1_555 1_555
N28_6 Cu25_6 1_555 1_555
O20_6 C24_6 1_555 1_555
C22_6 C24_6 1_555 1_555
O23_4 C27_6 1_555 1_555
N11_6 N27_4 1_555 1_555
C25_6 C26_6 1_555 1_555
C26_6 C27_6 1_555 1_555
O35_5 C51_9 1_555 1_555
C49_9 C51_9 1_555 1_555
N23_9 N24_7 1_555 1_555
C52_9 C53_9 1_555 1_555
Cu13_11 Cu16_11 1_555 1_555
Cu17_5 O1_12 1_555 1_555
O2_12 Cu14_5 1_555 1_555
Cu17_6 O1_13 1_555 1_555
O2_13 Cu14_6 1_555 1_555
O3_4 Cu17_6 1_555 1_555
O4_4 Cu14_6 1_555 1_555
O6_4 Cu21_4 1_555 1_555
N1_4 N2_4 1_555 1_555
N2_4 Cu21_4 1_555 1_555
C1_4 N1_4 1_555 1_555
C2_4 C1_4 1_555 1_555
C3_4 C2_4 1_555 1_555
H1_4 C3_4 1_555 1_555
C4_4 C3_4 1_555 1_555
C5_4 C4_4 1_555 1_555
H2_4 C5_4 1_555 1_555
C6_4 O3_4 1_555 1_555
O7_4 C9_4 1_555 1_555
O8_4 C9_4 1_555 1_555
N3_4 C1_4 1_555 1_555
N4_4 N2_4 1_555 1_555
C7_4 C2_4 1_555 1_555
H3_4 C7_4 1_555 1_555
C8_4 C5_4 1_555 1_555
C9_4 C8_4 1_555 1_555
Cu4_6 O8_4 1_555 1_555
Cu5_6 O7_4 1_555 1_555
O9_11 Cu5_6 1_555 1_555
O10_11 Cu4_6 1_555 1_555
O11_7 Cu5_6 1_555 1_555
O12_7 Cu4_6 1_555 1_555
O14_7 Cu26_10 1_555 1_555
N5_7 N6_7 1_555 1_555
N6_7 Cu26_10 1_555 1_555
C10_7 N5_7 1_555 1_555
C11_7 C10_7 1_555 1_555
C12_7 C11_7 1_555 1_555
H4_7 C12_7 1_555 1_555
C13_7 C12_7 1_555 1_555
C14_7 C13_7 1_555 1_555
H5_7 C14_7 1_555 1_555
C15_7 O11_7 1_555 1_555
O15_5 C18_7 1_555 1_555
O16_5 C18_7 1_555 1_555
N7_7 C10_7 1_555 1_555
N29_3 N6_7 1_555 1_555
C16_7 C11_7 1_555 1_555
H6_7 C16_7 1_555 1_555
C17_7 C14_7 1_555 1_555
C18_7 C17_7 1_555 1_555
Cu25_10 O26_9 1_555 1_555
O24_9 C33_9 1_555 1_555
O25_9 C33_9 1_555 1_555
N13_9 N14_9 1_555 1_555
N14_9 Cu25_10 1_555 1_555
C28_9 N13_9 1_555 1_555
C29_9 C28_9 1_555 1_555
C30_9 C29_9 1_555 1_555
H10_9 C30_9 1_555 1_555
C31_9 C30_9 1_555 1_555
C32_9 C31_9 1_555 1_555
H11_9 C32_9 1_555 1_555
C33_9 C31_9 1_555 1_555
O27_4 Cu17_6 1_555 1_555
O28_4 Cu14_6 1_555 1_555
N15_9 C28_9 1_555 1_555
N29_5 N14_9 1_555 1_555
C34_9 C29_9 1_555 1_555
H12_9 C34_9 1_555 1_555
C35_9 C32_9 1_555 1_555
C36_9 O27_4 1_555 1_555
Cu11_4 O31_6 1_555 1_555
O29_6 Cu5_6 1_555 1_555
O30_6 Cu4_6 1_555 1_555
N17_6 N18_6 1_555 1_555
N18_6 Cu11_4 1_555 1_555
C37_6 N17_6 1_555 1_555
C38_6 C37_6 1_555 1_555
C39_6 C38_6 1_555 1_555
H13_6 C39_6 1_555 1_555
C40_6 C39_6 1_555 1_555
C41_6 C40_6 1_555 1_555
H14_6 C41_6 1_555 1_555
C42_6 O29_6 1_555 1_555
O32_6 C45_6 1_555 1_555
O33_6 C45_6 1_555 1_555
N19_6 C37_6 1_555 1_555
N20_4 N18_6 1_555 1_555
C43_6 C38_6 1_555 1_555
H15_6 C43_6 1_555 1_555
C44_6 C41_6 1_555 1_555
C45_6 C44_6 1_555 1_555
Cu13_11 O25_9 1_555 1_555
Cu14_8 O16_5 1_555 1_555
Cu16_11 O24_9 1_555 1_555
Cu17_8 O15_5 1_555 1_555
Cu23_4 N20_4 1_555 1_555
Cu25_9 N4_4 1_555 1_555
O41_6 Cu5_6 1_555 1_555
O45_6 Cu4_6 1_555 1_555
O49_4 Cu11_4 1_555 1_555
N25_6 Cu25_10 1_555 1_555
N26_6 Cu11_4 1_555 1_555
N27_7 Cu26_10 1_555 1_555
O4_4 C6_4 1_555 1_555
C4_4 C6_4 1_555 1_555
N3_4 N4_4 1_555 1_555
C7_4 C8_4 1_555 1_555
Cu4_6 Cu5_6 1_555 1_555
O12_7 C15_7 1_555 1_555
C13_7 C15_7 1_555 1_555
N7_7 N29_3 1_555 1_555
C16_7 C17_7 1_555 1_555
O28_4 C36_9 1_555 1_555
N15_9 N29_5 1_555 1_555
C34_9 C35_9 1_555 1_555
C35_9 C36_9 1_555 1_555
O30_6 C42_6 1_555 1_555
C40_6 C42_6 1_555 1_555
O32_6 Cu16_11 1_555 1_555
O33_6 Cu13_11 1_555 1_555
N19_6 N20_4 1_555 1_555
C43_6 C44_6 1_555 1_555
Cu23_4 O49_4 1_555 1_555
Cu16_11 O1_14 1_555 1_555
O2_14 Cu13_11 1_555 1_555
Cu12_7 O36_10 1_555 1_555
O34_6 Cu16_11 1_555 1_555
O35_6 Cu13_11 1_555 1_555
N21_10 N22_10 1_555 1_555
N22_10 Cu12_7 1_555 1_555
C46_10 N21_10 1_555 1_555
C47_10 C46_10 1_555 1_555
C48_10 C47_10 1_555 1_555
H16_10 C48_10 1_555 1_555
C49_10 C48_10 1_555 1_555
C50_10 C49_10 1_555 1_555
H17_10 C50_10 1_555 1_555
C51_10 O34_6 1_555 1_555
O40_5 C54_10 1_555 1_555
O44_5 C54_10 1_555 1_555
N23_10 C46_10 1_555 1_555
N24_8 N22_10 1_555 1_555
C52_10 C47_10 1_555 1_555
H18_10 C52_10 1_555 1_555
C53_10 C50_10 1_555 1_555
C54_10 C53_10 1_555 1_555
Cu19_7 N24_8 1_555 1_555
O50_7 Cu12_7 1_555 1_555
N29_9 Cu12_7 1_555 1_555
O35_6 C51_10 1_555 1_555
C49_10 C51_10 1_555 1_555
N23_10 N24_8 1_555 1_555
C52_10 C53_10 1_555 1_555
Cu19_7 O50_7 1_555 1_555
O9_12 Cu17_7 1_555 1_555
O10_12 Cu14_7 1_555 1_555
Cu16_9 O17_11 1_555 1_555
Cu23 O21_7 1_555 1_555
O18_11 Cu13_9 1_555 1_555
O19_7 Cu16_9 1_555 1_555
O20_7 Cu13_9 1_555 1_555
N9_7 N10_7 1_555 1_555
N10_7 Cu23 1_555 1_555
C19_7 N9_7 1_555 1_555
C20_7 C19_7 1_555 1_555
C21_7 C20_7 1_555 1_555
H7_7 C21_7 1_555 1_555
C22_7 C21_7 1_555 1_555
C23_7 C22_7 1_555 1_555
H8_7 C23_7 1_555 1_555
C24_7 O19_7 1_555 1_555
N11_7 C19_7 1_555 1_555
N12_6 N10_7 1_555 1_555
C25_7 C20_7 1_555 1_555
H9_7 C25_7 1_555 1_555
C26_7 C23_7 1_555 1_555
C27_7 O41_5 1_555 1_555
Cu26_7 N12_6 1_555 1_555
O20_7 C24_7 1_555 1_555
C22_7 C24_7 1_555 1_555
O45_5 C27_7 1_555 1_555
N11_7 N12_6 1_555 1_555
C25_7 C26_7 1_555 1_555
C26_7 C27_7 1_555 1_555
O9_13 Cu17_8 1_555 1_555
O10_13 Cu14_8 1_555 1_555
O11_8 Cu17_8 1_555 1_555
O12_8 Cu14_8 1_555 1_555
O14_8 Cu21_2 1_555 1_555
N5_8 N6_8 1_555 1_555
N6_8 Cu21_2 1_555 1_555
C10_8 N5_8 1_555 1_555
C11_8 C10_8 1_555 1_555
C12_8 C11_8 1_555 1_555
H4_8 C12_8 1_555 1_555
C13_8 C12_8 1_555 1_555
C14_8 C13_8 1_555 1_555
H5_8 C14_8 1_555 1_555
C15_8 O11_8 1_555 1_555
O15_6 C18_8 1_555 1_555
O16_6 C18_8 1_555 1_555
N7_8 C10_8 1_555 1_555
N8_7 N6_8 1_555 1_555
C16_8 C11_8 1_555 1_555
H6_8 C16_8 1_555 1_555
C17_8 C14_8 1_555 1_555
C18_8 C17_8 1_555 1_555
Cu16_10 O17_12 1_555 1_555
O18_12 Cu13_10 1_555 1_555
Cu15_6 O16_6 1_555 1_555
Cu18_6 O15_6 1_555 1_555
Cu26_9 N8_7 1_555 1_555
O39_6 Cu16_10 1_555 1_555
O42_6 Cu16_10 1_555 1_555
O43_6 Cu13_10 1_555 1_555
O46_6 Cu13_10 1_555 1_555
O12_8 C15_8 1_555 1_555
C13_8 C15_8 1_555 1_555
N7_8 N8_7 1_555 1_555
C16_8 C17_8 1_555 1_555
Cu15_6 Cu18_6 1_555 1_555
Cu10_6 O26_10 1_555 1_555
O24_10 C33_10 1_555 1_555
O25_10 C33_10 1_555 1_555
N13_10 N14_10 1_555 1_555
N14_10 Cu10_6 1_555 1_555
C28_10 N13_10 1_555 1_555
C29_10 C28_10 1_555 1_555
C30_10 C29_10 1_555 1_555
H10_10 C30_10 1_555 1_555
C31_10 C30_10 1_555 1_555
C32_10 C31_10 1_555 1_555
H11_10 C32_10 1_555 1_555
C33_10 C31_10 1_555 1_555
N15_10 C28_10 1_555 1_555
N16_9 N14_10 1_555 1_555
C34_10 C29_10 1_555 1_555
H12_10 C34_10 1_555 1_555
C35_10 C32_10 1_555 1_555
C36_10 O41_6 1_555 1_555
Cu15_6 O25_10 1_555 1_555
Cu18_6 O24_10 1_555 1_555
Cu22_6 N16_9 1_555 1_555
O48_6 Cu10_6 1_555 1_555
N25_7 Cu10_6 1_555 1_555
O45_6 C36_10 1_555 1_555
N15_10 N16_9 1_555 1_555
C34_10 C35_10 1_555 1_555
C35_10 C36_10 1_555 1_555
Cu22_6 O48_6 1_555 1_555
Cu18_6 O17_13 1_555 1_555
Cu26_4 O21_8 1_555 1_555
O18_13 Cu15_6 1_555 1_555
O19_8 Cu18_6 1_555 1_555
O20_8 Cu15_6 1_555 1_555
N9_8 N10_8 1_555 1_555
N10_8 Cu26_4 1_555 1_555
C19_8 N9_8 1_555 1_555
C20_8 C19_8 1_555 1_555
C21_8 C20_8 1_555 1_555
H7_8 C21_8 1_555 1_555
C22_8 C21_8 1_555 1_555
C23_8 C22_8 1_555 1_555
H8_8 C23_8 1_555 1_555
C24_8 O19_8 1_555 1_555
N11_8 C19_8 1_555 1_555
N30_2 N10_8 1_555 1_555
C25_8 C20_8 1_555 1_555
H9_8 C25_8 1_555 1_555
C26_8 C23_8 1_555 1_555
C27_8 O42_6 1_555 1_555
Cu22_4 O36_11 1_555 1_555
N21_11 N22_11 1_555 1_555
N22_11 Cu22_4 1_555 1_555
C46_11 N21_11 1_555 1_555
C47_11 C46_11 1_555 1_555
C48_11 C47_11 1_555 1_555
H16_11 C48_11 1_555 1_555
C49_11 C48_11 1_555 1_555
C50_11 C49_11 1_555 1_555
H17_11 C50_11 1_555 1_555
C51_11 O39_6 1_555 1_555
O42_5 C54_11 1_555 1_555
O46_5 C54_11 1_555 1_555
N23_11 C46_11 1_555 1_555
N24_9 N22_11 1_555 1_555
C52_11 C47_11 1_555 1_555
H18_11 C52_11 1_555 1_555
C53_11 C50_11 1_555 1_555
C54_11 C53_11 1_555 1_555
Cu26_5 N24_9 1_555 1_555
O40_6 Cu18_6 1_555 1_555
O44_6 Cu15_6 1_555 1_555
N28_7 Cu26_4 1_555 1_555
O20_8 C24_8 1_555 1_555
C22_8 C24_8 1_555 1_555
O46_6 C27_8 1_555 1_555
N11_8 N30_2 1_555 1_555
C25_8 C26_8 1_555 1_555
C26_8 C27_8 1_555 1_555
O43_6 C51_11 1_555 1_555
C49_11 C51_11 1_555 1_555
N23_11 N24_9 1_555 1_555
C52_11 C53_11 1_555 1_555
Cu12_8 O36_12 1_555 1_555
N21_12 N22_12 1_555 1_555
N22_12 Cu12_8 1_555 1_555
C46_12 N21_12 1_555 1_555
C47_12 C46_12 1_555 1_555
C48_12 C47_12 1_555 1_555
H16_12 C48_12 1_555 1_555
C49_12 C48_12 1_555 1_555
C50_12 C49_12 1_555 1_555
H17_12 C50_12 1_555 1_555
C51_12 O39_5 1_555 1_555
O40_6 C54_12 1_555 1_555
O44_6 C54_12 1_555 1_555
N23_12 C46_12 1_555 1_555
N24_10 N22_12 1_555 1_555
C52_12 C47_12 1_555 1_555
H18_12 C52_12 1_555 1_555
C53_12 C50_12 1_555 1_555
C54_12 C53_12 1_555 1_555
Cu19_8 N24_10 1_555 1_555
O50_8 Cu12_8 1_555 1_555
N29_10 Cu12_8 1_555 1_555
O43_5 C51_12 1_555 1_555
C49_12 C51_12 1_555 1_555
N23_12 N24_10 1_555 1_555
C52_12 C53_12 1_555 1_555
Cu19_8 O50_8 1_555 1_555
Cu25_15 O50_8 1_555 1_555
Cu26_15 O50_7 1_555 1_555
Cu25_16 O49_4 1_555 1_555
Cu26_16 O48_6 1_555 1_555
Cu1_4 Cu2_4 1_555 1_555
Cu2_4 O1_15 1_555 1_555
O2_15 Cu1_4 1_555 1_555
O3_5 Cu2_4 1_555 1_555
O4_5 Cu1_4 1_555 1_555
O6_5 Cu26_9 1_555 1_555
N1_5 N2_5 1_555 1_555
N2_5 Cu26_9 1_555 1_555
C1_5 N1_5 1_555 1_555
C2_5 C1_5 1_555 1_555
C3_5 C2_5 1_555 1_555
H1_5 C3_5 1_555 1_555
C4_5 C3_5 1_555 1_555
C5_5 C4_5 1_555 1_555
H2_5 C5_5 1_555 1_555
C6_5 O3_5 1_555 1_555
O7_5 C9_5 1_555 1_555
O8_5 C9_5 1_555 1_555
N3_5 C1_5 1_555 1_555
N28_2 N2_5 1_555 1_555
C7_5 C2_5 1_555 1_555
H3_5 C7_5 1_555 1_555
C8_5 C5_5 1_555 1_555
C9_5 C8_5 1_555 1_555
Cu4_7 O8_5 1_555 1_555
Cu5_7 O7_5 1_555 1_555
O9_14 Cu5_7 1_555 1_555
O10_14 Cu4_7 1_555 1_555
Cu7_7 Cu8_7 1_555 1_555
Cu8_7 O17_14 1_555 1_555
Cu24_2 O21_9 1_555 1_555
O18_14 Cu7_7 1_555 1_555
O19_9 Cu8_7 1_555 1_555
O20_9 Cu7_7 1_555 1_555
N9_9 N10_9 1_555 1_555
N10_9 Cu24_2 1_555 1_555
C19_9 N9_9 1_555 1_555
C20_9 C19_9 1_555 1_555
C21_9 C20_9 1_555 1_555
H7_9 C21_9 1_555 1_555
C22_9 C21_9 1_555 1_555
C23_9 C22_9 1_555 1_555
H8_9 C23_9 1_555 1_555
C24_9 O19_9 1_555 1_555
O22_5 Cu2_4 1_555 1_555
O23_5 Cu1_4 1_555 1_555
N11_9 C19_9 1_555 1_555
N28_7 N10_9 1_555 1_555
C25_9 C20_9 1_555 1_555
H9_9 C25_9 1_555 1_555
C26_9 C23_9 1_555 1_555
C27_9 O22_5 1_555 1_555
Cu26_16 O26_11 1_555 1_555
O24_11 C33_11 1_555 1_555
O25_11 C33_11 1_555 1_555
N13_11 N14_11 1_555 1_555
N14_11 Cu26_16 1_555 1_555
C28_11 N13_11 1_555 1_555
C29_11 C28_11 1_555 1_555
C30_11 C29_11 1_555 1_555
H10_11 C30_11 1_555 1_555
C31_11 C30_11 1_555 1_555
C32_11 C31_11 1_555 1_555
H11_11 C32_11 1_555 1_555
C33_11 C31_11 1_555 1_555
O27_5 Cu2_4 1_555 1_555
O28_5 Cu1_4 1_555 1_555
N15_11 C28_11 1_555 1_555
N25_7 N14_11 1_555 1_555
C34_11 C29_11 1_555 1_555
H12_11 C34_11 1_555 1_555
C35_11 C32_11 1_555 1_555
C36_11 O27_5 1_555 1_555
Cu19_4 O31_7 1_555 1_555
O29_7 Cu5_7 1_555 1_555
O30_7 Cu4_7 1_555 1_555
N17_7 N18_7 1_555 1_555
N18_7 Cu19_4 1_555 1_555
C37_7 N17_7 1_555 1_555
C38_7 C37_7 1_555 1_555
C39_7 C38_7 1_555 1_555
H13_7 C39_7 1_555 1_555
C40_7 C39_7 1_555 1_555
C41_7 C40_7 1_555 1_555
H14_7 C41_7 1_555 1_555
C42_7 O29_7 1_555 1_555
O32_7 C45_7 1_555 1_555
O33_7 C45_7 1_555 1_555
N19_7 C37_7 1_555 1_555
N20_5 N18_7 1_555 1_555
C43_7 C38_7 1_555 1_555
H15_7 C43_7 1_555 1_555
C44_7 C41_7 1_555 1_555
C45_7 C44_7 1_555 1_555
Cu19_8 O36_13 1_555 1_555
O34_7 Cu2_4 1_555 1_555
O35_7 Cu1_4 1_555 1_555
N21_13 N22_13 1_555 1_555
N22_13 Cu19_8 1_555 1_555
C46_13 N21_13 1_555 1_555
C47_13 C46_13 1_555 1_555
C48_13 C47_13 1_555 1_555
H16_13 C48_13 1_555 1_555
C49_13 C48_13 1_555 1_555
C50_13 C49_13 1_555 1_555
H17_13 C50_13 1_555 1_555
C51_13 O34_7 1_555 1_555
O37_7 C54_13 1_555 1_555
O38_7 C54_13 1_555 1_555
N23_13 C46_13 1_555 1_555
N24_11 N22_13 1_555 1_555
C52_13 C47_13 1_555 1_555
H18_13 C52_13 1_555 1_555
C53_13 C50_13 1_555 1_555
C54_13 C53_13 1_555 1_555
Cu13_12 O38_7 1_555 1_555
Cu14_9 O25_11 1_555 1_555
Cu16_12 O37_7 1_555 1_555
Cu17_9 O24_11 1_555 1_555
Cu25_15 N24_11 1_555 1_555
Cu26_11 N20_5 1_555 1_555
O40_7 Cu8_7 1_555 1_555
O44_7 Cu7_7 1_555 1_555
N25_8 Cu26_16 1_555 1_555
O4_5 C6_5 1_555 1_555
C4_5 C6_5 1_555 1_555
N3_5 N28_2 1_555 1_555
C7_5 C8_5 1_555 1_555
Cu4_7 Cu5_7 1_555 1_555
O20_9 C24_9 1_555 1_555
C22_9 C24_9 1_555 1_555
O23_5 C27_9 1_555 1_555
N11_9 N28_7 1_555 1_555
C25_9 C26_9 1_555 1_555
C26_9 C27_9 1_555 1_555
O28_5 C36_11 1_555 1_555
N15_11 N25_7 1_555 1_555
C34_11 C35_11 1_555 1_555
C35_11 C36_11 1_555 1_555
O30_7 C42_7 1_555 1_555
C40_7 C42_7 1_555 1_555
O32_7 Cu17_9 1_555 1_555
O33_7 Cu14_9 1_555 1_555
N19_7 N20_5 1_555 1_555
C43_7 C44_7 1_555 1_555
O35_7 C51_13 1_555 1_555
C49_13 C51_13 1_555 1_555
N23_13 N24_11 1_555 1_555
C52_13 C53_13 1_555 1_555
Cu13_12 Cu16_12 1_555 1_555
Cu14_9 Cu17_9 1_555 1_555
O9_15 Cu5_8 1_555 1_555
O10_15 Cu4_8 1_555 1_555
O11_9 Cu5_8 1_555 1_555
O12_9 Cu4_8 1_555 1_555
O14_9 Cu19_5 1_555 1_555
N5_9 N6_9 1_555 1_555
N6_9 Cu19_5 1_555 1_555
C10_9 N5_9 1_555 1_555
C11_9 C10_9 1_555 1_555
C12_9 C11_9 1_555 1_555
H4_9 C12_9 1_555 1_555
C13_9 C12_9 1_555 1_555
C14_9 C13_9 1_555 1_555
H5_9 C14_9 1_555 1_555
C15_9 O11_9 1_555 1_555
O15_7 C18_9 1_555 1_555
O16_7 C18_9 1_555 1_555
N7_9 C10_9 1_555 1_555
N25_6 N6_9 1_555 1_555
C16_9 C11_9 1_555 1_555
H6_9 C16_9 1_555 1_555
C17_9 C14_9 1_555 1_555
C18_9 C17_9 1_555 1_555
Cu7_8 Cu8_8 1_555 1_555
Cu8_8 O17_15 1_555 1_555
O18_15 Cu7_8 1_555 1_555
Cu15_7 O16_7 1_555 1_555
Cu18_7 O15_7 1_555 1_555
O39_7 Cu8_8 1_555 1_555
O41_7 Cu5_8 1_555 1_555
O42_7 Cu8_8 1_555 1_555
O43_7 Cu7_8 1_555 1_555
O45_7 Cu4_8 1_555 1_555
O46_7 Cu7_8 1_555 1_555
Cu4_8 Cu5_8 1_555 1_555
O12_9 C15_9 1_555 1_555
C13_9 C15_9 1_555 1_555
N7_9 N25_6 1_555 1_555
C16_9 C17_9 1_555 1_555
Cu15_7 Cu18_7 1_555 1_555
O9_16 Cu18_7 1_555 1_555
O10_16 Cu15_7 1_555 1_555
O11_10 Cu18_7 1_555 1_555
O12_10 Cu15_7 1_555 1_555
O14_10 Cu25_4 1_555 1_555
N5_10 N6_10 1_555 1_555
N6_10 Cu25_4 1_555 1_555
C10_10 N5_10 1_555 1_555
C11_10 C10_10 1_555 1_555
C12_10 C11_10 1_555 1_555
H4_10 C12_10 1_555 1_555
C13_10 C12_10 1_555 1_555
C14_10 C13_10 1_555 1_555
H5_10 C14_10 1_555 1_555
C15_10 O11_10 1_555 1_555
O42_7 C18_10 1_555 1_555
O46_7 C18_10 1_555 1_555
N7_10 C10_10 1_555 1_555
N27_3 N6_10 1_555 1_555
C16_10 C11_10 1_555 1_555
H6_10 C16_10 1_555 1_555
C17_10 C14_10 1_555 1_555
C18_10 C17_10 1_555 1_555
Cu25_11 O26_12 1_555 1_555
O24_12 C33_12 1_555 1_555
O25_12 C33_12 1_555 1_555
N13_12 N14_12 1_555 1_555
N14_12 Cu25_11 1_555 1_555
C28_12 N13_12 1_555 1_555
C29_12 C28_12 1_555 1_555
C30_12 C29_12 1_555 1_555
H10_12 C30_12 1_555 1_555
C31_12 C30_12 1_555 1_555
C32_12 C31_12 1_555 1_555
H11_12 C32_12 1_555 1_555
C33_12 C31_12 1_555 1_555
N15_12 C28_12 1_555 1_555
N29_6 N14_12 1_555 1_555
C34_12 C29_12 1_555 1_555
H12_12 C34_12 1_555 1_555
C35_12 C32_12 1_555 1_555
C36_12 O41_7 1_555 1_555
Cu23_4 O31_8 1_555 1_555
O29_8 Cu18_7 1_555 1_555
O30_8 Cu15_7 1_555 1_555
N17_8 N18_8 1_555 1_555
N18_8 Cu23_4 1_555 1_555
C37_8 N17_8 1_555 1_555
C38_8 C37_8 1_555 1_555
C39_8 C38_8 1_555 1_555
H13_8 C39_8 1_555 1_555
C40_8 C39_8 1_555 1_555
C41_8 C40_8 1_555 1_555
H14_8 C41_8 1_555 1_555
C42_8 O29_8 1_555 1_555
O32_8 C45_8 1_555 1_555
O33_8 C45_8 1_555 1_555
N19_8 C37_8 1_555 1_555
N20_6 N18_8 1_555 1_555
C43_8 C38_8 1_555 1_555
H15_8 C43_8 1_555 1_555
C44_8 C41_8 1_555 1_555
C45_8 C44_8 1_555 1_555
Cu14_10 O25_12 1_555 1_555
Cu17_10 O24_12 1_555 1_555
Cu25_16 N20_6 1_555 1_555
O41_8 Cu18_7 1_555 1_555
O45_8 Cu15_7 1_555 1_555
N25_9 Cu25_11 1_555 1_555
O12_10 C15_10 1_555 1_555
C13_10 C15_10 1_555 1_555
N7_10 N27_3 1_555 1_555
C16_10 C17_10 1_555 1_555
O45_7 C36_12 1_555 1_555
N15_12 N29_6 1_555 1_555
C34_12 C35_12 1_555 1_555
C35_12 C36_12 1_555 1_555
O30_8 C42_8 1_555 1_555
C40_8 C42_8 1_555 1_555
O32_8 Cu17_10 1_555 1_555
O33_8 Cu14_10 1_555 1_555
N19_8 N20_6 1_555 1_555
C43_8 C44_8 1_555 1_555
Cu14_10 Cu17_10 1_555 1_555
Cu25_12 O26_13 1_555 1_555
O24_13 C33_13 1_555 1_555
O25_13 C33_13 1_555 1_555
N13_13 N14_13 1_555 1_555
N14_13 Cu25_12 1_555 1_555
C28_13 N13_13 1_555 1_555
C29_13 C28_13 1_555 1_555
C30_13 C29_13 1_555 1_555
H10_13 C30_13 1_555 1_555
C31_13 C30_13 1_555 1_555
C32_13 C31_13 1_555 1_555
H11_13 C32_13 1_555 1_555
C33_13 C31_13 1_555 1_555
N15_13 C28_13 1_555 1_555
N26_3 N14_13 1_555 1_555
C34_13 C29_13 1_555 1_555
H12_13 C34_13 1_555 1_555
C35_13 C32_13 1_555 1_555
C36_13 O40_7 1_555 1_555
Cu13_12 O25_13 1_555 1_555
Cu16_12 O24_13 1_555 1_555
N25_10 Cu25_12 1_555 1_555
O44_7 C36_13 1_555 1_555
N15_13 N26_3 1_555 1_555
C34_13 C35_13 1_555 1_555
C35_13 C36_13 1_555 1_555
Cu22_5 O36_14 1_555 1_555
N21_14 N22_14 1_555 1_555
N22_14 Cu22_5 1_555 1_555
C46_14 N21_14 1_555 1_555
C47_14 C46_14 1_555 1_555
C48_14 C47_14 1_555 1_555
H16_14 C48_14 1_555 1_555
C49_14 C48_14 1_555 1_555
C50_14 C49_14 1_555 1_555
H17_14 C50_14 1_555 1_555
C51_14 O39_7 1_555 1_555
O37_8 C54_14 1_555 1_555
O38_8 C54_14 1_555 1_555
N23_14 C46_14 1_555 1_555
N24_12 N22_14 1_555 1_555
C52_14 C47_14 1_555 1_555
H18_14 C52_14 1_555 1_555
C53_14 C50_14 1_555 1_555
C54_14 C53_14 1_555 1_555
Cu13_13 O38_8 1_555 1_555
Cu16_13 O37_8 1_555 1_555
Cu26_12 N24_12 1_555 1_555
O43_7 C51_14 1_555 1_555
C49_14 C51_14 1_555 1_555
N23_14 N24_12 1_555 1_555
C52_14 C53_14 1_555 1_555
Cu13_13 Cu16_13 1_555 1_555
Cu16_12 O1_16 1_555 1_555
O2_16 Cu13_12 1_555 1_555
Cu7_9 Cu8_9 1_555 1_555
Cu8_9 O17_16 1_555 1_555
Cu24 O21_10 1_555 1_555
O18_16 Cu7_9 1_555 1_555
O19_10 Cu8_9 1_555 1_555
O20_10 Cu7_9 1_555 1_555
N9_10 N10_10 1_555 1_555
N10_10 Cu24 1_555 1_555
C19_10 N9_10 1_555 1_555
C20_10 C19_10 1_555 1_555
C21_10 C20_10 1_555 1_555
H7_10 C21_10 1_555 1_555
C22_10 C21_10 1_555 1_555
C23_10 C22_10 1_555 1_555
H8_10 C23_10 1_555 1_555
C24_10 O19_10 1_555 1_555
O22_6 Cu16_12 1_555 1_555
O23_6 Cu13_12 1_555 1_555
N11_10 C19_10 1_555 1_555
N12_7 N10_10 1_555 1_555
C25_10 C20_10 1_555 1_555
H9_10 C25_10 1_555 1_555
C26_10 C23_10 1_555 1_555
C27_10 O22_6 1_555 1_555
Cu25_14 O36_15 1_555 1_555
O34_8 Cu16_12 1_555 1_555
O35_8 Cu13_12 1_555 1_555
N21_15 N22_15 1_555 1_555
N22_15 Cu25_14 1_555 1_555
C46_15 N21_15 1_555 1_555
C47_15 C46_15 1_555 1_555
C48_15 C47_15 1_555 1_555
H16_15 C48_15 1_555 1_555
C49_15 C48_15 1_555 1_555
C50_15 C49_15 1_555 1_555
H17_15 C50_15 1_555 1_555
C51_15 O34_8 1_555 1_555
O37_9 C54_15 1_555 1_555
O38_9 C54_15 1_555 1_555
N23_15 C46_15 1_555 1_555
N27_6 N22_15 1_555 1_555
C52_15 C47_15 1_555 1_555
H18_15 C52_15 1_555 1_555
C53_15 C50_15 1_555 1_555
C54_15 C53_15 1_555 1_555
Cu13_14 O38_9 1_555 1_555
Cu16_14 O37_9 1_555 1_555
Cu26 N12_7 1_555 1_555
O40_8 Cu8_9 1_555 1_555
O44_8 Cu7_9 1_555 1_555
N29_11 Cu25_14 1_555 1_555
O20_10 C24_10 1_555 1_555
C22_10 C24_10 1_555 1_555
O23_6 C27_10 1_555 1_555
N11_10 N12_7 1_555 1_555
C25_10 C26_10 1_555 1_555
C26_10 C27_10 1_555 1_555
O35_8 C51_15 1_555 1_555
C49_15 C51_15 1_555 1_555
N23_15 N27_6 1_555 1_555
C52_15 C53_15 1_555 1_555
Cu13_14 Cu16_14 1_555 1_555
Cu7_10 Cu8_10 1_555 1_555
Cu8_10 O17_17 1_555 1_555
O18_17 Cu7_10 1_555 1_555
O39_8 Cu8_10 1_555 1_555
O42_8 Cu8_10 1_555 1_555
O43_8 Cu7_10 1_555 1_555
O46_8 Cu7_10 1_555 1_555
Cu17_9 O1_17 1_555 1_555
O2_17 Cu14_9 1_555 1_555
O3_6 Cu17_9 1_555 1_555
O4_6 Cu14_9 1_555 1_555
O6_6 Cu26_2 1_555 1_555
N1_6 N2_6 1_555 1_555
N2_6 Cu26_2 1_555 1_555
C1_6 N1_6 1_555 1_555
C2_6 C1_6 1_555 1_555
C3_6 C2_6 1_555 1_555
H1_6 C3_6 1_555 1_555
C4_6 C3_6 1_555 1_555
C5_6 C4_6 1_555 1_555
H2_6 C5_6 1_555 1_555
C6_6 O3_6 1_555 1_555
O7_6 C9_6 1_555 1_555
O8_6 C9_6 1_555 1_555
N3_6 C1_6 1_555 1_555
N28 N2_6 1_555 1_555
C7_6 C2_6 1_555 1_555
H3_6 C7_6 1_555 1_555
C8_6 C5_6 1_555 1_555
C9_6 C8_6 1_555 1_555
Cu4_9 O8_6 1_555 1_555
Cu5_9 O7_6 1_555 1_555
O9_17 Cu5_9 1_555 1_555
O10_17 Cu4_9 1_555 1_555
Cu20_5 O26_14 1_555 1_555
O24_14 C33_14 1_555 1_555
O25_14 C33_14 1_555 1_555
N13_14 N14_14 1_555 1_555
N14_14 Cu20_5 1_555 1_555
C28_14 N13_14 1_555 1_555
C29_14 C28_14 1_555 1_555
C30_14 C29_14 1_555 1_555
H10_14 C30_14 1_555 1_555
C31_14 C30_14 1_555 1_555
C32_14 C31_14 1_555 1_555
H11_14 C32_14 1_555 1_555
C33_14 C31_14 1_555 1_555
O27_6 Cu17_9 1_555 1_555
O28_6 Cu14_9 1_555 1_555
N15_14 C28_14 1_555 1_555
N16_10 N14_14 1_555 1_555
C34_14 C29_14 1_555 1_555
H12_14 C34_14 1_555 1_555
C35_14 C32_14 1_555 1_555
C36_14 O27_6 1_555 1_555
Cu22_3 O31_9 1_555 1_555
O29_9 Cu5_9 1_555 1_555
O30_9 Cu4_9 1_555 1_555
N17_9 N18_9 1_555 1_555
N18_9 Cu22_3 1_555 1_555
C37_9 N17_9 1_555 1_555
C38_9 C37_9 1_555 1_555
C39_9 C38_9 1_555 1_555
H13_9 C39_9 1_555 1_555
C40_9 C39_9 1_555 1_555
C41_9 C40_9 1_555 1_555
H14_9 C41_9 1_555 1_555
C42_9 O29_9 1_555 1_555
O32_9 C45_9 1_555 1_555
O33_9 C45_9 1_555 1_555
N19_9 C37_9 1_555 1_555
N26_5 N18_9 1_555 1_555
C43_9 C38_9 1_555 1_555
H15_9 C43_9 1_555 1_555
C44_9 C41_9 1_555 1_555
C45_9 C44_9 1_555 1_555
Cu13_14 O25_14 1_555 1_555
Cu16_14 O24_14 1_555 1_555
Cu25_13 N16_10 1_555 1_555
N30_4 Cu26_2 1_555 1_555
O4_6 C6_6 1_555 1_555
C4_6 C6_6 1_555 1_555
N3_6 N28 1_555 1_555
C7_6 C8_6 1_555 1_555
Cu4_9 Cu5_9 1_555 1_555
O28_6 C36_14 1_555 1_555
N15_14 N16_10 1_555 1_555
C34_14 C35_14 1_555 1_555
C35_14 C36_14 1_555 1_555
O30_9 C42_9 1_555 1_555
C40_9 C42_9 1_555 1_555
O32_9 Cu16_14 1_555 1_555
O33_9 Cu13_14 1_555 1_555
N19_9 N26_5 1_555 1_555
C43_9 C44_9 1_555 1_555
O9_18 Cu5_10 1_555 1_555
O10_18 Cu4_10 1_555 1_555
O11_11 Cu5_10 1_555 1_555
O12_11 Cu4_10 1_555 1_555
O14_11 Cu20_2 1_555 1_555
N5_11 N6_11 1_555 1_555
N6_11 Cu20_2 1_555 1_555
C10_11 N5_11 1_555 1_555
C11_11 C10_11 1_555 1_555
C12_11 C11_11 1_555 1_555
H4_11 C12_11 1_555 1_555
C13_11 C12_11 1_555 1_555
C14_11 C13_11 1_555 1_555
H5_11 C14_11 1_555 1_555
C15_11 O11_11 1_555 1_555
O15_8 C18_11 1_555 1_555
O16_8 C18_11 1_555 1_555
N7_11 C10_11 1_555 1_555
N8_8 N6_11 1_555 1_555
C16_11 C11_11 1_555 1_555
H6_11 C16_11 1_555 1_555
C17_11 C14_11 1_555 1_555
C18_11 C17_11 1_555 1_555
Cu14_10 O16_8 1_555 1_555
Cu17_10 O15_8 1_555 1_555
Cu25_2 N8_8 1_555 1_555
O41_9 Cu5_10 1_555 1_555
O45_9 Cu4_10 1_555 1_555
Cu4_10 Cu5_10 1_555 1_555
O12_11 C15_11 1_555 1_555
C13_11 C15_11 1_555 1_555
N7_11 N8_8 1_555 1_555
C16_11 C17_11 1_555 1_555
Cu16_14 O1_18 1_555 1_555
O2_18 Cu13_14 1_555 1_555
Cu26_7 O36_16 1_555 1_555
O34_9 Cu16_14 1_555 1_555
O35_9 Cu13_14 1_555 1_555
N21_16 N22_16 1_555 1_555
N22_16 Cu26_7 1_555 1_555
C46_16 N21_16 1_555 1_555
C47_16 C46_16 1_555 1_555
C48_16 C47_16 1_555 1_555
H16_16 C48_16 1_555 1_555
C49_16 C48_16 1_555 1_555
C50_16 C49_16 1_555 1_555
H17_16 C50_16 1_555 1_555
C51_16 O34_9 1_555 1_555
O40_8 C54_16 1_555 1_555
O44_8 C54_16 1_555 1_555
N23_16 C46_16 1_555 1_555
N26 N22_16 1_555 1_555
C52_16 C47_16 1_555 1_555
H18_16 C52_16 1_555 1_555
C53_16 C50_16 1_555 1_555
C54_16 C53_16 1_555 1_555
O35_9 C51_16 1_555 1_555
C49_16 C51_16 1_555 1_555
N23_16 N26 1_555 1_555
C52_16 C53_16 1_555 1_555
O9_19 Cu17_10 1_555 1_555
O10_19 Cu14_10 1_555 1_555
O11_12 Cu17_10 1_555 1_555
O12_12 Cu14_10 1_555 1_555
O14_12 Cu26_13 1_555 1_555
N5_12 N6_12 1_555 1_555
N6_12 Cu26_13 1_555 1_555
C10_12 N5_12 1_555 1_555
C11_12 C10_12 1_555 1_555
C12_12 C11_12 1_555 1_555
H4_12 C12_12 1_555 1_555
C13_12 C12_12 1_555 1_555
C14_12 C13_12 1_555 1_555
H5_12 C14_12 1_555 1_555
C15_12 O11_12 1_555 1_555
O15_9 C18_12 1_555 1_555
O16_9 C18_12 1_555 1_555
N7_12 C10_12 1_555 1_555
N30_3 N6_12 1_555 1_555
C16_12 C11_12 1_555 1_555
H6_12 C16_12 1_555 1_555
C17_12 C14_12 1_555 1_555
C18_12 C17_12 1_555 1_555
Cu16_13 O17_18 1_555 1_555
Cu26_15 O21_11 1_555 1_555
O18_18 Cu13_13 1_555 1_555
O19_11 Cu16_13 1_555 1_555
O20_11 Cu13_13 1_555 1_555
N9_11 N10_11 1_555 1_555
N10_11 Cu26_15 1_555 1_555
C19_11 N9_11 1_555 1_555
C20_11 C19_11 1_555 1_555
C21_11 C20_11 1_555 1_555
H7_11 C21_11 1_555 1_555
C22_11 C21_11 1_555 1_555
C23_11 C22_11 1_555 1_555
H8_11 C23_11 1_555 1_555
C24_11 O19_11 1_555 1_555
N11_11 C19_11 1_555 1_555
N29_9 N10_11 1_555 1_555
C25_11 C20_11 1_555 1_555
H9_11 C25_11 1_555 1_555
C26_11 C23_11 1_555 1_555
C27_11 O41_8 1_555 1_555
Cu15_8 O16_9 1_555 1_555
Cu18_8 O15_9 1_555 1_555
O39_9 Cu16_13 1_555 1_555
O42_9 Cu16_13 1_555 1_555
O43_9 Cu13_13 1_555 1_555
O46_9 Cu13_13 1_555 1_555
N27_8 Cu26_13 1_555 1_555
N28_8 Cu26_15 1_555 1_555
O12_12 C15_12 1_555 1_555
C13_12 C15_12 1_555 1_555
N7_12 N30_3 1_555 1_555
C16_12 C17_12 1_555 1_555
O20_11 C24_11 1_555 1_555
C22_11 C24_11 1_555 1_555
O45_8 C27_11 1_555 1_555
N11_11 N29_9 1_555 1_555
C25_11 C26_11 1_555 1_555
C26_11 C27_11 1_555 1_555
Cu15_8 Cu18_8 1_555 1_555
Cu25_3 O26_15 1_555 1_555
O24_15 C33_15 1_555 1_555
O25_15 C33_15 1_555 1_555
N13_15 N14_15 1_555 1_555
N14_15 Cu25_3 1_555 1_555
C28_15 N13_15 1_555 1_555
C29_15 C28_15 1_555 1_555
C30_15 C29_15 1_555 1_555
H10_15 C30_15 1_555 1_555
C31_15 C30_15 1_555 1_555
C32_15 C31_15 1_555 1_555
H11_15 C32_15 1_555 1_555
C33_15 C31_15 1_555 1_555
N15_15 C28_15 1_555 1_555
N29_2 N14_15 1_555 1_555
C34_15 C29_15 1_555 1_555
H12_15 C34_15 1_555 1_555
C35_15 C32_15 1_555 1_555
C36_15 O41_9 1_555 1_555
Cu15_8 O25_15 1_555 1_555
Cu18_8 O24_15 1_555 1_555
O45_9 C36_15 1_555 1_555
N15_15 N29_2 1_555 1_555
C34_15 C35_15 1_555 1_555
C35_15 C36_15 1_555 1_555
Cu18_8 O17_19 1_555 1_555
Cu21_5 O21_12 1_555 1_555
O18_19 Cu15_8 1_555 1_555
O19_12 Cu18_8 1_555 1_555
O20_12 Cu15_8 1_555 1_555
N9_12 N10_12 1_555 1_555
N10_12 Cu21_5 1_555 1_555
C19_12 N9_12 1_555 1_555
C20_12 C19_12 1_555 1_555
C21_12 C20_12 1_555 1_555
H7_12 C21_12 1_555 1_555
C22_12 C21_12 1_555 1_555
C23_12 C22_12 1_555 1_555
H8_12 C23_12 1_555 1_555
C24_12 O19_12 1_555 1_555
N11_12 C19_12 1_555 1_555
N12_8 N10_12 1_555 1_555
C25_12 C20_12 1_555 1_555
H9_12 C25_12 1_555 1_555
C26_12 C23_12 1_555 1_555
C27_12 O42_9 1_555 1_555
Cu25 O36_17 1_555 1_555
N21_17 N22_17 1_555 1_555
N22_17 Cu25 1_555 1_555
C46_17 N21_17 1_555 1_555
C47_17 C46_17 1_555 1_555
C48_17 C47_17 1_555 1_555
H16_17 C48_17 1_555 1_555
C49_17 C48_17 1_555 1_555
C50_17 C49_17 1_555 1_555
H17_17 C50_17 1_555 1_555
C51_17 O39_9 1_555 1_555
O42_8 C54_17 1_555 1_555
O46_8 C54_17 1_555 1_555
N23_17 C46_17 1_555 1_555
N27 N22_17 1_555 1_555
C52_17 C47_17 1_555 1_555
H18_17 C52_17 1_555 1_555
C53_17 C50_17 1_555 1_555
C54_17 C53_17 1_555 1_555
Cu26_14 N12_8 1_555 1_555
O40_9 Cu18_8 1_555 1_555
O44_9 Cu15_8 1_555 1_555
N29_12 Cu25 1_555 1_555
O20_12 C24_12 1_555 1_555
C22_12 C24_12 1_555 1_555
O46_9 C27_12 1_555 1_555
N11_12 N12_8 1_555 1_555
C25_12 C26_12 1_555 1_555
C26_12 C27_12 1_555 1_555
O43_9 C51_17 1_555 1_555
C49_17 C51_17 1_555 1_555
N23_17 N27 1_555 1_555
C52_17 C53_17 1_555 1_555
Cu22_2 O36_18 1_555 1_555
N21_18 N22_18 1_555 1_555
N22_18 Cu22_2 1_555 1_555
C46_18 N21_18 1_555 1_555
C47_18 C46_18 1_555 1_555
C48_18 C47_18 1_555 1_555
H16_18 C48_18 1_555 1_555
C49_18 C48_18 1_555 1_555
C50_18 C49_18 1_555 1_555
H17_18 C50_18 1_555 1_555
C51_18 O39_8 1_555 1_555
O40_9 C54_18 1_555 1_555
O44_9 C54_18 1_555 1_555
N23_18 C46_18 1_555 1_555
N29_7 N22_18 1_555 1_555
C52_18 C47_18 1_555 1_555
H18_18 C52_18 1_555 1_555
C53_18 C50_18 1_555 1_555
C54_18 C53_18 1_555 1_555
O43_8 C51_18 1_555 1_555
C49_18 C51_18 1_555 1_555
N23_18 N29_7 1_555 1_555
C52_18 C53_18 1_555 1_555
Cu1_5 Cu2_5 1_555 1_555
Cu2_5 O1_19 1_555 1_555
O2_19 Cu1_5 1_555 1_555
O3_7 Cu2_5 1_555 1_555
O4_7 Cu1_5 1_555 1_555
O6_7 Cu20_4 1_555 1_555
N1_7 N2_7 1_555 1_555
N2_7 Cu20_4 1_555 1_555
C1_7 N1_7 1_555 1_555
C2_7 C1_7 1_555 1_555
C3_7 C2_7 1_555 1_555
H1_7 C3_7 1_555 1_555
C4_7 C3_7 1_555 1_555
C5_7 C4_7 1_555 1_555
H2_7 C5_7 1_555 1_555
C6_7 O3_7 1_555 1_555
O7_7 C9_7 1_555 1_555
O8_7 C9_7 1_555 1_555
N3_7 C1_7 1_555 1_555
N28_6 N2_7 1_555 1_555
C7_7 C2_7 1_555 1_555
H3_7 C7_7 1_555 1_555
C8_7 C5_7 1_555 1_555
C9_7 C8_7 1_555 1_555
Cu4_11 O8_7 1_555 1_555
Cu5_11 O7_7 1_555 1_555
O9_20 Cu5_11 1_555 1_555
O10_20 Cu4_11 1_555 1_555
O11_13 Cu5_11 1_555 1_555
O12_13 Cu4_11 1_555 1_555
O14_13 Cu26_5 1_555 1_555
N5_13 N6_13 1_555 1_555
N6_13 Cu26_5 1_555 1_555
C10_13 N5_13 1_555 1_555
C11_13 C10_13 1_555 1_555
C12_13 C11_13 1_555 1_555
H4_13 C12_13 1_555 1_555
C13_13 C12_13 1_555 1_555
C14_13 C13_13 1_555 1_555
H5_13 C14_13 1_555 1_555
C15_13 O11_13 1_555 1_555
O15_10 C18_13 1_555 1_555
O16_10 C18_13 1_555 1_555
N7_13 C10_13 1_555 1_555
N25_4 N6_13 1_555 1_555
C16_13 C11_13 1_555 1_555
H6_13 C16_13 1_555 1_555
C17_13 C14_13 1_555 1_555
C18_13 C17_13 1_555 1_555
Cu26_12 O26_16 1_555 1_555
O24_16 C33_16 1_555 1_555
O25_16 C33_16 1_555 1_555
N13_16 N14_16 1_555 1_555
N14_16 Cu26_12 1_555 1_555
C28_16 N13_16 1_555 1_555
C29_16 C28_16 1_555 1_555
C30_16 C29_16 1_555 1_555
H10_16 C30_16 1_555 1_555
C31_16 C30_16 1_555 1_555
C32_16 C31_16 1_555 1_555
H11_16 C32_16 1_555 1_555
C33_16 C31_16 1_555 1_555
O27_7 Cu2_5 1_555 1_555
O28_7 Cu1_5 1_555 1_555
N15_16 C28_16 1_555 1_555
N25_5 N14_16 1_555 1_555
C34_16 C29_16 1_555 1_555
H12_16 C34_16 1_555 1_555
C35_16 C32_16 1_555 1_555
C36_16 O27_7 1_555 1_555
Cu19_7 O31_10 1_555 1_555
O29_10 Cu5_11 1_555 1_555
O30_10 Cu4_11 1_555 1_555
N17_10 N18_10 1_555 1_555
N18_10 Cu19_7 1_555 1_555
C37_10 N17_10 1_555 1_555
C38_10 C37_10 1_555 1_555
C39_10 C38_10 1_555 1_555
H13_10 C39_10 1_555 1_555
C40_10 C39_10 1_555 1_555
C41_10 C40_10 1_555 1_555
H14_10 C41_10 1_555 1_555
C42_10 O29_10 1_555 1_555
O32_10 C45_10 1_555 1_555
O33_10 C45_10 1_555 1_555
N19_10 C37_10 1_555 1_555
N28_8 N18_10 1_555 1_555
C43_10 C38_10 1_555 1_555
H15_10 C43_10 1_555 1_555
C44_10 C41_10 1_555 1_555
C45_10 C44_10 1_555 1_555
Cu14_11 O25_16 1_555 1_555
Cu15_9 O16_10 1_555 1_555
Cu17_11 O24_16 1_555 1_555
Cu18_9 O15_10 1_555 1_555
O41_10 Cu5_11 1_555 1_555
O45_10 Cu4_11 1_555 1_555
O4_7 C6_7 1_555 1_555
C4_7 C6_7 1_555 1_555
N3_7 N28_6 1_555 1_555
C7_7 C8_7 1_555 1_555
Cu4_11 Cu5_11 1_555 1_555
O12_13 C15_13 1_555 1_555
C13_13 C15_13 1_555 1_555
N7_13 N25_4 1_555 1_555
C16_13 C17_13 1_555 1_555
O28_7 C36_16 1_555 1_555
N15_16 N25_5 1_555 1_555
C34_16 C35_16 1_555 1_555
C35_16 C36_16 1_555 1_555
O30_10 C42_10 1_555 1_555
C40_10 C42_10 1_555 1_555
O32_10 Cu17_11 1_555 1_555
O33_10 Cu14_11 1_555 1_555
N19_10 N28_8 1_555 1_555
C43_10 C44_10 1_555 1_555
Cu14_11 Cu17_11 1_555 1_555
Cu15_9 Cu18_9 1_555 1_555
Cu1_6 Cu2_6 1_555 1_555
Cu2_6 O1_20 1_555 1_555
O2_20 Cu1_6 1_555 1_555
Cu7_11 Cu8_11 1_555 1_555
Cu8_11 O17_20 1_555 1_555
Cu25_9 O21_13 1_555 1_555
O18_20 Cu7_11 1_555 1_555
O19_13 Cu8_11 1_555 1_555
O20_13 Cu7_11 1_555 1_555
N9_13 N10_13 1_555 1_555
N10_13 Cu25_9 1_555 1_555
C19_13 N9_13 1_555 1_555
C20_13 C19_13 1_555 1_555
C21_13 C20_13 1_555 1_555
H7_13 C21_13 1_555 1_555
C22_13 C21_13 1_555 1_555
C23_13 C22_13 1_555 1_555
H8_13 C23_13 1_555 1_555
C24_13 O19_13 1_555 1_555
O22_7 Cu2_6 1_555 1_555
O23_7 Cu1_6 1_555 1_555
N11_13 C19_13 1_555 1_555
N28_4 N10_13 1_555 1_555
C25_13 C20_13 1_555 1_555
H9_13 C25_13 1_555 1_555
C26_13 C23_13 1_555 1_555
C27_13 O22_7 1_555 1_555
Cu19_6 O36_19 1_555 1_555
O34_10 Cu2_6 1_555 1_555
O35_10 Cu1_6 1_555 1_555
N21_19 N22_19 1_555 1_555
N22_19 Cu19_6 1_555 1_555
C46_19 N21_19 1_555 1_555
C47_19 C46_19 1_555 1_555
C48_19 C47_19 1_555 1_555
H16_19 C48_19 1_555 1_555
C49_19 C48_19 1_555 1_555
C50_19 C49_19 1_555 1_555
H17_19 C50_19 1_555 1_555
C51_19 O34_10 1_555 1_555
O37_10 C54_19 1_555 1_555
O38_10 C54_19 1_555 1_555
N23_19 C46_19 1_555 1_555
N25_9 N22_19 1_555 1_555
C52_19 C47_19 1_555 1_555
H18_19 C52_19 1_555 1_555
C53_19 C50_19 1_555 1_555
C54_19 C53_19 1_555 1_555
Cu13_15 O38_10 1_555 1_555
Cu16_15 O37_10 1_555 1_555
O39_10 Cu8_11 1_555 1_555
O40_10 Cu8_11 1_555 1_555
O42_10 Cu8_11 1_555 1_555
O43_10 Cu7_11 1_555 1_555
O44_10 Cu7_11 1_555 1_555
O46_10 Cu7_11 1_555 1_555
O20_13 C24_13 1_555 1_555
C22_13 C24_13 1_555 1_555
O23_7 C27_13 1_555 1_555
N11_13 N28_4 1_555 1_555
C25_13 C26_13 1_555 1_555
C26_13 C27_13 1_555 1_555
O35_10 C51_19 1_555 1_555
C49_19 C51_19 1_555 1_555
N23_19 N25_9 1_555 1_555
C52_19 C53_19 1_555 1_555
Cu13_15 Cu16_15 1_555 1_555
Cu15_10 Cu18_10 1_555 1_555
O9_21 Cu18_9 1_555 1_555
O10_21 Cu15_9 1_555 1_555
Cu25_15 O26_17 1_555 1_555
O24_17 C33_17 1_555 1_555
O25_17 C33_17 1_555 1_555
N13_17 N14_17 1_555 1_555
N14_17 Cu25_15 1_555 1_555
C28_17 N13_17 1_555 1_555
C29_17 C28_17 1_555 1_555
C30_17 C29_17 1_555 1_555
H10_17 C30_17 1_555 1_555
C31_17 C30_17 1_555 1_555
C32_17 C31_17 1_555 1_555
H11_17 C32_17 1_555 1_555
C33_17 C31_17 1_555 1_555
N15_17 C28_17 1_555 1_555
N29_10 N14_17 1_555 1_555
C34_17 C29_17 1_555 1_555
H12_17 C34_17 1_555 1_555
C35_17 C32_17 1_555 1_555
C36_17 O41_10 1_555 1_555
Cu23_3 O31_11 1_555 1_555
O29_11 Cu18_9 1_555 1_555
O30_11 Cu15_9 1_555 1_555
N17_11 N18_11 1_555 1_555
N18_11 Cu23_3 1_555 1_555
C37_11 N17_11 1_555 1_555
C38_11 C37_11 1_555 1_555
C39_11 C38_11 1_555 1_555
H13_11 C39_11 1_555 1_555
C40_11 C39_11 1_555 1_555
C41_11 C40_11 1_555 1_555
H14_11 C41_11 1_555 1_555
C42_11 O29_11 1_555 1_555
O32_11 C45_11 1_555 1_555
O33_11 C45_11 1_555 1_555
N19_11 C37_11 1_555 1_555
N25_10 N18_11 1_555 1_555
C43_11 C38_11 1_555 1_555
H15_11 C43_11 1_555 1_555
C44_11 C41_11 1_555 1_555
C45_11 C44_11 1_555 1_555
Cu14_12 O25_17 1_555 1_555
Cu17_12 O24_17 1_555 1_555
O45_10 C36_17 1_555 1_555
N15_17 N29_10 1_555 1_555
C34_17 C35_17 1_555 1_555
C35_17 C36_17 1_555 1_555
O30_11 C42_11 1_555 1_555
C40_11 C42_11 1_555 1_555
O32_11 Cu17_12 1_555 1_555
O33_11 Cu14_12 1_555 1_555
N19_11 N25_10 1_555 1_555
C43_11 C44_11 1_555 1_555
Cu14_12 Cu17_12 1_555 1_555
O9_22 Cu18_10 1_555 1_555
O10_22 Cu15_10 1_555 1_555
O11_14 Cu18_10 1_555 1_555
O12_14 Cu15_10 1_555 1_555
O14_14 Cu19_3 1_555 1_555
N5_14 N6_14 1_555 1_555
N6_14 Cu19_3 1_555 1_555
C10_14 N5_14 1_555 1_555
C11_14 C10_14 1_555 1_555
C12_14 C11_14 1_555 1_555
H4_14 C12_14 1_555 1_555
C13_14 C12_14 1_555 1_555
C14_14 C13_14 1_555 1_555
H5_14 C14_14 1_555 1_555
C15_14 O11_14 1_555 1_555
O42_10 C18_14 1_555 1_555
O46_10 C18_14 1_555 1_555
N7_14 C10_14 1_555 1_555
N27_7 N6_14 1_555 1_555
C16_14 C11_14 1_555 1_555
H6_14 C16_14 1_555 1_555
C17_14 C14_14 1_555 1_555
C18_14 C17_14 1_555 1_555
O41_11 Cu18_10 1_555 1_555
O45_11 Cu15_10 1_555 1_555
O12_14 C15_14 1_555 1_555
C13_14 C15_14 1_555 1_555
N7_14 N27_7 1_555 1_555
C16_14 C17_14 1_555 1_555
Cu25_16 O26_18 1_555 1_555
O24_18 C33_18 1_555 1_555
O25_18 C33_18 1_555 1_555
N13_18 N14_18 1_555 1_555
N14_18 Cu25_16 1_555 1_555
C28_18 N13_18 1_555 1_555
C29_18 C28_18 1_555 1_555
C30_18 C29_18 1_555 1_555
H10_18 C30_18 1_555 1_555
C31_18 C30_18 1_555 1_555
C32_18 C31_18 1_555 1_555
H11_18 C32_18 1_555 1_555
C33_18 C31_18 1_555 1_555
N15_18 C28_18 1_555 1_555
N26_6 N14_18 1_555 1_555
C34_18 C29_18 1_555 1_555
H12_18 C34_18 1_555 1_555
C35_18 C32_18 1_555 1_555
C36_18 O40_10 1_555 1_555
Cu22_6 O36_20 1_555 1_555
N21_20 N22_20 1_555 1_555
N22_20 Cu22_6 1_555 1_555
C46_20 N21_20 1_555 1_555
C47_20 C46_20 1_555 1_555
C48_20 C47_20 1_555 1_555
H16_20 C48_20 1_555 1_555
C49_20 C48_20 1_555 1_555
C50_20 C49_20 1_555 1_555
H17_20 C50_20 1_555 1_555
C51_20 O39_10 1_555 1_555
O37_11 C54_20 1_555 1_555
O38_11 C54_20 1_555 1_555
N23_20 C46_20 1_555 1_555
N25_8 N22_20 1_555 1_555
C52_20 C47_20 1_555 1_555
H18_20 C52_20 1_555 1_555
C53_20 C50_20 1_555 1_555
C54_20 C53_20 1_555 1_555
Cu13_16 O38_11 1_555 1_555
Cu13_15 O25_18 1_555 1_555
Cu16_16 O37_11 1_555 1_555
Cu16_15 O24_18 1_555 1_555
O44_10 C36_18 1_555 1_555
N15_18 N26_6 1_555 1_555
C34_18 C35_18 1_555 1_555
C35_18 C36_18 1_555 1_555
O43_10 C51_20 1_555 1_555
C49_20 C51_20 1_555 1_555
N23_20 N25_8 1_555 1_555
C52_20 C53_20 1_555 1_555
Cu13_16 Cu16_16 1_555 1_555
Cu13_17 Cu16_17 1_555 1_555
Cu16_15 O1_21 1_555 1_555
O2_21 Cu13_15 1_555 1_555
Cu7_12 Cu8_12 1_555 1_555
Cu8_12 O17_21 1_555 1_555
Cu24_3 O21_14 1_555 1_555
O18_21 Cu7_12 1_555 1_555
O19_14 Cu8_12 1_555 1_555
O20_14 Cu7_12 1_555 1_555
N9_14 N10_14 1_555 1_555
N10_14 Cu24_3 1_555 1_555
C19_14 N9_14 1_555 1_555
C20_14 C19_14 1_555 1_555
C21_14 C20_14 1_555 1_555
H7_14 C21_14 1_555 1_555
C22_14 C21_14 1_555 1_555
C23_14 C22_14 1_555 1_555
H8_14 C23_14 1_555 1_555
C24_14 O19_14 1_555 1_555
O22_8 Cu16_15 1_555 1_555
O23_8 Cu13_15 1_555 1_555
N11_14 C19_14 1_555 1_555
N27_8 N10_14 1_555 1_555
C25_14 C20_14 1_555 1_555
H9_14 C25_14 1_555 1_555
C26_14 C23_14 1_555 1_555
C27_14 O22_8 1_555 1_555
Cu25_2 O36_21 1_555 1_555
O34_11 Cu16_15 1_555 1_555
O35_11 Cu13_15 1_555 1_555
N21_21 N22_21 1_555 1_555
N22_21 Cu25_2 1_555 1_555
C46_21 N21_21 1_555 1_555
C47_21 C46_21 1_555 1_555
C48_21 C47_21 1_555 1_555
H16_21 C48_21 1_555 1_555
C49_21 C48_21 1_555 1_555
C50_21 C49_21 1_555 1_555
H17_21 C50_21 1_555 1_555
C51_21 O34_11 1_555 1_555
O37_12 C54_21 1_555 1_555
O38_12 C54_21 1_555 1_555
N23_21 C46_21 1_555 1_555
N27_2 N22_21 1_555 1_555
C52_21 C47_21 1_555 1_555
H18_21 C52_21 1_555 1_555
C53_21 C50_21 1_555 1_555
C54_21 C53_21 1_555 1_555
Cu13_18 O38_12 1_555 1_555
Cu16_18 O37_12 1_555 1_555
O39_11 Cu8_12 1_555 1_555
O40_11 Cu8_12 1_555 1_555
O42_11 Cu8_12 1_555 1_555
O43_11 Cu7_12 1_555 1_555
O44_11 Cu7_12 1_555 1_555
O46_11 Cu7_12 1_555 1_555
O20_14 C24_14 1_555 1_555
C22_14 C24_14 1_555 1_555
O23_8 C27_14 1_555 1_555
N11_14 N27_8 1_555 1_555
C25_14 C26_14 1_555 1_555
C26_14 C27_14 1_555 1_555
O35_11 C51_21 1_555 1_555
C49_21 C51_21 1_555 1_555
N23_21 N27_2 1_555 1_555
C52_21 C53_21 1_555 1_555
Cu13_18 Cu16_18 1_555 1_555
Cu17_11 O1_22 1_555 1_555
O2_22 Cu14_11 1_555 1_555
O3_8 Cu17_11 1_555 1_555
O4_8 Cu14_11 1_555 1_555
O6_8 Cu26_14 1_555 1_555
N1_8 N2_8 1_555 1_555
N2_8 Cu26_14 1_555 1_555
C1_8 N1_8 1_555 1_555
C2_8 C1_8 1_555 1_555
C3_8 C2_8 1_555 1_555
H1_8 C3_8 1_555 1_555
C4_8 C3_8 1_555 1_555
C5_8 C4_8 1_555 1_555
H2_8 C5_8 1_555 1_555
C6_8 O3_8 1_555 1_555
O7_8 C9_8 1_555 1_555
O8_8 C9_8 1_555 1_555
N3_8 C1_8 1_555 1_555
N28_5 N2_8 1_555 1_555
C7_8 C2_8 1_555 1_555
H3_8 C7_8 1_555 1_555
C8_8 C5_8 1_555 1_555
C9_8 C8_8 1_555 1_555
Cu4_12 O8_8 1_555 1_555
Cu5_12 O7_8 1_555 1_555
O9_23 Cu5_12 1_555 1_555
O10_23 Cu4_12 1_555 1_555
O11_15 Cu5_12 1_555 1_555
O12_15 Cu4_12 1_555 1_555
O14_15 Cu20_6 1_555 1_555
N5_15 N6_15 1_555 1_555
N6_15 Cu20_6 1_555 1_555
C10_15 N5_15 1_555 1_555
C11_15 C10_15 1_555 1_555
C12_15 C11_15 1_555 1_555
H4_15 C12_15 1_555 1_555
C13_15 C12_15 1_555 1_555
C14_15 C13_15 1_555 1_555
H5_15 C14_15 1_555 1_555
C15_15 O11_15 1_555 1_555
O15_11 C18_15 1_555 1_555
O16_11 C18_15 1_555 1_555
N7_15 C10_15 1_555 1_555
N29_11 N6_15 1_555 1_555
C16_15 C11_15 1_555 1_555
H6_15 C16_15 1_555 1_555
C17_15 C14_15 1_555 1_555
C18_15 C17_15 1_555 1_555
Cu20 O26_19 1_555 1_555
O24_19 C33_19 1_555 1_555
O25_19 C33_19 1_555 1_555
N13_19 N14_19 1_555 1_555
N14_19 Cu20 1_555 1_555
C28_19 N13_19 1_555 1_555
C29_19 C28_19 1_555 1_555
C30_19 C29_19 1_555 1_555
H10_19 C30_19 1_555 1_555
C31_19 C30_19 1_555 1_555
C32_19 C31_19 1_555 1_555
H11_19 C32_19 1_555 1_555
C33_19 C31_19 1_555 1_555
O27_8 Cu17_11 1_555 1_555
O28_8 Cu14_11 1_555 1_555
N15_19 C28_19 1_555 1_555
N29_12 N14_19 1_555 1_555
C34_19 C29_19 1_555 1_555
H12_19 C34_19 1_555 1_555
C35_19 C32_19 1_555 1_555
C36_19 O27_8 1_555 1_555
Cu26_6 O31_12 1_555 1_555
O29_12 Cu5_12 1_555 1_555
O30_12 Cu4_12 1_555 1_555
N17_12 N18_12 1_555 1_555
N18_12 Cu26_6 1_555 1_555
C37_12 N17_12 1_555 1_555
C38_12 C37_12 1_555 1_555
C39_12 C38_12 1_555 1_555
H13_12 C39_12 1_555 1_555
C40_12 C39_12 1_555 1_555
C41_12 C40_12 1_555 1_555
H14_12 C41_12 1_555 1_555
C42_12 O29_12 1_555 1_555
O32_12 C45_12 1_555 1_555
O33_12 C45_12 1_555 1_555
N19_12 C37_12 1_555 1_555
N26_2 N18_12 1_555 1_555
C43_12 C38_12 1_555 1_555
H15_12 C43_12 1_555 1_555
C44_12 C41_12 1_555 1_555
C45_12 C44_12 1_555 1_555
Cu13_17 O25_19 1_555 1_555
Cu14_12 O16_11 1_555 1_555
Cu16_17 O24_19 1_555 1_555
Cu17_12 O15_11 1_555 1_555
O41_12 Cu5_12 1_555 1_555
O45_12 Cu4_12 1_555 1_555
O4_8 C6_8 1_555 1_555
C4_8 C6_8 1_555 1_555
N3_8 N28_5 1_555 1_555
C7_8 C8_8 1_555 1_555
Cu4_12 Cu5_12 1_555 1_555
O12_15 C15_15 1_555 1_555
C13_15 C15_15 1_555 1_555
N7_15 N29_11 1_555 1_555
C16_15 C17_15 1_555 1_555
O28_8 C36_19 1_555 1_555
N15_19 N29_12 1_555 1_555
C34_19 C35_19 1_555 1_555
C35_19 C36_19 1_555 1_555
O30_12 C42_12 1_555 1_555
C40_12 C42_12 1_555 1_555
O32_12 Cu16_17 1_555 1_555
O33_12 Cu13_17 1_555 1_555
N19_12 N26_2 1_555 1_555
C43_12 C44_12 1_555 1_555
Cu16_17 O1_23 1_555 1_555
O2_23 Cu13_17 1_555 1_555
Cu16_18 O1_24 1_555 1_555
O2_24 Cu13_18 1_555 1_555
Cu21_3 O36_22 1_555 1_555
O34_12 Cu16_18 1_555 1_555
O35_12 Cu13_18 1_555 1_555
N21_22 N22_22 1_555 1_555
N22_22 Cu21_3 1_555 1_555
C46_22 N21_22 1_555 1_555
C47_22 C46_22 1_555 1_555
C48_22 C47_22 1_555 1_555
H16_22 C48_22 1_555 1_555
C49_22 C48_22 1_555 1_555
C50_22 C49_22 1_555 1_555
H17_22 C50_22 1_555 1_555
C51_22 O34_12 1_555 1_555
O40_11 C54_22 1_555 1_555
O44_11 C54_22 1_555 1_555
N23_22 C46_22 1_555 1_555
N26_4 N22_22 1_555 1_555
C52_22 C47_22 1_555 1_555
H18_22 C52_22 1_555 1_555
C53_22 C50_22 1_555 1_555
C54_22 C53_22 1_555 1_555
O35_12 C51_22 1_555 1_555
C49_22 C51_22 1_555 1_555
N23_22 N26_4 1_555 1_555
C52_22 C53_22 1_555 1_555
O9_24 Cu17_12 1_555 1_555
O10_24 Cu14_12 1_555 1_555
O11_16 Cu17_12 1_555 1_555
O12_16 Cu14_12 1_555 1_555
O14_16 Cu26 1_555 1_555
N5_16 N6_16 1_555 1_555
N6_16 Cu26 1_555 1_555
C10_16 N5_16 1_555 1_555
C11_16 C10_16 1_555 1_555
C12_16 C11_16 1_555 1_555
H4_16 C12_16 1_555 1_555
C13_16 C12_16 1_555 1_555
C14_16 C13_16 1_555 1_555
H5_16 C14_16 1_555 1_555
C15_16 O11_16 1_555 1_555
O15_12 C18_16 1_555 1_555
O16_12 C18_16 1_555 1_555
N7_16 C10_16 1_555 1_555
N30 N6_16 1_555 1_555
C16_16 C11_16 1_555 1_555
H6_16 C16_16 1_555 1_555
C17_16 C14_16 1_555 1_555
C18_16 C17_16 1_555 1_555
Cu15_11 O16_12 1_555 1_555
Cu18_11 O15_12 1_555 1_555
O12_16 C15_16 1_555 1_555
C13_16 C15_16 1_555 1_555
N7_16 N30 1_555 1_555
C16_16 C17_16 1_555 1_555
Cu15_11 Cu18_11 1_555 1_555
Cu16_16 O17_22 1_555 1_555
Cu26_11 O21_15 1_555 1_555
O18_22 Cu13_16 1_555 1_555
O19_15 Cu16_16 1_555 1_555
O20_15 Cu13_16 1_555 1_555
N9_15 N10_15 1_555 1_555
N10_15 Cu26_11 1_555 1_555
C19_15 N9_15 1_555 1_555
C20_15 C19_15 1_555 1_555
C21_15 C20_15 1_555 1_555
H7_15 C21_15 1_555 1_555
C22_15 C21_15 1_555 1_555
C23_15 C22_15 1_555 1_555
H8_15 C23_15 1_555 1_555
C24_15 O19_15 1_555 1_555
N11_15 C19_15 1_555 1_555
N29_4 N10_15 1_555 1_555
C25_15 C20_15 1_555 1_555
H9_15 C25_15 1_555 1_555
C26_15 C23_15 1_555 1_555
C27_15 O41_11 1_555 1_555
O39_12 Cu16_16 1_555 1_555
O42_12 Cu16_16 1_555 1_555
O43_12 Cu13_16 1_555 1_555
O46_12 Cu13_16 1_555 1_555
O20_15 C24_15 1_555 1_555
C22_15 C24_15 1_555 1_555
O45_11 C27_15 1_555 1_555
N11_15 N29_4 1_555 1_555
C25_15 C26_15 1_555 1_555
C26_15 C27_15 1_555 1_555
Cu15_12 Cu18_12 1_555 1_555
Cu22 O26_20 1_555 1_555
O24_20 C33_20 1_555 1_555
O25_20 C33_20 1_555 1_555
N13_20 N14_20 1_555 1_555
N14_20 Cu22 1_555 1_555
C28_20 N13_20 1_555 1_555
C29_20 C28_20 1_555 1_555
C30_20 C29_20 1_555 1_555
H10_20 C30_20 1_555 1_555
C31_20 C30_20 1_555 1_555
C32_20 C31_20 1_555 1_555
H11_20 C32_20 1_555 1_555
C33_20 C31_20 1_555 1_555
N15_20 C28_20 1_555 1_555
N29_8 N14_20 1_555 1_555
C34_20 C29_20 1_555 1_555
H12_20 C34_20 1_555 1_555
C35_20 C32_20 1_555 1_555
C36_20 O41_12 1_555 1_555
Cu15_11 O25_20 1_555 1_555
Cu18_11 O24_20 1_555 1_555
O45_12 C36_20 1_555 1_555
N15_20 N29_8 1_555 1_555
C34_20 C35_20 1_555 1_555
C35_20 C36_20 1_555 1_555
Cu18_11 O17_23 1_555 1_555
O18_23 Cu15_11 1_555 1_555
Cu18_12 O17_24 1_555 1_555
Cu21 O21_16 1_555 1_555
O18_24 Cu15_12 1_555 1_555
O19_16 Cu18_12 1_555 1_555
O20_16 Cu15_12 1_555 1_555
N9_16 N10_16 1_555 1_555
N10_16 Cu21 1_555 1_555
C19_16 N9_16 1_555 1_555
C20_16 C19_16 1_555 1_555
C21_16 C20_16 1_555 1_555
H7_16 C21_16 1_555 1_555
C22_16 C21_16 1_555 1_555
C23_16 C22_16 1_555 1_555
H8_16 C23_16 1_555 1_555
C24_16 O19_16 1_555 1_555
N11_16 C19_16 1_555 1_555
N30_4 N10_16 1_555 1_555
C25_16 C20_16 1_555 1_555
H9_16 C25_16 1_555 1_555
C26_16 C23_16 1_555 1_555
C27_16 O42_12 1_555 1_555
Cu25_13 O36_23 1_555 1_555
N21_23 N22_23 1_555 1_555
N22_23 Cu25_13 1_555 1_555
C46_23 N21_23 1_555 1_555
C47_23 C46_23 1_555 1_555
C48_23 C47_23 1_555 1_555
H16_23 C48_23 1_555 1_555
C49_23 C48_23 1_555 1_555
C50_23 C49_23 1_555 1_555
H17_23 C50_23 1_555 1_555
C51_23 O39_12 1_555 1_555
O42_11 C54_23 1_555 1_555
O46_11 C54_23 1_555 1_555
N23_23 C46_23 1_555 1_555
N27_5 N22_23 1_555 1_555
C52_23 C47_23 1_555 1_555
H18_23 C52_23 1_555 1_555
C53_23 C50_23 1_555 1_555
C54_23 C53_23 1_555 1_555
O40_12 Cu18_12 1_555 1_555
O44_12 Cu15_12 1_555 1_555
O20_16 C24_16 1_555 1_555
C22_16 C24_16 1_555 1_555
O46_12 C27_16 1_555 1_555
N11_16 N30_4 1_555 1_555
C25_16 C26_16 1_555 1_555
C26_16 C27_16 1_555 1_555
O43_12 C51_23 1_555 1_555
C49_23 C51_23 1_555 1_555
N23_23 N27_5 1_555 1_555
C52_23 C53_23 1_555 1_555
Cu25_7 O36_24 1_555 1_555
N21_24 N22_24 1_555 1_555
N22_24 Cu25_7 1_555 1_555
C46_24 N21_24 1_555 1_555
C47_24 C46_24 1_555 1_555
C48_24 C47_24 1_555 1_555
H16_24 C48_24 1_555 1_555
C49_24 C48_24 1_555 1_555
C50_24 C49_24 1_555 1_555
H17_24 C50_24 1_555 1_555
C51_24 O39_11 1_555 1_555
O40_12 C54_24 1_555 1_555
O44_12 C54_24 1_555 1_555
N23_24 C46_24 1_555 1_555
N29 N22_24 1_555 1_555
C52_24 C47_24 1_555 1_555
H18_24 C52_24 1_555 1_555
C53_24 C50_24 1_555 1_555
C54_24 C53_24 1_555 1_555
O43_11 C51_24 1_555 1_555
C49_24 C51_24 1_555 1_555
N23_24 N29 1_555 1_555
C52_24 C53_24 1_555 1_555

#END
