
###############################################################################
#
# This file contains modified crystal structure data generated from the
# MOF subset of the Cambridge Structural Database (CSD) v543 
# hosted by the Cambridge Crystallographic Data Centre (CCDC).
#
# This work is licensed under the Creative Commons
# Attribution-NonCommercial-ShareAlike 4.0 International License.
# To view a copy of this license, visit
# http://creativecommons.org/licenses/by-nc-sa/4.0/
# or send a letter to
# Creative Commons, PO Box 1866, Mountain View, CA 94042, USA.
#
# CIF created using the CSD Python API on 29 September 2022
# The structure has been converted into the P1 space group
# The structure has a 3D framework
# The original CSD entry OMITUB is in the cubic crystal system
# The framework has been calculated to contain at least 10.0% void space
# The void calculation uses a probe of radius 1.32A, grid spacing 0.4
# The framework is charged, counterions have been retained in the structure
# H atom positions have been added when not included in the experimental data
# Generated hydrogen atom positions removed from atoms on special positions
#
###############################################################################

data_OMITUB
_chemical_formula_moiety         '(C864 H2208 Cu240 Mo96 N384 O1048 Si8 28+)n'
_symmetry_cell_setting           triclinic
_symmetry_space_group_name_H-M   'P 1'
_symmetry_Int_Tables_number      1
_space_group_name_Hall           'P 1'
loop_
_symmetry_equiv_pos_site_id
_symmetry_equiv_pos_as_xyz
1 x,y,z
_cell_length_a                   44.614(5)
_cell_length_b                   44.614(5)
_cell_length_c                   44.614(5)
_cell_angle_alpha                90
_cell_angle_beta                 90
_cell_angle_gamma                90
_cell_volume                     88800.1
loop_
_atom_site_label
_atom_site_type_symbol
_atom_site_fract_x
_atom_site_fract_y
_atom_site_fract_z
Mo1 Mo 0.19440(2) 0.25295(3) 0.80560(2)
O1 O 0.18420(18) 0.22594(15) 0.77406(15)
O2 O 0.1735(2) 0.28364(15) 0.78364(15)
O3 O 0.22919(18) 0.27081(18) 0.77081(18)
O4 O 0.16842(14) 0.2450(2) 0.83158(14)
Si1 Si 0.2500 0.2500 0.7500
O5 O 0.22919(18) 0.22919(18) 0.72919(18)
O6 O 0.27081(18) 0.22919(18) 0.77081(18)
O7 O 0.27081(18) 0.27081(18) 0.72919(18)
Mo2 Mo 0.19440(2) 0.19440(2) 0.74705(3)
O8 O 0.22594(15) 0.18420(18) 0.77406(15)
O9 O 0.21636(15) 0.1735(2) 0.71636(15)
O10 O 0.16842(14) 0.16842(14) 0.7550(2)
Mo3 Mo 0.25295(3) 0.19440(2) 0.80560(2)
O11 O 0.22594(15) 0.22594(15) 0.81580(18)
O12 O 0.28364(15) 0.21636(15) 0.8265(2)
O13 O 0.2450(2) 0.16842(14) 0.83158(14)
Mo4 Mo 0.19440(2) 0.24705(3) 0.69440(2)
O14 O 0.18420(18) 0.27406(15) 0.72594(15)
O15 O 0.1735(2) 0.21636(15) 0.71636(15)
O16 O 0.16842(14) 0.2550(2) 0.66842(14)
Mo5 Mo 0.25295(3) 0.30560(2) 0.69440(2)
O17 O 0.22594(15) 0.27406(15) 0.68420(18)
O18 O 0.28364(15) 0.28364(15) 0.6735(2)
O19 O 0.2450(2) 0.33158(14) 0.66842(14)
Mo6 Mo 0.19440(2) 0.30560(2) 0.75295(3)
O20 O 0.22594(15) 0.31580(18) 0.72594(15)
O21 O 0.21636(15) 0.3265(2) 0.78364(15)
O22 O 0.16842(14) 0.33158(14) 0.7450(2)
Mo7 Mo 0.30560(2) 0.25295(3) 0.69440(2)
O23 O 0.31580(18) 0.22594(15) 0.72594(15)
O24 O 0.3265(2) 0.28364(15) 0.71636(15)
O25 O 0.33158(14) 0.2450(2) 0.66842(14)
Mo8 Mo 0.30560(2) 0.19440(2) 0.75295(3)
O26 O 0.27406(15) 0.18420(18) 0.72594(15)
O27 O 0.28364(15) 0.1735(2) 0.78364(15)
O28 O 0.33158(14) 0.16842(14) 0.7450(2)
Mo9 Mo 0.24705(3) 0.19440(2) 0.69440(2)
O29 O 0.27406(15) 0.22594(15) 0.68420(18)
O30 O 0.21636(15) 0.21636(15) 0.6735(2)
O31 O 0.2550(2) 0.16842(14) 0.66842(14)
Mo10 Mo 0.30560(2) 0.24705(3) 0.80560(2)
O32 O 0.31580(18) 0.27406(15) 0.77406(15)
O33 O 0.3265(2) 0.21636(15) 0.78364(15)
O34 O 0.33158(14) 0.2550(2) 0.83158(14)
Mo11 Mo 0.24705(3) 0.30560(2) 0.80560(2)
O35 O 0.27406(15) 0.27406(15) 0.81580(18)
O36 O 0.21636(15) 0.28364(15) 0.8265(2)
O37 O 0.2550(2) 0.33158(14) 0.83158(14)
Mo12 Mo 0.30560(2) 0.30560(2) 0.74705(3)
O38 O 0.27406(15) 0.31580(18) 0.77406(15)
O39 O 0.28364(15) 0.3265(2) 0.71636(15)
O40 O 0.33158(14) 0.33158(14) 0.7550(2)
Mo1_2 Mo 0.80560(2) 0.74705(3) 0.80560(2)
O1_2 O 0.81580(18) 0.77406(15) 0.77406(15)
O2_2 O 0.8265(2) 0.71636(15) 0.78364(15)
O3_2 O 0.77081(18) 0.72919(18) 0.77081(18)
O4_2 O 0.83158(14) 0.7550(2) 0.83158(14)
Si1_2 Si 0.7500 0.7500 0.7500
O5_2 O 0.77081(18) 0.77081(18) 0.72919(18)
O6_2 O 0.72919(18) 0.77081(18) 0.77081(18)
O7_2 O 0.72919(18) 0.72919(18) 0.72919(18)
Mo2_2 Mo 0.80560(2) 0.80560(2) 0.74705(3)
O8_2 O 0.77406(15) 0.81580(18) 0.77406(15)
O9_2 O 0.78364(15) 0.8265(2) 0.71636(15)
O10_2 O 0.83158(14) 0.83158(14) 0.7550(2)
Mo3_2 Mo 0.74705(3) 0.80560(2) 0.80560(2)
O11_2 O 0.77406(15) 0.77406(15) 0.81580(18)
O12_2 O 0.71636(15) 0.78364(15) 0.8265(2)
O13_2 O 0.7550(2) 0.83158(14) 0.83158(14)
Mo4_2 Mo 0.80560(2) 0.75295(3) 0.69440(2)
O14_2 O 0.81580(18) 0.72594(15) 0.72594(15)
O15_2 O 0.8265(2) 0.78364(15) 0.71636(15)
O16_2 O 0.83158(14) 0.7450(2) 0.66842(14)
Mo5_2 Mo 0.74705(3) 0.69440(2) 0.69440(2)
O17_2 O 0.77406(15) 0.72594(15) 0.68420(18)
O18_2 O 0.71636(15) 0.71636(15) 0.6735(2)
O19_2 O 0.7550(2) 0.66842(14) 0.66842(14)
Mo6_2 Mo 0.80560(2) 0.69440(2) 0.75295(3)
O20_2 O 0.77406(15) 0.68420(18) 0.72594(15)
O21_2 O 0.78364(15) 0.6735(2) 0.78364(15)
O22_2 O 0.83158(14) 0.66842(14) 0.7450(2)
Mo7_2 Mo 0.69440(2) 0.74705(3) 0.69440(2)
O23_2 O 0.68420(18) 0.77406(15) 0.72594(15)
O24_2 O 0.6735(2) 0.71636(15) 0.71636(15)
O25_2 O 0.66842(14) 0.7550(2) 0.66842(14)
Mo8_2 Mo 0.69440(2) 0.80560(2) 0.75295(3)
O26_2 O 0.72594(15) 0.81580(18) 0.72594(15)
O27_2 O 0.71636(15) 0.8265(2) 0.78364(15)
O28_2 O 0.66842(14) 0.83158(14) 0.7450(2)
Mo9_2 Mo 0.75295(3) 0.80560(2) 0.69440(2)
O29_2 O 0.72594(15) 0.77406(15) 0.68420(18)
O30_2 O 0.78364(15) 0.78364(15) 0.6735(2)
O31_2 O 0.7450(2) 0.83158(14) 0.66842(14)
Mo10_2 Mo 0.69440(2) 0.75295(3) 0.80560(2)
O32_2 O 0.68420(18) 0.72594(15) 0.77406(15)
O33_2 O 0.6735(2) 0.78364(15) 0.78364(15)
O34_2 O 0.66842(14) 0.7450(2) 0.83158(14)
Mo11_2 Mo 0.75295(3) 0.69440(2) 0.80560(2)
O35_2 O 0.72594(15) 0.72594(15) 0.81580(18)
O36_2 O 0.78364(15) 0.71636(15) 0.8265(2)
O37_2 O 0.7450(2) 0.66842(14) 0.83158(14)
Mo12_2 Mo 0.69440(2) 0.69440(2) 0.74705(3)
O38_2 O 0.72594(15) 0.68420(18) 0.77406(15)
O39_2 O 0.71636(15) 0.6735(2) 0.71636(15)
O40_2 O 0.66842(14) 0.66842(14) 0.7550(2)
Mo1_3 Mo 0.19440(2) 0.74705(3) 0.19440(2)
O1_3 O 0.18420(18) 0.77406(15) 0.22594(15)
O2_3 O 0.1735(2) 0.71636(15) 0.21636(15)
O3_3 O 0.22919(18) 0.72919(18) 0.22919(18)
O4_3 O 0.16842(14) 0.7550(2) 0.16842(14)
Si1_3 Si 0.2500 0.7500 0.2500
O5_3 O 0.22919(18) 0.77081(18) 0.27081(18)
O6_3 O 0.27081(18) 0.77081(18) 0.22919(18)
O7_3 O 0.27081(18) 0.72919(18) 0.27081(18)
Mo2_3 Mo 0.19440(2) 0.80560(2) 0.25295(3)
O8_3 O 0.22594(15) 0.81580(18) 0.22594(15)
O9_3 O 0.21636(15) 0.8265(2) 0.28364(15)
O10_3 O 0.16842(14) 0.83158(14) 0.2450(2)
Mo3_3 Mo 0.25295(3) 0.80560(2) 0.19440(2)
O11_3 O 0.22594(15) 0.77406(15) 0.18420(18)
O12_3 O 0.28364(15) 0.78364(15) 0.1735(2)
O13_3 O 0.2450(2) 0.83158(14) 0.16842(14)
Mo4_3 Mo 0.19440(2) 0.75295(3) 0.30560(2)
O14_3 O 0.18420(18) 0.72594(15) 0.27406(15)
O15_3 O 0.1735(2) 0.78364(15) 0.28364(15)
O16_3 O 0.16842(14) 0.7450(2) 0.33158(14)
Mo5_3 Mo 0.25295(3) 0.69440(2) 0.30560(2)
O17_3 O 0.22594(15) 0.72594(15) 0.31580(18)
O18_3 O 0.28364(15) 0.71636(15) 0.3265(2)
O19_3 O 0.2450(2) 0.66842(14) 0.33158(14)
Mo6_3 Mo 0.19440(2) 0.69440(2) 0.24705(3)
O20_3 O 0.22594(15) 0.68420(18) 0.27406(15)
O21_3 O 0.21636(15) 0.6735(2) 0.21636(15)
O22_3 O 0.16842(14) 0.66842(14) 0.2550(2)
Mo7_3 Mo 0.30560(2) 0.74705(3) 0.30560(2)
O23_3 O 0.31580(18) 0.77406(15) 0.27406(15)
O24_3 O 0.3265(2) 0.71636(15) 0.28364(15)
O25_3 O 0.33158(14) 0.7550(2) 0.33158(14)
Mo8_3 Mo 0.30560(2) 0.80560(2) 0.24705(3)
O26_3 O 0.27406(15) 0.81580(18) 0.27406(15)
O27_3 O 0.28364(15) 0.8265(2) 0.21636(15)
O28_3 O 0.33158(14) 0.83158(14) 0.2550(2)
Mo9_3 Mo 0.24705(3) 0.80560(2) 0.30560(2)
O29_3 O 0.27406(15) 0.77406(15) 0.31580(18)
O30_3 O 0.21636(15) 0.78364(15) 0.3265(2)
O31_3 O 0.2550(2) 0.83158(14) 0.33158(14)
Mo10_3 Mo 0.30560(2) 0.75295(3) 0.19440(2)
O32_3 O 0.31580(18) 0.72594(15) 0.22594(15)
O33_3 O 0.3265(2) 0.78364(15) 0.21636(15)
O34_3 O 0.33158(14) 0.7450(2) 0.16842(14)
Mo11_3 Mo 0.24705(3) 0.69440(2) 0.19440(2)
O35_3 O 0.27406(15) 0.72594(15) 0.18420(18)
O36_3 O 0.21636(15) 0.71636(15) 0.1735(2)
O37_3 O 0.2550(2) 0.66842(14) 0.16842(14)
Mo12_3 Mo 0.30560(2) 0.69440(2) 0.25295(3)
O38_3 O 0.27406(15) 0.68420(18) 0.22594(15)
O39_3 O 0.28364(15) 0.6735(2) 0.28364(15)
O40_3 O 0.33158(14) 0.66842(14) 0.2450(2)
Mo1_4 Mo 0.80560(2) 0.25295(3) 0.19440(2)
O1_4 O 0.81580(18) 0.22594(15) 0.22594(15)
O2_4 O 0.8265(2) 0.28364(15) 0.21636(15)
O3_4 O 0.77081(18) 0.27081(18) 0.22919(18)
O4_4 O 0.83158(14) 0.2450(2) 0.16842(14)
Si1_4 Si 0.7500 0.2500 0.2500
O5_4 O 0.77081(18) 0.22919(18) 0.27081(18)
O6_4 O 0.72919(18) 0.22919(18) 0.22919(18)
O7_4 O 0.72919(18) 0.27081(18) 0.27081(18)
Mo2_4 Mo 0.80560(2) 0.19440(2) 0.25295(3)
O8_4 O 0.77406(15) 0.18420(18) 0.22594(15)
O9_4 O 0.78364(15) 0.1735(2) 0.28364(15)
O10_4 O 0.83158(14) 0.16842(14) 0.2450(2)
Mo3_4 Mo 0.74705(3) 0.19440(2) 0.19440(2)
O11_4 O 0.77406(15) 0.22594(15) 0.18420(18)
O12_4 O 0.71636(15) 0.21636(15) 0.1735(2)
O13_4 O 0.7550(2) 0.16842(14) 0.16842(14)
Mo4_4 Mo 0.80560(2) 0.24705(3) 0.30560(2)
O14_4 O 0.81580(18) 0.27406(15) 0.27406(15)
O15_4 O 0.8265(2) 0.21636(15) 0.28364(15)
O16_4 O 0.83158(14) 0.2550(2) 0.33158(14)
Mo5_4 Mo 0.74705(3) 0.30560(2) 0.30560(2)
O17_4 O 0.77406(15) 0.27406(15) 0.31580(18)
O18_4 O 0.71636(15) 0.28364(15) 0.3265(2)
O19_4 O 0.7550(2) 0.33158(14) 0.33158(14)
Mo6_4 Mo 0.80560(2) 0.30560(2) 0.24705(3)
O20_4 O 0.77406(15) 0.31580(18) 0.27406(15)
O21_4 O 0.78364(15) 0.3265(2) 0.21636(15)
O22_4 O 0.83158(14) 0.33158(14) 0.2550(2)
Mo7_4 Mo 0.69440(2) 0.25295(3) 0.30560(2)
O23_4 O 0.68420(18) 0.22594(15) 0.27406(15)
O24_4 O 0.6735(2) 0.28364(15) 0.28364(15)
O25_4 O 0.66842(14) 0.2450(2) 0.33158(14)
Mo8_4 Mo 0.69440(2) 0.19440(2) 0.24705(3)
O26_4 O 0.72594(15) 0.18420(18) 0.27406(15)
O27_4 O 0.71636(15) 0.1735(2) 0.21636(15)
O28_4 O 0.66842(14) 0.16842(14) 0.2550(2)
Mo9_4 Mo 0.75295(3) 0.19440(2) 0.30560(2)
O29_4 O 0.72594(15) 0.22594(15) 0.31580(18)
O30_4 O 0.78364(15) 0.21636(15) 0.3265(2)
O31_4 O 0.7450(2) 0.16842(14) 0.33158(14)
Mo10_4 Mo 0.69440(2) 0.24705(3) 0.19440(2)
O32_4 O 0.68420(18) 0.27406(15) 0.22594(15)
O33_4 O 0.6735(2) 0.21636(15) 0.21636(15)
O34_4 O 0.66842(14) 0.2550(2) 0.16842(14)
Mo11_4 Mo 0.75295(3) 0.30560(2) 0.19440(2)
O35_4 O 0.72594(15) 0.27406(15) 0.18420(18)
O36_4 O 0.78364(15) 0.28364(15) 0.1735(2)
O37_4 O 0.7450(2) 0.33158(14) 0.16842(14)
Mo12_4 Mo 0.69440(2) 0.30560(2) 0.25295(3)
O38_4 O 0.72594(15) 0.31580(18) 0.22594(15)
O39_4 O 0.71636(15) 0.3265(2) 0.28364(15)
O40_4 O 0.66842(14) 0.33158(14) 0.2450(2)
Mo1_5 Mo 0.74705(3) 0.80560(2) 0.19440(2)
O1_5 O 0.77406(15) 0.81580(18) 0.22594(15)
O2_5 O 0.71636(15) 0.8265(2) 0.21636(15)
O3_5 O 0.72919(18) 0.77081(18) 0.22919(18)
O4_5 O 0.7550(2) 0.83158(14) 0.16842(14)
Si1_5 Si 0.7500 0.7500 0.2500
O5_5 O 0.77081(18) 0.77081(18) 0.27081(18)
O6_5 O 0.77081(18) 0.72919(18) 0.22919(18)
O7_5 O 0.72919(18) 0.72919(18) 0.27081(18)
Mo2_5 Mo 0.80560(2) 0.80560(2) 0.25295(3)
O8_5 O 0.81580(18) 0.77406(15) 0.22594(15)
O9_5 O 0.8265(2) 0.78364(15) 0.28364(15)
O10_5 O 0.83158(14) 0.83158(14) 0.2450(2)
Mo3_5 Mo 0.80560(2) 0.74705(3) 0.19440(2)
O11_5 O 0.77406(15) 0.77406(15) 0.18420(18)
O12_5 O 0.78364(15) 0.71636(15) 0.1735(2)
O13_5 O 0.83158(14) 0.7550(2) 0.16842(14)
Mo4_5 Mo 0.75295(3) 0.80560(2) 0.30560(2)
O14_5 O 0.72594(15) 0.81580(18) 0.27406(15)
O15_5 O 0.78364(15) 0.8265(2) 0.28364(15)
O16_5 O 0.7450(2) 0.83158(14) 0.33158(14)
Mo5_5 Mo 0.69440(2) 0.74705(3) 0.30560(2)
O17_5 O 0.72594(15) 0.77406(15) 0.31580(18)
O18_5 O 0.71636(15) 0.71636(15) 0.3265(2)
O19_5 O 0.66842(14) 0.7550(2) 0.33158(14)
Mo6_5 Mo 0.69440(2) 0.80560(2) 0.24705(3)
O20_5 O 0.68420(18) 0.77406(15) 0.27406(15)
O21_5 O 0.6735(2) 0.78364(15) 0.21636(15)
O22_5 O 0.66842(14) 0.83158(14) 0.2550(2)
Mo7_5 Mo 0.74705(3) 0.69440(2) 0.30560(2)
O23_5 O 0.77406(15) 0.68420(18) 0.27406(15)
O24_5 O 0.71636(15) 0.6735(2) 0.28364(15)
O25_5 O 0.7550(2) 0.66842(14) 0.33158(14)
Mo8_5 Mo 0.80560(2) 0.69440(2) 0.24705(3)
O26_5 O 0.81580(18) 0.72594(15) 0.27406(15)
O27_5 O 0.8265(2) 0.71636(15) 0.21636(15)
O28_5 O 0.83158(14) 0.66842(14) 0.2550(2)
Mo9_5 Mo 0.80560(2) 0.75295(3) 0.30560(2)
O29_5 O 0.77406(15) 0.72594(15) 0.31580(18)
O30_5 O 0.78364(15) 0.78364(15) 0.3265(2)
O31_5 O 0.83158(14) 0.7450(2) 0.33158(14)
Mo10_5 Mo 0.75295(3) 0.69440(2) 0.19440(2)
O32_5 O 0.72594(15) 0.68420(18) 0.22594(15)
O33_5 O 0.78364(15) 0.6735(2) 0.21636(15)
O34_5 O 0.7450(2) 0.66842(14) 0.16842(14)
Mo11_5 Mo 0.69440(2) 0.75295(3) 0.19440(2)
O35_5 O 0.72594(15) 0.72594(15) 0.18420(18)
O36_5 O 0.71636(15) 0.78364(15) 0.1735(2)
O37_5 O 0.66842(14) 0.7450(2) 0.16842(14)
Mo12_5 Mo 0.69440(2) 0.69440(2) 0.25295(3)
O38_5 O 0.68420(18) 0.72594(15) 0.22594(15)
O39_5 O 0.6735(2) 0.71636(15) 0.28364(15)
O40_5 O 0.66842(14) 0.66842(14) 0.2450(2)
Mo1_6 Mo 0.25295(3) 0.19440(2) 0.19440(2)
O1_6 O 0.22594(15) 0.18420(18) 0.22594(15)
O2_6 O 0.28364(15) 0.1735(2) 0.21636(15)
O3_6 O 0.27081(18) 0.22919(18) 0.22919(18)
O4_6 O 0.2450(2) 0.16842(14) 0.16842(14)
Si1_6 Si 0.2500 0.2500 0.2500
O5_6 O 0.22919(18) 0.22919(18) 0.27081(18)
O6_6 O 0.22919(18) 0.27081(18) 0.22919(18)
O7_6 O 0.27081(18) 0.27081(18) 0.27081(18)
Mo2_6 Mo 0.19440(2) 0.19440(2) 0.25295(3)
O8_6 O 0.18420(18) 0.22594(15) 0.22594(15)
O9_6 O 0.1735(2) 0.21636(15) 0.28364(15)
O10_6 O 0.16842(14) 0.16842(14) 0.2450(2)
Mo3_6 Mo 0.19440(2) 0.25295(3) 0.19440(2)
O11_6 O 0.22594(15) 0.22594(15) 0.18420(18)
O12_6 O 0.21636(15) 0.28364(15) 0.1735(2)
O13_6 O 0.16842(14) 0.2450(2) 0.16842(14)
Mo4_6 Mo 0.24705(3) 0.19440(2) 0.30560(2)
O14_6 O 0.27406(15) 0.18420(18) 0.27406(15)
O15_6 O 0.21636(15) 0.1735(2) 0.28364(15)
O16_6 O 0.2550(2) 0.16842(14) 0.33158(14)
Mo5_6 Mo 0.30560(2) 0.25295(3) 0.30560(2)
O17_6 O 0.27406(15) 0.22594(15) 0.31580(18)
O18_6 O 0.28364(15) 0.28364(15) 0.3265(2)
O19_6 O 0.33158(14) 0.2450(2) 0.33158(14)
Mo6_6 Mo 0.30560(2) 0.19440(2) 0.24705(3)
O20_6 O 0.31580(18) 0.22594(15) 0.27406(15)
O21_6 O 0.3265(2) 0.21636(15) 0.21636(15)
O22_6 O 0.33158(14) 0.16842(14) 0.2550(2)
Mo7_6 Mo 0.25295(3) 0.30560(2) 0.30560(2)
O23_6 O 0.22594(15) 0.31580(18) 0.27406(15)
O24_6 O 0.28364(15) 0.3265(2) 0.28364(15)
O25_6 O 0.2450(2) 0.33158(14) 0.33158(14)
Mo8_6 Mo 0.19440(2) 0.30560(2) 0.24705(3)
O26_6 O 0.18420(18) 0.27406(15) 0.27406(15)
O27_6 O 0.1735(2) 0.28364(15) 0.21636(15)
O28_6 O 0.16842(14) 0.33158(14) 0.2550(2)
Mo9_6 Mo 0.19440(2) 0.24705(3) 0.30560(2)
O29_6 O 0.22594(15) 0.27406(15) 0.31580(18)
O30_6 O 0.21636(15) 0.21636(15) 0.3265(2)
O31_6 O 0.16842(14) 0.2550(2) 0.33158(14)
Mo10_6 Mo 0.24705(3) 0.30560(2) 0.19440(2)
O32_6 O 0.27406(15) 0.31580(18) 0.22594(15)
O33_6 O 0.21636(15) 0.3265(2) 0.21636(15)
O34_6 O 0.2550(2) 0.33158(14) 0.16842(14)
Mo11_6 Mo 0.30560(2) 0.24705(3) 0.19440(2)
O35_6 O 0.27406(15) 0.27406(15) 0.18420(18)
O36_6 O 0.28364(15) 0.21636(15) 0.1735(2)
O37_6 O 0.33158(14) 0.2550(2) 0.16842(14)
Mo12_6 Mo 0.30560(2) 0.30560(2) 0.25295(3)
O38_6 O 0.31580(18) 0.27406(15) 0.22594(15)
O39_6 O 0.3265(2) 0.28364(15) 0.28364(15)
O40_6 O 0.33158(14) 0.33158(14) 0.2450(2)
Mo1_7 Mo 0.25295(3) 0.80560(2) 0.80560(2)
O1_7 O 0.22594(15) 0.81580(18) 0.77406(15)
O2_7 O 0.28364(15) 0.8265(2) 0.78364(15)
O3_7 O 0.27081(18) 0.77081(18) 0.77081(18)
O4_7 O 0.2450(2) 0.83158(14) 0.83158(14)
Si1_7 Si 0.2500 0.7500 0.7500
O5_7 O 0.22919(18) 0.77081(18) 0.72919(18)
O6_7 O 0.22919(18) 0.72919(18) 0.77081(18)
O7_7 O 0.27081(18) 0.72919(18) 0.72919(18)
Mo2_7 Mo 0.19440(2) 0.80560(2) 0.74705(3)
O8_7 O 0.18420(18) 0.77406(15) 0.77406(15)
O9_7 O 0.1735(2) 0.78364(15) 0.71636(15)
O10_7 O 0.16842(14) 0.83158(14) 0.7550(2)
Mo3_7 Mo 0.19440(2) 0.74705(3) 0.80560(2)
O11_7 O 0.22594(15) 0.77406(15) 0.81580(18)
O12_7 O 0.21636(15) 0.71636(15) 0.8265(2)
O13_7 O 0.16842(14) 0.7550(2) 0.83158(14)
Mo4_7 Mo 0.24705(3) 0.80560(2) 0.69440(2)
O14_7 O 0.27406(15) 0.81580(18) 0.72594(15)
O15_7 O 0.21636(15) 0.8265(2) 0.71636(15)
O16_7 O 0.2550(2) 0.83158(14) 0.66842(14)
Mo5_7 Mo 0.30560(2) 0.74705(3) 0.69440(2)
O17_7 O 0.27406(15) 0.77406(15) 0.68420(18)
O18_7 O 0.28364(15) 0.71636(15) 0.6735(2)
O19_7 O 0.33158(14) 0.7550(2) 0.66842(14)
Mo6_7 Mo 0.30560(2) 0.80560(2) 0.75295(3)
O20_7 O 0.31580(18) 0.77406(15) 0.72594(15)
O21_7 O 0.3265(2) 0.78364(15) 0.78364(15)
O22_7 O 0.33158(14) 0.83158(14) 0.7450(2)
Mo7_7 Mo 0.25295(3) 0.69440(2) 0.69440(2)
O23_7 O 0.22594(15) 0.68420(18) 0.72594(15)
O24_7 O 0.28364(15) 0.6735(2) 0.71636(15)
O25_7 O 0.2450(2) 0.66842(14) 0.66842(14)
Mo8_7 Mo 0.19440(2) 0.69440(2) 0.75295(3)
O26_7 O 0.18420(18) 0.72594(15) 0.72594(15)
O27_7 O 0.1735(2) 0.71636(15) 0.78364(15)
O28_7 O 0.16842(14) 0.66842(14) 0.7450(2)
Mo9_7 Mo 0.19440(2) 0.75295(3) 0.69440(2)
O29_7 O 0.22594(15) 0.72594(15) 0.68420(18)
O30_7 O 0.21636(15) 0.78364(15) 0.6735(2)
O31_7 O 0.16842(14) 0.7450(2) 0.66842(14)
Mo10_7 Mo 0.24705(3) 0.69440(2) 0.80560(2)
O32_7 O 0.27406(15) 0.68420(18) 0.77406(15)
O33_7 O 0.21636(15) 0.6735(2) 0.78364(15)
O34_7 O 0.2550(2) 0.66842(14) 0.83158(14)
Mo11_7 Mo 0.30560(2) 0.75295(3) 0.80560(2)
O35_7 O 0.27406(15) 0.72594(15) 0.81580(18)
O36_7 O 0.28364(15) 0.78364(15) 0.8265(2)
O37_7 O 0.33158(14) 0.7450(2) 0.83158(14)
Mo12_7 Mo 0.30560(2) 0.69440(2) 0.74705(3)
O38_7 O 0.31580(18) 0.72594(15) 0.77406(15)
O39_7 O 0.3265(2) 0.71636(15) 0.71636(15)
O40_7 O 0.33158(14) 0.66842(14) 0.7550(2)
Mo1_8 Mo 0.74705(3) 0.19440(2) 0.80560(2)
O1_8 O 0.77406(15) 0.18420(18) 0.77406(15)
O2_8 O 0.71636(15) 0.1735(2) 0.78364(15)
O3_8 O 0.72919(18) 0.22919(18) 0.77081(18)
O4_8 O 0.7550(2) 0.16842(14) 0.83158(14)
Si1_8 Si 0.7500 0.2500 0.7500
O5_8 O 0.77081(18) 0.22919(18) 0.72919(18)
O6_8 O 0.77081(18) 0.27081(18) 0.77081(18)
O7_8 O 0.72919(18) 0.27081(18) 0.72919(18)
Mo2_8 Mo 0.80560(2) 0.19440(2) 0.74705(3)
O8_8 O 0.81580(18) 0.22594(15) 0.77406(15)
O9_8 O 0.8265(2) 0.21636(15) 0.71636(15)
O10_8 O 0.83158(14) 0.16842(14) 0.7550(2)
Mo3_8 Mo 0.80560(2) 0.25295(3) 0.80560(2)
O11_8 O 0.77406(15) 0.22594(15) 0.81580(18)
O12_8 O 0.78364(15) 0.28364(15) 0.8265(2)
O13_8 O 0.83158(14) 0.2450(2) 0.83158(14)
Mo4_8 Mo 0.75295(3) 0.19440(2) 0.69440(2)
O14_8 O 0.72594(15) 0.18420(18) 0.72594(15)
O15_8 O 0.78364(15) 0.1735(2) 0.71636(15)
O16_8 O 0.7450(2) 0.16842(14) 0.66842(14)
Mo5_8 Mo 0.69440(2) 0.25295(3) 0.69440(2)
O17_8 O 0.72594(15) 0.22594(15) 0.68420(18)
O18_8 O 0.71636(15) 0.28364(15) 0.6735(2)
O19_8 O 0.66842(14) 0.2450(2) 0.66842(14)
Mo6_8 Mo 0.69440(2) 0.19440(2) 0.75295(3)
O20_8 O 0.68420(18) 0.22594(15) 0.72594(15)
O21_8 O 0.6735(2) 0.21636(15) 0.78364(15)
O22_8 O 0.66842(14) 0.16842(14) 0.7450(2)
Mo7_8 Mo 0.74705(3) 0.30560(2) 0.69440(2)
O23_8 O 0.77406(15) 0.31580(18) 0.72594(15)
O24_8 O 0.71636(15) 0.3265(2) 0.71636(15)
O25_8 O 0.7550(2) 0.33158(14) 0.66842(14)
Mo8_8 Mo 0.80560(2) 0.30560(2) 0.75295(3)
O26_8 O 0.81580(18) 0.27406(15) 0.72594(15)
O27_8 O 0.8265(2) 0.28364(15) 0.78364(15)
O28_8 O 0.83158(14) 0.33158(14) 0.7450(2)
Mo9_8 Mo 0.80560(2) 0.24705(3) 0.69440(2)
O29_8 O 0.77406(15) 0.27406(15) 0.68420(18)
O30_8 O 0.78364(15) 0.21636(15) 0.6735(2)
O31_8 O 0.83158(14) 0.2550(2) 0.66842(14)
Mo10_8 Mo 0.75295(3) 0.30560(2) 0.80560(2)
O32_8 O 0.72594(15) 0.31580(18) 0.77406(15)
O33_8 O 0.78364(15) 0.3265(2) 0.78364(15)
O34_8 O 0.7450(2) 0.33158(14) 0.83158(14)
Mo11_8 Mo 0.69440(2) 0.24705(3) 0.80560(2)
O35_8 O 0.72594(15) 0.27406(15) 0.81580(18)
O36_8 O 0.71636(15) 0.21636(15) 0.8265(2)
O37_8 O 0.66842(14) 0.2550(2) 0.83158(14)
Mo12_8 Mo 0.69440(2) 0.30560(2) 0.74705(3)
O38_8 O 0.68420(18) 0.27406(15) 0.77406(15)
O39_8 O 0.6735(2) 0.28364(15) 0.71636(15)
O40_8 O 0.66842(14) 0.33158(14) 0.7550(2)
Cu1 Cu 0.168383(17) 0.168383(17) 0.0000
Cu2 Cu 0.126469(17) 0.126469(17) 0.0000
O43 O 0.20279(13) 0.20279(13) 0.0000
O44 O 0.09252(14) 0.09252(14) 0.0000
Cu10 Cu 0.32383(3) 0.17617(3) 0.12286(3)
O67 O 0.18687(8) 0.14347(8) 0.03088(9)
O68 O 0.15137(9) 0.10798(8) 0.03085(8)
N13 N 0.29264(12) 0.14507(13) 0.12482(12)
C28 C 0.17485(12) 0.11995(12) 0.04087(11)
N14 N 0.27017(12) 0.14086(14) 0.10615(12)
C29 C 0.18976(11) 0.10498(11) 0.06683(11)
O69 O 0.3001(4) 0.1999(4) 0.0939(4)
C30 C 0.21607(13) 0.11638(12) 0.07867(13)
H10 H 0.2254 0.1326 0.0694
C31 C 0.22840(18) 0.10395(14) 0.10395(14)
C32 C 0.17697(18) 0.08002(12) 0.08002(12)
H11 H 0.1595 0.0720 0.0720
C33 C 0.2568(2) 0.11683(16) 0.11683(16)
O70 O 0.3517(4) 0.1483(4) 0.0930(6)
O71 O 0.18687(8) 0.03088(9) 0.14347(8)
O72 O 0.15137(9) 0.03085(8) 0.10798(8)
N15 N 0.29264(12) 0.12482(12) 0.14507(13)
C34 C 0.17485(12) 0.04087(11) 0.11995(12)
N16 N 0.27017(12) 0.10615(12) 0.14086(14)
C35 C 0.18976(11) 0.06683(11) 0.10498(11)
C36 C 0.21607(13) 0.07867(13) 0.11638(12)
H12 H 0.2254 0.0694 0.1326
Cu12 Cu 0.12286(3) 0.32383(3) 0.17617(3)
O79 O 0.03088(9) 0.18687(8) 0.14347(8)
O80 O 0.03085(8) 0.15137(9) 0.10798(8)
N21 N 0.12482(12) 0.29264(12) 0.14507(13)
C46 C 0.04087(11) 0.17485(12) 0.11995(12)
N22 N 0.10615(12) 0.27017(12) 0.14086(14)
C47 C 0.06683(11) 0.18976(11) 0.10498(11)
O81 O 0.0939(4) 0.3001(4) 0.1999(4)
C48 C 0.07867(13) 0.21607(13) 0.11638(12)
H16 H 0.0694 0.2254 0.1326
C49 C 0.10395(14) 0.22840(18) 0.10395(14)
C50 C 0.08002(12) 0.17697(18) 0.08002(12)
H17 H 0.0720 0.1595 0.0720
C51 C 0.11683(16) 0.2568(2) 0.11683(16)
O82 O 0.0930(6) 0.3517(4) 0.1483(4)
O83 O 0.14347(8) 0.18687(8) 0.03088(9)
O84 O 0.10798(8) 0.15137(9) 0.03085(8)
N23 N 0.14507(13) 0.29264(12) 0.12482(12)
C52 C 0.11995(12) 0.17485(12) 0.04087(11)
N24 N 0.14086(14) 0.27017(12) 0.10615(12)
C53 C 0.10498(11) 0.18976(11) 0.06683(11)
C54 C 0.11638(12) 0.21607(13) 0.07867(13)
H18 H 0.1326 0.2254 0.0694
Cu13 Cu -0.0000 0.168383(17) 0.168383(17)
Cu14 Cu 0.168383(17) -0.0000 0.168383(17)
Cu16 Cu 0.0000 0.126469(17) 0.126469(17)
Cu17 Cu 0.126469(17) 0.0000 0.126469(17)
Cu23 Cu 0.32383(3) 0.12286(3) 0.17617(3)
Cu26 Cu 0.17617(3) 0.32383(3) 0.12286(3)
N25 N 0.12482(12) 0.35493(13) 0.20736(12)
N29 N 0.35493(13) 0.20736(12) 0.12482(12)
O92 O 0.33481(17) 0.16519(17) 0.16519(17)
O94 O 0.16519(17) 0.33481(17) 0.16519(17)
Cu1_2 Cu 0.168383(17) 0.168383(17) 1.0000
Cu2_2 Cu 0.126469(17) 0.126469(17) 1.0000
Cu3 Cu 0.17617(3) 0.32383(3) 0.87714(3)
O41 O 0.14347(8) 0.18687(8) 0.96912(9)
O42 O 0.10798(8) 0.15137(9) 0.96915(8)
O43_2 O 0.20279(13) 0.20279(13) 1.0000
N1 N 0.14507(13) 0.29264(12) 0.87518(12)
C1 C 0.11995(12) 0.17485(12) 0.95913(11)
N2 N 0.14086(14) 0.27017(12) 0.89385(12)
O44_2 O 0.09252(14) 0.09252(14) 1.0000
O45 O 0.16519(17) 0.33481(17) 0.83481(17)
C2 C 0.10498(11) 0.18976(11) 0.93317(11)
O46 O 0.1999(4) 0.3001(4) 0.9061(4)
C3 C 0.11638(12) 0.21607(13) 0.92133(13)
H1 H 0.1326 0.2254 0.9306
C4 C 0.10395(14) 0.22840(18) 0.89605(14)
C5 C 0.08002(12) 0.17697(18) 0.91998(12)
H2 H 0.0720 0.1595 0.9280
C6 C 0.11683(16) 0.2568(2) 0.88317(16)
O47 O 0.1483(4) 0.3517(4) 0.9070(6)
O48 O 0.03088(9) 0.18687(8) 0.85653(8)
O49 O 0.03085(8) 0.15137(9) 0.89202(8)
N3 N 0.12482(12) 0.29264(12) 0.85493(13)
C7 C 0.04087(11) 0.17485(12) 0.88005(12)
N4 N 0.10615(12) 0.27017(12) 0.85914(14)
C8 C 0.06683(11) 0.18976(11) 0.89502(11)
C9 C 0.07867(13) 0.21607(13) 0.88362(12)
H3 H 0.0694 0.2254 0.8674
Cu4 Cu 0.0000 0.168383(17) 0.831617(17)
Cu5 Cu -0.0000 0.126469(17) 0.873531(17)
Cu6 Cu 0.12286(3) 0.17617(3) 0.67617(3)
O50 O 0.03088(9) 0.14347(8) 0.81313(8)
O51 O 0.03085(8) 0.10798(8) 0.84863(9)
O52 O -0.0000 0.20279(13) 0.79721(13)
N5 N 0.12482(12) 0.14507(13) 0.70736(12)
C10 C 0.04087(11) 0.11995(12) 0.82515(12)
N6 N 0.10615(12) 0.14086(14) 0.72983(12)
O53 O 0.0000 0.09252(14) 0.90748(14)
O54 O 0.16519(17) 0.16519(17) 0.66519(17)
C11 C 0.06683(11) 0.10498(11) 0.81024(11)
O55 O 0.0939(4) 0.1999(4) 0.6999(4)
C12 C 0.07867(13) 0.11638(12) 0.78393(13)
H4 H 0.0694 0.1326 0.7746
C13 C 0.10395(14) 0.10395(14) 0.77160(18)
C14 C 0.08002(12) 0.08002(12) 0.82303(18)
H5 H 0.0720 0.0720 0.8405
C15 C 0.11683(16) 0.11683(16) 0.7432(2)
O56 O 0.0930(6) 0.1483(4) 0.6483(4)
O57 O 0.14347(8) 0.03088(9) 0.81313(8)
O58 O 0.10798(8) 0.03085(8) 0.84863(9)
N7 N 0.14507(13) 0.12482(12) 0.70736(12)
C16 C 0.11995(12) 0.04087(11) 0.82515(12)
N8 N 0.14086(14) 0.10615(12) 0.72983(12)
C17 C 0.10498(11) 0.06683(11) 0.81024(11)
C18 C 0.11638(12) 0.07867(13) 0.78393(13)
H6 H 0.1326 0.0694 0.7746
Cu7 Cu 0.168383(17) 0.0000 0.831617(17)
Cu8 Cu 0.126469(17) 0.0000 0.873531(17)
Cu9 Cu 0.32383(3) 0.12286(3) 0.82383(3)
O59 O 0.18687(8) 0.03088(9) 0.85653(8)
O60 O 0.15137(9) 0.03085(8) 0.89202(8)
O61 O 0.20279(13) -0.0000 0.79721(13)
N9 N 0.29264(12) 0.12482(12) 0.85493(13)
C19 C 0.17485(12) 0.04087(11) 0.88005(12)
N10 N 0.27017(12) 0.10615(12) 0.85914(14)
O62 O 0.09252(14) 0.0000 0.90748(14)
C20 C 0.18976(11) 0.06683(11) 0.89502(11)
O63 O 0.3001(4) 0.0939(4) 0.8001(4)
C21 C 0.21607(13) 0.07867(13) 0.88362(12)
H7 H 0.2254 0.0694 0.8674
C22 C 0.22840(18) 0.10395(14) 0.89605(14)
C23 C 0.17697(18) 0.08002(12) 0.91998(12)
H8 H 0.1595 0.0720 0.9280
C24 C 0.2568(2) 0.11683(16) 0.88317(16)
O64 O 0.3517(4) 0.0930(6) 0.8517(4)
O65 O 0.18687(8) 0.14347(8) 0.96912(9)
O66 O 0.15137(9) 0.10798(8) 0.96915(8)
N11 N 0.29264(12) 0.14507(13) 0.87518(12)
C25 C 0.17485(12) 0.11995(12) 0.95913(11)
N12 N 0.27017(12) 0.14086(14) 0.89385(12)
C26 C 0.18976(11) 0.10498(11) 0.93317(11)
C27 C 0.21607(13) 0.11638(12) 0.92133(13)
H9 H 0.2254 0.1326 0.9306
Cu19 Cu 0.17617(3) 0.17617(3) 0.62286(3)
Cu20 Cu 0.12286(3) 0.32383(3) 0.82383(3)
Cu22 Cu 0.17617(3) 0.12286(3) 0.67617(3)
Cu24 Cu 0.32383(3) 0.17617(3) 0.87714(3)
Cu25 Cu 0.17617(3) 0.37714(3) 0.82383(3)
N26 N 0.12482(12) 0.20736(12) 0.64507(13)
N28 N 0.35493(13) 0.12482(12) 0.79264(12)
N30 N 0.20736(12) 0.35493(13) 0.87518(12)
O91 O 0.33481(17) 0.16519(17) 0.83481(17)
Cu14_2 Cu 0.168383(17) 1.0000 0.168383(17)
Cu17_2 Cu 0.126469(17) 1.0000 0.126469(17)
Cu7_2 Cu 0.168383(17) 1.0000 0.831617(17)
Cu8_2 Cu 0.126469(17) 1.0000 0.873531(17)
O61_2 O 0.20279(13) 1.0000 0.79721(13)
O62_2 O 0.09252(14) 1.0000 0.90748(14)
O85 O 0.14347(8) 0.96912(9) 0.81313(8)
O87 O 0.18687(8) 0.96912(9) 0.85653(8)
O88 O 0.10798(8) 0.96915(8) 0.84863(9)
O90 O 0.15137(9) 0.96915(8) 0.89202(8)
Cu13_2 Cu 1.0000 0.168383(17) 0.168383(17)
Cu16_2 Cu 1.0000 0.126469(17) 0.126469(17)
Cu4_2 Cu 1.0000 0.168383(17) 0.831617(17)
Cu5_2 Cu 1.0000 0.126469(17) 0.873531(17)
O52_2 O 1.0000 0.20279(13) 0.79721(13)
O53_2 O 1.0000 0.09252(14) 0.90748(14)
Cu11 Cu 0.82383(3) 0.12286(3) 0.67617(3)
O73 O 0.85653(8) 0.03088(9) 0.81313(8)
O74 O 0.89202(8) 0.03085(8) 0.84863(9)
N17 N 0.85493(13) 0.12482(12) 0.70736(12)
C37 C 0.88005(12) 0.04087(11) 0.82515(12)
N18 N 0.85914(14) 0.10615(12) 0.72983(12)
C38 C 0.89502(11) 0.06683(11) 0.81024(11)
O75 O 0.8001(4) 0.0939(4) 0.6999(4)
C39 C 0.88362(12) 0.07867(13) 0.78393(13)
H13 H 0.8674 0.0694 0.7746
C40 C 0.89605(14) 0.10395(14) 0.77160(18)
C41 C 0.91998(12) 0.08002(12) 0.82303(18)
H14 H 0.9280 0.0720 0.8405
C42 C 0.88317(16) 0.11683(16) 0.7432(2)
O76 O 0.8517(4) 0.0930(6) 0.6483(4)
O77 O 0.96912(9) 0.14347(8) 0.81313(8)
O78 O 0.96915(8) 0.10798(8) 0.84863(9)
N19 N 0.87518(12) 0.14507(13) 0.70736(12)
C43 C 0.95913(11) 0.11995(12) 0.82515(12)
N20 N 0.89385(12) 0.14086(14) 0.72983(12)
C44 C 0.93317(11) 0.10498(11) 0.81024(11)
C45 C 0.92133(13) 0.11638(12) 0.78393(13)
H15 H 0.9306 0.1326 0.7746
Cu15 Cu 0.831617(17) 0.0000 0.831617(17)
Cu18 Cu 0.873531(17) 0.0000 0.873531(17)
Cu21 Cu 0.87714(3) 0.17617(3) 0.67617(3)
O86 O 0.96912(9) 0.18687(8) 0.85653(8)
O89 O 0.96915(8) 0.15137(9) 0.89202(8)
N27 N 0.79264(12) 0.12482(12) 0.64507(13)
O93 O 0.83481(17) 0.16519(17) 0.66519(17)
Cu15_2 Cu 0.831617(17) 1.0000 0.831617(17)
Cu18_2 Cu 0.873531(17) 1.0000 0.873531(17)
Cu13_3 Cu 0.0000 0.831617(17) 0.168383(17)
Cu16_3 Cu 0.0000 0.873531(17) 0.126469(17)
Cu4_3 Cu 0.0000 0.831617(17) 0.831617(17)
Cu5_3 Cu 0.0000 0.873531(17) 0.873531(17)
O52_3 O -0.0000 0.79721(13) 0.79721(13)
O53_3 O 0.0000 0.90748(14) 0.90748(14)
Cu11_2 Cu 0.17617(3) 0.87714(3) 0.67617(3)
N17_2 N 0.14507(13) 0.87518(12) 0.70736(12)
C37_2 C 0.11995(12) 0.95913(11) 0.82515(12)
N18_2 N 0.14086(14) 0.89385(12) 0.72983(12)
C38_2 C 0.10498(11) 0.93317(11) 0.81024(11)
O75_2 O 0.1999(4) 0.9061(4) 0.6999(4)
C39_2 C 0.11638(12) 0.92133(13) 0.78393(13)
H13_2 H 0.1326 0.9306 0.7746
C40_2 C 0.10395(14) 0.89605(14) 0.77160(18)
C41_2 C 0.08002(12) 0.91998(12) 0.82303(18)
H14_2 H 0.0720 0.9280 0.8405
C42_2 C 0.11683(16) 0.88317(16) 0.7432(2)
O76_2 O 0.1483(4) 0.9070(6) 0.6483(4)
O77_2 O 0.03088(9) 0.85653(8) 0.81313(8)
O78_2 O 0.03085(8) 0.89202(8) 0.84863(9)
N19_2 N 0.12482(12) 0.85493(13) 0.70736(12)
C43_2 C 0.04087(11) 0.88005(12) 0.82515(12)
N20_2 N 0.10615(12) 0.85914(14) 0.72983(12)
C44_2 C 0.06683(11) 0.89502(11) 0.81024(11)
C45_2 C 0.07867(13) 0.88362(12) 0.78393(13)
H15_2 H 0.0694 0.8674 0.7746
Cu21_2 Cu 0.12286(3) 0.82383(3) 0.67617(3)
O86_2 O 0.03088(9) 0.81313(8) 0.85653(8)
O89_2 O 0.03085(8) 0.84863(9) 0.89202(8)
N27_2 N 0.20736(12) 0.87518(12) 0.64507(13)
O93_2 O 0.16519(17) 0.83481(17) 0.66519(17)
Cu14_3 Cu 0.831617(17) 0.0000 0.168383(17)
Cu17_3 Cu 0.873531(17) 0.0000 0.126469(17)
O61_3 O 0.79721(13) -0.0000 0.79721(13)
O62_3 O 0.90748(14) 0.0000 0.90748(14)
O87_2 O 0.81313(8) 0.03088(9) 0.85653(8)
O90_2 O 0.84863(9) 0.03085(8) 0.89202(8)
Cu1_3 Cu 0.831617(17) 0.831617(17) 0.0000
Cu2_3 Cu 0.873531(17) 0.873531(17) 0.0000
O43_3 O 0.79721(13) 0.79721(13) 0.0000
O44_3 O 0.90748(14) 0.90748(14) 0.0000
Cu10_2 Cu 0.67617(3) 0.82383(3) 0.12286(3)
O67_2 O 0.81313(8) 0.85653(8) 0.03088(9)
O68_2 O 0.84863(9) 0.89202(8) 0.03085(8)
N13_2 N 0.70736(12) 0.85493(13) 0.12482(12)
C28_2 C 0.82515(12) 0.88005(12) 0.04087(11)
N14_2 N 0.72983(12) 0.85914(14) 0.10615(12)
C29_2 C 0.81024(11) 0.89502(11) 0.06683(11)
O69_2 O 0.6999(4) 0.8001(4) 0.0939(4)
C30_2 C 0.78393(13) 0.88362(12) 0.07867(13)
H10_2 H 0.7746 0.8674 0.0694
C31_2 C 0.77160(18) 0.89605(14) 0.10395(14)
C32_2 C 0.82303(18) 0.91998(12) 0.08002(12)
H11_2 H 0.8405 0.9280 0.0720
C33_2 C 0.7432(2) 0.88317(16) 0.11683(16)
O70_2 O 0.6483(4) 0.8517(4) 0.0930(6)
O71_2 O 0.81313(8) 0.96912(9) 0.14347(8)
O72_2 O 0.84863(9) 0.96915(8) 0.10798(8)
N15_2 N 0.70736(12) 0.87518(12) 0.14507(13)
C34_2 C 0.82515(12) 0.95913(11) 0.11995(12)
N16_2 N 0.72983(12) 0.89385(12) 0.14086(14)
C35_2 C 0.81024(11) 0.93317(11) 0.10498(11)
C36_2 C 0.78393(13) 0.92133(13) 0.11638(12)
H12_2 H 0.7746 0.9306 0.1326
Cu12_2 Cu 0.87714(3) 0.67617(3) 0.17617(3)
O79_2 O 0.96912(9) 0.81313(8) 0.14347(8)
O80_2 O 0.96915(8) 0.84863(9) 0.10798(8)
N21_2 N 0.87518(12) 0.70736(12) 0.14507(13)
C46_2 C 0.95913(11) 0.82515(12) 0.11995(12)
N22_2 N 0.89385(12) 0.72983(12) 0.14086(14)
C47_2 C 0.93317(11) 0.81024(11) 0.10498(11)
O81_2 O 0.9061(4) 0.6999(4) 0.1999(4)
C48_2 C 0.92133(13) 0.78393(13) 0.11638(12)
H16_2 H 0.9306 0.7746 0.1326
C49_2 C 0.89605(14) 0.77160(18) 0.10395(14)
C50_2 C 0.91998(12) 0.82303(18) 0.08002(12)
H17_2 H 0.9280 0.8405 0.0720
C51_2 C 0.88317(16) 0.7432(2) 0.11683(16)
O82_2 O 0.9070(6) 0.6483(4) 0.1483(4)
O83_2 O 0.85653(8) 0.81313(8) 0.03088(9)
O84_2 O 0.89202(8) 0.84863(9) 0.03085(8)
N23_2 N 0.85493(13) 0.70736(12) 0.12482(12)
C52_2 C 0.88005(12) 0.82515(12) 0.04087(11)
N24_2 N 0.85914(14) 0.72983(12) 0.10615(12)
C53_2 C 0.89502(11) 0.81024(11) 0.06683(11)
C54_2 C 0.88362(12) 0.78393(13) 0.07867(13)
H18_2 H 0.8674 0.7746 0.0694
Cu13_4 Cu 1.0000 0.831617(17) 0.168383(17)
Cu14_4 Cu 0.831617(17) 1.0000 0.168383(17)
Cu16_4 Cu 1.0000 0.873531(17) 0.126469(17)
Cu17_4 Cu 0.873531(17) 1.0000 0.126469(17)
Cu23_2 Cu 0.67617(3) 0.87714(3) 0.17617(3)
Cu26_2 Cu 0.82383(3) 0.67617(3) 0.12286(3)
N25_2 N 0.87518(12) 0.64507(13) 0.20736(12)
N29_2 N 0.64507(13) 0.79264(12) 0.12482(12)
O92_2 O 0.66519(17) 0.83481(17) 0.16519(17)
O94_2 O 0.83481(17) 0.66519(17) 0.16519(17)
Cu1_4 Cu 0.831617(17) 0.831617(17) 1.0000
Cu2_4 Cu 0.873531(17) 0.873531(17) 1.0000
Cu3_2 Cu 0.82383(3) 0.67617(3) 0.87714(3)
O41_2 O 0.85653(8) 0.81313(8) 0.96912(9)
O42_2 O 0.89202(8) 0.84863(9) 0.96915(8)
O43_4 O 0.79721(13) 0.79721(13) 1.0000
N1_2 N 0.85493(13) 0.70736(12) 0.87518(12)
C1_2 C 0.88005(12) 0.82515(12) 0.95913(11)
N2_2 N 0.85914(14) 0.72983(12) 0.89385(12)
O44_4 O 0.90748(14) 0.90748(14) 1.0000
O45_2 O 0.83481(17) 0.66519(17) 0.83481(17)
C2_2 C 0.89502(11) 0.81024(11) 0.93317(11)
O46_2 O 0.8001(4) 0.6999(4) 0.9061(4)
C3_2 C 0.88362(12) 0.78393(13) 0.92133(13)
H1_2 H 0.8674 0.7746 0.9306
C4_2 C 0.89605(14) 0.77160(18) 0.89605(14)
C5_2 C 0.91998(12) 0.82303(18) 0.91998(12)
H2_2 H 0.9280 0.8405 0.9280
C6_2 C 0.88317(16) 0.7432(2) 0.88317(16)
O47_2 O 0.8517(4) 0.6483(4) 0.9070(6)
O48_2 O 0.96912(9) 0.81313(8) 0.85653(8)
O49_2 O 0.96915(8) 0.84863(9) 0.89202(8)
N3_2 N 0.87518(12) 0.70736(12) 0.85493(13)
C7_2 C 0.95913(11) 0.82515(12) 0.88005(12)
N4_2 N 0.89385(12) 0.72983(12) 0.85914(14)
C8_2 C 0.93317(11) 0.81024(11) 0.89502(11)
C9_2 C 0.92133(13) 0.78393(13) 0.88362(12)
H3_2 H 0.9306 0.7746 0.8674
Cu4_4 Cu 1.0000 0.831617(17) 0.831617(17)
Cu5_4 Cu 1.0000 0.873531(17) 0.873531(17)
Cu6_2 Cu 0.87714(3) 0.82383(3) 0.67617(3)
O50_2 O 0.96912(9) 0.85653(8) 0.81313(8)
O51_2 O 0.96915(8) 0.89202(8) 0.84863(9)
O52_4 O 1.0000 0.79721(13) 0.79721(13)
N5_2 N 0.87518(12) 0.85493(13) 0.70736(12)
C10_2 C 0.95913(11) 0.88005(12) 0.82515(12)
N6_2 N 0.89385(12) 0.85914(14) 0.72983(12)
O53_4 O 1.0000 0.90748(14) 0.90748(14)
O54_2 O 0.83481(17) 0.83481(17) 0.66519(17)
C11_2 C 0.93317(11) 0.89502(11) 0.81024(11)
O55_2 O 0.9061(4) 0.8001(4) 0.6999(4)
C12_2 C 0.92133(13) 0.88362(12) 0.78393(13)
H4_2 H 0.9306 0.8674 0.7746
C13_2 C 0.89605(14) 0.89605(14) 0.77160(18)
C14_2 C 0.91998(12) 0.91998(12) 0.82303(18)
H5_2 H 0.9280 0.9280 0.8405
C15_2 C 0.88317(16) 0.88317(16) 0.7432(2)
O56_2 O 0.9070(6) 0.8517(4) 0.6483(4)
O57_2 O 0.85653(8) 0.96912(9) 0.81313(8)
O58_2 O 0.89202(8) 0.96915(8) 0.84863(9)
N7_2 N 0.85493(13) 0.87518(12) 0.70736(12)
C16_2 C 0.88005(12) 0.95913(11) 0.82515(12)
N8_2 N 0.85914(14) 0.89385(12) 0.72983(12)
C17_2 C 0.89502(11) 0.93317(11) 0.81024(11)
C18_2 C 0.88362(12) 0.92133(13) 0.78393(13)
H6_2 H 0.8674 0.9306 0.7746
Cu9_2 Cu 0.67617(3) 0.87714(3) 0.82383(3)
O59_2 O 0.81313(8) 0.96912(9) 0.85653(8)
O60_2 O 0.84863(9) 0.96915(8) 0.89202(8)
O61_4 O 0.79721(13) 1.0000 0.79721(13)
N9_2 N 0.70736(12) 0.87518(12) 0.85493(13)
C19_2 C 0.82515(12) 0.95913(11) 0.88005(12)
N10_2 N 0.72983(12) 0.89385(12) 0.85914(14)
O62_4 O 0.90748(14) 1.0000 0.90748(14)
C20_2 C 0.81024(11) 0.93317(11) 0.89502(11)
O63_2 O 0.6999(4) 0.9061(4) 0.8001(4)
C21_2 C 0.78393(13) 0.92133(13) 0.88362(12)
H7_2 H 0.7746 0.9306 0.8674
C22_2 C 0.77160(18) 0.89605(14) 0.89605(14)
C23_2 C 0.82303(18) 0.91998(12) 0.91998(12)
H8_2 H 0.8405 0.9280 0.9280
C24_2 C 0.7432(2) 0.88317(16) 0.88317(16)
O64_2 O 0.6483(4) 0.9070(6) 0.8517(4)
O65_2 O 0.81313(8) 0.85653(8) 0.96912(9)
O66_2 O 0.84863(9) 0.89202(8) 0.96915(8)
N11_2 N 0.70736(12) 0.85493(13) 0.87518(12)
C25_2 C 0.82515(12) 0.88005(12) 0.95913(11)
N12_2 N 0.72983(12) 0.85914(14) 0.89385(12)
C26_2 C 0.81024(11) 0.89502(11) 0.93317(11)
C27_2 C 0.78393(13) 0.88362(12) 0.92133(13)
H9_2 H 0.7746 0.8674 0.9306
Cu19_2 Cu 0.82383(3) 0.82383(3) 0.62286(3)
Cu20_2 Cu 0.87714(3) 0.67617(3) 0.82383(3)
Cu22_2 Cu 0.82383(3) 0.87714(3) 0.67617(3)
Cu24_2 Cu 0.67617(3) 0.82383(3) 0.87714(3)
Cu25_2 Cu 0.82383(3) 0.62286(3) 0.82383(3)
N26_2 N 0.87518(12) 0.79264(12) 0.64507(13)
N28_2 N 0.64507(13) 0.87518(12) 0.79264(12)
N30_2 N 0.79264(12) 0.64507(13) 0.87518(12)
O91_2 O 0.66519(17) 0.83481(17) 0.83481(17)
O61_5 O 0.20279(13) -0.0000 0.20279(13)
O62_5 O 0.09252(14) -0.0000 0.09252(14)
O85_2 O 0.14347(8) 0.03088(9) 0.18687(8)
O88_2 O 0.10798(8) 0.03085(8) 0.15137(9)
Cu1_5 Cu 0.168383(17) 0.831617(17) 0.0000
Cu2_5 Cu 0.126469(17) 0.873531(17) 0.0000
Cu3_3 Cu 0.17617(3) 0.67617(3) 0.12286(3)
O41_3 O 0.14347(8) 0.81313(8) 0.03088(9)
O42_3 O 0.10798(8) 0.84863(9) 0.03085(8)
O43_5 O 0.20279(13) 0.79721(13) 0.0000
N1_3 N 0.14507(13) 0.70736(12) 0.12482(12)
C1_3 C 0.11995(12) 0.82515(12) 0.04087(11)
N2_3 N 0.14086(14) 0.72983(12) 0.10615(12)
O44_5 O 0.09252(14) 0.90748(14) 0.0000
O45_3 O 0.16519(17) 0.66519(17) 0.16519(17)
C2_3 C 0.10498(11) 0.81024(11) 0.06683(11)
O46_3 O 0.1999(4) 0.6999(4) 0.0939(4)
C3_3 C 0.11638(12) 0.78393(13) 0.07867(13)
H1_3 H 0.1326 0.7746 0.0694
C4_3 C 0.10395(14) 0.77160(18) 0.10395(14)
C5_3 C 0.08002(12) 0.82303(18) 0.08002(12)
H2_3 H 0.0720 0.8405 0.0720
C6_3 C 0.11683(16) 0.7432(2) 0.11683(16)
O47_3 O 0.1483(4) 0.6483(4) 0.0930(6)
O48_3 O 0.03088(9) 0.81313(8) 0.14347(8)
O49_3 O 0.03085(8) 0.84863(9) 0.10798(8)
N3_3 N 0.12482(12) 0.70736(12) 0.14507(13)
C7_3 C 0.04087(11) 0.82515(12) 0.11995(12)
N4_3 N 0.10615(12) 0.72983(12) 0.14086(14)
C8_3 C 0.06683(11) 0.81024(11) 0.10498(11)
C9_3 C 0.07867(13) 0.78393(13) 0.11638(12)
H3_3 H 0.0694 0.7746 0.1326
Cu6_3 Cu 0.12286(3) 0.82383(3) 0.32383(3)
O50_3 O 0.03088(9) 0.85653(8) 0.18687(8)
O51_3 O 0.03085(8) 0.89202(8) 0.15137(9)
O52_5 O -0.0000 0.79721(13) 0.20279(13)
N5_3 N 0.12482(12) 0.85493(13) 0.29264(12)
C10_3 C 0.04087(11) 0.88005(12) 0.17485(12)
N6_3 N 0.10615(12) 0.85914(14) 0.27017(12)
O53_5 O 0.0000 0.90748(14) 0.09252(14)
O54_3 O 0.16519(17) 0.83481(17) 0.33481(17)
C11_3 C 0.06683(11) 0.89502(11) 0.18976(11)
O55_3 O 0.0939(4) 0.8001(4) 0.3001(4)
C12_3 C 0.07867(13) 0.88362(12) 0.21607(13)
H4_3 H 0.0694 0.8674 0.2254
C13_3 C 0.10395(14) 0.89605(14) 0.22840(18)
C14_3 C 0.08002(12) 0.91998(12) 0.17697(18)
H5_3 H 0.0720 0.9280 0.1595
C15_3 C 0.11683(16) 0.88317(16) 0.2568(2)
O56_3 O 0.0930(6) 0.8517(4) 0.3517(4)
O57_3 O 0.14347(8) 0.96912(9) 0.18687(8)
O58_3 O 0.10798(8) 0.96915(8) 0.15137(9)
N7_3 N 0.14507(13) 0.87518(12) 0.29264(12)
C16_3 C 0.11995(12) 0.95913(11) 0.17485(12)
N8_3 N 0.14086(14) 0.89385(12) 0.27017(12)
C17_3 C 0.10498(11) 0.93317(11) 0.18976(11)
C18_3 C 0.11638(12) 0.92133(13) 0.21607(13)
H6_3 H 0.1326 0.9306 0.2254
Cu9_3 Cu 0.32383(3) 0.87714(3) 0.17617(3)
O59_3 O 0.18687(8) 0.96912(9) 0.14347(8)
O60_3 O 0.15137(9) 0.96915(8) 0.10798(8)
O61_6 O 0.20279(13) 1.0000 0.20279(13)
N9_3 N 0.29264(12) 0.87518(12) 0.14507(13)
C19_3 C 0.17485(12) 0.95913(11) 0.11995(12)
N10_3 N 0.27017(12) 0.89385(12) 0.14086(14)
O62_6 O 0.09252(14) 1.0000 0.09252(14)
C20_3 C 0.18976(11) 0.93317(11) 0.10498(11)
O63_3 O 0.3001(4) 0.9061(4) 0.1999(4)
C21_3 C 0.21607(13) 0.92133(13) 0.11638(12)
H7_3 H 0.2254 0.9306 0.1326
C22_3 C 0.22840(18) 0.89605(14) 0.10395(14)
C23_3 C 0.17697(18) 0.91998(12) 0.08002(12)
H8_3 H 0.1595 0.9280 0.0720
C24_3 C 0.2568(2) 0.88317(16) 0.11683(16)
O64_3 O 0.3517(4) 0.9070(6) 0.1483(4)
O65_3 O 0.18687(8) 0.85653(8) 0.03088(9)
O66_3 O 0.15137(9) 0.89202(8) 0.03085(8)
N11_3 N 0.29264(12) 0.85493(13) 0.12482(12)
C25_3 C 0.17485(12) 0.88005(12) 0.04087(11)
N12_3 N 0.27017(12) 0.85914(14) 0.10615(12)
C26_3 C 0.18976(11) 0.89502(11) 0.06683(11)
C27_3 C 0.21607(13) 0.88362(12) 0.07867(13)
H9_3 H 0.2254 0.8674 0.0694
Cu19_3 Cu 0.17617(3) 0.82383(3) 0.37714(3)
Cu20_3 Cu 0.12286(3) 0.67617(3) 0.17617(3)
Cu22_3 Cu 0.17617(3) 0.87714(3) 0.32383(3)
Cu24_3 Cu 0.32383(3) 0.82383(3) 0.12286(3)
Cu25_3 Cu 0.17617(3) 0.62286(3) 0.17617(3)
N26_3 N 0.12482(12) 0.79264(12) 0.35493(13)
N28_3 N 0.35493(13) 0.87518(12) 0.20736(12)
N30_3 N 0.20736(12) 0.64507(13) 0.12482(12)
O91_3 O 0.33481(17) 0.83481(17) 0.16519(17)
Cu1_6 Cu 0.168383(17) 0.831617(17) 1.0000
Cu2_6 Cu 0.126469(17) 0.873531(17) 1.0000
O43_6 O 0.20279(13) 0.79721(13) 1.0000
O44_6 O 0.09252(14) 0.90748(14) 1.0000
Cu10_3 Cu 0.32383(3) 0.82383(3) 0.87714(3)
O67_3 O 0.18687(8) 0.85653(8) 0.96912(9)
O68_3 O 0.15137(9) 0.89202(8) 0.96915(8)
N13_3 N 0.29264(12) 0.85493(13) 0.87518(12)
C28_3 C 0.17485(12) 0.88005(12) 0.95913(11)
N14_3 N 0.27017(12) 0.85914(14) 0.89385(12)
C29_3 C 0.18976(11) 0.89502(11) 0.93317(11)
O69_3 O 0.3001(4) 0.8001(4) 0.9061(4)
C30_3 C 0.21607(13) 0.88362(12) 0.92133(13)
H10_3 H 0.2254 0.8674 0.9306
C31_3 C 0.22840(18) 0.89605(14) 0.89605(14)
C32_3 C 0.17697(18) 0.91998(12) 0.91998(12)
H11_3 H 0.1595 0.9280 0.9280
C33_3 C 0.2568(2) 0.88317(16) 0.88317(16)
O70_3 O 0.3517(4) 0.8517(4) 0.9070(6)
N15_3 N 0.29264(12) 0.87518(12) 0.85493(13)
C34_3 C 0.17485(12) 0.95913(11) 0.88005(12)
N16_3 N 0.27017(12) 0.89385(12) 0.85914(14)
C35_3 C 0.18976(11) 0.93317(11) 0.89502(11)
C36_3 C 0.21607(13) 0.92133(13) 0.88362(12)
H12_3 H 0.2254 0.9306 0.8674
Cu12_3 Cu 0.12286(3) 0.67617(3) 0.82383(3)
N21_3 N 0.12482(12) 0.70736(12) 0.85493(13)
C46_3 C 0.04087(11) 0.82515(12) 0.88005(12)
N22_3 N 0.10615(12) 0.72983(12) 0.85914(14)
C47_3 C 0.06683(11) 0.81024(11) 0.89502(11)
O81_3 O 0.0939(4) 0.6999(4) 0.8001(4)
C48_3 C 0.07867(13) 0.78393(13) 0.88362(12)
H16_3 H 0.0694 0.7746 0.8674
C49_3 C 0.10395(14) 0.77160(18) 0.89605(14)
C50_3 C 0.08002(12) 0.82303(18) 0.91998(12)
H17_3 H 0.0720 0.8405 0.9280
C51_3 C 0.11683(16) 0.7432(2) 0.88317(16)
O82_3 O 0.0930(6) 0.6483(4) 0.8517(4)
O83_3 O 0.14347(8) 0.81313(8) 0.96912(9)
O84_3 O 0.10798(8) 0.84863(9) 0.96915(8)
N23_3 N 0.14507(13) 0.70736(12) 0.87518(12)
C52_3 C 0.11995(12) 0.82515(12) 0.95913(11)
N24_3 N 0.14086(14) 0.72983(12) 0.89385(12)
C53_3 C 0.10498(11) 0.81024(11) 0.93317(11)
C54_3 C 0.11638(12) 0.78393(13) 0.92133(13)
H18_3 H 0.1326 0.7746 0.9306
Cu23_3 Cu 0.32383(3) 0.87714(3) 0.82383(3)
Cu26_3 Cu 0.17617(3) 0.67617(3) 0.87714(3)
N25_3 N 0.12482(12) 0.64507(13) 0.79264(12)
N29_3 N 0.35493(13) 0.79264(12) 0.87518(12)
O92_3 O 0.33481(17) 0.83481(17) 0.83481(17)
O94_3 O 0.16519(17) 0.66519(17) 0.83481(17)
O52_6 O 1.0000 0.79721(13) 0.20279(13)
O53_6 O 1.0000 0.90748(14) 0.09252(14)
Cu11_3 Cu 0.82383(3) 0.87714(3) 0.32383(3)
O73_2 O 0.85653(8) 0.96912(9) 0.18687(8)
O74_2 O 0.89202(8) 0.96915(8) 0.15137(9)
N17_3 N 0.85493(13) 0.87518(12) 0.29264(12)
C37_3 C 0.88005(12) 0.95913(11) 0.17485(12)
N18_3 N 0.85914(14) 0.89385(12) 0.27017(12)
C38_3 C 0.89502(11) 0.93317(11) 0.18976(11)
O75_3 O 0.8001(4) 0.9061(4) 0.3001(4)
C39_3 C 0.88362(12) 0.92133(13) 0.21607(13)
H13_3 H 0.8674 0.9306 0.2254
C40_3 C 0.89605(14) 0.89605(14) 0.22840(18)
C41_3 C 0.91998(12) 0.91998(12) 0.17697(18)
H14_3 H 0.9280 0.9280 0.1595
C42_3 C 0.88317(16) 0.88317(16) 0.2568(2)
O76_3 O 0.8517(4) 0.9070(6) 0.3517(4)
O77_3 O 0.96912(9) 0.85653(8) 0.18687(8)
O78_3 O 0.96915(8) 0.89202(8) 0.15137(9)
N19_3 N 0.87518(12) 0.85493(13) 0.29264(12)
C43_3 C 0.95913(11) 0.88005(12) 0.17485(12)
N20_3 N 0.89385(12) 0.85914(14) 0.27017(12)
C44_3 C 0.93317(11) 0.89502(11) 0.18976(11)
C45_3 C 0.92133(13) 0.88362(12) 0.21607(13)
H15_3 H 0.9306 0.8674 0.2254
Cu21_3 Cu 0.87714(3) 0.82383(3) 0.32383(3)
N27_3 N 0.79264(12) 0.87518(12) 0.35493(13)
O93_3 O 0.83481(17) 0.83481(17) 0.33481(17)
O52_7 O -0.0000 0.20279(13) 0.20279(13)
O53_7 O -0.0000 0.09252(14) 0.09252(14)
Cu11_4 Cu 0.17617(3) 0.12286(3) 0.32383(3)
N17_4 N 0.14507(13) 0.12482(12) 0.29264(12)
C37_4 C 0.11995(12) 0.04087(11) 0.17485(12)
N18_4 N 0.14086(14) 0.10615(12) 0.27017(12)
C38_4 C 0.10498(11) 0.06683(11) 0.18976(11)
O75_4 O 0.1999(4) 0.0939(4) 0.3001(4)
C39_4 C 0.11638(12) 0.07867(13) 0.21607(13)
H13_4 H 0.1326 0.0694 0.2254
C40_4 C 0.10395(14) 0.10395(14) 0.22840(18)
C41_4 C 0.08002(12) 0.08002(12) 0.17697(18)
H14_4 H 0.0720 0.0720 0.1595
C42_4 C 0.11683(16) 0.11683(16) 0.2568(2)
O76_4 O 0.1483(4) 0.0930(6) 0.3517(4)
O77_4 O 0.03088(9) 0.14347(8) 0.18687(8)
O78_4 O 0.03085(8) 0.10798(8) 0.15137(9)
N19_4 N 0.12482(12) 0.14507(13) 0.29264(12)
C43_4 C 0.04087(11) 0.11995(12) 0.17485(12)
N20_4 N 0.10615(12) 0.14086(14) 0.27017(12)
C44_4 C 0.06683(11) 0.10498(11) 0.18976(11)
C45_4 C 0.07867(13) 0.11638(12) 0.21607(13)
H15_4 H 0.0694 0.1326 0.2254
Cu21_4 Cu 0.12286(3) 0.17617(3) 0.32383(3)
N27_4 N 0.20736(12) 0.12482(12) 0.35493(13)
O93_4 O 0.16519(17) 0.16519(17) 0.33481(17)
Cu1_7 Cu 0.831617(17) 0.168383(17) 0.0000
Cu2_7 Cu 0.873531(17) 0.126469(17) 0.0000
Cu3_4 Cu 0.82383(3) 0.32383(3) 0.12286(3)
O41_4 O 0.85653(8) 0.18687(8) 0.03088(9)
O42_4 O 0.89202(8) 0.15137(9) 0.03085(8)
O43_7 O 0.79721(13) 0.20279(13) 0.0000
N1_4 N 0.85493(13) 0.29264(12) 0.12482(12)
C1_4 C 0.88005(12) 0.17485(12) 0.04087(11)
N2_4 N 0.85914(14) 0.27017(12) 0.10615(12)
O44_7 O 0.90748(14) 0.09252(14) 0.0000
O45_4 O 0.83481(17) 0.33481(17) 0.16519(17)
C2_4 C 0.89502(11) 0.18976(11) 0.06683(11)
O46_4 O 0.8001(4) 0.3001(4) 0.0939(4)
C3_4 C 0.88362(12) 0.21607(13) 0.07867(13)
H1_4 H 0.8674 0.2254 0.0694
C4_4 C 0.89605(14) 0.22840(18) 0.10395(14)
C5_4 C 0.91998(12) 0.17697(18) 0.08002(12)
H2_4 H 0.9280 0.1595 0.0720
C6_4 C 0.88317(16) 0.2568(2) 0.11683(16)
O47_4 O 0.8517(4) 0.3517(4) 0.0930(6)
O48_4 O 0.96912(9) 0.18687(8) 0.14347(8)
O49_4 O 0.96915(8) 0.15137(9) 0.10798(8)
N3_4 N 0.87518(12) 0.29264(12) 0.14507(13)
C7_4 C 0.95913(11) 0.17485(12) 0.11995(12)
N4_4 N 0.89385(12) 0.27017(12) 0.14086(14)
C8_4 C 0.93317(11) 0.18976(11) 0.10498(11)
C9_4 C 0.92133(13) 0.21607(13) 0.11638(12)
H3_4 H 0.9306 0.2254 0.1326
Cu6_4 Cu 0.87714(3) 0.17617(3) 0.32383(3)
O50_4 O 0.96912(9) 0.14347(8) 0.18687(8)
O51_4 O 0.96915(8) 0.10798(8) 0.15137(9)
O52_8 O 1.0000 0.20279(13) 0.20279(13)
N5_4 N 0.87518(12) 0.14507(13) 0.29264(12)
C10_4 C 0.95913(11) 0.11995(12) 0.17485(12)
N6_4 N 0.89385(12) 0.14086(14) 0.27017(12)
O53_8 O 1.0000 0.09252(14) 0.09252(14)
O54_4 O 0.83481(17) 0.16519(17) 0.33481(17)
C11_4 C 0.93317(11) 0.10498(11) 0.18976(11)
O55_4 O 0.9061(4) 0.1999(4) 0.3001(4)
C12_4 C 0.92133(13) 0.11638(12) 0.21607(13)
H4_4 H 0.9306 0.1326 0.2254
C13_4 C 0.89605(14) 0.10395(14) 0.22840(18)
C14_4 C 0.91998(12) 0.08002(12) 0.17697(18)
H5_4 H 0.9280 0.0720 0.1595
C15_4 C 0.88317(16) 0.11683(16) 0.2568(2)
O56_4 O 0.9070(6) 0.1483(4) 0.3517(4)
O57_4 O 0.85653(8) 0.03088(9) 0.18687(8)
O58_4 O 0.89202(8) 0.03085(8) 0.15137(9)
N7_4 N 0.85493(13) 0.12482(12) 0.29264(12)
C16_4 C 0.88005(12) 0.04087(11) 0.17485(12)
N8_4 N 0.85914(14) 0.10615(12) 0.27017(12)
C17_4 C 0.89502(11) 0.06683(11) 0.18976(11)
C18_4 C 0.88362(12) 0.07867(13) 0.21607(13)
H6_4 H 0.8674 0.0694 0.2254
Cu9_4 Cu 0.67617(3) 0.12286(3) 0.17617(3)
O59_4 O 0.81313(8) 0.03088(9) 0.14347(8)
O60_4 O 0.84863(9) 0.03085(8) 0.10798(8)
O61_7 O 0.79721(13) 0.0000 0.20279(13)
N9_4 N 0.70736(12) 0.12482(12) 0.14507(13)
C19_4 C 0.82515(12) 0.04087(11) 0.11995(12)
N10_4 N 0.72983(12) 0.10615(12) 0.14086(14)
O62_7 O 0.90748(14) 0.0000 0.09252(14)
C20_4 C 0.81024(11) 0.06683(11) 0.10498(11)
O63_4 O 0.6999(4) 0.0939(4) 0.1999(4)
C21_4 C 0.78393(13) 0.07867(13) 0.11638(12)
H7_4 H 0.7746 0.0694 0.1326
C22_4 C 0.77160(18) 0.10395(14) 0.10395(14)
C23_4 C 0.82303(18) 0.08002(12) 0.08002(12)
H8_4 H 0.8405 0.0720 0.0720
C24_4 C 0.7432(2) 0.11683(16) 0.11683(16)
O64_4 O 0.6483(4) 0.0930(6) 0.1483(4)
O65_4 O 0.81313(8) 0.14347(8) 0.03088(9)
O66_4 O 0.84863(9) 0.10798(8) 0.03085(8)
N11_4 N 0.70736(12) 0.14507(13) 0.12482(12)
C25_4 C 0.82515(12) 0.11995(12) 0.04087(11)
N12_4 N 0.72983(12) 0.14086(14) 0.10615(12)
C26_4 C 0.81024(11) 0.10498(11) 0.06683(11)
C27_4 C 0.78393(13) 0.11638(12) 0.07867(13)
H9_4 H 0.7746 0.1326 0.0694
Cu19_4 Cu 0.82383(3) 0.17617(3) 0.37714(3)
Cu20_4 Cu 0.87714(3) 0.32383(3) 0.17617(3)
Cu22_4 Cu 0.82383(3) 0.12286(3) 0.32383(3)
Cu24_4 Cu 0.67617(3) 0.17617(3) 0.12286(3)
Cu25_4 Cu 0.82383(3) 0.37714(3) 0.17617(3)
N26_4 N 0.87518(12) 0.20736(12) 0.35493(13)
N28_4 N 0.64507(13) 0.12482(12) 0.20736(12)
N30_4 N 0.79264(12) 0.35493(13) 0.12482(12)
O91_4 O 0.66519(17) 0.16519(17) 0.16519(17)
Cu1_8 Cu 0.831617(17) 0.168383(17) 1.0000
Cu2_8 Cu 0.873531(17) 0.126469(17) 1.0000
O43_8 O 0.79721(13) 0.20279(13) 1.0000
O44_8 O 0.90748(14) 0.09252(14) 1.0000
Cu10_4 Cu 0.67617(3) 0.17617(3) 0.87714(3)
O67_4 O 0.81313(8) 0.14347(8) 0.96912(9)
O68_4 O 0.84863(9) 0.10798(8) 0.96915(8)
N13_4 N 0.70736(12) 0.14507(13) 0.87518(12)
C28_4 C 0.82515(12) 0.11995(12) 0.95913(11)
N14_4 N 0.72983(12) 0.14086(14) 0.89385(12)
C29_4 C 0.81024(11) 0.10498(11) 0.93317(11)
O69_4 O 0.6999(4) 0.1999(4) 0.9061(4)
C30_4 C 0.78393(13) 0.11638(12) 0.92133(13)
H10_4 H 0.7746 0.1326 0.9306
C31_4 C 0.77160(18) 0.10395(14) 0.89605(14)
C32_4 C 0.82303(18) 0.08002(12) 0.91998(12)
H11_4 H 0.8405 0.0720 0.9280
C33_4 C 0.7432(2) 0.11683(16) 0.88317(16)
O70_4 O 0.6483(4) 0.1483(4) 0.9070(6)
N15_4 N 0.70736(12) 0.12482(12) 0.85493(13)
C34_4 C 0.82515(12) 0.04087(11) 0.88005(12)
N16_4 N 0.72983(12) 0.10615(12) 0.85914(14)
C35_4 C 0.81024(11) 0.06683(11) 0.89502(11)
C36_4 C 0.78393(13) 0.07867(13) 0.88362(12)
H12_4 H 0.7746 0.0694 0.8674
Cu12_4 Cu 0.87714(3) 0.32383(3) 0.82383(3)
N21_4 N 0.87518(12) 0.29264(12) 0.85493(13)
C46_4 C 0.95913(11) 0.17485(12) 0.88005(12)
N22_4 N 0.89385(12) 0.27017(12) 0.85914(14)
C47_4 C 0.93317(11) 0.18976(11) 0.89502(11)
O81_4 O 0.9061(4) 0.3001(4) 0.8001(4)
C48_4 C 0.92133(13) 0.21607(13) 0.88362(12)
H16_4 H 0.9306 0.2254 0.8674
C49_4 C 0.89605(14) 0.22840(18) 0.89605(14)
C50_4 C 0.91998(12) 0.17697(18) 0.91998(12)
H17_4 H 0.9280 0.1595 0.9280
C51_4 C 0.88317(16) 0.2568(2) 0.88317(16)
O82_4 O 0.9070(6) 0.3517(4) 0.8517(4)
O83_4 O 0.85653(8) 0.18687(8) 0.96912(9)
O84_4 O 0.89202(8) 0.15137(9) 0.96915(8)
N23_4 N 0.85493(13) 0.29264(12) 0.87518(12)
C52_4 C 0.88005(12) 0.17485(12) 0.95913(11)
N24_4 N 0.85914(14) 0.27017(12) 0.89385(12)
C53_4 C 0.89502(11) 0.18976(11) 0.93317(11)
C54_4 C 0.88362(12) 0.21607(13) 0.92133(13)
H18_4 H 0.8674 0.2254 0.9306
Cu23_4 Cu 0.67617(3) 0.12286(3) 0.82383(3)
Cu26_4 Cu 0.82383(3) 0.32383(3) 0.87714(3)
N25_4 N 0.87518(12) 0.35493(13) 0.79264(12)
N29_4 N 0.64507(13) 0.20736(12) 0.87518(12)
O92_4 O 0.66519(17) 0.16519(17) 0.83481(17)
O94_4 O 0.83481(17) 0.33481(17) 0.83481(17)
O61_8 O 0.79721(13) 1.0000 0.20279(13)
O62_8 O 0.90748(14) 1.0000 0.09252(14)
Cu19_5 Cu 0.62286(3) 0.17617(3) 0.17617(3)
Cu25_5 Cu 0.37714(3) 0.82383(3) 0.17617(3)
Cu25_6 Cu 0.62286(3) 0.82383(3) 0.82383(3)
Cu19_6 Cu 0.37714(3) 0.17617(3) 0.82383(3)
Cu19_7 Cu 0.82383(3) 0.82383(3) 0.37714(3)
Cu25_7 Cu 0.62286(3) 0.82383(3) 0.17617(3)
Cu19_8 Cu 0.17617(3) 0.17617(3) 0.37714(3)
Cu25_8 Cu 0.37714(3) 0.17617(3) 0.17617(3)
Cu19_9 Cu 0.17617(3) 0.82383(3) 0.62286(3)
Cu25_9 Cu 0.37714(3) 0.82383(3) 0.82383(3)
Cu19_10 Cu 0.82383(3) 0.17617(3) 0.62286(3)
Cu25_10 Cu 0.62286(3) 0.17617(3) 0.82383(3)
Cu19_11 Cu 0.82383(3) 0.37714(3) 0.82383(3)
Cu25_11 Cu 0.17617(3) 0.62286(3) 0.82383(3)
Cu25_12 Cu 0.17617(3) 0.37714(3) 0.17617(3)
Cu19_12 Cu 0.82383(3) 0.62286(3) 0.17617(3)
Cu1_9 Cu 0.168383(17) 0.668383(17) 0.5000
Cu2_9 Cu 0.126469(17) 0.626469(17) 0.5000
O41_5 O 0.14347(8) 0.68687(8) 0.46912(9)
O42_5 O 0.10798(8) 0.65137(9) 0.46915(8)
O43_9 O 0.20279(13) 0.70279(13) 0.5000
N1_5 N 0.14507(13) 0.79264(12) 0.37518(12)
C1_5 C 0.11995(12) 0.67485(12) 0.45913(11)
N2_5 N 0.14086(14) 0.77017(12) 0.39385(12)
O44_9 O 0.09252(14) 0.59252(14) 0.5000
C2_5 C 0.10498(11) 0.68976(11) 0.43317(11)
O46_5 O 0.1999(4) 0.8001(4) 0.4061(4)
C3_5 C 0.11638(12) 0.71607(13) 0.42133(13)
H1_5 H 0.1326 0.7254 0.4306
C4_5 C 0.10395(14) 0.72840(18) 0.39605(14)
C5_5 C 0.08002(12) 0.67697(18) 0.41998(12)
H2_5 H 0.0720 0.6595 0.4280
C6_5 C 0.11683(16) 0.7568(2) 0.38317(16)
O47_5 O 0.1483(4) 0.8517(4) 0.4070(6)
O48_5 O 0.03088(9) 0.68687(8) 0.35653(8)
O49_5 O 0.03085(8) 0.65137(9) 0.39202(8)
C7_5 C 0.04087(11) 0.67485(12) 0.38005(12)
N4_5 N 0.10615(12) 0.77017(12) 0.35914(14)
C8_5 C 0.06683(11) 0.68976(11) 0.39502(11)
C9_5 C 0.07867(13) 0.71607(13) 0.38362(12)
H3_5 H 0.0694 0.7254 0.3674
Cu4_5 Cu -0.0000 0.668383(17) 0.331617(17)
Cu5_5 Cu -0.0000 0.626469(17) 0.373531(17)
O50_5 O 0.03088(9) 0.64347(8) 0.31313(8)
O51_5 O 0.03085(8) 0.60798(8) 0.34863(9)
O52_9 O -0.0000 0.70279(13) 0.29721(13)
N5_5 N 0.12482(12) 0.64507(13) 0.20736(12)
C10_5 C 0.04087(11) 0.61995(12) 0.32515(12)
N6_5 N 0.10615(12) 0.64086(14) 0.22983(12)
O53_9 O -0.0000 0.59252(14) 0.40748(14)
C11_5 C 0.06683(11) 0.60498(11) 0.31024(11)
O55_5 O 0.0939(4) 0.6999(4) 0.1999(4)
C12_5 C 0.07867(13) 0.61638(12) 0.28393(13)
H4_5 H 0.0694 0.6326 0.2746
C13_5 C 0.10395(14) 0.60395(14) 0.27160(18)
C14_5 C 0.08002(12) 0.58002(12) 0.32303(18)
H5_5 H 0.0720 0.5720 0.3405
C15_5 C 0.11683(16) 0.61683(16) 0.2432(2)
O56_5 O 0.0930(6) 0.6483(4) 0.1483(4)
O57_5 O 0.14347(8) 0.53088(9) 0.31313(8)
O58_5 O 0.10798(8) 0.53085(8) 0.34863(9)
N7_5 N 0.14507(13) 0.62482(12) 0.20736(12)
C16_5 C 0.11995(12) 0.54087(11) 0.32515(12)
N8_5 N 0.14086(14) 0.60615(12) 0.22983(12)
C17_5 C 0.10498(11) 0.56683(11) 0.31024(11)
C18_5 C 0.11638(12) 0.57867(13) 0.28393(13)
H6_5 H 0.1326 0.5694 0.2746
Cu7_3 Cu 0.168383(17) 0.5000 0.331617(17)
Cu8_3 Cu 0.126469(17) 0.5000 0.373531(17)
Cu9_5 Cu 0.32383(3) 0.62286(3) 0.32383(3)
O59_5 O 0.18687(8) 0.53088(9) 0.35653(8)
O60_5 O 0.15137(9) 0.53085(8) 0.39202(8)
O61_9 O 0.20279(13) 0.5000 0.29721(13)
N9_5 N 0.29264(12) 0.62482(12) 0.35493(13)
C19_5 C 0.17485(12) 0.54087(11) 0.38005(12)
N10_5 N 0.27017(12) 0.60615(12) 0.35914(14)
O62_9 O 0.09252(14) 0.5000 0.40748(14)
C20_5 C 0.18976(11) 0.56683(11) 0.39502(11)
O63_5 O 0.3001(4) 0.5939(4) 0.3001(4)
C21_5 C 0.21607(13) 0.57867(13) 0.38362(12)
H7_5 H 0.2254 0.5694 0.3674
C22_5 C 0.22840(18) 0.60395(14) 0.39605(14)
C23_5 C 0.17697(18) 0.58002(12) 0.41998(12)
H8_5 H 0.1595 0.5720 0.4280
C24_5 C 0.2568(2) 0.61683(16) 0.38317(16)
O64_5 O 0.3517(4) 0.5930(6) 0.3517(4)
O65_5 O 0.18687(8) 0.64347(8) 0.46912(9)
O66_5 O 0.15137(9) 0.60798(8) 0.46915(8)
N11_5 N 0.29264(12) 0.64507(13) 0.37518(12)
C25_5 C 0.17485(12) 0.61995(12) 0.45913(11)
N12_5 N 0.27017(12) 0.64086(14) 0.39385(12)
C26_5 C 0.18976(11) 0.60498(11) 0.43317(11)
C27_5 C 0.21607(13) 0.61638(12) 0.42133(13)
H9_5 H 0.2254 0.6326 0.4306
Cu10_5 Cu 0.32383(3) 0.67617(3) 0.62286(3)
O67_5 O 0.18687(8) 0.64347(8) 0.53088(9)
O68_5 O 0.15137(9) 0.60798(8) 0.53085(8)
N13_5 N 0.29264(12) 0.64507(13) 0.62482(12)
C28_5 C 0.17485(12) 0.61995(12) 0.54087(11)
N14_5 N 0.27017(12) 0.64086(14) 0.60615(12)
C29_5 C 0.18976(11) 0.60498(11) 0.56683(11)
O69_5 O 0.3001(4) 0.6999(4) 0.5939(4)
C30_5 C 0.21607(13) 0.61638(12) 0.57867(13)
H10_5 H 0.2254 0.6326 0.5694
C31_5 C 0.22840(18) 0.60395(14) 0.60395(14)
C32_5 C 0.17697(18) 0.58002(12) 0.58002(12)
H11_5 H 0.1595 0.5720 0.5720
C33_5 C 0.2568(2) 0.61683(16) 0.61683(16)
O70_5 O 0.3517(4) 0.6483(4) 0.5930(6)
O71_3 O 0.18687(8) 0.53088(9) 0.64347(8)
O72_3 O 0.15137(9) 0.53085(8) 0.60798(8)
N15_5 N 0.29264(12) 0.62482(12) 0.64507(13)
C34_5 C 0.17485(12) 0.54087(11) 0.61995(12)
N16_5 N 0.27017(12) 0.60615(12) 0.64086(14)
C35_5 C 0.18976(11) 0.56683(11) 0.60498(11)
C36_5 C 0.21607(13) 0.57867(13) 0.61638(12)
H12_5 H 0.2254 0.5694 0.6326
O79_3 O 0.03088(9) 0.68687(8) 0.64347(8)
O80_3 O 0.03085(8) 0.65137(9) 0.60798(8)
N21_5 N 0.12482(12) 0.79264(12) 0.64507(13)
C46_5 C 0.04087(11) 0.67485(12) 0.61995(12)
N22_5 N 0.10615(12) 0.77017(12) 0.64086(14)
C47_5 C 0.06683(11) 0.68976(11) 0.60498(11)
O81_5 O 0.0939(4) 0.8001(4) 0.6999(4)
C48_5 C 0.07867(13) 0.71607(13) 0.61638(12)
H16_5 H 0.0694 0.7254 0.6326
C49_5 C 0.10395(14) 0.72840(18) 0.60395(14)
C50_5 C 0.08002(12) 0.67697(18) 0.58002(12)
H17_5 H 0.0720 0.6595 0.5720
C51_5 C 0.11683(16) 0.7568(2) 0.61683(16)
O82_5 O 0.0930(6) 0.8517(4) 0.6483(4)
O83_5 O 0.14347(8) 0.68687(8) 0.53088(9)
O84_5 O 0.10798(8) 0.65137(9) 0.53085(8)
N23_5 N 0.14507(13) 0.79264(12) 0.62482(12)
C52_5 C 0.11995(12) 0.67485(12) 0.54087(11)
N24_5 N 0.14086(14) 0.77017(12) 0.60615(12)
C53_5 C 0.10498(11) 0.68976(11) 0.56683(11)
C54_5 C 0.11638(12) 0.71607(13) 0.57867(13)
H18_5 H 0.1326 0.7254 0.5694
Cu13_5 Cu -0.0000 0.668383(17) 0.668383(17)
Cu14_5 Cu 0.168383(17) 0.5000 0.668383(17)
Cu16_5 Cu 0.0000 0.626469(17) 0.626469(17)
Cu17_5 Cu 0.126469(17) 0.5000 0.626469(17)
Cu23_5 Cu 0.32383(3) 0.62286(3) 0.67617(3)
Cu24_5 Cu 0.32383(3) 0.67617(3) 0.37714(3)
O85_3 O 0.14347(8) 0.46912(9) 0.31313(8)
O87_3 O 0.18687(8) 0.46912(9) 0.35653(8)
O88_3 O 0.10798(8) 0.46915(8) 0.34863(9)
O90_3 O 0.15137(9) 0.46915(8) 0.39202(8)
N28_5 N 0.35493(13) 0.62482(12) 0.29264(12)
N29_5 N 0.35493(13) 0.70736(12) 0.62482(12)
N30_5 N 0.20736(12) 0.85493(13) 0.37518(12)
O91_5 O 0.33481(17) 0.66519(17) 0.33481(17)
O92_5 O 0.33481(17) 0.66519(17) 0.66519(17)
Cu4_6 Cu 1.0000 0.668383(17) 0.331617(17)
Cu5_6 Cu 1.0000 0.626469(17) 0.373531(17)
O52_10 O 1.0000 0.70279(13) 0.29721(13)
O53_10 O 1.0000 0.59252(14) 0.40748(14)
O73_3 O 0.85653(8) 0.53088(9) 0.31313(8)
O74_3 O 0.89202(8) 0.53085(8) 0.34863(9)
N17_5 N 0.85493(13) 0.62482(12) 0.20736(12)
C37_5 C 0.88005(12) 0.54087(11) 0.32515(12)
N18_5 N 0.85914(14) 0.60615(12) 0.22983(12)
C38_5 C 0.89502(11) 0.56683(11) 0.31024(11)
O75_5 O 0.8001(4) 0.5939(4) 0.1999(4)
C39_5 C 0.88362(12) 0.57867(13) 0.28393(13)
H13_5 H 0.8674 0.5694 0.2746
C40_5 C 0.89605(14) 0.60395(14) 0.27160(18)
C41_5 C 0.91998(12) 0.58002(12) 0.32303(18)
H14_5 H 0.9280 0.5720 0.3405
C42_5 C 0.88317(16) 0.61683(16) 0.2432(2)
O76_5 O 0.8517(4) 0.5930(6) 0.1483(4)
O77_5 O 0.96912(9) 0.64347(8) 0.31313(8)
O78_5 O 0.96915(8) 0.60798(8) 0.34863(9)
C43_5 C 0.95913(11) 0.61995(12) 0.32515(12)
N20_5 N 0.89385(12) 0.64086(14) 0.22983(12)
C44_5 C 0.93317(11) 0.60498(11) 0.31024(11)
C45_5 C 0.92133(13) 0.61638(12) 0.28393(13)
H15_5 H 0.9306 0.6326 0.2746
Cu13_6 Cu 1.0000 0.668383(17) 0.668383(17)
Cu15_3 Cu 0.831617(17) 0.5000 0.331617(17)
Cu16_6 Cu 1.0000 0.626469(17) 0.626469(17)
Cu18_3 Cu 0.873531(17) 0.5000 0.373531(17)
O86_3 O 0.96912(9) 0.68687(8) 0.35653(8)
O89_3 O 0.96915(8) 0.65137(9) 0.39202(8)
N27_5 N 0.79264(12) 0.62482(12) 0.14507(13)
Cu4_7 Cu -0.0000 0.331617(17) 0.331617(17)
Cu5_7 Cu 0.0000 0.373531(17) 0.373531(17)
O52_11 O -0.0000 0.29721(13) 0.29721(13)
O53_11 O 0.0000 0.40748(14) 0.40748(14)
N17_6 N 0.14507(13) 0.37518(12) 0.20736(12)
C37_6 C 0.11995(12) 0.45913(11) 0.32515(12)
N18_6 N 0.14086(14) 0.39385(12) 0.22983(12)
C38_6 C 0.10498(11) 0.43317(11) 0.31024(11)
O75_6 O 0.1999(4) 0.4061(4) 0.1999(4)
C39_6 C 0.11638(12) 0.42133(13) 0.28393(13)
H13_6 H 0.1326 0.4306 0.2746
C40_6 C 0.10395(14) 0.39605(14) 0.27160(18)
C41_6 C 0.08002(12) 0.41998(12) 0.32303(18)
H14_6 H 0.0720 0.4280 0.3405
C42_6 C 0.11683(16) 0.38317(16) 0.2432(2)
O76_6 O 0.1483(4) 0.4070(6) 0.1483(4)
O77_6 O 0.03088(9) 0.35653(8) 0.31313(8)
O78_6 O 0.03085(8) 0.39202(8) 0.34863(9)
C43_6 C 0.04087(11) 0.38005(12) 0.32515(12)
N20_6 N 0.10615(12) 0.35914(14) 0.22983(12)
C44_6 C 0.06683(11) 0.39502(11) 0.31024(11)
C45_6 C 0.07867(13) 0.38362(12) 0.28393(13)
H15_6 H 0.0694 0.3674 0.2746
Cu13_7 Cu -0.0000 0.331617(17) 0.668383(17)
Cu16_7 Cu -0.0000 0.373531(17) 0.626469(17)
O86_4 O 0.03088(9) 0.31313(8) 0.35653(8)
O89_4 O 0.03085(8) 0.34863(9) 0.39202(8)
N27_6 N 0.20736(12) 0.37518(12) 0.14507(13)
Cu1_10 Cu 0.831617(17) 0.331617(17) 0.5000
Cu2_10 Cu 0.873531(17) 0.373531(17) 0.5000
O41_6 O 0.85653(8) 0.31313(8) 0.46912(9)
O42_6 O 0.89202(8) 0.34863(9) 0.46915(8)
O43_10 O 0.79721(13) 0.29721(13) 0.5000
N1_6 N 0.85493(13) 0.20736(12) 0.37518(12)
C1_6 C 0.88005(12) 0.32515(12) 0.45913(11)
N2_6 N 0.85914(14) 0.22983(12) 0.39385(12)
O44_10 O 0.90748(14) 0.40748(14) 0.5000
C2_6 C 0.89502(11) 0.31024(11) 0.43317(11)
O46_6 O 0.8001(4) 0.1999(4) 0.4061(4)
C3_6 C 0.88362(12) 0.28393(13) 0.42133(13)
H1_6 H 0.8674 0.2746 0.4306
C4_6 C 0.89605(14) 0.27160(18) 0.39605(14)
C5_6 C 0.91998(12) 0.32303(18) 0.41998(12)
H2_6 H 0.9280 0.3405 0.4280
C6_6 C 0.88317(16) 0.2432(2) 0.38317(16)
O47_6 O 0.8517(4) 0.1483(4) 0.4070(6)
O48_6 O 0.96912(9) 0.31313(8) 0.35653(8)
O49_6 O 0.96915(8) 0.34863(9) 0.39202(8)
C7_6 C 0.95913(11) 0.32515(12) 0.38005(12)
N4_6 N 0.89385(12) 0.22983(12) 0.35914(14)
C8_6 C 0.93317(11) 0.31024(11) 0.39502(11)
C9_6 C 0.92133(13) 0.28393(13) 0.38362(12)
H3_6 H 0.9306 0.2746 0.3674
Cu4_8 Cu 1.0000 0.331617(17) 0.331617(17)
Cu5_8 Cu 1.0000 0.373531(17) 0.373531(17)
O50_6 O 0.96912(9) 0.35653(8) 0.31313(8)
O51_6 O 0.96915(8) 0.39202(8) 0.34863(9)
O52_12 O 1.0000 0.29721(13) 0.29721(13)
N5_6 N 0.87518(12) 0.35493(13) 0.20736(12)
C10_6 C 0.95913(11) 0.38005(12) 0.32515(12)
N6_6 N 0.89385(12) 0.35914(14) 0.22983(12)
O53_12 O 1.0000 0.40748(14) 0.40748(14)
C11_6 C 0.93317(11) 0.39502(11) 0.31024(11)
O55_6 O 0.9061(4) 0.3001(4) 0.1999(4)
C12_6 C 0.92133(13) 0.38362(12) 0.28393(13)
H4_6 H 0.9306 0.3674 0.2746
C13_6 C 0.89605(14) 0.39605(14) 0.27160(18)
C14_6 C 0.91998(12) 0.41998(12) 0.32303(18)
H5_6 H 0.9280 0.4280 0.3405
C15_6 C 0.88317(16) 0.38317(16) 0.2432(2)
O56_6 O 0.9070(6) 0.3517(4) 0.1483(4)
O57_6 O 0.85653(8) 0.46912(9) 0.31313(8)
O58_6 O 0.89202(8) 0.46915(8) 0.34863(9)
N7_6 N 0.85493(13) 0.37518(12) 0.20736(12)
C16_6 C 0.88005(12) 0.45913(11) 0.32515(12)
N8_6 N 0.85914(14) 0.39385(12) 0.22983(12)
C17_6 C 0.89502(11) 0.43317(11) 0.31024(11)
C18_6 C 0.88362(12) 0.42133(13) 0.28393(13)
H6_6 H 0.8674 0.4306 0.2746
Cu9_6 Cu 0.67617(3) 0.37714(3) 0.32383(3)
O59_6 O 0.81313(8) 0.46912(9) 0.35653(8)
O60_6 O 0.84863(9) 0.46915(8) 0.39202(8)
O61_10 O 0.79721(13) 0.5000 0.29721(13)
N9_6 N 0.70736(12) 0.37518(12) 0.35493(13)
C19_6 C 0.82515(12) 0.45913(11) 0.38005(12)
N10_6 N 0.72983(12) 0.39385(12) 0.35914(14)
O62_10 O 0.90748(14) 0.5000 0.40748(14)
C20_6 C 0.81024(11) 0.43317(11) 0.39502(11)
O63_6 O 0.6999(4) 0.4061(4) 0.3001(4)
C21_6 C 0.78393(13) 0.42133(13) 0.38362(12)
H7_6 H 0.7746 0.4306 0.3674
C22_6 C 0.77160(18) 0.39605(14) 0.39605(14)
C23_6 C 0.82303(18) 0.41998(12) 0.41998(12)
H8_6 H 0.8405 0.4280 0.4280
C24_6 C 0.7432(2) 0.38317(16) 0.38317(16)
O64_6 O 0.6483(4) 0.4070(6) 0.3517(4)
O65_6 O 0.81313(8) 0.35653(8) 0.46912(9)
O66_6 O 0.84863(9) 0.39202(8) 0.46915(8)
N11_6 N 0.70736(12) 0.35493(13) 0.37518(12)
C25_6 C 0.82515(12) 0.38005(12) 0.45913(11)
N12_6 N 0.72983(12) 0.35914(14) 0.39385(12)
C26_6 C 0.81024(11) 0.39502(11) 0.43317(11)
C27_6 C 0.78393(13) 0.38362(12) 0.42133(13)
H9_6 H 0.7746 0.3674 0.4306
Cu10_6 Cu 0.67617(3) 0.32383(3) 0.62286(3)
O67_6 O 0.81313(8) 0.35653(8) 0.53088(9)
O68_6 O 0.84863(9) 0.39202(8) 0.53085(8)
N13_6 N 0.70736(12) 0.35493(13) 0.62482(12)
C28_6 C 0.82515(12) 0.38005(12) 0.54087(11)
N14_6 N 0.72983(12) 0.35914(14) 0.60615(12)
C29_6 C 0.81024(11) 0.39502(11) 0.56683(11)
O69_6 O 0.6999(4) 0.3001(4) 0.5939(4)
C30_6 C 0.78393(13) 0.38362(12) 0.57867(13)
H10_6 H 0.7746 0.3674 0.5694
C31_6 C 0.77160(18) 0.39605(14) 0.60395(14)
C32_6 C 0.82303(18) 0.41998(12) 0.58002(12)
H11_6 H 0.8405 0.4280 0.5720
C33_6 C 0.7432(2) 0.38317(16) 0.61683(16)
O70_6 O 0.6483(4) 0.3517(4) 0.5930(6)
O71_4 O 0.81313(8) 0.46912(9) 0.64347(8)
O72_4 O 0.84863(9) 0.46915(8) 0.60798(8)
N15_6 N 0.70736(12) 0.37518(12) 0.64507(13)
C34_6 C 0.82515(12) 0.45913(11) 0.61995(12)
N16_6 N 0.72983(12) 0.39385(12) 0.64086(14)
C35_6 C 0.81024(11) 0.43317(11) 0.60498(11)
C36_6 C 0.78393(13) 0.42133(13) 0.61638(12)
H12_6 H 0.7746 0.4306 0.6326
O79_4 O 0.96912(9) 0.31313(8) 0.64347(8)
O80_4 O 0.96915(8) 0.34863(9) 0.60798(8)
N21_6 N 0.87518(12) 0.20736(12) 0.64507(13)
C46_6 C 0.95913(11) 0.32515(12) 0.61995(12)
N22_6 N 0.89385(12) 0.22983(12) 0.64086(14)
C47_6 C 0.93317(11) 0.31024(11) 0.60498(11)
O81_6 O 0.9061(4) 0.1999(4) 0.6999(4)
C48_6 C 0.92133(13) 0.28393(13) 0.61638(12)
H16_6 H 0.9306 0.2746 0.6326
C49_6 C 0.89605(14) 0.27160(18) 0.60395(14)
C50_6 C 0.91998(12) 0.32303(18) 0.58002(12)
H17_6 H 0.9280 0.3405 0.5720
C51_6 C 0.88317(16) 0.2432(2) 0.61683(16)
O82_6 O 0.9070(6) 0.1483(4) 0.6483(4)
O83_6 O 0.85653(8) 0.31313(8) 0.53088(9)
O84_6 O 0.89202(8) 0.34863(9) 0.53085(8)
N23_6 N 0.85493(13) 0.20736(12) 0.62482(12)
C52_6 C 0.88005(12) 0.32515(12) 0.54087(11)
N24_6 N 0.85914(14) 0.22983(12) 0.60615(12)
C53_6 C 0.89502(11) 0.31024(11) 0.56683(11)
C54_6 C 0.88362(12) 0.28393(13) 0.57867(13)
H18_6 H 0.8674 0.2746 0.5694
Cu13_8 Cu 1.0000 0.331617(17) 0.668383(17)
Cu14_6 Cu 0.831617(17) 0.5000 0.668383(17)
Cu16_8 Cu 1.0000 0.373531(17) 0.626469(17)
Cu17_6 Cu 0.873531(17) 0.5000 0.626469(17)
Cu23_6 Cu 0.67617(3) 0.37714(3) 0.67617(3)
Cu24_6 Cu 0.67617(3) 0.32383(3) 0.37714(3)
O87_4 O 0.81313(8) 0.53088(9) 0.35653(8)
O90_4 O 0.84863(9) 0.53085(8) 0.39202(8)
N28_6 N 0.64507(13) 0.37518(12) 0.29264(12)
N29_6 N 0.64507(13) 0.29264(12) 0.62482(12)
N30_6 N 0.79264(12) 0.14507(13) 0.37518(12)
O91_6 O 0.66519(17) 0.33481(17) 0.33481(17)
O92_6 O 0.66519(17) 0.33481(17) 0.66519(17)
Cu1_11 Cu 0.168383(17) 0.331617(17) 0.5000
Cu2_11 Cu 0.126469(17) 0.373531(17) 0.5000
O41_7 O 0.14347(8) 0.31313(8) 0.53088(9)
O42_7 O 0.10798(8) 0.34863(9) 0.53085(8)
O43_11 O 0.20279(13) 0.29721(13) 0.5000
N1_7 N 0.14507(13) 0.20736(12) 0.62482(12)
C1_7 C 0.11995(12) 0.32515(12) 0.54087(11)
N2_7 N 0.14086(14) 0.22983(12) 0.60615(12)
O44_11 O 0.09252(14) 0.40748(14) 0.5000
C2_7 C 0.10498(11) 0.31024(11) 0.56683(11)
O46_7 O 0.1999(4) 0.1999(4) 0.5939(4)
C3_7 C 0.11638(12) 0.28393(13) 0.57867(13)
H1_7 H 0.1326 0.2746 0.5694
C4_7 C 0.10395(14) 0.27160(18) 0.60395(14)
C5_7 C 0.08002(12) 0.32303(18) 0.58002(12)
H2_7 H 0.0720 0.3405 0.5720
C6_7 C 0.11683(16) 0.2432(2) 0.61683(16)
O47_7 O 0.1483(4) 0.1483(4) 0.5930(6)
O48_7 O 0.03088(9) 0.31313(8) 0.64347(8)
O49_7 O 0.03085(8) 0.34863(9) 0.60798(8)
C7_7 C 0.04087(11) 0.32515(12) 0.61995(12)
N4_7 N 0.10615(12) 0.22983(12) 0.64086(14)
C8_7 C 0.06683(11) 0.31024(11) 0.60498(11)
C9_7 C 0.07867(13) 0.28393(13) 0.61638(12)
H3_7 H 0.0694 0.2746 0.6326
O50_7 O 0.03088(9) 0.35653(8) 0.68687(8)
O51_7 O 0.03085(8) 0.39202(8) 0.65137(9)
O52_13 O 0.0000 0.29721(13) 0.70279(13)
N5_7 N 0.12482(12) 0.35493(13) 0.79264(12)
C10_7 C 0.04087(11) 0.38005(12) 0.67485(12)
N6_7 N 0.10615(12) 0.35914(14) 0.77017(12)
O53_13 O 0.0000 0.40748(14) 0.59252(14)
C11_7 C 0.06683(11) 0.39502(11) 0.68976(11)
O55_7 O 0.0939(4) 0.3001(4) 0.8001(4)
C12_7 C 0.07867(13) 0.38362(12) 0.71607(13)
H4_7 H 0.0694 0.3674 0.7254
C13_7 C 0.10395(14) 0.39605(14) 0.72840(18)
C14_7 C 0.08002(12) 0.41998(12) 0.67697(18)
H5_7 H 0.0720 0.4280 0.6595
C15_7 C 0.11683(16) 0.38317(16) 0.7568(2)
O56_7 O 0.0930(6) 0.3517(4) 0.8517(4)
O57_7 O 0.14347(8) 0.46912(9) 0.68687(8)
O58_7 O 0.10798(8) 0.46915(8) 0.65137(9)
N7_7 N 0.14507(13) 0.37518(12) 0.79264(12)
C16_7 C 0.11995(12) 0.45913(11) 0.67485(12)
N8_7 N 0.14086(14) 0.39385(12) 0.77017(12)
C17_7 C 0.10498(11) 0.43317(11) 0.68976(11)
C18_7 C 0.11638(12) 0.42133(13) 0.71607(13)
H6_7 H 0.1326 0.4306 0.7254
Cu9_7 Cu 0.32383(3) 0.37714(3) 0.67617(3)
O59_7 O 0.18687(8) 0.46912(9) 0.64347(8)
O60_7 O 0.15137(9) 0.46915(8) 0.60798(8)
O61_11 O 0.20279(13) 0.5000 0.70279(13)
N9_7 N 0.29264(12) 0.37518(12) 0.64507(13)
C19_7 C 0.17485(12) 0.45913(11) 0.61995(12)
N10_7 N 0.27017(12) 0.39385(12) 0.64086(14)
O62_11 O 0.09252(14) 0.5000 0.59252(14)
C20_7 C 0.18976(11) 0.43317(11) 0.60498(11)
O63_7 O 0.3001(4) 0.4061(4) 0.6999(4)
C21_7 C 0.21607(13) 0.42133(13) 0.61638(12)
H7_7 H 0.2254 0.4306 0.6326
C22_7 C 0.22840(18) 0.39605(14) 0.60395(14)
C23_7 C 0.17697(18) 0.41998(12) 0.58002(12)
H8_7 H 0.1595 0.4280 0.5720
C24_7 C 0.2568(2) 0.38317(16) 0.61683(16)
O64_7 O 0.3517(4) 0.4070(6) 0.6483(4)
O65_7 O 0.18687(8) 0.35653(8) 0.53088(9)
O66_7 O 0.15137(9) 0.39202(8) 0.53085(8)
N11_7 N 0.29264(12) 0.35493(13) 0.62482(12)
C25_7 C 0.17485(12) 0.38005(12) 0.54087(11)
N12_7 N 0.27017(12) 0.35914(14) 0.60615(12)
C26_7 C 0.18976(11) 0.39502(11) 0.56683(11)
C27_7 C 0.21607(13) 0.38362(12) 0.57867(13)
H9_7 H 0.2254 0.3674 0.5694
Cu10_7 Cu 0.32383(3) 0.32383(3) 0.37714(3)
O67_7 O 0.18687(8) 0.35653(8) 0.46912(9)
O68_7 O 0.15137(9) 0.39202(8) 0.46915(8)
N13_7 N 0.29264(12) 0.35493(13) 0.37518(12)
C28_7 C 0.17485(12) 0.38005(12) 0.45913(11)
N14_7 N 0.27017(12) 0.35914(14) 0.39385(12)
C29_7 C 0.18976(11) 0.39502(11) 0.43317(11)
O69_7 O 0.3001(4) 0.3001(4) 0.4061(4)
C30_7 C 0.21607(13) 0.38362(12) 0.42133(13)
H10_7 H 0.2254 0.3674 0.4306
C31_7 C 0.22840(18) 0.39605(14) 0.39605(14)
C32_7 C 0.17697(18) 0.41998(12) 0.41998(12)
H11_7 H 0.1595 0.4280 0.4280
C33_7 C 0.2568(2) 0.38317(16) 0.38317(16)
O70_7 O 0.3517(4) 0.3517(4) 0.4070(6)
N15_7 N 0.29264(12) 0.37518(12) 0.35493(13)
C34_7 C 0.17485(12) 0.45913(11) 0.38005(12)
N16_7 N 0.27017(12) 0.39385(12) 0.35914(14)
C35_7 C 0.18976(11) 0.43317(11) 0.39502(11)
C36_7 C 0.21607(13) 0.42133(13) 0.38362(12)
H12_7 H 0.2254 0.4306 0.3674
N21_7 N 0.12482(12) 0.20736(12) 0.35493(13)
C46_7 C 0.04087(11) 0.32515(12) 0.38005(12)
N22_7 N 0.10615(12) 0.22983(12) 0.35914(14)
C47_7 C 0.06683(11) 0.31024(11) 0.39502(11)
O81_7 O 0.0939(4) 0.1999(4) 0.3001(4)
C48_7 C 0.07867(13) 0.28393(13) 0.38362(12)
H16_7 H 0.0694 0.2746 0.3674
C49_7 C 0.10395(14) 0.27160(18) 0.39605(14)
C50_7 C 0.08002(12) 0.32303(18) 0.41998(12)
H17_7 H 0.0720 0.3405 0.4280
C51_7 C 0.11683(16) 0.2432(2) 0.38317(16)
O82_7 O 0.0930(6) 0.1483(4) 0.3517(4)
O83_7 O 0.14347(8) 0.31313(8) 0.46912(9)
O84_7 O 0.10798(8) 0.34863(9) 0.46915(8)
N23_7 N 0.14507(13) 0.20736(12) 0.37518(12)
C52_7 C 0.11995(12) 0.32515(12) 0.45913(11)
N24_7 N 0.14086(14) 0.22983(12) 0.39385(12)
C53_7 C 0.10498(11) 0.31024(11) 0.43317(11)
C54_7 C 0.11638(12) 0.28393(13) 0.42133(13)
H18_7 H 0.1326 0.2746 0.4306
Cu23_7 Cu 0.32383(3) 0.37714(3) 0.32383(3)
Cu24_7 Cu 0.32383(3) 0.32383(3) 0.62286(3)
O85_4 O 0.14347(8) 0.53088(9) 0.68687(8)
O88_4 O 0.10798(8) 0.53085(8) 0.65137(9)
N28_7 N 0.35493(13) 0.37518(12) 0.70736(12)
N29_7 N 0.35493(13) 0.29264(12) 0.37518(12)
N30_7 N 0.20736(12) 0.14507(13) 0.62482(12)
O91_7 O 0.33481(17) 0.33481(17) 0.66519(17)
O92_7 O 0.33481(17) 0.33481(17) 0.33481(17)
O52_14 O 1.0000 0.29721(13) 0.70279(13)
O53_14 O 1.0000 0.40748(14) 0.59252(14)
O73_4 O 0.85653(8) 0.46912(9) 0.68687(8)
O74_4 O 0.89202(8) 0.46915(8) 0.65137(9)
N17_7 N 0.85493(13) 0.37518(12) 0.79264(12)
C37_7 C 0.88005(12) 0.45913(11) 0.67485(12)
N18_7 N 0.85914(14) 0.39385(12) 0.77017(12)
C38_7 C 0.89502(11) 0.43317(11) 0.68976(11)
O75_7 O 0.8001(4) 0.4061(4) 0.8001(4)
C39_7 C 0.88362(12) 0.42133(13) 0.71607(13)
H13_7 H 0.8674 0.4306 0.7254
C40_7 C 0.89605(14) 0.39605(14) 0.72840(18)
C41_7 C 0.91998(12) 0.41998(12) 0.67697(18)
H14_7 H 0.9280 0.4280 0.6595
C42_7 C 0.88317(16) 0.38317(16) 0.7568(2)
O76_7 O 0.8517(4) 0.4070(6) 0.8517(4)
O77_7 O 0.96912(9) 0.35653(8) 0.68687(8)
O78_7 O 0.96915(8) 0.39202(8) 0.65137(9)
C43_7 C 0.95913(11) 0.38005(12) 0.67485(12)
N20_7 N 0.89385(12) 0.35914(14) 0.77017(12)
C44_7 C 0.93317(11) 0.39502(11) 0.68976(11)
C45_7 C 0.92133(13) 0.38362(12) 0.71607(13)
H15_7 H 0.9306 0.3674 0.7254
N27_7 N 0.79264(12) 0.37518(12) 0.85493(13)
O52_15 O -0.0000 0.70279(13) 0.70279(13)
O53_15 O -0.0000 0.59252(14) 0.59252(14)
N17_8 N 0.14507(13) 0.62482(12) 0.79264(12)
C37_8 C 0.11995(12) 0.54087(11) 0.67485(12)
N18_8 N 0.14086(14) 0.60615(12) 0.77017(12)
C38_8 C 0.10498(11) 0.56683(11) 0.68976(11)
O75_8 O 0.1999(4) 0.5939(4) 0.8001(4)
C39_8 C 0.11638(12) 0.57867(13) 0.71607(13)
H13_8 H 0.1326 0.5694 0.7254
C40_8 C 0.10395(14) 0.60395(14) 0.72840(18)
C41_8 C 0.08002(12) 0.58002(12) 0.67697(18)
H14_8 H 0.0720 0.5720 0.6595
C42_8 C 0.11683(16) 0.61683(16) 0.7568(2)
O76_8 O 0.1483(4) 0.5930(6) 0.8517(4)
O77_8 O 0.03088(9) 0.64347(8) 0.68687(8)
O78_8 O 0.03085(8) 0.60798(8) 0.65137(9)
C43_8 C 0.04087(11) 0.61995(12) 0.67485(12)
N20_8 N 0.10615(12) 0.64086(14) 0.77017(12)
C44_8 C 0.06683(11) 0.60498(11) 0.68976(11)
C45_8 C 0.07867(13) 0.61638(12) 0.71607(13)
H15_8 H 0.0694 0.6326 0.7254
N27_8 N 0.20736(12) 0.62482(12) 0.85493(13)
Cu1_12 Cu 0.831617(17) 0.668383(17) 0.5000
Cu2_12 Cu 0.873531(17) 0.626469(17) 0.5000
O41_8 O 0.85653(8) 0.68687(8) 0.53088(9)
O42_8 O 0.89202(8) 0.65137(9) 0.53085(8)
O43_12 O 0.79721(13) 0.70279(13) 0.5000
N1_8 N 0.85493(13) 0.79264(12) 0.62482(12)
C1_8 C 0.88005(12) 0.67485(12) 0.54087(11)
N2_8 N 0.85914(14) 0.77017(12) 0.60615(12)
O44_12 O 0.90748(14) 0.59252(14) 0.5000
C2_8 C 0.89502(11) 0.68976(11) 0.56683(11)
O46_8 O 0.8001(4) 0.8001(4) 0.5939(4)
C3_8 C 0.88362(12) 0.71607(13) 0.57867(13)
H1_8 H 0.8674 0.7254 0.5694
C4_8 C 0.89605(14) 0.72840(18) 0.60395(14)
C5_8 C 0.91998(12) 0.67697(18) 0.58002(12)
H2_8 H 0.9280 0.6595 0.5720
C6_8 C 0.88317(16) 0.7568(2) 0.61683(16)
O47_8 O 0.8517(4) 0.8517(4) 0.5930(6)
O48_8 O 0.96912(9) 0.68687(8) 0.64347(8)
O49_8 O 0.96915(8) 0.65137(9) 0.60798(8)
C7_8 C 0.95913(11) 0.67485(12) 0.61995(12)
N4_8 N 0.89385(12) 0.77017(12) 0.64086(14)
C8_8 C 0.93317(11) 0.68976(11) 0.60498(11)
C9_8 C 0.92133(13) 0.71607(13) 0.61638(12)
H3_8 H 0.9306 0.7254 0.6326
O50_8 O 0.96912(9) 0.64347(8) 0.68687(8)
O51_8 O 0.96915(8) 0.60798(8) 0.65137(9)
O52_16 O 1.0000 0.70279(13) 0.70279(13)
N5_8 N 0.87518(12) 0.64507(13) 0.79264(12)
C10_8 C 0.95913(11) 0.61995(12) 0.67485(12)
N6_8 N 0.89385(12) 0.64086(14) 0.77017(12)
O53_16 O 1.0000 0.59252(14) 0.59252(14)
C11_8 C 0.93317(11) 0.60498(11) 0.68976(11)
O55_8 O 0.9061(4) 0.6999(4) 0.8001(4)
C12_8 C 0.92133(13) 0.61638(12) 0.71607(13)
H4_8 H 0.9306 0.6326 0.7254
C13_8 C 0.89605(14) 0.60395(14) 0.72840(18)
C14_8 C 0.91998(12) 0.58002(12) 0.67697(18)
H5_8 H 0.9280 0.5720 0.6595
C15_8 C 0.88317(16) 0.61683(16) 0.7568(2)
O56_8 O 0.9070(6) 0.6483(4) 0.8517(4)
O57_8 O 0.85653(8) 0.53088(9) 0.68687(8)
O58_8 O 0.89202(8) 0.53085(8) 0.65137(9)
N7_8 N 0.85493(13) 0.62482(12) 0.79264(12)
C16_8 C 0.88005(12) 0.54087(11) 0.67485(12)
N8_8 N 0.85914(14) 0.60615(12) 0.77017(12)
C17_8 C 0.89502(11) 0.56683(11) 0.68976(11)
C18_8 C 0.88362(12) 0.57867(13) 0.71607(13)
H6_8 H 0.8674 0.5694 0.7254
Cu9_8 Cu 0.67617(3) 0.62286(3) 0.67617(3)
O59_8 O 0.81313(8) 0.53088(9) 0.64347(8)
O60_8 O 0.84863(9) 0.53085(8) 0.60798(8)
O61_12 O 0.79721(13) 0.5000 0.70279(13)
N9_8 N 0.70736(12) 0.62482(12) 0.64507(13)
C19_8 C 0.82515(12) 0.54087(11) 0.61995(12)
N10_8 N 0.72983(12) 0.60615(12) 0.64086(14)
O62_12 O 0.90748(14) 0.5000 0.59252(14)
C20_8 C 0.81024(11) 0.56683(11) 0.60498(11)
O63_8 O 0.6999(4) 0.5939(4) 0.6999(4)
C21_8 C 0.78393(13) 0.57867(13) 0.61638(12)
H7_8 H 0.7746 0.5694 0.6326
C22_8 C 0.77160(18) 0.60395(14) 0.60395(14)
C23_8 C 0.82303(18) 0.58002(12) 0.58002(12)
H8_8 H 0.8405 0.5720 0.5720
C24_8 C 0.7432(2) 0.61683(16) 0.61683(16)
O64_8 O 0.6483(4) 0.5930(6) 0.6483(4)
O65_8 O 0.81313(8) 0.64347(8) 0.53088(9)
O66_8 O 0.84863(9) 0.60798(8) 0.53085(8)
N11_8 N 0.70736(12) 0.64507(13) 0.62482(12)
C25_8 C 0.82515(12) 0.61995(12) 0.54087(11)
N12_8 N 0.72983(12) 0.64086(14) 0.60615(12)
C26_8 C 0.81024(11) 0.60498(11) 0.56683(11)
C27_8 C 0.78393(13) 0.61638(12) 0.57867(13)
H9_8 H 0.7746 0.6326 0.5694
Cu10_8 Cu 0.67617(3) 0.67617(3) 0.37714(3)
O67_8 O 0.81313(8) 0.64347(8) 0.46912(9)
O68_8 O 0.84863(9) 0.60798(8) 0.46915(8)
N13_8 N 0.70736(12) 0.64507(13) 0.37518(12)
C28_8 C 0.82515(12) 0.61995(12) 0.45913(11)
N14_8 N 0.72983(12) 0.64086(14) 0.39385(12)
C29_8 C 0.81024(11) 0.60498(11) 0.43317(11)
O69_8 O 0.6999(4) 0.6999(4) 0.4061(4)
C30_8 C 0.78393(13) 0.61638(12) 0.42133(13)
H10_8 H 0.7746 0.6326 0.4306
C31_8 C 0.77160(18) 0.60395(14) 0.39605(14)
C32_8 C 0.82303(18) 0.58002(12) 0.41998(12)
H11_8 H 0.8405 0.5720 0.4280
C33_8 C 0.7432(2) 0.61683(16) 0.38317(16)
O70_8 O 0.6483(4) 0.6483(4) 0.4070(6)
N15_8 N 0.70736(12) 0.62482(12) 0.35493(13)
C34_8 C 0.82515(12) 0.54087(11) 0.38005(12)
N16_8 N 0.72983(12) 0.60615(12) 0.35914(14)
C35_8 C 0.81024(11) 0.56683(11) 0.39502(11)
C36_8 C 0.78393(13) 0.57867(13) 0.38362(12)
H12_8 H 0.7746 0.5694 0.3674
N21_8 N 0.87518(12) 0.79264(12) 0.35493(13)
C46_8 C 0.95913(11) 0.67485(12) 0.38005(12)
N22_8 N 0.89385(12) 0.77017(12) 0.35914(14)
C47_8 C 0.93317(11) 0.68976(11) 0.39502(11)
O81_8 O 0.9061(4) 0.8001(4) 0.3001(4)
C48_8 C 0.92133(13) 0.71607(13) 0.38362(12)
H16_8 H 0.9306 0.7254 0.3674
C49_8 C 0.89605(14) 0.72840(18) 0.39605(14)
C50_8 C 0.91998(12) 0.67697(18) 0.41998(12)
H17_8 H 0.9280 0.6595 0.4280
C51_8 C 0.88317(16) 0.7568(2) 0.38317(16)
O82_8 O 0.9070(6) 0.8517(4) 0.3517(4)
O83_8 O 0.85653(8) 0.68687(8) 0.46912(9)
O84_8 O 0.89202(8) 0.65137(9) 0.46915(8)
N23_8 N 0.85493(13) 0.79264(12) 0.37518(12)
C52_8 C 0.88005(12) 0.67485(12) 0.45913(11)
N24_8 N 0.85914(14) 0.77017(12) 0.39385(12)
C53_8 C 0.89502(11) 0.68976(11) 0.43317(11)
C54_8 C 0.88362(12) 0.71607(13) 0.42133(13)
H18_8 H 0.8674 0.7254 0.4306
Cu23_8 Cu 0.67617(3) 0.62286(3) 0.32383(3)
Cu24_8 Cu 0.67617(3) 0.67617(3) 0.62286(3)
N28_8 N 0.64507(13) 0.62482(12) 0.70736(12)
N29_8 N 0.64507(13) 0.70736(12) 0.37518(12)
N30_8 N 0.79264(12) 0.85493(13) 0.62482(12)
O91_8 O 0.66519(17) 0.66519(17) 0.66519(17)
O92_8 O 0.66519(17) 0.66519(17) 0.33481(17)
Cu19_13 Cu 0.62286(3) 0.67617(3) 0.67617(3)
Cu25_13 Cu 0.37714(3) 0.32383(3) 0.67617(3)
Cu25_14 Cu 0.62286(3) 0.32383(3) 0.32383(3)
Cu19_14 Cu 0.37714(3) 0.67617(3) 0.32383(3)
Cu25_15 Cu 0.62286(3) 0.32383(3) 0.67617(3)
Cu25_16 Cu 0.37714(3) 0.67617(3) 0.67617(3)
Cu25_17 Cu 0.37714(3) 0.32383(3) 0.32383(3)
Cu25_18 Cu 0.62286(3) 0.67617(3) 0.32383(3)
Cu1_13 Cu 0.668383(17) 0.168383(17) 0.5000
Cu2_13 Cu 0.626469(17) 0.126469(17) 0.5000
O41_9 O 0.64347(8) 0.18687(8) 0.46912(9)
O42_9 O 0.60798(8) 0.15137(9) 0.46915(8)
O43_13 O 0.70279(13) 0.20279(13) 0.5000
N1_9 N 0.64507(13) 0.29264(12) 0.37518(12)
C1_9 C 0.61995(12) 0.17485(12) 0.45913(11)
N2_9 N 0.64086(14) 0.27017(12) 0.39385(12)
O44_13 O 0.59252(14) 0.09252(14) 0.5000
C2_9 C 0.60498(11) 0.18976(11) 0.43317(11)
O46_9 O 0.6999(4) 0.3001(4) 0.4061(4)
C3_9 C 0.61638(12) 0.21607(13) 0.42133(13)
H1_9 H 0.6326 0.2254 0.4306
C4_9 C 0.60395(14) 0.22840(18) 0.39605(14)
C5_9 C 0.58002(12) 0.17697(18) 0.41998(12)
H2_9 H 0.5720 0.1595 0.4280
C6_9 C 0.61683(16) 0.2568(2) 0.38317(16)
O47_9 O 0.6483(4) 0.3517(4) 0.4070(6)
O48_9 O 0.53088(9) 0.18687(8) 0.35653(8)
O49_9 O 0.53085(8) 0.15137(9) 0.39202(8)
N3_5 N 0.62482(12) 0.29264(12) 0.35493(13)
C7_9 C 0.54087(11) 0.17485(12) 0.38005(12)
N4_9 N 0.60615(12) 0.27017(12) 0.35914(14)
C8_9 C 0.56683(11) 0.18976(11) 0.39502(11)
C9_9 C 0.57867(13) 0.21607(13) 0.38362(12)
H3_9 H 0.5694 0.2254 0.3674
Cu4_9 Cu 0.5000 0.168383(17) 0.331617(17)
Cu5_9 Cu 0.5000 0.126469(17) 0.373531(17)
O50_9 O 0.53088(9) 0.14347(8) 0.31313(8)
O51_9 O 0.53085(8) 0.10798(8) 0.34863(9)
O52_17 O 0.5000 0.20279(13) 0.29721(13)
N5_9 N 0.62482(12) 0.14507(13) 0.20736(12)
C10_9 C 0.54087(11) 0.11995(12) 0.32515(12)
N6_9 N 0.60615(12) 0.14086(14) 0.22983(12)
O53_17 O 0.5000 0.09252(14) 0.40748(14)
C11_9 C 0.56683(11) 0.10498(11) 0.31024(11)
O55_9 O 0.5939(4) 0.1999(4) 0.1999(4)
C12_9 C 0.57867(13) 0.11638(12) 0.28393(13)
H4_9 H 0.5694 0.1326 0.2746
C13_9 C 0.60395(14) 0.10395(14) 0.27160(18)
C14_9 C 0.58002(12) 0.08002(12) 0.32303(18)
H5_9 H 0.5720 0.0720 0.3405
C15_9 C 0.61683(16) 0.11683(16) 0.2432(2)
O56_9 O 0.5930(6) 0.1483(4) 0.1483(4)
O57_9 O 0.64347(8) 0.03088(9) 0.31313(8)
O58_9 O 0.60798(8) 0.03085(8) 0.34863(9)
C16_9 C 0.61995(12) 0.04087(11) 0.32515(12)
N8_9 N 0.64086(14) 0.10615(12) 0.22983(12)
C17_9 C 0.60498(11) 0.06683(11) 0.31024(11)
C18_9 C 0.61638(12) 0.07867(13) 0.28393(13)
H6_9 H 0.6326 0.0694 0.2746
Cu7_4 Cu 0.668383(17) -0.0000 0.331617(17)
Cu8_4 Cu 0.626469(17) 0.0000 0.373531(17)
O59_9 O 0.68687(8) 0.03088(9) 0.35653(8)
O60_9 O 0.65137(9) 0.03085(8) 0.39202(8)
O61_13 O 0.70279(13) 0.0000 0.29721(13)
N9_9 N 0.79264(12) 0.12482(12) 0.35493(13)
C19_9 C 0.67485(12) 0.04087(11) 0.38005(12)
N10_9 N 0.77017(12) 0.10615(12) 0.35914(14)
O62_13 O 0.59252(14) 0.0000 0.40748(14)
C20_9 C 0.68976(11) 0.06683(11) 0.39502(11)
O63_9 O 0.8001(4) 0.0939(4) 0.3001(4)
C21_9 C 0.71607(13) 0.07867(13) 0.38362(12)
H7_9 H 0.7254 0.0694 0.3674
C22_9 C 0.72840(18) 0.10395(14) 0.39605(14)
C23_9 C 0.67697(18) 0.08002(12) 0.41998(12)
H8_9 H 0.6595 0.0720 0.4280
C24_9 C 0.7568(2) 0.11683(16) 0.38317(16)
O64_9 O 0.8517(4) 0.0930(6) 0.3517(4)
O65_9 O 0.68687(8) 0.14347(8) 0.46912(9)
O66_9 O 0.65137(9) 0.10798(8) 0.46915(8)
C25_9 C 0.67485(12) 0.11995(12) 0.45913(11)
N12_9 N 0.77017(12) 0.14086(14) 0.39385(12)
C26_9 C 0.68976(11) 0.10498(11) 0.43317(11)
C27_9 C 0.71607(13) 0.11638(12) 0.42133(13)
H9_9 H 0.7254 0.1326 0.4306
O67_9 O 0.68687(8) 0.14347(8) 0.53088(9)
O68_9 O 0.65137(9) 0.10798(8) 0.53085(8)
N13_9 N 0.79264(12) 0.14507(13) 0.62482(12)
C28_9 C 0.67485(12) 0.11995(12) 0.54087(11)
N14_9 N 0.77017(12) 0.14086(14) 0.60615(12)
C29_9 C 0.68976(11) 0.10498(11) 0.56683(11)
O69_9 O 0.8001(4) 0.1999(4) 0.5939(4)
C30_9 C 0.71607(13) 0.11638(12) 0.57867(13)
H10_9 H 0.7254 0.1326 0.5694
C31_9 C 0.72840(18) 0.10395(14) 0.60395(14)
C32_9 C 0.67697(18) 0.08002(12) 0.58002(12)
H11_9 H 0.6595 0.0720 0.5720
C33_9 C 0.7568(2) 0.11683(16) 0.61683(16)
O70_9 O 0.8517(4) 0.1483(4) 0.5930(6)
O71_5 O 0.68687(8) 0.03088(9) 0.64347(8)
O72_5 O 0.65137(9) 0.03085(8) 0.60798(8)
C34_9 C 0.67485(12) 0.04087(11) 0.61995(12)
N16_9 N 0.77017(12) 0.10615(12) 0.64086(14)
C35_9 C 0.68976(11) 0.06683(11) 0.60498(11)
C36_9 C 0.71607(13) 0.07867(13) 0.61638(12)
H12_9 H 0.7254 0.0694 0.6326
O73_5 O 0.35653(8) 0.03088(9) 0.31313(8)
O74_5 O 0.39202(8) 0.03085(8) 0.34863(9)
N17_9 N 0.35493(13) 0.12482(12) 0.20736(12)
C37_9 C 0.38005(12) 0.04087(11) 0.32515(12)
N18_9 N 0.35914(14) 0.10615(12) 0.22983(12)
C38_9 C 0.39502(11) 0.06683(11) 0.31024(11)
O75_9 O 0.3001(4) 0.0939(4) 0.1999(4)
C39_9 C 0.38362(12) 0.07867(13) 0.28393(13)
H13_9 H 0.3674 0.0694 0.2746
C40_9 C 0.39605(14) 0.10395(14) 0.27160(18)
C41_9 C 0.41998(12) 0.08002(12) 0.32303(18)
H14_9 H 0.4280 0.0720 0.3405
C42_9 C 0.38317(16) 0.11683(16) 0.2432(2)
O76_9 O 0.3517(4) 0.0930(6) 0.1483(4)
O77_9 O 0.46912(9) 0.14347(8) 0.31313(8)
O78_9 O 0.46915(8) 0.10798(8) 0.34863(9)
N19_5 N 0.37518(12) 0.14507(13) 0.20736(12)
C43_9 C 0.45913(11) 0.11995(12) 0.32515(12)
N20_9 N 0.39385(12) 0.14086(14) 0.22983(12)
C44_9 C 0.43317(11) 0.10498(11) 0.31024(11)
C45_9 C 0.42133(13) 0.11638(12) 0.28393(13)
H15_9 H 0.4306 0.1326 0.2746
O79_5 O 0.53088(9) 0.18687(8) 0.64347(8)
O80_5 O 0.53085(8) 0.15137(9) 0.60798(8)
N21_9 N 0.62482(12) 0.29264(12) 0.64507(13)
C46_9 C 0.54087(11) 0.17485(12) 0.61995(12)
N22_9 N 0.60615(12) 0.27017(12) 0.64086(14)
C47_9 C 0.56683(11) 0.18976(11) 0.60498(11)
O81_9 O 0.5939(4) 0.3001(4) 0.6999(4)
C48_9 C 0.57867(13) 0.21607(13) 0.61638(12)
H16_9 H 0.5694 0.2254 0.6326
C49_9 C 0.60395(14) 0.22840(18) 0.60395(14)
C50_9 C 0.58002(12) 0.17697(18) 0.58002(12)
H17_9 H 0.5720 0.1595 0.5720
C51_9 C 0.61683(16) 0.2568(2) 0.61683(16)
O82_9 O 0.5930(6) 0.3517(4) 0.6483(4)
O83_9 O 0.64347(8) 0.18687(8) 0.53088(9)
O84_9 O 0.60798(8) 0.15137(9) 0.53085(8)
C52_9 C 0.61995(12) 0.17485(12) 0.54087(11)
N24_9 N 0.64086(14) 0.27017(12) 0.60615(12)
C53_9 C 0.60498(11) 0.18976(11) 0.56683(11)
C54_9 C 0.61638(12) 0.21607(13) 0.57867(13)
H18_9 H 0.6326 0.2254 0.5694
Cu13_9 Cu 0.5000 0.168383(17) 0.668383(17)
Cu14_7 Cu 0.668383(17) -0.0000 0.668383(17)
Cu15_4 Cu 0.331617(17) -0.0000 0.331617(17)
Cu16_9 Cu 0.5000 0.126469(17) 0.626469(17)
Cu17_7 Cu 0.626469(17) 0.0000 0.626469(17)
Cu18_4 Cu 0.373531(17) 0.0000 0.373531(17)
O86_5 O 0.46912(9) 0.18687(8) 0.35653(8)
O89_5 O 0.46915(8) 0.15137(9) 0.39202(8)
N25_5 N 0.62482(12) 0.35493(13) 0.70736(12)
N26_5 N 0.62482(12) 0.20736(12) 0.14507(13)
Cu7_5 Cu 0.668383(17) 1.0000 0.331617(17)
Cu8_5 Cu 0.626469(17) 1.0000 0.373531(17)
O61_14 O 0.70279(13) 1.0000 0.29721(13)
O62_14 O 0.59252(14) 1.0000 0.40748(14)
Cu14_8 Cu 0.668383(17) 1.0000 0.668383(17)
Cu15_5 Cu 0.331617(17) 1.0000 0.331617(17)
Cu17_8 Cu 0.626469(17) 1.0000 0.626469(17)
Cu18_5 Cu 0.373531(17) 1.0000 0.373531(17)
O85_5 O 0.64347(8) 0.96912(9) 0.31313(8)
O87_5 O 0.68687(8) 0.96912(9) 0.35653(8)
O88_5 O 0.60798(8) 0.96915(8) 0.34863(9)
O90_5 O 0.65137(9) 0.96915(8) 0.39202(8)
O61_15 O 0.29721(13) -0.0000 0.29721(13)
O62_15 O 0.40748(14) 0.0000 0.40748(14)
Cu14_9 Cu 0.331617(17) -0.0000 0.668383(17)
Cu17_9 Cu 0.373531(17) 0.0000 0.626469(17)
O87_6 O 0.31313(8) 0.03088(9) 0.35653(8)
O90_6 O 0.34863(9) 0.03085(8) 0.39202(8)
Cu1_14 Cu 0.331617(17) 0.831617(17) 0.5000
Cu2_14 Cu 0.373531(17) 0.873531(17) 0.5000
O41_10 O 0.35653(8) 0.81313(8) 0.46912(9)
O42_10 O 0.39202(8) 0.84863(9) 0.46915(8)
O43_14 O 0.29721(13) 0.79721(13) 0.5000
N1_10 N 0.35493(13) 0.70736(12) 0.37518(12)
C1_10 C 0.38005(12) 0.82515(12) 0.45913(11)
N2_10 N 0.35914(14) 0.72983(12) 0.39385(12)
O44_14 O 0.40748(14) 0.90748(14) 0.5000
C2_10 C 0.39502(11) 0.81024(11) 0.43317(11)
O46_10 O 0.3001(4) 0.6999(4) 0.4061(4)
C3_10 C 0.38362(12) 0.78393(13) 0.42133(13)
H1_10 H 0.3674 0.7746 0.4306
C4_10 C 0.39605(14) 0.77160(18) 0.39605(14)
C5_10 C 0.41998(12) 0.82303(18) 0.41998(12)
H2_10 H 0.4280 0.8405 0.4280
C6_10 C 0.38317(16) 0.7432(2) 0.38317(16)
O47_10 O 0.3517(4) 0.6483(4) 0.4070(6)
O48_10 O 0.46912(9) 0.81313(8) 0.35653(8)
O49_10 O 0.46915(8) 0.84863(9) 0.39202(8)
N3_6 N 0.37518(12) 0.70736(12) 0.35493(13)
C7_10 C 0.45913(11) 0.82515(12) 0.38005(12)
N4_10 N 0.39385(12) 0.72983(12) 0.35914(14)
C8_10 C 0.43317(11) 0.81024(11) 0.39502(11)
C9_10 C 0.42133(13) 0.78393(13) 0.38362(12)
H3_10 H 0.4306 0.7746 0.3674
Cu4_10 Cu 0.5000 0.831617(17) 0.331617(17)
Cu5_10 Cu 0.5000 0.873531(17) 0.373531(17)
O50_10 O 0.46912(9) 0.85653(8) 0.31313(8)
O51_10 O 0.46915(8) 0.89202(8) 0.34863(9)
O52_18 O 0.5000 0.79721(13) 0.29721(13)
N5_10 N 0.37518(12) 0.85493(13) 0.20736(12)
C10_10 C 0.45913(11) 0.88005(12) 0.32515(12)
N6_10 N 0.39385(12) 0.85914(14) 0.22983(12)
O53_18 O 0.5000 0.90748(14) 0.40748(14)
C11_10 C 0.43317(11) 0.89502(11) 0.31024(11)
O55_10 O 0.4061(4) 0.8001(4) 0.1999(4)
C12_10 C 0.42133(13) 0.88362(12) 0.28393(13)
H4_10 H 0.4306 0.8674 0.2746
C13_10 C 0.39605(14) 0.89605(14) 0.27160(18)
C14_10 C 0.41998(12) 0.91998(12) 0.32303(18)
H5_10 H 0.4280 0.9280 0.3405
C15_10 C 0.38317(16) 0.88317(16) 0.2432(2)
O56_10 O 0.4070(6) 0.8517(4) 0.1483(4)
O57_10 O 0.35653(8) 0.96912(9) 0.31313(8)
O58_10 O 0.39202(8) 0.96915(8) 0.34863(9)
C16_10 C 0.38005(12) 0.95913(11) 0.32515(12)
N8_10 N 0.35914(14) 0.89385(12) 0.22983(12)
C17_10 C 0.39502(11) 0.93317(11) 0.31024(11)
C18_10 C 0.38362(12) 0.92133(13) 0.28393(13)
H6_10 H 0.3674 0.9306 0.2746
O59_10 O 0.31313(8) 0.96912(9) 0.35653(8)
O60_10 O 0.34863(9) 0.96915(8) 0.39202(8)
O61_16 O 0.29721(13) 1.0000 0.29721(13)
N9_10 N 0.20736(12) 0.87518(12) 0.35493(13)
C19_10 C 0.32515(12) 0.95913(11) 0.38005(12)
N10_10 N 0.22983(12) 0.89385(12) 0.35914(14)
O62_16 O 0.40748(14) 1.0000 0.40748(14)
C20_10 C 0.31024(11) 0.93317(11) 0.39502(11)
O63_10 O 0.1999(4) 0.9061(4) 0.3001(4)
C21_10 C 0.28393(13) 0.92133(13) 0.38362(12)
H7_10 H 0.2746 0.9306 0.3674
C22_10 C 0.27160(18) 0.89605(14) 0.39605(14)
C23_10 C 0.32303(18) 0.91998(12) 0.41998(12)
H8_10 H 0.3405 0.9280 0.4280
C24_10 C 0.2432(2) 0.88317(16) 0.38317(16)
O64_10 O 0.1483(4) 0.9070(6) 0.3517(4)
O65_10 O 0.31313(8) 0.85653(8) 0.46912(9)
O66_10 O 0.34863(9) 0.89202(8) 0.46915(8)
C25_10 C 0.32515(12) 0.88005(12) 0.45913(11)
N12_10 N 0.22983(12) 0.85914(14) 0.39385(12)
C26_10 C 0.31024(11) 0.89502(11) 0.43317(11)
C27_10 C 0.28393(13) 0.88362(12) 0.42133(13)
H9_10 H 0.2746 0.8674 0.4306
O67_10 O 0.31313(8) 0.85653(8) 0.53088(9)
O68_10 O 0.34863(9) 0.89202(8) 0.53085(8)
N13_10 N 0.20736(12) 0.85493(13) 0.62482(12)
C28_10 C 0.32515(12) 0.88005(12) 0.54087(11)
N14_10 N 0.22983(12) 0.85914(14) 0.60615(12)
C29_10 C 0.31024(11) 0.89502(11) 0.56683(11)
O69_10 O 0.1999(4) 0.8001(4) 0.5939(4)
C30_10 C 0.28393(13) 0.88362(12) 0.57867(13)
H10_10 H 0.2746 0.8674 0.5694
C31_10 C 0.27160(18) 0.89605(14) 0.60395(14)
C32_10 C 0.32303(18) 0.91998(12) 0.58002(12)
H11_10 H 0.3405 0.9280 0.5720
C33_10 C 0.2432(2) 0.88317(16) 0.61683(16)
O70_10 O 0.1483(4) 0.8517(4) 0.5930(6)
O71_6 O 0.31313(8) 0.96912(9) 0.64347(8)
O72_6 O 0.34863(9) 0.96915(8) 0.60798(8)
C34_10 C 0.32515(12) 0.95913(11) 0.61995(12)
N16_10 N 0.22983(12) 0.89385(12) 0.64086(14)
C35_10 C 0.31024(11) 0.93317(11) 0.60498(11)
C36_10 C 0.28393(13) 0.92133(13) 0.61638(12)
H12_10 H 0.2746 0.9306 0.6326
N17_10 N 0.64507(13) 0.87518(12) 0.20736(12)
C37_10 C 0.61995(12) 0.95913(11) 0.32515(12)
N18_10 N 0.64086(14) 0.89385(12) 0.22983(12)
C38_10 C 0.60498(11) 0.93317(11) 0.31024(11)
O75_10 O 0.6999(4) 0.9061(4) 0.1999(4)
C39_10 C 0.61638(12) 0.92133(13) 0.28393(13)
H13_10 H 0.6326 0.9306 0.2746
C40_10 C 0.60395(14) 0.89605(14) 0.27160(18)
C41_10 C 0.58002(12) 0.91998(12) 0.32303(18)
H14_10 H 0.5720 0.9280 0.3405
C42_10 C 0.61683(16) 0.88317(16) 0.2432(2)
O76_10 O 0.6483(4) 0.9070(6) 0.1483(4)
O77_10 O 0.53088(9) 0.85653(8) 0.31313(8)
O78_10 O 0.53085(8) 0.89202(8) 0.34863(9)
N19_6 N 0.62482(12) 0.85493(13) 0.20736(12)
C43_10 C 0.54087(11) 0.88005(12) 0.32515(12)
N20_10 N 0.60615(12) 0.85914(14) 0.22983(12)
C44_10 C 0.56683(11) 0.89502(11) 0.31024(11)
C45_10 C 0.57867(13) 0.88362(12) 0.28393(13)
H15_10 H 0.5694 0.8674 0.2746
O79_6 O 0.46912(9) 0.81313(8) 0.64347(8)
O80_6 O 0.46915(8) 0.84863(9) 0.60798(8)
N21_10 N 0.37518(12) 0.70736(12) 0.64507(13)
C46_10 C 0.45913(11) 0.82515(12) 0.61995(12)
N22_10 N 0.39385(12) 0.72983(12) 0.64086(14)
C47_10 C 0.43317(11) 0.81024(11) 0.60498(11)
O81_10 O 0.4061(4) 0.6999(4) 0.6999(4)
C48_10 C 0.42133(13) 0.78393(13) 0.61638(12)
H16_10 H 0.4306 0.7746 0.6326
C49_10 C 0.39605(14) 0.77160(18) 0.60395(14)
C50_10 C 0.41998(12) 0.82303(18) 0.58002(12)
H17_10 H 0.4280 0.8405 0.5720
C51_10 C 0.38317(16) 0.7432(2) 0.61683(16)
O82_10 O 0.4070(6) 0.6483(4) 0.6483(4)
O83_10 O 0.35653(8) 0.81313(8) 0.53088(9)
O84_10 O 0.39202(8) 0.84863(9) 0.53085(8)
C52_10 C 0.38005(12) 0.82515(12) 0.54087(11)
N24_10 N 0.35914(14) 0.72983(12) 0.60615(12)
C53_10 C 0.39502(11) 0.81024(11) 0.56683(11)
C54_10 C 0.38362(12) 0.78393(13) 0.57867(13)
H18_10 H 0.3674 0.7746 0.5694
Cu13_10 Cu 0.5000 0.831617(17) 0.668383(17)
Cu14_10 Cu 0.331617(17) 1.0000 0.668383(17)
Cu16_10 Cu 0.5000 0.873531(17) 0.626469(17)
Cu17_10 Cu 0.373531(17) 1.0000 0.626469(17)
O86_6 O 0.53088(9) 0.81313(8) 0.35653(8)
O89_6 O 0.53085(8) 0.84863(9) 0.39202(8)
N25_6 N 0.37518(12) 0.64507(13) 0.70736(12)
N26_6 N 0.37518(12) 0.79264(12) 0.14507(13)
O61_17 O 0.70279(13) -0.0000 0.70279(13)
O62_17 O 0.59252(14) -0.0000 0.59252(14)
O85_6 O 0.64347(8) 0.03088(9) 0.68687(8)
O88_6 O 0.60798(8) 0.03085(8) 0.65137(9)
Cu1_15 Cu 0.668383(17) 0.831617(17) 0.5000
Cu2_15 Cu 0.626469(17) 0.873531(17) 0.5000
O41_11 O 0.64347(8) 0.81313(8) 0.53088(9)
O42_11 O 0.60798(8) 0.84863(9) 0.53085(8)
O43_15 O 0.70279(13) 0.79721(13) 0.5000
N1_11 N 0.64507(13) 0.70736(12) 0.62482(12)
C1_11 C 0.61995(12) 0.82515(12) 0.54087(11)
N2_11 N 0.64086(14) 0.72983(12) 0.60615(12)
O44_15 O 0.59252(14) 0.90748(14) 0.5000
C2_11 C 0.60498(11) 0.81024(11) 0.56683(11)
O46_11 O 0.6999(4) 0.6999(4) 0.5939(4)
C3_11 C 0.61638(12) 0.78393(13) 0.57867(13)
H1_11 H 0.6326 0.7746 0.5694
C4_11 C 0.60395(14) 0.77160(18) 0.60395(14)
C5_11 C 0.58002(12) 0.82303(18) 0.58002(12)
H2_11 H 0.5720 0.8405 0.5720
C6_11 C 0.61683(16) 0.7432(2) 0.61683(16)
O47_11 O 0.6483(4) 0.6483(4) 0.5930(6)
O48_11 O 0.53088(9) 0.81313(8) 0.64347(8)
O49_11 O 0.53085(8) 0.84863(9) 0.60798(8)
N3_7 N 0.62482(12) 0.70736(12) 0.64507(13)
C7_11 C 0.54087(11) 0.82515(12) 0.61995(12)
N4_11 N 0.60615(12) 0.72983(12) 0.64086(14)
C8_11 C 0.56683(11) 0.81024(11) 0.60498(11)
C9_11 C 0.57867(13) 0.78393(13) 0.61638(12)
H3_11 H 0.5694 0.7746 0.6326
O50_11 O 0.53088(9) 0.85653(8) 0.68687(8)
O51_11 O 0.53085(8) 0.89202(8) 0.65137(9)
O52_19 O 0.5000 0.79721(13) 0.70279(13)
N5_11 N 0.62482(12) 0.85493(13) 0.79264(12)
C10_11 C 0.54087(11) 0.88005(12) 0.67485(12)
N6_11 N 0.60615(12) 0.85914(14) 0.77017(12)
O53_19 O 0.5000 0.90748(14) 0.59252(14)
C11_11 C 0.56683(11) 0.89502(11) 0.68976(11)
O55_11 O 0.5939(4) 0.8001(4) 0.8001(4)
C12_11 C 0.57867(13) 0.88362(12) 0.71607(13)
H4_11 H 0.5694 0.8674 0.7254
C13_11 C 0.60395(14) 0.89605(14) 0.72840(18)
C14_11 C 0.58002(12) 0.91998(12) 0.67697(18)
H5_11 H 0.5720 0.9280 0.6595
C15_11 C 0.61683(16) 0.88317(16) 0.7568(2)
O56_11 O 0.5930(6) 0.8517(4) 0.8517(4)
O57_11 O 0.64347(8) 0.96912(9) 0.68687(8)
O58_11 O 0.60798(8) 0.96915(8) 0.65137(9)
C16_11 C 0.61995(12) 0.95913(11) 0.67485(12)
N8_11 N 0.64086(14) 0.89385(12) 0.77017(12)
C17_11 C 0.60498(11) 0.93317(11) 0.68976(11)
C18_11 C 0.61638(12) 0.92133(13) 0.71607(13)
H6_11 H 0.6326 0.9306 0.7254
O59_11 O 0.68687(8) 0.96912(9) 0.64347(8)
O60_11 O 0.65137(9) 0.96915(8) 0.60798(8)
O61_18 O 0.70279(13) 1.0000 0.70279(13)
N9_11 N 0.79264(12) 0.87518(12) 0.64507(13)
C19_11 C 0.67485(12) 0.95913(11) 0.61995(12)
N10_11 N 0.77017(12) 0.89385(12) 0.64086(14)
O62_18 O 0.59252(14) 1.0000 0.59252(14)
C20_11 C 0.68976(11) 0.93317(11) 0.60498(11)
O63_11 O 0.8001(4) 0.9061(4) 0.6999(4)
C21_11 C 0.71607(13) 0.92133(13) 0.61638(12)
H7_11 H 0.7254 0.9306 0.6326
C22_11 C 0.72840(18) 0.89605(14) 0.60395(14)
C23_11 C 0.67697(18) 0.91998(12) 0.58002(12)
H8_11 H 0.6595 0.9280 0.5720
C24_11 C 0.7568(2) 0.88317(16) 0.61683(16)
O64_11 O 0.8517(4) 0.9070(6) 0.6483(4)
O65_11 O 0.68687(8) 0.85653(8) 0.53088(9)
O66_11 O 0.65137(9) 0.89202(8) 0.53085(8)
C25_11 C 0.67485(12) 0.88005(12) 0.54087(11)
N12_11 N 0.77017(12) 0.85914(14) 0.60615(12)
C26_11 C 0.68976(11) 0.89502(11) 0.56683(11)
C27_11 C 0.71607(13) 0.88362(12) 0.57867(13)
H9_11 H 0.7254 0.8674 0.5694
O67_11 O 0.68687(8) 0.85653(8) 0.46912(9)
O68_11 O 0.65137(9) 0.89202(8) 0.46915(8)
N13_11 N 0.79264(12) 0.85493(13) 0.37518(12)
C28_11 C 0.67485(12) 0.88005(12) 0.45913(11)
N14_11 N 0.77017(12) 0.85914(14) 0.39385(12)
C29_11 C 0.68976(11) 0.89502(11) 0.43317(11)
O69_11 O 0.8001(4) 0.8001(4) 0.4061(4)
C30_11 C 0.71607(13) 0.88362(12) 0.42133(13)
H10_11 H 0.7254 0.8674 0.4306
C31_11 C 0.72840(18) 0.89605(14) 0.39605(14)
C32_11 C 0.67697(18) 0.91998(12) 0.41998(12)
H11_11 H 0.6595 0.9280 0.4280
C33_11 C 0.7568(2) 0.88317(16) 0.38317(16)
O70_11 O 0.8517(4) 0.8517(4) 0.4070(6)
C34_11 C 0.67485(12) 0.95913(11) 0.38005(12)
N16_11 N 0.77017(12) 0.89385(12) 0.35914(14)
C35_11 C 0.68976(11) 0.93317(11) 0.39502(11)
C36_11 C 0.71607(13) 0.92133(13) 0.38362(12)
H12_11 H 0.7254 0.9306 0.3674
O73_6 O 0.35653(8) 0.96912(9) 0.68687(8)
O74_6 O 0.39202(8) 0.96915(8) 0.65137(9)
N17_11 N 0.35493(13) 0.87518(12) 0.79264(12)
C37_11 C 0.38005(12) 0.95913(11) 0.67485(12)
N18_11 N 0.35914(14) 0.89385(12) 0.77017(12)
C38_11 C 0.39502(11) 0.93317(11) 0.68976(11)
O75_11 O 0.3001(4) 0.9061(4) 0.8001(4)
C39_11 C 0.38362(12) 0.92133(13) 0.71607(13)
H13_11 H 0.3674 0.9306 0.7254
C40_11 C 0.39605(14) 0.89605(14) 0.72840(18)
C41_11 C 0.41998(12) 0.91998(12) 0.67697(18)
H14_11 H 0.4280 0.9280 0.6595
C42_11 C 0.38317(16) 0.88317(16) 0.7568(2)
O76_11 O 0.3517(4) 0.9070(6) 0.8517(4)
O77_11 O 0.46912(9) 0.85653(8) 0.68687(8)
O78_11 O 0.46915(8) 0.89202(8) 0.65137(9)
N19_7 N 0.37518(12) 0.85493(13) 0.79264(12)
C43_11 C 0.45913(11) 0.88005(12) 0.67485(12)
N20_11 N 0.39385(12) 0.85914(14) 0.77017(12)
C44_11 C 0.43317(11) 0.89502(11) 0.68976(11)
C45_11 C 0.42133(13) 0.88362(12) 0.71607(13)
H15_11 H 0.4306 0.8674 0.7254
N21_11 N 0.62482(12) 0.70736(12) 0.35493(13)
C46_11 C 0.54087(11) 0.82515(12) 0.38005(12)
N22_11 N 0.60615(12) 0.72983(12) 0.35914(14)
C47_11 C 0.56683(11) 0.81024(11) 0.39502(11)
O81_11 O 0.5939(4) 0.6999(4) 0.3001(4)
C48_11 C 0.57867(13) 0.78393(13) 0.38362(12)
H16_11 H 0.5694 0.7746 0.3674
C49_11 C 0.60395(14) 0.77160(18) 0.39605(14)
C50_11 C 0.58002(12) 0.82303(18) 0.41998(12)
H17_11 H 0.5720 0.8405 0.4280
C51_11 C 0.61683(16) 0.7432(2) 0.38317(16)
O82_11 O 0.5930(6) 0.6483(4) 0.3517(4)
O83_11 O 0.64347(8) 0.81313(8) 0.46912(9)
O84_11 O 0.60798(8) 0.84863(9) 0.46915(8)
C52_11 C 0.61995(12) 0.82515(12) 0.45913(11)
N24_11 N 0.64086(14) 0.72983(12) 0.39385(12)
C53_11 C 0.60498(11) 0.81024(11) 0.43317(11)
C54_11 C 0.61638(12) 0.78393(13) 0.42133(13)
H18_11 H 0.6326 0.7746 0.4306
N25_7 N 0.62482(12) 0.64507(13) 0.29264(12)
N26_7 N 0.62482(12) 0.79264(12) 0.85493(13)
Cu1_16 Cu 0.331617(17) 0.168383(17) 0.5000
Cu2_16 Cu 0.373531(17) 0.126469(17) 0.5000
O41_12 O 0.35653(8) 0.18687(8) 0.53088(9)
O42_12 O 0.39202(8) 0.15137(9) 0.53085(8)
O43_16 O 0.29721(13) 0.20279(13) 0.5000
N1_12 N 0.35493(13) 0.29264(12) 0.62482(12)
C1_12 C 0.38005(12) 0.17485(12) 0.54087(11)
N2_12 N 0.35914(14) 0.27017(12) 0.60615(12)
O44_16 O 0.40748(14) 0.09252(14) 0.5000
C2_12 C 0.39502(11) 0.18976(11) 0.56683(11)
O46_12 O 0.3001(4) 0.3001(4) 0.5939(4)
C3_12 C 0.38362(12) 0.21607(13) 0.57867(13)
H1_12 H 0.3674 0.2254 0.5694
C4_12 C 0.39605(14) 0.22840(18) 0.60395(14)
C5_12 C 0.41998(12) 0.17697(18) 0.58002(12)
H2_12 H 0.4280 0.1595 0.5720
C6_12 C 0.38317(16) 0.2568(2) 0.61683(16)
O47_12 O 0.3517(4) 0.3517(4) 0.5930(6)
O48_12 O 0.46912(9) 0.18687(8) 0.64347(8)
O49_12 O 0.46915(8) 0.15137(9) 0.60798(8)
N3_8 N 0.37518(12) 0.29264(12) 0.64507(13)
C7_12 C 0.45913(11) 0.17485(12) 0.61995(12)
N4_12 N 0.39385(12) 0.27017(12) 0.64086(14)
C8_12 C 0.43317(11) 0.18976(11) 0.60498(11)
C9_12 C 0.42133(13) 0.21607(13) 0.61638(12)
H3_12 H 0.4306 0.2254 0.6326
O50_12 O 0.46912(9) 0.14347(8) 0.68687(8)
O51_12 O 0.46915(8) 0.10798(8) 0.65137(9)
O52_20 O 0.5000 0.20279(13) 0.70279(13)
N5_12 N 0.37518(12) 0.14507(13) 0.79264(12)
C10_12 C 0.45913(11) 0.11995(12) 0.67485(12)
N6_12 N 0.39385(12) 0.14086(14) 0.77017(12)
O53_20 O 0.5000 0.09252(14) 0.59252(14)
C11_12 C 0.43317(11) 0.10498(11) 0.68976(11)
O55_12 O 0.4061(4) 0.1999(4) 0.8001(4)
C12_12 C 0.42133(13) 0.11638(12) 0.71607(13)
H4_12 H 0.4306 0.1326 0.7254
C13_12 C 0.39605(14) 0.10395(14) 0.72840(18)
C14_12 C 0.41998(12) 0.08002(12) 0.67697(18)
H5_12 H 0.4280 0.0720 0.6595
C15_12 C 0.38317(16) 0.11683(16) 0.7568(2)
O56_12 O 0.4070(6) 0.1483(4) 0.8517(4)
O57_12 O 0.35653(8) 0.03088(9) 0.68687(8)
O58_12 O 0.39202(8) 0.03085(8) 0.65137(9)
C16_12 C 0.38005(12) 0.04087(11) 0.67485(12)
N8_12 N 0.35914(14) 0.10615(12) 0.77017(12)
C17_12 C 0.39502(11) 0.06683(11) 0.68976(11)
C18_12 C 0.38362(12) 0.07867(13) 0.71607(13)
H6_12 H 0.3674 0.0694 0.7254
O59_12 O 0.31313(8) 0.03088(9) 0.64347(8)
O60_12 O 0.34863(9) 0.03085(8) 0.60798(8)
O61_19 O 0.29721(13) -0.0000 0.70279(13)
N9_12 N 0.20736(12) 0.12482(12) 0.64507(13)
C19_12 C 0.32515(12) 0.04087(11) 0.61995(12)
N10_12 N 0.22983(12) 0.10615(12) 0.64086(14)
O62_19 O 0.40748(14) -0.0000 0.59252(14)
C20_12 C 0.31024(11) 0.06683(11) 0.60498(11)
O63_12 O 0.1999(4) 0.0939(4) 0.6999(4)
C21_12 C 0.28393(13) 0.07867(13) 0.61638(12)
H7_12 H 0.2746 0.0694 0.6326
C22_12 C 0.27160(18) 0.10395(14) 0.60395(14)
C23_12 C 0.32303(18) 0.08002(12) 0.58002(12)
H8_12 H 0.3405 0.0720 0.5720
C24_12 C 0.2432(2) 0.11683(16) 0.61683(16)
O64_12 O 0.1483(4) 0.0930(6) 0.6483(4)
O65_12 O 0.31313(8) 0.14347(8) 0.53088(9)
O66_12 O 0.34863(9) 0.10798(8) 0.53085(8)
C25_12 C 0.32515(12) 0.11995(12) 0.54087(11)
N12_12 N 0.22983(12) 0.14086(14) 0.60615(12)
C26_12 C 0.31024(11) 0.10498(11) 0.56683(11)
C27_12 C 0.28393(13) 0.11638(12) 0.57867(13)
H9_12 H 0.2746 0.1326 0.5694
O67_12 O 0.31313(8) 0.14347(8) 0.46912(9)
O68_12 O 0.34863(9) 0.10798(8) 0.46915(8)
N13_12 N 0.20736(12) 0.14507(13) 0.37518(12)
C28_12 C 0.32515(12) 0.11995(12) 0.45913(11)
N14_12 N 0.22983(12) 0.14086(14) 0.39385(12)
C29_12 C 0.31024(11) 0.10498(11) 0.43317(11)
O69_12 O 0.1999(4) 0.1999(4) 0.4061(4)
C30_12 C 0.28393(13) 0.11638(12) 0.42133(13)
H10_12 H 0.2746 0.1326 0.4306
C31_12 C 0.27160(18) 0.10395(14) 0.39605(14)
C32_12 C 0.32303(18) 0.08002(12) 0.41998(12)
H11_12 H 0.3405 0.0720 0.4280
C33_12 C 0.2432(2) 0.11683(16) 0.38317(16)
O70_12 O 0.1483(4) 0.1483(4) 0.4070(6)
C34_12 C 0.32515(12) 0.04087(11) 0.38005(12)
N16_12 N 0.22983(12) 0.10615(12) 0.35914(14)
C35_12 C 0.31024(11) 0.06683(11) 0.39502(11)
C36_12 C 0.28393(13) 0.07867(13) 0.38362(12)
H12_12 H 0.2746 0.0694 0.3674
N17_12 N 0.64507(13) 0.12482(12) 0.79264(12)
C37_12 C 0.61995(12) 0.04087(11) 0.67485(12)
N18_12 N 0.64086(14) 0.10615(12) 0.77017(12)
C38_12 C 0.60498(11) 0.06683(11) 0.68976(11)
O75_12 O 0.6999(4) 0.0939(4) 0.8001(4)
C39_12 C 0.61638(12) 0.07867(13) 0.71607(13)
H13_12 H 0.6326 0.0694 0.7254
C40_12 C 0.60395(14) 0.10395(14) 0.72840(18)
C41_12 C 0.58002(12) 0.08002(12) 0.67697(18)
H14_12 H 0.5720 0.0720 0.6595
C42_12 C 0.61683(16) 0.11683(16) 0.7568(2)
O76_12 O 0.6483(4) 0.0930(6) 0.8517(4)
O77_12 O 0.53088(9) 0.14347(8) 0.68687(8)
O78_12 O 0.53085(8) 0.10798(8) 0.65137(9)
N19_8 N 0.62482(12) 0.14507(13) 0.79264(12)
C43_12 C 0.54087(11) 0.11995(12) 0.67485(12)
N20_12 N 0.60615(12) 0.14086(14) 0.77017(12)
C44_12 C 0.56683(11) 0.10498(11) 0.68976(11)
C45_12 C 0.57867(13) 0.11638(12) 0.71607(13)
H15_12 H 0.5694 0.1326 0.7254
N21_12 N 0.37518(12) 0.29264(12) 0.35493(13)
C46_12 C 0.45913(11) 0.17485(12) 0.38005(12)
N22_12 N 0.39385(12) 0.27017(12) 0.35914(14)
C47_12 C 0.43317(11) 0.18976(11) 0.39502(11)
O81_12 O 0.4061(4) 0.3001(4) 0.3001(4)
C48_12 C 0.42133(13) 0.21607(13) 0.38362(12)
H16_12 H 0.4306 0.2254 0.3674
C49_12 C 0.39605(14) 0.22840(18) 0.39605(14)
C50_12 C 0.41998(12) 0.17697(18) 0.41998(12)
H17_12 H 0.4280 0.1595 0.4280
C51_12 C 0.38317(16) 0.2568(2) 0.38317(16)
O82_12 O 0.4070(6) 0.3517(4) 0.3517(4)
O83_12 O 0.35653(8) 0.18687(8) 0.46912(9)
O84_12 O 0.39202(8) 0.15137(9) 0.46915(8)
C52_12 C 0.38005(12) 0.17485(12) 0.45913(11)
N24_12 N 0.35914(14) 0.27017(12) 0.39385(12)
C53_12 C 0.39502(11) 0.18976(11) 0.43317(11)
C54_12 C 0.38362(12) 0.21607(13) 0.42133(13)
H18_12 H 0.3674 0.2254 0.4306
N25_8 N 0.37518(12) 0.35493(13) 0.29264(12)
N26_8 N 0.37518(12) 0.20736(12) 0.85493(13)
O61_20 O 0.29721(13) 1.0000 0.70279(13)
O62_20 O 0.40748(14) 1.0000 0.59252(14)
Cu1_17 Cu 0.668383(17) 0.668383(17) 0.0000
Cu2_17 Cu 0.626469(17) 0.626469(17) 0.0000
O43_17 O 0.70279(13) 0.70279(13) 0.0000
O44_17 O 0.59252(14) 0.59252(14) 0.0000
O67_13 O 0.68687(8) 0.64347(8) 0.03088(9)
O68_13 O 0.65137(9) 0.60798(8) 0.03085(8)
N13_13 N 0.79264(12) 0.64507(13) 0.12482(12)
C28_13 C 0.67485(12) 0.61995(12) 0.04087(11)
N14_13 N 0.77017(12) 0.64086(14) 0.10615(12)
C29_13 C 0.68976(11) 0.60498(11) 0.06683(11)
O69_13 O 0.8001(4) 0.6999(4) 0.0939(4)
C30_13 C 0.71607(13) 0.61638(12) 0.07867(13)
H10_13 H 0.7254 0.6326 0.0694
C31_13 C 0.72840(18) 0.60395(14) 0.10395(14)
C32_13 C 0.67697(18) 0.58002(12) 0.08002(12)
H11_13 H 0.6595 0.5720 0.0720
C33_13 C 0.7568(2) 0.61683(16) 0.11683(16)
O70_13 O 0.8517(4) 0.6483(4) 0.0930(6)
O71_7 O 0.68687(8) 0.53088(9) 0.14347(8)
O72_7 O 0.65137(9) 0.53085(8) 0.10798(8)
C34_13 C 0.67485(12) 0.54087(11) 0.11995(12)
N16_13 N 0.77017(12) 0.60615(12) 0.14086(14)
C35_13 C 0.68976(11) 0.56683(11) 0.10498(11)
C36_13 C 0.71607(13) 0.57867(13) 0.11638(12)
H12_13 H 0.7254 0.5694 0.1326
O79_7 O 0.53088(9) 0.68687(8) 0.14347(8)
O80_7 O 0.53085(8) 0.65137(9) 0.10798(8)
N21_13 N 0.62482(12) 0.79264(12) 0.14507(13)
C46_13 C 0.54087(11) 0.67485(12) 0.11995(12)
N22_13 N 0.60615(12) 0.77017(12) 0.14086(14)
C47_13 C 0.56683(11) 0.68976(11) 0.10498(11)
O81_13 O 0.5939(4) 0.8001(4) 0.1999(4)
C48_13 C 0.57867(13) 0.71607(13) 0.11638(12)
H16_13 H 0.5694 0.7254 0.1326
C49_13 C 0.60395(14) 0.72840(18) 0.10395(14)
C50_13 C 0.58002(12) 0.67697(18) 0.08002(12)
H17_13 H 0.5720 0.6595 0.0720
C51_13 C 0.61683(16) 0.7568(2) 0.11683(16)
O82_13 O 0.5930(6) 0.8517(4) 0.1483(4)
O83_13 O 0.64347(8) 0.68687(8) 0.03088(9)
O84_13 O 0.60798(8) 0.65137(9) 0.03085(8)
C52_13 C 0.61995(12) 0.67485(12) 0.04087(11)
N24_13 N 0.64086(14) 0.77017(12) 0.10615(12)
C53_13 C 0.60498(11) 0.68976(11) 0.06683(11)
C54_13 C 0.61638(12) 0.71607(13) 0.07867(13)
H18_13 H 0.6326 0.7254 0.0694
Cu13_11 Cu 0.5000 0.668383(17) 0.168383(17)
Cu14_11 Cu 0.668383(17) 0.5000 0.168383(17)
Cu16_11 Cu 0.5000 0.626469(17) 0.126469(17)
Cu17_11 Cu 0.626469(17) 0.5000 0.126469(17)
Cu1_18 Cu 0.668383(17) 0.668383(17) 1.0000
Cu2_18 Cu 0.626469(17) 0.626469(17) 1.0000
O41_13 O 0.64347(8) 0.68687(8) 0.96912(9)
O42_13 O 0.60798(8) 0.65137(9) 0.96915(8)
O43_18 O 0.70279(13) 0.70279(13) 1.0000
N1_13 N 0.64507(13) 0.79264(12) 0.87518(12)
C1_13 C 0.61995(12) 0.67485(12) 0.95913(11)
N2_13 N 0.64086(14) 0.77017(12) 0.89385(12)
O44_18 O 0.59252(14) 0.59252(14) 1.0000
C2_13 C 0.60498(11) 0.68976(11) 0.93317(11)
O46_13 O 0.6999(4) 0.8001(4) 0.9061(4)
C3_13 C 0.61638(12) 0.71607(13) 0.92133(13)
H1_13 H 0.6326 0.7254 0.9306
C4_13 C 0.60395(14) 0.72840(18) 0.89605(14)
C5_13 C 0.58002(12) 0.67697(18) 0.91998(12)
H2_13 H 0.5720 0.6595 0.9280
C6_13 C 0.61683(16) 0.7568(2) 0.88317(16)
O47_13 O 0.6483(4) 0.8517(4) 0.9070(6)
O48_13 O 0.53088(9) 0.68687(8) 0.85653(8)
O49_13 O 0.53085(8) 0.65137(9) 0.89202(8)
C7_13 C 0.54087(11) 0.67485(12) 0.88005(12)
N4_13 N 0.60615(12) 0.77017(12) 0.85914(14)
C8_13 C 0.56683(11) 0.68976(11) 0.89502(11)
C9_13 C 0.57867(13) 0.71607(13) 0.88362(12)
H3_13 H 0.5694 0.7254 0.8674
Cu4_11 Cu 0.5000 0.668383(17) 0.831617(17)
Cu5_11 Cu 0.5000 0.626469(17) 0.873531(17)
O50_13 O 0.53088(9) 0.64347(8) 0.81313(8)
O51_13 O 0.53085(8) 0.60798(8) 0.84863(9)
O52_21 O 0.5000 0.70279(13) 0.79721(13)
N5_13 N 0.62482(12) 0.64507(13) 0.70736(12)
C10_13 C 0.54087(11) 0.61995(12) 0.82515(12)
N6_13 N 0.60615(12) 0.64086(14) 0.72983(12)
O53_21 O 0.5000 0.59252(14) 0.90748(14)
C11_13 C 0.56683(11) 0.60498(11) 0.81024(11)
O55_13 O 0.5939(4) 0.6999(4) 0.6999(4)
C12_13 C 0.57867(13) 0.61638(12) 0.78393(13)
H4_13 H 0.5694 0.6326 0.7746
C13_13 C 0.60395(14) 0.60395(14) 0.77160(18)
C14_13 C 0.58002(12) 0.58002(12) 0.82303(18)
H5_13 H 0.5720 0.5720 0.8405
C15_13 C 0.61683(16) 0.61683(16) 0.7432(2)
O56_13 O 0.5930(6) 0.6483(4) 0.6483(4)
O57_13 O 0.64347(8) 0.53088(9) 0.81313(8)
O58_13 O 0.60798(8) 0.53085(8) 0.84863(9)
C16_13 C 0.61995(12) 0.54087(11) 0.82515(12)
N8_13 N 0.64086(14) 0.60615(12) 0.72983(12)
C17_13 C 0.60498(11) 0.56683(11) 0.81024(11)
C18_13 C 0.61638(12) 0.57867(13) 0.78393(13)
H6_13 H 0.6326 0.5694 0.7746
Cu7_6 Cu 0.668383(17) 0.5000 0.831617(17)
Cu8_6 Cu 0.626469(17) 0.5000 0.873531(17)
O59_13 O 0.68687(8) 0.53088(9) 0.85653(8)
O60_13 O 0.65137(9) 0.53085(8) 0.89202(8)
O61_21 O 0.70279(13) 0.5000 0.79721(13)
N9_13 N 0.79264(12) 0.62482(12) 0.85493(13)
C19_13 C 0.67485(12) 0.54087(11) 0.88005(12)
N10_13 N 0.77017(12) 0.60615(12) 0.85914(14)
O62_21 O 0.59252(14) 0.5000 0.90748(14)
C20_13 C 0.68976(11) 0.56683(11) 0.89502(11)
O63_13 O 0.8001(4) 0.5939(4) 0.8001(4)
C21_13 C 0.71607(13) 0.57867(13) 0.88362(12)
H7_13 H 0.7254 0.5694 0.8674
C22_13 C 0.72840(18) 0.60395(14) 0.89605(14)
C23_13 C 0.67697(18) 0.58002(12) 0.91998(12)
H8_13 H 0.6595 0.5720 0.9280
C24_13 C 0.7568(2) 0.61683(16) 0.88317(16)
O64_13 O 0.8517(4) 0.5930(6) 0.8517(4)
O65_13 O 0.68687(8) 0.64347(8) 0.96912(9)
O66_13 O 0.65137(9) 0.60798(8) 0.96915(8)
C25_13 C 0.67485(12) 0.61995(12) 0.95913(11)
N12_13 N 0.77017(12) 0.64086(14) 0.89385(12)
C26_13 C 0.68976(11) 0.60498(11) 0.93317(11)
C27_13 C 0.71607(13) 0.61638(12) 0.92133(13)
H9_13 H 0.7254 0.6326 0.9306
O73_7 O 0.35653(8) 0.53088(9) 0.81313(8)
O74_7 O 0.39202(8) 0.53085(8) 0.84863(9)
N17_13 N 0.35493(13) 0.62482(12) 0.70736(12)
C37_13 C 0.38005(12) 0.54087(11) 0.82515(12)
N18_13 N 0.35914(14) 0.60615(12) 0.72983(12)
C38_13 C 0.39502(11) 0.56683(11) 0.81024(11)
O75_13 O 0.3001(4) 0.5939(4) 0.6999(4)
C39_13 C 0.38362(12) 0.57867(13) 0.78393(13)
H13_13 H 0.3674 0.5694 0.7746
C40_13 C 0.39605(14) 0.60395(14) 0.77160(18)
C41_13 C 0.41998(12) 0.58002(12) 0.82303(18)
H14_13 H 0.4280 0.5720 0.8405
C42_13 C 0.38317(16) 0.61683(16) 0.7432(2)
O76_13 O 0.3517(4) 0.5930(6) 0.6483(4)
O77_13 O 0.46912(9) 0.64347(8) 0.81313(8)
O78_13 O 0.46915(8) 0.60798(8) 0.84863(9)
C43_13 C 0.45913(11) 0.61995(12) 0.82515(12)
N20_13 N 0.39385(12) 0.64086(14) 0.72983(12)
C44_13 C 0.43317(11) 0.60498(11) 0.81024(11)
C45_13 C 0.42133(13) 0.61638(12) 0.78393(13)
H15_13 H 0.4306 0.6326 0.7746
Cu15_6 Cu 0.331617(17) 0.5000 0.831617(17)
Cu18_6 Cu 0.373531(17) 0.5000 0.873531(17)
O85_7 O 0.64347(8) 0.46912(9) 0.81313(8)
O86_7 O 0.46912(9) 0.68687(8) 0.85653(8)
O87_7 O 0.68687(8) 0.46912(9) 0.85653(8)
O88_7 O 0.60798(8) 0.46915(8) 0.84863(9)
O89_7 O 0.46915(8) 0.65137(9) 0.89202(8)
O90_7 O 0.65137(9) 0.46915(8) 0.89202(8)
Cu1_19 Cu 0.331617(17) 0.331617(17) 0.0000
Cu2_19 Cu 0.373531(17) 0.373531(17) 0.0000
O43_19 O 0.29721(13) 0.29721(13) 0.0000
O44_19 O 0.40748(14) 0.40748(14) 0.0000
O67_14 O 0.31313(8) 0.35653(8) 0.03088(9)
O68_14 O 0.34863(9) 0.39202(8) 0.03085(8)
N13_14 N 0.20736(12) 0.35493(13) 0.12482(12)
C28_14 C 0.32515(12) 0.38005(12) 0.04087(11)
N14_14 N 0.22983(12) 0.35914(14) 0.10615(12)
C29_14 C 0.31024(11) 0.39502(11) 0.06683(11)
O69_14 O 0.1999(4) 0.3001(4) 0.0939(4)
C30_14 C 0.28393(13) 0.38362(12) 0.07867(13)
H10_14 H 0.2746 0.3674 0.0694
C31_14 C 0.27160(18) 0.39605(14) 0.10395(14)
C32_14 C 0.32303(18) 0.41998(12) 0.08002(12)
H11_14 H 0.3405 0.4280 0.0720
C33_14 C 0.2432(2) 0.38317(16) 0.11683(16)
O70_14 O 0.1483(4) 0.3517(4) 0.0930(6)
O71_8 O 0.31313(8) 0.46912(9) 0.14347(8)
O72_8 O 0.34863(9) 0.46915(8) 0.10798(8)
C34_14 C 0.32515(12) 0.45913(11) 0.11995(12)
N16_14 N 0.22983(12) 0.39385(12) 0.14086(14)
C35_14 C 0.31024(11) 0.43317(11) 0.10498(11)
C36_14 C 0.28393(13) 0.42133(13) 0.11638(12)
H12_14 H 0.2746 0.4306 0.1326
O79_8 O 0.46912(9) 0.31313(8) 0.14347(8)
O80_8 O 0.46915(8) 0.34863(9) 0.10798(8)
N21_14 N 0.37518(12) 0.20736(12) 0.14507(13)
C46_14 C 0.45913(11) 0.32515(12) 0.11995(12)
N22_14 N 0.39385(12) 0.22983(12) 0.14086(14)
C47_14 C 0.43317(11) 0.31024(11) 0.10498(11)
O81_14 O 0.4061(4) 0.1999(4) 0.1999(4)
C48_14 C 0.42133(13) 0.28393(13) 0.11638(12)
H16_14 H 0.4306 0.2746 0.1326
C49_14 C 0.39605(14) 0.27160(18) 0.10395(14)
C50_14 C 0.41998(12) 0.32303(18) 0.08002(12)
H17_14 H 0.4280 0.3405 0.0720
C51_14 C 0.38317(16) 0.2432(2) 0.11683(16)
O82_14 O 0.4070(6) 0.1483(4) 0.1483(4)
O83_14 O 0.35653(8) 0.31313(8) 0.03088(9)
O84_14 O 0.39202(8) 0.34863(9) 0.03085(8)
C52_14 C 0.38005(12) 0.32515(12) 0.04087(11)
N24_14 N 0.35914(14) 0.22983(12) 0.10615(12)
C53_14 C 0.39502(11) 0.31024(11) 0.06683(11)
C54_14 C 0.38362(12) 0.28393(13) 0.07867(13)
H18_14 H 0.3674 0.2746 0.0694
Cu13_12 Cu 0.5000 0.331617(17) 0.168383(17)
Cu14_12 Cu 0.331617(17) 0.5000 0.168383(17)
Cu16_12 Cu 0.5000 0.373531(17) 0.126469(17)
Cu17_12 Cu 0.373531(17) 0.5000 0.126469(17)
Cu1_20 Cu 0.331617(17) 0.331617(17) 1.0000
Cu2_20 Cu 0.373531(17) 0.373531(17) 1.0000
O41_14 O 0.35653(8) 0.31313(8) 0.96912(9)
O42_14 O 0.39202(8) 0.34863(9) 0.96915(8)
O43_20 O 0.29721(13) 0.29721(13) 1.0000
N1_14 N 0.35493(13) 0.20736(12) 0.87518(12)
C1_14 C 0.38005(12) 0.32515(12) 0.95913(11)
N2_14 N 0.35914(14) 0.22983(12) 0.89385(12)
O44_20 O 0.40748(14) 0.40748(14) 1.0000
C2_14 C 0.39502(11) 0.31024(11) 0.93317(11)
O46_14 O 0.3001(4) 0.1999(4) 0.9061(4)
C3_14 C 0.38362(12) 0.28393(13) 0.92133(13)
H1_14 H 0.3674 0.2746 0.9306
C4_14 C 0.39605(14) 0.27160(18) 0.89605(14)
C5_14 C 0.41998(12) 0.32303(18) 0.91998(12)
H2_14 H 0.4280 0.3405 0.9280
C6_14 C 0.38317(16) 0.2432(2) 0.88317(16)
O47_14 O 0.3517(4) 0.1483(4) 0.9070(6)
O48_14 O 0.46912(9) 0.31313(8) 0.85653(8)
O49_14 O 0.46915(8) 0.34863(9) 0.89202(8)
C7_14 C 0.45913(11) 0.32515(12) 0.88005(12)
N4_14 N 0.39385(12) 0.22983(12) 0.85914(14)
C8_14 C 0.43317(11) 0.31024(11) 0.89502(11)
C9_14 C 0.42133(13) 0.28393(13) 0.88362(12)
H3_14 H 0.4306 0.2746 0.8674
Cu4_12 Cu 0.5000 0.331617(17) 0.831617(17)
Cu5_12 Cu 0.5000 0.373531(17) 0.873531(17)
O50_14 O 0.46912(9) 0.35653(8) 0.81313(8)
O51_14 O 0.46915(8) 0.39202(8) 0.84863(9)
O52_22 O 0.5000 0.29721(13) 0.79721(13)
N5_14 N 0.37518(12) 0.35493(13) 0.70736(12)
C10_14 C 0.45913(11) 0.38005(12) 0.82515(12)
N6_14 N 0.39385(12) 0.35914(14) 0.72983(12)
O53_22 O 0.5000 0.40748(14) 0.90748(14)
C11_14 C 0.43317(11) 0.39502(11) 0.81024(11)
O55_14 O 0.4061(4) 0.3001(4) 0.6999(4)
C12_14 C 0.42133(13) 0.38362(12) 0.78393(13)
H4_14 H 0.4306 0.3674 0.7746
C13_14 C 0.39605(14) 0.39605(14) 0.77160(18)
C14_14 C 0.41998(12) 0.41998(12) 0.82303(18)
H5_14 H 0.4280 0.4280 0.8405
C15_14 C 0.38317(16) 0.38317(16) 0.7432(2)
O56_14 O 0.4070(6) 0.3517(4) 0.6483(4)
O57_14 O 0.35653(8) 0.46912(9) 0.81313(8)
O58_14 O 0.39202(8) 0.46915(8) 0.84863(9)
C16_14 C 0.38005(12) 0.45913(11) 0.82515(12)
N8_14 N 0.35914(14) 0.39385(12) 0.72983(12)
C17_14 C 0.39502(11) 0.43317(11) 0.81024(11)
C18_14 C 0.38362(12) 0.42133(13) 0.78393(13)
H6_14 H 0.3674 0.4306 0.7746
O59_14 O 0.31313(8) 0.46912(9) 0.85653(8)
O60_14 O 0.34863(9) 0.46915(8) 0.89202(8)
O61_22 O 0.29721(13) 0.5000 0.79721(13)
N9_14 N 0.20736(12) 0.37518(12) 0.85493(13)
C19_14 C 0.32515(12) 0.45913(11) 0.88005(12)
N10_14 N 0.22983(12) 0.39385(12) 0.85914(14)
O62_22 O 0.40748(14) 0.5000 0.90748(14)
C20_14 C 0.31024(11) 0.43317(11) 0.89502(11)
O63_14 O 0.1999(4) 0.4061(4) 0.8001(4)
C21_14 C 0.28393(13) 0.42133(13) 0.88362(12)
H7_14 H 0.2746 0.4306 0.8674
C22_14 C 0.27160(18) 0.39605(14) 0.89605(14)
C23_14 C 0.32303(18) 0.41998(12) 0.91998(12)
H8_14 H 0.3405 0.4280 0.9280
C24_14 C 0.2432(2) 0.38317(16) 0.88317(16)
O64_14 O 0.1483(4) 0.4070(6) 0.8517(4)
O65_14 O 0.31313(8) 0.35653(8) 0.96912(9)
O66_14 O 0.34863(9) 0.39202(8) 0.96915(8)
C25_14 C 0.32515(12) 0.38005(12) 0.95913(11)
N12_14 N 0.22983(12) 0.35914(14) 0.89385(12)
C26_14 C 0.31024(11) 0.39502(11) 0.93317(11)
C27_14 C 0.28393(13) 0.38362(12) 0.92133(13)
H9_14 H 0.2746 0.3674 0.9306
N17_14 N 0.64507(13) 0.37518(12) 0.70736(12)
C37_14 C 0.61995(12) 0.45913(11) 0.82515(12)
N18_14 N 0.64086(14) 0.39385(12) 0.72983(12)
C38_14 C 0.60498(11) 0.43317(11) 0.81024(11)
O75_14 O 0.6999(4) 0.4061(4) 0.6999(4)
C39_14 C 0.61638(12) 0.42133(13) 0.78393(13)
H13_14 H 0.6326 0.4306 0.7746
C40_14 C 0.60395(14) 0.39605(14) 0.77160(18)
C41_14 C 0.58002(12) 0.41998(12) 0.82303(18)
H14_14 H 0.5720 0.4280 0.8405
C42_14 C 0.61683(16) 0.38317(16) 0.7432(2)
O76_14 O 0.6483(4) 0.4070(6) 0.6483(4)
O77_14 O 0.53088(9) 0.35653(8) 0.81313(8)
O78_14 O 0.53085(8) 0.39202(8) 0.84863(9)
C43_14 C 0.54087(11) 0.38005(12) 0.82515(12)
N20_14 N 0.60615(12) 0.35914(14) 0.72983(12)
C44_14 C 0.56683(11) 0.39502(11) 0.81024(11)
C45_14 C 0.57867(13) 0.38362(12) 0.78393(13)
H15_14 H 0.5694 0.3674 0.7746
O86_8 O 0.53088(9) 0.31313(8) 0.85653(8)
O87_8 O 0.31313(8) 0.53088(9) 0.85653(8)
O89_8 O 0.53085(8) 0.34863(9) 0.89202(8)
O90_8 O 0.34863(9) 0.53085(8) 0.89202(8)
Cu1_21 Cu 0.668383(17) 0.331617(17) 0.0000
Cu2_21 Cu 0.626469(17) 0.373531(17) 0.0000
O41_15 O 0.64347(8) 0.31313(8) 0.03088(9)
O42_15 O 0.60798(8) 0.34863(9) 0.03085(8)
O43_21 O 0.70279(13) 0.29721(13) 0.0000
N1_15 N 0.64507(13) 0.20736(12) 0.12482(12)
C1_15 C 0.61995(12) 0.32515(12) 0.04087(11)
N2_15 N 0.64086(14) 0.22983(12) 0.10615(12)
O44_21 O 0.59252(14) 0.40748(14) 0.0000
C2_15 C 0.60498(11) 0.31024(11) 0.06683(11)
O46_15 O 0.6999(4) 0.1999(4) 0.0939(4)
C3_15 C 0.61638(12) 0.28393(13) 0.07867(13)
H1_15 H 0.6326 0.2746 0.0694
C4_15 C 0.60395(14) 0.27160(18) 0.10395(14)
C5_15 C 0.58002(12) 0.32303(18) 0.08002(12)
H2_15 H 0.5720 0.3405 0.0720
C6_15 C 0.61683(16) 0.2432(2) 0.11683(16)
O47_15 O 0.6483(4) 0.1483(4) 0.0930(6)
O48_15 O 0.53088(9) 0.31313(8) 0.14347(8)
O49_15 O 0.53085(8) 0.34863(9) 0.10798(8)
C7_15 C 0.54087(11) 0.32515(12) 0.11995(12)
N4_15 N 0.60615(12) 0.22983(12) 0.14086(14)
C8_15 C 0.56683(11) 0.31024(11) 0.10498(11)
C9_15 C 0.57867(13) 0.28393(13) 0.11638(12)
H3_15 H 0.5694 0.2746 0.1326
O50_15 O 0.53088(9) 0.35653(8) 0.18687(8)
O51_15 O 0.53085(8) 0.39202(8) 0.15137(9)
O52_23 O 0.5000 0.29721(13) 0.20279(13)
N5_15 N 0.62482(12) 0.35493(13) 0.29264(12)
C10_15 C 0.54087(11) 0.38005(12) 0.17485(12)
N6_15 N 0.60615(12) 0.35914(14) 0.27017(12)
O53_23 O 0.5000 0.40748(14) 0.09252(14)
C11_15 C 0.56683(11) 0.39502(11) 0.18976(11)
O55_15 O 0.5939(4) 0.3001(4) 0.3001(4)
C12_15 C 0.57867(13) 0.38362(12) 0.21607(13)
H4_15 H 0.5694 0.3674 0.2254
C13_15 C 0.60395(14) 0.39605(14) 0.22840(18)
C14_15 C 0.58002(12) 0.41998(12) 0.17697(18)
H5_15 H 0.5720 0.4280 0.1595
C15_15 C 0.61683(16) 0.38317(16) 0.2568(2)
O56_15 O 0.5930(6) 0.3517(4) 0.3517(4)
O57_15 O 0.64347(8) 0.46912(9) 0.18687(8)
O58_15 O 0.60798(8) 0.46915(8) 0.15137(9)
C16_15 C 0.61995(12) 0.45913(11) 0.17485(12)
N8_15 N 0.64086(14) 0.39385(12) 0.27017(12)
C17_15 C 0.60498(11) 0.43317(11) 0.18976(11)
C18_15 C 0.61638(12) 0.42133(13) 0.21607(13)
H6_15 H 0.6326 0.4306 0.2254
O59_15 O 0.68687(8) 0.46912(9) 0.14347(8)
O60_15 O 0.65137(9) 0.46915(8) 0.10798(8)
O61_23 O 0.70279(13) 0.5000 0.20279(13)
N9_15 N 0.79264(12) 0.37518(12) 0.14507(13)
C19_15 C 0.67485(12) 0.45913(11) 0.11995(12)
N10_15 N 0.77017(12) 0.39385(12) 0.14086(14)
O62_23 O 0.59252(14) 0.5000 0.09252(14)
C20_15 C 0.68976(11) 0.43317(11) 0.10498(11)
O63_15 O 0.8001(4) 0.4061(4) 0.1999(4)
C21_15 C 0.71607(13) 0.42133(13) 0.11638(12)
H7_15 H 0.7254 0.4306 0.1326
C22_15 C 0.72840(18) 0.39605(14) 0.10395(14)
C23_15 C 0.67697(18) 0.41998(12) 0.08002(12)
H8_15 H 0.6595 0.4280 0.0720
C24_15 C 0.7568(2) 0.38317(16) 0.11683(16)
O64_15 O 0.8517(4) 0.4070(6) 0.1483(4)
O65_15 O 0.68687(8) 0.35653(8) 0.03088(9)
O66_15 O 0.65137(9) 0.39202(8) 0.03085(8)
C25_15 C 0.67485(12) 0.38005(12) 0.04087(11)
N12_15 N 0.77017(12) 0.35914(14) 0.10615(12)
C26_15 C 0.68976(11) 0.39502(11) 0.06683(11)
C27_15 C 0.71607(13) 0.38362(12) 0.07867(13)
H9_15 H 0.7254 0.3674 0.0694
O73_8 O 0.35653(8) 0.46912(9) 0.18687(8)
O74_8 O 0.39202(8) 0.46915(8) 0.15137(9)
N17_15 N 0.35493(13) 0.37518(12) 0.29264(12)
C37_15 C 0.38005(12) 0.45913(11) 0.17485(12)
N18_15 N 0.35914(14) 0.39385(12) 0.27017(12)
C38_15 C 0.39502(11) 0.43317(11) 0.18976(11)
O75_15 O 0.3001(4) 0.4061(4) 0.3001(4)
C39_15 C 0.38362(12) 0.42133(13) 0.21607(13)
H13_15 H 0.3674 0.4306 0.2254
C40_15 C 0.39605(14) 0.39605(14) 0.22840(18)
C41_15 C 0.41998(12) 0.41998(12) 0.17697(18)
H14_15 H 0.4280 0.4280 0.1595
C42_15 C 0.38317(16) 0.38317(16) 0.2568(2)
O76_15 O 0.3517(4) 0.4070(6) 0.3517(4)
O77_15 O 0.46912(9) 0.35653(8) 0.18687(8)
O78_15 O 0.46915(8) 0.39202(8) 0.15137(9)
C43_15 C 0.45913(11) 0.38005(12) 0.17485(12)
N20_15 N 0.39385(12) 0.35914(14) 0.27017(12)
C44_15 C 0.43317(11) 0.39502(11) 0.18976(11)
C45_15 C 0.42133(13) 0.38362(12) 0.21607(13)
H15_15 H 0.4306 0.3674 0.2254
O85_8 O 0.64347(8) 0.53088(9) 0.18687(8)
O88_8 O 0.60798(8) 0.53085(8) 0.15137(9)
Cu1_22 Cu 0.668383(17) 0.331617(17) 1.0000
Cu2_22 Cu 0.626469(17) 0.373531(17) 1.0000
O43_22 O 0.70279(13) 0.29721(13) 1.0000
O44_22 O 0.59252(14) 0.40748(14) 1.0000
O67_15 O 0.68687(8) 0.35653(8) 0.96912(9)
O68_15 O 0.65137(9) 0.39202(8) 0.96915(8)
N13_15 N 0.79264(12) 0.35493(13) 0.87518(12)
C28_15 C 0.67485(12) 0.38005(12) 0.95913(11)
N14_15 N 0.77017(12) 0.35914(14) 0.89385(12)
C29_15 C 0.68976(11) 0.39502(11) 0.93317(11)
O69_15 O 0.8001(4) 0.3001(4) 0.9061(4)
C30_15 C 0.71607(13) 0.38362(12) 0.92133(13)
H10_15 H 0.7254 0.3674 0.9306
C31_15 C 0.72840(18) 0.39605(14) 0.89605(14)
C32_15 C 0.67697(18) 0.41998(12) 0.91998(12)
H11_15 H 0.6595 0.4280 0.9280
C33_15 C 0.7568(2) 0.38317(16) 0.88317(16)
O70_15 O 0.8517(4) 0.3517(4) 0.9070(6)
C34_15 C 0.67485(12) 0.45913(11) 0.88005(12)
N16_15 N 0.77017(12) 0.39385(12) 0.85914(14)
C35_15 C 0.68976(11) 0.43317(11) 0.89502(11)
C36_15 C 0.71607(13) 0.42133(13) 0.88362(12)
H12_15 H 0.7254 0.4306 0.8674
N21_15 N 0.62482(12) 0.20736(12) 0.85493(13)
C46_15 C 0.54087(11) 0.32515(12) 0.88005(12)
N22_15 N 0.60615(12) 0.22983(12) 0.85914(14)
C47_15 C 0.56683(11) 0.31024(11) 0.89502(11)
O81_15 O 0.5939(4) 0.1999(4) 0.8001(4)
C48_15 C 0.57867(13) 0.28393(13) 0.88362(12)
H16_15 H 0.5694 0.2746 0.8674
C49_15 C 0.60395(14) 0.27160(18) 0.89605(14)
C50_15 C 0.58002(12) 0.32303(18) 0.91998(12)
H17_15 H 0.5720 0.3405 0.9280
C51_15 C 0.61683(16) 0.2432(2) 0.88317(16)
O82_15 O 0.5930(6) 0.1483(4) 0.8517(4)
O83_15 O 0.64347(8) 0.31313(8) 0.96912(9)
O84_15 O 0.60798(8) 0.34863(9) 0.96915(8)
C52_15 C 0.61995(12) 0.32515(12) 0.95913(11)
N24_15 N 0.64086(14) 0.22983(12) 0.89385(12)
C53_15 C 0.60498(11) 0.31024(11) 0.93317(11)
C54_15 C 0.61638(12) 0.28393(13) 0.92133(13)
H18_15 H 0.6326 0.2746 0.9306
Cu1_23 Cu 0.331617(17) 0.668383(17) 0.0000
Cu2_23 Cu 0.373531(17) 0.626469(17) 0.0000
O41_16 O 0.35653(8) 0.68687(8) 0.03088(9)
O42_16 O 0.39202(8) 0.65137(9) 0.03085(8)
O43_23 O 0.29721(13) 0.70279(13) 0.0000
N1_16 N 0.35493(13) 0.79264(12) 0.12482(12)
C1_16 C 0.38005(12) 0.67485(12) 0.04087(11)
N2_16 N 0.35914(14) 0.77017(12) 0.10615(12)
O44_23 O 0.40748(14) 0.59252(14) 0.0000
C2_16 C 0.39502(11) 0.68976(11) 0.06683(11)
O46_16 O 0.3001(4) 0.8001(4) 0.0939(4)
C3_16 C 0.38362(12) 0.71607(13) 0.07867(13)
H1_16 H 0.3674 0.7254 0.0694
C4_16 C 0.39605(14) 0.72840(18) 0.10395(14)
C5_16 C 0.41998(12) 0.67697(18) 0.08002(12)
H2_16 H 0.4280 0.6595 0.0720
C6_16 C 0.38317(16) 0.7568(2) 0.11683(16)
O47_16 O 0.3517(4) 0.8517(4) 0.0930(6)
O48_16 O 0.46912(9) 0.68687(8) 0.14347(8)
O49_16 O 0.46915(8) 0.65137(9) 0.10798(8)
C7_16 C 0.45913(11) 0.67485(12) 0.11995(12)
N4_16 N 0.39385(12) 0.77017(12) 0.14086(14)
C8_16 C 0.43317(11) 0.68976(11) 0.10498(11)
C9_16 C 0.42133(13) 0.71607(13) 0.11638(12)
H3_16 H 0.4306 0.7254 0.1326
O50_16 O 0.46912(9) 0.64347(8) 0.18687(8)
O51_16 O 0.46915(8) 0.60798(8) 0.15137(9)
O52_24 O 0.5000 0.70279(13) 0.20279(13)
N5_16 N 0.37518(12) 0.64507(13) 0.29264(12)
C10_16 C 0.45913(11) 0.61995(12) 0.17485(12)
N6_16 N 0.39385(12) 0.64086(14) 0.27017(12)
O53_24 O 0.5000 0.59252(14) 0.09252(14)
C11_16 C 0.43317(11) 0.60498(11) 0.18976(11)
O55_16 O 0.4061(4) 0.6999(4) 0.3001(4)
C12_16 C 0.42133(13) 0.61638(12) 0.21607(13)
H4_16 H 0.4306 0.6326 0.2254
C13_16 C 0.39605(14) 0.60395(14) 0.22840(18)
C14_16 C 0.41998(12) 0.58002(12) 0.17697(18)
H5_16 H 0.4280 0.5720 0.1595
C15_16 C 0.38317(16) 0.61683(16) 0.2568(2)
O56_16 O 0.4070(6) 0.6483(4) 0.3517(4)
O57_16 O 0.35653(8) 0.53088(9) 0.18687(8)
O58_16 O 0.39202(8) 0.53085(8) 0.15137(9)
C16_16 C 0.38005(12) 0.54087(11) 0.17485(12)
N8_16 N 0.35914(14) 0.60615(12) 0.27017(12)
C17_16 C 0.39502(11) 0.56683(11) 0.18976(11)
C18_16 C 0.38362(12) 0.57867(13) 0.21607(13)
H6_16 H 0.3674 0.5694 0.2254
O59_16 O 0.31313(8) 0.53088(9) 0.14347(8)
O60_16 O 0.34863(9) 0.53085(8) 0.10798(8)
O61_24 O 0.29721(13) 0.5000 0.20279(13)
N9_16 N 0.20736(12) 0.62482(12) 0.14507(13)
C19_16 C 0.32515(12) 0.54087(11) 0.11995(12)
N10_16 N 0.22983(12) 0.60615(12) 0.14086(14)
O62_24 O 0.40748(14) 0.5000 0.09252(14)
C20_16 C 0.31024(11) 0.56683(11) 0.10498(11)
O63_16 O 0.1999(4) 0.5939(4) 0.1999(4)
C21_16 C 0.28393(13) 0.57867(13) 0.11638(12)
H7_16 H 0.2746 0.5694 0.1326
C22_16 C 0.27160(18) 0.60395(14) 0.10395(14)
C23_16 C 0.32303(18) 0.58002(12) 0.08002(12)
H8_16 H 0.3405 0.5720 0.0720
C24_16 C 0.2432(2) 0.61683(16) 0.11683(16)
O64_16 O 0.1483(4) 0.5930(6) 0.1483(4)
O65_16 O 0.31313(8) 0.64347(8) 0.03088(9)
O66_16 O 0.34863(9) 0.60798(8) 0.03085(8)
C25_16 C 0.32515(12) 0.61995(12) 0.04087(11)
N12_16 N 0.22983(12) 0.64086(14) 0.10615(12)
C26_16 C 0.31024(11) 0.60498(11) 0.06683(11)
C27_16 C 0.28393(13) 0.61638(12) 0.07867(13)
H9_16 H 0.2746 0.6326 0.0694
N17_16 N 0.64507(13) 0.62482(12) 0.29264(12)
C37_16 C 0.61995(12) 0.54087(11) 0.17485(12)
N18_16 N 0.64086(14) 0.60615(12) 0.27017(12)
C38_16 C 0.60498(11) 0.56683(11) 0.18976(11)
O75_16 O 0.6999(4) 0.5939(4) 0.3001(4)
C39_16 C 0.61638(12) 0.57867(13) 0.21607(13)
H13_16 H 0.6326 0.5694 0.2254
C40_16 C 0.60395(14) 0.60395(14) 0.22840(18)
C41_16 C 0.58002(12) 0.58002(12) 0.17697(18)
H14_16 H 0.5720 0.5720 0.1595
C42_16 C 0.61683(16) 0.61683(16) 0.2568(2)
O76_16 O 0.6483(4) 0.5930(6) 0.3517(4)
O77_16 O 0.53088(9) 0.64347(8) 0.18687(8)
O78_16 O 0.53085(8) 0.60798(8) 0.15137(9)
C43_16 C 0.54087(11) 0.61995(12) 0.17485(12)
N20_16 N 0.60615(12) 0.64086(14) 0.27017(12)
C44_16 C 0.56683(11) 0.60498(11) 0.18976(11)
C45_16 C 0.57867(13) 0.61638(12) 0.21607(13)
H15_16 H 0.5694 0.6326 0.2254
Cu1_24 Cu 0.331617(17) 0.668383(17) 1.0000
Cu2_24 Cu 0.373531(17) 0.626469(17) 1.0000
O43_24 O 0.29721(13) 0.70279(13) 1.0000
O44_24 O 0.40748(14) 0.59252(14) 1.0000
O67_16 O 0.31313(8) 0.64347(8) 0.96912(9)
O68_16 O 0.34863(9) 0.60798(8) 0.96915(8)
N13_16 N 0.20736(12) 0.64507(13) 0.87518(12)
C28_16 C 0.32515(12) 0.61995(12) 0.95913(11)
N14_16 N 0.22983(12) 0.64086(14) 0.89385(12)
C29_16 C 0.31024(11) 0.60498(11) 0.93317(11)
O69_16 O 0.1999(4) 0.6999(4) 0.9061(4)
C30_16 C 0.28393(13) 0.61638(12) 0.92133(13)
H10_16 H 0.2746 0.6326 0.9306
C31_16 C 0.27160(18) 0.60395(14) 0.89605(14)
C32_16 C 0.32303(18) 0.58002(12) 0.91998(12)
H11_16 H 0.3405 0.5720 0.9280
C33_16 C 0.2432(2) 0.61683(16) 0.88317(16)
O70_16 O 0.1483(4) 0.6483(4) 0.9070(6)
C34_16 C 0.32515(12) 0.54087(11) 0.88005(12)
N16_16 N 0.22983(12) 0.60615(12) 0.85914(14)
C35_16 C 0.31024(11) 0.56683(11) 0.89502(11)
C36_16 C 0.28393(13) 0.57867(13) 0.88362(12)
H12_16 H 0.2746 0.5694 0.8674
N21_16 N 0.37518(12) 0.79264(12) 0.85493(13)
C46_16 C 0.45913(11) 0.67485(12) 0.88005(12)
N22_16 N 0.39385(12) 0.77017(12) 0.85914(14)
C47_16 C 0.43317(11) 0.68976(11) 0.89502(11)
O81_16 O 0.4061(4) 0.8001(4) 0.8001(4)
C48_16 C 0.42133(13) 0.71607(13) 0.88362(12)
H16_16 H 0.4306 0.7254 0.8674
C49_16 C 0.39605(14) 0.72840(18) 0.89605(14)
C50_16 C 0.41998(12) 0.67697(18) 0.91998(12)
H17_16 H 0.4280 0.6595 0.9280
C51_16 C 0.38317(16) 0.7568(2) 0.88317(16)
O82_16 O 0.4070(6) 0.8517(4) 0.8517(4)
O83_16 O 0.35653(8) 0.68687(8) 0.96912(9)
O84_16 O 0.39202(8) 0.65137(9) 0.96915(8)
C52_16 C 0.38005(12) 0.67485(12) 0.95913(11)
N24_16 N 0.35914(14) 0.77017(12) 0.89385(12)
C53_16 C 0.39502(11) 0.68976(11) 0.93317(11)
C54_16 C 0.38362(12) 0.71607(13) 0.92133(13)
H18_16 H 0.3674 0.7254 0.9306
loop_
_geom_bond_atom_site_label_1
_geom_bond_atom_site_label_2
_geom_bond_site_symmetry_1
_geom_bond_site_symmetry_2
Mo1 O1 1_555 1_555
O1 Mo2 1_555 1_555
O2 Mo1 1_555 1_555
O3 Mo1 1_555 1_555
O4 Mo1 1_555 1_555
Si1 O3 1_555 1_555
O5 Si1 1_555 1_555
O6 Si1 1_555 1_555
O7 Si1 1_555 1_555
Mo2 O5 1_555 1_555
O8 Mo2 1_555 1_555
O9 Mo2 1_555 1_555
O10 Mo2 1_555 1_555
Mo3 O6 1_555 1_555
O11 Mo1 1_555 1_555
O12 Mo3 1_555 1_555
O13 Mo3 1_555 1_555
Mo4 O5 1_555 1_555
O14 Mo4 1_555 1_555
O15 Mo2 1_555 1_555
O16 Mo4 1_555 1_555
Mo5 O7 1_555 1_555
O17 Mo4 1_555 1_555
O18 Mo5 1_555 1_555
O19 Mo5 1_555 1_555
Mo6 O2 1_555 1_555
O20 Mo5 1_555 1_555
O21 Mo6 1_555 1_555
O22 Mo6 1_555 1_555
Mo7 O7 1_555 1_555
O23 Mo7 1_555 1_555
O24 Mo7 1_555 1_555
O25 Mo7 1_555 1_555
Mo8 O6 1_555 1_555
O26 Mo8 1_555 1_555
O27 Mo3 1_555 1_555
O28 Mo8 1_555 1_555
Mo9 O5 1_555 1_555
O29 Mo7 1_555 1_555
O30 Mo4 1_555 1_555
O31 Mo9 1_555 1_555
Mo10 O6 1_555 1_555
O32 Mo10 1_555 1_555
O33 Mo8 1_555 1_555
O34 Mo10 1_555 1_555
Mo11 O3 1_555 1_555
O35 Mo10 1_555 1_555
O36 Mo1 1_555 1_555
O37 Mo11 1_555 1_555
Mo12 O7 1_555 1_555
O38 Mo11 1_555 1_555
O39 Mo5 1_555 1_555
O40 Mo12 1_555 1_555
O3 Mo6 1_555 1_555
O8 Mo3 1_555 1_555
O9 Mo9 1_555 1_555
Mo3 O11 1_555 1_555
O12 Mo10 1_555 1_555
Mo4 O15 1_555 1_555
O14 Mo6 1_555 1_555
Mo5 O17 1_555 1_555
O18 Mo7 1_555 1_555
Mo6 O20 1_555 1_555
O21 Mo11 1_555 1_555
O23 Mo8 1_555 1_555
O24 Mo12 1_555 1_555
Mo8 O27 1_555 1_555
O26 Mo9 1_555 1_555
Mo9 O29 1_555 1_555
Mo9 O30 1_555 1_555
Mo10 O33 1_555 1_555
O32 Mo12 1_555 1_555
Mo11 O35 1_555 1_555
Mo11 O36 1_555 1_555
Mo12 O38 1_555 1_555
Mo12 O39 1_555 1_555
Mo1_2 O1_2 1_555 1_555
O1_2 Mo2_2 1_555 1_555
O2_2 Mo1_2 1_555 1_555
O3_2 Mo1_2 1_555 1_555
O4_2 Mo1_2 1_555 1_555
Si1_2 O3_2 1_555 1_555
O5_2 Si1_2 1_555 1_555
O6_2 Si1_2 1_555 1_555
O7_2 Si1_2 1_555 1_555
Mo2_2 O5_2 1_555 1_555
O8_2 Mo2_2 1_555 1_555
O9_2 Mo2_2 1_555 1_555
O10_2 Mo2_2 1_555 1_555
Mo3_2 O6_2 1_555 1_555
O11_2 Mo1_2 1_555 1_555
O12_2 Mo3_2 1_555 1_555
O13_2 Mo3_2 1_555 1_555
Mo4_2 O5_2 1_555 1_555
O14_2 Mo4_2 1_555 1_555
O15_2 Mo2_2 1_555 1_555
O16_2 Mo4_2 1_555 1_555
Mo5_2 O7_2 1_555 1_555
O17_2 Mo4_2 1_555 1_555
O18_2 Mo5_2 1_555 1_555
O19_2 Mo5_2 1_555 1_555
Mo6_2 O2_2 1_555 1_555
O20_2 Mo5_2 1_555 1_555
O21_2 Mo6_2 1_555 1_555
O22_2 Mo6_2 1_555 1_555
Mo7_2 O7_2 1_555 1_555
O23_2 Mo7_2 1_555 1_555
O24_2 Mo7_2 1_555 1_555
O25_2 Mo7_2 1_555 1_555
Mo8_2 O6_2 1_555 1_555
O26_2 Mo8_2 1_555 1_555
O27_2 Mo3_2 1_555 1_555
O28_2 Mo8_2 1_555 1_555
Mo9_2 O5_2 1_555 1_555
O29_2 Mo7_2 1_555 1_555
O30_2 Mo4_2 1_555 1_555
O31_2 Mo9_2 1_555 1_555
Mo10_2 O6_2 1_555 1_555
O32_2 Mo10_2 1_555 1_555
O33_2 Mo8_2 1_555 1_555
O34_2 Mo10_2 1_555 1_555
Mo11_2 O3_2 1_555 1_555
O35_2 Mo10_2 1_555 1_555
O36_2 Mo1_2 1_555 1_555
O37_2 Mo11_2 1_555 1_555
Mo12_2 O7_2 1_555 1_555
O38_2 Mo11_2 1_555 1_555
O39_2 Mo5_2 1_555 1_555
O40_2 Mo12_2 1_555 1_555
O3_2 Mo6_2 1_555 1_555
O8_2 Mo3_2 1_555 1_555
O9_2 Mo9_2 1_555 1_555
Mo3_2 O11_2 1_555 1_555
O12_2 Mo10_2 1_555 1_555
Mo4_2 O15_2 1_555 1_555
O14_2 Mo6_2 1_555 1_555
Mo5_2 O17_2 1_555 1_555
O18_2 Mo7_2 1_555 1_555
Mo6_2 O20_2 1_555 1_555
O21_2 Mo11_2 1_555 1_555
O23_2 Mo8_2 1_555 1_555
O24_2 Mo12_2 1_555 1_555
Mo8_2 O27_2 1_555 1_555
O26_2 Mo9_2 1_555 1_555
Mo9_2 O29_2 1_555 1_555
Mo9_2 O30_2 1_555 1_555
Mo10_2 O33_2 1_555 1_555
O32_2 Mo12_2 1_555 1_555
Mo11_2 O35_2 1_555 1_555
Mo11_2 O36_2 1_555 1_555
Mo12_2 O38_2 1_555 1_555
Mo12_2 O39_2 1_555 1_555
Mo1_3 O1_3 1_555 1_555
O1_3 Mo2_3 1_555 1_555
O2_3 Mo1_3 1_555 1_555
O3_3 Mo1_3 1_555 1_555
O4_3 Mo1_3 1_555 1_555
Si1_3 O3_3 1_555 1_555
O5_3 Si1_3 1_555 1_555
O6_3 Si1_3 1_555 1_555
O7_3 Si1_3 1_555 1_555
Mo2_3 O5_3 1_555 1_555
O8_3 Mo2_3 1_555 1_555
O9_3 Mo2_3 1_555 1_555
O10_3 Mo2_3 1_555 1_555
Mo3_3 O6_3 1_555 1_555
O11_3 Mo1_3 1_555 1_555
O12_3 Mo3_3 1_555 1_555
O13_3 Mo3_3 1_555 1_555
Mo4_3 O5_3 1_555 1_555
O14_3 Mo4_3 1_555 1_555
O15_3 Mo2_3 1_555 1_555
O16_3 Mo4_3 1_555 1_555
Mo5_3 O7_3 1_555 1_555
O17_3 Mo4_3 1_555 1_555
O18_3 Mo5_3 1_555 1_555
O19_3 Mo5_3 1_555 1_555
Mo6_3 O2_3 1_555 1_555
O20_3 Mo5_3 1_555 1_555
O21_3 Mo6_3 1_555 1_555
O22_3 Mo6_3 1_555 1_555
Mo7_3 O7_3 1_555 1_555
O23_3 Mo7_3 1_555 1_555
O24_3 Mo7_3 1_555 1_555
O25_3 Mo7_3 1_555 1_555
Mo8_3 O6_3 1_555 1_555
O26_3 Mo8_3 1_555 1_555
O27_3 Mo3_3 1_555 1_555
O28_3 Mo8_3 1_555 1_555
Mo9_3 O5_3 1_555 1_555
O29_3 Mo7_3 1_555 1_555
O30_3 Mo4_3 1_555 1_555
O31_3 Mo9_3 1_555 1_555
Mo10_3 O6_3 1_555 1_555
O32_3 Mo10_3 1_555 1_555
O33_3 Mo8_3 1_555 1_555
O34_3 Mo10_3 1_555 1_555
Mo11_3 O3_3 1_555 1_555
O35_3 Mo10_3 1_555 1_555
O36_3 Mo1_3 1_555 1_555
O37_3 Mo11_3 1_555 1_555
Mo12_3 O7_3 1_555 1_555
O38_3 Mo11_3 1_555 1_555
O39_3 Mo5_3 1_555 1_555
O40_3 Mo12_3 1_555 1_555
O3_3 Mo6_3 1_555 1_555
O8_3 Mo3_3 1_555 1_555
O9_3 Mo9_3 1_555 1_555
Mo3_3 O11_3 1_555 1_555
O12_3 Mo10_3 1_555 1_555
Mo4_3 O15_3 1_555 1_555
O14_3 Mo6_3 1_555 1_555
Mo5_3 O17_3 1_555 1_555
O18_3 Mo7_3 1_555 1_555
Mo6_3 O20_3 1_555 1_555
O21_3 Mo11_3 1_555 1_555
O23_3 Mo8_3 1_555 1_555
O24_3 Mo12_3 1_555 1_555
Mo8_3 O27_3 1_555 1_555
O26_3 Mo9_3 1_555 1_555
Mo9_3 O29_3 1_555 1_555
Mo9_3 O30_3 1_555 1_555
Mo10_3 O33_3 1_555 1_555
O32_3 Mo12_3 1_555 1_555
Mo11_3 O35_3 1_555 1_555
Mo11_3 O36_3 1_555 1_555
Mo12_3 O38_3 1_555 1_555
Mo12_3 O39_3 1_555 1_555
Mo1_4 O1_4 1_555 1_555
O1_4 Mo2_4 1_555 1_555
O2_4 Mo1_4 1_555 1_555
O3_4 Mo1_4 1_555 1_555
O4_4 Mo1_4 1_555 1_555
Si1_4 O3_4 1_555 1_555
O5_4 Si1_4 1_555 1_555
O6_4 Si1_4 1_555 1_555
O7_4 Si1_4 1_555 1_555
Mo2_4 O5_4 1_555 1_555
O8_4 Mo2_4 1_555 1_555
O9_4 Mo2_4 1_555 1_555
O10_4 Mo2_4 1_555 1_555
Mo3_4 O6_4 1_555 1_555
O11_4 Mo1_4 1_555 1_555
O12_4 Mo3_4 1_555 1_555
O13_4 Mo3_4 1_555 1_555
Mo4_4 O5_4 1_555 1_555
O14_4 Mo4_4 1_555 1_555
O15_4 Mo2_4 1_555 1_555
O16_4 Mo4_4 1_555 1_555
Mo5_4 O7_4 1_555 1_555
O17_4 Mo4_4 1_555 1_555
O18_4 Mo5_4 1_555 1_555
O19_4 Mo5_4 1_555 1_555
Mo6_4 O2_4 1_555 1_555
O20_4 Mo5_4 1_555 1_555
O21_4 Mo6_4 1_555 1_555
O22_4 Mo6_4 1_555 1_555
Mo7_4 O7_4 1_555 1_555
O23_4 Mo7_4 1_555 1_555
O24_4 Mo7_4 1_555 1_555
O25_4 Mo7_4 1_555 1_555
Mo8_4 O6_4 1_555 1_555
O26_4 Mo8_4 1_555 1_555
O27_4 Mo3_4 1_555 1_555
O28_4 Mo8_4 1_555 1_555
Mo9_4 O5_4 1_555 1_555
O29_4 Mo7_4 1_555 1_555
O30_4 Mo4_4 1_555 1_555
O31_4 Mo9_4 1_555 1_555
Mo10_4 O6_4 1_555 1_555
O32_4 Mo10_4 1_555 1_555
O33_4 Mo8_4 1_555 1_555
O34_4 Mo10_4 1_555 1_555
Mo11_4 O3_4 1_555 1_555
O35_4 Mo10_4 1_555 1_555
O36_4 Mo1_4 1_555 1_555
O37_4 Mo11_4 1_555 1_555
Mo12_4 O7_4 1_555 1_555
O38_4 Mo11_4 1_555 1_555
O39_4 Mo5_4 1_555 1_555
O40_4 Mo12_4 1_555 1_555
O3_4 Mo6_4 1_555 1_555
O8_4 Mo3_4 1_555 1_555
O9_4 Mo9_4 1_555 1_555
Mo3_4 O11_4 1_555 1_555
O12_4 Mo10_4 1_555 1_555
Mo4_4 O15_4 1_555 1_555
O14_4 Mo6_4 1_555 1_555
Mo5_4 O17_4 1_555 1_555
O18_4 Mo7_4 1_555 1_555
Mo6_4 O20_4 1_555 1_555
O21_4 Mo11_4 1_555 1_555
O23_4 Mo8_4 1_555 1_555
O24_4 Mo12_4 1_555 1_555
Mo8_4 O27_4 1_555 1_555
O26_4 Mo9_4 1_555 1_555
Mo9_4 O29_4 1_555 1_555
Mo9_4 O30_4 1_555 1_555
Mo10_4 O33_4 1_555 1_555
O32_4 Mo12_4 1_555 1_555
Mo11_4 O35_4 1_555 1_555
Mo11_4 O36_4 1_555 1_555
Mo12_4 O38_4 1_555 1_555
Mo12_4 O39_4 1_555 1_555
Mo1_5 O1_5 1_555 1_555
O1_5 Mo2_5 1_555 1_555
O2_5 Mo1_5 1_555 1_555
O3_5 Mo1_5 1_555 1_555
O4_5 Mo1_5 1_555 1_555
Si1_5 O3_5 1_555 1_555
O5_5 Si1_5 1_555 1_555
O6_5 Si1_5 1_555 1_555
O7_5 Si1_5 1_555 1_555
Mo2_5 O5_5 1_555 1_555
O8_5 Mo2_5 1_555 1_555
O9_5 Mo2_5 1_555 1_555
O10_5 Mo2_5 1_555 1_555
Mo3_5 O6_5 1_555 1_555
O11_5 Mo1_5 1_555 1_555
O12_5 Mo3_5 1_555 1_555
O13_5 Mo3_5 1_555 1_555
Mo4_5 O5_5 1_555 1_555
O14_5 Mo4_5 1_555 1_555
O15_5 Mo2_5 1_555 1_555
O16_5 Mo4_5 1_555 1_555
Mo5_5 O7_5 1_555 1_555
O17_5 Mo4_5 1_555 1_555
O18_5 Mo5_5 1_555 1_555
O19_5 Mo5_5 1_555 1_555
Mo6_5 O2_5 1_555 1_555
O20_5 Mo5_5 1_555 1_555
O21_5 Mo6_5 1_555 1_555
O22_5 Mo6_5 1_555 1_555
Mo7_5 O7_5 1_555 1_555
O23_5 Mo7_5 1_555 1_555
O24_5 Mo7_5 1_555 1_555
O25_5 Mo7_5 1_555 1_555
Mo8_5 O6_5 1_555 1_555
O26_5 Mo8_5 1_555 1_555
O27_5 Mo3_5 1_555 1_555
O28_5 Mo8_5 1_555 1_555
Mo9_5 O5_5 1_555 1_555
O29_5 Mo7_5 1_555 1_555
O30_5 Mo4_5 1_555 1_555
O31_5 Mo9_5 1_555 1_555
Mo10_5 O6_5 1_555 1_555
O32_5 Mo10_5 1_555 1_555
O33_5 Mo8_5 1_555 1_555
O34_5 Mo10_5 1_555 1_555
Mo11_5 O3_5 1_555 1_555
O35_5 Mo10_5 1_555 1_555
O36_5 Mo1_5 1_555 1_555
O37_5 Mo11_5 1_555 1_555
Mo12_5 O7_5 1_555 1_555
O38_5 Mo11_5 1_555 1_555
O39_5 Mo5_5 1_555 1_555
O40_5 Mo12_5 1_555 1_555
O3_5 Mo6_5 1_555 1_555
O8_5 Mo3_5 1_555 1_555
O9_5 Mo9_5 1_555 1_555
Mo3_5 O11_5 1_555 1_555
O12_5 Mo10_5 1_555 1_555
Mo4_5 O15_5 1_555 1_555
O14_5 Mo6_5 1_555 1_555
Mo5_5 O17_5 1_555 1_555
O18_5 Mo7_5 1_555 1_555
Mo6_5 O20_5 1_555 1_555
O21_5 Mo11_5 1_555 1_555
O23_5 Mo8_5 1_555 1_555
O24_5 Mo12_5 1_555 1_555
Mo8_5 O27_5 1_555 1_555
O26_5 Mo9_5 1_555 1_555
Mo9_5 O29_5 1_555 1_555
Mo9_5 O30_5 1_555 1_555
Mo10_5 O33_5 1_555 1_555
O32_5 Mo12_5 1_555 1_555
Mo11_5 O35_5 1_555 1_555
Mo11_5 O36_5 1_555 1_555
Mo12_5 O38_5 1_555 1_555
Mo12_5 O39_5 1_555 1_555
Mo1_6 O1_6 1_555 1_555
O1_6 Mo2_6 1_555 1_555
O2_6 Mo1_6 1_555 1_555
O3_6 Mo1_6 1_555 1_555
O4_6 Mo1_6 1_555 1_555
Si1_6 O3_6 1_555 1_555
O5_6 Si1_6 1_555 1_555
O6_6 Si1_6 1_555 1_555
O7_6 Si1_6 1_555 1_555
Mo2_6 O5_6 1_555 1_555
O8_6 Mo2_6 1_555 1_555
O9_6 Mo2_6 1_555 1_555
O10_6 Mo2_6 1_555 1_555
Mo3_6 O6_6 1_555 1_555
O11_6 Mo1_6 1_555 1_555
O12_6 Mo3_6 1_555 1_555
O13_6 Mo3_6 1_555 1_555
Mo4_6 O5_6 1_555 1_555
O14_6 Mo4_6 1_555 1_555
O15_6 Mo2_6 1_555 1_555
O16_6 Mo4_6 1_555 1_555
Mo5_6 O7_6 1_555 1_555
O17_6 Mo4_6 1_555 1_555
O18_6 Mo5_6 1_555 1_555
O19_6 Mo5_6 1_555 1_555
Mo6_6 O2_6 1_555 1_555
O20_6 Mo5_6 1_555 1_555
O21_6 Mo6_6 1_555 1_555
O22_6 Mo6_6 1_555 1_555
Mo7_6 O7_6 1_555 1_555
O23_6 Mo7_6 1_555 1_555
O24_6 Mo7_6 1_555 1_555
O25_6 Mo7_6 1_555 1_555
Mo8_6 O6_6 1_555 1_555
O26_6 Mo8_6 1_555 1_555
O27_6 Mo3_6 1_555 1_555
O28_6 Mo8_6 1_555 1_555
Mo9_6 O5_6 1_555 1_555
O29_6 Mo7_6 1_555 1_555
O30_6 Mo4_6 1_555 1_555
O31_6 Mo9_6 1_555 1_555
Mo10_6 O6_6 1_555 1_555
O32_6 Mo10_6 1_555 1_555
O33_6 Mo8_6 1_555 1_555
O34_6 Mo10_6 1_555 1_555
Mo11_6 O3_6 1_555 1_555
O35_6 Mo10_6 1_555 1_555
O36_6 Mo1_6 1_555 1_555
O37_6 Mo11_6 1_555 1_555
Mo12_6 O7_6 1_555 1_555
O38_6 Mo11_6 1_555 1_555
O39_6 Mo5_6 1_555 1_555
O40_6 Mo12_6 1_555 1_555
O3_6 Mo6_6 1_555 1_555
O8_6 Mo3_6 1_555 1_555
O9_6 Mo9_6 1_555 1_555
Mo3_6 O11_6 1_555 1_555
O12_6 Mo10_6 1_555 1_555
Mo4_6 O15_6 1_555 1_555
O14_6 Mo6_6 1_555 1_555
Mo5_6 O17_6 1_555 1_555
O18_6 Mo7_6 1_555 1_555
Mo6_6 O20_6 1_555 1_555
O21_6 Mo11_6 1_555 1_555
O23_6 Mo8_6 1_555 1_555
O24_6 Mo12_6 1_555 1_555
Mo8_6 O27_6 1_555 1_555
O26_6 Mo9_6 1_555 1_555
Mo9_6 O29_6 1_555 1_555
Mo9_6 O30_6 1_555 1_555
Mo10_6 O33_6 1_555 1_555
O32_6 Mo12_6 1_555 1_555
Mo11_6 O35_6 1_555 1_555
Mo11_6 O36_6 1_555 1_555
Mo12_6 O38_6 1_555 1_555
Mo12_6 O39_6 1_555 1_555
Mo1_7 O1_7 1_555 1_555
O1_7 Mo2_7 1_555 1_555
O2_7 Mo1_7 1_555 1_555
O3_7 Mo1_7 1_555 1_555
O4_7 Mo1_7 1_555 1_555
Si1_7 O3_7 1_555 1_555
O5_7 Si1_7 1_555 1_555
O6_7 Si1_7 1_555 1_555
O7_7 Si1_7 1_555 1_555
Mo2_7 O5_7 1_555 1_555
O8_7 Mo2_7 1_555 1_555
O9_7 Mo2_7 1_555 1_555
O10_7 Mo2_7 1_555 1_555
Mo3_7 O6_7 1_555 1_555
O11_7 Mo1_7 1_555 1_555
O12_7 Mo3_7 1_555 1_555
O13_7 Mo3_7 1_555 1_555
Mo4_7 O5_7 1_555 1_555
O14_7 Mo4_7 1_555 1_555
O15_7 Mo2_7 1_555 1_555
O16_7 Mo4_7 1_555 1_555
Mo5_7 O7_7 1_555 1_555
O17_7 Mo4_7 1_555 1_555
O18_7 Mo5_7 1_555 1_555
O19_7 Mo5_7 1_555 1_555
Mo6_7 O2_7 1_555 1_555
O20_7 Mo5_7 1_555 1_555
O21_7 Mo6_7 1_555 1_555
O22_7 Mo6_7 1_555 1_555
Mo7_7 O7_7 1_555 1_555
O23_7 Mo7_7 1_555 1_555
O24_7 Mo7_7 1_555 1_555
O25_7 Mo7_7 1_555 1_555
Mo8_7 O6_7 1_555 1_555
O26_7 Mo8_7 1_555 1_555
O27_7 Mo3_7 1_555 1_555
O28_7 Mo8_7 1_555 1_555
Mo9_7 O5_7 1_555 1_555
O29_7 Mo7_7 1_555 1_555
O30_7 Mo4_7 1_555 1_555
O31_7 Mo9_7 1_555 1_555
Mo10_7 O6_7 1_555 1_555
O32_7 Mo10_7 1_555 1_555
O33_7 Mo8_7 1_555 1_555
O34_7 Mo10_7 1_555 1_555
Mo11_7 O3_7 1_555 1_555
O35_7 Mo10_7 1_555 1_555
O36_7 Mo1_7 1_555 1_555
O37_7 Mo11_7 1_555 1_555
Mo12_7 O7_7 1_555 1_555
O38_7 Mo11_7 1_555 1_555
O39_7 Mo5_7 1_555 1_555
O40_7 Mo12_7 1_555 1_555
O3_7 Mo6_7 1_555 1_555
O8_7 Mo3_7 1_555 1_555
O9_7 Mo9_7 1_555 1_555
Mo3_7 O11_7 1_555 1_555
O12_7 Mo10_7 1_555 1_555
Mo4_7 O15_7 1_555 1_555
O14_7 Mo6_7 1_555 1_555
Mo5_7 O17_7 1_555 1_555
O18_7 Mo7_7 1_555 1_555
Mo6_7 O20_7 1_555 1_555
O21_7 Mo11_7 1_555 1_555
O23_7 Mo8_7 1_555 1_555
O24_7 Mo12_7 1_555 1_555
Mo8_7 O27_7 1_555 1_555
O26_7 Mo9_7 1_555 1_555
Mo9_7 O29_7 1_555 1_555
Mo9_7 O30_7 1_555 1_555
Mo10_7 O33_7 1_555 1_555
O32_7 Mo12_7 1_555 1_555
Mo11_7 O35_7 1_555 1_555
Mo11_7 O36_7 1_555 1_555
Mo12_7 O38_7 1_555 1_555
Mo12_7 O39_7 1_555 1_555
Mo1_8 O1_8 1_555 1_555
O1_8 Mo2_8 1_555 1_555
O2_8 Mo1_8 1_555 1_555
O3_8 Mo1_8 1_555 1_555
O4_8 Mo1_8 1_555 1_555
Si1_8 O3_8 1_555 1_555
O5_8 Si1_8 1_555 1_555
O6_8 Si1_8 1_555 1_555
O7_8 Si1_8 1_555 1_555
Mo2_8 O5_8 1_555 1_555
O8_8 Mo2_8 1_555 1_555
O9_8 Mo2_8 1_555 1_555
O10_8 Mo2_8 1_555 1_555
Mo3_8 O6_8 1_555 1_555
O11_8 Mo1_8 1_555 1_555
O12_8 Mo3_8 1_555 1_555
O13_8 Mo3_8 1_555 1_555
Mo4_8 O5_8 1_555 1_555
O14_8 Mo4_8 1_555 1_555
O15_8 Mo2_8 1_555 1_555
O16_8 Mo4_8 1_555 1_555
Mo5_8 O7_8 1_555 1_555
O17_8 Mo4_8 1_555 1_555
O18_8 Mo5_8 1_555 1_555
O19_8 Mo5_8 1_555 1_555
Mo6_8 O2_8 1_555 1_555
O20_8 Mo5_8 1_555 1_555
O21_8 Mo6_8 1_555 1_555
O22_8 Mo6_8 1_555 1_555
Mo7_8 O7_8 1_555 1_555
O23_8 Mo7_8 1_555 1_555
O24_8 Mo7_8 1_555 1_555
O25_8 Mo7_8 1_555 1_555
Mo8_8 O6_8 1_555 1_555
O26_8 Mo8_8 1_555 1_555
O27_8 Mo3_8 1_555 1_555
O28_8 Mo8_8 1_555 1_555
Mo9_8 O5_8 1_555 1_555
O29_8 Mo7_8 1_555 1_555
O30_8 Mo4_8 1_555 1_555
O31_8 Mo9_8 1_555 1_555
Mo10_8 O6_8 1_555 1_555
O32_8 Mo10_8 1_555 1_555
O33_8 Mo8_8 1_555 1_555
O34_8 Mo10_8 1_555 1_555
Mo11_8 O3_8 1_555 1_555
O35_8 Mo10_8 1_555 1_555
O36_8 Mo1_8 1_555 1_555
O37_8 Mo11_8 1_555 1_555
Mo12_8 O7_8 1_555 1_555
O38_8 Mo11_8 1_555 1_555
O39_8 Mo5_8 1_555 1_555
O40_8 Mo12_8 1_555 1_555
O3_8 Mo6_8 1_555 1_555
O8_8 Mo3_8 1_555 1_555
O9_8 Mo9_8 1_555 1_555
Mo3_8 O11_8 1_555 1_555
O12_8 Mo10_8 1_555 1_555
Mo4_8 O15_8 1_555 1_555
O14_8 Mo6_8 1_555 1_555
Mo5_8 O17_8 1_555 1_555
O18_8 Mo7_8 1_555 1_555
Mo6_8 O20_8 1_555 1_555
O21_8 Mo11_8 1_555 1_555
O23_8 Mo8_8 1_555 1_555
O24_8 Mo12_8 1_555 1_555
Mo8_8 O27_8 1_555 1_555
O26_8 Mo9_8 1_555 1_555
Mo9_8 O29_8 1_555 1_555
Mo9_8 O30_8 1_555 1_555
Mo10_8 O33_8 1_555 1_555
O32_8 Mo12_8 1_555 1_555
Mo11_8 O35_8 1_555 1_555
Mo11_8 O36_8 1_555 1_555
Mo12_8 O38_8 1_555 1_555
Mo12_8 O39_8 1_555 1_555
Cu1 Cu2 1_555 1_555
O43 Cu1 1_555 1_555
O44 Cu2 1_555 1_555
Cu10 N13 1_555 1_555
O67 Cu1 1_555 1_555
O68 Cu2 1_555 1_555
N13 N14 1_555 1_555
C28 O67 1_555 1_555
N14 C33 1_555 1_555
C29 C28 1_555 1_555
O69 Cu10 1_555 1_555
C30 C29 1_555 1_555
H10 C30 1_555 1_555
C31 C30 1_555 1_555
C32 C29 1_555 1_555
H11 C32 1_555 1_555
C33 C31 1_555 1_555
O70 Cu10 1_555 1_555
O71 C34 1_555 1_555
O72 C34 1_555 1_555
N15 N13 1_555 1_555
C34 C35 1_555 1_555
N16 C33 1_555 1_555
C35 C32 1_555 1_555
C36 C31 1_555 1_555
H12 C36 1_555 1_555
Cu12 N21 1_555 1_555
O79 C46 1_555 1_555
O80 C46 1_555 1_555
N21 N22 1_555 1_555
C46 C47 1_555 1_555
N22 C51 1_555 1_555
C47 C48 1_555 1_555
O81 Cu12 1_555 1_555
C48 H16 1_555 1_555
C49 C48 1_555 1_555
C50 C47 1_555 1_555
H17 C50 1_555 1_555
C51 C49 1_555 1_555
O82 Cu12 1_555 1_555
O83 Cu1 1_555 1_555
O84 Cu2 1_555 1_555
N23 N21 1_555 1_555
C52 O83 1_555 1_555
N24 C51 1_555 1_555
C53 C50 1_555 1_555
C54 C49 1_555 1_555
H18 C54 1_555 1_555
Cu13 O79 1_555 1_555
Cu14 O71 1_555 1_555
Cu16 O80 1_555 1_555
Cu17 O72 1_555 1_555
Cu23 N15 1_555 1_555
Cu26 N23 1_555 1_555
N25 Cu12 1_555 1_555
N29 Cu10 1_555 1_555
O92 Cu10 1_555 1_555
O94 Cu12 1_555 1_555
O68 C28 1_555 1_555
N15 N16 1_555 1_555
C35 C36 1_555 1_555
O84 C52 1_555 1_555
N23 N24 1_555 1_555
C52 C53 1_555 1_555
C53 C54 1_555 1_555
Cu13 Cu16 1_555 1_555
Cu14 Cu17 1_555 1_555
Cu23 O92 1_555 1_555
Cu26 O94 1_555 1_555
Cu1_2 Cu2_2 1_555 1_555
Cu2_2 O42 1_555 1_555
Cu3 N1 1_555 1_555
O41 Cu1_2 1_555 1_555
O42 C1 1_555 1_555
O43_2 Cu1_2 1_555 1_555
N1 N2 1_555 1_555
C1 O41 1_555 1_555
N2 C6 1_555 1_555
O44_2 Cu2_2 1_555 1_555
O45 Cu3 1_555 1_555
C2 C1 1_555 1_555
O46 Cu3 1_555 1_555
C3 C2 1_555 1_555
H1 C3 1_555 1_555
C4 C3 1_555 1_555
C5 C2 1_555 1_555
H2 C5 1_555 1_555
C6 C4 1_555 1_555
O47 Cu3 1_555 1_555
O48 C7 1_555 1_555
O49 C7 1_555 1_555
N3 N1 1_555 1_555
C7 C8 1_555 1_555
N4 C6 1_555 1_555
C8 C5 1_555 1_555
C9 C4 1_555 1_555
H3 C9 1_555 1_555
Cu4 O48 1_555 1_555
Cu5 O49 1_555 1_555
Cu6 N5 1_555 1_555
O50 Cu4 1_555 1_555
O51 Cu5 1_555 1_555
O52 Cu4 1_555 1_555
N5 N6 1_555 1_555
C10 O50 1_555 1_555
N6 C15 1_555 1_555
O53 Cu5 1_555 1_555
O54 Cu6 1_555 1_555
C11 C10 1_555 1_555
O55 Cu6 1_555 1_555
C12 C11 1_555 1_555
H4 C12 1_555 1_555
C13 C12 1_555 1_555
C14 C11 1_555 1_555
H5 C14 1_555 1_555
C15 C13 1_555 1_555
O56 Cu6 1_555 1_555
O57 C16 1_555 1_555
O58 C16 1_555 1_555
N7 N5 1_555 1_555
C16 C17 1_555 1_555
N8 C15 1_555 1_555
C17 C14 1_555 1_555
C18 C13 1_555 1_555
H6 C18 1_555 1_555
Cu7 O57 1_555 1_555
Cu8 O58 1_555 1_555
Cu9 N9 1_555 1_555
O59 Cu7 1_555 1_555
O60 Cu8 1_555 1_555
O61 Cu7 1_555 1_555
N9 N10 1_555 1_555
C19 O59 1_555 1_555
N10 C24 1_555 1_555
O62 Cu8 1_555 1_555
C20 C19 1_555 1_555
O63 Cu9 1_555 1_555
C21 C20 1_555 1_555
H7 C21 1_555 1_555
C22 C21 1_555 1_555
C23 C20 1_555 1_555
H8 C23 1_555 1_555
C24 C22 1_555 1_555
O64 Cu9 1_555 1_555
O65 Cu1_2 1_555 1_555
O66 Cu2_2 1_555 1_555
N11 N9 1_555 1_555
C25 O65 1_555 1_555
N12 C24 1_555 1_555
C26 C23 1_555 1_555
C27 C22 1_555 1_555
H9 C27 1_555 1_555
Cu19 O54 1_555 1_555
Cu20 O45 1_555 1_555
Cu22 O54 1_555 1_555
Cu24 N11 1_555 1_555
Cu25 O45 1_555 1_555
N26 Cu6 1_555 1_555
N28 Cu9 1_555 1_555
N30 Cu3 1_555 1_555
O91 Cu9 1_555 1_555
N3 N4 1_555 1_555
N3 Cu20 1_555 1_555
C8 C9 1_555 1_555
Cu4 Cu5 1_555 1_555
O51 C10 1_555 1_555
N7 N8 1_555 1_555
N7 Cu22 1_555 1_555
C17 C18 1_555 1_555
Cu7 Cu8 1_555 1_555
O60 C19 1_555 1_555
O66 C25 1_555 1_555
N11 N12 1_555 1_555
C25 C26 1_555 1_555
C26 C27 1_555 1_555
Cu24 O91 1_555 1_555
Cu14_2 Cu17_2 1_555 1_555
O61_2 Cu7_2 1_555 1_555
O62_2 Cu8_2 1_555 1_555
O85 Cu7_2 1_555 1_555
O87 Cu7_2 1_555 1_555
O88 Cu8_2 1_555 1_555
O90 Cu8_2 1_555 1_555
Cu7_2 Cu8_2 1_555 1_555
Cu13_2 Cu16_2 1_555 1_555
O52_2 Cu4_2 1_555 1_555
O53_2 Cu5_2 1_555 1_555
Cu11 N17 1_555 1_555
O73 C37 1_555 1_555
O74 C37 1_555 1_555
N17 N18 1_555 1_555
C37 C38 1_555 1_555
N18 C42 1_555 1_555
C38 C39 1_555 1_555
O75 Cu11 1_555 1_555
C39 H13 1_555 1_555
C40 C39 1_555 1_555
C41 C38 1_555 1_555
H14 C41 1_555 1_555
C42 C40 1_555 1_555
O76 Cu11 1_555 1_555
O77 Cu4_2 1_555 1_555
O78 Cu5_2 1_555 1_555
N19 N17 1_555 1_555
C43 O77 1_555 1_555
N20 C42 1_555 1_555
C44 C41 1_555 1_555
C45 C40 1_555 1_555
H15 C45 1_555 1_555
Cu15 O73 1_555 1_555
Cu18 O74 1_555 1_555
Cu21 N19 1_555 1_555
O86 Cu4_2 1_555 1_555
O89 Cu5_2 1_555 1_555
N27 Cu11 1_555 1_555
O93 Cu11 1_555 1_555
Cu4_2 Cu5_2 1_555 1_555
O78 C43 1_555 1_555
N19 N20 1_555 1_555
C43 C44 1_555 1_555
C44 C45 1_555 1_555
Cu15 Cu18 1_555 1_555
Cu21 O93 1_555 1_555
Cu15_2 Cu18_2 1_555 1_555
Cu13_3 Cu16_3 1_555 1_555
O52_3 Cu4_3 1_555 1_555
O53_3 Cu5_3 1_555 1_555
Cu11_2 N17_2 1_555 1_555
O85 C37_2 1_555 1_555
O88 C37_2 1_555 1_555
N17_2 N18_2 1_555 1_555
C37_2 C38_2 1_555 1_555
N18_2 C42_2 1_555 1_555
C38_2 C39_2 1_555 1_555
O75_2 Cu11_2 1_555 1_555
C39_2 H13_2 1_555 1_555
C40_2 C39_2 1_555 1_555
C41_2 C38_2 1_555 1_555
H14_2 C41_2 1_555 1_555
C42_2 C40_2 1_555 1_555
O76_2 Cu11_2 1_555 1_555
O77_2 Cu4_3 1_555 1_555
O78_2 Cu5_3 1_555 1_555
N19_2 N17_2 1_555 1_555
C43_2 O77_2 1_555 1_555
N20_2 C42_2 1_555 1_555
C44_2 C41_2 1_555 1_555
C45_2 C40_2 1_555 1_555
H15_2 C45_2 1_555 1_555
Cu21_2 N19_2 1_555 1_555
O86_2 Cu4_3 1_555 1_555
O89_2 Cu5_3 1_555 1_555
N27_2 Cu11_2 1_555 1_555
O93_2 Cu11_2 1_555 1_555
Cu4_3 Cu5_3 1_555 1_555
O78_2 C43_2 1_555 1_555
N19_2 N20_2 1_555 1_555
C43_2 C44_2 1_555 1_555
C44_2 C45_2 1_555 1_555
Cu21_2 O93_2 1_555 1_555
Cu14_3 Cu17_3 1_555 1_555
O61_3 Cu15 1_555 1_555
O62_3 Cu18 1_555 1_555
O87_2 Cu15 1_555 1_555
O90_2 Cu18 1_555 1_555
Cu1_3 Cu2_3 1_555 1_555
O43_3 Cu1_3 1_555 1_555
O44_3 Cu2_3 1_555 1_555
Cu10_2 N13_2 1_555 1_555
O67_2 Cu1_3 1_555 1_555
O68_2 Cu2_3 1_555 1_555
N13_2 N14_2 1_555 1_555
C28_2 O67_2 1_555 1_555
N14_2 C33_2 1_555 1_555
C29_2 C28_2 1_555 1_555
O69_2 Cu10_2 1_555 1_555
C30_2 C29_2 1_555 1_555
H10_2 C30_2 1_555 1_555
C31_2 C30_2 1_555 1_555
C32_2 C29_2 1_555 1_555
H11_2 C32_2 1_555 1_555
C33_2 C31_2 1_555 1_555
O70_2 Cu10_2 1_555 1_555
O71_2 C34_2 1_555 1_555
O72_2 C34_2 1_555 1_555
N15_2 N13_2 1_555 1_555
C34_2 C35_2 1_555 1_555
N16_2 C33_2 1_555 1_555
C35_2 C32_2 1_555 1_555
C36_2 C31_2 1_555 1_555
H12_2 C36_2 1_555 1_555
Cu12_2 N21_2 1_555 1_555
O79_2 C46_2 1_555 1_555
O80_2 C46_2 1_555 1_555
N21_2 N22_2 1_555 1_555
C46_2 C47_2 1_555 1_555
N22_2 C51_2 1_555 1_555
C47_2 C48_2 1_555 1_555
O81_2 Cu12_2 1_555 1_555
C48_2 H16_2 1_555 1_555
C49_2 C48_2 1_555 1_555
C50_2 C47_2 1_555 1_555
H17_2 C50_2 1_555 1_555
C51_2 C49_2 1_555 1_555
O82_2 Cu12_2 1_555 1_555
O83_2 Cu1_3 1_555 1_555
O84_2 Cu2_3 1_555 1_555
N23_2 N21_2 1_555 1_555
C52_2 O83_2 1_555 1_555
N24_2 C51_2 1_555 1_555
C53_2 C50_2 1_555 1_555
C54_2 C49_2 1_555 1_555
H18_2 C54_2 1_555 1_555
Cu13_4 O79_2 1_555 1_555
Cu14_4 O71_2 1_555 1_555
Cu16_4 O80_2 1_555 1_555
Cu17_4 O72_2 1_555 1_555
Cu23_2 N15_2 1_555 1_555
Cu26_2 N23_2 1_555 1_555
N25_2 Cu12_2 1_555 1_555
N29_2 Cu10_2 1_555 1_555
O92_2 Cu10_2 1_555 1_555
O94_2 Cu12_2 1_555 1_555
O68_2 C28_2 1_555 1_555
N15_2 N16_2 1_555 1_555
C35_2 C36_2 1_555 1_555
O84_2 C52_2 1_555 1_555
N23_2 N24_2 1_555 1_555
C52_2 C53_2 1_555 1_555
C53_2 C54_2 1_555 1_555
Cu13_4 Cu16_4 1_555 1_555
Cu14_4 Cu17_4 1_555 1_555
Cu23_2 O92_2 1_555 1_555
Cu26_2 O94_2 1_555 1_555
Cu1_4 Cu2_4 1_555 1_555
Cu2_4 O42_2 1_555 1_555
Cu3_2 N1_2 1_555 1_555
O41_2 Cu1_4 1_555 1_555
O42_2 C1_2 1_555 1_555
O43_4 Cu1_4 1_555 1_555
N1_2 N2_2 1_555 1_555
C1_2 O41_2 1_555 1_555
N2_2 C6_2 1_555 1_555
O44_4 Cu2_4 1_555 1_555
O45_2 Cu3_2 1_555 1_555
C2_2 C1_2 1_555 1_555
O46_2 Cu3_2 1_555 1_555
C3_2 C2_2 1_555 1_555
H1_2 C3_2 1_555 1_555
C4_2 C3_2 1_555 1_555
C5_2 C2_2 1_555 1_555
H2_2 C5_2 1_555 1_555
C6_2 C4_2 1_555 1_555
O47_2 Cu3_2 1_555 1_555
O48_2 C7_2 1_555 1_555
O49_2 C7_2 1_555 1_555
N3_2 N1_2 1_555 1_555
C7_2 C8_2 1_555 1_555
N4_2 C6_2 1_555 1_555
C8_2 C5_2 1_555 1_555
C9_2 C4_2 1_555 1_555
H3_2 C9_2 1_555 1_555
Cu4_4 O48_2 1_555 1_555
Cu5_4 O49_2 1_555 1_555
Cu6_2 N5_2 1_555 1_555
O50_2 Cu4_4 1_555 1_555
O51_2 Cu5_4 1_555 1_555
O52_4 Cu4_4 1_555 1_555
N5_2 N6_2 1_555 1_555
C10_2 O50_2 1_555 1_555
N6_2 C15_2 1_555 1_555
O53_4 Cu5_4 1_555 1_555
O54_2 Cu6_2 1_555 1_555
C11_2 C10_2 1_555 1_555
O55_2 Cu6_2 1_555 1_555
C12_2 C11_2 1_555 1_555
H4_2 C12_2 1_555 1_555
C13_2 C12_2 1_555 1_555
C14_2 C11_2 1_555 1_555
H5_2 C14_2 1_555 1_555
C15_2 C13_2 1_555 1_555
O56_2 Cu6_2 1_555 1_555
O57_2 C16_2 1_555 1_555
O58_2 C16_2 1_555 1_555
N7_2 N5_2 1_555 1_555
C16_2 C17_2 1_555 1_555
N8_2 C15_2 1_555 1_555
C17_2 C14_2 1_555 1_555
C18_2 C13_2 1_555 1_555
H6_2 C18_2 1_555 1_555
Cu15_2 O57_2 1_555 1_555
Cu18_2 O58_2 1_555 1_555
Cu9_2 N9_2 1_555 1_555
O59_2 Cu15_2 1_555 1_555
O60_2 Cu18_2 1_555 1_555
O61_4 Cu15_2 1_555 1_555
N9_2 N10_2 1_555 1_555
C19_2 O59_2 1_555 1_555
N10_2 C24_2 1_555 1_555
O62_4 Cu18_2 1_555 1_555
C20_2 C19_2 1_555 1_555
O63_2 Cu9_2 1_555 1_555
C21_2 C20_2 1_555 1_555
H7_2 C21_2 1_555 1_555
C22_2 C21_2 1_555 1_555
C23_2 C20_2 1_555 1_555
H8_2 C23_2 1_555 1_555
C24_2 C22_2 1_555 1_555
O64_2 Cu9_2 1_555 1_555
O65_2 Cu1_4 1_555 1_555
O66_2 Cu2_4 1_555 1_555
N11_2 N9_2 1_555 1_555
C25_2 O65_2 1_555 1_555
N12_2 C24_2 1_555 1_555
C26_2 C23_2 1_555 1_555
C27_2 C22_2 1_555 1_555
H9_2 C27_2 1_555 1_555
Cu19_2 O54_2 1_555 1_555
Cu20_2 O45_2 1_555 1_555
Cu22_2 O54_2 1_555 1_555
Cu24_2 N11_2 1_555 1_555
Cu25_2 O45_2 1_555 1_555
N26_2 Cu6_2 1_555 1_555
N28_2 Cu9_2 1_555 1_555
N30_2 Cu3_2 1_555 1_555
O91_2 Cu9_2 1_555 1_555
N3_2 N4_2 1_555 1_555
N3_2 Cu20_2 1_555 1_555
C8_2 C9_2 1_555 1_555
Cu4_4 Cu5_4 1_555 1_555
O51_2 C10_2 1_555 1_555
N7_2 N8_2 1_555 1_555
N7_2 Cu22_2 1_555 1_555
C17_2 C18_2 1_555 1_555
O60_2 C19_2 1_555 1_555
O66_2 C25_2 1_555 1_555
N11_2 N12_2 1_555 1_555
C25_2 C26_2 1_555 1_555
C26_2 C27_2 1_555 1_555
Cu24_2 O91_2 1_555 1_555
O61_5 Cu14 1_555 1_555
O62_5 Cu17 1_555 1_555
O85_2 Cu14 1_555 1_555
O88_2 Cu17 1_555 1_555
Cu1_5 Cu2_5 1_555 1_555
Cu2_5 O42_3 1_555 1_555
Cu3_3 N1_3 1_555 1_555
O41_3 Cu1_5 1_555 1_555
O42_3 C1_3 1_555 1_555
O43_5 Cu1_5 1_555 1_555
N1_3 N2_3 1_555 1_555
C1_3 O41_3 1_555 1_555
N2_3 C6_3 1_555 1_555
O44_5 Cu2_5 1_555 1_555
O45_3 Cu3_3 1_555 1_555
C2_3 C1_3 1_555 1_555
O46_3 Cu3_3 1_555 1_555
C3_3 C2_3 1_555 1_555
H1_3 C3_3 1_555 1_555
C4_3 C3_3 1_555 1_555
C5_3 C2_3 1_555 1_555
H2_3 C5_3 1_555 1_555
C6_3 C4_3 1_555 1_555
O47_3 Cu3_3 1_555 1_555
O48_3 C7_3 1_555 1_555
O49_3 C7_3 1_555 1_555
N3_3 N1_3 1_555 1_555
C7_3 C8_3 1_555 1_555
N4_3 C6_3 1_555 1_555
C8_3 C5_3 1_555 1_555
C9_3 C4_3 1_555 1_555
H3_3 C9_3 1_555 1_555
Cu13_3 O48_3 1_555 1_555
Cu16_3 O49_3 1_555 1_555
Cu6_3 N5_3 1_555 1_555
O50_3 Cu13_3 1_555 1_555
O51_3 Cu16_3 1_555 1_555
O52_5 Cu13_3 1_555 1_555
N5_3 N6_3 1_555 1_555
C10_3 O50_3 1_555 1_555
N6_3 C15_3 1_555 1_555
O53_5 Cu16_3 1_555 1_555
O54_3 Cu6_3 1_555 1_555
C11_3 C10_3 1_555 1_555
O55_3 Cu6_3 1_555 1_555
C12_3 C11_3 1_555 1_555
H4_3 C12_3 1_555 1_555
C13_3 C12_3 1_555 1_555
C14_3 C11_3 1_555 1_555
H5_3 C14_3 1_555 1_555
C15_3 C13_3 1_555 1_555
O56_3 Cu6_3 1_555 1_555
O57_3 C16_3 1_555 1_555
O58_3 C16_3 1_555 1_555
N7_3 N5_3 1_555 1_555
C16_3 C17_3 1_555 1_555
N8_3 C15_3 1_555 1_555
C17_3 C14_3 1_555 1_555
C18_3 C13_3 1_555 1_555
H6_3 C18_3 1_555 1_555
Cu14_2 O57_3 1_555 1_555
Cu17_2 O58_3 1_555 1_555
Cu9_3 N9_3 1_555 1_555
O59_3 Cu14_2 1_555 1_555
O60_3 Cu17_2 1_555 1_555
O61_6 Cu14_2 1_555 1_555
N9_3 N10_3 1_555 1_555
C19_3 O59_3 1_555 1_555
N10_3 C24_3 1_555 1_555
O62_6 Cu17_2 1_555 1_555
C20_3 C19_3 1_555 1_555
O63_3 Cu9_3 1_555 1_555
C21_3 C20_3 1_555 1_555
H7_3 C21_3 1_555 1_555
C22_3 C21_3 1_555 1_555
C23_3 C20_3 1_555 1_555
H8_3 C23_3 1_555 1_555
C24_3 C22_3 1_555 1_555
O64_3 Cu9_3 1_555 1_555
O65_3 Cu1_5 1_555 1_555
O66_3 Cu2_5 1_555 1_555
N11_3 N9_3 1_555 1_555
C25_3 O65_3 1_555 1_555
N12_3 C24_3 1_555 1_555
C26_3 C23_3 1_555 1_555
C27_3 C22_3 1_555 1_555
H9_3 C27_3 1_555 1_555
Cu19_3 O54_3 1_555 1_555
Cu20_3 O45_3 1_555 1_555
Cu22_3 O54_3 1_555 1_555
Cu24_3 N11_3 1_555 1_555
Cu25_3 O45_3 1_555 1_555
N26_3 Cu6_3 1_555 1_555
N28_3 Cu9_3 1_555 1_555
N30_3 Cu3_3 1_555 1_555
O91_3 Cu9_3 1_555 1_555
N3_3 N4_3 1_555 1_555
N3_3 Cu20_3 1_555 1_555
C8_3 C9_3 1_555 1_555
O51_3 C10_3 1_555 1_555
N7_3 N8_3 1_555 1_555
N7_3 Cu22_3 1_555 1_555
C17_3 C18_3 1_555 1_555
O60_3 C19_3 1_555 1_555
O66_3 C25_3 1_555 1_555
N11_3 N12_3 1_555 1_555
C25_3 C26_3 1_555 1_555
C26_3 C27_3 1_555 1_555
Cu24_3 O91_3 1_555 1_555
Cu1_6 Cu2_6 1_555 1_555
O43_6 Cu1_6 1_555 1_555
O44_6 Cu2_6 1_555 1_555
Cu10_3 N13_3 1_555 1_555
O67_3 Cu1_6 1_555 1_555
O68_3 Cu2_6 1_555 1_555
N13_3 N14_3 1_555 1_555
C28_3 O67_3 1_555 1_555
N14_3 C33_3 1_555 1_555
C29_3 C28_3 1_555 1_555
O69_3 Cu10_3 1_555 1_555
C30_3 C29_3 1_555 1_555
H10_3 C30_3 1_555 1_555
C31_3 C30_3 1_555 1_555
C32_3 C29_3 1_555 1_555
H11_3 C32_3 1_555 1_555
C33_3 C31_3 1_555 1_555
O70_3 Cu10_3 1_555 1_555
O87 C34_3 1_555 1_555
O90 C34_3 1_555 1_555
N15_3 N13_3 1_555 1_555
C34_3 C35_3 1_555 1_555
N16_3 C33_3 1_555 1_555
C35_3 C32_3 1_555 1_555
C36_3 C31_3 1_555 1_555
H12_3 C36_3 1_555 1_555
Cu12_3 N21_3 1_555 1_555
O86_2 C46_3 1_555 1_555
O89_2 C46_3 1_555 1_555
N21_3 N22_3 1_555 1_555
C46_3 C47_3 1_555 1_555
N22_3 C51_3 1_555 1_555
C47_3 C48_3 1_555 1_555
O81_3 Cu12_3 1_555 1_555
C48_3 H16_3 1_555 1_555
C49_3 C48_3 1_555 1_555
C50_3 C47_3 1_555 1_555
H17_3 C50_3 1_555 1_555
C51_3 C49_3 1_555 1_555
O82_3 Cu12_3 1_555 1_555
O83_3 Cu1_6 1_555 1_555
O84_3 Cu2_6 1_555 1_555
N23_3 N21_3 1_555 1_555
C52_3 O83_3 1_555 1_555
N24_3 C51_3 1_555 1_555
C53_3 C50_3 1_555 1_555
C54_3 C49_3 1_555 1_555
H18_3 C54_3 1_555 1_555
Cu23_3 N15_3 1_555 1_555
Cu26_3 N23_3 1_555 1_555
N25_3 Cu12_3 1_555 1_555
N29_3 Cu10_3 1_555 1_555
O92_3 Cu10_3 1_555 1_555
O94_3 Cu12_3 1_555 1_555
O68_3 C28_3 1_555 1_555
N15_3 N16_3 1_555 1_555
C35_3 C36_3 1_555 1_555
O84_3 C52_3 1_555 1_555
N23_3 N24_3 1_555 1_555
C52_3 C53_3 1_555 1_555
C53_3 C54_3 1_555 1_555
Cu23_3 O92_3 1_555 1_555
Cu26_3 O94_3 1_555 1_555
O52_6 Cu13_4 1_555 1_555
O53_6 Cu16_4 1_555 1_555
Cu11_3 N17_3 1_555 1_555
O73_2 C37_3 1_555 1_555
O74_2 C37_3 1_555 1_555
N17_3 N18_3 1_555 1_555
C37_3 C38_3 1_555 1_555
N18_3 C42_3 1_555 1_555
C38_3 C39_3 1_555 1_555
O75_3 Cu11_3 1_555 1_555
C39_3 H13_3 1_555 1_555
C40_3 C39_3 1_555 1_555
C41_3 C38_3 1_555 1_555
H14_3 C41_3 1_555 1_555
C42_3 C40_3 1_555 1_555
O76_3 Cu11_3 1_555 1_555
O77_3 Cu13_4 1_555 1_555
O78_3 Cu16_4 1_555 1_555
N19_3 N17_3 1_555 1_555
C43_3 O77_3 1_555 1_555
N20_3 C42_3 1_555 1_555
C44_3 C41_3 1_555 1_555
C45_3 C40_3 1_555 1_555
H15_3 C45_3 1_555 1_555
Cu14_4 O73_2 1_555 1_555
Cu17_4 O74_2 1_555 1_555
Cu21_3 N19_3 1_555 1_555
N27_3 Cu11_3 1_555 1_555
O93_3 Cu11_3 1_555 1_555
O78_3 C43_3 1_555 1_555
N19_3 N20_3 1_555 1_555
C43_3 C44_3 1_555 1_555
C44_3 C45_3 1_555 1_555
Cu21_3 O93_3 1_555 1_555
O52_7 Cu13 1_555 1_555
O53_7 Cu16 1_555 1_555
Cu11_4 N17_4 1_555 1_555
O85_2 C37_4 1_555 1_555
O88_2 C37_4 1_555 1_555
N17_4 N18_4 1_555 1_555
C37_4 C38_4 1_555 1_555
N18_4 C42_4 1_555 1_555
C38_4 C39_4 1_555 1_555
O75_4 Cu11_4 1_555 1_555
C39_4 H13_4 1_555 1_555
C40_4 C39_4 1_555 1_555
C41_4 C38_4 1_555 1_555
H14_4 C41_4 1_555 1_555
C42_4 C40_4 1_555 1_555
O76_4 Cu11_4 1_555 1_555
O77_4 Cu13 1_555 1_555
O78_4 Cu16 1_555 1_555
N19_4 N17_4 1_555 1_555
C43_4 O77_4 1_555 1_555
N20_4 C42_4 1_555 1_555
C44_4 C41_4 1_555 1_555
C45_4 C40_4 1_555 1_555
H15_4 C45_4 1_555 1_555
Cu21_4 N19_4 1_555 1_555
N27_4 Cu11_4 1_555 1_555
O93_4 Cu11_4 1_555 1_555
O78_4 C43_4 1_555 1_555
N19_4 N20_4 1_555 1_555
C43_4 C44_4 1_555 1_555
C44_4 C45_4 1_555 1_555
Cu21_4 O93_4 1_555 1_555
Cu1_7 Cu2_7 1_555 1_555
Cu2_7 O42_4 1_555 1_555
Cu3_4 N1_4 1_555 1_555
O41_4 Cu1_7 1_555 1_555
O42_4 C1_4 1_555 1_555
O43_7 Cu1_7 1_555 1_555
N1_4 N2_4 1_555 1_555
C1_4 O41_4 1_555 1_555
N2_4 C6_4 1_555 1_555
O44_7 Cu2_7 1_555 1_555
O45_4 Cu3_4 1_555 1_555
C2_4 C1_4 1_555 1_555
O46_4 Cu3_4 1_555 1_555
C3_4 C2_4 1_555 1_555
H1_4 C3_4 1_555 1_555
C4_4 C3_4 1_555 1_555
C5_4 C2_4 1_555 1_555
H2_4 C5_4 1_555 1_555
C6_4 C4_4 1_555 1_555
O47_4 Cu3_4 1_555 1_555
O48_4 C7_4 1_555 1_555
O49_4 C7_4 1_555 1_555
N3_4 N1_4 1_555 1_555
C7_4 C8_4 1_555 1_555
N4_4 C6_4 1_555 1_555
C8_4 C5_4 1_555 1_555
C9_4 C4_4 1_555 1_555
H3_4 C9_4 1_555 1_555
Cu13_2 O48_4 1_555 1_555
Cu16_2 O49_4 1_555 1_555
Cu6_4 N5_4 1_555 1_555
O50_4 Cu13_2 1_555 1_555
O51_4 Cu16_2 1_555 1_555
O52_8 Cu13_2 1_555 1_555
N5_4 N6_4 1_555 1_555
C10_4 O50_4 1_555 1_555
N6_4 C15_4 1_555 1_555
O53_8 Cu16_2 1_555 1_555
O54_4 Cu6_4 1_555 1_555
C11_4 C10_4 1_555 1_555
O55_4 Cu6_4 1_555 1_555
C12_4 C11_4 1_555 1_555
H4_4 C12_4 1_555 1_555
C13_4 C12_4 1_555 1_555
C14_4 C11_4 1_555 1_555
H5_4 C14_4 1_555 1_555
C15_4 C13_4 1_555 1_555
O56_4 Cu6_4 1_555 1_555
O57_4 C16_4 1_555 1_555
O58_4 C16_4 1_555 1_555
N7_4 N5_4 1_555 1_555
C16_4 C17_4 1_555 1_555
N8_4 C15_4 1_555 1_555
C17_4 C14_4 1_555 1_555
C18_4 C13_4 1_555 1_555
H6_4 C18_4 1_555 1_555
Cu14_3 O57_4 1_555 1_555
Cu17_3 O58_4 1_555 1_555
Cu9_4 N9_4 1_555 1_555
O59_4 Cu14_3 1_555 1_555
O60_4 Cu17_3 1_555 1_555
O61_7 Cu14_3 1_555 1_555
N9_4 N10_4 1_555 1_555
C19_4 O59_4 1_555 1_555
N10_4 C24_4 1_555 1_555
O62_7 Cu17_3 1_555 1_555
C20_4 C19_4 1_555 1_555
O63_4 Cu9_4 1_555 1_555
C21_4 C20_4 1_555 1_555
H7_4 C21_4 1_555 1_555
C22_4 C21_4 1_555 1_555
C23_4 C20_4 1_555 1_555
H8_4 C23_4 1_555 1_555
C24_4 C22_4 1_555 1_555
O64_4 Cu9_4 1_555 1_555
O65_4 Cu1_7 1_555 1_555
O66_4 Cu2_7 1_555 1_555
N11_4 N9_4 1_555 1_555
C25_4 O65_4 1_555 1_555
N12_4 C24_4 1_555 1_555
C26_4 C23_4 1_555 1_555
C27_4 C22_4 1_555 1_555
H9_4 C27_4 1_555 1_555
Cu19_4 O54_4 1_555 1_555
Cu20_4 O45_4 1_555 1_555
Cu22_4 O54_4 1_555 1_555
Cu24_4 N11_4 1_555 1_555
Cu25_4 O45_4 1_555 1_555
N26_4 Cu6_4 1_555 1_555
N28_4 Cu9_4 1_555 1_555
N30_4 Cu3_4 1_555 1_555
O91_4 Cu9_4 1_555 1_555
N3_4 N4_4 1_555 1_555
N3_4 Cu20_4 1_555 1_555
C8_4 C9_4 1_555 1_555
O51_4 C10_4 1_555 1_555
N7_4 N8_4 1_555 1_555
N7_4 Cu22_4 1_555 1_555
C17_4 C18_4 1_555 1_555
O60_4 C19_4 1_555 1_555
O66_4 C25_4 1_555 1_555
N11_4 N12_4 1_555 1_555
C25_4 C26_4 1_555 1_555
C26_4 C27_4 1_555 1_555
Cu24_4 O91_4 1_555 1_555
Cu1_8 Cu2_8 1_555 1_555
O43_8 Cu1_8 1_555 1_555
O44_8 Cu2_8 1_555 1_555
Cu10_4 N13_4 1_555 1_555
O67_4 Cu1_8 1_555 1_555
O68_4 Cu2_8 1_555 1_555
N13_4 N14_4 1_555 1_555
C28_4 O67_4 1_555 1_555
N14_4 C33_4 1_555 1_555
C29_4 C28_4 1_555 1_555
O69_4 Cu10_4 1_555 1_555
C30_4 C29_4 1_555 1_555
H10_4 C30_4 1_555 1_555
C31_4 C30_4 1_555 1_555
C32_4 C29_4 1_555 1_555
H11_4 C32_4 1_555 1_555
C33_4 C31_4 1_555 1_555
O70_4 Cu10_4 1_555 1_555
O87_2 C34_4 1_555 1_555
O90_2 C34_4 1_555 1_555
N15_4 N13_4 1_555 1_555
C34_4 C35_4 1_555 1_555
N16_4 C33_4 1_555 1_555
C35_4 C32_4 1_555 1_555
C36_4 C31_4 1_555 1_555
H12_4 C36_4 1_555 1_555
Cu12_4 N21_4 1_555 1_555
O86 C46_4 1_555 1_555
O89 C46_4 1_555 1_555
N21_4 N22_4 1_555 1_555
C46_4 C47_4 1_555 1_555
N22_4 C51_4 1_555 1_555
C47_4 C48_4 1_555 1_555
O81_4 Cu12_4 1_555 1_555
C48_4 H16_4 1_555 1_555
C49_4 C48_4 1_555 1_555
C50_4 C47_4 1_555 1_555
H17_4 C50_4 1_555 1_555
C51_4 C49_4 1_555 1_555
O82_4 Cu12_4 1_555 1_555
O83_4 Cu1_8 1_555 1_555
O84_4 Cu2_8 1_555 1_555
N23_4 N21_4 1_555 1_555
C52_4 O83_4 1_555 1_555
N24_4 C51_4 1_555 1_555
C53_4 C50_4 1_555 1_555
C54_4 C49_4 1_555 1_555
H18_4 C54_4 1_555 1_555
Cu23_4 N15_4 1_555 1_555
Cu26_4 N23_4 1_555 1_555
N25_4 Cu12_4 1_555 1_555
N29_4 Cu10_4 1_555 1_555
O92_4 Cu10_4 1_555 1_555
O94_4 Cu12_4 1_555 1_555
O68_4 C28_4 1_555 1_555
N15_4 N16_4 1_555 1_555
C35_4 C36_4 1_555 1_555
O84_4 C52_4 1_555 1_555
N23_4 N24_4 1_555 1_555
C52_4 C53_4 1_555 1_555
C53_4 C54_4 1_555 1_555
Cu23_4 O92_4 1_555 1_555
Cu26_4 O94_4 1_555 1_555
O61_8 Cu14_4 1_555 1_555
O62_8 Cu17_4 1_555 1_555
Cu19_5 O91_4 1_555 1_555
Cu25_5 O91_3 1_555 1_555
Cu25_6 O91_2 1_555 1_555
Cu19_6 O91 1_555 1_555
Cu19_7 O93_3 1_555 1_555
Cu25_7 O92_2 1_555 1_555
Cu19_8 O93_4 1_555 1_555
Cu25_8 O92 1_555 1_555
Cu19_9 O93_2 1_555 1_555
Cu25_9 O92_3 1_555 1_555
Cu19_10 O93 1_555 1_555
Cu25_10 O92_4 1_555 1_555
Cu19_11 O94_4 1_555 1_555
Cu25_11 O94_3 1_555 1_555
Cu25_12 O94 1_555 1_555
Cu19_12 O94_2 1_555 1_555
Cu1_9 Cu2_9 1_555 1_555
Cu2_9 O42_5 1_555 1_555
Cu19_3 N1_5 1_555 1_555
O41_5 Cu1_9 1_555 1_555
O42_5 C1_5 1_555 1_555
O43_9 Cu1_9 1_555 1_555
N1_5 N2_5 1_555 1_555
C1_5 O41_5 1_555 1_555
N2_5 C6_5 1_555 1_555
O44_9 Cu2_9 1_555 1_555
C2_5 C1_5 1_555 1_555
O46_5 Cu19_3 1_555 1_555
C3_5 C2_5 1_555 1_555
H1_5 C3_5 1_555 1_555
C4_5 C3_5 1_555 1_555
C5_5 C2_5 1_555 1_555
H2_5 C5_5 1_555 1_555
C6_5 C4_5 1_555 1_555
O47_5 Cu19_3 1_555 1_555
O48_5 C7_5 1_555 1_555
O49_5 C7_5 1_555 1_555
N26_3 N1_5 1_555 1_555
C7_5 C8_5 1_555 1_555
N4_5 C6_5 1_555 1_555
C8_5 C5_5 1_555 1_555
C9_5 C4_5 1_555 1_555
H3_5 C9_5 1_555 1_555
Cu4_5 O48_5 1_555 1_555
Cu5_5 O49_5 1_555 1_555
Cu20_3 N5_5 1_555 1_555
O50_5 Cu4_5 1_555 1_555
O51_5 Cu5_5 1_555 1_555
O52_9 Cu4_5 1_555 1_555
N5_5 N6_5 1_555 1_555
C10_5 O50_5 1_555 1_555
N6_5 C15_5 1_555 1_555
O53_9 Cu5_5 1_555 1_555
C11_5 C10_5 1_555 1_555
O55_5 Cu20_3 1_555 1_555
C12_5 C11_5 1_555 1_555
H4_5 C12_5 1_555 1_555
C13_5 C12_5 1_555 1_555
C14_5 C11_5 1_555 1_555
H5_5 C14_5 1_555 1_555
C15_5 C13_5 1_555 1_555
O56_5 Cu20_3 1_555 1_555
O57_5 C16_5 1_555 1_555
O58_5 C16_5 1_555 1_555
N7_5 N5_5 1_555 1_555
C16_5 C17_5 1_555 1_555
N8_5 C15_5 1_555 1_555
C17_5 C14_5 1_555 1_555
C18_5 C13_5 1_555 1_555
H6_5 C18_5 1_555 1_555
Cu7_3 O57_5 1_555 1_555
Cu8_3 O58_5 1_555 1_555
Cu9_5 N9_5 1_555 1_555
O59_5 Cu7_3 1_555 1_555
O60_5 Cu8_3 1_555 1_555
O61_9 Cu7_3 1_555 1_555
N9_5 N10_5 1_555 1_555
C19_5 O59_5 1_555 1_555
N10_5 C24_5 1_555 1_555
O62_9 Cu8_3 1_555 1_555
C20_5 C19_5 1_555 1_555
O63_5 Cu9_5 1_555 1_555
C21_5 C20_5 1_555 1_555
H7_5 C21_5 1_555 1_555
C22_5 C21_5 1_555 1_555
C23_5 C20_5 1_555 1_555
H8_5 C23_5 1_555 1_555
C24_5 C22_5 1_555 1_555
O64_5 Cu9_5 1_555 1_555
O65_5 Cu1_9 1_555 1_555
O66_5 Cu2_9 1_555 1_555
N11_5 N9_5 1_555 1_555
C25_5 O65_5 1_555 1_555
N12_5 C24_5 1_555 1_555
C26_5 C23_5 1_555 1_555
C27_5 C22_5 1_555 1_555
H9_5 C27_5 1_555 1_555
Cu10_5 N13_5 1_555 1_555
O67_5 Cu1_9 1_555 1_555
O68_5 Cu2_9 1_555 1_555
N13_5 N14_5 1_555 1_555
C28_5 O67_5 1_555 1_555
N14_5 C33_5 1_555 1_555
C29_5 C28_5 1_555 1_555
O69_5 Cu10_5 1_555 1_555
C30_5 C29_5 1_555 1_555
H10_5 C30_5 1_555 1_555
C31_5 C30_5 1_555 1_555
C32_5 C29_5 1_555 1_555
H11_5 C32_5 1_555 1_555
C33_5 C31_5 1_555 1_555
O70_5 Cu10_5 1_555 1_555
O71_3 C34_5 1_555 1_555
O72_3 C34_5 1_555 1_555
N15_5 N13_5 1_555 1_555
C34_5 C35_5 1_555 1_555
N16_5 C33_5 1_555 1_555
C35_5 C32_5 1_555 1_555
C36_5 C31_5 1_555 1_555
H12_5 C36_5 1_555 1_555
Cu21_2 N21_5 1_555 1_555
O79_3 C46_5 1_555 1_555
O80_3 C46_5 1_555 1_555
N21_5 N22_5 1_555 1_555
C46_5 C47_5 1_555 1_555
N22_5 C51_5 1_555 1_555
C47_5 C48_5 1_555 1_555
O81_5 Cu21_2 1_555 1_555
C48_5 H16_5 1_555 1_555
C49_5 C48_5 1_555 1_555
C50_5 C47_5 1_555 1_555
H17_5 C50_5 1_555 1_555
C51_5 C49_5 1_555 1_555
O82_5 Cu21_2 1_555 1_555
O83_5 Cu1_9 1_555 1_555
O84_5 Cu2_9 1_555 1_555
N23_5 N21_5 1_555 1_555
C52_5 O83_5 1_555 1_555
N24_5 C51_5 1_555 1_555
C53_5 C50_5 1_555 1_555
C54_5 C49_5 1_555 1_555
H18_5 C54_5 1_555 1_555
Cu13_5 O79_3 1_555 1_555
Cu14_5 O71_3 1_555 1_555
Cu16_5 O80_3 1_555 1_555
Cu17_5 O72_3 1_555 1_555
Cu23_5 N15_5 1_555 1_555
Cu24_5 N11_5 1_555 1_555
Cu19_9 N23_5 1_555 1_555
O85_3 Cu7_3 1_555 1_555
O87_3 Cu7_3 1_555 1_555
O88_3 Cu8_3 1_555 1_555
O90_3 Cu8_3 1_555 1_555
N28_5 Cu9_5 1_555 1_555
N29_5 Cu10_5 1_555 1_555
N30_5 Cu19_3 1_555 1_555
O91_5 Cu9_5 1_555 1_555
O92_5 Cu10_5 1_555 1_555
N26_3 N4_5 1_555 1_555
C8_5 C9_5 1_555 1_555
Cu4_5 Cu5_5 1_555 1_555
O51_5 C10_5 1_555 1_555
N7_5 N8_5 1_555 1_555
N7_5 Cu25_3 1_555 1_555
C17_5 C18_5 1_555 1_555
Cu7_3 Cu8_3 1_555 1_555
O60_5 C19_5 1_555 1_555
O66_5 C25_5 1_555 1_555
N11_5 N12_5 1_555 1_555
C25_5 C26_5 1_555 1_555
C26_5 C27_5 1_555 1_555
O68_5 C28_5 1_555 1_555
N15_5 N16_5 1_555 1_555
C35_5 C36_5 1_555 1_555
O84_5 C52_5 1_555 1_555
N23_5 N24_5 1_555 1_555
C52_5 C53_5 1_555 1_555
C53_5 C54_5 1_555 1_555
Cu13_5 Cu16_5 1_555 1_555
Cu14_5 Cu17_5 1_555 1_555
Cu23_5 O92_5 1_555 1_555
Cu24_5 O91_5 1_555 1_555
O52_10 Cu4_6 1_555 1_555
O53_10 Cu5_6 1_555 1_555
Cu19_12 N17_5 1_555 1_555
O73_3 C37_5 1_555 1_555
O74_3 C37_5 1_555 1_555
N17_5 N18_5 1_555 1_555
C37_5 C38_5 1_555 1_555
N18_5 C42_5 1_555 1_555
C38_5 C39_5 1_555 1_555
O75_5 Cu19_12 1_555 1_555
C39_5 H13_5 1_555 1_555
C40_5 C39_5 1_555 1_555
C41_5 C38_5 1_555 1_555
H14_5 C41_5 1_555 1_555
C42_5 C40_5 1_555 1_555
O76_5 Cu19_12 1_555 1_555
O77_5 Cu4_6 1_555 1_555
O78_5 Cu5_6 1_555 1_555
N25_2 N17_5 1_555 1_555
C43_5 O77_5 1_555 1_555
N20_5 C42_5 1_555 1_555
C44_5 C41_5 1_555 1_555
C45_5 C40_5 1_555 1_555
H15_5 C45_5 1_555 1_555
Cu15_3 O73_3 1_555 1_555
Cu18_3 O74_3 1_555 1_555
O86_3 Cu4_6 1_555 1_555
O89_3 Cu5_6 1_555 1_555
N27_5 Cu19_12 1_555 1_555
Cu4_6 Cu5_6 1_555 1_555
O78_5 C43_5 1_555 1_555
N25_2 N20_5 1_555 1_555
C43_5 C44_5 1_555 1_555
C44_5 C45_5 1_555 1_555
Cu13_6 Cu16_6 1_555 1_555
Cu15_3 Cu18_3 1_555 1_555
O52_11 Cu4_7 1_555 1_555
O53_11 Cu5_7 1_555 1_555
Cu25_12 N17_6 1_555 1_555
O85_3 C37_6 1_555 1_555
O88_3 C37_6 1_555 1_555
N17_6 N18_6 1_555 1_555
C37_6 C38_6 1_555 1_555
N18_6 C42_6 1_555 1_555
C38_6 C39_6 1_555 1_555
O75_6 Cu25_12 1_555 1_555
C39_6 H13_6 1_555 1_555
C40_6 C39_6 1_555 1_555
C41_6 C38_6 1_555 1_555
H14_6 C41_6 1_555 1_555
C42_6 C40_6 1_555 1_555
O76_6 Cu25_12 1_555 1_555
O77_6 Cu4_7 1_555 1_555
O78_6 Cu5_7 1_555 1_555
N25 N17_6 1_555 1_555
C43_6 O77_6 1_555 1_555
N20_6 C42_6 1_555 1_555
C44_6 C41_6 1_555 1_555
C45_6 C40_6 1_555 1_555
H15_6 C45_6 1_555 1_555
O86_4 Cu4_7 1_555 1_555
O89_4 Cu5_7 1_555 1_555
N27_6 Cu25_12 1_555 1_555
Cu4_7 Cu5_7 1_555 1_555
O78_6 C43_6 1_555 1_555
N25 N20_6 1_555 1_555
C43_6 C44_6 1_555 1_555
C44_6 C45_6 1_555 1_555
Cu13_7 Cu16_7 1_555 1_555
Cu1_10 Cu2_10 1_555 1_555
Cu2_10 O42_6 1_555 1_555
Cu19_4 N1_6 1_555 1_555
O41_6 Cu1_10 1_555 1_555
O42_6 C1_6 1_555 1_555
O43_10 Cu1_10 1_555 1_555
N1_6 N2_6 1_555 1_555
C1_6 O41_6 1_555 1_555
N2_6 C6_6 1_555 1_555
O44_10 Cu2_10 1_555 1_555
C2_6 C1_6 1_555 1_555
O46_6 Cu19_4 1_555 1_555
C3_6 C2_6 1_555 1_555
H1_6 C3_6 1_555 1_555
C4_6 C3_6 1_555 1_555
C5_6 C2_6 1_555 1_555
H2_6 C5_6 1_555 1_555
C6_6 C4_6 1_555 1_555
O47_6 Cu19_4 1_555 1_555
O48_6 C7_6 1_555 1_555
O49_6 C7_6 1_555 1_555
N26_4 N1_6 1_555 1_555
C7_6 C8_6 1_555 1_555
N4_6 C6_6 1_555 1_555
C8_6 C5_6 1_555 1_555
C9_6 C4_6 1_555 1_555
H3_6 C9_6 1_555 1_555
Cu4_8 O48_6 1_555 1_555
Cu5_8 O49_6 1_555 1_555
Cu20_4 N5_6 1_555 1_555
O50_6 Cu4_8 1_555 1_555
O51_6 Cu5_8 1_555 1_555
O52_12 Cu4_8 1_555 1_555
N5_6 N6_6 1_555 1_555
C10_6 O50_6 1_555 1_555
N6_6 C15_6 1_555 1_555
O53_12 Cu5_8 1_555 1_555
C11_6 C10_6 1_555 1_555
O55_6 Cu20_4 1_555 1_555
C12_6 C11_6 1_555 1_555
H4_6 C12_6 1_555 1_555
C13_6 C12_6 1_555 1_555
C14_6 C11_6 1_555 1_555
H5_6 C14_6 1_555 1_555
C15_6 C13_6 1_555 1_555
O56_6 Cu20_4 1_555 1_555
O57_6 C16_6 1_555 1_555
O58_6 C16_6 1_555 1_555
N7_6 N5_6 1_555 1_555
C16_6 C17_6 1_555 1_555
N8_6 C15_6 1_555 1_555
C17_6 C14_6 1_555 1_555
C18_6 C13_6 1_555 1_555
H6_6 C18_6 1_555 1_555
Cu15_3 O57_6 1_555 1_555
Cu18_3 O58_6 1_555 1_555
Cu9_6 N9_6 1_555 1_555
O59_6 Cu15_3 1_555 1_555
O60_6 Cu18_3 1_555 1_555
O61_10 Cu15_3 1_555 1_555
N9_6 N10_6 1_555 1_555
C19_6 O59_6 1_555 1_555
N10_6 C24_6 1_555 1_555
O62_10 Cu18_3 1_555 1_555
C20_6 C19_6 1_555 1_555
O63_6 Cu9_6 1_555 1_555
C21_6 C20_6 1_555 1_555
H7_6 C21_6 1_555 1_555
C22_6 C21_6 1_555 1_555
C23_6 C20_6 1_555 1_555
H8_6 C23_6 1_555 1_555
C24_6 C22_6 1_555 1_555
O64_6 Cu9_6 1_555 1_555
O65_6 Cu1_10 1_555 1_555
O66_6 Cu2_10 1_555 1_555
N11_6 N9_6 1_555 1_555
C25_6 O65_6 1_555 1_555
N12_6 C24_6 1_555 1_555
C26_6 C23_6 1_555 1_555
C27_6 C22_6 1_555 1_555
H9_6 C27_6 1_555 1_555
Cu10_6 N13_6 1_555 1_555
O67_6 Cu1_10 1_555 1_555
O68_6 Cu2_10 1_555 1_555
N13_6 N14_6 1_555 1_555
C28_6 O67_6 1_555 1_555
N14_6 C33_6 1_555 1_555
C29_6 C28_6 1_555 1_555
O69_6 Cu10_6 1_555 1_555
C30_6 C29_6 1_555 1_555
H10_6 C30_6 1_555 1_555
C31_6 C30_6 1_555 1_555
C32_6 C29_6 1_555 1_555
H11_6 C32_6 1_555 1_555
C33_6 C31_6 1_555 1_555
O70_6 Cu10_6 1_555 1_555
O71_4 C34_6 1_555 1_555
O72_4 C34_6 1_555 1_555
N15_6 N13_6 1_555 1_555
C34_6 C35_6 1_555 1_555
N16_6 C33_6 1_555 1_555
C35_6 C32_6 1_555 1_555
C36_6 C31_6 1_555 1_555
H12_6 C36_6 1_555 1_555
Cu21 N21_6 1_555 1_555
O79_4 C46_6 1_555 1_555
O80_4 C46_6 1_555 1_555
N21_6 N22_6 1_555 1_555
C46_6 C47_6 1_555 1_555
N22_6 C51_6 1_555 1_555
C47_6 C48_6 1_555 1_555
O81_6 Cu21 1_555 1_555
C48_6 H16_6 1_555 1_555
C49_6 C48_6 1_555 1_555
C50_6 C47_6 1_555 1_555
H17_6 C50_6 1_555 1_555
C51_6 C49_6 1_555 1_555
O82_6 Cu21 1_555 1_555
O83_6 Cu1_10 1_555 1_555
O84_6 Cu2_10 1_555 1_555
N23_6 N21_6 1_555 1_555
C52_6 O83_6 1_555 1_555
N24_6 C51_6 1_555 1_555
C53_6 C50_6 1_555 1_555
C54_6 C49_6 1_555 1_555
H18_6 C54_6 1_555 1_555
Cu13_8 O79_4 1_555 1_555
Cu14_6 O71_4 1_555 1_555
Cu16_8 O80_4 1_555 1_555
Cu17_6 O72_4 1_555 1_555
Cu23_6 N15_6 1_555 1_555
Cu24_6 N11_6 1_555 1_555
Cu19_10 N23_6 1_555 1_555
O87_4 Cu15_3 1_555 1_555
O90_4 Cu18_3 1_555 1_555
N28_6 Cu9_6 1_555 1_555
N29_6 Cu10_6 1_555 1_555
N30_6 Cu19_4 1_555 1_555
O91_6 Cu9_6 1_555 1_555
O92_6 Cu10_6 1_555 1_555
N26_4 N4_6 1_555 1_555
C8_6 C9_6 1_555 1_555
Cu4_8 Cu5_8 1_555 1_555
O51_6 C10_6 1_555 1_555
N7_6 N8_6 1_555 1_555
N7_6 Cu25_4 1_555 1_555
C17_6 C18_6 1_555 1_555
O60_6 C19_6 1_555 1_555
O66_6 C25_6 1_555 1_555
N11_6 N12_6 1_555 1_555
C25_6 C26_6 1_555 1_555
C26_6 C27_6 1_555 1_555
O68_6 C28_6 1_555 1_555
N15_6 N16_6 1_555 1_555
C35_6 C36_6 1_555 1_555
O84_6 C52_6 1_555 1_555
N23_6 N24_6 1_555 1_555
C52_6 C53_6 1_555 1_555
C53_6 C54_6 1_555 1_555
Cu13_8 Cu16_8 1_555 1_555
Cu14_6 Cu17_6 1_555 1_555
Cu23_6 O92_6 1_555 1_555
Cu24_6 O91_6 1_555 1_555
Cu1_11 Cu2_11 1_555 1_555
Cu2_11 O42_7 1_555 1_555
Cu19 N1_7 1_555 1_555
O41_7 Cu1_11 1_555 1_555
O42_7 C1_7 1_555 1_555
O43_11 Cu1_11 1_555 1_555
N1_7 N2_7 1_555 1_555
C1_7 O41_7 1_555 1_555
N2_7 C6_7 1_555 1_555
O44_11 Cu2_11 1_555 1_555
C2_7 C1_7 1_555 1_555
O46_7 Cu19 1_555 1_555
C3_7 C2_7 1_555 1_555
H1_7 C3_7 1_555 1_555
C4_7 C3_7 1_555 1_555
C5_7 C2_7 1_555 1_555
H2_7 C5_7 1_555 1_555
C6_7 C4_7 1_555 1_555
O47_7 Cu19 1_555 1_555
O48_7 C7_7 1_555 1_555
O49_7 C7_7 1_555 1_555
N26 N1_7 1_555 1_555
C7_7 C8_7 1_555 1_555
N4_7 C6_7 1_555 1_555
C8_7 C5_7 1_555 1_555
C9_7 C4_7 1_555 1_555
H3_7 C9_7 1_555 1_555
Cu13_7 O48_7 1_555 1_555
Cu16_7 O49_7 1_555 1_555
Cu20 N5_7 1_555 1_555
O50_7 Cu13_7 1_555 1_555
O51_7 Cu16_7 1_555 1_555
O52_13 Cu13_7 1_555 1_555
N5_7 N6_7 1_555 1_555
C10_7 O50_7 1_555 1_555
N6_7 C15_7 1_555 1_555
O53_13 Cu16_7 1_555 1_555
C11_7 C10_7 1_555 1_555
O55_7 Cu20 1_555 1_555
C12_7 C11_7 1_555 1_555
H4_7 C12_7 1_555 1_555
C13_7 C12_7 1_555 1_555
C14_7 C11_7 1_555 1_555
H5_7 C14_7 1_555 1_555
C15_7 C13_7 1_555 1_555
O56_7 Cu20 1_555 1_555
O57_7 C16_7 1_555 1_555
O58_7 C16_7 1_555 1_555
N7_7 N5_7 1_555 1_555
C16_7 C17_7 1_555 1_555
N8_7 C15_7 1_555 1_555
C17_7 C14_7 1_555 1_555
C18_7 C13_7 1_555 1_555
H6_7 C18_7 1_555 1_555
Cu14_5 O57_7 1_555 1_555
Cu17_5 O58_7 1_555 1_555
Cu9_7 N9_7 1_555 1_555
O59_7 Cu14_5 1_555 1_555
O60_7 Cu17_5 1_555 1_555
O61_11 Cu14_5 1_555 1_555
N9_7 N10_7 1_555 1_555
C19_7 O59_7 1_555 1_555
N10_7 C24_7 1_555 1_555
O62_11 Cu17_5 1_555 1_555
C20_7 C19_7 1_555 1_555
O63_7 Cu9_7 1_555 1_555
C21_7 C20_7 1_555 1_555
H7_7 C21_7 1_555 1_555
C22_7 C21_7 1_555 1_555
C23_7 C20_7 1_555 1_555
H8_7 C23_7 1_555 1_555
C24_7 C22_7 1_555 1_555
O64_7 Cu9_7 1_555 1_555
O65_7 Cu1_11 1_555 1_555
O66_7 Cu2_11 1_555 1_555
N11_7 N9_7 1_555 1_555
C25_7 O65_7 1_555 1_555
N12_7 C24_7 1_555 1_555
C26_7 C23_7 1_555 1_555
C27_7 C22_7 1_555 1_555
H9_7 C27_7 1_555 1_555
Cu10_7 N13_7 1_555 1_555
O67_7 Cu1_11 1_555 1_555
O68_7 Cu2_11 1_555 1_555
N13_7 N14_7 1_555 1_555
C28_7 O67_7 1_555 1_555
N14_7 C33_7 1_555 1_555
C29_7 C28_7 1_555 1_555
O69_7 Cu10_7 1_555 1_555
C30_7 C29_7 1_555 1_555
H10_7 C30_7 1_555 1_555
C31_7 C30_7 1_555 1_555
C32_7 C29_7 1_555 1_555
H11_7 C32_7 1_555 1_555
C33_7 C31_7 1_555 1_555
O70_7 Cu10_7 1_555 1_555
O87_3 C34_7 1_555 1_555
O90_3 C34_7 1_555 1_555
N15_7 N13_7 1_555 1_555
C34_7 C35_7 1_555 1_555
N16_7 C33_7 1_555 1_555
C35_7 C32_7 1_555 1_555
C36_7 C31_7 1_555 1_555
H12_7 C36_7 1_555 1_555
Cu21_4 N21_7 1_555 1_555
O86_4 C46_7 1_555 1_555
O89_4 C46_7 1_555 1_555
N21_7 N22_7 1_555 1_555
C46_7 C47_7 1_555 1_555
N22_7 C51_7 1_555 1_555
C47_7 C48_7 1_555 1_555
O81_7 Cu21_4 1_555 1_555
C48_7 H16_7 1_555 1_555
C49_7 C48_7 1_555 1_555
C50_7 C47_7 1_555 1_555
H17_7 C50_7 1_555 1_555
C51_7 C49_7 1_555 1_555
O82_7 Cu21_4 1_555 1_555
O83_7 Cu1_11 1_555 1_555
O84_7 Cu2_11 1_555 1_555
N23_7 N21_7 1_555 1_555
C52_7 O83_7 1_555 1_555
N24_7 C51_7 1_555 1_555
C53_7 C50_7 1_555 1_555
C54_7 C49_7 1_555 1_555
H18_7 C54_7 1_555 1_555
Cu23_7 N15_7 1_555 1_555
Cu24_7 N11_7 1_555 1_555
Cu19_8 N23_7 1_555 1_555
O85_4 Cu14_5 1_555 1_555
O88_4 Cu17_5 1_555 1_555
N28_7 Cu9_7 1_555 1_555
N29_7 Cu10_7 1_555 1_555
N30_7 Cu19 1_555 1_555
O91_7 Cu9_7 1_555 1_555
O92_7 Cu10_7 1_555 1_555
N26 N4_7 1_555 1_555
C8_7 C9_7 1_555 1_555
O51_7 C10_7 1_555 1_555
N7_7 N8_7 1_555 1_555
N7_7 Cu25 1_555 1_555
C17_7 C18_7 1_555 1_555
O60_7 C19_7 1_555 1_555
O66_7 C25_7 1_555 1_555
N11_7 N12_7 1_555 1_555
C25_7 C26_7 1_555 1_555
C26_7 C27_7 1_555 1_555
O68_7 C28_7 1_555 1_555
N15_7 N16_7 1_555 1_555
C35_7 C36_7 1_555 1_555
O84_7 C52_7 1_555 1_555
N23_7 N24_7 1_555 1_555
C52_7 C53_7 1_555 1_555
C53_7 C54_7 1_555 1_555
Cu23_7 O92_7 1_555 1_555
Cu24_7 O91_7 1_555 1_555
O52_14 Cu13_8 1_555 1_555
O53_14 Cu16_8 1_555 1_555
Cu19_11 N17_7 1_555 1_555
O73_4 C37_7 1_555 1_555
O74_4 C37_7 1_555 1_555
N17_7 N18_7 1_555 1_555
C37_7 C38_7 1_555 1_555
N18_7 C42_7 1_555 1_555
C38_7 C39_7 1_555 1_555
O75_7 Cu19_11 1_555 1_555
C39_7 H13_7 1_555 1_555
C40_7 C39_7 1_555 1_555
C41_7 C38_7 1_555 1_555
H14_7 C41_7 1_555 1_555
C42_7 C40_7 1_555 1_555
O76_7 Cu19_11 1_555 1_555
O77_7 Cu13_8 1_555 1_555
O78_7 Cu16_8 1_555 1_555
N25_4 N17_7 1_555 1_555
C43_7 O77_7 1_555 1_555
N20_7 C42_7 1_555 1_555
C44_7 C41_7 1_555 1_555
C45_7 C40_7 1_555 1_555
H15_7 C45_7 1_555 1_555
Cu14_6 O73_4 1_555 1_555
Cu17_6 O74_4 1_555 1_555
N27_7 Cu19_11 1_555 1_555
O78_7 C43_7 1_555 1_555
N25_4 N20_7 1_555 1_555
C43_7 C44_7 1_555 1_555
C44_7 C45_7 1_555 1_555
O52_15 Cu13_5 1_555 1_555
O53_15 Cu16_5 1_555 1_555
Cu25_11 N17_8 1_555 1_555
O85_4 C37_8 1_555 1_555
O88_4 C37_8 1_555 1_555
N17_8 N18_8 1_555 1_555
C37_8 C38_8 1_555 1_555
N18_8 C42_8 1_555 1_555
C38_8 C39_8 1_555 1_555
O75_8 Cu25_11 1_555 1_555
C39_8 H13_8 1_555 1_555
C40_8 C39_8 1_555 1_555
C41_8 C38_8 1_555 1_555
H14_8 C41_8 1_555 1_555
C42_8 C40_8 1_555 1_555
O76_8 Cu25_11 1_555 1_555
O77_8 Cu13_5 1_555 1_555
O78_8 Cu16_5 1_555 1_555
N25_3 N17_8 1_555 1_555
C43_8 O77_8 1_555 1_555
N20_8 C42_8 1_555 1_555
C44_8 C41_8 1_555 1_555
C45_8 C40_8 1_555 1_555
H15_8 C45_8 1_555 1_555
N27_8 Cu25_11 1_555 1_555
O78_8 C43_8 1_555 1_555
N25_3 N20_8 1_555 1_555
C43_8 C44_8 1_555 1_555
C44_8 C45_8 1_555 1_555
Cu1_12 Cu2_12 1_555 1_555
Cu2_12 O42_8 1_555 1_555
Cu19_2 N1_8 1_555 1_555
O41_8 Cu1_12 1_555 1_555
O42_8 C1_8 1_555 1_555
O43_12 Cu1_12 1_555 1_555
N1_8 N2_8 1_555 1_555
C1_8 O41_8 1_555 1_555
N2_8 C6_8 1_555 1_555
O44_12 Cu2_12 1_555 1_555
C2_8 C1_8 1_555 1_555
O46_8 Cu19_2 1_555 1_555
C3_8 C2_8 1_555 1_555
H1_8 C3_8 1_555 1_555
C4_8 C3_8 1_555 1_555
C5_8 C2_8 1_555 1_555
H2_8 C5_8 1_555 1_555
C6_8 C4_8 1_555 1_555
O47_8 Cu19_2 1_555 1_555
O48_8 C7_8 1_555 1_555
O49_8 C7_8 1_555 1_555
N26_2 N1_8 1_555 1_555
C7_8 C8_8 1_555 1_555
N4_8 C6_8 1_555 1_555
C8_8 C5_8 1_555 1_555
C9_8 C4_8 1_555 1_555
H3_8 C9_8 1_555 1_555
Cu13_6 O48_8 1_555 1_555
Cu16_6 O49_8 1_555 1_555
Cu20_2 N5_8 1_555 1_555
O50_8 Cu13_6 1_555 1_555
O51_8 Cu16_6 1_555 1_555
O52_16 Cu13_6 1_555 1_555
N5_8 N6_8 1_555 1_555
C10_8 O50_8 1_555 1_555
N6_8 C15_8 1_555 1_555
O53_16 Cu16_6 1_555 1_555
C11_8 C10_8 1_555 1_555
O55_8 Cu20_2 1_555 1_555
C12_8 C11_8 1_555 1_555
H4_8 C12_8 1_555 1_555
C13_8 C12_8 1_555 1_555
C14_8 C11_8 1_555 1_555
H5_8 C14_8 1_555 1_555
C15_8 C13_8 1_555 1_555
O56_8 Cu20_2 1_555 1_555
O57_8 C16_8 1_555 1_555
O58_8 C16_8 1_555 1_555
N7_8 N5_8 1_555 1_555
C16_8 C17_8 1_555 1_555
N8_8 C15_8 1_555 1_555
C17_8 C14_8 1_555 1_555
C18_8 C13_8 1_555 1_555
H6_8 C18_8 1_555 1_555
Cu14_6 O57_8 1_555 1_555
Cu17_6 O58_8 1_555 1_555
Cu9_8 N9_8 1_555 1_555
O59_8 Cu14_6 1_555 1_555
O60_8 Cu17_6 1_555 1_555
O61_12 Cu14_6 1_555 1_555
N9_8 N10_8 1_555 1_555
C19_8 O59_8 1_555 1_555
N10_8 C24_8 1_555 1_555
O62_12 Cu17_6 1_555 1_555
C20_8 C19_8 1_555 1_555
O63_8 Cu9_8 1_555 1_555
C21_8 C20_8 1_555 1_555
H7_8 C21_8 1_555 1_555
C22_8 C21_8 1_555 1_555
C23_8 C20_8 1_555 1_555
H8_8 C23_8 1_555 1_555
C24_8 C22_8 1_555 1_555
O64_8 Cu9_8 1_555 1_555
O65_8 Cu1_12 1_555 1_555
O66_8 Cu2_12 1_555 1_555
N11_8 N9_8 1_555 1_555
C25_8 O65_8 1_555 1_555
N12_8 C24_8 1_555 1_555
C26_8 C23_8 1_555 1_555
C27_8 C22_8 1_555 1_555
H9_8 C27_8 1_555 1_555
Cu10_8 N13_8 1_555 1_555
O67_8 Cu1_12 1_555 1_555
O68_8 Cu2_12 1_555 1_555
N13_8 N14_8 1_555 1_555
C28_8 O67_8 1_555 1_555
N14_8 C33_8 1_555 1_555
C29_8 C28_8 1_555 1_555
O69_8 Cu10_8 1_555 1_555
C30_8 C29_8 1_555 1_555
H10_8 C30_8 1_555 1_555
C31_8 C30_8 1_555 1_555
C32_8 C29_8 1_555 1_555
H11_8 C32_8 1_555 1_555
C33_8 C31_8 1_555 1_555
O70_8 Cu10_8 1_555 1_555
O87_4 C34_8 1_555 1_555
O90_4 C34_8 1_555 1_555
N15_8 N13_8 1_555 1_555
C34_8 C35_8 1_555 1_555
N16_8 C33_8 1_555 1_555
C35_8 C32_8 1_555 1_555
C36_8 C31_8 1_555 1_555
H12_8 C36_8 1_555 1_555
Cu21_3 N21_8 1_555 1_555
O86_3 C46_8 1_555 1_555
O89_3 C46_8 1_555 1_555
N21_8 N22_8 1_555 1_555
C46_8 C47_8 1_555 1_555
N22_8 C51_8 1_555 1_555
C47_8 C48_8 1_555 1_555
O81_8 Cu21_3 1_555 1_555
C48_8 H16_8 1_555 1_555
C49_8 C48_8 1_555 1_555
C50_8 C47_8 1_555 1_555
H17_8 C50_8 1_555 1_555
C51_8 C49_8 1_555 1_555
O82_8 Cu21_3 1_555 1_555
O83_8 Cu1_12 1_555 1_555
O84_8 Cu2_12 1_555 1_555
N23_8 N21_8 1_555 1_555
C52_8 O83_8 1_555 1_555
N24_8 C51_8 1_555 1_555
C53_8 C50_8 1_555 1_555
C54_8 C49_8 1_555 1_555
H18_8 C54_8 1_555 1_555
Cu23_8 N15_8 1_555 1_555
Cu24_8 N11_8 1_555 1_555
Cu19_7 N23_8 1_555 1_555
N28_8 Cu9_8 1_555 1_555
N29_8 Cu10_8 1_555 1_555
N30_8 Cu19_2 1_555 1_555
O91_8 Cu9_8 1_555 1_555
O92_8 Cu10_8 1_555 1_555
N26_2 N4_8 1_555 1_555
C8_8 C9_8 1_555 1_555
O51_8 C10_8 1_555 1_555
N7_8 N8_8 1_555 1_555
N7_8 Cu25_2 1_555 1_555
C17_8 C18_8 1_555 1_555
O60_8 C19_8 1_555 1_555
O66_8 C25_8 1_555 1_555
N11_8 N12_8 1_555 1_555
C25_8 C26_8 1_555 1_555
C26_8 C27_8 1_555 1_555
O68_8 C28_8 1_555 1_555
N15_8 N16_8 1_555 1_555
C35_8 C36_8 1_555 1_555
O84_8 C52_8 1_555 1_555
N23_8 N24_8 1_555 1_555
C52_8 C53_8 1_555 1_555
C53_8 C54_8 1_555 1_555
Cu23_8 O92_8 1_555 1_555
Cu24_8 O91_8 1_555 1_555
Cu19_13 O91_8 1_555 1_555
Cu25_13 O91_7 1_555 1_555
Cu25_14 O91_6 1_555 1_555
Cu19_14 O91_5 1_555 1_555
Cu25_15 O92_6 1_555 1_555
Cu25_16 O92_5 1_555 1_555
Cu25_17 O92_7 1_555 1_555
Cu25_18 O92_8 1_555 1_555
Cu1_13 Cu2_13 1_555 1_555
Cu2_13 O42_9 1_555 1_555
Cu24_6 N1_9 1_555 1_555
O41_9 Cu1_13 1_555 1_555
O42_9 C1_9 1_555 1_555
O43_13 Cu1_13 1_555 1_555
N1_9 N2_9 1_555 1_555
C1_9 O41_9 1_555 1_555
N2_9 C6_9 1_555 1_555
O44_13 Cu2_13 1_555 1_555
C2_9 C1_9 1_555 1_555
O46_9 Cu24_6 1_555 1_555
C3_9 C2_9 1_555 1_555
H1_9 C3_9 1_555 1_555
C4_9 C3_9 1_555 1_555
C5_9 C2_9 1_555 1_555
H2_9 C5_9 1_555 1_555
C6_9 C4_9 1_555 1_555
O47_9 Cu24_6 1_555 1_555
O48_9 C7_9 1_555 1_555
O49_9 C7_9 1_555 1_555
N3_5 N1_9 1_555 1_555
C7_9 C8_9 1_555 1_555
N4_9 C6_9 1_555 1_555
C8_9 C5_9 1_555 1_555
C9_9 C4_9 1_555 1_555
H3_9 C9_9 1_555 1_555
Cu4_9 O48_9 1_555 1_555
Cu5_9 O49_9 1_555 1_555
Cu19_5 N5_9 1_555 1_555
O50_9 Cu4_9 1_555 1_555
O51_9 Cu5_9 1_555 1_555
O52_17 Cu4_9 1_555 1_555
N5_9 N6_9 1_555 1_555
C10_9 O50_9 1_555 1_555
N6_9 C15_9 1_555 1_555
O53_17 Cu5_9 1_555 1_555
C11_9 C10_9 1_555 1_555
O55_9 Cu19_5 1_555 1_555
C12_9 C11_9 1_555 1_555
H4_9 C12_9 1_555 1_555
C13_9 C12_9 1_555 1_555
C14_9 C11_9 1_555 1_555
H5_9 C14_9 1_555 1_555
C15_9 C13_9 1_555 1_555
O56_9 Cu19_5 1_555 1_555
O57_9 C16_9 1_555 1_555
O58_9 C16_9 1_555 1_555
N28_4 N5_9 1_555 1_555
C16_9 C17_9 1_555 1_555
N8_9 C15_9 1_555 1_555
C17_9 C14_9 1_555 1_555
C18_9 C13_9 1_555 1_555
H6_9 C18_9 1_555 1_555
Cu7_4 O57_9 1_555 1_555
Cu8_4 O58_9 1_555 1_555
Cu22_4 N9_9 1_555 1_555
O59_9 Cu7_4 1_555 1_555
O60_9 Cu8_4 1_555 1_555
O61_13 Cu7_4 1_555 1_555
N9_9 N10_9 1_555 1_555
C19_9 O59_9 1_555 1_555
N10_9 C24_9 1_555 1_555
O62_13 Cu8_4 1_555 1_555
C20_9 C19_9 1_555 1_555
O63_9 Cu22_4 1_555 1_555
C21_9 C20_9 1_555 1_555
H7_9 C21_9 1_555 1_555
C22_9 C21_9 1_555 1_555
C23_9 C20_9 1_555 1_555
H8_9 C23_9 1_555 1_555
C24_9 C22_9 1_555 1_555
O64_9 Cu22_4 1_555 1_555
O65_9 Cu1_13 1_555 1_555
O66_9 Cu2_13 1_555 1_555
N30_6 N9_9 1_555 1_555
C25_9 O65_9 1_555 1_555
N12_9 C24_9 1_555 1_555
C26_9 C23_9 1_555 1_555
C27_9 C22_9 1_555 1_555
H9_9 C27_9 1_555 1_555
Cu19_10 N13_9 1_555 1_555
O67_9 Cu1_13 1_555 1_555
O68_9 Cu2_13 1_555 1_555
N13_9 N14_9 1_555 1_555
C28_9 O67_9 1_555 1_555
N14_9 C33_9 1_555 1_555
C29_9 C28_9 1_555 1_555
O69_9 Cu19_10 1_555 1_555
C30_9 C29_9 1_555 1_555
H10_9 C30_9 1_555 1_555
C31_9 C30_9 1_555 1_555
C32_9 C29_9 1_555 1_555
H11_9 C32_9 1_555 1_555
C33_9 C31_9 1_555 1_555
O70_9 Cu19_10 1_555 1_555
O71_5 C34_9 1_555 1_555
O72_5 C34_9 1_555 1_555
N27 N13_9 1_555 1_555
C34_9 C35_9 1_555 1_555
N16_9 C33_9 1_555 1_555
C35_9 C32_9 1_555 1_555
C36_9 C31_9 1_555 1_555
H12_9 C36_9 1_555 1_555
Cu23 N17_9 1_555 1_555
O73_5 C37_9 1_555 1_555
O74_5 C37_9 1_555 1_555
N17_9 N18_9 1_555 1_555
C37_9 C38_9 1_555 1_555
N18_9 C42_9 1_555 1_555
C38_9 C39_9 1_555 1_555
O75_9 Cu23 1_555 1_555
C39_9 H13_9 1_555 1_555
C40_9 C39_9 1_555 1_555
C41_9 C38_9 1_555 1_555
H14_9 C41_9 1_555 1_555
C42_9 C40_9 1_555 1_555
O76_9 Cu23 1_555 1_555
O77_9 Cu4_9 1_555 1_555
O78_9 Cu5_9 1_555 1_555
N19_5 N17_9 1_555 1_555
C43_9 O77_9 1_555 1_555
N20_9 C42_9 1_555 1_555
C44_9 C41_9 1_555 1_555
C45_9 C40_9 1_555 1_555
H15_9 C45_9 1_555 1_555
Cu25_15 N21_9 1_555 1_555
O79_5 C46_9 1_555 1_555
O80_5 C46_9 1_555 1_555
N21_9 N22_9 1_555 1_555
C46_9 C47_9 1_555 1_555
N22_9 C51_9 1_555 1_555
C47_9 C48_9 1_555 1_555
O81_9 Cu25_15 1_555 1_555
C48_9 H16_9 1_555 1_555
C49_9 C48_9 1_555 1_555
C50_9 C47_9 1_555 1_555
H17_9 C50_9 1_555 1_555
C51_9 C49_9 1_555 1_555
O82_9 Cu25_15 1_555 1_555
O83_9 Cu1_13 1_555 1_555
O84_9 Cu2_13 1_555 1_555
N29_6 N21_9 1_555 1_555
C52_9 O83_9 1_555 1_555
N24_9 C51_9 1_555 1_555
C53_9 C50_9 1_555 1_555
C54_9 C49_9 1_555 1_555
H18_9 C54_9 1_555 1_555
Cu13_9 O79_5 1_555 1_555
Cu14_7 O71_5 1_555 1_555
Cu15_4 O73_5 1_555 1_555
Cu16_9 O80_5 1_555 1_555
Cu17_7 O72_5 1_555 1_555
Cu18_4 O74_5 1_555 1_555
Cu25_8 N19_5 1_555 1_555
O86_5 Cu4_9 1_555 1_555
O89_5 Cu5_9 1_555 1_555
N25_5 Cu25_15 1_555 1_555
N26_5 Cu19_5 1_555 1_555
N3_5 N4_9 1_555 1_555
N3_5 Cu25_14 1_555 1_555
C8_9 C9_9 1_555 1_555
Cu4_9 Cu5_9 1_555 1_555
O51_9 C10_9 1_555 1_555
N28_4 N8_9 1_555 1_555
C17_9 C18_9 1_555 1_555
Cu7_4 Cu8_4 1_555 1_555
O60_9 C19_9 1_555 1_555
O66_9 C25_9 1_555 1_555
N30_6 N12_9 1_555 1_555
C25_9 C26_9 1_555 1_555
C26_9 C27_9 1_555 1_555
O68_9 C28_9 1_555 1_555
N27 N16_9 1_555 1_555
C35_9 C36_9 1_555 1_555
O78_9 C43_9 1_555 1_555
N19_5 N20_9 1_555 1_555
C43_9 C44_9 1_555 1_555
C44_9 C45_9 1_555 1_555
O84_9 C52_9 1_555 1_555
N29_6 N24_9 1_555 1_555
C52_9 C53_9 1_555 1_555
C53_9 C54_9 1_555 1_555
Cu13_9 Cu16_9 1_555 1_555
Cu14_7 Cu17_7 1_555 1_555
Cu15_4 Cu18_4 1_555 1_555
O61_14 Cu7_5 1_555 1_555
O62_14 Cu8_5 1_555 1_555
O85_5 Cu7_5 1_555 1_555
O87_5 Cu7_5 1_555 1_555
O88_5 Cu8_5 1_555 1_555
O90_5 Cu8_5 1_555 1_555
Cu7_5 Cu8_5 1_555 1_555
Cu14_8 Cu17_8 1_555 1_555
Cu15_5 Cu18_5 1_555 1_555
O61_15 Cu15_4 1_555 1_555
O62_15 Cu18_4 1_555 1_555
O87_6 Cu15_4 1_555 1_555
O90_6 Cu18_4 1_555 1_555
Cu14_9 Cu17_9 1_555 1_555
Cu1_14 Cu2_14 1_555 1_555
Cu2_14 O42_10 1_555 1_555
Cu24_5 N1_10 1_555 1_555
O41_10 Cu1_14 1_555 1_555
O42_10 C1_10 1_555 1_555
O43_14 Cu1_14 1_555 1_555
N1_10 N2_10 1_555 1_555
C1_10 O41_10 1_555 1_555
N2_10 C6_10 1_555 1_555
O44_14 Cu2_14 1_555 1_555
C2_10 C1_10 1_555 1_555
O46_10 Cu24_5 1_555 1_555
C3_10 C2_10 1_555 1_555
H1_10 C3_10 1_555 1_555
C4_10 C3_10 1_555 1_555
C5_10 C2_10 1_555 1_555
H2_10 C5_10 1_555 1_555
C6_10 C4_10 1_555 1_555
O47_10 Cu24_5 1_555 1_555
O48_10 C7_10 1_555 1_555
O49_10 C7_10 1_555 1_555
N3_6 N1_10 1_555 1_555
C7_10 C8_10 1_555 1_555
N4_10 C6_10 1_555 1_555
C8_10 C5_10 1_555 1_555
C9_10 C4_10 1_555 1_555
H3_10 C9_10 1_555 1_555
Cu4_10 O48_10 1_555 1_555
Cu5_10 O49_10 1_555 1_555
Cu25_5 N5_10 1_555 1_555
O50_10 Cu4_10 1_555 1_555
O51_10 Cu5_10 1_555 1_555
O52_18 Cu4_10 1_555 1_555
N5_10 N6_10 1_555 1_555
C10_10 O50_10 1_555 1_555
N6_10 C15_10 1_555 1_555
O53_18 Cu5_10 1_555 1_555
C11_10 C10_10 1_555 1_555
O55_10 Cu25_5 1_555 1_555
C12_10 C11_10 1_555 1_555
H4_10 C12_10 1_555 1_555
C13_10 C12_10 1_555 1_555
C14_10 C11_10 1_555 1_555
H5_10 C14_10 1_555 1_555
C15_10 C13_10 1_555 1_555
O56_10 Cu25_5 1_555 1_555
O57_10 C16_10 1_555 1_555
O58_10 C16_10 1_555 1_555
N28_3 N5_10 1_555 1_555
C16_10 C17_10 1_555 1_555
N8_10 C15_10 1_555 1_555
C17_10 C14_10 1_555 1_555
C18_10 C13_10 1_555 1_555
H6_10 C18_10 1_555 1_555
Cu15_5 O57_10 1_555 1_555
Cu18_5 O58_10 1_555 1_555
Cu22_3 N9_10 1_555 1_555
O59_10 Cu15_5 1_555 1_555
O60_10 Cu18_5 1_555 1_555
O61_16 Cu15_5 1_555 1_555
N9_10 N10_10 1_555 1_555
C19_10 O59_10 1_555 1_555
N10_10 C24_10 1_555 1_555
O62_16 Cu18_5 1_555 1_555
C20_10 C19_10 1_555 1_555
O63_10 Cu22_3 1_555 1_555
C21_10 C20_10 1_555 1_555
H7_10 C21_10 1_555 1_555
C22_10 C21_10 1_555 1_555
C23_10 C20_10 1_555 1_555
H8_10 C23_10 1_555 1_555
C24_10 C22_10 1_555 1_555
O64_10 Cu22_3 1_555 1_555
O65_10 Cu1_14 1_555 1_555
O66_10 Cu2_14 1_555 1_555
N30_5 N9_10 1_555 1_555
C25_10 O65_10 1_555 1_555
N12_10 C24_10 1_555 1_555
C26_10 C23_10 1_555 1_555
C27_10 C22_10 1_555 1_555
H9_10 C27_10 1_555 1_555
Cu19_9 N13_10 1_555 1_555
O67_10 Cu1_14 1_555 1_555
O68_10 Cu2_14 1_555 1_555
N13_10 N14_10 1_555 1_555
C28_10 O67_10 1_555 1_555
N14_10 C33_10 1_555 1_555
C29_10 C28_10 1_555 1_555
O69_10 Cu19_9 1_555 1_555
C30_10 C29_10 1_555 1_555
H10_10 C30_10 1_555 1_555
C31_10 C30_10 1_555 1_555
C32_10 C29_10 1_555 1_555
H11_10 C32_10 1_555 1_555
C33_10 C31_10 1_555 1_555
O70_10 Cu19_9 1_555 1_555
O71_6 C34_10 1_555 1_555
O72_6 C34_10 1_555 1_555
N27_2 N13_10 1_555 1_555
C34_10 C35_10 1_555 1_555
N16_10 C33_10 1_555 1_555
C35_10 C32_10 1_555 1_555
C36_10 C31_10 1_555 1_555
H12_10 C36_10 1_555 1_555
Cu23_2 N17_10 1_555 1_555
O85_5 C37_10 1_555 1_555
O88_5 C37_10 1_555 1_555
N17_10 N18_10 1_555 1_555
C37_10 C38_10 1_555 1_555
N18_10 C42_10 1_555 1_555
C38_10 C39_10 1_555 1_555
O75_10 Cu23_2 1_555 1_555
C39_10 H13_10 1_555 1_555
C40_10 C39_10 1_555 1_555
C41_10 C38_10 1_555 1_555
H14_10 C41_10 1_555 1_555
C42_10 C40_10 1_555 1_555
O76_10 Cu23_2 1_555 1_555
O77_10 Cu4_10 1_555 1_555
O78_10 Cu5_10 1_555 1_555
N19_6 N17_10 1_555 1_555
C43_10 O77_10 1_555 1_555
N20_10 C42_10 1_555 1_555
C44_10 C41_10 1_555 1_555
C45_10 C40_10 1_555 1_555
H15_10 C45_10 1_555 1_555
Cu25_16 N21_10 1_555 1_555
O79_6 C46_10 1_555 1_555
O80_6 C46_10 1_555 1_555
N21_10 N22_10 1_555 1_555
C46_10 C47_10 1_555 1_555
N22_10 C51_10 1_555 1_555
C47_10 C48_10 1_555 1_555
O81_10 Cu25_16 1_555 1_555
C48_10 H16_10 1_555 1_555
C49_10 C48_10 1_555 1_555
C50_10 C47_10 1_555 1_555
H17_10 C50_10 1_555 1_555
C51_10 C49_10 1_555 1_555
O82_10 Cu25_16 1_555 1_555
O83_10 Cu1_14 1_555 1_555
O84_10 Cu2_14 1_555 1_555
N29_5 N21_10 1_555 1_555
C52_10 O83_10 1_555 1_555
N24_10 C51_10 1_555 1_555
C53_10 C50_10 1_555 1_555
C54_10 C49_10 1_555 1_555
H18_10 C54_10 1_555 1_555
Cu13_10 O79_6 1_555 1_555
Cu14_10 O71_6 1_555 1_555
Cu16_10 O80_6 1_555 1_555
Cu17_10 O72_6 1_555 1_555
Cu25_7 N19_6 1_555 1_555
O86_6 Cu4_10 1_555 1_555
O89_6 Cu5_10 1_555 1_555
N25_6 Cu25_16 1_555 1_555
N26_6 Cu25_5 1_555 1_555
N3_6 N4_10 1_555 1_555
N3_6 Cu19_14 1_555 1_555
C8_10 C9_10 1_555 1_555
Cu4_10 Cu5_10 1_555 1_555
O51_10 C10_10 1_555 1_555
N28_3 N8_10 1_555 1_555
C17_10 C18_10 1_555 1_555
O60_10 C19_10 1_555 1_555
O66_10 C25_10 1_555 1_555
N30_5 N12_10 1_555 1_555
C25_10 C26_10 1_555 1_555
C26_10 C27_10 1_555 1_555
O68_10 C28_10 1_555 1_555
N27_2 N16_10 1_555 1_555
C35_10 C36_10 1_555 1_555
O78_10 C43_10 1_555 1_555
N19_6 N20_10 1_555 1_555
C43_10 C44_10 1_555 1_555
C44_10 C45_10 1_555 1_555
O84_10 C52_10 1_555 1_555
N29_5 N24_10 1_555 1_555
C52_10 C53_10 1_555 1_555
C53_10 C54_10 1_555 1_555
Cu13_10 Cu16_10 1_555 1_555
Cu14_10 Cu17_10 1_555 1_555
O61_17 Cu14_7 1_555 1_555
O62_17 Cu17_7 1_555 1_555
O85_6 Cu14_7 1_555 1_555
O88_6 Cu17_7 1_555 1_555
Cu1_15 Cu2_15 1_555 1_555
Cu2_15 O42_11 1_555 1_555
Cu24_8 N1_11 1_555 1_555
O41_11 Cu1_15 1_555 1_555
O42_11 C1_11 1_555 1_555
O43_15 Cu1_15 1_555 1_555
N1_11 N2_11 1_555 1_555
C1_11 O41_11 1_555 1_555
N2_11 C6_11 1_555 1_555
O44_15 Cu2_15 1_555 1_555
C2_11 C1_11 1_555 1_555
O46_11 Cu24_8 1_555 1_555
C3_11 C2_11 1_555 1_555
H1_11 C3_11 1_555 1_555
C4_11 C3_11 1_555 1_555
C5_11 C2_11 1_555 1_555
H2_11 C5_11 1_555 1_555
C6_11 C4_11 1_555 1_555
O47_11 Cu24_8 1_555 1_555
O48_11 C7_11 1_555 1_555
O49_11 C7_11 1_555 1_555
N3_7 N1_11 1_555 1_555
C7_11 C8_11 1_555 1_555
N4_11 C6_11 1_555 1_555
C8_11 C5_11 1_555 1_555
C9_11 C4_11 1_555 1_555
H3_11 C9_11 1_555 1_555
Cu13_10 O48_11 1_555 1_555
Cu16_10 O49_11 1_555 1_555
Cu25_6 N5_11 1_555 1_555
O50_11 Cu13_10 1_555 1_555
O51_11 Cu16_10 1_555 1_555
O52_19 Cu13_10 1_555 1_555
N5_11 N6_11 1_555 1_555
C10_11 O50_11 1_555 1_555
N6_11 C15_11 1_555 1_555
O53_19 Cu16_10 1_555 1_555
C11_11 C10_11 1_555 1_555
O55_11 Cu25_6 1_555 1_555
C12_11 C11_11 1_555 1_555
H4_11 C12_11 1_555 1_555
C13_11 C12_11 1_555 1_555
C14_11 C11_11 1_555 1_555
H5_11 C14_11 1_555 1_555
C15_11 C13_11 1_555 1_555
O56_11 Cu25_6 1_555 1_555
O57_11 C16_11 1_555 1_555
O58_11 C16_11 1_555 1_555
N28_2 N5_11 1_555 1_555
C16_11 C17_11 1_555 1_555
N8_11 C15_11 1_555 1_555
C17_11 C14_11 1_555 1_555
C18_11 C13_11 1_555 1_555
H6_11 C18_11 1_555 1_555
Cu14_8 O57_11 1_555 1_555
Cu17_8 O58_11 1_555 1_555
Cu22_2 N9_11 1_555 1_555
O59_11 Cu14_8 1_555 1_555
O60_11 Cu17_8 1_555 1_555
O61_18 Cu14_8 1_555 1_555
N9_11 N10_11 1_555 1_555
C19_11 O59_11 1_555 1_555
N10_11 C24_11 1_555 1_555
O62_18 Cu17_8 1_555 1_555
C20_11 C19_11 1_555 1_555
O63_11 Cu22_2 1_555 1_555
C21_11 C20_11 1_555 1_555
H7_11 C21_11 1_555 1_555
C22_11 C21_11 1_555 1_555
C23_11 C20_11 1_555 1_555
H8_11 C23_11 1_555 1_555
C24_11 C22_11 1_555 1_555
O64_11 Cu22_2 1_555 1_555
O65_11 Cu1_15 1_555 1_555
O66_11 Cu2_15 1_555 1_555
N30_8 N9_11 1_555 1_555
C25_11 O65_11 1_555 1_555
N12_11 C24_11 1_555 1_555
C26_11 C23_11 1_555 1_555
C27_11 C22_11 1_555 1_555
H9_11 C27_11 1_555 1_555
Cu19_7 N13_11 1_555 1_555
O67_11 Cu1_15 1_555 1_555
O68_11 Cu2_15 1_555 1_555
N13_11 N14_11 1_555 1_555
C28_11 O67_11 1_555 1_555
N14_11 C33_11 1_555 1_555
C29_11 C28_11 1_555 1_555
O69_11 Cu19_7 1_555 1_555
C30_11 C29_11 1_555 1_555
H10_11 C30_11 1_555 1_555
C31_11 C30_11 1_555 1_555
C32_11 C29_11 1_555 1_555
H11_11 C32_11 1_555 1_555
C33_11 C31_11 1_555 1_555
O70_11 Cu19_7 1_555 1_555
O87_5 C34_11 1_555 1_555
O90_5 C34_11 1_555 1_555
N27_3 N13_11 1_555 1_555
C34_11 C35_11 1_555 1_555
N16_11 C33_11 1_555 1_555
C35_11 C32_11 1_555 1_555
C36_11 C31_11 1_555 1_555
H12_11 C36_11 1_555 1_555
Cu23_3 N17_11 1_555 1_555
O73_6 C37_11 1_555 1_555
O74_6 C37_11 1_555 1_555
N17_11 N18_11 1_555 1_555
C37_11 C38_11 1_555 1_555
N18_11 C42_11 1_555 1_555
C38_11 C39_11 1_555 1_555
O75_11 Cu23_3 1_555 1_555
C39_11 H13_11 1_555 1_555
C40_11 C39_11 1_555 1_555
C41_11 C38_11 1_555 1_555
H14_11 C41_11 1_555 1_555
C42_11 C40_11 1_555 1_555
O76_11 Cu23_3 1_555 1_555
O77_11 Cu13_10 1_555 1_555
O78_11 Cu16_10 1_555 1_555
N19_7 N17_11 1_555 1_555
C43_11 O77_11 1_555 1_555
N20_11 C42_11 1_555 1_555
C44_11 C41_11 1_555 1_555
C45_11 C40_11 1_555 1_555
H15_11 C45_11 1_555 1_555
Cu25_18 N21_11 1_555 1_555
O86_6 C46_11 1_555 1_555
O89_6 C46_11 1_555 1_555
N21_11 N22_11 1_555 1_555
C46_11 C47_11 1_555 1_555
N22_11 C51_11 1_555 1_555
C47_11 C48_11 1_555 1_555
O81_11 Cu25_18 1_555 1_555
C48_11 H16_11 1_555 1_555
C49_11 C48_11 1_555 1_555
C50_11 C47_11 1_555 1_555
H17_11 C50_11 1_555 1_555
C51_11 C49_11 1_555 1_555
O82_11 Cu25_18 1_555 1_555
O83_11 Cu1_15 1_555 1_555
O84_11 Cu2_15 1_555 1_555
N29_8 N21_11 1_555 1_555
C52_11 O83_11 1_555 1_555
N24_11 C51_11 1_555 1_555
C53_11 C50_11 1_555 1_555
C54_11 C49_11 1_555 1_555
H18_11 C54_11 1_555 1_555
Cu14_10 O73_6 1_555 1_555
Cu17_10 O74_6 1_555 1_555
Cu25_9 N19_7 1_555 1_555
N25_7 Cu25_18 1_555 1_555
N26_7 Cu25_6 1_555 1_555
N3_7 N4_11 1_555 1_555
N3_7 Cu19_13 1_555 1_555
C8_11 C9_11 1_555 1_555
O51_11 C10_11 1_555 1_555
N28_2 N8_11 1_555 1_555
C17_11 C18_11 1_555 1_555
O60_11 C19_11 1_555 1_555
O66_11 C25_11 1_555 1_555
N30_8 N12_11 1_555 1_555
C25_11 C26_11 1_555 1_555
C26_11 C27_11 1_555 1_555
O68_11 C28_11 1_555 1_555
N27_3 N16_11 1_555 1_555
C35_11 C36_11 1_555 1_555
O78_11 C43_11 1_555 1_555
N19_7 N20_11 1_555 1_555
C43_11 C44_11 1_555 1_555
C44_11 C45_11 1_555 1_555
O84_11 C52_11 1_555 1_555
N29_8 N24_11 1_555 1_555
C52_11 C53_11 1_555 1_555
C53_11 C54_11 1_555 1_555
Cu1_16 Cu2_16 1_555 1_555
Cu2_16 O42_12 1_555 1_555
Cu24_7 N1_12 1_555 1_555
O41_12 Cu1_16 1_555 1_555
O42_12 C1_12 1_555 1_555
O43_16 Cu1_16 1_555 1_555
N1_12 N2_12 1_555 1_555
C1_12 O41_12 1_555 1_555
N2_12 C6_12 1_555 1_555
O44_16 Cu2_16 1_555 1_555
C2_12 C1_12 1_555 1_555
O46_12 Cu24_7 1_555 1_555
C3_12 C2_12 1_555 1_555
H1_12 C3_12 1_555 1_555
C4_12 C3_12 1_555 1_555
C5_12 C2_12 1_555 1_555
H2_12 C5_12 1_555 1_555
C6_12 C4_12 1_555 1_555
O47_12 Cu24_7 1_555 1_555
O48_12 C7_12 1_555 1_555
O49_12 C7_12 1_555 1_555
N3_8 N1_12 1_555 1_555
C7_12 C8_12 1_555 1_555
N4_12 C6_12 1_555 1_555
C8_12 C5_12 1_555 1_555
C9_12 C4_12 1_555 1_555
H3_12 C9_12 1_555 1_555
Cu13_9 O48_12 1_555 1_555
Cu16_9 O49_12 1_555 1_555
Cu19_6 N5_12 1_555 1_555
O50_12 Cu13_9 1_555 1_555
O51_12 Cu16_9 1_555 1_555
O52_20 Cu13_9 1_555 1_555
N5_12 N6_12 1_555 1_555
C10_12 O50_12 1_555 1_555
N6_12 C15_12 1_555 1_555
O53_20 Cu16_9 1_555 1_555
C11_12 C10_12 1_555 1_555
O55_12 Cu19_6 1_555 1_555
C12_12 C11_12 1_555 1_555
H4_12 C12_12 1_555 1_555
C13_12 C12_12 1_555 1_555
C14_12 C11_12 1_555 1_555
H5_12 C14_12 1_555 1_555
C15_12 C13_12 1_555 1_555
O56_12 Cu19_6 1_555 1_555
O57_12 C16_12 1_555 1_555
O58_12 C16_12 1_555 1_555
N28 N5_12 1_555 1_555
C16_12 C17_12 1_555 1_555
N8_12 C15_12 1_555 1_555
C17_12 C14_12 1_555 1_555
C18_12 C13_12 1_555 1_555
H6_12 C18_12 1_555 1_555
Cu14_9 O57_12 1_555 1_555
Cu17_9 O58_12 1_555 1_555
Cu22 N9_12 1_555 1_555
O59_12 Cu14_9 1_555 1_555
O60_12 Cu17_9 1_555 1_555
O61_19 Cu14_9 1_555 1_555
N9_12 N10_12 1_555 1_555
C19_12 O59_12 1_555 1_555
N10_12 C24_12 1_555 1_555
O62_19 Cu17_9 1_555 1_555
C20_12 C19_12 1_555 1_555
O63_12 Cu22 1_555 1_555
C21_12 C20_12 1_555 1_555
H7_12 C21_12 1_555 1_555
C22_12 C21_12 1_555 1_555
C23_12 C20_12 1_555 1_555
H8_12 C23_12 1_555 1_555
C24_12 C22_12 1_555 1_555
O64_12 Cu22 1_555 1_555
O65_12 Cu1_16 1_555 1_555
O66_12 Cu2_16 1_555 1_555
N30_7 N9_12 1_555 1_555
C25_12 O65_12 1_555 1_555
N12_12 C24_12 1_555 1_555
C26_12 C23_12 1_555 1_555
C27_12 C22_12 1_555 1_555
H9_12 C27_12 1_555 1_555
Cu19_8 N13_12 1_555 1_555
O67_12 Cu1_16 1_555 1_555
O68_12 Cu2_16 1_555 1_555
N13_12 N14_12 1_555 1_555
C28_12 O67_12 1_555 1_555
N14_12 C33_12 1_555 1_555
C29_12 C28_12 1_555 1_555
O69_12 Cu19_8 1_555 1_555
C30_12 C29_12 1_555 1_555
H10_12 C30_12 1_555 1_555
C31_12 C30_12 1_555 1_555
C32_12 C29_12 1_555 1_555
H11_12 C32_12 1_555 1_555
C33_12 C31_12 1_555 1_555
O70_12 Cu19_8 1_555 1_555
O87_6 C34_12 1_555 1_555
O90_6 C34_12 1_555 1_555
N27_4 N13_12 1_555 1_555
C34_12 C35_12 1_555 1_555
N16_12 C33_12 1_555 1_555
C35_12 C32_12 1_555 1_555
C36_12 C31_12 1_555 1_555
H12_12 C36_12 1_555 1_555
Cu23_4 N17_12 1_555 1_555
O85_6 C37_12 1_555 1_555
O88_6 C37_12 1_555 1_555
N17_12 N18_12 1_555 1_555
C37_12 C38_12 1_555 1_555
N18_12 C42_12 1_555 1_555
C38_12 C39_12 1_555 1_555
O75_12 Cu23_4 1_555 1_555
C39_12 H13_12 1_555 1_555
C40_12 C39_12 1_555 1_555
C41_12 C38_12 1_555 1_555
H14_12 C41_12 1_555 1_555
C42_12 C40_12 1_555 1_555
O76_12 Cu23_4 1_555 1_555
O77_12 Cu13_9 1_555 1_555
O78_12 Cu16_9 1_555 1_555
N19_8 N17_12 1_555 1_555
C43_12 O77_12 1_555 1_555
N20_12 C42_12 1_555 1_555
C44_12 C41_12 1_555 1_555
C45_12 C40_12 1_555 1_555
H15_12 C45_12 1_555 1_555
Cu25_17 N21_12 1_555 1_555
O86_5 C46_12 1_555 1_555
O89_5 C46_12 1_555 1_555
N21_12 N22_12 1_555 1_555
C46_12 C47_12 1_555 1_555
N22_12 C51_12 1_555 1_555
C47_12 C48_12 1_555 1_555
O81_12 Cu25_17 1_555 1_555
C48_12 H16_12 1_555 1_555
C49_12 C48_12 1_555 1_555
C50_12 C47_12 1_555 1_555
H17_12 C50_12 1_555 1_555
C51_12 C49_12 1_555 1_555
O82_12 Cu25_17 1_555 1_555
O83_12 Cu1_16 1_555 1_555
O84_12 Cu2_16 1_555 1_555
N29_7 N21_12 1_555 1_555
C52_12 O83_12 1_555 1_555
N24_12 C51_12 1_555 1_555
C53_12 C50_12 1_555 1_555
C54_12 C49_12 1_555 1_555
H18_12 C54_12 1_555 1_555
Cu25_10 N19_8 1_555 1_555
N25_8 Cu25_17 1_555 1_555
N26_8 Cu19_6 1_555 1_555
N3_8 N4_12 1_555 1_555
N3_8 Cu25_13 1_555 1_555
C8_12 C9_12 1_555 1_555
O51_12 C10_12 1_555 1_555
N28 N8_12 1_555 1_555
C17_12 C18_12 1_555 1_555
O60_12 C19_12 1_555 1_555
O66_12 C25_12 1_555 1_555
N30_7 N12_12 1_555 1_555
C25_12 C26_12 1_555 1_555
C26_12 C27_12 1_555 1_555
O68_12 C28_12 1_555 1_555
N27_4 N16_12 1_555 1_555
C35_12 C36_12 1_555 1_555
O78_12 C43_12 1_555 1_555
N19_8 N20_12 1_555 1_555
C43_12 C44_12 1_555 1_555
C44_12 C45_12 1_555 1_555
O84_12 C52_12 1_555 1_555
N29_7 N24_12 1_555 1_555
C52_12 C53_12 1_555 1_555
C53_12 C54_12 1_555 1_555
O61_20 Cu14_10 1_555 1_555
O62_20 Cu17_10 1_555 1_555
Cu1_17 Cu2_17 1_555 1_555
O43_17 Cu1_17 1_555 1_555
O44_17 Cu2_17 1_555 1_555
Cu26_2 N13_13 1_555 1_555
O67_13 Cu1_17 1_555 1_555
O68_13 Cu2_17 1_555 1_555
N13_13 N14_13 1_555 1_555
C28_13 O67_13 1_555 1_555
N14_13 C33_13 1_555 1_555
C29_13 C28_13 1_555 1_555
O69_13 Cu26_2 1_555 1_555
C30_13 C29_13 1_555 1_555
H10_13 C30_13 1_555 1_555
C31_13 C30_13 1_555 1_555
C32_13 C29_13 1_555 1_555
H11_13 C32_13 1_555 1_555
C33_13 C31_13 1_555 1_555
O70_13 Cu26_2 1_555 1_555
O71_7 C34_13 1_555 1_555
O72_7 C34_13 1_555 1_555
N27_5 N13_13 1_555 1_555
C34_13 C35_13 1_555 1_555
N16_13 C33_13 1_555 1_555
C35_13 C32_13 1_555 1_555
C36_13 C31_13 1_555 1_555
H12_13 C36_13 1_555 1_555
Cu25_7 N21_13 1_555 1_555
O79_7 C46_13 1_555 1_555
O80_7 C46_13 1_555 1_555
N21_13 N22_13 1_555 1_555
C46_13 C47_13 1_555 1_555
N22_13 C51_13 1_555 1_555
C47_13 C48_13 1_555 1_555
O81_13 Cu25_7 1_555 1_555
C48_13 H16_13 1_555 1_555
C49_13 C48_13 1_555 1_555
C50_13 C47_13 1_555 1_555
H17_13 C50_13 1_555 1_555
C51_13 C49_13 1_555 1_555
O82_13 Cu25_7 1_555 1_555
O83_13 Cu1_17 1_555 1_555
O84_13 Cu2_17 1_555 1_555
N29_2 N21_13 1_555 1_555
C52_13 O83_13 1_555 1_555
N24_13 C51_13 1_555 1_555
C53_13 C50_13 1_555 1_555
C54_13 C49_13 1_555 1_555
H18_13 C54_13 1_555 1_555
Cu13_11 O79_7 1_555 1_555
Cu14_11 O71_7 1_555 1_555
Cu16_11 O80_7 1_555 1_555
Cu17_11 O72_7 1_555 1_555
O68_13 C28_13 1_555 1_555
N27_5 N16_13 1_555 1_555
C35_13 C36_13 1_555 1_555
O84_13 C52_13 1_555 1_555
N29_2 N24_13 1_555 1_555
C52_13 C53_13 1_555 1_555
C53_13 C54_13 1_555 1_555
Cu13_11 Cu16_11 1_555 1_555
Cu14_11 Cu17_11 1_555 1_555
Cu1_18 Cu2_18 1_555 1_555
Cu2_18 O42_13 1_555 1_555
Cu24_2 N1_13 1_555 1_555
O41_13 Cu1_18 1_555 1_555
O42_13 C1_13 1_555 1_555
O43_18 Cu1_18 1_555 1_555
N1_13 N2_13 1_555 1_555
C1_13 O41_13 1_555 1_555
N2_13 C6_13 1_555 1_555
O44_18 Cu2_18 1_555 1_555
C2_13 C1_13 1_555 1_555
O46_13 Cu24_2 1_555 1_555
C3_13 C2_13 1_555 1_555
H1_13 C3_13 1_555 1_555
C4_13 C3_13 1_555 1_555
C5_13 C2_13 1_555 1_555
H2_13 C5_13 1_555 1_555
C6_13 C4_13 1_555 1_555
O47_13 Cu24_2 1_555 1_555
O48_13 C7_13 1_555 1_555
O49_13 C7_13 1_555 1_555
N26_7 N1_13 1_555 1_555
C7_13 C8_13 1_555 1_555
N4_13 C6_13 1_555 1_555
C8_13 C5_13 1_555 1_555
C9_13 C4_13 1_555 1_555
H3_13 C9_13 1_555 1_555
Cu4_11 O48_13 1_555 1_555
Cu5_11 O49_13 1_555 1_555
Cu19_13 N5_13 1_555 1_555
O50_13 Cu4_11 1_555 1_555
O51_13 Cu5_11 1_555 1_555
O52_21 Cu4_11 1_555 1_555
N5_13 N6_13 1_555 1_555
C10_13 O50_13 1_555 1_555
N6_13 C15_13 1_555 1_555
O53_21 Cu5_11 1_555 1_555
C11_13 C10_13 1_555 1_555
O55_13 Cu19_13 1_555 1_555
C12_13 C11_13 1_555 1_555
H4_13 C12_13 1_555 1_555
C13_13 C12_13 1_555 1_555
C14_13 C11_13 1_555 1_555
H5_13 C14_13 1_555 1_555
C15_13 C13_13 1_555 1_555
O56_13 Cu19_13 1_555 1_555
O57_13 C16_13 1_555 1_555
O58_13 C16_13 1_555 1_555
N28_8 N5_13 1_555 1_555
C16_13 C17_13 1_555 1_555
N8_13 C15_13 1_555 1_555
C17_13 C14_13 1_555 1_555
C18_13 C13_13 1_555 1_555
H6_13 C18_13 1_555 1_555
Cu7_6 O57_13 1_555 1_555
Cu8_6 O58_13 1_555 1_555
Cu25_2 N9_13 1_555 1_555
O59_13 Cu7_6 1_555 1_555
O60_13 Cu8_6 1_555 1_555
O61_21 Cu7_6 1_555 1_555
N9_13 N10_13 1_555 1_555
C19_13 O59_13 1_555 1_555
N10_13 C24_13 1_555 1_555
O62_21 Cu8_6 1_555 1_555
C20_13 C19_13 1_555 1_555
O63_13 Cu25_2 1_555 1_555
C21_13 C20_13 1_555 1_555
H7_13 C21_13 1_555 1_555
C22_13 C21_13 1_555 1_555
C23_13 C20_13 1_555 1_555
H8_13 C23_13 1_555 1_555
C24_13 C22_13 1_555 1_555
O64_13 Cu25_2 1_555 1_555
O65_13 Cu1_18 1_555 1_555
O66_13 Cu2_18 1_555 1_555
N30_2 N9_13 1_555 1_555
C25_13 O65_13 1_555 1_555
N12_13 C24_13 1_555 1_555
C26_13 C23_13 1_555 1_555
C27_13 C22_13 1_555 1_555
H9_13 C27_13 1_555 1_555
Cu23_5 N17_13 1_555 1_555
O73_7 C37_13 1_555 1_555
O74_7 C37_13 1_555 1_555
N17_13 N18_13 1_555 1_555
C37_13 C38_13 1_555 1_555
N18_13 C42_13 1_555 1_555
C38_13 C39_13 1_555 1_555
O75_13 Cu23_5 1_555 1_555
C39_13 H13_13 1_555 1_555
C40_13 C39_13 1_555 1_555
C41_13 C38_13 1_555 1_555
H14_13 C41_13 1_555 1_555
C42_13 C40_13 1_555 1_555
O76_13 Cu23_5 1_555 1_555
O77_13 Cu4_11 1_555 1_555
O78_13 Cu5_11 1_555 1_555
N25_6 N17_13 1_555 1_555
C43_13 O77_13 1_555 1_555
N20_13 C42_13 1_555 1_555
C44_13 C41_13 1_555 1_555
C45_13 C40_13 1_555 1_555
H15_13 C45_13 1_555 1_555
Cu15_6 O73_7 1_555 1_555
Cu18_6 O74_7 1_555 1_555
O85_7 Cu7_6 1_555 1_555
O86_7 Cu4_11 1_555 1_555
O87_7 Cu7_6 1_555 1_555
O88_7 Cu8_6 1_555 1_555
O89_7 Cu5_11 1_555 1_555
O90_7 Cu8_6 1_555 1_555
N26_7 N4_13 1_555 1_555
C8_13 C9_13 1_555 1_555
Cu4_11 Cu5_11 1_555 1_555
O51_13 C10_13 1_555 1_555
N28_8 N8_13 1_555 1_555
C17_13 C18_13 1_555 1_555
Cu7_6 Cu8_6 1_555 1_555
O60_13 C19_13 1_555 1_555
O66_13 C25_13 1_555 1_555
N30_2 N12_13 1_555 1_555
C25_13 C26_13 1_555 1_555
C26_13 C27_13 1_555 1_555
O78_13 C43_13 1_555 1_555
N25_6 N20_13 1_555 1_555
C43_13 C44_13 1_555 1_555
C44_13 C45_13 1_555 1_555
Cu15_6 Cu18_6 1_555 1_555
Cu1_19 Cu2_19 1_555 1_555
O43_19 Cu1_19 1_555 1_555
O44_19 Cu2_19 1_555 1_555
Cu26 N13_14 1_555 1_555
O67_14 Cu1_19 1_555 1_555
O68_14 Cu2_19 1_555 1_555
N13_14 N14_14 1_555 1_555
C28_14 O67_14 1_555 1_555
N14_14 C33_14 1_555 1_555
C29_14 C28_14 1_555 1_555
O69_14 Cu26 1_555 1_555
C30_14 C29_14 1_555 1_555
H10_14 C30_14 1_555 1_555
C31_14 C30_14 1_555 1_555
C32_14 C29_14 1_555 1_555
H11_14 C32_14 1_555 1_555
C33_14 C31_14 1_555 1_555
O70_14 Cu26 1_555 1_555
O71_8 C34_14 1_555 1_555
O72_8 C34_14 1_555 1_555
N27_6 N13_14 1_555 1_555
C34_14 C35_14 1_555 1_555
N16_14 C33_14 1_555 1_555
C35_14 C32_14 1_555 1_555
C36_14 C31_14 1_555 1_555
H12_14 C36_14 1_555 1_555
Cu25_8 N21_14 1_555 1_555
O79_8 C46_14 1_555 1_555
O80_8 C46_14 1_555 1_555
N21_14 N22_14 1_555 1_555
C46_14 C47_14 1_555 1_555
N22_14 C51_14 1_555 1_555
C47_14 C48_14 1_555 1_555
O81_14 Cu25_8 1_555 1_555
C48_14 H16_14 1_555 1_555
C49_14 C48_14 1_555 1_555
C50_14 C47_14 1_555 1_555
H17_14 C50_14 1_555 1_555
C51_14 C49_14 1_555 1_555
O82_14 Cu25_8 1_555 1_555
O83_14 Cu1_19 1_555 1_555
O84_14 Cu2_19 1_555 1_555
N29 N21_14 1_555 1_555
C52_14 O83_14 1_555 1_555
N24_14 C51_14 1_555 1_555
C53_14 C50_14 1_555 1_555
C54_14 C49_14 1_555 1_555
H18_14 C54_14 1_555 1_555
Cu13_12 O79_8 1_555 1_555
Cu14_12 O71_8 1_555 1_555
Cu16_12 O80_8 1_555 1_555
Cu17_12 O72_8 1_555 1_555
O68_14 C28_14 1_555 1_555
N27_6 N16_14 1_555 1_555
C35_14 C36_14 1_555 1_555
O84_14 C52_14 1_555 1_555
N29 N24_14 1_555 1_555
C52_14 C53_14 1_555 1_555
C53_14 C54_14 1_555 1_555
Cu13_12 Cu16_12 1_555 1_555
Cu14_12 Cu17_12 1_555 1_555
Cu1_20 Cu2_20 1_555 1_555
Cu2_20 O42_14 1_555 1_555
Cu24 N1_14 1_555 1_555
O41_14 Cu1_20 1_555 1_555
O42_14 C1_14 1_555 1_555
O43_20 Cu1_20 1_555 1_555
N1_14 N2_14 1_555 1_555
C1_14 O41_14 1_555 1_555
N2_14 C6_14 1_555 1_555
O44_20 Cu2_20 1_555 1_555
C2_14 C1_14 1_555 1_555
O46_14 Cu24 1_555 1_555
C3_14 C2_14 1_555 1_555
H1_14 C3_14 1_555 1_555
C4_14 C3_14 1_555 1_555
C5_14 C2_14 1_555 1_555
H2_14 C5_14 1_555 1_555
C6_14 C4_14 1_555 1_555
O47_14 Cu24 1_555 1_555
O48_14 C7_14 1_555 1_555
O49_14 C7_14 1_555 1_555
N26_8 N1_14 1_555 1_555
C7_14 C8_14 1_555 1_555
N4_14 C6_14 1_555 1_555
C8_14 C5_14 1_555 1_555
C9_14 C4_14 1_555 1_555
H3_14 C9_14 1_555 1_555
Cu4_12 O48_14 1_555 1_555
Cu5_12 O49_14 1_555 1_555
Cu25_13 N5_14 1_555 1_555
O50_14 Cu4_12 1_555 1_555
O51_14 Cu5_12 1_555 1_555
O52_22 Cu4_12 1_555 1_555
N5_14 N6_14 1_555 1_555
C10_14 O50_14 1_555 1_555
N6_14 C15_14 1_555 1_555
O53_22 Cu5_12 1_555 1_555
C11_14 C10_14 1_555 1_555
O55_14 Cu25_13 1_555 1_555
C12_14 C11_14 1_555 1_555
H4_14 C12_14 1_555 1_555
C13_14 C12_14 1_555 1_555
C14_14 C11_14 1_555 1_555
H5_14 C14_14 1_555 1_555
C15_14 C13_14 1_555 1_555
O56_14 Cu25_13 1_555 1_555
O57_14 C16_14 1_555 1_555
O58_14 C16_14 1_555 1_555
N28_7 N5_14 1_555 1_555
C16_14 C17_14 1_555 1_555
N8_14 C15_14 1_555 1_555
C17_14 C14_14 1_555 1_555
C18_14 C13_14 1_555 1_555
H6_14 C18_14 1_555 1_555
Cu15_6 O57_14 1_555 1_555
Cu18_6 O58_14 1_555 1_555
Cu25 N9_14 1_555 1_555
O59_14 Cu15_6 1_555 1_555
O60_14 Cu18_6 1_555 1_555
O61_22 Cu15_6 1_555 1_555
N9_14 N10_14 1_555 1_555
C19_14 O59_14 1_555 1_555
N10_14 C24_14 1_555 1_555
O62_22 Cu18_6 1_555 1_555
C20_14 C19_14 1_555 1_555
O63_14 Cu25 1_555 1_555
C21_14 C20_14 1_555 1_555
H7_14 C21_14 1_555 1_555
C22_14 C21_14 1_555 1_555
C23_14 C20_14 1_555 1_555
H8_14 C23_14 1_555 1_555
C24_14 C22_14 1_555 1_555
O64_14 Cu25 1_555 1_555
O65_14 Cu1_20 1_555 1_555
O66_14 Cu2_20 1_555 1_555
N30 N9_14 1_555 1_555
C25_14 O65_14 1_555 1_555
N12_14 C24_14 1_555 1_555
C26_14 C23_14 1_555 1_555
C27_14 C22_14 1_555 1_555
H9_14 C27_14 1_555 1_555
Cu23_6 N17_14 1_555 1_555
O85_7 C37_14 1_555 1_555
O88_7 C37_14 1_555 1_555
N17_14 N18_14 1_555 1_555
C37_14 C38_14 1_555 1_555
N18_14 C42_14 1_555 1_555
C38_14 C39_14 1_555 1_555
O75_14 Cu23_6 1_555 1_555
C39_14 H13_14 1_555 1_555
C40_14 C39_14 1_555 1_555
C41_14 C38_14 1_555 1_555
H14_14 C41_14 1_555 1_555
C42_14 C40_14 1_555 1_555
O76_14 Cu23_6 1_555 1_555
O77_14 Cu4_12 1_555 1_555
O78_14 Cu5_12 1_555 1_555
N25_5 N17_14 1_555 1_555
C43_14 O77_14 1_555 1_555
N20_14 C42_14 1_555 1_555
C44_14 C41_14 1_555 1_555
C45_14 C40_14 1_555 1_555
H15_14 C45_14 1_555 1_555
O86_8 Cu4_12 1_555 1_555
O87_8 Cu15_6 1_555 1_555
O89_8 Cu5_12 1_555 1_555
O90_8 Cu18_6 1_555 1_555
N26_8 N4_14 1_555 1_555
C8_14 C9_14 1_555 1_555
Cu4_12 Cu5_12 1_555 1_555
O51_14 C10_14 1_555 1_555
N28_7 N8_14 1_555 1_555
C17_14 C18_14 1_555 1_555
O60_14 C19_14 1_555 1_555
O66_14 C25_14 1_555 1_555
N30 N12_14 1_555 1_555
C25_14 C26_14 1_555 1_555
C26_14 C27_14 1_555 1_555
O78_14 C43_14 1_555 1_555
N25_5 N20_14 1_555 1_555
C43_14 C44_14 1_555 1_555
C44_14 C45_14 1_555 1_555
Cu1_21 Cu2_21 1_555 1_555
Cu2_21 O42_15 1_555 1_555
Cu24_4 N1_15 1_555 1_555
O41_15 Cu1_21 1_555 1_555
O42_15 C1_15 1_555 1_555
O43_21 Cu1_21 1_555 1_555
N1_15 N2_15 1_555 1_555
C1_15 O41_15 1_555 1_555
N2_15 C6_15 1_555 1_555
O44_21 Cu2_21 1_555 1_555
C2_15 C1_15 1_555 1_555
O46_15 Cu24_4 1_555 1_555
C3_15 C2_15 1_555 1_555
H1_15 C3_15 1_555 1_555
C4_15 C3_15 1_555 1_555
C5_15 C2_15 1_555 1_555
H2_15 C5_15 1_555 1_555
C6_15 C4_15 1_555 1_555
O47_15 Cu24_4 1_555 1_555
O48_15 C7_15 1_555 1_555
O49_15 C7_15 1_555 1_555
N26_5 N1_15 1_555 1_555
C7_15 C8_15 1_555 1_555
N4_15 C6_15 1_555 1_555
C8_15 C5_15 1_555 1_555
C9_15 C4_15 1_555 1_555
H3_15 C9_15 1_555 1_555
Cu13_12 O48_15 1_555 1_555
Cu16_12 O49_15 1_555 1_555
Cu25_14 N5_15 1_555 1_555
O50_15 Cu13_12 1_555 1_555
O51_15 Cu16_12 1_555 1_555
O52_23 Cu13_12 1_555 1_555
N5_15 N6_15 1_555 1_555
C10_15 O50_15 1_555 1_555
N6_15 C15_15 1_555 1_555
O53_23 Cu16_12 1_555 1_555
C11_15 C10_15 1_555 1_555
O55_15 Cu25_14 1_555 1_555
C12_15 C11_15 1_555 1_555
H4_15 C12_15 1_555 1_555
C13_15 C12_15 1_555 1_555
C14_15 C11_15 1_555 1_555
H5_15 C14_15 1_555 1_555
C15_15 C13_15 1_555 1_555
O56_15 Cu25_14 1_555 1_555
O57_15 C16_15 1_555 1_555
O58_15 C16_15 1_555 1_555
N28_6 N5_15 1_555 1_555
C16_15 C17_15 1_555 1_555
N8_15 C15_15 1_555 1_555
C17_15 C14_15 1_555 1_555
C18_15 C13_15 1_555 1_555
H6_15 C18_15 1_555 1_555
Cu14_11 O57_15 1_555 1_555
Cu17_11 O58_15 1_555 1_555
Cu25_4 N9_15 1_555 1_555
O59_15 Cu14_11 1_555 1_555
O60_15 Cu17_11 1_555 1_555
O61_23 Cu14_11 1_555 1_555
N9_15 N10_15 1_555 1_555
C19_15 O59_15 1_555 1_555
N10_15 C24_15 1_555 1_555
O62_23 Cu17_11 1_555 1_555
C20_15 C19_15 1_555 1_555
O63_15 Cu25_4 1_555 1_555
C21_15 C20_15 1_555 1_555
H7_15 C21_15 1_555 1_555
C22_15 C21_15 1_555 1_555
C23_15 C20_15 1_555 1_555
H8_15 C23_15 1_555 1_555
C24_15 C22_15 1_555 1_555
O64_15 Cu25_4 1_555 1_555
O65_15 Cu1_21 1_555 1_555
O66_15 Cu2_21 1_555 1_555
N30_4 N9_15 1_555 1_555
C25_15 O65_15 1_555 1_555
N12_15 C24_15 1_555 1_555
C26_15 C23_15 1_555 1_555
C27_15 C22_15 1_555 1_555
H9_15 C27_15 1_555 1_555
Cu23_7 N17_15 1_555 1_555
O73_8 C37_15 1_555 1_555
O74_8 C37_15 1_555 1_555
N17_15 N18_15 1_555 1_555
C37_15 C38_15 1_555 1_555
N18_15 C42_15 1_555 1_555
C38_15 C39_15 1_555 1_555
O75_15 Cu23_7 1_555 1_555
C39_15 H13_15 1_555 1_555
C40_15 C39_15 1_555 1_555
C41_15 C38_15 1_555 1_555
H14_15 C41_15 1_555 1_555
C42_15 C40_15 1_555 1_555
O76_15 Cu23_7 1_555 1_555
O77_15 Cu13_12 1_555 1_555
O78_15 Cu16_12 1_555 1_555
N25_8 N17_15 1_555 1_555
C43_15 O77_15 1_555 1_555
N20_15 C42_15 1_555 1_555
C44_15 C41_15 1_555 1_555
C45_15 C40_15 1_555 1_555
H15_15 C45_15 1_555 1_555
Cu14_12 O73_8 1_555 1_555
Cu17_12 O74_8 1_555 1_555
O85_8 Cu14_11 1_555 1_555
O88_8 Cu17_11 1_555 1_555
N26_5 N4_15 1_555 1_555
C8_15 C9_15 1_555 1_555
O51_15 C10_15 1_555 1_555
N28_6 N8_15 1_555 1_555
C17_15 C18_15 1_555 1_555
O60_15 C19_15 1_555 1_555
O66_15 C25_15 1_555 1_555
N30_4 N12_15 1_555 1_555
C25_15 C26_15 1_555 1_555
C26_15 C27_15 1_555 1_555
O78_15 C43_15 1_555 1_555
N25_8 N20_15 1_555 1_555
C43_15 C44_15 1_555 1_555
C44_15 C45_15 1_555 1_555
Cu1_22 Cu2_22 1_555 1_555
O43_22 Cu1_22 1_555 1_555
O44_22 Cu2_22 1_555 1_555
Cu26_4 N13_15 1_555 1_555
O67_15 Cu1_22 1_555 1_555
O68_15 Cu2_22 1_555 1_555
N13_15 N14_15 1_555 1_555
C28_15 O67_15 1_555 1_555
N14_15 C33_15 1_555 1_555
C29_15 C28_15 1_555 1_555
O69_15 Cu26_4 1_555 1_555
C30_15 C29_15 1_555 1_555
H10_15 C30_15 1_555 1_555
C31_15 C30_15 1_555 1_555
C32_15 C29_15 1_555 1_555
H11_15 C32_15 1_555 1_555
C33_15 C31_15 1_555 1_555
O70_15 Cu26_4 1_555 1_555
O87_7 C34_15 1_555 1_555
O90_7 C34_15 1_555 1_555
N27_7 N13_15 1_555 1_555
C34_15 C35_15 1_555 1_555
N16_15 C33_15 1_555 1_555
C35_15 C32_15 1_555 1_555
C36_15 C31_15 1_555 1_555
H12_15 C36_15 1_555 1_555
Cu25_10 N21_15 1_555 1_555
O86_8 C46_15 1_555 1_555
O89_8 C46_15 1_555 1_555
N21_15 N22_15 1_555 1_555
C46_15 C47_15 1_555 1_555
N22_15 C51_15 1_555 1_555
C47_15 C48_15 1_555 1_555
O81_15 Cu25_10 1_555 1_555
C48_15 H16_15 1_555 1_555
C49_15 C48_15 1_555 1_555
C50_15 C47_15 1_555 1_555
H17_15 C50_15 1_555 1_555
C51_15 C49_15 1_555 1_555
O82_15 Cu25_10 1_555 1_555
O83_15 Cu1_22 1_555 1_555
O84_15 Cu2_22 1_555 1_555
N29_4 N21_15 1_555 1_555
C52_15 O83_15 1_555 1_555
N24_15 C51_15 1_555 1_555
C53_15 C50_15 1_555 1_555
C54_15 C49_15 1_555 1_555
H18_15 C54_15 1_555 1_555
O68_15 C28_15 1_555 1_555
N27_7 N16_15 1_555 1_555
C35_15 C36_15 1_555 1_555
O84_15 C52_15 1_555 1_555
N29_4 N24_15 1_555 1_555
C52_15 C53_15 1_555 1_555
C53_15 C54_15 1_555 1_555
Cu1_23 Cu2_23 1_555 1_555
Cu2_23 O42_16 1_555 1_555
Cu24_3 N1_16 1_555 1_555
O41_16 Cu1_23 1_555 1_555
O42_16 C1_16 1_555 1_555
O43_23 Cu1_23 1_555 1_555
N1_16 N2_16 1_555 1_555
C1_16 O41_16 1_555 1_555
N2_16 C6_16 1_555 1_555
O44_23 Cu2_23 1_555 1_555
C2_16 C1_16 1_555 1_555
O46_16 Cu24_3 1_555 1_555
C3_16 C2_16 1_555 1_555
H1_16 C3_16 1_555 1_555
C4_16 C3_16 1_555 1_555
C5_16 C2_16 1_555 1_555
H2_16 C5_16 1_555 1_555
C6_16 C4_16 1_555 1_555
O47_16 Cu24_3 1_555 1_555
O48_16 C7_16 1_555 1_555
O49_16 C7_16 1_555 1_555
N26_6 N1_16 1_555 1_555
C7_16 C8_16 1_555 1_555
N4_16 C6_16 1_555 1_555
C8_16 C5_16 1_555 1_555
C9_16 C4_16 1_555 1_555
H3_16 C9_16 1_555 1_555
Cu13_11 O48_16 1_555 1_555
Cu16_11 O49_16 1_555 1_555
Cu19_14 N5_16 1_555 1_555
O50_16 Cu13_11 1_555 1_555
O51_16 Cu16_11 1_555 1_555
O52_24 Cu13_11 1_555 1_555
N5_16 N6_16 1_555 1_555
C10_16 O50_16 1_555 1_555
N6_16 C15_16 1_555 1_555
O53_24 Cu16_11 1_555 1_555
C11_16 C10_16 1_555 1_555
O55_16 Cu19_14 1_555 1_555
C12_16 C11_16 1_555 1_555
H4_16 C12_16 1_555 1_555
C13_16 C12_16 1_555 1_555
C14_16 C11_16 1_555 1_555
H5_16 C14_16 1_555 1_555
C15_16 C13_16 1_555 1_555
O56_16 Cu19_14 1_555 1_555
O57_16 C16_16 1_555 1_555
O58_16 C16_16 1_555 1_555
N28_5 N5_16 1_555 1_555
C16_16 C17_16 1_555 1_555
N8_16 C15_16 1_555 1_555
C17_16 C14_16 1_555 1_555
C18_16 C13_16 1_555 1_555
H6_16 C18_16 1_555 1_555
Cu14_12 O57_16 1_555 1_555
Cu17_12 O58_16 1_555 1_555
Cu25_3 N9_16 1_555 1_555
O59_16 Cu14_12 1_555 1_555
O60_16 Cu17_12 1_555 1_555
O61_24 Cu14_12 1_555 1_555
N9_16 N10_16 1_555 1_555
C19_16 O59_16 1_555 1_555
N10_16 C24_16 1_555 1_555
O62_24 Cu17_12 1_555 1_555
C20_16 C19_16 1_555 1_555
O63_16 Cu25_3 1_555 1_555
C21_16 C20_16 1_555 1_555
H7_16 C21_16 1_555 1_555
C22_16 C21_16 1_555 1_555
C23_16 C20_16 1_555 1_555
H8_16 C23_16 1_555 1_555
C24_16 C22_16 1_555 1_555
O64_16 Cu25_3 1_555 1_555
O65_16 Cu1_23 1_555 1_555
O66_16 Cu2_23 1_555 1_555
N30_3 N9_16 1_555 1_555
C25_16 O65_16 1_555 1_555
N12_16 C24_16 1_555 1_555
C26_16 C23_16 1_555 1_555
C27_16 C22_16 1_555 1_555
H9_16 C27_16 1_555 1_555
Cu23_8 N17_16 1_555 1_555
O85_8 C37_16 1_555 1_555
O88_8 C37_16 1_555 1_555
N17_16 N18_16 1_555 1_555
C37_16 C38_16 1_555 1_555
N18_16 C42_16 1_555 1_555
C38_16 C39_16 1_555 1_555
O75_16 Cu23_8 1_555 1_555
C39_16 H13_16 1_555 1_555
C40_16 C39_16 1_555 1_555
C41_16 C38_16 1_555 1_555
H14_16 C41_16 1_555 1_555
C42_16 C40_16 1_555 1_555
O76_16 Cu23_8 1_555 1_555
O77_16 Cu13_11 1_555 1_555
O78_16 Cu16_11 1_555 1_555
N25_7 N17_16 1_555 1_555
C43_16 O77_16 1_555 1_555
N20_16 C42_16 1_555 1_555
C44_16 C41_16 1_555 1_555
C45_16 C40_16 1_555 1_555
H15_16 C45_16 1_555 1_555
N26_6 N4_16 1_555 1_555
C8_16 C9_16 1_555 1_555
O51_16 C10_16 1_555 1_555
N28_5 N8_16 1_555 1_555
C17_16 C18_16 1_555 1_555
O60_16 C19_16 1_555 1_555
O66_16 C25_16 1_555 1_555
N30_3 N12_16 1_555 1_555
C25_16 C26_16 1_555 1_555
C26_16 C27_16 1_555 1_555
O78_16 C43_16 1_555 1_555
N25_7 N20_16 1_555 1_555
C43_16 C44_16 1_555 1_555
C44_16 C45_16 1_555 1_555
Cu1_24 Cu2_24 1_555 1_555
O43_24 Cu1_24 1_555 1_555
O44_24 Cu2_24 1_555 1_555
Cu26_3 N13_16 1_555 1_555
O67_16 Cu1_24 1_555 1_555
O68_16 Cu2_24 1_555 1_555
N13_16 N14_16 1_555 1_555
C28_16 O67_16 1_555 1_555
N14_16 C33_16 1_555 1_555
C29_16 C28_16 1_555 1_555
O69_16 Cu26_3 1_555 1_555
C30_16 C29_16 1_555 1_555
H10_16 C30_16 1_555 1_555
C31_16 C30_16 1_555 1_555
C32_16 C29_16 1_555 1_555
H11_16 C32_16 1_555 1_555
C33_16 C31_16 1_555 1_555
O70_16 Cu26_3 1_555 1_555
O87_8 C34_16 1_555 1_555
O90_8 C34_16 1_555 1_555
N27_8 N13_16 1_555 1_555
C34_16 C35_16 1_555 1_555
N16_16 C33_16 1_555 1_555
C35_16 C32_16 1_555 1_555
C36_16 C31_16 1_555 1_555
H12_16 C36_16 1_555 1_555
Cu25_9 N21_16 1_555 1_555
O86_7 C46_16 1_555 1_555
O89_7 C46_16 1_555 1_555
N21_16 N22_16 1_555 1_555
C46_16 C47_16 1_555 1_555
N22_16 C51_16 1_555 1_555
C47_16 C48_16 1_555 1_555
O81_16 Cu25_9 1_555 1_555
C48_16 H16_16 1_555 1_555
C49_16 C48_16 1_555 1_555
C50_16 C47_16 1_555 1_555
H17_16 C50_16 1_555 1_555
C51_16 C49_16 1_555 1_555
O82_16 Cu25_9 1_555 1_555
O83_16 Cu1_24 1_555 1_555
O84_16 Cu2_24 1_555 1_555
N29_3 N21_16 1_555 1_555
C52_16 O83_16 1_555 1_555
N24_16 C51_16 1_555 1_555
C53_16 C50_16 1_555 1_555
C54_16 C49_16 1_555 1_555
H18_16 C54_16 1_555 1_555
O68_16 C28_16 1_555 1_555
N27_8 N16_16 1_555 1_555
C35_16 C36_16 1_555 1_555
O84_16 C52_16 1_555 1_555
N29_3 N24_16 1_555 1_555
C52_16 C53_16 1_555 1_555
C53_16 C54_16 1_555 1_555

#END
