
###############################################################################
#
# This file contains modified crystal structure data generated from the
# MOF subset of the Cambridge Structural Database (CSD) v543 
# hosted by the Cambridge Crystallographic Data Centre (CCDC).
#
# This work is licensed under the Creative Commons
# Attribution-NonCommercial-ShareAlike 4.0 International License.
# To view a copy of this license, visit
# http://creativecommons.org/licenses/by-nc-sa/4.0/
# or send a letter to
# Creative Commons, PO Box 1866, Mountain View, CA 94042, USA.
#
# CIF created using the CSD Python API on 29 September 2022
# The structure has been converted into the P1 space group
# The structure has a 3D framework
# The original CSD entry OMOFED is in the orthorhombic crystal system
# The framework has been calculated to contain at least 10.0% void space
# The void calculation uses a probe of radius 1.32A, grid spacing 0.4
# The framework is charged, counterions have been retained in the structure
# H atom positions have been added when not included in the experimental data
#
###############################################################################

data_OMOFED
_chemical_formula_moiety         '(C48 H48 O61 P16 U8 1-)n'
_symmetry_cell_setting           triclinic
_symmetry_space_group_name_H-M   'P 1'
_symmetry_Int_Tables_number      1
_space_group_name_Hall           'P 1'
loop_
_symmetry_equiv_pos_site_id
_symmetry_equiv_pos_as_xyz
1 x,y,z
_cell_length_a                   19.7287(17)
_cell_length_b                   15.1632(14)
_cell_length_c                   9.0568(8)
_cell_angle_alpha                90
_cell_angle_beta                 90
_cell_angle_gamma                90
_cell_volume                     2709.34
loop_
_atom_site_label
_atom_site_type_symbol
_atom_site_fract_x
_atom_site_fract_y
_atom_site_fract_z
C3 C 0.23008(18) 0.1708(2) 0.1127(4)
H3 H 0.2360 0.1167 0.1640
C4 C 0.2371(3) 0.2500 0.1882(6)
H4 H 0.2467 0.2500 0.2910
C10 C 0.23008(18) 0.3292(2) 0.1127(4)
H9 H 0.2360 0.3833 0.1640
U5 U 0.36762(2) 0.53776(2) 0.00298(2)
U1 U 0.13238(2) 0.03776(2) 0.50298(2)
P1 P 0.20758(4) 0.06590(6) 0.86816(10)
O1 O 0.19244(12) 0.08427(16) 0.7077(3)
O2 O 0.27095(12) 0.01210(16) 0.8926(3)
O3 O 0.14950(13) 0.01247(17) 0.9437(3)
H1 H 0.1122 0.0264 0.9057
O4 O 0.06585(12) 0.00162(16) 0.3019(3)
O8 O 0.14378(12) 0.14346(16) 0.4243(3)
C1 C 0.2059(2) 0.2500 0.8879(5)
H2 H 0.1943 0.2500 0.7861
C2 C 0.21448(17) 0.1697(2) 0.9626(4)
P3 P 0.20758(4) 0.43410(6) 0.86816(10)
O9 O 0.19244(12) 0.41573(16) 0.7077(3)
O10 O 0.27095(12) 0.48790(16) 0.8926(3)
O11 O 0.14950(13) 0.48753(17) 0.9437(3)
H8 H 0.1122 0.4736 0.9057
C9 C 0.21448(17) 0.3303(2) 0.9626(4)
U7 U 0.13238(2) 0.46224(2) 0.50298(2)
O21 O 0.03901(12) 0.08723(15) 0.6301(3)
U4 U 0.36762(2) 0.96224(2) 0.00298(2)
P2 P 0.01508(4) 0.93157(6) 0.25515(9)
O7 O 0.11991(13) 0.93136(16) 0.5799(3)
C5 C 0.0273(2) 0.7500 0.2470(5)
C6 C 0.06036(17) 0.8299(2) 0.2265(4)
C7 C 0.12818(16) 0.8294(2) 0.1818(4)
H6 H 0.1516 0.8835 0.1674
C8 C 0.1612(2) 0.7500 0.1585(5)
H7 H 0.2070 0.7500 0.1262
P4 P 0.01508(4) 0.56843(6) 0.25515(9)
O12 O 0.06585(12) 0.49838(16) 0.3019(3)
C11 C 0.06036(17) 0.6701(2) 0.2265(4)
C12 C 0.12818(16) 0.6706(2) 0.1818(4)
H10 H 0.1516 0.6165 0.1674
O18 O 0.22905(12) 0.98790(16) 0.3926(3)
H11 H 0.0142685 0.964159 0.0291746
O15 O 0.88009(13) 0.06864(16) 0.4201(3)
O19 O 0.77095(12) 0.01210(16) 0.6074(3)
O5 O 0.96099(12) 0.91277(15) 0.3699(3)
O6 O 0.97969(12) 0.95766(16) 0.1081(3)
H5 H 0.9810 0.7500 0.2757
O13 O 0.96099(12) 0.58723(15) 0.3699(3)
O14 O 0.97969(12) 0.54234(16) 0.1081(3)
U2 U 0.86762(2) 0.96224(2) 0.49702(2)
O16 O 0.85622(12) 0.85654(16) 0.5757(3)
U3 U 0.86762(2) 0.53776(2) 0.49702(2)
O17 O 0.80756(12) 0.91573(16) 0.2923(3)
O20 O 0.93415(12) 0.99838(16) 0.6981(3)
O12_2 O 0.56585(12) 0.00162(16) 0.1981(3)
U6 U 0.63238(2) 0.03776(2) 0.99702(2)
P2_2 P 0.51508(4) 0.56843(6) 0.24485(9)
O4_2 O 0.56585(12) 0.49838(16) 0.1981(3)
O5_2 O 0.46099(12) 0.58723(15) 0.1301(3)
O6_2 O 0.47969(12) 0.54234(16) 0.3919(3)
O8_2 O 0.64378(12) 0.35654(16) 0.0757(3)
C5_2 C 0.5273(2) 0.7500 0.2530(5)
H5_2 H 0.4810 0.7500 0.2243
C6_2 C 0.56036(17) 0.6701(2) 0.2735(4)
C7_2 C 0.62818(16) 0.6706(2) 0.3182(4)
H6_2 H 0.6516 0.6165 0.3326
C8_2 C 0.6612(2) 0.7500 0.3415(5)
H7_2 H 0.7070 0.7500 0.3738
P4_2 P 0.51508(4) 0.93157(6) 0.24485(9)
O13_2 O 0.46099(12) 0.91277(15) 0.1301(3)
O14_2 O 0.47969(12) 0.95766(16) 0.3919(3)
C11_2 C 0.56036(17) 0.8299(2) 0.2735(4)
C12_2 C 0.62818(16) 0.8294(2) 0.3182(4)
H10_2 H 0.6516 0.8835 0.3326
O15_2 O 0.38009(13) 0.43136(16) 0.0799(3)
O17_2 O 0.30756(12) 0.58427(16) 0.2077(3)
O18_2 O 0.72905(12) 0.51210(16) 0.1074(3)
H11_2 H 0.514269 0.535841 0.470825
U1_2 U 0.63238(2) 0.46224(2) 0.99702(2)
P1_2 P 0.70758(4) 0.43410(6) 0.63184(10)
O1_2 O 0.69244(12) 0.41573(16) 0.7923(3)
O2_2 O 0.77095(12) 0.48790(16) 0.6074(3)
O3_2 O 0.64950(13) 0.48753(17) 0.5563(3)
H1_2 H 0.6122 0.4736 0.5943
O7_2 O 0.61991(13) 0.56864(16) 0.9201(3)
C1_2 C 0.7059(2) 0.2500 0.6121(5)
H2_2 H 0.6943 0.2500 0.7139
C2_2 C 0.71448(17) 0.3303(2) 0.5374(4)
C3_2 C 0.73008(18) 0.3292(2) 0.3873(4)
H3_2 H 0.7360 0.3833 0.3360
C4_2 C 0.7371(3) 0.2500 0.3118(6)
H4_2 H 0.7467 0.2500 0.2090
P3_2 P 0.70758(4) 0.06590(6) 0.63184(10)
O9_2 O 0.69244(12) 0.08427(16) 0.7923(3)
O11_2 O 0.64950(13) 0.01247(17) 0.5563(3)
H8_2 H 0.6122 0.0264 0.5943
C9_2 C 0.71448(17) 0.1697(2) 0.5374(4)
C10_2 C 0.73008(18) 0.1708(2) 0.3873(4)
H9_2 H 0.7360 0.1167 0.3360
O16_2 O 0.35622(12) 0.64346(16) 0.9243(3)
O20_2 O 0.43415(12) 0.50162(16) 0.8019(3)
O21_2 O 0.53901(12) 0.41277(15) 0.8699(3)
O5_3 O 0.03901(12) 0.41277(15) 0.6301(3)
O6_3 O 0.02031(12) 0.45766(16) 0.8919(3)
H5_3 H 0.0190 0.2500 0.7243
O14_3 O 0.02031(12) 0.04234(16) 0.8919(3)
O15_3 O 0.11991(13) 0.56864(16) 0.5799(3)
O16_3 O 0.14378(12) 0.35654(16) 0.4243(3)
O19_2 O 0.22905(12) 0.51210(16) 0.3926(3)
P1_3 P 0.79242(4) 0.56590(6) 0.13184(10)
P2_3 P 0.98492(4) 0.43157(6) 0.74485(9)
O1_3 O 0.80756(12) 0.58427(16) 0.2923(3)
O3_3 O 0.85050(13) 0.51247(17) 0.0563(3)
H1_3 H 0.8878 0.5264 0.0943
O4_3 O 0.93415(12) 0.50162(16) 0.6981(3)
O7_3 O 0.88009(13) 0.43136(16) 0.4201(3)
O8_3 O 0.85622(12) 0.64346(16) 0.5757(3)
C1_3 C 0.7941(2) 0.7500 0.1121(5)
H2_3 H 0.8057 0.7500 0.2139
C2_3 C 0.78552(17) 0.6697(2) 0.0374(4)
C5_3 C 0.9727(2) 0.2500 0.7530(5)
C6_3 C 0.93964(17) 0.3299(2) 0.7735(4)
C7_3 C 0.87182(16) 0.3294(2) 0.8182(4)
H6_3 H 0.8484 0.3835 0.8326
C8_3 C 0.8388(2) 0.2500 0.8415(5)
H7_3 H 0.7930 0.2500 0.8738
P3_3 P 0.79242(4) 0.93410(6) 0.13184(10)
O10_2 O 0.72905(12) 0.98790(16) 0.1074(3)
O11_3 O 0.85050(13) 0.98753(17) 0.0563(3)
H8_3 H 0.8878 0.9736 0.0943
C9_3 C 0.78552(17) 0.8303(2) 0.0374(4)
P4_3 P 0.98492(4) 0.06843(6) 0.74485(9)
C11_3 C 0.93964(17) 0.1701(2) 0.7735(4)
C12_3 C 0.87182(16) 0.1706(2) 0.8182(4)
H10_3 H 0.8484 0.1165 0.8326
H11_3 H 0.985731 0.464159 0.970825
C3_3 C 0.76992(18) 0.6708(2) 0.8873(4)
H3_3 H 0.7640 0.6167 0.8360
C4_3 C 0.7629(3) 0.7500 0.8118(6)
H4_3 H 0.7533 0.7500 0.7090
C10_3 C 0.76992(18) 0.8292(2) 0.8873(4)
H9_3 H 0.7640 0.8833 0.8360
O7_4 O 0.38009(13) 0.06864(16) 0.0799(3)
O16_4 O 0.64378(12) 0.14346(16) 0.0757(3)
P2_4 P 0.48492(4) 0.06843(6) 0.75515(9)
O5_4 O 0.53901(12) 0.08723(15) 0.8699(3)
O6_4 O 0.52031(12) 0.04234(16) 0.6081(3)
C5_4 C 0.4727(2) 0.2500 0.7470(5)
H5_4 H 0.5190 0.2500 0.7757
C6_4 C 0.43964(17) 0.1701(2) 0.7265(4)
C7_4 C 0.37182(16) 0.1706(2) 0.6818(4)
H6_4 H 0.3484 0.1165 0.6674
C8_4 C 0.3388(2) 0.2500 0.6585(5)
H7_4 H 0.2930 0.2500 0.6262
P4_4 P 0.48492(4) 0.43157(6) 0.75515(9)
O14_4 O 0.52031(12) 0.45766(16) 0.6081(3)
C11_4 C 0.43964(17) 0.3299(2) 0.7265(4)
C12_4 C 0.37182(16) 0.3294(2) 0.6818(4)
H10_4 H 0.3484 0.3835 0.6674
H11_4 H 0.485731 0.035841 0.529175
P1_4 P 0.29242(4) 0.93410(6) 0.36816(10)
O1_4 O 0.30756(12) 0.91573(16) 0.2077(3)
O3_4 O 0.35050(13) 0.98753(17) 0.4437(3)
H1_4 H 0.3878 0.9736 0.4057
C1_4 C 0.2941(2) 0.7500 0.3879(5)
H2_4 H 0.3057 0.7500 0.2861
C2_4 C 0.28552(17) 0.8303(2) 0.4626(4)
C3_4 C 0.26992(18) 0.8292(2) 0.6127(4)
H3_4 H 0.2640 0.8833 0.6640
C4_4 C 0.2629(3) 0.7500 0.6882(6)
H4_4 H 0.2533 0.7500 0.7910
P3_4 P 0.29242(4) 0.56590(6) 0.36816(10)
O11_4 O 0.35050(13) 0.51247(17) 0.4437(3)
H8_4 H 0.3878 0.5264 0.4057
C9_4 C 0.28552(17) 0.6697(2) 0.4626(4)
C10_4 C 0.26992(18) 0.6708(2) 0.6127(4)
H9_4 H 0.2640 0.6167 0.6640
O4_4 O 0.43415(12) 0.99838(16) 0.8019(3)
O8_4 O 0.35622(12) 0.85654(16) 0.9243(3)
O15_4 O 0.61991(13) 0.93136(16) 0.9201(3)
H11_5 H 0.985731 0.035841 0.970825
H11_6 H 0.485731 0.464159 0.529175
H11_7 H 0.0142685 0.535841 0.0291746
H11_8 H 0.514269 0.964159 0.470825
loop_
_geom_bond_atom_site_label_1
_geom_bond_atom_site_label_2
_geom_bond_site_symmetry_1
_geom_bond_site_symmetry_2
H3 C3 1_555 1_555
C4 C3 1_555 1_555
H4 C4 1_555 1_555
C10 C4 1_555 1_555
H9 C10 1_555 1_555
U1 O1 1_555 1_555
P1 O1 1_555 1_555
O2 P1 1_555 1_555
O3 P1 1_555 1_555
H1 O3 1_555 1_555
O4 U1 1_555 1_555
O8 U1 1_555 1_555
C1 H2 1_555 1_555
C2 P1 1_555 1_555
P3 O9 1_555 1_555
O9 U7 1_555 1_555
O10 P3 1_555 1_555
O11 P3 1_555 1_555
H8 O11 1_555 1_555
C9 C1 1_555 1_555
O21 U1 1_555 1_555
C1 C2 1_555 1_555
P3 C9 1_555 1_555
C6 P2 1_555 1_555
C7 C6 1_555 1_555
H6 C7 1_555 1_555
C8 C7 1_555 1_555
H7 C8 1_555 1_555
P4 O12 1_555 1_555
O12 U7 1_555 1_555
C11 C5 1_555 1_555
C12 C8 1_555 1_555
H10 C12 1_555 1_555
C5 C6 1_555 1_555
P4 C11 1_555 1_555
C11 C12 1_555 1_555
U2 O5 1_555 1_555
O16 U2 1_555 1_555
U3 O13 1_555 1_555
O17 U2 1_555 1_555
O20 U2 1_555 1_555
P2_2 O4_2 1_555 1_555
O5_2 P2_2 1_555 1_555
O6_2 P2_2 1_555 1_555
C5_2 H5_2 1_555 1_555
C6_2 P2_2 1_555 1_555
C7_2 C6_2 1_555 1_555
H6_2 C7_2 1_555 1_555
C8_2 C7_2 1_555 1_555
H7_2 C8_2 1_555 1_555
O13_2 P4_2 1_555 1_555
O14_2 P4_2 1_555 1_555
C11_2 C5_2 1_555 1_555
C12_2 C8_2 1_555 1_555
H10_2 C12_2 1_555 1_555
U5 O5_2 1_555 1_555
O15_2 U5 1_555 1_555
U4 O13_2 1_555 1_555
O17_2 U5 1_555 1_555
C5_2 C6_2 1_555 1_555
P4_2 C11_2 1_555 1_555
C11_2 C12_2 1_555 1_555
O6_2 H11_2 1_555 1_555
U1_2 O1_2 1_555 1_555
P1_2 O1_2 1_555 1_555
O2_2 P1_2 1_555 1_555
O3_2 P1_2 1_555 1_555
H1_2 O3_2 1_555 1_555
O7_2 U1_2 1_555 1_555
C1_2 H2_2 1_555 1_555
C2_2 P1_2 1_555 1_555
C3_2 C2_2 1_555 1_555
H3_2 C3_2 1_555 1_555
C4_2 C3_2 1_555 1_555
H4_2 C4_2 1_555 1_555
P3_2 O9_2 1_555 1_555
O9_2 U6 1_555 1_555
O19 P3_2 1_555 1_555
O11_2 P3_2 1_555 1_555
H8_2 O11_2 1_555 1_555
C9_2 C1_2 1_555 1_555
C10_2 C4_2 1_555 1_555
H9_2 C10_2 1_555 1_555
U3 O2_2 1_555 1_555
O21_2 U1_2 1_555 1_555
C1_2 C2_2 1_555 1_555
P3_2 C9_2 1_555 1_555
C9_2 C10_2 1_555 1_555
U7 O5_3 1_555 1_555
O15_3 U7 1_555 1_555
O16_3 U7 1_555 1_555
O19_2 U7 1_555 1_555
U3 O1_3 1_555 1_555
P1_3 O1_3 1_555 1_555
P2_3 O4_3 1_555 1_555
O18_2 P1_3 1_555 1_555
O3_3 P1_3 1_555 1_555
H1_3 O3_3 1_555 1_555
O4_3 U3 1_555 1_555
O7_3 U3 1_555 1_555
O8_3 U3 1_555 1_555
C1_3 H2_3 1_555 1_555
C2_3 P1_3 1_555 1_555
C6_3 P2_3 1_555 1_555
C7_3 C6_3 1_555 1_555
H6_3 C7_3 1_555 1_555
C8_3 C7_3 1_555 1_555
H7_3 C8_3 1_555 1_555
P3_3 O17 1_555 1_555
O10_2 P3_3 1_555 1_555
O11_3 P3_3 1_555 1_555
H8_3 O11_3 1_555 1_555
C9_3 C1_3 1_555 1_555
C11_3 C5_3 1_555 1_555
C12_3 C8_3 1_555 1_555
H10_3 C12_3 1_555 1_555
C1_3 C2_3 1_555 1_555
C5_3 C6_3 1_555 1_555
P3_3 C9_3 1_555 1_555
P4_3 C11_3 1_555 1_555
C11_3 C12_3 1_555 1_555
H3_3 C3_3 1_555 1_555
C4_3 C3_3 1_555 1_555
H4_3 C4_3 1_555 1_555
C10_3 C4_3 1_555 1_555
H9_3 C10_3 1_555 1_555
O5_4 P2_4 1_555 1_555
O6_4 P2_4 1_555 1_555
C5_4 H5_4 1_555 1_555
C6_4 P2_4 1_555 1_555
C7_4 C6_4 1_555 1_555
H6_4 C7_4 1_555 1_555
C8_4 C7_4 1_555 1_555
H7_4 C8_4 1_555 1_555
P4_4 O20_2 1_555 1_555
O21_2 P4_4 1_555 1_555
O14_4 P4_4 1_555 1_555
C11_4 C5_4 1_555 1_555
C12_4 C8_4 1_555 1_555
H10_4 C12_4 1_555 1_555
U6 O5_4 1_555 1_555
C5_4 C6_4 1_555 1_555
P4_4 C11_4 1_555 1_555
C11_4 C12_4 1_555 1_555
O6_4 H11_4 1_555 1_555
U4 O1_4 1_555 1_555
P1_4 O1_4 1_555 1_555
O18 P1_4 1_555 1_555
O3_4 P1_4 1_555 1_555
H1_4 O3_4 1_555 1_555
C1_4 H2_4 1_555 1_555
C2_4 P1_4 1_555 1_555
C3_4 C2_4 1_555 1_555
H3_4 C3_4 1_555 1_555
C4_4 C3_4 1_555 1_555
H4_4 C4_4 1_555 1_555
P3_4 O17_2 1_555 1_555
O19_2 P3_4 1_555 1_555
O11_4 P3_4 1_555 1_555
H8_4 O11_4 1_555 1_555
C9_4 C1_4 1_555 1_555
C10_4 C4_4 1_555 1_555
H9_4 C10_4 1_555 1_555
C1_4 C2_4 1_555 1_555
P3_4 C9_4 1_555 1_555
C9_4 C10_4 1_555 1_555
O14_4 H11_6 1_555 1_555
O14_2 H11_8 1_555 1_555

#END
