
###############################################################################
#
# This file contains modified crystal structure data generated from the
# MOF subset of the Cambridge Structural Database (CSD) v543 
# hosted by the Cambridge Crystallographic Data Centre (CCDC).
#
# This work is licensed under the Creative Commons
# Attribution-NonCommercial-ShareAlike 4.0 International License.
# To view a copy of this license, visit
# http://creativecommons.org/licenses/by-nc-sa/4.0/
# or send a letter to
# Creative Commons, PO Box 1866, Mountain View, CA 94042, USA.
#
# CIF created using the CSD Python API on 29 September 2022
# The structure has been converted into the P1 space group
# The structure has a 3D framework
# The original CSD entry OMOPUE is in the cubic crystal system
# The original CSD entry OMOPUE is in a Sohncke space group
# The framework has been calculated to contain at least 10.0% void space
# The void calculation uses a probe of radius 1.32A, grid spacing 0.4
# The framework is charged, counterions have been retained in the structure
#
###############################################################################

data_OMOPUE
_chemical_formula_moiety         '(C432 H192 N96 O204 Tb20 52-)n'
_symmetry_cell_setting           triclinic
_symmetry_space_group_name_H-M   'P 1'
_symmetry_Int_Tables_number      1
_space_group_name_Hall           'P 1'
loop_
_symmetry_equiv_pos_site_id
_symmetry_equiv_pos_as_xyz
1 x,y,z
_cell_length_a                   27.7055(16)
_cell_length_b                   27.7055(16)
_cell_length_c                   27.7055(16)
_cell_angle_alpha                90
_cell_angle_beta                 90
_cell_angle_gamma                90
_cell_volume                     21266.6
loop_
_atom_site_label
_atom_site_type_symbol
_atom_site_fract_x
_atom_site_fract_y
_atom_site_fract_z
Tb14 Tb 0.04028(2) 0.55237(2) 0.25139(2)
O62 O 0.03650(12) 0.46848(12) 0.29198(13)
O71 O 0.00514(15) 0.38590(13) 0.22402(16)
O79 O -0.000000 0.500000 0.20275(17)
O8 O 0.20275(17) 0.000000 0.500000
Tb2 Tb 0.25139(2) 0.04028(2) 0.55237(2)
Tb7 Tb 0.74861(2) 0.04028(2) 0.44763(2)
O55 O 0.23125(13) 0.10984(13) 0.60238(13)
O58 O 0.29198(13) 0.03650(12) 0.46848(12)
O66 O 0.17306(14) 0.08412(14) 0.55595(14)
O69 O 0.26467(15) 0.10616(12) 0.49421(14)
O72 O 0.22402(16) 0.00514(15) 0.38590(13)
O76 O 0.32698(14) 0.05669(15) 0.57803(16)
O51 O 0.500000 0.79725(17) 0.000000
Tb9 Tb 0.44763(2) 0.74861(2) 0.04028(2)
O59 O 0.53152(12) 0.70802(13) 0.03650(12)
O75 O 0.61410(13) 0.77598(16) 0.00514(15)
Tb1 Tb 0.25139(2) 0.95972(2) 0.44763(2)
O1 O 0.39016(13) 0.89762(13) 0.73125(13)
O2 O 0.29198(13) 0.96350(12) 0.53152(12)
O3 O 0.41588(14) 0.94405(14) 0.67306(14)
O4 O 0.26467(15) 0.89384(12) 0.50579(14)
O5 O 0.49486(15) 0.88590(13) 0.27598(16)
O6 O 0.32698(14) 0.94331(15) 0.42197(16)
O7 O 0.47790(16) 0.81023(16) 0.26083(16)
C1 C 0.28405(18) 0.91778(17) 0.53796(19)
C2 C 0.42449(18) 0.85304(18) 0.3115(2)
C3 C 0.38633(19) 0.91297(18) 0.68895(19)
N1 N 0.33303(18) 0.73370(17) 0.28216(19)
O8_2 O 0.20275(17) 1.000000 0.500000
O9 O 0.39972(18) 0.97010(18) 0.4068(2)
C4 C 0.39155(19) 0.81606(19) 0.3133(2)
H1 H 0.396227 0.788864 0.294135
C5 C 0.3061(2) 0.7423(2) 0.3190(2)
N2 N 0.31511(18) 0.78211(17) 0.34791(19)
H2 H 0.296159 0.785161 0.372310
C6 C 0.4161(2) 0.89454(19) 0.3389(2)
H3 H 0.437536 0.920280 0.337177
C7 C 0.37559(19) 0.89774(19) 0.3690(2)
C8 C 0.35081(19) 0.8186(2) 0.34352(19)
C9 C 0.3432(2) 0.8587(2) 0.3713(2)
H4 H 0.316642 0.860081 0.391802
C10 C 0.4684(2) 0.84876(19) 0.2797(2)
C11 C 0.3669(2) 0.9408(2) 0.4006(2)
N3 N 0.31009(17) 0.75844(18) 0.71870(17)
C12 C 0.27338(19) 0.75486(19) 0.68896(17)
N4 N 0.26680(16) 0.78584(16) 0.65252(16)
H5 H 0.244487 0.777825 0.632478
C13 C 0.33470(19) 0.91651(17) 0.61411(18)
H6 H 0.349299 0.945383 0.605172
C14 C 0.34768(18) 0.89364(18) 0.65672(18)
C15 C 0.2780(2) 0.85103(19) 0.59704(19)
H7 H 0.256258 0.836106 0.576291
C16 C 0.3248(2) 0.8539(2) 0.6714(2)
H8 H 0.331462 0.841825 0.702033
C17 C 0.2903(2) 0.82912(19) 0.64177(19)
C18 C 0.29900(18) 0.89534(18) 0.58449(18)
O10 O 0.46848(12) 0.70802(13) 0.96350(12)
O11 O 0.49421(14) 0.73533(15) 0.89384(12)
C19 C 0.46204(19) 0.71595(18) 0.91778(17)
N5 N 0.28130(17) 0.68991(17) 0.75844(18)
C20 C 0.31104(17) 0.72662(19) 0.75486(19)
N6 N 0.34748(16) 0.73320(16) 0.78584(16)
H9 H 0.367522 0.755513 0.777825
C21 C 0.38589(18) 0.66530(19) 0.91651(17)
H10 H 0.394828 0.650701 0.945383
C22 C 0.34328(18) 0.65232(18) 0.89364(18)
C23 C 0.40296(19) 0.7220(2) 0.85103(19)
H11 H 0.423709 0.743742 0.836106
C24 C 0.3286(2) 0.6752(2) 0.8539(2)
H12 H 0.297967 0.668538 0.841825
C25 C 0.35823(19) 0.7097(2) 0.82912(19)
C26 C 0.41551(18) 0.70100(18) 0.89534(18)
O12 O 0.26875(13) 0.60984(13) 0.89762(13)
O13 O 0.32694(14) 0.58412(14) 0.94405(14)
C27 C 0.31105(19) 0.61367(19) 0.91297(18)
O14 O 0.03650(12) 0.53152(12) 0.70802(13)
O15 O 0.10616(12) 0.50579(14) 0.73533(15)
C28 C 0.08222(17) 0.53796(19) 0.71595(18)
N7 N 0.24156(18) 0.71870(17) 0.68991(17)
C29 C 0.24514(19) 0.68896(17) 0.72662(19)
N8 N 0.21416(16) 0.65252(16) 0.73320(16)
H13 H 0.222175 0.632478 0.755513
C30 C 0.08349(17) 0.61411(18) 0.66530(19)
H14 H 0.054617 0.605172 0.650701
C31 C 0.10636(18) 0.65672(18) 0.65232(18)
C32 C 0.14897(19) 0.59704(19) 0.7220(2)
H15 H 0.163894 0.576291 0.743742
C33 C 0.1461(2) 0.6714(2) 0.6752(2)
H16 H 0.158175 0.702033 0.668538
C34 C 0.17088(19) 0.64177(19) 0.7097(2)
C35 C 0.10466(18) 0.58449(18) 0.70100(18)
O16 O 0.10238(13) 0.73125(13) 0.60984(13)
O17 O 0.05595(14) 0.67306(14) 0.58412(14)
C36 C 0.08703(18) 0.68895(19) 0.61367(19)
O18 O 0.42197(16) 0.67302(14) 0.05669(15)
C37 C 0.3115(2) 0.57551(18) 0.14696(18)
N9 N 0.28216(19) 0.66697(18) 0.26630(17)
O19 O 0.4068(2) 0.60028(18) 0.02990(18)
C38 C 0.3133(2) 0.60845(19) 0.18394(19)
H17 H 0.294135 0.603773 0.211136
C39 C 0.3190(2) 0.6939(2) 0.2577(2)
N10 N 0.34791(19) 0.68489(18) 0.21789(17)
H18 H 0.372310 0.703841 0.214839
C40 C 0.3389(2) 0.5839(2) 0.10546(19)
H19 H 0.337177 0.562464 0.079720
C41 C 0.3690(2) 0.62441(19) 0.10226(19)
C42 C 0.34352(19) 0.64919(19) 0.1814(2)
C43 C 0.3713(2) 0.6568(2) 0.1413(2)
H20 H 0.391802 0.683358 0.139919
C44 C 0.4006(2) 0.6331(2) 0.0592(2)
O20 O 0.27598(16) 0.50514(15) 0.11410(13)
O21 O 0.26083(16) 0.52210(16) 0.18977(16)
C45 C 0.2797(2) 0.5316(2) 0.15124(19)
O22 O 0.05669(15) 0.57803(16) 0.32698(14)
C46 C 0.14696(18) 0.6885(2) 0.42449(18)
N11 N 0.26630(17) 0.71784(19) 0.33303(18)
O23 O 0.02990(18) 0.5932(2) 0.39972(18)
C47 C 0.18394(19) 0.6867(2) 0.39155(19)
H21 H 0.211136 0.705865 0.396227
C48 C 0.2577(2) 0.6810(2) 0.3061(2)
N12 N 0.21789(17) 0.65209(19) 0.31511(18)
H22 H 0.214839 0.627690 0.296159
C49 C 0.10546(19) 0.6611(2) 0.4161(2)
H23 H 0.079720 0.662823 0.437536
C50 C 0.10226(19) 0.6310(2) 0.37559(19)
C51 C 0.1814(2) 0.65648(19) 0.35081(19)
C52 C 0.1413(2) 0.6287(2) 0.3432(2)
H24 H 0.139919 0.608198 0.316642
C53 C 0.0592(2) 0.5994(2) 0.3669(2)
O24 O 0.11410(13) 0.72402(16) 0.49486(15)
O25 O 0.18977(16) 0.73917(16) 0.47790(16)
C54 C 0.15124(19) 0.7203(2) 0.4684(2)
O26 O 0.73125(13) 0.60984(13) 0.10238(13)
O28 O 0.67306(14) 0.58412(14) 0.05595(14)
O29 O 0.50579(14) 0.73533(15) 0.10616(12)
C55 C 0.53796(19) 0.71595(18) 0.08222(17)
C56 C 0.68895(19) 0.61367(19) 0.08703(18)
N13 N 0.71870(17) 0.68991(17) 0.24156(18)
C57 C 0.68896(17) 0.72662(19) 0.24514(19)
N14 N 0.65252(16) 0.73320(16) 0.21416(16)
H25 H 0.632478 0.755513 0.222175
C58 C 0.61411(18) 0.66530(19) 0.08349(17)
H26 H 0.605172 0.650701 0.054617
C59 C 0.65672(18) 0.65232(18) 0.10636(18)
C60 C 0.59704(19) 0.7220(2) 0.14897(19)
H27 H 0.576291 0.743742 0.163894
C61 C 0.6714(2) 0.6752(2) 0.1461(2)
H28 H 0.702033 0.668538 0.158175
C62 C 0.64177(19) 0.7097(2) 0.17088(19)
C63 C 0.58449(18) 0.70100(18) 0.10466(18)
O30 O 0.96350(12) 0.53152(12) 0.29198(13)
O31 O 0.89384(12) 0.50579(14) 0.26467(15)
C64 C 0.91778(17) 0.53796(19) 0.28405(18)
N15 N 0.75844(18) 0.71870(17) 0.31009(17)
C65 C 0.75486(19) 0.68896(17) 0.27338(19)
N16 N 0.78584(16) 0.65252(16) 0.26680(16)
H29 H 0.777825 0.632478 0.244487
C66 C 0.91651(17) 0.61411(18) 0.33470(19)
H30 H 0.945383 0.605172 0.349299
C67 C 0.89364(18) 0.65672(18) 0.34768(18)
C68 C 0.85103(19) 0.59704(19) 0.2780(2)
H31 H 0.836106 0.576291 0.256258
C69 C 0.8539(2) 0.6714(2) 0.3248(2)
H32 H 0.841825 0.702033 0.331462
C70 C 0.82912(19) 0.64177(19) 0.2903(2)
C71 C 0.89534(18) 0.58449(18) 0.29900(18)
O32 O 0.89762(13) 0.73125(13) 0.39016(13)
O33 O 0.94405(14) 0.67306(14) 0.41588(14)
C72 C 0.91297(18) 0.68895(19) 0.38633(19)
O34 O 0.70802(13) 0.96350(12) 0.46848(12)
O35 O 0.73533(15) 0.89384(12) 0.49421(14)
C73 C 0.71595(18) 0.91778(17) 0.46204(19)
N17 N 0.68991(17) 0.75844(18) 0.28130(17)
C74 C 0.72662(19) 0.75486(19) 0.31104(17)
N18 N 0.73320(16) 0.78584(16) 0.34748(16)
H33 H 0.755513 0.777825 0.367522
C75 C 0.66530(19) 0.91651(17) 0.38589(18)
H34 H 0.650701 0.945383 0.394828
C76 C 0.65232(18) 0.89364(18) 0.34328(18)
C77 C 0.7220(2) 0.85103(19) 0.40296(19)
H35 H 0.743742 0.836106 0.423709
C78 C 0.6752(2) 0.8539(2) 0.3286(2)
H36 H 0.668538 0.841825 0.297967
C79 C 0.7097(2) 0.82912(19) 0.35823(19)
C80 C 0.70100(18) 0.89534(18) 0.41551(18)
O36 O 0.60984(13) 0.89762(13) 0.26875(13)
O37 O 0.58412(14) 0.94405(14) 0.32694(14)
C81 C 0.61367(19) 0.91297(18) 0.31105(19)
Tb4 Tb 0.55237(2) 0.74861(2) 0.95972(2)
O38 O 0.72402(16) 0.50514(15) 0.88590(13)
O39 O 0.57803(16) 0.67302(14) 0.94331(15)
O40 O 0.73917(16) 0.52210(16) 0.81023(16)
C82 C 0.6885(2) 0.57551(18) 0.85304(18)
N19 N 0.71784(19) 0.66697(18) 0.73370(17)
O41 O 0.5932(2) 0.60028(18) 0.97010(18)
C83 C 0.6867(2) 0.60845(19) 0.81606(19)
H37 H 0.705865 0.603773 0.788864
C84 C 0.6810(2) 0.6939(2) 0.7423(2)
N20 N 0.65209(19) 0.68489(18) 0.78211(17)
H38 H 0.627690 0.703841 0.785161
C85 C 0.6611(2) 0.5839(2) 0.89454(19)
H39 H 0.662823 0.562464 0.920280
C86 C 0.6310(2) 0.62441(19) 0.89774(19)
C87 C 0.65648(19) 0.64919(19) 0.8186(2)
C88 C 0.6287(2) 0.6568(2) 0.8587(2)
H40 H 0.608198 0.683358 0.860081
C89 C 0.7203(2) 0.5316(2) 0.84876(19)
C90 C 0.5994(2) 0.6331(2) 0.9408(2)
O42 O 0.94331(15) 0.57803(16) 0.67302(14)
C91 C 0.85304(18) 0.6885(2) 0.57551(18)
N21 N 0.73370(17) 0.71784(19) 0.66697(18)
O43 O 0.97010(18) 0.5932(2) 0.60028(18)
C92 C 0.81606(19) 0.6867(2) 0.60845(19)
H41 H 0.788864 0.705865 0.603773
C93 C 0.7423(2) 0.6810(2) 0.6939(2)
N22 N 0.78211(17) 0.65209(19) 0.68489(18)
H42 H 0.785161 0.627690 0.703841
C94 C 0.89454(19) 0.6611(2) 0.5839(2)
H43 H 0.920280 0.662823 0.562464
C95 C 0.89774(19) 0.6310(2) 0.62441(19)
C96 C 0.8186(2) 0.65648(19) 0.64919(19)
C97 C 0.8587(2) 0.6287(2) 0.6568(2)
H44 H 0.860081 0.608198 0.683358
C98 C 0.9408(2) 0.5994(2) 0.6331(2)
O44 O 0.88590(13) 0.72402(16) 0.50514(15)
O45 O 0.81023(16) 0.73917(16) 0.52210(16)
C99 C 0.84876(19) 0.7203(2) 0.5316(2)
O46 O 0.67302(14) 0.94331(15) 0.57803(16)
C100 C 0.57551(18) 0.85304(18) 0.6885(2)
N23 N 0.66697(18) 0.73370(17) 0.71784(19)
O47 O 0.60028(18) 0.97010(18) 0.5932(2)
C101 C 0.60845(19) 0.81606(19) 0.6867(2)
H45 H 0.603773 0.788864 0.705865
C102 C 0.6939(2) 0.7423(2) 0.6810(2)
N24 N 0.68489(18) 0.78211(17) 0.65209(19)
H46 H 0.703841 0.785161 0.627690
C103 C 0.5839(2) 0.89454(19) 0.6611(2)
H47 H 0.562464 0.920280 0.662823
C104 C 0.62441(19) 0.89774(19) 0.6310(2)
C105 C 0.64919(19) 0.8186(2) 0.65648(19)
C106 C 0.6568(2) 0.8587(2) 0.6287(2)
H48 H 0.683358 0.860081 0.608198
C107 C 0.6331(2) 0.9408(2) 0.5994(2)
O48 O 0.50514(15) 0.88590(13) 0.72402(16)
O49 O 0.52210(16) 0.81023(16) 0.73917(16)
C108 C 0.5316(2) 0.84876(19) 0.7203(2)
Tb5 Tb 0.95972(2) 0.44763(2) 0.25139(2)
Tb6 Tb 0.04028(2) 0.44763(2) 0.74861(2)
O51_2 O 0.500000 0.79725(17) 1.000000
Tb8 Tb 0.74861(2) 0.95972(2) 0.55237(2)
Tb12 Tb 0.95972(2) 0.55237(2) 0.74861(2)
Tb15 Tb 0.75139(2) 0.45972(2) 0.94763(2)
Tb16 Tb 0.24861(2) 0.54028(2) 0.94763(2)
Tb17 Tb 0.24861(2) 0.45972(2) 0.05237(2)
Tb18 Tb 0.75139(2) 0.54028(2) 0.05237(2)
Tb19 Tb 0.94763(2) 0.75139(2) 0.45972(2)
Tb20 Tb 0.05237(2) 0.75139(2) 0.54028(2)
Tb21 Tb 0.45972(2) 0.94763(2) 0.75139(2)
Tb22 Tb 0.54028(2) 0.94763(2) 0.24861(2)
O52 O 0.89016(13) 0.39762(13) 0.23125(13)
O53 O 0.10984(13) 0.39762(13) 0.76875(13)
O54 O 0.23125(13) 0.89016(13) 0.39762(13)
O56 O 0.39762(13) 0.76875(13) 0.10984(13)
O57 O 0.60238(13) 0.76875(13) 0.89016(13)
O63 O 0.91588(14) 0.44405(14) 0.17306(14)
O64 O 0.08412(14) 0.44405(14) 0.82694(14)
O65 O 0.17306(14) 0.91588(14) 0.44405(14)
O67 O 0.44405(14) 0.82694(14) 0.08412(14)
O68 O 0.55595(14) 0.82694(14) 0.91588(14)
O73 O 0.22402(16) 0.99486(15) 0.61410(13)
O77 O 0.94331(15) 0.42197(16) 0.32698(14)
O78 O 0.05669(15) 0.42197(16) 0.67302(14)
O79_2 O 1.000000 0.500000 0.20275(17)
O80 O 0.000000 0.500000 0.79725(17)
O74 O 0.38590(13) 0.77598(16) 0.99486(15)
O61 O 0.96350(12) 0.46848(12) 0.70802(13)
O70 O 0.99486(15) 0.38590(13) 0.77598(16)
O80_2 O 1.000000 0.500000 0.79725(17)
O70_2 O 0.00514(15) 0.61410(13) 0.77598(16)
O51_3 O 0.500000 0.20275(17) 0.000000
Tb9_2 Tb 0.55237(2) 0.25139(2) 0.04028(2)
O59_2 O 0.46848(12) 0.29198(13) 0.03650(12)
O75_2 O 0.38590(13) 0.22402(16) 0.00514(15)
O1_2 O 0.60984(13) 0.10238(13) 0.73125(13)
O2_2 O 0.70802(13) 0.03650(12) 0.53152(12)
O3_2 O 0.58412(14) 0.05595(14) 0.67306(14)
O4_2 O 0.73533(15) 0.10616(12) 0.50579(14)
O5_2 O 0.50514(15) 0.11410(13) 0.27598(16)
O6_2 O 0.67302(14) 0.05669(15) 0.42197(16)
O7_2 O 0.52210(16) 0.18977(16) 0.26083(16)
C1_2 C 0.71595(18) 0.08222(17) 0.53796(19)
C2_2 C 0.57551(18) 0.14696(18) 0.3115(2)
C3_2 C 0.61367(19) 0.08703(18) 0.68895(19)
N1_2 N 0.66697(18) 0.26630(17) 0.28216(19)
O8_3 O 0.79725(17) -0.000000 0.500000
O9_2 O 0.60028(18) 0.02990(18) 0.4068(2)
C4_2 C 0.60845(19) 0.18394(19) 0.3133(2)
H1_2 H 0.603773 0.211136 0.294135
C5_2 C 0.6939(2) 0.2577(2) 0.3190(2)
N2_2 N 0.68489(18) 0.21789(17) 0.34791(19)
H2_2 H 0.703841 0.214839 0.372310
C6_2 C 0.5839(2) 0.10546(19) 0.3389(2)
H3_2 H 0.562464 0.079720 0.337177
C7_2 C 0.62441(19) 0.10226(19) 0.3690(2)
C8_2 C 0.64919(19) 0.1814(2) 0.34352(19)
C9_2 C 0.6568(2) 0.1413(2) 0.3713(2)
H4_2 H 0.683358 0.139919 0.391802
C10_2 C 0.5316(2) 0.15124(19) 0.2797(2)
C11_2 C 0.6331(2) 0.0592(2) 0.4006(2)
N3_2 N 0.68991(17) 0.24156(18) 0.71870(17)
C12_2 C 0.72662(19) 0.24514(19) 0.68896(17)
N4_2 N 0.73320(16) 0.21416(16) 0.65252(16)
H5_2 H 0.755513 0.222175 0.632478
C13_2 C 0.66530(19) 0.08349(17) 0.61411(18)
H6_2 H 0.650701 0.054617 0.605172
C14_2 C 0.65232(18) 0.10636(18) 0.65672(18)
C15_2 C 0.7220(2) 0.14897(19) 0.59704(19)
H7_2 H 0.743742 0.163894 0.576291
C16_2 C 0.6752(2) 0.1461(2) 0.6714(2)
H8_2 H 0.668538 0.158175 0.702033
C17_2 C 0.7097(2) 0.17088(19) 0.64177(19)
C18_2 C 0.70100(18) 0.10466(18) 0.58449(18)
O10_2 O 0.53152(12) 0.29198(13) 0.96350(12)
O11_2 O 0.50579(14) 0.26467(15) 0.89384(12)
C19_2 C 0.53796(19) 0.28405(18) 0.91778(17)
N5_2 N 0.71870(17) 0.31009(17) 0.75844(18)
C20_2 C 0.68896(17) 0.27338(19) 0.75486(19)
N6_2 N 0.65252(16) 0.26680(16) 0.78584(16)
H9_2 H 0.632478 0.244487 0.777825
C21_2 C 0.61411(18) 0.33470(19) 0.91651(17)
H10_2 H 0.605172 0.349299 0.945383
C22_2 C 0.65672(18) 0.34768(18) 0.89364(18)
C23_2 C 0.59704(19) 0.2780(2) 0.85103(19)
H11_2 H 0.576291 0.256258 0.836106
C24_2 C 0.6714(2) 0.3248(2) 0.8539(2)
H12_2 H 0.702033 0.331462 0.841825
C25_2 C 0.64177(19) 0.2903(2) 0.82912(19)
C26_2 C 0.58449(18) 0.29900(18) 0.89534(18)
O12_2 O 0.73125(13) 0.39016(13) 0.89762(13)
O13_2 O 0.67306(14) 0.41588(14) 0.94405(14)
C27_2 C 0.68895(19) 0.38633(19) 0.91297(18)
O15_2 O 0.89384(12) 0.49421(14) 0.73533(15)
C28_2 C 0.91778(17) 0.46204(19) 0.71595(18)
N7_2 N 0.75844(18) 0.28130(17) 0.68991(17)
C29_2 C 0.75486(19) 0.31104(17) 0.72662(19)
N8_2 N 0.78584(16) 0.34748(16) 0.73320(16)
H13_2 H 0.777825 0.367522 0.755513
C30_2 C 0.91651(17) 0.38589(18) 0.66530(19)
H14_2 H 0.945383 0.394828 0.650701
C31_2 C 0.89364(18) 0.34328(18) 0.65232(18)
C32_2 C 0.85103(19) 0.40296(19) 0.7220(2)
H15_2 H 0.836106 0.423709 0.743742
C33_2 C 0.8539(2) 0.3286(2) 0.6752(2)
H16_2 H 0.841825 0.297967 0.668538
C34_2 C 0.82912(19) 0.35823(19) 0.7097(2)
C35_2 C 0.89534(18) 0.41551(18) 0.70100(18)
O16_2 O 0.89762(13) 0.26875(13) 0.60984(13)
O17_2 O 0.94405(14) 0.32694(14) 0.58412(14)
C36_2 C 0.91297(18) 0.31105(19) 0.61367(19)
O18_2 O 0.57803(16) 0.32698(14) 0.05669(15)
C37_2 C 0.6885(2) 0.42449(18) 0.14696(18)
N9_2 N 0.71784(19) 0.33303(18) 0.26630(17)
O19_2 O 0.5932(2) 0.39972(18) 0.02990(18)
C38_2 C 0.6867(2) 0.39155(19) 0.18394(19)
H17_2 H 0.705865 0.396227 0.211136
C39_2 C 0.6810(2) 0.3061(2) 0.2577(2)
N10_2 N 0.65209(19) 0.31511(18) 0.21789(17)
H18_2 H 0.627690 0.296159 0.214839
C40_2 C 0.6611(2) 0.4161(2) 0.10546(19)
H19_2 H 0.662823 0.437536 0.079720
C41_2 C 0.6310(2) 0.37559(19) 0.10226(19)
C42_2 C 0.65648(19) 0.35081(19) 0.1814(2)
C43_2 C 0.6287(2) 0.3432(2) 0.1413(2)
H20_2 H 0.608198 0.316642 0.139919
C44_2 C 0.5994(2) 0.3669(2) 0.0592(2)
O20_2 O 0.72402(16) 0.49486(15) 0.11410(13)
O21_2 O 0.73917(16) 0.47790(16) 0.18977(16)
C45_2 C 0.7203(2) 0.4684(2) 0.15124(19)
C46_2 C 0.85304(18) 0.3115(2) 0.42449(18)
N11_2 N 0.73370(17) 0.28216(19) 0.33303(18)
O23_2 O 0.97010(18) 0.4068(2) 0.39972(18)
C47_2 C 0.81606(19) 0.3133(2) 0.39155(19)
H21_2 H 0.788864 0.294135 0.396227
C48_2 C 0.7423(2) 0.3190(2) 0.3061(2)
N12_2 N 0.78211(17) 0.34791(19) 0.31511(18)
H22_2 H 0.785161 0.372310 0.296159
C49_2 C 0.89454(19) 0.3389(2) 0.4161(2)
H23_2 H 0.920280 0.337177 0.437536
C50_2 C 0.89774(19) 0.3690(2) 0.37559(19)
C51_2 C 0.8186(2) 0.34352(19) 0.35081(19)
C52_2 C 0.8587(2) 0.3713(2) 0.3432(2)
H24_2 H 0.860081 0.391802 0.316642
C53_2 C 0.9408(2) 0.4006(2) 0.3669(2)
O24_2 O 0.88590(13) 0.27598(16) 0.49486(15)
O25_2 O 0.81023(16) 0.26083(16) 0.47790(16)
C54_2 C 0.84876(19) 0.2797(2) 0.4684(2)
O26_2 O 0.26875(13) 0.39016(13) 0.10238(13)
O28_2 O 0.32694(14) 0.41588(14) 0.05595(14)
O29_2 O 0.49421(14) 0.26467(15) 0.10616(12)
C55_2 C 0.46204(19) 0.28405(18) 0.08222(17)
C56_2 C 0.31105(19) 0.38633(19) 0.08703(18)
N13_2 N 0.28130(17) 0.31009(17) 0.24156(18)
C57_2 C 0.31104(17) 0.27338(19) 0.24514(19)
N14_2 N 0.34748(16) 0.26680(16) 0.21416(16)
H25_2 H 0.367522 0.244487 0.222175
C58_2 C 0.38589(18) 0.33470(19) 0.08349(17)
H26_2 H 0.394828 0.349299 0.054617
C59_2 C 0.34328(18) 0.34768(18) 0.10636(18)
C60_2 C 0.40296(19) 0.2780(2) 0.14897(19)
H27_2 H 0.423709 0.256258 0.163894
C61_2 C 0.3286(2) 0.3248(2) 0.1461(2)
H28_2 H 0.297967 0.331462 0.158175
C62_2 C 0.35823(19) 0.2903(2) 0.17088(19)
C63_2 C 0.41551(18) 0.29900(18) 0.10466(18)
O31_2 O 0.10616(12) 0.49421(14) 0.26467(15)
C64_2 C 0.08222(17) 0.46204(19) 0.28405(18)
N15_2 N 0.24156(18) 0.28130(17) 0.31009(17)
C65_2 C 0.24514(19) 0.31104(17) 0.27338(19)
N16_2 N 0.21416(16) 0.34748(16) 0.26680(16)
H29_2 H 0.222175 0.367522 0.244487
C66_2 C 0.08349(17) 0.38589(18) 0.33470(19)
H30_2 H 0.054617 0.394828 0.349299
C67_2 C 0.10636(18) 0.34328(18) 0.34768(18)
C68_2 C 0.14897(19) 0.40296(19) 0.2780(2)
H31_2 H 0.163894 0.423709 0.256258
C69_2 C 0.1461(2) 0.3286(2) 0.3248(2)
H32_2 H 0.158175 0.297967 0.331462
C70_2 C 0.17088(19) 0.35823(19) 0.2903(2)
C71_2 C 0.10466(18) 0.41551(18) 0.29900(18)
O32_2 O 0.10238(13) 0.26875(13) 0.39016(13)
O33_2 O 0.05595(14) 0.32694(14) 0.41588(14)
C72_2 C 0.08703(18) 0.31105(19) 0.38633(19)
C73_2 C 0.28405(18) 0.08222(17) 0.46204(19)
N17_2 N 0.31009(17) 0.24156(18) 0.28130(17)
C74_2 C 0.27338(19) 0.24514(19) 0.31104(17)
N18_2 N 0.26680(16) 0.21416(16) 0.34748(16)
H33_2 H 0.244487 0.222175 0.367522
C75_2 C 0.33470(19) 0.08349(17) 0.38589(18)
H34_2 H 0.349299 0.054617 0.394828
C76_2 C 0.34768(18) 0.10636(18) 0.34328(18)
C77_2 C 0.2780(2) 0.14897(19) 0.40296(19)
H35_2 H 0.256258 0.163894 0.423709
C78_2 C 0.3248(2) 0.1461(2) 0.3286(2)
H36_2 H 0.331462 0.158175 0.297967
C79_2 C 0.2903(2) 0.17088(19) 0.35823(19)
C80_2 C 0.29900(18) 0.10466(18) 0.41551(18)
O36_2 O 0.39016(13) 0.10238(13) 0.26875(13)
O37_2 O 0.41588(14) 0.05595(14) 0.32694(14)
C81_2 C 0.38633(19) 0.08703(18) 0.31105(19)
Tb4_2 Tb 0.44763(2) 0.25139(2) 0.95972(2)
O38_2 O 0.27598(16) 0.49486(15) 0.88590(13)
O39_2 O 0.42197(16) 0.32698(14) 0.94331(15)
O40_2 O 0.26083(16) 0.47790(16) 0.81023(16)
C82_2 C 0.3115(2) 0.42449(18) 0.85304(18)
N19_2 N 0.28216(19) 0.33303(18) 0.73370(17)
O41_2 O 0.4068(2) 0.39972(18) 0.97010(18)
C83_2 C 0.3133(2) 0.39155(19) 0.81606(19)
H37_2 H 0.294135 0.396227 0.788864
C84_2 C 0.3190(2) 0.3061(2) 0.7423(2)
N20_2 N 0.34791(19) 0.31511(18) 0.78211(17)
H38_2 H 0.372310 0.296159 0.785161
C85_2 C 0.3389(2) 0.4161(2) 0.89454(19)
H39_2 H 0.337177 0.437536 0.920280
C86_2 C 0.3690(2) 0.37559(19) 0.89774(19)
C87_2 C 0.34352(19) 0.35081(19) 0.8186(2)
C88_2 C 0.3713(2) 0.3432(2) 0.8587(2)
H40_2 H 0.391802 0.316642 0.860081
C89_2 C 0.2797(2) 0.4684(2) 0.84876(19)
C90_2 C 0.4006(2) 0.3669(2) 0.9408(2)
C91_2 C 0.14696(18) 0.3115(2) 0.57551(18)
N21_2 N 0.26630(17) 0.28216(19) 0.66697(18)
O43_2 O 0.02990(18) 0.4068(2) 0.60028(18)
C92_2 C 0.18394(19) 0.3133(2) 0.60845(19)
H41_2 H 0.211136 0.294135 0.603773
C93_2 C 0.2577(2) 0.3190(2) 0.6939(2)
N22_2 N 0.21789(17) 0.34791(19) 0.68489(18)
H42_2 H 0.214839 0.372310 0.703841
C94_2 C 0.10546(19) 0.3389(2) 0.5839(2)
H43_2 H 0.079720 0.337177 0.562464
C95_2 C 0.10226(19) 0.3690(2) 0.62441(19)
C96_2 C 0.1814(2) 0.34352(19) 0.64919(19)
C97_2 C 0.1413(2) 0.3713(2) 0.6568(2)
H44_2 H 0.139919 0.391802 0.683358
C98_2 C 0.0592(2) 0.4006(2) 0.6331(2)
O44_2 O 0.11410(13) 0.27598(16) 0.50514(15)
O45_2 O 0.18977(16) 0.26083(16) 0.52210(16)
C99_2 C 0.15124(19) 0.2797(2) 0.5316(2)
C100_2 C 0.42449(18) 0.14696(18) 0.6885(2)
N23_2 N 0.33303(18) 0.26630(17) 0.71784(19)
O47_2 O 0.39972(18) 0.02990(18) 0.5932(2)
C101_2 C 0.39155(19) 0.18394(19) 0.6867(2)
H45_2 H 0.396227 0.211136 0.705865
C102_2 C 0.3061(2) 0.2577(2) 0.6810(2)
N24_2 N 0.31511(18) 0.21789(17) 0.65209(19)
H46_2 H 0.296159 0.214839 0.627690
C103_2 C 0.4161(2) 0.10546(19) 0.6611(2)
H47_2 H 0.437536 0.079720 0.662823
C104_2 C 0.37559(19) 0.10226(19) 0.6310(2)
C105_2 C 0.35081(19) 0.1814(2) 0.65648(19)
C106_2 C 0.3432(2) 0.1413(2) 0.6287(2)
H48_2 H 0.316642 0.139919 0.608198
C107_2 C 0.3669(2) 0.0592(2) 0.5994(2)
O48_2 O 0.49486(15) 0.11410(13) 0.72402(16)
O49_2 O 0.47790(16) 0.18977(16) 0.73917(16)
C108_2 C 0.4684(2) 0.15124(19) 0.7203(2)
O51_4 O 0.500000 0.20275(17) 1.000000
Tb19_2 Tb 0.05237(2) 0.24861(2) 0.45972(2)
Tb20_2 Tb 0.94763(2) 0.24861(2) 0.54028(2)
Tb21_2 Tb 0.54028(2) 0.05237(2) 0.75139(2)
Tb22_2 Tb 0.45972(2) 0.05237(2) 0.24861(2)
O52_2 O 0.10984(13) 0.60238(13) 0.23125(13)
O53_2 O 0.89016(13) 0.60238(13) 0.76875(13)
O54_2 O 0.76875(13) 0.10984(13) 0.39762(13)
O56_2 O 0.60238(13) 0.23125(13) 0.10984(13)
O57_2 O 0.39762(13) 0.23125(13) 0.89016(13)
O63_2 O 0.08412(14) 0.55595(14) 0.17306(14)
O64_2 O 0.91588(14) 0.55595(14) 0.82694(14)
O65_2 O 0.82694(14) 0.08412(14) 0.44405(14)
O67_2 O 0.55595(14) 0.17306(14) 0.08412(14)
O68_2 O 0.44405(14) 0.17306(14) 0.91588(14)
O73_2 O 0.77598(16) 0.00514(15) 0.61410(13)
O74_2 O 0.61410(13) 0.22402(16) 0.99486(15)
O8_4 O 0.79725(17) 1.000000 0.500000
O55_2 O 0.76875(13) 0.89016(13) 0.60238(13)
O66_2 O 0.82694(14) 0.91588(14) 0.55595(14)
O72_2 O 0.77598(16) 0.99486(15) 0.38590(13)
O71_2 O 0.99486(15) 0.61410(13) 0.22402(16)
O39_3 O 0.07803(16) 0.17302(14) 0.44331(15)
O40_3 O 0.23917(16) 0.02210(16) 0.31023(16)
C82_3 C 0.1885(2) 0.07551(18) 0.35304(18)
N19_3 N 0.21784(19) 0.16697(18) 0.23370(17)
O41_3 O 0.0932(2) 0.10028(18) 0.47010(18)
C83_3 C 0.1867(2) 0.10845(19) 0.31606(19)
H37_3 H 0.205865 0.103773 0.288864
C84_3 C 0.1810(2) 0.1939(2) 0.2423(2)
N20_3 N 0.15209(19) 0.18489(18) 0.28211(17)
H38_3 H 0.127690 0.203841 0.285161
C85_3 C 0.1611(2) 0.0839(2) 0.39454(19)
H39_3 H 0.162823 0.062464 0.420280
C86_3 C 0.1310(2) 0.12441(19) 0.39774(19)
C87_3 C 0.15648(19) 0.14919(19) 0.3186(2)
C88_3 C 0.1287(2) 0.1568(2) 0.3587(2)
H40_3 H 0.108198 0.183358 0.360081
C89_3 C 0.2203(2) 0.0316(2) 0.34876(19)
C90_3 C 0.0994(2) 0.1331(2) 0.4408(2)
O42_2 O 0.44331(15) 0.07803(16) 0.17302(14)
C91_3 C 0.35304(18) 0.1885(2) 0.07551(18)
N21_3 N 0.23370(17) 0.21784(19) 0.16697(18)
O43_3 O 0.47010(18) 0.0932(2) 0.10028(18)
C92_3 C 0.31606(19) 0.1867(2) 0.10845(19)
H41_3 H 0.288864 0.205865 0.103773
C93_3 C 0.2423(2) 0.1810(2) 0.1939(2)
N22_3 N 0.28211(17) 0.15209(19) 0.18489(18)
H42_3 H 0.285161 0.127690 0.203841
C94_3 C 0.39454(19) 0.1611(2) 0.0839(2)
H43_3 H 0.420280 0.162823 0.062464
C95_3 C 0.39774(19) 0.1310(2) 0.12441(19)
C96_3 C 0.3186(2) 0.15648(19) 0.14919(19)
C97_3 C 0.3587(2) 0.1287(2) 0.1568(2)
H44_3 H 0.360081 0.108198 0.183358
C98_3 C 0.4408(2) 0.0994(2) 0.1331(2)
O45_3 O 0.31023(16) 0.23917(16) 0.02210(16)
C99_3 C 0.34876(19) 0.2203(2) 0.0316(2)
O46_2 O 0.17302(14) 0.44331(15) 0.07803(16)
C100_3 C 0.07551(18) 0.35304(18) 0.1885(2)
N23_3 N 0.16697(18) 0.23370(17) 0.21784(19)
O47_3 O 0.10028(18) 0.47010(18) 0.0932(2)
C101_3 C 0.10845(19) 0.31606(19) 0.1867(2)
H45_3 H 0.103773 0.288864 0.205865
C102_3 C 0.1939(2) 0.2423(2) 0.1810(2)
N24_3 N 0.18489(18) 0.28211(17) 0.15209(19)
H46_3 H 0.203841 0.285161 0.127690
C103_3 C 0.0839(2) 0.39454(19) 0.1611(2)
H47_3 H 0.062464 0.420280 0.162823
C104_3 C 0.12441(19) 0.39774(19) 0.1310(2)
C105_3 C 0.14919(19) 0.3186(2) 0.15648(19)
C106_3 C 0.1568(2) 0.3587(2) 0.1287(2)
H48_3 H 0.183358 0.360081 0.108198
C107_3 C 0.1331(2) 0.4408(2) 0.0994(2)
O49_3 O 0.02210(16) 0.31023(16) 0.23917(16)
C108_3 C 0.0316(2) 0.34876(19) 0.2203(2)
O51_5 O 0.000000 0.29725(17) 0.500000
O59_3 O 0.03152(12) 0.20802(13) 0.53650(12)
O29_3 O 0.00579(14) 0.23533(15) 0.60616(12)
C55_3 C 0.03796(19) 0.21595(18) 0.58222(17)
C56_3 C 0.18895(19) 0.11367(19) 0.58703(18)
N13_3 N 0.21870(17) 0.18991(17) 0.74156(18)
C57_3 C 0.18896(17) 0.22662(19) 0.74514(19)
N14_3 N 0.15252(16) 0.23320(16) 0.71416(16)
H25_3 H 0.132478 0.255513 0.722175
C58_3 C 0.11411(18) 0.16530(19) 0.58349(17)
H26_3 H 0.105172 0.150701 0.554617
C59_3 C 0.15672(18) 0.15232(18) 0.60636(18)
C60_3 C 0.09704(19) 0.2220(2) 0.64897(19)
H27_3 H 0.076291 0.243742 0.663894
C61_3 C 0.1714(2) 0.1752(2) 0.6461(2)
H28_3 H 0.202033 0.168538 0.658175
C62_3 C 0.14177(19) 0.2097(2) 0.67088(19)
C63_3 C 0.08449(18) 0.20100(18) 0.60466(18)
O30_2 O 0.46350(12) 0.03152(12) 0.79198(13)
O31_3 O 0.39384(12) 0.00579(14) 0.76467(15)
C64_3 C 0.41778(17) 0.03796(19) 0.78405(18)
N15_3 N 0.25844(18) 0.21870(17) 0.81009(17)
C65_3 C 0.25486(19) 0.18896(17) 0.77338(19)
N16_3 N 0.28584(16) 0.15252(16) 0.76680(16)
H29_3 H 0.277825 0.132478 0.744487
C66_3 C 0.41651(17) 0.11411(18) 0.83470(19)
H30_3 H 0.445383 0.105172 0.849299
C67_3 C 0.39364(18) 0.15672(18) 0.84768(18)
C68_3 C 0.35103(19) 0.09704(19) 0.7780(2)
H31_3 H 0.336106 0.076291 0.756258
C69_3 C 0.3539(2) 0.1714(2) 0.8248(2)
H32_3 H 0.341825 0.202033 0.831462
C70_3 C 0.32912(19) 0.14177(19) 0.7903(2)
C71_3 C 0.39534(18) 0.08449(18) 0.79900(18)
C72_3 C 0.41297(18) 0.18895(19) 0.88633(19)
O34_2 O 0.20802(13) 0.46350(12) 0.96848(12)
O35_2 O 0.23533(15) 0.39384(12) 0.99421(14)
C73_3 C 0.21595(18) 0.41778(17) 0.96204(19)
N17_3 N 0.18991(17) 0.25844(18) 0.78130(17)
C74_3 C 0.22662(19) 0.25486(19) 0.81104(17)
N18_3 N 0.23320(16) 0.28584(16) 0.84748(16)
H33_3 H 0.255513 0.277825 0.867522
C75_3 C 0.16530(19) 0.41651(17) 0.88589(18)
H34_3 H 0.150701 0.445383 0.894828
C76_3 C 0.15232(18) 0.39364(18) 0.84328(18)
C77_3 C 0.2220(2) 0.35103(19) 0.90296(19)
H35_3 H 0.243742 0.336106 0.923709
C78_3 C 0.1752(2) 0.3539(2) 0.8286(2)
H36_3 H 0.168538 0.341825 0.797967
C79_3 C 0.2097(2) 0.32912(19) 0.85823(19)
C80_3 C 0.20100(18) 0.39534(18) 0.91551(18)
C81_3 C 0.11367(19) 0.41297(18) 0.81105(19)
O79_3 O 0.500000 0.000000 0.70275(17)
O62_2 O 0.53650(12) 0.96848(12) 0.79198(13)
O77_2 O 0.44331(15) 0.92197(16) 0.82698(14)
O79_4 O 0.500000 1.000000 0.70275(17)
O2_3 O 0.79198(13) 0.46350(12) 0.03152(12)
O4_3 O 0.76467(15) 0.39384(12) 0.00579(14)
C1_3 C 0.78405(18) 0.41778(17) 0.03796(19)
C3_3 C 0.88633(19) 0.41297(18) 0.18895(19)
O8_5 O 0.70275(17) 0.500000 0.000000
N3_3 N 0.81009(17) 0.25844(18) 0.21870(17)
C12_3 C 0.77338(19) 0.25486(19) 0.18896(17)
N4_3 N 0.76680(16) 0.28584(16) 0.15252(16)
H5_3 H 0.744487 0.277825 0.132478
C13_3 C 0.83470(19) 0.41651(17) 0.11411(18)
H6_3 H 0.849299 0.445383 0.105172
C14_3 C 0.84768(18) 0.39364(18) 0.15672(18)
C15_3 C 0.7780(2) 0.35103(19) 0.09704(19)
H7_3 H 0.756258 0.336106 0.076291
C16_3 C 0.8248(2) 0.3539(2) 0.1714(2)
H8_3 H 0.831462 0.341825 0.202033
C17_3 C 0.7903(2) 0.32912(19) 0.14177(19)
C18_3 C 0.79900(18) 0.39534(18) 0.08449(18)
O10_3 O 0.96848(12) 0.20802(13) 0.46350(12)
O11_3 O 0.99421(14) 0.23533(15) 0.39384(12)
C19_3 C 0.96204(19) 0.21595(18) 0.41778(17)
N5_3 N 0.78130(17) 0.18991(17) 0.25844(18)
C20_3 C 0.81104(17) 0.22662(19) 0.25486(19)
N6_3 N 0.84748(16) 0.23320(16) 0.28584(16)
H9_3 H 0.867522 0.255513 0.277825
C21_3 C 0.88589(18) 0.16530(19) 0.41651(17)
H10_3 H 0.894828 0.150701 0.445383
C22_3 C 0.84328(18) 0.15232(18) 0.39364(18)
C23_3 C 0.90296(19) 0.2220(2) 0.35103(19)
H11_3 H 0.923709 0.243742 0.336106
C24_3 C 0.8286(2) 0.1752(2) 0.3539(2)
H12_3 H 0.797967 0.168538 0.341825
C25_3 C 0.85823(19) 0.2097(2) 0.32912(19)
C26_3 C 0.91551(18) 0.20100(18) 0.39534(18)
C27_3 C 0.81105(19) 0.11367(19) 0.41297(18)
O14_2 O 0.53650(12) 0.03152(12) 0.20802(13)
O15_3 O 0.60616(12) 0.00579(14) 0.23533(15)
C28_3 C 0.58222(17) 0.03796(19) 0.21595(18)
N7_3 N 0.74156(18) 0.21870(17) 0.18991(17)
C29_3 C 0.74514(19) 0.18896(17) 0.22662(19)
N8_3 N 0.71416(16) 0.15252(16) 0.23320(16)
H13_3 H 0.722175 0.132478 0.255513
C30_3 C 0.58349(17) 0.11411(18) 0.16530(19)
H14_3 H 0.554617 0.105172 0.150701
C31_3 C 0.60636(18) 0.15672(18) 0.15232(18)
C32_3 C 0.64897(19) 0.09704(19) 0.2220(2)
H15_3 H 0.663894 0.076291 0.243742
C33_3 C 0.6461(2) 0.1714(2) 0.1752(2)
H16_3 H 0.658175 0.202033 0.168538
C34_3 C 0.67088(19) 0.14177(19) 0.2097(2)
C35_3 C 0.60466(18) 0.08449(18) 0.20100(18)
C36_3 C 0.58703(18) 0.18895(19) 0.11367(19)
O51_6 O 1.000000 0.29725(17) 0.500000
O76_2 O 0.82698(14) 0.55669(15) 0.07803(16)
O80_3 O 0.500000 0.000000 0.29725(17)
O6_3 O 0.82698(14) 0.44331(15) 0.92197(16)
O7_3 O 0.97790(16) 0.31023(16) 0.76083(16)
C2_3 C 0.92449(18) 0.35304(18) 0.8115(2)
N1_3 N 0.83303(18) 0.23370(17) 0.78216(19)
O8_6 O 0.70275(17) 0.500000 1.000000
O9_3 O 0.89972(18) 0.47010(18) 0.9068(2)
C4_3 C 0.89155(19) 0.31606(19) 0.8133(2)
H1_3 H 0.896227 0.288864 0.794135
C5_3 C 0.8061(2) 0.2423(2) 0.8190(2)
N2_3 N 0.81511(18) 0.28211(17) 0.84791(19)
H2_3 H 0.796159 0.285161 0.872310
C6_3 C 0.9161(2) 0.39454(19) 0.8389(2)
H3_3 H 0.937536 0.420280 0.837177
C7_3 C 0.87559(19) 0.39774(19) 0.8690(2)
C8_3 C 0.85081(19) 0.3186(2) 0.84352(19)
C9_3 C 0.8432(2) 0.3587(2) 0.8713(2)
H4_3 H 0.816642 0.360081 0.891802
C10_3 C 0.9684(2) 0.34876(19) 0.7797(2)
C11_3 C 0.8669(2) 0.4408(2) 0.9006(2)
O18_3 O 0.92197(16) 0.17302(14) 0.55669(15)
C37_3 C 0.8115(2) 0.07551(18) 0.64696(18)
N9_3 N 0.78216(19) 0.16697(18) 0.76630(17)
O19_3 O 0.9068(2) 0.10028(18) 0.52990(18)
C38_3 C 0.8133(2) 0.10845(19) 0.68394(19)
H17_3 H 0.794135 0.103773 0.711136
C39_3 C 0.8190(2) 0.1939(2) 0.7577(2)
N10_3 N 0.84791(19) 0.18489(18) 0.71789(17)
H18_3 H 0.872310 0.203841 0.714839
C40_3 C 0.8389(2) 0.0839(2) 0.60546(19)
H19_3 H 0.837177 0.062464 0.579720
C41_3 C 0.8690(2) 0.12441(19) 0.60226(19)
C42_3 C 0.84352(19) 0.14919(19) 0.6814(2)
C43_3 C 0.8713(2) 0.1568(2) 0.6413(2)
H20_3 H 0.891802 0.183358 0.639919
C44_3 C 0.9006(2) 0.1331(2) 0.5592(2)
O21_3 O 0.76083(16) 0.02210(16) 0.68977(16)
C45_3 C 0.7797(2) 0.0316(2) 0.65124(19)
O22_2 O 0.55669(15) 0.07803(16) 0.82698(14)
C46_3 C 0.64696(18) 0.1885(2) 0.92449(18)
N11_3 N 0.76630(17) 0.21784(19) 0.83303(18)
O23_3 O 0.52990(18) 0.0932(2) 0.89972(18)
C47_3 C 0.68394(19) 0.1867(2) 0.89155(19)
H21_3 H 0.711136 0.205865 0.896227
C48_3 C 0.7577(2) 0.1810(2) 0.8061(2)
N12_3 N 0.71789(17) 0.15209(19) 0.81511(18)
H22_3 H 0.714839 0.127690 0.796159
C49_3 C 0.60546(19) 0.1611(2) 0.9161(2)
H23_3 H 0.579720 0.162823 0.937536
C50_3 C 0.60226(19) 0.1310(2) 0.87559(19)
C51_3 C 0.6814(2) 0.15648(19) 0.85081(19)
C52_3 C 0.6413(2) 0.1287(2) 0.8432(2)
H24_3 H 0.639919 0.108198 0.816642
C53_3 C 0.5592(2) 0.0994(2) 0.8669(2)
O25_3 O 0.68977(16) 0.23917(16) 0.97790(16)
C54_3 C 0.65124(19) 0.2203(2) 0.9684(2)
O58_2 O 0.79198(13) 0.53650(12) 0.96848(12)
O69_2 O 0.76467(15) 0.60616(12) 0.99421(14)
O61_2 O 0.46350(12) 0.96848(12) 0.20802(13)
O78_2 O 0.55669(15) 0.92197(16) 0.17302(14)
O80_4 O 0.500000 1.000000 0.29725(17)
O2_4 O 0.20802(13) 0.53650(12) 0.03152(12)
O4_4 O 0.23533(15) 0.60616(12) 0.00579(14)
C1_4 C 0.21595(18) 0.58222(17) 0.03796(19)
C3_4 C 0.11367(19) 0.58703(18) 0.18895(19)
O8_7 O 0.29725(17) 0.500000 0.000000
N3_4 N 0.18991(17) 0.74156(18) 0.21870(17)
C12_4 C 0.22662(19) 0.74514(19) 0.18896(17)
N4_4 N 0.23320(16) 0.71416(16) 0.15252(16)
H5_4 H 0.255513 0.722175 0.132478
C13_4 C 0.16530(19) 0.58349(17) 0.11411(18)
H6_4 H 0.150701 0.554617 0.105172
C14_4 C 0.15232(18) 0.60636(18) 0.15672(18)
C15_4 C 0.2220(2) 0.64897(19) 0.09704(19)
H7_4 H 0.243742 0.663894 0.076291
C16_4 C 0.1752(2) 0.6461(2) 0.1714(2)
H8_4 H 0.168538 0.658175 0.202033
C17_4 C 0.2097(2) 0.67088(19) 0.14177(19)
C18_4 C 0.20100(18) 0.60466(18) 0.08449(18)
O10_4 O 0.03152(12) 0.79198(13) 0.46350(12)
O11_4 O 0.00579(14) 0.76467(15) 0.39384(12)
C19_4 C 0.03796(19) 0.78405(18) 0.41778(17)
N5_4 N 0.21870(17) 0.81009(17) 0.25844(18)
C20_4 C 0.18896(17) 0.77338(19) 0.25486(19)
N6_4 N 0.15252(16) 0.76680(16) 0.28584(16)
H9_4 H 0.132478 0.744487 0.277825
C21_4 C 0.11411(18) 0.83470(19) 0.41651(17)
H10_4 H 0.105172 0.849299 0.445383
C22_4 C 0.15672(18) 0.84768(18) 0.39364(18)
C23_4 C 0.09704(19) 0.7780(2) 0.35103(19)
H11_4 H 0.076291 0.756258 0.336106
C24_4 C 0.1714(2) 0.8248(2) 0.3539(2)
H12_4 H 0.202033 0.831462 0.341825
C25_4 C 0.14177(19) 0.7903(2) 0.32912(19)
C26_4 C 0.08449(18) 0.79900(18) 0.39534(18)
C27_4 C 0.18895(19) 0.88633(19) 0.41297(18)
O15_4 O 0.39384(12) 0.99421(14) 0.23533(15)
C28_4 C 0.41778(17) 0.96204(19) 0.21595(18)
N7_4 N 0.25844(18) 0.78130(17) 0.18991(17)
C29_4 C 0.25486(19) 0.81104(17) 0.22662(19)
N8_4 N 0.28584(16) 0.84748(16) 0.23320(16)
H13_4 H 0.277825 0.867522 0.255513
C30_4 C 0.41651(17) 0.88589(18) 0.16530(19)
H14_4 H 0.445383 0.894828 0.150701
C31_4 C 0.39364(18) 0.84328(18) 0.15232(18)
C32_4 C 0.35103(19) 0.90296(19) 0.2220(2)
H15_4 H 0.336106 0.923709 0.243742
C33_4 C 0.3539(2) 0.8286(2) 0.1752(2)
H16_4 H 0.341825 0.797967 0.168538
C34_4 C 0.32912(19) 0.85823(19) 0.2097(2)
C35_4 C 0.39534(18) 0.91551(18) 0.20100(18)
C36_4 C 0.41297(18) 0.81105(19) 0.11367(19)
O51_7 O -0.000000 0.70275(17) 0.500000
O6_4 O 0.17302(14) 0.55669(15) 0.92197(16)
O7_4 O 0.02210(16) 0.68977(16) 0.76083(16)
C2_4 C 0.07551(18) 0.64696(18) 0.8115(2)
N1_4 N 0.16697(18) 0.76630(17) 0.78216(19)
O8_8 O 0.29725(17) 0.500000 1.000000
O9_4 O 0.10028(18) 0.52990(18) 0.9068(2)
C4_4 C 0.10845(19) 0.68394(19) 0.8133(2)
H1_4 H 0.103773 0.711136 0.794135
C5_4 C 0.1939(2) 0.7577(2) 0.8190(2)
N2_4 N 0.18489(18) 0.71789(17) 0.84791(19)
H2_4 H 0.203841 0.714839 0.872310
C6_4 C 0.0839(2) 0.60546(19) 0.8389(2)
H3_4 H 0.062464 0.579720 0.837177
C7_4 C 0.12441(19) 0.60226(19) 0.8690(2)
C8_4 C 0.14919(19) 0.6814(2) 0.84352(19)
C9_4 C 0.1568(2) 0.6413(2) 0.8713(2)
H4_4 H 0.183358 0.639919 0.891802
C10_4 C 0.0316(2) 0.65124(19) 0.7797(2)
C11_4 C 0.1331(2) 0.5592(2) 0.9006(2)
O18_4 O 0.07803(16) 0.82698(14) 0.55669(15)
C37_4 C 0.1885(2) 0.92449(18) 0.64696(18)
N9_4 N 0.21784(19) 0.83303(18) 0.76630(17)
O19_4 O 0.0932(2) 0.89972(18) 0.52990(18)
C38_4 C 0.1867(2) 0.89155(19) 0.68394(19)
H17_4 H 0.205865 0.896227 0.711136
C39_4 C 0.1810(2) 0.8061(2) 0.7577(2)
N10_4 N 0.15209(19) 0.81511(18) 0.71789(17)
H18_4 H 0.127690 0.796159 0.714839
C40_4 C 0.1611(2) 0.9161(2) 0.60546(19)
H19_4 H 0.162823 0.937536 0.579720
C41_4 C 0.1310(2) 0.87559(19) 0.60226(19)
C42_4 C 0.15648(19) 0.85081(19) 0.6814(2)
C43_4 C 0.1287(2) 0.8432(2) 0.6413(2)
H20_4 H 0.108198 0.816642 0.639919
C44_4 C 0.0994(2) 0.8669(2) 0.5592(2)
O21_4 O 0.23917(16) 0.97790(16) 0.68977(16)
C45_4 C 0.2203(2) 0.9684(2) 0.65124(19)
C46_4 C 0.35304(18) 0.8115(2) 0.92449(18)
N11_4 N 0.23370(17) 0.78216(19) 0.83303(18)
O23_4 O 0.47010(18) 0.9068(2) 0.89972(18)
C47_4 C 0.31606(19) 0.8133(2) 0.89155(19)
H21_4 H 0.288864 0.794135 0.896227
C48_4 C 0.2423(2) 0.8190(2) 0.8061(2)
N12_4 N 0.28211(17) 0.84791(19) 0.81511(18)
H22_4 H 0.285161 0.872310 0.796159
C49_4 C 0.39454(19) 0.8389(2) 0.9161(2)
H23_4 H 0.420280 0.837177 0.937536
C50_4 C 0.39774(19) 0.8690(2) 0.87559(19)
C51_4 C 0.3186(2) 0.84352(19) 0.85081(19)
C52_4 C 0.3587(2) 0.8713(2) 0.8432(2)
H24_4 H 0.360081 0.891802 0.816642
C53_4 C 0.4408(2) 0.9006(2) 0.8669(2)
O25_4 O 0.31023(16) 0.76083(16) 0.97790(16)
C54_4 C 0.34876(19) 0.7797(2) 0.9684(2)
O39_4 O 0.92197(16) 0.82698(14) 0.44331(15)
O40_4 O 0.76083(16) 0.97790(16) 0.31023(16)
C82_4 C 0.8115(2) 0.92449(18) 0.35304(18)
N19_4 N 0.78216(19) 0.83303(18) 0.23370(17)
O41_4 O 0.9068(2) 0.89972(18) 0.47010(18)
C83_4 C 0.8133(2) 0.89155(19) 0.31606(19)
H37_4 H 0.794135 0.896227 0.288864
C84_4 C 0.8190(2) 0.8061(2) 0.2423(2)
N20_4 N 0.84791(19) 0.81511(18) 0.28211(17)
H38_4 H 0.872310 0.796159 0.285161
C85_4 C 0.8389(2) 0.9161(2) 0.39454(19)
H39_4 H 0.837177 0.937536 0.420280
C86_4 C 0.8690(2) 0.87559(19) 0.39774(19)
C87_4 C 0.84352(19) 0.85081(19) 0.3186(2)
C88_4 C 0.8713(2) 0.8432(2) 0.3587(2)
H40_4 H 0.891802 0.816642 0.360081
C89_4 C 0.7797(2) 0.9684(2) 0.34876(19)
C90_4 C 0.9006(2) 0.8669(2) 0.4408(2)
C91_4 C 0.64696(18) 0.8115(2) 0.07551(18)
N21_4 N 0.76630(17) 0.78216(19) 0.16697(18)
O43_4 O 0.52990(18) 0.9068(2) 0.10028(18)
C92_4 C 0.68394(19) 0.8133(2) 0.10845(19)
H41_4 H 0.711136 0.794135 0.103773
C93_4 C 0.7577(2) 0.8190(2) 0.1939(2)
N22_4 N 0.71789(17) 0.84791(19) 0.18489(18)
H42_4 H 0.714839 0.872310 0.203841
C94_4 C 0.60546(19) 0.8389(2) 0.0839(2)
H43_4 H 0.579720 0.837177 0.062464
C95_4 C 0.60226(19) 0.8690(2) 0.12441(19)
C96_4 C 0.6814(2) 0.84352(19) 0.14919(19)
C97_4 C 0.6413(2) 0.8713(2) 0.1568(2)
H44_4 H 0.639919 0.891802 0.183358
C98_4 C 0.5592(2) 0.9006(2) 0.1331(2)
O45_4 O 0.68977(16) 0.76083(16) 0.02210(16)
C99_4 C 0.65124(19) 0.7797(2) 0.0316(2)
C100_4 C 0.92449(18) 0.64696(18) 0.1885(2)
N23_4 N 0.83303(18) 0.76630(17) 0.21784(19)
O47_4 O 0.89972(18) 0.52990(18) 0.0932(2)
C101_4 C 0.89155(19) 0.68394(19) 0.1867(2)
H45_4 H 0.896227 0.711136 0.205865
C102_4 C 0.8061(2) 0.7577(2) 0.1810(2)
N24_4 N 0.81511(18) 0.71789(17) 0.15209(19)
H46_4 H 0.796159 0.714839 0.127690
C103_4 C 0.9161(2) 0.60546(19) 0.1611(2)
H47_4 H 0.937536 0.579720 0.162823
C104_4 C 0.87559(19) 0.60226(19) 0.1310(2)
C105_4 C 0.85081(19) 0.6814(2) 0.15648(19)
C106_4 C 0.8432(2) 0.6413(2) 0.1287(2)
H48_4 H 0.816642 0.639919 0.108198
C107_4 C 0.8669(2) 0.5592(2) 0.0994(2)
O49_4 O 0.97790(16) 0.68977(16) 0.23917(16)
C108_4 C 0.9684(2) 0.65124(19) 0.2203(2)
O51_8 O 1.000000 0.70275(17) 0.500000
O59_4 O 0.96848(12) 0.79198(13) 0.53650(12)
O29_4 O 0.99421(14) 0.76467(15) 0.60616(12)
C55_4 C 0.96204(19) 0.78405(18) 0.58222(17)
C56_4 C 0.81105(19) 0.88633(19) 0.58703(18)
N13_4 N 0.78130(17) 0.81009(17) 0.74156(18)
C57_4 C 0.81104(17) 0.77338(19) 0.74514(19)
N14_4 N 0.84748(16) 0.76680(16) 0.71416(16)
H25_4 H 0.867522 0.744487 0.722175
C58_4 C 0.88589(18) 0.83470(19) 0.58349(17)
H26_4 H 0.894828 0.849299 0.554617
C59_4 C 0.84328(18) 0.84768(18) 0.60636(18)
C60_4 C 0.90296(19) 0.7780(2) 0.64897(19)
H27_4 H 0.923709 0.756258 0.663894
C61_4 C 0.8286(2) 0.8248(2) 0.6461(2)
H28_4 H 0.797967 0.831462 0.658175
C62_4 C 0.85823(19) 0.7903(2) 0.67088(19)
C63_4 C 0.91551(18) 0.79900(18) 0.60466(18)
O31_4 O 0.60616(12) 0.99421(14) 0.76467(15)
C64_4 C 0.58222(17) 0.96204(19) 0.78405(18)
N15_4 N 0.74156(18) 0.78130(17) 0.81009(17)
C65_4 C 0.74514(19) 0.81104(17) 0.77338(19)
N16_4 N 0.71416(16) 0.84748(16) 0.76680(16)
H29_4 H 0.722175 0.867522 0.744487
C66_4 C 0.58349(17) 0.88589(18) 0.83470(19)
H30_4 H 0.554617 0.894828 0.849299
C67_4 C 0.60636(18) 0.84328(18) 0.84768(18)
C68_4 C 0.64897(19) 0.90296(19) 0.7780(2)
H31_4 H 0.663894 0.923709 0.756258
C69_4 C 0.6461(2) 0.8286(2) 0.8248(2)
H32_4 H 0.658175 0.797967 0.831462
C70_4 C 0.67088(19) 0.85823(19) 0.7903(2)
C71_4 C 0.60466(18) 0.91551(18) 0.79900(18)
C72_4 C 0.58703(18) 0.81105(19) 0.88633(19)
C73_4 C 0.78405(18) 0.58222(17) 0.96204(19)
N17_4 N 0.81009(17) 0.74156(18) 0.78130(17)
C74_4 C 0.77338(19) 0.74514(19) 0.81104(17)
N18_4 N 0.76680(16) 0.71416(16) 0.84748(16)
H33_4 H 0.744487 0.722175 0.867522
C75_4 C 0.83470(19) 0.58349(17) 0.88589(18)
H34_4 H 0.849299 0.554617 0.894828
C76_4 C 0.84768(18) 0.60636(18) 0.84328(18)
C77_4 C 0.7780(2) 0.64897(19) 0.90296(19)
H35_4 H 0.756258 0.663894 0.923709
C78_4 C 0.8248(2) 0.6461(2) 0.8286(2)
H36_4 H 0.831462 0.658175 0.797967
C79_4 C 0.7903(2) 0.67088(19) 0.85823(19)
C80_4 C 0.79900(18) 0.60466(18) 0.91551(18)
C81_4 C 0.88633(19) 0.58703(18) 0.81105(19)
loop_
_geom_bond_atom_site_label_1
_geom_bond_atom_site_label_2
_geom_bond_site_symmetry_1
_geom_bond_site_symmetry_2
Tb14 O62 1_555 1_555
Tb14 O79 1_555 1_555
O55 Tb2 1_555 1_555
O66 Tb2 1_555 1_555
O69 Tb2 1_555 1_555
O76 Tb2 1_555 1_555
O8 Tb2 1_555 1_555
Tb2 O58 1_555 1_555
O51 Tb9 1_555 1_555
Tb9 O59 1_555 1_555
Tb1 O2 1_555 1_555
O1 C3 1_555 1_555
O2 C1 1_555 1_555
O3 C3 1_555 1_555
O4 Tb1 1_555 1_555
O5 C10 1_555 1_555
O6 Tb1 1_555 1_555
O7 C10 1_555 1_555
C1 O4 1_555 1_555
C2 C4 1_555 1_555
C3 C14 1_555 1_555
N1 C5 1_555 1_555
O8_2 Tb1 1_555 1_555
O9 C11 1_555 1_555
C4 H1 1_555 1_555
C5 N2 1_555 1_555
N2 H2 1_555 1_555
C6 C2 1_555 1_555
H3 C6 1_555 1_555
C7 C6 1_555 1_555
C8 C4 1_555 1_555
C9 C7 1_555 1_555
H4 C9 1_555 1_555
C10 C2 1_555 1_555
C11 O6 1_555 1_555
N3 C12 1_555 1_555
C12 N4 1_555 1_555
N4 H5 1_555 1_555
C13 H6 1_555 1_555
C14 C13 1_555 1_555
C15 H7 1_555 1_555
C16 C14 1_555 1_555
H8 C16 1_555 1_555
C17 N4 1_555 1_555
C18 C1 1_555 1_555
O10 C19 1_555 1_555
O11 C19 1_555 1_555
C19 C26 1_555 1_555
N5 C20 1_555 1_555
C20 N3 1_555 1_555
N6 C20 1_555 1_555
H9 N6 1_555 1_555
C21 H10 1_555 1_555
C22 C21 1_555 1_555
C23 H11 1_555 1_555
C24 C22 1_555 1_555
H12 C24 1_555 1_555
C25 N6 1_555 1_555
C26 C21 1_555 1_555
O12 C27 1_555 1_555
O13 C27 1_555 1_555
C27 C22 1_555 1_555
O14 C28 1_555 1_555
O15 C28 1_555 1_555
C28 C35 1_555 1_555
N7 C12 1_555 1_555
C29 N5 1_555 1_555
N8 C29 1_555 1_555
H13 N8 1_555 1_555
C30 H14 1_555 1_555
C31 C30 1_555 1_555
C32 H15 1_555 1_555
C33 C31 1_555 1_555
H16 C33 1_555 1_555
C34 N8 1_555 1_555
C35 C30 1_555 1_555
O16 C36 1_555 1_555
O17 C36 1_555 1_555
C36 C31 1_555 1_555
O18 C44 1_555 1_555
C37 C38 1_555 1_555
N9 C39 1_555 1_555
O19 C44 1_555 1_555
C38 H17 1_555 1_555
C39 N1 1_555 1_555
N10 C39 1_555 1_555
H18 N10 1_555 1_555
C40 C37 1_555 1_555
H19 C40 1_555 1_555
C41 C40 1_555 1_555
C42 C38 1_555 1_555
C43 C41 1_555 1_555
H20 C43 1_555 1_555
C44 C41 1_555 1_555
O20 C45 1_555 1_555
O21 C45 1_555 1_555
C45 C37 1_555 1_555
O22 C53 1_555 1_555
C46 C47 1_555 1_555
N11 C5 1_555 1_555
O23 C53 1_555 1_555
C47 H21 1_555 1_555
C48 N9 1_555 1_555
N12 C48 1_555 1_555
H22 N12 1_555 1_555
C49 C46 1_555 1_555
H23 C49 1_555 1_555
C50 C49 1_555 1_555
C51 C47 1_555 1_555
C52 C50 1_555 1_555
H24 C52 1_555 1_555
C53 C50 1_555 1_555
O24 C54 1_555 1_555
O25 C54 1_555 1_555
C54 C46 1_555 1_555
Tb9 O18 1_555 1_555
O26 C56 1_555 1_555
O28 C56 1_555 1_555
O29 Tb9 1_555 1_555
C55 O59 1_555 1_555
C56 C59 1_555 1_555
N13 C57 1_555 1_555
C57 N14 1_555 1_555
N14 H25 1_555 1_555
C58 H26 1_555 1_555
C59 C58 1_555 1_555
C60 H27 1_555 1_555
C61 C59 1_555 1_555
H28 C61 1_555 1_555
C62 N14 1_555 1_555
C63 C55 1_555 1_555
O30 C64 1_555 1_555
O31 C64 1_555 1_555
C64 C71 1_555 1_555
N15 C65 1_555 1_555
C65 N13 1_555 1_555
N16 C65 1_555 1_555
H29 N16 1_555 1_555
C66 H30 1_555 1_555
C67 C66 1_555 1_555
C68 H31 1_555 1_555
C69 C67 1_555 1_555
H32 C69 1_555 1_555
C70 N16 1_555 1_555
C71 C66 1_555 1_555
O32 C72 1_555 1_555
O33 C72 1_555 1_555
C72 C67 1_555 1_555
O34 C73 1_555 1_555
O35 C73 1_555 1_555
C73 C80 1_555 1_555
N17 C57 1_555 1_555
C74 N15 1_555 1_555
N18 C74 1_555 1_555
H33 N18 1_555 1_555
C75 H34 1_555 1_555
C76 C75 1_555 1_555
C77 H35 1_555 1_555
C78 C76 1_555 1_555
H36 C78 1_555 1_555
C79 N18 1_555 1_555
C80 C75 1_555 1_555
O36 C81 1_555 1_555
O37 C81 1_555 1_555
C81 C76 1_555 1_555
Tb4 O10 1_555 1_555
O38 C89 1_555 1_555
O39 Tb4 1_555 1_555
O40 C89 1_555 1_555
C82 C83 1_555 1_555
N19 C84 1_555 1_555
O41 C90 1_555 1_555
C83 H37 1_555 1_555
C84 N20 1_555 1_555
N20 H38 1_555 1_555
C85 C82 1_555 1_555
H39 C85 1_555 1_555
C86 C85 1_555 1_555
C87 C83 1_555 1_555
C88 C86 1_555 1_555
H40 C88 1_555 1_555
C89 C82 1_555 1_555
C90 O39 1_555 1_555
O42 C98 1_555 1_555
C91 C92 1_555 1_555
N21 C93 1_555 1_555
O43 C98 1_555 1_555
C92 H41 1_555 1_555
C93 N19 1_555 1_555
N22 C93 1_555 1_555
H42 N22 1_555 1_555
C94 C91 1_555 1_555
H43 C94 1_555 1_555
C95 C94 1_555 1_555
C96 C92 1_555 1_555
C97 C95 1_555 1_555
H44 C97 1_555 1_555
C98 C95 1_555 1_555
O44 C99 1_555 1_555
O45 C99 1_555 1_555
C99 C91 1_555 1_555
O46 C107 1_555 1_555
C100 C101 1_555 1_555
N23 C84 1_555 1_555
O47 C107 1_555 1_555
C101 H45 1_555 1_555
C102 N21 1_555 1_555
N24 C102 1_555 1_555
H46 N24 1_555 1_555
C103 C100 1_555 1_555
H47 C103 1_555 1_555
C104 C103 1_555 1_555
C105 C101 1_555 1_555
C106 C104 1_555 1_555
H48 C106 1_555 1_555
C107 C104 1_555 1_555
O48 C108 1_555 1_555
O49 C108 1_555 1_555
C108 C100 1_555 1_555
Tb5 O30 1_555 1_555
Tb6 O14 1_555 1_555
O51_2 Tb4 1_555 1_555
Tb8 O34 1_555 1_555
Tb12 O42 1_555 1_555
Tb14 O22 1_555 1_555
Tb15 O38 1_555 1_555
Tb16 O12 1_555 1_555
Tb17 O20 1_555 1_555
Tb18 O26 1_555 1_555
Tb19 O32 1_555 1_555
Tb20 O16 1_555 1_555
Tb21 O1 1_555 1_555
Tb22 O5 1_555 1_555
O52 Tb5 1_555 1_555
O53 Tb6 1_555 1_555
O54 Tb1 1_555 1_555
O56 Tb9 1_555 1_555
O57 Tb4 1_555 1_555
O63 Tb5 1_555 1_555
O64 Tb6 1_555 1_555
O65 Tb1 1_555 1_555
O67 Tb9 1_555 1_555
O68 Tb4 1_555 1_555
O77 Tb5 1_555 1_555
O78 Tb6 1_555 1_555
O79_2 Tb5 1_555 1_555
O80 Tb6 1_555 1_555
O3 Tb21 1_555 1_555
N2 C8 1_555 1_555
C7 C11 1_555 1_555
C8 C9 1_555 1_555
C13 C18 1_555 1_555
C15 C17 1_555 1_555
C15 C18 1_555 1_555
C16 C17 1_555 1_555
O11 Tb4 1_555 1_555
C23 C25 1_555 1_555
C23 C26 1_555 1_555
C24 C25 1_555 1_555
O13 Tb16 1_555 1_555
O15 Tb6 1_555 1_555
N7 C29 1_555 1_555
C32 C34 1_555 1_555
C32 C35 1_555 1_555
C33 C34 1_555 1_555
O17 Tb20 1_555 1_555
N10 C42 1_555 1_555
C42 C43 1_555 1_555
N11 C48 1_555 1_555
N12 C51 1_555 1_555
C51 C52 1_555 1_555
O24 Tb20 1_555 1_555
O28 Tb18 1_555 1_555
O29 C55 1_555 1_555
C58 C63 1_555 1_555
C60 C62 1_555 1_555
C60 C63 1_555 1_555
C61 C62 1_555 1_555
O31 Tb5 1_555 1_555
C68 C70 1_555 1_555
C68 C71 1_555 1_555
C69 C70 1_555 1_555
O33 Tb19 1_555 1_555
O35 Tb8 1_555 1_555
N17 C74 1_555 1_555
C77 C79 1_555 1_555
C77 C80 1_555 1_555
C78 C79 1_555 1_555
O36 Tb22 1_555 1_555
O37 Tb22 1_555 1_555
N20 C87 1_555 1_555
C86 C90 1_555 1_555
C87 C88 1_555 1_555
N22 C96 1_555 1_555
C96 C97 1_555 1_555
O44 Tb19 1_555 1_555
O46 Tb8 1_555 1_555
N23 C102 1_555 1_555
N24 C105 1_555 1_555
C105 C106 1_555 1_555
O48 Tb21 1_555 1_555
Tb12 O61 1_555 1_555
Tb12 O80_2 1_555 1_555
O51_3 Tb9_2 1_555 1_555
Tb9_2 O59_2 1_555 1_555
Tb7 O2_2 1_555 1_555
O1_2 C3_2 1_555 1_555
O2_2 C1_2 1_555 1_555
O3_2 C3_2 1_555 1_555
O4_2 Tb7 1_555 1_555
O5_2 C10_2 1_555 1_555
O6_2 Tb7 1_555 1_555
O7_2 C10_2 1_555 1_555
C1_2 O4_2 1_555 1_555
C2_2 C4_2 1_555 1_555
C3_2 C14_2 1_555 1_555
N1_2 C5_2 1_555 1_555
O8_3 Tb7 1_555 1_555
O9_2 C11_2 1_555 1_555
C4_2 H1_2 1_555 1_555
C5_2 N2_2 1_555 1_555
N2_2 H2_2 1_555 1_555
C6_2 C2_2 1_555 1_555
H3_2 C6_2 1_555 1_555
C7_2 C6_2 1_555 1_555
C8_2 C4_2 1_555 1_555
C9_2 C7_2 1_555 1_555
H4_2 C9_2 1_555 1_555
C10_2 C2_2 1_555 1_555
C11_2 O6_2 1_555 1_555
N3_2 C12_2 1_555 1_555
C12_2 N4_2 1_555 1_555
N4_2 H5_2 1_555 1_555
C13_2 H6_2 1_555 1_555
C14_2 C13_2 1_555 1_555
C15_2 H7_2 1_555 1_555
C16_2 C14_2 1_555 1_555
H8_2 C16_2 1_555 1_555
C17_2 N4_2 1_555 1_555
C18_2 C1_2 1_555 1_555
O10_2 C19_2 1_555 1_555
O11_2 C19_2 1_555 1_555
C19_2 C26_2 1_555 1_555
N5_2 C20_2 1_555 1_555
C20_2 N3_2 1_555 1_555
N6_2 C20_2 1_555 1_555
H9_2 N6_2 1_555 1_555
C21_2 H10_2 1_555 1_555
C22_2 C21_2 1_555 1_555
C23_2 H11_2 1_555 1_555
C24_2 C22_2 1_555 1_555
H12_2 C24_2 1_555 1_555
C25_2 N6_2 1_555 1_555
C26_2 C21_2 1_555 1_555
O12_2 C27_2 1_555 1_555
O13_2 C27_2 1_555 1_555
C27_2 C22_2 1_555 1_555
O61 C28_2 1_555 1_555
O15_2 C28_2 1_555 1_555
C28_2 C35_2 1_555 1_555
N7_2 C12_2 1_555 1_555
C29_2 N5_2 1_555 1_555
N8_2 C29_2 1_555 1_555
H13_2 N8_2 1_555 1_555
C30_2 H14_2 1_555 1_555
C31_2 C30_2 1_555 1_555
C32_2 H15_2 1_555 1_555
C33_2 C31_2 1_555 1_555
H16_2 C33_2 1_555 1_555
C34_2 N8_2 1_555 1_555
C35_2 C30_2 1_555 1_555
O16_2 C36_2 1_555 1_555
O17_2 C36_2 1_555 1_555
C36_2 C31_2 1_555 1_555
O18_2 C44_2 1_555 1_555
C37_2 C38_2 1_555 1_555
N9_2 C39_2 1_555 1_555
O19_2 C44_2 1_555 1_555
C38_2 H17_2 1_555 1_555
C39_2 N1_2 1_555 1_555
N10_2 C39_2 1_555 1_555
H18_2 N10_2 1_555 1_555
C40_2 C37_2 1_555 1_555
H19_2 C40_2 1_555 1_555
C41_2 C40_2 1_555 1_555
C42_2 C38_2 1_555 1_555
C43_2 C41_2 1_555 1_555
H20_2 C43_2 1_555 1_555
C44_2 C41_2 1_555 1_555
O20_2 C45_2 1_555 1_555
O21_2 C45_2 1_555 1_555
C45_2 C37_2 1_555 1_555
O77 C53_2 1_555 1_555
C46_2 C47_2 1_555 1_555
N11_2 C5_2 1_555 1_555
O23_2 C53_2 1_555 1_555
C47_2 H21_2 1_555 1_555
C48_2 N9_2 1_555 1_555
N12_2 C48_2 1_555 1_555
H22_2 N12_2 1_555 1_555
C49_2 C46_2 1_555 1_555
H23_2 C49_2 1_555 1_555
C50_2 C49_2 1_555 1_555
C51_2 C47_2 1_555 1_555
C52_2 C50_2 1_555 1_555
H24_2 C52_2 1_555 1_555
C53_2 C50_2 1_555 1_555
O24_2 C54_2 1_555 1_555
O25_2 C54_2 1_555 1_555
C54_2 C46_2 1_555 1_555
Tb9_2 O18_2 1_555 1_555
O26_2 C56_2 1_555 1_555
O28_2 C56_2 1_555 1_555
O29_2 Tb9_2 1_555 1_555
C55_2 O59_2 1_555 1_555
C56_2 C59_2 1_555 1_555
N13_2 C57_2 1_555 1_555
C57_2 N14_2 1_555 1_555
N14_2 H25_2 1_555 1_555
C58_2 H26_2 1_555 1_555
C59_2 C58_2 1_555 1_555
C60_2 H27_2 1_555 1_555
C61_2 C59_2 1_555 1_555
H28_2 C61_2 1_555 1_555
C62_2 N14_2 1_555 1_555
C63_2 C55_2 1_555 1_555
O62 C64_2 1_555 1_555
O31_2 C64_2 1_555 1_555
C64_2 C71_2 1_555 1_555
N15_2 C65_2 1_555 1_555
C65_2 N13_2 1_555 1_555
N16_2 C65_2 1_555 1_555
H29_2 N16_2 1_555 1_555
C66_2 H30_2 1_555 1_555
C67_2 C66_2 1_555 1_555
C68_2 H31_2 1_555 1_555
C69_2 C67_2 1_555 1_555
H32_2 C69_2 1_555 1_555
C70_2 N16_2 1_555 1_555
C71_2 C66_2 1_555 1_555
O32_2 C72_2 1_555 1_555
O33_2 C72_2 1_555 1_555
C72_2 C67_2 1_555 1_555
O58 C73_2 1_555 1_555
O69 C73_2 1_555 1_555
C73_2 C80_2 1_555 1_555
N17_2 C57_2 1_555 1_555
C74_2 N15_2 1_555 1_555
N18_2 C74_2 1_555 1_555
H33_2 N18_2 1_555 1_555
C75_2 H34_2 1_555 1_555
C76_2 C75_2 1_555 1_555
C77_2 H35_2 1_555 1_555
C78_2 C76_2 1_555 1_555
H36_2 C78_2 1_555 1_555
C79_2 N18_2 1_555 1_555
C80_2 C75_2 1_555 1_555
O36_2 C81_2 1_555 1_555
O37_2 C81_2 1_555 1_555
C81_2 C76_2 1_555 1_555
Tb4_2 O10_2 1_555 1_555
O38_2 C89_2 1_555 1_555
O39_2 Tb4_2 1_555 1_555
O40_2 C89_2 1_555 1_555
C82_2 C83_2 1_555 1_555
N19_2 C84_2 1_555 1_555
O41_2 C90_2 1_555 1_555
C83_2 H37_2 1_555 1_555
C84_2 N20_2 1_555 1_555
N20_2 H38_2 1_555 1_555
C85_2 C82_2 1_555 1_555
H39_2 C85_2 1_555 1_555
C86_2 C85_2 1_555 1_555
C87_2 C83_2 1_555 1_555
C88_2 C86_2 1_555 1_555
H40_2 C88_2 1_555 1_555
C89_2 C82_2 1_555 1_555
C90_2 O39_2 1_555 1_555
O78 C98_2 1_555 1_555
C91_2 C92_2 1_555 1_555
N21_2 C93_2 1_555 1_555
O43_2 C98_2 1_555 1_555
C92_2 H41_2 1_555 1_555
C93_2 N19_2 1_555 1_555
N22_2 C93_2 1_555 1_555
H42_2 N22_2 1_555 1_555
C94_2 C91_2 1_555 1_555
H43_2 C94_2 1_555 1_555
C95_2 C94_2 1_555 1_555
C96_2 C92_2 1_555 1_555
C97_2 C95_2 1_555 1_555
H44_2 C97_2 1_555 1_555
C98_2 C95_2 1_555 1_555
O44_2 C99_2 1_555 1_555
O45_2 C99_2 1_555 1_555
C99_2 C91_2 1_555 1_555
O76 C107_2 1_555 1_555
C100_2 C101_2 1_555 1_555
N23_2 C84_2 1_555 1_555
O47_2 C107_2 1_555 1_555
C101_2 H45_2 1_555 1_555
C102_2 N21_2 1_555 1_555
N24_2 C102_2 1_555 1_555
H46_2 N24_2 1_555 1_555
C103_2 C100_2 1_555 1_555
H47_2 C103_2 1_555 1_555
C104_2 C103_2 1_555 1_555
C105_2 C101_2 1_555 1_555
C106_2 C104_2 1_555 1_555
H48_2 C106_2 1_555 1_555
C107_2 C104_2 1_555 1_555
O48_2 C108_2 1_555 1_555
O49_2 C108_2 1_555 1_555
C108_2 C100_2 1_555 1_555
O51_4 Tb4_2 1_555 1_555
Tb16 O38_2 1_555 1_555
Tb15 O12_2 1_555 1_555
Tb18 O20_2 1_555 1_555
Tb17 O26_2 1_555 1_555
Tb19_2 O32_2 1_555 1_555
Tb20_2 O16_2 1_555 1_555
Tb21_2 O1_2 1_555 1_555
Tb22_2 O5_2 1_555 1_555
O52_2 Tb14 1_555 1_555
O53_2 Tb12 1_555 1_555
O54_2 Tb7 1_555 1_555
O56_2 Tb9_2 1_555 1_555
O57_2 Tb4_2 1_555 1_555
O63_2 Tb14 1_555 1_555
O64_2 Tb12 1_555 1_555
O65_2 Tb7 1_555 1_555
O67_2 Tb9_2 1_555 1_555
O68_2 Tb4_2 1_555 1_555
O3_2 Tb21_2 1_555 1_555
N2_2 C8_2 1_555 1_555
C7_2 C11_2 1_555 1_555
C8_2 C9_2 1_555 1_555
C13_2 C18_2 1_555 1_555
C15_2 C17_2 1_555 1_555
C15_2 C18_2 1_555 1_555
C16_2 C17_2 1_555 1_555
O11_2 Tb4_2 1_555 1_555
C23_2 C25_2 1_555 1_555
C23_2 C26_2 1_555 1_555
C24_2 C25_2 1_555 1_555
O13_2 Tb15 1_555 1_555
O15_2 Tb12 1_555 1_555
N7_2 C29_2 1_555 1_555
C32_2 C34_2 1_555 1_555
C32_2 C35_2 1_555 1_555
C33_2 C34_2 1_555 1_555
O17_2 Tb20_2 1_555 1_555
N10_2 C42_2 1_555 1_555
C42_2 C43_2 1_555 1_555
N11_2 C48_2 1_555 1_555
N12_2 C51_2 1_555 1_555
C51_2 C52_2 1_555 1_555
O24_2 Tb20_2 1_555 1_555
O28_2 Tb17 1_555 1_555
O29_2 C55_2 1_555 1_555
C58_2 C63_2 1_555 1_555
C60_2 C62_2 1_555 1_555
C60_2 C63_2 1_555 1_555
C61_2 C62_2 1_555 1_555
O31_2 Tb14 1_555 1_555
C68_2 C70_2 1_555 1_555
C68_2 C71_2 1_555 1_555
C69_2 C70_2 1_555 1_555
O33_2 Tb19_2 1_555 1_555
N17_2 C74_2 1_555 1_555
C77_2 C79_2 1_555 1_555
C77_2 C80_2 1_555 1_555
C78_2 C79_2 1_555 1_555
O36_2 Tb22_2 1_555 1_555
O37_2 Tb22_2 1_555 1_555
N20_2 C87_2 1_555 1_555
C86_2 C90_2 1_555 1_555
C87_2 C88_2 1_555 1_555
N22_2 C96_2 1_555 1_555
C96_2 C97_2 1_555 1_555
O44_2 Tb19_2 1_555 1_555
N23_2 C102_2 1_555 1_555
N24_2 C105_2 1_555 1_555
C105_2 C106_2 1_555 1_555
O48_2 Tb21_2 1_555 1_555
O55_2 Tb8 1_555 1_555
O66_2 Tb8 1_555 1_555
O8_4 Tb8 1_555 1_555
O72 C89_3 1_555 1_555
O39_3 Tb19_2 1_555 1_555
O40_3 C89_3 1_555 1_555
C82_3 C83_3 1_555 1_555
N19_3 C84_3 1_555 1_555
O41_3 C90_3 1_555 1_555
C83_3 H37_3 1_555 1_555
C84_3 N20_3 1_555 1_555
N20_3 H38_3 1_555 1_555
C85_3 C82_3 1_555 1_555
H39_3 C85_3 1_555 1_555
C86_3 C85_3 1_555 1_555
C87_3 C83_3 1_555 1_555
C88_3 C86_3 1_555 1_555
H40_3 C88_3 1_555 1_555
C89_3 C82_3 1_555 1_555
C90_3 O39_3 1_555 1_555
O42_2 C98_3 1_555 1_555
C91_3 C92_3 1_555 1_555
N21_3 C93_3 1_555 1_555
O43_3 C98_3 1_555 1_555
C92_3 H41_3 1_555 1_555
C93_3 N19_3 1_555 1_555
N22_3 C93_3 1_555 1_555
H42_3 N22_3 1_555 1_555
C94_3 C91_3 1_555 1_555
H43_3 C94_3 1_555 1_555
C95_3 C94_3 1_555 1_555
C96_3 C92_3 1_555 1_555
C97_3 C95_3 1_555 1_555
H44_3 C97_3 1_555 1_555
C98_3 C95_3 1_555 1_555
O75_2 C99_3 1_555 1_555
O45_3 C99_3 1_555 1_555
C99_3 C91_3 1_555 1_555
O46_2 C107_3 1_555 1_555
C100_3 C101_3 1_555 1_555
N23_3 C84_3 1_555 1_555
O47_3 C107_3 1_555 1_555
C101_3 H45_3 1_555 1_555
C102_3 N21_3 1_555 1_555
N24_3 C102_3 1_555 1_555
H46_3 N24_3 1_555 1_555
C103_3 C100_3 1_555 1_555
H47_3 C103_3 1_555 1_555
C104_3 C103_3 1_555 1_555
C105_3 C101_3 1_555 1_555
C106_3 C104_3 1_555 1_555
H48_3 C106_3 1_555 1_555
C107_3 C104_3 1_555 1_555
O71 C108_3 1_555 1_555
O49_3 C108_3 1_555 1_555
C108_3 C100_3 1_555 1_555
O51_5 Tb19_2 1_555 1_555
Tb22_2 O42_2 1_555 1_555
O59_3 Tb19_2 1_555 1_555
N20_3 C87_3 1_555 1_555
C86_3 C90_3 1_555 1_555
C87_3 C88_3 1_555 1_555
N22_3 C96_3 1_555 1_555
C96_3 C97_3 1_555 1_555
O46_2 Tb17 1_555 1_555
N23_3 C102_3 1_555 1_555
N24_3 C105_3 1_555 1_555
C105_3 C106_3 1_555 1_555
O55 C56_3 1_555 1_555
O66 C56_3 1_555 1_555
C55_3 O59_3 1_555 1_555
C56_3 C59_3 1_555 1_555
N13_3 C57_3 1_555 1_555
C57_3 N14_3 1_555 1_555
N14_3 H25_3 1_555 1_555
C58_3 H26_3 1_555 1_555
C59_3 C58_3 1_555 1_555
C60_3 H27_3 1_555 1_555
C61_3 C59_3 1_555 1_555
H28_3 C61_3 1_555 1_555
C62_3 N14_3 1_555 1_555
C63_3 C55_3 1_555 1_555
O30_2 C64_3 1_555 1_555
O31_3 C64_3 1_555 1_555
C64_3 C71_3 1_555 1_555
N15_3 C65_3 1_555 1_555
C65_3 N13_3 1_555 1_555
N16_3 C65_3 1_555 1_555
H29_3 N16_3 1_555 1_555
C66_3 H30_3 1_555 1_555
C67_3 C66_3 1_555 1_555
C68_3 H31_3 1_555 1_555
C69_3 C67_3 1_555 1_555
H32_3 C69_3 1_555 1_555
C70_3 N16_3 1_555 1_555
C71_3 C66_3 1_555 1_555
O57_2 C72_3 1_555 1_555
O68_2 C72_3 1_555 1_555
C72_3 C67_3 1_555 1_555
O34_2 C73_3 1_555 1_555
O35_2 C73_3 1_555 1_555
C73_3 C80_3 1_555 1_555
N17_3 C57_3 1_555 1_555
C74_3 N15_3 1_555 1_555
N18_3 C74_3 1_555 1_555
H33_3 N18_3 1_555 1_555
C75_3 H34_3 1_555 1_555
C76_3 C75_3 1_555 1_555
C77_3 H35_3 1_555 1_555
C78_3 C76_3 1_555 1_555
H36_3 C78_3 1_555 1_555
C79_3 N18_3 1_555 1_555
C80_3 C75_3 1_555 1_555
O53 C81_3 1_555 1_555
O64 C81_3 1_555 1_555
C81_3 C76_3 1_555 1_555
Tb16 O34_2 1_555 1_555
Tb21_2 O30_2 1_555 1_555
O29_3 C55_3 1_555 1_555
C58_3 C63_3 1_555 1_555
C60_3 C62_3 1_555 1_555
C60_3 C63_3 1_555 1_555
C61_3 C62_3 1_555 1_555
C68_3 C70_3 1_555 1_555
C68_3 C71_3 1_555 1_555
C69_3 C70_3 1_555 1_555
N17_3 C74_3 1_555 1_555
C77_3 C79_3 1_555 1_555
C77_3 C80_3 1_555 1_555
C78_3 C79_3 1_555 1_555
Tb21_2 O79_3 1_555 1_555
O62_2 Tb21 1_555 1_555
O77_2 Tb21 1_555 1_555
O79_4 Tb21 1_555 1_555
O52 C3_3 1_555 1_555
O2_3 C1_3 1_555 1_555
O63 C3_3 1_555 1_555
C1_3 O4_3 1_555 1_555
C3_3 C14_3 1_555 1_555
N3_3 C12_3 1_555 1_555
C12_3 N4_3 1_555 1_555
N4_3 H5_3 1_555 1_555
C13_3 H6_3 1_555 1_555
C14_3 C13_3 1_555 1_555
C15_3 H7_3 1_555 1_555
C16_3 C14_3 1_555 1_555
H8_3 C16_3 1_555 1_555
C17_3 N4_3 1_555 1_555
C18_3 C1_3 1_555 1_555
O10_3 C19_3 1_555 1_555
O11_3 C19_3 1_555 1_555
C19_3 C26_3 1_555 1_555
N5_3 C20_3 1_555 1_555
C20_3 N3_3 1_555 1_555
N6_3 C20_3 1_555 1_555
H9_3 N6_3 1_555 1_555
C21_3 H10_3 1_555 1_555
C22_3 C21_3 1_555 1_555
C23_3 H11_3 1_555 1_555
C24_3 C22_3 1_555 1_555
H12_3 C24_3 1_555 1_555
C25_3 N6_3 1_555 1_555
C26_3 C21_3 1_555 1_555
O54_2 C27_3 1_555 1_555
O65_2 C27_3 1_555 1_555
C27_3 C22_3 1_555 1_555
O14_2 C28_3 1_555 1_555
O15_3 C28_3 1_555 1_555
C28_3 C35_3 1_555 1_555
N7_3 C12_3 1_555 1_555
C29_3 N5_3 1_555 1_555
N8_3 C29_3 1_555 1_555
H13_3 N8_3 1_555 1_555
C30_3 H14_3 1_555 1_555
C31_3 C30_3 1_555 1_555
C32_3 H15_3 1_555 1_555
C33_3 C31_3 1_555 1_555
H16_3 C33_3 1_555 1_555
C34_3 N8_3 1_555 1_555
C35_3 C30_3 1_555 1_555
O56_2 C36_3 1_555 1_555
O67_2 C36_3 1_555 1_555
C36_3 C31_3 1_555 1_555
Tb18 O2_3 1_555 1_555
Tb20_2 O10_3 1_555 1_555
Tb22_2 O14_2 1_555 1_555
O76_2 Tb18 1_555 1_555
O8_5 Tb18 1_555 1_555
C13_3 C18_3 1_555 1_555
C15_3 C17_3 1_555 1_555
C15_3 C18_3 1_555 1_555
C16_3 C17_3 1_555 1_555
C23_3 C25_3 1_555 1_555
C23_3 C26_3 1_555 1_555
C24_3 C25_3 1_555 1_555
N7_3 C29_3 1_555 1_555
C32_3 C34_3 1_555 1_555
C32_3 C35_3 1_555 1_555
C33_3 C34_3 1_555 1_555
O51_6 Tb20_2 1_555 1_555
Tb22_2 O80_3 1_555 1_555
O70 C10_3 1_555 1_555
O6_3 Tb15 1_555 1_555
O7_3 C10_3 1_555 1_555
C2_3 C4_3 1_555 1_555
N1_3 C5_3 1_555 1_555
O8_6 Tb15 1_555 1_555
O9_3 C11_3 1_555 1_555
C4_3 H1_3 1_555 1_555
C5_3 N2_3 1_555 1_555
N2_3 H2_3 1_555 1_555
C6_3 C2_3 1_555 1_555
H3_3 C6_3 1_555 1_555
C7_3 C6_3 1_555 1_555
C8_3 C4_3 1_555 1_555
C9_3 C7_3 1_555 1_555
H4_3 C9_3 1_555 1_555
C10_3 C2_3 1_555 1_555
C11_3 O6_3 1_555 1_555
O18_3 C44_3 1_555 1_555
C37_3 C38_3 1_555 1_555
N9_3 C39_3 1_555 1_555
O19_3 C44_3 1_555 1_555
C38_3 H17_3 1_555 1_555
C39_3 N1_3 1_555 1_555
N10_3 C39_3 1_555 1_555
H18_3 N10_3 1_555 1_555
C40_3 C37_3 1_555 1_555
H19_3 C40_3 1_555 1_555
C41_3 C40_3 1_555 1_555
C42_3 C38_3 1_555 1_555
C43_3 C41_3 1_555 1_555
H20_3 C43_3 1_555 1_555
C44_3 C41_3 1_555 1_555
O73_2 C45_3 1_555 1_555
O21_3 C45_3 1_555 1_555
C45_3 C37_3 1_555 1_555
O22_2 C53_3 1_555 1_555
C46_3 C47_3 1_555 1_555
N11_3 C5_3 1_555 1_555
O23_3 C53_3 1_555 1_555
C47_3 H21_3 1_555 1_555
C48_3 N9_3 1_555 1_555
N12_3 C48_3 1_555 1_555
H22_3 N12_3 1_555 1_555
C49_3 C46_3 1_555 1_555
H23_3 C49_3 1_555 1_555
C50_3 C49_3 1_555 1_555
C51_3 C47_3 1_555 1_555
C52_3 C50_3 1_555 1_555
H24_3 C52_3 1_555 1_555
C53_3 C50_3 1_555 1_555
O74_2 C54_3 1_555 1_555
O25_3 C54_3 1_555 1_555
C54_3 C46_3 1_555 1_555
Tb20_2 O18_3 1_555 1_555
Tb21_2 O22_2 1_555 1_555
O58_2 Tb15 1_555 1_555
N2_3 C8_3 1_555 1_555
C7_3 C11_3 1_555 1_555
C8_3 C9_3 1_555 1_555
N10_3 C42_3 1_555 1_555
C42_3 C43_3 1_555 1_555
N11_3 C48_3 1_555 1_555
N12_3 C51_3 1_555 1_555
C51_3 C52_3 1_555 1_555
O61_2 Tb22 1_555 1_555
O78_2 Tb22 1_555 1_555
O80_4 Tb22 1_555 1_555
O52_2 C3_4 1_555 1_555
O2_4 C1_4 1_555 1_555
O63_2 C3_4 1_555 1_555
C1_4 O4_4 1_555 1_555
C3_4 C14_4 1_555 1_555
N3_4 C12_4 1_555 1_555
C12_4 N4_4 1_555 1_555
N4_4 H5_4 1_555 1_555
C13_4 H6_4 1_555 1_555
C14_4 C13_4 1_555 1_555
C15_4 H7_4 1_555 1_555
C16_4 C14_4 1_555 1_555
H8_4 C16_4 1_555 1_555
C17_4 N4_4 1_555 1_555
C18_4 C1_4 1_555 1_555
O10_4 C19_4 1_555 1_555
O11_4 C19_4 1_555 1_555
C19_4 C26_4 1_555 1_555
N5_4 C20_4 1_555 1_555
C20_4 N3_4 1_555 1_555
N6_4 C20_4 1_555 1_555
H9_4 N6_4 1_555 1_555
C21_4 H10_4 1_555 1_555
C22_4 C21_4 1_555 1_555
C23_4 H11_4 1_555 1_555
C24_4 C22_4 1_555 1_555
H12_4 C24_4 1_555 1_555
C25_4 N6_4 1_555 1_555
C26_4 C21_4 1_555 1_555
O54 C27_4 1_555 1_555
O65 C27_4 1_555 1_555
C27_4 C22_4 1_555 1_555
O61_2 C28_4 1_555 1_555
O15_4 C28_4 1_555 1_555
C28_4 C35_4 1_555 1_555
N7_4 C12_4 1_555 1_555
C29_4 N5_4 1_555 1_555
N8_4 C29_4 1_555 1_555
H13_4 N8_4 1_555 1_555
C30_4 H14_4 1_555 1_555
C31_4 C30_4 1_555 1_555
C32_4 H15_4 1_555 1_555
C33_4 C31_4 1_555 1_555
H16_4 C33_4 1_555 1_555
C34_4 N8_4 1_555 1_555
C35_4 C30_4 1_555 1_555
O56 C36_4 1_555 1_555
O67 C36_4 1_555 1_555
C36_4 C31_4 1_555 1_555
Tb17 O2_4 1_555 1_555
Tb20 O10_4 1_555 1_555
O8_7 Tb17 1_555 1_555
C13_4 C18_4 1_555 1_555
C15_4 C17_4 1_555 1_555
C15_4 C18_4 1_555 1_555
C16_4 C17_4 1_555 1_555
C23_4 C25_4 1_555 1_555
C23_4 C26_4 1_555 1_555
C24_4 C25_4 1_555 1_555
N7_4 C29_4 1_555 1_555
C32_4 C34_4 1_555 1_555
C32_4 C35_4 1_555 1_555
C33_4 C34_4 1_555 1_555
O51_7 Tb20 1_555 1_555
O70_2 C10_4 1_555 1_555
O6_4 Tb16 1_555 1_555
O7_4 C10_4 1_555 1_555
C2_4 C4_4 1_555 1_555
N1_4 C5_4 1_555 1_555
O8_8 Tb16 1_555 1_555
O9_4 C11_4 1_555 1_555
C4_4 H1_4 1_555 1_555
C5_4 N2_4 1_555 1_555
N2_4 H2_4 1_555 1_555
C6_4 C2_4 1_555 1_555
H3_4 C6_4 1_555 1_555
C7_4 C6_4 1_555 1_555
C8_4 C4_4 1_555 1_555
C9_4 C7_4 1_555 1_555
H4_4 C9_4 1_555 1_555
C10_4 C2_4 1_555 1_555
C11_4 O6_4 1_555 1_555
O18_4 C44_4 1_555 1_555
C37_4 C38_4 1_555 1_555
N9_4 C39_4 1_555 1_555
O19_4 C44_4 1_555 1_555
C38_4 H17_4 1_555 1_555
C39_4 N1_4 1_555 1_555
N10_4 C39_4 1_555 1_555
H18_4 N10_4 1_555 1_555
C40_4 C37_4 1_555 1_555
H19_4 C40_4 1_555 1_555
C41_4 C40_4 1_555 1_555
C42_4 C38_4 1_555 1_555
C43_4 C41_4 1_555 1_555
H20_4 C43_4 1_555 1_555
C44_4 C41_4 1_555 1_555
O73 C45_4 1_555 1_555
O21_4 C45_4 1_555 1_555
C45_4 C37_4 1_555 1_555
O77_2 C53_4 1_555 1_555
C46_4 C47_4 1_555 1_555
N11_4 C5_4 1_555 1_555
O23_4 C53_4 1_555 1_555
C47_4 H21_4 1_555 1_555
C48_4 N9_4 1_555 1_555
N12_4 C48_4 1_555 1_555
H22_4 N12_4 1_555 1_555
C49_4 C46_4 1_555 1_555
H23_4 C49_4 1_555 1_555
C50_4 C49_4 1_555 1_555
C51_4 C47_4 1_555 1_555
C52_4 C50_4 1_555 1_555
H24_4 C52_4 1_555 1_555
C53_4 C50_4 1_555 1_555
O74 C54_4 1_555 1_555
O25_4 C54_4 1_555 1_555
C54_4 C46_4 1_555 1_555
Tb20 O18_4 1_555 1_555
N2_4 C8_4 1_555 1_555
C7_4 C11_4 1_555 1_555
C8_4 C9_4 1_555 1_555
N10_4 C42_4 1_555 1_555
C42_4 C43_4 1_555 1_555
N11_4 C48_4 1_555 1_555
N12_4 C51_4 1_555 1_555
C51_4 C52_4 1_555 1_555
O72_2 C89_4 1_555 1_555
O39_4 Tb19 1_555 1_555
O40_4 C89_4 1_555 1_555
C82_4 C83_4 1_555 1_555
N19_4 C84_4 1_555 1_555
O41_4 C90_4 1_555 1_555
C83_4 H37_4 1_555 1_555
C84_4 N20_4 1_555 1_555
N20_4 H38_4 1_555 1_555
C85_4 C82_4 1_555 1_555
H39_4 C85_4 1_555 1_555
C86_4 C85_4 1_555 1_555
C87_4 C83_4 1_555 1_555
C88_4 C86_4 1_555 1_555
H40_4 C88_4 1_555 1_555
C89_4 C82_4 1_555 1_555
C90_4 O39_4 1_555 1_555
O78_2 C98_4 1_555 1_555
C91_4 C92_4 1_555 1_555
N21_4 C93_4 1_555 1_555
O43_4 C98_4 1_555 1_555
C92_4 H41_4 1_555 1_555
C93_4 N19_4 1_555 1_555
N22_4 C93_4 1_555 1_555
H42_4 N22_4 1_555 1_555
C94_4 C91_4 1_555 1_555
H43_4 C94_4 1_555 1_555
C95_4 C94_4 1_555 1_555
C96_4 C92_4 1_555 1_555
C97_4 C95_4 1_555 1_555
H44_4 C97_4 1_555 1_555
C98_4 C95_4 1_555 1_555
O75 C99_4 1_555 1_555
O45_4 C99_4 1_555 1_555
C99_4 C91_4 1_555 1_555
O76_2 C107_4 1_555 1_555
C100_4 C101_4 1_555 1_555
N23_4 C84_4 1_555 1_555
O47_4 C107_4 1_555 1_555
C101_4 H45_4 1_555 1_555
C102_4 N21_4 1_555 1_555
N24_4 C102_4 1_555 1_555
H46_4 N24_4 1_555 1_555
C103_4 C100_4 1_555 1_555
H47_4 C103_4 1_555 1_555
C104_4 C103_4 1_555 1_555
C105_4 C101_4 1_555 1_555
C106_4 C104_4 1_555 1_555
H48_4 C106_4 1_555 1_555
C107_4 C104_4 1_555 1_555
O71_2 C108_4 1_555 1_555
O49_4 C108_4 1_555 1_555
C108_4 C100_4 1_555 1_555
O51_8 Tb19 1_555 1_555
O59_4 Tb19 1_555 1_555
N20_4 C87_4 1_555 1_555
C86_4 C90_4 1_555 1_555
C87_4 C88_4 1_555 1_555
N22_4 C96_4 1_555 1_555
C96_4 C97_4 1_555 1_555
N23_4 C102_4 1_555 1_555
N24_4 C105_4 1_555 1_555
C105_4 C106_4 1_555 1_555
O55_2 C56_4 1_555 1_555
O66_2 C56_4 1_555 1_555
C55_4 O59_4 1_555 1_555
C56_4 C59_4 1_555 1_555
N13_4 C57_4 1_555 1_555
C57_4 N14_4 1_555 1_555
N14_4 H25_4 1_555 1_555
C58_4 H26_4 1_555 1_555
C59_4 C58_4 1_555 1_555
C60_4 H27_4 1_555 1_555
C61_4 C59_4 1_555 1_555
H28_4 C61_4 1_555 1_555
C62_4 N14_4 1_555 1_555
C63_4 C55_4 1_555 1_555
O62_2 C64_4 1_555 1_555
O31_4 C64_4 1_555 1_555
C64_4 C71_4 1_555 1_555
N15_4 C65_4 1_555 1_555
C65_4 N13_4 1_555 1_555
N16_4 C65_4 1_555 1_555
H29_4 N16_4 1_555 1_555
C66_4 H30_4 1_555 1_555
C67_4 C66_4 1_555 1_555
C68_4 H31_4 1_555 1_555
C69_4 C67_4 1_555 1_555
H32_4 C69_4 1_555 1_555
C70_4 N16_4 1_555 1_555
C71_4 C66_4 1_555 1_555
O57 C72_4 1_555 1_555
O68 C72_4 1_555 1_555
C72_4 C67_4 1_555 1_555
O58_2 C73_4 1_555 1_555
O69_2 C73_4 1_555 1_555
C73_4 C80_4 1_555 1_555
N17_4 C57_4 1_555 1_555
C74_4 N15_4 1_555 1_555
N18_4 C74_4 1_555 1_555
H33_4 N18_4 1_555 1_555
C75_4 H34_4 1_555 1_555
C76_4 C75_4 1_555 1_555
C77_4 H35_4 1_555 1_555
C78_4 C76_4 1_555 1_555
H36_4 C78_4 1_555 1_555
C79_4 N18_4 1_555 1_555
C80_4 C75_4 1_555 1_555
O53_2 C81_4 1_555 1_555
O64_2 C81_4 1_555 1_555
C81_4 C76_4 1_555 1_555
O29_4 C55_4 1_555 1_555
C58_4 C63_4 1_555 1_555
C60_4 C62_4 1_555 1_555
C60_4 C63_4 1_555 1_555
C61_4 C62_4 1_555 1_555
C68_4 C70_4 1_555 1_555
C68_4 C71_4 1_555 1_555
C69_4 C70_4 1_555 1_555
N17_4 C74_4 1_555 1_555
C77_4 C79_4 1_555 1_555
C77_4 C80_4 1_555 1_555
C78_4 C79_4 1_555 1_555

#END
