
###############################################################################
#
# This file contains modified crystal structure data generated from the
# MOF subset of the Cambridge Structural Database (CSD) v543 
# hosted by the Cambridge Crystallographic Data Centre (CCDC).
#
# This work is licensed under the Creative Commons
# Attribution-NonCommercial-ShareAlike 4.0 International License.
# To view a copy of this license, visit
# http://creativecommons.org/licenses/by-nc-sa/4.0/
# or send a letter to
# Creative Commons, PO Box 1866, Mountain View, CA 94042, USA.
#
# CIF created using the CSD Python API on 29 September 2022
# The structure has been converted into the P1 space group
# The structure has a 3D framework
# The original CSD entry OMOVIX is in the hexagonal crystal system
# The framework has been calculated to contain at least 10.0% void space
# The void calculation uses a probe of radius 1.32A, grid spacing 0.4
# The framework is charged, counterions have been retained in the structure
#
###############################################################################

data_OMOVIX
_chemical_formula_moiety         '(C192 H96 N72 O96 S38 Zn32 8-)n'
_symmetry_cell_setting           triclinic
_symmetry_space_group_name_H-M   'P 1'
_symmetry_Int_Tables_number      1
_space_group_name_Hall           'P 1'
loop_
_symmetry_equiv_pos_site_id
_symmetry_equiv_pos_as_xyz
1 x,y,z
_cell_length_a                   24.7750(16)
_cell_length_b                   24.7750(16)
_cell_length_c                   31.869(2)
_cell_angle_alpha                90
_cell_angle_beta                 90
_cell_angle_gamma                120
_cell_volume                     16940.5
loop_
_atom_site_label
_atom_site_type_symbol
_atom_site_fract_x
_atom_site_fract_y
_atom_site_fract_z
S3 S -0.0000 0.41617(6) 0.7500
C23 C 0.1076(2) 0.4414(3) 0.70730(13)
C24 C 0.04965(18) 0.3935(2) 0.73034(13)
C25 C 0.0277(2) 0.3305(3) 0.7386(2)
H11 H 0.0480 0.3093 0.7299
O13 O 0.14449(16) 0.42186(17) 0.69686(12)
O14 O 0.11613(15) 0.49219(15) 0.70151(9)
Zn10 Zn 0.193523(18) 0.533935(19) 0.669076(12)
S2 S 0.58489(6) 0.24585(6) 0.0000
C12 C 0.5558(2) 0.2149(2) 0.08321(11)
C13 C 0.53909(16) 0.19644(16) 0.03871(10)
C14 C 0.48913(18) 0.14280(18) 0.02171(10)
H6 H 0.4590 0.1105 0.0378
O7 O 0.51815(11) 0.17481(11) 0.10977(7)
O8 O 0.60201(11) 0.26435(12) 0.09088(7)
S4 S 0.75415(6) 0.33904(8) 0.0000
C26 C 0.7851(2) 0.3409(3) 0.08321(11)
C27 C 0.80356(16) 0.34265(23) 0.03871(10)
C28 C 0.85720(18) 0.34633(25) 0.02171(10)
H12 H 0.8895 0.3485 0.0378
O15 O 0.82519(11) 0.34334(16) 0.10977(7)
O16 O 0.73565(12) 0.33766(16) 0.09088(7)
S6 S 0.66096(8) 0.41511(6) 0.0000
C40 C 0.6591(3) 0.4442(2) 0.08321(11)
C41 C 0.65735(23) 0.46091(16) 0.03871(10)
C42 C 0.65367(25) 0.51087(18) 0.02171(10)
H18 H 0.6515 0.5410 0.0378
O23 O 0.65666(16) 0.48185(11) 0.10977(7)
O24 O 0.66234(16) 0.39799(11) 0.09088(7)
C43 C 0.5062(3) 0.2937(2) 0.20272(12)
H19 H 0.4677 0.2672 0.2149
C44 C 0.53686(28) 0.3573(2) 0.20329(12)
H20 H 0.5231 0.3818 0.2163
N10 N 0.58990(21) 0.37832(14) 0.18196(9)
N11 N 0.59180(21) 0.32797(16) 0.16862(8)
N12 N 0.54144(21) 0.27654(14) 0.18161(9)
Zn5 Zn 0.6666 0.3333 0.129557(17)
Zn6 Zn 0.659588(26) 0.466065(19) 0.169076(12)
C45 C 0.7063(2) 0.2125(2) 0.20272(12)
H21 H 0.7328 0.2005 0.2149
C46 C 0.6427(2) 0.17956(19) 0.20329(12)
H22 H 0.6182 0.1413 0.2163
N13 N 0.62168(14) 0.21158(15) 0.18196(9)
N14 N 0.67203(16) 0.26383(14) 0.16862(8)
N15 N 0.72346(14) 0.26490(15) 0.18161(9)
Zn7 Zn 0.533935(19) 0.193523(18) 0.169076(12)
C47 C 0.7875(2) 0.4938(3) 0.20272(12)
H23 H 0.7995 0.5323 0.2149
C48 C 0.82044(19) 0.46314(28) 0.20329(12)
H24 H 0.8587 0.4769 0.2163
N16 N 0.78842(15) 0.41010(21) 0.18196(9)
N17 N 0.73617(14) 0.40820(21) 0.16862(8)
N18 N 0.73510(15) 0.45856(21) 0.18161(9)
Zn8 Zn 0.806477(18) 0.340412(26) 0.169076(12)
O25 O 0.72263(23) 0.57814(17) 0.19686(12)
O26 O 0.42186(17) 0.14449(16) 0.19686(12)
O27 O 0.85551(16) 0.27737(23) 0.19686(12)
O28 O 0.62394(21) 0.50781(15) 0.20151(9)
O29 O 0.49219(15) 0.11613(15) 0.20151(9)
O30 O 0.88387(15) 0.37606(21) 0.20151(9)
C1 C 0.4414(3) 0.1076(2) 0.79270(13)
C2 C 0.3935(2) 0.04965(18) 0.76966(13)
C3 C 0.3305(3) 0.0277(2) 0.7614(2)
H1 H 0.3093 0.0480 0.7701
C4 C 0.5558(2) 0.2149(2) 0.91679(11)
C5 C 0.53909(16) 0.19644(16) 0.96129(10)
C6 C 0.48913(18) 0.14280(18) 0.97829(10)
H2 H 0.4590 0.1105 0.9622
C7 C 0.7063(2) 0.2125(2) 0.79728(12)
H3 H 0.7328 0.2005 0.7851
C8 C 0.6427(2) 0.17956(19) 0.79671(12)
H4 H 0.6182 0.1413 0.7837
N1 N 0.62168(14) 0.21158(15) 0.81804(9)
N2 N 0.67203(16) 0.26383(14) 0.83138(8)
N3 N 0.72346(14) 0.26490(15) 0.81839(9)
O1 O 0.42186(17) 0.14449(16) 0.80314(12)
O2 O 0.49219(15) 0.11613(15) 0.79849(9)
O3 O 0.51815(11) 0.17481(11) 0.89023(7)
O4 O 0.60201(11) 0.26435(12) 0.90912(7)
S1 S 0.41617(6) 0.0000 0.7500
S2_2 S 0.58489(6) 0.24585(6) 1.0000
Zn1 Zn 0.6667 0.3333 0.870443(17)
Zn2 Zn 0.533935(19) 0.193523(18) 0.830924(12)
C15 C 0.8924(2) 0.3338(4) 0.79270(13)
C16 C 0.95035(18) 0.34385(27) 0.76966(13)
C17 C 0.9723(2) 0.3028(4) 0.7614(2)
H7 H 0.9520 0.2613 0.7701
C18 C 0.7851(2) 0.3409(3) 0.91679(11)
C19 C 0.80356(16) 0.34265(23) 0.96129(10)
C20 C 0.85720(18) 0.34633(25) 0.97829(10)
H8 H 0.8895 0.3485 0.9622
C21 C 0.7875(2) 0.4938(3) 0.79728(12)
H9 H 0.7995 0.5323 0.7851
C22 C 0.82044(19) 0.46314(28) 0.79671(12)
H10 H 0.8587 0.4769 0.7837
N4 N 0.78842(15) 0.41010(21) 0.81804(9)
N5 N 0.73617(14) 0.40820(21) 0.83138(8)
N6 N 0.73510(15) 0.45856(21) 0.81839(9)
O9 O 0.85551(16) 0.27737(23) 0.80314(12)
O10 O 0.88387(15) 0.37606(21) 0.79849(9)
O11 O 0.82519(11) 0.34334(16) 0.89023(7)
O12 O 0.73565(12) 0.33766(16) 0.90912(7)
S3_2 S 1.0000 0.41617(6) 0.7500
S4_2 S 0.75415(6) 0.33904(8) 1.0000
Zn3 Zn 0.806477(18) 0.340412(26) 0.830924(12)
C29 C 0.6662(4) 0.5586(3) 0.79270(13)
C30 C 0.65615(27) 0.6065(2) 0.76966(13)
C31 C 0.6972(4) 0.6695(3) 0.7614(2)
H13 H 0.7387 0.6907 0.7701
C32 C 0.6591(3) 0.4442(2) 0.91679(11)
C33 C 0.65735(23) 0.46091(16) 0.96129(10)
C34 C 0.65367(25) 0.51087(18) 0.97829(10)
H14 H 0.6515 0.5410 0.9622
C35 C 0.5062(3) 0.2937(2) 0.79728(12)
H15 H 0.4677 0.2672 0.7851
C36 C 0.53686(28) 0.3573(2) 0.79671(12)
H16 H 0.5231 0.3818 0.7837
N7 N 0.58990(21) 0.37832(14) 0.81804(9)
N8 N 0.59180(21) 0.32797(16) 0.83138(8)
N9 N 0.54144(21) 0.27654(14) 0.81839(9)
O17 O 0.72263(23) 0.57814(17) 0.80314(12)
O18 O 0.62394(21) 0.50781(15) 0.79849(9)
O19 O 0.65666(16) 0.48185(11) 0.89023(7)
O20 O 0.66234(16) 0.39799(11) 0.90912(7)
S5 S 0.58383(6) 0.58383(6) 0.7500
S6_2 S 0.66096(8) 0.41511(6) 1.0000
Zn4 Zn 0.659588(26) 0.466065(19) 0.830924(12)
C37 C 0.5586(3) 0.6662(4) 0.70730(13)
C38 C 0.6065(2) 0.65615(27) 0.73034(13)
C39 C 0.6695(3) 0.6972(4) 0.7386(2)
H17 H 0.6907 0.7387 0.7299
O21 O 0.57814(17) 0.72263(23) 0.69686(12)
O22 O 0.50781(15) 0.62394(21) 0.70151(9)
Zn11 Zn 0.466065(19) 0.659588(26) 0.669076(12)
S1_2 S 0.41617(6) 1.0000 0.7500
C9 C 0.3338(4) 0.8924(2) 0.70730(13)
C10 C 0.34385(27) 0.95035(18) 0.73034(13)
C11 C 0.3028(4) 0.9723(2) 0.7386(2)
H5 H 0.2613 0.9520 0.7299
O5 O 0.27737(23) 0.85551(16) 0.69686(12)
O6 O 0.37606(21) 0.88387(15) 0.70151(9)
Zn9 Zn 0.340412(26) 0.806477(18) 0.669076(12)
C4_2 C 0.3409(3) 0.7851(2) 0.58321(11)
C5_2 C 0.34265(23) 0.80356(16) 0.53871(10)
C6_2 C 0.34633(25) 0.85720(18) 0.52171(10)
H2_2 H 0.3485 0.8895 0.5378
C7_2 C 0.4938(3) 0.7875(2) 0.70272(12)
H3_2 H 0.5323 0.7995 0.7149
C8_2 C 0.46314(28) 0.82044(19) 0.70329(12)
H4_2 H 0.4769 0.8587 0.7163
N1_2 N 0.41010(21) 0.78842(15) 0.68196(9)
N2_2 N 0.40820(21) 0.73617(14) 0.66862(8)
N3_2 N 0.45856(21) 0.73510(15) 0.68161(9)
O3_2 O 0.34334(16) 0.82519(11) 0.60977(7)
O4_2 O 0.33766(16) 0.73565(12) 0.59088(7)
S2_3 S 0.33904(8) 0.75415(6) 0.5000
Zn1_2 Zn 0.3334 0.6667 0.629557(17)
C12_2 C 0.3409(3) 0.7851(2) 0.41679(11)
C13_2 C 0.34265(23) 0.80356(16) 0.46129(10)
C14_2 C 0.34633(25) 0.85720(18) 0.47829(10)
H6_2 H 0.3485 0.8895 0.4622
O7_2 O 0.34334(16) 0.82519(11) 0.39023(7)
O8_2 O 0.33766(16) 0.73565(12) 0.40912(7)
C18_2 C 0.4442(4) 0.6591(3) 0.58321(11)
C19_2 C 0.46091(28) 0.65735(23) 0.53871(10)
C20_2 C 0.51087(31) 0.65367(25) 0.52171(10)
H8_2 H 0.5410 0.6515 0.5378
C21_2 C 0.2937(4) 0.5062(3) 0.70272(12)
H9_2 H 0.2672 0.4677 0.7149
C22_2 C 0.35730(34) 0.53686(28) 0.70329(12)
H10_2 H 0.3818 0.5231 0.7163
N4_2 N 0.37832(26) 0.58990(21) 0.68196(9)
N5_2 N 0.32797(25) 0.59180(21) 0.66862(8)
N6_2 N 0.27654(26) 0.54144(21) 0.68161(9)
O11_2 O 0.48185(19) 0.65666(16) 0.60977(7)
O12_2 O 0.39799(20) 0.66234(16) 0.59088(7)
S4_3 S 0.41511(10) 0.66096(8) 0.5000
C26_2 C 0.4442(4) 0.6591(3) 0.41679(11)
C27_2 C 0.46091(28) 0.65735(23) 0.46129(10)
C28_2 C 0.51087(31) 0.65367(25) 0.47829(10)
H12_2 H 0.5410 0.6515 0.4622
O15_2 O 0.48185(19) 0.65666(16) 0.39023(7)
O16_2 O 0.39799(20) 0.66234(16) 0.40912(7)
C32_2 C 0.2149(4) 0.5558(2) 0.58321(11)
C33_2 C 0.19644(28) 0.53909(16) 0.53871(10)
C34_2 C 0.14280(31) 0.48913(18) 0.52171(10)
H14_2 H 0.1105 0.4590 0.5378
C35_2 C 0.2125(4) 0.7063(2) 0.70272(12)
H15_2 H 0.2005 0.7328 0.7149
C36_2 C 0.17956(34) 0.6427(2) 0.70329(12)
H16_2 H 0.1413 0.6182 0.7163
N7_2 N 0.21158(25) 0.62168(14) 0.68196(9)
N8_2 N 0.26383(26) 0.67203(16) 0.66862(8)
N9_2 N 0.26490(25) 0.72346(14) 0.68161(9)
O19_2 O 0.17481(19) 0.51815(11) 0.60977(7)
O20_2 O 0.26435(19) 0.60201(11) 0.59088(7)
S6_3 S 0.24585(10) 0.58489(6) 0.5000
C40_2 C 0.2149(4) 0.5558(2) 0.41679(11)
C41_2 C 0.19644(28) 0.53909(16) 0.46129(10)
C42_2 C 0.14280(31) 0.48913(18) 0.47829(10)
H18_2 H 0.1105 0.4590 0.4622
O23_2 O 0.17481(19) 0.51815(11) 0.39023(7)
O24_2 O 0.26435(19) 0.60201(11) 0.40912(7)
C43_2 C 0.2125(4) 0.7063(2) 0.29728(12)
H19_2 H 0.2005 0.7328 0.2851
C44_2 C 0.17956(34) 0.6427(2) 0.29671(12)
H20_2 H 0.1413 0.6182 0.2837
N10_2 N 0.21158(25) 0.62168(14) 0.31804(9)
N11_2 N 0.26383(26) 0.67203(16) 0.33138(8)
N12_2 N 0.26490(25) 0.72346(14) 0.31839(9)
Zn5_2 Zn 0.3333 0.6667 0.370443(17)
Zn6_2 Zn 0.193523(32) 0.533935(19) 0.330924(12)
C45_2 C 0.4938(3) 0.7875(2) 0.29728(12)
H21_2 H 0.5323 0.7995 0.2851
C46_2 C 0.46314(28) 0.82044(19) 0.29671(12)
H22_2 H 0.4769 0.8587 0.2837
N13_2 N 0.41010(21) 0.78842(15) 0.31804(9)
N14_2 N 0.40820(21) 0.73617(14) 0.33138(8)
N15_2 N 0.45856(21) 0.73510(15) 0.31839(9)
Zn7_2 Zn 0.340412(26) 0.806477(18) 0.330924(12)
C47_2 C 0.2937(4) 0.5062(3) 0.29728(12)
H23_2 H 0.2672 0.4677 0.2851
C48_2 C 0.35730(34) 0.53686(28) 0.29671(12)
H24_2 H 0.3818 0.5231 0.2837
N16_2 N 0.37832(26) 0.58990(21) 0.31804(9)
N17_2 N 0.32797(25) 0.59180(21) 0.33138(8)
N18_2 N 0.27654(26) 0.54144(21) 0.31839(9)
Zn8_2 Zn 0.466065(32) 0.659588(26) 0.330924(12)
O25_2 O 0.14449(29) 0.42186(17) 0.30314(12)
O26_2 O 0.27737(23) 0.85551(16) 0.30314(12)
O27_2 O 0.57814(28) 0.72263(23) 0.30314(12)
O28_2 O 0.11613(26) 0.49219(15) 0.29849(9)
O29_2 O 0.37606(21) 0.88387(15) 0.29849(9)
O30_2 O 0.50781(26) 0.62394(21) 0.29849(9)
S5_2 S -0.00000(8) 0.41617(6) 0.2500
C37_2 C 0.1076(5) 0.4414(3) 0.29270(13)
C38_2 C 0.04965(34) 0.3935(2) 0.26966(13)
C39_2 C 0.0277(5) 0.3305(3) 0.2614(2)
H17_2 H 0.0480 0.3093 0.2701
C1_2 C 0.6662(4) 0.5586(3) 0.20730(13)
C2_2 C 0.65615(27) 0.6065(2) 0.23034(13)
C3_2 C 0.6972(4) 0.6695(3) 0.2386(2)
H1_2 H 0.7387 0.6907 0.2299
S1_3 S 0.58383(6) 0.58383(6) 0.2500
C9_2 C 0.5586(4) 0.6662(4) 0.29270(13)
C10_2 C 0.60650(32) 0.65615(27) 0.26966(13)
C11_2 C 0.6695(4) 0.6972(4) 0.2614(2)
H5_2 H 0.6907 0.7387 0.2701
C15_2 C 0.4414(4) 0.1076(2) 0.20730(13)
C16_2 C 0.39350(32) 0.04965(18) 0.23034(13)
C17_2 C 0.3305(4) 0.0277(2) 0.2386(2)
H7_2 H 0.3093 0.0480 0.2299
S3_3 S 0.41617(6) 0.0000 0.2500
C29_2 C 0.8924(5) 0.3338(4) 0.20730(13)
C30_2 C 0.95035(34) 0.34385(27) 0.23034(13)
C31_2 C 0.9723(5) 0.3028(4) 0.2386(2)
H13_2 H 0.9520 0.2613 0.2299
S5_3 S 1.00000(8) 0.41617(6) 0.2500
S3_4 S 0.41617(6) 1.0000 0.2500
C23_2 C 0.3338(4) 0.8924(2) 0.29270(13)
C24_2 C 0.34385(27) 0.95035(18) 0.26966(13)
C25_2 C 0.3028(4) 0.9723(2) 0.2614(2)
H11_2 H 0.2613 0.9520 0.2701
S3_5 S 0.58383(6) 0.0000 0.7500
C23_3 C 0.6662(4) 0.1076(2) 0.70730(13)
C24_3 C 0.65615(27) 0.04965(18) 0.73034(13)
C25_3 C 0.6972(4) 0.0277(2) 0.7386(2)
H11_3 H 0.7387 0.0480 0.7299
O13_2 O 0.72263(23) 0.14449(16) 0.69686(12)
O14_2 O 0.62394(21) 0.11613(15) 0.70151(9)
Zn10_2 Zn 0.659588(26) 0.193523(18) 0.669076(12)
S2_4 S 0.33904(8) 0.58489(6) 0.0000
C12_3 C 0.3409(3) 0.5558(2) 0.08321(11)
C13_3 C 0.34265(23) 0.53909(16) 0.03871(10)
C14_3 C 0.34633(25) 0.48913(18) 0.02171(10)
H6_3 H 0.3485 0.4590 0.0378
O7_3 O 0.34334(16) 0.51815(11) 0.10977(7)
O8_3 O 0.33766(16) 0.60201(11) 0.09088(7)
S4_4 S 0.41511(10) 0.75415(6) 0.0000
C26_3 C 0.4442(4) 0.7851(2) 0.08321(11)
C27_3 C 0.46091(28) 0.80356(16) 0.03871(10)
C28_3 C 0.51087(31) 0.85720(18) 0.02171(10)
H12_3 H 0.5410 0.8895 0.0378
O15_3 O 0.48185(19) 0.82519(11) 0.10977(7)
O16_3 O 0.39799(20) 0.73565(12) 0.09088(7)
S6_4 S 0.24585(10) 0.66096(8) 0.0000
C40_3 C 0.2149(4) 0.6591(3) 0.08321(11)
C41_3 C 0.19644(28) 0.65735(23) 0.03871(10)
C42_3 C 0.14280(31) 0.65367(25) 0.02171(10)
H18_3 H 0.1105 0.6515 0.0378
O23_3 O 0.17481(19) 0.65666(16) 0.10977(7)
O24_3 O 0.26435(19) 0.66234(16) 0.09088(7)
C43_3 C 0.2125(4) 0.5062(3) 0.20272(12)
H19_3 H 0.2005 0.4677 0.2149
C44_3 C 0.17956(34) 0.53686(28) 0.20329(12)
H20_3 H 0.1413 0.5231 0.2163
N10_3 N 0.21158(25) 0.58990(21) 0.18196(9)
N11_3 N 0.26383(26) 0.59180(21) 0.16862(8)
N12_3 N 0.26490(25) 0.54144(21) 0.18161(9)
Zn5_3 Zn 0.3333 0.6666 0.129557(17)
Zn6_3 Zn 0.193523(32) 0.659588(26) 0.169076(12)
C45_3 C 0.4938(3) 0.7063(2) 0.20272(12)
H21_3 H 0.5323 0.7328 0.2149
C46_3 C 0.46314(28) 0.6427(2) 0.20329(12)
H22_3 H 0.4769 0.6182 0.2163
N13_3 N 0.41010(21) 0.62168(14) 0.18196(9)
N14_3 N 0.40820(21) 0.67203(16) 0.16862(8)
N15_3 N 0.45856(21) 0.72346(14) 0.18161(9)
Zn7_3 Zn 0.340412(26) 0.533935(19) 0.169076(12)
C47_3 C 0.2937(4) 0.7875(2) 0.20272(12)
H23_3 H 0.2672 0.7995 0.2149
C48_3 C 0.35730(34) 0.82044(19) 0.20329(12)
H24_3 H 0.3818 0.8587 0.2163
N16_3 N 0.37832(26) 0.78842(15) 0.18196(9)
N17_3 N 0.32797(25) 0.73617(14) 0.16862(8)
N18_3 N 0.27654(26) 0.73510(15) 0.18161(9)
Zn8_3 Zn 0.466065(32) 0.806477(18) 0.169076(12)
O25_3 O 0.14449(29) 0.72263(23) 0.19686(12)
O26_3 O 0.27737(23) 0.42186(17) 0.19686(12)
O27_3 O 0.57814(28) 0.85551(16) 0.19686(12)
O28_3 O 0.11613(26) 0.62394(21) 0.20151(9)
O29_3 O 0.37606(21) 0.49219(15) 0.20151(9)
O30_3 O 0.50781(26) 0.88387(15) 0.20151(9)
C1_3 C 0.3338(4) 0.4414(3) 0.79270(13)
C2_3 C 0.34385(27) 0.3935(2) 0.76966(13)
C3_3 C 0.3028(4) 0.3305(3) 0.7614(2)
H1_3 H 0.2613 0.3093 0.7701
C4_3 C 0.3409(3) 0.5558(2) 0.91679(11)
C5_3 C 0.34265(23) 0.53909(16) 0.96129(10)
C6_3 C 0.34633(25) 0.48913(18) 0.97829(10)
H2_3 H 0.3485 0.4590 0.9622
C7_3 C 0.4938(3) 0.7063(2) 0.79728(12)
H3_3 H 0.5323 0.7328 0.7851
C8_3 C 0.46314(28) 0.6427(2) 0.79671(12)
H4_3 H 0.4769 0.6182 0.7837
N1_3 N 0.41010(21) 0.62168(14) 0.81804(9)
N2_3 N 0.40820(21) 0.67203(16) 0.83138(8)
N3_3 N 0.45856(21) 0.72346(14) 0.81839(9)
O1_2 O 0.27737(23) 0.42186(17) 0.80314(12)
O2_2 O 0.37606(21) 0.49219(15) 0.79849(9)
O3_3 O 0.34334(16) 0.51815(11) 0.89023(7)
O4_3 O 0.33766(16) 0.60201(11) 0.90912(7)
S1_4 S 0.41617(6) 0.41617(6) 0.7500
S2_5 S 0.33904(8) 0.58489(6) 1.0000
Zn1_3 Zn 0.3334 0.6667 0.870443(17)
Zn2_2 Zn 0.340412(26) 0.533935(19) 0.830924(12)
C9_3 C 0.4414(4) 0.3338(4) 0.70730(13)
C10_3 C 0.39350(32) 0.34385(27) 0.73034(13)
C11_3 C 0.3305(4) 0.3028(4) 0.7386(2)
H5_3 H 0.3093 0.2613 0.7299
O5_2 O 0.42186(28) 0.27737(23) 0.69686(12)
O6_2 O 0.49219(26) 0.37606(21) 0.70151(9)
C15_3 C 0.5586(4) 0.8924(2) 0.79270(13)
C16_3 C 0.60650(32) 0.95035(18) 0.76966(13)
C17_3 C 0.6695(4) 0.9723(2) 0.7614(2)
H7_3 H 0.6907 0.9520 0.7701
C18_3 C 0.4442(4) 0.7851(2) 0.91679(11)
C19_3 C 0.46091(28) 0.80356(16) 0.96129(10)
C20_3 C 0.51087(31) 0.85720(18) 0.97829(10)
H8_3 H 0.5410 0.8895 0.9622
C21_3 C 0.2937(4) 0.7875(2) 0.79728(12)
H9_3 H 0.2672 0.7995 0.7851
C22_3 C 0.35730(34) 0.82044(19) 0.79671(12)
H10_3 H 0.3818 0.8587 0.7837
N4_3 N 0.37832(26) 0.78842(15) 0.81804(9)
N5_3 N 0.32797(25) 0.73617(14) 0.83138(8)
N6_3 N 0.27654(26) 0.73510(15) 0.81839(9)
O9_2 O 0.57814(28) 0.85551(16) 0.80314(12)
O10_2 O 0.50781(26) 0.88387(15) 0.79849(9)
O11_3 O 0.48185(19) 0.82519(11) 0.89023(7)
O12_3 O 0.39799(20) 0.73565(12) 0.90912(7)
S3_6 S 0.58383(6) 1.0000 0.7500
S4_5 S 0.41511(10) 0.75415(6) 1.0000
Zn3_2 Zn 0.466065(32) 0.806477(18) 0.830924(12)
C29_3 C 0.1076(5) 0.6662(4) 0.79270(13)
C30_3 C 0.04965(34) 0.65615(27) 0.76966(13)
C31_3 C 0.0277(5) 0.6972(4) 0.7614(2)
H13_3 H 0.0480 0.7387 0.7701
C32_3 C 0.2149(4) 0.6591(3) 0.91679(11)
C33_3 C 0.19644(28) 0.65735(23) 0.96129(10)
C34_3 C 0.14280(31) 0.65367(25) 0.97829(10)
H14_3 H 0.1105 0.6515 0.9622
C35_3 C 0.2125(4) 0.5062(3) 0.79728(12)
H15_3 H 0.2005 0.4677 0.7851
C36_3 C 0.17956(34) 0.53686(28) 0.79671(12)
H16_3 H 0.1413 0.5231 0.7837
N7_3 N 0.21158(25) 0.58990(21) 0.81804(9)
N8_3 N 0.26383(26) 0.59180(21) 0.83138(8)
N9_3 N 0.26490(25) 0.54144(21) 0.81839(9)
O17_2 O 0.14449(29) 0.72263(23) 0.80314(12)
O18_2 O 0.11613(26) 0.62394(21) 0.79849(9)
O19_3 O 0.17481(19) 0.65666(16) 0.89023(7)
O20_3 O 0.26435(19) 0.66234(16) 0.90912(7)
S5_4 S 0.00000(8) 0.58383(6) 0.7500
S6_5 S 0.24585(10) 0.66096(8) 1.0000
Zn4_2 Zn 0.193523(32) 0.659588(26) 0.830924(12)
Zn9_2 Zn 0.533935(32) 0.340412(26) 0.669076(12)
S5_5 S 1.00000(8) 0.58383(6) 0.7500
C37_3 C 0.8924(5) 0.5586(3) 0.70730(13)
C38_3 C 0.95035(34) 0.6065(2) 0.73034(13)
C39_3 C 0.9723(5) 0.6695(3) 0.7386(2)
H17_3 H 0.9520 0.6907 0.7299
O21_2 O 0.85551(29) 0.57814(17) 0.69686(12)
O22_2 O 0.88387(26) 0.50781(15) 0.70151(9)
Zn11_2 Zn 0.806477(32) 0.466065(19) 0.669076(12)
C4_4 C 0.7851(2) 0.4442(2) 0.58321(11)
C5_4 C 0.80356(16) 0.46091(16) 0.53871(10)
C6_4 C 0.85720(18) 0.51087(18) 0.52171(10)
H2_4 H 0.8895 0.5410 0.5378
C7_4 C 0.7875(2) 0.2937(2) 0.70272(12)
H3_4 H 0.7995 0.2672 0.7149
C8_4 C 0.82044(19) 0.3573(2) 0.70329(12)
H4_4 H 0.8587 0.3818 0.7163
N1_4 N 0.78842(15) 0.37832(14) 0.68196(9)
N2_4 N 0.73617(14) 0.32797(16) 0.66862(8)
N3_4 N 0.73510(15) 0.27654(14) 0.68161(9)
O3_4 O 0.82519(11) 0.48185(11) 0.60977(7)
O4_4 O 0.73565(12) 0.39799(11) 0.59088(7)
S2_6 S 0.75415(6) 0.41511(6) 0.5000
Zn1_4 Zn 0.6667 0.3333 0.629557(17)
C12_4 C 0.7851(2) 0.4442(2) 0.41679(11)
C13_4 C 0.80356(16) 0.46091(16) 0.46129(10)
C14_4 C 0.85720(18) 0.51087(18) 0.47829(10)
H6_4 H 0.8895 0.5410 0.4622
O7_4 O 0.82519(11) 0.48185(11) 0.39023(7)
O8_4 O 0.73565(12) 0.39799(11) 0.40912(7)
C18_4 C 0.6591(3) 0.2149(2) 0.58321(11)
C19_4 C 0.65735(23) 0.19644(16) 0.53871(10)
C20_4 C 0.65367(25) 0.14280(18) 0.52171(10)
H8_4 H 0.6515 0.1105 0.5378
C21_4 C 0.5062(3) 0.2125(2) 0.70272(12)
H9_4 H 0.4677 0.2005 0.7149
C22_4 C 0.53686(28) 0.17956(19) 0.70329(12)
H10_4 H 0.5231 0.1413 0.7163
N4_4 N 0.58990(21) 0.21158(15) 0.68196(9)
N5_4 N 0.59180(21) 0.26383(14) 0.66862(8)
N6_4 N 0.54144(21) 0.26490(15) 0.68161(9)
O11_4 O 0.65666(16) 0.17481(11) 0.60977(7)
O12_4 O 0.66234(16) 0.26435(12) 0.59088(7)
S4_6 S 0.66096(8) 0.24585(6) 0.5000
C26_4 C 0.6591(3) 0.2149(2) 0.41679(11)
C27_4 C 0.65735(23) 0.19644(16) 0.46129(10)
C28_4 C 0.65367(25) 0.14280(18) 0.47829(10)
H12_4 H 0.6515 0.1105 0.4622
O15_4 O 0.65666(16) 0.17481(11) 0.39023(7)
O16_4 O 0.66234(16) 0.26435(12) 0.40912(7)
C32_4 C 0.5558(2) 0.3409(3) 0.58321(11)
C33_4 C 0.53909(16) 0.34265(23) 0.53871(10)
C34_4 C 0.48913(18) 0.34633(25) 0.52171(10)
H14_4 H 0.4590 0.3485 0.5378
C35_4 C 0.7063(2) 0.4938(3) 0.70272(12)
H15_4 H 0.7328 0.5323 0.7149
C36_4 C 0.6427(2) 0.46314(28) 0.70329(12)
H16_4 H 0.6182 0.4769 0.7163
N7_4 N 0.62168(14) 0.41010(21) 0.68196(9)
N8_4 N 0.67203(16) 0.40820(21) 0.66862(8)
N9_4 N 0.72346(14) 0.45856(21) 0.68161(9)
O19_4 O 0.51815(11) 0.34334(16) 0.60977(7)
O20_4 O 0.60201(11) 0.33766(16) 0.59088(7)
S6_6 S 0.58489(6) 0.33904(8) 0.5000
C40_4 C 0.5558(2) 0.3409(3) 0.41679(11)
C41_4 C 0.53909(16) 0.34265(23) 0.46129(10)
C42_4 C 0.48913(18) 0.34633(25) 0.47829(10)
H18_4 H 0.4590 0.3485 0.4622
O23_4 O 0.51815(11) 0.34334(16) 0.39023(7)
O24_4 O 0.60201(11) 0.33766(16) 0.40912(7)
C43_4 C 0.7063(2) 0.4938(3) 0.29728(12)
H19_4 H 0.7328 0.5323 0.2851
C44_4 C 0.6427(2) 0.46314(28) 0.29671(12)
H20_4 H 0.6182 0.4769 0.2837
N10_4 N 0.62168(14) 0.41010(21) 0.31804(9)
N11_4 N 0.67203(16) 0.40820(21) 0.33138(8)
N12_4 N 0.72346(14) 0.45856(21) 0.31839(9)
Zn5_4 Zn 0.6667 0.3334 0.370443(17)
Zn6_4 Zn 0.533935(19) 0.340412(26) 0.330924(12)
C45_4 C 0.7875(2) 0.2937(2) 0.29728(12)
H21_4 H 0.7995 0.2672 0.2851
C46_4 C 0.82044(19) 0.3573(2) 0.29671(12)
H22_4 H 0.8587 0.3818 0.2837
N13_4 N 0.78842(15) 0.37832(14) 0.31804(9)
N14_4 N 0.73617(14) 0.32797(16) 0.33138(8)
N15_4 N 0.73510(15) 0.27654(14) 0.31839(9)
Zn7_4 Zn 0.806477(18) 0.466065(19) 0.330924(12)
C47_4 C 0.5062(3) 0.2125(2) 0.29728(12)
H23_4 H 0.4677 0.2005 0.2851
C48_4 C 0.53686(28) 0.17956(19) 0.29671(12)
H24_4 H 0.5231 0.1413 0.2837
N16_4 N 0.58990(21) 0.21158(15) 0.31804(9)
N17_4 N 0.59180(21) 0.26383(14) 0.33138(8)
N18_4 N 0.54144(21) 0.26490(15) 0.31839(9)
Zn8_4 Zn 0.659588(26) 0.193523(18) 0.330924(12)
O25_4 O 0.42186(17) 0.27737(23) 0.30314(12)
O26_4 O 0.85551(16) 0.57814(17) 0.30314(12)
O27_4 O 0.72263(23) 0.14449(16) 0.30314(12)
O28_4 O 0.49219(15) 0.37606(21) 0.29849(9)
O29_4 O 0.88387(15) 0.50781(15) 0.29849(9)
O30_4 O 0.62394(21) 0.11613(15) 0.29849(9)
S1_5 S 0.58383(6) 0.0000 0.2500
C9_4 C 0.6662(4) 0.1076(2) 0.29270(13)
C10_4 C 0.65615(27) 0.04965(18) 0.26966(13)
C11_4 C 0.6972(4) 0.0277(2) 0.2614(2)
H5_4 H 0.7387 0.0480 0.2701
C1_4 C 0.5586(3) 0.8924(2) 0.20730(13)
C2_4 C 0.6065(2) 0.95035(18) 0.23034(13)
C3_4 C 0.6695(3) 0.9723(2) 0.2386(2)
H1_4 H 0.6907 0.9520 0.2299
S1_6 S 0.58383(6) 1.0000 0.2500
C15_4 C 0.1076(2) 0.6662(4) 0.20730(13)
C16_4 C 0.04965(18) 0.65615(27) 0.23034(13)
C17_4 C 0.0277(2) 0.6972(4) 0.2386(2)
H7_4 H 0.0480 0.7387 0.2299
S3_7 S -0.0000 0.58383(6) 0.2500
C29_4 C 0.3338(4) 0.4414(3) 0.20730(13)
C30_4 C 0.34385(27) 0.3935(2) 0.23034(13)
C31_4 C 0.3028(4) 0.3305(3) 0.2386(2)
H13_4 H 0.2613 0.3093 0.2299
S5_6 S 0.41617(6) 0.41617(6) 0.2500
C37_4 C 0.4414(3) 0.3338(4) 0.29270(13)
C38_4 C 0.3935(2) 0.34385(27) 0.26966(13)
C39_4 C 0.3305(3) 0.3028(4) 0.2614(2)
H17_4 H 0.3093 0.2613 0.2701
S3_8 S 1.0000 0.58383(6) 0.2500
C23_4 C 0.8924(2) 0.5586(3) 0.29270(13)
C24_4 C 0.95035(18) 0.6065(2) 0.26966(13)
C25_4 C 0.9723(2) 0.6695(3) 0.2614(2)
H11_4 H 0.9520 0.6907 0.2701
loop_
_geom_bond_atom_site_label_1
_geom_bond_atom_site_label_2
_geom_bond_site_symmetry_1
_geom_bond_site_symmetry_2
C23 C24 1_555 1_555
C24 S3 1_555 1_555
H11 C25 1_555 1_555
O13 C23 1_555 1_555
O14 C23 1_555 1_555
Zn10 O13 1_555 1_555
C24 C25 1_555 1_555
O14 Zn10 1_555 1_555
C12 C13 1_555 1_555
C13 S2 1_555 1_555
H6 C14 1_555 1_555
O7 C12 1_555 1_555
O8 C12 1_555 1_555
C26 C27 1_555 1_555
C27 S4 1_555 1_555
H12 C28 1_555 1_555
O15 C26 1_555 1_555
O16 C26 1_555 1_555
C40 C41 1_555 1_555
C41 S6 1_555 1_555
H18 C42 1_555 1_555
O23 C40 1_555 1_555
O24 C40 1_555 1_555
C43 H19 1_555 1_555
C44 C43 1_555 1_555
H20 C44 1_555 1_555
N10 C44 1_555 1_555
N11 N10 1_555 1_555
N12 C43 1_555 1_555
Zn5 O8 1_555 1_555
Zn6 O23 1_555 1_555
C45 H21 1_555 1_555
C46 C45 1_555 1_555
H22 C46 1_555 1_555
N13 C46 1_555 1_555
N14 Zn5 1_555 1_555
N15 C45 1_555 1_555
Zn7 O7 1_555 1_555
C47 H23 1_555 1_555
C48 C47 1_555 1_555
H24 C48 1_555 1_555
N16 C48 1_555 1_555
N17 Zn5 1_555 1_555
N18 Zn6 1_555 1_555
Zn8 O15 1_555 1_555
O25 Zn6 1_555 1_555
O26 Zn7 1_555 1_555
O27 Zn8 1_555 1_555
O28 Zn6 1_555 1_555
O29 Zn7 1_555 1_555
O30 Zn8 1_555 1_555
C13 C14 1_555 1_555
C27 C28 1_555 1_555
O16 Zn5 1_555 1_555
C41 C42 1_555 1_555
O24 Zn5 1_555 1_555
N10 Zn6 1_555 1_555
N11 N12 1_555 1_555
N11 Zn5 1_555 1_555
N12 Zn7 1_555 1_555
N13 N14 1_555 1_555
N13 Zn7 1_555 1_555
N14 N15 1_555 1_555
N15 Zn8 1_555 1_555
C47 N18 1_555 1_555
N16 N17 1_555 1_555
N16 Zn8 1_555 1_555
N17 N18 1_555 1_555
C1 C2 1_555 1_555
C2 C3 1_555 1_555
C3 H1 1_555 1_555
C4 C5 1_555 1_555
C5 C6 1_555 1_555
C6 H2 1_555 1_555
C7 H3 1_555 1_555
C8 C7 1_555 1_555
H4 C8 1_555 1_555
N1 C8 1_555 1_555
N2 N1 1_555 1_555
N3 C7 1_555 1_555
O1 C1 1_555 1_555
O2 C1 1_555 1_555
O3 C4 1_555 1_555
O4 C4 1_555 1_555
S1 C2 1_555 1_555
S2_2 C5 1_555 1_555
Zn1 N2 1_555 1_555
Zn2 N1 1_555 1_555
C15 C16 1_555 1_555
C16 C17 1_555 1_555
C17 H7 1_555 1_555
C18 C19 1_555 1_555
C19 C20 1_555 1_555
C20 H8 1_555 1_555
C21 H9 1_555 1_555
C22 C21 1_555 1_555
H10 C22 1_555 1_555
N4 C22 1_555 1_555
N5 Zn1 1_555 1_555
N6 C21 1_555 1_555
O9 C15 1_555 1_555
O10 C15 1_555 1_555
O11 C18 1_555 1_555
O12 Zn1 1_555 1_555
S3_2 C16 1_555 1_555
S4_2 C19 1_555 1_555
Zn3 N3 1_555 1_555
C29 C30 1_555 1_555
C30 C31 1_555 1_555
C31 H13 1_555 1_555
C32 C33 1_555 1_555
C33 C34 1_555 1_555
C34 H14 1_555 1_555
C35 H15 1_555 1_555
C36 C35 1_555 1_555
H16 C36 1_555 1_555
N7 C36 1_555 1_555
N8 Zn1 1_555 1_555
N9 Zn2 1_555 1_555
O17 C29 1_555 1_555
O18 C29 1_555 1_555
O19 C32 1_555 1_555
O20 Zn1 1_555 1_555
S5 C30 1_555 1_555
S6_2 C33 1_555 1_555
Zn4 N6 1_555 1_555
C37 C38 1_555 1_555
C38 S5 1_555 1_555
C39 C31 1_555 1_555
H17 C39 1_555 1_555
O21 C37 1_555 1_555
O22 C37 1_555 1_555
Zn11 O21 1_555 1_555
N2 N3 1_555 1_555
O1 Zn2 1_555 1_555
O2 Zn2 1_555 1_555
O3 Zn2 1_555 1_555
O4 Zn1 1_555 1_555
C18 O12 1_555 1_555
N4 N5 1_555 1_555
N4 Zn3 1_555 1_555
N5 N6 1_555 1_555
O9 Zn3 1_555 1_555
O10 Zn3 1_555 1_555
O11 Zn3 1_555 1_555
C32 O20 1_555 1_555
C35 N9 1_555 1_555
N7 N8 1_555 1_555
N7 Zn4 1_555 1_555
N8 N9 1_555 1_555
O17 Zn4 1_555 1_555
O18 Zn4 1_555 1_555
O19 Zn4 1_555 1_555
C38 C39 1_555 1_555
O22 Zn11 1_555 1_555
C9 C10 1_555 1_555
C10 S1_2 1_555 1_555
H5 C11 1_555 1_555
O5 C9 1_555 1_555
O6 C9 1_555 1_555
Zn9 O5 1_555 1_555
C10 C11 1_555 1_555
O6 Zn9 1_555 1_555
C4_2 C5_2 1_555 1_555
C5_2 C6_2 1_555 1_555
C6_2 H2_2 1_555 1_555
C7_2 H3_2 1_555 1_555
C8_2 C7_2 1_555 1_555
H4_2 C8_2 1_555 1_555
N1_2 C8_2 1_555 1_555
N2_2 N1_2 1_555 1_555
N3_2 C7_2 1_555 1_555
O3_2 C4_2 1_555 1_555
O4_2 C4_2 1_555 1_555
S2_3 C5_2 1_555 1_555
Zn1_2 N2_2 1_555 1_555
Zn9 N1_2 1_555 1_555
C12_2 C13_2 1_555 1_555
C13_2 S2_3 1_555 1_555
C14_2 C6_2 1_555 1_555
H6_2 C14_2 1_555 1_555
O7_2 C12_2 1_555 1_555
O8_2 C12_2 1_555 1_555
C18_2 C19_2 1_555 1_555
C19_2 C20_2 1_555 1_555
C20_2 H8_2 1_555 1_555
C21_2 H9_2 1_555 1_555
C22_2 C21_2 1_555 1_555
H10_2 C22_2 1_555 1_555
N4_2 C22_2 1_555 1_555
N5_2 Zn1_2 1_555 1_555
N6_2 C21_2 1_555 1_555
O11_2 C18_2 1_555 1_555
O12_2 Zn1_2 1_555 1_555
S4_3 C19_2 1_555 1_555
Zn11 N3_2 1_555 1_555
C26_2 C27_2 1_555 1_555
C27_2 S4_3 1_555 1_555
C28_2 C20_2 1_555 1_555
H12_2 C28_2 1_555 1_555
O15_2 C26_2 1_555 1_555
O16_2 C26_2 1_555 1_555
C32_2 C33_2 1_555 1_555
C33_2 C34_2 1_555 1_555
C34_2 H14_2 1_555 1_555
C35_2 H15_2 1_555 1_555
C36_2 C35_2 1_555 1_555
H16_2 C36_2 1_555 1_555
N7_2 C36_2 1_555 1_555
N8_2 Zn1_2 1_555 1_555
N9_2 Zn9 1_555 1_555
O19_2 C32_2 1_555 1_555
O20_2 Zn1_2 1_555 1_555
S6_3 C33_2 1_555 1_555
Zn10 N6_2 1_555 1_555
C40_2 C41_2 1_555 1_555
C41_2 S6_3 1_555 1_555
C42_2 C34_2 1_555 1_555
H18_2 C42_2 1_555 1_555
O23_2 C40_2 1_555 1_555
O24_2 C40_2 1_555 1_555
C43_2 H19_2 1_555 1_555
C44_2 C43_2 1_555 1_555
H20_2 C44_2 1_555 1_555
N10_2 C44_2 1_555 1_555
N11_2 N10_2 1_555 1_555
N12_2 C43_2 1_555 1_555
Zn5_2 O8_2 1_555 1_555
Zn6_2 O23_2 1_555 1_555
C45_2 H21_2 1_555 1_555
C46_2 C45_2 1_555 1_555
H22_2 C46_2 1_555 1_555
N13_2 C46_2 1_555 1_555
N14_2 Zn5_2 1_555 1_555
N15_2 C45_2 1_555 1_555
Zn7_2 O7_2 1_555 1_555
C47_2 H23_2 1_555 1_555
C48_2 C47_2 1_555 1_555
H24_2 C48_2 1_555 1_555
N16_2 C48_2 1_555 1_555
N17_2 Zn5_2 1_555 1_555
N18_2 Zn6_2 1_555 1_555
Zn8_2 O15_2 1_555 1_555
O25_2 Zn6_2 1_555 1_555
O26_2 Zn7_2 1_555 1_555
O27_2 Zn8_2 1_555 1_555
O28_2 Zn6_2 1_555 1_555
O29_2 Zn7_2 1_555 1_555
O30_2 Zn8_2 1_555 1_555
N2_2 N3_2 1_555 1_555
O3_2 Zn9 1_555 1_555
O4_2 Zn1_2 1_555 1_555
C13_2 C14_2 1_555 1_555
C18_2 O12_2 1_555 1_555
N4_2 N5_2 1_555 1_555
N4_2 Zn11 1_555 1_555
N5_2 N6_2 1_555 1_555
O11_2 Zn11 1_555 1_555
C27_2 C28_2 1_555 1_555
O16_2 Zn5_2 1_555 1_555
C32_2 O20_2 1_555 1_555
C35_2 N9_2 1_555 1_555
N7_2 N8_2 1_555 1_555
N7_2 Zn10 1_555 1_555
N8_2 N9_2 1_555 1_555
O19_2 Zn10 1_555 1_555
C41_2 C42_2 1_555 1_555
O24_2 Zn5_2 1_555 1_555
N10_2 Zn6_2 1_555 1_555
N11_2 N12_2 1_555 1_555
N11_2 Zn5_2 1_555 1_555
N12_2 Zn7_2 1_555 1_555
N13_2 N14_2 1_555 1_555
N13_2 Zn7_2 1_555 1_555
N14_2 N15_2 1_555 1_555
N15_2 Zn8_2 1_555 1_555
C47_2 N18_2 1_555 1_555
N16_2 N17_2 1_555 1_555
N16_2 Zn8_2 1_555 1_555
N17_2 N18_2 1_555 1_555
C37_2 C38_2 1_555 1_555
C38_2 S5_2 1_555 1_555
H17_2 C39_2 1_555 1_555
O25_2 C37_2 1_555 1_555
O28_2 C37_2 1_555 1_555
C38_2 C39_2 1_555 1_555
C1_2 C2_2 1_555 1_555
C2_2 C3_2 1_555 1_555
C3_2 H1_2 1_555 1_555
O25 C1_2 1_555 1_555
O28 C1_2 1_555 1_555
S1_3 C2_2 1_555 1_555
C9_2 C10_2 1_555 1_555
C10_2 S1_3 1_555 1_555
C11_2 C3_2 1_555 1_555
H5_2 C11_2 1_555 1_555
O27_2 C9_2 1_555 1_555
O30_2 C9_2 1_555 1_555
C15_2 C16_2 1_555 1_555
C16_2 C17_2 1_555 1_555
C17_2 H7_2 1_555 1_555
O26 C15_2 1_555 1_555
O29 C15_2 1_555 1_555
S3_3 C16_2 1_555 1_555
C29_2 C30_2 1_555 1_555
C30_2 C31_2 1_555 1_555
C31_2 H13_2 1_555 1_555
O27 C29_2 1_555 1_555
O30 C29_2 1_555 1_555
S5_3 C30_2 1_555 1_555
C10_2 C11_2 1_555 1_555
C23_2 C24_2 1_555 1_555
C24_2 S3_4 1_555 1_555
H11_2 C25_2 1_555 1_555
O26_2 C23_2 1_555 1_555
O29_2 C23_2 1_555 1_555
C24_2 C25_2 1_555 1_555
C23_3 C24_3 1_555 1_555
C24_3 S3_5 1_555 1_555
H11_3 C25_3 1_555 1_555
O13_2 C23_3 1_555 1_555
O14_2 C23_3 1_555 1_555
Zn10_2 O13_2 1_555 1_555
C24_3 C25_3 1_555 1_555
O14_2 Zn10_2 1_555 1_555
C12_3 C13_3 1_555 1_555
C13_3 S2_4 1_555 1_555
H6_3 C14_3 1_555 1_555
O7_3 C12_3 1_555 1_555
O8_3 C12_3 1_555 1_555
C26_3 C27_3 1_555 1_555
C27_3 S4_4 1_555 1_555
H12_3 C28_3 1_555 1_555
O15_3 C26_3 1_555 1_555
O16_3 C26_3 1_555 1_555
C40_3 C41_3 1_555 1_555
C41_3 S6_4 1_555 1_555
H18_3 C42_3 1_555 1_555
O23_3 C40_3 1_555 1_555
O24_3 C40_3 1_555 1_555
C43_3 H19_3 1_555 1_555
C44_3 C43_3 1_555 1_555
H20_3 C44_3 1_555 1_555
N10_3 C44_3 1_555 1_555
N11_3 N10_3 1_555 1_555
N12_3 C43_3 1_555 1_555
Zn5_3 O8_3 1_555 1_555
Zn6_3 O23_3 1_555 1_555
C45_3 H21_3 1_555 1_555
C46_3 C45_3 1_555 1_555
H22_3 C46_3 1_555 1_555
N13_3 C46_3 1_555 1_555
N14_3 Zn5_3 1_555 1_555
N15_3 C45_3 1_555 1_555
Zn7_3 O7_3 1_555 1_555
C47_3 H23_3 1_555 1_555
C48_3 C47_3 1_555 1_555
H24_3 C48_3 1_555 1_555
N16_3 C48_3 1_555 1_555
N17_3 Zn5_3 1_555 1_555
N18_3 Zn6_3 1_555 1_555
Zn8_3 O15_3 1_555 1_555
O25_3 Zn6_3 1_555 1_555
O26_3 Zn7_3 1_555 1_555
O27_3 Zn8_3 1_555 1_555
O28_3 Zn6_3 1_555 1_555
O29_3 Zn7_3 1_555 1_555
O30_3 Zn8_3 1_555 1_555
C13_3 C14_3 1_555 1_555
C27_3 C28_3 1_555 1_555
O16_3 Zn5_3 1_555 1_555
C41_3 C42_3 1_555 1_555
O24_3 Zn5_3 1_555 1_555
N10_3 Zn6_3 1_555 1_555
N11_3 N12_3 1_555 1_555
N11_3 Zn5_3 1_555 1_555
N12_3 Zn7_3 1_555 1_555
N13_3 N14_3 1_555 1_555
N13_3 Zn7_3 1_555 1_555
N14_3 N15_3 1_555 1_555
N15_3 Zn8_3 1_555 1_555
C47_3 N18_3 1_555 1_555
N16_3 N17_3 1_555 1_555
N16_3 Zn8_3 1_555 1_555
N17_3 N18_3 1_555 1_555
C1_3 C2_3 1_555 1_555
C2_3 C3_3 1_555 1_555
C3_3 H1_3 1_555 1_555
C4_3 C5_3 1_555 1_555
C5_3 C6_3 1_555 1_555
C6_3 H2_3 1_555 1_555
C7_3 H3_3 1_555 1_555
C8_3 C7_3 1_555 1_555
H4_3 C8_3 1_555 1_555
N1_3 C8_3 1_555 1_555
N2_3 N1_3 1_555 1_555
N3_3 C7_3 1_555 1_555
O1_2 C1_3 1_555 1_555
O2_2 C1_3 1_555 1_555
O3_3 C4_3 1_555 1_555
O4_3 C4_3 1_555 1_555
S1_4 C2_3 1_555 1_555
S2_5 C5_3 1_555 1_555
Zn1_3 N2_3 1_555 1_555
Zn2_2 N1_3 1_555 1_555
C9_3 C10_3 1_555 1_555
C10_3 S1_4 1_555 1_555
C11_3 C3_3 1_555 1_555
H5_3 C11_3 1_555 1_555
O5_2 C9_3 1_555 1_555
O6_2 C9_3 1_555 1_555
C15_3 C16_3 1_555 1_555
C16_3 C17_3 1_555 1_555
C17_3 H7_3 1_555 1_555
C18_3 C19_3 1_555 1_555
C19_3 C20_3 1_555 1_555
C20_3 H8_3 1_555 1_555
C21_3 H9_3 1_555 1_555
C22_3 C21_3 1_555 1_555
H10_3 C22_3 1_555 1_555
N4_3 C22_3 1_555 1_555
N5_3 Zn1_3 1_555 1_555
N6_3 C21_3 1_555 1_555
O9_2 C15_3 1_555 1_555
O10_2 C15_3 1_555 1_555
O11_3 C18_3 1_555 1_555
O12_3 Zn1_3 1_555 1_555
S3_6 C16_3 1_555 1_555
S4_5 C19_3 1_555 1_555
Zn3_2 N3_3 1_555 1_555
C29_3 C30_3 1_555 1_555
C30_3 C31_3 1_555 1_555
C31_3 H13_3 1_555 1_555
C32_3 C33_3 1_555 1_555
C33_3 C34_3 1_555 1_555
C34_3 H14_3 1_555 1_555
C35_3 H15_3 1_555 1_555
C36_3 C35_3 1_555 1_555
H16_3 C36_3 1_555 1_555
N7_3 C36_3 1_555 1_555
N8_3 Zn1_3 1_555 1_555
N9_3 Zn2_2 1_555 1_555
O17_2 C29_3 1_555 1_555
O18_2 C29_3 1_555 1_555
O19_3 C32_3 1_555 1_555
O20_3 Zn1_3 1_555 1_555
S5_4 C30_3 1_555 1_555
S6_5 C33_3 1_555 1_555
Zn4_2 N6_3 1_555 1_555
Zn9_2 O5_2 1_555 1_555
N2_3 N3_3 1_555 1_555
O1_2 Zn2_2 1_555 1_555
O2_2 Zn2_2 1_555 1_555
O3_3 Zn2_2 1_555 1_555
O4_3 Zn1_3 1_555 1_555
C10_3 C11_3 1_555 1_555
O6_2 Zn9_2 1_555 1_555
C18_3 O12_3 1_555 1_555
N4_3 N5_3 1_555 1_555
N4_3 Zn3_2 1_555 1_555
N5_3 N6_3 1_555 1_555
O9_2 Zn3_2 1_555 1_555
O10_2 Zn3_2 1_555 1_555
O11_3 Zn3_2 1_555 1_555
C32_3 O20_3 1_555 1_555
C35_3 N9_3 1_555 1_555
N7_3 N8_3 1_555 1_555
N7_3 Zn4_2 1_555 1_555
N8_3 N9_3 1_555 1_555
O17_2 Zn4_2 1_555 1_555
O18_2 Zn4_2 1_555 1_555
O19_3 Zn4_2 1_555 1_555
C37_3 C38_3 1_555 1_555
C38_3 S5_5 1_555 1_555
H17_3 C39_3 1_555 1_555
O21_2 C37_3 1_555 1_555
O22_2 C37_3 1_555 1_555
Zn11_2 O21_2 1_555 1_555
C38_3 C39_3 1_555 1_555
O22_2 Zn11_2 1_555 1_555
C4_4 C5_4 1_555 1_555
C5_4 C6_4 1_555 1_555
C6_4 H2_4 1_555 1_555
C7_4 H3_4 1_555 1_555
C8_4 C7_4 1_555 1_555
H4_4 C8_4 1_555 1_555
N1_4 C8_4 1_555 1_555
N2_4 N1_4 1_555 1_555
N3_4 C7_4 1_555 1_555
O3_4 C4_4 1_555 1_555
O4_4 C4_4 1_555 1_555
S2_6 C5_4 1_555 1_555
Zn1_4 N2_4 1_555 1_555
Zn11_2 N1_4 1_555 1_555
C12_4 C13_4 1_555 1_555
C13_4 S2_6 1_555 1_555
C14_4 C6_4 1_555 1_555
H6_4 C14_4 1_555 1_555
O7_4 C12_4 1_555 1_555
O8_4 C12_4 1_555 1_555
C18_4 C19_4 1_555 1_555
C19_4 C20_4 1_555 1_555
C20_4 H8_4 1_555 1_555
C21_4 H9_4 1_555 1_555
C22_4 C21_4 1_555 1_555
H10_4 C22_4 1_555 1_555
N4_4 C22_4 1_555 1_555
N5_4 Zn1_4 1_555 1_555
N6_4 C21_4 1_555 1_555
O11_4 C18_4 1_555 1_555
O12_4 Zn1_4 1_555 1_555
S4_6 C19_4 1_555 1_555
Zn10_2 N3_4 1_555 1_555
C26_4 C27_4 1_555 1_555
C27_4 S4_6 1_555 1_555
C28_4 C20_4 1_555 1_555
H12_4 C28_4 1_555 1_555
O15_4 C26_4 1_555 1_555
O16_4 C26_4 1_555 1_555
C32_4 C33_4 1_555 1_555
C33_4 C34_4 1_555 1_555
C34_4 H14_4 1_555 1_555
C35_4 H15_4 1_555 1_555
C36_4 C35_4 1_555 1_555
H16_4 C36_4 1_555 1_555
N7_4 C36_4 1_555 1_555
N8_4 Zn1_4 1_555 1_555
N9_4 Zn11_2 1_555 1_555
O19_4 C32_4 1_555 1_555
O20_4 Zn1_4 1_555 1_555
S6_6 C33_4 1_555 1_555
Zn9_2 N6_4 1_555 1_555
C40_4 C41_4 1_555 1_555
C41_4 S6_6 1_555 1_555
C42_4 C34_4 1_555 1_555
H18_4 C42_4 1_555 1_555
O23_4 C40_4 1_555 1_555
O24_4 C40_4 1_555 1_555
C43_4 H19_4 1_555 1_555
C44_4 C43_4 1_555 1_555
H20_4 C44_4 1_555 1_555
N10_4 C44_4 1_555 1_555
N11_4 N10_4 1_555 1_555
N12_4 C43_4 1_555 1_555
Zn5_4 O8_4 1_555 1_555
Zn6_4 O23_4 1_555 1_555
C45_4 H21_4 1_555 1_555
C46_4 C45_4 1_555 1_555
H22_4 C46_4 1_555 1_555
N13_4 C46_4 1_555 1_555
N14_4 Zn5_4 1_555 1_555
N15_4 C45_4 1_555 1_555
Zn7_4 O7_4 1_555 1_555
C47_4 H23_4 1_555 1_555
C48_4 C47_4 1_555 1_555
H24_4 C48_4 1_555 1_555
N16_4 C48_4 1_555 1_555
N17_4 Zn5_4 1_555 1_555
N18_4 Zn6_4 1_555 1_555
Zn8_4 O15_4 1_555 1_555
O25_4 Zn6_4 1_555 1_555
O26_4 Zn7_4 1_555 1_555
O27_4 Zn8_4 1_555 1_555
O28_4 Zn6_4 1_555 1_555
O29_4 Zn7_4 1_555 1_555
O30_4 Zn8_4 1_555 1_555
N2_4 N3_4 1_555 1_555
O3_4 Zn11_2 1_555 1_555
O4_4 Zn1_4 1_555 1_555
C13_4 C14_4 1_555 1_555
C18_4 O12_4 1_555 1_555
N4_4 N5_4 1_555 1_555
N4_4 Zn10_2 1_555 1_555
N5_4 N6_4 1_555 1_555
O11_4 Zn10_2 1_555 1_555
C27_4 C28_4 1_555 1_555
O16_4 Zn5_4 1_555 1_555
C32_4 O20_4 1_555 1_555
C35_4 N9_4 1_555 1_555
N7_4 N8_4 1_555 1_555
N7_4 Zn9_2 1_555 1_555
N8_4 N9_4 1_555 1_555
O19_4 Zn9_2 1_555 1_555
C41_4 C42_4 1_555 1_555
O24_4 Zn5_4 1_555 1_555
N10_4 Zn6_4 1_555 1_555
N11_4 N12_4 1_555 1_555
N11_4 Zn5_4 1_555 1_555
N12_4 Zn7_4 1_555 1_555
N13_4 N14_4 1_555 1_555
N13_4 Zn7_4 1_555 1_555
N14_4 N15_4 1_555 1_555
N15_4 Zn8_4 1_555 1_555
C47_4 N18_4 1_555 1_555
N16_4 N17_4 1_555 1_555
N16_4 Zn8_4 1_555 1_555
N17_4 N18_4 1_555 1_555
C9_4 C10_4 1_555 1_555
C10_4 S1_5 1_555 1_555
H5_4 C11_4 1_555 1_555
O27_4 C9_4 1_555 1_555
O30_4 C9_4 1_555 1_555
C10_4 C11_4 1_555 1_555
C1_4 C2_4 1_555 1_555
C2_4 C3_4 1_555 1_555
C3_4 H1_4 1_555 1_555
O27_3 C1_4 1_555 1_555
O30_3 C1_4 1_555 1_555
S1_6 C2_4 1_555 1_555
C15_4 C16_4 1_555 1_555
C16_4 C17_4 1_555 1_555
C17_4 H7_4 1_555 1_555
O25_3 C15_4 1_555 1_555
O28_3 C15_4 1_555 1_555
S3_7 C16_4 1_555 1_555
C29_4 C30_4 1_555 1_555
C30_4 C31_4 1_555 1_555
C31_4 H13_4 1_555 1_555
O26_3 C29_4 1_555 1_555
O29_3 C29_4 1_555 1_555
S5_6 C30_4 1_555 1_555
C37_4 C38_4 1_555 1_555
C38_4 S5_6 1_555 1_555
C39_4 C31_4 1_555 1_555
H17_4 C39_4 1_555 1_555
O25_4 C37_4 1_555 1_555
O28_4 C37_4 1_555 1_555
C38_4 C39_4 1_555 1_555
C23_4 C24_4 1_555 1_555
C24_4 S3_8 1_555 1_555
H11_4 C25_4 1_555 1_555
O26_4 C23_4 1_555 1_555
O29_4 C23_4 1_555 1_555
C24_4 C25_4 1_555 1_555

#END
