
###############################################################################
#
# This file contains modified crystal structure data generated from the
# MOF subset of the Cambridge Structural Database (CSD) v543 
# hosted by the Cambridge Crystallographic Data Centre (CCDC).
#
# This work is licensed under the Creative Commons
# Attribution-NonCommercial-ShareAlike 4.0 International License.
# To view a copy of this license, visit
# http://creativecommons.org/licenses/by-nc-sa/4.0/
# or send a letter to
# Creative Commons, PO Box 1866, Mountain View, CA 94042, USA.
#
# CIF created using the CSD Python API on 29 September 2022
# The structure has been converted into the P1 space group
# The structure has a 3D framework
# The original CSD entry OMOVUJ is in the trigonal crystal system
# The framework has been calculated to contain at least 10.0% void space
# The void calculation uses a probe of radius 1.32A, grid spacing 0.4
# The framework is charged, counterions have been retained in the structure
# H atom positions have been added when not included in the experimental data
#
###############################################################################

data_OMOVUJ
_chemical_formula_moiety         '(C116 H60 N36 O58 S10 Zn36 5-)n'
_symmetry_cell_setting           triclinic
_symmetry_space_group_name_H-M   'P 1'
_symmetry_Int_Tables_number      1
_space_group_name_Hall           'P 1'
loop_
_symmetry_equiv_pos_site_id
_symmetry_equiv_pos_as_xyz
1 x,y,z
_cell_length_a                   16.2940(9)
_cell_length_b                   16.2940(9)
_cell_length_c                   31.7520(18)
_cell_angle_alpha                90
_cell_angle_beta                 90
_cell_angle_gamma                120
_cell_volume                     7300.58
loop_
_atom_site_label
_atom_site_type_symbol
_atom_site_fract_x
_atom_site_fract_y
_atom_site_fract_z
C5 C 0.0483(6) 0.2383(5) 0.4540(2)
H3 H 0.0873 0.2967 0.4667
C6 C 0.3463(11) 0.3456(11) 0.4581(3)
C7 C 0.4242(8) 0.4248(8) 0.4802(3)
C8 C 0.5041(11) 0.4169(11) 0.4907(4)
C9 C 0.4168(11) 0.5050(11) 0.4908(4)
N2 N 0.0763(4) 0.1866(4) 0.43250(15)
O3 O 0.2742(7) 0.3459(8) 0.4493(3)
O4 O 0.3469(8) 0.2730(7) 0.4493(3)
Zn1 Zn -0.0000 -0.0000 0.38053(3)
Zn2 Zn 0.20831(5) 0.20827(5) 0.42003(2)
C13 C 0.6537(11) 0.6544(11) 0.5419(3)
C14 C 0.5758(8) 0.5752(8) 0.5198(3)
C15 C 0.4959(11) 0.5831(11) 0.5093(4)
C16 C 0.5832(11) 0.4950(11) 0.5092(4)
O7 O 0.7258(7) 0.6541(8) 0.5507(3)
O8 O 0.6531(8) 0.7270(7) 0.5507(3)
C33 C 0.1766(7) 0.1770(5) 0.33392(18)
C34 C 0.2027(8) 0.2027(5) 0.28837(19)
C35 C 0.2778(12) 0.2775(7) 0.2721(2)
H9 H 0.3257 0.3248 0.2883
C36 C 0.2383(8) 0.0491(6) 0.4540(2)
H10 H 0.2963 0.0884 0.4668
N7 N 0.1093(4) 0.0001(3) 0.41900(14)
N9 N 0.1867(6) 0.0763(4) 0.43244(15)
O17 O 0.2339(6) 0.2339(4) 0.35995(14)
O18 O 0.1022(4) 0.1022(3) 0.34113(13)
S3 S 0.12870(12) 0.12870(12) 0.2500
C42 C 0.1770(5) 0.1766(7) 0.16608(18)
C43 C 0.2027(5) 0.2027(8) 0.21163(19)
C44 C 0.2775(7) 0.2778(12) 0.2279(2)
H12 H 0.3248 0.3257 0.2117
O21 O 0.2339(4) 0.2339(6) 0.14005(14)
O22 O 0.1022(3) 0.1022(4) 0.15887(13)
Zn5 Zn 0.0000 -0.0000 0.11947(3)
C51 C 0.0491(6) 0.2383(8) 0.0460(2)
H15 H 0.0884 0.2963 0.0332
N13 N 0.0001(3) 0.1093(4) 0.08100(14)
N15 N 0.0763(4) 0.1867(6) 0.06756(15)
C54 C 0.2383(5) 0.0483(6) 0.0460(2)
H18 H 0.2967 0.0873 0.0333
N17 N 0.1866(4) 0.0763(4) 0.06750(15)
Zn8 Zn 0.20827(5) 0.20831(5) 0.07997(2)
O27 O 0.3459(8) 0.2742(7) 0.0507(3)
O30 O 0.2730(7) 0.3469(8) 0.0507(3)
Zn9 Zn 0.79169(5) 0.79173(5) 0.57997(2)
H19 H 0.504637 0.351402 0.484597
H20 H 0.351727 0.506465 0.484841
H22 H 0.495363 0.648598 0.515403
H23 H 0.648273 0.493535 0.515159
C38 C 0.3456(19) 0.3463(11) 0.0419(3)
C39 C 0.4248(14) 0.4242(8) 0.0198(3)
C40 C 0.4169(19) 0.5041(11) 0.0093(4)
C41 C 0.5050(19) 0.4168(11) 0.0092(4)
H25 H 0.506465 0.351727 0.0151593
H28 H 0.351402 0.504637 0.0154031
C45 C 0.6544(19) 0.6537(11) 0.9581(3)
C46 C 0.5752(14) 0.5758(8) 0.9802(3)
C47 C 0.5831(19) 0.4959(11) 0.9907(4)
C48 C 0.4950(19) 0.5832(11) 0.9908(4)
O23 O 0.6541(13) 0.7258(7) 0.9493(3)
O24 O 0.7270(14) 0.6531(8) 0.9493(3)
Zn11 Zn 0.79173(9) 0.79169(5) 0.92003(2)
H29 H 0.648598 0.495363 0.984597
H30 H 0.493535 0.648273 0.984841
C5_2 C 0.9517(6) 0.7617(5) 0.5460(2)
H3_2 H 0.9127 0.7033 0.5333
N2_2 N 0.9237(4) 0.8134(4) 0.56750(15)
Zn1_2 Zn 1.0000 1.0000 0.61947(3)
C33_2 C 0.8234(7) 0.8230(5) 0.66608(18)
C34_2 C 0.7973(8) 0.7973(5) 0.71163(19)
C35_2 C 0.7222(12) 0.7225(7) 0.7279(2)
H9_2 H 0.6743 0.6752 0.7117
C36_2 C 0.7617(8) 0.9509(6) 0.5460(2)
H10_2 H 0.7037 0.9116 0.5332
N7_2 N 0.8907(4) 0.9999(3) 0.58100(14)
N9_2 N 0.8133(6) 0.9237(4) 0.56756(15)
O17_2 O 0.7661(6) 0.7661(4) 0.64005(14)
O18_2 O 0.8978(4) 0.8978(3) 0.65887(13)
S3_2 S 0.87130(12) 0.87130(12) 0.7500
C42_2 C 0.8230(5) 0.8234(7) 0.83392(18)
C43_2 C 0.7973(5) 0.7973(8) 0.78837(19)
C44_2 C 0.7225(7) 0.7222(12) 0.7721(2)
H12_2 H 0.6752 0.6743 0.7883
O21_2 O 0.7661(4) 0.7661(6) 0.85995(14)
O22_2 O 0.8978(3) 0.8978(4) 0.84113(13)
Zn5_2 Zn 1.0000 1.0000 0.88053(3)
C51_2 C 0.9509(6) 0.7617(8) 0.9540(2)
H15_2 H 0.9116 0.7037 0.9668
N13_2 N 0.9999(3) 0.8907(4) 0.91900(14)
N15_2 N 0.9237(4) 0.8133(6) 0.93244(15)
C54_2 C 0.7617(5) 0.9517(6) 0.9540(2)
H18_2 H 0.7033 0.9127 0.9667
N17_2 N 0.8134(4) 0.9237(4) 0.93250(15)
Zn1_3 Zn -0.0000 1.0000 0.38053(3)
C17 C 0.0004(5) 0.8234(7) 0.33392(18)
C18 C -0.0000(6) 0.7973(8) 0.28837(19)
O9 O -0.0000(4) 0.7661(6) 0.35995(14)
O10 O -0.0000(3) 0.8978(4) 0.34113(13)
S2 S -0.0000 0.87130(12) 0.2500
C27 C -0.0000(6) 0.7973(5) 0.21163(19)
C28 C 0.0003(10) 0.7225(7) 0.2279(2)
H8 H 0.0009 0.6752 0.2117
O13 O -0.0000(4) 0.7661(4) 0.14005(14)
O14 O -0.0000(3) 0.8978(3) 0.15887(13)
C37 C 0.1900(8) 0.9517(6) 0.4540(2)
H11 H 0.2094 0.9127 0.4667
C39_2 C 0.0006(11) 0.5758(8) 0.4802(3)
C41_2 C 0.0882(16) 0.5832(11) 0.4908(4)
N8 N 0.1103(6) 0.9237(4) 0.43250(15)
O19 O 0.0717(11) 0.7258(7) 0.4493(3)
Zn4 Zn -0.00004(7) 0.79169(5) 0.42003(2)
C45_2 C 0.0007(16) 0.3463(11) 0.5419(3)
C47_2 C 0.0872(16) 0.5041(11) 0.5093(4)
O24_2 O 0.0739(11) 0.3469(8) 0.5507(3)
Zn5_3 Zn 0.0000 1.0000 0.11947(3)
Zn6 Zn 0.00004(7) 0.79173(5) 0.07997(2)
C53 C 0.1892(5) 0.9509(6) 0.0460(2)
H17 H 0.2079 0.9116 0.0332
N16 N 0.1092(3) 0.9999(3) 0.08100(14)
N18 N 0.1104(4) 0.9237(4) 0.06756(15)
O28 O 0.0739(11) 0.7270(7) 0.0507(3)
Zn11_2 Zn 0.00004(7) 0.20831(5) 0.57997(2)
H25_2 H 0.154738 0.648273 0.484841
H29_2 H 0.153234 0.504637 0.515403
C2 C 0.7973(5) -0.0000(6) 0.28837(19)
C3 C 0.7225(7) 0.0003(10) 0.2721(2)
H1 H 0.6752 0.0009 0.2883
C4 C 0.9509(6) 0.1892(5) 0.4540(2)
H2 H 0.9116 0.2079 0.4668
N1 N 0.9999(3) 0.1092(3) 0.41900(14)
N3 N 0.9237(4) 0.1104(4) 0.43244(15)
O1 O 0.7661(4) -0.0000(4) 0.35995(14)
O2 O 0.8978(3) -0.0000(3) 0.34113(13)
S1 S 0.87130(12) -0.0000 0.2500
Zn1_4 Zn 1.0000 -0.0000 0.38053(3)
C10 C 0.8234(7) 0.0004(5) 0.16608(18)
C11 C 0.7973(8) -0.0000(6) 0.21163(19)
O5 O 0.7661(6) -0.0000(4) 0.14005(14)
O6 O 0.8978(4) -0.0000(3) 0.15887(13)
C22 C 0.6544(11) 0.0007(16) 0.4581(3)
C24 C 0.5831(11) 0.0872(16) 0.4907(4)
O12 O 0.7270(7) 0.0739(11) 0.4493(3)
Zn3 Zn 0.79173(5) 0.00004(7) 0.42003(2)
C30 C 0.4248(8) 0.0006(11) 0.5198(3)
C32 C 0.5050(11) 0.0882(16) 0.5092(4)
O15 O 0.3459(8) 0.0717(11) 0.5507(3)
Zn5_4 Zn 1.0000 -0.0000 0.11947(3)
C52 C 0.9517(6) 0.1900(8) 0.0460(2)
H16 H 0.9127 0.2094 0.0333
N14 N 0.9237(4) 0.1103(6) 0.06750(15)
Zn7 Zn 0.79169(5) -0.00004(7) 0.07997(2)
O26 O 0.7258(7) 0.0717(11) 0.0507(3)
Zn10 Zn 0.20827(5) -0.00004(7) 0.57997(2)
H24 H 0.648598 0.153234 0.484597
H27 H 0.506465 0.154738 0.515159
C6_2 C 0.0007(16) 0.6544(11) 0.0419(3)
C8_2 C 0.0872(16) 0.5831(11) 0.0093(4)
H19_2 H 0.153234 0.648598 0.0154031
C14_2 C 0.0006(11) 0.4248(8) 0.9802(3)
C16_2 C 0.0882(16) 0.5050(11) 0.9908(4)
O7_2 O 0.0717(11) 0.3459(8) 0.9493(3)
Zn9_2 Zn -0.00004(7) 0.20827(5) 0.92003(2)
H23_2 H 0.154738 0.506465 0.984841
C23 C 0.5758(14) 0.0006(11) 0.0198(3)
C25 C 0.5832(19) 0.0882(16) 0.0092(4)
H21 H 0.648273 0.154738 0.0151593
C29 C 0.3463(19) 0.0007(16) 0.9581(3)
C31 C 0.5041(19) 0.0872(16) 0.9907(4)
O16 O 0.3469(13) 0.0739(11) 0.9493(3)
Zn10_2 Zn 0.20831(9) 0.00004(7) 0.92003(2)
H26 H 0.504637 0.153234 0.984597
C1 C 0.1770(5) 0.0004(5) 0.66608(18)
C2_2 C 0.2027(5) 0.0000(6) 0.71163(19)
O1_2 O 0.2339(4) 0.0000(4) 0.64005(14)
O2_2 O 0.1022(3) 0.0000(3) 0.65887(13)
S1_2 S 0.12870(12) 0.0000 0.7500
Zn1_5 Zn 0.0000 0.0000 0.61947(3)
C11_2 C 0.2027(8) 0.0000(6) 0.78837(19)
C12 C 0.2778(12) 0.0003(10) 0.7721(2)
H4 H 0.3257 0.0009 0.7883
O5_2 O 0.2339(6) 0.0000(4) 0.85995(14)
O6_2 O 0.1022(4) 0.0000(3) 0.84113(13)
C18_2 C 0.0000(6) 0.2027(8) 0.71163(19)
C19 C 0.0003(10) 0.2778(12) 0.7279(2)
H5 H 0.0009 0.3257 0.7117
C20 C 0.1892(5) 0.2383(8) 0.5460(2)
H6 H 0.2079 0.2963 0.5332
C21 C 0.2383(5) 0.1900(8) 0.5460(2)
H7 H 0.2967 0.2094 0.5333
N4 N 0.1092(3) 0.1093(4) 0.58100(14)
N5 N 0.1866(4) 0.1103(6) 0.56750(15)
N6 N 0.1104(4) 0.1867(6) 0.56756(15)
O9_2 O 0.0000(4) 0.2339(6) 0.64005(14)
O10_2 O 0.0000(3) 0.1022(4) 0.65887(13)
S2_2 S 0.0000 0.12870(12) 0.7500
C26 C 0.0004(5) 0.1770(5) 0.83392(18)
C27_2 C 0.0000(6) 0.2027(5) 0.78837(19)
O13_2 O 0.0000(4) 0.2339(4) 0.85995(14)
O14_2 O 0.0000(3) 0.1022(3) 0.84113(13)
C49 C 0.2383(8) 0.1892(5) 0.9540(2)
H13 H 0.2963 0.2079 0.9668
C50 C 0.1900(8) 0.2383(5) 0.9540(2)
H14 H 0.2094 0.2967 0.9667
N10 N 0.1093(4) 0.1092(3) 0.91900(14)
N11 N 0.1103(6) 0.1866(4) 0.93250(15)
N12 N 0.1867(6) 0.1104(4) 0.93244(15)
Zn5_5 Zn -0.0000 0.0000 0.88053(3)
C1_2 C 0.8230(5) 0.9996(5) 0.33392(18)
C2_3 C 0.7973(5) 1.0000(6) 0.28837(19)
O1_3 O 0.7661(4) 1.0000(4) 0.35995(14)
O2_3 O 0.8978(3) 1.0000(3) 0.34113(13)
S1_3 S 0.87130(12) 1.0000 0.2500
Zn1_6 Zn 1.0000 1.0000 0.38053(3)
C11_3 C 0.7973(8) 1.0000(6) 0.21163(19)
C12_2 C 0.7222(12) 0.9997(10) 0.2279(2)
H4_2 H 0.6743 0.9991 0.2117
O5_3 O 0.7661(6) 1.0000(4) 0.14005(14)
O6_3 O 0.8978(4) 1.0000(3) 0.15887(13)
C18_3 C 1.0000(6) 0.7973(8) 0.28837(19)
C19_2 C 0.9997(10) 0.7222(12) 0.2721(2)
H5_2 H 0.9991 0.6743 0.2883
C20_2 C 0.8108(5) 0.7617(8) 0.4540(2)
H6_2 H 0.7921 0.7037 0.4668
C21_2 C 0.7617(5) 0.8100(8) 0.4540(2)
H7_2 H 0.7033 0.7906 0.4667
C23_2 C 0.5752(8) 0.9994(11) 0.4802(3)
C25_2 C 0.4950(11) 0.9118(16) 0.4908(4)
N4_2 N 0.8908(3) 0.8907(4) 0.41900(14)
N5_2 N 0.8134(4) 0.8897(6) 0.43250(15)
N6_2 N 0.8896(4) 0.8133(6) 0.43244(15)
O9_3 O 1.0000(4) 0.7661(6) 0.35995(14)
O10_3 O 1.0000(3) 0.8978(4) 0.34113(13)
O11 O 0.6541(8) 0.9283(11) 0.4493(3)
S2_3 S 1.0000 0.87130(12) 0.2500
Zn3_2 Zn 0.79173(5) 1.00004(7) 0.42003(2)
C26_2 C 0.9996(5) 0.8230(5) 0.16608(18)
C27_3 C 1.0000(6) 0.7973(5) 0.21163(19)
O13_3 O 1.0000(4) 0.7661(4) 0.14005(14)
O14_3 O 1.0000(3) 0.8978(3) 0.15887(13)
C29_2 C 0.3456(11) 0.9993(16) 0.5419(3)
C31_2 C 0.4169(11) 0.9128(16) 0.5093(4)
O16_2 O 0.2730(7) 0.9261(11) 0.5507(3)
C38_2 C 0.9993(16) 0.6537(11) 0.4581(3)
C40_2 C 0.9128(16) 0.4959(11) 0.4907(4)
O20 O 0.9261(11) 0.6531(8) 0.4493(3)
Zn4_2 Zn 0.99996(7) 0.79169(5) 0.42003(2)
C46_2 C 0.9994(11) 0.4242(8) 0.5198(3)
C48_2 C 0.9118(16) 0.4168(11) 0.5092(4)
O23_2 O 0.9283(11) 0.2742(7) 0.5507(3)
C49_2 C 0.7617(8) 0.8108(5) 0.0460(2)
H13_2 H 0.7037 0.7921 0.0332
C50_2 C 0.8100(8) 0.7617(5) 0.0460(2)
H14_2 H 0.7906 0.7033 0.0333
N10_2 N 0.8907(4) 0.8908(3) 0.08100(14)
N11_2 N 0.8897(6) 0.8134(4) 0.06750(15)
N12_2 N 0.8133(6) 0.8896(4) 0.06756(15)
Zn5_6 Zn 1.0000 1.0000 0.11947(3)
Zn6_2 Zn 1.00004(7) 0.79173(5) 0.07997(2)
Zn7_2 Zn 0.79169(5) 0.99996(7) 0.07997(2)
O25 O 0.9283(11) 0.6541(8) 0.0507(3)
O29 O 0.6531(8) 0.9261(11) 0.0507(3)
Zn10_3 Zn 0.20827(5) 0.99996(7) 0.57997(2)
Zn11_3 Zn 1.00004(7) 0.20831(5) 0.57997(2)
H21_2 H 0.493535 0.845262 0.484841
H26_2 H 0.351402 0.846766 0.515403
H28_2 H 0.846766 0.495363 0.484597
H30_2 H 0.845262 0.351727 0.515159
C7_2 C 0.9994(11) 0.5752(8) 0.0198(3)
C9_2 C 0.9118(16) 0.4950(11) 0.0092(4)
C22_2 C 0.6537(19) 0.9993(16) 0.0419(3)
C24_2 C 0.4959(19) 0.9128(16) 0.0093(4)
H20_2 H 0.845262 0.493535 0.0151593
H24_2 H 0.495363 0.846766 0.0154031
C13_2 C 0.9993(16) 0.3456(11) 0.9581(3)
C15_2 C 0.9128(16) 0.4169(11) 0.9907(4)
O8_2 O 0.9261(11) 0.2730(7) 0.9493(3)
C30_2 C 0.4242(14) 0.9994(11) 0.9802(3)
C32_2 C 0.4168(19) 0.9118(16) 0.9908(4)
O15_2 O 0.2742(14) 0.9283(11) 0.9493(3)
Zn9_3 Zn 0.99996(7) 0.20827(5) 0.92003(2)
Zn10_4 Zn 0.20831(9) 1.00004(7) 0.92003(2)
H22_2 H 0.846766 0.351402 0.984597
H27_2 H 0.351727 0.845262 0.984841
C2_4 C 0.2027(5) 1.0000(6) 0.71163(19)
C3_2 C 0.2775(7) 0.9997(10) 0.7279(2)
H1_2 H 0.3248 0.9991 0.7117
C4_2 C 0.0491(6) 0.8108(5) 0.5460(2)
H2_2 H 0.0884 0.7921 0.5332
N1_2 N 0.0001(3) 0.8908(3) 0.58100(14)
N3_2 N 0.0763(4) 0.8896(4) 0.56756(15)
O1_4 O 0.2339(4) 1.0000(4) 0.64005(14)
O2_4 O 0.1022(3) 1.0000(3) 0.65887(13)
S1_4 S 0.12870(12) 1.0000 0.7500
Zn1_7 Zn 0.0000 1.0000 0.61947(3)
C10_2 C 0.1766(7) 0.9996(5) 0.83392(18)
C11_4 C 0.2027(8) 1.0000(6) 0.78837(19)
O5_4 O 0.2339(6) 1.0000(4) 0.85995(14)
O6_4 O 0.1022(4) 1.0000(3) 0.84113(13)
Zn5_7 Zn 0.0000 1.0000 0.88053(3)
C52_2 C 0.0483(6) 0.8100(8) 0.9540(2)
H16_2 H 0.0873 0.7906 0.9667
N14_2 N 0.0763(4) 0.8897(6) 0.93250(15)
Zn1_8 Zn 1.0000 0.0000 0.61947(3)
C17_2 C 0.9996(5) 0.1766(7) 0.66608(18)
C18_4 C 1.0000(6) 0.2027(8) 0.71163(19)
O9_4 O 1.0000(4) 0.2339(6) 0.64005(14)
O10_4 O 1.0000(3) 0.1022(4) 0.65887(13)
S2_4 S 1.0000 0.12870(12) 0.7500
C27_4 C 1.0000(6) 0.2027(5) 0.78837(19)
C28_2 C 0.9997(10) 0.2775(7) 0.7721(2)
H8_2 H 0.9991 0.3248 0.7883
O13_4 O 1.0000(4) 0.2339(4) 0.85995(14)
O14_4 O 1.0000(3) 0.1022(3) 0.84113(13)
C37_2 C 0.8100(8) 0.0483(6) 0.5460(2)
H11_2 H 0.7906 0.0873 0.5333
N8_2 N 0.8897(6) 0.0763(4) 0.56750(15)
Zn5_8 Zn 1.0000 0.0000 0.88053(3)
C53_2 C 0.8108(5) 0.0491(6) 0.9540(2)
H17_2 H 0.7921 0.0884 0.9668
N16_2 N 0.8908(3) 0.0001(3) 0.91900(14)
N18_2 N 0.8896(4) 0.0763(4) 0.93244(15)
loop_
_geom_bond_atom_site_label_1
_geom_bond_atom_site_label_2
_geom_bond_site_symmetry_1
_geom_bond_site_symmetry_2
H3 C5 1_555 1_555
C6 C7 1_555 1_555
C7 C8 1_555 1_555
C8 C16 1_555 1_555
C9 C7 1_555 1_555
N2 C5 1_555 1_555
O3 C6 1_555 1_555
O4 C6 1_555 1_555
Zn2 N2 1_555 1_555
C13 C14 1_555 1_555
C14 C15 1_555 1_555
C15 C9 1_555 1_555
C16 C14 1_555 1_555
O7 C13 1_555 1_555
O8 C13 1_555 1_555
C33 C34 1_555 1_555
C34 C35 1_555 1_555
C35 H9 1_555 1_555
C36 H10 1_555 1_555
N7 Zn1 1_555 1_555
N9 Zn2 1_555 1_555
O17 Zn2 1_555 1_555
O18 Zn1 1_555 1_555
S3 C34 1_555 1_555
C42 C43 1_555 1_555
C43 S3 1_555 1_555
C44 C35 1_555 1_555
H12 C44 1_555 1_555
O21 C42 1_555 1_555
O22 C42 1_555 1_555
C51 H15 1_555 1_555
N13 Zn5 1_555 1_555
N15 C51 1_555 1_555
H18 C54 1_555 1_555
N17 C54 1_555 1_555
Zn8 O21 1_555 1_555
O27 Zn8 1_555 1_555
O30 Zn8 1_555 1_555
Zn9 O7 1_555 1_555
O3 Zn2 1_555 1_555
O4 Zn2 1_555 1_555
O8 Zn9 1_555 1_555
C33 O17 1_555 1_555
C33 O18 1_555 1_555
C36 N9 1_555 1_555
N7 N9 1_555 1_555
C43 C44 1_555 1_555
O22 Zn5 1_555 1_555
N13 N15 1_555 1_555
N15 Zn8 1_555 1_555
N17 Zn8 1_555 1_555
C8 H19 1_555 1_555
C9 H20 1_555 1_555
C15 H22 1_555 1_555
C16 H23 1_555 1_555
C38 C39 1_555 1_555
C39 C40 1_555 1_555
C41 C39 1_555 1_555
O27 C38 1_555 1_555
O30 C38 1_555 1_555
C41 H25 1_555 1_555
C40 H28 1_555 1_555
C45 C46 1_555 1_555
C46 C47 1_555 1_555
C48 C46 1_555 1_555
O23 C45 1_555 1_555
O24 C45 1_555 1_555
Zn11 O23 1_555 1_555
O24 Zn11 1_555 1_555
C47 H29 1_555 1_555
C48 H30 1_555 1_555
H3_2 C5_2 1_555 1_555
N2_2 C5_2 1_555 1_555
Zn9 N2_2 1_555 1_555
C33_2 C34_2 1_555 1_555
C34_2 C35_2 1_555 1_555
C35_2 H9_2 1_555 1_555
C36_2 H10_2 1_555 1_555
N7_2 Zn1_2 1_555 1_555
N9_2 Zn9 1_555 1_555
O17_2 Zn9 1_555 1_555
O18_2 Zn1_2 1_555 1_555
S3_2 C34_2 1_555 1_555
C42_2 C43_2 1_555 1_555
C43_2 S3_2 1_555 1_555
C44_2 C35_2 1_555 1_555
H12_2 C44_2 1_555 1_555
O21_2 C42_2 1_555 1_555
O22_2 C42_2 1_555 1_555
C51_2 H15_2 1_555 1_555
N13_2 Zn5_2 1_555 1_555
N15_2 C51_2 1_555 1_555
H18_2 C54_2 1_555 1_555
N17_2 C54_2 1_555 1_555
Zn11 O21_2 1_555 1_555
C33_2 O17_2 1_555 1_555
C33_2 O18_2 1_555 1_555
C36_2 N9_2 1_555 1_555
N7_2 N9_2 1_555 1_555
C43_2 C44_2 1_555 1_555
O22_2 Zn5_2 1_555 1_555
N13_2 N15_2 1_555 1_555
N15_2 Zn11 1_555 1_555
N17_2 Zn11 1_555 1_555
C17 C18 1_555 1_555
O9 C17 1_555 1_555
O10 Zn1_3 1_555 1_555
S2 C18 1_555 1_555
C27 S2 1_555 1_555
H8 C28 1_555 1_555
H11 C37 1_555 1_555
C41_2 C39_2 1_555 1_555
N8 C37 1_555 1_555
C47_2 C41_2 1_555 1_555
O24_2 C45_2 1_555 1_555
Zn6 O13 1_555 1_555
C53 H17 1_555 1_555
N16 Zn5_3 1_555 1_555
N18 Zn6 1_555 1_555
O28 Zn6 1_555 1_555
C17 O10 1_555 1_555
O9 Zn4 1_555 1_555
C27 C28 1_555 1_555
O14 Zn5_3 1_555 1_555
N8 Zn4 1_555 1_555
O19 Zn4 1_555 1_555
O24_2 Zn11_2 1_555 1_555
C53 N18 1_555 1_555
N16 N18 1_555 1_555
C41_2 H25_2 1_555 1_555
C47_2 H29_2 1_555 1_555
C2 C3 1_555 1_555
C3 H1 1_555 1_555
C4 H2 1_555 1_555
N3 C4 1_555 1_555
S1 C2 1_555 1_555
Zn1_4 N1 1_555 1_555
C10 C11 1_555 1_555
C11 S1 1_555 1_555
O5 C10 1_555 1_555
O6 C10 1_555 1_555
C24 C32 1_555 1_555
O12 C22 1_555 1_555
Zn3 N3 1_555 1_555
C32 C30 1_555 1_555
Zn5_4 O6 1_555 1_555
H16 C52 1_555 1_555
N14 C52 1_555 1_555
Zn7 O5 1_555 1_555
O26 Zn7 1_555 1_555
Zn10 O15 1_555 1_555
N1 N3 1_555 1_555
O1 Zn3 1_555 1_555
O2 Zn1_4 1_555 1_555
O12 Zn3 1_555 1_555
N14 Zn7 1_555 1_555
C24 H24 1_555 1_555
C32 H27 1_555 1_555
O28 C6_2 1_555 1_555
C8_2 H19_2 1_555 1_555
C16_2 C14_2 1_555 1_555
Zn9_2 O7_2 1_555 1_555
C16_2 H23_2 1_555 1_555
C25 C23 1_555 1_555
C25 H21 1_555 1_555
O16 C29 1_555 1_555
O16 Zn10_2 1_555 1_555
C31 H26 1_555 1_555
C1 C2_2 1_555 1_555
O1_2 C1 1_555 1_555
O2_2 C1 1_555 1_555
S1_2 C2_2 1_555 1_555
C11_2 S1_2 1_555 1_555
H4 C12 1_555 1_555
C18_2 C19 1_555 1_555
C19 H5 1_555 1_555
C20 H6 1_555 1_555
C21 C20 1_555 1_555
H7 C21 1_555 1_555
N4 Zn1_5 1_555 1_555
N5 C21 1_555 1_555
N6 C20 1_555 1_555
O10_2 Zn1_5 1_555 1_555
S2_2 C18_2 1_555 1_555
C26 C27_2 1_555 1_555
C27_2 S2_2 1_555 1_555
O13_2 C26 1_555 1_555
O14_2 C26 1_555 1_555
Zn11_2 N6 1_555 1_555
C49 H13 1_555 1_555
C50 C49 1_555 1_555
H14 C50 1_555 1_555
N10 N11 1_555 1_555
N11 C50 1_555 1_555
N12 C49 1_555 1_555
Zn5_5 O6_2 1_555 1_555
Zn9_2 O13_2 1_555 1_555
Zn10_2 O5_2 1_555 1_555
O1_2 Zn10 1_555 1_555
O2_2 Zn1_5 1_555 1_555
C11_2 C12 1_555 1_555
N4 N5 1_555 1_555
N4 N6 1_555 1_555
N5 Zn10 1_555 1_555
O9_2 Zn11_2 1_555 1_555
O14_2 Zn5_5 1_555 1_555
N10 N12 1_555 1_555
N10 Zn5_5 1_555 1_555
N11 Zn9_2 1_555 1_555
N12 Zn10_2 1_555 1_555
C1_2 C2_3 1_555 1_555
O1_3 C1_2 1_555 1_555
O2_3 C1_2 1_555 1_555
S1_3 C2_3 1_555 1_555
C11_3 S1_3 1_555 1_555
H4_2 C12_2 1_555 1_555
C18_3 C19_2 1_555 1_555
C19_2 H5_2 1_555 1_555
C20_2 H6_2 1_555 1_555
C21_2 C20_2 1_555 1_555
H7_2 C21_2 1_555 1_555
C25_2 C23_2 1_555 1_555
N4_2 Zn1_6 1_555 1_555
N5_2 C21_2 1_555 1_555
N6_2 C20_2 1_555 1_555
O10_3 Zn1_6 1_555 1_555
S2_3 C18_3 1_555 1_555
C26_2 C27_3 1_555 1_555
C27_3 S2_3 1_555 1_555
O13_3 C26_2 1_555 1_555
O14_3 C26_2 1_555 1_555
C31_2 C25_2 1_555 1_555
O16_2 C29_2 1_555 1_555
C40_2 C48_2 1_555 1_555
O20 C38_2 1_555 1_555
Zn4_2 N6_2 1_555 1_555
C48_2 C46_2 1_555 1_555
C49_2 H13_2 1_555 1_555
C50_2 C49_2 1_555 1_555
H14_2 C50_2 1_555 1_555
N10_2 N11_2 1_555 1_555
N11_2 C50_2 1_555 1_555
N12_2 C49_2 1_555 1_555
Zn5_6 O6_3 1_555 1_555
Zn6_2 O13_3 1_555 1_555
Zn7_2 O5_3 1_555 1_555
O25 Zn6_2 1_555 1_555
O29 Zn7_2 1_555 1_555
Zn11_3 O23_2 1_555 1_555
O1_3 Zn3_2 1_555 1_555
O2_3 Zn1_6 1_555 1_555
C11_3 C12_2 1_555 1_555
N4_2 N5_2 1_555 1_555
N4_2 N6_2 1_555 1_555
N5_2 Zn3_2 1_555 1_555
O9_3 Zn4_2 1_555 1_555
O11 Zn3_2 1_555 1_555
O14_3 Zn5_6 1_555 1_555
O16_2 Zn10_3 1_555 1_555
O20 Zn4_2 1_555 1_555
N10_2 N12_2 1_555 1_555
N10_2 Zn5_6 1_555 1_555
N11_2 Zn6_2 1_555 1_555
N12_2 Zn7_2 1_555 1_555
C25_2 H21_2 1_555 1_555
C31_2 H26_2 1_555 1_555
C40_2 H28_2 1_555 1_555
C48_2 H30_2 1_555 1_555
C9_2 C7_2 1_555 1_555
O29 C22_2 1_555 1_555
C9_2 H20_2 1_555 1_555
C24_2 H24_2 1_555 1_555
O8_2 C13_2 1_555 1_555
C32_2 C30_2 1_555 1_555
Zn10_4 O15_2 1_555 1_555
O8_2 Zn9_3 1_555 1_555
C15_2 H22_2 1_555 1_555
C32_2 H27_2 1_555 1_555
C2_4 C3_2 1_555 1_555
C3_2 H1_2 1_555 1_555
C4_2 H2_2 1_555 1_555
N3_2 C4_2 1_555 1_555
S1_4 C2_4 1_555 1_555
Zn1_7 N1_2 1_555 1_555
C10_2 C11_4 1_555 1_555
C11_4 S1_4 1_555 1_555
O5_4 C10_2 1_555 1_555
O6_4 C10_2 1_555 1_555
Zn10_3 N3_2 1_555 1_555
Zn5_7 O6_4 1_555 1_555
H16_2 C52_2 1_555 1_555
N14_2 C52_2 1_555 1_555
Zn10_4 O5_4 1_555 1_555
N1_2 N3_2 1_555 1_555
O1_4 Zn10_3 1_555 1_555
O2_4 Zn1_7 1_555 1_555
N14_2 Zn10_4 1_555 1_555
C17_2 C18_4 1_555 1_555
O9_4 C17_2 1_555 1_555
O10_4 Zn1_8 1_555 1_555
S2_4 C18_4 1_555 1_555
C27_4 S2_4 1_555 1_555
H8_2 C28_2 1_555 1_555
H11_2 C37_2 1_555 1_555
N8_2 C37_2 1_555 1_555
Zn9_3 O13_4 1_555 1_555
C53_2 H17_2 1_555 1_555
N16_2 Zn5_8 1_555 1_555
N18_2 Zn9_3 1_555 1_555
C17_2 O10_4 1_555 1_555
O9_4 Zn11_3 1_555 1_555
C27_4 C28_2 1_555 1_555
O14_4 Zn5_8 1_555 1_555
N8_2 Zn11_3 1_555 1_555
C53_2 N18_2 1_555 1_555
N16_2 N18_2 1_555 1_555

#END
