
###############################################################################
#
# This file contains modified crystal structure data generated from the
# MOF subset of the Cambridge Structural Database (CSD) v543 
# hosted by the Cambridge Crystallographic Data Centre (CCDC).
#
# This work is licensed under the Creative Commons
# Attribution-NonCommercial-ShareAlike 4.0 International License.
# To view a copy of this license, visit
# http://creativecommons.org/licenses/by-nc-sa/4.0/
# or send a letter to
# Creative Commons, PO Box 1866, Mountain View, CA 94042, USA.
#
# CIF created using the CSD Python API on 29 September 2022
# The structure has been converted into the P1 space group
# The structure has a 3D framework
# The original CSD entry OMUKUE is in the monoclinic crystal system
# The framework has been calculated to contain at least 10.0% void space
# The void calculation uses a probe of radius 1.32A, grid spacing 0.4
# The framework is charged, counterions have been retained in the structure
#
###############################################################################

data_OMUKUE
_chemical_formula_moiety         '(C288 H168 N80 O92 S18 Zn32 10-)n'
_symmetry_cell_setting           triclinic
_symmetry_space_group_name_H-M   'P 1'
_symmetry_Int_Tables_number      1
_space_group_name_Hall           'P 1'
loop_
_symmetry_equiv_pos_site_id
_symmetry_equiv_pos_as_xyz
1 x,y,z
_cell_length_a                   34.858(5)
_cell_length_b                   38.935(5)
_cell_length_c                   19.106(3)
_cell_angle_alpha                90
_cell_angle_beta                 121.613(2)
_cell_angle_gamma                90
_cell_volume                     22082.7
loop_
_atom_site_label
_atom_site_type_symbol
_atom_site_fract_x
_atom_site_fract_y
_atom_site_fract_z
C1 C 0.3717(2) 0.16725(14) 0.2051(3)
H1 H 0.3659 0.1781 0.2420
C2 C 0.41151(19) 0.16749(12) 0.2083(3)
H2 H 0.4379 0.1784 0.2477
C7 C 0.18831(12) 0.22177(9) 0.2893(2)
C8 C 0.19289(13) 0.18753(10) 0.2802(2)
H7 H 0.1835 0.1715 0.3043
C9 C 0.21182(14) 0.17624(10) 0.2344(3)
H8 H 0.2150 0.1529 0.2284
C10 C 0.22543(12) 0.20020(11) 0.1987(2)
C11 C 0.22022(13) 0.23435(10) 0.2074(2)
H9 H 0.2291 0.2505 0.1829
C12 C 0.20184(13) 0.24496(9) 0.2525(2)
H10 H 0.1985 0.2683 0.2580
C13 C 0.24708(15) 0.18707(14) 0.1519(3)
C14 C 0.13225(13) 0.25566(9) 0.2992(2)
C15 C 0.09962(13) 0.25327(9) 0.2161(2)
H11 H 0.1019 0.2367 0.1834
C16 C 0.06271(13) 0.27649(12) 0.1816(3)
H12 H 0.0408 0.2750 0.1260
C17 C 0.05875(15) 0.30155(11) 0.2302(3)
C18 C 0.08952(16) 0.30223(11) 0.3089(3)
H13 H 0.0864 0.3179 0.3424
C19 C 0.12655(13) 0.28032(10) 0.3442(2)
H14 H 0.1481 0.2825 0.3998
C20 C 0.01816(19) 0.32503(13) 0.1878(4)
C21 C 0.18460(14) 0.21830(9) 0.4132(2)
C22 C 0.22908(14) 0.21078(9) 0.4656(2)
H15 H 0.2496 0.2160 0.4501
C23 C 0.24424(14) 0.19561(10) 0.5407(2)
H16 H 0.2747 0.1906 0.5752
C24 C 0.21456(18) 0.18785(10) 0.5645(3)
C25 C 0.17023(17) 0.19504(11) 0.5130(3)
H17 H 0.1498 0.1897 0.5287
C26 C 0.15507(14) 0.21022(11) 0.4377(2)
H18 H 0.1246 0.2150 0.4032
C27 C 0.2328(2) 0.17042(11) 0.6484(3)
C28 C 0.25253(18) 0.01814(10) 0.1127(3)
H19 H 0.2375 0.0315 0.1312
C29 C 0.27729(13) 0.03132(9) 0.0821(2)
C30 C 0.28459(14) 0.06778(10) 0.0720(2)
C31 C 0.48780(12) 0.01792(8) 0.1586(2)
H20 H 0.5136 0.0312 0.1888
C32 C 0.44560(11) 0.03139(7) 0.1091(2)
C33 C 0.43135(14) 0.06766(9) 0.0924(2)
N1 N 0.34210(11) 0.14865(8) 0.1394(2)
N2 N 0.36426(11) 0.13820(6) 0.10303(16)
N3 N 0.40591(11) 0.14911(8) 0.1438(2)
N10 N 0.16880(10) 0.23270(8) 0.33514(18)
O1 O 0.24932(11) 0.15561(8) 0.14690(19)
O2 O 0.26040(14) 0.20774(10) 0.1220(2)
O3 O 0.01113(12) 0.34245(10) 0.2353(3)
O5 O 0.27248(12) 0.16454(7) 0.69176(16)
O6 O 0.20447(14) 0.16196(10) 0.6667(2)
O7 O 0.26825(10) 0.08995(7) 0.09797(18)
O8 O 0.30680(8) 0.07365(5) 0.03979(14)
O9 O 0.39126(8) 0.07435(5) 0.04770(14)
O10 O 0.46269(8) 0.08949(6) 0.12522(15)
Zn2 Zn 0.276485(16) 0.139082(11) 0.08951(3)
Zn3 Zn 0.449322(14) 0.138667(10) 0.10585(2)
S1 S 0.29875(4) 0.0000 0.05212(8)
S2 S 0.40567(4) -0.0000 0.06204(7)
O26 O 0.51113(12) 0.15755(10) 0.2353(3)
O28 O 0.49496(11) 0.17359(10) 0.1149(2)
Zn11 Zn 0.276994(13) 0.138712(10) 0.78423(2)
C3 C 0.41437(14) 0.16248(10) 0.9275(3)
H3 H 0.4415 0.1717 0.9378
C4 C 0.37528(15) 0.16338(10) 0.8557(3)
H4 H 0.3706 0.1736 0.8079
C5 C 0.21842(16) 0.16900(13) 0.8440(3)
H5 H 0.1986 0.1805 0.7955
C6 C 0.21688(17) 0.16842(13) 0.9145(3)
H6 H 0.1955 0.1789 0.9224
C34 C 0.25751(14) 0.01794(8) 0.7126(2)
H21 H 0.2444 0.0311 0.6649
C35 C 0.27858(11) 0.03162(8) 0.78936(19)
C36 C 0.28455(11) 0.06798(9) 0.8136(3)
N4 N 0.40801(10) 0.14597(7) 0.98244(17)
N5 N 0.36487(10) 0.13693(6) 0.94230(17)
N6 N 0.34404(9) 0.14719(7) 0.86376(17)
N7 N 0.25353(10) 0.15009(8) 0.85795(19)
N8 N 0.27438(9) 0.13853(7) 0.93445(18)
N9 N 0.25259(12) 0.14965(8) 0.96991(19)
O11 O 0.30587(7) 0.07436(5) 0.88915(14)
O12 O 0.26848(8) 0.09015(6) 0.75660(14)
Zn1 Zn 0.334249(12) 0.105938(9) 0.99281(2)
S3 S 0.29884(4) 0.0000 0.86219(7)
S1_2 S 0.29875(4) 1.0000 0.05212(8)
S2_2 S 0.40567(4) 1.0000 0.06204(7)
C37 C 0.25253(18) 0.98186(10) 0.1127(3)
H22 H 0.2375 0.9685 0.1312
C38 C 0.27729(13) 0.96868(9) 0.0821(2)
C39 C 0.28459(14) 0.93222(10) 0.0720(2)
O13 O 0.26825(10) 0.91005(7) 0.09797(18)
O14 O 0.30680(8) 0.92635(5) 0.03979(14)
C40 C 0.48780(12) 0.98208(8) 0.1586(2)
H23 H 0.5136 0.9688 0.1888
C41 C 0.44560(11) 0.96861(7) 0.1091(2)
C42 C 0.43135(14) 0.93234(9) 0.0924(2)
O15 O 0.39126(8) 0.92565(5) 0.04770(14)
O16 O 0.46269(8) 0.91051(6) 0.12522(15)
C46 C 0.3717(2) 0.83275(14) 0.2051(3)
H25 H 0.3659 0.8219 0.2420
C47 C 0.41151(19) 0.83251(12) 0.2083(3)
H26 H 0.4379 0.8216 0.2477
C52 C 0.18831(12) 0.77823(9) 0.2893(2)
C53 C 0.19289(13) 0.81247(10) 0.2802(2)
H31 H 0.1835 0.8285 0.3043
C54 C 0.21182(14) 0.82376(10) 0.2344(3)
H32 H 0.2150 0.8471 0.2284
C55 C 0.22543(12) 0.79980(11) 0.1987(2)
C56 C 0.22022(13) 0.76565(10) 0.2074(2)
H33 H 0.2291 0.7495 0.1829
C57 C 0.20184(13) 0.75504(9) 0.2525(2)
H34 H 0.1985 0.7317 0.2580
C58 C 0.24708(15) 0.81293(14) 0.1519(3)
C59 C 0.13225(13) 0.74434(9) 0.2992(2)
C60 C 0.09962(13) 0.74673(9) 0.2161(2)
H35 H 0.1019 0.7633 0.1834
C61 C 0.06271(13) 0.72351(12) 0.1816(3)
H36 H 0.0408 0.7250 0.1260
C62 C 0.05875(15) 0.69845(11) 0.2302(3)
C63 C 0.08952(16) 0.69777(11) 0.3089(3)
H37 H 0.0864 0.6821 0.3424
C64 C 0.12655(13) 0.71968(10) 0.3442(2)
H38 H 0.1481 0.7175 0.3998
C65 C 0.01816(19) 0.67497(13) 0.1878(4)
C66 C 0.18460(14) 0.78170(9) 0.4132(2)
C67 C 0.22908(14) 0.78922(9) 0.4656(2)
H39 H 0.2496 0.7840 0.4501
C68 C 0.24424(14) 0.80439(10) 0.5407(2)
H40 H 0.2747 0.8094 0.5752
C69 C 0.21456(18) 0.81215(10) 0.5645(3)
C70 C 0.17023(17) 0.80496(11) 0.5130(3)
H41 H 0.1498 0.8103 0.5287
C71 C 0.15507(14) 0.78978(11) 0.4377(2)
H42 H 0.1246 0.7850 0.4032
C72 C 0.2328(2) 0.82958(11) 0.6484(3)
N11 N 0.34210(11) 0.85135(8) 0.1394(2)
N12 N 0.36426(11) 0.86180(6) 0.10303(16)
N13 N 0.40591(11) 0.85089(8) 0.1438(2)
N20 N 0.16880(10) 0.76730(8) 0.33514(18)
O19 O 0.24932(11) 0.84439(8) 0.14690(19)
O20 O 0.26040(14) 0.79226(10) 0.1220(2)
O21 O 0.01113(12) 0.65755(10) 0.2353(3)
O23 O 0.27248(12) 0.83546(7) 0.69176(16)
O24 O 0.20447(14) 0.83804(10) 0.6667(2)
Zn6 Zn 0.276485(16) 0.860918(11) 0.08951(3)
Zn7 Zn 0.449322(14) 0.861333(10) 0.10585(2)
O25 O 0.51113(12) 0.84245(10) 0.2353(3)
O27 O 0.49496(11) 0.82641(10) 0.1149(2)
Zn12 Zn 0.276994(13) 0.861288(10) 0.78423(2)
S3_2 S 0.29884(4) 1.0000 0.86219(7)
C43 C 0.25751(14) 0.98206(8) 0.7126(2)
H24 H 0.2444 0.9689 0.6649
C44 C 0.27858(11) 0.96838(8) 0.78936(19)
C45 C 0.28455(11) 0.93202(9) 0.8136(3)
O17 O 0.30587(7) 0.92564(5) 0.88915(14)
O18 O 0.26848(8) 0.90985(6) 0.75660(14)
C48 C 0.41437(14) 0.83752(10) 0.9275(3)
H27 H 0.4415 0.8283 0.9378
C49 C 0.37528(15) 0.83662(10) 0.8557(3)
H28 H 0.3706 0.8264 0.8079
C50 C 0.21842(16) 0.83100(13) 0.8440(3)
H29 H 0.1986 0.8195 0.7955
C51 C 0.21688(17) 0.83158(13) 0.9145(3)
H30 H 0.1955 0.8211 0.9224
N14 N 0.40801(10) 0.85403(7) 0.98244(17)
N15 N 0.36487(10) 0.86307(6) 0.94230(17)
N16 N 0.34404(9) 0.85281(7) 0.86376(17)
N17 N 0.25353(10) 0.84991(8) 0.85795(19)
N18 N 0.27438(9) 0.86147(7) 0.93445(18)
N19 N 0.25259(12) 0.85035(8) 0.96991(19)
Zn5 Zn 0.334249(12) 0.894062(9) 0.99281(2)
O4 O 0.99496(11) 0.32641(10) 0.1149(2)
Zn10 Zn 0.949322(14) 0.361333(10) 0.10585(2)
O22 O 0.99496(11) 0.67359(10) 0.1149(2)
Zn9 Zn 0.949322(14) 0.638667(10) 0.10585(2)
H20_2 H 0.0136 0.5312 0.1888
H23_2 H 0.0136 0.4688 0.1888
C1_2 C 0.8717(2) 0.66725(14) 0.2051(3)
H1_2 H 0.8659 0.6781 0.2420
C2_2 C 0.91151(19) 0.66749(12) 0.2083(3)
H2_2 H 0.9379 0.6784 0.2477
C7_2 C 0.68831(12) 0.72177(9) 0.2893(2)
C8_2 C 0.69289(13) 0.68753(10) 0.2802(2)
H7_2 H 0.6835 0.6715 0.3043
C9_2 C 0.71182(14) 0.67624(10) 0.2344(3)
H8_2 H 0.7150 0.6529 0.2284
C10_2 C 0.72543(12) 0.70020(11) 0.1987(2)
C11_2 C 0.72022(13) 0.73435(10) 0.2074(2)
H9_2 H 0.7291 0.7505 0.1829
C12_2 C 0.70184(13) 0.74496(9) 0.2525(2)
H10_2 H 0.6985 0.7683 0.2580
C13_2 C 0.74708(15) 0.68707(14) 0.1519(3)
C14_2 C 0.63225(13) 0.75566(9) 0.2992(2)
C15_2 C 0.59962(13) 0.75327(9) 0.2161(2)
H11_2 H 0.6019 0.7367 0.1834
C16_2 C 0.56271(13) 0.77649(12) 0.1816(3)
H12_2 H 0.5408 0.7750 0.1260
C17_2 C 0.55875(15) 0.80155(11) 0.2302(3)
C18_2 C 0.58952(16) 0.80223(11) 0.3089(3)
H13_2 H 0.5864 0.8179 0.3424
C19_2 C 0.62655(13) 0.78032(10) 0.3442(2)
H14_2 H 0.6481 0.7825 0.3998
C20_2 C 0.51816(19) 0.82503(13) 0.1878(4)
C21_2 C 0.68460(14) 0.71830(9) 0.4132(2)
C22_2 C 0.72908(14) 0.71078(9) 0.4656(2)
H15_2 H 0.7496 0.7160 0.4501
C23_2 C 0.74424(14) 0.69561(10) 0.5407(2)
H16_2 H 0.7747 0.6906 0.5752
C24_2 C 0.71456(18) 0.68785(10) 0.5645(3)
C25_2 C 0.67023(17) 0.69504(11) 0.5130(3)
H17_2 H 0.6498 0.6897 0.5287
C26_2 C 0.65507(14) 0.71022(11) 0.4377(2)
H18_2 H 0.6246 0.7150 0.4032
C27_2 C 0.7328(2) 0.67042(11) 0.6484(3)
C28_2 C 0.75253(18) 0.51814(10) 0.1127(3)
H19_2 H 0.7375 0.5315 0.1312
C29_2 C 0.77729(13) 0.53132(9) 0.0821(2)
C30_2 C 0.78459(14) 0.56778(10) 0.0720(2)
C31_2 C 0.98780(12) 0.51792(8) 0.1586(2)
C32_2 C 0.94560(11) 0.53139(7) 0.1091(2)
C33_2 C 0.93135(14) 0.56766(9) 0.0924(2)
N1_2 N 0.84210(11) 0.64865(8) 0.1394(2)
N2_2 N 0.86426(11) 0.63820(6) 0.10303(16)
N3_2 N 0.90591(11) 0.64911(8) 0.1438(2)
N10_2 N 0.66880(10) 0.73270(8) 0.33514(18)
O1_2 O 0.74932(11) 0.65561(8) 0.14690(19)
O2_2 O 0.76040(14) 0.70774(10) 0.1220(2)
O5_2 O 0.77248(12) 0.66454(7) 0.69176(16)
O6_2 O 0.70447(14) 0.66196(10) 0.6667(2)
O7_2 O 0.76825(10) 0.58995(7) 0.09797(18)
O8_2 O 0.80680(8) 0.57365(5) 0.03979(14)
O9_2 O 0.89126(8) 0.57435(5) 0.04770(14)
O10_2 O 0.96269(8) 0.58949(6) 0.12522(15)
Zn2_2 Zn 0.776485(16) 0.639082(11) 0.08951(3)
S1_3 S 0.79875(4) 0.5000 0.05212(8)
S2_3 S 0.90567(4) 0.5000 0.06204(7)
C37_2 C 0.75253(18) 0.48186(10) 0.1127(3)
H22_2 H 0.7375 0.4685 0.1312
C38_2 C 0.77729(13) 0.46868(9) 0.0821(2)
C39_2 C 0.78459(14) 0.43222(10) 0.0720(2)
O13_2 O 0.76825(10) 0.41005(7) 0.09797(18)
O14_2 O 0.80680(8) 0.42635(5) 0.03979(14)
C40_2 C 0.98780(12) 0.48208(8) 0.1586(2)
C41_2 C 0.94560(11) 0.46861(7) 0.1091(2)
C42_2 C 0.93135(14) 0.43234(9) 0.0924(2)
O15_2 O 0.89126(8) 0.42565(5) 0.04770(14)
O16_2 O 0.96269(8) 0.41051(6) 0.12522(15)
C46_2 C 0.8717(2) 0.33275(14) 0.2051(3)
H25_2 H 0.8659 0.3219 0.2420
C47_2 C 0.91151(19) 0.33251(12) 0.2083(3)
H26_2 H 0.9379 0.3216 0.2477
C52_2 C 0.68831(12) 0.27823(9) 0.2893(2)
C53_2 C 0.69289(13) 0.31247(10) 0.2802(2)
H31_2 H 0.6835 0.3285 0.3043
C54_2 C 0.71182(14) 0.32376(10) 0.2344(3)
H32_2 H 0.7150 0.3471 0.2284
C55_2 C 0.72543(12) 0.29980(11) 0.1987(2)
C56_2 C 0.72022(13) 0.26565(10) 0.2074(2)
H33_2 H 0.7291 0.2495 0.1829
C57_2 C 0.70184(13) 0.25504(9) 0.2525(2)
H34_2 H 0.6985 0.2317 0.2580
C58_2 C 0.74708(15) 0.31293(14) 0.1519(3)
C59_2 C 0.63225(13) 0.24434(9) 0.2992(2)
C60_2 C 0.59962(13) 0.24673(9) 0.2161(2)
H35_2 H 0.6019 0.2633 0.1834
C61_2 C 0.56271(13) 0.22351(12) 0.1816(3)
H36_2 H 0.5408 0.2250 0.1260
C62_2 C 0.55875(15) 0.19845(11) 0.2302(3)
C63_2 C 0.58952(16) 0.19777(11) 0.3089(3)
H37_2 H 0.5864 0.1821 0.3424
C64_2 C 0.62655(13) 0.21968(10) 0.3442(2)
H38_2 H 0.6481 0.2175 0.3998
C65_2 C 0.51816(19) 0.17497(13) 0.1878(4)
C66_2 C 0.68460(14) 0.28170(9) 0.4132(2)
C67_2 C 0.72908(14) 0.28922(9) 0.4656(2)
H39_2 H 0.7496 0.2840 0.4501
C68_2 C 0.74424(14) 0.30439(10) 0.5407(2)
H40_2 H 0.7747 0.3094 0.5752
C69_2 C 0.71456(18) 0.31215(10) 0.5645(3)
C70_2 C 0.67023(17) 0.30496(11) 0.5130(3)
H41_2 H 0.6498 0.3103 0.5287
C71_2 C 0.65507(14) 0.28978(11) 0.4377(2)
H42_2 H 0.6246 0.2850 0.4032
C72_2 C 0.7328(2) 0.32958(11) 0.6484(3)
N11_2 N 0.84210(11) 0.35135(8) 0.1394(2)
N12_2 N 0.86426(11) 0.36180(6) 0.10303(16)
N13_2 N 0.90591(11) 0.35089(8) 0.1438(2)
N20_2 N 0.66880(10) 0.26730(8) 0.33514(18)
O19_2 O 0.74932(11) 0.34439(8) 0.14690(19)
O20_2 O 0.76040(14) 0.29226(10) 0.1220(2)
O23_2 O 0.77248(12) 0.33546(7) 0.69176(16)
O24_2 O 0.70447(14) 0.33804(10) 0.6667(2)
Zn6_2 Zn 0.776485(16) 0.360918(11) 0.08951(3)
Zn11_2 Zn 0.776994(13) 0.638712(10) 0.78423(2)
Zn12_2 Zn 0.776994(13) 0.361288(10) 0.78423(2)
C3_2 C 0.91437(14) 0.66248(10) 0.9275(3)
H3_2 H 0.9415 0.6717 0.9378
C4_2 C 0.87528(15) 0.66338(10) 0.8557(3)
H4_2 H 0.8706 0.6736 0.8079
C5_2 C 0.71842(16) 0.66900(13) 0.8440(3)
H5_2 H 0.6986 0.6805 0.7955
C6_2 C 0.71688(17) 0.66842(13) 0.9145(3)
H6_2 H 0.6955 0.6789 0.9224
C34_2 C 0.75751(14) 0.51794(8) 0.7126(2)
H21_2 H 0.7444 0.5311 0.6649
C35_2 C 0.77858(11) 0.53162(8) 0.78936(19)
C36_2 C 0.78455(11) 0.56798(9) 0.8136(3)
N4_2 N 0.90801(10) 0.64597(7) 0.98244(17)
N5_2 N 0.86487(10) 0.63693(6) 0.94230(17)
N6_2 N 0.84404(9) 0.64719(7) 0.86376(17)
N7_2 N 0.75353(10) 0.65009(8) 0.85795(19)
N8_2 N 0.77438(9) 0.63853(7) 0.93445(18)
N9_2 N 0.75259(12) 0.64965(8) 0.96991(19)
O11_2 O 0.80587(7) 0.57436(5) 0.88915(14)
O12_2 O 0.76848(8) 0.59015(6) 0.75660(14)
Zn1_2 Zn 0.834249(12) 0.605938(9) 0.99281(2)
S3_3 S 0.79884(4) 0.5000 0.86219(7)
C43_2 C 0.75751(14) 0.48206(8) 0.7126(2)
H24_2 H 0.7444 0.4689 0.6649
C44_2 C 0.77858(11) 0.46838(8) 0.78936(19)
C45_2 C 0.78455(11) 0.43202(9) 0.8136(3)
O17_2 O 0.80587(7) 0.42564(5) 0.88915(14)
O18_2 O 0.76848(8) 0.40985(6) 0.75660(14)
C48_2 C 0.91437(14) 0.33752(10) 0.9275(3)
H27_2 H 0.9415 0.3283 0.9378
C49_2 C 0.87528(15) 0.33662(10) 0.8557(3)
H28_2 H 0.8706 0.3264 0.8079
C50_2 C 0.71842(16) 0.33100(13) 0.8440(3)
H29_2 H 0.6986 0.3195 0.7955
C51_2 C 0.71688(17) 0.33158(13) 0.9145(3)
H30_2 H 0.6955 0.3211 0.9224
N14_2 N 0.90801(10) 0.35403(7) 0.98244(17)
N15_2 N 0.86487(10) 0.36307(6) 0.94230(17)
N16_2 N 0.84404(9) 0.35281(7) 0.86376(17)
N17_2 N 0.75353(10) 0.34991(8) 0.85795(19)
N18_2 N 0.77438(9) 0.36147(7) 0.93445(18)
N19_2 N 0.75259(12) 0.35035(8) 0.96991(19)
Zn5_2 Zn 0.834249(12) 0.394062(9) 0.99281(2)
O4_2 O 0.00504(11) 0.32641(10) 0.8851(2)
Zn10_2 Zn 0.050678(14) 0.361333(10) 0.89415(2)
O22_2 O 0.00504(11) 0.67359(10) 0.8851(2)
Zn9_2 Zn 0.050678(14) 0.638667(10) 0.89415(2)
C3_3 C 0.58563(14) 0.16248(10) 0.0725(3)
H3_3 H 0.5585 0.1717 0.0622
C4_3 C 0.62472(15) 0.16338(10) 0.1443(3)
H4_3 H 0.6294 0.1736 0.1921
C5_3 C 0.78158(16) 0.16900(13) 0.1560(3)
H5_3 H 0.8014 0.1805 0.2045
C6_3 C 0.78312(17) 0.16842(13) 0.0855(3)
H6_3 H 0.8045 0.1789 0.0776
C34_3 C 0.74249(14) 0.01794(8) 0.2874(2)
H21_3 H 0.7556 0.0311 0.3351
C35_3 C 0.72142(11) 0.03162(8) 0.21064(19)
C36_3 C 0.71545(11) 0.06798(9) 0.1864(3)
N4_3 N 0.59199(10) 0.14597(7) 0.01756(17)
N5_3 N 0.63513(10) 0.13693(6) 0.05770(17)
N6_3 N 0.65596(9) 0.14719(7) 0.13624(17)
N7_3 N 0.74647(10) 0.15009(8) 0.14205(19)
N8_3 N 0.72562(9) 0.13853(7) 0.06555(18)
N9_3 N 0.74741(12) 0.14965(8) 0.03009(19)
O11_3 O 0.69413(7) 0.07436(5) 0.11085(14)
O12_3 O 0.73152(8) 0.09015(6) 0.24340(14)
Zn1_3 Zn 0.665751(12) 0.105938(9) 0.00719(2)
Zn4 Zn 0.723006(13) 0.138712(10) 0.21577(2)
S3_4 S 0.70116(4) 0.0000 0.13781(7)
O29 O 0.72752(12) 0.16454(7) 0.30824(16)
O31 O 0.79553(14) 0.16196(10) 0.3333(2)
C1_3 C 0.6283(2) 0.16725(14) 0.7949(3)
H1_3 H 0.6341 0.1781 0.7580
C2_3 C 0.58849(19) 0.16749(12) 0.7917(3)
H2_3 H 0.5621 0.1784 0.7523
C7_3 C 0.81169(12) 0.22177(9) 0.7107(2)
C8_3 C 0.80711(13) 0.18753(10) 0.7198(2)
H7_3 H 0.8165 0.1715 0.6957
C9_3 C 0.78818(14) 0.17624(10) 0.7656(3)
H8_3 H 0.7850 0.1529 0.7716
C10_3 C 0.77457(12) 0.20020(11) 0.8013(2)
C11_3 C 0.77978(13) 0.23435(10) 0.7926(2)
H9_3 H 0.7709 0.2505 0.8171
C12_3 C 0.79816(13) 0.24496(9) 0.7475(2)
H10_3 H 0.8015 0.2683 0.7420
C13_3 C 0.75292(15) 0.18707(14) 0.8481(3)
C14_3 C 0.86775(13) 0.25566(9) 0.7008(2)
C15_3 C 0.90038(13) 0.25327(9) 0.7839(2)
H11_3 H 0.8981 0.2367 0.8166
C16_3 C 0.93729(13) 0.27649(12) 0.8184(3)
H12_3 H 0.9592 0.2750 0.8740
C17_3 C 0.94125(15) 0.30155(11) 0.7698(3)
C18_3 C 0.91048(16) 0.30223(11) 0.6911(3)
H13_3 H 0.9136 0.3179 0.6576
C19_3 C 0.87345(13) 0.28032(10) 0.6558(2)
H14_3 H 0.8519 0.2825 0.6002
C20_3 C 0.98184(19) 0.32503(13) 0.8122(4)
C21_3 C 0.81540(14) 0.21830(9) 0.5868(2)
C22_3 C 0.77092(14) 0.21078(9) 0.5344(2)
H15_3 H 0.7504 0.2160 0.5499
C23_3 C 0.75576(14) 0.19561(10) 0.4593(2)
H16_3 H 0.7253 0.1906 0.4248
C24_3 C 0.78544(18) 0.18785(10) 0.4355(3)
C25_3 C 0.82977(17) 0.19504(11) 0.4870(3)
H17_3 H 0.8502 0.1897 0.4713
C26_3 C 0.84493(14) 0.21022(11) 0.5623(2)
H18_3 H 0.8754 0.2150 0.5968
C27_3 C 0.7672(2) 0.17042(11) 0.3516(3)
C28_3 C 0.74747(18) 0.01814(10) 0.8873(3)
H19_3 H 0.7625 0.0315 0.8688
C29_3 C 0.72271(13) 0.03132(9) 0.9179(2)
C30_3 C 0.71541(14) 0.06778(10) 0.9280(2)
C31_3 C 0.51220(12) 0.01792(8) 0.8414(2)
H20_3 H 0.4864 0.0312 0.8112
C32_3 C 0.55440(11) 0.03139(7) 0.8909(2)
C33_3 C 0.56865(14) 0.06766(9) 0.9076(2)
N1_3 N 0.65790(11) 0.14865(8) 0.8606(2)
N2_3 N 0.63574(11) 0.13820(6) 0.89697(16)
N3_3 N 0.59409(11) 0.14911(8) 0.8562(2)
N10_3 N 0.83120(10) 0.23270(8) 0.66486(18)
O1_3 O 0.75068(11) 0.15561(8) 0.85310(19)
O2_3 O 0.73960(14) 0.20774(10) 0.8780(2)
O3_2 O 0.98887(12) 0.34245(10) 0.7647(3)
O7_3 O 0.73175(10) 0.08995(7) 0.90203(18)
O8_3 O 0.69320(8) 0.07365(5) 0.96021(14)
O9_3 O 0.60874(8) 0.07435(5) 0.95230(14)
O10_3 O 0.53731(8) 0.08949(6) 0.87478(15)
Zn2_3 Zn 0.723515(16) 0.139082(11) 0.91049(3)
Zn3_2 Zn 0.550678(14) 0.138667(10) 0.89415(2)
S1_4 S 0.70125(4) 0.0000 0.94788(8)
S2_4 S 0.59433(4) -0.0000 0.93796(7)
O26_2 O 0.48887(12) 0.15755(10) 0.7647(3)
O28_2 O 0.50504(11) 0.17359(10) 0.8851(2)
S3_5 S 0.70116(4) 1.0000 0.13781(7)
C43_3 C 0.74249(14) 0.98206(8) 0.2874(2)
H24_3 H 0.7556 0.9689 0.3351
C44_3 C 0.72142(11) 0.96838(8) 0.21064(19)
C45_3 C 0.71545(11) 0.93202(9) 0.1864(3)
O17_3 O 0.69413(7) 0.92564(5) 0.11085(14)
O18_3 O 0.73152(8) 0.90985(6) 0.24340(14)
C48_3 C 0.58563(14) 0.83752(10) 0.0725(3)
H27_3 H 0.5585 0.8283 0.0622
C49_3 C 0.62472(15) 0.83662(10) 0.1443(3)
H28_3 H 0.6294 0.8264 0.1921
C50_3 C 0.78158(16) 0.83100(13) 0.1560(3)
H29_3 H 0.8014 0.8195 0.2045
C51_3 C 0.78312(17) 0.83158(13) 0.0855(3)
H30_3 H 0.8045 0.8211 0.0776
N14_3 N 0.59199(10) 0.85403(7) 0.01756(17)
N15_3 N 0.63513(10) 0.86307(6) 0.05770(17)
N16_3 N 0.65596(9) 0.85281(7) 0.13624(17)
N17_3 N 0.74647(10) 0.84991(8) 0.14205(19)
N18_3 N 0.72562(9) 0.86147(7) 0.06555(18)
N19_3 N 0.74741(12) 0.85035(8) 0.03009(19)
Zn5_3 Zn 0.665751(12) 0.894062(9) 0.00719(2)
Zn8 Zn 0.723006(13) 0.861288(10) 0.21577(2)
O30 O 0.72752(12) 0.83546(7) 0.30824(16)
O32 O 0.79553(14) 0.83804(10) 0.3333(2)
S1_5 S 0.70125(4) 1.0000 0.94788(8)
S2_5 S 0.59433(4) 1.0000 0.93796(7)
C37_3 C 0.74747(18) 0.98186(10) 0.8873(3)
H22_3 H 0.7625 0.9685 0.8688
C38_3 C 0.72271(13) 0.96868(9) 0.9179(2)
C39_3 C 0.71541(14) 0.93222(10) 0.9280(2)
O13_3 O 0.73175(10) 0.91005(7) 0.90203(18)
O14_3 O 0.69320(8) 0.92635(5) 0.96021(14)
C40_3 C 0.51220(12) 0.98208(8) 0.8414(2)
H23_3 H 0.4864 0.9688 0.8112
C41_3 C 0.55440(11) 0.96861(7) 0.8909(2)
C42_3 C 0.56865(14) 0.93234(9) 0.9076(2)
O15_3 O 0.60874(8) 0.92565(5) 0.95230(14)
O16_3 O 0.53731(8) 0.91051(6) 0.87478(15)
C46_3 C 0.6283(2) 0.83275(14) 0.7949(3)
H25_3 H 0.6341 0.8219 0.7580
C47_3 C 0.58849(19) 0.83251(12) 0.7917(3)
H26_3 H 0.5621 0.8216 0.7523
C52_3 C 0.81169(12) 0.77823(9) 0.7107(2)
C53_3 C 0.80711(13) 0.81247(10) 0.7198(2)
H31_3 H 0.8165 0.8285 0.6957
C54_3 C 0.78818(14) 0.82376(10) 0.7656(3)
H32_3 H 0.7850 0.8471 0.7716
C55_3 C 0.77457(12) 0.79980(11) 0.8013(2)
C56_3 C 0.77978(13) 0.76565(10) 0.7926(2)
H33_3 H 0.7709 0.7495 0.8171
C57_3 C 0.79816(13) 0.75504(9) 0.7475(2)
H34_3 H 0.8015 0.7317 0.7420
C58_3 C 0.75292(15) 0.81293(14) 0.8481(3)
C59_3 C 0.86775(13) 0.74434(9) 0.7008(2)
C60_3 C 0.90038(13) 0.74673(9) 0.7839(2)
H35_3 H 0.8981 0.7633 0.8166
C61_3 C 0.93729(13) 0.72351(12) 0.8184(3)
H36_3 H 0.9592 0.7250 0.8740
C62_3 C 0.94125(15) 0.69845(11) 0.7698(3)
C63_3 C 0.91048(16) 0.69777(11) 0.6911(3)
H37_3 H 0.9136 0.6821 0.6576
C64_3 C 0.87345(13) 0.71968(10) 0.6558(2)
H38_3 H 0.8519 0.7175 0.6002
C65_3 C 0.98184(19) 0.67497(13) 0.8122(4)
C66_3 C 0.81540(14) 0.78170(9) 0.5868(2)
C67_3 C 0.77092(14) 0.78922(9) 0.5344(2)
H39_3 H 0.7504 0.7840 0.5499
C68_3 C 0.75576(14) 0.80439(10) 0.4593(2)
H40_3 H 0.7253 0.8094 0.4248
C69_3 C 0.78544(18) 0.81215(10) 0.4355(3)
C70_3 C 0.82977(17) 0.80496(11) 0.4870(3)
H41_3 H 0.8502 0.8103 0.4713
C71_3 C 0.84493(14) 0.78978(11) 0.5623(2)
H42_3 H 0.8754 0.7850 0.5968
C72_3 C 0.7672(2) 0.82958(11) 0.3516(3)
N11_3 N 0.65790(11) 0.85135(8) 0.8606(2)
N12_3 N 0.63574(11) 0.86180(6) 0.89697(16)
N13_3 N 0.59409(11) 0.85089(8) 0.8562(2)
N20_3 N 0.83120(10) 0.76730(8) 0.66486(18)
O19_3 O 0.75068(11) 0.84439(8) 0.85310(19)
O20_3 O 0.73960(14) 0.79226(10) 0.8780(2)
O21_2 O 0.98887(12) 0.65755(10) 0.7647(3)
Zn6_3 Zn 0.723515(16) 0.860918(11) 0.91049(3)
Zn7_2 Zn 0.550678(14) 0.861333(10) 0.89415(2)
O25_2 O 0.48887(12) 0.84245(10) 0.7647(3)
O27_2 O 0.50504(11) 0.82641(10) 0.8851(2)
C3_4 C 0.08563(14) 0.66248(10) 0.0725(3)
H3_4 H 0.0585 0.6717 0.0622
C4_4 C 0.12472(15) 0.66338(10) 0.1443(3)
H4_4 H 0.1294 0.6736 0.1921
C5_4 C 0.28158(16) 0.66900(13) 0.1560(3)
H5_4 H 0.3014 0.6805 0.2045
C6_4 C 0.28312(17) 0.66842(13) 0.0855(3)
H6_4 H 0.3045 0.6789 0.0776
C34_4 C 0.24249(14) 0.51794(8) 0.2874(2)
H21_4 H 0.2556 0.5311 0.3351
C35_4 C 0.22142(11) 0.53162(8) 0.21064(19)
C36_4 C 0.21545(11) 0.56798(9) 0.1864(3)
N4_4 N 0.09199(10) 0.64597(7) 0.01756(17)
N5_4 N 0.13513(10) 0.63693(6) 0.05770(17)
N6_4 N 0.15596(9) 0.64719(7) 0.13624(17)
N7_4 N 0.24647(10) 0.65009(8) 0.14205(19)
N8_4 N 0.22562(9) 0.63853(7) 0.06555(18)
N9_4 N 0.24741(12) 0.64965(8) 0.03009(19)
O11_4 O 0.19413(7) 0.57436(5) 0.11085(14)
O12_4 O 0.23152(8) 0.59015(6) 0.24340(14)
Zn1_4 Zn 0.165751(12) 0.605938(9) 0.00719(2)
Zn4_2 Zn 0.223006(13) 0.638712(10) 0.21577(2)
S3_6 S 0.20116(4) 0.5000 0.13781(7)
C43_4 C 0.24249(14) 0.48206(8) 0.2874(2)
H24_4 H 0.2556 0.4689 0.3351
C44_4 C 0.22142(11) 0.46838(8) 0.21064(19)
C45_4 C 0.21545(11) 0.43202(9) 0.1864(3)
O17_4 O 0.19413(7) 0.42564(5) 0.11085(14)
O18_4 O 0.23152(8) 0.40985(6) 0.24340(14)
C48_4 C 0.08563(14) 0.33752(10) 0.0725(3)
H27_4 H 0.0585 0.3283 0.0622
C49_4 C 0.12472(15) 0.33662(10) 0.1443(3)
H28_4 H 0.1294 0.3264 0.1921
C50_4 C 0.28158(16) 0.33100(13) 0.1560(3)
H29_4 H 0.3014 0.3195 0.2045
C51_4 C 0.28312(17) 0.33158(13) 0.0855(3)
H30_4 H 0.3045 0.3211 0.0776
N14_4 N 0.09199(10) 0.35403(7) 0.01756(17)
N15_4 N 0.13513(10) 0.36307(6) 0.05770(17)
N16_4 N 0.15596(9) 0.35281(7) 0.13624(17)
N17_4 N 0.24647(10) 0.34991(8) 0.14205(19)
N18_4 N 0.22562(9) 0.36147(7) 0.06555(18)
N19_4 N 0.24741(12) 0.35035(8) 0.03009(19)
Zn5_4 Zn 0.165751(12) 0.394062(9) 0.00719(2)
Zn8_2 Zn 0.223006(13) 0.361288(10) 0.21577(2)
O29_2 O 0.22752(12) 0.66454(7) 0.30824(16)
O30_2 O 0.22752(12) 0.33546(7) 0.30824(16)
O31_2 O 0.29553(14) 0.66196(10) 0.3333(2)
O32_2 O 0.29553(14) 0.33804(10) 0.3333(2)
C1_4 C 0.1283(2) 0.66725(14) 0.7949(3)
H1_4 H 0.1341 0.6781 0.7580
C2_4 C 0.08849(19) 0.66749(12) 0.7917(3)
H2_4 H 0.0621 0.6784 0.7523
C7_4 C 0.31169(12) 0.72177(9) 0.7107(2)
C8_4 C 0.30711(13) 0.68753(10) 0.7198(2)
H7_4 H 0.3165 0.6715 0.6957
C9_4 C 0.28818(14) 0.67624(10) 0.7656(3)
H8_4 H 0.2850 0.6529 0.7716
C10_4 C 0.27457(12) 0.70020(11) 0.8013(2)
C11_4 C 0.27978(13) 0.73435(10) 0.7926(2)
H9_4 H 0.2709 0.7505 0.8171
C12_4 C 0.29816(13) 0.74496(9) 0.7475(2)
H10_4 H 0.3015 0.7683 0.7420
C13_4 C 0.25292(15) 0.68707(14) 0.8481(3)
C14_4 C 0.36775(13) 0.75566(9) 0.7008(2)
C15_4 C 0.40038(13) 0.75327(9) 0.7839(2)
H11_4 H 0.3981 0.7367 0.8166
C16_4 C 0.43729(13) 0.77649(12) 0.8184(3)
H12_4 H 0.4592 0.7750 0.8740
C17_4 C 0.44125(15) 0.80155(11) 0.7698(3)
C18_4 C 0.41048(16) 0.80223(11) 0.6911(3)
H13_4 H 0.4136 0.8179 0.6576
C19_4 C 0.37345(13) 0.78032(10) 0.6558(2)
H14_4 H 0.3519 0.7825 0.6002
C20_4 C 0.48184(19) 0.82503(13) 0.8122(4)
C21_4 C 0.31540(14) 0.71830(9) 0.5868(2)
C22_4 C 0.27092(14) 0.71078(9) 0.5344(2)
H15_4 H 0.2504 0.7160 0.5499
C23_4 C 0.25576(14) 0.69561(10) 0.4593(2)
H16_4 H 0.2253 0.6906 0.4248
C24_4 C 0.28544(18) 0.68785(10) 0.4355(3)
C25_4 C 0.32977(17) 0.69504(11) 0.4870(3)
H17_4 H 0.3502 0.6897 0.4713
C26_4 C 0.34493(14) 0.71022(11) 0.5623(2)
H18_4 H 0.3754 0.7150 0.5968
C27_4 C 0.2672(2) 0.67042(11) 0.3516(3)
C28_4 C 0.24747(18) 0.51814(10) 0.8873(3)
H19_4 H 0.2625 0.5315 0.8688
C29_4 C 0.22271(13) 0.53132(9) 0.9179(2)
C30_4 C 0.21541(14) 0.56778(10) 0.9280(2)
C31_4 C 0.01220(12) 0.51792(8) 0.8414(2)
C32_4 C 0.05440(11) 0.53139(7) 0.8909(2)
C33_4 C 0.06865(14) 0.56766(9) 0.9076(2)
N1_4 N 0.15790(11) 0.64865(8) 0.8606(2)
N2_4 N 0.13574(11) 0.63820(6) 0.89697(16)
N3_4 N 0.09409(11) 0.64911(8) 0.8562(2)
N10_4 N 0.33120(10) 0.73270(8) 0.66486(18)
O1_4 O 0.25068(11) 0.65561(8) 0.85310(19)
O2_4 O 0.23960(14) 0.70774(10) 0.8780(2)
O7_4 O 0.23175(10) 0.58995(7) 0.90203(18)
O8_4 O 0.19320(8) 0.57365(5) 0.96021(14)
O9_4 O 0.10874(8) 0.57435(5) 0.95230(14)
O10_4 O 0.03731(8) 0.58949(6) 0.87478(15)
Zn2_4 Zn 0.223515(16) 0.639082(11) 0.91049(3)
S1_6 S 0.20125(4) 0.5000 0.94788(8)
S2_6 S 0.09433(4) 0.5000 0.93796(7)
C37_4 C 0.24747(18) 0.48186(10) 0.8873(3)
H22_4 H 0.2625 0.4685 0.8688
C38_4 C 0.22271(13) 0.46868(9) 0.9179(2)
C39_4 C 0.21541(14) 0.43222(10) 0.9280(2)
O13_4 O 0.23175(10) 0.41005(7) 0.90203(18)
O14_4 O 0.19320(8) 0.42635(5) 0.96021(14)
C40_4 C 0.01220(12) 0.48208(8) 0.8414(2)
C41_4 C 0.05440(11) 0.46861(7) 0.8909(2)
C42_4 C 0.06865(14) 0.43234(9) 0.9076(2)
O15_4 O 0.10874(8) 0.42565(5) 0.95230(14)
O16_4 O 0.03731(8) 0.41051(6) 0.87478(15)
C46_4 C 0.1283(2) 0.33275(14) 0.7949(3)
H25_4 H 0.1341 0.3219 0.7580
C47_4 C 0.08849(19) 0.33251(12) 0.7917(3)
H26_4 H 0.0621 0.3216 0.7523
C52_4 C 0.31169(12) 0.27823(9) 0.7107(2)
C53_4 C 0.30711(13) 0.31247(10) 0.7198(2)
H31_4 H 0.3165 0.3285 0.6957
C54_4 C 0.28818(14) 0.32376(10) 0.7656(3)
H32_4 H 0.2850 0.3471 0.7716
C55_4 C 0.27457(12) 0.29980(11) 0.8013(2)
C56_4 C 0.27978(13) 0.26565(10) 0.7926(2)
H33_4 H 0.2709 0.2495 0.8171
C57_4 C 0.29816(13) 0.25504(9) 0.7475(2)
H34_4 H 0.3015 0.2317 0.7420
C58_4 C 0.25292(15) 0.31293(14) 0.8481(3)
C59_4 C 0.36775(13) 0.24434(9) 0.7008(2)
C60_4 C 0.40038(13) 0.24673(9) 0.7839(2)
H35_4 H 0.3981 0.2633 0.8166
C61_4 C 0.43729(13) 0.22351(12) 0.8184(3)
H36_4 H 0.4592 0.2250 0.8740
C62_4 C 0.44125(15) 0.19845(11) 0.7698(3)
C63_4 C 0.41048(16) 0.19777(11) 0.6911(3)
H37_4 H 0.4136 0.1821 0.6576
C64_4 C 0.37345(13) 0.21968(10) 0.6558(2)
H38_4 H 0.3519 0.2175 0.6002
C65_4 C 0.48184(19) 0.17497(13) 0.8122(4)
C66_4 C 0.31540(14) 0.28170(9) 0.5868(2)
C67_4 C 0.27092(14) 0.28922(9) 0.5344(2)
H39_4 H 0.2504 0.2840 0.5499
C68_4 C 0.25576(14) 0.30439(10) 0.4593(2)
H40_4 H 0.2253 0.3094 0.4248
C69_4 C 0.28544(18) 0.31215(10) 0.4355(3)
C70_4 C 0.32977(17) 0.30496(11) 0.4870(3)
H41_4 H 0.3502 0.3103 0.4713
C71_4 C 0.34493(14) 0.28978(11) 0.5623(2)
H42_4 H 0.3754 0.2850 0.5968
C72_4 C 0.2672(2) 0.32958(11) 0.3516(3)
N11_4 N 0.15790(11) 0.35135(8) 0.8606(2)
N12_4 N 0.13574(11) 0.36180(6) 0.89697(16)
N13_4 N 0.09409(11) 0.35089(8) 0.8562(2)
N20_4 N 0.33120(10) 0.26730(8) 0.66486(18)
O19_4 O 0.25068(11) 0.34439(8) 0.85310(19)
O20_4 O 0.23960(14) 0.29226(10) 0.8780(2)
Zn6_4 Zn 0.223515(16) 0.360918(11) 0.91049(3)
H20_4 H 0.9864 0.5312 0.8112
H23_4 H 0.9864 0.4688 0.8112
loop_
_geom_bond_atom_site_label_1
_geom_bond_atom_site_label_2
_geom_bond_site_symmetry_1
_geom_bond_site_symmetry_2
C1 H1 1_555 1_555
C2 C1 1_555 1_555
H2 C2 1_555 1_555
C7 C8 1_555 1_555
C8 H7 1_555 1_555
C9 C8 1_555 1_555
H8 C9 1_555 1_555
C10 C9 1_555 1_555
C11 C10 1_555 1_555
H9 C11 1_555 1_555
C12 C7 1_555 1_555
H10 C12 1_555 1_555
C13 C10 1_555 1_555
C14 C15 1_555 1_555
C15 H11 1_555 1_555
C16 C15 1_555 1_555
H12 C16 1_555 1_555
C17 C16 1_555 1_555
C18 C17 1_555 1_555
H13 C18 1_555 1_555
C19 C14 1_555 1_555
H14 C19 1_555 1_555
C20 C17 1_555 1_555
C21 C22 1_555 1_555
C22 H15 1_555 1_555
C23 C22 1_555 1_555
H16 C23 1_555 1_555
C24 C23 1_555 1_555
C25 C24 1_555 1_555
H17 C25 1_555 1_555
C26 C21 1_555 1_555
H18 C26 1_555 1_555
C27 C24 1_555 1_555
C28 H19 1_555 1_555
C29 C28 1_555 1_555
C30 C29 1_555 1_555
C31 H20 1_555 1_555
C32 C31 1_555 1_555
C33 C32 1_555 1_555
N1 C1 1_555 1_555
N2 N1 1_555 1_555
N3 C2 1_555 1_555
N10 C7 1_555 1_555
O1 C13 1_555 1_555
O2 C13 1_555 1_555
O3 C20 1_555 1_555
O5 C27 1_555 1_555
O6 C27 1_555 1_555
O7 C30 1_555 1_555
O8 C30 1_555 1_555
O9 C33 1_555 1_555
O10 C33 1_555 1_555
Zn2 N1 1_555 1_555
Zn3 N3 1_555 1_555
S1 C29 1_555 1_555
S2 C32 1_555 1_555
O26 Zn3 1_555 1_555
O28 Zn3 1_555 1_555
Zn11 O5 1_555 1_555
C11 C12 1_555 1_555
C14 N10 1_555 1_555
C18 C19 1_555 1_555
C21 N10 1_555 1_555
C25 C26 1_555 1_555
N2 N3 1_555 1_555
O1 Zn2 1_555 1_555
O6 Zn11 1_555 1_555
O7 Zn2 1_555 1_555
O10 Zn3 1_555 1_555
C3 H3 1_555 1_555
C4 C3 1_555 1_555
H4 C4 1_555 1_555
C5 H5 1_555 1_555
C6 C5 1_555 1_555
H6 C6 1_555 1_555
C34 H21 1_555 1_555
C35 C34 1_555 1_555
C36 C35 1_555 1_555
N4 C3 1_555 1_555
N5 N4 1_555 1_555
N6 C4 1_555 1_555
N7 C5 1_555 1_555
N8 N7 1_555 1_555
N9 C6 1_555 1_555
O11 C36 1_555 1_555
O12 C36 1_555 1_555
Zn11 N6 1_555 1_555
S3 C35 1_555 1_555
N5 N6 1_555 1_555
N5 Zn1 1_555 1_555
N7 Zn11 1_555 1_555
N8 N9 1_555 1_555
N8 Zn1 1_555 1_555
O11 Zn1 1_555 1_555
O12 Zn11 1_555 1_555
H22 C37 1_555 1_555
C38 S1_2 1_555 1_555
C39 C38 1_555 1_555
O13 C39 1_555 1_555
O14 C39 1_555 1_555
H23 C40 1_555 1_555
C41 S2_2 1_555 1_555
C42 C41 1_555 1_555
O15 C42 1_555 1_555
O16 C42 1_555 1_555
C46 H25 1_555 1_555
C47 C46 1_555 1_555
H26 C47 1_555 1_555
C52 C53 1_555 1_555
C53 H31 1_555 1_555
C54 C53 1_555 1_555
H32 C54 1_555 1_555
C55 C54 1_555 1_555
C56 C55 1_555 1_555
H33 C56 1_555 1_555
C57 C52 1_555 1_555
H34 C57 1_555 1_555
C58 C55 1_555 1_555
C59 C60 1_555 1_555
C60 H35 1_555 1_555
C61 C60 1_555 1_555
H36 C61 1_555 1_555
C62 C61 1_555 1_555
C63 C62 1_555 1_555
H37 C63 1_555 1_555
C64 C59 1_555 1_555
H38 C64 1_555 1_555
C65 C62 1_555 1_555
C66 C67 1_555 1_555
C67 H39 1_555 1_555
C68 C67 1_555 1_555
H40 C68 1_555 1_555
C69 C68 1_555 1_555
C70 C69 1_555 1_555
H41 C70 1_555 1_555
C71 C66 1_555 1_555
H42 C71 1_555 1_555
C72 C69 1_555 1_555
N11 C46 1_555 1_555
N12 N11 1_555 1_555
N13 C47 1_555 1_555
N20 C52 1_555 1_555
O19 C58 1_555 1_555
O20 C58 1_555 1_555
O21 C65 1_555 1_555
O23 C72 1_555 1_555
O24 C72 1_555 1_555
Zn6 O13 1_555 1_555
Zn7 O16 1_555 1_555
O25 Zn7 1_555 1_555
O27 Zn7 1_555 1_555
Zn12 O23 1_555 1_555
C37 C38 1_555 1_555
C40 C41 1_555 1_555
C56 C57 1_555 1_555
C59 N20 1_555 1_555
C63 C64 1_555 1_555
C66 N20 1_555 1_555
C70 C71 1_555 1_555
N11 Zn6 1_555 1_555
N12 N13 1_555 1_555
N13 Zn7 1_555 1_555
O19 Zn6 1_555 1_555
O24 Zn12 1_555 1_555
H24 C43 1_555 1_555
C44 S3_2 1_555 1_555
C45 C44 1_555 1_555
O17 C45 1_555 1_555
O18 C45 1_555 1_555
C48 H27 1_555 1_555
C49 C48 1_555 1_555
H28 C49 1_555 1_555
C50 H29 1_555 1_555
C51 C50 1_555 1_555
H30 C51 1_555 1_555
N14 C48 1_555 1_555
N15 N14 1_555 1_555
N16 C49 1_555 1_555
N17 C50 1_555 1_555
N18 N17 1_555 1_555
N19 C51 1_555 1_555
Zn12 O18 1_555 1_555
C43 C44 1_555 1_555
O17 Zn5 1_555 1_555
N15 N16 1_555 1_555
N15 Zn5 1_555 1_555
N16 Zn12 1_555 1_555
N17 Zn12 1_555 1_555
N18 N19 1_555 1_555
N18 Zn5 1_555 1_555
O4 Zn10 1_555 1_555
O22 Zn9 1_555 1_555
C1_2 H1_2 1_555 1_555
C2_2 C1_2 1_555 1_555
H2_2 C2_2 1_555 1_555
C7_2 C8_2 1_555 1_555
C8_2 H7_2 1_555 1_555
C9_2 C8_2 1_555 1_555
H8_2 C9_2 1_555 1_555
C10_2 C9_2 1_555 1_555
C11_2 C10_2 1_555 1_555
H9_2 C11_2 1_555 1_555
C12_2 C7_2 1_555 1_555
H10_2 C12_2 1_555 1_555
C13_2 C10_2 1_555 1_555
C14_2 C15_2 1_555 1_555
C15_2 H11_2 1_555 1_555
C16_2 C15_2 1_555 1_555
H12_2 C16_2 1_555 1_555
C17_2 C16_2 1_555 1_555
C18_2 C17_2 1_555 1_555
H13_2 C18_2 1_555 1_555
C19_2 C14_2 1_555 1_555
H14_2 C19_2 1_555 1_555
C20_2 C17_2 1_555 1_555
C21_2 C22_2 1_555 1_555
C22_2 H15_2 1_555 1_555
C23_2 C22_2 1_555 1_555
H16_2 C23_2 1_555 1_555
C24_2 C23_2 1_555 1_555
C25_2 C24_2 1_555 1_555
H17_2 C25_2 1_555 1_555
C26_2 C21_2 1_555 1_555
H18_2 C26_2 1_555 1_555
C27_2 C24_2 1_555 1_555
C28_2 H19_2 1_555 1_555
C29_2 C28_2 1_555 1_555
C30_2 C29_2 1_555 1_555
C32_2 C31_2 1_555 1_555
C33_2 C32_2 1_555 1_555
N1_2 C1_2 1_555 1_555
N2_2 N1_2 1_555 1_555
N3_2 C2_2 1_555 1_555
N10_2 C7_2 1_555 1_555
O1_2 C13_2 1_555 1_555
O2_2 C13_2 1_555 1_555
O25 C20_2 1_555 1_555
O27 C20_2 1_555 1_555
O5_2 C27_2 1_555 1_555
O6_2 C27_2 1_555 1_555
O7_2 C30_2 1_555 1_555
O8_2 C30_2 1_555 1_555
O9_2 C33_2 1_555 1_555
O10_2 C33_2 1_555 1_555
Zn2_2 N1_2 1_555 1_555
Zn9 N3_2 1_555 1_555
S1_3 C29_2 1_555 1_555
S2_3 C32_2 1_555 1_555
C37_2 C28_2 1_555 1_555
H22_2 C37_2 1_555 1_555
C38_2 S1_3 1_555 1_555
C39_2 C38_2 1_555 1_555
O13_2 C39_2 1_555 1_555
O14_2 C39_2 1_555 1_555
C40_2 C31_2 1_555 1_555
C41_2 S2_3 1_555 1_555
C42_2 C41_2 1_555 1_555
O15_2 C42_2 1_555 1_555
O16_2 C42_2 1_555 1_555
C46_2 H25_2 1_555 1_555
C47_2 C46_2 1_555 1_555
H26_2 C47_2 1_555 1_555
C52_2 C53_2 1_555 1_555
C53_2 H31_2 1_555 1_555
C54_2 C53_2 1_555 1_555
H32_2 C54_2 1_555 1_555
C55_2 C54_2 1_555 1_555
C56_2 C55_2 1_555 1_555
H33_2 C56_2 1_555 1_555
C57_2 C52_2 1_555 1_555
H34_2 C57_2 1_555 1_555
C58_2 C55_2 1_555 1_555
C59_2 C60_2 1_555 1_555
C60_2 H35_2 1_555 1_555
C61_2 C60_2 1_555 1_555
H36_2 C61_2 1_555 1_555
C62_2 C61_2 1_555 1_555
C63_2 C62_2 1_555 1_555
H37_2 C63_2 1_555 1_555
C64_2 C59_2 1_555 1_555
H38_2 C64_2 1_555 1_555
C65_2 C62_2 1_555 1_555
C66_2 C67_2 1_555 1_555
C67_2 H39_2 1_555 1_555
C68_2 C67_2 1_555 1_555
H40_2 C68_2 1_555 1_555
C69_2 C68_2 1_555 1_555
C70_2 C69_2 1_555 1_555
H41_2 C70_2 1_555 1_555
C71_2 C66_2 1_555 1_555
H42_2 C71_2 1_555 1_555
C72_2 C69_2 1_555 1_555
N11_2 C46_2 1_555 1_555
N12_2 N11_2 1_555 1_555
N13_2 C47_2 1_555 1_555
N20_2 C52_2 1_555 1_555
O19_2 C58_2 1_555 1_555
O20_2 C58_2 1_555 1_555
O26 C65_2 1_555 1_555
O28 C65_2 1_555 1_555
O23_2 C72_2 1_555 1_555
O24_2 C72_2 1_555 1_555
Zn6_2 O13_2 1_555 1_555
Zn10 O16_2 1_555 1_555
Zn11_2 O5_2 1_555 1_555
Zn12_2 O23_2 1_555 1_555
C11_2 C12_2 1_555 1_555
C14_2 N10_2 1_555 1_555
C18_2 C19_2 1_555 1_555
C21_2 N10_2 1_555 1_555
C25_2 C26_2 1_555 1_555
N2_2 N3_2 1_555 1_555
O1_2 Zn2_2 1_555 1_555
O6_2 Zn11_2 1_555 1_555
O7_2 Zn2_2 1_555 1_555
O10_2 Zn9 1_555 1_555
C37_2 C38_2 1_555 1_555
C40_2 C41_2 1_555 1_555
C56_2 C57_2 1_555 1_555
C59_2 N20_2 1_555 1_555
C63_2 C64_2 1_555 1_555
C66_2 N20_2 1_555 1_555
C70_2 C71_2 1_555 1_555
N11_2 Zn6_2 1_555 1_555
N12_2 N13_2 1_555 1_555
N13_2 Zn10 1_555 1_555
O19_2 Zn6_2 1_555 1_555
O24_2 Zn12_2 1_555 1_555
C3_2 H3_2 1_555 1_555
C4_2 C3_2 1_555 1_555
H4_2 C4_2 1_555 1_555
C5_2 H5_2 1_555 1_555
C6_2 C5_2 1_555 1_555
H6_2 C6_2 1_555 1_555
C34_2 H21_2 1_555 1_555
C35_2 C34_2 1_555 1_555
C36_2 C35_2 1_555 1_555
N4_2 C3_2 1_555 1_555
N5_2 N4_2 1_555 1_555
N6_2 C4_2 1_555 1_555
N7_2 C5_2 1_555 1_555
N8_2 N7_2 1_555 1_555
N9_2 C6_2 1_555 1_555
O11_2 C36_2 1_555 1_555
O12_2 C36_2 1_555 1_555
Zn11_2 N6_2 1_555 1_555
S3_3 C35_2 1_555 1_555
C43_2 C34_2 1_555 1_555
H24_2 C43_2 1_555 1_555
C44_2 S3_3 1_555 1_555
C45_2 C44_2 1_555 1_555
O17_2 C45_2 1_555 1_555
O18_2 C45_2 1_555 1_555
C48_2 H27_2 1_555 1_555
C49_2 C48_2 1_555 1_555
H28_2 C49_2 1_555 1_555
C50_2 H29_2 1_555 1_555
C51_2 C50_2 1_555 1_555
H30_2 C51_2 1_555 1_555
N14_2 C48_2 1_555 1_555
N15_2 N14_2 1_555 1_555
N16_2 C49_2 1_555 1_555
N17_2 C50_2 1_555 1_555
N18_2 N17_2 1_555 1_555
N19_2 C51_2 1_555 1_555
Zn12_2 O18_2 1_555 1_555
N5_2 N6_2 1_555 1_555
N5_2 Zn1_2 1_555 1_555
N7_2 Zn11_2 1_555 1_555
N8_2 N9_2 1_555 1_555
N8_2 Zn1_2 1_555 1_555
O11_2 Zn1_2 1_555 1_555
O12_2 Zn11_2 1_555 1_555
C43_2 C44_2 1_555 1_555
O17_2 Zn5_2 1_555 1_555
N15_2 N16_2 1_555 1_555
N15_2 Zn5_2 1_555 1_555
N16_2 Zn12_2 1_555 1_555
N17_2 Zn12_2 1_555 1_555
N18_2 N19_2 1_555 1_555
N18_2 Zn5_2 1_555 1_555
O4_2 Zn10_2 1_555 1_555
O22_2 Zn9_2 1_555 1_555
C3_3 H3_3 1_555 1_555
C4_3 C3_3 1_555 1_555
H4_3 C4_3 1_555 1_555
C5_3 H5_3 1_555 1_555
C6_3 C5_3 1_555 1_555
H6_3 C6_3 1_555 1_555
C34_3 H21_3 1_555 1_555
C35_3 C34_3 1_555 1_555
C36_3 C35_3 1_555 1_555
N4_3 C3_3 1_555 1_555
N5_3 N4_3 1_555 1_555
N6_3 C4_3 1_555 1_555
N7_3 C5_3 1_555 1_555
N8_3 N7_3 1_555 1_555
N9_3 C6_3 1_555 1_555
O11_3 C36_3 1_555 1_555
O12_3 C36_3 1_555 1_555
Zn4 N6_3 1_555 1_555
S3_4 C35_3 1_555 1_555
O29 Zn4 1_555 1_555
O31 Zn4 1_555 1_555
N5_3 N6_3 1_555 1_555
N5_3 Zn1_3 1_555 1_555
N7_3 Zn4 1_555 1_555
N8_3 N9_3 1_555 1_555
N8_3 Zn1_3 1_555 1_555
O11_3 Zn1_3 1_555 1_555
O12_3 Zn4 1_555 1_555
C1_3 H1_3 1_555 1_555
C2_3 C1_3 1_555 1_555
H2_3 C2_3 1_555 1_555
C7_3 C8_3 1_555 1_555
C8_3 H7_3 1_555 1_555
C9_3 C8_3 1_555 1_555
H8_3 C9_3 1_555 1_555
C10_3 C9_3 1_555 1_555
C11_3 C10_3 1_555 1_555
H9_3 C11_3 1_555 1_555
C12_3 C7_3 1_555 1_555
H10_3 C12_3 1_555 1_555
C13_3 C10_3 1_555 1_555
C14_3 C15_3 1_555 1_555
C15_3 H11_3 1_555 1_555
C16_3 C15_3 1_555 1_555
H12_3 C16_3 1_555 1_555
C17_3 C16_3 1_555 1_555
C18_3 C17_3 1_555 1_555
H13_3 C18_3 1_555 1_555
C19_3 C14_3 1_555 1_555
H14_3 C19_3 1_555 1_555
C20_3 C17_3 1_555 1_555
C21_3 C22_3 1_555 1_555
C22_3 H15_3 1_555 1_555
C23_3 C22_3 1_555 1_555
H16_3 C23_3 1_555 1_555
C24_3 C23_3 1_555 1_555
C25_3 C24_3 1_555 1_555
H17_3 C25_3 1_555 1_555
C26_3 C21_3 1_555 1_555
H18_3 C26_3 1_555 1_555
C27_3 C24_3 1_555 1_555
C28_3 H19_3 1_555 1_555
C29_3 C28_3 1_555 1_555
C30_3 C29_3 1_555 1_555
C31_3 H20_3 1_555 1_555
C32_3 C31_3 1_555 1_555
C33_3 C32_3 1_555 1_555
N1_3 C1_3 1_555 1_555
N2_3 N1_3 1_555 1_555
N3_3 C2_3 1_555 1_555
N10_3 C7_3 1_555 1_555
O1_3 C13_3 1_555 1_555
O2_3 C13_3 1_555 1_555
O3_2 C20_3 1_555 1_555
O29 C27_3 1_555 1_555
O31 C27_3 1_555 1_555
O7_3 C30_3 1_555 1_555
O8_3 C30_3 1_555 1_555
O9_3 C33_3 1_555 1_555
O10_3 C33_3 1_555 1_555
Zn2_3 N1_3 1_555 1_555
Zn3_2 N3_3 1_555 1_555
S1_4 C29_3 1_555 1_555
S2_4 C32_3 1_555 1_555
O26_2 Zn3_2 1_555 1_555
O28_2 Zn3_2 1_555 1_555
C11_3 C12_3 1_555 1_555
C14_3 N10_3 1_555 1_555
C18_3 C19_3 1_555 1_555
C21_3 N10_3 1_555 1_555
C25_3 C26_3 1_555 1_555
N2_3 N3_3 1_555 1_555
O1_3 Zn2_3 1_555 1_555
O7_3 Zn2_3 1_555 1_555
O10_3 Zn3_2 1_555 1_555
H24_3 C43_3 1_555 1_555
C44_3 S3_5 1_555 1_555
C45_3 C44_3 1_555 1_555
O17_3 C45_3 1_555 1_555
O18_3 C45_3 1_555 1_555
C48_3 H27_3 1_555 1_555
C49_3 C48_3 1_555 1_555
H28_3 C49_3 1_555 1_555
C50_3 H29_3 1_555 1_555
C51_3 C50_3 1_555 1_555
H30_3 C51_3 1_555 1_555
N14_3 C48_3 1_555 1_555
N15_3 N14_3 1_555 1_555
N16_3 C49_3 1_555 1_555
N17_3 C50_3 1_555 1_555
N18_3 N17_3 1_555 1_555
N19_3 C51_3 1_555 1_555
Zn8 O18_3 1_555 1_555
O30 Zn8 1_555 1_555
O32 Zn8 1_555 1_555
C43_3 C44_3 1_555 1_555
O17_3 Zn5_3 1_555 1_555
N15_3 N16_3 1_555 1_555
N15_3 Zn5_3 1_555 1_555
N16_3 Zn8 1_555 1_555
N17_3 Zn8 1_555 1_555
N18_3 N19_3 1_555 1_555
N18_3 Zn5_3 1_555 1_555
H22_3 C37_3 1_555 1_555
C38_3 S1_5 1_555 1_555
C39_3 C38_3 1_555 1_555
O13_3 C39_3 1_555 1_555
O14_3 C39_3 1_555 1_555
H23_3 C40_3 1_555 1_555
C41_3 S2_5 1_555 1_555
C42_3 C41_3 1_555 1_555
O15_3 C42_3 1_555 1_555
O16_3 C42_3 1_555 1_555
C46_3 H25_3 1_555 1_555
C47_3 C46_3 1_555 1_555
H26_3 C47_3 1_555 1_555
C52_3 C53_3 1_555 1_555
C53_3 H31_3 1_555 1_555
C54_3 C53_3 1_555 1_555
H32_3 C54_3 1_555 1_555
C55_3 C54_3 1_555 1_555
C56_3 C55_3 1_555 1_555
H33_3 C56_3 1_555 1_555
C57_3 C52_3 1_555 1_555
H34_3 C57_3 1_555 1_555
C58_3 C55_3 1_555 1_555
C59_3 C60_3 1_555 1_555
C60_3 H35_3 1_555 1_555
C61_3 C60_3 1_555 1_555
H36_3 C61_3 1_555 1_555
C62_3 C61_3 1_555 1_555
C63_3 C62_3 1_555 1_555
H37_3 C63_3 1_555 1_555
C64_3 C59_3 1_555 1_555
H38_3 C64_3 1_555 1_555
C65_3 C62_3 1_555 1_555
C66_3 C67_3 1_555 1_555
C67_3 H39_3 1_555 1_555
C68_3 C67_3 1_555 1_555
H40_3 C68_3 1_555 1_555
C69_3 C68_3 1_555 1_555
C70_3 C69_3 1_555 1_555
H41_3 C70_3 1_555 1_555
C71_3 C66_3 1_555 1_555
H42_3 C71_3 1_555 1_555
C72_3 C69_3 1_555 1_555
N11_3 C46_3 1_555 1_555
N12_3 N11_3 1_555 1_555
N13_3 C47_3 1_555 1_555
N20_3 C52_3 1_555 1_555
O19_3 C58_3 1_555 1_555
O20_3 C58_3 1_555 1_555
O21_2 C65_3 1_555 1_555
O30 C72_3 1_555 1_555
O32 C72_3 1_555 1_555
Zn6_3 O13_3 1_555 1_555
Zn7_2 O16_3 1_555 1_555
O25_2 Zn7_2 1_555 1_555
O27_2 Zn7_2 1_555 1_555
C37_3 C38_3 1_555 1_555
C40_3 C41_3 1_555 1_555
C56_3 C57_3 1_555 1_555
C59_3 N20_3 1_555 1_555
C63_3 C64_3 1_555 1_555
C66_3 N20_3 1_555 1_555
C70_3 C71_3 1_555 1_555
N11_3 Zn6_3 1_555 1_555
N12_3 N13_3 1_555 1_555
N13_3 Zn7_2 1_555 1_555
O19_3 Zn6_3 1_555 1_555
C3_4 H3_4 1_555 1_555
C4_4 C3_4 1_555 1_555
H4_4 C4_4 1_555 1_555
C5_4 H5_4 1_555 1_555
C6_4 C5_4 1_555 1_555
H6_4 C6_4 1_555 1_555
C34_4 H21_4 1_555 1_555
C35_4 C34_4 1_555 1_555
C36_4 C35_4 1_555 1_555
N4_4 C3_4 1_555 1_555
N5_4 N4_4 1_555 1_555
N6_4 C4_4 1_555 1_555
N7_4 C5_4 1_555 1_555
N8_4 N7_4 1_555 1_555
N9_4 C6_4 1_555 1_555
O11_4 C36_4 1_555 1_555
O12_4 C36_4 1_555 1_555
Zn4_2 N6_4 1_555 1_555
S3_6 C35_4 1_555 1_555
C43_4 C34_4 1_555 1_555
H24_4 C43_4 1_555 1_555
C44_4 S3_6 1_555 1_555
C45_4 C44_4 1_555 1_555
O17_4 C45_4 1_555 1_555
O18_4 C45_4 1_555 1_555
C48_4 H27_4 1_555 1_555
C49_4 C48_4 1_555 1_555
H28_4 C49_4 1_555 1_555
C50_4 H29_4 1_555 1_555
C51_4 C50_4 1_555 1_555
H30_4 C51_4 1_555 1_555
N14_4 C48_4 1_555 1_555
N15_4 N14_4 1_555 1_555
N16_4 C49_4 1_555 1_555
N17_4 C50_4 1_555 1_555
N18_4 N17_4 1_555 1_555
N19_4 C51_4 1_555 1_555
Zn8_2 O18_4 1_555 1_555
O29_2 Zn4_2 1_555 1_555
O30_2 Zn8_2 1_555 1_555
O31_2 Zn4_2 1_555 1_555
O32_2 Zn8_2 1_555 1_555
N5_4 N6_4 1_555 1_555
N5_4 Zn1_4 1_555 1_555
N7_4 Zn4_2 1_555 1_555
N8_4 N9_4 1_555 1_555
N8_4 Zn1_4 1_555 1_555
O11_4 Zn1_4 1_555 1_555
O12_4 Zn4_2 1_555 1_555
C43_4 C44_4 1_555 1_555
O17_4 Zn5_4 1_555 1_555
N15_4 N16_4 1_555 1_555
N15_4 Zn5_4 1_555 1_555
N16_4 Zn8_2 1_555 1_555
N17_4 Zn8_2 1_555 1_555
N18_4 N19_4 1_555 1_555
N18_4 Zn5_4 1_555 1_555
C1_4 H1_4 1_555 1_555
C2_4 C1_4 1_555 1_555
H2_4 C2_4 1_555 1_555
C7_4 C8_4 1_555 1_555
C8_4 H7_4 1_555 1_555
C9_4 C8_4 1_555 1_555
H8_4 C9_4 1_555 1_555
C10_4 C9_4 1_555 1_555
C11_4 C10_4 1_555 1_555
H9_4 C11_4 1_555 1_555
C12_4 C7_4 1_555 1_555
H10_4 C12_4 1_555 1_555
C13_4 C10_4 1_555 1_555
C14_4 C15_4 1_555 1_555
C15_4 H11_4 1_555 1_555
C16_4 C15_4 1_555 1_555
H12_4 C16_4 1_555 1_555
C17_4 C16_4 1_555 1_555
C18_4 C17_4 1_555 1_555
H13_4 C18_4 1_555 1_555
C19_4 C14_4 1_555 1_555
H14_4 C19_4 1_555 1_555
C20_4 C17_4 1_555 1_555
C21_4 C22_4 1_555 1_555
C22_4 H15_4 1_555 1_555
C23_4 C22_4 1_555 1_555
H16_4 C23_4 1_555 1_555
C24_4 C23_4 1_555 1_555
C25_4 C24_4 1_555 1_555
H17_4 C25_4 1_555 1_555
C26_4 C21_4 1_555 1_555
H18_4 C26_4 1_555 1_555
C27_4 C24_4 1_555 1_555
C28_4 H19_4 1_555 1_555
C29_4 C28_4 1_555 1_555
C30_4 C29_4 1_555 1_555
C32_4 C31_4 1_555 1_555
C33_4 C32_4 1_555 1_555
N1_4 C1_4 1_555 1_555
N2_4 N1_4 1_555 1_555
N3_4 C2_4 1_555 1_555
N10_4 C7_4 1_555 1_555
O1_4 C13_4 1_555 1_555
O2_4 C13_4 1_555 1_555
O25_2 C20_4 1_555 1_555
O27_2 C20_4 1_555 1_555
O29_2 C27_4 1_555 1_555
O31_2 C27_4 1_555 1_555
O7_4 C30_4 1_555 1_555
O8_4 C30_4 1_555 1_555
O9_4 C33_4 1_555 1_555
O10_4 C33_4 1_555 1_555
Zn2_4 N1_4 1_555 1_555
Zn9_2 N3_4 1_555 1_555
S1_6 C29_4 1_555 1_555
S2_6 C32_4 1_555 1_555
C37_4 C28_4 1_555 1_555
H22_4 C37_4 1_555 1_555
C38_4 S1_6 1_555 1_555
C39_4 C38_4 1_555 1_555
O13_4 C39_4 1_555 1_555
O14_4 C39_4 1_555 1_555
C40_4 C31_4 1_555 1_555
C41_4 S2_6 1_555 1_555
C42_4 C41_4 1_555 1_555
O15_4 C42_4 1_555 1_555
O16_4 C42_4 1_555 1_555
C46_4 H25_4 1_555 1_555
C47_4 C46_4 1_555 1_555
H26_4 C47_4 1_555 1_555
C52_4 C53_4 1_555 1_555
C53_4 H31_4 1_555 1_555
C54_4 C53_4 1_555 1_555
H32_4 C54_4 1_555 1_555
C55_4 C54_4 1_555 1_555
C56_4 C55_4 1_555 1_555
H33_4 C56_4 1_555 1_555
C57_4 C52_4 1_555 1_555
H34_4 C57_4 1_555 1_555
C58_4 C55_4 1_555 1_555
C59_4 C60_4 1_555 1_555
C60_4 H35_4 1_555 1_555
C61_4 C60_4 1_555 1_555
H36_4 C61_4 1_555 1_555
C62_4 C61_4 1_555 1_555
C63_4 C62_4 1_555 1_555
H37_4 C63_4 1_555 1_555
C64_4 C59_4 1_555 1_555
H38_4 C64_4 1_555 1_555
C65_4 C62_4 1_555 1_555
C66_4 C67_4 1_555 1_555
C67_4 H39_4 1_555 1_555
C68_4 C67_4 1_555 1_555
H40_4 C68_4 1_555 1_555
C69_4 C68_4 1_555 1_555
C70_4 C69_4 1_555 1_555
H41_4 C70_4 1_555 1_555
C71_4 C66_4 1_555 1_555
H42_4 C71_4 1_555 1_555
C72_4 C69_4 1_555 1_555
N11_4 C46_4 1_555 1_555
N12_4 N11_4 1_555 1_555
N13_4 C47_4 1_555 1_555
N20_4 C52_4 1_555 1_555
O19_4 C58_4 1_555 1_555
O20_4 C58_4 1_555 1_555
O26_2 C65_4 1_555 1_555
O28_2 C65_4 1_555 1_555
O30_2 C72_4 1_555 1_555
O32_2 C72_4 1_555 1_555
Zn6_4 O13_4 1_555 1_555
Zn10_2 O16_4 1_555 1_555
C11_4 C12_4 1_555 1_555
C14_4 N10_4 1_555 1_555
C18_4 C19_4 1_555 1_555
C21_4 N10_4 1_555 1_555
C25_4 C26_4 1_555 1_555
N2_4 N3_4 1_555 1_555
O1_4 Zn2_4 1_555 1_555
O7_4 Zn2_4 1_555 1_555
O10_4 Zn9_2 1_555 1_555
C37_4 C38_4 1_555 1_555
C40_4 C41_4 1_555 1_555
C56_4 C57_4 1_555 1_555
C59_4 N20_4 1_555 1_555
C63_4 C64_4 1_555 1_555
C66_4 N20_4 1_555 1_555
C70_4 C71_4 1_555 1_555
N11_4 Zn6_4 1_555 1_555
N12_4 N13_4 1_555 1_555
N13_4 Zn10_2 1_555 1_555
O19_4 Zn6_4 1_555 1_555

#END
