
###############################################################################
#
# This file contains modified crystal structure data generated from the
# MOF subset of the Cambridge Structural Database (CSD) v543 
# hosted by the Cambridge Crystallographic Data Centre (CCDC).
#
# This work is licensed under the Creative Commons
# Attribution-NonCommercial-ShareAlike 4.0 International License.
# To view a copy of this license, visit
# http://creativecommons.org/licenses/by-nc-sa/4.0/
# or send a letter to
# Creative Commons, PO Box 1866, Mountain View, CA 94042, USA.
#
# CIF created using the CSD Python API on 29 September 2022
# The structure has been converted into the P1 space group
# The structure has a 3D framework
# The original CSD entry OMUSAS is in the cubic crystal system
# The original CSD entry OMUSAS is in a Sohncke space group
# The framework has been calculated to contain at least 10.0% void space
# The void calculation uses a probe of radius 1.32A, grid spacing 0.4
# H atom positions have been added when not included in the experimental data
# Generated hydrogen atom positions removed from atoms on special positions
#
###############################################################################

data_OMUSAS
_chemical_formula_moiety         '(C480 H600 O103 Zn29)n'
_symmetry_cell_setting           triclinic
_symmetry_space_group_name_H-M   'P 1'
_symmetry_Int_Tables_number      1
_space_group_name_Hall           'P 1'
loop_
_symmetry_equiv_pos_site_id
_symmetry_equiv_pos_as_xyz
1 x,y,z
_cell_length_a                   35.755(4)
_cell_length_b                   35.755(4)
_cell_length_c                   35.755(4)
_cell_angle_alpha                90
_cell_angle_beta                 90
_cell_angle_gamma                90
_cell_volume                     45709.9
loop_
_atom_site_label
_atom_site_type_symbol
_atom_site_fract_x
_atom_site_fract_y
_atom_site_fract_z
C3 C 0.3584(2) 0.6587(3) 0.0281(3)
C4 C 0.3406(3) 0.6280(3) 0.04392(19)
C5 C 0.3093(3) 0.61267(19) 0.0267(3)
C7 C 0.3683(4) 0.6153(5) 0.0823(4)
C8 C 0.3830(4) 0.7129(3) 0.0706(3)
C9 C 0.3608(3) 0.5853(4) 0.1034(4)
C10 C 0.4319(3) 0.6667(3) 0.0293(3)
C11 C 0.3943(3) 0.6722(3) 0.0527(3)
C12 C 0.4402(3) 0.6287(3) 0.0149(3)
C13 C 0.3500(3) 0.7163(3) 0.0926(3)
C21 C 0.3413(3) 0.4778(2) 0.1864(4)
C22 C 0.3259(2) 0.4950(3) 0.1551(3)
C23 C 0.3413(3) 0.5281(3) 0.1416(2)
C24 C 0.3720(3) 0.54392(19) 0.1594(3)
C25 C 0.38733(19) 0.5267(3) 0.1907(3)
C26 C 0.3720(3) 0.4937(3) 0.2042(2)
C27 C 0.3847(5) 0.5823(4) 0.1317(4)
C28 C 0.2871(3) 0.5706(3) 0.1170(4)
C29 C 0.4147(4) 0.6034(4) 0.1392(3)
C30 C 0.3333(3) 0.5293(3) 0.0681(3)
C31 C 0.3278(3) 0.5527(3) 0.1057(3)
C32 C 0.3713(3) 0.5149(3) 0.0598(3)
C33 C 0.2837(3) 0.5926(3) 0.1500(3)
O6 O 0.2919(2) 0.32596(16) 0.2561(2)
O7 O 0.2777(3) 0.3124(2) 0.1966(3)
C34 C 0.30219(19) 0.37098(16) 0.2123(3)
C35 C 0.3160(2) 0.3953(3) 0.23939(18)
C36 C 0.32937(18) 0.4303(2) 0.2291(2)
C37 C 0.3290(2) 0.44099(18) 0.1917(3)
C38 C 0.3153(3) 0.4167(3) 0.16466(17)
C39 C 0.3018(2) 0.3817(3) 0.1750(3)
C40 C 0.2878(3) 0.3318(4) 0.2233(5)
C41 C 0.5222(2) 0.6864(4) 0.1587(3)
C42 C 0.5050(3) 0.6551(3) 0.1741(2)
C43 C 0.4719(3) 0.6416(2) 0.1587(3)
C44 C 0.45608(19) 0.6594(3) 0.1280(3)
C45 C 0.4733(3) 0.6907(3) 0.11267(19)
C46 C 0.5063(3) 0.7042(2) 0.1280(3)
C47 C 0.4177(4) 0.6317(4) 0.1153(5)
C48 C 0.4294(3) 0.6170(4) 0.2129(3)
C49 C 0.3966(4) 0.6392(3) 0.0853(4)
C50 C 0.4707(3) 0.5681(3) 0.1667(3)
C51 C 0.4473(3) 0.6057(3) 0.1722(3)
C52 C 0.4851(3) 0.5598(3) 0.1287(3)
C53 C 0.4074(3) 0.6500(3) 0.2163(3)
O8 O 0.67404(16) 0.7561(2) 0.2081(2)
O9 O 0.6876(2) 0.6966(3) 0.2223(3)
C54 C 0.62902(16) 0.7123(3) 0.19781(19)
C55 C 0.6047(3) 0.73939(18) 0.1840(2)
C56 C 0.5697(2) 0.7291(2) 0.17063(18)
C57 C 0.55901(18) 0.6917(3) 0.1710(2)
C58 C 0.5833(3) 0.66466(17) 0.1847(3)
C59 C 0.6183(3) 0.6750(3) 0.1982(2)
C60 C 0.6682(4) 0.7233(5) 0.2122(3)
Zn4 Zn 0.25177(4) 0.26398(5) 0.19608(4)
O12 O 0.2803(3) 0.2277(4) 0.1687(3)
O13 O 0.1956(4) 0.2764(2) 0.1795(3)
Zn5 Zn 0.72149(4) 0.77851(4) 0.22149(4)
Zn6 Zn 0.27851(4) 0.27851(4) 0.27851(4)
Zn8 Zn 0.73602(5) 0.69608(4) 0.24823(4)
O17 O 0.24701(16) 0.24701(16) 0.24701(16)
H1 H 0.351948 0.697837 0.116745
H2 H 0.347024 0.745099 0.102055
H3 H 0.325779 0.708565 0.0758329
H6 H 0.380117 0.732301 0.0472991
H7 H 0.406287 0.721574 0.0882112
H8 H 0.455088 0.674897 0.0472653
H9 H 0.430524 0.685427 0.00531958
H13 H 0.442365 0.609248 0.0382366
H14 H 0.295358 0.588606 0.0391177
H17 H 0.325103 0.547265 0.0449115
H18 H 0.314573 0.50532 0.0694758
H19 H 0.302163 0.616745 0.148052
H20 H 0.254901 0.602055 0.152976
H21 H 0.291435 0.575833 0.174221
H22 H 0.315125 0.425048 0.13537
H23 H 0.301825 0.482587 0.141173
H24 H 0.380222 0.496291 0.0821997
H25 H 0.370831 0.499598 0.0334698
H26 H 0.390752 0.538237 0.0576355
H27 H 0.340129 0.449345 0.250294
H28 H 0.316322 0.386884 0.26866
H29 H 0.290924 0.362711 0.153816
H32 H 0.384018 0.480252 0.228743
H34 H 0.411394 0.539118 0.204642
H35 H 0.517413 0.641173 0.198175
H36 H 0.267699 0.547299 0.119883
H37 H 0.278426 0.588211 0.0937135
H44 H 0.503709 0.5822 0.119778
H45 H 0.500402 0.53347 0.129169
H46 H 0.461763 0.557635 0.109248
H47 H 0.452735 0.544912 0.174897
H48 H 0.49468 0.569476 0.185427
H51 H 0.613116 0.76866 0.183678
H52 H 0.519748 0.728743 0.115982
H53 H 0.383255 0.648052 0.197837
H54 H 0.397945 0.652976 0.245099
H55 H 0.424167 0.674221 0.208565
H56 H 0.550655 0.750294 0.159871
H57 H 0.574952 0.63537 0.184875
H58 H 0.637289 0.653816 0.209076
H59 H 0.460882 0.704642 0.088606
H60 H 0.452701 0.619883 0.232301
H61 H 0.411789 0.593713 0.221574
O1 O 0.2439(2) 0.7081(2) 0.82596(16)
C1 C 0.3136(4) 0.6587(3) 0.9778(2)
C2 C 0.3449(3) 0.6741(2) 0.9950(3)
C6 C 0.2958(2) 0.6280(3) 0.9937(3)
O2 O 0.3034(3) 0.7223(3) 0.8124(2)
C14 C 0.2877(3) 0.69781(19) 0.87098(16)
C15 C 0.26061(18) 0.6840(2) 0.8953(3)
C16 C 0.2709(2) 0.67063(18) 0.9303(2)
C17 C 0.3083(3) 0.6710(2) 0.94099(18)
C18 C 0.33534(17) 0.6847(3) 0.9167(3)
C19 C 0.3250(3) 0.6982(2) 0.8817(3)
C20 C 0.2767(5) 0.7122(3) 0.8318(4)
Zn1 Zn 0.22149(4) 0.72149(4) 0.77851(4)
Zn2 Zn 0.23602(5) 0.80392(4) 0.75177(4)
O3 O 0.25299(16) 0.75299(16) 0.74701(16)
O4 O 0.2723(4) 0.8313(3) 0.7803(3)
O5 O 0.2236(2) 0.8205(3) 0.6956(4)
Zn3 Zn 0.30392(4) 0.74823(4) 0.76398(5)
O10 O 0.3313(3) 0.7197(3) 0.7277(4)
O11 O 0.3205(3) 0.8044(4) 0.7764(2)
O14 O 0.17404(16) 0.7439(2) 0.7919(2)
O15 O 0.2081(2) 0.67404(16) 0.7561(2)
O16 O 0.1876(2) 0.8034(3) 0.7777(3)
Zn7 Zn 0.24823(4) 0.73602(5) 0.69608(4)
H4 H 0.358827 0.698175 0.982587
H5 H 0.271257 0.615982 0.980252
H10 H 0.23134 0.683678 0.886884
H11 H 0.4178 0.619778 0.996291
H12 H 0.46653 0.629169 0.999598
H15 H 0.249706 0.659871 0.949345
H16 H 0.36463 0.684875 0.925048
H33 H 0.346184 0.709076 0.862711
C3_2 C 0.0281(3) 0.3584(2) 0.6587(3)
C4_2 C 0.04392(19) 0.3406(3) 0.6280(3)
C5_2 C 0.0267(3) 0.3093(3) 0.61267(19)
C7_2 C 0.0823(4) 0.3683(4) 0.6153(5)
C8_2 C 0.0706(3) 0.3830(4) 0.7129(3)
C9_2 C 0.1034(4) 0.3608(3) 0.5853(4)
C10_2 C 0.0293(3) 0.4319(3) 0.6667(3)
C11_2 C 0.0527(3) 0.3943(3) 0.6722(3)
C12_2 C 0.0149(3) 0.4402(3) 0.6287(3)
C13_2 C 0.0926(3) 0.3500(3) 0.7163(3)
C21_2 C 0.1864(4) 0.3413(3) 0.4778(2)
C22_2 C 0.1551(3) 0.3259(2) 0.4950(3)
C23_2 C 0.1416(2) 0.3413(3) 0.5281(3)
C24_2 C 0.1594(3) 0.3720(3) 0.54392(19)
C25_2 C 0.1907(3) 0.38733(19) 0.5267(3)
C26_2 C 0.2042(2) 0.3720(3) 0.4937(3)
C27_2 C 0.1317(4) 0.3847(5) 0.5823(4)
C28_2 C 0.1170(4) 0.2871(3) 0.5706(3)
C29_2 C 0.1392(3) 0.4147(4) 0.6034(4)
C30_2 C 0.0681(3) 0.3333(3) 0.5293(3)
C31_2 C 0.1057(3) 0.3278(3) 0.5527(3)
C32_2 C 0.0598(3) 0.3713(3) 0.5149(3)
C33_2 C 0.1500(3) 0.2837(3) 0.5926(3)
O6_2 O 0.2561(2) 0.2919(2) 0.32596(16)
O7_2 O 0.1966(3) 0.2777(3) 0.3124(2)
C34_2 C 0.2123(3) 0.30219(19) 0.37098(16)
C35_2 C 0.23939(18) 0.3160(2) 0.3953(3)
C36_2 C 0.2291(2) 0.32937(18) 0.4303(2)
C37_2 C 0.1917(3) 0.3290(2) 0.44099(18)
C38_2 C 0.16466(17) 0.3153(3) 0.4167(3)
C39_2 C 0.1750(3) 0.3018(2) 0.3817(3)
C40_2 C 0.2233(5) 0.2878(3) 0.3318(4)
C41_2 C 0.1587(3) 0.5222(2) 0.6864(4)
C42_2 C 0.1741(2) 0.5050(3) 0.6551(3)
C43_2 C 0.1587(3) 0.4719(3) 0.6416(2)
C44_2 C 0.1280(3) 0.45608(19) 0.6594(3)
C45_2 C 0.11267(19) 0.4733(3) 0.6907(3)
C46_2 C 0.1280(3) 0.5063(3) 0.7042(2)
C47_2 C 0.1153(5) 0.4177(4) 0.6317(4)
C48_2 C 0.2129(3) 0.4294(3) 0.6170(4)
C49_2 C 0.0853(4) 0.3966(4) 0.6392(3)
C50_2 C 0.1667(3) 0.4707(3) 0.5681(3)
C51_2 C 0.1722(3) 0.4473(3) 0.6057(3)
C52_2 C 0.1287(3) 0.4851(3) 0.5598(3)
C53_2 C 0.2163(3) 0.4074(3) 0.6500(3)
O9_2 O 0.2223(3) 0.6876(2) 0.6966(3)
C54_2 C 0.19781(19) 0.62902(16) 0.7123(3)
C55_2 C 0.1840(2) 0.6047(3) 0.73939(18)
C56_2 C 0.17063(18) 0.5697(2) 0.7291(2)
C57_2 C 0.1710(2) 0.55901(18) 0.6917(3)
C58_2 C 0.1847(3) 0.5833(3) 0.66466(17)
C59_2 C 0.1982(2) 0.6183(3) 0.6750(3)
C60_2 C 0.2122(3) 0.6682(4) 0.7233(5)
Zn4_2 Zn 0.19608(4) 0.25177(4) 0.26398(5)
O12_2 O 0.1687(3) 0.2803(3) 0.2277(4)
O13_2 O 0.1795(3) 0.1956(4) 0.2764(2)
H1_2 H 0.116745 0.351948 0.697837
H2_2 H 0.102055 0.347024 0.745099
H3_2 H 0.0758329 0.325779 0.708565
H6_2 H 0.0472991 0.380117 0.732301
H7_2 H 0.0882112 0.406287 0.721574
H8_2 H 0.0472653 0.455088 0.674897
H9_2 H 0.00531958 0.430524 0.685427
H13_2 H 0.0382366 0.442365 0.609248
H14_2 H 0.0391177 0.295358 0.588606
H17_2 H 0.0449115 0.325103 0.547265
H18_2 H 0.0694758 0.314573 0.50532
H19_2 H 0.148052 0.302163 0.616745
H20_2 H 0.152976 0.254901 0.602055
H21_2 H 0.174221 0.291435 0.575833
H22_2 H 0.13537 0.315125 0.425048
H23_2 H 0.141173 0.301825 0.482587
H24_2 H 0.0821997 0.380222 0.496291
H25_2 H 0.0334698 0.370831 0.499598
H26_2 H 0.0576355 0.390752 0.538237
H27_2 H 0.250294 0.340129 0.449345
H28_2 H 0.26866 0.316322 0.386884
H29_2 H 0.153816 0.290924 0.362711
H32_2 H 0.228743 0.384018 0.480252
H34_2 H 0.204642 0.411394 0.539118
H35_2 H 0.198175 0.517413 0.641173
H36_2 H 0.119883 0.267699 0.547299
H37_2 H 0.0937135 0.278426 0.588211
H44_2 H 0.119778 0.503709 0.5822
H45_2 H 0.129169 0.500402 0.53347
H46_2 H 0.109248 0.461763 0.557635
H47_2 H 0.174897 0.452735 0.544912
H48_2 H 0.185427 0.49468 0.569476
H51_2 H 0.183678 0.613116 0.76866
H52_2 H 0.115982 0.519748 0.728743
H53_2 H 0.197837 0.383255 0.648052
H54_2 H 0.245099 0.397945 0.652976
H55_2 H 0.208565 0.424167 0.674221
H56_2 H 0.159871 0.550655 0.750294
H57_2 H 0.184875 0.574952 0.63537
H58_2 H 0.209076 0.637289 0.653816
H59_2 H 0.088606 0.460882 0.704642
H60_2 H 0.232301 0.452701 0.619883
H61_2 H 0.221574 0.411789 0.593713
O1_2 O 0.82596(16) 0.2439(2) 0.7081(2)
C1_2 C 0.9778(2) 0.3136(4) 0.6587(3)
C2_2 C 0.9950(3) 0.3449(3) 0.6741(2)
C6_2 C 0.9937(3) 0.2958(2) 0.6280(3)
O2_2 O 0.8124(2) 0.3034(3) 0.7223(3)
C14_2 C 0.87098(16) 0.2877(3) 0.69781(19)
C15_2 C 0.8953(3) 0.26061(18) 0.6840(2)
C16_2 C 0.9303(2) 0.2709(2) 0.67063(18)
C17_2 C 0.94099(18) 0.3083(3) 0.6710(2)
C18_2 C 0.9167(3) 0.33534(17) 0.6847(3)
C19_2 C 0.8817(3) 0.3250(3) 0.6982(2)
C20_2 C 0.8318(4) 0.2767(5) 0.7122(3)
Zn1_2 Zn 0.77851(4) 0.22149(4) 0.72149(4)
Zn2_2 Zn 0.75177(4) 0.23602(5) 0.80392(4)
O3_2 O 0.74701(16) 0.25299(16) 0.75299(16)
O4_2 O 0.7803(3) 0.2723(4) 0.8313(3)
O5_2 O 0.6956(4) 0.2236(2) 0.8205(3)
Zn3_2 Zn 0.76398(5) 0.30392(4) 0.74823(4)
O10_2 O 0.7277(4) 0.3313(3) 0.7197(3)
O11_2 O 0.7764(2) 0.3205(3) 0.8044(4)
O14_2 O 0.7919(2) 0.17404(16) 0.7439(2)
O15_2 O 0.7561(2) 0.2081(2) 0.67404(16)
O16_2 O 0.7777(3) 0.1876(2) 0.8034(3)
Zn7_2 Zn 0.69608(4) 0.24823(4) 0.73602(5)
H4_2 H 0.982587 0.358827 0.698175
H5_2 H 0.980252 0.271257 0.615982
H10_2 H 0.886884 0.23134 0.683678
H11_2 H 0.996291 0.4178 0.619778
H12_2 H 0.999598 0.46653 0.629169
H15_2 H 0.949345 0.249706 0.659871
H16_2 H 0.925048 0.36463 0.684875
H33_2 H 0.862711 0.346184 0.709076
C3_3 C 0.6587(3) 0.0281(3) 0.3584(2)
C4_3 C 0.6280(3) 0.04392(19) 0.3406(3)
C5_3 C 0.61267(19) 0.0267(3) 0.3093(3)
C7_3 C 0.6153(5) 0.0823(4) 0.3683(4)
C8_3 C 0.7129(3) 0.0706(3) 0.3830(4)
C9_3 C 0.5853(4) 0.1034(4) 0.3608(3)
C10_3 C 0.6667(3) 0.0293(3) 0.4319(3)
C11_3 C 0.6722(3) 0.0527(3) 0.3943(3)
C12_3 C 0.6287(3) 0.0149(3) 0.4402(3)
C13_3 C 0.7163(3) 0.0926(3) 0.3500(3)
C21_3 C 0.4778(2) 0.1864(4) 0.3413(3)
C22_3 C 0.4950(3) 0.1551(3) 0.3259(2)
C23_3 C 0.5281(3) 0.1416(2) 0.3413(3)
C24_3 C 0.54392(19) 0.1594(3) 0.3720(3)
C25_3 C 0.5267(3) 0.1907(3) 0.38733(19)
C26_3 C 0.4937(3) 0.2042(2) 0.3720(3)
C27_3 C 0.5823(4) 0.1317(4) 0.3847(5)
C28_3 C 0.5706(3) 0.1170(4) 0.2871(3)
C29_3 C 0.6034(4) 0.1392(3) 0.4147(4)
C30_3 C 0.5293(3) 0.0681(3) 0.3333(3)
C31_3 C 0.5527(3) 0.1057(3) 0.3278(3)
C32_3 C 0.5149(3) 0.0598(3) 0.3713(3)
C33_3 C 0.5926(3) 0.1500(3) 0.2837(3)
O6_3 O 0.32596(16) 0.2561(2) 0.2919(2)
O7_3 O 0.3124(2) 0.1966(3) 0.2777(3)
C34_3 C 0.37098(16) 0.2123(3) 0.30219(19)
C35_3 C 0.3953(3) 0.23939(18) 0.3160(2)
C36_3 C 0.4303(2) 0.2291(2) 0.32937(18)
C37_3 C 0.44099(18) 0.1917(3) 0.3290(2)
C38_3 C 0.4167(3) 0.16466(17) 0.3153(3)
C39_3 C 0.3817(3) 0.1750(3) 0.3018(2)
C40_3 C 0.3318(4) 0.2233(5) 0.2878(3)
C41_3 C 0.6864(4) 0.1587(3) 0.5222(2)
C42_3 C 0.6551(3) 0.1741(2) 0.5050(3)
C43_3 C 0.6416(2) 0.1587(3) 0.4719(3)
C44_3 C 0.6594(3) 0.1280(3) 0.45608(19)
C45_3 C 0.6907(3) 0.11267(19) 0.4733(3)
C46_3 C 0.7042(2) 0.1280(3) 0.5063(3)
C47_3 C 0.6317(4) 0.1153(5) 0.4177(4)
C48_3 C 0.6170(4) 0.2129(3) 0.4294(3)
C49_3 C 0.6392(3) 0.0853(4) 0.3966(4)
C50_3 C 0.5681(3) 0.1667(3) 0.4707(3)
C51_3 C 0.6057(3) 0.1722(3) 0.4473(3)
C52_3 C 0.5598(3) 0.1287(3) 0.4851(3)
C53_3 C 0.6500(3) 0.2163(3) 0.4074(3)
O9_3 O 0.6966(3) 0.2223(3) 0.6876(2)
C54_3 C 0.7123(3) 0.19781(19) 0.62902(16)
C55_3 C 0.73939(18) 0.1840(2) 0.6047(3)
C56_3 C 0.7291(2) 0.17063(18) 0.5697(2)
C57_3 C 0.6917(3) 0.1710(2) 0.55901(18)
C58_3 C 0.66466(17) 0.1847(3) 0.5833(3)
C59_3 C 0.6750(3) 0.1982(2) 0.6183(3)
C60_3 C 0.7233(5) 0.2122(3) 0.6682(4)
Zn4_3 Zn 0.26398(5) 0.19608(4) 0.25177(4)
O12_3 O 0.2277(4) 0.1687(3) 0.2803(3)
O13_3 O 0.2764(2) 0.1795(3) 0.1956(4)
H1_3 H 0.697837 0.116745 0.351948
H2_3 H 0.745099 0.102055 0.347024
H3_3 H 0.708565 0.0758329 0.325779
H6_3 H 0.732301 0.0472991 0.380117
H7_3 H 0.721574 0.0882112 0.406287
H8_3 H 0.674897 0.0472653 0.455088
H9_3 H 0.685427 0.00531958 0.430524
H13_3 H 0.609248 0.0382366 0.442365
H14_3 H 0.588606 0.0391177 0.295358
H17_3 H 0.547265 0.0449115 0.325103
H18_3 H 0.50532 0.0694758 0.314573
H19_3 H 0.616745 0.148052 0.302163
H20_3 H 0.602055 0.152976 0.254901
H21_3 H 0.575833 0.174221 0.291435
H22_3 H 0.425048 0.13537 0.315125
H23_3 H 0.482587 0.141173 0.301825
H24_3 H 0.496291 0.0821997 0.380222
H25_3 H 0.499598 0.0334698 0.370831
H26_3 H 0.538237 0.0576355 0.390752
H27_3 H 0.449345 0.250294 0.340129
H28_3 H 0.386884 0.26866 0.316322
H29_3 H 0.362711 0.153816 0.290924
H32_3 H 0.480252 0.228743 0.384018
H34_3 H 0.539118 0.204642 0.411394
H35_3 H 0.641173 0.198175 0.517413
H36_3 H 0.547299 0.119883 0.267699
H37_3 H 0.588211 0.0937135 0.278426
H44_3 H 0.5822 0.119778 0.503709
H45_3 H 0.53347 0.129169 0.500402
H46_3 H 0.557635 0.109248 0.461763
H47_3 H 0.544912 0.174897 0.452735
H48_3 H 0.569476 0.185427 0.49468
H51_3 H 0.76866 0.183678 0.613116
H52_3 H 0.728743 0.115982 0.519748
H53_3 H 0.648052 0.197837 0.383255
H54_3 H 0.652976 0.245099 0.397945
H55_3 H 0.674221 0.208565 0.424167
H56_3 H 0.750294 0.159871 0.550655
H57_3 H 0.63537 0.184875 0.574952
H58_3 H 0.653816 0.209076 0.637289
H59_3 H 0.704642 0.088606 0.460882
H60_3 H 0.619883 0.232301 0.452701
H61_3 H 0.593713 0.221574 0.411789
O1_3 O 0.7081(2) 0.82596(16) 0.2439(2)
C1_3 C 0.6587(3) 0.9778(2) 0.3136(4)
C2_3 C 0.6741(2) 0.9950(3) 0.3449(3)
C6_3 C 0.6280(3) 0.9937(3) 0.2958(2)
O2_3 O 0.7223(3) 0.8124(2) 0.3034(3)
C14_3 C 0.69781(19) 0.87098(16) 0.2877(3)
C15_3 C 0.6840(2) 0.8953(3) 0.26061(18)
C16_3 C 0.67063(18) 0.9303(2) 0.2709(2)
C17_3 C 0.6710(2) 0.94099(18) 0.3083(3)
C18_3 C 0.6847(3) 0.9167(3) 0.33534(17)
C19_3 C 0.6982(2) 0.8817(3) 0.3250(3)
C20_3 C 0.7122(3) 0.8318(4) 0.2767(5)
Zn2_3 Zn 0.80392(4) 0.75177(4) 0.23602(5)
O3_3 O 0.75299(16) 0.74701(16) 0.25299(16)
O4_3 O 0.8313(3) 0.7803(3) 0.2723(4)
O5_3 O 0.8205(3) 0.6956(4) 0.2236(2)
Zn3_3 Zn 0.74823(4) 0.76398(5) 0.30392(4)
O10_3 O 0.7197(3) 0.7277(4) 0.3313(3)
O11_3 O 0.8044(4) 0.7764(2) 0.3205(3)
O14_3 O 0.7439(2) 0.7919(2) 0.17404(16)
O16_3 O 0.8034(3) 0.7777(3) 0.1876(2)
H4_3 H 0.698175 0.982587 0.358827
H5_3 H 0.615982 0.980252 0.271257
H10_3 H 0.683678 0.886884 0.23134
H11_3 H 0.619778 0.996291 0.4178
H12_3 H 0.629169 0.999598 0.46653
H15_3 H 0.659871 0.949345 0.249706
H16_3 H 0.684875 0.925048 0.36463
H33_3 H 0.709076 0.862711 0.346184
C21_4 C 0.0222(2) 0.8136(4) 0.8413(3)
C22_4 C 0.0050(3) 0.8449(3) 0.8259(2)
C26_4 C 0.0063(3) 0.7958(2) 0.8720(3)
C34_4 C 0.12902(16) 0.7877(3) 0.80219(19)
C35_4 C 0.1047(3) 0.76061(18) 0.8160(2)
C36_4 C 0.0697(2) 0.7709(2) 0.82937(18)
C37_4 C 0.05901(18) 0.8083(3) 0.8290(2)
C38_4 C 0.0833(3) 0.83534(17) 0.8153(3)
C39_4 C 0.1183(3) 0.8250(3) 0.8018(2)
C40_4 C 0.1682(4) 0.7767(5) 0.7878(3)
H22_4 H 0.0749519 0.86463 0.815125
H23_4 H 0.0174132 0.858827 0.801825
H24_4 H 0.00370915 0.9178 0.880222
H25_4 H 0.000401854 0.96653 0.870831
H27_4 H 0.0506547 0.749706 0.840129
H28_4 H 0.113116 0.73134 0.816322
H29_4 H 0.137289 0.846184 0.790924
H32_4 H 0.0197477 0.771257 0.884018
C1_4 C 0.8413(3) 0.0222(2) 0.8136(4)
C2_4 C 0.8259(2) 0.0050(3) 0.8449(3)
C6_4 C 0.8720(3) 0.0063(3) 0.7958(2)
C14_4 C 0.80219(19) 0.12902(16) 0.7877(3)
C15_4 C 0.8160(2) 0.1047(3) 0.76061(18)
C16_4 C 0.82937(18) 0.0697(2) 0.7709(2)
C17_4 C 0.8290(2) 0.05901(18) 0.8083(3)
C18_4 C 0.8153(3) 0.0833(3) 0.83534(17)
C19_4 C 0.8018(2) 0.1183(3) 0.8250(3)
C20_4 C 0.7878(3) 0.1682(4) 0.7767(5)
O4_4 O 0.6687(3) 0.2197(3) 0.7723(4)
O5_4 O 0.6795(3) 0.3044(4) 0.7236(2)
H4_4 H 0.801825 0.0174132 0.858827
H5_4 H 0.884018 0.0197477 0.771257
H10_4 H 0.816322 0.113116 0.73134
H11_4 H 0.880222 0.00370915 0.9178
H12_4 H 0.870831 0.000401854 0.96653
H15_4 H 0.840129 0.0506547 0.749706
H16_4 H 0.815125 0.0749519 0.86463
H33_4 H 0.790924 0.137289 0.846184
C41_4 C 0.8136(4) 0.8413(3) 0.0222(2)
C42_4 C 0.8449(3) 0.8259(2) 0.0050(3)
C46_4 C 0.7958(2) 0.8720(3) 0.0063(3)
C54_4 C 0.7877(3) 0.80219(19) 0.12902(16)
C55_4 C 0.76061(18) 0.8160(2) 0.1047(3)
C56_4 C 0.7709(2) 0.82937(18) 0.0697(2)
C57_4 C 0.8083(3) 0.8290(2) 0.05901(18)
C58_4 C 0.83534(17) 0.8153(3) 0.0833(3)
C59_4 C 0.8250(3) 0.8018(2) 0.1183(3)
C60_4 C 0.7767(5) 0.7878(3) 0.1682(4)
H35_4 H 0.858827 0.801825 0.0174132
H44_4 H 0.9178 0.880222 0.00370915
H45_4 H 0.96653 0.870831 0.000401854
H51_4 H 0.73134 0.816322 0.113116
H52_4 H 0.771257 0.884018 0.0197477
H56_4 H 0.749706 0.840129 0.0506547
H57_4 H 0.86463 0.815125 0.0749519
H58_4 H 0.846184 0.790924 0.137289
O12_4 O 0.7723(4) 0.6687(3) 0.2197(3)
O13_4 O 0.7236(2) 0.6795(3) 0.3044(4)
O4_5 O 0.2197(3) 0.7723(4) 0.6687(3)
O5_5 O 0.3044(4) 0.7236(2) 0.6795(3)
O1_4 O 0.2919(2) 0.67404(16) 0.2439(2)
C1_5 C 0.3413(3) 0.5222(2) 0.3136(4)
C2_5 C 0.3259(2) 0.5050(3) 0.3449(3)
C3_4 C 0.3413(3) 0.4719(3) 0.3584(2)
C4_4 C 0.3720(3) 0.45608(19) 0.3406(3)
C5_4 C 0.38733(19) 0.4733(3) 0.3093(3)
C6_5 C 0.3720(3) 0.5063(3) 0.2958(2)
C7_4 C 0.3847(5) 0.4177(4) 0.3683(4)
C8_4 C 0.2871(3) 0.4294(3) 0.3830(4)
C9_4 C 0.4147(4) 0.3966(4) 0.3608(3)
C10_4 C 0.3333(3) 0.4707(3) 0.4319(3)
C11_4 C 0.3278(3) 0.4473(3) 0.3943(3)
C12_4 C 0.3713(3) 0.4851(3) 0.4402(3)
C13_4 C 0.2837(3) 0.4074(3) 0.3500(3)
O2_4 O 0.2777(3) 0.6876(2) 0.3034(3)
C14_5 C 0.30219(19) 0.62902(16) 0.2877(3)
C15_5 C 0.3160(2) 0.6047(3) 0.26061(18)
C16_5 C 0.32937(18) 0.5697(2) 0.2709(2)
C17_5 C 0.3290(2) 0.55901(18) 0.3083(3)
C18_5 C 0.3153(3) 0.5833(3) 0.33534(17)
C19_5 C 0.3018(2) 0.6183(3) 0.3250(3)
C20_5 C 0.2878(3) 0.6682(4) 0.2767(5)
Zn1_3 Zn 0.27851(4) 0.72149(4) 0.22149(4)
Zn2_4 Zn 0.19608(4) 0.74823(4) 0.23602(5)
O3_4 O 0.24701(16) 0.75299(16) 0.25299(16)
O4_6 O 0.1687(3) 0.7197(3) 0.2723(4)
O5_6 O 0.1795(3) 0.8044(4) 0.2236(2)
C21_5 C 0.5222(2) 0.3136(4) 0.3413(3)
C22_5 C 0.5050(3) 0.3449(3) 0.3259(2)
C23_4 C 0.4719(3) 0.3584(2) 0.3413(3)
C24_4 C 0.45608(19) 0.3406(3) 0.3720(3)
C25_4 C 0.4733(3) 0.3093(3) 0.38733(19)
C26_5 C 0.5063(3) 0.2958(2) 0.3720(3)
C27_4 C 0.4177(4) 0.3683(4) 0.3847(5)
C28_4 C 0.4294(3) 0.3830(4) 0.2871(3)
C29_4 C 0.3966(4) 0.3608(3) 0.4147(4)
C30_4 C 0.4707(3) 0.4319(3) 0.3333(3)
C31_4 C 0.4473(3) 0.3943(3) 0.3278(3)
C32_4 C 0.4851(3) 0.4402(3) 0.3713(3)
C33_4 C 0.4074(3) 0.3500(3) 0.2837(3)
O6_4 O 0.67404(16) 0.2439(2) 0.2919(2)
O7_4 O 0.6876(2) 0.3034(3) 0.2777(3)
C34_5 C 0.62902(16) 0.2877(3) 0.30219(19)
C35_5 C 0.6047(3) 0.26061(18) 0.3160(2)
C36_5 C 0.5697(2) 0.2709(2) 0.32937(18)
C37_5 C 0.55901(18) 0.3083(3) 0.3290(2)
C38_5 C 0.5833(3) 0.33534(17) 0.3153(3)
C39_5 C 0.6183(3) 0.3250(3) 0.3018(2)
C40_5 C 0.6682(4) 0.2767(5) 0.2878(3)
C41_5 C 0.3136(4) 0.3413(3) 0.5222(2)
C42_5 C 0.3449(3) 0.3259(2) 0.5050(3)
C43_4 C 0.3584(2) 0.3413(3) 0.4719(3)
C44_4 C 0.3406(3) 0.3720(3) 0.45608(19)
C45_4 C 0.3093(3) 0.38733(19) 0.4733(3)
C46_5 C 0.2958(2) 0.3720(3) 0.5063(3)
C47_4 C 0.3683(4) 0.3847(5) 0.4177(4)
C48_4 C 0.3830(4) 0.2871(3) 0.4294(3)
C49_4 C 0.3608(3) 0.4147(4) 0.3966(4)
C50_4 C 0.4319(3) 0.3333(3) 0.4707(3)
C51_4 C 0.3943(3) 0.3278(3) 0.4473(3)
C52_4 C 0.4402(3) 0.3713(3) 0.4851(3)
C53_4 C 0.3500(3) 0.2837(3) 0.4074(3)
O8_2 O 0.2439(2) 0.2919(2) 0.67404(16)
O9_4 O 0.3034(3) 0.2777(3) 0.6876(2)
C54_5 C 0.2877(3) 0.30219(19) 0.62902(16)
C55_5 C 0.26061(18) 0.3160(2) 0.6047(3)
C56_5 C 0.2709(2) 0.32937(18) 0.5697(2)
C57_5 C 0.3083(3) 0.3290(2) 0.55901(18)
C58_5 C 0.33534(17) 0.3153(3) 0.5833(3)
C59_5 C 0.3250(3) 0.3018(2) 0.6183(3)
C60_5 C 0.2767(5) 0.2878(3) 0.6682(4)
Zn3_4 Zn 0.25177(4) 0.73602(5) 0.30392(4)
O10_4 O 0.2803(3) 0.7723(4) 0.3313(3)
O11_4 O 0.1956(4) 0.7236(2) 0.3205(3)
Zn4_4 Zn 0.73602(5) 0.30392(4) 0.25177(4)
O12_5 O 0.7723(4) 0.3313(3) 0.2803(3)
O13_5 O 0.7236(2) 0.3205(3) 0.1956(4)
O14_4 O 0.2561(2) 0.7081(2) 0.17404(16)
O15_3 O 0.32596(16) 0.7439(2) 0.2081(2)
O16_4 O 0.1966(3) 0.7223(3) 0.1876(2)
Zn5_2 Zn 0.22149(4) 0.27851(4) 0.72149(4)
Zn6_2 Zn 0.72149(4) 0.22149(4) 0.27851(4)
Zn7_3 Zn 0.26398(5) 0.80392(4) 0.24823(4)
Zn8_2 Zn 0.30392(4) 0.25177(4) 0.73602(5)
O17_2 O 0.75299(16) 0.25299(16) 0.24701(16)
H1_4 H 0.302163 0.383255 0.351948
H2_4 H 0.254901 0.397945 0.347024
H3_4 H 0.291435 0.424167 0.325779
H4_5 H 0.301825 0.517413 0.358827
H5_5 H 0.384018 0.519748 0.271257
H6_4 H 0.267699 0.452701 0.380117
H7_4 H 0.278426 0.411789 0.406287
H8_4 H 0.325103 0.452735 0.455088
H9_4 H 0.314573 0.49468 0.430524
H10_5 H 0.316322 0.613116 0.23134
H11_5 H 0.380222 0.503709 0.4178
H12_5 H 0.370831 0.500402 0.46653
H13_4 H 0.390752 0.461763 0.442365
H14_4 H 0.411394 0.460882 0.295358
H15_5 H 0.340129 0.550655 0.249706
H16_5 H 0.315125 0.574952 0.36463
H17_4 H 0.452735 0.455088 0.325103
H18_4 H 0.49468 0.430524 0.314573
H19_4 H 0.383255 0.351948 0.302163
H20_4 H 0.397945 0.347024 0.254901
H21_4 H 0.424167 0.325779 0.291435
H22_5 H 0.574952 0.36463 0.315125
H23_5 H 0.517413 0.358827 0.301825
H24_5 H 0.503709 0.4178 0.380222
H25_5 H 0.500402 0.46653 0.370831
H26_4 H 0.461763 0.442365 0.390752
H27_5 H 0.550655 0.249706 0.340129
H28_5 H 0.613116 0.23134 0.316322
H29_5 H 0.637289 0.346184 0.290924
H32_5 H 0.519748 0.271257 0.384018
H33_5 H 0.290924 0.637289 0.346184
H34_4 H 0.460882 0.295358 0.411394
H35_5 H 0.358827 0.301825 0.517413
H36_4 H 0.452701 0.380117 0.267699
H37_4 H 0.411789 0.406287 0.278426
H44_5 H 0.4178 0.380222 0.503709
H45_5 H 0.46653 0.370831 0.500402
H46_4 H 0.442365 0.390752 0.461763
H47_4 H 0.455088 0.325103 0.452735
H48_4 H 0.430524 0.314573 0.49468
H51_5 H 0.23134 0.316322 0.613116
H52_5 H 0.271257 0.384018 0.519748
H53_4 H 0.351948 0.302163 0.383255
H54_4 H 0.347024 0.254901 0.397945
H55_4 H 0.325779 0.291435 0.424167
H56_5 H 0.249706 0.340129 0.550655
H57_5 H 0.36463 0.315125 0.574952
H58_5 H 0.346184 0.290924 0.637289
H59_4 H 0.295358 0.411394 0.460882
H60_4 H 0.380117 0.267699 0.452701
H61_4 H 0.406287 0.278426 0.411789
C21_6 C 0.1864(4) 0.6587(3) 0.0222(2)
C22_6 C 0.1551(3) 0.6741(2) 0.0050(3)
C26_6 C 0.2042(2) 0.6280(3) 0.0063(3)
C34_6 C 0.2123(3) 0.69781(19) 0.12902(16)
C35_6 C 0.23939(18) 0.6840(2) 0.1047(3)
C36_6 C 0.2291(2) 0.67063(18) 0.0697(2)
C37_6 C 0.1917(3) 0.6710(2) 0.05901(18)
C38_6 C 0.16466(17) 0.6847(3) 0.0833(3)
C39_6 C 0.1750(3) 0.6982(2) 0.1183(3)
C40_6 C 0.2233(5) 0.7122(3) 0.1682(4)
H22_6 H 0.13537 0.684875 0.0749519
H23_6 H 0.141173 0.698175 0.0174132
H24_6 H 0.0821997 0.619778 0.00370915
H25_6 H 0.0334698 0.629169 0.000401854
H27_6 H 0.250294 0.659871 0.0506547
H28_6 H 0.26866 0.683678 0.113116
H29_6 H 0.153816 0.709076 0.137289
H32_6 H 0.228743 0.615982 0.0197477
C3_5 C 0.0281(3) 0.6416(2) 0.8413(3)
C4_5 C 0.04392(19) 0.6594(3) 0.8720(3)
C5_5 C 0.0267(3) 0.6907(3) 0.88733(19)
C7_5 C 0.0823(4) 0.6317(4) 0.8847(5)
C8_5 C 0.0706(3) 0.6170(4) 0.7871(3)
C9_5 C 0.1034(4) 0.6392(3) 0.9147(4)
C10_5 C 0.0293(3) 0.5681(3) 0.8333(3)
C11_5 C 0.0527(3) 0.6057(3) 0.8278(3)
C12_5 C 0.0149(3) 0.5598(3) 0.8713(3)
C13_5 C 0.0926(3) 0.6500(3) 0.7837(3)
C23_5 C 0.1416(2) 0.6587(3) 0.9719(3)
C24_5 C 0.1594(3) 0.6280(3) 0.95608(19)
C25_5 C 0.1907(3) 0.61267(19) 0.9733(3)
C27_5 C 0.1317(4) 0.6153(5) 0.9177(4)
C28_5 C 0.1170(4) 0.7129(3) 0.9294(3)
C29_5 C 0.1392(3) 0.5853(4) 0.8966(4)
C30_5 C 0.0681(3) 0.6667(3) 0.9707(3)
C31_5 C 0.1057(3) 0.6722(3) 0.9473(3)
C32_5 C 0.0598(3) 0.6287(3) 0.9851(3)
C33_5 C 0.1500(3) 0.7163(3) 0.9074(3)
C41_6 C 0.1587(3) 0.4778(2) 0.8136(4)
C42_6 C 0.1741(2) 0.4950(3) 0.8449(3)
C43_5 C 0.1587(3) 0.5281(3) 0.8584(2)
C44_5 C 0.1280(3) 0.54392(19) 0.8406(3)
C45_5 C 0.11267(19) 0.5267(3) 0.8093(3)
C46_6 C 0.1280(3) 0.4937(3) 0.7958(2)
C47_5 C 0.1153(5) 0.5823(4) 0.8683(4)
C48_5 C 0.2129(3) 0.5706(3) 0.8830(4)
C49_5 C 0.0853(4) 0.6034(4) 0.8608(3)
C50_5 C 0.1667(3) 0.5293(3) 0.9319(3)
C51_5 C 0.1722(3) 0.5527(3) 0.8943(3)
C52_5 C 0.1287(3) 0.5149(3) 0.9402(3)
C53_5 C 0.2163(3) 0.5926(3) 0.8500(3)
O8_3 O 0.2081(2) 0.32596(16) 0.7439(2)
O9_5 O 0.2223(3) 0.3124(2) 0.8034(3)
C54_6 C 0.19781(19) 0.37098(16) 0.7877(3)
C55_6 C 0.1840(2) 0.3953(3) 0.76061(18)
C56_6 C 0.17063(18) 0.4303(2) 0.7709(2)
C57_6 C 0.1710(2) 0.44099(18) 0.8083(3)
C58_6 C 0.1847(3) 0.4167(3) 0.83534(17)
C59_6 C 0.1982(2) 0.3817(3) 0.8250(3)
C60_6 C 0.2122(3) 0.3318(4) 0.7767(5)
Zn8_3 Zn 0.24823(4) 0.26398(5) 0.80392(4)
H1_5 H 0.116745 0.648052 0.802163
H2_5 H 0.102055 0.652976 0.754901
H3_5 H 0.0758329 0.674221 0.791435
H6_5 H 0.0472991 0.619883 0.767699
H7_5 H 0.0882112 0.593713 0.778426
H8_5 H 0.0472653 0.544912 0.825103
H9_5 H 0.00531958 0.569476 0.814573
H13_5 H 0.0382366 0.557635 0.890752
H14_5 H 0.0391177 0.704642 0.911394
H17_5 H 0.0449115 0.674897 0.952735
H18_5 H 0.0694758 0.685427 0.99468
H19_5 H 0.148052 0.697837 0.883255
H20_5 H 0.152976 0.745099 0.897945
H21_5 H 0.174221 0.708565 0.924167
H26_5 H 0.0576355 0.609248 0.961763
H34_5 H 0.204642 0.588606 0.960882
H35_6 H 0.198175 0.482587 0.858827
H36_5 H 0.119883 0.732301 0.952701
H37_5 H 0.0937135 0.721574 0.911789
H44_6 H 0.119778 0.496291 0.9178
H45_6 H 0.129169 0.499598 0.96653
H46_5 H 0.109248 0.538237 0.942365
H47_5 H 0.174897 0.547265 0.955088
H48_5 H 0.185427 0.50532 0.930524
H51_6 H 0.183678 0.386884 0.73134
H52_6 H 0.115982 0.480252 0.771257
H53_5 H 0.197837 0.616745 0.851948
H54_5 H 0.245099 0.602055 0.847024
H55_5 H 0.208565 0.575833 0.825779
H56_6 H 0.159871 0.449345 0.749706
H57_6 H 0.184875 0.425048 0.86463
H58_6 H 0.209076 0.362711 0.846184
H59_5 H 0.088606 0.539118 0.795358
H60_5 H 0.232301 0.547299 0.880117
H61_5 H 0.221574 0.588211 0.906287
C21_7 C 0.0222(2) 0.1864(4) 0.6587(3)
C22_7 C 0.0050(3) 0.1551(3) 0.6741(2)
C26_7 C 0.0063(3) 0.2042(2) 0.6280(3)
O6_5 O 0.17404(16) 0.2561(2) 0.7081(2)
O7_5 O 0.1876(2) 0.1966(3) 0.7223(3)
C34_7 C 0.12902(16) 0.2123(3) 0.69781(19)
C35_7 C 0.1047(3) 0.23939(18) 0.6840(2)
C36_7 C 0.0697(2) 0.2291(2) 0.67063(18)
C37_7 C 0.05901(18) 0.1917(3) 0.6710(2)
C38_7 C 0.0833(3) 0.16466(17) 0.6847(3)
C39_7 C 0.1183(3) 0.1750(3) 0.6982(2)
C40_7 C 0.1682(4) 0.2233(5) 0.7122(3)
Zn4_5 Zn 0.23602(5) 0.19608(4) 0.74823(4)
O12_6 O 0.2723(4) 0.1687(3) 0.7197(3)
O13_6 O 0.2236(2) 0.1795(3) 0.8044(4)
O17_3 O 0.25299(16) 0.24701(16) 0.75299(16)
H22_7 H 0.0749519 0.13537 0.684875
H23_7 H 0.0174132 0.141173 0.698175
H24_7 H 0.00370915 0.0821997 0.619778
H25_7 H 0.000401854 0.0334698 0.629169
H27_7 H 0.0506547 0.250294 0.659871
H28_7 H 0.113116 0.26866 0.683678
H29_7 H 0.137289 0.153816 0.709076
H32_7 H 0.0197477 0.228743 0.615982
C3_6 C 0.8413(3) 0.0281(3) 0.6416(2)
C4_6 C 0.8720(3) 0.04392(19) 0.6594(3)
C5_6 C 0.88733(19) 0.0267(3) 0.6907(3)
C7_6 C 0.8847(5) 0.0823(4) 0.6317(4)
C8_6 C 0.7871(3) 0.0706(3) 0.6170(4)
C9_6 C 0.9147(4) 0.1034(4) 0.6392(3)
C10_6 C 0.8333(3) 0.0293(3) 0.5681(3)
C11_6 C 0.8278(3) 0.0527(3) 0.6057(3)
C12_6 C 0.8713(3) 0.0149(3) 0.5598(3)
C13_6 C 0.7837(3) 0.0926(3) 0.6500(3)
C23_6 C 0.9719(3) 0.1416(2) 0.6587(3)
C24_6 C 0.95608(19) 0.1594(3) 0.6280(3)
C25_6 C 0.9733(3) 0.1907(3) 0.61267(19)
C27_6 C 0.9177(4) 0.1317(4) 0.6153(5)
C28_6 C 0.9294(3) 0.1170(4) 0.7129(3)
C29_6 C 0.8966(4) 0.1392(3) 0.5853(4)
C30_6 C 0.9707(3) 0.0681(3) 0.6667(3)
C31_6 C 0.9473(3) 0.1057(3) 0.6722(3)
C32_6 C 0.9851(3) 0.0598(3) 0.6287(3)
C33_6 C 0.9074(3) 0.1500(3) 0.7163(3)
C41_7 C 0.8136(4) 0.1587(3) 0.4778(2)
C42_7 C 0.8449(3) 0.1741(2) 0.4950(3)
C43_6 C 0.8584(2) 0.1587(3) 0.5281(3)
C44_6 C 0.8406(3) 0.1280(3) 0.54392(19)
C45_6 C 0.8093(3) 0.11267(19) 0.5267(3)
C46_7 C 0.7958(2) 0.1280(3) 0.4937(3)
C47_6 C 0.8683(4) 0.1153(5) 0.5823(4)
C48_6 C 0.8830(4) 0.2129(3) 0.5706(3)
C49_6 C 0.8608(3) 0.0853(4) 0.6034(4)
C50_6 C 0.9319(3) 0.1667(3) 0.5293(3)
C51_6 C 0.8943(3) 0.1722(3) 0.5527(3)
C52_6 C 0.9402(3) 0.1287(3) 0.5149(3)
C53_6 C 0.8500(3) 0.2163(3) 0.5926(3)
O8_4 O 0.7439(2) 0.2081(2) 0.32596(16)
O9_6 O 0.8034(3) 0.2223(3) 0.3124(2)
C54_7 C 0.7877(3) 0.19781(19) 0.37098(16)
C55_7 C 0.76061(18) 0.1840(2) 0.3953(3)
C56_7 C 0.7709(2) 0.17063(18) 0.4303(2)
C57_7 C 0.8083(3) 0.1710(2) 0.44099(18)
C58_7 C 0.83534(17) 0.1847(3) 0.4167(3)
C59_7 C 0.8250(3) 0.1982(2) 0.3817(3)
C60_7 C 0.7767(5) 0.2122(3) 0.3318(4)
Zn8_4 Zn 0.80392(4) 0.24823(4) 0.26398(5)
H1_6 H 0.802163 0.116745 0.648052
H2_6 H 0.754901 0.102055 0.652976
H3_6 H 0.791435 0.0758329 0.674221
H6_6 H 0.767699 0.0472991 0.619883
H7_6 H 0.778426 0.0882112 0.593713
H8_6 H 0.825103 0.0472653 0.544912
H9_6 H 0.814573 0.00531958 0.569476
H13_6 H 0.890752 0.0382366 0.557635
H14_6 H 0.911394 0.0391177 0.704642
H17_6 H 0.952735 0.0449115 0.674897
H18_6 H 0.99468 0.0694758 0.685427
H19_6 H 0.883255 0.148052 0.697837
H20_6 H 0.897945 0.152976 0.745099
H21_6 H 0.924167 0.174221 0.708565
H26_6 H 0.961763 0.0576355 0.609248
H34_6 H 0.960882 0.204642 0.588606
H35_7 H 0.858827 0.198175 0.482587
H36_6 H 0.952701 0.119883 0.732301
H37_6 H 0.911789 0.0937135 0.721574
H44_7 H 0.9178 0.119778 0.496291
H45_7 H 0.96653 0.129169 0.499598
H46_6 H 0.942365 0.109248 0.538237
H47_6 H 0.955088 0.174897 0.547265
H48_6 H 0.930524 0.185427 0.50532
H51_7 H 0.73134 0.183678 0.386884
H52_7 H 0.771257 0.115982 0.480252
H53_6 H 0.851948 0.197837 0.616745
H54_6 H 0.847024 0.245099 0.602055
H55_6 H 0.825779 0.208565 0.575833
H56_7 H 0.749706 0.159871 0.449345
H57_7 H 0.86463 0.184875 0.425048
H58_7 H 0.846184 0.209076 0.362711
H59_6 H 0.795358 0.088606 0.539118
H60_6 H 0.880117 0.232301 0.547299
H61_6 H 0.906287 0.221574 0.588211
O4_7 O 0.2197(3) 0.2277(4) 0.8313(3)
O5_7 O 0.3044(4) 0.2764(2) 0.8205(3)
O12_7 O 0.8313(3) 0.2197(3) 0.2277(4)
O13_7 O 0.8205(3) 0.3044(4) 0.2764(2)
Zn2_5 Zn 0.74823(4) 0.23602(5) 0.19608(4)
O4_8 O 0.7197(3) 0.2723(4) 0.1687(3)
O5_8 O 0.8044(4) 0.2236(2) 0.1795(3)
O12_8 O 0.3313(3) 0.2803(3) 0.7723(4)
O13_8 O 0.3205(3) 0.1956(4) 0.7236(2)
O14_5 O 0.7081(2) 0.17404(16) 0.2561(2)
O16_5 O 0.7223(3) 0.1876(2) 0.1966(3)
C1_6 C 0.6587(3) 0.0222(2) 0.1864(4)
C2_6 C 0.6741(2) 0.0050(3) 0.1551(3)
C6_6 C 0.6280(3) 0.0063(3) 0.2042(2)
C14_6 C 0.69781(19) 0.12902(16) 0.2123(3)
C15_6 C 0.6840(2) 0.1047(3) 0.23939(18)
C16_6 C 0.67063(18) 0.0697(2) 0.2291(2)
C17_6 C 0.6710(2) 0.05901(18) 0.1917(3)
C18_6 C 0.6847(3) 0.0833(3) 0.16466(17)
C19_6 C 0.6982(2) 0.1183(3) 0.1750(3)
C20_6 C 0.7122(3) 0.1682(4) 0.2233(5)
H4_6 H 0.698175 0.0174132 0.141173
H5_6 H 0.615982 0.0197477 0.228743
H10_6 H 0.683678 0.113116 0.26866
H11_6 H 0.619778 0.00370915 0.0821997
H12_6 H 0.629169 0.000401854 0.0334698
H15_6 H 0.659871 0.0506547 0.250294
H16_6 H 0.684875 0.0749519 0.13537
H33_6 H 0.709076 0.137289 0.153816
C3_7 C 0.6587(3) 0.9719(3) 0.1416(2)
C4_7 C 0.6280(3) 0.95608(19) 0.1594(3)
C5_7 C 0.61267(19) 0.9733(3) 0.1907(3)
C7_7 C 0.6153(5) 0.9177(4) 0.1317(4)
C8_7 C 0.7129(3) 0.9294(3) 0.1170(4)
C9_7 C 0.5853(4) 0.8966(4) 0.1392(3)
C10_7 C 0.6667(3) 0.9707(3) 0.0681(3)
C11_7 C 0.6722(3) 0.9473(3) 0.1057(3)
C12_7 C 0.6287(3) 0.9851(3) 0.0598(3)
C13_7 C 0.7163(3) 0.9074(3) 0.1500(3)
C21_8 C 0.4778(2) 0.8136(4) 0.1587(3)
C22_8 C 0.4950(3) 0.8449(3) 0.1741(2)
C23_7 C 0.5281(3) 0.8584(2) 0.1587(3)
C24_7 C 0.54392(19) 0.8406(3) 0.1280(3)
C25_7 C 0.5267(3) 0.8093(3) 0.11267(19)
C26_8 C 0.4937(3) 0.7958(2) 0.1280(3)
C27_7 C 0.5823(4) 0.8683(4) 0.1153(5)
C28_7 C 0.5706(3) 0.8830(4) 0.2129(3)
C29_7 C 0.6034(4) 0.8608(3) 0.0853(4)
C30_7 C 0.5293(3) 0.9319(3) 0.1667(3)
C31_7 C 0.5527(3) 0.8943(3) 0.1722(3)
C32_7 C 0.5149(3) 0.9402(3) 0.1287(3)
C33_7 C 0.5926(3) 0.8500(3) 0.2163(3)
O7_6 O 0.3124(2) 0.8034(3) 0.2223(3)
C34_8 C 0.37098(16) 0.7877(3) 0.19781(19)
C35_8 C 0.3953(3) 0.76061(18) 0.1840(2)
C36_8 C 0.4303(2) 0.7709(2) 0.17063(18)
C37_8 C 0.44099(18) 0.8083(3) 0.1710(2)
C38_8 C 0.4167(3) 0.83534(17) 0.1847(3)
C39_8 C 0.3817(3) 0.8250(3) 0.1982(2)
C40_8 C 0.3318(4) 0.7767(5) 0.2122(3)
C43_7 C 0.6416(2) 0.8413(3) 0.0281(3)
C44_7 C 0.6594(3) 0.8720(3) 0.04392(19)
C45_7 C 0.6907(3) 0.88733(19) 0.0267(3)
C47_7 C 0.6317(4) 0.8847(5) 0.0823(4)
C48_7 C 0.6170(4) 0.7871(3) 0.0706(3)
C49_7 C 0.6392(3) 0.9147(4) 0.1034(4)
C50_7 C 0.5681(3) 0.8333(3) 0.0293(3)
C51_7 C 0.6057(3) 0.8278(3) 0.0527(3)
C52_7 C 0.5598(3) 0.8713(3) 0.0149(3)
C53_7 C 0.6500(3) 0.7837(3) 0.0926(3)
O12_9 O 0.2277(4) 0.8313(3) 0.2197(3)
O13_9 O 0.2764(2) 0.8205(3) 0.3044(4)
H1_7 H 0.697837 0.883255 0.148052
H2_7 H 0.745099 0.897945 0.152976
H3_7 H 0.708565 0.924167 0.174221
H6_7 H 0.732301 0.952701 0.119883
H7_7 H 0.721574 0.911789 0.0937135
H8_7 H 0.674897 0.952735 0.0449115
H9_7 H 0.685427 0.99468 0.0694758
H13_7 H 0.609248 0.961763 0.0576355
H14_7 H 0.588606 0.960882 0.204642
H17_7 H 0.547265 0.955088 0.174897
H18_7 H 0.50532 0.930524 0.185427
H19_7 H 0.616745 0.851948 0.197837
H20_7 H 0.602055 0.847024 0.245099
H21_7 H 0.575833 0.825779 0.208565
H22_8 H 0.425048 0.86463 0.184875
H23_8 H 0.482587 0.858827 0.198175
H24_8 H 0.496291 0.9178 0.119778
H25_8 H 0.499598 0.96653 0.129169
H26_7 H 0.538237 0.942365 0.109248
H27_8 H 0.449345 0.749706 0.159871
H28_8 H 0.386884 0.73134 0.183678
H29_8 H 0.362711 0.846184 0.209076
H32_8 H 0.480252 0.771257 0.115982
H34_7 H 0.539118 0.795358 0.088606
H36_7 H 0.547299 0.880117 0.232301
H37_7 H 0.588211 0.906287 0.221574
H46_7 H 0.557635 0.890752 0.0382366
H47_7 H 0.544912 0.825103 0.0472653
H48_7 H 0.569476 0.814573 0.00531958
H53_7 H 0.648052 0.802163 0.116745
H54_7 H 0.652976 0.754901 0.102055
H55_7 H 0.674221 0.791435 0.0758329
H59_7 H 0.704642 0.911394 0.0391177
H60_7 H 0.619883 0.767699 0.0472991
H61_7 H 0.593713 0.778426 0.0882112
O1_5 O 0.82596(16) 0.7561(2) 0.7919(2)
C1_7 C 0.9778(2) 0.6864(4) 0.8413(3)
C2_7 C 0.9950(3) 0.6551(3) 0.8259(2)
C6_7 C 0.9937(3) 0.7042(2) 0.8720(3)
O2_5 O 0.8124(2) 0.6966(3) 0.7777(3)
C14_7 C 0.87098(16) 0.7123(3) 0.80219(19)
C15_7 C 0.8953(3) 0.73939(18) 0.8160(2)
C16_7 C 0.9303(2) 0.7291(2) 0.82937(18)
C17_7 C 0.94099(18) 0.6917(3) 0.8290(2)
C18_7 C 0.9167(3) 0.66466(17) 0.8153(3)
C19_7 C 0.8817(3) 0.6750(3) 0.8018(2)
C20_7 C 0.8318(4) 0.7233(5) 0.7878(3)
Zn1_4 Zn 0.77851(4) 0.77851(4) 0.77851(4)
Zn2_6 Zn 0.75177(4) 0.76398(5) 0.69608(4)
O3_5 O 0.74701(16) 0.74701(16) 0.74701(16)
O4_9 O 0.7803(3) 0.7277(4) 0.6687(3)
O5_9 O 0.6956(4) 0.7764(2) 0.6795(3)
Zn3_5 Zn 0.76398(5) 0.69608(4) 0.75177(4)
O10_5 O 0.7277(4) 0.6687(3) 0.7803(3)
O11_5 O 0.7764(2) 0.6795(3) 0.6956(4)
O14_6 O 0.7919(2) 0.82596(16) 0.7561(2)
O15_4 O 0.7561(2) 0.7919(2) 0.82596(16)
O16_6 O 0.7777(3) 0.8124(2) 0.6966(3)
Zn7_4 Zn 0.69608(4) 0.75177(4) 0.76398(5)
H4_7 H 0.982587 0.641173 0.801825
H5_7 H 0.980252 0.728743 0.884018
H10_7 H 0.886884 0.76866 0.816322
H11_7 H 0.996291 0.5822 0.880222
H12_7 H 0.999598 0.53347 0.870831
H15_7 H 0.949345 0.750294 0.840129
H16_7 H 0.925048 0.63537 0.815125
H33_7 H 0.862711 0.653816 0.790924
C1_8 C 0.8413(3) 0.9778(2) 0.6864(4)
C2_8 C 0.8259(2) 0.9950(3) 0.6551(3)
C6_8 C 0.8720(3) 0.9937(3) 0.7042(2)
C14_8 C 0.80219(19) 0.87098(16) 0.7123(3)
C15_8 C 0.8160(2) 0.8953(3) 0.73939(18)
C16_8 C 0.82937(18) 0.9303(2) 0.7291(2)
C17_8 C 0.8290(2) 0.94099(18) 0.6917(3)
C18_8 C 0.8153(3) 0.9167(3) 0.66466(17)
C19_8 C 0.8018(2) 0.8817(3) 0.6750(3)
C20_8 C 0.7878(3) 0.8318(4) 0.7233(5)
O4_10 O 0.6687(3) 0.7803(3) 0.7277(4)
O5_10 O 0.6795(3) 0.6956(4) 0.7764(2)
O16_7 O 0.6966(3) 0.7777(3) 0.8124(2)
H4_8 H 0.801825 0.982587 0.641173
H5_8 H 0.884018 0.980252 0.728743
H10_8 H 0.816322 0.886884 0.76866
H11_8 H 0.880222 0.996291 0.5822
H12_8 H 0.870831 0.999598 0.53347
H15_8 H 0.840129 0.949345 0.750294
H16_8 H 0.815125 0.925048 0.63537
H33_8 H 0.790924 0.862711 0.653816
C41_8 C 0.6864(4) 0.8413(3) 0.9778(2)
C42_8 C 0.6551(3) 0.8259(2) 0.9950(3)
C46_8 C 0.7042(2) 0.8720(3) 0.9937(3)
C54_8 C 0.7123(3) 0.80219(19) 0.87098(16)
C55_8 C 0.73939(18) 0.8160(2) 0.8953(3)
C56_8 C 0.7291(2) 0.82937(18) 0.9303(2)
C57_8 C 0.6917(3) 0.8290(2) 0.94099(18)
C58_8 C 0.66466(17) 0.8153(3) 0.9167(3)
C59_8 C 0.6750(3) 0.8018(2) 0.8817(3)
C60_8 C 0.7233(5) 0.7878(3) 0.8318(4)
H35_8 H 0.641173 0.801825 0.982587
H44_8 H 0.5822 0.880222 0.996291
H45_8 H 0.53347 0.870831 0.999598
H51_8 H 0.76866 0.816322 0.886884
H52_8 H 0.728743 0.884018 0.980252
H56_8 H 0.750294 0.840129 0.949345
H57_8 H 0.63537 0.815125 0.925048
H58_8 H 0.653816 0.790924 0.862711
C3_8 C 0.8413(3) 0.9719(3) 0.8584(2)
C4_8 C 0.8720(3) 0.95608(19) 0.8406(3)
C5_8 C 0.88733(19) 0.9733(3) 0.8093(3)
C7_8 C 0.8847(5) 0.9177(4) 0.8683(4)
C8_8 C 0.7871(3) 0.9294(3) 0.8830(4)
C9_8 C 0.9147(4) 0.8966(4) 0.8608(3)
C10_8 C 0.8333(3) 0.9707(3) 0.9319(3)
C11_8 C 0.8278(3) 0.9473(3) 0.8943(3)
C12_8 C 0.8713(3) 0.9851(3) 0.9402(3)
C13_8 C 0.7837(3) 0.9074(3) 0.8500(3)
C23_8 C 0.9719(3) 0.8584(2) 0.8413(3)
C24_8 C 0.95608(19) 0.8406(3) 0.8720(3)
C25_8 C 0.9733(3) 0.8093(3) 0.88733(19)
C27_8 C 0.9177(4) 0.8683(4) 0.8847(5)
C28_8 C 0.9294(3) 0.8830(4) 0.7871(3)
C29_8 C 0.8966(4) 0.8608(3) 0.9147(4)
C30_8 C 0.9707(3) 0.9319(3) 0.8333(3)
C31_8 C 0.9473(3) 0.8943(3) 0.8278(3)
C32_8 C 0.9851(3) 0.9402(3) 0.8713(3)
C33_8 C 0.9074(3) 0.8500(3) 0.7837(3)
C43_8 C 0.8584(2) 0.8413(3) 0.9719(3)
C44_8 C 0.8406(3) 0.8720(3) 0.95608(19)
C45_8 C 0.8093(3) 0.88733(19) 0.9733(3)
C47_8 C 0.8683(4) 0.8847(5) 0.9177(4)
C48_8 C 0.8830(4) 0.7871(3) 0.9294(3)
C49_8 C 0.8608(3) 0.9147(4) 0.8966(4)
C50_8 C 0.9319(3) 0.8333(3) 0.9707(3)
C51_8 C 0.8943(3) 0.8278(3) 0.9473(3)
C52_8 C 0.9402(3) 0.8713(3) 0.9851(3)
C53_8 C 0.8500(3) 0.7837(3) 0.9074(3)
H1_8 H 0.802163 0.883255 0.851948
H2_8 H 0.754901 0.897945 0.847024
H3_8 H 0.791435 0.924167 0.825779
H6_8 H 0.767699 0.952701 0.880117
H7_8 H 0.778426 0.911789 0.906287
H8_8 H 0.825103 0.952735 0.955088
H9_8 H 0.814573 0.99468 0.930524
H13_8 H 0.890752 0.961763 0.942365
H14_8 H 0.911394 0.960882 0.795358
H17_8 H 0.952735 0.955088 0.825103
H18_8 H 0.99468 0.930524 0.814573
H19_8 H 0.883255 0.851948 0.802163
H20_8 H 0.897945 0.847024 0.754901
H21_8 H 0.924167 0.825779 0.791435
H26_8 H 0.961763 0.942365 0.890752
H34_8 H 0.960882 0.795358 0.911394
H36_8 H 0.952701 0.880117 0.767699
H37_8 H 0.911789 0.906287 0.778426
H46_8 H 0.942365 0.890752 0.961763
H47_8 H 0.955088 0.825103 0.952735
H48_8 H 0.930524 0.814573 0.99468
H53_8 H 0.851948 0.802163 0.883255
H54_8 H 0.847024 0.754901 0.897945
H55_8 H 0.825779 0.791435 0.924167
H59_8 H 0.795358 0.911394 0.960882
H60_8 H 0.880117 0.767699 0.952701
H61_8 H 0.906287 0.778426 0.911789
loop_
_geom_bond_atom_site_label_1
_geom_bond_atom_site_label_2
_geom_bond_site_symmetry_1
_geom_bond_site_symmetry_2
C3 C4 1_555 1_555
C4 C5 1_555 1_555
C7 C4 1_555 1_555
C8 C11 1_555 1_555
C9 C7 1_555 1_555
C10 C11 1_555 1_555
C11 C3 1_555 1_555
C12 C10 1_555 1_555
C13 C8 1_555 1_555
C21 C22 1_555 1_555
C22 C23 1_555 1_555
C23 C24 1_555 1_555
C24 C25 1_555 1_555
C25 C26 1_555 1_555
C26 C21 1_555 1_555
C27 C9 1_555 1_555
C28 C31 1_555 1_555
C29 C27 1_555 1_555
C30 C31 1_555 1_555
C31 C9 1_555 1_555
C32 C30 1_555 1_555
C33 C28 1_555 1_555
O6 C40 1_555 1_555
O7 C40 1_555 1_555
C34 C35 1_555 1_555
C35 C36 1_555 1_555
C36 C37 1_555 1_555
C37 C21 1_555 1_555
C38 C37 1_555 1_555
C39 C34 1_555 1_555
C40 C34 1_555 1_555
C41 C42 1_555 1_555
C42 C43 1_555 1_555
C43 C44 1_555 1_555
C44 C45 1_555 1_555
C45 C46 1_555 1_555
C46 C41 1_555 1_555
C47 C29 1_555 1_555
C48 C51 1_555 1_555
C49 C7 1_555 1_555
C50 C51 1_555 1_555
C51 C29 1_555 1_555
C52 C50 1_555 1_555
C53 C48 1_555 1_555
O8 C60 1_555 1_555
O9 C60 1_555 1_555
C54 C55 1_555 1_555
C55 C56 1_555 1_555
C56 C57 1_555 1_555
C57 C41 1_555 1_555
C58 C57 1_555 1_555
C59 C54 1_555 1_555
C60 C54 1_555 1_555
Zn4 O7 1_555 1_555
O12 Zn4 1_555 1_555
O13 Zn4 1_555 1_555
Zn5 O8 1_555 1_555
Zn6 O6 1_555 1_555
Zn8 O9 1_555 1_555
O17 Zn4 1_555 1_555
C11 C49 1_555 1_555
C23 C31 1_555 1_555
C24 C27 1_555 1_555
C38 C39 1_555 1_555
C43 C51 1_555 1_555
C44 C47 1_555 1_555
C47 C49 1_555 1_555
C58 C59 1_555 1_555
Zn6 O17 1_555 1_555
C13 H1 1_555 1_555
C13 H2 1_555 1_555
C13 H3 1_555 1_555
C8 H6 1_555 1_555
C8 H7 1_555 1_555
C10 H8 1_555 1_555
C10 H9 1_555 1_555
C12 H13 1_555 1_555
C5 H14 1_555 1_555
C30 H17 1_555 1_555
C30 H18 1_555 1_555
C33 H19 1_555 1_555
C33 H20 1_555 1_555
C33 H21 1_555 1_555
C38 H22 1_555 1_555
C22 H23 1_555 1_555
C32 H24 1_555 1_555
C32 H25 1_555 1_555
C32 H26 1_555 1_555
C36 H27 1_555 1_555
C35 H28 1_555 1_555
C39 H29 1_555 1_555
C26 H32 1_555 1_555
C25 H34 1_555 1_555
C42 H35 1_555 1_555
C28 H36 1_555 1_555
C28 H37 1_555 1_555
C52 H44 1_555 1_555
C52 H45 1_555 1_555
C52 H46 1_555 1_555
C50 H47 1_555 1_555
C50 H48 1_555 1_555
C55 H51 1_555 1_555
C46 H52 1_555 1_555
C53 H53 1_555 1_555
C53 H54 1_555 1_555
C53 H55 1_555 1_555
C56 H56 1_555 1_555
C58 H57 1_555 1_555
C59 H58 1_555 1_555
C45 H59 1_555 1_555
C48 H60 1_555 1_555
C48 H61 1_555 1_555
O1 C20 1_555 1_555
C1 C2 1_555 1_555
C6 C1 1_555 1_555
O2 C20 1_555 1_555
C14 C15 1_555 1_555
C15 C16 1_555 1_555
C16 C17 1_555 1_555
C17 C1 1_555 1_555
C18 C17 1_555 1_555
C19 C14 1_555 1_555
C20 C14 1_555 1_555
Zn1 O1 1_555 1_555
Zn2 O3 1_555 1_555
O3 Zn1 1_555 1_555
O4 Zn2 1_555 1_555
O5 Zn2 1_555 1_555
Zn3 O2 1_555 1_555
O10 Zn3 1_555 1_555
O11 Zn3 1_555 1_555
O14 Zn1 1_555 1_555
O15 Zn1 1_555 1_555
O16 Zn2 1_555 1_555
Zn7 O3 1_555 1_555
C18 C19 1_555 1_555
O3 Zn3 1_555 1_555
C2 H4 1_555 1_555
C6 H5 1_555 1_555
C15 H10 1_555 1_555
C16 H15 1_555 1_555
C18 H16 1_555 1_555
C19 H33 1_555 1_555
C3_2 C4_2 1_555 1_555
C4_2 C5_2 1_555 1_555
C7_2 C4_2 1_555 1_555
C8_2 C11_2 1_555 1_555
C9_2 C7_2 1_555 1_555
C10_2 C11_2 1_555 1_555
C11_2 C3_2 1_555 1_555
C12_2 C10_2 1_555 1_555
C13_2 C8_2 1_555 1_555
C21_2 C22_2 1_555 1_555
C22_2 C23_2 1_555 1_555
C23_2 C24_2 1_555 1_555
C24_2 C25_2 1_555 1_555
C25_2 C26_2 1_555 1_555
C26_2 C21_2 1_555 1_555
C27_2 C9_2 1_555 1_555
C28_2 C31_2 1_555 1_555
C29_2 C27_2 1_555 1_555
C30_2 C31_2 1_555 1_555
C31_2 C9_2 1_555 1_555
C32_2 C30_2 1_555 1_555
C33_2 C28_2 1_555 1_555
O6_2 C40_2 1_555 1_555
O7_2 C40_2 1_555 1_555
C34_2 C35_2 1_555 1_555
C35_2 C36_2 1_555 1_555
C36_2 C37_2 1_555 1_555
C37_2 C21_2 1_555 1_555
C38_2 C37_2 1_555 1_555
C39_2 C34_2 1_555 1_555
C40_2 C34_2 1_555 1_555
C41_2 C42_2 1_555 1_555
C42_2 C43_2 1_555 1_555
C43_2 C44_2 1_555 1_555
C44_2 C45_2 1_555 1_555
C45_2 C46_2 1_555 1_555
C46_2 C41_2 1_555 1_555
C47_2 C29_2 1_555 1_555
C48_2 C51_2 1_555 1_555
C49_2 C7_2 1_555 1_555
C50_2 C51_2 1_555 1_555
C51_2 C29_2 1_555 1_555
C52_2 C50_2 1_555 1_555
C53_2 C48_2 1_555 1_555
O15 C60_2 1_555 1_555
O9_2 C60_2 1_555 1_555
C54_2 C55_2 1_555 1_555
C55_2 C56_2 1_555 1_555
C56_2 C57_2 1_555 1_555
C57_2 C41_2 1_555 1_555
C58_2 C57_2 1_555 1_555
C59_2 C54_2 1_555 1_555
C60_2 C54_2 1_555 1_555
Zn4_2 O7_2 1_555 1_555
O12_2 Zn4_2 1_555 1_555
O13_2 Zn4_2 1_555 1_555
Zn6 O6_2 1_555 1_555
Zn7 O9_2 1_555 1_555
O17 Zn4_2 1_555 1_555
C11_2 C49_2 1_555 1_555
C23_2 C31_2 1_555 1_555
C24_2 C27_2 1_555 1_555
C38_2 C39_2 1_555 1_555
C43_2 C51_2 1_555 1_555
C44_2 C47_2 1_555 1_555
C47_2 C49_2 1_555 1_555
C58_2 C59_2 1_555 1_555
C13_2 H1_2 1_555 1_555
C13_2 H2_2 1_555 1_555
C13_2 H3_2 1_555 1_555
C8_2 H6_2 1_555 1_555
C8_2 H7_2 1_555 1_555
C10_2 H8_2 1_555 1_555
C10_2 H9_2 1_555 1_555
C12_2 H13_2 1_555 1_555
C5_2 H14_2 1_555 1_555
C30_2 H17_2 1_555 1_555
C30_2 H18_2 1_555 1_555
C33_2 H19_2 1_555 1_555
C33_2 H20_2 1_555 1_555
C33_2 H21_2 1_555 1_555
C38_2 H22_2 1_555 1_555
C22_2 H23_2 1_555 1_555
C32_2 H24_2 1_555 1_555
C32_2 H25_2 1_555 1_555
C32_2 H26_2 1_555 1_555
C36_2 H27_2 1_555 1_555
C35_2 H28_2 1_555 1_555
C39_2 H29_2 1_555 1_555
C26_2 H32_2 1_555 1_555
C25_2 H34_2 1_555 1_555
C42_2 H35_2 1_555 1_555
C28_2 H36_2 1_555 1_555
C28_2 H37_2 1_555 1_555
C52_2 H44_2 1_555 1_555
C52_2 H45_2 1_555 1_555
C52_2 H46_2 1_555 1_555
C50_2 H47_2 1_555 1_555
C50_2 H48_2 1_555 1_555
C55_2 H51_2 1_555 1_555
C46_2 H52_2 1_555 1_555
C53_2 H53_2 1_555 1_555
C53_2 H54_2 1_555 1_555
C53_2 H55_2 1_555 1_555
C56_2 H56_2 1_555 1_555
C58_2 H57_2 1_555 1_555
C59_2 H58_2 1_555 1_555
C45_2 H59_2 1_555 1_555
C48_2 H60_2 1_555 1_555
C48_2 H61_2 1_555 1_555
O1_2 C20_2 1_555 1_555
C1_2 C2_2 1_555 1_555
C6_2 C1_2 1_555 1_555
O2_2 C20_2 1_555 1_555
C14_2 C15_2 1_555 1_555
C15_2 C16_2 1_555 1_555
C16_2 C17_2 1_555 1_555
C17_2 C1_2 1_555 1_555
C18_2 C17_2 1_555 1_555
C19_2 C14_2 1_555 1_555
C20_2 C14_2 1_555 1_555
Zn1_2 O1_2 1_555 1_555
Zn2_2 O3_2 1_555 1_555
O3_2 Zn1_2 1_555 1_555
O4_2 Zn2_2 1_555 1_555
O5_2 Zn2_2 1_555 1_555
Zn3_2 O2_2 1_555 1_555
O10_2 Zn3_2 1_555 1_555
O11_2 Zn3_2 1_555 1_555
O14_2 Zn1_2 1_555 1_555
O15_2 Zn1_2 1_555 1_555
O16_2 Zn2_2 1_555 1_555
Zn7_2 O3_2 1_555 1_555
C18_2 C19_2 1_555 1_555
O3_2 Zn3_2 1_555 1_555
C2_2 H4_2 1_555 1_555
C6_2 H5_2 1_555 1_555
C15_2 H10_2 1_555 1_555
C16_2 H15_2 1_555 1_555
C18_2 H16_2 1_555 1_555
C19_2 H33_2 1_555 1_555
C3_3 C4_3 1_555 1_555
C4_3 C5_3 1_555 1_555
C7_3 C4_3 1_555 1_555
C8_3 C11_3 1_555 1_555
C9_3 C7_3 1_555 1_555
C10_3 C11_3 1_555 1_555
C11_3 C3_3 1_555 1_555
C12_3 C10_3 1_555 1_555
C13_3 C8_3 1_555 1_555
C21_3 C22_3 1_555 1_555
C22_3 C23_3 1_555 1_555
C23_3 C24_3 1_555 1_555
C24_3 C25_3 1_555 1_555
C25_3 C26_3 1_555 1_555
C26_3 C21_3 1_555 1_555
C27_3 C9_3 1_555 1_555
C28_3 C31_3 1_555 1_555
C29_3 C27_3 1_555 1_555
C30_3 C31_3 1_555 1_555
C31_3 C9_3 1_555 1_555
C32_3 C30_3 1_555 1_555
C33_3 C28_3 1_555 1_555
O6_3 C40_3 1_555 1_555
O7_3 C40_3 1_555 1_555
C34_3 C35_3 1_555 1_555
C35_3 C36_3 1_555 1_555
C36_3 C37_3 1_555 1_555
C37_3 C21_3 1_555 1_555
C38_3 C37_3 1_555 1_555
C39_3 C34_3 1_555 1_555
C40_3 C34_3 1_555 1_555
C41_3 C42_3 1_555 1_555
C42_3 C43_3 1_555 1_555
C43_3 C44_3 1_555 1_555
C44_3 C45_3 1_555 1_555
C45_3 C46_3 1_555 1_555
C46_3 C41_3 1_555 1_555
C47_3 C29_3 1_555 1_555
C48_3 C51_3 1_555 1_555
C49_3 C7_3 1_555 1_555
C50_3 C51_3 1_555 1_555
C51_3 C29_3 1_555 1_555
C52_3 C50_3 1_555 1_555
C53_3 C48_3 1_555 1_555
O15_2 C60_3 1_555 1_555
O9_3 C60_3 1_555 1_555
C54_3 C55_3 1_555 1_555
C55_3 C56_3 1_555 1_555
C56_3 C57_3 1_555 1_555
C57_3 C41_3 1_555 1_555
C58_3 C57_3 1_555 1_555
C59_3 C54_3 1_555 1_555
C60_3 C54_3 1_555 1_555
Zn4_3 O7_3 1_555 1_555
O12_3 Zn4_3 1_555 1_555
O13_3 Zn4_3 1_555 1_555
Zn6 O6_3 1_555 1_555
Zn7_2 O9_3 1_555 1_555
O17 Zn4_3 1_555 1_555
C11_3 C49_3 1_555 1_555
C23_3 C31_3 1_555 1_555
C24_3 C27_3 1_555 1_555
C38_3 C39_3 1_555 1_555
C43_3 C51_3 1_555 1_555
C44_3 C47_3 1_555 1_555
C47_3 C49_3 1_555 1_555
C58_3 C59_3 1_555 1_555
C13_3 H1_3 1_555 1_555
C13_3 H2_3 1_555 1_555
C13_3 H3_3 1_555 1_555
C8_3 H6_3 1_555 1_555
C8_3 H7_3 1_555 1_555
C10_3 H8_3 1_555 1_555
C10_3 H9_3 1_555 1_555
C12_3 H13_3 1_555 1_555
C5_3 H14_3 1_555 1_555
C30_3 H17_3 1_555 1_555
C30_3 H18_3 1_555 1_555
C33_3 H19_3 1_555 1_555
C33_3 H20_3 1_555 1_555
C33_3 H21_3 1_555 1_555
C38_3 H22_3 1_555 1_555
C22_3 H23_3 1_555 1_555
C32_3 H24_3 1_555 1_555
C32_3 H25_3 1_555 1_555
C32_3 H26_3 1_555 1_555
C36_3 H27_3 1_555 1_555
C35_3 H28_3 1_555 1_555
C39_3 H29_3 1_555 1_555
C26_3 H32_3 1_555 1_555
C25_3 H34_3 1_555 1_555
C42_3 H35_3 1_555 1_555
C28_3 H36_3 1_555 1_555
C28_3 H37_3 1_555 1_555
C52_3 H44_3 1_555 1_555
C52_3 H45_3 1_555 1_555
C52_3 H46_3 1_555 1_555
C50_3 H47_3 1_555 1_555
C50_3 H48_3 1_555 1_555
C55_3 H51_3 1_555 1_555
C46_3 H52_3 1_555 1_555
C53_3 H53_3 1_555 1_555
C53_3 H54_3 1_555 1_555
C53_3 H55_3 1_555 1_555
C56_3 H56_3 1_555 1_555
C58_3 H57_3 1_555 1_555
C59_3 H58_3 1_555 1_555
C45_3 H59_3 1_555 1_555
C48_3 H60_3 1_555 1_555
C48_3 H61_3 1_555 1_555
O1_3 C20_3 1_555 1_555
C1_3 C2_3 1_555 1_555
C6_3 C1_3 1_555 1_555
O2_3 C20_3 1_555 1_555
C14_3 C15_3 1_555 1_555
C15_3 C16_3 1_555 1_555
C16_3 C17_3 1_555 1_555
C17_3 C1_3 1_555 1_555
C18_3 C17_3 1_555 1_555
C19_3 C14_3 1_555 1_555
C20_3 C14_3 1_555 1_555
Zn5 O1_3 1_555 1_555
Zn2_3 O3_3 1_555 1_555
O3_3 Zn5 1_555 1_555
O4_3 Zn2_3 1_555 1_555
O5_3 Zn2_3 1_555 1_555
Zn3_3 O2_3 1_555 1_555
O10_3 Zn3_3 1_555 1_555
O11_3 Zn3_3 1_555 1_555
O14_3 Zn5 1_555 1_555
O16_3 Zn2_3 1_555 1_555
Zn8 O3_3 1_555 1_555
C18_3 C19_3 1_555 1_555
O3_3 Zn3_3 1_555 1_555
C2_3 H4_3 1_555 1_555
C6_3 H5_3 1_555 1_555
C15_3 H10_3 1_555 1_555
C16_3 H15_3 1_555 1_555
C18_3 H16_3 1_555 1_555
C19_3 H33_3 1_555 1_555
C21_4 C22_4 1_555 1_555
C26_4 C21_4 1_555 1_555
O14 C40_4 1_555 1_555
O16 C40_4 1_555 1_555
C34_4 C35_4 1_555 1_555
C35_4 C36_4 1_555 1_555
C36_4 C37_4 1_555 1_555
C37_4 C21_4 1_555 1_555
C38_4 C37_4 1_555 1_555
C39_4 C34_4 1_555 1_555
C40_4 C34_4 1_555 1_555
C38_4 C39_4 1_555 1_555
C38_4 H22_4 1_555 1_555
C22_4 H23_4 1_555 1_555
C36_4 H27_4 1_555 1_555
C35_4 H28_4 1_555 1_555
C39_4 H29_4 1_555 1_555
C26_4 H32_4 1_555 1_555
O14_2 C20_4 1_555 1_555
C1_4 C2_4 1_555 1_555
C6_4 C1_4 1_555 1_555
O16_2 C20_4 1_555 1_555
C14_4 C15_4 1_555 1_555
C15_4 C16_4 1_555 1_555
C16_4 C17_4 1_555 1_555
C17_4 C1_4 1_555 1_555
C18_4 C17_4 1_555 1_555
C19_4 C14_4 1_555 1_555
C20_4 C14_4 1_555 1_555
O4_4 Zn7_2 1_555 1_555
O5_4 Zn7_2 1_555 1_555
C18_4 C19_4 1_555 1_555
C2_4 H4_4 1_555 1_555
C6_4 H5_4 1_555 1_555
C15_4 H10_4 1_555 1_555
C16_4 H15_4 1_555 1_555
C18_4 H16_4 1_555 1_555
C19_4 H33_4 1_555 1_555
C41_4 C42_4 1_555 1_555
C46_4 C41_4 1_555 1_555
O14_3 C60_4 1_555 1_555
O16_3 C60_4 1_555 1_555
C54_4 C55_4 1_555 1_555
C55_4 C56_4 1_555 1_555
C56_4 C57_4 1_555 1_555
C57_4 C41_4 1_555 1_555
C58_4 C57_4 1_555 1_555
C59_4 C54_4 1_555 1_555
C60_4 C54_4 1_555 1_555
C58_4 C59_4 1_555 1_555
C42_4 H35_4 1_555 1_555
C55_4 H51_4 1_555 1_555
C46_4 H52_4 1_555 1_555
C56_4 H56_4 1_555 1_555
C58_4 H57_4 1_555 1_555
C59_4 H58_4 1_555 1_555
O12_4 Zn8 1_555 1_555
O13_4 Zn8 1_555 1_555
O4_5 Zn7 1_555 1_555
O5_5 Zn7 1_555 1_555
O1_4 C20_5 1_555 1_555
C1_5 C2_5 1_555 1_555
C2_5 C3_4 1_555 1_555
C3_4 C4_4 1_555 1_555
C4_4 C5_4 1_555 1_555
C5_4 C6_5 1_555 1_555
C6_5 C1_5 1_555 1_555
C7_4 C4_4 1_555 1_555
C8_4 C11_4 1_555 1_555
C9_4 C7_4 1_555 1_555
C10_4 C11_4 1_555 1_555
C11_4 C3_4 1_555 1_555
C12_4 C10_4 1_555 1_555
C13_4 C8_4 1_555 1_555
O2_4 C20_5 1_555 1_555
C14_5 C15_5 1_555 1_555
C15_5 C16_5 1_555 1_555
C16_5 C17_5 1_555 1_555
C17_5 C1_5 1_555 1_555
C18_5 C17_5 1_555 1_555
C19_5 C14_5 1_555 1_555
C20_5 C14_5 1_555 1_555
Zn1_3 O1_4 1_555 1_555
Zn2_4 O3_4 1_555 1_555
O3_4 Zn1_3 1_555 1_555
O4_6 Zn2_4 1_555 1_555
O5_6 Zn2_4 1_555 1_555
C21_5 C22_5 1_555 1_555
C22_5 C23_4 1_555 1_555
C23_4 C24_4 1_555 1_555
C24_4 C25_4 1_555 1_555
C25_4 C26_5 1_555 1_555
C26_5 C21_5 1_555 1_555
C27_4 C9_4 1_555 1_555
C28_4 C31_4 1_555 1_555
C29_4 C27_4 1_555 1_555
C30_4 C31_4 1_555 1_555
C31_4 C9_4 1_555 1_555
C32_4 C30_4 1_555 1_555
C33_4 C28_4 1_555 1_555
O6_4 C40_5 1_555 1_555
O7_4 C40_5 1_555 1_555
C34_5 C35_5 1_555 1_555
C35_5 C36_5 1_555 1_555
C36_5 C37_5 1_555 1_555
C37_5 C21_5 1_555 1_555
C38_5 C37_5 1_555 1_555
C39_5 C34_5 1_555 1_555
C40_5 C34_5 1_555 1_555
C41_5 C42_5 1_555 1_555
C42_5 C43_4 1_555 1_555
C43_4 C44_4 1_555 1_555
C44_4 C45_4 1_555 1_555
C45_4 C46_5 1_555 1_555
C46_5 C41_5 1_555 1_555
C47_4 C29_4 1_555 1_555
C48_4 C51_4 1_555 1_555
C49_4 C7_4 1_555 1_555
C50_4 C51_4 1_555 1_555
C51_4 C29_4 1_555 1_555
C52_4 C50_4 1_555 1_555
C53_4 C48_4 1_555 1_555
O8_2 C60_5 1_555 1_555
O9_4 C60_5 1_555 1_555
C54_5 C55_5 1_555 1_555
C55_5 C56_5 1_555 1_555
C56_5 C57_5 1_555 1_555
C57_5 C41_5 1_555 1_555
C58_5 C57_5 1_555 1_555
C59_5 C54_5 1_555 1_555
C60_5 C54_5 1_555 1_555
Zn3_4 O2_4 1_555 1_555
O10_4 Zn3_4 1_555 1_555
O11_4 Zn3_4 1_555 1_555
Zn4_4 O7_4 1_555 1_555
O12_5 Zn4_4 1_555 1_555
O13_5 Zn4_4 1_555 1_555
O14_4 Zn1_3 1_555 1_555
O15_3 Zn1_3 1_555 1_555
O16_4 Zn2_4 1_555 1_555
Zn5_2 O8_2 1_555 1_555
Zn6_2 O6_4 1_555 1_555
Zn7_3 O3_4 1_555 1_555
Zn8_2 O9_4 1_555 1_555
O17_2 Zn4_4 1_555 1_555
C11_4 C49_4 1_555 1_555
C18_5 C19_5 1_555 1_555
O3_4 Zn3_4 1_555 1_555
C23_4 C31_4 1_555 1_555
C24_4 C27_4 1_555 1_555
C38_5 C39_5 1_555 1_555
C43_4 C51_4 1_555 1_555
C44_4 C47_4 1_555 1_555
C47_4 C49_4 1_555 1_555
C58_5 C59_5 1_555 1_555
Zn6_2 O17_2 1_555 1_555
C13_4 H1_4 1_555 1_555
C13_4 H2_4 1_555 1_555
C13_4 H3_4 1_555 1_555
C2_5 H4_5 1_555 1_555
C6_5 H5_5 1_555 1_555
C8_4 H6_4 1_555 1_555
C8_4 H7_4 1_555 1_555
C10_4 H8_4 1_555 1_555
C10_4 H9_4 1_555 1_555
C15_5 H10_5 1_555 1_555
C12_4 H11_5 1_555 1_555
C12_4 H12_5 1_555 1_555
C12_4 H13_4 1_555 1_555
C5_4 H14_4 1_555 1_555
C16_5 H15_5 1_555 1_555
C18_5 H16_5 1_555 1_555
C30_4 H17_4 1_555 1_555
C30_4 H18_4 1_555 1_555
C33_4 H19_4 1_555 1_555
C33_4 H20_4 1_555 1_555
C33_4 H21_4 1_555 1_555
C38_5 H22_5 1_555 1_555
C22_5 H23_5 1_555 1_555
C32_4 H24_5 1_555 1_555
C32_4 H25_5 1_555 1_555
C32_4 H26_4 1_555 1_555
C36_5 H27_5 1_555 1_555
C35_5 H28_5 1_555 1_555
C39_5 H29_5 1_555 1_555
C26_5 H32_5 1_555 1_555
C19_5 H33_5 1_555 1_555
C25_4 H34_4 1_555 1_555
C42_5 H35_5 1_555 1_555
C28_4 H36_4 1_555 1_555
C28_4 H37_4 1_555 1_555
C52_4 H44_5 1_555 1_555
C52_4 H45_5 1_555 1_555
C52_4 H46_4 1_555 1_555
C50_4 H47_4 1_555 1_555
C50_4 H48_4 1_555 1_555
C55_5 H51_5 1_555 1_555
C46_5 H52_5 1_555 1_555
C53_4 H53_4 1_555 1_555
C53_4 H54_4 1_555 1_555
C53_4 H55_4 1_555 1_555
C56_5 H56_5 1_555 1_555
C58_5 H57_5 1_555 1_555
C59_5 H58_5 1_555 1_555
C45_4 H59_4 1_555 1_555
C48_4 H60_4 1_555 1_555
C48_4 H61_4 1_555 1_555
C21_6 C22_6 1_555 1_555
C26_6 C21_6 1_555 1_555
O14_4 C40_6 1_555 1_555
O16_4 C40_6 1_555 1_555
C34_6 C35_6 1_555 1_555
C35_6 C36_6 1_555 1_555
C36_6 C37_6 1_555 1_555
C37_6 C21_6 1_555 1_555
C38_6 C37_6 1_555 1_555
C39_6 C34_6 1_555 1_555
C40_6 C34_6 1_555 1_555
C38_6 C39_6 1_555 1_555
C38_6 H22_6 1_555 1_555
C22_6 H23_6 1_555 1_555
C36_6 H27_6 1_555 1_555
C35_6 H28_6 1_555 1_555
C39_6 H29_6 1_555 1_555
C26_6 H32_6 1_555 1_555
C3_5 C4_5 1_555 1_555
C4_5 C5_5 1_555 1_555
C7_5 C4_5 1_555 1_555
C8_5 C11_5 1_555 1_555
C9_5 C7_5 1_555 1_555
C10_5 C11_5 1_555 1_555
C11_5 C3_5 1_555 1_555
C12_5 C10_5 1_555 1_555
C13_5 C8_5 1_555 1_555
C23_5 C24_5 1_555 1_555
C24_5 C25_5 1_555 1_555
C27_5 C9_5 1_555 1_555
C28_5 C31_5 1_555 1_555
C29_5 C27_5 1_555 1_555
C30_5 C31_5 1_555 1_555
C31_5 C9_5 1_555 1_555
C32_5 C30_5 1_555 1_555
C33_5 C28_5 1_555 1_555
C41_6 C42_6 1_555 1_555
C42_6 C43_5 1_555 1_555
C43_5 C44_5 1_555 1_555
C44_5 C45_5 1_555 1_555
C45_5 C46_6 1_555 1_555
C46_6 C41_6 1_555 1_555
C47_5 C29_5 1_555 1_555
C48_5 C51_5 1_555 1_555
C49_5 C7_5 1_555 1_555
C50_5 C51_5 1_555 1_555
C51_5 C29_5 1_555 1_555
C52_5 C50_5 1_555 1_555
C53_5 C48_5 1_555 1_555
O8_3 C60_6 1_555 1_555
O9_5 C60_6 1_555 1_555
C54_6 C55_6 1_555 1_555
C55_6 C56_6 1_555 1_555
C56_6 C57_6 1_555 1_555
C57_6 C41_6 1_555 1_555
C58_6 C57_6 1_555 1_555
C59_6 C54_6 1_555 1_555
C60_6 C54_6 1_555 1_555
Zn5_2 O8_3 1_555 1_555
Zn8_3 O9_5 1_555 1_555
C11_5 C49_5 1_555 1_555
C23_5 C31_5 1_555 1_555
C24_5 C27_5 1_555 1_555
C43_5 C51_5 1_555 1_555
C44_5 C47_5 1_555 1_555
C47_5 C49_5 1_555 1_555
C58_6 C59_6 1_555 1_555
C13_5 H1_5 1_555 1_555
C13_5 H2_5 1_555 1_555
C13_5 H3_5 1_555 1_555
C8_5 H6_5 1_555 1_555
C8_5 H7_5 1_555 1_555
C10_5 H8_5 1_555 1_555
C10_5 H9_5 1_555 1_555
C12_5 H13_5 1_555 1_555
C5_5 H14_5 1_555 1_555
C30_5 H17_5 1_555 1_555
C30_5 H18_5 1_555 1_555
C33_5 H19_5 1_555 1_555
C33_5 H20_5 1_555 1_555
C33_5 H21_5 1_555 1_555
C32_5 H26_5 1_555 1_555
C25_5 H34_5 1_555 1_555
C42_6 H35_6 1_555 1_555
C28_5 H36_5 1_555 1_555
C28_5 H37_5 1_555 1_555
C52_5 H44_6 1_555 1_555
C52_5 H45_6 1_555 1_555
C52_5 H46_5 1_555 1_555
C50_5 H47_5 1_555 1_555
C50_5 H48_5 1_555 1_555
C55_6 H51_6 1_555 1_555
C46_6 H52_6 1_555 1_555
C53_5 H53_5 1_555 1_555
C53_5 H54_5 1_555 1_555
C53_5 H55_5 1_555 1_555
C56_6 H56_6 1_555 1_555
C58_6 H57_6 1_555 1_555
C59_6 H58_6 1_555 1_555
C45_5 H59_5 1_555 1_555
C48_5 H60_5 1_555 1_555
C48_5 H61_5 1_555 1_555
C21_7 C22_7 1_555 1_555
C26_7 C21_7 1_555 1_555
O6_5 C40_7 1_555 1_555
O7_5 C40_7 1_555 1_555
C34_7 C35_7 1_555 1_555
C35_7 C36_7 1_555 1_555
C36_7 C37_7 1_555 1_555
C37_7 C21_7 1_555 1_555
C38_7 C37_7 1_555 1_555
C39_7 C34_7 1_555 1_555
C40_7 C34_7 1_555 1_555
Zn4_5 O7_5 1_555 1_555
O12_6 Zn4_5 1_555 1_555
O13_6 Zn4_5 1_555 1_555
Zn5_2 O6_5 1_555 1_555
O17_3 Zn4_5 1_555 1_555
C38_7 C39_7 1_555 1_555
Zn5_2 O17_3 1_555 1_555
C38_7 H22_7 1_555 1_555
C22_7 H23_7 1_555 1_555
C36_7 H27_7 1_555 1_555
C35_7 H28_7 1_555 1_555
C39_7 H29_7 1_555 1_555
C26_7 H32_7 1_555 1_555
C3_6 C4_6 1_555 1_555
C4_6 C5_6 1_555 1_555
C7_6 C4_6 1_555 1_555
C8_6 C11_6 1_555 1_555
C9_6 C7_6 1_555 1_555
C10_6 C11_6 1_555 1_555
C11_6 C3_6 1_555 1_555
C12_6 C10_6 1_555 1_555
C13_6 C8_6 1_555 1_555
C23_6 C24_6 1_555 1_555
C24_6 C25_6 1_555 1_555
C27_6 C9_6 1_555 1_555
C28_6 C31_6 1_555 1_555
C29_6 C27_6 1_555 1_555
C30_6 C31_6 1_555 1_555
C31_6 C9_6 1_555 1_555
C32_6 C30_6 1_555 1_555
C33_6 C28_6 1_555 1_555
C41_7 C42_7 1_555 1_555
C42_7 C43_6 1_555 1_555
C43_6 C44_6 1_555 1_555
C44_6 C45_6 1_555 1_555
C45_6 C46_7 1_555 1_555
C46_7 C41_7 1_555 1_555
C47_6 C29_6 1_555 1_555
C48_6 C51_6 1_555 1_555
C49_6 C7_6 1_555 1_555
C50_6 C51_6 1_555 1_555
C51_6 C29_6 1_555 1_555
C52_6 C50_6 1_555 1_555
C53_6 C48_6 1_555 1_555
O8_4 C60_7 1_555 1_555
O9_6 C60_7 1_555 1_555
C54_7 C55_7 1_555 1_555
C55_7 C56_7 1_555 1_555
C56_7 C57_7 1_555 1_555
C57_7 C41_7 1_555 1_555
C58_7 C57_7 1_555 1_555
C59_7 C54_7 1_555 1_555
C60_7 C54_7 1_555 1_555
Zn6_2 O8_4 1_555 1_555
Zn8_4 O9_6 1_555 1_555
C11_6 C49_6 1_555 1_555
C23_6 C31_6 1_555 1_555
C24_6 C27_6 1_555 1_555
C43_6 C51_6 1_555 1_555
C44_6 C47_6 1_555 1_555
C47_6 C49_6 1_555 1_555
C58_7 C59_7 1_555 1_555
C13_6 H1_6 1_555 1_555
C13_6 H2_6 1_555 1_555
C13_6 H3_6 1_555 1_555
C8_6 H6_6 1_555 1_555
C8_6 H7_6 1_555 1_555
C10_6 H8_6 1_555 1_555
C10_6 H9_6 1_555 1_555
C12_6 H13_6 1_555 1_555
C5_6 H14_6 1_555 1_555
C30_6 H17_6 1_555 1_555
C30_6 H18_6 1_555 1_555
C33_6 H19_6 1_555 1_555
C33_6 H20_6 1_555 1_555
C33_6 H21_6 1_555 1_555
C32_6 H26_6 1_555 1_555
C25_6 H34_6 1_555 1_555
C42_7 H35_7 1_555 1_555
C28_6 H36_6 1_555 1_555
C28_6 H37_6 1_555 1_555
C52_6 H44_7 1_555 1_555
C52_6 H45_7 1_555 1_555
C52_6 H46_6 1_555 1_555
C50_6 H47_6 1_555 1_555
C50_6 H48_6 1_555 1_555
C55_7 H51_7 1_555 1_555
C46_7 H52_7 1_555 1_555
C53_6 H53_6 1_555 1_555
C53_6 H54_6 1_555 1_555
C53_6 H55_6 1_555 1_555
C56_7 H56_7 1_555 1_555
C58_7 H57_7 1_555 1_555
C59_7 H58_7 1_555 1_555
C45_6 H59_6 1_555 1_555
C48_6 H60_6 1_555 1_555
C48_6 H61_6 1_555 1_555
Zn8_3 O17_3 1_555 1_555
O4_7 Zn8_3 1_555 1_555
O5_7 Zn8_3 1_555 1_555
Zn8_2 O17_3 1_555 1_555
O12_7 Zn8_4 1_555 1_555
O13_7 Zn8_4 1_555 1_555
O17_2 Zn8_4 1_555 1_555
Zn2_5 O17_2 1_555 1_555
O4_8 Zn2_5 1_555 1_555
O5_8 Zn2_5 1_555 1_555
O12_8 Zn8_2 1_555 1_555
O13_8 Zn8_2 1_555 1_555
O14_5 Zn6_2 1_555 1_555
O16_5 Zn2_5 1_555 1_555
O14_5 C20_6 1_555 1_555
C1_6 C2_6 1_555 1_555
C6_6 C1_6 1_555 1_555
O16_5 C20_6 1_555 1_555
C14_6 C15_6 1_555 1_555
C15_6 C16_6 1_555 1_555
C16_6 C17_6 1_555 1_555
C17_6 C1_6 1_555 1_555
C18_6 C17_6 1_555 1_555
C19_6 C14_6 1_555 1_555
C20_6 C14_6 1_555 1_555
C18_6 C19_6 1_555 1_555
C2_6 H4_6 1_555 1_555
C6_6 H5_6 1_555 1_555
C15_6 H10_6 1_555 1_555
C16_6 H15_6 1_555 1_555
C18_6 H16_6 1_555 1_555
C19_6 H33_6 1_555 1_555
C3_7 C4_7 1_555 1_555
C4_7 C5_7 1_555 1_555
C7_7 C4_7 1_555 1_555
C8_7 C11_7 1_555 1_555
C9_7 C7_7 1_555 1_555
C10_7 C11_7 1_555 1_555
C11_7 C3_7 1_555 1_555
C12_7 C10_7 1_555 1_555
C13_7 C8_7 1_555 1_555
C21_8 C22_8 1_555 1_555
C22_8 C23_7 1_555 1_555
C23_7 C24_7 1_555 1_555
C24_7 C25_7 1_555 1_555
C25_7 C26_8 1_555 1_555
C26_8 C21_8 1_555 1_555
C27_7 C9_7 1_555 1_555
C28_7 C31_7 1_555 1_555
C29_7 C27_7 1_555 1_555
C30_7 C31_7 1_555 1_555
C31_7 C9_7 1_555 1_555
C32_7 C30_7 1_555 1_555
C33_7 C28_7 1_555 1_555
O15_3 C40_8 1_555 1_555
O7_6 C40_8 1_555 1_555
C34_8 C35_8 1_555 1_555
C35_8 C36_8 1_555 1_555
C36_8 C37_8 1_555 1_555
C37_8 C21_8 1_555 1_555
C38_8 C37_8 1_555 1_555
C39_8 C34_8 1_555 1_555
C40_8 C34_8 1_555 1_555
C43_7 C44_7 1_555 1_555
C44_7 C45_7 1_555 1_555
C47_7 C29_7 1_555 1_555
C48_7 C51_7 1_555 1_555
C49_7 C7_7 1_555 1_555
C50_7 C51_7 1_555 1_555
C51_7 C29_7 1_555 1_555
C52_7 C50_7 1_555 1_555
C53_7 C48_7 1_555 1_555
Zn7_3 O7_6 1_555 1_555
O12_9 Zn7_3 1_555 1_555
O13_9 Zn7_3 1_555 1_555
C11_7 C49_7 1_555 1_555
C23_7 C31_7 1_555 1_555
C24_7 C27_7 1_555 1_555
C38_8 C39_8 1_555 1_555
C43_7 C51_7 1_555 1_555
C44_7 C47_7 1_555 1_555
C47_7 C49_7 1_555 1_555
C13_7 H1_7 1_555 1_555
C13_7 H2_7 1_555 1_555
C13_7 H3_7 1_555 1_555
C8_7 H6_7 1_555 1_555
C8_7 H7_7 1_555 1_555
C10_7 H8_7 1_555 1_555
C10_7 H9_7 1_555 1_555
C12_7 H13_7 1_555 1_555
C5_7 H14_7 1_555 1_555
C30_7 H17_7 1_555 1_555
C30_7 H18_7 1_555 1_555
C33_7 H19_7 1_555 1_555
C33_7 H20_7 1_555 1_555
C33_7 H21_7 1_555 1_555
C38_8 H22_8 1_555 1_555
C22_8 H23_8 1_555 1_555
C32_7 H24_8 1_555 1_555
C32_7 H25_8 1_555 1_555
C32_7 H26_7 1_555 1_555
C36_8 H27_8 1_555 1_555
C35_8 H28_8 1_555 1_555
C39_8 H29_8 1_555 1_555
C26_8 H32_8 1_555 1_555
C25_7 H34_7 1_555 1_555
C28_7 H36_7 1_555 1_555
C28_7 H37_7 1_555 1_555
C52_7 H46_7 1_555 1_555
C50_7 H47_7 1_555 1_555
C50_7 H48_7 1_555 1_555
C53_7 H53_7 1_555 1_555
C53_7 H54_7 1_555 1_555
C53_7 H55_7 1_555 1_555
C45_7 H59_7 1_555 1_555
C48_7 H60_7 1_555 1_555
C48_7 H61_7 1_555 1_555
O1_5 C20_7 1_555 1_555
C1_7 C2_7 1_555 1_555
C6_7 C1_7 1_555 1_555
O2_5 C20_7 1_555 1_555
C14_7 C15_7 1_555 1_555
C15_7 C16_7 1_555 1_555
C16_7 C17_7 1_555 1_555
C17_7 C1_7 1_555 1_555
C18_7 C17_7 1_555 1_555
C19_7 C14_7 1_555 1_555
C20_7 C14_7 1_555 1_555
Zn1_4 O1_5 1_555 1_555
Zn2_6 O3_5 1_555 1_555
O3_5 Zn1_4 1_555 1_555
O4_9 Zn2_6 1_555 1_555
O5_9 Zn2_6 1_555 1_555
Zn3_5 O2_5 1_555 1_555
O10_5 Zn3_5 1_555 1_555
O11_5 Zn3_5 1_555 1_555
O14_6 Zn1_4 1_555 1_555
O15_4 Zn1_4 1_555 1_555
O16_6 Zn2_6 1_555 1_555
Zn7_4 O3_5 1_555 1_555
C18_7 C19_7 1_555 1_555
O3_5 Zn3_5 1_555 1_555
C2_7 H4_7 1_555 1_555
C6_7 H5_7 1_555 1_555
C15_7 H10_7 1_555 1_555
C16_7 H15_7 1_555 1_555
C18_7 H16_7 1_555 1_555
C19_7 H33_7 1_555 1_555
O14_6 C20_8 1_555 1_555
C1_8 C2_8 1_555 1_555
C6_8 C1_8 1_555 1_555
O16_6 C20_8 1_555 1_555
C14_8 C15_8 1_555 1_555
C15_8 C16_8 1_555 1_555
C16_8 C17_8 1_555 1_555
C17_8 C1_8 1_555 1_555
C18_8 C17_8 1_555 1_555
C19_8 C14_8 1_555 1_555
C20_8 C14_8 1_555 1_555
O4_10 Zn7_4 1_555 1_555
O5_10 Zn7_4 1_555 1_555
O16_7 Zn7_4 1_555 1_555
C18_8 C19_8 1_555 1_555
C2_8 H4_8 1_555 1_555
C6_8 H5_8 1_555 1_555
C15_8 H10_8 1_555 1_555
C16_8 H15_8 1_555 1_555
C18_8 H16_8 1_555 1_555
C19_8 H33_8 1_555 1_555
C41_8 C42_8 1_555 1_555
C46_8 C41_8 1_555 1_555
O15_4 C60_8 1_555 1_555
O16_7 C60_8 1_555 1_555
C54_8 C55_8 1_555 1_555
C55_8 C56_8 1_555 1_555
C56_8 C57_8 1_555 1_555
C57_8 C41_8 1_555 1_555
C58_8 C57_8 1_555 1_555
C59_8 C54_8 1_555 1_555
C60_8 C54_8 1_555 1_555
C58_8 C59_8 1_555 1_555
C42_8 H35_8 1_555 1_555
C55_8 H51_8 1_555 1_555
C46_8 H52_8 1_555 1_555
C56_8 H56_8 1_555 1_555
C58_8 H57_8 1_555 1_555
C59_8 H58_8 1_555 1_555
C3_8 C4_8 1_555 1_555
C4_8 C5_8 1_555 1_555
C7_8 C4_8 1_555 1_555
C8_8 C11_8 1_555 1_555
C9_8 C7_8 1_555 1_555
C10_8 C11_8 1_555 1_555
C11_8 C3_8 1_555 1_555
C12_8 C10_8 1_555 1_555
C13_8 C8_8 1_555 1_555
C23_8 C24_8 1_555 1_555
C24_8 C25_8 1_555 1_555
C27_8 C9_8 1_555 1_555
C28_8 C31_8 1_555 1_555
C29_8 C27_8 1_555 1_555
C30_8 C31_8 1_555 1_555
C31_8 C9_8 1_555 1_555
C32_8 C30_8 1_555 1_555
C33_8 C28_8 1_555 1_555
C43_8 C44_8 1_555 1_555
C44_8 C45_8 1_555 1_555
C47_8 C29_8 1_555 1_555
C48_8 C51_8 1_555 1_555
C49_8 C7_8 1_555 1_555
C50_8 C51_8 1_555 1_555
C51_8 C29_8 1_555 1_555
C52_8 C50_8 1_555 1_555
C53_8 C48_8 1_555 1_555
C11_8 C49_8 1_555 1_555
C23_8 C31_8 1_555 1_555
C24_8 C27_8 1_555 1_555
C43_8 C51_8 1_555 1_555
C44_8 C47_8 1_555 1_555
C47_8 C49_8 1_555 1_555
C13_8 H1_8 1_555 1_555
C13_8 H2_8 1_555 1_555
C13_8 H3_8 1_555 1_555
C8_8 H6_8 1_555 1_555
C8_8 H7_8 1_555 1_555
C10_8 H8_8 1_555 1_555
C10_8 H9_8 1_555 1_555
C12_8 H13_8 1_555 1_555
C5_8 H14_8 1_555 1_555
C30_8 H17_8 1_555 1_555
C30_8 H18_8 1_555 1_555
C33_8 H19_8 1_555 1_555
C33_8 H20_8 1_555 1_555
C33_8 H21_8 1_555 1_555
C32_8 H26_8 1_555 1_555
C25_8 H34_8 1_555 1_555
C28_8 H36_8 1_555 1_555
C28_8 H37_8 1_555 1_555
C52_8 H46_8 1_555 1_555
C50_8 H47_8 1_555 1_555
C50_8 H48_8 1_555 1_555
C53_8 H53_8 1_555 1_555
C53_8 H54_8 1_555 1_555
C53_8 H55_8 1_555 1_555
C45_8 H59_8 1_555 1_555
C48_8 H60_8 1_555 1_555
C48_8 H61_8 1_555 1_555

#END
