
###############################################################################
#
# This file contains modified crystal structure data generated from the
# MOF subset of the Cambridge Structural Database (CSD) v543 
# hosted by the Cambridge Crystallographic Data Centre (CCDC).
#
# This work is licensed under the Creative Commons
# Attribution-NonCommercial-ShareAlike 4.0 International License.
# To view a copy of this license, visit
# http://creativecommons.org/licenses/by-nc-sa/4.0/
# or send a letter to
# Creative Commons, PO Box 1866, Mountain View, CA 94042, USA.
#
# CIF created using the CSD Python API on 29 September 2022
# The structure has been converted into the P1 space group
# The structure has a 3D framework
# The original CSD entry ONAMOI is in the tetragonal crystal system
# The framework has been calculated to contain at least 10.0% void space
# The void calculation uses a probe of radius 1.32A, grid spacing 0.4
#
###############################################################################

data_ONAMOI
_chemical_formula_moiety         '(C336 H160 N16 O128 Zn29)n'
_symmetry_cell_setting           triclinic
_symmetry_space_group_name_H-M   'P 1'
_symmetry_Int_Tables_number      1
_space_group_name_Hall           'P 1'
loop_
_symmetry_equiv_pos_site_id
_symmetry_equiv_pos_as_xyz
1 x,y,z
_cell_length_a                   27.393(13)
_cell_length_b                   27.393(13)
_cell_length_c                   12.041(6)
_cell_angle_alpha                90
_cell_angle_beta                 90
_cell_angle_gamma                90
_cell_volume                     9035.28
loop_
_atom_site_label
_atom_site_type_symbol
_atom_site_fract_x
_atom_site_fract_y
_atom_site_fract_z
Zn1 Zn 0.250000 0.250000 0.250000
O1 O 0.30892(18) 0.23896(19) 0.1518(4)
O3 O 0.2065(2) 0.2044(2) 0.1464(5)
O5 O 0.0870(2) 0.0702(3) 0.2188(5)
O6 O 0.06593(19) 0.0185(2) 0.0899(5)
C1 C 0.3212(3) 0.2421(3) 0.0525(7)
C2 C 0.3638(3) 0.2121(3) 0.0179(6)
C3 C 0.4043(3) 0.2102(3) 0.0857(7)
H1 H 0.403166 0.225896 0.154145
C4 C 0.4460(3) 0.1862(3) 0.0563(8)
C14 C 0.1758(3) 0.1505(3) 0.0098(6)
C15 C 0.1417(3) 0.1263(3) 0.0759(6)
H7 H 0.131971 0.139984 0.143040
C16 C 0.1225(3) 0.0824(3) 0.0420(6)
C19 C 0.1943(3) 0.1996(3) 0.0448(6)
C20 C 0.0891(3) 0.0558(3) 0.1207(7)
O7 O 0.4799(3) 0.1935(4) 0.2331(8)
H10 H 0.501549 0.183609 0.274244
C21 C 0.4899(4) 0.1833(4) 0.1278(10)
O8 O 0.5302(3) 0.1695(3) 0.0992(7)
O9 O 0.01104(19) 0.55892(18) 0.0982(4)
O11 O 0.0456(2) 0.4565(2) 0.1036(5)
O12 O 0.01870(19) 0.4474(2) 0.2798(4)
O13 O 0.1798(3) 0.3370(2) 0.0312(5)
O14 O 0.2315(2) 0.31593(19) 0.1601(5)
N2 N 0.0657(2) 0.5200(2) 0.5639(5)
C22 C 0.0079(3) 0.5712(3) 0.1975(7)
C23 C 0.0379(3) 0.6138(3) 0.2321(6)
C24 C 0.0398(3) 0.6543(3) 0.1643(7)
H11 H 0.024104 0.653166 0.095855
C25 C 0.0638(3) 0.6960(3) 0.1937(8)
C26 C 0.0883(3) 0.6975(3) 0.2951(8)
H12 H 0.103962 0.725980 0.317302
C27 C 0.0894(3) 0.6570(3) 0.3623(7)
H13 H 0.106331 0.658320 0.429134
C28 C 0.0659(2) 0.6145(3) 0.3327(6)
C29 C 0.0716(2) 0.5680(3) 0.3973(6)
C30 C 0.0593(2) 0.5628(3) 0.5102(6)
H14 H 0.046580 0.589341 0.548580
C31 C 0.0855(3) 0.4821(3) 0.5106(6)
H15 H 0.090104 0.453055 0.549057
C32 C 0.0996(3) 0.4846(3) 0.3991(6)
C33 C 0.0924(3) 0.5285(3) 0.3456(6)
H16 H 0.102094 0.531518 0.271833
C34 C 0.1219(3) 0.4421(3) 0.3395(6)
C35 C 0.0995(3) 0.4258(3) 0.2402(6)
C36 C 0.1237(3) 0.3917(3) 0.1741(6)
H17 H 0.110016 0.381971 0.106960
C37 C 0.1676(3) 0.3725(3) 0.2080(6)
C38 C 0.1880(3) 0.3874(3) 0.3058(6)
H18 H 0.217620 0.374157 0.328346
C39 C 0.1654(3) 0.4216(3) 0.3714(6)
H19 H 0.179741 0.431021 0.438125
C40 C 0.0504(3) 0.4443(3) 0.2052(6)
C41 C 0.1942(3) 0.3391(3) 0.1293(7)
O15 O 0.0565(4) 0.7299(3) 0.0169(8)
C42 C 0.0667(4) 0.7399(4) 0.1222(10)
O16 O 0.0805(3) 0.7802(3) 0.1508(7)
Zn4 Zn 0.000000 0.500000 0.000000
Zn5 Zn 0.000000 0.000000 0.000000
Zn6 Zn 0.04210(3) 0.51579(3) 0.72491(7)
Zn8 Zn 0.04210(3) 0.01579(3) 0.27509(7)
O17 O 0.19108(18) 0.26104(19) 0.3482(4)
O18 O 0.2935(2) 0.2956(2) 0.3536(5)
O21 O 0.2685(2) 0.18407(19) 0.3399(5)
Zn2 Zn 0.23421(3) 0.29210(3) 0.97491(7)
O2 O 0.30192(18) 0.26807(19) 0.9791(4)
O4 O 0.1974(2) 0.23130(19) 0.9702(4)
N1 N 0.2700(2) 0.1843(2) 0.6861(5)
C5 C 0.4475(3) 0.1617(3) 0.9549(8)
H2 H 0.475980 0.146038 0.932698
C6 C 0.4070(3) 0.1606(3) 0.8877(7)
H3 H 0.408320 0.143669 0.820866
C7 C 0.3645(3) 0.1841(2) 0.9173(6)
C8 C 0.3180(3) 0.1784(2) 0.8527(6)
C9 C 0.3128(3) 0.1907(2) 0.7398(6)
H4 H 0.339341 0.203420 0.701420
C10 C 0.2321(3) 0.1645(3) 0.7394(6)
H5 H 0.203055 0.159896 0.700943
C11 C 0.2346(3) 0.1504(3) 0.8509(6)
C12 C 0.2785(3) 0.1576(3) 0.9044(6)
H6 H 0.281518 0.147906 0.978167
C13 C 0.1921(3) 0.1281(3) 0.9105(6)
C17 C 0.1374(3) 0.0620(3) 0.9442(6)
H8 H 0.124157 0.032380 0.921654
C18 C 0.1716(3) 0.0846(3) 0.8786(6)
H9 H 0.181021 0.070259 0.811875
H20 H 0.066391 0.751549 0.975756
Zn4_2 Zn 0.000000 0.500000 1.000000
Zn5_2 Zn 0.000000 0.000000 1.000000
Zn7 Zn 0.26579(3) 0.20790(3) 0.52509(7)
N4 N 0.2300(2) 0.3157(2) 0.8139(5)
Zn5_3 Zn 0.000000 1.000000 0.000000
Zn5_4 Zn -0.000000 1.000000 1.000000
Zn3 Zn 0.95790(3) 0.48421(3) 0.27509(7)
O10 O 0.98193(19) 0.55192(18) 0.2709(4)
Zn4_3 Zn 1.000000 0.500000 0.000000
Zn5_5 Zn 1.000000 0.000000 0.000000
O19 O 0.9130(2) 0.4298(3) 0.2188(5)
O20 O 0.93407(19) 0.4815(2) 0.0899(5)
N3 N 0.9343(2) 0.4800(2) 0.4361(5)
Zn4_4 Zn 1.000000 0.500000 1.000000
Zn5_6 Zn 1.000000 0.000000 1.000000
Zn5_7 Zn 1.000000 1.000000 0.000000
Zn5_8 Zn 1.000000 1.000000 1.000000
Zn1_2 Zn 0.500000 0.500000 0.500000
Zn2_2 Zn 0.45790(3) 0.48421(3) 0.22491(7)
O1_2 O 0.51104(19) 0.55892(18) 0.4018(4)
O2_2 O 0.48193(19) 0.55192(18) 0.2291(4)
O3_2 O 0.5456(2) 0.4565(2) 0.3964(5)
O4_2 O 0.51870(19) 0.4474(2) 0.2202(4)
O5_2 O 0.6798(3) 0.3370(2) 0.4688(5)
O6_2 O 0.7315(2) 0.31593(19) 0.3399(5)
C1_2 C 0.5079(3) 0.5712(3) 0.3025(7)
C2_2 C 0.5379(3) 0.6138(3) 0.2679(6)
C3_2 C 0.5398(3) 0.6543(3) 0.3357(7)
H1_2 H 0.524104 0.653166 0.404145
C4_2 C 0.5638(3) 0.6960(3) 0.3063(8)
C5_2 C 0.5883(3) 0.6975(3) 0.2049(8)
H2_2 H 0.603962 0.725980 0.182698
C6_2 C 0.5894(3) 0.6570(3) 0.1377(7)
H3_2 H 0.606331 0.658320 0.070866
C7_2 C 0.5659(2) 0.6145(3) 0.1673(6)
C8_2 C 0.5716(2) 0.5680(3) 0.1027(6)
C11_2 C 0.5996(3) 0.4846(3) 0.1009(6)
C12_2 C 0.5924(3) 0.5285(3) 0.1544(6)
H6_2 H 0.602094 0.531518 0.228167
C13_2 C 0.6219(3) 0.4421(3) 0.1605(6)
C14_2 C 0.5995(3) 0.4258(3) 0.2598(6)
C15_2 C 0.6237(3) 0.3917(3) 0.3259(6)
H7_2 H 0.610016 0.381971 0.393040
C16_2 C 0.6676(3) 0.3725(3) 0.2920(6)
C17_2 C 0.6880(3) 0.3874(3) 0.1942(6)
H8_2 H 0.717620 0.374157 0.171654
C18_2 C 0.6654(3) 0.4216(3) 0.1286(6)
H9_2 H 0.679741 0.431021 0.061875
C19_2 C 0.5504(3) 0.4443(3) 0.2948(6)
C20_2 C 0.6942(3) 0.3391(3) 0.3707(7)
O7_2 O 0.5565(4) 0.7299(3) 0.4831(8)
H10_2 H 0.566391 0.751549 0.524244
C21_2 C 0.5667(4) 0.7399(4) 0.3778(10)
O8_2 O 0.5805(3) 0.7802(3) 0.3492(7)
O10_2 O 0.19808(18) 0.23193(19) 0.5209(4)
O12_2 O 0.3026(2) 0.26870(19) 0.5298(4)
O13_2 O 0.4130(2) 0.4298(3) 0.2812(5)
O14_2 O 0.43407(19) 0.4815(2) 0.4101(5)
C22_2 C 0.1788(3) 0.2579(3) 0.4475(7)
C23_2 C 0.1362(3) 0.2879(3) 0.4821(6)
C24_2 C 0.0957(3) 0.2898(3) 0.4143(7)
H11_2 H 0.096834 0.274104 0.345855
C25_2 C 0.0540(3) 0.3138(3) 0.4437(8)
C26_2 C 0.0525(3) 0.3383(3) 0.5451(8)
H12_2 H 0.024020 0.353962 0.567302
C27_2 C 0.0930(3) 0.3394(3) 0.6123(7)
H13_2 H 0.091680 0.356331 0.679134
C28_2 C 0.1355(3) 0.3159(2) 0.5827(6)
C29_2 C 0.1820(3) 0.3216(2) 0.6473(6)
C30_2 C 0.1872(3) 0.3093(2) 0.7602(6)
H14_2 H 0.160659 0.296580 0.798580
C31_2 C 0.2679(3) 0.3355(3) 0.7606(6)
H15_2 H 0.296945 0.340104 0.799057
C32_2 C 0.2654(3) 0.3496(3) 0.6491(6)
C33_2 C 0.2215(3) 0.3424(3) 0.5956(6)
H16_2 H 0.218482 0.352094 0.521833
C34_2 C 0.3079(3) 0.3719(3) 0.5895(6)
C35_2 C 0.3242(3) 0.3495(3) 0.4902(6)
C36_2 C 0.3583(3) 0.3737(3) 0.4241(6)
H17_2 H 0.368029 0.360016 0.356960
C37_2 C 0.3775(3) 0.4176(3) 0.4580(6)
C38_2 C 0.3626(3) 0.4380(3) 0.5558(6)
H18_2 H 0.375843 0.467620 0.578346
C39_2 C 0.3284(3) 0.4154(3) 0.6214(6)
H19_2 H 0.318979 0.429741 0.688125
C40_2 C 0.3057(3) 0.3004(3) 0.4552(6)
C41_2 C 0.4109(3) 0.4442(3) 0.3793(7)
O15_2 O 0.0201(3) 0.3065(4) 0.2669(8)
C42_2 C 0.0101(4) 0.3167(4) 0.3722(10)
Zn5_9 Zn 0.750000 0.250000 0.250000
Zn8_2 Zn 0.73421(3) 0.29210(3) 0.52509(7)
O17_2 O 0.48896(19) 0.44108(18) 0.5982(4)
O18_2 O 0.4544(2) 0.5435(2) 0.6036(5)
O19_2 O 0.3202(3) 0.1630(2) 0.4688(5)
O21_2 O 0.56593(19) 0.5185(2) 0.5899(5)
N4_2 N 0.4343(2) 0.4800(2) 0.0639(5)
N1_2 N 0.5657(2) 0.5200(2) 0.9361(5)
C9_2 C 0.5593(2) 0.5628(3) 0.9898(6)
H4_2 H 0.546580 0.589341 0.951420
C10_2 C 0.5855(3) 0.4821(3) 0.9894(6)
H5_2 H 0.590104 0.453055 0.950943
Zn7_2 Zn 0.54210(3) 0.51579(3) 0.77509(7)
Zn5_10 Zn 0.500000 0.000000 0.500000
C30_3 C 0.4407(2) 0.4372(3) 0.0102(6)
H14_3 H 0.453420 0.410659 0.048580
C31_3 C 0.4145(3) 0.5179(3) 0.0106(6)
H15_3 H 0.409896 0.546945 0.049057
Zn1_3 Zn 0.250000 0.750000 0.750000
Zn2_3 Zn 0.26579(3) 0.70790(3) 0.47491(7)
O1_3 O 0.19108(18) 0.76104(19) 0.6518(4)
O2_3 O 0.19808(18) 0.73193(19) 0.4791(4)
O3_3 O 0.2935(2) 0.7956(2) 0.6464(5)
O4_3 O 0.3026(2) 0.76870(19) 0.4702(4)
O5_3 O 0.4130(2) 0.9298(3) 0.7188(5)
O6_3 O 0.43407(19) 0.9815(2) 0.5899(5)
N1_3 N 0.2300(2) 0.8157(2) 0.1861(5)
C1_3 C 0.1788(3) 0.7579(3) 0.5525(7)
C2_3 C 0.1362(3) 0.7879(3) 0.5179(6)
C3_3 C 0.0957(3) 0.7898(3) 0.5857(7)
H1_3 H 0.096834 0.774104 0.654145
C4_3 C 0.0540(3) 0.8138(3) 0.5563(8)
C5_3 C 0.0525(3) 0.8383(3) 0.4549(8)
H2_3 H 0.024020 0.853962 0.432698
C6_3 C 0.0930(3) 0.8394(3) 0.3877(7)
H3_3 H 0.091680 0.856331 0.320866
C7_3 C 0.1355(3) 0.8159(2) 0.4173(6)
C8_3 C 0.1820(3) 0.8216(2) 0.3527(6)
C9_3 C 0.1872(3) 0.8093(2) 0.2398(6)
H4_3 H 0.160659 0.796580 0.201420
C10_3 C 0.2679(3) 0.8355(3) 0.2394(6)
H5_3 H 0.296945 0.840104 0.200943
C11_3 C 0.2654(3) 0.8496(3) 0.3509(6)
C12_3 C 0.2215(3) 0.8424(3) 0.4044(6)
H6_3 H 0.218482 0.852094 0.478167
C13_3 C 0.3079(3) 0.8719(3) 0.4105(6)
C14_3 C 0.3242(3) 0.8495(3) 0.5098(6)
C15_3 C 0.3583(3) 0.8737(3) 0.5759(6)
H7_3 H 0.368029 0.860016 0.643040
C16_3 C 0.3775(3) 0.9176(3) 0.5420(6)
C17_3 C 0.3626(3) 0.9380(3) 0.4442(6)
H8_3 H 0.375843 0.967620 0.421654
C18_3 C 0.3284(3) 0.9154(3) 0.3786(6)
H9_3 H 0.318979 0.929741 0.311875
C19_3 C 0.3057(3) 0.8004(3) 0.5448(6)
C20_3 C 0.4109(3) 0.9442(3) 0.6207(7)
O7_3 O 0.0201(3) 0.8065(4) 0.7331(8)
C21_3 C 0.0101(4) 0.8167(4) 0.6278(10)
O10_3 O 0.51807(19) 0.44808(18) 0.7709(4)
O12_3 O 0.48130(19) 0.5526(2) 0.7798(4)
O13_3 O 0.3202(3) 0.6630(2) 0.5312(5)
O14_3 O 0.2685(2) 0.68407(19) 0.6601(5)
C22_3 C 0.4921(3) 0.4288(3) 0.6975(7)
C23_3 C 0.4621(3) 0.3862(3) 0.7321(6)
C24_3 C 0.4602(3) 0.3457(3) 0.6643(7)
H11_3 H 0.475896 0.346834 0.595855
C25_3 C 0.4362(3) 0.3040(3) 0.6937(8)
C26_3 C 0.4117(3) 0.3025(3) 0.7951(8)
H12_3 H 0.396038 0.274020 0.817302
C27_3 C 0.4106(3) 0.3430(3) 0.8623(7)
H13_3 H 0.393669 0.341680 0.929134
C28_3 C 0.4341(2) 0.3855(3) 0.8327(6)
C29_3 C 0.4284(2) 0.4320(3) 0.8973(6)
C32_3 C 0.4004(3) 0.5154(3) 0.8991(6)
C33_3 C 0.4076(3) 0.4715(3) 0.8456(6)
H16_3 H 0.397906 0.468482 0.771833
C34_3 C 0.3781(3) 0.5579(3) 0.8395(6)
C35_3 C 0.4005(3) 0.5742(3) 0.7402(6)
C36_3 C 0.3763(3) 0.6083(3) 0.6741(6)
H17_3 H 0.389984 0.618029 0.606960
C37_3 C 0.3324(3) 0.6275(3) 0.7080(6)
C38_3 C 0.3120(3) 0.6126(3) 0.8058(6)
H18_3 H 0.282380 0.625843 0.828346
C39_3 C 0.3346(3) 0.5784(3) 0.8714(6)
H19_3 H 0.320259 0.568979 0.938125
C40_3 C 0.4496(3) 0.5557(3) 0.7052(6)
C41_3 C 0.3058(3) 0.6609(3) 0.6293(7)
O15_3 O 0.4435(4) 0.2701(3) 0.5169(8)
H20_2 H 0.433609 0.248451 0.475756
C42_3 C 0.4333(4) 0.2601(4) 0.6222(10)
O16_2 O 0.4195(3) 0.2198(3) 0.6508(7)
Zn5_11 Zn 0.500000 1.000000 0.500000
Zn7_3 Zn 0.23421(3) 0.79210(3) 0.02509(7)
Zn8_3 Zn 0.45790(3) 0.98421(3) 0.77509(7)
O17_3 O 0.30892(18) 0.73896(19) 0.8482(4)
O18_3 O 0.2065(2) 0.7044(2) 0.8536(5)
O19_3 O 0.5870(2) 0.5702(3) 0.7188(5)
O21_3 O 0.2315(2) 0.81593(19) 0.8399(5)
N4_3 N 0.2700(2) 0.6843(2) 0.3139(5)
O10_4 O 0.30192(18) 0.76807(19) 0.0209(4)
O12_4 O 0.1974(2) 0.73130(19) 0.0298(4)
C26_4 C 0.4475(3) 0.6617(3) 0.0451(8)
H12_4 H 0.475980 0.646038 0.067302
C27_4 C 0.4070(3) 0.6606(3) 0.1123(7)
H13_4 H 0.408320 0.643669 0.179134
C28_4 C 0.3645(3) 0.6841(2) 0.0827(6)
C29_4 C 0.3180(3) 0.6784(2) 0.1473(6)
C30_4 C 0.3128(3) 0.6907(2) 0.2602(6)
H14_4 H 0.339341 0.703420 0.298580
C31_4 C 0.2321(3) 0.6645(3) 0.2606(6)
H15_4 H 0.203055 0.659896 0.299057
C32_4 C 0.2346(3) 0.6504(3) 0.1491(6)
C33_4 C 0.2785(3) 0.6576(3) 0.0956(6)
H16_4 H 0.281518 0.647906 0.021833
C34_4 C 0.1921(3) 0.6281(3) 0.0895(6)
C38_4 C 0.1374(3) 0.5620(3) 0.0558(6)
H18_4 H 0.124157 0.532380 0.078346
C39_4 C 0.1716(3) 0.5846(3) 0.1214(6)
H19_4 H 0.181021 0.570259 0.188125
O2_4 O 0.01807(19) 0.44808(18) 0.7291(4)
O13_4 O 0.0870(2) 0.5702(3) 0.7812(5)
O14_4 O 0.06593(19) 0.5185(2) 0.9101(5)
C22_4 C 0.3212(3) 0.7421(3) 0.9475(7)
C23_4 C 0.3638(3) 0.7121(3) 0.9821(6)
C24_4 C 0.4043(3) 0.7102(3) 0.9143(7)
H11_4 H 0.403166 0.725896 0.845855
C25_4 C 0.4460(3) 0.6862(3) 0.9437(8)
C35_4 C 0.1758(3) 0.6505(3) 0.9902(6)
C36_4 C 0.1417(3) 0.6263(3) 0.9241(6)
H17_4 H 0.131971 0.639984 0.856960
C37_4 C 0.1225(3) 0.5824(3) 0.9580(6)
C40_4 C 0.1943(3) 0.6996(3) 0.9552(6)
C41_4 C 0.0891(3) 0.5558(3) 0.8793(7)
O15_4 O 0.4799(3) 0.6935(4) 0.7669(8)
H20_3 H 0.501549 0.683609 0.725756
C42_4 C 0.4899(4) 0.6833(4) 0.8722(10)
O16_3 O 0.5302(3) 0.6695(3) 0.9008(7)
O19_4 O 0.1798(3) 0.8370(2) 0.9688(5)
H10_3 H 0.933609 0.248451 0.024244
Zn8_4 Zn 0.76579(3) 0.70790(3) 0.02509(7)
O1_4 O 0.98896(19) 0.44108(18) 0.9018(4)
O3_4 O 0.9544(2) 0.5435(2) 0.8964(5)
O4_4 O 0.98130(19) 0.5526(2) 0.7202(4)
O5_4 O 0.8202(3) 0.6630(2) 0.9688(5)
O6_4 O 0.7685(2) 0.68407(19) 0.8399(5)
C1_4 C 0.9921(3) 0.4288(3) 0.8025(7)
C2_4 C 0.9621(3) 0.3862(3) 0.7679(6)
C3_4 C 0.9602(3) 0.3457(3) 0.8357(7)
H1_4 H 0.975896 0.346834 0.904145
C4_4 C 0.9362(3) 0.3040(3) 0.8063(8)
C5_4 C 0.9117(3) 0.3025(3) 0.7049(8)
H2_4 H 0.896038 0.274020 0.682698
C6_4 C 0.9106(3) 0.3430(3) 0.6377(7)
H3_4 H 0.893669 0.341680 0.570866
C7_4 C 0.9341(2) 0.3855(3) 0.6673(6)
C8_4 C 0.9284(2) 0.4320(3) 0.6027(6)
C9_4 C 0.9407(2) 0.4372(3) 0.4898(6)
H4_4 H 0.953420 0.410659 0.451420
C10_4 C 0.9145(3) 0.5179(3) 0.4894(6)
H5_4 H 0.909896 0.546945 0.450943
C11_4 C 0.9004(3) 0.5154(3) 0.6009(6)
C12_4 C 0.9076(3) 0.4715(3) 0.6544(6)
H6_4 H 0.897906 0.468482 0.728167
C13_4 C 0.8781(3) 0.5579(3) 0.6605(6)
C14_4 C 0.9005(3) 0.5742(3) 0.7598(6)
C15_4 C 0.8763(3) 0.6083(3) 0.8259(6)
H7_4 H 0.889984 0.618029 0.893040
C16_4 C 0.8324(3) 0.6275(3) 0.7920(6)
C17_4 C 0.8120(3) 0.6126(3) 0.6942(6)
H8_4 H 0.782380 0.625843 0.671654
C18_4 C 0.8346(3) 0.5784(3) 0.6286(6)
H9_4 H 0.820259 0.568979 0.561875
C19_4 C 0.9496(3) 0.5557(3) 0.7948(6)
C20_4 C 0.8058(3) 0.6609(3) 0.8707(7)
O7_4 O 0.9435(4) 0.2701(3) 0.9831(8)
C21_4 C 0.9333(4) 0.2601(4) 0.8778(10)
O8_3 O 0.9195(3) 0.2198(3) 0.8492(7)
Zn5_12 Zn 0.750000 0.750000 0.750000
N2_2 N 0.5657(2) 0.0200(2) 0.0639(5)
C30_5 C 0.5593(2) 0.0628(3) 0.0102(6)
H14_5 H 0.546580 0.089341 0.048580
Zn6_2 Zn 0.54210(3) 0.01579(3) 0.22491(7)
O9_2 O 0.51104(19) 0.05892(18) 0.5982(4)
O10_5 O 0.48193(19) 0.05192(18) 0.7709(4)
C22_5 C 0.5079(3) 0.0712(3) 0.6975(7)
C23_5 C 0.5379(3) 0.1138(3) 0.7321(6)
C24_5 C 0.5398(3) 0.1543(3) 0.6643(7)
H11_5 H 0.524104 0.153166 0.595855
C25_5 C 0.5638(3) 0.1960(3) 0.6937(8)
C26_5 C 0.5883(3) 0.1975(3) 0.7951(8)
H12_5 H 0.603962 0.225980 0.817302
C27_5 C 0.5894(3) 0.1570(3) 0.8623(7)
H13_5 H 0.606331 0.158320 0.929134
C28_5 C 0.5659(2) 0.1145(3) 0.8327(6)
C29_5 C 0.5716(2) 0.0680(3) 0.8973(6)
C33_5 C 0.5924(3) 0.0285(3) 0.8456(6)
H16_5 H 0.602094 0.031518 0.771833
O15_5 O 0.5565(4) 0.2299(3) 0.5169(8)
H20_4 H 0.566391 0.251549 0.475756
C42_5 C 0.5667(4) 0.2399(4) 0.6222(10)
O16_4 O 0.5805(3) 0.2802(3) 0.6508(7)
Zn2_4 Zn 0.73421(3) 0.79210(3) 0.47491(7)
O1_5 O 0.80892(18) 0.73896(19) 0.6518(4)
O2_5 O 0.80192(18) 0.76807(19) 0.4791(4)
O3_5 O 0.7065(2) 0.7044(2) 0.6464(5)
O4_5 O 0.6974(2) 0.73130(19) 0.4702(4)
N1_4 N 0.7700(2) 0.6843(2) 0.1861(5)
C1_5 C 0.8212(3) 0.7421(3) 0.5525(7)
C2_5 C 0.8638(3) 0.7121(3) 0.5179(6)
C3_5 C 0.9043(3) 0.7102(3) 0.5857(7)
H1_5 H 0.903166 0.725896 0.654145
C4_5 C 0.9460(3) 0.6862(3) 0.5563(8)
C5_5 C 0.9475(3) 0.6617(3) 0.4549(8)
H2_5 H 0.975980 0.646038 0.432698
C6_5 C 0.9070(3) 0.6606(3) 0.3877(7)
H3_5 H 0.908320 0.643669 0.320866
C7_5 C 0.8645(3) 0.6841(2) 0.4173(6)
C8_5 C 0.8180(3) 0.6784(2) 0.3527(6)
C9_5 C 0.8128(3) 0.6907(2) 0.2398(6)
H4_5 H 0.839341 0.703420 0.201420
C10_5 C 0.7321(3) 0.6645(3) 0.2394(6)
H5_5 H 0.703055 0.659896 0.200943
C11_5 C 0.7346(3) 0.6504(3) 0.3509(6)
C12_5 C 0.7785(3) 0.6576(3) 0.4044(6)
H6_5 H 0.781518 0.647906 0.478167
C13_5 C 0.6921(3) 0.6281(3) 0.4105(6)
C14_5 C 0.6758(3) 0.6505(3) 0.5098(6)
C15_5 C 0.6417(3) 0.6263(3) 0.5759(6)
H7_5 H 0.631971 0.639984 0.643040
C16_5 C 0.6225(3) 0.5824(3) 0.5420(6)
C17_5 C 0.6374(3) 0.5620(3) 0.4442(6)
H8_5 H 0.624157 0.532380 0.421654
C18_5 C 0.6716(3) 0.5846(3) 0.3786(6)
H9_5 H 0.681021 0.570259 0.311875
C19_5 C 0.6943(3) 0.6996(3) 0.5448(6)
C20_5 C 0.5891(3) 0.5558(3) 0.6207(7)
O7_5 O 0.9799(3) 0.6935(4) 0.7331(8)
C21_5 C 0.9899(4) 0.6833(4) 0.6278(10)
O11_2 O 0.5456(2) 0.9565(2) 0.6036(5)
O12_5 O 0.51870(19) 0.9474(2) 0.7798(4)
O13_5 O 0.6798(3) 0.8370(2) 0.5312(5)
O14_5 O 0.7315(2) 0.81593(19) 0.6601(5)
C32_5 C 0.5996(3) 0.9846(3) 0.8991(6)
C34_5 C 0.6219(3) 0.9421(3) 0.8395(6)
C35_5 C 0.5995(3) 0.9258(3) 0.7402(6)
C36_5 C 0.6237(3) 0.8917(3) 0.6741(6)
H17_5 H 0.610016 0.881971 0.606960
C37_5 C 0.6676(3) 0.8725(3) 0.7080(6)
C38_5 C 0.6880(3) 0.8874(3) 0.8058(6)
H18_5 H 0.717620 0.874157 0.828346
C39_5 C 0.6654(3) 0.9216(3) 0.8714(6)
H19_5 H 0.679741 0.931021 0.938125
C40_5 C 0.5504(3) 0.9443(3) 0.7052(6)
C41_5 C 0.6942(3) 0.8391(3) 0.6293(7)
O17_4 O 0.69108(18) 0.76104(19) 0.8482(4)
O18_4 O 0.7935(2) 0.7956(2) 0.8536(5)
N3_2 N 0.4343(2) 0.9800(2) 0.9361(5)
N4_4 N 0.7300(2) 0.8157(2) 0.3139(5)
H10_4 H 0.066391 0.251549 0.024244
O1_6 O 0.01104(19) 0.05892(18) 0.9018(4)
N1_5 N 0.0657(2) 0.0200(2) 0.4361(5)
C1_6 C 0.0079(3) 0.0712(3) 0.8025(7)
C2_6 C 0.0379(3) 0.1138(3) 0.7679(6)
C3_6 C 0.0398(3) 0.1543(3) 0.8357(7)
H1_6 H 0.024104 0.153166 0.904145
C4_6 C 0.0638(3) 0.1960(3) 0.8063(8)
C5_6 C 0.0883(3) 0.1975(3) 0.7049(8)
H2_6 H 0.103962 0.225980 0.682698
C6_6 C 0.0894(3) 0.1570(3) 0.6377(7)
H3_6 H 0.106331 0.158320 0.570866
C7_6 C 0.0659(2) 0.1145(3) 0.6673(6)
C8_6 C 0.0716(2) 0.0680(3) 0.6027(6)
C9_6 C 0.0593(2) 0.0628(3) 0.4898(6)
H4_6 H 0.046580 0.089341 0.451420
C12_6 C 0.0924(3) 0.0285(3) 0.6544(6)
H6_6 H 0.102094 0.031518 0.728167
O7_6 O 0.0565(4) 0.2299(3) 0.9831(8)
C21_6 C 0.0667(4) 0.2399(4) 0.8778(10)
O8_4 O 0.0805(3) 0.2802(3) 0.8492(7)
O3_6 O 0.0456(2) 0.9565(2) 0.8964(5)
O4_6 O 0.01870(19) 0.9474(2) 0.7202(4)
C10_6 C 0.0855(3) 0.9821(3) 0.4894(6)
H5_6 H 0.090104 0.953055 0.450943
C11_6 C 0.0996(3) 0.9846(3) 0.6009(6)
C13_6 C 0.1219(3) 0.9421(3) 0.6605(6)
C14_6 C 0.0995(3) 0.9258(3) 0.7598(6)
C15_6 C 0.1237(3) 0.8917(3) 0.8259(6)
H7_6 H 0.110016 0.881971 0.893040
C16_6 C 0.1676(3) 0.8725(3) 0.7920(6)
C17_6 C 0.1880(3) 0.8874(3) 0.6942(6)
H8_6 H 0.217620 0.874157 0.671654
C18_6 C 0.1654(3) 0.9216(3) 0.6286(6)
H9_6 H 0.179741 0.931021 0.561875
C19_6 C 0.0504(3) 0.9443(3) 0.7948(6)
C20_6 C 0.1942(3) 0.8391(3) 0.8707(7)
O18_5 O 0.9544(2) 0.0435(2) 0.1036(5)
O2_6 O 0.98193(19) 0.05192(18) 0.7291(4)
O10_6 O 0.69808(18) 0.73193(19) 0.0209(4)
O12_6 O 0.8026(2) 0.76870(19) 0.0298(4)
C26_6 C 0.5525(3) 0.8383(3) 0.0451(8)
H12_6 H 0.524020 0.853962 0.067302
C27_6 C 0.5930(3) 0.8394(3) 0.1123(7)
H13_6 H 0.591680 0.856331 0.179134
C28_6 C 0.6355(3) 0.8159(2) 0.0827(6)
C29_6 C 0.6820(3) 0.8216(2) 0.1473(6)
C30_6 C 0.6872(3) 0.8093(2) 0.2602(6)
H14_6 H 0.660659 0.796580 0.298580
C31_5 C 0.7679(3) 0.8355(3) 0.2606(6)
H15_5 H 0.796945 0.840104 0.299057
C32_6 C 0.7654(3) 0.8496(3) 0.1491(6)
C33_6 C 0.7215(3) 0.8424(3) 0.0956(6)
H16_6 H 0.718482 0.852094 0.021833
C34_6 C 0.8079(3) 0.8719(3) 0.0895(6)
C38_6 C 0.8626(3) 0.9380(3) 0.0558(6)
H18_6 H 0.875843 0.967620 0.078346
C39_6 C 0.8284(3) 0.9154(3) 0.1214(6)
H19_6 H 0.818979 0.929741 0.188125
O17_5 O 0.98896(19) 0.94108(18) 0.0982(4)
Zn2_5 Zn 0.95790(3) 0.98421(3) 0.72491(7)
O13_6 O 0.9130(2) 0.9298(3) 0.7812(5)
O14_6 O 0.93407(19) 0.9815(2) 0.9101(5)
C22_6 C 0.6788(3) 0.7579(3) 0.9475(7)
C23_6 C 0.6362(3) 0.7879(3) 0.9821(6)
C24_6 C 0.5957(3) 0.7898(3) 0.9143(7)
H11_6 H 0.596834 0.774104 0.845855
C25_6 C 0.5540(3) 0.8138(3) 0.9437(8)
C35_6 C 0.8242(3) 0.8495(3) 0.9902(6)
C36_6 C 0.8583(3) 0.8737(3) 0.9241(6)
H17_6 H 0.868029 0.860016 0.856960
C37_6 C 0.8775(3) 0.9176(3) 0.9580(6)
C40_6 C 0.8057(3) 0.8004(3) 0.9552(6)
C41_6 C 0.9109(3) 0.9442(3) 0.8793(7)
O15_6 O 0.5201(3) 0.8065(4) 0.7669(8)
H20_5 H 0.498451 0.816391 0.725756
C42_6 C 0.5101(4) 0.8167(4) 0.8722(10)
O16_5 O 0.4698(3) 0.8305(3) 0.9008(7)
N4_5 N 0.9343(2) 0.9800(2) 0.5639(5)
O10_7 O 0.01807(19) 0.94808(18) 0.2709(4)
O1_7 O 0.69108(18) 0.26104(19) 0.1518(4)
O3_7 O 0.7935(2) 0.2956(2) 0.1464(5)
C1_7 C 0.6788(3) 0.2579(3) 0.0525(7)
C2_7 C 0.6362(3) 0.2879(3) 0.0179(6)
C3_7 C 0.5957(3) 0.2898(3) 0.0857(7)
H1_7 H 0.596834 0.274104 0.154145
C4_7 C 0.5540(3) 0.3138(3) 0.0563(8)
C14_7 C 0.8242(3) 0.3495(3) 0.0098(6)
C15_7 C 0.8583(3) 0.3737(3) 0.0759(6)
H7_7 H 0.868029 0.360016 0.143040
C16_7 C 0.8775(3) 0.4176(3) 0.0420(6)
C19_7 C 0.8057(3) 0.3004(3) 0.0448(6)
C20_7 C 0.9109(3) 0.4442(3) 0.1207(7)
O7_7 O 0.5201(3) 0.3065(4) 0.2331(8)
H10_5 H 0.498451 0.316391 0.274244
C21_7 C 0.5101(4) 0.3167(4) 0.1278(10)
O8_5 O 0.4698(3) 0.3305(3) 0.0992(7)
O12_7 O 0.98130(19) 0.0526(2) 0.2798(4)
O13_7 O 0.8202(3) 0.1630(2) 0.0312(5)
O14_7 O 0.7685(2) 0.18407(19) 0.1601(5)
C31_6 C 0.9145(3) 0.0179(3) 0.5106(6)
H15_6 H 0.909896 0.046945 0.549057
C32_7 C 0.9004(3) 0.0154(3) 0.3991(6)
C34_7 C 0.8781(3) 0.0579(3) 0.3395(6)
C35_7 C 0.9005(3) 0.0742(3) 0.2402(6)
C36_7 C 0.8763(3) 0.1083(3) 0.1741(6)
H17_7 H 0.889984 0.118029 0.106960
C37_7 C 0.8324(3) 0.1275(3) 0.2080(6)
C38_7 C 0.8120(3) 0.1126(3) 0.3058(6)
H18_7 H 0.782380 0.125843 0.328346
C39_7 C 0.8346(3) 0.0784(3) 0.3714(6)
H19_7 H 0.820259 0.068979 0.438125
C40_7 C 0.9496(3) 0.0557(3) 0.2052(6)
C41_7 C 0.8058(3) 0.1609(3) 0.1293(7)
O17_6 O 0.80892(18) 0.23896(19) 0.3482(4)
O18_6 O 0.7065(2) 0.2044(2) 0.3536(5)
Zn2_6 Zn 0.76579(3) 0.20790(3) 0.97491(7)
O2_7 O 0.69808(18) 0.23193(19) 0.9791(4)
O4_7 O 0.8026(2) 0.26870(19) 0.9702(4)
N1_6 N 0.7300(2) 0.3157(2) 0.6861(5)
C5_7 C 0.5525(3) 0.3383(3) 0.9549(8)
H2_7 H 0.524020 0.353962 0.932698
C6_7 C 0.5930(3) 0.3394(3) 0.8877(7)
H3_7 H 0.591680 0.356331 0.820866
C7_7 C 0.6355(3) 0.3159(2) 0.9173(6)
C8_7 C 0.6820(3) 0.3216(2) 0.8527(6)
C9_7 C 0.6872(3) 0.3093(2) 0.7398(6)
H4_7 H 0.660659 0.296580 0.701420
C10_7 C 0.7679(3) 0.3355(3) 0.7394(6)
H5_7 H 0.796945 0.340104 0.700943
C11_7 C 0.7654(3) 0.3496(3) 0.8509(6)
C12_7 C 0.7215(3) 0.3424(3) 0.9044(6)
H6_7 H 0.718482 0.352094 0.978167
C13_7 C 0.8079(3) 0.3719(3) 0.9105(6)
C17_7 C 0.8626(3) 0.4380(3) 0.9442(6)
H8_7 H 0.875843 0.467620 0.921654
C18_7 C 0.8284(3) 0.4154(3) 0.8786(6)
H9_7 H 0.818979 0.429741 0.811875
N4_6 N 0.7700(2) 0.1843(2) 0.8139(5)
C22_7 C 0.9921(3) 0.9288(3) 0.1975(7)
C23_7 C 0.9621(3) 0.8862(3) 0.2321(6)
C24_7 C 0.9602(3) 0.8457(3) 0.1643(7)
H11_7 H 0.975896 0.846834 0.095855
C25_7 C 0.9362(3) 0.8040(3) 0.1937(8)
C26_7 C 0.9117(3) 0.8025(3) 0.2951(8)
H12_7 H 0.896038 0.774020 0.317302
C27_7 C 0.9106(3) 0.8430(3) 0.3623(7)
H13_7 H 0.893669 0.841680 0.429134
C28_7 C 0.9341(2) 0.8855(3) 0.3327(6)
C29_7 C 0.9284(2) 0.9320(3) 0.3973(6)
C30_7 C 0.9407(2) 0.9372(3) 0.5102(6)
H14_7 H 0.953420 0.910659 0.548580
C33_7 C 0.9076(3) 0.9715(3) 0.3456(6)
H16_7 H 0.897906 0.968482 0.271833
O15_7 O 0.9435(4) 0.7701(3) 0.0169(8)
C42_7 C 0.9333(4) 0.7601(4) 0.1222(10)
O16_6 O 0.9195(3) 0.7198(3) 0.1508(7)
H20_6 H 0.933609 0.748451 0.975756
O3_8 O 0.4544(2) 0.0435(2) 0.3964(5)
O4_8 O 0.48130(19) 0.0526(2) 0.2202(4)
C11_8 C 0.4004(3) 0.0154(3) 0.1009(6)
C13_8 C 0.3781(3) 0.0579(3) 0.1605(6)
C14_8 C 0.4005(3) 0.0742(3) 0.2598(6)
C15_8 C 0.3763(3) 0.1083(3) 0.3259(6)
H7_8 H 0.389984 0.118029 0.393040
C16_8 C 0.3324(3) 0.1275(3) 0.2920(6)
C17_8 C 0.3120(3) 0.1126(3) 0.1942(6)
H8_8 H 0.282380 0.125843 0.171654
C18_8 C 0.3346(3) 0.0784(3) 0.1286(6)
H9_8 H 0.320259 0.068979 0.061875
C19_8 C 0.4496(3) 0.0557(3) 0.2948(6)
C20_8 C 0.3058(3) 0.1609(3) 0.3707(7)
O10_8 O 0.80192(18) 0.26807(19) 0.5209(4)
O12_8 O 0.6974(2) 0.23130(19) 0.5298(4)
O13_8 O 0.5870(2) 0.0702(3) 0.2812(5)
O14_8 O 0.56593(19) 0.0185(2) 0.4101(5)
C22_8 C 0.8212(3) 0.2421(3) 0.4475(7)
C23_8 C 0.8638(3) 0.2121(3) 0.4821(6)
C24_8 C 0.9043(3) 0.2102(3) 0.4143(7)
H11_8 H 0.903166 0.225896 0.345855
C25_8 C 0.9460(3) 0.1862(3) 0.4437(8)
C26_8 C 0.9475(3) 0.1617(3) 0.5451(8)
H12_8 H 0.975980 0.146038 0.567302
C27_8 C 0.9070(3) 0.1606(3) 0.6123(7)
H13_8 H 0.908320 0.143669 0.679134
C28_8 C 0.8645(3) 0.1841(2) 0.5827(6)
C29_8 C 0.8180(3) 0.1784(2) 0.6473(6)
C30_8 C 0.8128(3) 0.1907(2) 0.7602(6)
H14_8 H 0.839341 0.203420 0.798580
C31_7 C 0.7321(3) 0.1645(3) 0.7606(6)
H15_7 H 0.703055 0.159896 0.799057
C32_8 C 0.7346(3) 0.1504(3) 0.6491(6)
C33_8 C 0.7785(3) 0.1576(3) 0.5956(6)
H16_8 H 0.781518 0.147906 0.521833
C34_8 C 0.6921(3) 0.1281(3) 0.5895(6)
C35_8 C 0.6758(3) 0.1505(3) 0.4902(6)
C36_8 C 0.6417(3) 0.1263(3) 0.4241(6)
H17_8 H 0.631971 0.139984 0.356960
C37_8 C 0.6225(3) 0.0824(3) 0.4580(6)
C38_8 C 0.6374(3) 0.0620(3) 0.5558(6)
H18_8 H 0.624157 0.032380 0.578346
C39_8 C 0.6716(3) 0.0846(3) 0.6214(6)
H19_8 H 0.681021 0.070259 0.688125
C40_8 C 0.6943(3) 0.1996(3) 0.4552(6)
C41_8 C 0.5891(3) 0.0558(3) 0.3793(7)
O15_8 O 0.9799(3) 0.1935(4) 0.2669(8)
C42_8 C 0.9899(4) 0.1833(4) 0.3722(10)
O1_8 O 0.48896(19) 0.94108(18) 0.4018(4)
O2_8 O 0.51807(19) 0.94808(18) 0.2291(4)
C1_8 C 0.4921(3) 0.9288(3) 0.3025(7)
C2_8 C 0.4621(3) 0.8862(3) 0.2679(6)
C3_8 C 0.4602(3) 0.8457(3) 0.3357(7)
H1_8 H 0.475896 0.846834 0.404145
C4_8 C 0.4362(3) 0.8040(3) 0.3063(8)
C5_8 C 0.4117(3) 0.8025(3) 0.2049(8)
H2_8 H 0.396038 0.774020 0.182698
C6_8 C 0.4106(3) 0.8430(3) 0.1377(7)
H3_8 H 0.393669 0.841680 0.070866
C7_8 C 0.4341(2) 0.8855(3) 0.1673(6)
C8_8 C 0.4284(2) 0.9320(3) 0.1027(6)
C12_8 C 0.4076(3) 0.9715(3) 0.1544(6)
H6_8 H 0.397906 0.968482 0.228167
O7_8 O 0.4435(4) 0.7701(3) 0.4831(8)
H10_6 H 0.433609 0.748451 0.524244
C21_8 C 0.4333(4) 0.7601(4) 0.3778(10)
O8_6 O 0.4195(3) 0.7198(3) 0.3492(7)
C9_8 C 0.4407(2) 0.9372(3) 0.9898(6)
H4_8 H 0.453420 0.910659 0.951420
H20_7 H 0.998451 0.316391 0.225756
O16_7 O 0.9698(3) 0.3305(3) 0.4008(7)
H10_7 H 0.998451 0.816391 0.774244
O8_7 O 0.9698(3) 0.8305(3) 0.5992(7)
H10_8 H 0.001549 0.683609 0.774244
O8_8 O 0.0302(3) 0.6695(3) 0.5992(7)
C31_8 C 0.5855(3) 0.9821(3) 0.0106(6)
H15_8 H 0.590104 0.953055 0.049057
H20_8 H 0.001549 0.183609 0.225756
O16_8 O 0.0302(3) 0.1695(3) 0.4008(7)
C10_8 C 0.4145(3) 0.0179(3) 0.9894(6)
H5_8 H 0.409896 0.046945 0.950943
loop_
_geom_bond_atom_site_label_1
_geom_bond_atom_site_label_2
_geom_bond_site_symmetry_1
_geom_bond_site_symmetry_2
Zn1 O1 1_555 1_555
O1 C1 1_555 1_555
O3 Zn1 1_555 1_555
O5 C20 1_555 1_555
O6 C20 1_555 1_555
C1 C2 1_555 1_555
C2 C3 1_555 1_555
C3 H1 1_555 1_555
C4 C3 1_555 1_555
C15 C14 1_555 1_555
H7 C15 1_555 1_555
C16 C15 1_555 1_555
C19 O3 1_555 1_555
C20 C16 1_555 1_555
O7 H10 1_555 1_555
C21 C4 1_555 1_555
O8 C21 1_555 1_555
O9 C22 1_555 1_555
O11 C40 1_555 1_555
O14 Zn1 1_555 1_555
N2 C30 1_555 1_555
C22 C23 1_555 1_555
C23 C24 1_555 1_555
C24 H11 1_555 1_555
C25 C24 1_555 1_555
C26 C25 1_555 1_555
H12 C26 1_555 1_555
C27 C26 1_555 1_555
H13 C27 1_555 1_555
C28 C23 1_555 1_555
C29 C28 1_555 1_555
C30 C29 1_555 1_555
H14 C30 1_555 1_555
C31 N2 1_555 1_555
H15 C31 1_555 1_555
C32 C31 1_555 1_555
C33 C29 1_555 1_555
H16 C33 1_555 1_555
C34 C32 1_555 1_555
C35 C34 1_555 1_555
C36 C35 1_555 1_555
H17 C36 1_555 1_555
C37 C36 1_555 1_555
C38 C37 1_555 1_555
H18 C38 1_555 1_555
C39 C34 1_555 1_555
H19 C39 1_555 1_555
C40 O12 1_555 1_555
C41 O13 1_555 1_555
C42 C25 1_555 1_555
O16 C42 1_555 1_555
Zn4 O9 1_555 1_555
Zn5 O6 1_555 1_555
Zn6 N2 1_555 1_555
Zn8 O5 1_555 1_555
O17 Zn1 1_555 1_555
O18 Zn1 1_555 1_555
O21 Zn1 1_555 1_555
O6 Zn8 1_555 1_555
C14 C19 1_555 1_555
O7 C21 1_555 1_555
O11 Zn4 1_555 1_555
O14 C41 1_555 1_555
C27 C28 1_555 1_555
C32 C33 1_555 1_555
C35 C40 1_555 1_555
C37 C41 1_555 1_555
C38 C39 1_555 1_555
O15 C42 1_555 1_555
Zn2 O2 1_555 1_555
O4 Zn2 1_555 1_555
N1 C9 1_555 1_555
H2 C5 1_555 1_555
C6 C5 1_555 1_555
H3 C6 1_555 1_555
C8 C7 1_555 1_555
C9 C8 1_555 1_555
H4 C9 1_555 1_555
C10 N1 1_555 1_555
H5 C10 1_555 1_555
C11 C10 1_555 1_555
C12 C8 1_555 1_555
H6 C12 1_555 1_555
C13 C11 1_555 1_555
H8 C17 1_555 1_555
C18 C13 1_555 1_555
H9 C18 1_555 1_555
Zn7 N1 1_555 1_555
N4 Zn2 1_555 1_555
C6 C7 1_555 1_555
C11 C12 1_555 1_555
C17 C18 1_555 1_555
Zn3 O10 1_555 1_555
O19 Zn3 1_555 1_555
O20 Zn3 1_555 1_555
N3 Zn3 1_555 1_555
Zn4_3 O20 1_555 1_555
Zn1_2 O1_2 1_555 1_555
Zn2_2 O2_2 1_555 1_555
O1_2 C1_2 1_555 1_555
O2_2 C1_2 1_555 1_555
O3_2 Zn1_2 1_555 1_555
O4_2 Zn2_2 1_555 1_555
O5_2 C20_2 1_555 1_555
O6_2 C20_2 1_555 1_555
C1_2 C2_2 1_555 1_555
C2_2 C3_2 1_555 1_555
C3_2 H1_2 1_555 1_555
C4_2 C3_2 1_555 1_555
C5_2 C4_2 1_555 1_555
H2_2 C5_2 1_555 1_555
C6_2 C5_2 1_555 1_555
H3_2 C6_2 1_555 1_555
C7_2 C2_2 1_555 1_555
C8_2 C7_2 1_555 1_555
C12_2 C8_2 1_555 1_555
H6_2 C12_2 1_555 1_555
C13_2 C11_2 1_555 1_555
C14_2 C13_2 1_555 1_555
C15_2 C14_2 1_555 1_555
H7_2 C15_2 1_555 1_555
C16_2 C15_2 1_555 1_555
C17_2 C16_2 1_555 1_555
H8_2 C17_2 1_555 1_555
C18_2 C13_2 1_555 1_555
H9_2 C18_2 1_555 1_555
C19_2 O3_2 1_555 1_555
C20_2 C16_2 1_555 1_555
O7_2 H10_2 1_555 1_555
C21_2 C4_2 1_555 1_555
O8_2 C21_2 1_555 1_555
Zn7 O10_2 1_555 1_555
O17 C22_2 1_555 1_555
O10_2 C22_2 1_555 1_555
O18 C40_2 1_555 1_555
O12_2 Zn7 1_555 1_555
O13_2 Zn2_2 1_555 1_555
O14_2 Zn1_2 1_555 1_555
N4 C30_2 1_555 1_555
C22_2 C23_2 1_555 1_555
C23_2 C24_2 1_555 1_555
C24_2 H11_2 1_555 1_555
C25_2 C24_2 1_555 1_555
C26_2 C25_2 1_555 1_555
H12_2 C26_2 1_555 1_555
C27_2 C26_2 1_555 1_555
H13_2 C27_2 1_555 1_555
C28_2 C23_2 1_555 1_555
C29_2 C28_2 1_555 1_555
C30_2 C29_2 1_555 1_555
H14_2 C30_2 1_555 1_555
C31_2 N4 1_555 1_555
H15_2 C31_2 1_555 1_555
C32_2 C31_2 1_555 1_555
C33_2 C29_2 1_555 1_555
H16_2 C33_2 1_555 1_555
C34_2 C32_2 1_555 1_555
C35_2 C34_2 1_555 1_555
C36_2 C35_2 1_555 1_555
H17_2 C36_2 1_555 1_555
C37_2 C36_2 1_555 1_555
C38_2 C37_2 1_555 1_555
H18_2 C38_2 1_555 1_555
C39_2 C34_2 1_555 1_555
H19_2 C39_2 1_555 1_555
C40_2 O12_2 1_555 1_555
C41_2 O13_2 1_555 1_555
C42_2 C25_2 1_555 1_555
Zn5_9 O6_2 1_555 1_555
Zn8_2 O5_2 1_555 1_555
O17_2 Zn1_2 1_555 1_555
O18_2 Zn1_2 1_555 1_555
O19_2 Zn7 1_555 1_555
O21 Zn7 1_555 1_555
O21_2 Zn1_2 1_555 1_555
N4_2 Zn2_2 1_555 1_555
Zn2_2 O14_2 1_555 1_555
O4_2 C19_2 1_555 1_555
O6_2 Zn8_2 1_555 1_555
C6_2 C7_2 1_555 1_555
C11_2 C12_2 1_555 1_555
C14_2 C19_2 1_555 1_555
C17_2 C18_2 1_555 1_555
O7_2 C21_2 1_555 1_555
O14_2 C41_2 1_555 1_555
C27_2 C28_2 1_555 1_555
C32_2 C33_2 1_555 1_555
C35_2 C40_2 1_555 1_555
C37_2 C41_2 1_555 1_555
C38_2 C39_2 1_555 1_555
O15_2 C42_2 1_555 1_555
N1_2 C9_2 1_555 1_555
H4_2 C9_2 1_555 1_555
C10_2 N1_2 1_555 1_555
H5_2 C10_2 1_555 1_555
Zn7_2 N1_2 1_555 1_555
N4_2 C30_3 1_555 1_555
H14_3 C30_3 1_555 1_555
C31_3 N4_2 1_555 1_555
H15_3 C31_3 1_555 1_555
Zn1_3 O1_3 1_555 1_555
Zn2_3 O2_3 1_555 1_555
O1_3 C1_3 1_555 1_555
O2_3 C1_3 1_555 1_555
O3_3 Zn1_3 1_555 1_555
O4_3 Zn2_3 1_555 1_555
O5_3 C20_3 1_555 1_555
O6_3 C20_3 1_555 1_555
N1_3 C9_3 1_555 1_555
C1_3 C2_3 1_555 1_555
C2_3 C3_3 1_555 1_555
C3_3 H1_3 1_555 1_555
C4_3 C3_3 1_555 1_555
C5_3 C4_3 1_555 1_555
H2_3 C5_3 1_555 1_555
C6_3 C5_3 1_555 1_555
H3_3 C6_3 1_555 1_555
C7_3 C2_3 1_555 1_555
C8_3 C7_3 1_555 1_555
C9_3 C8_3 1_555 1_555
H4_3 C9_3 1_555 1_555
C10_3 N1_3 1_555 1_555
H5_3 C10_3 1_555 1_555
C11_3 C10_3 1_555 1_555
C12_3 C8_3 1_555 1_555
H6_3 C12_3 1_555 1_555
C13_3 C11_3 1_555 1_555
C14_3 C13_3 1_555 1_555
C15_3 C14_3 1_555 1_555
H7_3 C15_3 1_555 1_555
C16_3 C15_3 1_555 1_555
C17_3 C16_3 1_555 1_555
H8_3 C17_3 1_555 1_555
C18_3 C13_3 1_555 1_555
H9_3 C18_3 1_555 1_555
C19_3 O3_3 1_555 1_555
C20_3 C16_3 1_555 1_555
C21_3 C4_3 1_555 1_555
Zn7_2 O10_3 1_555 1_555
O17_2 C22_3 1_555 1_555
O10_3 C22_3 1_555 1_555
O18_2 C40_3 1_555 1_555
O12_3 Zn7_2 1_555 1_555
O13_3 Zn2_3 1_555 1_555
O14_3 Zn1_3 1_555 1_555
C22_3 C23_3 1_555 1_555
C23_3 C24_3 1_555 1_555
C24_3 H11_3 1_555 1_555
C25_3 C24_3 1_555 1_555
C26_3 C25_3 1_555 1_555
H12_3 C26_3 1_555 1_555
C27_3 C26_3 1_555 1_555
H13_3 C27_3 1_555 1_555
C28_3 C23_3 1_555 1_555
C29_3 C28_3 1_555 1_555
C33_3 C29_3 1_555 1_555
H16_3 C33_3 1_555 1_555
C34_3 C32_3 1_555 1_555
C35_3 C34_3 1_555 1_555
C36_3 C35_3 1_555 1_555
H17_3 C36_3 1_555 1_555
C37_3 C36_3 1_555 1_555
C38_3 C37_3 1_555 1_555
H18_3 C38_3 1_555 1_555
C39_3 C34_3 1_555 1_555
H19_3 C39_3 1_555 1_555
C40_3 O12_3 1_555 1_555
C41_3 O13_3 1_555 1_555
O15_3 H20_2 1_555 1_555
C42_3 C25_3 1_555 1_555
O16_2 C42_3 1_555 1_555
Zn5_11 O6_3 1_555 1_555
Zn7_3 N1_3 1_555 1_555
Zn8_3 O5_3 1_555 1_555
O17_3 Zn1_3 1_555 1_555
O18_3 Zn1_3 1_555 1_555
O19_3 Zn7_2 1_555 1_555
O21_2 Zn7_2 1_555 1_555
O21_3 Zn1_3 1_555 1_555
N4_3 Zn2_3 1_555 1_555
Zn2_3 O14_3 1_555 1_555
O4_3 C19_3 1_555 1_555
O6_3 Zn8_3 1_555 1_555
C6_3 C7_3 1_555 1_555
C11_3 C12_3 1_555 1_555
C14_3 C19_3 1_555 1_555
C17_3 C18_3 1_555 1_555
O7_3 C21_3 1_555 1_555
O14_3 C41_3 1_555 1_555
C27_3 C28_3 1_555 1_555
C32_3 C33_3 1_555 1_555
C35_3 C40_3 1_555 1_555
C37_3 C41_3 1_555 1_555
C38_3 C39_3 1_555 1_555
O15_3 C42_3 1_555 1_555
Zn7_3 O10_4 1_555 1_555
O12_4 Zn7_3 1_555 1_555
N4_3 C30_4 1_555 1_555
H12_4 C26_4 1_555 1_555
C27_4 C26_4 1_555 1_555
H13_4 C27_4 1_555 1_555
C29_4 C28_4 1_555 1_555
C30_4 C29_4 1_555 1_555
H14_4 C30_4 1_555 1_555
C31_4 N4_3 1_555 1_555
H15_4 C31_4 1_555 1_555
C32_4 C31_4 1_555 1_555
C33_4 C29_4 1_555 1_555
H16_4 C33_4 1_555 1_555
C34_4 C32_4 1_555 1_555
H18_4 C38_4 1_555 1_555
C39_4 C34_4 1_555 1_555
H19_4 C39_4 1_555 1_555
C27_4 C28_4 1_555 1_555
C32_4 C33_4 1_555 1_555
C38_4 C39_4 1_555 1_555
Zn6 O2_4 1_555 1_555
O17_3 C22_4 1_555 1_555
O18_3 C40_4 1_555 1_555
O13_4 Zn6 1_555 1_555
O14_4 Zn4_2 1_555 1_555
C22_4 C23_4 1_555 1_555
C23_4 C24_4 1_555 1_555
C24_4 H11_4 1_555 1_555
C25_4 C24_4 1_555 1_555
C36_4 C35_4 1_555 1_555
H17_4 C36_4 1_555 1_555
C37_4 C36_4 1_555 1_555
C41_4 O13_4 1_555 1_555
O15_4 H20_3 1_555 1_555
C42_4 C25_4 1_555 1_555
O16_3 C42_4 1_555 1_555
Zn6 O14_4 1_555 1_555
O14_4 C41_4 1_555 1_555
C35_4 C40_4 1_555 1_555
C37_4 C41_4 1_555 1_555
O15_4 C42_4 1_555 1_555
Zn4_4 O1_4 1_555 1_555
O1_4 C1_4 1_555 1_555
O3_4 Zn4_4 1_555 1_555
O5_4 C20_4 1_555 1_555
O6_4 C20_4 1_555 1_555
N3 C9_4 1_555 1_555
C1_4 C2_4 1_555 1_555
C2_4 C3_4 1_555 1_555
C3_4 H1_4 1_555 1_555
C4_4 C3_4 1_555 1_555
C5_4 C4_4 1_555 1_555
H2_4 C5_4 1_555 1_555
C6_4 C5_4 1_555 1_555
H3_4 C6_4 1_555 1_555
C7_4 C2_4 1_555 1_555
C8_4 C7_4 1_555 1_555
C9_4 C8_4 1_555 1_555
H4_4 C9_4 1_555 1_555
C10_4 N3 1_555 1_555
H5_4 C10_4 1_555 1_555
C11_4 C10_4 1_555 1_555
C12_4 C8_4 1_555 1_555
H6_4 C12_4 1_555 1_555
C13_4 C11_4 1_555 1_555
C14_4 C13_4 1_555 1_555
C15_4 C14_4 1_555 1_555
H7_4 C15_4 1_555 1_555
C16_4 C15_4 1_555 1_555
C17_4 C16_4 1_555 1_555
H8_4 C17_4 1_555 1_555
C18_4 C13_4 1_555 1_555
H9_4 C18_4 1_555 1_555
C19_4 O3_4 1_555 1_555
C20_4 C16_4 1_555 1_555
C21_4 C4_4 1_555 1_555
O8_3 C21_4 1_555 1_555
Zn5_12 O6_4 1_555 1_555
O4_4 C19_4 1_555 1_555
C6_4 C7_4 1_555 1_555
C11_4 C12_4 1_555 1_555
C14_4 C19_4 1_555 1_555
C17_4 C18_4 1_555 1_555
O7_4 C21_4 1_555 1_555
N2_2 C30_5 1_555 1_555
H14_5 C30_5 1_555 1_555
Zn6_2 N2_2 1_555 1_555
O9_2 C22_5 1_555 1_555
O10_5 C22_5 1_555 1_555
C22_5 C23_5 1_555 1_555
C23_5 C24_5 1_555 1_555
C24_5 H11_5 1_555 1_555
C25_5 C24_5 1_555 1_555
C26_5 C25_5 1_555 1_555
H12_5 C26_5 1_555 1_555
C27_5 C26_5 1_555 1_555
H13_5 C27_5 1_555 1_555
C28_5 C23_5 1_555 1_555
C29_5 C28_5 1_555 1_555
C33_5 C29_5 1_555 1_555
H16_5 C33_5 1_555 1_555
O15_5 H20_4 1_555 1_555
C42_5 C25_5 1_555 1_555
O16_4 C42_5 1_555 1_555
Zn5_10 O9_2 1_555 1_555
C27_5 C28_5 1_555 1_555
O15_5 C42_5 1_555 1_555
Zn5_12 O1_5 1_555 1_555
Zn2_4 O2_5 1_555 1_555
O1_5 C1_5 1_555 1_555
O2_5 C1_5 1_555 1_555
O3_5 Zn5_12 1_555 1_555
O4_5 Zn2_4 1_555 1_555
O19_3 C20_5 1_555 1_555
O21_2 C20_5 1_555 1_555
N1_4 C9_5 1_555 1_555
C1_5 C2_5 1_555 1_555
C2_5 C3_5 1_555 1_555
C3_5 H1_5 1_555 1_555
C4_5 C3_5 1_555 1_555
C5_5 C4_5 1_555 1_555
H2_5 C5_5 1_555 1_555
C6_5 C5_5 1_555 1_555
H3_5 C6_5 1_555 1_555
C7_5 C2_5 1_555 1_555
C8_5 C7_5 1_555 1_555
C9_5 C8_5 1_555 1_555
H4_5 C9_5 1_555 1_555
C10_5 N1_4 1_555 1_555
H5_5 C10_5 1_555 1_555
C11_5 C10_5 1_555 1_555
C12_5 C8_5 1_555 1_555
H6_5 C12_5 1_555 1_555
C13_5 C11_5 1_555 1_555
C14_5 C13_5 1_555 1_555
C15_5 C14_5 1_555 1_555
H7_5 C15_5 1_555 1_555
C16_5 C15_5 1_555 1_555
C17_5 C16_5 1_555 1_555
H8_5 C17_5 1_555 1_555
C18_5 C13_5 1_555 1_555
H9_5 C18_5 1_555 1_555
C19_5 O3_5 1_555 1_555
C20_5 C16_5 1_555 1_555
C21_5 C4_5 1_555 1_555
O11_2 C40_5 1_555 1_555
O12_5 Zn8_3 1_555 1_555
O13_5 Zn2_4 1_555 1_555
O14_5 Zn5_12 1_555 1_555
C34_5 C32_5 1_555 1_555
C35_5 C34_5 1_555 1_555
C36_5 C35_5 1_555 1_555
H17_5 C36_5 1_555 1_555
C37_5 C36_5 1_555 1_555
C38_5 C37_5 1_555 1_555
H18_5 C38_5 1_555 1_555
C39_5 C34_5 1_555 1_555
H19_5 C39_5 1_555 1_555
C40_5 O12_5 1_555 1_555
C41_5 O13_5 1_555 1_555
Zn8_4 N1_4 1_555 1_555
O17_4 Zn5_12 1_555 1_555
O18_4 Zn5_12 1_555 1_555
N3_2 Zn8_3 1_555 1_555
N4_4 Zn2_4 1_555 1_555
Zn2_4 O14_5 1_555 1_555
O4_5 C19_5 1_555 1_555
C6_5 C7_5 1_555 1_555
C11_5 C12_5 1_555 1_555
C14_5 C19_5 1_555 1_555
C17_5 C18_5 1_555 1_555
O7_5 C21_5 1_555 1_555
O11_2 Zn5_11 1_555 1_555
O14_5 C41_5 1_555 1_555
C35_5 C40_5 1_555 1_555
C37_5 C41_5 1_555 1_555
C38_5 C39_5 1_555 1_555
Zn5_2 O1_6 1_555 1_555
O1_6 C1_6 1_555 1_555
N1_5 C9_6 1_555 1_555
C1_6 C2_6 1_555 1_555
C2_6 C3_6 1_555 1_555
C3_6 H1_6 1_555 1_555
C4_6 C3_6 1_555 1_555
C5_6 C4_6 1_555 1_555
H2_6 C5_6 1_555 1_555
C6_6 C5_6 1_555 1_555
H3_6 C6_6 1_555 1_555
C7_6 C2_6 1_555 1_555
C8_6 C7_6 1_555 1_555
C9_6 C8_6 1_555 1_555
H4_6 C9_6 1_555 1_555
C12_6 C8_6 1_555 1_555
H6_6 C12_6 1_555 1_555
C21_6 C4_6 1_555 1_555
O8_4 C21_6 1_555 1_555
Zn8 N1_5 1_555 1_555
C6_6 C7_6 1_555 1_555
O7_6 C21_6 1_555 1_555
O3_6 Zn5_4 1_555 1_555
O19_4 C20_6 1_555 1_555
O21_3 C20_6 1_555 1_555
H5_6 C10_6 1_555 1_555
C11_6 C10_6 1_555 1_555
C13_6 C11_6 1_555 1_555
C14_6 C13_6 1_555 1_555
C15_6 C14_6 1_555 1_555
H7_6 C15_6 1_555 1_555
C16_6 C15_6 1_555 1_555
C17_6 C16_6 1_555 1_555
H8_6 C17_6 1_555 1_555
C18_6 C13_6 1_555 1_555
H9_6 C18_6 1_555 1_555
C19_6 O3_6 1_555 1_555
C20_6 C16_6 1_555 1_555
O4_6 C19_6 1_555 1_555
C14_6 C19_6 1_555 1_555
C17_6 C18_6 1_555 1_555
O18_5 Zn5_5 1_555 1_555
Zn8_4 O10_6 1_555 1_555
O12_6 Zn8_4 1_555 1_555
N4_4 C30_6 1_555 1_555
H12_6 C26_6 1_555 1_555
C27_6 C26_6 1_555 1_555
H13_6 C27_6 1_555 1_555
C29_6 C28_6 1_555 1_555
C30_6 C29_6 1_555 1_555
H14_6 C30_6 1_555 1_555
C31_5 N4_4 1_555 1_555
H15_5 C31_5 1_555 1_555
C32_6 C31_5 1_555 1_555
C33_6 C29_6 1_555 1_555
H16_6 C33_6 1_555 1_555
C34_6 C32_6 1_555 1_555
H18_6 C38_6 1_555 1_555
C39_6 C34_6 1_555 1_555
H19_6 C39_6 1_555 1_555
O17_5 Zn5_7 1_555 1_555
C27_6 C28_6 1_555 1_555
C32_6 C33_6 1_555 1_555
C38_6 C39_6 1_555 1_555
O17_4 C22_6 1_555 1_555
O18_4 C40_6 1_555 1_555
O13_6 Zn2_5 1_555 1_555
O14_6 Zn5_8 1_555 1_555
C22_6 C23_6 1_555 1_555
C23_6 C24_6 1_555 1_555
C24_6 H11_6 1_555 1_555
C25_6 C24_6 1_555 1_555
C36_6 C35_6 1_555 1_555
H17_6 C36_6 1_555 1_555
C37_6 C36_6 1_555 1_555
C41_6 O13_6 1_555 1_555
O15_6 H20_5 1_555 1_555
C42_6 C25_6 1_555 1_555
O16_5 C42_6 1_555 1_555
N4_5 Zn2_5 1_555 1_555
Zn2_5 O14_6 1_555 1_555
O14_6 C41_6 1_555 1_555
C35_6 C40_6 1_555 1_555
C37_6 C41_6 1_555 1_555
O15_6 C42_6 1_555 1_555
Zn5_9 O1_7 1_555 1_555
O1_7 C1_7 1_555 1_555
O3_7 Zn5_9 1_555 1_555
O19 C20_7 1_555 1_555
O20 C20_7 1_555 1_555
C1_7 C2_7 1_555 1_555
C2_7 C3_7 1_555 1_555
C3_7 H1_7 1_555 1_555
C4_7 C3_7 1_555 1_555
C15_7 C14_7 1_555 1_555
H7_7 C15_7 1_555 1_555
C16_7 C15_7 1_555 1_555
C19_7 O3_7 1_555 1_555
C20_7 C16_7 1_555 1_555
O7_7 H10_5 1_555 1_555
C21_7 C4_7 1_555 1_555
O8_5 C21_7 1_555 1_555
O18_5 C40_7 1_555 1_555
O14_7 Zn5_9 1_555 1_555
H15_6 C31_6 1_555 1_555
C32_7 C31_6 1_555 1_555
C34_7 C32_7 1_555 1_555
C35_7 C34_7 1_555 1_555
C36_7 C35_7 1_555 1_555
H17_7 C36_7 1_555 1_555
C37_7 C36_7 1_555 1_555
C38_7 C37_7 1_555 1_555
H18_7 C38_7 1_555 1_555
C39_7 C34_7 1_555 1_555
H19_7 C39_7 1_555 1_555
C40_7 O12_7 1_555 1_555
C41_7 O13_7 1_555 1_555
O17_6 Zn5_9 1_555 1_555
O18_6 Zn5_9 1_555 1_555
C14_7 C19_7 1_555 1_555
O7_7 C21_7 1_555 1_555
O14_7 C41_7 1_555 1_555
C35_7 C40_7 1_555 1_555
C37_7 C41_7 1_555 1_555
C38_7 C39_7 1_555 1_555
Zn2_6 O2_7 1_555 1_555
O4_7 Zn2_6 1_555 1_555
N1_6 C9_7 1_555 1_555
H2_7 C5_7 1_555 1_555
C6_7 C5_7 1_555 1_555
H3_7 C6_7 1_555 1_555
C8_7 C7_7 1_555 1_555
C9_7 C8_7 1_555 1_555
H4_7 C9_7 1_555 1_555
C10_7 N1_6 1_555 1_555
H5_7 C10_7 1_555 1_555
C11_7 C10_7 1_555 1_555
C12_7 C8_7 1_555 1_555
H6_7 C12_7 1_555 1_555
C13_7 C11_7 1_555 1_555
H8_7 C17_7 1_555 1_555
C18_7 C13_7 1_555 1_555
H9_7 C18_7 1_555 1_555
Zn8_2 N1_6 1_555 1_555
N4_6 Zn2_6 1_555 1_555
C6_7 C7_7 1_555 1_555
C11_7 C12_7 1_555 1_555
C17_7 C18_7 1_555 1_555
O17_5 C22_7 1_555 1_555
N4_5 C30_7 1_555 1_555
C22_7 C23_7 1_555 1_555
C23_7 C24_7 1_555 1_555
C24_7 H11_7 1_555 1_555
C25_7 C24_7 1_555 1_555
C26_7 C25_7 1_555 1_555
H12_7 C26_7 1_555 1_555
C27_7 C26_7 1_555 1_555
H13_7 C27_7 1_555 1_555
C28_7 C23_7 1_555 1_555
C29_7 C28_7 1_555 1_555
C30_7 C29_7 1_555 1_555
H14_7 C30_7 1_555 1_555
C33_7 C29_7 1_555 1_555
H16_7 C33_7 1_555 1_555
C42_7 C25_7 1_555 1_555
O16_6 C42_7 1_555 1_555
C27_7 C28_7 1_555 1_555
O15_7 C42_7 1_555 1_555
O3_8 Zn5_10 1_555 1_555
O4_8 Zn6_2 1_555 1_555
O19_2 C20_8 1_555 1_555
O21 C20_8 1_555 1_555
C13_8 C11_8 1_555 1_555
C14_8 C13_8 1_555 1_555
C15_8 C14_8 1_555 1_555
H7_8 C15_8 1_555 1_555
C16_8 C15_8 1_555 1_555
C17_8 C16_8 1_555 1_555
H8_8 C17_8 1_555 1_555
C18_8 C13_8 1_555 1_555
H9_8 C18_8 1_555 1_555
C19_8 O3_8 1_555 1_555
C20_8 C16_8 1_555 1_555
Zn8_2 O10_8 1_555 1_555
O17_6 C22_8 1_555 1_555
O10_8 C22_8 1_555 1_555
O18_6 C40_8 1_555 1_555
O12_8 Zn8_2 1_555 1_555
O13_8 Zn6_2 1_555 1_555
O14_8 Zn5_10 1_555 1_555
N4_6 C30_8 1_555 1_555
C22_8 C23_8 1_555 1_555
C23_8 C24_8 1_555 1_555
C24_8 H11_8 1_555 1_555
C25_8 C24_8 1_555 1_555
C26_8 C25_8 1_555 1_555
H12_8 C26_8 1_555 1_555
C27_8 C26_8 1_555 1_555
H13_8 C27_8 1_555 1_555
C28_8 C23_8 1_555 1_555
C29_8 C28_8 1_555 1_555
C30_8 C29_8 1_555 1_555
H14_8 C30_8 1_555 1_555
C31_7 N4_6 1_555 1_555
H15_7 C31_7 1_555 1_555
C32_8 C31_7 1_555 1_555
C33_8 C29_8 1_555 1_555
H16_8 C33_8 1_555 1_555
C34_8 C32_8 1_555 1_555
C35_8 C34_8 1_555 1_555
C36_8 C35_8 1_555 1_555
H17_8 C36_8 1_555 1_555
C37_8 C36_8 1_555 1_555
C38_8 C37_8 1_555 1_555
H18_8 C38_8 1_555 1_555
C39_8 C34_8 1_555 1_555
H19_8 C39_8 1_555 1_555
C40_8 O12_8 1_555 1_555
C41_8 O13_8 1_555 1_555
C42_8 C25_8 1_555 1_555
Zn6_2 O14_8 1_555 1_555
O4_8 C19_8 1_555 1_555
C14_8 C19_8 1_555 1_555
C17_8 C18_8 1_555 1_555
O14_8 C41_8 1_555 1_555
C27_8 C28_8 1_555 1_555
C32_8 C33_8 1_555 1_555
C35_8 C40_8 1_555 1_555
C37_8 C41_8 1_555 1_555
C38_8 C39_8 1_555 1_555
O15_8 C42_8 1_555 1_555
Zn5_11 O1_8 1_555 1_555
O1_8 C1_8 1_555 1_555
O2_8 C1_8 1_555 1_555
C1_8 C2_8 1_555 1_555
C2_8 C3_8 1_555 1_555
C3_8 H1_8 1_555 1_555
C4_8 C3_8 1_555 1_555
C5_8 C4_8 1_555 1_555
H2_8 C5_8 1_555 1_555
C6_8 C5_8 1_555 1_555
H3_8 C6_8 1_555 1_555
C7_8 C2_8 1_555 1_555
C8_8 C7_8 1_555 1_555
C12_8 C8_8 1_555 1_555
H6_8 C12_8 1_555 1_555
O7_8 H10_6 1_555 1_555
C21_8 C4_8 1_555 1_555
O8_6 C21_8 1_555 1_555
C6_8 C7_8 1_555 1_555
O7_8 C21_8 1_555 1_555
N3_2 C9_8 1_555 1_555
H4_8 C9_8 1_555 1_555
H15_8 C31_8 1_555 1_555
H5_8 C10_8 1_555 1_555

#END
