
###############################################################################
#
# This file contains modified crystal structure data generated from the
# MOF subset of the Cambridge Structural Database (CSD) v543 
# hosted by the Cambridge Crystallographic Data Centre (CCDC).
#
# This work is licensed under the Creative Commons
# Attribution-NonCommercial-ShareAlike 4.0 International License.
# To view a copy of this license, visit
# http://creativecommons.org/licenses/by-nc-sa/4.0/
# or send a letter to
# Creative Commons, PO Box 1866, Mountain View, CA 94042, USA.
#
# CIF created using the CSD Python API on 29 September 2022
# The structure has been converted into the P1 space group
# The structure has a 3D framework
# The original CSD entry ONIRIP is in the monoclinic crystal system
# The framework has been calculated to contain at least 10.0% void space
# The void calculation uses a probe of radius 1.32A, grid spacing 0.4
# H atom positions have been added when not included in the experimental data
#
###############################################################################

data_ONIRIP
_chemical_formula_moiety         '(C432 H280 Cd16 I30 N48 Na6 O72 2+)n'
_symmetry_cell_setting           triclinic
_symmetry_space_group_name_H-M   'P 1'
_symmetry_Int_Tables_number      1
_space_group_name_Hall           'P 1'
loop_
_symmetry_equiv_pos_site_id
_symmetry_equiv_pos_as_xyz
1 x,y,z
_cell_length_a                   22.399(3)
_cell_length_b                   23.923(3)
_cell_length_c                   24.578(3)
_cell_angle_alpha                90
_cell_angle_beta                 94.310(3)
_cell_angle_gamma                90
_cell_volume                     13132.9
loop_
_atom_site_label
_atom_site_type_symbol
_atom_site_fract_x
_atom_site_fract_y
_atom_site_fract_z
N1 N 0.0235(5) 0.6888(6) 0.0346(5)
N2 N 0.0740(5) 0.7081(5) 0.1146(4)
C13 C 0.0762(7) 0.7068(6) 0.0617(6)
H8 H 0.109827 0.716899 0.044008
C26 C 0.0166(7) 0.6883(7) 0.1252(6)
H21 H 0.012497 0.688503 0.206618
Cd4 Cd 0.14888(5) 0.74530(5) 0.17226(4)
N3 N 0.1002(6) 0.6321(5) 0.8650(5)
N5 N 0.1722(6) 0.6282(6) 0.8070(5)
C3 C 0.0148(7) 0.6822(6) 0.9776(5)
C7 C 0.0011(7) 0.6744(7) 0.8636(6)
C12 C 0.0618(7) 0.6607(7) 0.9504(6)
H7 H 0.097367 0.649949 0.969478
C14 C 0.0544(6) 0.6554(7) 0.8935(6)
C28 C 0.1266(6) 0.6549(7) 0.8220(6)
H14 H 0.112592 0.687521 0.804822
C30 C 0.1346(8) 0.5836(7) 0.8794(7)
C42 C 0.1784(7) 0.5810(7) 0.8416(7)
C48 C 0.2180(10) 0.5379(10) 0.8425(9)
H27 H 0.245943 0.534767 0.816482
C50 C 0.1266(10) 0.5404(9) 0.9181(8)
H29 H 0.094771 0.540254 0.940328
C53 C 0.1688(12) 0.4994(10) 0.9202(9)
H32 H 0.166994 0.471360 0.946223
C54 C 0.2148(10) 0.4977(9) 0.8849(9)
H33 H 0.243825 0.469860 0.889161
Cd6 Cd 0.24443(5) 0.66652(5) 0.75703(4)
Cd1 Cd 0.14888(5) 0.25470(5) 0.67226(4)
Cd2 Cd 0.75557(5) 0.66652(5) 0.74297(4)
O1 O 0.6791(4) 0.2788(5) 0.2675(4)
O2 O 0.5849(5) 0.2720(5) 0.2345(4)
O3 O 0.2125(5) 0.2700(5) 0.6019(4)
O4 O 0.6458(6) 0.6671(5) 0.6363(5)
O5 O 0.2605(5) 0.2433(5) 0.6797(4)
O6 O 0.6817(5) 0.6135(5) 0.7048(4)
N4 N 0.9027(6) 0.7142(6) 0.8652(5)
N6 N 0.8227(6) 0.7085(6) 0.8035(5)
O7 O 0.7533(7) 0.5929(6) 0.8077(5)
C1 C 0.9634(6) 0.7006(7) 0.9496(5)
H1 H 0.932667 0.715155 0.968726
C2 C 0.4912(6) 0.3366(6) 0.4953(6)
H2 H 0.473265 0.306656 0.476171
C4 C 0.5386(6) 0.3661(6) 0.4739(5)
C5 C 0.5207(7) 0.3329(7) 0.3775(6)
H3 H 0.479806 0.337121 0.380645
C6 C 0.5638(6) 0.4114(6) 0.5019(5)
H4 H 0.593860 0.431618 0.486583
H5 H 0.996238 0.671305 0.825819
C8 C 0.3714(7) 0.3066(6) 0.5331(6)
H6 H 0.372489 0.310208 0.495535
C9 C 0.5614(7) 0.3463(7) 0.4211(6)
C10 C 0.9566(7) 0.6977(7) 0.8935(6)
C11 C 0.5457(7) 0.4274(6) 0.5518(5)
C15 C 0.4209(7) 0.3239(7) 0.5673(6)
C16 C 0.6245(7) 0.5714(7) 0.6319(6)
C17 C 0.6224(6) 0.2848(7) 0.2727(6)
C19 C 0.5415(7) 0.3130(7) 0.3289(6)
H9 H 0.514478 0.303401 0.299869
C20 C 0.8657(7) 0.7609(7) 0.8753(7)
C21 C 0.3220(7) 0.2847(7) 0.5535(6)
H10 H 0.289677 0.274022 0.529771
C22 C 0.5735(6) 0.4772(6) 0.5804(5)
C23 C 0.8731(7) 0.6822(8) 0.8228(6)
H11 H 0.886384 0.648050 0.810120
C24 C 0.6154(8) 0.5225(7) 0.6633(6)
H12 H 0.625712 0.521684 0.700708
C25 C 0.6021(6) 0.3075(6) 0.3240(6)
C27 C 0.6070(7) 0.5711(7) 0.5782(7)
H13 H 0.612179 0.603156 0.557674
C29 C 0.6211(7) 0.3389(7) 0.4166(6)
H15 H 0.648561 0.347301 0.445705
C31 C 0.4713(7) 0.3529(7) 0.5459(6)
C32 C 0.5906(8) 0.4761(8) 0.6362(6)
H16 H 0.585313 0.443397 0.655740
C33 C 0.4983(6) 0.3982(7) 0.5745(6)
H17 H 0.485227 0.408972 0.607938
C34 C 0.8158(8) 0.7561(7) 0.8354(7)
C35 C 0.2599(7) 0.2622(6) 0.6317(6)
C36 C 0.4174(7) 0.3174(8) 0.6241(6)
H18 H 0.448767 0.329053 0.648411
C37 C 0.3654(7) 0.2929(7) 0.6438(6)
H19 H 0.363752 0.287201 0.681128
C38 C 0.6411(7) 0.3181(7) 0.3671(6)
H20 H 0.681685 0.311702 0.364430
C39 C 0.6538(6) 0.6219(7) 0.6595(6)
C41 C 0.3190(7) 0.2780(7) 0.6100(6)
C43 C 0.8725(8) 0.8041(8) 0.9093(7)
H22 H 0.906198 0.807384 0.933630
C44 C 0.5819(7) 0.5254(7) 0.5534(6)
H23 H 0.570084 0.527173 0.516387
C47 C 0.7731(8) 0.7972(9) 0.8312(9)
H26 H 0.741573 0.795964 0.804270
C49 C 0.8288(9) 0.8430(11) 0.9072(11)
H28 H 0.831521 0.872527 0.931940
C52 C 0.7785(10) 0.8401(11) 0.8681(12)
H31 H 0.749124 0.867591 0.867712
O8 O 0.1753(5) 0.3787(5) 0.7091(4)
O9 O 0.1667(8) 0.3411(7) 0.7068(7)
Cd3 Cd 0.64888(5) 0.75470(5) 0.67226(4)
Cd5 Cd 0.64888(5) 0.24530(5) 0.17226(4)
Cd7 Cd 0.25557(5) 0.16652(5) 0.74297(4)
Cd8 Cd 0.75557(5) 0.33348(5) 0.24297(4)
O10 O 0.6791(4) 0.7212(5) 0.7675(4)
O11 O 0.1791(4) 0.2212(5) 0.7675(4)
O12 O 0.0849(5) 0.2280(5) 0.7345(4)
O13 O 0.1458(6) 0.1671(5) 0.6363(5)
N7 N 0.0740(5) 0.2919(5) 0.6146(4)
O14 O 0.7605(5) 0.7433(5) 0.6797(4)
N8 N 0.8278(6) 0.6282(6) 0.6930(5)
H34 H 0.761375 0.556787 0.789736
H35 H 0.784345 0.599606 0.838
O1_2 O 0.3209(4) 0.2788(5) 0.2325(4)
O2_2 O 0.4151(5) 0.2720(5) 0.2655(4)
C2_2 C 0.5088(6) 0.3366(6) 0.0047(6)
H2_2 H 0.526735 0.306656 0.023829
C4_2 C 0.4614(6) 0.3661(6) 0.0261(5)
C5_2 C 0.4793(7) 0.3329(7) 0.1225(6)
H3_2 H 0.520194 0.337121 0.119355
H4_2 H 0.406140 0.431618 0.013417
H6_2 H 0.627511 0.310208 0.004465
C9_2 C 0.4386(7) 0.3463(7) 0.0789(6)
C17_2 C 0.3776(6) 0.2848(7) 0.2273(6)
C19_2 C 0.4585(7) 0.3130(7) 0.1711(6)
H9_2 H 0.485522 0.303401 0.200131
C25_2 C 0.3979(6) 0.3075(6) 0.1760(6)
C29_2 C 0.3789(7) 0.3389(7) 0.0834(6)
H15_2 H 0.351439 0.347301 0.054295
C38_2 C 0.3589(7) 0.3181(7) 0.1329(6)
H20_2 H 0.318315 0.311702 0.135570
Cd5_2 Cd 0.35112(5) 0.24530(5) 0.32774(4)
Cd8_2 Cd 0.24443(5) 0.33348(5) 0.25703(4)
Cd1_2 Cd 0.85112(5) 0.25470(5) 0.82774(4)
O3_2 O 0.7875(5) 0.2700(5) 0.8981(4)
O4_2 O 0.3542(6) 0.6671(5) 0.8637(5)
O5_2 O 0.7395(5) 0.2433(5) 0.8203(4)
O6_2 O 0.3183(5) 0.6135(5) 0.7952(4)
N4_2 N 0.0973(6) 0.7142(6) 0.6348(5)
N6_2 N 0.1773(6) 0.7085(6) 0.6965(5)
O7_2 O 0.2467(7) 0.5929(6) 0.6923(5)
C1_2 C 0.0366(6) 0.7006(7) 0.5504(5)
H1_2 H 0.067333 0.715155 0.531274
C6_2 C 0.4362(6) 0.4114(6) 0.9981(5)
H5_2 H 0.003762 0.671305 0.674181
C8_2 C 0.6286(7) 0.3066(6) 0.9669(6)
C10_2 C 0.0434(7) 0.6977(7) 0.6065(6)
C11_2 C 0.4543(7) 0.4274(6) 0.9482(5)
C15_2 C 0.5791(7) 0.3239(7) 0.9327(6)
C16_2 C 0.3755(7) 0.5714(7) 0.8681(6)
C18 C 0.0153(7) 0.6758(8) 0.4257(6)
C20_2 C 0.1343(7) 0.7609(7) 0.6247(7)
C21_2 C 0.6780(7) 0.2847(7) 0.9465(6)
H10_2 H 0.710323 0.274022 0.970229
C22_2 C 0.4265(6) 0.4772(6) 0.9196(5)
C23_2 C 0.1269(7) 0.6822(8) 0.6772(6)
H11_2 H 0.113616 0.648050 0.689880
C24_2 C 0.3846(8) 0.5225(7) 0.8367(6)
H12_2 H 0.374288 0.521684 0.799292
C27_2 C 0.3930(7) 0.5711(7) 0.9218(7)
H13_2 H 0.387821 0.603156 0.942326
C31_2 C 0.5287(7) 0.3529(7) 0.9541(6)
C32_2 C 0.4094(8) 0.4761(8) 0.8638(6)
H16_2 H 0.414687 0.443397 0.844260
C33_2 C 0.5017(6) 0.3982(7) 0.9255(6)
H17_2 H 0.514773 0.408972 0.892062
C34_2 C 0.1842(8) 0.7561(7) 0.6646(7)
C35_2 C 0.7401(7) 0.2622(6) 0.8683(6)
C36_2 C 0.5826(7) 0.3174(8) 0.8759(6)
H18_2 H 0.551233 0.329053 0.851589
C37_2 C 0.6346(7) 0.2929(7) 0.8562(6)
H19_2 H 0.636248 0.287201 0.818872
C39_2 C 0.3462(6) 0.6219(7) 0.8405(6)
C40 C 0.0087(8) 0.6803(7) 0.3264(6)
C41_2 C 0.6810(7) 0.2780(7) 0.8900(6)
C43_2 C 0.1275(8) 0.8041(8) 0.5907(7)
H22_2 H 0.093802 0.807384 0.566370
C44_2 C 0.4181(7) 0.5254(7) 0.9466(6)
H23_2 H 0.429916 0.527173 0.983613
C45 C 0.0713(8) 0.6553(9) 0.4284(6)
H24 H 0.090483 0.643969 0.461363
C46 C 0.0661(9) 0.6600(9) 0.3280(7)
H25 H 0.083292 0.651496 0.295656
C47_2 C 0.2269(8) 0.7972(9) 0.6688(9)
H26_2 H 0.258427 0.795964 0.695730
C49_2 C 0.1712(9) 0.8430(11) 0.5928(11)
H28_2 H 0.168479 0.872527 0.568060
C51 C 0.0997(10) 0.6518(10) 0.3795(8)
H30 H 0.140432 0.644089 0.380485
C52_2 C 0.2215(10) 0.8401(11) 0.6319(12)
H31_2 H 0.250876 0.867591 0.632288
O8_2 O 0.8247(5) 0.3787(5) 0.7909(4)
O9_2 O 0.8333(8) 0.3411(7) 0.7932(7)
Cd3_2 Cd 0.35112(5) 0.75470(5) 0.82774(4)
Cd7_2 Cd 0.74443(5) 0.16652(5) 0.75703(4)
O10_2 O 0.3209(4) 0.7212(5) 0.7325(4)
O11_2 O 0.8209(4) 0.2212(5) 0.7325(4)
O12_2 O 0.9151(5) 0.2280(5) 0.7655(4)
O13_2 O 0.8542(6) 0.1671(5) 0.8637(5)
N7_2 N 0.9260(5) 0.2919(5) 0.8854(4)
O14_2 O 0.2395(5) 0.7433(5) 0.8203(4)
H34_2 H 0.238625 0.556787 0.710264
H35_2 H 0.215655 0.599606 0.662
N1_2 N 0.9765(5) 0.6888(6) 0.4654(5)
N2_2 N 0.9260(5) 0.7081(5) 0.3854(4)
N3_2 N 0.8998(6) 0.6321(5) 0.6350(5)
C3_2 C 0.9852(7) 0.6822(6) 0.5224(5)
C7_2 C 0.9989(7) 0.6744(7) 0.6364(6)
C12_2 C 0.9382(7) 0.6607(7) 0.5496(6)
H7_2 H 0.902633 0.649949 0.530522
C13_2 C 0.9238(7) 0.7068(6) 0.4383(6)
H8_2 H 0.890173 0.716899 0.455992
C14_2 C 0.9456(6) 0.6554(7) 0.6065(6)
C26_2 C 0.9834(7) 0.6883(7) 0.3748(6)
C28_2 C 0.8734(6) 0.6549(7) 0.6780(6)
H14_2 H 0.887408 0.687521 0.695178
C30_2 C 0.8654(8) 0.5836(7) 0.6206(7)
H21_2 H 0.987503 0.688503 0.293382
C42_2 C 0.8216(7) 0.5810(7) 0.6584(7)
C48_2 C 0.7820(10) 0.5379(10) 0.6575(9)
H27_2 H 0.754057 0.534767 0.683518
C50_2 C 0.8734(10) 0.5404(9) 0.5819(8)
H29_2 H 0.905229 0.540254 0.559672
C53_2 C 0.8312(12) 0.4994(10) 0.5798(9)
H32_2 H 0.833006 0.471360 0.553777
C54_2 C 0.7852(10) 0.4977(9) 0.6151(9)
H33_2 H 0.756175 0.469860 0.610839
Cd4_2 Cd 0.85112(5) 0.74530(5) 0.32774(4)
N1_3 N 0.5235(5) 0.1888(6) 0.0346(5)
N2_3 N 0.5740(5) 0.2081(5) 0.1146(4)
C13_3 C 0.5762(7) 0.2068(6) 0.0617(6)
H8_3 H 0.609827 0.216899 0.044008
C18_2 C 0.4847(7) 0.1758(8) 0.0743(6)
C26_3 C 0.5166(7) 0.1883(7) 0.1252(6)
C40_2 C 0.4913(8) 0.1803(7) 0.1736(6)
H21_3 H 0.512497 0.188503 0.206618
C45_2 C 0.4287(8) 0.1553(9) 0.0716(6)
H24_2 H 0.409517 0.143969 0.038637
C46_2 C 0.4339(9) 0.1600(9) 0.1720(7)
H25_2 H 0.416708 0.151496 0.204344
C51_2 C 0.4003(10) 0.1518(10) 0.1205(8)
H30_2 H 0.359568 0.144089 0.119515
N3_3 N 0.6002(6) 0.1321(5) 0.8650(5)
O6_3 O 0.1817(5) 0.1135(5) 0.7048(4)
N4_3 N 0.4027(6) 0.2142(6) 0.8652(5)
N5_2 N 0.6722(6) 0.1282(6) 0.8070(5)
N6_3 N 0.3227(6) 0.2085(6) 0.8035(5)
O7_3 O 0.2533(7) 0.0929(6) 0.8077(5)
C1_3 C 0.4634(6) 0.2006(7) 0.9496(5)
H1_3 H 0.432667 0.215155 0.968726
C3_3 C 0.5148(7) 0.1822(6) 0.9776(5)
C7_3 C 0.5011(7) 0.1744(7) 0.8636(6)
H5_3 H 0.496238 0.171305 0.825819
C10_3 C 0.4566(7) 0.1977(7) 0.8935(6)
C12_3 C 0.5618(7) 0.1607(7) 0.9504(6)
H7_3 H 0.597367 0.149949 0.969478
C14_3 C 0.5544(6) 0.1554(7) 0.8935(6)
C16_3 C 0.1245(7) 0.0714(7) 0.6319(6)
C20_3 C 0.3657(7) 0.2609(7) 0.8753(7)
C23_3 C 0.3731(7) 0.1822(8) 0.8228(6)
H11_3 H 0.386384 0.148050 0.810120
C24_3 C 0.1154(8) 0.0225(7) 0.6633(6)
H12_3 H 0.125712 0.021684 0.700708
C27_3 C 0.1070(7) 0.0711(7) 0.5782(7)
H13_3 H 0.112179 0.103156 0.557674
C28_3 C 0.6266(6) 0.1549(7) 0.8220(6)
H14_3 H 0.612592 0.187521 0.804822
C30_3 C 0.6346(8) 0.0836(7) 0.8794(7)
C34_3 C 0.3158(8) 0.2561(7) 0.8354(7)
C39_3 C 0.1538(6) 0.1219(7) 0.6595(6)
C42_3 C 0.6784(7) 0.0810(7) 0.8416(7)
C43_3 C 0.3725(8) 0.3041(8) 0.9093(7)
H22_3 H 0.406198 0.307384 0.933630
C44_3 C 0.0819(7) 0.0254(7) 0.5534(6)
H23_3 H 0.070084 0.027173 0.516387
C47_3 C 0.2731(8) 0.2972(9) 0.8312(9)
H26_3 H 0.241573 0.295964 0.804270
C48_3 C 0.7180(10) 0.0379(10) 0.8425(9)
H27_3 H 0.745943 0.034767 0.816482
C49_3 C 0.3288(9) 0.3430(11) 0.9072(11)
H28_3 H 0.331521 0.372527 0.931940
C50_3 C 0.6266(10) 0.0404(9) 0.9181(8)
H29_3 H 0.594771 0.040254 0.940328
C52_3 C 0.2785(10) 0.3401(11) 0.8681(12)
H31_3 H 0.249124 0.367591 0.867712
N8_2 N 0.3278(6) 0.1282(6) 0.6930(5)
H34_3 H 0.261375 0.0567869 0.789736
H35_3 H 0.284345 0.0996058 0.838
O1_3 O 0.1791(4) 0.7788(5) 0.2675(4)
O2_3 O 0.0849(5) 0.7720(5) 0.2345(4)
C4_3 C 0.0386(6) 0.8661(6) 0.4739(5)
C5_3 C 0.0207(7) 0.8329(7) 0.3775(6)
C6_3 C 0.0638(6) 0.9114(6) 0.5019(5)
H4_3 H 0.093860 0.931618 0.486583
C9_3 C 0.0614(7) 0.8463(7) 0.4211(6)
C11_3 C 0.0457(7) 0.9274(6) 0.5518(5)
C17_3 C 0.1224(6) 0.7848(7) 0.2727(6)
C19_3 C 0.0415(7) 0.8130(7) 0.3289(6)
H9_3 H 0.014478 0.803401 0.299869
C22_3 C 0.0735(6) 0.9772(6) 0.5804(5)
C25_3 C 0.1021(6) 0.8075(6) 0.3240(6)
C29_3 C 0.1211(7) 0.8389(7) 0.4166(6)
H15_3 H 0.148561 0.847301 0.445705
C32_3 C 0.0906(8) 0.9761(8) 0.6362(6)
H16_3 H 0.085313 0.943397 0.655740
C38_3 C 0.1411(7) 0.8181(7) 0.3671(6)
H20_3 H 0.181685 0.811702 0.364430
C53_3 C 0.6688(12) 0.9994(10) 0.9202(9)
H32_3 H 0.666994 0.971360 0.946223
C54_3 C 0.7148(10) 0.9977(9) 0.8849(9)
H33_3 H 0.743825 0.969860 0.889161
Cd8_3 Cd 0.25557(5) 0.83348(5) 0.24297(4)
O3_3 O 0.7125(5) 0.7700(5) 0.6019(4)
C2_3 C 0.9912(6) 0.8366(6) 0.4953(6)
H2_3 H 0.973265 0.806656 0.476171
H3_3 H 0.979806 0.837121 0.380645
C8_3 C 0.8714(7) 0.8066(6) 0.5331(6)
H6_3 H 0.872489 0.810208 0.495535
C15_3 C 0.9209(7) 0.8239(7) 0.5673(6)
C21_3 C 0.8220(7) 0.7847(7) 0.5535(6)
H10_3 H 0.789677 0.774022 0.529771
C31_3 C 0.9713(7) 0.8529(7) 0.5459(6)
C33_3 C 0.9983(6) 0.8982(7) 0.5745(6)
H17_3 H 0.985227 0.908972 0.607938
C35_3 C 0.7599(7) 0.7622(6) 0.6317(6)
C36_3 C 0.9174(7) 0.8174(8) 0.6241(6)
H18_3 H 0.948767 0.829053 0.648411
C37_3 C 0.8654(7) 0.7929(7) 0.6438(6)
H19_3 H 0.863752 0.787201 0.681128
C41_3 C 0.8190(7) 0.7780(7) 0.6100(6)
O8_3 O 0.6753(5) 0.8787(5) 0.7091(4)
O9_3 O 0.6667(8) 0.8411(7) 0.7068(7)
O12_3 O 0.5849(5) 0.7280(5) 0.7345(4)
N7_3 N 0.5740(5) 0.7919(5) 0.6146(4)
O3_4 O 0.2875(5) 0.7700(5) 0.8981(4)
C8_4 C 0.1286(7) 0.8066(6) 0.9669(6)
C15_4 C 0.0791(7) 0.8239(7) 0.9327(6)
C21_4 C 0.1780(7) 0.7847(7) 0.9465(6)
H10_4 H 0.210323 0.774022 0.970229
C31_4 C 0.0287(7) 0.8529(7) 0.9541(6)
C33_4 C 0.0017(6) 0.8982(7) 0.9255(6)
H17_4 H 0.014773 0.908972 0.892062
C35_4 C 0.2401(7) 0.7622(6) 0.8683(6)
C36_4 C 0.0826(7) 0.8174(8) 0.8759(6)
H18_4 H 0.051233 0.829053 0.851589
C37_4 C 0.1346(7) 0.7929(7) 0.8562(6)
H19_4 H 0.136248 0.787201 0.818872
C41_4 C 0.1810(7) 0.7780(7) 0.8900(6)
O8_4 O 0.3247(5) 0.8787(5) 0.7909(4)
O9_4 O 0.3333(8) 0.8411(7) 0.7932(7)
O12_4 O 0.4151(5) 0.7280(5) 0.7655(4)
N7_4 N 0.4260(5) 0.7919(5) 0.8854(4)
N1_4 N 0.4765(5) 0.1888(6) 0.4654(5)
N2_4 N 0.4260(5) 0.2081(5) 0.3854(4)
N3_4 N 0.3998(6) 0.1321(5) 0.6350(5)
O6_4 O 0.8183(5) 0.1135(5) 0.7952(4)
N4_4 N 0.5973(6) 0.2142(6) 0.6348(5)
N6_4 N 0.6773(6) 0.2085(6) 0.6965(5)
O7_4 O 0.7467(7) 0.0929(6) 0.6923(5)
C1_4 C 0.5366(6) 0.2006(7) 0.5504(5)
H1_4 H 0.567333 0.215155 0.531274
C3_4 C 0.4852(7) 0.1822(6) 0.5224(5)
C7_4 C 0.4989(7) 0.1744(7) 0.6364(6)
H5_4 H 0.503762 0.171305 0.674181
C10_4 C 0.5434(7) 0.1977(7) 0.6065(6)
C12_4 C 0.4382(7) 0.1607(7) 0.5496(6)
H7_4 H 0.402633 0.149949 0.530522
C13_4 C 0.4238(7) 0.2068(6) 0.4383(6)
H8_4 H 0.390173 0.216899 0.455992
C14_4 C 0.4456(6) 0.1554(7) 0.6065(6)
C16_4 C 0.8755(7) 0.0714(7) 0.8681(6)
C18_3 C 0.5153(7) 0.1758(8) 0.4257(6)
C20_4 C 0.6343(7) 0.2609(7) 0.6247(7)
C23_4 C 0.6269(7) 0.1822(8) 0.6772(6)
H11_4 H 0.613616 0.148050 0.689880
C24_4 C 0.8846(8) 0.0225(7) 0.8367(6)
H12_4 H 0.874288 0.021684 0.799292
C26_4 C 0.4834(7) 0.1883(7) 0.3748(6)
C27_4 C 0.8930(7) 0.0711(7) 0.9218(7)
H13_4 H 0.887821 0.103156 0.942326
C28_4 C 0.3734(6) 0.1549(7) 0.6780(6)
H14_4 H 0.387408 0.187521 0.695178
C30_4 C 0.3654(8) 0.0836(7) 0.6206(7)
C34_4 C 0.6842(8) 0.2561(7) 0.6646(7)
C39_4 C 0.8462(6) 0.1219(7) 0.8405(6)
C40_3 C 0.5087(8) 0.1803(7) 0.3264(6)
H21_4 H 0.487503 0.188503 0.293382
C42_4 C 0.3216(7) 0.0810(7) 0.6584(7)
C43_4 C 0.6275(8) 0.3041(8) 0.5907(7)
H22_4 H 0.593802 0.307384 0.566370
C44_4 C 0.9181(7) 0.0254(7) 0.9466(6)
H23_4 H 0.929916 0.027173 0.983613
C45_3 C 0.5713(8) 0.1553(9) 0.4284(6)
H24_3 H 0.590483 0.143969 0.461363
C46_3 C 0.5661(9) 0.1600(9) 0.3280(7)
H25_3 H 0.583292 0.151496 0.295656
C47_4 C 0.7269(8) 0.2972(9) 0.6688(9)
H26_4 H 0.758427 0.295964 0.695730
C48_4 C 0.2820(10) 0.0379(10) 0.6575(9)
H27_4 H 0.254057 0.034767 0.683518
C49_4 C 0.6712(9) 0.3430(11) 0.5928(11)
H28_4 H 0.668479 0.372527 0.568060
C50_4 C 0.3734(10) 0.0404(9) 0.5819(8)
H29_4 H 0.405229 0.040254 0.559672
C51_3 C 0.5997(10) 0.1518(10) 0.3795(8)
H30_3 H 0.640432 0.144089 0.380485
C52_4 C 0.7215(10) 0.3401(11) 0.6319(12)
H31_4 H 0.750876 0.367591 0.632288
H34_4 H 0.738625 0.0567869 0.710264
H35_4 H 0.715655 0.0996058 0.662
O1_4 O 0.8209(4) 0.7788(5) 0.2325(4)
O2_4 O 0.9151(5) 0.7720(5) 0.2655(4)
C4_4 C 0.9614(6) 0.8661(6) 0.0261(5)
C5_4 C 0.9793(7) 0.8329(7) 0.1225(6)
H4_4 H 0.906140 0.931618 0.013417
C9_4 C 0.9386(7) 0.8463(7) 0.0789(6)
C17_4 C 0.8776(6) 0.7848(7) 0.2273(6)
C19_4 C 0.9585(7) 0.8130(7) 0.1711(6)
H9_4 H 0.985522 0.803401 0.200131
C25_4 C 0.8979(6) 0.8075(6) 0.1760(6)
C29_4 C 0.8789(7) 0.8389(7) 0.0834(6)
H15_4 H 0.851439 0.847301 0.054295
C38_4 C 0.8589(7) 0.8181(7) 0.1329(6)
H20_4 H 0.818315 0.811702 0.135570
Cd8_4 Cd 0.74443(5) 0.83348(5) 0.25703(4)
O3_5 O 0.7875(5) 0.7300(5) 0.3981(4)
O4_3 O 0.3542(6) 0.3329(5) 0.3637(5)
O5_3 O 0.7395(5) 0.7567(5) 0.3203(4)
O6_5 O 0.3183(5) 0.3865(5) 0.2952(4)
N4_5 N 0.0973(6) 0.2858(6) 0.1348(5)
N6_5 N 0.1773(6) 0.2915(6) 0.1965(5)
O7_5 O 0.2467(7) 0.4071(6) 0.1923(5)
C1_5 C 0.0366(6) 0.2994(7) 0.0504(5)
H1_5 H 0.067333 0.284845 0.031274
C2_4 C 0.5088(6) 0.6634(6) 0.5047(6)
H2_4 H 0.526735 0.693344 0.523829
C4_5 C 0.4614(6) 0.6339(6) 0.5261(5)
C5_5 C 0.4793(7) 0.6671(7) 0.6225(6)
H3_4 H 0.520194 0.662879 0.619355
C6_4 C 0.4362(6) 0.5886(6) 0.4981(5)
H4_5 H 0.406140 0.568382 0.513417
H5_5 H 0.003762 0.328695 0.174181
C8_5 C 0.6286(7) 0.6934(6) 0.4669(6)
H6_4 H 0.627511 0.689792 0.504465
C9_5 C 0.4386(7) 0.6537(7) 0.5789(6)
C10_5 C 0.0434(7) 0.3023(7) 0.1065(6)
C11_4 C 0.4543(7) 0.5726(6) 0.4482(5)
C15_5 C 0.5791(7) 0.6761(7) 0.4327(6)
C16_5 C 0.3755(7) 0.4286(7) 0.3681(6)
C17_5 C 0.3776(6) 0.7152(7) 0.7273(6)
C19_5 C 0.4585(7) 0.6870(7) 0.6711(6)
H9_5 H 0.485522 0.696599 0.700131
C20_5 C 0.1343(7) 0.2391(7) 0.1247(7)
C21_5 C 0.6780(7) 0.7153(7) 0.4465(6)
H10_5 H 0.710323 0.725978 0.470229
C22_4 C 0.4265(6) 0.5228(6) 0.4196(5)
C23_5 C 0.1269(7) 0.3178(8) 0.1772(6)
H11_5 H 0.113616 0.351950 0.189880
C24_5 C 0.3846(8) 0.4775(7) 0.3367(6)
H12_5 H 0.374288 0.478316 0.299292
C25_5 C 0.3979(6) 0.6925(6) 0.6760(6)
C27_5 C 0.3930(7) 0.4289(7) 0.4218(7)
H13_5 H 0.387821 0.396844 0.442326
C29_5 C 0.3789(7) 0.6611(7) 0.5834(6)
H15_5 H 0.351439 0.652699 0.554295
C31_5 C 0.5287(7) 0.6471(7) 0.4541(6)
C32_4 C 0.4094(8) 0.5239(8) 0.3638(6)
H16_4 H 0.414687 0.556603 0.344260
C33_5 C 0.5017(6) 0.6018(7) 0.4255(6)
H17_5 H 0.514773 0.591028 0.392062
C34_5 C 0.1842(8) 0.2439(7) 0.1646(7)
C35_5 C 0.7401(7) 0.7378(6) 0.3683(6)
C36_5 C 0.5826(7) 0.6826(8) 0.3759(6)
H18_5 H 0.551233 0.670947 0.351589
C37_5 C 0.6346(7) 0.7071(7) 0.3562(6)
H19_5 H 0.636248 0.712799 0.318872
C38_5 C 0.3589(7) 0.6819(7) 0.6329(6)
H20_5 H 0.318315 0.688298 0.635570
C39_5 C 0.3462(6) 0.3781(7) 0.3405(6)
C41_5 C 0.6810(7) 0.7220(7) 0.3900(6)
C43_5 C 0.1275(8) 0.1959(8) 0.0907(7)
H22_5 H 0.093802 0.192616 0.066370
C44_5 C 0.4181(7) 0.4746(7) 0.4466(6)
H23_5 H 0.429916 0.472827 0.483613
C47_5 C 0.2269(8) 0.2028(9) 0.1688(9)
H26_5 H 0.258427 0.204036 0.195730
C49_5 C 0.1712(9) 0.1570(11) 0.0928(11)
H28_5 H 0.168479 0.127473 0.068060
C52_5 C 0.2215(10) 0.1599(11) 0.1319(12)
H31_5 H 0.250876 0.132409 0.132288
O8_5 O 0.8247(5) 0.6213(5) 0.2909(4)
O9_5 O 0.8333(8) 0.6589(7) 0.2932(7)
O13_3 O 0.8542(6) 0.8329(5) 0.3637(5)
O14_3 O 0.2395(5) 0.2567(5) 0.3203(4)
N8_3 N 0.1722(6) 0.3718(6) 0.3070(5)
H34_5 H 0.238625 0.443213 0.210264
H35_5 H 0.215655 0.400394 0.162
N3_5 N 0.8998(6) 0.3679(5) 0.1350(5)
N5_3 N 0.8278(6) 0.3718(6) 0.1930(5)
C3_5 C 0.9852(7) 0.3178(6) 0.0224(5)
C7_5 C 0.9989(7) 0.3256(7) 0.1364(6)
C12_5 C 0.9382(7) 0.3393(7) 0.0496(6)
H7_5 H 0.902633 0.350051 0.030522
C14_5 C 0.9456(6) 0.3446(7) 0.1065(6)
C28_5 C 0.8734(6) 0.3451(7) 0.1780(6)
H14_5 H 0.887408 0.312479 0.195178
C30_5 C 0.8654(8) 0.4164(7) 0.1206(7)
C42_5 C 0.8216(7) 0.4190(7) 0.1584(7)
C48_5 C 0.7820(10) 0.4621(10) 0.1575(9)
H27_5 H 0.754057 0.465233 0.183518
C50_5 C 0.8734(10) 0.4596(9) 0.0819(8)
H29_5 H 0.905229 0.459746 0.059672
C53_4 C 0.8312(12) 0.5006(10) 0.0798(9)
H32_4 H 0.833006 0.528640 0.053777
C54_4 C 0.7852(10) 0.5023(9) 0.1151(9)
H33_4 H 0.756175 0.530140 0.110839
N1_5 N 0.9765(5) 0.3112(6) 0.9654(5)
C13_5 C 0.9238(7) 0.2932(6) 0.9383(6)
H8_5 H 0.890173 0.283101 0.955992
C26_5 C 0.9834(7) 0.3117(7) 0.8748(6)
H21_5 H 0.987503 0.311497 0.793382
N1_6 N 0.0235(5) 0.3112(6) 0.5346(5)
N3_6 N 0.1002(6) 0.3679(5) 0.3650(5)
C3_6 C 0.0148(7) 0.3178(6) 0.4776(5)
C7_6 C 0.0011(7) 0.3256(7) 0.3636(6)
C12_6 C 0.0618(7) 0.3393(7) 0.4504(6)
H7_6 H 0.097367 0.350051 0.469478
C13_6 C 0.0762(7) 0.2932(6) 0.5617(6)
H8_6 H 0.109827 0.283101 0.544008
C14_6 C 0.0544(6) 0.3446(7) 0.3935(6)
C26_6 C 0.0166(7) 0.3117(7) 0.6252(6)
C28_6 C 0.1266(6) 0.3451(7) 0.3220(6)
H14_6 H 0.112592 0.312479 0.304822
C30_6 C 0.1346(8) 0.4164(7) 0.3794(7)
H21_6 H 0.012497 0.311497 0.706618
C42_6 C 0.1784(7) 0.4190(7) 0.3416(7)
C48_6 C 0.2180(10) 0.4621(10) 0.3425(9)
H27_6 H 0.245943 0.465233 0.316482
C50_6 C 0.1266(10) 0.4596(9) 0.4181(8)
H29_6 H 0.094771 0.459746 0.440328
C53_5 C 0.1688(12) 0.5006(10) 0.4202(9)
H32_5 H 0.166994 0.528640 0.446223
C54_5 C 0.2148(10) 0.5023(9) 0.3849(9)
H33_5 H 0.243825 0.530140 0.389161
O3_6 O 0.2125(5) 0.7300(5) 0.1019(4)
O4_4 O 0.6458(6) 0.3329(5) 0.1363(5)
O5_4 O 0.2605(5) 0.7567(5) 0.1797(4)
O6_6 O 0.6817(5) 0.3865(5) 0.2048(4)
N4_6 N 0.9027(6) 0.2858(6) 0.3652(5)
N6_6 N 0.8227(6) 0.2915(6) 0.3035(5)
O7_6 O 0.7533(7) 0.4071(6) 0.3077(5)
C1_6 C 0.9634(6) 0.2994(7) 0.4496(5)
H1_6 H 0.932667 0.284845 0.468726
C6_5 C 0.5638(6) 0.5886(6) 0.0019(5)
H5_6 H 0.996238 0.328695 0.325819
C8_6 C 0.3714(7) 0.6934(6) 0.0331(6)
C10_6 C 0.9566(7) 0.3023(7) 0.3935(6)
C11_5 C 0.5457(7) 0.5726(6) 0.0518(5)
C15_6 C 0.4209(7) 0.6761(7) 0.0673(6)
C16_6 C 0.6245(7) 0.4286(7) 0.1319(6)
C18_4 C 0.9847(7) 0.3242(8) 0.5743(6)
C20_6 C 0.8657(7) 0.2391(7) 0.3753(7)
C21_6 C 0.3220(7) 0.7153(7) 0.0535(6)
H10_6 H 0.289677 0.725978 0.029771
C22_5 C 0.5735(6) 0.5228(6) 0.0804(5)
C23_6 C 0.8731(7) 0.3178(8) 0.3228(6)
H11_6 H 0.886384 0.351950 0.310120
C24_6 C 0.6154(8) 0.4775(7) 0.1633(6)
H12_6 H 0.625712 0.478316 0.200708
C27_6 C 0.6070(7) 0.4289(7) 0.0782(7)
H13_6 H 0.612179 0.396844 0.057674
C31_6 C 0.4713(7) 0.6471(7) 0.0459(6)
C32_5 C 0.5906(8) 0.5239(8) 0.1362(6)
H16_5 H 0.585313 0.556603 0.155740
C33_6 C 0.4983(6) 0.6018(7) 0.0745(6)
H17_6 H 0.485227 0.591028 0.107938
C34_6 C 0.8158(8) 0.2439(7) 0.3354(7)
C35_6 C 0.2599(7) 0.7378(6) 0.1317(6)
C36_6 C 0.4174(7) 0.6826(8) 0.1241(6)
H18_6 H 0.448767 0.670947 0.148411
C37_6 C 0.3654(7) 0.7071(7) 0.1438(6)
H19_6 H 0.363752 0.712799 0.181128
C39_6 C 0.6538(6) 0.3781(7) 0.1595(6)
C40_4 C 0.9913(8) 0.3197(7) 0.6736(6)
C41_6 C 0.3190(7) 0.7220(7) 0.1100(6)
C43_6 C 0.8725(8) 0.1959(8) 0.4093(7)
H22_6 H 0.906198 0.192616 0.433630
C44_6 C 0.5819(7) 0.4746(7) 0.0534(6)
H23_6 H 0.570084 0.472827 0.016387
C45_4 C 0.9287(8) 0.3447(9) 0.5716(6)
H24_4 H 0.909517 0.356031 0.538637
C46_4 C 0.9339(9) 0.3400(9) 0.6720(7)
H25_4 H 0.916708 0.348504 0.704344
C47_6 C 0.7731(8) 0.2028(9) 0.3312(9)
H26_6 H 0.741573 0.204036 0.304270
C49_6 C 0.8288(9) 0.1570(11) 0.4072(11)
H28_6 H 0.831521 0.127473 0.431940
C51_4 C 0.9003(10) 0.3482(10) 0.6205(8)
H30_4 H 0.859568 0.355911 0.619515
C52_6 C 0.7785(10) 0.1599(11) 0.3681(12)
H31_6 H 0.749124 0.132409 0.367712
O8_6 O 0.1753(5) 0.6213(5) 0.2091(4)
O9_6 O 0.1667(8) 0.6589(7) 0.2068(7)
O13_4 O 0.1458(6) 0.8329(5) 0.1363(5)
O14_4 O 0.7605(5) 0.2567(5) 0.1797(4)
H34_6 H 0.761375 0.443213 0.289736
H35_6 H 0.784345 0.400394 0.338
C2_5 C 0.4912(6) 0.6634(6) 0.9953(6)
H2_5 H 0.473265 0.693344 0.976171
C4_6 C 0.5386(6) 0.6339(6) 0.9739(5)
C5_6 C 0.5207(7) 0.6671(7) 0.8775(6)
H3_5 H 0.479806 0.662879 0.880645
H4_6 H 0.593860 0.568382 0.986583
H6_5 H 0.372489 0.689792 0.995535
C9_6 C 0.5614(7) 0.6537(7) 0.9211(6)
C17_6 C 0.6224(6) 0.7152(7) 0.7727(6)
C19_6 C 0.5415(7) 0.6870(7) 0.8289(6)
H9_6 H 0.514478 0.696599 0.799869
C25_6 C 0.6021(6) 0.6925(6) 0.8240(6)
C29_6 C 0.6211(7) 0.6611(7) 0.9166(6)
H15_6 H 0.648561 0.652699 0.945705
C38_6 C 0.6411(7) 0.6819(7) 0.8671(6)
H20_6 H 0.681685 0.688298 0.864430
O3_7 O 0.2875(5) 0.2300(5) 0.3981(4)
C2_6 C 0.0088(6) 0.1634(6) 0.5047(6)
H2_6 H 0.026735 0.193344 0.523829
H3_6 H 0.020194 0.162879 0.619355
C8_7 C 0.1286(7) 0.1934(6) 0.4669(6)
H6_6 H 0.127511 0.189792 0.504465
C15_7 C 0.0791(7) 0.1761(7) 0.4327(6)
C21_7 C 0.1780(7) 0.2153(7) 0.4465(6)
H10_7 H 0.210323 0.225978 0.470229
C31_7 C 0.0287(7) 0.1471(7) 0.4541(6)
C33_7 C 0.0017(6) 0.1018(7) 0.4255(6)
H17_7 H 0.014773 0.091028 0.392062
C35_7 C 0.2401(7) 0.2378(6) 0.3683(6)
C36_7 C 0.0826(7) 0.1826(8) 0.3759(6)
H18_7 H 0.051233 0.170947 0.351589
C37_7 C 0.1346(7) 0.2071(7) 0.3562(6)
H19_7 H 0.136248 0.212799 0.318872
C41_7 C 0.1810(7) 0.2220(7) 0.3900(6)
O8_7 O 0.3247(5) 0.1213(5) 0.2909(4)
O9_7 O 0.3333(8) 0.1589(7) 0.2932(7)
C4_7 C 0.9614(6) 0.1339(6) 0.5261(5)
C5_7 C 0.9793(7) 0.1671(7) 0.6225(6)
C6_6 C 0.9362(6) 0.0886(6) 0.4981(5)
H4_7 H 0.906140 0.068382 0.513417
C9_7 C 0.9386(7) 0.1537(7) 0.5789(6)
C11_6 C 0.9543(7) 0.0726(6) 0.4482(5)
C17_7 C 0.8776(6) 0.2152(7) 0.7273(6)
C19_7 C 0.9585(7) 0.1870(7) 0.6711(6)
H9_7 H 0.985522 0.196599 0.700131
C22_6 C 0.9265(6) 0.0228(6) 0.4196(5)
C25_7 C 0.8979(6) 0.1925(6) 0.6760(6)
C29_7 C 0.8789(7) 0.1611(7) 0.5834(6)
H15_7 H 0.851439 0.152699 0.554295
C32_6 C 0.9094(8) 0.0239(8) 0.3638(6)
H16_6 H 0.914687 0.056603 0.344260
C38_7 C 0.8589(7) 0.1819(7) 0.6329(6)
H20_7 H 0.818315 0.188298 0.635570
C53_6 C 0.3312(12) 0.0006(10) 0.0798(9)
H32_6 H 0.333006 0.028640 0.053777
C54_6 C 0.2852(10) 0.0023(9) 0.1151(9)
H33_6 H 0.256175 0.030140 0.110839
N3_7 N 0.3998(6) 0.8679(5) 0.1350(5)
O6_7 O 0.8183(5) 0.8865(5) 0.2952(4)
N4_7 N 0.5973(6) 0.7858(6) 0.1348(5)
N5_4 N 0.3278(6) 0.8718(6) 0.1930(5)
N6_7 N 0.6773(6) 0.7915(6) 0.1965(5)
O7_7 O 0.7467(7) 0.9071(6) 0.1923(5)
C1_7 C 0.5366(6) 0.7994(7) 0.0504(5)
H1_7 H 0.567333 0.784845 0.031274
C3_7 C 0.4852(7) 0.8178(6) 0.0224(5)
C7_7 C 0.4989(7) 0.8256(7) 0.1364(6)
H5_7 H 0.503762 0.828695 0.174181
C10_7 C 0.5434(7) 0.8023(7) 0.1065(6)
C12_7 C 0.4382(7) 0.8393(7) 0.0496(6)
H7_7 H 0.402633 0.850051 0.030522
C14_7 C 0.4456(6) 0.8446(7) 0.1065(6)
C16_7 C 0.8755(7) 0.9286(7) 0.3681(6)
C20_7 C 0.6343(7) 0.7391(7) 0.1247(7)
C23_7 C 0.6269(7) 0.8178(8) 0.1772(6)
H11_7 H 0.613616 0.851950 0.189880
C24_7 C 0.8846(8) 0.9775(7) 0.3367(6)
H12_7 H 0.874288 0.978316 0.299292
C27_7 C 0.8930(7) 0.9289(7) 0.4218(7)
H13_7 H 0.887821 0.896844 0.442326
C28_7 C 0.3734(6) 0.8451(7) 0.1780(6)
H14_7 H 0.387408 0.812479 0.195178
C30_7 C 0.3654(8) 0.9164(7) 0.1206(7)
C34_7 C 0.6842(8) 0.7439(7) 0.1646(7)
C39_7 C 0.8462(6) 0.8781(7) 0.3405(6)
C42_7 C 0.3216(7) 0.9190(7) 0.1584(7)
C43_7 C 0.6275(8) 0.6959(8) 0.0907(7)
H22_7 H 0.593802 0.692616 0.066370
C44_7 C 0.9181(7) 0.9746(7) 0.4466(6)
H23_7 H 0.929916 0.972827 0.483613
C47_7 C 0.7269(8) 0.7028(9) 0.1688(9)
H26_7 H 0.758427 0.704036 0.195730
C48_7 C 0.2820(10) 0.9621(10) 0.1575(9)
H27_7 H 0.254057 0.965233 0.183518
C49_7 C 0.6712(9) 0.6570(11) 0.0928(11)
H28_7 H 0.668479 0.627473 0.068060
C50_7 C 0.3734(10) 0.9596(9) 0.0819(8)
H29_7 H 0.405229 0.959746 0.059672
C52_7 C 0.7215(10) 0.6599(11) 0.1319(12)
H31_7 H 0.750876 0.632409 0.132288
N8_4 N 0.6722(6) 0.8718(6) 0.3070(5)
H34_7 H 0.738625 0.943213 0.210264
H35_7 H 0.715655 0.900394 0.162
N1_7 N 0.4765(5) 0.8112(6) 0.9654(5)
C13_7 C 0.4238(7) 0.7932(6) 0.9383(6)
H8_7 H 0.390173 0.783101 0.955992
C18_5 C 0.5153(7) 0.8242(8) 0.9257(6)
C26_7 C 0.4834(7) 0.8117(7) 0.8748(6)
C40_5 C 0.5087(8) 0.8197(7) 0.8264(6)
H21_7 H 0.487503 0.811497 0.793382
C45_5 C 0.5713(8) 0.8447(9) 0.9284(6)
H24_5 H 0.590483 0.856031 0.961363
C46_5 C 0.5661(9) 0.8400(9) 0.8280(7)
H25_5 H 0.583292 0.848504 0.795656
C51_5 C 0.5997(10) 0.8482(10) 0.8795(8)
H30_5 H 0.640432 0.855911 0.880485
C4_8 C 0.0386(6) 0.1339(6) 0.9739(5)
C5_8 C 0.0207(7) 0.1671(7) 0.8775(6)
H4_8 H 0.093860 0.068382 0.986583
C9_8 C 0.0614(7) 0.1537(7) 0.9211(6)
C17_8 C 0.1224(6) 0.2152(7) 0.7727(6)
C19_8 C 0.0415(7) 0.1870(7) 0.8289(6)
H9_8 H 0.014478 0.196599 0.799869
C25_8 C 0.1021(6) 0.1925(6) 0.8240(6)
C29_8 C 0.1211(7) 0.1611(7) 0.9166(6)
H15_8 H 0.148561 0.152699 0.945705
C38_8 C 0.1411(7) 0.1819(7) 0.8671(6)
H20_8 H 0.181685 0.188298 0.864430
N1_8 N 0.5235(5) 0.8112(6) 0.5346(5)
N3_8 N 0.6002(6) 0.8679(5) 0.3650(5)
O6_8 O 0.1817(5) 0.8865(5) 0.2048(4)
N4_8 N 0.4027(6) 0.7858(6) 0.3652(5)
N6_8 N 0.3227(6) 0.7915(6) 0.3035(5)
O7_8 O 0.2533(7) 0.9071(6) 0.3077(5)
C1_8 C 0.4634(6) 0.7994(7) 0.4496(5)
H1_8 H 0.432667 0.784845 0.468726
C3_8 C 0.5148(7) 0.8178(6) 0.4776(5)
C7_8 C 0.5011(7) 0.8256(7) 0.3636(6)
H5_8 H 0.496238 0.828695 0.325819
C10_8 C 0.4566(7) 0.8023(7) 0.3935(6)
C12_8 C 0.5618(7) 0.8393(7) 0.4504(6)
H7_8 H 0.597367 0.850051 0.469478
C13_8 C 0.5762(7) 0.7932(6) 0.5617(6)
H8_8 H 0.609827 0.783101 0.544008
C14_8 C 0.5544(6) 0.8446(7) 0.3935(6)
C16_8 C 0.1245(7) 0.9286(7) 0.1319(6)
C18_6 C 0.4847(7) 0.8242(8) 0.5743(6)
C20_8 C 0.3657(7) 0.7391(7) 0.3753(7)
C23_8 C 0.3731(7) 0.8178(8) 0.3228(6)
H11_8 H 0.386384 0.851950 0.310120
C24_8 C 0.1154(8) 0.9775(7) 0.1633(6)
H12_8 H 0.125712 0.978316 0.200708
C26_8 C 0.5166(7) 0.8117(7) 0.6252(6)
C27_8 C 0.1070(7) 0.9289(7) 0.0782(7)
H13_8 H 0.112179 0.896844 0.057674
C28_8 C 0.6266(6) 0.8451(7) 0.3220(6)
H14_8 H 0.612592 0.812479 0.304822
C30_8 C 0.6346(8) 0.9164(7) 0.3794(7)
C34_8 C 0.3158(8) 0.7439(7) 0.3354(7)
C39_8 C 0.1538(6) 0.8781(7) 0.1595(6)
C40_6 C 0.4913(8) 0.8197(7) 0.6736(6)
H21_8 H 0.512497 0.811497 0.706618
C42_8 C 0.6784(7) 0.9190(7) 0.3416(7)
C43_8 C 0.3725(8) 0.6959(8) 0.4093(7)
H22_8 H 0.406198 0.692616 0.433630
C44_8 C 0.0819(7) 0.9746(7) 0.0534(6)
H23_8 H 0.070084 0.972827 0.016387
C45_6 C 0.4287(8) 0.8447(9) 0.5716(6)
H24_6 H 0.409517 0.856031 0.538637
C46_6 C 0.4339(9) 0.8400(9) 0.6720(7)
H25_6 H 0.416708 0.848504 0.704344
C47_8 C 0.2731(8) 0.7028(9) 0.3312(9)
H26_8 H 0.241573 0.704036 0.304270
C48_8 C 0.7180(10) 0.9621(10) 0.3425(9)
H27_8 H 0.745943 0.965233 0.316482
C49_8 C 0.3288(9) 0.6570(11) 0.4072(11)
H28_8 H 0.331521 0.627473 0.431940
C50_8 C 0.6266(10) 0.9596(9) 0.4181(8)
H29_8 H 0.594771 0.959746 0.440328
C51_6 C 0.4003(10) 0.8482(10) 0.6205(8)
H30_6 H 0.359568 0.855911 0.619515
C52_8 C 0.2785(10) 0.6599(11) 0.3681(12)
H31_8 H 0.249124 0.632409 0.367712
H34_8 H 0.261375 0.943213 0.289736
H35_8 H 0.284345 0.900394 0.338
O3_8 O 0.7125(5) 0.2300(5) 0.1019(4)
C8_8 C 0.8714(7) 0.1934(6) 0.0331(6)
C15_8 C 0.9209(7) 0.1761(7) 0.0673(6)
C21_8 C 0.8220(7) 0.2153(7) 0.0535(6)
H10_8 H 0.789677 0.225978 0.029771
C31_8 C 0.9713(7) 0.1471(7) 0.0459(6)
C33_8 C 0.9983(6) 0.1018(7) 0.0745(6)
H17_8 H 0.985227 0.091028 0.107938
C35_8 C 0.7599(7) 0.2378(6) 0.1317(6)
C36_8 C 0.9174(7) 0.1826(8) 0.1241(6)
H18_8 H 0.948767 0.170947 0.148411
C37_8 C 0.8654(7) 0.2071(7) 0.1438(6)
H19_8 H 0.863752 0.212799 0.181128
C41_8 C 0.8190(7) 0.2220(7) 0.1100(6)
O8_8 O 0.6753(5) 0.1213(5) 0.2091(4)
O9_8 O 0.6667(8) 0.1589(7) 0.2068(7)
C18_7 C 0.9847(7) 0.6758(8) 0.0743(6)
C40_7 C 0.9913(8) 0.6803(7) 0.1736(6)
C45_7 C 0.9287(8) 0.6553(9) 0.0716(6)
H24_7 H 0.909517 0.643969 0.038637
C46_7 C 0.9339(9) 0.6600(9) 0.1720(7)
H25_7 H 0.916708 0.651496 0.204344
C51_7 C 0.9003(10) 0.6518(10) 0.1205(8)
H30_7 H 0.859568 0.644089 0.119515
C2_7 C 0.0088(6) 0.8366(6) 0.0047(6)
H2_7 H 0.026735 0.806656 0.023829
H3_7 H 0.020194 0.837121 0.119355
H6_7 H 0.127511 0.810208 0.004465
C6_7 C 0.9362(6) 0.9114(6) 0.9981(5)
C11_7 C 0.9543(7) 0.9274(6) 0.9482(5)
C22_7 C 0.9265(6) 0.9772(6) 0.9196(5)
C32_7 C 0.9094(8) 0.9761(8) 0.8638(6)
H16_7 H 0.914687 0.943397 0.844260
C53_7 C 0.3312(12) 0.9994(10) 0.5798(9)
H32_7 H 0.333006 0.971360 0.553777
C54_7 C 0.2852(10) 0.9977(9) 0.6151(9)
H33_7 H 0.256175 0.969860 0.610839
C18_8 C 0.0153(7) 0.3242(8) 0.9257(6)
C40_8 C 0.0087(8) 0.3197(7) 0.8264(6)
C45_8 C 0.0713(8) 0.3447(9) 0.9284(6)
H24_8 H 0.090483 0.356031 0.961363
C46_8 C 0.0661(9) 0.3400(9) 0.8280(7)
H25_8 H 0.083292 0.348504 0.795656
C51_8 C 0.0997(10) 0.3482(10) 0.8795(8)
H30_8 H 0.140432 0.355911 0.880485
C6_8 C 0.0638(6) 0.0886(6) 0.0019(5)
C11_8 C 0.0457(7) 0.0726(6) 0.0518(5)
C22_8 C 0.0735(6) 0.0228(6) 0.0804(5)
C32_8 C 0.0906(8) 0.0239(8) 0.1362(6)
H16_8 H 0.085313 0.056603 0.155740
C53_8 C 0.6688(12) 0.0006(10) 0.4202(9)
H32_8 H 0.666994 0.028640 0.446223
C54_8 C 0.7148(10) 0.0023(9) 0.3849(9)
H33_8 H 0.743825 0.030140 0.389161
C2_8 C 0.9912(6) 0.1634(6) 0.9953(6)
H2_8 H 0.973265 0.193344 0.976171
H3_8 H 0.979806 0.162879 0.880645
H6_8 H 0.872489 0.189792 0.995535
I1 I 0.20506(6) 0.36044(8) 0.04617(6)
I2 I 0.11359(10) 0.44967(10) 0.06487(9)
I3 I 0.250000 0.250000 0.000000
I4 I 0.0324(2) 0.53899(16) 0.07688(18)
I3_2 I 0.250000 0.250000 1.000000
I5 I 0.29494(6) 0.13956(8) 0.95383(6)
I6 I 0.38641(10) 0.05033(10) 0.93513(9)
I7 I 0.4676(2) 0.96101(16) 0.92312(18)
I1_2 I 0.79494(6) 0.36044(8) 0.45383(6)
I2_2 I 0.88641(10) 0.44967(10) 0.43513(9)
I3_3 I 0.750000 0.250000 0.500000
I4_2 I 0.9676(2) 0.53899(16) 0.42312(18)
I5_2 I 0.70506(6) 0.13956(8) 0.54617(6)
I6_2 I 0.61359(10) 0.05033(10) 0.56487(9)
I7_2 I 0.5324(2) 0.96101(16) 0.57688(18)
I4_3 I 0.5324(2) 0.03899(16) 0.07688(18)
I1_3 I 0.70506(6) 0.86044(8) 0.04617(6)
I2_3 I 0.61359(10) 0.94967(10) 0.06487(9)
I3_4 I 0.750000 0.750000 0.000000
I3_5 I 0.750000 0.750000 1.000000
I5_3 I 0.79494(6) 0.63956(8) 0.95383(6)
I6_3 I 0.88641(10) 0.55033(10) 0.93513(9)
I7_3 I 0.9676(2) 0.46101(16) 0.92312(18)
I4_4 I 0.4676(2) 0.03899(16) 0.42312(18)
I1_4 I 0.29494(6) 0.86044(8) 0.45383(6)
I2_4 I 0.38641(10) 0.94967(10) 0.43513(9)
I3_6 I 0.250000 0.750000 0.500000
I5_4 I 0.20506(6) 0.63956(8) 0.54617(6)
I6_4 I 0.11359(10) 0.55033(10) 0.56487(9)
I7_4 I 0.0324(2) 0.46101(16) 0.57688(18)
Na1 Na 0.500000 0.2685(15) 0.750000
Na1_2 Na 0.000000 0.7685(15) 0.750000
Na1_3 Na 1.000000 0.7685(15) 0.750000
Na1_4 Na 0.500000 0.7315(15) 0.250000
Na1_5 Na -0.000000 0.2315(15) 0.250000
Na1_6 Na 1.000000 0.2315(15) 0.250000
loop_
_geom_bond_atom_site_label_1
_geom_bond_atom_site_label_2
_geom_bond_site_symmetry_1
_geom_bond_site_symmetry_2
N2 C13 1_555 1_555
C13 N1 1_555 1_555
H8 C13 1_555 1_555
C26 N2 1_555 1_555
Cd4 N2 1_555 1_555
N3 C14 1_555 1_555
N5 C28 1_555 1_555
C12 C3 1_555 1_555
H7 C12 1_555 1_555
C14 C7 1_555 1_555
C28 N3 1_555 1_555
H14 C28 1_555 1_555
C30 N3 1_555 1_555
C42 N5 1_555 1_555
C48 C42 1_555 1_555
H27 C48 1_555 1_555
C50 C30 1_555 1_555
H29 C50 1_555 1_555
C53 C50 1_555 1_555
H32 C53 1_555 1_555
C54 C48 1_555 1_555
H33 C54 1_555 1_555
Cd6 N5 1_555 1_555
C12 C14 1_555 1_555
C30 C42 1_555 1_555
C53 C54 1_555 1_555
Cd1 O3 1_555 1_555
Cd2 O6 1_555 1_555
O1 C17 1_555 1_555
O2 C17 1_555 1_555
O3 C35 1_555 1_555
O4 C39 1_555 1_555
O5 Cd1 1_555 1_555
O6 C39 1_555 1_555
N4 C10 1_555 1_555
N6 Cd2 1_555 1_555
O7 Cd2 1_555 1_555
C1 H1 1_555 1_555
C2 H2 1_555 1_555
C4 C2 1_555 1_555
C5 H3 1_555 1_555
C6 C4 1_555 1_555
H4 C6 1_555 1_555
C8 H6 1_555 1_555
C9 C4 1_555 1_555
C10 C1 1_555 1_555
C11 C6 1_555 1_555
C15 C8 1_555 1_555
C16 C24 1_555 1_555
C17 C25 1_555 1_555
C19 C5 1_555 1_555
H9 C19 1_555 1_555
C20 N4 1_555 1_555
C21 C8 1_555 1_555
H10 C21 1_555 1_555
C22 C11 1_555 1_555
C23 N4 1_555 1_555
H11 C23 1_555 1_555
C24 H12 1_555 1_555
C25 C19 1_555 1_555
C27 C16 1_555 1_555
H13 C27 1_555 1_555
C29 C9 1_555 1_555
H15 C29 1_555 1_555
C31 C2 1_555 1_555
C32 C22 1_555 1_555
H16 C32 1_555 1_555
C33 C11 1_555 1_555
H17 C33 1_555 1_555
C34 N6 1_555 1_555
C35 O5 1_555 1_555
C36 C15 1_555 1_555
H18 C36 1_555 1_555
C37 C36 1_555 1_555
H19 C37 1_555 1_555
C38 C25 1_555 1_555
H20 C38 1_555 1_555
C39 C16 1_555 1_555
C41 C21 1_555 1_555
C43 C20 1_555 1_555
H22 C43 1_555 1_555
C44 C22 1_555 1_555
H23 C44 1_555 1_555
C47 C34 1_555 1_555
H26 C47 1_555 1_555
C49 C43 1_555 1_555
H28 C49 1_555 1_555
C52 C47 1_555 1_555
H31 C52 1_555 1_555
O8 O9 1_555 1_555
O9 Cd1 1_555 1_555
Cd3 O4 1_555 1_555
Cd5 O1 1_555 1_555
Cd7 O5 1_555 1_555
Cd8 O1 1_555 1_555
O10 Cd2 1_555 1_555
O11 Cd1 1_555 1_555
O12 Cd1 1_555 1_555
O13 Cd1 1_555 1_555
N7 Cd1 1_555 1_555
O14 Cd2 1_555 1_555
N8 Cd2 1_555 1_555
O2 Cd5 1_555 1_555
N6 C23 1_555 1_555
C5 C9 1_555 1_555
C15 C31 1_555 1_555
C20 C34 1_555 1_555
C24 C32 1_555 1_555
C27 C44 1_555 1_555
C29 C38 1_555 1_555
C31 C33 1_555 1_555
C35 C41 1_555 1_555
C37 C41 1_555 1_555
C49 C52 1_555 1_555
Cd3 O10 1_555 1_555
Cd3 O14 1_555 1_555
Cd7 O11 1_555 1_555
O7 H34 1_555 1_555
O7 H35 1_555 1_555
O1_2 C17_2 1_555 1_555
O2_2 C17_2 1_555 1_555
C2_2 H2_2 1_555 1_555
C4_2 C2_2 1_555 1_555
C5_2 H3_2 1_555 1_555
C9_2 C4_2 1_555 1_555
C17_2 C25_2 1_555 1_555
C19_2 C5_2 1_555 1_555
H9_2 C19_2 1_555 1_555
C25_2 C19_2 1_555 1_555
C29_2 C9_2 1_555 1_555
H15_2 C29_2 1_555 1_555
C38_2 C25_2 1_555 1_555
H20_2 C38_2 1_555 1_555
Cd5_2 O1_2 1_555 1_555
Cd8_2 O1_2 1_555 1_555
O2_2 Cd5_2 1_555 1_555
C5_2 C9_2 1_555 1_555
C29_2 C38_2 1_555 1_555
Cd1_2 O3_2 1_555 1_555
Cd6 O6_2 1_555 1_555
O3_2 C35_2 1_555 1_555
O4_2 C39_2 1_555 1_555
O5_2 Cd1_2 1_555 1_555
O6_2 C39_2 1_555 1_555
N4_2 C10_2 1_555 1_555
N6_2 Cd6 1_555 1_555
O7_2 Cd6 1_555 1_555
C1_2 H1_2 1_555 1_555
C10_2 C1_2 1_555 1_555
C11_2 C6_2 1_555 1_555
C15_2 C8_2 1_555 1_555
C16_2 C24_2 1_555 1_555
C20_2 N4_2 1_555 1_555
C21_2 C8_2 1_555 1_555
H10_2 C21_2 1_555 1_555
C22_2 C11_2 1_555 1_555
C23_2 N4_2 1_555 1_555
H11_2 C23_2 1_555 1_555
C24_2 H12_2 1_555 1_555
C27_2 C16_2 1_555 1_555
H13_2 C27_2 1_555 1_555
C32_2 C22_2 1_555 1_555
H16_2 C32_2 1_555 1_555
C33_2 C11_2 1_555 1_555
H17_2 C33_2 1_555 1_555
C34_2 N6_2 1_555 1_555
C35_2 O5_2 1_555 1_555
C36_2 C15_2 1_555 1_555
H18_2 C36_2 1_555 1_555
C37_2 C36_2 1_555 1_555
H19_2 C37_2 1_555 1_555
C39_2 C16_2 1_555 1_555
C41_2 C21_2 1_555 1_555
C43_2 C20_2 1_555 1_555
H22_2 C43_2 1_555 1_555
C44_2 C22_2 1_555 1_555
H23_2 C44_2 1_555 1_555
C45 C18 1_555 1_555
H24 C45 1_555 1_555
C46 C40 1_555 1_555
H25 C46 1_555 1_555
C47_2 C34_2 1_555 1_555
H26_2 C47_2 1_555 1_555
C49_2 C43_2 1_555 1_555
H28_2 C49_2 1_555 1_555
C51 C45 1_555 1_555
H30 C51 1_555 1_555
C52_2 C47_2 1_555 1_555
H31_2 C52_2 1_555 1_555
O8_2 O9_2 1_555 1_555
O9_2 Cd1_2 1_555 1_555
Cd3_2 O4_2 1_555 1_555
Cd7_2 O5_2 1_555 1_555
O10_2 Cd6 1_555 1_555
O11_2 Cd1_2 1_555 1_555
O12_2 Cd1_2 1_555 1_555
O13_2 Cd1_2 1_555 1_555
N7_2 Cd1_2 1_555 1_555
O14_2 Cd6 1_555 1_555
N6_2 C23_2 1_555 1_555
C15_2 C31_2 1_555 1_555
C20_2 C34_2 1_555 1_555
C24_2 C32_2 1_555 1_555
C27_2 C44_2 1_555 1_555
C31_2 C33_2 1_555 1_555
C35_2 C41_2 1_555 1_555
C37_2 C41_2 1_555 1_555
C46 C51 1_555 1_555
C49_2 C52_2 1_555 1_555
Cd3_2 O10_2 1_555 1_555
Cd3_2 O14_2 1_555 1_555
Cd7_2 O11_2 1_555 1_555
O7_2 H34_2 1_555 1_555
O7_2 H35_2 1_555 1_555
N1_2 C3_2 1_555 1_555
N2_2 C13_2 1_555 1_555
N3_2 C14_2 1_555 1_555
N8 C28_2 1_555 1_555
C12_2 C3_2 1_555 1_555
H7_2 C12_2 1_555 1_555
C13_2 N1_2 1_555 1_555
H8_2 C13_2 1_555 1_555
C14_2 C7_2 1_555 1_555
C26_2 N2_2 1_555 1_555
C28_2 N3_2 1_555 1_555
H14_2 C28_2 1_555 1_555
C30_2 N3_2 1_555 1_555
C42_2 N8 1_555 1_555
C48_2 C42_2 1_555 1_555
H27_2 C48_2 1_555 1_555
C50_2 C30_2 1_555 1_555
H29_2 C50_2 1_555 1_555
C53_2 C50_2 1_555 1_555
H32_2 C53_2 1_555 1_555
C54_2 C48_2 1_555 1_555
H33_2 C54_2 1_555 1_555
Cd4_2 N2_2 1_555 1_555
C12_2 C14_2 1_555 1_555
C30_2 C42_2 1_555 1_555
C53_2 C54_2 1_555 1_555
N2_3 C13_3 1_555 1_555
C13_3 N1_3 1_555 1_555
H8_3 C13_3 1_555 1_555
C18_2 N1_3 1_555 1_555
C26_3 N2_3 1_555 1_555
C40_2 C26_3 1_555 1_555
H21_3 C40_2 1_555 1_555
C45_2 C18_2 1_555 1_555
H24_2 C45_2 1_555 1_555
C46_2 C40_2 1_555 1_555
H25_2 C46_2 1_555 1_555
C51_2 C45_2 1_555 1_555
H30_2 C51_2 1_555 1_555
Cd5 N2_3 1_555 1_555
C18_2 C26_3 1_555 1_555
C46_2 C51_2 1_555 1_555
Cd7 O6_3 1_555 1_555
O13 C39_3 1_555 1_555
N3_3 C14_3 1_555 1_555
O6_3 C39_3 1_555 1_555
N4_3 C10_3 1_555 1_555
N5_2 C28_3 1_555 1_555
N6_3 Cd7 1_555 1_555
O7_3 Cd7 1_555 1_555
C1_3 H1_3 1_555 1_555
C3_3 C1_3 1_555 1_555
C7_3 H5_3 1_555 1_555
C10_3 C1_3 1_555 1_555
C12_3 C3_3 1_555 1_555
H7_3 C12_3 1_555 1_555
C14_3 C7_3 1_555 1_555
C16_3 C24_3 1_555 1_555
C20_3 N4_3 1_555 1_555
C23_3 N4_3 1_555 1_555
H11_3 C23_3 1_555 1_555
C24_3 H12_3 1_555 1_555
C27_3 C16_3 1_555 1_555
H13_3 C27_3 1_555 1_555
C28_3 N3_3 1_555 1_555
H14_3 C28_3 1_555 1_555
C30_3 N3_3 1_555 1_555
C34_3 N6_3 1_555 1_555
C39_3 C16_3 1_555 1_555
C42_3 N5_2 1_555 1_555
C43_3 C20_3 1_555 1_555
H22_3 C43_3 1_555 1_555
H23_3 C44_3 1_555 1_555
C47_3 C34_3 1_555 1_555
H26_3 C47_3 1_555 1_555
C48_3 C42_3 1_555 1_555
H27_3 C48_3 1_555 1_555
C49_3 C43_3 1_555 1_555
H28_3 C49_3 1_555 1_555
C50_3 C30_3 1_555 1_555
H29_3 C50_3 1_555 1_555
C52_3 C47_3 1_555 1_555
H31_3 C52_3 1_555 1_555
Cd7_2 N5_2 1_555 1_555
N8_2 Cd7 1_555 1_555
N6_3 C23_3 1_555 1_555
C7_3 C10_3 1_555 1_555
C12_3 C14_3 1_555 1_555
C20_3 C34_3 1_555 1_555
C27_3 C44_3 1_555 1_555
C30_3 C42_3 1_555 1_555
C49_3 C52_3 1_555 1_555
O7_3 H34_3 1_555 1_555
O7_3 H35_3 1_555 1_555
O1_3 C17_3 1_555 1_555
O2_3 C17_3 1_555 1_555
C6_3 C4_3 1_555 1_555
H4_3 C6_3 1_555 1_555
C9_3 C4_3 1_555 1_555
C11_3 C6_3 1_555 1_555
C17_3 C25_3 1_555 1_555
C19_3 C5_3 1_555 1_555
H9_3 C19_3 1_555 1_555
C22_3 C11_3 1_555 1_555
C25_3 C19_3 1_555 1_555
C29_3 C9_3 1_555 1_555
H15_3 C29_3 1_555 1_555
C32_3 C22_3 1_555 1_555
H16_3 C32_3 1_555 1_555
C38_3 C25_3 1_555 1_555
H20_3 C38_3 1_555 1_555
H32_3 C53_3 1_555 1_555
H33_3 C54_3 1_555 1_555
Cd4 O1_3 1_555 1_555
Cd8_3 O1_3 1_555 1_555
O2_3 Cd4 1_555 1_555
C5_3 C9_3 1_555 1_555
C29_3 C38_3 1_555 1_555
C53_3 C54_3 1_555 1_555
Cd3 O3_3 1_555 1_555
O3_3 C35_3 1_555 1_555
C2_3 H2_3 1_555 1_555
C8_3 H6_3 1_555 1_555
C15_3 C8_3 1_555 1_555
C21_3 C8_3 1_555 1_555
H10_3 C21_3 1_555 1_555
C31_3 C2_3 1_555 1_555
H17_3 C33_3 1_555 1_555
C35_3 O14 1_555 1_555
C36_3 C15_3 1_555 1_555
H18_3 C36_3 1_555 1_555
C37_3 C36_3 1_555 1_555
H19_3 C37_3 1_555 1_555
C41_3 C21_3 1_555 1_555
O8_3 O9_3 1_555 1_555
O9_3 Cd3 1_555 1_555
O12_3 Cd3 1_555 1_555
N7_3 Cd3 1_555 1_555
C15_3 C31_3 1_555 1_555
C31_3 C33_3 1_555 1_555
C35_3 C41_3 1_555 1_555
C37_3 C41_3 1_555 1_555
Cd3_2 O3_4 1_555 1_555
O3_4 C35_4 1_555 1_555
C15_4 C8_4 1_555 1_555
C21_4 C8_4 1_555 1_555
H10_4 C21_4 1_555 1_555
H17_4 C33_4 1_555 1_555
C35_4 O14_2 1_555 1_555
C36_4 C15_4 1_555 1_555
H18_4 C36_4 1_555 1_555
C37_4 C36_4 1_555 1_555
H19_4 C37_4 1_555 1_555
C41_4 C21_4 1_555 1_555
O8_4 O9_4 1_555 1_555
O9_4 Cd3_2 1_555 1_555
O12_4 Cd3_2 1_555 1_555
N7_4 Cd3_2 1_555 1_555
C15_4 C31_4 1_555 1_555
C31_4 C33_4 1_555 1_555
C35_4 C41_4 1_555 1_555
C37_4 C41_4 1_555 1_555
Cd7_2 O6_4 1_555 1_555
N1_4 C3_4 1_555 1_555
O13_2 C39_4 1_555 1_555
N2_4 C13_4 1_555 1_555
N3_4 C14_4 1_555 1_555
O6_4 C39_4 1_555 1_555
N4_4 C10_4 1_555 1_555
N8_2 C28_4 1_555 1_555
N6_4 Cd7_2 1_555 1_555
O7_4 Cd7_2 1_555 1_555
C1_4 H1_4 1_555 1_555
C3_4 C1_4 1_555 1_555
C7_4 H5_4 1_555 1_555
C10_4 C1_4 1_555 1_555
C12_4 C3_4 1_555 1_555
H7_4 C12_4 1_555 1_555
C13_4 N1_4 1_555 1_555
H8_4 C13_4 1_555 1_555
C14_4 C7_4 1_555 1_555
C16_4 C24_4 1_555 1_555
C18_3 N1_4 1_555 1_555
C20_4 N4_4 1_555 1_555
C23_4 N4_4 1_555 1_555
H11_4 C23_4 1_555 1_555
C24_4 H12_4 1_555 1_555
C26_4 N2_4 1_555 1_555
C27_4 C16_4 1_555 1_555
H13_4 C27_4 1_555 1_555
C28_4 N3_4 1_555 1_555
H14_4 C28_4 1_555 1_555
C30_4 N3_4 1_555 1_555
C34_4 N6_4 1_555 1_555
C39_4 C16_4 1_555 1_555
C40_3 C26_4 1_555 1_555
H21_4 C40_3 1_555 1_555
C42_4 N8_2 1_555 1_555
C43_4 C20_4 1_555 1_555
H22_4 C43_4 1_555 1_555
H23_4 C44_4 1_555 1_555
C45_3 C18_3 1_555 1_555
H24_3 C45_3 1_555 1_555
C46_3 C40_3 1_555 1_555
H25_3 C46_3 1_555 1_555
C47_4 C34_4 1_555 1_555
H26_4 C47_4 1_555 1_555
C48_4 C42_4 1_555 1_555
H27_4 C48_4 1_555 1_555
C49_4 C43_4 1_555 1_555
H28_4 C49_4 1_555 1_555
C50_4 C30_4 1_555 1_555
H29_4 C50_4 1_555 1_555
C51_3 C45_3 1_555 1_555
H30_3 C51_3 1_555 1_555
C52_4 C47_4 1_555 1_555
H31_4 C52_4 1_555 1_555
Cd5_2 N2_4 1_555 1_555
N6_4 C23_4 1_555 1_555
C7_4 C10_4 1_555 1_555
C12_4 C14_4 1_555 1_555
C18_3 C26_4 1_555 1_555
C20_4 C34_4 1_555 1_555
C27_4 C44_4 1_555 1_555
C30_4 C42_4 1_555 1_555
C46_3 C51_3 1_555 1_555
C49_4 C52_4 1_555 1_555
O7_4 H34_4 1_555 1_555
O7_4 H35_4 1_555 1_555
O1_4 C17_4 1_555 1_555
O2_4 C17_4 1_555 1_555
C9_4 C4_4 1_555 1_555
C17_4 C25_4 1_555 1_555
C19_4 C5_4 1_555 1_555
H9_4 C19_4 1_555 1_555
C25_4 C19_4 1_555 1_555
C29_4 C9_4 1_555 1_555
H15_4 C29_4 1_555 1_555
C38_4 C25_4 1_555 1_555
H20_4 C38_4 1_555 1_555
Cd4_2 O1_4 1_555 1_555
Cd8_4 O1_4 1_555 1_555
O2_4 Cd4_2 1_555 1_555
C5_4 C9_4 1_555 1_555
C29_4 C38_4 1_555 1_555
Cd4_2 O3_5 1_555 1_555
Cd8_2 O6_5 1_555 1_555
O10_2 C17_5 1_555 1_555
O12_4 C17_5 1_555 1_555
O3_5 C35_5 1_555 1_555
O4_3 C39_5 1_555 1_555
O5_3 Cd4_2 1_555 1_555
O6_5 C39_5 1_555 1_555
N4_5 C10_5 1_555 1_555
N6_5 Cd8_2 1_555 1_555
O7_5 Cd8_2 1_555 1_555
C1_5 H1_5 1_555 1_555
C2_4 H2_4 1_555 1_555
C4_5 C2_4 1_555 1_555
C5_5 H3_4 1_555 1_555
C6_4 C4_5 1_555 1_555
H4_5 C6_4 1_555 1_555
C8_5 H6_4 1_555 1_555
C9_5 C4_5 1_555 1_555
C10_5 C1_5 1_555 1_555
C11_4 C6_4 1_555 1_555
C15_5 C8_5 1_555 1_555
C16_5 C24_5 1_555 1_555
C17_5 C25_5 1_555 1_555
C19_5 C5_5 1_555 1_555
H9_5 C19_5 1_555 1_555
C20_5 N4_5 1_555 1_555
C21_5 C8_5 1_555 1_555
H10_5 C21_5 1_555 1_555
C22_4 C11_4 1_555 1_555
C23_5 N4_5 1_555 1_555
H11_5 C23_5 1_555 1_555
C24_5 H12_5 1_555 1_555
C25_5 C19_5 1_555 1_555
C27_5 C16_5 1_555 1_555
H13_5 C27_5 1_555 1_555
C29_5 C9_5 1_555 1_555
H15_5 C29_5 1_555 1_555
C31_5 C2_4 1_555 1_555
C32_4 C22_4 1_555 1_555
H16_4 C32_4 1_555 1_555
C33_5 C11_4 1_555 1_555
H17_5 C33_5 1_555 1_555
C34_5 N6_5 1_555 1_555
C35_5 O5_3 1_555 1_555
C36_5 C15_5 1_555 1_555
H18_5 C36_5 1_555 1_555
C37_5 C36_5 1_555 1_555
H19_5 C37_5 1_555 1_555
C38_5 C25_5 1_555 1_555
H20_5 C38_5 1_555 1_555
C39_5 C16_5 1_555 1_555
C41_5 C21_5 1_555 1_555
C43_5 C20_5 1_555 1_555
H22_5 C43_5 1_555 1_555
C44_5 C22_4 1_555 1_555
H23_5 C44_5 1_555 1_555
C47_5 C34_5 1_555 1_555
H26_5 C47_5 1_555 1_555
C49_5 C43_5 1_555 1_555
H28_5 C49_5 1_555 1_555
C52_5 C47_5 1_555 1_555
H31_5 C52_5 1_555 1_555
O8_5 O9_5 1_555 1_555
O9_5 Cd4_2 1_555 1_555
Cd5_2 O4_3 1_555 1_555
Cd8_4 O5_3 1_555 1_555
O13_3 Cd4_2 1_555 1_555
O14_3 Cd8_2 1_555 1_555
N8_3 Cd8_2 1_555 1_555
N6_5 C23_5 1_555 1_555
C5_5 C9_5 1_555 1_555
C15_5 C31_5 1_555 1_555
C20_5 C34_5 1_555 1_555
C24_5 C32_4 1_555 1_555
C27_5 C44_5 1_555 1_555
C29_5 C38_5 1_555 1_555
C31_5 C33_5 1_555 1_555
C35_5 C41_5 1_555 1_555
C37_5 C41_5 1_555 1_555
C49_5 C52_5 1_555 1_555
Cd5_2 O14_3 1_555 1_555
O7_5 H34_5 1_555 1_555
O7_5 H35_5 1_555 1_555
N3_5 C14_5 1_555 1_555
N5_3 C28_5 1_555 1_555
C12_5 C3_5 1_555 1_555
H7_5 C12_5 1_555 1_555
C14_5 C7_5 1_555 1_555
C28_5 N3_5 1_555 1_555
H14_5 C28_5 1_555 1_555
C30_5 N3_5 1_555 1_555
C42_5 N5_3 1_555 1_555
C48_5 C42_5 1_555 1_555
H27_5 C48_5 1_555 1_555
C50_5 C30_5 1_555 1_555
H29_5 C50_5 1_555 1_555
C53_4 C50_5 1_555 1_555
H32_4 C53_4 1_555 1_555
C54_4 C48_5 1_555 1_555
H33_4 C54_4 1_555 1_555
Cd8 N5_3 1_555 1_555
C12_5 C14_5 1_555 1_555
C30_5 C42_5 1_555 1_555
C53_4 C54_4 1_555 1_555
N7_2 C13_5 1_555 1_555
C13_5 N1_5 1_555 1_555
H8_5 C13_5 1_555 1_555
C26_5 N7_2 1_555 1_555
N1_6 C3_6 1_555 1_555
N7 C13_6 1_555 1_555
N3_6 C14_6 1_555 1_555
N8_3 C28_6 1_555 1_555
C12_6 C3_6 1_555 1_555
H7_6 C12_6 1_555 1_555
C13_6 N1_6 1_555 1_555
H8_6 C13_6 1_555 1_555
C14_6 C7_6 1_555 1_555
C26_6 N7 1_555 1_555
C28_6 N3_6 1_555 1_555
H14_6 C28_6 1_555 1_555
C30_6 N3_6 1_555 1_555
C42_6 N8_3 1_555 1_555
C48_6 C42_6 1_555 1_555
H27_6 C48_6 1_555 1_555
C50_6 C30_6 1_555 1_555
H29_6 C50_6 1_555 1_555
C53_5 C50_6 1_555 1_555
H32_5 C53_5 1_555 1_555
C54_5 C48_6 1_555 1_555
H33_5 C54_5 1_555 1_555
C12_6 C14_6 1_555 1_555
C30_6 C42_6 1_555 1_555
C53_5 C54_5 1_555 1_555
Cd4 O3_6 1_555 1_555
Cd8 O6_6 1_555 1_555
O3_6 C35_6 1_555 1_555
O4_4 C39_6 1_555 1_555
O5_4 Cd4 1_555 1_555
O6_6 C39_6 1_555 1_555
N4_6 C10_6 1_555 1_555
N6_6 Cd8 1_555 1_555
O7_6 Cd8 1_555 1_555
C1_6 H1_6 1_555 1_555
C10_6 C1_6 1_555 1_555
C11_5 C6_5 1_555 1_555
C15_6 C8_6 1_555 1_555
C16_6 C24_6 1_555 1_555
C20_6 N4_6 1_555 1_555
C21_6 C8_6 1_555 1_555
H10_6 C21_6 1_555 1_555
C22_5 C11_5 1_555 1_555
C23_6 N4_6 1_555 1_555
H11_6 C23_6 1_555 1_555
C24_6 H12_6 1_555 1_555
C27_6 C16_6 1_555 1_555
H13_6 C27_6 1_555 1_555
C32_5 C22_5 1_555 1_555
H16_5 C32_5 1_555 1_555
C33_6 C11_5 1_555 1_555
H17_6 C33_6 1_555 1_555
C34_6 N6_6 1_555 1_555
C35_6 O5_4 1_555 1_555
C36_6 C15_6 1_555 1_555
H18_6 C36_6 1_555 1_555
C37_6 C36_6 1_555 1_555
H19_6 C37_6 1_555 1_555
C39_6 C16_6 1_555 1_555
C41_6 C21_6 1_555 1_555
C43_6 C20_6 1_555 1_555
H22_6 C43_6 1_555 1_555
C44_6 C22_5 1_555 1_555
H23_6 C44_6 1_555 1_555
C45_4 C18_4 1_555 1_555
H24_4 C45_4 1_555 1_555
C46_4 C40_4 1_555 1_555
H25_4 C46_4 1_555 1_555
C47_6 C34_6 1_555 1_555
H26_6 C47_6 1_555 1_555
C49_6 C43_6 1_555 1_555
H28_6 C49_6 1_555 1_555
C51_4 C45_4 1_555 1_555
H30_4 C51_4 1_555 1_555
C52_6 C47_6 1_555 1_555
H31_6 C52_6 1_555 1_555
O8_6 O9_6 1_555 1_555
O9_6 Cd4 1_555 1_555
Cd5 O4_4 1_555 1_555
Cd8_3 O5_4 1_555 1_555
O13_4 Cd4 1_555 1_555
O14_4 Cd8 1_555 1_555
N6_6 C23_6 1_555 1_555
C15_6 C31_6 1_555 1_555
C20_6 C34_6 1_555 1_555
C24_6 C32_5 1_555 1_555
C27_6 C44_6 1_555 1_555
C31_6 C33_6 1_555 1_555
C35_6 C41_6 1_555 1_555
C37_6 C41_6 1_555 1_555
C46_4 C51_4 1_555 1_555
C49_6 C52_6 1_555 1_555
Cd5 O14_4 1_555 1_555
O7_6 H34_6 1_555 1_555
O7_6 H35_6 1_555 1_555
O10 C17_6 1_555 1_555
O12_3 C17_6 1_555 1_555
C2_5 H2_5 1_555 1_555
C4_6 C2_5 1_555 1_555
C5_6 H3_5 1_555 1_555
C9_6 C4_6 1_555 1_555
C17_6 C25_6 1_555 1_555
C19_6 C5_6 1_555 1_555
H9_6 C19_6 1_555 1_555
C25_6 C19_6 1_555 1_555
C29_6 C9_6 1_555 1_555
H15_6 C29_6 1_555 1_555
C38_6 C25_6 1_555 1_555
H20_6 C38_6 1_555 1_555
C5_6 C9_6 1_555 1_555
C29_6 C38_6 1_555 1_555
Cd5_2 O3_7 1_555 1_555
O3_7 C35_7 1_555 1_555
C2_6 H2_6 1_555 1_555
C8_7 H6_6 1_555 1_555
C15_7 C8_7 1_555 1_555
C21_7 C8_7 1_555 1_555
H10_7 C21_7 1_555 1_555
C31_7 C2_6 1_555 1_555
H17_7 C33_7 1_555 1_555
C35_7 O14_3 1_555 1_555
C36_7 C15_7 1_555 1_555
H18_7 C36_7 1_555 1_555
C37_7 C36_7 1_555 1_555
H19_7 C37_7 1_555 1_555
C41_7 C21_7 1_555 1_555
O8_7 O9_7 1_555 1_555
O9_7 Cd5_2 1_555 1_555
C15_7 C31_7 1_555 1_555
C31_7 C33_7 1_555 1_555
C35_7 C41_7 1_555 1_555
C37_7 C41_7 1_555 1_555
O11_2 C17_7 1_555 1_555
O12_2 C17_7 1_555 1_555
C6_6 C4_7 1_555 1_555
H4_7 C6_6 1_555 1_555
C9_7 C4_7 1_555 1_555
C11_6 C6_6 1_555 1_555
C17_7 C25_7 1_555 1_555
C19_7 C5_7 1_555 1_555
H9_7 C19_7 1_555 1_555
C22_6 C11_6 1_555 1_555
C25_7 C19_7 1_555 1_555
C29_7 C9_7 1_555 1_555
H15_7 C29_7 1_555 1_555
C32_6 C22_6 1_555 1_555
H16_6 C32_6 1_555 1_555
C38_7 C25_7 1_555 1_555
H20_7 C38_7 1_555 1_555
H32_6 C53_6 1_555 1_555
H33_6 C54_6 1_555 1_555
C5_7 C9_7 1_555 1_555
C29_7 C38_7 1_555 1_555
C53_6 C54_6 1_555 1_555
Cd8_4 O6_7 1_555 1_555
O13_3 C39_7 1_555 1_555
N3_7 C14_7 1_555 1_555
O6_7 C39_7 1_555 1_555
N4_7 C10_7 1_555 1_555
N5_4 C28_7 1_555 1_555
N6_7 Cd8_4 1_555 1_555
O7_7 Cd8_4 1_555 1_555
C1_7 H1_7 1_555 1_555
C3_7 C1_7 1_555 1_555
C7_7 H5_7 1_555 1_555
C10_7 C1_7 1_555 1_555
C12_7 C3_7 1_555 1_555
H7_7 C12_7 1_555 1_555
C14_7 C7_7 1_555 1_555
C16_7 C24_7 1_555 1_555
C20_7 N4_7 1_555 1_555
C23_7 N4_7 1_555 1_555
H11_7 C23_7 1_555 1_555
C24_7 H12_7 1_555 1_555
C27_7 C16_7 1_555 1_555
H13_7 C27_7 1_555 1_555
C28_7 N3_7 1_555 1_555
H14_7 C28_7 1_555 1_555
C30_7 N3_7 1_555 1_555
C34_7 N6_7 1_555 1_555
C39_7 C16_7 1_555 1_555
C42_7 N5_4 1_555 1_555
C43_7 C20_7 1_555 1_555
H22_7 C43_7 1_555 1_555
H23_7 C44_7 1_555 1_555
C47_7 C34_7 1_555 1_555
H26_7 C47_7 1_555 1_555
C48_7 C42_7 1_555 1_555
H27_7 C48_7 1_555 1_555
C49_7 C43_7 1_555 1_555
H28_7 C49_7 1_555 1_555
C50_7 C30_7 1_555 1_555
H29_7 C50_7 1_555 1_555
C52_7 C47_7 1_555 1_555
H31_7 C52_7 1_555 1_555
Cd8_3 N5_4 1_555 1_555
N8_4 Cd8_4 1_555 1_555
N6_7 C23_7 1_555 1_555
C7_7 C10_7 1_555 1_555
C12_7 C14_7 1_555 1_555
C20_7 C34_7 1_555 1_555
C27_7 C44_7 1_555 1_555
C30_7 C42_7 1_555 1_555
C49_7 C52_7 1_555 1_555
O7_7 H34_7 1_555 1_555
O7_7 H35_7 1_555 1_555
N7_4 C13_7 1_555 1_555
C13_7 N1_7 1_555 1_555
H8_7 C13_7 1_555 1_555
C18_5 N1_7 1_555 1_555
C26_7 N7_4 1_555 1_555
C40_5 C26_7 1_555 1_555
H21_7 C40_5 1_555 1_555
C45_5 C18_5 1_555 1_555
H24_5 C45_5 1_555 1_555
C46_5 C40_5 1_555 1_555
H25_5 C46_5 1_555 1_555
C51_5 C45_5 1_555 1_555
H30_5 C51_5 1_555 1_555
C18_5 C26_7 1_555 1_555
C46_5 C51_5 1_555 1_555
O11 C17_8 1_555 1_555
O12 C17_8 1_555 1_555
C9_8 C4_8 1_555 1_555
C17_8 C25_8 1_555 1_555
C19_8 C5_8 1_555 1_555
H9_8 C19_8 1_555 1_555
C25_8 C19_8 1_555 1_555
C29_8 C9_8 1_555 1_555
H15_8 C29_8 1_555 1_555
C38_8 C25_8 1_555 1_555
H20_8 C38_8 1_555 1_555
C5_8 C9_8 1_555 1_555
C29_8 C38_8 1_555 1_555
Cd8_3 O6_8 1_555 1_555
N1_8 C3_8 1_555 1_555
O13_4 C39_8 1_555 1_555
N7_3 C13_8 1_555 1_555
N3_8 C14_8 1_555 1_555
O6_8 C39_8 1_555 1_555
N4_8 C10_8 1_555 1_555
N8_4 C28_8 1_555 1_555
N6_8 Cd8_3 1_555 1_555
O7_8 Cd8_3 1_555 1_555
C1_8 H1_8 1_555 1_555
C3_8 C1_8 1_555 1_555
C7_8 H5_8 1_555 1_555
C10_8 C1_8 1_555 1_555
C12_8 C3_8 1_555 1_555
H7_8 C12_8 1_555 1_555
C13_8 N1_8 1_555 1_555
H8_8 C13_8 1_555 1_555
C14_8 C7_8 1_555 1_555
C16_8 C24_8 1_555 1_555
C18_6 N1_8 1_555 1_555
C20_8 N4_8 1_555 1_555
C23_8 N4_8 1_555 1_555
H11_8 C23_8 1_555 1_555
C24_8 H12_8 1_555 1_555
C26_8 N7_3 1_555 1_555
C27_8 C16_8 1_555 1_555
H13_8 C27_8 1_555 1_555
C28_8 N3_8 1_555 1_555
H14_8 C28_8 1_555 1_555
C30_8 N3_8 1_555 1_555
C34_8 N6_8 1_555 1_555
C39_8 C16_8 1_555 1_555
C40_6 C26_8 1_555 1_555
H21_8 C40_6 1_555 1_555
C42_8 N8_4 1_555 1_555
C43_8 C20_8 1_555 1_555
H22_8 C43_8 1_555 1_555
H23_8 C44_8 1_555 1_555
C45_6 C18_6 1_555 1_555
H24_6 C45_6 1_555 1_555
C46_6 C40_6 1_555 1_555
H25_6 C46_6 1_555 1_555
C47_8 C34_8 1_555 1_555
H26_8 C47_8 1_555 1_555
C48_8 C42_8 1_555 1_555
H27_8 C48_8 1_555 1_555
C49_8 C43_8 1_555 1_555
H28_8 C49_8 1_555 1_555
C50_8 C30_8 1_555 1_555
H29_8 C50_8 1_555 1_555
C51_6 C45_6 1_555 1_555
H30_6 C51_6 1_555 1_555
C52_8 C47_8 1_555 1_555
H31_8 C52_8 1_555 1_555
N6_8 C23_8 1_555 1_555
C7_8 C10_8 1_555 1_555
C12_8 C14_8 1_555 1_555
C18_6 C26_8 1_555 1_555
C20_8 C34_8 1_555 1_555
C27_8 C44_8 1_555 1_555
C30_8 C42_8 1_555 1_555
C46_6 C51_6 1_555 1_555
C49_8 C52_8 1_555 1_555
O7_8 H34_8 1_555 1_555
O7_8 H35_8 1_555 1_555
Cd5 O3_8 1_555 1_555
O3_8 C35_8 1_555 1_555
C15_8 C8_8 1_555 1_555
C21_8 C8_8 1_555 1_555
H10_8 C21_8 1_555 1_555
H17_8 C33_8 1_555 1_555
C35_8 O14_4 1_555 1_555
C36_8 C15_8 1_555 1_555
H18_8 C36_8 1_555 1_555
C37_8 C36_8 1_555 1_555
H19_8 C37_8 1_555 1_555
C41_8 C21_8 1_555 1_555
O8_8 O9_8 1_555 1_555
O9_8 Cd5 1_555 1_555
C15_8 C31_8 1_555 1_555
C31_8 C33_8 1_555 1_555
C35_8 C41_8 1_555 1_555
C37_8 C41_8 1_555 1_555
C45_7 C18_7 1_555 1_555
H24_7 C45_7 1_555 1_555
C46_7 C40_7 1_555 1_555
H25_7 C46_7 1_555 1_555
C51_7 C45_7 1_555 1_555
H30_7 C51_7 1_555 1_555
C46_7 C51_7 1_555 1_555
C2_7 H2_7 1_555 1_555
C11_7 C6_7 1_555 1_555
C22_7 C11_7 1_555 1_555
C32_7 C22_7 1_555 1_555
H16_7 C32_7 1_555 1_555
H32_7 C53_7 1_555 1_555
H33_7 C54_7 1_555 1_555
C53_7 C54_7 1_555 1_555
C45_8 C18_8 1_555 1_555
H24_8 C45_8 1_555 1_555
C46_8 C40_8 1_555 1_555
H25_8 C46_8 1_555 1_555
C51_8 C45_8 1_555 1_555
H30_8 C51_8 1_555 1_555
C46_8 C51_8 1_555 1_555
C11_8 C6_8 1_555 1_555
C22_8 C11_8 1_555 1_555
C32_8 C22_8 1_555 1_555
H16_8 C32_8 1_555 1_555
H32_8 C53_8 1_555 1_555
H33_8 C54_8 1_555 1_555
C53_8 C54_8 1_555 1_555
C2_8 H2_8 1_555 1_555
I1 I2 1_555 1_555
I2 I4 1_555 1_555
I3 I1 1_555 1_555
I5 I3_2 1_555 1_555
I6 I5 1_555 1_555
I1_2 I2_2 1_555 1_555
I2_2 I4_2 1_555 1_555
I3_3 I1_2 1_555 1_555
I5_2 I3_3 1_555 1_555
I6_2 I5_2 1_555 1_555
I1_3 I2_3 1_555 1_555
I3_4 I1_3 1_555 1_555
I5_3 I3_5 1_555 1_555
I6_3 I5_3 1_555 1_555
I7_3 I6_3 1_555 1_555
I1_4 I2_4 1_555 1_555
I3_6 I1_4 1_555 1_555
I5_4 I3_6 1_555 1_555
I6_4 I5_4 1_555 1_555
I7_4 I6_4 1_555 1_555

#END
