
###############################################################################
#
# This file contains modified crystal structure data generated from the
# MOF subset of the Cambridge Structural Database (CSD) v543 
# hosted by the Cambridge Crystallographic Data Centre (CCDC).
#
# This work is licensed under the Creative Commons
# Attribution-NonCommercial-ShareAlike 4.0 International License.
# To view a copy of this license, visit
# http://creativecommons.org/licenses/by-nc-sa/4.0/
# or send a letter to
# Creative Commons, PO Box 1866, Mountain View, CA 94042, USA.
#
# CIF created using the CSD Python API on 29 September 2022
# The structure has been converted into the P1 space group
# The structure has a 3D framework
# The original CSD entry ONIRUB is in the monoclinic crystal system
# The framework has been calculated to contain at least 10.0% void space
# The void calculation uses a probe of radius 1.32A, grid spacing 0.4
# The framework is charged, counterions have been retained in the structure
# H atom positions have been added when not included in the experimental data
#
###############################################################################

data_ONIRUB
_chemical_formula_moiety         '(C432 H312 Cd16 Cr6 N48 O80)n'
_symmetry_cell_setting           triclinic
_symmetry_space_group_name_H-M   'P 1'
_symmetry_Int_Tables_number      1
_space_group_name_Hall           'P 1'
loop_
_symmetry_equiv_pos_site_id
_symmetry_equiv_pos_as_xyz
1 x,y,z
_cell_length_a                   21.8683(10)
_cell_length_b                   24.1897(10)
_cell_length_c                   24.8200(11)
_cell_angle_alpha                90
_cell_angle_beta                 94.362(2)
_cell_angle_gamma                90
_cell_volume                     13091.4
loop_
_atom_site_label
_atom_site_type_symbol
_atom_site_fract_x
_atom_site_fract_y
_atom_site_fract_z
N1 N 0.0132(3) 0.6959(3) 0.0338(2)
N5 N 0.0575(3) 0.7119(3) 0.1164(2)
C25 C 0.0650(3) 0.7122(3) 0.0649(3)
H13 H 0.101446 0.722321 0.050586
Cd3 Cd 0.13767(2) 0.74284(2) 0.17440(2)
N2 N 0.1044(3) 0.6418(3) 0.8708(3)
N3 N 0.1774(3) 0.6340(2) 0.8137(3)
C15 C 0.0545(4) 0.6656(3) 0.8964(3)
C17 C 0.0034(4) 0.6839(3) 0.8650(3)
H10 H 0.001608 0.681036 0.827505
C18 C 0.1831(3) 0.5896(3) 0.8508(3)
C24 C 0.0094(3) 0.6917(3) 0.9769(3)
C29 C 0.1306(3) 0.6628(3) 0.8285(3)
H14 H 0.116871 0.695044 0.811068
C30 C 0.1382(4) 0.5932(3) 0.8869(3)
C36 C 0.2233(4) 0.5456(3) 0.8533(4)
H19 H 0.252986 0.541742 0.828652
C37 C 0.0576(3) 0.6695(3) 0.9523(3)
H20 H 0.092187 0.657059 0.972870
C46 C 0.2173(4) 0.5070(4) 0.8945(4)
H28 H 0.244934 0.477764 0.898171
C53 C 0.1717(4) 0.5109(4) 0.9301(4)
H34 H 0.168619 0.483998 0.956532
C54 C 0.1302(4) 0.5551(3) 0.9264(4)
H35 H 0.098868 0.558252 0.949545
Cd6 Cd 0.24715(2) 0.67197(2) 0.76033(2)
Cd1 Cd 0.63767(2) 0.24284(2) 0.17440(2)
Cd2 Cd 0.75285(2) 0.67197(2) 0.73967(2)
O1 O 0.5822(2) 0.2733(2) 0.2403(2)
O2 O 0.6750(2) 0.6198(2) 0.7057(2)
O3 O 0.6786(2) 0.2764(2) 0.2738(2)
O4 O 0.2014(2) 0.2782(2) 0.6037(2)
O5 O 0.6402(3) 0.6722(2) 0.6342(2)
O6 O 0.2505(2) 0.2521(2) 0.6805(2)
N4 N 0.9011(3) 0.7234(3) 0.8587(2)
O7 O 0.6553(3) 0.1551(2) 0.2102(2)
H1 H 0.674894 0.133005 0.187882
H2 H 0.620000 0.136696 0.212925
C1 C 0.3141(4) 0.2890(3) 0.5554(3)
H3 H 0.282025 0.276602 0.531727
C2 C 0.3093(3) 0.2853(3) 0.6110(3)
C3 C 0.3666(4) 0.3110(3) 0.5351(3)
H4 H 0.369208 0.312345 0.497889
C4 C 0.6201(3) 0.5761(3) 0.6318(3)
C5 C 0.5390(3) 0.3680(3) 0.4780(3)
C6 C 0.4150(4) 0.3309(3) 0.5689(3)
C7 C 0.5388(4) 0.3190(3) 0.3335(3)
H5 H 0.510551 0.312784 0.304141
C8 C 0.4110(4) 0.3244(3) 0.6244(3)
H6 H 0.443968 0.335090 0.647918
C9 C 0.4902(3) 0.3417(3) 0.4989(3)
H7 H 0.472155 0.311619 0.480514
N6 N 0.8244(3) 0.7162(3) 0.7955(3)
C10 C 0.3598(4) 0.3028(3) 0.6452(3)
H8 H 0.358441 0.299735 0.682428
C11 C 0.5616(3) 0.3481(3) 0.4257(3)
C12 C 0.5198(3) 0.3382(3) 0.3816(3)
H9 H 0.478311 0.344763 0.384726
C13 C 0.6017(3) 0.3088(3) 0.3293(3)
C14 C 0.5703(3) 0.4818(3) 0.5802(3)
C16 C 0.2505(4) 0.2694(3) 0.6322(3)
C20 C 0.4672(3) 0.3591(3) 0.5473(3)
C21 C 0.5655(3) 0.4132(3) 0.5047(3)
H11 H 0.598438 0.430912 0.490577
C23 C 0.5881(3) 0.5270(3) 0.5501(3)
H12 H 0.584132 0.525709 0.512581
C26 C 0.5434(3) 0.4327(3) 0.5526(3)
C27 C 0.6224(4) 0.2854(3) 0.2780(3)
C28 C 0.6471(3) 0.6276(3) 0.6591(3)
C31 C 0.9574(3) 0.7112(3) 0.9470(3)
H15 H 0.925243 0.726960 0.964086
C32 C 0.9545(3) 0.7068(3) 0.8909(3)
C33 C 0.4948(3) 0.4046(3) 0.5737(3)
H16 H 0.480452 0.416508 0.606055
C34 C 0.6234(4) 0.3367(3) 0.4216(3)
H17 H 0.651650 0.342344 0.451031
C35 C 0.6428(4) 0.3167(3) 0.3727(3)
H18 H 0.684022 0.308676 0.369796
C38 C 0.8666(3) 0.7720(3) 0.8616(3)
C39 C 0.6117(4) 0.5738(3) 0.5764(3)
H21 H 0.621997 0.604235 0.556075
C40 C 0.8754(4) 0.8188(3) 0.8944(3)
H22 H 0.908092 0.821751 0.920509
C41 C 0.8727(4) 0.6921(3) 0.8191(3)
H23 H 0.886216 0.657153 0.809639
C43 C 0.6041(4) 0.5306(3) 0.6616(3)
H25 H 0.610309 0.531147 0.699033
C44 C 0.7770(4) 0.8092(3) 0.8130(3)
H26 H 0.745053 0.806362 0.786225
C45 C 0.7838(4) 0.8554(3) 0.8451(3)
H27 H 0.755570 0.884064 0.839779
C49 C 0.8320(4) 0.8608(3) 0.8857(3)
H31 H 0.834930 0.892590 0.906824
C51 C 0.8194(3) 0.7669(3) 0.8219(3)
C52 C 0.5789(4) 0.4844(3) 0.6359(3)
H33 H 0.567533 0.454413 0.656377
O8 O 0.7525(4) 0.6022(3) 0.8064(3)
H36 H 0.751222 0.616342 0.839640
H37 H 0.788112 0.584104 0.808943
Cd4 Cd 0.63767(2) 0.75716(2) 0.67440(2)
Cd5 Cd 0.13767(2) 0.25716(2) 0.67440(2)
Cd7 Cd 0.25285(2) 0.17197(2) 0.73967(2)
Cd8 Cd 0.75285(2) 0.32803(2) 0.23967(2)
O9 O 0.6786(2) 0.7236(2) 0.7738(2)
O10 O 0.7014(2) 0.2218(2) 0.1037(2)
O11 O 0.6402(3) 0.3278(2) 0.1342(2)
O12 O 0.7505(2) 0.7521(2) 0.6805(2)
O13 O 0.7505(2) 0.2479(2) 0.1805(2)
N7 N 0.8226(3) 0.6340(2) 0.6863(3)
N8 N 0.5575(3) 0.2119(3) 0.1164(2)
Cd1_2 Cd 0.36233(2) 0.24284(2) 0.32560(2)
O1_2 O 0.4178(2) 0.2733(2) 0.2597(2)
O3_2 O 0.3214(2) 0.2764(2) 0.2262(2)
O7_2 O 0.3447(3) 0.1551(2) 0.2898(2)
H1_2 H 0.325106 0.133005 0.312118
H2_2 H 0.380000 0.136696 0.287075
H4_2 H 0.630792 0.312345 0.002111
C5_2 C 0.4610(3) 0.3680(3) 0.0220(3)
C7_2 C 0.4612(4) 0.3190(3) 0.1665(3)
H5_2 H 0.489449 0.312784 0.195859
C9_2 C 0.5098(3) 0.3417(3) 0.0011(3)
H7_2 H 0.527845 0.311619 0.019486
C11_2 C 0.4384(3) 0.3481(3) 0.0743(3)
C12_2 C 0.4802(3) 0.3382(3) 0.1184(3)
H9_2 H 0.521689 0.344763 0.115274
C13_2 C 0.3983(3) 0.3088(3) 0.1707(3)
H11_2 H 0.401562 0.430912 0.009423
C27_2 C 0.3776(4) 0.2854(3) 0.2220(3)
C34_2 C 0.3766(4) 0.3367(3) 0.0784(3)
H17_2 H 0.348350 0.342344 0.048969
C35_2 C 0.3572(4) 0.3167(3) 0.1273(3)
H18_2 H 0.315978 0.308676 0.130204
Cd8_2 Cd 0.24715(2) 0.32803(2) 0.26033(2)
O10_2 O 0.2986(2) 0.2218(2) 0.3963(2)
O11_2 O 0.3598(3) 0.3278(2) 0.3658(2)
O13_2 O 0.2495(2) 0.2479(2) 0.3195(2)
N8_2 N 0.4425(3) 0.2119(3) 0.3836(2)
O2_2 O 0.3250(2) 0.6198(2) 0.7943(2)
O4_2 O 0.7986(2) 0.2782(2) 0.8963(2)
O5_2 O 0.3598(3) 0.6722(2) 0.8658(2)
O6_2 O 0.7495(2) 0.2521(2) 0.8195(2)
N4_2 N 0.0989(3) 0.7234(3) 0.6413(2)
C1_2 C 0.6859(4) 0.2890(3) 0.9446(3)
H3_2 H 0.717975 0.276602 0.968273
C2_2 C 0.6907(3) 0.2853(3) 0.8890(3)
C3_2 C 0.6334(4) 0.3110(3) 0.9649(3)
C4_2 C 0.3799(3) 0.5761(3) 0.8682(3)
C6_2 C 0.5850(4) 0.3309(3) 0.9311(3)
C8_2 C 0.5890(4) 0.3244(3) 0.8756(3)
H6_2 H 0.556032 0.335090 0.852082
N6_2 N 0.1756(3) 0.7162(3) 0.7045(3)
C10_2 C 0.6402(4) 0.3028(3) 0.8548(3)
H8_2 H 0.641559 0.299735 0.817572
C14_2 C 0.4297(3) 0.4818(3) 0.9198(3)
C16_2 C 0.7495(4) 0.2694(3) 0.8678(3)
C19 C 0.0307(4) 0.6836(3) 0.4307(3)
C20_2 C 0.5328(3) 0.3591(3) 0.9527(3)
C21_2 C 0.4345(3) 0.4132(3) 0.9953(3)
C22 C 0.0023(4) 0.6931(3) 0.3787(3)
C23_2 C 0.4119(3) 0.5270(3) 0.9499(3)
H12_2 H 0.415868 0.525709 0.987419
C26_2 C 0.4566(3) 0.4327(3) 0.9474(3)
C28_2 C 0.3529(3) 0.6276(3) 0.8409(3)
C31_2 C 0.0426(3) 0.7112(3) 0.5530(3)
H15_2 H 0.074757 0.726960 0.535914
C32_2 C 0.0455(3) 0.7068(3) 0.6091(3)
C33_2 C 0.5052(3) 0.4046(3) 0.9263(3)
H16_2 H 0.519548 0.416508 0.893945
C38_2 C 0.1334(3) 0.7720(3) 0.6384(3)
C39_2 C 0.3883(4) 0.5738(3) 0.9236(3)
H21_2 H 0.378003 0.604235 0.943925
C40_2 C 0.1246(4) 0.8188(3) 0.6056(3)
H22_2 H 0.091908 0.821751 0.579491
C41_2 C 0.1273(4) 0.6921(3) 0.6809(3)
H23_2 H 0.113784 0.657153 0.690361
C42 C 0.0912(4) 0.6651(3) 0.4384(4)
H24 H 0.109923 0.659534 0.472946
C43_2 C 0.3959(4) 0.5306(3) 0.8384(3)
H25_2 H 0.389691 0.531147 0.800967
C44_2 C 0.2230(4) 0.8092(3) 0.6870(3)
H26_2 H 0.254947 0.806362 0.713775
C45_2 C 0.2162(4) 0.8554(3) 0.6549(3)
H27_2 H 0.244430 0.884064 0.660221
C47 C 0.0339(4) 0.6843(3) 0.3327(4)
H29 H 0.015359 0.690884 0.298273
C48 C 0.1222(4) 0.6553(4) 0.3930(4)
H30 H 0.162116 0.641819 0.396819
C49_2 C 0.1680(4) 0.8608(3) 0.6143(3)
H31_2 H 0.165070 0.892590 0.593176
C50 C 0.0936(4) 0.6656(4) 0.3400(4)
H32 H 0.115756 0.659535 0.310008
C51_2 C 0.1806(3) 0.7669(3) 0.6781(3)
C52_2 C 0.4211(4) 0.4844(3) 0.8641(3)
H33_2 H 0.432467 0.454413 0.843623
O8_2 O 0.2475(4) 0.6022(3) 0.6936(3)
H36_2 H 0.248778 0.616342 0.660360
H37_2 H 0.211888 0.584104 0.691057
Cd4_2 Cd 0.36233(2) 0.75716(2) 0.82560(2)
Cd5_2 Cd 0.86233(2) 0.25716(2) 0.82560(2)
Cd7_2 Cd 0.74715(2) 0.17197(2) 0.76033(2)
O9_2 O 0.3214(2) 0.7236(2) 0.7262(2)
O12_2 O 0.2495(2) 0.7521(2) 0.8195(2)
N1_2 N 0.9868(3) 0.6959(3) 0.4662(2)
N2_2 N 0.8956(3) 0.6418(3) 0.6292(3)
N5_2 N 0.9425(3) 0.7119(3) 0.3836(2)
C15_2 C 0.9455(4) 0.6656(3) 0.6036(3)
C17_2 C 0.9966(4) 0.6839(3) 0.6350(3)
H10_2 H 0.998392 0.681036 0.672495
C18_2 C 0.8169(3) 0.5896(3) 0.6492(3)
C24_2 C 0.9906(3) 0.6917(3) 0.5231(3)
C25_2 C 0.9350(3) 0.7122(3) 0.4351(3)
H13_2 H 0.898554 0.722321 0.449414
C29_2 C 0.8694(3) 0.6628(3) 0.6715(3)
H14_2 H 0.883129 0.695044 0.688932
C30_2 C 0.8618(4) 0.5932(3) 0.6131(3)
C36_2 C 0.7767(4) 0.5456(3) 0.6467(4)
H19_2 H 0.747014 0.541742 0.671348
C37_2 C 0.9424(3) 0.6695(3) 0.5477(3)
H20_2 H 0.907813 0.657059 0.527130
C46_2 C 0.7827(4) 0.5070(4) 0.6055(4)
H28_2 H 0.755066 0.477764 0.601829
C53_2 C 0.8283(4) 0.5109(4) 0.5699(4)
H34_2 H 0.831381 0.483998 0.543468
C54_2 C 0.8698(4) 0.5551(3) 0.5736(4)
H35_2 H 0.901132 0.558252 0.550455
Cd3_2 Cd 0.86233(2) 0.74284(2) 0.32560(2)
N1_3 N 0.5132(3) 0.1959(3) 0.0338(2)
C19_2 C 0.4693(4) 0.1836(3) 0.0693(3)
C22_2 C 0.4977(4) 0.1931(3) 0.1213(3)
C25_3 C 0.5650(3) 0.2122(3) 0.0649(3)
H13_3 H 0.601446 0.222321 0.050586
C42_2 C 0.4088(4) 0.1651(3) 0.0616(4)
H24_2 H 0.390077 0.159534 0.027054
C47_2 C 0.4661(4) 0.1843(3) 0.1673(4)
H29_2 H 0.484641 0.190884 0.201727
C48_2 C 0.3778(4) 0.1553(4) 0.1070(4)
H30_2 H 0.337884 0.141819 0.103181
C50_2 C 0.4064(4) 0.1656(4) 0.1600(4)
H32_2 H 0.384244 0.159535 0.189992
O2_3 O 0.1750(2) 0.1198(2) 0.7057(2)
O5_3 O 0.1402(3) 0.1722(2) 0.6342(2)
N2_3 N 0.6044(3) 0.1418(3) 0.8708(3)
N3_2 N 0.6774(3) 0.1340(2) 0.8137(3)
N4_3 N 0.4011(3) 0.2234(3) 0.8587(2)
C4_3 C 0.1201(3) 0.0761(3) 0.6318(3)
N6_3 N 0.3244(3) 0.2162(3) 0.7955(3)
C15_3 C 0.5545(4) 0.1656(3) 0.8964(3)
C17_3 C 0.5034(4) 0.1839(3) 0.8650(3)
H10_3 H 0.501608 0.181036 0.827505
C18_3 C 0.6831(3) 0.0896(3) 0.8508(3)
C23_3 C 0.0881(3) 0.0270(3) 0.5501(3)
H12_3 H 0.084132 0.025709 0.512581
C24_3 C 0.5094(3) 0.1917(3) 0.9769(3)
C28_3 C 0.1471(3) 0.1276(3) 0.6591(3)
C29_3 C 0.6306(3) 0.1628(3) 0.8285(3)
H14_3 H 0.616871 0.195044 0.811068
C30_3 C 0.6382(4) 0.0932(3) 0.8869(3)
C31_3 C 0.4574(3) 0.2112(3) 0.9470(3)
H15_3 H 0.425243 0.226960 0.964086
C32_3 C 0.4545(3) 0.2068(3) 0.8909(3)
C36_3 C 0.7233(4) 0.0456(3) 0.8533(4)
H19_3 H 0.752986 0.041742 0.828652
C37_3 C 0.5576(3) 0.1695(3) 0.9523(3)
H20_3 H 0.592187 0.157059 0.972870
C38_3 C 0.3666(3) 0.2720(3) 0.8616(3)
C39_3 C 0.1117(4) 0.0738(3) 0.5764(3)
H21_3 H 0.121997 0.104235 0.556075
C40_3 C 0.3754(4) 0.3188(3) 0.8944(3)
H22_3 H 0.408092 0.321751 0.920509
C41_3 C 0.3727(4) 0.1921(3) 0.8191(3)
H23_3 H 0.386216 0.157153 0.809639
C43_3 C 0.1041(4) 0.0306(3) 0.6616(3)
H25_3 H 0.110309 0.031147 0.699033
C44_3 C 0.2770(4) 0.3092(3) 0.8130(3)
H26_3 H 0.245053 0.306362 0.786225
C45_3 C 0.2838(4) 0.3554(3) 0.8451(3)
H27_3 H 0.255570 0.384064 0.839779
C46_3 C 0.7173(4) 0.0070(4) 0.8945(4)
C49_3 C 0.3320(4) 0.3608(3) 0.8857(3)
H31_3 H 0.334930 0.392590 0.906824
C51_3 C 0.3194(3) 0.2669(3) 0.8219(3)
C53_3 C 0.6717(4) 0.0109(4) 0.9301(4)
C54_3 C 0.6302(4) 0.0551(3) 0.9264(4)
H35_3 H 0.598868 0.058252 0.949545
O8_3 O 0.2525(4) 0.1022(3) 0.8064(3)
H36_3 H 0.251222 0.116342 0.839640
H37_3 H 0.288112 0.084104 0.808943
O9_3 O 0.1786(2) 0.2236(2) 0.7738(2)
N7_2 N 0.3226(3) 0.1340(2) 0.6863(3)
O1_3 O 0.0822(2) 0.7733(2) 0.2403(2)
O3_3 O 0.1786(2) 0.7764(2) 0.2738(2)
O7_3 O 0.1553(3) 0.6551(2) 0.2102(2)
H1_3 H 0.174894 0.633005 0.187882
H2_3 H 0.120000 0.636696 0.212925
C5_3 C 0.0390(3) 0.8680(3) 0.4780(3)
C7_3 C 0.0388(4) 0.8190(3) 0.3335(3)
H5_3 H 0.010551 0.812784 0.304141
C11_3 C 0.0616(3) 0.8481(3) 0.4257(3)
C12_3 C 0.0198(3) 0.8382(3) 0.3816(3)
C13_3 C 0.1017(3) 0.8088(3) 0.3293(3)
C14_3 C 0.0703(3) 0.9818(3) 0.5802(3)
C21_3 C 0.0655(3) 0.9132(3) 0.5047(3)
H11_3 H 0.098438 0.930912 0.490577
C26_3 C 0.0434(3) 0.9327(3) 0.5526(3)
C27_3 C 0.1224(4) 0.7854(3) 0.2780(3)
C34_3 C 0.1234(4) 0.8367(3) 0.4216(3)
H17_3 H 0.151650 0.842344 0.451031
C35_3 C 0.1428(4) 0.8167(3) 0.3727(3)
H18_3 H 0.184022 0.808676 0.369796
H28_3 H 0.744934 0.977764 0.898171
C52_3 C 0.0789(4) 0.9844(3) 0.6359(3)
H33_3 H 0.067533 0.954413 0.656377
H34_3 H 0.668619 0.983998 0.956532
Cd8_3 Cd 0.25285(2) 0.82803(2) 0.23967(2)
O10_3 O 0.2014(2) 0.7218(2) 0.1037(2)
O11_3 O 0.1402(3) 0.8278(2) 0.1342(2)
O13_3 O 0.2505(2) 0.7479(2) 0.1805(2)
O4_3 O 0.7014(2) 0.7782(2) 0.6037(2)
C1_3 C 0.8141(4) 0.7890(3) 0.5554(3)
H3_3 H 0.782025 0.776602 0.531727
C2_3 C 0.8093(3) 0.7853(3) 0.6110(3)
C3_3 C 0.8666(4) 0.8110(3) 0.5351(3)
H4_3 H 0.869208 0.812345 0.497889
C6_3 C 0.9150(4) 0.8309(3) 0.5689(3)
C8_3 C 0.9110(4) 0.8244(3) 0.6244(3)
H6_3 H 0.943968 0.835090 0.647918
C9_3 C 0.9902(3) 0.8417(3) 0.4989(3)
H7_3 H 0.972155 0.811619 0.480514
C10_3 C 0.8598(4) 0.8028(3) 0.6452(3)
H8_3 H 0.858441 0.799735 0.682428
H9_3 H 0.978311 0.844763 0.384726
C16_3 C 0.7505(4) 0.7694(3) 0.6322(3)
C20_3 C 0.9672(3) 0.8591(3) 0.5473(3)
C33_3 C 0.9948(3) 0.9046(3) 0.5737(3)
H16_3 H 0.980452 0.916508 0.606055
O4_4 O 0.2986(2) 0.7782(2) 0.8963(2)
C1_4 C 0.1859(4) 0.7890(3) 0.9446(3)
H3_4 H 0.217975 0.776602 0.968273
C2_4 C 0.1907(3) 0.7853(3) 0.8890(3)
C3_4 C 0.1334(4) 0.8110(3) 0.9649(3)
C6_4 C 0.0850(4) 0.8309(3) 0.9311(3)
C8_4 C 0.0890(4) 0.8244(3) 0.8756(3)
H6_4 H 0.056032 0.835090 0.852082
C10_4 C 0.1402(4) 0.8028(3) 0.8548(3)
H8_4 H 0.141559 0.799735 0.817572
C16_4 C 0.2495(4) 0.7694(3) 0.8678(3)
C20_4 C 0.0328(3) 0.8591(3) 0.9527(3)
C33_4 C 0.0052(3) 0.9046(3) 0.9263(3)
H16_4 H 0.019548 0.916508 0.893945
O2_4 O 0.8250(2) 0.1198(2) 0.7943(2)
O5_4 O 0.8598(3) 0.1722(2) 0.8658(2)
N1_4 N 0.4868(3) 0.1959(3) 0.4662(2)
N2_4 N 0.3956(3) 0.1418(3) 0.6292(3)
N4_4 N 0.5989(3) 0.2234(3) 0.6413(2)
C4_4 C 0.8799(3) 0.0761(3) 0.8682(3)
N6_4 N 0.6756(3) 0.2162(3) 0.7045(3)
C15_4 C 0.4455(4) 0.1656(3) 0.6036(3)
C17_4 C 0.4966(4) 0.1839(3) 0.6350(3)
H10_4 H 0.498392 0.181036 0.672495
C18_4 C 0.3169(3) 0.0896(3) 0.6492(3)
C19_3 C 0.5307(4) 0.1836(3) 0.4307(3)
C22_3 C 0.5023(4) 0.1931(3) 0.3787(3)
C23_4 C 0.9119(3) 0.0270(3) 0.9499(3)
H12_4 H 0.915868 0.025709 0.987419
C24_4 C 0.4906(3) 0.1917(3) 0.5231(3)
C25_4 C 0.4350(3) 0.2122(3) 0.4351(3)
H13_4 H 0.398554 0.222321 0.449414
C28_4 C 0.8529(3) 0.1276(3) 0.8409(3)
C29_4 C 0.3694(3) 0.1628(3) 0.6715(3)
H14_4 H 0.383129 0.195044 0.688932
C30_4 C 0.3618(4) 0.0932(3) 0.6131(3)
C31_4 C 0.5426(3) 0.2112(3) 0.5530(3)
H15_4 H 0.574757 0.226960 0.535914
C32_4 C 0.5455(3) 0.2068(3) 0.6091(3)
C36_4 C 0.2767(4) 0.0456(3) 0.6467(4)
H19_4 H 0.247014 0.041742 0.671348
C37_4 C 0.4424(3) 0.1695(3) 0.5477(3)
H20_4 H 0.407813 0.157059 0.527130
C38_4 C 0.6334(3) 0.2720(3) 0.6384(3)
C39_4 C 0.8883(4) 0.0738(3) 0.9236(3)
H21_4 H 0.878003 0.104235 0.943925
C40_4 C 0.6246(4) 0.3188(3) 0.6056(3)
H22_4 H 0.591908 0.321751 0.579491
C41_4 C 0.6273(4) 0.1921(3) 0.6809(3)
H23_4 H 0.613784 0.157153 0.690361
C42_3 C 0.5912(4) 0.1651(3) 0.4384(4)
H24_3 H 0.609923 0.159534 0.472946
C43_4 C 0.8959(4) 0.0306(3) 0.8384(3)
H25_4 H 0.889691 0.031147 0.800967
C44_4 C 0.7230(4) 0.3092(3) 0.6870(3)
H26_4 H 0.754947 0.306362 0.713775
C45_4 C 0.7162(4) 0.3554(3) 0.6549(3)
H27_4 H 0.744430 0.384064 0.660221
C46_4 C 0.2827(4) 0.0070(4) 0.6055(4)
C47_3 C 0.5339(4) 0.1843(3) 0.3327(4)
H29_3 H 0.515359 0.190884 0.298273
C48_3 C 0.6222(4) 0.1553(4) 0.3930(4)
H30_3 H 0.662116 0.141819 0.396819
C49_4 C 0.6680(4) 0.3608(3) 0.6143(3)
H31_4 H 0.665070 0.392590 0.593176
C50_3 C 0.5936(4) 0.1656(4) 0.3400(4)
H32_3 H 0.615756 0.159535 0.310008
C51_4 C 0.6806(3) 0.2669(3) 0.6781(3)
C53_4 C 0.3283(4) 0.0109(4) 0.5699(4)
C54_4 C 0.3698(4) 0.0551(3) 0.5736(4)
H35_4 H 0.401132 0.058252 0.550455
O8_4 O 0.7475(4) 0.1022(3) 0.6936(3)
H36_4 H 0.748778 0.116342 0.660360
H37_4 H 0.711888 0.084104 0.691057
O9_4 O 0.8214(2) 0.2236(2) 0.7262(2)
O1_4 O 0.9178(2) 0.7733(2) 0.2597(2)
O3_4 O 0.8214(2) 0.7764(2) 0.2262(2)
O7_4 O 0.8447(3) 0.6551(2) 0.2898(2)
H1_4 H 0.825106 0.633005 0.312118
H2_4 H 0.880000 0.636696 0.287075
C5_4 C 0.9610(3) 0.8680(3) 0.0220(3)
C7_4 C 0.9612(4) 0.8190(3) 0.1665(3)
H5_4 H 0.989449 0.812784 0.195859
C11_4 C 0.9384(3) 0.8481(3) 0.0743(3)
C12_4 C 0.9802(3) 0.8382(3) 0.1184(3)
C13_4 C 0.8983(3) 0.8088(3) 0.1707(3)
H11_4 H 0.901562 0.930912 0.009423
C27_4 C 0.8776(4) 0.7854(3) 0.2220(3)
C34_4 C 0.8766(4) 0.8367(3) 0.0784(3)
H17_4 H 0.848350 0.842344 0.048969
C35_4 C 0.8572(4) 0.8167(3) 0.1273(3)
H18_4 H 0.815978 0.808676 0.130204
Cd8_4 Cd 0.74715(2) 0.82803(2) 0.26033(2)
O10_4 O 0.7986(2) 0.7218(2) 0.3963(2)
O11_4 O 0.8598(3) 0.8278(2) 0.3658(2)
O13_4 O 0.7495(2) 0.7479(2) 0.3195(2)
O1_5 O 0.4178(2) 0.7267(2) 0.7597(2)
O2_5 O 0.3250(2) 0.3802(2) 0.2943(2)
N4_5 N 0.0989(3) 0.2766(3) 0.1413(2)
O7_5 O 0.3447(3) 0.8449(2) 0.7898(2)
H1_5 H 0.325106 0.866995 0.812118
H2_5 H 0.380000 0.863304 0.787075
C1_5 C 0.6859(4) 0.7110(3) 0.4446(3)
H3_5 H 0.717975 0.723398 0.468273
C2_5 C 0.6907(3) 0.7147(3) 0.3890(3)
C3_5 C 0.6334(4) 0.6890(3) 0.4649(3)
H4_4 H 0.630792 0.687655 0.502111
C4_5 C 0.3799(3) 0.4239(3) 0.3682(3)
C5_5 C 0.4610(3) 0.6320(3) 0.5220(3)
C6_5 C 0.5850(4) 0.6691(3) 0.4311(3)
C7_5 C 0.4612(4) 0.6810(3) 0.6665(3)
H5_5 H 0.489449 0.687216 0.695859
C8_5 C 0.5890(4) 0.6756(3) 0.3756(3)
H6_5 H 0.556032 0.664910 0.352082
C9_4 C 0.5098(3) 0.6583(3) 0.5011(3)
H7_4 H 0.527845 0.688381 0.519486
N6_5 N 0.1756(3) 0.2838(3) 0.2045(3)
C10_5 C 0.6402(4) 0.6972(3) 0.3548(3)
H8_5 H 0.641559 0.700265 0.317572
C11_5 C 0.4384(3) 0.6519(3) 0.5743(3)
C12_5 C 0.4802(3) 0.6618(3) 0.6184(3)
H9_4 H 0.521689 0.655237 0.615274
C13_5 C 0.3983(3) 0.6912(3) 0.6707(3)
C14_4 C 0.4297(3) 0.5182(3) 0.4198(3)
C16_5 C 0.7495(4) 0.7306(3) 0.3678(3)
C20_5 C 0.5328(3) 0.6409(3) 0.4527(3)
C21_4 C 0.4345(3) 0.5868(3) 0.4953(3)
H11_5 H 0.401562 0.569088 0.509423
C23_5 C 0.4119(3) 0.4730(3) 0.4499(3)
H12_5 H 0.415868 0.474291 0.487419
C26_4 C 0.4566(3) 0.5673(3) 0.4474(3)
C27_5 C 0.3776(4) 0.7146(3) 0.7220(3)
C28_5 C 0.3529(3) 0.3724(3) 0.3409(3)
C31_5 C 0.0426(3) 0.2888(3) 0.0530(3)
H15_5 H 0.074757 0.273040 0.035914
C32_5 C 0.0455(3) 0.2932(3) 0.1091(3)
C33_5 C 0.5052(3) 0.5954(3) 0.4263(3)
H16_5 H 0.519548 0.583492 0.393945
C34_5 C 0.3766(4) 0.6633(3) 0.5784(3)
H17_5 H 0.348350 0.657656 0.548969
C35_5 C 0.3572(4) 0.6833(3) 0.6273(3)
H18_5 H 0.315978 0.691324 0.630204
C38_5 C 0.1334(3) 0.2280(3) 0.1384(3)
C39_5 C 0.3883(4) 0.4262(3) 0.4236(3)
H21_5 H 0.378003 0.395765 0.443925
C40_5 C 0.1246(4) 0.1812(3) 0.1056(3)
H22_5 H 0.091908 0.178249 0.079491
C41_5 C 0.1273(4) 0.3079(3) 0.1809(3)
H23_5 H 0.113784 0.342847 0.190361
C43_5 C 0.3959(4) 0.4694(3) 0.3384(3)
H25_5 H 0.389691 0.468853 0.300967
C44_5 C 0.2230(4) 0.1908(3) 0.1870(3)
H26_5 H 0.254947 0.193638 0.213775
C45_5 C 0.2162(4) 0.1446(3) 0.1549(3)
H27_5 H 0.244430 0.115936 0.160221
C49_5 C 0.1680(4) 0.1392(3) 0.1143(3)
H31_5 H 0.165070 0.107410 0.093176
C51_5 C 0.1806(3) 0.2331(3) 0.1781(3)
C52_4 C 0.4211(4) 0.5156(3) 0.3641(3)
H33_4 H 0.432467 0.545587 0.343623
O8_5 O 0.2475(4) 0.3978(3) 0.1936(3)
H36_5 H 0.248778 0.383658 0.160360
H37_5 H 0.211888 0.415896 0.191057
N7_3 N 0.1774(3) 0.3660(2) 0.3137(3)
N8_3 N 0.4425(3) 0.7881(3) 0.8836(2)
N2_5 N 0.8956(3) 0.3582(3) 0.1292(3)
N3_3 N 0.8226(3) 0.3660(2) 0.1863(3)
C15_5 C 0.9455(4) 0.3344(3) 0.1036(3)
C17_5 C 0.9966(4) 0.3161(3) 0.1350(3)
H10_5 H 0.998392 0.318964 0.172495
C18_5 C 0.8169(3) 0.4104(3) 0.1492(3)
C24_5 C 0.9906(3) 0.3083(3) 0.0231(3)
C29_5 C 0.8694(3) 0.3372(3) 0.1715(3)
H14_5 H 0.883129 0.304956 0.188932
C30_5 C 0.8618(4) 0.4068(3) 0.1131(3)
C36_5 C 0.7767(4) 0.4544(3) 0.1467(4)
H19_5 H 0.747014 0.458258 0.171348
C37_5 C 0.9424(3) 0.3305(3) 0.0477(3)
H20_5 H 0.907813 0.342941 0.027130
C46_5 C 0.7827(4) 0.4930(4) 0.1055(4)
H28_4 H 0.755066 0.522236 0.101829
C53_5 C 0.8283(4) 0.4891(4) 0.0699(4)
H34_4 H 0.831381 0.516002 0.043468
C54_5 C 0.8698(4) 0.4449(3) 0.0736(4)
H35_5 H 0.901132 0.441748 0.050455
N1_5 N 0.9868(3) 0.3041(3) 0.9662(2)
N5_3 N 0.9425(3) 0.2881(3) 0.8836(2)
C25_5 C 0.9350(3) 0.2878(3) 0.9351(3)
H13_5 H 0.898554 0.277679 0.949414
N1_6 N 0.0132(3) 0.3041(3) 0.5338(2)
N2_6 N 0.1044(3) 0.3582(3) 0.3708(3)
N5_4 N 0.0575(3) 0.2881(3) 0.6164(2)
C15_6 C 0.0545(4) 0.3344(3) 0.3964(3)
C17_6 C 0.0034(4) 0.3161(3) 0.3650(3)
H10_6 H 0.001608 0.318964 0.327505
C18_6 C 0.1831(3) 0.4104(3) 0.3508(3)
C24_6 C 0.0094(3) 0.3083(3) 0.4769(3)
C25_6 C 0.0650(3) 0.2878(3) 0.5649(3)
H13_6 H 0.101446 0.277679 0.550586
C29_6 C 0.1306(3) 0.3372(3) 0.3285(3)
H14_6 H 0.116871 0.304956 0.311068
C30_6 C 0.1382(4) 0.4068(3) 0.3869(3)
C36_6 C 0.2233(4) 0.4544(3) 0.3533(4)
H19_6 H 0.252986 0.458258 0.328652
C37_6 C 0.0576(3) 0.3305(3) 0.4523(3)
H20_6 H 0.092187 0.342941 0.472870
C46_6 C 0.2173(4) 0.4930(4) 0.3945(4)
H28_5 H 0.244934 0.522236 0.398171
C53_6 C 0.1717(4) 0.4891(4) 0.4301(4)
H34_5 H 0.168619 0.516002 0.456532
C54_6 C 0.1302(4) 0.4449(3) 0.4264(4)
H35_6 H 0.098868 0.441748 0.449545
O2_6 O 0.6750(2) 0.3802(2) 0.2057(2)
N4_6 N 0.9011(3) 0.2766(3) 0.3587(2)
C1_6 C 0.3141(4) 0.7110(3) 0.0554(3)
H3_6 H 0.282025 0.723398 0.031727
C2_6 C 0.3093(3) 0.7147(3) 0.1110(3)
C3_6 C 0.3666(4) 0.6890(3) 0.0351(3)
C4_6 C 0.6201(3) 0.4239(3) 0.1318(3)
C6_6 C 0.4150(4) 0.6691(3) 0.0689(3)
C8_6 C 0.4110(4) 0.6756(3) 0.1244(3)
H6_6 H 0.443968 0.664910 0.147918
N6_6 N 0.8244(3) 0.2838(3) 0.2955(3)
C10_6 C 0.3598(4) 0.6972(3) 0.1452(3)
H8_6 H 0.358441 0.700265 0.182428
C14_5 C 0.5703(3) 0.5182(3) 0.0802(3)
C16_6 C 0.2505(4) 0.7306(3) 0.1322(3)
C19_4 C 0.9693(4) 0.3164(3) 0.5693(3)
C20_6 C 0.4672(3) 0.6409(3) 0.0473(3)
C21_5 C 0.5655(3) 0.5868(3) 0.0047(3)
C22_4 C 0.9977(4) 0.3069(3) 0.6213(3)
C23_6 C 0.5881(3) 0.4730(3) 0.0501(3)
H12_6 H 0.584132 0.474291 0.012581
C26_5 C 0.5434(3) 0.5673(3) 0.0526(3)
C28_6 C 0.6471(3) 0.3724(3) 0.1591(3)
C31_6 C 0.9574(3) 0.2888(3) 0.4470(3)
H15_6 H 0.925243 0.273040 0.464086
C32_6 C 0.9545(3) 0.2932(3) 0.3909(3)
C33_6 C 0.4948(3) 0.5954(3) 0.0737(3)
H16_6 H 0.480452 0.583492 0.106055
C38_6 C 0.8666(3) 0.2280(3) 0.3616(3)
C39_6 C 0.6117(4) 0.4262(3) 0.0764(3)
H21_6 H 0.621997 0.395765 0.056075
C40_6 C 0.8754(4) 0.1812(3) 0.3944(3)
H22_6 H 0.908092 0.178249 0.420509
C41_6 C 0.8727(4) 0.3079(3) 0.3191(3)
H23_6 H 0.886216 0.342847 0.309639
C42_4 C 0.9088(4) 0.3349(3) 0.5616(4)
H24_4 H 0.890077 0.340466 0.527054
C43_6 C 0.6041(4) 0.4694(3) 0.1616(3)
H25_6 H 0.610309 0.468853 0.199033
C44_6 C 0.7770(4) 0.1908(3) 0.3130(3)
H26_6 H 0.745053 0.193638 0.286225
C45_6 C 0.7838(4) 0.1446(3) 0.3451(3)
H27_6 H 0.755570 0.115936 0.339779
C47_4 C 0.9661(4) 0.3157(3) 0.6673(4)
H29_4 H 0.984641 0.309116 0.701727
C48_4 C 0.8778(4) 0.3447(4) 0.6070(4)
H30_4 H 0.837884 0.358181 0.603181
C49_6 C 0.8320(4) 0.1392(3) 0.3857(3)
H31_6 H 0.834930 0.107410 0.406824
C50_4 C 0.9064(4) 0.3344(4) 0.6600(4)
H32_4 H 0.884244 0.340465 0.689992
C51_6 C 0.8194(3) 0.2331(3) 0.3219(3)
C52_5 C 0.5789(4) 0.5156(3) 0.1359(3)
H33_5 H 0.567533 0.545587 0.156377
O8_6 O 0.7525(4) 0.3978(3) 0.3064(3)
H36_6 H 0.751222 0.383658 0.339640
H37_6 H 0.788112 0.415896 0.308943
O1_6 O 0.5822(2) 0.7267(2) 0.7403(2)
O7_6 O 0.6553(3) 0.8449(2) 0.7102(2)
H1_6 H 0.674894 0.866995 0.687882
H2_6 H 0.620000 0.863304 0.712925
H4_5 H 0.369208 0.687655 0.997889
C5_6 C 0.5390(3) 0.6320(3) 0.9780(3)
C7_6 C 0.5388(4) 0.6810(3) 0.8335(3)
H5_6 H 0.510551 0.687216 0.804141
C9_5 C 0.4902(3) 0.6583(3) 0.9989(3)
H7_5 H 0.472155 0.688381 0.980514
C11_6 C 0.5616(3) 0.6519(3) 0.9257(3)
C12_6 C 0.5198(3) 0.6618(3) 0.8816(3)
H9_5 H 0.478311 0.655237 0.884726
C13_6 C 0.6017(3) 0.6912(3) 0.8293(3)
H11_6 H 0.598438 0.569088 0.990577
C27_6 C 0.6224(4) 0.7146(3) 0.7780(3)
C34_6 C 0.6234(4) 0.6633(3) 0.9216(3)
H17_6 H 0.651650 0.657656 0.951031
C35_6 C 0.6428(4) 0.6833(3) 0.8727(3)
H18_6 H 0.684022 0.691324 0.869796
N8_4 N 0.5575(3) 0.7881(3) 0.6164(2)
C1_7 C 0.1859(4) 0.2110(3) 0.4446(3)
H3_7 H 0.217975 0.223398 0.468273
C2_7 C 0.1907(3) 0.2147(3) 0.3890(3)
C3_7 C 0.1334(4) 0.1890(3) 0.4649(3)
H4_6 H 0.130792 0.187655 0.502111
C6_7 C 0.0850(4) 0.1691(3) 0.4311(3)
C8_7 C 0.0890(4) 0.1756(3) 0.3756(3)
H6_7 H 0.056032 0.164910 0.352082
C9_6 C 0.0098(3) 0.1583(3) 0.5011(3)
H7_6 H 0.027845 0.188381 0.519486
C10_7 C 0.1402(4) 0.1972(3) 0.3548(3)
H8_7 H 0.141559 0.200265 0.317572
H9_6 H 0.021689 0.155237 0.615274
C16_7 C 0.2495(4) 0.2306(3) 0.3678(3)
C20_7 C 0.0328(3) 0.1409(3) 0.4527(3)
C33_7 C 0.0052(3) 0.0954(3) 0.4263(3)
H16_7 H 0.019548 0.083492 0.393945
O1_7 O 0.9178(2) 0.2267(2) 0.7597(2)
O7_7 O 0.8447(3) 0.3449(2) 0.7898(2)
H1_7 H 0.825106 0.366995 0.812118
H2_7 H 0.880000 0.363304 0.787075
C5_7 C 0.9610(3) 0.1320(3) 0.5220(3)
C7_7 C 0.9612(4) 0.1810(3) 0.6665(3)
H5_7 H 0.989449 0.187216 0.695859
C11_7 C 0.9384(3) 0.1519(3) 0.5743(3)
C12_7 C 0.9802(3) 0.1618(3) 0.6184(3)
C13_7 C 0.8983(3) 0.1912(3) 0.6707(3)
C14_6 C 0.9297(3) 0.0182(3) 0.4198(3)
C21_6 C 0.9345(3) 0.0868(3) 0.4953(3)
H11_7 H 0.901562 0.069088 0.509423
C26_6 C 0.9566(3) 0.0673(3) 0.4474(3)
C27_7 C 0.8776(4) 0.2146(3) 0.7220(3)
C34_7 C 0.8766(4) 0.1633(3) 0.5784(3)
H17_7 H 0.848350 0.157656 0.548969
C35_7 C 0.8572(4) 0.1833(3) 0.6273(3)
H18_7 H 0.815978 0.191324 0.630204
H28_6 H 0.255066 0.022236 0.101829
C52_6 C 0.9211(4) 0.0156(3) 0.3641(3)
H33_6 H 0.932467 0.045587 0.343623
H34_6 H 0.331381 0.016002 0.043468
O2_7 O 0.8250(2) 0.8802(2) 0.2943(2)
N2_7 N 0.3956(3) 0.8582(3) 0.1292(3)
N3_4 N 0.3226(3) 0.8660(2) 0.1863(3)
N4_7 N 0.5989(3) 0.7766(3) 0.1413(2)
C4_7 C 0.8799(3) 0.9239(3) 0.3682(3)
N6_7 N 0.6756(3) 0.7838(3) 0.2045(3)
C15_7 C 0.4455(4) 0.8344(3) 0.1036(3)
C17_7 C 0.4966(4) 0.8161(3) 0.1350(3)
H10_7 H 0.498392 0.818964 0.172495
C18_7 C 0.3169(3) 0.9104(3) 0.1492(3)
C23_7 C 0.9119(3) 0.9730(3) 0.4499(3)
H12_7 H 0.915868 0.974291 0.487419
C24_7 C 0.4906(3) 0.8083(3) 0.0231(3)
C28_7 C 0.8529(3) 0.8724(3) 0.3409(3)
C29_7 C 0.3694(3) 0.8372(3) 0.1715(3)
H14_7 H 0.383129 0.804956 0.188932
C30_7 C 0.3618(4) 0.9068(3) 0.1131(3)
C31_7 C 0.5426(3) 0.7888(3) 0.0530(3)
H15_7 H 0.574757 0.773040 0.035914
C32_7 C 0.5455(3) 0.7932(3) 0.1091(3)
C36_7 C 0.2767(4) 0.9544(3) 0.1467(4)
H19_7 H 0.247014 0.958258 0.171348
C37_7 C 0.4424(3) 0.8305(3) 0.0477(3)
H20_7 H 0.407813 0.842941 0.027130
C38_7 C 0.6334(3) 0.7280(3) 0.1384(3)
C39_7 C 0.8883(4) 0.9262(3) 0.4236(3)
H21_7 H 0.878003 0.895765 0.443925
C40_7 C 0.6246(4) 0.6812(3) 0.1056(3)
H22_7 H 0.591908 0.678249 0.079491
C41_7 C 0.6273(4) 0.8079(3) 0.1809(3)
H23_7 H 0.613784 0.842847 0.190361
C43_7 C 0.8959(4) 0.9694(3) 0.3384(3)
H25_7 H 0.889691 0.968853 0.300967
C44_7 C 0.7230(4) 0.6908(3) 0.1870(3)
H26_7 H 0.754947 0.693638 0.213775
C45_7 C 0.7162(4) 0.6446(3) 0.1549(3)
H27_7 H 0.744430 0.615936 0.160221
C46_7 C 0.2827(4) 0.9930(4) 0.1055(4)
C49_7 C 0.6680(4) 0.6392(3) 0.1143(3)
H31_7 H 0.665070 0.607410 0.093176
C51_7 C 0.6806(3) 0.7331(3) 0.1781(3)
C53_7 C 0.3283(4) 0.9891(4) 0.0699(4)
C54_7 C 0.3698(4) 0.9449(3) 0.0736(4)
H35_7 H 0.401132 0.941748 0.050455
O8_7 O 0.7475(4) 0.8978(3) 0.1936(3)
H36_7 H 0.748778 0.883658 0.160360
H37_7 H 0.711888 0.915896 0.191057
N7_4 N 0.6774(3) 0.8660(2) 0.3137(3)
N1_7 N 0.4868(3) 0.8041(3) 0.9662(2)
C19_5 C 0.5307(4) 0.8164(3) 0.9307(3)
C22_5 C 0.5023(4) 0.8069(3) 0.8787(3)
C25_7 C 0.4350(3) 0.7878(3) 0.9351(3)
H13_7 H 0.398554 0.777679 0.949414
C42_5 C 0.5912(4) 0.8349(3) 0.9384(4)
H24_5 H 0.609923 0.840466 0.972946
C47_5 C 0.5339(4) 0.8157(3) 0.8327(4)
H29_5 H 0.515359 0.809116 0.798273
C48_5 C 0.6222(4) 0.8447(4) 0.8930(4)
H30_5 H 0.662116 0.858181 0.896819
C50_5 C 0.5936(4) 0.8344(4) 0.8400(4)
H32_5 H 0.615756 0.840465 0.810008
O1_8 O 0.0822(2) 0.2267(2) 0.7403(2)
O7_8 O 0.1553(3) 0.3449(2) 0.7102(2)
H1_8 H 0.174894 0.366995 0.687882
H2_8 H 0.120000 0.363304 0.712925
C5_8 C 0.0390(3) 0.1320(3) 0.9780(3)
C7_8 C 0.0388(4) 0.1810(3) 0.8335(3)
H5_8 H 0.010551 0.187216 0.804141
C11_8 C 0.0616(3) 0.1519(3) 0.9257(3)
C12_8 C 0.0198(3) 0.1618(3) 0.8816(3)
C13_8 C 0.1017(3) 0.1912(3) 0.8293(3)
H11_8 H 0.098438 0.069088 0.990577
C27_8 C 0.1224(4) 0.2146(3) 0.7780(3)
C34_8 C 0.1234(4) 0.1633(3) 0.9216(3)
H17_8 H 0.151650 0.157656 0.951031
C35_8 C 0.1428(4) 0.1833(3) 0.8727(3)
H18_8 H 0.184022 0.191324 0.869796
O2_8 O 0.1750(2) 0.8802(2) 0.2057(2)
N1_8 N 0.5132(3) 0.8041(3) 0.5338(2)
N2_8 N 0.6044(3) 0.8582(3) 0.3708(3)
N4_8 N 0.4011(3) 0.7766(3) 0.3587(2)
C4_8 C 0.1201(3) 0.9239(3) 0.1318(3)
N6_8 N 0.3244(3) 0.7838(3) 0.2955(3)
C15_8 C 0.5545(4) 0.8344(3) 0.3964(3)
C17_8 C 0.5034(4) 0.8161(3) 0.3650(3)
H10_8 H 0.501608 0.818964 0.327505
C18_8 C 0.6831(3) 0.9104(3) 0.3508(3)
C19_6 C 0.4693(4) 0.8164(3) 0.5693(3)
C22_6 C 0.4977(4) 0.8069(3) 0.6213(3)
C23_8 C 0.0881(3) 0.9730(3) 0.0501(3)
H12_8 H 0.084132 0.974291 0.012581
C24_8 C 0.5094(3) 0.8083(3) 0.4769(3)
C25_8 C 0.5650(3) 0.7878(3) 0.5649(3)
H13_8 H 0.601446 0.777679 0.550586
C28_8 C 0.1471(3) 0.8724(3) 0.1591(3)
C29_8 C 0.6306(3) 0.8372(3) 0.3285(3)
H14_8 H 0.616871 0.804956 0.311068
C30_8 C 0.6382(4) 0.9068(3) 0.3869(3)
C31_8 C 0.4574(3) 0.7888(3) 0.4470(3)
H15_8 H 0.425243 0.773040 0.464086
C32_8 C 0.4545(3) 0.7932(3) 0.3909(3)
C36_8 C 0.7233(4) 0.9544(3) 0.3533(4)
H19_8 H 0.752986 0.958258 0.328652
C37_8 C 0.5576(3) 0.8305(3) 0.4523(3)
H20_8 H 0.592187 0.842941 0.472870
C38_8 C 0.3666(3) 0.7280(3) 0.3616(3)
C39_8 C 0.1117(4) 0.9262(3) 0.0764(3)
H21_8 H 0.121997 0.895765 0.056075
C40_8 C 0.3754(4) 0.6812(3) 0.3944(3)
H22_8 H 0.408092 0.678249 0.420509
C41_8 C 0.3727(4) 0.8079(3) 0.3191(3)
H23_8 H 0.386216 0.842847 0.309639
C42_6 C 0.4088(4) 0.8349(3) 0.5616(4)
H24_6 H 0.390077 0.840466 0.527054
C43_8 C 0.1041(4) 0.9694(3) 0.1616(3)
H25_8 H 0.110309 0.968853 0.199033
C44_8 C 0.2770(4) 0.6908(3) 0.3130(3)
H26_8 H 0.245053 0.693638 0.286225
C45_8 C 0.2838(4) 0.6446(3) 0.3451(3)
H27_8 H 0.255570 0.615936 0.339779
C46_8 C 0.7173(4) 0.9930(4) 0.3945(4)
C47_6 C 0.4661(4) 0.8157(3) 0.6673(4)
H29_6 H 0.484641 0.809116 0.701727
C48_6 C 0.3778(4) 0.8447(4) 0.6070(4)
H30_6 H 0.337884 0.858181 0.603181
C49_8 C 0.3320(4) 0.6392(3) 0.3857(3)
H31_8 H 0.334930 0.607410 0.406824
C50_6 C 0.4064(4) 0.8344(4) 0.6600(4)
H32_6 H 0.384244 0.840465 0.689992
C51_8 C 0.3194(3) 0.7331(3) 0.3219(3)
C53_8 C 0.6717(4) 0.9891(4) 0.4301(4)
C54_8 C 0.6302(4) 0.9449(3) 0.4264(4)
H35_8 H 0.598868 0.941748 0.449545
O8_8 O 0.2525(4) 0.8978(3) 0.3064(3)
H36_8 H 0.251222 0.883658 0.339640
H37_8 H 0.288112 0.915896 0.308943
C1_8 C 0.8141(4) 0.2110(3) 0.0554(3)
H3_8 H 0.782025 0.223398 0.031727
C2_8 C 0.8093(3) 0.2147(3) 0.1110(3)
C3_8 C 0.8666(4) 0.1890(3) 0.0351(3)
C6_8 C 0.9150(4) 0.1691(3) 0.0689(3)
C8_8 C 0.9110(4) 0.1756(3) 0.1244(3)
H6_8 H 0.943968 0.164910 0.147918
C10_8 C 0.8598(4) 0.1972(3) 0.1452(3)
H8_8 H 0.858441 0.200265 0.182428
C16_8 C 0.7505(4) 0.2306(3) 0.1322(3)
C20_8 C 0.9672(3) 0.1409(3) 0.0473(3)
C33_8 C 0.9948(3) 0.0954(3) 0.0737(3)
H16_8 H 0.980452 0.083492 0.106055
C19_7 C 0.9693(4) 0.6836(3) 0.0693(3)
C22_7 C 0.9977(4) 0.6931(3) 0.1213(3)
C42_7 C 0.9088(4) 0.6651(3) 0.0616(4)
H24_7 H 0.890077 0.659534 0.027054
C47_7 C 0.9661(4) 0.6843(3) 0.1673(4)
H29_7 H 0.984641 0.690884 0.201727
C48_7 C 0.8778(4) 0.6553(4) 0.1070(4)
H30_7 H 0.837884 0.641819 0.103181
C50_7 C 0.9064(4) 0.6656(4) 0.1600(4)
H32_7 H 0.884244 0.659535 0.189992
H4_7 H 0.130792 0.812345 0.002111
C9_7 C 0.0098(3) 0.8417(3) 0.0011(3)
H7_7 H 0.027845 0.811619 0.019486
H9_7 H 0.021689 0.844763 0.115274
C14_7 C 0.9297(3) 0.9818(3) 0.9198(3)
C21_7 C 0.9345(3) 0.9132(3) 0.9953(3)
C26_7 C 0.9566(3) 0.9327(3) 0.9474(3)
H28_7 H 0.255066 0.977764 0.601829
C52_7 C 0.9211(4) 0.9844(3) 0.8641(3)
H33_7 H 0.932467 0.954413 0.843623
H34_7 H 0.331381 0.983998 0.543468
C19_8 C 0.0307(4) 0.3164(3) 0.9307(3)
C22_8 C 0.0023(4) 0.3069(3) 0.8787(3)
C42_8 C 0.0912(4) 0.3349(3) 0.9384(4)
H24_8 H 0.109923 0.340466 0.972946
C47_8 C 0.0339(4) 0.3157(3) 0.8327(4)
H29_8 H 0.015359 0.309116 0.798273
C48_8 C 0.1222(4) 0.3447(4) 0.8930(4)
H30_8 H 0.162116 0.358181 0.896819
C50_8 C 0.0936(4) 0.3344(4) 0.8400(4)
H32_8 H 0.115756 0.340465 0.810008
C14_8 C 0.0703(3) 0.0182(3) 0.0802(3)
C21_8 C 0.0655(3) 0.0868(3) 0.0047(3)
C26_8 C 0.0434(3) 0.0673(3) 0.0526(3)
H28_8 H 0.744934 0.022236 0.398171
C52_8 C 0.0789(4) 0.0156(3) 0.1359(3)
H33_8 H 0.067533 0.045587 0.156377
H34_8 H 0.668619 0.016002 0.456532
H4_8 H 0.869208 0.187655 0.997889
C9_8 C 0.9902(3) 0.1583(3) 0.9989(3)
H7_8 H 0.972155 0.188381 0.980514
H9_8 H 0.978311 0.155237 0.884726
Cr1 Cr 0.500000 0.9152(3) 0.250000
O14 O 0.4415(9) 0.9279(9) 0.2972(9)
O15 O 0.561(2) 0.9667(18) 0.270(3)
O16 O 0.5585(9) 0.9279(9) 0.2028(9)
O17 O 0.439(2) 0.9667(18) 0.230(3)
H38 H 0.44024 0.99711 0.256936
H39 H 0.576562 0.960151 0.308097
H38_2 H 0.55976 0.99711 0.243064
H39_2 H 0.423438 0.960151 0.191903
Cr1_2 Cr -0.000000 0.4152(3) 0.250000
O15_2 O 0.061(2) 0.4667(18) 0.270(3)
O16_2 O 0.0585(9) 0.4279(9) 0.2028(9)
H39_3 H 0.0765622 0.460151 0.308097
H38_3 H 0.0597599 0.49711 0.243064
Cr1_3 Cr 1.000000 0.4152(3) 0.250000
O14_2 O 0.9415(9) 0.4279(9) 0.2972(9)
O17_2 O 0.939(2) 0.4667(18) 0.230(3)
H38_4 H 0.94024 0.49711 0.256936
H39_4 H 0.923438 0.460151 0.191903
Cr1_4 Cr 0.500000 0.0848(3) 0.750000
O14_3 O 0.5585(9) 0.0721(9) 0.7028(9)
O15_3 O 0.439(2) 0.0333(18) 0.730(3)
O16_3 O 0.4415(9) 0.0721(9) 0.7972(9)
O17_3 O 0.561(2) 0.0333(18) 0.770(3)
H38_5 H 0.55976 0.00288991 0.743064
H39_5 H 0.423438 0.039849 0.691903
H38_6 H 0.44024 0.00288991 0.756936
H39_6 H 0.576562 0.039849 0.808097
Cr1_5 Cr 0.000000 0.5848(3) 0.750000
O14_4 O 0.0585(9) 0.5721(9) 0.7028(9)
O17_4 O 0.061(2) 0.5333(18) 0.770(3)
H38_7 H 0.0597599 0.50289 0.743064
H39_7 H 0.0765622 0.539849 0.808097
Cr1_6 Cr 1.000000 0.5848(3) 0.750000
O15_4 O 0.939(2) 0.5333(18) 0.730(3)
O16_4 O 0.9415(9) 0.5721(9) 0.7972(9)
H39_8 H 0.923438 0.539849 0.691903
H38_8 H 0.94024 0.50289 0.756936
loop_
_geom_bond_atom_site_label_1
_geom_bond_atom_site_label_2
_geom_bond_site_symmetry_1
_geom_bond_site_symmetry_2
C25 N1 1_555 1_555
H13 C25 1_555 1_555
Cd3 N5 1_555 1_555
N5 C25 1_555 1_555
N2 C15 1_555 1_555
N3 C18 1_555 1_555
C15 C17 1_555 1_555
C17 H10 1_555 1_555
C18 C30 1_555 1_555
C29 N2 1_555 1_555
H14 C29 1_555 1_555
C30 N2 1_555 1_555
C36 C18 1_555 1_555
H19 C36 1_555 1_555
C37 C15 1_555 1_555
H20 C37 1_555 1_555
C46 C36 1_555 1_555
H28 C46 1_555 1_555
C53 C46 1_555 1_555
H34 C53 1_555 1_555
C54 C30 1_555 1_555
H35 C54 1_555 1_555
Cd6 N3 1_555 1_555
N3 C29 1_555 1_555
C24 C37 1_555 1_555
C53 C54 1_555 1_555
Cd1 O1 1_555 1_555
Cd2 O2 1_555 1_555
O1 C27 1_555 1_555
O2 C28 1_555 1_555
O3 Cd1 1_555 1_555
O4 C16 1_555 1_555
O5 C28 1_555 1_555
O6 C16 1_555 1_555
N4 C32 1_555 1_555
O7 Cd1 1_555 1_555
H1 O7 1_555 1_555
H2 O7 1_555 1_555
C1 H3 1_555 1_555
C2 C1 1_555 1_555
C3 C1 1_555 1_555
H4 C3 1_555 1_555
C4 C28 1_555 1_555
C5 C9 1_555 1_555
C6 C3 1_555 1_555
C7 H5 1_555 1_555
C8 C6 1_555 1_555
H6 C8 1_555 1_555
C9 H7 1_555 1_555
N6 Cd2 1_555 1_555
C10 C2 1_555 1_555
H8 C10 1_555 1_555
C11 C5 1_555 1_555
C12 C7 1_555 1_555
H9 C12 1_555 1_555
C13 C7 1_555 1_555
C14 C23 1_555 1_555
C16 C2 1_555 1_555
C20 C6 1_555 1_555
C21 C5 1_555 1_555
H11 C21 1_555 1_555
C23 H12 1_555 1_555
C26 C14 1_555 1_555
C27 O3 1_555 1_555
H15 C31 1_555 1_555
C33 C20 1_555 1_555
H16 C33 1_555 1_555
C34 C11 1_555 1_555
H17 C34 1_555 1_555
C35 C13 1_555 1_555
H18 C35 1_555 1_555
C38 N4 1_555 1_555
C39 C4 1_555 1_555
H21 C39 1_555 1_555
C40 C38 1_555 1_555
H22 C40 1_555 1_555
C41 N4 1_555 1_555
H23 C41 1_555 1_555
C43 C4 1_555 1_555
H25 C43 1_555 1_555
C44 H26 1_555 1_555
C45 C44 1_555 1_555
H27 C45 1_555 1_555
C49 C40 1_555 1_555
H31 C49 1_555 1_555
C51 N6 1_555 1_555
C52 C14 1_555 1_555
H33 C52 1_555 1_555
O8 Cd2 1_555 1_555
H36 O8 1_555 1_555
H37 O8 1_555 1_555
Cd4 O5 1_555 1_555
Cd5 O4 1_555 1_555
Cd7 O6 1_555 1_555
Cd8 O3 1_555 1_555
O9 Cd2 1_555 1_555
O10 Cd1 1_555 1_555
O11 Cd1 1_555 1_555
O12 Cd2 1_555 1_555
O13 Cd1 1_555 1_555
N7 Cd2 1_555 1_555
N8 Cd1 1_555 1_555
O6 Cd5 1_555 1_555
C8 C10 1_555 1_555
C9 C20 1_555 1_555
N6 C41 1_555 1_555
C11 C12 1_555 1_555
C13 C27 1_555 1_555
C21 C26 1_555 1_555
C23 C39 1_555 1_555
C26 C33 1_555 1_555
C31 C32 1_555 1_555
C34 C35 1_555 1_555
C38 C51 1_555 1_555
C43 C52 1_555 1_555
C44 C51 1_555 1_555
C45 C49 1_555 1_555
Cd4 O9 1_555 1_555
Cd4 O12 1_555 1_555
Cd8 O13 1_555 1_555
Cd1_2 O1_2 1_555 1_555
O1_2 C27_2 1_555 1_555
O3_2 Cd1_2 1_555 1_555
O7_2 Cd1_2 1_555 1_555
H1_2 O7_2 1_555 1_555
H2_2 O7_2 1_555 1_555
C5_2 C9_2 1_555 1_555
C7_2 H5_2 1_555 1_555
C9_2 H7_2 1_555 1_555
C11_2 C5_2 1_555 1_555
C12_2 C7_2 1_555 1_555
H9_2 C12_2 1_555 1_555
C13_2 C7_2 1_555 1_555
C27_2 O3_2 1_555 1_555
C34_2 C11_2 1_555 1_555
H17_2 C34_2 1_555 1_555
C35_2 C13_2 1_555 1_555
H18_2 C35_2 1_555 1_555
Cd8_2 O3_2 1_555 1_555
O10_2 Cd1_2 1_555 1_555
O11_2 Cd1_2 1_555 1_555
O13_2 Cd1_2 1_555 1_555
N8_2 Cd1_2 1_555 1_555
C11_2 C12_2 1_555 1_555
C13_2 C27_2 1_555 1_555
C34_2 C35_2 1_555 1_555
Cd8_2 O13_2 1_555 1_555
Cd6 O2_2 1_555 1_555
O2_2 C28_2 1_555 1_555
O4_2 C16_2 1_555 1_555
O5_2 C28_2 1_555 1_555
O6_2 C16_2 1_555 1_555
N4_2 C32_2 1_555 1_555
C1_2 H3_2 1_555 1_555
C2_2 C1_2 1_555 1_555
C3_2 C1_2 1_555 1_555
C4_2 C28_2 1_555 1_555
C6_2 C3_2 1_555 1_555
C8_2 C6_2 1_555 1_555
H6_2 C8_2 1_555 1_555
N6_2 Cd6 1_555 1_555
C10_2 C2_2 1_555 1_555
H8_2 C10_2 1_555 1_555
C14_2 C23_2 1_555 1_555
C16_2 C2_2 1_555 1_555
C19 C22 1_555 1_555
C20_2 C6_2 1_555 1_555
C22 C47 1_555 1_555
C23_2 H12_2 1_555 1_555
C26_2 C14_2 1_555 1_555
H15_2 C31_2 1_555 1_555
C33_2 C20_2 1_555 1_555
H16_2 C33_2 1_555 1_555
C38_2 N4_2 1_555 1_555
C39_2 C4_2 1_555 1_555
H21_2 C39_2 1_555 1_555
C40_2 C38_2 1_555 1_555
H22_2 C40_2 1_555 1_555
C41_2 N4_2 1_555 1_555
H23_2 C41_2 1_555 1_555
C42 C19 1_555 1_555
H24 C42 1_555 1_555
C43_2 C4_2 1_555 1_555
H25_2 C43_2 1_555 1_555
C44_2 H26_2 1_555 1_555
C45_2 C44_2 1_555 1_555
H27_2 C45_2 1_555 1_555
C47 H29 1_555 1_555
C48 C42 1_555 1_555
H30 C48 1_555 1_555
C49_2 C40_2 1_555 1_555
H31_2 C49_2 1_555 1_555
C50 C47 1_555 1_555
H32 C50 1_555 1_555
C51_2 N6_2 1_555 1_555
C52_2 C14_2 1_555 1_555
H33_2 C52_2 1_555 1_555
O8_2 Cd6 1_555 1_555
H36_2 O8_2 1_555 1_555
H37_2 O8_2 1_555 1_555
Cd4_2 O5_2 1_555 1_555
Cd5_2 O4_2 1_555 1_555
Cd7_2 O6_2 1_555 1_555
O9_2 Cd6 1_555 1_555
O12_2 Cd6 1_555 1_555
O6_2 Cd5_2 1_555 1_555
C8_2 C10_2 1_555 1_555
N6_2 C41_2 1_555 1_555
C21_2 C26_2 1_555 1_555
C23_2 C39_2 1_555 1_555
C26_2 C33_2 1_555 1_555
C31_2 C32_2 1_555 1_555
C38_2 C51_2 1_555 1_555
C43_2 C52_2 1_555 1_555
C44_2 C51_2 1_555 1_555
C45_2 C49_2 1_555 1_555
C48 C50 1_555 1_555
Cd4_2 O9_2 1_555 1_555
Cd4_2 O12_2 1_555 1_555
N2_2 C15_2 1_555 1_555
N7 C18_2 1_555 1_555
C15_2 C17_2 1_555 1_555
C17_2 H10_2 1_555 1_555
C18_2 C30_2 1_555 1_555
C24_2 N1_2 1_555 1_555
C25_2 N1_2 1_555 1_555
H13_2 C25_2 1_555 1_555
C29_2 N2_2 1_555 1_555
H14_2 C29_2 1_555 1_555
C30_2 N2_2 1_555 1_555
C36_2 C18_2 1_555 1_555
H19_2 C36_2 1_555 1_555
C37_2 C15_2 1_555 1_555
H20_2 C37_2 1_555 1_555
C46_2 C36_2 1_555 1_555
H28_2 C46_2 1_555 1_555
C53_2 C46_2 1_555 1_555
H34_2 C53_2 1_555 1_555
C54_2 C30_2 1_555 1_555
H35_2 C54_2 1_555 1_555
Cd3_2 N5_2 1_555 1_555
N7 C29_2 1_555 1_555
N5_2 C25_2 1_555 1_555
C24_2 C37_2 1_555 1_555
C53_2 C54_2 1_555 1_555
N1_3 C19_2 1_555 1_555
N8 C22_2 1_555 1_555
C19_2 C22_2 1_555 1_555
C22_2 C47_2 1_555 1_555
C25_3 N1_3 1_555 1_555
H13_3 C25_3 1_555 1_555
C42_2 C19_2 1_555 1_555
H24_2 C42_2 1_555 1_555
C47_2 H29_2 1_555 1_555
C48_2 C42_2 1_555 1_555
H30_2 C48_2 1_555 1_555
C50_2 C47_2 1_555 1_555
H32_2 C50_2 1_555 1_555
N8 C25_3 1_555 1_555
C48_2 C50_2 1_555 1_555
Cd7 O2_3 1_555 1_555
O2_3 C28_3 1_555 1_555
O5_3 C28_3 1_555 1_555
N2_3 C15_3 1_555 1_555
N3_2 C18_3 1_555 1_555
N4_3 C32_3 1_555 1_555
C4_3 C28_3 1_555 1_555
N6_3 Cd7 1_555 1_555
C15_3 C17_3 1_555 1_555
C17_3 H10_3 1_555 1_555
C18_3 C30_3 1_555 1_555
C23_3 H12_3 1_555 1_555
C29_3 N2_3 1_555 1_555
H14_3 C29_3 1_555 1_555
C30_3 N2_3 1_555 1_555
C31_3 C24_3 1_555 1_555
H15_3 C31_3 1_555 1_555
C32_3 C17_3 1_555 1_555
C36_3 C18_3 1_555 1_555
H19_3 C36_3 1_555 1_555
C37_3 C15_3 1_555 1_555
H20_3 C37_3 1_555 1_555
C38_3 N4_3 1_555 1_555
C39_3 C4_3 1_555 1_555
H21_3 C39_3 1_555 1_555
C40_3 C38_3 1_555 1_555
H22_3 C40_3 1_555 1_555
C41_3 N4_3 1_555 1_555
H23_3 C41_3 1_555 1_555
C43_3 C4_3 1_555 1_555
H25_3 C43_3 1_555 1_555
C44_3 H26_3 1_555 1_555
C45_3 C44_3 1_555 1_555
H27_3 C45_3 1_555 1_555
C46_3 C36_3 1_555 1_555
C49_3 C40_3 1_555 1_555
H31_3 C49_3 1_555 1_555
C51_3 N6_3 1_555 1_555
C53_3 C46_3 1_555 1_555
C54_3 C30_3 1_555 1_555
H35_3 C54_3 1_555 1_555
O8_3 Cd7 1_555 1_555
H36_3 O8_3 1_555 1_555
H37_3 O8_3 1_555 1_555
Cd5 O5_3 1_555 1_555
Cd7_2 N3_2 1_555 1_555
O9_3 Cd7 1_555 1_555
N7_2 Cd7 1_555 1_555
N3_2 C29_3 1_555 1_555
N6_3 C41_3 1_555 1_555
C23_3 C39_3 1_555 1_555
C24_3 C37_3 1_555 1_555
C31_3 C32_3 1_555 1_555
C38_3 C51_3 1_555 1_555
C44_3 C51_3 1_555 1_555
C45_3 C49_3 1_555 1_555
C53_3 C54_3 1_555 1_555
Cd5 O9_3 1_555 1_555
Cd3 O1_3 1_555 1_555
O1_3 C27_3 1_555 1_555
O3_3 Cd3 1_555 1_555
O7_3 Cd3 1_555 1_555
H1_3 O7_3 1_555 1_555
H2_3 O7_3 1_555 1_555
C7_3 H5_3 1_555 1_555
C11_3 C5_3 1_555 1_555
C12_3 C7_3 1_555 1_555
C13_3 C7_3 1_555 1_555
C21_3 C5_3 1_555 1_555
H11_3 C21_3 1_555 1_555
C26_3 C14_3 1_555 1_555
C27_3 O3_3 1_555 1_555
C34_3 C11_3 1_555 1_555
H17_3 C34_3 1_555 1_555
C35_3 C13_3 1_555 1_555
H18_3 C35_3 1_555 1_555
C52_3 C14_3 1_555 1_555
H33_3 C52_3 1_555 1_555
Cd8_3 O3_3 1_555 1_555
O10_3 Cd3 1_555 1_555
O11_3 Cd3 1_555 1_555
O13_3 Cd3 1_555 1_555
C11_3 C12_3 1_555 1_555
C13_3 C27_3 1_555 1_555
C21_3 C26_3 1_555 1_555
C34_3 C35_3 1_555 1_555
Cd8_3 O13_3 1_555 1_555
O4_3 C16_3 1_555 1_555
O12 C16_3 1_555 1_555
C1_3 H3_3 1_555 1_555
C2_3 C1_3 1_555 1_555
C3_3 C1_3 1_555 1_555
H4_3 C3_3 1_555 1_555
C6_3 C3_3 1_555 1_555
C8_3 C6_3 1_555 1_555
H6_3 C8_3 1_555 1_555
C9_3 H7_3 1_555 1_555
C10_3 C2_3 1_555 1_555
H8_3 C10_3 1_555 1_555
C16_3 C2_3 1_555 1_555
C20_3 C6_3 1_555 1_555
C33_3 C20_3 1_555 1_555
H16_3 C33_3 1_555 1_555
Cd4 O4_3 1_555 1_555
C8_3 C10_3 1_555 1_555
C9_3 C20_3 1_555 1_555
O4_4 C16_4 1_555 1_555
O12_2 C16_4 1_555 1_555
C1_4 H3_4 1_555 1_555
C2_4 C1_4 1_555 1_555
C3_4 C1_4 1_555 1_555
C6_4 C3_4 1_555 1_555
C8_4 C6_4 1_555 1_555
H6_4 C8_4 1_555 1_555
C10_4 C2_4 1_555 1_555
H8_4 C10_4 1_555 1_555
C16_4 C2_4 1_555 1_555
C20_4 C6_4 1_555 1_555
C33_4 C20_4 1_555 1_555
H16_4 C33_4 1_555 1_555
Cd4_2 O4_4 1_555 1_555
C8_4 C10_4 1_555 1_555
Cd7_2 O2_4 1_555 1_555
O2_4 C28_4 1_555 1_555
O5_4 C28_4 1_555 1_555
N1_4 C19_3 1_555 1_555
N2_4 C15_4 1_555 1_555
N7_2 C18_4 1_555 1_555
N4_4 C32_4 1_555 1_555
N8_2 C22_3 1_555 1_555
C4_4 C28_4 1_555 1_555
N6_4 Cd7_2 1_555 1_555
C15_4 C17_4 1_555 1_555
C17_4 H10_4 1_555 1_555
C18_4 C30_4 1_555 1_555
C19_3 C22_3 1_555 1_555
C22_3 C47_3 1_555 1_555
C23_4 H12_4 1_555 1_555
C24_4 N1_4 1_555 1_555
C25_4 N1_4 1_555 1_555
H13_4 C25_4 1_555 1_555
C29_4 N2_4 1_555 1_555
H14_4 C29_4 1_555 1_555
C30_4 N2_4 1_555 1_555
C31_4 C24_4 1_555 1_555
H15_4 C31_4 1_555 1_555
C32_4 C17_4 1_555 1_555
C36_4 C18_4 1_555 1_555
H19_4 C36_4 1_555 1_555
C37_4 C15_4 1_555 1_555
H20_4 C37_4 1_555 1_555
C38_4 N4_4 1_555 1_555
C39_4 C4_4 1_555 1_555
H21_4 C39_4 1_555 1_555
C40_4 C38_4 1_555 1_555
H22_4 C40_4 1_555 1_555
C41_4 N4_4 1_555 1_555
H23_4 C41_4 1_555 1_555
C42_3 C19_3 1_555 1_555
H24_3 C42_3 1_555 1_555
C43_4 C4_4 1_555 1_555
H25_4 C43_4 1_555 1_555
C44_4 H26_4 1_555 1_555
C45_4 C44_4 1_555 1_555
H27_4 C45_4 1_555 1_555
C46_4 C36_4 1_555 1_555
C47_3 H29_3 1_555 1_555
C48_3 C42_3 1_555 1_555
H30_3 C48_3 1_555 1_555
C49_4 C40_4 1_555 1_555
H31_4 C49_4 1_555 1_555
C50_3 C47_3 1_555 1_555
H32_3 C50_3 1_555 1_555
C51_4 N6_4 1_555 1_555
C53_4 C46_4 1_555 1_555
C54_4 C30_4 1_555 1_555
H35_4 C54_4 1_555 1_555
O8_4 Cd7_2 1_555 1_555
H36_4 O8_4 1_555 1_555
H37_4 O8_4 1_555 1_555
Cd5_2 O5_4 1_555 1_555
O9_4 Cd7_2 1_555 1_555
N7_2 C29_4 1_555 1_555
N8_2 C25_4 1_555 1_555
N6_4 C41_4 1_555 1_555
C23_4 C39_4 1_555 1_555
C24_4 C37_4 1_555 1_555
C31_4 C32_4 1_555 1_555
C38_4 C51_4 1_555 1_555
C44_4 C51_4 1_555 1_555
C45_4 C49_4 1_555 1_555
C48_3 C50_3 1_555 1_555
C53_4 C54_4 1_555 1_555
Cd5_2 O9_4 1_555 1_555
Cd3_2 O1_4 1_555 1_555
O1_4 C27_4 1_555 1_555
O3_4 Cd3_2 1_555 1_555
O7_4 Cd3_2 1_555 1_555
H1_4 O7_4 1_555 1_555
H2_4 O7_4 1_555 1_555
C7_4 H5_4 1_555 1_555
C11_4 C5_4 1_555 1_555
C12_4 C7_4 1_555 1_555
C13_4 C7_4 1_555 1_555
C27_4 O3_4 1_555 1_555
C34_4 C11_4 1_555 1_555
H17_4 C34_4 1_555 1_555
C35_4 C13_4 1_555 1_555
H18_4 C35_4 1_555 1_555
Cd8_4 O3_4 1_555 1_555
O10_4 Cd3_2 1_555 1_555
O11_4 Cd3_2 1_555 1_555
O13_4 Cd3_2 1_555 1_555
C11_4 C12_4 1_555 1_555
C13_4 C27_4 1_555 1_555
C34_4 C35_4 1_555 1_555
Cd8_4 O13_4 1_555 1_555
Cd4_2 O1_5 1_555 1_555
Cd8_2 O2_5 1_555 1_555
O1_5 C27_5 1_555 1_555
O2_5 C28_5 1_555 1_555
O10_4 C16_5 1_555 1_555
O11_2 C28_5 1_555 1_555
O13_4 C16_5 1_555 1_555
N4_5 C32_5 1_555 1_555
O7_5 Cd4_2 1_555 1_555
H1_5 O7_5 1_555 1_555
H2_5 O7_5 1_555 1_555
C1_5 H3_5 1_555 1_555
C2_5 C1_5 1_555 1_555
C3_5 C1_5 1_555 1_555
H4_4 C3_5 1_555 1_555
C4_5 C28_5 1_555 1_555
C5_5 C9_4 1_555 1_555
C6_5 C3_5 1_555 1_555
C7_5 H5_5 1_555 1_555
C8_5 C6_5 1_555 1_555
H6_5 C8_5 1_555 1_555
C9_4 H7_4 1_555 1_555
N6_5 Cd8_2 1_555 1_555
C10_5 C2_5 1_555 1_555
H8_5 C10_5 1_555 1_555
C11_5 C5_5 1_555 1_555
C12_5 C7_5 1_555 1_555
H9_4 C12_5 1_555 1_555
C13_5 C7_5 1_555 1_555
C14_4 C23_5 1_555 1_555
C16_5 C2_5 1_555 1_555
C20_5 C6_5 1_555 1_555
C21_4 C5_5 1_555 1_555
H11_5 C21_4 1_555 1_555
C23_5 H12_5 1_555 1_555
C26_4 C14_4 1_555 1_555
C27_5 O9_2 1_555 1_555
H15_5 C31_5 1_555 1_555
C33_5 C20_5 1_555 1_555
H16_5 C33_5 1_555 1_555
C34_5 C11_5 1_555 1_555
H17_5 C34_5 1_555 1_555
C35_5 C13_5 1_555 1_555
H18_5 C35_5 1_555 1_555
C38_5 N4_5 1_555 1_555
C39_5 C4_5 1_555 1_555
H21_5 C39_5 1_555 1_555
C40_5 C38_5 1_555 1_555
H22_5 C40_5 1_555 1_555
C41_5 N4_5 1_555 1_555
H23_5 C41_5 1_555 1_555
C43_5 C4_5 1_555 1_555
H25_5 C43_5 1_555 1_555
C44_5 H26_5 1_555 1_555
C45_5 C44_5 1_555 1_555
H27_5 C45_5 1_555 1_555
C49_5 C40_5 1_555 1_555
H31_5 C49_5 1_555 1_555
C51_5 N6_5 1_555 1_555
C52_4 C14_4 1_555 1_555
H33_4 C52_4 1_555 1_555
O8_5 Cd8_2 1_555 1_555
H36_5 O8_5 1_555 1_555
H37_5 O8_5 1_555 1_555
N7_3 Cd8_2 1_555 1_555
N8_3 Cd4_2 1_555 1_555
C8_5 C10_5 1_555 1_555
C9_4 C20_5 1_555 1_555
N6_5 C41_5 1_555 1_555
C11_5 C12_5 1_555 1_555
C13_5 C27_5 1_555 1_555
C21_4 C26_4 1_555 1_555
C23_5 C39_5 1_555 1_555
C26_4 C33_5 1_555 1_555
C31_5 C32_5 1_555 1_555
C34_5 C35_5 1_555 1_555
C38_5 C51_5 1_555 1_555
C43_5 C52_4 1_555 1_555
C44_5 C51_5 1_555 1_555
C45_5 C49_5 1_555 1_555
N2_5 C15_5 1_555 1_555
N3_3 C18_5 1_555 1_555
C15_5 C17_5 1_555 1_555
C17_5 H10_5 1_555 1_555
C18_5 C30_5 1_555 1_555
C29_5 N2_5 1_555 1_555
H14_5 C29_5 1_555 1_555
C30_5 N2_5 1_555 1_555
C36_5 C18_5 1_555 1_555
H19_5 C36_5 1_555 1_555
C37_5 C15_5 1_555 1_555
H20_5 C37_5 1_555 1_555
C46_5 C36_5 1_555 1_555
H28_4 C46_5 1_555 1_555
C53_5 C46_5 1_555 1_555
H34_4 C53_5 1_555 1_555
C54_5 C30_5 1_555 1_555
H35_5 C54_5 1_555 1_555
Cd8 N3_3 1_555 1_555
N3_3 C29_5 1_555 1_555
C24_5 C37_5 1_555 1_555
C53_5 C54_5 1_555 1_555
C25_5 N1_5 1_555 1_555
H13_5 C25_5 1_555 1_555
Cd5_2 N5_3 1_555 1_555
N5_3 C25_5 1_555 1_555
N2_6 C15_6 1_555 1_555
N7_3 C18_6 1_555 1_555
C15_6 C17_6 1_555 1_555
C17_6 H10_6 1_555 1_555
C18_6 C30_6 1_555 1_555
C24_6 N1_6 1_555 1_555
C25_6 N1_6 1_555 1_555
H13_6 C25_6 1_555 1_555
C29_6 N2_6 1_555 1_555
H14_6 C29_6 1_555 1_555
C30_6 N2_6 1_555 1_555
C36_6 C18_6 1_555 1_555
H19_6 C36_6 1_555 1_555
C37_6 C15_6 1_555 1_555
H20_6 C37_6 1_555 1_555
C46_6 C36_6 1_555 1_555
H28_5 C46_6 1_555 1_555
C53_6 C46_6 1_555 1_555
H34_5 C53_6 1_555 1_555
C54_6 C30_6 1_555 1_555
H35_6 C54_6 1_555 1_555
Cd5 N5_4 1_555 1_555
N7_3 C29_6 1_555 1_555
N5_4 C25_6 1_555 1_555
C24_6 C37_6 1_555 1_555
C53_6 C54_6 1_555 1_555
Cd8 O2_6 1_555 1_555
O2_6 C28_6 1_555 1_555
O10_3 C16_6 1_555 1_555
O11 C28_6 1_555 1_555
O13_3 C16_6 1_555 1_555
N4_6 C32_6 1_555 1_555
C1_6 H3_6 1_555 1_555
C2_6 C1_6 1_555 1_555
C3_6 C1_6 1_555 1_555
C4_6 C28_6 1_555 1_555
C6_6 C3_6 1_555 1_555
C8_6 C6_6 1_555 1_555
H6_6 C8_6 1_555 1_555
N6_6 Cd8 1_555 1_555
C10_6 C2_6 1_555 1_555
H8_6 C10_6 1_555 1_555
C14_5 C23_6 1_555 1_555
C16_6 C2_6 1_555 1_555
C19_4 C22_4 1_555 1_555
C20_6 C6_6 1_555 1_555
C22_4 C47_4 1_555 1_555
C23_6 H12_6 1_555 1_555
C26_5 C14_5 1_555 1_555
H15_6 C31_6 1_555 1_555
C33_6 C20_6 1_555 1_555
H16_6 C33_6 1_555 1_555
C38_6 N4_6 1_555 1_555
C39_6 C4_6 1_555 1_555
H21_6 C39_6 1_555 1_555
C40_6 C38_6 1_555 1_555
H22_6 C40_6 1_555 1_555
C41_6 N4_6 1_555 1_555
H23_6 C41_6 1_555 1_555
C42_4 C19_4 1_555 1_555
H24_4 C42_4 1_555 1_555
C43_6 C4_6 1_555 1_555
H25_6 C43_6 1_555 1_555
C44_6 H26_6 1_555 1_555
C45_6 C44_6 1_555 1_555
H27_6 C45_6 1_555 1_555
C47_4 H29_4 1_555 1_555
C48_4 C42_4 1_555 1_555
H30_4 C48_4 1_555 1_555
C49_6 C40_6 1_555 1_555
H31_6 C49_6 1_555 1_555
C50_4 C47_4 1_555 1_555
H32_4 C50_4 1_555 1_555
C51_6 N6_6 1_555 1_555
C52_5 C14_5 1_555 1_555
H33_5 C52_5 1_555 1_555
O8_6 Cd8 1_555 1_555
H36_6 O8_6 1_555 1_555
H37_6 O8_6 1_555 1_555
C8_6 C10_6 1_555 1_555
N6_6 C41_6 1_555 1_555
C21_5 C26_5 1_555 1_555
C23_6 C39_6 1_555 1_555
C26_5 C33_6 1_555 1_555
C31_6 C32_6 1_555 1_555
C38_6 C51_6 1_555 1_555
C43_6 C52_5 1_555 1_555
C44_6 C51_6 1_555 1_555
C45_6 C49_6 1_555 1_555
C48_4 C50_4 1_555 1_555
Cd4 O1_6 1_555 1_555
O1_6 C27_6 1_555 1_555
O7_6 Cd4 1_555 1_555
H1_6 O7_6 1_555 1_555
H2_6 O7_6 1_555 1_555
C5_6 C9_5 1_555 1_555
C7_6 H5_6 1_555 1_555
C9_5 H7_5 1_555 1_555
C11_6 C5_6 1_555 1_555
C12_6 C7_6 1_555 1_555
H9_5 C12_6 1_555 1_555
C13_6 C7_6 1_555 1_555
C27_6 O9 1_555 1_555
C34_6 C11_6 1_555 1_555
H17_6 C34_6 1_555 1_555
C35_6 C13_6 1_555 1_555
H18_6 C35_6 1_555 1_555
N8_4 Cd4 1_555 1_555
C11_6 C12_6 1_555 1_555
C13_6 C27_6 1_555 1_555
C34_6 C35_6 1_555 1_555
O10_2 C16_7 1_555 1_555
O13_2 C16_7 1_555 1_555
C1_7 H3_7 1_555 1_555
C2_7 C1_7 1_555 1_555
C3_7 C1_7 1_555 1_555
H4_6 C3_7 1_555 1_555
C6_7 C3_7 1_555 1_555
C8_7 C6_7 1_555 1_555
H6_7 C8_7 1_555 1_555
C9_6 H7_6 1_555 1_555
C10_7 C2_7 1_555 1_555
H8_7 C10_7 1_555 1_555
C16_7 C2_7 1_555 1_555
C20_7 C6_7 1_555 1_555
C33_7 C20_7 1_555 1_555
H16_7 C33_7 1_555 1_555
C8_7 C10_7 1_555 1_555
C9_6 C20_7 1_555 1_555
Cd5_2 O1_7 1_555 1_555
O1_7 C27_7 1_555 1_555
O7_7 Cd5_2 1_555 1_555
H1_7 O7_7 1_555 1_555
H2_7 O7_7 1_555 1_555
C7_7 H5_7 1_555 1_555
C11_7 C5_7 1_555 1_555
C12_7 C7_7 1_555 1_555
C13_7 C7_7 1_555 1_555
C21_6 C5_7 1_555 1_555
H11_7 C21_6 1_555 1_555
C26_6 C14_6 1_555 1_555
C27_7 O9_4 1_555 1_555
C34_7 C11_7 1_555 1_555
H17_7 C34_7 1_555 1_555
C35_7 C13_7 1_555 1_555
H18_7 C35_7 1_555 1_555
C52_6 C14_6 1_555 1_555
H33_6 C52_6 1_555 1_555
C11_7 C12_7 1_555 1_555
C13_7 C27_7 1_555 1_555
C21_6 C26_6 1_555 1_555
C34_7 C35_7 1_555 1_555
Cd8_4 O2_7 1_555 1_555
O2_7 C28_7 1_555 1_555
O11_4 C28_7 1_555 1_555
N2_7 C15_7 1_555 1_555
N3_4 C18_7 1_555 1_555
N4_7 C32_7 1_555 1_555
C4_7 C28_7 1_555 1_555
N6_7 Cd8_4 1_555 1_555
C15_7 C17_7 1_555 1_555
C17_7 H10_7 1_555 1_555
C18_7 C30_7 1_555 1_555
C23_7 H12_7 1_555 1_555
C29_7 N2_7 1_555 1_555
H14_7 C29_7 1_555 1_555
C30_7 N2_7 1_555 1_555
C31_7 C24_7 1_555 1_555
H15_7 C31_7 1_555 1_555
C32_7 C17_7 1_555 1_555
C36_7 C18_7 1_555 1_555
H19_7 C36_7 1_555 1_555
C37_7 C15_7 1_555 1_555
H20_7 C37_7 1_555 1_555
C38_7 N4_7 1_555 1_555
C39_7 C4_7 1_555 1_555
H21_7 C39_7 1_555 1_555
C40_7 C38_7 1_555 1_555
H22_7 C40_7 1_555 1_555
C41_7 N4_7 1_555 1_555
H23_7 C41_7 1_555 1_555
C43_7 C4_7 1_555 1_555
H25_7 C43_7 1_555 1_555
C44_7 H26_7 1_555 1_555
C45_7 C44_7 1_555 1_555
H27_7 C45_7 1_555 1_555
C46_7 C36_7 1_555 1_555
C49_7 C40_7 1_555 1_555
H31_7 C49_7 1_555 1_555
C51_7 N6_7 1_555 1_555
C53_7 C46_7 1_555 1_555
C54_7 C30_7 1_555 1_555
H35_7 C54_7 1_555 1_555
O8_7 Cd8_4 1_555 1_555
H36_7 O8_7 1_555 1_555
H37_7 O8_7 1_555 1_555
Cd8_3 N3_4 1_555 1_555
N7_4 Cd8_4 1_555 1_555
N3_4 C29_7 1_555 1_555
N6_7 C41_7 1_555 1_555
C23_7 C39_7 1_555 1_555
C24_7 C37_7 1_555 1_555
C31_7 C32_7 1_555 1_555
C38_7 C51_7 1_555 1_555
C44_7 C51_7 1_555 1_555
C45_7 C49_7 1_555 1_555
C53_7 C54_7 1_555 1_555
N1_7 C19_5 1_555 1_555
N8_3 C22_5 1_555 1_555
C19_5 C22_5 1_555 1_555
C22_5 C47_5 1_555 1_555
C25_7 N1_7 1_555 1_555
H13_7 C25_7 1_555 1_555
C42_5 C19_5 1_555 1_555
H24_5 C42_5 1_555 1_555
C47_5 H29_5 1_555 1_555
C48_5 C42_5 1_555 1_555
H30_5 C48_5 1_555 1_555
C50_5 C47_5 1_555 1_555
H32_5 C50_5 1_555 1_555
N8_3 C25_7 1_555 1_555
C48_5 C50_5 1_555 1_555
Cd5 O1_8 1_555 1_555
O1_8 C27_8 1_555 1_555
O7_8 Cd5 1_555 1_555
H1_8 O7_8 1_555 1_555
H2_8 O7_8 1_555 1_555
C7_8 H5_8 1_555 1_555
C11_8 C5_8 1_555 1_555
C12_8 C7_8 1_555 1_555
C13_8 C7_8 1_555 1_555
C27_8 O9_3 1_555 1_555
C34_8 C11_8 1_555 1_555
H17_8 C34_8 1_555 1_555
C35_8 C13_8 1_555 1_555
H18_8 C35_8 1_555 1_555
C11_8 C12_8 1_555 1_555
C13_8 C27_8 1_555 1_555
C34_8 C35_8 1_555 1_555
Cd8_3 O2_8 1_555 1_555
O2_8 C28_8 1_555 1_555
O11_3 C28_8 1_555 1_555
N1_8 C19_6 1_555 1_555
N2_8 C15_8 1_555 1_555
N7_4 C18_8 1_555 1_555
N4_8 C32_8 1_555 1_555
N8_4 C22_6 1_555 1_555
C4_8 C28_8 1_555 1_555
N6_8 Cd8_3 1_555 1_555
C15_8 C17_8 1_555 1_555
C17_8 H10_8 1_555 1_555
C18_8 C30_8 1_555 1_555
C19_6 C22_6 1_555 1_555
C22_6 C47_6 1_555 1_555
C23_8 H12_8 1_555 1_555
C24_8 N1_8 1_555 1_555
C25_8 N1_8 1_555 1_555
H13_8 C25_8 1_555 1_555
C29_8 N2_8 1_555 1_555
H14_8 C29_8 1_555 1_555
C30_8 N2_8 1_555 1_555
C31_8 C24_8 1_555 1_555
H15_8 C31_8 1_555 1_555
C32_8 C17_8 1_555 1_555
C36_8 C18_8 1_555 1_555
H19_8 C36_8 1_555 1_555
C37_8 C15_8 1_555 1_555
H20_8 C37_8 1_555 1_555
C38_8 N4_8 1_555 1_555
C39_8 C4_8 1_555 1_555
H21_8 C39_8 1_555 1_555
C40_8 C38_8 1_555 1_555
H22_8 C40_8 1_555 1_555
C41_8 N4_8 1_555 1_555
H23_8 C41_8 1_555 1_555
C42_6 C19_6 1_555 1_555
H24_6 C42_6 1_555 1_555
C43_8 C4_8 1_555 1_555
H25_8 C43_8 1_555 1_555
C44_8 H26_8 1_555 1_555
C45_8 C44_8 1_555 1_555
H27_8 C45_8 1_555 1_555
C46_8 C36_8 1_555 1_555
C47_6 H29_6 1_555 1_555
C48_6 C42_6 1_555 1_555
H30_6 C48_6 1_555 1_555
C49_8 C40_8 1_555 1_555
H31_8 C49_8 1_555 1_555
C50_6 C47_6 1_555 1_555
H32_6 C50_6 1_555 1_555
C51_8 N6_8 1_555 1_555
C53_8 C46_8 1_555 1_555
C54_8 C30_8 1_555 1_555
H35_8 C54_8 1_555 1_555
O8_8 Cd8_3 1_555 1_555
H36_8 O8_8 1_555 1_555
H37_8 O8_8 1_555 1_555
N7_4 C29_8 1_555 1_555
N8_4 C25_8 1_555 1_555
N6_8 C41_8 1_555 1_555
C23_8 C39_8 1_555 1_555
C24_8 C37_8 1_555 1_555
C31_8 C32_8 1_555 1_555
C38_8 C51_8 1_555 1_555
C44_8 C51_8 1_555 1_555
C45_8 C49_8 1_555 1_555
C48_6 C50_6 1_555 1_555
C53_8 C54_8 1_555 1_555
O10 C16_8 1_555 1_555
O13 C16_8 1_555 1_555
C1_8 H3_8 1_555 1_555
C2_8 C1_8 1_555 1_555
C3_8 C1_8 1_555 1_555
C6_8 C3_8 1_555 1_555
C8_8 C6_8 1_555 1_555
H6_8 C8_8 1_555 1_555
C10_8 C2_8 1_555 1_555
H8_8 C10_8 1_555 1_555
C16_8 C2_8 1_555 1_555
C20_8 C6_8 1_555 1_555
C33_8 C20_8 1_555 1_555
H16_8 C33_8 1_555 1_555
C8_8 C10_8 1_555 1_555
C19_7 C22_7 1_555 1_555
C22_7 C47_7 1_555 1_555
C42_7 C19_7 1_555 1_555
H24_7 C42_7 1_555 1_555
C47_7 H29_7 1_555 1_555
C48_7 C42_7 1_555 1_555
H30_7 C48_7 1_555 1_555
C50_7 C47_7 1_555 1_555
H32_7 C50_7 1_555 1_555
C48_7 C50_7 1_555 1_555
C9_7 H7_7 1_555 1_555
C26_7 C14_7 1_555 1_555
C52_7 C14_7 1_555 1_555
H33_7 C52_7 1_555 1_555
C21_7 C26_7 1_555 1_555
C19_8 C22_8 1_555 1_555
C22_8 C47_8 1_555 1_555
C42_8 C19_8 1_555 1_555
H24_8 C42_8 1_555 1_555
C47_8 H29_8 1_555 1_555
C48_8 C42_8 1_555 1_555
H30_8 C48_8 1_555 1_555
C50_8 C47_8 1_555 1_555
H32_8 C50_8 1_555 1_555
C48_8 C50_8 1_555 1_555
C26_8 C14_8 1_555 1_555
C52_8 C14_8 1_555 1_555
H33_8 C52_8 1_555 1_555
C21_8 C26_8 1_555 1_555
C9_8 H7_8 1_555 1_555
Cr1 O14 1_555 1_555
O15 Cr1 1_555 1_555
O16 Cr1 1_555 1_555
O17 Cr1 1_555 1_555
O17 H38 1_555 1_555
O15 H39 1_555 1_555
O15 H38_2 1_555 1_555
O17 H39_2 1_555 1_555
O15_2 Cr1_2 1_555 1_555
O16_2 Cr1_2 1_555 1_555
O15_2 H39_3 1_555 1_555
O15_2 H38_3 1_555 1_555
Cr1_3 O14_2 1_555 1_555
O17_2 Cr1_3 1_555 1_555
O17_2 H38_4 1_555 1_555
O17_2 H39_4 1_555 1_555
Cr1_4 O14_3 1_555 1_555
O15_3 Cr1_4 1_555 1_555
O16_3 Cr1_4 1_555 1_555
O17_3 Cr1_4 1_555 1_555
O17_3 H38_5 1_555 1_555
O15_3 H39_5 1_555 1_555
O15_3 H38_6 1_555 1_555
O17_3 H39_6 1_555 1_555
Cr1_5 O14_4 1_555 1_555
O17_4 Cr1_5 1_555 1_555
O17_4 H38_7 1_555 1_555
O17_4 H39_7 1_555 1_555
O15_4 Cr1_6 1_555 1_555
O16_4 Cr1_6 1_555 1_555
O15_4 H39_8 1_555 1_555
O15_4 H38_8 1_555 1_555

#END
