
###############################################################################
#
# This file contains modified crystal structure data generated from the
# MOF subset of the Cambridge Structural Database (CSD) v543 
# hosted by the Cambridge Crystallographic Data Centre (CCDC).
#
# This work is licensed under the Creative Commons
# Attribution-NonCommercial-ShareAlike 4.0 International License.
# To view a copy of this license, visit
# http://creativecommons.org/licenses/by-nc-sa/4.0/
# or send a letter to
# Creative Commons, PO Box 1866, Mountain View, CA 94042, USA.
#
# CIF created using the CSD Python API on 29 September 2022
# The structure has been converted into the P1 space group
# The structure has a 3D framework
# The original CSD entry ONIROV is in the monoclinic crystal system
# The framework has been calculated to contain at least 10.0% void space
# The void calculation uses a probe of radius 1.32A, grid spacing 0.4
# The framework is charged, counterions have been retained in the structure
# H atom positions have been added when not included in the experimental data
#
###############################################################################

data_ONIROV
_chemical_formula_moiety         '(C432 H280 Cd16 I40 N48 Na8 O72 2-)n'
_symmetry_cell_setting           triclinic
_symmetry_space_group_name_H-M   'P 1'
_symmetry_Int_Tables_number      1
_space_group_name_Hall           'P 1'
loop_
_symmetry_equiv_pos_site_id
_symmetry_equiv_pos_as_xyz
1 x,y,z
_cell_length_a                   22.63(3)
_cell_length_b                   24.08(3)
_cell_length_c                   24.89(3)
_cell_angle_alpha                90
_cell_angle_beta                 94.58(3)
_cell_angle_gamma                90
_cell_volume                     13520
loop_
_atom_site_label
_atom_site_type_symbol
_atom_site_fract_x
_atom_site_fract_y
_atom_site_fract_z
_atom_site_U_iso_or_equiv
_atom_site_thermal_displace_type
N2 N 0.0239(10) 0.6891(9) 0.0359(9) 0.0300 Uiso
N4 N 0.0712(9) 0.7089(8) 0.1119(8) 0.0200 Uiso
C15 C 0.0729(10) 0.7083(9) 0.0600(8) 0.0120 Uiso
H6 H 0.105122 0.720166 0.042155 0.0140 Uiso
C16 C 0.0179(11) 0.6904(11) 0.1202(10) 0.0260 Uiso
H14 H 0.009147 0.695807 0.202907 0.0430 Uiso
Cd6 Cd 0.14729(7) 0.74857(7) 0.16841(7) 0.0155 Uiso
N3 N 0.1711(9) 0.6242(9) 0.8068(8) 0.0240 Uiso
N5 N 0.0988(10) 0.6277(9) 0.8633(8) 0.0260 Uiso
C7 C 0.0152(10) 0.6803(9) 0.9738(9) 0.0140 Uiso
C9 C 0.0606(11) 0.6604(10) 0.9492(10) 0.0230 Uiso
H4 H 0.096618 0.652302 0.968253 0.0280 Uiso
C30 C 0.0518(10) 0.6518(9) 0.8920(9) 0.0150 Uiso
C40 C 0.1752(13) 0.5795(12) 0.8396(11) 0.0350 Uiso
C45 C 0.1306(15) 0.5811(14) 0.8755(13) 0.0450 Uiso
C47 C 0.1256(12) 0.6527(11) 0.8237(10) 0.0250 Uiso
H25 H 0.113453 0.686824 0.809232 0.0300 Uiso
C50 C 0.2219(18) 0.5351(14) 0.8443(14) 0.0590 Uiso
H28 H 0.254595 0.534763 0.823946 0.0710 Uiso
C52 C 0.2111(18) 0.4939(18) 0.8828(16) 0.0880 Uiso
H30 H 0.238038 0.464824 0.887727 0.1060 Uiso
C53 C 0.1234(17) 0.5368(15) 0.9142(15) 0.0550 Uiso
H31 H 0.093648 0.537682 0.937855 0.0660 Uiso
C54 C 0.1625(15) 0.4943(15) 0.9137(14) 0.0550 Uiso
H32 H 0.156515 0.463624 0.935337 0.0660 Uiso
Cd3 Cd 0.24453(8) 0.66632(7) 0.76044(7) 0.0171 Uiso
Cd1 Cd 0.75547(8) 0.66632(7) 0.73956(7) 0.0171 Uiso
Cd2 Cd 0.64729(7) 0.24857(7) 0.16841(7) 0.0155 Uiso
O1 O 0.5858(9) 0.2743(8) 0.2329(8) 0.0340 Uiso
O2 O 0.6797(7) 0.2820(7) 0.2655(6) 0.0190 Uiso
N1 N 0.9020(9) 0.7107(8) 0.8643(8) 0.0220 Uiso
O3 O 0.6421(9) 0.6630(8) 0.6329(8) 0.0380 Uiso
C1 C 0.6234(10) 0.2885(9) 0.2712(9) 0.0160 Uiso
O4 O 0.6828(9) 0.6121(8) 0.7031(8) 0.0380 Uiso
O5 O 0.2626(9) 0.2429(8) 0.6777(8) 0.0410 Uiso
C2 C 0.9544(10) 0.6944(10) 0.8928(9) 0.0190 Uiso
O6 O 0.2141(11) 0.2684(10) 0.6030(10) 0.0540 Uiso
C3 C 0.5378(10) 0.3638(9) 0.4705(8) 0.0120 Uiso
C4 C 0.8704(11) 0.6803(10) 0.8218(10) 0.0230 Uiso
H1 H 0.883769 0.647067 0.808234 0.0270 Uiso
C5 C 0.4887(9) 0.3376(9) 0.4935(8) 0.0120 Uiso
H2 H 0.469118 0.308732 0.474734 0.0140 Uiso
C6 C 0.5657(10) 0.4079(9) 0.5015(9) 0.0170 Uiso
H3 H 0.598664 0.425046 0.488795 0.0200 Uiso
N6 N 0.8227(9) 0.7031(9) 0.8048(8) 0.0240 Uiso
C8 C 0.8652(11) 0.7593(10) 0.8722(10) 0.0250 Uiso
C10 C 0.9995(11) 0.6688(11) 0.8651(10) 0.0240 Uiso
H5 H 0.993611 0.663425 0.828017 0.0290 Uiso
C12 C 0.6254(12) 0.5681(11) 0.6280(10) 0.0260 Uiso
C13 C 0.5603(11) 0.3464(10) 0.4215(9) 0.0200 Uiso
C14 C 0.6023(10) 0.3067(9) 0.3204(8) 0.0130 Uiso
C17 C 0.9620(11) 0.7010(10) 0.9483(10) 0.0220 Uiso
H7 H 0.933559 0.718169 0.967537 0.0270 Uiso
C18 C 0.4183(10) 0.3253(10) 0.5641(9) 0.0180 Uiso
C19 C 0.5455(10) 0.4263(10) 0.5498(9) 0.0190 Uiso
C20 C 0.5203(11) 0.3351(10) 0.3729(9) 0.0210 Uiso
H8 H 0.479619 0.339767 0.374064 0.0250 Uiso
C21 C 0.6428(11) 0.3184(10) 0.3673(9) 0.0200 Uiso
H9 H 0.683262 0.312683 0.365887 0.0240 Uiso
C22 C 0.3714(10) 0.3086(10) 0.5314(10) 0.0210 Uiso
H10 H 0.372236 0.313552 0.494427 0.0250 Uiso
C23 C 0.6214(10) 0.3376(9) 0.4128(9) 0.0170 Uiso
H11 H 0.649050 0.345846 0.441298 0.0210 Uiso
C24 C 0.3215(15) 0.2840(14) 0.5510(14) 0.0480 Uiso
H12 H 0.291567 0.269674 0.527243 0.0580 Uiso
C25 C 0.8166(12) 0.7514(11) 0.8333(11) 0.0280 Uiso
C26 C 0.5428(11) 0.3177(10) 0.3258(10) 0.0230 Uiso
H13 H 0.516289 0.313076 0.295604 0.0270 Uiso
C28 C 0.5953(11) 0.4743(10) 0.6327(10) 0.0220 Uiso
H15 H 0.589720 0.442059 0.652215 0.0260 Uiso
C29 C 0.4703(10) 0.3532(9) 0.5407(9) 0.0150 Uiso
C31 C 0.7748(14) 0.7954(12) 0.8306(12) 0.0400 Uiso
H16 H 0.741283 0.795181 0.806366 0.0480 Uiso
C32 C 0.7863(16) 0.8364(15) 0.8644(14) 0.0530 Uiso
H17 H 0.757780 0.864293 0.863170 0.0630 Uiso
C33 C 0.3168(12) 0.2809(12) 0.6075(11) 0.0300 Uiso
O7 O 0.7481(15) 0.5907(14) 0.8072(14) 0.0950 Uiso
C34 C 0.4157(13) 0.3171(11) 0.6197(11) 0.0310 Uiso
H18 H 0.448656 0.326092 0.642798 0.0380 Uiso
C35 C 0.6528(10) 0.6237(10) 0.6556(9) 0.0190 Uiso
C36 C 0.3681(12) 0.2969(11) 0.6405(11) 0.0290 Uiso
H19 H 0.368235 0.293096 0.677717 0.0350 Uiso
C37 C 0.4987(11) 0.3966(10) 0.5700(10) 0.0230 Uiso
H20 H 0.486286 0.405984 0.603513 0.0270 Uiso
C38 C 0.5738(10) 0.4751(9) 0.5782(9) 0.0160 Uiso
C39 C 0.8315(13) 0.8444(12) 0.8996(12) 0.0360 Uiso
H21 H 0.836321 0.876736 0.919962 0.0430 Uiso
C41 C 0.6218(12) 0.5146(11) 0.6572(10) 0.0270 Uiso
C42 C 0.2613(13) 0.2613(12) 0.6276(12) 0.0340 Uiso
C43 C 0.6075(13) 0.5694(13) 0.5742(12) 0.0380 Uiso
H22 H 0.611869 0.601675 0.554464 0.0450 Uiso
C46 C 0.8724(14) 0.8003(12) 0.9044(12) 0.0380 Uiso
H24 H 0.904079 0.801101 0.930643 0.0450 Uiso
C49 C 0.5822(12) 0.5210(11) 0.5485(11) 0.0290 Uiso
H27 H 0.571475 0.521072 0.511608 0.0350 Uiso
O8 O 0.6748(9) 0.1243(9) 0.2141(8) 0.0390 Uiso
O9 O 0.6627(17) 0.1594(9) 0.2073(14) 0.1050 Uiso
Cd4 Cd 0.25547(8) 0.16632(7) 0.73956(7) 0.0171 Uiso
Cd5 Cd 0.75547(8) 0.33368(7) 0.23956(7) 0.0171 Uiso
Cd7 Cd 0.64729(7) 0.75143(7) 0.66841(7) 0.0155 Uiso
Cd8 Cd 0.14729(7) 0.25143(7) 0.66841(7) 0.0155 Uiso
O10 O 0.6797(7) 0.7180(7) 0.7655(6) 0.0190 Uiso
O11 O 0.6421(9) 0.3370(8) 0.1329(8) 0.0380 Uiso
N7 N 0.8289(9) 0.6242(9) 0.6932(8) 0.0240 Uiso
N8 N 0.5712(9) 0.2089(8) 0.1119(8) 0.0200 Uiso
O12 O 0.7626(9) 0.7429(8) 0.6777(8) 0.0410 Uiso
O13 O 0.7626(9) 0.2571(8) 0.1777(8) 0.0410 Uiso
O14 O 0.7141(11) 0.2316(10) 0.1030(10) 0.0540 Uiso
H33 H 0.641293 0.510027 0.698397 . .
H34 H 0.755881 0.554359 0.790277 . .
H35 H 0.777794 0.59707 0.838156 . .
Cd2_2 Cd 0.35271(7) 0.24857(7) 0.33159(7) 0.0155 Uiso
O1_2 O 0.4142(9) 0.2743(8) 0.2671(8) 0.0340 Uiso
O2_2 O 0.3203(7) 0.2820(7) 0.2345(6) 0.0190 Uiso
C1_2 C 0.3766(10) 0.2885(9) 0.2288(9) 0.0160 Uiso
C3_2 C 0.4622(10) 0.3638(9) 0.0295(8) 0.0120 Uiso
C5_2 C 0.5113(9) 0.3376(9) 0.0065(8) 0.0120 Uiso
H2_2 H 0.530882 0.308732 0.025266 0.0140 Uiso
H3_2 H 0.401336 0.425046 0.011205 0.0200 Uiso
C13_2 C 0.4397(11) 0.3464(10) 0.0785(9) 0.0200 Uiso
C14_2 C 0.3977(10) 0.3067(9) 0.1796(8) 0.0130 Uiso
C20_2 C 0.4797(11) 0.3351(10) 0.1271(9) 0.0210 Uiso
H8_2 H 0.520381 0.339767 0.125936 0.0250 Uiso
C21_2 C 0.3572(11) 0.3184(10) 0.1327(9) 0.0200 Uiso
H9_2 H 0.316738 0.312683 0.134113 0.0240 Uiso
H10_2 H 0.627764 0.313552 0.005573 0.0250 Uiso
C23_2 C 0.3786(10) 0.3376(9) 0.0872(9) 0.0170 Uiso
H11_2 H 0.350950 0.345846 0.058702 0.0210 Uiso
C26_2 C 0.4572(11) 0.3177(10) 0.1742(10) 0.0230 Uiso
H13_2 H 0.483711 0.313076 0.204396 0.0270 Uiso
O8_2 O 0.3252(9) 0.1243(9) 0.2859(8) 0.0390 Uiso
O9_2 O 0.3373(17) 0.1594(9) 0.2927(14) 0.1050 Uiso
Cd5_2 Cd 0.24453(8) 0.33368(7) 0.26044(7) 0.0171 Uiso
O11_2 O 0.3579(9) 0.3370(8) 0.3671(8) 0.0380 Uiso
N8_2 N 0.4288(9) 0.2089(8) 0.3881(8) 0.0200 Uiso
O13_2 O 0.2374(9) 0.2571(8) 0.3223(8) 0.0410 Uiso
O14_2 O 0.2859(11) 0.2316(10) 0.3970(10) 0.0540 Uiso
N1_2 N 0.0980(9) 0.7107(8) 0.6357(8) 0.0220 Uiso
O3_2 O 0.3579(9) 0.6630(8) 0.8671(8) 0.0380 Uiso
O4_2 O 0.3172(9) 0.6121(8) 0.7969(8) 0.0380 Uiso
O5_2 O 0.7374(9) 0.2429(8) 0.8223(8) 0.0410 Uiso
C2_2 C 0.0456(10) 0.6944(10) 0.6072(9) 0.0190 Uiso
O6_2 O 0.7859(11) 0.2684(10) 0.8970(10) 0.0540 Uiso
C4_2 C 0.1296(11) 0.6803(10) 0.6782(10) 0.0230 Uiso
H1_2 H 0.116231 0.647067 0.691766 0.0270 Uiso
C6_2 C 0.4343(10) 0.4079(9) 0.9985(9) 0.0170 Uiso
N6_2 N 0.1773(9) 0.7031(9) 0.6952(8) 0.0240 Uiso
C8_2 C 0.1348(11) 0.7593(10) 0.6278(10) 0.0250 Uiso
C10_2 C 0.0005(11) 0.6688(11) 0.6349(10) 0.0240 Uiso
H5_2 H 0.006389 0.663425 0.671983 0.0290 Uiso
C11 C 0.0119(11) 0.6783(10) 0.4264(10) 0.0220 Uiso
C12_2 C 0.3746(12) 0.5681(11) 0.8720(10) 0.0260 Uiso
C17_2 C 0.0380(11) 0.7010(10) 0.5517(10) 0.0220 Uiso
H7_2 H 0.066441 0.718169 0.532463 0.0270 Uiso
C18_2 C 0.5817(10) 0.3253(10) 0.9359(9) 0.0180 Uiso
C19_2 C 0.4545(10) 0.4263(10) 0.9502(9) 0.0190 Uiso
C22_2 C 0.6286(10) 0.3086(10) 0.9686(10) 0.0210 Uiso
C24_2 C 0.6785(15) 0.2840(14) 0.9490(14) 0.0480 Uiso
H12_2 H 0.708433 0.269674 0.972757 0.0580 Uiso
C25_2 C 0.1834(12) 0.7514(11) 0.6667(11) 0.0280 Uiso
C27 C 0.0099(13) 0.6848(12) 0.3299(12) 0.0360 Uiso
C28_2 C 0.4047(11) 0.4743(10) 0.8673(10) 0.0220 Uiso
H15_2 H 0.410280 0.442059 0.847785 0.0260 Uiso
C29_2 C 0.5297(10) 0.3532(9) 0.9593(9) 0.0150 Uiso
C31_2 C 0.2252(14) 0.7954(12) 0.6694(12) 0.0400 Uiso
H16_2 H 0.258717 0.795181 0.693634 0.0480 Uiso
C32_2 C 0.2137(16) 0.8364(15) 0.6356(14) 0.0530 Uiso
H17_2 H 0.242220 0.864293 0.636830 0.0630 Uiso
C33_2 C 0.6832(12) 0.2809(12) 0.8925(11) 0.0300 Uiso
O7_2 O 0.2519(15) 0.5907(14) 0.6928(14) 0.0950 Uiso
C34_2 C 0.5843(13) 0.3171(11) 0.8803(11) 0.0310 Uiso
H18_2 H 0.551344 0.326092 0.857202 0.0380 Uiso
C35_2 C 0.3472(10) 0.6237(10) 0.8444(9) 0.0190 Uiso
C36_2 C 0.6319(12) 0.2969(11) 0.8595(11) 0.0290 Uiso
H19_2 H 0.631765 0.293096 0.822283 0.0350 Uiso
C37_2 C 0.5013(11) 0.3966(10) 0.9300(10) 0.0230 Uiso
H20_2 H 0.513714 0.405984 0.896487 0.0270 Uiso
C38_2 C 0.4262(10) 0.4751(9) 0.9218(9) 0.0160 Uiso
C39_2 C 0.1685(13) 0.8444(12) 0.6004(12) 0.0360 Uiso
H21_2 H 0.163679 0.876736 0.580038 0.0430 Uiso
C41_2 C 0.3782(12) 0.5146(11) 0.8428(10) 0.0270 Uiso
C42_2 C 0.7387(13) 0.2613(12) 0.8724(12) 0.0340 Uiso
C43_2 C 0.3925(13) 0.5694(13) 0.9258(12) 0.0380 Uiso
H22_2 H 0.388131 0.601675 0.945536 0.0450 Uiso
C44 C 0.0694(16) 0.6592(14) 0.4273(15) 0.0530 Uiso
H23 H 0.088148 0.647124 0.459815 0.0630 Uiso
C46_2 C 0.1276(14) 0.8003(12) 0.5956(12) 0.0380 Uiso
H24_2 H 0.095921 0.801101 0.569357 0.0450 Uiso
C48 C 0.0676(16) 0.6616(15) 0.3334(15) 0.0540 Uiso
H26 H 0.083159 0.649020 0.302120 0.0650 Uiso
C49_2 C 0.4178(12) 0.5210(11) 0.9515(11) 0.0290 Uiso
H27_2 H 0.428525 0.521072 0.988392 0.0350 Uiso
C51 C 0.1006(16) 0.6572(14) 0.3809(14) 0.0500 Uiso
H29 H 0.141564 0.653211 0.382669 0.0600 Uiso
Cd4_2 Cd 0.74453(8) 0.16632(7) 0.76044(7) 0.0171 Uiso
Cd7_2 Cd 0.35271(7) 0.75143(7) 0.83159(7) 0.0155 Uiso
Cd8_2 Cd 0.85271(7) 0.25143(7) 0.83159(7) 0.0155 Uiso
O10_2 O 0.3203(7) 0.7180(7) 0.7345(6) 0.0190 Uiso
O12_2 O 0.2374(9) 0.7429(8) 0.8223(8) 0.0410 Uiso
H33_2 H 0.358707 0.510027 0.801603 . .
H34_2 H 0.244119 0.554359 0.709723 . .
H35_2 H 0.222206 0.59707 0.661844 . .
N2_2 N 0.9761(10) 0.6891(9) 0.4641(9) 0.0300 Uiso
N4_2 N 0.9288(9) 0.7089(8) 0.3881(8) 0.0200 Uiso
N5_2 N 0.9012(10) 0.6277(9) 0.6367(8) 0.0260 Uiso
C7_2 C 0.9848(10) 0.6803(9) 0.5262(9) 0.0140 Uiso
C9_2 C 0.9394(11) 0.6604(10) 0.5508(10) 0.0230 Uiso
H4_2 H 0.903382 0.652302 0.531747 0.0280 Uiso
C15_2 C 0.9271(10) 0.7083(9) 0.4400(8) 0.0120 Uiso
H6_2 H 0.894878 0.720166 0.457845 0.0140 Uiso
C16_2 C 0.9821(11) 0.6904(11) 0.3798(10) 0.0260 Uiso
H14_2 H 0.990853 0.695807 0.297093 0.0430 Uiso
C30_2 C 0.9482(10) 0.6518(9) 0.6080(9) 0.0150 Uiso
C40_2 C 0.8248(13) 0.5795(12) 0.6604(11) 0.0350 Uiso
C45_2 C 0.8694(15) 0.5811(14) 0.6245(13) 0.0450 Uiso
C47_2 C 0.8744(12) 0.6527(11) 0.6763(10) 0.0250 Uiso
H25_2 H 0.886547 0.686824 0.690768 0.0300 Uiso
C50_2 C 0.7781(18) 0.5351(14) 0.6557(14) 0.0590 Uiso
H28_2 H 0.745405 0.534763 0.676054 0.0710 Uiso
C52_2 C 0.7889(18) 0.4939(18) 0.6172(16) 0.0880 Uiso
H30_2 H 0.761962 0.464824 0.612273 0.1060 Uiso
C53_2 C 0.8766(17) 0.5368(15) 0.5858(15) 0.0550 Uiso
H31_2 H 0.906352 0.537682 0.562145 0.0660 Uiso
C54_2 C 0.8375(15) 0.4943(15) 0.5863(14) 0.0550 Uiso
H32_2 H 0.843485 0.463624 0.564663 0.0660 Uiso
Cd6_2 Cd 0.85271(7) 0.74857(7) 0.33159(7) 0.0155 Uiso
N2_3 N 0.5239(10) 0.1891(9) 0.0359(9) 0.0300 Uiso
C11_2 C 0.4881(11) 0.1783(10) 0.0736(10) 0.0220 Uiso
C15_3 C 0.5729(10) 0.2083(9) 0.0600(8) 0.0120 Uiso
H6_3 H 0.605122 0.220166 0.042155 0.0140 Uiso
C16_3 C 0.5179(11) 0.1904(11) 0.1202(10) 0.0260 Uiso
C27_2 C 0.4901(13) 0.1848(12) 0.1701(12) 0.0360 Uiso
H14_3 H 0.509147 0.195807 0.202907 0.0430 Uiso
C44_2 C 0.4306(16) 0.1592(14) 0.0727(15) 0.0530 Uiso
H23_2 H 0.411852 0.147124 0.040185 0.0630 Uiso
C48_2 C 0.4324(16) 0.1616(15) 0.1666(15) 0.0540 Uiso
H26_2 H 0.416841 0.149020 0.197880 0.0650 Uiso
C51_2 C 0.3994(16) 0.1572(14) 0.1191(14) 0.0500 Uiso
H29_2 H 0.358436 0.153211 0.117331 0.0600 Uiso
N1_3 N 0.4020(9) 0.2107(8) 0.8643(8) 0.0220 Uiso
O3_3 O 0.1421(9) 0.1630(8) 0.6329(8) 0.0380 Uiso
N3_2 N 0.6711(9) 0.1242(9) 0.8068(8) 0.0240 Uiso
O4_3 O 0.1828(9) 0.1121(8) 0.7031(8) 0.0380 Uiso
N5_3 N 0.5988(10) 0.1277(9) 0.8633(8) 0.0260 Uiso
C2_3 C 0.4544(10) 0.1944(10) 0.8928(9) 0.0190 Uiso
C4_3 C 0.3704(11) 0.1803(10) 0.8218(10) 0.0230 Uiso
H1_3 H 0.383769 0.147067 0.808234 0.0270 Uiso
N6_3 N 0.3227(9) 0.2031(9) 0.8048(8) 0.0240 Uiso
C7_3 C 0.5152(10) 0.1803(9) 0.9738(9) 0.0140 Uiso
C8_3 C 0.3652(11) 0.2593(10) 0.8722(10) 0.0250 Uiso
C9_3 C 0.5606(11) 0.1604(10) 0.9492(10) 0.0230 Uiso
H4_3 H 0.596618 0.152302 0.968253 0.0280 Uiso
C10_3 C 0.4995(11) 0.1688(11) 0.8651(10) 0.0240 Uiso
H5_3 H 0.493611 0.163425 0.828017 0.0290 Uiso
C12_3 C 0.1254(12) 0.0681(11) 0.6280(10) 0.0260 Uiso
C17_3 C 0.4620(11) 0.2010(10) 0.9483(10) 0.0220 Uiso
H7_3 H 0.433559 0.218169 0.967537 0.0270 Uiso
C25_3 C 0.3166(12) 0.2514(11) 0.8333(11) 0.0280 Uiso
C30_3 C 0.5518(10) 0.1518(9) 0.8920(9) 0.0150 Uiso
C31_3 C 0.2748(14) 0.2954(12) 0.8306(12) 0.0400 Uiso
H16_3 H 0.241283 0.295181 0.806366 0.0480 Uiso
C32_3 C 0.2863(16) 0.3364(15) 0.8644(14) 0.0530 Uiso
H17_3 H 0.257780 0.364293 0.863170 0.0630 Uiso
O7_3 O 0.2481(15) 0.0907(14) 0.8072(14) 0.0950 Uiso
C35_3 C 0.1528(10) 0.1237(10) 0.6556(9) 0.0190 Uiso
C39_3 C 0.3315(13) 0.3444(12) 0.8996(12) 0.0360 Uiso
H21_3 H 0.336321 0.376736 0.919962 0.0430 Uiso
C40_3 C 0.6752(13) 0.0795(12) 0.8396(11) 0.0350 Uiso
C41_3 C 0.1218(12) 0.0146(11) 0.6572(10) 0.0270 Uiso
C43_3 C 0.1075(13) 0.0694(13) 0.5742(12) 0.0380 Uiso
H22_3 H 0.111869 0.101675 0.554464 0.0450 Uiso
C45_3 C 0.6306(15) 0.0811(14) 0.8755(13) 0.0450 Uiso
C46_3 C 0.3724(14) 0.3003(12) 0.9044(12) 0.0380 Uiso
H24_3 H 0.404079 0.301101 0.930643 0.0450 Uiso
C47_3 C 0.6256(12) 0.1527(11) 0.8237(10) 0.0250 Uiso
H25_3 H 0.613453 0.186824 0.809232 0.0300 Uiso
C49_3 C 0.0822(12) 0.0210(11) 0.5485(11) 0.0290 Uiso
H27_3 H 0.071475 0.021072 0.511608 0.0350 Uiso
C50_3 C 0.7219(18) 0.0351(14) 0.8443(14) 0.0590 Uiso
H28_3 H 0.754595 0.034763 0.823946 0.0710 Uiso
C53_3 C 0.6234(17) 0.0368(15) 0.9142(15) 0.0550 Uiso
H31_3 H 0.593648 0.037682 0.937855 0.0660 Uiso
O10_3 O 0.1797(7) 0.2180(7) 0.7655(6) 0.0190 Uiso
N7_2 N 0.3289(9) 0.1242(9) 0.6932(8) 0.0240 Uiso
H33_3 H 0.141293 0.0100267 0.698397 . .
H34_3 H 0.255881 0.0543591 0.790277 . .
H35_3 H 0.277794 0.0970704 0.838156 . .
O1_3 O 0.0858(9) 0.7743(8) 0.2329(8) 0.0340 Uiso
O2_3 O 0.1797(7) 0.7820(7) 0.2655(6) 0.0190 Uiso
C1_3 C 0.1234(10) 0.7885(9) 0.2712(9) 0.0160 Uiso
C3_3 C 0.0378(10) 0.8638(9) 0.4705(8) 0.0120 Uiso
C6_3 C 0.0657(10) 0.9079(9) 0.5015(9) 0.0170 Uiso
H3_3 H 0.098664 0.925046 0.488795 0.0200 Uiso
C13_3 C 0.0603(11) 0.8464(10) 0.4215(9) 0.0200 Uiso
C14_3 C 0.1023(10) 0.8067(9) 0.3204(8) 0.0130 Uiso
C19_3 C 0.0455(10) 0.9263(10) 0.5498(9) 0.0190 Uiso
C20_3 C 0.0203(11) 0.8351(10) 0.3729(9) 0.0210 Uiso
C21_3 C 0.1428(11) 0.8184(10) 0.3673(9) 0.0200 Uiso
H9_3 H 0.183262 0.812683 0.365887 0.0240 Uiso
C23_3 C 0.1214(10) 0.8376(9) 0.4128(9) 0.0170 Uiso
H11_3 H 0.149050 0.845846 0.441298 0.0210 Uiso
C26_3 C 0.0428(11) 0.8177(10) 0.3258(10) 0.0230 Uiso
H13_3 H 0.016289 0.813076 0.295604 0.0270 Uiso
C28_3 C 0.0953(11) 0.9743(10) 0.6327(10) 0.0220 Uiso
H15_3 H 0.089720 0.942059 0.652215 0.0260 Uiso
C38_3 C 0.0738(10) 0.9751(9) 0.5782(9) 0.0160 Uiso
C52_3 C 0.7111(18) 0.9939(18) 0.8828(16) 0.0880 Uiso
H30_3 H 0.738038 0.964824 0.887727 0.1060 Uiso
C54_3 C 0.6625(15) 0.9943(15) 0.9137(14) 0.0550 Uiso
H32_3 H 0.656515 0.963624 0.935337 0.0660 Uiso
O8_3 O 0.1748(9) 0.6243(9) 0.2141(8) 0.0390 Uiso
O9_3 O 0.1627(17) 0.6594(9) 0.2073(14) 0.1050 Uiso
Cd5_3 Cd 0.25547(8) 0.83368(7) 0.23956(7) 0.0171 Uiso
O11_3 O 0.1421(9) 0.8370(8) 0.1329(8) 0.0380 Uiso
O13_3 O 0.2626(9) 0.7571(8) 0.1777(8) 0.0410 Uiso
O14_3 O 0.2141(11) 0.7316(10) 0.1030(10) 0.0540 Uiso
O6_3 O 0.7141(11) 0.7684(10) 0.6030(10) 0.0540 Uiso
C5_3 C 0.9887(9) 0.8376(9) 0.4935(8) 0.0120 Uiso
H2_3 H 0.969118 0.808732 0.474734 0.0140 Uiso
C18_3 C 0.9183(10) 0.8253(10) 0.5641(9) 0.0180 Uiso
H8_3 H 0.979619 0.839767 0.374064 0.0250 Uiso
C22_3 C 0.8714(10) 0.8086(10) 0.5314(10) 0.0210 Uiso
H10_3 H 0.872236 0.813552 0.494427 0.0250 Uiso
C24_3 C 0.8215(15) 0.7840(14) 0.5510(14) 0.0480 Uiso
H12_3 H 0.791567 0.769674 0.527243 0.0580 Uiso
C29_3 C 0.9703(10) 0.8532(9) 0.5407(9) 0.0150 Uiso
C33_3 C 0.8168(12) 0.7809(12) 0.6075(11) 0.0300 Uiso
C34_3 C 0.9157(13) 0.8171(11) 0.6197(11) 0.0310 Uiso
H18_3 H 0.948656 0.826092 0.642798 0.0380 Uiso
C36_3 C 0.8681(12) 0.7969(11) 0.6405(11) 0.0290 Uiso
H19_3 H 0.868235 0.793096 0.677717 0.0350 Uiso
C37_3 C 0.9987(11) 0.8966(10) 0.5700(10) 0.0230 Uiso
H20_3 H 0.986286 0.905984 0.603513 0.0270 Uiso
C42_3 C 0.7613(13) 0.7613(12) 0.6276(12) 0.0340 Uiso
O6_4 O 0.2859(11) 0.7684(10) 0.8970(10) 0.0540 Uiso
C18_4 C 0.0817(10) 0.8253(10) 0.9359(9) 0.0180 Uiso
C22_4 C 0.1286(10) 0.8086(10) 0.9686(10) 0.0210 Uiso
C24_4 C 0.1785(15) 0.7840(14) 0.9490(14) 0.0480 Uiso
H12_4 H 0.208433 0.769674 0.972757 0.0580 Uiso
C29_4 C 0.0297(10) 0.8532(9) 0.9593(9) 0.0150 Uiso
C33_4 C 0.1832(12) 0.7809(12) 0.8925(11) 0.0300 Uiso
C34_4 C 0.0843(13) 0.8171(11) 0.8803(11) 0.0310 Uiso
H18_4 H 0.051344 0.826092 0.857202 0.0380 Uiso
C36_4 C 0.1319(12) 0.7969(11) 0.8595(11) 0.0290 Uiso
H19_4 H 0.131765 0.793096 0.822283 0.0350 Uiso
C37_4 C 0.0013(11) 0.8966(10) 0.9300(10) 0.0230 Uiso
H20_4 H 0.013714 0.905984 0.896487 0.0270 Uiso
C42_4 C 0.2387(13) 0.7613(12) 0.8724(12) 0.0340 Uiso
N1_4 N 0.5980(9) 0.2107(8) 0.6357(8) 0.0220 Uiso
N2_4 N 0.4761(10) 0.1891(9) 0.4641(9) 0.0300 Uiso
O3_4 O 0.8579(9) 0.1630(8) 0.8671(8) 0.0380 Uiso
O4_4 O 0.8172(9) 0.1121(8) 0.7969(8) 0.0380 Uiso
N5_4 N 0.4012(10) 0.1277(9) 0.6367(8) 0.0260 Uiso
C2_4 C 0.5456(10) 0.1944(10) 0.6072(9) 0.0190 Uiso
C4_4 C 0.6296(11) 0.1803(10) 0.6782(10) 0.0230 Uiso
H1_4 H 0.616231 0.147067 0.691766 0.0270 Uiso
N6_4 N 0.6773(9) 0.2031(9) 0.6952(8) 0.0240 Uiso
C7_4 C 0.4848(10) 0.1803(9) 0.5262(9) 0.0140 Uiso
C8_4 C 0.6348(11) 0.2593(10) 0.6278(10) 0.0250 Uiso
C9_4 C 0.4394(11) 0.1604(10) 0.5508(10) 0.0230 Uiso
H4_4 H 0.403382 0.152302 0.531747 0.0280 Uiso
C10_4 C 0.5005(11) 0.1688(11) 0.6349(10) 0.0240 Uiso
H5_4 H 0.506389 0.163425 0.671983 0.0290 Uiso
C11_3 C 0.5119(11) 0.1783(10) 0.4264(10) 0.0220 Uiso
C12_4 C 0.8746(12) 0.0681(11) 0.8720(10) 0.0260 Uiso
C15_4 C 0.4271(10) 0.2083(9) 0.4400(8) 0.0120 Uiso
H6_4 H 0.394878 0.220166 0.457845 0.0140 Uiso
C16_4 C 0.4821(11) 0.1904(11) 0.3798(10) 0.0260 Uiso
C17_4 C 0.5380(11) 0.2010(10) 0.5517(10) 0.0220 Uiso
H7_4 H 0.566441 0.218169 0.532463 0.0270 Uiso
C25_4 C 0.6834(12) 0.2514(11) 0.6667(11) 0.0280 Uiso
C27_3 C 0.5099(13) 0.1848(12) 0.3299(12) 0.0360 Uiso
H14_4 H 0.490853 0.195807 0.297093 0.0430 Uiso
C30_4 C 0.4482(10) 0.1518(9) 0.6080(9) 0.0150 Uiso
C31_4 C 0.7252(14) 0.2954(12) 0.6694(12) 0.0400 Uiso
H16_4 H 0.758717 0.295181 0.693634 0.0480 Uiso
C32_4 C 0.7137(16) 0.3364(15) 0.6356(14) 0.0530 Uiso
H17_4 H 0.742220 0.364293 0.636830 0.0630 Uiso
O7_4 O 0.7519(15) 0.0907(14) 0.6928(14) 0.0950 Uiso
C35_4 C 0.8472(10) 0.1237(10) 0.8444(9) 0.0190 Uiso
C39_4 C 0.6685(13) 0.3444(12) 0.6004(12) 0.0360 Uiso
H21_4 H 0.663679 0.376736 0.580038 0.0430 Uiso
C40_4 C 0.3248(13) 0.0795(12) 0.6604(11) 0.0350 Uiso
C41_4 C 0.8782(12) 0.0146(11) 0.8428(10) 0.0270 Uiso
C43_4 C 0.8925(13) 0.0694(13) 0.9258(12) 0.0380 Uiso
H22_4 H 0.888131 0.101675 0.945536 0.0450 Uiso
C44_3 C 0.5694(16) 0.1592(14) 0.4273(15) 0.0530 Uiso
H23_3 H 0.588148 0.147124 0.459815 0.0630 Uiso
C45_4 C 0.3694(15) 0.0811(14) 0.6245(13) 0.0450 Uiso
C46_4 C 0.6276(14) 0.3003(12) 0.5956(12) 0.0380 Uiso
H24_4 H 0.595921 0.301101 0.569357 0.0450 Uiso
C47_4 C 0.3744(12) 0.1527(11) 0.6763(10) 0.0250 Uiso
H25_4 H 0.386547 0.186824 0.690768 0.0300 Uiso
C48_3 C 0.5676(16) 0.1616(15) 0.3334(15) 0.0540 Uiso
H26_3 H 0.583159 0.149020 0.302120 0.0650 Uiso
C49_4 C 0.9178(12) 0.0210(11) 0.9515(11) 0.0290 Uiso
H27_4 H 0.928525 0.021072 0.988392 0.0350 Uiso
C50_4 C 0.2781(18) 0.0351(14) 0.6557(14) 0.0590 Uiso
H28_4 H 0.245405 0.034763 0.676054 0.0710 Uiso
C51_3 C 0.6006(16) 0.1572(14) 0.3809(14) 0.0500 Uiso
H29_3 H 0.641564 0.153211 0.382669 0.0600 Uiso
C53_4 C 0.3766(17) 0.0368(15) 0.5858(15) 0.0550 Uiso
H31_4 H 0.406352 0.037682 0.562145 0.0660 Uiso
O10_4 O 0.8203(7) 0.2180(7) 0.7345(6) 0.0190 Uiso
H33_4 H 0.858707 0.0100267 0.801603 . .
H34_4 H 0.744119 0.0543591 0.709723 . .
H35_4 H 0.722206 0.0970704 0.661844 . .
O1_4 O 0.9142(9) 0.7743(8) 0.2671(8) 0.0340 Uiso
O2_4 O 0.8203(7) 0.7820(7) 0.2345(6) 0.0190 Uiso
C1_4 C 0.8766(10) 0.7885(9) 0.2288(9) 0.0160 Uiso
C3_4 C 0.9622(10) 0.8638(9) 0.0295(8) 0.0120 Uiso
H3_4 H 0.901336 0.925046 0.011205 0.0200 Uiso
C13_4 C 0.9397(11) 0.8464(10) 0.0785(9) 0.0200 Uiso
C14_4 C 0.8977(10) 0.8067(9) 0.1796(8) 0.0130 Uiso
C20_4 C 0.9797(11) 0.8351(10) 0.1271(9) 0.0210 Uiso
C21_4 C 0.8572(11) 0.8184(10) 0.1327(9) 0.0200 Uiso
H9_4 H 0.816738 0.812683 0.134113 0.0240 Uiso
C23_4 C 0.8786(10) 0.8376(9) 0.0872(9) 0.0170 Uiso
H11_4 H 0.850950 0.845846 0.058702 0.0210 Uiso
C26_4 C 0.9572(11) 0.8177(10) 0.1742(10) 0.0230 Uiso
H13_4 H 0.983711 0.813076 0.204396 0.0270 Uiso
O8_4 O 0.8252(9) 0.6243(9) 0.2859(8) 0.0390 Uiso
O9_4 O 0.8373(17) 0.6594(9) 0.2927(14) 0.1050 Uiso
Cd5_4 Cd 0.74453(8) 0.83368(7) 0.26044(7) 0.0171 Uiso
O11_4 O 0.8579(9) 0.8370(8) 0.3671(8) 0.0380 Uiso
O13_4 O 0.7374(9) 0.7571(8) 0.3223(8) 0.0410 Uiso
O14_4 O 0.7859(11) 0.7316(10) 0.3970(10) 0.0540 Uiso
O1_5 O 0.4142(9) 0.7257(8) 0.7671(8) 0.0340 Uiso
N1_5 N 0.0980(9) 0.2893(8) 0.1357(8) 0.0220 Uiso
C1_5 C 0.3766(10) 0.7115(9) 0.7288(9) 0.0160 Uiso
O4_5 O 0.3172(9) 0.3879(8) 0.2969(8) 0.0380 Uiso
C2_5 C 0.0456(10) 0.3056(10) 0.1072(9) 0.0190 Uiso
C3_5 C 0.4622(10) 0.6362(9) 0.5295(8) 0.0120 Uiso
C4_5 C 0.1296(11) 0.3197(10) 0.1782(10) 0.0230 Uiso
H1_5 H 0.116231 0.352933 0.191766 0.0270 Uiso
C5_4 C 0.5113(9) 0.6624(9) 0.5065(8) 0.0120 Uiso
H2_4 H 0.530882 0.691268 0.525266 0.0140 Uiso
C6_4 C 0.4343(10) 0.5921(9) 0.4985(9) 0.0170 Uiso
H3_5 H 0.401336 0.574954 0.511205 0.0200 Uiso
N6_5 N 0.1773(9) 0.2969(9) 0.1952(8) 0.0240 Uiso
C8_5 C 0.1348(11) 0.2407(10) 0.1278(10) 0.0250 Uiso
C10_5 C 0.0005(11) 0.3312(11) 0.1349(10) 0.0240 Uiso
H5_5 H 0.006389 0.336575 0.171983 0.0290 Uiso
C12_5 C 0.3746(12) 0.4319(11) 0.3720(10) 0.0260 Uiso
C13_5 C 0.4397(11) 0.6536(10) 0.5785(9) 0.0200 Uiso
C14_5 C 0.3977(10) 0.6933(9) 0.6796(8) 0.0130 Uiso
C17_5 C 0.0380(11) 0.2990(10) 0.0517(10) 0.0220 Uiso
H7_5 H 0.066441 0.281831 0.032463 0.0270 Uiso
C18_5 C 0.5817(10) 0.6747(10) 0.4359(9) 0.0180 Uiso
C19_4 C 0.4545(10) 0.5737(10) 0.4502(9) 0.0190 Uiso
C20_5 C 0.4797(11) 0.6649(10) 0.6271(9) 0.0210 Uiso
H8_4 H 0.520381 0.660233 0.625936 0.0250 Uiso
C21_5 C 0.3572(11) 0.6816(10) 0.6327(9) 0.0200 Uiso
H9_5 H 0.316738 0.687317 0.634113 0.0240 Uiso
C22_5 C 0.6286(10) 0.6914(10) 0.4686(10) 0.0210 Uiso
H10_4 H 0.627764 0.686448 0.505573 0.0250 Uiso
C23_5 C 0.3786(10) 0.6624(9) 0.5872(9) 0.0170 Uiso
H11_5 H 0.350950 0.654154 0.558702 0.0210 Uiso
C24_5 C 0.6785(15) 0.7160(14) 0.4490(14) 0.0480 Uiso
H12_5 H 0.708433 0.730326 0.472757 0.0580 Uiso
C25_5 C 0.1834(12) 0.2486(11) 0.1667(11) 0.0280 Uiso
C26_5 C 0.4572(11) 0.6823(10) 0.6742(10) 0.0230 Uiso
H13_5 H 0.483711 0.686924 0.704396 0.0270 Uiso
C28_4 C 0.4047(11) 0.5257(10) 0.3673(10) 0.0220 Uiso
H15_4 H 0.410280 0.557941 0.347785 0.0260 Uiso
C29_5 C 0.5297(10) 0.6468(9) 0.4593(9) 0.0150 Uiso
C31_5 C 0.2252(14) 0.2046(12) 0.1694(12) 0.0400 Uiso
H16_5 H 0.258717 0.204819 0.193634 0.0480 Uiso
C32_5 C 0.2137(16) 0.1636(15) 0.1356(14) 0.0530 Uiso
H17_5 H 0.242220 0.135707 0.136830 0.0630 Uiso
C33_5 C 0.6832(12) 0.7191(12) 0.3925(11) 0.0300 Uiso
O7_5 O 0.2519(15) 0.4093(14) 0.1928(14) 0.0950 Uiso
C34_5 C 0.5843(13) 0.6829(11) 0.3803(11) 0.0310 Uiso
H18_5 H 0.551344 0.673908 0.357202 0.0380 Uiso
C35_5 C 0.3472(10) 0.3763(10) 0.3444(9) 0.0190 Uiso
C36_5 C 0.6319(12) 0.7031(11) 0.3595(11) 0.0290 Uiso
H19_5 H 0.631765 0.706904 0.322283 0.0350 Uiso
C37_5 C 0.5013(11) 0.6034(10) 0.4300(10) 0.0230 Uiso
H20_5 H 0.513714 0.594016 0.396487 0.0270 Uiso
C38_4 C 0.4262(10) 0.5249(9) 0.4218(9) 0.0160 Uiso
C39_5 C 0.1685(13) 0.1556(12) 0.1004(12) 0.0360 Uiso
H21_5 H 0.163679 0.123264 0.080038 0.0430 Uiso
C41_5 C 0.3782(12) 0.4854(11) 0.3428(10) 0.0270 Uiso
C42_5 C 0.7387(13) 0.7387(12) 0.3724(12) 0.0340 Uiso
C43_5 C 0.3925(13) 0.4306(13) 0.4258(12) 0.0380 Uiso
H22_5 H 0.388131 0.398325 0.445536 0.0450 Uiso
C46_5 C 0.1276(14) 0.1997(12) 0.0956(12) 0.0380 Uiso
H24_5 H 0.095921 0.198899 0.069357 0.0450 Uiso
C49_5 C 0.4178(12) 0.4790(11) 0.4515(11) 0.0290 Uiso
H27_5 H 0.428525 0.478928 0.488392 0.0350 Uiso
O8_5 O 0.3252(9) 0.8757(9) 0.7859(8) 0.0390 Uiso
O9_5 O 0.3373(17) 0.8406(9) 0.7927(14) 0.1050 Uiso
N7_3 N 0.1711(9) 0.3758(9) 0.3068(8) 0.0240 Uiso
N8_3 N 0.4288(9) 0.7911(8) 0.8881(8) 0.0200 Uiso
H33_5 H 0.358707 0.489973 0.301603 . .
H34_5 H 0.244119 0.445641 0.209723 . .
H35_5 H 0.222206 0.40293 0.161844 . .
N3_3 N 0.8289(9) 0.3758(9) 0.1932(8) 0.0240 Uiso
N5_5 N 0.9012(10) 0.3723(9) 0.1367(8) 0.0260 Uiso
C7_5 C 0.9848(10) 0.3197(9) 0.0262(9) 0.0140 Uiso
C9_5 C 0.9394(11) 0.3396(10) 0.0508(10) 0.0230 Uiso
H4_5 H 0.903382 0.347698 0.031747 0.0280 Uiso
C30_5 C 0.9482(10) 0.3482(9) 0.1080(9) 0.0150 Uiso
C40_5 C 0.8248(13) 0.4205(12) 0.1604(11) 0.0350 Uiso
C45_5 C 0.8694(15) 0.4189(14) 0.1245(13) 0.0450 Uiso
C47_5 C 0.8744(12) 0.3473(11) 0.1763(10) 0.0250 Uiso
H25_5 H 0.886547 0.313176 0.190768 0.0300 Uiso
C50_5 C 0.7781(18) 0.4649(14) 0.1557(14) 0.0590 Uiso
H28_5 H 0.745405 0.465237 0.176054 0.0710 Uiso
C52_4 C 0.7889(18) 0.5061(18) 0.1172(16) 0.0880 Uiso
H30_4 H 0.761962 0.535176 0.112273 0.1060 Uiso
C53_5 C 0.8766(17) 0.4632(15) 0.0858(15) 0.0550 Uiso
H31_5 H 0.906352 0.462318 0.062145 0.0660 Uiso
C54_4 C 0.8375(15) 0.5057(15) 0.0863(14) 0.0550 Uiso
H32_4 H 0.843485 0.536376 0.064663 0.0660 Uiso
N2_5 N 0.9761(10) 0.3109(9) 0.9641(9) 0.0300 Uiso
N4_3 N 0.9288(9) 0.2911(8) 0.8881(8) 0.0200 Uiso
C15_5 C 0.9271(10) 0.2917(9) 0.9400(8) 0.0120 Uiso
H6_5 H 0.894878 0.279834 0.957845 0.0140 Uiso
C16_5 C 0.9821(11) 0.3096(11) 0.8798(10) 0.0260 Uiso
H14_5 H 0.990853 0.304193 0.797093 0.0430 Uiso
N2_6 N 0.0239(10) 0.3109(9) 0.5359(9) 0.0300 Uiso
N4_4 N 0.0712(9) 0.2911(8) 0.6119(8) 0.0200 Uiso
N5_6 N 0.0988(10) 0.3723(9) 0.3633(8) 0.0260 Uiso
C7_6 C 0.0152(10) 0.3197(9) 0.4738(9) 0.0140 Uiso
C9_6 C 0.0606(11) 0.3396(10) 0.4492(10) 0.0230 Uiso
H4_6 H 0.096618 0.347698 0.468253 0.0280 Uiso
C15_6 C 0.0729(10) 0.2917(9) 0.5600(8) 0.0120 Uiso
H6_6 H 0.105122 0.279834 0.542155 0.0140 Uiso
C16_6 C 0.0179(11) 0.3096(11) 0.6202(10) 0.0260 Uiso
H14_6 H 0.009147 0.304193 0.702907 0.0430 Uiso
C30_6 C 0.0518(10) 0.3482(9) 0.3920(9) 0.0150 Uiso
C40_6 C 0.1752(13) 0.4205(12) 0.3396(11) 0.0350 Uiso
C45_6 C 0.1306(15) 0.4189(14) 0.3755(13) 0.0450 Uiso
C47_6 C 0.1256(12) 0.3473(11) 0.3237(10) 0.0250 Uiso
H25_6 H 0.113453 0.313176 0.309232 0.0300 Uiso
C50_6 C 0.2219(18) 0.4649(14) 0.3443(14) 0.0590 Uiso
H28_6 H 0.254595 0.465237 0.323946 0.0710 Uiso
C52_5 C 0.2111(18) 0.5061(18) 0.3828(16) 0.0880 Uiso
H30_5 H 0.238038 0.535176 0.387727 0.1060 Uiso
C53_6 C 0.1234(17) 0.4632(15) 0.4142(15) 0.0550 Uiso
H31_6 H 0.093648 0.462318 0.437855 0.0660 Uiso
C54_5 C 0.1625(15) 0.5057(15) 0.4137(14) 0.0550 Uiso
H32_5 H 0.156515 0.536376 0.435337 0.0660 Uiso
N1_6 N 0.9020(9) 0.2893(8) 0.3643(8) 0.0220 Uiso
O4_6 O 0.6828(9) 0.3879(8) 0.2031(8) 0.0380 Uiso
C2_6 C 0.9544(10) 0.3056(10) 0.3928(9) 0.0190 Uiso
C4_6 C 0.8704(11) 0.3197(10) 0.3218(10) 0.0230 Uiso
H1_6 H 0.883769 0.352933 0.308234 0.0270 Uiso
C6_5 C 0.5657(10) 0.5921(9) 0.0015(9) 0.0170 Uiso
N6_6 N 0.8227(9) 0.2969(9) 0.3048(8) 0.0240 Uiso
C8_6 C 0.8652(11) 0.2407(10) 0.3722(10) 0.0250 Uiso
C10_6 C 0.9995(11) 0.3312(11) 0.3651(10) 0.0240 Uiso
H5_6 H 0.993611 0.336575 0.328017 0.0290 Uiso
C11_4 C 0.9881(11) 0.3217(10) 0.5736(10) 0.0220 Uiso
C12_6 C 0.6254(12) 0.4319(11) 0.1280(10) 0.0260 Uiso
C17_6 C 0.9620(11) 0.2990(10) 0.4483(10) 0.0220 Uiso
H7_6 H 0.933559 0.281831 0.467537 0.0270 Uiso
C18_6 C 0.4183(10) 0.6747(10) 0.0641(9) 0.0180 Uiso
C19_5 C 0.5455(10) 0.5737(10) 0.0498(9) 0.0190 Uiso
C22_6 C 0.3714(10) 0.6914(10) 0.0314(10) 0.0210 Uiso
C24_6 C 0.3215(15) 0.7160(14) 0.0510(14) 0.0480 Uiso
H12_6 H 0.291567 0.730326 0.027243 0.0580 Uiso
C25_6 C 0.8166(12) 0.2486(11) 0.3333(11) 0.0280 Uiso
C27_4 C 0.9901(13) 0.3152(12) 0.6701(12) 0.0360 Uiso
C28_5 C 0.5953(11) 0.5257(10) 0.1327(10) 0.0220 Uiso
H15_5 H 0.589720 0.557941 0.152215 0.0260 Uiso
C29_6 C 0.4703(10) 0.6468(9) 0.0407(9) 0.0150 Uiso
C31_6 C 0.7748(14) 0.2046(12) 0.3306(12) 0.0400 Uiso
H16_6 H 0.741283 0.204819 0.306366 0.0480 Uiso
C32_6 C 0.7863(16) 0.1636(15) 0.3644(14) 0.0530 Uiso
H17_6 H 0.757780 0.135707 0.363170 0.0630 Uiso
C33_6 C 0.3168(12) 0.7191(12) 0.1075(11) 0.0300 Uiso
O7_6 O 0.7481(15) 0.4093(14) 0.3072(14) 0.0950 Uiso
C34_6 C 0.4157(13) 0.6829(11) 0.1197(11) 0.0310 Uiso
H18_6 H 0.448656 0.673908 0.142798 0.0380 Uiso
C35_6 C 0.6528(10) 0.3763(10) 0.1556(9) 0.0190 Uiso
C36_6 C 0.3681(12) 0.7031(11) 0.1405(11) 0.0290 Uiso
H19_6 H 0.368235 0.706904 0.177717 0.0350 Uiso
C37_6 C 0.4987(11) 0.6034(10) 0.0700(10) 0.0230 Uiso
H20_6 H 0.486286 0.594016 0.103513 0.0270 Uiso
C38_5 C 0.5738(10) 0.5249(9) 0.0782(9) 0.0160 Uiso
C39_6 C 0.8315(13) 0.1556(12) 0.3996(12) 0.0360 Uiso
H21_6 H 0.836321 0.123264 0.419962 0.0430 Uiso
C41_6 C 0.6218(12) 0.4854(11) 0.1572(10) 0.0270 Uiso
C42_6 C 0.2613(13) 0.7387(12) 0.1276(12) 0.0340 Uiso
C43_6 C 0.6075(13) 0.4306(13) 0.0742(12) 0.0380 Uiso
H22_6 H 0.611869 0.398325 0.054464 0.0450 Uiso
C44_4 C 0.9306(16) 0.3408(14) 0.5727(15) 0.0530 Uiso
H23_4 H 0.911852 0.352876 0.540185 0.0630 Uiso
C46_6 C 0.8724(14) 0.1997(12) 0.4044(12) 0.0380 Uiso
H24_6 H 0.904079 0.198899 0.430643 0.0450 Uiso
C48_4 C 0.9324(16) 0.3384(15) 0.6666(15) 0.0540 Uiso
H26_4 H 0.916841 0.350980 0.697880 0.0650 Uiso
C49_6 C 0.5822(12) 0.4790(11) 0.0485(11) 0.0290 Uiso
H27_6 H 0.571475 0.478928 0.011608 0.0350 Uiso
C51_4 C 0.8994(16) 0.3428(14) 0.6191(14) 0.0500 Uiso
H29_4 H 0.858436 0.346789 0.617331 0.0600 Uiso
H33_6 H 0.641293 0.489973 0.198397 . .
H34_6 H 0.755881 0.445641 0.290277 . .
H35_6 H 0.777794 0.40293 0.338156 . .
O1_6 O 0.5858(9) 0.7257(8) 0.7329(8) 0.0340 Uiso
C1_6 C 0.6234(10) 0.7115(9) 0.7712(9) 0.0160 Uiso
C3_6 C 0.5378(10) 0.6362(9) 0.9705(8) 0.0120 Uiso
C5_5 C 0.4887(9) 0.6624(9) 0.9935(8) 0.0120 Uiso
H2_5 H 0.469118 0.691268 0.974734 0.0140 Uiso
H3_6 H 0.598664 0.574954 0.988795 0.0200 Uiso
C13_6 C 0.5603(11) 0.6536(10) 0.9215(9) 0.0200 Uiso
C14_6 C 0.6023(10) 0.6933(9) 0.8204(8) 0.0130 Uiso
C20_6 C 0.5203(11) 0.6649(10) 0.8729(9) 0.0210 Uiso
H8_5 H 0.479619 0.660233 0.874064 0.0250 Uiso
C21_6 C 0.6428(11) 0.6816(10) 0.8673(9) 0.0200 Uiso
H9_6 H 0.683262 0.687317 0.865887 0.0240 Uiso
H10_5 H 0.372236 0.686448 0.994427 0.0250 Uiso
C23_6 C 0.6214(10) 0.6624(9) 0.9128(9) 0.0170 Uiso
H11_6 H 0.649050 0.654154 0.941298 0.0210 Uiso
C26_6 C 0.5428(11) 0.6823(10) 0.8258(10) 0.0230 Uiso
H13_6 H 0.516289 0.686924 0.795604 0.0270 Uiso
O8_6 O 0.6748(9) 0.8757(9) 0.7141(8) 0.0390 Uiso
O9_6 O 0.6627(17) 0.8406(9) 0.7073(14) 0.1050 Uiso
N8_4 N 0.5712(9) 0.7911(8) 0.6119(8) 0.0200 Uiso
C5_6 C 0.0113(9) 0.1624(9) 0.5065(8) 0.0120 Uiso
H2_6 H 0.030882 0.191268 0.525266 0.0140 Uiso
C18_7 C 0.0817(10) 0.1747(10) 0.4359(9) 0.0180 Uiso
H8_6 H 0.020381 0.160233 0.625936 0.0250 Uiso
C22_7 C 0.1286(10) 0.1914(10) 0.4686(10) 0.0210 Uiso
H10_6 H 0.127764 0.186448 0.505573 0.0250 Uiso
C24_7 C 0.1785(15) 0.2160(14) 0.4490(14) 0.0480 Uiso
H12_7 H 0.208433 0.230326 0.472757 0.0580 Uiso
C29_7 C 0.0297(10) 0.1468(9) 0.4593(9) 0.0150 Uiso
C33_7 C 0.1832(12) 0.2191(12) 0.3925(11) 0.0300 Uiso
C34_7 C 0.0843(13) 0.1829(11) 0.3803(11) 0.0310 Uiso
H18_7 H 0.051344 0.173908 0.357202 0.0380 Uiso
C36_7 C 0.1319(12) 0.2031(11) 0.3595(11) 0.0290 Uiso
H19_7 H 0.131765 0.206904 0.322283 0.0350 Uiso
C37_7 C 0.0013(11) 0.1034(10) 0.4300(10) 0.0230 Uiso
H20_7 H 0.013714 0.094016 0.396487 0.0270 Uiso
C42_7 C 0.2387(13) 0.2387(12) 0.3724(12) 0.0340 Uiso
O1_7 O 0.9142(9) 0.2257(8) 0.7671(8) 0.0340 Uiso
C1_7 C 0.8766(10) 0.2115(9) 0.7288(9) 0.0160 Uiso
C3_7 C 0.9622(10) 0.1362(9) 0.5295(8) 0.0120 Uiso
C6_6 C 0.9343(10) 0.0921(9) 0.4985(9) 0.0170 Uiso
H3_7 H 0.901336 0.074954 0.511205 0.0200 Uiso
C13_7 C 0.9397(11) 0.1536(10) 0.5785(9) 0.0200 Uiso
C14_7 C 0.8977(10) 0.1933(9) 0.6796(8) 0.0130 Uiso
C19_6 C 0.9545(10) 0.0737(10) 0.4502(9) 0.0190 Uiso
C20_7 C 0.9797(11) 0.1649(10) 0.6271(9) 0.0210 Uiso
C21_7 C 0.8572(11) 0.1816(10) 0.6327(9) 0.0200 Uiso
H9_7 H 0.816738 0.187317 0.634113 0.0240 Uiso
C23_7 C 0.8786(10) 0.1624(9) 0.5872(9) 0.0170 Uiso
H11_7 H 0.850950 0.154154 0.558702 0.0210 Uiso
C26_7 C 0.9572(11) 0.1823(10) 0.6742(10) 0.0230 Uiso
H13_7 H 0.983711 0.186924 0.704396 0.0270 Uiso
C28_6 C 0.9047(11) 0.0257(10) 0.3673(10) 0.0220 Uiso
H15_6 H 0.910280 0.057941 0.347785 0.0260 Uiso
C38_6 C 0.9262(10) 0.0249(9) 0.4218(9) 0.0160 Uiso
C52_6 C 0.2889(18) 0.0061(18) 0.1172(16) 0.0880 Uiso
H30_6 H 0.261962 0.035176 0.112273 0.1060 Uiso
C54_6 C 0.3375(15) 0.0057(15) 0.0863(14) 0.0550 Uiso
H32_6 H 0.343485 0.036376 0.064663 0.0660 Uiso
O8_7 O 0.8252(9) 0.3757(9) 0.7859(8) 0.0390 Uiso
O9_7 O 0.8373(17) 0.3406(9) 0.7927(14) 0.1050 Uiso
N1_7 N 0.5980(9) 0.7893(8) 0.1357(8) 0.0220 Uiso
N3_4 N 0.3289(9) 0.8758(9) 0.1932(8) 0.0240 Uiso
O4_7 O 0.8172(9) 0.8879(8) 0.2969(8) 0.0380 Uiso
N5_7 N 0.4012(10) 0.8723(9) 0.1367(8) 0.0260 Uiso
C2_7 C 0.5456(10) 0.8056(10) 0.1072(9) 0.0190 Uiso
C4_7 C 0.6296(11) 0.8197(10) 0.1782(10) 0.0230 Uiso
H1_7 H 0.616231 0.852933 0.191766 0.0270 Uiso
N6_7 N 0.6773(9) 0.7969(9) 0.1952(8) 0.0240 Uiso
C7_7 C 0.4848(10) 0.8197(9) 0.0262(9) 0.0140 Uiso
C8_7 C 0.6348(11) 0.7407(10) 0.1278(10) 0.0250 Uiso
C9_7 C 0.4394(11) 0.8396(10) 0.0508(10) 0.0230 Uiso
H4_7 H 0.403382 0.847698 0.031747 0.0280 Uiso
C10_7 C 0.5005(11) 0.8312(11) 0.1349(10) 0.0240 Uiso
H5_7 H 0.506389 0.836575 0.171983 0.0290 Uiso
C12_7 C 0.8746(12) 0.9319(11) 0.3720(10) 0.0260 Uiso
C17_7 C 0.5380(11) 0.7990(10) 0.0517(10) 0.0220 Uiso
H7_7 H 0.566441 0.781831 0.032463 0.0270 Uiso
C25_7 C 0.6834(12) 0.7486(11) 0.1667(11) 0.0280 Uiso
C30_7 C 0.4482(10) 0.8482(9) 0.1080(9) 0.0150 Uiso
C31_7 C 0.7252(14) 0.7046(12) 0.1694(12) 0.0400 Uiso
H16_7 H 0.758717 0.704819 0.193634 0.0480 Uiso
C32_7 C 0.7137(16) 0.6636(15) 0.1356(14) 0.0530 Uiso
H17_7 H 0.742220 0.635707 0.136830 0.0630 Uiso
O7_7 O 0.7519(15) 0.9093(14) 0.1928(14) 0.0950 Uiso
C35_7 C 0.8472(10) 0.8763(10) 0.3444(9) 0.0190 Uiso
C39_7 C 0.6685(13) 0.6556(12) 0.1004(12) 0.0360 Uiso
H21_7 H 0.663679 0.623264 0.080038 0.0430 Uiso
C40_7 C 0.3248(13) 0.9205(12) 0.1604(11) 0.0350 Uiso
C41_7 C 0.8782(12) 0.9854(11) 0.3428(10) 0.0270 Uiso
C43_7 C 0.8925(13) 0.9306(13) 0.4258(12) 0.0380 Uiso
H22_7 H 0.888131 0.898325 0.445536 0.0450 Uiso
C45_7 C 0.3694(15) 0.9189(14) 0.1245(13) 0.0450 Uiso
C46_7 C 0.6276(14) 0.6997(12) 0.0956(12) 0.0380 Uiso
H24_7 H 0.595921 0.698899 0.069357 0.0450 Uiso
C47_7 C 0.3744(12) 0.8473(11) 0.1763(10) 0.0250 Uiso
H25_7 H 0.386547 0.813176 0.190768 0.0300 Uiso
C49_7 C 0.9178(12) 0.9790(11) 0.4515(11) 0.0290 Uiso
H27_7 H 0.928525 0.978928 0.488392 0.0350 Uiso
C50_7 C 0.2781(18) 0.9649(14) 0.1557(14) 0.0590 Uiso
H28_7 H 0.245405 0.965237 0.176054 0.0710 Uiso
C53_7 C 0.3766(17) 0.9632(15) 0.0858(15) 0.0550 Uiso
H31_7 H 0.406352 0.962318 0.062145 0.0660 Uiso
N7_4 N 0.6711(9) 0.8758(9) 0.3068(8) 0.0240 Uiso
H33_7 H 0.858707 0.989973 0.301603 . .
H34_7 H 0.744119 0.945641 0.209723 . .
H35_7 H 0.722206 0.90293 0.161844 . .
N2_7 N 0.4761(10) 0.8109(9) 0.9641(9) 0.0300 Uiso
C11_5 C 0.5119(11) 0.8217(10) 0.9264(10) 0.0220 Uiso
C15_7 C 0.4271(10) 0.7917(9) 0.9400(8) 0.0120 Uiso
H6_7 H 0.394878 0.779834 0.957845 0.0140 Uiso
C16_7 C 0.4821(11) 0.8096(11) 0.8798(10) 0.0260 Uiso
C27_5 C 0.5099(13) 0.8152(12) 0.8299(12) 0.0360 Uiso
H14_7 H 0.490853 0.804193 0.797093 0.0430 Uiso
C44_5 C 0.5694(16) 0.8408(14) 0.9273(15) 0.0530 Uiso
H23_5 H 0.588148 0.852876 0.959815 0.0630 Uiso
C48_5 C 0.5676(16) 0.8384(15) 0.8334(15) 0.0540 Uiso
H26_5 H 0.583159 0.850980 0.802120 0.0650 Uiso
C51_5 C 0.6006(16) 0.8428(14) 0.8809(14) 0.0500 Uiso
H29_5 H 0.641564 0.846789 0.882669 0.0600 Uiso
O1_8 O 0.0858(9) 0.2257(8) 0.7329(8) 0.0340 Uiso
C1_8 C 0.1234(10) 0.2115(9) 0.7712(9) 0.0160 Uiso
C3_8 C 0.0378(10) 0.1362(9) 0.9705(8) 0.0120 Uiso
H3_8 H 0.098664 0.074954 0.988795 0.0200 Uiso
C13_8 C 0.0603(11) 0.1536(10) 0.9215(9) 0.0200 Uiso
C14_8 C 0.1023(10) 0.1933(9) 0.8204(8) 0.0130 Uiso
C20_8 C 0.0203(11) 0.1649(10) 0.8729(9) 0.0210 Uiso
C21_8 C 0.1428(11) 0.1816(10) 0.8673(9) 0.0200 Uiso
H9_8 H 0.183262 0.187317 0.865887 0.0240 Uiso
C23_8 C 0.1214(10) 0.1624(9) 0.9128(9) 0.0170 Uiso
H11_8 H 0.149050 0.154154 0.941298 0.0210 Uiso
C26_8 C 0.0428(11) 0.1823(10) 0.8258(10) 0.0230 Uiso
H13_8 H 0.016289 0.186924 0.795604 0.0270 Uiso
O8_8 O 0.1748(9) 0.3757(9) 0.7141(8) 0.0390 Uiso
O9_8 O 0.1627(17) 0.3406(9) 0.7073(14) 0.1050 Uiso
N1_8 N 0.4020(9) 0.7893(8) 0.3643(8) 0.0220 Uiso
N2_8 N 0.5239(10) 0.8109(9) 0.5359(9) 0.0300 Uiso
O4_8 O 0.1828(9) 0.8879(8) 0.2031(8) 0.0380 Uiso
N5_8 N 0.5988(10) 0.8723(9) 0.3633(8) 0.0260 Uiso
C2_8 C 0.4544(10) 0.8056(10) 0.3928(9) 0.0190 Uiso
C4_8 C 0.3704(11) 0.8197(10) 0.3218(10) 0.0230 Uiso
H1_8 H 0.383769 0.852933 0.308234 0.0270 Uiso
N6_8 N 0.3227(9) 0.7969(9) 0.3048(8) 0.0240 Uiso
C7_8 C 0.5152(10) 0.8197(9) 0.4738(9) 0.0140 Uiso
C8_8 C 0.3652(11) 0.7407(10) 0.3722(10) 0.0250 Uiso
C9_8 C 0.5606(11) 0.8396(10) 0.4492(10) 0.0230 Uiso
H4_8 H 0.596618 0.847698 0.468253 0.0280 Uiso
C10_8 C 0.4995(11) 0.8312(11) 0.3651(10) 0.0240 Uiso
H5_8 H 0.493611 0.836575 0.328017 0.0290 Uiso
C11_6 C 0.4881(11) 0.8217(10) 0.5736(10) 0.0220 Uiso
C12_8 C 0.1254(12) 0.9319(11) 0.1280(10) 0.0260 Uiso
C15_8 C 0.5729(10) 0.7917(9) 0.5600(8) 0.0120 Uiso
H6_8 H 0.605122 0.779834 0.542155 0.0140 Uiso
C16_8 C 0.5179(11) 0.8096(11) 0.6202(10) 0.0260 Uiso
C17_8 C 0.4620(11) 0.7990(10) 0.4483(10) 0.0220 Uiso
H7_8 H 0.433559 0.781831 0.467537 0.0270 Uiso
C25_8 C 0.3166(12) 0.7486(11) 0.3333(11) 0.0280 Uiso
C27_6 C 0.4901(13) 0.8152(12) 0.6701(12) 0.0360 Uiso
H14_8 H 0.509147 0.804193 0.702907 0.0430 Uiso
C30_8 C 0.5518(10) 0.8482(9) 0.3920(9) 0.0150 Uiso
C31_8 C 0.2748(14) 0.7046(12) 0.3306(12) 0.0400 Uiso
H16_8 H 0.241283 0.704819 0.306366 0.0480 Uiso
C32_8 C 0.2863(16) 0.6636(15) 0.3644(14) 0.0530 Uiso
H17_8 H 0.257780 0.635707 0.363170 0.0630 Uiso
O7_8 O 0.2481(15) 0.9093(14) 0.3072(14) 0.0950 Uiso
C35_8 C 0.1528(10) 0.8763(10) 0.1556(9) 0.0190 Uiso
C39_8 C 0.3315(13) 0.6556(12) 0.3996(12) 0.0360 Uiso
H21_8 H 0.336321 0.623264 0.419962 0.0430 Uiso
C40_8 C 0.6752(13) 0.9205(12) 0.3396(11) 0.0350 Uiso
C41_8 C 0.1218(12) 0.9854(11) 0.1572(10) 0.0270 Uiso
C43_8 C 0.1075(13) 0.9306(13) 0.0742(12) 0.0380 Uiso
H22_8 H 0.111869 0.898325 0.054464 0.0450 Uiso
C44_6 C 0.4306(16) 0.8408(14) 0.5727(15) 0.0530 Uiso
H23_6 H 0.411852 0.852876 0.540185 0.0630 Uiso
C45_8 C 0.6306(15) 0.9189(14) 0.3755(13) 0.0450 Uiso
C46_8 C 0.3724(14) 0.6997(12) 0.4044(12) 0.0380 Uiso
H24_8 H 0.404079 0.698899 0.430643 0.0450 Uiso
C47_8 C 0.6256(12) 0.8473(11) 0.3237(10) 0.0250 Uiso
H25_8 H 0.613453 0.813176 0.309232 0.0300 Uiso
C48_6 C 0.4324(16) 0.8384(15) 0.6666(15) 0.0540 Uiso
H26_6 H 0.416841 0.850980 0.697880 0.0650 Uiso
C49_8 C 0.0822(12) 0.9790(11) 0.0485(11) 0.0290 Uiso
H27_8 H 0.071475 0.978928 0.011608 0.0350 Uiso
C50_8 C 0.7219(18) 0.9649(14) 0.3443(14) 0.0590 Uiso
H28_8 H 0.754595 0.965237 0.323946 0.0710 Uiso
C51_6 C 0.3994(16) 0.8428(14) 0.6191(14) 0.0500 Uiso
H29_6 H 0.358436 0.846789 0.617331 0.0600 Uiso
C53_8 C 0.6234(17) 0.9632(15) 0.4142(15) 0.0550 Uiso
H31_8 H 0.593648 0.962318 0.437855 0.0660 Uiso
H33_8 H 0.141293 0.989973 0.198397 . .
H34_8 H 0.255881 0.945641 0.290277 . .
H35_8 H 0.277794 0.90293 0.338156 . .
C18_8 C 0.9183(10) 0.1747(10) 0.0641(9) 0.0180 Uiso
C22_8 C 0.8714(10) 0.1914(10) 0.0314(10) 0.0210 Uiso
C24_8 C 0.8215(15) 0.2160(14) 0.0510(14) 0.0480 Uiso
H12_8 H 0.791567 0.230326 0.027243 0.0580 Uiso
C29_8 C 0.9703(10) 0.1468(9) 0.0407(9) 0.0150 Uiso
C33_8 C 0.8168(12) 0.2191(12) 0.1075(11) 0.0300 Uiso
C34_8 C 0.9157(13) 0.1829(11) 0.1197(11) 0.0310 Uiso
H18_8 H 0.948656 0.173908 0.142798 0.0380 Uiso
C36_8 C 0.8681(12) 0.2031(11) 0.1405(11) 0.0290 Uiso
H19_8 H 0.868235 0.206904 0.177717 0.0350 Uiso
C37_8 C 0.9987(11) 0.1034(10) 0.0700(10) 0.0230 Uiso
H20_8 H 0.986286 0.094016 0.103513 0.0270 Uiso
C42_8 C 0.7613(13) 0.2387(12) 0.1276(12) 0.0340 Uiso
C11_7 C 0.9881(11) 0.6783(10) 0.0736(10) 0.0220 Uiso
C27_7 C 0.9901(13) 0.6848(12) 0.1701(12) 0.0360 Uiso
C44_7 C 0.9306(16) 0.6592(14) 0.0727(15) 0.0530 Uiso
H23_7 H 0.911852 0.647124 0.040185 0.0630 Uiso
C48_7 C 0.9324(16) 0.6616(15) 0.1666(15) 0.0540 Uiso
H26_7 H 0.916841 0.649020 0.197880 0.0650 Uiso
C51_7 C 0.8994(16) 0.6572(14) 0.1191(14) 0.0500 Uiso
H29_7 H 0.858436 0.653211 0.117331 0.0600 Uiso
C5_7 C 0.0113(9) 0.8376(9) 0.0065(8) 0.0120 Uiso
H2_7 H 0.030882 0.808732 0.025266 0.0140 Uiso
H8_7 H 0.020381 0.839767 0.125936 0.0250 Uiso
H10_7 H 0.127764 0.813552 0.005573 0.0250 Uiso
C6_7 C 0.9343(10) 0.9079(9) 0.9985(9) 0.0170 Uiso
C19_7 C 0.9545(10) 0.9263(10) 0.9502(9) 0.0190 Uiso
C28_7 C 0.9047(11) 0.9743(10) 0.8673(10) 0.0220 Uiso
H15_7 H 0.910280 0.942059 0.847785 0.0260 Uiso
C38_7 C 0.9262(10) 0.9751(9) 0.9218(9) 0.0160 Uiso
C52_7 C 0.2889(18) 0.9939(18) 0.6172(16) 0.0880 Uiso
H30_7 H 0.261962 0.964824 0.612273 0.1060 Uiso
C54_7 C 0.3375(15) 0.9943(15) 0.5863(14) 0.0550 Uiso
H32_7 H 0.343485 0.963624 0.564663 0.0660 Uiso
C11_8 C 0.0119(11) 0.3217(10) 0.9264(10) 0.0220 Uiso
C27_8 C 0.0099(13) 0.3152(12) 0.8299(12) 0.0360 Uiso
C44_8 C 0.0694(16) 0.3408(14) 0.9273(15) 0.0530 Uiso
H23_8 H 0.088148 0.352876 0.959815 0.0630 Uiso
C48_8 C 0.0676(16) 0.3384(15) 0.8334(15) 0.0540 Uiso
H26_8 H 0.083159 0.350980 0.802120 0.0650 Uiso
C51_8 C 0.1006(16) 0.3428(14) 0.8809(14) 0.0500 Uiso
H29_8 H 0.141564 0.346789 0.882669 0.0600 Uiso
C6_8 C 0.0657(10) 0.0921(9) 0.0015(9) 0.0170 Uiso
C19_8 C 0.0455(10) 0.0737(10) 0.0498(9) 0.0190 Uiso
C28_8 C 0.0953(11) 0.0257(10) 0.1327(10) 0.0220 Uiso
H15_8 H 0.089720 0.057941 0.152215 0.0260 Uiso
C38_8 C 0.0738(10) 0.0249(9) 0.0782(9) 0.0160 Uiso
C52_8 C 0.7111(18) 0.0061(18) 0.3828(16) 0.0880 Uiso
H30_8 H 0.738038 0.035176 0.387727 0.1060 Uiso
C54_8 C 0.6625(15) 0.0057(15) 0.4137(14) 0.0550 Uiso
H32_8 H 0.656515 0.036376 0.435337 0.0660 Uiso
C5_8 C 0.9887(9) 0.1624(9) 0.9935(8) 0.0120 Uiso
H2_8 H 0.969118 0.191268 0.974734 0.0140 Uiso
H8_8 H 0.979619 0.160233 0.874064 0.0250 Uiso
H10_8 H 0.872236 0.186448 0.994427 0.0250 Uiso
I1 I 0.70803(14) 0.85886(13) 0.04273(12) 0.0762 Uiso
I2 I 0.750000 0.750000 0.000000 0.0726 Uiso
I2_2 I 0.750000 0.750000 1.000000 0.0726 Uiso
I3 I 0.79197(14) 0.64114(13) 0.95727(12) 0.0762 Uiso
I1_2 I 0.29197(14) 0.85886(13) 0.45727(12) 0.0762 Uiso
I2_3 I 0.250000 0.750000 0.500000 0.0726 Uiso
I3_2 I 0.20803(14) 0.64114(13) 0.54273(12) 0.0762 Uiso
I1_3 I 0.20803(14) 0.35886(13) 0.04273(12) 0.0762 Uiso
I2_4 I 0.250000 0.250000 0.000000 0.0726 Uiso
I2_5 I 0.250000 0.250000 1.000000 0.0726 Uiso
I3_3 I 0.29197(14) 0.14114(13) 0.95727(12) 0.0762 Uiso
I1_4 I 0.79197(14) 0.35886(13) 0.45727(12) 0.0762 Uiso
I2_6 I 0.750000 0.250000 0.500000 0.0726 Uiso
I3_4 I 0.70803(14) 0.14114(13) 0.54273(12) 0.0762 Uiso
I6 I -0.000000 0.0276(14) 0.750000 0.5600 Uiso
I8 I 0.0925(8) 0.0093(7) 0.8341(7) 0.4100 Uiso
I4 I -0.000000 0.7773(3) 0.750000 0.1310 Uiso
I5 I -0.000000 0.8989(4) 0.750000 0.1960 Uiso
I6_2 I 1.000000 0.0276(14) 0.750000 0.5600 Uiso
I7 I 0.9075(8) 0.0093(7) 0.6659(7) 0.4100 Uiso
I4_2 I 1.000000 0.7773(3) 0.750000 0.1310 Uiso
I5_2 I 1.000000 0.8989(4) 0.750000 0.1960 Uiso
I4_3 I 0.500000 0.2773(3) 0.750000 0.1310 Uiso
I5_3 I 0.500000 0.3989(4) 0.750000 0.1960 Uiso
I6_3 I 0.500000 0.5276(14) 0.750000 0.5600 Uiso
I7_2 I 0.4075(8) 0.5093(7) 0.6659(7) 0.4100 Uiso
I8_2 I 0.5925(8) 0.5093(7) 0.8341(7) 0.4100 Uiso
I4_4 I 0.000000 0.2227(3) 0.250000 0.1310 Uiso
I5_4 I 0.000000 0.1011(4) 0.250000 0.1960 Uiso
I6_4 I 0.000000 0.9724(14) 0.250000 0.5600 Uiso
I7_3 I 0.0925(8) 0.9907(7) 0.3341(7) 0.4100 Uiso
I4_5 I 1.000000 0.2227(3) 0.250000 0.1310 Uiso
I5_5 I 1.000000 0.1011(4) 0.250000 0.1960 Uiso
I6_5 I 1.000000 0.9724(14) 0.250000 0.5600 Uiso
I8_3 I 0.9075(8) 0.9907(7) 0.1659(7) 0.4100 Uiso
I4_6 I 0.500000 0.7227(3) 0.250000 0.1310 Uiso
I5_6 I 0.500000 0.6011(4) 0.250000 0.1960 Uiso
I6_6 I 0.500000 0.4724(14) 0.250000 0.5600 Uiso
I7_4 I 0.5925(8) 0.4907(7) 0.3341(7) 0.4100 Uiso
I8_4 I 0.4075(8) 0.4907(7) 0.1659(7) 0.4100 Uiso
Na1 Na 0.2436(10) 0.3631(9) 0.4503(9) 0.1070 Uiso
Na1_2 Na 0.7564(10) 0.3631(9) 0.0497(9) 0.1070 Uiso
Na1_3 Na 0.7436(10) 0.8631(9) 0.4503(9) 0.1070 Uiso
Na1_4 Na 0.2564(10) 0.8631(9) 0.0497(9) 0.1070 Uiso
Na1_5 Na 0.7564(10) 0.6369(9) 0.5497(9) 0.1070 Uiso
Na1_6 Na 0.2436(10) 0.6369(9) 0.9503(9) 0.1070 Uiso
Na1_7 Na 0.2564(10) 0.1369(9) 0.5497(9) 0.1070 Uiso
Na1_8 Na 0.7436(10) 0.1369(9) 0.9503(9) 0.1070 Uiso
loop_
_geom_bond_atom_site_label_1
_geom_bond_atom_site_label_2
_geom_bond_site_symmetry_1
_geom_bond_site_symmetry_2
N4 C15 1_555 1_555
C15 N2 1_555 1_555
H6 C15 1_555 1_555
C16 N4 1_555 1_555
Cd6 N4 1_555 1_555
N3 C40 1_555 1_555
N5 C30 1_555 1_555
C7 C9 1_555 1_555
C9 H4 1_555 1_555
C30 C9 1_555 1_555
C40 C45 1_555 1_555
C45 N5 1_555 1_555
C47 N3 1_555 1_555
H25 C47 1_555 1_555
C50 C40 1_555 1_555
H28 C50 1_555 1_555
C52 C50 1_555 1_555
H30 C52 1_555 1_555
C53 C45 1_555 1_555
H31 C53 1_555 1_555
C54 C52 1_555 1_555
H32 C54 1_555 1_555
Cd3 N3 1_555 1_555
N5 C47 1_555 1_555
C53 C54 1_555 1_555
Cd1 O4 1_555 1_555
Cd2 O1 1_555 1_555
O1 C1 1_555 1_555
O2 Cd2 1_555 1_555
N1 C2 1_555 1_555
O3 C35 1_555 1_555
C1 O2 1_555 1_555
O4 C35 1_555 1_555
O5 C42 1_555 1_555
C2 C10 1_555 1_555
O6 C42 1_555 1_555
C3 C5 1_555 1_555
C4 N1 1_555 1_555
H1 C4 1_555 1_555
C5 H2 1_555 1_555
C6 C3 1_555 1_555
H3 C6 1_555 1_555
N6 Cd1 1_555 1_555
C8 N1 1_555 1_555
C10 H5 1_555 1_555
C12 C35 1_555 1_555
C13 C3 1_555 1_555
C14 C1 1_555 1_555
C17 C2 1_555 1_555
H7 C17 1_555 1_555
C18 C22 1_555 1_555
C19 C6 1_555 1_555
C20 C13 1_555 1_555
H8 C20 1_555 1_555
C21 C14 1_555 1_555
H9 C21 1_555 1_555
C22 H10 1_555 1_555
C23 C13 1_555 1_555
H11 C23 1_555 1_555
C24 C22 1_555 1_555
H12 C24 1_555 1_555
C25 N6 1_555 1_555
C26 C14 1_555 1_555
H13 C26 1_555 1_555
C28 H15 1_555 1_555
C29 C5 1_555 1_555
C31 C25 1_555 1_555
H16 C31 1_555 1_555
C32 C31 1_555 1_555
H17 C32 1_555 1_555
C33 C24 1_555 1_555
O7 Cd1 1_555 1_555
C34 C18 1_555 1_555
H18 C34 1_555 1_555
C36 C33 1_555 1_555
H19 C36 1_555 1_555
C37 C19 1_555 1_555
H20 C37 1_555 1_555
C38 C19 1_555 1_555
C39 C32 1_555 1_555
H21 C39 1_555 1_555
C41 C12 1_555 1_555
C42 C33 1_555 1_555
C43 C12 1_555 1_555
H22 C43 1_555 1_555
C46 C8 1_555 1_555
H24 C46 1_555 1_555
C49 C38 1_555 1_555
H27 C49 1_555 1_555
O8 O9 1_555 1_555
O9 Cd2 1_555 1_555
Cd4 O5 1_555 1_555
Cd5 O2 1_555 1_555
Cd7 O3 1_555 1_555
Cd8 O5 1_555 1_555
O10 Cd1 1_555 1_555
O11 Cd2 1_555 1_555
N7 Cd1 1_555 1_555
N8 Cd2 1_555 1_555
O12 Cd1 1_555 1_555
O13 Cd2 1_555 1_555
O14 Cd2 1_555 1_555
O6 Cd8 1_555 1_555
C4 N6 1_555 1_555
C8 C25 1_555 1_555
C18 C29 1_555 1_555
C20 C26 1_555 1_555
C21 C23 1_555 1_555
C28 C38 1_555 1_555
C28 C41 1_555 1_555
C29 C37 1_555 1_555
C34 C36 1_555 1_555
C39 C46 1_555 1_555
C43 C49 1_555 1_555
Cd5 O13 1_555 1_555
Cd7 O10 1_555 1_555
Cd7 O12 1_555 1_555
C41 H33 1_555 1_555
O7 H34 1_555 1_555
O7 H35 1_555 1_555
Cd2_2 O1_2 1_555 1_555
O1_2 C1_2 1_555 1_555
O2_2 Cd2_2 1_555 1_555
C1_2 O2_2 1_555 1_555
C3_2 C5_2 1_555 1_555
C5_2 H2_2 1_555 1_555
C13_2 C3_2 1_555 1_555
C14_2 C1_2 1_555 1_555
C20_2 C13_2 1_555 1_555
H8_2 C20_2 1_555 1_555
C21_2 C14_2 1_555 1_555
H9_2 C21_2 1_555 1_555
C23_2 C13_2 1_555 1_555
H11_2 C23_2 1_555 1_555
C26_2 C14_2 1_555 1_555
H13_2 C26_2 1_555 1_555
O8_2 O9_2 1_555 1_555
O9_2 Cd2_2 1_555 1_555
Cd5_2 O2_2 1_555 1_555
O11_2 Cd2_2 1_555 1_555
N8_2 Cd2_2 1_555 1_555
O13_2 Cd2_2 1_555 1_555
O14_2 Cd2_2 1_555 1_555
C20_2 C26_2 1_555 1_555
C21_2 C23_2 1_555 1_555
Cd5_2 O13_2 1_555 1_555
Cd3 O4_2 1_555 1_555
N1_2 C2_2 1_555 1_555
O3_2 C35_2 1_555 1_555
O4_2 C35_2 1_555 1_555
O5_2 C42_2 1_555 1_555
C2_2 C10_2 1_555 1_555
O6_2 C42_2 1_555 1_555
C4_2 N1_2 1_555 1_555
H1_2 C4_2 1_555 1_555
N6_2 Cd3 1_555 1_555
C8_2 N1_2 1_555 1_555
C10_2 H5_2 1_555 1_555
C12_2 C35_2 1_555 1_555
C17_2 C2_2 1_555 1_555
H7_2 C17_2 1_555 1_555
C18_2 C22_2 1_555 1_555
C19_2 C6_2 1_555 1_555
C24_2 C22_2 1_555 1_555
H12_2 C24_2 1_555 1_555
C25_2 N6_2 1_555 1_555
C28_2 H15_2 1_555 1_555
C31_2 C25_2 1_555 1_555
H16_2 C31_2 1_555 1_555
C32_2 C31_2 1_555 1_555
H17_2 C32_2 1_555 1_555
C33_2 C24_2 1_555 1_555
O7_2 Cd3 1_555 1_555
C34_2 C18_2 1_555 1_555
H18_2 C34_2 1_555 1_555
C36_2 C33_2 1_555 1_555
H19_2 C36_2 1_555 1_555
C37_2 C19_2 1_555 1_555
H20_2 C37_2 1_555 1_555
C38_2 C19_2 1_555 1_555
C39_2 C32_2 1_555 1_555
H21_2 C39_2 1_555 1_555
C41_2 C12_2 1_555 1_555
C42_2 C33_2 1_555 1_555
C43_2 C12_2 1_555 1_555
H22_2 C43_2 1_555 1_555
C44 C11 1_555 1_555
H23 C44 1_555 1_555
C46_2 C8_2 1_555 1_555
H24_2 C46_2 1_555 1_555
C48 C27 1_555 1_555
H26 C48 1_555 1_555
C49_2 C38_2 1_555 1_555
H27_2 C49_2 1_555 1_555
C51 C44 1_555 1_555
H29 C51 1_555 1_555
Cd4_2 O5_2 1_555 1_555
Cd7_2 O3_2 1_555 1_555
Cd8_2 O5_2 1_555 1_555
O10_2 Cd3 1_555 1_555
O12_2 Cd3 1_555 1_555
O6_2 Cd8_2 1_555 1_555
C4_2 N6_2 1_555 1_555
C8_2 C25_2 1_555 1_555
C18_2 C29_2 1_555 1_555
C28_2 C38_2 1_555 1_555
C28_2 C41_2 1_555 1_555
C29_2 C37_2 1_555 1_555
C34_2 C36_2 1_555 1_555
C39_2 C46_2 1_555 1_555
C43_2 C49_2 1_555 1_555
C48 C51 1_555 1_555
Cd7_2 O10_2 1_555 1_555
Cd7_2 O12_2 1_555 1_555
C41_2 H33_2 1_555 1_555
O7_2 H34_2 1_555 1_555
O7_2 H35_2 1_555 1_555
N2_2 C7_2 1_555 1_555
N7 C40_2 1_555 1_555
N4_2 C15_2 1_555 1_555
N5_2 C30_2 1_555 1_555
C7_2 C9_2 1_555 1_555
C9_2 H4_2 1_555 1_555
C15_2 N2_2 1_555 1_555
H6_2 C15_2 1_555 1_555
C16_2 N4_2 1_555 1_555
C30_2 C9_2 1_555 1_555
C40_2 C45_2 1_555 1_555
C45_2 N5_2 1_555 1_555
C47_2 N7 1_555 1_555
H25_2 C47_2 1_555 1_555
C50_2 C40_2 1_555 1_555
H28_2 C50_2 1_555 1_555
C52_2 C50_2 1_555 1_555
H30_2 C52_2 1_555 1_555
C53_2 C45_2 1_555 1_555
H31_2 C53_2 1_555 1_555
C54_2 C52_2 1_555 1_555
H32_2 C54_2 1_555 1_555
Cd6_2 N4_2 1_555 1_555
N5_2 C47_2 1_555 1_555
C53_2 C54_2 1_555 1_555
N8 C15_3 1_555 1_555
C11_2 N2_3 1_555 1_555
C15_3 N2_3 1_555 1_555
H6_3 C15_3 1_555 1_555
C16_3 N8 1_555 1_555
C27_2 C16_3 1_555 1_555
H14_3 C27_2 1_555 1_555
C44_2 C11_2 1_555 1_555
H23_2 C44_2 1_555 1_555
C48_2 C27_2 1_555 1_555
H26_2 C48_2 1_555 1_555
C51_2 C44_2 1_555 1_555
H29_2 C51_2 1_555 1_555
C11_2 C16_3 1_555 1_555
C48_2 C51_2 1_555 1_555
Cd4 O4_3 1_555 1_555
N1_3 C2_3 1_555 1_555
O3_3 C35_3 1_555 1_555
N3_2 C40_3 1_555 1_555
O4_3 C35_3 1_555 1_555
N5_3 C30_3 1_555 1_555
C2_3 C10_3 1_555 1_555
C4_3 N1_3 1_555 1_555
H1_3 C4_3 1_555 1_555
N6_3 Cd4 1_555 1_555
C7_3 C9_3 1_555 1_555
C8_3 N1_3 1_555 1_555
C9_3 H4_3 1_555 1_555
C10_3 H5_3 1_555 1_555
C12_3 C35_3 1_555 1_555
C17_3 C2_3 1_555 1_555
H7_3 C17_3 1_555 1_555
C25_3 N6_3 1_555 1_555
C30_3 C9_3 1_555 1_555
C31_3 C25_3 1_555 1_555
H16_3 C31_3 1_555 1_555
C32_3 C31_3 1_555 1_555
H17_3 C32_3 1_555 1_555
O7_3 Cd4 1_555 1_555
C39_3 C32_3 1_555 1_555
H21_3 C39_3 1_555 1_555
C40_3 C45_3 1_555 1_555
C41_3 C12_3 1_555 1_555
C43_3 C12_3 1_555 1_555
H22_3 C43_3 1_555 1_555
C45_3 N5_3 1_555 1_555
C46_3 C8_3 1_555 1_555
H24_3 C46_3 1_555 1_555
C47_3 N3_2 1_555 1_555
H25_3 C47_3 1_555 1_555
H27_3 C49_3 1_555 1_555
C50_3 C40_3 1_555 1_555
H28_3 C50_3 1_555 1_555
C53_3 C45_3 1_555 1_555
H31_3 C53_3 1_555 1_555
Cd4_2 N3_2 1_555 1_555
Cd8 O3_3 1_555 1_555
O10_3 Cd4 1_555 1_555
N7_2 Cd4 1_555 1_555
N5_3 C47_3 1_555 1_555
C4_3 N6_3 1_555 1_555
C7_3 C17_3 1_555 1_555
C8_3 C25_3 1_555 1_555
C10_3 C30_3 1_555 1_555
C39_3 C46_3 1_555 1_555
C43_3 C49_3 1_555 1_555
Cd8 O10_3 1_555 1_555
C41_3 H33_3 1_555 1_555
O7_3 H34_3 1_555 1_555
O7_3 H35_3 1_555 1_555
Cd6 O1_3 1_555 1_555
O1_3 C1_3 1_555 1_555
O2_3 Cd6 1_555 1_555
C1_3 O2_3 1_555 1_555
C6_3 C3_3 1_555 1_555
H3_3 C6_3 1_555 1_555
C13_3 C3_3 1_555 1_555
C14_3 C1_3 1_555 1_555
C19_3 C6_3 1_555 1_555
C20_3 C13_3 1_555 1_555
C21_3 C14_3 1_555 1_555
H9_3 C21_3 1_555 1_555
C23_3 C13_3 1_555 1_555
H11_3 C23_3 1_555 1_555
C26_3 C14_3 1_555 1_555
H13_3 C26_3 1_555 1_555
C28_3 H15_3 1_555 1_555
C38_3 C19_3 1_555 1_555
H30_3 C52_3 1_555 1_555
C54_3 C52_3 1_555 1_555
H32_3 C54_3 1_555 1_555
O8_3 O9_3 1_555 1_555
O9_3 Cd6 1_555 1_555
Cd5_3 O2_3 1_555 1_555
O11_3 Cd6 1_555 1_555
O13_3 Cd6 1_555 1_555
O14_3 Cd6 1_555 1_555
C20_3 C26_3 1_555 1_555
C21_3 C23_3 1_555 1_555
C28_3 C38_3 1_555 1_555
Cd5_3 O13_3 1_555 1_555
O12 C42_3 1_555 1_555
O6_3 C42_3 1_555 1_555
C5_3 H2_3 1_555 1_555
C18_3 C22_3 1_555 1_555
C22_3 H10_3 1_555 1_555
C24_3 C22_3 1_555 1_555
H12_3 C24_3 1_555 1_555
C29_3 C5_3 1_555 1_555
C33_3 C24_3 1_555 1_555
C34_3 C18_3 1_555 1_555
H18_3 C34_3 1_555 1_555
C36_3 C33_3 1_555 1_555
H19_3 C36_3 1_555 1_555
H20_3 C37_3 1_555 1_555
C42_3 C33_3 1_555 1_555
O6_3 Cd7 1_555 1_555
C18_3 C29_3 1_555 1_555
C29_3 C37_3 1_555 1_555
C34_3 C36_3 1_555 1_555
O12_2 C42_4 1_555 1_555
O6_4 C42_4 1_555 1_555
C18_4 C22_4 1_555 1_555
C24_4 C22_4 1_555 1_555
H12_4 C24_4 1_555 1_555
C33_4 C24_4 1_555 1_555
C34_4 C18_4 1_555 1_555
H18_4 C34_4 1_555 1_555
C36_4 C33_4 1_555 1_555
H19_4 C36_4 1_555 1_555
H20_4 C37_4 1_555 1_555
C42_4 C33_4 1_555 1_555
O6_4 Cd7_2 1_555 1_555
C18_4 C29_4 1_555 1_555
C29_4 C37_4 1_555 1_555
C34_4 C36_4 1_555 1_555
Cd4_2 O4_4 1_555 1_555
N1_4 C2_4 1_555 1_555
N2_4 C7_4 1_555 1_555
O3_4 C35_4 1_555 1_555
N7_2 C40_4 1_555 1_555
N8_2 C15_4 1_555 1_555
O4_4 C35_4 1_555 1_555
N5_4 C30_4 1_555 1_555
C2_4 C10_4 1_555 1_555
C4_4 N1_4 1_555 1_555
H1_4 C4_4 1_555 1_555
N6_4 Cd4_2 1_555 1_555
C7_4 C9_4 1_555 1_555
C8_4 N1_4 1_555 1_555
C9_4 H4_4 1_555 1_555
C10_4 H5_4 1_555 1_555
C11_3 N2_4 1_555 1_555
C12_4 C35_4 1_555 1_555
C15_4 N2_4 1_555 1_555
H6_4 C15_4 1_555 1_555
C16_4 N8_2 1_555 1_555
C17_4 C2_4 1_555 1_555
H7_4 C17_4 1_555 1_555
C25_4 N6_4 1_555 1_555
C27_3 C16_4 1_555 1_555
H14_4 C27_3 1_555 1_555
C30_4 C9_4 1_555 1_555
C31_4 C25_4 1_555 1_555
H16_4 C31_4 1_555 1_555
C32_4 C31_4 1_555 1_555
H17_4 C32_4 1_555 1_555
O7_4 Cd4_2 1_555 1_555
C39_4 C32_4 1_555 1_555
H21_4 C39_4 1_555 1_555
C40_4 C45_4 1_555 1_555
C41_4 C12_4 1_555 1_555
C43_4 C12_4 1_555 1_555
H22_4 C43_4 1_555 1_555
C44_3 C11_3 1_555 1_555
H23_3 C44_3 1_555 1_555
C45_4 N5_4 1_555 1_555
C46_4 C8_4 1_555 1_555
H24_4 C46_4 1_555 1_555
C47_4 N7_2 1_555 1_555
H25_4 C47_4 1_555 1_555
C48_3 C27_3 1_555 1_555
H26_3 C48_3 1_555 1_555
H27_4 C49_4 1_555 1_555
C50_4 C40_4 1_555 1_555
H28_4 C50_4 1_555 1_555
C51_3 C44_3 1_555 1_555
H29_3 C51_3 1_555 1_555
C53_4 C45_4 1_555 1_555
H31_4 C53_4 1_555 1_555
Cd8_2 O3_4 1_555 1_555
O10_4 Cd4_2 1_555 1_555
N5_4 C47_4 1_555 1_555
C4_4 N6_4 1_555 1_555
C7_4 C17_4 1_555 1_555
C8_4 C25_4 1_555 1_555
C10_4 C30_4 1_555 1_555
C11_3 C16_4 1_555 1_555
C39_4 C46_4 1_555 1_555
C43_4 C49_4 1_555 1_555
C48_3 C51_3 1_555 1_555
Cd8_2 O10_4 1_555 1_555
C41_4 H33_4 1_555 1_555
O7_4 H34_4 1_555 1_555
O7_4 H35_4 1_555 1_555
Cd6_2 O1_4 1_555 1_555
O1_4 C1_4 1_555 1_555
O2_4 Cd6_2 1_555 1_555
C1_4 O2_4 1_555 1_555
C13_4 C3_4 1_555 1_555
C14_4 C1_4 1_555 1_555
C20_4 C13_4 1_555 1_555
C21_4 C14_4 1_555 1_555
H9_4 C21_4 1_555 1_555
C23_4 C13_4 1_555 1_555
H11_4 C23_4 1_555 1_555
C26_4 C14_4 1_555 1_555
H13_4 C26_4 1_555 1_555
O8_4 O9_4 1_555 1_555
O9_4 Cd6_2 1_555 1_555
Cd5_4 O2_4 1_555 1_555
O11_4 Cd6_2 1_555 1_555
O13_4 Cd6_2 1_555 1_555
O14_4 Cd6_2 1_555 1_555
C20_4 C26_4 1_555 1_555
C21_4 C23_4 1_555 1_555
Cd5_4 O13_4 1_555 1_555
Cd5_2 O4_5 1_555 1_555
Cd7_2 O1_5 1_555 1_555
O1_5 C1_5 1_555 1_555
N1_5 C2_5 1_555 1_555
O11_2 C35_5 1_555 1_555
C1_5 O10_2 1_555 1_555
O4_5 C35_5 1_555 1_555
O13_4 C42_5 1_555 1_555
C2_5 C10_5 1_555 1_555
O14_4 C42_5 1_555 1_555
C3_5 C5_4 1_555 1_555
C4_5 N1_5 1_555 1_555
H1_5 C4_5 1_555 1_555
C5_4 H2_4 1_555 1_555
C6_4 C3_5 1_555 1_555
H3_5 C6_4 1_555 1_555
N6_5 Cd5_2 1_555 1_555
C8_5 N1_5 1_555 1_555
C10_5 H5_5 1_555 1_555
C12_5 C35_5 1_555 1_555
C13_5 C3_5 1_555 1_555
C14_5 C1_5 1_555 1_555
C17_5 C2_5 1_555 1_555
H7_5 C17_5 1_555 1_555
C18_5 C22_5 1_555 1_555
C19_4 C6_4 1_555 1_555
C20_5 C13_5 1_555 1_555
H8_4 C20_5 1_555 1_555
C21_5 C14_5 1_555 1_555
H9_5 C21_5 1_555 1_555
C22_5 H10_4 1_555 1_555
C23_5 C13_5 1_555 1_555
H11_5 C23_5 1_555 1_555
C24_5 C22_5 1_555 1_555
H12_5 C24_5 1_555 1_555
C25_5 N6_5 1_555 1_555
C26_5 C14_5 1_555 1_555
H13_5 C26_5 1_555 1_555
C28_4 H15_4 1_555 1_555
C29_5 C5_4 1_555 1_555
C31_5 C25_5 1_555 1_555
H16_5 C31_5 1_555 1_555
C32_5 C31_5 1_555 1_555
H17_5 C32_5 1_555 1_555
C33_5 C24_5 1_555 1_555
O7_5 Cd5_2 1_555 1_555
C34_5 C18_5 1_555 1_555
H18_5 C34_5 1_555 1_555
C36_5 C33_5 1_555 1_555
H19_5 C36_5 1_555 1_555
C37_5 C19_4 1_555 1_555
H20_5 C37_5 1_555 1_555
C38_4 C19_4 1_555 1_555
C39_5 C32_5 1_555 1_555
H21_5 C39_5 1_555 1_555
C41_5 C12_5 1_555 1_555
C42_5 C33_5 1_555 1_555
C43_5 C12_5 1_555 1_555
H22_5 C43_5 1_555 1_555
C46_5 C8_5 1_555 1_555
H24_5 C46_5 1_555 1_555
C49_5 C38_4 1_555 1_555
H27_5 C49_5 1_555 1_555
O8_5 O9_5 1_555 1_555
O9_5 Cd7_2 1_555 1_555
N7_3 Cd5_2 1_555 1_555
N8_3 Cd7_2 1_555 1_555
C4_5 N6_5 1_555 1_555
C8_5 C25_5 1_555 1_555
C18_5 C29_5 1_555 1_555
C20_5 C26_5 1_555 1_555
C21_5 C23_5 1_555 1_555
C28_4 C38_4 1_555 1_555
C28_4 C41_5 1_555 1_555
C29_5 C37_5 1_555 1_555
C34_5 C36_5 1_555 1_555
C39_5 C46_5 1_555 1_555
C43_5 C49_5 1_555 1_555
C41_5 H33_5 1_555 1_555
O7_5 H34_5 1_555 1_555
O7_5 H35_5 1_555 1_555
N3_3 C40_5 1_555 1_555
N5_5 C30_5 1_555 1_555
C7_5 C9_5 1_555 1_555
C9_5 H4_5 1_555 1_555
C30_5 C9_5 1_555 1_555
C40_5 C45_5 1_555 1_555
C45_5 N5_5 1_555 1_555
C47_5 N3_3 1_555 1_555
H25_5 C47_5 1_555 1_555
C50_5 C40_5 1_555 1_555
H28_5 C50_5 1_555 1_555
C52_4 C50_5 1_555 1_555
H30_4 C52_4 1_555 1_555
C53_5 C45_5 1_555 1_555
H31_5 C53_5 1_555 1_555
C54_4 C52_4 1_555 1_555
H32_4 C54_4 1_555 1_555
Cd5 N3_3 1_555 1_555
N5_5 C47_5 1_555 1_555
C53_5 C54_4 1_555 1_555
N4_3 C15_5 1_555 1_555
C15_5 N2_5 1_555 1_555
H6_5 C15_5 1_555 1_555
C16_5 N4_3 1_555 1_555
Cd8_2 N4_3 1_555 1_555
N2_6 C7_6 1_555 1_555
N7_3 C40_6 1_555 1_555
N4_4 C15_6 1_555 1_555
N5_6 C30_6 1_555 1_555
C7_6 C9_6 1_555 1_555
C9_6 H4_6 1_555 1_555
C15_6 N2_6 1_555 1_555
H6_6 C15_6 1_555 1_555
C16_6 N4_4 1_555 1_555
C30_6 C9_6 1_555 1_555
C40_6 C45_6 1_555 1_555
C45_6 N5_6 1_555 1_555
C47_6 N7_3 1_555 1_555
H25_6 C47_6 1_555 1_555
C50_6 C40_6 1_555 1_555
H28_6 C50_6 1_555 1_555
C52_5 C50_6 1_555 1_555
H30_5 C52_5 1_555 1_555
C53_6 C45_6 1_555 1_555
H31_6 C53_6 1_555 1_555
C54_5 C52_5 1_555 1_555
H32_5 C54_5 1_555 1_555
Cd8 N4_4 1_555 1_555
N5_6 C47_6 1_555 1_555
C53_6 C54_5 1_555 1_555
Cd5 O4_6 1_555 1_555
N1_6 C2_6 1_555 1_555
O11 C35_6 1_555 1_555
O4_6 C35_6 1_555 1_555
O13_3 C42_6 1_555 1_555
C2_6 C10_6 1_555 1_555
O14_3 C42_6 1_555 1_555
C4_6 N1_6 1_555 1_555
H1_6 C4_6 1_555 1_555
N6_6 Cd5 1_555 1_555
C8_6 N1_6 1_555 1_555
C10_6 H5_6 1_555 1_555
C12_6 C35_6 1_555 1_555
C17_6 C2_6 1_555 1_555
H7_6 C17_6 1_555 1_555
C18_6 C22_6 1_555 1_555
C19_5 C6_5 1_555 1_555
C24_6 C22_6 1_555 1_555
H12_6 C24_6 1_555 1_555
C25_6 N6_6 1_555 1_555
C28_5 H15_5 1_555 1_555
C31_6 C25_6 1_555 1_555
H16_6 C31_6 1_555 1_555
C32_6 C31_6 1_555 1_555
H17_6 C32_6 1_555 1_555
C33_6 C24_6 1_555 1_555
O7_6 Cd5 1_555 1_555
C34_6 C18_6 1_555 1_555
H18_6 C34_6 1_555 1_555
C36_6 C33_6 1_555 1_555
H19_6 C36_6 1_555 1_555
C37_6 C19_5 1_555 1_555
H20_6 C37_6 1_555 1_555
C38_5 C19_5 1_555 1_555
C39_6 C32_6 1_555 1_555
H21_6 C39_6 1_555 1_555
C41_6 C12_6 1_555 1_555
C42_6 C33_6 1_555 1_555
C43_6 C12_6 1_555 1_555
H22_6 C43_6 1_555 1_555
C44_4 C11_4 1_555 1_555
H23_4 C44_4 1_555 1_555
C46_6 C8_6 1_555 1_555
H24_6 C46_6 1_555 1_555
C48_4 C27_4 1_555 1_555
H26_4 C48_4 1_555 1_555
C49_6 C38_5 1_555 1_555
H27_6 C49_6 1_555 1_555
C51_4 C44_4 1_555 1_555
H29_4 C51_4 1_555 1_555
C4_6 N6_6 1_555 1_555
C8_6 C25_6 1_555 1_555
C18_6 C29_6 1_555 1_555
C28_5 C38_5 1_555 1_555
C28_5 C41_6 1_555 1_555
C29_6 C37_6 1_555 1_555
C34_6 C36_6 1_555 1_555
C39_6 C46_6 1_555 1_555
C43_6 C49_6 1_555 1_555
C48_4 C51_4 1_555 1_555
C41_6 H33_6 1_555 1_555
O7_6 H34_6 1_555 1_555
O7_6 H35_6 1_555 1_555
Cd7 O1_6 1_555 1_555
O1_6 C1_6 1_555 1_555
C1_6 O10 1_555 1_555
C3_6 C5_5 1_555 1_555
C5_5 H2_5 1_555 1_555
C13_6 C3_6 1_555 1_555
C14_6 C1_6 1_555 1_555
C20_6 C13_6 1_555 1_555
H8_5 C20_6 1_555 1_555
C21_6 C14_6 1_555 1_555
H9_6 C21_6 1_555 1_555
C23_6 C13_6 1_555 1_555
H11_6 C23_6 1_555 1_555
C26_6 C14_6 1_555 1_555
H13_6 C26_6 1_555 1_555
O8_6 O9_6 1_555 1_555
O9_6 Cd7 1_555 1_555
N8_4 Cd7 1_555 1_555
C20_6 C26_6 1_555 1_555
C21_6 C23_6 1_555 1_555
O13_2 C42_7 1_555 1_555
O14_2 C42_7 1_555 1_555
C5_6 H2_6 1_555 1_555
C18_7 C22_7 1_555 1_555
C22_7 H10_6 1_555 1_555
C24_7 C22_7 1_555 1_555
H12_7 C24_7 1_555 1_555
C29_7 C5_6 1_555 1_555
C33_7 C24_7 1_555 1_555
C34_7 C18_7 1_555 1_555
H18_7 C34_7 1_555 1_555
C36_7 C33_7 1_555 1_555
H19_7 C36_7 1_555 1_555
H20_7 C37_7 1_555 1_555
C42_7 C33_7 1_555 1_555
C18_7 C29_7 1_555 1_555
C29_7 C37_7 1_555 1_555
C34_7 C36_7 1_555 1_555
Cd8_2 O1_7 1_555 1_555
O1_7 C1_7 1_555 1_555
C1_7 O10_4 1_555 1_555
C6_6 C3_7 1_555 1_555
H3_7 C6_6 1_555 1_555
C13_7 C3_7 1_555 1_555
C14_7 C1_7 1_555 1_555
C19_6 C6_6 1_555 1_555
C20_7 C13_7 1_555 1_555
C21_7 C14_7 1_555 1_555
H9_7 C21_7 1_555 1_555
C23_7 C13_7 1_555 1_555
H11_7 C23_7 1_555 1_555
C26_7 C14_7 1_555 1_555
H13_7 C26_7 1_555 1_555
C28_6 H15_6 1_555 1_555
C38_6 C19_6 1_555 1_555
H30_6 C52_6 1_555 1_555
C54_6 C52_6 1_555 1_555
H32_6 C54_6 1_555 1_555
O8_7 O9_7 1_555 1_555
O9_7 Cd8_2 1_555 1_555
C20_7 C26_7 1_555 1_555
C21_7 C23_7 1_555 1_555
C28_6 C38_6 1_555 1_555
Cd5_4 O4_7 1_555 1_555
N1_7 C2_7 1_555 1_555
O11_4 C35_7 1_555 1_555
N3_4 C40_7 1_555 1_555
O4_7 C35_7 1_555 1_555
N5_7 C30_7 1_555 1_555
C2_7 C10_7 1_555 1_555
C4_7 N1_7 1_555 1_555
H1_7 C4_7 1_555 1_555
N6_7 Cd5_4 1_555 1_555
C7_7 C9_7 1_555 1_555
C8_7 N1_7 1_555 1_555
C9_7 H4_7 1_555 1_555
C10_7 H5_7 1_555 1_555
C12_7 C35_7 1_555 1_555
C17_7 C2_7 1_555 1_555
H7_7 C17_7 1_555 1_555
C25_7 N6_7 1_555 1_555
C30_7 C9_7 1_555 1_555
C31_7 C25_7 1_555 1_555
H16_7 C31_7 1_555 1_555
C32_7 C31_7 1_555 1_555
H17_7 C32_7 1_555 1_555
O7_7 Cd5_4 1_555 1_555
C39_7 C32_7 1_555 1_555
H21_7 C39_7 1_555 1_555
C40_7 C45_7 1_555 1_555
C41_7 C12_7 1_555 1_555
C43_7 C12_7 1_555 1_555
H22_7 C43_7 1_555 1_555
C45_7 N5_7 1_555 1_555
C46_7 C8_7 1_555 1_555
H24_7 C46_7 1_555 1_555
C47_7 N3_4 1_555 1_555
H25_7 C47_7 1_555 1_555
H27_7 C49_7 1_555 1_555
C50_7 C40_7 1_555 1_555
H28_7 C50_7 1_555 1_555
C53_7 C45_7 1_555 1_555
H31_7 C53_7 1_555 1_555
Cd5_3 N3_4 1_555 1_555
N7_4 Cd5_4 1_555 1_555
N5_7 C47_7 1_555 1_555
C4_7 N6_7 1_555 1_555
C7_7 C17_7 1_555 1_555
C8_7 C25_7 1_555 1_555
C10_7 C30_7 1_555 1_555
C39_7 C46_7 1_555 1_555
C43_7 C49_7 1_555 1_555
C41_7 H33_7 1_555 1_555
O7_7 H34_7 1_555 1_555
O7_7 H35_7 1_555 1_555
N8_3 C15_7 1_555 1_555
C11_5 N2_7 1_555 1_555
C15_7 N2_7 1_555 1_555
H6_7 C15_7 1_555 1_555
C16_7 N8_3 1_555 1_555
C27_5 C16_7 1_555 1_555
H14_7 C27_5 1_555 1_555
C44_5 C11_5 1_555 1_555
H23_5 C44_5 1_555 1_555
C48_5 C27_5 1_555 1_555
H26_5 C48_5 1_555 1_555
C51_5 C44_5 1_555 1_555
H29_5 C51_5 1_555 1_555
C11_5 C16_7 1_555 1_555
C48_5 C51_5 1_555 1_555
Cd8 O1_8 1_555 1_555
O1_8 C1_8 1_555 1_555
C1_8 O10_3 1_555 1_555
C13_8 C3_8 1_555 1_555
C14_8 C1_8 1_555 1_555
C20_8 C13_8 1_555 1_555
C21_8 C14_8 1_555 1_555
H9_8 C21_8 1_555 1_555
C23_8 C13_8 1_555 1_555
H11_8 C23_8 1_555 1_555
C26_8 C14_8 1_555 1_555
H13_8 C26_8 1_555 1_555
O8_8 O9_8 1_555 1_555
O9_8 Cd8 1_555 1_555
C20_8 C26_8 1_555 1_555
C21_8 C23_8 1_555 1_555
Cd5_3 O4_8 1_555 1_555
N1_8 C2_8 1_555 1_555
N2_8 C7_8 1_555 1_555
O11_3 C35_8 1_555 1_555
N7_4 C40_8 1_555 1_555
N8_4 C15_8 1_555 1_555
O4_8 C35_8 1_555 1_555
N5_8 C30_8 1_555 1_555
C2_8 C10_8 1_555 1_555
C4_8 N1_8 1_555 1_555
H1_8 C4_8 1_555 1_555
N6_8 Cd5_3 1_555 1_555
C7_8 C9_8 1_555 1_555
C8_8 N1_8 1_555 1_555
C9_8 H4_8 1_555 1_555
C10_8 H5_8 1_555 1_555
C11_6 N2_8 1_555 1_555
C12_8 C35_8 1_555 1_555
C15_8 N2_8 1_555 1_555
H6_8 C15_8 1_555 1_555
C16_8 N8_4 1_555 1_555
C17_8 C2_8 1_555 1_555
H7_8 C17_8 1_555 1_555
C25_8 N6_8 1_555 1_555
C27_6 C16_8 1_555 1_555
H14_8 C27_6 1_555 1_555
C30_8 C9_8 1_555 1_555
C31_8 C25_8 1_555 1_555
H16_8 C31_8 1_555 1_555
C32_8 C31_8 1_555 1_555
H17_8 C32_8 1_555 1_555
O7_8 Cd5_3 1_555 1_555
C39_8 C32_8 1_555 1_555
H21_8 C39_8 1_555 1_555
C40_8 C45_8 1_555 1_555
C41_8 C12_8 1_555 1_555
C43_8 C12_8 1_555 1_555
H22_8 C43_8 1_555 1_555
C44_6 C11_6 1_555 1_555
H23_6 C44_6 1_555 1_555
C45_8 N5_8 1_555 1_555
C46_8 C8_8 1_555 1_555
H24_8 C46_8 1_555 1_555
C47_8 N7_4 1_555 1_555
H25_8 C47_8 1_555 1_555
C48_6 C27_6 1_555 1_555
H26_6 C48_6 1_555 1_555
H27_8 C49_8 1_555 1_555
C50_8 C40_8 1_555 1_555
H28_8 C50_8 1_555 1_555
C51_6 C44_6 1_555 1_555
H29_6 C51_6 1_555 1_555
C53_8 C45_8 1_555 1_555
H31_8 C53_8 1_555 1_555
N5_8 C47_8 1_555 1_555
C4_8 N6_8 1_555 1_555
C7_8 C17_8 1_555 1_555
C8_8 C25_8 1_555 1_555
C10_8 C30_8 1_555 1_555
C11_6 C16_8 1_555 1_555
C39_8 C46_8 1_555 1_555
C43_8 C49_8 1_555 1_555
C48_6 C51_6 1_555 1_555
C41_8 H33_8 1_555 1_555
O7_8 H34_8 1_555 1_555
O7_8 H35_8 1_555 1_555
O13 C42_8 1_555 1_555
O14 C42_8 1_555 1_555
C18_8 C22_8 1_555 1_555
C24_8 C22_8 1_555 1_555
H12_8 C24_8 1_555 1_555
C33_8 C24_8 1_555 1_555
C34_8 C18_8 1_555 1_555
H18_8 C34_8 1_555 1_555
C36_8 C33_8 1_555 1_555
H19_8 C36_8 1_555 1_555
H20_8 C37_8 1_555 1_555
C42_8 C33_8 1_555 1_555
C18_8 C29_8 1_555 1_555
C29_8 C37_8 1_555 1_555
C34_8 C36_8 1_555 1_555
C44_7 C11_7 1_555 1_555
H23_7 C44_7 1_555 1_555
C48_7 C27_7 1_555 1_555
H26_7 C48_7 1_555 1_555
C51_7 C44_7 1_555 1_555
H29_7 C51_7 1_555 1_555
C48_7 C51_7 1_555 1_555
C5_7 H2_7 1_555 1_555
C19_7 C6_7 1_555 1_555
C28_7 H15_7 1_555 1_555
C38_7 C19_7 1_555 1_555
H30_7 C52_7 1_555 1_555
C54_7 C52_7 1_555 1_555
H32_7 C54_7 1_555 1_555
C28_7 C38_7 1_555 1_555
C44_8 C11_8 1_555 1_555
H23_8 C44_8 1_555 1_555
C48_8 C27_8 1_555 1_555
H26_8 C48_8 1_555 1_555
C51_8 C44_8 1_555 1_555
H29_8 C51_8 1_555 1_555
C48_8 C51_8 1_555 1_555
C19_8 C6_8 1_555 1_555
C28_8 H15_8 1_555 1_555
C38_8 C19_8 1_555 1_555
H30_8 C52_8 1_555 1_555
C54_8 C52_8 1_555 1_555
H32_8 C54_8 1_555 1_555
C28_8 C38_8 1_555 1_555
C5_8 H2_8 1_555 1_555
I1 I2 1_555 1_555
I2_2 I3 1_555 1_555
I1_2 I2_3 1_555 1_555
I2_3 I3_2 1_555 1_555
I1_3 I2_4 1_555 1_555
I2_5 I3_3 1_555 1_555
I1_4 I2_6 1_555 1_555
I2_6 I3_4 1_555 1_555
I8 I6 1_555 1_555
I4 I5 1_555 1_555
I6_2 I7 1_555 1_555
I4_2 I5_2 1_555 1_555
I4_3 I5_3 1_555 1_555
I5_3 I6_3 1_555 1_555
I6_3 I7_2 1_555 1_555
I8_2 I6_3 1_555 1_555
I4_4 I5_4 1_555 1_555
I6_4 I7_3 1_555 1_555
I4_5 I5_5 1_555 1_555
I8_3 I6_5 1_555 1_555
I4_6 I5_6 1_555 1_555
I5_6 I6_6 1_555 1_555
I6_6 I7_4 1_555 1_555
I8_4 I6_6 1_555 1_555

#END
