
###############################################################################
#
# This file contains modified crystal structure data generated from the
# MOF subset of the Cambridge Structural Database (CSD) v543 
# hosted by the Cambridge Crystallographic Data Centre (CCDC).
#
# This work is licensed under the Creative Commons
# Attribution-NonCommercial-ShareAlike 4.0 International License.
# To view a copy of this license, visit
# http://creativecommons.org/licenses/by-nc-sa/4.0/
# or send a letter to
# Creative Commons, PO Box 1866, Mountain View, CA 94042, USA.
#
# CIF created using the CSD Python API on 29 September 2022
# The structure has been converted into the P1 space group
# The structure has a 3D framework
# The original CSD entry ONISAI is in the triclinic crystal system
# The framework has been calculated to contain at least 10.0% void space
# The void calculation uses a probe of radius 1.32A, grid spacing 0.4
# The framework is charged, counterions have been retained in the structure
# H atom positions have been added when not included in the experimental data
#
###############################################################################

data_ONISAI
_chemical_formula_moiety         '(C216 H152 Cd8 Cr4 N24 O42)n'
_symmetry_cell_setting           triclinic
_symmetry_space_group_name_H-M   'P 1'
_symmetry_Int_Tables_number      1
_space_group_name_Hall           'P 1'
loop_
_symmetry_equiv_pos_site_id
_symmetry_equiv_pos_as_xyz
1 x,y,z
_cell_length_a                   16.155(3)
_cell_length_b                   16.500(3)
_cell_length_c                   24.755(5)
_cell_angle_alpha                93.563(5)
_cell_angle_beta                 92.562(5)
_cell_angle_gamma                94.984(6)
_cell_volume                     6552.64
loop_
_atom_site_label
_atom_site_type_symbol
_atom_site_fract_x
_atom_site_fract_y
_atom_site_fract_z
Cd10 Cd 0.07621(6) 0.42580(6) 0.25544(3)
O3 O 0.0173(6) 0.5740(6) 0.3963(4)
H59 H 0.019952 0.291350 0.887904
Cd5 Cd 0.10016(6) 0.62111(6) 0.32567(3)
O6 O 0.5785(6) 0.0199(5) 0.8944(4)
Cd8 Cd 0.61618(6) 0.10265(6) 0.82371(3)
Cd12 Cd 0.41325(6) 0.06999(6) 0.76153(3)
N3 N 0.7581(7) 0.0479(7) 0.1283(4)
N6 N 0.8730(7) 0.3298(6) 0.1372(4)
C1 C 0.8108(8) 0.1915(8) 0.1329(5)
H7 H 0.814113 0.192099 0.170576
C7 C 0.7723(9) 0.1192(8) 0.0460(5)
H10 H 0.751171 0.071757 0.026029
C18 C 0.7796(8) 0.1212(7) 0.1014(5)
N12 N 0.9605(7) 0.4016(7) 0.1985(4)
C32 C 0.7961(8) 0.1875(8) 0.0207(5)
C39 C 0.8282(9) 0.2594(8) 0.0500(5)
H27 H 0.843743 0.306094 0.032317
C51 C 0.8362(8) 0.2594(8) 0.1067(5)
C63 C 0.7086(9) 0.0403(10) 0.1712(6)
H39 H 0.687603 0.084648 0.189224
C64 C 0.9137(9) 0.5396(9) 0.1796(6)
H40 H 0.951591 0.569808 0.204046
C72 C 0.9363(9) 0.3281(9) 0.1763(5)
H44 H 0.959206 0.280863 0.185799
C79 C 0.8572(9) 0.4115(8) 0.1335(5)
C83 C 0.9136(9) 0.4556(8) 0.1723(5)
C88 C 0.8002(9) 0.4483(9) 0.1026(6)
H56 H 0.762981 0.417991 0.077762
C89 C 0.8006(9) 0.5296(8) 0.1096(6)
H57 H 0.764394 0.556676 0.088363
C92 C 0.8573(10) 0.5761(8) 0.1502(6)
H60 H 0.854278 0.632000 0.155811
O1 O 0.1896(7) 0.6513(6) 0.2607(4)
O2 O 0.0978(6) 0.5527(6) 0.2263(4)
O4 O 0.5383(6) 0.1002(5) 0.7258(3)
N1 N 0.0429(7) 0.3144(6) 0.3037(4)
O8 O 0.9956(6) 0.5024(6) 0.3188(3)
O9 O 0.6377(7) 0.1918(6) 0.7611(3)
O10 O 0.1861(6) 0.5343(6) 0.3624(4)
O12 O 0.2091(6) 0.4502(6) 0.2895(4)
O13 O 0.6905(6) 0.0005(6) 0.7864(4)
N7 N 0.7278(8) 0.1521(7) 0.8812(4)
N9 N 0.7882(7) 0.1853(7) 0.9623(4)
O15 O 0.1497(7) 0.3570(7) 0.1871(4)
H5 H 0.131378 0.366227 0.152697
H6 H 0.139958 0.301547 0.186877
C5 C 0.8076(9) 0.1928(8) 0.8747(6)
C10 C 0.5883(9) 0.3310(9) 0.5243(5)
C11 C 0.5834(10) 0.1638(9) 0.7216(6)
C12 C 0.2093(9) 0.5982(8) 0.1715(5)
C13 C 0.8960(9) 0.4724(9) 0.4461(5)
H12 H 0.940229 0.493376 0.469627
H13 H 0.455958 0.820934 0.003063
C15 C 0.0467(9) 0.2364(9) 0.3764(5)
C16 C 0.1622(9) 0.6006(9) 0.2225(5)
C19 C 0.3375(8) 0.5971(8) 0.0232(5)
C20 C 0.9779(9) 0.5172(8) 0.3671(5)
C21 C 0.3626(8) 0.6720(8) 0.0024(5)
H14 H 0.352494 0.720348 0.021340
C23 C 0.6362(9) 0.2803(8) 0.6686(5)
H17 H 0.671999 0.300952 0.697589
C24 C 0.7201(9) 0.1487(8) 0.9333(5)
H18 H 0.673593 0.124203 0.948740
C25 C 0.9035(9) 0.4734(8) 0.3899(5)
C27 C 0.6350(8) 0.3198(8) 0.6201(5)
H20 H 0.668280 0.368257 0.617787
C30 C 0.6658(8) 0.3512(8) 0.5039(5)
H22 H 0.713864 0.339536 0.522901
C31 C 0.2828(9) 0.6438(8) 0.1681(5)
H23 H 0.305925 0.675134 0.198433
C33 C 0.4447(8) 0.4109(7) 0.4196(5)
C36 C 0.5162(9) 0.3489(8) 0.4964(5)
H25 H 0.464490 0.334784 0.509974
C37 C 0.5838(10) 0.2101(8) 0.6731(5)
C40 C 0.7540(8) 0.4128(8) 0.4319(5)
C43 C 0.2158(10) 0.5496(9) 0.0773(5)
H28 H 0.193486 0.517755 0.046904
C44 C 0.8231(9) 0.4402(9) 0.4664(5)
H29 H 0.819779 0.436533 0.503609
C47 C 0.5860(9) 0.2884(9) 0.5763(5)
C49 C 0.8450(9) 0.2138(8) 0.9266(5)
C50 C 0.3645(10) 0.4259(10) 0.3366(5)
H32 H 0.359270 0.420096 0.298990
C52 C 0.2932(9) 0.5958(8) 0.0746(5)
C55 C 0.6714(9) 0.3889(8) 0.4550(5)
H34 H 0.339582 0.475222 0.009285
C58 C 0.1730(10) 0.5508(10) 0.1241(6)
H36 H 0.121336 0.521462 0.125153
C61 C 0.5987(9) 0.4072(9) 0.4273(5)
H37 H 0.602034 0.432388 0.394811
C62 C 0.7631(9) 0.4112(9) 0.3768(5)
H38 H 0.718858 0.389669 0.353422
C65 C 0.1684(10) 0.1962(10) 0.4186(6)
H41 H 0.194370 0.168733 0.445371
C66 C 0.8359(9) 0.4405(9) 0.3556(5)
H42 H 0.840437 0.438632 0.318200
C67 C 0.0945(9) 0.2775(8) 0.3394(5)
C68 C 0.3034(8) 0.4567(8) 0.3642(5)
C69 C 0.2277(8) 0.4825(8) 0.3378(5)
C73 C 0.8481(9) 0.2114(9) 0.8284(6)
H45 H 0.823097 0.197226 0.794129
C75 C 0.4348(8) 0.4025(9) 0.3630(5)
H47 H 0.476044 0.381025 0.342890
C77 C 0.1827(10) 0.2770(9) 0.3424(6)
H48 H 0.215721 0.303186 0.317790
C78 C 0.3249(9) 0.6444(8) 0.1193(5)
H49 H 0.374019 0.677695 0.117397
C82 C 0.5215(9) 0.3880(8) 0.4482(5)
C84 C 0.5282(10) 0.1800(10) 0.6287(6)
H52 H 0.490040 0.135260 0.631917
C85 C 0.3125(9) 0.4649(9) 0.4211(6)
H53 H 0.270690 0.486366 0.440614
C91 C 0.9652(10) 0.2683(10) 0.8854(7)
C93 C 0.9264(9) 0.2525(8) 0.9328(6)
H61 H 0.952553 0.266520 0.966706
C94 C 0.3817(9) 0.4420(8) 0.4486(5)
H62 H 0.386225 0.447223 0.486267
C98 C 0.9264(11) 0.2515(10) 0.8346(6)
H65 H 0.953685 0.267515 0.804211
C102 C 0.5319(10) 0.2187(10) 0.5804(6)
H68 H 0.498005 0.197868 0.550490
C105 C 0.0809(9) 0.1945(8) 0.4163(6)
H71 H 0.048544 0.166523 0.440524
C106 C 0.2164(10) 0.2365(10) 0.3831(6)
H72 H 0.273876 0.236246 0.386793
O23 O 0.5157(8) 0.1780(6) 0.8612(4)
N14 N 0.1467(7) 0.7283(7) 0.3867(4)
O5 O 0.4300(7) 0.2022(5) 0.7928(4)
O7 O 0.5013(6) 0.9936(6) 0.8183(3)
C4 C 0.4840(9) 0.8959(9) 0.9451(5)
H8 H 0.504433 0.940067 0.968507
C9 C 0.4819(9) 0.9034(9) 0.8879(5)
C14 C 0.4560(9) 0.8241(8) 0.9657(5)
O16 O 0.3197(8) 0.1188(7) 0.6956(4)
H15 H 0.326442 0.096514 0.663014
H16 H 0.331470 0.171253 0.691856
C29 C 0.5208(8) 0.9762(8) 0.8669(5)
C34 C 0.4270(9) 0.7542(8) 0.9313(5)
C38 C 0.4238(9) 0.7625(9) 0.8747(5)
H26 H 0.403473 0.718431 0.851164
C41 C 0.4030(9) 0.6749(8) 0.9534(5)
C46 C 0.4500(9) 0.3000(8) 0.8661(5)
C53 C 0.4509(8) 0.8359(8) 0.8542(5)
H33 H 0.448225 0.840170 0.816890
C56 C 0.3561(8) 0.5251(8) 0.9957(5)
C59 C 0.3994(8) 0.5271(8) 0.9480(5)
C71 C 0.4317(9) 0.3804(8) 0.9487(5)
H43 H 0.430061 0.383889 0.986303
C76 C 0.4177(8) 0.4499(9) 0.9196(5)
C86 C 0.4215(9) 0.6008(8) 0.9274(5)
H54 H 0.449389 0.601865 0.895343
C97 C 0.4479(9) 0.3077(8) 0.9222(5)
H64 H 0.457462 0.263325 0.942259
C99 C 0.4355(10) 0.3670(9) 0.8370(6)
H66 H 0.435654 0.362037 0.799363
C100 C 0.4690(10) 0.2202(9) 0.8389(6)
C101 C 0.4203(11) 0.4431(8) 0.8631(5)
H67 H 0.412264 0.487755 0.842965
N13 N 0.3066(8) 0.0335(7) 0.8154(5)
N5 N 0.6934(8) 0.9665(7) 0.1846(5)
C2 C 0.7383(8) 0.9184(8) 0.1480(5)
C22 C 0.7789(9) 0.9707(9) 0.1121(5)
C90 C 0.8285(10) 0.9396(9) 0.0723(6)
H58 H 0.855440 0.973377 0.048642
C96 C 0.7469(11) 0.8355(10) 0.1459(7)
H63 H 0.721762 0.801266 0.170042
C107 C 0.7964(11) 0.8068(9) 0.1049(6)
H73 H 0.803041 0.751369 0.101045
C108 C 0.8359(12) 0.8588(10) 0.0697(7)
H74 H 0.868453 0.836742 0.043490
Cd14 Cd 0.58675(6) 0.93001(6) 0.23847(3)
H3 H 0.674128 0.987240 0.752170
H4 H 0.679420 0.954411 0.802031
N15 N 0.3922(7) 0.9526(7) 0.7062(4)
N2 N 0.9644(7) 0.2515(7) 0.3620(4)
O11 O 0.9876(7) 0.6872(7) 0.2924(4)
H1 H 0.986113 0.685997 0.256884
H2 H 0.994494 0.739418 0.302004
N4 N 0.8229(7) 0.2167(7) 0.5294(4)
N8 N 0.8533(7) 0.2717(7) 0.6133(4)
N10 N 0.6760(8) 0.1346(7) 0.3547(4)
N11 N 0.6078(7) 0.0474(7) 0.2938(4)
C3 C 0.7874(9) 0.1621(9) 0.5645(5)
C6 C 0.8181(8) 0.1985(8) 0.3587(5)
H9 H 0.816025 0.197654 0.321078
C8 C 0.9677(9) 0.2967(8) 0.3186(5)
H11 H 0.920731 0.313655 0.300954
C17 C 0.8911(9) 0.2275(8) 0.3892(5)
C26 C 0.8920(8) 0.2335(8) 0.4450(5)
H19 H 0.940008 0.254300 0.465056
C28 C 0.5510(9) 0.1938(8) 0.3983(5)
H21 H 0.579723 0.229748 0.424420
C35 C 0.7834(9) 0.1587(10) 0.6621(6)
H24 H 0.796217 0.182337 0.696896
C42 C 0.7485(8) 0.1709(8) 0.3863(5)
C45 C 0.6816(9) 0.0767(9) 0.3143(5)
H30 H 0.731521 0.059675 0.302495
C48 C 0.8607(8) 0.2802(8) 0.5608(5)
H31 H 0.889094 0.325206 0.547013
C54 C 0.8207(9) 0.2081(8) 0.4711(5)
C57 C 0.7479(8) 0.1771(8) 0.4420(5)
H35 H 0.700167 0.161054 0.459651
C60 C 0.8091(9) 0.1973(9) 0.6157(6)
C70 C 0.5478(8) 0.0875(8) 0.3221(5)
C74 C 0.4202(10) 0.1294(9) 0.3530(6)
H46 H 0.362341 0.124865 0.351113
C80 C 0.4645(9) 0.1859(9) 0.3926(6)
H50 H 0.434587 0.218288 0.415260
C81 C 0.4616(9) 0.0821(9) 0.3180(5)
H51 H 0.432287 0.046784 0.291648
C87 C 0.7436(10) 0.0849(9) 0.5558(6)
H55 H 0.730470 0.061326 0.521033
C95 C 0.5928(9) 0.1434(8) 0.3615(5)
C103 C 0.7370(11) 0.0817(10) 0.6527(6)
H69 H 0.716958 0.055396 0.682297
C104 C 0.7205(12) 0.0447(10) 0.6019(7)
Cd6 Cd 0.89984(6) 0.37889(6) 0.67433(3)
H70 H 0.693656 0.992304 0.597916
H70_2 H 0.306344 0.007696 0.402084
N2_2 N 0.0356(7) 0.7485(7) 0.6380(4)
O11_2 O 0.0124(7) 0.3128(7) 0.7076(4)
H1_2 H 0.013887 0.314003 0.743116
H2_2 H 0.005506 0.260582 0.697996
N4_2 N 0.1771(7) 0.7833(7) 0.4706(4)
N10_2 N 0.3240(8) 0.8654(7) 0.6453(4)
C3_2 C 0.2126(9) 0.8379(9) 0.4355(5)
C6_2 C 0.1819(8) 0.8015(8) 0.6413(5)
H9_2 H 0.183975 0.802346 0.678922
C8_2 C 0.0323(9) 0.7033(8) 0.6814(5)
H11_2 H 0.079269 0.686345 0.699046
C17_2 C 0.1089(9) 0.7725(8) 0.6108(5)
C26_2 C 0.1080(8) 0.7665(8) 0.5550(5)
H19_2 H 0.059992 0.745700 0.534944
C28_2 C 0.4490(9) 0.8062(8) 0.6017(5)
H21_2 H 0.420277 0.770252 0.575580
C35_2 C 0.2166(9) 0.8413(10) 0.3379(6)
H24_2 H 0.203783 0.817663 0.303104
C42_2 C 0.2515(8) 0.8291(8) 0.6137(5)
C45_2 C 0.3184(9) 0.9233(9) 0.6857(5)
H30_2 H 0.268479 0.940325 0.697505
C48_2 C 0.1393(8) 0.7198(8) 0.4392(5)
H31_2 H 0.110906 0.674794 0.452987
C54_2 C 0.1793(9) 0.7919(8) 0.5289(5)
C57_2 C 0.2521(8) 0.8229(8) 0.5580(5)
H35_2 H 0.299833 0.838946 0.540349
C60_2 C 0.1909(9) 0.8027(9) 0.3843(6)
C70_2 C 0.4522(8) 0.9125(8) 0.6779(5)
C74_2 C 0.5798(10) 0.8706(9) 0.6470(6)
H46_2 H 0.637659 0.875135 0.648887
C80_2 C 0.5355(9) 0.8141(9) 0.6074(6)
H50_2 H 0.565413 0.781712 0.584740
C81_2 C 0.5384(9) 0.9179(9) 0.6820(5)
H51_2 H 0.567713 0.953216 0.708352
C87_2 C 0.2564(10) 0.9151(9) 0.4442(6)
H55_2 H 0.269530 0.938674 0.478967
C95_2 C 0.4072(9) 0.8566(8) 0.6385(5)
C103_2 C 0.2630(11) 0.9183(10) 0.3473(6)
H69_2 H 0.283042 0.944604 0.317703
C104_2 C 0.2795(12) 0.9553(10) 0.3981(7)
O22 O 0.0044(6) 0.4976(6) 0.6812(3)
N16 N 0.0395(7) 0.5984(7) 0.8015(4)
O20 O 0.4987(6) 0.0064(6) 0.1817(3)
H3_2 H 0.325872 0.012760 0.247830
H4_2 H 0.320580 0.045589 0.197969
C2_2 C 0.2617(8) 0.0816(8) 0.8520(5)
C22_2 C 0.2211(9) 0.0293(9) 0.8879(5)
C90_2 C 0.1715(10) 0.0604(9) 0.9277(6)
H58_2 H 0.144560 0.026623 0.951358
C96_2 C 0.2531(11) 0.1645(10) 0.8541(7)
H63_2 H 0.278238 0.198734 0.829958
C107_2 C 0.2036(11) 0.1932(9) 0.8951(6)
H73_2 H 0.196959 0.248631 0.898955
C108_2 C 0.1641(12) 0.1412(10) 0.9303(7)
H74_2 H 0.131547 0.163258 0.956510
O5_2 O 0.5700(7) 0.7978(5) 0.2072(4)
O14 O 0.4843(8) 0.8220(6) 0.1388(4)
C4_2 C 0.5160(9) 0.1041(9) 0.0549(5)
H8_2 H 0.495567 0.059933 0.031493
C9_2 C 0.5181(9) 0.0966(9) 0.1121(5)
C14_2 C 0.5440(9) 0.1759(8) 0.0343(5)
O16_2 O 0.6803(8) 0.8812(7) 0.3044(4)
H15_2 H 0.673558 0.903486 0.336986
H16_2 H 0.668530 0.828747 0.308144
C29_2 C 0.4792(8) 0.0238(8) 0.1331(5)
C34_2 C 0.5730(9) 0.2458(8) 0.0687(5)
C38_2 C 0.5762(9) 0.2375(9) 0.1253(5)
H26_2 H 0.596527 0.281569 0.148836
C41_2 C 0.5970(9) 0.3251(8) 0.0466(5)
C46_2 C 0.5500(9) 0.7000(8) 0.1339(5)
C53_2 C 0.5491(8) 0.1641(8) 0.1458(5)
H33_2 H 0.551775 0.159830 0.183110
C56_2 C 0.6439(8) 0.4749(8) 0.0043(5)
C59_2 C 0.6006(8) 0.4729(8) 0.0520(5)
C71_2 C 0.5683(9) 0.6196(8) 0.0513(5)
H43_2 H 0.569939 0.616111 0.013697
C76_2 C 0.5823(8) 0.5501(9) 0.0804(5)
C86_2 C 0.5785(9) 0.3992(8) 0.0726(5)
H54_2 H 0.550611 0.398135 0.104657
C97_2 C 0.5521(9) 0.6923(8) 0.0778(5)
H64_2 H 0.542538 0.736675 0.057741
C99_2 C 0.5645(10) 0.6330(9) 0.1630(6)
H66_2 H 0.564346 0.637963 0.200637
C100_2 C 0.5310(10) 0.7798(9) 0.1611(6)
C101_2 C 0.5797(11) 0.5569(8) 0.1369(5)
H67_2 H 0.587736 0.512245 0.157035
Cd7 Cd 0.38382(6) 0.89735(6) 0.17629(3)
O18 O 0.4617(6) 0.8998(5) 0.2742(3)
Cd3 Cd 0.92379(6) 0.57420(6) 0.74456(3)
O1_2 O 0.8104(7) 0.3487(6) 0.7393(4)
O2_2 O 0.9022(6) 0.4473(6) 0.7737(4)
N1_2 N 0.9571(7) 0.6856(6) 0.6963(4)
O9_2 O 0.3623(7) 0.8082(6) 0.2389(3)
O10_2 O 0.8139(6) 0.4657(6) 0.6376(4)
O12_2 O 0.7909(6) 0.5498(6) 0.7105(4)
O13_2 O 0.3095(6) 0.9995(6) 0.2136(4)
N7_2 N 0.2722(8) 0.8479(7) 0.1188(4)
N9_2 N 0.2118(7) 0.8147(7) 0.0377(4)
O15_2 O 0.8503(7) 0.6430(7) 0.8129(4)
H5_2 H 0.868622 0.633773 0.847303
H6_2 H 0.860042 0.698453 0.813123
C5_2 C 0.1924(9) 0.8072(8) 0.1253(6)
C10_2 C 0.4117(9) 0.6690(9) 0.4757(5)
C11_2 C 0.4166(10) 0.8362(9) 0.2784(6)
C12_2 C 0.7907(9) 0.4018(8) 0.8285(5)
C13_2 C 0.1040(9) 0.5276(9) 0.5539(5)
H12_2 H 0.059771 0.506624 0.530373
H13_2 H 0.544042 0.179066 0.996937
C15_2 C 0.9533(9) 0.7636(9) 0.6236(5)
C16_2 C 0.8378(9) 0.3994(9) 0.7775(5)
C19_2 C 0.6625(8) 0.4029(8) 0.9768(5)
C20_2 C 0.0221(9) 0.4828(8) 0.6329(5)
C21_2 C 0.6374(8) 0.3280(8) 0.9976(5)
H14_2 H 0.647506 0.279652 0.978660
C23_2 C 0.3638(9) 0.7197(8) 0.3314(5)
H17_2 H 0.328001 0.699048 0.302411
C24_2 C 0.2799(9) 0.8513(8) 0.0667(5)
H18_2 H 0.326407 0.875797 0.051260
C25_2 C 0.0965(9) 0.5266(8) 0.6101(5)
C27_2 C 0.3650(8) 0.6802(8) 0.3799(5)
H20_2 H 0.331720 0.631743 0.382213
C30_2 C 0.3342(8) 0.6488(8) 0.4961(5)
H22_2 H 0.286136 0.660464 0.477099
C31_2 C 0.7172(9) 0.3562(8) 0.8319(5)
H23_2 H 0.694075 0.324866 0.801567
C33_2 C 0.5553(8) 0.5891(7) 0.5804(5)
C36_2 C 0.4838(9) 0.6511(8) 0.5036(5)
H25_2 H 0.535510 0.665216 0.490026
C37_2 C 0.4162(10) 0.7899(8) 0.3269(5)
C40_2 C 0.2460(8) 0.5872(8) 0.5681(5)
C43_2 C 0.7842(10) 0.4504(9) 0.9227(5)
H28_2 H 0.806514 0.482245 0.953096
C44_2 C 0.1769(9) 0.5598(9) 0.5336(5)
H29_2 H 0.180221 0.563467 0.496391
C47_2 C 0.4140(9) 0.7116(9) 0.4237(5)
C49_2 C 0.1550(9) 0.7862(8) 0.0734(5)
C50_2 C 0.6355(10) 0.5741(10) 0.6634(5)
H32_2 H 0.640730 0.579904 0.701010
C52_2 C 0.7068(9) 0.4042(8) 0.9254(5)
C55_2 C 0.3286(9) 0.6111(8) 0.5450(5)
H34_2 H 0.660418 0.524778 0.990715
C58_2 C 0.8270(10) 0.4492(10) 0.8759(6)
H36_2 H 0.878664 0.478538 0.874847
C61_2 C 0.4013(9) 0.5928(9) 0.5727(5)
H37_2 H 0.397966 0.567612 0.605189
C62_2 C 0.2369(9) 0.5888(9) 0.6232(5)
H38_2 H 0.281142 0.610331 0.646578
C65_2 C 0.8316(10) 0.8038(10) 0.5814(6)
H41_2 H 0.805630 0.831267 0.554629
C66_2 C 0.1641(9) 0.5595(9) 0.6444(5)
H42_2 H 0.159563 0.561368 0.681800
C67_2 C 0.9055(9) 0.7225(8) 0.6606(5)
C68_2 C 0.6966(8) 0.5433(8) 0.6358(5)
C69_2 C 0.7723(8) 0.5175(8) 0.6622(5)
C73_2 C 0.1519(9) 0.7886(9) 0.1716(6)
H45_2 H 0.176903 0.802774 0.205871
C75_2 C 0.5652(8) 0.5975(9) 0.6370(5)
H47_2 H 0.523956 0.618975 0.657110
C77_2 C 0.8173(10) 0.7230(9) 0.6576(6)
H48_2 H 0.784279 0.696814 0.682210
C78_2 C 0.6751(9) 0.3556(8) 0.8807(5)
H49_2 H 0.625981 0.322305 0.882603
C82_2 C 0.4785(9) 0.6120(8) 0.5518(5)
C84_2 C 0.4718(10) 0.8200(10) 0.3713(6)
H52_2 H 0.509960 0.864740 0.368083
C85_2 C 0.6875(9) 0.5351(9) 0.5789(6)
H53_2 H 0.729310 0.513634 0.559386
C91_2 C 0.0348(10) 0.7317(10) 0.1146(7)
C93_2 C 0.0736(9) 0.7475(8) 0.0672(6)
H61_2 H 0.047447 0.733480 0.033294
C94_2 C 0.6183(9) 0.5580(8) 0.5514(5)
H62_2 H 0.613775 0.552777 0.513733
C98_2 C 0.0736(11) 0.7485(10) 0.1654(6)
H65_2 H 0.046315 0.732485 0.195789
C102_2 C 0.4681(10) 0.7813(10) 0.4196(6)
H68_2 H 0.501995 0.802132 0.449510
C105_2 C 0.9191(9) 0.8055(8) 0.5837(6)
H71_2 H 0.951456 0.833477 0.559476
C106_2 C 0.7836(10) 0.7635(10) 0.6169(6)
H72_2 H 0.726124 0.763754 0.613207
O17 O 0.9827(6) 0.4260(6) 0.6037(4)
O19 O 0.4215(6) 0.9801(5) 0.1056(4)
N3_2 N 0.2419(7) 0.9521(7) 0.8717(4)
N6_2 N 0.1270(7) 0.6702(6) 0.8628(4)
C1_2 C 0.1892(8) 0.8085(8) 0.8671(5)
H7_2 H 0.185887 0.807901 0.829424
C7_2 C 0.2277(9) 0.8808(8) 0.9540(5)
H10_2 H 0.248829 0.928243 0.973971
C18_2 C 0.2204(8) 0.8788(7) 0.8986(5)
C32_2 C 0.2039(8) 0.8125(8) 0.9793(5)
C39_2 C 0.1718(9) 0.7406(8) 0.9500(5)
H27_2 H 0.156257 0.693906 0.967683
C51_2 C 0.1638(8) 0.7406(8) 0.8933(5)
C63_2 C 0.2914(9) 0.9597(10) 0.8288(6)
H39_2 H 0.312397 0.915352 0.810776
C64_2 C 0.0863(9) 0.4604(9) 0.8204(6)
H40_2 H 0.048409 0.430192 0.795954
C72_2 C 0.0637(9) 0.6719(9) 0.8237(5)
H44_2 H 0.040794 0.719137 0.814201
C79_2 C 0.1428(9) 0.5885(8) 0.8665(5)
C83_2 C 0.0864(9) 0.5444(8) 0.8277(5)
C88_2 C 0.1998(9) 0.5517(9) 0.8974(6)
H56_2 H 0.237019 0.582009 0.922238
C89_2 C 0.1994(9) 0.4704(8) 0.8904(6)
H57_2 H 0.235606 0.443324 0.911637
C92_2 C 0.1427(10) 0.4239(8) 0.8498(6)
H60_2 H 0.145722 0.368000 0.844189
H59_2 H 0.980048 0.708650 0.112096
Cr2 Cr 0.1190(2) 0.0363(2) 0.28550(13)
O25 O 0.0544(9) 0.1067(8) 0.2576(6)
O30 O 0.2060(10) 0.0850(10) 0.3066(6)
O27 O 0.1410(10) 0.9671(8) 0.2341(7)
O28 O 0.0718(10) 0.9936(10) 0.3349(7)
H76 H 0.17021 0.996389 0.205612
Cr1 Cr 0.9582(2) 0.0925(2) 0.21701(12)
O24 O 0.8835(10) 0.1279(10) 0.2484(5)
O29 O 0.9784(10) 0.1398(9) 0.1641(6)
O26 O 0.9322(8) 0.9952(8) 0.2046(5)
H75 H 0.879478 0.987121 0.181943
O26_2 O 0.0678(8) 0.0048(8) 0.7954(5)
H75_2 H 0.120522 0.0128788 0.818057
Cr1_2 Cr 0.0418(2) 0.9075(2) 0.78299(12)
O24_2 O 0.1165(10) 0.8721(10) 0.7516(5)
O29_2 O 0.0216(10) 0.8602(9) 0.8359(6)
O27_2 O 0.8590(10) 0.0329(8) 0.7659(7)
O28_2 O 0.9282(10) 0.0064(10) 0.6651(7)
H76_2 H 0.82979 0.00361056 0.794388
Cr2_2 Cr 0.8810(2) 0.9637(2) 0.71450(13)
O25_2 O 0.9456(9) 0.8933(8) 0.7424(6)
O30_2 O 0.7940(10) 0.9150(10) 0.6934(6)
loop_
_geom_bond_atom_site_label_1
_geom_bond_atom_site_label_2
_geom_bond_site_symmetry_1
_geom_bond_site_symmetry_2
Cd5 O3 1_555 1_555
Cd8 O6 1_555 1_555
N3 C18 1_555 1_555
N6 C51 1_555 1_555
C1 H7 1_555 1_555
C7 H10 1_555 1_555
C18 C1 1_555 1_555
N12 C72 1_555 1_555
C39 C32 1_555 1_555
H27 C39 1_555 1_555
C51 C1 1_555 1_555
C63 N3 1_555 1_555
H39 C63 1_555 1_555
C64 H40 1_555 1_555
C72 N6 1_555 1_555
H44 C72 1_555 1_555
C79 N6 1_555 1_555
C83 N12 1_555 1_555
C88 C79 1_555 1_555
H56 C88 1_555 1_555
C89 C88 1_555 1_555
H57 C89 1_555 1_555
C92 C64 1_555 1_555
H60 C92 1_555 1_555
C7 C18 1_555 1_555
C7 C32 1_555 1_555
C39 C51 1_555 1_555
C64 C83 1_555 1_555
C79 C83 1_555 1_555
C89 C92 1_555 1_555
Cd5 O1 1_555 1_555
Cd8 O4 1_555 1_555
Cd10 O2 1_555 1_555
O1 C16 1_555 1_555
O2 Cd5 1_555 1_555
O4 C11 1_555 1_555
N1 Cd10 1_555 1_555
O8 C20 1_555 1_555
O9 Cd8 1_555 1_555
O10 Cd5 1_555 1_555
O12 Cd10 1_555 1_555
O13 Cd8 1_555 1_555
N7 Cd8 1_555 1_555
N9 C24 1_555 1_555
O15 Cd10 1_555 1_555
H5 O15 1_555 1_555
H6 O15 1_555 1_555
C5 N7 1_555 1_555
C10 C30 1_555 1_555
C11 O9 1_555 1_555
C12 C16 1_555 1_555
C13 H12 1_555 1_555
C16 O2 1_555 1_555
C19 C21 1_555 1_555
C20 C25 1_555 1_555
C21 H14 1_555 1_555
C23 H17 1_555 1_555
C24 N7 1_555 1_555
H18 C24 1_555 1_555
C25 C13 1_555 1_555
C27 C23 1_555 1_555
H20 C27 1_555 1_555
C30 H22 1_555 1_555
C31 C12 1_555 1_555
H23 C31 1_555 1_555
C33 C75 1_555 1_555
C36 C10 1_555 1_555
H25 C36 1_555 1_555
C37 C11 1_555 1_555
C40 C44 1_555 1_555
C43 H28 1_555 1_555
C44 C13 1_555 1_555
H29 C44 1_555 1_555
C47 C10 1_555 1_555
C49 N9 1_555 1_555
C50 H32 1_555 1_555
C52 C19 1_555 1_555
C55 C30 1_555 1_555
C58 C12 1_555 1_555
H36 C58 1_555 1_555
C61 C55 1_555 1_555
H37 C61 1_555 1_555
C62 C40 1_555 1_555
H38 C62 1_555 1_555
C65 H41 1_555 1_555
C66 C25 1_555 1_555
H42 C66 1_555 1_555
C67 N1 1_555 1_555
C68 C50 1_555 1_555
C69 O10 1_555 1_555
C73 C5 1_555 1_555
H45 C73 1_555 1_555
C75 C50 1_555 1_555
H47 C75 1_555 1_555
C77 C67 1_555 1_555
H48 C77 1_555 1_555
C78 C31 1_555 1_555
H49 C78 1_555 1_555
C82 C33 1_555 1_555
C84 C37 1_555 1_555
H52 C84 1_555 1_555
C85 C68 1_555 1_555
H53 C85 1_555 1_555
C93 C49 1_555 1_555
H61 C93 1_555 1_555
C94 C33 1_555 1_555
H62 C94 1_555 1_555
C98 C73 1_555 1_555
H65 C98 1_555 1_555
C102 C47 1_555 1_555
H68 C102 1_555 1_555
C105 C15 1_555 1_555
H71 C105 1_555 1_555
C106 C65 1_555 1_555
H72 C106 1_555 1_555
Cd12 O4 1_555 1_555
O23 Cd8 1_555 1_555
N14 Cd5 1_555 1_555
O12 C69 1_555 1_555
C5 C49 1_555 1_555
C15 C67 1_555 1_555
C23 C37 1_555 1_555
C27 C47 1_555 1_555
C36 C82 1_555 1_555
C40 C55 1_555 1_555
C43 C52 1_555 1_555
C43 C58 1_555 1_555
C52 C78 1_555 1_555
C61 C82 1_555 1_555
C62 C66 1_555 1_555
C65 C105 1_555 1_555
C68 C69 1_555 1_555
C77 C106 1_555 1_555
C84 C102 1_555 1_555
C85 C94 1_555 1_555
C91 C93 1_555 1_555
C91 C98 1_555 1_555
Cd12 O5 1_555 1_555
O5 C100 1_555 1_555
O7 C29 1_555 1_555
O23 C100 1_555 1_555
C4 H8 1_555 1_555
C9 C4 1_555 1_555
C14 C4 1_555 1_555
O16 Cd12 1_555 1_555
H15 O16 1_555 1_555
H16 O16 1_555 1_555
C29 C9 1_555 1_555
C34 C14 1_555 1_555
C38 C34 1_555 1_555
H26 C38 1_555 1_555
C46 C97 1_555 1_555
C53 C9 1_555 1_555
H33 C53 1_555 1_555
C59 C56 1_555 1_555
C71 H43 1_555 1_555
C76 C59 1_555 1_555
C86 C41 1_555 1_555
H54 C86 1_555 1_555
C97 C71 1_555 1_555
H64 C97 1_555 1_555
C99 C46 1_555 1_555
H66 C99 1_555 1_555
C100 C46 1_555 1_555
C101 C76 1_555 1_555
H67 C101 1_555 1_555
N13 Cd12 1_555 1_555
C34 C41 1_555 1_555
C38 C53 1_555 1_555
C59 C86 1_555 1_555
C71 C76 1_555 1_555
C99 C101 1_555 1_555
N5 C2 1_555 1_555
C2 C22 1_555 1_555
C90 C22 1_555 1_555
H58 C90 1_555 1_555
C96 C2 1_555 1_555
H63 C96 1_555 1_555
C107 C96 1_555 1_555
H73 C107 1_555 1_555
C108 C90 1_555 1_555
H74 C108 1_555 1_555
Cd14 N5 1_555 1_555
C107 C108 1_555 1_555
N2 C8 1_555 1_555
H1 O11 1_555 1_555
H2 O11 1_555 1_555
N4 C3 1_555 1_555
N8 C48 1_555 1_555
N10 C42 1_555 1_555
N11 C45 1_555 1_555
C3 C60 1_555 1_555
C6 H9 1_555 1_555
H11 C8 1_555 1_555
C17 N2 1_555 1_555
C26 C17 1_555 1_555
H19 C26 1_555 1_555
C28 H21 1_555 1_555
C35 H24 1_555 1_555
C42 C6 1_555 1_555
C45 N10 1_555 1_555
H30 C45 1_555 1_555
C48 N4 1_555 1_555
H31 C48 1_555 1_555
C54 N4 1_555 1_555
C57 C42 1_555 1_555
H35 C57 1_555 1_555
C60 N8 1_555 1_555
C70 N11 1_555 1_555
C74 H46 1_555 1_555
C80 C28 1_555 1_555
H50 C80 1_555 1_555
C81 C70 1_555 1_555
H51 C81 1_555 1_555
C87 C3 1_555 1_555
H55 C87 1_555 1_555
C95 N10 1_555 1_555
C103 C35 1_555 1_555
H69 C103 1_555 1_555
C104 C87 1_555 1_555
Cd6 N8 1_555 1_555
C6 C17 1_555 1_555
C26 C54 1_555 1_555
C28 C95 1_555 1_555
C35 C60 1_555 1_555
C54 C57 1_555 1_555
C70 C95 1_555 1_555
C74 C80 1_555 1_555
C74 C81 1_555 1_555
C103 C104 1_555 1_555
N2_2 C8_2 1_555 1_555
H1_2 O11_2 1_555 1_555
H2_2 O11_2 1_555 1_555
N4_2 C3_2 1_555 1_555
N14 C48_2 1_555 1_555
N10_2 C42_2 1_555 1_555
N15 C45_2 1_555 1_555
C3_2 C60_2 1_555 1_555
C6_2 H9_2 1_555 1_555
H11_2 C8_2 1_555 1_555
C17_2 N2_2 1_555 1_555
C26_2 C17_2 1_555 1_555
H19_2 C26_2 1_555 1_555
C28_2 H21_2 1_555 1_555
C35_2 H24_2 1_555 1_555
C42_2 C6_2 1_555 1_555
C45_2 N10_2 1_555 1_555
H30_2 C45_2 1_555 1_555
C48_2 N4_2 1_555 1_555
H31_2 C48_2 1_555 1_555
C54_2 N4_2 1_555 1_555
C57_2 C42_2 1_555 1_555
H35_2 C57_2 1_555 1_555
C60_2 N14 1_555 1_555
C70_2 N15 1_555 1_555
C74_2 H46_2 1_555 1_555
C80_2 C28_2 1_555 1_555
H50_2 C80_2 1_555 1_555
C81_2 C70_2 1_555 1_555
H51_2 C81_2 1_555 1_555
C87_2 C3_2 1_555 1_555
H55_2 C87_2 1_555 1_555
C95_2 N10_2 1_555 1_555
C103_2 C35_2 1_555 1_555
H69_2 C103_2 1_555 1_555
C104_2 C87_2 1_555 1_555
C6_2 C17_2 1_555 1_555
C26_2 C54_2 1_555 1_555
C28_2 C95_2 1_555 1_555
C35_2 C60_2 1_555 1_555
C54_2 C57_2 1_555 1_555
C70_2 C95_2 1_555 1_555
C74_2 C80_2 1_555 1_555
C74_2 C81_2 1_555 1_555
C103_2 C104_2 1_555 1_555
N13 C2_2 1_555 1_555
C2_2 C22_2 1_555 1_555
C90_2 C22_2 1_555 1_555
H58_2 C90_2 1_555 1_555
C96_2 C2_2 1_555 1_555
H63_2 C96_2 1_555 1_555
C107_2 C96_2 1_555 1_555
H73_2 C107_2 1_555 1_555
C108_2 C90_2 1_555 1_555
H74_2 C108_2 1_555 1_555
C107_2 C108_2 1_555 1_555
Cd14 O5_2 1_555 1_555
O5_2 C100_2 1_555 1_555
O20 C29_2 1_555 1_555
O14 C100_2 1_555 1_555
C4_2 H8_2 1_555 1_555
C9_2 C4_2 1_555 1_555
C14_2 C4_2 1_555 1_555
O16_2 Cd14 1_555 1_555
H15_2 O16_2 1_555 1_555
H16_2 O16_2 1_555 1_555
C29_2 C9_2 1_555 1_555
C34_2 C14_2 1_555 1_555
C38_2 C34_2 1_555 1_555
H26_2 C38_2 1_555 1_555
C46_2 C97_2 1_555 1_555
C53_2 C9_2 1_555 1_555
H33_2 C53_2 1_555 1_555
C59_2 C56_2 1_555 1_555
C71_2 H43_2 1_555 1_555
C76_2 C59_2 1_555 1_555
C86_2 C41_2 1_555 1_555
H54_2 C86_2 1_555 1_555
C97_2 C71_2 1_555 1_555
H64_2 C97_2 1_555 1_555
C99_2 C46_2 1_555 1_555
H66_2 C99_2 1_555 1_555
C100_2 C46_2 1_555 1_555
C101_2 C76_2 1_555 1_555
H67_2 C101_2 1_555 1_555
Cd7 O14 1_555 1_555
O18 Cd14 1_555 1_555
C34_2 C41_2 1_555 1_555
C38_2 C53_2 1_555 1_555
C59_2 C86_2 1_555 1_555
C71_2 C76_2 1_555 1_555
C99_2 C101_2 1_555 1_555
Cd7 O18 1_555 1_555
Cd6 O1_2 1_555 1_555
Cd3 O2_2 1_555 1_555
O1_2 C16_2 1_555 1_555
O2_2 Cd6 1_555 1_555
O18 C11_2 1_555 1_555
N1_2 Cd3 1_555 1_555
O22 C20_2 1_555 1_555
O9_2 Cd7 1_555 1_555
O10_2 Cd6 1_555 1_555
O12_2 Cd3 1_555 1_555
O13_2 Cd7 1_555 1_555
N7_2 Cd7 1_555 1_555
N9_2 C24_2 1_555 1_555
O15_2 Cd3 1_555 1_555
H5_2 O15_2 1_555 1_555
H6_2 O15_2 1_555 1_555
C5_2 N7_2 1_555 1_555
C10_2 C30_2 1_555 1_555
C11_2 O9_2 1_555 1_555
C12_2 C16_2 1_555 1_555
C13_2 H12_2 1_555 1_555
C16_2 O2_2 1_555 1_555
C19_2 C21_2 1_555 1_555
C20_2 C25_2 1_555 1_555
C21_2 H14_2 1_555 1_555
C23_2 H17_2 1_555 1_555
C24_2 N7_2 1_555 1_555
H18_2 C24_2 1_555 1_555
C25_2 C13_2 1_555 1_555
C27_2 C23_2 1_555 1_555
H20_2 C27_2 1_555 1_555
C30_2 H22_2 1_555 1_555
C31_2 C12_2 1_555 1_555
H23_2 C31_2 1_555 1_555
C33_2 C75_2 1_555 1_555
C36_2 C10_2 1_555 1_555
H25_2 C36_2 1_555 1_555
C37_2 C11_2 1_555 1_555
C40_2 C44_2 1_555 1_555
C43_2 H28_2 1_555 1_555
C44_2 C13_2 1_555 1_555
H29_2 C44_2 1_555 1_555
C47_2 C10_2 1_555 1_555
C49_2 N9_2 1_555 1_555
C50_2 H32_2 1_555 1_555
C52_2 C19_2 1_555 1_555
C55_2 C30_2 1_555 1_555
C58_2 C12_2 1_555 1_555
H36_2 C58_2 1_555 1_555
C61_2 C55_2 1_555 1_555
H37_2 C61_2 1_555 1_555
C62_2 C40_2 1_555 1_555
H38_2 C62_2 1_555 1_555
C65_2 H41_2 1_555 1_555
C66_2 C25_2 1_555 1_555
H42_2 C66_2 1_555 1_555
C67_2 N1_2 1_555 1_555
C68_2 C50_2 1_555 1_555
C69_2 O10_2 1_555 1_555
C73_2 C5_2 1_555 1_555
H45_2 C73_2 1_555 1_555
C75_2 C50_2 1_555 1_555
H47_2 C75_2 1_555 1_555
C77_2 C67_2 1_555 1_555
H48_2 C77_2 1_555 1_555
C78_2 C31_2 1_555 1_555
H49_2 C78_2 1_555 1_555
C82_2 C33_2 1_555 1_555
C84_2 C37_2 1_555 1_555
H52_2 C84_2 1_555 1_555
C85_2 C68_2 1_555 1_555
H53_2 C85_2 1_555 1_555
C93_2 C49_2 1_555 1_555
H61_2 C93_2 1_555 1_555
C94_2 C33_2 1_555 1_555
H62_2 C94_2 1_555 1_555
C98_2 C73_2 1_555 1_555
H65_2 C98_2 1_555 1_555
C102_2 C47_2 1_555 1_555
H68_2 C102_2 1_555 1_555
C105_2 C15_2 1_555 1_555
H71_2 C105_2 1_555 1_555
C106_2 C65_2 1_555 1_555
H72_2 C106_2 1_555 1_555
O17 Cd6 1_555 1_555
O19 Cd7 1_555 1_555
O12_2 C69_2 1_555 1_555
C5_2 C49_2 1_555 1_555
C15_2 C67_2 1_555 1_555
C23_2 C37_2 1_555 1_555
C27_2 C47_2 1_555 1_555
C36_2 C82_2 1_555 1_555
C40_2 C55_2 1_555 1_555
C43_2 C52_2 1_555 1_555
C43_2 C58_2 1_555 1_555
C52_2 C78_2 1_555 1_555
C61_2 C82_2 1_555 1_555
C62_2 C66_2 1_555 1_555
C65_2 C105_2 1_555 1_555
C68_2 C69_2 1_555 1_555
C77_2 C106_2 1_555 1_555
C84_2 C102_2 1_555 1_555
C85_2 C94_2 1_555 1_555
C91_2 C93_2 1_555 1_555
C91_2 C98_2 1_555 1_555
N3_2 C18_2 1_555 1_555
N6_2 C51_2 1_555 1_555
C1_2 H7_2 1_555 1_555
C7_2 H10_2 1_555 1_555
C18_2 C1_2 1_555 1_555
N16 C72_2 1_555 1_555
C39_2 C32_2 1_555 1_555
H27_2 C39_2 1_555 1_555
C51_2 C1_2 1_555 1_555
C63_2 N3_2 1_555 1_555
H39_2 C63_2 1_555 1_555
C64_2 H40_2 1_555 1_555
C72_2 N6_2 1_555 1_555
H44_2 C72_2 1_555 1_555
C79_2 N6_2 1_555 1_555
C83_2 N16 1_555 1_555
C88_2 C79_2 1_555 1_555
H56_2 C88_2 1_555 1_555
C89_2 C88_2 1_555 1_555
H57_2 C89_2 1_555 1_555
C92_2 C64_2 1_555 1_555
H60_2 C92_2 1_555 1_555
C7_2 C18_2 1_555 1_555
C7_2 C32_2 1_555 1_555
C39_2 C51_2 1_555 1_555
C64_2 C83_2 1_555 1_555
C79_2 C83_2 1_555 1_555
C89_2 C92_2 1_555 1_555
Cr2 O25 1_555 1_555
O30 Cr2 1_555 1_555
O27 H76 1_555 1_555
Cr1 O24 1_555 1_555
O29 Cr1 1_555 1_555
O26 H75 1_555 1_555
O26_2 H75_2 1_555 1_555
Cr1_2 O24_2 1_555 1_555
O29_2 Cr1_2 1_555 1_555
O27_2 H76_2 1_555 1_555
Cr2_2 O25_2 1_555 1_555
O30_2 Cr2_2 1_555 1_555

#END
