
###############################################################################
#
# This file contains modified crystal structure data generated from the
# MOF subset of the Cambridge Structural Database (CSD) v543 
# hosted by the Cambridge Crystallographic Data Centre (CCDC).
#
# This work is licensed under the Creative Commons
# Attribution-NonCommercial-ShareAlike 4.0 International License.
# To view a copy of this license, visit
# http://creativecommons.org/licenses/by-nc-sa/4.0/
# or send a letter to
# Creative Commons, PO Box 1866, Mountain View, CA 94042, USA.
#
# CIF created using the CSD Python API on 29 September 2022
# The structure has been converted into the P1 space group
# The structure has a 3D framework
# The original CSD entry ONIVOZ is in the monoclinic crystal system
# The framework has been calculated to contain at least 10.0% void space
# The void calculation uses a probe of radius 1.32A, grid spacing 0.4
# The framework is charged, counterions have been retained in the structure
# H atom positions have been added when not included in the experimental data
#
###############################################################################

data_ONIVOZ
_chemical_formula_moiety         '(C432 H296 Cd16 I22 N48 O64 2+)n'
_symmetry_cell_setting           triclinic
_symmetry_space_group_name_H-M   'P 1'
_symmetry_Int_Tables_number      1
_space_group_name_Hall           'P 1'
loop_
_symmetry_equiv_pos_site_id
_symmetry_equiv_pos_as_xyz
1 x,y,z
_cell_length_a                   22.424(2)
_cell_length_b                   23.871(2)
_cell_length_c                   24.672(2)
_cell_angle_alpha                90
_cell_angle_beta                 94.089(2)
_cell_angle_gamma                90
_cell_volume                     13172.9
loop_
_atom_site_label
_atom_site_type_symbol
_atom_site_fract_x
_atom_site_fract_y
_atom_site_fract_z
I1 I 0.20729(5) 0.64245(6) 0.54474(5)
I2 I 0.250000 0.750000 0.500000
I3 I 0.2736(2) 0.53744(19) 0.55473(19)
I4 I 0.29271(5) 0.85755(6) 0.45526(5)
I5 I 0.2264(2) 0.96256(19) 0.44527(19)
I2_2 I 0.750000 0.750000 0.000000
I4_2 I 0.70729(5) 0.85755(6) 0.04474(5)
I5_2 I 0.7736(2) 0.96256(19) 0.05473(19)
I1_2 I 0.79271(5) 0.64245(6) 0.95526(5)
I2_3 I 0.750000 0.750000 1.000000
I3_2 I 0.7264(2) 0.53744(19) 0.94527(19)
I1_3 I 0.70729(5) 0.14245(6) 0.54474(5)
I2_4 I 0.750000 0.250000 0.500000
I3_3 I 0.7736(2) 0.03744(19) 0.55473(19)
I4_3 I 0.79271(5) 0.35755(6) 0.45526(5)
I5_3 I 0.7264(2) 0.46256(19) 0.44527(19)
I2_5 I 0.250000 0.250000 0.000000
I4_4 I 0.20729(5) 0.35755(6) 0.04474(5)
I5_4 I 0.2736(2) 0.46256(19) 0.05473(19)
I1_4 I 0.29271(5) 0.14245(6) 0.95526(5)
I2_6 I 0.250000 0.250000 1.000000
I3_4 I 0.2264(2) 0.03744(19) 0.94527(19)
N1 N 0.0727(4) 0.7089(5) 0.1128(4)
C7 C 0.0752(6) 0.7057(6) 0.0599(5)
H5 H 0.109274 0.714126 0.042069
C23 C 0.0149(6) 0.6877(6) 0.1232(5)
H15 H 0.013276 0.688251 0.206383
N6 N 0.0227(4) 0.6888(5) 0.0339(4)
Cd3 Cd 0.14672(3) 0.74511(4) 0.17069(3)
N3 N 0.0991(4) 0.6318(5) 0.8634(4)
N4 N 0.1708(5) 0.6276(5) 0.8062(4)
C4 C 0.0138(5) 0.6824(5) 0.9769(5)
C9 C 0.1250(5) 0.6559(7) 0.8222(5)
H7 H 0.111908 0.689474 0.806409
C13 C 0.1769(6) 0.5826(6) 0.8427(6)
C17 C 0.0003(5) 0.6729(6) 0.8636(5)
C19 C 0.0590(5) 0.6590(6) 0.9482(5)
H12 H 0.094098 0.646178 0.966522
C30 C 0.0510(5) 0.6551(6) 0.8912(4)
C32 C 0.1318(6) 0.5838(6) 0.8781(6)
C44 C 0.2229(7) 0.5388(6) 0.8483(7)
H26 H 0.252806 0.534918 0.824334
C50 C 0.1264(7) 0.5418(7) 0.9185(7)
H31 H 0.096275 0.544310 0.942451
C53 C 0.2181(8) 0.5063(8) 0.8892(8)
H34 H 0.251546 0.484917 0.899859
C54 C 0.1646(9) 0.4990(9) 0.9218(8)
H35 H 0.158617 0.467190 0.942547
Cd6 Cd 0.24486(4) 0.66844(4) 0.75898(3)
Cd1 Cd 0.64672(3) 0.24511(4) 0.17069(3)
Cd2 Cd 0.75514(4) 0.66844(4) 0.74102(3)
O1 O 0.6775(3) 0.2777(4) 0.2665(3)
O2 O 0.5846(4) 0.2708(5) 0.2340(3)
O3 O 0.6433(5) 0.6679(4) 0.6338(4)
O4 O 0.6817(4) 0.6148(5) 0.7018(4)
N2 N 0.9011(4) 0.7130(5) 0.8650(4)
N5 N 0.8203(5) 0.7052(5) 0.8059(4)
O5 O 0.2138(4) 0.2719(5) 0.6037(4)
C1 C 0.9604(5) 0.7002(6) 0.9494(4)
H1 H 0.929299 0.714096 0.968455
O6 O 0.2602(5) 0.2460(4) 0.6817(4)
C2 C 0.9550(5) 0.6967(6) 0.8939(4)
C3 C 0.4922(5) 0.3368(5) 0.4950(5)
H2 H 0.474171 0.306567 0.476504
O7 O 0.7465(6) 0.5941(5) 0.8057(5)
H3 H 0.779928 0.569771 0.825677
H4 H 0.707696 0.577839 0.818871
C5 C 0.8665(5) 0.7605(5) 0.8730(5)
C6 C 0.5387(5) 0.3638(5) 0.4732(4)
C8 C 0.6415(5) 0.3169(6) 0.3679(5)
H6 H 0.682008 0.310284 0.365084
C10 C 0.5413(5) 0.3145(6) 0.3283(5)
H8 H 0.514396 0.307096 0.298757
C11 C 0.6017(5) 0.3065(6) 0.3237(4)
C12 C 0.4714(6) 0.3535(6) 0.5442(5)
C14 C 0.3212(6) 0.2853(7) 0.5551(6)
H9 H 0.289583 0.273440 0.531423
C15 C 0.5603(5) 0.3453(5) 0.4210(4)
C16 C 0.3718(6) 0.3077(6) 0.5357(5)
H10 H 0.373219 0.311570 0.498329
H11 H 0.995280 0.669789 0.825932
C18 C 0.6254(5) 0.5706(6) 0.6313(4)
C20 C 0.5198(5) 0.3338(6) 0.3777(5)
H13 H 0.478996 0.338528 0.380845
C21 C 0.5647(5) 0.4100(6) 0.4999(4)
H14 H 0.594801 0.429702 0.484192
C22 C 0.3183(6) 0.2808(7) 0.6113(5)
C24 C 0.4202(5) 0.3247(6) 0.5684(5)
C26 C 0.6222(5) 0.3371(6) 0.4162(5)
H16 H 0.649617 0.345167 0.445225
C27 C 0.8711(5) 0.6820(6) 0.8239(4)
H17 H 0.885407 0.648442 0.810657
C28 C 0.8734(5) 0.8060(6) 0.9065(5)
H18 H 0.906570 0.809214 0.931071
C29 C 0.8149(6) 0.7553(7) 0.8337(6)
C31 C 0.5002(5) 0.3988(6) 0.5733(5)
H19 H 0.488317 0.409168 0.607202
C33 C 0.6222(5) 0.2848(6) 0.2715(4)
C35 C 0.5951(6) 0.4759(6) 0.6333(5)
H20 H 0.593495 0.442841 0.653099
C36 C 0.6523(6) 0.6233(6) 0.6573(5)
C37 C 0.6077(6) 0.5736(6) 0.5744(5)
H21 H 0.612918 0.606393 0.554912
C38 C 0.4195(6) 0.3166(7) 0.6255(5)
H22 H 0.453014 0.324408 0.648629
C39 C 0.5741(5) 0.4760(6) 0.5777(5)
C40 C 0.5460(5) 0.4272(6) 0.5502(5)
C41 C 0.3682(6) 0.2972(6) 0.6450(5)
H23 H 0.366181 0.294756 0.682444
C42 C 0.6169(6) 0.5220(6) 0.6578(5)
H24 H 0.626899 0.520638 0.695049
C43 C 0.8295(6) 0.8474(7) 0.9030(5)
H25 H 0.832977 0.878636 0.925546
C47 C 0.5824(5) 0.5260(5) 0.5491(4)
H29 H 0.570773 0.527416 0.512157
C48 C 0.7718(6) 0.7967(7) 0.8302(6)
H30 H 0.738678 0.794227 0.805413
C49 C 0.2605(7) 0.2638(6) 0.6333(7)
C51 C 0.7798(6) 0.8419(6) 0.8651(8)
H32 H 0.751040 0.869986 0.863393
O8 O 0.6626(5) 0.1550(5) 0.2063(4)
Cd4 Cd 0.64672(3) 0.75489(4) 0.67069(3)
Cd5 Cd 0.14672(3) 0.25489(4) 0.67069(3)
Cd7 Cd 0.25514(4) 0.16844(4) 0.74102(3)
Cd8 Cd 0.75514(4) 0.33156(4) 0.24102(3)
O9 O 0.6775(3) 0.7223(4) 0.7665(3)
O10 O 0.6433(5) 0.3321(4) 0.1338(4)
N7 N 0.5727(4) 0.2089(5) 0.1128(4)
N8 N 0.8292(5) 0.6276(5) 0.6938(4)
O11 O 0.7138(4) 0.2281(5) 0.1037(4)
O12 O 0.7602(5) 0.7460(4) 0.6817(4)
O13 O 0.7602(5) 0.2540(4) 0.1817(4)
H36 H 0.635673 0.148613 0.235953
H37 H 0.654025 0.126857 0.177143
Cd1_2 Cd 0.35328(3) 0.24511(4) 0.32931(3)
O1_2 O 0.3225(3) 0.2777(4) 0.2335(3)
O2_2 O 0.4154(4) 0.2708(5) 0.2660(3)
C3_2 C 0.5078(5) 0.3368(5) 0.0050(5)
H2_2 H 0.525829 0.306567 0.023496
C6_2 C 0.4613(5) 0.3638(5) 0.0268(4)
C8_2 C 0.3585(5) 0.3169(6) 0.1321(5)
H6_2 H 0.317992 0.310284 0.134916
C10_2 C 0.4587(5) 0.3145(6) 0.1717(5)
H8_2 H 0.485604 0.307096 0.201243
C11_2 C 0.3983(5) 0.3065(6) 0.1763(4)
C15_2 C 0.4397(5) 0.3453(5) 0.0790(4)
H10_2 H 0.626781 0.311570 0.001671
C20_2 C 0.4802(5) 0.3338(6) 0.1223(5)
H13_2 H 0.521004 0.338528 0.119155
C21_2 C 0.4353(5) 0.4100(6) 0.0001(4)
H14_2 H 0.405199 0.429702 0.015808
C26_2 C 0.3778(5) 0.3371(6) 0.0838(5)
H16_2 H 0.350383 0.345167 0.054775
C33_2 C 0.3778(5) 0.2848(6) 0.2285(4)
O8_2 O 0.3374(5) 0.1550(5) 0.2937(4)
Cd8_2 Cd 0.24486(4) 0.33156(4) 0.25898(3)
O10_2 O 0.3567(5) 0.3321(4) 0.3662(4)
N7_2 N 0.4273(4) 0.2089(5) 0.3872(4)
O11_2 O 0.2862(4) 0.2281(5) 0.3963(4)
O13_2 O 0.2398(5) 0.2540(4) 0.3183(4)
H36_2 H 0.364327 0.148613 0.264047
H37_2 H 0.345975 0.126857 0.322857
O3_2 O 0.3567(5) 0.6679(4) 0.8662(4)
O4_2 O 0.3183(4) 0.6148(5) 0.7982(4)
N2_2 N 0.0989(4) 0.7130(5) 0.6350(4)
N5_2 N 0.1797(5) 0.7052(5) 0.6941(4)
O5_2 O 0.7862(4) 0.2719(5) 0.8963(4)
C1_2 C 0.0396(5) 0.7002(6) 0.5506(4)
H1_2 H 0.070701 0.714096 0.531545
O6_2 O 0.7398(5) 0.2460(4) 0.8183(4)
C2_2 C 0.0450(5) 0.6967(6) 0.6061(4)
O7_2 O 0.2535(6) 0.5941(5) 0.6943(5)
H3_2 H 0.220072 0.569771 0.674323
H4_2 H 0.292304 0.577839 0.681129
C5_2 C 0.1335(5) 0.7605(5) 0.6270(5)
C12_2 C 0.5286(6) 0.3535(6) 0.9558(5)
C14_2 C 0.6788(6) 0.2853(7) 0.9449(6)
H9_2 H 0.710417 0.273440 0.968577
C16_2 C 0.6282(6) 0.3077(6) 0.9643(5)
H11_2 H 0.004720 0.669789 0.674068
C18_2 C 0.3746(5) 0.5706(6) 0.8687(4)
C22_2 C 0.6817(6) 0.2808(7) 0.8887(5)
C24_2 C 0.5798(5) 0.3247(6) 0.9316(5)
C25 C 0.0086(6) 0.6802(7) 0.3261(6)
C27_2 C 0.1289(5) 0.6820(6) 0.6761(4)
H17_2 H 0.114593 0.648442 0.689343
C28_2 C 0.1266(5) 0.8060(6) 0.5935(5)
H18_2 H 0.093430 0.809214 0.568929
C29_2 C 0.1851(6) 0.7553(7) 0.6663(6)
C31_2 C 0.4998(5) 0.3988(6) 0.9267(5)
H19_2 H 0.511683 0.409168 0.892798
C34 C 0.0151(5) 0.6748(6) 0.4264(4)
C35_2 C 0.4049(6) 0.4759(6) 0.8667(5)
H20_2 H 0.406505 0.442841 0.846901
C36_2 C 0.3477(6) 0.6233(6) 0.8427(5)
C37_2 C 0.3923(6) 0.5736(6) 0.9256(5)
H21_2 H 0.387082 0.606393 0.945088
C38_2 C 0.5805(6) 0.3166(7) 0.8745(5)
H22_2 H 0.546986 0.324408 0.851371
C39_2 C 0.4259(5) 0.4760(6) 0.9223(5)
C40_2 C 0.4540(5) 0.4272(6) 0.9498(5)
C41_2 C 0.6318(6) 0.2972(6) 0.8550(5)
H23_2 H 0.633819 0.294756 0.817556
C42_2 C 0.3831(6) 0.5220(6) 0.8422(5)
H24_2 H 0.373101 0.520638 0.804951
C43_2 C 0.1705(6) 0.8474(7) 0.5970(5)
H25_2 H 0.167023 0.878636 0.574454
C45 C 0.0720(7) 0.6532(6) 0.4278(6)
H27 H 0.093782 0.647057 0.460747
C46 C 0.0669(7) 0.6599(7) 0.3278(7)
H28 H 0.087210 0.658587 0.296268
C47_2 C 0.4176(5) 0.5260(5) 0.9509(4)
H29_2 H 0.429227 0.527416 0.987843
C48_2 C 0.2282(6) 0.7967(7) 0.6698(6)
H30_2 H 0.261322 0.794227 0.694587
C49_2 C 0.7395(7) 0.2638(6) 0.8667(7)
C51_2 C 0.2202(6) 0.8419(6) 0.6349(8)
H32_2 H 0.248960 0.869986 0.636607
C52 C 0.0960(7) 0.6409(9) 0.3793(6)
H33 H 0.131142 0.620134 0.379375
Cd4_2 Cd 0.35328(3) 0.75489(4) 0.82931(3)
Cd5_2 Cd 0.85328(3) 0.25489(4) 0.82931(3)
Cd7_2 Cd 0.74486(4) 0.16844(4) 0.75898(3)
O9_2 O 0.3225(3) 0.7223(4) 0.7335(3)
O12_2 O 0.2398(5) 0.7460(4) 0.8183(4)
N1_2 N 0.9273(4) 0.7089(5) 0.3872(4)
N3_2 N 0.9009(4) 0.6318(5) 0.6366(4)
C4_2 C 0.9862(5) 0.6824(5) 0.5231(5)
C7_2 C 0.9248(6) 0.7057(6) 0.4401(5)
H5_2 H 0.890726 0.714126 0.457931
C9_2 C 0.8750(5) 0.6559(7) 0.6778(5)
H7_2 H 0.888092 0.689474 0.693591
C13_2 C 0.8231(6) 0.5826(6) 0.6573(6)
C17_2 C 0.9997(5) 0.6729(6) 0.6364(5)
C19_2 C 0.9410(5) 0.6590(6) 0.5518(5)
H12_2 H 0.905902 0.646178 0.533478
C23_2 C 0.9851(6) 0.6877(6) 0.3768(5)
H15_2 H 0.986724 0.688251 0.293617
C30_2 C 0.9490(5) 0.6551(6) 0.6088(4)
C32_2 C 0.8682(6) 0.5838(6) 0.6219(6)
C44_2 C 0.7771(7) 0.5388(6) 0.6517(7)
H26_2 H 0.747194 0.534918 0.675666
C50_2 C 0.8736(7) 0.5418(7) 0.5815(7)
H31_2 H 0.903725 0.544310 0.557549
C53_2 C 0.7819(8) 0.5063(8) 0.6108(8)
H34_2 H 0.748454 0.484917 0.600141
C54_2 C 0.8354(9) 0.4990(9) 0.5782(8)
H35_2 H 0.841383 0.467190 0.557453
N6_2 N 0.9773(4) 0.6888(5) 0.4661(4)
Cd3_2 Cd 0.85328(3) 0.74511(4) 0.32931(3)
C7_3 C 0.5752(6) 0.2057(6) 0.0599(5)
H5_3 H 0.609274 0.214126 0.042069
C23_3 C 0.5149(6) 0.1877(6) 0.1232(5)
C25_2 C 0.4914(6) 0.1802(7) 0.1739(6)
H15_3 H 0.513276 0.188251 0.206383
C34_2 C 0.4849(5) 0.1748(6) 0.0736(4)
C45_2 C 0.4280(7) 0.1532(6) 0.0722(6)
H27_2 H 0.406218 0.147057 0.039253
C46_2 C 0.4331(7) 0.1599(7) 0.1722(7)
H28_2 H 0.412790 0.158587 0.203732
C52_2 C 0.4040(7) 0.1409(9) 0.1207(6)
H33_2 H 0.368858 0.120134 0.120625
N6_3 N 0.5227(4) 0.1888(5) 0.0339(4)
O3_3 O 0.1433(5) 0.1679(4) 0.6338(4)
O4_3 O 0.1817(4) 0.1148(5) 0.7018(4)
N2_3 N 0.4011(4) 0.2130(5) 0.8650(4)
N3_3 N 0.5991(4) 0.1318(5) 0.8634(4)
N4_2 N 0.6708(5) 0.1276(5) 0.8062(4)
N5_3 N 0.3203(5) 0.2052(5) 0.8059(4)
C1_3 C 0.4604(5) 0.2002(6) 0.9494(4)
H1_3 H 0.429299 0.214096 0.968455
C2_3 C 0.4550(5) 0.1967(6) 0.8939(4)
O7_3 O 0.2465(6) 0.0941(5) 0.8057(5)
H3_3 H 0.279928 0.069771 0.825677
H4_3 H 0.207696 0.077839 0.818871
C4_3 C 0.5138(5) 0.1824(5) 0.9769(5)
C5_3 C 0.3665(5) 0.2605(5) 0.8730(5)
C9_3 C 0.6250(5) 0.1559(7) 0.8222(5)
H7_3 H 0.611908 0.189474 0.806409
C13_3 C 0.6769(6) 0.0826(6) 0.8427(6)
C17_3 C 0.5003(5) 0.1729(6) 0.8636(5)
H11_3 H 0.495280 0.169789 0.825932
C18_3 C 0.1254(5) 0.0706(6) 0.6313(4)
C19_3 C 0.5590(5) 0.1590(6) 0.9482(5)
H12_3 H 0.594098 0.146178 0.966522
C27_3 C 0.3711(5) 0.1820(6) 0.8239(4)
H17_3 H 0.385407 0.148442 0.810657
C28_3 C 0.3734(5) 0.3060(6) 0.9065(5)
H18_3 H 0.406570 0.309214 0.931071
C29_3 C 0.3149(6) 0.2553(7) 0.8337(6)
C30_3 C 0.5510(5) 0.1551(6) 0.8912(4)
C32_3 C 0.6318(6) 0.0838(6) 0.8781(6)
C36_3 C 0.1523(6) 0.1233(6) 0.6573(5)
C37_3 C 0.1077(6) 0.0736(6) 0.5744(5)
H21_3 H 0.112918 0.106393 0.554912
C42_3 C 0.1169(6) 0.0220(6) 0.6578(5)
H24_3 H 0.126899 0.020638 0.695049
C43_3 C 0.3295(6) 0.3474(7) 0.9030(5)
H25_3 H 0.332977 0.378636 0.925546
C44_3 C 0.7229(7) 0.0388(6) 0.8483(7)
H26_3 H 0.752806 0.034918 0.824334
C47_3 C 0.0824(5) 0.0260(5) 0.5491(4)
H29_3 H 0.070773 0.027416 0.512157
C48_3 C 0.2718(6) 0.2967(7) 0.8302(6)
H30_3 H 0.238678 0.294227 0.805413
C50_3 C 0.6264(7) 0.0418(7) 0.9185(7)
H31_3 H 0.596275 0.044310 0.942451
C51_3 C 0.2798(6) 0.3419(6) 0.8651(8)
H32_3 H 0.251040 0.369986 0.863393
C53_3 C 0.7181(8) 0.0063(8) 0.8892(8)
O9_3 O 0.1775(3) 0.2223(4) 0.7665(3)
N8_2 N 0.3292(5) 0.1276(5) 0.6938(4)
O1_3 O 0.1775(3) 0.7777(4) 0.2665(3)
O2_3 O 0.0846(4) 0.7708(5) 0.2340(3)
C6_3 C 0.0387(5) 0.8638(5) 0.4732(4)
C8_3 C 0.1415(5) 0.8169(6) 0.3679(5)
H6_3 H 0.182008 0.810284 0.365084
C10_3 C 0.0413(5) 0.8145(6) 0.3283(5)
H8_3 H 0.014396 0.807096 0.298757
C11_3 C 0.1017(5) 0.8065(6) 0.3237(4)
C15_3 C 0.0603(5) 0.8453(5) 0.4210(4)
C20_3 C 0.0198(5) 0.8338(6) 0.3777(5)
C21_3 C 0.0647(5) 0.9100(6) 0.4999(4)
H14_3 H 0.094801 0.929702 0.484192
C26_3 C 0.1222(5) 0.8371(6) 0.4162(5)
H16_3 H 0.149617 0.845167 0.445225
C31_3 C 0.0002(5) 0.8988(6) 0.5733(5)
C33_3 C 0.1222(5) 0.7848(6) 0.2715(4)
C35_3 C 0.0951(6) 0.9759(6) 0.6333(5)
H20_3 H 0.093495 0.942841 0.653099
C39_3 C 0.0741(5) 0.9760(6) 0.5777(5)
C40_3 C 0.0460(5) 0.9272(6) 0.5502(5)
H34_3 H 0.751546 0.984917 0.899859
C54_3 C 0.6646(9) 0.9990(9) 0.9218(8)
H35_3 H 0.658617 0.967190 0.942547
O8_3 O 0.1626(5) 0.6550(5) 0.2063(4)
Cd8_3 Cd 0.25514(4) 0.83156(4) 0.24102(3)
O10_3 O 0.1433(5) 0.8321(4) 0.1338(4)
O11_3 O 0.2138(4) 0.7281(5) 0.1037(4)
O13_3 O 0.2602(5) 0.7540(4) 0.1817(4)
H36_3 H 0.135673 0.648613 0.235953
H37_3 H 0.154025 0.626857 0.177143
O5_3 O 0.7138(4) 0.7719(5) 0.6037(4)
C3_3 C 0.9922(5) 0.8368(5) 0.4950(5)
H2_3 H 0.974171 0.806567 0.476504
C12_3 C 0.9714(6) 0.8535(6) 0.5442(5)
C14_3 C 0.8212(6) 0.7853(7) 0.5551(6)
H9_3 H 0.789583 0.773440 0.531423
C16_3 C 0.8718(6) 0.8077(6) 0.5357(5)
H10_3 H 0.873219 0.811570 0.498329
H13_3 H 0.978996 0.838528 0.380845
C22_3 C 0.8183(6) 0.7808(7) 0.6113(5)
C24_3 C 0.9202(5) 0.8247(6) 0.5684(5)
H19_3 H 0.988317 0.909168 0.607202
C38_3 C 0.9195(6) 0.8166(7) 0.6255(5)
H22_3 H 0.953014 0.824408 0.648629
C41_3 C 0.8682(6) 0.7972(6) 0.6450(5)
H23_3 H 0.866181 0.794756 0.682444
C49_3 C 0.7605(7) 0.7638(6) 0.6333(7)
O5_4 O 0.2862(4) 0.7719(5) 0.8963(4)
C12_4 C 0.0286(6) 0.8535(6) 0.9558(5)
C14_4 C 0.1788(6) 0.7853(7) 0.9449(6)
H9_4 H 0.210417 0.773440 0.968577
C16_4 C 0.1282(6) 0.8077(6) 0.9643(5)
C22_4 C 0.1817(6) 0.7808(7) 0.8887(5)
C24_4 C 0.0798(5) 0.8247(6) 0.9316(5)
H19_4 H 0.011683 0.909168 0.892798
C38_4 C 0.0805(6) 0.8166(7) 0.8745(5)
H22_4 H 0.046986 0.824408 0.851371
C41_4 C 0.1318(6) 0.7972(6) 0.8550(5)
H23_4 H 0.133819 0.794756 0.817556
C49_4 C 0.2395(7) 0.7638(6) 0.8667(7)
O3_4 O 0.8567(5) 0.1679(4) 0.8662(4)
O4_4 O 0.8183(4) 0.1148(5) 0.7982(4)
N2_4 N 0.5989(4) 0.2130(5) 0.6350(4)
N3_4 N 0.4009(4) 0.1318(5) 0.6366(4)
N5_4 N 0.6797(5) 0.2052(5) 0.6941(4)
C1_4 C 0.5396(5) 0.2002(6) 0.5506(4)
H1_4 H 0.570701 0.214096 0.531545
C2_4 C 0.5450(5) 0.1967(6) 0.6061(4)
O7_4 O 0.7535(6) 0.0941(5) 0.6943(5)
H3_4 H 0.720072 0.069771 0.674323
H4_4 H 0.792304 0.077839 0.681129
C4_4 C 0.4862(5) 0.1824(5) 0.5231(5)
C5_4 C 0.6335(5) 0.2605(5) 0.6270(5)
C7_4 C 0.4248(6) 0.2057(6) 0.4401(5)
H5_4 H 0.390726 0.214126 0.457931
C9_4 C 0.3750(5) 0.1559(7) 0.6778(5)
H7_4 H 0.388092 0.189474 0.693591
C13_4 C 0.3231(6) 0.0826(6) 0.6573(6)
C17_4 C 0.4997(5) 0.1729(6) 0.6364(5)
H11_4 H 0.504720 0.169789 0.674068
C18_4 C 0.8746(5) 0.0706(6) 0.8687(4)
C19_4 C 0.4410(5) 0.1590(6) 0.5518(5)
H12_4 H 0.405902 0.146178 0.533478
C23_4 C 0.4851(6) 0.1877(6) 0.3768(5)
C25_3 C 0.5086(6) 0.1802(7) 0.3261(6)
H15_4 H 0.486724 0.188251 0.293617
C27_4 C 0.6289(5) 0.1820(6) 0.6761(4)
H17_4 H 0.614593 0.148442 0.689343
C28_4 C 0.6266(5) 0.3060(6) 0.5935(5)
H18_4 H 0.593430 0.309214 0.568929
C29_4 C 0.6851(6) 0.2553(7) 0.6663(6)
C30_4 C 0.4490(5) 0.1551(6) 0.6088(4)
C32_4 C 0.3682(6) 0.0838(6) 0.6219(6)
C34_3 C 0.5151(5) 0.1748(6) 0.4264(4)
C36_4 C 0.8477(6) 0.1233(6) 0.8427(5)
C37_4 C 0.8923(6) 0.0736(6) 0.9256(5)
H21_4 H 0.887082 0.106393 0.945088
C42_4 C 0.8831(6) 0.0220(6) 0.8422(5)
H24_4 H 0.873101 0.020638 0.804951
C43_4 C 0.6705(6) 0.3474(7) 0.5970(5)
H25_4 H 0.667023 0.378636 0.574454
C44_4 C 0.2771(7) 0.0388(6) 0.6517(7)
H26_4 H 0.247194 0.034918 0.675666
C45_3 C 0.5720(7) 0.1532(6) 0.4278(6)
H27_3 H 0.593782 0.147057 0.460747
C46_3 C 0.5669(7) 0.1599(7) 0.3278(7)
H28_3 H 0.587210 0.158587 0.296268
C47_4 C 0.9176(5) 0.0260(5) 0.9509(4)
H29_4 H 0.929227 0.027416 0.987843
C48_4 C 0.7282(6) 0.2967(7) 0.6698(6)
H30_4 H 0.761322 0.294227 0.694587
C50_4 C 0.3736(7) 0.0418(7) 0.5815(7)
H31_4 H 0.403725 0.044310 0.557549
C51_4 C 0.7202(6) 0.3419(6) 0.6349(8)
H32_4 H 0.748960 0.369986 0.636607
C52_3 C 0.5960(7) 0.1409(9) 0.3793(6)
H33_3 H 0.631142 0.120134 0.379375
C53_4 C 0.2819(8) 0.0063(8) 0.6108(8)
N6_4 N 0.4773(4) 0.1888(5) 0.4661(4)
O9_4 O 0.8225(3) 0.2223(4) 0.7335(3)
O1_4 O 0.8225(3) 0.7777(4) 0.2335(3)
O2_4 O 0.9154(4) 0.7708(5) 0.2660(3)
C6_4 C 0.9613(5) 0.8638(5) 0.0268(4)
C8_4 C 0.8585(5) 0.8169(6) 0.1321(5)
H6_4 H 0.817992 0.810284 0.134916
C10_4 C 0.9587(5) 0.8145(6) 0.1717(5)
H8_4 H 0.985604 0.807096 0.201243
C11_4 C 0.8983(5) 0.8065(6) 0.1763(4)
C15_4 C 0.9397(5) 0.8453(5) 0.0790(4)
C20_4 C 0.9802(5) 0.8338(6) 0.1223(5)
C21_4 C 0.9353(5) 0.9100(6) 0.0001(4)
H14_4 H 0.905199 0.929702 0.015808
C26_4 C 0.8778(5) 0.8371(6) 0.0838(5)
H16_4 H 0.850383 0.845167 0.054775
C33_4 C 0.8778(5) 0.7848(6) 0.2285(4)
O8_4 O 0.8374(5) 0.6550(5) 0.2937(4)
Cd8_4 Cd 0.74486(4) 0.83156(4) 0.25898(3)
O10_4 O 0.8567(5) 0.8321(4) 0.3662(4)
O11_4 O 0.7862(4) 0.7281(5) 0.3963(4)
O13_4 O 0.7398(5) 0.7540(4) 0.3183(4)
H36_4 H 0.864327 0.648613 0.264047
H37_4 H 0.845975 0.626857 0.322857
O2_5 O 0.4154(4) 0.7292(5) 0.7660(3)
O4_5 O 0.3183(4) 0.3852(5) 0.2982(4)
N2_5 N 0.0989(4) 0.2870(5) 0.1350(4)
N5_5 N 0.1797(5) 0.2948(5) 0.1941(4)
C1_5 C 0.0396(5) 0.2998(6) 0.0506(4)
H1_5 H 0.070701 0.285904 0.031545
C2_5 C 0.0450(5) 0.3033(6) 0.1061(4)
C3_4 C 0.5078(5) 0.6632(5) 0.5050(5)
H2_4 H 0.525829 0.693433 0.523496
O7_5 O 0.2535(6) 0.4059(5) 0.1943(5)
H3_5 H 0.220072 0.430229 0.174323
H4_5 H 0.292304 0.422161 0.181129
C5_5 C 0.1335(5) 0.2395(5) 0.1270(5)
C6_5 C 0.4613(5) 0.6362(5) 0.5268(4)
C8_5 C 0.3585(5) 0.6831(6) 0.6321(5)
H6_5 H 0.317992 0.689716 0.634916
C10_5 C 0.4587(5) 0.6855(6) 0.6717(5)
H8_5 H 0.485604 0.692904 0.701243
C11_5 C 0.3983(5) 0.6935(6) 0.6763(4)
C12_5 C 0.5286(6) 0.6465(6) 0.4558(5)
C14_5 C 0.6788(6) 0.7147(7) 0.4449(6)
H9_5 H 0.710417 0.726560 0.468577
C15_5 C 0.4397(5) 0.6547(5) 0.5790(4)
C16_5 C 0.6282(6) 0.6923(6) 0.4643(5)
H10_4 H 0.626781 0.688430 0.501671
H11_5 H 0.004720 0.330211 0.174068
C18_5 C 0.3746(5) 0.4294(6) 0.3687(4)
C20_5 C 0.4802(5) 0.6662(6) 0.6223(5)
H13_4 H 0.521004 0.661472 0.619155
C21_5 C 0.4353(5) 0.5900(6) 0.5001(4)
H14_5 H 0.405199 0.570298 0.515808
C22_5 C 0.6817(6) 0.7192(7) 0.3887(5)
C24_5 C 0.5798(5) 0.6753(6) 0.4316(5)
C26_5 C 0.3778(5) 0.6629(6) 0.5838(5)
H16_5 H 0.350383 0.654833 0.554775
C27_5 C 0.1289(5) 0.3180(6) 0.1761(4)
H17_5 H 0.114593 0.351558 0.189343
C28_5 C 0.1266(5) 0.1940(6) 0.0935(5)
H18_5 H 0.093430 0.190786 0.068929
C29_5 C 0.1851(6) 0.2447(7) 0.1663(6)
C31_4 C 0.4998(5) 0.6012(6) 0.4267(5)
H19_5 H 0.511683 0.590832 0.392798
C33_5 C 0.3778(5) 0.7152(6) 0.7285(4)
C35_4 C 0.4049(6) 0.5241(6) 0.3667(5)
H20_4 H 0.406505 0.557159 0.346901
C36_5 C 0.3477(6) 0.3767(6) 0.3427(5)
C37_5 C 0.3923(6) 0.4264(6) 0.4256(5)
H21_5 H 0.387082 0.393607 0.445088
C38_5 C 0.5805(6) 0.6834(7) 0.3745(5)
H22_5 H 0.546986 0.675592 0.351371
C39_4 C 0.4259(5) 0.5240(6) 0.4223(5)
C40_4 C 0.4540(5) 0.5728(6) 0.4498(5)
C41_5 C 0.6318(6) 0.7028(6) 0.3550(5)
H23_5 H 0.633819 0.705244 0.317556
C42_5 C 0.3831(6) 0.4780(6) 0.3422(5)
H24_5 H 0.373101 0.479362 0.304951
C43_5 C 0.1705(6) 0.1526(7) 0.0970(5)
H25_5 H 0.167023 0.121364 0.074454
C47_5 C 0.4176(5) 0.4740(5) 0.4509(4)
H29_5 H 0.429227 0.472584 0.487843
C48_5 C 0.2282(6) 0.2033(7) 0.1698(6)
H30_5 H 0.261322 0.205773 0.194587
C49_5 C 0.7395(7) 0.7362(6) 0.3667(7)
C51_5 C 0.2202(6) 0.1581(6) 0.1349(8)
H32_5 H 0.248960 0.130014 0.136607
O8_5 O 0.3374(5) 0.8450(5) 0.7937(4)
N7_3 N 0.4273(4) 0.7911(5) 0.8872(4)
N8_3 N 0.1708(5) 0.3724(5) 0.3062(4)
H36_5 H 0.364327 0.851387 0.764047
H37_5 H 0.345975 0.873143 0.822857
N3_5 N 0.9009(4) 0.3682(5) 0.1366(4)
N4_3 N 0.8292(5) 0.3724(5) 0.1938(4)
C4_5 C 0.9862(5) 0.3176(5) 0.0231(5)
C9_5 C 0.8750(5) 0.3441(7) 0.1778(5)
H7_5 H 0.888092 0.310526 0.193591
C13_5 C 0.8231(6) 0.4174(6) 0.1573(6)
C17_5 C 0.9997(5) 0.3271(6) 0.1364(5)
C19_5 C 0.9410(5) 0.3410(6) 0.0518(5)
H12_5 H 0.905902 0.353822 0.033478
C30_5 C 0.9490(5) 0.3449(6) 0.1088(4)
C32_5 C 0.8682(6) 0.4162(6) 0.1219(6)
C44_5 C 0.7771(7) 0.4612(6) 0.1517(7)
H26_5 H 0.747194 0.465082 0.175666
C50_5 C 0.8736(7) 0.4582(7) 0.0815(7)
H31_5 H 0.903725 0.455690 0.057549
C53_5 C 0.7819(8) 0.4937(8) 0.1108(8)
H34_4 H 0.748454 0.515083 0.100141
C54_4 C 0.8354(9) 0.5010(9) 0.0782(8)
H35_4 H 0.841383 0.532810 0.057453
N1_3 N 0.9273(4) 0.2911(5) 0.8872(4)
C7_5 C 0.9248(6) 0.2943(6) 0.9401(5)
H5_5 H 0.890726 0.285874 0.957931
C23_5 C 0.9851(6) 0.3123(6) 0.8768(5)
H15_5 H 0.986724 0.311749 0.793617
N6_5 N 0.9773(4) 0.3112(5) 0.9661(4)
N1_4 N 0.0727(4) 0.2911(5) 0.6128(4)
N3_6 N 0.0991(4) 0.3682(5) 0.3634(4)
C4_6 C 0.0138(5) 0.3176(5) 0.4769(5)
C7_6 C 0.0752(6) 0.2943(6) 0.5599(5)
H5_6 H 0.109274 0.285874 0.542069
C9_6 C 0.1250(5) 0.3441(7) 0.3222(5)
H7_6 H 0.111908 0.310526 0.306409
C13_6 C 0.1769(6) 0.4174(6) 0.3427(6)
C17_6 C 0.0003(5) 0.3271(6) 0.3636(5)
C19_6 C 0.0590(5) 0.3410(6) 0.4482(5)
H12_6 H 0.094098 0.353822 0.466522
C23_6 C 0.0149(6) 0.3123(6) 0.6232(5)
H15_6 H 0.013276 0.311749 0.706383
C30_6 C 0.0510(5) 0.3449(6) 0.3912(4)
C32_6 C 0.1318(6) 0.4162(6) 0.3781(6)
C44_6 C 0.2229(7) 0.4612(6) 0.3483(7)
H26_6 H 0.252806 0.465082 0.324334
C50_6 C 0.1264(7) 0.4582(7) 0.4185(7)
H31_6 H 0.096275 0.455690 0.442451
C53_6 C 0.2181(8) 0.4937(8) 0.3892(8)
H34_5 H 0.251546 0.515083 0.399859
C54_5 C 0.1646(9) 0.5010(9) 0.4218(8)
H35_5 H 0.158617 0.532810 0.442547
N6_6 N 0.0227(4) 0.3112(5) 0.5339(4)
O4_6 O 0.6817(4) 0.3852(5) 0.2018(4)
N2_6 N 0.9011(4) 0.2870(5) 0.3650(4)
N5_6 N 0.8203(5) 0.2948(5) 0.3059(4)
C1_6 C 0.9604(5) 0.2998(6) 0.4494(4)
H1_6 H 0.929299 0.285904 0.468455
C2_6 C 0.9550(5) 0.3033(6) 0.3939(4)
O7_6 O 0.7465(6) 0.4059(5) 0.3057(5)
H3_6 H 0.779928 0.430229 0.325677
H4_6 H 0.707696 0.422161 0.318871
C5_6 C 0.8665(5) 0.2395(5) 0.3730(5)
C12_6 C 0.4714(6) 0.6465(6) 0.0442(5)
C14_6 C 0.3212(6) 0.7147(7) 0.0551(6)
H9_6 H 0.289583 0.726560 0.031423
C16_6 C 0.3718(6) 0.6923(6) 0.0357(5)
H11_6 H 0.995280 0.330211 0.325932
C18_6 C 0.6254(5) 0.4294(6) 0.1313(4)
C22_6 C 0.3183(6) 0.7192(7) 0.1113(5)
C24_6 C 0.4202(5) 0.6753(6) 0.0684(5)
C25_4 C 0.9914(6) 0.3198(7) 0.6739(6)
C27_6 C 0.8711(5) 0.3180(6) 0.3239(4)
H17_6 H 0.885407 0.351558 0.310657
C28_6 C 0.8734(5) 0.1940(6) 0.4065(5)
H18_6 H 0.906570 0.190786 0.431071
C29_6 C 0.8149(6) 0.2447(7) 0.3337(6)
C31_5 C 0.5002(5) 0.6012(6) 0.0733(5)
H19_6 H 0.488317 0.590832 0.107202
C34_4 C 0.9849(5) 0.3252(6) 0.5736(4)
C35_5 C 0.5951(6) 0.5241(6) 0.1333(5)
H20_5 H 0.593495 0.557159 0.153099
C36_6 C 0.6523(6) 0.3767(6) 0.1573(5)
C37_6 C 0.6077(6) 0.4264(6) 0.0744(5)
H21_6 H 0.612918 0.393607 0.054912
C38_6 C 0.4195(6) 0.6834(7) 0.1255(5)
H22_6 H 0.453014 0.675592 0.148629
C39_5 C 0.5741(5) 0.5240(6) 0.0777(5)
C40_5 C 0.5460(5) 0.5728(6) 0.0502(5)
C41_6 C 0.3682(6) 0.7028(6) 0.1450(5)
H23_6 H 0.366181 0.705244 0.182444
C42_6 C 0.6169(6) 0.4780(6) 0.1578(5)
H24_6 H 0.626899 0.479362 0.195049
C43_6 C 0.8295(6) 0.1526(7) 0.4030(5)
H25_6 H 0.832977 0.121364 0.425546
C45_4 C 0.9280(7) 0.3468(6) 0.5722(6)
H27_4 H 0.906218 0.352943 0.539253
C46_4 C 0.9331(7) 0.3401(7) 0.6722(7)
H28_4 H 0.912790 0.341413 0.703732
C47_6 C 0.5824(5) 0.4740(5) 0.0491(4)
H29_6 H 0.570773 0.472584 0.012157
C48_6 C 0.7718(6) 0.2033(7) 0.3302(6)
H30_6 H 0.738678 0.205773 0.305413
C49_6 C 0.2605(7) 0.7362(6) 0.1333(7)
C51_6 C 0.7798(6) 0.1581(6) 0.3651(8)
H32_6 H 0.751040 0.130014 0.363393
C52_4 C 0.9040(7) 0.3591(9) 0.6207(6)
H33_4 H 0.868858 0.379866 0.620625
O2_6 O 0.5846(4) 0.7292(5) 0.7340(3)
C3_5 C 0.4922(5) 0.6632(5) 0.9950(5)
H2_5 H 0.474171 0.693433 0.976504
C6_6 C 0.5387(5) 0.6362(5) 0.9732(4)
C8_6 C 0.6415(5) 0.6831(6) 0.8679(5)
H6_6 H 0.682008 0.689716 0.865084
C10_6 C 0.5413(5) 0.6855(6) 0.8283(5)
H8_6 H 0.514396 0.692904 0.798757
C11_6 C 0.6017(5) 0.6935(6) 0.8237(4)
C15_6 C 0.5603(5) 0.6547(5) 0.9210(4)
H10_5 H 0.373219 0.688430 0.998329
C20_6 C 0.5198(5) 0.6662(6) 0.8777(5)
H13_5 H 0.478996 0.661472 0.880845
C21_6 C 0.5647(5) 0.5900(6) 0.9999(4)
H14_6 H 0.594801 0.570298 0.984192
C26_6 C 0.6222(5) 0.6629(6) 0.9162(5)
H16_6 H 0.649617 0.654833 0.945225
C33_6 C 0.6222(5) 0.7152(6) 0.7715(4)
O8_6 O 0.6626(5) 0.8450(5) 0.7063(4)
N7_4 N 0.5727(4) 0.7911(5) 0.6128(4)
H36_6 H 0.635673 0.851387 0.735953
H37_6 H 0.654025 0.873143 0.677143
C3_6 C 0.0078(5) 0.1632(5) 0.5050(5)
H2_6 H 0.025829 0.193433 0.523496
C12_7 C 0.0286(6) 0.1465(6) 0.4558(5)
C14_7 C 0.1788(6) 0.2147(7) 0.4449(6)
H9_7 H 0.210417 0.226560 0.468577
C16_7 C 0.1282(6) 0.1923(6) 0.4643(5)
H10_6 H 0.126781 0.188430 0.501671
H13_6 H 0.021004 0.161472 0.619155
C22_7 C 0.1817(6) 0.2192(7) 0.3887(5)
C24_7 C 0.0798(5) 0.1753(6) 0.4316(5)
H19_7 H 0.011683 0.090832 0.392798
C38_7 C 0.0805(6) 0.1834(7) 0.3745(5)
H22_7 H 0.046986 0.175592 0.351371
C41_7 C 0.1318(6) 0.2028(6) 0.3550(5)
H23_7 H 0.133819 0.205244 0.317556
C49_7 C 0.2395(7) 0.2362(6) 0.3667(7)
O2_7 O 0.9154(4) 0.2292(5) 0.7660(3)
C6_7 C 0.9613(5) 0.1362(5) 0.5268(4)
C8_7 C 0.8585(5) 0.1831(6) 0.6321(5)
H6_7 H 0.817992 0.189716 0.634916
C10_7 C 0.9587(5) 0.1855(6) 0.6717(5)
H8_7 H 0.985604 0.192904 0.701243
C11_7 C 0.8983(5) 0.1935(6) 0.6763(4)
C15_7 C 0.9397(5) 0.1547(5) 0.5790(4)
C20_7 C 0.9802(5) 0.1662(6) 0.6223(5)
C21_7 C 0.9353(5) 0.0900(6) 0.5001(4)
H14_7 H 0.905199 0.070298 0.515808
C26_7 C 0.8778(5) 0.1629(6) 0.5838(5)
H16_7 H 0.850383 0.154833 0.554775
C31_6 C 0.9998(5) 0.1012(6) 0.4267(5)
C33_7 C 0.8778(5) 0.2152(6) 0.7285(4)
C35_6 C 0.9049(6) 0.0241(6) 0.3667(5)
H20_6 H 0.906505 0.057159 0.346901
C39_6 C 0.9259(5) 0.0240(6) 0.4223(5)
C40_6 C 0.9540(5) 0.0728(6) 0.4498(5)
H34_6 H 0.248454 0.015083 0.100141
C54_6 C 0.3354(9) 0.0010(9) 0.0782(8)
H35_6 H 0.341383 0.032810 0.057453
O8_7 O 0.8374(5) 0.3450(5) 0.7937(4)
H36_7 H 0.864327 0.351387 0.764047
H37_7 H 0.845975 0.373143 0.822857
O4_7 O 0.8183(4) 0.8852(5) 0.2982(4)
N2_7 N 0.5989(4) 0.7870(5) 0.1350(4)
N3_7 N 0.4009(4) 0.8682(5) 0.1366(4)
N4_4 N 0.3292(5) 0.8724(5) 0.1938(4)
N5_7 N 0.6797(5) 0.7948(5) 0.1941(4)
C1_7 C 0.5396(5) 0.7998(6) 0.0506(4)
H1_7 H 0.570701 0.785904 0.031545
C2_7 C 0.5450(5) 0.8033(6) 0.1061(4)
O7_7 O 0.7535(6) 0.9059(5) 0.1943(5)
H3_7 H 0.720072 0.930229 0.174323
H4_7 H 0.792304 0.922161 0.181129
C4_7 C 0.4862(5) 0.8176(5) 0.0231(5)
C5_7 C 0.6335(5) 0.7395(5) 0.1270(5)
C9_7 C 0.3750(5) 0.8441(7) 0.1778(5)
H7_7 H 0.388092 0.810526 0.193591
C13_7 C 0.3231(6) 0.9174(6) 0.1573(6)
C17_7 C 0.4997(5) 0.8271(6) 0.1364(5)
H11_7 H 0.504720 0.830211 0.174068
C18_7 C 0.8746(5) 0.9294(6) 0.3687(4)
C19_7 C 0.4410(5) 0.8410(6) 0.0518(5)
H12_7 H 0.405902 0.853822 0.033478
C27_7 C 0.6289(5) 0.8180(6) 0.1761(4)
H17_7 H 0.614593 0.851558 0.189343
C28_7 C 0.6266(5) 0.6940(6) 0.0935(5)
H18_7 H 0.593430 0.690786 0.068929
C29_7 C 0.6851(6) 0.7447(7) 0.1663(6)
C30_7 C 0.4490(5) 0.8449(6) 0.1088(4)
C32_7 C 0.3682(6) 0.9162(6) 0.1219(6)
C36_7 C 0.8477(6) 0.8767(6) 0.3427(5)
C37_7 C 0.8923(6) 0.9264(6) 0.4256(5)
H21_7 H 0.887082 0.893607 0.445088
C42_7 C 0.8831(6) 0.9780(6) 0.3422(5)
H24_7 H 0.873101 0.979362 0.304951
C43_7 C 0.6705(6) 0.6526(7) 0.0970(5)
H25_7 H 0.667023 0.621364 0.074454
C44_7 C 0.2771(7) 0.9612(6) 0.1517(7)
H26_7 H 0.247194 0.965082 0.175666
C47_7 C 0.9176(5) 0.9740(5) 0.4509(4)
H29_7 H 0.929227 0.972584 0.487843
C48_7 C 0.7282(6) 0.7033(7) 0.1698(6)
H30_7 H 0.761322 0.705773 0.194587
C50_7 C 0.3736(7) 0.9582(7) 0.0815(7)
H31_7 H 0.403725 0.955690 0.057549
C51_7 C 0.7202(6) 0.6581(6) 0.1349(8)
H32_7 H 0.748960 0.630014 0.136607
C53_7 C 0.2819(8) 0.9937(8) 0.1108(8)
N8_4 N 0.6708(5) 0.8724(5) 0.3062(4)
C7_7 C 0.4248(6) 0.7943(6) 0.9401(5)
H5_7 H 0.390726 0.785874 0.957931
C23_7 C 0.4851(6) 0.8123(6) 0.8768(5)
C25_5 C 0.5086(6) 0.8198(7) 0.8261(6)
H15_7 H 0.486724 0.811749 0.793617
C34_5 C 0.5151(5) 0.8252(6) 0.9264(4)
C45_5 C 0.5720(7) 0.8468(6) 0.9278(6)
H27_5 H 0.593782 0.852943 0.960747
C46_5 C 0.5669(7) 0.8401(7) 0.8278(7)
H28_5 H 0.587210 0.841413 0.796268
C52_5 C 0.5960(7) 0.8591(9) 0.8793(6)
H33_5 H 0.631142 0.879866 0.879375
N6_7 N 0.4773(4) 0.8112(5) 0.9661(4)
O2_8 O 0.0846(4) 0.2292(5) 0.7340(3)
C6_8 C 0.0387(5) 0.1362(5) 0.9732(4)
C8_8 C 0.1415(5) 0.1831(6) 0.8679(5)
H6_8 H 0.182008 0.189716 0.865084
C10_8 C 0.0413(5) 0.1855(6) 0.8283(5)
H8_8 H 0.014396 0.192904 0.798757
C11_8 C 0.1017(5) 0.1935(6) 0.8237(4)
C15_8 C 0.0603(5) 0.1547(5) 0.9210(4)
C20_8 C 0.0198(5) 0.1662(6) 0.8777(5)
C21_8 C 0.0647(5) 0.0900(6) 0.9999(4)
H14_8 H 0.094801 0.070298 0.984192
C26_8 C 0.1222(5) 0.1629(6) 0.9162(5)
H16_8 H 0.149617 0.154833 0.945225
C33_8 C 0.1222(5) 0.2152(6) 0.7715(4)
O8_8 O 0.1626(5) 0.3450(5) 0.7063(4)
H36_8 H 0.135673 0.351387 0.735953
H37_8 H 0.154025 0.373143 0.677143
O4_8 O 0.1817(4) 0.8852(5) 0.2018(4)
N2_8 N 0.4011(4) 0.7870(5) 0.3650(4)
N3_8 N 0.5991(4) 0.8682(5) 0.3634(4)
N5_8 N 0.3203(5) 0.7948(5) 0.3059(4)
C1_8 C 0.4604(5) 0.7998(6) 0.4494(4)
H1_8 H 0.429299 0.785904 0.468455
C2_8 C 0.4550(5) 0.8033(6) 0.3939(4)
O7_8 O 0.2465(6) 0.9059(5) 0.3057(5)
H3_8 H 0.279928 0.930229 0.325677
H4_8 H 0.207696 0.922161 0.318871
C4_8 C 0.5138(5) 0.8176(5) 0.4769(5)
C5_8 C 0.3665(5) 0.7395(5) 0.3730(5)
C7_8 C 0.5752(6) 0.7943(6) 0.5599(5)
H5_8 H 0.609274 0.785874 0.542069
C9_8 C 0.6250(5) 0.8441(7) 0.3222(5)
H7_8 H 0.611908 0.810526 0.306409
C13_8 C 0.6769(6) 0.9174(6) 0.3427(6)
C17_8 C 0.5003(5) 0.8271(6) 0.3636(5)
H11_8 H 0.495280 0.830211 0.325932
C18_8 C 0.1254(5) 0.9294(6) 0.1313(4)
C19_8 C 0.5590(5) 0.8410(6) 0.4482(5)
H12_8 H 0.594098 0.853822 0.466522
C23_8 C 0.5149(6) 0.8123(6) 0.6232(5)
C25_6 C 0.4914(6) 0.8198(7) 0.6739(6)
H15_8 H 0.513276 0.811749 0.706383
C27_8 C 0.3711(5) 0.8180(6) 0.3239(4)
H17_8 H 0.385407 0.851558 0.310657
C28_8 C 0.3734(5) 0.6940(6) 0.4065(5)
H18_8 H 0.406570 0.690786 0.431071
C29_8 C 0.3149(6) 0.7447(7) 0.3337(6)
C30_8 C 0.5510(5) 0.8449(6) 0.3912(4)
C32_8 C 0.6318(6) 0.9162(6) 0.3781(6)
C34_6 C 0.4849(5) 0.8252(6) 0.5736(4)
C36_8 C 0.1523(6) 0.8767(6) 0.1573(5)
C37_8 C 0.1077(6) 0.9264(6) 0.0744(5)
H21_8 H 0.112918 0.893607 0.054912
C42_8 C 0.1169(6) 0.9780(6) 0.1578(5)
H24_8 H 0.126899 0.979362 0.195049
C43_8 C 0.3295(6) 0.6526(7) 0.4030(5)
H25_8 H 0.332977 0.621364 0.425546
C44_8 C 0.7229(7) 0.9612(6) 0.3483(7)
H26_8 H 0.752806 0.965082 0.324334
C45_6 C 0.4280(7) 0.8468(6) 0.5722(6)
H27_6 H 0.406218 0.852943 0.539253
C46_6 C 0.4331(7) 0.8401(7) 0.6722(7)
H28_6 H 0.412790 0.841413 0.703732
C47_8 C 0.0824(5) 0.9740(5) 0.0491(4)
H29_8 H 0.070773 0.972584 0.012157
C48_8 C 0.2718(6) 0.7033(7) 0.3302(6)
H30_8 H 0.238678 0.705773 0.305413
C50_8 C 0.6264(7) 0.9582(7) 0.4185(7)
H31_8 H 0.596275 0.955690 0.442451
C51_8 C 0.2798(6) 0.6581(6) 0.3651(8)
H32_8 H 0.251040 0.630014 0.363393
C52_6 C 0.4040(7) 0.8591(9) 0.6207(6)
H33_6 H 0.368858 0.879866 0.620625
C53_8 C 0.7181(8) 0.9937(8) 0.3892(8)
N6_8 N 0.5227(4) 0.8112(5) 0.5339(4)
C12_8 C 0.9714(6) 0.1465(6) 0.0442(5)
C14_8 C 0.8212(6) 0.2147(7) 0.0551(6)
H9_8 H 0.789583 0.226560 0.031423
C16_8 C 0.8718(6) 0.1923(6) 0.0357(5)
C22_8 C 0.8183(6) 0.2192(7) 0.1113(5)
C24_8 C 0.9202(5) 0.1753(6) 0.0684(5)
H19_8 H 0.988317 0.090832 0.107202
C38_8 C 0.9195(6) 0.1834(7) 0.1255(5)
H22_8 H 0.953014 0.175592 0.148629
C41_8 C 0.8682(6) 0.2028(6) 0.1450(5)
H23_8 H 0.866181 0.205244 0.182444
C49_8 C 0.7605(7) 0.2362(6) 0.1333(7)
C25_7 C 0.9914(6) 0.6802(7) 0.1739(6)
C34_7 C 0.9849(5) 0.6748(6) 0.0736(4)
C45_7 C 0.9280(7) 0.6532(6) 0.0722(6)
H27_7 H 0.906218 0.647057 0.039253
C46_7 C 0.9331(7) 0.6599(7) 0.1722(7)
H28_7 H 0.912790 0.658587 0.203732
C52_7 C 0.9040(7) 0.6409(9) 0.1207(6)
H33_7 H 0.868858 0.620134 0.120625
C3_7 C 0.0078(5) 0.8368(5) 0.0050(5)
H2_7 H 0.025829 0.806567 0.023496
H10_7 H 0.126781 0.811570 0.001671
H13_7 H 0.021004 0.838528 0.119155
C31_7 C 0.9998(5) 0.8988(6) 0.9267(5)
C35_7 C 0.9049(6) 0.9759(6) 0.8667(5)
H20_7 H 0.906505 0.942841 0.846901
C39_7 C 0.9259(5) 0.9760(6) 0.9223(5)
C40_7 C 0.9540(5) 0.9272(6) 0.9498(5)
H34_7 H 0.248454 0.984917 0.600141
C54_7 C 0.3354(9) 0.9990(9) 0.5782(8)
H35_7 H 0.341383 0.967190 0.557453
C25_8 C 0.0086(6) 0.3198(7) 0.8261(6)
C34_8 C 0.0151(5) 0.3252(6) 0.9264(4)
C45_8 C 0.0720(7) 0.3468(6) 0.9278(6)
H27_8 H 0.093782 0.352943 0.960747
C46_8 C 0.0669(7) 0.3401(7) 0.8278(7)
H28_8 H 0.087210 0.341413 0.796268
C52_8 C 0.0960(7) 0.3591(9) 0.8793(6)
H33_8 H 0.131142 0.379866 0.879375
C31_8 C 0.0002(5) 0.1012(6) 0.0733(5)
C35_8 C 0.0951(6) 0.0241(6) 0.1333(5)
H20_8 H 0.093495 0.057159 0.153099
C39_8 C 0.0741(5) 0.0240(6) 0.0777(5)
C40_8 C 0.0460(5) 0.0728(6) 0.0502(5)
H34_8 H 0.751546 0.015083 0.399859
C54_8 C 0.6646(9) 0.0010(9) 0.4218(8)
H35_8 H 0.658617 0.032810 0.442547
C3_8 C 0.9922(5) 0.1632(5) 0.9950(5)
H2_8 H 0.974171 0.193433 0.976504
H10_8 H 0.873219 0.188430 0.998329
H13_8 H 0.978996 0.161472 0.880845
loop_
_geom_bond_atom_site_label_1
_geom_bond_atom_site_label_2
_geom_bond_site_symmetry_1
_geom_bond_site_symmetry_2
I1 I2 1_555 1_555
I2 I4 1_555 1_555
I3 I1 1_555 1_555
I4 I5 1_555 1_555
I2_2 I4_2 1_555 1_555
I4_2 I5_2 1_555 1_555
I1_2 I2_3 1_555 1_555
I3_2 I1_2 1_555 1_555
I1_3 I2_4 1_555 1_555
I2_4 I4_3 1_555 1_555
I3_3 I1_3 1_555 1_555
I4_3 I5_3 1_555 1_555
I2_5 I4_4 1_555 1_555
I4_4 I5_4 1_555 1_555
I1_4 I2_6 1_555 1_555
I3_4 I1_4 1_555 1_555
N1 C7 1_555 1_555
C7 H5 1_555 1_555
C23 N1 1_555 1_555
Cd3 N1 1_555 1_555
C7 N6 1_555 1_555
N3 C9 1_555 1_555
N4 C9 1_555 1_555
C9 H7 1_555 1_555
C13 N4 1_555 1_555
C19 C4 1_555 1_555
H12 C19 1_555 1_555
C30 N3 1_555 1_555
C32 N3 1_555 1_555
C44 C13 1_555 1_555
H26 C44 1_555 1_555
C50 C32 1_555 1_555
H31 C50 1_555 1_555
C53 C44 1_555 1_555
H34 C53 1_555 1_555
C54 C50 1_555 1_555
H35 C54 1_555 1_555
Cd6 N4 1_555 1_555
C13 C32 1_555 1_555
C17 C30 1_555 1_555
C19 C30 1_555 1_555
C53 C54 1_555 1_555
Cd1 O1 1_555 1_555
Cd2 O4 1_555 1_555
O1 C33 1_555 1_555
O2 Cd1 1_555 1_555
O3 C36 1_555 1_555
O4 C36 1_555 1_555
N2 C2 1_555 1_555
N5 Cd2 1_555 1_555
O5 C49 1_555 1_555
C1 H1 1_555 1_555
O6 C49 1_555 1_555
C2 C1 1_555 1_555
C3 H2 1_555 1_555
O7 Cd2 1_555 1_555
H3 O7 1_555 1_555
H4 O7 1_555 1_555
C5 N2 1_555 1_555
C6 C3 1_555 1_555
C8 H6 1_555 1_555
C10 H8 1_555 1_555
C11 C8 1_555 1_555
C12 C3 1_555 1_555
C14 H9 1_555 1_555
C15 C6 1_555 1_555
C16 C14 1_555 1_555
H10 C16 1_555 1_555
C18 C36 1_555 1_555
C20 C10 1_555 1_555
H13 C20 1_555 1_555
C21 C6 1_555 1_555
H14 C21 1_555 1_555
C22 C14 1_555 1_555
C24 C12 1_555 1_555
C26 C8 1_555 1_555
H16 C26 1_555 1_555
C27 N2 1_555 1_555
H17 C27 1_555 1_555
C28 C5 1_555 1_555
H18 C28 1_555 1_555
C29 N5 1_555 1_555
C31 C12 1_555 1_555
H19 C31 1_555 1_555
C33 O2 1_555 1_555
C35 H20 1_555 1_555
C37 C18 1_555 1_555
H21 C37 1_555 1_555
C38 C24 1_555 1_555
H22 C38 1_555 1_555
C39 C35 1_555 1_555
C40 C21 1_555 1_555
C41 C22 1_555 1_555
H23 C41 1_555 1_555
C42 C18 1_555 1_555
H24 C42 1_555 1_555
C43 C28 1_555 1_555
H25 C43 1_555 1_555
C47 C37 1_555 1_555
H29 C47 1_555 1_555
C48 C29 1_555 1_555
H30 C48 1_555 1_555
C49 C22 1_555 1_555
C51 C43 1_555 1_555
H32 C51 1_555 1_555
O8 Cd1 1_555 1_555
Cd4 O3 1_555 1_555
Cd5 O5 1_555 1_555
Cd7 O6 1_555 1_555
Cd8 O1 1_555 1_555
O9 Cd2 1_555 1_555
O10 Cd1 1_555 1_555
N7 Cd1 1_555 1_555
N8 Cd2 1_555 1_555
O11 Cd1 1_555 1_555
O12 Cd2 1_555 1_555
O13 Cd1 1_555 1_555
N5 C27 1_555 1_555
O6 Cd5 1_555 1_555
C5 C29 1_555 1_555
C10 C11 1_555 1_555
C11 C33 1_555 1_555
C15 C20 1_555 1_555
C15 C26 1_555 1_555
C16 C24 1_555 1_555
C31 C40 1_555 1_555
C35 C42 1_555 1_555
C38 C41 1_555 1_555
C39 C40 1_555 1_555
C39 C47 1_555 1_555
C48 C51 1_555 1_555
Cd4 O9 1_555 1_555
Cd4 O12 1_555 1_555
Cd8 O13 1_555 1_555
O8 H36 1_555 1_555
O8 H37 1_555 1_555
Cd1_2 O1_2 1_555 1_555
O1_2 C33_2 1_555 1_555
O2_2 Cd1_2 1_555 1_555
C3_2 H2_2 1_555 1_555
C6_2 C3_2 1_555 1_555
C8_2 H6_2 1_555 1_555
C10_2 H8_2 1_555 1_555
C11_2 C8_2 1_555 1_555
C15_2 C6_2 1_555 1_555
C20_2 C10_2 1_555 1_555
H13_2 C20_2 1_555 1_555
C21_2 C6_2 1_555 1_555
H14_2 C21_2 1_555 1_555
C26_2 C8_2 1_555 1_555
H16_2 C26_2 1_555 1_555
C33_2 O2_2 1_555 1_555
O8_2 Cd1_2 1_555 1_555
Cd8_2 O1_2 1_555 1_555
O10_2 Cd1_2 1_555 1_555
N7_2 Cd1_2 1_555 1_555
O11_2 Cd1_2 1_555 1_555
O13_2 Cd1_2 1_555 1_555
C10_2 C11_2 1_555 1_555
C11_2 C33_2 1_555 1_555
C15_2 C20_2 1_555 1_555
C15_2 C26_2 1_555 1_555
Cd8_2 O13_2 1_555 1_555
O8_2 H36_2 1_555 1_555
O8_2 H37_2 1_555 1_555
Cd6 O4_2 1_555 1_555
O3_2 C36_2 1_555 1_555
O4_2 C36_2 1_555 1_555
N2_2 C2_2 1_555 1_555
N5_2 Cd6 1_555 1_555
O5_2 C49_2 1_555 1_555
C1_2 H1_2 1_555 1_555
O6_2 C49_2 1_555 1_555
C2_2 C1_2 1_555 1_555
O7_2 Cd6 1_555 1_555
H3_2 O7_2 1_555 1_555
H4_2 O7_2 1_555 1_555
C5_2 N2_2 1_555 1_555
C14_2 H9_2 1_555 1_555
C16_2 C14_2 1_555 1_555
C18_2 C36_2 1_555 1_555
C22_2 C14_2 1_555 1_555
C24_2 C12_2 1_555 1_555
C27_2 N2_2 1_555 1_555
H17_2 C27_2 1_555 1_555
C28_2 C5_2 1_555 1_555
H18_2 C28_2 1_555 1_555
C29_2 N5_2 1_555 1_555
C31_2 C12_2 1_555 1_555
H19_2 C31_2 1_555 1_555
C35_2 H20_2 1_555 1_555
C37_2 C18_2 1_555 1_555
H21_2 C37_2 1_555 1_555
C38_2 C24_2 1_555 1_555
H22_2 C38_2 1_555 1_555
C39_2 C35_2 1_555 1_555
C41_2 C22_2 1_555 1_555
H23_2 C41_2 1_555 1_555
C42_2 C18_2 1_555 1_555
H24_2 C42_2 1_555 1_555
C43_2 C28_2 1_555 1_555
H25_2 C43_2 1_555 1_555
C45 C34 1_555 1_555
H27 C45 1_555 1_555
C46 C25 1_555 1_555
H28 C46 1_555 1_555
C47_2 C37_2 1_555 1_555
H29_2 C47_2 1_555 1_555
C48_2 C29_2 1_555 1_555
H30_2 C48_2 1_555 1_555
C49_2 C22_2 1_555 1_555
C51_2 C43_2 1_555 1_555
H32_2 C51_2 1_555 1_555
C52 C45 1_555 1_555
H33 C52 1_555 1_555
Cd4_2 O3_2 1_555 1_555
Cd5_2 O5_2 1_555 1_555
Cd7_2 O6_2 1_555 1_555
O9_2 Cd6 1_555 1_555
O12_2 Cd6 1_555 1_555
N5_2 C27_2 1_555 1_555
O6_2 Cd5_2 1_555 1_555
C5_2 C29_2 1_555 1_555
C16_2 C24_2 1_555 1_555
C31_2 C40_2 1_555 1_555
C35_2 C42_2 1_555 1_555
C38_2 C41_2 1_555 1_555
C39_2 C40_2 1_555 1_555
C39_2 C47_2 1_555 1_555
C46 C52 1_555 1_555
C48_2 C51_2 1_555 1_555
Cd4_2 O9_2 1_555 1_555
Cd4_2 O12_2 1_555 1_555
N1_2 C7_2 1_555 1_555
N3_2 C9_2 1_555 1_555
N8 C9_2 1_555 1_555
C7_2 H5_2 1_555 1_555
C9_2 H7_2 1_555 1_555
C13_2 N8 1_555 1_555
C19_2 C4_2 1_555 1_555
H12_2 C19_2 1_555 1_555
C23_2 N1_2 1_555 1_555
C30_2 N3_2 1_555 1_555
C32_2 N3_2 1_555 1_555
C44_2 C13_2 1_555 1_555
H26_2 C44_2 1_555 1_555
C50_2 C32_2 1_555 1_555
H31_2 C50_2 1_555 1_555
C53_2 C44_2 1_555 1_555
H34_2 C53_2 1_555 1_555
C54_2 C50_2 1_555 1_555
H35_2 C54_2 1_555 1_555
N6_2 C4_2 1_555 1_555
Cd3_2 N1_2 1_555 1_555
C7_2 N6_2 1_555 1_555
C13_2 C32_2 1_555 1_555
C17_2 C30_2 1_555 1_555
C19_2 C30_2 1_555 1_555
C53_2 C54_2 1_555 1_555
N7 C7_3 1_555 1_555
C7_3 H5_3 1_555 1_555
C23_3 N7 1_555 1_555
C25_2 C23_3 1_555 1_555
H15_3 C25_2 1_555 1_555
C34_2 C23_3 1_555 1_555
C45_2 C34_2 1_555 1_555
H27_2 C45_2 1_555 1_555
C46_2 C25_2 1_555 1_555
H28_2 C46_2 1_555 1_555
C52_2 C45_2 1_555 1_555
H33_2 C52_2 1_555 1_555
C7_3 N6_3 1_555 1_555
C34_2 N6_3 1_555 1_555
C46_2 C52_2 1_555 1_555
Cd7 O4_3 1_555 1_555
O3_3 C36_3 1_555 1_555
O4_3 C36_3 1_555 1_555
N2_3 C2_3 1_555 1_555
N3_3 C9_3 1_555 1_555
N4_2 C9_3 1_555 1_555
N5_3 Cd7 1_555 1_555
C1_3 H1_3 1_555 1_555
C2_3 C1_3 1_555 1_555
O7_3 Cd7 1_555 1_555
H3_3 O7_3 1_555 1_555
H4_3 O7_3 1_555 1_555
C4_3 C1_3 1_555 1_555
C5_3 N2_3 1_555 1_555
C9_3 H7_3 1_555 1_555
C13_3 N4_2 1_555 1_555
C17_3 C2_3 1_555 1_555
H11_3 C17_3 1_555 1_555
C18_3 C36_3 1_555 1_555
C19_3 C4_3 1_555 1_555
H12_3 C19_3 1_555 1_555
C27_3 N2_3 1_555 1_555
H17_3 C27_3 1_555 1_555
C28_3 C5_3 1_555 1_555
H18_3 C28_3 1_555 1_555
C29_3 N5_3 1_555 1_555
C30_3 N3_3 1_555 1_555
C32_3 N3_3 1_555 1_555
C37_3 C18_3 1_555 1_555
H21_3 C37_3 1_555 1_555
C42_3 C18_3 1_555 1_555
H24_3 C42_3 1_555 1_555
C43_3 C28_3 1_555 1_555
H25_3 C43_3 1_555 1_555
C44_3 C13_3 1_555 1_555
H26_3 C44_3 1_555 1_555
C47_3 C37_3 1_555 1_555
H29_3 C47_3 1_555 1_555
C48_3 C29_3 1_555 1_555
H30_3 C48_3 1_555 1_555
C50_3 C32_3 1_555 1_555
H31_3 C50_3 1_555 1_555
C51_3 C43_3 1_555 1_555
H32_3 C51_3 1_555 1_555
C53_3 C44_3 1_555 1_555
Cd5 O3_3 1_555 1_555
Cd7_2 N4_2 1_555 1_555
O9_3 Cd7 1_555 1_555
N8_2 Cd7 1_555 1_555
N5_3 C27_3 1_555 1_555
C5_3 C29_3 1_555 1_555
C13_3 C32_3 1_555 1_555
C17_3 C30_3 1_555 1_555
C19_3 C30_3 1_555 1_555
C48_3 C51_3 1_555 1_555
Cd5 O9_3 1_555 1_555
Cd3 O1_3 1_555 1_555
O1_3 C33_3 1_555 1_555
O2_3 Cd3 1_555 1_555
C8_3 H6_3 1_555 1_555
C10_3 H8_3 1_555 1_555
C11_3 C8_3 1_555 1_555
C15_3 C6_3 1_555 1_555
C20_3 C10_3 1_555 1_555
C21_3 C6_3 1_555 1_555
H14_3 C21_3 1_555 1_555
C26_3 C8_3 1_555 1_555
H16_3 C26_3 1_555 1_555
C33_3 O2_3 1_555 1_555
C35_3 H20_3 1_555 1_555
C39_3 C35_3 1_555 1_555
C40_3 C21_3 1_555 1_555
H35_3 C54_3 1_555 1_555
O8_3 Cd3 1_555 1_555
Cd8_3 O1_3 1_555 1_555
O10_3 Cd3 1_555 1_555
O11_3 Cd3 1_555 1_555
O13_3 Cd3 1_555 1_555
C10_3 C11_3 1_555 1_555
C11_3 C33_3 1_555 1_555
C15_3 C20_3 1_555 1_555
C15_3 C26_3 1_555 1_555
C31_3 C40_3 1_555 1_555
C39_3 C40_3 1_555 1_555
Cd8_3 O13_3 1_555 1_555
O8_3 H36_3 1_555 1_555
O8_3 H37_3 1_555 1_555
O5_3 C49_3 1_555 1_555
O12 C49_3 1_555 1_555
C3_3 H2_3 1_555 1_555
C12_3 C3_3 1_555 1_555
C14_3 H9_3 1_555 1_555
C16_3 C14_3 1_555 1_555
H10_3 C16_3 1_555 1_555
C22_3 C14_3 1_555 1_555
C24_3 C12_3 1_555 1_555
C38_3 C24_3 1_555 1_555
H22_3 C38_3 1_555 1_555
C41_3 C22_3 1_555 1_555
H23_3 C41_3 1_555 1_555
C49_3 C22_3 1_555 1_555
Cd4 O5_3 1_555 1_555
C16_3 C24_3 1_555 1_555
C38_3 C41_3 1_555 1_555
O5_4 C49_4 1_555 1_555
O12_2 C49_4 1_555 1_555
C14_4 H9_4 1_555 1_555
C16_4 C14_4 1_555 1_555
C22_4 C14_4 1_555 1_555
C24_4 C12_4 1_555 1_555
C38_4 C24_4 1_555 1_555
H22_4 C38_4 1_555 1_555
C41_4 C22_4 1_555 1_555
H23_4 C41_4 1_555 1_555
C49_4 C22_4 1_555 1_555
Cd4_2 O5_4 1_555 1_555
C16_4 C24_4 1_555 1_555
C38_4 C41_4 1_555 1_555
Cd7_2 O4_4 1_555 1_555
O3_4 C36_4 1_555 1_555
O4_4 C36_4 1_555 1_555
N7_2 C7_4 1_555 1_555
N2_4 C2_4 1_555 1_555
N3_4 C9_4 1_555 1_555
N8_2 C9_4 1_555 1_555
N5_4 Cd7_2 1_555 1_555
C1_4 H1_4 1_555 1_555
C2_4 C1_4 1_555 1_555
O7_4 Cd7_2 1_555 1_555
H3_4 O7_4 1_555 1_555
H4_4 O7_4 1_555 1_555
C4_4 C1_4 1_555 1_555
C5_4 N2_4 1_555 1_555
C7_4 H5_4 1_555 1_555
C9_4 H7_4 1_555 1_555
C13_4 N8_2 1_555 1_555
C17_4 C2_4 1_555 1_555
H11_4 C17_4 1_555 1_555
C18_4 C36_4 1_555 1_555
C19_4 C4_4 1_555 1_555
H12_4 C19_4 1_555 1_555
C23_4 N7_2 1_555 1_555
C25_3 C23_4 1_555 1_555
H15_4 C25_3 1_555 1_555
C27_4 N2_4 1_555 1_555
H17_4 C27_4 1_555 1_555
C28_4 C5_4 1_555 1_555
H18_4 C28_4 1_555 1_555
C29_4 N5_4 1_555 1_555
C30_4 N3_4 1_555 1_555
C32_4 N3_4 1_555 1_555
C34_3 C23_4 1_555 1_555
C37_4 C18_4 1_555 1_555
H21_4 C37_4 1_555 1_555
C42_4 C18_4 1_555 1_555
H24_4 C42_4 1_555 1_555
C43_4 C28_4 1_555 1_555
H25_4 C43_4 1_555 1_555
C44_4 C13_4 1_555 1_555
H26_4 C44_4 1_555 1_555
C45_3 C34_3 1_555 1_555
H27_3 C45_3 1_555 1_555
C46_3 C25_3 1_555 1_555
H28_3 C46_3 1_555 1_555
C47_4 C37_4 1_555 1_555
H29_4 C47_4 1_555 1_555
C48_4 C29_4 1_555 1_555
H30_4 C48_4 1_555 1_555
C50_4 C32_4 1_555 1_555
H31_4 C50_4 1_555 1_555
C51_4 C43_4 1_555 1_555
H32_4 C51_4 1_555 1_555
C52_3 C45_3 1_555 1_555
H33_3 C52_3 1_555 1_555
C53_4 C44_4 1_555 1_555
N6_4 C4_4 1_555 1_555
Cd5_2 O3_4 1_555 1_555
O9_4 Cd7_2 1_555 1_555
N5_4 C27_4 1_555 1_555
C5_4 C29_4 1_555 1_555
C7_4 N6_4 1_555 1_555
C13_4 C32_4 1_555 1_555
C17_4 C30_4 1_555 1_555
C19_4 C30_4 1_555 1_555
C34_3 N6_4 1_555 1_555
C46_3 C52_3 1_555 1_555
C48_4 C51_4 1_555 1_555
Cd5_2 O9_4 1_555 1_555
Cd3_2 O1_4 1_555 1_555
O1_4 C33_4 1_555 1_555
O2_4 Cd3_2 1_555 1_555
C8_4 H6_4 1_555 1_555
C10_4 H8_4 1_555 1_555
C11_4 C8_4 1_555 1_555
C15_4 C6_4 1_555 1_555
C20_4 C10_4 1_555 1_555
C21_4 C6_4 1_555 1_555
H14_4 C21_4 1_555 1_555
C26_4 C8_4 1_555 1_555
H16_4 C26_4 1_555 1_555
C33_4 O2_4 1_555 1_555
O8_4 Cd3_2 1_555 1_555
Cd8_4 O1_4 1_555 1_555
O10_4 Cd3_2 1_555 1_555
O11_4 Cd3_2 1_555 1_555
O13_4 Cd3_2 1_555 1_555
C10_4 C11_4 1_555 1_555
C11_4 C33_4 1_555 1_555
C15_4 C20_4 1_555 1_555
C15_4 C26_4 1_555 1_555
Cd8_4 O13_4 1_555 1_555
O8_4 H36_4 1_555 1_555
O8_4 H37_4 1_555 1_555
Cd8_2 O4_5 1_555 1_555
O9_2 C33_5 1_555 1_555
O2_5 Cd4_2 1_555 1_555
O10_2 C36_5 1_555 1_555
O4_5 C36_5 1_555 1_555
N2_5 C2_5 1_555 1_555
N5_5 Cd8_2 1_555 1_555
O11_4 C49_5 1_555 1_555
C1_5 H1_5 1_555 1_555
O13_4 C49_5 1_555 1_555
C2_5 C1_5 1_555 1_555
C3_4 H2_4 1_555 1_555
O7_5 Cd8_2 1_555 1_555
H3_5 O7_5 1_555 1_555
H4_5 O7_5 1_555 1_555
C5_5 N2_5 1_555 1_555
C6_5 C3_4 1_555 1_555
C8_5 H6_5 1_555 1_555
C10_5 H8_5 1_555 1_555
C11_5 C8_5 1_555 1_555
C12_5 C3_4 1_555 1_555
C14_5 H9_5 1_555 1_555
C15_5 C6_5 1_555 1_555
C16_5 C14_5 1_555 1_555
H10_4 C16_5 1_555 1_555
C18_5 C36_5 1_555 1_555
C20_5 C10_5 1_555 1_555
H13_4 C20_5 1_555 1_555
C21_5 C6_5 1_555 1_555
H14_5 C21_5 1_555 1_555
C22_5 C14_5 1_555 1_555
C24_5 C12_5 1_555 1_555
C26_5 C8_5 1_555 1_555
H16_5 C26_5 1_555 1_555
C27_5 N2_5 1_555 1_555
H17_5 C27_5 1_555 1_555
C28_5 C5_5 1_555 1_555
H18_5 C28_5 1_555 1_555
C29_5 N5_5 1_555 1_555
C31_4 C12_5 1_555 1_555
H19_5 C31_4 1_555 1_555
C33_5 O2_5 1_555 1_555
C35_4 H20_4 1_555 1_555
C37_5 C18_5 1_555 1_555
H21_5 C37_5 1_555 1_555
C38_5 C24_5 1_555 1_555
H22_5 C38_5 1_555 1_555
C39_4 C35_4 1_555 1_555
C40_4 C21_5 1_555 1_555
C41_5 C22_5 1_555 1_555
H23_5 C41_5 1_555 1_555
C42_5 C18_5 1_555 1_555
H24_5 C42_5 1_555 1_555
C43_5 C28_5 1_555 1_555
H25_5 C43_5 1_555 1_555
C47_5 C37_5 1_555 1_555
H29_5 C47_5 1_555 1_555
C48_5 C29_5 1_555 1_555
H30_5 C48_5 1_555 1_555
C49_5 C22_5 1_555 1_555
C51_5 C43_5 1_555 1_555
H32_5 C51_5 1_555 1_555
O8_5 Cd4_2 1_555 1_555
N7_3 Cd4_2 1_555 1_555
N8_3 Cd8_2 1_555 1_555
N5_5 C27_5 1_555 1_555
C5_5 C29_5 1_555 1_555
C10_5 C11_5 1_555 1_555
C11_5 C33_5 1_555 1_555
C15_5 C20_5 1_555 1_555
C15_5 C26_5 1_555 1_555
C16_5 C24_5 1_555 1_555
C31_4 C40_4 1_555 1_555
C35_4 C42_5 1_555 1_555
C38_5 C41_5 1_555 1_555
C39_4 C40_4 1_555 1_555
C39_4 C47_5 1_555 1_555
C48_5 C51_5 1_555 1_555
O8_5 H36_5 1_555 1_555
O8_5 H37_5 1_555 1_555
N3_5 C9_5 1_555 1_555
N4_3 C9_5 1_555 1_555
C9_5 H7_5 1_555 1_555
C13_5 N4_3 1_555 1_555
C19_5 C4_5 1_555 1_555
H12_5 C19_5 1_555 1_555
C30_5 N3_5 1_555 1_555
C32_5 N3_5 1_555 1_555
C44_5 C13_5 1_555 1_555
H26_5 C44_5 1_555 1_555
C50_5 C32_5 1_555 1_555
H31_5 C50_5 1_555 1_555
C53_5 C44_5 1_555 1_555
H34_4 C53_5 1_555 1_555
C54_4 C50_5 1_555 1_555
H35_4 C54_4 1_555 1_555
Cd8 N4_3 1_555 1_555
C13_5 C32_5 1_555 1_555
C17_5 C30_5 1_555 1_555
C19_5 C30_5 1_555 1_555
C53_5 C54_4 1_555 1_555
N1_3 C7_5 1_555 1_555
C7_5 H5_5 1_555 1_555
C23_5 N1_3 1_555 1_555
Cd5_2 N1_3 1_555 1_555
C7_5 N6_5 1_555 1_555
N1_4 C7_6 1_555 1_555
N3_6 C9_6 1_555 1_555
N8_3 C9_6 1_555 1_555
C7_6 H5_6 1_555 1_555
C9_6 H7_6 1_555 1_555
C13_6 N8_3 1_555 1_555
C19_6 C4_6 1_555 1_555
H12_6 C19_6 1_555 1_555
C23_6 N1_4 1_555 1_555
C30_6 N3_6 1_555 1_555
C32_6 N3_6 1_555 1_555
C44_6 C13_6 1_555 1_555
H26_6 C44_6 1_555 1_555
C50_6 C32_6 1_555 1_555
H31_6 C50_6 1_555 1_555
C53_6 C44_6 1_555 1_555
H34_5 C53_6 1_555 1_555
C54_5 C50_6 1_555 1_555
H35_5 C54_5 1_555 1_555
N6_6 C4_6 1_555 1_555
Cd5 N1_4 1_555 1_555
C7_6 N6_6 1_555 1_555
C13_6 C32_6 1_555 1_555
C17_6 C30_6 1_555 1_555
C19_6 C30_6 1_555 1_555
C53_6 C54_5 1_555 1_555
Cd8 O4_6 1_555 1_555
O10 C36_6 1_555 1_555
O4_6 C36_6 1_555 1_555
N2_6 C2_6 1_555 1_555
N5_6 Cd8 1_555 1_555
O11_3 C49_6 1_555 1_555
C1_6 H1_6 1_555 1_555
O13_3 C49_6 1_555 1_555
C2_6 C1_6 1_555 1_555
O7_6 Cd8 1_555 1_555
H3_6 O7_6 1_555 1_555
H4_6 O7_6 1_555 1_555
C5_6 N2_6 1_555 1_555
C14_6 H9_6 1_555 1_555
C16_6 C14_6 1_555 1_555
C18_6 C36_6 1_555 1_555
C22_6 C14_6 1_555 1_555
C24_6 C12_6 1_555 1_555
C27_6 N2_6 1_555 1_555
H17_6 C27_6 1_555 1_555
C28_6 C5_6 1_555 1_555
H18_6 C28_6 1_555 1_555
C29_6 N5_6 1_555 1_555
C31_5 C12_6 1_555 1_555
H19_6 C31_5 1_555 1_555
C35_5 H20_5 1_555 1_555
C37_6 C18_6 1_555 1_555
H21_6 C37_6 1_555 1_555
C38_6 C24_6 1_555 1_555
H22_6 C38_6 1_555 1_555
C39_5 C35_5 1_555 1_555
C41_6 C22_6 1_555 1_555
H23_6 C41_6 1_555 1_555
C42_6 C18_6 1_555 1_555
H24_6 C42_6 1_555 1_555
C43_6 C28_6 1_555 1_555
H25_6 C43_6 1_555 1_555
C45_4 C34_4 1_555 1_555
H27_4 C45_4 1_555 1_555
C46_4 C25_4 1_555 1_555
H28_4 C46_4 1_555 1_555
C47_6 C37_6 1_555 1_555
H29_6 C47_6 1_555 1_555
C48_6 C29_6 1_555 1_555
H30_6 C48_6 1_555 1_555
C49_6 C22_6 1_555 1_555
C51_6 C43_6 1_555 1_555
H32_6 C51_6 1_555 1_555
C52_4 C45_4 1_555 1_555
H33_4 C52_4 1_555 1_555
N5_6 C27_6 1_555 1_555
C5_6 C29_6 1_555 1_555
C16_6 C24_6 1_555 1_555
C31_5 C40_5 1_555 1_555
C35_5 C42_6 1_555 1_555
C38_6 C41_6 1_555 1_555
C39_5 C40_5 1_555 1_555
C39_5 C47_6 1_555 1_555
C46_4 C52_4 1_555 1_555
C48_6 C51_6 1_555 1_555
O9 C33_6 1_555 1_555
O2_6 Cd4 1_555 1_555
C3_5 H2_5 1_555 1_555
C6_6 C3_5 1_555 1_555
C8_6 H6_6 1_555 1_555
C10_6 H8_6 1_555 1_555
C11_6 C8_6 1_555 1_555
C15_6 C6_6 1_555 1_555
C20_6 C10_6 1_555 1_555
H13_5 C20_6 1_555 1_555
C21_6 C6_6 1_555 1_555
H14_6 C21_6 1_555 1_555
C26_6 C8_6 1_555 1_555
H16_6 C26_6 1_555 1_555
C33_6 O2_6 1_555 1_555
O8_6 Cd4 1_555 1_555
N7_4 Cd4 1_555 1_555
C10_6 C11_6 1_555 1_555
C11_6 C33_6 1_555 1_555
C15_6 C20_6 1_555 1_555
C15_6 C26_6 1_555 1_555
O8_6 H36_6 1_555 1_555
O8_6 H37_6 1_555 1_555
O11_2 C49_7 1_555 1_555
O13_2 C49_7 1_555 1_555
C3_6 H2_6 1_555 1_555
C12_7 C3_6 1_555 1_555
C14_7 H9_7 1_555 1_555
C16_7 C14_7 1_555 1_555
H10_6 C16_7 1_555 1_555
C22_7 C14_7 1_555 1_555
C24_7 C12_7 1_555 1_555
C38_7 C24_7 1_555 1_555
H22_7 C38_7 1_555 1_555
C41_7 C22_7 1_555 1_555
H23_7 C41_7 1_555 1_555
C49_7 C22_7 1_555 1_555
C16_7 C24_7 1_555 1_555
C38_7 C41_7 1_555 1_555
O9_4 C33_7 1_555 1_555
O2_7 Cd5_2 1_555 1_555
C8_7 H6_7 1_555 1_555
C10_7 H8_7 1_555 1_555
C11_7 C8_7 1_555 1_555
C15_7 C6_7 1_555 1_555
C20_7 C10_7 1_555 1_555
C21_7 C6_7 1_555 1_555
H14_7 C21_7 1_555 1_555
C26_7 C8_7 1_555 1_555
H16_7 C26_7 1_555 1_555
C33_7 O2_7 1_555 1_555
C35_6 H20_6 1_555 1_555
C39_6 C35_6 1_555 1_555
C40_6 C21_7 1_555 1_555
H35_6 C54_6 1_555 1_555
O8_7 Cd5_2 1_555 1_555
C10_7 C11_7 1_555 1_555
C11_7 C33_7 1_555 1_555
C15_7 C20_7 1_555 1_555
C15_7 C26_7 1_555 1_555
C31_6 C40_6 1_555 1_555
C39_6 C40_6 1_555 1_555
O8_7 H36_7 1_555 1_555
O8_7 H37_7 1_555 1_555
Cd8_4 O4_7 1_555 1_555
O10_4 C36_7 1_555 1_555
O4_7 C36_7 1_555 1_555
N2_7 C2_7 1_555 1_555
N3_7 C9_7 1_555 1_555
N4_4 C9_7 1_555 1_555
N5_7 Cd8_4 1_555 1_555
C1_7 H1_7 1_555 1_555
C2_7 C1_7 1_555 1_555
O7_7 Cd8_4 1_555 1_555
H3_7 O7_7 1_555 1_555
H4_7 O7_7 1_555 1_555
C4_7 C1_7 1_555 1_555
C5_7 N2_7 1_555 1_555
C9_7 H7_7 1_555 1_555
C13_7 N4_4 1_555 1_555
C17_7 C2_7 1_555 1_555
H11_7 C17_7 1_555 1_555
C18_7 C36_7 1_555 1_555
C19_7 C4_7 1_555 1_555
H12_7 C19_7 1_555 1_555
C27_7 N2_7 1_555 1_555
H17_7 C27_7 1_555 1_555
C28_7 C5_7 1_555 1_555
H18_7 C28_7 1_555 1_555
C29_7 N5_7 1_555 1_555
C30_7 N3_7 1_555 1_555
C32_7 N3_7 1_555 1_555
C37_7 C18_7 1_555 1_555
H21_7 C37_7 1_555 1_555
C42_7 C18_7 1_555 1_555
H24_7 C42_7 1_555 1_555
C43_7 C28_7 1_555 1_555
H25_7 C43_7 1_555 1_555
C44_7 C13_7 1_555 1_555
H26_7 C44_7 1_555 1_555
C47_7 C37_7 1_555 1_555
H29_7 C47_7 1_555 1_555
C48_7 C29_7 1_555 1_555
H30_7 C48_7 1_555 1_555
C50_7 C32_7 1_555 1_555
H31_7 C50_7 1_555 1_555
C51_7 C43_7 1_555 1_555
H32_7 C51_7 1_555 1_555
C53_7 C44_7 1_555 1_555
Cd8_3 N4_4 1_555 1_555
N8_4 Cd8_4 1_555 1_555
N5_7 C27_7 1_555 1_555
C5_7 C29_7 1_555 1_555
C13_7 C32_7 1_555 1_555
C17_7 C30_7 1_555 1_555
C19_7 C30_7 1_555 1_555
C48_7 C51_7 1_555 1_555
N7_3 C7_7 1_555 1_555
C7_7 H5_7 1_555 1_555
C23_7 N7_3 1_555 1_555
C25_5 C23_7 1_555 1_555
H15_7 C25_5 1_555 1_555
C34_5 C23_7 1_555 1_555
C45_5 C34_5 1_555 1_555
H27_5 C45_5 1_555 1_555
C46_5 C25_5 1_555 1_555
H28_5 C46_5 1_555 1_555
C52_5 C45_5 1_555 1_555
H33_5 C52_5 1_555 1_555
C7_7 N6_7 1_555 1_555
C34_5 N6_7 1_555 1_555
C46_5 C52_5 1_555 1_555
O9_3 C33_8 1_555 1_555
O2_8 Cd5 1_555 1_555
C8_8 H6_8 1_555 1_555
C10_8 H8_8 1_555 1_555
C11_8 C8_8 1_555 1_555
C15_8 C6_8 1_555 1_555
C20_8 C10_8 1_555 1_555
C21_8 C6_8 1_555 1_555
H14_8 C21_8 1_555 1_555
C26_8 C8_8 1_555 1_555
H16_8 C26_8 1_555 1_555
C33_8 O2_8 1_555 1_555
O8_8 Cd5 1_555 1_555
C10_8 C11_8 1_555 1_555
C11_8 C33_8 1_555 1_555
C15_8 C20_8 1_555 1_555
C15_8 C26_8 1_555 1_555
O8_8 H36_8 1_555 1_555
O8_8 H37_8 1_555 1_555
Cd8_3 O4_8 1_555 1_555
O10_3 C36_8 1_555 1_555
O4_8 C36_8 1_555 1_555
N7_4 C7_8 1_555 1_555
N2_8 C2_8 1_555 1_555
N3_8 C9_8 1_555 1_555
N8_4 C9_8 1_555 1_555
N5_8 Cd8_3 1_555 1_555
C1_8 H1_8 1_555 1_555
C2_8 C1_8 1_555 1_555
O7_8 Cd8_3 1_555 1_555
H3_8 O7_8 1_555 1_555
H4_8 O7_8 1_555 1_555
C4_8 C1_8 1_555 1_555
C5_8 N2_8 1_555 1_555
C7_8 H5_8 1_555 1_555
C9_8 H7_8 1_555 1_555
C13_8 N8_4 1_555 1_555
C17_8 C2_8 1_555 1_555
H11_8 C17_8 1_555 1_555
C18_8 C36_8 1_555 1_555
C19_8 C4_8 1_555 1_555
H12_8 C19_8 1_555 1_555
C23_8 N7_4 1_555 1_555
C25_6 C23_8 1_555 1_555
H15_8 C25_6 1_555 1_555
C27_8 N2_8 1_555 1_555
H17_8 C27_8 1_555 1_555
C28_8 C5_8 1_555 1_555
H18_8 C28_8 1_555 1_555
C29_8 N5_8 1_555 1_555
C30_8 N3_8 1_555 1_555
C32_8 N3_8 1_555 1_555
C34_6 C23_8 1_555 1_555
C37_8 C18_8 1_555 1_555
H21_8 C37_8 1_555 1_555
C42_8 C18_8 1_555 1_555
H24_8 C42_8 1_555 1_555
C43_8 C28_8 1_555 1_555
H25_8 C43_8 1_555 1_555
C44_8 C13_8 1_555 1_555
H26_8 C44_8 1_555 1_555
C45_6 C34_6 1_555 1_555
H27_6 C45_6 1_555 1_555
C46_6 C25_6 1_555 1_555
H28_6 C46_6 1_555 1_555
C47_8 C37_8 1_555 1_555
H29_8 C47_8 1_555 1_555
C48_8 C29_8 1_555 1_555
H30_8 C48_8 1_555 1_555
C50_8 C32_8 1_555 1_555
H31_8 C50_8 1_555 1_555
C51_8 C43_8 1_555 1_555
H32_8 C51_8 1_555 1_555
C52_6 C45_6 1_555 1_555
H33_6 C52_6 1_555 1_555
C53_8 C44_8 1_555 1_555
N6_8 C4_8 1_555 1_555
N5_8 C27_8 1_555 1_555
C5_8 C29_8 1_555 1_555
C7_8 N6_8 1_555 1_555
C13_8 C32_8 1_555 1_555
C17_8 C30_8 1_555 1_555
C19_8 C30_8 1_555 1_555
C34_6 N6_8 1_555 1_555
C46_6 C52_6 1_555 1_555
C48_8 C51_8 1_555 1_555
O11 C49_8 1_555 1_555
O13 C49_8 1_555 1_555
C14_8 H9_8 1_555 1_555
C16_8 C14_8 1_555 1_555
C22_8 C14_8 1_555 1_555
C24_8 C12_8 1_555 1_555
C38_8 C24_8 1_555 1_555
H22_8 C38_8 1_555 1_555
C41_8 C22_8 1_555 1_555
H23_8 C41_8 1_555 1_555
C49_8 C22_8 1_555 1_555
C16_8 C24_8 1_555 1_555
C38_8 C41_8 1_555 1_555
C45_7 C34_7 1_555 1_555
H27_7 C45_7 1_555 1_555
C46_7 C25_7 1_555 1_555
H28_7 C46_7 1_555 1_555
C52_7 C45_7 1_555 1_555
H33_7 C52_7 1_555 1_555
C46_7 C52_7 1_555 1_555
C3_7 H2_7 1_555 1_555
C35_7 H20_7 1_555 1_555
C39_7 C35_7 1_555 1_555
H35_7 C54_7 1_555 1_555
C31_7 C40_7 1_555 1_555
C39_7 C40_7 1_555 1_555
C45_8 C34_8 1_555 1_555
H27_8 C45_8 1_555 1_555
C46_8 C25_8 1_555 1_555
H28_8 C46_8 1_555 1_555
C52_8 C45_8 1_555 1_555
H33_8 C52_8 1_555 1_555
C46_8 C52_8 1_555 1_555
C35_8 H20_8 1_555 1_555
C39_8 C35_8 1_555 1_555
H35_8 C54_8 1_555 1_555
C31_8 C40_8 1_555 1_555
C39_8 C40_8 1_555 1_555
C3_8 H2_8 1_555 1_555

#END
