
###############################################################################
#
# This file contains modified crystal structure data generated from the
# MOF subset of the Cambridge Structural Database (CSD) v543 
# hosted by the Cambridge Crystallographic Data Centre (CCDC).
#
# This work is licensed under the Creative Commons
# Attribution-NonCommercial-ShareAlike 4.0 International License.
# To view a copy of this license, visit
# http://creativecommons.org/licenses/by-nc-sa/4.0/
# or send a letter to
# Creative Commons, PO Box 1866, Mountain View, CA 94042, USA.
#
# CIF created using the CSD Python API on 29 September 2022
# The structure has been converted into the P1 space group
# The structure has a 3D framework
# The original CSD entry ONIVUF is in the monoclinic crystal system
# The framework has been calculated to contain at least 10.0% void space
# The void calculation uses a probe of radius 1.32A, grid spacing 0.4
# The framework is charged, counterions have been retained in the structure
# H atom positions have been added when not included in the experimental data
#
###############################################################################

data_ONIVUF
_chemical_formula_moiety         '(C432 H296 Cd16 I32 N48 O64 4-)n'
_symmetry_cell_setting           triclinic
_symmetry_space_group_name_H-M   'P 1'
_symmetry_Int_Tables_number      1
_space_group_name_Hall           'P 1'
loop_
_symmetry_equiv_pos_site_id
_symmetry_equiv_pos_as_xyz
1 x,y,z
_cell_length_a                   22.410(4)
_cell_length_b                   23.694(4)
_cell_length_c                   24.801(4)
_cell_angle_alpha                90
_cell_angle_beta                 94.073(5)
_cell_angle_gamma                90
_cell_volume                     13135.6
loop_
_atom_site_label
_atom_site_type_symbol
_atom_site_fract_x
_atom_site_fract_y
_atom_site_fract_z
N2 N 0.5715(6) 0.2916(6) 0.1137(5)
N4 N 0.5211(6) 0.3110(6) 0.0349(6)
C10 C 0.5746(8) 0.2927(8) 0.0599(7)
H5 H 0.608117 0.282705 0.041946
C38 C 0.5152(9) 0.3113(8) 0.1241(7)
C41 C 0.4898(10) 0.3182(9) 0.1714(8)
H22 H 0.511498 0.311772 0.204214
C46 C 0.4825(9) 0.3238(9) 0.0762(8)
C48 C 0.4238(9) 0.3438(10) 0.0714(8)
H27 H 0.402035 0.348302 0.038378
C51 C 0.4303(10) 0.3351(13) 0.1696(8)
H30 H 0.408704 0.333520 0.200284
C52 C 0.4024(12) 0.3556(12) 0.1177(9)
H31 H 0.368277 0.377885 0.117837
Cd5 Cd 0.64603(5) 0.25614(5) 0.17119(4)
Cd1 Cd 0.14603(5) 0.24386(5) 0.67119(4)
Cd2 Cd 0.25524(5) 0.32973(6) 0.74056(4)
O1 O 0.1826(5) 0.3858(5) 0.7047(5)
O2 O 0.1787(5) 0.7237(5) 0.2671(4)
O3 O 0.0852(6) 0.7259(6) 0.2337(5)
O4 O 0.1516(8) 0.3323(7) 0.6356(6)
N1 N 0.3999(6) 0.2885(7) 0.8642(6)
N3 N 0.6009(7) 0.3679(7) 0.8652(6)
N5 N 0.3230(7) 0.2937(7) 0.8047(6)
O6 O 0.2429(7) 0.4045(7) 0.8068(6)
N6 N 0.6703(7) 0.3707(7) 0.8086(6)
C1 C 0.3668(7) 0.2390(7) 0.8724(6)
C2 C 0.4604(7) 0.2996(8) 0.9499(6)
H1 H 0.429118 0.285516 0.968590
C3 C 0.3717(7) 0.3180(7) 0.8239(6)
H2 H 0.385598 0.352092 0.811145
C4 C 0.0379(7) 0.6340(7) 0.4725(6)
C6 C 0.0636(7) 0.5887(7) 0.4989(6)
H4 H 0.093856 0.569459 0.482776
C7 C 0.4559(7) 0.3042(8) 0.8952(6)
C8 C 0.0594(8) 0.6537(8) 0.4205(6)
C9 C 0.1007(7) 0.6929(7) 0.3227(6)
C11 C 0.5010(8) 0.3277(8) 0.8662(7)
H6 H 0.496097 0.332674 0.828956
C12 C 0.0409(7) 0.6824(8) 0.3263(7)
H7 H 0.014290 0.687795 0.296182
C14 C 0.5530(7) 0.3433(7) 0.8951(6)
C15 C 0.1214(7) 0.7151(7) 0.2714(6)
C16 C 0.1553(8) 0.3778(8) 0.6591(6)
C17 C 0.5151(7) 0.3173(7) 0.9772(6)
C19 C 0.1199(8) 0.6641(8) 0.4155(6)
H10 H 0.147086 0.657760 0.445045
C20 C 0.3150(8) 0.2429(8) 0.8345(7)
C21 C 0.3297(10) 0.1513(9) 0.9024(9)
H11 H 0.333291 0.119469 0.924373
C22 C 0.3748(8) 0.1942(8) 0.9065(8)
H12 H 0.407819 0.191616 0.931287
C23 C 0.5595(7) 0.3406(7) 0.9493(6)
H13 H 0.593986 0.354580 0.967717
C26 C 0.1274(9) 0.4325(8) 0.6304(7)
C29 C 0.1118(8) 0.4277(9) 0.5770(8)
H16 H 0.119044 0.394365 0.558784
C30 C 0.0916(8) 0.5245(8) 0.6328(7)
H17 H 0.084752 0.557308 0.651991
C32 C 0.0198(8) 0.6637(7) 0.3748(6)
C33 C 0.6252(8) 0.3440(8) 0.8238(7)
H19 H 0.610648 0.310990 0.807392
C35 C 0.0470(7) 0.5700(7) 0.5484(6)
C36 C 0.0751(7) 0.5216(7) 0.5772(6)
C39 C 0.2809(8) 0.1574(8) 0.8657(9)
H21 H 0.252454 0.128760 0.863321
C40 C 0.6341(8) 0.4151(9) 0.8792(8)
C42 C 0.0854(8) 0.4726(8) 0.5499(8)
H23 H 0.074355 0.469808 0.513101
C43 C 0.2723(9) 0.2031(9) 0.8327(8)
H24 H 0.237813 0.206576 0.809735
C44 C 0.6792(8) 0.4184(9) 0.8445(7)
C45 C 0.7239(11) 0.4595(10) 0.8490(9)
H25 H 0.754203 0.461003 0.825281
C47 C 0.7207(11) 0.4986(10) 0.8913(13)
H26 H 0.748564 0.527694 0.894230
C49 C 0.6327(11) 0.4517(10) 0.9249(10)
H28 H 0.604713 0.447947 0.950646
C50 C 0.6792(11) 0.4959(11) 0.9279(11)
H29 H 0.679853 0.522461 0.955542
O8 O 0.1616(8) 0.1516(8) 0.7057(6)
C53 C 0.1178(8) 0.4786(8) 0.6589(7)
H32 H 0.128517 0.479851 0.695833
C54 C 0.1409(7) 0.6840(7) 0.3670(6)
H33 H 0.181418 0.691098 0.364631
Cd4 Cd 0.14603(5) 0.75614(5) 0.17119(4)
Cd6 Cd 0.74476(5) 0.32973(6) 0.75944(4)
Cd8 Cd 0.25524(5) 0.67027(6) 0.24056(4)
O9 O 0.1787(5) 0.2763(5) 0.7671(4)
O10 O 0.0852(6) 0.2741(6) 0.7337(5)
N7 N 0.0715(6) 0.2084(6) 0.6137(5)
O11 O 0.2122(6) 0.2252(6) 0.6044(5)
O12 O 0.2615(6) 0.2519(6) 0.6814(6)
N8 N 0.3297(7) 0.3707(7) 0.6914(6)
H34 H 0.201371 0.403736 0.818331
H35 H 0.271519 0.398447 0.838708
H36 H 0.190932 0.152853 0.737628
H37 H 0.123108 0.136015 0.716564
O5 O 0.7122(6) 0.7252(6) 0.6044(5)
O7 O 0.7615(6) 0.7519(6) 0.6814(6)
C5 C 0.8204(8) 0.7118(8) 0.5546(7)
H3 H 0.787494 0.721858 0.531719
C13 C 0.9165(8) 0.6803(9) 0.6224(7)
H8 H 0.949471 0.670285 0.645242
C18 C 0.8703(7) 0.6919(7) 0.5339(6)
H9 H 0.871538 0.689984 0.496537
C24 C 0.9190(7) 0.6743(7) 0.5657(6)
C25 C 0.9991(7) 0.5989(8) 0.5723(7)
H14 H 0.986667 0.588044 0.605769
C27 C 0.8182(8) 0.7172(8) 0.6100(6)
C28 C 0.9903(7) 0.6603(7) 0.4917(6)
H15 H 0.970180 0.688329 0.471478
C31 C 0.9712(8) 0.6447(8) 0.5430(7)
H18 H 0.979019 0.657674 0.376921
C34 C 0.8678(8) 0.7000(9) 0.6433(6)
H20 H 0.866713 0.702491 0.680637
C37 C 0.7590(8) 0.7346(9) 0.6329(8)
Cd3 Cd 0.64603(5) 0.74386(5) 0.67119(4)
Cd7 Cd 0.75524(5) 0.82973(6) 0.74056(4)
O5_2 O 0.2878(6) 0.7252(6) 0.8956(5)
O7_2 O 0.2385(6) 0.7519(6) 0.8186(6)
C5_2 C 0.1796(8) 0.7118(8) 0.9454(7)
H3_2 H 0.212506 0.721858 0.968281
C13_2 C 0.0835(8) 0.6803(9) 0.8776(7)
H8_2 H 0.050529 0.670285 0.854758
C18_2 C 0.1297(7) 0.6919(7) 0.9661(6)
C24_2 C 0.0810(7) 0.6743(7) 0.9343(6)
C25_2 C 0.0009(7) 0.5989(8) 0.9277(7)
H14_2 H 0.013333 0.588044 0.894231
C27_2 C 0.1818(8) 0.7172(8) 0.8900(6)
C31_2 C 0.0288(8) 0.6447(8) 0.9570(7)
C34_2 C 0.1322(8) 0.7000(9) 0.8567(6)
H20_2 H 0.133287 0.702491 0.819363
C37_2 C 0.2410(8) 0.7346(9) 0.8671(8)
Cd3_2 Cd 0.35397(5) 0.74386(5) 0.82881(4)
Cd7_2 Cd 0.24476(5) 0.82973(6) 0.75944(4)
O2_2 O 0.8213(5) 0.7237(5) 0.2329(4)
O3_2 O 0.9148(6) 0.7259(6) 0.2663(5)
C4_2 C 0.9621(7) 0.6340(7) 0.0275(6)
C6_2 C 0.9364(7) 0.5887(7) 0.0011(6)
H4_2 H 0.906144 0.569459 0.017224
C8_2 C 0.9406(8) 0.6537(8) 0.0795(6)
C9_2 C 0.8993(7) 0.6929(7) 0.1773(6)
C12_2 C 0.9591(7) 0.6824(8) 0.1737(7)
H7_2 H 0.985710 0.687795 0.203818
C15_2 C 0.8786(7) 0.7151(7) 0.2286(6)
C19_2 C 0.8801(8) 0.6641(8) 0.0845(6)
H10_2 H 0.852914 0.657760 0.054955
C32_2 C 0.9802(8) 0.6637(7) 0.1252(6)
C54_2 C 0.8591(7) 0.6840(7) 0.1330(6)
H33_2 H 0.818582 0.691098 0.135369
Cd4_2 Cd 0.85397(5) 0.75614(5) 0.32881(4)
Cd8_2 Cd 0.74476(5) 0.67027(6) 0.25944(4)
Cd1_2 Cd 0.85397(5) 0.24386(5) 0.82881(4)
O1_2 O 0.8174(5) 0.3858(5) 0.7953(5)
O4_2 O 0.8484(8) 0.3323(7) 0.8644(6)
N1_2 N 0.6001(6) 0.2885(7) 0.6358(6)
N2_2 N 0.4285(6) 0.2916(6) 0.3863(5)
N3_2 N 0.3991(7) 0.3679(7) 0.6348(6)
N4_2 N 0.4789(6) 0.3110(6) 0.4651(6)
N5_2 N 0.6770(7) 0.2937(7) 0.6953(6)
O6_2 O 0.7571(7) 0.4045(7) 0.6932(6)
C1_2 C 0.6332(7) 0.2390(7) 0.6276(6)
C2_2 C 0.5396(7) 0.2996(8) 0.5501(6)
H1_2 H 0.570882 0.285516 0.531410
C3_2 C 0.6283(7) 0.3180(7) 0.6761(6)
H2_2 H 0.614402 0.352092 0.688855
C7_2 C 0.5441(7) 0.3042(8) 0.6048(6)
C10_2 C 0.4254(8) 0.2927(8) 0.4401(7)
H5_2 H 0.391883 0.282705 0.458054
C11_2 C 0.4990(8) 0.3277(8) 0.6338(7)
H6_2 H 0.503903 0.332674 0.671044
C14_2 C 0.4470(7) 0.3433(7) 0.6049(6)
C16_2 C 0.8447(8) 0.3778(8) 0.8409(6)
C17_2 C 0.4849(7) 0.3173(7) 0.5228(6)
C20_2 C 0.6850(8) 0.2429(8) 0.6655(7)
C21_2 C 0.6703(10) 0.1513(9) 0.5976(9)
H11_2 H 0.666709 0.119469 0.575627
C22_2 C 0.6252(8) 0.1942(8) 0.5935(8)
H12_2 H 0.592181 0.191616 0.568713
C23_2 C 0.4405(7) 0.3406(7) 0.5507(6)
H13_2 H 0.406014 0.354580 0.532283
C26_2 C 0.8726(9) 0.4325(8) 0.8696(7)
C29_2 C 0.8882(8) 0.4277(9) 0.9230(8)
H16_2 H 0.880956 0.394365 0.941216
C30_2 C 0.9084(8) 0.5245(8) 0.8672(7)
H17_2 H 0.915248 0.557308 0.848009
C33_2 C 0.3748(8) 0.3440(8) 0.6762(7)
H19_2 H 0.389352 0.310990 0.692608
C35_2 C 0.9530(7) 0.5700(7) 0.9516(6)
C36_2 C 0.9249(7) 0.5216(7) 0.9228(6)
C38_2 C 0.4848(9) 0.3113(8) 0.3759(7)
C39_2 C 0.7191(8) 0.1574(8) 0.6343(9)
H21_2 H 0.747546 0.128760 0.636679
C40_2 C 0.3659(8) 0.4151(9) 0.6208(8)
C41_2 C 0.5102(10) 0.3182(9) 0.3286(8)
H22_2 H 0.488502 0.311772 0.295786
C42_2 C 0.9146(8) 0.4726(8) 0.9501(8)
H23_2 H 0.925645 0.469808 0.986899
C43_2 C 0.7277(9) 0.2031(9) 0.6673(8)
H24_2 H 0.762187 0.206576 0.690265
C44_2 C 0.3208(8) 0.4184(9) 0.6555(7)
C45_2 C 0.2761(11) 0.4595(10) 0.6510(9)
H25_2 H 0.245797 0.461003 0.674719
C46_2 C 0.5175(9) 0.3238(9) 0.4238(8)
C47_2 C 0.2793(11) 0.4986(10) 0.6087(13)
H26_2 H 0.251436 0.527694 0.605770
C48_2 C 0.5762(9) 0.3438(10) 0.4286(8)
H27_2 H 0.597965 0.348302 0.461622
C49_2 C 0.3673(11) 0.4517(10) 0.5751(10)
H28_2 H 0.395287 0.447947 0.549354
C50_2 C 0.3208(11) 0.4959(11) 0.5721(11)
H29_2 H 0.320147 0.522461 0.544458
C51_2 C 0.5697(10) 0.3351(13) 0.3304(8)
H30_2 H 0.591296 0.333520 0.299716
C52_2 C 0.5976(12) 0.3556(12) 0.3823(9)
H31_2 H 0.631723 0.377885 0.382163
O8_2 O 0.8384(8) 0.1516(8) 0.7943(6)
C53_2 C 0.8822(8) 0.4786(8) 0.8411(7)
H32_2 H 0.871483 0.479851 0.804167
Cd5_2 Cd 0.35397(5) 0.25614(5) 0.32881(4)
O9_2 O 0.8213(5) 0.2763(5) 0.7329(4)
O10_2 O 0.9148(6) 0.2741(6) 0.7663(5)
N7_2 N 0.9285(6) 0.2084(6) 0.8863(5)
O11_2 O 0.7878(6) 0.2252(6) 0.8956(5)
O12_2 O 0.7385(6) 0.2519(6) 0.8186(6)
H34_2 H 0.798629 0.403736 0.681669
H35_2 H 0.728481 0.398447 0.661292
H36_2 H 0.809068 0.152853 0.762372
H37_2 H 0.876892 0.136015 0.783436
N2_3 N 0.0715(6) 0.7916(6) 0.1137(5)
N4_3 N 0.0211(6) 0.8110(6) 0.0349(6)
C10_3 C 0.0746(8) 0.7927(8) 0.0599(7)
H5_3 H 0.108117 0.782705 0.041946
C38_3 C 0.0152(9) 0.8113(8) 0.1241(7)
H22_3 H 0.011498 0.811772 0.204214
N3_3 N 0.1009(7) 0.8679(7) 0.8652(6)
N6_2 N 0.1703(7) 0.8707(7) 0.8086(6)
C11_3 C 0.0010(8) 0.8277(8) 0.8662(7)
C14_3 C 0.0530(7) 0.8433(7) 0.8951(6)
C17_3 C 0.0151(7) 0.8173(7) 0.9772(6)
C23_3 C 0.0595(7) 0.8406(7) 0.9493(6)
H13_3 H 0.093986 0.854580 0.967717
C33_3 C 0.1252(8) 0.8440(8) 0.8238(7)
H19_3 H 0.110648 0.810990 0.807392
C40_3 C 0.1341(8) 0.9151(9) 0.8792(8)
C44_3 C 0.1792(8) 0.9184(9) 0.8445(7)
C45_3 C 0.2239(11) 0.9595(10) 0.8490(9)
H25_3 H 0.254203 0.961003 0.825281
C47_3 C 0.2207(11) 0.9986(10) 0.8913(13)
C49_3 C 0.1327(11) 0.9517(10) 0.9249(10)
H28_3 H 0.104713 0.947947 0.950646
C50_3 C 0.1792(11) 0.9959(11) 0.9279(11)
O2_3 O 0.6787(5) 0.2237(5) 0.2671(4)
O3_3 O 0.5852(6) 0.2259(6) 0.2337(5)
C4_3 C 0.5379(7) 0.1340(7) 0.4725(6)
C5_3 C 0.3204(8) 0.2118(8) 0.5546(7)
H3_3 H 0.287494 0.221858 0.531719
C6_3 C 0.5636(7) 0.0887(7) 0.4989(6)
H4_3 H 0.593856 0.069459 0.482776
C8_3 C 0.5594(8) 0.1537(8) 0.4205(6)
C9_3 C 0.6007(7) 0.1929(7) 0.3227(6)
C12_3 C 0.5409(7) 0.1824(8) 0.3263(7)
H7_3 H 0.514290 0.187795 0.296182
C13_3 C 0.4165(8) 0.1803(9) 0.6224(7)
H8_3 H 0.449471 0.170285 0.645242
C15_3 C 0.6214(7) 0.2151(7) 0.2714(6)
C18_3 C 0.3703(7) 0.1919(7) 0.5339(6)
H9_2 H 0.371538 0.189984 0.496537
C19_3 C 0.6199(8) 0.1641(8) 0.4155(6)
H10_3 H 0.647086 0.157760 0.445045
C24_3 C 0.4190(7) 0.1743(7) 0.5657(6)
C25_3 C 0.4991(7) 0.0989(8) 0.5723(7)
H14_3 H 0.486667 0.088044 0.605769
C27_3 C 0.3182(8) 0.2172(8) 0.6100(6)
C28_2 C 0.4903(7) 0.1603(7) 0.4917(6)
H15_2 H 0.470180 0.188329 0.471478
C30_3 C 0.5916(8) 0.0245(8) 0.6328(7)
H17_3 H 0.584752 0.057308 0.651991
C31_3 C 0.4712(8) 0.1447(8) 0.5430(7)
C32_3 C 0.5198(8) 0.1637(7) 0.3748(6)
H18_2 H 0.479019 0.157674 0.376921
C34_3 C 0.3678(8) 0.2000(9) 0.6433(6)
H20_3 H 0.366713 0.202491 0.680637
C35_3 C 0.5470(7) 0.0700(7) 0.5484(6)
C36_3 C 0.5751(7) 0.0216(7) 0.5772(6)
C37_3 C 0.2590(8) 0.2346(9) 0.6329(8)
C54_3 C 0.6409(7) 0.1840(7) 0.3670(6)
H33_3 H 0.681418 0.191098 0.364631
Cd8_3 Cd 0.75524(5) 0.17027(6) 0.24056(4)
O1_3 O 0.6826(5) 0.8858(5) 0.7047(5)
O4_3 O 0.6516(8) 0.8323(7) 0.6356(6)
N1_3 N 0.8999(6) 0.7885(7) 0.8642(6)
N5_3 N 0.8230(7) 0.7937(7) 0.8047(6)
O6_3 O 0.7429(7) 0.9045(7) 0.8068(6)
C1_3 C 0.8668(7) 0.7390(7) 0.8724(6)
C2_3 C 0.9604(7) 0.7996(8) 0.9499(6)
H1_3 H 0.929118 0.785516 0.968590
C3_3 C 0.8717(7) 0.8180(7) 0.8239(6)
H2_3 H 0.885598 0.852092 0.811145
C7_3 C 0.9559(7) 0.8042(8) 0.8952(6)
H6_3 H 0.996097 0.832674 0.828956
C16_3 C 0.6553(8) 0.8778(8) 0.6591(6)
C20_3 C 0.8150(8) 0.7429(8) 0.8345(7)
C21_3 C 0.8297(10) 0.6513(9) 0.9024(9)
H11_3 H 0.833291 0.619469 0.924373
C22_3 C 0.8748(8) 0.6942(8) 0.9065(8)
H12_3 H 0.907819 0.691616 0.931287
C26_3 C 0.6274(9) 0.9325(8) 0.6304(7)
C29_3 C 0.6118(8) 0.9277(9) 0.5770(8)
H16_3 H 0.619044 0.894365 0.558784
C39_3 C 0.7809(8) 0.6574(8) 0.8657(9)
H21_3 H 0.752454 0.628760 0.863321
C42_3 C 0.5854(8) 0.9726(8) 0.5499(8)
H23_3 H 0.574355 0.969808 0.513101
C43_3 C 0.7723(9) 0.7031(9) 0.8327(8)
H24_3 H 0.737813 0.706576 0.809735
O8_3 O 0.6616(8) 0.6516(8) 0.7057(6)
C53_3 C 0.6178(8) 0.9786(8) 0.6589(7)
H32_3 H 0.628517 0.979851 0.695833
O9_3 O 0.6787(5) 0.7763(5) 0.7671(4)
O10_3 O 0.5852(6) 0.7741(6) 0.7337(5)
N7_3 N 0.5715(6) 0.7084(6) 0.6137(5)
N8_2 N 0.8297(7) 0.8707(7) 0.6914(6)
H34_3 H 0.701371 0.903736 0.818331
H35_3 H 0.771519 0.898447 0.838708
H36_3 H 0.690932 0.652853 0.737628
H37_3 H 0.623108 0.636015 0.716564
O2_4 O 0.3213(5) 0.2237(5) 0.2329(4)
O3_4 O 0.4148(6) 0.2259(6) 0.2663(5)
C4_4 C 0.4621(7) 0.1340(7) 0.0275(6)
C6_4 C 0.4364(7) 0.0887(7) 0.0011(6)
H4_4 H 0.406144 0.069459 0.017224
C8_4 C 0.4406(8) 0.1537(8) 0.0795(6)
C9_4 C 0.3993(7) 0.1929(7) 0.1773(6)
C12_4 C 0.4591(7) 0.1824(8) 0.1737(7)
H7_4 H 0.485710 0.187795 0.203818
C15_4 C 0.3786(7) 0.2151(7) 0.2286(6)
H9_3 H 0.628462 0.189984 0.003463
C19_4 C 0.3801(8) 0.1641(8) 0.0845(6)
H10_4 H 0.352914 0.157760 0.054955
C28_3 C 0.5097(7) 0.1603(7) 0.0083(6)
H15_3 H 0.529820 0.188329 0.028522
C32_4 C 0.4802(8) 0.1637(7) 0.1252(6)
H18_3 H 0.520981 0.157674 0.123079
C54_4 C 0.3591(7) 0.1840(7) 0.1330(6)
H33_4 H 0.318582 0.191098 0.135369
Cd8_4 Cd 0.24476(5) 0.17027(6) 0.25944(4)
C5_4 C 0.6796(8) 0.2118(8) 0.9454(7)
H3_4 H 0.712506 0.221858 0.968281
C13_4 C 0.5835(8) 0.1803(9) 0.8776(7)
H8_4 H 0.550529 0.170285 0.854758
C18_4 C 0.6297(7) 0.1919(7) 0.9661(6)
C24_4 C 0.5810(7) 0.1743(7) 0.9343(6)
C25_4 C 0.5009(7) 0.0989(8) 0.9277(7)
H14_4 H 0.513333 0.088044 0.894231
C27_4 C 0.6818(8) 0.2172(8) 0.8900(6)
C30_4 C 0.4084(8) 0.0245(8) 0.8672(7)
H17_4 H 0.415248 0.057308 0.848009
C31_4 C 0.5288(8) 0.1447(8) 0.9570(7)
C34_4 C 0.6322(8) 0.2000(9) 0.8567(6)
H20_4 H 0.633287 0.202491 0.819363
C35_4 C 0.4530(7) 0.0700(7) 0.9516(6)
C36_4 C 0.4249(7) 0.0216(7) 0.9228(6)
C37_4 C 0.7410(8) 0.2346(9) 0.8671(8)
O1_4 O 0.3174(5) 0.8858(5) 0.7953(5)
O4_4 O 0.3484(8) 0.8323(7) 0.8644(6)
N1_4 N 0.1001(6) 0.7885(7) 0.6358(6)
N5_4 N 0.1770(7) 0.7937(7) 0.6953(6)
O6_4 O 0.2571(7) 0.9045(7) 0.6932(6)
C1_4 C 0.1332(7) 0.7390(7) 0.6276(6)
C2_4 C 0.0396(7) 0.7996(8) 0.5501(6)
H1_4 H 0.070882 0.785516 0.531410
C3_4 C 0.1283(7) 0.8180(7) 0.6761(6)
H2_4 H 0.114402 0.852092 0.688855
C7_4 C 0.0441(7) 0.8042(8) 0.6048(6)
H6_4 H 0.003903 0.832674 0.671044
C16_4 C 0.3447(8) 0.8778(8) 0.8409(6)
C20_4 C 0.1850(8) 0.7429(8) 0.6655(7)
C21_4 C 0.1703(10) 0.6513(9) 0.5976(9)
H11_4 H 0.166709 0.619469 0.575627
C22_4 C 0.1252(8) 0.6942(8) 0.5935(8)
H12_4 H 0.092181 0.691616 0.568713
C26_4 C 0.3726(9) 0.9325(8) 0.8696(7)
C29_4 C 0.3882(8) 0.9277(9) 0.9230(8)
H16_4 H 0.380956 0.894365 0.941216
C39_4 C 0.2191(8) 0.6574(8) 0.6343(9)
H21_4 H 0.247546 0.628760 0.636679
C41_3 C 0.0102(10) 0.8182(9) 0.3286(8)
C42_4 C 0.4146(8) 0.9726(8) 0.9501(8)
H23_4 H 0.425645 0.969808 0.986899
C43_4 C 0.2277(9) 0.7031(9) 0.6673(8)
H24_4 H 0.262187 0.706576 0.690265
C46_3 C 0.0175(9) 0.8238(9) 0.4238(8)
C48_3 C 0.0762(9) 0.8438(10) 0.4286(8)
H27_3 H 0.097965 0.848302 0.461622
C51_3 C 0.0697(10) 0.8351(13) 0.3304(8)
H30_3 H 0.091296 0.833520 0.299716
C52_3 C 0.0976(12) 0.8556(12) 0.3823(9)
H31_3 H 0.131723 0.877885 0.382163
O8_4 O 0.3384(8) 0.6516(8) 0.7943(6)
C53_4 C 0.3822(8) 0.9786(8) 0.8411(7)
H32_4 H 0.371483 0.979851 0.804167
O9_4 O 0.3213(5) 0.7763(5) 0.7329(4)
O10_4 O 0.4148(6) 0.7741(6) 0.7663(5)
N7_4 N 0.4285(6) 0.7084(6) 0.8863(5)
H34_4 H 0.298629 0.903736 0.681669
H35_4 H 0.228481 0.898447 0.661292
H36_4 H 0.309068 0.652853 0.762372
H37_4 H 0.376892 0.636015 0.783436
N2_4 N 0.9285(6) 0.7916(6) 0.3863(5)
N3_4 N 0.8991(7) 0.8679(7) 0.6348(6)
N4_4 N 0.9789(6) 0.8110(6) 0.4651(6)
C10_4 C 0.9254(8) 0.7927(8) 0.4401(7)
H5_4 H 0.891883 0.782705 0.458054
C11_4 C 0.9990(8) 0.8277(8) 0.6338(7)
C14_4 C 0.9470(7) 0.8433(7) 0.6049(6)
C17_4 C 0.9849(7) 0.8173(7) 0.5228(6)
C23_4 C 0.9405(7) 0.8406(7) 0.5507(6)
H13_4 H 0.906014 0.854580 0.532283
C33_4 C 0.8748(8) 0.8440(8) 0.6762(7)
H19_4 H 0.889352 0.810990 0.692608
C38_4 C 0.9848(9) 0.8113(8) 0.3759(7)
C40_4 C 0.8659(8) 0.9151(9) 0.6208(8)
H22_4 H 0.988502 0.811772 0.295786
C44_4 C 0.8208(8) 0.9184(9) 0.6555(7)
C45_4 C 0.7761(11) 0.9595(10) 0.6510(9)
H25_4 H 0.745797 0.961003 0.674719
C47_4 C 0.7793(11) 0.9986(10) 0.6087(13)
C49_4 C 0.8673(11) 0.9517(10) 0.5751(10)
H28_4 H 0.895287 0.947947 0.549354
C50_4 C 0.8208(11) 0.9959(11) 0.5721(11)
O5_3 O 0.2878(6) 0.2748(6) 0.3956(5)
O7_3 O 0.2385(6) 0.2481(6) 0.3186(6)
C5_5 C 0.1796(8) 0.2882(8) 0.4454(7)
H3_5 H 0.212506 0.278142 0.468281
C13_5 C 0.0835(8) 0.3197(9) 0.3776(7)
H8_5 H 0.050529 0.329715 0.354758
C18_5 C 0.1297(7) 0.3081(7) 0.4661(6)
H9_4 H 0.128462 0.310016 0.503463
C24_5 C 0.0810(7) 0.3257(7) 0.4343(6)
C25_5 C 0.0009(7) 0.4011(8) 0.4277(7)
H14_5 H 0.013333 0.411956 0.394231
C27_5 C 0.1818(8) 0.2828(8) 0.3900(6)
C28_4 C 0.0097(7) 0.3397(7) 0.5083(6)
H15_4 H 0.029820 0.311671 0.528522
C31_5 C 0.0288(8) 0.3553(8) 0.4570(7)
H18_4 H 0.020981 0.342326 0.623079
C34_5 C 0.1322(8) 0.3000(9) 0.3567(6)
H20_5 H 0.133287 0.297509 0.319363
C37_5 C 0.2410(8) 0.2654(9) 0.3671(8)
O1_5 O 0.8174(5) 0.6142(5) 0.2953(5)
O4_5 O 0.8484(8) 0.6677(7) 0.3644(6)
N1_5 N 0.6001(6) 0.7115(7) 0.1358(6)
N3_5 N 0.3991(7) 0.6321(7) 0.1348(6)
N5_5 N 0.6770(7) 0.7063(7) 0.1953(6)
O6_5 O 0.7571(7) 0.5955(7) 0.1932(6)
N6_3 N 0.3297(7) 0.6293(7) 0.1914(6)
C1_5 C 0.6332(7) 0.7610(7) 0.1276(6)
C2_5 C 0.5396(7) 0.7004(8) 0.0501(6)
H1_5 H 0.570882 0.714484 0.031410
C3_5 C 0.6283(7) 0.6820(7) 0.1761(6)
H2_5 H 0.614402 0.647908 0.188855
C4_5 C 0.9621(7) 0.3660(7) 0.5275(6)
C6_5 C 0.9364(7) 0.4113(7) 0.5011(6)
H4_5 H 0.906144 0.430541 0.517224
C7_5 C 0.5441(7) 0.6958(8) 0.1048(6)
C8_5 C 0.9406(8) 0.3463(8) 0.5795(6)
C9_5 C 0.8993(7) 0.3071(7) 0.6773(6)
C11_5 C 0.4990(8) 0.6723(8) 0.1338(7)
H6_5 H 0.503903 0.667326 0.171044
C12_5 C 0.9591(7) 0.3176(8) 0.6737(7)
H7_5 H 0.985710 0.312205 0.703818
C14_5 C 0.4470(7) 0.6567(7) 0.1049(6)
C15_5 C 0.8786(7) 0.2849(7) 0.7286(6)
C16_5 C 0.8447(8) 0.6222(8) 0.3409(6)
C17_5 C 0.4849(7) 0.6827(7) 0.0228(6)
C19_5 C 0.8801(8) 0.3359(8) 0.5845(6)
H10_5 H 0.852914 0.342240 0.554955
C20_5 C 0.6850(8) 0.7571(8) 0.1655(7)
C21_5 C 0.6703(10) 0.8487(9) 0.0976(9)
H11_5 H 0.666709 0.880531 0.075627
C22_5 C 0.6252(8) 0.8058(8) 0.0935(8)
H12_5 H 0.592181 0.808384 0.068713
C23_5 C 0.4405(7) 0.6594(7) 0.0507(6)
H13_5 H 0.406014 0.645420 0.032283
C26_5 C 0.8726(9) 0.5675(8) 0.3696(7)
C29_5 C 0.8882(8) 0.5723(9) 0.4230(8)
H16_5 H 0.880956 0.605635 0.441216
C30_5 C 0.9084(8) 0.4755(8) 0.3672(7)
H17_5 H 0.915248 0.442692 0.348009
C32_5 C 0.9802(8) 0.3363(7) 0.6252(6)
C33_5 C 0.3748(8) 0.6560(8) 0.1762(7)
H19_5 H 0.389352 0.689010 0.192608
C35_5 C 0.9530(7) 0.4300(7) 0.4516(6)
C36_5 C 0.9249(7) 0.4784(7) 0.4228(6)
C39_5 C 0.7191(8) 0.8426(8) 0.1343(9)
H21_5 H 0.747546 0.871240 0.136679
C40_5 C 0.3659(8) 0.5849(9) 0.1208(8)
C42_5 C 0.9146(8) 0.5274(8) 0.4501(8)
H23_5 H 0.925645 0.530192 0.486899
C43_5 C 0.7277(9) 0.7969(9) 0.1673(8)
H24_5 H 0.762187 0.793424 0.190265
C44_5 C 0.3208(8) 0.5816(9) 0.1555(7)
C45_5 C 0.2761(11) 0.5405(10) 0.1510(9)
H25_5 H 0.245797 0.538997 0.174719
C47_5 C 0.2793(11) 0.5014(10) 0.1087(13)
H26_3 H 0.251436 0.472306 0.105770
C49_5 C 0.3673(11) 0.5483(10) 0.0751(10)
H28_5 H 0.395287 0.552053 0.049354
C50_5 C 0.3208(11) 0.5041(11) 0.0721(11)
H29_3 H 0.320147 0.477539 0.044458
O8_5 O 0.8384(8) 0.8484(8) 0.2943(6)
C53_5 C 0.8822(8) 0.5214(8) 0.3411(7)
H32_5 H 0.871483 0.520149 0.304167
C54_5 C 0.8591(7) 0.3160(7) 0.6330(6)
H33_5 H 0.818582 0.308902 0.635369
O11_3 O 0.7878(6) 0.7748(6) 0.3956(5)
O12_3 O 0.7385(6) 0.7481(6) 0.3186(6)
N8_3 N 0.6703(7) 0.6293(7) 0.3086(6)
H34_5 H 0.798629 0.596264 0.181669
H35_5 H 0.728481 0.601553 0.161292
H36_5 H 0.809068 0.847147 0.262372
H37_5 H 0.876892 0.863985 0.283436
N4_5 N 0.4789(6) 0.6890(6) 0.9651(6)
C10_5 C 0.4254(8) 0.7073(8) 0.9401(7)
H5_5 H 0.391883 0.717295 0.958054
C38_5 C 0.4848(9) 0.6887(8) 0.8759(7)
C41_4 C 0.5102(10) 0.6818(9) 0.8286(8)
H22_5 H 0.488502 0.688228 0.795786
C46_4 C 0.5175(9) 0.6762(9) 0.9238(8)
C48_4 C 0.5762(9) 0.6562(10) 0.9286(8)
H27_4 H 0.597965 0.651698 0.961622
C51_4 C 0.5697(10) 0.6649(13) 0.8304(8)
H30_4 H 0.591296 0.666480 0.799716
C52_4 C 0.5976(12) 0.6444(12) 0.8823(9)
H31_4 H 0.631723 0.622115 0.882163
O1_6 O 0.1826(5) 0.6142(5) 0.2047(5)
O4_6 O 0.1516(8) 0.6677(7) 0.1356(6)
N1_6 N 0.3999(6) 0.7115(7) 0.3642(6)
N3_6 N 0.6009(7) 0.6321(7) 0.3652(6)
N4_6 N 0.5211(6) 0.6890(6) 0.5349(6)
N5_6 N 0.3230(7) 0.7063(7) 0.3047(6)
O6_6 O 0.2429(7) 0.5955(7) 0.3068(6)
C1_6 C 0.3668(7) 0.7610(7) 0.3724(6)
C2_6 C 0.4604(7) 0.7004(8) 0.4499(6)
H1_6 H 0.429118 0.714484 0.468590
C3_6 C 0.3717(7) 0.6820(7) 0.3239(6)
H2_6 H 0.385598 0.647908 0.311145
C7_6 C 0.4559(7) 0.6958(8) 0.3952(6)
C10_6 C 0.5746(8) 0.7073(8) 0.5599(7)
H5_6 H 0.608117 0.717295 0.541946
C11_6 C 0.5010(8) 0.6723(8) 0.3662(7)
H6_6 H 0.496097 0.667326 0.328956
C14_6 C 0.5530(7) 0.6567(7) 0.3951(6)
C16_6 C 0.1553(8) 0.6222(8) 0.1591(6)
C17_6 C 0.5151(7) 0.6827(7) 0.4772(6)
C20_6 C 0.3150(8) 0.7571(8) 0.3345(7)
C21_6 C 0.3297(10) 0.8487(9) 0.4024(9)
H11_6 H 0.333291 0.880531 0.424373
C22_6 C 0.3748(8) 0.8058(8) 0.4065(8)
H12_6 H 0.407819 0.808384 0.431287
C23_6 C 0.5595(7) 0.6594(7) 0.4493(6)
H13_6 H 0.593986 0.645420 0.467717
C26_6 C 0.1274(9) 0.5675(8) 0.1304(7)
C29_6 C 0.1118(8) 0.5723(9) 0.0770(8)
H16_6 H 0.119044 0.605635 0.058784
C30_6 C 0.0916(8) 0.4755(8) 0.1328(7)
H17_6 H 0.084752 0.442692 0.151991
C33_6 C 0.6252(8) 0.6560(8) 0.3238(7)
H19_6 H 0.610648 0.689010 0.307392
C35_6 C 0.0470(7) 0.4300(7) 0.0484(6)
C36_6 C 0.0751(7) 0.4784(7) 0.0772(6)
C38_6 C 0.5152(9) 0.6887(8) 0.6241(7)
C39_6 C 0.2809(8) 0.8426(8) 0.3657(9)
H21_6 H 0.252454 0.871240 0.363321
C40_6 C 0.6341(8) 0.5849(9) 0.3792(8)
C41_5 C 0.4898(10) 0.6818(9) 0.6714(8)
H22_6 H 0.511498 0.688228 0.704214
C42_6 C 0.0854(8) 0.5274(8) 0.0499(8)
H23_6 H 0.074355 0.530192 0.013101
C43_6 C 0.2723(9) 0.7969(9) 0.3327(8)
H24_6 H 0.237813 0.793424 0.309735
C44_6 C 0.6792(8) 0.5816(9) 0.3445(7)
C45_6 C 0.7239(11) 0.5405(10) 0.3490(9)
H25_6 H 0.754203 0.538997 0.325281
C46_5 C 0.4825(9) 0.6762(9) 0.5762(8)
C47_6 C 0.7207(11) 0.5014(10) 0.3913(13)
H26_4 H 0.748564 0.472306 0.394230
C48_5 C 0.4238(9) 0.6562(10) 0.5714(8)
H27_5 H 0.402035 0.651698 0.538378
C49_6 C 0.6327(11) 0.5483(10) 0.4249(10)
H28_6 H 0.604713 0.552053 0.450646
C50_6 C 0.6792(11) 0.5041(11) 0.4279(11)
H29_4 H 0.679853 0.477539 0.455542
C51_5 C 0.4303(10) 0.6649(13) 0.6696(8)
H30_5 H 0.408704 0.666480 0.700284
C52_5 C 0.4024(12) 0.6444(12) 0.6177(9)
H31_5 H 0.368277 0.622115 0.617837
O8_6 O 0.1616(8) 0.8484(8) 0.2057(6)
C53_6 C 0.1178(8) 0.5214(8) 0.1589(7)
H32_6 H 0.128517 0.520149 0.195833
O11_4 O 0.2122(6) 0.7748(6) 0.1044(5)
O12_4 O 0.2615(6) 0.7481(6) 0.1814(6)
H34_6 H 0.201371 0.596264 0.318331
H35_6 H 0.271519 0.601553 0.338708
H36_6 H 0.190932 0.847147 0.237628
H37_6 H 0.123108 0.863985 0.216564
C4_6 C 0.0379(7) 0.3660(7) 0.9725(6)
C6_6 C 0.0636(7) 0.4113(7) 0.9989(6)
H4_6 H 0.093856 0.430541 0.982776
C8_6 C 0.0594(8) 0.3463(8) 0.9205(6)
C9_6 C 0.1007(7) 0.3071(7) 0.8227(6)
C12_6 C 0.0409(7) 0.3176(8) 0.8263(7)
H7_6 H 0.014290 0.312205 0.796182
C15_6 C 0.1214(7) 0.2849(7) 0.7714(6)
C19_6 C 0.1199(8) 0.3359(8) 0.9155(6)
H10_6 H 0.147086 0.342240 0.945045
C32_6 C 0.0198(8) 0.3363(7) 0.8748(6)
C54_6 C 0.1409(7) 0.3160(7) 0.8670(6)
H33_6 H 0.181418 0.308902 0.864631
O5_4 O 0.7122(6) 0.2748(6) 0.1044(5)
O7_4 O 0.7615(6) 0.2481(6) 0.1814(6)
C5_6 C 0.8204(8) 0.2882(8) 0.0546(7)
H3_6 H 0.787494 0.278142 0.031719
C13_6 C 0.9165(8) 0.3197(9) 0.1224(7)
H8_6 H 0.949471 0.329715 0.145242
C18_6 C 0.8703(7) 0.3081(7) 0.0339(6)
C24_6 C 0.9190(7) 0.3257(7) 0.0657(6)
C25_6 C 0.9991(7) 0.4011(8) 0.0723(7)
H14_6 H 0.986667 0.411956 0.105769
C27_6 C 0.8182(8) 0.2828(8) 0.1100(6)
C31_6 C 0.9712(8) 0.3553(8) 0.0430(7)
C34_6 C 0.8678(8) 0.3000(9) 0.1433(6)
H20_6 H 0.866713 0.297509 0.180637
C37_6 C 0.7590(8) 0.2654(9) 0.1329(8)
O1_7 O 0.3174(5) 0.1142(5) 0.2953(5)
O4_7 O 0.3484(8) 0.1677(7) 0.3644(6)
N1_7 N 0.1001(6) 0.2115(7) 0.1358(6)
N5_7 N 0.1770(7) 0.2063(7) 0.1953(6)
O6_7 O 0.2571(7) 0.0955(7) 0.1932(6)
C1_7 C 0.1332(7) 0.2610(7) 0.1276(6)
C2_7 C 0.0396(7) 0.2004(8) 0.0501(6)
H1_7 H 0.070882 0.214484 0.031410
C3_7 C 0.1283(7) 0.1820(7) 0.1761(6)
H2_7 H 0.114402 0.147908 0.188855
C7_7 C 0.0441(7) 0.1958(8) 0.1048(6)
H6_7 H 0.003903 0.167326 0.171044
C16_7 C 0.3447(8) 0.1222(8) 0.3409(6)
C20_7 C 0.1850(8) 0.2571(8) 0.1655(7)
C21_7 C 0.1703(10) 0.3487(9) 0.0976(9)
H11_7 H 0.166709 0.380531 0.075627
C22_7 C 0.1252(8) 0.3058(8) 0.0935(8)
H12_7 H 0.092181 0.308384 0.068713
C26_7 C 0.3726(9) 0.0675(8) 0.3696(7)
C29_7 C 0.3882(8) 0.0723(9) 0.4230(8)
H16_7 H 0.380956 0.105635 0.441216
C39_7 C 0.2191(8) 0.3426(8) 0.1343(9)
H21_7 H 0.247546 0.371240 0.136679
C42_7 C 0.4146(8) 0.0274(8) 0.4501(8)
H23_7 H 0.425645 0.030192 0.486899
C43_7 C 0.2277(9) 0.2969(9) 0.1673(8)
H24_7 H 0.262187 0.293424 0.190265
O8_7 O 0.3384(8) 0.3484(8) 0.2943(6)
C53_7 C 0.3822(8) 0.0214(8) 0.3411(7)
H32_7 H 0.371483 0.020149 0.304167
N8_4 N 0.1703(7) 0.1293(7) 0.3086(6)
H34_7 H 0.298629 0.0962642 0.181669
H35_7 H 0.228481 0.101553 0.161292
H36_7 H 0.309068 0.347147 0.262372
H37_7 H 0.376892 0.363985 0.283436
C4_7 C 0.4621(7) 0.8660(7) 0.5275(6)
C5_7 C 0.6796(8) 0.7882(8) 0.4454(7)
H3_7 H 0.712506 0.778142 0.468281
C6_7 C 0.4364(7) 0.9113(7) 0.5011(6)
H4_7 H 0.406144 0.930541 0.517224
C8_7 C 0.4406(8) 0.8463(8) 0.5795(6)
C9_7 C 0.3993(7) 0.8071(7) 0.6773(6)
C12_7 C 0.4591(7) 0.8176(8) 0.6737(7)
H7_7 H 0.485710 0.812205 0.703818
C13_7 C 0.5835(8) 0.8197(9) 0.3776(7)
H8_7 H 0.550529 0.829715 0.354758
C15_7 C 0.3786(7) 0.7849(7) 0.7286(6)
C18_7 C 0.6297(7) 0.8081(7) 0.4661(6)
H9_5 H 0.628462 0.810016 0.503463
C19_7 C 0.3801(8) 0.8359(8) 0.5845(6)
H10_7 H 0.352914 0.842240 0.554955
C24_7 C 0.5810(7) 0.8257(7) 0.4343(6)
C25_7 C 0.5009(7) 0.9011(8) 0.4277(7)
H14_7 H 0.513333 0.911956 0.394231
C27_7 C 0.6818(8) 0.7828(8) 0.3900(6)
C28_5 C 0.5097(7) 0.8397(7) 0.5083(6)
H15_5 H 0.529820 0.811671 0.528522
C30_7 C 0.4084(8) 0.9755(8) 0.3672(7)
H17_7 H 0.415248 0.942692 0.348009
C31_7 C 0.5288(8) 0.8553(8) 0.4570(7)
C32_7 C 0.4802(8) 0.8363(7) 0.6252(6)
H18_5 H 0.520981 0.842326 0.623079
C34_7 C 0.6322(8) 0.8000(9) 0.3567(6)
H20_7 H 0.633287 0.797509 0.319363
C35_7 C 0.4530(7) 0.9300(7) 0.4516(6)
C36_7 C 0.4249(7) 0.9784(7) 0.4228(6)
C37_7 C 0.7410(8) 0.7654(9) 0.3671(8)
C54_7 C 0.3591(7) 0.8160(7) 0.6330(6)
H33_7 H 0.318582 0.808902 0.635369
N3_7 N 0.8991(7) 0.1321(7) 0.1348(6)
N6_4 N 0.8297(7) 0.1293(7) 0.1914(6)
C11_7 C 0.9990(8) 0.1723(8) 0.1338(7)
C14_7 C 0.9470(7) 0.1567(7) 0.1049(6)
C17_7 C 0.9849(7) 0.1827(7) 0.0228(6)
C23_7 C 0.9405(7) 0.1594(7) 0.0507(6)
H13_7 H 0.906014 0.145420 0.032283
C33_7 C 0.8748(8) 0.1560(8) 0.1762(7)
H19_7 H 0.889352 0.189010 0.192608
C40_7 C 0.8659(8) 0.0849(9) 0.1208(8)
C44_7 C 0.8208(8) 0.0816(9) 0.1555(7)
C45_7 C 0.7761(11) 0.0405(10) 0.1510(9)
H25_7 H 0.745797 0.038997 0.174719
C47_7 C 0.7793(11) 0.0014(10) 0.1087(13)
C49_7 C 0.8673(11) 0.0483(10) 0.0751(10)
H28_7 H 0.895287 0.052053 0.049354
C50_7 C 0.8208(11) 0.0041(11) 0.0721(11)
N4_7 N 0.9789(6) 0.1890(6) 0.9651(6)
C10_7 C 0.9254(8) 0.2073(8) 0.9401(7)
H5_7 H 0.891883 0.217295 0.958054
C38_7 C 0.9848(9) 0.1887(8) 0.8759(7)
H22_7 H 0.988502 0.188228 0.795786
N3_8 N 0.1009(7) 0.1321(7) 0.3652(6)
N4_8 N 0.0211(6) 0.1890(6) 0.5349(6)
C10_8 C 0.0746(8) 0.2073(8) 0.5599(7)
H5_8 H 0.108117 0.217295 0.541946
C11_8 C 0.0010(8) 0.1723(8) 0.3662(7)
C14_8 C 0.0530(7) 0.1567(7) 0.3951(6)
C17_8 C 0.0151(7) 0.1827(7) 0.4772(6)
C23_8 C 0.0595(7) 0.1594(7) 0.4493(6)
H13_8 H 0.093986 0.145420 0.467717
C33_8 C 0.1252(8) 0.1560(8) 0.3238(7)
H19_8 H 0.110648 0.189010 0.307392
C38_8 C 0.0152(9) 0.1887(8) 0.6241(7)
C40_8 C 0.1341(8) 0.0849(9) 0.3792(8)
H22_8 H 0.011498 0.188228 0.704214
C44_8 C 0.1792(8) 0.0816(9) 0.3445(7)
C45_8 C 0.2239(11) 0.0405(10) 0.3490(9)
H25_8 H 0.254203 0.038997 0.325281
C47_8 C 0.2207(11) 0.0014(10) 0.3913(13)
C49_8 C 0.1327(11) 0.0483(10) 0.4249(10)
H28_8 H 0.104713 0.052053 0.450646
C50_8 C 0.1792(11) 0.0041(11) 0.4279(11)
O1_8 O 0.6826(5) 0.1142(5) 0.2047(5)
O4_8 O 0.6516(8) 0.1677(7) 0.1356(6)
N1_8 N 0.8999(6) 0.2115(7) 0.3642(6)
N5_8 N 0.8230(7) 0.2063(7) 0.3047(6)
O6_8 O 0.7429(7) 0.0955(7) 0.3068(6)
C1_8 C 0.8668(7) 0.2610(7) 0.3724(6)
C2_8 C 0.9604(7) 0.2004(8) 0.4499(6)
H1_8 H 0.929118 0.214484 0.468590
C3_8 C 0.8717(7) 0.1820(7) 0.3239(6)
H2_8 H 0.885598 0.147908 0.311145
C7_8 C 0.9559(7) 0.1958(8) 0.3952(6)
H6_8 H 0.996097 0.167326 0.328956
C16_8 C 0.6553(8) 0.1222(8) 0.1591(6)
C20_8 C 0.8150(8) 0.2571(8) 0.3345(7)
C21_8 C 0.8297(10) 0.3487(9) 0.4024(9)
H11_8 H 0.833291 0.380531 0.424373
C22_8 C 0.8748(8) 0.3058(8) 0.4065(8)
H12_8 H 0.907819 0.308384 0.431287
C26_8 C 0.6274(9) 0.0675(8) 0.1304(7)
C29_8 C 0.6118(8) 0.0723(9) 0.0770(8)
H16_8 H 0.619044 0.105635 0.058784
C39_8 C 0.7809(8) 0.3426(8) 0.3657(9)
H21_8 H 0.752454 0.371240 0.363321
C41_6 C 0.9898(10) 0.1818(9) 0.6714(8)
C42_8 C 0.5854(8) 0.0274(8) 0.0499(8)
H23_8 H 0.574355 0.030192 0.013101
C43_8 C 0.7723(9) 0.2969(9) 0.3327(8)
H24_8 H 0.737813 0.293424 0.309735
C46_6 C 0.9825(9) 0.1762(9) 0.5762(8)
C48_6 C 0.9238(9) 0.1562(10) 0.5714(8)
H27_6 H 0.902035 0.151698 0.538378
C51_6 C 0.9303(10) 0.1649(13) 0.6696(8)
H30_6 H 0.908704 0.166480 0.700284
C52_6 C 0.9024(12) 0.1444(12) 0.6177(9)
H31_6 H 0.868277 0.122115 0.617837
O8_8 O 0.6616(8) 0.3484(8) 0.2057(6)
C53_8 C 0.6178(8) 0.0214(8) 0.1589(7)
H32_8 H 0.628517 0.020149 0.195833
H34_8 H 0.701371 0.0962642 0.318331
H35_8 H 0.771519 0.101553 0.338708
H36_8 H 0.690932 0.347147 0.237628
H37_8 H 0.623108 0.363985 0.216564
C5_8 C 0.3204(8) 0.7882(8) 0.0546(7)
H3_8 H 0.287494 0.778142 0.031719
C13_8 C 0.4165(8) 0.8197(9) 0.1224(7)
H8_8 H 0.449471 0.829715 0.145242
C18_8 C 0.3703(7) 0.8081(7) 0.0339(6)
C24_8 C 0.4190(7) 0.8257(7) 0.0657(6)
C25_8 C 0.4991(7) 0.9011(8) 0.0723(7)
H14_8 H 0.486667 0.911956 0.105769
C27_8 C 0.3182(8) 0.7828(8) 0.1100(6)
C30_8 C 0.5916(8) 0.9755(8) 0.1328(7)
H17_8 H 0.584752 0.942692 0.151991
C31_8 C 0.4712(8) 0.8553(8) 0.0430(7)
C34_8 C 0.3678(8) 0.8000(9) 0.1433(6)
H20_8 H 0.366713 0.797509 0.180637
C35_8 C 0.5470(7) 0.9300(7) 0.0484(6)
C36_8 C 0.5751(7) 0.9784(7) 0.0772(6)
C37_8 C 0.2590(8) 0.7654(9) 0.1329(8)
C4_8 C 0.5379(7) 0.8660(7) 0.9725(6)
C6_8 C 0.5636(7) 0.9113(7) 0.9989(6)
H4_8 H 0.593856 0.930541 0.982776
C8_8 C 0.5594(8) 0.8463(8) 0.9205(6)
C9_8 C 0.6007(7) 0.8071(7) 0.8227(6)
C12_8 C 0.5409(7) 0.8176(8) 0.8263(7)
H7_8 H 0.514290 0.812205 0.796182
C15_8 C 0.6214(7) 0.7849(7) 0.7714(6)
H9_6 H 0.371538 0.810016 0.996537
C19_8 C 0.6199(8) 0.8359(8) 0.9155(6)
H10_8 H 0.647086 0.842240 0.945045
C28_6 C 0.4903(7) 0.8397(7) 0.9917(6)
H15_6 H 0.470180 0.811671 0.971478
C32_8 C 0.5198(8) 0.8363(7) 0.8748(6)
H18_6 H 0.479019 0.842326 0.876921
C54_8 C 0.6409(7) 0.8160(7) 0.8670(6)
H33_8 H 0.681418 0.808902 0.864631
H9_7 H 0.128462 0.689984 0.003463
C28_7 C 0.0097(7) 0.6603(7) 0.0083(6)
H15_7 H 0.029820 0.688329 0.028522
H18_7 H 0.020981 0.657674 0.123079
H26_5 H 0.248564 0.027694 0.894230
H29_5 H 0.179853 0.022461 0.955542
C41_7 C 0.9898(10) 0.8182(9) 0.1714(8)
C46_7 C 0.9825(9) 0.8238(9) 0.0762(8)
C48_7 C 0.9238(9) 0.8438(10) 0.0714(8)
H27_7 H 0.902035 0.848302 0.038378
C51_7 C 0.9303(10) 0.8351(13) 0.1696(8)
H30_7 H 0.908704 0.833520 0.200284
C52_7 C 0.9024(12) 0.8556(12) 0.1177(9)
H31_7 H 0.868277 0.877885 0.117837
H26_6 H 0.751436 0.027694 0.605770
H29_6 H 0.820147 0.022461 0.544458
H9_8 H 0.871538 0.310016 0.996537
C28_8 C 0.9903(7) 0.3397(7) 0.9917(6)
H15_8 H 0.970180 0.311671 0.971478
H18_8 H 0.979019 0.342326 0.876921
C41_8 C 0.0102(10) 0.1818(9) 0.8286(8)
C46_8 C 0.0175(9) 0.1762(9) 0.9238(8)
C48_8 C 0.0762(9) 0.1562(10) 0.9286(8)
H27_8 H 0.097965 0.151698 0.961622
C51_8 C 0.0697(10) 0.1649(13) 0.8304(8)
H30_8 H 0.091296 0.166480 0.799716
C52_8 C 0.0976(12) 0.1444(12) 0.8823(9)
H31_8 H 0.131723 0.122115 0.882163
H26_7 H 0.751436 0.972306 0.105770
H29_7 H 0.820147 0.977539 0.044458
H26_8 H 0.248564 0.972306 0.394230
H29_8 H 0.179853 0.977539 0.455542
I1 I 0.70837(7) 0.64100(8) 0.04595(6)
I2 I 0.750000 0.750000 0.000000
I2_2 I 0.750000 0.750000 1.000000
I3 I 0.79163(7) 0.85900(8) 0.95405(6)
I1_2 I 0.29163(7) 0.64100(8) 0.45405(6)
I2_3 I 0.250000 0.750000 0.500000
I3_2 I 0.20837(7) 0.85900(8) 0.54595(6)
I1_3 I 0.20837(7) 0.14100(8) 0.04595(6)
I2_4 I 0.250000 0.250000 0.000000
I2_5 I 0.250000 0.250000 1.000000
I3_3 I 0.29163(7) 0.35900(8) 0.95405(6)
I1_4 I 0.79163(7) 0.14100(8) 0.45405(6)
I2_6 I 0.750000 0.250000 0.500000
I3_4 I 0.70837(7) 0.35900(8) 0.54595(6)
I4 I 0.000000 0.27910(13) 0.250000
I5 I 0.000000 0.40306(15) 0.250000
I6 I 0.000000 0.52752(18) 0.250000
I4_2 I 1.000000 0.27910(13) 0.250000
I5_2 I 1.000000 0.40306(15) 0.250000
I6_2 I 1.000000 0.52752(18) 0.250000
I6_3 I 0.500000 0.02752(18) 0.250000
I4_3 I 0.500000 0.77910(13) 0.250000
I5_3 I 0.500000 0.90306(15) 0.250000
I4_4 I 0.000000 0.72090(13) 0.750000
I5_4 I 0.000000 0.59694(15) 0.750000
I6_4 I 0.000000 0.47248(18) 0.750000
I4_5 I 1.000000 0.72090(13) 0.750000
I5_5 I 1.000000 0.59694(15) 0.750000
I6_5 I 1.000000 0.47248(18) 0.750000
I4_6 I 0.500000 0.22090(13) 0.750000
I5_6 I 0.500000 0.09694(15) 0.750000
I6_6 I 0.500000 0.97248(18) 0.750000
loop_
_geom_bond_atom_site_label_1
_geom_bond_atom_site_label_2
_geom_bond_site_symmetry_1
_geom_bond_site_symmetry_2
N2 C10 1_555 1_555
N4 C10 1_555 1_555
C10 H5 1_555 1_555
C38 N2 1_555 1_555
C41 C38 1_555 1_555
H22 C41 1_555 1_555
C46 N4 1_555 1_555
C48 C46 1_555 1_555
H27 C48 1_555 1_555
C51 C41 1_555 1_555
H30 C51 1_555 1_555
C52 C48 1_555 1_555
H31 C52 1_555 1_555
Cd5 N2 1_555 1_555
C38 C46 1_555 1_555
C51 C52 1_555 1_555
Cd1 O4 1_555 1_555
Cd2 O1 1_555 1_555
O1 C16 1_555 1_555
O2 C15 1_555 1_555
O3 C15 1_555 1_555
O4 C16 1_555 1_555
N1 C1 1_555 1_555
N3 C14 1_555 1_555
N5 Cd2 1_555 1_555
O6 Cd2 1_555 1_555
N6 C33 1_555 1_555
C1 C20 1_555 1_555
C2 H1 1_555 1_555
C3 N1 1_555 1_555
H2 C3 1_555 1_555
C4 C6 1_555 1_555
C6 H4 1_555 1_555
C7 N1 1_555 1_555
C8 C4 1_555 1_555
C9 C12 1_555 1_555
C11 C7 1_555 1_555
H6 C11 1_555 1_555
C12 H7 1_555 1_555
C14 C11 1_555 1_555
C15 C9 1_555 1_555
C16 C26 1_555 1_555
C19 C8 1_555 1_555
H10 C19 1_555 1_555
C20 N5 1_555 1_555
C21 H11 1_555 1_555
C22 C1 1_555 1_555
H12 C22 1_555 1_555
C23 C14 1_555 1_555
H13 C23 1_555 1_555
C26 C29 1_555 1_555
C29 H16 1_555 1_555
C30 H17 1_555 1_555
C32 C8 1_555 1_555
C33 N3 1_555 1_555
H19 C33 1_555 1_555
C35 C6 1_555 1_555
C36 C30 1_555 1_555
C39 C21 1_555 1_555
H21 C39 1_555 1_555
C40 N3 1_555 1_555
C42 C29 1_555 1_555
H23 C42 1_555 1_555
C43 C20 1_555 1_555
H24 C43 1_555 1_555
C44 N6 1_555 1_555
C45 C44 1_555 1_555
H25 C45 1_555 1_555
C47 C45 1_555 1_555
H26 C47 1_555 1_555
C49 C40 1_555 1_555
H28 C49 1_555 1_555
C50 C47 1_555 1_555
H29 C50 1_555 1_555
O8 Cd1 1_555 1_555
C53 C26 1_555 1_555
H32 C53 1_555 1_555
C54 C9 1_555 1_555
H33 C54 1_555 1_555
Cd4 O2 1_555 1_555
Cd6 N6 1_555 1_555
Cd8 O2 1_555 1_555
O9 Cd1 1_555 1_555
O10 Cd1 1_555 1_555
N7 Cd1 1_555 1_555
O11 Cd1 1_555 1_555
O12 Cd1 1_555 1_555
N8 Cd2 1_555 1_555
Cd2 O9 1_555 1_555
Cd2 O12 1_555 1_555
O3 Cd4 1_555 1_555
N5 C3 1_555 1_555
C2 C7 1_555 1_555
C2 C17 1_555 1_555
C12 C32 1_555 1_555
C17 C23 1_555 1_555
C19 C54 1_555 1_555
C21 C22 1_555 1_555
C30 C53 1_555 1_555
C35 C36 1_555 1_555
C36 C42 1_555 1_555
C39 C43 1_555 1_555
C40 C44 1_555 1_555
C49 C50 1_555 1_555
O6 H34 1_555 1_555
O6 H35 1_555 1_555
O8 H36 1_555 1_555
O8 H37 1_555 1_555
O5 C37 1_555 1_555
O7 C37 1_555 1_555
C5 H3 1_555 1_555
C13 H8 1_555 1_555
C18 C5 1_555 1_555
H9 C18 1_555 1_555
C24 C13 1_555 1_555
C25 H14 1_555 1_555
C27 C5 1_555 1_555
H15 C28 1_555 1_555
C31 C24 1_555 1_555
C34 C13 1_555 1_555
H20 C34 1_555 1_555
C37 C27 1_555 1_555
Cd3 O5 1_555 1_555
Cd7 O7 1_555 1_555
O7 Cd3 1_555 1_555
C18 C24 1_555 1_555
C25 C31 1_555 1_555
C27 C34 1_555 1_555
C28 C31 1_555 1_555
O5_2 C37_2 1_555 1_555
O7_2 C37_2 1_555 1_555
C5_2 H3_2 1_555 1_555
C13_2 H8_2 1_555 1_555
C18_2 C5_2 1_555 1_555
C24_2 C13_2 1_555 1_555
C25_2 H14_2 1_555 1_555
C27_2 C5_2 1_555 1_555
C31_2 C24_2 1_555 1_555
C34_2 C13_2 1_555 1_555
H20_2 C34_2 1_555 1_555
C37_2 C27_2 1_555 1_555
Cd3_2 O5_2 1_555 1_555
Cd7_2 O7_2 1_555 1_555
O7_2 Cd3_2 1_555 1_555
C18_2 C24_2 1_555 1_555
C25_2 C31_2 1_555 1_555
C27_2 C34_2 1_555 1_555
O2_2 C15_2 1_555 1_555
O3_2 C15_2 1_555 1_555
C4_2 C6_2 1_555 1_555
C6_2 H4_2 1_555 1_555
C8_2 C4_2 1_555 1_555
C9_2 C12_2 1_555 1_555
C12_2 H7_2 1_555 1_555
C15_2 C9_2 1_555 1_555
C19_2 C8_2 1_555 1_555
H10_2 C19_2 1_555 1_555
C32_2 C8_2 1_555 1_555
C54_2 C9_2 1_555 1_555
H33_2 C54_2 1_555 1_555
Cd4_2 O2_2 1_555 1_555
Cd8_2 O2_2 1_555 1_555
O3_2 Cd4_2 1_555 1_555
C12_2 C32_2 1_555 1_555
C19_2 C54_2 1_555 1_555
Cd1_2 O4_2 1_555 1_555
Cd6 O1_2 1_555 1_555
O1_2 C16_2 1_555 1_555
O4_2 C16_2 1_555 1_555
N1_2 C1_2 1_555 1_555
N2_2 C10_2 1_555 1_555
N3_2 C14_2 1_555 1_555
N4_2 C10_2 1_555 1_555
N5_2 Cd6 1_555 1_555
O6_2 Cd6 1_555 1_555
N8 C33_2 1_555 1_555
C1_2 C20_2 1_555 1_555
C2_2 H1_2 1_555 1_555
C3_2 N1_2 1_555 1_555
H2_2 C3_2 1_555 1_555
C7_2 N1_2 1_555 1_555
C10_2 H5_2 1_555 1_555
C11_2 C7_2 1_555 1_555
H6_2 C11_2 1_555 1_555
C14_2 C11_2 1_555 1_555
C16_2 C26_2 1_555 1_555
C17_2 N4_2 1_555 1_555
C20_2 N5_2 1_555 1_555
C21_2 H11_2 1_555 1_555
C22_2 C1_2 1_555 1_555
H12_2 C22_2 1_555 1_555
C23_2 C14_2 1_555 1_555
H13_2 C23_2 1_555 1_555
C26_2 C29_2 1_555 1_555
C29_2 H16_2 1_555 1_555
C30_2 H17_2 1_555 1_555
C33_2 N3_2 1_555 1_555
H19_2 C33_2 1_555 1_555
C36_2 C30_2 1_555 1_555
C38_2 N2_2 1_555 1_555
C39_2 C21_2 1_555 1_555
H21_2 C39_2 1_555 1_555
C40_2 N3_2 1_555 1_555
C41_2 C38_2 1_555 1_555
H22_2 C41_2 1_555 1_555
C42_2 C29_2 1_555 1_555
H23_2 C42_2 1_555 1_555
C43_2 C20_2 1_555 1_555
H24_2 C43_2 1_555 1_555
C44_2 N8 1_555 1_555
C45_2 C44_2 1_555 1_555
H25_2 C45_2 1_555 1_555
C46_2 N4_2 1_555 1_555
C47_2 C45_2 1_555 1_555
H26_2 C47_2 1_555 1_555
C48_2 C46_2 1_555 1_555
H27_2 C48_2 1_555 1_555
C49_2 C40_2 1_555 1_555
H28_2 C49_2 1_555 1_555
C50_2 C47_2 1_555 1_555
H29_2 C50_2 1_555 1_555
C51_2 C41_2 1_555 1_555
H30_2 C51_2 1_555 1_555
C52_2 C48_2 1_555 1_555
H31_2 C52_2 1_555 1_555
O8_2 Cd1_2 1_555 1_555
C53_2 C26_2 1_555 1_555
H32_2 C53_2 1_555 1_555
Cd5_2 N2_2 1_555 1_555
O9_2 Cd1_2 1_555 1_555
O10_2 Cd1_2 1_555 1_555
N7_2 Cd1_2 1_555 1_555
O11_2 Cd1_2 1_555 1_555
O12_2 Cd1_2 1_555 1_555
Cd6 O9_2 1_555 1_555
Cd6 O12_2 1_555 1_555
N5_2 C3_2 1_555 1_555
C2_2 C7_2 1_555 1_555
C2_2 C17_2 1_555 1_555
C17_2 C23_2 1_555 1_555
C21_2 C22_2 1_555 1_555
C30_2 C53_2 1_555 1_555
C35_2 C36_2 1_555 1_555
C36_2 C42_2 1_555 1_555
C38_2 C46_2 1_555 1_555
C39_2 C43_2 1_555 1_555
C40_2 C44_2 1_555 1_555
C49_2 C50_2 1_555 1_555
C51_2 C52_2 1_555 1_555
O6_2 H34_2 1_555 1_555
O6_2 H35_2 1_555 1_555
O8_2 H36_2 1_555 1_555
O8_2 H37_2 1_555 1_555
N2_3 C10_3 1_555 1_555
N4_3 C10_3 1_555 1_555
C10_3 H5_3 1_555 1_555
C38_3 N2_3 1_555 1_555
Cd4 N2_3 1_555 1_555
N3_3 C14_3 1_555 1_555
N6_2 C33_3 1_555 1_555
C14_3 C11_3 1_555 1_555
C23_3 C14_3 1_555 1_555
H13_3 C23_3 1_555 1_555
C33_3 N3_3 1_555 1_555
H19_3 C33_3 1_555 1_555
C40_3 N3_3 1_555 1_555
C44_3 N6_2 1_555 1_555
C45_3 C44_3 1_555 1_555
H25_3 C45_3 1_555 1_555
C47_3 C45_3 1_555 1_555
C49_3 C40_3 1_555 1_555
H28_3 C49_3 1_555 1_555
C50_3 C47_3 1_555 1_555
Cd7_2 N6_2 1_555 1_555
C17_3 C23_3 1_555 1_555
C40_3 C44_3 1_555 1_555
C49_3 C50_3 1_555 1_555
O2_3 C15_3 1_555 1_555
O3_3 C15_3 1_555 1_555
O11 C37_3 1_555 1_555
O12 C37_3 1_555 1_555
C4_3 C6_3 1_555 1_555
C5_3 H3_3 1_555 1_555
C6_3 H4_3 1_555 1_555
C8_3 C4_3 1_555 1_555
C9_3 C12_3 1_555 1_555
C12_3 H7_3 1_555 1_555
C13_3 H8_3 1_555 1_555
C15_3 C9_3 1_555 1_555
C18_3 C5_3 1_555 1_555
H9_2 C18_3 1_555 1_555
C19_3 C8_3 1_555 1_555
H10_3 C19_3 1_555 1_555
C24_3 C13_3 1_555 1_555
C25_3 H14_3 1_555 1_555
C27_3 C5_3 1_555 1_555
C28_2 C4_3 1_555 1_555
H15_2 C28_2 1_555 1_555
C30_3 H17_3 1_555 1_555
C31_3 C24_3 1_555 1_555
C32_3 C8_3 1_555 1_555
H18_2 C32_3 1_555 1_555
C34_3 C13_3 1_555 1_555
H20_3 C34_3 1_555 1_555
C35_3 C6_3 1_555 1_555
C36_3 C30_3 1_555 1_555
C37_3 C27_3 1_555 1_555
C54_3 C9_3 1_555 1_555
H33_3 C54_3 1_555 1_555
Cd5 O2_3 1_555 1_555
Cd8_3 O2_3 1_555 1_555
O3_3 Cd5 1_555 1_555
C12_3 C32_3 1_555 1_555
C18_3 C24_3 1_555 1_555
C19_3 C54_3 1_555 1_555
C25_3 C31_3 1_555 1_555
C25_3 C35_3 1_555 1_555
C27_3 C34_3 1_555 1_555
C28_2 C31_3 1_555 1_555
C35_3 C36_3 1_555 1_555
Cd3 O4_3 1_555 1_555
Cd7 O1_3 1_555 1_555
O1_3 C16_3 1_555 1_555
O4_3 C16_3 1_555 1_555
N1_3 C1_3 1_555 1_555
N5_3 Cd7 1_555 1_555
O6_3 Cd7 1_555 1_555
C1_3 C20_3 1_555 1_555
C2_3 H1_3 1_555 1_555
C3_3 N1_3 1_555 1_555
H2_3 C3_3 1_555 1_555
C7_3 N1_3 1_555 1_555
C16_3 C26_3 1_555 1_555
C20_3 N5_3 1_555 1_555
C21_3 H11_3 1_555 1_555
C22_3 C1_3 1_555 1_555
H12_3 C22_3 1_555 1_555
C26_3 C29_3 1_555 1_555
C29_3 H16_3 1_555 1_555
C39_3 C21_3 1_555 1_555
H21_3 C39_3 1_555 1_555
C42_3 C29_3 1_555 1_555
H23_3 C42_3 1_555 1_555
C43_3 C20_3 1_555 1_555
H24_3 C43_3 1_555 1_555
O8_3 Cd3 1_555 1_555
C53_3 C26_3 1_555 1_555
H32_3 C53_3 1_555 1_555
O9_3 Cd3 1_555 1_555
O10_3 Cd3 1_555 1_555
N7_3 Cd3 1_555 1_555
N8_2 Cd7 1_555 1_555
Cd7 O9_3 1_555 1_555
N5_3 C3_3 1_555 1_555
C2_3 C7_3 1_555 1_555
C21_3 C22_3 1_555 1_555
C39_3 C43_3 1_555 1_555
O6_3 H34_3 1_555 1_555
O6_3 H35_3 1_555 1_555
O8_3 H36_3 1_555 1_555
O8_3 H37_3 1_555 1_555
O2_4 C15_4 1_555 1_555
O3_4 C15_4 1_555 1_555
C4_4 C6_4 1_555 1_555
C6_4 H4_4 1_555 1_555
C8_4 C4_4 1_555 1_555
C9_4 C12_4 1_555 1_555
C12_4 H7_4 1_555 1_555
C15_4 C9_4 1_555 1_555
C19_4 C8_4 1_555 1_555
H10_4 C19_4 1_555 1_555
C28_3 C4_4 1_555 1_555
H15_3 C28_3 1_555 1_555
C32_4 C8_4 1_555 1_555
H18_3 C32_4 1_555 1_555
C54_4 C9_4 1_555 1_555
H33_4 C54_4 1_555 1_555
Cd5_2 O2_4 1_555 1_555
Cd8_4 O2_4 1_555 1_555
O3_4 Cd5_2 1_555 1_555
C12_4 C32_4 1_555 1_555
C19_4 C54_4 1_555 1_555
O11_2 C37_4 1_555 1_555
O12_2 C37_4 1_555 1_555
C5_4 H3_4 1_555 1_555
C13_4 H8_4 1_555 1_555
C18_4 C5_4 1_555 1_555
C24_4 C13_4 1_555 1_555
C25_4 H14_4 1_555 1_555
C27_4 C5_4 1_555 1_555
C30_4 H17_4 1_555 1_555
C31_4 C24_4 1_555 1_555
C34_4 C13_4 1_555 1_555
H20_4 C34_4 1_555 1_555
C36_4 C30_4 1_555 1_555
C37_4 C27_4 1_555 1_555
C18_4 C24_4 1_555 1_555
C25_4 C31_4 1_555 1_555
C25_4 C35_4 1_555 1_555
C27_4 C34_4 1_555 1_555
C35_4 C36_4 1_555 1_555
Cd3_2 O4_4 1_555 1_555
Cd7_2 O1_4 1_555 1_555
O1_4 C16_4 1_555 1_555
O4_4 C16_4 1_555 1_555
N1_4 C1_4 1_555 1_555
N5_4 Cd7_2 1_555 1_555
O6_4 Cd7_2 1_555 1_555
C1_4 C20_4 1_555 1_555
C2_4 H1_4 1_555 1_555
C3_4 N1_4 1_555 1_555
H2_4 C3_4 1_555 1_555
C7_4 N1_4 1_555 1_555
C16_4 C26_4 1_555 1_555
C20_4 N5_4 1_555 1_555
C21_4 H11_4 1_555 1_555
C22_4 C1_4 1_555 1_555
H12_4 C22_4 1_555 1_555
C26_4 C29_4 1_555 1_555
C29_4 H16_4 1_555 1_555
C39_4 C21_4 1_555 1_555
H21_4 C39_4 1_555 1_555
C42_4 C29_4 1_555 1_555
H23_4 C42_4 1_555 1_555
C43_4 C20_4 1_555 1_555
H24_4 C43_4 1_555 1_555
C48_3 C46_3 1_555 1_555
H27_3 C48_3 1_555 1_555
C51_3 C41_3 1_555 1_555
H30_3 C51_3 1_555 1_555
C52_3 C48_3 1_555 1_555
H31_3 C52_3 1_555 1_555
O8_4 Cd3_2 1_555 1_555
C53_4 C26_4 1_555 1_555
H32_4 C53_4 1_555 1_555
O9_4 Cd3_2 1_555 1_555
O10_4 Cd3_2 1_555 1_555
N7_4 Cd3_2 1_555 1_555
Cd7_2 O9_4 1_555 1_555
N5_4 C3_4 1_555 1_555
C2_4 C7_4 1_555 1_555
C21_4 C22_4 1_555 1_555
C39_4 C43_4 1_555 1_555
C51_3 C52_3 1_555 1_555
O6_4 H34_4 1_555 1_555
O6_4 H35_4 1_555 1_555
O8_4 H36_4 1_555 1_555
O8_4 H37_4 1_555 1_555
N2_4 C10_4 1_555 1_555
N3_4 C14_4 1_555 1_555
N4_4 C10_4 1_555 1_555
N8_2 C33_4 1_555 1_555
C10_4 H5_4 1_555 1_555
C14_4 C11_4 1_555 1_555
C17_4 N4_4 1_555 1_555
C23_4 C14_4 1_555 1_555
H13_4 C23_4 1_555 1_555
C33_4 N3_4 1_555 1_555
H19_4 C33_4 1_555 1_555
C38_4 N2_4 1_555 1_555
C40_4 N3_4 1_555 1_555
C44_4 N8_2 1_555 1_555
C45_4 C44_4 1_555 1_555
H25_4 C45_4 1_555 1_555
C47_4 C45_4 1_555 1_555
C49_4 C40_4 1_555 1_555
H28_4 C49_4 1_555 1_555
C50_4 C47_4 1_555 1_555
Cd4_2 N2_4 1_555 1_555
C17_4 C23_4 1_555 1_555
C40_4 C44_4 1_555 1_555
C49_4 C50_4 1_555 1_555
O5_3 C37_5 1_555 1_555
O7_3 C37_5 1_555 1_555
C5_5 H3_5 1_555 1_555
C13_5 H8_5 1_555 1_555
C18_5 C5_5 1_555 1_555
H9_4 C18_5 1_555 1_555
C24_5 C13_5 1_555 1_555
C25_5 H14_5 1_555 1_555
C27_5 C5_5 1_555 1_555
H15_4 C28_4 1_555 1_555
C31_5 C24_5 1_555 1_555
C34_5 C13_5 1_555 1_555
H20_5 C34_5 1_555 1_555
C37_5 C27_5 1_555 1_555
Cd5_2 O5_3 1_555 1_555
Cd8_4 O7_3 1_555 1_555
O7_3 Cd5_2 1_555 1_555
C18_5 C24_5 1_555 1_555
C25_5 C31_5 1_555 1_555
C27_5 C34_5 1_555 1_555
C28_4 C31_5 1_555 1_555
Cd4_2 O4_5 1_555 1_555
Cd8_2 O1_5 1_555 1_555
O1_5 C16_5 1_555 1_555
O9_2 C15_5 1_555 1_555
O10_2 C15_5 1_555 1_555
O4_5 C16_5 1_555 1_555
N1_5 C1_5 1_555 1_555
N3_5 C14_5 1_555 1_555
N5_5 Cd8_2 1_555 1_555
O6_5 Cd8_2 1_555 1_555
N6_3 C33_5 1_555 1_555
C1_5 C20_5 1_555 1_555
C2_5 H1_5 1_555 1_555
C3_5 N1_5 1_555 1_555
H2_5 C3_5 1_555 1_555
C4_5 C6_5 1_555 1_555
C6_5 H4_5 1_555 1_555
C7_5 N1_5 1_555 1_555
C8_5 C4_5 1_555 1_555
C9_5 C12_5 1_555 1_555
C11_5 C7_5 1_555 1_555
H6_5 C11_5 1_555 1_555
C12_5 H7_5 1_555 1_555
C14_5 C11_5 1_555 1_555
C15_5 C9_5 1_555 1_555
C16_5 C26_5 1_555 1_555
C19_5 C8_5 1_555 1_555
H10_5 C19_5 1_555 1_555
C20_5 N5_5 1_555 1_555
C21_5 H11_5 1_555 1_555
C22_5 C1_5 1_555 1_555
H12_5 C22_5 1_555 1_555
C23_5 C14_5 1_555 1_555
H13_5 C23_5 1_555 1_555
C26_5 C29_5 1_555 1_555
C29_5 H16_5 1_555 1_555
C30_5 H17_5 1_555 1_555
C32_5 C8_5 1_555 1_555
C33_5 N3_5 1_555 1_555
H19_5 C33_5 1_555 1_555
C35_5 C6_5 1_555 1_555
C36_5 C30_5 1_555 1_555
C39_5 C21_5 1_555 1_555
H21_5 C39_5 1_555 1_555
C40_5 N3_5 1_555 1_555
C42_5 C29_5 1_555 1_555
H23_5 C42_5 1_555 1_555
C43_5 C20_5 1_555 1_555
H24_5 C43_5 1_555 1_555
C44_5 N6_3 1_555 1_555
C45_5 C44_5 1_555 1_555
H25_5 C45_5 1_555 1_555
C47_5 C45_5 1_555 1_555
H26_3 C47_5 1_555 1_555
C49_5 C40_5 1_555 1_555
H28_5 C49_5 1_555 1_555
C50_5 C47_5 1_555 1_555
H29_3 C50_5 1_555 1_555
O8_5 Cd4_2 1_555 1_555
C53_5 C26_5 1_555 1_555
H32_5 C53_5 1_555 1_555
C54_5 C9_5 1_555 1_555
H33_5 C54_5 1_555 1_555
Cd8 N6_3 1_555 1_555
O11_3 Cd4_2 1_555 1_555
O12_3 Cd4_2 1_555 1_555
N8_3 Cd8_2 1_555 1_555
Cd8_2 O12_3 1_555 1_555
N5_5 C3_5 1_555 1_555
C2_5 C7_5 1_555 1_555
C2_5 C17_5 1_555 1_555
C12_5 C32_5 1_555 1_555
C17_5 C23_5 1_555 1_555
C19_5 C54_5 1_555 1_555
C21_5 C22_5 1_555 1_555
C30_5 C53_5 1_555 1_555
C35_5 C36_5 1_555 1_555
C36_5 C42_5 1_555 1_555
C39_5 C43_5 1_555 1_555
C40_5 C44_5 1_555 1_555
C49_5 C50_5 1_555 1_555
O6_5 H34_5 1_555 1_555
O6_5 H35_5 1_555 1_555
O8_5 H36_5 1_555 1_555
O8_5 H37_5 1_555 1_555
N7_4 C10_5 1_555 1_555
N4_5 C10_5 1_555 1_555
C10_5 H5_5 1_555 1_555
C38_5 N7_4 1_555 1_555
C41_4 C38_5 1_555 1_555
H22_5 C41_4 1_555 1_555
C46_4 N4_5 1_555 1_555
C48_4 C46_4 1_555 1_555
H27_4 C48_4 1_555 1_555
C51_4 C41_4 1_555 1_555
H30_4 C51_4 1_555 1_555
C52_4 C48_4 1_555 1_555
H31_4 C52_4 1_555 1_555
C38_5 C46_4 1_555 1_555
C51_4 C52_4 1_555 1_555
Cd4 O4_6 1_555 1_555
Cd8 O1_6 1_555 1_555
O1_6 C16_6 1_555 1_555
O4_6 C16_6 1_555 1_555
N1_6 C1_6 1_555 1_555
N7_3 C10_6 1_555 1_555
N3_6 C14_6 1_555 1_555
N4_6 C10_6 1_555 1_555
N5_6 Cd8 1_555 1_555
O6_6 Cd8 1_555 1_555
N8_3 C33_6 1_555 1_555
C1_6 C20_6 1_555 1_555
C2_6 H1_6 1_555 1_555
C3_6 N1_6 1_555 1_555
H2_6 C3_6 1_555 1_555
C7_6 N1_6 1_555 1_555
C10_6 H5_6 1_555 1_555
C11_6 C7_6 1_555 1_555
H6_6 C11_6 1_555 1_555
C14_6 C11_6 1_555 1_555
C16_6 C26_6 1_555 1_555
C17_6 N4_6 1_555 1_555
C20_6 N5_6 1_555 1_555
C21_6 H11_6 1_555 1_555
C22_6 C1_6 1_555 1_555
H12_6 C22_6 1_555 1_555
C23_6 C14_6 1_555 1_555
H13_6 C23_6 1_555 1_555
C26_6 C29_6 1_555 1_555
C29_6 H16_6 1_555 1_555
C30_6 H17_6 1_555 1_555
C33_6 N3_6 1_555 1_555
H19_6 C33_6 1_555 1_555
C36_6 C30_6 1_555 1_555
C38_6 N7_3 1_555 1_555
C39_6 C21_6 1_555 1_555
H21_6 C39_6 1_555 1_555
C40_6 N3_6 1_555 1_555
C41_5 C38_6 1_555 1_555
H22_6 C41_5 1_555 1_555
C42_6 C29_6 1_555 1_555
H23_6 C42_6 1_555 1_555
C43_6 C20_6 1_555 1_555
H24_6 C43_6 1_555 1_555
C44_6 N8_3 1_555 1_555
C45_6 C44_6 1_555 1_555
H25_6 C45_6 1_555 1_555
C46_5 N4_6 1_555 1_555
C47_6 C45_6 1_555 1_555
H26_4 C47_6 1_555 1_555
C48_5 C46_5 1_555 1_555
H27_5 C48_5 1_555 1_555
C49_6 C40_6 1_555 1_555
H28_6 C49_6 1_555 1_555
C50_6 C47_6 1_555 1_555
H29_4 C50_6 1_555 1_555
C51_5 C41_5 1_555 1_555
H30_5 C51_5 1_555 1_555
C52_5 C48_5 1_555 1_555
H31_5 C52_5 1_555 1_555
O8_6 Cd4 1_555 1_555
C53_6 C26_6 1_555 1_555
H32_6 C53_6 1_555 1_555
O11_4 Cd4 1_555 1_555
O12_4 Cd4 1_555 1_555
Cd8 O12_4 1_555 1_555
N5_6 C3_6 1_555 1_555
C2_6 C7_6 1_555 1_555
C2_6 C17_6 1_555 1_555
C17_6 C23_6 1_555 1_555
C21_6 C22_6 1_555 1_555
C30_6 C53_6 1_555 1_555
C35_6 C36_6 1_555 1_555
C36_6 C42_6 1_555 1_555
C38_6 C46_5 1_555 1_555
C39_6 C43_6 1_555 1_555
C40_6 C44_6 1_555 1_555
C49_6 C50_6 1_555 1_555
C51_5 C52_5 1_555 1_555
O6_6 H34_6 1_555 1_555
O6_6 H35_6 1_555 1_555
O8_6 H36_6 1_555 1_555
O8_6 H37_6 1_555 1_555
O9 C15_6 1_555 1_555
O10 C15_6 1_555 1_555
C4_6 C6_6 1_555 1_555
C6_6 H4_6 1_555 1_555
C8_6 C4_6 1_555 1_555
C9_6 C12_6 1_555 1_555
C12_6 H7_6 1_555 1_555
C15_6 C9_6 1_555 1_555
C19_6 C8_6 1_555 1_555
H10_6 C19_6 1_555 1_555
C32_6 C8_6 1_555 1_555
C54_6 C9_6 1_555 1_555
H33_6 C54_6 1_555 1_555
C12_6 C32_6 1_555 1_555
C19_6 C54_6 1_555 1_555
O5_4 C37_6 1_555 1_555
O7_4 C37_6 1_555 1_555
C5_6 H3_6 1_555 1_555
C13_6 H8_6 1_555 1_555
C18_6 C5_6 1_555 1_555
C24_6 C13_6 1_555 1_555
C25_6 H14_6 1_555 1_555
C27_6 C5_6 1_555 1_555
C31_6 C24_6 1_555 1_555
C34_6 C13_6 1_555 1_555
H20_6 C34_6 1_555 1_555
C37_6 C27_6 1_555 1_555
Cd5 O5_4 1_555 1_555
Cd8_3 O7_4 1_555 1_555
O7_4 Cd5 1_555 1_555
C18_6 C24_6 1_555 1_555
C25_6 C31_6 1_555 1_555
C27_6 C34_6 1_555 1_555
Cd5_2 O4_7 1_555 1_555
Cd8_4 O1_7 1_555 1_555
O1_7 C16_7 1_555 1_555
O4_7 C16_7 1_555 1_555
N1_7 C1_7 1_555 1_555
N5_7 Cd8_4 1_555 1_555
O6_7 Cd8_4 1_555 1_555
C1_7 C20_7 1_555 1_555
C2_7 H1_7 1_555 1_555
C3_7 N1_7 1_555 1_555
H2_7 C3_7 1_555 1_555
C7_7 N1_7 1_555 1_555
C16_7 C26_7 1_555 1_555
C20_7 N5_7 1_555 1_555
C21_7 H11_7 1_555 1_555
C22_7 C1_7 1_555 1_555
H12_7 C22_7 1_555 1_555
C26_7 C29_7 1_555 1_555
C29_7 H16_7 1_555 1_555
C39_7 C21_7 1_555 1_555
H21_7 C39_7 1_555 1_555
C42_7 C29_7 1_555 1_555
H23_7 C42_7 1_555 1_555
C43_7 C20_7 1_555 1_555
H24_7 C43_7 1_555 1_555
O8_7 Cd5_2 1_555 1_555
C53_7 C26_7 1_555 1_555
H32_7 C53_7 1_555 1_555
N8_4 Cd8_4 1_555 1_555
N5_7 C3_7 1_555 1_555
C2_7 C7_7 1_555 1_555
C21_7 C22_7 1_555 1_555
C39_7 C43_7 1_555 1_555
O6_7 H34_7 1_555 1_555
O6_7 H35_7 1_555 1_555
O8_7 H36_7 1_555 1_555
O8_7 H37_7 1_555 1_555
O9_4 C15_7 1_555 1_555
O10_4 C15_7 1_555 1_555
O11_3 C37_7 1_555 1_555
O12_3 C37_7 1_555 1_555
C4_7 C6_7 1_555 1_555
C5_7 H3_7 1_555 1_555
C6_7 H4_7 1_555 1_555
C8_7 C4_7 1_555 1_555
C9_7 C12_7 1_555 1_555
C12_7 H7_7 1_555 1_555
C13_7 H8_7 1_555 1_555
C15_7 C9_7 1_555 1_555
C18_7 C5_7 1_555 1_555
H9_5 C18_7 1_555 1_555
C19_7 C8_7 1_555 1_555
H10_7 C19_7 1_555 1_555
C24_7 C13_7 1_555 1_555
C25_7 H14_7 1_555 1_555
C27_7 C5_7 1_555 1_555
C28_5 C4_7 1_555 1_555
H15_5 C28_5 1_555 1_555
C30_7 H17_7 1_555 1_555
C31_7 C24_7 1_555 1_555
C32_7 C8_7 1_555 1_555
H18_5 C32_7 1_555 1_555
C34_7 C13_7 1_555 1_555
H20_7 C34_7 1_555 1_555
C35_7 C6_7 1_555 1_555
C36_7 C30_7 1_555 1_555
C37_7 C27_7 1_555 1_555
C54_7 C9_7 1_555 1_555
H33_7 C54_7 1_555 1_555
C12_7 C32_7 1_555 1_555
C18_7 C24_7 1_555 1_555
C19_7 C54_7 1_555 1_555
C25_7 C31_7 1_555 1_555
C25_7 C35_7 1_555 1_555
C27_7 C34_7 1_555 1_555
C28_5 C31_7 1_555 1_555
C35_7 C36_7 1_555 1_555
N3_7 C14_7 1_555 1_555
N6_4 C33_7 1_555 1_555
C14_7 C11_7 1_555 1_555
C23_7 C14_7 1_555 1_555
H13_7 C23_7 1_555 1_555
C33_7 N3_7 1_555 1_555
H19_7 C33_7 1_555 1_555
C40_7 N3_7 1_555 1_555
C44_7 N6_4 1_555 1_555
C45_7 C44_7 1_555 1_555
H25_7 C45_7 1_555 1_555
C47_7 C45_7 1_555 1_555
C49_7 C40_7 1_555 1_555
H28_7 C49_7 1_555 1_555
C50_7 C47_7 1_555 1_555
Cd8_3 N6_4 1_555 1_555
C17_7 C23_7 1_555 1_555
C40_7 C44_7 1_555 1_555
C49_7 C50_7 1_555 1_555
N7_2 C10_7 1_555 1_555
N4_7 C10_7 1_555 1_555
C10_7 H5_7 1_555 1_555
C38_7 N7_2 1_555 1_555
N7 C10_8 1_555 1_555
N3_8 C14_8 1_555 1_555
N4_8 C10_8 1_555 1_555
N8_4 C33_8 1_555 1_555
C10_8 H5_8 1_555 1_555
C14_8 C11_8 1_555 1_555
C17_8 N4_8 1_555 1_555
C23_8 C14_8 1_555 1_555
H13_8 C23_8 1_555 1_555
C33_8 N3_8 1_555 1_555
H19_8 C33_8 1_555 1_555
C38_8 N7 1_555 1_555
C40_8 N3_8 1_555 1_555
C44_8 N8_4 1_555 1_555
C45_8 C44_8 1_555 1_555
H25_8 C45_8 1_555 1_555
C47_8 C45_8 1_555 1_555
C49_8 C40_8 1_555 1_555
H28_8 C49_8 1_555 1_555
C50_8 C47_8 1_555 1_555
C17_8 C23_8 1_555 1_555
C40_8 C44_8 1_555 1_555
C49_8 C50_8 1_555 1_555
Cd5 O4_8 1_555 1_555
Cd8_3 O1_8 1_555 1_555
O1_8 C16_8 1_555 1_555
O4_8 C16_8 1_555 1_555
N1_8 C1_8 1_555 1_555
N5_8 Cd8_3 1_555 1_555
O6_8 Cd8_3 1_555 1_555
C1_8 C20_8 1_555 1_555
C2_8 H1_8 1_555 1_555
C3_8 N1_8 1_555 1_555
H2_8 C3_8 1_555 1_555
C7_8 N1_8 1_555 1_555
C16_8 C26_8 1_555 1_555
C20_8 N5_8 1_555 1_555
C21_8 H11_8 1_555 1_555
C22_8 C1_8 1_555 1_555
H12_8 C22_8 1_555 1_555
C26_8 C29_8 1_555 1_555
C29_8 H16_8 1_555 1_555
C39_8 C21_8 1_555 1_555
H21_8 C39_8 1_555 1_555
C42_8 C29_8 1_555 1_555
H23_8 C42_8 1_555 1_555
C43_8 C20_8 1_555 1_555
H24_8 C43_8 1_555 1_555
C48_6 C46_6 1_555 1_555
H27_6 C48_6 1_555 1_555
C51_6 C41_6 1_555 1_555
H30_6 C51_6 1_555 1_555
C52_6 C48_6 1_555 1_555
H31_6 C52_6 1_555 1_555
O8_8 Cd5 1_555 1_555
C53_8 C26_8 1_555 1_555
H32_8 C53_8 1_555 1_555
N5_8 C3_8 1_555 1_555
C2_8 C7_8 1_555 1_555
C21_8 C22_8 1_555 1_555
C39_8 C43_8 1_555 1_555
C51_6 C52_6 1_555 1_555
O6_8 H34_8 1_555 1_555
O6_8 H35_8 1_555 1_555
O8_8 H36_8 1_555 1_555
O8_8 H37_8 1_555 1_555
O11_4 C37_8 1_555 1_555
O12_4 C37_8 1_555 1_555
C5_8 H3_8 1_555 1_555
C13_8 H8_8 1_555 1_555
C18_8 C5_8 1_555 1_555
C24_8 C13_8 1_555 1_555
C25_8 H14_8 1_555 1_555
C27_8 C5_8 1_555 1_555
C30_8 H17_8 1_555 1_555
C31_8 C24_8 1_555 1_555
C34_8 C13_8 1_555 1_555
H20_8 C34_8 1_555 1_555
C36_8 C30_8 1_555 1_555
C37_8 C27_8 1_555 1_555
C18_8 C24_8 1_555 1_555
C25_8 C31_8 1_555 1_555
C25_8 C35_8 1_555 1_555
C27_8 C34_8 1_555 1_555
C35_8 C36_8 1_555 1_555
O9_3 C15_8 1_555 1_555
O10_3 C15_8 1_555 1_555
C4_8 C6_8 1_555 1_555
C6_8 H4_8 1_555 1_555
C8_8 C4_8 1_555 1_555
C9_8 C12_8 1_555 1_555
C12_8 H7_8 1_555 1_555
C15_8 C9_8 1_555 1_555
C19_8 C8_8 1_555 1_555
H10_8 C19_8 1_555 1_555
C28_6 C4_8 1_555 1_555
H15_6 C28_6 1_555 1_555
C32_8 C8_8 1_555 1_555
H18_6 C32_8 1_555 1_555
C54_8 C9_8 1_555 1_555
H33_8 C54_8 1_555 1_555
C12_8 C32_8 1_555 1_555
C19_8 C54_8 1_555 1_555
H15_7 C28_7 1_555 1_555
C48_7 C46_7 1_555 1_555
H27_7 C48_7 1_555 1_555
C51_7 C41_7 1_555 1_555
H30_7 C51_7 1_555 1_555
C52_7 C48_7 1_555 1_555
H31_7 C52_7 1_555 1_555
C51_7 C52_7 1_555 1_555
H15_8 C28_8 1_555 1_555
C48_8 C46_8 1_555 1_555
H27_8 C48_8 1_555 1_555
C51_8 C41_8 1_555 1_555
H30_8 C51_8 1_555 1_555
C52_8 C48_8 1_555 1_555
H31_8 C52_8 1_555 1_555
C51_8 C52_8 1_555 1_555
I1 I2 1_555 1_555
I2_2 I3 1_555 1_555
I1_2 I2_3 1_555 1_555
I2_3 I3_2 1_555 1_555
I1_3 I2_4 1_555 1_555
I2_5 I3_3 1_555 1_555
I1_4 I2_6 1_555 1_555
I2_6 I3_4 1_555 1_555
I4 I5 1_555 1_555
I5 I6 1_555 1_555
I4_2 I5_2 1_555 1_555
I5_2 I6_2 1_555 1_555
I4_3 I5_3 1_555 1_555
I4_4 I5_4 1_555 1_555
I5_4 I6_4 1_555 1_555
I4_5 I5_5 1_555 1_555
I5_5 I6_5 1_555 1_555
I4_6 I5_6 1_555 1_555

#END
