
###############################################################################
#
# This file contains modified crystal structure data generated from the
# MOF subset of the Cambridge Structural Database (CSD) v543 
# hosted by the Cambridge Crystallographic Data Centre (CCDC).
#
# This work is licensed under the Creative Commons
# Attribution-NonCommercial-ShareAlike 4.0 International License.
# To view a copy of this license, visit
# http://creativecommons.org/licenses/by-nc-sa/4.0/
# or send a letter to
# Creative Commons, PO Box 1866, Mountain View, CA 94042, USA.
#
# CIF created using the CSD Python API on 29 September 2022
# The structure has been converted into the P1 space group
# The structure has a 3D framework
# The original CSD entry ONIXOZ is in the hexagonal crystal system
# The framework has been calculated to contain at least 10.0% void space
# The void calculation uses a probe of radius 1.32A, grid spacing 0.4
#
###############################################################################

data_ONIXOZ
_chemical_formula_moiety         '(C144 H60 Cu16 O48)n'
_symmetry_cell_setting           triclinic
_symmetry_space_group_name_H-M   'P 1'
_symmetry_Int_Tables_number      1
_space_group_name_Hall           'P 1'
loop_
_symmetry_equiv_pos_site_id
_symmetry_equiv_pos_as_xyz
1 x,y,z
_cell_length_a                   22.2866(14)
_cell_length_b                   22.2866(14)
_cell_length_c                   12.8164(12)
_cell_angle_alpha                90
_cell_angle_beta                 90
_cell_angle_gamma                120
_cell_volume                     5512.95
loop_
_atom_site_label
_atom_site_type_symbol
_atom_site_fract_x
_atom_site_fract_y
_atom_site_fract_z
_atom_site_U_iso_or_equiv
_atom_site_thermal_displace_type
O28 O 0.7644 0.0734 0.3577 0.0100 Uiso
O30 O 0.7644 0.0734 0.1423 0.0100 Uiso
O63 O 0.6603 0.0708 0.3550 0.0100 Uiso
O65 O 0.6603 0.0708 0.1450 0.0100 Uiso
Cu4 Cu 0.6209 -0.0000 0.2500 0.0100 Uiso
Cu18 Cu 0.7313 -0.0000 0.2500 0.0100 Uiso
O31 O 0.3090 0.0734 0.6423 0.0100 Uiso
O32 O 0.3090 0.0734 0.8577 0.0100 Uiso
O66 O 0.4105 0.0708 0.6450 0.0100 Uiso
O67 O 0.4105 0.0708 0.8550 0.0100 Uiso
Cu5 Cu 0.3791 0.0000 0.7500 0.0100 Uiso
Cu19 Cu 0.2687 0.0000 0.7500 0.0100 Uiso
C4 C 0.2969 0.5938 0.0000 0.0100 Uiso
C5 C 0.2588 0.5175 0.0000 0.0100 Uiso
C6 C 0.1854 0.3707 0.0000 0.0100 Uiso
H2 H 0.1572 0.3143 0.000 0.0200 Uiso
C7 C 0.3694 0.6306 0.0000 0.0100 Uiso
H3 H 0.3977 0.6023 0.000 0.0200 Uiso
C8 C 0.2847 0.4803 0.0524 0.0100 Uiso
C10 C 0.5197 0.8044 0.0524 0.0100 Uiso
C12 C 0.1956 0.7153 0.0524 0.0100 Uiso
C32 C 0.6280 0.9043 0.1175 0.0100 Uiso
C34 C 0.0957 0.7237 0.1175 0.0100 Uiso
C35 C 0.2763 0.3720 0.1175 0.0100 Uiso
C54 C 0.2481 0.4077 0.0532 0.0100 Uiso
C56 C 0.5923 0.8404 0.0532 0.0100 Uiso
C58 C 0.1596 0.7519 0.0532 0.0100 Uiso
O4 O 0.6910 0.9266 0.1423 0.0100 Uiso
O6 O 0.0734 0.7644 0.1423 0.0100 Uiso
O7 O 0.2356 0.3090 0.1423 0.0100 Uiso
O29 O 0.6910 0.9266 0.3577 0.0100 Uiso
O34 O 0.0734 0.7644 0.3577 0.0100 Uiso
O35 O 0.3090 0.2356 0.3577 0.0100 Uiso
O36 O 0.2356 0.3090 0.3577 0.0100 Uiso
O37 O 0.3090 0.2356 0.1423 0.0100 Uiso
O39 O 0.5895 0.9292 0.1450 0.0100 Uiso
O41 O 0.0708 0.6603 0.1450 0.0100 Uiso
O42 O 0.3397 0.4105 0.1450 0.0100 Uiso
O64 O 0.5895 0.9292 0.3550 0.0100 Uiso
O69 O 0.0708 0.6603 0.3550 0.0100 Uiso
O70 O 0.4105 0.3397 0.3550 0.0100 Uiso
O71 O 0.3397 0.4105 0.3550 0.0100 Uiso
O72 O 0.4105 0.3397 0.1450 0.0100 Uiso
H4 H 0.3331 0.5072 0.0960 0.0200 Uiso
H5 H 0.4928 0.8259 0.0960 0.0200 Uiso
H7 H 0.1741 0.6669 0.0960 0.0200 Uiso
Cu4_2 Cu 0.6209 1.0000 0.2500 0.0100 Uiso
Cu6 Cu 0.0000 0.6209 0.2500 0.0100 Uiso
Cu7 Cu 0.3791 0.3791 0.2500 0.0100 Uiso
Cu18_2 Cu 0.7313 1.0000 0.2500 0.0100 Uiso
Cu20 Cu -0.0000 0.7313 0.2500 0.0100 Uiso
Cu21 Cu 0.2687 0.2687 0.2500 0.0100 Uiso
C77 C 0.4062 0.7031 0.0000 0.0100 Uiso
C78 C 0.2969 0.7031 0.0000 0.0100 Uiso
C88 C 0.4825 0.7413 0.0000 0.0100 Uiso
C89 C 0.2587 0.7412 0.0000 0.0100 Uiso
C99 C 0.6293 0.8147 0.0000 0.0100 Uiso
C100 C 0.1853 0.8146 0.0000 0.0100 Uiso
H27 H 0.6857 0.8429 0.000 0.0200 Uiso
H28 H 0.1571 0.8428 0.000 0.0200 Uiso
C110 C 0.3694 0.7388 0.0000 0.0100 Uiso
C111 C 0.2612 0.6306 0.0000 0.0100 Uiso
H38 H 0.2046 0.6023 0.000 0.0200 Uiso
H39 H 0.3977 0.7954 0.000 0.0200 Uiso
C1 C 0.1956 0.4803 0.9476 0.0100 Uiso
C2 C 0.0957 0.3720 0.8825 0.0100 Uiso
C3 C 0.1596 0.4077 0.9468 0.0100 Uiso
O1 O 0.0734 0.3090 0.8577 0.0100 Uiso
O2 O 0.0708 0.4105 0.8550 0.0100 Uiso
H1 H 0.1741 0.5072 0.9040 0.0200 Uiso
Cu1 Cu 0.0000 0.3791 0.7500 0.0100 Uiso
Cu2 Cu 0.0000 0.2687 0.7500 0.0100 Uiso
C4_2 C 0.2969 0.5938 1.0000 0.0100 Uiso
C5_2 C 0.2588 0.5175 1.0000 0.0100 Uiso
C6_2 C 0.1854 0.3707 1.0000 0.0100 Uiso
H2_2 H 0.1572 0.3143 1.000 0.0200 Uiso
C7_2 C 0.3694 0.6306 1.0000 0.0100 Uiso
H3_2 H 0.3977 0.6023 1.000 0.0200 Uiso
C9 C 0.5197 0.7153 0.9476 0.0100 Uiso
C11 C 0.2847 0.8044 0.9476 0.0100 Uiso
C19 C 0.1956 0.4803 0.5524 0.0100 Uiso
C20 C 0.2847 0.4803 0.4476 0.0100 Uiso
C21 C 0.5197 0.7153 0.5524 0.0100 Uiso
C22 C 0.5197 0.8044 0.4476 0.0100 Uiso
C23 C 0.2847 0.8044 0.5524 0.0100 Uiso
C24 C 0.1956 0.7153 0.4476 0.0100 Uiso
C31 C 0.6280 0.7237 0.8825 0.0100 Uiso
C33 C 0.2763 0.9043 0.8825 0.0100 Uiso
C42 C 0.0957 0.3720 0.6175 0.0100 Uiso
C43 C 0.6280 0.7237 0.6175 0.0100 Uiso
C44 C 0.6280 0.9043 0.3825 0.0100 Uiso
C45 C 0.2763 0.9043 0.6175 0.0100 Uiso
C46 C 0.0957 0.7237 0.3825 0.0100 Uiso
C47 C 0.2763 0.3720 0.3825 0.0100 Uiso
C55 C 0.5923 0.7519 0.9468 0.0100 Uiso
C57 C 0.2481 0.8404 0.9468 0.0100 Uiso
C65 C 0.1596 0.4077 0.5532 0.0100 Uiso
C66 C 0.2481 0.4077 0.4468 0.0100 Uiso
C67 C 0.5923 0.7519 0.5532 0.0100 Uiso
C68 C 0.5923 0.8404 0.4468 0.0100 Uiso
C69 C 0.2481 0.8404 0.5532 0.0100 Uiso
C70 C 0.1596 0.7519 0.4468 0.0100 Uiso
O3 O 0.6910 0.7644 0.8577 0.0100 Uiso
O5 O 0.2356 0.9266 0.8577 0.0100 Uiso
O14 O 0.0734 0.3090 0.6423 0.0100 Uiso
O15 O 0.6910 0.7644 0.6423 0.0100 Uiso
O17 O 0.2356 0.9266 0.6423 0.0100 Uiso
O26 O 0.7644 0.6910 0.6423 0.0100 Uiso
O27 O 0.7644 0.6910 0.8577 0.0100 Uiso
O38 O 0.5895 0.6603 0.8550 0.0100 Uiso
O40 O 0.3397 0.9292 0.8550 0.0100 Uiso
O49 O 0.0708 0.4105 0.6450 0.0100 Uiso
O50 O 0.5895 0.6603 0.6450 0.0100 Uiso
O52 O 0.3397 0.9292 0.6450 0.0100 Uiso
O61 O 0.6603 0.5895 0.6450 0.0100 Uiso
O62 O 0.6603 0.5895 0.8550 0.0100 Uiso
H6 H 0.4928 0.6669 0.9040 0.0200 Uiso
H8 H 0.3331 0.8259 0.9040 0.0200 Uiso
H15 H 0.1741 0.5072 0.5960 0.0200 Uiso
H16 H 0.3331 0.5072 0.4040 0.0200 Uiso
H17 H 0.4928 0.8259 0.4040 0.0200 Uiso
H18 H 0.4928 0.6669 0.5960 0.0200 Uiso
H19 H 0.1741 0.6669 0.4040 0.0200 Uiso
H20 H 0.3331 0.8259 0.5960 0.0200 Uiso
Cu3 Cu 0.6209 0.6209 0.7500 0.0100 Uiso
Cu5_2 Cu 0.3791 1.0000 0.7500 0.0100 Uiso
Cu17 Cu 0.7313 0.7313 0.7500 0.0100 Uiso
Cu19_2 Cu 0.2687 1.0000 0.7500 0.0100 Uiso
C77_2 C 0.4062 0.7031 1.0000 0.0100 Uiso
C78_2 C 0.2969 0.7031 1.0000 0.0100 Uiso
C82 C 0.2969 0.5938 0.5000 0.0100 Uiso
C83 C 0.4062 0.7031 0.5000 0.0100 Uiso
C84 C 0.2969 0.7031 0.5000 0.0100 Uiso
C88_2 C 0.4825 0.7413 1.0000 0.0100 Uiso
C89_2 C 0.2587 0.7412 1.0000 0.0100 Uiso
C93 C 0.2588 0.5175 0.5000 0.0100 Uiso
C94 C 0.4825 0.7413 0.5000 0.0100 Uiso
C95 C 0.2587 0.7412 0.5000 0.0100 Uiso
C99_2 C 0.6293 0.8147 1.0000 0.0100 Uiso
C100_2 C 0.1853 0.8146 1.0000 0.0100 Uiso
C104 C 0.1854 0.3707 0.5000 0.0100 Uiso
C105 C 0.6293 0.8147 0.5000 0.0100 Uiso
C106 C 0.1853 0.8146 0.5000 0.0100 Uiso
H27_2 H 0.6857 0.8429 1.000 0.0200 Uiso
H28_2 H 0.1571 0.8428 1.000 0.0200 Uiso
H32 H 0.1572 0.3143 0.500 0.0200 Uiso
H33 H 0.6857 0.8429 0.500 0.0200 Uiso
H34 H 0.1571 0.8428 0.500 0.0200 Uiso
C110_2 C 0.3694 0.7388 1.0000 0.0100 Uiso
C111_2 C 0.2612 0.6306 1.0000 0.0100 Uiso
C115 C 0.3694 0.6306 0.5000 0.0100 Uiso
C116 C 0.3694 0.7388 0.5000 0.0100 Uiso
C117 C 0.2612 0.6306 0.5000 0.0100 Uiso
H38_2 H 0.2046 0.6023 1.000 0.0200 Uiso
H39_2 H 0.3977 0.7954 1.000 0.0200 Uiso
H43 H 0.3977 0.6023 0.500 0.0200 Uiso
H44 H 0.2046 0.6023 0.500 0.0200 Uiso
H45 H 0.3977 0.7954 0.500 0.0200 Uiso
C26 C 0.7153 0.1956 0.0524 0.0100 Uiso
C28 C 0.4803 0.2847 0.0524 0.0100 Uiso
C30 C 0.8044 0.5197 0.0524 0.0100 Uiso
C50 C 0.3720 0.2763 0.1175 0.0100 Uiso
C52 C 0.9043 0.6280 0.1175 0.0100 Uiso
C53 C 0.7237 0.0957 0.1175 0.0100 Uiso
C72 C 0.7519 0.1596 0.0532 0.0100 Uiso
C74 C 0.4077 0.2481 0.0532 0.0100 Uiso
C76 C 0.8404 0.5923 0.0532 0.0100 Uiso
O24 O 0.9266 0.6910 0.1423 0.0100 Uiso
O33 O 0.9266 0.6910 0.3577 0.0100 Uiso
O59 O 0.9292 0.5895 0.1450 0.0100 Uiso
O68 O 0.9292 0.5895 0.3550 0.0100 Uiso
H22 H 0.6669 0.1741 0.0960 0.0200 Uiso
H23 H 0.5072 0.3331 0.0960 0.0200 Uiso
H25 H 0.8259 0.4928 0.0960 0.0200 Uiso
Cu6_2 Cu 1.0000 0.6209 0.2500 0.0100 Uiso
Cu20_2 Cu 1.0000 0.7313 0.2500 0.0100 Uiso
C85 C 0.7031 0.2969 0.0000 0.0100 Uiso
C86 C 0.5938 0.2969 0.0000 0.0100 Uiso
C87 C 0.7031 0.4062 0.0000 0.0100 Uiso
C96 C 0.7412 0.2587 0.0000 0.0100 Uiso
C97 C 0.5175 0.2588 0.0000 0.0100 Uiso
C98 C 0.7413 0.4825 0.0000 0.0100 Uiso
C107 C 0.8146 0.1853 0.0000 0.0100 Uiso
C108 C 0.3707 0.1854 0.0000 0.0100 Uiso
C109 C 0.8147 0.6293 0.0000 0.0100 Uiso
H35 H 0.8428 0.1571 0.000 0.0200 Uiso
H36 H 0.3143 0.1572 0.000 0.0200 Uiso
H37 H 0.8429 0.6857 0.000 0.0200 Uiso
C118 C 0.6306 0.2612 0.0000 0.0100 Uiso
C119 C 0.6306 0.3694 0.0000 0.0100 Uiso
C120 C 0.7388 0.3694 0.0000 0.0100 Uiso
H46 H 0.6023 0.2046 0.000 0.0200 Uiso
H47 H 0.7954 0.3977 0.000 0.0200 Uiso
H48 H 0.6023 0.3977 0.000 0.0200 Uiso
Cu1_2 Cu 1.0000 0.3791 0.7500 0.0100 Uiso
Cu2_2 Cu 1.0000 0.2687 0.7500 0.0100 Uiso
C13 C 0.8044 0.2847 0.5524 0.0100 Uiso
C14 C 0.7153 0.1956 0.4476 0.0100 Uiso
C15 C 0.4803 0.1956 0.5524 0.0100 Uiso
C16 C 0.4803 0.2847 0.4476 0.0100 Uiso
C17 C 0.7153 0.5197 0.5524 0.0100 Uiso
C18 C 0.8044 0.5197 0.4476 0.0100 Uiso
C25 C 0.8044 0.2847 0.9476 0.0100 Uiso
C27 C 0.4803 0.1956 0.9476 0.0100 Uiso
C29 C 0.7153 0.5197 0.9476 0.0100 Uiso
C36 C 0.9043 0.2763 0.6175 0.0100 Uiso
C37 C 0.3720 0.0957 0.6175 0.0100 Uiso
C38 C 0.3720 0.2763 0.3825 0.0100 Uiso
C39 C 0.7237 0.6280 0.6175 0.0100 Uiso
C40 C 0.9043 0.6280 0.3825 0.0100 Uiso
C41 C 0.7237 0.0957 0.3825 0.0100 Uiso
C48 C 0.9043 0.2763 0.8825 0.0100 Uiso
C49 C 0.3720 0.0957 0.8825 0.0100 Uiso
C51 C 0.7237 0.6280 0.8825 0.0100 Uiso
C59 C 0.8404 0.2481 0.5532 0.0100 Uiso
C60 C 0.7519 0.1596 0.4468 0.0100 Uiso
C61 C 0.4077 0.1596 0.5532 0.0100 Uiso
C62 C 0.4077 0.2481 0.4468 0.0100 Uiso
C63 C 0.7519 0.5923 0.5532 0.0100 Uiso
C64 C 0.8404 0.5923 0.4468 0.0100 Uiso
C71 C 0.8404 0.2481 0.9468 0.0100 Uiso
C73 C 0.4077 0.1596 0.9468 0.0100 Uiso
C75 C 0.7519 0.5923 0.9468 0.0100 Uiso
O8 O 0.9266 0.2356 0.6423 0.0100 Uiso
O20 O 0.9266 0.2356 0.8577 0.0100 Uiso
O43 O 0.9292 0.3397 0.6450 0.0100 Uiso
O55 O 0.9292 0.3397 0.8550 0.0100 Uiso
H9 H 0.8259 0.3331 0.5960 0.0200 Uiso
H10 H 0.6669 0.1741 0.4040 0.0200 Uiso
H11 H 0.5072 0.3331 0.4040 0.0200 Uiso
H12 H 0.5072 0.1741 0.5960 0.0200 Uiso
H13 H 0.8259 0.4928 0.4040 0.0200 Uiso
H14 H 0.6669 0.4928 0.5960 0.0200 Uiso
H21 H 0.8259 0.3331 0.9040 0.0200 Uiso
H24 H 0.5072 0.1741 0.9040 0.0200 Uiso
H26 H 0.6669 0.4928 0.9040 0.0200 Uiso
C79 C 0.7031 0.2969 0.5000 0.0100 Uiso
C80 C 0.5938 0.2969 0.5000 0.0100 Uiso
C81 C 0.7031 0.4062 0.5000 0.0100 Uiso
C85_2 C 0.7031 0.2969 1.0000 0.0100 Uiso
C86_2 C 0.5938 0.2969 1.0000 0.0100 Uiso
C87_2 C 0.7031 0.4062 1.0000 0.0100 Uiso
C90 C 0.7412 0.2587 0.5000 0.0100 Uiso
C91 C 0.5175 0.2588 0.5000 0.0100 Uiso
C92 C 0.7413 0.4825 0.5000 0.0100 Uiso
C96_2 C 0.7412 0.2587 1.0000 0.0100 Uiso
C97_2 C 0.5175 0.2588 1.0000 0.0100 Uiso
C98_2 C 0.7413 0.4825 1.0000 0.0100 Uiso
C101 C 0.8146 0.1853 0.5000 0.0100 Uiso
C102 C 0.3707 0.1854 0.5000 0.0100 Uiso
C103 C 0.8147 0.6293 0.5000 0.0100 Uiso
C107_2 C 0.8146 0.1853 1.0000 0.0100 Uiso
C108_2 C 0.3707 0.1854 1.0000 0.0100 Uiso
C109_2 C 0.8147 0.6293 1.0000 0.0100 Uiso
H29 H 0.8428 0.1571 0.500 0.0200 Uiso
H30 H 0.3143 0.1572 0.500 0.0200 Uiso
H31 H 0.8429 0.6857 0.500 0.0200 Uiso
H35_2 H 0.8428 0.1571 1.000 0.0200 Uiso
H36_2 H 0.3143 0.1572 1.000 0.0200 Uiso
H37_2 H 0.8429 0.6857 1.000 0.0200 Uiso
C112 C 0.6306 0.2612 0.5000 0.0100 Uiso
C113 C 0.6306 0.3694 0.5000 0.0100 Uiso
C114 C 0.7388 0.3694 0.5000 0.0100 Uiso
C118_2 C 0.6306 0.2612 1.0000 0.0100 Uiso
C119_2 C 0.6306 0.3694 1.0000 0.0100 Uiso
C120_2 C 0.7388 0.3694 1.0000 0.0100 Uiso
H40 H 0.6023 0.2046 0.500 0.0200 Uiso
H41 H 0.7954 0.3977 0.500 0.0200 Uiso
H42 H 0.6023 0.3977 0.500 0.0200 Uiso
H46_2 H 0.6023 0.2046 1.000 0.0200 Uiso
H47_2 H 0.7954 0.3977 1.000 0.0200 Uiso
H48_2 H 0.6023 0.3977 1.000 0.0200 Uiso
loop_
_geom_bond_atom_site_label_1
_geom_bond_atom_site_label_2
_geom_bond_site_symmetry_1
_geom_bond_site_symmetry_2
O28 Cu18 1_555 1_555
O30 Cu18 1_555 1_555
O63 Cu4 1_555 1_555
O65 Cu4 1_555 1_555
O31 Cu19 1_555 1_555
O32 Cu19 1_555 1_555
O66 Cu5 1_555 1_555
O67 Cu5 1_555 1_555
C4 C5 1_555 1_555
C6 H2 1_555 1_555
C7 C4 1_555 1_555
H3 C7 1_555 1_555
C8 C5 1_555 1_555
C10 C56 1_555 1_555
C12 C58 1_555 1_555
C32 C56 1_555 1_555
C34 C58 1_555 1_555
C35 C54 1_555 1_555
C54 C6 1_555 1_555
C56 C99 1_555 1_555
C58 C100 1_555 1_555
O4 C32 1_555 1_555
O6 C34 1_555 1_555
O7 C35 1_555 1_555
O29 Cu18_2 1_555 1_555
O34 Cu20 1_555 1_555
O35 Cu21 1_555 1_555
O36 Cu21 1_555 1_555
O37 Cu21 1_555 1_555
O39 C32 1_555 1_555
O41 C34 1_555 1_555
O42 C35 1_555 1_555
O64 Cu4_2 1_555 1_555
O69 Cu6 1_555 1_555
O70 Cu7 1_555 1_555
O71 Cu7 1_555 1_555
O72 Cu7 1_555 1_555
H4 C8 1_555 1_555
H5 C10 1_555 1_555
H7 C12 1_555 1_555
Cu4_2 O39 1_555 1_555
Cu6 O41 1_555 1_555
Cu7 O42 1_555 1_555
Cu18_2 O4 1_555 1_555
Cu20 O6 1_555 1_555
Cu21 O7 1_555 1_555
C77 C7 1_555 1_555
C78 C89 1_555 1_555
C99 H27 1_555 1_555
C100 H28 1_555 1_555
C110 C77 1_555 1_555
C111 C4 1_555 1_555
H38 C111 1_555 1_555
H39 C110 1_555 1_555
C8 C54 1_555 1_555
C10 C88 1_555 1_555
C12 C89 1_555 1_555
C77 C88 1_555 1_555
C78 C110 1_555 1_555
C78 C111 1_555 1_555
C1 C3 1_555 1_555
C2 C3 1_555 1_555
C3 C6_2 1_555 1_555
O1 C2 1_555 1_555
O2 C2 1_555 1_555
H1 C1 1_555 1_555
Cu1 O2 1_555 1_555
Cu2 O1 1_555 1_555
C4_2 C5_2 1_555 1_555
C5_2 C1 1_555 1_555
C6_2 H2_2 1_555 1_555
C7_2 C4_2 1_555 1_555
H3_2 C7_2 1_555 1_555
C9 C55 1_555 1_555
C11 C57 1_555 1_555
C19 C65 1_555 1_555
C20 C66 1_555 1_555
C21 C67 1_555 1_555
C22 C68 1_555 1_555
C23 C69 1_555 1_555
C24 C70 1_555 1_555
C31 C55 1_555 1_555
C33 C57 1_555 1_555
C42 C65 1_555 1_555
C43 C67 1_555 1_555
C44 C68 1_555 1_555
C45 C69 1_555 1_555
C46 C70 1_555 1_555
C47 C66 1_555 1_555
C55 C99_2 1_555 1_555
C57 C100_2 1_555 1_555
C65 C104 1_555 1_555
C66 C104 1_555 1_555
C67 C105 1_555 1_555
C68 C105 1_555 1_555
C69 C106 1_555 1_555
C70 C106 1_555 1_555
O3 C31 1_555 1_555
O5 C33 1_555 1_555
O14 Cu2 1_555 1_555
O15 C43 1_555 1_555
O29 C44 1_555 1_555
O17 C45 1_555 1_555
O34 C46 1_555 1_555
O36 C47 1_555 1_555
O26 Cu17 1_555 1_555
O27 Cu17 1_555 1_555
O38 C31 1_555 1_555
O40 C33 1_555 1_555
O49 Cu1 1_555 1_555
O50 C43 1_555 1_555
O64 C44 1_555 1_555
O52 C45 1_555 1_555
O69 C46 1_555 1_555
O71 C47 1_555 1_555
O61 Cu3 1_555 1_555
O62 Cu3 1_555 1_555
H6 C9 1_555 1_555
H8 C11 1_555 1_555
H15 C19 1_555 1_555
H16 C20 1_555 1_555
H17 C22 1_555 1_555
H18 C21 1_555 1_555
H19 C24 1_555 1_555
H20 C23 1_555 1_555
Cu3 O38 1_555 1_555
Cu5_2 O40 1_555 1_555
Cu17 O3 1_555 1_555
Cu19_2 O5 1_555 1_555
C77_2 C7_2 1_555 1_555
C78_2 C89_2 1_555 1_555
C82 C93 1_555 1_555
C83 C94 1_555 1_555
C84 C95 1_555 1_555
C88_2 C9 1_555 1_555
C89_2 C11 1_555 1_555
C93 C19 1_555 1_555
C94 C21 1_555 1_555
C95 C23 1_555 1_555
C99_2 H27_2 1_555 1_555
C100_2 H28_2 1_555 1_555
C104 H32 1_555 1_555
C105 H33 1_555 1_555
C106 H34 1_555 1_555
C110_2 C77_2 1_555 1_555
C111_2 C4_2 1_555 1_555
C115 C82 1_555 1_555
C116 C83 1_555 1_555
C117 C82 1_555 1_555
H38_2 C111_2 1_555 1_555
H39_2 C110_2 1_555 1_555
H43 C115 1_555 1_555
H44 C117 1_555 1_555
H45 C116 1_555 1_555
C20 C93 1_555 1_555
C22 C94 1_555 1_555
C24 C95 1_555 1_555
C42 O14 1_555 1_555
C42 O49 1_555 1_555
O15 Cu17 1_555 1_555
O17 Cu19_2 1_555 1_555
O50 Cu3 1_555 1_555
O52 Cu5_2 1_555 1_555
C77_2 C88_2 1_555 1_555
C78_2 C110_2 1_555 1_555
C78_2 C111_2 1_555 1_555
C83 C115 1_555 1_555
C84 C116 1_555 1_555
C84 C117 1_555 1_555
C26 C72 1_555 1_555
C28 C74 1_555 1_555
C30 C76 1_555 1_555
C50 C74 1_555 1_555
C52 C76 1_555 1_555
C53 C72 1_555 1_555
C72 C107 1_555 1_555
C74 C108 1_555 1_555
C76 C109 1_555 1_555
O37 C50 1_555 1_555
O24 C52 1_555 1_555
O30 C53 1_555 1_555
O33 Cu20_2 1_555 1_555
O72 C50 1_555 1_555
O59 C52 1_555 1_555
O65 C53 1_555 1_555
O68 Cu6_2 1_555 1_555
H22 C26 1_555 1_555
H23 C28 1_555 1_555
H25 C30 1_555 1_555
C85 C96 1_555 1_555
C86 C97 1_555 1_555
C87 C98 1_555 1_555
C107 H35 1_555 1_555
C108 H36 1_555 1_555
C109 H37 1_555 1_555
C118 C85 1_555 1_555
C119 C86 1_555 1_555
C120 C85 1_555 1_555
H46 C118 1_555 1_555
H47 C120 1_555 1_555
H48 C119 1_555 1_555
C26 C96 1_555 1_555
C28 C97 1_555 1_555
C30 C98 1_555 1_555
O24 Cu20_2 1_555 1_555
O59 Cu6_2 1_555 1_555
C86 C118 1_555 1_555
C87 C119 1_555 1_555
C87 C120 1_555 1_555
C13 C59 1_555 1_555
C14 C60 1_555 1_555
C15 C61 1_555 1_555
C16 C62 1_555 1_555
C17 C63 1_555 1_555
C18 C64 1_555 1_555
C25 C71 1_555 1_555
C27 C73 1_555 1_555
C29 C75 1_555 1_555
C36 C59 1_555 1_555
C37 C61 1_555 1_555
C38 C62 1_555 1_555
C39 C63 1_555 1_555
C40 C64 1_555 1_555
C41 C60 1_555 1_555
C48 C71 1_555 1_555
C49 C73 1_555 1_555
C51 C75 1_555 1_555
C59 C101 1_555 1_555
C60 C101 1_555 1_555
C61 C102 1_555 1_555
C62 C102 1_555 1_555
C63 C103 1_555 1_555
C64 C103 1_555 1_555
C71 C107_2 1_555 1_555
C73 C108_2 1_555 1_555
C75 C109_2 1_555 1_555
O8 Cu2_2 1_555 1_555
O31 C37 1_555 1_555
O35 C38 1_555 1_555
O26 C39 1_555 1_555
O33 C40 1_555 1_555
O28 C41 1_555 1_555
O20 Cu2_2 1_555 1_555
O32 C49 1_555 1_555
O27 C51 1_555 1_555
O43 Cu1_2 1_555 1_555
O66 C37 1_555 1_555
O70 C38 1_555 1_555
O61 C39 1_555 1_555
O68 C40 1_555 1_555
O63 C41 1_555 1_555
O55 Cu1_2 1_555 1_555
O67 C49 1_555 1_555
O62 C51 1_555 1_555
H9 C13 1_555 1_555
H10 C14 1_555 1_555
H11 C16 1_555 1_555
H12 C15 1_555 1_555
H13 C18 1_555 1_555
H14 C17 1_555 1_555
H21 C25 1_555 1_555
H24 C27 1_555 1_555
H26 C29 1_555 1_555
C79 C90 1_555 1_555
C80 C91 1_555 1_555
C81 C92 1_555 1_555
C85_2 C96_2 1_555 1_555
C86_2 C97_2 1_555 1_555
C87_2 C98_2 1_555 1_555
C90 C13 1_555 1_555
C91 C15 1_555 1_555
C92 C17 1_555 1_555
C96_2 C25 1_555 1_555
C97_2 C27 1_555 1_555
C98_2 C29 1_555 1_555
C101 H29 1_555 1_555
C102 H30 1_555 1_555
C103 H31 1_555 1_555
C107_2 H35_2 1_555 1_555
C108_2 H36_2 1_555 1_555
C109_2 H37_2 1_555 1_555
C112 C79 1_555 1_555
C113 C80 1_555 1_555
C114 C79 1_555 1_555
C118_2 C85_2 1_555 1_555
C119_2 C86_2 1_555 1_555
C120_2 C85_2 1_555 1_555
H40 C112 1_555 1_555
H41 C114 1_555 1_555
H42 C113 1_555 1_555
H46_2 C118_2 1_555 1_555
H47_2 C120_2 1_555 1_555
H48_2 C119_2 1_555 1_555
C14 C90 1_555 1_555
C16 C91 1_555 1_555
C18 C92 1_555 1_555
C36 O8 1_555 1_555
C36 O43 1_555 1_555
C48 O20 1_555 1_555
C48 O55 1_555 1_555
C80 C112 1_555 1_555
C81 C113 1_555 1_555
C81 C114 1_555 1_555
C86_2 C118_2 1_555 1_555
C87_2 C119_2 1_555 1_555
C87_2 C120_2 1_555 1_555

#END
