
###############################################################################
#
# This file contains modified crystal structure data generated from the
# MOF subset of the Cambridge Structural Database (CSD) v543 
# hosted by the Cambridge Crystallographic Data Centre (CCDC).
#
# This work is licensed under the Creative Commons
# Attribution-NonCommercial-ShareAlike 4.0 International License.
# To view a copy of this license, visit
# http://creativecommons.org/licenses/by-nc-sa/4.0/
# or send a letter to
# Creative Commons, PO Box 1866, Mountain View, CA 94042, USA.
#
# CIF created using the CSD Python API on 29 September 2022
# The structure has been converted into the P1 space group
# The structure has a 3D framework
# The original CSD entry ONOCIG is in the monoclinic crystal system
# The framework has been calculated to contain at least 10.0% void space
# The void calculation uses a probe of radius 1.32A, grid spacing 0.4
# The framework is charged, counterions have been retained in the structure
#
###############################################################################

data_ONOCIG
_chemical_formula_moiety         '(C432 H296 Cd16 F6 N54 O78 2-)n'
_symmetry_cell_setting           triclinic
_symmetry_space_group_name_H-M   'P 1'
_symmetry_Int_Tables_number      1
_space_group_name_Hall           'P 1'
loop_
_symmetry_equiv_pos_site_id
_symmetry_equiv_pos_as_xyz
1 x,y,z
_cell_length_a                   22.138(2)
_cell_length_b                   23.845(2)
_cell_length_c                   24.660(3)
_cell_angle_alpha                90
_cell_angle_beta                 94.232(4)
_cell_angle_gamma                90
_cell_volume                     12982
loop_
_atom_site_label
_atom_site_type_symbol
_atom_site_fract_x
_atom_site_fract_y
_atom_site_fract_z
Cd1 Cd 0.24689(3) 0.32726(3) 0.25828(3)
Cd2 Cd 0.35780(3) 0.76056(3) 0.82590(3)
O1 O 0.4178(3) 0.7290(3) 0.7621(2)
O2 O 0.3226(3) 0.7253(3) 0.7282(3)
O3 O 0.7957(3) 0.7183(3) 0.3975(3)
N1 N 0.1001(3) 0.2755(4) 0.1397(3)
O4 O 0.7473(3) 0.7449(3) 0.3204(3)
O5 O 0.3450(4) 0.8523(4) 0.7910(3)
H1 H 0.300188 0.879884 0.783487
H2 H 0.381908 0.884026 0.776200
C1 C 0.4597(4) 0.6823(4) 0.6697(3)
H3 H 0.486876 0.689288 0.699483
O6 O 0.3561(4) 0.3264(3) 0.3650(3)
O7 O 0.3225(3) 0.3823(4) 0.2950(4)
C2 C 0.5851(4) 0.6692(4) 0.4327(4)
C3 C 0.3987(4) 0.6924(5) 0.6729(4)
C4 C 0.4604(4) 0.6299(4) 0.5257(3)
C5 C 0.6849(5) 0.7085(5) 0.4471(4)
H4 H 0.717458 0.719626 0.470613
C6 C 0.6322(5) 0.6895(4) 0.4671(4)
H5 H 0.628152 0.690320 0.504323
C8 C 0.5093(4) 0.6564(4) 0.5037(4)
H6 H 0.527915 0.686055 0.522883
N5 N 0.1778(4) 0.2813(4) 0.2006(3)
C9 C 0.4387(4) 0.6497(5) 0.5764(3)
C10 C 0.4351(4) 0.5869(4) 0.4988(3)
H7 H 0.402373 0.569092 0.512959
C12 C 0.3588(4) 0.6797(5) 0.6290(4)
H9 H 0.317675 0.686113 0.631601
C13 C 0.6884(5) 0.7108(5) 0.3900(4)
C15 C 0.7482(5) 0.7274(5) 0.3688(4)
C16 C 0.6392(4) 0.6937(5) 0.3568(3)
H10 H 0.640707 0.696846 0.319370
C18 C 0.4273(4) 0.5156(4) 0.4210(4)
H12 H 0.000865 0.316872 0.174547
C20 C 0.4560(4) 0.5668(4) 0.4492(3)
C21 C 0.1285(4) 0.3046(5) 0.1800(4)
H13 H 0.114170 0.338618 0.192292
C22 C 0.3789(4) 0.7170(5) 0.7245(4)
C23 C 0.4804(4) 0.6616(5) 0.6215(4)
H14 H 0.521573 0.655520 0.618896
C24 C 0.3778(4) 0.6578(5) 0.5818(4)
H15 H 0.349618 0.648346 0.553393
C25 C 0.5893(5) 0.6728(5) 0.3764(4)
H16 H 0.557288 0.660696 0.352726
C26 C 0.5035(4) 0.5944(4) 0.4272(4)
H17 H 0.516941 0.582453 0.394247
C27 C 0.5315(4) 0.6407(4) 0.4547(3)
C29 C 0.1329(4) 0.2267(4) 0.1334(4)
C30 C 0.0412(4) 0.2896(4) 0.0528(4)
H19 H 0.072704 0.274253 0.034629
C31 C 0.0447(4) 0.2928(4) 0.1095(4)
C32 C 0.3841(5) 0.4248(5) 0.4219(5)
H20 H 0.374105 0.393776 0.442228
C35 C 0.3754(5) 0.4230(4) 0.3672(4)
C36 C 0.4074(5) 0.4715(5) 0.4479(4)
H21 H 0.409518 0.472539 0.485641
C38 C 0.3934(5) 0.4669(5) 0.3388(4)
H23 H 0.389285 0.465164 0.301062
C39 C 0.2179(5) 0.1417(5) 0.1453(6)
H24 H 0.246840 0.113370 0.146950
C40 C 0.4172(6) 0.5134(5) 0.3624(4)
H25 H 0.427031 0.543967 0.341349
C41 C 0.1811(4) 0.2324(4) 0.1724(4)
C42 C 0.1264(4) 0.1803(5) 0.1024(5)
H26 H 0.093480 0.176991 0.076903
C43 C 0.3501(5) 0.3712(5) 0.3410(4)
C45 C 0.2249(5) 0.1880(5) 0.1801(5)
H28 H 0.256545 0.189954 0.207031
C46 C 0.1679(5) 0.1383(5) 0.1084(6)
H29 H 0.162485 0.106258 0.086986
O8 O 0.2409(6) 0.4017(5) 0.1920(4)
H32 H 0.228867 0.440072 0.196765
H33 H 0.249370 0.399450 0.154213
Cd4 Cd 0.74689(3) 0.82726(3) 0.25828(3)
Cd5 Cd 0.24689(3) 0.67274(3) 0.75828(3)
Cd7 Cd 0.35780(3) 0.23944(3) 0.32590(3)
Cd8 Cd 0.85780(3) 0.73944(3) 0.32590(3)
O9 O 0.3226(3) 0.2747(3) 0.2282(3)
O10 O 0.2957(3) 0.7817(3) 0.8975(3)
O11 O 0.2473(3) 0.2449(3) 0.3204(3)
O12 O 0.2473(3) 0.7551(3) 0.8204(3)
O13 O 0.3561(4) 0.6736(3) 0.8650(3)
N7 N 0.1755(3) 0.3644(4) 0.3086(3)
N8 N 0.4371(4) 0.7897(4) 0.8841(3)
N2 N 0.9005(3) 0.3591(4) 0.1342(3)
N4 N 0.8245(3) 0.3644(4) 0.1914(3)
C7 C 0.9480(4) 0.3349(4) 0.1077(4)
C11 C 0.8710(4) 0.3351(5) 0.1749(4)
H8 H 0.882591 0.300770 0.190158
C14 C 0.9905(4) 0.3095(5) 0.0250(4)
C19 C 0.9980(4) 0.3153(4) 0.1368(4)
C28 C 0.9420(4) 0.3324(4) 0.0509(4)
H18 H 0.907298 0.345270 0.031145
C48 C 0.8246(7) 0.4154(6) 0.1572(6)
C50 C 0.8700(7) 0.4086(5) 0.1239(6)
C51 C 0.7818(7) 0.4571(6) 0.1505(8)
H34 H 0.749800 0.458335 0.172914
C52 C 0.7859(8) 0.4946(7) 0.1133(8)
H35 H 0.759486 0.524991 0.111591
C53 C 0.8732(9) 0.4476(8) 0.0827(9)
H36 H 0.904035 0.446372 0.059074
C54 C 0.8269(8) 0.4905(7) 0.0778(9)
H37 H 0.826211 0.515555 0.048922
Cd3 Cd 0.75311(3) 0.32726(3) 0.24172(3)
N3 N 0.9836(3) 0.3053(4) 0.9678(3)
N6 N 0.9371(4) 0.2897(4) 0.8841(3)
C17 C 0.9322(4) 0.2908(5) 0.9379(4)
H11 H 0.896371 0.282195 0.953495
C34 C 0.9962(5) 0.3098(5) 0.8787(4)
Cd6 Cd 0.85780(3) 0.26056(3) 0.82590(3)
N2_2 N 0.0995(3) 0.3591(4) 0.3658(3)
N3_2 N 0.0164(3) 0.3053(4) 0.5322(3)
C7_2 C 0.0520(4) 0.3349(4) 0.3923(4)
C11_2 C 0.1290(4) 0.3351(5) 0.3251(4)
H8_2 H 0.117409 0.300770 0.309842
N6_2 N 0.0629(4) 0.2897(4) 0.6159(3)
C14_2 C 0.0095(4) 0.3095(5) 0.4750(4)
C17_2 C 0.0678(4) 0.2908(5) 0.5621(4)
H11_2 H 0.103629 0.282195 0.546505
C19_2 C 0.0020(4) 0.3153(4) 0.3632(4)
C28_2 C 0.0580(4) 0.3324(4) 0.4491(4)
H18_2 H 0.092702 0.345270 0.468855
C34_2 C 0.0038(5) 0.3098(5) 0.6213(4)
C48_2 C 0.1754(7) 0.4154(6) 0.3428(6)
C50_2 C 0.1300(7) 0.4086(5) 0.3761(6)
C51_2 C 0.2182(7) 0.4571(6) 0.3495(8)
H34_2 H 0.250200 0.458335 0.327086
C52_2 C 0.2141(8) 0.4946(7) 0.3867(8)
H35_2 H 0.240514 0.524991 0.388409
C53_2 C 0.1268(9) 0.4476(8) 0.4173(9)
H36_2 H 0.095965 0.446372 0.440926
C54_2 C 0.1731(8) 0.4905(7) 0.4222(9)
H37_2 H 0.173789 0.515555 0.451078
Cd6_2 Cd 0.14220(3) 0.26056(3) 0.67410(3)
O3_2 O 0.2043(3) 0.7183(3) 0.1025(3)
N1_2 N 0.8999(3) 0.2755(4) 0.3603(3)
O4_2 O 0.2527(3) 0.7449(3) 0.1796(3)
O6_2 O 0.6439(4) 0.3264(3) 0.1350(3)
O7_2 O 0.6775(3) 0.3823(4) 0.2050(4)
C2_2 C 0.4149(4) 0.6692(4) 0.0673(4)
C5_2 C 0.3151(5) 0.7085(5) 0.0529(4)
H4_2 H 0.282542 0.719626 0.029387
C6_2 C 0.3678(5) 0.6895(4) 0.0329(4)
N5_2 N 0.8222(4) 0.2813(4) 0.2994(3)
C10_2 C 0.5649(4) 0.5869(4) 0.0012(3)
C13_2 C 0.3116(5) 0.7108(5) 0.1100(4)
C15_2 C 0.2518(5) 0.7274(5) 0.1312(4)
C16_2 C 0.3608(4) 0.6937(5) 0.1432(3)
H10_2 H 0.359293 0.696846 0.180630
C18_2 C 0.5727(4) 0.5156(4) 0.0790(4)
H12_2 H 0.999135 0.316872 0.325453
C20_2 C 0.5440(4) 0.5668(4) 0.0508(3)
C21_2 C 0.8715(4) 0.3046(5) 0.3200(4)
H13_2 H 0.885830 0.338618 0.307708
C25_2 C 0.4107(5) 0.6728(5) 0.1236(4)
H16_2 H 0.442712 0.660696 0.147274
C26_2 C 0.4965(4) 0.5944(4) 0.0728(4)
H17_2 H 0.483059 0.582453 0.105753
C27_2 C 0.4685(4) 0.6407(4) 0.0453(3)
C29_2 C 0.8671(4) 0.2267(4) 0.3666(4)
C30_2 C 0.9588(4) 0.2896(4) 0.4472(4)
H19_2 H 0.927296 0.274253 0.465371
C31_2 C 0.9553(4) 0.2928(4) 0.3905(4)
C32_2 C 0.6159(5) 0.4248(5) 0.0781(5)
H20_2 H 0.625895 0.393776 0.057772
C33 C 0.9738(5) 0.3174(4) 0.5698(4)
C35_2 C 0.6246(5) 0.4230(4) 0.1328(4)
C36_2 C 0.5926(5) 0.4715(5) 0.0521(4)
H21_2 H 0.590482 0.472539 0.014359
C37 C 0.9723(7) 0.3191(5) 0.6674(5)
H22 H 0.990792 0.312821 0.701924
C38_2 C 0.6066(5) 0.4669(5) 0.1612(4)
H23_2 H 0.610715 0.465164 0.198938
C39_2 C 0.7821(5) 0.1417(5) 0.3547(6)
H24_2 H 0.753160 0.113370 0.353050
C40_2 C 0.5828(6) 0.5134(5) 0.1376(4)
H25_2 H 0.572969 0.543967 0.158651
C41_2 C 0.8189(4) 0.2324(4) 0.3276(4)
C42_2 C 0.8736(4) 0.1803(5) 0.3976(5)
H26_2 H 0.906520 0.176991 0.423097
C43_2 C 0.6499(5) 0.3712(5) 0.1590(4)
C44 C 0.9143(7) 0.3374(6) 0.6609(5)
H27 H 0.892948 0.344156 0.691259
C45_2 C 0.7751(5) 0.1880(5) 0.3199(5)
H28_2 H 0.743455 0.189954 0.292969
C46_2 C 0.8321(5) 0.1383(5) 0.3916(6)
H29_2 H 0.837515 0.106258 0.413014
C47 C 0.9140(6) 0.3364(5) 0.5644(6)
H30 H 0.893527 0.342213 0.530554
C49 C 0.8875(6) 0.3457(6) 0.6112(6)
H31 H 0.847878 0.358891 0.608708
O8_2 O 0.7591(6) 0.4017(5) 0.3080(4)
H32_2 H 0.771133 0.440072 0.303235
H33_2 H 0.750630 0.399450 0.345787
Cd4_2 Cd 0.25311(3) 0.82726(3) 0.24172(3)
Cd7_2 Cd 0.64220(3) 0.23944(3) 0.17410(3)
Cd8_2 Cd 0.14220(3) 0.73944(3) 0.17410(3)
O9_2 O 0.6774(3) 0.2747(3) 0.2718(3)
O11_2 O 0.7527(3) 0.2449(3) 0.1796(3)
Cd2_2 Cd 0.64220(3) 0.76056(3) 0.67410(3)
O1_2 O 0.5822(3) 0.7290(3) 0.7379(2)
O2_2 O 0.6774(3) 0.7253(3) 0.7718(3)
O5_2 O 0.6550(4) 0.8523(4) 0.7090(3)
H1_2 H 0.699812 0.879884 0.716513
H2_2 H 0.618092 0.884026 0.723800
C1_2 C 0.5403(4) 0.6823(4) 0.8303(3)
H3_2 H 0.513124 0.689288 0.800517
C3_2 C 0.6013(4) 0.6924(5) 0.8271(4)
C4_2 C 0.5396(4) 0.6299(4) 0.9743(3)
H5_2 H 0.371848 0.690320 0.995677
C8_2 C 0.4907(4) 0.6564(4) 0.9963(4)
H6_2 H 0.472085 0.686055 0.977117
C9_2 C 0.5613(4) 0.6497(5) 0.9236(3)
H7_2 H 0.597627 0.569092 0.987041
C12_2 C 0.6412(4) 0.6797(5) 0.8710(4)
H9_2 H 0.682325 0.686113 0.868399
C22_2 C 0.6211(4) 0.7170(5) 0.7755(4)
C23_2 C 0.5196(4) 0.6616(5) 0.8785(4)
H14_2 H 0.478427 0.655520 0.881104
C24_2 C 0.6222(4) 0.6578(5) 0.9182(4)
H15_2 H 0.650382 0.648346 0.946607
Cd5_2 Cd 0.75311(3) 0.67274(3) 0.74172(3)
O10_2 O 0.7043(3) 0.7817(3) 0.6025(3)
O12_2 O 0.7527(3) 0.7551(3) 0.6796(3)
O13_2 O 0.6439(4) 0.6736(3) 0.6350(3)
N8_2 N 0.5629(4) 0.7897(4) 0.6159(3)
O3_3 O 0.2957(3) 0.2183(3) 0.3975(3)
C2_3 C 0.0851(4) 0.1692(4) 0.4327(4)
C5_3 C 0.1849(5) 0.2085(5) 0.4471(4)
H4_3 H 0.217458 0.219626 0.470613
C6_3 C 0.1322(5) 0.1895(4) 0.4671(4)
H5_3 H 0.128152 0.190320 0.504323
C8_3 C 0.0093(4) 0.1564(4) 0.5037(4)
H6_3 H 0.027915 0.186055 0.522883
C13_3 C 0.1884(5) 0.2108(5) 0.3900(4)
C15_3 C 0.2482(5) 0.2274(5) 0.3688(4)
C16_3 C 0.1392(4) 0.1937(5) 0.3568(3)
H10_3 H 0.140707 0.196846 0.319370
H14_3 H 0.021573 0.155520 0.618896
C25_3 C 0.0893(5) 0.1728(5) 0.3764(4)
H16_3 H 0.057288 0.160696 0.352726
C26_3 C 0.0035(4) 0.0944(4) 0.4272(4)
H17_3 H 0.016941 0.082453 0.394247
C27_3 C 0.0315(4) 0.1407(4) 0.4547(3)
O1_3 O 0.9178(3) 0.2290(3) 0.7621(2)
O2_3 O 0.8226(3) 0.2253(3) 0.7282(3)
O5_3 O 0.8450(4) 0.3523(4) 0.7910(3)
H1_3 H 0.800188 0.379884 0.783487
H2_3 H 0.881908 0.384026 0.776200
C1_3 C 0.9597(4) 0.1823(4) 0.6697(3)
H3_3 H 0.986876 0.189288 0.699483
C3_3 C 0.8987(4) 0.1924(5) 0.6729(4)
C4_3 C 0.9604(4) 0.1299(4) 0.5257(3)
C9_3 C 0.9387(4) 0.1497(5) 0.5764(3)
C10_3 C 0.9351(4) 0.0869(4) 0.4988(3)
H7_3 H 0.902373 0.069092 0.512959
C12_3 C 0.8588(4) 0.1797(5) 0.6290(4)
H9_3 H 0.817675 0.186113 0.631601
C18_3 C 0.9273(4) 0.0156(4) 0.4210(4)
C20_3 C 0.9560(4) 0.0668(4) 0.4492(3)
C22_3 C 0.8789(4) 0.2170(5) 0.7245(4)
C23_3 C 0.9804(4) 0.1616(5) 0.6215(4)
C24_3 C 0.8778(4) 0.1578(5) 0.5818(4)
H15_3 H 0.849618 0.148346 0.553393
C40_3 C 0.9172(6) 0.0134(5) 0.3624(4)
H25_3 H 0.927031 0.043967 0.341349
H35_3 H 0.259486 0.024991 0.111591
H37_3 H 0.326211 0.015555 0.048922
Cd5_3 Cd 0.74689(3) 0.17274(3) 0.75828(3)
O10_3 O 0.7957(3) 0.2817(3) 0.8975(3)
O12_3 O 0.7473(3) 0.2551(3) 0.8204(3)
O13_3 O 0.8561(4) 0.1736(3) 0.8650(3)
N1_3 N 0.6001(3) 0.7755(4) 0.1397(3)
N2_3 N 0.4005(3) 0.8591(4) 0.1342(3)
O6_3 O 0.8561(4) 0.8264(3) 0.3650(3)
O7_3 O 0.8225(3) 0.8823(4) 0.2950(4)
N4_2 N 0.3245(3) 0.8644(4) 0.1914(3)
C7_3 C 0.4480(4) 0.8349(4) 0.1077(4)
N5_3 N 0.6778(4) 0.7813(4) 0.2006(3)
C11_3 C 0.3710(4) 0.8351(5) 0.1749(4)
H8_3 H 0.382591 0.800770 0.190158
C14_3 C 0.4905(4) 0.8095(5) 0.0250(4)
C19_3 C 0.4980(4) 0.8153(4) 0.1368(4)
H12_3 H 0.500865 0.816872 0.174547
C21_3 C 0.6285(4) 0.8046(5) 0.1800(4)
H13_3 H 0.614170 0.838618 0.192292
C28_3 C 0.4420(4) 0.8324(4) 0.0509(4)
H18_3 H 0.407298 0.845270 0.031145
C29_3 C 0.6329(4) 0.7267(4) 0.1334(4)
C30_3 C 0.5412(4) 0.7896(4) 0.0528(4)
H19_3 H 0.572704 0.774253 0.034629
C31_3 C 0.5447(4) 0.7928(4) 0.1095(4)
C32_3 C 0.8841(5) 0.9248(5) 0.4219(5)
H20_3 H 0.874105 0.893776 0.442228
C35_3 C 0.8754(5) 0.9230(4) 0.3672(4)
C36_3 C 0.9074(5) 0.9715(5) 0.4479(4)
H21_3 H 0.909518 0.972539 0.485641
C38_3 C 0.8934(5) 0.9669(5) 0.3388(4)
H23_3 H 0.889285 0.965164 0.301062
C39_3 C 0.7179(5) 0.6417(5) 0.1453(6)
H24_3 H 0.746840 0.613370 0.146950
C41_3 C 0.6811(4) 0.7324(4) 0.1724(4)
C42_3 C 0.6264(4) 0.6803(5) 0.1024(5)
H26_3 H 0.593480 0.676991 0.076903
C43_3 C 0.8501(5) 0.8712(5) 0.3410(4)
C45_3 C 0.7249(5) 0.6880(5) 0.1801(5)
H28_3 H 0.756545 0.689954 0.207031
C46_3 C 0.6679(5) 0.6383(5) 0.1084(6)
H29_3 H 0.662485 0.606258 0.086986
C48_3 C 0.3246(7) 0.9154(6) 0.1572(6)
C50_3 C 0.3700(7) 0.9086(5) 0.1239(6)
O8_3 O 0.7409(6) 0.9017(5) 0.1920(4)
H32_3 H 0.728867 0.940072 0.196765
H33_3 H 0.749370 0.899450 0.154213
C51_3 C 0.2818(7) 0.9571(6) 0.1505(8)
H34_3 H 0.249800 0.958335 0.172914
C52_3 C 0.2859(8) 0.9946(7) 0.1133(8)
C53_3 C 0.3732(9) 0.9476(8) 0.0827(9)
H36_3 H 0.404035 0.946372 0.059074
C54_3 C 0.3269(8) 0.9905(7) 0.0778(9)
O9_3 O 0.8226(3) 0.7747(3) 0.2282(3)
N7_2 N 0.6755(3) 0.8644(4) 0.3086(3)
N3_3 N 0.4836(3) 0.8053(4) 0.9678(3)
C17_3 C 0.4322(4) 0.7908(5) 0.9379(4)
H11_3 H 0.396371 0.782195 0.953495
C33_2 C 0.5262(5) 0.8174(4) 0.9302(4)
C34_3 C 0.4962(5) 0.8098(5) 0.8787(4)
C37_2 C 0.5277(7) 0.8191(5) 0.8326(5)
H22_2 H 0.509208 0.812821 0.798076
C44_2 C 0.5857(7) 0.8374(6) 0.8391(5)
H27_2 H 0.607052 0.844156 0.808741
C47_2 C 0.5860(6) 0.8364(5) 0.9356(6)
H30_2 H 0.606473 0.842213 0.969446
C49_2 C 0.6125(6) 0.8457(6) 0.8888(6)
H31_2 H 0.652122 0.858891 0.891292
O1_4 O 0.0822(3) 0.2290(3) 0.7379(2)
O2_4 O 0.1774(3) 0.2253(3) 0.7718(3)
O5_4 O 0.1550(4) 0.3523(4) 0.7090(3)
H1_4 H 0.199812 0.379884 0.716513
H2_4 H 0.118092 0.384026 0.723800
C1_4 C 0.0403(4) 0.1823(4) 0.8303(3)
H3_4 H 0.013124 0.189288 0.800517
C3_4 C 0.1013(4) 0.1924(5) 0.8271(4)
C4_4 C 0.0396(4) 0.1299(4) 0.9743(3)
C9_4 C 0.0613(4) 0.1497(5) 0.9236(3)
H7_4 H 0.097627 0.069092 0.987041
C12_4 C 0.1412(4) 0.1797(5) 0.8710(4)
H9_4 H 0.182325 0.186113 0.868399
C22_4 C 0.1211(4) 0.2170(5) 0.7755(4)
C23_4 C 0.0196(4) 0.1616(5) 0.8785(4)
C24_4 C 0.1222(4) 0.1578(5) 0.9182(4)
H15_4 H 0.150382 0.148346 0.946607
Cd5_4 Cd 0.25311(3) 0.17274(3) 0.74172(3)
O10_4 O 0.2043(3) 0.2817(3) 0.6025(3)
O12_4 O 0.2527(3) 0.2551(3) 0.6796(3)
O13_4 O 0.1439(4) 0.1736(3) 0.6350(3)
N1_4 N 0.3999(3) 0.7755(4) 0.3603(3)
N2_4 N 0.5995(3) 0.8591(4) 0.3658(3)
N3_4 N 0.5164(3) 0.8053(4) 0.5322(3)
O6_4 O 0.1439(4) 0.8264(3) 0.1350(3)
O7_4 O 0.1775(3) 0.8823(4) 0.2050(4)
C7_4 C 0.5520(4) 0.8349(4) 0.3923(4)
N5_4 N 0.3222(4) 0.7813(4) 0.2994(3)
C11_4 C 0.6290(4) 0.8351(5) 0.3251(4)
H8_4 H 0.617409 0.800770 0.309842
C14_4 C 0.5095(4) 0.8095(5) 0.4750(4)
C17_4 C 0.5678(4) 0.7908(5) 0.5621(4)
H11_4 H 0.603629 0.782195 0.546505
C19_4 C 0.5020(4) 0.8153(4) 0.3632(4)
H12_4 H 0.499135 0.816872 0.325453
C21_4 C 0.3715(4) 0.8046(5) 0.3200(4)
H13_4 H 0.385830 0.838618 0.307708
C28_4 C 0.5580(4) 0.8324(4) 0.4491(4)
H18_4 H 0.592702 0.845270 0.468855
C29_4 C 0.3671(4) 0.7267(4) 0.3666(4)
C30_4 C 0.4588(4) 0.7896(4) 0.4472(4)
H19_4 H 0.427296 0.774253 0.465371
C31_4 C 0.4553(4) 0.7928(4) 0.3905(4)
C32_4 C 0.1159(5) 0.9248(5) 0.0781(5)
H20_4 H 0.125895 0.893776 0.057772
C33_3 C 0.4738(5) 0.8174(4) 0.5698(4)
C34_4 C 0.5038(5) 0.8098(5) 0.6213(4)
C35_4 C 0.1246(5) 0.9230(4) 0.1328(4)
C36_4 C 0.0926(5) 0.9715(5) 0.0521(4)
H21_4 H 0.090482 0.972539 0.014359
C37_3 C 0.4723(7) 0.8191(5) 0.6674(5)
H22_3 H 0.490792 0.812821 0.701924
C38_4 C 0.1066(5) 0.9669(5) 0.1612(4)
H23_4 H 0.110715 0.965164 0.198938
C39_4 C 0.2821(5) 0.6417(5) 0.3547(6)
H24_4 H 0.253160 0.613370 0.353050
C41_4 C 0.3189(4) 0.7324(4) 0.3276(4)
C42_4 C 0.3736(4) 0.6803(5) 0.3976(5)
H26_4 H 0.406520 0.676991 0.423097
C43_4 C 0.1499(5) 0.8712(5) 0.1590(4)
C44_3 C 0.4143(7) 0.8374(6) 0.6609(5)
H27_3 H 0.392948 0.844156 0.691259
C45_4 C 0.2751(5) 0.6880(5) 0.3199(5)
H28_4 H 0.243455 0.689954 0.292969
C46_4 C 0.3321(5) 0.6383(5) 0.3916(6)
H29_4 H 0.337515 0.606258 0.413014
C47_3 C 0.4140(6) 0.8364(5) 0.5644(6)
H30_3 H 0.393527 0.842213 0.530554
C48_4 C 0.6754(7) 0.9154(6) 0.3428(6)
C49_3 C 0.3875(6) 0.8457(6) 0.6112(6)
H31_3 H 0.347878 0.858891 0.608708
C50_4 C 0.6300(7) 0.9086(5) 0.3761(6)
O8_4 O 0.2591(6) 0.9017(5) 0.3080(4)
H32_4 H 0.271133 0.940072 0.303235
H33_4 H 0.250630 0.899450 0.345787
C51_4 C 0.7182(7) 0.9571(6) 0.3495(8)
H34_4 H 0.750200 0.958335 0.327086
C52_4 C 0.7141(8) 0.9946(7) 0.3867(8)
C53_4 C 0.6268(9) 0.9476(8) 0.4173(9)
H36_4 H 0.595965 0.946372 0.440926
C54_4 C 0.6731(8) 0.9905(7) 0.4222(9)
O9_4 O 0.1774(3) 0.7747(3) 0.2718(3)
O3_4 O 0.7043(3) 0.2183(3) 0.1025(3)
C2_4 C 0.9149(4) 0.1692(4) 0.0673(4)
C5_4 C 0.8151(5) 0.2085(5) 0.0529(4)
H4_4 H 0.782542 0.219626 0.029387
C6_4 C 0.8678(5) 0.1895(4) 0.0329(4)
C13_4 C 0.8116(5) 0.2108(5) 0.1100(4)
C15_4 C 0.7518(5) 0.2274(5) 0.1312(4)
C16_4 C 0.8608(4) 0.1937(5) 0.1432(3)
H10_4 H 0.859293 0.196846 0.180630
C25_4 C 0.9107(5) 0.1728(5) 0.1236(4)
H16_4 H 0.942712 0.160696 0.147274
C26_4 C 0.9965(4) 0.0944(4) 0.0728(4)
H17_4 H 0.983059 0.082453 0.105753
C27_4 C 0.9685(4) 0.1407(4) 0.0453(3)
N3_5 N 0.0164(3) 0.6947(4) 0.0322(3)
N6_3 N 0.0629(4) 0.7103(4) 0.1159(3)
C17_5 C 0.0678(4) 0.7092(5) 0.0621(4)
H11_5 H 0.103629 0.717805 0.046505
C34_5 C 0.0038(5) 0.6902(5) 0.1213(4)
N2_5 N 0.0995(3) 0.6409(4) 0.8658(3)
N4_3 N 0.1755(3) 0.6356(4) 0.8086(3)
C7_5 C 0.0520(4) 0.6651(4) 0.8923(4)
C11_5 C 0.1290(4) 0.6649(5) 0.8251(4)
H8_5 H 0.117409 0.699230 0.809842
C14_5 C 0.0095(4) 0.6905(5) 0.9750(4)
C19_5 C 0.0020(4) 0.6847(4) 0.8632(4)
C28_5 C 0.0580(4) 0.6676(4) 0.9491(4)
H18_5 H 0.092702 0.654730 0.968855
C48_5 C 0.1754(7) 0.5846(6) 0.8428(6)
C50_5 C 0.1300(7) 0.5914(5) 0.8761(6)
C51_5 C 0.2182(7) 0.5429(6) 0.8495(8)
H34_5 H 0.250200 0.541665 0.827086
C52_5 C 0.2141(8) 0.5054(7) 0.8867(8)
H35_4 H 0.240514 0.475009 0.888409
C53_5 C 0.1268(9) 0.5524(8) 0.9173(9)
H36_5 H 0.095965 0.553628 0.940926
C54_5 C 0.1731(8) 0.5095(7) 0.9222(9)
H37_4 H 0.173789 0.484445 0.951078
O1_5 O 0.5822(3) 0.2710(3) 0.2379(2)
N1_5 N 0.8999(3) 0.7245(4) 0.8603(3)
O5_5 O 0.6550(4) 0.1477(4) 0.2090(3)
H1_5 H 0.699812 0.120116 0.216513
H2_5 H 0.618092 0.115974 0.223800
C1_5 C 0.5403(4) 0.3177(4) 0.3303(3)
H3_5 H 0.513124 0.310712 0.300517
O7_5 O 0.6775(3) 0.6177(4) 0.7050(4)
C2_5 C 0.4149(4) 0.3308(4) 0.5673(4)
C3_5 C 0.6013(4) 0.3076(5) 0.3271(4)
C4_5 C 0.5396(4) 0.3701(4) 0.4743(3)
C5_5 C 0.3151(5) 0.2915(5) 0.5529(4)
H4_5 H 0.282542 0.280374 0.529387
C6_5 C 0.3678(5) 0.3105(4) 0.5329(4)
H5_4 H 0.371848 0.309680 0.495677
C8_4 C 0.4907(4) 0.3436(4) 0.4963(4)
H6_4 H 0.472085 0.313945 0.477117
N5_5 N 0.8222(4) 0.7187(4) 0.7994(3)
C9_5 C 0.5613(4) 0.3503(5) 0.4236(3)
C10_4 C 0.5649(4) 0.4131(4) 0.5012(3)
H7_5 H 0.597627 0.430908 0.487041
C12_5 C 0.6412(4) 0.3203(5) 0.3710(4)
H9_5 H 0.682325 0.313887 0.368399
C13_5 C 0.3116(5) 0.2892(5) 0.6100(4)
C15_5 C 0.2518(5) 0.2726(5) 0.6312(4)
C16_5 C 0.3608(4) 0.3063(5) 0.6432(3)
H10_5 H 0.359293 0.303154 0.680630
C18_4 C 0.5727(4) 0.4844(4) 0.5790(4)
H12_5 H 0.999135 0.683128 0.825453
C20_4 C 0.5440(4) 0.4332(4) 0.5508(3)
C21_5 C 0.8715(4) 0.6954(5) 0.8200(4)
H13_5 H 0.885830 0.661382 0.807708
C22_5 C 0.6211(4) 0.2830(5) 0.2755(4)
C23_5 C 0.5196(4) 0.3384(5) 0.3785(4)
H14_4 H 0.478427 0.344480 0.381104
C24_5 C 0.6222(4) 0.3422(5) 0.4182(4)
H15_5 H 0.650382 0.351654 0.446607
C25_5 C 0.4107(5) 0.3272(5) 0.6236(4)
H16_5 H 0.442712 0.339304 0.647274
C26_5 C 0.4965(4) 0.4056(4) 0.5728(4)
H17_5 H 0.483059 0.417547 0.605753
C27_5 C 0.4685(4) 0.3593(4) 0.5453(3)
C29_5 C 0.8671(4) 0.7733(4) 0.8666(4)
C30_5 C 0.9588(4) 0.7104(4) 0.9472(4)
H19_5 H 0.927296 0.725747 0.965371
C31_5 C 0.9553(4) 0.7072(4) 0.8905(4)
C32_5 C 0.6159(5) 0.5752(5) 0.5781(5)
H20_5 H 0.625895 0.606224 0.557772
C35_5 C 0.6246(5) 0.5770(4) 0.6328(4)
C36_5 C 0.5926(5) 0.5285(5) 0.5521(4)
H21_5 H 0.590482 0.527461 0.514359
C38_5 C 0.6066(5) 0.5331(5) 0.6612(4)
H23_5 H 0.610715 0.534836 0.698938
C39_5 C 0.7821(5) 0.8583(5) 0.8547(6)
H24_5 H 0.753160 0.886630 0.853050
C40_4 C 0.5828(6) 0.4866(5) 0.6376(4)
H25_4 H 0.572969 0.456033 0.658651
C41_5 C 0.8189(4) 0.7676(4) 0.8276(4)
C42_5 C 0.8736(4) 0.8197(5) 0.8976(5)
H26_5 H 0.906520 0.823009 0.923097
C43_5 C 0.6499(5) 0.6288(5) 0.6590(4)
C45_5 C 0.7751(5) 0.8120(5) 0.8199(5)
H28_5 H 0.743455 0.810046 0.792969
C46_5 C 0.8321(5) 0.8617(5) 0.8916(6)
H29_5 H 0.837515 0.893742 0.913014
O8_5 O 0.7591(6) 0.5983(5) 0.8080(4)
H32_5 H 0.771133 0.559928 0.803235
H33_5 H 0.750630 0.600550 0.845787
N7_3 N 0.8245(3) 0.6356(4) 0.6914(3)
N8_3 N 0.5629(4) 0.2103(4) 0.1159(3)
O1_6 O 0.4178(3) 0.2710(3) 0.2621(2)
O5_6 O 0.3450(4) 0.1477(4) 0.2910(3)
H1_6 H 0.300188 0.120116 0.283487
H2_6 H 0.381908 0.115974 0.276200
C1_6 C 0.4597(4) 0.3177(4) 0.1697(3)
H3_6 H 0.486876 0.310712 0.199483
C3_6 C 0.3987(4) 0.3076(5) 0.1729(4)
C4_6 C 0.4604(4) 0.3701(4) 0.0257(3)
H5_5 H 0.628152 0.309680 0.004323
C8_5 C 0.5093(4) 0.3436(4) 0.0037(4)
H6_5 H 0.527915 0.313945 0.022883
C9_6 C 0.4387(4) 0.3503(5) 0.0764(3)
H7_6 H 0.402373 0.430908 0.012959
C12_6 C 0.3588(4) 0.3203(5) 0.1290(4)
H9_6 H 0.317675 0.313887 0.131601
C22_6 C 0.3789(4) 0.2830(5) 0.2245(4)
C23_6 C 0.4804(4) 0.3384(5) 0.1215(4)
H14_5 H 0.521573 0.344480 0.118896
C24_6 C 0.3778(4) 0.3422(5) 0.0818(4)
H15_6 H 0.349618 0.351654 0.053393
N8_4 N 0.4371(4) 0.2103(4) 0.3841(3)
N1_6 N 0.1001(3) 0.7245(4) 0.6397(3)
O7_6 O 0.3225(3) 0.6177(4) 0.7950(4)
C2_6 C 0.5851(4) 0.3308(4) 0.9327(4)
C5_6 C 0.6849(5) 0.2915(5) 0.9471(4)
H4_6 H 0.717458 0.280374 0.970613
C6_6 C 0.6322(5) 0.3105(4) 0.9671(4)
N5_6 N 0.1778(4) 0.7187(4) 0.7006(3)
C10_5 C 0.4351(4) 0.4131(4) 0.9988(3)
C13_6 C 0.6884(5) 0.2892(5) 0.8900(4)
C15_6 C 0.7482(5) 0.2726(5) 0.8688(4)
C16_6 C 0.6392(4) 0.3063(5) 0.8568(3)
H10_6 H 0.640707 0.303154 0.819370
C18_5 C 0.4273(4) 0.4844(4) 0.9210(4)
H12_6 H 0.000865 0.683128 0.674547
C20_5 C 0.4560(4) 0.4332(4) 0.9492(3)
C21_6 C 0.1285(4) 0.6954(5) 0.6800(4)
H13_6 H 0.114170 0.661382 0.692292
C25_6 C 0.5893(5) 0.3272(5) 0.8764(4)
H16_6 H 0.557288 0.339304 0.852726
C26_6 C 0.5035(4) 0.4056(4) 0.9272(4)
H17_6 H 0.516941 0.417547 0.894247
C27_6 C 0.5315(4) 0.3593(4) 0.9547(3)
C29_6 C 0.1329(4) 0.7733(4) 0.6334(4)
C30_6 C 0.0412(4) 0.7104(4) 0.5528(4)
H19_6 H 0.072704 0.725747 0.534629
C31_6 C 0.0447(4) 0.7072(4) 0.6095(4)
C32_6 C 0.3841(5) 0.5752(5) 0.9219(5)
H20_6 H 0.374105 0.606224 0.942228
C33_4 C 0.0262(5) 0.6826(4) 0.4302(4)
C35_6 C 0.3754(5) 0.5770(4) 0.8672(4)
C36_6 C 0.4074(5) 0.5285(5) 0.9479(4)
H21_6 H 0.409518 0.527461 0.985641
C37_4 C 0.0277(7) 0.6809(5) 0.3326(5)
H22_4 H 0.009208 0.687179 0.298076
C38_6 C 0.3934(5) 0.5331(5) 0.8388(4)
H23_6 H 0.389285 0.534836 0.801062
C39_6 C 0.2179(5) 0.8583(5) 0.6453(6)
H24_6 H 0.246840 0.886630 0.646950
C40_5 C 0.4172(6) 0.4866(5) 0.8624(4)
H25_5 H 0.427031 0.456033 0.841349
C41_6 C 0.1811(4) 0.7676(4) 0.6724(4)
C42_6 C 0.1264(4) 0.8197(5) 0.6024(5)
H26_6 H 0.093480 0.823009 0.576903
C43_6 C 0.3501(5) 0.6288(5) 0.8410(4)
C44_4 C 0.0857(7) 0.6626(6) 0.3391(5)
H27_4 H 0.107052 0.655844 0.308741
C45_6 C 0.2249(5) 0.8120(5) 0.6801(5)
H28_6 H 0.256545 0.810046 0.707031
C46_6 C 0.1679(5) 0.8617(5) 0.6084(6)
H29_6 H 0.162485 0.893742 0.586986
C47_4 C 0.0860(6) 0.6636(5) 0.4356(6)
H30_4 H 0.106473 0.657787 0.469446
C49_4 C 0.1125(6) 0.6543(6) 0.3888(6)
H31_4 H 0.152122 0.641109 0.391292
O8_6 O 0.2409(6) 0.5983(5) 0.6920(4)
H32_6 H 0.228867 0.559928 0.696765
H33_6 H 0.249370 0.600550 0.654213
N2_6 N 0.9005(3) 0.6409(4) 0.6342(3)
N3_6 N 0.9836(3) 0.6947(4) 0.4678(3)
C7_6 C 0.9480(4) 0.6651(4) 0.6077(4)
C11_6 C 0.8710(4) 0.6649(5) 0.6749(4)
H8_6 H 0.882591 0.699230 0.690158
N6_4 N 0.9371(4) 0.7103(4) 0.3841(3)
C14_6 C 0.9905(4) 0.6905(5) 0.5250(4)
C17_6 C 0.9322(4) 0.7092(5) 0.4379(4)
H11_6 H 0.896371 0.717805 0.453495
C19_6 C 0.9980(4) 0.6847(4) 0.6368(4)
C28_6 C 0.9420(4) 0.6676(4) 0.5509(4)
H18_6 H 0.907298 0.654730 0.531145
C34_6 C 0.9962(5) 0.6902(5) 0.3787(4)
C48_6 C 0.8246(7) 0.5846(6) 0.6572(6)
C50_6 C 0.8700(7) 0.5914(5) 0.6239(6)
C51_6 C 0.7818(7) 0.5429(6) 0.6505(8)
H34_6 H 0.749800 0.541665 0.672914
C52_6 C 0.7859(8) 0.5054(7) 0.6133(8)
H35_5 H 0.759486 0.475009 0.611591
C53_6 C 0.8732(9) 0.5524(8) 0.5827(9)
H36_6 H 0.904035 0.553628 0.559074
C54_6 C 0.8269(8) 0.5095(7) 0.5778(9)
H37_5 H 0.826211 0.484445 0.548922
N3_7 N 0.5164(3) 0.1947(4) 0.0322(3)
C17_7 C 0.5678(4) 0.2092(5) 0.0621(4)
H11_7 H 0.603629 0.217805 0.046505
C33_5 C 0.4738(5) 0.1826(4) 0.0698(4)
C34_7 C 0.5038(5) 0.1902(5) 0.1213(4)
C37_5 C 0.4723(7) 0.1809(5) 0.1674(5)
H22_5 H 0.490792 0.187179 0.201924
C44_5 C 0.4143(7) 0.1626(6) 0.1609(5)
H27_5 H 0.392948 0.155844 0.191259
C47_5 C 0.4140(6) 0.1636(5) 0.0644(6)
H30_5 H 0.393527 0.157787 0.030554
C49_5 C 0.3875(6) 0.1543(6) 0.1112(6)
H31_5 H 0.347878 0.141109 0.108708
N1_7 N 0.3999(3) 0.2245(4) 0.8603(3)
N2_7 N 0.5995(3) 0.1409(4) 0.8658(3)
O7_7 O 0.1775(3) 0.1177(4) 0.7050(4)
N4_4 N 0.6755(3) 0.1356(4) 0.8086(3)
C7_7 C 0.5520(4) 0.1651(4) 0.8923(4)
N5_7 N 0.3222(4) 0.2187(4) 0.7994(3)
C11_7 C 0.6290(4) 0.1649(5) 0.8251(4)
H8_7 H 0.617409 0.199230 0.809842
C14_7 C 0.5095(4) 0.1905(5) 0.9750(4)
C19_7 C 0.5020(4) 0.1847(4) 0.8632(4)
H12_7 H 0.499135 0.183128 0.825453
C21_7 C 0.3715(4) 0.1954(5) 0.8200(4)
H13_7 H 0.385830 0.161382 0.807708
C28_7 C 0.5580(4) 0.1676(4) 0.9491(4)
H18_7 H 0.592702 0.154730 0.968855
C29_7 C 0.3671(4) 0.2733(4) 0.8666(4)
C30_7 C 0.4588(4) 0.2104(4) 0.9472(4)
H19_7 H 0.427296 0.225747 0.965371
C31_7 C 0.4553(4) 0.2072(4) 0.8905(4)
C32_7 C 0.1159(5) 0.0752(5) 0.5781(5)
H20_7 H 0.125895 0.106224 0.557772
C35_7 C 0.1246(5) 0.0770(4) 0.6328(4)
C36_7 C 0.0926(5) 0.0285(5) 0.5521(4)
H21_7 H 0.090482 0.027461 0.514359
C38_7 C 0.1066(5) 0.0331(5) 0.6612(4)
H23_7 H 0.110715 0.034836 0.698938
C39_7 C 0.2821(5) 0.3583(5) 0.8547(6)
H24_7 H 0.253160 0.386630 0.853050
C41_7 C 0.3189(4) 0.2676(4) 0.8276(4)
C42_7 C 0.3736(4) 0.3197(5) 0.8976(5)
H26_7 H 0.406520 0.323009 0.923097
C43_7 C 0.1499(5) 0.1288(5) 0.6590(4)
C45_7 C 0.2751(5) 0.3120(5) 0.8199(5)
H28_7 H 0.243455 0.310046 0.792969
C46_7 C 0.3321(5) 0.3617(5) 0.8916(6)
H29_7 H 0.337515 0.393742 0.913014
C48_7 C 0.6754(7) 0.0846(6) 0.8428(6)
C50_7 C 0.6300(7) 0.0914(5) 0.8761(6)
O8_7 O 0.2591(6) 0.0983(5) 0.8080(4)
H32_7 H 0.271133 0.059928 0.803235
H33_7 H 0.250630 0.100550 0.845787
C51_7 C 0.7182(7) 0.0429(6) 0.8495(8)
H34_7 H 0.750200 0.041665 0.827086
C52_7 C 0.7141(8) 0.0054(7) 0.8867(8)
C53_7 C 0.6268(9) 0.0524(8) 0.9173(9)
H36_7 H 0.595965 0.053628 0.940926
C54_7 C 0.6731(8) 0.0095(7) 0.9222(9)
N7_4 N 0.3245(3) 0.1356(4) 0.6914(3)
O1_7 O 0.0822(3) 0.7710(3) 0.2379(2)
O5_7 O 0.1550(4) 0.6477(4) 0.2090(3)
H1_7 H 0.199812 0.620116 0.216513
H2_7 H 0.118092 0.615974 0.223800
C1_7 C 0.0403(4) 0.8177(4) 0.3303(3)
H3_7 H 0.013124 0.810712 0.300517
C3_7 C 0.1013(4) 0.8076(5) 0.3271(4)
C4_7 C 0.0396(4) 0.8701(4) 0.4743(3)
C9_7 C 0.0613(4) 0.8503(5) 0.4236(3)
C10_6 C 0.0649(4) 0.9131(4) 0.5012(3)
H7_7 H 0.097627 0.930908 0.487041
C12_7 C 0.1412(4) 0.8203(5) 0.3710(4)
H9_7 H 0.182325 0.813887 0.368399
C18_6 C 0.0727(4) 0.9844(4) 0.5790(4)
C20_6 C 0.0440(4) 0.9332(4) 0.5508(3)
C22_7 C 0.1211(4) 0.7830(5) 0.2755(4)
C23_7 C 0.0196(4) 0.8384(5) 0.3785(4)
C24_7 C 0.1222(4) 0.8422(5) 0.4182(4)
H15_7 H 0.150382 0.851654 0.446607
C40_6 C 0.0828(6) 0.9866(5) 0.6376(4)
H25_6 H 0.072969 0.956033 0.658651
H35_6 H 0.740514 0.975009 0.888409
H37_6 H 0.673789 0.984445 0.951078
C2_7 C 0.9149(4) 0.8308(4) 0.5673(4)
C5_7 C 0.8151(5) 0.7915(5) 0.5529(4)
H4_7 H 0.782542 0.780374 0.529387
C6_7 C 0.8678(5) 0.8105(4) 0.5329(4)
H5_6 H 0.871848 0.809680 0.495677
C8_6 C 0.9907(4) 0.8436(4) 0.4963(4)
H6_6 H 0.972085 0.813945 0.477117
C13_7 C 0.8116(5) 0.7892(5) 0.6100(4)
C15_7 C 0.7518(5) 0.7726(5) 0.6312(4)
C16_7 C 0.8608(4) 0.8063(5) 0.6432(3)
H10_7 H 0.859293 0.803154 0.680630
H14_6 H 0.978427 0.844480 0.381104
C25_7 C 0.9107(5) 0.8272(5) 0.6236(4)
H16_7 H 0.942712 0.839304 0.647274
C26_7 C 0.9965(4) 0.9056(4) 0.5728(4)
H17_7 H 0.983059 0.917547 0.605753
C27_7 C 0.9685(4) 0.8593(4) 0.5453(3)
C2_8 C 0.0851(4) 0.8308(4) 0.9327(4)
C5_8 C 0.1849(5) 0.7915(5) 0.9471(4)
H4_8 H 0.217458 0.780374 0.970613
C6_8 C 0.1322(5) 0.8105(4) 0.9671(4)
C13_8 C 0.1884(5) 0.7892(5) 0.8900(4)
C15_8 C 0.2482(5) 0.7726(5) 0.8688(4)
C16_8 C 0.1392(4) 0.8063(5) 0.8568(3)
H10_8 H 0.140707 0.803154 0.819370
C25_8 C 0.0893(5) 0.8272(5) 0.8764(4)
H16_8 H 0.057288 0.839304 0.852726
C26_8 C 0.0035(4) 0.9056(4) 0.9272(4)
H17_8 H 0.016941 0.917547 0.894247
C27_8 C 0.0315(4) 0.8593(4) 0.9547(3)
N1_8 N 0.6001(3) 0.2245(4) 0.6397(3)
N2_8 N 0.4005(3) 0.1409(4) 0.6342(3)
N3_8 N 0.4836(3) 0.1947(4) 0.4678(3)
O7_8 O 0.8225(3) 0.1177(4) 0.7950(4)
C7_8 C 0.4480(4) 0.1651(4) 0.6077(4)
N5_8 N 0.6778(4) 0.2187(4) 0.7006(3)
C11_8 C 0.3710(4) 0.1649(5) 0.6749(4)
H8_8 H 0.382591 0.199230 0.690158
C14_8 C 0.4905(4) 0.1905(5) 0.5250(4)
C17_8 C 0.4322(4) 0.2092(5) 0.4379(4)
H11_8 H 0.396371 0.217805 0.453495
C19_8 C 0.4980(4) 0.1847(4) 0.6368(4)
H12_8 H 0.500865 0.183128 0.674547
C21_8 C 0.6285(4) 0.1954(5) 0.6800(4)
H13_8 H 0.614170 0.161382 0.692292
C28_8 C 0.4420(4) 0.1676(4) 0.5509(4)
H18_8 H 0.407298 0.154730 0.531145
C29_8 C 0.6329(4) 0.2733(4) 0.6334(4)
C30_8 C 0.5412(4) 0.2104(4) 0.5528(4)
H19_8 H 0.572704 0.225747 0.534629
C31_8 C 0.5447(4) 0.2072(4) 0.6095(4)
C32_8 C 0.8841(5) 0.0752(5) 0.9219(5)
H20_8 H 0.874105 0.106224 0.942228
C33_6 C 0.5262(5) 0.1826(4) 0.4302(4)
C34_8 C 0.4962(5) 0.1902(5) 0.3787(4)
C35_8 C 0.8754(5) 0.0770(4) 0.8672(4)
C36_8 C 0.9074(5) 0.0285(5) 0.9479(4)
H21_8 H 0.909518 0.027461 0.985641
C37_6 C 0.5277(7) 0.1809(5) 0.3326(5)
H22_6 H 0.509208 0.187179 0.298076
C38_8 C 0.8934(5) 0.0331(5) 0.8388(4)
H23_8 H 0.889285 0.034836 0.801062
C39_8 C 0.7179(5) 0.3583(5) 0.6453(6)
H24_8 H 0.746840 0.386630 0.646950
C41_8 C 0.6811(4) 0.2676(4) 0.6724(4)
C42_8 C 0.6264(4) 0.3197(5) 0.6024(5)
H26_8 H 0.593480 0.323009 0.576903
C43_8 C 0.8501(5) 0.1288(5) 0.8410(4)
C44_6 C 0.5857(7) 0.1626(6) 0.3391(5)
H27_6 H 0.607052 0.155844 0.308741
C45_8 C 0.7249(5) 0.3120(5) 0.6801(5)
H28_8 H 0.756545 0.310046 0.707031
C46_8 C 0.6679(5) 0.3617(5) 0.6084(6)
H29_8 H 0.662485 0.393742 0.586986
C47_6 C 0.5860(6) 0.1636(5) 0.4356(6)
H30_6 H 0.606473 0.157787 0.469446
C48_8 C 0.3246(7) 0.0846(6) 0.6572(6)
C49_6 C 0.6125(6) 0.1543(6) 0.3888(6)
H31_6 H 0.652122 0.141109 0.391292
C50_8 C 0.3700(7) 0.0914(5) 0.6239(6)
O8_8 O 0.7409(6) 0.0983(5) 0.6920(4)
H32_8 H 0.728867 0.059928 0.696765
H33_8 H 0.749370 0.100550 0.654213
C51_8 C 0.2818(7) 0.0429(6) 0.6505(8)
H34_8 H 0.249800 0.041665 0.672914
C52_8 C 0.2859(8) 0.0054(7) 0.6133(8)
C53_8 C 0.3732(9) 0.0524(8) 0.5827(9)
H36_8 H 0.404035 0.053628 0.559074
C54_8 C 0.3269(8) 0.0095(7) 0.5778(9)
O1_8 O 0.9178(3) 0.7710(3) 0.2621(2)
O5_8 O 0.8450(4) 0.6477(4) 0.2910(3)
H1_8 H 0.800188 0.620116 0.283487
H2_8 H 0.881908 0.615974 0.276200
C1_8 C 0.9597(4) 0.8177(4) 0.1697(3)
H3_8 H 0.986876 0.810712 0.199483
C3_8 C 0.8987(4) 0.8076(5) 0.1729(4)
C4_8 C 0.9604(4) 0.8701(4) 0.0257(3)
C9_8 C 0.9387(4) 0.8503(5) 0.0764(3)
H7_8 H 0.902373 0.930908 0.012959
C12_8 C 0.8588(4) 0.8203(5) 0.1290(4)
H9_8 H 0.817675 0.813887 0.131601
C22_8 C 0.8789(4) 0.7830(5) 0.2245(4)
C23_8 C 0.9804(4) 0.8384(5) 0.1215(4)
C24_8 C 0.8778(4) 0.8422(5) 0.0818(4)
H15_8 H 0.849618 0.851654 0.053393
C33_7 C 0.0262(5) 0.3174(4) 0.9302(4)
C37_7 C 0.0277(7) 0.3191(5) 0.8326(5)
H22_7 H 0.009208 0.312821 0.798076
C44_7 C 0.0857(7) 0.3374(6) 0.8391(5)
H27_7 H 0.107052 0.344156 0.808741
C47_7 C 0.0860(6) 0.3364(5) 0.9356(6)
H30_7 H 0.106473 0.342213 0.969446
C49_7 C 0.1125(6) 0.3457(6) 0.8888(6)
H31_7 H 0.152122 0.358891 0.891292
C10_7 C 0.0649(4) 0.0869(4) 0.0012(3)
C18_7 C 0.0727(4) 0.0156(4) 0.0790(4)
C20_7 C 0.0440(4) 0.0668(4) 0.0508(3)
C40_7 C 0.0828(6) 0.0134(5) 0.1376(4)
H25_7 H 0.072969 0.043967 0.158651
H35_7 H 0.740514 0.024991 0.388409
H37_7 H 0.673789 0.015555 0.451078
H5_7 H 0.871848 0.190320 0.995677
C8_7 C 0.9907(4) 0.1564(4) 0.9963(4)
H6_7 H 0.972085 0.186055 0.977117
H14_7 H 0.978427 0.155520 0.881104
C33_8 C 0.9738(5) 0.6826(4) 0.0698(4)
C37_8 C 0.9723(7) 0.6809(5) 0.1674(5)
H22_8 H 0.990792 0.687179 0.201924
C44_8 C 0.9143(7) 0.6626(6) 0.1609(5)
H27_8 H 0.892948 0.655844 0.191259
C47_8 C 0.9140(6) 0.6636(5) 0.0644(6)
H30_8 H 0.893527 0.657787 0.030554
C49_8 C 0.8875(6) 0.6543(6) 0.1112(6)
H31_8 H 0.847878 0.641109 0.108708
H5_8 H 0.128152 0.809680 0.004323
C8_8 C 0.0093(4) 0.8436(4) 0.0037(4)
H6_8 H 0.027915 0.813945 0.022883
H14_8 H 0.021573 0.844480 0.118896
C10_8 C 0.9351(4) 0.9131(4) 0.9988(3)
C18_8 C 0.9273(4) 0.9844(4) 0.9210(4)
C20_8 C 0.9560(4) 0.9332(4) 0.9492(3)
C40_8 C 0.9172(6) 0.9866(5) 0.8624(4)
H25_8 H 0.927031 0.956033 0.841349
H35_8 H 0.259486 0.975009 0.611591
H37_8 H 0.326211 0.984445 0.548922
O14 O 0.500000 0.6574(8) 0.250000
N9 N 0.500000 0.7055(15) 0.250000
O15 O 0.5464(6) 0.7412(6) 0.2487(5)
O16 O 0.4536(6) 0.7412(6) 0.2513(5)
O14_2 O 0.000000 0.1574(8) 0.250000
N9_2 N 0.000000 0.2055(15) 0.250000
O15_2 O 0.0464(6) 0.2412(6) 0.2487(5)
O14_3 O 1.000000 0.1574(8) 0.250000
N9_3 N 1.000000 0.2055(15) 0.250000
O16_2 O 0.9536(6) 0.2412(6) 0.2513(5)
O14_4 O 0.500000 0.3426(8) 0.750000
N9_4 N 0.500000 0.2945(15) 0.750000
O15_3 O 0.4536(6) 0.2588(6) 0.7513(5)
O16_3 O 0.5464(6) 0.2588(6) 0.7487(5)
O14_5 O 0.000000 0.8426(8) 0.750000
N9_5 N 0.000000 0.7945(15) 0.750000
O16_4 O 0.0464(6) 0.7588(6) 0.7487(5)
O14_6 O 1.000000 0.8426(8) 0.750000
N9_6 N 1.000000 0.7945(15) 0.750000
O15_4 O 0.9536(6) 0.7588(6) 0.7513(5)
F1 F 0.000000 0.4241(8) 0.250000
F1_2 F 1.000000 0.4241(8) 0.250000
F1_3 F 0.500000 0.9241(8) 0.250000
F1_4 F 0.000000 0.5759(8) 0.750000
F1_5 F 1.000000 0.5759(8) 0.750000
F1_6 F 0.500000 0.0759(8) 0.750000
loop_
_geom_bond_atom_site_label_1
_geom_bond_atom_site_label_2
_geom_bond_site_symmetry_1
_geom_bond_site_symmetry_2
Cd1 O7 1_555 1_555
Cd2 O1 1_555 1_555
O1 C22 1_555 1_555
O2 Cd2 1_555 1_555
O3 C15 1_555 1_555
N1 C21 1_555 1_555
O4 C15 1_555 1_555
O5 Cd2 1_555 1_555
H1 O5 1_555 1_555
H2 O5 1_555 1_555
C1 H3 1_555 1_555
O6 C43 1_555 1_555
O7 C43 1_555 1_555
C2 C6 1_555 1_555
C3 C1 1_555 1_555
C4 C8 1_555 1_555
C5 H4 1_555 1_555
C6 C5 1_555 1_555
H5 C6 1_555 1_555
C8 H6 1_555 1_555
N5 Cd1 1_555 1_555
C9 C4 1_555 1_555
C10 C4 1_555 1_555
H7 C10 1_555 1_555
C12 C3 1_555 1_555
H9 C12 1_555 1_555
C13 C5 1_555 1_555
C15 C13 1_555 1_555
C16 C13 1_555 1_555
H10 C16 1_555 1_555
C18 C20 1_555 1_555
C20 C10 1_555 1_555
C21 N5 1_555 1_555
H13 C21 1_555 1_555
C22 O2 1_555 1_555
C23 C1 1_555 1_555
H14 C23 1_555 1_555
C24 C9 1_555 1_555
H15 C24 1_555 1_555
C25 C2 1_555 1_555
H16 C25 1_555 1_555
C26 C20 1_555 1_555
H17 C26 1_555 1_555
C27 C2 1_555 1_555
C29 N1 1_555 1_555
H19 C30 1_555 1_555
C31 N1 1_555 1_555
C32 H20 1_555 1_555
C35 C32 1_555 1_555
C36 C18 1_555 1_555
H21 C36 1_555 1_555
C38 C35 1_555 1_555
H23 C38 1_555 1_555
C39 H24 1_555 1_555
C40 C18 1_555 1_555
H25 C40 1_555 1_555
C41 N5 1_555 1_555
C42 C29 1_555 1_555
H26 C42 1_555 1_555
C43 C35 1_555 1_555
C45 C39 1_555 1_555
H28 C45 1_555 1_555
C46 C39 1_555 1_555
H29 C46 1_555 1_555
O8 Cd1 1_555 1_555
H32 O8 1_555 1_555
H33 O8 1_555 1_555
Cd4 O4 1_555 1_555
Cd5 O2 1_555 1_555
Cd7 O6 1_555 1_555
Cd8 O3 1_555 1_555
O9 Cd1 1_555 1_555
O10 Cd2 1_555 1_555
O11 Cd1 1_555 1_555
O12 Cd2 1_555 1_555
O13 Cd2 1_555 1_555
N7 Cd1 1_555 1_555
N8 Cd2 1_555 1_555
O4 Cd8 1_555 1_555
C3 C22 1_555 1_555
C8 C27 1_555 1_555
C9 C23 1_555 1_555
C12 C24 1_555 1_555
C16 C25 1_555 1_555
C26 C27 1_555 1_555
C29 C41 1_555 1_555
C30 C31 1_555 1_555
C32 C36 1_555 1_555
C38 C40 1_555 1_555
C41 C45 1_555 1_555
C42 C46 1_555 1_555
Cd5 O12 1_555 1_555
Cd7 O9 1_555 1_555
Cd7 O11 1_555 1_555
N2 C7 1_555 1_555
N4 C11 1_555 1_555
C7 C19 1_555 1_555
C11 N2 1_555 1_555
H8 C11 1_555 1_555
C14 C28 1_555 1_555
C28 C7 1_555 1_555
H18 C28 1_555 1_555
C48 N4 1_555 1_555
C50 N2 1_555 1_555
C51 C48 1_555 1_555
H34 C51 1_555 1_555
C52 C51 1_555 1_555
H35 C52 1_555 1_555
C53 C50 1_555 1_555
H36 C53 1_555 1_555
C54 C52 1_555 1_555
H37 C54 1_555 1_555
Cd3 N4 1_555 1_555
C48 C50 1_555 1_555
C53 C54 1_555 1_555
N6 C17 1_555 1_555
C17 N3 1_555 1_555
H11 C17 1_555 1_555
C34 N6 1_555 1_555
Cd6 N6 1_555 1_555
N2_2 C7_2 1_555 1_555
N3_2 C14_2 1_555 1_555
N7 C11_2 1_555 1_555
C7_2 C19_2 1_555 1_555
C11_2 N2_2 1_555 1_555
H8_2 C11_2 1_555 1_555
N6_2 C17_2 1_555 1_555
C14_2 C28_2 1_555 1_555
C17_2 N3_2 1_555 1_555
H11_2 C17_2 1_555 1_555
C28_2 C7_2 1_555 1_555
H18_2 C28_2 1_555 1_555
C34_2 N6_2 1_555 1_555
C48_2 N7 1_555 1_555
C50_2 N2_2 1_555 1_555
C51_2 C48_2 1_555 1_555
H34_2 C51_2 1_555 1_555
C52_2 C51_2 1_555 1_555
H35_2 C52_2 1_555 1_555
C53_2 C50_2 1_555 1_555
H36_2 C53_2 1_555 1_555
C54_2 C52_2 1_555 1_555
H37_2 C54_2 1_555 1_555
Cd6_2 N6_2 1_555 1_555
C48_2 C50_2 1_555 1_555
C53_2 C54_2 1_555 1_555
Cd3 O7_2 1_555 1_555
O3_2 C15_2 1_555 1_555
N1_2 C21_2 1_555 1_555
O4_2 C15_2 1_555 1_555
O6_2 C43_2 1_555 1_555
O7_2 C43_2 1_555 1_555
C2_2 C6_2 1_555 1_555
C5_2 H4_2 1_555 1_555
C6_2 C5_2 1_555 1_555
N5_2 Cd3 1_555 1_555
C13_2 C5_2 1_555 1_555
C15_2 C13_2 1_555 1_555
C16_2 C13_2 1_555 1_555
H10_2 C16_2 1_555 1_555
C18_2 C20_2 1_555 1_555
C20_2 C10_2 1_555 1_555
C21_2 N5_2 1_555 1_555
H13_2 C21_2 1_555 1_555
C25_2 C2_2 1_555 1_555
H16_2 C25_2 1_555 1_555
C26_2 C20_2 1_555 1_555
H17_2 C26_2 1_555 1_555
C27_2 C2_2 1_555 1_555
C29_2 N1_2 1_555 1_555
H19_2 C30_2 1_555 1_555
C31_2 N1_2 1_555 1_555
C32_2 H20_2 1_555 1_555
C35_2 C32_2 1_555 1_555
C36_2 C18_2 1_555 1_555
H21_2 C36_2 1_555 1_555
H22 C37 1_555 1_555
C38_2 C35_2 1_555 1_555
H23_2 C38_2 1_555 1_555
C39_2 H24_2 1_555 1_555
C40_2 C18_2 1_555 1_555
H25_2 C40_2 1_555 1_555
C41_2 N5_2 1_555 1_555
C42_2 C29_2 1_555 1_555
H26_2 C42_2 1_555 1_555
C43_2 C35_2 1_555 1_555
C44 C37 1_555 1_555
H27 C44 1_555 1_555
C45_2 C39_2 1_555 1_555
H28_2 C45_2 1_555 1_555
C46_2 C39_2 1_555 1_555
H29_2 C46_2 1_555 1_555
C47 C33 1_555 1_555
H30 C47 1_555 1_555
C49 C44 1_555 1_555
H31 C49 1_555 1_555
O8_2 Cd3 1_555 1_555
H32_2 O8_2 1_555 1_555
H33_2 O8_2 1_555 1_555
Cd4_2 O4_2 1_555 1_555
Cd7_2 O6_2 1_555 1_555
Cd8_2 O3_2 1_555 1_555
O9_2 Cd3 1_555 1_555
O11_2 Cd3 1_555 1_555
O4_2 Cd8_2 1_555 1_555
C16_2 C25_2 1_555 1_555
C26_2 C27_2 1_555 1_555
C29_2 C41_2 1_555 1_555
C30_2 C31_2 1_555 1_555
C32_2 C36_2 1_555 1_555
C38_2 C40_2 1_555 1_555
C41_2 C45_2 1_555 1_555
C42_2 C46_2 1_555 1_555
C47 C49 1_555 1_555
Cd7_2 O9_2 1_555 1_555
Cd7_2 O11_2 1_555 1_555
Cd2_2 O1_2 1_555 1_555
O1_2 C22_2 1_555 1_555
O2_2 Cd2_2 1_555 1_555
O5_2 Cd2_2 1_555 1_555
H1_2 O5_2 1_555 1_555
H2_2 O5_2 1_555 1_555
C1_2 H3_2 1_555 1_555
C3_2 C1_2 1_555 1_555
C4_2 C8_2 1_555 1_555
C8_2 H6_2 1_555 1_555
C9_2 C4_2 1_555 1_555
C12_2 C3_2 1_555 1_555
H9_2 C12_2 1_555 1_555
C22_2 O2_2 1_555 1_555
C23_2 C1_2 1_555 1_555
H14_2 C23_2 1_555 1_555
C24_2 C9_2 1_555 1_555
H15_2 C24_2 1_555 1_555
Cd5_2 O2_2 1_555 1_555
O10_2 Cd2_2 1_555 1_555
O12_2 Cd2_2 1_555 1_555
O13_2 Cd2_2 1_555 1_555
N8_2 Cd2_2 1_555 1_555
C3_2 C22_2 1_555 1_555
C9_2 C23_2 1_555 1_555
C12_2 C24_2 1_555 1_555
Cd5_2 O12_2 1_555 1_555
O3_3 C15_3 1_555 1_555
O11 C15_3 1_555 1_555
C2_3 C6_3 1_555 1_555
C5_3 H4_3 1_555 1_555
C6_3 C5_3 1_555 1_555
H5_3 C6_3 1_555 1_555
C8_3 H6_3 1_555 1_555
C13_3 C5_3 1_555 1_555
C15_3 C13_3 1_555 1_555
C16_3 C13_3 1_555 1_555
H10_3 C16_3 1_555 1_555
C25_3 C2_3 1_555 1_555
H16_3 C25_3 1_555 1_555
H17_3 C26_3 1_555 1_555
C27_3 C2_3 1_555 1_555
Cd7 O3_3 1_555 1_555
C8_3 C27_3 1_555 1_555
C16_3 C25_3 1_555 1_555
C26_3 C27_3 1_555 1_555
Cd6 O1_3 1_555 1_555
O1_3 C22_3 1_555 1_555
O2_3 Cd6 1_555 1_555
O5_3 Cd6 1_555 1_555
H1_3 O5_3 1_555 1_555
H2_3 O5_3 1_555 1_555
C1_3 H3_3 1_555 1_555
C3_3 C1_3 1_555 1_555
C9_3 C4_3 1_555 1_555
C10_3 C4_3 1_555 1_555
H7_3 C10_3 1_555 1_555
C12_3 C3_3 1_555 1_555
H9_3 C12_3 1_555 1_555
C18_3 C20_3 1_555 1_555
C20_3 C10_3 1_555 1_555
C22_3 O2_3 1_555 1_555
C23_3 C1_3 1_555 1_555
C24_3 C9_3 1_555 1_555
H15_3 C24_3 1_555 1_555
C40_3 C18_3 1_555 1_555
H25_3 C40_3 1_555 1_555
Cd5_3 O2_3 1_555 1_555
O10_3 Cd6 1_555 1_555
O12_3 Cd6 1_555 1_555
O13_3 Cd6 1_555 1_555
C3_3 C22_3 1_555 1_555
C9_3 C23_3 1_555 1_555
C12_3 C24_3 1_555 1_555
Cd5_3 O12_3 1_555 1_555
Cd4 O7_3 1_555 1_555
N1_3 C21_3 1_555 1_555
N2_3 C7_3 1_555 1_555
O6_3 C43_3 1_555 1_555
O7_3 C43_3 1_555 1_555
N4_2 C11_3 1_555 1_555
C7_3 C19_3 1_555 1_555
N5_3 Cd4 1_555 1_555
C11_3 N2_3 1_555 1_555
H8_3 C11_3 1_555 1_555
C14_3 C28_3 1_555 1_555
C19_3 H12_3 1_555 1_555
C21_3 N5_3 1_555 1_555
H13_3 C21_3 1_555 1_555
C28_3 C7_3 1_555 1_555
H18_3 C28_3 1_555 1_555
C29_3 N1_3 1_555 1_555
C30_3 C14_3 1_555 1_555
H19_3 C30_3 1_555 1_555
C31_3 N1_3 1_555 1_555
C32_3 H20_3 1_555 1_555
C35_3 C32_3 1_555 1_555
H21_3 C36_3 1_555 1_555
C38_3 C35_3 1_555 1_555
H23_3 C38_3 1_555 1_555
C39_3 H24_3 1_555 1_555
C41_3 N5_3 1_555 1_555
C42_3 C29_3 1_555 1_555
H26_3 C42_3 1_555 1_555
C43_3 C35_3 1_555 1_555
C45_3 C39_3 1_555 1_555
H28_3 C45_3 1_555 1_555
C46_3 C39_3 1_555 1_555
H29_3 C46_3 1_555 1_555
C48_3 N4_2 1_555 1_555
C50_3 N2_3 1_555 1_555
O8_3 Cd4 1_555 1_555
H32_3 O8_3 1_555 1_555
H33_3 O8_3 1_555 1_555
C51_3 C48_3 1_555 1_555
H34_3 C51_3 1_555 1_555
C52_3 C51_3 1_555 1_555
C53_3 C50_3 1_555 1_555
H36_3 C53_3 1_555 1_555
C54_3 C52_3 1_555 1_555
Cd4_2 N4_2 1_555 1_555
Cd8 O6_3 1_555 1_555
O9_3 Cd4 1_555 1_555
N7_2 Cd4 1_555 1_555
C19_3 C31_3 1_555 1_555
C29_3 C41_3 1_555 1_555
C30_3 C31_3 1_555 1_555
C32_3 C36_3 1_555 1_555
C41_3 C45_3 1_555 1_555
C42_3 C46_3 1_555 1_555
C48_3 C50_3 1_555 1_555
C53_3 C54_3 1_555 1_555
Cd8 O9_3 1_555 1_555
N8 C17_3 1_555 1_555
C17_3 N3_3 1_555 1_555
H11_3 C17_3 1_555 1_555
C33_2 N3_3 1_555 1_555
C34_3 N8 1_555 1_555
C37_2 C34_3 1_555 1_555
H22_2 C37_2 1_555 1_555
C44_2 C37_2 1_555 1_555
H27_2 C44_2 1_555 1_555
C47_2 C33_2 1_555 1_555
H30_2 C47_2 1_555 1_555
C49_2 C44_2 1_555 1_555
H31_2 C49_2 1_555 1_555
C33_2 C34_3 1_555 1_555
C47_2 C49_2 1_555 1_555
Cd6_2 O1_4 1_555 1_555
O1_4 C22_4 1_555 1_555
O2_4 Cd6_2 1_555 1_555
O5_4 Cd6_2 1_555 1_555
H1_4 O5_4 1_555 1_555
H2_4 O5_4 1_555 1_555
C1_4 H3_4 1_555 1_555
C3_4 C1_4 1_555 1_555
C9_4 C4_4 1_555 1_555
C12_4 C3_4 1_555 1_555
H9_4 C12_4 1_555 1_555
C22_4 O2_4 1_555 1_555
C23_4 C1_4 1_555 1_555
C24_4 C9_4 1_555 1_555
H15_4 C24_4 1_555 1_555
Cd5_4 O2_4 1_555 1_555
O10_4 Cd6_2 1_555 1_555
O12_4 Cd6_2 1_555 1_555
O13_4 Cd6_2 1_555 1_555
C3_4 C22_4 1_555 1_555
C9_4 C23_4 1_555 1_555
C12_4 C24_4 1_555 1_555
Cd5_4 O12_4 1_555 1_555
Cd4_2 O7_4 1_555 1_555
N1_4 C21_4 1_555 1_555
N2_4 C7_4 1_555 1_555
N3_4 C14_4 1_555 1_555
O6_4 C43_4 1_555 1_555
O7_4 C43_4 1_555 1_555
N7_2 C11_4 1_555 1_555
C7_4 C19_4 1_555 1_555
N5_4 Cd4_2 1_555 1_555
C11_4 N2_4 1_555 1_555
H8_4 C11_4 1_555 1_555
N8_2 C17_4 1_555 1_555
C14_4 C28_4 1_555 1_555
C17_4 N3_4 1_555 1_555
H11_4 C17_4 1_555 1_555
C19_4 H12_4 1_555 1_555
C21_4 N5_4 1_555 1_555
H13_4 C21_4 1_555 1_555
C28_4 C7_4 1_555 1_555
H18_4 C28_4 1_555 1_555
C29_4 N1_4 1_555 1_555
C30_4 C14_4 1_555 1_555
H19_4 C30_4 1_555 1_555
C31_4 N1_4 1_555 1_555
C32_4 H20_4 1_555 1_555
C33_3 N3_4 1_555 1_555
C34_4 N8_2 1_555 1_555
C35_4 C32_4 1_555 1_555
H21_4 C36_4 1_555 1_555
C37_3 C34_4 1_555 1_555
H22_3 C37_3 1_555 1_555
C38_4 C35_4 1_555 1_555
H23_4 C38_4 1_555 1_555
C39_4 H24_4 1_555 1_555
C41_4 N5_4 1_555 1_555
C42_4 C29_4 1_555 1_555
H26_4 C42_4 1_555 1_555
C43_4 C35_4 1_555 1_555
C44_3 C37_3 1_555 1_555
H27_3 C44_3 1_555 1_555
C45_4 C39_4 1_555 1_555
H28_4 C45_4 1_555 1_555
C46_4 C39_4 1_555 1_555
H29_4 C46_4 1_555 1_555
C47_3 C33_3 1_555 1_555
H30_3 C47_3 1_555 1_555
C48_4 N7_2 1_555 1_555
C49_3 C44_3 1_555 1_555
H31_3 C49_3 1_555 1_555
C50_4 N2_4 1_555 1_555
O8_4 Cd4_2 1_555 1_555
H32_4 O8_4 1_555 1_555
H33_4 O8_4 1_555 1_555
C51_4 C48_4 1_555 1_555
H34_4 C51_4 1_555 1_555
C52_4 C51_4 1_555 1_555
C53_4 C50_4 1_555 1_555
H36_4 C53_4 1_555 1_555
C54_4 C52_4 1_555 1_555
Cd8_2 O6_4 1_555 1_555
O9_4 Cd4_2 1_555 1_555
C19_4 C31_4 1_555 1_555
C29_4 C41_4 1_555 1_555
C30_4 C31_4 1_555 1_555
C32_4 C36_4 1_555 1_555
C33_3 C34_4 1_555 1_555
C41_4 C45_4 1_555 1_555
C42_4 C46_4 1_555 1_555
C47_3 C49_3 1_555 1_555
C48_4 C50_4 1_555 1_555
C53_4 C54_4 1_555 1_555
Cd8_2 O9_4 1_555 1_555
O3_4 C15_4 1_555 1_555
O11_2 C15_4 1_555 1_555
C2_4 C6_4 1_555 1_555
C5_4 H4_4 1_555 1_555
C6_4 C5_4 1_555 1_555
C13_4 C5_4 1_555 1_555
C15_4 C13_4 1_555 1_555
C16_4 C13_4 1_555 1_555
H10_4 C16_4 1_555 1_555
C25_4 C2_4 1_555 1_555
H16_4 C25_4 1_555 1_555
H17_4 C26_4 1_555 1_555
C27_4 C2_4 1_555 1_555
Cd7_2 O3_4 1_555 1_555
C16_4 C25_4 1_555 1_555
C26_4 C27_4 1_555 1_555
N6_3 C17_5 1_555 1_555
C17_5 N3_5 1_555 1_555
H11_5 C17_5 1_555 1_555
C34_5 N6_3 1_555 1_555
Cd8_2 N6_3 1_555 1_555
N2_5 C7_5 1_555 1_555
N4_3 C11_5 1_555 1_555
C7_5 C19_5 1_555 1_555
C11_5 N2_5 1_555 1_555
H8_5 C11_5 1_555 1_555
C14_5 C28_5 1_555 1_555
C28_5 C7_5 1_555 1_555
H18_5 C28_5 1_555 1_555
C48_5 N4_3 1_555 1_555
C50_5 N2_5 1_555 1_555
C51_5 C48_5 1_555 1_555
H34_5 C51_5 1_555 1_555
C52_5 C51_5 1_555 1_555
H35_4 C52_5 1_555 1_555
C53_5 C50_5 1_555 1_555
H36_5 C53_5 1_555 1_555
C54_5 C52_5 1_555 1_555
H37_4 C54_5 1_555 1_555
Cd5 N4_3 1_555 1_555
C48_5 C50_5 1_555 1_555
C53_5 C54_5 1_555 1_555
Cd5_2 O7_5 1_555 1_555
Cd7_2 O1_5 1_555 1_555
O1_5 C22_5 1_555 1_555
O10_4 C15_5 1_555 1_555
N1_5 C21_5 1_555 1_555
O12_4 C15_5 1_555 1_555
O5_5 Cd7_2 1_555 1_555
H1_5 O5_5 1_555 1_555
H2_5 O5_5 1_555 1_555
C1_5 H3_5 1_555 1_555
O13_2 C43_5 1_555 1_555
O7_5 C43_5 1_555 1_555
C2_5 C6_5 1_555 1_555
C3_5 C1_5 1_555 1_555
C4_5 C8_4 1_555 1_555
C5_5 H4_5 1_555 1_555
C6_5 C5_5 1_555 1_555
H5_4 C6_5 1_555 1_555
C8_4 H6_4 1_555 1_555
N5_5 Cd5_2 1_555 1_555
C9_5 C4_5 1_555 1_555
C10_4 C4_5 1_555 1_555
H7_5 C10_4 1_555 1_555
C12_5 C3_5 1_555 1_555
H9_5 C12_5 1_555 1_555
C13_5 C5_5 1_555 1_555
C15_5 C13_5 1_555 1_555
C16_5 C13_5 1_555 1_555
H10_5 C16_5 1_555 1_555
C18_4 C20_4 1_555 1_555
C20_4 C10_4 1_555 1_555
C21_5 N5_5 1_555 1_555
H13_5 C21_5 1_555 1_555
C22_5 O9_2 1_555 1_555
C23_5 C1_5 1_555 1_555
H14_4 C23_5 1_555 1_555
C24_5 C9_5 1_555 1_555
H15_5 C24_5 1_555 1_555
C25_5 C2_5 1_555 1_555
H16_5 C25_5 1_555 1_555
C26_5 C20_4 1_555 1_555
H17_5 C26_5 1_555 1_555
C27_5 C2_5 1_555 1_555
C29_5 N1_5 1_555 1_555
H19_5 C30_5 1_555 1_555
C31_5 N1_5 1_555 1_555
C32_5 H20_5 1_555 1_555
C35_5 C32_5 1_555 1_555
C36_5 C18_4 1_555 1_555
H21_5 C36_5 1_555 1_555
C38_5 C35_5 1_555 1_555
H23_5 C38_5 1_555 1_555
C39_5 H24_5 1_555 1_555
C40_4 C18_4 1_555 1_555
H25_4 C40_4 1_555 1_555
C41_5 N5_5 1_555 1_555
C42_5 C29_5 1_555 1_555
H26_5 C42_5 1_555 1_555
C43_5 C35_5 1_555 1_555
C45_5 C39_5 1_555 1_555
H28_5 C45_5 1_555 1_555
C46_5 C39_5 1_555 1_555
H29_5 C46_5 1_555 1_555
O8_5 Cd5_2 1_555 1_555
H32_5 O8_5 1_555 1_555
H33_5 O8_5 1_555 1_555
N7_3 Cd5_2 1_555 1_555
N8_3 Cd7_2 1_555 1_555
C3_5 C22_5 1_555 1_555
C8_4 C27_5 1_555 1_555
C9_5 C23_5 1_555 1_555
C12_5 C24_5 1_555 1_555
C16_5 C25_5 1_555 1_555
C26_5 C27_5 1_555 1_555
C29_5 C41_5 1_555 1_555
C30_5 C31_5 1_555 1_555
C32_5 C36_5 1_555 1_555
C38_5 C40_4 1_555 1_555
C41_5 C45_5 1_555 1_555
C42_5 C46_5 1_555 1_555
Cd7 O1_6 1_555 1_555
O1_6 C22_6 1_555 1_555
O5_6 Cd7 1_555 1_555
H1_6 O5_6 1_555 1_555
H2_6 O5_6 1_555 1_555
C1_6 H3_6 1_555 1_555
C3_6 C1_6 1_555 1_555
C4_6 C8_5 1_555 1_555
C8_5 H6_5 1_555 1_555
C9_6 C4_6 1_555 1_555
C12_6 C3_6 1_555 1_555
H9_6 C12_6 1_555 1_555
C22_6 O9 1_555 1_555
C23_6 C1_6 1_555 1_555
H14_5 C23_6 1_555 1_555
C24_6 C9_6 1_555 1_555
H15_6 C24_6 1_555 1_555
N8_4 Cd7 1_555 1_555
C3_6 C22_6 1_555 1_555
C9_6 C23_6 1_555 1_555
C12_6 C24_6 1_555 1_555
Cd5 O7_6 1_555 1_555
O10_3 C15_6 1_555 1_555
N1_6 C21_6 1_555 1_555
O12_3 C15_6 1_555 1_555
O13 C43_6 1_555 1_555
O7_6 C43_6 1_555 1_555
C2_6 C6_6 1_555 1_555
C5_6 H4_6 1_555 1_555
C6_6 C5_6 1_555 1_555
N5_6 Cd5 1_555 1_555
C13_6 C5_6 1_555 1_555
C15_6 C13_6 1_555 1_555
C16_6 C13_6 1_555 1_555
H10_6 C16_6 1_555 1_555
C18_5 C20_5 1_555 1_555
C20_5 C10_5 1_555 1_555
C21_6 N5_6 1_555 1_555
H13_6 C21_6 1_555 1_555
C25_6 C2_6 1_555 1_555
H16_6 C25_6 1_555 1_555
C26_6 C20_5 1_555 1_555
H17_6 C26_6 1_555 1_555
C27_6 C2_6 1_555 1_555
C29_6 N1_6 1_555 1_555
H19_6 C30_6 1_555 1_555
C31_6 N1_6 1_555 1_555
C32_6 H20_6 1_555 1_555
C35_6 C32_6 1_555 1_555
C36_6 C18_5 1_555 1_555
H21_6 C36_6 1_555 1_555
H22_4 C37_4 1_555 1_555
C38_6 C35_6 1_555 1_555
H23_6 C38_6 1_555 1_555
C39_6 H24_6 1_555 1_555
C40_5 C18_5 1_555 1_555
H25_5 C40_5 1_555 1_555
C41_6 N5_6 1_555 1_555
C42_6 C29_6 1_555 1_555
H26_6 C42_6 1_555 1_555
C43_6 C35_6 1_555 1_555
C44_4 C37_4 1_555 1_555
H27_4 C44_4 1_555 1_555
C45_6 C39_6 1_555 1_555
H28_6 C45_6 1_555 1_555
C46_6 C39_6 1_555 1_555
H29_6 C46_6 1_555 1_555
C47_4 C33_4 1_555 1_555
H30_4 C47_4 1_555 1_555
C49_4 C44_4 1_555 1_555
H31_4 C49_4 1_555 1_555
O8_6 Cd5 1_555 1_555
H32_6 O8_6 1_555 1_555
H33_6 O8_6 1_555 1_555
C16_6 C25_6 1_555 1_555
C26_6 C27_6 1_555 1_555
C29_6 C41_6 1_555 1_555
C30_6 C31_6 1_555 1_555
C32_6 C36_6 1_555 1_555
C38_6 C40_5 1_555 1_555
C41_6 C45_6 1_555 1_555
C42_6 C46_6 1_555 1_555
C47_4 C49_4 1_555 1_555
N2_6 C7_6 1_555 1_555
N3_6 C14_6 1_555 1_555
N7_3 C11_6 1_555 1_555
C7_6 C19_6 1_555 1_555
C11_6 N2_6 1_555 1_555
H8_6 C11_6 1_555 1_555
N6_4 C17_6 1_555 1_555
C14_6 C28_6 1_555 1_555
C17_6 N3_6 1_555 1_555
H11_6 C17_6 1_555 1_555
C28_6 C7_6 1_555 1_555
H18_6 C28_6 1_555 1_555
C34_6 N6_4 1_555 1_555
C48_6 N7_3 1_555 1_555
C50_6 N2_6 1_555 1_555
C51_6 C48_6 1_555 1_555
H34_6 C51_6 1_555 1_555
C52_6 C51_6 1_555 1_555
H35_5 C52_6 1_555 1_555
C53_6 C50_6 1_555 1_555
H36_6 C53_6 1_555 1_555
C54_6 C52_6 1_555 1_555
H37_5 C54_6 1_555 1_555
Cd8 N6_4 1_555 1_555
C48_6 C50_6 1_555 1_555
C53_6 C54_6 1_555 1_555
N8_3 C17_7 1_555 1_555
C17_7 N3_7 1_555 1_555
H11_7 C17_7 1_555 1_555
C33_5 N3_7 1_555 1_555
C34_7 N8_3 1_555 1_555
C37_5 C34_7 1_555 1_555
H22_5 C37_5 1_555 1_555
C44_5 C37_5 1_555 1_555
H27_5 C44_5 1_555 1_555
C47_5 C33_5 1_555 1_555
H30_5 C47_5 1_555 1_555
C49_5 C44_5 1_555 1_555
H31_5 C49_5 1_555 1_555
C33_5 C34_7 1_555 1_555
C47_5 C49_5 1_555 1_555
Cd5_4 O7_7 1_555 1_555
N1_7 C21_7 1_555 1_555
N2_7 C7_7 1_555 1_555
O13_4 C43_7 1_555 1_555
O7_7 C43_7 1_555 1_555
N4_4 C11_7 1_555 1_555
C7_7 C19_7 1_555 1_555
N5_7 Cd5_4 1_555 1_555
C11_7 N2_7 1_555 1_555
H8_7 C11_7 1_555 1_555
C14_7 C28_7 1_555 1_555
C19_7 H12_7 1_555 1_555
C21_7 N5_7 1_555 1_555
H13_7 C21_7 1_555 1_555
C28_7 C7_7 1_555 1_555
H18_7 C28_7 1_555 1_555
C29_7 N1_7 1_555 1_555
C30_7 C14_7 1_555 1_555
H19_7 C30_7 1_555 1_555
C31_7 N1_7 1_555 1_555
C32_7 H20_7 1_555 1_555
C35_7 C32_7 1_555 1_555
H21_7 C36_7 1_555 1_555
C38_7 C35_7 1_555 1_555
H23_7 C38_7 1_555 1_555
C39_7 H24_7 1_555 1_555
C41_7 N5_7 1_555 1_555
C42_7 C29_7 1_555 1_555
H26_7 C42_7 1_555 1_555
C43_7 C35_7 1_555 1_555
C45_7 C39_7 1_555 1_555
H28_7 C45_7 1_555 1_555
C46_7 C39_7 1_555 1_555
H29_7 C46_7 1_555 1_555
C48_7 N4_4 1_555 1_555
C50_7 N2_7 1_555 1_555
O8_7 Cd5_4 1_555 1_555
H32_7 O8_7 1_555 1_555
H33_7 O8_7 1_555 1_555
C51_7 C48_7 1_555 1_555
H34_7 C51_7 1_555 1_555
C52_7 C51_7 1_555 1_555
C53_7 C50_7 1_555 1_555
H36_7 C53_7 1_555 1_555
C54_7 C52_7 1_555 1_555
Cd5_3 N4_4 1_555 1_555
N7_4 Cd5_4 1_555 1_555
C19_7 C31_7 1_555 1_555
C29_7 C41_7 1_555 1_555
C30_7 C31_7 1_555 1_555
C32_7 C36_7 1_555 1_555
C41_7 C45_7 1_555 1_555
C42_7 C46_7 1_555 1_555
C48_7 C50_7 1_555 1_555
C53_7 C54_7 1_555 1_555
Cd8_2 O1_7 1_555 1_555
O1_7 C22_7 1_555 1_555
O5_7 Cd8_2 1_555 1_555
H1_7 O5_7 1_555 1_555
H2_7 O5_7 1_555 1_555
C1_7 H3_7 1_555 1_555
C3_7 C1_7 1_555 1_555
C9_7 C4_7 1_555 1_555
C10_6 C4_7 1_555 1_555
H7_7 C10_6 1_555 1_555
C12_7 C3_7 1_555 1_555
H9_7 C12_7 1_555 1_555
C18_6 C20_6 1_555 1_555
C20_6 C10_6 1_555 1_555
C22_7 O9_4 1_555 1_555
C23_7 C1_7 1_555 1_555
C24_7 C9_7 1_555 1_555
H15_7 C24_7 1_555 1_555
C40_6 C18_6 1_555 1_555
H25_6 C40_6 1_555 1_555
C3_7 C22_7 1_555 1_555
C9_7 C23_7 1_555 1_555
C12_7 C24_7 1_555 1_555
O10_2 C15_7 1_555 1_555
O12_2 C15_7 1_555 1_555
C2_7 C6_7 1_555 1_555
C5_7 H4_7 1_555 1_555
C6_7 C5_7 1_555 1_555
H5_6 C6_7 1_555 1_555
C8_6 H6_6 1_555 1_555
C13_7 C5_7 1_555 1_555
C15_7 C13_7 1_555 1_555
C16_7 C13_7 1_555 1_555
H10_7 C16_7 1_555 1_555
C25_7 C2_7 1_555 1_555
H16_7 C25_7 1_555 1_555
H17_7 C26_7 1_555 1_555
C27_7 C2_7 1_555 1_555
C8_6 C27_7 1_555 1_555
C16_7 C25_7 1_555 1_555
C26_7 C27_7 1_555 1_555
O10 C15_8 1_555 1_555
O12 C15_8 1_555 1_555
C2_8 C6_8 1_555 1_555
C5_8 H4_8 1_555 1_555
C6_8 C5_8 1_555 1_555
C13_8 C5_8 1_555 1_555
C15_8 C13_8 1_555 1_555
C16_8 C13_8 1_555 1_555
H10_8 C16_8 1_555 1_555
C25_8 C2_8 1_555 1_555
H16_8 C25_8 1_555 1_555
H17_8 C26_8 1_555 1_555
C27_8 C2_8 1_555 1_555
C16_8 C25_8 1_555 1_555
C26_8 C27_8 1_555 1_555
Cd5_3 O7_8 1_555 1_555
N1_8 C21_8 1_555 1_555
N2_8 C7_8 1_555 1_555
N3_8 C14_8 1_555 1_555
O13_3 C43_8 1_555 1_555
O7_8 C43_8 1_555 1_555
N7_4 C11_8 1_555 1_555
C7_8 C19_8 1_555 1_555
N5_8 Cd5_3 1_555 1_555
C11_8 N2_8 1_555 1_555
H8_8 C11_8 1_555 1_555
N8_4 C17_8 1_555 1_555
C14_8 C28_8 1_555 1_555
C17_8 N3_8 1_555 1_555
H11_8 C17_8 1_555 1_555
C19_8 H12_8 1_555 1_555
C21_8 N5_8 1_555 1_555
H13_8 C21_8 1_555 1_555
C28_8 C7_8 1_555 1_555
H18_8 C28_8 1_555 1_555
C29_8 N1_8 1_555 1_555
C30_8 C14_8 1_555 1_555
H19_8 C30_8 1_555 1_555
C31_8 N1_8 1_555 1_555
C32_8 H20_8 1_555 1_555
C33_6 N3_8 1_555 1_555
C34_8 N8_4 1_555 1_555
C35_8 C32_8 1_555 1_555
H21_8 C36_8 1_555 1_555
C37_6 C34_8 1_555 1_555
H22_6 C37_6 1_555 1_555
C38_8 C35_8 1_555 1_555
H23_8 C38_8 1_555 1_555
C39_8 H24_8 1_555 1_555
C41_8 N5_8 1_555 1_555
C42_8 C29_8 1_555 1_555
H26_8 C42_8 1_555 1_555
C43_8 C35_8 1_555 1_555
C44_6 C37_6 1_555 1_555
H27_6 C44_6 1_555 1_555
C45_8 C39_8 1_555 1_555
H28_8 C45_8 1_555 1_555
C46_8 C39_8 1_555 1_555
H29_8 C46_8 1_555 1_555
C47_6 C33_6 1_555 1_555
H30_6 C47_6 1_555 1_555
C48_8 N7_4 1_555 1_555
C49_6 C44_6 1_555 1_555
H31_6 C49_6 1_555 1_555
C50_8 N2_8 1_555 1_555
O8_8 Cd5_3 1_555 1_555
H32_8 O8_8 1_555 1_555
H33_8 O8_8 1_555 1_555
C51_8 C48_8 1_555 1_555
H34_8 C51_8 1_555 1_555
C52_8 C51_8 1_555 1_555
C53_8 C50_8 1_555 1_555
H36_8 C53_8 1_555 1_555
C54_8 C52_8 1_555 1_555
C19_8 C31_8 1_555 1_555
C29_8 C41_8 1_555 1_555
C30_8 C31_8 1_555 1_555
C32_8 C36_8 1_555 1_555
C33_6 C34_8 1_555 1_555
C41_8 C45_8 1_555 1_555
C42_8 C46_8 1_555 1_555
C47_6 C49_6 1_555 1_555
C48_8 C50_8 1_555 1_555
C53_8 C54_8 1_555 1_555
Cd8 O1_8 1_555 1_555
O1_8 C22_8 1_555 1_555
O5_8 Cd8 1_555 1_555
H1_8 O5_8 1_555 1_555
H2_8 O5_8 1_555 1_555
C1_8 H3_8 1_555 1_555
C3_8 C1_8 1_555 1_555
C9_8 C4_8 1_555 1_555
C12_8 C3_8 1_555 1_555
H9_8 C12_8 1_555 1_555
C22_8 O9_3 1_555 1_555
C23_8 C1_8 1_555 1_555
C24_8 C9_8 1_555 1_555
H15_8 C24_8 1_555 1_555
C3_8 C22_8 1_555 1_555
C9_8 C23_8 1_555 1_555
C12_8 C24_8 1_555 1_555
H22_7 C37_7 1_555 1_555
C44_7 C37_7 1_555 1_555
H27_7 C44_7 1_555 1_555
C47_7 C33_7 1_555 1_555
H30_7 C47_7 1_555 1_555
C49_7 C44_7 1_555 1_555
H31_7 C49_7 1_555 1_555
C47_7 C49_7 1_555 1_555
C18_7 C20_7 1_555 1_555
C20_7 C10_7 1_555 1_555
C40_7 C18_7 1_555 1_555
H25_7 C40_7 1_555 1_555
C8_7 H6_7 1_555 1_555
H22_8 C37_8 1_555 1_555
C44_8 C37_8 1_555 1_555
H27_8 C44_8 1_555 1_555
C47_8 C33_8 1_555 1_555
H30_8 C47_8 1_555 1_555
C49_8 C44_8 1_555 1_555
H31_8 C49_8 1_555 1_555
C47_8 C49_8 1_555 1_555
C8_8 H6_8 1_555 1_555
C18_8 C20_8 1_555 1_555
C20_8 C10_8 1_555 1_555
C40_8 C18_8 1_555 1_555
H25_8 C40_8 1_555 1_555
O14 N9 1_555 1_555
N9 O15 1_555 1_555
O16 N9 1_555 1_555
O14_2 N9_2 1_555 1_555
N9_2 O15_2 1_555 1_555
O14_3 N9_3 1_555 1_555
O16_2 N9_3 1_555 1_555
O14_4 N9_4 1_555 1_555
N9_4 O15_3 1_555 1_555
O16_3 N9_4 1_555 1_555
O14_5 N9_5 1_555 1_555
O16_4 N9_5 1_555 1_555
O14_6 N9_6 1_555 1_555
N9_6 O15_4 1_555 1_555

#END
