
###############################################################################
#
# This file contains modified crystal structure data generated from the
# MOF subset of the Cambridge Structural Database (CSD) v543 
# hosted by the Cambridge Crystallographic Data Centre (CCDC).
#
# This work is licensed under the Creative Commons
# Attribution-NonCommercial-ShareAlike 4.0 International License.
# To view a copy of this license, visit
# http://creativecommons.org/licenses/by-nc-sa/4.0/
# or send a letter to
# Creative Commons, PO Box 1866, Mountain View, CA 94042, USA.
#
# CIF created using the CSD Python API on 29 September 2022
# The structure has been converted into the P1 space group
# The structure has a 3D framework
# The original CSD entry ONOCAY is in the monoclinic crystal system
# The framework has been calculated to contain at least 10.0% void space
# The void calculation uses a probe of radius 1.32A, grid spacing 0.4
# The framework is charged, counterions have been retained in the structure
#
###############################################################################

data_ONOCAY
_chemical_formula_moiety         '(C432 H296 Cd16 I32 N48 O64 4-)n'
_symmetry_cell_setting           triclinic
_symmetry_space_group_name_H-M   'P 1'
_symmetry_Int_Tables_number      1
_space_group_name_Hall           'P 1'
loop_
_symmetry_equiv_pos_site_id
_symmetry_equiv_pos_as_xyz
1 x,y,z
_cell_length_a                   22.393(3)
_cell_length_b                   23.627(3)
_cell_length_c                   24.794(4)
_cell_angle_alpha                90
_cell_angle_beta                 94.239(6)
_cell_angle_gamma                90
_cell_volume                     13082.1
loop_
_atom_site_label
_atom_site_type_symbol
_atom_site_fract_x
_atom_site_fract_y
_atom_site_fract_z
_atom_site_U_iso_or_equiv
_atom_site_thermal_displace_type
H32 H 0.746128 0.027756 0.397320 0.0510 Uiso
H35 H 0.681543 0.021511 0.454935 0.0360 Uiso
Cd1 Cd 0.64673(8) 0.75603(8) 0.67185(7) 0.0133 Uiso
Cd2 Cd 0.75591(9) 0.66959(8) 0.74124(8) 0.0154 Uiso
O1 O 0.6793(8) 0.2762(8) 0.2674(7) 0.0160 Uiso
O2 O 0.5851(8) 0.2740(8) 0.2353(7) 0.0200 Uiso
O3 O 0.6846(9) 0.6135(9) 0.7049(8) 0.0270 Uiso
N1 N 0.4012(10) 0.7867(9) 0.3638(8) 0.0150 Uiso
O4 O 0.6541(11) 0.6644(10) 0.6403(9) 0.0370 Uiso
O5 O 0.2640(9) 0.2472(9) 0.6812(8) 0.0270 Uiso
N2 N 0.5725(12) 0.7900(11) 0.6134(10) 0.0290 Uiso
N3 N 0.5222(10) 0.8101(10) 0.5345(9) 0.0160 Uiso
N4 N 0.6011(11) 0.8664(11) 0.3680(10) 0.0250 Uiso
O6 O 0.2125(9) 0.2738(9) 0.6045(8) 0.0250 Uiso
N5 N 0.6709(12) 0.8755(11) 0.3090(10) 0.0300 Uiso
N6 N 0.3246(11) 0.7920(11) 0.3045(9) 0.0240 Uiso
O7 O 0.7469(11) 0.5975(11) 0.8090(10) 0.0460 Uiso
H1 H 0.745533 0.601510 0.854010 0.0690 Uiso
H2 H 0.743747 0.550710 0.802739 0.0690 Uiso
C1 C 0.5376(11) 0.3651(11) 0.4709(10) 0.0120 Uiso
O8 O 0.6607(11) 0.8474(10) 0.7065(9) 0.0380 Uiso
H3 H 0.698310 0.866967 0.716174 0.0570 Uiso
H4 H 0.630040 0.874279 0.715659 0.0570 Uiso
C2 C 0.3224(11) 0.2869(11) 0.5556(10) 0.0110 Uiso
H5 H 0.290948 0.272752 0.532917 0.0130 Uiso
C3 C 0.5634(11) 0.4114(11) 0.4982(10) 0.0130 Uiso
H6 H 0.593598 0.431800 0.483287 0.0150 Uiso
C4 C 0.4602(10) 0.7996(10) 0.4502(9) 0.0070 Uiso
H7 H 0.428892 0.785376 0.468821 0.0080 Uiso
C5 C 0.6007(11) 0.3089(11) 0.3227(9) 0.0110 Uiso
C6 C 0.4576(12) 0.8024(12) 0.3953(10) 0.0160 Uiso
C7 C 0.4975(12) 0.3987(12) 0.5706(11) 0.0160 Uiso
H8 H 0.485262 0.410042 0.603997 0.0200 Uiso
C8 C 0.6427(12) 0.3135(12) 0.3696(10) 0.0170 Uiso
H9 H 0.681922 0.300941 0.368443 0.0200 Uiso
C9 C 0.5031(14) 0.8269(12) 0.3677(12) 0.0250 Uiso
H10 H 0.498837 0.830378 0.330279 0.0300 Uiso
C10 C 0.5162(11) 0.8207(11) 0.4779(10) 0.0120 Uiso
C11 C 0.3679(12) 0.7410(12) 0.3732(11) 0.0190 Uiso
C12 C 0.5578(12) 0.3464(11) 0.4217(10) 0.0160 Uiso
C13 C 0.5759(13) 0.7910(12) 0.5625(11) 0.0210 Uiso
H11 H 0.609887 0.780427 0.545519 0.0250 Uiso
C14 C 0.4896(12) 0.3369(12) 0.4916(11) 0.0180 Uiso
H12 H 0.470212 0.307501 0.472387 0.0210 Uiso
C15 C 0.4707(12) 0.3542(12) 0.5431(11) 0.0180 Uiso
C16 C 0.6290(12) 0.5705(12) 0.6334(10) 0.0170 Uiso
C17 C 0.3696(12) 0.3078(12) 0.5311(11) 0.0180 Uiso
H13 H 0.369744 0.310158 0.493665 0.0220 Uiso
C18 C 0.5517(11) 0.8450(11) 0.3945(10) 0.0120 Uiso
C19 C 0.4155(13) 0.3207(12) 0.6213(11) 0.0190 Uiso
H14 H 0.447362 0.333577 0.644189 0.0230 Uiso
C20 C 0.3728(14) 0.6914(13) 0.4083(12) 0.0270 Uiso
H15 H 0.406015 0.686465 0.432694 0.0320 Uiso
C21 C 0.6226(12) 0.3380(11) 0.4175(11) 0.0150 Uiso
H16 H 0.649890 0.348404 0.445838 0.0180 Uiso
C22 C 0.6562(12) 0.6214(12) 0.6570(10) 0.0160 Uiso
C23 C 0.5607(13) 0.8384(11) 0.4500(11) 0.0180 Uiso
H17 H 0.597824 0.846452 0.467619 0.0210 Uiso
C24 C 0.3755(14) 0.8196(14) 0.3223(12) 0.0300 Uiso
H18 H 0.389918 0.853525 0.309297 0.0360 Uiso
C25 C 0.5398(14) 0.3155(13) 0.3289(12) 0.0270 Uiso
H19 H 0.511889 0.305334 0.300929 0.0320 Uiso
C26 C 0.6215(11) 0.2832(11) 0.2705(10) 0.0130 Uiso
C27 C 0.3170(12) 0.7419(12) 0.3353(11) 0.0190 Uiso
C28 C 0.5440(11) 0.4266(11) 0.5468(10) 0.0110 Uiso
C29 C 0.3694(11) 0.2984(11) 0.6434(10) 0.0110 Uiso
H20 H 0.370707 0.291696 0.680399 0.0140 Uiso
C30 C 0.6267(12) 0.8448(12) 0.3245(10) 0.0170 Uiso
H21 H 0.613901 0.811517 0.307285 0.0200 Uiso
C31 C 0.4196(15) 0.3260(14) 0.5666(13) 0.0330 Uiso
C32 C 0.5866(13) 0.5281(12) 0.5531(12) 0.0220 Uiso
H22 H 0.574803 0.531805 0.516492 0.0270 Uiso
C33 C 0.6384(14) 0.9140(14) 0.3796(13) 0.0300 Uiso
C34 C 0.5782(9) 0.4783(9) 0.5793(8) 0.0000 Uiso
C35 C 0.3281(15) 0.6525(15) 0.4047(13) 0.0330 Uiso
H23 H 0.326363 0.623031 0.429406 0.0400 Uiso
C36 C 0.3155(12) 0.2843(12) 0.6081(10) 0.0170 Uiso
C37 C 0.5220(12) 0.3357(11) 0.3735(10) 0.0140 Uiso
H24 H 0.481408 0.343979 0.373827 0.0160 Uiso
C38 C 0.6160(13) 0.5188(13) 0.6602(12) 0.0230 Uiso
H25 H 0.628036 0.515001 0.696746 0.0280 Uiso
C39 C 0.6121(15) 0.5714(15) 0.5808(13) 0.0330 Uiso
H26 H 0.618535 0.604554 0.561872 0.0390 Uiso
C40 C 0.5884(14) 0.4774(14) 0.6359(13) 0.0310 Uiso
H27 H 0.575213 0.446984 0.655616 0.0380 Uiso
C41 C 0.2845(15) 0.6595(15) 0.3615(13) 0.0350 Uiso
H28 H 0.260132 0.628094 0.354449 0.0420 Uiso
C42 C 0.7243(17) 0.9653(16) 0.3444(15) 0.0440 Uiso
H29 H 0.751577 0.971874 0.318559 0.0530 Uiso
C43 C 0.4838(13) 0.8246(13) 0.5747(11) 0.0230 Uiso
C44 C 0.5158(12) 0.8139(11) 0.6248(10) 0.0150 Uiso
C45 C 0.6790(14) 0.9165(14) 0.3431(12) 0.0290 Uiso
C46 C 0.2729(13) 0.7004(12) 0.3312(11) 0.0200 Uiso
H30 H 0.238320 0.703024 0.308088 0.0240 Uiso
C47 C 0.6343(18) 0.9535(16) 0.4217(16) 0.0480 Uiso
H31 H 0.603703 0.952062 0.445084 0.0580 Uiso
C48 C 0.2590(13) 0.2672(13) 0.6343(12) 0.0240 Uiso
C49 C 0.7179(17) 0.9991(16) 0.3915(14) 0.0430 Uiso
C50 C 0.4863(15) 0.8205(14) 0.6714(14) 0.0340 Uiso
H33 H 0.503921 0.805253 0.703279 0.0410 Uiso
C51 C 0.4236(14) 0.8462(13) 0.5749(13) 0.0290 Uiso
H34 H 0.400322 0.853233 0.542934 0.0350 Uiso
C52 C 0.6800(14) 0.9961(14) 0.4262(13) 0.0300 Uiso
C53 C 0.4055(18) 0.8545(16) 0.6172(14) 0.0420 Uiso
H36 H 0.366265 0.867715 0.615157 0.0500 Uiso
C54 C 0.4321(19) 0.8482(18) 0.6736(17) 0.0520 Uiso
H37 H 0.415389 0.860716 0.704743 0.0620 Uiso
Cd3 Cd 0.14673(8) 0.25603(8) 0.67185(7) 0.0133 Uiso
Cd4 Cd 0.64673(8) 0.24397(8) 0.17185(7) 0.0133 Uiso
Cd5 Cd 0.25591(9) 0.16959(8) 0.74124(8) 0.0154 Uiso
Cd6 Cd 0.75591(9) 0.33041(8) 0.24124(8) 0.0154 Uiso
Cd7 Cd 0.74409(9) 0.83041(8) 0.25876(8) 0.0154 Uiso
Cd8 Cd 0.25591(9) 0.83041(8) 0.24124(8) 0.0154 Uiso
O9 O 0.6793(8) 0.7238(8) 0.7674(7) 0.0160 Uiso
O10 O 0.5851(8) 0.7260(8) 0.7353(7) 0.0200 Uiso
O11 O 0.7640(9) 0.7472(9) 0.6812(8) 0.0270 Uiso
O12 O 0.7125(9) 0.7738(9) 0.6045(8) 0.0250 Uiso
N7 N 0.8291(12) 0.6245(11) 0.6910(10) 0.0300 Uiso
N8 N 0.8246(11) 0.7080(11) 0.8045(9) 0.0240 Uiso
O1_2 O 0.3207(8) 0.2762(8) 0.2326(7) 0.0160 Uiso
O2_2 O 0.4149(8) 0.2740(8) 0.2647(7) 0.0200 Uiso
N1_2 N 0.5988(10) 0.7867(9) 0.1362(8) 0.0150 Uiso
N4_2 N 0.3989(11) 0.8664(11) 0.1320(10) 0.0250 Uiso
N5_2 N 0.3291(12) 0.8755(11) 0.1910(10) 0.0300 Uiso
N6_2 N 0.6754(11) 0.7920(11) 0.1955(9) 0.0240 Uiso
C1_2 C 0.4624(11) 0.3651(11) 0.0291(10) 0.0120 Uiso
C3_2 C 0.4366(11) 0.4114(11) 0.0018(10) 0.0130 Uiso
H6_2 H 0.406402 0.431800 0.016713 0.0150 Uiso
C4_2 C 0.5398(10) 0.7996(10) 0.0498(9) 0.0070 Uiso
H7_2 H 0.571108 0.785376 0.031179 0.0080 Uiso
C5_2 C 0.3993(11) 0.3089(11) 0.1773(9) 0.0110 Uiso
C6_2 C 0.5424(12) 0.8024(12) 0.1047(10) 0.0160 Uiso
C8_2 C 0.3573(12) 0.3135(12) 0.1304(10) 0.0170 Uiso
H9_2 H 0.318078 0.300941 0.131557 0.0200 Uiso
C9_2 C 0.4969(14) 0.8269(12) 0.1323(12) 0.0250 Uiso
H10_2 H 0.501163 0.830378 0.169721 0.0300 Uiso
C10_2 C 0.4838(11) 0.8207(11) 0.0221(10) 0.0120 Uiso
C11_2 C 0.6321(12) 0.7410(12) 0.1268(11) 0.0190 Uiso
C12_2 C 0.4422(12) 0.3464(11) 0.0783(10) 0.0160 Uiso
C14_2 C 0.5104(12) 0.3369(12) 0.0084(11) 0.0180 Uiso
H12_2 H 0.529788 0.307501 0.027613 0.0210 Uiso
H13_2 H 0.630256 0.310158 0.006335 0.0220 Uiso
C18_2 C 0.4483(11) 0.8450(11) 0.1055(10) 0.0120 Uiso
C20_2 C 0.6272(14) 0.6914(13) 0.0917(12) 0.0270 Uiso
H15_2 H 0.593985 0.686465 0.067306 0.0320 Uiso
C21_2 C 0.3774(12) 0.3380(11) 0.0825(11) 0.0150 Uiso
H16_2 H 0.350110 0.348404 0.054162 0.0180 Uiso
C23_2 C 0.4393(13) 0.8384(11) 0.0500(11) 0.0180 Uiso
H17_2 H 0.402176 0.846452 0.032381 0.0210 Uiso
C24_2 C 0.6245(14) 0.8196(14) 0.1777(12) 0.0300 Uiso
H18_2 H 0.610082 0.853525 0.190703 0.0360 Uiso
C25_2 C 0.4602(14) 0.3155(13) 0.1711(12) 0.0270 Uiso
H19_2 H 0.488111 0.305334 0.199071 0.0320 Uiso
C26_2 C 0.3785(11) 0.2832(11) 0.2295(10) 0.0130 Uiso
C27_2 C 0.6830(12) 0.7419(12) 0.1647(11) 0.0190 Uiso
C30_2 C 0.3733(12) 0.8448(12) 0.1755(10) 0.0170 Uiso
H21_2 H 0.386099 0.811517 0.192715 0.0200 Uiso
C33_2 C 0.3616(14) 0.9140(14) 0.1204(13) 0.0300 Uiso
C35_2 C 0.6719(15) 0.6525(15) 0.0953(13) 0.0330 Uiso
H23_2 H 0.673637 0.623031 0.070594 0.0400 Uiso
C37_2 C 0.4780(12) 0.3357(11) 0.1265(10) 0.0140 Uiso
H24_2 H 0.518592 0.343979 0.126173 0.0160 Uiso
C41_2 C 0.7155(15) 0.6595(15) 0.1385(13) 0.0350 Uiso
H28_2 H 0.739868 0.628094 0.145551 0.0420 Uiso
C42_2 C 0.2757(17) 0.9653(16) 0.1556(15) 0.0440 Uiso
H29_2 H 0.248423 0.971874 0.181441 0.0530 Uiso
C45_2 C 0.3210(14) 0.9165(14) 0.1569(12) 0.0290 Uiso
C46_2 C 0.7271(13) 0.7004(12) 0.1688(11) 0.0200 Uiso
H30_2 H 0.761680 0.703024 0.191912 0.0240 Uiso
C47_2 C 0.3657(18) 0.9535(16) 0.0783(16) 0.0480 Uiso
H31_2 H 0.396297 0.952062 0.054916 0.0580 Uiso
C49_2 C 0.2821(17) 0.9991(16) 0.1085(14) 0.0430 Uiso
C52_2 C 0.3200(14) 0.9961(14) 0.0738(13) 0.0300 Uiso
Cd4_2 Cd 0.35327(8) 0.24397(8) 0.32815(7) 0.0133 Uiso
Cd6_2 Cd 0.24409(9) 0.33041(8) 0.25876(8) 0.0154 Uiso
Cd1_2 Cd 0.35327(8) 0.75603(8) 0.82815(7) 0.0133 Uiso
Cd2_2 Cd 0.24409(9) 0.66959(8) 0.75876(8) 0.0154 Uiso
O3_2 O 0.3154(9) 0.6135(9) 0.7951(8) 0.0270 Uiso
O4_2 O 0.3459(11) 0.6644(10) 0.8597(9) 0.0370 Uiso
O5_2 O 0.7360(9) 0.2472(9) 0.8188(8) 0.0270 Uiso
N2_2 N 0.4275(12) 0.7900(11) 0.8866(10) 0.0290 Uiso
N3_2 N 0.4778(10) 0.8101(10) 0.9655(9) 0.0160 Uiso
O6_2 O 0.7875(9) 0.2738(9) 0.8955(8) 0.0250 Uiso
O7_2 O 0.2531(11) 0.5975(11) 0.6910(10) 0.0460 Uiso
H1_2 H 0.254467 0.601510 0.645990 0.0690 Uiso
H2_2 H 0.256253 0.550710 0.697261 0.0690 Uiso
O8_2 O 0.3393(11) 0.8474(10) 0.7935(9) 0.0380 Uiso
H3_2 H 0.301690 0.866967 0.783826 0.0570 Uiso
H4_2 H 0.369960 0.874279 0.784341 0.0570 Uiso
C2_2 C 0.6776(11) 0.2869(11) 0.9444(10) 0.0110 Uiso
H5_2 H 0.709052 0.272752 0.967083 0.0130 Uiso
C7_2 C 0.5025(12) 0.3987(12) 0.9294(11) 0.0160 Uiso
H8_2 H 0.514738 0.410042 0.896003 0.0200 Uiso
C13_2 C 0.4241(13) 0.7910(12) 0.9375(11) 0.0210 Uiso
H11_2 H 0.390113 0.780427 0.954481 0.0250 Uiso
C15_2 C 0.5293(12) 0.3542(12) 0.9569(11) 0.0180 Uiso
C16_2 C 0.3710(12) 0.5705(12) 0.8666(10) 0.0170 Uiso
C17_2 C 0.6304(12) 0.3078(12) 0.9689(11) 0.0180 Uiso
C19_2 C 0.5845(13) 0.3207(12) 0.8787(11) 0.0190 Uiso
H14_2 H 0.552638 0.333577 0.855811 0.0230 Uiso
C22_2 C 0.3438(12) 0.6214(12) 0.8430(10) 0.0160 Uiso
C28_2 C 0.4560(11) 0.4266(11) 0.9532(10) 0.0110 Uiso
C29_2 C 0.6306(11) 0.2984(11) 0.8566(10) 0.0110 Uiso
H20_2 H 0.629293 0.291696 0.819601 0.0140 Uiso
C31_2 C 0.5804(15) 0.3260(14) 0.9334(13) 0.0330 Uiso
C32_2 C 0.4134(13) 0.5281(12) 0.9469(12) 0.0220 Uiso
H22_2 H 0.425197 0.531805 0.983508 0.0270 Uiso
C34_2 C 0.4218(9) 0.4783(9) 0.9207(8) 0.0000 Uiso
C36_2 C 0.6845(12) 0.2843(12) 0.8919(10) 0.0170 Uiso
C38_2 C 0.3840(13) 0.5188(13) 0.8398(12) 0.0230 Uiso
H25_2 H 0.371964 0.515001 0.803254 0.0280 Uiso
C39_2 C 0.3879(15) 0.5714(15) 0.9192(13) 0.0330 Uiso
H26_2 H 0.381465 0.604554 0.938128 0.0390 Uiso
C40_2 C 0.4116(14) 0.4774(14) 0.8641(13) 0.0310 Uiso
H27_2 H 0.424787 0.446984 0.844384 0.0380 Uiso
C43_2 C 0.5162(13) 0.8246(13) 0.9253(11) 0.0230 Uiso
C44_2 C 0.4842(12) 0.8139(11) 0.8752(10) 0.0150 Uiso
C48_2 C 0.7410(13) 0.2672(13) 0.8657(12) 0.0240 Uiso
C50_2 C 0.5137(15) 0.8205(14) 0.8286(14) 0.0340 Uiso
H33_2 H 0.496079 0.805253 0.796721 0.0410 Uiso
C51_2 C 0.5764(14) 0.8462(13) 0.9251(13) 0.0290 Uiso
H34_2 H 0.599678 0.853233 0.957066 0.0350 Uiso
C53_2 C 0.5945(18) 0.8545(16) 0.8828(14) 0.0420 Uiso
H36_2 H 0.633735 0.867715 0.884843 0.0500 Uiso
C54_2 C 0.5679(19) 0.8482(18) 0.8264(17) 0.0520 Uiso
H37_2 H 0.584611 0.860716 0.795257 0.0620 Uiso
Cd3_2 Cd 0.85327(8) 0.25603(8) 0.82815(7) 0.0133 Uiso
Cd5_2 Cd 0.74409(9) 0.16959(8) 0.75876(8) 0.0154 Uiso
O9_2 O 0.3207(8) 0.7238(8) 0.7326(7) 0.0160 Uiso
O10_2 O 0.4149(8) 0.7260(8) 0.7647(7) 0.0200 Uiso
O11_2 O 0.2360(9) 0.7472(9) 0.8188(8) 0.0270 Uiso
O12_2 O 0.2875(9) 0.7738(9) 0.8955(8) 0.0250 Uiso
N7_2 N 0.1709(12) 0.6245(11) 0.8090(10) 0.0300 Uiso
N8_2 N 0.1754(11) 0.7080(11) 0.6955(9) 0.0240 Uiso
O3_3 O 0.1846(9) 0.1135(9) 0.7049(8) 0.0270 Uiso
O4_3 O 0.1541(11) 0.1644(10) 0.6403(9) 0.0370 Uiso
N2_3 N 0.0725(12) 0.2900(11) 0.6134(10) 0.0290 Uiso
N3_3 N 0.0222(10) 0.3101(10) 0.5345(9) 0.0160 Uiso
N4_3 N 0.1011(11) 0.3664(11) 0.3680(10) 0.0250 Uiso
N5_3 N 0.1709(12) 0.3755(11) 0.3090(10) 0.0300 Uiso
O7_3 O 0.2469(11) 0.0975(11) 0.8090(10) 0.0460 Uiso
H1_3 H 0.245533 0.101510 0.854010 0.0690 Uiso
H2_3 H 0.243747 0.050710 0.802739 0.0690 Uiso
O8_3 O 0.1607(11) 0.3474(10) 0.7065(9) 0.0380 Uiso
H3_3 H 0.198310 0.366967 0.716174 0.0570 Uiso
H4_3 H 0.130040 0.374279 0.715659 0.0570 Uiso
C9_3 C 0.0031(14) 0.3269(12) 0.3677(12) 0.0250 Uiso
C10_3 C 0.0162(11) 0.3207(11) 0.4779(10) 0.0120 Uiso
C13_3 C 0.0759(13) 0.2910(12) 0.5625(11) 0.0210 Uiso
H11_3 H 0.109887 0.280427 0.545519 0.0250 Uiso
C16_3 C 0.1290(12) 0.0705(12) 0.6334(10) 0.0170 Uiso
C18_3 C 0.0517(11) 0.3450(11) 0.3945(10) 0.0120 Uiso
C22_3 C 0.1562(12) 0.1214(12) 0.6570(10) 0.0160 Uiso
C23_3 C 0.0607(13) 0.3384(11) 0.4500(11) 0.0180 Uiso
H17_3 H 0.097824 0.346452 0.467619 0.0210 Uiso
C30_3 C 0.1267(12) 0.3448(12) 0.3245(10) 0.0170 Uiso
H21_3 H 0.113901 0.311517 0.307285 0.0200 Uiso
C32_3 C 0.0866(13) 0.0281(12) 0.5531(12) 0.0220 Uiso
H22_3 H 0.074803 0.031805 0.516492 0.0270 Uiso
C33_3 C 0.1384(14) 0.4140(14) 0.3796(13) 0.0300 Uiso
C38_3 C 0.1160(13) 0.0188(13) 0.6602(12) 0.0230 Uiso
H25_3 H 0.128036 0.015001 0.696746 0.0280 Uiso
C39_3 C 0.1121(15) 0.0714(15) 0.5808(13) 0.0330 Uiso
H26_3 H 0.118535 0.104554 0.561872 0.0390 Uiso
C42_3 C 0.2243(17) 0.4653(16) 0.3444(15) 0.0440 Uiso
H29_3 H 0.251577 0.471874 0.318559 0.0530 Uiso
C44_3 C 0.0158(12) 0.3139(11) 0.6248(10) 0.0150 Uiso
C45_3 C 0.1790(14) 0.4165(14) 0.3431(12) 0.0290 Uiso
C47_3 C 0.1343(18) 0.4535(16) 0.4217(16) 0.0480 Uiso
H31_3 H 0.103703 0.452062 0.445084 0.0580 Uiso
C49_3 C 0.2179(17) 0.4991(16) 0.3915(14) 0.0430 Uiso
H32_2 H 0.246128 0.527756 0.397320 0.0510 Uiso
H33_3 H 0.003921 0.305253 0.703279 0.0410 Uiso
C52_3 C 0.1800(14) 0.4961(14) 0.4262(13) 0.0300 Uiso
H35_2 H 0.181543 0.521511 0.454935 0.0360 Uiso
O9_3 O 0.1793(8) 0.2238(8) 0.7674(7) 0.0160 Uiso
O10_3 O 0.0851(8) 0.2260(8) 0.7353(7) 0.0200 Uiso
N7_3 N 0.3291(12) 0.1245(11) 0.6910(10) 0.0300 Uiso
N8_3 N 0.3246(11) 0.2080(11) 0.8045(9) 0.0240 Uiso
O1_3 O 0.1793(8) 0.7762(8) 0.2674(7) 0.0160 Uiso
O2_3 O 0.0851(8) 0.7740(8) 0.2353(7) 0.0200 Uiso
C1_3 C 0.0376(11) 0.8651(11) 0.4709(10) 0.0120 Uiso
C3_3 C 0.0634(11) 0.9114(11) 0.4982(10) 0.0130 Uiso
H6_3 H 0.093598 0.931800 0.483287 0.0150 Uiso
C5_3 C 0.1007(11) 0.8089(11) 0.3227(9) 0.0110 Uiso
C8_3 C 0.1427(12) 0.8135(12) 0.3696(10) 0.0170 Uiso
H9_3 H 0.181922 0.800941 0.368443 0.0200 Uiso
C12_3 C 0.0578(12) 0.8464(11) 0.4217(10) 0.0160 Uiso
C21_3 C 0.1226(12) 0.8380(11) 0.4175(11) 0.0150 Uiso
H16_3 H 0.149890 0.848404 0.445838 0.0180 Uiso
C25_3 C 0.0398(14) 0.8155(13) 0.3289(12) 0.0270 Uiso
H19_3 H 0.011889 0.805334 0.300929 0.0320 Uiso
C26_3 C 0.1215(11) 0.7832(11) 0.2705(10) 0.0130 Uiso
C28_3 C 0.0440(11) 0.9266(11) 0.5468(10) 0.0110 Uiso
C34_3 C 0.0782(9) 0.9783(9) 0.5793(8) 0.0000 Uiso
C37_3 C 0.0220(12) 0.8357(11) 0.3735(10) 0.0140 Uiso
C40_3 C 0.0884(14) 0.9774(14) 0.6359(13) 0.0310 Uiso
H27_3 H 0.075213 0.946984 0.655616 0.0380 Uiso
Cd4_3 Cd 0.14673(8) 0.74397(8) 0.17185(7) 0.0133 Uiso
N1_3 N 0.9012(10) 0.2867(9) 0.3638(8) 0.0150 Uiso
N6_3 N 0.8246(11) 0.2920(11) 0.3045(9) 0.0240 Uiso
C4_3 C 0.9602(10) 0.2996(10) 0.4502(9) 0.0070 Uiso
H7_3 H 0.928892 0.285376 0.468821 0.0080 Uiso
C6_3 C 0.9576(12) 0.3024(12) 0.3953(10) 0.0160 Uiso
H10_3 H 0.998837 0.330378 0.330279 0.0300 Uiso
C11_3 C 0.8679(12) 0.2410(12) 0.3732(11) 0.0190 Uiso
C20_3 C 0.8728(14) 0.1914(13) 0.4083(12) 0.0270 Uiso
H15_3 H 0.906015 0.186465 0.432694 0.0320 Uiso
C24_3 C 0.8755(14) 0.3196(14) 0.3223(12) 0.0300 Uiso
H18_3 H 0.889918 0.353525 0.309297 0.0360 Uiso
C27_3 C 0.8170(12) 0.2419(12) 0.3353(11) 0.0190 Uiso
C35_3 C 0.8281(15) 0.1525(15) 0.4047(13) 0.0330 Uiso
H23_3 H 0.826363 0.123031 0.429406 0.0400 Uiso
C41_3 C 0.7845(15) 0.1595(15) 0.3615(13) 0.0350 Uiso
H28_3 H 0.760132 0.128094 0.354449 0.0420 Uiso
C43_3 C 0.9838(13) 0.3246(13) 0.5747(11) 0.0230 Uiso
C46_3 C 0.7729(13) 0.2004(12) 0.3312(11) 0.0200 Uiso
H30_3 H 0.738320 0.203024 0.308088 0.0240 Uiso
C50_3 C 0.9863(15) 0.3205(14) 0.6714(14) 0.0340 Uiso
C51_3 C 0.9236(14) 0.3462(13) 0.5749(13) 0.0290 Uiso
H34_3 H 0.900322 0.353233 0.542934 0.0350 Uiso
C53_3 C 0.9055(18) 0.3545(16) 0.6172(14) 0.0420 Uiso
H36_3 H 0.866265 0.367715 0.615157 0.0500 Uiso
C54_3 C 0.9321(19) 0.3482(18) 0.6736(17) 0.0520 Uiso
H37_3 H 0.915389 0.360716 0.704743 0.0620 Uiso
C2_3 C 0.8224(11) 0.7869(11) 0.5556(10) 0.0110 Uiso
H5_3 H 0.790948 0.772752 0.532917 0.0130 Uiso
C7_3 C 0.9975(12) 0.8987(12) 0.5706(11) 0.0160 Uiso
H8_3 H 0.985262 0.910042 0.603997 0.0200 Uiso
C14_3 C 0.9896(12) 0.8369(12) 0.4916(11) 0.0180 Uiso
H12_3 H 0.970212 0.807501 0.472387 0.0210 Uiso
C15_3 C 0.9707(12) 0.8542(12) 0.5431(11) 0.0180 Uiso
C17_3 C 0.8696(12) 0.8078(12) 0.5311(11) 0.0180 Uiso
H13_3 H 0.869744 0.810158 0.493665 0.0220 Uiso
C19_3 C 0.9155(13) 0.8207(12) 0.6213(11) 0.0190 Uiso
H14_3 H 0.947362 0.833577 0.644189 0.0230 Uiso
C29_3 C 0.8694(11) 0.7984(11) 0.6434(10) 0.0110 Uiso
H20_3 H 0.870707 0.791696 0.680399 0.0140 Uiso
C31_3 C 0.9196(15) 0.8260(14) 0.5666(13) 0.0330 Uiso
C36_3 C 0.8155(12) 0.7843(12) 0.6081(10) 0.0170 Uiso
H24_3 H 0.981408 0.843979 0.373827 0.0160 Uiso
C48_3 C 0.7590(13) 0.7672(13) 0.6343(12) 0.0240 Uiso
N1_4 N 0.0988(10) 0.2867(9) 0.1362(8) 0.0150 Uiso
N6_4 N 0.1754(11) 0.2920(11) 0.1955(9) 0.0240 Uiso
C4_4 C 0.0398(10) 0.2996(10) 0.0498(9) 0.0070 Uiso
H7_4 H 0.071108 0.285376 0.031179 0.0080 Uiso
C6_4 C 0.0424(12) 0.3024(12) 0.1047(10) 0.0160 Uiso
H10_4 H 0.001163 0.330378 0.169721 0.0300 Uiso
C11_4 C 0.1321(12) 0.2410(12) 0.1268(11) 0.0190 Uiso
C20_4 C 0.1272(14) 0.1914(13) 0.0917(12) 0.0270 Uiso
H15_4 H 0.093985 0.186465 0.067306 0.0320 Uiso
C24_4 C 0.1245(14) 0.3196(14) 0.1777(12) 0.0300 Uiso
H18_4 H 0.110082 0.353525 0.190703 0.0360 Uiso
C27_4 C 0.1830(12) 0.2419(12) 0.1647(11) 0.0190 Uiso
C35_4 C 0.1719(15) 0.1525(15) 0.0953(13) 0.0330 Uiso
H23_4 H 0.173637 0.123031 0.070594 0.0400 Uiso
C41_4 C 0.2155(15) 0.1595(15) 0.1385(13) 0.0350 Uiso
H28_4 H 0.239868 0.128094 0.145551 0.0420 Uiso
C46_4 C 0.2271(13) 0.2004(12) 0.1688(11) 0.0200 Uiso
H30_4 H 0.261680 0.203024 0.191912 0.0240 Uiso
C2_4 C 0.1776(11) 0.7869(11) 0.9444(10) 0.0110 Uiso
H5_4 H 0.209052 0.772752 0.967083 0.0130 Uiso
C7_4 C 0.0025(12) 0.8987(12) 0.9294(11) 0.0160 Uiso
H8_4 H 0.014738 0.910042 0.896003 0.0200 Uiso
C15_4 C 0.0293(12) 0.8542(12) 0.9569(11) 0.0180 Uiso
C17_4 C 0.1304(12) 0.8078(12) 0.9689(11) 0.0180 Uiso
C19_4 C 0.0845(13) 0.8207(12) 0.8787(11) 0.0190 Uiso
H14_4 H 0.052638 0.833577 0.855811 0.0230 Uiso
C29_4 C 0.1306(11) 0.7984(11) 0.8566(10) 0.0110 Uiso
H20_4 H 0.129293 0.791696 0.819601 0.0140 Uiso
C31_4 C 0.0804(15) 0.8260(14) 0.9334(13) 0.0330 Uiso
C36_4 C 0.1845(12) 0.7843(12) 0.8919(10) 0.0170 Uiso
C48_4 C 0.2410(13) 0.7672(13) 0.8657(12) 0.0240 Uiso
N4_4 N 0.8989(11) 0.3664(11) 0.1320(10) 0.0250 Uiso
N5_4 N 0.8291(12) 0.3755(11) 0.1910(10) 0.0300 Uiso
C9_4 C 0.9969(14) 0.3269(12) 0.1323(12) 0.0250 Uiso
C10_4 C 0.9838(11) 0.3207(11) 0.0221(10) 0.0120 Uiso
C18_4 C 0.9483(11) 0.3450(11) 0.1055(10) 0.0120 Uiso
C23_4 C 0.9393(13) 0.3384(11) 0.0500(11) 0.0180 Uiso
H17_4 H 0.902176 0.346452 0.032381 0.0210 Uiso
C30_4 C 0.8733(12) 0.3448(12) 0.1755(10) 0.0170 Uiso
H21_4 H 0.886099 0.311517 0.192715 0.0200 Uiso
C33_4 C 0.8616(14) 0.4140(14) 0.1204(13) 0.0300 Uiso
C42_4 C 0.7757(17) 0.4653(16) 0.1556(15) 0.0440 Uiso
H29_4 H 0.748423 0.471874 0.181441 0.0530 Uiso
C45_4 C 0.8210(14) 0.4165(14) 0.1569(12) 0.0290 Uiso
C47_4 C 0.8657(18) 0.4535(16) 0.0783(16) 0.0480 Uiso
H31_4 H 0.896297 0.452062 0.054916 0.0580 Uiso
C49_4 C 0.7821(17) 0.4991(16) 0.1085(14) 0.0430 Uiso
H32_3 H 0.753872 0.527756 0.102680 0.0510 Uiso
C52_4 C 0.8200(14) 0.4961(14) 0.0738(13) 0.0300 Uiso
H35_3 H 0.818457 0.521511 0.045065 0.0360 Uiso
O3_4 O 0.8154(9) 0.1135(9) 0.7951(8) 0.0270 Uiso
O4_4 O 0.8459(11) 0.1644(10) 0.8597(9) 0.0370 Uiso
N2_4 N 0.9275(12) 0.2900(11) 0.8866(10) 0.0290 Uiso
N3_4 N 0.9778(10) 0.3101(10) 0.9655(9) 0.0160 Uiso
O7_4 O 0.7531(11) 0.0975(11) 0.6910(10) 0.0460 Uiso
H1_4 H 0.754467 0.101510 0.645990 0.0690 Uiso
H2_4 H 0.756253 0.050710 0.697261 0.0690 Uiso
O8_4 O 0.8393(11) 0.3474(10) 0.7935(9) 0.0380 Uiso
H3_4 H 0.801690 0.366967 0.783826 0.0570 Uiso
H4_4 H 0.869960 0.374279 0.784341 0.0570 Uiso
C13_4 C 0.9241(13) 0.2910(12) 0.9375(11) 0.0210 Uiso
H11_4 H 0.890113 0.280427 0.954481 0.0250 Uiso
C16_4 C 0.8710(12) 0.0705(12) 0.8666(10) 0.0170 Uiso
C22_4 C 0.8438(12) 0.1214(12) 0.8430(10) 0.0160 Uiso
C32_4 C 0.9134(13) 0.0281(12) 0.9469(12) 0.0220 Uiso
H22_4 H 0.925197 0.031805 0.983508 0.0270 Uiso
C38_4 C 0.8840(13) 0.0188(13) 0.8398(12) 0.0230 Uiso
H25_4 H 0.871964 0.015001 0.803254 0.0280 Uiso
C39_4 C 0.8879(15) 0.0714(15) 0.9192(13) 0.0330 Uiso
H26_4 H 0.881465 0.104554 0.938128 0.0390 Uiso
C44_4 C 0.9842(12) 0.3139(11) 0.8752(10) 0.0150 Uiso
H33_4 H 0.996079 0.305253 0.796721 0.0410 Uiso
O9_4 O 0.8207(8) 0.2238(8) 0.7326(7) 0.0160 Uiso
O10_4 O 0.9149(8) 0.2260(8) 0.7647(7) 0.0200 Uiso
N7_4 N 0.6709(12) 0.1245(11) 0.8090(10) 0.0300 Uiso
N8_4 N 0.6754(11) 0.2080(11) 0.6955(9) 0.0240 Uiso
O1_4 O 0.8207(8) 0.7762(8) 0.2326(7) 0.0160 Uiso
O2_4 O 0.9149(8) 0.7740(8) 0.2647(7) 0.0200 Uiso
C1_4 C 0.9624(11) 0.8651(11) 0.0291(10) 0.0120 Uiso
C3_4 C 0.9366(11) 0.9114(11) 0.0018(10) 0.0130 Uiso
H6_4 H 0.906402 0.931800 0.016713 0.0150 Uiso
C5_4 C 0.8993(11) 0.8089(11) 0.1773(9) 0.0110 Uiso
C8_4 C 0.8573(12) 0.8135(12) 0.1304(10) 0.0170 Uiso
H9_4 H 0.818078 0.800941 0.131557 0.0200 Uiso
C12_4 C 0.9422(12) 0.8464(11) 0.0783(10) 0.0160 Uiso
C21_4 C 0.8774(12) 0.8380(11) 0.0825(11) 0.0150 Uiso
H16_4 H 0.850110 0.848404 0.054162 0.0180 Uiso
C25_4 C 0.9602(14) 0.8155(13) 0.1711(12) 0.0270 Uiso
H19_4 H 0.988111 0.805334 0.199071 0.0320 Uiso
C26_4 C 0.8785(11) 0.7832(11) 0.2295(10) 0.0130 Uiso
C37_4 C 0.9780(12) 0.8357(11) 0.1265(10) 0.0140 Uiso
Cd4_4 Cd 0.85327(8) 0.74397(8) 0.32815(7) 0.0133 Uiso
O3_5 O 0.3154(9) 0.3865(9) 0.2951(8) 0.0270 Uiso
N1_5 N 0.5988(10) 0.2133(9) 0.6362(8) 0.0150 Uiso
O4_5 O 0.3459(11) 0.3356(10) 0.3597(9) 0.0370 Uiso
O5_3 O 0.7360(9) 0.7528(9) 0.3188(8) 0.0270 Uiso
N2_5 N 0.4275(12) 0.2100(11) 0.3866(10) 0.0290 Uiso
N3_5 N 0.4778(10) 0.1899(10) 0.4655(9) 0.0160 Uiso
N4_5 N 0.3989(11) 0.1336(11) 0.6320(10) 0.0250 Uiso
O6_3 O 0.7875(9) 0.7262(9) 0.3955(8) 0.0250 Uiso
O7_5 O 0.2531(11) 0.4025(11) 0.1910(10) 0.0460 Uiso
H1_5 H 0.254467 0.398490 0.145990 0.0690 Uiso
H2_5 H 0.256253 0.449290 0.197261 0.0690 Uiso
C1_5 C 0.4624(11) 0.6349(11) 0.5291(10) 0.0120 Uiso
O8_5 O 0.3393(11) 0.1526(10) 0.2935(9) 0.0380 Uiso
H3_5 H 0.301690 0.133033 0.283826 0.0570 Uiso
H4_5 H 0.369960 0.125721 0.284341 0.0570 Uiso
C2_5 C 0.6776(11) 0.7131(11) 0.4444(10) 0.0110 Uiso
H5_5 H 0.709052 0.727248 0.467083 0.0130 Uiso
C3_5 C 0.4366(11) 0.5886(11) 0.5018(10) 0.0130 Uiso
H6_5 H 0.406402 0.568200 0.516713 0.0150 Uiso
C4_5 C 0.5398(10) 0.2004(10) 0.5498(9) 0.0070 Uiso
H7_5 H 0.571108 0.214624 0.531179 0.0080 Uiso
C5_5 C 0.3993(11) 0.6911(11) 0.6773(9) 0.0110 Uiso
C6_5 C 0.5424(12) 0.1976(12) 0.6047(10) 0.0160 Uiso
C7_5 C 0.5025(12) 0.6013(12) 0.4294(11) 0.0160 Uiso
H8_5 H 0.514738 0.589958 0.396003 0.0200 Uiso
C8_5 C 0.3573(12) 0.6865(12) 0.6304(10) 0.0170 Uiso
H9_5 H 0.318078 0.699059 0.631557 0.0200 Uiso
C9_5 C 0.4969(14) 0.1731(12) 0.6323(12) 0.0250 Uiso
H10_5 H 0.501163 0.169622 0.669721 0.0300 Uiso
C10_5 C 0.4838(11) 0.1793(11) 0.5221(10) 0.0120 Uiso
C11_5 C 0.6321(12) 0.2590(12) 0.6268(11) 0.0190 Uiso
C12_5 C 0.4422(12) 0.6536(11) 0.5783(10) 0.0160 Uiso
C13_5 C 0.4241(13) 0.2090(12) 0.4375(11) 0.0210 Uiso
H11_5 H 0.390113 0.219573 0.454481 0.0250 Uiso
C14_4 C 0.5104(12) 0.6631(12) 0.5084(11) 0.0180 Uiso
H12_4 H 0.529788 0.692499 0.527613 0.0210 Uiso
C15_5 C 0.5293(12) 0.6458(12) 0.4569(11) 0.0180 Uiso
C16_5 C 0.3710(12) 0.4295(12) 0.3666(10) 0.0170 Uiso
C17_5 C 0.6304(12) 0.6922(12) 0.4689(11) 0.0180 Uiso
H13_4 H 0.630256 0.689842 0.506335 0.0220 Uiso
C18_5 C 0.4483(11) 0.1550(11) 0.6055(10) 0.0120 Uiso
C19_5 C 0.5845(13) 0.6793(12) 0.3787(11) 0.0190 Uiso
H14_5 H 0.552638 0.666423 0.355811 0.0230 Uiso
C20_5 C 0.6272(14) 0.3086(13) 0.5917(12) 0.0270 Uiso
H15_5 H 0.593985 0.313535 0.567306 0.0320 Uiso
C21_5 C 0.3774(12) 0.6620(11) 0.5825(11) 0.0150 Uiso
H16_5 H 0.350110 0.651596 0.554162 0.0180 Uiso
C22_5 C 0.3438(12) 0.3786(12) 0.3430(10) 0.0160 Uiso
C23_5 C 0.4393(13) 0.1616(11) 0.5500(11) 0.0180 Uiso
H17_5 H 0.402176 0.153548 0.532381 0.0210 Uiso
C24_5 C 0.6245(14) 0.1804(14) 0.6777(12) 0.0300 Uiso
H18_5 H 0.610082 0.146475 0.690703 0.0360 Uiso
C25_5 C 0.4602(14) 0.6845(13) 0.6711(12) 0.0270 Uiso
H19_5 H 0.488111 0.694666 0.699071 0.0320 Uiso
C26_5 C 0.3785(11) 0.7168(11) 0.7295(10) 0.0130 Uiso
C27_5 C 0.6830(12) 0.2581(12) 0.6647(11) 0.0190 Uiso
C28_4 C 0.4560(11) 0.5734(11) 0.4532(10) 0.0110 Uiso
C29_5 C 0.6306(11) 0.7016(11) 0.3566(10) 0.0110 Uiso
H20_5 H 0.629293 0.708304 0.319601 0.0140 Uiso
C30_5 C 0.3733(12) 0.1552(12) 0.6755(10) 0.0170 Uiso
H21_5 H 0.386099 0.188483 0.692715 0.0200 Uiso
C31_5 C 0.5804(15) 0.6740(14) 0.4334(13) 0.0330 Uiso
C32_5 C 0.4134(13) 0.4719(12) 0.4469(12) 0.0220 Uiso
H22_5 H 0.425197 0.468195 0.483508 0.0270 Uiso
C33_5 C 0.3616(14) 0.0860(14) 0.6204(13) 0.0300 Uiso
C34_4 C 0.4218(9) 0.5217(9) 0.4207(8) 0.0000 Uiso
C35_5 C 0.6719(15) 0.3475(15) 0.5953(13) 0.0330 Uiso
H23_5 H 0.673637 0.376969 0.570594 0.0400 Uiso
C36_5 C 0.6845(12) 0.7157(12) 0.3919(10) 0.0170 Uiso
C37_5 C 0.4780(12) 0.6643(11) 0.6265(10) 0.0140 Uiso
H24_4 H 0.518592 0.656021 0.626173 0.0160 Uiso
C38_5 C 0.3840(13) 0.4812(13) 0.3398(12) 0.0230 Uiso
H25_5 H 0.371964 0.484999 0.303254 0.0280 Uiso
C39_5 C 0.3879(15) 0.4286(15) 0.4192(13) 0.0330 Uiso
H26_5 H 0.381465 0.395446 0.438128 0.0390 Uiso
C40_4 C 0.4116(14) 0.5226(14) 0.3641(13) 0.0310 Uiso
H27_4 H 0.424787 0.553016 0.344384 0.0380 Uiso
C41_5 C 0.7155(15) 0.3405(15) 0.6385(13) 0.0350 Uiso
H28_5 H 0.739868 0.371906 0.645551 0.0420 Uiso
C42_5 C 0.2757(17) 0.0347(16) 0.6556(15) 0.0440 Uiso
H29_5 H 0.248423 0.028126 0.681441 0.0530 Uiso
C43_4 C 0.5162(13) 0.1754(13) 0.4253(11) 0.0230 Uiso
C44_5 C 0.4842(12) 0.1861(11) 0.3752(10) 0.0150 Uiso
C45_5 C 0.3210(14) 0.0835(14) 0.6569(12) 0.0290 Uiso
C46_5 C 0.7271(13) 0.2996(12) 0.6688(11) 0.0200 Uiso
H30_5 H 0.761680 0.296976 0.691912 0.0240 Uiso
C47_5 C 0.3657(18) 0.0465(16) 0.5783(16) 0.0480 Uiso
H31_5 H 0.396297 0.047938 0.554916 0.0580 Uiso
C48_5 C 0.7410(13) 0.7328(13) 0.3657(12) 0.0240 Uiso
C49_5 C 0.2821(17) 0.0009(16) 0.6085(14) 0.0430 Uiso
C50_4 C 0.5137(15) 0.1795(14) 0.3286(14) 0.0340 Uiso
H33_5 H 0.496079 0.194747 0.296721 0.0410 Uiso
C51_4 C 0.5764(14) 0.1538(13) 0.4251(13) 0.0290 Uiso
H34_4 H 0.599678 0.146767 0.457066 0.0350 Uiso
C52_5 C 0.3200(14) 0.0039(14) 0.5738(13) 0.0300 Uiso
C53_4 C 0.5945(18) 0.1455(16) 0.3828(14) 0.0420 Uiso
H36_4 H 0.633735 0.132285 0.384843 0.0500 Uiso
C54_4 C 0.5679(19) 0.1518(18) 0.3264(17) 0.0520 Uiso
H37_4 H 0.584611 0.139284 0.295257 0.0620 Uiso
O11_3 O 0.2360(9) 0.2528(9) 0.3188(8) 0.0270 Uiso
O12_3 O 0.2875(9) 0.2262(9) 0.3955(8) 0.0250 Uiso
O3_6 O 0.6846(9) 0.3865(9) 0.2049(8) 0.0270 Uiso
O4_6 O 0.6541(11) 0.3356(10) 0.1403(9) 0.0370 Uiso
O5_4 O 0.2640(9) 0.7528(9) 0.1812(8) 0.0270 Uiso
N2_6 N 0.5725(12) 0.2100(11) 0.1134(10) 0.0290 Uiso
N3_6 N 0.5222(10) 0.1899(10) 0.0345(9) 0.0160 Uiso
O6_4 O 0.2125(9) 0.7262(9) 0.1045(8) 0.0250 Uiso
O7_6 O 0.7469(11) 0.4025(11) 0.3090(10) 0.0460 Uiso
H1_6 H 0.745533 0.398490 0.354010 0.0690 Uiso
H2_6 H 0.743747 0.449290 0.302739 0.0690 Uiso
O8_6 O 0.6607(11) 0.1526(10) 0.2065(9) 0.0380 Uiso
H3_6 H 0.698310 0.133033 0.216174 0.0570 Uiso
H4_6 H 0.630040 0.125721 0.215659 0.0570 Uiso
C2_6 C 0.3224(11) 0.7131(11) 0.0556(10) 0.0110 Uiso
H5_6 H 0.290948 0.727248 0.032917 0.0130 Uiso
C7_6 C 0.4975(12) 0.6013(12) 0.0706(11) 0.0160 Uiso
H8_6 H 0.485262 0.589958 0.103997 0.0200 Uiso
C13_6 C 0.5759(13) 0.2090(12) 0.0625(11) 0.0210 Uiso
H11_6 H 0.609887 0.219573 0.045519 0.0250 Uiso
C15_6 C 0.4707(12) 0.6458(12) 0.0431(11) 0.0180 Uiso
C16_6 C 0.6290(12) 0.4295(12) 0.1334(10) 0.0170 Uiso
C17_6 C 0.3696(12) 0.6922(12) 0.0311(11) 0.0180 Uiso
C19_6 C 0.4155(13) 0.6793(12) 0.1213(11) 0.0190 Uiso
H14_6 H 0.447362 0.666423 0.144189 0.0230 Uiso
C22_6 C 0.6562(12) 0.3786(12) 0.1570(10) 0.0160 Uiso
C28_5 C 0.5440(11) 0.5734(11) 0.0468(10) 0.0110 Uiso
C29_6 C 0.3694(11) 0.7016(11) 0.1434(10) 0.0110 Uiso
H20_6 H 0.370707 0.708304 0.180399 0.0140 Uiso
C31_6 C 0.4196(15) 0.6740(14) 0.0666(13) 0.0330 Uiso
C32_6 C 0.5866(13) 0.4719(12) 0.0531(12) 0.0220 Uiso
H22_6 H 0.574803 0.468195 0.016492 0.0270 Uiso
C34_5 C 0.5782(9) 0.5217(9) 0.0793(8) 0.0000 Uiso
C36_6 C 0.3155(12) 0.7157(12) 0.1081(10) 0.0170 Uiso
C38_6 C 0.6160(13) 0.4812(13) 0.1602(12) 0.0230 Uiso
H25_6 H 0.628036 0.484999 0.196746 0.0280 Uiso
C39_6 C 0.6121(15) 0.4286(15) 0.0808(13) 0.0330 Uiso
H26_6 H 0.618535 0.395446 0.061872 0.0390 Uiso
C40_5 C 0.5884(14) 0.5226(14) 0.1359(13) 0.0310 Uiso
H27_5 H 0.575213 0.553016 0.155616 0.0380 Uiso
C43_5 C 0.4838(13) 0.1754(13) 0.0747(11) 0.0230 Uiso
C44_6 C 0.5158(12) 0.1861(11) 0.1248(10) 0.0150 Uiso
C48_6 C 0.2590(13) 0.7328(13) 0.1343(12) 0.0240 Uiso
C50_5 C 0.4863(15) 0.1795(14) 0.1714(14) 0.0340 Uiso
H33_6 H 0.503921 0.194747 0.203279 0.0410 Uiso
C51_5 C 0.4236(14) 0.1538(13) 0.0749(13) 0.0290 Uiso
H34_5 H 0.400322 0.146767 0.042934 0.0350 Uiso
C53_5 C 0.4055(18) 0.1455(16) 0.1172(14) 0.0420 Uiso
H36_5 H 0.366265 0.132285 0.115157 0.0500 Uiso
C54_5 C 0.4321(19) 0.1518(18) 0.1736(17) 0.0520 Uiso
H37_5 H 0.415389 0.139284 0.204743 0.0620 Uiso
O11_4 O 0.7640(9) 0.2528(9) 0.1812(8) 0.0270 Uiso
O12_4 O 0.7125(9) 0.2262(9) 0.1045(8) 0.0250 Uiso
N1_6 N 0.4012(10) 0.2133(9) 0.8638(8) 0.0150 Uiso
N4_6 N 0.6011(11) 0.1336(11) 0.8680(10) 0.0250 Uiso
C1_6 C 0.5376(11) 0.6349(11) 0.9709(10) 0.0120 Uiso
C3_6 C 0.5634(11) 0.5886(11) 0.9982(10) 0.0130 Uiso
H6_6 H 0.593598 0.568200 0.983287 0.0150 Uiso
C4_6 C 0.4602(10) 0.2004(10) 0.9502(9) 0.0070 Uiso
H7_6 H 0.428892 0.214624 0.968821 0.0080 Uiso
C5_6 C 0.6007(11) 0.6911(11) 0.8227(9) 0.0110 Uiso
C6_6 C 0.4576(12) 0.1976(12) 0.8953(10) 0.0160 Uiso
C8_6 C 0.6427(12) 0.6865(12) 0.8696(10) 0.0170 Uiso
H9_6 H 0.681922 0.699059 0.868443 0.0200 Uiso
C9_6 C 0.5031(14) 0.1731(12) 0.8677(12) 0.0250 Uiso
H10_6 H 0.498837 0.169622 0.830279 0.0300 Uiso
C10_6 C 0.5162(11) 0.1793(11) 0.9779(10) 0.0120 Uiso
C11_6 C 0.3679(12) 0.2590(12) 0.8732(11) 0.0190 Uiso
C12_6 C 0.5578(12) 0.6536(11) 0.9217(10) 0.0160 Uiso
C14_5 C 0.4896(12) 0.6631(12) 0.9916(11) 0.0180 Uiso
H12_5 H 0.470212 0.692499 0.972387 0.0210 Uiso
H13_5 H 0.369744 0.689842 0.993665 0.0220 Uiso
C18_6 C 0.5517(11) 0.1550(11) 0.8945(10) 0.0120 Uiso
C20_6 C 0.3728(14) 0.3086(13) 0.9083(12) 0.0270 Uiso
H15_6 H 0.406015 0.313535 0.932694 0.0320 Uiso
C21_6 C 0.6226(12) 0.6620(11) 0.9175(11) 0.0150 Uiso
H16_6 H 0.649890 0.651596 0.945838 0.0180 Uiso
C23_6 C 0.5607(13) 0.1616(11) 0.9500(11) 0.0180 Uiso
H17_6 H 0.597824 0.153548 0.967619 0.0210 Uiso
C24_6 C 0.3755(14) 0.1804(14) 0.8223(12) 0.0300 Uiso
H18_6 H 0.389918 0.146475 0.809297 0.0360 Uiso
C25_6 C 0.5398(14) 0.6845(13) 0.8289(12) 0.0270 Uiso
H19_6 H 0.511889 0.694666 0.800929 0.0320 Uiso
C26_6 C 0.6215(11) 0.7168(11) 0.7705(10) 0.0130 Uiso
C27_6 C 0.3170(12) 0.2581(12) 0.8353(11) 0.0190 Uiso
C30_6 C 0.6267(12) 0.1552(12) 0.8245(10) 0.0170 Uiso
H21_6 H 0.613901 0.188483 0.807285 0.0200 Uiso
C33_6 C 0.6384(14) 0.0860(14) 0.8796(13) 0.0300 Uiso
C35_6 C 0.3281(15) 0.3475(15) 0.9047(13) 0.0330 Uiso
H23_6 H 0.326363 0.376969 0.929406 0.0400 Uiso
C37_6 C 0.5220(12) 0.6643(11) 0.8735(10) 0.0140 Uiso
H24_5 H 0.481408 0.656021 0.873827 0.0160 Uiso
C41_6 C 0.2845(15) 0.3405(15) 0.8615(13) 0.0350 Uiso
H28_6 H 0.260132 0.371906 0.854449 0.0420 Uiso
C42_6 C 0.7243(17) 0.0347(16) 0.8444(15) 0.0440 Uiso
H29_6 H 0.751577 0.028126 0.818559 0.0530 Uiso
C45_6 C 0.6790(14) 0.0835(14) 0.8431(12) 0.0290 Uiso
C46_6 C 0.2729(13) 0.2996(12) 0.8312(11) 0.0200 Uiso
H30_6 H 0.238320 0.296976 0.808088 0.0240 Uiso
C47_6 C 0.6343(18) 0.0465(16) 0.9217(16) 0.0480 Uiso
H31_6 H 0.603703 0.047938 0.945084 0.0580 Uiso
C49_6 C 0.7179(17) 0.0009(16) 0.8915(14) 0.0430 Uiso
C52_6 C 0.6800(14) 0.0039(14) 0.9262(13) 0.0300 Uiso
C2_7 C 0.1776(11) 0.2131(11) 0.4444(10) 0.0110 Uiso
H5_7 H 0.209052 0.227248 0.467083 0.0130 Uiso
C7_7 C 0.0025(12) 0.1013(12) 0.4294(11) 0.0160 Uiso
H8_7 H 0.014738 0.089958 0.396003 0.0200 Uiso
C14_6 C 0.0104(12) 0.1631(12) 0.5084(11) 0.0180 Uiso
H12_6 H 0.029788 0.192499 0.527613 0.0210 Uiso
C15_7 C 0.0293(12) 0.1458(12) 0.4569(11) 0.0180 Uiso
C17_7 C 0.1304(12) 0.1922(12) 0.4689(11) 0.0180 Uiso
H13_6 H 0.130256 0.189842 0.506335 0.0220 Uiso
C19_7 C 0.0845(13) 0.1793(12) 0.3787(11) 0.0190 Uiso
H14_7 H 0.052638 0.166423 0.355811 0.0230 Uiso
C29_7 C 0.1306(11) 0.2016(11) 0.3566(10) 0.0110 Uiso
H20_7 H 0.129293 0.208304 0.319601 0.0140 Uiso
C31_7 C 0.0804(15) 0.1740(14) 0.4334(13) 0.0330 Uiso
C36_7 C 0.1845(12) 0.2157(12) 0.3919(10) 0.0170 Uiso
H24_6 H 0.018592 0.156021 0.626173 0.0160 Uiso
C48_7 C 0.2410(13) 0.2328(13) 0.3657(12) 0.0240 Uiso
N1_7 N 0.0988(10) 0.7133(9) 0.6362(8) 0.0150 Uiso
C4_7 C 0.0398(10) 0.7004(10) 0.5498(9) 0.0070 Uiso
H7_7 H 0.071108 0.714624 0.531179 0.0080 Uiso
C6_7 C 0.0424(12) 0.6976(12) 0.6047(10) 0.0160 Uiso
H10_7 H 0.001163 0.669622 0.669721 0.0300 Uiso
C11_7 C 0.1321(12) 0.7590(12) 0.6268(11) 0.0190 Uiso
C20_7 C 0.1272(14) 0.8086(13) 0.5917(12) 0.0270 Uiso
H15_7 H 0.093985 0.813535 0.567306 0.0320 Uiso
C24_7 C 0.1245(14) 0.6804(14) 0.6777(12) 0.0300 Uiso
H18_7 H 0.110082 0.646475 0.690703 0.0360 Uiso
C27_7 C 0.1830(12) 0.7581(12) 0.6647(11) 0.0190 Uiso
C35_7 C 0.1719(15) 0.8475(15) 0.5953(13) 0.0330 Uiso
H23_7 H 0.173637 0.876969 0.570594 0.0400 Uiso
C41_7 C 0.2155(15) 0.8405(15) 0.6385(13) 0.0350 Uiso
H28_7 H 0.239868 0.871906 0.645551 0.0420 Uiso
C43_6 C 0.0162(13) 0.6754(13) 0.4253(11) 0.0230 Uiso
C46_7 C 0.2271(13) 0.7996(12) 0.6688(11) 0.0200 Uiso
H30_7 H 0.261680 0.796976 0.691912 0.0240 Uiso
C50_6 C 0.0137(15) 0.6795(14) 0.3286(14) 0.0340 Uiso
C51_6 C 0.0764(14) 0.6538(13) 0.4251(13) 0.0290 Uiso
H34_6 H 0.099678 0.646767 0.457066 0.0350 Uiso
C53_6 C 0.0945(18) 0.6455(16) 0.3828(14) 0.0420 Uiso
H36_6 H 0.133735 0.632285 0.384843 0.0500 Uiso
C54_6 C 0.0679(19) 0.6518(18) 0.3264(17) 0.0520 Uiso
H37_6 H 0.084611 0.639284 0.295257 0.0620 Uiso
C1_7 C 0.9624(11) 0.1349(11) 0.5291(10) 0.0120 Uiso
C3_7 C 0.9366(11) 0.0886(11) 0.5018(10) 0.0130 Uiso
H6_7 H 0.906402 0.068200 0.516713 0.0150 Uiso
C5_7 C 0.8993(11) 0.1911(11) 0.6773(9) 0.0110 Uiso
C8_7 C 0.8573(12) 0.1865(12) 0.6304(10) 0.0170 Uiso
H9_7 H 0.818078 0.199059 0.631557 0.0200 Uiso
C12_7 C 0.9422(12) 0.1536(11) 0.5783(10) 0.0160 Uiso
C21_7 C 0.8774(12) 0.1620(11) 0.5825(11) 0.0150 Uiso
H16_7 H 0.850110 0.151596 0.554162 0.0180 Uiso
C25_7 C 0.9602(14) 0.1845(13) 0.6711(12) 0.0270 Uiso
H19_7 H 0.988111 0.194666 0.699071 0.0320 Uiso
C26_7 C 0.8785(11) 0.2168(11) 0.7295(10) 0.0130 Uiso
C28_6 C 0.9560(11) 0.0734(11) 0.4532(10) 0.0110 Uiso
C34_6 C 0.9218(9) 0.0217(9) 0.4207(8) 0.0000 Uiso
C37_7 C 0.9780(12) 0.1643(11) 0.6265(10) 0.0140 Uiso
C40_6 C 0.9116(14) 0.0226(14) 0.3641(13) 0.0310 Uiso
H27_6 H 0.924787 0.053016 0.344384 0.0380 Uiso
O3_7 O 0.8154(9) 0.8865(9) 0.2951(8) 0.0270 Uiso
O4_7 O 0.8459(11) 0.8356(10) 0.3597(9) 0.0370 Uiso
N2_7 N 0.9275(12) 0.7100(11) 0.3866(10) 0.0290 Uiso
N3_7 N 0.9778(10) 0.6899(10) 0.4655(9) 0.0160 Uiso
N4_7 N 0.8989(11) 0.6336(11) 0.6320(10) 0.0250 Uiso
O7_7 O 0.7531(11) 0.9025(11) 0.1910(10) 0.0460 Uiso
H1_7 H 0.754467 0.898490 0.145990 0.0690 Uiso
H2_7 H 0.756253 0.949290 0.197261 0.0690 Uiso
O8_7 O 0.8393(11) 0.6526(10) 0.2935(9) 0.0380 Uiso
H3_7 H 0.801690 0.633033 0.283826 0.0570 Uiso
H4_7 H 0.869960 0.625721 0.284341 0.0570 Uiso
C9_7 C 0.9969(14) 0.6731(12) 0.6323(12) 0.0250 Uiso
C10_7 C 0.9838(11) 0.6793(11) 0.5221(10) 0.0120 Uiso
C13_7 C 0.9241(13) 0.7090(12) 0.4375(11) 0.0210 Uiso
H11_7 H 0.890113 0.719573 0.454481 0.0250 Uiso
C16_7 C 0.8710(12) 0.9295(12) 0.3666(10) 0.0170 Uiso
C18_7 C 0.9483(11) 0.6550(11) 0.6055(10) 0.0120 Uiso
C22_7 C 0.8438(12) 0.8786(12) 0.3430(10) 0.0160 Uiso
C23_7 C 0.9393(13) 0.6616(11) 0.5500(11) 0.0180 Uiso
H17_7 H 0.902176 0.653548 0.532381 0.0210 Uiso
C30_7 C 0.8733(12) 0.6552(12) 0.6755(10) 0.0170 Uiso
H21_7 H 0.886099 0.688483 0.692715 0.0200 Uiso
C32_7 C 0.9134(13) 0.9719(12) 0.4469(12) 0.0220 Uiso
H22_7 H 0.925197 0.968195 0.483508 0.0270 Uiso
C33_7 C 0.8616(14) 0.5860(14) 0.6204(13) 0.0300 Uiso
C38_7 C 0.8840(13) 0.9812(13) 0.3398(12) 0.0230 Uiso
H25_7 H 0.871964 0.984999 0.303254 0.0280 Uiso
C39_7 C 0.8879(15) 0.9286(15) 0.4192(13) 0.0330 Uiso
H26_7 H 0.881465 0.895446 0.438128 0.0390 Uiso
C42_7 C 0.7757(17) 0.5347(16) 0.6556(15) 0.0440 Uiso
H29_7 H 0.748423 0.528126 0.681441 0.0530 Uiso
C44_7 C 0.9842(12) 0.6861(11) 0.3752(10) 0.0150 Uiso
C45_7 C 0.8210(14) 0.5835(14) 0.6569(12) 0.0290 Uiso
C47_7 C 0.8657(18) 0.5465(16) 0.5783(16) 0.0480 Uiso
H31_7 H 0.896297 0.547938 0.554916 0.0580 Uiso
C49_7 C 0.7821(17) 0.5009(16) 0.6085(14) 0.0430 Uiso
H32_4 H 0.753872 0.472244 0.602680 0.0510 Uiso
H33_7 H 0.996079 0.694747 0.296721 0.0410 Uiso
C52_7 C 0.8200(14) 0.5039(14) 0.5738(13) 0.0300 Uiso
H35_4 H 0.818457 0.478489 0.545065 0.0360 Uiso
C1_8 C 0.0376(11) 0.1349(11) 0.9709(10) 0.0120 Uiso
C3_8 C 0.0634(11) 0.0886(11) 0.9982(10) 0.0130 Uiso
H6_8 H 0.093598 0.068200 0.983287 0.0150 Uiso
C5_8 C 0.1007(11) 0.1911(11) 0.8227(9) 0.0110 Uiso
C8_8 C 0.1427(12) 0.1865(12) 0.8696(10) 0.0170 Uiso
H9_8 H 0.181922 0.199059 0.868443 0.0200 Uiso
C12_8 C 0.0578(12) 0.1536(11) 0.9217(10) 0.0160 Uiso
C21_8 C 0.1226(12) 0.1620(11) 0.9175(11) 0.0150 Uiso
H16_8 H 0.149890 0.151596 0.945838 0.0180 Uiso
C25_8 C 0.0398(14) 0.1845(13) 0.8289(12) 0.0270 Uiso
H19_8 H 0.011889 0.194666 0.800929 0.0320 Uiso
C26_8 C 0.1215(11) 0.2168(11) 0.7705(10) 0.0130 Uiso
C37_8 C 0.0220(12) 0.1643(11) 0.8735(10) 0.0140 Uiso
O3_8 O 0.1846(9) 0.8865(9) 0.2049(8) 0.0270 Uiso
O4_8 O 0.1541(11) 0.8356(10) 0.1403(9) 0.0370 Uiso
N2_8 N 0.0725(12) 0.7100(11) 0.1134(10) 0.0290 Uiso
N3_8 N 0.0222(10) 0.6899(10) 0.0345(9) 0.0160 Uiso
O7_8 O 0.2469(11) 0.9025(11) 0.3090(10) 0.0460 Uiso
H1_8 H 0.245533 0.898490 0.354010 0.0690 Uiso
H2_8 H 0.243747 0.949290 0.302739 0.0690 Uiso
O8_8 O 0.1607(11) 0.6526(10) 0.2065(9) 0.0380 Uiso
H3_8 H 0.198310 0.633033 0.216174 0.0570 Uiso
H4_8 H 0.130040 0.625721 0.215659 0.0570 Uiso
C13_8 C 0.0759(13) 0.7090(12) 0.0625(11) 0.0210 Uiso
H11_8 H 0.109887 0.719573 0.045519 0.0250 Uiso
C16_8 C 0.1290(12) 0.9295(12) 0.1334(10) 0.0170 Uiso
C22_8 C 0.1562(12) 0.8786(12) 0.1570(10) 0.0160 Uiso
C32_8 C 0.0866(13) 0.9719(12) 0.0531(12) 0.0220 Uiso
H22_8 H 0.074803 0.968195 0.016492 0.0270 Uiso
C38_8 C 0.1160(13) 0.9812(13) 0.1602(12) 0.0230 Uiso
H25_8 H 0.128036 0.984999 0.196746 0.0280 Uiso
C39_8 C 0.1121(15) 0.9286(15) 0.0808(13) 0.0330 Uiso
H26_8 H 0.118535 0.895446 0.061872 0.0390 Uiso
C44_8 C 0.0158(12) 0.6861(11) 0.1248(10) 0.0150 Uiso
H33_8 H 0.003921 0.694747 0.203279 0.0410 Uiso
N4_8 N 0.1011(11) 0.6336(11) 0.8680(10) 0.0250 Uiso
C9_8 C 0.0031(14) 0.6731(12) 0.8677(12) 0.0250 Uiso
C10_8 C 0.0162(11) 0.6793(11) 0.9779(10) 0.0120 Uiso
C18_8 C 0.0517(11) 0.6550(11) 0.8945(10) 0.0120 Uiso
C23_8 C 0.0607(13) 0.6616(11) 0.9500(11) 0.0180 Uiso
H17_8 H 0.097824 0.653548 0.967619 0.0210 Uiso
C30_8 C 0.1267(12) 0.6552(12) 0.8245(10) 0.0170 Uiso
H21_8 H 0.113901 0.688483 0.807285 0.0200 Uiso
C33_8 C 0.1384(14) 0.5860(14) 0.8796(13) 0.0300 Uiso
C42_8 C 0.2243(17) 0.5347(16) 0.8444(15) 0.0440 Uiso
H29_8 H 0.251577 0.528126 0.818559 0.0530 Uiso
C45_8 C 0.1790(14) 0.5835(14) 0.8431(12) 0.0290 Uiso
C47_8 C 0.1343(18) 0.5465(16) 0.9217(16) 0.0480 Uiso
H31_8 H 0.103703 0.547938 0.945084 0.0580 Uiso
C49_8 C 0.2179(17) 0.5009(16) 0.8915(14) 0.0430 Uiso
H32_5 H 0.246128 0.472244 0.897320 0.0510 Uiso
C52_8 C 0.1800(14) 0.5039(14) 0.9262(13) 0.0300 Uiso
H35_5 H 0.181543 0.478489 0.954935 0.0360 Uiso
C2_8 C 0.8224(11) 0.2131(11) 0.0556(10) 0.0110 Uiso
H5_8 H 0.790948 0.227248 0.032917 0.0130 Uiso
C7_8 C 0.9975(12) 0.1013(12) 0.0706(11) 0.0160 Uiso
H8_8 H 0.985262 0.089958 0.103997 0.0200 Uiso
C15_8 C 0.9707(12) 0.1458(12) 0.0431(11) 0.0180 Uiso
C17_8 C 0.8696(12) 0.1922(12) 0.0311(11) 0.0180 Uiso
C19_8 C 0.9155(13) 0.1793(12) 0.1213(11) 0.0190 Uiso
H14_8 H 0.947362 0.166423 0.144189 0.0230 Uiso
C29_8 C 0.8694(11) 0.2016(11) 0.1434(10) 0.0110 Uiso
H20_8 H 0.870707 0.208304 0.180399 0.0140 Uiso
C31_8 C 0.9196(15) 0.1740(14) 0.0666(13) 0.0330 Uiso
C36_8 C 0.8155(12) 0.2157(12) 0.1081(10) 0.0170 Uiso
C48_8 C 0.7590(13) 0.2328(13) 0.1343(12) 0.0240 Uiso
N1_8 N 0.9012(10) 0.7133(9) 0.8638(8) 0.0150 Uiso
C4_8 C 0.9602(10) 0.7004(10) 0.9502(9) 0.0070 Uiso
H7_8 H 0.928892 0.714624 0.968821 0.0080 Uiso
C6_8 C 0.9576(12) 0.6976(12) 0.8953(10) 0.0160 Uiso
H10_8 H 0.998837 0.669622 0.830279 0.0300 Uiso
C11_8 C 0.8679(12) 0.7590(12) 0.8732(11) 0.0190 Uiso
C20_8 C 0.8728(14) 0.8086(13) 0.9083(12) 0.0270 Uiso
H15_8 H 0.906015 0.813535 0.932694 0.0320 Uiso
C24_8 C 0.8755(14) 0.6804(14) 0.8223(12) 0.0300 Uiso
H18_8 H 0.889918 0.646475 0.809297 0.0360 Uiso
C27_8 C 0.8170(12) 0.7581(12) 0.8353(11) 0.0190 Uiso
C35_8 C 0.8281(15) 0.8475(15) 0.9047(13) 0.0330 Uiso
H23_8 H 0.826363 0.876969 0.929406 0.0400 Uiso
C41_8 C 0.7845(15) 0.8405(15) 0.8615(13) 0.0350 Uiso
H28_8 H 0.760132 0.871906 0.854449 0.0420 Uiso
C46_8 C 0.7729(13) 0.7996(12) 0.8312(11) 0.0200 Uiso
H30_8 H 0.738320 0.796976 0.808088 0.0240 Uiso
H32_6 H 0.253872 0.027756 0.102680 0.0510 Uiso
H35_6 H 0.318457 0.021511 0.045065 0.0360 Uiso
C43_7 C 0.0162(13) 0.3246(13) 0.9253(11) 0.0230 Uiso
C50_7 C 0.0137(15) 0.3205(14) 0.8286(14) 0.0340 Uiso
C51_7 C 0.0764(14) 0.3462(13) 0.9251(13) 0.0290 Uiso
H34_7 H 0.099678 0.353233 0.957066 0.0350 Uiso
C53_7 C 0.0945(18) 0.3545(16) 0.8828(14) 0.0420 Uiso
H36_7 H 0.133735 0.367715 0.884843 0.0500 Uiso
C54_7 C 0.0679(19) 0.3482(18) 0.8264(17) 0.0520 Uiso
H37_7 H 0.084611 0.360716 0.795257 0.0620 Uiso
C14_7 C 0.0104(12) 0.8369(12) 0.0084(11) 0.0180 Uiso
H12_7 H 0.029788 0.807501 0.027613 0.0210 Uiso
H13_7 H 0.130256 0.810158 0.006335 0.0220 Uiso
H24_7 H 0.018592 0.843979 0.126173 0.0160 Uiso
C28_7 C 0.9560(11) 0.9266(11) 0.9532(10) 0.0110 Uiso
C34_7 C 0.9218(9) 0.9783(9) 0.9207(8) 0.0000 Uiso
C40_7 C 0.9116(14) 0.9774(14) 0.8641(13) 0.0310 Uiso
H27_7 H 0.924787 0.946984 0.844384 0.0380 Uiso
H32_7 H 0.253872 0.972244 0.602680 0.0510 Uiso
H35_7 H 0.318457 0.978489 0.545065 0.0360 Uiso
H32_8 H 0.746128 0.972244 0.897320 0.0510 Uiso
H35_8 H 0.681543 0.978489 0.954935 0.0360 Uiso
C28_8 C 0.0440(11) 0.0734(11) 0.0468(10) 0.0110 Uiso
C34_8 C 0.0782(9) 0.0217(9) 0.0793(8) 0.0000 Uiso
C40_8 C 0.0884(14) 0.0226(14) 0.1359(13) 0.0310 Uiso
H27_8 H 0.075213 0.053016 0.155616 0.0380 Uiso
C14_8 C 0.9896(12) 0.1631(12) 0.9916(11) 0.0180 Uiso
H12_8 H 0.970212 0.192499 0.972387 0.0210 Uiso
H13_8 H 0.869744 0.189842 0.993665 0.0220 Uiso
H24_8 H 0.981408 0.156021 0.873827 0.0160 Uiso
C43_8 C 0.9838(13) 0.6754(13) 0.0747(11) 0.0230 Uiso
C50_8 C 0.9863(15) 0.6795(14) 0.1714(14) 0.0340 Uiso
C51_8 C 0.9236(14) 0.6538(13) 0.0749(13) 0.0290 Uiso
H34_8 H 0.900322 0.646767 0.042934 0.0350 Uiso
C53_8 C 0.9055(18) 0.6455(16) 0.1172(14) 0.0420 Uiso
H36_8 H 0.866265 0.632285 0.115157 0.0500 Uiso
C54_8 C 0.9321(19) 0.6518(18) 0.1736(17) 0.0520 Uiso
H37_8 H 0.915389 0.639284 0.204743 0.0620 Uiso
I1 I 0.250000 0.750000 0.500000 0.0502 Uiso
I2 I 0.29146(12) 0.85911(12) 0.45522(10) 0.0484 Uiso
I3 I 0.20854(12) 0.64089(12) 0.54478(10) 0.0484 Uiso
I1_2 I 0.750000 0.750000 0.000000 0.0502 Uiso
I2_2 I 0.70854(12) 0.85911(12) 0.04478(10) 0.0484 Uiso
I1_3 I 0.750000 0.750000 1.000000 0.0502 Uiso
I3_2 I 0.79146(12) 0.64089(12) 0.95522(10) 0.0484 Uiso
I1_4 I 0.750000 0.250000 0.500000 0.0502 Uiso
I2_3 I 0.79146(12) 0.35911(12) 0.45522(10) 0.0484 Uiso
I3_3 I 0.70854(12) 0.14089(12) 0.54478(10) 0.0484 Uiso
I1_5 I 0.250000 0.250000 0.000000 0.0502 Uiso
I2_4 I 0.20854(12) 0.35911(12) 0.04478(10) 0.0484 Uiso
I1_6 I 0.250000 0.250000 1.000000 0.0502 Uiso
I3_4 I 0.29146(12) 0.14089(12) 0.95522(10) 0.0484 Uiso
I4 I 0.500000 0.27736(18) 0.750000 0.0530 Uiso
I5 I 0.500000 0.40124(18) 0.750000 0.0549 Uiso
I6 I 0.500000 0.5263(2) 0.750000 0.0828 Uiso
I6_2 I -0.000000 0.0263(2) 0.750000 0.0828 Uiso
I4_2 I 0.000000 0.77736(18) 0.750000 0.0530 Uiso
I5_2 I 0.000000 0.90124(18) 0.750000 0.0549 Uiso
I6_3 I 1.000000 0.0263(2) 0.750000 0.0828 Uiso
I4_3 I 1.000000 0.77736(18) 0.750000 0.0530 Uiso
I5_3 I 1.000000 0.90124(18) 0.750000 0.0549 Uiso
I4_4 I 0.500000 0.72264(18) 0.250000 0.0530 Uiso
I5_4 I 0.500000 0.59876(18) 0.250000 0.0549 Uiso
I6_4 I 0.500000 0.4737(2) 0.250000 0.0828 Uiso
I4_5 I 0.000000 0.22264(18) 0.250000 0.0530 Uiso
I5_5 I 0.000000 0.09876(18) 0.250000 0.0549 Uiso
I6_5 I 0.000000 0.9737(2) 0.250000 0.0828 Uiso
I4_6 I 1.000000 0.22264(18) 0.250000 0.0530 Uiso
I5_6 I 1.000000 0.09876(18) 0.250000 0.0549 Uiso
I6_6 I 1.000000 0.9737(2) 0.250000 0.0828 Uiso
loop_
_geom_bond_atom_site_label_1
_geom_bond_atom_site_label_2
_geom_bond_site_symmetry_1
_geom_bond_site_symmetry_2
Cd1 O4 1_555 1_555
Cd2 O3 1_555 1_555
O1 C26 1_555 1_555
O2 C26 1_555 1_555
O3 C22 1_555 1_555
N1 C6 1_555 1_555
O4 C22 1_555 1_555
O5 C48 1_555 1_555
N2 Cd1 1_555 1_555
N3 C10 1_555 1_555
N4 C18 1_555 1_555
O6 C48 1_555 1_555
N5 C30 1_555 1_555
N6 C24 1_555 1_555
O7 Cd2 1_555 1_555
H1 O7 1_555 1_555
H2 O7 1_555 1_555
C1 C3 1_555 1_555
O8 Cd1 1_555 1_555
H3 O8 1_555 1_555
H4 O8 1_555 1_555
C2 H5 1_555 1_555
C3 H6 1_555 1_555
C4 H7 1_555 1_555
C5 C8 1_555 1_555
C6 C4 1_555 1_555
C7 H8 1_555 1_555
C8 H9 1_555 1_555
C9 C6 1_555 1_555
H10 C9 1_555 1_555
C10 C4 1_555 1_555
C11 N1 1_555 1_555
C12 C1 1_555 1_555
C13 N2 1_555 1_555
H11 C13 1_555 1_555
C14 C1 1_555 1_555
H12 C14 1_555 1_555
C15 C7 1_555 1_555
C16 C22 1_555 1_555
C17 C2 1_555 1_555
H13 C17 1_555 1_555
C18 C9 1_555 1_555
C19 H14 1_555 1_555
C20 C11 1_555 1_555
H15 C20 1_555 1_555
C21 C8 1_555 1_555
H16 C21 1_555 1_555
C23 C10 1_555 1_555
H17 C23 1_555 1_555
C24 N1 1_555 1_555
H18 C24 1_555 1_555
C25 C5 1_555 1_555
H19 C25 1_555 1_555
C26 C5 1_555 1_555
C27 N6 1_555 1_555
C28 C3 1_555 1_555
C29 C19 1_555 1_555
H20 C29 1_555 1_555
C30 N4 1_555 1_555
H21 C30 1_555 1_555
C31 C15 1_555 1_555
C32 H22 1_555 1_555
C33 N4 1_555 1_555
C34 C28 1_555 1_555
C35 C20 1_555 1_555
H23 C35 1_555 1_555
C36 C2 1_555 1_555
C37 C12 1_555 1_555
H24 C37 1_555 1_555
C38 C16 1_555 1_555
H25 C38 1_555 1_555
C39 C16 1_555 1_555
H26 C39 1_555 1_555
C40 C34 1_555 1_555
H27 C40 1_555 1_555
C41 C35 1_555 1_555
H28 C41 1_555 1_555
C42 H29 1_555 1_555
C43 N3 1_555 1_555
C44 N2 1_555 1_555
C45 N5 1_555 1_555
C46 C27 1_555 1_555
H30 C46 1_555 1_555
C47 C33 1_555 1_555
H31 C47 1_555 1_555
C48 C36 1_555 1_555
C49 C42 1_555 1_555
C50 C44 1_555 1_555
H33 C50 1_555 1_555
C51 C43 1_555 1_555
H34 C51 1_555 1_555
C52 C47 1_555 1_555
C53 C51 1_555 1_555
H36 C53 1_555 1_555
C54 C50 1_555 1_555
H37 C54 1_555 1_555
Cd3 O5 1_555 1_555
Cd4 O1 1_555 1_555
Cd5 O5 1_555 1_555
Cd6 O1 1_555 1_555
Cd7 N5 1_555 1_555
Cd8 N6 1_555 1_555
O9 Cd1 1_555 1_555
O10 Cd1 1_555 1_555
O11 Cd1 1_555 1_555
O12 Cd1 1_555 1_555
N7 Cd2 1_555 1_555
N8 Cd2 1_555 1_555
Cd2 O9 1_555 1_555
Cd2 O11 1_555 1_555
O2 Cd4 1_555 1_555
N3 C13 1_555 1_555
O6 Cd3 1_555 1_555
C7 C28 1_555 1_555
C11 C27 1_555 1_555
C12 C21 1_555 1_555
C14 C15 1_555 1_555
C17 C31 1_555 1_555
C18 C23 1_555 1_555
C19 C31 1_555 1_555
C25 C37 1_555 1_555
C29 C36 1_555 1_555
C32 C34 1_555 1_555
C32 C39 1_555 1_555
C33 C45 1_555 1_555
C38 C40 1_555 1_555
C41 C46 1_555 1_555
C42 C45 1_555 1_555
C43 C44 1_555 1_555
C49 C52 1_555 1_555
C53 C54 1_555 1_555
O1_2 C26_2 1_555 1_555
O2_2 C26_2 1_555 1_555
N1_2 C6_2 1_555 1_555
N4_2 C18_2 1_555 1_555
N5_2 C30_2 1_555 1_555
N6_2 C24_2 1_555 1_555
C1_2 C3_2 1_555 1_555
C3_2 H6_2 1_555 1_555
C4_2 H7_2 1_555 1_555
C5_2 C8_2 1_555 1_555
C6_2 C4_2 1_555 1_555
C8_2 H9_2 1_555 1_555
C9_2 C6_2 1_555 1_555
H10_2 C9_2 1_555 1_555
C10_2 C4_2 1_555 1_555
C11_2 N1_2 1_555 1_555
C12_2 C1_2 1_555 1_555
C14_2 C1_2 1_555 1_555
H12_2 C14_2 1_555 1_555
C18_2 C9_2 1_555 1_555
C20_2 C11_2 1_555 1_555
H15_2 C20_2 1_555 1_555
C21_2 C8_2 1_555 1_555
H16_2 C21_2 1_555 1_555
C23_2 C10_2 1_555 1_555
H17_2 C23_2 1_555 1_555
C24_2 N1_2 1_555 1_555
H18_2 C24_2 1_555 1_555
C25_2 C5_2 1_555 1_555
H19_2 C25_2 1_555 1_555
C26_2 C5_2 1_555 1_555
C27_2 N6_2 1_555 1_555
C30_2 N4_2 1_555 1_555
H21_2 C30_2 1_555 1_555
C33_2 N4_2 1_555 1_555
C35_2 C20_2 1_555 1_555
H23_2 C35_2 1_555 1_555
C37_2 C12_2 1_555 1_555
H24_2 C37_2 1_555 1_555
C41_2 C35_2 1_555 1_555
H28_2 C41_2 1_555 1_555
C42_2 H29_2 1_555 1_555
C45_2 N5_2 1_555 1_555
C46_2 C27_2 1_555 1_555
H30_2 C46_2 1_555 1_555
C47_2 C33_2 1_555 1_555
H31_2 C47_2 1_555 1_555
C49_2 C42_2 1_555 1_555
C52_2 C47_2 1_555 1_555
Cd4_2 O1_2 1_555 1_555
Cd6_2 O1_2 1_555 1_555
Cd8 N5_2 1_555 1_555
Cd7 N6_2 1_555 1_555
O2_2 Cd4_2 1_555 1_555
C11_2 C27_2 1_555 1_555
C12_2 C21_2 1_555 1_555
C18_2 C23_2 1_555 1_555
C25_2 C37_2 1_555 1_555
C33_2 C45_2 1_555 1_555
C41_2 C46_2 1_555 1_555
C42_2 C45_2 1_555 1_555
C49_2 C52_2 1_555 1_555
Cd1_2 O4_2 1_555 1_555
Cd2_2 O3_2 1_555 1_555
O3_2 C22_2 1_555 1_555
O4_2 C22_2 1_555 1_555
O5_2 C48_2 1_555 1_555
N2_2 Cd1_2 1_555 1_555
O6_2 C48_2 1_555 1_555
O7_2 Cd2_2 1_555 1_555
H1_2 O7_2 1_555 1_555
H2_2 O7_2 1_555 1_555
O8_2 Cd1_2 1_555 1_555
H3_2 O8_2 1_555 1_555
H4_2 O8_2 1_555 1_555
C2_2 H5_2 1_555 1_555
C7_2 H8_2 1_555 1_555
C13_2 N2_2 1_555 1_555
H11_2 C13_2 1_555 1_555
C15_2 C7_2 1_555 1_555
C16_2 C22_2 1_555 1_555
C17_2 C2_2 1_555 1_555
C19_2 H14_2 1_555 1_555
C29_2 C19_2 1_555 1_555
H20_2 C29_2 1_555 1_555
C31_2 C15_2 1_555 1_555
C32_2 H22_2 1_555 1_555
C34_2 C28_2 1_555 1_555
C36_2 C2_2 1_555 1_555
C38_2 C16_2 1_555 1_555
H25_2 C38_2 1_555 1_555
C39_2 C16_2 1_555 1_555
H26_2 C39_2 1_555 1_555
C40_2 C34_2 1_555 1_555
H27_2 C40_2 1_555 1_555
C43_2 N3_2 1_555 1_555
C44_2 N2_2 1_555 1_555
C48_2 C36_2 1_555 1_555
C50_2 C44_2 1_555 1_555
H33_2 C50_2 1_555 1_555
C51_2 C43_2 1_555 1_555
H34_2 C51_2 1_555 1_555
C53_2 C51_2 1_555 1_555
H36_2 C53_2 1_555 1_555
C54_2 C50_2 1_555 1_555
H37_2 C54_2 1_555 1_555
Cd3_2 O5_2 1_555 1_555
Cd5_2 O5_2 1_555 1_555
O9_2 Cd1_2 1_555 1_555
O10_2 Cd1_2 1_555 1_555
O11_2 Cd1_2 1_555 1_555
O12_2 Cd1_2 1_555 1_555
N7_2 Cd2_2 1_555 1_555
N8_2 Cd2_2 1_555 1_555
Cd2_2 O9_2 1_555 1_555
Cd2_2 O11_2 1_555 1_555
N3_2 C13_2 1_555 1_555
O6_2 Cd3_2 1_555 1_555
C7_2 C28_2 1_555 1_555
C17_2 C31_2 1_555 1_555
C19_2 C31_2 1_555 1_555
C29_2 C36_2 1_555 1_555
C32_2 C34_2 1_555 1_555
C32_2 C39_2 1_555 1_555
C38_2 C40_2 1_555 1_555
C43_2 C44_2 1_555 1_555
C53_2 C54_2 1_555 1_555
Cd3 O4_3 1_555 1_555
Cd5 O3_3 1_555 1_555
O3_3 C22_3 1_555 1_555
O4_3 C22_3 1_555 1_555
N2_3 Cd3 1_555 1_555
N3_3 C10_3 1_555 1_555
N4_3 C18_3 1_555 1_555
N5_3 C30_3 1_555 1_555
O7_3 Cd5 1_555 1_555
H1_3 O7_3 1_555 1_555
H2_3 O7_3 1_555 1_555
O8_3 Cd3 1_555 1_555
H3_3 O8_3 1_555 1_555
H4_3 O8_3 1_555 1_555
C13_3 N2_3 1_555 1_555
H11_3 C13_3 1_555 1_555
C16_3 C22_3 1_555 1_555
C18_3 C9_3 1_555 1_555
C23_3 C10_3 1_555 1_555
H17_3 C23_3 1_555 1_555
C30_3 N4_3 1_555 1_555
H21_3 C30_3 1_555 1_555
C32_3 H22_3 1_555 1_555
C33_3 N4_3 1_555 1_555
C38_3 C16_3 1_555 1_555
H25_3 C38_3 1_555 1_555
C39_3 C16_3 1_555 1_555
H26_3 C39_3 1_555 1_555
C42_3 H29_3 1_555 1_555
C44_3 N2_3 1_555 1_555
C45_3 N5_3 1_555 1_555
C47_3 C33_3 1_555 1_555
H31_3 C47_3 1_555 1_555
C49_3 C42_3 1_555 1_555
H32_2 C49_3 1_555 1_555
C52_3 C47_3 1_555 1_555
H35_2 C52_3 1_555 1_555
Cd6_2 N5_3 1_555 1_555
O9_3 Cd3 1_555 1_555
O10_3 Cd3 1_555 1_555
N7_3 Cd5 1_555 1_555
N8_3 Cd5 1_555 1_555
Cd5 O9_3 1_555 1_555
N3_3 C13_3 1_555 1_555
C18_3 C23_3 1_555 1_555
C32_3 C39_3 1_555 1_555
C33_3 C45_3 1_555 1_555
C42_3 C45_3 1_555 1_555
C49_3 C52_3 1_555 1_555
O1_3 C26_3 1_555 1_555
O2_3 C26_3 1_555 1_555
C1_3 C3_3 1_555 1_555
C3_3 H6_3 1_555 1_555
C5_3 C8_3 1_555 1_555
C8_3 H9_3 1_555 1_555
C12_3 C1_3 1_555 1_555
C21_3 C8_3 1_555 1_555
H16_3 C21_3 1_555 1_555
C25_3 C5_3 1_555 1_555
H19_3 C25_3 1_555 1_555
C26_3 C5_3 1_555 1_555
C28_3 C3_3 1_555 1_555
C34_3 C28_3 1_555 1_555
C37_3 C12_3 1_555 1_555
C40_3 C34_3 1_555 1_555
H27_3 C40_3 1_555 1_555
Cd4_3 O1_3 1_555 1_555
Cd8 O1_3 1_555 1_555
O2_3 Cd4_3 1_555 1_555
C12_3 C21_3 1_555 1_555
C25_3 C37_3 1_555 1_555
N1_3 C6_3 1_555 1_555
N6_3 C24_3 1_555 1_555
C4_3 H7_3 1_555 1_555
C6_3 C4_3 1_555 1_555
C11_3 N1_3 1_555 1_555
C20_3 C11_3 1_555 1_555
H15_3 C20_3 1_555 1_555
C24_3 N1_3 1_555 1_555
H18_3 C24_3 1_555 1_555
C27_3 N6_3 1_555 1_555
C35_3 C20_3 1_555 1_555
H23_3 C35_3 1_555 1_555
C41_3 C35_3 1_555 1_555
H28_3 C41_3 1_555 1_555
C46_3 C27_3 1_555 1_555
H30_3 C46_3 1_555 1_555
C51_3 C43_3 1_555 1_555
H34_3 C51_3 1_555 1_555
C53_3 C51_3 1_555 1_555
H36_3 C53_3 1_555 1_555
C54_3 C50_3 1_555 1_555
H37_3 C54_3 1_555 1_555
Cd6 N6_3 1_555 1_555
C11_3 C27_3 1_555 1_555
C41_3 C46_3 1_555 1_555
C53_3 C54_3 1_555 1_555
O11 C48_3 1_555 1_555
O12 C48_3 1_555 1_555
C2_3 H5_3 1_555 1_555
C7_3 H8_3 1_555 1_555
H12_3 C14_3 1_555 1_555
C15_3 C7_3 1_555 1_555
C17_3 C2_3 1_555 1_555
H13_3 C17_3 1_555 1_555
C19_3 H14_3 1_555 1_555
C29_3 C19_3 1_555 1_555
H20_3 C29_3 1_555 1_555
C31_3 C15_3 1_555 1_555
C36_3 C2_3 1_555 1_555
C48_3 C36_3 1_555 1_555
C14_3 C15_3 1_555 1_555
C17_3 C31_3 1_555 1_555
C19_3 C31_3 1_555 1_555
C29_3 C36_3 1_555 1_555
N1_4 C6_4 1_555 1_555
N6_4 C24_4 1_555 1_555
C4_4 H7_4 1_555 1_555
C6_4 C4_4 1_555 1_555
C11_4 N1_4 1_555 1_555
C20_4 C11_4 1_555 1_555
H15_4 C20_4 1_555 1_555
C24_4 N1_4 1_555 1_555
H18_4 C24_4 1_555 1_555
C27_4 N6_4 1_555 1_555
C35_4 C20_4 1_555 1_555
H23_4 C35_4 1_555 1_555
C41_4 C35_4 1_555 1_555
H28_4 C41_4 1_555 1_555
C46_4 C27_4 1_555 1_555
H30_4 C46_4 1_555 1_555
Cd6_2 N6_4 1_555 1_555
C11_4 C27_4 1_555 1_555
C41_4 C46_4 1_555 1_555
O11_2 C48_4 1_555 1_555
O12_2 C48_4 1_555 1_555
C2_4 H5_4 1_555 1_555
C7_4 H8_4 1_555 1_555
C15_4 C7_4 1_555 1_555
C17_4 C2_4 1_555 1_555
C19_4 H14_4 1_555 1_555
C29_4 C19_4 1_555 1_555
H20_4 C29_4 1_555 1_555
C31_4 C15_4 1_555 1_555
C36_4 C2_4 1_555 1_555
C48_4 C36_4 1_555 1_555
C17_4 C31_4 1_555 1_555
C19_4 C31_4 1_555 1_555
C29_4 C36_4 1_555 1_555
N4_4 C18_4 1_555 1_555
N5_4 C30_4 1_555 1_555
C18_4 C9_4 1_555 1_555
C23_4 C10_4 1_555 1_555
H17_4 C23_4 1_555 1_555
C30_4 N4_4 1_555 1_555
H21_4 C30_4 1_555 1_555
C33_4 N4_4 1_555 1_555
C42_4 H29_4 1_555 1_555
C45_4 N5_4 1_555 1_555
C47_4 C33_4 1_555 1_555
H31_4 C47_4 1_555 1_555
C49_4 C42_4 1_555 1_555
H32_3 C49_4 1_555 1_555
C52_4 C47_4 1_555 1_555
H35_3 C52_4 1_555 1_555
Cd6 N5_4 1_555 1_555
C18_4 C23_4 1_555 1_555
C33_4 C45_4 1_555 1_555
C42_4 C45_4 1_555 1_555
C49_4 C52_4 1_555 1_555
Cd3_2 O4_4 1_555 1_555
Cd5_2 O3_4 1_555 1_555
O3_4 C22_4 1_555 1_555
O4_4 C22_4 1_555 1_555
N2_4 Cd3_2 1_555 1_555
O7_4 Cd5_2 1_555 1_555
H1_4 O7_4 1_555 1_555
H2_4 O7_4 1_555 1_555
O8_4 Cd3_2 1_555 1_555
H3_4 O8_4 1_555 1_555
H4_4 O8_4 1_555 1_555
C13_4 N2_4 1_555 1_555
H11_4 C13_4 1_555 1_555
C16_4 C22_4 1_555 1_555
C32_4 H22_4 1_555 1_555
C38_4 C16_4 1_555 1_555
H25_4 C38_4 1_555 1_555
C39_4 C16_4 1_555 1_555
H26_4 C39_4 1_555 1_555
C44_4 N2_4 1_555 1_555
O9_4 Cd3_2 1_555 1_555
O10_4 Cd3_2 1_555 1_555
N7_4 Cd5_2 1_555 1_555
N8_4 Cd5_2 1_555 1_555
Cd5_2 O9_4 1_555 1_555
N3_4 C13_4 1_555 1_555
C32_4 C39_4 1_555 1_555
O1_4 C26_4 1_555 1_555
O2_4 C26_4 1_555 1_555
C1_4 C3_4 1_555 1_555
C3_4 H6_4 1_555 1_555
C5_4 C8_4 1_555 1_555
C8_4 H9_4 1_555 1_555
C12_4 C1_4 1_555 1_555
C21_4 C8_4 1_555 1_555
H16_4 C21_4 1_555 1_555
C25_4 C5_4 1_555 1_555
H19_4 C25_4 1_555 1_555
C26_4 C5_4 1_555 1_555
C37_4 C12_4 1_555 1_555
Cd4_4 O1_4 1_555 1_555
Cd7 O1_4 1_555 1_555
O2_4 Cd4_4 1_555 1_555
C12_4 C21_4 1_555 1_555
C25_4 C37_4 1_555 1_555
Cd4_2 O4_5 1_555 1_555
Cd6_2 O3_5 1_555 1_555
O9_2 C26_5 1_555 1_555
O10_2 C26_5 1_555 1_555
O3_5 C22_5 1_555 1_555
N1_5 C6_5 1_555 1_555
O4_5 C22_5 1_555 1_555
O5_3 C48_5 1_555 1_555
N2_5 Cd4_2 1_555 1_555
N3_5 C10_5 1_555 1_555
N4_5 C18_5 1_555 1_555
O6_3 C48_5 1_555 1_555
N7_3 C30_5 1_555 1_555
N8_4 C24_5 1_555 1_555
O7_5 Cd6_2 1_555 1_555
H1_5 O7_5 1_555 1_555
H2_5 O7_5 1_555 1_555
C1_5 C3_5 1_555 1_555
O8_5 Cd4_2 1_555 1_555
H3_5 O8_5 1_555 1_555
H4_5 O8_5 1_555 1_555
C2_5 H5_5 1_555 1_555
C3_5 H6_5 1_555 1_555
C4_5 H7_5 1_555 1_555
C5_5 C8_5 1_555 1_555
C6_5 C4_5 1_555 1_555
C7_5 H8_5 1_555 1_555
C8_5 H9_5 1_555 1_555
C9_5 C6_5 1_555 1_555
H10_5 C9_5 1_555 1_555
C10_5 C4_5 1_555 1_555
C11_5 N1_5 1_555 1_555
C12_5 C1_5 1_555 1_555
C13_5 N2_5 1_555 1_555
H11_5 C13_5 1_555 1_555
C14_4 C1_5 1_555 1_555
H12_4 C14_4 1_555 1_555
C15_5 C7_5 1_555 1_555
C16_5 C22_5 1_555 1_555
C17_5 C2_5 1_555 1_555
H13_4 C17_5 1_555 1_555
C18_5 C9_5 1_555 1_555
C19_5 H14_5 1_555 1_555
C20_5 C11_5 1_555 1_555
H15_5 C20_5 1_555 1_555
C21_5 C8_5 1_555 1_555
H16_5 C21_5 1_555 1_555
C23_5 C10_5 1_555 1_555
H17_5 C23_5 1_555 1_555
C24_5 N1_5 1_555 1_555
H18_5 C24_5 1_555 1_555
C25_5 C5_5 1_555 1_555
H19_5 C25_5 1_555 1_555
C26_5 C5_5 1_555 1_555
C27_5 N8_4 1_555 1_555
C28_4 C3_5 1_555 1_555
C29_5 C19_5 1_555 1_555
H20_5 C29_5 1_555 1_555
C30_5 N4_5 1_555 1_555
H21_5 C30_5 1_555 1_555
C31_5 C15_5 1_555 1_555
C32_5 H22_5 1_555 1_555
C33_5 N4_5 1_555 1_555
C34_4 C28_4 1_555 1_555
C35_5 C20_5 1_555 1_555
H23_5 C35_5 1_555 1_555
C36_5 C2_5 1_555 1_555
C37_5 C12_5 1_555 1_555
H24_4 C37_5 1_555 1_555
C38_5 C16_5 1_555 1_555
H25_5 C38_5 1_555 1_555
C39_5 C16_5 1_555 1_555
H26_5 C39_5 1_555 1_555
C40_4 C34_4 1_555 1_555
H27_4 C40_4 1_555 1_555
C41_5 C35_5 1_555 1_555
H28_5 C41_5 1_555 1_555
C42_5 H29_5 1_555 1_555
C43_4 N3_5 1_555 1_555
C44_5 N2_5 1_555 1_555
C45_5 N7_3 1_555 1_555
C46_5 C27_5 1_555 1_555
H30_5 C46_5 1_555 1_555
C47_5 C33_5 1_555 1_555
H31_5 C47_5 1_555 1_555
C48_5 C36_5 1_555 1_555
C49_5 C42_5 1_555 1_555
C50_4 C44_5 1_555 1_555
H33_5 C50_4 1_555 1_555
C51_4 C43_4 1_555 1_555
H34_4 C51_4 1_555 1_555
C52_5 C47_5 1_555 1_555
C53_4 C51_4 1_555 1_555
H36_4 C53_4 1_555 1_555
C54_4 C50_4 1_555 1_555
H37_4 C54_4 1_555 1_555
Cd4_4 O5_3 1_555 1_555
Cd7 O5_3 1_555 1_555
O11_3 Cd4_2 1_555 1_555
O12_3 Cd4_2 1_555 1_555
Cd6_2 O11_3 1_555 1_555
N3_5 C13_5 1_555 1_555
O6_3 Cd4_4 1_555 1_555
C7_5 C28_4 1_555 1_555
C11_5 C27_5 1_555 1_555
C12_5 C21_5 1_555 1_555
C14_4 C15_5 1_555 1_555
C17_5 C31_5 1_555 1_555
C18_5 C23_5 1_555 1_555
C19_5 C31_5 1_555 1_555
C25_5 C37_5 1_555 1_555
C29_5 C36_5 1_555 1_555
C32_5 C34_4 1_555 1_555
C32_5 C39_5 1_555 1_555
C33_5 C45_5 1_555 1_555
C38_5 C40_4 1_555 1_555
C41_5 C46_5 1_555 1_555
C42_5 C45_5 1_555 1_555
C43_4 C44_5 1_555 1_555
C49_5 C52_5 1_555 1_555
C53_4 C54_4 1_555 1_555
Cd4 O4_6 1_555 1_555
Cd6 O3_6 1_555 1_555
O3_6 C22_6 1_555 1_555
O4_6 C22_6 1_555 1_555
O5_4 C48_6 1_555 1_555
N2_6 Cd4 1_555 1_555
O6_4 C48_6 1_555 1_555
O7_6 Cd6 1_555 1_555
H1_6 O7_6 1_555 1_555
H2_6 O7_6 1_555 1_555
O8_6 Cd4 1_555 1_555
H3_6 O8_6 1_555 1_555
H4_6 O8_6 1_555 1_555
C2_6 H5_6 1_555 1_555
C7_6 H8_6 1_555 1_555
C13_6 N2_6 1_555 1_555
H11_6 C13_6 1_555 1_555
C15_6 C7_6 1_555 1_555
C16_6 C22_6 1_555 1_555
C17_6 C2_6 1_555 1_555
C19_6 H14_6 1_555 1_555
C29_6 C19_6 1_555 1_555
H20_6 C29_6 1_555 1_555
C31_6 C15_6 1_555 1_555
C32_6 H22_6 1_555 1_555
C34_5 C28_5 1_555 1_555
C36_6 C2_6 1_555 1_555
C38_6 C16_6 1_555 1_555
H25_6 C38_6 1_555 1_555
C39_6 C16_6 1_555 1_555
H26_6 C39_6 1_555 1_555
C40_5 C34_5 1_555 1_555
H27_5 C40_5 1_555 1_555
C43_5 N3_6 1_555 1_555
C44_6 N2_6 1_555 1_555
C48_6 C36_6 1_555 1_555
C50_5 C44_6 1_555 1_555
H33_6 C50_5 1_555 1_555
C51_5 C43_5 1_555 1_555
H34_5 C51_5 1_555 1_555
C53_5 C51_5 1_555 1_555
H36_5 C53_5 1_555 1_555
C54_5 C50_5 1_555 1_555
H37_5 C54_5 1_555 1_555
Cd4_3 O5_4 1_555 1_555
Cd8 O5_4 1_555 1_555
O11_4 Cd4 1_555 1_555
O12_4 Cd4 1_555 1_555
Cd6 O11_4 1_555 1_555
N3_6 C13_6 1_555 1_555
O6_4 Cd4_3 1_555 1_555
C7_6 C28_5 1_555 1_555
C17_6 C31_6 1_555 1_555
C19_6 C31_6 1_555 1_555
C29_6 C36_6 1_555 1_555
C32_6 C34_5 1_555 1_555
C32_6 C39_6 1_555 1_555
C38_6 C40_5 1_555 1_555
C43_5 C44_6 1_555 1_555
C53_5 C54_5 1_555 1_555
O9 C26_6 1_555 1_555
O10 C26_6 1_555 1_555
N1_6 C6_6 1_555 1_555
N4_6 C18_6 1_555 1_555
N7_4 C30_6 1_555 1_555
N8_3 C24_6 1_555 1_555
C1_6 C3_6 1_555 1_555
C3_6 H6_6 1_555 1_555
C4_6 H7_6 1_555 1_555
C5_6 C8_6 1_555 1_555
C6_6 C4_6 1_555 1_555
C8_6 H9_6 1_555 1_555
C9_6 C6_6 1_555 1_555
H10_6 C9_6 1_555 1_555
C10_6 C4_6 1_555 1_555
C11_6 N1_6 1_555 1_555
C12_6 C1_6 1_555 1_555
C14_5 C1_6 1_555 1_555
H12_5 C14_5 1_555 1_555
C18_6 C9_6 1_555 1_555
C20_6 C11_6 1_555 1_555
H15_6 C20_6 1_555 1_555
C21_6 C8_6 1_555 1_555
H16_6 C21_6 1_555 1_555
C23_6 C10_6 1_555 1_555
H17_6 C23_6 1_555 1_555
C24_6 N1_6 1_555 1_555
H18_6 C24_6 1_555 1_555
C25_6 C5_6 1_555 1_555
H19_6 C25_6 1_555 1_555
C26_6 C5_6 1_555 1_555
C27_6 N8_3 1_555 1_555
C30_6 N4_6 1_555 1_555
H21_6 C30_6 1_555 1_555
C33_6 N4_6 1_555 1_555
C35_6 C20_6 1_555 1_555
H23_6 C35_6 1_555 1_555
C37_6 C12_6 1_555 1_555
H24_5 C37_6 1_555 1_555
C41_6 C35_6 1_555 1_555
H28_6 C41_6 1_555 1_555
C42_6 H29_6 1_555 1_555
C45_6 N7_4 1_555 1_555
C46_6 C27_6 1_555 1_555
H30_6 C46_6 1_555 1_555
C47_6 C33_6 1_555 1_555
H31_6 C47_6 1_555 1_555
C49_6 C42_6 1_555 1_555
C52_6 C47_6 1_555 1_555
C11_6 C27_6 1_555 1_555
C12_6 C21_6 1_555 1_555
C18_6 C23_6 1_555 1_555
C25_6 C37_6 1_555 1_555
C33_6 C45_6 1_555 1_555
C41_6 C46_6 1_555 1_555
C42_6 C45_6 1_555 1_555
C49_6 C52_6 1_555 1_555
O11_3 C48_7 1_555 1_555
O12_3 C48_7 1_555 1_555
C2_7 H5_7 1_555 1_555
C7_7 H8_7 1_555 1_555
H12_6 C14_6 1_555 1_555
C15_7 C7_7 1_555 1_555
C17_7 C2_7 1_555 1_555
H13_6 C17_7 1_555 1_555
C19_7 H14_7 1_555 1_555
C29_7 C19_7 1_555 1_555
H20_7 C29_7 1_555 1_555
C31_7 C15_7 1_555 1_555
C36_7 C2_7 1_555 1_555
C48_7 C36_7 1_555 1_555
C14_6 C15_7 1_555 1_555
C17_7 C31_7 1_555 1_555
C19_7 C31_7 1_555 1_555
C29_7 C36_7 1_555 1_555
N1_7 C6_7 1_555 1_555
N8_2 C24_7 1_555 1_555
C4_7 H7_7 1_555 1_555
C6_7 C4_7 1_555 1_555
C11_7 N1_7 1_555 1_555
C20_7 C11_7 1_555 1_555
H15_7 C20_7 1_555 1_555
C24_7 N1_7 1_555 1_555
H18_7 C24_7 1_555 1_555
C27_7 N8_2 1_555 1_555
C35_7 C20_7 1_555 1_555
H23_7 C35_7 1_555 1_555
C41_7 C35_7 1_555 1_555
H28_7 C41_7 1_555 1_555
C46_7 C27_7 1_555 1_555
H30_7 C46_7 1_555 1_555
C51_6 C43_6 1_555 1_555
H34_6 C51_6 1_555 1_555
C53_6 C51_6 1_555 1_555
H36_6 C53_6 1_555 1_555
C54_6 C50_6 1_555 1_555
H37_6 C54_6 1_555 1_555
C11_7 C27_7 1_555 1_555
C41_7 C46_7 1_555 1_555
C53_6 C54_6 1_555 1_555
O9_4 C26_7 1_555 1_555
O10_4 C26_7 1_555 1_555
C1_7 C3_7 1_555 1_555
C3_7 H6_7 1_555 1_555
C5_7 C8_7 1_555 1_555
C8_7 H9_7 1_555 1_555
C12_7 C1_7 1_555 1_555
C21_7 C8_7 1_555 1_555
H16_7 C21_7 1_555 1_555
C25_7 C5_7 1_555 1_555
H19_7 C25_7 1_555 1_555
C26_7 C5_7 1_555 1_555
C28_6 C3_7 1_555 1_555
C34_6 C28_6 1_555 1_555
C37_7 C12_7 1_555 1_555
C40_6 C34_6 1_555 1_555
H27_6 C40_6 1_555 1_555
C12_7 C21_7 1_555 1_555
C25_7 C37_7 1_555 1_555
Cd4_4 O4_7 1_555 1_555
Cd7 O3_7 1_555 1_555
O3_7 C22_7 1_555 1_555
O4_7 C22_7 1_555 1_555
N2_7 Cd4_4 1_555 1_555
N3_7 C10_7 1_555 1_555
N4_7 C18_7 1_555 1_555
N7 C30_7 1_555 1_555
O7_7 Cd7 1_555 1_555
H1_7 O7_7 1_555 1_555
H2_7 O7_7 1_555 1_555
O8_7 Cd4_4 1_555 1_555
H3_7 O8_7 1_555 1_555
H4_7 O8_7 1_555 1_555
C13_7 N2_7 1_555 1_555
H11_7 C13_7 1_555 1_555
C16_7 C22_7 1_555 1_555
C18_7 C9_7 1_555 1_555
C23_7 C10_7 1_555 1_555
H17_7 C23_7 1_555 1_555
C30_7 N4_7 1_555 1_555
H21_7 C30_7 1_555 1_555
C32_7 H22_7 1_555 1_555
C33_7 N4_7 1_555 1_555
C38_7 C16_7 1_555 1_555
H25_7 C38_7 1_555 1_555
C39_7 C16_7 1_555 1_555
H26_7 C39_7 1_555 1_555
C42_7 H29_7 1_555 1_555
C44_7 N2_7 1_555 1_555
C45_7 N7 1_555 1_555
C47_7 C33_7 1_555 1_555
H31_7 C47_7 1_555 1_555
C49_7 C42_7 1_555 1_555
H32_4 C49_7 1_555 1_555
C52_7 C47_7 1_555 1_555
H35_4 C52_7 1_555 1_555
N3_7 C13_7 1_555 1_555
C18_7 C23_7 1_555 1_555
C32_7 C39_7 1_555 1_555
C33_7 C45_7 1_555 1_555
C42_7 C45_7 1_555 1_555
C49_7 C52_7 1_555 1_555
O9_3 C26_8 1_555 1_555
O10_3 C26_8 1_555 1_555
C1_8 C3_8 1_555 1_555
C3_8 H6_8 1_555 1_555
C5_8 C8_8 1_555 1_555
C8_8 H9_8 1_555 1_555
C12_8 C1_8 1_555 1_555
C21_8 C8_8 1_555 1_555
H16_8 C21_8 1_555 1_555
C25_8 C5_8 1_555 1_555
H19_8 C25_8 1_555 1_555
C26_8 C5_8 1_555 1_555
C37_8 C12_8 1_555 1_555
C12_8 C21_8 1_555 1_555
C25_8 C37_8 1_555 1_555
Cd4_3 O4_8 1_555 1_555
Cd8 O3_8 1_555 1_555
O3_8 C22_8 1_555 1_555
O4_8 C22_8 1_555 1_555
N2_8 Cd4_3 1_555 1_555
O7_8 Cd8 1_555 1_555
H1_8 O7_8 1_555 1_555
H2_8 O7_8 1_555 1_555
O8_8 Cd4_3 1_555 1_555
H3_8 O8_8 1_555 1_555
H4_8 O8_8 1_555 1_555
C13_8 N2_8 1_555 1_555
H11_8 C13_8 1_555 1_555
C16_8 C22_8 1_555 1_555
C32_8 H22_8 1_555 1_555
C38_8 C16_8 1_555 1_555
H25_8 C38_8 1_555 1_555
C39_8 C16_8 1_555 1_555
H26_8 C39_8 1_555 1_555
C44_8 N2_8 1_555 1_555
N3_8 C13_8 1_555 1_555
C32_8 C39_8 1_555 1_555
N4_8 C18_8 1_555 1_555
N7_2 C30_8 1_555 1_555
C18_8 C9_8 1_555 1_555
C23_8 C10_8 1_555 1_555
H17_8 C23_8 1_555 1_555
C30_8 N4_8 1_555 1_555
H21_8 C30_8 1_555 1_555
C33_8 N4_8 1_555 1_555
C42_8 H29_8 1_555 1_555
C45_8 N7_2 1_555 1_555
C47_8 C33_8 1_555 1_555
H31_8 C47_8 1_555 1_555
C49_8 C42_8 1_555 1_555
H32_5 C49_8 1_555 1_555
C52_8 C47_8 1_555 1_555
H35_5 C52_8 1_555 1_555
C18_8 C23_8 1_555 1_555
C33_8 C45_8 1_555 1_555
C42_8 C45_8 1_555 1_555
C49_8 C52_8 1_555 1_555
O11_4 C48_8 1_555 1_555
O12_4 C48_8 1_555 1_555
C2_8 H5_8 1_555 1_555
C7_8 H8_8 1_555 1_555
C15_8 C7_8 1_555 1_555
C17_8 C2_8 1_555 1_555
C19_8 H14_8 1_555 1_555
C29_8 C19_8 1_555 1_555
H20_8 C29_8 1_555 1_555
C31_8 C15_8 1_555 1_555
C36_8 C2_8 1_555 1_555
C48_8 C36_8 1_555 1_555
C17_8 C31_8 1_555 1_555
C19_8 C31_8 1_555 1_555
C29_8 C36_8 1_555 1_555
N1_8 C6_8 1_555 1_555
N8 C24_8 1_555 1_555
C4_8 H7_8 1_555 1_555
C6_8 C4_8 1_555 1_555
C11_8 N1_8 1_555 1_555
C20_8 C11_8 1_555 1_555
H15_8 C20_8 1_555 1_555
C24_8 N1_8 1_555 1_555
H18_8 C24_8 1_555 1_555
C27_8 N8 1_555 1_555
C35_8 C20_8 1_555 1_555
H23_8 C35_8 1_555 1_555
C41_8 C35_8 1_555 1_555
H28_8 C41_8 1_555 1_555
C46_8 C27_8 1_555 1_555
H30_8 C46_8 1_555 1_555
C11_8 C27_8 1_555 1_555
C41_8 C46_8 1_555 1_555
C51_7 C43_7 1_555 1_555
H34_7 C51_7 1_555 1_555
C53_7 C51_7 1_555 1_555
H36_7 C53_7 1_555 1_555
C54_7 C50_7 1_555 1_555
H37_7 C54_7 1_555 1_555
C53_7 C54_7 1_555 1_555
H12_7 C14_7 1_555 1_555
C34_7 C28_7 1_555 1_555
C40_7 C34_7 1_555 1_555
H27_7 C40_7 1_555 1_555
C34_8 C28_8 1_555 1_555
C40_8 C34_8 1_555 1_555
H27_8 C40_8 1_555 1_555
H12_8 C14_8 1_555 1_555
C51_8 C43_8 1_555 1_555
H34_8 C51_8 1_555 1_555
C53_8 C51_8 1_555 1_555
H36_8 C53_8 1_555 1_555
C54_8 C50_8 1_555 1_555
H37_8 C54_8 1_555 1_555
C53_8 C54_8 1_555 1_555
I1 I2 1_555 1_555
I3 I1 1_555 1_555
I1_2 I2_2 1_555 1_555
I3_2 I1_3 1_555 1_555
I1_4 I2_3 1_555 1_555
I3_3 I1_4 1_555 1_555
I1_5 I2_4 1_555 1_555
I3_4 I1_6 1_555 1_555
I4 I5 1_555 1_555
I5 I6 1_555 1_555
I4_2 I5_2 1_555 1_555
I4_3 I5_3 1_555 1_555
I4_4 I5_4 1_555 1_555
I5_4 I6_4 1_555 1_555
I4_5 I5_5 1_555 1_555
I4_6 I5_6 1_555 1_555

#END
