
###############################################################################
#
# This file contains modified crystal structure data generated from the
# MOF subset of the Cambridge Structural Database (CSD) v543 
# hosted by the Cambridge Crystallographic Data Centre (CCDC).
#
# This work is licensed under the Creative Commons
# Attribution-NonCommercial-ShareAlike 4.0 International License.
# To view a copy of this license, visit
# http://creativecommons.org/licenses/by-nc-sa/4.0/
# or send a letter to
# Creative Commons, PO Box 1866, Mountain View, CA 94042, USA.
#
# CIF created using the CSD Python API on 29 September 2022
# The structure has been converted into the P1 space group
# The structure has a 3D framework
# The original CSD entry ONODOM is in the triclinic crystal system
# The framework has been calculated to contain at least 10.0% void space
# The void calculation uses a probe of radius 1.32A, grid spacing 0.4
#
###############################################################################

data_ONODOM
_chemical_formula_moiety         '(C112 H68 Ni6 O38)n'
_symmetry_cell_setting           triclinic
_symmetry_space_group_name_H-M   'P 1'
_symmetry_Int_Tables_number      1
_space_group_name_Hall           'P 1'
loop_
_symmetry_equiv_pos_site_id
_symmetry_equiv_pos_as_xyz
1 x,y,z
_cell_length_a                   12.8328(12)
_cell_length_b                   16.1439(15)
_cell_length_c                   16.2738(15)
_cell_angle_alpha                84.645(2)
_cell_angle_beta                 79.837(2)
_cell_angle_gamma                69.372(2)
_cell_volume                     3104.03
loop_
_atom_site_label
_atom_site_type_symbol
_atom_site_fract_x
_atom_site_fract_y
_atom_site_fract_z
O5 O 0.4224(2) 0.68497(18) 0.22639(17)
O6 O 0.4899(3) 0.6308(2) 0.09735(18)
O7 O 0.4536(3) 0.31135(19) 0.07724(18)
O8 O 0.3068(3) 0.3919(2) 0.01977(19)
O9 O 0.3619(2) 0.19153(18) 0.00760(17)
C12 C 0.0287(5) 0.1291(4) 0.2755(4)
H12 H 0.1049 0.1045 0.2542
C15 C 0.0265(14) 0.3499(9) 0.3112(10)
C16 C 0.0918(12) 0.4035(11) 0.2916(9)
H15 H 0.0672 0.4566 0.3191
C17 C 0.2306(14) 0.2980(9) 0.2097(8)
H16 H 0.3033 0.2769 0.1802
C18 C 0.1672(12) 0.2414(11) 0.2260(8)
H17 H 0.1960 0.1839 0.2069
C19 C 0.0546(4) 0.2758(3) 0.2739(3)
C20 C 0.1874(4) 0.3856(3) 0.2366(3)
C21 C 0.2537(4) 0.4472(3) 0.2180(3)
C22 C 0.2384(4) 0.5118(3) 0.2748(3)
H18 H 0.1871 0.5155 0.3237
C23 C 0.2966(4) 0.5700(3) 0.2609(3)
H19 H 0.2851 0.6115 0.3007
C24 C 0.3723(4) 0.5675(3) 0.1884(2)
C25 C 0.3907(4) 0.5032(3) 0.1321(3)
H20 H 0.4428 0.4998 0.0838
C26 C 0.3334(4) 0.4433(3) 0.1456(2)
C27 C 0.4340(4) 0.6326(3) 0.1695(3)
C28 C 0.3651(4) 0.3765(3) 0.0783(3)
C30 C 0.2414(4) 0.1071(3) 0.0284(3)
C31 C 0.1307(4) 0.1127(3) 0.0377(3)
H21 H 0.0777 0.1631 0.0181
C32 C 0.0971(4) 0.0435(3) 0.0762(3)
H22 H 0.0214 0.0494 0.0835
C35 C 0.3190(4) 0.0307(3) 0.0564(2)
H23 H 0.3940 0.0267 0.0505
Ni5 Ni 0.56337(4) 0.71785(3) 0.04417(3)
Ni9 Ni 0.50530(4) 0.76551(3) 0.24832(3)
Ni1 Ni 0.43663(4) 0.28215(3) 0.95583(3)
O10 O 0.2225(3) 0.2271(2) 0.9320(2)
O19 O 0.3684(2) 0.29084(17) 0.84911(16)
H5 H 0.3296 0.3525 0.8349
H6 H 0.3139 0.2605 0.8582
C29 C 0.2767(4) 0.1819(3) 0.9865(3)
Ni10 Ni 0.49470(4) 0.23449(3) 0.75168(3)
O22 O 0.5101(3) 0.3692(2) 0.90265(18)
O24 O 0.5843(2) 0.18083(19) 0.93985(18)
O11 O 0.4150(2) 0.87165(18) 0.18195(18)
O12 O 0.4157(2) 0.81917(19) 0.06015(18)
C33 C 0.1742(4) 0.9658(3) 0.1041(3)
C34 C 0.2885(3) 0.9596(3) 0.0933(2)
C36 C 0.3803(3) 0.8756(3) 0.1139(3)
C37 C 0.1321(4) 0.8957(3) 0.1454(3)
C38 C 0.1624(4) 0.8539(3) 0.2202(3)
H24 H 0.2164 0.8664 0.2432
C39 C 0.1148(4) 0.7941(3) 0.2617(3)
H25 H 0.1366 0.7676 0.3121
C40 C 0.0347(4) 0.7730(3) 0.2289(3)
C41 C 0.0067(4) 0.8121(3) 0.1517(3)
C42 C 0.0537(4) 0.8727(3) 0.1121(3)
H27 H 0.0323 0.8992 0.0616
O3 O 0.7066(4) 0.0716(2) 0.5362(2)
O4 O 0.5923(3) 0.1775(2) 0.46301(18)
C5 C 0.7834(4) 0.0481(3) 0.3276(3)
C6 C 0.7012(4) 0.0443(3) 0.3969(3)
C8 C 0.6653(4) 0.1042(3) 0.4696(3)
C9 C 0.8059(5) 0.1960(4) 0.3404(4)
H10 H 0.7303 0.2204 0.3633
C10 C 0.8504(4) 0.1078(3) 0.3212(3)
C11 C 0.9637(5) 0.0752(4) 0.2897(4)
H11 H 0.9972 0.0155 0.2777
C13 C 0.9840(4) 0.2185(3) 0.2920(3)
C14 C 0.8728(5) 0.2486(4) 0.3262(4)
H13 H 0.8401 0.3076 0.3407
H14 H 0.9622 0.3671 0.3512
Ni7 Ni 0.49765(5) 0.26018(3) 0.55764(3)
Ni2 Ni 0.50235(5) 0.73982(3) 0.44236(3)
O1 O 0.5821(3) 0.8297(2) 0.41030(18)
O2 O 0.5913(3) 0.84216(18) 0.27052(17)
O13 O 0.5896(2) 0.66979(18) 0.33379(16)
O14 O 0.6784(3) 0.56323(19) 0.24337(19)
O15 O 0.7269(3) 0.2916(2) 0.57965(19)
O16 O 0.5742(2) 0.35012(19) 0.51682(18)
O17 O 0.6158(3) 0.6750(2) 0.5235(2)
H1 H 0.578(4) 0.673(4) 0.5725(18)
H2 H 0.682(2) 0.677(2) 0.512(3)
O18 O 0.3907(2) 0.80092(17) 0.35697(16)
H3 H 0.3309 0.7763 0.3613
H4 H 0.3585 0.8646 0.3625
C1 C 0.6100(3) 0.8602(3) 0.3386(3)
C2 C 0.6702(4) 0.9256(3) 0.3343(3)
C3 C 0.7496(4) 0.9296(3) 0.2672(3)
H7 H 0.7658 0.8923 0.2230
C4 C 0.8062(4) 0.9892(3) 0.2649(3)
H8 H 0.8615 0.9894 0.2196
C7 C 0.6474(4) 0.9833(3) 0.3993(3)
H9 H 0.5944 0.9807 0.4455
H26 H 0.9562 0.7970 0.1269
C43 C 0.9793(4) 0.7122(3) 0.2732(3)
C44 C 0.9500(4) 0.7115(3) 0.3594(3)
H28 H 0.9672 0.7494 0.3900
C45 C 0.8956(4) 0.6555(3) 0.4012(3)
H29 H 0.8770 0.6567 0.4591
C46 C 0.8688(4) 0.5983(3) 0.3581(3)
C47 C 0.8968(5) 0.5976(4) 0.2715(3)
H30 H 0.8796 0.5593 0.2412
C48 C 0.9508(5) 0.6545(4) 0.2306(3)
H31 H 0.9683 0.6540 0.1726
C49 C 0.8129(4) 0.5365(3) 0.4032(3)
C50 C 0.8604(4) 0.4801(3) 0.4664(3)
H32 H 0.9258 0.4828 0.4813
C51 C 0.8141(4) 0.4200(3) 0.5080(3)
H33 H 0.8491 0.3824 0.5495
C52 C 0.7159(4) 0.4152(3) 0.4885(3)
C53 C 0.6648(4) 0.4732(3) 0.4266(2)
H34 H 0.5975 0.4720 0.4138
C54 C 0.7127(4) 0.5325(3) 0.3838(3)
C55 C 0.6559(3) 0.5921(3) 0.3160(3)
C56 C 0.6686(4) 0.3473(3) 0.5319(3)
O20 O 0.4077(3) 0.8225(2) 0.53699(18)
O25 O 0.4258(2) 0.64988(19) 0.48318(18)
O26 O 0.6316(2) 0.70916(17) 0.15089(16)
O1_2 O 0.4179(3) 0.1703(2) 0.58970(18)
O2_2 O 0.4087(3) 0.15784(18) 0.72948(17)
O13_2 O 0.4104(2) 0.33021(18) 0.66621(16)
O14_2 O 0.3216(3) 0.43677(19) 0.75663(19)
O15_2 O 0.2731(3) 0.7084(2) 0.42035(19)
O17_2 O 0.3842(3) 0.3250(2) 0.4765(2)
H1_2 H 0.422(4) 0.327(4) 0.4275(18)
H2_2 H 0.318(2) 0.323(2) 0.488(3)
O18_2 O 0.6093(2) 0.19908(17) 0.64303(16)
H3_2 H 0.6691 0.2237 0.6387
H4_2 H 0.6415 0.1354 0.6375
C1_2 C 0.3900(3) 0.1398(3) 0.6614(3)
C2_2 C 0.3298(4) 0.0744(3) 0.6657(3)
C3_2 C 0.2504(4) 0.0704(3) 0.7328(3)
H7_2 H 0.2342 0.1077 0.7770
C4_2 C 0.1938(4) 0.0108(3) 0.7351(3)
H8_2 H 0.1385 0.0106 0.7804
C7_2 C 0.3526(4) 0.0167(3) 0.6007(3)
H9_2 H 0.4056 0.0193 0.5545
H26_2 H 0.0438 0.2030 0.8731
C43_2 C 0.0207(4) 0.2878(3) 0.7268(3)
C44_2 C 0.0500(4) 0.2885(3) 0.6406(3)
H28_2 H 0.0328 0.2506 0.6100
C45_2 C 0.1044(4) 0.3445(3) 0.5988(3)
H29_2 H 0.1230 0.3433 0.5409
C46_2 C 0.1312(4) 0.4017(3) 0.6419(3)
C47_2 C 0.1032(5) 0.4024(4) 0.7285(3)
H30_2 H 0.1204 0.4407 0.7588
C48_2 C 0.0492(5) 0.3455(4) 0.7694(3)
H31_2 H 0.0317 0.3460 0.8274
C49_2 C 0.1871(4) 0.4635(3) 0.5968(3)
C50_2 C 0.1396(4) 0.5199(3) 0.5336(3)
H32_2 H 0.0742 0.5172 0.5187
C51_2 C 0.1859(4) 0.5800(3) 0.4920(3)
H33_2 H 0.1509 0.6176 0.4505
C52_2 C 0.2841(4) 0.5848(3) 0.5115(3)
C53_2 C 0.3352(4) 0.5268(3) 0.5734(2)
H34_2 H 0.4025 0.5280 0.5862
C54_2 C 0.2873(4) 0.4675(3) 0.6162(3)
C55_2 C 0.3441(3) 0.4079(3) 0.6840(3)
C56_2 C 0.3314(4) 0.6527(3) 0.4681(3)
O21 O 0.5776(2) 0.31503(18) 0.77361(17)
O23 O 0.5850(2) 0.12835(18) 0.81805(18)
O3_2 O 0.2934(4) 0.9284(2) 0.4638(2)
C5_2 C 0.2166(4) 0.9519(3) 0.6724(3)
C6_2 C 0.2988(4) 0.9557(3) 0.6031(3)
C8_2 C 0.3347(4) 0.8958(3) 0.5304(3)
C9_2 C 0.1941(5) 0.8040(4) 0.6596(4)
H10_2 H 0.2697 0.7796 0.6367
C10_2 C 0.1496(4) 0.8922(3) 0.6788(3)
C11_2 C 0.0363(5) 0.9248(4) 0.7103(4)
H11_2 H 0.0028 0.9845 0.7223
C13_2 C 0.0160(4) 0.7815(3) 0.7080(3)
C14_2 C 0.1272(5) 0.7514(4) 0.6738(4)
H13_2 H 0.1599 0.6924 0.6593
H14_2 H 0.0378 0.6329 0.6488
C33_2 C 0.8258(4) 0.0342(3) 0.8959(3)
C34_2 C 0.7115(3) 0.0404(3) 0.9067(2)
C36_2 C 0.6197(3) 0.1244(3) 0.8861(3)
C37_2 C 0.8679(4) 0.1043(3) 0.8546(3)
C38_2 C 0.8376(4) 0.1461(3) 0.7798(3)
H24_2 H 0.7836 0.1336 0.7568
C39_2 C 0.8852(4) 0.2059(3) 0.7383(3)
H25_2 H 0.8634 0.2324 0.6879
C40_2 C 0.9653(4) 0.2270(3) 0.7711(3)
C41_2 C 0.9933(4) 0.1879(3) 0.8483(3)
C42_2 C 0.9463(4) 0.1273(3) 0.8879(3)
H27_2 H 0.9677 0.1008 0.9384
O10_2 O 0.7775(3) 0.7729(2) 0.0680(2)
H5_2 H 0.6704 0.6475 0.1651
H6_2 H 0.6861 0.7395 0.1418
C29_2 C 0.7233(4) 0.8181(3) 0.0135(3)
O7_2 O 0.5464(3) 0.68865(19) 0.92276(18)
O8_2 O 0.6932(3) 0.6081(2) 0.98023(19)
O9_2 O 0.6381(2) 0.80847(18) 0.99240(17)
C12_2 C 0.9713(5) 0.8709(4) 0.7245(4)
H12_2 H 0.8951 0.8955 0.7458
C15_2 C 0.9735(14) 0.6501(9) 0.6888(10)
C16_2 C 0.9082(12) 0.5965(11) 0.7084(9)
H15_2 H 0.9328 0.5434 0.6809
C17_2 C 0.7694(14) 0.7020(9) 0.7903(8)
H16_2 H 0.6967 0.7231 0.8198
C18_2 C 0.8328(12) 0.7586(11) 0.7740(8)
H17_2 H 0.8040 0.8161 0.7931
C19_2 C 0.9454(4) 0.7242(3) 0.7261(3)
C20_2 C 0.8126(4) 0.6144(3) 0.7634(3)
C21_2 C 0.7463(4) 0.5528(3) 0.7820(3)
C22_2 C 0.7616(4) 0.4882(3) 0.7252(3)
H18_2 H 0.8129 0.4845 0.6763
C23_2 C 0.7034(4) 0.4300(3) 0.7391(3)
H19_2 H 0.7149 0.3885 0.6993
C24_2 C 0.6277(4) 0.4325(3) 0.8116(2)
C25_2 C 0.6093(4) 0.4968(3) 0.8679(3)
H20_2 H 0.5572 0.5002 0.9162
C26_2 C 0.6666(4) 0.5567(3) 0.8544(2)
C27_2 C 0.5660(4) 0.3674(3) 0.8305(3)
C28_2 C 0.6349(4) 0.6235(3) 0.9217(3)
C30_2 C 0.7586(4) 0.8929(3) 0.9716(3)
C31_2 C 0.8693(4) 0.8873(3) 0.9623(3)
H21_2 H 0.9223 0.8369 0.9819
C32_2 C 0.9029(4) 0.9565(3) 0.9238(3)
H22_2 H 0.9786 0.9506 0.9165
C35_2 C 0.6810(4) 0.9693(3) 0.9436(2)
H23_2 H 0.6060 0.9733 0.9495
loop_
_geom_bond_atom_site_label_1
_geom_bond_atom_site_label_2
_geom_bond_site_symmetry_1
_geom_bond_site_symmetry_2
O5 C27 1_555 1_555
O6 C27 1_555 1_555
O7 C28 1_555 1_555
H12 C12 1_555 1_555
C16 C15 1_555 1_555
H15 C16 1_555 1_555
C17 H16 1_555 1_555
C18 C17 1_555 1_555
H17 C18 1_555 1_555
C20 C16 1_555 1_555
C21 C20 1_555 1_555
C22 C21 1_555 1_555
H18 C22 1_555 1_555
C23 C22 1_555 1_555
H19 C23 1_555 1_555
C24 C23 1_555 1_555
C25 C24 1_555 1_555
H20 C25 1_555 1_555
C26 C21 1_555 1_555
C27 C24 1_555 1_555
C28 O8 1_555 1_555
C31 C30 1_555 1_555
H21 C31 1_555 1_555
C32 C31 1_555 1_555
H22 C32 1_555 1_555
C35 C30 1_555 1_555
H23 C35 1_555 1_555
Ni5 O6 1_555 1_555
Ni9 O5 1_555 1_555
C15 C19 1_555 1_555
C17 C20 1_555 1_555
C18 C19 1_555 1_555
C25 C26 1_555 1_555
C26 C28 1_555 1_555
O10 C29 1_555 1_555
O19 Ni1 1_555 1_555
H5 O19 1_555 1_555
H6 O19 1_555 1_555
Ni10 O19 1_555 1_555
O22 Ni1 1_555 1_555
O24 Ni1 1_555 1_555
O11 C36 1_555 1_555
O12 C36 1_555 1_555
C34 C33 1_555 1_555
C36 C34 1_555 1_555
C37 C33 1_555 1_555
C38 C37 1_555 1_555
H24 C38 1_555 1_555
C39 C38 1_555 1_555
H25 C39 1_555 1_555
C40 C39 1_555 1_555
C41 C40 1_555 1_555
C42 C37 1_555 1_555
H27 C42 1_555 1_555
Ni5 O12 1_555 1_555
Ni9 O11 1_555 1_555
C41 C42 1_555 1_555
O3 C8 1_555 1_555
O4 C8 1_555 1_555
C6 C5 1_555 1_555
C8 C6 1_555 1_555
C9 H10 1_555 1_555
C10 C5 1_555 1_555
C11 C10 1_555 1_555
H11 C11 1_555 1_555
C14 C9 1_555 1_555
H13 C14 1_555 1_555
Ni7 O4 1_555 1_555
C9 C10 1_555 1_555
C13 C14 1_555 1_555
Ni2 O1 1_555 1_555
Ni9 O2 1_555 1_555
O1 C1 1_555 1_555
O2 C1 1_555 1_555
O13 Ni2 1_555 1_555
O14 C55 1_555 1_555
O15 C56 1_555 1_555
O16 C56 1_555 1_555
O17 Ni2 1_555 1_555
H1 O17 1_555 1_555
H2 O17 1_555 1_555
O18 Ni2 1_555 1_555
H3 O18 1_555 1_555
H4 O18 1_555 1_555
C1 C2 1_555 1_555
C2 C3 1_555 1_555
C3 H7 1_555 1_555
C4 C3 1_555 1_555
H8 C4 1_555 1_555
C7 C2 1_555 1_555
H9 C7 1_555 1_555
C44 C43 1_555 1_555
H28 C44 1_555 1_555
C45 C44 1_555 1_555
H29 C45 1_555 1_555
C46 C45 1_555 1_555
C47 C46 1_555 1_555
H30 C47 1_555 1_555
C48 C43 1_555 1_555
H31 C48 1_555 1_555
C49 C46 1_555 1_555
C50 C49 1_555 1_555
H32 C50 1_555 1_555
C51 C50 1_555 1_555
H33 C51 1_555 1_555
C52 C51 1_555 1_555
C53 C52 1_555 1_555
H34 C53 1_555 1_555
C54 C49 1_555 1_555
C55 O13 1_555 1_555
C56 C52 1_555 1_555
Ni7 O16 1_555 1_555
O20 Ni2 1_555 1_555
O25 Ni2 1_555 1_555
O26 Ni9 1_555 1_555
Ni9 O13 1_555 1_555
Ni9 O18 1_555 1_555
C47 C48 1_555 1_555
C53 C54 1_555 1_555
C54 C55 1_555 1_555
Ni7 O1_2 1_555 1_555
Ni10 O2_2 1_555 1_555
O1_2 C1_2 1_555 1_555
O2_2 C1_2 1_555 1_555
O13_2 Ni7 1_555 1_555
O14_2 C55_2 1_555 1_555
O15_2 C56_2 1_555 1_555
O25 C56_2 1_555 1_555
O17_2 Ni7 1_555 1_555
H1_2 O17_2 1_555 1_555
H2_2 O17_2 1_555 1_555
O18_2 Ni7 1_555 1_555
H3_2 O18_2 1_555 1_555
H4_2 O18_2 1_555 1_555
C1_2 C2_2 1_555 1_555
C2_2 C3_2 1_555 1_555
C3_2 H7_2 1_555 1_555
C4_2 C3_2 1_555 1_555
H8_2 C4_2 1_555 1_555
C7_2 C2_2 1_555 1_555
H9_2 C7_2 1_555 1_555
C44_2 C43_2 1_555 1_555
H28_2 C44_2 1_555 1_555
C45_2 C44_2 1_555 1_555
H29_2 C45_2 1_555 1_555
C46_2 C45_2 1_555 1_555
C47_2 C46_2 1_555 1_555
H30_2 C47_2 1_555 1_555
C48_2 C43_2 1_555 1_555
H31_2 C48_2 1_555 1_555
C49_2 C46_2 1_555 1_555
C50_2 C49_2 1_555 1_555
H32_2 C50_2 1_555 1_555
C51_2 C50_2 1_555 1_555
H33_2 C51_2 1_555 1_555
C52_2 C51_2 1_555 1_555
C53_2 C52_2 1_555 1_555
H34_2 C53_2 1_555 1_555
C54_2 C49_2 1_555 1_555
C55_2 O13_2 1_555 1_555
C56_2 C52_2 1_555 1_555
O21 Ni10 1_555 1_555
O23 Ni10 1_555 1_555
Ni10 O13_2 1_555 1_555
Ni10 O18_2 1_555 1_555
C47_2 C48_2 1_555 1_555
C53_2 C54_2 1_555 1_555
C54_2 C55_2 1_555 1_555
O3_2 C8_2 1_555 1_555
O20 C8_2 1_555 1_555
C6_2 C5_2 1_555 1_555
C8_2 C6_2 1_555 1_555
C9_2 H10_2 1_555 1_555
C10_2 C5_2 1_555 1_555
C11_2 C10_2 1_555 1_555
H11_2 C11_2 1_555 1_555
C14_2 C9_2 1_555 1_555
H13_2 C14_2 1_555 1_555
C9_2 C10_2 1_555 1_555
C13_2 C14_2 1_555 1_555
O23 C36_2 1_555 1_555
O24 C36_2 1_555 1_555
C34_2 C33_2 1_555 1_555
C36_2 C34_2 1_555 1_555
C37_2 C33_2 1_555 1_555
C38_2 C37_2 1_555 1_555
H24_2 C38_2 1_555 1_555
C39_2 C38_2 1_555 1_555
H25_2 C39_2 1_555 1_555
C40_2 C39_2 1_555 1_555
C41_2 C40_2 1_555 1_555
C42_2 C37_2 1_555 1_555
H27_2 C42_2 1_555 1_555
C41_2 C42_2 1_555 1_555
O10_2 C29_2 1_555 1_555
O26 Ni5 1_555 1_555
H5_2 O26 1_555 1_555
H6_2 O26 1_555 1_555
O21 C27_2 1_555 1_555
O22 C27_2 1_555 1_555
O7_2 C28_2 1_555 1_555
H12_2 C12_2 1_555 1_555
C16_2 C15_2 1_555 1_555
H15_2 C16_2 1_555 1_555
C17_2 H16_2 1_555 1_555
C18_2 C17_2 1_555 1_555
H17_2 C18_2 1_555 1_555
C20_2 C16_2 1_555 1_555
C21_2 C20_2 1_555 1_555
C22_2 C21_2 1_555 1_555
H18_2 C22_2 1_555 1_555
C23_2 C22_2 1_555 1_555
H19_2 C23_2 1_555 1_555
C24_2 C23_2 1_555 1_555
C25_2 C24_2 1_555 1_555
H20_2 C25_2 1_555 1_555
C26_2 C21_2 1_555 1_555
C27_2 C24_2 1_555 1_555
C28_2 O8_2 1_555 1_555
C31_2 C30_2 1_555 1_555
H21_2 C31_2 1_555 1_555
C32_2 C31_2 1_555 1_555
H22_2 C32_2 1_555 1_555
C35_2 C30_2 1_555 1_555
H23_2 C35_2 1_555 1_555
C15_2 C19_2 1_555 1_555
C17_2 C20_2 1_555 1_555
C18_2 C19_2 1_555 1_555
C25_2 C26_2 1_555 1_555
C26_2 C28_2 1_555 1_555

#END
