
###############################################################################
#
# This file contains modified crystal structure data generated from the
# MOF subset of the Cambridge Structural Database (CSD) v543 
# hosted by the Cambridge Crystallographic Data Centre (CCDC).
#
# This work is licensed under the Creative Commons
# Attribution-NonCommercial-ShareAlike 4.0 International License.
# To view a copy of this license, visit
# http://creativecommons.org/licenses/by-nc-sa/4.0/
# or send a letter to
# Creative Commons, PO Box 1866, Mountain View, CA 94042, USA.
#
# CIF created using the CSD Python API on 29 September 2022
# The structure has been converted into the P1 space group
# The structure has a 3D framework
# The original CSD entry ONOKAE is in the monoclinic crystal system
# The framework has been calculated to contain at least 10.0% void space
# The void calculation uses a probe of radius 1.32A, grid spacing 0.4
#
###############################################################################

data_ONOKAE
_chemical_formula_moiety         '(C64 H38 Cu5 N22 O32)n'
_symmetry_cell_setting           triclinic
_symmetry_space_group_name_H-M   'P 1'
_symmetry_Int_Tables_number      1
_space_group_name_Hall           'P 1'
loop_
_symmetry_equiv_pos_site_id
_symmetry_equiv_pos_as_xyz
1 x,y,z
_cell_length_a                   30.6444(17)
_cell_length_b                   9.2536(7)
_cell_length_c                   8.2410(5)
_cell_angle_alpha                90
_cell_angle_beta                 103.093(4)
_cell_angle_gamma                90
_cell_volume                     2276.16
loop_
_atom_site_label
_atom_site_type_symbol
_atom_site_fract_x
_atom_site_fract_y
_atom_site_fract_z
Cu1 Cu 0.216045(17) 0.01243(6) 0.08662(7)
H1 H -0.0000 0.0089 0.2500
C2 C 0.12757(17) 0.0491(5) 0.1516(7)
H2 H 0.1365 0.1453 0.1621
C3 C 0.08731(18) 0.0127(6) 0.1869(8)
H3 H 0.0699 0.0831 0.2222
O5 O 0.30591(10) 0.2983(3) 0.0160(4)
O7 O 0.27656(10) 0.0920(3) 0.0835(4)
O11 O 0.22267(10) 0.1237(3) 0.3551(4)
C15 C 0.27369(14) 0.2185(5) 0.0286(5)
O1 O 0.19409(10) 0.2017(3) 0.9840(4)
O2 O 0.22344(10) 0.4080(3) 0.9165(4)
C7 C 0.22631(14) 0.2815(5) 0.9714(5)
Cu6 Cu 0.283955(17) 0.48757(6) 0.91338(7)
N1 N 0.15457(12) 0.9527(4) 0.1027(5)
N2 N 0.01988(16) 0.6888(5) 0.2271(8)
N3 N -0.0000 0.9160(6) 0.2500
C1 C 0.03097(16) 0.8266(6) 0.2141(8)
C4 C 0.07284(16) 0.8712(5) 0.1699(7)
C5 C 0.09998(17) 0.7713(6) 0.1149(8)
H4 H 0.0911 0.6754 0.0983
C6 C 0.14035(17) 0.8162(5) 0.0851(7)
H5 H 0.1586 0.7477 0.0510
Cu3 Cu 0.283955(17) 0.51243(6) 0.41338(7)
O9 O 0.27733(10) 0.6237(3) 0.1449(4)
O13 O 0.24458(10) 0.8315(3) 0.1873(4)
C16 C 0.25643(14) 0.7365(5) 0.0959(5)
O3 O 0.22267(10) 0.8763(3) 0.8551(4)
O4 O 0.25542(10) 0.6685(3) 0.8127(4)
C8 C 0.24357(14) 0.7635(5) 0.9041(5)
Cu4 Cu 0.216045(17) 0.98757(6) 0.58662(7)
H1_2 H 1.0000 0.0089 0.2500
Cu2 Cu 0.783955(17) 0.01243(6) 0.41338(7)
O6 O 0.80591(10) 0.2017(3) 0.5160(4)
O8 O 0.72344(10) 0.0920(3) 0.4165(4)
O10 O 0.77733(10) 0.1237(3) 0.1449(4)
C10 C 0.87243(17) 0.0491(5) 0.3484(7)
H6 H 0.8635 0.1453 0.3379
C11 C 0.91269(18) 0.0127(6) 0.3131(8)
H7 H 0.9301 0.0831 0.2778
N3_2 N 1.0000 0.9160(6) 0.2500
O12 O 0.77733(10) 0.8763(3) 0.6449(4)
O14 O 0.75542(10) 0.8315(3) 0.3127(4)
N4 N 0.84543(12) 0.9527(4) 0.3973(5)
N5 N 0.98012(16) 0.6888(5) 0.2729(8)
C9 C 0.96903(16) 0.8266(6) 0.2859(8)
C12 C 0.92716(16) 0.8712(5) 0.3301(7)
C13 C 0.90002(17) 0.7713(6) 0.3851(8)
H8 H 0.9089 0.6754 0.4017
C14 C 0.85965(17) 0.8162(5) 0.4149(7)
H9 H 0.8414 0.7477 0.4490
O2_2 O 0.77656(10) 0.4080(3) 0.5835(4)
C7_2 C 0.77369(14) 0.2815(5) 0.5286(5)
Cu6_2 Cu 0.716045(17) 0.48757(6) 0.58662(7)
O5_2 O 0.69409(10) 0.2983(3) 0.4840(4)
C15_2 C 0.72631(14) 0.2185(5) 0.4714(5)
O4_2 O 0.74458(10) 0.6685(3) 0.6873(4)
C8_2 C 0.75643(14) 0.7635(5) 0.5959(5)
Cu3_2 Cu 0.716045(17) 0.51243(6) 0.08662(7)
Cu4_2 Cu 0.783955(17) 0.98757(6) 0.91338(7)
O9_2 O 0.72267(10) 0.6237(3) 0.3551(4)
C16_2 C 0.74357(14) 0.7365(5) 0.4041(5)
N1_2 N 0.65457(12) 0.4527(4) 0.1027(5)
N2_2 N 0.51988(16) 0.1888(5) 0.2271(8)
N3_3 N 0.5000 0.4160(6) 0.2500
H1_3 H 0.5000 0.5089 0.2500
C1_2 C 0.53097(16) 0.3266(6) 0.2141(8)
C2_2 C 0.62757(17) 0.5491(5) 0.1516(7)
H2_2 H 0.6365 0.6453 0.1621
C3_2 C 0.58731(18) 0.5127(6) 0.1869(8)
H3_2 H 0.5699 0.5831 0.2222
C4_2 C 0.57284(16) 0.3712(5) 0.1699(7)
C5_2 C 0.59998(17) 0.2713(6) 0.1149(8)
H4_2 H 0.5911 0.1754 0.0983
C6_2 C 0.64035(17) 0.3162(5) 0.0851(7)
H5_2 H 0.6586 0.2477 0.0510
O5_3 O 0.80591(10) 0.7983(3) 0.0160(4)
O6_2 O 0.30591(10) 0.7017(3) 0.5160(4)
O7_2 O 0.77656(10) 0.5920(3) 0.0835(4)
O8_2 O 0.22344(10) 0.5920(3) 0.4165(4)
O12_2 O 0.27733(10) 0.3763(3) 0.6449(4)
O13_2 O 0.74458(10) 0.3315(3) 0.1873(4)
O14_2 O 0.25542(10) 0.3315(3) 0.3127(4)
N4_2 N 0.34543(12) 0.4527(4) 0.3973(5)
N5_2 N 0.48012(16) 0.1888(5) 0.2729(8)
C9_2 C 0.46903(16) 0.3266(6) 0.2859(8)
C10_2 C 0.37243(17) 0.5491(5) 0.3484(7)
H6_2 H 0.3635 0.6453 0.3379
C11_2 C 0.41269(18) 0.5127(6) 0.3131(8)
H7_2 H 0.4301 0.5831 0.2778
C12_2 C 0.42716(16) 0.3712(5) 0.3301(7)
C13_2 C 0.40002(17) 0.2713(6) 0.3851(8)
H8_2 H 0.4089 0.1754 0.4017
C14_2 C 0.35965(17) 0.3162(5) 0.4149(7)
H9_2 H 0.3414 0.2477 0.4490
C15_3 C 0.77369(14) 0.7185(5) 0.0286(5)
C16_3 C 0.75643(14) 0.2365(5) 0.0959(5)
O1_2 O 0.69409(10) 0.7017(3) 0.9840(4)
O2_3 O 0.72344(10) 0.9080(3) 0.9165(4)
O3_2 O 0.72267(10) 0.3763(3) 0.8551(4)
O4_3 O 0.75542(10) 0.1685(3) 0.8127(4)
C7_3 C 0.72631(14) 0.7815(5) 0.9714(5)
C8_3 C 0.74357(14) 0.2635(5) 0.9041(5)
O2_4 O 0.27656(10) 0.9080(3) 0.5835(4)
O4_4 O 0.24458(10) 0.1685(3) 0.6873(4)
C7_4 C 0.27369(14) 0.7815(5) 0.5286(5)
C8_4 C 0.25643(14) 0.2635(5) 0.5959(5)
O5_4 O 0.19409(10) 0.7983(3) 0.4840(4)
C15_4 C 0.22631(14) 0.7185(5) 0.4714(5)
C16_4 C 0.24357(14) 0.2365(5) 0.4041(5)
N3_4 N 0.0000 0.0840(6) 0.7500
N4_3 N 0.15457(12) 0.0473(4) 0.6027(5)
N5_3 N 0.01988(16) 0.3112(5) 0.7271(8)
C9_3 C 0.03097(16) 0.1734(6) 0.7141(8)
C12_3 C 0.07284(16) 0.1288(5) 0.6699(7)
C13_3 C 0.09998(17) 0.2287(6) 0.6149(8)
H8_3 H 0.0911 0.3246 0.5983
C14_3 C 0.14035(17) 0.1838(5) 0.5851(7)
H9_3 H 0.1586 0.2523 0.5510
H1_4 H 0.0000 0.9911 0.7500
C10_3 C 0.12757(17) 0.9509(5) 0.6516(7)
H6_3 H 0.1365 0.8547 0.6621
C11_3 C 0.08731(18) 0.9873(6) 0.6869(8)
H7_3 H 0.0699 0.9169 0.7222
N1_3 N 0.84543(12) 0.0473(4) 0.8973(5)
N2_3 N 0.98012(16) 0.3112(5) 0.7729(8)
N3_5 N 1.0000 0.0840(6) 0.7500
C1_3 C 0.96903(16) 0.1734(6) 0.7859(8)
C4_3 C 0.92716(16) 0.1288(5) 0.8301(7)
C5_3 C 0.90002(17) 0.2287(6) 0.8851(8)
H4_3 H 0.9089 0.3246 0.9017
C6_3 C 0.85965(17) 0.1838(5) 0.9149(7)
H5_3 H 0.8414 0.2523 0.9490
H1_5 H 1.0000 0.9911 0.7500
C2_3 C 0.87243(17) 0.9509(5) 0.8484(7)
H2_3 H 0.8635 0.8547 0.8379
C3_3 C 0.91269(18) 0.9873(6) 0.8131(8)
H3_3 H 0.9301 0.9169 0.7778
N1_4 N 0.34543(12) 0.5473(4) 0.8973(5)
N2_4 N 0.48012(16) 0.8112(5) 0.7729(8)
N3_6 N 0.5000 0.5840(6) 0.7500
H1_6 H 0.5000 0.4911 0.7500
C1_4 C 0.46903(16) 0.6734(6) 0.7859(8)
C2_4 C 0.37243(17) 0.4509(5) 0.8484(7)
H2_4 H 0.3635 0.3547 0.8379
C3_4 C 0.41269(18) 0.4873(6) 0.8131(8)
H3_4 H 0.4301 0.4169 0.7778
C4_4 C 0.42716(16) 0.6288(5) 0.8301(7)
C5_4 C 0.40002(17) 0.7287(6) 0.8851(8)
H4_4 H 0.4089 0.8246 0.9017
C6_4 C 0.35965(17) 0.6838(5) 0.9149(7)
H5_4 H 0.3414 0.7523 0.9490
N4_4 N 0.65457(12) 0.5473(4) 0.6027(5)
N5_4 N 0.51988(16) 0.8112(5) 0.7271(8)
C9_4 C 0.53097(16) 0.6734(6) 0.7141(8)
C10_4 C 0.62757(17) 0.4509(5) 0.6516(7)
H6_4 H 0.6365 0.3547 0.6621
C11_4 C 0.58731(18) 0.4873(6) 0.6869(8)
H7_4 H 0.5699 0.4169 0.7222
C12_4 C 0.57284(16) 0.6288(5) 0.6699(7)
C13_4 C 0.59998(17) 0.7287(6) 0.6149(8)
H8_4 H 0.5911 0.8246 0.5983
C14_4 C 0.64035(17) 0.6838(5) 0.5851(7)
H9_4 H 0.6586 0.7523 0.5510
loop_
_geom_bond_atom_site_label_1
_geom_bond_atom_site_label_2
_geom_bond_site_symmetry_1
_geom_bond_site_symmetry_2
H2 C2 1_555 1_555
C3 C2 1_555 1_555
H3 C3 1_555 1_555
O7 Cu1 1_555 1_555
O11 Cu1 1_555 1_555
C15 O5 1_555 1_555
O7 C15 1_555 1_555
O1 C7 1_555 1_555
O2 C7 1_555 1_555
Cu6 O2 1_555 1_555
N2 C1 1_555 1_555
C1 N3 1_555 1_555
C4 C1 1_555 1_555
C5 C4 1_555 1_555
H4 C5 1_555 1_555
C6 N1 1_555 1_555
H5 C6 1_555 1_555
Cu3 O9 1_555 1_555
C5 C6 1_555 1_555
O9 C16 1_555 1_555
O13 C16 1_555 1_555
O4 C8 1_555 1_555
C8 O3 1_555 1_555
Cu4 O3 1_555 1_555
Cu6 O4 1_555 1_555
Cu2 O6 1_555 1_555
O8 Cu2 1_555 1_555
O10 Cu2 1_555 1_555
H6 C10 1_555 1_555
C11 C10 1_555 1_555
H7 C11 1_555 1_555
C9 N3_2 1_555 1_555
C12 C9 1_555 1_555
C13 C12 1_555 1_555
H8 C13 1_555 1_555
C14 N4 1_555 1_555
H9 C14 1_555 1_555
N5 C9 1_555 1_555
C13 C14 1_555 1_555
O6 C7_2 1_555 1_555
O2_2 C7_2 1_555 1_555
C7_2 C15_2 1_555 1_555
Cu6_2 O2_2 1_555 1_555
O5_2 Cu6_2 1_555 1_555
C15_2 O5_2 1_555 1_555
O8 C15_2 1_555 1_555
O4_2 C8_2 1_555 1_555
C8_2 O12 1_555 1_555
Cu3_2 O9_2 1_555 1_555
Cu4_2 O12 1_555 1_555
Cu6_2 O4_2 1_555 1_555
O9_2 Cu6_2 1_555 1_555
C16_2 C8_2 1_555 1_555
O9_2 C16_2 1_555 1_555
O14 C16_2 1_555 1_555
N1_2 Cu3_2 1_555 1_555
N2_2 C1_2 1_555 1_555
N3_3 H1_3 1_555 1_555
C1_2 N3_3 1_555 1_555
C2_2 N1_2 1_555 1_555
H2_2 C2_2 1_555 1_555
C3_2 C2_2 1_555 1_555
H3_2 C3_2 1_555 1_555
C4_2 C1_2 1_555 1_555
C5_2 C4_2 1_555 1_555
H4_2 C5_2 1_555 1_555
C6_2 N1_2 1_555 1_555
H5_2 C6_2 1_555 1_555
Cu3 O6_2 1_555 1_555
O7_2 Cu3_2 1_555 1_555
O8_2 Cu3 1_555 1_555
O12_2 Cu3 1_555 1_555
O13_2 Cu3_2 1_555 1_555
O14_2 Cu3 1_555 1_555
N4_2 Cu3 1_555 1_555
N5_2 N2_2 1_555 1_555
C9_2 N3_3 1_555 1_555
C10_2 N4_2 1_555 1_555
H6_2 C10_2 1_555 1_555
C11_2 C10_2 1_555 1_555
H7_2 C11_2 1_555 1_555
C12_2 C9_2 1_555 1_555
C13_2 C12_2 1_555 1_555
H8_2 C13_2 1_555 1_555
C14_2 N4_2 1_555 1_555
H9_2 C14_2 1_555 1_555
C15_3 O5_3 1_555 1_555
C3_2 C4_2 1_555 1_555
C5_2 C6_2 1_555 1_555
O7_2 C15_3 1_555 1_555
O10 C16_3 1_555 1_555
O13_2 C16_3 1_555 1_555
N5_2 C9_2 1_555 1_555
C11_2 C12_2 1_555 1_555
C13_2 C14_2 1_555 1_555
O1_2 C7_3 1_555 1_555
O2_3 C7_3 1_555 1_555
O4_3 C8_3 1_555 1_555
C8_3 O3_2 1_555 1_555
Cu6_2 O3_2 1_555 1_555
Cu4_2 O2_3 1_555 1_555
O6_2 C7_4 1_555 1_555
O2_4 C7_4 1_555 1_555
O4_4 C8_4 1_555 1_555
C7_4 C15_4 1_555 1_555
C8_4 O12_2 1_555 1_555
Cu6 O12_2 1_555 1_555
Cu4 O2_4 1_555 1_555
O5_4 Cu4 1_555 1_555
C15_4 O5_4 1_555 1_555
C16_4 C8_4 1_555 1_555
O8_2 C15_4 1_555 1_555
O11 C16_4 1_555 1_555
O14_2 C16_4 1_555 1_555
C9_3 N3_4 1_555 1_555
C12_3 C9_3 1_555 1_555
C13_3 C12_3 1_555 1_555
H8_3 C13_3 1_555 1_555
C14_3 N4_3 1_555 1_555
H9_3 C14_3 1_555 1_555
N5_3 C9_3 1_555 1_555
C13_3 C14_3 1_555 1_555
H6_3 C10_3 1_555 1_555
C11_3 C10_3 1_555 1_555
H7_3 C11_3 1_555 1_555
N2_3 C1_3 1_555 1_555
C1_3 N3_5 1_555 1_555
C4_3 C1_3 1_555 1_555
C5_3 C4_3 1_555 1_555
H4_3 C5_3 1_555 1_555
C6_3 N1_3 1_555 1_555
H5_3 C6_3 1_555 1_555
C5_3 C6_3 1_555 1_555
H2_3 C2_3 1_555 1_555
C3_3 C2_3 1_555 1_555
H3_3 C3_3 1_555 1_555
N1_4 Cu6 1_555 1_555
N2_4 C1_4 1_555 1_555
N3_6 H1_6 1_555 1_555
C1_4 N3_6 1_555 1_555
C2_4 N1_4 1_555 1_555
H2_4 C2_4 1_555 1_555
C3_4 C2_4 1_555 1_555
H3_4 C3_4 1_555 1_555
C4_4 C1_4 1_555 1_555
C5_4 C4_4 1_555 1_555
H4_4 C5_4 1_555 1_555
C6_4 N1_4 1_555 1_555
H5_4 C6_4 1_555 1_555
N4_4 Cu6_2 1_555 1_555
N5_4 N2_4 1_555 1_555
C9_4 N3_6 1_555 1_555
C10_4 N4_4 1_555 1_555
H6_4 C10_4 1_555 1_555
C11_4 C10_4 1_555 1_555
H7_4 C11_4 1_555 1_555
C12_4 C9_4 1_555 1_555
C13_4 C12_4 1_555 1_555
H8_4 C13_4 1_555 1_555
C14_4 N4_4 1_555 1_555
H9_4 C14_4 1_555 1_555
C3_4 C4_4 1_555 1_555
C5_4 C6_4 1_555 1_555
N5_4 C9_4 1_555 1_555
C11_4 C12_4 1_555 1_555
C13_4 C14_4 1_555 1_555

#END
