
###############################################################################
#
# This file contains modified crystal structure data generated from the
# MOF subset of the Cambridge Structural Database (CSD) v543 
# hosted by the Cambridge Crystallographic Data Centre (CCDC).
#
# This work is licensed under the Creative Commons
# Attribution-NonCommercial-ShareAlike 4.0 International License.
# To view a copy of this license, visit
# http://creativecommons.org/licenses/by-nc-sa/4.0/
# or send a letter to
# Creative Commons, PO Box 1866, Mountain View, CA 94042, USA.
#
# CIF created using the CSD Python API on 29 September 2022
# The structure has been converted into the P1 space group
# The structure has a 3D framework
# The original CSD entry ONORUH is in the trigonal crystal system
# The framework has been calculated to contain at least 10.0% void space
# The void calculation uses a probe of radius 1.32A, grid spacing 0.4
#
###############################################################################

data_ONORUH
_chemical_formula_moiety         '(C162 H81 N32 O63 S6 Zn18)n'
_symmetry_cell_setting           triclinic
_symmetry_space_group_name_H-M   'P 1'
_symmetry_Int_Tables_number      1
_space_group_name_Hall           'P 1'
loop_
_symmetry_equiv_pos_site_id
_symmetry_equiv_pos_as_xyz
1 x,y,z
_cell_length_a                   22.2701(6)
_cell_length_b                   22.2701(6)
_cell_length_c                   13.1106(4)
_cell_angle_alpha                90
_cell_angle_beta                 90
_cell_angle_gamma                120
_cell_volume                     5631.16
loop_
_atom_site_label
_atom_site_type_symbol
_atom_site_fract_x
_atom_site_fract_y
_atom_site_fract_z
Zn1 Zn 0.38408(5) 0.20630(5) 0.11066(7)
C1 C 0.6441(5) 0.3813(5) 0.0825(8)
H1 H 0.629183 0.413517 0.084483
O3 O 0.3299(4) 0.1102(3) 0.1589(5)
O6 O 0.3317(4) 0.1199(3) 0.3267(5)
O8 O 0.4795(3) 0.2228(3) 0.1068(6)
N3 N 0.4313(4) 0.0143(4) 0.0630(6)
O10 O 0.5012(4) 0.3303(4) 0.0937(6)
N4 N 0.4186(5) 0.0157(4) 0.4992(7)
C6 C 0.4284(5) 0.0160(5) 0.3922(7)
C7 C 0.4573(5) 0.0748(5) 0.2284(7)
H4 H 0.476278 0.116697 0.193506
C9 C 0.4540(5) 0.0748(5) 0.3371(7)
H6 H 0.470022 0.116754 0.371056
H7 H 0.279753 0.006382 0.409775
C13 C 0.4330(5) 0.0143(5) 0.1743(7)
C16 C 0.3164(5) 0.0862(5) 0.2458(7)
C17 C 0.5216(5) 0.2881(5) 0.0943(7)
C20 C 0.5959(4) 0.3111(5) 0.0810(7)
C21 C 0.2790(5) 0.0086(5) 0.2584(7)
C25 C 0.4081(7) 0.0644(6) 0.5493(9)
H12 H 0.409373 0.103222 0.520622
C26 C 0.4552(7) 0.0724(6) 0.0056(9)
H13 H 0.476274 0.117835 0.029086
C27 C 0.3958(7) 0.0445(6) 0.6473(9)
H14 H 0.386331 0.067564 0.698457
C28 C 0.6187(5) 0.2628(7) 0.0825(8)
H15 H 0.586483 0.215666 0.084483
O12 O 0.7772(3) 0.2567(4) 0.1068(6)
O13 O 0.6697(4) 0.1709(6) 0.0937(6)
C29 C 0.7119(5) 0.2335(7) 0.0943(7)
C30 C 0.6889(5) 0.2848(6) 0.0810(7)
C31 C 0.7372(7) 0.3559(5) 0.0825(8)
H16 H 0.784334 0.370817 0.084483
O14 O 0.7433(4) 0.5205(3) 0.1068(6)
O15 O 0.8291(6) 0.4988(4) 0.0937(6)
C32 C 0.7665(7) 0.4784(5) 0.0943(7)
C33 C 0.7152(6) 0.4041(4) 0.0810(7)
Zn10 Zn 0.79370(5) 0.17778(7) 0.11066(7)
Zn11 Zn 0.82222(7) 0.61592(5) 0.11066(7)
Zn20 Zn 0.37927(7) 0.22005(5) 0.35239(8)
Zn24 Zn 0.63704(5) 0.08506(5) 0.21580(8)
Zn25 Zn 0.91494(5) 0.55198(7) 0.21580(8)
Zn26 Zn 0.44802(7) 0.36296(5) 0.21580(8)
O36 O 0.3735(4) 0.2625(3) 0.2215(5)
C23 C 0.4420(6) 0.0507(5) 0.9051(8)
H10 H 0.452217 0.079080 0.848120
O39 O 0.3382(6) 0.2214(4) 0.9990(5)
O1 O 0.2458(4) 0.9118(4) 0.5416(5)
N1 N 0.3895(6) 0.8873(5) 0.1919(7)
Zn2 Zn 0.22005(5) 0.84078(5) 0.64761(8)
C2 C 0.2275(5) 0.8957(5) 0.1798(7)
Zn3 Zn 0.36296(5) 0.91494(5) 0.78420(8)
S1 S 0.3704(2) 0.83663(14) 0.2873(2)
O2 O 0.2625(3) 0.8890(3) 0.7785(5)
H2 H 0.269359 0.928746 0.776295
O4 O 0.3655(4) 0.8423(3) 0.6969(6)
O5 O 0.2214(4) 0.8832(4) 0.0010(5)
O7 O 0.2550(4) 0.7752(4) 0.6495(7)
C3 C 0.3142(5) 0.7855(5) 0.6659(7)
O9 O 0.1971(5) 0.8097(4) 0.4710(6)
N5 N 0.3994(5) 0.9844(4) 0.6613(6)
N6 N 0.3870(6) 0.8905(5) 0.3822(7)
C4 C 0.2235(5) 0.8731(5) 0.4620(8)
C5 C 0.4061(5) 0.9598(5) 0.0024(7)
H3 H 0.387622 0.914460 0.025364
C8 C 0.3898(4) 0.7326(4) 0.6554(7)
H5 H 0.428140 0.777152 0.655622
C10 C 0.2346(5) 0.9055(5) 0.3632(7)
C11 C 0.2668(5) 0.9786(5) 0.3519(7)
C12 C 0.4116(5) 0.9693(5) 0.5705(8)
H8 H 0.415077 0.930257 0.556327
C14 C 0.2077(7) 0.8509(6) 0.0843(8)
C15 C 0.2174(6) 0.8665(5) 0.2759(8)
H9 H 0.198161 0.818747 0.281460
C18 C 0.4094(5) 0.9522(5) 0.3412(8)
O11 O 0.1785(7) 0.7874(5) 0.0936(8)
C19 C 0.4127(5) 0.9536(5) 0.2311(8)
C22 C 0.3245(5) 0.7233(4) 0.6552(7)
C24 C 0.2597(5) 0.9666(5) 0.1701(7)
H11 H 0.268859 0.986854 0.105717
O16 O 0.1577(3) 0.5232(5) 0.6969(6)
O17 O 0.2248(4) 0.4798(6) 0.6495(7)
C34 C 0.2145(5) 0.5287(7) 0.6659(7)
C35 C 0.2674(4) 0.6572(6) 0.6554(7)
H17 H 0.222848 0.650988 0.655622
C36 C 0.2767(4) 0.6012(6) 0.6552(7)
O18 O 0.4768(5) 0.6345(4) 0.6969(6)
O19 O 0.5202(6) 0.7450(4) 0.6495(7)
C37 C 0.4713(7) 0.6858(5) 0.6659(7)
C38 C 0.3428(6) 0.6102(4) 0.6554(7)
H18 H 0.349012 0.571860 0.655622
C39 C 0.3988(6) 0.6755(5) 0.6552(7)
O20 O 0.0882(4) 0.3340(6) 0.5416(5)
N7 N 0.1127(5) 0.5022(8) 0.1919(7)
Zn5 Zn 0.15922(5) 0.37927(7) 0.64761(8)
C40 C 0.1043(5) 0.3318(7) 0.1798(7)
Zn6 Zn 0.08506(5) 0.44802(7) 0.78420(8)
S2 S 0.16337(14) 0.53377(24) 0.2873(2)
O21 O 0.1110(3) 0.3735(4) 0.7785(5)
H19 H 0.071254 0.340613 0.776295
O23 O 0.1168(4) 0.3382(6) 0.0010(5)
O25 O 0.1903(4) 0.3874(6) 0.4710(6)
N11 N 0.0156(4) 0.4150(6) 0.6613(6)
N12 N 0.1095(5) 0.4965(8) 0.3822(7)
C41 C 0.1269(5) 0.3504(7) 0.4620(8)
C42 C 0.0402(5) 0.4463(7) 0.0024(7)
H20 H 0.085540 0.473162 0.025364
C46 C 0.0945(5) 0.3291(7) 0.3632(7)
C47 C 0.0214(5) 0.2882(7) 0.3519(7)
C48 C 0.0307(5) 0.4423(7) 0.5705(8)
H24 H 0.069743 0.484820 0.556327
C50 C 0.1491(6) 0.3568(9) 0.0843(8)
C51 C 0.1335(5) 0.3509(8) 0.2759(8)
H25 H 0.181253 0.379414 0.281460
C53 C 0.0478(5) 0.4572(7) 0.3412(8)
O26 O 0.2126(5) 0.3911(9) 0.0936(8)
C54 C 0.0464(5) 0.4591(7) 0.2311(8)
C57 C 0.0334(5) 0.2931(7) 0.1701(7)
H27 H 0.013146 0.282005 0.105717
O27 O 0.6660(6) 0.7542(4) 0.5416(5)
N13 N 0.4978(8) 0.6105(6) 0.1919(7)
Zn8 Zn 0.62073(7) 0.77995(5) 0.64761(8)
C61 C 0.6682(7) 0.7725(5) 0.1798(7)
Zn9 Zn 0.55198(7) 0.63704(5) 0.78420(8)
S3 S 0.46623(24) 0.6296(2) 0.2873(2)
O28 O 0.6265(4) 0.7375(3) 0.7785(5)
H31 H 0.659387 0.730641 0.776295
O29 O 0.7803(5) 0.6701(4) 0.1589(5)
O30 O 0.6618(6) 0.7786(4) 0.0010(5)
O31 O 0.7882(5) 0.6683(4) 0.3267(5)
N15 N 0.5830(6) 0.5687(4) 0.0630(6)
O32 O 0.6126(6) 0.8029(5) 0.4710(6)
N16 N 0.5971(6) 0.5814(5) 0.4992(7)
N17 N 0.5850(6) 0.6006(5) 0.6613(6)
N18 N 0.5035(8) 0.6130(6) 0.3822(7)
C62 C 0.6496(7) 0.7765(5) 0.4620(8)
C63 C 0.5537(7) 0.5939(5) 0.0024(7)
H32 H 0.526838 0.612378 0.025364
C64 C 0.5876(7) 0.5716(5) 0.3922(7)
C65 C 0.6175(7) 0.5427(5) 0.2284(7)
H33 H 0.640419 0.523722 0.193506
C66 C 0.6208(7) 0.5460(5) 0.3371(7)
H34 H 0.646732 0.529978 0.371056
C67 C 0.6709(7) 0.7654(5) 0.3632(7)
C68 C 0.7118(7) 0.7332(5) 0.3519(7)
H35 H 0.726629 0.720247 0.409775
C69 C 0.5577(7) 0.5884(5) 0.5705(8)
H36 H 0.515180 0.584923 0.556327
C70 C 0.5813(7) 0.5670(5) 0.1743(7)
C71 C 0.6432(9) 0.7923(7) 0.0843(8)
C72 C 0.6491(8) 0.7826(6) 0.2759(8)
H37 H 0.620586 0.801839 0.281460
C73 C 0.7698(7) 0.6836(5) 0.2458(7)
C74 C 0.5428(7) 0.5906(5) 0.3412(8)
O33 O 0.6089(9) 0.8215(7) 0.0936(8)
C75 C 0.5409(7) 0.5873(5) 0.2311(8)
C76 C 0.7296(7) 0.7210(5) 0.2584(7)
C78 C 0.7069(7) 0.7403(5) 0.1701(7)
H39 H 0.717995 0.731141 0.105717
C79 C 0.6563(9) 0.5919(7) 0.5493(9)
H40 H 0.693849 0.590627 0.520622
C80 C 0.6172(9) 0.5448(7) 0.0056(9)
H41 H 0.641561 0.523726 0.029086
C81 C 0.6487(9) 0.6042(7) 0.6473(9)
H42 H 0.681233 0.613669 0.698457
Zn13 Zn 0.61592(5) 0.79370(5) 0.88934(7)
Zn15 Zn 0.20630(5) 0.82222(7) 0.88934(7)
Zn17 Zn 0.17778(7) 0.38408(5) 0.88934(7)
Zn19 Zn 0.84078(5) 0.62073(7) 0.35239(8)
N19 N 0.4101(4) 0.9773(4) 0.9046(6)
N20 N 0.0227(4) 0.4328(6) 0.9046(6)
N21 N 0.5672(6) 0.5899(4) 0.9046(6)
O35 O 0.8890(3) 0.6265(4) 0.2215(5)
O40 O 0.6683(4) 0.8801(3) 0.6733(5)
O41 O 0.1199(3) 0.7882(5) 0.6733(5)
O42 O 0.2118(5) 0.3317(4) 0.6733(5)
O45 O 0.4988(4) 0.6697(4) 0.9063(6)
O46 O 0.3303(4) 0.8291(6) 0.9063(6)
O47 O 0.1709(6) 0.5012(4) 0.9063(6)
C77 C 0.6087(8) 0.5580(6) 0.9051(8)
H38 H 0.626863 0.547783 0.848120
O38 O 0.8832(4) 0.6618(6) 0.9990(5)
O22 O 0.8898(3) 0.2197(5) 0.1589(5)
O24 O 0.8801(3) 0.2118(5) 0.3267(5)
N9 N 0.9857(4) 0.4170(6) 0.0630(6)
N10 N 0.9843(4) 0.4029(6) 0.4992(7)
C43 C 0.9840(5) 0.4124(7) 0.3922(7)
C44 C 0.9252(5) 0.3825(7) 0.2284(7)
H21 H 0.883303 0.359581 0.193506
C45 C 0.9252(5) 0.3792(7) 0.3371(7)
H22 H 0.883246 0.353268 0.371056
H23 H 0.993618 0.273371 0.409775
C49 C 0.9857(5) 0.4187(7) 0.1743(7)
C52 C 0.9138(5) 0.2302(7) 0.2458(7)
C55 C 0.9914(5) 0.2704(7) 0.2584(7)
C58 C 0.9356(6) 0.3437(9) 0.5493(9)
H28 H 0.896778 0.306151 0.520622
C59 C 0.9276(6) 0.3828(9) 0.0056(9)
H29 H 0.882165 0.358439 0.029086
C60 C 0.9555(6) 0.3513(9) 0.6473(9)
H30 H 0.932436 0.318767 0.698457
Zn18 Zn 0.77995(5) 0.15922(5) 0.35239(8)
O34 O 0.7375(3) 0.1110(3) 0.2215(5)
C56 C 0.9493(5) 0.3913(8) 0.9051(8)
H26 H 0.920920 0.373137 0.848120
O37 O 0.7786(4) 0.1168(4) 0.9990(5)
C56_2 C 0.0507(5) 0.6087(8) 0.0949(8)
H26_2 H 0.079080 0.626863 0.151880
O22_2 O 0.1102(3) 0.7803(5) 0.8411(5)
N9_2 N 0.0143(4) 0.5830(6) 0.9370(6)
N10_2 N 0.0157(4) 0.5971(6) 0.5008(7)
C43_2 C 0.0160(5) 0.5876(7) 0.6078(7)
C44_2 C 0.0748(5) 0.6175(7) 0.7716(7)
H21_2 H 0.116697 0.640419 0.806494
C45_2 C 0.0748(5) 0.6208(7) 0.6629(7)
H22_2 H 0.116754 0.646732 0.628944
H23_2 H 0.006382 0.726629 0.590225
C49_2 C 0.0143(5) 0.5813(7) 0.8257(7)
C52_2 C 0.0862(5) 0.7698(7) 0.7542(7)
C55_2 C 0.0086(5) 0.7296(7) 0.7416(7)
C58_2 C 0.0644(6) 0.6563(9) 0.4507(9)
H28_2 H 0.103222 0.693849 0.479378
C59_2 C 0.0724(6) 0.6172(9) 0.9944(9)
H29_2 H 0.117835 0.641561 0.970914
C60_2 C 0.0445(6) 0.6487(9) 0.3527(9)
H30_2 H 0.067564 0.681233 0.301543
O43 O 0.2228(3) 0.7433(4) 0.8932(6)
N2 N 0.5899(4) 0.0227(4) 0.0954(6)
N8 N 0.9773(4) 0.5672(6) 0.0954(6)
N14 N 0.4328(6) 0.4101(4) 0.0954(6)
C77_2 C 0.3913(8) 0.4420(6) 0.0949(8)
H38_2 H 0.373137 0.452217 0.151880
O1_2 O 0.7542(4) 0.0882(4) 0.4584(5)
N1_2 N 0.6105(6) 0.1127(5) 0.8081(7)
C2_2 C 0.7725(5) 0.1043(5) 0.8202(7)
S1_2 S 0.6296(2) 0.16337(14) 0.7127(2)
H2_2 H 0.730641 0.071254 0.223705
O4_2 O 0.6345(4) 0.1577(3) 0.3031(6)
O7_2 O 0.7450(4) 0.2248(4) 0.3505(7)
C3_2 C 0.6858(5) 0.2145(5) 0.3341(7)
O9_2 O 0.8029(5) 0.1903(4) 0.5290(6)
N5_2 N 0.6006(5) 0.0156(4) 0.3387(6)
N6_2 N 0.6130(6) 0.1095(5) 0.6178(7)
C4_2 C 0.7765(5) 0.1269(5) 0.5380(8)
C5_2 C 0.5939(5) 0.0402(5) 0.9976(7)
H3_2 H 0.612378 0.085540 0.974636
C8_2 C 0.6102(4) 0.2674(4) 0.3446(7)
H5_2 H 0.571860 0.222848 0.344378
C10_2 C 0.7654(5) 0.0945(5) 0.6368(7)
C11_2 C 0.7332(5) 0.0214(5) 0.6481(7)
C12_2 C 0.5884(5) 0.0307(5) 0.4295(8)
H8_2 H 0.584923 0.069743 0.443673
C14_2 C 0.7923(7) 0.1491(6) 0.9157(8)
C15_2 C 0.7826(6) 0.1335(5) 0.7241(8)
H9_2 H 0.801839 0.181253 0.718540
C18_2 C 0.5906(5) 0.0478(5) 0.6588(8)
O11_2 O 0.8215(7) 0.2126(5) 0.9064(8)
C19_2 C 0.5873(5) 0.0464(5) 0.7689(8)
C22_2 C 0.6755(5) 0.2767(4) 0.3448(7)
C24_2 C 0.7403(5) 0.0334(5) 0.8299(7)
H11_2 H 0.731141 0.013146 0.894283
O16_2 O 0.8423(3) 0.4768(5) 0.3031(6)
O17_2 O 0.7752(4) 0.5202(6) 0.3505(7)
C34_2 C 0.7855(5) 0.4713(7) 0.3341(7)
C35_2 C 0.7326(4) 0.3428(6) 0.3446(7)
H17_2 H 0.777152 0.349012 0.344378
C36_2 C 0.7233(4) 0.3988(6) 0.3448(7)
O18_2 O 0.5232(5) 0.3655(4) 0.3031(6)
O19_2 O 0.4798(6) 0.2550(4) 0.3505(7)
C37_2 C 0.5287(7) 0.3142(5) 0.3341(7)
C38_2 C 0.6572(6) 0.3898(4) 0.3446(7)
H18_2 H 0.650988 0.428140 0.344378
C39_2 C 0.6012(6) 0.3245(5) 0.3448(7)
O20_2 O 0.9118(4) 0.6660(6) 0.4584(5)
N7_2 N 0.8873(5) 0.4978(8) 0.8081(7)
C40_2 C 0.8957(5) 0.6682(7) 0.8202(7)
S2_2 S 0.83663(14) 0.46623(24) 0.7127(2)
H19_2 H 0.928746 0.659387 0.223705
O25_2 O 0.8097(4) 0.6126(6) 0.5290(6)
N11_2 N 0.9844(4) 0.5850(6) 0.3387(6)
N12_2 N 0.8905(5) 0.5035(8) 0.6178(7)
C41_2 C 0.8731(5) 0.6496(7) 0.5380(8)
C42_2 C 0.9598(5) 0.5537(7) 0.9976(7)
H20_2 H 0.914460 0.526838 0.974636
C46_2 C 0.9055(5) 0.6709(7) 0.6368(7)
C47_2 C 0.9786(5) 0.7118(7) 0.6481(7)
C48_2 C 0.9693(5) 0.5577(7) 0.4295(8)
H24_2 H 0.930257 0.515180 0.443673
C50_2 C 0.8509(6) 0.6432(9) 0.9157(8)
C51_2 C 0.8665(5) 0.6491(8) 0.7241(8)
H25_2 H 0.818747 0.620586 0.718540
C53_2 C 0.9522(5) 0.5428(7) 0.6588(8)
O26_2 O 0.7874(5) 0.6089(9) 0.9064(8)
C54_2 C 0.9536(5) 0.5409(7) 0.7689(8)
C57_2 C 0.9666(5) 0.7069(7) 0.8299(7)
H27_2 H 0.986854 0.717995 0.894283
O27_2 O 0.3340(6) 0.2458(4) 0.4584(5)
N13_2 N 0.5022(8) 0.3895(6) 0.8081(7)
C61_2 C 0.3318(7) 0.2275(5) 0.8202(7)
S3_2 S 0.53377(24) 0.3704(2) 0.7127(2)
H31_2 H 0.340613 0.269359 0.223705
O29_2 O 0.2197(5) 0.3299(4) 0.8411(5)
N15_2 N 0.4170(6) 0.4313(4) 0.9370(6)
O32_2 O 0.3874(6) 0.1971(5) 0.5290(6)
N16_2 N 0.4029(6) 0.4186(5) 0.5008(7)
N17_2 N 0.4150(6) 0.3994(5) 0.3387(6)
N18_2 N 0.4965(8) 0.3870(6) 0.6178(7)
C62_2 C 0.3504(7) 0.2235(5) 0.5380(8)
C63_2 C 0.4463(7) 0.4061(5) 0.9976(7)
H32_2 H 0.473162 0.387622 0.974636
C64_2 C 0.4124(7) 0.4284(5) 0.6078(7)
C65_2 C 0.3825(7) 0.4573(5) 0.7716(7)
H33_2 H 0.359581 0.476278 0.806494
C66_2 C 0.3792(7) 0.4540(5) 0.6629(7)
H34_2 H 0.353268 0.470022 0.628944
C67_2 C 0.3291(7) 0.2346(5) 0.6368(7)
C68_2 C 0.2882(7) 0.2668(5) 0.6481(7)
H35_2 H 0.273371 0.279753 0.590225
C69_2 C 0.4423(7) 0.4116(5) 0.4295(8)
H36_2 H 0.484820 0.415077 0.443673
C70_2 C 0.4187(7) 0.4330(5) 0.8257(7)
C71_2 C 0.3568(9) 0.2077(7) 0.9157(8)
C72_2 C 0.3509(8) 0.2174(6) 0.7241(8)
H37_2 H 0.379414 0.198161 0.718540
C73_2 C 0.2302(7) 0.3164(5) 0.7542(7)
C74_2 C 0.4572(7) 0.4094(5) 0.6588(8)
O33_2 O 0.3911(9) 0.1785(7) 0.9064(8)
C75_2 C 0.4591(7) 0.4127(5) 0.7689(8)
C76_2 C 0.2704(7) 0.2790(5) 0.7416(7)
C78_2 C 0.2931(7) 0.2597(5) 0.8299(7)
H39_2 H 0.282005 0.268859 0.894283
C79_2 C 0.3437(9) 0.4081(7) 0.4507(9)
H40_2 H 0.306151 0.409373 0.479378
C80_2 C 0.3828(9) 0.4552(7) 0.9944(9)
H41_2 H 0.358439 0.476274 0.970914
C81_2 C 0.3513(9) 0.3958(7) 0.3527(9)
H42_2 H 0.318767 0.386331 0.301543
O44 O 0.2567(4) 0.4795(3) 0.8932(6)
C23_2 C 0.5580(6) 0.9493(5) 0.0949(8)
H10_2 H 0.547783 0.920920 0.151880
C1_2 C 0.3559(5) 0.6187(5) 0.9175(8)
H1_2 H 0.370817 0.586483 0.915517
O3_2 O 0.6701(4) 0.8898(3) 0.8411(5)
O8_2 O 0.5205(3) 0.7772(3) 0.8932(6)
N3_2 N 0.5687(4) 0.9857(4) 0.9370(6)
N4_2 N 0.5814(5) 0.9843(4) 0.5008(7)
C6_2 C 0.5716(5) 0.9840(5) 0.6078(7)
C7_2 C 0.5427(5) 0.9252(5) 0.7716(7)
H4_2 H 0.523722 0.883303 0.806494
C9_2 C 0.5460(5) 0.9252(5) 0.6629(7)
H6_2 H 0.529978 0.883246 0.628944
H7_2 H 0.720247 0.993618 0.590225
C13_2 C 0.5670(5) 0.9857(5) 0.8257(7)
C16_2 C 0.6836(5) 0.9138(5) 0.7542(7)
C17_2 C 0.4784(5) 0.7119(5) 0.9057(7)
C20_2 C 0.4041(4) 0.6889(5) 0.9190(7)
C21_2 C 0.7210(5) 0.9914(5) 0.7416(7)
C25_2 C 0.5919(7) 0.9356(6) 0.4507(9)
H12_2 H 0.590627 0.896778 0.479378
C26_2 C 0.5448(7) 0.9276(6) 0.9944(9)
H13_2 H 0.523726 0.882165 0.970914
C27_2 C 0.6042(7) 0.9555(6) 0.3527(9)
H14_2 H 0.613669 0.932436 0.301543
C28_2 C 0.3813(5) 0.7372(7) 0.9175(8)
H15_2 H 0.413517 0.784334 0.915517
C29_2 C 0.2881(5) 0.7665(7) 0.9057(7)
C30_2 C 0.3111(5) 0.7152(6) 0.9190(7)
C31_2 C 0.2628(7) 0.6441(5) 0.9175(8)
H16_2 H 0.215666 0.629183 0.915517
C32_2 C 0.2335(7) 0.5216(5) 0.9057(7)
C33_2 C 0.2848(6) 0.5959(4) 0.9190(7)
loop_
_geom_bond_atom_site_label_1
_geom_bond_atom_site_label_2
_geom_bond_site_symmetry_1
_geom_bond_site_symmetry_2
Zn1 O3 1_555 1_555
C1 H1 1_555 1_555
O3 C16 1_555 1_555
O6 C16 1_555 1_555
O8 Zn1 1_555 1_555
O10 C17 1_555 1_555
N4 C6 1_555 1_555
C6 C9 1_555 1_555
C7 H4 1_555 1_555
C9 C7 1_555 1_555
H6 C9 1_555 1_555
C13 N3 1_555 1_555
C16 C21 1_555 1_555
C17 O8 1_555 1_555
C20 C1 1_555 1_555
C25 N4 1_555 1_555
H12 C25 1_555 1_555
C26 N3 1_555 1_555
H13 C26 1_555 1_555
H14 C27 1_555 1_555
C28 C20 1_555 1_555
H15 C28 1_555 1_555
O12 C29 1_555 1_555
O13 C29 1_555 1_555
C29 C30 1_555 1_555
C30 C28 1_555 1_555
C31 C30 1_555 1_555
H16 C31 1_555 1_555
O14 C32 1_555 1_555
O15 C32 1_555 1_555
C32 C33 1_555 1_555
C33 C1 1_555 1_555
Zn10 O12 1_555 1_555
Zn11 O14 1_555 1_555
Zn20 O6 1_555 1_555
Zn24 O13 1_555 1_555
Zn25 O15 1_555 1_555
Zn26 O10 1_555 1_555
O36 Zn1 1_555 1_555
C7 C13 1_555 1_555
C17 C20 1_555 1_555
C25 C27 1_555 1_555
C31 C33 1_555 1_555
Zn20 O36 1_555 1_555
Zn26 O36 1_555 1_555
H10 C23 1_555 1_555
O1 Zn2 1_555 1_555
N1 S1 1_555 1_555
Zn2 O2 1_555 1_555
C2 C14 1_555 1_555
Zn3 O2 1_555 1_555
S1 N6 1_555 1_555
O2 H2 1_555 1_555
O4 Zn3 1_555 1_555
O5 C14 1_555 1_555
O7 Zn2 1_555 1_555
C3 O4 1_555 1_555
O9 Zn2 1_555 1_555
N5 Zn3 1_555 1_555
N6 C18 1_555 1_555
C4 O1 1_555 1_555
C5 H3 1_555 1_555
C8 H5 1_555 1_555
C10 C4 1_555 1_555
C11 C10 1_555 1_555
H8 C12 1_555 1_555
C14 O11 1_555 1_555
C15 C2 1_555 1_555
H9 C15 1_555 1_555
C19 N1 1_555 1_555
C22 C3 1_555 1_555
C24 C2 1_555 1_555
H11 C24 1_555 1_555
O16 C34 1_555 1_555
O17 C34 1_555 1_555
C34 C36 1_555 1_555
C35 C22 1_555 1_555
H17 C35 1_555 1_555
C36 C35 1_555 1_555
O18 C37 1_555 1_555
O19 C37 1_555 1_555
C37 C39 1_555 1_555
C38 C36 1_555 1_555
H18 C38 1_555 1_555
C39 C8 1_555 1_555
O20 Zn5 1_555 1_555
N7 S2 1_555 1_555
Zn5 O17 1_555 1_555
C40 C50 1_555 1_555
Zn6 O16 1_555 1_555
S2 N12 1_555 1_555
O21 Zn5 1_555 1_555
H19 O21 1_555 1_555
O23 C50 1_555 1_555
O25 Zn5 1_555 1_555
N11 Zn6 1_555 1_555
N12 C53 1_555 1_555
C41 O20 1_555 1_555
C42 H20 1_555 1_555
C46 C41 1_555 1_555
C47 C46 1_555 1_555
H24 C48 1_555 1_555
C50 O26 1_555 1_555
C51 C40 1_555 1_555
H25 C51 1_555 1_555
C54 N7 1_555 1_555
C57 C40 1_555 1_555
H27 C57 1_555 1_555
Zn11 O29 1_555 1_555
O27 Zn8 1_555 1_555
N13 S3 1_555 1_555
Zn8 O19 1_555 1_555
C61 C71 1_555 1_555
Zn9 O18 1_555 1_555
S3 N18 1_555 1_555
O28 Zn8 1_555 1_555
H31 O28 1_555 1_555
O29 C73 1_555 1_555
O30 C71 1_555 1_555
O31 C73 1_555 1_555
N15 C63 1_555 1_555
O32 Zn8 1_555 1_555
N16 C64 1_555 1_555
N17 Zn9 1_555 1_555
N18 C74 1_555 1_555
C62 O27 1_555 1_555
C63 H32 1_555 1_555
C64 C66 1_555 1_555
C65 H33 1_555 1_555
C66 C65 1_555 1_555
H34 C66 1_555 1_555
C67 C62 1_555 1_555
C68 C67 1_555 1_555
H35 C68 1_555 1_555
C69 N16 1_555 1_555
H36 C69 1_555 1_555
C70 N15 1_555 1_555
C71 O33 1_555 1_555
C72 C61 1_555 1_555
H37 C72 1_555 1_555
C73 C76 1_555 1_555
C74 C64 1_555 1_555
C75 N13 1_555 1_555
C76 C68 1_555 1_555
C78 C61 1_555 1_555
H39 C78 1_555 1_555
C79 N16 1_555 1_555
H40 C79 1_555 1_555
C80 N15 1_555 1_555
H41 C80 1_555 1_555
C81 N17 1_555 1_555
H42 C81 1_555 1_555
Zn13 O28 1_555 1_555
Zn15 O2 1_555 1_555
Zn17 O21 1_555 1_555
Zn19 O31 1_555 1_555
N19 Zn3 1_555 1_555
N20 Zn6 1_555 1_555
N21 Zn9 1_555 1_555
O35 Zn11 1_555 1_555
O40 Zn8 1_555 1_555
O41 Zn2 1_555 1_555
O42 Zn5 1_555 1_555
O45 Zn9 1_555 1_555
O46 Zn3 1_555 1_555
O47 Zn6 1_555 1_555
O7 C3 1_555 1_555
O9 C4 1_555 1_555
N5 C12 1_555 1_555
C8 C22 1_555 1_555
C10 C15 1_555 1_555
C18 C19 1_555 1_555
C38 C39 1_555 1_555
Zn6 O21 1_555 1_555
O25 C41 1_555 1_555
N11 C48 1_555 1_555
C46 C51 1_555 1_555
C53 C54 1_555 1_555
Zn9 O28 1_555 1_555
O32 C62 1_555 1_555
N17 C69 1_555 1_555
C65 C70 1_555 1_555
C67 C72 1_555 1_555
C70 C75 1_555 1_555
C74 C75 1_555 1_555
C76 C78 1_555 1_555
C79 C81 1_555 1_555
Zn19 O35 1_555 1_555
C77 N21 1_555 1_555
H38 C77 1_555 1_555
Zn10 O22 1_555 1_555
O22 C52 1_555 1_555
O24 C52 1_555 1_555
N10 C43 1_555 1_555
C43 C45 1_555 1_555
C44 H21 1_555 1_555
C45 C44 1_555 1_555
H22 C45 1_555 1_555
C49 N9 1_555 1_555
C52 C55 1_555 1_555
C58 N10 1_555 1_555
H28 C58 1_555 1_555
C59 N9 1_555 1_555
H29 C59 1_555 1_555
H30 C60 1_555 1_555
Zn18 O24 1_555 1_555
O34 Zn10 1_555 1_555
C44 C49 1_555 1_555
C58 C60 1_555 1_555
Zn18 O34 1_555 1_555
H26 C56 1_555 1_555
Zn24 O34 1_555 1_555
Zn25 O35 1_555 1_555
H26_2 C56_2 1_555 1_555
Zn15 O22_2 1_555 1_555
O22_2 C52_2 1_555 1_555
O41 C52_2 1_555 1_555
N10_2 C43_2 1_555 1_555
C43_2 C45_2 1_555 1_555
C44_2 H21_2 1_555 1_555
C45_2 C44_2 1_555 1_555
H22_2 C45_2 1_555 1_555
C49_2 N9_2 1_555 1_555
C52_2 C55_2 1_555 1_555
C58_2 N10_2 1_555 1_555
H28_2 C58_2 1_555 1_555
C59_2 N9_2 1_555 1_555
H29_2 C59_2 1_555 1_555
H30_2 C60_2 1_555 1_555
O43 Zn15 1_555 1_555
C44_2 C49_2 1_555 1_555
C58_2 C60_2 1_555 1_555
C77_2 N14 1_555 1_555
H38_2 C77_2 1_555 1_555
Zn24 N2 1_555 1_555
Zn25 N8 1_555 1_555
Zn26 N14 1_555 1_555
O1_2 Zn18 1_555 1_555
N1_2 S1_2 1_555 1_555
C2_2 C14_2 1_555 1_555
S1_2 N6_2 1_555 1_555
O34 H2_2 1_555 1_555
O4_2 Zn24 1_555 1_555
O37 C14_2 1_555 1_555
O7_2 Zn18 1_555 1_555
C3_2 O4_2 1_555 1_555
O9_2 Zn18 1_555 1_555
N5_2 Zn24 1_555 1_555
N6_2 C18_2 1_555 1_555
C4_2 O1_2 1_555 1_555
C5_2 H3_2 1_555 1_555
C8_2 H5_2 1_555 1_555
C10_2 C4_2 1_555 1_555
C11_2 C10_2 1_555 1_555
H8_2 C12_2 1_555 1_555
C14_2 O11_2 1_555 1_555
C15_2 C2_2 1_555 1_555
H9_2 C15_2 1_555 1_555
C19_2 N1_2 1_555 1_555
C22_2 C3_2 1_555 1_555
C24_2 C2_2 1_555 1_555
H11_2 C24_2 1_555 1_555
O16_2 C34_2 1_555 1_555
O17_2 C34_2 1_555 1_555
C34_2 C36_2 1_555 1_555
C35_2 C22_2 1_555 1_555
H17_2 C35_2 1_555 1_555
C36_2 C35_2 1_555 1_555
O18_2 C37_2 1_555 1_555
O19_2 C37_2 1_555 1_555
C37_2 C39_2 1_555 1_555
C38_2 C36_2 1_555 1_555
H18_2 C38_2 1_555 1_555
C39_2 C8_2 1_555 1_555
O20_2 Zn19 1_555 1_555
N7_2 S2_2 1_555 1_555
Zn19 O17_2 1_555 1_555
C40_2 C50_2 1_555 1_555
Zn25 O16_2 1_555 1_555
S2_2 N12_2 1_555 1_555
H19_2 O35 1_555 1_555
O38 C50_2 1_555 1_555
O25_2 Zn19 1_555 1_555
N11_2 Zn25 1_555 1_555
N12_2 C53_2 1_555 1_555
C41_2 O20_2 1_555 1_555
C42_2 H20_2 1_555 1_555
C46_2 C41_2 1_555 1_555
C47_2 C46_2 1_555 1_555
H24_2 C48_2 1_555 1_555
C50_2 O26_2 1_555 1_555
C51_2 C40_2 1_555 1_555
H25_2 C51_2 1_555 1_555
C54_2 N7_2 1_555 1_555
C57_2 C40_2 1_555 1_555
H27_2 C57_2 1_555 1_555
Zn17 O29_2 1_555 1_555
O27_2 Zn20 1_555 1_555
N13_2 S3_2 1_555 1_555
Zn20 O19_2 1_555 1_555
C61_2 C71_2 1_555 1_555
Zn26 O18_2 1_555 1_555
S3_2 N18_2 1_555 1_555
H31_2 O36 1_555 1_555
O29_2 C73_2 1_555 1_555
O39 C71_2 1_555 1_555
O42 C73_2 1_555 1_555
N15_2 C63_2 1_555 1_555
O32_2 Zn20 1_555 1_555
N16_2 C64_2 1_555 1_555
N17_2 Zn26 1_555 1_555
N18_2 C74_2 1_555 1_555
C62_2 O27_2 1_555 1_555
C63_2 H32_2 1_555 1_555
C64_2 C66_2 1_555 1_555
C65_2 H33_2 1_555 1_555
C66_2 C65_2 1_555 1_555
H34_2 C66_2 1_555 1_555
C67_2 C62_2 1_555 1_555
C68_2 C67_2 1_555 1_555
H35_2 C68_2 1_555 1_555
C69_2 N16_2 1_555 1_555
H36_2 C69_2 1_555 1_555
C70_2 N15_2 1_555 1_555
C71_2 O33_2 1_555 1_555
C72_2 C61_2 1_555 1_555
H37_2 C72_2 1_555 1_555
C73_2 C76_2 1_555 1_555
C74_2 C64_2 1_555 1_555
C75_2 N13_2 1_555 1_555
C76_2 C68_2 1_555 1_555
C78_2 C61_2 1_555 1_555
H39_2 C78_2 1_555 1_555
C79_2 N16_2 1_555 1_555
H40_2 C79_2 1_555 1_555
C80_2 N15_2 1_555 1_555
H41_2 C80_2 1_555 1_555
C81_2 N17_2 1_555 1_555
H42_2 C81_2 1_555 1_555
O44 Zn17 1_555 1_555
O7_2 C3_2 1_555 1_555
O9_2 C4_2 1_555 1_555
N5_2 C12_2 1_555 1_555
C8_2 C22_2 1_555 1_555
C10_2 C15_2 1_555 1_555
C18_2 C19_2 1_555 1_555
C38_2 C39_2 1_555 1_555
O25_2 C41_2 1_555 1_555
N11_2 C48_2 1_555 1_555
C46_2 C51_2 1_555 1_555
C53_2 C54_2 1_555 1_555
O32_2 C62_2 1_555 1_555
N17_2 C69_2 1_555 1_555
C65_2 C70_2 1_555 1_555
C67_2 C72_2 1_555 1_555
C70_2 C75_2 1_555 1_555
C74_2 C75_2 1_555 1_555
C76_2 C78_2 1_555 1_555
C79_2 C81_2 1_555 1_555
H10_2 C23_2 1_555 1_555
Zn13 O3_2 1_555 1_555
C1_2 H1_2 1_555 1_555
O3_2 C16_2 1_555 1_555
O40 C16_2 1_555 1_555
O8_2 Zn13 1_555 1_555
O45 C17_2 1_555 1_555
N4_2 C6_2 1_555 1_555
C6_2 C9_2 1_555 1_555
C7_2 H4_2 1_555 1_555
C9_2 C7_2 1_555 1_555
H6_2 C9_2 1_555 1_555
C13_2 N3_2 1_555 1_555
C16_2 C21_2 1_555 1_555
C17_2 O8_2 1_555 1_555
C20_2 C1_2 1_555 1_555
C25_2 N4_2 1_555 1_555
H12_2 C25_2 1_555 1_555
C26_2 N3_2 1_555 1_555
H13_2 C26_2 1_555 1_555
H14_2 C27_2 1_555 1_555
C28_2 C20_2 1_555 1_555
H15_2 C28_2 1_555 1_555
O43 C29_2 1_555 1_555
O46 C29_2 1_555 1_555
C29_2 C30_2 1_555 1_555
C30_2 C28_2 1_555 1_555
C31_2 C30_2 1_555 1_555
H16_2 C31_2 1_555 1_555
O44 C32_2 1_555 1_555
O47 C32_2 1_555 1_555
C32_2 C33_2 1_555 1_555
C33_2 C1_2 1_555 1_555
C7_2 C13_2 1_555 1_555
C17_2 C20_2 1_555 1_555
C25_2 C27_2 1_555 1_555
C31_2 C33_2 1_555 1_555

#END
