
###############################################################################
#
# This file contains modified crystal structure data generated from the
# MOF subset of the Cambridge Structural Database (CSD) v543 
# hosted by the Cambridge Crystallographic Data Centre (CCDC).
#
# This work is licensed under the Creative Commons
# Attribution-NonCommercial-ShareAlike 4.0 International License.
# To view a copy of this license, visit
# http://creativecommons.org/licenses/by-nc-sa/4.0/
# or send a letter to
# Creative Commons, PO Box 1866, Mountain View, CA 94042, USA.
#
# CIF created using the CSD Python API on 29 September 2022
# The structure has been converted into the P1 space group
# The structure has a 3D framework
# The original CSD entry ONUCIL is in the cubic crystal system
# The original CSD entry ONUCIL is in a Sohncke space group
# The framework has been calculated to contain at least 10.0% void space
# The void calculation uses a probe of radius 1.32A, grid spacing 0.4
# H atom positions have been added when not included in the experimental data
#
###############################################################################

data_ONUCIL
_chemical_formula_moiety         '(C384 H264 O116 Zn27)n'
_symmetry_cell_setting           triclinic
_symmetry_space_group_name_H-M   'P 1'
_symmetry_Int_Tables_number      1
_space_group_name_Hall           'P 1'
loop_
_symmetry_equiv_pos_site_id
_symmetry_equiv_pos_as_xyz
1 x,y,z
_cell_length_a                   28.8670(1)
_cell_length_b                   28.8670(1)
_cell_length_c                   28.8670(1)
_cell_angle_alpha                90
_cell_angle_beta                 90
_cell_angle_gamma                90
_cell_volume                     24055
loop_
_atom_site_label
_atom_site_type_symbol
_atom_site_fract_x
_atom_site_fract_y
_atom_site_fract_z
O21 O 0.0163(2) 0.0975(2) 0.0806(2)
O22 O 0.01915(17) 0.1500(2) 0.1358(2)
Zn10 Zn 0.08087(4) 0.08087(4) 0.08087(4)
Zn13 Zn 0.08419(4) 0.16318(4) 0.15621(4)
C34 C 0.6321(3) 0.0334(3) 0.0886(3)
H19 H 0.5984 0.0359 0.0855
H20 H 0.6420 0.0486 0.1173
H21 H 0.6410 0.0006 0.0896
C35 C 0.7347(3) 0.0295(3) 0.0784(3)
H22 H 0.7675 0.0343 0.0714
H24 H 0.7283 0.0392 0.1103
C44 C 0.62846(19) 0.0800(4) 0.0142(4)
C45 C 0.6558(2) 0.0571(4) 0.0466(4)
C46 C 0.7038(2) 0.0594(4) 0.0435(3)
C47 C 0.7245(2) 0.0846(4) 0.0081(4)
C49 C 0.8849(3) 0.2620(3) 0.1034(3)
O18 O 0.7853(2) 0.1299(2) 0.0562(2)
O19 O 0.90393(19) 0.27600(19) 0.1386(2)
O20 O 0.85269(19) 0.27905(19) 0.07943(19)
C52 C 0.9983(4) 0.1302(4) 0.1031(4)
C53 C 0.9002(2) 0.21224(17) 0.0848(3)
C54 C 0.8701(2) 0.1859(2) 0.0581(3)
H34 H 0.8418 0.1989 0.0475
C55 C 0.8815(2) 0.1405(2) 0.0467(3)
C56 C 0.9229(2) 0.12144(17) 0.0621(3)
H35 H 0.9307 0.0904 0.0544
C57 C 0.95304(16) 0.1478(2) 0.0889(2)
C58 C 0.9417(2) 0.1932(2) 0.1003(2)
H36 H 0.9623 0.2112 0.1186
C59 C 0.8509(3) 0.1052(4) 0.0212(4)
C64 C 0.8029(3) 0.1075(4) 0.0243(3)
C65 C 0.2380(3) 0.1034(3) 0.1151(3)
O23 O 0.3701(2) 0.0562(2) 0.2147(2)
O24 O 0.22400(19) 0.1386(2) 0.09607(19)
O25 O 0.22095(19) 0.07943(19) 0.14731(19)
C68 C 0.3698(4) 0.1031(4) 0.0017(4)
C69 C 0.28776(17) 0.0848(3) 0.0998(2)
C70 C 0.3141(2) 0.0581(3) 0.1299(2)
H43 H 0.3011 0.0475 0.1582
C71 C 0.3595(2) 0.0467(3) 0.1185(2)
C72 C 0.37856(17) 0.0621(3) 0.0771(2)
H44 H 0.4096 0.0544 0.0693
C73 C 0.3522(2) 0.0889(2) 0.04696(16)
C74 C 0.3068(2) 0.1003(2) 0.0583(2)
H45 H 0.2888 0.1186 0.0377
C75 C 0.3948(4) 0.0212(4) 0.1491(3)
C80 C 0.3925(4) 0.0243(3) 0.1971(3)
C82 C 0.4666(3) 0.0886(3) 0.3679(3)
H46 H 0.4641 0.0855 0.4016
H47 H 0.4514 0.1173 0.3580
H48 H 0.4994 0.0896 0.3590
C83 C 0.4705(3) 0.0784(3) 0.2653(3)
H49 H 0.4657 0.0714 0.2325
H50 H 0.5034 0.0749 0.2729
H51 H 0.4608 0.1103 0.2717
C92 C 0.4200(4) 0.0142(4) 0.37154(19)
C93 C 0.4429(4) 0.0466(4) 0.3442(2)
C94 C 0.4406(4) 0.0435(3) 0.2962(2)
C95 C 0.4154(4) 0.0081(4) 0.2755(2)
Zn11 Zn 0.91581(4) 0.33682(4) 0.15621(4)
Zn16 Zn 0.15621(4) 0.08419(4) 0.16318(4)
Zn19 Zn 0.16318(4) 0.15621(4) 0.08419(4)
Zn24 Zn 0.83682(4) 0.34379(4) 0.08419(4)
H60 H 0.590856 0.0781669 0.0165941
H61 H 0.795422 0.16271 0.0541182
H63 H 0.33729 0.0541182 0.204578
H66 H 0.421833 0.0165941 0.409144
Zn1 Zn 0.41913(4) 0.08087(4) 0.91913(4)
Zn2 Zn 0.33682(4) 0.15621(4) 0.91581(4)
O4 O 0.4194(2) 0.0163(2) 0.9025(2)
O5 O 0.3642(2) 0.01915(17) 0.8500(2)
O6 O 0.38131(14) 0.11869(14) 0.88131(14)
Zn5 Zn 0.34379(4) 0.08419(4) 0.83682(4)
C33 C 0.6151(3) 0.2620(3) 0.8966(3)
O13 O 0.7147(2) 0.1299(2) 0.9438(2)
O14 O 0.59607(19) 0.27600(19) 0.8614(2)
O15 O 0.64731(19) 0.27905(19) 0.92057(19)
O16 O 0.4837(2) 0.0975(2) 0.9194(2)
C36 C 0.5017(4) 0.1302(4) 0.8969(4)
C37 C 0.5998(2) 0.21224(17) 0.9152(3)
C38 C 0.6299(2) 0.1859(2) 0.9419(3)
H25 H 0.6582 0.1989 0.9525
C39 C 0.6185(2) 0.1405(2) 0.9533(3)
C40 C 0.5771(2) 0.12144(17) 0.9379(3)
H26 H 0.5693 0.0904 0.9456
C41 C 0.54696(16) 0.1478(2) 0.9111(2)
C42 C 0.5583(2) 0.1932(2) 0.8997(2)
H27 H 0.5377 0.2112 0.8814
O17 O 0.48085(17) 0.1500(2) 0.8642(2)
C43 C 0.6491(3) 0.1052(4) 0.9788(4)
C48 C 0.6971(3) 0.1075(4) 0.9757(3)
C50 C 0.8679(3) 0.0334(3) 0.9114(3)
H28 H 0.9016 0.0359 0.9145
H29 H 0.8580 0.0486 0.8827
H30 H 0.8590 0.0006 0.9104
C51 C 0.7653(3) 0.0295(3) 0.9216(3)
H31 H 0.7325 0.0343 0.9286
H33 H 0.7717 0.0392 0.8897
C60 C 0.87154(19) 0.0800(4) 0.9858(4)
C61 C 0.8442(2) 0.0571(4) 0.9534(4)
C62 C 0.7962(2) 0.0594(4) 0.9565(3)
C63 C 0.7755(2) 0.0846(4) 0.9919(4)
Zn6 Zn 0.41581(4) 0.16318(4) 0.84379(4)
O26 O 0.4025(2) 0.0806(2) 0.9837(2)
O27 O 0.3500(2) 0.1358(2) 0.98085(17)
Zn15 Zn 0.58419(4) 0.33682(4) 0.84379(4)
Zn17 Zn 0.66318(4) 0.34379(4) 0.91581(4)
O34 O 0.27600(19) 0.1386(2) 0.90393(19)
O35 O 0.3614(2) 0.09607(19) 0.77600(19)
O36 O 0.40393(19) 0.22400(19) 0.8614(2)
O38 O 0.27905(19) 0.07943(19) 0.85269(19)
O39 O 0.42057(19) 0.14731(19) 0.77905(19)
O40 O 0.35269(19) 0.22095(19) 0.92057(19)
H59 H 0.704578 0.16271 0.945882
H62 H 0.909144 0.0781669 0.983406
H5 H 0.5749 0.7729 0.0034
H14 H 0.4251 0.7271 0.0034
H23 H 0.7271 0.9966 0.0749
C66 C 0.4666(3) 0.9114(3) 0.1321(3)
H37 H 0.4641 0.9145 0.0984
H38 H 0.4514 0.8827 0.1420
H39 H 0.4994 0.9104 0.1410
C67 C 0.4705(3) 0.9216(3) 0.2347(3)
H40 H 0.4657 0.9286 0.2675
H41 H 0.5034 0.9251 0.2271
H42 H 0.4608 0.8897 0.2283
C76 C 0.4200(4) 0.9858(4) 0.12846(19)
C77 C 0.4429(4) 0.9534(4) 0.1558(2)
C78 C 0.4406(4) 0.9565(3) 0.2038(2)
C79 C 0.4154(4) 0.9919(4) 0.2245(2)
C81 C 0.2380(3) 0.8966(3) 0.3849(3)
O28 O 0.3701(2) 0.9438(2) 0.2853(2)
O29 O 0.22400(19) 0.8614(2) 0.40393(19)
O30 O 0.22095(19) 0.92057(19) 0.35269(19)
O31 O 0.4025(2) 0.9194(2) 0.5163(2)
C84 C 0.3698(4) 0.8969(4) 0.4983(4)
C85 C 0.28776(17) 0.9152(3) 0.4002(2)
C86 C 0.3141(2) 0.9419(3) 0.3701(2)
H52 H 0.3011 0.9525 0.3418
C87 C 0.3595(2) 0.9533(3) 0.3815(2)
C88 C 0.37856(17) 0.9379(3) 0.4229(2)
H53 H 0.4096 0.9456 0.4307
C89 C 0.3522(2) 0.9111(2) 0.45304(16)
C90 C 0.3068(2) 0.8997(2) 0.4417(2)
H54 H 0.2888 0.8814 0.4623
O32 O 0.3500(2) 0.8642(2) 0.51915(17)
C91 C 0.3948(4) 0.9788(4) 0.3509(3)
C96 C 0.3925(4) 0.9757(3) 0.3029(3)
Zn9 Zn 0.41913(4) 0.91913(4) 0.58087(4)
Zn12 Zn 0.15621(4) 0.91581(4) 0.33682(4)
Zn18 Zn 0.33682(4) 0.84379(4) 0.58419(4)
Zn23 Zn 0.16318(4) 0.84379(4) 0.41581(4)
H64 H 0.421833 0.983406 0.090856
H65 H 0.33729 0.945882 0.295422
C1 C 0.3966(3) 0.8849(3) 0.7380(3)
C2 C 0.5886(3) 0.8679(3) 0.9666(3)
H1 H 0.5855 0.9016 0.9641
H2 H 0.6173 0.8580 0.9514
H3 H 0.5896 0.8590 0.9994
C3 C 0.5784(3) 0.7653(3) 0.9705(3)
H4 H 0.5714 0.7325 0.9657
H6 H 0.6103 0.7717 0.9608
O1 O 0.4438(2) 0.7853(2) 0.8701(2)
O2 O 0.3614(2) 0.90393(19) 0.72400(19)
O3 O 0.42057(19) 0.85269(19) 0.72095(19)
C4 C 0.3969(4) 0.9983(4) 0.8698(4)
C5 C 0.4152(3) 0.9002(2) 0.78776(17)
C6 C 0.4419(3) 0.8701(2) 0.8141(2)
H7 H 0.4525 0.8418 0.8011
C7 C 0.4533(3) 0.8815(2) 0.8595(2)
C8 C 0.4379(3) 0.9229(2) 0.87856(17)
H8 H 0.4456 0.9307 0.9096
C9 C 0.4111(2) 0.95304(16) 0.8522(2)
C10 C 0.3997(2) 0.9417(2) 0.8068(2)
H9 H 0.3814 0.9623 0.7888
C11 C 0.4788(4) 0.8509(3) 0.8948(4)
C12 C 0.5142(4) 0.87154(19) 0.9200(4)
C13 C 0.5466(4) 0.8442(2) 0.9429(4)
C14 C 0.5435(3) 0.7962(2) 0.9406(4)
C15 C 0.5081(4) 0.7755(2) 0.9154(4)
C16 C 0.4757(3) 0.8029(3) 0.8925(4)
C17 C 0.6034(3) 0.6151(3) 0.7380(3)
C18 C 0.4114(3) 0.6321(3) 0.9666(3)
H10 H 0.4145 0.5984 0.9641
H11 H 0.3827 0.6420 0.9514
H12 H 0.4104 0.6410 0.9994
C19 C 0.4216(3) 0.7347(3) 0.9705(3)
H13 H 0.4286 0.7675 0.9657
H15 H 0.3897 0.7283 0.9608
O7 O 0.5562(2) 0.7147(2) 0.8701(2)
O8 O 0.6386(2) 0.59607(19) 0.72400(19)
O9 O 0.57943(19) 0.64731(19) 0.72095(19)
O10 O 0.5806(2) 0.4837(2) 0.9025(2)
C20 C 0.6031(4) 0.5017(4) 0.8698(4)
C21 C 0.5848(3) 0.5998(2) 0.78776(17)
C22 C 0.5581(3) 0.6299(2) 0.8141(2)
H16 H 0.5475 0.6582 0.8011
C23 C 0.5467(3) 0.6185(2) 0.8595(2)
C24 C 0.5621(3) 0.5771(2) 0.87856(17)
H17 H 0.5544 0.5693 0.9096
C25 C 0.5889(2) 0.54696(16) 0.8522(2)
C26 C 0.6003(2) 0.5583(2) 0.8068(2)
H18 H 0.6186 0.5377 0.7888
O11 O 0.6358(2) 0.48085(17) 0.8500(2)
C27 C 0.5212(4) 0.6491(3) 0.8948(4)
C28 C 0.4858(4) 0.62846(19) 0.9200(4)
C29 C 0.4534(4) 0.6558(2) 0.9429(4)
C30 C 0.4565(3) 0.7038(2) 0.9406(4)
C31 C 0.4919(4) 0.7245(2) 0.9154(4)
C32 C 0.5243(3) 0.6971(3) 0.8925(4)
Zn3 Zn 0.58087(4) 0.41913(4) 0.91913(4)
O12 O 0.61869(14) 0.38131(14) 0.88131(14)
H32 H 0.7729 0.9966 0.9251
Zn7 Zn 0.34379(4) 0.91581(4) 0.66318(4)
Zn8 Zn 0.41581(4) 0.83682(4) 0.65621(4)
Zn20 Zn 0.65621(4) 0.41581(4) 0.83682(4)
Zn21 Zn 0.58419(4) 0.66318(4) 0.65621(4)
Zn22 Zn 0.65621(4) 0.58419(4) 0.66318(4)
O33 O 0.72400(19) 0.3614(2) 0.90393(19)
O37 O 0.40393(19) 0.77600(19) 0.6386(2)
O42 O 0.27905(19) 0.92057(19) 0.64731(19)
O43 O 0.5975(2) 0.4194(2) 0.9837(2)
O44 O 0.5163(2) 0.4025(2) 0.9194(2)
O45 O 0.48085(17) 0.8500(2) 0.6358(2)
O46 O 0.6500(2) 0.3642(2) 0.98085(17)
O47 O 0.3642(2) 0.98085(17) 0.6500(2)
O48 O 0.38131(14) 0.88131(14) 0.61869(14)
H55 H 0.516594 0.909144 0.921833
H56 H 0.445882 0.795422 0.83729
H57 H 0.554118 0.704578 0.83729
H58 H 0.483406 0.590856 0.921833
O21_2 O 0.0806(2) 0.0163(2) 0.0975(2)
O22_2 O 0.1358(2) 0.01915(17) 0.1500(2)
C34_2 C 0.0886(3) 0.6321(3) 0.0334(3)
H19_2 H 0.0855 0.5984 0.0359
H20_2 H 0.1173 0.6420 0.0486
H21_2 H 0.0896 0.6410 0.0006
C35_2 C 0.0784(3) 0.7347(3) 0.0295(3)
H22_2 H 0.0714 0.7675 0.0343
H24_2 H 0.1103 0.7283 0.0392
C44_2 C 0.0142(4) 0.62846(19) 0.0800(4)
C45_2 C 0.0466(4) 0.6558(2) 0.0571(4)
C46_2 C 0.0435(3) 0.7038(2) 0.0594(4)
C47_2 C 0.0081(4) 0.7245(2) 0.0846(4)
C49_2 C 0.1034(3) 0.8849(3) 0.2620(3)
O18_2 O 0.0562(2) 0.7853(2) 0.1299(2)
O19_2 O 0.1386(2) 0.90393(19) 0.27600(19)
O20_2 O 0.07943(19) 0.85269(19) 0.27905(19)
C52_2 C 0.1031(4) 0.9983(4) 0.1302(4)
C53_2 C 0.0848(3) 0.9002(2) 0.21224(17)
C54_2 C 0.0581(3) 0.8701(2) 0.1859(2)
H34_2 H 0.0475 0.8418 0.1989
C55_2 C 0.0467(3) 0.8815(2) 0.1405(2)
C56_2 C 0.0621(3) 0.9229(2) 0.12144(17)
H35_2 H 0.0544 0.9307 0.0904
C57_2 C 0.0889(2) 0.95304(16) 0.1478(2)
C58_2 C 0.1003(2) 0.9417(2) 0.1932(2)
H36_2 H 0.1186 0.9623 0.2112
C59_2 C 0.0212(4) 0.8509(3) 0.1052(4)
C64_2 C 0.0243(3) 0.8029(3) 0.1075(4)
C65_2 C 0.1151(3) 0.2380(3) 0.1034(3)
O23_2 O 0.2147(2) 0.3701(2) 0.0562(2)
O24_2 O 0.09607(19) 0.22400(19) 0.1386(2)
O25_2 O 0.14731(19) 0.22095(19) 0.07943(19)
C68_2 C 0.0017(4) 0.3698(4) 0.1031(4)
C69_2 C 0.0998(2) 0.28776(17) 0.0848(3)
C70_2 C 0.1299(2) 0.3141(2) 0.0581(3)
H43_2 H 0.1582 0.3011 0.0475
C71_2 C 0.1185(2) 0.3595(2) 0.0467(3)
C72_2 C 0.0771(2) 0.37856(17) 0.0621(3)
H44_2 H 0.0693 0.4096 0.0544
C73_2 C 0.04696(16) 0.3522(2) 0.0889(2)
C74_2 C 0.0583(2) 0.3068(2) 0.1003(2)
H45_2 H 0.0377 0.2888 0.1186
C75_2 C 0.1491(3) 0.3948(4) 0.0212(4)
C80_2 C 0.1971(3) 0.3925(4) 0.0243(3)
C82_2 C 0.3679(3) 0.4666(3) 0.0886(3)
H46_2 H 0.4016 0.4641 0.0855
H47_2 H 0.3580 0.4514 0.1173
H48_2 H 0.3590 0.4994 0.0896
C83_2 C 0.2653(3) 0.4705(3) 0.0784(3)
H49_2 H 0.2325 0.4657 0.0714
H50_2 H 0.2729 0.5034 0.0749
H51_2 H 0.2717 0.4608 0.1103
C92_2 C 0.37154(19) 0.4200(4) 0.0142(4)
C93_2 C 0.3442(2) 0.4429(4) 0.0466(4)
C94_2 C 0.2962(2) 0.4406(4) 0.0435(3)
C95_2 C 0.2755(2) 0.4154(4) 0.0081(4)
Zn24_2 Zn 0.08419(4) 0.83682(4) 0.34379(4)
H60_2 H 0.0165941 0.590856 0.0781669
H61_2 H 0.0541182 0.795422 0.16271
H63_2 H 0.204578 0.33729 0.0541182
H66_2 H 0.409144 0.421833 0.0165941
H5_2 H 0.0034 0.5749 0.7729
H14_2 H 0.0034 0.4251 0.7271
H23_2 H 0.0749 0.7271 0.9966
C66_2 C 0.1321(3) 0.4666(3) 0.9114(3)
H37_2 H 0.0984 0.4641 0.9145
H38_2 H 0.1420 0.4514 0.8827
H39_2 H 0.1410 0.4994 0.9104
C67_2 C 0.2347(3) 0.4705(3) 0.9216(3)
H40_2 H 0.2675 0.4657 0.9286
H41_2 H 0.2271 0.5034 0.9251
H42_2 H 0.2283 0.4608 0.8897
C76_2 C 0.12846(19) 0.4200(4) 0.9858(4)
C77_2 C 0.1558(2) 0.4429(4) 0.9534(4)
C78_2 C 0.2038(2) 0.4406(4) 0.9565(3)
C79_2 C 0.2245(2) 0.4154(4) 0.9919(4)
C81_2 C 0.3849(3) 0.2380(3) 0.8966(3)
O28_2 O 0.2853(2) 0.3701(2) 0.9438(2)
C84_2 C 0.4983(4) 0.3698(4) 0.8969(4)
C85_2 C 0.4002(2) 0.28776(17) 0.9152(3)
C86_2 C 0.3701(2) 0.3141(2) 0.9419(3)
H52_2 H 0.3418 0.3011 0.9525
C87_2 C 0.3815(2) 0.3595(2) 0.9533(3)
C88_2 C 0.4229(2) 0.37856(17) 0.9379(3)
H53_2 H 0.4307 0.4096 0.9456
C89_2 C 0.45304(16) 0.3522(2) 0.9111(2)
C90_2 C 0.4417(2) 0.3068(2) 0.8997(2)
H54_2 H 0.4623 0.2888 0.8814
O32_2 O 0.51915(17) 0.3500(2) 0.8642(2)
C91_2 C 0.3509(3) 0.3948(4) 0.9788(4)
C96_2 C 0.3029(3) 0.3925(4) 0.9757(3)
H64_2 H 0.090856 0.421833 0.983406
H65_2 H 0.295422 0.33729 0.945882
Zn1_2 Zn 0.91913(4) 0.41913(4) 0.08087(4)
O4_2 O 0.9025(2) 0.4194(2) 0.0163(2)
O5_2 O 0.8500(2) 0.3642(2) 0.01915(17)
O6_2 O 0.88131(14) 0.38131(14) 0.11869(14)
C33_2 C 0.8966(3) 0.6151(3) 0.2620(3)
O13_2 O 0.9438(2) 0.7147(2) 0.1299(2)
O14_2 O 0.8614(2) 0.59607(19) 0.27600(19)
O15_2 O 0.92057(19) 0.64731(19) 0.27905(19)
O16_2 O 0.9194(2) 0.4837(2) 0.0975(2)
C36_2 C 0.8969(4) 0.5017(4) 0.1302(4)
C37_2 C 0.9152(3) 0.5998(2) 0.21224(17)
C38_2 C 0.9419(3) 0.6299(2) 0.1859(2)
H25_2 H 0.9525 0.6582 0.1989
C39_2 C 0.9533(3) 0.6185(2) 0.1405(2)
C40_2 C 0.9379(3) 0.5771(2) 0.12144(17)
H26_2 H 0.9456 0.5693 0.0904
C41_2 C 0.9111(2) 0.54696(16) 0.1478(2)
C42_2 C 0.8997(2) 0.5583(2) 0.1932(2)
H27_2 H 0.8814 0.5377 0.2112
O17_2 O 0.8642(2) 0.48085(17) 0.1500(2)
C43_2 C 0.9788(4) 0.6491(3) 0.1052(4)
C48_2 C 0.9757(3) 0.6971(3) 0.1075(4)
C50_2 C 0.9114(3) 0.8679(3) 0.0334(3)
H28_2 H 0.9145 0.9016 0.0359
H29_2 H 0.8827 0.8580 0.0486
H30_2 H 0.9104 0.8590 0.0006
C51_2 C 0.9216(3) 0.7653(3) 0.0295(3)
H31_2 H 0.9286 0.7325 0.0343
H33_2 H 0.8897 0.7717 0.0392
C60_2 C 0.9858(4) 0.87154(19) 0.0800(4)
C61_2 C 0.9534(4) 0.8442(2) 0.0571(4)
C62_2 C 0.9565(3) 0.7962(2) 0.0594(4)
C63_2 C 0.9919(4) 0.7755(2) 0.0846(4)
Zn6_2 Zn 0.84379(4) 0.41581(4) 0.16318(4)
O26_2 O 0.9837(2) 0.4025(2) 0.0806(2)
O27_2 O 0.98085(17) 0.3500(2) 0.1358(2)
Zn15_2 Zn 0.84379(4) 0.58419(4) 0.33682(4)
Zn17_2 Zn 0.91581(4) 0.66318(4) 0.34379(4)
O35_2 O 0.77600(19) 0.3614(2) 0.09607(19)
O36_2 O 0.8614(2) 0.40393(19) 0.22400(19)
O39_2 O 0.77905(19) 0.42057(19) 0.14731(19)
O40_2 O 0.92057(19) 0.35269(19) 0.22095(19)
H59_2 H 0.945882 0.704578 0.16271
H62_2 H 0.983406 0.909144 0.0781669
C1_2 C 0.7380(3) 0.3966(3) 0.8849(3)
C2_2 C 0.9666(3) 0.5886(3) 0.8679(3)
H1_2 H 0.9641 0.5855 0.9016
H2_2 H 0.9514 0.6173 0.8580
H3_2 H 0.9994 0.5896 0.8590
C3_2 C 0.9705(3) 0.5784(3) 0.7653(3)
H4_2 H 0.9657 0.5714 0.7325
H6_2 H 0.9608 0.6103 0.7717
O1_2 O 0.8701(2) 0.4438(2) 0.7853(2)
O3_2 O 0.72095(19) 0.42057(19) 0.85269(19)
C4_2 C 0.8698(4) 0.3969(4) 0.9983(4)
C5_2 C 0.78776(17) 0.4152(3) 0.9002(2)
C6_2 C 0.8141(2) 0.4419(3) 0.8701(2)
H7_2 H 0.8011 0.4525 0.8418
C7_2 C 0.8595(2) 0.4533(3) 0.8815(2)
C8_2 C 0.87856(17) 0.4379(3) 0.9229(2)
H8_2 H 0.9096 0.4456 0.9307
C9_2 C 0.8522(2) 0.4111(2) 0.95304(16)
C10_2 C 0.8068(2) 0.3997(2) 0.9417(2)
H9_2 H 0.7888 0.3814 0.9623
C11_2 C 0.8948(4) 0.4788(4) 0.8509(3)
C12_2 C 0.9200(4) 0.5142(4) 0.87154(19)
C13_2 C 0.9429(4) 0.5466(4) 0.8442(2)
C14_2 C 0.9406(4) 0.5435(3) 0.7962(2)
C15_2 C 0.9154(4) 0.5081(4) 0.7755(2)
C16_2 C 0.8925(4) 0.4757(3) 0.8029(3)
C17_2 C 0.7380(3) 0.6034(3) 0.6151(3)
C18_2 C 0.9666(3) 0.4114(3) 0.6321(3)
H10_2 H 0.9641 0.4145 0.5984
H11_2 H 0.9514 0.3827 0.6420
H12_2 H 0.9994 0.4104 0.6410
C19_2 C 0.9705(3) 0.4216(3) 0.7347(3)
H13_2 H 0.9657 0.4286 0.7675
H15_2 H 0.9608 0.3897 0.7283
O7_2 O 0.8701(2) 0.5562(2) 0.7147(2)
O8_2 O 0.72400(19) 0.6386(2) 0.59607(19)
O9_2 O 0.72095(19) 0.57943(19) 0.64731(19)
O10_2 O 0.9025(2) 0.5806(2) 0.4837(2)
C20_2 C 0.8698(4) 0.6031(4) 0.5017(4)
C21_2 C 0.78776(17) 0.5848(3) 0.5998(2)
C22_2 C 0.8141(2) 0.5581(3) 0.6299(2)
H16_2 H 0.8011 0.5475 0.6582
C23_2 C 0.8595(2) 0.5467(3) 0.6185(2)
C24_2 C 0.87856(17) 0.5621(3) 0.5771(2)
H17_2 H 0.9096 0.5544 0.5693
C25_2 C 0.8522(2) 0.5889(2) 0.54696(16)
C26_2 C 0.8068(2) 0.6003(2) 0.5583(2)
H18_2 H 0.7888 0.6186 0.5377
O11_2 O 0.8500(2) 0.6358(2) 0.48085(17)
C27_2 C 0.8948(4) 0.5212(4) 0.6491(3)
C28_2 C 0.9200(4) 0.4858(4) 0.62846(19)
C29_2 C 0.9429(4) 0.4534(4) 0.6558(2)
C30_2 C 0.9406(4) 0.4565(3) 0.7038(2)
C31_2 C 0.9154(4) 0.4919(4) 0.7245(2)
C32_2 C 0.8925(4) 0.5243(3) 0.6971(3)
Zn3_2 Zn 0.91913(4) 0.58087(4) 0.41913(4)
O12_2 O 0.88131(14) 0.61869(14) 0.38131(14)
H32_2 H 0.9251 0.7729 0.9966
Zn20_2 Zn 0.83682(4) 0.65621(4) 0.41581(4)
Zn22_2 Zn 0.66318(4) 0.65621(4) 0.58419(4)
O33_2 O 0.90393(19) 0.72400(19) 0.3614(2)
O37_2 O 0.6386(2) 0.40393(19) 0.77600(19)
O43_2 O 0.9837(2) 0.5975(2) 0.4194(2)
O44_2 O 0.9194(2) 0.5163(2) 0.4025(2)
O46_2 O 0.98085(17) 0.6500(2) 0.3642(2)
H55_2 H 0.921833 0.516594 0.909144
H56_2 H 0.83729 0.445882 0.795422
H57_2 H 0.83729 0.554118 0.704578
H58_2 H 0.921833 0.483406 0.590856
O21_3 O 0.0975(2) 0.0806(2) 0.0163(2)
O22_3 O 0.1500(2) 0.1358(2) 0.01915(17)
C34_3 C 0.0334(3) 0.0886(3) 0.6321(3)
H19_3 H 0.0359 0.0855 0.5984
H20_3 H 0.0486 0.1173 0.6420
H21_3 H 0.0006 0.0896 0.6410
C35_3 C 0.0295(3) 0.0784(3) 0.7347(3)
H22_3 H 0.0343 0.0714 0.7675
H24_3 H 0.0392 0.1103 0.7283
C44_3 C 0.0800(4) 0.0142(4) 0.62846(19)
C45_3 C 0.0571(4) 0.0466(4) 0.6558(2)
C46_3 C 0.0594(4) 0.0435(3) 0.7038(2)
C47_3 C 0.0846(4) 0.0081(4) 0.7245(2)
C49_3 C 0.2620(3) 0.1034(3) 0.8849(3)
O18_3 O 0.1299(2) 0.0562(2) 0.7853(2)
C52_3 C 0.1302(4) 0.1031(4) 0.9983(4)
C53_3 C 0.21224(17) 0.0848(3) 0.9002(2)
C54_3 C 0.1859(2) 0.0581(3) 0.8701(2)
H34_3 H 0.1989 0.0475 0.8418
C55_3 C 0.1405(2) 0.0467(3) 0.8815(2)
C56_3 C 0.12144(17) 0.0621(3) 0.9229(2)
H35_3 H 0.0904 0.0544 0.9307
C57_3 C 0.1478(2) 0.0889(2) 0.95304(16)
C58_3 C 0.1932(2) 0.1003(2) 0.9417(2)
H36_3 H 0.2112 0.1186 0.9623
C59_3 C 0.1052(4) 0.0212(4) 0.8509(3)
C64_3 C 0.1075(4) 0.0243(3) 0.8029(3)
C65_3 C 0.1034(3) 0.1151(3) 0.2380(3)
O23_3 O 0.0562(2) 0.2147(2) 0.3701(2)
O24_3 O 0.1386(2) 0.09607(19) 0.22400(19)
O25_3 O 0.07943(19) 0.14731(19) 0.22095(19)
C68_3 C 0.1031(4) 0.0017(4) 0.3698(4)
C69_3 C 0.0848(3) 0.0998(2) 0.28776(17)
C70_3 C 0.0581(3) 0.1299(2) 0.3141(2)
H43_3 H 0.0475 0.1582 0.3011
C71_3 C 0.0467(3) 0.1185(2) 0.3595(2)
C72_3 C 0.0621(3) 0.0771(2) 0.37856(17)
H44_3 H 0.0544 0.0693 0.4096
C73_3 C 0.0889(2) 0.04696(16) 0.3522(2)
C74_3 C 0.1003(2) 0.0583(2) 0.3068(2)
H45_3 H 0.1186 0.0377 0.2888
C75_3 C 0.0212(4) 0.1491(3) 0.3948(4)
C80_3 C 0.0243(3) 0.1971(3) 0.3925(4)
C82_3 C 0.0886(3) 0.3679(3) 0.4666(3)
H46_3 H 0.0855 0.4016 0.4641
H47_3 H 0.1173 0.3580 0.4514
H48_3 H 0.0896 0.3590 0.4994
C83_3 C 0.0784(3) 0.2653(3) 0.4705(3)
H49_3 H 0.0714 0.2325 0.4657
H50_3 H 0.0749 0.2729 0.5034
H51_3 H 0.1103 0.2717 0.4608
C92_3 C 0.0142(4) 0.37154(19) 0.4200(4)
C93_3 C 0.0466(4) 0.3442(2) 0.4429(4)
C94_3 C 0.0435(3) 0.2962(2) 0.4406(4)
C95_3 C 0.0081(4) 0.2755(2) 0.4154(4)
H60_3 H 0.0781669 0.0165941 0.590856
H61_3 H 0.16271 0.0541182 0.795422
H63_3 H 0.0541182 0.204578 0.33729
H66_3 H 0.0165941 0.409144 0.421833
Zn1_3 Zn 0.08087(4) 0.91913(4) 0.41913(4)
O4_3 O 0.0163(2) 0.9025(2) 0.4194(2)
O5_3 O 0.01915(17) 0.8500(2) 0.3642(2)
O6_3 O 0.11869(14) 0.88131(14) 0.38131(14)
C33_3 C 0.2620(3) 0.8966(3) 0.6151(3)
O13_3 O 0.1299(2) 0.9438(2) 0.7147(2)
O14_3 O 0.27600(19) 0.8614(2) 0.59607(19)
O16_3 O 0.0975(2) 0.9194(2) 0.4837(2)
C36_3 C 0.1302(4) 0.8969(4) 0.5017(4)
C37_3 C 0.21224(17) 0.9152(3) 0.5998(2)
C38_3 C 0.1859(2) 0.9419(3) 0.6299(2)
H25_3 H 0.1989 0.9525 0.6582
C39_3 C 0.1405(2) 0.9533(3) 0.6185(2)
C40_3 C 0.12144(17) 0.9379(3) 0.5771(2)
H26_3 H 0.0904 0.9456 0.5693
C41_3 C 0.1478(2) 0.9111(2) 0.54696(16)
C42_3 C 0.1932(2) 0.8997(2) 0.5583(2)
H27_3 H 0.2112 0.8814 0.5377
O17_3 O 0.1500(2) 0.8642(2) 0.48085(17)
C43_3 C 0.1052(4) 0.9788(4) 0.6491(3)
C48_3 C 0.1075(4) 0.9757(3) 0.6971(3)
C50_3 C 0.0334(3) 0.9114(3) 0.8679(3)
H28_3 H 0.0359 0.9145 0.9016
H29_3 H 0.0486 0.8827 0.8580
H30_3 H 0.0006 0.9104 0.8590
C51_3 C 0.0295(3) 0.9216(3) 0.7653(3)
H31_3 H 0.0343 0.9286 0.7325
H33_3 H 0.0392 0.8897 0.7717
C60_3 C 0.0800(4) 0.9858(4) 0.87154(19)
C61_3 C 0.0571(4) 0.9534(4) 0.8442(2)
C62_3 C 0.0594(4) 0.9565(3) 0.7962(2)
C63_3 C 0.0846(4) 0.9919(4) 0.7755(2)
O26_3 O 0.0806(2) 0.9837(2) 0.4025(2)
O27_3 O 0.1358(2) 0.98085(17) 0.3500(2)
O35_3 O 0.09607(19) 0.77600(19) 0.3614(2)
O39_3 O 0.14731(19) 0.77905(19) 0.42057(19)
H59_3 H 0.16271 0.945882 0.704578
H62_3 H 0.0781669 0.983406 0.909144
H5_3 H 0.7729 0.0034 0.5749
H14_3 H 0.7271 0.0034 0.4251
H23_3 H 0.9966 0.0749 0.7271
C66_3 C 0.9114(3) 0.1321(3) 0.4666(3)
H37_3 H 0.9145 0.0984 0.4641
H38_3 H 0.8827 0.1420 0.4514
H39_3 H 0.9104 0.1410 0.4994
C67_3 C 0.9216(3) 0.2347(3) 0.4705(3)
H40_3 H 0.9286 0.2675 0.4657
H41_3 H 0.9251 0.2271 0.5034
H42_3 H 0.8897 0.2283 0.4608
C76_3 C 0.9858(4) 0.12846(19) 0.4200(4)
C77_3 C 0.9534(4) 0.1558(2) 0.4429(4)
C78_3 C 0.9565(3) 0.2038(2) 0.4406(4)
C79_3 C 0.9919(4) 0.2245(2) 0.4154(4)
C81_3 C 0.8966(3) 0.3849(3) 0.2380(3)
O28_3 O 0.9438(2) 0.2853(2) 0.3701(2)
C84_3 C 0.8969(4) 0.4983(4) 0.3698(4)
C85_3 C 0.9152(3) 0.4002(2) 0.28776(17)
C86_3 C 0.9419(3) 0.3701(2) 0.3141(2)
H52_3 H 0.9525 0.3418 0.3011
C87_3 C 0.9533(3) 0.3815(2) 0.3595(2)
C88_3 C 0.9379(3) 0.4229(2) 0.37856(17)
H53_3 H 0.9456 0.4307 0.4096
C89_3 C 0.9111(2) 0.45304(16) 0.3522(2)
C90_3 C 0.8997(2) 0.4417(2) 0.3068(2)
H54_3 H 0.8814 0.4623 0.2888
O32_3 O 0.8642(2) 0.51915(17) 0.3500(2)
C91_3 C 0.9788(4) 0.3509(3) 0.3948(4)
C96_3 C 0.9757(3) 0.3029(3) 0.3925(4)
H64_3 H 0.983406 0.090856 0.421833
H65_3 H 0.945882 0.295422 0.33729
C1_3 C 0.8849(3) 0.7380(3) 0.3966(3)
C2_3 C 0.8679(3) 0.9666(3) 0.5886(3)
H1_3 H 0.9016 0.9641 0.5855
H2_3 H 0.8580 0.9514 0.6173
H3_3 H 0.8590 0.9994 0.5896
C3_3 C 0.7653(3) 0.9705(3) 0.5784(3)
H4_3 H 0.7325 0.9657 0.5714
H6_3 H 0.7717 0.9608 0.6103
O1_3 O 0.7853(2) 0.8701(2) 0.4438(2)
O3_3 O 0.85269(19) 0.72095(19) 0.42057(19)
C4_3 C 0.9983(4) 0.8698(4) 0.3969(4)
C5_3 C 0.9002(2) 0.78776(17) 0.4152(3)
C6_3 C 0.8701(2) 0.8141(2) 0.4419(3)
H7_3 H 0.8418 0.8011 0.4525
C7_3 C 0.8815(2) 0.8595(2) 0.4533(3)
C8_3 C 0.9229(2) 0.87856(17) 0.4379(3)
H8_3 H 0.9307 0.9096 0.4456
C9_3 C 0.95304(16) 0.8522(2) 0.4111(2)
C10_3 C 0.9417(2) 0.8068(2) 0.3997(2)
H9_3 H 0.9623 0.7888 0.3814
C11_3 C 0.8509(3) 0.8948(4) 0.4788(4)
C12_3 C 0.87154(19) 0.9200(4) 0.5142(4)
C13_3 C 0.8442(2) 0.9429(4) 0.5466(4)
C14_3 C 0.7962(2) 0.9406(4) 0.5435(3)
C15_3 C 0.7755(2) 0.9154(4) 0.5081(4)
C16_3 C 0.8029(3) 0.8925(4) 0.4757(3)
C17_3 C 0.6151(3) 0.7380(3) 0.6034(3)
C18_3 C 0.6321(3) 0.9666(3) 0.4114(3)
H10_3 H 0.5984 0.9641 0.4145
H11_3 H 0.6420 0.9514 0.3827
H12_3 H 0.6410 0.9994 0.4104
C19_3 C 0.7347(3) 0.9705(3) 0.4216(3)
H13_3 H 0.7675 0.9657 0.4286
H15_3 H 0.7283 0.9608 0.3897
O7_3 O 0.7147(2) 0.8701(2) 0.5562(2)
O8_3 O 0.59607(19) 0.72400(19) 0.6386(2)
O9_3 O 0.64731(19) 0.72095(19) 0.57943(19)
O10_3 O 0.4837(2) 0.9025(2) 0.5806(2)
C20_3 C 0.5017(4) 0.8698(4) 0.6031(4)
C21_3 C 0.5998(2) 0.78776(17) 0.5848(3)
C22_3 C 0.6299(2) 0.8141(2) 0.5581(3)
H16_3 H 0.6582 0.8011 0.5475
C23_3 C 0.6185(2) 0.8595(2) 0.5467(3)
C24_3 C 0.5771(2) 0.87856(17) 0.5621(3)
H17_3 H 0.5693 0.9096 0.5544
C25_3 C 0.54696(16) 0.8522(2) 0.5889(2)
C26_3 C 0.5583(2) 0.8068(2) 0.6003(2)
H18_3 H 0.5377 0.7888 0.6186
C27_3 C 0.6491(3) 0.8948(4) 0.5212(4)
C28_3 C 0.62846(19) 0.9200(4) 0.4858(4)
C29_3 C 0.6558(2) 0.9429(4) 0.4534(4)
C30_3 C 0.7038(2) 0.9406(4) 0.4565(3)
C31_3 C 0.7245(2) 0.9154(4) 0.4919(4)
C32_3 C 0.6971(3) 0.8925(4) 0.5243(3)
H32_3 H 0.9966 0.9251 0.7729
O37_3 O 0.77600(19) 0.6386(2) 0.40393(19)
O43_3 O 0.4194(2) 0.9837(2) 0.5975(2)
H55_3 H 0.909144 0.921833 0.516594
H56_3 H 0.795422 0.83729 0.445882
H57_3 H 0.704578 0.83729 0.554118
H58_3 H 0.590856 0.921833 0.483406
C1_4 C 0.1151(3) 0.7620(3) 0.3966(3)
C2_4 C 0.1321(3) 0.5334(3) 0.5886(3)
H1_4 H 0.0984 0.5359 0.5855
H2_4 H 0.1420 0.5486 0.6173
H3_4 H 0.1410 0.5006 0.5896
C3_4 C 0.2347(3) 0.5295(3) 0.5784(3)
H4_4 H 0.2675 0.5343 0.5714
H5_4 H 0.2271 0.4966 0.5749
H6_4 H 0.2283 0.5392 0.6103
O1_4 O 0.2147(2) 0.6299(2) 0.4438(2)
C4_4 C 0.0017(4) 0.6302(4) 0.3969(4)
C5_4 C 0.0998(2) 0.71224(17) 0.4152(3)
C6_4 C 0.1299(2) 0.6859(2) 0.4419(3)
H7_4 H 0.1582 0.6989 0.4525
C7_4 C 0.1185(2) 0.6405(2) 0.4533(3)
C8_4 C 0.0771(2) 0.62144(17) 0.4379(3)
H8_4 H 0.0693 0.5904 0.4456
C9_4 C 0.04696(16) 0.6478(2) 0.4111(2)
C10_4 C 0.0583(2) 0.6932(2) 0.3997(2)
H9_4 H 0.0377 0.7112 0.3814
C11_4 C 0.1491(3) 0.6052(4) 0.4788(4)
C12_4 C 0.12846(19) 0.5800(4) 0.5142(4)
C13_4 C 0.1558(2) 0.5571(4) 0.5466(4)
C14_4 C 0.2038(2) 0.5594(4) 0.5435(3)
C15_4 C 0.2245(2) 0.5846(4) 0.5081(4)
C16_4 C 0.1971(3) 0.6075(4) 0.4757(3)
C17_4 C 0.3849(3) 0.7620(3) 0.6034(3)
C18_4 C 0.3679(3) 0.5334(3) 0.4114(3)
H10_4 H 0.4016 0.5359 0.4145
H11_4 H 0.3580 0.5486 0.3827
H12_4 H 0.3590 0.5006 0.4104
C19_4 C 0.2653(3) 0.5295(3) 0.4216(3)
H13_4 H 0.2325 0.5343 0.4286
H14_4 H 0.2729 0.4966 0.4251
H15_4 H 0.2717 0.5392 0.3897
O7_4 O 0.2853(2) 0.6299(2) 0.5562(2)
O9_4 O 0.35269(19) 0.77905(19) 0.57943(19)
O10_4 O 0.5163(2) 0.5975(2) 0.5806(2)
C20_4 C 0.4983(4) 0.6302(4) 0.6031(4)
C21_4 C 0.4002(2) 0.71224(17) 0.5848(3)
C22_4 C 0.3701(2) 0.6859(2) 0.5581(3)
H16_4 H 0.3418 0.6989 0.5475
C23_4 C 0.3815(2) 0.6405(2) 0.5467(3)
C24_4 C 0.4229(2) 0.62144(17) 0.5621(3)
H17_4 H 0.4307 0.5904 0.5544
C25_4 C 0.45304(16) 0.6478(2) 0.5889(2)
C26_4 C 0.4417(2) 0.6932(2) 0.6003(2)
H18_4 H 0.4623 0.7112 0.6186
O11_3 O 0.51915(17) 0.6500(2) 0.6358(2)
C27_4 C 0.3509(3) 0.6052(4) 0.5212(4)
C28_4 C 0.37154(19) 0.5800(4) 0.4858(4)
C29_4 C 0.3442(2) 0.5571(4) 0.4534(4)
C30_4 C 0.2962(2) 0.5594(4) 0.4565(3)
C31_4 C 0.2755(2) 0.5846(4) 0.4919(4)
C32_4 C 0.3029(3) 0.6075(4) 0.5243(3)
Zn3_3 Zn 0.58087(4) 0.58087(4) 0.58087(4)
O12_3 O 0.61869(14) 0.61869(14) 0.61869(14)
O43_4 O 0.5806(2) 0.5163(2) 0.5975(2)
O44_3 O 0.5975(2) 0.5806(2) 0.5163(2)
O46_3 O 0.6358(2) 0.51915(17) 0.6500(2)
H55_4 H 0.090856 0.578167 0.516594
H56_4 H 0.204578 0.66271 0.445882
H57_4 H 0.295422 0.66271 0.554118
H58_4 H 0.409144 0.578167 0.483406
O40_3 O 0.77905(19) 0.57943(19) 0.35269(19)
O47_2 O 0.6500(2) 0.6358(2) 0.51915(17)
C65_4 C 0.3966(3) 0.1151(3) 0.7620(3)
C66_4 C 0.5886(3) 0.1321(3) 0.5334(3)
H37_4 H 0.5855 0.0984 0.5359
H38_4 H 0.6173 0.1420 0.5486
H39_4 H 0.5896 0.1410 0.5006
C67_4 C 0.5784(3) 0.2347(3) 0.5295(3)
H40_4 H 0.5714 0.2675 0.5343
H41_4 H 0.5749 0.2271 0.4966
H42_4 H 0.6103 0.2283 0.5392
O23_4 O 0.4438(2) 0.2147(2) 0.6299(2)
C68_4 C 0.3969(4) 0.0017(4) 0.6302(4)
C69_4 C 0.4152(3) 0.0998(2) 0.71224(17)
C70_4 C 0.4419(3) 0.1299(2) 0.6859(2)
H43_4 H 0.4525 0.1582 0.6989
C71_4 C 0.4533(3) 0.1185(2) 0.6405(2)
C72_4 C 0.4379(3) 0.0771(2) 0.62144(17)
H44_4 H 0.4456 0.0693 0.5904
C73_4 C 0.4111(2) 0.04696(16) 0.6478(2)
C74_4 C 0.3997(2) 0.0583(2) 0.6932(2)
H45_4 H 0.3814 0.0377 0.7112
C75_4 C 0.4788(4) 0.1491(3) 0.6052(4)
C76_4 C 0.5142(4) 0.12846(19) 0.5800(4)
C77_4 C 0.5466(4) 0.1558(2) 0.5571(4)
C78_4 C 0.5435(3) 0.2038(2) 0.5594(4)
C79_4 C 0.5081(4) 0.2245(2) 0.5846(4)
C80_4 C 0.4757(3) 0.1971(3) 0.6075(4)
C81_4 C 0.6034(3) 0.3849(3) 0.7620(3)
C82_4 C 0.4114(3) 0.3679(3) 0.5334(3)
H46_4 H 0.4145 0.4016 0.5359
H47_4 H 0.3827 0.3580 0.5486
H48_4 H 0.4104 0.3590 0.5006
C83_4 C 0.4216(3) 0.2653(3) 0.5295(3)
H49_4 H 0.4286 0.2325 0.5343
H50_4 H 0.4251 0.2729 0.4966
H51_4 H 0.3897 0.2717 0.5392
O28_4 O 0.5562(2) 0.2853(2) 0.6299(2)
O30_2 O 0.57943(19) 0.35269(19) 0.77905(19)
C84_4 C 0.6031(4) 0.4983(4) 0.6302(4)
C85_4 C 0.5848(3) 0.4002(2) 0.71224(17)
C86_4 C 0.5581(3) 0.3701(2) 0.6859(2)
H52_4 H 0.5475 0.3418 0.6989
C87_4 C 0.5467(3) 0.3815(2) 0.6405(2)
C88_4 C 0.5621(3) 0.4229(2) 0.62144(17)
H53_4 H 0.5544 0.4307 0.5904
C89_4 C 0.5889(2) 0.45304(16) 0.6478(2)
C90_4 C 0.6003(2) 0.4417(2) 0.6932(2)
H54_4 H 0.6186 0.4623 0.7112
C91_4 C 0.5212(4) 0.3509(3) 0.6052(4)
C92_4 C 0.4858(4) 0.37154(19) 0.5800(4)
C93_4 C 0.4534(4) 0.3442(2) 0.5571(4)
C94_4 C 0.4565(3) 0.2962(2) 0.5594(4)
C95_4 C 0.4919(4) 0.2755(2) 0.5846(4)
C96_4 C 0.5243(3) 0.3029(3) 0.6075(4)
H63_4 H 0.445882 0.204578 0.66271
H64_4 H 0.516594 0.090856 0.578167
H65_4 H 0.554118 0.295422 0.66271
H66_4 H 0.483406 0.409144 0.578167
O6_4 O 0.11869(14) 0.11869(14) 0.11869(14)
C1_5 C 0.7620(3) 0.3966(3) 0.1151(3)
C2_5 C 0.5334(3) 0.5886(3) 0.1321(3)
H1_5 H 0.5359 0.5855 0.0984
H2_5 H 0.5486 0.6173 0.1420
H3_5 H 0.5006 0.5896 0.1410
C3_5 C 0.5295(3) 0.5784(3) 0.2347(3)
H4_5 H 0.5343 0.5714 0.2675
H5_5 H 0.4966 0.5749 0.2271
H6_5 H 0.5392 0.6103 0.2283
O1_5 O 0.6299(2) 0.4438(2) 0.2147(2)
C4_5 C 0.6302(4) 0.3969(4) 0.0017(4)
C5_5 C 0.71224(17) 0.4152(3) 0.0998(2)
C6_5 C 0.6859(2) 0.4419(3) 0.1299(2)
H7_5 H 0.6989 0.4525 0.1582
C7_5 C 0.6405(2) 0.4533(3) 0.1185(2)
C8_5 C 0.62144(17) 0.4379(3) 0.0771(2)
H8_5 H 0.5904 0.4456 0.0693
C9_5 C 0.6478(2) 0.4111(2) 0.04696(16)
C10_5 C 0.6932(2) 0.3997(2) 0.0583(2)
H9_5 H 0.7112 0.3814 0.0377
C11_5 C 0.6052(4) 0.4788(4) 0.1491(3)
C12_5 C 0.5800(4) 0.5142(4) 0.12846(19)
C13_5 C 0.5571(4) 0.5466(4) 0.1558(2)
C14_5 C 0.5594(4) 0.5435(3) 0.2038(2)
C15_5 C 0.5846(4) 0.5081(4) 0.2245(2)
C16_5 C 0.6075(4) 0.4757(3) 0.1971(3)
C17_5 C 0.7620(3) 0.6034(3) 0.3849(3)
C18_5 C 0.5334(3) 0.4114(3) 0.3679(3)
H10_5 H 0.5359 0.4145 0.4016
H11_5 H 0.5486 0.3827 0.3580
H12_5 H 0.5006 0.4104 0.3590
C19_5 C 0.5295(3) 0.4216(3) 0.2653(3)
H13_5 H 0.5343 0.4286 0.2325
H14_5 H 0.4966 0.4251 0.2729
H15_5 H 0.5392 0.3897 0.2717
O7_5 O 0.6299(2) 0.5562(2) 0.2853(2)
C20_5 C 0.6302(4) 0.6031(4) 0.4983(4)
C21_5 C 0.71224(17) 0.5848(3) 0.4002(2)
C22_5 C 0.6859(2) 0.5581(3) 0.3701(2)
H16_5 H 0.6989 0.5475 0.3418
C23_5 C 0.6405(2) 0.5467(3) 0.3815(2)
C24_5 C 0.62144(17) 0.5621(3) 0.4229(2)
H17_5 H 0.5904 0.5544 0.4307
C25_5 C 0.6478(2) 0.5889(2) 0.45304(16)
C26_5 C 0.6932(2) 0.6003(2) 0.4417(2)
H18_5 H 0.7112 0.6186 0.4623
C27_5 C 0.6052(4) 0.5212(4) 0.3509(3)
C28_5 C 0.5800(4) 0.4858(4) 0.37154(19)
C29_5 C 0.5571(4) 0.4534(4) 0.3442(2)
C30_5 C 0.5594(4) 0.4565(3) 0.2962(2)
C31_5 C 0.5846(4) 0.4919(4) 0.2755(2)
C32_5 C 0.6075(4) 0.5243(3) 0.3029(3)
H55_5 H 0.578167 0.516594 0.090856
H56_5 H 0.66271 0.445882 0.204578
H57_5 H 0.66271 0.554118 0.295422
H58_5 H 0.578167 0.483406 0.409144
loop_
_geom_bond_atom_site_label_1
_geom_bond_atom_site_label_2
_geom_bond_site_symmetry_1
_geom_bond_site_symmetry_2
Zn10 O21 1_555 1_555
Zn13 O22 1_555 1_555
C34 H19 1_555 1_555
H20 C34 1_555 1_555
H21 C34 1_555 1_555
C35 H22 1_555 1_555
H24 C35 1_555 1_555
C45 C34 1_555 1_555
C46 C35 1_555 1_555
C47 C46 1_555 1_555
C49 O19 1_555 1_555
O18 C64 1_555 1_555
O19 Zn11 1_555 1_555
O20 C49 1_555 1_555
C52 C57 1_555 1_555
C53 C49 1_555 1_555
C54 C53 1_555 1_555
H34 C54 1_555 1_555
C55 C54 1_555 1_555
C56 C55 1_555 1_555
H35 C56 1_555 1_555
C57 C56 1_555 1_555
C58 C53 1_555 1_555
H36 C58 1_555 1_555
C59 C55 1_555 1_555
C64 C59 1_555 1_555
C65 O24 1_555 1_555
O23 C80 1_555 1_555
O24 Zn19 1_555 1_555
O25 C65 1_555 1_555
C69 C65 1_555 1_555
C70 C69 1_555 1_555
H43 C70 1_555 1_555
C71 C70 1_555 1_555
C72 C71 1_555 1_555
H44 C72 1_555 1_555
C73 C68 1_555 1_555
C74 C69 1_555 1_555
H45 C74 1_555 1_555
C75 C71 1_555 1_555
C80 C75 1_555 1_555
C82 H46 1_555 1_555
H47 C82 1_555 1_555
H48 C82 1_555 1_555
C83 H49 1_555 1_555
H50 C83 1_555 1_555
H51 C83 1_555 1_555
C93 C82 1_555 1_555
C94 C83 1_555 1_555
Zn16 O25 1_555 1_555
Zn24 O20 1_555 1_555
C44 C45 1_555 1_555
C45 C46 1_555 1_555
C57 C58 1_555 1_555
C72 C73 1_555 1_555
C73 C74 1_555 1_555
C92 C93 1_555 1_555
C93 C94 1_555 1_555
C94 C95 1_555 1_555
C44 H60 1_555 1_555
O18 H61 1_555 1_555
O23 H63 1_555 1_555
C92 H66 1_555 1_555
Zn1 O4 1_555 1_555
Zn2 O6 1_555 1_555
O6 Zn1 1_555 1_555
Zn5 O5 1_555 1_555
C33 O14 1_555 1_555
O13 C48 1_555 1_555
O14 Zn15 1_555 1_555
O15 C33 1_555 1_555
O16 Zn1 1_555 1_555
C36 O16 1_555 1_555
C37 C33 1_555 1_555
C38 C37 1_555 1_555
H25 C38 1_555 1_555
C39 C38 1_555 1_555
C40 C39 1_555 1_555
H26 C40 1_555 1_555
C41 C36 1_555 1_555
C42 C37 1_555 1_555
H27 C42 1_555 1_555
O17 C36 1_555 1_555
C43 C39 1_555 1_555
C48 C43 1_555 1_555
C50 H28 1_555 1_555
H29 C50 1_555 1_555
H30 C50 1_555 1_555
C51 H31 1_555 1_555
H33 C51 1_555 1_555
C61 C50 1_555 1_555
C62 C51 1_555 1_555
Zn6 O6 1_555 1_555
O26 Zn1 1_555 1_555
O27 Zn2 1_555 1_555
Zn17 O15 1_555 1_555
O34 Zn2 1_555 1_555
O35 Zn5 1_555 1_555
O36 Zn6 1_555 1_555
O38 Zn5 1_555 1_555
O39 Zn6 1_555 1_555
O40 Zn2 1_555 1_555
O6 Zn5 1_555 1_555
C40 C41 1_555 1_555
C41 C42 1_555 1_555
O17 Zn6 1_555 1_555
C60 C61 1_555 1_555
C61 C62 1_555 1_555
C62 C63 1_555 1_555
O13 H59 1_555 1_555
C60 H62 1_555 1_555
C66 H37 1_555 1_555
H38 C66 1_555 1_555
H39 C66 1_555 1_555
C67 H40 1_555 1_555
H41 C67 1_555 1_555
H42 C67 1_555 1_555
C77 C66 1_555 1_555
C78 C67 1_555 1_555
C79 C78 1_555 1_555
C81 O29 1_555 1_555
O28 C96 1_555 1_555
O29 Zn23 1_555 1_555
O30 C81 1_555 1_555
O31 C84 1_555 1_555
C84 C89 1_555 1_555
C85 C81 1_555 1_555
C86 C85 1_555 1_555
H52 C86 1_555 1_555
C87 C86 1_555 1_555
C88 C87 1_555 1_555
H53 C88 1_555 1_555
C89 C88 1_555 1_555
C90 C85 1_555 1_555
H54 C90 1_555 1_555
O32 C84 1_555 1_555
C91 C87 1_555 1_555
C96 C91 1_555 1_555
Zn9 O31 1_555 1_555
Zn12 O30 1_555 1_555
Zn18 O32 1_555 1_555
C76 C77 1_555 1_555
C77 C78 1_555 1_555
C89 C90 1_555 1_555
C76 H64 1_555 1_555
O28 H65 1_555 1_555
C1 O2 1_555 1_555
C2 H1 1_555 1_555
H2 C2 1_555 1_555
H3 C2 1_555 1_555
C3 H4 1_555 1_555
H6 C3 1_555 1_555
O1 C16 1_555 1_555
O2 Zn7 1_555 1_555
O3 C1 1_555 1_555
C4 C9 1_555 1_555
C5 C1 1_555 1_555
C6 C5 1_555 1_555
H7 C6 1_555 1_555
C7 C6 1_555 1_555
C8 C7 1_555 1_555
H8 C8 1_555 1_555
C9 C8 1_555 1_555
C10 C5 1_555 1_555
H9 C10 1_555 1_555
C11 C7 1_555 1_555
C12 C11 1_555 1_555
C13 C2 1_555 1_555
C14 C3 1_555 1_555
C15 C14 1_555 1_555
C16 C11 1_555 1_555
C17 O8 1_555 1_555
C18 H10 1_555 1_555
H11 C18 1_555 1_555
H12 C18 1_555 1_555
C19 H13 1_555 1_555
H15 C19 1_555 1_555
O7 C32 1_555 1_555
O8 Zn22 1_555 1_555
O9 C17 1_555 1_555
O10 C20 1_555 1_555
C20 C25 1_555 1_555
C21 C17 1_555 1_555
C22 C21 1_555 1_555
H16 C22 1_555 1_555
C23 C22 1_555 1_555
C24 C23 1_555 1_555
H17 C24 1_555 1_555
C25 C24 1_555 1_555
C26 C21 1_555 1_555
H18 C26 1_555 1_555
O11 C20 1_555 1_555
C27 C23 1_555 1_555
C28 C27 1_555 1_555
C29 C18 1_555 1_555
C30 C19 1_555 1_555
C31 C15 1_555 1_555
C32 C27 1_555 1_555
Zn3 O10 1_555 1_555
Zn17 O12 1_555 1_555
O12 Zn3 1_555 1_555
Zn7 O42 1_555 1_555
Zn8 O3 1_555 1_555
Zn15 O12 1_555 1_555
Zn20 O11 1_555 1_555
Zn21 O9 1_555 1_555
O33 Zn17 1_555 1_555
O37 Zn8 1_555 1_555
O43 Zn3 1_555 1_555
O44 Zn3 1_555 1_555
O45 Zn8 1_555 1_555
O46 Zn17 1_555 1_555
O47 Zn7 1_555 1_555
O48 Zn7 1_555 1_555
C9 C10 1_555 1_555
C12 C13 1_555 1_555
C13 C14 1_555 1_555
C15 C16 1_555 1_555
C25 C26 1_555 1_555
C28 C29 1_555 1_555
C29 C30 1_555 1_555
C30 C31 1_555 1_555
C31 C32 1_555 1_555
O12 Zn20 1_555 1_555
Zn8 O48 1_555 1_555
C12 H55 1_555 1_555
O1 H56 1_555 1_555
O7 H57 1_555 1_555
C28 H58 1_555 1_555
Zn10 O21_2 1_555 1_555
Zn16 O22_2 1_555 1_555
C34_2 H19_2 1_555 1_555
H20_2 C34_2 1_555 1_555
H21_2 C34_2 1_555 1_555
C35_2 H22_2 1_555 1_555
H24_2 C35_2 1_555 1_555
C45_2 C34_2 1_555 1_555
C46_2 C35_2 1_555 1_555
C47_2 C46_2 1_555 1_555
C49_2 O19_2 1_555 1_555
O18_2 C64_2 1_555 1_555
O19_2 Zn12 1_555 1_555
O20_2 C49_2 1_555 1_555
C52_2 C57_2 1_555 1_555
C53_2 C49_2 1_555 1_555
C54_2 C53_2 1_555 1_555
H34_2 C54_2 1_555 1_555
C55_2 C54_2 1_555 1_555
C56_2 C55_2 1_555 1_555
H35_2 C56_2 1_555 1_555
C57_2 C56_2 1_555 1_555
C58_2 C53_2 1_555 1_555
H36_2 C58_2 1_555 1_555
C59_2 C55_2 1_555 1_555
C64_2 C59_2 1_555 1_555
C65_2 O24_2 1_555 1_555
O23_2 C80_2 1_555 1_555
O24_2 Zn13 1_555 1_555
O25_2 C65_2 1_555 1_555
C69_2 C65_2 1_555 1_555
C70_2 C69_2 1_555 1_555
H43_2 C70_2 1_555 1_555
C71_2 C70_2 1_555 1_555
C72_2 C71_2 1_555 1_555
H44_2 C72_2 1_555 1_555
C73_2 C68_2 1_555 1_555
C74_2 C69_2 1_555 1_555
H45_2 C74_2 1_555 1_555
C75_2 C71_2 1_555 1_555
C80_2 C75_2 1_555 1_555
C82_2 H46_2 1_555 1_555
H47_2 C82_2 1_555 1_555
H48_2 C82_2 1_555 1_555
C83_2 H49_2 1_555 1_555
H50_2 C83_2 1_555 1_555
H51_2 C83_2 1_555 1_555
C93_2 C82_2 1_555 1_555
C94_2 C83_2 1_555 1_555
Zn19 O25_2 1_555 1_555
Zn24_2 O20_2 1_555 1_555
C44_2 C45_2 1_555 1_555
C45_2 C46_2 1_555 1_555
C57_2 C58_2 1_555 1_555
C72_2 C73_2 1_555 1_555
C73_2 C74_2 1_555 1_555
C92_2 C93_2 1_555 1_555
C93_2 C94_2 1_555 1_555
C94_2 C95_2 1_555 1_555
C44_2 H60_2 1_555 1_555
O18_2 H61_2 1_555 1_555
O23_2 H63_2 1_555 1_555
C92_2 H66_2 1_555 1_555
C66_2 H37_2 1_555 1_555
H38_2 C66_2 1_555 1_555
H39_2 C66_2 1_555 1_555
C67_2 H40_2 1_555 1_555
H41_2 C67_2 1_555 1_555
H42_2 C67_2 1_555 1_555
C77_2 C66_2 1_555 1_555
C78_2 C67_2 1_555 1_555
C79_2 C78_2 1_555 1_555
C81_2 O36 1_555 1_555
O28_2 C96_2 1_555 1_555
O40 C81_2 1_555 1_555
O44 C84_2 1_555 1_555
C84_2 C89_2 1_555 1_555
C85_2 C81_2 1_555 1_555
C86_2 C85_2 1_555 1_555
H52_2 C86_2 1_555 1_555
C87_2 C86_2 1_555 1_555
C88_2 C87_2 1_555 1_555
H53_2 C88_2 1_555 1_555
C89_2 C88_2 1_555 1_555
C90_2 C85_2 1_555 1_555
H54_2 C90_2 1_555 1_555
O32_2 C84_2 1_555 1_555
C91_2 C87_2 1_555 1_555
C96_2 C91_2 1_555 1_555
Zn15 O32_2 1_555 1_555
C76_2 C77_2 1_555 1_555
C77_2 C78_2 1_555 1_555
C89_2 C90_2 1_555 1_555
C76_2 H64_2 1_555 1_555
O28_2 H65_2 1_555 1_555
Zn1_2 O4_2 1_555 1_555
Zn11 O6_2 1_555 1_555
O6_2 Zn1_2 1_555 1_555
Zn24 O5_2 1_555 1_555
C33_2 O14_2 1_555 1_555
O13_2 C48_2 1_555 1_555
O14_2 Zn15_2 1_555 1_555
O15_2 C33_2 1_555 1_555
O16_2 Zn1_2 1_555 1_555
C36_2 O16_2 1_555 1_555
C37_2 C33_2 1_555 1_555
C38_2 C37_2 1_555 1_555
H25_2 C38_2 1_555 1_555
C39_2 C38_2 1_555 1_555
C40_2 C39_2 1_555 1_555
H26_2 C40_2 1_555 1_555
C41_2 C36_2 1_555 1_555
C42_2 C37_2 1_555 1_555
H27_2 C42_2 1_555 1_555
O17_2 C36_2 1_555 1_555
C43_2 C39_2 1_555 1_555
C48_2 C43_2 1_555 1_555
C50_2 H28_2 1_555 1_555
H29_2 C50_2 1_555 1_555
H30_2 C50_2 1_555 1_555
C51_2 H31_2 1_555 1_555
H33_2 C51_2 1_555 1_555
C61_2 C50_2 1_555 1_555
C62_2 C51_2 1_555 1_555
Zn6_2 O6_2 1_555 1_555
O26_2 Zn1_2 1_555 1_555
O27_2 Zn11 1_555 1_555
Zn17_2 O15_2 1_555 1_555
O35_2 Zn24 1_555 1_555
O36_2 Zn6_2 1_555 1_555
O39_2 Zn6_2 1_555 1_555
O40_2 Zn11 1_555 1_555
O6_2 Zn24 1_555 1_555
C40_2 C41_2 1_555 1_555
C41_2 C42_2 1_555 1_555
O17_2 Zn6_2 1_555 1_555
C60_2 C61_2 1_555 1_555
C61_2 C62_2 1_555 1_555
C62_2 C63_2 1_555 1_555
O13_2 H59_2 1_555 1_555
C60_2 H62_2 1_555 1_555
C1_2 O33 1_555 1_555
C2_2 H1_2 1_555 1_555
H2_2 C2_2 1_555 1_555
H3_2 C2_2 1_555 1_555
C3_2 H4_2 1_555 1_555
H6_2 C3_2 1_555 1_555
O1_2 C16_2 1_555 1_555
O3_2 C1_2 1_555 1_555
C4_2 C9_2 1_555 1_555
C5_2 C1_2 1_555 1_555
C6_2 C5_2 1_555 1_555
H7_2 C6_2 1_555 1_555
C7_2 C6_2 1_555 1_555
C8_2 C7_2 1_555 1_555
H8_2 C8_2 1_555 1_555
C9_2 C8_2 1_555 1_555
C10_2 C5_2 1_555 1_555
H9_2 C10_2 1_555 1_555
C11_2 C7_2 1_555 1_555
C12_2 C11_2 1_555 1_555
C13_2 C2_2 1_555 1_555
C14_2 C3_2 1_555 1_555
C15_2 C14_2 1_555 1_555
C16_2 C11_2 1_555 1_555
C17_2 O8_2 1_555 1_555
C18_2 H10_2 1_555 1_555
H11_2 C18_2 1_555 1_555
H12_2 C18_2 1_555 1_555
C19_2 H13_2 1_555 1_555
H15_2 C19_2 1_555 1_555
O7_2 C32_2 1_555 1_555
O8_2 Zn22_2 1_555 1_555
O9_2 C17_2 1_555 1_555
O10_2 C20_2 1_555 1_555
C20_2 C25_2 1_555 1_555
C21_2 C17_2 1_555 1_555
C22_2 C21_2 1_555 1_555
H16_2 C22_2 1_555 1_555
C23_2 C22_2 1_555 1_555
C24_2 C23_2 1_555 1_555
H17_2 C24_2 1_555 1_555
C25_2 C24_2 1_555 1_555
C26_2 C21_2 1_555 1_555
H18_2 C26_2 1_555 1_555
O11_2 C20_2 1_555 1_555
C27_2 C23_2 1_555 1_555
C28_2 C27_2 1_555 1_555
C29_2 C18_2 1_555 1_555
C30_2 C19_2 1_555 1_555
C31_2 C15_2 1_555 1_555
C32_2 C27_2 1_555 1_555
Zn3_2 O10_2 1_555 1_555
Zn17_2 O12_2 1_555 1_555
O12_2 Zn3_2 1_555 1_555
Zn20 O3_2 1_555 1_555
Zn15_2 O12_2 1_555 1_555
Zn20_2 O11_2 1_555 1_555
Zn22 O9_2 1_555 1_555
O33_2 Zn17_2 1_555 1_555
O37_2 Zn20 1_555 1_555
O43_2 Zn3_2 1_555 1_555
O44_2 Zn3_2 1_555 1_555
O46_2 Zn17_2 1_555 1_555
C9_2 C10_2 1_555 1_555
C12_2 C13_2 1_555 1_555
C13_2 C14_2 1_555 1_555
C15_2 C16_2 1_555 1_555
C25_2 C26_2 1_555 1_555
C28_2 C29_2 1_555 1_555
C29_2 C30_2 1_555 1_555
C30_2 C31_2 1_555 1_555
C31_2 C32_2 1_555 1_555
O12_2 Zn20_2 1_555 1_555
C12_2 H55_2 1_555 1_555
O1_2 H56_2 1_555 1_555
O7_2 H57_2 1_555 1_555
C28_2 H58_2 1_555 1_555
Zn10 O21_3 1_555 1_555
Zn19 O22_3 1_555 1_555
C34_3 H19_3 1_555 1_555
H20_3 C34_3 1_555 1_555
H21_3 C34_3 1_555 1_555
C35_3 H22_3 1_555 1_555
H24_3 C35_3 1_555 1_555
C45_3 C34_3 1_555 1_555
C46_3 C35_3 1_555 1_555
C47_3 C46_3 1_555 1_555
C49_3 O34 1_555 1_555
O18_3 C64_3 1_555 1_555
O38 C49_3 1_555 1_555
C52_3 C57_3 1_555 1_555
C53_3 C49_3 1_555 1_555
C54_3 C53_3 1_555 1_555
H34_3 C54_3 1_555 1_555
C55_3 C54_3 1_555 1_555
C56_3 C55_3 1_555 1_555
H35_3 C56_3 1_555 1_555
C57_3 C56_3 1_555 1_555
C58_3 C53_3 1_555 1_555
H36_3 C58_3 1_555 1_555
C59_3 C55_3 1_555 1_555
C64_3 C59_3 1_555 1_555
C65_3 O24_3 1_555 1_555
O23_3 C80_3 1_555 1_555
O24_3 Zn16 1_555 1_555
O25_3 C65_3 1_555 1_555
C69_3 C65_3 1_555 1_555
C70_3 C69_3 1_555 1_555
H43_3 C70_3 1_555 1_555
C71_3 C70_3 1_555 1_555
C72_3 C71_3 1_555 1_555
H44_3 C72_3 1_555 1_555
C73_3 C68_3 1_555 1_555
C74_3 C69_3 1_555 1_555
H45_3 C74_3 1_555 1_555
C75_3 C71_3 1_555 1_555
C80_3 C75_3 1_555 1_555
C82_3 H46_3 1_555 1_555
H47_3 C82_3 1_555 1_555
H48_3 C82_3 1_555 1_555
C83_3 H49_3 1_555 1_555
H50_3 C83_3 1_555 1_555
H51_3 C83_3 1_555 1_555
C93_3 C82_3 1_555 1_555
C94_3 C83_3 1_555 1_555
Zn13 O25_3 1_555 1_555
C44_3 C45_3 1_555 1_555
C45_3 C46_3 1_555 1_555
C57_3 C58_3 1_555 1_555
C72_3 C73_3 1_555 1_555
C73_3 C74_3 1_555 1_555
C92_3 C93_3 1_555 1_555
C93_3 C94_3 1_555 1_555
C94_3 C95_3 1_555 1_555
C44_3 H60_3 1_555 1_555
O18_3 H61_3 1_555 1_555
O23_3 H63_3 1_555 1_555
C92_3 H66_3 1_555 1_555
Zn1_3 O4_3 1_555 1_555
Zn12 O6_3 1_555 1_555
O6_3 Zn1_3 1_555 1_555
Zn24_2 O5_3 1_555 1_555
C33_3 O14_3 1_555 1_555
O13_3 C48_3 1_555 1_555
O14_3 Zn18 1_555 1_555
O42 C33_3 1_555 1_555
O16_3 Zn1_3 1_555 1_555
C36_3 O16_3 1_555 1_555
C37_3 C33_3 1_555 1_555
C38_3 C37_3 1_555 1_555
H25_3 C38_3 1_555 1_555
C39_3 C38_3 1_555 1_555
C40_3 C39_3 1_555 1_555
H26_3 C40_3 1_555 1_555
C41_3 C36_3 1_555 1_555
C42_3 C37_3 1_555 1_555
H27_3 C42_3 1_555 1_555
O17_3 C36_3 1_555 1_555
C43_3 C39_3 1_555 1_555
C48_3 C43_3 1_555 1_555
C50_3 H28_3 1_555 1_555
H29_3 C50_3 1_555 1_555
H30_3 C50_3 1_555 1_555
C51_3 H31_3 1_555 1_555
H33_3 C51_3 1_555 1_555
C61_3 C50_3 1_555 1_555
C62_3 C51_3 1_555 1_555
Zn23 O6_3 1_555 1_555
O26_3 Zn1_3 1_555 1_555
O27_3 Zn12 1_555 1_555
O35_3 Zn24_2 1_555 1_555
O39_3 Zn23 1_555 1_555
O6_3 Zn24_2 1_555 1_555
C40_3 C41_3 1_555 1_555
C41_3 C42_3 1_555 1_555
O17_3 Zn23 1_555 1_555
C60_3 C61_3 1_555 1_555
C61_3 C62_3 1_555 1_555
C62_3 C63_3 1_555 1_555
O13_3 H59_3 1_555 1_555
C60_3 H62_3 1_555 1_555
C66_3 H37_3 1_555 1_555
H38_3 C66_3 1_555 1_555
H39_3 C66_3 1_555 1_555
C67_3 H40_3 1_555 1_555
H41_3 C67_3 1_555 1_555
H42_3 C67_3 1_555 1_555
C77_3 C66_3 1_555 1_555
C78_3 C67_3 1_555 1_555
C79_3 C78_3 1_555 1_555
C81_3 O36_2 1_555 1_555
O28_3 C96_3 1_555 1_555
O40_2 C81_3 1_555 1_555
O44_2 C84_3 1_555 1_555
C84_3 C89_3 1_555 1_555
C85_3 C81_3 1_555 1_555
C86_3 C85_3 1_555 1_555
H52_3 C86_3 1_555 1_555
C87_3 C86_3 1_555 1_555
C88_3 C87_3 1_555 1_555
H53_3 C88_3 1_555 1_555
C89_3 C88_3 1_555 1_555
C90_3 C85_3 1_555 1_555
H54_3 C90_3 1_555 1_555
O32_3 C84_3 1_555 1_555
C91_3 C87_3 1_555 1_555
C96_3 C91_3 1_555 1_555
Zn15_2 O32_3 1_555 1_555
C76_3 C77_3 1_555 1_555
C77_3 C78_3 1_555 1_555
C89_3 C90_3 1_555 1_555
C76_3 H64_3 1_555 1_555
O28_3 H65_3 1_555 1_555
C1_3 O33_2 1_555 1_555
C2_3 H1_3 1_555 1_555
H2_3 C2_3 1_555 1_555
H3_3 C2_3 1_555 1_555
C3_3 H4_3 1_555 1_555
H6_3 C3_3 1_555 1_555
O1_3 C16_3 1_555 1_555
O3_3 C1_3 1_555 1_555
C4_3 C9_3 1_555 1_555
C5_3 C1_3 1_555 1_555
C6_3 C5_3 1_555 1_555
H7_3 C6_3 1_555 1_555
C7_3 C6_3 1_555 1_555
C8_3 C7_3 1_555 1_555
H8_3 C8_3 1_555 1_555
C9_3 C8_3 1_555 1_555
C10_3 C5_3 1_555 1_555
H9_3 C10_3 1_555 1_555
C11_3 C7_3 1_555 1_555
C12_3 C11_3 1_555 1_555
C13_3 C2_3 1_555 1_555
C14_3 C3_3 1_555 1_555
C15_3 C14_3 1_555 1_555
C16_3 C11_3 1_555 1_555
C17_3 O8_3 1_555 1_555
C18_3 H10_3 1_555 1_555
H11_3 C18_3 1_555 1_555
H12_3 C18_3 1_555 1_555
C19_3 H13_3 1_555 1_555
H15_3 C19_3 1_555 1_555
O7_3 C32_3 1_555 1_555
O8_3 Zn21 1_555 1_555
O9_3 C17_3 1_555 1_555
O10_3 C20_3 1_555 1_555
C20_3 C25_3 1_555 1_555
C21_3 C17_3 1_555 1_555
C22_3 C21_3 1_555 1_555
H16_3 C22_3 1_555 1_555
C23_3 C22_3 1_555 1_555
C24_3 C23_3 1_555 1_555
H17_3 C24_3 1_555 1_555
C25_3 C24_3 1_555 1_555
C26_3 C21_3 1_555 1_555
H18_3 C26_3 1_555 1_555
O45 C20_3 1_555 1_555
C27_3 C23_3 1_555 1_555
C28_3 C27_3 1_555 1_555
C29_3 C18_3 1_555 1_555
C30_3 C19_3 1_555 1_555
C31_3 C15_3 1_555 1_555
C32_3 C27_3 1_555 1_555
Zn9 O10_3 1_555 1_555
O48 Zn9 1_555 1_555
Zn20_2 O3_3 1_555 1_555
Zn18 O48 1_555 1_555
Zn22_2 O9_3 1_555 1_555
O37_3 Zn20_2 1_555 1_555
O43_3 Zn9 1_555 1_555
C9_3 C10_3 1_555 1_555
C12_3 C13_3 1_555 1_555
C13_3 C14_3 1_555 1_555
C15_3 C16_3 1_555 1_555
C25_3 C26_3 1_555 1_555
C28_3 C29_3 1_555 1_555
C29_3 C30_3 1_555 1_555
C30_3 C31_3 1_555 1_555
C31_3 C32_3 1_555 1_555
C12_3 H55_3 1_555 1_555
O1_3 H56_3 1_555 1_555
O7_3 H57_3 1_555 1_555
C28_3 H58_3 1_555 1_555
C1_4 O35_3 1_555 1_555
C2_4 H1_4 1_555 1_555
H2_4 C2_4 1_555 1_555
H3_4 C2_4 1_555 1_555
C3_4 H4_4 1_555 1_555
H5_4 C3_4 1_555 1_555
H6_4 C3_4 1_555 1_555
O1_4 C16_4 1_555 1_555
O39_3 C1_4 1_555 1_555
C4_4 C9_4 1_555 1_555
C5_4 C1_4 1_555 1_555
C6_4 C5_4 1_555 1_555
H7_4 C6_4 1_555 1_555
C7_4 C6_4 1_555 1_555
C8_4 C7_4 1_555 1_555
H8_4 C8_4 1_555 1_555
C9_4 C8_4 1_555 1_555
C10_4 C5_4 1_555 1_555
H9_4 C10_4 1_555 1_555
C11_4 C7_4 1_555 1_555
C12_4 C11_4 1_555 1_555
C13_4 C2_4 1_555 1_555
C14_4 C3_4 1_555 1_555
C15_4 C14_4 1_555 1_555
C16_4 C11_4 1_555 1_555
C17_4 O37 1_555 1_555
C18_4 H10_4 1_555 1_555
H11_4 C18_4 1_555 1_555
H12_4 C18_4 1_555 1_555
C19_4 H13_4 1_555 1_555
H14_4 C19_4 1_555 1_555
H15_4 C19_4 1_555 1_555
O7_4 C32_4 1_555 1_555
O9_4 C17_4 1_555 1_555
O10_4 C20_4 1_555 1_555
C20_4 C25_4 1_555 1_555
C21_4 C17_4 1_555 1_555
C22_4 C21_4 1_555 1_555
H16_4 C22_4 1_555 1_555
C23_4 C22_4 1_555 1_555
C24_4 C23_4 1_555 1_555
H17_4 C24_4 1_555 1_555
C25_4 C24_4 1_555 1_555
C26_4 C21_4 1_555 1_555
H18_4 C26_4 1_555 1_555
O11_3 C20_4 1_555 1_555
C27_4 C23_4 1_555 1_555
C28_4 C27_4 1_555 1_555
C29_4 C18_4 1_555 1_555
C30_4 C19_4 1_555 1_555
C31_4 C15_4 1_555 1_555
C32_4 C27_4 1_555 1_555
Zn3_3 O10_4 1_555 1_555
Zn22 O12_3 1_555 1_555
O12_3 Zn3_3 1_555 1_555
Zn22_2 O12_3 1_555 1_555
Zn21 O11_3 1_555 1_555
Zn18 O9_4 1_555 1_555
O43_4 Zn3_3 1_555 1_555
O44_3 Zn3_3 1_555 1_555
O46_3 Zn22 1_555 1_555
C9_4 C10_4 1_555 1_555
C12_4 C13_4 1_555 1_555
C13_4 C14_4 1_555 1_555
C15_4 C16_4 1_555 1_555
C25_4 C26_4 1_555 1_555
C28_4 C29_4 1_555 1_555
C29_4 C30_4 1_555 1_555
C30_4 C31_4 1_555 1_555
C31_4 C32_4 1_555 1_555
O12_3 Zn21 1_555 1_555
C12_4 H55_4 1_555 1_555
O1_4 H56_4 1_555 1_555
O7_4 H57_4 1_555 1_555
C28_4 H58_4 1_555 1_555
O40_3 Zn15_2 1_555 1_555
O47_2 Zn22_2 1_555 1_555
C65_4 O35 1_555 1_555
C66_4 H37_4 1_555 1_555
H38_4 C66_4 1_555 1_555
H39_4 C66_4 1_555 1_555
C67_4 H40_4 1_555 1_555
H41_4 C67_4 1_555 1_555
H42_4 C67_4 1_555 1_555
O23_4 C80_4 1_555 1_555
O39 C65_4 1_555 1_555
C69_4 C65_4 1_555 1_555
C70_4 C69_4 1_555 1_555
H43_4 C70_4 1_555 1_555
C71_4 C70_4 1_555 1_555
C72_4 C71_4 1_555 1_555
H44_4 C72_4 1_555 1_555
C73_4 C68_4 1_555 1_555
C74_4 C69_4 1_555 1_555
H45_4 C74_4 1_555 1_555
C75_4 C71_4 1_555 1_555
C76_4 C75_4 1_555 1_555
C77_4 C66_4 1_555 1_555
C78_4 C67_4 1_555 1_555
C79_4 C78_4 1_555 1_555
C80_4 C75_4 1_555 1_555
C81_4 O37_2 1_555 1_555
C82_4 H46_4 1_555 1_555
H47_4 C82_4 1_555 1_555
H48_4 C82_4 1_555 1_555
C83_4 H49_4 1_555 1_555
H50_4 C83_4 1_555 1_555
H51_4 C83_4 1_555 1_555
O28_4 C96_4 1_555 1_555
O30_2 C81_4 1_555 1_555
O43_4 C84_4 1_555 1_555
C84_4 C89_4 1_555 1_555
C85_4 C81_4 1_555 1_555
C86_4 C85_4 1_555 1_555
H52_4 C86_4 1_555 1_555
C87_4 C86_4 1_555 1_555
C88_4 C87_4 1_555 1_555
H53_4 C88_4 1_555 1_555
C89_4 C88_4 1_555 1_555
C90_4 C85_4 1_555 1_555
H54_4 C90_4 1_555 1_555
O46_3 C84_4 1_555 1_555
C91_4 C87_4 1_555 1_555
C92_4 C91_4 1_555 1_555
C93_4 C82_4 1_555 1_555
C94_4 C83_4 1_555 1_555
C95_4 C79_4 1_555 1_555
C96_4 C91_4 1_555 1_555
Zn15 O30_2 1_555 1_555
C72_4 C73_4 1_555 1_555
C73_4 C74_4 1_555 1_555
C76_4 C77_4 1_555 1_555
C77_4 C78_4 1_555 1_555
C79_4 C80_4 1_555 1_555
C89_4 C90_4 1_555 1_555
C92_4 C93_4 1_555 1_555
C93_4 C94_4 1_555 1_555
C94_4 C95_4 1_555 1_555
C95_4 C96_4 1_555 1_555
O23_4 H63_4 1_555 1_555
C76_4 H64_4 1_555 1_555
O28_4 H65_4 1_555 1_555
C92_4 H66_4 1_555 1_555
Zn13 O6_4 1_555 1_555
O6_4 Zn10 1_555 1_555
Zn16 O6_4 1_555 1_555
O6_4 Zn19 1_555 1_555
C1_5 O35_2 1_555 1_555
C2_5 H1_5 1_555 1_555
H2_5 C2_5 1_555 1_555
H3_5 C2_5 1_555 1_555
C3_5 H4_5 1_555 1_555
H5_5 C3_5 1_555 1_555
H6_5 C3_5 1_555 1_555
O1_5 C16_5 1_555 1_555
O39_2 C1_5 1_555 1_555
C4_5 C9_5 1_555 1_555
C5_5 C1_5 1_555 1_555
C6_5 C5_5 1_555 1_555
H7_5 C6_5 1_555 1_555
C7_5 C6_5 1_555 1_555
C8_5 C7_5 1_555 1_555
H8_5 C8_5 1_555 1_555
C9_5 C8_5 1_555 1_555
C10_5 C5_5 1_555 1_555
H9_5 C10_5 1_555 1_555
C11_5 C7_5 1_555 1_555
C12_5 C11_5 1_555 1_555
C13_5 C2_5 1_555 1_555
C14_5 C3_5 1_555 1_555
C15_5 C14_5 1_555 1_555
C16_5 C11_5 1_555 1_555
C17_5 O37_3 1_555 1_555
C18_5 H10_5 1_555 1_555
H11_5 C18_5 1_555 1_555
H12_5 C18_5 1_555 1_555
C19_5 H13_5 1_555 1_555
H14_5 C19_5 1_555 1_555
H15_5 C19_5 1_555 1_555
O7_5 C32_5 1_555 1_555
O40_3 C17_5 1_555 1_555
O44_3 C20_5 1_555 1_555
C20_5 C25_5 1_555 1_555
C21_5 C17_5 1_555 1_555
C22_5 C21_5 1_555 1_555
H16_5 C22_5 1_555 1_555
C23_5 C22_5 1_555 1_555
C24_5 C23_5 1_555 1_555
H17_5 C24_5 1_555 1_555
C25_5 C24_5 1_555 1_555
C26_5 C21_5 1_555 1_555
H18_5 C26_5 1_555 1_555
O47_2 C20_5 1_555 1_555
C27_5 C23_5 1_555 1_555
C28_5 C27_5 1_555 1_555
C29_5 C18_5 1_555 1_555
C30_5 C19_5 1_555 1_555
C31_5 C15_5 1_555 1_555
C32_5 C27_5 1_555 1_555
C9_5 C10_5 1_555 1_555
C12_5 C13_5 1_555 1_555
C13_5 C14_5 1_555 1_555
C15_5 C16_5 1_555 1_555
C25_5 C26_5 1_555 1_555
C28_5 C29_5 1_555 1_555
C29_5 C30_5 1_555 1_555
C30_5 C31_5 1_555 1_555
C31_5 C32_5 1_555 1_555
C12_5 H55_5 1_555 1_555
O1_5 H56_5 1_555 1_555
O7_5 H57_5 1_555 1_555
C28_5 H58_5 1_555 1_555

#END
