
###############################################################################
#
# This file contains modified crystal structure data generated from the
# MOF subset of the Cambridge Structural Database (CSD) v543 
# hosted by the Cambridge Crystallographic Data Centre (CCDC).
#
# This work is licensed under the Creative Commons
# Attribution-NonCommercial-ShareAlike 4.0 International License.
# To view a copy of this license, visit
# http://creativecommons.org/licenses/by-nc-sa/4.0/
# or send a letter to
# Creative Commons, PO Box 1866, Mountain View, CA 94042, USA.
#
# CIF created using the CSD Python API on 29 September 2022
# The structure has been converted into the P1 space group
# The structure has a 3D framework
# The original CSD entry ONULOA is in the orthorhombic crystal system
# The framework has been calculated to contain at least 10.0% void space
# The void calculation uses a probe of radius 1.32A, grid spacing 0.4
#
###############################################################################

data_ONULOA
_chemical_formula_moiety         '(C368 H240 Co16 N16 O58)n'
_symmetry_cell_setting           triclinic
_symmetry_space_group_name_H-M   'P 1'
_symmetry_Int_Tables_number      1
_space_group_name_Hall           'P 1'
loop_
_symmetry_equiv_pos_site_id
_symmetry_equiv_pos_as_xyz
1 x,y,z
_cell_length_a                   11.632(2)
_cell_length_b                   27.860(6)
_cell_length_c                   31.017(7)
_cell_angle_alpha                90
_cell_angle_beta                 90
_cell_angle_gamma                90
_cell_volume                     10051.6
loop_
_atom_site_label
_atom_site_type_symbol
_atom_site_fract_x
_atom_site_fract_y
_atom_site_fract_z
O5 O 0.0996(2) 0.29818(8) 0.03777(7)
C25 C 0.0102(3) 0.52638(11) 0.00117(11)
C27 C 0.0208(3) 0.54931(12) 0.04048(11)
C31 C 0.0348(3) 0.59885(12) 0.04306(11)
H17 H 0.0184 0.5313 0.0657
N2 N 0.0387(2) 0.62610(10) 0.00717(9)
C36 C 0.0454(4) 0.62329(13) 0.08566(11)
Co3 Co 0.03806(4) 0.700251(15) 0.005217(13)
H23 H 0.0312 0.6006 0.1083
H24 H 0.1215 0.6362 0.0887
O6 O 0.1735(2) 0.71712(8) 0.04371(7)
Co4 Co 0.96194(4) 0.200251(15) 0.005217(13)
O1 O 0.0996(2) 0.20182(8) 0.96223(7)
C1 C 0.1152(3) 0.23922(12) 0.94045(10)
O2 O 0.0700(2) 0.27949(8) 0.94811(7)
C2 C 0.1932(3) 0.23699(12) 0.90205(10)
C3 C 0.2707(3) 0.20004(13) 0.89677(11)
C4 C 0.1861(3) 0.27234(14) 0.87113(12)
C5 C 0.3420(3) 0.19900(14) 0.86095(11)
H1 H 0.2753 0.1758 0.9173
C6 C 0.2546(3) 0.27041(15) 0.83458(11)
H2 H 0.1349 0.2977 0.8748
C9 C 0.3337(3) 0.23361(13) 0.82946(10)
H3 H 0.3960 0.1746 0.8582
H4 H 0.2474 0.2939 0.8134
C13 C 0.4038(3) 0.23188(13) 0.78931(10)
H7 H 0.0097 0.3511 0.9126
C15 C 0.5248(3) 0.22768(13) 0.78924(10)
C16 C 0.3471(4) 0.23395(19) 0.7500
C17 C 0.5953(3) 0.23016(13) 0.82922(10)
C18 C 0.5813(4) 0.22540(18) 0.7500
H11 H 0.2675 0.2369 0.7500
C19 C 0.5851(3) 0.26867(15) 0.85751(12)
C20 C 0.6771(3) 0.19585(13) 0.83778(11)
H12 H 0.6609 0.2222 0.7500
H13 H 0.5283 0.2916 0.8528
C21 C 0.6570(3) 0.27353(14) 0.89224(12)
C22 C 0.7462(3) 0.19923(13) 0.87361(11)
H14 H 0.6859 0.1700 0.8191
C23 C 0.7382(3) 0.23795(11) 0.90083(10)
H15 H 0.6517 0.3004 0.9100
H16 H 0.7989 0.1750 0.8795
C24 C 0.8158(3) 0.24202(10) 0.93916(10)
C26 C 0.4038(3) 0.23188(13) 0.71069(10)
C28 C 0.0189(3) 0.55511(12) 0.96484(11)
C29 C 0.5248(3) 0.22768(13) 0.71076(10)
C30 C 0.3337(3) 0.23361(13) 0.67054(10)
C32 C 0.0324(3) 0.60351(12) 0.96912(11)
H18 H 0.0155 0.5414 0.9375
C33 C 0.5953(3) 0.23016(13) 0.67078(10)
C34 C 0.3420(3) 0.19900(14) 0.63905(11)
C35 C 0.2546(3) 0.27041(15) 0.66542(11)
H19 H 0.0375 0.6219 0.9442
C37 C 0.5851(3) 0.26867(15) 0.64249(12)
C38 C 0.6771(3) 0.19585(13) 0.66222(11)
H20 H 0.3960 0.1746 0.6418
C39 C 0.2707(3) 0.20004(13) 0.60323(11)
H21 H 0.2474 0.2939 0.6866
C40 C 0.1861(3) 0.27234(14) 0.62887(12)
H25 H 0.5283 0.2916 0.6472
C41 C 0.6570(3) 0.27353(14) 0.60776(12)
C42 C 0.7462(3) 0.19923(13) 0.62639(11)
H26 H 0.6859 0.1700 0.6809
C43 C 0.1932(3) 0.23699(12) 0.59795(10)
H27 H 0.2753 0.1758 0.5827
H28 H 0.1349 0.2977 0.6252
O7 O 0.1357(2) 0.70436(8) 0.95147(7)
O10 O 0.8643(2) 0.20436(8) 0.95147(7)
O11 O 0.8265(2) 0.28288(8) 0.95629(7)
C44 C 0.7382(3) 0.23795(11) 0.59917(10)
H29 H 0.6517 0.3004 0.5900
H30 H 0.7989 0.1750 0.6205
C45 C 0.1152(3) 0.23922(12) 0.55955(10)
Co5 Co 0.96194(4) 0.299749(15) 0.994783(13)
C46 C 0.8158(3) 0.24202(10) 0.56084(10)
O12 O 0.0996(2) 0.20182(8) 0.53777(7)
O13 O 0.0700(2) 0.27949(8) 0.55189(7)
O14 O 0.8643(2) 0.20436(8) 0.54853(7)
O15 O 0.8265(2) 0.28288(8) 0.54371(7)
Co8 Co 0.96194(4) 0.200251(15) 0.494783(13)
Co9 Co 0.96194(4) 0.299749(15) 0.505217(13)
O4 O 0.8643(2) 0.29564(8) 0.04853(7)
C8 C 0.9676(3) 0.39649(12) 0.03088(11)
C12 C 0.9811(3) 0.44489(12) 0.03516(11)
H5 H 0.9625 0.3781 0.0558
H10 H 0.9845 0.4586 0.0625
H22 H 0.9903 0.6489 0.0874
O9 O 0.9300(2) 0.72051(8) 0.05189(7)
N1 N 0.9613(2) 0.37390(10) 0.99283(9)
C7 C 0.9652(3) 0.40115(12) 0.95694(11)
C10 C 0.9546(4) 0.37671(13) 0.91434(11)
C11 C 0.9792(3) 0.45069(12) 0.95952(11)
H6 H 0.8785 0.3638 0.9113
H8 H 0.9688 0.3994 0.8917
C14 C 0.9898(3) 0.47362(11) 0.99883(11)
H9 H 0.9816 0.4687 0.9343
O8 O 0.9004(2) 0.70182(8) 0.96223(7)
Co1 Co 0.03806(4) 0.799749(15) 0.505217(13)
O3 O 0.1735(2) 0.71712(8) 0.45629(7)
O4_2 O 0.1357(2) 0.70436(8) 0.54853(7)
N1_2 N 0.0387(2) 0.62610(10) 0.49283(9)
C7_2 C 0.0348(3) 0.59885(12) 0.45694(11)
C8_2 C 0.0324(3) 0.60351(12) 0.53088(11)
C10_2 C 0.0454(4) 0.62329(13) 0.41434(11)
C11_2 C 0.0208(3) 0.54931(12) 0.45952(11)
C12_2 C 0.0189(3) 0.55511(12) 0.53516(11)
H5_2 H 0.0375 0.6219 0.5558
H6_2 H 0.1215 0.6362 0.4113
H8_2 H 0.0312 0.6006 0.3917
C14_2 C 0.0102(3) 0.52638(11) 0.49883(11)
H9_2 H 0.0184 0.5313 0.4343
H10_2 H 0.0155 0.5414 0.5625
Co2 Co 0.03806(4) 0.700251(15) 0.494783(13)
H22_2 H 0.0097 0.3511 0.5874
O8_2 O 0.0996(2) 0.29818(8) 0.46223(7)
Co6 Co 0.03806(4) 0.799749(15) 0.994783(13)
O1_2 O 0.9004(2) 0.79818(8) 0.46223(7)
C1_2 C 0.8848(3) 0.76078(12) 0.44045(10)
O2_2 O 0.9300(2) 0.72051(8) 0.44811(7)
C2_2 C 0.8068(3) 0.76301(12) 0.40205(10)
C3_2 C 0.7293(3) 0.79996(13) 0.39677(11)
C4_2 C 0.8139(3) 0.72766(14) 0.37113(12)
C5_2 C 0.6580(3) 0.80100(14) 0.36095(11)
H1_2 H 0.7247 0.8242 0.4173
C6_2 C 0.7454(3) 0.72959(15) 0.33458(11)
H2_2 H 0.8651 0.7023 0.3748
C9_2 C 0.6663(3) 0.76639(13) 0.32946(10)
H3_2 H 0.6040 0.8254 0.3582
H4_2 H 0.7526 0.7061 0.3134
C13_2 C 0.5962(3) 0.76812(13) 0.28931(10)
H7_2 H 0.9903 0.6489 0.4126
C15_2 C 0.4752(3) 0.77232(13) 0.28924(10)
C16_2 C 0.6529(4) 0.76605(19) 0.2500
C17_2 C 0.4047(3) 0.76984(13) 0.32922(10)
C18_2 C 0.4187(4) 0.77460(18) 0.2500
H11_2 H 0.7325 0.7631 0.2500
C19_2 C 0.4149(3) 0.73133(15) 0.35751(12)
C20_2 C 0.3229(3) 0.80415(13) 0.33778(11)
H12_2 H 0.3391 0.7778 0.2500
H13_2 H 0.4717 0.7084 0.3528
C21_2 C 0.3430(3) 0.72647(14) 0.39224(12)
C22_2 C 0.2538(3) 0.80077(13) 0.37361(11)
H14_2 H 0.3141 0.8300 0.3191
C23_2 C 0.2618(3) 0.76205(11) 0.40083(10)
H15_2 H 0.3483 0.6996 0.4100
H16_2 H 0.2011 0.8250 0.3795
C24_2 C 0.1842(3) 0.75798(10) 0.43916(10)
O5_2 O 0.9004(2) 0.70182(8) 0.53777(7)
C25_2 C 0.9898(3) 0.47362(11) 0.50117(11)
C26_2 C 0.5962(3) 0.76812(13) 0.21069(10)
C27_2 C 0.9792(3) 0.45069(12) 0.54048(11)
C28_2 C 0.9811(3) 0.44489(12) 0.46484(11)
C29_2 C 0.4752(3) 0.77232(13) 0.21076(10)
C30_2 C 0.6663(3) 0.76639(13) 0.17054(10)
C31_2 C 0.9652(3) 0.40115(12) 0.54306(11)
H17_2 H 0.9816 0.4687 0.5657
C32_2 C 0.9676(3) 0.39649(12) 0.46912(11)
H18_2 H 0.9845 0.4586 0.4375
C33_2 C 0.4047(3) 0.76984(13) 0.17078(10)
C34_2 C 0.6580(3) 0.80100(14) 0.13905(11)
C35_2 C 0.7454(3) 0.72959(15) 0.16542(11)
N2_2 N 0.9613(2) 0.37390(10) 0.50717(9)
C36_2 C 0.9546(4) 0.37671(13) 0.58566(11)
H19_2 H 0.9625 0.3781 0.4442
C37_2 C 0.4149(3) 0.73133(15) 0.14249(12)
C38_2 C 0.3229(3) 0.80415(13) 0.16222(11)
H20_2 H 0.6040 0.8254 0.1418
C39_2 C 0.7293(3) 0.79996(13) 0.10323(11)
H21_2 H 0.7526 0.7061 0.1866
C40_2 C 0.8139(3) 0.72766(14) 0.12887(12)
H23_2 H 0.9688 0.3994 0.6083
H24_2 H 0.8785 0.3638 0.5887
H25_2 H 0.4717 0.7084 0.1472
C41_2 C 0.3430(3) 0.72647(14) 0.10776(12)
C42_2 C 0.2538(3) 0.80077(13) 0.12639(11)
H26_2 H 0.3141 0.8300 0.1809
C43_2 C 0.8068(3) 0.76301(12) 0.09795(10)
H27_2 H 0.7247 0.8242 0.0827
H28_2 H 0.8651 0.7023 0.1252
O7_2 O 0.8643(2) 0.29564(8) 0.45147(7)
O10_2 O 0.1357(2) 0.79564(8) 0.45147(7)
C44_2 C 0.2618(3) 0.76205(11) 0.09917(10)
H29_2 H 0.3483 0.6996 0.0900
H30_2 H 0.2011 0.8250 0.1205
C45_2 C 0.8848(3) 0.76078(12) 0.05955(10)
C46_2 C 0.1842(3) 0.75798(10) 0.06084(10)
O12_2 O 0.9004(2) 0.79818(8) 0.03777(7)
O14_2 O 0.1357(2) 0.79564(8) 0.04853(7)
C1_3 C 0.1152(3) 0.26078(12) 0.05955(10)
O2_3 O 0.0700(2) 0.22051(8) 0.05189(7)
C2_3 C 0.1932(3) 0.26301(12) 0.09795(10)
C3_3 C 0.2707(3) 0.29996(13) 0.10323(11)
C4_3 C 0.1861(3) 0.22766(14) 0.12887(12)
C5_3 C 0.3420(3) 0.30100(14) 0.13905(11)
H1_3 H 0.2753 0.3242 0.0827
C6_3 C 0.2546(3) 0.22959(15) 0.16542(11)
H2_3 H 0.1349 0.2023 0.1252
C9_3 C 0.3337(3) 0.26639(13) 0.17054(10)
H3_3 H 0.3960 0.3254 0.1418
H4_3 H 0.2474 0.2061 0.1866
C13_3 C 0.4038(3) 0.26812(13) 0.21069(10)
H7_3 H 0.0097 0.1489 0.0874
C15_3 C 0.5248(3) 0.27232(13) 0.21076(10)
C16_3 C 0.3471(4) 0.26605(19) 0.2500
C17_3 C 0.5953(3) 0.26984(13) 0.17078(10)
C18_3 C 0.5813(4) 0.27460(18) 0.2500
H11_3 H 0.2675 0.2631 0.2500
C19_3 C 0.5851(3) 0.23133(15) 0.14249(12)
C20_3 C 0.6771(3) 0.30415(13) 0.16222(11)
H12_3 H 0.6609 0.2778 0.2500
H13_3 H 0.5283 0.2084 0.1472
C21_3 C 0.6570(3) 0.22647(14) 0.10776(12)
C22_3 C 0.7462(3) 0.30077(13) 0.12639(11)
H14_3 H 0.6859 0.3300 0.1809
C23_3 C 0.7382(3) 0.26205(11) 0.09917(10)
H15_3 H 0.6517 0.1996 0.0900
H16_3 H 0.7989 0.3250 0.1205
C24_3 C 0.8158(3) 0.25798(10) 0.06084(10)
C26_3 C 0.4038(3) 0.26812(13) 0.28931(10)
C29_3 C 0.5248(3) 0.27232(13) 0.28924(10)
C30_3 C 0.3337(3) 0.26639(13) 0.32946(10)
C33_3 C 0.5953(3) 0.26984(13) 0.32922(10)
C34_3 C 0.3420(3) 0.30100(14) 0.36095(11)
C35_3 C 0.2546(3) 0.22959(15) 0.33458(11)
C37_3 C 0.5851(3) 0.23133(15) 0.35751(12)
C38_3 C 0.6771(3) 0.30415(13) 0.33778(11)
H20_3 H 0.3960 0.3254 0.3582
C39_3 C 0.2707(3) 0.29996(13) 0.39677(11)
H21_3 H 0.2474 0.2061 0.3134
C40_3 C 0.1861(3) 0.22766(14) 0.37113(12)
H25_3 H 0.5283 0.2084 0.3528
C41_3 C 0.6570(3) 0.22647(14) 0.39224(12)
C42_3 C 0.7462(3) 0.30077(13) 0.37361(11)
H26_3 H 0.6859 0.3300 0.3191
C43_3 C 0.1932(3) 0.26301(12) 0.40205(10)
H27_3 H 0.2753 0.3242 0.4173
H28_3 H 0.1349 0.2023 0.3748
O11_2 O 0.8265(2) 0.21712(8) 0.04371(7)
C44_3 C 0.7382(3) 0.26205(11) 0.40083(10)
H29_3 H 0.6517 0.1996 0.4100
H30_3 H 0.7989 0.3250 0.3795
C45_3 C 0.1152(3) 0.26078(12) 0.44045(10)
C46_3 C 0.8158(3) 0.25798(10) 0.43916(10)
O13_2 O 0.0700(2) 0.22051(8) 0.44811(7)
O15_2 O 0.8265(2) 0.21712(8) 0.45629(7)
C28_3 C 0.0189(3) 0.94489(12) 0.03516(11)
C32_3 C 0.0324(3) 0.89649(12) 0.03088(11)
H18_3 H 0.0155 0.9586 0.0625
H19_3 H 0.0375 0.8781 0.0558
C25_3 C 0.0102(3) 0.97362(11) 0.99883(11)
C27_3 C 0.0208(3) 0.95069(12) 0.95952(11)
C31_3 C 0.0348(3) 0.90115(12) 0.95694(11)
H17_3 H 0.0184 0.9687 0.9343
N2_3 N 0.0387(2) 0.87390(10) 0.99283(9)
C36_3 C 0.0454(4) 0.87671(13) 0.91434(11)
H23_3 H 0.0312 0.8994 0.8917
H24_3 H 0.1215 0.8638 0.9113
O6_2 O 0.1735(2) 0.78288(8) 0.95629(7)
N1_3 N 0.9613(2) 0.12610(10) 0.00717(9)
C7_3 C 0.9652(3) 0.09885(12) 0.04306(11)
C10_3 C 0.9546(4) 0.12329(13) 0.08566(11)
C11_3 C 0.9792(3) 0.04931(12) 0.04048(11)
H6_3 H 0.8785 0.1362 0.0887
H8_3 H 0.9688 0.1006 0.1083
C14_3 C 0.9898(3) 0.02638(11) 0.00117(11)
H9_3 H 0.9816 0.0313 0.0657
C8_3 C 0.9676(3) 0.10351(12) 0.96912(11)
C12_3 C 0.9811(3) 0.05511(12) 0.96484(11)
H5_3 H 0.9625 0.1219 0.9442
H10_3 H 0.9845 0.0414 0.9375
H22_3 H 0.9903 0.8511 0.9126
O9_2 O 0.9300(2) 0.77949(8) 0.94811(7)
H22_4 H 0.0097 0.1489 0.4126
O3_2 O 0.1735(2) 0.78288(8) 0.54371(7)
N1_4 N 0.0387(2) 0.87390(10) 0.50717(9)
C7_4 C 0.0348(3) 0.90115(12) 0.54306(11)
C8_4 C 0.0324(3) 0.89649(12) 0.46912(11)
C10_4 C 0.0454(4) 0.87671(13) 0.58566(11)
C11_4 C 0.0208(3) 0.95069(12) 0.54048(11)
C12_4 C 0.0189(3) 0.94489(12) 0.46484(11)
H5_4 H 0.0375 0.8781 0.4442
H6_4 H 0.1215 0.8638 0.5887
H8_4 H 0.0312 0.8994 0.6083
C14_4 C 0.0102(3) 0.97362(11) 0.50117(11)
H9_4 H 0.0184 0.9687 0.5657
H10_4 H 0.0155 0.9586 0.4375
C25_4 C 0.9898(3) 0.02638(11) 0.49883(11)
C27_4 C 0.9792(3) 0.04931(12) 0.45952(11)
C28_4 C 0.9811(3) 0.05511(12) 0.53516(11)
C31_4 C 0.9652(3) 0.09885(12) 0.45694(11)
H17_4 H 0.9816 0.0313 0.4343
C32_4 C 0.9676(3) 0.10351(12) 0.53088(11)
H18_4 H 0.9845 0.0414 0.5625
N2_4 N 0.9613(2) 0.12610(10) 0.49283(9)
C36_4 C 0.9546(4) 0.12329(13) 0.41434(11)
H19_4 H 0.9625 0.1219 0.5558
H23_4 H 0.9688 0.1006 0.3917
H24_4 H 0.8785 0.1362 0.4113
C1_4 C 0.8848(3) 0.73922(12) 0.55955(10)
O2_4 O 0.9300(2) 0.77949(8) 0.55189(7)
C2_4 C 0.8068(3) 0.73699(12) 0.59795(10)
C3_4 C 0.7293(3) 0.70004(13) 0.60323(11)
C4_4 C 0.8139(3) 0.77234(14) 0.62887(12)
C5_4 C 0.6580(3) 0.69900(14) 0.63905(11)
H1_4 H 0.7247 0.6758 0.5827
C6_4 C 0.7454(3) 0.77041(15) 0.66542(11)
H2_4 H 0.8651 0.7977 0.6252
C9_4 C 0.6663(3) 0.73361(13) 0.67054(10)
H3_4 H 0.6040 0.6746 0.6418
H4_4 H 0.7526 0.7939 0.6866
C13_4 C 0.5962(3) 0.73188(13) 0.71069(10)
H7_4 H 0.9903 0.8511 0.5874
C15_4 C 0.4752(3) 0.72768(13) 0.71076(10)
C16_4 C 0.6529(4) 0.73395(19) 0.7500
C17_4 C 0.4047(3) 0.73016(13) 0.67078(10)
C18_4 C 0.4187(4) 0.72540(18) 0.7500
H11_4 H 0.7325 0.7369 0.7500
C19_4 C 0.4149(3) 0.76867(15) 0.64249(12)
C20_4 C 0.3229(3) 0.69585(13) 0.66222(11)
H12_4 H 0.3391 0.7222 0.7500
H13_4 H 0.4717 0.7916 0.6472
C21_4 C 0.3430(3) 0.77353(14) 0.60776(12)
C22_4 C 0.2538(3) 0.69923(13) 0.62639(11)
H14_4 H 0.3141 0.6700 0.6809
C23_4 C 0.2618(3) 0.73795(11) 0.59917(10)
H15_4 H 0.3483 0.8004 0.5900
H16_4 H 0.2011 0.6750 0.6205
C24_4 C 0.1842(3) 0.74202(10) 0.56084(10)
C26_4 C 0.5962(3) 0.73188(13) 0.78931(10)
C29_4 C 0.4752(3) 0.72768(13) 0.78924(10)
C30_4 C 0.6663(3) 0.73361(13) 0.82946(10)
C33_4 C 0.4047(3) 0.73016(13) 0.82922(10)
C34_4 C 0.6580(3) 0.69900(14) 0.86095(11)
C35_4 C 0.7454(3) 0.77041(15) 0.83458(11)
C37_4 C 0.4149(3) 0.76867(15) 0.85751(12)
C38_4 C 0.3229(3) 0.69585(13) 0.83778(11)
H20_4 H 0.6040 0.6746 0.8582
C39_4 C 0.7293(3) 0.70004(13) 0.89677(11)
H21_4 H 0.7526 0.7939 0.8134
C40_4 C 0.8139(3) 0.77234(14) 0.87113(12)
H25_4 H 0.4717 0.7916 0.8528
C41_4 C 0.3430(3) 0.77353(14) 0.89224(12)
C42_4 C 0.2538(3) 0.69923(13) 0.87361(11)
H26_4 H 0.3141 0.6700 0.8191
C43_4 C 0.8068(3) 0.73699(12) 0.90205(10)
H27_4 H 0.7247 0.6758 0.9173
H28_4 H 0.8651 0.7977 0.8748
C44_4 C 0.2618(3) 0.73795(11) 0.90083(10)
H29_4 H 0.3483 0.8004 0.9100
H30_4 H 0.2011 0.6750 0.8795
C45_4 C 0.8848(3) 0.73922(12) 0.94045(10)
C46_4 C 0.1842(3) 0.74202(10) 0.93916(10)
Co12 Co 0.48913(4) 0.049218(15) 0.004547(13)
O18 O 0.3706(2) 0.03572(9) 0.95860(8)
C50 C 0.0591(3) 0.01186(12) 0.78933(10)
C51 C 0.1281(3) 0.00688(13) 0.82944(10)
C59 C 0.1141(4) 0.00441(18) 0.7500
C65 C 0.1372(3) 0.04459(13) 0.85811(11)
H39 H 0.0948 0.0724 0.8535
C68 C 0.2082(3) 0.04152(13) 0.89338(11)
H44 H 0.2161 0.0679 0.9116
O22 O 0.3706(2) 0.03572(9) 0.54140(8)
C78 C 0.0591(3) 0.01186(12) 0.71067(10)
C79 C 0.1281(3) 0.00688(13) 0.67056(10)
C88 C 0.1372(3) 0.04459(13) 0.64189(11)
H56 H 0.0948 0.0724 0.6465
C90 C 0.2082(3) 0.04152(13) 0.60662(11)
H58 H 0.2161 0.0679 0.5884
Co18 Co 0.48913(4) 0.049218(15) 0.495453(13)
O19 O 0.3838(2) 0.95587(9) 0.95107(8)
C58 C 0.3467(3) 0.99649(13) 0.94060(10)
H34 H 0.1901 0.9941 0.7500
C60 C 0.2682(3) 0.99972(13) 0.90220(10)
C66 C 0.2580(3) 0.96158(13) 0.87404(12)
H40 H 0.2972 0.9331 0.8796
C70 C 0.1903(3) 0.96527(14) 0.83760(12)
H46 H 0.1863 0.9397 0.8184
O23 O 0.3838(2) 0.95587(9) 0.54893(8)
C83 C 0.3467(3) 0.99649(13) 0.55940(10)
C84 C 0.2682(3) 0.99972(13) 0.59780(10)
C89 C 0.2580(3) 0.96158(13) 0.62596(12)
H57 H 0.2972 0.9331 0.6204
C92 C 0.1903(3) 0.96527(14) 0.66240(12)
H60 H 0.1863 0.9397 0.6816
Co14 Co 0.51087(4) 0.950782(15) 0.504547(13)
Co16 Co 0.51087(4) 0.950782(15) 0.995453(13)
N3 N 0.4715(2) 0.12345(9) 0.00678(9)
C47 C 0.4738(3) 0.22370(11) 0.00170(10)
C48 C 0.3729(3) 0.19800(11) 0.00997(11)
H31 H 0.3043 0.2145 0.0142
C55 C 0.3739(3) 0.14854(12) 0.01186(10)
C67 C 0.2636(3) 0.12178(13) 0.01948(15)
H42 H 0.1997 0.1431 0.0152
H43 H 0.2625 0.1097 0.0485
C74 C 0.5742(3) 0.30325(12) 0.00336(12)
H48 H 0.6439 0.2881 0.0089
C75 C 0.5690(3) 0.35212(12) 0.00013(11)
H49 H 0.6370 0.3694 0.0029
H50 H 0.2583 0.4045 0.0004
O24 O 0.6095(2) 0.44686(9) 0.04377(7)
O25 O 0.3784(2) 0.02618(9) 0.05041(8)
O28 O 0.3706(2) 0.46428(9) 0.04140(8)
O29 O 0.6162(2) 0.04413(9) 0.04893(8)
O16 O 0.6095(2) 0.05314(9) 0.95623(7)
C49 C 0.9428(3) 0.02578(12) 0.78925(10)
C52 C 0.6473(3) 0.01623(12) 0.93900(11)
C53 C 0.7299(3) 0.02086(12) 0.90178(10)
C54 C 0.8734(3) 0.02642(12) 0.82961(10)
C56 C 0.5742(3) 0.19675(12) 0.99664(12)
H32 H 0.6439 0.2119 0.9911
C57 C 0.8881(4) 0.03378(17) 0.7500
H33 H 0.8126 0.0448 0.7500
C62 C 0.7405(3) 0.06321(12) 0.87911(11)
H36 H 0.7004 0.0903 0.8882
C64 C 0.5690(3) 0.14788(12) 0.99987(11)
H38 H 0.6370 0.1306 0.9971
H41 H 0.2583 0.0955 0.9996
C69 C 0.8101(3) 0.06589(13) 0.84309(11)
H45 H 0.8146 0.0945 0.8277
N4 N 0.4715(2) 0.37655(9) 0.99322(9)
C71 C 0.4738(3) 0.27630(11) 0.99830(10)
C72 C 0.3729(3) 0.30200(11) 0.99003(11)
H47 H 0.3043 0.2855 0.9858
C73 C 0.3739(3) 0.35146(12) 0.98814(10)
C76 C 0.2636(3) 0.37822(13) 0.98052(15)
H51 H 0.1997 0.3569 0.9848
H52 H 0.2625 0.3903 0.9515
O20 O 0.6095(2) 0.05314(9) 0.54377(7)
C77 C 0.9428(3) 0.02578(12) 0.71075(10)
C80 C 0.6473(3) 0.01623(12) 0.56100(11)
C81 C 0.7299(3) 0.02086(12) 0.59822(10)
C82 C 0.8734(3) 0.02642(12) 0.67039(10)
C86 C 0.7405(3) 0.06321(12) 0.62089(11)
H54 H 0.7004 0.0903 0.6118
C91 C 0.8101(3) 0.06589(13) 0.65691(11)
H59 H 0.8146 0.0945 0.6723
Co11 Co 0.48913(4) 0.450782(15) 0.995453(13)
O26 O 0.3784(2) 0.47382(9) 0.94959(8)
O30 O 0.6162(2) 0.45587(9) 0.95107(8)
O17 O 0.6216(2) 0.97382(9) 0.94959(8)
C61 C 0.7930(3) 0.98169(13) 0.88865(12)
H35 H 0.7868 0.9530 0.9037
C63 C 0.8652(3) 0.98439(14) 0.85348(12)
H37 H 0.9087 0.9578 0.8457
O21 O 0.6216(2) 0.97382(9) 0.55041(8)
C85 C 0.7930(3) 0.98169(13) 0.61135(12)
H53 H 0.7868 0.9530 0.5963
C87 C 0.8652(3) 0.98439(14) 0.64652(12)
H55 H 0.9087 0.9578 0.6543
O17_2 O 0.3784(2) 0.02618(9) 0.44959(8)
C61_2 C 0.2070(3) 0.01831(13) 0.38865(12)
H35_2 H 0.2132 0.0470 0.4037
C63_2 C 0.1348(3) 0.01561(14) 0.35348(12)
H37_2 H 0.0913 0.0422 0.3457
C85_2 C 0.2070(3) 0.01831(13) 0.11135(12)
H53_2 H 0.2132 0.0470 0.0963
C87_2 C 0.1348(3) 0.01561(14) 0.14652(12)
H55_2 H 0.0913 0.0422 0.1543
N3_2 N 0.5285(2) 0.87655(9) 0.50678(9)
O16_2 O 0.3905(2) 0.94686(9) 0.45623(7)
C47_2 C 0.5262(3) 0.77630(11) 0.50170(10)
C48_2 C 0.6271(3) 0.80200(11) 0.50997(11)
H31_2 H 0.6957 0.7855 0.5142
C49_2 C 0.0572(3) 0.97422(12) 0.28925(10)
C52_2 C 0.3527(3) 0.98377(12) 0.43900(11)
C53_2 C 0.2701(3) 0.97914(12) 0.40178(10)
C54_2 C 0.1266(3) 0.97358(12) 0.32961(10)
C55_2 C 0.6261(3) 0.85146(12) 0.51186(10)
C56_2 C 0.4258(3) 0.80325(12) 0.49664(12)
H32_2 H 0.3561 0.7881 0.4911
C57_2 C 0.1119(4) 0.96622(17) 0.2500
H33_2 H 0.1874 0.9552 0.2500
C62_2 C 0.2595(3) 0.93679(12) 0.37911(11)
H36_2 H 0.2996 0.9097 0.3882
C64_2 C 0.4310(3) 0.85212(12) 0.49987(11)
H38_2 H 0.3630 0.8694 0.4971
C67_2 C 0.7364(3) 0.87822(13) 0.51948(15)
H41_2 H 0.7417 0.9045 0.4996
H42_2 H 0.8003 0.8569 0.5152
H43_2 H 0.7375 0.8903 0.5485
C69_2 C 0.1899(3) 0.93411(13) 0.34309(11)
H45_2 H 0.1854 0.9055 0.3277
N4_2 N 0.5285(2) 0.62345(9) 0.49322(9)
C71_2 C 0.5262(3) 0.72370(11) 0.49830(10)
C72_2 C 0.6271(3) 0.69800(11) 0.49003(11)
H47_2 H 0.6957 0.7145 0.4858
C73_2 C 0.6261(3) 0.64854(12) 0.48814(10)
C74_2 C 0.4258(3) 0.69675(12) 0.50336(12)
H48_2 H 0.3561 0.7119 0.5089
C75_2 C 0.4310(3) 0.64788(12) 0.50013(11)
H49_2 H 0.3630 0.6306 0.5029
C76_2 C 0.7364(3) 0.62178(13) 0.48052(15)
H50_2 H 0.7417 0.5955 0.5004
H51_2 H 0.8003 0.6431 0.4848
H52_2 H 0.7375 0.6097 0.4515
O20_2 O 0.3905(2) 0.94686(9) 0.04377(7)
C77_2 C 0.0572(3) 0.97422(12) 0.21075(10)
C80_2 C 0.3527(3) 0.98377(12) 0.06100(11)
C81_2 C 0.2701(3) 0.97914(12) 0.09822(10)
C82_2 C 0.1266(3) 0.97358(12) 0.17039(10)
C86_2 C 0.2595(3) 0.93679(12) 0.12089(11)
H54_2 H 0.2996 0.9097 0.1118
C91_2 C 0.1899(3) 0.93411(13) 0.15691(11)
H59_2 H 0.1854 0.9055 0.1723
Co11_2 Co 0.51087(4) 0.549218(15) 0.495453(13)
O24_2 O 0.3905(2) 0.55314(9) 0.54377(7)
O26_2 O 0.6216(2) 0.52618(9) 0.44959(8)
O27 O 0.6294(2) 0.96428(9) 0.45860(8)
O28_2 O 0.6294(2) 0.53572(9) 0.54140(8)
O30_2 O 0.3838(2) 0.54413(9) 0.45107(8)
O19_2 O 0.6162(2) 0.04413(9) 0.45107(8)
C58_2 C 0.6533(3) 0.00351(13) 0.44060(10)
H34_2 H 0.8099 0.0059 0.2500
C60_2 C 0.7318(3) 0.00028(13) 0.40220(10)
C66_2 C 0.7420(3) 0.03842(13) 0.37404(12)
H40_2 H 0.7028 0.0669 0.3796
C70_2 C 0.8097(3) 0.03473(14) 0.33760(12)
H46_2 H 0.8137 0.0603 0.3184
C83_2 C 0.6533(3) 0.00351(13) 0.05940(10)
C84_2 C 0.7318(3) 0.00028(13) 0.09780(10)
C89_2 C 0.7420(3) 0.03842(13) 0.12596(12)
H57_2 H 0.7028 0.0669 0.1204
C92_2 C 0.8097(3) 0.03473(14) 0.16240(12)
H60_2 H 0.8137 0.0603 0.1816
C50_2 C 0.9409(3) 0.98814(12) 0.28933(10)
C51_2 C 0.8719(3) 0.99312(13) 0.32944(10)
C59_2 C 0.8859(4) 0.99559(18) 0.2500
C65_2 C 0.8628(3) 0.95541(13) 0.35811(11)
H39_2 H 0.9052 0.9276 0.3535
C68_2 C 0.7918(3) 0.95848(13) 0.39338(11)
H44_2 H 0.7839 0.9321 0.4116
O22_2 O 0.6294(2) 0.96428(9) 0.04140(8)
C78_2 C 0.9409(3) 0.98814(12) 0.21067(10)
C79_2 C 0.8719(3) 0.99312(13) 0.17056(10)
C88_2 C 0.8628(3) 0.95541(13) 0.14189(11)
H56_2 H 0.9052 0.9276 0.1465
C90_2 C 0.7918(3) 0.95848(13) 0.10662(11)
H58_2 H 0.7839 0.9321 0.0884
O19_3 O 0.3838(2) 0.54413(9) 0.04893(8)
C50_3 C 0.0591(3) 0.48814(12) 0.21067(10)
C51_3 C 0.1281(3) 0.49312(13) 0.17056(10)
C58_3 C 0.3467(3) 0.50351(13) 0.05940(10)
C59_3 C 0.1141(4) 0.49559(18) 0.2500
H34_3 H 0.1901 0.5059 0.2500
C60_3 C 0.2682(3) 0.50028(13) 0.09780(10)
C65_3 C 0.1372(3) 0.45541(13) 0.14189(11)
H39_3 H 0.0948 0.4276 0.1465
C66_3 C 0.2580(3) 0.53842(13) 0.12596(12)
H40_3 H 0.2972 0.5669 0.1204
C68_3 C 0.2082(3) 0.45848(13) 0.10662(11)
H44_3 H 0.2161 0.4321 0.0884
C70_3 C 0.1903(3) 0.53473(14) 0.16240(12)
H46_3 H 0.1863 0.5603 0.1816
O22_3 O 0.3706(2) 0.46428(9) 0.45860(8)
C78_3 C 0.0591(3) 0.48814(12) 0.28933(10)
C79_3 C 0.1281(3) 0.49312(13) 0.32944(10)
C83_3 C 0.3467(3) 0.50351(13) 0.44060(10)
C84_3 C 0.2682(3) 0.50028(13) 0.40220(10)
C88_3 C 0.1372(3) 0.45541(13) 0.35811(11)
H56_3 H 0.0948 0.4276 0.3535
C89_3 C 0.2580(3) 0.53842(13) 0.37404(12)
H57_3 H 0.2972 0.5669 0.3796
C90_3 C 0.2082(3) 0.45848(13) 0.39338(11)
H58_3 H 0.2161 0.4321 0.4116
C92_3 C 0.1903(3) 0.53473(14) 0.33760(12)
H60_3 H 0.1863 0.5603 0.3184
Co16_2 Co 0.51087(4) 0.549218(15) 0.004547(13)
Co18_2 Co 0.48913(4) 0.450782(15) 0.504547(13)
O17_3 O 0.6216(2) 0.52618(9) 0.05041(8)
C49_3 C 0.9428(3) 0.47422(12) 0.21075(10)
C52_3 C 0.6473(3) 0.48377(12) 0.06100(11)
C53_3 C 0.7299(3) 0.47914(12) 0.09822(10)
C54_3 C 0.8734(3) 0.47358(12) 0.17039(10)
C57_3 C 0.8881(4) 0.46622(17) 0.2500
H33_3 H 0.8126 0.4552 0.2500
C61_3 C 0.7930(3) 0.51831(13) 0.11135(12)
H35_3 H 0.7868 0.5470 0.0963
C62_3 C 0.7405(3) 0.43679(12) 0.12089(11)
H36_3 H 0.7004 0.4097 0.1118
C63_3 C 0.8652(3) 0.51561(14) 0.14652(12)
H37_3 H 0.9087 0.5422 0.1543
C69_3 C 0.8101(3) 0.43411(13) 0.15691(11)
H45_3 H 0.8146 0.4055 0.1723
O20_3 O 0.6095(2) 0.44686(9) 0.45623(7)
C77_3 C 0.9428(3) 0.47422(12) 0.28925(10)
C80_3 C 0.6473(3) 0.48377(12) 0.43900(11)
C81_3 C 0.7299(3) 0.47914(12) 0.40178(10)
C82_3 C 0.8734(3) 0.47358(12) 0.32961(10)
C85_3 C 0.7930(3) 0.51831(13) 0.38865(12)
H53_3 H 0.7868 0.5470 0.4037
C86_3 C 0.7405(3) 0.43679(12) 0.37911(11)
H54_3 H 0.7004 0.4097 0.3882
C87_3 C 0.8652(3) 0.51561(14) 0.35348(12)
H55_3 H 0.9087 0.5422 0.3457
C91_3 C 0.8101(3) 0.43411(13) 0.34309(11)
H59_3 H 0.8146 0.4055 0.3277
O17_4 O 0.3784(2) 0.47382(9) 0.55041(8)
C49_4 C 0.0572(3) 0.52578(12) 0.71075(10)
C52_4 C 0.3527(3) 0.51623(12) 0.56100(11)
C53_4 C 0.2701(3) 0.52086(12) 0.59822(10)
C54_4 C 0.1266(3) 0.52642(12) 0.67039(10)
C57_4 C 0.1119(4) 0.53378(17) 0.7500
H33_4 H 0.1874 0.5448 0.7500
C61_4 C 0.2070(3) 0.48169(13) 0.61135(12)
H35_4 H 0.2132 0.4530 0.5963
C62_4 C 0.2595(3) 0.56321(12) 0.62089(11)
H36_4 H 0.2996 0.5903 0.6118
C63_4 C 0.1348(3) 0.48439(14) 0.64652(12)
H37_4 H 0.0913 0.4578 0.6543
C69_4 C 0.1899(3) 0.56589(13) 0.65691(11)
H45_4 H 0.1854 0.5945 0.6723
O20_4 O 0.3905(2) 0.55314(9) 0.95623(7)
C77_4 C 0.0572(3) 0.52578(12) 0.78925(10)
C80_4 C 0.3527(3) 0.51623(12) 0.93900(11)
C81_4 C 0.2701(3) 0.52086(12) 0.90178(10)
C82_4 C 0.1266(3) 0.52642(12) 0.82961(10)
C85_4 C 0.2070(3) 0.48169(13) 0.88865(12)
H53_4 H 0.2132 0.4530 0.9037
C86_4 C 0.2595(3) 0.56321(12) 0.87911(11)
H54_4 H 0.2996 0.5903 0.8882
C87_4 C 0.1348(3) 0.48439(14) 0.85348(12)
H55_4 H 0.0913 0.4578 0.8457
C91_4 C 0.1899(3) 0.56589(13) 0.84309(11)
H59_4 H 0.1854 0.5945 0.8277
O19_4 O 0.6162(2) 0.45587(9) 0.54893(8)
C50_4 C 0.9409(3) 0.51186(12) 0.71067(10)
C51_4 C 0.8719(3) 0.50688(13) 0.67056(10)
C58_4 C 0.6533(3) 0.49649(13) 0.55940(10)
C59_4 C 0.8859(4) 0.50441(18) 0.7500
H34_4 H 0.8099 0.4941 0.7500
C60_4 C 0.7318(3) 0.49972(13) 0.59780(10)
C65_4 C 0.8628(3) 0.54459(13) 0.64189(11)
H39_4 H 0.9052 0.5724 0.6465
C66_4 C 0.7420(3) 0.46158(13) 0.62596(12)
H40_4 H 0.7028 0.4331 0.6204
C68_4 C 0.7918(3) 0.54152(13) 0.60662(11)
H44_4 H 0.7839 0.5679 0.5884
C70_4 C 0.8097(3) 0.46527(14) 0.66240(12)
H46_4 H 0.8137 0.4397 0.6816
O22_4 O 0.6294(2) 0.53572(9) 0.95860(8)
C78_4 C 0.9409(3) 0.51186(12) 0.78933(10)
C79_4 C 0.8719(3) 0.50688(13) 0.82944(10)
C83_4 C 0.6533(3) 0.49649(13) 0.94060(10)
C84_4 C 0.7318(3) 0.49972(13) 0.90220(10)
C88_4 C 0.8628(3) 0.54459(13) 0.85811(11)
H56_4 H 0.9052 0.5724 0.8535
C89_4 C 0.7420(3) 0.46158(13) 0.87404(12)
H57_4 H 0.7028 0.4331 0.8796
C90_4 C 0.7918(3) 0.54152(13) 0.89338(11)
H58_4 H 0.7839 0.5679 0.9116
C92_4 C 0.8097(3) 0.46527(14) 0.83760(12)
H60_4 H 0.8137 0.4397 0.8184
C56_3 C 0.4258(3) 0.80325(12) 0.00336(12)
H32_3 H 0.3561 0.7881 0.0089
C64_3 C 0.4310(3) 0.85212(12) 0.00013(11)
H38_3 H 0.3630 0.8694 0.0029
H41_3 H 0.7417 0.9045 0.0004
N4_3 N 0.5285(2) 0.62345(9) 0.00678(9)
C71_3 C 0.5262(3) 0.72370(11) 0.00170(10)
C72_3 C 0.6271(3) 0.69800(11) 0.00997(11)
H47_3 H 0.6957 0.7145 0.0142
C73_3 C 0.6261(3) 0.64854(12) 0.01186(10)
C76_3 C 0.7364(3) 0.62178(13) 0.01948(15)
H51_3 H 0.8003 0.6431 0.0152
H52_3 H 0.7375 0.6097 0.0485
N3_3 N 0.5285(2) 0.87655(9) 0.99322(9)
C47_3 C 0.5262(3) 0.77630(11) 0.99830(10)
C48_3 C 0.6271(3) 0.80200(11) 0.99003(11)
H31_3 H 0.6957 0.7855 0.9858
C55_3 C 0.6261(3) 0.85146(12) 0.98814(10)
C67_3 C 0.7364(3) 0.87822(13) 0.98052(15)
H42_3 H 0.8003 0.8569 0.9848
H43_3 H 0.7375 0.8903 0.9515
C74_3 C 0.4258(3) 0.69675(12) 0.99664(12)
H48_3 H 0.3561 0.7119 0.9911
C75_3 C 0.4310(3) 0.64788(12) 0.99987(11)
H49_3 H 0.3630 0.6306 0.9971
H50_3 H 0.7417 0.5955 0.9996
N3_4 N 0.4715(2) 0.12345(9) 0.49322(9)
C47_4 C 0.4738(3) 0.22370(11) 0.49830(10)
C48_4 C 0.3729(3) 0.19800(11) 0.49003(11)
H31_4 H 0.3043 0.2145 0.4858
C55_4 C 0.3739(3) 0.14854(12) 0.48814(10)
C56_4 C 0.5742(3) 0.19675(12) 0.50336(12)
H32_4 H 0.6439 0.2119 0.5089
C64_4 C 0.5690(3) 0.14788(12) 0.50013(11)
H38_4 H 0.6370 0.1306 0.5029
C67_4 C 0.2636(3) 0.12178(13) 0.48052(15)
H41_4 H 0.2583 0.0955 0.5004
H42_4 H 0.1997 0.1431 0.4848
H43_4 H 0.2625 0.1097 0.4515
N4_4 N 0.4715(2) 0.37655(9) 0.50678(9)
C71_4 C 0.4738(3) 0.27630(11) 0.50170(10)
C72_4 C 0.3729(3) 0.30200(11) 0.50997(11)
H47_4 H 0.3043 0.2855 0.5142
C73_4 C 0.3739(3) 0.35146(12) 0.51186(10)
C74_4 C 0.5742(3) 0.30325(12) 0.49664(12)
H48_4 H 0.6439 0.2881 0.4911
C75_4 C 0.5690(3) 0.35212(12) 0.49987(11)
H49_4 H 0.6370 0.3694 0.4971
C76_4 C 0.2636(3) 0.37822(13) 0.51948(15)
H50_4 H 0.2583 0.4045 0.4996
H51_4 H 0.1997 0.3569 0.5152
H52_4 H 0.2625 0.3903 0.5485
loop_
_geom_bond_atom_site_label_1
_geom_bond_atom_site_label_2
_geom_bond_site_symmetry_1
_geom_bond_site_symmetry_2
C27 C25 1_555 1_555
C31 C27 1_555 1_555
H17 C27 1_555 1_555
N2 C31 1_555 1_555
C36 C31 1_555 1_555
Co3 N2 1_555 1_555
H23 C36 1_555 1_555
H24 C36 1_555 1_555
O6 Co3 1_555 1_555
O1 C1 1_555 1_555
C1 O2 1_555 1_555
C2 C1 1_555 1_555
C3 C2 1_555 1_555
C4 C2 1_555 1_555
C5 C3 1_555 1_555
H1 C3 1_555 1_555
C6 C4 1_555 1_555
H2 C4 1_555 1_555
C9 C5 1_555 1_555
H3 C5 1_555 1_555
H4 C6 1_555 1_555
C13 C9 1_555 1_555
C15 C13 1_555 1_555
C16 C13 1_555 1_555
C17 C15 1_555 1_555
C18 C15 1_555 1_555
H11 C16 1_555 1_555
C19 C17 1_555 1_555
C20 C17 1_555 1_555
H12 C18 1_555 1_555
H13 C19 1_555 1_555
C21 C19 1_555 1_555
C22 C20 1_555 1_555
H14 C20 1_555 1_555
C23 C21 1_555 1_555
H15 C21 1_555 1_555
H16 C22 1_555 1_555
C24 C23 1_555 1_555
C26 C16 1_555 1_555
C29 C18 1_555 1_555
C30 C26 1_555 1_555
C32 C28 1_555 1_555
H18 C28 1_555 1_555
C33 C29 1_555 1_555
C34 C30 1_555 1_555
C35 C30 1_555 1_555
H19 C32 1_555 1_555
C37 C33 1_555 1_555
C38 C33 1_555 1_555
H20 C34 1_555 1_555
C39 C34 1_555 1_555
H21 C35 1_555 1_555
C40 C35 1_555 1_555
H25 C37 1_555 1_555
C41 C37 1_555 1_555
C42 C38 1_555 1_555
H26 C38 1_555 1_555
C43 C39 1_555 1_555
H27 C39 1_555 1_555
H28 C40 1_555 1_555
O10 C24 1_555 1_555
O11 C24 1_555 1_555
C44 C41 1_555 1_555
H29 C41 1_555 1_555
H30 C42 1_555 1_555
C45 C43 1_555 1_555
Co5 O11 1_555 1_555
C46 C44 1_555 1_555
O12 C45 1_555 1_555
O13 C45 1_555 1_555
O14 C46 1_555 1_555
O15 C46 1_555 1_555
Co8 O14 1_555 1_555
Co9 O15 1_555 1_555
C6 C9 1_555 1_555
C22 C23 1_555 1_555
C26 C29 1_555 1_555
C40 C43 1_555 1_555
C42 C44 1_555 1_555
C12 C8 1_555 1_555
H5 C8 1_555 1_555
H10 C12 1_555 1_555
N1 C7 1_555 1_555
C7 C10 1_555 1_555
C10 H6 1_555 1_555
C11 C7 1_555 1_555
H8 C10 1_555 1_555
C14 C11 1_555 1_555
H9 C11 1_555 1_555
Co5 N1 1_555 1_555
O3 Co2 1_555 1_555
O4_2 Co2 1_555 1_555
N1_2 C7_2 1_555 1_555
C7_2 C10_2 1_555 1_555
C8_2 N1_2 1_555 1_555
C10_2 H6_2 1_555 1_555
C11_2 C7_2 1_555 1_555
C12_2 C8_2 1_555 1_555
H5_2 C8_2 1_555 1_555
H8_2 C10_2 1_555 1_555
C14_2 C11_2 1_555 1_555
H9_2 C11_2 1_555 1_555
H10_2 C12_2 1_555 1_555
Co2 N1_2 1_555 1_555
C12_2 C14_2 1_555 1_555
O1_2 C1_2 1_555 1_555
C1_2 O2_2 1_555 1_555
C2_2 C1_2 1_555 1_555
C3_2 C2_2 1_555 1_555
C4_2 C2_2 1_555 1_555
C5_2 C3_2 1_555 1_555
H1_2 C3_2 1_555 1_555
C6_2 C4_2 1_555 1_555
H2_2 C4_2 1_555 1_555
C9_2 C5_2 1_555 1_555
H3_2 C5_2 1_555 1_555
H4_2 C6_2 1_555 1_555
C13_2 C9_2 1_555 1_555
C15_2 C13_2 1_555 1_555
C16_2 C13_2 1_555 1_555
C17_2 C15_2 1_555 1_555
C18_2 C15_2 1_555 1_555
H11_2 C16_2 1_555 1_555
C19_2 C17_2 1_555 1_555
C20_2 C17_2 1_555 1_555
H12_2 C18_2 1_555 1_555
H13_2 C19_2 1_555 1_555
C21_2 C19_2 1_555 1_555
C22_2 C20_2 1_555 1_555
H14_2 C20_2 1_555 1_555
C23_2 C21_2 1_555 1_555
H15_2 C21_2 1_555 1_555
H16_2 C22_2 1_555 1_555
C24_2 C23_2 1_555 1_555
C26_2 C16_2 1_555 1_555
C27_2 C25_2 1_555 1_555
C28_2 C25_2 1_555 1_555
C29_2 C18_2 1_555 1_555
C30_2 C26_2 1_555 1_555
C31_2 C27_2 1_555 1_555
H17_2 C27_2 1_555 1_555
C32_2 C28_2 1_555 1_555
H18_2 C28_2 1_555 1_555
C33_2 C29_2 1_555 1_555
C34_2 C30_2 1_555 1_555
C35_2 C30_2 1_555 1_555
N2_2 C31_2 1_555 1_555
C36_2 C31_2 1_555 1_555
H19_2 C32_2 1_555 1_555
C37_2 C33_2 1_555 1_555
C38_2 C33_2 1_555 1_555
H20_2 C34_2 1_555 1_555
C39_2 C34_2 1_555 1_555
H21_2 C35_2 1_555 1_555
C40_2 C35_2 1_555 1_555
Co9 N2_2 1_555 1_555
H23_2 C36_2 1_555 1_555
H24_2 C36_2 1_555 1_555
H25_2 C37_2 1_555 1_555
C41_2 C37_2 1_555 1_555
C42_2 C38_2 1_555 1_555
H26_2 C38_2 1_555 1_555
C43_2 C39_2 1_555 1_555
H27_2 C39_2 1_555 1_555
H28_2 C40_2 1_555 1_555
O7_2 Co9 1_555 1_555
O10_2 C24_2 1_555 1_555
O3 C24_2 1_555 1_555
C44_2 C41_2 1_555 1_555
H29_2 C41_2 1_555 1_555
H30_2 C42_2 1_555 1_555
C45_2 C43_2 1_555 1_555
Co1 O10_2 1_555 1_555
C46_2 C44_2 1_555 1_555
O12_2 C45_2 1_555 1_555
O9 C45_2 1_555 1_555
O14_2 C46_2 1_555 1_555
O6 C46_2 1_555 1_555
C6_2 C9_2 1_555 1_555
C22_2 C23_2 1_555 1_555
C26_2 C29_2 1_555 1_555
C32_2 N2_2 1_555 1_555
C40_2 C43_2 1_555 1_555
C42_2 C44_2 1_555 1_555
O5 C1_3 1_555 1_555
C1_3 O2_3 1_555 1_555
C2_3 C1_3 1_555 1_555
C3_3 C2_3 1_555 1_555
C4_3 C2_3 1_555 1_555
C5_3 C3_3 1_555 1_555
H1_3 C3_3 1_555 1_555
C6_3 C4_3 1_555 1_555
H2_3 C4_3 1_555 1_555
C9_3 C5_3 1_555 1_555
H3_3 C5_3 1_555 1_555
H4_3 C6_3 1_555 1_555
C13_3 C9_3 1_555 1_555
C15_3 C13_3 1_555 1_555
C16_3 C13_3 1_555 1_555
C17_3 C15_3 1_555 1_555
C18_3 C15_3 1_555 1_555
H11_3 C16_3 1_555 1_555
C19_3 C17_3 1_555 1_555
C20_3 C17_3 1_555 1_555
H12_3 C18_3 1_555 1_555
H13_3 C19_3 1_555 1_555
C21_3 C19_3 1_555 1_555
C22_3 C20_3 1_555 1_555
H14_3 C20_3 1_555 1_555
C23_3 C21_3 1_555 1_555
H15_3 C21_3 1_555 1_555
H16_3 C22_3 1_555 1_555
C24_3 C23_3 1_555 1_555
C26_3 C16_3 1_555 1_555
C29_3 C18_3 1_555 1_555
C30_3 C26_3 1_555 1_555
C33_3 C29_3 1_555 1_555
C34_3 C30_3 1_555 1_555
C35_3 C30_3 1_555 1_555
C37_3 C33_3 1_555 1_555
C38_3 C33_3 1_555 1_555
H20_3 C34_3 1_555 1_555
C39_3 C34_3 1_555 1_555
H21_3 C35_3 1_555 1_555
C40_3 C35_3 1_555 1_555
H25_3 C37_3 1_555 1_555
C41_3 C37_3 1_555 1_555
C42_3 C38_3 1_555 1_555
H26_3 C38_3 1_555 1_555
C43_3 C39_3 1_555 1_555
H27_3 C39_3 1_555 1_555
H28_3 C40_3 1_555 1_555
O4 C24_3 1_555 1_555
O11_2 C24_3 1_555 1_555
C44_3 C41_3 1_555 1_555
H29_3 C41_3 1_555 1_555
H30_3 C42_3 1_555 1_555
C45_3 C43_3 1_555 1_555
Co4 O11_2 1_555 1_555
C46_3 C44_3 1_555 1_555
O8_2 C45_3 1_555 1_555
O13_2 C45_3 1_555 1_555
O7_2 C46_3 1_555 1_555
O15_2 C46_3 1_555 1_555
Co8 O15_2 1_555 1_555
C6_3 C9_3 1_555 1_555
C22_3 C23_3 1_555 1_555
C26_3 C29_3 1_555 1_555
C40_3 C43_3 1_555 1_555
C42_3 C44_3 1_555 1_555
C32_3 C28_3 1_555 1_555
H18_3 C28_3 1_555 1_555
H19_3 C32_3 1_555 1_555
C27_3 C25_3 1_555 1_555
C31_3 C27_3 1_555 1_555
H17_3 C27_3 1_555 1_555
N2_3 C31_3 1_555 1_555
C36_3 C31_3 1_555 1_555
Co6 N2_3 1_555 1_555
H23_3 C36_3 1_555 1_555
H24_3 C36_3 1_555 1_555
O6_2 Co6 1_555 1_555
N1_3 C7_3 1_555 1_555
C7_3 C10_3 1_555 1_555
C10_3 H6_3 1_555 1_555
C11_3 C7_3 1_555 1_555
H8_3 C10_3 1_555 1_555
C14_3 C11_3 1_555 1_555
H9_3 C11_3 1_555 1_555
Co4 N1_3 1_555 1_555
C12_3 C8_3 1_555 1_555
H5_3 C8_3 1_555 1_555
H10_3 C12_3 1_555 1_555
O3_2 Co1 1_555 1_555
N1_4 C7_4 1_555 1_555
C7_4 C10_4 1_555 1_555
C8_4 N1_4 1_555 1_555
C10_4 H6_4 1_555 1_555
C11_4 C7_4 1_555 1_555
C12_4 C8_4 1_555 1_555
H5_4 C8_4 1_555 1_555
H8_4 C10_4 1_555 1_555
C14_4 C11_4 1_555 1_555
H9_4 C11_4 1_555 1_555
H10_4 C12_4 1_555 1_555
Co1 N1_4 1_555 1_555
C12_4 C14_4 1_555 1_555
C27_4 C25_4 1_555 1_555
C28_4 C25_4 1_555 1_555
C31_4 C27_4 1_555 1_555
H17_4 C27_4 1_555 1_555
C32_4 C28_4 1_555 1_555
H18_4 C28_4 1_555 1_555
N2_4 C31_4 1_555 1_555
C36_4 C31_4 1_555 1_555
H19_4 C32_4 1_555 1_555
Co8 N2_4 1_555 1_555
H23_4 C36_4 1_555 1_555
H24_4 C36_4 1_555 1_555
C32_4 N2_4 1_555 1_555
O5_2 C1_4 1_555 1_555
C1_4 O2_4 1_555 1_555
C2_4 C1_4 1_555 1_555
C3_4 C2_4 1_555 1_555
C4_4 C2_4 1_555 1_555
C5_4 C3_4 1_555 1_555
H1_4 C3_4 1_555 1_555
C6_4 C4_4 1_555 1_555
H2_4 C4_4 1_555 1_555
C9_4 C5_4 1_555 1_555
H3_4 C5_4 1_555 1_555
H4_4 C6_4 1_555 1_555
C13_4 C9_4 1_555 1_555
C15_4 C13_4 1_555 1_555
C16_4 C13_4 1_555 1_555
C17_4 C15_4 1_555 1_555
C18_4 C15_4 1_555 1_555
H11_4 C16_4 1_555 1_555
C19_4 C17_4 1_555 1_555
C20_4 C17_4 1_555 1_555
H12_4 C18_4 1_555 1_555
H13_4 C19_4 1_555 1_555
C21_4 C19_4 1_555 1_555
C22_4 C20_4 1_555 1_555
H14_4 C20_4 1_555 1_555
C23_4 C21_4 1_555 1_555
H15_4 C21_4 1_555 1_555
H16_4 C22_4 1_555 1_555
C24_4 C23_4 1_555 1_555
C26_4 C16_4 1_555 1_555
C29_4 C18_4 1_555 1_555
C30_4 C26_4 1_555 1_555
C33_4 C29_4 1_555 1_555
C34_4 C30_4 1_555 1_555
C35_4 C30_4 1_555 1_555
C37_4 C33_4 1_555 1_555
C38_4 C33_4 1_555 1_555
H20_4 C34_4 1_555 1_555
C39_4 C34_4 1_555 1_555
H21_4 C35_4 1_555 1_555
C40_4 C35_4 1_555 1_555
H25_4 C37_4 1_555 1_555
C41_4 C37_4 1_555 1_555
C42_4 C38_4 1_555 1_555
H26_4 C38_4 1_555 1_555
C43_4 C39_4 1_555 1_555
H27_4 C39_4 1_555 1_555
H28_4 C40_4 1_555 1_555
O4_2 C24_4 1_555 1_555
O3_2 C24_4 1_555 1_555
C44_4 C41_4 1_555 1_555
H29_4 C41_4 1_555 1_555
H30_4 C42_4 1_555 1_555
C45_4 C43_4 1_555 1_555
C46_4 C44_4 1_555 1_555
O8 C45_4 1_555 1_555
O9_2 C45_4 1_555 1_555
O7 C46_4 1_555 1_555
O6_2 C46_4 1_555 1_555
C6_4 C9_4 1_555 1_555
C22_4 C23_4 1_555 1_555
C26_4 C29_4 1_555 1_555
C40_4 C43_4 1_555 1_555
C42_4 C44_4 1_555 1_555
C50 C51 1_555 1_555
C51 C65 1_555 1_555
C59 C50 1_555 1_555
C65 H39 1_555 1_555
H44 C68 1_555 1_555
C78 C59 1_555 1_555
C79 C78 1_555 1_555
C88 C79 1_555 1_555
H56 C88 1_555 1_555
H58 C90 1_555 1_555
Co18 O22 1_555 1_555
C65 C68 1_555 1_555
C88 C90 1_555 1_555
O19 C58 1_555 1_555
C58 C60 1_555 1_555
C60 C66 1_555 1_555
C66 H40 1_555 1_555
H46 C70 1_555 1_555
O23 C83 1_555 1_555
C83 C84 1_555 1_555
C84 C89 1_555 1_555
C89 H57 1_555 1_555
H60 C92 1_555 1_555
Co14 O23 1_555 1_555
Co16 O19 1_555 1_555
C66 C70 1_555 1_555
C89 C92 1_555 1_555
Co12 N3 1_555 1_555
N3 C55 1_555 1_555
C47 C48 1_555 1_555
C48 H31 1_555 1_555
C55 C48 1_555 1_555
C67 C55 1_555 1_555
H42 C67 1_555 1_555
H43 C67 1_555 1_555
H48 C74 1_555 1_555
H49 C75 1_555 1_555
O25 Co12 1_555 1_555
O29 Co12 1_555 1_555
C74 C75 1_555 1_555
C52 O16 1_555 1_555
C53 C52 1_555 1_555
C54 C49 1_555 1_555
H32 C56 1_555 1_555
C57 C49 1_555 1_555
H33 C57 1_555 1_555
C62 C53 1_555 1_555
H36 C62 1_555 1_555
H38 C64 1_555 1_555
C69 C54 1_555 1_555
H45 C69 1_555 1_555
N4 C73 1_555 1_555
C72 C71 1_555 1_555
H47 C72 1_555 1_555
C73 C72 1_555 1_555
C76 C73 1_555 1_555
H51 C76 1_555 1_555
H52 C76 1_555 1_555
O20 C80 1_555 1_555
C77 C57 1_555 1_555
C80 C81 1_555 1_555
C82 C77 1_555 1_555
C86 C81 1_555 1_555
H54 C86 1_555 1_555
C91 C82 1_555 1_555
H59 C91 1_555 1_555
Co11 N4 1_555 1_555
Co18 O20 1_555 1_555
O26 Co11 1_555 1_555
O30 Co11 1_555 1_555
C56 C64 1_555 1_555
C62 C69 1_555 1_555
C86 C91 1_555 1_555
H35 C61 1_555 1_555
H37 C63 1_555 1_555
C85 H53 1_555 1_555
H55 C87 1_555 1_555
Co14 O21 1_555 1_555
Co16 O17 1_555 1_555
C61 C63 1_555 1_555
C85 C87 1_555 1_555
H35_2 C61_2 1_555 1_555
H37_2 C63_2 1_555 1_555
C85_2 H53_2 1_555 1_555
H55_2 C87_2 1_555 1_555
Co18 O17_2 1_555 1_555
C61_2 C63_2 1_555 1_555
C85_2 C87_2 1_555 1_555
Co14 N3_2 1_555 1_555
N3_2 C55_2 1_555 1_555
O16_2 Co14 1_555 1_555
C47_2 C48_2 1_555 1_555
C48_2 H31_2 1_555 1_555
C52_2 O16_2 1_555 1_555
C53_2 C52_2 1_555 1_555
C54_2 C49_2 1_555 1_555
C55_2 C48_2 1_555 1_555
C56_2 C47_2 1_555 1_555
H32_2 C56_2 1_555 1_555
C57_2 C49_2 1_555 1_555
H33_2 C57_2 1_555 1_555
C62_2 C53_2 1_555 1_555
H36_2 C62_2 1_555 1_555
C64_2 N3_2 1_555 1_555
H38_2 C64_2 1_555 1_555
C67_2 C55_2 1_555 1_555
H41_2 C67_2 1_555 1_555
H42_2 C67_2 1_555 1_555
H43_2 C67_2 1_555 1_555
C69_2 C54_2 1_555 1_555
H45_2 C69_2 1_555 1_555
N4_2 C73_2 1_555 1_555
C71_2 C47_2 1_555 1_555
C72_2 C71_2 1_555 1_555
H47_2 C72_2 1_555 1_555
C73_2 C72_2 1_555 1_555
C74_2 C71_2 1_555 1_555
H48_2 C74_2 1_555 1_555
C75_2 N4_2 1_555 1_555
H49_2 C75_2 1_555 1_555
C76_2 C73_2 1_555 1_555
H50_2 C76_2 1_555 1_555
H51_2 C76_2 1_555 1_555
H52_2 C76_2 1_555 1_555
O20_2 C80_2 1_555 1_555
C77_2 C57_2 1_555 1_555
C80_2 C81_2 1_555 1_555
C82_2 C77_2 1_555 1_555
C86_2 C81_2 1_555 1_555
H54_2 C86_2 1_555 1_555
C91_2 C82_2 1_555 1_555
H59_2 C91_2 1_555 1_555
Co11_2 N4_2 1_555 1_555
O24_2 Co11_2 1_555 1_555
O26_2 Co11_2 1_555 1_555
O27 Co14 1_555 1_555
O28_2 Co11_2 1_555 1_555
O30_2 Co11_2 1_555 1_555
C56_2 C64_2 1_555 1_555
C62_2 C69_2 1_555 1_555
C74_2 C75_2 1_555 1_555
C86_2 C91_2 1_555 1_555
O19_2 C58_2 1_555 1_555
C58_2 C60_2 1_555 1_555
C60_2 C66_2 1_555 1_555
C66_2 H40_2 1_555 1_555
H46_2 C70_2 1_555 1_555
O29 C83_2 1_555 1_555
C83_2 C84_2 1_555 1_555
C84_2 C89_2 1_555 1_555
C89_2 H57_2 1_555 1_555
H60_2 C92_2 1_555 1_555
Co18 O19_2 1_555 1_555
C66_2 C70_2 1_555 1_555
C89_2 C92_2 1_555 1_555
C50_2 C51_2 1_555 1_555
C51_2 C65_2 1_555 1_555
C59_2 C50_2 1_555 1_555
C65_2 H39_2 1_555 1_555
H44_2 C68_2 1_555 1_555
C78_2 C59_2 1_555 1_555
C79_2 C78_2 1_555 1_555
C88_2 C79_2 1_555 1_555
H56_2 C88_2 1_555 1_555
H58_2 C90_2 1_555 1_555
C65_2 C68_2 1_555 1_555
C88_2 C90_2 1_555 1_555
O28 C58_3 1_555 1_555
O19_3 C58_3 1_555 1_555
C50_3 C51_3 1_555 1_555
C51_3 C65_3 1_555 1_555
C58_3 C60_3 1_555 1_555
C59_3 C50_3 1_555 1_555
H34_3 C59_3 1_555 1_555
C60_3 C66_3 1_555 1_555
C65_3 H39_3 1_555 1_555
C66_3 H40_3 1_555 1_555
C68_3 C60_3 1_555 1_555
H44_3 C68_3 1_555 1_555
C70_3 C51_3 1_555 1_555
H46_3 C70_3 1_555 1_555
O22_3 C83_3 1_555 1_555
O30_2 C83_3 1_555 1_555
C78_3 C59_3 1_555 1_555
C79_3 C78_3 1_555 1_555
C83_3 C84_3 1_555 1_555
C84_3 C89_3 1_555 1_555
C88_3 C79_3 1_555 1_555
H56_3 C88_3 1_555 1_555
C89_3 H57_3 1_555 1_555
C90_3 C84_3 1_555 1_555
H58_3 C90_3 1_555 1_555
C92_3 C79_3 1_555 1_555
H60_3 C92_3 1_555 1_555
Co16_2 O19_3 1_555 1_555
Co18_2 O22_3 1_555 1_555
C65_3 C68_3 1_555 1_555
C66_3 C70_3 1_555 1_555
C88_3 C90_3 1_555 1_555
C89_3 C92_3 1_555 1_555
O17_3 C52_3 1_555 1_555
C52_3 O24 1_555 1_555
C53_3 C52_3 1_555 1_555
C54_3 C49_3 1_555 1_555
C57_3 C49_3 1_555 1_555
H33_3 C57_3 1_555 1_555
C61_3 C53_3 1_555 1_555
H35_3 C61_3 1_555 1_555
C62_3 C53_3 1_555 1_555
H36_3 C62_3 1_555 1_555
C63_3 C54_3 1_555 1_555
H37_3 C63_3 1_555 1_555
C69_3 C54_3 1_555 1_555
H45_3 C69_3 1_555 1_555
O20_3 C80_3 1_555 1_555
O26_2 C80_3 1_555 1_555
C77_3 C57_3 1_555 1_555
C80_3 C81_3 1_555 1_555
C81_3 C85_3 1_555 1_555
C82_3 C77_3 1_555 1_555
C85_3 H53_3 1_555 1_555
C86_3 C81_3 1_555 1_555
H54_3 C86_3 1_555 1_555
C87_3 C82_3 1_555 1_555
H55_3 C87_3 1_555 1_555
C91_3 C82_3 1_555 1_555
H59_3 C91_3 1_555 1_555
Co16_2 O17_3 1_555 1_555
Co18_2 O20_3 1_555 1_555
C61_3 C63_3 1_555 1_555
C62_3 C69_3 1_555 1_555
C85_3 C87_3 1_555 1_555
C86_3 C91_3 1_555 1_555
O17_4 C52_4 1_555 1_555
C52_4 O24_2 1_555 1_555
C53_4 C52_4 1_555 1_555
C54_4 C49_4 1_555 1_555
C57_4 C49_4 1_555 1_555
H33_4 C57_4 1_555 1_555
C61_4 C53_4 1_555 1_555
H35_4 C61_4 1_555 1_555
C62_4 C53_4 1_555 1_555
H36_4 C62_4 1_555 1_555
C63_4 C54_4 1_555 1_555
H37_4 C63_4 1_555 1_555
C69_4 C54_4 1_555 1_555
H45_4 C69_4 1_555 1_555
O20_4 C80_4 1_555 1_555
O26 C80_4 1_555 1_555
C77_4 C57_4 1_555 1_555
C80_4 C81_4 1_555 1_555
C81_4 C85_4 1_555 1_555
C82_4 C77_4 1_555 1_555
C85_4 H53_4 1_555 1_555
C86_4 C81_4 1_555 1_555
H54_4 C86_4 1_555 1_555
C87_4 C82_4 1_555 1_555
H55_4 C87_4 1_555 1_555
C91_4 C82_4 1_555 1_555
H59_4 C91_4 1_555 1_555
Co18_2 O17_4 1_555 1_555
C61_4 C63_4 1_555 1_555
C62_4 C69_4 1_555 1_555
C85_4 C87_4 1_555 1_555
C86_4 C91_4 1_555 1_555
O28_2 C58_4 1_555 1_555
O19_4 C58_4 1_555 1_555
C50_4 C51_4 1_555 1_555
C51_4 C65_4 1_555 1_555
C58_4 C60_4 1_555 1_555
C59_4 C50_4 1_555 1_555
H34_4 C59_4 1_555 1_555
C60_4 C66_4 1_555 1_555
C65_4 H39_4 1_555 1_555
C66_4 H40_4 1_555 1_555
C68_4 C60_4 1_555 1_555
H44_4 C68_4 1_555 1_555
C70_4 C51_4 1_555 1_555
H46_4 C70_4 1_555 1_555
O22_4 C83_4 1_555 1_555
O30 C83_4 1_555 1_555
C78_4 C59_4 1_555 1_555
C79_4 C78_4 1_555 1_555
C83_4 C84_4 1_555 1_555
C84_4 C89_4 1_555 1_555
C88_4 C79_4 1_555 1_555
H56_4 C88_4 1_555 1_555
C89_4 H57_4 1_555 1_555
C90_4 C84_4 1_555 1_555
H58_4 C90_4 1_555 1_555
C92_4 C79_4 1_555 1_555
H60_4 C92_4 1_555 1_555
Co18_2 O19_4 1_555 1_555
C65_4 C68_4 1_555 1_555
C66_4 C70_4 1_555 1_555
C88_4 C90_4 1_555 1_555
C89_4 C92_4 1_555 1_555
H32_3 C56_3 1_555 1_555
H38_3 C64_3 1_555 1_555
N4_3 C73_3 1_555 1_555
C72_3 C71_3 1_555 1_555
H47_3 C72_3 1_555 1_555
C73_3 C72_3 1_555 1_555
C76_3 C73_3 1_555 1_555
H51_3 C76_3 1_555 1_555
H52_3 C76_3 1_555 1_555
Co16_2 N4_3 1_555 1_555
C56_3 C64_3 1_555 1_555
Co16 N3_3 1_555 1_555
N3_3 C55_3 1_555 1_555
C47_3 C48_3 1_555 1_555
C48_3 H31_3 1_555 1_555
C55_3 C48_3 1_555 1_555
C67_3 C55_3 1_555 1_555
H42_3 C67_3 1_555 1_555
H43_3 C67_3 1_555 1_555
H48_3 C74_3 1_555 1_555
H49_3 C75_3 1_555 1_555
C74_3 C75_3 1_555 1_555
Co18 N3_4 1_555 1_555
N3_4 C55_4 1_555 1_555
C47_4 C48_4 1_555 1_555
C48_4 H31_4 1_555 1_555
C55_4 C48_4 1_555 1_555
C56_4 C47_4 1_555 1_555
H32_4 C56_4 1_555 1_555
C64_4 N3_4 1_555 1_555
H38_4 C64_4 1_555 1_555
C67_4 C55_4 1_555 1_555
H41_4 C67_4 1_555 1_555
H42_4 C67_4 1_555 1_555
H43_4 C67_4 1_555 1_555
N4_4 C73_4 1_555 1_555
C71_4 C47_4 1_555 1_555
C72_4 C71_4 1_555 1_555
H47_4 C72_4 1_555 1_555
C73_4 C72_4 1_555 1_555
C74_4 C71_4 1_555 1_555
H48_4 C74_4 1_555 1_555
C75_4 N4_4 1_555 1_555
H49_4 C75_4 1_555 1_555
C76_4 C73_4 1_555 1_555
H50_4 C76_4 1_555 1_555
H51_4 C76_4 1_555 1_555
H52_4 C76_4 1_555 1_555
Co18_2 N4_4 1_555 1_555
C56_4 C64_4 1_555 1_555
C74_4 C75_4 1_555 1_555

#END
