
###############################################################################
#
# This file contains modified crystal structure data generated from the
# MOF subset of the Cambridge Structural Database (CSD) v543 
# hosted by the Cambridge Crystallographic Data Centre (CCDC).
#
# This work is licensed under the Creative Commons
# Attribution-NonCommercial-ShareAlike 4.0 International License.
# To view a copy of this license, visit
# http://creativecommons.org/licenses/by-nc-sa/4.0/
# or send a letter to
# Creative Commons, PO Box 1866, Mountain View, CA 94042, USA.
#
# CIF created using the CSD Python API on 29 September 2022
# The structure has been converted into the P1 space group
# The structure has a 3D framework
# The original CSD entry ONUQOE is in the monoclinic crystal system
# The framework has been calculated to contain at least 10.0% void space
# The void calculation uses a probe of radius 1.32A, grid spacing 0.4
# The framework is charged, counterions have been retained in the structure
#
###############################################################################

data_ONUQOE
_chemical_formula_moiety         '(C140 H104 Cd11 N4 O32 S16 1+)n'
_symmetry_cell_setting           triclinic
_symmetry_space_group_name_H-M   'P 1'
_symmetry_Int_Tables_number      1
_space_group_name_Hall           'P 1'
loop_
_symmetry_equiv_pos_site_id
_symmetry_equiv_pos_as_xyz
1 x,y,z
_cell_length_a                   12.236(4)
_cell_length_b                   27.179(8)
_cell_length_c                   12.467(4)
_cell_angle_alpha                90
_cell_angle_beta                 109.754(4)
_cell_angle_gamma                90
_cell_volume                     3902.07
loop_
_atom_site_label
_atom_site_type_symbol
_atom_site_fract_x
_atom_site_fract_y
_atom_site_fract_z
C3 C 0.0164(9) 0.2796(4) 0.2161(9)
H1 H 0.0420 0.2588 0.2789
C4 C 0.0518(11) 0.3292(4) 0.2295(11)
H2 H 0.0987 0.3413 0.2998
C5 C 0.0149(10) 0.3588(4) 0.1362(11)
H3 H 0.0385 0.3915 0.1417
H15 H 0.4934 0.5905 0.0164
O24 O 0.0977(6) 0.1078(3) 0.1610(7)
C12 C 0.0078(9) 0.3507(4) 0.6938(10)
H6 H 0.0825 0.3382 0.7107
H7 H 0.0152 0.4000 0.5751
H12 H 0.0622 0.4830 0.8287
C22 C 0.2579(8) 0.5309(4) 0.7825(9)
C23 C 0.2341(10) 0.5651(4) 0.8553(9)
H13 H 0.1572 0.5731 0.8448
C24 C 0.3211(11) 0.5872(4) 0.9418(10)
H14 H 0.3032 0.6098 0.9894
C25 C 0.4342(10) 0.5757(4) 0.9576(11)
C26 C 0.4612(10) 0.5430(4) 0.8884(10)
H16 H 0.5386 0.5357 0.8999
C27 C 0.3741(8) 0.5202(3) 0.8003(8)
C28 C 0.4065(9) 0.4838(4) 0.7249(8)
O5 O 0.4747(7) 0.4971(3) 0.6765(6)
O6 O 0.3632(6) 0.4416(3) 0.7176(6)
S1 S 0.1514(2) 0.50155(11) 0.6670(2)
S2 S 0.0067(2) 0.54436(11) 0.6299(2)
Cd5 Cd 0.40407(6) 0.39127(3) 0.59917(6)
Cd8 Cd 0.5000 0.5000 0.5000
Cd1 Cd 0.90407(6) 0.10873(3) 0.09917(6)
C1 C 0.9175(9) 0.2064(4) 0.1038(10)
C2 C 0.9456(9) 0.2605(4) 0.1139(9)
C6 C 0.9430(9) 0.3406(4) 0.0337(10)
C7 C 0.9074(8) 0.2915(4) 0.0202(9)
O1 O 0.9105(7) 0.1844(2) 0.1895(7)
O2 O 0.9111(7) 0.1856(3) 0.0143(7)
O21 O 0.8632(6) 0.0584(3) 0.2176(6)
H4 H 0.9172 0.3617 0.9714
C8 C 0.6624(9) 0.4096(4) 0.6112(9)
C9 C 0.7806(8) 0.3879(3) 0.6417(8)
C10 C 0.8217(8) 0.3514(4) 0.7253(8)
C11 C 0.9359(10) 0.3330(4) 0.7485(10)
H5 H 0.9627 0.3083 0.8025
C13 C 0.9677(9) 0.3874(4) 0.6131(10)
C14 C 0.8563(9) 0.4051(4) 0.5897(9)
H8 H 0.8309 0.4300 0.5358
C15 C 0.7452(9) 0.5632(4) 0.5924(9)
C16 C 0.8135(8) 0.5331(3) 0.6943(8)
C17 C 0.7564(9) 0.5138(4) 0.7622(8)
H9 H 0.6779 0.5210 0.7447
C18 C 0.8089(11) 0.4848(4) 0.8538(9)
H10 H 0.7681 0.4728 0.8991
C19 C 0.9247(10) 0.4736(4) 0.8775(9)
H11 H 0.9625 0.4538 0.9399
C20 C 0.9842(9) 0.4911(4) 0.8113(8)
C21 C 0.9291(9) 0.5211(3) 0.7169(8)
O3 O 0.7968(6) 0.5896(3) 0.5440(6)
O4 O 0.6347(6) 0.5609(2) 0.5592(6)
O7 O 0.5977(6) 0.3922(3) 0.6610(7)
O8 O 0.6361(6) 0.4431(2) 0.5362(6)
S3 S 0.7284(2) 0.32799(10) 0.7970(3)
S4 S 0.8150(3) 0.26829(10) 0.8865(2)
Cd4 Cd 0.59593(6) 0.60873(3) 0.40083(6)
H20 H 0.0828 0.6383 0.0286
C36 C 0.3376(9) 0.5904(4) 0.3888(9)
C37 C 0.2194(8) 0.6121(3) 0.3583(8)
C38 C 0.1783(8) 0.6486(4) 0.2747(8)
C39 C 0.0641(10) 0.6670(4) 0.2515(10)
H21 H 0.0373 0.6917 0.1975
C41 C 0.0323(9) 0.6126(4) 0.3869(10)
C42 C 0.1437(9) 0.5949(4) 0.4103(9)
H24 H 0.1691 0.5700 0.4642
C43 C 0.2548(9) 0.4368(4) 0.4076(9)
C44 C 0.1865(8) 0.4669(3) 0.3057(8)
C45 C 0.2436(9) 0.4862(4) 0.2378(8)
H25 H 0.3221 0.4790 0.2553
C46 C 0.1911(11) 0.5152(4) 0.1462(9)
H26 H 0.2319 0.5272 0.1009
C47 C 0.0753(10) 0.5264(4) 0.1225(9)
H27 H 0.0375 0.5462 0.0601
C48 C 0.0158(9) 0.5089(4) 0.1887(8)
C49 C 0.0709(9) 0.4789(3) 0.2831(8)
O11 O 0.2032(6) 0.4104(3) 0.4560(6)
O12 O 0.7032(6) 0.0896(3) 0.9560(6)
O13 O 0.2968(6) 0.9104(3) 0.0440(6)
O14 O 0.3653(6) 0.4391(2) 0.4408(6)
O15 O 0.8653(6) 0.0609(2) 0.9408(6)
O16 O 0.1347(6) 0.9391(2) 0.0592(6)
O19 O 0.5253(7) 0.5029(3) 0.3235(6)
O23 O 0.4023(6) 0.6078(3) 0.3390(7)
O26 O 0.3639(6) 0.5569(2) 0.4638(6)
S7 S 0.2716(2) 0.67201(10) 0.2030(3)
S8 S 0.1850(3) 0.73171(10) 0.1135(2)
Cd3 Cd 0.09593(6) 0.89127(3) 0.90083(6)
C29 C 0.0825(9) 0.7936(4) 0.8962(10)
C30 C 0.0544(9) 0.7395(4) 0.8861(9)
C34 C 0.0570(9) 0.6594(4) 0.9663(10)
C35 C 0.0926(8) 0.7085(4) 0.9798(9)
O9 O 0.0895(7) 0.8156(2) 0.8105(7)
O10 O 0.0889(7) 0.8144(3) 0.9857(7)
O22 O 0.1368(6) 0.9416(3) 0.7824(6)
C40 C 0.9922(9) 0.6493(4) 0.3062(10)
H22 H 0.9175 0.6618 0.2893
H23 H 0.9848 0.6000 0.4249
H28 H 0.9378 0.5170 0.1713
C50 C 0.7421(8) 0.4691(4) 0.2175(9)
C51 C 0.7659(10) 0.4349(4) 0.1447(9)
H29 H 0.8428 0.4269 0.1552
C52 C 0.6789(11) 0.4128(4) 0.0582(10)
H30 H 0.6968 0.3902 0.0106
C53 C 0.5658(10) 0.4243(4) 0.0424(11)
C54 C 0.5388(10) 0.4570(4) 0.1116(10)
H32 H 0.4614 0.4643 0.1001
C55 C 0.6259(8) 0.4798(3) 0.1997(8)
C56 C 0.5935(9) 0.5162(4) 0.2751(8)
O20 O 0.6368(6) 0.5584(3) 0.2824(6)
S5 S 0.8486(2) 0.49845(11) 0.3330(2)
S6 S 0.9933(2) 0.45564(11) 0.3701(2)
C31 C 0.9836(9) 0.7204(4) 0.7839(9)
H17 H 0.9580 0.7412 0.7211
C32 C 0.9482(11) 0.6708(4) 0.7705(11)
H18 H 0.9013 0.6587 0.7002
C33 C 0.9851(10) 0.6412(4) 0.8638(11)
H19 H 0.9615 0.6085 0.8583
H31 H 0.5066 0.4095 0.9836
O25 O 0.9023(6) 0.8922(3) 0.8390(7)
Cd9 Cd -0.0000 0.0000 0.0000
Cd9_2 Cd -0.0000 0.0000 1.0000
Cd9_3 Cd -0.0000 1.0000 0.0000
H32_2 H 0.0386 0.9643 0.3999
Cd9_4 Cd -0.0000 1.0000 1.0000
Cd9_5 Cd 1.0000 0.0000 0.0000
C29_2 C 0.4175(9) 0.2936(4) 0.6038(10)
C30_2 C 0.4456(9) 0.2395(4) 0.6139(9)
C31_2 C 0.5164(9) 0.2204(4) 0.7161(9)
H17_2 H 0.5420 0.2412 0.7789
C32_2 C 0.5518(11) 0.1708(4) 0.7295(11)
H18_2 H 0.5987 0.1587 0.7998
C33_2 C 0.5149(10) 0.1412(4) 0.6362(11)
H19_2 H 0.5385 0.1085 0.6417
C34_2 C 0.4430(9) 0.1594(4) 0.5337(10)
H20_2 H 0.4172 0.1383 0.4714
C35_2 C 0.4074(8) 0.2085(4) 0.5202(9)
C36_2 C 0.1624(9) 0.0904(4) 0.1112(9)
C37_2 C 0.2806(8) 0.1121(3) 0.1417(8)
C38_2 C 0.3217(8) 0.1486(4) 0.2253(8)
C39_2 C 0.4359(10) 0.1670(4) 0.2485(10)
H21_2 H 0.4627 0.1917 0.3025
C40_2 C 0.5078(9) 0.1493(4) 0.1938(10)
H22_2 H 0.5825 0.1618 0.2107
C41_2 C 0.4677(9) 0.1126(4) 0.1131(10)
H23_2 H 0.5152 0.1000 0.0751
C42_2 C 0.3563(9) 0.0949(4) 0.0897(9)
H24_2 H 0.3309 0.0700 0.0358
C46_2 C 0.3089(11) 0.0152(4) 0.3538(9)
H26_2 H 0.2681 0.0272 0.3991
C47_2 C 0.4247(10) 0.0264(4) 0.3775(9)
H27_2 H 0.4625 0.0462 0.4399
C48_2 C 0.4842(9) 0.0089(4) 0.3113(8)
H28_2 H 0.5622 0.0170 0.3287
C56_2 C 0.9065(9) 0.0162(4) 0.2249(8)
O9_2 O 0.4105(7) 0.3156(2) 0.6895(7)
O10_2 O 0.4111(7) 0.3144(3) 0.5143(7)
O17 O 0.9747(7) 0.0029(3) 0.1765(6)
O26_2 O 0.1361(6) 0.0569(2) 0.0362(6)
S7_2 S 0.2284(2) 0.17201(10) 0.2970(3)
S8_2 S 0.3150(3) 0.23171(10) 0.3865(2)
Cd9_6 Cd 1.0000 0.0000 1.0000
Cd9_7 Cd 1.0000 1.0000 0.0000
C43_2 C 0.2452(9) 0.9368(4) 0.0924(9)
C44_2 C 0.3135(8) 0.9669(3) 0.1943(8)
C45_2 C 0.2564(9) 0.9862(4) 0.2622(8)
H25_2 H 0.1779 0.9790 0.2447
C49_2 C 0.4291(9) 0.9789(3) 0.2169(8)
C50_2 C 0.7579(8) 0.9691(4) 0.2825(9)
C51_2 C 0.7341(10) 0.9349(4) 0.3553(9)
H29_2 H 0.6572 0.9269 0.3448
C52_2 C 0.8211(11) 0.9128(4) 0.4418(10)
H30_2 H 0.8032 0.8902 0.4894
C53_2 C 0.9342(10) 0.9243(4) 0.4576(11)
H31_2 H 0.9934 0.9095 0.5164
C54_2 C 0.9612(10) 0.9570(4) 0.3884(10)
C55_2 C 0.8741(8) 0.9798(3) 0.3003(8)
S5_2 S 0.6514(2) 0.99845(11) 0.1670(2)
S6_2 S 0.5067(2) 0.95564(11) 0.1299(2)
Cd9_8 Cd 1.0000 1.0000 1.0000
O18 O 0.0253(7) 0.9971(3) 0.8235(6)
C15_2 C 0.7548(9) 0.0632(4) 0.9076(9)
C16_2 C 0.6865(8) 0.0331(3) 0.8057(8)
C17_2 C 0.7436(9) 0.0138(4) 0.7378(8)
H9_2 H 0.8221 0.0210 0.7553
C21_2 C 0.5709(9) 0.0211(3) 0.7831(8)
C22_2 C 0.2421(8) 0.0309(4) 0.7175(9)
C23_2 C 0.2659(10) 0.0651(4) 0.6447(9)
H13_2 H 0.3428 0.0731 0.6552
C24_2 C 0.1789(11) 0.0872(4) 0.5582(10)
H14_2 H 0.1968 0.1098 0.5106
C25_2 C 0.0658(10) 0.0757(4) 0.5424(11)
H15_2 H 0.0066 0.0905 0.4836
C26_2 C 0.0388(10) 0.0430(4) 0.6116(10)
C27_2 C 0.1259(8) 0.0202(3) 0.6997(8)
S1_2 S 0.3486(2) 0.00155(11) 0.8330(2)
S2_2 S 0.4933(2) 0.04436(11) 0.8701(2)
C1_2 C 0.5825(9) 0.7064(4) 0.3962(10)
C2_2 C 0.5544(9) 0.7605(4) 0.3861(9)
C3_2 C 0.4836(9) 0.7796(4) 0.2839(9)
H1_2 H 0.4580 0.7588 0.2211
C4_2 C 0.4482(11) 0.8292(4) 0.2705(11)
H2_2 H 0.4013 0.8413 0.2002
C5_2 C 0.4851(10) 0.8588(4) 0.3638(11)
H3_2 H 0.4615 0.8915 0.3583
C6_2 C 0.5570(9) 0.8406(4) 0.4663(10)
H4_2 H 0.5828 0.8617 0.5286
C7_2 C 0.5926(8) 0.7915(4) 0.4798(9)
C8_2 C 0.8376(9) 0.9096(4) 0.8888(9)
C9_2 C 0.7194(8) 0.8879(3) 0.8583(8)
C10_2 C 0.6783(8) 0.8514(4) 0.7747(8)
C11_2 C 0.5641(10) 0.8330(4) 0.7515(10)
H5_2 H 0.5373 0.8083 0.6975
C12_2 C 0.4922(9) 0.8507(4) 0.8062(10)
H6_2 H 0.4175 0.8382 0.7893
C13_2 C 0.5323(9) 0.8874(4) 0.8869(10)
H7_2 H 0.4848 0.9000 0.9249
C14_2 C 0.6437(9) 0.9051(4) 0.9103(9)
H8_2 H 0.6691 0.9300 0.9642
C18_2 C 0.6911(11) 0.9848(4) 0.6462(9)
H10_2 H 0.7319 0.9728 0.6009
C19_2 C 0.5753(10) 0.9736(4) 0.6225(9)
H11_2 H 0.5375 0.9538 0.5601
C20_2 C 0.5158(9) 0.9911(4) 0.6887(8)
H12_2 H 0.4378 0.9830 0.6713
C28_2 C 0.0935(9) 0.9838(4) 0.7751(8)
O1_2 O 0.5895(7) 0.6844(2) 0.3105(7)
O2_2 O 0.5889(7) 0.6856(3) 0.4857(7)
O8_2 O 0.8639(6) 0.9431(2) 0.9638(6)
S3_2 S 0.7716(2) 0.82799(10) 0.7030(3)
S4_2 S 0.6850(3) 0.76829(10) 0.6135(2)
H16_2 H 0.9614 0.0357 0.6001
H39 H 0.0589 0.7929 0.3744
C63 C 0.1168(18) 0.8519(6) 0.2514(14)
H40 H 0.1719 0.8329 0.3100
H41 H 0.1310 0.8863 0.2677
H42 H 0.1247 0.8445 0.1791
C57 C 0.9023(17) 0.7533(6) 0.4359(15)
H33 H 0.8268 0.7448 0.4376
H34 H 0.9474 0.7679 0.5073
H35 H 0.9406 0.7241 0.4233
C58 C 0.8903(10) 0.7890(3) 0.3420(9)
C59 C 0.7852(8) 0.8079(5) 0.2707(12)
H36 H 0.7159 0.7974 0.2785
C60 C 0.7838(11) 0.8423(5) 0.1878(10)
H37 H 0.7135 0.8549 0.1401
C61 C 0.8874(15) 0.8579(3) 0.1762(7)
H38 H 0.8864 0.8809 0.1207
C62 C 0.9924(11) 0.8390(3) 0.2474(9)
N1 N 0.9939(8) 0.8046(3) 0.3303(7)
C57_2 C 0.5977(17) 0.2533(6) 0.0641(15)
H33_2 H 0.6732 0.2448 0.0624
H35_2 H 0.5594 0.2241 0.0767
C58_2 C 0.6097(10) 0.2890(3) 0.1580(9)
C59_2 C 0.7148(8) 0.3079(5) 0.2293(12)
H36_2 H 0.7841 0.2974 0.2215
C60_2 C 0.7162(11) 0.3423(5) 0.3122(10)
H37_2 H 0.7865 0.3549 0.3599
C61_2 C 0.6126(15) 0.3579(3) 0.3238(7)
H38_2 H 0.6136 0.3809 0.3793
C62_2 C 0.5076(11) 0.3390(3) 0.2526(9)
N1_2 N 0.5061(8) 0.3046(3) 0.1697(7)
H39_2 H 0.4411 0.2929 0.1256
C63_2 C 0.3832(18) 0.3519(6) 0.2486(14)
H40_2 H 0.3281 0.3329 0.1900
H41_2 H 0.3690 0.3863 0.2323
H42_2 H 0.3753 0.3445 0.3209
H34_2 H 0.5526 0.2679 0.9927
C57_3 C 0.0977(17) 0.2467(6) 0.5641(15)
H33_3 H 0.1732 0.2552 0.5624
H34_3 H 0.0526 0.2321 0.4927
H35_3 H 0.0594 0.2759 0.5767
C58_3 C 0.1097(10) 0.2110(3) 0.6580(9)
C59_3 C 0.2148(8) 0.1921(5) 0.7293(12)
H36_3 H 0.2841 0.2026 0.7215
C60_3 C 0.2162(11) 0.1577(5) 0.8122(10)
H37_3 H 0.2865 0.1451 0.8599
C61_3 C 0.1126(15) 0.1421(3) 0.8238(7)
H38_3 H 0.1136 0.1191 0.8793
C62_3 C 0.0076(11) 0.1610(3) 0.7526(9)
N1_3 N 0.0061(8) 0.1954(3) 0.6697(7)
H39_3 H 0.9411 0.2071 0.6256
C63_3 C 0.8832(18) 0.1481(6) 0.7486(14)
H40_3 H 0.8281 0.1671 0.6900
H41_3 H 0.8690 0.1137 0.7323
H42_3 H 0.8753 0.1555 0.8209
H34_4 H 0.4474 0.7321 0.0073
C57_4 C 0.4023(17) 0.7467(6) 0.9359(15)
H33_4 H 0.3268 0.7552 0.9376
H35_4 H 0.4406 0.7759 0.9233
C58_4 C 0.3903(10) 0.7110(3) 0.8420(9)
C59_4 C 0.2852(8) 0.6921(5) 0.7707(12)
H36_4 H 0.2159 0.7026 0.7785
C60_4 C 0.2838(11) 0.6577(5) 0.6878(10)
H37_4 H 0.2135 0.6451 0.6401
C61_4 C 0.3874(15) 0.6421(3) 0.6762(7)
H38_4 H 0.3864 0.6191 0.6207
C62_4 C 0.4924(11) 0.6610(3) 0.7474(9)
N1_4 N 0.4939(8) 0.6954(3) 0.8303(7)
H39_4 H 0.5589 0.7071 0.8744
C63_4 C 0.6168(18) 0.6481(6) 0.7514(14)
H40_4 H 0.6719 0.6671 0.8100
H41_4 H 0.6310 0.6137 0.7677
H42_4 H 0.6247 0.6555 0.6791
loop_
_geom_bond_atom_site_label_1
_geom_bond_atom_site_label_2
_geom_bond_site_symmetry_1
_geom_bond_site_symmetry_2
C3 H1 1_555 1_555
C4 C3 1_555 1_555
H2 C4 1_555 1_555
C5 C4 1_555 1_555
H3 C5 1_555 1_555
H6 C12 1_555 1_555
C22 C23 1_555 1_555
C23 H13 1_555 1_555
C24 C23 1_555 1_555
H14 C24 1_555 1_555
C25 C24 1_555 1_555
C26 C25 1_555 1_555
H16 C26 1_555 1_555
C27 C22 1_555 1_555
C28 C27 1_555 1_555
O5 C28 1_555 1_555
O6 C28 1_555 1_555
S1 C22 1_555 1_555
Cd5 O6 1_555 1_555
Cd8 O5 1_555 1_555
C26 C27 1_555 1_555
S1 S2 1_555 1_555
Cd1 O1 1_555 1_555
C1 C2 1_555 1_555
C7 C2 1_555 1_555
O1 C1 1_555 1_555
O2 Cd1 1_555 1_555
O21 Cd1 1_555 1_555
C1 O2 1_555 1_555
C6 C7 1_555 1_555
Cd8 O4 1_555 1_555
C8 C9 1_555 1_555
C9 C10 1_555 1_555
C10 C11 1_555 1_555
C11 H5 1_555 1_555
C14 C9 1_555 1_555
H8 C14 1_555 1_555
C15 C16 1_555 1_555
C16 C17 1_555 1_555
C17 H9 1_555 1_555
C18 C17 1_555 1_555
H10 C18 1_555 1_555
C19 C18 1_555 1_555
H11 C19 1_555 1_555
C20 C19 1_555 1_555
C21 C16 1_555 1_555
O3 C15 1_555 1_555
O4 C15 1_555 1_555
O7 C8 1_555 1_555
O8 Cd8 1_555 1_555
S3 C10 1_555 1_555
Cd4 O3 1_555 1_555
Cd5 O7 1_555 1_555
C36 C37 1_555 1_555
C37 C38 1_555 1_555
C38 C39 1_555 1_555
C39 H21 1_555 1_555
C42 C37 1_555 1_555
H24 C42 1_555 1_555
C43 C44 1_555 1_555
C44 C45 1_555 1_555
C45 H25 1_555 1_555
C46 C45 1_555 1_555
H26 C46 1_555 1_555
C47 C46 1_555 1_555
H27 C47 1_555 1_555
C48 C47 1_555 1_555
C49 C44 1_555 1_555
O11 Cd5 1_555 1_555
O14 Cd8 1_555 1_555
O19 Cd8 1_555 1_555
O23 Cd4 1_555 1_555
O26 Cd8 1_555 1_555
S7 C38 1_555 1_555
C8 O8 1_555 1_555
C13 C14 1_555 1_555
C20 C21 1_555 1_555
O4 Cd4 1_555 1_555
S3 S4 1_555 1_555
Cd5 O14 1_555 1_555
C36 O23 1_555 1_555
C36 O26 1_555 1_555
C41 C42 1_555 1_555
C43 O11 1_555 1_555
C43 O14 1_555 1_555
C48 C49 1_555 1_555
S7 S8 1_555 1_555
Cd3 O9 1_555 1_555
C29 C30 1_555 1_555
C35 C30 1_555 1_555
O9 C29 1_555 1_555
O10 Cd3 1_555 1_555
O22 Cd3 1_555 1_555
C29 O10 1_555 1_555
C34 C35 1_555 1_555
Cd4 O20 1_555 1_555
H22 C40 1_555 1_555
C50 C51 1_555 1_555
C51 H29 1_555 1_555
C52 C51 1_555 1_555
H30 C52 1_555 1_555
C53 C52 1_555 1_555
C54 C53 1_555 1_555
H32 C54 1_555 1_555
C55 C50 1_555 1_555
C56 C55 1_555 1_555
O19 C56 1_555 1_555
O20 C56 1_555 1_555
S5 C50 1_555 1_555
C54 C55 1_555 1_555
S5 S6 1_555 1_555
C31 H17 1_555 1_555
C32 C31 1_555 1_555
H18 C32 1_555 1_555
C33 C32 1_555 1_555
H19 C33 1_555 1_555
Cd5 O9_2 1_555 1_555
Cd9_5 O17 1_555 1_555
C29_2 C30_2 1_555 1_555
C30_2 C31_2 1_555 1_555
C31_2 H17_2 1_555 1_555
C32_2 C31_2 1_555 1_555
H18_2 C32_2 1_555 1_555
C33_2 C32_2 1_555 1_555
H19_2 C33_2 1_555 1_555
C34_2 C33_2 1_555 1_555
H20_2 C34_2 1_555 1_555
C35_2 C30_2 1_555 1_555
C36_2 C37_2 1_555 1_555
C37_2 C38_2 1_555 1_555
C38_2 C39_2 1_555 1_555
C39_2 H21_2 1_555 1_555
C40_2 C39_2 1_555 1_555
H22_2 C40_2 1_555 1_555
C41_2 C40_2 1_555 1_555
H23_2 C41_2 1_555 1_555
C42_2 C37_2 1_555 1_555
H24_2 C42_2 1_555 1_555
H26_2 C46_2 1_555 1_555
C47_2 C46_2 1_555 1_555
H27_2 C47_2 1_555 1_555
C48_2 C47_2 1_555 1_555
H28_2 C48_2 1_555 1_555
O9_2 C29_2 1_555 1_555
O10_2 Cd5 1_555 1_555
O17 C56_2 1_555 1_555
O21 C56_2 1_555 1_555
O26_2 Cd9 1_555 1_555
S7_2 C38_2 1_555 1_555
S8_2 C35_2 1_555 1_555
C29_2 O10_2 1_555 1_555
C34_2 C35_2 1_555 1_555
C36_2 O24 1_555 1_555
C36_2 O26_2 1_555 1_555
C41_2 C42_2 1_555 1_555
S7_2 S8_2 1_555 1_555
C43_2 C44_2 1_555 1_555
C44_2 C45_2 1_555 1_555
C45_2 H25_2 1_555 1_555
C49_2 C44_2 1_555 1_555
C50_2 C51_2 1_555 1_555
C51_2 H29_2 1_555 1_555
C52_2 C51_2 1_555 1_555
H30_2 C52_2 1_555 1_555
C53_2 C52_2 1_555 1_555
H31_2 C53_2 1_555 1_555
C54_2 C53_2 1_555 1_555
C55_2 C50_2 1_555 1_555
O16 Cd9_3 1_555 1_555
S5_2 C50_2 1_555 1_555
S6_2 C49_2 1_555 1_555
C43_2 O13 1_555 1_555
C43_2 O16 1_555 1_555
C54_2 C55_2 1_555 1_555
S5_2 S6_2 1_555 1_555
O18 Cd9_4 1_555 1_555
Cd9_6 O15 1_555 1_555
C15_2 C16_2 1_555 1_555
C16_2 C17_2 1_555 1_555
C17_2 H9_2 1_555 1_555
C21_2 C16_2 1_555 1_555
C22_2 C23_2 1_555 1_555
C23_2 H13_2 1_555 1_555
C24_2 C23_2 1_555 1_555
H14_2 C24_2 1_555 1_555
C25_2 C24_2 1_555 1_555
H15_2 C25_2 1_555 1_555
C26_2 C25_2 1_555 1_555
C27_2 C22_2 1_555 1_555
O12 C15_2 1_555 1_555
O15 C15_2 1_555 1_555
S1_2 C22_2 1_555 1_555
S2_2 C21_2 1_555 1_555
C26_2 C27_2 1_555 1_555
S1_2 S2_2 1_555 1_555
Cd4 O1_2 1_555 1_555
C1_2 C2_2 1_555 1_555
C2_2 C3_2 1_555 1_555
C3_2 H1_2 1_555 1_555
C4_2 C3_2 1_555 1_555
H2_2 C4_2 1_555 1_555
C5_2 C4_2 1_555 1_555
H3_2 C5_2 1_555 1_555
C6_2 C5_2 1_555 1_555
H4_2 C6_2 1_555 1_555
C7_2 C2_2 1_555 1_555
C8_2 C9_2 1_555 1_555
C9_2 C10_2 1_555 1_555
C10_2 C11_2 1_555 1_555
C11_2 H5_2 1_555 1_555
C12_2 C11_2 1_555 1_555
H6_2 C12_2 1_555 1_555
C13_2 C12_2 1_555 1_555
H7_2 C13_2 1_555 1_555
C14_2 C9_2 1_555 1_555
H8_2 C14_2 1_555 1_555
H10_2 C18_2 1_555 1_555
C19_2 C18_2 1_555 1_555
H11_2 C19_2 1_555 1_555
C20_2 C19_2 1_555 1_555
H12_2 C20_2 1_555 1_555
O1_2 C1_2 1_555 1_555
O2_2 Cd4 1_555 1_555
O18 C28_2 1_555 1_555
O22 C28_2 1_555 1_555
O25 C8_2 1_555 1_555
O8_2 Cd9_8 1_555 1_555
S3_2 C10_2 1_555 1_555
S4_2 C7_2 1_555 1_555
C1_2 O2_2 1_555 1_555
C6_2 C7_2 1_555 1_555
C8_2 O8_2 1_555 1_555
C13_2 C14_2 1_555 1_555
S3_2 S4_2 1_555 1_555
H40 C63 1_555 1_555
H41 C63 1_555 1_555
H42 C63 1_555 1_555
C57 H33 1_555 1_555
H34 C57 1_555 1_555
H35 C57 1_555 1_555
C58 C57 1_555 1_555
C59 C58 1_555 1_555
H36 C59 1_555 1_555
C60 C59 1_555 1_555
H37 C60 1_555 1_555
C61 C60 1_555 1_555
H38 C61 1_555 1_555
C62 C61 1_555 1_555
N1 C58 1_555 1_555
C62 N1 1_555 1_555
C57_2 H33_2 1_555 1_555
H35_2 C57_2 1_555 1_555
C58_2 C57_2 1_555 1_555
C59_2 C58_2 1_555 1_555
H36_2 C59_2 1_555 1_555
C60_2 C59_2 1_555 1_555
H37_2 C60_2 1_555 1_555
C61_2 C60_2 1_555 1_555
H38_2 C61_2 1_555 1_555
C62_2 C61_2 1_555 1_555
N1_2 C58_2 1_555 1_555
H39_2 N1_2 1_555 1_555
C63_2 C62_2 1_555 1_555
H40_2 C63_2 1_555 1_555
H41_2 C63_2 1_555 1_555
H42_2 C63_2 1_555 1_555
C62_2 N1_2 1_555 1_555
C57_3 H33_3 1_555 1_555
H34_3 C57_3 1_555 1_555
H35_3 C57_3 1_555 1_555
C58_3 C57_3 1_555 1_555
C59_3 C58_3 1_555 1_555
H36_3 C59_3 1_555 1_555
C60_3 C59_3 1_555 1_555
H37_3 C60_3 1_555 1_555
C61_3 C60_3 1_555 1_555
H38_3 C61_3 1_555 1_555
C62_3 C61_3 1_555 1_555
N1_3 C58_3 1_555 1_555
C62_3 N1_3 1_555 1_555
H40_3 C63_3 1_555 1_555
H41_3 C63_3 1_555 1_555
H42_3 C63_3 1_555 1_555
C57_4 H33_4 1_555 1_555
H35_4 C57_4 1_555 1_555
C58_4 C57_4 1_555 1_555
C59_4 C58_4 1_555 1_555
H36_4 C59_4 1_555 1_555
C60_4 C59_4 1_555 1_555
H37_4 C60_4 1_555 1_555
C61_4 C60_4 1_555 1_555
H38_4 C61_4 1_555 1_555
C62_4 C61_4 1_555 1_555
N1_4 C58_4 1_555 1_555
H39_4 N1_4 1_555 1_555
C63_4 C62_4 1_555 1_555
H40_4 C63_4 1_555 1_555
H41_4 C63_4 1_555 1_555
H42_4 C63_4 1_555 1_555
C62_4 N1_4 1_555 1_555

#END
