
###############################################################################
#
# This file contains modified crystal structure data generated from the
# MOF subset of the Cambridge Structural Database (CSD) v543 
# hosted by the Cambridge Crystallographic Data Centre (CCDC).
#
# This work is licensed under the Creative Commons
# Attribution-NonCommercial-ShareAlike 4.0 International License.
# To view a copy of this license, visit
# http://creativecommons.org/licenses/by-nc-sa/4.0/
# or send a letter to
# Creative Commons, PO Box 1866, Mountain View, CA 94042, USA.
#
# CIF created using the CSD Python API on 29 September 2022
# The structure has been converted into the P1 space group
# The structure has a 3D framework
# The original CSD entry OPAPOL is in the triclinic crystal system
# The framework has been calculated to contain at least 10.0% void space
# The void calculation uses a probe of radius 1.32A, grid spacing 0.4
# H atom positions have been added when not included in the experimental data
# Generated hydrogen atom positions removed from atoms on special positions
#
###############################################################################

data_OPAPOL
_chemical_formula_moiety         '(C30 H48 N24 O16 S6 Tb2)n'
_symmetry_cell_setting           triclinic
_symmetry_space_group_name_H-M   'P 1'
_symmetry_Int_Tables_number      1
_space_group_name_Hall           'P 1'
loop_
_symmetry_equiv_pos_site_id
_symmetry_equiv_pos_as_xyz
1 x,y,z
_cell_length_a                   9.4642(19)
_cell_length_b                   11.474(2)
_cell_length_c                   14.575(3)
_cell_angle_alpha                69.77(3)
_cell_angle_beta                 85.43(3)
_cell_angle_gamma                86.44(3)
_cell_volume                     1479.36
loop_
_atom_site_label
_atom_site_type_symbol
_atom_site_fract_x
_atom_site_fract_y
_atom_site_fract_z
_atom_site_U_iso_or_equiv
_atom_site_thermal_displace_type
Tb5 Tb 0.797014(16) 0.954650(14) 0.002524(11) 0.0180 Uani
H38 H 0.0794 0.3875 0.0077 0.0350 Uiso
S5 S 0.56874(10) 0.63445(9) 0.85038(8) 0.0310 Uani
N13 N 0.3096(3) 0.5325(3) 0.9050(2) 0.0236 Uani
N14 N 0.2071(4) 0.6322(3) 0.9969(3) 0.0312 Uani
N17 N 0.3437(4) 0.6747(3) 0.9673(3) 0.0307 Uani
N19 N 0.3377(4) 0.4530(4) 0.8502(3) 0.0347 Uani
H23 H 0.329(6) 0.388(5) 0.888(4) 0.0420 Uiso
H24 H 0.263(6) 0.480(5) 0.809(4) 0.0420 Uiso
O17 O 0.6869(3) 0.7779(3) 0.9702(2) 0.0285 Uani
O19 O 0.6464(3) 0.9651(2) 0.8663(2) 0.0282 Uani
C26 C 0.5789(4) 0.8000(4) 0.8192(3) 0.0270 Uani
H35 H 0.4837 0.8364 0.8080 0.0330 Uiso
H36 H 0.6346 0.8314 0.7575 0.0330 Uiso
C27 C 0.6407(4) 0.8469(3) 0.8918(3) 0.0216 Uani
C28 C 0.4019(4) 0.6149(3) 0.9121(3) 0.0235 Uani
C29 C 0.1898(4) 0.5460(4) 0.9603(3) 0.0254 Uani
C30 C 0.0595(4) 0.4748(4) 0.9720(3) 0.0294 Uani
H37 H 0.0293 0.4823 0.9081 0.0350 Uiso
S6 S 0.77634(11) 0.26225(11) 0.75251(8) 0.0342 Uani
O10 O 0.8274(3) 0.0423(3) 0.12535(19) 0.0265 Uani
O11 O 0.9505(3) 0.1158(2) 0.92537(19) 0.0258 Uani
C17 C 0.8866(5) 0.1963(4) 0.6804(3) 0.0293 Uani
C19 C 0.9112(4) 0.3185(4) 0.8048(3) 0.0276 Uani
H21 H 0.8660 0.3689 0.8410 0.0330 Uiso
H22 H 0.9717 0.3718 0.7520 0.0330 Uiso
N18 N 0.8310(4) 0.1276(3) 0.6335(2) 0.0312 Uani
C20 C 0.9276(5) 0.0175(4) 0.5193(3) 0.0398 Uani
H26 H 0.8717 0.0645 0.4646 0.0480 Uiso
C23 C 0.9422(5) 0.0934(4) 0.5829(3) 0.0321 Uani
N24 N 0.6911(4) 0.0926(4) 0.6384(3) 0.0480 Uani
H33 H 0.6697 0.0451 0.6074 0.0570 Uiso
H34 H 0.6264 0.1185 0.6723 0.0570 Uiso
O21 O 0.6305(3) 0.1240(2) 0.9810(2) 0.0256 Uani
H39 H 0.6273 0.1921 0.9946 0.0310 Uiso
H40 H 0.5711 0.1589 0.9291 0.0310 Uiso
O3 O 0.8709(3) 0.7602(2) 0.1244(2) 0.0293 Uani
N4 N 0.9775(4) 0.7954(3) 0.3384(3) 0.0334 Uani
C3 C 0.9974(4) 0.7820(3) 0.1278(3) 0.0224 Uani
N9 N 0.9419(4) 0.8628(3) 0.4023(3) 0.0368 Uani
H25 H 0.8780 0.9426 0.5566 0.0480 Uiso
O22 O 0.5989(3) 0.8817(2) 0.1283(2) 0.0278 Uani
S1 S 0.95195(11) 0.77401(11) 0.76334(8) 0.0346 Uani
O4 O 0.9500(3) 0.8931(3) 0.8917(2) 0.0311 Uani
N3 N 0.9243(4) 0.6524(3) 0.6379(3) 0.0308 Uani
N8 N 0.7770(4) 0.6761(5) 0.6425(4) 0.0646 Uani
H7 H 0.7241 0.6519 0.6078 0.0780 Uiso
H8 H 0.7398 0.7150 0.6800 0.0780 Uiso
C10 C 0.9438(5) 0.5294(4) 0.5247(3) 0.0333 Uani
H11 H 0.8813 0.4659 0.5666 0.0400 Uiso
H12 H 0.8876 0.5890 0.4755 0.0400 Uiso
C16 C 0.9249(4) 0.0980(3) 0.1441(3) 0.0221 Uani
C21 C 0.9832(4) 0.3034(4) 0.3153(3) 0.0299 Uani
C22 C 0.8872(4) 0.1600(4) 0.2203(3) 0.0251 Uani
H29 H 0.8527 0.0995 0.2817 0.0300 Uiso
H30 H 0.8141 0.2246 0.1978 0.0300 Uiso
N22 N 0.8633(4) 0.3978(4) 0.4040(3) 0.0510 Uani
N23 N 0.8540(4) 0.3311(4) 0.3396(3) 0.0521 Uani
C24 C 0.9954(5) 0.4061(4) 0.4151(3) 0.0311 Uani
S2 S 0.43126(10) 0.36555(9) 0.14962(8) 0.0310 Uani
N1 N 0.6904(3) 0.4675(3) 0.0950(2) 0.0236 Uani
N2 N 0.7929(4) 0.3678(3) 0.0031(3) 0.0312 Uani
N5 N 0.6563(4) 0.3253(3) 0.0327(3) 0.0307 Uani
N7 N 0.6623(4) 0.5470(4) 0.1498(3) 0.0347 Uani
H3 H 0.671(6) 0.612(5) 0.112(4) 0.0420 Uiso
H4 H 0.737(6) 0.520(5) 0.191(4) 0.0420 Uiso
H5 H 0.1220 0.0574 0.4434 0.0480 Uiso
O5 O 0.3131(3) 0.2221(3) 0.0298(2) 0.0285 Uani
O6 O 0.3536(3) 0.0349(2) 0.1337(2) 0.0282 Uani
C11 C 0.4211(4) 0.2000(4) 0.1808(3) 0.0270 Uani
H15 H 0.5163 0.1636 0.1920 0.0330 Uiso
H16 H 0.3654 0.1686 0.2425 0.0330 Uiso
C12 C 0.3593(4) 0.1531(3) 0.1082(3) 0.0216 Uani
C13 C 0.5981(4) 0.3851(3) 0.0879(3) 0.0235 Uani
C14 C 0.8102(4) 0.4540(4) 0.0397(3) 0.0254 Uani
C15 C 0.9405(4) 0.5252(4) 0.0280(3) 0.0294 Uani
H17 H 0.9707 0.5177 0.0919 0.0350 Uiso
Tb7 Tb 0.202986(16) 0.045350(14) 0.997476(11) 0.0180 Uani
O13 O 0.1291(3) 0.2398(2) 0.8756(2) 0.0293 Uani
O16 O 0.0500(3) 0.1069(3) 0.1083(2) 0.0311 Uani
N16 N 0.0225(4) 0.2046(3) 0.6616(3) 0.0334 Uani
C18 C 0.0026(4) 0.2180(3) 0.8722(3) 0.0224 Uani
N21 N 0.0581(4) 0.1372(3) 0.5977(3) 0.0368 Uani
H18 H 0.9206 0.6125 0.9923 0.0350 Uiso
O8 O 0.4011(3) 0.1183(2) 0.8717(2) 0.0278 Uani
S3 S 0.22366(11) 0.73775(11) 0.24749(8) 0.0342 Uani
O2 O 0.0495(3) 0.8842(2) 0.07463(19) 0.0258 Uani
C2 C 0.1134(5) 0.8037(4) 0.3196(3) 0.0293 Uani
C4 C 0.0888(4) 0.6815(4) 0.1952(3) 0.0276 Uani
H1 H 0.1340 0.6311 0.1590 0.0330 Uiso
H2 H 0.0283 0.6282 0.2480 0.0330 Uiso
N6 N 0.1690(4) 0.8724(3) 0.3665(2) 0.0312 Uani
C5 C 0.0724(5) 0.9825(4) 0.4807(3) 0.0398 Uani
H6 H 0.1283 0.9355 0.5354 0.0480 Uiso
C8 C 0.0578(5) 0.9066(4) 0.4171(3) 0.0321 Uani
N12 N 0.3089(4) 0.9074(4) 0.3616(3) 0.0480 Uani
H13 H 0.3303 0.9549 0.3926 0.0570 Uiso
H14 H 0.3736 0.8815 0.3277 0.0570 Uiso
O7 O 0.3695(3) 0.8760(2) 0.0190(2) 0.0256 Uani
H19 H 0.3727 0.8079 0.0054 0.0310 Uiso
H20 H 0.4289 0.8411 0.0709 0.0310 Uiso
O1 O 0.1726(3) 0.9577(3) 0.87465(19) 0.0265 Uani
C1 C 0.0751(4) 0.9020(3) 0.8559(3) 0.0221 Uani
C6 C 0.0168(4) 0.6966(4) 0.6847(3) 0.0299 Uani
C7 C 0.1128(4) 0.8400(4) 0.7797(3) 0.0251 Uani
H9 H 0.1473 0.9005 0.7183 0.0300 Uiso
H10 H 0.1859 0.7754 0.8022 0.0300 Uiso
N10 N 0.1367(4) 0.6022(4) 0.5960(3) 0.0510 Uani
N11 N 0.1460(4) 0.6689(4) 0.6604(3) 0.0521 Uani
C9 C 0.0046(5) 0.5939(4) 0.5849(3) 0.0311 Uani
S4 S 0.04805(11) 0.22599(11) 0.23666(8) 0.0346 Uani
N15 N 0.0757(4) 0.3476(3) 0.3621(3) 0.0308 Uani
N20 N 0.2230(4) 0.3239(5) 0.3575(4) 0.0646 Uani
H27 H 0.2759 0.3481 0.3922 0.0780 Uiso
H28 H 0.2602 0.2850 0.3200 0.0780 Uiso
C25 C 0.0562(5) 0.4706(4) 0.4753(3) 0.0333 Uani
H31 H 0.1187 0.5341 0.4334 0.0400 Uiso
H32 H 0.1124 0.4110 0.5245 0.0400 Uiso
loop_
_atom_site_aniso_label
_atom_site_aniso_U_11
_atom_site_aniso_U_22
_atom_site_aniso_U_33
_atom_site_aniso_U_23
_atom_site_aniso_U_13
_atom_site_aniso_U_12
Tb5 0.01754 0.02032 0.02074 -0.01235 -0.00153 -0.00341
S5 0.0251 0.0309 0.0458 -0.0246 0.006 -0.0091
N13 0.023 0.0224 0.0304 -0.0148 0.0018 -0.0078
N14 0.0295 0.0318 0.04 -0.0224 0.0055 -0.0081
N17 0.0278 0.0331 0.041 -0.0248 0.0036 -0.0097
N19 0.04 0.029 0.046 -0.0272 0.0058 -0.0101
O17 0.0326 0.029 0.0276 -0.0121 -0.0058 -0.0094
O19 0.0288 0.0255 0.0368 -0.0172 -0.0085 -0.0022
C26 0.028 0.029 0.029 -0.0146 -0.0025 -0.0099
C27 0.0139 0.029 0.027 -0.0159 0.002 -0.0049
C28 0.0248 0.0237 0.0257 -0.0121 -0.0031 -0.0046
C29 0.0218 0.026 0.031 -0.0129 -0.0013 -0.0026
C30 0.026 0.028 0.039 -0.0181 0.0064 -0.0083
S6 0.031 0.0482 0.0301 -0.0215 -0.0074 0.0039
O10 0.0236 0.0374 0.0291 -0.0241 -0.0022 -0.0058
O11 0.0279 0.0214 0.0272 -0.0068 -0.0016 -0.0034
C17 0.038 0.03 0.023 -0.012 -0.0072 -0.0002
C19 0.036 0.023 0.026 -0.0109 -0.0039 -0.0007
N18 0.0402 0.0338 0.0236 -0.014 -0.0038 -0.0051
C20 0.058 0.037 0.031 -0.019 -0.007 -0.003
C23 0.044 0.03 0.026 -0.0132 -0.0056 -0.0027
N24 0.04 0.067 0.053 -0.039 -0.0019 -0.015
O21 0.0261 0.0221 0.0354 -0.0173 -0.0101 0.0028
O3 0.0254 0.0286 0.0355 -0.0115 -0.0056 -0.0063
N4 0.038 0.039 0.0291 -0.0188 -0.0046 -0.0002
C3 0.0294 0.0205 0.021 -0.0118 -0.0009 -0.0029
N9 0.042 0.04 0.036 -0.0229 -0.002 -0.0002
O22 0.0248 0.0307 0.0309 -0.014 0 -0.0058
S1 0.0299 0.0509 0.04 -0.0369 0.001 -0.0076
O4 0.0212 0.048 0.0393 -0.034 0.0021 -0.0075
N3 0.0344 0.038 0.0288 -0.0219 -0.0004 -0.0074
N8 0.034 0.106 0.093 -0.084 -0.001 -0.005
C10 0.048 0.034 0.027 -0.0212 0.0017 -0.0119
C16 0.0241 0.0269 0.0217 -0.0158 -0.0038 -0.0021
C21 0.039 0.033 0.028 -0.0225 -0.004 -0.0053
C22 0.0238 0.033 0.028 -0.022 -0.0024 -0.0027
N22 0.047 0.071 0.062 -0.058 -0.005 0.005
N23 0.039 0.078 0.07 -0.064 -0.01 0.004
C24 0.044 0.03 0.028 -0.0202 -0.0017 -0.0066
S2 0.0251 0.0309 0.0458 -0.0246 0.006 -0.0091
N1 0.023 0.0224 0.0304 -0.0148 0.0018 -0.0078
N2 0.0295 0.0318 0.04 -0.0224 0.0055 -0.0081
N5 0.0278 0.0331 0.041 -0.0248 0.0036 -0.0097
N7 0.04 0.029 0.046 -0.0272 0.0058 -0.0101
O5 0.0326 0.029 0.0276 -0.0121 -0.0058 -0.0094
O6 0.0288 0.0255 0.0368 -0.0172 -0.0085 -0.0022
C11 0.028 0.029 0.029 -0.0146 -0.0025 -0.0099
C12 0.0139 0.029 0.027 -0.0159 0.002 -0.0049
C13 0.0248 0.0237 0.0257 -0.0121 -0.0031 -0.0046
C14 0.0218 0.026 0.031 -0.0129 -0.0013 -0.0026
C15 0.026 0.028 0.039 -0.0181 0.0064 -0.0083
Tb7 0.01754 0.02032 0.02074 -0.01235 -0.00153 -0.00341
O13 0.0254 0.0286 0.0355 -0.0115 -0.0056 -0.0063
O16 0.0212 0.048 0.0393 -0.034 0.0021 -0.0075
N16 0.038 0.039 0.0291 -0.0188 -0.0046 -0.0002
C18 0.0294 0.0205 0.021 -0.0118 -0.0009 -0.0029
N21 0.042 0.04 0.036 -0.0229 -0.002 -0.0002
O8 0.0248 0.0307 0.0309 -0.014 0 -0.0058
S3 0.031 0.0482 0.0301 -0.0215 -0.0074 0.0039
O2 0.0279 0.0214 0.0272 -0.0068 -0.0016 -0.0034
C2 0.038 0.03 0.023 -0.012 -0.0072 -0.0002
C4 0.036 0.023 0.026 -0.0109 -0.0039 -0.0007
N6 0.0402 0.0338 0.0236 -0.014 -0.0038 -0.0051
C5 0.058 0.037 0.031 -0.019 -0.007 -0.003
C8 0.044 0.03 0.026 -0.0132 -0.0056 -0.0027
N12 0.04 0.067 0.053 -0.039 -0.0019 -0.015
O7 0.0261 0.0221 0.0354 -0.0173 -0.0101 0.0028
O1 0.0236 0.0374 0.0291 -0.0241 -0.0022 -0.0058
C1 0.0241 0.0269 0.0217 -0.0158 -0.0038 -0.0021
C6 0.039 0.033 0.028 -0.0225 -0.004 -0.0053
C7 0.0238 0.033 0.028 -0.022 -0.0024 -0.0027
N10 0.047 0.071 0.062 -0.058 -0.005 0.005
N11 0.039 0.078 0.07 -0.064 -0.01 0.004
C9 0.044 0.03 0.028 -0.0202 -0.0017 -0.0066
S4 0.0299 0.0509 0.04 -0.0369 0.001 -0.0076
N15 0.0344 0.038 0.0288 -0.0219 -0.0004 -0.0074
N20 0.034 0.106 0.093 -0.084 -0.001 -0.005
C25 0.048 0.034 0.027 -0.0212 0.0017 -0.0119
loop_
_geom_bond_atom_site_label_1
_geom_bond_atom_site_label_2
_geom_bond_site_symmetry_1
_geom_bond_site_symmetry_2
S5 C26 1_555 1_555
N13 N19 1_555 1_555
N14 N17 1_555 1_555
N17 C28 1_555 1_555
N19 H23 1_555 1_555
H24 N19 1_555 1_555
O17 C27 1_555 1_555
C26 H35 1_555 1_555
H36 C26 1_555 1_555
C27 O19 1_555 1_555
C28 S5 1_555 1_555
C29 N13 1_555 1_555
H37 C30 1_555 1_555
N13 C28 1_555 1_555
N14 C29 1_555 1_555
C26 C27 1_555 1_555
C29 C30 1_555 1_555
S6 C17 1_555 1_555
C19 S6 1_555 1_555
H21 C19 1_555 1_555
H22 C19 1_555 1_555
N18 C17 1_555 1_555
H26 C20 1_555 1_555
C23 N18 1_555 1_555
N24 N18 1_555 1_555
H33 N24 1_555 1_555
H34 N24 1_555 1_555
C20 C23 1_555 1_555
H39 O21 1_555 1_555
H40 O21 1_555 1_555
O3 C3 1_555 1_555
N4 N9 1_555 1_555
O22 Tb5 1_555 1_555
O3 Tb5 1_555 1_555
N8 N3 1_555 1_555
H7 N8 1_555 1_555
H8 N8 1_555 1_555
H11 C10 1_555 1_555
H12 C10 1_555 1_555
O10 C16 1_555 1_555
C16 C22 1_555 1_555
C21 N23 1_555 1_555
H29 C22 1_555 1_555
H30 C22 1_555 1_555
N22 N23 1_555 1_555
N22 C24 1_555 1_555
S2 C11 1_555 1_555
N1 N7 1_555 1_555
N2 N5 1_555 1_555
N5 C13 1_555 1_555
N7 H3 1_555 1_555
H4 N7 1_555 1_555
C11 H15 1_555 1_555
H16 C11 1_555 1_555
C12 O5 1_555 1_555
C13 S2 1_555 1_555
C14 N1 1_555 1_555
C15 C14 1_555 1_555
H17 C15 1_555 1_555
O13 Tb7 1_555 1_555
N16 N21 1_555 1_555
C18 O13 1_555 1_555
N1 C13 1_555 1_555
N2 C14 1_555 1_555
O6 C12 1_555 1_555
C11 C12 1_555 1_555
O8 Tb7 1_555 1_555
S3 C2 1_555 1_555
C4 S3 1_555 1_555
H1 C4 1_555 1_555
H2 C4 1_555 1_555
N6 C2 1_555 1_555
H6 C5 1_555 1_555
C8 N6 1_555 1_555
N12 N6 1_555 1_555
H13 N12 1_555 1_555
H14 N12 1_555 1_555
H19 O7 1_555 1_555
H20 O7 1_555 1_555
C5 C8 1_555 1_555
O1 C1 1_555 1_555
C1 C7 1_555 1_555
C6 N11 1_555 1_555
H9 C7 1_555 1_555
H10 C7 1_555 1_555
N10 N11 1_555 1_555
N20 N15 1_555 1_555
H27 N20 1_555 1_555
H28 N20 1_555 1_555
H31 C25 1_555 1_555
H32 C25 1_555 1_555
N10 C9 1_555 1_555

#END
