
###############################################################################
#
# This file contains modified crystal structure data generated from the
# MOF subset of the Cambridge Structural Database (CSD) v543 
# hosted by the Cambridge Crystallographic Data Centre (CCDC).
#
# This work is licensed under the Creative Commons
# Attribution-NonCommercial-ShareAlike 4.0 International License.
# To view a copy of this license, visit
# http://creativecommons.org/licenses/by-nc-sa/4.0/
# or send a letter to
# Creative Commons, PO Box 1866, Mountain View, CA 94042, USA.
#
# CIF created using the CSD Python API on 29 September 2022
# The structure has been converted into the P1 space group
# The structure has a 3D framework
# The original CSD entry OPAPIF is in the triclinic crystal system
# The framework has been calculated to contain at least 10.0% void space
# The void calculation uses a probe of radius 1.32A, grid spacing 0.4
# H atom positions have been added when not included in the experimental data
# Generated hydrogen atom positions removed from atoms on special positions
#
###############################################################################

data_OPAPIF
_chemical_formula_moiety         '(C30 H48 Eu2 N24 O16 S6)n'
_symmetry_cell_setting           triclinic
_symmetry_space_group_name_H-M   'P 1'
_symmetry_Int_Tables_number      1
_space_group_name_Hall           'P 1'
loop_
_symmetry_equiv_pos_site_id
_symmetry_equiv_pos_as_xyz
1 x,y,z
_cell_length_a                   9.4829(19)
_cell_length_b                   11.505(2)
_cell_length_c                   14.582(3)
_cell_angle_alpha                69.48(3)
_cell_angle_beta                 85.36(3)
_cell_angle_gamma                86.32(3)
_cell_volume                     1483.99
loop_
_atom_site_label
_atom_site_type_symbol
_atom_site_fract_x
_atom_site_fract_y
_atom_site_fract_z
_atom_site_U_iso_or_equiv
_atom_site_thermal_displace_type
Eu5 Eu 0.79662(2) 0.955057(19) 0.002385(16) 0.0188 Uani
H38 H 0.0795 0.3873 0.0095 0.0370 Uiso
S5 S 0.56767(13) 0.63423(12) 0.85020(10) 0.0326 Uani
N13 N 0.3090(4) 0.5320(3) 0.9057(3) 0.0236 Uani
N14 N 0.2069(4) 0.6300(4) 0.9988(3) 0.0337 Uani
N17 N 0.3430(4) 0.6741(4) 0.9675(3) 0.0309 Uani
N19 N 0.3370(5) 0.4535(4) 0.8499(4) 0.0349 Uani
H23 H 0.332(6) 0.386(6) 0.890(4) 0.0420 Uiso
H24 H 0.264(6) 0.482(5) 0.802(4) 0.0420 Uiso
O17 O 0.6859(3) 0.7775(3) 0.9691(2) 0.0300 Uani
O19 O 0.6441(3) 0.9652(3) 0.8650(3) 0.0291 Uani
C26 C 0.5776(5) 0.8002(4) 0.8180(4) 0.0281 Uani
H35 H 0.4827 0.8366 0.8065 0.0340 Uiso
H36 H 0.6335 0.8314 0.7562 0.0340 Uiso
C27 C 0.6395(4) 0.8477(4) 0.8909(3) 0.0232 Uani
C28 C 0.4010(5) 0.6155(4) 0.9114(3) 0.0243 Uani
C29 C 0.1897(5) 0.5458(4) 0.9606(4) 0.0245 Uani
C30 C 0.0597(5) 0.4743(5) 0.9727(4) 0.0308 Uani
H37 H 0.0304 0.4808 0.9088 0.0370 Uiso
S6 S 0.77655(14) 0.26068(13) 0.75283(10) 0.0358 Uani
O10 O 0.8265(3) 0.0437(3) 0.1267(2) 0.0280 Uani
O11 O 0.9533(3) 0.1172(3) 0.9254(2) 0.0255 Uani
C17 C 0.8864(6) 0.1947(5) 0.6812(4) 0.0297 Uani
C19 C 0.9105(5) 0.3181(4) 0.8039(4) 0.0278 Uani
H21 H 0.8650 0.3685 0.8399 0.0340 Uiso
H22 H 0.9700 0.3717 0.7506 0.0340 Uiso
N18 N 0.8316(5) 0.1270(4) 0.6335(3) 0.0330 Uani
C20 C 0.9284(6) 0.0179(5) 0.5190(4) 0.0408 Uani
H26 H 0.8733 0.0657 0.4640 0.0490 Uiso
C23 C 0.9429(6) 0.0929(5) 0.5829(4) 0.0343 Uani
N24 N 0.6917(5) 0.0942(5) 0.6375(4) 0.0493 Uani
H33 H 0.6696 0.0481 0.6059 0.0590 Uiso
H34 H 0.6275 0.1202 0.6716 0.0590 Uiso
O21 O 0.6294(3) 0.1261(3) 0.9803(2) 0.0247 Uani
H39 H 0.6262 0.1942 0.9939 0.0300 Uiso
H40 H 0.5700 0.1610 0.9284 0.0300 Uiso
O3 O 0.8704(3) 0.7571(3) 0.1265(3) 0.0306 Uani
N4 N 0.9775(5) 0.7968(4) 0.3384(3) 0.0358 Uani
C3 C 0.9962(5) 0.7814(4) 0.1281(3) 0.0237 Uani
N9 N 0.9413(5) 0.8637(4) 0.4021(3) 0.0398 Uani
H25 H 0.8781 0.9434 0.5561 0.0490 Uiso
O22 O 0.5972(3) 0.8811(3) 0.1304(2) 0.0294 Uani
S1 S 0.95187(14) 0.77444(13) 0.76241(10) 0.0351 Uani
O4 O 0.9498(3) 0.8956(3) 0.8888(3) 0.0311 Uani
N3 N 0.9245(4) 0.6536(4) 0.6372(3) 0.0304 Uani
N8 N 0.7773(5) 0.6783(6) 0.6404(5) 0.0671 Uani
H7 H 0.7251 0.6541 0.6055 0.0800 Uiso
H8 H 0.7396 0.7176 0.6773 0.0800 Uiso
C10 C 0.9438(6) 0.5306(5) 0.5238(4) 0.0354 Uani
H11 H 0.8793 0.4685 0.5650 0.0420 Uiso
H12 H 0.8900 0.5911 0.4734 0.0420 Uiso
C16 C 0.9236(5) 0.0986(4) 0.1456(3) 0.0240 Uani
C21 C 0.9840(5) 0.3036(5) 0.3159(4) 0.0299 Uani
C22 C 0.8876(5) 0.1617(4) 0.2206(3) 0.0260 Uani
H29 H 0.8519 0.1021 0.2822 0.0310 Uiso
H30 H 0.8157 0.2272 0.1973 0.0310 Uiso
N22 N 0.8640(5) 0.4006(5) 0.4029(4) 0.0543 Uani
N23 N 0.8545(5) 0.3335(6) 0.3379(4) 0.0562 Uani
C24 C 0.9967(6) 0.4060(5) 0.4152(4) 0.0317 Uani
S2 S 0.43233(13) 0.36577(12) 0.14980(10) 0.0326 Uani
N1 N 0.6910(4) 0.4680(3) 0.0943(3) 0.0236 Uani
N2 N 0.7931(4) 0.3700(4) 0.0012(3) 0.0337 Uani
N5 N 0.6570(4) 0.3259(4) 0.0325(3) 0.0309 Uani
N7 N 0.6630(5) 0.5465(4) 0.1501(4) 0.0349 Uani
H3 H 0.668(6) 0.614(6) 0.110(4) 0.0420 Uiso
H4 H 0.736(6) 0.518(5) 0.198(4) 0.0420 Uiso
H5 H 0.1219 0.0566 0.4439 0.0490 Uiso
O5 O 0.3141(3) 0.2225(3) 0.0309(2) 0.0300 Uani
O6 O 0.3559(3) 0.0348(3) 0.1350(3) 0.0291 Uani
C11 C 0.4224(5) 0.1998(4) 0.1820(4) 0.0281 Uani
H15 H 0.5173 0.1634 0.1935 0.0340 Uiso
H16 H 0.3665 0.1686 0.2438 0.0340 Uiso
C12 C 0.3605(4) 0.1523(4) 0.1091(3) 0.0232 Uani
C13 C 0.5990(5) 0.3845(4) 0.0886(3) 0.0243 Uani
C14 C 0.8103(5) 0.4542(4) 0.0394(4) 0.0245 Uani
C15 C 0.9403(5) 0.5257(5) 0.0273(4) 0.0308 Uani
H17 H 0.9696 0.5192 0.0912 0.0370 Uiso
Eu7 Eu 0.20338(2) 0.044943(19) 0.997615(16) 0.0188 Uani
O13 O 0.1296(3) 0.2429(3) 0.8735(3) 0.0306 Uani
O16 O 0.0502(3) 0.1044(3) 0.1112(3) 0.0311 Uani
N16 N 0.0225(5) 0.2032(4) 0.6616(3) 0.0358 Uani
C18 C 0.0038(5) 0.2186(4) 0.8719(3) 0.0237 Uani
N21 N 0.0587(5) 0.1363(4) 0.5979(3) 0.0398 Uani
H18 H 0.9205 0.6127 0.9905 0.0370 Uiso
O8 O 0.4028(3) 0.1189(3) 0.8696(2) 0.0294 Uani
S3 S 0.22345(14) 0.73932(13) 0.24717(10) 0.0358 Uani
O2 O 0.0467(3) 0.8828(3) 0.0746(2) 0.0255 Uani
C2 C 0.1136(6) 0.8053(5) 0.3188(4) 0.0297 Uani
C4 C 0.0895(5) 0.6819(4) 0.1961(4) 0.0278 Uani
H1 H 0.1350 0.6315 0.1601 0.0340 Uiso
H2 H 0.0300 0.6283 0.2494 0.0340 Uiso
N6 N 0.1684(5) 0.8730(4) 0.3665(3) 0.0330 Uani
C5 C 0.0716(6) 0.9821(5) 0.4810(4) 0.0408 Uani
H6 H 0.1267 0.9343 0.5360 0.0490 Uiso
C8 C 0.0571(6) 0.9071(5) 0.4171(4) 0.0343 Uani
N12 N 0.3083(5) 0.9058(5) 0.3625(4) 0.0493 Uani
H13 H 0.3304 0.9519 0.3941 0.0590 Uiso
H14 H 0.3725 0.8798 0.3284 0.0590 Uiso
O7 O 0.3706(3) 0.8739(3) 0.0197(2) 0.0247 Uani
H19 H 0.3738 0.8058 0.0061 0.0300 Uiso
H20 H 0.4300 0.8390 0.0716 0.0300 Uiso
O1 O 0.1735(3) 0.9563(3) 0.8733(2) 0.0280 Uani
C1 C 0.0764(5) 0.9014(4) 0.8544(3) 0.0240 Uani
C6 C 0.0160(5) 0.6964(5) 0.6841(4) 0.0299 Uani
C7 C 0.1124(5) 0.8383(4) 0.7794(3) 0.0260 Uani
H9 H 0.1481 0.8979 0.7178 0.0310 Uiso
H10 H 0.1843 0.7728 0.8027 0.0310 Uiso
N10 N 0.1360(5) 0.5994(5) 0.5971(4) 0.0543 Uani
N11 N 0.1455(5) 0.6665(6) 0.6621(4) 0.0562 Uani
C9 C 0.0033(6) 0.5940(5) 0.5848(4) 0.0317 Uani
S4 S 0.04813(14) 0.22556(13) 0.23759(10) 0.0351 Uani
N15 N 0.0755(4) 0.3464(4) 0.3628(3) 0.0304 Uani
N20 N 0.2227(5) 0.3217(6) 0.3596(5) 0.0671 Uani
H27 H 0.2749 0.3459 0.3945 0.0800 Uiso
H28 H 0.2604 0.2824 0.3227 0.0800 Uiso
C25 C 0.0562(6) 0.4694(5) 0.4762(4) 0.0354 Uani
H31 H 0.1207 0.5315 0.4350 0.0420 Uiso
H32 H 0.1100 0.4089 0.5266 0.0420 Uiso
loop_
_atom_site_aniso_label
_atom_site_aniso_U_11
_atom_site_aniso_U_22
_atom_site_aniso_U_33
_atom_site_aniso_U_23
_atom_site_aniso_U_13
_atom_site_aniso_U_12
Eu5 0.0174 0.02047 0.0228 -0.01246 -0.00068 -0.00327
S5 0.0248 0.0328 0.0489 -0.0258 0.0068 -0.0089
N13 0.023 0.021 0.032 -0.0157 0.002 -0.0056
N14 0.024 0.039 0.048 -0.028 0.0059 -0.0094
N17 0.032 0.027 0.039 -0.0178 0.0047 -0.0107
N19 0.041 0.028 0.043 -0.022 0.008 -0.011
O17 0.0298 0.0323 0.0317 -0.0143 -0.0057 -0.0062
O19 0.0269 0.0271 0.041 -0.0205 -0.0055 -0.0027
C26 0.03 0.03 0.029 -0.014 -0.001 -0.014
C27 0.013 0.032 0.031 -0.019 0.0034 -0.0063
C28 0.024 0.021 0.029 -0.01 -0.0009 -0.0024
C29 0.028 0.015 0.029 -0.0062 0.002 -0.0033
C30 0.023 0.031 0.044 -0.02 0.005 -0.009
S6 0.0306 0.0501 0.0334 -0.0226 -0.007 0.0037
O10 0.0217 0.04 0.0322 -0.0238 -0.0018 -0.0072
O11 0.0285 0.0183 0.0289 -0.0065 -0.0015 -0.0051
C17 0.038 0.028 0.025 -0.011 -0.007 0.001
C19 0.031 0.026 0.029 -0.013 -0.003 0.002
N18 0.044 0.032 0.024 -0.0094 -0.0057 -0.0063
C20 0.062 0.031 0.033 -0.015 -0.006 -0.002
C23 0.047 0.032 0.024 -0.01 -0.001 -0.003
N24 0.041 0.071 0.054 -0.042 0 -0.019
O21 0.0254 0.0185 0.0337 -0.0122 -0.0102 0.0035
O3 0.0247 0.0314 0.037 -0.012 -0.0055 -0.0054
N4 0.035 0.044 0.036 -0.023 -0.004 -0.002
C3 0.028 0.023 0.024 -0.013 -0.0017 -0.0018
N9 0.041 0.045 0.042 -0.026 -0.003 0
O22 0.023 0.034 0.0358 -0.0178 0.0021 -0.0067
S1 0.0308 0.0503 0.0407 -0.0362 0.0014 -0.0078
O4 0.0226 0.045 0.041 -0.0346 0.006 -0.0076
N3 0.036 0.033 0.028 -0.0172 0.0006 -0.0087
N8 0.039 0.109 0.095 -0.088 0.002 -0.008
C10 0.048 0.035 0.032 -0.022 0.003 -0.012
C16 0.027 0.025 0.023 -0.0115 -0.0047 -0.001
C21 0.036 0.035 0.029 -0.023 -0.005 -0.004
C22 0.026 0.03 0.028 -0.017 -0.001 -0.0045
N22 0.048 0.078 0.067 -0.064 -0.002 0.003
N23 0.04 0.086 0.078 -0.072 -0.012 0.005
C24 0.039 0.032 0.032 -0.021 0.002 -0.006
S2 0.0248 0.0328 0.0489 -0.0258 0.0068 -0.0089
N1 0.023 0.021 0.032 -0.0157 0.002 -0.0056
N2 0.024 0.039 0.048 -0.028 0.0059 -0.0094
N5 0.032 0.027 0.039 -0.0178 0.0047 -0.0107
N7 0.041 0.028 0.043 -0.022 0.008 -0.011
O5 0.0298 0.0323 0.0317 -0.0143 -0.0057 -0.0062
O6 0.0269 0.0271 0.041 -0.0205 -0.0055 -0.0027
C11 0.03 0.03 0.029 -0.014 -0.001 -0.014
C12 0.013 0.032 0.031 -0.019 0.0034 -0.0063
C13 0.024 0.021 0.029 -0.01 -0.0009 -0.0024
C14 0.028 0.015 0.029 -0.0062 0.002 -0.0033
C15 0.023 0.031 0.044 -0.02 0.005 -0.009
Eu7 0.0174 0.02047 0.0228 -0.01246 -0.00068 -0.00327
O13 0.0247 0.0314 0.037 -0.012 -0.0055 -0.0054
O16 0.0226 0.045 0.041 -0.0346 0.006 -0.0076
N16 0.035 0.044 0.036 -0.023 -0.004 -0.002
C18 0.028 0.023 0.024 -0.013 -0.0017 -0.0018
N21 0.041 0.045 0.042 -0.026 -0.003 0
O8 0.023 0.034 0.0358 -0.0178 0.0021 -0.0067
S3 0.0306 0.0501 0.0334 -0.0226 -0.007 0.0037
O2 0.0285 0.0183 0.0289 -0.0065 -0.0015 -0.0051
C2 0.038 0.028 0.025 -0.011 -0.007 0.001
C4 0.031 0.026 0.029 -0.013 -0.003 0.002
N6 0.044 0.032 0.024 -0.0094 -0.0057 -0.0063
C5 0.062 0.031 0.033 -0.015 -0.006 -0.002
C8 0.047 0.032 0.024 -0.01 -0.001 -0.003
N12 0.041 0.071 0.054 -0.042 0 -0.019
O7 0.0254 0.0185 0.0337 -0.0122 -0.0102 0.0035
O1 0.0217 0.04 0.0322 -0.0238 -0.0018 -0.0072
C1 0.027 0.025 0.023 -0.0115 -0.0047 -0.001
C6 0.036 0.035 0.029 -0.023 -0.005 -0.004
C7 0.026 0.03 0.028 -0.017 -0.001 -0.0045
N10 0.048 0.078 0.067 -0.064 -0.002 0.003
N11 0.04 0.086 0.078 -0.072 -0.012 0.005
C9 0.039 0.032 0.032 -0.021 0.002 -0.006
S4 0.0308 0.0503 0.0407 -0.0362 0.0014 -0.0078
N15 0.036 0.033 0.028 -0.0172 0.0006 -0.0087
N20 0.039 0.109 0.095 -0.088 0.002 -0.008
C25 0.048 0.035 0.032 -0.022 0.003 -0.012
loop_
_geom_bond_atom_site_label_1
_geom_bond_atom_site_label_2
_geom_bond_site_symmetry_1
_geom_bond_site_symmetry_2
S5 C26 1_555 1_555
N13 N19 1_555 1_555
N14 N17 1_555 1_555
N17 C28 1_555 1_555
N19 H23 1_555 1_555
H24 N19 1_555 1_555
O17 C27 1_555 1_555
C26 H35 1_555 1_555
H36 C26 1_555 1_555
C27 O19 1_555 1_555
C28 S5 1_555 1_555
C29 N13 1_555 1_555
H37 C30 1_555 1_555
N13 C28 1_555 1_555
N14 C29 1_555 1_555
C26 C27 1_555 1_555
C29 C30 1_555 1_555
S6 C17 1_555 1_555
C19 S6 1_555 1_555
H21 C19 1_555 1_555
H22 C19 1_555 1_555
N18 C17 1_555 1_555
H26 C20 1_555 1_555
C23 N18 1_555 1_555
N24 N18 1_555 1_555
H33 N24 1_555 1_555
H34 N24 1_555 1_555
C20 C23 1_555 1_555
H39 O21 1_555 1_555
H40 O21 1_555 1_555
O3 C3 1_555 1_555
N4 N9 1_555 1_555
O22 Eu5 1_555 1_555
O3 Eu5 1_555 1_555
N8 N3 1_555 1_555
H7 N8 1_555 1_555
H8 N8 1_555 1_555
H11 C10 1_555 1_555
H12 C10 1_555 1_555
O10 C16 1_555 1_555
C16 C22 1_555 1_555
C21 N23 1_555 1_555
H29 C22 1_555 1_555
H30 C22 1_555 1_555
N22 N23 1_555 1_555
N22 C24 1_555 1_555
S2 C11 1_555 1_555
N1 N7 1_555 1_555
N2 N5 1_555 1_555
N5 C13 1_555 1_555
N7 H3 1_555 1_555
H4 N7 1_555 1_555
C11 H15 1_555 1_555
H16 C11 1_555 1_555
C12 O5 1_555 1_555
C13 S2 1_555 1_555
C14 N1 1_555 1_555
C15 C14 1_555 1_555
H17 C15 1_555 1_555
O13 Eu7 1_555 1_555
N16 N21 1_555 1_555
C18 O13 1_555 1_555
N1 C13 1_555 1_555
N2 C14 1_555 1_555
O6 C12 1_555 1_555
C11 C12 1_555 1_555
O8 Eu7 1_555 1_555
S3 C2 1_555 1_555
C4 S3 1_555 1_555
H1 C4 1_555 1_555
H2 C4 1_555 1_555
N6 C2 1_555 1_555
H6 C5 1_555 1_555
C8 N6 1_555 1_555
N12 N6 1_555 1_555
H13 N12 1_555 1_555
H14 N12 1_555 1_555
H19 O7 1_555 1_555
H20 O7 1_555 1_555
C5 C8 1_555 1_555
O1 C1 1_555 1_555
C1 C7 1_555 1_555
C6 N11 1_555 1_555
H9 C7 1_555 1_555
H10 C7 1_555 1_555
N10 N11 1_555 1_555
N20 N15 1_555 1_555
H27 N20 1_555 1_555
H28 N20 1_555 1_555
H31 C25 1_555 1_555
H32 C25 1_555 1_555
N10 C9 1_555 1_555

#END
