
###############################################################################
#
# This file contains modified crystal structure data generated from the
# MOF subset of the Cambridge Structural Database (CSD) v543 
# hosted by the Cambridge Crystallographic Data Centre (CCDC).
#
# This work is licensed under the Creative Commons
# Attribution-NonCommercial-ShareAlike 4.0 International License.
# To view a copy of this license, visit
# http://creativecommons.org/licenses/by-nc-sa/4.0/
# or send a letter to
# Creative Commons, PO Box 1866, Mountain View, CA 94042, USA.
#
# CIF created using the CSD Python API on 29 September 2022
# The structure has been converted into the P1 space group
# The structure has a 3D framework
# The original CSD entry OPAPUR is in the triclinic crystal system
# The framework has been calculated to contain at least 10.0% void space
# The void calculation uses a probe of radius 1.32A, grid spacing 0.4
#
###############################################################################

data_OPAPUR
_chemical_formula_moiety         '(C30 H44 Dy2 N24 O16 S6)n'
_symmetry_cell_setting           triclinic
_symmetry_space_group_name_H-M   'P 1'
_symmetry_Int_Tables_number      1
_space_group_name_Hall           'P 1'
loop_
_symmetry_equiv_pos_site_id
_symmetry_equiv_pos_as_xyz
1 x,y,z
_cell_length_a                   9.4504(19)
_cell_length_b                   11.458(2)
_cell_length_c                   14.579(3)
_cell_angle_alpha                69.86(3)
_cell_angle_beta                 85.46(3)
_cell_angle_gamma                86.30(3)
_cell_volume                     1476.3
loop_
_atom_site_label
_atom_site_type_symbol
_atom_site_fract_x
_atom_site_fract_y
_atom_site_fract_z
_atom_site_U_iso_or_equiv
_atom_site_thermal_displace_type
Dy5 Dy 0.797222(12) 0.954676(11) 0.002600(9) 0.0186 Uani
H40 H 0.0794 0.3875 0.0086 0.0360 Uiso
S5 S 0.56874(8) 0.63521(7) 0.84993(6) 0.0319 Uani
N13 N 0.3097(3) 0.5324(2) 0.90542(18) 0.0245 Uani
N14 N 0.2074(3) 0.6319(3) 0.9977(2) 0.0322 Uani
N17 N 0.3438(3) 0.6748(3) 0.9675(2) 0.0318 Uani
N19 N 0.3381(3) 0.4526(3) 0.8503(2) 0.0352 Uani
H25 H 0.334(4) 0.384(4) 0.889(3) 0.0420 Uiso
H26 H 0.274(4) 0.472(4) 0.806(3) 0.0420 Uiso
O17 O 0.6867(2) 0.7779(2) 0.97049(16) 0.0302 Uani
O19 O 0.6473(2) 0.96567(19) 0.86653(16) 0.0293 Uani
C26 C 0.5783(3) 0.8014(3) 0.8193(2) 0.0281 Uani
H37 H 0.4828 0.8377 0.8086 0.0340 Uiso
H38 H 0.6336 0.8331 0.7575 0.0340 Uiso
C27 C 0.6411(3) 0.8482(3) 0.8922(2) 0.0229 Uani
C28 C 0.4021(3) 0.6148(3) 0.9118(2) 0.0248 Uani
C29 C 0.1903(3) 0.5455(3) 0.9604(2) 0.0259 Uani
C30 C 0.0594(3) 0.4747(3) 0.9726(2) 0.0303 Uani
H39 H 0.0293 0.4815 0.9088 0.0360 Uiso
S6 S 0.77505(9) 0.26350(9) 0.75191(6) 0.0359 Uani
O10 O 0.8280(2) 0.0424(2) 0.12470(15) 0.0262 Uani
O11 O 0.9489(2) 0.11549(18) 0.92467(15) 0.0267 Uani
C17 C 0.8856(4) 0.1972(3) 0.6806(2) 0.0312 Uani
C19 C 0.9098(3) 0.3183(3) 0.8048(2) 0.0274 Uani
H23 H 0.8646 0.3689 0.8411 0.0330 Uiso
H24 H 0.9706 0.3715 0.7523 0.0330 Uiso
N18 N 0.8301(3) 0.1281(3) 0.63317(19) 0.0336 Uani
C20 C 0.9275(4) 0.0180(3) 0.5192(3) 0.0416 Uani
H28 H 0.8717 0.0654 0.4644 0.0500 Uiso
C23 C 0.9422(4) 0.0937(3) 0.5828(2) 0.0342 Uani
N24 N 0.6898(3) 0.0928(3) 0.6384(3) 0.0514 Uani
H35 H 0.6685 0.0448 0.6077 0.0620 Uiso
H36 H 0.6250 0.1190 0.6722 0.0620 Uiso
O21 O 0.6304(2) 0.12334(19) 0.98107(15) 0.0263 Uani
H41 H 0.6272 0.1915 0.9947 0.0320 Uiso
H42 H 0.5710 0.1583 0.9292 0.0320 Uiso
O3 O 0.8724(2) 0.76144(19) 0.12328(16) 0.0295 Uani
N4 N 0.9780(3) 0.7954(3) 0.3384(2) 0.0359 Uani
C3 C 0.9986(3) 0.7827(3) 0.1276(2) 0.0218 Uani
N9 N 0.9417(3) 0.8628(3) 0.4018(2) 0.0386 Uani
H27 H 0.8775 0.9433 0.5563 0.0500 Uiso
O22 O 0.6012(3) 0.8818(3) 0.12679(18) 0.0292 Uani
H43 H 0.562(4) 0.925(4) 0.139(3) 0.0280 Uiso
H44 H 0.631(5) 0.831(5) 0.183(4) 0.0640 Uiso
S1 S 0.95117(9) 0.77437(9) 0.76354(6) 0.0353 Uani
O4 O 0.9494(2) 0.8923(2) 0.89310(16) 0.0316 Uani
N3 N 0.9240(3) 0.6528(3) 0.63816(19) 0.0306 Uani
N8 N 0.7767(3) 0.6782(4) 0.6413(3) 0.0671 Uani
H7 H 0.7241 0.6546 0.6059 0.0810 Uiso
H8 H 0.7390 0.7173 0.6786 0.0810 Uiso
C10 C 0.9430(4) 0.5300(3) 0.5245(2) 0.0350 Uani
H11 H 0.8795 0.4670 0.5657 0.0420 Uiso
H12 H 0.8877 0.5903 0.4750 0.0420 Uiso
C16 C 0.9252(3) 0.0978(3) 0.1432(2) 0.0231 Uani
C21 C 0.9837(4) 0.3036(3) 0.3152(2) 0.0312 Uani
C22 C 0.8881(3) 0.1600(3) 0.2197(2) 0.0255 Uani
H31 H 0.8537 0.0994 0.2809 0.0310 Uiso
H32 H 0.8148 0.2248 0.1973 0.0310 Uiso
N22 N 0.8628(4) 0.3994(4) 0.4027(3) 0.0567 Uani
N23 N 0.8543(3) 0.3334(4) 0.3373(3) 0.0572 Uani
C24 C 0.9954(4) 0.4066(3) 0.4145(2) 0.0322 Uani
S2 S 0.43126(8) 0.36479(7) 0.15007(6) 0.0319 Uani
N1 N 0.6903(3) 0.4676(2) 0.09458(18) 0.0245 Uani
N2 N 0.7926(3) 0.3681(3) 0.0023(2) 0.0322 Uani
N5 N 0.6562(3) 0.3252(3) 0.0325(2) 0.0318 Uani
N7 N 0.6619(3) 0.5474(3) 0.1497(2) 0.0352 Uani
H3 H 0.666(4) 0.616(4) 0.111(3) 0.0420 Uiso
H4 H 0.726(4) 0.528(4) 0.194(3) 0.0420 Uiso
H5 H 0.1225 0.0567 0.4437 0.0500 Uiso
O5 O 0.3133(2) 0.2221(2) 0.02951(16) 0.0302 Uani
O6 O 0.3527(2) 0.03433(19) 0.13347(16) 0.0293 Uani
C11 C 0.4217(3) 0.1986(3) 0.1807(2) 0.0281 Uani
H15 H 0.5172 0.1623 0.1914 0.0340 Uiso
H16 H 0.3664 0.1669 0.2425 0.0340 Uiso
C12 C 0.3589(3) 0.1518(3) 0.1078(2) 0.0229 Uani
C13 C 0.5979(3) 0.3852(3) 0.0882(2) 0.0248 Uani
C14 C 0.8097(3) 0.4545(3) 0.0396(2) 0.0259 Uani
C15 C 0.9406(3) 0.5253(3) 0.0274(2) 0.0303 Uani
H17 H 0.9707 0.5185 0.0912 0.0360 Uiso
Dy7 Dy 0.202778(12) 0.045324(11) 0.997400(9) 0.0186 Uani
O13 O 0.1276(2) 0.23856(19) 0.87672(16) 0.0295 Uani
O16 O 0.0506(2) 0.1077(2) 0.10690(16) 0.0316 Uani
N16 N 0.0220(3) 0.2046(3) 0.6616(2) 0.0359 Uani
C18 C 0.0014(3) 0.2173(3) 0.8724(2) 0.0218 Uani
N21 N 0.0583(3) 0.1372(3) 0.5982(2) 0.0386 Uani
H18 H 0.9206 0.6125 0.9914 0.0360 Uiso
O8 O 0.3988(3) 0.1182(3) 0.87321(18) 0.0292 Uani
H21 H 0.438(4) 0.075(4) 0.861(3) 0.0280 Uiso
H22 H 0.369(5) 0.169(5) 0.817(4) 0.0640 Uiso
S3 S 0.22495(9) 0.73650(9) 0.24809(6) 0.0359 Uani
O2 O 0.0511(2) 0.88451(18) 0.07533(15) 0.0267 Uani
C2 C 0.1144(4) 0.8028(3) 0.3194(2) 0.0312 Uani
C4 C 0.0902(3) 0.6817(3) 0.1952(2) 0.0274 Uani
H1 H 0.1354 0.6311 0.1589 0.0330 Uiso
H2 H 0.0294 0.6285 0.2477 0.0330 Uiso
N6 N 0.1699(3) 0.8719(3) 0.36683(19) 0.0336 Uani
C5 C 0.0725(4) 0.9820(3) 0.4808(3) 0.0416 Uani
H6 H 0.1283 0.9346 0.5356 0.0500 Uiso
C8 C 0.0578(4) 0.9063(3) 0.4172(2) 0.0342 Uani
N12 N 0.3102(3) 0.9072(3) 0.3616(3) 0.0514 Uani
H13 H 0.3315 0.9552 0.3923 0.0620 Uiso
H14 H 0.3750 0.8810 0.3278 0.0620 Uiso
O7 O 0.3696(2) 0.87666(19) 0.01893(15) 0.0263 Uani
H19 H 0.3728 0.8085 0.0053 0.0320 Uiso
H20 H 0.4290 0.8417 0.0708 0.0320 Uiso
O1 O 0.1720(2) 0.9576(2) 0.87530(15) 0.0262 Uani
C1 C 0.0748(3) 0.9022(3) 0.8568(2) 0.0231 Uani
C6 C 0.0163(4) 0.6964(3) 0.6848(2) 0.0312 Uani
C7 C 0.1119(3) 0.8400(3) 0.7803(2) 0.0255 Uani
H9 H 0.1463 0.9006 0.7191 0.0310 Uiso
H10 H 0.1852 0.7752 0.8027 0.0310 Uiso
N10 N 0.1372(4) 0.6006(4) 0.5973(3) 0.0567 Uani
N11 N 0.1457(3) 0.6666(4) 0.6627(3) 0.0572 Uani
C9 C 0.0046(4) 0.5934(3) 0.5855(2) 0.0322 Uani
S4 S 0.04883(9) 0.22563(9) 0.23646(6) 0.0353 Uani
N15 N 0.0760(3) 0.3472(3) 0.36184(19) 0.0306 Uani
N20 N 0.2233(3) 0.3218(4) 0.3587(3) 0.0671 Uani
H29 H 0.2759 0.3454 0.3941 0.0810 Uiso
H30 H 0.2610 0.2827 0.3214 0.0810 Uiso
C25 C 0.0570(4) 0.4700(3) 0.4755(2) 0.0350 Uani
H33 H 0.1205 0.5330 0.4343 0.0420 Uiso
H34 H 0.1123 0.4097 0.5250 0.0420 Uiso
loop_
_atom_site_aniso_label
_atom_site_aniso_U_11
_atom_site_aniso_U_22
_atom_site_aniso_U_33
_atom_site_aniso_U_23
_atom_site_aniso_U_13
_atom_site_aniso_U_12
Dy5 0.01719 0.02082 0.02249 -0.01331 0.00017 -0.0035
S5 0.0246 0.0315 0.0487 -0.026 0.0073 -0.0088
N13 0.0243 0.0223 0.0318 -0.0158 0.0032 -0.0054
N14 0.0267 0.0332 0.0455 -0.025 0.0057 -0.0088
N17 0.0287 0.0328 0.0441 -0.0262 0.0046 -0.0099
N19 0.039 0.0313 0.0465 -0.0285 0.0089 -0.0109
O17 0.0322 0.0322 0.03 -0.0137 -0.0036 -0.009
O19 0.0291 0.0251 0.0403 -0.0186 -0.0054 -0.0024
C26 0.0305 0.0286 0.0305 -0.0155 -0.0004 -0.0104
C27 0.0144 0.0303 0.0294 -0.0173 0.0043 -0.0057
C28 0.0236 0.0222 0.0323 -0.0138 -0.0003 -0.0038
C29 0.0239 0.026 0.0317 -0.015 0.0019 -0.0039
C30 0.0262 0.0282 0.0402 -0.017 0.0081 -0.0094
S6 0.0308 0.0505 0.0324 -0.0215 -0.0069 0.0033
O10 0.0227 0.0355 0.0302 -0.0232 0.0002 -0.0056
O11 0.03 0.0202 0.0295 -0.008 0.0012 -0.0034
C17 0.0384 0.0334 0.0244 -0.0124 -0.0048 -0.0012
C19 0.0327 0.0244 0.028 -0.0128 -0.0029 0.0009
N18 0.0406 0.0376 0.0271 -0.0154 -0.0039 -0.0063
C20 0.059 0.0389 0.0332 -0.0198 -0.0046 -0.0033
C23 0.047 0.0328 0.0255 -0.0128 -0.0041 -0.0017
N24 0.0424 0.072 0.057 -0.042 0.0015 -0.0193
O21 0.0248 0.0254 0.0365 -0.0197 -0.0088 0.0033
O3 0.026 0.0276 0.037 -0.0125 -0.0036 -0.005
N4 0.0396 0.0412 0.0343 -0.0222 -0.0029 -0.0007
C3 0.0269 0.0213 0.0211 -0.0127 0.0006 -0.0015
N9 0.0432 0.0436 0.0364 -0.0236 0 -0.0018
O22 0.0249 0.0324 0.0349 -0.018 0.0024 -0.0025
S1 0.0297 0.0521 0.0418 -0.0383 0.0022 -0.0083
O4 0.0214 0.0479 0.0409 -0.0354 0.0055 -0.0074
N3 0.036 0.0368 0.0282 -0.0221 0.0013 -0.0101
N8 0.0358 0.109 0.099 -0.09 0.0009 -0.0072
C10 0.054 0.0325 0.0269 -0.0198 0.0008 -0.0107
C16 0.0248 0.0269 0.0237 -0.0163 -0.0027 0.0003
C21 0.0375 0.0371 0.0305 -0.0258 -0.0014 -0.004
C22 0.0237 0.0346 0.0267 -0.0212 0.0006 -0.0039
N22 0.0464 0.081 0.075 -0.069 -0.002 0.0015
N23 0.0428 0.087 0.075 -0.07 -0.0096 0.0047
C24 0.0456 0.0317 0.028 -0.0208 0.0012 -0.0081
S2 0.0246 0.0315 0.0487 -0.026 0.0073 -0.0088
N1 0.0243 0.0223 0.0318 -0.0158 0.0032 -0.0054
N2 0.0267 0.0332 0.0455 -0.025 0.0057 -0.0088
N5 0.0287 0.0328 0.0441 -0.0262 0.0046 -0.0099
N7 0.039 0.0313 0.0465 -0.0285 0.0089 -0.0109
O5 0.0322 0.0322 0.03 -0.0137 -0.0036 -0.009
O6 0.0291 0.0251 0.0403 -0.0186 -0.0054 -0.0024
C11 0.0305 0.0286 0.0305 -0.0155 -0.0004 -0.0104
C12 0.0144 0.0303 0.0294 -0.0173 0.0043 -0.0057
C13 0.0236 0.0222 0.0323 -0.0138 -0.0003 -0.0038
C14 0.0239 0.026 0.0317 -0.015 0.0019 -0.0039
C15 0.0262 0.0282 0.0402 -0.017 0.0081 -0.0094
Dy7 0.01719 0.02082 0.02249 -0.01331 0.00017 -0.0035
O13 0.026 0.0276 0.037 -0.0125 -0.0036 -0.005
O16 0.0214 0.0479 0.0409 -0.0354 0.0055 -0.0074
N16 0.0396 0.0412 0.0343 -0.0222 -0.0029 -0.0007
C18 0.0269 0.0213 0.0211 -0.0127 0.0006 -0.0015
N21 0.0432 0.0436 0.0364 -0.0236 0 -0.0018
O8 0.0249 0.0324 0.0349 -0.018 0.0024 -0.0025
S3 0.0308 0.0505 0.0324 -0.0215 -0.0069 0.0033
O2 0.03 0.0202 0.0295 -0.008 0.0012 -0.0034
C2 0.0384 0.0334 0.0244 -0.0124 -0.0048 -0.0012
C4 0.0327 0.0244 0.028 -0.0128 -0.0029 0.0009
N6 0.0406 0.0376 0.0271 -0.0154 -0.0039 -0.0063
C5 0.059 0.0389 0.0332 -0.0198 -0.0046 -0.0033
C8 0.047 0.0328 0.0255 -0.0128 -0.0041 -0.0017
N12 0.0424 0.072 0.057 -0.042 0.0015 -0.0193
O7 0.0248 0.0254 0.0365 -0.0197 -0.0088 0.0033
O1 0.0227 0.0355 0.0302 -0.0232 0.0002 -0.0056
C1 0.0248 0.0269 0.0237 -0.0163 -0.0027 0.0003
C6 0.0375 0.0371 0.0305 -0.0258 -0.0014 -0.004
C7 0.0237 0.0346 0.0267 -0.0212 0.0006 -0.0039
N10 0.0464 0.081 0.075 -0.069 -0.002 0.0015
N11 0.0428 0.087 0.075 -0.07 -0.0096 0.0047
C9 0.0456 0.0317 0.028 -0.0208 0.0012 -0.0081
S4 0.0297 0.0521 0.0418 -0.0383 0.0022 -0.0083
N15 0.036 0.0368 0.0282 -0.0221 0.0013 -0.0101
N20 0.0358 0.109 0.099 -0.09 0.0009 -0.0072
C25 0.054 0.0325 0.0269 -0.0198 0.0008 -0.0107
loop_
_geom_bond_atom_site_label_1
_geom_bond_atom_site_label_2
_geom_bond_site_symmetry_1
_geom_bond_site_symmetry_2
S5 C26 1_555 1_555
N13 N19 1_555 1_555
N14 N17 1_555 1_555
N17 C28 1_555 1_555
N19 H25 1_555 1_555
H26 N19 1_555 1_555
O17 C27 1_555 1_555
C26 H37 1_555 1_555
H38 C26 1_555 1_555
C27 O19 1_555 1_555
C28 S5 1_555 1_555
C29 N13 1_555 1_555
H39 C30 1_555 1_555
N13 C28 1_555 1_555
N14 C29 1_555 1_555
C26 C27 1_555 1_555
C29 C30 1_555 1_555
S6 C17 1_555 1_555
C19 S6 1_555 1_555
H23 C19 1_555 1_555
H24 C19 1_555 1_555
N18 C17 1_555 1_555
H28 C20 1_555 1_555
C23 N18 1_555 1_555
N24 N18 1_555 1_555
H35 N24 1_555 1_555
H36 N24 1_555 1_555
C20 C23 1_555 1_555
H41 O21 1_555 1_555
H42 O21 1_555 1_555
O3 C3 1_555 1_555
N4 N9 1_555 1_555
O22 Dy5 1_555 1_555
H43 O22 1_555 1_555
H44 O22 1_555 1_555
O3 Dy5 1_555 1_555
N8 N3 1_555 1_555
H7 N8 1_555 1_555
H8 N8 1_555 1_555
H11 C10 1_555 1_555
H12 C10 1_555 1_555
O10 C16 1_555 1_555
C16 C22 1_555 1_555
C21 N23 1_555 1_555
H31 C22 1_555 1_555
H32 C22 1_555 1_555
N22 N23 1_555 1_555
N22 C24 1_555 1_555
S2 C11 1_555 1_555
N1 N7 1_555 1_555
N2 N5 1_555 1_555
N5 C13 1_555 1_555
N7 H3 1_555 1_555
H4 N7 1_555 1_555
C11 H15 1_555 1_555
H16 C11 1_555 1_555
C12 O5 1_555 1_555
C13 S2 1_555 1_555
C14 N1 1_555 1_555
C15 C14 1_555 1_555
H17 C15 1_555 1_555
O13 Dy7 1_555 1_555
N16 N21 1_555 1_555
C18 O13 1_555 1_555
N1 C13 1_555 1_555
N2 C14 1_555 1_555
O6 C12 1_555 1_555
C11 C12 1_555 1_555
O8 Dy7 1_555 1_555
H21 O8 1_555 1_555
H22 O8 1_555 1_555
S3 C2 1_555 1_555
C4 S3 1_555 1_555
H1 C4 1_555 1_555
H2 C4 1_555 1_555
N6 C2 1_555 1_555
H6 C5 1_555 1_555
C8 N6 1_555 1_555
N12 N6 1_555 1_555
H13 N12 1_555 1_555
H14 N12 1_555 1_555
H19 O7 1_555 1_555
H20 O7 1_555 1_555
C5 C8 1_555 1_555
O1 C1 1_555 1_555
C1 C7 1_555 1_555
C6 N11 1_555 1_555
H9 C7 1_555 1_555
H10 C7 1_555 1_555
N10 N11 1_555 1_555
N20 N15 1_555 1_555
H29 N20 1_555 1_555
H30 N20 1_555 1_555
H33 C25 1_555 1_555
H34 C25 1_555 1_555
N10 C9 1_555 1_555

#END
