
###############################################################################
#
# This file contains modified crystal structure data generated from the
# MOF subset of the Cambridge Structural Database (CSD) v543 
# hosted by the Cambridge Crystallographic Data Centre (CCDC).
#
# This work is licensed under the Creative Commons
# Attribution-NonCommercial-ShareAlike 4.0 International License.
# To view a copy of this license, visit
# http://creativecommons.org/licenses/by-nc-sa/4.0/
# or send a letter to
# Creative Commons, PO Box 1866, Mountain View, CA 94042, USA.
#
# CIF created using the CSD Python API on 29 September 2022
# The structure has been converted into the P1 space group
# The structure has a 3D framework
# The original CSD entry OPAPEB is in the triclinic crystal system
# The framework has been calculated to contain at least 10.0% void space
# The void calculation uses a probe of radius 1.32A, grid spacing 0.4
# H atom positions have been added when not included in the experimental data
# Generated hydrogen atom positions removed from atoms on special positions
#
###############################################################################

data_OPAPEB
_chemical_formula_moiety         '(C30 H48 N24 O16 S6 Sm2)n'
_symmetry_cell_setting           triclinic
_symmetry_space_group_name_H-M   'P 1'
_symmetry_Int_Tables_number      1
_space_group_name_Hall           'P 1'
loop_
_symmetry_equiv_pos_site_id
_symmetry_equiv_pos_as_xyz
1 x,y,z
_cell_length_a                   9.5104(19)
_cell_length_b                   11.515(2)
_cell_length_c                   14.575(3)
_cell_angle_alpha                69.47(3)
_cell_angle_beta                 85.29(3)
_cell_angle_gamma                86.39(3)
_cell_volume                     1488.72
loop_
_atom_site_label
_atom_site_type_symbol
_atom_site_fract_x
_atom_site_fract_y
_atom_site_fract_z
_atom_site_U_iso_or_equiv
_atom_site_thermal_displace_type
Sm5 Sm 0.79618(3) 0.95525(2) 0.002242(19) 0.0192 Uani
H38 H 0.0778 0.3881 0.0071 0.0390 Uiso
S5 S 0.56726(15) 0.63370(14) 0.85044(12) 0.0326 Uani
N13 N 0.3077(5) 0.5331(4) 0.9051(3) 0.0238 Uani
N14 N 0.2065(5) 0.6304(4) 0.9982(4) 0.0312 Uani
N17 N 0.3433(5) 0.6738(4) 0.9678(4) 0.0325 Uani
N19 N 0.3365(6) 0.4543(5) 0.8491(4) 0.0355 Uani
H23 H 0.336(8) 0.393(6) 0.883(5) 0.0430 Uiso
H24 H 0.271(7) 0.475(6) 0.802(5) 0.0430 Uiso
O17 O 0.6859(4) 0.7771(3) 0.9691(3) 0.0284 Uani
O19 O 0.6434(4) 0.9638(4) 0.8650(3) 0.0287 Uani
C26 C 0.5785(6) 0.7998(5) 0.8182(4) 0.0294 Uani
H35 H 0.4842 0.8366 0.8063 0.0350 Uiso
H36 H 0.6349 0.8307 0.7566 0.0350 Uiso
C27 C 0.6391(5) 0.8469(5) 0.8905(4) 0.0239 Uani
C28 C 0.4013(6) 0.6140(5) 0.9120(4) 0.0239 Uani
C29 C 0.1892(6) 0.5446(5) 0.9604(4) 0.0259 Uani
C30 C 0.0588(6) 0.4756(6) 0.9719(5) 0.0325 Uani
H37 H 0.0287 0.4846 0.9077 0.0390 Uiso
S6 S 0.77807(16) 0.25957(16) 0.75341(11) 0.0354 Uani
O10 O 0.8270(4) 0.0444(4) 0.1270(3) 0.0282 Uani
O11 O 0.9557(4) 0.1180(3) 0.9255(3) 0.0252 Uani
C17 C 0.8866(6) 0.1958(5) 0.6801(4) 0.0300 Uani
C19 C 0.9120(6) 0.3192(5) 0.8034(4) 0.0273 Uani
H21 H 0.8666 0.3697 0.8392 0.0320 Uiso
H22 H 0.9709 0.3727 0.7496 0.0320 Uiso
N18 N 0.8315(5) 0.1263(5) 0.6339(4) 0.0320 Uani
C20 C 0.9274(7) 0.0180(6) 0.5189(5) 0.0383 Uani
H26 H 0.8725 0.0651 0.4637 0.0460 Uiso
C23 C 0.9429(7) 0.0945(6) 0.5821(4) 0.0340 Uani
N24 N 0.6923(6) 0.0932(5) 0.6381(4) 0.0478 Uani
H33 H 0.6702 0.0481 0.6057 0.0570 Uiso
H34 H 0.6284 0.1178 0.6732 0.0570 Uiso
O21 O 0.6287(4) 0.1276(3) 0.9803(3) 0.0250 Uani
H39 H 0.6255 0.1958 0.9939 0.0300 Uiso
H40 H 0.5693 0.1626 0.9284 0.0300 Uiso
O3 O 0.8693(4) 0.7562(3) 0.1272(3) 0.0287 Uani
N4 N 0.9766(5) 0.7965(5) 0.3380(4) 0.0341 Uani
C3 C 0.9955(6) 0.7789(5) 0.1294(4) 0.0216 Uani
N9 N 0.9418(6) 0.8633(5) 0.4029(4) 0.0373 Uani
H25 H 0.8773 0.9436 0.5566 0.0460 Uiso
O22 O 0.5963(4) 0.8811(3) 0.1308(3) 0.0289 Uani
S1 S 0.95196(16) 0.77380(15) 0.76259(12) 0.0345 Uani
O4 O 0.9496(4) 0.8968(4) 0.8879(3) 0.0336 Uani
N3 N 0.9243(5) 0.6523(5) 0.6378(3) 0.0300 Uani
N8 N 0.7777(6) 0.6748(6) 0.6428(5) 0.0645 Uani
H7 H 0.7252 0.6497 0.6087 0.0780 Uiso
H8 H 0.7403 0.7138 0.6799 0.0780 Uiso
C10 C 0.9440(7) 0.5297(6) 0.5245(4) 0.0340 Uani
H11 H 0.8811 0.4666 0.5663 0.0410 Uiso
H12 H 0.8888 0.5895 0.4748 0.0410 Uiso
C16 C 0.9238(6) 0.0981(5) 0.1471(4) 0.0224 Uani
C21 C 0.9825(6) 0.3037(5) 0.3160(4) 0.0285 Uani
C22 C 0.8873(6) 0.1611(5) 0.2215(4) 0.0253 Uani
H29 H 0.8521 0.1016 0.2834 0.0300 Uiso
H30 H 0.8153 0.2262 0.1981 0.0300 Uiso
N22 N 0.8638(6) 0.3995(6) 0.4030(4) 0.0501 Uani
N23 N 0.8548(6) 0.3320(6) 0.3396(5) 0.0494 Uani
C24 C 0.9963(7) 0.4066(5) 0.4153(4) 0.0298 Uani
S2 S 0.43274(15) 0.36630(14) 0.14956(12) 0.0326 Uani
N1 N 0.6923(5) 0.4669(4) 0.0949(3) 0.0238 Uani
N2 N 0.7935(5) 0.3696(4) 0.0018(4) 0.0312 Uani
N5 N 0.6567(5) 0.3262(4) 0.0322(4) 0.0325 Uani
N7 N 0.6635(6) 0.5457(5) 0.1509(4) 0.0355 Uani
H3 H 0.664(8) 0.607(6) 0.117(5) 0.0430 Uiso
H4 H 0.729(7) 0.525(6) 0.198(5) 0.0430 Uiso
H5 H 0.1227 0.0564 0.4434 0.0460 Uiso
O5 O 0.3141(4) 0.2229(3) 0.0309(3) 0.0284 Uani
O6 O 0.3566(4) 0.0362(4) 0.1350(3) 0.0287 Uani
C11 C 0.4215(6) 0.2002(5) 0.1818(4) 0.0294 Uani
H15 H 0.5158 0.1634 0.1937 0.0350 Uiso
H16 H 0.3651 0.1693 0.2434 0.0350 Uiso
C12 C 0.3609(5) 0.1531(5) 0.1095(4) 0.0239 Uani
C13 C 0.5987(6) 0.3860(5) 0.0880(4) 0.0239 Uani
C14 C 0.8108(6) 0.4554(5) 0.0396(4) 0.0259 Uani
C15 C 0.9412(6) 0.5244(6) 0.0281(5) 0.0325 Uani
H17 H 0.9713 0.5154 0.0923 0.0390 Uiso
Sm7 Sm 0.20382(3) 0.04475(2) 0.997758(19) 0.0192 Uani
O13 O 0.1307(4) 0.2438(3) 0.8728(3) 0.0287 Uani
O16 O 0.0504(4) 0.1032(4) 0.1121(3) 0.0336 Uani
N16 N 0.0234(5) 0.2035(5) 0.6620(4) 0.0341 Uani
C18 C 0.0045(6) 0.2211(5) 0.8706(4) 0.0216 Uani
N21 N 0.0582(6) 0.1367(5) 0.5971(4) 0.0373 Uani
H18 H 0.9222 0.6119 0.9929 0.0390 Uiso
O8 O 0.4037(4) 0.1189(3) 0.8692(3) 0.0289 Uani
S3 S 0.22193(16) 0.74043(16) 0.24659(11) 0.0354 Uani
O2 O 0.0443(4) 0.8820(3) 0.0745(3) 0.0252 Uani
C2 C 0.1134(6) 0.8042(5) 0.3199(4) 0.0300 Uani
C4 C 0.0880(6) 0.6808(5) 0.1966(4) 0.0273 Uani
H1 H 0.1334 0.6303 0.1608 0.0320 Uiso
H2 H 0.0291 0.6273 0.2504 0.0320 Uiso
N6 N 0.1685(5) 0.8737(5) 0.3661(4) 0.0320 Uani
C5 C 0.0726(7) 0.9820(6) 0.4811(5) 0.0383 Uani
H6 H 0.1275 0.9349 0.5363 0.0460 Uiso
C8 C 0.0571(7) 0.9055(6) 0.4179(4) 0.0340 Uani
N12 N 0.3077(6) 0.9068(5) 0.3619(4) 0.0478 Uani
H13 H 0.3298 0.9519 0.3943 0.0570 Uiso
H14 H 0.3716 0.8822 0.3268 0.0570 Uiso
O7 O 0.3713(4) 0.8724(3) 0.0197(3) 0.0250 Uani
H19 H 0.3745 0.8042 0.0061 0.0300 Uiso
H20 H 0.4307 0.8374 0.0716 0.0300 Uiso
O1 O 0.1730(4) 0.9556(4) 0.8730(3) 0.0282 Uani
C1 C 0.0762(6) 0.9019(5) 0.8529(4) 0.0224 Uani
C6 C 0.0175(6) 0.6963(5) 0.6840(4) 0.0285 Uani
C7 C 0.1127(6) 0.8389(5) 0.7785(4) 0.0253 Uani
H9 H 0.1479 0.8984 0.7166 0.0300 Uiso
H10 H 0.1847 0.7738 0.8019 0.0300 Uiso
N10 N 0.1362(6) 0.6005(6) 0.5970(4) 0.0501 Uani
N11 N 0.1452(6) 0.6680(6) 0.6604(5) 0.0494 Uani
C9 C 0.0037(7) 0.5934(5) 0.5847(4) 0.0298 Uani
S4 S 0.04804(16) 0.22620(15) 0.23741(12) 0.0345 Uani
N15 N 0.0757(5) 0.3477(5) 0.3622(3) 0.0300 Uani
N20 N 0.2223(6) 0.3252(6) 0.3572(5) 0.0645 Uani
H27 H 0.2748 0.3503 0.3913 0.0780 Uiso
H28 H 0.2597 0.2862 0.3201 0.0780 Uiso
C25 C 0.0560(7) 0.4703(6) 0.4755(4) 0.0340 Uani
H31 H 0.1189 0.5334 0.4337 0.0410 Uiso
H32 H 0.1112 0.4105 0.5252 0.0410 Uiso
loop_
_atom_site_aniso_label
_atom_site_aniso_U_11
_atom_site_aniso_U_22
_atom_site_aniso_U_33
_atom_site_aniso_U_23
_atom_site_aniso_U_13
_atom_site_aniso_U_12
Sm5 0.01717 0.02162 0.02331 -0.01299 -0.0005 -0.00382
S5 0.024 0.0322 0.0498 -0.0251 0.007 -0.0095
N13 0.024 0.017 0.034 -0.013 0.001 -0.0063
N14 0.027 0.031 0.042 -0.021 0.004 -0.007
N17 0.032 0.03 0.043 -0.022 0.004 -0.009
N19 0.043 0.028 0.047 -0.028 0.005 -0.007
O17 0.03 0.031 0.028 -0.0129 -0.0038 -0.0102
O19 0.026 0.027 0.039 -0.0181 -0.0035 -0.0045
C26 0.033 0.03 0.029 -0.013 0 -0.016
C27 0.018 0.031 0.029 -0.018 0.004 -0.009
C28 0.02 0.022 0.032 -0.012 -0.001 -0.003
C29 0.026 0.026 0.028 -0.012 0.002 -0.007
C30 0.025 0.035 0.044 -0.022 0.007 -0.013
S6 0.0302 0.0497 0.0331 -0.0226 -0.0062 0.0025
O10 0.025 0.038 0.032 -0.0244 -0.0007 -0.0073
O11 0.026 0.021 0.027 -0.0057 -0.0023 -0.0044
C17 0.035 0.032 0.026 -0.013 -0.003 -0.004
C19 0.032 0.023 0.028 -0.01 -0.006 0.003
N18 0.033 0.037 0.031 -0.017 -0.004 -0.004
C20 0.05 0.035 0.034 -0.017 -0.006 0.003
C23 0.048 0.032 0.026 -0.014 -0.004 -0.005
N24 0.039 0.07 0.054 -0.044 0.001 -0.019
O21 0.023 0.022 0.037 -0.0186 -0.01 0.0065
O3 0.023 0.028 0.034 -0.0077 -0.0036 -0.0083
N4 0.038 0.035 0.036 -0.021 -0.003 0.002
C3 0.032 0.018 0.019 -0.012 0 -0.002
N9 0.042 0.04 0.039 -0.025 -0.005 0.001
O22 0.028 0.032 0.032 -0.0179 0.0041 -0.008
S1 0.0292 0.0491 0.0412 -0.0354 0.0018 -0.0087
O4 0.022 0.053 0.043 -0.039 0.0077 -0.0096
N3 0.033 0.038 0.028 -0.022 0.001 -0.01
N8 0.033 0.109 0.095 -0.09 0.003 -0.01
C10 0.048 0.034 0.028 -0.02 0.001 -0.011
C16 0.024 0.024 0.026 -0.017 -0.005 0.002
C21 0.034 0.029 0.032 -0.022 -0.004 -0.001
C22 0.025 0.032 0.025 -0.017 -0.004 -0.001
N22 0.043 0.076 0.06 -0.06 -0.005 0.004
N23 0.036 0.073 0.067 -0.059 -0.006 0.002
C24 0.04 0.029 0.028 -0.019 -0.003 -0.002
S2 0.024 0.0322 0.0498 -0.0251 0.007 -0.0095
N1 0.024 0.017 0.034 -0.013 0.001 -0.0063
N2 0.027 0.031 0.042 -0.021 0.004 -0.007
N5 0.032 0.03 0.043 -0.022 0.004 -0.009
N7 0.043 0.028 0.047 -0.028 0.005 -0.007
O5 0.03 0.031 0.028 -0.0129 -0.0038 -0.0102
O6 0.026 0.027 0.039 -0.0181 -0.0035 -0.0045
C11 0.033 0.03 0.029 -0.013 0 -0.016
C12 0.018 0.031 0.029 -0.018 0.004 -0.009
C13 0.02 0.022 0.032 -0.012 -0.001 -0.003
C14 0.026 0.026 0.028 -0.012 0.002 -0.007
C15 0.025 0.035 0.044 -0.022 0.007 -0.013
Sm7 0.01717 0.02162 0.02331 -0.01299 -0.0005 -0.00382
O13 0.023 0.028 0.034 -0.0077 -0.0036 -0.0083
O16 0.022 0.053 0.043 -0.039 0.0077 -0.0096
N16 0.038 0.035 0.036 -0.021 -0.003 0.002
C18 0.032 0.018 0.019 -0.012 0 -0.002
N21 0.042 0.04 0.039 -0.025 -0.005 0.001
O8 0.028 0.032 0.032 -0.0179 0.0041 -0.008
S3 0.0302 0.0497 0.0331 -0.0226 -0.0062 0.0025
O2 0.026 0.021 0.027 -0.0057 -0.0023 -0.0044
C2 0.035 0.032 0.026 -0.013 -0.003 -0.004
C4 0.032 0.023 0.028 -0.01 -0.006 0.003
N6 0.033 0.037 0.031 -0.017 -0.004 -0.004
C5 0.05 0.035 0.034 -0.017 -0.006 0.003
C8 0.048 0.032 0.026 -0.014 -0.004 -0.005
N12 0.039 0.07 0.054 -0.044 0.001 -0.019
O7 0.023 0.022 0.037 -0.0186 -0.01 0.0065
O1 0.025 0.038 0.032 -0.0244 -0.0007 -0.0073
C1 0.024 0.024 0.026 -0.017 -0.005 0.002
C6 0.034 0.029 0.032 -0.022 -0.004 -0.001
C7 0.025 0.032 0.025 -0.017 -0.004 -0.001
N10 0.043 0.076 0.06 -0.06 -0.005 0.004
N11 0.036 0.073 0.067 -0.059 -0.006 0.002
C9 0.04 0.029 0.028 -0.019 -0.003 -0.002
S4 0.0292 0.0491 0.0412 -0.0354 0.0018 -0.0087
N15 0.033 0.038 0.028 -0.022 0.001 -0.01
N20 0.033 0.109 0.095 -0.09 0.003 -0.01
C25 0.048 0.034 0.028 -0.02 0.001 -0.011
loop_
_geom_bond_atom_site_label_1
_geom_bond_atom_site_label_2
_geom_bond_site_symmetry_1
_geom_bond_site_symmetry_2
S5 C26 1_555 1_555
N13 N19 1_555 1_555
N14 N17 1_555 1_555
N17 C28 1_555 1_555
N19 H23 1_555 1_555
H24 N19 1_555 1_555
O17 C27 1_555 1_555
C26 H35 1_555 1_555
H36 C26 1_555 1_555
C27 O19 1_555 1_555
C28 S5 1_555 1_555
C29 N13 1_555 1_555
H37 C30 1_555 1_555
N13 C28 1_555 1_555
N14 C29 1_555 1_555
C26 C27 1_555 1_555
C29 C30 1_555 1_555
S6 C17 1_555 1_555
C19 S6 1_555 1_555
H21 C19 1_555 1_555
H22 C19 1_555 1_555
N18 C17 1_555 1_555
H26 C20 1_555 1_555
C23 N18 1_555 1_555
N24 N18 1_555 1_555
H33 N24 1_555 1_555
H34 N24 1_555 1_555
C20 C23 1_555 1_555
H39 O21 1_555 1_555
H40 O21 1_555 1_555
O3 C3 1_555 1_555
N4 N9 1_555 1_555
O22 Sm5 1_555 1_555
O3 Sm5 1_555 1_555
N8 N3 1_555 1_555
H7 N8 1_555 1_555
H8 N8 1_555 1_555
H11 C10 1_555 1_555
H12 C10 1_555 1_555
O10 C16 1_555 1_555
C16 C22 1_555 1_555
C21 N23 1_555 1_555
H29 C22 1_555 1_555
H30 C22 1_555 1_555
N22 N23 1_555 1_555
N22 C24 1_555 1_555
S2 C11 1_555 1_555
N1 N7 1_555 1_555
N2 N5 1_555 1_555
N5 C13 1_555 1_555
N7 H3 1_555 1_555
H4 N7 1_555 1_555
C11 H15 1_555 1_555
H16 C11 1_555 1_555
C12 O5 1_555 1_555
C13 S2 1_555 1_555
C14 N1 1_555 1_555
C15 C14 1_555 1_555
H17 C15 1_555 1_555
O13 Sm7 1_555 1_555
N16 N21 1_555 1_555
C18 O13 1_555 1_555
N1 C13 1_555 1_555
N2 C14 1_555 1_555
O6 C12 1_555 1_555
C11 C12 1_555 1_555
O8 Sm7 1_555 1_555
S3 C2 1_555 1_555
C4 S3 1_555 1_555
H1 C4 1_555 1_555
H2 C4 1_555 1_555
N6 C2 1_555 1_555
H6 C5 1_555 1_555
C8 N6 1_555 1_555
N12 N6 1_555 1_555
H13 N12 1_555 1_555
H14 N12 1_555 1_555
H19 O7 1_555 1_555
H20 O7 1_555 1_555
C5 C8 1_555 1_555
O1 C1 1_555 1_555
C1 C7 1_555 1_555
C6 N11 1_555 1_555
H9 C7 1_555 1_555
H10 C7 1_555 1_555
N10 N11 1_555 1_555
N20 N15 1_555 1_555
H27 N20 1_555 1_555
H28 N20 1_555 1_555
H31 C25 1_555 1_555
H32 C25 1_555 1_555
N10 C9 1_555 1_555

#END
