
###############################################################################
#
# This file contains modified crystal structure data generated from the
# MOF subset of the Cambridge Structural Database (CSD) v543 
# hosted by the Cambridge Crystallographic Data Centre (CCDC).
#
# This work is licensed under the Creative Commons
# Attribution-NonCommercial-ShareAlike 4.0 International License.
# To view a copy of this license, visit
# http://creativecommons.org/licenses/by-nc-sa/4.0/
# or send a letter to
# Creative Commons, PO Box 1866, Mountain View, CA 94042, USA.
#
# CIF created using the CSD Python API on 29 September 2022
# The structure has been converted into the P1 space group
# The structure has a 3D framework
# The original CSD entry OPAWOT is in the tetragonal crystal system
# The framework has been calculated to contain at least 10.0% void space
# The void calculation uses a probe of radius 1.32A, grid spacing 0.4
#
###############################################################################

data_OPAWOT
_chemical_formula_moiety         '(C416 H256 N40 O72 Zn16)n'
_symmetry_cell_setting           triclinic
_symmetry_space_group_name_H-M   'P 1'
_symmetry_Int_Tables_number      1
_space_group_name_Hall           'P 1'
loop_
_symmetry_equiv_pos_site_id
_symmetry_equiv_pos_as_xyz
1 x,y,z
_cell_length_a                   36.0683(19)
_cell_length_b                   36.0683(19)
_cell_length_c                   27.0566(12)
_cell_angle_alpha                90
_cell_angle_beta                 90
_cell_angle_gamma                90
_cell_volume                     35198.5
loop_
_atom_site_label
_atom_site_type_symbol
_atom_site_fract_x
_atom_site_fract_y
_atom_site_fract_z
N4 N 0.0910(2) 0.5318(2) 0.5000
C28 C 0.0209(2) 0.5061(2) 0.5000
C29 C 0.0386(3) 0.5131(4) 0.5397(3)
H17 H 0.0268 0.5080 0.5703
C30 C 0.0735(3) 0.5273(4) 0.5406(3)
H18 H 0.0847 0.5338 0.5712
C31 C 0.0386(3) 0.5131(4) 0.4603(3)
H19 H 0.0268 0.5080 0.4297
C32 C 0.0735(3) 0.5273(4) 0.4594(3)
H20 H 0.0847 0.5338 0.4288
Zn3 Zn 0.14393(4) 0.55188(4) 0.5000
O25 O 0.13879(15) 0.59296(17) 0.44766(18)
O26 O 0.13879(15) 0.59296(17) 0.55234(18)
O28 O 0.16751(16) 0.52011(16) 0.55201(16)
O29 O 0.16751(16) 0.52011(16) 0.44799(16)
Zn4 Zn 0.91848(4) 0.71703(4) 0.0000
Zn6 Zn 0.94812(4) 0.64393(4) 0.0000
Zn8 Zn 0.64393(4) 0.94812(4) 0.0000
Zn12 Zn 0.71703(4) 0.91848(4) 0.0000
O19 O 0.95697(15) 0.72342(15) 0.05292(17)
O22 O 0.88364(15) 0.69383(17) 0.05255(17)
N9 N 0.89718(18) 0.7680(3) 0.0000
Zn1 Zn 0.85607(4) 0.44812(4) 0.5000
Zn2 Zn 0.78297(4) 0.41848(4) 0.5000
N1 N 0.9090(2) 0.4682(2) 0.5000
O1 O 0.77658(15) 0.45697(15) 0.55292(17)
O2 O 0.88364(15) 0.69383(17) 0.94745(17)
O3 O 0.90704(17) 0.63879(15) 0.94766(18)
O4 O 0.83249(16) 0.47989(16) 0.55201(16)
C1 C 0.8576(2) 0.6507(2) 0.8999(2)
C2 C 0.8842(3) 0.6615(3) 0.9347(3)
C3 C 0.8015(3) 0.4789(3) 0.5683(3)
C4 C 0.7896(2) 0.5044(2) 0.6069(3)
C5 C 0.7541(2) 0.5007(2) 0.6259(3)
H1 H 0.7372 0.4828 0.6135
C6 C 0.7252(3) 0.5916(2) 0.7275(3)
H2 H 0.7078 0.5837 0.7033
C7 C 0.8321(2) 0.6738(2) 0.8815(3)
H3 H 0.8339 0.6992 0.8906
C8 C 0.7440(2) 0.5263(3) 0.6667(3)
H4 H 0.7201 0.5249 0.6814
C9 C 0.6654(4) 0.6654(4) 0.7718(4)
C10 C 0.7587(3) 0.5788(3) 0.7237(3)
C11 C 0.8168(2) 0.5290(2) 0.6263(3)
H5 H 0.8417 0.5291 0.6146
N2 N 0.6759(2) 0.6315(2) 0.7617(3)
H6 H 0.6579 0.6163 0.7534
C12 C 0.8576(2) 0.6138(3) 0.8817(3)
H7 H 0.8775 0.5976 0.8897
C13 C 0.8020(2) 0.6633(2) 0.8487(3)
H8 H 0.7842 0.6812 0.8388
C14 C 0.7822(2) 0.5894(2) 0.7585(3)
H9 H 0.8064 0.5791 0.7587
C15 C 0.7728(3) 0.6149(2) 0.7943(3)
C16 C 0.7993(3) 0.6265(3) 0.8317(3)
C17 C 0.7699(3) 0.5528(3) 0.6838(3)
C18 C 0.8046(2) 0.5539(2) 0.6643(3)
H10 H 0.8215 0.5719 0.6765
C19 C 0.7376(3) 0.6297(2) 0.7963(3)
H11 H 0.7308 0.6484 0.8192
C20 C 0.7128(3) 0.6149(3) 0.7622(4)
C21 C 0.8265(3) 0.6004(3) 0.8497(4)
H12 H 0.8247 0.5749 0.8414
O5 O 0.6902(2) 0.6902(2) 0.7827(4)
C22 C 0.9791(2) 0.4939(2) 0.5000
C23 C 0.9614(3) 0.4869(4) 0.5397(3)
H13 H 0.9732 0.4920 0.5703
C24 C 0.9265(3) 0.4727(4) 0.5406(3)
H14 H 0.9153 0.4662 0.5712
N3 N 0.7320(3) 0.39718(18) 0.5000
C25 C 0.6717(3) 0.3601(4) 0.5000
C26 C 0.6826(3) 0.3723(4) 0.4582(3)
H15 H 0.6701 0.3678 0.4279
C27 C 0.7128(3) 0.3916(3) 0.4620(3)
H16 H 0.7214 0.4030 0.4324
C33 C 0.9614(3) 0.4869(4) 0.4603(3)
H21 H 0.9732 0.4920 0.4297
C34 C 0.9265(3) 0.4727(4) 0.4594(3)
H22 H 0.9153 0.4662 0.4288
O6 O 0.45697(15) 0.77658(15) 0.55292(17)
O7 O 0.69383(17) 0.88364(15) 0.94745(17)
O8 O 0.63879(15) 0.90704(17) 0.94766(18)
O9 O 0.47989(16) 0.83249(16) 0.55201(16)
C35 C 0.6507(2) 0.8576(2) 0.8999(2)
C36 C 0.6615(3) 0.8842(3) 0.9347(3)
C37 C 0.4789(3) 0.8015(3) 0.5683(3)
C38 C 0.5044(2) 0.7896(2) 0.6069(3)
C39 C 0.5007(2) 0.7541(2) 0.6259(3)
H23 H 0.4828 0.7372 0.6135
C40 C 0.5916(2) 0.7252(3) 0.7275(3)
H24 H 0.5837 0.7078 0.7033
C41 C 0.6738(2) 0.8321(2) 0.8815(3)
H25 H 0.6992 0.8339 0.8906
C42 C 0.5263(3) 0.7440(2) 0.6667(3)
H26 H 0.5249 0.7201 0.6814
C43 C 0.5788(3) 0.7587(3) 0.7237(3)
C44 C 0.5290(2) 0.8168(2) 0.6263(3)
H27 H 0.5291 0.8417 0.6146
N5 N 0.6315(2) 0.6759(2) 0.7617(3)
H28 H 0.6163 0.6579 0.7534
C45 C 0.6138(3) 0.8576(2) 0.8817(3)
H29 H 0.5976 0.8775 0.8897
C46 C 0.6633(2) 0.8020(2) 0.8487(3)
H30 H 0.6812 0.7842 0.8388
C47 C 0.5894(2) 0.7822(2) 0.7585(3)
H31 H 0.5791 0.8064 0.7587
C48 C 0.6149(2) 0.7728(3) 0.7943(3)
C49 C 0.6265(3) 0.7993(3) 0.8317(3)
C50 C 0.5528(3) 0.7699(3) 0.6838(3)
C51 C 0.5539(2) 0.8046(2) 0.6643(3)
H32 H 0.5719 0.8215 0.6765
C52 C 0.6297(2) 0.7376(3) 0.7963(3)
H33 H 0.6484 0.7308 0.8192
C53 C 0.6149(3) 0.7128(3) 0.7622(4)
C54 C 0.6004(3) 0.8265(3) 0.8497(4)
H34 H 0.5749 0.8247 0.8414
N6 N 0.60282(18) 0.2680(3) 0.5000
C55 C 0.6399(4) 0.3283(3) 0.5000
C56 C 0.6277(4) 0.3174(3) 0.5418(3)
H35 H 0.6322 0.3299 0.5721
C57 C 0.6084(3) 0.2872(3) 0.5380(3)
H36 H 0.5970 0.2786 0.5676
C58 C 0.6826(3) 0.3723(4) 0.5418(3)
H37 H 0.6701 0.3678 0.5721
C59 C 0.7128(3) 0.3916(3) 0.5380(3)
H38 H 0.7214 0.4030 0.5676
C60 C 0.6277(4) 0.3174(3) 0.4582(3)
H39 H 0.6322 0.3299 0.4279
C61 C 0.6084(3) 0.2872(3) 0.4620(3)
H40 H 0.5970 0.2786 0.4324
O10 O 0.77658(15) 0.45697(15) 0.44708(17)
O12 O 0.90704(17) 0.63879(15) 0.05234(18)
O13 O 0.83249(16) 0.47989(16) 0.44799(16)
C62 C 0.8576(2) 0.6507(2) 0.1001(2)
C63 C 0.8842(3) 0.6615(3) 0.0653(3)
C64 C 0.8015(3) 0.4789(3) 0.4317(3)
C65 C 0.7896(2) 0.5044(2) 0.3931(3)
C66 C 0.7541(2) 0.5007(2) 0.3741(3)
H41 H 0.7372 0.4828 0.3865
C67 C 0.7252(3) 0.5916(2) 0.2725(3)
H42 H 0.7078 0.5837 0.2967
C68 C 0.8321(2) 0.6738(2) 0.1185(3)
H43 H 0.8339 0.6992 0.1094
C69 C 0.7440(2) 0.5263(3) 0.3333(3)
H44 H 0.7201 0.5249 0.3186
C70 C 0.6654(4) 0.6654(4) 0.2282(4)
C71 C 0.7587(3) 0.5788(3) 0.2763(3)
C72 C 0.8168(2) 0.5290(2) 0.3737(3)
H45 H 0.8417 0.5291 0.3854
N7 N 0.6759(2) 0.6315(2) 0.2383(3)
H46 H 0.6579 0.6163 0.2466
C73 C 0.8576(2) 0.6138(3) 0.1183(3)
H47 H 0.8775 0.5976 0.1103
C74 C 0.8020(2) 0.6633(2) 0.1513(3)
H48 H 0.7842 0.6812 0.1612
C75 C 0.7822(2) 0.5894(2) 0.2415(3)
H49 H 0.8064 0.5791 0.2413
C76 C 0.7728(3) 0.6149(2) 0.2057(3)
C77 C 0.7993(3) 0.6265(3) 0.1683(3)
C78 C 0.7699(3) 0.5528(3) 0.3162(3)
C79 C 0.8046(2) 0.5539(2) 0.3357(3)
H50 H 0.8215 0.5719 0.3235
C80 C 0.7376(3) 0.6297(2) 0.2037(3)
H51 H 0.7308 0.6484 0.1808
C81 C 0.7128(3) 0.6149(3) 0.2378(4)
C82 C 0.8265(3) 0.6004(3) 0.1503(4)
H52 H 0.8247 0.5749 0.1586
O14 O 0.6902(2) 0.6902(2) 0.2173(4)
O15 O 0.45697(15) 0.77658(15) 0.44708(17)
O16 O 0.69383(17) 0.88364(15) 0.05255(17)
O17 O 0.63879(15) 0.90704(17) 0.05234(18)
O18 O 0.47989(16) 0.83249(16) 0.44799(16)
C83 C 0.6507(2) 0.8576(2) 0.1001(2)
C84 C 0.6615(3) 0.8842(3) 0.0653(3)
C85 C 0.4789(3) 0.8015(3) 0.4317(3)
C86 C 0.5044(2) 0.7896(2) 0.3931(3)
C87 C 0.5007(2) 0.7541(2) 0.3741(3)
H53 H 0.4828 0.7372 0.3865
C88 C 0.5916(2) 0.7252(3) 0.2725(3)
H54 H 0.5837 0.7078 0.2967
C89 C 0.6738(2) 0.8321(2) 0.1185(3)
H55 H 0.6992 0.8339 0.1094
C90 C 0.5263(3) 0.7440(2) 0.3333(3)
H56 H 0.5249 0.7201 0.3186
C91 C 0.5788(3) 0.7587(3) 0.2763(3)
C92 C 0.5290(2) 0.8168(2) 0.3737(3)
H57 H 0.5291 0.8417 0.3854
N8 N 0.6315(2) 0.6759(2) 0.2383(3)
H58 H 0.6163 0.6579 0.2466
C93 C 0.6138(3) 0.8576(2) 0.1183(3)
H59 H 0.5976 0.8775 0.1103
C94 C 0.6633(2) 0.8020(2) 0.1513(3)
H60 H 0.6812 0.7842 0.1612
C95 C 0.5894(2) 0.7822(2) 0.2415(3)
H61 H 0.5791 0.8064 0.2413
C96 C 0.6149(2) 0.7728(3) 0.2057(3)
C97 C 0.6265(3) 0.7993(3) 0.1683(3)
C98 C 0.5528(3) 0.7699(3) 0.3162(3)
C99 C 0.5539(2) 0.8046(2) 0.3357(3)
H62 H 0.5719 0.8215 0.3235
C100 C 0.6297(2) 0.7376(3) 0.2037(3)
H63 H 0.6484 0.7308 0.1808
C101 C 0.6149(3) 0.7128(3) 0.2378(4)
C102 C 0.6004(3) 0.8265(3) 0.1503(4)
H64 H 0.5749 0.8247 0.1586
Zn4_2 Zn 0.91848(4) 0.71703(4) 1.0000
Zn6_2 Zn 0.94812(4) 0.64393(4) 1.0000
Zn8_2 Zn 0.64393(4) 0.94812(4) 1.0000
Zn9 Zn 0.44812(4) 0.85607(4) 0.5000
Zn12_2 Zn 0.71703(4) 0.91848(4) 1.0000
Zn13 Zn 0.41848(4) 0.78297(4) 0.5000
Zn14 Zn 0.58152(4) 0.21703(4) 0.5000
O20 O 0.95697(15) 0.72342(15) 0.94708(17)
O21 O 0.80617(17) 0.38364(15) 0.44745(17)
O23 O 0.80617(17) 0.38364(15) 0.55255(17)
O24 O 0.86121(15) 0.40704(17) 0.44766(18)
O27 O 0.86121(15) 0.40704(17) 0.55234(18)
N9_2 N 0.89718(18) 0.7680(3) 1.0000
Zn4_3 Zn 0.08152(4) 0.28297(4) 0.0000
Zn6_3 Zn 0.05188(4) 0.35607(4) 0.0000
Zn8_3 Zn 0.35607(4) 0.05188(4) 0.0000
Zn12_3 Zn 0.28297(4) 0.08152(4) 0.0000
O19_2 O 0.04303(15) 0.27658(15) 0.05292(17)
O22_2 O 0.11636(15) 0.30617(17) 0.05255(17)
N9_3 N 0.10282(18) 0.2320(3) 0.0000
Zn2_2 Zn 0.21703(4) 0.58152(4) 0.5000
O1_2 O 0.22342(15) 0.54303(15) 0.55292(17)
O2_2 O 0.11636(15) 0.30617(17) 0.94745(17)
O3_2 O 0.09296(17) 0.36121(15) 0.94766(18)
C1_2 C 0.1424(2) 0.3493(2) 0.8999(2)
C2_2 C 0.1158(3) 0.3385(3) 0.9347(3)
C3_2 C 0.1985(3) 0.5211(3) 0.5683(3)
C4_2 C 0.2104(2) 0.4956(2) 0.6069(3)
C5_2 C 0.2459(2) 0.4993(2) 0.6259(3)
H1_2 H 0.2628 0.5172 0.6135
C6_2 C 0.2748(3) 0.4084(2) 0.7275(3)
H2_2 H 0.2922 0.4163 0.7033
C7_2 C 0.1679(2) 0.3262(2) 0.8815(3)
H3_2 H 0.1661 0.3008 0.8906
C8_2 C 0.2560(2) 0.4737(3) 0.6667(3)
H4_2 H 0.2799 0.4751 0.6814
C9_2 C 0.3346(4) 0.3346(4) 0.7718(4)
C10_2 C 0.2413(3) 0.4212(3) 0.7237(3)
C11_2 C 0.1832(2) 0.4710(2) 0.6263(3)
H5_2 H 0.1583 0.4709 0.6146
N2_2 N 0.3241(2) 0.3685(2) 0.7617(3)
H6_2 H 0.3421 0.3837 0.7534
C12_2 C 0.1424(2) 0.3862(3) 0.8817(3)
H7_2 H 0.1225 0.4024 0.8897
C13_2 C 0.1980(2) 0.3367(2) 0.8487(3)
H8_2 H 0.2158 0.3188 0.8388
C14_2 C 0.2178(2) 0.4106(2) 0.7585(3)
H9_2 H 0.1936 0.4209 0.7587
C15_2 C 0.2272(3) 0.3851(2) 0.7943(3)
C16_2 C 0.2007(3) 0.3735(3) 0.8317(3)
C17_2 C 0.2301(3) 0.4472(3) 0.6838(3)
C18_2 C 0.1954(2) 0.4461(2) 0.6643(3)
H10_2 H 0.1785 0.4281 0.6765
C19_2 C 0.2624(3) 0.3703(2) 0.7963(3)
H11_2 H 0.2692 0.3516 0.8192
C20_2 C 0.2872(3) 0.3851(3) 0.7622(4)
C21_2 C 0.1735(3) 0.3996(3) 0.8497(4)
H12_2 H 0.1753 0.4251 0.8414
O5_2 O 0.3098(2) 0.3098(2) 0.7827(4)
N3_2 N 0.2680(3) 0.60282(18) 0.5000
C25_2 C 0.3283(3) 0.6399(4) 0.5000
C26_2 C 0.3174(3) 0.6277(4) 0.4582(3)
H15_2 H 0.3299 0.6322 0.4279
C27_2 C 0.2872(3) 0.6084(3) 0.4620(3)
H16_2 H 0.2786 0.5970 0.4324
O6_2 O 0.54303(15) 0.22342(15) 0.55292(17)
O7_2 O 0.30617(17) 0.11636(15) 0.94745(17)
O8_2 O 0.36121(15) 0.09296(17) 0.94766(18)
O9_2 O 0.52011(16) 0.16751(16) 0.55201(16)
C35_2 C 0.3493(2) 0.1424(2) 0.8999(2)
C36_2 C 0.3385(3) 0.1158(3) 0.9347(3)
C37_2 C 0.5211(3) 0.1985(3) 0.5683(3)
C38_2 C 0.4956(2) 0.2104(2) 0.6069(3)
C39_2 C 0.4993(2) 0.2459(2) 0.6259(3)
H23_2 H 0.5172 0.2628 0.6135
C40_2 C 0.4084(2) 0.2748(3) 0.7275(3)
H24_2 H 0.4163 0.2922 0.7033
C41_2 C 0.3262(2) 0.1679(2) 0.8815(3)
H25_2 H 0.3008 0.1661 0.8906
C42_2 C 0.4737(3) 0.2560(2) 0.6667(3)
H26_2 H 0.4751 0.2799 0.6814
C43_2 C 0.4212(3) 0.2413(3) 0.7237(3)
C44_2 C 0.4710(2) 0.1832(2) 0.6263(3)
H27_2 H 0.4709 0.1583 0.6146
N5_2 N 0.3685(2) 0.3241(2) 0.7617(3)
H28_2 H 0.3837 0.3421 0.7534
C45_2 C 0.3862(3) 0.1424(2) 0.8817(3)
H29_2 H 0.4024 0.1225 0.8897
C46_2 C 0.3367(2) 0.1980(2) 0.8487(3)
H30_2 H 0.3188 0.2158 0.8388
C47_2 C 0.4106(2) 0.2178(2) 0.7585(3)
H31_2 H 0.4209 0.1936 0.7587
C48_2 C 0.3851(2) 0.2272(3) 0.7943(3)
C49_2 C 0.3735(3) 0.2007(3) 0.8317(3)
C50_2 C 0.4472(3) 0.2301(3) 0.6838(3)
C51_2 C 0.4461(2) 0.1954(2) 0.6643(3)
H32_2 H 0.4281 0.1785 0.6765
C52_2 C 0.3703(2) 0.2624(3) 0.7963(3)
H33_2 H 0.3516 0.2692 0.8192
C53_2 C 0.3851(3) 0.2872(3) 0.7622(4)
C54_2 C 0.3996(3) 0.1735(3) 0.8497(4)
H34_2 H 0.4251 0.1753 0.8414
N6_2 N 0.39718(18) 0.7320(3) 0.5000
C55_2 C 0.3601(4) 0.6717(3) 0.5000
C56_2 C 0.3723(4) 0.6826(3) 0.5418(3)
H35_2 H 0.3678 0.6701 0.5721
C57_2 C 0.3916(3) 0.7128(3) 0.5380(3)
H36_2 H 0.4030 0.7214 0.5676
C58_2 C 0.3174(3) 0.6277(4) 0.5418(3)
H37_2 H 0.3299 0.6322 0.5721
C59_2 C 0.2872(3) 0.6084(3) 0.5380(3)
H38_2 H 0.2786 0.5970 0.5676
C60_2 C 0.3723(4) 0.6826(3) 0.4582(3)
H39_2 H 0.3678 0.6701 0.4279
C61_2 C 0.3916(3) 0.7128(3) 0.4620(3)
H40_2 H 0.4030 0.7214 0.4324
O10_2 O 0.22342(15) 0.54303(15) 0.44708(17)
O12_2 O 0.09296(17) 0.36121(15) 0.05234(18)
C62_2 C 0.1424(2) 0.3493(2) 0.1001(2)
C63_2 C 0.1158(3) 0.3385(3) 0.0653(3)
C64_2 C 0.1985(3) 0.5211(3) 0.4317(3)
C65_2 C 0.2104(2) 0.4956(2) 0.3931(3)
C66_2 C 0.2459(2) 0.4993(2) 0.3741(3)
H41_2 H 0.2628 0.5172 0.3865
C67_2 C 0.2748(3) 0.4084(2) 0.2725(3)
H42_2 H 0.2922 0.4163 0.2967
C68_2 C 0.1679(2) 0.3262(2) 0.1185(3)
H43_2 H 0.1661 0.3008 0.1094
C69_2 C 0.2560(2) 0.4737(3) 0.3333(3)
H44_2 H 0.2799 0.4751 0.3186
C70_2 C 0.3346(4) 0.3346(4) 0.2282(4)
C71_2 C 0.2413(3) 0.4212(3) 0.2763(3)
C72_2 C 0.1832(2) 0.4710(2) 0.3737(3)
H45_2 H 0.1583 0.4709 0.3854
N7_2 N 0.3241(2) 0.3685(2) 0.2383(3)
H46_2 H 0.3421 0.3837 0.2466
C73_2 C 0.1424(2) 0.3862(3) 0.1183(3)
H47_2 H 0.1225 0.4024 0.1103
C74_2 C 0.1980(2) 0.3367(2) 0.1513(3)
H48_2 H 0.2158 0.3188 0.1612
C75_2 C 0.2178(2) 0.4106(2) 0.2415(3)
H49_2 H 0.1936 0.4209 0.2413
C76_2 C 0.2272(3) 0.3851(2) 0.2057(3)
C77_2 C 0.2007(3) 0.3735(3) 0.1683(3)
C78_2 C 0.2301(3) 0.4472(3) 0.3162(3)
C79_2 C 0.1954(2) 0.4461(2) 0.3357(3)
H50_2 H 0.1785 0.4281 0.3235
C80_2 C 0.2624(3) 0.3703(2) 0.2037(3)
H51_2 H 0.2692 0.3516 0.1808
C81_2 C 0.2872(3) 0.3851(3) 0.2378(4)
C82_2 C 0.1735(3) 0.3996(3) 0.1503(4)
H52_2 H 0.1753 0.4251 0.1586
O14_2 O 0.3098(2) 0.3098(2) 0.2173(4)
O15_2 O 0.54303(15) 0.22342(15) 0.44708(17)
O16_2 O 0.30617(17) 0.11636(15) 0.05255(17)
O17_2 O 0.36121(15) 0.09296(17) 0.05234(18)
O18_2 O 0.52011(16) 0.16751(16) 0.44799(16)
C83_2 C 0.3493(2) 0.1424(2) 0.1001(2)
C84_2 C 0.3385(3) 0.1158(3) 0.0653(3)
C85_2 C 0.5211(3) 0.1985(3) 0.4317(3)
C86_2 C 0.4956(2) 0.2104(2) 0.3931(3)
C87_2 C 0.4993(2) 0.2459(2) 0.3741(3)
H53_2 H 0.5172 0.2628 0.3865
C88_2 C 0.4084(2) 0.2748(3) 0.2725(3)
H54_2 H 0.4163 0.2922 0.2967
C89_2 C 0.3262(2) 0.1679(2) 0.1185(3)
H55_2 H 0.3008 0.1661 0.1094
C90_2 C 0.4737(3) 0.2560(2) 0.3333(3)
H56_2 H 0.4751 0.2799 0.3186
C91_2 C 0.4212(3) 0.2413(3) 0.2763(3)
C92_2 C 0.4710(2) 0.1832(2) 0.3737(3)
H57_2 H 0.4709 0.1583 0.3854
N8_2 N 0.3685(2) 0.3241(2) 0.2383(3)
H58_2 H 0.3837 0.3421 0.2466
C93_2 C 0.3862(3) 0.1424(2) 0.1183(3)
H59_2 H 0.4024 0.1225 0.1103
C94_2 C 0.3367(2) 0.1980(2) 0.1513(3)
H60_2 H 0.3188 0.2158 0.1612
C95_2 C 0.4106(2) 0.2178(2) 0.2415(3)
H61_2 H 0.4209 0.1936 0.2413
C96_2 C 0.3851(2) 0.2272(3) 0.2057(3)
C97_2 C 0.3735(3) 0.2007(3) 0.1683(3)
C98_2 C 0.4472(3) 0.2301(3) 0.3162(3)
C99_2 C 0.4461(2) 0.1954(2) 0.3357(3)
H62_2 H 0.4281 0.1785 0.3235
C100_2 C 0.3703(2) 0.2624(3) 0.2037(3)
H63_2 H 0.3516 0.2692 0.1808
C101_2 C 0.3851(3) 0.2872(3) 0.2378(4)
C102_2 C 0.3996(3) 0.1735(3) 0.1503(4)
H64_2 H 0.4251 0.1753 0.1586
Zn4_4 Zn 0.08152(4) 0.28297(4) 1.0000
Zn6_4 Zn 0.05188(4) 0.35607(4) 1.0000
Zn8_4 Zn 0.35607(4) 0.05188(4) 1.0000
Zn9_2 Zn 0.55188(4) 0.14393(4) 0.5000
Zn12_4 Zn 0.28297(4) 0.08152(4) 1.0000
O20_2 O 0.04303(15) 0.27658(15) 0.94708(17)
O21_2 O 0.19383(17) 0.61636(15) 0.44745(17)
O23_2 O 0.19383(17) 0.61636(15) 0.55255(17)
N9_4 N 0.10282(18) 0.2320(3) 1.0000
N1_2 N 0.0318(2) 0.4090(2) 0.0000
O4_2 O 0.02011(16) 0.33249(16) 0.05201(16)
C3_3 C 0.0211(3) 0.3015(3) 0.0683(3)
H1_3 H 0.0172 0.2372 0.1135
C22_2 C 0.0061(2) 0.4791(2) 0.0000
C23_2 C 0.0131(4) 0.4614(3) 0.0397(3)
H13_2 H 0.0080 0.4732 0.0703
C24_2 C 0.0273(4) 0.4265(3) 0.0406(3)
H14_2 H 0.0338 0.4153 0.0712
C25_3 C 0.1399(4) 0.1717(3) 0.0000
N6_3 N 0.2320(3) 0.10282(18) 0.0000
C55_3 C 0.1717(3) 0.1399(4) 0.0000
C56_3 C 0.1826(3) 0.1277(4) 0.0418(3)
H35_3 H 0.1701 0.1322 0.0721
C57_3 C 0.2128(3) 0.1084(3) 0.0380(3)
H36_3 H 0.2214 0.0970 0.0676
C58_3 C 0.1277(4) 0.1826(3) 0.0418(3)
H37_3 H 0.1322 0.1701 0.0721
C59_3 C 0.1084(3) 0.2128(3) 0.0380(3)
H38_3 H 0.0970 0.2214 0.0676
N1_3 N 0.0318(2) 0.4090(2) 1.0000
C22_3 C 0.0061(2) 0.4791(2) 1.0000
C25_4 C 0.1399(4) 0.1717(3) 1.0000
C26_3 C 0.1277(4) 0.1826(3) 0.9582(3)
H15_3 H 0.1322 0.1701 0.9279
C27_3 C 0.1084(3) 0.2128(3) 0.9620(3)
H16_3 H 0.0970 0.2214 0.9324
C33_2 C 0.0131(4) 0.4614(3) 0.9603(3)
H21_2 H 0.0080 0.4732 0.9297
C34_2 C 0.0273(4) 0.4265(3) 0.9594(3)
H22_2 H 0.0338 0.4153 0.9288
N6_4 N 0.2320(3) 0.10282(18) 1.0000
C55_4 C 0.1717(3) 0.1399(4) 1.0000
C60_3 C 0.1826(3) 0.1277(4) 0.9582(3)
H39_3 H 0.1701 0.1322 0.9279
C61_3 C 0.2128(3) 0.1084(3) 0.9620(3)
H40_3 H 0.2214 0.0970 0.9324
O13_2 O 0.02011(16) 0.33249(16) 0.94799(16)
C64_3 C 0.0211(3) 0.3015(3) 0.9317(3)
H41_3 H 0.0172 0.2372 0.8865
C1_3 C 0.8493(2) 0.3576(2) 0.3999(2)
C2_3 C 0.8385(3) 0.3842(3) 0.4347(3)
C4_3 C 0.9956(2) 0.2896(2) 0.1069(3)
C5_3 C 0.9993(2) 0.2541(2) 0.1259(3)
C6_3 C 0.9084(2) 0.2252(3) 0.2275(3)
H2_3 H 0.9163 0.2078 0.2033
C7_3 C 0.8262(2) 0.3321(2) 0.3815(3)
H3_3 H 0.8008 0.3339 0.3906
C8_3 C 0.9737(3) 0.2440(2) 0.1667(3)
H4_3 H 0.9751 0.2201 0.1814
C9_3 C 0.8346(4) 0.1654(4) 0.2718(4)
C10_3 C 0.9212(3) 0.2587(3) 0.2237(3)
C11_3 C 0.9710(2) 0.3168(2) 0.1263(3)
H5_3 H 0.9709 0.3417 0.1146
N2_3 N 0.8685(2) 0.1759(2) 0.2617(3)
H6_3 H 0.8837 0.1579 0.2534
C12_3 C 0.8862(3) 0.3576(2) 0.3817(3)
H7_3 H 0.9024 0.3775 0.3897
C13_3 C 0.8367(2) 0.3020(2) 0.3487(3)
H8_3 H 0.8188 0.2842 0.3388
C14_3 C 0.9106(2) 0.2822(2) 0.2585(3)
H9_3 H 0.9209 0.3064 0.2587
C15_3 C 0.8851(2) 0.2728(3) 0.2943(3)
C16_3 C 0.8735(3) 0.2993(3) 0.3317(3)
C17_3 C 0.9472(3) 0.2699(3) 0.1838(3)
C18_3 C 0.9461(2) 0.3046(2) 0.1643(3)
H10_3 H 0.9281 0.3215 0.1765
C19_3 C 0.8703(2) 0.2376(3) 0.2963(3)
H11_3 H 0.8516 0.2308 0.3192
C20_3 C 0.8851(3) 0.2128(3) 0.2622(4)
C21_3 C 0.8996(3) 0.3265(3) 0.3497(4)
H12_3 H 0.9251 0.3247 0.3414
O5_3 O 0.8098(2) 0.1902(2) 0.2827(4)
N4_2 N 0.9682(2) 0.5910(2) 0.0000
C28_2 C 0.9939(2) 0.5209(2) 0.0000
C29_2 C 0.9869(4) 0.5386(3) 0.0397(3)
H17_2 H 0.9920 0.5268 0.0703
C30_2 C 0.9727(4) 0.5735(3) 0.0406(3)
H18_2 H 0.9662 0.5847 0.0712
O7_3 O 0.61636(15) 0.19383(17) 0.44745(17)
O8_3 O 0.59296(17) 0.13879(15) 0.44766(18)
C35_3 C 0.6424(2) 0.1507(2) 0.3999(2)
C36_3 C 0.6158(3) 0.1615(3) 0.4347(3)
C38_3 C 0.7104(2) 0.0044(2) 0.1069(3)
C39_3 C 0.7459(2) 0.0007(2) 0.1259(3)
C40_3 C 0.7748(3) 0.0916(2) 0.2275(3)
H24_3 H 0.7922 0.0837 0.2033
C41_3 C 0.6679(2) 0.1738(2) 0.3815(3)
H25_3 H 0.6661 0.1992 0.3906
C42_3 C 0.7560(2) 0.0263(3) 0.1667(3)
H26_3 H 0.7799 0.0249 0.1814
C43_3 C 0.7413(3) 0.0788(3) 0.2237(3)
C44_3 C 0.6832(2) 0.0290(2) 0.1263(3)
H27_3 H 0.6583 0.0291 0.1146
N5_3 N 0.8241(2) 0.1315(2) 0.2617(3)
H28_3 H 0.8421 0.1163 0.2534
C45_3 C 0.6424(2) 0.1138(3) 0.3817(3)
H29_3 H 0.6225 0.0976 0.3897
C46_3 C 0.6980(2) 0.1633(2) 0.3487(3)
H30_3 H 0.7158 0.1812 0.3388
C47_3 C 0.7178(2) 0.0894(2) 0.2585(3)
H31_3 H 0.6936 0.0791 0.2587
C48_3 C 0.7272(3) 0.1149(2) 0.2943(3)
C49_3 C 0.7007(3) 0.1265(3) 0.3317(3)
C50_3 C 0.7301(3) 0.0528(3) 0.1838(3)
C51_3 C 0.6954(2) 0.0539(2) 0.1643(3)
H32_3 H 0.6785 0.0719 0.1765
C52_3 C 0.7624(3) 0.1297(2) 0.2963(3)
H33_3 H 0.7692 0.1484 0.3192
C53_3 C 0.7872(3) 0.1149(3) 0.2622(4)
C54_3 C 0.6735(3) 0.1004(3) 0.3497(4)
H34_3 H 0.6753 0.0749 0.3414
O28_2 O 0.97989(16) 0.66751(16) 0.05201(16)
N4_3 N 0.9682(2) 0.5910(2) 1.0000
C28_3 C 0.9939(2) 0.5209(2) 1.0000
C31_2 C 0.9869(4) 0.5386(3) 0.9603(3)
H19_2 H 0.9920 0.5268 0.9297
C32_2 C 0.9727(4) 0.5735(3) 0.9594(3)
H20_2 H 0.9662 0.5847 0.9288
C62_3 C 0.8493(2) 0.3576(2) 0.6001(2)
C63_3 C 0.8385(3) 0.3842(3) 0.5653(3)
C65_3 C 0.9956(2) 0.2896(2) 0.8931(3)
C66_3 C 0.9993(2) 0.2541(2) 0.8741(3)
C67_3 C 0.9084(2) 0.2252(3) 0.7725(3)
H42_3 H 0.9163 0.2078 0.7967
C68_3 C 0.8262(2) 0.3321(2) 0.6185(3)
H43_3 H 0.8008 0.3339 0.6094
C69_3 C 0.9737(3) 0.2440(2) 0.8333(3)
H44_3 H 0.9751 0.2201 0.8186
C70_3 C 0.8346(4) 0.1654(4) 0.7282(4)
C71_3 C 0.9212(3) 0.2587(3) 0.7763(3)
C72_3 C 0.9710(2) 0.3168(2) 0.8737(3)
H45_3 H 0.9709 0.3417 0.8854
N7_3 N 0.8685(2) 0.1759(2) 0.7383(3)
H46_3 H 0.8837 0.1579 0.7466
C73_3 C 0.8862(3) 0.3576(2) 0.6183(3)
H47_3 H 0.9024 0.3775 0.6103
C74_3 C 0.8367(2) 0.3020(2) 0.6513(3)
H48_3 H 0.8188 0.2842 0.6612
C75_3 C 0.9106(2) 0.2822(2) 0.7415(3)
H49_3 H 0.9209 0.3064 0.7413
C76_3 C 0.8851(2) 0.2728(3) 0.7057(3)
C77_3 C 0.8735(3) 0.2993(3) 0.6683(3)
C78_3 C 0.9472(3) 0.2699(3) 0.8162(3)
C79_3 C 0.9461(2) 0.3046(2) 0.8357(3)
H50_3 H 0.9281 0.3215 0.8235
C80_3 C 0.8703(2) 0.2376(3) 0.7037(3)
H51_3 H 0.8516 0.2308 0.6808
C81_3 C 0.8851(3) 0.2128(3) 0.7378(4)
C82_3 C 0.8996(3) 0.3265(3) 0.6503(4)
H52_3 H 0.9251 0.3247 0.6586
O14_3 O 0.8098(2) 0.1902(2) 0.7173(4)
O16_3 O 0.61636(15) 0.19383(17) 0.55255(17)
O17_3 O 0.59296(17) 0.13879(15) 0.55234(18)
C83_3 C 0.6424(2) 0.1507(2) 0.6001(2)
C84_3 C 0.6158(3) 0.1615(3) 0.5653(3)
C86_3 C 0.7104(2) 0.0044(2) 0.8931(3)
C87_3 C 0.7459(2) 0.0007(2) 0.8741(3)
C88_3 C 0.7748(3) 0.0916(2) 0.7725(3)
H54_3 H 0.7922 0.0837 0.7967
C89_3 C 0.6679(2) 0.1738(2) 0.6185(3)
H55_3 H 0.6661 0.1992 0.6094
C90_3 C 0.7560(2) 0.0263(3) 0.8333(3)
H56_3 H 0.7799 0.0249 0.8186
C91_3 C 0.7413(3) 0.0788(3) 0.7763(3)
C92_3 C 0.6832(2) 0.0290(2) 0.8737(3)
H57_3 H 0.6583 0.0291 0.8854
N8_3 N 0.8241(2) 0.1315(2) 0.7383(3)
H58_3 H 0.8421 0.1163 0.7466
C93_3 C 0.6424(2) 0.1138(3) 0.6183(3)
H59_3 H 0.6225 0.0976 0.6103
C94_3 C 0.6980(2) 0.1633(2) 0.6513(3)
H60_3 H 0.7158 0.1812 0.6612
C95_3 C 0.7178(2) 0.0894(2) 0.7415(3)
H61_3 H 0.6936 0.0791 0.7413
C96_3 C 0.7272(3) 0.1149(2) 0.7057(3)
C97_3 C 0.7007(3) 0.1265(3) 0.6683(3)
C98_3 C 0.7301(3) 0.0528(3) 0.8162(3)
C99_3 C 0.6954(2) 0.0539(2) 0.8357(3)
H62_3 H 0.6785 0.0719 0.8235
C100_3 C 0.7624(3) 0.1297(2) 0.7037(3)
H63_3 H 0.7692 0.1484 0.6808
C101_3 C 0.7872(3) 0.1149(3) 0.7378(4)
C102_3 C 0.6735(3) 0.1004(3) 0.6503(4)
H64_3 H 0.6753 0.0749 0.6586
O29_2 O 0.97989(16) 0.66751(16) 0.94799(16)
O6_3 O 0.72342(15) 0.95697(15) 0.05292(17)
O9_3 O 0.66751(16) 0.97989(16) 0.05201(16)
C37_3 C 0.6985(3) 0.9789(3) 0.0683(3)
H23_3 H 0.7628 0.9828 0.1135
O15_3 O 0.72342(15) 0.95697(15) 0.94708(17)
O18_3 O 0.66751(16) 0.97989(16) 0.94799(16)
C85_3 C 0.6985(3) 0.9789(3) 0.9317(3)
H53_3 H 0.7628 0.9828 0.8865
O6_4 O 0.27658(15) 0.04303(15) 0.05292(17)
O9_4 O 0.33249(16) 0.02011(16) 0.05201(16)
C37_4 C 0.3015(3) 0.0211(3) 0.0683(3)
H23_4 H 0.2372 0.0172 0.1135
O15_4 O 0.27658(15) 0.04303(15) 0.94708(17)
O18_4 O 0.33249(16) 0.02011(16) 0.94799(16)
C85_4 C 0.3015(3) 0.0211(3) 0.9317(3)
H53_4 H 0.2372 0.0172 0.8865
C1_4 C 0.1507(2) 0.6424(2) 0.3999(2)
C2_4 C 0.1615(3) 0.6158(3) 0.4347(3)
C4_4 C 0.0044(2) 0.7104(2) 0.1069(3)
C5_4 C 0.0007(2) 0.7459(2) 0.1259(3)
C6_4 C 0.0916(2) 0.7748(3) 0.2275(3)
H2_4 H 0.0837 0.7922 0.2033
C7_4 C 0.1738(2) 0.6679(2) 0.3815(3)
H3_4 H 0.1992 0.6661 0.3906
C8_4 C 0.0263(3) 0.7560(2) 0.1667(3)
H4_4 H 0.0249 0.7799 0.1814
C9_4 C 0.1654(4) 0.8346(4) 0.2718(4)
C10_4 C 0.0788(3) 0.7413(3) 0.2237(3)
C11_4 C 0.0290(2) 0.6832(2) 0.1263(3)
H5_4 H 0.0291 0.6583 0.1146
N2_4 N 0.1315(2) 0.8241(2) 0.2617(3)
H6_4 H 0.1163 0.8421 0.2534
C12_4 C 0.1138(3) 0.6424(2) 0.3817(3)
H7_4 H 0.0976 0.6225 0.3897
C13_4 C 0.1633(2) 0.6980(2) 0.3487(3)
H8_4 H 0.1812 0.7158 0.3388
C14_4 C 0.0894(2) 0.7178(2) 0.2585(3)
H9_4 H 0.0791 0.6936 0.2587
C15_4 C 0.1149(2) 0.7272(3) 0.2943(3)
C16_4 C 0.1265(3) 0.7007(3) 0.3317(3)
C17_4 C 0.0528(3) 0.7301(3) 0.1838(3)
C18_4 C 0.0539(2) 0.6954(2) 0.1643(3)
H10_4 H 0.0719 0.6785 0.1765
C19_4 C 0.1297(2) 0.7624(3) 0.2963(3)
H11_4 H 0.1484 0.7692 0.3192
C20_4 C 0.1149(3) 0.7872(3) 0.2622(4)
C21_4 C 0.1004(3) 0.6735(3) 0.3497(4)
H12_4 H 0.0749 0.6753 0.3414
O5_4 O 0.1902(2) 0.8098(2) 0.2827(4)
O7_4 O 0.38364(15) 0.80617(17) 0.44745(17)
O8_4 O 0.40704(17) 0.86121(15) 0.44766(18)
C35_4 C 0.3576(2) 0.8493(2) 0.3999(2)
C36_4 C 0.3842(3) 0.8385(3) 0.4347(3)
C38_4 C 0.2896(2) 0.9956(2) 0.1069(3)
C39_4 C 0.2541(2) 0.9993(2) 0.1259(3)
C40_4 C 0.2252(3) 0.9084(2) 0.2275(3)
H24_4 H 0.2078 0.9163 0.2033
C41_4 C 0.3321(2) 0.8262(2) 0.3815(3)
H25_4 H 0.3339 0.8008 0.3906
C42_4 C 0.2440(2) 0.9737(3) 0.1667(3)
H26_4 H 0.2201 0.9751 0.1814
C43_4 C 0.2587(3) 0.9212(3) 0.2237(3)
C44_4 C 0.3168(2) 0.9710(2) 0.1263(3)
H27_4 H 0.3417 0.9709 0.1146
N5_4 N 0.1759(2) 0.8685(2) 0.2617(3)
H28_4 H 0.1579 0.8837 0.2534
C45_4 C 0.3576(2) 0.8862(3) 0.3817(3)
H29_4 H 0.3775 0.9024 0.3897
C46_4 C 0.3020(2) 0.8367(2) 0.3487(3)
H30_4 H 0.2842 0.8188 0.3388
C47_4 C 0.2822(2) 0.9106(2) 0.2585(3)
H31_4 H 0.3064 0.9209 0.2587
C48_4 C 0.2728(3) 0.8851(2) 0.2943(3)
C49_4 C 0.2993(3) 0.8735(3) 0.3317(3)
C50_4 C 0.2699(3) 0.9472(3) 0.1838(3)
C51_4 C 0.3046(2) 0.9461(2) 0.1643(3)
H32_4 H 0.3215 0.9281 0.1765
C52_4 C 0.2376(3) 0.8703(2) 0.2963(3)
H33_4 H 0.2308 0.8516 0.3192
C53_4 C 0.2128(3) 0.8851(3) 0.2622(4)
C54_4 C 0.3265(3) 0.8996(3) 0.3497(4)
H34_4 H 0.3247 0.9251 0.3414
C62_4 C 0.1507(2) 0.6424(2) 0.6001(2)
C63_4 C 0.1615(3) 0.6158(3) 0.5653(3)
C65_4 C 0.0044(2) 0.7104(2) 0.8931(3)
C66_4 C 0.0007(2) 0.7459(2) 0.8741(3)
C67_4 C 0.0916(2) 0.7748(3) 0.7725(3)
H42_4 H 0.0837 0.7922 0.7967
C68_4 C 0.1738(2) 0.6679(2) 0.6185(3)
H43_4 H 0.1992 0.6661 0.6094
C69_4 C 0.0263(3) 0.7560(2) 0.8333(3)
H44_4 H 0.0249 0.7799 0.8186
C70_4 C 0.1654(4) 0.8346(4) 0.7282(4)
C71_4 C 0.0788(3) 0.7413(3) 0.7763(3)
C72_4 C 0.0290(2) 0.6832(2) 0.8737(3)
H45_4 H 0.0291 0.6583 0.8854
N7_4 N 0.1315(2) 0.8241(2) 0.7383(3)
H46_4 H 0.1163 0.8421 0.7466
C73_4 C 0.1138(3) 0.6424(2) 0.6183(3)
H47_4 H 0.0976 0.6225 0.6103
C74_4 C 0.1633(2) 0.6980(2) 0.6513(3)
H48_4 H 0.1812 0.7158 0.6612
C75_4 C 0.0894(2) 0.7178(2) 0.7415(3)
H49_4 H 0.0791 0.6936 0.7413
C76_4 C 0.1149(2) 0.7272(3) 0.7057(3)
C77_4 C 0.1265(3) 0.7007(3) 0.6683(3)
C78_4 C 0.0528(3) 0.7301(3) 0.8162(3)
C79_4 C 0.0539(2) 0.6954(2) 0.8357(3)
H50_4 H 0.0719 0.6785 0.8235
C80_4 C 0.1297(2) 0.7624(3) 0.7037(3)
H51_4 H 0.1484 0.7692 0.6808
C81_4 C 0.1149(3) 0.7872(3) 0.7378(4)
C82_4 C 0.1004(3) 0.6735(3) 0.6503(4)
H52_4 H 0.0749 0.6753 0.6586
O14_4 O 0.1902(2) 0.8098(2) 0.7173(4)
O16_4 O 0.38364(15) 0.80617(17) 0.55255(17)
O17_4 O 0.40704(17) 0.86121(15) 0.55234(18)
C83_4 C 0.3576(2) 0.8493(2) 0.6001(2)
C84_4 C 0.3842(3) 0.8385(3) 0.5653(3)
C86_4 C 0.2896(2) 0.9956(2) 0.8931(3)
C87_4 C 0.2541(2) 0.9993(2) 0.8741(3)
C88_4 C 0.2252(3) 0.9084(2) 0.7725(3)
H54_4 H 0.2078 0.9163 0.7967
C89_4 C 0.3321(2) 0.8262(2) 0.6185(3)
H55_4 H 0.3339 0.8008 0.6094
C90_4 C 0.2440(2) 0.9737(3) 0.8333(3)
H56_4 H 0.2201 0.9751 0.8186
C91_4 C 0.2587(3) 0.9212(3) 0.7763(3)
C92_4 C 0.3168(2) 0.9710(2) 0.8737(3)
H57_4 H 0.3417 0.9709 0.8854
N8_4 N 0.1759(2) 0.8685(2) 0.7383(3)
H58_4 H 0.1579 0.8837 0.7466
C93_4 C 0.3576(2) 0.8862(3) 0.6183(3)
H59_4 H 0.3775 0.9024 0.6103
C94_4 C 0.3020(2) 0.8367(2) 0.6513(3)
H60_4 H 0.2842 0.8188 0.6612
C95_4 C 0.2822(2) 0.9106(2) 0.7415(3)
H61_4 H 0.3064 0.9209 0.7413
C96_4 C 0.2728(3) 0.8851(2) 0.7057(3)
C97_4 C 0.2993(3) 0.8735(3) 0.6683(3)
C98_4 C 0.2699(3) 0.9472(3) 0.8162(3)
C99_4 C 0.3046(2) 0.9461(2) 0.8357(3)
H62_4 H 0.3215 0.9281 0.8235
C100_4 C 0.2376(3) 0.8703(2) 0.7037(3)
H63_4 H 0.2308 0.8516 0.6808
C101_4 C 0.2128(3) 0.8851(3) 0.7378(4)
C102_4 C 0.3265(3) 0.8996(3) 0.6503(4)
H64_4 H 0.3247 0.9251 0.6586
C3_4 C 0.9789(3) 0.6985(3) 0.0683(3)
H1_4 H 0.9828 0.7628 0.1135
C25_5 C 0.8601(4) 0.8283(3) 0.0000
N6_5 N 0.7680(3) 0.89718(18) 0.0000
C55_5 C 0.8283(3) 0.8601(4) 0.0000
C56_4 C 0.8174(3) 0.8723(4) 0.0418(3)
H35_4 H 0.8299 0.8678 0.0721
C57_4 C 0.7872(3) 0.8916(3) 0.0380(3)
H36_4 H 0.7786 0.9030 0.0676
C58_4 C 0.8723(4) 0.8174(3) 0.0418(3)
H37_4 H 0.8678 0.8299 0.0721
C59_4 C 0.8916(3) 0.7872(3) 0.0380(3)
H38_4 H 0.9030 0.7786 0.0676
C25_6 C 0.8601(4) 0.8283(3) 1.0000
C26_4 C 0.8723(4) 0.8174(3) 0.9582(3)
H15_4 H 0.8678 0.8299 0.9279
C27_4 C 0.8916(3) 0.7872(3) 0.9620(3)
H16_4 H 0.9030 0.7786 0.9324
N6_6 N 0.7680(3) 0.89718(18) 1.0000
C55_6 C 0.8283(3) 0.8601(4) 1.0000
C60_4 C 0.8174(3) 0.8723(4) 0.9582(3)
H39_4 H 0.8299 0.8678 0.9279
C61_4 C 0.7872(3) 0.8916(3) 0.9620(3)
H40_4 H 0.7786 0.9030 0.9324
C64_4 C 0.9789(3) 0.6985(3) 0.9317(3)
H41_4 H 0.9828 0.7628 0.8865
N4_4 N 0.4090(2) 0.0318(2) 0.0000
C28_4 C 0.4791(2) 0.0061(2) 0.0000
C31_3 C 0.4614(3) 0.0131(4) 0.0397(3)
H19_3 H 0.4732 0.0080 0.0703
C32_3 C 0.4265(3) 0.0273(4) 0.0406(3)
H20_3 H 0.4153 0.0338 0.0712
N4_5 N 0.4090(2) 0.0318(2) 1.0000
C28_5 C 0.4791(2) 0.0061(2) 1.0000
C29_3 C 0.4614(3) 0.0131(4) 0.9603(3)
H17_3 H 0.4732 0.0080 0.9297
C30_3 C 0.4265(3) 0.0273(4) 0.9594(3)
H18_3 H 0.4153 0.0338 0.9288
N1_4 N 0.5910(2) 0.9682(2) 0.0000
C22_4 C 0.5209(2) 0.9939(2) 0.0000
C33_3 C 0.5386(3) 0.9869(4) 0.0397(3)
H21_3 H 0.5268 0.9920 0.0703
C34_3 C 0.5735(3) 0.9727(4) 0.0406(3)
H22_3 H 0.5847 0.9662 0.0712
N1_5 N 0.5910(2) 0.9682(2) 1.0000
C22_5 C 0.5209(2) 0.9939(2) 1.0000
C23_3 C 0.5386(3) 0.9869(4) 0.9603(3)
H13_3 H 0.5268 0.9920 0.9297
C24_3 C 0.5735(3) 0.9727(4) 0.9594(3)
H14_3 H 0.5847 0.9662 0.9288
N4_6 N 0.5318(2) 0.0910(2) 0.5000
C28_6 C 0.5061(2) 0.0209(2) 0.5000
C29_4 C 0.5131(4) 0.0386(3) 0.4603(3)
H17_4 H 0.5080 0.0268 0.4297
C30_4 C 0.5273(4) 0.0735(3) 0.4594(3)
H18_4 H 0.5338 0.0847 0.4288
C31_4 C 0.5131(4) 0.0386(3) 0.5397(3)
H19_4 H 0.5080 0.0268 0.5703
C32_4 C 0.5273(4) 0.0735(3) 0.5406(3)
H20_4 H 0.5338 0.0847 0.5712
N1_6 N 0.4682(2) 0.9090(2) 0.5000
C22_6 C 0.4939(2) 0.9791(2) 0.5000
C23_4 C 0.4869(4) 0.9614(3) 0.4603(3)
H13_4 H 0.4920 0.9732 0.4297
C24_4 C 0.4727(4) 0.9265(3) 0.4594(3)
H14_4 H 0.4662 0.9153 0.4288
C33_4 C 0.4869(4) 0.9614(3) 0.5397(3)
H21_4 H 0.4920 0.9732 0.5703
C34_4 C 0.4727(4) 0.9265(3) 0.5406(3)
H22_4 H 0.4662 0.9153 0.5712
loop_
_geom_bond_atom_site_label_1
_geom_bond_atom_site_label_2
_geom_bond_site_symmetry_1
_geom_bond_site_symmetry_2
N4 C30 1_555 1_555
C29 C28 1_555 1_555
H17 C29 1_555 1_555
C30 C29 1_555 1_555
H18 C30 1_555 1_555
C31 C28 1_555 1_555
H19 C31 1_555 1_555
C32 N4 1_555 1_555
H20 C32 1_555 1_555
Zn3 N4 1_555 1_555
O25 Zn3 1_555 1_555
O26 Zn3 1_555 1_555
O28 Zn3 1_555 1_555
O29 Zn3 1_555 1_555
C31 C32 1_555 1_555
O19 Zn4 1_555 1_555
O22 Zn4 1_555 1_555
N9 Zn4 1_555 1_555
Zn1 N1 1_555 1_555
Zn2 O1 1_555 1_555
N1 C24 1_555 1_555
O1 C3 1_555 1_555
O2 C2 1_555 1_555
O3 C2 1_555 1_555
O4 Zn1 1_555 1_555
C1 C2 1_555 1_555
C3 O4 1_555 1_555
C4 C3 1_555 1_555
C5 C4 1_555 1_555
H1 C5 1_555 1_555
C6 H2 1_555 1_555
C7 C1 1_555 1_555
H3 C7 1_555 1_555
C8 C5 1_555 1_555
H4 C8 1_555 1_555
C9 N2 1_555 1_555
C10 C6 1_555 1_555
C11 C4 1_555 1_555
H5 C11 1_555 1_555
N2 H6 1_555 1_555
C12 C1 1_555 1_555
H7 C12 1_555 1_555
C13 C7 1_555 1_555
H8 C13 1_555 1_555
C14 C10 1_555 1_555
H9 C14 1_555 1_555
C15 C14 1_555 1_555
C16 C13 1_555 1_555
C17 C8 1_555 1_555
C18 C11 1_555 1_555
H10 C18 1_555 1_555
C19 C15 1_555 1_555
H11 C19 1_555 1_555
C20 C6 1_555 1_555
C21 C12 1_555 1_555
H12 C21 1_555 1_555
O5 C9 1_555 1_555
C22 C23 1_555 1_555
C23 H13 1_555 1_555
C24 C23 1_555 1_555
H14 C24 1_555 1_555
N3 Zn2 1_555 1_555
C25 C26 1_555 1_555
C26 H15 1_555 1_555
C27 N3 1_555 1_555
H16 C27 1_555 1_555
C33 C22 1_555 1_555
H21 C33 1_555 1_555
C34 N1 1_555 1_555
H22 C34 1_555 1_555
O6 C37 1_555 1_555
O7 C36 1_555 1_555
O8 C36 1_555 1_555
O9 C37 1_555 1_555
C35 C36 1_555 1_555
C37 C38 1_555 1_555
C38 C39 1_555 1_555
C39 H23 1_555 1_555
C40 H24 1_555 1_555
C41 C35 1_555 1_555
H25 C41 1_555 1_555
C42 C39 1_555 1_555
H26 C42 1_555 1_555
C43 C40 1_555 1_555
C44 C38 1_555 1_555
H27 C44 1_555 1_555
N5 C9 1_555 1_555
H28 N5 1_555 1_555
C45 C35 1_555 1_555
H29 C45 1_555 1_555
C46 C41 1_555 1_555
H30 C46 1_555 1_555
C47 C43 1_555 1_555
H31 C47 1_555 1_555
C48 C47 1_555 1_555
C49 C46 1_555 1_555
C50 C42 1_555 1_555
C51 C44 1_555 1_555
H32 C51 1_555 1_555
C52 C48 1_555 1_555
H33 C52 1_555 1_555
C53 C40 1_555 1_555
C54 C45 1_555 1_555
H34 C54 1_555 1_555
N6 C57 1_555 1_555
C55 C25 1_555 1_555
C56 C55 1_555 1_555
H35 C56 1_555 1_555
C57 C56 1_555 1_555
H36 C57 1_555 1_555
C58 C25 1_555 1_555
H37 C58 1_555 1_555
C59 N3 1_555 1_555
H38 C59 1_555 1_555
C60 C55 1_555 1_555
H39 C60 1_555 1_555
C61 N6 1_555 1_555
H40 C61 1_555 1_555
O10 Zn2 1_555 1_555
O22 C63 1_555 1_555
O12 C63 1_555 1_555
O13 Zn1 1_555 1_555
C62 C63 1_555 1_555
C64 O10 1_555 1_555
C65 C64 1_555 1_555
C66 C65 1_555 1_555
H41 C66 1_555 1_555
C67 H42 1_555 1_555
C68 C62 1_555 1_555
H43 C68 1_555 1_555
C69 C66 1_555 1_555
H44 C69 1_555 1_555
C70 N7 1_555 1_555
C71 C67 1_555 1_555
C72 C65 1_555 1_555
H45 C72 1_555 1_555
N7 H46 1_555 1_555
C73 C62 1_555 1_555
H47 C73 1_555 1_555
C74 C68 1_555 1_555
H48 C74 1_555 1_555
C75 C71 1_555 1_555
H49 C75 1_555 1_555
C76 C75 1_555 1_555
C77 C74 1_555 1_555
C78 C69 1_555 1_555
C79 C72 1_555 1_555
H50 C79 1_555 1_555
C80 C76 1_555 1_555
H51 C80 1_555 1_555
C81 C67 1_555 1_555
C82 C73 1_555 1_555
H52 C82 1_555 1_555
O14 C70 1_555 1_555
O15 C85 1_555 1_555
O16 C84 1_555 1_555
O17 C84 1_555 1_555
O18 C85 1_555 1_555
C83 C84 1_555 1_555
C85 C86 1_555 1_555
C86 C87 1_555 1_555
C87 H53 1_555 1_555
C88 H54 1_555 1_555
C89 C83 1_555 1_555
H55 C89 1_555 1_555
C90 C87 1_555 1_555
H56 C90 1_555 1_555
C91 C88 1_555 1_555
C92 C86 1_555 1_555
H57 C92 1_555 1_555
N8 C70 1_555 1_555
H58 N8 1_555 1_555
C93 C83 1_555 1_555
H59 C93 1_555 1_555
C94 C89 1_555 1_555
H60 C94 1_555 1_555
C95 C91 1_555 1_555
H61 C95 1_555 1_555
C96 C95 1_555 1_555
C97 C94 1_555 1_555
C98 C90 1_555 1_555
C99 C92 1_555 1_555
H62 C99 1_555 1_555
C100 C96 1_555 1_555
H63 C100 1_555 1_555
C101 C88 1_555 1_555
C102 C93 1_555 1_555
H64 C102 1_555 1_555
Zn4_2 O2 1_555 1_555
Zn6 O12 1_555 1_555
Zn6_2 O3 1_555 1_555
Zn8 O17 1_555 1_555
Zn8_2 O8 1_555 1_555
Zn9 O9 1_555 1_555
Zn12 O16 1_555 1_555
Zn12_2 O7 1_555 1_555
Zn13 O6 1_555 1_555
Zn14 N6 1_555 1_555
O20 Zn4_2 1_555 1_555
O21 Zn2 1_555 1_555
O23 Zn2 1_555 1_555
O24 Zn1 1_555 1_555
O27 Zn1 1_555 1_555
N9_2 Zn4_2 1_555 1_555
C10 C17 1_555 1_555
N2 C20 1_555 1_555
C15 C16 1_555 1_555
C16 C21 1_555 1_555
C17 C18 1_555 1_555
C19 C20 1_555 1_555
C26 C27 1_555 1_555
C33 C34 1_555 1_555
C43 C50 1_555 1_555
N5 C53 1_555 1_555
C48 C49 1_555 1_555
C49 C54 1_555 1_555
C50 C51 1_555 1_555
C52 C53 1_555 1_555
C58 C59 1_555 1_555
C60 C61 1_555 1_555
O13 C64 1_555 1_555
C71 C78 1_555 1_555
N7 C81 1_555 1_555
C76 C77 1_555 1_555
C77 C82 1_555 1_555
C78 C79 1_555 1_555
C80 C81 1_555 1_555
O15 Zn13 1_555 1_555
O18 Zn9 1_555 1_555
C91 C98 1_555 1_555
N8 C101 1_555 1_555
C96 C97 1_555 1_555
C97 C102 1_555 1_555
C98 C99 1_555 1_555
C100 C101 1_555 1_555
O19_2 Zn4_3 1_555 1_555
O22_2 Zn4_3 1_555 1_555
N9_3 Zn4_3 1_555 1_555
Zn2_2 O1_2 1_555 1_555
O1_2 C3_2 1_555 1_555
O2_2 C2_2 1_555 1_555
O3_2 C2_2 1_555 1_555
C1_2 C2_2 1_555 1_555
C3_2 O28 1_555 1_555
C4_2 C3_2 1_555 1_555
C5_2 C4_2 1_555 1_555
H1_2 C5_2 1_555 1_555
C6_2 H2_2 1_555 1_555
C7_2 C1_2 1_555 1_555
H3_2 C7_2 1_555 1_555
C8_2 C5_2 1_555 1_555
H4_2 C8_2 1_555 1_555
C9_2 N2_2 1_555 1_555
C10_2 C6_2 1_555 1_555
C11_2 C4_2 1_555 1_555
H5_2 C11_2 1_555 1_555
N2_2 H6_2 1_555 1_555
C12_2 C1_2 1_555 1_555
H7_2 C12_2 1_555 1_555
C13_2 C7_2 1_555 1_555
H8_2 C13_2 1_555 1_555
C14_2 C10_2 1_555 1_555
H9_2 C14_2 1_555 1_555
C15_2 C14_2 1_555 1_555
C16_2 C13_2 1_555 1_555
C17_2 C8_2 1_555 1_555
C18_2 C11_2 1_555 1_555
H10_2 C18_2 1_555 1_555
C19_2 C15_2 1_555 1_555
H11_2 C19_2 1_555 1_555
C20_2 C6_2 1_555 1_555
C21_2 C12_2 1_555 1_555
H12_2 C21_2 1_555 1_555
O5_2 C9_2 1_555 1_555
N3_2 Zn2_2 1_555 1_555
C25_2 C26_2 1_555 1_555
C26_2 H15_2 1_555 1_555
C27_2 N3_2 1_555 1_555
H16_2 C27_2 1_555 1_555
O6_2 C37_2 1_555 1_555
O7_2 C36_2 1_555 1_555
O8_2 C36_2 1_555 1_555
O9_2 C37_2 1_555 1_555
C35_2 C36_2 1_555 1_555
C37_2 C38_2 1_555 1_555
C38_2 C39_2 1_555 1_555
C39_2 H23_2 1_555 1_555
C40_2 H24_2 1_555 1_555
C41_2 C35_2 1_555 1_555
H25_2 C41_2 1_555 1_555
C42_2 C39_2 1_555 1_555
H26_2 C42_2 1_555 1_555
C43_2 C40_2 1_555 1_555
C44_2 C38_2 1_555 1_555
H27_2 C44_2 1_555 1_555
N5_2 C9_2 1_555 1_555
H28_2 N5_2 1_555 1_555
C45_2 C35_2 1_555 1_555
H29_2 C45_2 1_555 1_555
C46_2 C41_2 1_555 1_555
H30_2 C46_2 1_555 1_555
C47_2 C43_2 1_555 1_555
H31_2 C47_2 1_555 1_555
C48_2 C47_2 1_555 1_555
C49_2 C46_2 1_555 1_555
C50_2 C42_2 1_555 1_555
C51_2 C44_2 1_555 1_555
H32_2 C51_2 1_555 1_555
C52_2 C48_2 1_555 1_555
H33_2 C52_2 1_555 1_555
C53_2 C40_2 1_555 1_555
C54_2 C45_2 1_555 1_555
H34_2 C54_2 1_555 1_555
N6_2 C57_2 1_555 1_555
C55_2 C25_2 1_555 1_555
C56_2 C55_2 1_555 1_555
H35_2 C56_2 1_555 1_555
C57_2 C56_2 1_555 1_555
H36_2 C57_2 1_555 1_555
C58_2 C25_2 1_555 1_555
H37_2 C58_2 1_555 1_555
C59_2 N3_2 1_555 1_555
H38_2 C59_2 1_555 1_555
C60_2 C55_2 1_555 1_555
H39_2 C60_2 1_555 1_555
C61_2 N6_2 1_555 1_555
H40_2 C61_2 1_555 1_555
O10_2 Zn2_2 1_555 1_555
O22_2 C63_2 1_555 1_555
O12_2 C63_2 1_555 1_555
C62_2 C63_2 1_555 1_555
C64_2 O10_2 1_555 1_555
C65_2 C64_2 1_555 1_555
C66_2 C65_2 1_555 1_555
H41_2 C66_2 1_555 1_555
C67_2 H42_2 1_555 1_555
C68_2 C62_2 1_555 1_555
H43_2 C68_2 1_555 1_555
C69_2 C66_2 1_555 1_555
H44_2 C69_2 1_555 1_555
C70_2 N7_2 1_555 1_555
C71_2 C67_2 1_555 1_555
C72_2 C65_2 1_555 1_555
H45_2 C72_2 1_555 1_555
N7_2 H46_2 1_555 1_555
C73_2 C62_2 1_555 1_555
H47_2 C73_2 1_555 1_555
C74_2 C68_2 1_555 1_555
H48_2 C74_2 1_555 1_555
C75_2 C71_2 1_555 1_555
H49_2 C75_2 1_555 1_555
C76_2 C75_2 1_555 1_555
C77_2 C74_2 1_555 1_555
C78_2 C69_2 1_555 1_555
C79_2 C72_2 1_555 1_555
H50_2 C79_2 1_555 1_555
C80_2 C76_2 1_555 1_555
H51_2 C80_2 1_555 1_555
C81_2 C67_2 1_555 1_555
C82_2 C73_2 1_555 1_555
H52_2 C82_2 1_555 1_555
O14_2 C70_2 1_555 1_555
O15_2 C85_2 1_555 1_555
O16_2 C84_2 1_555 1_555
O17_2 C84_2 1_555 1_555
O18_2 C85_2 1_555 1_555
C83_2 C84_2 1_555 1_555
C85_2 C86_2 1_555 1_555
C86_2 C87_2 1_555 1_555
C87_2 H53_2 1_555 1_555
C88_2 H54_2 1_555 1_555
C89_2 C83_2 1_555 1_555
H55_2 C89_2 1_555 1_555
C90_2 C87_2 1_555 1_555
H56_2 C90_2 1_555 1_555
C91_2 C88_2 1_555 1_555
C92_2 C86_2 1_555 1_555
H57_2 C92_2 1_555 1_555
N8_2 C70_2 1_555 1_555
H58_2 N8_2 1_555 1_555
C93_2 C83_2 1_555 1_555
H59_2 C93_2 1_555 1_555
C94_2 C89_2 1_555 1_555
H60_2 C94_2 1_555 1_555
C95_2 C91_2 1_555 1_555
H61_2 C95_2 1_555 1_555
C96_2 C95_2 1_555 1_555
C97_2 C94_2 1_555 1_555
C98_2 C90_2 1_555 1_555
C99_2 C92_2 1_555 1_555
H62_2 C99_2 1_555 1_555
C100_2 C96_2 1_555 1_555
H63_2 C100_2 1_555 1_555
C101_2 C88_2 1_555 1_555
C102_2 C93_2 1_555 1_555
H64_2 C102_2 1_555 1_555
Zn4_4 O2_2 1_555 1_555
Zn6_3 O12_2 1_555 1_555
Zn6_4 O3_2 1_555 1_555
Zn8_3 O17_2 1_555 1_555
Zn8_4 O8_2 1_555 1_555
Zn9_2 O9_2 1_555 1_555
Zn12_3 O16_2 1_555 1_555
Zn12_4 O7_2 1_555 1_555
Zn14 O6_2 1_555 1_555
Zn13 N6_2 1_555 1_555
O20_2 Zn4_4 1_555 1_555
O21_2 Zn2_2 1_555 1_555
O23_2 Zn2_2 1_555 1_555
N9_4 Zn4_4 1_555 1_555
C10_2 C17_2 1_555 1_555
N2_2 C20_2 1_555 1_555
C15_2 C16_2 1_555 1_555
C16_2 C21_2 1_555 1_555
C17_2 C18_2 1_555 1_555
C19_2 C20_2 1_555 1_555
C26_2 C27_2 1_555 1_555
C43_2 C50_2 1_555 1_555
N5_2 C53_2 1_555 1_555
C48_2 C49_2 1_555 1_555
C49_2 C54_2 1_555 1_555
C50_2 C51_2 1_555 1_555
C52_2 C53_2 1_555 1_555
C58_2 C59_2 1_555 1_555
C60_2 C61_2 1_555 1_555
O29 C64_2 1_555 1_555
C71_2 C78_2 1_555 1_555
N7_2 C81_2 1_555 1_555
C76_2 C77_2 1_555 1_555
C77_2 C82_2 1_555 1_555
C78_2 C79_2 1_555 1_555
C80_2 C81_2 1_555 1_555
O15_2 Zn14 1_555 1_555
O18_2 Zn9_2 1_555 1_555
C91_2 C98_2 1_555 1_555
N8_2 C101_2 1_555 1_555
C96_2 C97_2 1_555 1_555
C97_2 C102_2 1_555 1_555
C98_2 C99_2 1_555 1_555
C100_2 C101_2 1_555 1_555
Zn6_3 N1_2 1_555 1_555
N1_2 C24_2 1_555 1_555
O19_2 C3_3 1_555 1_555
O4_2 Zn6_3 1_555 1_555
C3_3 O4_2 1_555 1_555
C22_2 C23_2 1_555 1_555
C23_2 H13_2 1_555 1_555
C24_2 C23_2 1_555 1_555
H14_2 C24_2 1_555 1_555
N6_3 C57_3 1_555 1_555
C55_3 C25_3 1_555 1_555
C56_3 C55_3 1_555 1_555
H35_3 C56_3 1_555 1_555
C57_3 C56_3 1_555 1_555
H36_3 C57_3 1_555 1_555
C58_3 C25_3 1_555 1_555
H37_3 C58_3 1_555 1_555
C59_3 N9_3 1_555 1_555
H38_3 C59_3 1_555 1_555
Zn12_3 N6_3 1_555 1_555
C58_3 C59_3 1_555 1_555
Zn6_4 N1_3 1_555 1_555
C25_4 C26_3 1_555 1_555
C26_3 H15_3 1_555 1_555
C27_3 N9_4 1_555 1_555
H16_3 C27_3 1_555 1_555
C33_2 C22_3 1_555 1_555
H21_2 C33_2 1_555 1_555
C34_2 N1_3 1_555 1_555
H22_2 C34_2 1_555 1_555
C55_4 C25_4 1_555 1_555
C60_3 C55_4 1_555 1_555
H39_3 C60_3 1_555 1_555
C61_3 N6_4 1_555 1_555
H40_3 C61_3 1_555 1_555
O13_2 Zn6_4 1_555 1_555
C64_3 O20_2 1_555 1_555
Zn12_4 N6_4 1_555 1_555
C26_3 C27_3 1_555 1_555
C33_2 C34_2 1_555 1_555
C60_3 C61_3 1_555 1_555
O13_2 C64_3 1_555 1_555
O21 C2_3 1_555 1_555
O24 C2_3 1_555 1_555
C1_3 C2_3 1_555 1_555
C5_3 C4_3 1_555 1_555
C6_3 H2_3 1_555 1_555
C7_3 C1_3 1_555 1_555
H3_3 C7_3 1_555 1_555
C8_3 C5_3 1_555 1_555
H4_3 C8_3 1_555 1_555
C9_3 N2_3 1_555 1_555
C10_3 C6_3 1_555 1_555
C11_3 C4_3 1_555 1_555
H5_3 C11_3 1_555 1_555
N2_3 H6_3 1_555 1_555
C12_3 C1_3 1_555 1_555
H7_3 C12_3 1_555 1_555
C13_3 C7_3 1_555 1_555
H8_3 C13_3 1_555 1_555
C14_3 C10_3 1_555 1_555
H9_3 C14_3 1_555 1_555
C15_3 C14_3 1_555 1_555
C16_3 C13_3 1_555 1_555
C17_3 C8_3 1_555 1_555
C18_3 C11_3 1_555 1_555
H10_3 C18_3 1_555 1_555
C19_3 C15_3 1_555 1_555
H11_3 C19_3 1_555 1_555
C20_3 C6_3 1_555 1_555
C21_3 C12_3 1_555 1_555
H12_3 C21_3 1_555 1_555
O5_3 C9_3 1_555 1_555
N4_2 C30_2 1_555 1_555
C29_2 C28_2 1_555 1_555
H17_2 C29_2 1_555 1_555
C30_2 C29_2 1_555 1_555
H18_2 C30_2 1_555 1_555
O7_3 C36_3 1_555 1_555
O8_3 C36_3 1_555 1_555
C35_3 C36_3 1_555 1_555
C38_3 C39_3 1_555 1_555
C40_3 H24_3 1_555 1_555
C41_3 C35_3 1_555 1_555
H25_3 C41_3 1_555 1_555
C42_3 C39_3 1_555 1_555
H26_3 C42_3 1_555 1_555
C43_3 C40_3 1_555 1_555
C44_3 C38_3 1_555 1_555
H27_3 C44_3 1_555 1_555
N5_3 C9_3 1_555 1_555
H28_3 N5_3 1_555 1_555
C45_3 C35_3 1_555 1_555
H29_3 C45_3 1_555 1_555
C46_3 C41_3 1_555 1_555
H30_3 C46_3 1_555 1_555
C47_3 C43_3 1_555 1_555
H31_3 C47_3 1_555 1_555
C48_3 C47_3 1_555 1_555
C49_3 C46_3 1_555 1_555
C50_3 C42_3 1_555 1_555
C51_3 C44_3 1_555 1_555
H32_3 C51_3 1_555 1_555
C52_3 C48_3 1_555 1_555
H33_3 C52_3 1_555 1_555
C53_3 C40_3 1_555 1_555
C54_3 C45_3 1_555 1_555
H34_3 C54_3 1_555 1_555
Zn6 N4_2 1_555 1_555
Zn9_2 O8_3 1_555 1_555
Zn14 O7_3 1_555 1_555
O28_2 Zn6 1_555 1_555
C10_3 C17_3 1_555 1_555
N2_3 C20_3 1_555 1_555
C15_3 C16_3 1_555 1_555
C16_3 C21_3 1_555 1_555
C17_3 C18_3 1_555 1_555
C19_3 C20_3 1_555 1_555
C43_3 C50_3 1_555 1_555
N5_3 C53_3 1_555 1_555
C48_3 C49_3 1_555 1_555
C49_3 C54_3 1_555 1_555
C50_3 C51_3 1_555 1_555
C52_3 C53_3 1_555 1_555
C31_2 C28_3 1_555 1_555
H19_2 C31_2 1_555 1_555
C32_2 N4_3 1_555 1_555
H20_2 C32_2 1_555 1_555
Zn6_2 N4_3 1_555 1_555
O23 C63_3 1_555 1_555
O27 C63_3 1_555 1_555
C62_3 C63_3 1_555 1_555
C66_3 C65_3 1_555 1_555
C67_3 H42_3 1_555 1_555
C68_3 C62_3 1_555 1_555
H43_3 C68_3 1_555 1_555
C69_3 C66_3 1_555 1_555
H44_3 C69_3 1_555 1_555
C70_3 N7_3 1_555 1_555
C71_3 C67_3 1_555 1_555
C72_3 C65_3 1_555 1_555
H45_3 C72_3 1_555 1_555
N7_3 H46_3 1_555 1_555
C73_3 C62_3 1_555 1_555
H47_3 C73_3 1_555 1_555
C74_3 C68_3 1_555 1_555
H48_3 C74_3 1_555 1_555
C75_3 C71_3 1_555 1_555
H49_3 C75_3 1_555 1_555
C76_3 C75_3 1_555 1_555
C77_3 C74_3 1_555 1_555
C78_3 C69_3 1_555 1_555
C79_3 C72_3 1_555 1_555
H50_3 C79_3 1_555 1_555
C80_3 C76_3 1_555 1_555
H51_3 C80_3 1_555 1_555
C81_3 C67_3 1_555 1_555
C82_3 C73_3 1_555 1_555
H52_3 C82_3 1_555 1_555
O14_3 C70_3 1_555 1_555
O16_3 C84_3 1_555 1_555
O17_3 C84_3 1_555 1_555
C83_3 C84_3 1_555 1_555
C86_3 C87_3 1_555 1_555
C88_3 H54_3 1_555 1_555
C89_3 C83_3 1_555 1_555
H55_3 C89_3 1_555 1_555
C90_3 C87_3 1_555 1_555
H56_3 C90_3 1_555 1_555
C91_3 C88_3 1_555 1_555
C92_3 C86_3 1_555 1_555
H57_3 C92_3 1_555 1_555
N8_3 C70_3 1_555 1_555
H58_3 N8_3 1_555 1_555
C93_3 C83_3 1_555 1_555
H59_3 C93_3 1_555 1_555
C94_3 C89_3 1_555 1_555
H60_3 C94_3 1_555 1_555
C95_3 C91_3 1_555 1_555
H61_3 C95_3 1_555 1_555
C96_3 C95_3 1_555 1_555
C97_3 C94_3 1_555 1_555
C98_3 C90_3 1_555 1_555
C99_3 C92_3 1_555 1_555
H62_3 C99_3 1_555 1_555
C100_3 C96_3 1_555 1_555
H63_3 C100_3 1_555 1_555
C101_3 C88_3 1_555 1_555
C102_3 C93_3 1_555 1_555
H64_3 C102_3 1_555 1_555
Zn9_2 O17_3 1_555 1_555
Zn14 O16_3 1_555 1_555
O29_2 Zn6_2 1_555 1_555
C31_2 C32_2 1_555 1_555
C71_3 C78_3 1_555 1_555
N7_3 C81_3 1_555 1_555
C76_3 C77_3 1_555 1_555
C77_3 C82_3 1_555 1_555
C78_3 C79_3 1_555 1_555
C80_3 C81_3 1_555 1_555
C91_3 C98_3 1_555 1_555
N8_3 C101_3 1_555 1_555
C96_3 C97_3 1_555 1_555
C97_3 C102_3 1_555 1_555
C98_3 C99_3 1_555 1_555
C100_3 C101_3 1_555 1_555
O6_3 C37_3 1_555 1_555
O9_3 C37_3 1_555 1_555
Zn8 O9_3 1_555 1_555
Zn12 O6_3 1_555 1_555
O15_3 C85_3 1_555 1_555
O18_3 C85_3 1_555 1_555
O15_3 Zn12_2 1_555 1_555
O18_3 Zn8_2 1_555 1_555
O6_4 C37_4 1_555 1_555
O9_4 C37_4 1_555 1_555
Zn8_3 O9_4 1_555 1_555
Zn12_3 O6_4 1_555 1_555
O15_4 C85_4 1_555 1_555
O18_4 C85_4 1_555 1_555
O15_4 Zn12_4 1_555 1_555
O18_4 Zn8_4 1_555 1_555
O21_2 C2_4 1_555 1_555
O25 C2_4 1_555 1_555
C1_4 C2_4 1_555 1_555
C5_4 C4_4 1_555 1_555
C6_4 H2_4 1_555 1_555
C7_4 C1_4 1_555 1_555
H3_4 C7_4 1_555 1_555
C8_4 C5_4 1_555 1_555
H4_4 C8_4 1_555 1_555
C9_4 N2_4 1_555 1_555
C10_4 C6_4 1_555 1_555
C11_4 C4_4 1_555 1_555
H5_4 C11_4 1_555 1_555
N2_4 H6_4 1_555 1_555
C12_4 C1_4 1_555 1_555
H7_4 C12_4 1_555 1_555
C13_4 C7_4 1_555 1_555
H8_4 C13_4 1_555 1_555
C14_4 C10_4 1_555 1_555
H9_4 C14_4 1_555 1_555
C15_4 C14_4 1_555 1_555
C16_4 C13_4 1_555 1_555
C17_4 C8_4 1_555 1_555
C18_4 C11_4 1_555 1_555
H10_4 C18_4 1_555 1_555
C19_4 C15_4 1_555 1_555
H11_4 C19_4 1_555 1_555
C20_4 C6_4 1_555 1_555
C21_4 C12_4 1_555 1_555
H12_4 C21_4 1_555 1_555
O5_4 C9_4 1_555 1_555
O7_4 C36_4 1_555 1_555
O8_4 C36_4 1_555 1_555
C35_4 C36_4 1_555 1_555
C38_4 C39_4 1_555 1_555
C40_4 H24_4 1_555 1_555
C41_4 C35_4 1_555 1_555
H25_4 C41_4 1_555 1_555
C42_4 C39_4 1_555 1_555
H26_4 C42_4 1_555 1_555
C43_4 C40_4 1_555 1_555
C44_4 C38_4 1_555 1_555
H27_4 C44_4 1_555 1_555
N5_4 C9_4 1_555 1_555
H28_4 N5_4 1_555 1_555
C45_4 C35_4 1_555 1_555
H29_4 C45_4 1_555 1_555
C46_4 C41_4 1_555 1_555
H30_4 C46_4 1_555 1_555
C47_4 C43_4 1_555 1_555
H31_4 C47_4 1_555 1_555
C48_4 C47_4 1_555 1_555
C49_4 C46_4 1_555 1_555
C50_4 C42_4 1_555 1_555
C51_4 C44_4 1_555 1_555
H32_4 C51_4 1_555 1_555
C52_4 C48_4 1_555 1_555
H33_4 C52_4 1_555 1_555
C53_4 C40_4 1_555 1_555
C54_4 C45_4 1_555 1_555
H34_4 C54_4 1_555 1_555
Zn9 O8_4 1_555 1_555
Zn13 O7_4 1_555 1_555
C10_4 C17_4 1_555 1_555
N2_4 C20_4 1_555 1_555
C15_4 C16_4 1_555 1_555
C16_4 C21_4 1_555 1_555
C17_4 C18_4 1_555 1_555
C19_4 C20_4 1_555 1_555
C43_4 C50_4 1_555 1_555
N5_4 C53_4 1_555 1_555
C48_4 C49_4 1_555 1_555
C49_4 C54_4 1_555 1_555
C50_4 C51_4 1_555 1_555
C52_4 C53_4 1_555 1_555
O23_2 C63_4 1_555 1_555
O26 C63_4 1_555 1_555
C62_4 C63_4 1_555 1_555
C66_4 C65_4 1_555 1_555
C67_4 H42_4 1_555 1_555
C68_4 C62_4 1_555 1_555
H43_4 C68_4 1_555 1_555
C69_4 C66_4 1_555 1_555
H44_4 C69_4 1_555 1_555
C70_4 N7_4 1_555 1_555
C71_4 C67_4 1_555 1_555
C72_4 C65_4 1_555 1_555
H45_4 C72_4 1_555 1_555
N7_4 H46_4 1_555 1_555
C73_4 C62_4 1_555 1_555
H47_4 C73_4 1_555 1_555
C74_4 C68_4 1_555 1_555
H48_4 C74_4 1_555 1_555
C75_4 C71_4 1_555 1_555
H49_4 C75_4 1_555 1_555
C76_4 C75_4 1_555 1_555
C77_4 C74_4 1_555 1_555
C78_4 C69_4 1_555 1_555
C79_4 C72_4 1_555 1_555
H50_4 C79_4 1_555 1_555
C80_4 C76_4 1_555 1_555
H51_4 C80_4 1_555 1_555
C81_4 C67_4 1_555 1_555
C82_4 C73_4 1_555 1_555
H52_4 C82_4 1_555 1_555
O14_4 C70_4 1_555 1_555
O16_4 C84_4 1_555 1_555
O17_4 C84_4 1_555 1_555
C83_4 C84_4 1_555 1_555
C86_4 C87_4 1_555 1_555
C88_4 H54_4 1_555 1_555
C89_4 C83_4 1_555 1_555
H55_4 C89_4 1_555 1_555
C90_4 C87_4 1_555 1_555
H56_4 C90_4 1_555 1_555
C91_4 C88_4 1_555 1_555
C92_4 C86_4 1_555 1_555
H57_4 C92_4 1_555 1_555
N8_4 C70_4 1_555 1_555
H58_4 N8_4 1_555 1_555
C93_4 C83_4 1_555 1_555
H59_4 C93_4 1_555 1_555
C94_4 C89_4 1_555 1_555
H60_4 C94_4 1_555 1_555
C95_4 C91_4 1_555 1_555
H61_4 C95_4 1_555 1_555
C96_4 C95_4 1_555 1_555
C97_4 C94_4 1_555 1_555
C98_4 C90_4 1_555 1_555
C99_4 C92_4 1_555 1_555
H62_4 C99_4 1_555 1_555
C100_4 C96_4 1_555 1_555
H63_4 C100_4 1_555 1_555
C101_4 C88_4 1_555 1_555
C102_4 C93_4 1_555 1_555
H64_4 C102_4 1_555 1_555
Zn9 O17_4 1_555 1_555
Zn13 O16_4 1_555 1_555
C71_4 C78_4 1_555 1_555
N7_4 C81_4 1_555 1_555
C76_4 C77_4 1_555 1_555
C77_4 C82_4 1_555 1_555
C78_4 C79_4 1_555 1_555
C80_4 C81_4 1_555 1_555
C91_4 C98_4 1_555 1_555
N8_4 C101_4 1_555 1_555
C96_4 C97_4 1_555 1_555
C97_4 C102_4 1_555 1_555
C98_4 C99_4 1_555 1_555
C100_4 C101_4 1_555 1_555
O19 C3_4 1_555 1_555
C3_4 O28_2 1_555 1_555
N6_5 C57_4 1_555 1_555
C55_5 C25_5 1_555 1_555
C56_4 C55_5 1_555 1_555
H35_4 C56_4 1_555 1_555
C57_4 C56_4 1_555 1_555
H36_4 C57_4 1_555 1_555
C58_4 C25_5 1_555 1_555
H37_4 C58_4 1_555 1_555
C59_4 N9 1_555 1_555
H38_4 C59_4 1_555 1_555
Zn12 N6_5 1_555 1_555
C58_4 C59_4 1_555 1_555
C25_6 C26_4 1_555 1_555
C26_4 H15_4 1_555 1_555
C27_4 N9_2 1_555 1_555
H16_4 C27_4 1_555 1_555
C55_6 C25_6 1_555 1_555
C60_4 C55_6 1_555 1_555
H39_4 C60_4 1_555 1_555
C61_4 N6_6 1_555 1_555
H40_4 C61_4 1_555 1_555
C64_4 O20 1_555 1_555
Zn12_2 N6_6 1_555 1_555
C26_4 C27_4 1_555 1_555
C60_4 C61_4 1_555 1_555
O29_2 C64_4 1_555 1_555
C31_3 C28_4 1_555 1_555
H19_3 C31_3 1_555 1_555
C32_3 N4_4 1_555 1_555
H20_3 C32_3 1_555 1_555
Zn8_3 N4_4 1_555 1_555
C31_3 C32_3 1_555 1_555
N4_5 C30_3 1_555 1_555
C29_3 C28_5 1_555 1_555
H17_3 C29_3 1_555 1_555
C30_3 C29_3 1_555 1_555
H18_3 C30_3 1_555 1_555
Zn8_4 N4_5 1_555 1_555
Zn8 N1_4 1_555 1_555
C33_3 C22_4 1_555 1_555
H21_3 C33_3 1_555 1_555
C34_3 N1_4 1_555 1_555
H22_3 C34_3 1_555 1_555
C33_3 C34_3 1_555 1_555
Zn8_2 N1_5 1_555 1_555
N1_5 C24_3 1_555 1_555
C22_5 C23_3 1_555 1_555
C23_3 H13_3 1_555 1_555
C24_3 C23_3 1_555 1_555
H14_3 C24_3 1_555 1_555
N4_6 C30_4 1_555 1_555
C29_4 C28_6 1_555 1_555
H17_4 C29_4 1_555 1_555
C30_4 C29_4 1_555 1_555
H18_4 C30_4 1_555 1_555
C31_4 C28_6 1_555 1_555
H19_4 C31_4 1_555 1_555
C32_4 N4_6 1_555 1_555
H20_4 C32_4 1_555 1_555
Zn9_2 N4_6 1_555 1_555
C31_4 C32_4 1_555 1_555
Zn9 N1_6 1_555 1_555
N1_6 C24_4 1_555 1_555
C22_6 C23_4 1_555 1_555
C23_4 H13_4 1_555 1_555
C24_4 C23_4 1_555 1_555
H14_4 C24_4 1_555 1_555
C33_4 C22_6 1_555 1_555
H21_4 C33_4 1_555 1_555
C34_4 N1_6 1_555 1_555
H22_4 C34_4 1_555 1_555
C33_4 C34_4 1_555 1_555

#END
