
###############################################################################
#
# This file contains modified crystal structure data generated from the
# MOF subset of the Cambridge Structural Database (CSD) v543 
# hosted by the Cambridge Crystallographic Data Centre (CCDC).
#
# This work is licensed under the Creative Commons
# Attribution-NonCommercial-ShareAlike 4.0 International License.
# To view a copy of this license, visit
# http://creativecommons.org/licenses/by-nc-sa/4.0/
# or send a letter to
# Creative Commons, PO Box 1866, Mountain View, CA 94042, USA.
#
# CIF created using the CSD Python API on 29 September 2022
# The structure has been converted into the P1 space group
# The structure has a 3D framework
# The original CSD entry OPEGUM is in the tetragonal crystal system
# The framework has been calculated to contain at least 10.0% void space
# The void calculation uses a probe of radius 1.32A, grid spacing 0.4
# The framework is charged, counterions have been retained in the structure
#
###############################################################################

data_OPEGUM
_chemical_formula_moiety         '(C72 In12 O124 8-)n'
_symmetry_cell_setting           triclinic
_symmetry_space_group_name_H-M   'P 1'
_symmetry_Int_Tables_number      1
_space_group_name_Hall           'P 1'
loop_
_symmetry_equiv_pos_site_id
_symmetry_equiv_pos_as_xyz
1 x,y,z
_cell_length_a                   21.750(3)
_cell_length_b                   21.750(3)
_cell_length_c                   12.335(3)
_cell_angle_alpha                90
_cell_angle_beta                 90
_cell_angle_gamma                90
_cell_volume                     5835.23
loop_
_atom_site_label
_atom_site_type_symbol
_atom_site_fract_x
_atom_site_fract_y
_atom_site_fract_z
In1 In 0.36416(4) 0.38584(4) 0.1250
O1 O 0.3261(4) 0.3971(4) 0.2920(7)
O2 O 0.2391(4) 0.3935(4) 0.3893(7)
O3 O 0.3324(4) 0.3010(4) 0.0289(8)
O4 O 0.3925(4) 0.3019(5) 0.2171(8)
C1 C 0.2687(5) 0.3955(5) 0.3004(11)
C2 C 0.3462(8) 0.2500 0.0684(15)
C3 C 0.3801(9) 0.2500 0.1764(16)
In2 In 0.13584(4) 0.38584(4) 0.3750
In3 In 0.36416(4) 0.11416(4) 0.1250
O5 O 0.1739(4) 0.3971(4) 0.2080(7)
O7 O 0.2609(4) 0.3935(4) 0.1107(7)
O8 O 0.3565(4) 0.4891(4) 0.1393(7)
O9 O 0.3324(4) 0.1990(4) 0.0289(8)
O10 O 0.4490(4) 0.4176(4) 0.2211(8)
O11 O 0.3925(4) 0.1981(5) 0.2171(8)
O12 O 0.4481(5) 0.3575(4) 0.0329(8)
C4 C 0.2313(5) 0.3955(5) 0.1996(11)
O6 O 0.3529(4) 0.4239(4) 0.9580(7)
In1_2 In 0.13584(4) 0.61416(4) 0.6250
O1_2 O 0.1739(4) 0.6029(4) 0.7920(7)
O2_2 O 0.2609(4) 0.6065(4) 0.8893(7)
O3_2 O 0.1676(4) 0.6990(4) 0.5289(8)
O4_2 O 0.1075(4) 0.6981(5) 0.7171(8)
C1_2 C 0.2313(5) 0.6045(5) 0.8004(11)
C2_2 C 0.1538(8) 0.7500 0.5684(15)
C3_2 C 0.1199(9) 0.7500 0.6764(16)
In2_2 In 0.36416(4) 0.61416(4) 0.8750
In3_2 In 0.13584(4) 0.88584(4) 0.6250
O5_2 O 0.3261(4) 0.6029(4) 0.7080(7)
O6_2 O 0.1471(4) 0.5761(4) 0.4580(7)
O7_2 O 0.2391(4) 0.6065(4) 0.6107(7)
O8_2 O 0.1435(4) 0.5109(4) 0.6393(7)
O9_2 O 0.1676(4) 0.8010(4) 0.5289(8)
O10_2 O 0.0510(4) 0.5824(4) 0.7211(8)
O11_2 O 0.1075(4) 0.8019(5) 0.7171(8)
O12_2 O 0.0519(5) 0.6425(4) 0.5329(8)
C4_2 C 0.2687(5) 0.6045(5) 0.6996(11)
C2_3 C -0.0000 0.0962(8) 0.3184(15)
C3_3 C 0.0000 0.1301(9) 0.4264(16)
In3_3 In 0.13584(4) 0.11416(4) 0.3750
O9_3 O 0.0510(4) 0.0824(4) 0.2789(8)
O11_3 O 0.0519(5) 0.1425(4) 0.4671(8)
In1_3 In 0.86416(4) 0.11416(4) 0.3750
O1_3 O 0.8529(4) 0.0761(4) 0.5420(7)
O3_3 O 0.9490(4) 0.0824(4) 0.2789(8)
O4_3 O 0.9481(5) 0.1425(4) 0.4671(8)
C1_3 C 0.8545(5) 0.0187(5) 0.5504(11)
C2_4 C 1.0000 0.0962(8) 0.3184(15)
C3_4 C 1.0000 0.1301(9) 0.4264(16)
O6_3 O 0.8261(4) 0.1029(4) 0.2080(7)
O7_3 O 0.8565(4) 0.0109(4) 0.3607(7)
O8_3 O 0.7609(4) 0.1065(4) 0.3893(7)
O10_3 O 0.8324(4) 0.1990(4) 0.4711(8)
O12_3 O 0.8925(4) 0.1981(5) 0.2829(8)
O2_3 O 0.8565(4) 0.9891(4) 0.6393(7)
In2_3 In 0.86416(4) 0.88584(4) 0.6250
O5_3 O 0.8529(4) 0.9239(4) 0.4580(7)
C4_3 C 0.8545(5) 0.9813(5) 0.4496(11)
O2_4 O 0.6435(4) 0.0109(4) 0.1393(7)
In2_4 In 0.63584(4) 0.11416(4) 0.1250
In1_4 In 0.63584(4) 0.88584(4) 0.8750
O3_4 O 0.5510(4) 0.9176(4) 0.7789(8)
O4_4 O 0.5519(5) 0.8575(4) 0.9671(8)
C2_5 C 0.5000 0.9038(8) 0.8184(15)
C3_5 C 0.5000 0.8699(9) 0.9264(16)
In3_4 In 0.36416(4) 0.88584(4) 0.8750
O6_4 O 0.6739(4) 0.8971(4) 0.7080(7)
O7_4 O 0.6435(4) 0.9891(4) 0.8607(7)
O8_4 O 0.7391(4) 0.8935(4) 0.8893(7)
O9_4 O 0.4490(4) 0.9176(4) 0.7789(8)
O10_4 O 0.6676(4) 0.8010(4) 0.9711(8)
O11_4 O 0.4481(5) 0.8575(4) 0.9671(8)
O12_4 O 0.6075(4) 0.8019(5) 0.7829(8)
O3_5 O 0.1676(4) 0.3010(4) 0.4711(8)
O4_5 O 0.1075(4) 0.3019(5) 0.2829(8)
C2_6 C 0.1538(8) 0.2500 0.4316(15)
C3_6 C 0.1199(9) 0.2500 0.3236(16)
O6_5 O 0.1471(4) 0.4239(4) 0.5420(7)
O8_5 O 0.1435(4) 0.4891(4) 0.3607(7)
O9_5 O 0.1676(4) 0.1990(4) 0.4711(8)
O10_5 O 0.0510(4) 0.4176(4) 0.2789(8)
O11_5 O 0.1075(4) 0.1981(5) 0.2829(8)
O12_5 O 0.0519(5) 0.3575(4) 0.4671(8)
O6_6 O 0.3529(4) 0.5761(4) 0.0420(7)
O3_6 O 0.3324(4) 0.6990(4) 0.9711(8)
O4_6 O 0.3925(4) 0.6981(5) 0.7829(8)
C2_7 C 0.3462(8) 0.7500 0.9316(15)
C3_7 C 0.3801(9) 0.7500 0.8236(16)
O8_6 O 0.3565(4) 0.5109(4) 0.8607(7)
O9_6 O 0.3324(4) 0.8010(4) 0.9711(8)
O10_6 O 0.4490(4) 0.5824(4) 0.7789(8)
O11_6 O 0.3925(4) 0.8019(5) 0.7829(8)
O12_6 O 0.4481(5) 0.6425(4) 0.9671(8)
O3_7 O 0.5510(4) 0.0824(4) 0.2211(8)
O4_7 O 0.5519(5) 0.1425(4) 0.0329(8)
C2_8 C 0.5000 0.0962(8) 0.1816(15)
C3_8 C 0.5000 0.1301(9) 0.0736(16)
O6_7 O 0.6739(4) 0.1029(4) 0.2920(7)
O8_7 O 0.7391(4) 0.1065(4) 0.1107(7)
O9_7 O 0.4490(4) 0.0824(4) 0.2211(8)
O10_7 O 0.6676(4) 0.1990(4) 0.0289(8)
O11_7 O 0.4481(5) 0.1425(4) 0.0329(8)
O12_7 O 0.6075(4) 0.1981(5) 0.2171(8)
C2_9 C -0.0000 0.9038(8) 0.6816(15)
C3_9 C 0.0000 0.8699(9) 0.5736(16)
O9_8 O 0.0510(4) 0.9176(4) 0.7211(8)
O11_8 O 0.0519(5) 0.8575(4) 0.5329(8)
O3_8 O 0.9490(4) 0.9176(4) 0.7211(8)
O4_8 O 0.9481(5) 0.8575(4) 0.5329(8)
C2_10 C 1.0000 0.9038(8) 0.6816(15)
C3_10 C 1.0000 0.8699(9) 0.5736(16)
O6_8 O 0.8261(4) 0.8971(4) 0.7920(7)
O8_8 O 0.7609(4) 0.8935(4) 0.6107(7)
O10_8 O 0.8324(4) 0.8010(4) 0.5289(8)
O12_8 O 0.8925(4) 0.8019(5) 0.7171(8)
C1_4 C 0.7687(5) 0.8955(5) 0.8004(11)
C2_11 C 0.8462(8) 0.7500 0.5684(15)
C3_11 C 0.8801(9) 0.7500 0.6764(16)
In3_5 In 0.86416(4) 0.61416(4) 0.6250
O9_9 O 0.8324(4) 0.6990(4) 0.5289(8)
O11_9 O 0.8925(4) 0.6981(5) 0.7171(8)
C4_4 C 0.7313(5) 0.8955(5) 0.6996(11)
C1_5 C 0.7313(5) 0.1045(5) 0.3004(11)
C2_12 C 0.6538(8) 0.2500 0.0684(15)
C3_12 C 0.6199(9) 0.2500 0.1764(16)
In3_6 In 0.63584(4) 0.38584(4) 0.1250
O9_10 O 0.6676(4) 0.3010(4) 0.0289(8)
O11_10 O 0.6075(4) 0.3019(5) 0.2171(8)
C4_5 C 0.7687(5) 0.1045(5) 0.1996(11)
C1_6 C 0.3545(5) 0.5187(5) 0.0504(11)
C2_13 C 0.5000 0.5962(8) 0.8184(15)
C3_13 C 0.5000 0.6301(9) 0.9264(16)
In3_7 In 0.63584(4) 0.61416(4) 0.8750
O9_11 O 0.5510(4) 0.5824(4) 0.7789(8)
O11_11 O 0.5519(5) 0.6425(4) 0.9671(8)
C4_6 C 0.3545(5) 0.4813(5) 0.9496(11)
C1_7 C 0.1455(5) 0.4813(5) 0.5504(11)
C2_14 C -0.0000 0.4038(8) 0.3184(15)
C3_14 C -0.0000 0.3699(9) 0.4264(16)
C4_7 C 0.1455(5) 0.5187(5) 0.4496(11)
C2_15 C 1.0000 0.4038(8) 0.3184(15)
C3_15 C 1.0000 0.3699(9) 0.4264(16)
In3_8 In 0.86416(4) 0.38584(4) 0.3750
O9_12 O 0.9490(4) 0.4176(4) 0.2789(8)
O11_12 O 0.9481(5) 0.3575(4) 0.4671(8)
C2_16 C 0.6538(8) 0.7500 0.9316(15)
C3_16 C 0.6199(9) 0.7500 0.8236(16)
O9_13 O 0.6676(4) 0.6990(4) 0.9711(8)
O11_13 O 0.6075(4) 0.6981(5) 0.7829(8)
C2_17 C 0.8462(8) 0.2500 0.4316(15)
C3_17 C 0.8801(9) 0.2500 0.3236(16)
O9_14 O 0.8324(4) 0.3010(4) 0.4711(8)
O11_14 O 0.8925(4) 0.3019(5) 0.2829(8)
C2_18 C 0.0000 0.5962(8) 0.6816(15)
C3_18 C 0.0000 0.6301(9) 0.5736(16)
C2_19 C 1.0000 0.5962(8) 0.6816(15)
C3_19 C 1.0000 0.6301(9) 0.5736(16)
O9_15 O 0.9490(4) 0.5824(4) 0.7211(8)
O11_15 O 0.9481(5) 0.6425(4) 0.5329(8)
C2_20 C 0.5000 0.4038(8) 0.1816(15)
C3_20 C 0.5000 0.3699(9) 0.0736(16)
O9_16 O 0.5510(4) 0.4176(4) 0.2211(8)
O11_16 O 0.5519(5) 0.3575(4) 0.0329(8)
O6_9 O 0.6471(4) 0.5761(4) 0.0420(7)
O1_4 O 0.6739(4) 0.6029(4) 0.7080(7)
O2_5 O 0.7609(4) 0.6065(4) 0.6107(7)
C1_8 C 0.7313(5) 0.6045(5) 0.6996(11)
O5_4 O 0.8261(4) 0.6029(4) 0.7920(7)
O7_5 O 0.7391(4) 0.6065(4) 0.8893(7)
O8_9 O 0.6435(4) 0.5109(4) 0.8607(7)
C4_8 C 0.7687(5) 0.6045(5) 0.8004(11)
O1_5 O 0.8261(4) 0.3971(4) 0.2080(7)
O2_6 O 0.7391(4) 0.3935(4) 0.1107(7)
C1_9 C 0.7687(5) 0.3955(5) 0.1996(11)
O5_5 O 0.6739(4) 0.3971(4) 0.2920(7)
O6_10 O 0.8529(4) 0.4239(4) 0.5420(7)
O7_6 O 0.7609(4) 0.3935(4) 0.3893(7)
O8_10 O 0.8565(4) 0.4891(4) 0.3607(7)
C4_9 C 0.7313(5) 0.3955(5) 0.3004(11)
O2_7 O 0.1435(4) 0.0109(4) 0.3607(7)
O5_6 O 0.1471(4) 0.0761(4) 0.5420(7)
C4_10 C 0.1455(5) 0.0187(5) 0.5504(11)
O1_6 O 0.1471(4) 0.9239(4) 0.4580(7)
C1_10 C 0.1455(5) 0.9813(5) 0.4496(11)
O6_11 O 0.1739(4) 0.8971(4) 0.7920(7)
O7_7 O 0.1435(4) 0.9891(4) 0.6393(7)
O8_11 O 0.2391(4) 0.8935(4) 0.6107(7)
O6_12 O 0.3261(4) 0.1029(4) 0.2920(7)
O7_8 O 0.3565(4) 0.0109(4) 0.1393(7)
O8_12 O 0.2609(4) 0.1065(4) 0.1107(7)
O2_8 O 0.3565(4) 0.9891(4) 0.8607(7)
O6_13 O 0.8529(4) 0.5761(4) 0.4580(7)
O8_13 O 0.8565(4) 0.5109(4) 0.6393(7)
O8_14 O 0.6435(4) 0.4891(4) 0.1393(7)
O6_14 O 0.6471(4) 0.4239(4) 0.9580(7)
O6_15 O 0.3261(4) 0.8971(4) 0.7080(7)
O8_15 O 0.2609(4) 0.8935(4) 0.8893(7)
O6_16 O 0.1739(4) 0.1029(4) 0.2080(7)
O8_16 O 0.2391(4) 0.1065(4) 0.3893(7)
C1_11 C 0.2313(5) 0.1045(5) 0.1996(11)
C4_11 C 0.2687(5) 0.1045(5) 0.3004(11)
C1_12 C 0.2687(5) 0.8955(5) 0.6996(11)
C4_12 C 0.2313(5) 0.8955(5) 0.8004(11)
C4_13 C 0.6455(5) 0.5187(5) 0.0504(11)
C1_13 C 0.6455(5) 0.4813(5) 0.9496(11)
C1_14 C 0.8545(5) 0.5187(5) 0.4496(11)
C4_14 C 0.8545(5) 0.4813(5) 0.5504(11)
O5_7 O 0.6471(4) 0.0761(4) 0.9580(7)
C4_15 C 0.6455(5) 0.0187(5) 0.9496(11)
O1_7 O 0.6471(4) 0.9239(4) 0.0420(7)
C1_15 C 0.6455(5) 0.9813(5) 0.0504(11)
O1_8 O 0.3529(4) 0.0761(4) 0.9580(7)
C1_16 C 0.3545(5) 0.0187(5) 0.9496(11)
O5_8 O 0.3529(4) 0.9239(4) 0.0420(7)
C4_16 C 0.3545(5) 0.9813(5) 0.0504(11)
loop_
_geom_bond_atom_site_label_1
_geom_bond_atom_site_label_2
_geom_bond_site_symmetry_1
_geom_bond_site_symmetry_2
In1 O1 1_555 1_555
O1 C1 1_555 1_555
O2 C1 1_555 1_555
O3 In1 1_555 1_555
O4 In1 1_555 1_555
C1 C4 1_555 1_555
C2 O3 1_555 1_555
C3 O4 1_555 1_555
In2 O2 1_555 1_555
In3 O9 1_555 1_555
O5 In2 1_555 1_555
O7 In1 1_555 1_555
O8 In1 1_555 1_555
O9 C2 1_555 1_555
O10 In1 1_555 1_555
O11 C3 1_555 1_555
O12 In1 1_555 1_555
C4 O5 1_555 1_555
C2 C3 1_555 1_555
In3 O11 1_555 1_555
O7 C4 1_555 1_555
In1_2 O1_2 1_555 1_555
O1_2 C1_2 1_555 1_555
O2_2 C1_2 1_555 1_555
O3_2 In1_2 1_555 1_555
O4_2 In1_2 1_555 1_555
C1_2 C4_2 1_555 1_555
C2_2 O3_2 1_555 1_555
C3_2 O4_2 1_555 1_555
In2_2 O2_2 1_555 1_555
In3_2 O9_2 1_555 1_555
O5_2 In2_2 1_555 1_555
O6_2 In1_2 1_555 1_555
O7_2 In1_2 1_555 1_555
O8_2 In1_2 1_555 1_555
O9_2 C2_2 1_555 1_555
O10_2 In1_2 1_555 1_555
O11_2 C3_2 1_555 1_555
O12_2 In1_2 1_555 1_555
C4_2 O5_2 1_555 1_555
C2_2 C3_2 1_555 1_555
In3_2 O11_2 1_555 1_555
O7_2 C4_2 1_555 1_555
In3_3 O9_3 1_555 1_555
O9_3 C2_3 1_555 1_555
O11_3 C3_3 1_555 1_555
C2_3 C3_3 1_555 1_555
In3_3 O11_3 1_555 1_555
In1_3 O1_3 1_555 1_555
O1_3 C1_3 1_555 1_555
O3_3 In1_3 1_555 1_555
O4_3 In1_3 1_555 1_555
C2_4 O3_3 1_555 1_555
C3_4 O4_3 1_555 1_555
O6_3 In1_3 1_555 1_555
O7_3 In1_3 1_555 1_555
O8_3 In1_3 1_555 1_555
O10_3 In1_3 1_555 1_555
O12_3 In1_3 1_555 1_555
C2_4 C3_4 1_555 1_555
In2_3 O2_3 1_555 1_555
O5_3 In2_3 1_555 1_555
C4_3 O5_3 1_555 1_555
In2_4 O2_4 1_555 1_555
O3_4 In1_4 1_555 1_555
O4_4 In1_4 1_555 1_555
C2_5 O3_4 1_555 1_555
C3_5 O4_4 1_555 1_555
In3_4 O9_4 1_555 1_555
O6_4 In1_4 1_555 1_555
O7_4 In1_4 1_555 1_555
O8_4 In1_4 1_555 1_555
O9_4 C2_5 1_555 1_555
O10_4 In1_4 1_555 1_555
O11_4 C3_5 1_555 1_555
O12_4 In1_4 1_555 1_555
C2_5 C3_5 1_555 1_555
In3_4 O11_4 1_555 1_555
O3_5 In2 1_555 1_555
O4_5 In2 1_555 1_555
C2_6 O3_5 1_555 1_555
C3_6 O4_5 1_555 1_555
In3_3 O9_5 1_555 1_555
O6_5 In2 1_555 1_555
O8_5 In2 1_555 1_555
O9_5 C2_6 1_555 1_555
O10_5 In2 1_555 1_555
O11_5 C3_6 1_555 1_555
O12_5 In2 1_555 1_555
C2_6 C3_6 1_555 1_555
In3_3 O11_5 1_555 1_555
O3_6 In2_2 1_555 1_555
O4_6 In2_2 1_555 1_555
C2_7 O3_6 1_555 1_555
C3_7 O4_6 1_555 1_555
In3_4 O9_6 1_555 1_555
O8_6 In2_2 1_555 1_555
O9_6 C2_7 1_555 1_555
O10_6 In2_2 1_555 1_555
O11_6 C3_7 1_555 1_555
O12_6 In2_2 1_555 1_555
C2_7 C3_7 1_555 1_555
In3_4 O11_6 1_555 1_555
O3_7 In2_4 1_555 1_555
O4_7 In2_4 1_555 1_555
C2_8 O3_7 1_555 1_555
C3_8 O4_7 1_555 1_555
In3 O9_7 1_555 1_555
O6_7 In2_4 1_555 1_555
O8_7 In2_4 1_555 1_555
O9_7 C2_8 1_555 1_555
O10_7 In2_4 1_555 1_555
O11_7 C3_8 1_555 1_555
O12_7 In2_4 1_555 1_555
C2_8 C3_8 1_555 1_555
In3 O11_7 1_555 1_555
In3_2 O9_8 1_555 1_555
O9_8 C2_9 1_555 1_555
O11_8 C3_9 1_555 1_555
C2_9 C3_9 1_555 1_555
In3_2 O11_8 1_555 1_555
O3_8 In2_3 1_555 1_555
O4_8 In2_3 1_555 1_555
C2_10 O3_8 1_555 1_555
C3_10 O4_8 1_555 1_555
O6_8 In2_3 1_555 1_555
O8_8 In2_3 1_555 1_555
O10_8 In2_3 1_555 1_555
O12_8 In2_3 1_555 1_555
C2_10 C3_10 1_555 1_555
O6_8 C1_4 1_555 1_555
O8_4 C1_4 1_555 1_555
C1_4 C4_4 1_555 1_555
C2_11 O10_8 1_555 1_555
C3_11 O12_8 1_555 1_555
In3_5 O9_9 1_555 1_555
O9_9 C2_11 1_555 1_555
O11_9 C3_11 1_555 1_555
C4_4 O6_4 1_555 1_555
C2_11 C3_11 1_555 1_555
In3_5 O11_9 1_555 1_555
O8_8 C4_4 1_555 1_555
O6_7 C1_5 1_555 1_555
O8_3 C1_5 1_555 1_555
C1_5 C4_5 1_555 1_555
C2_12 O10_7 1_555 1_555
C3_12 O12_7 1_555 1_555
In3_6 O9_10 1_555 1_555
O9_10 C2_12 1_555 1_555
O11_10 C3_12 1_555 1_555
C4_5 O6_3 1_555 1_555
C2_12 C3_12 1_555 1_555
In3_6 O11_10 1_555 1_555
O8_7 C4_5 1_555 1_555
O6_6 C1_6 1_555 1_555
O8 C1_6 1_555 1_555
C2_13 O10_6 1_555 1_555
C3_13 O12_6 1_555 1_555
In3_7 O9_11 1_555 1_555
O9_11 C2_13 1_555 1_555
O11_11 C3_13 1_555 1_555
C4_6 O6 1_555 1_555
C2_13 C3_13 1_555 1_555
In3_7 O11_11 1_555 1_555
O8_6 C4_6 1_555 1_555
O6_5 C1_7 1_555 1_555
O8_2 C1_7 1_555 1_555
C1_7 C4_7 1_555 1_555
C2_14 O10_5 1_555 1_555
C3_14 O12_5 1_555 1_555
C4_7 O6_2 1_555 1_555
C2_14 C3_14 1_555 1_555
O8_5 C4_7 1_555 1_555
In3_8 O9_12 1_555 1_555
O9_12 C2_15 1_555 1_555
O11_12 C3_15 1_555 1_555
C2_15 C3_15 1_555 1_555
In3_8 O11_12 1_555 1_555
C2_16 O10_4 1_555 1_555
C3_16 O12_4 1_555 1_555
In3_7 O9_13 1_555 1_555
O9_13 C2_16 1_555 1_555
O11_13 C3_16 1_555 1_555
C2_16 C3_16 1_555 1_555
In3_7 O11_13 1_555 1_555
C2_17 O10_3 1_555 1_555
C3_17 O12_3 1_555 1_555
In3_8 O9_14 1_555 1_555
O9_14 C2_17 1_555 1_555
O11_14 C3_17 1_555 1_555
C2_17 C3_17 1_555 1_555
In3_8 O11_14 1_555 1_555
C2_18 O10_2 1_555 1_555
C3_18 O12_2 1_555 1_555
C2_18 C3_18 1_555 1_555
In3_5 O9_15 1_555 1_555
O9_15 C2_19 1_555 1_555
O11_15 C3_19 1_555 1_555
C2_19 C3_19 1_555 1_555
In3_5 O11_15 1_555 1_555
C2_20 O10 1_555 1_555
C3_20 O12 1_555 1_555
In3_6 O9_16 1_555 1_555
O9_16 C2_20 1_555 1_555
O11_16 C3_20 1_555 1_555
C2_20 C3_20 1_555 1_555
In3_6 O11_16 1_555 1_555
In3_7 O1_4 1_555 1_555
O1_4 C1_8 1_555 1_555
O2_5 C1_8 1_555 1_555
C1_8 C4_8 1_555 1_555
In3_5 O2_5 1_555 1_555
O5_4 In3_5 1_555 1_555
O7_5 In3_7 1_555 1_555
O8_9 In3_7 1_555 1_555
C4_8 O5_4 1_555 1_555
O7_5 C4_8 1_555 1_555
In3_8 O1_5 1_555 1_555
O1_5 C1_9 1_555 1_555
O2_6 C1_9 1_555 1_555
C1_9 C4_9 1_555 1_555
In3_6 O2_6 1_555 1_555
O5_5 In3_6 1_555 1_555
O6_10 In3_8 1_555 1_555
O7_6 In3_8 1_555 1_555
O8_10 In3_8 1_555 1_555
C4_9 O5_5 1_555 1_555
O7_6 C4_9 1_555 1_555
In3_3 O2_7 1_555 1_555
O5_6 In3_3 1_555 1_555
C4_10 O5_6 1_555 1_555
In3_2 O1_6 1_555 1_555
O1_6 C1_10 1_555 1_555
O6_11 In3_2 1_555 1_555
O7_7 In3_2 1_555 1_555
O8_11 In3_2 1_555 1_555
O6_12 In3 1_555 1_555
O7_8 In3 1_555 1_555
O8_12 In3 1_555 1_555
In3_4 O2_8 1_555 1_555
O6_13 In3_5 1_555 1_555
O8_13 In3_5 1_555 1_555
O8_14 In3_6 1_555 1_555
O6_15 In3_4 1_555 1_555
O8_15 In3_4 1_555 1_555
O6_16 In3_3 1_555 1_555
O8_16 In3_3 1_555 1_555
O6_16 C1_11 1_555 1_555
O8_12 C1_11 1_555 1_555
C1_11 C4_11 1_555 1_555
C4_11 O6_12 1_555 1_555
O8_16 C4_11 1_555 1_555
O6_15 C1_12 1_555 1_555
O8_11 C1_12 1_555 1_555
C1_12 C4_12 1_555 1_555
C4_12 O6_11 1_555 1_555
O8_15 C4_12 1_555 1_555
C4_13 O6_9 1_555 1_555
O8_14 C4_13 1_555 1_555
O6_14 C1_13 1_555 1_555
O8_9 C1_13 1_555 1_555
O6_13 C1_14 1_555 1_555
O8_10 C1_14 1_555 1_555
C1_14 C4_14 1_555 1_555
C4_14 O6_10 1_555 1_555
O8_13 C4_14 1_555 1_555
C4_15 O5_7 1_555 1_555
O1_7 C1_15 1_555 1_555
O1_8 C1_16 1_555 1_555
C4_16 O5_8 1_555 1_555

#END
