
###############################################################################
#
# This file contains modified crystal structure data generated from the
# MOF subset of the Cambridge Structural Database (CSD) v543 
# hosted by the Cambridge Crystallographic Data Centre (CCDC).
#
# This work is licensed under the Creative Commons
# Attribution-NonCommercial-ShareAlike 4.0 International License.
# To view a copy of this license, visit
# http://creativecommons.org/licenses/by-nc-sa/4.0/
# or send a letter to
# Creative Commons, PO Box 1866, Mountain View, CA 94042, USA.
#
# CIF created using the CSD Python API on 29 September 2022
# The structure has been converted into the P1 space group
# The structure has a 3D framework
# The original CSD entry OPENON is in the triclinic crystal system
# The framework has been calculated to contain at least 10.0% void space
# The void calculation uses a probe of radius 1.32A, grid spacing 0.4
#
###############################################################################

data_OPENON
_chemical_formula_moiety         '(C34 H20 Cu2 N10 O8)n'
_symmetry_cell_setting           triclinic
_symmetry_space_group_name_H-M   'P 1'
_symmetry_Int_Tables_number      1
_space_group_name_Hall           'P 1'
loop_
_symmetry_equiv_pos_site_id
_symmetry_equiv_pos_as_xyz
1 x,y,z
_cell_length_a                   7.6860(15)
_cell_length_b                   9.2430(18)
_cell_length_c                   12.560(3)
_cell_angle_alpha                95.27(3)
_cell_angle_beta                 98.43(3)
_cell_angle_gamma                101.91(3)
_cell_volume                     856.743
loop_
_atom_site_label
_atom_site_type_symbol
_atom_site_fract_x
_atom_site_fract_y
_atom_site_fract_z
_atom_site_U_iso_or_equiv
_atom_site_thermal_displace_type
Cu8 Cu 0.35405(8) 0.10135(6) 0.05398(4) 0.0250 Uani
C18 C 0.1309(6) 0.3059(5) 0.1484(4) 0.0225 Uani
C19 C 0.0607(6) 0.4038(5) 0.0700(3) 0.0181 Uani
C20 C 0.1708(6) 0.5418(5) 0.0613(4) 0.0212 Uani
H11 H 0.2859 0.5698 0.1026 0.0250 Uiso
C30 C 0.0730(6) 0.1571(6) 0.7435(4) 0.0259 Uani
C31 C 0.1447(8) 0.3060(6) 0.7368(4) 0.0369 Uani
H16 H 0.1069 0.3498 0.6763 0.0440 Uiso
C32 C 0.2716(8) 0.3877(6) 0.8203(5) 0.0398 Uani
H17 H 0.3209 0.4877 0.8173 0.0480 Uiso
C33 C 0.3251(7) 0.3204(5) 0.9080(4) 0.0271 Uani
H18 H 0.4110 0.3770 0.9645 0.0320 Uiso
C34 C 0.1328(6) 0.0953(5) 0.8350(4) 0.0251 Uani
N10 N 0.2589(5) 0.1759(4) 0.9163(3) 0.0231 Uani
O5 O 0.2867(5) 0.2834(4) 0.1441(3) 0.0307 Uani
O7 O 0.0311(5) 0.2574(4) 0.2126(3) 0.0354 Uani
O10 O 0.1868(4) 0.9036(4) 0.0163(3) 0.0259 Uani
Cu5 Cu 0.64595(8) 0.89865(6) 0.94602(4) 0.0250 Uani
C21 C 0.1121(6) 0.6378(5) 0.9924(3) 0.0178 Uani
C22 C 0.2396(6) 0.7856(5) 0.9896(3) 0.0201 Uani
O8 O 0.3907(4) 0.7791(4) 0.9672(3) 0.0295 Uani
C9 C 0.4748(7) 0.0978(6) 0.6621(4) 0.0288 Uani
H4 H 0.5028 0.1894 0.6362 0.0340 Uiso
C10 C 0.5627(7) 0.0762(6) 0.7608(4) 0.0271 Uani
H5 H 0.6499 0.1553 0.8004 0.0330 Uiso
N3 N 0.2534(6) 0.1212(5) 0.4515(3) 0.0305 Uani
N4 N 0.1359(6) 0.0781(5) 0.3562(3) 0.0298 Uani
H10 H 0.1462 0.1321 0.3053 1.2610 Uiso
O11 O 0.8132(4) 0.0964(4) 0.9837(3) 0.0259 Uani
C4 C 0.8879(6) 0.3622(5) 0.0076(3) 0.0178 Uani
C5 C 0.7604(6) 0.2144(5) 0.0104(3) 0.0201 Uani
O3 O 0.6093(4) 0.2209(4) 0.0328(3) 0.0295 Uani
C23 C 0.5948(7) 0.1660(6) 0.2569(4) 0.0305 Uani
H12 H 0.6183 0.2572 0.2300 0.0370 Uiso
C24 C 0.6890(7) 0.1539(6) 0.3561(4) 0.0326 Uani
H13 H 0.7740 0.2354 0.3945 0.0390 Uiso
C25 C 0.6567(6) 0.0190(6) 0.3989(4) 0.0253 Uani
C28 C 0.7586(6) 0.0061(6) 0.5044(4) 0.0261 Uani
C29 C 0.9398(6) 0.0687(6) 0.6521(4) 0.0252 Uani
N6 N 0.4709(5) 0.0536(4) 0.1968(3) 0.0238 Uani
N7 N 0.8758(5) 0.1255(5) 0.5653(3) 0.0288 Uani
N11 N 0.7411(5) 0.8241(4) 0.0837(3) 0.0231 Uani
C1 C 0.8691(6) 0.6941(5) 0.8516(4) 0.0225 Uani
C2 C 0.9393(6) 0.5962(5) 0.9300(3) 0.0181 Uani
C3 C 0.8292(6) 0.4582(5) 0.9387(4) 0.0212 Uani
H1 H 0.7141 0.4302 0.8974 0.0250 Uiso
C6 C 0.4052(7) 0.8340(6) 0.7431(4) 0.0305 Uani
H2 H 0.3817 0.7428 0.7700 0.0370 Uiso
C7 C 0.3110(7) 0.8461(6) 0.6439(4) 0.0326 Uani
H3 H 0.2260 0.7646 0.6055 0.0390 Uiso
C8 C 0.3433(6) 0.9810(6) 0.6011(4) 0.0253 Uani
C11 C 0.2414(6) 0.9939(6) 0.4956(4) 0.0261 Uani
C12 C 0.0602(6) 0.9313(6) 0.3479(4) 0.0252 Uani
N1 N 0.5291(5) 0.9464(4) 0.8032(3) 0.0238 Uani
N2 N 0.1242(5) 0.8745(5) 0.4347(3) 0.0288 Uani
O1 O 0.7133(5) 0.7166(4) 0.8559(3) 0.0307 Uani
O2 O 0.9689(5) 0.7426(4) 0.7874(3) 0.0354 Uani
C26 C 0.5252(7) 0.9022(6) 0.3379(4) 0.0288 Uani
H14 H 0.4972 0.8106 0.3638 0.0340 Uiso
C27 C 0.4373(7) 0.9238(6) 0.2392(4) 0.0271 Uani
H15 H 0.3501 0.8447 0.1996 0.0330 Uiso
N8 N 0.7466(6) 0.8788(5) 0.5485(3) 0.0305 Uani
N9 N 0.8641(6) 0.9219(5) 0.6438(3) 0.0298 Uani
H20 H 0.8538 0.8679 0.6947 1.2610 Uiso
C13 C 0.9270(6) 0.8429(6) 0.2565(4) 0.0259 Uani
C14 C 0.8553(8) 0.6940(6) 0.2632(4) 0.0369 Uani
H6 H 0.8931 0.6502 0.3237 0.0440 Uiso
C15 C 0.7284(8) 0.6123(6) 0.1797(5) 0.0398 Uani
H7 H 0.6791 0.5123 0.1827 0.0480 Uiso
C16 C 0.6749(7) 0.6796(5) 0.0920(4) 0.0271 Uani
H8 H 0.5890 0.6230 0.0355 0.0320 Uiso
C17 C 0.8672(6) 0.9047(5) 0.1650(4) 0.0251 Uani
H19 H 0.0845 0.9958 0.8401 0.0300 Uiso
H9 H 0.9155 0.0042 0.1599 0.0300 Uiso
loop_
_atom_site_aniso_label
_atom_site_aniso_U_11
_atom_site_aniso_U_22
_atom_site_aniso_U_33
_atom_site_aniso_U_23
_atom_site_aniso_U_13
_atom_site_aniso_U_12
Cu8 0.0297 0.0175 0.0213 0.0072 -0.0083 -0.0026
C18 0.024 0.014 0.022 0.0015 -0.0081 -0.0038
C19 0.019 0.015 0.018 0.0038 -0.0013 0.0012
C20 0.018 0.017 0.024 0.003 -0.0043 -0.0011
C30 0.028 0.028 0.021 0.008 -0.0021 0.0072
C31 0.05 0.032 0.027 0.015 -0.004 0.008
C32 0.054 0.023 0.039 0.013 -0.001 0.003
C33 0.034 0.018 0.028 0.0057 0.001 0.0044
C34 0.026 0.021 0.025 0.0069 -0.0014 0
N10 0.0248 0.021 0.0201 0.0048 -0.0017 0.0004
O5 0.0321 0.0307 0.0288 0.0014 -0.0067 0.0153
O7 0.036 0.038 0.0312 0.0209 0.0008 0.0025
O10 0.0255 0.0175 0.0297 0.0049 -0.0049 -0.0006
Cu5 0.0297 0.0175 0.0213 0.0072 -0.0083 -0.0026
C21 0.017 0.015 0.018 0.0027 -0.0003 -0.0018
C22 0.022 0.017 0.016 0.0067 -0.0071 -0.0023
O8 0.0193 0.0307 0.0351 0.0116 0.0031 -0.0041
C9 0.035 0.025 0.024 0.011 -0.002 0.003
C10 0.033 0.022 0.023 0.0048 -0.001 0.002
N3 0.032 0.033 0.023 0.0088 -0.0045 0.0034
N4 0.031 0.033 0.023 0.0102 -0.0041 0.0048
O11 0.0255 0.0175 0.0297 0.0049 -0.0049 -0.0006
C4 0.017 0.015 0.018 0.0027 -0.0003 -0.0018
C5 0.022 0.017 0.016 0.0067 -0.0071 -0.0023
O3 0.0193 0.0307 0.0351 0.0116 0.0031 -0.0041
C23 0.038 0.02 0.027 0.007 -0.007 -0.001
C24 0.036 0.029 0.025 0.006 -0.01 -0.001
C25 0.027 0.031 0.017 0.0051 -0.0001 0.0064
C28 0.025 0.034 0.018 0.008 -0.004 0.007
C29 0.028 0.029 0.018 0.0073 -0.0002 0.006
N6 0.026 0.022 0.02 0.0057 -0.0048 0.0024
N7 0.03 0.033 0.022 0.0112 -0.0039 0.0064
N11 0.0248 0.021 0.0201 0.0048 -0.0017 0.0004
C1 0.024 0.014 0.022 0.0015 -0.0081 -0.0038
C2 0.019 0.015 0.018 0.0038 -0.0013 0.0012
C3 0.018 0.017 0.024 0.003 -0.0043 -0.0011
C6 0.038 0.02 0.027 0.007 -0.007 -0.001
C7 0.036 0.029 0.025 0.006 -0.01 -0.001
C8 0.027 0.031 0.017 0.0051 -0.0001 0.0064
C11 0.025 0.034 0.018 0.008 -0.004 0.007
C12 0.028 0.029 0.018 0.0073 -0.0002 0.006
N1 0.026 0.022 0.02 0.0057 -0.0048 0.0024
N2 0.03 0.033 0.022 0.0112 -0.0039 0.0064
O1 0.0321 0.0307 0.0288 0.0014 -0.0067 0.0153
O2 0.036 0.038 0.0312 0.0209 0.0008 0.0025
C26 0.035 0.025 0.024 0.011 -0.002 0.003
C27 0.033 0.022 0.023 0.0048 -0.001 0.002
N8 0.032 0.033 0.023 0.0088 -0.0045 0.0034
N9 0.031 0.033 0.023 0.0102 -0.0041 0.0048
C13 0.028 0.028 0.021 0.008 -0.0021 0.0072
C14 0.05 0.032 0.027 0.015 -0.004 0.008
C15 0.054 0.023 0.039 0.013 -0.001 0.003
C16 0.034 0.018 0.028 0.0057 0.001 0.0044
C17 0.026 0.021 0.025 0.0069 -0.0014 0
loop_
_geom_bond_atom_site_label_1
_geom_bond_atom_site_label_2
_geom_bond_site_symmetry_1
_geom_bond_site_symmetry_2
Cu8 O5 1_555 1_555
C18 C19 1_555 1_555
C20 C19 1_555 1_555
H11 C20 1_555 1_555
C30 C31 1_555 1_555
C31 H16 1_555 1_555
C32 C31 1_555 1_555
H17 C32 1_555 1_555
C33 C32 1_555 1_555
H18 C33 1_555 1_555
C34 C30 1_555 1_555
N10 C33 1_555 1_555
O5 C18 1_555 1_555
O7 C18 1_555 1_555
C34 N10 1_555 1_555
Cu5 O8 1_555 1_555
C22 C21 1_555 1_555
O8 C22 1_555 1_555
H4 C9 1_555 1_555
C10 C9 1_555 1_555
H5 C10 1_555 1_555
H10 N4 1_555 1_555
N3 N4 1_555 1_555
C5 C4 1_555 1_555
O3 C5 1_555 1_555
Cu8 O3 1_555 1_555
C23 H12 1_555 1_555
C24 C23 1_555 1_555
H13 C24 1_555 1_555
C25 C24 1_555 1_555
C28 C25 1_555 1_555
N6 Cu8 1_555 1_555
N7 C28 1_555 1_555
C23 N6 1_555 1_555
C29 N7 1_555 1_555
Cu5 N1 1_555 1_555
C1 C2 1_555 1_555
C2 C3 1_555 1_555
C3 H1 1_555 1_555
C6 H2 1_555 1_555
C7 C6 1_555 1_555
H3 C7 1_555 1_555
C8 C7 1_555 1_555
C11 C8 1_555 1_555
N1 C6 1_555 1_555
N2 C11 1_555 1_555
O1 Cu5 1_555 1_555
O2 C1 1_555 1_555
C1 O1 1_555 1_555
C12 N2 1_555 1_555
H14 C26 1_555 1_555
C27 C26 1_555 1_555
H15 C27 1_555 1_555
H20 N9 1_555 1_555
N8 N9 1_555 1_555
C13 C14 1_555 1_555
C14 H6 1_555 1_555
C15 C14 1_555 1_555
H7 C15 1_555 1_555
C16 C15 1_555 1_555
H8 C16 1_555 1_555
C17 C13 1_555 1_555
N11 C16 1_555 1_555
C17 N11 1_555 1_555

#END
