
###############################################################################
#
# This file contains modified crystal structure data generated from the
# MOF subset of the Cambridge Structural Database (CSD) v543 
# hosted by the Cambridge Crystallographic Data Centre (CCDC).
#
# This work is licensed under the Creative Commons
# Attribution-NonCommercial-ShareAlike 4.0 International License.
# To view a copy of this license, visit
# http://creativecommons.org/licenses/by-nc-sa/4.0/
# or send a letter to
# Creative Commons, PO Box 1866, Mountain View, CA 94042, USA.
#
# CIF created using the CSD Python API on 29 September 2022
# The structure has been converted into the P1 space group
# The structure has a 3D framework
# The original CSD entry OPENED is in the monoclinic crystal system
# The framework has been calculated to contain at least 10.0% void space
# The void calculation uses a probe of radius 1.32A, grid spacing 0.4
#
###############################################################################

data_OPENED
_chemical_formula_moiety         '(C136 H80 Cu12 N40 O28)n'
_symmetry_cell_setting           triclinic
_symmetry_space_group_name_H-M   'P 1'
_symmetry_Int_Tables_number      1
_space_group_name_Hall           'P 1'
loop_
_symmetry_equiv_pos_site_id
_symmetry_equiv_pos_as_xyz
1 x,y,z
_cell_length_a                   15.729(3)
_cell_length_b                   15.833(3)
_cell_length_c                   16.449(3)
_cell_angle_alpha                90
_cell_angle_beta                 114.84(3)
_cell_angle_gamma                90
_cell_volume                     3717.43
loop_
_atom_site_label
_atom_site_type_symbol
_atom_site_fract_x
_atom_site_fract_y
_atom_site_fract_z
Cu1 Cu 0.5000 0.04628(6) 0.2500
Cu2 Cu 0.5000 0.5000 0.5000
C1 C 0.3674(4) 0.1472(3) 0.1509(4)
C2 C 0.3038(4) 0.1981(3) 0.0713(3)
C3 C 0.2088(4) 0.1802(3) 0.0219(4)
C4 C 0.3434(4) 0.2678(3) 0.0491(4)
C5 C 0.1637(4) 0.1048(4) 0.0430(4)
C9 C 0.3669(4) 0.0317(4) 0.4255(4)
C10 C 0.4156(4) 0.0527(3) 0.3757(4)
H4 H 0.4447 0.1052 0.3852
C11 C 0.3606(4) 0.0938(3) 0.4879(4)
C12 C 0.3676(4) 0.2060(4) 0.5593(4)
C13 C 0.3836(4) 0.2954(4) 0.5863(4)
C14 C 0.3611(4) 0.3292(4) 0.6528(4)
H5 H 0.3335 0.2958 0.6816
C15 C 0.3804(4) 0.4127(4) 0.6750(4)
H6 H 0.3667 0.4366 0.7198
C16 C 0.4200(4) 0.4607(4) 0.6304(4)
H7 H 0.4322 0.5174 0.6457
C17 C 0.4242(4) 0.3478(3) 0.5461(4)
H8 H 0.4403 0.3250 0.5024
N1 N 0.4233(3) 0.0018(3) 0.3144(3)
N2 N 0.3820(3) 0.1754(3) 0.4888(3)
N3 N 0.3326(4) 0.0790(3) 0.5526(3)
N4 N 0.3376(4) 0.1505(3) 0.5999(3)
N5 N 0.4420(3) 0.4297(3) 0.5661(3)
O1 O 0.4023(3) 0.0791(2) 0.1351(3)
O2 O 0.3929(4) 0.1751(3) 0.2263(3)
O4 O 0.2150(4) 0.0521(3) 0.0970(4)
H9 H 0.403(6) 0.281(5) 0.079(5)
H10 H 0.330(6) 0.029(2) 0.572(6)
Cu4 Cu 0.0000 0.0000 0.0000
Cu5 Cu 0.5000 0.5000 0.0000
C26 C 0.6331(4) 0.0317(4) 0.0745(4)
C27 C 0.5844(4) 0.0527(3) 0.1243(4)
H14 H 0.5553 0.1052 0.1148
C28 C 0.6394(4) 0.0938(3) 0.0121(4)
N6 N 0.5767(3) 0.0018(3) 0.1856(3)
N7 N 0.6180(3) 0.1754(3) 0.0112(3)
N11 N 0.5580(3) 0.5703(3) 0.4339(3)
O6 O 0.5977(3) 0.0791(2) 0.3649(3)
O8 O 0.4225(3) 0.4030(2) 0.0004(3)
O9 O 0.4225(3) 0.5970(2) 0.5004(3)
O10 O 0.5775(3) 0.4030(2) 0.4996(3)
O3 O 0.0775(3) 0.0970(2) 0.9996(3)
Cu3 Cu 0.0000 0.45372(6) 0.7500
Cu4_2 Cu 0.0000 0.0000 1.0000
Cu5_2 Cu 0.5000 0.5000 1.0000
C18 C 0.1326(4) 0.3528(3) 0.8491(4)
C19 C 0.1962(4) 0.3019(3) 0.9287(3)
C20 C 0.2912(4) 0.3198(3) 0.9781(4)
C21 C 0.1566(4) 0.2322(3) 0.9509(4)
C22 C 0.3363(4) 0.3952(4) 0.9570(4)
C29 C 0.6324(4) 0.2060(4) 0.9407(4)
C30 C 0.6164(4) 0.2954(4) 0.9137(4)
C31 C 0.6389(4) 0.3292(4) 0.8472(4)
H15 H 0.6665 0.2958 0.8184
C32 C 0.6196(4) 0.4127(4) 0.8250(4)
H16 H 0.6333 0.4366 0.7802
C33 C 0.5800(4) 0.4607(4) 0.8696(4)
H17 H 0.5678 0.5174 0.8543
C34 C 0.5758(4) 0.3478(3) 0.9539(4)
H18 H 0.5597 0.3250 0.9976
N8 N 0.6674(4) 0.0790(3) 0.9474(3)
N9 N 0.6624(4) 0.1505(3) 0.9001(3)
N10 N 0.5580(3) 0.4297(3) 0.9339(3)
O5 O 0.0977(3) 0.4209(2) 0.8649(3)
O7 O 0.1071(4) 0.3249(3) 0.7737(3)
O11 O 0.2850(4) 0.4479(3) 0.9030(4)
H19 H 0.097(6) 0.219(5) 0.921(5)
H20 H 0.670(6) 0.029(2) 0.928(6)
C6 C 0.3820(5) 0.9259(4) 0.3019(4)
H1 H 0.3863 0.8898 0.2592
C7 C 0.3335(6) 0.8996(4) 0.3502(5)
H2 H 0.3065 0.8462 0.3410
C8 C 0.3252(5) 0.9532(4) 0.4121(4)
H3 H 0.2919 0.9367 0.4447
Cu4_3 Cu 0.0000 1.0000 0.0000
C23 C 0.6180(5) 0.9259(4) 0.1981(4)
H11 H 0.6137 0.8898 0.2408
C24 C 0.6665(6) 0.8996(4) 0.1498(5)
H12 H 0.6935 0.8462 0.1590
C25 C 0.6748(5) 0.9532(4) 0.0879(4)
H13 H 0.7081 0.9367 0.0553
Cu4_4 Cu 0.0000 1.0000 1.0000
Cu4_5 Cu 1.0000 0.0000 0.0000
Cu3_2 Cu 1.0000 0.45372(6) 0.7500
Cu4_6 Cu 1.0000 0.0000 1.0000
Cu4_7 Cu 1.0000 1.0000 0.0000
Cu4_8 Cu 1.0000 1.0000 1.0000
Cu4_9 Cu 0.0000 0.0000 0.5000
Cu4_10 Cu 0.0000 1.0000 0.5000
C1_2 C 0.6326(4) 0.1472(3) 0.3491(4)
C2_2 C 0.6962(4) 0.1981(3) 0.4287(3)
C3_2 C 0.7912(4) 0.1802(3) 0.4781(4)
C4_2 C 0.6566(4) 0.2678(3) 0.4509(4)
C5_2 C 0.8363(4) 0.1048(4) 0.4570(4)
O2_2 O 0.6071(4) 0.1751(3) 0.2737(3)
O3_2 O 0.9225(3) 0.0970(2) 0.5004(3)
O4_2 O 0.7850(4) 0.0521(3) 0.4030(4)
H9_2 H 0.597(6) 0.281(5) 0.421(5)
Cu4_11 Cu 1.0000 0.0000 0.5000
C18_2 C 0.8674(4) 0.3528(3) 0.6509(4)
C19_2 C 0.8038(4) 0.3019(3) 0.5713(3)
C20_2 C 0.7088(4) 0.3198(3) 0.5219(4)
C21_2 C 0.8434(4) 0.2322(3) 0.5491(4)
C22_2 C 0.6637(4) 0.3952(4) 0.5430(4)
N11_2 N 0.4420(3) 0.5703(3) 0.0661(3)
O5_2 O 0.9023(3) 0.4209(2) 0.6351(3)
O7_2 O 0.8929(4) 0.3249(3) 0.7263(3)
O11_2 O 0.7150(4) 0.4479(3) 0.5970(4)
H19_2 H 0.903(6) 0.219(5) 0.579(5)
O9_2 O 0.5775(3) 0.5970(2) 0.9996(3)
Cu4_12 Cu 1.0000 1.0000 0.5000
N11_3 N 0.0580(3) 0.0703(3) 0.4339(3)
H17_2 H 0.0678 0.0174 0.8543
Cu1_2 Cu -0.0000 0.54628(6) 0.2500
C23_2 C 0.1180(5) 0.4259(4) 0.1981(4)
H11_2 H 0.1137 0.3898 0.2408
C24_2 C 0.1665(6) 0.3996(4) 0.1498(5)
H12_2 H 0.1935 0.3462 0.1590
C25_2 C 0.1748(5) 0.4532(4) 0.0879(4)
H13_2 H 0.2081 0.4367 0.0553
C26_2 C 0.1331(4) 0.5317(4) 0.0745(4)
C27_2 C 0.0844(4) 0.5527(3) 0.1243(4)
H14_2 H 0.0553 0.6052 0.1148
C28_2 C 0.1394(4) 0.5938(3) 0.0121(4)
N6_2 N 0.0767(3) 0.5018(3) 0.1856(3)
N7_2 N 0.1180(3) 0.6754(3) 0.0112(3)
O6_2 O 0.0977(3) 0.5791(2) 0.3649(3)
O10_2 O 0.0775(3) 0.9030(2) 0.4996(3)
C29_2 C 0.1324(4) 0.7060(4) 0.9407(4)
C30_2 C 0.1164(4) 0.7954(4) 0.9137(4)
C31_2 C 0.1389(4) 0.8292(4) 0.8472(4)
H15_2 H 0.1665 0.7958 0.8184
C32_2 C 0.1196(4) 0.9127(4) 0.8250(4)
H16_2 H 0.1333 0.9366 0.7802
C33_2 C 0.0800(4) 0.9607(4) 0.8696(4)
C34_2 C 0.0758(4) 0.8478(3) 0.9539(4)
H18_2 H 0.0597 0.8250 0.9976
N8_2 N 0.1674(4) 0.5790(3) 0.9474(3)
N9_2 N 0.1624(4) 0.6505(3) 0.9001(3)
N10_2 N 0.0580(3) 0.9297(3) 0.9339(3)
H20_2 H 0.170(6) 0.529(2) 0.928(6)
H7_2 H 0.9322 0.0174 0.6457
Cu1_3 Cu 1.0000 0.54628(6) 0.2500
C1_3 C 0.8674(4) 0.6472(3) 0.1509(4)
C2_3 C 0.8038(4) 0.6981(3) 0.0713(3)
C3_3 C 0.7088(4) 0.6802(3) 0.0219(4)
C4_3 C 0.8434(4) 0.7678(3) 0.0491(4)
C5_3 C 0.6637(4) 0.6048(4) 0.0430(4)
C6_2 C 0.8820(5) 0.4259(4) 0.3019(4)
H1_2 H 0.8863 0.3898 0.2592
C7_2 C 0.8335(6) 0.3996(4) 0.3502(5)
H2_2 H 0.8065 0.3462 0.3410
C8_2 C 0.8252(5) 0.4532(4) 0.4121(4)
H3_2 H 0.7919 0.4367 0.4447
C9_2 C 0.8669(4) 0.5317(4) 0.4255(4)
C10_2 C 0.9156(4) 0.5527(3) 0.3757(4)
H4_2 H 0.9447 0.6052 0.3852
C11_2 C 0.8606(4) 0.5938(3) 0.4879(4)
C12_2 C 0.8676(4) 0.7060(4) 0.5593(4)
C13_2 C 0.8836(4) 0.7954(4) 0.5863(4)
C14_2 C 0.8611(4) 0.8292(4) 0.6528(4)
H5_2 H 0.8335 0.7958 0.6816
C15_2 C 0.8804(4) 0.9127(4) 0.6750(4)
H6_2 H 0.8667 0.9366 0.7198
C16_2 C 0.9200(4) 0.9607(4) 0.6304(4)
C17_2 C 0.9242(4) 0.8478(3) 0.5461(4)
H8_2 H 0.9403 0.8250 0.5024
N1_2 N 0.9233(3) 0.5018(3) 0.3144(3)
N2_2 N 0.8820(3) 0.6754(3) 0.4888(3)
N3_2 N 0.8326(4) 0.5790(3) 0.5526(3)
N4_2 N 0.8376(4) 0.6505(3) 0.5999(3)
N5_2 N 0.9420(3) 0.9297(3) 0.5661(3)
O1_2 O 0.9023(3) 0.5791(2) 0.1351(3)
O2_3 O 0.8929(4) 0.6751(3) 0.2263(3)
O4_3 O 0.7150(4) 0.5521(3) 0.0970(4)
H9_3 H 0.903(6) 0.781(5) 0.079(5)
H10_2 H 0.830(6) 0.529(2) 0.572(6)
O8_2 O 0.9225(3) 0.9030(2) 0.0004(3)
Cu3_3 Cu 0.5000 0.95372(6) 0.7500
C18_3 C 0.6326(4) 0.8528(3) 0.8491(4)
C19_3 C 0.6962(4) 0.8019(3) 0.9287(3)
C20_3 C 0.7912(4) 0.8198(3) 0.9781(4)
C21_3 C 0.6566(4) 0.7322(3) 0.9509(4)
C22_3 C 0.8363(4) 0.8952(4) 0.9570(4)
O5_3 O 0.5977(3) 0.9209(2) 0.8649(3)
O7_3 O 0.6071(4) 0.8249(3) 0.7737(3)
O11_3 O 0.7850(4) 0.9479(3) 0.9030(4)
H19_3 H 0.597(6) 0.719(5) 0.921(5)
C1_4 C 0.1326(4) 0.6472(3) 0.3491(4)
C2_4 C 0.1962(4) 0.6981(3) 0.4287(3)
C3_4 C 0.2912(4) 0.6802(3) 0.4781(4)
C4_4 C 0.1566(4) 0.7678(3) 0.4509(4)
C5_4 C 0.3363(4) 0.6048(4) 0.4570(4)
O2_4 O 0.1071(4) 0.6751(3) 0.2737(3)
O4_4 O 0.2850(4) 0.5521(3) 0.4030(4)
H9_4 H 0.097(6) 0.781(5) 0.421(5)
C18_4 C 0.3674(4) 0.8528(3) 0.6509(4)
C19_4 C 0.3038(4) 0.8019(3) 0.5713(3)
C20_4 C 0.2088(4) 0.8198(3) 0.5219(4)
C21_4 C 0.3434(4) 0.7322(3) 0.5491(4)
C22_4 C 0.1637(4) 0.8952(4) 0.5430(4)
O5_4 O 0.4023(3) 0.9209(2) 0.6351(3)
O7_4 O 0.3929(4) 0.8249(3) 0.7263(3)
O11_4 O 0.2150(4) 0.9479(3) 0.5970(4)
H19_4 H 0.403(6) 0.719(5) 0.579(5)
N11_4 N 0.9420(3) 0.0703(3) 0.0661(3)
C6_3 C 0.6180(5) 0.0741(4) 0.6981(4)
H1_3 H 0.6137 0.1102 0.7408
C7_3 C 0.6665(6) 0.1004(4) 0.6498(5)
H2_3 H 0.6935 0.1538 0.6590
C8_3 C 0.6748(5) 0.0468(4) 0.5879(4)
H3_3 H 0.7081 0.0633 0.5553
C23_3 C 0.3820(5) 0.0741(4) 0.8019(4)
H11_3 H 0.3863 0.1102 0.7592
C24_3 C 0.3335(6) 0.1004(4) 0.8502(5)
H12_3 H 0.3065 0.1538 0.8410
C25_3 C 0.3252(5) 0.0468(4) 0.9121(4)
H13_3 H 0.2919 0.0633 0.9447
C29_3 C 0.3676(4) 0.7940(4) 0.0593(4)
C30_3 C 0.3836(4) 0.7046(4) 0.0863(4)
C31_3 C 0.3611(4) 0.6708(4) 0.1528(4)
H15_3 H 0.3335 0.7042 0.1816
C32_3 C 0.3804(4) 0.5873(4) 0.1750(4)
H16_3 H 0.3667 0.5634 0.2198
C33_3 C 0.4200(4) 0.5393(4) 0.1304(4)
H17_3 H 0.4322 0.4826 0.1457
C34_3 C 0.4242(4) 0.6522(3) 0.0461(4)
H18_3 H 0.4403 0.6750 0.0024
N8_3 N 0.3326(4) 0.9210(3) 0.0526(3)
N9_3 N 0.3376(4) 0.8495(3) 0.0999(3)
H20_3 H 0.330(6) 0.971(2) 0.072(6)
C9_3 C 0.6331(4) 0.9683(4) 0.5745(4)
C10_3 C 0.5844(4) 0.9473(3) 0.6243(4)
H4_3 H 0.5553 0.8948 0.6148
C11_3 C 0.6394(4) 0.9062(3) 0.5121(4)
C12_3 C 0.6324(4) 0.7940(4) 0.4407(4)
C13_3 C 0.6164(4) 0.7046(4) 0.4137(4)
C14_3 C 0.6389(4) 0.6708(4) 0.3472(4)
H5_3 H 0.6665 0.7042 0.3184
C15_3 C 0.6196(4) 0.5873(4) 0.3250(4)
H6_3 H 0.6333 0.5634 0.2802
C16_3 C 0.5800(4) 0.5393(4) 0.3696(4)
H7_3 H 0.5678 0.4826 0.3543
C17_3 C 0.5758(4) 0.6522(3) 0.4539(4)
H8_3 H 0.5597 0.6750 0.4976
N1_3 N 0.5767(3) 0.9982(3) 0.6856(3)
N2_3 N 0.6180(3) 0.8246(3) 0.5112(3)
N3_3 N 0.6674(4) 0.9210(3) 0.4474(3)
N4_3 N 0.6624(4) 0.8495(3) 0.4001(3)
H10_3 H 0.670(6) 0.971(2) 0.428(6)
C26_3 C 0.3669(4) 0.9683(4) 0.9255(4)
C27_3 C 0.4156(4) 0.9473(3) 0.8757(4)
H14_3 H 0.4447 0.8948 0.8852
C28_3 C 0.3606(4) 0.9062(3) 0.9879(4)
N6_3 N 0.4233(3) 0.9982(3) 0.8144(3)
N7_3 N 0.3820(3) 0.8246(3) 0.9888(3)
C6_4 C 0.1180(5) 0.5741(4) 0.6981(4)
H1_4 H 0.1137 0.6102 0.7408
C7_4 C 0.1665(6) 0.6004(4) 0.6498(5)
H2_4 H 0.1935 0.6538 0.6590
C8_4 C 0.1748(5) 0.5468(4) 0.5879(4)
H3_4 H 0.2081 0.5633 0.5553
C9_4 C 0.1331(4) 0.4683(4) 0.5745(4)
C10_4 C 0.0844(4) 0.4473(3) 0.6243(4)
H4_4 H 0.0553 0.3948 0.6148
C11_4 C 0.1394(4) 0.4062(3) 0.5121(4)
C12_4 C 0.1324(4) 0.2940(4) 0.4407(4)
C13_4 C 0.1164(4) 0.2046(4) 0.4137(4)
C14_4 C 0.1389(4) 0.1708(4) 0.3472(4)
H5_4 H 0.1665 0.2042 0.3184
C15_4 C 0.1196(4) 0.0873(4) 0.3250(4)
H6_4 H 0.1333 0.0634 0.2802
C16_4 C 0.0800(4) 0.0393(4) 0.3696(4)
C17_4 C 0.0758(4) 0.1522(3) 0.4539(4)
H8_4 H 0.0597 0.1750 0.4976
N1_4 N 0.0767(3) 0.4982(3) 0.6856(3)
N2_4 N 0.1180(3) 0.3246(3) 0.5112(3)
N3_4 N 0.1674(4) 0.4210(3) 0.4474(3)
N4_4 N 0.1624(4) 0.3495(3) 0.4001(3)
H10_4 H 0.170(6) 0.471(2) 0.428(6)
H7_4 H 0.0678 0.9826 0.3543
C29_4 C 0.8676(4) 0.2940(4) 0.0593(4)
C30_4 C 0.8836(4) 0.2046(4) 0.0863(4)
C31_4 C 0.8611(4) 0.1708(4) 0.1528(4)
H15_4 H 0.8335 0.2042 0.1816
C32_4 C 0.8804(4) 0.0873(4) 0.1750(4)
H16_4 H 0.8667 0.0634 0.2198
C33_4 C 0.9200(4) 0.0393(4) 0.1304(4)
C34_4 C 0.9242(4) 0.1522(3) 0.0461(4)
H18_4 H 0.9403 0.1750 0.0024
N8_4 N 0.8326(4) 0.4210(3) 0.0526(3)
N9_4 N 0.8376(4) 0.3495(3) 0.0999(3)
H20_4 H 0.830(6) 0.471(2) 0.072(6)
C23_4 C 0.8820(5) 0.5741(4) 0.8019(4)
H11_4 H 0.8863 0.6102 0.7592
C24_4 C 0.8335(6) 0.6004(4) 0.8502(5)
H12_4 H 0.8065 0.6538 0.8410
C25_4 C 0.8252(5) 0.5468(4) 0.9121(4)
H13_4 H 0.7919 0.5633 0.9447
C26_4 C 0.8669(4) 0.4683(4) 0.9255(4)
C27_4 C 0.9156(4) 0.4473(3) 0.8757(4)
H14_4 H 0.9447 0.3948 0.8852
C28_4 C 0.8606(4) 0.4062(3) 0.9879(4)
N6_4 N 0.9233(3) 0.4982(3) 0.8144(3)
N7_4 N 0.8820(3) 0.3246(3) 0.9888(3)
H17_4 H 0.9322 0.9826 0.1457
loop_
_geom_bond_atom_site_label_1
_geom_bond_atom_site_label_2
_geom_bond_site_symmetry_1
_geom_bond_site_symmetry_2
Cu1 N1 1_555 1_555
Cu2 N5 1_555 1_555
C1 C2 1_555 1_555
C2 C3 1_555 1_555
C3 C5 1_555 1_555
C4 C2 1_555 1_555
C10 C9 1_555 1_555
H4 C10 1_555 1_555
C11 C9 1_555 1_555
C12 C13 1_555 1_555
C13 C14 1_555 1_555
C14 H5 1_555 1_555
C15 C14 1_555 1_555
H6 C15 1_555 1_555
C16 C15 1_555 1_555
H7 C16 1_555 1_555
C17 C13 1_555 1_555
H8 C17 1_555 1_555
N2 C11 1_555 1_555
N3 C11 1_555 1_555
N4 C12 1_555 1_555
N5 C16 1_555 1_555
O1 Cu1 1_555 1_555
O2 C1 1_555 1_555
O4 C5 1_555 1_555
H9 C4 1_555 1_555
H10 N3 1_555 1_555
C27 C26 1_555 1_555
H14 C27 1_555 1_555
C28 C26 1_555 1_555
N6 Cu1 1_555 1_555
N7 C28 1_555 1_555
N11 Cu2 1_555 1_555
O6 Cu1 1_555 1_555
O8 Cu5 1_555 1_555
O9 Cu2 1_555 1_555
O10 Cu2 1_555 1_555
C1 O1 1_555 1_555
C10 N1 1_555 1_555
C12 N2 1_555 1_555
C17 N5 1_555 1_555
N3 N4 1_555 1_555
C27 N6 1_555 1_555
O3 Cu4_2 1_555 1_555
Cu3 O5 1_555 1_555
Cu5_2 N10 1_555 1_555
C18 C19 1_555 1_555
C19 C20 1_555 1_555
C22 C20 1_555 1_555
C29 C30 1_555 1_555
C30 C31 1_555 1_555
C31 H15 1_555 1_555
C32 C31 1_555 1_555
H16 C32 1_555 1_555
C33 C32 1_555 1_555
H17 C33 1_555 1_555
C34 C30 1_555 1_555
H18 C34 1_555 1_555
N9 C29 1_555 1_555
N10 C33 1_555 1_555
O5 C18 1_555 1_555
O7 C18 1_555 1_555
O11 C22 1_555 1_555
H19 C21 1_555 1_555
H20 N8 1_555 1_555
C19 C21 1_555 1_555
C34 N10 1_555 1_555
N8 N9 1_555 1_555
C6 H1 1_555 1_555
C7 C6 1_555 1_555
H2 C7 1_555 1_555
C8 C7 1_555 1_555
H3 C8 1_555 1_555
C23 H11 1_555 1_555
C24 C23 1_555 1_555
H12 C24 1_555 1_555
C25 C24 1_555 1_555
H13 C25 1_555 1_555
C1_2 C2_2 1_555 1_555
C2_2 C3_2 1_555 1_555
C3_2 C5_2 1_555 1_555
C4_2 C2_2 1_555 1_555
C5_2 O3_2 1_555 1_555
O2_2 C1_2 1_555 1_555
O3_2 Cu4_11 1_555 1_555
O4_2 C5_2 1_555 1_555
H9_2 C4_2 1_555 1_555
Cu3_2 O5_2 1_555 1_555
C18_2 C19_2 1_555 1_555
C19_2 C20_2 1_555 1_555
C20_2 C4_2 1_555 1_555
C21_2 C3_2 1_555 1_555
C22_2 C20_2 1_555 1_555
N11_2 Cu5 1_555 1_555
O5_2 C18_2 1_555 1_555
O7_2 C18_2 1_555 1_555
O11_2 C22_2 1_555 1_555
H19_2 C21_2 1_555 1_555
C1_2 O6 1_555 1_555
C19_2 C21_2 1_555 1_555
C22_2 O10 1_555 1_555
O9_2 Cu5_2 1_555 1_555
N11_3 Cu4_9 1_555 1_555
C23_2 H11_2 1_555 1_555
C24_2 C23_2 1_555 1_555
H12_2 C24_2 1_555 1_555
C25_2 C24_2 1_555 1_555
H13_2 C25_2 1_555 1_555
C26_2 C25_2 1_555 1_555
C27_2 C26_2 1_555 1_555
H14_2 C27_2 1_555 1_555
C28_2 C26_2 1_555 1_555
N6_2 Cu1_2 1_555 1_555
N7_2 C28_2 1_555 1_555
O6_2 Cu1_2 1_555 1_555
O10_2 Cu4_10 1_555 1_555
C23_2 N6_2 1_555 1_555
C27_2 N6_2 1_555 1_555
Cu4_4 N10_2 1_555 1_555
C29_2 C30_2 1_555 1_555
C30_2 C31_2 1_555 1_555
C31_2 H15_2 1_555 1_555
C32_2 C31_2 1_555 1_555
H16_2 C32_2 1_555 1_555
C33_2 C32_2 1_555 1_555
C34_2 C30_2 1_555 1_555
H18_2 C34_2 1_555 1_555
N9_2 C29_2 1_555 1_555
N10_2 C33_2 1_555 1_555
H20_2 N8_2 1_555 1_555
C34_2 N10_2 1_555 1_555
N8_2 N9_2 1_555 1_555
Cu1_3 N1_2 1_555 1_555
Cu4_12 N5_2 1_555 1_555
C1_3 C2_3 1_555 1_555
C2_3 C3_3 1_555 1_555
C3_3 C5_3 1_555 1_555
C4_3 C2_3 1_555 1_555
C6_2 H1_2 1_555 1_555
C7_2 C6_2 1_555 1_555
H2_2 C7_2 1_555 1_555
C8_2 C7_2 1_555 1_555
H3_2 C8_2 1_555 1_555
C9_2 C8_2 1_555 1_555
C10_2 C9_2 1_555 1_555
H4_2 C10_2 1_555 1_555
C11_2 C9_2 1_555 1_555
C12_2 C13_2 1_555 1_555
C13_2 C14_2 1_555 1_555
C14_2 H5_2 1_555 1_555
C15_2 C14_2 1_555 1_555
H6_2 C15_2 1_555 1_555
C16_2 C15_2 1_555 1_555
C17_2 C13_2 1_555 1_555
H8_2 C17_2 1_555 1_555
N1_2 C6_2 1_555 1_555
N2_2 C11_2 1_555 1_555
N3_2 C11_2 1_555 1_555
N4_2 C12_2 1_555 1_555
N5_2 C16_2 1_555 1_555
O1_2 Cu1_3 1_555 1_555
O2_3 C1_3 1_555 1_555
O4_3 C5_3 1_555 1_555
H9_3 C4_3 1_555 1_555
H10_2 N3_2 1_555 1_555
O8_2 Cu4_7 1_555 1_555
C1_3 O1_2 1_555 1_555
C10_2 N1_2 1_555 1_555
C12_2 N2_2 1_555 1_555
C17_2 N5_2 1_555 1_555
N3_2 N4_2 1_555 1_555
Cu3_3 O5_3 1_555 1_555
C18_3 C19_3 1_555 1_555
C19_3 C20_3 1_555 1_555
C22_3 C20_3 1_555 1_555
O5_3 C18_3 1_555 1_555
O7_3 C18_3 1_555 1_555
O11_3 C22_3 1_555 1_555
H19_3 C21_3 1_555 1_555
C19_3 C21_3 1_555 1_555
C1_4 C2_4 1_555 1_555
C2_4 C3_4 1_555 1_555
C3_4 C5_4 1_555 1_555
C4_4 C2_4 1_555 1_555
C5_4 O9 1_555 1_555
O2_4 C1_4 1_555 1_555
O4_4 C5_4 1_555 1_555
H9_4 C4_4 1_555 1_555
Cu3_3 O5_4 1_555 1_555
C18_4 C19_4 1_555 1_555
C19_4 C20_4 1_555 1_555
C20_4 C4_4 1_555 1_555
C21_4 C3_4 1_555 1_555
C22_4 C20_4 1_555 1_555
O5_4 C18_4 1_555 1_555
O7_4 C18_4 1_555 1_555
O11_4 C22_4 1_555 1_555
H19_4 C21_4 1_555 1_555
C1_4 O6_2 1_555 1_555
C19_4 C21_4 1_555 1_555
C22_4 O10_2 1_555 1_555
N11_4 Cu4_5 1_555 1_555
C6_3 H1_3 1_555 1_555
C7_3 C6_3 1_555 1_555
H2_3 C7_3 1_555 1_555
C8_3 C7_3 1_555 1_555
H3_3 C8_3 1_555 1_555
C23_3 H11_3 1_555 1_555
C24_3 C23_3 1_555 1_555
H12_3 C24_3 1_555 1_555
C25_3 C24_3 1_555 1_555
H13_3 C25_3 1_555 1_555
C29_3 C30_3 1_555 1_555
C30_3 C31_3 1_555 1_555
C31_3 H15_3 1_555 1_555
C32_3 C31_3 1_555 1_555
H16_3 C32_3 1_555 1_555
C33_3 C32_3 1_555 1_555
H17_3 C33_3 1_555 1_555
C34_3 C30_3 1_555 1_555
H18_3 C34_3 1_555 1_555
N9_3 C29_3 1_555 1_555
N11_2 C33_3 1_555 1_555
H20_3 N8_3 1_555 1_555
C34_3 N11_2 1_555 1_555
N8_3 N9_3 1_555 1_555
Cu3_3 N1_3 1_555 1_555
C10_3 C9_3 1_555 1_555
H4_3 C10_3 1_555 1_555
C11_3 C9_3 1_555 1_555
C12_3 C13_3 1_555 1_555
C13_3 C14_3 1_555 1_555
C14_3 H5_3 1_555 1_555
C15_3 C14_3 1_555 1_555
H6_3 C15_3 1_555 1_555
C16_3 C15_3 1_555 1_555
H7_3 C16_3 1_555 1_555
C17_3 C13_3 1_555 1_555
H8_3 C17_3 1_555 1_555
N2_3 C11_3 1_555 1_555
N3_3 C11_3 1_555 1_555
N4_3 C12_3 1_555 1_555
N11 C16_3 1_555 1_555
H10_3 N3_3 1_555 1_555
C27_3 C26_3 1_555 1_555
H14_3 C27_3 1_555 1_555
C28_3 C26_3 1_555 1_555
N6_3 Cu3_3 1_555 1_555
N7_3 C28_3 1_555 1_555
C10_3 N1_3 1_555 1_555
C12_3 N2_3 1_555 1_555
C17_3 N11 1_555 1_555
N3_3 N4_3 1_555 1_555
C27_3 N6_3 1_555 1_555
Cu3 N1_4 1_555 1_555
C6_4 H1_4 1_555 1_555
C7_4 C6_4 1_555 1_555
H2_4 C7_4 1_555 1_555
C8_4 C7_4 1_555 1_555
H3_4 C8_4 1_555 1_555
C9_4 C8_4 1_555 1_555
C10_4 C9_4 1_555 1_555
H4_4 C10_4 1_555 1_555
C11_4 C9_4 1_555 1_555
C12_4 C13_4 1_555 1_555
C13_4 C14_4 1_555 1_555
C14_4 H5_4 1_555 1_555
C15_4 C14_4 1_555 1_555
H6_4 C15_4 1_555 1_555
C16_4 C15_4 1_555 1_555
C17_4 C13_4 1_555 1_555
H8_4 C17_4 1_555 1_555
N1_4 C6_4 1_555 1_555
N2_4 C11_4 1_555 1_555
N3_4 C11_4 1_555 1_555
N4_4 C12_4 1_555 1_555
N11_3 C16_4 1_555 1_555
H10_4 N3_4 1_555 1_555
C10_4 N1_4 1_555 1_555
C12_4 N2_4 1_555 1_555
C17_4 N11_3 1_555 1_555
N3_4 N4_4 1_555 1_555
C29_4 C30_4 1_555 1_555
C30_4 C31_4 1_555 1_555
C31_4 H15_4 1_555 1_555
C32_4 C31_4 1_555 1_555
H16_4 C32_4 1_555 1_555
C33_4 C32_4 1_555 1_555
C34_4 C30_4 1_555 1_555
H18_4 C34_4 1_555 1_555
N9_4 C29_4 1_555 1_555
N11_4 C33_4 1_555 1_555
H20_4 N8_4 1_555 1_555
C34_4 N11_4 1_555 1_555
N8_4 N9_4 1_555 1_555
C23_4 H11_4 1_555 1_555
C24_4 C23_4 1_555 1_555
H12_4 C24_4 1_555 1_555
C25_4 C24_4 1_555 1_555
H13_4 C25_4 1_555 1_555
C26_4 C25_4 1_555 1_555
C27_4 C26_4 1_555 1_555
H14_4 C27_4 1_555 1_555
C28_4 C26_4 1_555 1_555
N6_4 Cu3_2 1_555 1_555
N7_4 C28_4 1_555 1_555
C23_4 N6_4 1_555 1_555
C27_4 N6_4 1_555 1_555

#END
