
###############################################################################
#
# This file contains modified crystal structure data generated from the
# MOF subset of the Cambridge Structural Database (CSD) v543 
# hosted by the Cambridge Crystallographic Data Centre (CCDC).
#
# This work is licensed under the Creative Commons
# Attribution-NonCommercial-ShareAlike 4.0 International License.
# To view a copy of this license, visit
# http://creativecommons.org/licenses/by-nc-sa/4.0/
# or send a letter to
# Creative Commons, PO Box 1866, Mountain View, CA 94042, USA.
#
# CIF created using the CSD Python API on 29 September 2022
# The structure has been converted into the P1 space group
# The structure has a 3D framework
# The original CSD entry OPENIH is in the triclinic crystal system
# The framework has been calculated to contain at least 10.0% void space
# The void calculation uses a probe of radius 1.32A, grid spacing 0.4
#
###############################################################################

data_OPENIH
_chemical_formula_moiety         '(C44 H22 Cu4 N10 O14)n'
_symmetry_cell_setting           triclinic
_symmetry_space_group_name_H-M   'P 1'
_symmetry_Int_Tables_number      1
_space_group_name_Hall           'P 1'
loop_
_symmetry_equiv_pos_site_id
_symmetry_equiv_pos_as_xyz
1 x,y,z
_cell_length_a                   8.4970(17)
_cell_length_b                   9.4900(19)
_cell_length_c                   14.135(3)
_cell_angle_alpha                80.55(3)
_cell_angle_beta                 88.56(3)
_cell_angle_gamma                73.51(3)
_cell_volume                     1077.81
loop_
_atom_site_label
_atom_site_type_symbol
_atom_site_fract_x
_atom_site_fract_y
_atom_site_fract_z
Cu2 Cu 0.48461(6) 0.20156(6) 0.09778(4)
C18 C 0.0554(6) 0.4337(6) 0.2918(3)
C19 C 0.1268(6) 0.2806(6) 0.3105(4)
H7 H 0.0912 0.2218 0.3608
C20 C 0.2511(6) 0.2179(6) 0.2529(4)
H8 H 0.3010 0.1159 0.2669
C21 C 0.2332(6) 0.4434(6) 0.1593(3)
H9 H 0.2682 0.4993 0.1070
C22 C 0.1107(6) 0.5144(6) 0.2149(4)
H10 H 0.0651 0.6170 0.2006
N5 N 0.3035(4) 0.2964(5) 0.1781(3)
O6 O 0.1646(4) 0.0516(4) 0.7101(3)
O9 O 0.6335(4) 0.0653(4) 0.0266(2)
O12 O 0.6219(4) 0.1146(4) 0.2127(3)
O14 O 0.5870(4) 0.3885(4) 0.0774(3)
C8 C 0.7652(5) 0.7764(5) 0.0529(3)
O3 O 0.6531(4) 0.7238(4) 0.0229(2)
O4 O 0.7887(4) 0.7705(4) 0.1378(2)
Cu3 Cu 0.55652(7) 0.64415(6) 0.14309(4)
C2 C 0.1544(5) 0.0294(5) 0.0725(3)
C7 C 0.1243(5) 0.1732(5) 0.0219(3)
C1 C 0.3025(5) 0.9101(5) 0.0528(4)
C3 C 0.0409(5) 0.9956(5) 0.1387(3)
H1 H 0.0636 0.9002 0.1740
C11 C 0.5054(6) 0.4458(5) 0.3170(3)
H3 H 0.5799 0.3722 0.2894
C12 C 0.4325(6) 0.4036(5) 0.4006(3)
H4 H 0.4572 0.3039 0.4285
C13 C 0.3222(6) 0.5113(6) 0.4426(3)
C14 C 0.2941(7) 0.6582(6) 0.3996(4)
H5 H 0.2233 0.7339 0.4272
C15 C 0.3711(6) 0.6919(6) 0.3162(4)
H6 H 0.3507 0.7914 0.2882
C16 C 0.2342(6) 0.4742(6) 0.5297(4)
C17 C 0.0718(6) 0.5005(6) 0.6431(4)
N1 N 0.4744(5) 0.5879(4) 0.2730(3)
N2 N 0.1211(5) 0.5789(5) 0.5680(3)
N3 N 0.2572(5) 0.3371(5) 0.5757(3)
N4 N 0.1519(5) 0.3556(5) 0.6490(3)
O1 O 0.3483(4) 0.7959(4) 0.1152(2)
H11 H 0.1408 0.2812 0.6958
O13 O 0.7487(4) 0.4713(3) 0.1595(2)
C4 C 0.8950(5) 0.1004(5) 0.1532(3)
C5 C 0.8678(5) 0.2458(5) 0.1047(3)
C6 C 0.9836(5) 0.2794(5) 0.0411(3)
H2 H 0.9660 0.3771 0.0102
C9 C 0.7754(6) 0.0505(5) 0.2235(3)
C10 C 0.7219(5) 0.3750(5) 0.1155(3)
O11 O 0.3469(4) 0.2762(4) 0.9771(2)
C4_2 C 0.1050(5) 0.8996(5) 0.8468(3)
C5_2 C 0.1322(5) 0.7542(5) 0.8953(3)
C6_2 C 0.0164(5) 0.7206(5) 0.9589(3)
H2_2 H 0.0340 0.6229 0.9898
C9_2 C 0.2246(6) 0.9495(5) 0.7765(3)
C10_2 C 0.2781(5) 0.6250(5) 0.8845(3)
O5 O 0.3781(4) 0.8854(4) 0.7873(3)
O7 O 0.2513(4) 0.5287(3) 0.8405(2)
O8 O 0.4130(4) 0.6115(4) 0.9226(3)
Cu4 Cu 0.44348(7) 0.35585(6) 0.85691(4)
Cu7 Cu 0.51539(6) 0.79844(6) 0.90222(4)
C1_2 C 0.6975(5) 0.0899(5) 0.9472(4)
C3_2 C 0.9591(5) 0.0044(5) 0.8613(3)
H1_2 H 0.9364 0.0998 0.8260
C11_2 C 0.4946(6) 0.5542(5) 0.6830(3)
H3_2 H 0.4201 0.6278 0.7106
C12_2 C 0.5675(6) 0.5964(5) 0.5994(3)
H4_2 H 0.5428 0.6961 0.5715
C13_2 C 0.6778(6) 0.4887(6) 0.5574(3)
C14_2 C 0.7059(7) 0.3418(6) 0.6004(4)
H5_2 H 0.7767 0.2661 0.5728
C15_2 C 0.6289(6) 0.3081(6) 0.6838(4)
H6_2 H 0.6493 0.2086 0.7118
C16_2 C 0.7658(6) 0.5258(6) 0.4703(4)
C17_2 C 0.9282(6) 0.4995(6) 0.3569(4)
N1_2 N 0.5256(5) 0.4121(4) 0.7270(3)
N2_2 N 0.8789(5) 0.4211(5) 0.4320(3)
N3_2 N 0.7428(5) 0.6629(5) 0.4243(3)
N4_2 N 0.8481(5) 0.6444(5) 0.3510(3)
O1_2 O 0.6517(4) 0.2041(4) 0.8848(2)
H11_2 H 0.8592 0.7188 0.3042
C2_2 C 0.8456(5) 0.9706(5) 0.9275(3)
C7_2 C 0.8757(5) 0.8268(5) 0.9781(3)
C8_2 C 0.2348(5) 0.2236(5) 0.9471(3)
O4_2 O 0.2113(4) 0.2295(4) 0.8622(2)
O2 O 0.3665(4) 0.9347(4) 0.9734(2)
C18_2 C 0.9446(6) 0.5663(6) 0.7082(3)
C19_2 C 0.8732(6) 0.7194(6) 0.6895(4)
H7_2 H 0.9088 0.7782 0.6392
C20_2 C 0.7489(6) 0.7821(6) 0.7471(4)
H8_2 H 0.6990 0.8841 0.7331
C21_2 C 0.7668(6) 0.5566(6) 0.8407(3)
H9_2 H 0.7318 0.5007 0.8930
C22_2 C 0.8893(6) 0.4856(6) 0.7851(4)
H10_2 H 0.9349 0.3830 0.7994
N5_2 N 0.6965(4) 0.7036(5) 0.8219(3)
O6_2 O 0.8354(4) 0.9484(4) 0.2899(3)
loop_
_geom_bond_atom_site_label_1
_geom_bond_atom_site_label_2
_geom_bond_site_symmetry_1
_geom_bond_site_symmetry_2
Cu2 N5 1_555 1_555
C18 C19 1_555 1_555
C19 H7 1_555 1_555
C20 C19 1_555 1_555
H8 C20 1_555 1_555
C21 H9 1_555 1_555
C22 C18 1_555 1_555
H10 C22 1_555 1_555
N5 C20 1_555 1_555
O9 Cu2 1_555 1_555
O12 Cu2 1_555 1_555
O14 Cu2 1_555 1_555
C21 C22 1_555 1_555
C21 N5 1_555 1_555
O3 C8 1_555 1_555
O4 C8 1_555 1_555
Cu3 O3 1_555 1_555
C7 C2 1_555 1_555
Cu3 N1 1_555 1_555
C3 H1 1_555 1_555
C11 H3 1_555 1_555
C12 C11 1_555 1_555
H4 C12 1_555 1_555
C13 C12 1_555 1_555
C14 C13 1_555 1_555
H5 C14 1_555 1_555
C15 C14 1_555 1_555
H6 C15 1_555 1_555
C16 C13 1_555 1_555
N1 C11 1_555 1_555
N2 C16 1_555 1_555
N3 C16 1_555 1_555
N4 C17 1_555 1_555
O1 Cu3 1_555 1_555
H11 N4 1_555 1_555
O13 Cu3 1_555 1_555
C1 O1 1_555 1_555
C15 N1 1_555 1_555
C17 N2 1_555 1_555
N3 N4 1_555 1_555
C5 C4 1_555 1_555
C6 C5 1_555 1_555
H2 C6 1_555 1_555
C9 C4 1_555 1_555
C10 C5 1_555 1_555
O12 C9 1_555 1_555
O13 C10 1_555 1_555
O14 C10 1_555 1_555
C5_2 C4_2 1_555 1_555
C6_2 C5_2 1_555 1_555
H2_2 C6_2 1_555 1_555
C9_2 C4_2 1_555 1_555
C10_2 C5_2 1_555 1_555
O5 C9_2 1_555 1_555
O7 C10_2 1_555 1_555
O8 C10_2 1_555 1_555
Cu4 O7 1_555 1_555
Cu7 O5 1_555 1_555
O8 Cu7 1_555 1_555
Cu4 N1_2 1_555 1_555
C3_2 H1_2 1_555 1_555
C11_2 H3_2 1_555 1_555
C12_2 C11_2 1_555 1_555
H4_2 C12_2 1_555 1_555
C13_2 C12_2 1_555 1_555
C14_2 C13_2 1_555 1_555
H5_2 C14_2 1_555 1_555
C15_2 C14_2 1_555 1_555
H6_2 C15_2 1_555 1_555
C16_2 C13_2 1_555 1_555
N1_2 C11_2 1_555 1_555
N2_2 C16_2 1_555 1_555
N3_2 C16_2 1_555 1_555
N4_2 C17_2 1_555 1_555
O1_2 Cu4 1_555 1_555
H11_2 N4_2 1_555 1_555
O11 Cu4 1_555 1_555
C1_2 O1_2 1_555 1_555
C15_2 N1_2 1_555 1_555
C17_2 N2_2 1_555 1_555
N3_2 N4_2 1_555 1_555
C7_2 C2_2 1_555 1_555
O11 C8_2 1_555 1_555
O4_2 C8_2 1_555 1_555
Cu7 O2 1_555 1_555
Cu7 N5_2 1_555 1_555
C18_2 C19_2 1_555 1_555
C19_2 H7_2 1_555 1_555
C20_2 C19_2 1_555 1_555
H8_2 C20_2 1_555 1_555
C21_2 H9_2 1_555 1_555
C22_2 C18_2 1_555 1_555
H10_2 C22_2 1_555 1_555
N5_2 C20_2 1_555 1_555
C21_2 C22_2 1_555 1_555
C21_2 N5_2 1_555 1_555

#END
