
###############################################################################
#
# This file contains modified crystal structure data generated from the
# MOF subset of the Cambridge Structural Database (CSD) v543 
# hosted by the Cambridge Crystallographic Data Centre (CCDC).
#
# This work is licensed under the Creative Commons
# Attribution-NonCommercial-ShareAlike 4.0 International License.
# To view a copy of this license, visit
# http://creativecommons.org/licenses/by-nc-sa/4.0/
# or send a letter to
# Creative Commons, PO Box 1866, Mountain View, CA 94042, USA.
#
# CIF created using the CSD Python API on 29 September 2022
# The structure has been converted into the P1 space group
# The structure has a 3D framework
# The original CSD entry OPESOS is in the monoclinic crystal system
# The framework has been calculated to contain at least 10.0% void space
# The void calculation uses a probe of radius 1.32A, grid spacing 0.4
#
###############################################################################

data_OPESOS
_chemical_formula_moiety         '(C288 H224 Cu24 N32 O80)n'
_symmetry_cell_setting           triclinic
_symmetry_space_group_name_H-M   'P 1'
_symmetry_Int_Tables_number      1
_space_group_name_Hall           'P 1'
loop_
_symmetry_equiv_pos_site_id
_symmetry_equiv_pos_as_xyz
1 x,y,z
_cell_length_a                   12.765(3)
_cell_length_b                   32.777(7)
_cell_length_c                   18.378(4)
_cell_angle_alpha                90
_cell_angle_beta                 94.61(3)
_cell_angle_gamma                90
_cell_volume                     7664.45
loop_
_atom_site_label
_atom_site_type_symbol
_atom_site_fract_x
_atom_site_fract_y
_atom_site_fract_z
Cu5 Cu -0.0000 0.5000 0.5000
C78 C 0.0302(3) 0.84430(11) 0.4273(2)
H59 H 0.0381 0.8680 0.3966
N10 N 0.1193(2) 0.53573(9) 0.53573(16)
O22 O 0.12853(19) 0.45826(8) 0.44219(13)
C106 C 0.1360(3) 0.82679(11) 0.4501(2)
C107 C 0.1672(3) 0.81891(11) 0.5226(2)
H97 H 0.1246 0.8269 0.5588
C108 C 0.2608(3) 0.79940(11) 0.5414(2)
H98 H 0.2807 0.7954 0.5907
C109 C 0.2955(3) 0.79441(12) 0.4232(2)
H99 H 0.3395 0.7860 0.3881
C110 C 0.2043(3) 0.81486(11) 0.4006(2)
H100 H 0.1892 0.8206 0.3513
H105 H 0.0105 0.7047 0.3929
N14 N 0.3236(2) 0.78614(9) 0.49327(17)
N17 N 0.5583(2) 0.71246(9) 0.56223(17)
O32 O 0.40837(19) 0.71331(8) 0.44059(12)
O35 O 0.2963(2) 0.70427(8) 0.56899(13)
O39 O 0.48305(18) 0.78666(7) 0.60936(12)
O42 O 0.5712(2) 0.79155(8) 0.47212(13)
O49 O 0.04277(18) 0.46094(7) 0.57984(12)
Cu7 Cu 0.44126(3) 0.749400(14) 0.52573(2)
C2 C 0.5154(4) 0.44181(13) 0.3546(2)
C3 C 0.4942(3) 0.47706(11) 0.40520(19)
H1 H 0.4576 0.4667 0.4456
H2 H 0.5609 0.4881 0.4252
C12 C 0.5861(3) 0.40926(13) 0.3917(3)
C13 C 0.6915(3) 0.42594(10) 0.4179(2)
C14 C 0.7624(3) 0.43843(12) 0.3688(2)
H9 H 0.7476 0.4338 0.3191
C15 C 0.8527(3) 0.45729(12) 0.3930(2)
H10 H 0.8978 0.4659 0.3588
C16 C 0.8160(3) 0.45046(11) 0.5115(2)
H11 H 0.8352 0.4533 0.5611
C17 C 0.7221(3) 0.43218(11) 0.4902(2)
H12 H 0.6783 0.4238 0.5254
N1 N 0.8807(2) 0.46427(9) 0.46427(16)
H15 H 0.540(2) 0.4536(9) 0.3121(17)
H16 H 0.450(3) 0.4304(10) 0.3356(19)
H17 H 0.008(3) 0.7904(10) 0.0927(19)
H27 H 0.549(2) 0.3971(10) 0.4330(18)
H28 H 0.597(3) 0.3893(12) 0.364(2)
C24 C 0.4303(3) 0.51103(11) 0.36910(19)
C25 C 0.3283(3) 0.50556(12) 0.3403(2)
H33 H 0.2976 0.4799 0.3414
C26 C 0.2714(3) 0.53790(12) 0.31000(19)
H34 H 0.2025 0.5333 0.2912
C27 C 0.4093(3) 0.58111(12) 0.33321(19)
H35 H 0.4386 0.6070 0.3314
C28 C 0.4697(3) 0.54971(12) 0.3636(2)
H36 H 0.5390 0.5549 0.3809
C29 C 0.1728(3) 0.70853(12) 0.2215(2)
H37 H 0.2415 0.7126 0.2410
C30 C 0.1188(3) 0.74160(11) 0.1918(2)
H38 H 0.1505 0.7672 0.1926
C31 C 0.0180(3) 0.73687(12) 0.1611(2)
C33 C 0.0354(3) 0.66643(11) 0.19576(19)
H40 H 0.0049 0.6407 0.1970
C54 C 0.1143(3) 0.55658(11) 0.0842(2)
C55 C 0.1704(3) 0.56135(12) 0.0193(2)
C56 C 0.2620(3) 0.58738(12) 0.0383(2)
C57 C 0.2553(3) 0.59990(11) 0.11542(19)
C58 C 0.1629(3) 0.58080(11) 0.1404(2)
C59 C 0.1851(3) 0.64833(11) 0.41470(19)
C60 C 0.2782(3) 0.66642(11) 0.3892(2)
C61 C 0.3279(3) 0.69114(11) 0.44536(19)
C62 C 0.2705(3) 0.68773(11) 0.5095(2)
C63 C 0.1776(3) 0.66154(11) 0.4915(2)
N3 N 0.1331(2) 0.67097(9) 0.22405(14)
N4 N 0.3106(2) 0.57556(9) 0.30633(14)
O2 O 0.03337(19) 0.53400(7) 0.08823(12)
O5 O 0.31588(18) 0.62214(7) 0.15390(13)
O6 O 0.13309(17) 0.58533(7) 0.20423(12)
O7 O 0.12482(17) 0.62570(7) 0.37665(13)
O8 O 0.30910(17) 0.66106(7) 0.32594(12)
O11 O 0.1085(2) 0.65305(8) 0.53046(15)
Cu1 Cu 0.0000 0.5000 0.0000
Cu2 Cu 0.22119(3) 0.623270(12) 0.26530(2)
Cu5_2 Cu 1.0000 0.5000 0.5000
C73 C 0.4074(4) 0.40831(15) 0.1114(3)
C77 C 0.9619(3) 0.81255(13) 0.3856(2)
H60 H 0.9964 0.8530 0.4702
C81 C 0.9395(4) 0.77630(14) 0.4325(3)
C82 C 0.5105(3) 0.47446(12) 0.0993(2)
H63 H 0.4512 0.4839 0.0674
H64 H 0.5615 0.4627 0.0690
C83 C 0.4734(4) 0.44188(15) 0.1498(3)
C90 C 0.8332(3) 0.55999(11) 0.5032(2)
O21 O 0.87147(19) 0.54174(8) 0.55781(13)
H69 H 0.442(2) 0.3995(10) 0.0722(17)
H70 H 0.390(3) 0.3847(13) 0.144(2)
H75 H 0.993(2) 0.8046(10) 0.3331(19)
H76 H 0.898(2) 0.8250(8) 0.3669(15)
H79 H 0.997(3) 0.7666(11) 0.457(2)
H80 H 0.896(2) 0.7825(10) 0.4651(17)
H81 H 0.437(3) 0.4560(11) 0.186(2)
H82 H 0.532(2) 0.4297(9) 0.1773(18)
C91 C 0.1347(3) 0.45070(13) 0.1023(2)
H85 H 0.0837 0.4557 0.1346
C92 C 0.2245(4) 0.43200(13) 0.1277(2)
H86 H 0.2335 0.4241 0.1764
C93 C 0.3038(3) 0.42438(11) 0.0819(2)
C94 C 0.2821(3) 0.43500(11) 0.0095(2)
H104 H 0.3803 0.2073 0.0320
C116 C 0.8868(3) 0.74135(11) 0.39114(19)
C117 C 0.9399(3) 0.70681(12) 0.3763(2)
C118 C 0.8937(3) 0.67513(11) 0.3382(2)
H106 H 0.9337 0.6522 0.3291
C119 C 0.7390(3) 0.71036(12) 0.3266(2)
H107 H 0.6685 0.7120 0.3096
C120 C 0.7826(3) 0.74286(12) 0.3637(2)
H108 H 0.7425 0.7660 0.3705
C121 C 0.7026(3) 0.54247(12) 0.2091(2)
H109 H 0.7721 0.5412 0.2285
C122 C 0.6616(3) 0.50939(12) 0.1716(2)
H110 H 0.7027 0.4863 0.1668
C123 C 0.5594(3) 0.51015(12) 0.1408(2)
C124 C 0.5036(3) 0.54530(13) 0.1517(2)
H111 H 0.4342 0.5473 0.1325
C125 C 0.5486(3) 0.57731(12) 0.1904(2)
H112 H 0.5081 0.6004 0.1968
C136 C 0.5647(3) 0.69253(11) 0.09744(19)
C137 C 0.6088(3) 0.69086(11) 0.0273(2)
C138 C 0.7064(3) 0.66667(11) 0.0365(2)
C139 C 0.7172(3) 0.65279(11) 0.1133(2)
C140 C 0.6275(3) 0.66868(10) 0.1476(2)
C141 C 0.7229(3) 0.59931(11) 0.4202(2)
C142 C 0.8120(3) 0.58409(10) 0.3844(2)
C143 C 0.8765(3) 0.55953(11) 0.43329(19)
C144 C 0.7350(3) 0.58450(11) 0.4974(2)
N11 N 0.1158(2) 0.46237(9) 0.03224(17)
N18 N 0.6474(2) 0.57689(9) 0.21922(14)
N19 N 0.7915(2) 0.67603(9) 0.31314(14)
O37 O 0.48305(18) 0.71334(7) 0.10936(12)
O44 O 0.78803(18) 0.63257(7) 0.14490(14)
O45 O 0.61255(17) 0.66254(7) 0.21464(12)
O46 O 0.65164(18) 0.61962(7) 0.39003(14)
O47 O 0.82593(17) 0.59069(7) 0.31764(12)
O48 O 0.95723(18) 0.53906(7) 0.42016(12)
O50 O 0.6757(2) 0.58987(8) 0.54489(15)
Cu13 Cu 0.44126(3) 0.750600(14) 0.02573(2)
Cu14 Cu 0.71908(3) 0.626431(12) 0.26636(2)
O3 O 0.1437(2) 0.54571(8) 0.95940(13)
O4 O 0.3315(2) 0.59602(8) 0.99885(15)
Cu1_2 Cu 0.0000 0.5000 1.0000
C76 C 0.0426(4) 0.22807(14) 0.8736(2)
C79 C 0.1467(3) 0.16354(12) 0.8540(2)
H61 H 0.1100 0.1513 0.8928
H62 H 0.1564 0.1426 0.8179
C80 C 0.0785(4) 0.19812(14) 0.8183(3)
H74 H 0.098(3) 0.2361(9) 0.9024(18)
H77 H 0.120(2) 0.2141(9) 0.7815(17)
H78 H 0.012(2) 0.1859(9) 0.7933(17)
H87 H 0.3311 0.4296 0.9759
C95 C 0.1890(3) 0.45333(12) 0.9868(2)
H88 H 0.1761 0.4598 0.9376
C104 C 0.0237(3) 0.30193(12) 0.8355(2)
H95 H 0.0923 0.3068 0.8546
C111 C 0.4217(3) 0.20329(12) 0.8675(2)
H101 H 0.4734 0.2088 0.8360
C112 C 0.3310(3) 0.18650(12) 0.8392(2)
H102 H 0.3214 0.1806 0.7896
C113 C 0.2517(3) 0.17804(11) 0.8848(2)
C114 C 0.2733(3) 0.18600(12) 0.9574(2)
H103 H 0.2236 0.1800 0.9902
C115 C 0.3672(3) 0.20261(11) 0.9822(2)
N15 N 0.4417(2) 0.21246(9) 0.93777(17)
O40 O 0.5712(2) 0.70845(8) 0.97212(13)
O43 O 0.7680(2) 0.66084(8) 0.98987(15)
Cu11 Cu 0.55874(3) 0.249400(14) 0.97427(2)
C4 C 0.9574(4) 0.77193(14) 0.1264(2)
C7 C 0.8533(3) 0.83646(12) 0.1460(2)
H5 H 0.8900 0.8487 0.1072
H6 H 0.8436 0.8574 0.1821
C8 C 0.9215(4) 0.80188(14) 0.1817(3)
H18 H 0.902(3) 0.7639(9) 0.0976(18)
H21 H 0.880(2) 0.7859(9) 0.2185(17)
H22 H 0.988(2) 0.8141(9) 0.2067(17)
H31 H 0.6689 0.5704 0.0241
C23 C 0.8110(3) 0.54667(12) 0.0132(2)
H32 H 0.8239 0.5402 0.0624
C32 C 0.9763(3) 0.69807(12) 0.1645(2)
H39 H 0.9077 0.6932 0.1454
C39 C 0.5783(3) 0.79671(12) 0.1325(2)
H45 H 0.5266 0.7912 0.1640
C40 C 0.6690(3) 0.81350(12) 0.1608(2)
H46 H 0.6786 0.8194 0.2104
C41 C 0.7483(3) 0.82196(11) 0.1152(2)
C42 C 0.7267(3) 0.81400(12) 0.0426(2)
H47 H 0.7764 0.8200 0.0098
C43 C 0.6328(3) 0.79739(11) 0.0178(2)
N6 N 0.5583(2) 0.78754(9) 0.06223(17)
O13 O 0.4288(2) 0.29155(8) 0.02788(13)
O14 O 0.2320(2) 0.33916(8) 0.01013(15)
Cu1_3 Cu 1.0000 0.5000 0.0000
O24 O 0.8563(2) 0.45429(8) 0.04060(13)
O25 O 0.6685(2) 0.40398(8) 0.00115(15)
C1 C 0.5926(4) 0.59169(15) 0.8886(3)
C5 C 0.0381(3) 0.18745(13) 0.6144(2)
H4 H 0.0036 0.1470 0.5298
C9 C 0.0605(4) 0.22370(14) 0.5675(3)
C10 C 0.4895(3) 0.52554(12) 0.9007(2)
H7 H 0.5488 0.5161 0.9326
H8 H 0.4385 0.5373 0.9310
C11 C 0.5266(4) 0.55812(15) 0.8502(3)
C18 C 0.1668(3) 0.44001(11) 0.4968(2)
H13 H 0.558(2) 0.6005(10) 0.9278(17)
H14 H 0.610(3) 0.6153(13) 0.856(2)
H19 H 0.007(2) 0.1954(10) 0.6669(19)
H20 H 0.102(2) 0.1750(8) 0.6331(15)
H23 H 0.003(3) 0.2334(11) 0.543(2)
H24 H 0.104(2) 0.2175(10) 0.5349(17)
H25 H 0.563(3) 0.5440(11) 0.814(2)
H26 H 0.468(2) 0.5703(9) 0.8227(18)
C19 C 0.8653(3) 0.54930(13) 0.8977(2)
H29 H 0.9163 0.5443 0.8654
C20 C 0.7755(4) 0.56800(13) 0.8723(2)
H30 H 0.7665 0.5759 0.8236
C21 C 0.6962(3) 0.57562(11) 0.9181(2)
C22 C 0.7179(3) 0.56500(11) 0.9905(2)
H48 H 0.6197 0.7927 0.9680
C44 C 0.1132(3) 0.25865(11) 0.60886(19)
C45 C 0.0601(3) 0.29319(12) 0.6237(2)
C46 C 0.1063(3) 0.32487(11) 0.6618(2)
H50 H 0.0663 0.3478 0.6709
C47 C 0.2610(3) 0.28964(12) 0.6734(2)
H51 H 0.3315 0.2880 0.6904
C48 C 0.2174(3) 0.25714(12) 0.6363(2)
H52 H 0.2575 0.2340 0.6295
C49 C 0.2974(3) 0.45753(12) 0.7909(2)
H53 H 0.2279 0.4588 0.7715
C50 C 0.3384(3) 0.49061(12) 0.8284(2)
H54 H 0.2973 0.5137 0.8332
C51 C 0.4406(3) 0.48985(12) 0.8592(2)
C52 C 0.4964(3) 0.45470(13) 0.8483(2)
H55 H 0.5658 0.4527 0.8675
C53 C 0.4514(3) 0.42269(12) 0.8096(2)
H56 H 0.4919 0.3996 0.8032
C64 C 0.4353(3) 0.30747(11) 0.90256(19)
C65 C 0.3912(3) 0.30914(11) 0.9727(2)
C66 C 0.2936(3) 0.33333(11) 0.9635(2)
C67 C 0.2828(3) 0.34721(11) 0.8867(2)
C68 C 0.3725(3) 0.33132(10) 0.8524(2)
C69 C 0.2771(3) 0.40069(11) 0.5798(2)
C70 C 0.1880(3) 0.41591(10) 0.6156(2)
C71 C 0.1235(3) 0.44047(11) 0.56671(19)
C72 C 0.2650(3) 0.41550(11) 0.5026(2)
N2 N 0.8842(2) 0.53763(9) 0.96776(17)
N7 N 0.3526(2) 0.42311(9) 0.78078(14)
N8 N 0.2085(2) 0.32397(9) 0.68686(14)
O12 O 0.51695(18) 0.28666(7) 0.89064(12)
O15 O 0.21197(18) 0.36743(7) 0.85510(14)
O16 O 0.38745(17) 0.33746(7) 0.78536(12)
O17 O 0.34836(18) 0.38038(7) 0.60997(14)
O18 O 0.17407(17) 0.40931(7) 0.68236(12)
O20 O 0.3243(2) 0.41013(8) 0.45511(15)
Cu1_4 Cu 1.0000 0.5000 1.0000
Cu4 Cu 0.28092(3) 0.373569(12) 0.73364(2)
C74 C 0.4846(4) 0.55819(13) 0.6454(2)
C75 C 0.5058(3) 0.52294(11) 0.59480(19)
H57 H 0.5424 0.5333 0.5544
H58 H 0.4391 0.5119 0.5748
C84 C 0.4139(3) 0.59074(13) 0.6083(3)
C85 C 0.3085(3) 0.57406(10) 0.5821(2)
C86 C 0.2376(3) 0.56157(12) 0.6312(2)
H65 H 0.2524 0.5662 0.6809
C87 C 0.1473(3) 0.54271(12) 0.6070(2)
H66 H 0.1022 0.5341 0.6412
C88 C 0.1840(3) 0.54954(11) 0.4885(2)
H67 H 0.1648 0.5467 0.4389
C89 C 0.2779(3) 0.56782(11) 0.5098(2)
H68 H 0.3217 0.5762 0.4746
H71 H 0.460(2) 0.5464(9) 0.6879(17)
H72 H 0.550(3) 0.5696(10) 0.6644(19)
H73 H 0.992(3) 0.2096(10) 0.9073(19)
H83 H 0.451(2) 0.6029(10) 0.5670(18)
H84 H 0.403(3) 0.6107(12) 0.636(2)
C96 C 0.5697(3) 0.48897(11) 0.63090(19)
C97 C 0.6717(3) 0.49444(12) 0.6597(2)
H89 H 0.7024 0.5201 0.6586
C98 C 0.7286(3) 0.46210(12) 0.69000(19)
H90 H 0.7975 0.4667 0.7088
C99 C 0.5907(3) 0.41889(12) 0.66679(19)
H91 H 0.5614 0.3930 0.6686
C100 C 0.5303(3) 0.45029(12) 0.6364(2)
H92 H 0.4610 0.4451 0.6191
C101 C 0.8272(3) 0.29147(12) 0.7785(2)
H93 H 0.7585 0.2874 0.7590
C102 C 0.8812(3) 0.25840(11) 0.8082(2)
H94 H 0.8495 0.2328 0.8074
C103 C 0.9820(3) 0.26313(12) 0.8389(2)
C105 C 0.9646(3) 0.33357(11) 0.80424(19)
H96 H 0.9951 0.3593 0.8030
C126 C 0.8857(3) 0.44342(11) 0.9158(2)
C127 C 0.8296(3) 0.43865(12) 0.9807(2)
C128 C 0.7380(3) 0.41262(12) 0.9617(2)
C129 C 0.7447(3) 0.40010(11) 0.88458(19)
C130 C 0.8371(3) 0.41920(11) 0.8596(2)
C131 C 0.8149(3) 0.35167(11) 0.58530(19)
C132 C 0.7218(3) 0.33358(11) 0.6108(2)
C133 C 0.6721(3) 0.30886(11) 0.55464(19)
C134 C 0.7295(3) 0.31227(11) 0.4905(2)
C135 C 0.8224(3) 0.33846(11) 0.5085(2)
N12 N 0.8669(2) 0.32903(9) 0.77595(14)
N13 N 0.6894(2) 0.42444(9) 0.69367(14)
O23 O 0.96663(19) 0.46600(7) 0.91177(12)
O26 O 0.68412(18) 0.37786(7) 0.84610(13)
O27 O 0.86691(17) 0.41467(7) 0.79577(12)
O28 O 0.87518(17) 0.37430(7) 0.62335(13)
O29 O 0.69090(17) 0.33894(7) 0.67406(12)
O30 O 0.59163(19) 0.28669(8) 0.55941(12)
O33 O 0.7037(2) 0.29573(8) 0.43101(13)
O36 O 0.8915(2) 0.34695(8) 0.46954(15)
Cu6 Cu 0.77881(3) 0.376730(12) 0.73470(2)
Cu12 Cu 0.55874(3) 0.250600(14) 0.47427(2)
C6 C 0.9698(3) 0.15570(11) 0.5727(2)
H3 H 0.9619 0.1320 0.6034
C34 C 0.8640(3) 0.17321(11) 0.5499(2)
C35 C 0.8328(3) 0.18109(11) 0.4774(2)
H41 H 0.8754 0.1731 0.4412
C36 C 0.7392(3) 0.20060(11) 0.4586(2)
H42 H 0.7193 0.2046 0.4093
C37 C 0.7045(3) 0.20559(12) 0.5768(2)
H43 H 0.6605 0.2140 0.6119
C38 C 0.7957(3) 0.18514(11) 0.5994(2)
H44 H 0.8108 0.1794 0.6487
H49 H 0.9895 0.2953 0.6071
N5 N 0.6764(2) 0.21386(9) 0.50673(17)
N16 N 0.4417(2) 0.28754(9) 0.43777(17)
O38 O 0.51695(18) 0.21334(7) 0.39064(12)
O41 O 0.4288(2) 0.20845(8) 0.52788(13)
Cu15 Cu -0.0000 0.0000 0.0000
Cu15_2 Cu -0.0000 0.0000 1.0000
C35_2 C 0.1672(3) 0.68109(11) 0.0226(2)
H41_2 H 0.1246 0.6731 0.0588
C36_2 C 0.2608(3) 0.70060(11) 0.0414(2)
H42_2 H 0.2807 0.7046 0.0907
O34 O 0.2963(2) 0.79573(8) 0.06899(13)
Cu15_3 Cu -0.0000 1.0000 0.0000
C6_2 C 0.0302(3) 0.65570(11) 0.9273(2)
H3_2 H 0.0381 0.6320 0.8966
C34_2 C 0.1360(3) 0.67321(11) 0.9501(2)
C37_2 C 0.2955(3) 0.70559(12) 0.9232(2)
H43_2 H 0.3395 0.7140 0.8881
C38_2 C 0.2043(3) 0.68514(11) 0.9006(2)
H44_2 H 0.1892 0.6794 0.8513
H49_2 H 0.0105 0.7953 0.8929
N5_2 N 0.3236(2) 0.71386(9) 0.99327(17)
O31 O 0.40837(19) 0.78669(8) 0.94059(12)
Cu15_4 Cu -0.0000 1.0000 1.0000
C88_2 C 0.8160(3) 0.04954(11) 0.0115(2)
H67_2 H 0.8352 0.0467 0.0611
H68_2 H 0.6783 0.0762 0.0254
Cu15_5 Cu 1.0000 0.0000 0.0000
C1_2 C 0.4074(4) 0.09169(15) 0.6114(3)
C4_2 C 0.0426(4) 0.27193(14) 0.3736(2)
C7_2 C 0.1467(3) 0.33646(12) 0.3540(2)
H5_2 H 0.1100 0.3487 0.3928
H6_2 H 0.1564 0.3574 0.3179
C8_2 C 0.0785(4) 0.30188(14) 0.3183(3)
C10_2 C 0.5105(3) 0.02554(12) 0.5993(2)
H7_2 H 0.4512 0.0161 0.5674
H8_2 H 0.5615 0.0373 0.5690
C11_2 C 0.4734(4) 0.05812(15) 0.6498(3)
H13_2 H 0.442(2) 0.1005(10) 0.5722(17)
H14_2 H 0.390(3) 0.1153(13) 0.644(2)
H18_2 H 0.098(3) 0.2639(9) 0.4024(18)
H21_2 H 0.120(2) 0.2859(9) 0.2815(17)
H22_2 H 0.012(2) 0.3141(9) 0.2933(17)
H25_2 H 0.437(3) 0.0440(11) 0.686(2)
H26_2 H 0.532(2) 0.0703(9) 0.6773(18)
C19_2 C 0.1347(3) 0.04930(13) 0.6023(2)
H29_2 H 0.0837 0.0443 0.6346
C20_2 C 0.2245(4) 0.06800(13) 0.6277(2)
H30_2 H 0.2335 0.0759 0.6764
C21_2 C 0.3038(3) 0.07562(11) 0.5819(2)
C22_2 C 0.2821(3) 0.06500(11) 0.5095(2)
H31_2 H 0.3311 0.0704 0.4759
C23_2 C 0.1890(3) 0.04667(12) 0.4868(2)
H32_2 H 0.1761 0.0402 0.4376
C32_2 C 0.0237(3) 0.19807(12) 0.3355(2)
H39_2 H 0.0923 0.1932 0.3546
C39_2 C 0.4217(3) 0.29671(12) 0.3675(2)
H45_2 H 0.4734 0.2912 0.3360
C40_2 C 0.3310(3) 0.31350(12) 0.3392(2)
H46_2 H 0.3214 0.3194 0.2896
C41_2 C 0.2517(3) 0.32196(11) 0.3848(2)
C42_2 C 0.2733(3) 0.31400(12) 0.4574(2)
H47_2 H 0.2236 0.3200 0.4902
C43_2 C 0.3672(3) 0.29739(11) 0.4822(2)
H48_2 H 0.3803 0.2927 0.5320
H54_2 H 0.7027 0.0137 0.6668
N2_2 N 0.1158(2) 0.03763(9) 0.53224(17)
Cu1_5 Cu -0.0000 0.0000 0.5000
C74_2 C 0.5154(4) 0.05819(13) 0.8546(2)
C75_2 C 0.4942(3) 0.02294(11) 0.90520(19)
H57_2 H 0.4576 0.0333 0.9456
H58_2 H 0.5609 0.0119 0.9252
C84_2 C 0.5861(3) 0.09074(13) 0.8917(3)
C85_2 C 0.6915(3) 0.07406(10) 0.9179(2)
C86_2 C 0.7624(3) 0.06157(12) 0.8688(2)
H65_2 H 0.7476 0.0662 0.8191
C87_2 C 0.8527(3) 0.04271(12) 0.8930(2)
H66_2 H 0.8978 0.0341 0.8588
C89_2 C 0.7221(3) 0.06782(11) 0.9902(2)
N9 N 0.8807(2) 0.03573(9) 0.96427(16)
H71_2 H 0.540(2) 0.0464(9) 0.8121(17)
H72_2 H 0.450(3) 0.0696(10) 0.8356(19)
H83_2 H 0.549(2) 0.1029(10) 0.9330(18)
H84_2 H 0.597(3) 0.1107(12) 0.864(2)
H89_2 H 0.2976 0.0201 0.8414
Cu15_6 Cu 1.0000 0.0000 1.0000
C18_2 C 0.8332(3) 0.94001(11) 0.0032(2)
O1 O 0.87147(19) 0.95826(8) 0.05781(13)
O20_2 O 0.6757(2) 0.91013(8) 0.04489(15)
C134_2 C 0.2705(3) 0.81227(11) 0.0095(2)
O36_2 O 0.1085(2) 0.84695(8) 0.03046(15)
Cu15_7 Cu 1.0000 1.0000 0.0000
C5_2 C 0.9619(3) 0.68745(13) 0.8856(2)
H4_2 H 0.9964 0.6470 0.9702
C9_2 C 0.9395(4) 0.72370(14) 0.9325(3)
H19_2 H 0.993(2) 0.6954(10) 0.8331(19)
H20_2 H 0.898(2) 0.6750(8) 0.8669(15)
H23_2 H 0.997(3) 0.7334(11) 0.957(2)
H24_2 H 0.896(2) 0.7175(10) 0.9651(17)
C44_2 C 0.8868(3) 0.75865(11) 0.89114(19)
C45_2 C 0.9399(3) 0.79319(12) 0.8763(2)
C46_2 C 0.8937(3) 0.82487(11) 0.8382(2)
H50_2 H 0.9337 0.8478 0.8291
C47_2 C 0.7390(3) 0.78964(12) 0.8266(2)
H51_2 H 0.6685 0.7880 0.8096
C48_2 C 0.7826(3) 0.75714(12) 0.8637(2)
H52_2 H 0.7425 0.7340 0.8705
C49_2 C 0.7026(3) 0.95753(12) 0.7091(2)
H53_2 H 0.7721 0.9588 0.7285
C50_2 C 0.6616(3) 0.99061(12) 0.6716(2)
C51_2 C 0.5594(3) 0.98985(12) 0.6408(2)
C52_2 C 0.5036(3) 0.95470(13) 0.6517(2)
H55_2 H 0.4342 0.9527 0.6325
C53_2 C 0.5486(3) 0.92269(12) 0.6904(2)
H56_2 H 0.5081 0.8996 0.6968
C64_2 C 0.5647(3) 0.80747(11) 0.59744(19)
C65_2 C 0.6088(3) 0.80914(11) 0.5273(2)
C66_2 C 0.7064(3) 0.83333(11) 0.5365(2)
C67_2 C 0.7172(3) 0.84721(11) 0.6133(2)
C68_2 C 0.6275(3) 0.83132(10) 0.6476(2)
C69_2 C 0.7229(3) 0.90069(11) 0.9202(2)
C70_2 C 0.8120(3) 0.91591(10) 0.8844(2)
C71_2 C 0.8765(3) 0.94047(11) 0.93329(19)
C72_2 C 0.7350(3) 0.91550(11) 0.9974(2)
N7_2 N 0.6474(2) 0.92311(9) 0.71922(14)
N8_2 N 0.7915(2) 0.82397(9) 0.81314(14)
O14_2 O 0.7680(2) 0.83916(8) 0.48987(15)
O15_2 O 0.78803(18) 0.86743(7) 0.64490(14)
O16_2 O 0.61255(17) 0.83746(7) 0.71464(12)
O17_2 O 0.65164(18) 0.88038(7) 0.89003(14)
O18_2 O 0.82593(17) 0.90931(7) 0.81764(12)
O19 O 0.95723(18) 0.96094(7) 0.92016(12)
Cu1_6 Cu -0.0000 1.0000 0.5000
Cu4_2 Cu 0.71908(3) 0.873569(12) 0.76636(2)
H73_2 H 0.008(3) 0.7096(10) 0.5927(19)
C96_2 C 0.4303(3) 0.98897(11) 0.86910(19)
C97_2 C 0.3283(3) 0.99444(12) 0.8403(2)
C98_2 C 0.2714(3) 0.96210(12) 0.81000(19)
H90_2 H 0.2025 0.9667 0.7912
C99_2 C 0.4093(3) 0.91889(12) 0.83321(19)
H91_2 H 0.4386 0.8930 0.8314
C100_2 C 0.4697(3) 0.95029(12) 0.8636(2)
H92_2 H 0.5390 0.9451 0.8809
C101_2 C 0.1728(3) 0.79147(12) 0.7215(2)
H93_2 H 0.2415 0.7874 0.7410
C102_2 C 0.1188(3) 0.75840(11) 0.6918(2)
H94_2 H 0.1505 0.7328 0.6926
C103_2 C 0.0180(3) 0.76313(12) 0.6611(2)
C105_2 C 0.0354(3) 0.83357(11) 0.69576(19)
H96_2 H 0.0049 0.8593 0.6970
C126_2 C 0.1143(3) 0.94342(11) 0.5842(2)
C127_2 C 0.1704(3) 0.93865(12) 0.5193(2)
C128_2 C 0.2620(3) 0.91262(12) 0.5383(2)
C129_2 C 0.2553(3) 0.90010(11) 0.61542(19)
C130_2 C 0.1629(3) 0.91920(11) 0.6404(2)
C131_2 C 0.1851(3) 0.85167(11) 0.91470(19)
C132_2 C 0.2782(3) 0.83358(11) 0.8892(2)
C133_2 C 0.3279(3) 0.80886(11) 0.94536(19)
C135_2 C 0.1776(3) 0.83846(11) 0.9915(2)
N12_2 N 0.1331(2) 0.82903(9) 0.72405(14)
N13_2 N 0.3106(2) 0.92444(9) 0.80633(14)
O23_2 O 0.03337(19) 0.96600(7) 0.58823(12)
O24_2 O 0.1437(2) 0.95429(8) 0.45940(13)
O25_2 O 0.3315(2) 0.90398(8) 0.49885(15)
O26_2 O 0.31588(18) 0.87786(7) 0.65390(13)
O27_2 O 0.13309(17) 0.91467(7) 0.70423(12)
O28_2 O 0.12482(17) 0.87430(7) 0.87665(13)
O29_2 O 0.30910(17) 0.83894(7) 0.82594(12)
Cu6_2 Cu 0.22119(3) 0.876730(12) 0.76530(2)
Cu15_8 Cu 1.0000 1.0000 1.0000
H17_2 H 0.992(3) 0.2904(10) 0.4073(19)
C24_2 C 0.5697(3) 0.01103(11) 0.13090(19)
C25_2 C 0.6717(3) 0.00556(12) 0.1597(2)
C26_2 C 0.7286(3) 0.03790(12) 0.19000(19)
H34_2 H 0.7975 0.0333 0.2088
C27_2 C 0.5907(3) 0.08111(12) 0.16679(19)
H35_2 H 0.5614 0.1070 0.1686
C28_2 C 0.5303(3) 0.04971(12) 0.1364(2)
H36_2 H 0.4610 0.0549 0.1191
C29_2 C 0.8272(3) 0.20853(12) 0.2785(2)
H37_2 H 0.7585 0.2126 0.2590
C30_2 C 0.8812(3) 0.24160(11) 0.3082(2)
H38_2 H 0.8495 0.2672 0.3074
C31_2 C 0.9820(3) 0.23687(12) 0.3389(2)
C33_2 C 0.9646(3) 0.16643(11) 0.30424(19)
H40_2 H 0.9951 0.1407 0.3030
C54_2 C 0.8857(3) 0.05658(11) 0.4158(2)
C55_2 C 0.8296(3) 0.06135(12) 0.4807(2)
C56_2 C 0.7380(3) 0.08738(12) 0.4617(2)
C57_2 C 0.7447(3) 0.09990(11) 0.38458(19)
C58_2 C 0.8371(3) 0.08080(11) 0.3596(2)
C59_2 C 0.8149(3) 0.14833(11) 0.08530(19)
C60_2 C 0.7218(3) 0.16642(11) 0.1108(2)
C61_2 C 0.6721(3) 0.19114(11) 0.05464(19)
C63_2 C 0.8224(3) 0.16154(11) 0.0085(2)
N3_2 N 0.8669(2) 0.17097(9) 0.27595(14)
N4_2 N 0.6894(2) 0.07556(9) 0.19367(14)
O2_2 O 0.96663(19) 0.03400(7) 0.41177(12)
O3_2 O 0.8563(2) 0.04571(8) 0.54060(13)
O4_2 O 0.6685(2) 0.09602(8) 0.50115(15)
O5_2 O 0.68412(18) 0.12214(7) 0.34610(13)
O6_2 O 0.86691(17) 0.08533(7) 0.29577(12)
O7_2 O 0.87518(17) 0.12570(7) 0.12335(13)
O8_2 O 0.69090(17) 0.16106(7) 0.17406(12)
O9 O 0.59163(19) 0.21331(8) 0.05941(12)
Cu1_7 Cu 1.0000 0.0000 0.5000
Cu2_2 Cu 0.77881(3) 0.123270(12) 0.23470(2)
C77_2 C 0.0381(3) 0.31255(13) 0.1144(2)
H60_2 H 0.0036 0.3530 0.0298
C81_2 C 0.0605(4) 0.27630(14) 0.0675(3)
H75_2 H 0.007(2) 0.3046(10) 0.1669(19)
H76_2 H 0.102(2) 0.3250(8) 0.1331(15)
H79_2 H 0.003(3) 0.2666(11) 0.043(2)
H80_2 H 0.104(2) 0.2825(10) 0.0349(17)
C116_2 C 0.1132(3) 0.24135(11) 0.10886(19)
C117_2 C 0.0601(3) 0.20681(12) 0.1237(2)
C118_2 C 0.1063(3) 0.17513(11) 0.1618(2)
H106_2 H 0.0663 0.1522 0.1709
C119_2 C 0.2610(3) 0.21036(12) 0.1734(2)
H107_2 H 0.3315 0.2120 0.1904
C120_2 C 0.2174(3) 0.24286(12) 0.1363(2)
H108_2 H 0.2575 0.2660 0.1295
C121_2 C 0.2974(3) 0.04247(12) 0.2909(2)
H109_2 H 0.2279 0.0412 0.2715
C122_2 C 0.3384(3) 0.00939(12) 0.3284(2)
C123_2 C 0.4406(3) 0.01015(12) 0.3592(2)
C124_2 C 0.4964(3) 0.04530(13) 0.3483(2)
H111_2 H 0.5658 0.0473 0.3675
C125_2 C 0.4514(3) 0.07731(12) 0.3096(2)
H112_2 H 0.4919 0.1004 0.3032
C136_2 C 0.4353(3) 0.19253(11) 0.40256(19)
C137_2 C 0.3912(3) 0.19086(11) 0.4727(2)
C138_2 C 0.2936(3) 0.16667(11) 0.4635(2)
C139_2 C 0.2828(3) 0.15279(11) 0.3867(2)
C140_2 C 0.3725(3) 0.16868(10) 0.3524(2)
C141_2 C 0.2771(3) 0.09931(11) 0.0798(2)
C142_2 C 0.1880(3) 0.08409(10) 0.1156(2)
C143_2 C 0.1235(3) 0.05953(11) 0.06671(19)
C144_2 C 0.2650(3) 0.08450(11) 0.0026(2)
N18_2 N 0.3526(2) 0.07689(9) 0.28078(14)
N19_2 N 0.2085(2) 0.17603(9) 0.18686(14)
O43_2 O 0.2320(2) 0.16084(8) 0.51013(15)
O44_2 O 0.21197(18) 0.13257(7) 0.35510(14)
O45_2 O 0.38745(17) 0.16254(7) 0.28536(12)
O46_2 O 0.34836(18) 0.11962(7) 0.10997(14)
O47_2 O 0.17407(17) 0.09069(7) 0.18236(12)
O48_2 O 0.04277(18) 0.03906(7) 0.07984(12)
Cu14_2 Cu 0.28092(3) 0.126431(12) 0.23364(2)
C62_2 C 0.7295(3) 0.18773(11) 0.9905(2)
O10 O 0.7037(2) 0.20427(8) 0.93101(13)
O11_2 O 0.8915(2) 0.15305(8) 0.96954(15)
C90_2 C 0.1668(3) 0.05999(11) 0.9968(2)
O21_2 O 0.12853(19) 0.04174(8) 0.94219(13)
O50_2 O 0.3243(2) 0.08987(8) 0.95511(15)
C2_2 C 0.4846(4) 0.94181(13) 0.1454(2)
C3_2 C 0.5058(3) 0.97706(11) 0.09480(19)
H1_2 H 0.5424 0.9667 0.0544
H2_2 H 0.4391 0.9881 0.0748
C12_2 C 0.4139(3) 0.90926(13) 0.1083(3)
C13_2 C 0.3085(3) 0.92594(10) 0.0821(2)
C14_2 C 0.2376(3) 0.93843(12) 0.1312(2)
H9_2 H 0.2524 0.9338 0.1809
C15_2 C 0.1473(3) 0.95729(12) 0.1070(2)
H10_2 H 0.1022 0.9659 0.1412
C17_2 C 0.2779(3) 0.93218(11) 0.0098(2)
N1_2 N 0.1193(2) 0.96427(9) 0.03573(16)
H15_2 H 0.460(2) 0.9536(9) 0.1879(17)
H16_2 H 0.550(3) 0.9304(10) 0.1644(19)
H27_2 H 0.451(2) 0.8971(10) 0.0670(18)
H28_2 H 0.403(3) 0.8893(12) 0.136(2)
H33_2 H 0.7024 0.9799 0.1586
Cu1_8 Cu 1.0000 1.0000 0.5000
C73_2 C 0.5926(4) 0.90831(15) 0.3886(3)
C76_2 C 0.9574(4) 0.72807(14) 0.6264(2)
C79_2 C 0.8533(3) 0.66354(12) 0.6460(2)
H61_2 H 0.8900 0.6513 0.6072
H62_2 H 0.8436 0.6426 0.6821
C80_2 C 0.9215(4) 0.69812(14) 0.6817(3)
C82_2 C 0.4895(3) 0.97446(12) 0.4007(2)
H63_2 H 0.5488 0.9839 0.4326
H64_2 H 0.4385 0.9627 0.4310
C83_2 C 0.5266(4) 0.94188(15) 0.3502(3)
H69_2 H 0.558(2) 0.8995(10) 0.4278(17)
H70_2 H 0.610(3) 0.8847(13) 0.356(2)
H74_2 H 0.902(3) 0.7361(9) 0.5976(18)
H77_2 H 0.880(2) 0.7141(9) 0.7185(17)
H78_2 H 0.988(2) 0.6859(9) 0.7067(17)
H81_2 H 0.563(3) 0.9560(11) 0.314(2)
H82_2 H 0.468(2) 0.9297(9) 0.3227(18)
C91_2 C 0.8653(3) 0.95070(13) 0.3977(2)
H85_2 H 0.9163 0.9557 0.3654
C92_2 C 0.7755(4) 0.93200(13) 0.3723(2)
H86_2 H 0.7665 0.9241 0.3236
C93_2 C 0.6962(3) 0.92438(11) 0.4181(2)
C94_2 C 0.7179(3) 0.93500(11) 0.4905(2)
H87_2 H 0.6689 0.9296 0.5241
C95_2 C 0.8110(3) 0.95333(12) 0.5132(2)
H88_2 H 0.8239 0.9598 0.5624
C104_2 C 0.9763(3) 0.80193(12) 0.6645(2)
H95_2 H 0.9077 0.8068 0.6454
C111_2 C 0.5783(3) 0.70329(12) 0.6325(2)
H101_2 H 0.5266 0.7088 0.6640
C112_2 C 0.6690(3) 0.68650(12) 0.6608(2)
H102_2 H 0.6786 0.6806 0.7104
C113_2 C 0.7483(3) 0.67804(11) 0.6152(2)
C114_2 C 0.7267(3) 0.68600(12) 0.5426(2)
H103_2 H 0.7764 0.6800 0.5098
C115_2 C 0.6328(3) 0.70261(11) 0.5178(2)
H104_2 H 0.6197 0.7073 0.4680
H110_2 H 0.2973 0.9863 0.3332
N11_2 N 0.8842(2) 0.96237(9) 0.46776(17)
C16_2 C 0.1840(3) 0.95046(11) 0.9885(2)
H11_2 H 0.1648 0.9533 0.9389
H12_2 H 0.3217 0.9238 0.9746
C78_2 C 0.9698(3) 0.34430(11) 0.0727(2)
H59_2 H 0.9619 0.3680 0.1034
C106_2 C 0.8640(3) 0.32679(11) 0.0499(2)
C109_2 C 0.7045(3) 0.29441(12) 0.0768(2)
H99_2 H 0.6605 0.2860 0.1119
C110_2 C 0.7957(3) 0.31486(11) 0.0994(2)
H100_2 H 0.8108 0.3206 0.1487
H105_2 H 0.9895 0.2047 0.1071
N14_2 N 0.6764(2) 0.28614(9) 0.00673(17)
C107_2 C 0.8328(3) 0.31891(11) 0.9774(2)
H97_2 H 0.8754 0.3269 0.9412
C108_2 C 0.7392(3) 0.29940(11) 0.9586(2)
H98_2 H 0.7193 0.2954 0.9093
loop_
_geom_bond_atom_site_label_1
_geom_bond_atom_site_label_2
_geom_bond_site_symmetry_1
_geom_bond_site_symmetry_2
C78 H59 1_555 1_555
N10 Cu5 1_555 1_555
O22 Cu5 1_555 1_555
C106 C78 1_555 1_555
C107 C106 1_555 1_555
H97 C107 1_555 1_555
C108 C107 1_555 1_555
H98 C108 1_555 1_555
C109 H99 1_555 1_555
C110 C106 1_555 1_555
H100 C110 1_555 1_555
N14 C108 1_555 1_555
N17 Cu7 1_555 1_555
O32 Cu7 1_555 1_555
O35 Cu7 1_555 1_555
O39 Cu7 1_555 1_555
O42 Cu7 1_555 1_555
O49 Cu5 1_555 1_555
Cu7 N14 1_555 1_555
C109 C110 1_555 1_555
C109 N14 1_555 1_555
C2 C3 1_555 1_555
C3 H1 1_555 1_555
H2 C3 1_555 1_555
C12 C2 1_555 1_555
C13 C12 1_555 1_555
C14 C13 1_555 1_555
H9 C14 1_555 1_555
C15 C14 1_555 1_555
H10 C15 1_555 1_555
C16 H11 1_555 1_555
C17 C13 1_555 1_555
H12 C17 1_555 1_555
N1 C15 1_555 1_555
H15 C2 1_555 1_555
H16 C2 1_555 1_555
H27 C12 1_555 1_555
H28 C12 1_555 1_555
C24 C3 1_555 1_555
C25 C24 1_555 1_555
H33 C25 1_555 1_555
C26 C25 1_555 1_555
H34 C26 1_555 1_555
C27 H35 1_555 1_555
C28 C24 1_555 1_555
H36 C28 1_555 1_555
C29 H37 1_555 1_555
C30 C29 1_555 1_555
H38 C30 1_555 1_555
H40 C33 1_555 1_555
C54 C55 1_555 1_555
C55 C56 1_555 1_555
C56 C57 1_555 1_555
C57 C58 1_555 1_555
C58 C54 1_555 1_555
C59 C60 1_555 1_555
C60 C61 1_555 1_555
C61 C62 1_555 1_555
C62 C63 1_555 1_555
C63 C59 1_555 1_555
N3 C29 1_555 1_555
N4 C26 1_555 1_555
O2 C54 1_555 1_555
O5 C57 1_555 1_555
O6 C58 1_555 1_555
O7 C59 1_555 1_555
O8 C60 1_555 1_555
O32 C61 1_555 1_555
O35 C62 1_555 1_555
O11 C63 1_555 1_555
Cu2 N3 1_555 1_555
Cu5_2 N1 1_555 1_555
C73 C83 1_555 1_555
C81 C77 1_555 1_555
C82 H63 1_555 1_555
H64 C82 1_555 1_555
C83 C82 1_555 1_555
C90 O21 1_555 1_555
O21 Cu5_2 1_555 1_555
H69 C73 1_555 1_555
H70 C73 1_555 1_555
H75 C77 1_555 1_555
H76 C77 1_555 1_555
H79 C81 1_555 1_555
H80 C81 1_555 1_555
H81 C83 1_555 1_555
H82 C83 1_555 1_555
C91 H85 1_555 1_555
C92 C91 1_555 1_555
H86 C92 1_555 1_555
C93 C73 1_555 1_555
C94 C93 1_555 1_555
C116 C81 1_555 1_555
C117 C116 1_555 1_555
C118 C117 1_555 1_555
H106 C118 1_555 1_555
C119 H107 1_555 1_555
C120 C116 1_555 1_555
H108 C120 1_555 1_555
C121 H109 1_555 1_555
C122 C121 1_555 1_555
H110 C122 1_555 1_555
C123 C82 1_555 1_555
C124 C123 1_555 1_555
H111 C124 1_555 1_555
C125 C124 1_555 1_555
H112 C125 1_555 1_555
C136 C137 1_555 1_555
C137 C138 1_555 1_555
C138 C139 1_555 1_555
C139 C140 1_555 1_555
C140 C136 1_555 1_555
C141 C142 1_555 1_555
C142 C143 1_555 1_555
C143 C90 1_555 1_555
C144 C90 1_555 1_555
N11 Cu1 1_555 1_555
N18 C121 1_555 1_555
N19 C118 1_555 1_555
O37 C136 1_555 1_555
O44 C139 1_555 1_555
O45 C140 1_555 1_555
O46 C141 1_555 1_555
O47 C142 1_555 1_555
O48 Cu5_2 1_555 1_555
O50 C144 1_555 1_555
Cu13 O37 1_555 1_555
Cu14 N18 1_555 1_555
C16 C17 1_555 1_555
C16 N1 1_555 1_555
C27 C28 1_555 1_555
C27 N4 1_555 1_555
C30 C31 1_555 1_555
C33 N3 1_555 1_555
N4 Cu2 1_555 1_555
O2 Cu1 1_555 1_555
O5 Cu2 1_555 1_555
O6 Cu2 1_555 1_555
O7 Cu2 1_555 1_555
O8 Cu2 1_555 1_555
C91 N11 1_555 1_555
C92 C93 1_555 1_555
C119 C120 1_555 1_555
C119 N19 1_555 1_555
C122 C123 1_555 1_555
C125 N18 1_555 1_555
C141 C144 1_555 1_555
C143 O48 1_555 1_555
N19 Cu14 1_555 1_555
O44 Cu14 1_555 1_555
O45 Cu14 1_555 1_555
O46 Cu14 1_555 1_555
O47 Cu14 1_555 1_555
C76 C80 1_555 1_555
C79 H61 1_555 1_555
H62 C79 1_555 1_555
C80 C79 1_555 1_555
H74 C76 1_555 1_555
H77 C80 1_555 1_555
H78 C80 1_555 1_555
H88 C95 1_555 1_555
H95 C104 1_555 1_555
C111 H101 1_555 1_555
C112 C111 1_555 1_555
H102 C112 1_555 1_555
C113 C79 1_555 1_555
C114 C113 1_555 1_555
H103 C114 1_555 1_555
C115 C114 1_555 1_555
N15 C111 1_555 1_555
Cu11 N15 1_555 1_555
O3 Cu1_2 1_555 1_555
C112 C113 1_555 1_555
C115 N15 1_555 1_555
C4 C8 1_555 1_555
C7 H5 1_555 1_555
H6 C7 1_555 1_555
C8 C7 1_555 1_555
H18 C4 1_555 1_555
H21 C8 1_555 1_555
H22 C8 1_555 1_555
H32 C23 1_555 1_555
H39 C32 1_555 1_555
C39 H45 1_555 1_555
C40 C39 1_555 1_555
H46 C40 1_555 1_555
C41 C7 1_555 1_555
C42 C41 1_555 1_555
H47 C42 1_555 1_555
C43 C42 1_555 1_555
N6 C39 1_555 1_555
O24 Cu1_3 1_555 1_555
Cu13 N6 1_555 1_555
C40 C41 1_555 1_555
C43 N6 1_555 1_555
C1 C11 1_555 1_555
C9 C5 1_555 1_555
C10 H7 1_555 1_555
H8 C10 1_555 1_555
C11 C10 1_555 1_555
C18 O22 1_555 1_555
H13 C1 1_555 1_555
H14 C1 1_555 1_555
H19 C5 1_555 1_555
H20 C5 1_555 1_555
H23 C9 1_555 1_555
H24 C9 1_555 1_555
H25 C11 1_555 1_555
H26 C11 1_555 1_555
C19 H29 1_555 1_555
C20 C19 1_555 1_555
H30 C20 1_555 1_555
C21 C1 1_555 1_555
C22 C21 1_555 1_555
C44 C9 1_555 1_555
C45 C44 1_555 1_555
C46 C45 1_555 1_555
H50 C46 1_555 1_555
C47 H51 1_555 1_555
C48 C44 1_555 1_555
H52 C48 1_555 1_555
C49 H53 1_555 1_555
C50 C49 1_555 1_555
H54 C50 1_555 1_555
C51 C10 1_555 1_555
C52 C51 1_555 1_555
H55 C52 1_555 1_555
C53 C52 1_555 1_555
H56 C53 1_555 1_555
C64 C65 1_555 1_555
C65 C66 1_555 1_555
C66 C67 1_555 1_555
C67 C68 1_555 1_555
C68 C64 1_555 1_555
C69 C70 1_555 1_555
C70 C71 1_555 1_555
C71 C18 1_555 1_555
C72 C18 1_555 1_555
N2 C19 1_555 1_555
N7 C49 1_555 1_555
N8 C46 1_555 1_555
O12 C64 1_555 1_555
O15 C67 1_555 1_555
O16 C68 1_555 1_555
O17 C69 1_555 1_555
O18 C70 1_555 1_555
O49 C71 1_555 1_555
O20 C72 1_555 1_555
Cu1_4 N2 1_555 1_555
Cu4 N7 1_555 1_555
C74 C75 1_555 1_555
C75 H57 1_555 1_555
H58 C75 1_555 1_555
C84 C74 1_555 1_555
C85 C84 1_555 1_555
C86 C85 1_555 1_555
H65 C86 1_555 1_555
C87 C86 1_555 1_555
H66 C87 1_555 1_555
C88 H67 1_555 1_555
C89 C85 1_555 1_555
H68 C89 1_555 1_555
N10 C87 1_555 1_555
H71 C74 1_555 1_555
H72 C74 1_555 1_555
H83 C84 1_555 1_555
H84 C84 1_555 1_555
C96 C75 1_555 1_555
C97 C96 1_555 1_555
H89 C97 1_555 1_555
C98 C97 1_555 1_555
H90 C98 1_555 1_555
C99 H91 1_555 1_555
C100 C96 1_555 1_555
H92 C100 1_555 1_555
C101 H93 1_555 1_555
C102 C101 1_555 1_555
H94 C102 1_555 1_555
H96 C105 1_555 1_555
C126 C127 1_555 1_555
C127 C128 1_555 1_555
C128 C129 1_555 1_555
C129 C130 1_555 1_555
C130 C126 1_555 1_555
C131 C132 1_555 1_555
C132 C133 1_555 1_555
C133 C134 1_555 1_555
C134 C135 1_555 1_555
C135 C131 1_555 1_555
N12 C101 1_555 1_555
N13 C98 1_555 1_555
O23 Cu1_4 1_555 1_555
O26 C129 1_555 1_555
O27 C130 1_555 1_555
O28 C131 1_555 1_555
O29 C132 1_555 1_555
O30 C133 1_555 1_555
O33 C134 1_555 1_555
O36 C135 1_555 1_555
Cu6 N12 1_555 1_555
Cu11 O12 1_555 1_555
Cu12 O30 1_555 1_555
C20 C21 1_555 1_555
C47 C48 1_555 1_555
C47 N8 1_555 1_555
C50 C51 1_555 1_555
C53 N7 1_555 1_555
C69 C72 1_555 1_555
N8 Cu4 1_555 1_555
O15 Cu4 1_555 1_555
O16 Cu4 1_555 1_555
O17 Cu4 1_555 1_555
O18 Cu4 1_555 1_555
C88 C89 1_555 1_555
C88 N10 1_555 1_555
C99 C100 1_555 1_555
C99 N13 1_555 1_555
C102 C103 1_555 1_555
C105 N12 1_555 1_555
C126 O23 1_555 1_555
N13 Cu6 1_555 1_555
O26 Cu6 1_555 1_555
O27 Cu6 1_555 1_555
O28 Cu6 1_555 1_555
O29 Cu6 1_555 1_555
O33 Cu12 1_555 1_555
C6 H3 1_555 1_555
C34 C6 1_555 1_555
C35 C34 1_555 1_555
H41 C35 1_555 1_555
C36 C35 1_555 1_555
H42 C36 1_555 1_555
C37 H43 1_555 1_555
C38 C34 1_555 1_555
H44 C38 1_555 1_555
N5 C36 1_555 1_555
Cu12 N5 1_555 1_555
N16 Cu12 1_555 1_555
O38 Cu12 1_555 1_555
O41 Cu12 1_555 1_555
C37 C38 1_555 1_555
C37 N5 1_555 1_555
H41_2 C35_2 1_555 1_555
C36_2 C35_2 1_555 1_555
H42_2 C36_2 1_555 1_555
O34 Cu13 1_555 1_555
C6_2 H3_2 1_555 1_555
C34_2 C6_2 1_555 1_555
C37_2 H43_2 1_555 1_555
C38_2 C34_2 1_555 1_555
H44_2 C38_2 1_555 1_555
C37_2 C38_2 1_555 1_555
C37_2 N5_2 1_555 1_555
C88_2 H67_2 1_555 1_555
C1_2 C11_2 1_555 1_555
C4_2 C8_2 1_555 1_555
C7_2 H5_2 1_555 1_555
H6_2 C7_2 1_555 1_555
C8_2 C7_2 1_555 1_555
C10_2 H7_2 1_555 1_555
H8_2 C10_2 1_555 1_555
C11_2 C10_2 1_555 1_555
H13_2 C1_2 1_555 1_555
H14_2 C1_2 1_555 1_555
H18_2 C4_2 1_555 1_555
H21_2 C8_2 1_555 1_555
H22_2 C8_2 1_555 1_555
H25_2 C11_2 1_555 1_555
H26_2 C11_2 1_555 1_555
C19_2 H29_2 1_555 1_555
C20_2 C19_2 1_555 1_555
H30_2 C20_2 1_555 1_555
C21_2 C1_2 1_555 1_555
C22_2 C21_2 1_555 1_555
H31_2 C22_2 1_555 1_555
C23_2 C22_2 1_555 1_555
H32_2 C23_2 1_555 1_555
H39_2 C32_2 1_555 1_555
C39_2 H45_2 1_555 1_555
C40_2 C39_2 1_555 1_555
H46_2 C40_2 1_555 1_555
C41_2 C7_2 1_555 1_555
C42_2 C41_2 1_555 1_555
H47_2 C42_2 1_555 1_555
C43_2 C42_2 1_555 1_555
H48_2 C43_2 1_555 1_555
N2_2 C19_2 1_555 1_555
N16 C39_2 1_555 1_555
Cu1_5 N2_2 1_555 1_555
C74_2 C75_2 1_555 1_555
C75_2 H57_2 1_555 1_555
H58_2 C75_2 1_555 1_555
C84_2 C74_2 1_555 1_555
C85_2 C84_2 1_555 1_555
C86_2 C85_2 1_555 1_555
H65_2 C86_2 1_555 1_555
C87_2 C86_2 1_555 1_555
H66_2 C87_2 1_555 1_555
C89_2 C85_2 1_555 1_555
N9 C87_2 1_555 1_555
H71_2 C74_2 1_555 1_555
H72_2 C74_2 1_555 1_555
H83_2 C84_2 1_555 1_555
H84_2 C84_2 1_555 1_555
C20_2 C21_2 1_555 1_555
C23_2 N2_2 1_555 1_555
C40_2 C41_2 1_555 1_555
C43_2 N16 1_555 1_555
N9 Cu15_6 1_555 1_555
C18_2 O1 1_555 1_555
O1 Cu15_7 1_555 1_555
O34 C134_2 1_555 1_555
C9_2 C5_2 1_555 1_555
H19_2 C5_2 1_555 1_555
H20_2 C5_2 1_555 1_555
H23_2 C9_2 1_555 1_555
H24_2 C9_2 1_555 1_555
C44_2 C9_2 1_555 1_555
C45_2 C44_2 1_555 1_555
C46_2 C45_2 1_555 1_555
H50_2 C46_2 1_555 1_555
C47_2 H51_2 1_555 1_555
C48_2 C44_2 1_555 1_555
H52_2 C48_2 1_555 1_555
C49_2 H53_2 1_555 1_555
C50_2 C49_2 1_555 1_555
C52_2 C51_2 1_555 1_555
H55_2 C52_2 1_555 1_555
C53_2 C52_2 1_555 1_555
H56_2 C53_2 1_555 1_555
C64_2 C65_2 1_555 1_555
C65_2 C66_2 1_555 1_555
C66_2 C67_2 1_555 1_555
C67_2 C68_2 1_555 1_555
C68_2 C64_2 1_555 1_555
C69_2 C70_2 1_555 1_555
C70_2 C71_2 1_555 1_555
N7_2 C49_2 1_555 1_555
N8_2 C46_2 1_555 1_555
O39 C64_2 1_555 1_555
O42 C65_2 1_555 1_555
O14_2 C66_2 1_555 1_555
O15_2 C67_2 1_555 1_555
O16_2 C68_2 1_555 1_555
O17_2 C69_2 1_555 1_555
O18_2 C70_2 1_555 1_555
O19 C71_2 1_555 1_555
Cu4_2 N7_2 1_555 1_555
C97_2 C96_2 1_555 1_555
C98_2 C97_2 1_555 1_555
H90_2 C98_2 1_555 1_555
C99_2 H91_2 1_555 1_555
C100_2 C96_2 1_555 1_555
H92_2 C100_2 1_555 1_555
C101_2 H93_2 1_555 1_555
C102_2 C101_2 1_555 1_555
H94_2 C102_2 1_555 1_555
H96_2 C105_2 1_555 1_555
C126_2 C127_2 1_555 1_555
C127_2 C128_2 1_555 1_555
C128_2 C129_2 1_555 1_555
C129_2 C130_2 1_555 1_555
C130_2 C126_2 1_555 1_555
C131_2 C132_2 1_555 1_555
C132_2 C133_2 1_555 1_555
C135_2 C131_2 1_555 1_555
N12_2 C101_2 1_555 1_555
N13_2 C98_2 1_555 1_555
O23_2 Cu1_6 1_555 1_555
O24_2 Cu1_6 1_555 1_555
O25_2 C128_2 1_555 1_555
O26_2 C129_2 1_555 1_555
O27_2 C130_2 1_555 1_555
O28_2 C131_2 1_555 1_555
O29_2 C132_2 1_555 1_555
O31 C133_2 1_555 1_555
Cu6_2 N12_2 1_555 1_555
Cu15_8 O19 1_555 1_555
C47_2 C48_2 1_555 1_555
C47_2 N8_2 1_555 1_555
C50_2 C51_2 1_555 1_555
C53_2 N7_2 1_555 1_555
C69_2 C72_2 1_555 1_555
N8_2 Cu4_2 1_555 1_555
O15_2 Cu4_2 1_555 1_555
O16_2 Cu4_2 1_555 1_555
O17_2 Cu4_2 1_555 1_555
O18_2 Cu4_2 1_555 1_555
C99_2 C100_2 1_555 1_555
C99_2 N13_2 1_555 1_555
C102_2 C103_2 1_555 1_555
C105_2 N12_2 1_555 1_555
C126_2 O23_2 1_555 1_555
C127_2 O24_2 1_555 1_555
N13_2 Cu6_2 1_555 1_555
O26_2 Cu6_2 1_555 1_555
O27_2 Cu6_2 1_555 1_555
O28_2 Cu6_2 1_555 1_555
O29_2 Cu6_2 1_555 1_555
C25_2 C24_2 1_555 1_555
C26_2 C25_2 1_555 1_555
H34_2 C26_2 1_555 1_555
C27_2 H35_2 1_555 1_555
C28_2 C24_2 1_555 1_555
H36_2 C28_2 1_555 1_555
C29_2 H37_2 1_555 1_555
C30_2 C29_2 1_555 1_555
H38_2 C30_2 1_555 1_555
H40_2 C33_2 1_555 1_555
C54_2 C55_2 1_555 1_555
C55_2 C56_2 1_555 1_555
C56_2 C57_2 1_555 1_555
C57_2 C58_2 1_555 1_555
C58_2 C54_2 1_555 1_555
C59_2 C60_2 1_555 1_555
C60_2 C61_2 1_555 1_555
C63_2 C59_2 1_555 1_555
N3_2 C29_2 1_555 1_555
N4_2 C26_2 1_555 1_555
O2_2 C54_2 1_555 1_555
O3_2 C55_2 1_555 1_555
O4_2 C56_2 1_555 1_555
O5_2 C57_2 1_555 1_555
O6_2 C58_2 1_555 1_555
O7_2 C59_2 1_555 1_555
O8_2 C60_2 1_555 1_555
O9 C61_2 1_555 1_555
Cu2_2 N3_2 1_555 1_555
C81_2 C77_2 1_555 1_555
H75_2 C77_2 1_555 1_555
H76_2 C77_2 1_555 1_555
H79_2 C81_2 1_555 1_555
H80_2 C81_2 1_555 1_555
C116_2 C81_2 1_555 1_555
C117_2 C116_2 1_555 1_555
C118_2 C117_2 1_555 1_555
H106_2 C118_2 1_555 1_555
C119_2 H107_2 1_555 1_555
C120_2 C116_2 1_555 1_555
H108_2 C120_2 1_555 1_555
C121_2 H109_2 1_555 1_555
C122_2 C121_2 1_555 1_555
C124_2 C123_2 1_555 1_555
H111_2 C124_2 1_555 1_555
C125_2 C124_2 1_555 1_555
H112_2 C125_2 1_555 1_555
C136_2 C137_2 1_555 1_555
C137_2 C138_2 1_555 1_555
C138_2 C139_2 1_555 1_555
C139_2 C140_2 1_555 1_555
C140_2 C136_2 1_555 1_555
C141_2 C142_2 1_555 1_555
C142_2 C143_2 1_555 1_555
N18_2 C121_2 1_555 1_555
N19_2 C118_2 1_555 1_555
O38 C136_2 1_555 1_555
O41 C137_2 1_555 1_555
O43_2 C138_2 1_555 1_555
O44_2 C139_2 1_555 1_555
O45_2 C140_2 1_555 1_555
O46_2 C141_2 1_555 1_555
O47_2 C142_2 1_555 1_555
O48_2 Cu15 1_555 1_555
Cu14_2 N18_2 1_555 1_555
C27_2 C28_2 1_555 1_555
C27_2 N4_2 1_555 1_555
C30_2 C31_2 1_555 1_555
C33_2 N3_2 1_555 1_555
N4_2 Cu2_2 1_555 1_555
O2_2 Cu1_7 1_555 1_555
O3_2 Cu1_7 1_555 1_555
O5_2 Cu2_2 1_555 1_555
O6_2 Cu2_2 1_555 1_555
O7_2 Cu2_2 1_555 1_555
O8_2 Cu2_2 1_555 1_555
C119_2 C120_2 1_555 1_555
C119_2 N19_2 1_555 1_555
C122_2 C123_2 1_555 1_555
C125_2 N18_2 1_555 1_555
C141_2 C144_2 1_555 1_555
C143_2 O48_2 1_555 1_555
N19_2 Cu14_2 1_555 1_555
O44_2 Cu14_2 1_555 1_555
O45_2 Cu14_2 1_555 1_555
O46_2 Cu14_2 1_555 1_555
O47_2 Cu14_2 1_555 1_555
O10 C62_2 1_555 1_555
C90_2 O21_2 1_555 1_555
O21_2 Cu15_2 1_555 1_555
O10 Cu11 1_555 1_555
C2_2 C3_2 1_555 1_555
C3_2 H1_2 1_555 1_555
H2_2 C3_2 1_555 1_555
C12_2 C2_2 1_555 1_555
C13_2 C12_2 1_555 1_555
C14_2 C13_2 1_555 1_555
H9_2 C14_2 1_555 1_555
C15_2 C14_2 1_555 1_555
H10_2 C15_2 1_555 1_555
C17_2 C13_2 1_555 1_555
N1_2 C15_2 1_555 1_555
H15_2 C2_2 1_555 1_555
H16_2 C2_2 1_555 1_555
H27_2 C12_2 1_555 1_555
H28_2 C12_2 1_555 1_555
Cu15_3 N1_2 1_555 1_555
C73_2 C83_2 1_555 1_555
C76_2 C80_2 1_555 1_555
C79_2 H61_2 1_555 1_555
H62_2 C79_2 1_555 1_555
C80_2 C79_2 1_555 1_555
C82_2 H63_2 1_555 1_555
H64_2 C82_2 1_555 1_555
C83_2 C82_2 1_555 1_555
H69_2 C73_2 1_555 1_555
H70_2 C73_2 1_555 1_555
H74_2 C76_2 1_555 1_555
H77_2 C80_2 1_555 1_555
H78_2 C80_2 1_555 1_555
H81_2 C83_2 1_555 1_555
H82_2 C83_2 1_555 1_555
C91_2 H85_2 1_555 1_555
C92_2 C91_2 1_555 1_555
H86_2 C92_2 1_555 1_555
C93_2 C73_2 1_555 1_555
C94_2 C93_2 1_555 1_555
H87_2 C94_2 1_555 1_555
C95_2 C94_2 1_555 1_555
H88_2 C95_2 1_555 1_555
H95_2 C104_2 1_555 1_555
C111_2 H101_2 1_555 1_555
C112_2 C111_2 1_555 1_555
H102_2 C112_2 1_555 1_555
C113_2 C79_2 1_555 1_555
C114_2 C113_2 1_555 1_555
H103_2 C114_2 1_555 1_555
C115_2 C114_2 1_555 1_555
H104_2 C115_2 1_555 1_555
N11_2 Cu1_8 1_555 1_555
N17 C111_2 1_555 1_555
C91_2 N11_2 1_555 1_555
C92_2 C93_2 1_555 1_555
C95_2 N11_2 1_555 1_555
C112_2 C113_2 1_555 1_555
C115_2 N17 1_555 1_555
C16_2 H11_2 1_555 1_555
C78_2 H59_2 1_555 1_555
C106_2 C78_2 1_555 1_555
C109_2 H99_2 1_555 1_555
C110_2 C106_2 1_555 1_555
H100_2 C110_2 1_555 1_555
C109_2 C110_2 1_555 1_555
C109_2 N14_2 1_555 1_555
H97_2 C107_2 1_555 1_555
C108_2 C107_2 1_555 1_555
H98_2 C108_2 1_555 1_555

#END
