
###############################################################################
#
# This file contains modified crystal structure data generated from the
# MOF subset of the Cambridge Structural Database (CSD) v543 
# hosted by the Cambridge Crystallographic Data Centre (CCDC).
#
# This work is licensed under the Creative Commons
# Attribution-NonCommercial-ShareAlike 4.0 International License.
# To view a copy of this license, visit
# http://creativecommons.org/licenses/by-nc-sa/4.0/
# or send a letter to
# Creative Commons, PO Box 1866, Mountain View, CA 94042, USA.
#
# CIF created using the CSD Python API on 29 September 2022
# The structure has been converted into the P1 space group
# The structure has a 3D framework
# The original CSD entry OPIFOL is in the monoclinic crystal system
# The framework has been calculated to contain at least 10.0% void space
# The void calculation uses a probe of radius 1.32A, grid spacing 0.4
#
###############################################################################

data_OPIFOL
_chemical_formula_moiety         '(C224 H160 Co12 N48 O64)n'
_symmetry_cell_setting           triclinic
_symmetry_space_group_name_H-M   'P 1'
_symmetry_Int_Tables_number      1
_space_group_name_Hall           'P 1'
loop_
_symmetry_equiv_pos_site_id
_symmetry_equiv_pos_as_xyz
1 x,y,z
_cell_length_a                   16.23320(10)
_cell_length_b                   14.59330(10)
_cell_length_c                   31.8280(3)
_cell_angle_alpha                90
_cell_angle_beta                 93.5300(10)
_cell_angle_gamma                90
_cell_volume                     7525.62
loop_
_atom_site_label
_atom_site_type_symbol
_atom_site_fract_x
_atom_site_fract_y
_atom_site_fract_z
N7 N 0.31736(8) 0.52269(8) 0.01587(4)
Co1 Co 0.29731(2) 0.53675(2) 0.86393(2)
Co2 Co 0.30954(2) 0.53856(2) 0.95135(2)
O1 O 0.21334(7) 0.43830(8) 0.87221(4)
O2 O 0.21048(7) 0.45403(8) 0.94211(4)
O5 O 0.39093(7) 0.44584(8) 0.87277(3)
O6 O 0.38837(7) 0.43137(7) 0.94274(3)
O7 O 0.73112(7) 0.14552(7) 0.93881(3)
O8 O 0.70877(7) 0.13219(8) 0.86907(3)
N1 N 0.29322(8) 0.53731(9) 0.79976(4)
N2 N 0.27330(9) 0.50230(9) 0.73286(4)
N3 N 0.21181(9) 0.37921(9) 0.69591(4)
N4 N 0.22498(8) 0.36225(9) 0.62198(4)
N5 N 0.30214(8) 0.46397(8) 0.58389(4)
N6 N 0.31736(8) 0.47731(8) 0.51587(4)
C1 C 0.18387(9) 0.42205(11) 0.90707(5)
C2 C 0.11236(9) 0.35748(11) 0.90695(5)
C3 C 0.08450(10) 0.31389(12) 0.86996(5)
H1 H 0.109202 0.327261 0.844366
C4 C 0.02056(10) 0.25080(12) 0.87040(5)
H2 H 0.000992 0.221598 0.845038
C6 C 0.01203(9) 0.27523(11) 0.94482(5)
C7 C 0.07510(10) 0.33902(11) 0.94432(5)
H4 H 0.092978 0.370204 0.969451
C9 C 0.41673(9) 0.41255(10) 0.90783(5)
C10 C 0.48694(9) 0.34660(10) 0.90724(5)
C11 C 0.53145(9) 0.32384(10) 0.94444(5)
H5 H 0.515691 0.348096 0.970453
C12 C 0.59895(9) 0.26563(10) 0.94360(5)
H6 H 0.629768 0.250520 0.968994
C13 C 0.62154(9) 0.22926(10) 0.90532(5)
C14 C 0.57674(10) 0.25199(11) 0.86818(5)
H7 H 0.591946 0.227019 0.842199
C15 C 0.50991(10) 0.31100(11) 0.86891(5)
H8 H 0.479836 0.327187 0.843439
C16 C 0.69293(9) 0.16443(10) 0.90425(5)
C17 C 0.29063(13) 0.37033(11) 0.78386(5)
H9 H 0.315511 0.363714 0.812544
H10 H 0.325021 0.338922 0.764103
H11 H 0.235307 0.343197 0.782229
C18 C 0.28469(10) 0.46871(10) 0.77285(5)
C19 C 0.28588(15) 0.61676(13) 0.77652(6)
H12 H 0.288428 0.676844 0.788009
C20 C 0.27461(16) 0.59737(12) 0.73523(6)
H13 H 0.268784 0.639652 0.712549
C21 C 0.25973(10) 0.45310(10) 0.69492(5)
C22 C 0.29357(10) 0.48547(11) 0.65893(5)
H14 H 0.328716 0.537542 0.659133
C23 C 0.27253(9) 0.43652(10) 0.62265(5)
C24 C 0.19780(11) 0.33749(11) 0.65886(5)
H15 H 0.164563 0.283911 0.658830
C25 C 0.37029(10) 0.52056(11) 0.57933(5)
H16 H 0.403856 0.548460 0.601249
C26 C 0.37899(9) 0.52773(10) 0.53762(5)
H17 H 0.420742 0.561917 0.525025
C27 C 0.27176(9) 0.43936(10) 0.54402(5)
C28 C 0.19687(9) 0.38334(11) 0.53379(5)
H18 H 0.209473 0.318581 0.539213
H19 H 0.179085 0.391518 0.504046
H20 H 0.152619 0.402939 0.551373
Co4 Co 0.79731(2) 0.03675(2) 0.86393(2)
Co6 Co 0.80954(2) 0.03856(2) 0.95135(2)
Co7 Co 0.30954(2) 0.46144(2) 0.45135(2)
O9 O 0.40461(7) 0.62555(8) 0.94399(4)
O10 O 0.38417(7) 0.63659(8) 0.87381(3)
O11 O 0.23112(7) 0.64552(7) 0.93881(3)
O12 O 0.20877(7) 0.63219(8) 0.86907(3)
O3 O 0.90461(7) 0.12555(8) 0.94399(4)
O4 O 0.88417(7) 0.13659(8) 0.87381(3)
C5 C 0.98523(9) 0.23037(10) 0.90790(5)
H3 H 0.987069 0.262090 0.970369
C8 C 0.91923(9) 0.15891(10) 0.90876(5)
C11_2 C 0.03145(9) 0.82384(10) 0.94444(5)
H5_2 H 0.015691 0.848096 0.970453
C12_2 C 0.09895(9) 0.76563(10) 0.94360(5)
H6_2 H 0.129768 0.750520 0.968994
C13_2 C 0.12154(9) 0.72926(10) 0.90532(5)
C14_2 C 0.07674(10) 0.75199(11) 0.86818(5)
H7_2 H 0.091946 0.727019 0.842199
C15_2 C 0.00991(10) 0.81100(11) 0.86891(5)
C16_2 C 0.19293(9) 0.66443(10) 0.90425(5)
N7_2 N 0.81736(8) 0.02269(8) 0.01587(4)
N1_2 N 0.79322(8) 0.03731(9) 0.79976(4)
N2_2 N 0.77330(9) 0.00230(9) 0.73286(4)
C19_2 C 0.78588(15) 0.11676(13) 0.77652(6)
H12_2 H 0.788428 0.176844 0.788009
C20_2 C 0.77461(16) 0.09737(12) 0.73523(6)
H13_2 H 0.768784 0.139652 0.712549
H14_2 H 0.828716 0.037542 0.659133
C25_2 C 0.87029(10) 0.02056(11) 0.57933(5)
H16_2 H 0.903856 0.048460 0.601249
C26_2 C 0.87899(9) 0.02773(10) 0.53762(5)
H17_2 H 0.920742 0.061917 0.525025
O1_2 O 0.71334(7) 0.93830(8) 0.87221(4)
O2_2 O 0.71048(7) 0.95403(8) 0.94211(4)
O5_2 O 0.89093(7) 0.94584(8) 0.87277(3)
O6_2 O 0.88837(7) 0.93137(7) 0.94274(3)
N3_2 N 0.71181(9) 0.87921(9) 0.69591(4)
N4_2 N 0.72498(8) 0.86225(9) 0.62198(4)
N5_2 N 0.80214(8) 0.96397(8) 0.58389(4)
N6_2 N 0.81736(8) 0.97731(8) 0.51587(4)
C1_2 C 0.68387(9) 0.92205(11) 0.90707(5)
C2_2 C 0.61236(9) 0.85748(11) 0.90695(5)
C3_2 C 0.58450(10) 0.81389(12) 0.86996(5)
H1_2 H 0.609202 0.827261 0.844366
C4_2 C 0.52056(10) 0.75080(12) 0.87040(5)
H2_2 H 0.500992 0.721598 0.845038
C5_2 C 0.48523(9) 0.73037(10) 0.90790(5)
C6_2 C 0.51203(9) 0.77523(11) 0.94482(5)
H3_2 H 0.487069 0.762090 0.970369
C7_2 C 0.57510(10) 0.83902(11) 0.94432(5)
H4_2 H 0.592978 0.870204 0.969451
C8_2 C 0.41923(9) 0.65891(10) 0.90876(5)
C9_2 C 0.91673(9) 0.91255(10) 0.90783(5)
C10_2 C 0.98694(9) 0.84660(10) 0.90724(5)
H8_2 H 0.979836 0.827187 0.843439
C17_2 C 0.79063(13) 0.87033(11) 0.78386(5)
H9_2 H 0.815511 0.863714 0.812544
H10_2 H 0.825021 0.838922 0.764103
H11_2 H 0.735307 0.843197 0.782229
C18_2 C 0.78469(10) 0.96871(10) 0.77285(5)
C21_2 C 0.75973(10) 0.95310(10) 0.69492(5)
C22_2 C 0.79357(10) 0.98547(11) 0.65893(5)
C23_2 C 0.77253(9) 0.93652(10) 0.62265(5)
C24_2 C 0.69780(11) 0.83749(11) 0.65886(5)
H15_2 H 0.664563 0.783911 0.658830
C27_2 C 0.77176(9) 0.93936(10) 0.54402(5)
C28_2 C 0.69687(9) 0.88334(11) 0.53379(5)
H18_2 H 0.709473 0.818581 0.539213
H19_2 H 0.679085 0.891518 0.504046
H20_2 H 0.652619 0.902939 0.551373
Co7_2 Co 0.80954(2) 0.96144(2) 0.45135(2)
Co1_2 Co 0.29731(2) 0.46325(2) 0.36393(2)
O1_3 O 0.21334(7) 0.56170(8) 0.37221(4)
O2_3 O 0.21048(7) 0.54597(8) 0.44211(4)
O5_3 O 0.39093(7) 0.55416(8) 0.37277(3)
O6_3 O 0.38837(7) 0.56863(7) 0.44274(3)
O7_2 O 0.73112(7) 0.85448(7) 0.43881(3)
O8_2 O 0.70877(7) 0.86781(8) 0.36907(3)
N1_3 N 0.29322(8) 0.46269(9) 0.29976(4)
N2_3 N 0.27330(9) 0.49770(9) 0.23286(4)
N3_3 N 0.21181(9) 0.62079(9) 0.19591(4)
N4_3 N 0.22498(8) 0.63775(9) 0.12198(4)
N5_3 N 0.30214(8) 0.53603(8) 0.08389(4)
C1_3 C 0.18387(9) 0.57795(11) 0.40707(5)
C2_3 C 0.11236(9) 0.64252(11) 0.40695(5)
C3_3 C 0.08450(10) 0.68611(12) 0.36996(5)
H1_3 H 0.109202 0.672739 0.344366
C4_3 C 0.02056(10) 0.74920(12) 0.37040(5)
H2_3 H 0.000992 0.778402 0.345038
C6_3 C 0.01203(9) 0.72477(11) 0.44482(5)
C7_3 C 0.07510(10) 0.66098(11) 0.44432(5)
H4_3 H 0.092978 0.629796 0.469451
C9_3 C 0.41673(9) 0.58745(10) 0.40783(5)
C10_3 C 0.48694(9) 0.65340(10) 0.40724(5)
C11_3 C 0.53145(9) 0.67616(10) 0.44444(5)
H5_3 H 0.515691 0.651904 0.470453
C12_3 C 0.59895(9) 0.73437(10) 0.44360(5)
H6_3 H 0.629768 0.749480 0.468994
C13_3 C 0.62154(9) 0.77074(10) 0.40532(5)
C14_3 C 0.57674(10) 0.74801(11) 0.36818(5)
H7_3 H 0.591946 0.772981 0.342199
C15_3 C 0.50991(10) 0.68900(11) 0.36891(5)
H8_3 H 0.479836 0.672813 0.343439
C16_3 C 0.69293(9) 0.83557(10) 0.40425(5)
C17_3 C 0.29063(13) 0.62967(11) 0.28386(5)
H9_3 H 0.315511 0.636286 0.312544
H10_3 H 0.325021 0.661078 0.264103
H11_3 H 0.235307 0.656803 0.282229
C18_3 C 0.28469(10) 0.53129(10) 0.27285(5)
C19_3 C 0.28588(15) 0.38324(13) 0.27652(6)
H12_3 H 0.288428 0.323156 0.288009
C20_3 C 0.27461(16) 0.40263(12) 0.23523(6)
H13_3 H 0.268784 0.360348 0.212549
C21_3 C 0.25973(10) 0.54690(10) 0.19492(5)
C22_3 C 0.29357(10) 0.51453(11) 0.15893(5)
H14_3 H 0.328716 0.462458 0.159133
C23_3 C 0.27253(9) 0.56348(10) 0.12265(5)
C24_3 C 0.19780(11) 0.66251(11) 0.15886(5)
H15_3 H 0.164563 0.716089 0.158830
C25_3 C 0.37029(10) 0.47944(11) 0.07933(5)
H16_3 H 0.403856 0.451540 0.101249
C26_3 C 0.37899(9) 0.47227(10) 0.03762(5)
H17_3 H 0.420742 0.438083 0.025025
C27_3 C 0.27176(9) 0.56064(10) 0.04402(5)
C28_3 C 0.19687(9) 0.61666(11) 0.03379(5)
H18_3 H 0.209473 0.681419 0.039213
H19_3 H 0.179085 0.608482 0.004046
H20_3 H 0.152619 0.597061 0.051373
Co4_2 Co 0.79731(2) 0.96325(2) 0.36393(2)
O9_2 O 0.40461(7) 0.37445(8) 0.44399(4)
O10_2 O 0.38417(7) 0.36341(8) 0.37381(3)
O11_2 O 0.23112(7) 0.35448(7) 0.43881(3)
O12_2 O 0.20877(7) 0.36781(8) 0.36907(3)
O3_2 O 0.90461(7) 0.87445(8) 0.44399(4)
O4_2 O 0.88417(7) 0.86341(8) 0.37381(3)
C5_3 C 0.98523(9) 0.76963(10) 0.40790(5)
H3_3 H 0.987069 0.737910 0.470369
C8_3 C 0.91923(9) 0.84109(10) 0.40876(5)
C11_4 C 0.03145(9) 0.17616(10) 0.44444(5)
H5_4 H 0.015691 0.151904 0.470453
C12_4 C 0.09895(9) 0.23437(10) 0.44360(5)
H6_4 H 0.129768 0.249480 0.468994
C13_4 C 0.12154(9) 0.27074(10) 0.40532(5)
C14_4 C 0.07674(10) 0.24801(11) 0.36818(5)
H7_4 H 0.091946 0.272981 0.342199
C15_4 C 0.00991(10) 0.18900(11) 0.36891(5)
C16_4 C 0.19293(9) 0.33557(10) 0.40425(5)
O1_4 O 0.71334(7) 0.06170(8) 0.37221(4)
O2_4 O 0.71048(7) 0.04597(8) 0.44211(4)
O5_4 O 0.89093(7) 0.05416(8) 0.37277(3)
O6_4 O 0.88837(7) 0.06863(7) 0.44274(3)
N3_4 N 0.71181(9) 0.12079(9) 0.19591(4)
N4_4 N 0.72498(8) 0.13775(9) 0.12198(4)
N5_4 N 0.80214(8) 0.03603(8) 0.08389(4)
C1_4 C 0.68387(9) 0.07795(11) 0.40707(5)
C2_4 C 0.61236(9) 0.14252(11) 0.40695(5)
C3_4 C 0.58450(10) 0.18611(12) 0.36996(5)
H1_4 H 0.609202 0.172739 0.344366
C4_4 C 0.52056(10) 0.24920(12) 0.37040(5)
H2_4 H 0.500992 0.278402 0.345038
C5_4 C 0.48523(9) 0.26963(10) 0.40790(5)
C6_4 C 0.51203(9) 0.22477(11) 0.44482(5)
H3_4 H 0.487069 0.237910 0.470369
C7_4 C 0.57510(10) 0.16098(11) 0.44432(5)
H4_4 H 0.592978 0.129796 0.469451
C8_4 C 0.41923(9) 0.34109(10) 0.40876(5)
C9_4 C 0.91673(9) 0.08745(10) 0.40783(5)
C10_4 C 0.98694(9) 0.15340(10) 0.40724(5)
H8_4 H 0.979836 0.172813 0.343439
C17_4 C 0.79063(13) 0.12967(11) 0.28386(5)
H9_4 H 0.815511 0.136286 0.312544
H10_4 H 0.825021 0.161078 0.264103
H11_4 H 0.735307 0.156803 0.282229
C18_4 C 0.78469(10) 0.03129(10) 0.27285(5)
C21_4 C 0.75973(10) 0.04690(10) 0.19492(5)
C22_4 C 0.79357(10) 0.01453(11) 0.15893(5)
C23_4 C 0.77253(9) 0.06348(10) 0.12265(5)
C24_4 C 0.69780(11) 0.16251(11) 0.15886(5)
H15_4 H 0.664563 0.216089 0.158830
C27_4 C 0.77176(9) 0.06064(10) 0.04402(5)
C28_4 C 0.69687(9) 0.11666(11) 0.03379(5)
H18_4 H 0.709473 0.181419 0.039213
H19_4 H 0.679085 0.108482 0.004046
H20_4 H 0.652619 0.097061 0.051373
N1_4 N 0.79322(8) 0.96269(9) 0.29976(4)
N2_4 N 0.77330(9) 0.99770(9) 0.23286(4)
C19_4 C 0.78588(15) 0.88324(13) 0.27652(6)
H12_4 H 0.788428 0.823156 0.288009
C20_4 C 0.77461(16) 0.90263(12) 0.23523(6)
H13_4 H 0.768784 0.860348 0.212549
H14_4 H 0.828716 0.962458 0.159133
C25_4 C 0.87029(10) 0.97944(11) 0.07933(5)
H16_4 H 0.903856 0.951540 0.101249
C26_4 C 0.87899(9) 0.97227(10) 0.03762(5)
H17_4 H 0.920742 0.938083 0.025025
O3_3 O 0.09539(7) 0.12555(8) 0.55601(4)
O4_3 O 0.11583(7) 0.13659(8) 0.62619(3)
C5_5 C 0.01477(9) 0.23037(10) 0.59210(5)
H3_5 H 0.012931 0.262090 0.529631
C8_5 C 0.08077(9) 0.15891(10) 0.59124(5)
Co3 Co 0.20269(2) 0.03675(2) 0.63607(2)
Co5 Co 0.19046(2) 0.03856(2) 0.54865(2)
Co7_3 Co 0.69046(2) 0.46144(2) 0.04865(2)
Co1_3 Co 0.70269(2) 0.53675(2) 0.63607(2)
Co2_2 Co 0.69046(2) 0.53856(2) 0.54865(2)
O1_5 O 0.78666(7) 0.43830(8) 0.62779(4)
O2_5 O 0.78952(7) 0.45403(8) 0.55789(4)
O5_5 O 0.60907(7) 0.44584(8) 0.62723(3)
O6_5 O 0.61163(7) 0.43137(7) 0.55726(3)
O7_3 O 0.26888(7) 0.14552(7) 0.56119(3)
O8_3 O 0.29123(7) 0.13219(8) 0.63093(3)
N1_5 N 0.70678(8) 0.53731(9) 0.70024(4)
N2_5 N 0.72670(9) 0.50230(9) 0.76714(4)
N3_5 N 0.78819(9) 0.37921(9) 0.80409(4)
N4_5 N 0.77502(8) 0.36225(9) 0.87802(4)
N5_5 N 0.69786(8) 0.46397(8) 0.91611(4)
N6_3 N 0.68264(8) 0.47731(8) 0.98413(4)
C1_5 C 0.81613(9) 0.42205(11) 0.59293(5)
C2_5 C 0.88764(9) 0.35748(11) 0.59305(5)
C3_5 C 0.91550(10) 0.31389(12) 0.63004(5)
H1_5 H 0.890798 0.327261 0.655634
C4_5 C 0.97944(10) 0.25080(12) 0.62960(5)
H2_5 H 0.999008 0.221598 0.654962
C6_5 C 0.98797(9) 0.27523(11) 0.55518(5)
C7_5 C 0.92490(10) 0.33902(11) 0.55568(5)
H4_5 H 0.907022 0.370204 0.530549
C9_5 C 0.58327(9) 0.41255(10) 0.59217(5)
C10_5 C 0.51306(9) 0.34660(10) 0.59276(5)
C11_5 C 0.46855(9) 0.32384(10) 0.55556(5)
H5_5 H 0.484309 0.348096 0.529547
C12_5 C 0.40105(9) 0.26563(10) 0.55640(5)
H6_5 H 0.370232 0.250520 0.531006
C13_5 C 0.37846(9) 0.22926(10) 0.59468(5)
C14_5 C 0.42326(10) 0.25199(11) 0.63182(5)
H7_5 H 0.408054 0.227019 0.657801
C15_5 C 0.49009(10) 0.31100(11) 0.63109(5)
H8_5 H 0.520164 0.327187 0.656561
C16_5 C 0.30707(9) 0.16443(10) 0.59575(5)
C17_5 C 0.70937(13) 0.37033(11) 0.71614(5)
H9_5 H 0.684489 0.363714 0.687456
H10_5 H 0.674979 0.338922 0.735897
H11_5 H 0.764693 0.343197 0.717771
C18_5 C 0.71531(10) 0.46871(10) 0.72715(5)
C19_5 C 0.71412(15) 0.61676(13) 0.72348(6)
H12_5 H 0.711572 0.676844 0.711991
C20_5 C 0.72539(16) 0.59737(12) 0.76477(6)
H13_5 H 0.731216 0.639652 0.787451
C21_5 C 0.74027(10) 0.45310(10) 0.80508(5)
C22_5 C 0.70643(10) 0.48547(11) 0.84107(5)
H14_5 H 0.671284 0.537542 0.840867
C23_5 C 0.72747(9) 0.43652(10) 0.87735(5)
C24_5 C 0.80220(11) 0.33749(11) 0.84114(5)
H15_5 H 0.835437 0.283911 0.841170
C25_5 C 0.62971(10) 0.52056(11) 0.92067(5)
H16_5 H 0.596144 0.548460 0.898751
C26_5 C 0.62101(9) 0.52773(10) 0.96238(5)
H17_5 H 0.579258 0.561917 0.974975
C27_5 C 0.72824(9) 0.43936(10) 0.95598(5)
C28_5 C 0.80313(9) 0.38334(11) 0.96621(5)
H18_5 H 0.790527 0.318581 0.960787
H19_5 H 0.820915 0.391518 0.995954
H20_5 H 0.847381 0.402939 0.948627
O9_3 O 0.59539(7) 0.62555(8) 0.55601(4)
O10_3 O 0.61583(7) 0.63659(8) 0.62619(3)
O11_3 O 0.76888(7) 0.64552(7) 0.56119(3)
O12_3 O 0.79123(7) 0.63219(8) 0.63093(3)
N7_3 N 0.68264(8) 0.52269(8) 0.48413(4)
N1_6 N 0.20678(8) 0.03731(9) 0.70024(4)
N2_6 N 0.22670(9) 0.00230(9) 0.76714(4)
C19_6 C 0.21412(15) 0.11676(13) 0.72348(6)
H12_6 H 0.211572 0.176844 0.711991
C20_6 C 0.22539(16) 0.09737(12) 0.76477(6)
H13_6 H 0.231216 0.139652 0.787451
H14_6 H 0.171284 0.037542 0.840867
C25_6 C 0.12971(10) 0.02056(11) 0.92067(5)
H16_6 H 0.096144 0.048460 0.898751
C26_6 C 0.12101(9) 0.02773(10) 0.96238(5)
H17_6 H 0.079258 0.061917 0.974975
N7_4 N 0.18264(8) 0.02269(8) 0.48413(4)
Co7_4 Co 0.19046(2) 0.96144(2) 0.04865(2)
O1_6 O 0.28666(7) 0.93830(8) 0.62779(4)
O2_6 O 0.28952(7) 0.95403(8) 0.55789(4)
O5_6 O 0.10907(7) 0.94584(8) 0.62723(3)
O6_6 O 0.11163(7) 0.93137(7) 0.55726(3)
N3_6 N 0.28819(9) 0.87921(9) 0.80409(4)
N4_6 N 0.27502(8) 0.86225(9) 0.87802(4)
N5_6 N 0.19786(8) 0.96397(8) 0.91611(4)
N6_4 N 0.18264(8) 0.97731(8) 0.98413(4)
C1_6 C 0.31613(9) 0.92205(11) 0.59293(5)
C2_6 C 0.38764(9) 0.85748(11) 0.59305(5)
C3_6 C 0.41550(10) 0.81389(12) 0.63004(5)
H1_6 H 0.390798 0.827261 0.655634
C4_6 C 0.47944(10) 0.75080(12) 0.62960(5)
H2_6 H 0.499008 0.721598 0.654962
C5_6 C 0.51477(9) 0.73037(10) 0.59210(5)
C6_6 C 0.48797(9) 0.77523(11) 0.55518(5)
H3_6 H 0.512931 0.762090 0.529631
C7_6 C 0.42490(10) 0.83902(11) 0.55568(5)
H4_6 H 0.407022 0.870204 0.530549
C8_6 C 0.58077(9) 0.65891(10) 0.59124(5)
C9_6 C 0.08327(9) 0.91255(10) 0.59217(5)
C10_6 C 0.01306(9) 0.84660(10) 0.59276(5)
H8_6 H 0.020164 0.827187 0.656561
C17_6 C 0.20937(13) 0.87033(11) 0.71614(5)
H9_6 H 0.184489 0.863714 0.687456
H10_6 H 0.174979 0.838922 0.735897
H11_6 H 0.264693 0.843197 0.717771
C18_6 C 0.21531(10) 0.96871(10) 0.72715(5)
C21_6 C 0.24027(10) 0.95310(10) 0.80508(5)
C22_6 C 0.20643(10) 0.98547(11) 0.84107(5)
C23_6 C 0.22747(9) 0.93652(10) 0.87735(5)
C24_6 C 0.30220(11) 0.83749(11) 0.84114(5)
H15_6 H 0.335437 0.783911 0.841170
C27_6 C 0.22824(9) 0.93936(10) 0.95598(5)
C28_6 C 0.30313(9) 0.88334(11) 0.96621(5)
H18_6 H 0.290527 0.818581 0.960787
H19_6 H 0.320915 0.891518 0.995954
H20_6 H 0.347381 0.902939 0.948627
C11_6 C 0.96855(9) 0.82384(10) 0.55556(5)
H5_6 H 0.984309 0.848096 0.529547
C12_6 C 0.90105(9) 0.76563(10) 0.55640(5)
H6_6 H 0.870232 0.750520 0.531006
C13_6 C 0.87846(9) 0.72926(10) 0.59468(5)
C14_6 C 0.92326(10) 0.75199(11) 0.63182(5)
H7_6 H 0.908054 0.727019 0.657801
C15_6 C 0.99009(10) 0.81100(11) 0.63109(5)
C16_6 C 0.80707(9) 0.66443(10) 0.59575(5)
O3_4 O 0.09539(7) 0.87445(8) 0.05601(4)
O4_4 O 0.11583(7) 0.86341(8) 0.12619(3)
C5_7 C 0.01477(9) 0.76963(10) 0.09210(5)
H3_7 H 0.012931 0.737910 0.029631
C8_7 C 0.08077(9) 0.84109(10) 0.09124(5)
Co3_2 Co 0.20269(2) 0.96325(2) 0.13607(2)
Co1_4 Co 0.70269(2) 0.46325(2) 0.13607(2)
O1_7 O 0.78666(7) 0.56170(8) 0.12779(4)
O2_7 O 0.78952(7) 0.54597(8) 0.05789(4)
O5_7 O 0.60907(7) 0.55416(8) 0.12723(3)
O6_7 O 0.61163(7) 0.56863(7) 0.05726(3)
O7_4 O 0.26888(7) 0.85448(7) 0.06119(3)
O8_4 O 0.29123(7) 0.86781(8) 0.13093(3)
N1_7 N 0.70678(8) 0.46269(9) 0.20024(4)
N2_7 N 0.72670(9) 0.49770(9) 0.26714(4)
N3_7 N 0.78819(9) 0.62079(9) 0.30409(4)
N4_7 N 0.77502(8) 0.63775(9) 0.37802(4)
N5_7 N 0.69786(8) 0.53603(8) 0.41611(4)
C1_7 C 0.81613(9) 0.57795(11) 0.09293(5)
C2_7 C 0.88764(9) 0.64252(11) 0.09305(5)
C3_7 C 0.91550(10) 0.68611(12) 0.13004(5)
H1_7 H 0.890798 0.672739 0.155634
C4_7 C 0.97944(10) 0.74920(12) 0.12960(5)
H2_7 H 0.999008 0.778402 0.154962
C6_7 C 0.98797(9) 0.72477(11) 0.05518(5)
C7_7 C 0.92490(10) 0.66098(11) 0.05568(5)
H4_7 H 0.907022 0.629796 0.030549
C9_7 C 0.58327(9) 0.58745(10) 0.09217(5)
C10_7 C 0.51306(9) 0.65340(10) 0.09276(5)
C11_7 C 0.46855(9) 0.67616(10) 0.05556(5)
H5_7 H 0.484309 0.651904 0.029547
C12_7 C 0.40105(9) 0.73437(10) 0.05640(5)
H6_7 H 0.370232 0.749480 0.031006
C13_7 C 0.37846(9) 0.77074(10) 0.09468(5)
C14_7 C 0.42326(10) 0.74801(11) 0.13182(5)
H7_7 H 0.408054 0.772981 0.157801
C15_7 C 0.49009(10) 0.68900(11) 0.13109(5)
H8_7 H 0.520164 0.672813 0.156561
C16_7 C 0.30707(9) 0.83557(10) 0.09575(5)
C17_7 C 0.70937(13) 0.62967(11) 0.21614(5)
H9_7 H 0.684489 0.636286 0.187456
H10_7 H 0.674979 0.661078 0.235897
H11_7 H 0.764693 0.656803 0.217771
C18_7 C 0.71531(10) 0.53129(10) 0.22715(5)
C19_7 C 0.71412(15) 0.38324(13) 0.22348(6)
H12_7 H 0.711572 0.323156 0.211991
C20_7 C 0.72539(16) 0.40263(12) 0.26477(6)
H13_7 H 0.731216 0.360348 0.287451
C21_7 C 0.74027(10) 0.54690(10) 0.30508(5)
C22_7 C 0.70643(10) 0.51453(11) 0.34107(5)
H14_7 H 0.671284 0.462458 0.340867
C23_7 C 0.72747(9) 0.56348(10) 0.37735(5)
C24_7 C 0.80220(11) 0.66251(11) 0.34114(5)
H15_7 H 0.835437 0.716089 0.341170
C25_7 C 0.62971(10) 0.47944(11) 0.42067(5)
H16_7 H 0.596144 0.451540 0.398751
C26_7 C 0.62101(9) 0.47227(10) 0.46238(5)
H17_7 H 0.579258 0.438083 0.474975
C27_7 C 0.72824(9) 0.56064(10) 0.45598(5)
C28_7 C 0.80313(9) 0.61666(11) 0.46621(5)
H18_7 H 0.790527 0.681419 0.460787
H19_7 H 0.820915 0.608482 0.495954
H20_7 H 0.847381 0.597061 0.448627
O9_4 O 0.59539(7) 0.37445(8) 0.05601(4)
O10_4 O 0.61583(7) 0.36341(8) 0.12619(3)
O11_4 O 0.76888(7) 0.35448(7) 0.06119(3)
O12_4 O 0.79123(7) 0.36781(8) 0.13093(3)
O1_8 O 0.28666(7) 0.06170(8) 0.12779(4)
O2_8 O 0.28952(7) 0.04597(8) 0.05789(4)
O5_8 O 0.10907(7) 0.05416(8) 0.12723(3)
O6_8 O 0.11163(7) 0.06863(7) 0.05726(3)
N3_8 N 0.28819(9) 0.12079(9) 0.30409(4)
N4_8 N 0.27502(8) 0.13775(9) 0.37802(4)
N5_8 N 0.19786(8) 0.03603(8) 0.41611(4)
C1_8 C 0.31613(9) 0.07795(11) 0.09293(5)
C2_8 C 0.38764(9) 0.14252(11) 0.09305(5)
C3_8 C 0.41550(10) 0.18611(12) 0.13004(5)
H1_8 H 0.390798 0.172739 0.155634
C4_8 C 0.47944(10) 0.24920(12) 0.12960(5)
H2_8 H 0.499008 0.278402 0.154962
C5_8 C 0.51477(9) 0.26963(10) 0.09210(5)
C6_8 C 0.48797(9) 0.22477(11) 0.05518(5)
H3_8 H 0.512931 0.237910 0.029631
C7_8 C 0.42490(10) 0.16098(11) 0.05568(5)
H4_8 H 0.407022 0.129796 0.030549
C8_8 C 0.58077(9) 0.34109(10) 0.09124(5)
C9_8 C 0.08327(9) 0.08745(10) 0.09217(5)
C10_8 C 0.01306(9) 0.15340(10) 0.09276(5)
H8_8 H 0.020164 0.172813 0.156561
C17_8 C 0.20937(13) 0.12967(11) 0.21614(5)
H9_8 H 0.184489 0.136286 0.187456
H10_8 H 0.174979 0.161078 0.235897
H11_8 H 0.264693 0.156803 0.217771
C18_8 C 0.21531(10) 0.03129(10) 0.22715(5)
C21_8 C 0.24027(10) 0.04690(10) 0.30508(5)
C22_8 C 0.20643(10) 0.01453(11) 0.34107(5)
C23_8 C 0.22747(9) 0.06348(10) 0.37735(5)
C24_8 C 0.30220(11) 0.16251(11) 0.34114(5)
H15_8 H 0.335437 0.216089 0.341170
C27_8 C 0.22824(9) 0.06064(10) 0.45598(5)
C28_8 C 0.30313(9) 0.11666(11) 0.46621(5)
H18_8 H 0.290527 0.181419 0.460787
H19_8 H 0.320915 0.108482 0.495954
H20_8 H 0.347381 0.097061 0.448627
N1_8 N 0.20678(8) 0.96269(9) 0.20024(4)
N2_8 N 0.22670(9) 0.99770(9) 0.26714(4)
C19_8 C 0.21412(15) 0.88324(13) 0.22348(6)
H12_8 H 0.211572 0.823156 0.211991
C20_8 C 0.22539(16) 0.90263(12) 0.26477(6)
H13_8 H 0.231216 0.860348 0.287451
H14_8 H 0.171284 0.962458 0.340867
C25_8 C 0.12971(10) 0.97944(11) 0.42067(5)
H16_8 H 0.096144 0.951540 0.398751
C26_8 C 0.12101(9) 0.97227(10) 0.46238(5)
H17_8 H 0.079258 0.938083 0.474975
C11_8 C 0.96855(9) 0.17616(10) 0.05556(5)
H5_8 H 0.984309 0.151904 0.029547
C12_8 C 0.90105(9) 0.23437(10) 0.05640(5)
H6_8 H 0.870232 0.249480 0.031006
C13_8 C 0.87846(9) 0.27074(10) 0.09468(5)
C14_8 C 0.92326(10) 0.24801(11) 0.13182(5)
H7_8 H 0.908054 0.272981 0.157801
C15_8 C 0.99009(10) 0.18900(11) 0.13109(5)
C16_8 C 0.80707(9) 0.33557(10) 0.09575(5)
loop_
_geom_bond_atom_site_label_1
_geom_bond_atom_site_label_2
_geom_bond_site_symmetry_1
_geom_bond_site_symmetry_2
Co1 Co2 1_555 1_555
Co2 O2 1_555 1_555
O1 Co1 1_555 1_555
O2 C1 1_555 1_555
O5 Co1 1_555 1_555
O6 Co2 1_555 1_555
O7 C16 1_555 1_555
O8 C16 1_555 1_555
N1 Co1 1_555 1_555
N2 C18 1_555 1_555
N3 C21 1_555 1_555
N4 C23 1_555 1_555
N5 C23 1_555 1_555
N6 C26 1_555 1_555
C1 O1 1_555 1_555
C2 C1 1_555 1_555
C3 C2 1_555 1_555
H1 C3 1_555 1_555
C4 C3 1_555 1_555
H2 C4 1_555 1_555
C7 C2 1_555 1_555
H4 C7 1_555 1_555
C9 O5 1_555 1_555
C10 C9 1_555 1_555
C11 C10 1_555 1_555
H5 C11 1_555 1_555
C12 C11 1_555 1_555
H6 C12 1_555 1_555
C13 C12 1_555 1_555
C14 C13 1_555 1_555
H7 C14 1_555 1_555
C15 C10 1_555 1_555
H8 C15 1_555 1_555
C16 C13 1_555 1_555
C17 H9 1_555 1_555
H10 C17 1_555 1_555
H11 C17 1_555 1_555
C18 N1 1_555 1_555
C19 N1 1_555 1_555
H12 C19 1_555 1_555
C20 N2 1_555 1_555
H13 C20 1_555 1_555
C21 N2 1_555 1_555
C22 C21 1_555 1_555
H14 C22 1_555 1_555
C23 C22 1_555 1_555
C24 N3 1_555 1_555
H15 C24 1_555 1_555
C25 N5 1_555 1_555
H16 C25 1_555 1_555
C26 C25 1_555 1_555
H17 C26 1_555 1_555
C27 N5 1_555 1_555
C28 C27 1_555 1_555
H18 C28 1_555 1_555
H19 C28 1_555 1_555
H20 C28 1_555 1_555
Co4 O8 1_555 1_555
Co6 O7 1_555 1_555
Co7 N6 1_555 1_555
O9 Co2 1_555 1_555
O10 Co1 1_555 1_555
O11 Co2 1_555 1_555
O12 Co1 1_555 1_555
O6 C9 1_555 1_555
N4 C24 1_555 1_555
N6 C27 1_555 1_555
C6 C7 1_555 1_555
C14 C15 1_555 1_555
C17 C18 1_555 1_555
C19 C20 1_555 1_555
Co4 Co6 1_555 1_555
O3 C8 1_555 1_555
O4 C8 1_555 1_555
C8 C5 1_555 1_555
Co4 O4 1_555 1_555
Co6 O3 1_555 1_555
O11 C16_2 1_555 1_555
O12 C16_2 1_555 1_555
H5_2 C11_2 1_555 1_555
C12_2 C11_2 1_555 1_555
H6_2 C12_2 1_555 1_555
C13_2 C12_2 1_555 1_555
C14_2 C13_2 1_555 1_555
H7_2 C14_2 1_555 1_555
C16_2 C13_2 1_555 1_555
C14_2 C15_2 1_555 1_555
N1_2 Co4 1_555 1_555
C19_2 N1_2 1_555 1_555
H12_2 C19_2 1_555 1_555
C20_2 N2_2 1_555 1_555
H13_2 C20_2 1_555 1_555
H16_2 C25_2 1_555 1_555
C26_2 C25_2 1_555 1_555
H17_2 C26_2 1_555 1_555
C19_2 C20_2 1_555 1_555
O2_2 C1_2 1_555 1_555
O9 C8_2 1_555 1_555
O10 C8_2 1_555 1_555
N3_2 C21_2 1_555 1_555
N4_2 C23_2 1_555 1_555
N5_2 C23_2 1_555 1_555
C1_2 O1_2 1_555 1_555
C2_2 C1_2 1_555 1_555
C3_2 C2_2 1_555 1_555
H1_2 C3_2 1_555 1_555
C4_2 C3_2 1_555 1_555
H2_2 C4_2 1_555 1_555
C5_2 C4_2 1_555 1_555
C6_2 C5_2 1_555 1_555
H3_2 C6_2 1_555 1_555
C7_2 C2_2 1_555 1_555
H4_2 C7_2 1_555 1_555
C8_2 C5_2 1_555 1_555
C9_2 O5_2 1_555 1_555
C10_2 C9_2 1_555 1_555
C17_2 H9_2 1_555 1_555
H10_2 C17_2 1_555 1_555
H11_2 C17_2 1_555 1_555
C22_2 C21_2 1_555 1_555
C23_2 C22_2 1_555 1_555
C24_2 N3_2 1_555 1_555
H15_2 C24_2 1_555 1_555
C27_2 N5_2 1_555 1_555
C28_2 C27_2 1_555 1_555
H18_2 C28_2 1_555 1_555
H19_2 C28_2 1_555 1_555
H20_2 C28_2 1_555 1_555
Co7_2 N6_2 1_555 1_555
O6_2 C9_2 1_555 1_555
N4_2 C24_2 1_555 1_555
N6_2 C27_2 1_555 1_555
C6_2 C7_2 1_555 1_555
C17_2 C18_2 1_555 1_555
Co1_2 Co7 1_555 1_555
Co7 O2_3 1_555 1_555
O1_3 Co1_2 1_555 1_555
O2_3 C1_3 1_555 1_555
O5_3 Co1_2 1_555 1_555
O6_3 Co7 1_555 1_555
O7_2 C16_3 1_555 1_555
O8_2 C16_3 1_555 1_555
N1_3 Co1_2 1_555 1_555
N2_3 C18_3 1_555 1_555
N3_3 C21_3 1_555 1_555
N4_3 C23_3 1_555 1_555
N5_3 C23_3 1_555 1_555
N7 C26_3 1_555 1_555
C1_3 O1_3 1_555 1_555
C2_3 C1_3 1_555 1_555
C3_3 C2_3 1_555 1_555
H1_3 C3_3 1_555 1_555
C4_3 C3_3 1_555 1_555
H2_3 C4_3 1_555 1_555
C7_3 C2_3 1_555 1_555
H4_3 C7_3 1_555 1_555
C9_3 O5_3 1_555 1_555
C10_3 C9_3 1_555 1_555
C11_3 C10_3 1_555 1_555
H5_3 C11_3 1_555 1_555
C12_3 C11_3 1_555 1_555
H6_3 C12_3 1_555 1_555
C13_3 C12_3 1_555 1_555
C14_3 C13_3 1_555 1_555
H7_3 C14_3 1_555 1_555
C15_3 C10_3 1_555 1_555
H8_3 C15_3 1_555 1_555
C16_3 C13_3 1_555 1_555
C17_3 H9_3 1_555 1_555
H10_3 C17_3 1_555 1_555
H11_3 C17_3 1_555 1_555
C18_3 N1_3 1_555 1_555
C19_3 N1_3 1_555 1_555
H12_3 C19_3 1_555 1_555
C20_3 N2_3 1_555 1_555
H13_3 C20_3 1_555 1_555
C21_3 N2_3 1_555 1_555
C22_3 C21_3 1_555 1_555
H14_3 C22_3 1_555 1_555
C23_3 C22_3 1_555 1_555
C24_3 N3_3 1_555 1_555
H15_3 C24_3 1_555 1_555
C25_3 N5_3 1_555 1_555
H16_3 C25_3 1_555 1_555
C26_3 C25_3 1_555 1_555
H17_3 C26_3 1_555 1_555
C27_3 N5_3 1_555 1_555
C28_3 C27_3 1_555 1_555
H18_3 C28_3 1_555 1_555
H19_3 C28_3 1_555 1_555
H20_3 C28_3 1_555 1_555
Co4_2 O8_2 1_555 1_555
Co7_2 O7_2 1_555 1_555
O9_2 Co7 1_555 1_555
O10_2 Co1_2 1_555 1_555
O11_2 Co7 1_555 1_555
O12_2 Co1_2 1_555 1_555
O6_3 C9_3 1_555 1_555
N4_3 C24_3 1_555 1_555
N7 C27_3 1_555 1_555
C6_3 C7_3 1_555 1_555
C14_3 C15_3 1_555 1_555
C17_3 C18_3 1_555 1_555
C19_3 C20_3 1_555 1_555
Co4_2 Co7_2 1_555 1_555
O3_2 C8_3 1_555 1_555
O4_2 C8_3 1_555 1_555
C8_3 C5_3 1_555 1_555
Co4_2 O4_2 1_555 1_555
Co7_2 O3_2 1_555 1_555
O11_2 C16_4 1_555 1_555
O12_2 C16_4 1_555 1_555
H5_4 C11_4 1_555 1_555
C12_4 C11_4 1_555 1_555
H6_4 C12_4 1_555 1_555
C13_4 C12_4 1_555 1_555
C14_4 C13_4 1_555 1_555
H7_4 C14_4 1_555 1_555
C16_4 C13_4 1_555 1_555
C14_4 C15_4 1_555 1_555
O2_4 C1_4 1_555 1_555
O9_2 C8_4 1_555 1_555
O10_2 C8_4 1_555 1_555
N3_4 C21_4 1_555 1_555
N4_4 C23_4 1_555 1_555
N5_4 C23_4 1_555 1_555
C1_4 O1_4 1_555 1_555
C2_4 C1_4 1_555 1_555
C3_4 C2_4 1_555 1_555
H1_4 C3_4 1_555 1_555
C4_4 C3_4 1_555 1_555
H2_4 C4_4 1_555 1_555
C5_4 C4_4 1_555 1_555
C6_4 C5_4 1_555 1_555
H3_4 C6_4 1_555 1_555
C7_4 C2_4 1_555 1_555
H4_4 C7_4 1_555 1_555
C8_4 C5_4 1_555 1_555
C9_4 O5_4 1_555 1_555
C10_4 C9_4 1_555 1_555
C17_4 H9_4 1_555 1_555
H10_4 C17_4 1_555 1_555
H11_4 C17_4 1_555 1_555
C22_4 C21_4 1_555 1_555
C23_4 C22_4 1_555 1_555
C24_4 N3_4 1_555 1_555
H15_4 C24_4 1_555 1_555
C27_4 N5_4 1_555 1_555
C28_4 C27_4 1_555 1_555
H18_4 C28_4 1_555 1_555
H19_4 C28_4 1_555 1_555
H20_4 C28_4 1_555 1_555
O6_4 C9_4 1_555 1_555
N4_4 C24_4 1_555 1_555
N7_2 C27_4 1_555 1_555
C6_4 C7_4 1_555 1_555
C17_4 C18_4 1_555 1_555
N1_4 Co4_2 1_555 1_555
C19_4 N1_4 1_555 1_555
H12_4 C19_4 1_555 1_555
C20_4 N2_4 1_555 1_555
H13_4 C20_4 1_555 1_555
H16_4 C25_4 1_555 1_555
C26_4 C25_4 1_555 1_555
H17_4 C26_4 1_555 1_555
C19_4 C20_4 1_555 1_555
O3_3 C8_5 1_555 1_555
O4_3 C8_5 1_555 1_555
C8_5 C5_5 1_555 1_555
Co3 O4_3 1_555 1_555
Co5 O3_3 1_555 1_555
Co3 Co5 1_555 1_555
Co1_3 Co2_2 1_555 1_555
Co2_2 O2_5 1_555 1_555
O1_5 Co1_3 1_555 1_555
O2_5 C1_5 1_555 1_555
O5_5 Co1_3 1_555 1_555
O6_5 Co2_2 1_555 1_555
O7_3 C16_5 1_555 1_555
O8_3 C16_5 1_555 1_555
N1_5 Co1_3 1_555 1_555
N2_5 C18_5 1_555 1_555
N3_5 C21_5 1_555 1_555
N4_5 C23_5 1_555 1_555
N5_5 C23_5 1_555 1_555
N6_3 C26_5 1_555 1_555
C1_5 O1_5 1_555 1_555
C2_5 C1_5 1_555 1_555
C3_5 C2_5 1_555 1_555
H1_5 C3_5 1_555 1_555
C4_5 C3_5 1_555 1_555
H2_5 C4_5 1_555 1_555
C7_5 C2_5 1_555 1_555
H4_5 C7_5 1_555 1_555
C9_5 O5_5 1_555 1_555
C10_5 C9_5 1_555 1_555
C11_5 C10_5 1_555 1_555
H5_5 C11_5 1_555 1_555
C12_5 C11_5 1_555 1_555
H6_5 C12_5 1_555 1_555
C13_5 C12_5 1_555 1_555
C14_5 C13_5 1_555 1_555
H7_5 C14_5 1_555 1_555
C15_5 C10_5 1_555 1_555
H8_5 C15_5 1_555 1_555
C16_5 C13_5 1_555 1_555
C17_5 H9_5 1_555 1_555
H10_5 C17_5 1_555 1_555
H11_5 C17_5 1_555 1_555
C18_5 N1_5 1_555 1_555
C19_5 N1_5 1_555 1_555
H12_5 C19_5 1_555 1_555
C20_5 N2_5 1_555 1_555
H13_5 C20_5 1_555 1_555
C21_5 N2_5 1_555 1_555
C22_5 C21_5 1_555 1_555
H14_5 C22_5 1_555 1_555
C23_5 C22_5 1_555 1_555
C24_5 N3_5 1_555 1_555
H15_5 C24_5 1_555 1_555
C25_5 N5_5 1_555 1_555
H16_5 C25_5 1_555 1_555
C26_5 C25_5 1_555 1_555
H17_5 C26_5 1_555 1_555
C27_5 N5_5 1_555 1_555
C28_5 C27_5 1_555 1_555
H18_5 C28_5 1_555 1_555
H19_5 C28_5 1_555 1_555
H20_5 C28_5 1_555 1_555
Co3 O8_3 1_555 1_555
Co5 O7_3 1_555 1_555
O9_3 Co2_2 1_555 1_555
O10_3 Co1_3 1_555 1_555
O11_3 Co2_2 1_555 1_555
O12_3 Co1_3 1_555 1_555
N7_3 Co2_2 1_555 1_555
O6_5 C9_5 1_555 1_555
N4_5 C24_5 1_555 1_555
N6_3 C27_5 1_555 1_555
C6_5 C7_5 1_555 1_555
C14_5 C15_5 1_555 1_555
C17_5 C18_5 1_555 1_555
C19_5 C20_5 1_555 1_555
N1_6 Co3 1_555 1_555
C19_6 N1_6 1_555 1_555
H12_6 C19_6 1_555 1_555
C20_6 N2_6 1_555 1_555
H13_6 C20_6 1_555 1_555
H16_6 C25_6 1_555 1_555
C26_6 C25_6 1_555 1_555
H17_6 C26_6 1_555 1_555
N7_4 Co5 1_555 1_555
C19_6 C20_6 1_555 1_555
O2_6 C1_6 1_555 1_555
O9_3 C8_6 1_555 1_555
O10_3 C8_6 1_555 1_555
N3_6 C21_6 1_555 1_555
N4_6 C23_6 1_555 1_555
N5_6 C23_6 1_555 1_555
C1_6 O1_6 1_555 1_555
C2_6 C1_6 1_555 1_555
C3_6 C2_6 1_555 1_555
H1_6 C3_6 1_555 1_555
C4_6 C3_6 1_555 1_555
H2_6 C4_6 1_555 1_555
C5_6 C4_6 1_555 1_555
C6_6 C5_6 1_555 1_555
H3_6 C6_6 1_555 1_555
C7_6 C2_6 1_555 1_555
H4_6 C7_6 1_555 1_555
C8_6 C5_6 1_555 1_555
C9_6 O5_6 1_555 1_555
C10_6 C9_6 1_555 1_555
C17_6 H9_6 1_555 1_555
H10_6 C17_6 1_555 1_555
H11_6 C17_6 1_555 1_555
C22_6 C21_6 1_555 1_555
C23_6 C22_6 1_555 1_555
C24_6 N3_6 1_555 1_555
H15_6 C24_6 1_555 1_555
C27_6 N5_6 1_555 1_555
C28_6 C27_6 1_555 1_555
H18_6 C28_6 1_555 1_555
H19_6 C28_6 1_555 1_555
H20_6 C28_6 1_555 1_555
O6_6 C9_6 1_555 1_555
N4_6 C24_6 1_555 1_555
N6_4 C27_6 1_555 1_555
C6_6 C7_6 1_555 1_555
C17_6 C18_6 1_555 1_555
O11_3 C16_6 1_555 1_555
O12_3 C16_6 1_555 1_555
H5_6 C11_6 1_555 1_555
C12_6 C11_6 1_555 1_555
H6_6 C12_6 1_555 1_555
C13_6 C12_6 1_555 1_555
C14_6 C13_6 1_555 1_555
H7_6 C14_6 1_555 1_555
C16_6 C13_6 1_555 1_555
C14_6 C15_6 1_555 1_555
O3_4 C8_7 1_555 1_555
O4_4 C8_7 1_555 1_555
C8_7 C5_7 1_555 1_555
Co3_2 O4_4 1_555 1_555
Co7_4 O3_4 1_555 1_555
Co3_2 Co7_4 1_555 1_555
Co1_4 Co7_3 1_555 1_555
Co7_3 O2_7 1_555 1_555
O1_7 Co1_4 1_555 1_555
O2_7 C1_7 1_555 1_555
O5_7 Co1_4 1_555 1_555
O6_7 Co7_3 1_555 1_555
O7_4 C16_7 1_555 1_555
O8_4 C16_7 1_555 1_555
N1_7 Co1_4 1_555 1_555
N2_7 C18_7 1_555 1_555
N3_7 C21_7 1_555 1_555
N4_7 C23_7 1_555 1_555
N5_7 C23_7 1_555 1_555
N7_3 C26_7 1_555 1_555
C1_7 O1_7 1_555 1_555
C2_7 C1_7 1_555 1_555
C3_7 C2_7 1_555 1_555
H1_7 C3_7 1_555 1_555
C4_7 C3_7 1_555 1_555
H2_7 C4_7 1_555 1_555
C7_7 C2_7 1_555 1_555
H4_7 C7_7 1_555 1_555
C9_7 O5_7 1_555 1_555
C10_7 C9_7 1_555 1_555
C11_7 C10_7 1_555 1_555
H5_7 C11_7 1_555 1_555
C12_7 C11_7 1_555 1_555
H6_7 C12_7 1_555 1_555
C13_7 C12_7 1_555 1_555
C14_7 C13_7 1_555 1_555
H7_7 C14_7 1_555 1_555
C15_7 C10_7 1_555 1_555
H8_7 C15_7 1_555 1_555
C16_7 C13_7 1_555 1_555
C17_7 H9_7 1_555 1_555
H10_7 C17_7 1_555 1_555
H11_7 C17_7 1_555 1_555
C18_7 N1_7 1_555 1_555
C19_7 N1_7 1_555 1_555
H12_7 C19_7 1_555 1_555
C20_7 N2_7 1_555 1_555
H13_7 C20_7 1_555 1_555
C21_7 N2_7 1_555 1_555
C22_7 C21_7 1_555 1_555
H14_7 C22_7 1_555 1_555
C23_7 C22_7 1_555 1_555
C24_7 N3_7 1_555 1_555
H15_7 C24_7 1_555 1_555
C25_7 N5_7 1_555 1_555
H16_7 C25_7 1_555 1_555
C26_7 C25_7 1_555 1_555
H17_7 C26_7 1_555 1_555
C27_7 N5_7 1_555 1_555
C28_7 C27_7 1_555 1_555
H18_7 C28_7 1_555 1_555
H19_7 C28_7 1_555 1_555
H20_7 C28_7 1_555 1_555
Co3_2 O8_4 1_555 1_555
Co7_4 O7_4 1_555 1_555
O9_4 Co7_3 1_555 1_555
O10_4 Co1_4 1_555 1_555
O11_4 Co7_3 1_555 1_555
O12_4 Co1_4 1_555 1_555
O6_7 C9_7 1_555 1_555
N4_7 C24_7 1_555 1_555
N7_3 C27_7 1_555 1_555
C6_7 C7_7 1_555 1_555
C14_7 C15_7 1_555 1_555
C17_7 C18_7 1_555 1_555
C19_7 C20_7 1_555 1_555
O2_8 C1_8 1_555 1_555
O9_4 C8_8 1_555 1_555
O10_4 C8_8 1_555 1_555
N3_8 C21_8 1_555 1_555
N4_8 C23_8 1_555 1_555
N5_8 C23_8 1_555 1_555
C1_8 O1_8 1_555 1_555
C2_8 C1_8 1_555 1_555
C3_8 C2_8 1_555 1_555
H1_8 C3_8 1_555 1_555
C4_8 C3_8 1_555 1_555
H2_8 C4_8 1_555 1_555
C5_8 C4_8 1_555 1_555
C6_8 C5_8 1_555 1_555
H3_8 C6_8 1_555 1_555
C7_8 C2_8 1_555 1_555
H4_8 C7_8 1_555 1_555
C8_8 C5_8 1_555 1_555
C9_8 O5_8 1_555 1_555
C10_8 C9_8 1_555 1_555
C17_8 H9_8 1_555 1_555
H10_8 C17_8 1_555 1_555
H11_8 C17_8 1_555 1_555
C22_8 C21_8 1_555 1_555
C23_8 C22_8 1_555 1_555
C24_8 N3_8 1_555 1_555
H15_8 C24_8 1_555 1_555
C27_8 N5_8 1_555 1_555
C28_8 C27_8 1_555 1_555
H18_8 C28_8 1_555 1_555
H19_8 C28_8 1_555 1_555
H20_8 C28_8 1_555 1_555
O6_8 C9_8 1_555 1_555
N4_8 C24_8 1_555 1_555
N7_4 C27_8 1_555 1_555
C6_8 C7_8 1_555 1_555
C17_8 C18_8 1_555 1_555
N1_8 Co3_2 1_555 1_555
C19_8 N1_8 1_555 1_555
H12_8 C19_8 1_555 1_555
C20_8 N2_8 1_555 1_555
H13_8 C20_8 1_555 1_555
H16_8 C25_8 1_555 1_555
C26_8 C25_8 1_555 1_555
H17_8 C26_8 1_555 1_555
C19_8 C20_8 1_555 1_555
O11_4 C16_8 1_555 1_555
O12_4 C16_8 1_555 1_555
H5_8 C11_8 1_555 1_555
C12_8 C11_8 1_555 1_555
H6_8 C12_8 1_555 1_555
C13_8 C12_8 1_555 1_555
C14_8 C13_8 1_555 1_555
H7_8 C14_8 1_555 1_555
C16_8 C13_8 1_555 1_555
C14_8 C15_8 1_555 1_555

#END
