
###############################################################################
#
# This file contains modified crystal structure data generated from the
# MOF subset of the Cambridge Structural Database (CSD) v543 
# hosted by the Cambridge Crystallographic Data Centre (CCDC).
#
# This work is licensed under the Creative Commons
# Attribution-NonCommercial-ShareAlike 4.0 International License.
# To view a copy of this license, visit
# http://creativecommons.org/licenses/by-nc-sa/4.0/
# or send a letter to
# Creative Commons, PO Box 1866, Mountain View, CA 94042, USA.
#
# CIF created using the CSD Python API on 29 September 2022
# The structure has been converted into the P1 space group
# The structure has a 3D framework
# The original CSD entry OPIFIE is in the monoclinic crystal system
# The framework has been calculated to contain at least 10.0% void space
# The void calculation uses a probe of radius 1.32A, grid spacing 0.4
#
###############################################################################

data_OPIFIE
_chemical_formula_moiety         '(C200 H128 N8 O32 Zn8)n'
_symmetry_cell_setting           triclinic
_symmetry_space_group_name_H-M   'P 1'
_symmetry_Int_Tables_number      1
_space_group_name_Hall           'P 1'
loop_
_symmetry_equiv_pos_site_id
_symmetry_equiv_pos_as_xyz
1 x,y,z
_cell_length_a                   23.9468(10)
_cell_length_b                   9.1029(3)
_cell_length_c                   26.8693(10)
_cell_angle_alpha                90
_cell_angle_beta                 116.161(5)
_cell_angle_gamma                90
_cell_volume                     5257.1
loop_
_atom_site_label
_atom_site_type_symbol
_atom_site_fract_x
_atom_site_fract_y
_atom_site_fract_z
Zn1 Zn 0.24399(2) 0.02430(4) 0.27174(2)
O1 O 0.24010(9) 0.0804(2) 0.19955(7)
O2 O 0.23938(9) 0.3106(2) 0.22493(7)
O3 O 0.35409(11) 0.1100(3) 0.31988(9)
O4 O 0.27774(11) 0.1343(3) 0.34318(9)
N1 N 0.15169(10) 0.0277(3) 0.25844(9)
C2 C 0.24789(15) 0.1728(3) 0.10396(11)
H2 H 0.2504 0.0734 0.1126
C3 C 0.42713(14) 0.2990(3) 0.41112(11)
H3 H 0.4465 0.2586 0.3910
C4 C 0.37005(16) 0.2613(4) 0.39723(14)
H4 H 0.3509 0.2993 0.4179
C5 C 0.46409(12) 0.4018(3) 0.45680(11)
C6 C 0.03162(12) 0.0338(3) 0.25117(11)
C7 C 0.46074(12) 0.5526(3) 0.44629(11)
C8 C 0.24072(11) 0.2164(3) 0.19111(9)
C9 C 0.42092(19) 0.7579(4) 0.38232(14)
H5 H 0.3963 0.7933 0.3468
C10 C 0.15646(16) 0.0594(4) 0.00124(13)
H6 H 0.1560 0.0349 0.0347
C11 C 0.25005(14) 0.2140(3) 0.05128(11)
C12 C 0.50327(13) 0.3478(3) 0.51002(12)
C13 C 0.4560(3) 0.8561(4) 0.42533(17)
H7 H 0.4544 0.9563 0.4181
C15 C 0.06847(14) 0.1594(3) 0.26448(14)
H9 H 0.0533 0.2478 0.2710
C16 C 0.33281(15) 0.1604(3) 0.35006(11)
C17 C 0.4920(2) 0.8057(4) 0.47710(14)
H10 H 0.5143 0.8725 0.5051
C18 C 0.24273(14) 0.2649(3) 0.13917(11)
H11 H 0.2402 0.3649 0.1313
C19 C 0.42310(14) 0.6122(4) 0.39267(12)
H12 H 0.3993 0.5489 0.3640
C20 C 0.12779(14) 0.1518(3) 0.26797(13)
H13 H 0.1521 0.2363 0.2773
C21 C 0.29614(14) 0.3077(3) 0.05077(11)
C22 C 0.20393(14) 0.1551(3) 0.00144(11)
C23 C 0.3890(2) 0.4548(6) 0.09792(16)
H14 H 0.4207 0.4897 0.1308
C24 C 0.34503(16) 0.3661(5) 0.09966(12)
H15 H 0.3466 0.3421 0.1339
C25 C 0.38739(19) 0.4956(5) 0.04619(17)
H16 H 0.4168 0.5607 0.0453
O7 O 0.64591(11) 0.8900(3) 0.68012(9)
O8 O 0.72226(11) 0.8657(3) 0.65682(9)
C36 C 0.57287(14) 0.7010(3) 0.58888(11)
H23 H 0.5535 0.7414 0.6090
C37 C 0.62995(16) 0.7387(4) 0.60277(14)
H24 H 0.6491 0.7007 0.5821
C38 C 0.53591(12) 0.5982(3) 0.54320(11)
C39 C 0.53926(12) 0.4474(3) 0.55371(11)
C40 C 0.57908(19) 0.2421(4) 0.61768(14)
H25 H 0.6037 0.2067 0.6532
C41 C 0.49673(13) 0.6522(3) 0.48998(12)
C42 C 0.5440(3) 0.1439(4) 0.57467(17)
H26 H 0.5456 0.0437 0.5819
C43 C 0.66719(15) 0.8396(3) 0.64994(11)
C44 C 0.5080(2) 0.1943(4) 0.52290(14)
H27 H 0.4857 0.1275 0.4949
C45 C 0.57690(14) 0.3878(4) 0.60733(12)
H28 H 0.6007 0.4511 0.6360
Zn3 Zn 0.25601(2) 0.52430(4) 0.22826(2)
Zn4 Zn 0.75601(2) 0.97570(4) 0.72826(2)
O5 O 0.25990(9) 0.4196(2) 0.80045(7)
O6 O 0.26062(9) 0.1894(2) 0.77507(7)
C26 C 0.25211(15) 0.3272(3) 0.89604(11)
H17 H 0.2496 0.4266 0.8874
C27 C 0.25928(11) 0.2836(3) 0.80889(9)
C28 C 0.34354(16) 0.4406(4) 0.99876(13)
H18 H 0.3440 0.4651 0.9653
C29 C 0.24995(14) 0.2860(3) 0.94872(11)
C30 C 0.25727(14) 0.2351(3) 0.86083(11)
H19 H 0.2598 0.1351 0.8687
C31 C 0.20386(14) 0.1923(3) 0.94923(11)
C32 C 0.29607(14) 0.3449(3) 0.99856(11)
C33 C 0.1110(2) 0.0452(6) 0.90208(16)
H20 H 0.0793 0.0103 0.8692
C34 C 0.15497(16) 0.1339(5) 0.90034(12)
H21 H 0.1534 0.1579 0.8661
C35 C 0.11261(19) 0.0044(5) 0.95381(17)
Zn6 Zn 0.25601(2) 0.47570(4) 0.72826(2)
C1 C 0.11564(12) 0.9079(3) 0.24400(12)
H1 H 0.1313 0.8219 0.2363
C14 C 0.05616(13) 0.9064(3) 0.24000(12)
H8 H 0.0326 0.8207 0.2299
O11 O 0.26062(9) 0.8106(2) 0.27507(7)
H22 H 0.0832 0.9393 0.9547
Zn5 Zn 0.24399(2) 0.97570(4) 0.77174(2)
N2 N 0.84831(10) 0.0277(3) 0.24156(9)
C47 C 0.96838(12) 0.0338(3) 0.24883(11)
C49 C 0.93153(14) 0.1594(3) 0.23552(14)
H31 H 0.9467 0.2478 0.2290
C50 C 0.87221(14) 0.1518(3) 0.23203(13)
H32 H 0.8479 0.2363 0.2227
Zn2 Zn 0.75601(2) 0.02430(4) 0.22826(2)
O9 O 0.75990(9) 0.0804(2) 0.30045(7)
O12 O 0.64591(11) 0.1100(3) 0.18012(9)
O13 O 0.72226(11) 0.1343(3) 0.15682(9)
C46 C 0.88436(12) 0.9079(3) 0.25600(12)
H29 H 0.8687 0.8219 0.2637
C48 C 0.94384(13) 0.9064(3) 0.26000(12)
H30 H 0.9674 0.8207 0.2701
O10 O 0.73938(9) 0.8106(2) 0.22493(7)
O2_2 O 0.76062(9) 0.3106(2) 0.27507(7)
C2_2 C 0.75211(15) 0.1728(3) 0.39604(11)
H2_2 H 0.7496 0.0734 0.3874
C3_2 C 0.57287(14) 0.2990(3) 0.08888(11)
H3_2 H 0.5535 0.2586 0.1090
C4_2 C 0.62995(16) 0.2613(4) 0.10277(14)
H4_2 H 0.6491 0.2993 0.0821
C5_2 C 0.53591(12) 0.4018(3) 0.04320(11)
C7_2 C 0.53926(12) 0.5526(3) 0.05371(11)
C8_2 C 0.75928(11) 0.2164(3) 0.30889(9)
C9_2 C 0.57908(19) 0.7579(4) 0.11768(14)
H5_2 H 0.6037 0.7933 0.1532
C10_2 C 0.84354(16) 0.0594(4) 0.49876(13)
H6_2 H 0.8440 0.0349 0.4653
C11_2 C 0.74995(14) 0.2140(3) 0.44872(11)
C13_2 C 0.5440(3) 0.8561(4) 0.07467(17)
H7_2 H 0.5456 0.9563 0.0819
C16_2 C 0.66719(15) 0.1604(3) 0.14994(11)
C17_2 C 0.5080(2) 0.8057(4) 0.02290(14)
C18_2 C 0.75727(14) 0.2649(3) 0.36083(11)
H11_2 H 0.7598 0.3649 0.3687
C19_2 C 0.57690(14) 0.6122(4) 0.10733(12)
H12_2 H 0.6007 0.5489 0.1360
C21_2 C 0.70386(14) 0.3077(3) 0.44923(11)
C22_2 C 0.79607(14) 0.1551(3) 0.49856(11)
C23_2 C 0.6110(2) 0.4548(6) 0.40208(16)
H14_2 H 0.5793 0.4897 0.3692
C24_2 C 0.65497(16) 0.3661(5) 0.40034(12)
H15_2 H 0.6534 0.3421 0.3661
C25_2 C 0.61261(19) 0.4956(5) 0.45381(17)
H16_2 H 0.5832 0.5607 0.4547
O5_2 O 0.74010(9) 0.4196(2) 0.69955(7)
O6_2 O 0.73938(9) 0.1894(2) 0.72493(7)
C26_2 C 0.74789(15) 0.3272(3) 0.60396(11)
H17_2 H 0.7504 0.4266 0.6126
C27_2 C 0.74072(11) 0.2836(3) 0.69111(9)
C28_2 C 0.65646(16) 0.4406(4) 0.50124(13)
H18_2 H 0.6560 0.4651 0.5347
C29_2 C 0.75005(14) 0.2860(3) 0.55128(11)
C30_2 C 0.74273(14) 0.2351(3) 0.63917(11)
H19_2 H 0.7402 0.1351 0.6313
C31_2 C 0.79614(14) 0.1923(3) 0.55077(11)
C32_2 C 0.70393(14) 0.3449(3) 0.50144(11)
C33_2 C 0.8890(2) 0.0452(6) 0.59792(16)
H20_2 H 0.9207 0.0103 0.6308
C34_2 C 0.84503(16) 0.1339(5) 0.59966(12)
H21_2 H 0.8466 0.1579 0.6339
C35_2 C 0.88739(19) 0.0044(5) 0.54619(17)
C41_2 C 0.50327(13) 0.6522(3) 0.01002(12)
H27_2 H 0.5143 0.1275 0.0051
Zn3_2 Zn 0.74399(2) 0.52430(4) 0.27174(2)
Zn6_2 Zn 0.74399(2) 0.47570(4) 0.77174(2)
C12_2 C 0.49673(13) 0.3478(3) 0.98998(12)
H10_2 H 0.4857 0.8725 0.9949
O7_2 O 0.35409(11) 0.8900(3) 0.81988(9)
O8_2 O 0.27774(11) 0.8657(3) 0.84318(9)
C36_2 C 0.42713(14) 0.7010(3) 0.91112(11)
H23_2 H 0.4465 0.7414 0.8910
C37_2 C 0.37005(16) 0.7387(4) 0.89723(14)
H24_2 H 0.3509 0.7007 0.9179
C38_2 C 0.46409(12) 0.5982(3) 0.95680(11)
C39_2 C 0.46074(12) 0.4474(3) 0.94629(11)
C40_2 C 0.42092(19) 0.2421(4) 0.88232(14)
H25_2 H 0.3963 0.2067 0.8468
C42_2 C 0.4560(3) 0.1439(4) 0.92533(17)
H26_2 H 0.4544 0.0437 0.9181
C43_2 C 0.33281(15) 0.8396(3) 0.85006(11)
C44_2 C 0.4920(2) 0.1943(4) 0.97710(14)
C45_2 C 0.42310(14) 0.3878(4) 0.89267(12)
H28_2 H 0.3993 0.4511 0.8640
H22_2 H 0.9168 0.9393 0.5453
H10_3 H 0.0143 0.3725 0.5051
O7_3 O 0.14591(11) 0.3900(3) 0.68012(9)
O8_3 O 0.22226(11) 0.3657(3) 0.65682(9)
C36_3 C 0.07287(14) 0.2010(3) 0.58888(11)
H23_3 H 0.0535 0.2414 0.6090
C37_3 C 0.12995(16) 0.2387(4) 0.60277(14)
H24_3 H 0.1491 0.2007 0.5821
C38_3 C 0.03591(12) 0.0982(3) 0.54320(11)
C43_3 C 0.16719(15) 0.3396(3) 0.64994(11)
C12_3 C 0.00327(13) 0.8478(3) 0.51002(12)
C39_3 C 0.03926(12) 0.9474(3) 0.55371(11)
C40_3 C 0.07908(19) 0.7421(4) 0.61768(14)
H25_3 H 0.1037 0.7067 0.6532
C42_3 C 0.0440(3) 0.6439(4) 0.57467(17)
H26_3 H 0.0456 0.5437 0.5819
C44_3 C 0.0080(2) 0.6943(4) 0.52290(14)
C45_3 C 0.07690(14) 0.8878(4) 0.60733(12)
H28_3 H 0.1007 0.9511 0.6360
C7_3 C 0.96074(12) 0.0526(3) 0.44629(11)
C9_3 C 0.92092(19) 0.2579(4) 0.38232(14)
H5_3 H 0.8963 0.2933 0.3468
C13_3 C 0.9560(3) 0.3561(4) 0.42533(17)
H7_3 H 0.9544 0.4563 0.4181
C17_3 C 0.9920(2) 0.3057(4) 0.47710(14)
C19_3 C 0.92310(14) 0.1122(4) 0.39267(12)
H12_3 H 0.8993 0.0489 0.3640
H16_3 H 0.9168 0.0607 0.0453
C41_3 C 0.99673(13) 0.1522(3) 0.48998(12)
O1_2 O 0.74010(9) 0.5804(2) 0.19955(7)
O3_2 O 0.85409(11) 0.6100(3) 0.31988(9)
O4_2 O 0.77774(11) 0.6343(3) 0.34318(9)
C1_2 C 0.61564(12) 0.4079(3) 0.24400(12)
H1_2 H 0.6313 0.3219 0.2363
N1_2 N 0.65169(10) 0.5277(3) 0.25844(9)
C2_3 C 0.74789(15) 0.6728(3) 0.10396(11)
H2_3 H 0.7504 0.5734 0.1126
C3_3 C 0.92713(14) 0.7990(3) 0.41112(11)
H3_3 H 0.9465 0.7586 0.3910
C4_3 C 0.87005(16) 0.7613(4) 0.39723(14)
H4_3 H 0.8509 0.7993 0.4179
C5_3 C 0.96409(12) 0.9018(3) 0.45680(11)
C6_2 C 0.53162(12) 0.5338(3) 0.25117(11)
C8_3 C 0.74072(11) 0.7164(3) 0.19111(9)
C10_3 C 0.65646(16) 0.5594(4) 0.00124(13)
H6_3 H 0.6560 0.5349 0.0347
C11_3 C 0.75005(14) 0.7140(3) 0.05128(11)
C14_2 C 0.55616(13) 0.4064(3) 0.24000(12)
H8_2 H 0.5326 0.3207 0.2299
C15_2 C 0.56847(14) 0.6594(3) 0.26448(14)
H9_2 H 0.5533 0.7478 0.2710
C16_3 C 0.83281(15) 0.6604(3) 0.35006(11)
C18_3 C 0.74273(14) 0.7649(3) 0.13917(11)
H11_3 H 0.7402 0.8649 0.1313
C20_2 C 0.62779(14) 0.6518(3) 0.26797(13)
H13_2 H 0.6521 0.7363 0.2773
C21_3 C 0.79614(14) 0.8077(3) 0.05077(11)
C22_3 C 0.70393(14) 0.6551(3) 0.00144(11)
C23_3 C 0.8890(2) 0.9548(6) 0.09792(16)
H14_3 H 0.9207 0.9897 0.1308
C24_3 C 0.84503(16) 0.8661(5) 0.09966(12)
H15_3 H 0.8466 0.8421 0.1339
C25_3 C 0.88739(19) 0.9956(5) 0.04619(17)
H27_3 H 0.9857 0.6275 0.4949
C46_2 C 0.38436(12) 0.4079(3) 0.25600(12)
H29_2 H 0.3687 0.3219 0.2637
N2_2 N 0.34831(10) 0.5277(3) 0.24156(9)
C47_2 C 0.46838(12) 0.5338(3) 0.24883(11)
C48_2 C 0.44384(13) 0.4064(3) 0.26000(12)
H30_2 H 0.4674 0.3207 0.2701
C49_2 C 0.43153(14) 0.6594(3) 0.23552(14)
H31_2 H 0.4467 0.7478 0.2290
C50_2 C 0.37221(14) 0.6518(3) 0.23203(13)
H32_2 H 0.3479 0.7363 0.2227
O9_2 O 0.25990(9) 0.5804(2) 0.30045(7)
O12_2 O 0.14591(11) 0.6100(3) 0.18012(9)
O13_2 O 0.22226(11) 0.6343(3) 0.15682(9)
O5_3 O 0.75990(9) 0.9196(2) 0.80045(7)
O6_3 O 0.76062(9) 0.6894(2) 0.77507(7)
C26_3 C 0.75211(15) 0.8272(3) 0.89604(11)
H17_3 H 0.7496 0.9266 0.8874
C27_3 C 0.75928(11) 0.7836(3) 0.80889(9)
C28_3 C 0.84354(16) 0.9406(4) 0.99876(13)
H18_3 H 0.8440 0.9651 0.9653
C29_3 C 0.74995(14) 0.7860(3) 0.94872(11)
C30_3 C 0.75727(14) 0.7351(3) 0.86083(11)
H19_3 H 0.7598 0.6351 0.8687
C31_3 C 0.70386(14) 0.6923(3) 0.94923(11)
C32_3 C 0.79607(14) 0.8449(3) 0.99856(11)
C33_3 C 0.6110(2) 0.5452(6) 0.90208(16)
H20_3 H 0.5793 0.5103 0.8692
C34_3 C 0.65497(16) 0.6339(5) 0.90034(12)
H21_3 H 0.6534 0.6579 0.8661
C35_3 C 0.61261(19) 0.5044(5) 0.95381(17)
H22_3 H 0.5832 0.4393 0.9547
C7_4 C 0.03926(12) 0.0526(3) 0.05371(11)
C9_4 C 0.07908(19) 0.2579(4) 0.11768(14)
H5_4 H 0.1037 0.2933 0.1532
C13_4 C 0.0440(3) 0.3561(4) 0.07467(17)
H7_4 H 0.0456 0.4563 0.0819
C17_4 C 0.0080(2) 0.3057(4) 0.02290(14)
C19_4 C 0.07690(14) 0.1122(4) 0.10733(12)
H12_4 H 0.1007 0.0489 0.1360
H16_4 H 0.0832 0.0607 0.4547
C41_4 C 0.00327(13) 0.1522(3) 0.01002(12)
C2_4 C 0.25211(15) 0.6728(3) 0.39604(11)
H2_4 H 0.2496 0.5734 0.3874
C3_4 C 0.07287(14) 0.7990(3) 0.08888(11)
H3_4 H 0.0535 0.7586 0.1090
C4_4 C 0.12995(16) 0.7613(4) 0.10277(14)
H4_4 H 0.1491 0.7993 0.0821
C5_4 C 0.03591(12) 0.9018(3) 0.04320(11)
C8_4 C 0.25928(11) 0.7164(3) 0.30889(9)
C10_4 C 0.34354(16) 0.5594(4) 0.49876(13)
H6_4 H 0.3440 0.5349 0.4653
C11_4 C 0.24995(14) 0.7140(3) 0.44872(11)
C16_4 C 0.16719(15) 0.6604(3) 0.14994(11)
C18_4 C 0.25727(14) 0.7649(3) 0.36083(11)
H11_4 H 0.2598 0.8649 0.3687
C21_4 C 0.20386(14) 0.8077(3) 0.44923(11)
C22_4 C 0.29607(14) 0.6551(3) 0.49856(11)
C23_4 C 0.1110(2) 0.9548(6) 0.40208(16)
H14_4 H 0.0793 0.9897 0.3692
C24_4 C 0.15497(16) 0.8661(5) 0.40034(12)
H15_4 H 0.1534 0.8421 0.3661
C25_4 C 0.11261(19) 0.9956(5) 0.45381(17)
O5_4 O 0.24010(9) 0.9196(2) 0.69955(7)
O6_4 O 0.23938(9) 0.6894(2) 0.72493(7)
C26_4 C 0.24789(15) 0.8272(3) 0.60396(11)
H17_4 H 0.2504 0.9266 0.6126
C27_4 C 0.24072(11) 0.7836(3) 0.69111(9)
C28_4 C 0.15646(16) 0.9406(4) 0.50124(13)
H18_4 H 0.1560 0.9651 0.5347
C29_4 C 0.25005(14) 0.7860(3) 0.55128(11)
C30_4 C 0.24273(14) 0.7351(3) 0.63917(11)
H19_4 H 0.2402 0.6351 0.6313
C31_4 C 0.29614(14) 0.6923(3) 0.55077(11)
C32_4 C 0.20393(14) 0.8449(3) 0.50144(11)
C33_4 C 0.3890(2) 0.5452(6) 0.59792(16)
H20_4 H 0.4207 0.5103 0.6308
C34_4 C 0.34503(16) 0.6339(5) 0.59966(12)
H21_4 H 0.3466 0.6579 0.6339
C35_4 C 0.38739(19) 0.5044(5) 0.54619(17)
H22_4 H 0.4168 0.4393 0.5453
H27_4 H 0.0143 0.6275 0.0051
H10_4 H 0.9857 0.3725 0.9949
O7_4 O 0.85409(11) 0.3900(3) 0.81988(9)
O8_4 O 0.77774(11) 0.3657(3) 0.84318(9)
C36_4 C 0.92713(14) 0.2010(3) 0.91112(11)
H23_4 H 0.9465 0.2414 0.8910
C37_4 C 0.87005(16) 0.2387(4) 0.89723(14)
H24_4 H 0.8509 0.2007 0.9179
C38_4 C 0.96409(12) 0.0982(3) 0.95680(11)
C43_4 C 0.83281(15) 0.3396(3) 0.85006(11)
C12_4 C 0.99673(13) 0.8478(3) 0.98998(12)
C39_4 C 0.96074(12) 0.9474(3) 0.94629(11)
C40_4 C 0.92092(19) 0.7421(4) 0.88232(14)
H25_4 H 0.8963 0.7067 0.8468
C42_4 C 0.9560(3) 0.6439(4) 0.92533(17)
H26_4 H 0.9544 0.5437 0.9181
C44_4 C 0.9920(2) 0.6943(4) 0.97710(14)
C45_4 C 0.92310(14) 0.8878(4) 0.89267(12)
H28_4 H 0.8993 0.9511 0.8640
C46_3 C 0.11564(12) 0.0921(3) 0.74400(12)
H29_3 H 0.1313 0.1781 0.7363
C48_3 C 0.05616(13) 0.0936(3) 0.74000(12)
H30_3 H 0.0326 0.1793 0.7299
N2_3 N 0.15169(10) 0.9723(3) 0.75844(9)
C47_3 C 0.03162(12) 0.9662(3) 0.75117(11)
C49_3 C 0.06847(14) 0.8406(3) 0.76448(14)
H31_3 H 0.0533 0.7522 0.7710
C50_3 C 0.12779(14) 0.8482(3) 0.76797(13)
H32_3 H 0.1521 0.7637 0.7773
C1_3 C 0.88436(12) 0.0921(3) 0.75600(12)
H1_3 H 0.8687 0.1781 0.7637
C14_3 C 0.94384(13) 0.0936(3) 0.76000(12)
H8_3 H 0.9674 0.1793 0.7701
N1_3 N 0.84831(10) 0.9723(3) 0.74156(9)
C6_3 C 0.96838(12) 0.9662(3) 0.74883(11)
C15_3 C 0.93153(14) 0.8406(3) 0.73552(14)
H9_3 H 0.9467 0.7522 0.7290
C20_3 C 0.87221(14) 0.8482(3) 0.73203(13)
H13_3 H 0.8479 0.7637 0.7227
C1_4 C 0.38436(12) 0.5921(3) 0.75600(12)
H1_4 H 0.3687 0.6781 0.7637
N1_4 N 0.34831(10) 0.4723(3) 0.74156(9)
C6_4 C 0.46838(12) 0.4662(3) 0.74883(11)
C14_4 C 0.44384(13) 0.5936(3) 0.76000(12)
H8_4 H 0.4674 0.6793 0.7701
C15_4 C 0.43153(14) 0.3406(3) 0.73552(14)
H9_4 H 0.4467 0.2522 0.7290
C20_4 C 0.37221(14) 0.3482(3) 0.73203(13)
H13_4 H 0.3479 0.2637 0.7227
C46_4 C 0.61564(12) 0.5921(3) 0.74400(12)
H29_4 H 0.6313 0.6781 0.7363
N2_4 N 0.65169(10) 0.4723(3) 0.75844(9)
C47_4 C 0.53162(12) 0.4662(3) 0.75117(11)
C48_4 C 0.55616(13) 0.5936(3) 0.74000(12)
H30_4 H 0.5326 0.6793 0.7299
C49_4 C 0.56847(14) 0.3406(3) 0.76448(14)
H31_4 H 0.5533 0.2522 0.7710
C50_4 C 0.62779(14) 0.3482(3) 0.76797(13)
H32_4 H 0.6521 0.2637 0.7773
loop_
_geom_bond_atom_site_label_1
_geom_bond_atom_site_label_2
_geom_bond_site_symmetry_1
_geom_bond_site_symmetry_2
Zn1 O1 1_555 1_555
O1 C8 1_555 1_555
O2 C8 1_555 1_555
O3 Zn1 1_555 1_555
O4 Zn1 1_555 1_555
N1 Zn1 1_555 1_555
C2 H2 1_555 1_555
C3 H3 1_555 1_555
C4 C3 1_555 1_555
H4 C4 1_555 1_555
C5 C3 1_555 1_555
C7 C5 1_555 1_555
C8 C18 1_555 1_555
C9 H5 1_555 1_555
C10 H6 1_555 1_555
C11 C2 1_555 1_555
C12 C5 1_555 1_555
C13 C9 1_555 1_555
H7 C13 1_555 1_555
C15 C6 1_555 1_555
H9 C15 1_555 1_555
C16 O3 1_555 1_555
C17 C13 1_555 1_555
H10 C17 1_555 1_555
C18 C2 1_555 1_555
H11 C18 1_555 1_555
C19 C7 1_555 1_555
H12 C19 1_555 1_555
C20 N1 1_555 1_555
H13 C20 1_555 1_555
C21 C11 1_555 1_555
C22 C10 1_555 1_555
C23 H14 1_555 1_555
C24 C21 1_555 1_555
H15 C24 1_555 1_555
C25 C23 1_555 1_555
H16 C25 1_555 1_555
O7 C43 1_555 1_555
O8 C43 1_555 1_555
C36 H23 1_555 1_555
C37 C36 1_555 1_555
H24 C37 1_555 1_555
C38 C36 1_555 1_555
C39 C12 1_555 1_555
C40 H25 1_555 1_555
C41 C7 1_555 1_555
C42 C40 1_555 1_555
H26 C42 1_555 1_555
C43 C37 1_555 1_555
C44 C12 1_555 1_555
H27 C44 1_555 1_555
C45 C39 1_555 1_555
H28 C45 1_555 1_555
Zn3 O2 1_555 1_555
Zn4 O7 1_555 1_555
O4 C16 1_555 1_555
C4 C16 1_555 1_555
C9 C19 1_555 1_555
C11 C22 1_555 1_555
C15 C20 1_555 1_555
C17 C41 1_555 1_555
C23 C24 1_555 1_555
O8 Zn4 1_555 1_555
C38 C39 1_555 1_555
C38 C41 1_555 1_555
C40 C45 1_555 1_555
C42 C44 1_555 1_555
O5 C27 1_555 1_555
O6 C27 1_555 1_555
C26 H17 1_555 1_555
C27 C30 1_555 1_555
H18 C28 1_555 1_555
C29 C26 1_555 1_555
C30 C26 1_555 1_555
H19 C30 1_555 1_555
C33 H20 1_555 1_555
C34 C31 1_555 1_555
H21 C34 1_555 1_555
Zn6 O5 1_555 1_555
C28 C32 1_555 1_555
C29 C31 1_555 1_555
C29 C32 1_555 1_555
C33 C34 1_555 1_555
C33 C35 1_555 1_555
C1 H1 1_555 1_555
C14 C1 1_555 1_555
H8 C14 1_555 1_555
C49 C47 1_555 1_555
H31 C49 1_555 1_555
C50 N2 1_555 1_555
H32 C50 1_555 1_555
Zn2 N2 1_555 1_555
O9 Zn2 1_555 1_555
O12 Zn2 1_555 1_555
O13 Zn2 1_555 1_555
C49 C50 1_555 1_555
C46 H29 1_555 1_555
C48 C46 1_555 1_555
H30 C48 1_555 1_555
O9 C8_2 1_555 1_555
O2_2 C8_2 1_555 1_555
C2_2 H2_2 1_555 1_555
C3_2 H3_2 1_555 1_555
C4_2 C3_2 1_555 1_555
H4_2 C4_2 1_555 1_555
C5_2 C3_2 1_555 1_555
C7_2 C5_2 1_555 1_555
C8_2 C18_2 1_555 1_555
C9_2 H5_2 1_555 1_555
C10_2 H6_2 1_555 1_555
C11_2 C2_2 1_555 1_555
C13_2 C9_2 1_555 1_555
H7_2 C13_2 1_555 1_555
C16_2 O12 1_555 1_555
C17_2 C13_2 1_555 1_555
C18_2 C2_2 1_555 1_555
H11_2 C18_2 1_555 1_555
C19_2 C7_2 1_555 1_555
H12_2 C19_2 1_555 1_555
C21_2 C11_2 1_555 1_555
C22_2 C10_2 1_555 1_555
C23_2 H14_2 1_555 1_555
C24_2 C21_2 1_555 1_555
H15_2 C24_2 1_555 1_555
C25_2 C23_2 1_555 1_555
H16_2 C25_2 1_555 1_555
O5_2 C27_2 1_555 1_555
O6_2 C27_2 1_555 1_555
C26_2 H17_2 1_555 1_555
C27_2 C30_2 1_555 1_555
C28_2 C25_2 1_555 1_555
H18_2 C28_2 1_555 1_555
C29_2 C26_2 1_555 1_555
C30_2 C26_2 1_555 1_555
H19_2 C30_2 1_555 1_555
C31_2 C22_2 1_555 1_555
C32_2 C21_2 1_555 1_555
C33_2 H20_2 1_555 1_555
C34_2 C31_2 1_555 1_555
H21_2 C34_2 1_555 1_555
C35_2 C10_2 1_555 1_555
C41_2 C7_2 1_555 1_555
Zn3_2 O2_2 1_555 1_555
Zn6_2 O5_2 1_555 1_555
O13 C16_2 1_555 1_555
C4_2 C16_2 1_555 1_555
C9_2 C19_2 1_555 1_555
C11_2 C22_2 1_555 1_555
C17_2 C41_2 1_555 1_555
C23_2 C24_2 1_555 1_555
C28_2 C32_2 1_555 1_555
C29_2 C31_2 1_555 1_555
C29_2 C32_2 1_555 1_555
C33_2 C34_2 1_555 1_555
C33_2 C35_2 1_555 1_555
O7_2 C43_2 1_555 1_555
O8_2 C43_2 1_555 1_555
C36_2 H23_2 1_555 1_555
C37_2 C36_2 1_555 1_555
H24_2 C37_2 1_555 1_555
C38_2 C36_2 1_555 1_555
C39_2 C12_2 1_555 1_555
C40_2 H25_2 1_555 1_555
C42_2 C40_2 1_555 1_555
H26_2 C42_2 1_555 1_555
C43_2 C37_2 1_555 1_555
C44_2 C12_2 1_555 1_555
C45_2 C39_2 1_555 1_555
H28_2 C45_2 1_555 1_555
Zn5 O7_2 1_555 1_555
O8_2 Zn5 1_555 1_555
C38_2 C39_2 1_555 1_555
C40_2 C45_2 1_555 1_555
C42_2 C44_2 1_555 1_555
O7_3 C43_3 1_555 1_555
O8_3 C43_3 1_555 1_555
C36_3 H23_3 1_555 1_555
C37_3 C36_3 1_555 1_555
H24_3 C37_3 1_555 1_555
C38_3 C36_3 1_555 1_555
C43_3 C37_3 1_555 1_555
Zn6 O7_3 1_555 1_555
O8_3 Zn6 1_555 1_555
C39_3 C12_3 1_555 1_555
C40_3 H25_3 1_555 1_555
C42_3 C40_3 1_555 1_555
H26_3 C42_3 1_555 1_555
C44_3 C12_3 1_555 1_555
C45_3 C39_3 1_555 1_555
H28_3 C45_3 1_555 1_555
C40_3 C45_3 1_555 1_555
C42_3 C44_3 1_555 1_555
C9_3 H5_3 1_555 1_555
C13_3 C9_3 1_555 1_555
H7_3 C13_3 1_555 1_555
C17_3 C13_3 1_555 1_555
C19_3 C7_3 1_555 1_555
H12_3 C19_3 1_555 1_555
C41_3 C7_3 1_555 1_555
C9_3 C19_3 1_555 1_555
C17_3 C41_3 1_555 1_555
Zn3_2 O1_2 1_555 1_555
O1_2 C8_3 1_555 1_555
O10 C8_3 1_555 1_555
O3_2 Zn3_2 1_555 1_555
O4_2 Zn3_2 1_555 1_555
C1_2 H1_2 1_555 1_555
N1_2 Zn3_2 1_555 1_555
C2_3 H2_3 1_555 1_555
C3_3 H3_3 1_555 1_555
C4_3 C3_3 1_555 1_555
H4_3 C4_3 1_555 1_555
C5_3 C3_3 1_555 1_555
C6_2 C14_2 1_555 1_555
C8_3 C18_3 1_555 1_555
C10_3 H6_3 1_555 1_555
C11_3 C2_3 1_555 1_555
C14_2 C1_2 1_555 1_555
H8_2 C14_2 1_555 1_555
C15_2 C6_2 1_555 1_555
H9_2 C15_2 1_555 1_555
C16_3 O3_2 1_555 1_555
C18_3 C2_3 1_555 1_555
H11_3 C18_3 1_555 1_555
C20_2 N1_2 1_555 1_555
H13_2 C20_2 1_555 1_555
C21_3 C11_3 1_555 1_555
C22_3 C10_3 1_555 1_555
C23_3 H14_3 1_555 1_555
C24_3 C21_3 1_555 1_555
H15_3 C24_3 1_555 1_555
C25_3 C23_3 1_555 1_555
C46_2 H29_2 1_555 1_555
N2_2 C46_2 1_555 1_555
C47_2 C6_2 1_555 1_555
C48_2 C46_2 1_555 1_555
H30_2 C48_2 1_555 1_555
C49_2 C47_2 1_555 1_555
H31_2 C49_2 1_555 1_555
C50_2 N2_2 1_555 1_555
H32_2 C50_2 1_555 1_555
Zn3 N2_2 1_555 1_555
O9_2 Zn3 1_555 1_555
O12_2 Zn3 1_555 1_555
O13_2 Zn3 1_555 1_555
O4_2 C16_3 1_555 1_555
C1_2 N1_2 1_555 1_555
C4_3 C16_3 1_555 1_555
C11_3 C22_3 1_555 1_555
C15_2 C20_2 1_555 1_555
C23_3 C24_3 1_555 1_555
C47_2 C48_2 1_555 1_555
C49_2 C50_2 1_555 1_555
O5_3 C27_3 1_555 1_555
O6_3 C27_3 1_555 1_555
C26_3 H17_3 1_555 1_555
C27_3 C30_3 1_555 1_555
H18_3 C28_3 1_555 1_555
C29_3 C26_3 1_555 1_555
C30_3 C26_3 1_555 1_555
H19_3 C30_3 1_555 1_555
C33_3 H20_3 1_555 1_555
C34_3 C31_3 1_555 1_555
H21_3 C34_3 1_555 1_555
H22_3 C35_3 1_555 1_555
Zn6_2 O6_3 1_555 1_555
Zn4 O5_3 1_555 1_555
C28_3 C32_3 1_555 1_555
C29_3 C31_3 1_555 1_555
C29_3 C32_3 1_555 1_555
C33_3 C34_3 1_555 1_555
C33_3 C35_3 1_555 1_555
C9_4 H5_4 1_555 1_555
C13_4 C9_4 1_555 1_555
H7_4 C13_4 1_555 1_555
C17_4 C13_4 1_555 1_555
C19_4 C7_4 1_555 1_555
H12_4 C19_4 1_555 1_555
C41_4 C7_4 1_555 1_555
C9_4 C19_4 1_555 1_555
C17_4 C41_4 1_555 1_555
O9_2 C8_4 1_555 1_555
O11 C8_4 1_555 1_555
C2_4 H2_4 1_555 1_555
C3_4 H3_4 1_555 1_555
C4_4 C3_4 1_555 1_555
H4_4 C4_4 1_555 1_555
C5_4 C3_4 1_555 1_555
C8_4 C18_4 1_555 1_555
C10_4 H6_4 1_555 1_555
C11_4 C2_4 1_555 1_555
C16_4 O12_2 1_555 1_555
C18_4 C2_4 1_555 1_555
H11_4 C18_4 1_555 1_555
C21_4 C11_4 1_555 1_555
C22_4 C10_4 1_555 1_555
C23_4 H14_4 1_555 1_555
C24_4 C21_4 1_555 1_555
H15_4 C24_4 1_555 1_555
C25_4 C23_4 1_555 1_555
O5_4 C27_4 1_555 1_555
O6_4 C27_4 1_555 1_555
C26_4 H17_4 1_555 1_555
C27_4 C30_4 1_555 1_555
C28_4 C25_4 1_555 1_555
H18_4 C28_4 1_555 1_555
C29_4 C26_4 1_555 1_555
C30_4 C26_4 1_555 1_555
H19_4 C30_4 1_555 1_555
C31_4 C22_4 1_555 1_555
C32_4 C21_4 1_555 1_555
C33_4 H20_4 1_555 1_555
C34_4 C31_4 1_555 1_555
H21_4 C34_4 1_555 1_555
C35_4 C10_4 1_555 1_555
H22_4 C35_4 1_555 1_555
Zn6 O6_4 1_555 1_555
Zn5 O5_4 1_555 1_555
O13_2 C16_4 1_555 1_555
C4_4 C16_4 1_555 1_555
C11_4 C22_4 1_555 1_555
C23_4 C24_4 1_555 1_555
C28_4 C32_4 1_555 1_555
C29_4 C31_4 1_555 1_555
C29_4 C32_4 1_555 1_555
C33_4 C34_4 1_555 1_555
C33_4 C35_4 1_555 1_555
O7_4 C43_4 1_555 1_555
O8_4 C43_4 1_555 1_555
C36_4 H23_4 1_555 1_555
C37_4 C36_4 1_555 1_555
H24_4 C37_4 1_555 1_555
C38_4 C36_4 1_555 1_555
C43_4 C37_4 1_555 1_555
Zn6_2 O7_4 1_555 1_555
O8_4 Zn6_2 1_555 1_555
C39_4 C12_4 1_555 1_555
C40_4 H25_4 1_555 1_555
C42_4 C40_4 1_555 1_555
H26_4 C42_4 1_555 1_555
C44_4 C12_4 1_555 1_555
C45_4 C39_4 1_555 1_555
H28_4 C45_4 1_555 1_555
C40_4 C45_4 1_555 1_555
C42_4 C44_4 1_555 1_555
C46_3 H29_3 1_555 1_555
C48_3 C46_3 1_555 1_555
H30_3 C48_3 1_555 1_555
C49_3 C47_3 1_555 1_555
H31_3 C49_3 1_555 1_555
C50_3 N2_3 1_555 1_555
H32_3 C50_3 1_555 1_555
Zn5 N2_3 1_555 1_555
C49_3 C50_3 1_555 1_555
C1_3 H1_3 1_555 1_555
C14_3 C1_3 1_555 1_555
H8_3 C14_3 1_555 1_555
N1_3 Zn4 1_555 1_555
C15_3 C6_3 1_555 1_555
H9_3 C15_3 1_555 1_555
C20_3 N1_3 1_555 1_555
H13_3 C20_3 1_555 1_555
C15_3 C20_3 1_555 1_555
C1_4 H1_4 1_555 1_555
N1_4 Zn6 1_555 1_555
C6_4 C14_4 1_555 1_555
C14_4 C1_4 1_555 1_555
H8_4 C14_4 1_555 1_555
C15_4 C6_4 1_555 1_555
H9_4 C15_4 1_555 1_555
C20_4 N1_4 1_555 1_555
H13_4 C20_4 1_555 1_555
C46_4 H29_4 1_555 1_555
N2_4 C46_4 1_555 1_555
C47_4 C6_4 1_555 1_555
C48_4 C46_4 1_555 1_555
H30_4 C48_4 1_555 1_555
C49_4 C47_4 1_555 1_555
H31_4 C49_4 1_555 1_555
C50_4 N2_4 1_555 1_555
H32_4 C50_4 1_555 1_555
Zn6_2 N2_4 1_555 1_555
C1_4 N1_4 1_555 1_555
C15_4 C20_4 1_555 1_555
C47_4 C48_4 1_555 1_555
C49_4 C50_4 1_555 1_555

#END
