
###############################################################################
#
# This file contains modified crystal structure data generated from the
# MOF subset of the Cambridge Structural Database (CSD) v543 
# hosted by the Cambridge Crystallographic Data Centre (CCDC).
#
# This work is licensed under the Creative Commons
# Attribution-NonCommercial-ShareAlike 4.0 International License.
# To view a copy of this license, visit
# http://creativecommons.org/licenses/by-nc-sa/4.0/
# or send a letter to
# Creative Commons, PO Box 1866, Mountain View, CA 94042, USA.
#
# CIF created using the CSD Python API on 29 September 2022
# The structure has been converted into the P1 space group
# The structure has a 3D framework
# The original CSD entry OPIXUI is in the orthorhombic crystal system
# The framework has been calculated to contain at least 10.0% void space
# The void calculation uses a probe of radius 1.32A, grid spacing 0.4
#
###############################################################################

data_OPIXUI
_chemical_formula_moiety         '(C512 H412 Cu64 N32 O310)n'
_symmetry_cell_setting           triclinic
_symmetry_space_group_name_H-M   'P 1'
_symmetry_Int_Tables_number      1
_space_group_name_Hall           'P 1'
loop_
_symmetry_equiv_pos_site_id
_symmetry_equiv_pos_as_xyz
1 x,y,z
_cell_length_a                   18.990(4)
_cell_length_b                   34.418(6)
_cell_length_c                   38.393(6)
_cell_angle_alpha                90
_cell_angle_beta                 90
_cell_angle_gamma                90
_cell_volume                     25093.6
loop_
_atom_site_label
_atom_site_type_symbol
_atom_site_fract_x
_atom_site_fract_y
_atom_site_fract_z
H1 H 0.295(4) 0.2772(13) 0.8713(17)
C1 C 0.3545(4) 0.16071(19) 0.83473(12)
C2 C 0.2594(4) 0.0782(2) 0.83661(15)
C3 C 0.3777(3) 0.11908(16) 0.83006(12)
C4 C 0.3359(3) 0.08385(16) 0.83073(12)
C5 C 0.3820(3) 0.05381(17) 0.82458(13)
C6 C 0.4459(3) 0.10936(17) 0.82335(13)
C7 C 0.5120(4) 0.1328(2) 0.81898(19)
H2 H 0.5017 0.1598 0.8226
H3 H 0.5302 0.1292 0.7959
H4 H 0.5464 0.1245 0.8357
C8 C 0.3714(4) 0.0108(2) 0.8234(2)
H6 H 0.3372 0.0045 0.8059
H7 H 0.3549 0.0019 0.8457
C9 C 0.5085(3) 0.04821(16) 0.80688(12)
C10 C 0.5102(3) 0.03591(17) 0.77279(12)
H8 H 0.4709 0.0392 0.7587
C11 C 0.5704(3) 0.01870(17) 0.75945(11)
C12 C 0.6307(3) 0.01429(16) 0.78003(11)
H9 H 0.6719 0.0042 0.7706
C13 C 0.6278(3) 0.02540(16) 0.81516(11)
C14 C 0.5675(3) 0.04269(17) 0.82844(12)
H10 H 0.5661 0.0506 0.8516
C15 C 0.6916(3) 0.01925(16) 0.83818(11)
C16 C 0.5737(3) 0.00681(17) 0.72166(12)
Cu1 Cu 0.40952(4) 0.24751(2) 0.840673(13)
Cu2 Cu 0.23940(4) 0.22641(2) 0.838171(14)
N1 N 0.4480(3) 0.06920(13) 0.81952(10)
O1 O 0.3139(2) 0.25644(11) 0.86008(8)
O2 O 0.1535(3) 0.20691(18) 0.81473(10)
O3 O 0.4010(3) 0.18622(14) 0.83500(12)
O4 O 0.2882(3) 0.16779(13) 0.83662(11)
O5 O 0.2191(3) 0.10771(16) 0.84132(15)
O6 O 0.2336(3) 0.04533(16) 0.83725(12)
O7 O 0.6851(2) 0.03046(12) 0.86884(8)
O8 O 0.7438(2) 0.00299(13) 0.82434(9)
O9 O 0.6322(2) 0.00924(14) 0.70733(9)
H11 H 0.247(3) 0.1272(15) 0.8458(18)
H12 H 0.143(3) 0.2258(13) 0.8016(13)
H13 H 0.118(2) 0.2044(17) 0.8283(14)
Cu3 Cu 0.34048(4) 0.24751(2) 0.909327(13)
Cu4 Cu 0.84048(4) 0.00249(2) 0.840673(13)
Cu6 Cu 0.73940(4) 0.02359(2) 0.911829(14)
O11 O 0.4361(2) 0.25644(11) 0.88992(8)
O12 O 0.1851(2) 0.21954(12) 0.88116(8)
O13 O 0.5062(2) 0.24701(13) 0.82434(9)
O14 O 0.3822(2) 0.25924(14) 0.79267(9)
O15 O 0.2661(2) 0.24563(13) 0.79154(8)
H5 H 0.4152 0.9983 0.8180
O10 O 0.5161(2) 0.99563(13) 0.70846(8)
Cu5 Cu 0.65952(4) 0.99751(2) 0.659327(13)
Cu7 Cu 0.48940(4) 0.97641(2) 0.661829(14)
H1_2 H 0.455(4) 0.4728(13) 0.8713(17)
C1_2 C 0.3955(4) 0.58929(19) 0.83473(12)
C2_2 C 0.4906(4) 0.6718(2) 0.83661(15)
C3_2 C 0.3723(3) 0.63092(16) 0.83006(12)
C4_2 C 0.4141(3) 0.66615(16) 0.83073(12)
C5_2 C 0.3680(3) 0.69619(17) 0.82458(13)
C6_2 C 0.3041(3) 0.64064(17) 0.82335(13)
C7_2 C 0.2380(4) 0.6172(2) 0.81898(19)
H2_2 H 0.2483 0.5902 0.8226
H3_2 H 0.2198 0.6208 0.7959
H4_2 H 0.2036 0.6255 0.8357
C8_2 C 0.3786(4) 0.7392(2) 0.8234(2)
H5_2 H 0.3348 0.7517 0.8180
H6_2 H 0.4128 0.7455 0.8059
H7_2 H 0.3951 0.7481 0.8457
C9_2 C 0.2415(3) 0.70179(16) 0.80688(12)
C10_2 C 0.2398(3) 0.71409(17) 0.77279(12)
H8_2 H 0.2791 0.7108 0.7587
C11_2 C 0.1796(3) 0.73130(17) 0.75945(11)
C12_2 C 0.1193(3) 0.73571(16) 0.78003(11)
H9_2 H 0.0781 0.7458 0.7706
C13_2 C 0.1222(3) 0.72460(16) 0.81516(11)
C14_2 C 0.1825(3) 0.70731(17) 0.82844(12)
H10_2 H 0.1839 0.6994 0.8516
C15_2 C 0.0584(3) 0.73075(16) 0.83818(11)
C16_2 C 0.1763(3) 0.74319(17) 0.72166(12)
Cu1_2 Cu 0.34048(4) 0.50249(2) 0.840673(13)
Cu2_2 Cu 0.51060(4) 0.52359(2) 0.838171(14)
N1_2 N 0.3020(3) 0.68080(13) 0.81952(10)
O1_2 O 0.4361(2) 0.49356(11) 0.86008(8)
O2_2 O 0.5965(3) 0.54309(18) 0.81473(10)
O3_2 O 0.3490(3) 0.56378(14) 0.83500(12)
O4_2 O 0.4618(3) 0.58221(13) 0.83662(11)
O5_2 O 0.5309(3) 0.64229(16) 0.84132(15)
O6_2 O 0.5164(3) 0.70467(16) 0.83725(12)
O7_2 O 0.0649(2) 0.71954(12) 0.86884(8)
O8_2 O 0.0062(2) 0.74701(13) 0.82434(9)
O9_2 O 0.1178(2) 0.74076(14) 0.70733(9)
O10_2 O 0.2339(2) 0.75437(13) 0.70846(8)
H11_2 H 0.503(3) 0.6228(15) 0.8458(18)
H12_2 H 0.607(3) 0.5242(13) 0.8016(13)
H13_2 H 0.632(2) 0.5456(17) 0.8283(14)
Cu3_2 Cu 0.40952(4) 0.50249(2) 0.909327(13)
Cu5_2 Cu 0.09048(4) 0.75249(2) 0.659327(13)
Cu6_2 Cu 0.01060(4) 0.72641(2) 0.911829(14)
Cu7_2 Cu 0.26060(4) 0.77359(2) 0.661829(14)
O11_2 O 0.3139(2) 0.49356(11) 0.88992(8)
O12_2 O 0.5649(2) 0.53046(12) 0.88116(8)
O13_2 O 0.2438(2) 0.50299(13) 0.82434(9)
O14_2 O 0.3678(2) 0.49076(14) 0.79267(9)
O15_2 O 0.4839(2) 0.50437(13) 0.79154(8)
Cu4_2 Cu 0.90952(4) 0.74751(2) 0.840673(13)
C16_3 C 0.1763(3) 0.00681(17) 0.02834(12)
O9_3 O 0.1178(2) 0.00924(14) 0.04267(9)
H1_3 H 0.455(4) 0.2772(13) 0.8787(17)
C1_3 C 0.3955(4) 0.16071(19) 0.91527(12)
C2_3 C 0.4906(4) 0.0782(2) 0.91339(15)
C3_3 C 0.3723(3) 0.11908(16) 0.91994(12)
C4_3 C 0.4141(3) 0.08385(16) 0.91927(12)
C5_3 C 0.3680(3) 0.05381(17) 0.92542(13)
C6_3 C 0.3041(3) 0.10936(17) 0.92665(13)
C7_3 C 0.2380(4) 0.1328(2) 0.93102(19)
H2_3 H 0.2483 0.1598 0.9274
H3_3 H 0.2198 0.1292 0.9541
H4_3 H 0.2036 0.1245 0.9143
C8_3 C 0.3786(4) 0.0108(2) 0.9266(2)
H6_3 H 0.4128 0.0045 0.9441
H7_3 H 0.3951 0.0019 0.9043
C9_3 C 0.2415(3) 0.04821(16) 0.94312(12)
C10_3 C 0.2398(3) 0.03591(17) 0.97721(12)
H8_3 H 0.2791 0.0392 0.9913
C11_3 C 0.1796(3) 0.01870(17) 0.99055(11)
C12_3 C 0.1193(3) 0.01429(16) 0.96997(11)
H9_3 H 0.0781 0.0042 0.9794
C13_3 C 0.1222(3) 0.02540(16) 0.93484(11)
C14_3 C 0.1825(3) 0.04269(17) 0.92156(12)
H10_3 H 0.1839 0.0506 0.8984
C15_3 C 0.0584(3) 0.01925(16) 0.91182(11)
Cu2_3 Cu 0.51060(4) 0.22641(2) 0.911829(14)
N1_3 N 0.3020(3) 0.06920(13) 0.93048(10)
O2_3 O 0.5965(3) 0.20691(18) 0.93527(10)
O3_3 O 0.3490(3) 0.18622(14) 0.91500(12)
O4_3 O 0.4618(3) 0.16779(13) 0.91338(11)
O5_3 O 0.5309(3) 0.10771(16) 0.90868(15)
O6_3 O 0.5164(3) 0.04533(16) 0.91275(12)
O7_3 O 0.0649(2) 0.03046(12) 0.88116(8)
O8_3 O 0.0062(2) 0.00299(13) 0.92566(9)
H11_3 H 0.503(3) 0.1272(15) 0.9042(18)
H12_3 H 0.607(3) 0.2258(13) 0.9484(13)
H13_3 H 0.632(2) 0.2044(17) 0.9217(14)
Cu6_3 Cu 0.01060(4) 0.02359(2) 0.838171(14)
O12_3 O 0.5649(2) 0.21954(12) 0.86884(8)
O13_3 O 0.2438(2) 0.24701(13) 0.92566(9)
O14_3 O 0.3678(2) 0.25924(14) 0.95733(9)
O15_3 O 0.4839(2) 0.24563(13) 0.95846(8)
O10_3 O 0.2339(2) 0.99563(13) 0.04154(8)
Cu5_3 Cu 0.09048(4) 0.99751(2) 0.090673(13)
Cu7_3 Cu 0.26060(4) 0.97641(2) 0.088171(14)
Cu4_3 Cu 0.90952(4) 0.00249(2) 0.909327(13)
C16_4 C 0.5737(3) 0.74319(17) 0.02834(12)
O9_4 O 0.6322(2) 0.74076(14) 0.04267(9)
O10_4 O 0.5161(2) 0.75437(13) 0.04154(8)
Cu5_4 Cu 0.65952(4) 0.75249(2) 0.090673(13)
Cu7_4 Cu 0.48940(4) 0.77359(2) 0.088171(14)
H1_4 H 0.295(4) 0.4728(13) 0.8787(17)
C1_4 C 0.3545(4) 0.58929(19) 0.91527(12)
C2_4 C 0.2594(4) 0.6718(2) 0.91339(15)
C3_4 C 0.3777(3) 0.63092(16) 0.91994(12)
C4_4 C 0.3359(3) 0.66615(16) 0.91927(12)
C5_4 C 0.3820(3) 0.69619(17) 0.92542(13)
C6_4 C 0.4459(3) 0.64064(17) 0.92665(13)
C7_4 C 0.5120(4) 0.6172(2) 0.93102(19)
H2_4 H 0.5017 0.5902 0.9274
H3_4 H 0.5302 0.6208 0.9541
H4_4 H 0.5464 0.6255 0.9143
C8_4 C 0.3714(4) 0.7392(2) 0.9266(2)
H5_3 H 0.4152 0.7517 0.9320
H6_4 H 0.3372 0.7455 0.9441
H7_4 H 0.3549 0.7481 0.9043
C9_4 C 0.5085(3) 0.70179(16) 0.94312(12)
C10_4 C 0.5102(3) 0.71409(17) 0.97721(12)
H8_4 H 0.4709 0.7108 0.9913
C11_4 C 0.5704(3) 0.73130(17) 0.99055(11)
C12_4 C 0.6307(3) 0.73571(16) 0.96997(11)
H9_4 H 0.6719 0.7458 0.9794
C13_4 C 0.6278(3) 0.72460(16) 0.93484(11)
C14_4 C 0.5675(3) 0.70731(17) 0.92156(12)
H10_4 H 0.5661 0.6994 0.8984
C15_4 C 0.6916(3) 0.73075(16) 0.91182(11)
Cu2_4 Cu 0.23940(4) 0.52359(2) 0.911829(14)
N1_4 N 0.4480(3) 0.68080(13) 0.93048(10)
O2_4 O 0.1535(3) 0.54309(18) 0.93527(10)
O3_4 O 0.4010(3) 0.56378(14) 0.91500(12)
O4_4 O 0.2882(3) 0.58221(13) 0.91338(11)
O5_4 O 0.2191(3) 0.64229(16) 0.90868(15)
O6_4 O 0.2336(3) 0.70467(16) 0.91275(12)
O7_4 O 0.6851(2) 0.71954(12) 0.88116(8)
O8_4 O 0.7438(2) 0.74701(13) 0.92566(9)
H11_4 H 0.247(3) 0.6228(15) 0.9042(18)
H12_4 H 0.143(3) 0.5242(13) 0.9484(13)
H13_4 H 0.118(2) 0.5456(17) 0.9217(14)
Cu4_4 Cu 0.84048(4) 0.74751(2) 0.909327(13)
Cu6_4 Cu 0.73940(4) 0.72641(2) 0.838171(14)
O12_4 O 0.1851(2) 0.53046(12) 0.86884(8)
O13_4 O 0.5062(2) 0.50299(13) 0.92566(9)
O14_4 O 0.3822(2) 0.49076(14) 0.95733(9)
O15_4 O 0.2661(2) 0.50437(13) 0.95846(8)
H1_5 H 0.295(4) 0.7772(13) 0.3713(17)
C1_5 C 0.3545(4) 0.66071(19) 0.33473(12)
C2_5 C 0.2594(4) 0.5782(2) 0.33661(15)
C3_5 C 0.3777(3) 0.61908(16) 0.33006(12)
C4_5 C 0.3359(3) 0.58385(16) 0.33073(12)
C5_5 C 0.3820(3) 0.55381(17) 0.32458(13)
C6_5 C 0.4459(3) 0.60936(17) 0.32335(13)
C7_5 C 0.5120(4) 0.6328(2) 0.31898(19)
H2_5 H 0.5017 0.6598 0.3226
H3_5 H 0.5302 0.6292 0.2959
H4_5 H 0.5464 0.6245 0.3357
C8_5 C 0.3714(4) 0.5108(2) 0.3234(2)
H5_4 H 0.4152 0.4983 0.3180
H6_5 H 0.3372 0.5045 0.3059
H7_5 H 0.3549 0.5019 0.3457
C9_5 C 0.5085(3) 0.54821(16) 0.30688(12)
C10_5 C 0.5102(3) 0.53591(17) 0.27279(12)
H8_5 H 0.4709 0.5392 0.2587
C11_5 C 0.5704(3) 0.51870(17) 0.25945(11)
C12_5 C 0.6307(3) 0.51429(16) 0.28003(11)
H9_5 H 0.6719 0.5042 0.2706
C13_5 C 0.6278(3) 0.52540(16) 0.31516(11)
C14_5 C 0.5675(3) 0.54269(17) 0.32844(12)
H10_5 H 0.5661 0.5506 0.3516
C15_5 C 0.6916(3) 0.51925(16) 0.33818(11)
C16_5 C 0.5737(3) 0.50681(17) 0.22166(12)
Cu1_3 Cu 0.40952(4) 0.74751(2) 0.340673(13)
Cu2_5 Cu 0.23940(4) 0.72641(2) 0.338171(14)
N1_5 N 0.4480(3) 0.56920(13) 0.31952(10)
O1_3 O 0.3139(2) 0.75644(11) 0.36008(8)
O2_5 O 0.1535(3) 0.70691(18) 0.31473(10)
O3_5 O 0.4010(3) 0.68622(14) 0.33500(12)
O4_5 O 0.2882(3) 0.66779(13) 0.33662(11)
O5_5 O 0.2191(3) 0.60771(16) 0.34132(15)
O6_5 O 0.2336(3) 0.54533(16) 0.33725(12)
O7_5 O 0.6851(2) 0.53046(12) 0.36884(8)
O8_5 O 0.7438(2) 0.50299(13) 0.32434(9)
O9_5 O 0.6322(2) 0.50924(14) 0.20733(9)
O10_5 O 0.5161(2) 0.49563(13) 0.20846(8)
H11_5 H 0.247(3) 0.6272(15) 0.3458(18)
H12_5 H 0.143(3) 0.7258(13) 0.3016(13)
H13_5 H 0.118(2) 0.7044(17) 0.3283(14)
Cu3_3 Cu 0.34048(4) 0.74751(2) 0.409327(13)
Cu4_5 Cu 0.84048(4) 0.50249(2) 0.340673(13)
Cu5_5 Cu 0.65952(4) 0.49751(2) 0.159327(13)
Cu6_5 Cu 0.73940(4) 0.52359(2) 0.411829(14)
Cu7_5 Cu 0.48940(4) 0.47641(2) 0.161829(14)
O11_3 O 0.4361(2) 0.75644(11) 0.38992(8)
O12_5 O 0.1851(2) 0.71954(12) 0.38116(8)
O13_5 O 0.5062(2) 0.74701(13) 0.32434(9)
O14_5 O 0.3822(2) 0.75924(14) 0.29267(9)
O15_5 O 0.2661(2) 0.74563(13) 0.29154(8)
C1_6 C 0.3955(4) 0.08929(19) 0.33473(12)
C2_6 C 0.4906(4) 0.1718(2) 0.33661(15)
C3_6 C 0.3723(3) 0.13092(16) 0.33006(12)
C4_6 C 0.4141(3) 0.16615(16) 0.33073(12)
C5_6 C 0.3680(3) 0.19619(17) 0.32458(13)
C6_6 C 0.3041(3) 0.14064(17) 0.32335(13)
C7_6 C 0.2380(4) 0.1172(2) 0.31898(19)
H2_6 H 0.2483 0.0902 0.3226
H3_6 H 0.2198 0.1208 0.2959
H4_6 H 0.2036 0.1255 0.3357
C8_6 C 0.3786(4) 0.2392(2) 0.3234(2)
H5_5 H 0.3348 0.2517 0.3180
H6_6 H 0.4128 0.2455 0.3059
H7_6 H 0.3951 0.2481 0.3457
C9_6 C 0.2415(3) 0.20179(16) 0.30688(12)
C10_6 C 0.2398(3) 0.21409(17) 0.27279(12)
H8_6 H 0.2791 0.2108 0.2587
C11_6 C 0.1796(3) 0.23130(17) 0.25945(11)
C12_6 C 0.1193(3) 0.23571(16) 0.28003(11)
H9_6 H 0.0781 0.2458 0.2706
C13_6 C 0.1222(3) 0.22460(16) 0.31516(11)
C14_6 C 0.1825(3) 0.20731(17) 0.32844(12)
H10_6 H 0.1839 0.1994 0.3516
C15_6 C 0.0584(3) 0.23075(16) 0.33818(11)
C16_6 C 0.1763(3) 0.24319(17) 0.22166(12)
Cu1_4 Cu 0.34048(4) 0.00249(2) 0.340673(13)
Cu2_6 Cu 0.51060(4) 0.02359(2) 0.338171(14)
N1_6 N 0.3020(3) 0.18080(13) 0.31952(10)
O2_6 O 0.5965(3) 0.04309(18) 0.31473(10)
O3_6 O 0.3490(3) 0.06378(14) 0.33500(12)
O4_6 O 0.4618(3) 0.08221(13) 0.33662(11)
O5_6 O 0.5309(3) 0.14229(16) 0.34132(15)
O6_6 O 0.5164(3) 0.20467(16) 0.33725(12)
O7_6 O 0.0649(2) 0.21954(12) 0.36884(8)
O8_6 O 0.0062(2) 0.24701(13) 0.32434(9)
O9_6 O 0.1178(2) 0.24076(14) 0.20733(9)
O10_6 O 0.2339(2) 0.25437(13) 0.20846(8)
H11_6 H 0.503(3) 0.1228(15) 0.3458(18)
H12_6 H 0.607(3) 0.0242(13) 0.3016(13)
H13_6 H 0.632(2) 0.0456(17) 0.3283(14)
Cu3_4 Cu 0.40952(4) 0.00249(2) 0.409327(13)
Cu5_6 Cu 0.09048(4) 0.25249(2) 0.159327(13)
Cu6_6 Cu 0.01060(4) 0.22641(2) 0.411829(14)
Cu7_6 Cu 0.26060(4) 0.27359(2) 0.161829(14)
O12_6 O 0.5649(2) 0.03046(12) 0.38116(8)
O13_6 O 0.2438(2) 0.00299(13) 0.32434(9)
O15_6 O 0.4839(2) 0.00437(13) 0.29154(8)
H1_6 H 0.455(4) 0.9728(13) 0.3713(17)
O1_4 O 0.4361(2) 0.99356(11) 0.36008(8)
O11_4 O 0.3139(2) 0.99356(11) 0.38992(8)
O14_6 O 0.3678(2) 0.99076(14) 0.29267(9)
Cu4_6 Cu 0.90952(4) 0.24751(2) 0.340673(13)
H1_7 H 0.455(4) 0.7772(13) 0.3787(17)
C1_7 C 0.3955(4) 0.66071(19) 0.41527(12)
C2_7 C 0.4906(4) 0.5782(2) 0.41339(15)
C3_7 C 0.3723(3) 0.61908(16) 0.41994(12)
C4_7 C 0.4141(3) 0.58385(16) 0.41927(12)
C5_7 C 0.3680(3) 0.55381(17) 0.42542(13)
C6_7 C 0.3041(3) 0.60936(17) 0.42665(13)
C7_7 C 0.2380(4) 0.6328(2) 0.43102(19)
H2_7 H 0.2483 0.6598 0.4274
H3_7 H 0.2198 0.6292 0.4541
H4_7 H 0.2036 0.6245 0.4143
C8_7 C 0.3786(4) 0.5108(2) 0.4266(2)
H5_6 H 0.3348 0.4983 0.4320
H6_7 H 0.4128 0.5045 0.4441
H7_7 H 0.3951 0.5019 0.4043
C9_7 C 0.2415(3) 0.54821(16) 0.44312(12)
C10_7 C 0.2398(3) 0.53591(17) 0.47721(12)
H8_7 H 0.2791 0.5392 0.4913
C11_7 C 0.1796(3) 0.51870(17) 0.49055(11)
C12_7 C 0.1193(3) 0.51429(16) 0.46997(11)
H9_7 H 0.0781 0.5042 0.4794
C13_7 C 0.1222(3) 0.52540(16) 0.43484(11)
C14_7 C 0.1825(3) 0.54269(17) 0.42156(12)
H10_7 H 0.1839 0.5506 0.3984
C15_7 C 0.0584(3) 0.51925(16) 0.41182(11)
C16_7 C 0.1763(3) 0.50681(17) 0.52834(12)
Cu2_7 Cu 0.51060(4) 0.72641(2) 0.411829(14)
N1_7 N 0.3020(3) 0.56920(13) 0.43048(10)
O2_7 O 0.5965(3) 0.70691(18) 0.43527(10)
O3_7 O 0.3490(3) 0.68622(14) 0.41500(12)
O4_7 O 0.4618(3) 0.66779(13) 0.41338(11)
O5_7 O 0.5309(3) 0.60771(16) 0.40868(15)
O6_7 O 0.5164(3) 0.54533(16) 0.41275(12)
O7_7 O 0.0649(2) 0.53046(12) 0.38116(8)
O8_7 O 0.0062(2) 0.50299(13) 0.42566(9)
O9_7 O 0.1178(2) 0.50924(14) 0.54267(9)
O10_7 O 0.2339(2) 0.49563(13) 0.54154(8)
H11_7 H 0.503(3) 0.6272(15) 0.4042(18)
H12_7 H 0.607(3) 0.7258(13) 0.4484(13)
H13_7 H 0.632(2) 0.7044(17) 0.4217(14)
Cu5_7 Cu 0.09048(4) 0.49751(2) 0.590673(13)
Cu6_7 Cu 0.01060(4) 0.52359(2) 0.338171(14)
Cu7_7 Cu 0.26060(4) 0.47641(2) 0.588171(14)
O12_7 O 0.5649(2) 0.71954(12) 0.36884(8)
O13_7 O 0.2438(2) 0.74701(13) 0.42566(9)
O14_7 O 0.3678(2) 0.75924(14) 0.45733(9)
O15_7 O 0.4839(2) 0.74563(13) 0.45846(8)
Cu4_7 Cu 0.90952(4) 0.50249(2) 0.409327(13)
C1_8 C 0.3545(4) 0.08929(19) 0.41527(12)
C2_8 C 0.2594(4) 0.1718(2) 0.41339(15)
C3_8 C 0.3777(3) 0.13092(16) 0.41994(12)
C4_8 C 0.3359(3) 0.16615(16) 0.41927(12)
C5_8 C 0.3820(3) 0.19619(17) 0.42542(13)
C6_8 C 0.4459(3) 0.14064(17) 0.42665(13)
C7_8 C 0.5120(4) 0.1172(2) 0.43102(19)
H2_8 H 0.5017 0.0902 0.4274
H3_8 H 0.5302 0.1208 0.4541
H4_8 H 0.5464 0.1255 0.4143
C8_8 C 0.3714(4) 0.2392(2) 0.4266(2)
H5_7 H 0.4152 0.2517 0.4320
H6_8 H 0.3372 0.2455 0.4441
H7_8 H 0.3549 0.2481 0.4043
C9_8 C 0.5085(3) 0.20179(16) 0.44312(12)
C10_8 C 0.5102(3) 0.21409(17) 0.47721(12)
H8_8 H 0.4709 0.2108 0.4913
C11_8 C 0.5704(3) 0.23130(17) 0.49055(11)
C12_8 C 0.6307(3) 0.23571(16) 0.46997(11)
H9_8 H 0.6719 0.2458 0.4794
C13_8 C 0.6278(3) 0.22460(16) 0.43484(11)
C14_8 C 0.5675(3) 0.20731(17) 0.42156(12)
H10_8 H 0.5661 0.1994 0.3984
C15_8 C 0.6916(3) 0.23075(16) 0.41182(11)
C16_8 C 0.5737(3) 0.24319(17) 0.52834(12)
Cu2_8 Cu 0.23940(4) 0.02359(2) 0.411829(14)
N1_8 N 0.4480(3) 0.18080(13) 0.43048(10)
O2_8 O 0.1535(3) 0.04309(18) 0.43527(10)
O3_8 O 0.4010(3) 0.06378(14) 0.41500(12)
O4_8 O 0.2882(3) 0.08221(13) 0.41338(11)
O5_8 O 0.2191(3) 0.14229(16) 0.40868(15)
O6_8 O 0.2336(3) 0.20467(16) 0.41275(12)
O7_8 O 0.6851(2) 0.21954(12) 0.38116(8)
O8_8 O 0.7438(2) 0.24701(13) 0.42566(9)
O9_8 O 0.6322(2) 0.24076(14) 0.54267(9)
O10_8 O 0.5161(2) 0.25437(13) 0.54154(8)
H11_8 H 0.247(3) 0.1228(15) 0.4042(18)
H12_8 H 0.143(3) 0.0242(13) 0.4484(13)
H13_8 H 0.118(2) 0.0456(17) 0.4217(14)
Cu4_8 Cu 0.84048(4) 0.24751(2) 0.409327(13)
Cu5_8 Cu 0.65952(4) 0.25249(2) 0.590673(13)
Cu6_8 Cu 0.73940(4) 0.22641(2) 0.338171(14)
Cu7_8 Cu 0.48940(4) 0.27359(2) 0.588171(14)
O12_8 O 0.1851(2) 0.03046(12) 0.36884(8)
O13_8 O 0.5062(2) 0.00299(13) 0.42566(9)
O15_8 O 0.2661(2) 0.00437(13) 0.45846(8)
H1_8 H 0.295(4) 0.9728(13) 0.3787(17)
O14_8 O 0.3822(2) 0.99076(14) 0.45733(9)
C7_9 C 0.0120(4) 0.1328(2) 0.31898(19)
H2_9 H 0.0017 0.1598 0.3226
H3_9 H 0.0302 0.1292 0.2959
H4_9 H 0.0464 0.1245 0.3357
C9_9 C 0.0085(3) 0.04821(16) 0.30688(12)
C10_9 C 0.0102(3) 0.03591(17) 0.27279(12)
C11_9 C 0.0704(3) 0.01870(17) 0.25945(11)
C12_9 C 0.1307(3) 0.01429(16) 0.28003(11)
H9_9 H 0.1719 0.0042 0.2706
C13_9 C 0.1278(3) 0.02540(16) 0.31516(11)
C14_9 C 0.0675(3) 0.04269(17) 0.32844(12)
H10_9 H 0.0661 0.0506 0.3516
C15_9 C 0.1916(3) 0.01925(16) 0.33818(11)
C16_9 C 0.0737(3) 0.00681(17) 0.22166(12)
O9_9 O 0.1322(2) 0.00924(14) 0.20733(9)
O10_9 O 0.0161(2) 0.99563(13) 0.20846(8)
Cu5_9 Cu 0.15952(4) 0.99751(2) 0.159327(13)
H1_9 H 0.795(4) 0.2772(13) 0.3713(17)
C1_9 C 0.8545(4) 0.16071(19) 0.33473(12)
C2_9 C 0.7594(4) 0.0782(2) 0.33661(15)
C3_9 C 0.8777(3) 0.11908(16) 0.33006(12)
C4_9 C 0.8359(3) 0.08385(16) 0.33073(12)
C5_9 C 0.8820(3) 0.05381(17) 0.32458(13)
C6_9 C 0.9459(3) 0.10936(17) 0.32335(13)
C8_9 C 0.8714(4) 0.0108(2) 0.3234(2)
H6_9 H 0.8372 0.0045 0.3059
H7_9 H 0.8549 0.0019 0.3457
H8_9 H 0.9709 0.0392 0.2587
N1_9 N 0.9480(3) 0.06920(13) 0.31952(10)
O1_5 O 0.8139(2) 0.25644(11) 0.36008(8)
O2_9 O 0.6535(3) 0.20691(18) 0.31473(10)
O3_9 O 0.9010(3) 0.18622(14) 0.33500(12)
O4_9 O 0.7882(3) 0.16779(13) 0.33662(11)
O5_9 O 0.7191(3) 0.10771(16) 0.34132(15)
O6_9 O 0.7336(3) 0.04533(16) 0.33725(12)
H11_9 H 0.747(3) 0.1272(15) 0.3458(18)
H12_9 H 0.643(3) 0.2258(13) 0.3016(13)
H13_9 H 0.618(2) 0.2044(17) 0.3283(14)
O11_5 O 0.9361(2) 0.25644(11) 0.38992(8)
O14_9 O 0.8822(2) 0.25924(14) 0.29267(9)
O15_9 O 0.7661(2) 0.24563(13) 0.29154(8)
H5_8 H 0.9152 0.9983 0.3180
Cu7_9 Cu 0.98940(4) 0.97641(2) 0.161829(14)
O2_10 O 0.0965(3) 0.54309(18) 0.31473(10)
O5_10 O 0.0309(3) 0.64229(16) 0.34132(15)
O6_10 O 0.0164(3) 0.70467(16) 0.33725(12)
H11_10 H 0.003(3) 0.6228(15) 0.3458(18)
H12_10 H 0.107(3) 0.5242(13) 0.3016(13)
H13_10 H 0.132(2) 0.5456(17) 0.3283(14)
H1_10 H 0.955(4) 0.4728(13) 0.3713(17)
C1_10 C 0.8955(4) 0.58929(19) 0.33473(12)
C2_10 C 0.9906(4) 0.6718(2) 0.33661(15)
C3_10 C 0.8723(3) 0.63092(16) 0.33006(12)
C4_10 C 0.9141(3) 0.66615(16) 0.33073(12)
C5_10 C 0.8680(3) 0.69619(17) 0.32458(13)
C6_10 C 0.8041(3) 0.64064(17) 0.32335(13)
C7_10 C 0.7380(4) 0.6172(2) 0.31898(19)
H2_10 H 0.7483 0.5902 0.3226
H3_10 H 0.7198 0.6208 0.2959
H4_10 H 0.7036 0.6255 0.3357
C8_10 C 0.8786(4) 0.7392(2) 0.3234(2)
H5_9 H 0.8348 0.7517 0.3180
H6_10 H 0.9128 0.7455 0.3059
H7_10 H 0.8951 0.7481 0.3457
C9_10 C 0.7415(3) 0.70179(16) 0.30688(12)
C10_10 C 0.7398(3) 0.71409(17) 0.27279(12)
H8_10 H 0.7791 0.7108 0.2587
C11_10 C 0.6796(3) 0.73130(17) 0.25945(11)
C12_10 C 0.6193(3) 0.73571(16) 0.28003(11)
H9_10 H 0.5781 0.7458 0.2706
C13_10 C 0.6222(3) 0.72460(16) 0.31516(11)
C14_10 C 0.6825(3) 0.70731(17) 0.32844(12)
H10_10 H 0.6839 0.6994 0.3516
C15_10 C 0.5584(3) 0.73075(16) 0.33818(11)
C16_10 C 0.6763(3) 0.74319(17) 0.22166(12)
N1_10 N 0.8020(3) 0.68080(13) 0.31952(10)
O1_6 O 0.9361(2) 0.49356(11) 0.36008(8)
O3_10 O 0.8490(3) 0.56378(14) 0.33500(12)
O4_10 O 0.9618(3) 0.58221(13) 0.33662(11)
O9_10 O 0.6178(2) 0.74076(14) 0.20733(9)
O10_10 O 0.7339(2) 0.75437(13) 0.20846(8)
Cu5_10 Cu 0.59048(4) 0.75249(2) 0.159327(13)
Cu7_10 Cu 0.76060(4) 0.77359(2) 0.161829(14)
O11_6 O 0.8139(2) 0.49356(11) 0.38992(8)
O14_10 O 0.8678(2) 0.49076(14) 0.29267(9)
O15_10 O 0.9839(2) 0.50437(13) 0.29154(8)
O2_11 O 0.0965(3) 0.20691(18) 0.43527(10)
O5_11 O 0.0309(3) 0.10771(16) 0.40868(15)
O6_11 O 0.0164(3) 0.04533(16) 0.41275(12)
H11_11 H 0.003(3) 0.1272(15) 0.4042(18)
H12_11 H 0.107(3) 0.2258(13) 0.4484(13)
H13_11 H 0.132(2) 0.2044(17) 0.4217(14)
H1_11 H 0.955(4) 0.2772(13) 0.3787(17)
C1_11 C 0.8955(4) 0.16071(19) 0.41527(12)
C2_11 C 0.9906(4) 0.0782(2) 0.41339(15)
C3_11 C 0.8723(3) 0.11908(16) 0.41994(12)
C4_11 C 0.9141(3) 0.08385(16) 0.41927(12)
C5_11 C 0.8680(3) 0.05381(17) 0.42542(13)
C6_11 C 0.8041(3) 0.10936(17) 0.42665(13)
C7_11 C 0.7380(4) 0.1328(2) 0.43102(19)
H2_11 H 0.7483 0.1598 0.4274
H3_11 H 0.7198 0.1292 0.4541
H4_11 H 0.7036 0.1245 0.4143
C8_11 C 0.8786(4) 0.0108(2) 0.4266(2)
H6_11 H 0.9128 0.0045 0.4441
H7_11 H 0.8951 0.0019 0.4043
C9_11 C 0.7415(3) 0.04821(16) 0.44312(12)
C10_11 C 0.7398(3) 0.03591(17) 0.47721(12)
H8_11 H 0.7791 0.0392 0.4913
C11_11 C 0.6796(3) 0.01870(17) 0.49055(11)
C12_11 C 0.6193(3) 0.01429(16) 0.46997(11)
H9_11 H 0.5781 0.0042 0.4794
C13_11 C 0.6222(3) 0.02540(16) 0.43484(11)
C14_11 C 0.6825(3) 0.04269(17) 0.42156(12)
H10_11 H 0.6839 0.0506 0.3984
C15_11 C 0.5584(3) 0.01925(16) 0.41182(11)
C16_11 C 0.6763(3) 0.00681(17) 0.52834(12)
N1_11 N 0.8020(3) 0.06920(13) 0.43048(10)
O3_11 O 0.8490(3) 0.18622(14) 0.41500(12)
O4_11 O 0.9618(3) 0.16779(13) 0.41338(11)
O9_11 O 0.6178(2) 0.00924(14) 0.54267(9)
O14_11 O 0.8678(2) 0.25924(14) 0.45733(9)
O15_11 O 0.9839(2) 0.24563(13) 0.45846(8)
H5_10 H 0.8348 0.9983 0.4320
O10_11 O 0.7339(2) 0.99563(13) 0.54154(8)
Cu5_11 Cu 0.59048(4) 0.99751(2) 0.590673(13)
Cu7_11 Cu 0.76060(4) 0.97641(2) 0.588171(14)
C7_12 C 0.0120(4) 0.6172(2) 0.43102(19)
H2_12 H 0.0017 0.5902 0.4274
H3_12 H 0.0302 0.6208 0.4541
H4_12 H 0.0464 0.6255 0.4143
C9_12 C 0.0085(3) 0.70179(16) 0.44312(12)
C10_12 C 0.0102(3) 0.71409(17) 0.47721(12)
C11_12 C 0.0704(3) 0.73130(17) 0.49055(11)
C12_12 C 0.1307(3) 0.73571(16) 0.46997(11)
H9_12 H 0.1719 0.7458 0.4794
C13_12 C 0.1278(3) 0.72460(16) 0.43484(11)
C14_12 C 0.0675(3) 0.70731(17) 0.42156(12)
H10_12 H 0.0661 0.6994 0.3984
C15_12 C 0.1916(3) 0.73075(16) 0.41182(11)
C16_12 C 0.0737(3) 0.74319(17) 0.52834(12)
O9_12 O 0.1322(2) 0.74076(14) 0.54267(9)
O10_12 O 0.0161(2) 0.75437(13) 0.54154(8)
Cu5_12 Cu 0.15952(4) 0.75249(2) 0.590673(13)
H1_12 H 0.795(4) 0.4728(13) 0.3787(17)
C1_12 C 0.8545(4) 0.58929(19) 0.41527(12)
C2_12 C 0.7594(4) 0.6718(2) 0.41339(15)
C3_12 C 0.8777(3) 0.63092(16) 0.41994(12)
C4_12 C 0.8359(3) 0.66615(16) 0.41927(12)
C5_12 C 0.8820(3) 0.69619(17) 0.42542(13)
C6_12 C 0.9459(3) 0.64064(17) 0.42665(13)
C8_12 C 0.8714(4) 0.7392(2) 0.4266(2)
H5_11 H 0.9152 0.7517 0.4320
H6_12 H 0.8372 0.7455 0.4441
H7_12 H 0.8549 0.7481 0.4043
H8_12 H 0.9709 0.7108 0.4913
N1_12 N 0.9480(3) 0.68080(13) 0.43048(10)
O2_12 O 0.6535(3) 0.54309(18) 0.43527(10)
O3_12 O 0.9010(3) 0.56378(14) 0.41500(12)
O4_12 O 0.7882(3) 0.58221(13) 0.41338(11)
O5_12 O 0.7191(3) 0.64229(16) 0.40868(15)
O6_12 O 0.7336(3) 0.70467(16) 0.41275(12)
H11_12 H 0.747(3) 0.6228(15) 0.4042(18)
H12_12 H 0.643(3) 0.5242(13) 0.4484(13)
H13_12 H 0.618(2) 0.5456(17) 0.4217(14)
Cu7_12 Cu 0.98940(4) 0.77359(2) 0.588171(14)
O14_12 O 0.8822(2) 0.49076(14) 0.45733(9)
O15_12 O 0.7661(2) 0.50437(13) 0.45846(8)
C7_13 C 0.0120(4) 0.6328(2) 0.81898(19)
H2_13 H 0.0017 0.6598 0.8226
H3_13 H 0.0302 0.6292 0.7959
H4_13 H 0.0464 0.6245 0.8357
C9_13 C 0.0085(3) 0.54821(16) 0.80688(12)
C10_13 C 0.0102(3) 0.53591(17) 0.77279(12)
C11_13 C 0.0704(3) 0.51870(17) 0.75945(11)
C12_13 C 0.1307(3) 0.51429(16) 0.78003(11)
H9_13 H 0.1719 0.5042 0.7706
C13_13 C 0.1278(3) 0.52540(16) 0.81516(11)
C14_13 C 0.0675(3) 0.54269(17) 0.82844(12)
H10_13 H 0.0661 0.5506 0.8516
C15_13 C 0.1916(3) 0.51925(16) 0.83818(11)
C16_13 C 0.0737(3) 0.50681(17) 0.72166(12)
O9_13 O 0.1322(2) 0.50924(14) 0.70733(9)
O10_13 O 0.0161(2) 0.49563(13) 0.70846(8)
Cu5_13 Cu 0.15952(4) 0.49751(2) 0.659327(13)
H1_13 H 0.795(4) 0.7772(13) 0.8713(17)
C1_13 C 0.8545(4) 0.66071(19) 0.83473(12)
C2_13 C 0.7594(4) 0.5782(2) 0.83661(15)
C3_13 C 0.8777(3) 0.61908(16) 0.83006(12)
C4_13 C 0.8359(3) 0.58385(16) 0.83073(12)
C5_13 C 0.8820(3) 0.55381(17) 0.82458(13)
C6_13 C 0.9459(3) 0.60936(17) 0.82335(13)
C8_13 C 0.8714(4) 0.5108(2) 0.8234(2)
H5_12 H 0.9152 0.4983 0.8180
H6_13 H 0.8372 0.5045 0.8059
H7_13 H 0.8549 0.5019 0.8457
H8_13 H 0.9709 0.5392 0.7587
N1_13 N 0.9480(3) 0.56920(13) 0.81952(10)
O1_7 O 0.8139(2) 0.75644(11) 0.86008(8)
O2_13 O 0.6535(3) 0.70691(18) 0.81473(10)
O3_13 O 0.9010(3) 0.68622(14) 0.83500(12)
O4_13 O 0.7882(3) 0.66779(13) 0.83662(11)
O5_13 O 0.7191(3) 0.60771(16) 0.84132(15)
O6_13 O 0.7336(3) 0.54533(16) 0.83725(12)
H11_13 H 0.747(3) 0.6272(15) 0.8458(18)
H12_13 H 0.643(3) 0.7258(13) 0.8016(13)
H13_13 H 0.618(2) 0.7044(17) 0.8283(14)
Cu7_13 Cu 0.98940(4) 0.47641(2) 0.661829(14)
O11_7 O 0.9361(2) 0.75644(11) 0.88992(8)
O14_13 O 0.8822(2) 0.75924(14) 0.79267(9)
O15_13 O 0.7661(2) 0.74563(13) 0.79154(8)
O2_14 O 0.0965(3) 0.04309(18) 0.81473(10)
O5_14 O 0.0309(3) 0.14229(16) 0.84132(15)
O6_14 O 0.0164(3) 0.20467(16) 0.83725(12)
H11_14 H 0.003(3) 0.1228(15) 0.8458(18)
H12_14 H 0.107(3) 0.0242(13) 0.8016(13)
H13_14 H 0.132(2) 0.0456(17) 0.8283(14)
C1_14 C 0.8955(4) 0.08929(19) 0.83473(12)
C2_14 C 0.9906(4) 0.1718(2) 0.83661(15)
C3_14 C 0.8723(3) 0.13092(16) 0.83006(12)
C4_14 C 0.9141(3) 0.16615(16) 0.83073(12)
C5_14 C 0.8680(3) 0.19619(17) 0.82458(13)
C6_14 C 0.8041(3) 0.14064(17) 0.82335(13)
C7_14 C 0.7380(4) 0.1172(2) 0.81898(19)
H2_14 H 0.7483 0.0902 0.8226
H3_14 H 0.7198 0.1208 0.7959
H4_14 H 0.7036 0.1255 0.8357
C8_14 C 0.8786(4) 0.2392(2) 0.8234(2)
H5_13 H 0.8348 0.2517 0.8180
H6_14 H 0.9128 0.2455 0.8059
H7_14 H 0.8951 0.2481 0.8457
C9_14 C 0.7415(3) 0.20179(16) 0.80688(12)
C10_14 C 0.7398(3) 0.21409(17) 0.77279(12)
H8_14 H 0.7791 0.2108 0.7587
C11_14 C 0.6796(3) 0.23130(17) 0.75945(11)
C12_14 C 0.6193(3) 0.23571(16) 0.78003(11)
H9_14 H 0.5781 0.2458 0.7706
C13_14 C 0.6222(3) 0.22460(16) 0.81516(11)
C14_14 C 0.6825(3) 0.20731(17) 0.82844(12)
H10_14 H 0.6839 0.1994 0.8516
C15_14 C 0.5584(3) 0.23075(16) 0.83818(11)
C16_14 C 0.6763(3) 0.24319(17) 0.72166(12)
N1_14 N 0.8020(3) 0.18080(13) 0.81952(10)
O3_14 O 0.8490(3) 0.06378(14) 0.83500(12)
O4_14 O 0.9618(3) 0.08221(13) 0.83662(11)
O9_14 O 0.6178(2) 0.24076(14) 0.70733(9)
O10_14 O 0.7339(2) 0.25437(13) 0.70846(8)
Cu5_14 Cu 0.59048(4) 0.25249(2) 0.659327(13)
Cu7_14 Cu 0.76060(4) 0.27359(2) 0.661829(14)
O15_14 O 0.9839(2) 0.00437(13) 0.79154(8)
H1_14 H 0.955(4) 0.9728(13) 0.8713(17)
O1_8 O 0.9361(2) 0.99356(11) 0.86008(8)
O11_8 O 0.8139(2) 0.99356(11) 0.88992(8)
O14_14 O 0.8678(2) 0.99076(14) 0.79267(9)
O2_15 O 0.0965(3) 0.70691(18) 0.93527(10)
O5_15 O 0.0309(3) 0.60771(16) 0.90868(15)
O6_15 O 0.0164(3) 0.54533(16) 0.91275(12)
H11_15 H 0.003(3) 0.6272(15) 0.9042(18)
H12_15 H 0.107(3) 0.7258(13) 0.9484(13)
H13_15 H 0.132(2) 0.7044(17) 0.9217(14)
C16_15 C 0.6763(3) 0.50681(17) 0.02834(12)
O9_15 O 0.6178(2) 0.50924(14) 0.04267(9)
O10_15 O 0.7339(2) 0.49563(13) 0.04154(8)
Cu5_15 Cu 0.59048(4) 0.49751(2) 0.090673(13)
Cu7_15 Cu 0.76060(4) 0.47641(2) 0.088171(14)
H1_15 H 0.955(4) 0.7772(13) 0.8787(17)
C1_15 C 0.8955(4) 0.66071(19) 0.91527(12)
C2_15 C 0.9906(4) 0.5782(2) 0.91339(15)
C3_15 C 0.8723(3) 0.61908(16) 0.91994(12)
C4_15 C 0.9141(3) 0.58385(16) 0.91927(12)
C5_15 C 0.8680(3) 0.55381(17) 0.92542(13)
C6_15 C 0.8041(3) 0.60936(17) 0.92665(13)
C7_15 C 0.7380(4) 0.6328(2) 0.93102(19)
H2_15 H 0.7483 0.6598 0.9274
H3_15 H 0.7198 0.6292 0.9541
H4_15 H 0.7036 0.6245 0.9143
C8_15 C 0.8786(4) 0.5108(2) 0.9266(2)
H5_14 H 0.8348 0.4983 0.9320
H6_15 H 0.9128 0.5045 0.9441
H7_15 H 0.8951 0.5019 0.9043
C9_15 C 0.7415(3) 0.54821(16) 0.94312(12)
C10_15 C 0.7398(3) 0.53591(17) 0.97721(12)
H8_15 H 0.7791 0.5392 0.9913
C11_15 C 0.6796(3) 0.51870(17) 0.99055(11)
C12_15 C 0.6193(3) 0.51429(16) 0.96997(11)
H9_15 H 0.5781 0.5042 0.9794
C13_15 C 0.6222(3) 0.52540(16) 0.93484(11)
C14_15 C 0.6825(3) 0.54269(17) 0.92156(12)
H10_15 H 0.6839 0.5506 0.8984
C15_15 C 0.5584(3) 0.51925(16) 0.91182(11)
N1_15 N 0.8020(3) 0.56920(13) 0.93048(10)
O3_15 O 0.8490(3) 0.68622(14) 0.91500(12)
O4_15 O 0.9618(3) 0.66779(13) 0.91338(11)
O14_15 O 0.8678(2) 0.75924(14) 0.95733(9)
O15_15 O 0.9839(2) 0.74563(13) 0.95846(8)
C16_16 C 0.0737(3) 0.24319(17) 0.02834(12)
O9_16 O 0.1322(2) 0.24076(14) 0.04267(9)
O10_16 O 0.0161(2) 0.25437(13) 0.04154(8)
Cu5_16 Cu 0.15952(4) 0.25249(2) 0.090673(13)
C7_16 C 0.0120(4) 0.1172(2) 0.93102(19)
H2_16 H 0.0017 0.0902 0.9274
H3_16 H 0.0302 0.1208 0.9541
H4_16 H 0.0464 0.1255 0.9143
C9_16 C 0.0085(3) 0.20179(16) 0.94312(12)
C10_16 C 0.0102(3) 0.21409(17) 0.97721(12)
C11_16 C 0.0704(3) 0.23130(17) 0.99055(11)
C12_16 C 0.1307(3) 0.23571(16) 0.96997(11)
H9_16 H 0.1719 0.2458 0.9794
C13_16 C 0.1278(3) 0.22460(16) 0.93484(11)
C14_16 C 0.0675(3) 0.20731(17) 0.92156(12)
H10_16 H 0.0661 0.1994 0.8984
C15_16 C 0.1916(3) 0.23075(16) 0.91182(11)
Cu7_16 Cu 0.98940(4) 0.27359(2) 0.088171(14)
C1_16 C 0.8545(4) 0.08929(19) 0.91527(12)
C2_16 C 0.7594(4) 0.1718(2) 0.91339(15)
C3_16 C 0.8777(3) 0.13092(16) 0.91994(12)
C4_16 C 0.8359(3) 0.16615(16) 0.91927(12)
C5_16 C 0.8820(3) 0.19619(17) 0.92542(13)
C6_16 C 0.9459(3) 0.14064(17) 0.92665(13)
C8_16 C 0.8714(4) 0.2392(2) 0.9266(2)
H5_15 H 0.9152 0.2517 0.9320
H6_16 H 0.8372 0.2455 0.9441
H7_16 H 0.8549 0.2481 0.9043
H8_16 H 0.9709 0.2108 0.9913
N1_16 N 0.9480(3) 0.18080(13) 0.93048(10)
O2_16 O 0.6535(3) 0.04309(18) 0.93527(10)
O3_16 O 0.9010(3) 0.06378(14) 0.91500(12)
O4_16 O 0.7882(3) 0.08221(13) 0.91338(11)
O5_16 O 0.7191(3) 0.14229(16) 0.90868(15)
O6_16 O 0.7336(3) 0.20467(16) 0.91275(12)
H11_16 H 0.747(3) 0.1228(15) 0.9042(18)
H12_16 H 0.643(3) 0.0242(13) 0.9484(13)
H13_16 H 0.618(2) 0.0456(17) 0.9217(14)
O15_16 O 0.7661(2) 0.00437(13) 0.95846(8)
H1_16 H 0.795(4) 0.9728(13) 0.8787(17)
O14_16 O 0.8822(2) 0.99076(14) 0.95733(9)
H5_16 H 0.5848 0.0017 0.1820
H1_17 H 0.705(4) 0.7228(13) 0.1287(17)
C1_17 C 0.6455(4) 0.83929(19) 0.16527(12)
C2_17 C 0.7406(4) 0.9218(2) 0.16339(15)
C3_17 C 0.6223(3) 0.88092(16) 0.16994(12)
C4_17 C 0.6641(3) 0.91615(16) 0.16927(12)
C5_17 C 0.6180(3) 0.94619(17) 0.17542(13)
C6_17 C 0.5541(3) 0.89064(17) 0.17665(13)
C7_17 C 0.4880(4) 0.8672(2) 0.18102(19)
H2_17 H 0.4983 0.8402 0.1774
H3_17 H 0.4698 0.8708 0.2041
H4_17 H 0.4536 0.8755 0.1643
C8_17 C 0.6286(4) 0.9892(2) 0.1766(2)
H6_17 H 0.6628 0.9955 0.1941
H7_17 H 0.6451 0.9981 0.1543
C9_17 C 0.4915(3) 0.95179(16) 0.19312(12)
C10_17 C 0.4898(3) 0.96409(17) 0.22721(12)
H8_17 H 0.5291 0.9608 0.2413
C11_17 C 0.4296(3) 0.98130(17) 0.24055(11)
C12_17 C 0.3693(3) 0.98571(16) 0.21997(11)
H9_17 H 0.3281 0.9958 0.2294
C13_17 C 0.3722(3) 0.97460(16) 0.18484(11)
C14_17 C 0.4325(3) 0.95731(17) 0.17156(12)
H10_17 H 0.4339 0.9494 0.1484
C15_17 C 0.3084(3) 0.98075(16) 0.16182(11)
C16_17 C 0.4263(3) 0.99319(17) 0.27834(12)
N1_17 N 0.5520(3) 0.93080(13) 0.18048(10)
O1_9 O 0.6861(2) 0.74356(11) 0.13992(8)
O2_17 O 0.8465(3) 0.79309(18) 0.18527(10)
O3_17 O 0.5990(3) 0.81378(14) 0.16500(12)
O4_17 O 0.7118(3) 0.83221(13) 0.16338(11)
O5_17 O 0.7809(3) 0.89229(16) 0.15868(15)
O6_17 O 0.7664(3) 0.95467(16) 0.16275(12)
O7_9 O 0.3149(2) 0.96954(12) 0.13116(8)
O8_9 O 0.2562(2) 0.99701(13) 0.17566(9)
H11_17 H 0.753(3) 0.8728(15) 0.1542(18)
H12_17 H 0.857(3) 0.7742(13) 0.1984(13)
H13_17 H 0.882(2) 0.7956(17) 0.1717(14)
O11_9 O 0.5639(2) 0.74356(11) 0.11008(8)
O12_9 O 0.8149(2) 0.78046(12) 0.11884(8)
O13_9 O 0.4938(2) 0.75299(13) 0.17566(9)
H1_18 H 0.545(4) 0.5272(13) 0.1287(17)
C1_18 C 0.6045(4) 0.41071(19) 0.16527(12)
C2_18 C 0.5094(4) 0.3282(2) 0.16339(15)
C3_18 C 0.6277(3) 0.36908(16) 0.16994(12)
C4_18 C 0.5859(3) 0.33385(16) 0.16927(12)
C5_18 C 0.6320(3) 0.30381(17) 0.17542(13)
C6_18 C 0.6959(3) 0.35936(17) 0.17665(13)
C7_18 C 0.7620(4) 0.3828(2) 0.18102(19)
H2_18 H 0.7517 0.4098 0.1774
H3_18 H 0.7802 0.3792 0.2041
H4_18 H 0.7964 0.3745 0.1643
C8_18 C 0.6214(4) 0.2608(2) 0.1766(2)
H5_17 H 0.6652 0.2483 0.1820
H6_18 H 0.5872 0.2545 0.1941
H7_18 H 0.6049 0.2519 0.1543
C9_18 C 0.7585(3) 0.29821(16) 0.19312(12)
C10_18 C 0.7602(3) 0.28591(17) 0.22721(12)
H8_18 H 0.7209 0.2892 0.2413
C11_18 C 0.8204(3) 0.26870(17) 0.24055(11)
C12_18 C 0.8807(3) 0.26429(16) 0.21997(11)
H9_18 H 0.9219 0.2542 0.2294
C13_18 C 0.8778(3) 0.27540(16) 0.18484(11)
C14_18 C 0.8175(3) 0.29269(17) 0.17156(12)
H10_18 H 0.8161 0.3006 0.1484
C15_18 C 0.9416(3) 0.26925(16) 0.16182(11)
C16_18 C 0.8237(3) 0.25681(17) 0.27834(12)
N1_18 N 0.6980(3) 0.31920(13) 0.18048(10)
O1_10 O 0.5639(2) 0.50644(11) 0.13992(8)
O2_18 O 0.4035(3) 0.45691(18) 0.18527(10)
O3_18 O 0.6510(3) 0.43622(14) 0.16500(12)
O4_18 O 0.5382(3) 0.41779(13) 0.16338(11)
O5_18 O 0.4691(3) 0.35771(16) 0.15868(15)
O6_18 O 0.4836(3) 0.29533(16) 0.16275(12)
O7_10 O 0.9351(2) 0.28046(12) 0.13116(8)
O8_10 O 0.9938(2) 0.25299(13) 0.17566(9)
H11_18 H 0.497(3) 0.3772(15) 0.1542(18)
H12_18 H 0.393(3) 0.4758(13) 0.1984(13)
H13_18 H 0.368(2) 0.4544(17) 0.1717(14)
O11_10 O 0.6861(2) 0.50644(11) 0.11008(8)
O12_10 O 0.4351(2) 0.46954(12) 0.11884(8)
O13_10 O 0.7562(2) 0.49701(13) 0.17566(9)
H1_19 H 0.545(4) 0.7228(13) 0.1213(17)
C1_19 C 0.6045(4) 0.83929(19) 0.08473(12)
C2_19 C 0.5094(4) 0.9218(2) 0.08661(15)
C3_19 C 0.6277(3) 0.88092(16) 0.08006(12)
C4_19 C 0.5859(3) 0.91615(16) 0.08073(12)
C5_19 C 0.6320(3) 0.94619(17) 0.07458(13)
C6_19 C 0.6959(3) 0.89064(17) 0.07335(13)
C7_19 C 0.7620(4) 0.8672(2) 0.06898(19)
H2_19 H 0.7517 0.8402 0.0726
H3_19 H 0.7802 0.8708 0.0459
H4_19 H 0.7964 0.8755 0.0857
C8_19 C 0.6214(4) 0.9892(2) 0.0734(2)
H6_19 H 0.5872 0.9955 0.0559
H7_19 H 0.6049 0.9981 0.0957
C9_19 C 0.7585(3) 0.95179(16) 0.05688(12)
C10_19 C 0.7602(3) 0.96409(17) 0.02279(12)
H8_19 H 0.7209 0.9608 0.0087
C11_19 C 0.8204(3) 0.98130(17) 0.00945(11)
C12_19 C 0.8807(3) 0.98571(16) 0.03003(11)
H9_19 H 0.9219 0.9958 0.0206
C13_19 C 0.8778(3) 0.97460(16) 0.06516(11)
C14_19 C 0.8175(3) 0.95731(17) 0.07844(12)
H10_19 H 0.8161 0.9494 0.1016
C15_19 C 0.9416(3) 0.98075(16) 0.08818(11)
N1_19 N 0.6980(3) 0.93080(13) 0.06952(10)
O2_19 O 0.4035(3) 0.79309(18) 0.06473(10)
O3_19 O 0.6510(3) 0.81378(14) 0.08500(12)
O4_19 O 0.5382(3) 0.83221(13) 0.08662(11)
O5_19 O 0.4691(3) 0.89229(16) 0.09132(15)
O6_19 O 0.4836(3) 0.95467(16) 0.08725(12)
O7_11 O 0.9351(2) 0.96954(12) 0.11884(8)
O8_11 O 0.9938(2) 0.99701(13) 0.07434(9)
H11_19 H 0.497(3) 0.8728(15) 0.0958(18)
H12_19 H 0.393(3) 0.7742(13) 0.0516(13)
H13_19 H 0.368(2) 0.7956(17) 0.0783(14)
O12_11 O 0.4351(2) 0.78046(12) 0.13116(8)
O13_11 O 0.7562(2) 0.75299(13) 0.07434(9)
C16_19 C 0.8237(3) 0.99319(17) 0.97166(12)
H1_20 H 0.705(4) 0.5272(13) 0.1213(17)
C1_20 C 0.6455(4) 0.41071(19) 0.08473(12)
C2_20 C 0.7406(4) 0.3282(2) 0.08661(15)
C3_20 C 0.6223(3) 0.36908(16) 0.08006(12)
C4_20 C 0.6641(3) 0.33385(16) 0.08073(12)
C5_20 C 0.6180(3) 0.30381(17) 0.07458(13)
C6_20 C 0.5541(3) 0.35936(17) 0.07335(13)
C7_20 C 0.4880(4) 0.3828(2) 0.06898(19)
H2_20 H 0.4983 0.4098 0.0726
H3_20 H 0.4698 0.3792 0.0459
H4_20 H 0.4536 0.3745 0.0857
C8_20 C 0.6286(4) 0.2608(2) 0.0734(2)
H5_18 H 0.5848 0.2483 0.0680
H6_20 H 0.6628 0.2545 0.0559
H7_20 H 0.6451 0.2519 0.0957
C9_20 C 0.4915(3) 0.29821(16) 0.05688(12)
C10_20 C 0.4898(3) 0.28591(17) 0.02279(12)
H8_20 H 0.5291 0.2892 0.0087
C11_20 C 0.4296(3) 0.26870(17) 0.00945(11)
C12_20 C 0.3693(3) 0.26429(16) 0.03003(11)
H9_20 H 0.3281 0.2542 0.0206
C13_20 C 0.3722(3) 0.27540(16) 0.06516(11)
C14_20 C 0.4325(3) 0.29269(17) 0.07844(12)
H10_20 H 0.4339 0.3006 0.1016
C15_20 C 0.3084(3) 0.26925(16) 0.08818(11)
N1_20 N 0.5520(3) 0.31920(13) 0.06952(10)
O2_20 O 0.8465(3) 0.45691(18) 0.06473(10)
O3_20 O 0.5990(3) 0.43622(14) 0.08500(12)
O4_20 O 0.7118(3) 0.41779(13) 0.08662(11)
O5_20 O 0.7809(3) 0.35771(16) 0.09132(15)
O6_20 O 0.7664(3) 0.29533(16) 0.08725(12)
O7_12 O 0.3149(2) 0.28046(12) 0.11884(8)
O8_12 O 0.2562(2) 0.25299(13) 0.07434(9)
H11_20 H 0.753(3) 0.3772(15) 0.0958(18)
H12_20 H 0.857(3) 0.4758(13) 0.0516(13)
H13_20 H 0.882(2) 0.4544(17) 0.0783(14)
O12_12 O 0.8149(2) 0.46954(12) 0.13116(8)
O13_12 O 0.4938(2) 0.49701(13) 0.07434(9)
C16_20 C 0.4263(3) 0.25681(17) 0.97166(12)
H1_21 H 0.705(4) 0.2228(13) 0.6287(17)
C1_21 C 0.6455(4) 0.33929(19) 0.66527(12)
C2_21 C 0.7406(4) 0.4218(2) 0.66339(15)
C3_21 C 0.6223(3) 0.38092(16) 0.66994(12)
C4_21 C 0.6641(3) 0.41615(16) 0.66927(12)
C5_21 C 0.6180(3) 0.44619(17) 0.67542(13)
C6_21 C 0.5541(3) 0.39064(17) 0.67665(13)
C7_21 C 0.4880(4) 0.3672(2) 0.68102(19)
H2_21 H 0.4983 0.3402 0.6774
H3_21 H 0.4698 0.3708 0.7041
H4_21 H 0.4536 0.3755 0.6643
C8_21 C 0.6286(4) 0.4892(2) 0.6766(2)
H5_19 H 0.5848 0.5017 0.6820
H6_21 H 0.6628 0.4955 0.6941
H7_21 H 0.6451 0.4981 0.6543
C9_21 C 0.4915(3) 0.45179(16) 0.69312(12)
C10_21 C 0.4898(3) 0.46409(17) 0.72721(12)
H8_21 H 0.5291 0.4608 0.7413
C11_21 C 0.4296(3) 0.48130(17) 0.74055(11)
C12_21 C 0.3693(3) 0.48571(16) 0.71997(11)
H9_21 H 0.3281 0.4958 0.7294
C13_21 C 0.3722(3) 0.47460(16) 0.68484(11)
C14_21 C 0.4325(3) 0.45731(17) 0.67156(12)
H10_21 H 0.4339 0.4494 0.6484
C15_21 C 0.3084(3) 0.48075(16) 0.66182(11)
C16_21 C 0.4263(3) 0.49319(17) 0.77834(12)
N1_21 N 0.5520(3) 0.43080(13) 0.68048(10)
O1_11 O 0.6861(2) 0.24356(11) 0.63992(8)
O2_21 O 0.8465(3) 0.29309(18) 0.68527(10)
O3_21 O 0.5990(3) 0.31378(14) 0.66500(12)
O4_21 O 0.7118(3) 0.33221(13) 0.66338(11)
O5_21 O 0.7809(3) 0.39229(16) 0.65868(15)
O6_21 O 0.7664(3) 0.45467(16) 0.66275(12)
O7_13 O 0.3149(2) 0.46954(12) 0.63116(8)
O8_13 O 0.2562(2) 0.49701(13) 0.67566(9)
H11_21 H 0.753(3) 0.3728(15) 0.6542(18)
H12_21 H 0.857(3) 0.2742(13) 0.6984(13)
H13_21 H 0.882(2) 0.2956(17) 0.6717(14)
O11_11 O 0.5639(2) 0.24356(11) 0.61008(8)
O12_13 O 0.8149(2) 0.28046(12) 0.61884(8)
O13_13 O 0.4938(2) 0.25299(13) 0.67566(9)
H1_22 H 0.545(4) 0.0272(13) 0.6287(17)
O1_12 O 0.5639(2) 0.00644(11) 0.63992(8)
O11_12 O 0.6861(2) 0.00644(11) 0.61008(8)
C1_22 C 0.6045(4) 0.91071(19) 0.66527(12)
C2_22 C 0.5094(4) 0.8282(2) 0.66339(15)
C3_22 C 0.6277(3) 0.86908(16) 0.66994(12)
C4_22 C 0.5859(3) 0.83385(16) 0.66927(12)
C5_22 C 0.6320(3) 0.80381(17) 0.67542(13)
C6_22 C 0.6959(3) 0.85936(17) 0.67665(13)
C7_22 C 0.7620(4) 0.8828(2) 0.68102(19)
H2_22 H 0.7517 0.9098 0.6774
H3_22 H 0.7802 0.8792 0.7041
H4_22 H 0.7964 0.8745 0.6643
C8_22 C 0.6214(4) 0.7608(2) 0.6766(2)
H5_20 H 0.6652 0.7483 0.6820
H6_22 H 0.5872 0.7545 0.6941
H7_22 H 0.6049 0.7519 0.6543
C9_22 C 0.7585(3) 0.79821(16) 0.69312(12)
C10_22 C 0.7602(3) 0.78591(17) 0.72721(12)
H8_22 H 0.7209 0.7892 0.7413
C11_22 C 0.8204(3) 0.76870(17) 0.74055(11)
C12_22 C 0.8807(3) 0.76429(16) 0.71997(11)
H9_22 H 0.9219 0.7542 0.7294
C13_22 C 0.8778(3) 0.77540(16) 0.68484(11)
C14_22 C 0.8175(3) 0.79269(17) 0.67156(12)
H10_22 H 0.8161 0.8006 0.6484
C15_22 C 0.9416(3) 0.76925(16) 0.66182(11)
C16_22 C 0.8237(3) 0.75681(17) 0.77834(12)
N1_22 N 0.6980(3) 0.81920(13) 0.68048(10)
O2_22 O 0.4035(3) 0.95691(18) 0.68527(10)
O3_22 O 0.6510(3) 0.93622(14) 0.66500(12)
O4_22 O 0.5382(3) 0.91779(13) 0.66338(11)
O5_22 O 0.4691(3) 0.85771(16) 0.65868(15)
O6_22 O 0.4836(3) 0.79533(16) 0.66275(12)
O7_14 O 0.9351(2) 0.78046(12) 0.63116(8)
O8_14 O 0.9938(2) 0.75299(13) 0.67566(9)
H11_22 H 0.497(3) 0.8772(15) 0.6542(18)
H12_22 H 0.393(3) 0.9758(13) 0.6984(13)
H13_22 H 0.368(2) 0.9544(17) 0.6717(14)
O12_14 O 0.4351(2) 0.96954(12) 0.61884(8)
O13_14 O 0.7562(2) 0.99701(13) 0.67566(9)
H1_23 H 0.545(4) 0.2228(13) 0.6213(17)
C1_23 C 0.6045(4) 0.33929(19) 0.58473(12)
C2_23 C 0.5094(4) 0.4218(2) 0.58661(15)
C3_23 C 0.6277(3) 0.38092(16) 0.58006(12)
C4_23 C 0.5859(3) 0.41615(16) 0.58073(12)
C5_23 C 0.6320(3) 0.44619(17) 0.57458(13)
C6_23 C 0.6959(3) 0.39064(17) 0.57335(13)
C7_23 C 0.7620(4) 0.3672(2) 0.56898(19)
H2_23 H 0.7517 0.3402 0.5726
H3_23 H 0.7802 0.3708 0.5459
H4_23 H 0.7964 0.3755 0.5857
C8_23 C 0.6214(4) 0.4892(2) 0.5734(2)
H5_21 H 0.6652 0.5017 0.5680
H6_23 H 0.5872 0.4955 0.5559
H7_23 H 0.6049 0.4981 0.5957
C9_23 C 0.7585(3) 0.45179(16) 0.55688(12)
C10_23 C 0.7602(3) 0.46409(17) 0.52279(12)
H8_23 H 0.7209 0.4608 0.5087
C11_23 C 0.8204(3) 0.48130(17) 0.50945(11)
C12_23 C 0.8807(3) 0.48571(16) 0.53003(11)
H9_23 H 0.9219 0.4958 0.5206
C13_23 C 0.8778(3) 0.47460(16) 0.56516(11)
C14_23 C 0.8175(3) 0.45731(17) 0.57844(12)
H10_23 H 0.8161 0.4494 0.6016
C15_23 C 0.9416(3) 0.48075(16) 0.58818(11)
C16_23 C 0.8237(3) 0.49319(17) 0.47166(12)
N1_23 N 0.6980(3) 0.43080(13) 0.56952(10)
O2_23 O 0.4035(3) 0.29309(18) 0.56473(10)
O3_23 O 0.6510(3) 0.31378(14) 0.58500(12)
O4_23 O 0.5382(3) 0.33221(13) 0.58662(11)
O5_23 O 0.4691(3) 0.39229(16) 0.59132(15)
O6_23 O 0.4836(3) 0.45467(16) 0.58725(12)
O7_15 O 0.9351(2) 0.46954(12) 0.61884(8)
O8_15 O 0.9938(2) 0.49701(13) 0.57434(9)
H11_23 H 0.497(3) 0.3728(15) 0.5958(18)
H12_23 H 0.393(3) 0.2742(13) 0.5516(13)
H13_23 H 0.368(2) 0.2956(17) 0.5783(14)
O12_15 O 0.4351(2) 0.28046(12) 0.63116(8)
O13_15 O 0.7562(2) 0.25299(13) 0.57434(9)
H1_24 H 0.705(4) 0.0272(13) 0.6213(17)
C1_24 C 0.6455(4) 0.91071(19) 0.58473(12)
C2_24 C 0.7406(4) 0.8282(2) 0.58661(15)
C3_24 C 0.6223(3) 0.86908(16) 0.58006(12)
C4_24 C 0.6641(3) 0.83385(16) 0.58073(12)
C5_24 C 0.6180(3) 0.80381(17) 0.57458(13)
C6_24 C 0.5541(3) 0.85936(17) 0.57335(13)
C7_24 C 0.4880(4) 0.8828(2) 0.56898(19)
H2_24 H 0.4983 0.9098 0.5726
H3_24 H 0.4698 0.8792 0.5459
H4_24 H 0.4536 0.8745 0.5857
C8_24 C 0.6286(4) 0.7608(2) 0.5734(2)
H5_22 H 0.5848 0.7483 0.5680
H6_24 H 0.6628 0.7545 0.5559
H7_24 H 0.6451 0.7519 0.5957
C9_24 C 0.4915(3) 0.79821(16) 0.55688(12)
C10_24 C 0.4898(3) 0.78591(17) 0.52279(12)
H8_24 H 0.5291 0.7892 0.5087
C11_24 C 0.4296(3) 0.76870(17) 0.50945(11)
C12_24 C 0.3693(3) 0.76429(16) 0.53003(11)
H9_24 H 0.3281 0.7542 0.5206
C13_24 C 0.3722(3) 0.77540(16) 0.56516(11)
C14_24 C 0.4325(3) 0.79269(17) 0.57844(12)
H10_24 H 0.4339 0.8006 0.6016
C15_24 C 0.3084(3) 0.76925(16) 0.58818(11)
C16_24 C 0.4263(3) 0.75681(17) 0.47166(12)
N1_24 N 0.5520(3) 0.81920(13) 0.56952(10)
O2_24 O 0.8465(3) 0.95691(18) 0.56473(10)
O3_24 O 0.5990(3) 0.93622(14) 0.58500(12)
O4_24 O 0.7118(3) 0.91779(13) 0.58662(11)
O5_24 O 0.7809(3) 0.85771(16) 0.59132(15)
O6_24 O 0.7664(3) 0.79533(16) 0.58725(12)
O7_16 O 0.3149(2) 0.78046(12) 0.61884(8)
O8_16 O 0.2562(2) 0.75299(13) 0.57434(9)
H11_24 H 0.753(3) 0.8772(15) 0.5958(18)
H12_24 H 0.857(3) 0.9758(13) 0.5516(13)
H13_24 H 0.882(2) 0.9544(17) 0.5783(14)
O12_16 O 0.8149(2) 0.96954(12) 0.63116(8)
O13_16 O 0.4938(2) 0.99701(13) 0.57434(9)
H5_23 H 0.0848 0.0017 0.6820
H1_25 H 0.205(4) 0.7228(13) 0.6287(17)
C1_25 C 0.1455(4) 0.83929(19) 0.66527(12)
C2_25 C 0.2406(4) 0.9218(2) 0.66339(15)
C3_25 C 0.1223(3) 0.88092(16) 0.66994(12)
C4_25 C 0.1641(3) 0.91615(16) 0.66927(12)
C5_25 C 0.1180(3) 0.94619(17) 0.67542(13)
C6_25 C 0.0541(3) 0.89064(17) 0.67665(13)
C8_25 C 0.1286(4) 0.9892(2) 0.6766(2)
H6_25 H 0.1628 0.9955 0.6941
H7_25 H 0.1451 0.9981 0.6543
H8_25 H 0.0291 0.9608 0.7413
N1_25 N 0.0520(3) 0.93080(13) 0.68048(10)
O1_13 O 0.1861(2) 0.74356(11) 0.63992(8)
O2_25 O 0.3465(3) 0.79309(18) 0.68527(10)
O3_25 O 0.0990(3) 0.81378(14) 0.66500(12)
O4_25 O 0.2118(3) 0.83221(13) 0.66338(11)
O5_25 O 0.2809(3) 0.89229(16) 0.65868(15)
O6_25 O 0.2664(3) 0.95467(16) 0.66275(12)
H11_25 H 0.253(3) 0.8728(15) 0.6542(18)
H12_25 H 0.357(3) 0.7742(13) 0.6984(13)
H13_25 H 0.382(2) 0.7956(17) 0.6717(14)
O11_13 O 0.0639(2) 0.74356(11) 0.61008(8)
C7_25 C 0.9880(4) 0.8672(2) 0.68102(19)
H2_25 H 0.9983 0.8402 0.6774
H3_25 H 0.9698 0.8708 0.7041
H4_25 H 0.9536 0.8755 0.6643
C9_25 C 0.9915(3) 0.95179(16) 0.69312(12)
C10_25 C 0.9898(3) 0.96409(17) 0.72721(12)
C11_25 C 0.9296(3) 0.98130(17) 0.74055(11)
C12_25 C 0.8693(3) 0.98571(16) 0.71997(11)
H9_25 H 0.8281 0.9958 0.7294
C13_25 C 0.8722(3) 0.97460(16) 0.68484(11)
C14_25 C 0.9325(3) 0.95731(17) 0.67156(12)
H10_25 H 0.9339 0.9494 0.6484
C15_25 C 0.8084(3) 0.98075(16) 0.66182(11)
C16_25 C 0.9263(3) 0.99319(17) 0.77834(12)
H1_26 H 0.045(4) 0.5272(13) 0.6287(17)
C1_26 C 0.1045(4) 0.41071(19) 0.66527(12)
C2_26 C 0.0094(4) 0.3282(2) 0.66339(15)
C3_26 C 0.1277(3) 0.36908(16) 0.66994(12)
C4_26 C 0.0859(3) 0.33385(16) 0.66927(12)
C5_26 C 0.1320(3) 0.30381(17) 0.67542(13)
C6_26 C 0.1959(3) 0.35936(17) 0.67665(13)
C7_26 C 0.2620(4) 0.3828(2) 0.68102(19)
H2_26 H 0.2517 0.4098 0.6774
H3_26 H 0.2802 0.3792 0.7041
H4_26 H 0.2964 0.3745 0.6643
C8_26 C 0.1214(4) 0.2608(2) 0.6766(2)
H5_24 H 0.1652 0.2483 0.6820
H6_26 H 0.0872 0.2545 0.6941
H7_26 H 0.1049 0.2519 0.6543
C9_26 C 0.2585(3) 0.29821(16) 0.69312(12)
C10_26 C 0.2602(3) 0.28591(17) 0.72721(12)
H8_26 H 0.2209 0.2892 0.7413
C11_26 C 0.3204(3) 0.26870(17) 0.74055(11)
C12_26 C 0.3807(3) 0.26429(16) 0.71997(11)
H9_26 H 0.4219 0.2542 0.7294
C13_26 C 0.3778(3) 0.27540(16) 0.68484(11)
C14_26 C 0.3175(3) 0.29269(17) 0.67156(12)
H10_26 H 0.3161 0.3006 0.6484
C15_26 C 0.4416(3) 0.26925(16) 0.66182(11)
C16_26 C 0.3237(3) 0.25681(17) 0.77834(12)
N1_26 N 0.1980(3) 0.31920(13) 0.68048(10)
O1_14 O 0.0639(2) 0.50644(11) 0.63992(8)
O3_26 O 0.1510(3) 0.43622(14) 0.66500(12)
O4_26 O 0.0382(3) 0.41779(13) 0.66338(11)
O11_14 O 0.1861(2) 0.50644(11) 0.61008(8)
O2_26 O 0.9035(3) 0.45691(18) 0.68527(10)
O5_26 O 0.9691(3) 0.35771(16) 0.65868(15)
O6_26 O 0.9836(3) 0.29533(16) 0.66275(12)
H11_26 H 0.997(3) 0.3772(15) 0.6542(18)
H12_26 H 0.893(3) 0.4758(13) 0.6984(13)
H13_26 H 0.868(2) 0.4544(17) 0.6717(14)
H5_25 H 0.1652 0.0017 0.5680
H1_27 H 0.045(4) 0.7228(13) 0.6213(17)
C1_27 C 0.1045(4) 0.83929(19) 0.58473(12)
C2_27 C 0.0094(4) 0.9218(2) 0.58661(15)
C3_27 C 0.1277(3) 0.88092(16) 0.58006(12)
C4_27 C 0.0859(3) 0.91615(16) 0.58073(12)
C5_27 C 0.1320(3) 0.94619(17) 0.57458(13)
C6_27 C 0.1959(3) 0.89064(17) 0.57335(13)
C7_27 C 0.2620(4) 0.8672(2) 0.56898(19)
H2_27 H 0.2517 0.8402 0.5726
H3_27 H 0.2802 0.8708 0.5459
H4_27 H 0.2964 0.8755 0.5857
C8_27 C 0.1214(4) 0.9892(2) 0.5734(2)
H6_27 H 0.0872 0.9955 0.5559
H7_27 H 0.1049 0.9981 0.5957
C9_27 C 0.2585(3) 0.95179(16) 0.55688(12)
C10_27 C 0.2602(3) 0.96409(17) 0.52279(12)
H8_27 H 0.2209 0.9608 0.5087
C11_27 C 0.3204(3) 0.98130(17) 0.50945(11)
C12_27 C 0.3807(3) 0.98571(16) 0.53003(11)
H9_27 H 0.4219 0.9958 0.5206
C13_27 C 0.3778(3) 0.97460(16) 0.56516(11)
C14_27 C 0.3175(3) 0.95731(17) 0.57844(12)
H10_27 H 0.3161 0.9494 0.6016
C15_27 C 0.4416(3) 0.98075(16) 0.58818(11)
C16_27 C 0.3237(3) 0.99319(17) 0.47166(12)
N1_27 N 0.1980(3) 0.93080(13) 0.56952(10)
O3_27 O 0.1510(3) 0.81378(14) 0.58500(12)
O4_27 O 0.0382(3) 0.83221(13) 0.58662(11)
O2_27 O 0.9035(3) 0.79309(18) 0.56473(10)
O5_27 O 0.9691(3) 0.89229(16) 0.59132(15)
O6_27 O 0.9836(3) 0.95467(16) 0.58725(12)
H11_27 H 0.997(3) 0.8728(15) 0.5958(18)
H12_27 H 0.893(3) 0.7742(13) 0.5516(13)
H13_27 H 0.868(2) 0.7956(17) 0.5783(14)
H1_28 H 0.205(4) 0.5272(13) 0.6213(17)
C1_28 C 0.1455(4) 0.41071(19) 0.58473(12)
C2_28 C 0.2406(4) 0.3282(2) 0.58661(15)
C3_28 C 0.1223(3) 0.36908(16) 0.58006(12)
C4_28 C 0.1641(3) 0.33385(16) 0.58073(12)
C5_28 C 0.1180(3) 0.30381(17) 0.57458(13)
C6_28 C 0.0541(3) 0.35936(17) 0.57335(13)
C8_28 C 0.1286(4) 0.2608(2) 0.5734(2)
H5_26 H 0.0848 0.2483 0.5680
H6_28 H 0.1628 0.2545 0.5559
H7_28 H 0.1451 0.2519 0.5957
H8_28 H 0.0291 0.2892 0.5087
N1_28 N 0.0520(3) 0.31920(13) 0.56952(10)
O2_28 O 0.3465(3) 0.45691(18) 0.56473(10)
O3_28 O 0.0990(3) 0.43622(14) 0.58500(12)
O4_28 O 0.2118(3) 0.41779(13) 0.58662(11)
O5_28 O 0.2809(3) 0.35771(16) 0.59132(15)
O6_28 O 0.2664(3) 0.29533(16) 0.58725(12)
H11_28 H 0.253(3) 0.3772(15) 0.5958(18)
H12_28 H 0.357(3) 0.4758(13) 0.5516(13)
H13_28 H 0.382(2) 0.4544(17) 0.5783(14)
C7_28 C 0.9880(4) 0.3828(2) 0.56898(19)
H2_28 H 0.9983 0.4098 0.5726
H3_28 H 0.9698 0.3792 0.5459
H4_28 H 0.9536 0.3745 0.5857
C9_28 C 0.9915(3) 0.29821(16) 0.55688(12)
C10_28 C 0.9898(3) 0.28591(17) 0.52279(12)
C11_28 C 0.9296(3) 0.26870(17) 0.50945(11)
C12_28 C 0.8693(3) 0.26429(16) 0.53003(11)
H9_28 H 0.8281 0.2542 0.5206
C13_28 C 0.8722(3) 0.27540(16) 0.56516(11)
C14_28 C 0.9325(3) 0.29269(17) 0.57844(12)
H10_28 H 0.9339 0.3006 0.6016
C15_28 C 0.8084(3) 0.26925(16) 0.58818(11)
C16_28 C 0.9263(3) 0.25681(17) 0.47166(12)
H1_29 H 0.205(4) 0.2228(13) 0.1287(17)
C1_29 C 0.1455(4) 0.33929(19) 0.16527(12)
C2_29 C 0.2406(4) 0.4218(2) 0.16339(15)
C3_29 C 0.1223(3) 0.38092(16) 0.16994(12)
C4_29 C 0.1641(3) 0.41615(16) 0.16927(12)
C5_29 C 0.1180(3) 0.44619(17) 0.17542(13)
C6_29 C 0.0541(3) 0.39064(17) 0.17665(13)
C8_29 C 0.1286(4) 0.4892(2) 0.1766(2)
H5_27 H 0.0848 0.5017 0.1820
H6_29 H 0.1628 0.4955 0.1941
H7_29 H 0.1451 0.4981 0.1543
H8_29 H 0.0291 0.4608 0.2413
N1_29 N 0.0520(3) 0.43080(13) 0.18048(10)
O1_15 O 0.1861(2) 0.24356(11) 0.13992(8)
O2_29 O 0.3465(3) 0.29309(18) 0.18527(10)
O3_29 O 0.0990(3) 0.31378(14) 0.16500(12)
O4_29 O 0.2118(3) 0.33221(13) 0.16338(11)
O5_29 O 0.2809(3) 0.39229(16) 0.15868(15)
O6_29 O 0.2664(3) 0.45467(16) 0.16275(12)
H11_29 H 0.253(3) 0.3728(15) 0.1542(18)
H12_29 H 0.357(3) 0.2742(13) 0.1984(13)
H13_29 H 0.382(2) 0.2956(17) 0.1717(14)
O11_15 O 0.0639(2) 0.24356(11) 0.11008(8)
C7_29 C 0.9880(4) 0.3672(2) 0.18102(19)
H2_29 H 0.9983 0.3402 0.1774
H3_29 H 0.9698 0.3708 0.2041
H4_29 H 0.9536 0.3755 0.1643
C9_29 C 0.9915(3) 0.45179(16) 0.19312(12)
C10_29 C 0.9898(3) 0.46409(17) 0.22721(12)
C11_29 C 0.9296(3) 0.48130(17) 0.24055(11)
C12_29 C 0.8693(3) 0.48571(16) 0.21997(11)
H9_29 H 0.8281 0.4958 0.2294
C13_29 C 0.8722(3) 0.47460(16) 0.18484(11)
C14_29 C 0.9325(3) 0.45731(17) 0.17156(12)
H10_29 H 0.9339 0.4494 0.1484
C15_29 C 0.8084(3) 0.48075(16) 0.16182(11)
C16_29 C 0.9263(3) 0.49319(17) 0.27834(12)
H1_30 H 0.045(4) 0.0272(13) 0.1287(17)
O1_16 O 0.0639(2) 0.00644(11) 0.13992(8)
O11_16 O 0.1861(2) 0.00644(11) 0.11008(8)
C1_30 C 0.1045(4) 0.91071(19) 0.16527(12)
C2_30 C 0.0094(4) 0.8282(2) 0.16339(15)
C3_30 C 0.1277(3) 0.86908(16) 0.16994(12)
C4_30 C 0.0859(3) 0.83385(16) 0.16927(12)
C5_30 C 0.1320(3) 0.80381(17) 0.17542(13)
C6_30 C 0.1959(3) 0.85936(17) 0.17665(13)
C7_30 C 0.2620(4) 0.8828(2) 0.18102(19)
H2_30 H 0.2517 0.9098 0.1774
H3_30 H 0.2802 0.8792 0.2041
H4_30 H 0.2964 0.8745 0.1643
C8_30 C 0.1214(4) 0.7608(2) 0.1766(2)
H5_28 H 0.1652 0.7483 0.1820
H6_30 H 0.0872 0.7545 0.1941
H7_30 H 0.1049 0.7519 0.1543
C9_30 C 0.2585(3) 0.79821(16) 0.19312(12)
C10_30 C 0.2602(3) 0.78591(17) 0.22721(12)
H8_30 H 0.2209 0.7892 0.2413
C11_30 C 0.3204(3) 0.76870(17) 0.24055(11)
C12_30 C 0.3807(3) 0.76429(16) 0.21997(11)
H9_30 H 0.4219 0.7542 0.2294
C13_30 C 0.3778(3) 0.77540(16) 0.18484(11)
C14_30 C 0.3175(3) 0.79269(17) 0.17156(12)
H10_30 H 0.3161 0.8006 0.1484
C15_30 C 0.4416(3) 0.76925(16) 0.16182(11)
C16_30 C 0.3237(3) 0.75681(17) 0.27834(12)
N1_30 N 0.1980(3) 0.81920(13) 0.18048(10)
O3_30 O 0.1510(3) 0.93622(14) 0.16500(12)
O4_30 O 0.0382(3) 0.91779(13) 0.16338(11)
O2_30 O 0.9035(3) 0.95691(18) 0.18527(10)
O5_30 O 0.9691(3) 0.85771(16) 0.15868(15)
O6_30 O 0.9836(3) 0.79533(16) 0.16275(12)
H11_30 H 0.997(3) 0.8772(15) 0.1542(18)
H12_30 H 0.893(3) 0.9758(13) 0.1984(13)
H13_30 H 0.868(2) 0.9544(17) 0.1717(14)
H1_31 H 0.045(4) 0.2228(13) 0.1213(17)
C1_31 C 0.1045(4) 0.33929(19) 0.08473(12)
C2_31 C 0.0094(4) 0.4218(2) 0.08661(15)
C3_31 C 0.1277(3) 0.38092(16) 0.08006(12)
C4_31 C 0.0859(3) 0.41615(16) 0.08073(12)
C5_31 C 0.1320(3) 0.44619(17) 0.07458(13)
C6_31 C 0.1959(3) 0.39064(17) 0.07335(13)
C7_31 C 0.2620(4) 0.3672(2) 0.06898(19)
H2_31 H 0.2517 0.3402 0.0726
H3_31 H 0.2802 0.3708 0.0459
H4_31 H 0.2964 0.3755 0.0857
C8_31 C 0.1214(4) 0.4892(2) 0.0734(2)
H5_29 H 0.1652 0.5017 0.0680
H6_31 H 0.0872 0.4955 0.0559
H7_31 H 0.1049 0.4981 0.0957
C9_31 C 0.2585(3) 0.45179(16) 0.05688(12)
C10_31 C 0.2602(3) 0.46409(17) 0.02279(12)
H8_31 H 0.2209 0.4608 0.0087
C11_31 C 0.3204(3) 0.48130(17) 0.00945(11)
C12_31 C 0.3807(3) 0.48571(16) 0.03003(11)
H9_31 H 0.4219 0.4958 0.0206
C13_31 C 0.3778(3) 0.47460(16) 0.06516(11)
C14_31 C 0.3175(3) 0.45731(17) 0.07844(12)
H10_31 H 0.3161 0.4494 0.1016
C15_31 C 0.4416(3) 0.48075(16) 0.08818(11)
N1_31 N 0.1980(3) 0.43080(13) 0.06952(10)
O3_31 O 0.1510(3) 0.31378(14) 0.08500(12)
O4_31 O 0.0382(3) 0.33221(13) 0.08662(11)
C16_31 C 0.3237(3) 0.49319(17) 0.97166(12)
O2_31 O 0.9035(3) 0.29309(18) 0.06473(10)
O5_31 O 0.9691(3) 0.39229(16) 0.09132(15)
O6_31 O 0.9836(3) 0.45467(16) 0.08725(12)
H11_31 H 0.997(3) 0.3728(15) 0.0958(18)
H12_31 H 0.893(3) 0.2742(13) 0.0516(13)
H13_31 H 0.868(2) 0.2956(17) 0.0783(14)
H1_32 H 0.205(4) 0.0272(13) 0.1213(17)
C1_32 C 0.1455(4) 0.91071(19) 0.08473(12)
C2_32 C 0.2406(4) 0.8282(2) 0.08661(15)
C3_32 C 0.1223(3) 0.86908(16) 0.08006(12)
C4_32 C 0.1641(3) 0.83385(16) 0.08073(12)
C5_32 C 0.1180(3) 0.80381(17) 0.07458(13)
C6_32 C 0.0541(3) 0.85936(17) 0.07335(13)
C8_32 C 0.1286(4) 0.7608(2) 0.0734(2)
H5_30 H 0.0848 0.7483 0.0680
H6_32 H 0.1628 0.7545 0.0559
H7_32 H 0.1451 0.7519 0.0957
H8_32 H 0.0291 0.7892 0.0087
N1_32 N 0.0520(3) 0.81920(13) 0.06952(10)
O2_32 O 0.3465(3) 0.95691(18) 0.06473(10)
O3_32 O 0.0990(3) 0.93622(14) 0.08500(12)
O4_32 O 0.2118(3) 0.91779(13) 0.08662(11)
O5_32 O 0.2809(3) 0.85771(16) 0.09132(15)
O6_32 O 0.2664(3) 0.79533(16) 0.08725(12)
H11_32 H 0.253(3) 0.8772(15) 0.0958(18)
H12_32 H 0.357(3) 0.9758(13) 0.0516(13)
H13_32 H 0.382(2) 0.9544(17) 0.0783(14)
C7_32 C 0.9880(4) 0.8828(2) 0.06898(19)
H2_32 H 0.9983 0.9098 0.0726
H3_32 H 0.9698 0.8792 0.0459
H4_32 H 0.9536 0.8745 0.0857
C9_32 C 0.9915(3) 0.79821(16) 0.05688(12)
C10_32 C 0.9898(3) 0.78591(17) 0.02279(12)
C11_32 C 0.9296(3) 0.76870(17) 0.00945(11)
C12_32 C 0.8693(3) 0.76429(16) 0.03003(11)
H9_32 H 0.8281 0.7542 0.0206
C13_32 C 0.8722(3) 0.77540(16) 0.06516(11)
C14_32 C 0.9325(3) 0.79269(17) 0.07844(12)
H10_32 H 0.9339 0.8006 0.1016
C15_32 C 0.8084(3) 0.76925(16) 0.08818(11)
C16_32 C 0.9263(3) 0.75681(17) 0.97166(12)
H5_31 H 0.3348 0.9983 0.9320
H5_32 H 0.6652 0.0017 0.0680
loop_
_geom_bond_atom_site_label_1
_geom_bond_atom_site_label_2
_geom_bond_site_symmetry_1
_geom_bond_site_symmetry_2
H1 O1 1_555 1_555
C1 C3 1_555 1_555
C2 C4 1_555 1_555
C3 C4 1_555 1_555
C4 C5 1_555 1_555
C5 C8 1_555 1_555
C6 C3 1_555 1_555
C7 C6 1_555 1_555
H2 C7 1_555 1_555
H3 C7 1_555 1_555
H4 C7 1_555 1_555
H6 C8 1_555 1_555
H7 C8 1_555 1_555
C9 C10 1_555 1_555
C10 H8 1_555 1_555
C11 C10 1_555 1_555
C12 C11 1_555 1_555
H9 C12 1_555 1_555
C13 C12 1_555 1_555
C14 C9 1_555 1_555
H10 C14 1_555 1_555
C15 C13 1_555 1_555
C16 C11 1_555 1_555
Cu1 O1 1_555 1_555
Cu2 O1 1_555 1_555
N1 C5 1_555 1_555
O1 Cu3 1_555 1_555
O2 Cu2 1_555 1_555
O3 C1 1_555 1_555
O4 C1 1_555 1_555
O5 C2 1_555 1_555
O6 C2 1_555 1_555
O7 C15 1_555 1_555
O8 C15 1_555 1_555
O9 C16 1_555 1_555
H11 O5 1_555 1_555
H12 O2 1_555 1_555
H13 O2 1_555 1_555
Cu3 O11 1_555 1_555
Cu4 O8 1_555 1_555
Cu6 O7 1_555 1_555
O11 Cu1 1_555 1_555
O12 Cu2 1_555 1_555
O13 Cu1 1_555 1_555
O14 Cu1 1_555 1_555
O15 Cu2 1_555 1_555
C6 N1 1_555 1_555
C9 N1 1_555 1_555
C13 C14 1_555 1_555
Cu1 O3 1_555 1_555
Cu2 O4 1_555 1_555
Cu7 O10 1_555 1_555
H1_2 O1_2 1_555 1_555
C1_2 C3_2 1_555 1_555
C2_2 C4_2 1_555 1_555
C3_2 C4_2 1_555 1_555
C4_2 C5_2 1_555 1_555
C5_2 C8_2 1_555 1_555
C6_2 C3_2 1_555 1_555
C7_2 C6_2 1_555 1_555
H2_2 C7_2 1_555 1_555
H3_2 C7_2 1_555 1_555
H4_2 C7_2 1_555 1_555
C8_2 H5_2 1_555 1_555
H6_2 C8_2 1_555 1_555
H7_2 C8_2 1_555 1_555
C9_2 C10_2 1_555 1_555
C10_2 H8_2 1_555 1_555
C11_2 C10_2 1_555 1_555
C12_2 C11_2 1_555 1_555
H9_2 C12_2 1_555 1_555
C13_2 C12_2 1_555 1_555
C14_2 C9_2 1_555 1_555
H10_2 C14_2 1_555 1_555
C15_2 C13_2 1_555 1_555
C16_2 C11_2 1_555 1_555
Cu1_2 O1_2 1_555 1_555
Cu2_2 O1_2 1_555 1_555
N1_2 C5_2 1_555 1_555
O1_2 Cu3_2 1_555 1_555
O2_2 Cu2_2 1_555 1_555
O3_2 C1_2 1_555 1_555
O4_2 C1_2 1_555 1_555
O5_2 C2_2 1_555 1_555
O6_2 C2_2 1_555 1_555
O7_2 C15_2 1_555 1_555
O8_2 C15_2 1_555 1_555
O9_2 C16_2 1_555 1_555
O10_2 C16_2 1_555 1_555
H11_2 O5_2 1_555 1_555
H12_2 O2_2 1_555 1_555
H13_2 O2_2 1_555 1_555
Cu3_2 O11_2 1_555 1_555
Cu5_2 O9_2 1_555 1_555
Cu6_2 O7_2 1_555 1_555
Cu7_2 O10_2 1_555 1_555
O11_2 Cu1_2 1_555 1_555
O12_2 Cu2_2 1_555 1_555
O13_2 Cu1_2 1_555 1_555
O14_2 Cu1_2 1_555 1_555
O15_2 Cu2_2 1_555 1_555
C6_2 N1_2 1_555 1_555
C9_2 N1_2 1_555 1_555
C13_2 C14_2 1_555 1_555
Cu1_2 O3_2 1_555 1_555
Cu2_2 O4_2 1_555 1_555
O9_3 C16_3 1_555 1_555
H1_3 O11 1_555 1_555
C1_3 C3_3 1_555 1_555
C2_3 C4_3 1_555 1_555
C3_3 C4_3 1_555 1_555
C4_3 C5_3 1_555 1_555
C5_3 C8_3 1_555 1_555
C6_3 C3_3 1_555 1_555
C7_3 C6_3 1_555 1_555
H2_3 C7_3 1_555 1_555
H3_3 C7_3 1_555 1_555
H4_3 C7_3 1_555 1_555
H6_3 C8_3 1_555 1_555
H7_3 C8_3 1_555 1_555
C9_3 C10_3 1_555 1_555
C10_3 H8_3 1_555 1_555
C11_3 C10_3 1_555 1_555
C12_3 C11_3 1_555 1_555
H9_3 C12_3 1_555 1_555
C13_3 C12_3 1_555 1_555
C14_3 C9_3 1_555 1_555
H10_3 C14_3 1_555 1_555
C15_3 C13_3 1_555 1_555
Cu2_3 O11 1_555 1_555
N1_3 C5_3 1_555 1_555
O2_3 Cu2_3 1_555 1_555
O3_3 C1_3 1_555 1_555
O4_3 C1_3 1_555 1_555
O5_3 C2_3 1_555 1_555
O6_3 C2_3 1_555 1_555
O7_3 C15_3 1_555 1_555
O8_3 C15_3 1_555 1_555
H11_3 O5_3 1_555 1_555
H12_3 O2_3 1_555 1_555
H13_3 O2_3 1_555 1_555
Cu6_3 O7_3 1_555 1_555
O12_3 Cu2_3 1_555 1_555
O13_3 Cu3 1_555 1_555
O14_3 Cu3 1_555 1_555
O15_3 Cu2_3 1_555 1_555
C6_3 N1_3 1_555 1_555
C9_3 N1_3 1_555 1_555
C13_3 C14_3 1_555 1_555
Cu3 O3_3 1_555 1_555
Cu2_3 O4_3 1_555 1_555
Cu7_3 O10_3 1_555 1_555
O9_4 C16_4 1_555 1_555
O10_4 C16_4 1_555 1_555
Cu5_4 O9_4 1_555 1_555
Cu7_4 O10_4 1_555 1_555
H1_4 O11_2 1_555 1_555
C1_4 C3_4 1_555 1_555
C2_4 C4_4 1_555 1_555
C3_4 C4_4 1_555 1_555
C4_4 C5_4 1_555 1_555
C5_4 C8_4 1_555 1_555
C6_4 C3_4 1_555 1_555
C7_4 C6_4 1_555 1_555
H2_4 C7_4 1_555 1_555
H3_4 C7_4 1_555 1_555
H4_4 C7_4 1_555 1_555
C8_4 H5_3 1_555 1_555
H6_4 C8_4 1_555 1_555
H7_4 C8_4 1_555 1_555
C9_4 C10_4 1_555 1_555
C10_4 H8_4 1_555 1_555
C11_4 C10_4 1_555 1_555
C12_4 C11_4 1_555 1_555
H9_4 C12_4 1_555 1_555
C13_4 C12_4 1_555 1_555
C14_4 C9_4 1_555 1_555
H10_4 C14_4 1_555 1_555
C15_4 C13_4 1_555 1_555
Cu2_4 O11_2 1_555 1_555
N1_4 C5_4 1_555 1_555
O2_4 Cu2_4 1_555 1_555
O3_4 C1_4 1_555 1_555
O4_4 C1_4 1_555 1_555
O5_4 C2_4 1_555 1_555
O6_4 C2_4 1_555 1_555
O7_4 C15_4 1_555 1_555
O8_4 C15_4 1_555 1_555
H11_4 O5_4 1_555 1_555
H12_4 O2_4 1_555 1_555
H13_4 O2_4 1_555 1_555
Cu4_4 O8_4 1_555 1_555
Cu6_4 O7_4 1_555 1_555
O12_4 Cu2_4 1_555 1_555
O13_4 Cu3_2 1_555 1_555
O14_4 Cu3_2 1_555 1_555
O15_4 Cu2_4 1_555 1_555
C6_4 N1_4 1_555 1_555
C9_4 N1_4 1_555 1_555
C13_4 C14_4 1_555 1_555
Cu3_2 O3_4 1_555 1_555
Cu2_4 O4_4 1_555 1_555
H1_5 O1_3 1_555 1_555
C1_5 C3_5 1_555 1_555
C2_5 C4_5 1_555 1_555
C3_5 C4_5 1_555 1_555
C4_5 C5_5 1_555 1_555
C5_5 C8_5 1_555 1_555
C6_5 C3_5 1_555 1_555
C7_5 C6_5 1_555 1_555
H2_5 C7_5 1_555 1_555
H3_5 C7_5 1_555 1_555
H4_5 C7_5 1_555 1_555
C8_5 H5_4 1_555 1_555
H6_5 C8_5 1_555 1_555
H7_5 C8_5 1_555 1_555
C9_5 C10_5 1_555 1_555
C10_5 H8_5 1_555 1_555
C11_5 C10_5 1_555 1_555
C12_5 C11_5 1_555 1_555
H9_5 C12_5 1_555 1_555
C13_5 C12_5 1_555 1_555
C14_5 C9_5 1_555 1_555
H10_5 C14_5 1_555 1_555
C15_5 C13_5 1_555 1_555
C16_5 C11_5 1_555 1_555
Cu1_3 O1_3 1_555 1_555
Cu2_5 O1_3 1_555 1_555
N1_5 C5_5 1_555 1_555
O1_3 Cu3_3 1_555 1_555
O2_5 Cu2_5 1_555 1_555
O3_5 C1_5 1_555 1_555
O4_5 C1_5 1_555 1_555
O5_5 C2_5 1_555 1_555
O6_5 C2_5 1_555 1_555
O7_5 C15_5 1_555 1_555
O8_5 C15_5 1_555 1_555
O9_5 C16_5 1_555 1_555
O10_5 C16_5 1_555 1_555
H11_5 O5_5 1_555 1_555
H12_5 O2_5 1_555 1_555
H13_5 O2_5 1_555 1_555
Cu3_3 O11_3 1_555 1_555
Cu4_5 O8_5 1_555 1_555
Cu5_5 O9_5 1_555 1_555
Cu6_5 O7_5 1_555 1_555
Cu7_5 O10_5 1_555 1_555
O11_3 Cu1_3 1_555 1_555
O12_5 Cu2_5 1_555 1_555
O13_5 Cu1_3 1_555 1_555
O14_5 Cu1_3 1_555 1_555
O15_5 Cu2_5 1_555 1_555
C6_5 N1_5 1_555 1_555
C9_5 N1_5 1_555 1_555
C13_5 C14_5 1_555 1_555
Cu1_3 O3_5 1_555 1_555
Cu2_5 O4_5 1_555 1_555
C1_6 C3_6 1_555 1_555
C2_6 C4_6 1_555 1_555
C3_6 C4_6 1_555 1_555
C4_6 C5_6 1_555 1_555
C5_6 C8_6 1_555 1_555
C6_6 C3_6 1_555 1_555
C7_6 C6_6 1_555 1_555
H2_6 C7_6 1_555 1_555
H3_6 C7_6 1_555 1_555
H4_6 C7_6 1_555 1_555
C8_6 H5_5 1_555 1_555
H6_6 C8_6 1_555 1_555
H7_6 C8_6 1_555 1_555
C9_6 C10_6 1_555 1_555
C10_6 H8_6 1_555 1_555
C11_6 C10_6 1_555 1_555
C12_6 C11_6 1_555 1_555
H9_6 C12_6 1_555 1_555
C13_6 C12_6 1_555 1_555
C14_6 C9_6 1_555 1_555
H10_6 C14_6 1_555 1_555
C15_6 C13_6 1_555 1_555
C16_6 C11_6 1_555 1_555
N1_6 C5_6 1_555 1_555
O2_6 Cu2_6 1_555 1_555
O3_6 C1_6 1_555 1_555
O4_6 C1_6 1_555 1_555
O5_6 C2_6 1_555 1_555
O6_6 C2_6 1_555 1_555
O7_6 C15_6 1_555 1_555
O8_6 C15_6 1_555 1_555
O9_6 C16_6 1_555 1_555
O10_6 C16_6 1_555 1_555
H11_6 O5_6 1_555 1_555
H12_6 O2_6 1_555 1_555
H13_6 O2_6 1_555 1_555
Cu5_6 O9_6 1_555 1_555
Cu6_6 O7_6 1_555 1_555
Cu7_6 O10_6 1_555 1_555
O12_6 Cu2_6 1_555 1_555
O13_6 Cu1_4 1_555 1_555
O15_6 Cu2_6 1_555 1_555
C6_6 N1_6 1_555 1_555
C9_6 N1_6 1_555 1_555
C13_6 C14_6 1_555 1_555
Cu1_4 O3_6 1_555 1_555
Cu2_6 O4_6 1_555 1_555
H1_6 O1_4 1_555 1_555
H1_7 O11_3 1_555 1_555
C1_7 C3_7 1_555 1_555
C2_7 C4_7 1_555 1_555
C3_7 C4_7 1_555 1_555
C4_7 C5_7 1_555 1_555
C5_7 C8_7 1_555 1_555
C6_7 C3_7 1_555 1_555
C7_7 C6_7 1_555 1_555
H2_7 C7_7 1_555 1_555
H3_7 C7_7 1_555 1_555
H4_7 C7_7 1_555 1_555
C8_7 H5_6 1_555 1_555
H6_7 C8_7 1_555 1_555
H7_7 C8_7 1_555 1_555
C9_7 C10_7 1_555 1_555
C10_7 H8_7 1_555 1_555
C11_7 C10_7 1_555 1_555
C12_7 C11_7 1_555 1_555
H9_7 C12_7 1_555 1_555
C13_7 C12_7 1_555 1_555
C14_7 C9_7 1_555 1_555
H10_7 C14_7 1_555 1_555
C15_7 C13_7 1_555 1_555
C16_7 C11_7 1_555 1_555
Cu2_7 O11_3 1_555 1_555
N1_7 C5_7 1_555 1_555
O2_7 Cu2_7 1_555 1_555
O3_7 C1_7 1_555 1_555
O4_7 C1_7 1_555 1_555
O5_7 C2_7 1_555 1_555
O6_7 C2_7 1_555 1_555
O7_7 C15_7 1_555 1_555
O8_7 C15_7 1_555 1_555
O9_7 C16_7 1_555 1_555
O10_7 C16_7 1_555 1_555
H11_7 O5_7 1_555 1_555
H12_7 O2_7 1_555 1_555
H13_7 O2_7 1_555 1_555
Cu5_7 O9_7 1_555 1_555
Cu6_7 O7_7 1_555 1_555
Cu7_7 O10_7 1_555 1_555
O12_7 Cu2_7 1_555 1_555
O13_7 Cu3_3 1_555 1_555
O14_7 Cu3_3 1_555 1_555
O15_7 Cu2_7 1_555 1_555
C6_7 N1_7 1_555 1_555
C9_7 N1_7 1_555 1_555
C13_7 C14_7 1_555 1_555
Cu3_3 O3_7 1_555 1_555
Cu2_7 O4_7 1_555 1_555
C1_8 C3_8 1_555 1_555
C2_8 C4_8 1_555 1_555
C3_8 C4_8 1_555 1_555
C4_8 C5_8 1_555 1_555
C5_8 C8_8 1_555 1_555
C6_8 C3_8 1_555 1_555
C7_8 C6_8 1_555 1_555
H2_8 C7_8 1_555 1_555
H3_8 C7_8 1_555 1_555
H4_8 C7_8 1_555 1_555
C8_8 H5_7 1_555 1_555
H6_8 C8_8 1_555 1_555
H7_8 C8_8 1_555 1_555
C9_8 C10_8 1_555 1_555
C10_8 H8_8 1_555 1_555
C11_8 C10_8 1_555 1_555
C12_8 C11_8 1_555 1_555
H9_8 C12_8 1_555 1_555
C13_8 C12_8 1_555 1_555
C14_8 C9_8 1_555 1_555
H10_8 C14_8 1_555 1_555
C15_8 C13_8 1_555 1_555
C16_8 C11_8 1_555 1_555
N1_8 C5_8 1_555 1_555
O2_8 Cu2_8 1_555 1_555
O3_8 C1_8 1_555 1_555
O4_8 C1_8 1_555 1_555
O5_8 C2_8 1_555 1_555
O6_8 C2_8 1_555 1_555
O7_8 C15_8 1_555 1_555
O8_8 C15_8 1_555 1_555
O9_8 C16_8 1_555 1_555
O10_8 C16_8 1_555 1_555
H11_8 O5_8 1_555 1_555
H12_8 O2_8 1_555 1_555
H13_8 O2_8 1_555 1_555
Cu4_8 O8_8 1_555 1_555
Cu5_8 O9_8 1_555 1_555
Cu6_8 O7_8 1_555 1_555
Cu7_8 O10_8 1_555 1_555
O12_8 Cu2_8 1_555 1_555
O13_8 Cu3_4 1_555 1_555
O15_8 Cu2_8 1_555 1_555
C6_8 N1_8 1_555 1_555
C9_8 N1_8 1_555 1_555
C13_8 C14_8 1_555 1_555
Cu3_4 O3_8 1_555 1_555
Cu2_8 O4_8 1_555 1_555
H1_8 O11_4 1_555 1_555
H2_9 C7_9 1_555 1_555
H3_9 C7_9 1_555 1_555
H4_9 C7_9 1_555 1_555
C9_9 C10_9 1_555 1_555
C11_9 C10_9 1_555 1_555
C12_9 C11_9 1_555 1_555
H9_9 C12_9 1_555 1_555
C13_9 C12_9 1_555 1_555
C14_9 C9_9 1_555 1_555
H10_9 C14_9 1_555 1_555
C15_9 C13_9 1_555 1_555
C16_9 C11_9 1_555 1_555
O12_8 C15_9 1_555 1_555
O13_6 C15_9 1_555 1_555
O9_9 C16_9 1_555 1_555
C13_9 C14_9 1_555 1_555
H1_9 O1_5 1_555 1_555
C1_9 C3_9 1_555 1_555
C2_9 C4_9 1_555 1_555
C3_9 C4_9 1_555 1_555
C4_9 C5_9 1_555 1_555
C5_9 C8_9 1_555 1_555
C6_9 C3_9 1_555 1_555
H6_9 C8_9 1_555 1_555
H7_9 C8_9 1_555 1_555
Cu4_6 O1_5 1_555 1_555
Cu6_8 O1_5 1_555 1_555
N1_9 C5_9 1_555 1_555
O1_5 Cu4_8 1_555 1_555
O2_9 Cu6_8 1_555 1_555
O3_9 C1_9 1_555 1_555
O4_9 C1_9 1_555 1_555
O5_9 C2_9 1_555 1_555
O6_9 C2_9 1_555 1_555
H11_9 O5_9 1_555 1_555
H12_9 O2_9 1_555 1_555
H13_9 O2_9 1_555 1_555
Cu4_8 O11_5 1_555 1_555
O11_5 Cu4_6 1_555 1_555
O14_9 Cu4_6 1_555 1_555
O15_9 Cu6_8 1_555 1_555
C6_9 N1_9 1_555 1_555
Cu4_6 O3_9 1_555 1_555
Cu6_8 O4_9 1_555 1_555
O2_10 Cu6_7 1_555 1_555
H11_10 O5_10 1_555 1_555
H12_10 O2_10 1_555 1_555
H13_10 O2_10 1_555 1_555
H1_10 O1_6 1_555 1_555
C1_10 C3_10 1_555 1_555
C2_10 C4_10 1_555 1_555
C3_10 C4_10 1_555 1_555
C4_10 C5_10 1_555 1_555
C5_10 C8_10 1_555 1_555
C6_10 C3_10 1_555 1_555
C7_10 C6_10 1_555 1_555
H2_10 C7_10 1_555 1_555
H3_10 C7_10 1_555 1_555
H4_10 C7_10 1_555 1_555
C8_10 H5_9 1_555 1_555
H6_10 C8_10 1_555 1_555
H7_10 C8_10 1_555 1_555
C9_10 C10_10 1_555 1_555
C10_10 H8_10 1_555 1_555
C11_10 C10_10 1_555 1_555
C12_10 C11_10 1_555 1_555
H9_10 C12_10 1_555 1_555
C13_10 C12_10 1_555 1_555
C14_10 C9_10 1_555 1_555
H10_10 C14_10 1_555 1_555
C15_10 C13_10 1_555 1_555
C16_10 C11_10 1_555 1_555
Cu4_5 O1_6 1_555 1_555
N1_10 C5_10 1_555 1_555
O1_6 Cu4_7 1_555 1_555
O3_10 C1_10 1_555 1_555
O4_10 C1_10 1_555 1_555
O12_7 C15_10 1_555 1_555
O13_5 C15_10 1_555 1_555
O9_10 C16_10 1_555 1_555
O10_10 C16_10 1_555 1_555
Cu4_7 O11_6 1_555 1_555
Cu5_10 O9_10 1_555 1_555
Cu7_10 O10_10 1_555 1_555
O11_6 Cu4_5 1_555 1_555
O14_10 Cu4_5 1_555 1_555
C6_10 N1_10 1_555 1_555
C9_10 N1_10 1_555 1_555
C13_10 C14_10 1_555 1_555
Cu4_5 O3_10 1_555 1_555
O2_11 Cu6_6 1_555 1_555
H11_11 O5_11 1_555 1_555
H12_11 O2_11 1_555 1_555
H13_11 O2_11 1_555 1_555
H1_11 O11_5 1_555 1_555
C1_11 C3_11 1_555 1_555
C2_11 C4_11 1_555 1_555
C3_11 C4_11 1_555 1_555
C4_11 C5_11 1_555 1_555
C5_11 C8_11 1_555 1_555
C6_11 C3_11 1_555 1_555
C7_11 C6_11 1_555 1_555
H2_11 C7_11 1_555 1_555
H3_11 C7_11 1_555 1_555
H4_11 C7_11 1_555 1_555
H6_11 C8_11 1_555 1_555
H7_11 C8_11 1_555 1_555
C9_11 C10_11 1_555 1_555
C10_11 H8_11 1_555 1_555
C11_11 C10_11 1_555 1_555
C12_11 C11_11 1_555 1_555
H9_11 C12_11 1_555 1_555
C13_11 C12_11 1_555 1_555
C14_11 C9_11 1_555 1_555
H10_11 C14_11 1_555 1_555
C15_11 C13_11 1_555 1_555
C16_11 C11_11 1_555 1_555
N1_11 C5_11 1_555 1_555
O3_11 C1_11 1_555 1_555
O4_11 C1_11 1_555 1_555
O12_6 C15_11 1_555 1_555
O13_8 C15_11 1_555 1_555
O9_11 C16_11 1_555 1_555
O14_11 Cu4_8 1_555 1_555
C6_11 N1_11 1_555 1_555
C9_11 N1_11 1_555 1_555
C13_11 C14_11 1_555 1_555
Cu4_8 O3_11 1_555 1_555
Cu7_11 O10_11 1_555 1_555
H2_12 C7_12 1_555 1_555
H3_12 C7_12 1_555 1_555
H4_12 C7_12 1_555 1_555
C9_12 C10_12 1_555 1_555
C11_12 C10_12 1_555 1_555
C12_12 C11_12 1_555 1_555
H9_12 C12_12 1_555 1_555
C13_12 C12_12 1_555 1_555
C14_12 C9_12 1_555 1_555
H10_12 C14_12 1_555 1_555
C15_12 C13_12 1_555 1_555
C16_12 C11_12 1_555 1_555
O12_5 C15_12 1_555 1_555
O13_7 C15_12 1_555 1_555
O9_12 C16_12 1_555 1_555
O10_12 C16_12 1_555 1_555
Cu5_12 O9_12 1_555 1_555
C13_12 C14_12 1_555 1_555
H1_12 O11_6 1_555 1_555
C1_12 C3_12 1_555 1_555
C2_12 C4_12 1_555 1_555
C3_12 C4_12 1_555 1_555
C4_12 C5_12 1_555 1_555
C5_12 C8_12 1_555 1_555
C6_12 C3_12 1_555 1_555
C8_12 H5_11 1_555 1_555
H6_12 C8_12 1_555 1_555
H7_12 C8_12 1_555 1_555
Cu6_5 O11_6 1_555 1_555
N1_12 C5_12 1_555 1_555
O2_12 Cu6_5 1_555 1_555
O3_12 C1_12 1_555 1_555
O4_12 C1_12 1_555 1_555
O5_12 C2_12 1_555 1_555
O6_12 C2_12 1_555 1_555
H11_12 O5_12 1_555 1_555
H12_12 O2_12 1_555 1_555
H13_12 O2_12 1_555 1_555
O14_12 Cu4_7 1_555 1_555
O15_12 Cu6_5 1_555 1_555
C6_12 N1_12 1_555 1_555
Cu4_7 O3_12 1_555 1_555
Cu6_5 O4_12 1_555 1_555
H2_13 C7_13 1_555 1_555
H3_13 C7_13 1_555 1_555
H4_13 C7_13 1_555 1_555
C9_13 C10_13 1_555 1_555
C11_13 C10_13 1_555 1_555
C12_13 C11_13 1_555 1_555
H9_13 C12_13 1_555 1_555
C13_13 C12_13 1_555 1_555
C14_13 C9_13 1_555 1_555
H10_13 C14_13 1_555 1_555
C15_13 C13_13 1_555 1_555
C16_13 C11_13 1_555 1_555
O12_4 C15_13 1_555 1_555
O13_2 C15_13 1_555 1_555
O9_13 C16_13 1_555 1_555
O10_13 C16_13 1_555 1_555
Cu5_13 O9_13 1_555 1_555
C13_13 C14_13 1_555 1_555
H1_13 O1_7 1_555 1_555
C1_13 C3_13 1_555 1_555
C2_13 C4_13 1_555 1_555
C3_13 C4_13 1_555 1_555
C4_13 C5_13 1_555 1_555
C5_13 C8_13 1_555 1_555
C6_13 C3_13 1_555 1_555
C8_13 H5_12 1_555 1_555
H6_13 C8_13 1_555 1_555
H7_13 C8_13 1_555 1_555
Cu4_2 O1_7 1_555 1_555
Cu6_4 O1_7 1_555 1_555
N1_13 C5_13 1_555 1_555
O1_7 Cu4_4 1_555 1_555
O2_13 Cu6_4 1_555 1_555
O3_13 C1_13 1_555 1_555
O4_13 C1_13 1_555 1_555
O5_13 C2_13 1_555 1_555
O6_13 C2_13 1_555 1_555
H11_13 O5_13 1_555 1_555
H12_13 O2_13 1_555 1_555
H13_13 O2_13 1_555 1_555
Cu4_4 O11_7 1_555 1_555
O11_7 Cu4_2 1_555 1_555
O14_13 Cu4_2 1_555 1_555
O15_13 Cu6_4 1_555 1_555
C6_13 N1_13 1_555 1_555
Cu4_2 O3_13 1_555 1_555
Cu6_4 O4_13 1_555 1_555
O2_14 Cu6_3 1_555 1_555
H11_14 O5_14 1_555 1_555
H12_14 O2_14 1_555 1_555
H13_14 O2_14 1_555 1_555
C1_14 C3_14 1_555 1_555
C2_14 C4_14 1_555 1_555
C3_14 C4_14 1_555 1_555
C4_14 C5_14 1_555 1_555
C5_14 C8_14 1_555 1_555
C6_14 C3_14 1_555 1_555
C7_14 C6_14 1_555 1_555
H2_14 C7_14 1_555 1_555
H3_14 C7_14 1_555 1_555
H4_14 C7_14 1_555 1_555
C8_14 H5_13 1_555 1_555
H6_14 C8_14 1_555 1_555
H7_14 C8_14 1_555 1_555
C9_14 C10_14 1_555 1_555
C10_14 H8_14 1_555 1_555
C11_14 C10_14 1_555 1_555
C12_14 C11_14 1_555 1_555
H9_14 C12_14 1_555 1_555
C13_14 C12_14 1_555 1_555
C14_14 C9_14 1_555 1_555
H10_14 C14_14 1_555 1_555
C15_14 C13_14 1_555 1_555
C16_14 C11_14 1_555 1_555
N1_14 C5_14 1_555 1_555
O3_14 C1_14 1_555 1_555
O4_14 C1_14 1_555 1_555
O12_3 C15_14 1_555 1_555
O13 C15_14 1_555 1_555
O9_14 C16_14 1_555 1_555
O10_14 C16_14 1_555 1_555
Cu5_14 O9_14 1_555 1_555
Cu7_14 O10_14 1_555 1_555
C6_14 N1_14 1_555 1_555
C9_14 N1_14 1_555 1_555
C13_14 C14_14 1_555 1_555
Cu4 O3_14 1_555 1_555
H1_14 O1_8 1_555 1_555
O2_15 Cu6_2 1_555 1_555
H11_15 O5_15 1_555 1_555
H12_15 O2_15 1_555 1_555
H13_15 O2_15 1_555 1_555
O9_15 C16_15 1_555 1_555
O10_15 C16_15 1_555 1_555
Cu5_15 O9_15 1_555 1_555
Cu7_15 O10_15 1_555 1_555
H1_15 O11_7 1_555 1_555
C1_15 C3_15 1_555 1_555
C2_15 C4_15 1_555 1_555
C3_15 C4_15 1_555 1_555
C4_15 C5_15 1_555 1_555
C5_15 C8_15 1_555 1_555
C6_15 C3_15 1_555 1_555
C7_15 C6_15 1_555 1_555
H2_15 C7_15 1_555 1_555
H3_15 C7_15 1_555 1_555
H4_15 C7_15 1_555 1_555
C8_15 H5_14 1_555 1_555
H6_15 C8_15 1_555 1_555
H7_15 C8_15 1_555 1_555
C9_15 C10_15 1_555 1_555
C10_15 H8_15 1_555 1_555
C11_15 C10_15 1_555 1_555
C12_15 C11_15 1_555 1_555
H9_15 C12_15 1_555 1_555
C13_15 C12_15 1_555 1_555
C14_15 C9_15 1_555 1_555
H10_15 C14_15 1_555 1_555
C15_15 C13_15 1_555 1_555
N1_15 C5_15 1_555 1_555
O3_15 C1_15 1_555 1_555
O4_15 C1_15 1_555 1_555
O12_2 C15_15 1_555 1_555
O13_4 C15_15 1_555 1_555
O14_15 Cu4_4 1_555 1_555
C6_15 N1_15 1_555 1_555
C9_15 N1_15 1_555 1_555
C13_15 C14_15 1_555 1_555
Cu4_4 O3_15 1_555 1_555
O9_16 C16_16 1_555 1_555
O10_16 C16_16 1_555 1_555
Cu5_16 O9_16 1_555 1_555
H2_16 C7_16 1_555 1_555
H3_16 C7_16 1_555 1_555
H4_16 C7_16 1_555 1_555
C9_16 C10_16 1_555 1_555
C11_16 C10_16 1_555 1_555
C12_16 C11_16 1_555 1_555
H9_16 C12_16 1_555 1_555
C13_16 C12_16 1_555 1_555
C14_16 C9_16 1_555 1_555
H10_16 C14_16 1_555 1_555
C15_16 C13_16 1_555 1_555
O12 C15_16 1_555 1_555
O13_3 C15_16 1_555 1_555
C13_16 C14_16 1_555 1_555
C1_16 C3_16 1_555 1_555
C2_16 C4_16 1_555 1_555
C3_16 C4_16 1_555 1_555
C4_16 C5_16 1_555 1_555
C5_16 C8_16 1_555 1_555
C6_16 C3_16 1_555 1_555
C8_16 H5_15 1_555 1_555
H6_16 C8_16 1_555 1_555
H7_16 C8_16 1_555 1_555
N1_16 C5_16 1_555 1_555
O2_16 Cu6 1_555 1_555
O3_16 C1_16 1_555 1_555
O4_16 C1_16 1_555 1_555
O5_16 C2_16 1_555 1_555
O6_16 C2_16 1_555 1_555
H11_16 O5_16 1_555 1_555
H12_16 O2_16 1_555 1_555
H13_16 O2_16 1_555 1_555
O15_16 Cu6 1_555 1_555
C6_16 N1_16 1_555 1_555
Cu4_3 O3_16 1_555 1_555
Cu6 O4_16 1_555 1_555
H1_16 O11_8 1_555 1_555
H1_17 O1_9 1_555 1_555
C1_17 C3_17 1_555 1_555
C2_17 C4_17 1_555 1_555
C3_17 C4_17 1_555 1_555
C4_17 C5_17 1_555 1_555
C5_17 C8_17 1_555 1_555
C6_17 C3_17 1_555 1_555
C7_17 C6_17 1_555 1_555
H2_17 C7_17 1_555 1_555
H3_17 C7_17 1_555 1_555
H4_17 C7_17 1_555 1_555
H6_17 C8_17 1_555 1_555
H7_17 C8_17 1_555 1_555
C9_17 C10_17 1_555 1_555
C10_17 H8_17 1_555 1_555
C11_17 C10_17 1_555 1_555
C12_17 C11_17 1_555 1_555
H9_17 C12_17 1_555 1_555
C13_17 C12_17 1_555 1_555
C14_17 C9_17 1_555 1_555
H10_17 C14_17 1_555 1_555
C15_17 C13_17 1_555 1_555
C16_17 C11_17 1_555 1_555
Cu5_10 O1_9 1_555 1_555
Cu7_10 O1_9 1_555 1_555
N1_17 C5_17 1_555 1_555
O1_9 Cu5_4 1_555 1_555
O2_17 Cu7_10 1_555 1_555
O3_17 C1_17 1_555 1_555
O4_17 C1_17 1_555 1_555
O5_17 C2_17 1_555 1_555
O6_17 C2_17 1_555 1_555
O7_9 C15_17 1_555 1_555
O8_9 C15_17 1_555 1_555
O14_6 C16_17 1_555 1_555
H11_17 O5_17 1_555 1_555
H12_17 O2_17 1_555 1_555
H13_17 O2_17 1_555 1_555
Cu5_4 O11_9 1_555 1_555
Cu5_9 O8_9 1_555 1_555
Cu7_3 O7_9 1_555 1_555
O11_9 Cu5_10 1_555 1_555
O12_9 Cu7_10 1_555 1_555
O13_9 Cu5_10 1_555 1_555
C6_17 N1_17 1_555 1_555
C9_17 N1_17 1_555 1_555
C13_17 C14_17 1_555 1_555
Cu5_10 O3_17 1_555 1_555
Cu7_10 O4_17 1_555 1_555
H1_18 O1_10 1_555 1_555
C1_18 C3_18 1_555 1_555
C2_18 C4_18 1_555 1_555
C3_18 C4_18 1_555 1_555
C4_18 C5_18 1_555 1_555
C5_18 C8_18 1_555 1_555
C6_18 C3_18 1_555 1_555
C7_18 C6_18 1_555 1_555
H2_18 C7_18 1_555 1_555
H3_18 C7_18 1_555 1_555
H4_18 C7_18 1_555 1_555
C8_18 H5_17 1_555 1_555
H6_18 C8_18 1_555 1_555
H7_18 C8_18 1_555 1_555
C9_18 C10_18 1_555 1_555
C10_18 H8_18 1_555 1_555
C11_18 C10_18 1_555 1_555
C12_18 C11_18 1_555 1_555
H9_18 C12_18 1_555 1_555
C13_18 C12_18 1_555 1_555
C14_18 C9_18 1_555 1_555
H10_18 C14_18 1_555 1_555
C15_18 C13_18 1_555 1_555
C16_18 C11_18 1_555 1_555
Cu5_5 O1_10 1_555 1_555
Cu7_5 O1_10 1_555 1_555
N1_18 C5_18 1_555 1_555
O1_10 Cu5_15 1_555 1_555
O2_18 Cu7_5 1_555 1_555
O3_18 C1_18 1_555 1_555
O4_18 C1_18 1_555 1_555
O5_18 C2_18 1_555 1_555
O6_18 C2_18 1_555 1_555
O7_10 C15_18 1_555 1_555
O8_10 C15_18 1_555 1_555
O14_9 C16_18 1_555 1_555
O15_9 C16_18 1_555 1_555
H11_18 O5_18 1_555 1_555
H12_18 O2_18 1_555 1_555
H13_18 O2_18 1_555 1_555
Cu5_15 O11_10 1_555 1_555
Cu7_16 O7_10 1_555 1_555
O11_10 Cu5_5 1_555 1_555
O12_10 Cu7_5 1_555 1_555
O13_10 Cu5_5 1_555 1_555
C6_18 N1_18 1_555 1_555
C9_18 N1_18 1_555 1_555
C13_18 C14_18 1_555 1_555
Cu5_5 O3_18 1_555 1_555
Cu7_5 O4_18 1_555 1_555
H1_19 O11_9 1_555 1_555
C1_19 C3_19 1_555 1_555
C2_19 C4_19 1_555 1_555
C3_19 C4_19 1_555 1_555
C4_19 C5_19 1_555 1_555
C5_19 C8_19 1_555 1_555
C6_19 C3_19 1_555 1_555
C7_19 C6_19 1_555 1_555
H2_19 C7_19 1_555 1_555
H3_19 C7_19 1_555 1_555
H4_19 C7_19 1_555 1_555
H6_19 C8_19 1_555 1_555
H7_19 C8_19 1_555 1_555
C9_19 C10_19 1_555 1_555
C10_19 H8_19 1_555 1_555
C11_19 C10_19 1_555 1_555
C12_19 C11_19 1_555 1_555
H9_19 C12_19 1_555 1_555
C13_19 C12_19 1_555 1_555
C14_19 C9_19 1_555 1_555
H10_19 C14_19 1_555 1_555
C15_19 C13_19 1_555 1_555
Cu7_4 O11_9 1_555 1_555
N1_19 C5_19 1_555 1_555
O2_19 Cu7_4 1_555 1_555
O3_19 C1_19 1_555 1_555
O4_19 C1_19 1_555 1_555
O5_19 C2_19 1_555 1_555
O6_19 C2_19 1_555 1_555
O7_11 C15_19 1_555 1_555
O8_11 C15_19 1_555 1_555
H11_19 O5_19 1_555 1_555
H12_19 O2_19 1_555 1_555
H13_19 O2_19 1_555 1_555
Cu7_9 O7_11 1_555 1_555
O12_11 Cu7_4 1_555 1_555
O13_11 Cu5_4 1_555 1_555
C6_19 N1_19 1_555 1_555
C9_19 N1_19 1_555 1_555
C13_19 C14_19 1_555 1_555
Cu5_4 O3_19 1_555 1_555
Cu7_4 O4_19 1_555 1_555
O14_16 C16_19 1_555 1_555
H1_20 O11_10 1_555 1_555
C1_20 C3_20 1_555 1_555
C2_20 C4_20 1_555 1_555
C3_20 C4_20 1_555 1_555
C4_20 C5_20 1_555 1_555
C5_20 C8_20 1_555 1_555
C6_20 C3_20 1_555 1_555
C7_20 C6_20 1_555 1_555
H2_20 C7_20 1_555 1_555
H3_20 C7_20 1_555 1_555
H4_20 C7_20 1_555 1_555
C8_20 H5_18 1_555 1_555
H6_20 C8_20 1_555 1_555
H7_20 C8_20 1_555 1_555
C9_20 C10_20 1_555 1_555
C10_20 H8_20 1_555 1_555
C11_20 C10_20 1_555 1_555
C12_20 C11_20 1_555 1_555
H9_20 C12_20 1_555 1_555
C13_20 C12_20 1_555 1_555
C14_20 C9_20 1_555 1_555
H10_20 C14_20 1_555 1_555
C15_20 C13_20 1_555 1_555
Cu7_15 O11_10 1_555 1_555
N1_20 C5_20 1_555 1_555
O2_20 Cu7_15 1_555 1_555
O3_20 C1_20 1_555 1_555
O4_20 C1_20 1_555 1_555
O5_20 C2_20 1_555 1_555
O6_20 C2_20 1_555 1_555
O7_12 C15_20 1_555 1_555
O8_12 C15_20 1_555 1_555
H11_20 O5_20 1_555 1_555
H12_20 O2_20 1_555 1_555
H13_20 O2_20 1_555 1_555
Cu5_16 O8_12 1_555 1_555
Cu7_6 O7_12 1_555 1_555
O12_12 Cu7_15 1_555 1_555
O13_12 Cu5_15 1_555 1_555
C6_20 N1_20 1_555 1_555
C9_20 N1_20 1_555 1_555
C13_20 C14_20 1_555 1_555
Cu5_15 O3_20 1_555 1_555
Cu7_15 O4_20 1_555 1_555
O14_3 C16_20 1_555 1_555
O15_3 C16_20 1_555 1_555
H1_21 O1_11 1_555 1_555
C1_21 C3_21 1_555 1_555
C2_21 C4_21 1_555 1_555
C3_21 C4_21 1_555 1_555
C4_21 C5_21 1_555 1_555
C5_21 C8_21 1_555 1_555
C6_21 C3_21 1_555 1_555
C7_21 C6_21 1_555 1_555
H2_21 C7_21 1_555 1_555
H3_21 C7_21 1_555 1_555
H4_21 C7_21 1_555 1_555
C8_21 H5_19 1_555 1_555
H6_21 C8_21 1_555 1_555
H7_21 C8_21 1_555 1_555
C9_21 C10_21 1_555 1_555
C10_21 H8_21 1_555 1_555
C11_21 C10_21 1_555 1_555
C12_21 C11_21 1_555 1_555
H9_21 C12_21 1_555 1_555
C13_21 C12_21 1_555 1_555
C14_21 C9_21 1_555 1_555
H10_21 C14_21 1_555 1_555
C15_21 C13_21 1_555 1_555
C16_21 C11_21 1_555 1_555
Cu5_14 O1_11 1_555 1_555
Cu7_14 O1_11 1_555 1_555
N1_21 C5_21 1_555 1_555
O1_11 Cu5_8 1_555 1_555
O2_21 Cu7_14 1_555 1_555
O3_21 C1_21 1_555 1_555
O4_21 C1_21 1_555 1_555
O5_21 C2_21 1_555 1_555
O6_21 C2_21 1_555 1_555
O7_13 C15_21 1_555 1_555
O8_13 C15_21 1_555 1_555
O14_2 C16_21 1_555 1_555
O15_2 C16_21 1_555 1_555
H11_21 O5_21 1_555 1_555
H12_21 O2_21 1_555 1_555
H13_21 O2_21 1_555 1_555
Cu5_8 O11_11 1_555 1_555
Cu5_13 O8_13 1_555 1_555
Cu7_7 O7_13 1_555 1_555
O11_11 Cu5_14 1_555 1_555
O12_13 Cu7_14 1_555 1_555
O13_13 Cu5_14 1_555 1_555
C6_21 N1_21 1_555 1_555
C9_21 N1_21 1_555 1_555
C13_21 C14_21 1_555 1_555
Cu5_14 O3_21 1_555 1_555
Cu7_14 O4_21 1_555 1_555
H1_22 O1_12 1_555 1_555
C1_22 C3_22 1_555 1_555
C2_22 C4_22 1_555 1_555
C3_22 C4_22 1_555 1_555
C4_22 C5_22 1_555 1_555
C5_22 C8_22 1_555 1_555
C6_22 C3_22 1_555 1_555
C7_22 C6_22 1_555 1_555
H2_22 C7_22 1_555 1_555
H3_22 C7_22 1_555 1_555
H4_22 C7_22 1_555 1_555
C8_22 H5_20 1_555 1_555
H6_22 C8_22 1_555 1_555
H7_22 C8_22 1_555 1_555
C9_22 C10_22 1_555 1_555
C10_22 H8_22 1_555 1_555
C11_22 C10_22 1_555 1_555
C12_22 C11_22 1_555 1_555
H9_22 C12_22 1_555 1_555
C13_22 C12_22 1_555 1_555
C14_22 C9_22 1_555 1_555
H10_22 C14_22 1_555 1_555
C15_22 C13_22 1_555 1_555
C16_22 C11_22 1_555 1_555
N1_22 C5_22 1_555 1_555
O2_22 Cu7 1_555 1_555
O3_22 C1_22 1_555 1_555
O4_22 C1_22 1_555 1_555
O5_22 C2_22 1_555 1_555
O6_22 C2_22 1_555 1_555
O7_14 C15_22 1_555 1_555
O8_14 C15_22 1_555 1_555
O14_13 C16_22 1_555 1_555
O15_13 C16_22 1_555 1_555
H11_22 O5_22 1_555 1_555
H12_22 O2_22 1_555 1_555
H13_22 O2_22 1_555 1_555
Cu7_12 O7_14 1_555 1_555
O12_14 Cu7 1_555 1_555
O13_14 Cu5 1_555 1_555
C6_22 N1_22 1_555 1_555
C9_22 N1_22 1_555 1_555
C13_22 C14_22 1_555 1_555
Cu5 O3_22 1_555 1_555
Cu7 O4_22 1_555 1_555
H1_23 O11_11 1_555 1_555
C1_23 C3_23 1_555 1_555
C2_23 C4_23 1_555 1_555
C3_23 C4_23 1_555 1_555
C4_23 C5_23 1_555 1_555
C5_23 C8_23 1_555 1_555
C6_23 C3_23 1_555 1_555
C7_23 C6_23 1_555 1_555
H2_23 C7_23 1_555 1_555
H3_23 C7_23 1_555 1_555
H4_23 C7_23 1_555 1_555
C8_23 H5_21 1_555 1_555
H6_23 C8_23 1_555 1_555
H7_23 C8_23 1_555 1_555
C9_23 C10_23 1_555 1_555
C10_23 H8_23 1_555 1_555
C11_23 C10_23 1_555 1_555
C12_23 C11_23 1_555 1_555
H9_23 C12_23 1_555 1_555
C13_23 C12_23 1_555 1_555
C14_23 C9_23 1_555 1_555
H10_23 C14_23 1_555 1_555
C15_23 C13_23 1_555 1_555
C16_23 C11_23 1_555 1_555
Cu7_8 O11_11 1_555 1_555
N1_23 C5_23 1_555 1_555
O2_23 Cu7_8 1_555 1_555
O3_23 C1_23 1_555 1_555
O4_23 C1_23 1_555 1_555
O5_23 C2_23 1_555 1_555
O6_23 C2_23 1_555 1_555
O7_15 C15_23 1_555 1_555
O8_15 C15_23 1_555 1_555
O14_12 C16_23 1_555 1_555
O15_12 C16_23 1_555 1_555
H11_23 O5_23 1_555 1_555
H12_23 O2_23 1_555 1_555
H13_23 O2_23 1_555 1_555
Cu7_13 O7_15 1_555 1_555
O12_15 Cu7_8 1_555 1_555
O13_15 Cu5_8 1_555 1_555
C6_23 N1_23 1_555 1_555
C9_23 N1_23 1_555 1_555
C13_23 C14_23 1_555 1_555
Cu5_8 O3_23 1_555 1_555
Cu7_8 O4_23 1_555 1_555
H1_24 O11_12 1_555 1_555
C1_24 C3_24 1_555 1_555
C2_24 C4_24 1_555 1_555
C3_24 C4_24 1_555 1_555
C4_24 C5_24 1_555 1_555
C5_24 C8_24 1_555 1_555
C6_24 C3_24 1_555 1_555
C7_24 C6_24 1_555 1_555
H2_24 C7_24 1_555 1_555
H3_24 C7_24 1_555 1_555
H4_24 C7_24 1_555 1_555
C8_24 H5_22 1_555 1_555
H6_24 C8_24 1_555 1_555
H7_24 C8_24 1_555 1_555
C9_24 C10_24 1_555 1_555
C10_24 H8_24 1_555 1_555
C11_24 C10_24 1_555 1_555
C12_24 C11_24 1_555 1_555
H9_24 C12_24 1_555 1_555
C13_24 C12_24 1_555 1_555
C14_24 C9_24 1_555 1_555
H10_24 C14_24 1_555 1_555
C15_24 C13_24 1_555 1_555
C16_24 C11_24 1_555 1_555
N1_24 C5_24 1_555 1_555
O2_24 Cu7_11 1_555 1_555
O3_24 C1_24 1_555 1_555
O4_24 C1_24 1_555 1_555
O5_24 C2_24 1_555 1_555
O6_24 C2_24 1_555 1_555
O7_16 C15_24 1_555 1_555
O8_16 C15_24 1_555 1_555
O14_7 C16_24 1_555 1_555
O15_7 C16_24 1_555 1_555
H11_24 O5_24 1_555 1_555
H12_24 O2_24 1_555 1_555
H13_24 O2_24 1_555 1_555
Cu5_12 O8_16 1_555 1_555
Cu7_2 O7_16 1_555 1_555
O12_16 Cu7_11 1_555 1_555
O13_16 Cu5_11 1_555 1_555
C6_24 N1_24 1_555 1_555
C9_24 N1_24 1_555 1_555
C13_24 C14_24 1_555 1_555
Cu5_11 O3_24 1_555 1_555
Cu7_11 O4_24 1_555 1_555
H1_25 O1_13 1_555 1_555
C1_25 C3_25 1_555 1_555
C2_25 C4_25 1_555 1_555
C3_25 C4_25 1_555 1_555
C4_25 C5_25 1_555 1_555
C5_25 C8_25 1_555 1_555
C6_25 C3_25 1_555 1_555
H6_25 C8_25 1_555 1_555
H7_25 C8_25 1_555 1_555
Cu5_2 O1_13 1_555 1_555
Cu7_2 O1_13 1_555 1_555
N1_25 C5_25 1_555 1_555
O1_13 Cu5_12 1_555 1_555
O2_25 Cu7_2 1_555 1_555
O3_25 C1_25 1_555 1_555
O4_25 C1_25 1_555 1_555
O5_25 C2_25 1_555 1_555
O6_25 C2_25 1_555 1_555
H11_25 O5_25 1_555 1_555
H12_25 O2_25 1_555 1_555
H13_25 O2_25 1_555 1_555
Cu5_12 O11_13 1_555 1_555
O11_13 Cu5_2 1_555 1_555
C6_25 N1_25 1_555 1_555
Cu5_2 O3_25 1_555 1_555
Cu7_2 O4_25 1_555 1_555
H2_25 C7_25 1_555 1_555
H3_25 C7_25 1_555 1_555
H4_25 C7_25 1_555 1_555
C9_25 C10_25 1_555 1_555
C11_25 C10_25 1_555 1_555
C12_25 C11_25 1_555 1_555
H9_25 C12_25 1_555 1_555
C13_25 C12_25 1_555 1_555
C14_25 C9_25 1_555 1_555
H10_25 C14_25 1_555 1_555
C15_25 C13_25 1_555 1_555
C16_25 C11_25 1_555 1_555
O12_16 C15_25 1_555 1_555
O13_14 C15_25 1_555 1_555
O14_14 C16_25 1_555 1_555
C13_25 C14_25 1_555 1_555
H1_26 O1_14 1_555 1_555
C1_26 C3_26 1_555 1_555
C2_26 C4_26 1_555 1_555
C3_26 C4_26 1_555 1_555
C4_26 C5_26 1_555 1_555
C5_26 C8_26 1_555 1_555
C6_26 C3_26 1_555 1_555
C7_26 C6_26 1_555 1_555
H2_26 C7_26 1_555 1_555
H3_26 C7_26 1_555 1_555
H4_26 C7_26 1_555 1_555
C8_26 H5_24 1_555 1_555
H6_26 C8_26 1_555 1_555
H7_26 C8_26 1_555 1_555
C9_26 C10_26 1_555 1_555
C10_26 H8_26 1_555 1_555
C11_26 C10_26 1_555 1_555
C12_26 C11_26 1_555 1_555
H9_26 C12_26 1_555 1_555
C13_26 C12_26 1_555 1_555
C14_26 C9_26 1_555 1_555
H10_26 C14_26 1_555 1_555
C15_26 C13_26 1_555 1_555
C16_26 C11_26 1_555 1_555
Cu5_13 O1_14 1_555 1_555
N1_26 C5_26 1_555 1_555
O1_14 Cu5_7 1_555 1_555
O3_26 C1_26 1_555 1_555
O4_26 C1_26 1_555 1_555
O12_15 C15_26 1_555 1_555
O13_13 C15_26 1_555 1_555
O14 C16_26 1_555 1_555
O15 C16_26 1_555 1_555
Cu5_7 O11_14 1_555 1_555
O11_14 Cu5_13 1_555 1_555
C6_26 N1_26 1_555 1_555
C9_26 N1_26 1_555 1_555
C13_26 C14_26 1_555 1_555
Cu5_13 O3_26 1_555 1_555
O2_26 Cu7_13 1_555 1_555
H11_26 O5_26 1_555 1_555
H12_26 O2_26 1_555 1_555
H13_26 O2_26 1_555 1_555
H1_27 O11_13 1_555 1_555
C1_27 C3_27 1_555 1_555
C2_27 C4_27 1_555 1_555
C3_27 C4_27 1_555 1_555
C4_27 C5_27 1_555 1_555
C5_27 C8_27 1_555 1_555
C6_27 C3_27 1_555 1_555
C7_27 C6_27 1_555 1_555
H2_27 C7_27 1_555 1_555
H3_27 C7_27 1_555 1_555
H4_27 C7_27 1_555 1_555
H6_27 C8_27 1_555 1_555
H7_27 C8_27 1_555 1_555
C9_27 C10_27 1_555 1_555
C10_27 H8_27 1_555 1_555
C11_27 C10_27 1_555 1_555
C12_27 C11_27 1_555 1_555
H9_27 C12_27 1_555 1_555
C13_27 C12_27 1_555 1_555
C14_27 C9_27 1_555 1_555
H10_27 C14_27 1_555 1_555
C15_27 C13_27 1_555 1_555
C16_27 C11_27 1_555 1_555
N1_27 C5_27 1_555 1_555
O3_27 C1_27 1_555 1_555
O4_27 C1_27 1_555 1_555
O12_14 C15_27 1_555 1_555
O13_16 C15_27 1_555 1_555
O14_8 C16_27 1_555 1_555
C6_27 N1_27 1_555 1_555
C9_27 N1_27 1_555 1_555
C13_27 C14_27 1_555 1_555
Cu5_12 O3_27 1_555 1_555
O2_27 Cu7_12 1_555 1_555
H11_27 O5_27 1_555 1_555
H12_27 O2_27 1_555 1_555
H13_27 O2_27 1_555 1_555
H1_28 O11_14 1_555 1_555
C1_28 C3_28 1_555 1_555
C2_28 C4_28 1_555 1_555
C3_28 C4_28 1_555 1_555
C4_28 C5_28 1_555 1_555
C5_28 C8_28 1_555 1_555
C6_28 C3_28 1_555 1_555
C8_28 H5_26 1_555 1_555
H6_28 C8_28 1_555 1_555
H7_28 C8_28 1_555 1_555
Cu7_7 O11_14 1_555 1_555
N1_28 C5_28 1_555 1_555
O2_28 Cu7_7 1_555 1_555
O3_28 C1_28 1_555 1_555
O4_28 C1_28 1_555 1_555
O5_28 C2_28 1_555 1_555
O6_28 C2_28 1_555 1_555
H11_28 O5_28 1_555 1_555
H12_28 O2_28 1_555 1_555
H13_28 O2_28 1_555 1_555
C6_28 N1_28 1_555 1_555
Cu5_7 O3_28 1_555 1_555
Cu7_7 O4_28 1_555 1_555
H2_28 C7_28 1_555 1_555
H3_28 C7_28 1_555 1_555
H4_28 C7_28 1_555 1_555
C9_28 C10_28 1_555 1_555
C11_28 C10_28 1_555 1_555
C12_28 C11_28 1_555 1_555
H9_28 C12_28 1_555 1_555
C13_28 C12_28 1_555 1_555
C14_28 C9_28 1_555 1_555
H10_28 C14_28 1_555 1_555
C15_28 C13_28 1_555 1_555
C16_28 C11_28 1_555 1_555
O12_13 C15_28 1_555 1_555
O13_15 C15_28 1_555 1_555
O14_11 C16_28 1_555 1_555
O15_11 C16_28 1_555 1_555
C13_28 C14_28 1_555 1_555
H1_29 O1_15 1_555 1_555
C1_29 C3_29 1_555 1_555
C2_29 C4_29 1_555 1_555
C3_29 C4_29 1_555 1_555
C4_29 C5_29 1_555 1_555
C5_29 C8_29 1_555 1_555
C6_29 C3_29 1_555 1_555
C8_29 H5_27 1_555 1_555
H6_29 C8_29 1_555 1_555
H7_29 C8_29 1_555 1_555
Cu5_6 O1_15 1_555 1_555
Cu7_6 O1_15 1_555 1_555
N1_29 C5_29 1_555 1_555
O1_15 Cu5_16 1_555 1_555
O2_29 Cu7_6 1_555 1_555
O3_29 C1_29 1_555 1_555
O4_29 C1_29 1_555 1_555
O5_29 C2_29 1_555 1_555
O6_29 C2_29 1_555 1_555
H11_29 O5_29 1_555 1_555
H12_29 O2_29 1_555 1_555
H13_29 O2_29 1_555 1_555
Cu5_16 O11_15 1_555 1_555
O11_15 Cu5_6 1_555 1_555
C6_29 N1_29 1_555 1_555
Cu5_6 O3_29 1_555 1_555
Cu7_6 O4_29 1_555 1_555
H2_29 C7_29 1_555 1_555
H3_29 C7_29 1_555 1_555
H4_29 C7_29 1_555 1_555
C9_29 C10_29 1_555 1_555
C11_29 C10_29 1_555 1_555
C12_29 C11_29 1_555 1_555
H9_29 C12_29 1_555 1_555
C13_29 C12_29 1_555 1_555
C14_29 C9_29 1_555 1_555
H10_29 C14_29 1_555 1_555
C15_29 C13_29 1_555 1_555
C16_29 C11_29 1_555 1_555
O12_12 C15_29 1_555 1_555
O13_10 C15_29 1_555 1_555
O14_10 C16_29 1_555 1_555
O15_10 C16_29 1_555 1_555
C13_29 C14_29 1_555 1_555
H1_30 O1_16 1_555 1_555
C1_30 C3_30 1_555 1_555
C2_30 C4_30 1_555 1_555
C3_30 C4_30 1_555 1_555
C4_30 C5_30 1_555 1_555
C5_30 C8_30 1_555 1_555
C6_30 C3_30 1_555 1_555
C7_30 C6_30 1_555 1_555
H2_30 C7_30 1_555 1_555
H3_30 C7_30 1_555 1_555
H4_30 C7_30 1_555 1_555
C8_30 H5_28 1_555 1_555
H6_30 C8_30 1_555 1_555
H7_30 C8_30 1_555 1_555
C9_30 C10_30 1_555 1_555
C10_30 H8_30 1_555 1_555
C11_30 C10_30 1_555 1_555
C12_30 C11_30 1_555 1_555
H9_30 C12_30 1_555 1_555
C13_30 C12_30 1_555 1_555
C14_30 C9_30 1_555 1_555
H10_30 C14_30 1_555 1_555
C15_30 C13_30 1_555 1_555
C16_30 C11_30 1_555 1_555
N1_30 C5_30 1_555 1_555
O3_30 C1_30 1_555 1_555
O4_30 C1_30 1_555 1_555
O12_11 C15_30 1_555 1_555
O13_9 C15_30 1_555 1_555
O14_5 C16_30 1_555 1_555
O15_5 C16_30 1_555 1_555
C6_30 N1_30 1_555 1_555
C9_30 N1_30 1_555 1_555
C13_30 C14_30 1_555 1_555
Cu5_9 O3_30 1_555 1_555
O2_30 Cu7_9 1_555 1_555
H11_30 O5_30 1_555 1_555
H12_30 O2_30 1_555 1_555
H13_30 O2_30 1_555 1_555
H1_31 O11_15 1_555 1_555
C1_31 C3_31 1_555 1_555
C2_31 C4_31 1_555 1_555
C3_31 C4_31 1_555 1_555
C4_31 C5_31 1_555 1_555
C5_31 C8_31 1_555 1_555
C6_31 C3_31 1_555 1_555
C7_31 C6_31 1_555 1_555
H2_31 C7_31 1_555 1_555
H3_31 C7_31 1_555 1_555
H4_31 C7_31 1_555 1_555
C8_31 H5_29 1_555 1_555
H6_31 C8_31 1_555 1_555
H7_31 C8_31 1_555 1_555
C9_31 C10_31 1_555 1_555
C10_31 H8_31 1_555 1_555
C11_31 C10_31 1_555 1_555
C12_31 C11_31 1_555 1_555
H9_31 C12_31 1_555 1_555
C13_31 C12_31 1_555 1_555
C14_31 C9_31 1_555 1_555
H10_31 C14_31 1_555 1_555
C15_31 C13_31 1_555 1_555
N1_31 C5_31 1_555 1_555
O3_31 C1_31 1_555 1_555
O4_31 C1_31 1_555 1_555
O12_10 C15_31 1_555 1_555
O13_12 C15_31 1_555 1_555
C6_31 N1_31 1_555 1_555
C9_31 N1_31 1_555 1_555
C13_31 C14_31 1_555 1_555
Cu5_16 O3_31 1_555 1_555
O14_4 C16_31 1_555 1_555
O15_4 C16_31 1_555 1_555
O2_31 Cu7_16 1_555 1_555
H11_31 O5_31 1_555 1_555
H12_31 O2_31 1_555 1_555
H13_31 O2_31 1_555 1_555
H1_32 O11_16 1_555 1_555
C1_32 C3_32 1_555 1_555
C2_32 C4_32 1_555 1_555
C3_32 C4_32 1_555 1_555
C4_32 C5_32 1_555 1_555
C5_32 C8_32 1_555 1_555
C6_32 C3_32 1_555 1_555
C8_32 H5_30 1_555 1_555
H6_32 C8_32 1_555 1_555
H7_32 C8_32 1_555 1_555
N1_32 C5_32 1_555 1_555
O2_32 Cu7_3 1_555 1_555
O3_32 C1_32 1_555 1_555
O4_32 C1_32 1_555 1_555
O5_32 C2_32 1_555 1_555
O6_32 C2_32 1_555 1_555
H11_32 O5_32 1_555 1_555
H12_32 O2_32 1_555 1_555
H13_32 O2_32 1_555 1_555
C6_32 N1_32 1_555 1_555
Cu5_3 O3_32 1_555 1_555
Cu7_3 O4_32 1_555 1_555
H2_32 C7_32 1_555 1_555
H3_32 C7_32 1_555 1_555
H4_32 C7_32 1_555 1_555
C9_32 C10_32 1_555 1_555
C11_32 C10_32 1_555 1_555
C12_32 C11_32 1_555 1_555
H9_32 C12_32 1_555 1_555
C13_32 C12_32 1_555 1_555
C14_32 C9_32 1_555 1_555
H10_32 C14_32 1_555 1_555
C15_32 C13_32 1_555 1_555
O12_9 C15_32 1_555 1_555
O13_11 C15_32 1_555 1_555
C13_32 C14_32 1_555 1_555
O14_15 C16_32 1_555 1_555
O15_15 C16_32 1_555 1_555

#END
