
###############################################################################
#
# This file contains modified crystal structure data generated from the
# MOF subset of the Cambridge Structural Database (CSD) v543 
# hosted by the Cambridge Crystallographic Data Centre (CCDC).
#
# This work is licensed under the Creative Commons
# Attribution-NonCommercial-ShareAlike 4.0 International License.
# To view a copy of this license, visit
# http://creativecommons.org/licenses/by-nc-sa/4.0/
# or send a letter to
# Creative Commons, PO Box 1866, Mountain View, CA 94042, USA.
#
# CIF created using the CSD Python API on 29 September 2022
# The structure has been converted into the P1 space group
# The structure has a 3D framework
# The original CSD entry OPOBIF is in the rhombohedral crystal system
# The framework has been calculated to contain at least 10.0% void space
# The void calculation uses a probe of radius 1.32A, grid spacing 0.4
#
###############################################################################

data_OPOBIF
_chemical_formula_moiety         '(C234 H180 N108 O66 Zn36)n'
_symmetry_cell_setting           triclinic
_symmetry_space_group_name_H-M   'P 1'
_symmetry_Int_Tables_number      1
_space_group_name_Hall           'P 1'
loop_
_symmetry_equiv_pos_site_id
_symmetry_equiv_pos_as_xyz
1 x,y,z
_cell_length_a                   32.8723(16)
_cell_length_b                   32.8723(16)
_cell_length_c                   8.4085(8)
_cell_angle_alpha                90
_cell_angle_beta                 90
_cell_angle_gamma                120
_cell_volume                     7868.82
loop_
_atom_site_label
_atom_site_type_symbol
_atom_site_fract_x
_atom_site_fract_y
_atom_site_fract_z
O2 O 0.85452(10) 0.08549(10) 0.0248(3)
H5 H 0.8737 0.0273 0.0725
Zn3 Zn 0.880900(12) 0.168060(16) 0.02041(4)
N7 N 0.74406(8) 0.02346(12) 0.4001(3)
O1 O 0.87912(8) 0.13280(8) 0.8203(3)
C1 C 0.86383(11) 0.05465(11) 0.7780(3)
C2 C 0.85908(11) 0.01304(11) 0.8360(4)
C5 C 0.86656(14) 0.03085(16) 0.5078(4)
H3 H 0.8687 0.0367 0.3990
C6 C 0.86747(12) 0.06342(13) 0.6136(4)
H4 H 0.8705 0.0914 0.5757
C7 C 0.86555(12) 0.09275(12) 0.8823(4)
Zn2 Zn 0.738110(12) 0.962940(13) 0.31552(4)
O3 O 0.79852(7) 0.98563(8) 0.2171(2)
N1 N 0.67920(8) 0.93679(9) 0.1793(3)
N2 N 0.66819(8) 0.90325(8) 0.0638(3)
N3 N 0.61274(9) 0.92261(8) 0.0668(3)
C8 C 0.85288(12) 0.99975(12) 0.0103(4)
H6 H 0.8622 0.9764 0.0275
C9 C 0.80321(10) 0.98052(11) 0.0698(3)
C10 C 0.62871(11) 0.89592(11) 0.0011(4)
C11 C 0.64562(11) 0.94718(11) 0.1769(3)
H8 H 0.6447 0.9692 0.2440
O5 O 0.74632(11) 0.87912(8) 0.1797(3)
N8 N 0.65909(8) 0.80940(8) 0.0181(3)
N9 N 0.71962(8) 0.91996(8) 0.5020(2)
Zn1 Zn 0.712840(11) 0.880900(12) 0.97959(4)
O4 O 0.76987(8) 0.95967(9) 0.9762(2)
N4 N 0.71012(8) 0.88906(8) 0.7423(3)
N5 N 0.67424(8) 0.85727(8) 0.6486(3)
C3 C 0.85942(13) 0.98114(13) 0.7270(4)
H1 H 0.8576 0.9536 0.7637
C4 C 0.86239(14) 0.99000(16) 0.5637(5)
H2 H 0.8615 0.9679 0.4926
H7 H 0.6133 0.8745 0.9197
C12 C 0.68156(10) 0.87711(11) 0.5075(3)
H9 H 0.6621 0.8627 0.4204
C13 C 0.73599(10) 0.92592(11) 0.6514(3)
H10 H 0.7625 0.9529 0.6870
Zn4 Zn 0.620493(11) 0.785767(12) 0.68708(4)
Zn5 Zn 0.558163(18) 0.928557(12) 0.98219(4)
O6 O 0.76903(14) 0.85452(10) 0.9752(3)
Zn2_2 Zn 0.037060(13) 0.775170(18) 0.31552(4)
O3_2 O 0.01437(8) 0.81289(11) 0.2171(2)
N1_2 N 0.06321(9) 0.74241(12) 0.1793(3)
N2_2 N 0.09675(8) 0.76494(11) 0.0638(3)
N3_2 N 0.07739(8) 0.69013(12) 0.0668(3)
C8_2 C 0.00025(12) 0.85313(17) 0.0103(4)
H6_2 H 0.0236 0.8858 0.0275
C9_2 C 0.01948(11) 0.82269(15) 0.0698(3)
C10_2 C 0.10408(11) 0.73279(16) 0.0011(4)
C11_2 C 0.05282(11) 0.69844(16) 0.1769(3)
H8_2 H 0.0308 0.6755 0.2440
O5_2 O 0.12088(8) 0.86720(14) 0.1797(3)
N8_2 N 0.19060(8) 0.84970(11) 0.0181(3)
N9_2 N 0.08004(8) 0.79966(11) 0.5020(2)
Zn1_2 Zn 0.119100(12) 0.831940(16) 0.97959(4)
O4_2 O 0.04033(9) 0.81020(12) 0.9762(2)
N4_2 N 0.11094(8) 0.82106(11) 0.7423(3)
N5_2 N 0.14273(8) 0.81697(11) 0.6486(3)
C3_2 C 0.01886(13) 0.87828(18) 0.7270(4)
H1_2 H 0.0464 0.9040 0.7637
C4_2 C 0.01000(16) 0.87239(21) 0.5637(5)
H2_2 H 0.0321 0.8936 0.4926
H7_2 H 0.1255 0.7388 0.9197
C12_2 C 0.12289(11) 0.80445(15) 0.5075(3)
H9_2 H 0.1373 0.7994 0.4204
C13_2 C 0.07408(11) 0.81007(15) 0.6514(3)
H10_2 H 0.0471 0.8096 0.6870
Zn4_2 Zn 0.214233(12) 0.834727(16) 0.68708(4)
Zn5_2 Zn 0.071443(12) 0.629607(22) 0.98219(4)
O6_2 O 0.14548(10) 0.91451(17) 0.9752(3)
O2_2 O 0.91451(10) 0.76903(14) 0.0248(3)
H5_2 H 0.9727 0.8464 0.0725
Zn3_2 Zn 0.831940(16) 0.712840(20) 0.02041(4)
N7_2 N 0.97654(12) 0.72059(14) 0.4001(3)
O1_2 O 0.86720(8) 0.74632(11) 0.8203(3)
C1_2 C 0.94535(11) 0.80918(16) 0.7780(3)
C2_2 C 0.98696(11) 0.84604(16) 0.8360(4)
C5_2 C 0.96915(16) 0.83571(21) 0.5078(4)
H3_2 H 0.9633 0.8320 0.3990
C6_2 C 0.93658(13) 0.80405(18) 0.6136(4)
H4_2 H 0.9086 0.7791 0.5757
C7_2 C 0.90725(12) 0.77280(17) 0.8823(4)
Zn2_3 Zn 0.224830(18) 0.261890(12) 0.31552(4)
O2_3 O 0.23097(14) 0.14548(10) 0.0248(3)
O3_3 O 0.18711(11) 0.20148(7) 0.2171(2)
N1_3 N 0.25759(12) 0.32080(8) 0.1793(3)
N2_3 N 0.23506(11) 0.33181(8) 0.0638(3)
N3_3 N 0.30987(12) 0.38726(9) 0.0668(3)
C8_3 C 0.14687(17) 0.14712(12) 0.0103(4)
H5_3 H 0.1536 0.1263 0.0725
H6_3 H 0.1142 0.1378 0.0275
C9_3 C 0.17731(15) 0.19679(10) 0.0698(3)
C10_3 C 0.26721(16) 0.37129(11) 0.0011(4)
C11_3 C 0.30156(16) 0.35438(11) 0.1769(3)
H8_3 H 0.3245 0.3553 0.2440
Zn3_3 Zn 0.287160(20) 0.119100(12) 0.02041(4)
O5_3 O 0.13280(14) 0.25368(11) 0.1797(3)
N7_3 N 0.27941(14) 0.25594(8) 0.4001(3)
N8_3 N 0.15030(11) 0.34091(8) 0.0181(3)
N9_3 N 0.20034(11) 0.28038(8) 0.5020(2)
Zn1_3 Zn 0.168060(16) 0.287160(11) 0.97959(4)
O1_3 O 0.25368(11) 0.12088(8) 0.8203(3)
O4_3 O 0.18980(12) 0.23013(8) 0.9762(2)
N4_3 N 0.17894(11) 0.28988(8) 0.7423(3)
N5_3 N 0.18303(11) 0.32576(8) 0.6486(3)
C1_3 C 0.19082(16) 0.13617(11) 0.7780(3)
C2_3 C 0.15396(16) 0.14092(11) 0.8360(4)
C3_3 C 0.12172(18) 0.14058(13) 0.7270(4)
H1_3 H 0.0960 0.1424 0.7637
C4_3 C 0.12761(21) 0.13761(14) 0.5637(5)
H2_3 H 0.1064 0.1385 0.4926
C5_3 C 0.16429(21) 0.13344(14) 0.5078(4)
H3_3 H 0.1680 0.1313 0.3990
C6_3 C 0.19595(18) 0.13253(12) 0.6136(4)
H4_3 H 0.2209 0.1295 0.5757
C7_3 C 0.22720(17) 0.13445(12) 0.8823(4)
H7_3 H 0.2612 0.3867 0.9197
C12_3 C 0.19555(15) 0.31844(10) 0.5075(3)
H9_3 H 0.2006 0.3379 0.4204
C13_3 C 0.18993(15) 0.26401(10) 0.6514(3)
H10_3 H 0.1904 0.2375 0.6870
Zn4_3 Zn 0.165273(16) 0.379507(11) 0.68708(4)
Zn5_3 Zn 0.370393(22) 0.441837(18) 0.98219(4)
O6_3 O 0.08549(17) 0.23097(14) 0.9752(3)
Zn1_4 Zn 0.379507(11) 0.214233(12) 0.31292(4)
Zn2_4 Zn 0.404777(12) 0.296273(13) 0.64885(4)
O1_4 O 0.54579(8) 0.46613(8) 0.1536(3)
O2_4 O 0.52119(10) 0.41882(10) 0.3581(3)
O3_4 O 0.46519(7) 0.31896(8) 0.5504(2)
O4_4 O 0.43654(8) 0.29300(9) 0.3095(2)
N1_4 N 0.34587(8) 0.27012(9) 0.5126(3)
N2_4 N 0.33486(8) 0.23658(8) 0.3971(3)
N4_4 N 0.37679(8) 0.22239(8) 0.0756(3)
C1_4 C 0.53050(11) 0.38798(11) 0.1113(3)
C2_4 C 0.52575(11) 0.34637(11) 0.1693(4)
C3_4 C 0.52609(13) 0.31447(13) 0.0603(4)
H1_4 H 0.5243 0.2869 0.0970
C7_4 C 0.53222(12) 0.42608(12) 0.2156(4)
C8_4 C 0.51955(12) 0.33308(12) 0.3436(4)
H5_4 H 0.5404 0.3606 0.4058
H6_4 H 0.5289 0.3097 0.3608
C9_4 C 0.46988(10) 0.31385(11) 0.4031(3)
C10_4 C 0.29538(11) 0.22925(11) 0.3344(4)
H7_4 H 0.2800 0.2078 0.2530
C11_4 C 0.31229(11) 0.28051(11) 0.5102(3)
H8_4 H 0.3114 0.3025 0.5773
H10_4 H 0.4292 0.2862 0.0203
Zn3_4 Zn 0.547567(12) 0.501393(16) 0.35374(4)
O5_4 O 0.41299(11) 0.21245(8) 0.5130(3)
O6_4 O 0.43570(14) 0.18785(10) 0.3085(3)
N7_4 N 0.41072(8) 0.35680(12) 0.7335(3)
N8_4 N 0.32576(8) 0.14273(8) 0.3514(3)
N9_4 N 0.38629(8) 0.25329(8) 0.8353(2)
N5_4 N 0.34091(8) 0.19060(8) 0.9819(3)
C4_4 C 0.52906(14) 0.32333(16) 0.8970(5)
H2_4 H 0.5282 0.3012 0.8259
C5_4 C 0.53323(14) 0.36418(16) 0.8411(4)
H3_4 H 0.5354 0.3700 0.7323
C6_4 C 0.53414(12) 0.39675(13) 0.9469(4)
H4_4 H 0.5372 0.4247 0.9090
C12_4 C 0.34823(10) 0.21044(11) 0.8408(3)
H9_4 H 0.3288 0.1960 0.7537
C13_4 C 0.40266(10) 0.25925(11) 0.9847(3)
Zn1_5 Zn 0.785767(12) 0.165273(16) 0.31292(4)
Zn2_5 Zn 0.703727(13) 0.108503(18) 0.64885(4)
O1_5 O 0.53387(8) 0.07965(11) 0.1536(3)
O2_5 O 0.58118(10) 0.10236(14) 0.3581(3)
O3_5 O 0.68104(8) 0.14622(11) 0.5504(2)
O4_5 O 0.70700(9) 0.14353(12) 0.3095(2)
N1_5 N 0.72988(9) 0.07574(12) 0.5126(3)
N2_5 N 0.76342(8) 0.09827(11) 0.3971(3)
N4_5 N 0.77761(8) 0.15439(11) 0.0756(3)
C1_5 C 0.61202(11) 0.14251(16) 0.1113(3)
C2_5 C 0.65363(11) 0.17937(16) 0.1693(4)
C3_5 C 0.68553(13) 0.21161(18) 0.0603(4)
H1_5 H 0.7131 0.2373 0.0970
C7_5 C 0.57392(12) 0.10613(17) 0.2156(4)
C8_5 C 0.66692(12) 0.18646(17) 0.3436(4)
H5_5 H 0.6394 0.1797 0.4058
H6_5 H 0.6903 0.2191 0.3608
C9_5 C 0.68615(11) 0.15602(15) 0.4031(3)
C10_5 C 0.77075(11) 0.06612(16) 0.3344(4)
H7_5 H 0.7922 0.0721 0.2530
C11_5 C 0.71949(11) 0.03177(16) 0.5102(3)
H8_5 H 0.6975 0.0088 0.5773
H10_5 H 0.7138 0.1429 0.0203
Zn3_5 Zn 0.498607(16) 0.046173(20) 0.35374(4)
O5_5 O 0.78755(8) 0.20053(14) 0.5130(3)
O6_5 O 0.81215(10) 0.24784(17) 0.3085(3)
N7_5 N 0.64320(12) 0.05393(14) 0.7335(3)
N8_5 N 0.85727(8) 0.18303(11) 0.3514(3)
N9_5 N 0.74671(8) 0.13299(11) 0.8353(2)
N5_5 N 0.80940(8) 0.15030(11) 0.9819(3)
C4_5 C 0.67667(16) 0.20572(21) 0.8970(5)
H2_5 H 0.6988 0.2269 0.8259
C5_5 C 0.63582(16) 0.16904(21) 0.8411(4)
H3_5 H 0.6300 0.1653 0.7323
C6_5 C 0.60325(13) 0.13738(18) 0.9469(4)
H4_5 H 0.5753 0.1124 0.9090
C12_5 C 0.78956(11) 0.13778(15) 0.8408(3)
H9_5 H 0.8040 0.1327 0.7537
C13_5 C 0.74075(11) 0.14340(15) 0.9847(3)
Zn1_6 Zn 0.834727(16) 0.620493(11) 0.31292(4)
Zn2_6 Zn 0.891497(18) 0.595223(12) 0.64885(4)
O1_6 O 0.92035(11) 0.45421(8) 0.1536(3)
O2_6 O 0.89764(14) 0.47881(10) 0.3581(3)
O3_6 O 0.85378(11) 0.53481(7) 0.5504(2)
O4_6 O 0.85647(12) 0.56346(8) 0.3095(2)
N1_6 N 0.92426(12) 0.65413(8) 0.5126(3)
N2_6 N 0.90173(11) 0.66514(8) 0.3971(3)
N4_6 N 0.84561(11) 0.62321(8) 0.0756(3)
C1_6 C 0.85749(16) 0.46950(11) 0.1113(3)
C2_6 C 0.82063(16) 0.47425(11) 0.1693(4)
C3_6 C 0.78839(18) 0.47391(13) 0.0603(4)
H1_6 H 0.7627 0.4757 0.0970
C7_6 C 0.89387(17) 0.46778(12) 0.2156(4)
C8_6 C 0.81354(17) 0.48045(12) 0.3436(4)
H5_6 H 0.8203 0.4596 0.4058
H6_6 H 0.7809 0.4711 0.3608
C9_6 C 0.84398(15) 0.53012(10) 0.4031(3)
C10_6 C 0.93388(16) 0.70462(11) 0.3344(4)
H7_6 H 0.9279 0.7200 0.2530
C11_6 C 0.96823(16) 0.68771(11) 0.5102(3)
H8_6 H 0.9912 0.6886 0.5773
H10_6 H 0.8571 0.5708 0.0203
Zn3_6 Zn 0.953827(20) 0.452433(12) 0.35374(4)
O5_6 O 0.79947(14) 0.58701(11) 0.5130(3)
O6_6 O 0.75216(17) 0.56430(14) 0.3085(3)
N7_6 N 0.94607(14) 0.58928(8) 0.7335(3)
N8_6 N 0.81697(11) 0.67424(8) 0.3514(3)
N9_6 N 0.86701(11) 0.61371(8) 0.8353(2)
N5_6 N 0.84970(11) 0.65909(8) 0.9819(3)
C4_6 C 0.79428(21) 0.47094(14) 0.8970(5)
H2_6 H 0.7731 0.4718 0.8259
C5_6 C 0.83096(21) 0.46677(14) 0.8411(4)
H3_6 H 0.8347 0.4646 0.7323
C6_6 C 0.86262(18) 0.46586(12) 0.9469(4)
H4_6 H 0.8876 0.4628 0.9090
C12_6 C 0.86222(15) 0.65177(10) 0.8408(3)
H9_6 H 0.8673 0.6712 0.7537
C13_6 C 0.85660(15) 0.59734(10) 0.9847(3)
N9_7 N 0.05295(8) 0.58663(8) 0.1687(2)
Zn1_7 Zn 0.046173(11) 0.547567(12) 0.64626(4)
O1_7 O 0.21245(8) 0.79947(8) 0.4870(3)
O2_7 O 0.18785(10) 0.75216(10) 0.6915(3)
O3_7 O 0.13185(7) 0.65230(8) 0.8838(2)
O4_7 O 0.10320(8) 0.62634(9) 0.6429(2)
N1_7 N 0.01253(8) 0.60346(9) 0.8460(3)
N2_7 N 0.00152(8) 0.56992(8) 0.7305(3)
N4_7 N 0.04345(8) 0.55573(8) 0.4090(3)
N5_7 N 0.00757(8) 0.52394(8) 0.3153(3)
C1_7 C 0.19716(11) 0.72132(11) 0.4447(3)
C2_7 C 0.19241(11) 0.67971(11) 0.5027(4)
C3_7 C 0.19275(13) 0.64781(13) 0.3937(4)
H1_7 H 0.1909 0.6203 0.4304
C4_7 C 0.19572(14) 0.65667(16) 0.2304(5)
H2_7 H 0.1948 0.6346 0.1593
C5_7 C 0.19989(14) 0.69752(16) 0.1745(4)
H3_7 H 0.2020 0.7034 0.0657
C6_7 C 0.20080(12) 0.73009(13) 0.2803(4)
H4_7 H 0.2038 0.7581 0.2424
C7_7 C 0.19888(12) 0.75942(12) 0.5490(4)
C8_7 C 0.18621(12) 0.66642(12) 0.6770(4)
H5_7 H 0.2070 0.6940 0.7392
H6_7 H 0.1955 0.6431 0.6942
C9_7 C 0.13654(10) 0.64719(11) 0.7365(3)
C12_7 C 0.01489(10) 0.54378(11) 0.1742(3)
C13_7 C 0.06932(10) 0.59259(11) 0.3181(3)
H10_7 H 0.0958 0.6196 0.3537
O5_7 O 0.07965(11) 0.54579(8) 0.8464(3)
O6_7 O 0.10236(14) 0.52119(10) 0.6419(3)
C10_7 C 0.96204(11) 0.56259(11) 0.6678(4)
H7_7 H 0.9466 0.5412 0.5864
C11_7 C 0.97895(11) 0.61385(11) 0.8436(3)
H8_7 H 0.9780 0.6359 0.9107
H9_7 H 0.9954 0.5294 0.0871
N8_7 N 0.99243(8) 0.47606(8) 0.6847(3)
N9_8 N 0.41337(8) 0.46633(11) 0.1687(2)
Zn1_8 Zn 0.452433(12) 0.498607(16) 0.64626(4)
O1_8 O 0.20053(8) 0.41299(11) 0.4870(3)
O2_8 O 0.24784(10) 0.43570(14) 0.6915(3)
O3_8 O 0.34770(8) 0.47956(11) 0.8838(2)
O4_8 O 0.37366(9) 0.47687(12) 0.6429(2)
N1_8 N 0.39654(9) 0.40908(12) 0.8460(3)
N2_8 N 0.43008(8) 0.43161(11) 0.7305(3)
N4_8 N 0.44427(8) 0.48773(11) 0.4090(3)
N5_8 N 0.47606(8) 0.48364(11) 0.3153(3)
C1_8 C 0.27868(11) 0.47585(16) 0.4447(3)
C2_8 C 0.32029(11) 0.51271(16) 0.5027(4)
C3_8 C 0.35219(13) 0.54495(18) 0.3937(4)
H1_8 H 0.3797 0.5707 0.4304
C4_8 C 0.34333(16) 0.53906(21) 0.2304(5)
H2_8 H 0.3654 0.5603 0.1593
C5_8 C 0.30248(16) 0.50238(21) 0.1745(4)
H3_8 H 0.2966 0.4987 0.0657
C6_8 C 0.26991(13) 0.47072(18) 0.2803(4)
H4_8 H 0.2419 0.4458 0.2424
C7_8 C 0.24058(12) 0.43947(17) 0.5490(4)
C8_8 C 0.33358(12) 0.51980(17) 0.6770(4)
H5_8 H 0.3060 0.5131 0.7392
H6_8 H 0.3569 0.5525 0.6942
C9_8 C 0.35281(11) 0.48936(15) 0.7365(3)
C10_8 C 0.43741(11) 0.39946(16) 0.6678(4)
H7_8 H 0.4588 0.4055 0.5864
C11_8 C 0.38615(11) 0.36511(16) 0.8436(3)
H8_8 H 0.3641 0.3422 0.9107
C12_8 C 0.45622(11) 0.47112(15) 0.1742(3)
H9_8 H 0.4706 0.4661 0.0871
C13_8 C 0.40741(11) 0.47674(15) 0.3181(3)
H10_8 H 0.3804 0.4763 0.3537
O5_8 O 0.45421(8) 0.53387(14) 0.8464(3)
O6_8 O 0.47881(10) 0.58118(17) 0.6419(3)
N8_8 N 0.52394(8) 0.51636(11) 0.6847(3)
C10_9 C 0.60054(16) 0.03796(11) 0.6678(4)
H7_9 H 0.5945 0.0534 0.5864
C11_9 C 0.63489(16) 0.02105(11) 0.8436(3)
H8_9 H 0.6578 0.0220 0.9107
H9_9 H 0.5339 0.0046 0.0871
N8_9 N 0.48364(11) 0.00757(8) 0.6847(3)
N9_9 N 0.53367(11) 0.94705(8) 0.1687(2)
Zn1_9 Zn 0.501393(16) 0.953827(11) 0.64626(4)
O1_9 O 0.58701(11) 0.78755(8) 0.4870(3)
O2_9 O 0.56430(14) 0.81215(10) 0.6915(3)
O3_9 O 0.52044(11) 0.86815(7) 0.8838(2)
O4_9 O 0.52313(12) 0.89680(8) 0.6429(2)
N1_9 N 0.59092(12) 0.98747(8) 0.8460(3)
N2_9 N 0.56839(11) 0.99848(8) 0.7305(3)
N4_9 N 0.51227(11) 0.95655(8) 0.4090(3)
N5_9 N 0.51636(11) 0.99243(8) 0.3153(3)
C1_9 C 0.52415(16) 0.80284(11) 0.4447(3)
C2_9 C 0.48729(16) 0.80759(11) 0.5027(4)
C3_9 C 0.45505(18) 0.80725(13) 0.3937(4)
H1_9 H 0.4293 0.8091 0.4304
C4_9 C 0.46094(21) 0.80428(14) 0.2304(5)
H2_9 H 0.4397 0.8052 0.1593
C5_9 C 0.49762(21) 0.80011(14) 0.1745(4)
H3_9 H 0.5013 0.7980 0.0657
C6_9 C 0.52928(18) 0.79920(12) 0.2803(4)
H4_9 H 0.5542 0.7962 0.2424
C7_9 C 0.56053(17) 0.80112(12) 0.5490(4)
C8_9 C 0.48020(17) 0.81379(12) 0.6770(4)
H5_9 H 0.4869 0.7930 0.7392
H6_9 H 0.4475 0.8045 0.6942
C9_9 C 0.51064(15) 0.86346(10) 0.7365(3)
C12_9 C 0.52888(15) 0.98511(10) 0.1742(3)
C13_9 C 0.52326(15) 0.93068(10) 0.3181(3)
H10_9 H 0.5237 0.9042 0.3537
O5_9 O 0.46613(14) 0.92035(11) 0.8464(3)
O6_9 O 0.41882(17) 0.89764(14) 0.6419(3)
O4_10 O 0.23013(8) 0.04033(9) 0.0238(2)
N4_10 N 0.28988(8) 0.11094(8) 0.2577(3)
N6 N 0.28038(8) 0.08004(8) 0.4980(2)
C3_10 C 0.14058(13) 0.01886(13) 0.2730(4)
H1_10 H 0.1424 0.0464 0.2363
C4_10 C 0.13761(14) 0.01000(16) 0.4363(5)
H2_10 H 0.1385 0.0321 0.5074
H7_10 H 0.3867 0.1255 0.0803
C12_10 C 0.31844(10) 0.12289(11) 0.4925(3)
H9_10 H 0.3379 0.1373 0.5796
C13_10 C 0.26401(10) 0.07408(11) 0.3486(3)
H10_10 H 0.2375 0.0471 0.3130
Zn5_4 Zn 0.441837(18) 0.071443(12) 0.01781(4)
Zn6 Zn 0.261890(12) 0.037060(13) 0.68448(4)
O3_10 O 0.20148(7) 0.01437(8) 0.7829(2)
N1_10 N 0.32080(8) 0.06321(9) 0.8207(3)
N2_10 N 0.33181(8) 0.09675(8) 0.9362(3)
N3_4 N 0.38726(9) 0.07739(8) 0.9332(3)
C8_10 C 0.14712(12) 0.00025(12) 0.9897(4)
H6_10 H 0.1378 0.0236 0.9725
C9_10 C 0.19679(10) 0.01948(11) 0.9302(3)
C10_10 C 0.37129(11) 0.10408(11) 0.9989(4)
C11_10 C 0.35438(11) 0.05282(11) 0.8231(3)
H8_10 H 0.3553 0.0308 0.7560
C1_10 C 0.13617(11) 0.94535(11) 0.2220(3)
C2_10 C 0.14092(11) 0.98696(11) 0.1640(4)
C5_10 C 0.13344(14) 0.96915(16) 0.4922(4)
H3_10 H 0.1313 0.9633 0.6010
C6_10 C 0.13253(12) 0.93658(13) 0.3864(4)
H4_10 H 0.1295 0.9086 0.4243
C7_10 C 0.13445(12) 0.90725(12) 0.1177(4)
H5_10 H 0.1263 0.9727 0.9275
N7_7 N 0.25594(8) 0.97654(12) 0.5999(3)
C1_11 C 0.05465(11) 0.19082(16) 0.2220(3)
C2_11 C 0.01304(11) 0.15396(16) 0.1640(4)
C5_11 C 0.03085(16) 0.16429(21) 0.4922(4)
H3_11 H 0.0367 0.1680 0.6010
C6_11 C 0.06342(13) 0.19595(18) 0.3864(4)
H4_11 H 0.0914 0.2209 0.4243
C7_11 C 0.09275(12) 0.22720(17) 0.1177(4)
H5_11 H 0.0273 0.1536 0.9275
N7_8 N 0.02346(12) 0.27941(14) 0.5999(3)
O4_11 O 0.95967(9) 0.18980(12) 0.0238(2)
N4_11 N 0.88906(8) 0.17894(11) 0.2577(3)
N6_2 N 0.91996(8) 0.20034(11) 0.4980(2)
C3_11 C 0.98114(13) 0.12172(18) 0.2730(4)
H1_11 H 0.9536 0.0960 0.2363
C4_11 C 0.99000(16) 0.12761(21) 0.4363(5)
H2_11 H 0.9679 0.1064 0.5074
H7_11 H 0.8745 0.2612 0.0803
C12_11 C 0.87711(11) 0.19555(15) 0.4925(3)
H9_11 H 0.8627 0.2006 0.5796
C13_11 C 0.92592(11) 0.18993(15) 0.3486(3)
H10_11 H 0.9529 0.1904 0.3130
Zn5_5 Zn 0.928557(12) 0.370393(22) 0.01781(4)
Zn6_2 Zn 0.962940(13) 0.224830(18) 0.68448(4)
O3_11 O 0.98563(8) 0.18711(11) 0.7829(2)
N1_11 N 0.93679(9) 0.25759(12) 0.8207(3)
N2_11 N 0.90325(8) 0.23506(11) 0.9362(3)
N3_5 N 0.92261(8) 0.30987(12) 0.9332(3)
C8_11 C 0.99975(12) 0.14687(17) 0.9897(4)
H6_11 H 0.9764 0.1142 0.9725
C9_11 C 0.98052(11) 0.17731(15) 0.9302(3)
C10_11 C 0.89592(11) 0.26721(16) 0.9989(4)
C11_11 C 0.94718(11) 0.30156(16) 0.8231(3)
H8_11 H 0.9692 0.3245 0.7560
O4_12 O 0.81020(12) 0.76987(8) 0.0238(2)
N4_12 N 0.82106(11) 0.71012(8) 0.2577(3)
N6_3 N 0.79966(11) 0.71962(8) 0.4980(2)
C1_12 C 0.80918(16) 0.86383(11) 0.2220(3)
C2_12 C 0.84604(16) 0.85908(11) 0.1640(4)
C3_12 C 0.87828(18) 0.85942(13) 0.2730(4)
H1_12 H 0.9040 0.8576 0.2363
C4_12 C 0.87239(21) 0.86239(14) 0.4363(5)
H2_12 H 0.8936 0.8615 0.5074
C5_12 C 0.83571(21) 0.86656(14) 0.4922(4)
H3_12 H 0.8320 0.8687 0.6010
C6_12 C 0.80405(18) 0.86747(12) 0.3864(4)
H4_12 H 0.7791 0.8705 0.4243
C7_12 C 0.77280(17) 0.86555(12) 0.1177(4)
H7_12 H 0.7388 0.6133 0.0803
C12_12 C 0.80445(15) 0.68156(10) 0.4925(3)
H9_12 H 0.7994 0.6621 0.5796
C13_12 C 0.81007(15) 0.73599(10) 0.3486(3)
H10_12 H 0.8096 0.7625 0.3130
Zn5_6 Zn 0.629607(22) 0.558163(18) 0.01781(4)
Zn6_3 Zn 0.775170(18) 0.738110(12) 0.68448(4)
O3_12 O 0.81289(11) 0.79852(7) 0.7829(2)
N1_12 N 0.74241(12) 0.67920(8) 0.8207(3)
N2_12 N 0.76494(11) 0.66819(8) 0.9362(3)
N3_6 N 0.69013(12) 0.61274(9) 0.9332(3)
C8_12 C 0.85313(17) 0.85288(12) 0.9897(4)
H5_12 H 0.8464 0.8737 0.9275
H6_12 H 0.8858 0.8622 0.9725
C9_12 C 0.82269(15) 0.80321(10) 0.9302(3)
C10_12 C 0.73279(16) 0.62871(11) 0.9989(4)
C11_12 C 0.69844(16) 0.64562(11) 0.8231(3)
H8_12 H 0.6755 0.6447 0.7560
N7_9 N 0.72059(14) 0.74406(8) 0.5999(3)
N6_4 N 0.61371(8) 0.74671(8) 0.1647(2)
C4_13 C 0.47094(14) 0.67667(16) 0.1030(5)
H2_13 H 0.4718 0.6988 0.1741
C5_13 C 0.46677(14) 0.63582(16) 0.1589(4)
H3_13 H 0.4646 0.6300 0.2677
C6_13 C 0.46586(12) 0.60325(13) 0.0531(4)
H4_13 H 0.4628 0.5753 0.0910
C12_13 C 0.65177(10) 0.78956(11) 0.1592(3)
H9_13 H 0.6712 0.8040 0.2463
C13_13 C 0.59734(10) 0.74075(11) 0.0153(3)
Zn6_4 Zn 0.595223(12) 0.703727(13) 0.35115(4)
O3_13 O 0.53481(7) 0.68104(8) 0.4496(2)
O4_13 O 0.56346(8) 0.70700(9) 0.6905(2)
N1_13 N 0.65413(8) 0.72988(9) 0.4874(3)
N2_13 N 0.66514(8) 0.76342(8) 0.6029(3)
N4_13 N 0.62321(8) 0.77761(8) 0.9244(3)
C1_13 C 0.46950(11) 0.61202(11) 0.8887(3)
C2_13 C 0.47425(11) 0.65363(11) 0.8307(4)
C3_13 C 0.47391(13) 0.68553(13) 0.9397(4)
H1_13 H 0.4757 0.7131 0.9030
C7_13 C 0.46778(12) 0.57392(12) 0.7844(4)
C8_13 C 0.48045(12) 0.66692(12) 0.6564(4)
H5_13 H 0.4596 0.6394 0.5942
H6_13 H 0.4711 0.6903 0.6392
C9_13 C 0.53012(10) 0.68615(11) 0.5969(3)
C10_13 C 0.70462(11) 0.77075(11) 0.6656(4)
H7_13 H 0.7200 0.7922 0.7470
C11_13 C 0.68771(11) 0.71949(11) 0.4898(3)
H8_13 H 0.6886 0.6975 0.4227
H10_13 H 0.5708 0.7138 0.9797
N7_10 N 0.58928(8) 0.64320(12) 0.2665(3)
N6_5 N 0.25329(8) 0.86701(11) 0.1647(2)
C4_14 C 0.32333(16) 0.79428(21) 0.1030(5)
H2_14 H 0.3012 0.7731 0.1741
C5_14 C 0.36418(16) 0.83096(21) 0.1589(4)
H3_14 H 0.3700 0.8347 0.2677
C6_14 C 0.39675(13) 0.86262(18) 0.0531(4)
H4_14 H 0.4247 0.8876 0.0910
C12_14 C 0.21044(11) 0.86222(15) 0.1592(3)
H9_14 H 0.1960 0.8673 0.2463
C13_14 C 0.25925(11) 0.85660(15) 0.0153(3)
Zn6_5 Zn 0.296273(13) 0.891497(18) 0.35115(4)
O3_14 O 0.31896(8) 0.85378(11) 0.4496(2)
O4_14 O 0.29300(9) 0.85647(12) 0.6905(2)
N1_14 N 0.27012(9) 0.92426(12) 0.4874(3)
N2_14 N 0.23658(8) 0.90173(11) 0.6029(3)
N4_14 N 0.22239(8) 0.84561(11) 0.9244(3)
C1_14 C 0.38798(11) 0.85749(16) 0.8887(3)
C2_14 C 0.34637(11) 0.82063(16) 0.8307(4)
C3_14 C 0.31447(13) 0.78839(18) 0.9397(4)
H1_14 H 0.2869 0.7627 0.9030
C7_14 C 0.42608(12) 0.89387(17) 0.7844(4)
C8_14 C 0.33308(12) 0.81354(17) 0.6564(4)
H5_14 H 0.3606 0.8203 0.5942
H6_14 H 0.3097 0.7809 0.6392
C9_14 C 0.31385(11) 0.84398(15) 0.5969(3)
C10_14 C 0.22925(11) 0.93388(16) 0.6656(4)
H7_14 H 0.2078 0.9279 0.7470
C11_14 C 0.28051(11) 0.96823(16) 0.4898(3)
H8_14 H 0.3025 0.9912 0.4227
H10_14 H 0.2862 0.8571 0.9797
N7_11 N 0.35680(12) 0.94607(14) 0.2665(3)
N6_6 N 0.13299(11) 0.38629(8) 0.1647(2)
C4_15 C 0.20572(21) 0.52906(14) 0.1030(5)
H2_15 H 0.2269 0.5282 0.1741
C5_15 C 0.16904(21) 0.53323(14) 0.1589(4)
H3_15 H 0.1653 0.5354 0.2677
C6_15 C 0.13738(18) 0.53414(12) 0.0531(4)
H4_15 H 0.1124 0.5372 0.0910
C12_15 C 0.13778(15) 0.34823(10) 0.1592(3)
H9_15 H 0.1327 0.3288 0.2463
C13_15 C 0.14340(15) 0.40266(10) 0.0153(3)
Zn6_6 Zn 0.108503(18) 0.404777(12) 0.35115(4)
O3_15 O 0.14622(11) 0.46519(7) 0.4496(2)
O4_15 O 0.14353(12) 0.43654(8) 0.6905(2)
N1_15 N 0.07574(12) 0.34587(8) 0.4874(3)
N2_15 N 0.09827(11) 0.33486(8) 0.6029(3)
N4_15 N 0.15439(11) 0.37679(8) 0.9244(3)
C1_15 C 0.14251(16) 0.53050(11) 0.8887(3)
C2_15 C 0.17937(16) 0.52575(11) 0.8307(4)
C3_15 C 0.21161(18) 0.52609(13) 0.9397(4)
H1_15 H 0.2373 0.5243 0.9030
C7_15 C 0.10613(17) 0.53222(12) 0.7844(4)
C8_15 C 0.18646(17) 0.51955(12) 0.6564(4)
H5_15 H 0.1797 0.5404 0.5942
H6_15 H 0.2191 0.5289 0.6392
C9_15 C 0.15602(15) 0.46988(10) 0.5969(3)
C10_15 C 0.06612(16) 0.29538(11) 0.6656(4)
H7_15 H 0.0721 0.2800 0.7470
C11_15 C 0.03177(16) 0.31229(11) 0.4898(3)
H8_15 H 0.0088 0.3114 0.4227
H10_15 H 0.1429 0.4292 0.9797
N7_12 N 0.05393(14) 0.41072(8) 0.2665(3)
C10_16 C 0.03796(11) 0.43741(11) 0.3322(4)
H7_16 H 0.0534 0.4588 0.4136
C11_16 C 0.02105(11) 0.38615(11) 0.1564(3)
H8_16 H 0.0220 0.3641 0.0893
H9_16 H 0.0046 0.4706 0.9129
O3_16 O 0.86815(7) 0.34770(8) 0.1162(2)
O4_16 O 0.89680(8) 0.37366(9) 0.3571(2)
N1_16 N 0.98747(8) 0.39654(9) 0.1540(3)
N2_16 N 0.99848(8) 0.43008(8) 0.2695(3)
N4_16 N 0.95655(8) 0.44427(8) 0.5910(3)
N6_7 N 0.94705(8) 0.41337(8) 0.8313(2)
C1_16 C 0.80284(11) 0.27868(11) 0.5553(3)
C2_16 C 0.80759(11) 0.32029(11) 0.4973(4)
C3_16 C 0.80725(13) 0.35219(13) 0.6063(4)
H1_16 H 0.8091 0.3797 0.5696
C4_16 C 0.80428(14) 0.34333(16) 0.7696(5)
H2_16 H 0.8052 0.3654 0.8407
C5_16 C 0.80011(14) 0.30248(16) 0.8255(4)
H3_16 H 0.7980 0.2966 0.9343
C6_16 C 0.79920(12) 0.26991(13) 0.7197(4)
H4_16 H 0.7962 0.2419 0.7576
C7_16 C 0.80112(12) 0.24058(12) 0.4510(4)
C8_16 C 0.81379(12) 0.33358(12) 0.3230(4)
H5_16 H 0.7930 0.3060 0.2608
H6_16 H 0.8045 0.3569 0.3058
C9_16 C 0.86346(10) 0.35281(11) 0.2635(3)
C12_16 C 0.98511(10) 0.45622(11) 0.8258(3)
C13_16 C 0.93068(10) 0.40741(11) 0.6819(3)
H10_16 H 0.9042 0.3804 0.6463
O3_17 O 0.65230(8) 0.52044(11) 0.1162(2)
O4_17 O 0.62634(9) 0.52313(12) 0.3571(2)
N1_17 N 0.60346(9) 0.59092(12) 0.1540(3)
N2_17 N 0.56992(8) 0.56839(11) 0.2695(3)
N4_17 N 0.55573(8) 0.51227(11) 0.5910(3)
N6_8 N 0.58663(8) 0.53367(11) 0.8313(2)
C1_17 C 0.72132(11) 0.52415(16) 0.5553(3)
C2_17 C 0.67971(11) 0.48729(16) 0.4973(4)
C3_17 C 0.64781(13) 0.45505(18) 0.6063(4)
H1_17 H 0.6203 0.4293 0.5696
C4_17 C 0.65667(16) 0.46094(21) 0.7696(5)
H2_17 H 0.6346 0.4397 0.8407
C5_17 C 0.69752(16) 0.49762(21) 0.8255(4)
H3_17 H 0.7034 0.5013 0.9343
C6_17 C 0.73009(13) 0.52928(18) 0.7197(4)
H4_17 H 0.7581 0.5542 0.7576
C7_17 C 0.75942(12) 0.56053(17) 0.4510(4)
C8_17 C 0.66642(12) 0.48020(17) 0.3230(4)
H5_17 H 0.6940 0.4869 0.2608
H6_17 H 0.6431 0.4475 0.3058
C9_17 C 0.64719(11) 0.51064(15) 0.2635(3)
C10_17 C 0.56259(11) 0.60054(16) 0.3322(4)
H7_17 H 0.5412 0.5945 0.4136
C11_17 C 0.61385(11) 0.63489(16) 0.1564(3)
H8_17 H 0.6359 0.6578 0.0893
C12_17 C 0.54378(11) 0.52888(15) 0.8258(3)
H9_17 H 0.5294 0.5339 0.9129
C13_17 C 0.59259(11) 0.52326(15) 0.6819(3)
H10_17 H 0.6196 0.5237 0.6463
O3_18 O 0.47956(11) 0.13185(7) 0.1162(2)
O4_18 O 0.47687(12) 0.10320(8) 0.3571(2)
N1_18 N 0.40908(12) 0.01253(8) 0.1540(3)
N2_18 N 0.43161(11) 0.00152(8) 0.2695(3)
N4_18 N 0.48773(11) 0.04345(8) 0.5910(3)
N6_9 N 0.46633(11) 0.05295(8) 0.8313(2)
C1_18 C 0.47585(16) 0.19716(11) 0.5553(3)
C2_18 C 0.51271(16) 0.19241(11) 0.4973(4)
C3_18 C 0.54495(18) 0.19275(13) 0.6063(4)
H1_18 H 0.5707 0.1909 0.5696
C4_18 C 0.53906(21) 0.19572(14) 0.7696(5)
H2_18 H 0.5603 0.1948 0.8407
C5_18 C 0.50238(21) 0.19989(14) 0.8255(4)
H3_18 H 0.4987 0.2020 0.9343
C6_18 C 0.47072(18) 0.20080(12) 0.7197(4)
H4_18 H 0.4458 0.2038 0.7576
C7_18 C 0.43947(17) 0.19888(12) 0.4510(4)
C8_18 C 0.51980(17) 0.18621(12) 0.3230(4)
H5_18 H 0.5131 0.2070 0.2608
H6_18 H 0.5525 0.1955 0.3058
C9_18 C 0.48936(15) 0.13654(10) 0.2635(3)
C12_18 C 0.47112(15) 0.01489(10) 0.8258(3)
C13_18 C 0.47674(15) 0.06932(10) 0.6819(3)
H10_18 H 0.4763 0.0958 0.6463
C10_18 C 0.39946(16) 0.96204(11) 0.3322(4)
H7_18 H 0.4055 0.9466 0.4136
C11_18 C 0.36511(16) 0.97895(11) 0.1564(3)
H8_18 H 0.3422 0.9780 0.0893
H9_18 H 0.4661 0.9954 0.9129
loop_
_geom_bond_atom_site_label_1
_geom_bond_atom_site_label_2
_geom_bond_site_symmetry_1
_geom_bond_site_symmetry_2
O2 Zn3 1_555 1_555
O1 C7 1_555 1_555
C1 C2 1_555 1_555
H3 C5 1_555 1_555
C6 C1 1_555 1_555
H4 C6 1_555 1_555
C7 C1 1_555 1_555
C5 C6 1_555 1_555
Zn2 O3 1_555 1_555
O3 C9 1_555 1_555
N1 Zn2 1_555 1_555
N3 C10 1_555 1_555
H6 C8 1_555 1_555
C9 C8 1_555 1_555
C10 N2 1_555 1_555
C11 N1 1_555 1_555
H8 C11 1_555 1_555
N9 Zn2 1_555 1_555
N1 N2 1_555 1_555
N3 C11 1_555 1_555
Zn1 O4 1_555 1_555
N4 Zn1 1_555 1_555
N5 N4 1_555 1_555
N9 C12 1_555 1_555
C3 H1 1_555 1_555
C4 C3 1_555 1_555
H2 C4 1_555 1_555
C12 N5 1_555 1_555
H9 C12 1_555 1_555
C13 N4 1_555 1_555
H10 C13 1_555 1_555
Zn4 N5 1_555 1_555
O6 Zn1 1_555 1_555
N9 C13 1_555 1_555
Zn2_2 O3_2 1_555 1_555
O3_2 C9_2 1_555 1_555
N1_2 Zn2_2 1_555 1_555
N3_2 C10_2 1_555 1_555
H6_2 C8_2 1_555 1_555
C9_2 C8_2 1_555 1_555
C10_2 N2_2 1_555 1_555
C11_2 N1_2 1_555 1_555
H8_2 C11_2 1_555 1_555
N9_2 Zn2_2 1_555 1_555
N1_2 N2_2 1_555 1_555
N3_2 C11_2 1_555 1_555
Zn1_2 O4_2 1_555 1_555
N4_2 Zn1_2 1_555 1_555
N5_2 N4_2 1_555 1_555
N9_2 C12_2 1_555 1_555
C3_2 H1_2 1_555 1_555
C4_2 C3_2 1_555 1_555
H2_2 C4_2 1_555 1_555
C12_2 N5_2 1_555 1_555
H9_2 C12_2 1_555 1_555
C13_2 N4_2 1_555 1_555
H10_2 C13_2 1_555 1_555
Zn4_2 N5_2 1_555 1_555
O6_2 Zn1_2 1_555 1_555
N9_2 C13_2 1_555 1_555
O2_2 Zn3_2 1_555 1_555
O1_2 C7_2 1_555 1_555
C1_2 C2_2 1_555 1_555
H3_2 C5_2 1_555 1_555
C6_2 C1_2 1_555 1_555
H4_2 C6_2 1_555 1_555
C7_2 C1_2 1_555 1_555
C5_2 C6_2 1_555 1_555
Zn2_3 O3_3 1_555 1_555
O3_3 C9_3 1_555 1_555
N1_3 Zn2_3 1_555 1_555
N3_3 C10_3 1_555 1_555
H5_3 C8_3 1_555 1_555
H6_3 C8_3 1_555 1_555
C9_3 C8_3 1_555 1_555
C10_3 N2_3 1_555 1_555
C11_3 N1_3 1_555 1_555
H8_3 C11_3 1_555 1_555
N7_3 Zn2_3 1_555 1_555
N9_3 Zn2_3 1_555 1_555
O2_3 Zn3_3 1_555 1_555
N1_3 N2_3 1_555 1_555
N3_3 C11_3 1_555 1_555
Zn1_3 O4_3 1_555 1_555
O1_3 C7_3 1_555 1_555
N4_3 Zn1_3 1_555 1_555
N5_3 N4_3 1_555 1_555
N9_3 C12_3 1_555 1_555
C1_3 C2_3 1_555 1_555
C2_3 C3_3 1_555 1_555
C3_3 H1_3 1_555 1_555
C4_3 C3_3 1_555 1_555
H2_3 C4_3 1_555 1_555
C5_3 C4_3 1_555 1_555
H3_3 C5_3 1_555 1_555
C6_3 C1_3 1_555 1_555
H4_3 C6_3 1_555 1_555
C7_3 C1_3 1_555 1_555
C12_3 N5_3 1_555 1_555
H9_3 C12_3 1_555 1_555
C13_3 N4_3 1_555 1_555
H10_3 C13_3 1_555 1_555
Zn4_3 N5_3 1_555 1_555
O6_3 Zn1_3 1_555 1_555
N9_3 C13_3 1_555 1_555
C5_3 C6_3 1_555 1_555
Zn1_4 O4_4 1_555 1_555
Zn2_4 O3_4 1_555 1_555
O1_4 C7_4 1_555 1_555
O2_4 C7_4 1_555 1_555
O3_4 C9_4 1_555 1_555
O4_4 C9_4 1_555 1_555
N1_4 Zn2_4 1_555 1_555
N2_4 Zn1_4 1_555 1_555
N7_3 C10_4 1_555 1_555
N4_4 Zn1_4 1_555 1_555
C1_4 C2_4 1_555 1_555
C2_4 C3_4 1_555 1_555
C3_4 H1_4 1_555 1_555
C7_4 C1_4 1_555 1_555
C8_4 C2_4 1_555 1_555
H5_4 C8_4 1_555 1_555
H6_4 C8_4 1_555 1_555
C9_4 C8_4 1_555 1_555
C10_4 N2_4 1_555 1_555
H7_4 C10_4 1_555 1_555
C11_4 N1_4 1_555 1_555
H8_4 C11_4 1_555 1_555
Zn3_4 O1_4 1_555 1_555
O5_4 Zn1_4 1_555 1_555
O6_4 Zn1_4 1_555 1_555
N7_4 Zn2_4 1_555 1_555
N8_4 Zn1_4 1_555 1_555
N9_4 Zn2_4 1_555 1_555
O2_4 Zn3_4 1_555 1_555
N1_4 N2_4 1_555 1_555
N7_3 C11_4 1_555 1_555
N9_4 C12_4 1_555 1_555
H2_4 C4_4 1_555 1_555
C5_4 C4_4 1_555 1_555
H3_4 C5_4 1_555 1_555
H4_4 C6_4 1_555 1_555
C12_4 N5_4 1_555 1_555
H9_4 C12_4 1_555 1_555
N9_4 C13_4 1_555 1_555
C5_4 C6_4 1_555 1_555
Zn1_5 O4_5 1_555 1_555
Zn2_5 O3_5 1_555 1_555
O1_5 C7_5 1_555 1_555
O2_5 C7_5 1_555 1_555
O3_5 C9_5 1_555 1_555
O4_5 C9_5 1_555 1_555
N1_5 Zn2_5 1_555 1_555
N2_5 Zn1_5 1_555 1_555
N7 C10_5 1_555 1_555
N4_5 Zn1_5 1_555 1_555
C1_5 C2_5 1_555 1_555
C2_5 C3_5 1_555 1_555
C3_5 H1_5 1_555 1_555
C7_5 C1_5 1_555 1_555
C8_5 C2_5 1_555 1_555
H5_5 C8_5 1_555 1_555
H6_5 C8_5 1_555 1_555
C9_5 C8_5 1_555 1_555
C10_5 N2_5 1_555 1_555
H7_5 C10_5 1_555 1_555
C11_5 N1_5 1_555 1_555
H8_5 C11_5 1_555 1_555
Zn3_5 O1_5 1_555 1_555
O5_5 Zn1_5 1_555 1_555
O6_5 Zn1_5 1_555 1_555
N7_5 Zn2_5 1_555 1_555
N8_5 Zn1_5 1_555 1_555
N9_5 Zn2_5 1_555 1_555
O2_5 Zn3_5 1_555 1_555
N1_5 N2_5 1_555 1_555
N7 C11_5 1_555 1_555
N9_5 C12_5 1_555 1_555
H2_5 C4_5 1_555 1_555
C5_5 C4_5 1_555 1_555
H3_5 C5_5 1_555 1_555
H4_5 C6_5 1_555 1_555
C12_5 N5_5 1_555 1_555
H9_5 C12_5 1_555 1_555
N9_5 C13_5 1_555 1_555
C5_5 C6_5 1_555 1_555
Zn1_6 O4_6 1_555 1_555
Zn2_6 O3_6 1_555 1_555
O1_6 C7_6 1_555 1_555
O2_6 C7_6 1_555 1_555
O3_6 C9_6 1_555 1_555
O4_6 C9_6 1_555 1_555
N1_6 Zn2_6 1_555 1_555
N2_6 Zn1_6 1_555 1_555
N7_2 C10_6 1_555 1_555
N4_6 Zn1_6 1_555 1_555
C1_6 C2_6 1_555 1_555
C2_6 C3_6 1_555 1_555
C3_6 H1_6 1_555 1_555
C7_6 C1_6 1_555 1_555
C8_6 C2_6 1_555 1_555
H5_6 C8_6 1_555 1_555
H6_6 C8_6 1_555 1_555
C9_6 C8_6 1_555 1_555
C10_6 N2_6 1_555 1_555
H7_6 C10_6 1_555 1_555
C11_6 N1_6 1_555 1_555
H8_6 C11_6 1_555 1_555
Zn3_6 O1_6 1_555 1_555
O5_6 Zn1_6 1_555 1_555
O6_6 Zn1_6 1_555 1_555
N7_6 Zn2_6 1_555 1_555
N8_6 Zn1_6 1_555 1_555
N9_6 Zn2_6 1_555 1_555
O2_6 Zn3_6 1_555 1_555
N1_6 N2_6 1_555 1_555
N7_2 C11_6 1_555 1_555
N9_6 C12_6 1_555 1_555
H2_6 C4_6 1_555 1_555
C5_6 C4_6 1_555 1_555
H3_6 C5_6 1_555 1_555
H4_6 C6_6 1_555 1_555
C12_6 N5_6 1_555 1_555
H9_6 C12_6 1_555 1_555
N9_6 C13_6 1_555 1_555
C5_6 C6_6 1_555 1_555
Zn1_7 O4_7 1_555 1_555
Zn5_2 O3_7 1_555 1_555
O1_7 C7_7 1_555 1_555
O2_7 C7_7 1_555 1_555
O3_7 C9_7 1_555 1_555
O4_7 C9_7 1_555 1_555
N1_7 Zn5_2 1_555 1_555
N2_7 Zn1_7 1_555 1_555
N4_7 Zn1_7 1_555 1_555
N5_7 N4_7 1_555 1_555
N9_7 C12_7 1_555 1_555
C1_7 C2_7 1_555 1_555
C2_7 C3_7 1_555 1_555
C3_7 H1_7 1_555 1_555
C4_7 C3_7 1_555 1_555
H2_7 C4_7 1_555 1_555
C5_7 C4_7 1_555 1_555
H3_7 C5_7 1_555 1_555
C6_7 C1_7 1_555 1_555
H4_7 C6_7 1_555 1_555
C7_7 C1_7 1_555 1_555
C8_7 C2_7 1_555 1_555
H5_7 C8_7 1_555 1_555
H6_7 C8_7 1_555 1_555
C9_7 C8_7 1_555 1_555
C12_7 N5_7 1_555 1_555
C13_7 N4_7 1_555 1_555
H10_7 C13_7 1_555 1_555
Zn4_2 O1_7 1_555 1_555
O5_7 Zn1_7 1_555 1_555
O6_7 Zn1_7 1_555 1_555
O2_7 Zn4_2 1_555 1_555
N1_7 N2_7 1_555 1_555
N9_7 C13_7 1_555 1_555
C5_7 C6_7 1_555 1_555
N7_6 C10_7 1_555 1_555
H7_7 C10_7 1_555 1_555
H8_7 C11_7 1_555 1_555
N7_6 C11_7 1_555 1_555
Zn1_8 O4_8 1_555 1_555
Zn5_3 O3_8 1_555 1_555
O1_8 C7_8 1_555 1_555
O2_8 C7_8 1_555 1_555
O3_8 C9_8 1_555 1_555
O4_8 C9_8 1_555 1_555
N1_8 Zn5_3 1_555 1_555
N2_8 Zn1_8 1_555 1_555
N7_4 C10_8 1_555 1_555
N4_8 Zn1_8 1_555 1_555
N5_8 N4_8 1_555 1_555
N9_8 C12_8 1_555 1_555
C1_8 C2_8 1_555 1_555
C2_8 C3_8 1_555 1_555
C3_8 H1_8 1_555 1_555
C4_8 C3_8 1_555 1_555
H2_8 C4_8 1_555 1_555
C5_8 C4_8 1_555 1_555
H3_8 C5_8 1_555 1_555
C6_8 C1_8 1_555 1_555
H4_8 C6_8 1_555 1_555
C7_8 C1_8 1_555 1_555
C8_8 C2_8 1_555 1_555
H5_8 C8_8 1_555 1_555
H6_8 C8_8 1_555 1_555
C9_8 C8_8 1_555 1_555
C10_8 N2_8 1_555 1_555
H7_8 C10_8 1_555 1_555
C11_8 N1_8 1_555 1_555
H8_8 C11_8 1_555 1_555
C12_8 N5_8 1_555 1_555
H9_8 C12_8 1_555 1_555
C13_8 N4_8 1_555 1_555
H10_8 C13_8 1_555 1_555
Zn4_3 O1_8 1_555 1_555
Zn3_4 N5_8 1_555 1_555
O5_8 Zn1_8 1_555 1_555
O6_8 Zn1_8 1_555 1_555
N8_8 Zn1_8 1_555 1_555
O2_8 Zn4_3 1_555 1_555
N1_8 N2_8 1_555 1_555
N7_4 C11_8 1_555 1_555
N9_8 C13_8 1_555 1_555
C5_8 C6_8 1_555 1_555
N7_5 C10_9 1_555 1_555
H7_9 C10_9 1_555 1_555
H8_9 C11_9 1_555 1_555
N7_5 C11_9 1_555 1_555
Zn1_9 O4_9 1_555 1_555
Zn5 O3_9 1_555 1_555
O1_9 C7_9 1_555 1_555
O2_9 C7_9 1_555 1_555
O3_9 C9_9 1_555 1_555
O4_9 C9_9 1_555 1_555
N1_9 Zn5 1_555 1_555
N2_9 Zn1_9 1_555 1_555
N4_9 Zn1_9 1_555 1_555
N5_9 N4_9 1_555 1_555
N9_9 C12_9 1_555 1_555
C1_9 C2_9 1_555 1_555
C2_9 C3_9 1_555 1_555
C3_9 H1_9 1_555 1_555
C4_9 C3_9 1_555 1_555
H2_9 C4_9 1_555 1_555
C5_9 C4_9 1_555 1_555
H3_9 C5_9 1_555 1_555
C6_9 C1_9 1_555 1_555
H4_9 C6_9 1_555 1_555
C7_9 C1_9 1_555 1_555
C8_9 C2_9 1_555 1_555
H5_9 C8_9 1_555 1_555
H6_9 C8_9 1_555 1_555
C9_9 C8_9 1_555 1_555
C12_9 N5_9 1_555 1_555
C13_9 N4_9 1_555 1_555
H10_9 C13_9 1_555 1_555
Zn4 O1_9 1_555 1_555
O5_9 Zn1_9 1_555 1_555
O6_9 Zn1_9 1_555 1_555
O2_9 Zn4 1_555 1_555
N1_9 N2_9 1_555 1_555
N9_9 C13_9 1_555 1_555
C5_9 C6_9 1_555 1_555
Zn3_3 O4_10 1_555 1_555
N4_10 Zn3_3 1_555 1_555
N8_4 N4_10 1_555 1_555
N6 C12_10 1_555 1_555
C3_10 H1_10 1_555 1_555
C4_10 C3_10 1_555 1_555
H2_10 C4_10 1_555 1_555
C12_10 N8_4 1_555 1_555
H9_10 C12_10 1_555 1_555
C13_10 N4_10 1_555 1_555
H10_10 C13_10 1_555 1_555
Zn6 N6 1_555 1_555
N6 C13_10 1_555 1_555
Zn6 O3_10 1_555 1_555
O3_10 C9_10 1_555 1_555
N1_10 Zn6 1_555 1_555
N3_4 C10_10 1_555 1_555
H6_10 C8_10 1_555 1_555
C9_10 C8_10 1_555 1_555
C10_10 N2_10 1_555 1_555
C11_10 N1_10 1_555 1_555
H8_10 C11_10 1_555 1_555
N1_10 N2_10 1_555 1_555
N3_4 C11_10 1_555 1_555
O5_2 C7_10 1_555 1_555
C1_10 C2_10 1_555 1_555
H3_10 C5_10 1_555 1_555
C6_10 C1_10 1_555 1_555
H4_10 C6_10 1_555 1_555
C7_10 C1_10 1_555 1_555
C5_10 C6_10 1_555 1_555
O5_3 C7_11 1_555 1_555
C1_11 C2_11 1_555 1_555
H3_11 C5_11 1_555 1_555
C6_11 C1_11 1_555 1_555
H4_11 C6_11 1_555 1_555
C7_11 C1_11 1_555 1_555
C5_11 C6_11 1_555 1_555
Zn3 O4_11 1_555 1_555
N4_11 Zn3 1_555 1_555
N8_5 N4_11 1_555 1_555
N6_2 C12_11 1_555 1_555
C3_11 H1_11 1_555 1_555
C4_11 C3_11 1_555 1_555
H2_11 C4_11 1_555 1_555
C12_11 N8_5 1_555 1_555
H9_11 C12_11 1_555 1_555
C13_11 N4_11 1_555 1_555
H10_11 C13_11 1_555 1_555
Zn6_2 N6_2 1_555 1_555
N6_2 C13_11 1_555 1_555
Zn6_2 O3_11 1_555 1_555
O3_11 C9_11 1_555 1_555
N1_11 Zn6_2 1_555 1_555
N3_5 C10_11 1_555 1_555
H6_11 C8_11 1_555 1_555
C9_11 C8_11 1_555 1_555
C10_11 N2_11 1_555 1_555
C11_11 N1_11 1_555 1_555
H8_11 C11_11 1_555 1_555
N1_11 N2_11 1_555 1_555
N3_5 C11_11 1_555 1_555
Zn3_2 O4_12 1_555 1_555
O5 C7_12 1_555 1_555
N4_12 Zn3_2 1_555 1_555
N8_6 N4_12 1_555 1_555
N6_3 C12_12 1_555 1_555
C1_12 C2_12 1_555 1_555
C2_12 C3_12 1_555 1_555
C3_12 H1_12 1_555 1_555
C4_12 C3_12 1_555 1_555
H2_12 C4_12 1_555 1_555
C5_12 C4_12 1_555 1_555
H3_12 C5_12 1_555 1_555
C6_12 C1_12 1_555 1_555
H4_12 C6_12 1_555 1_555
C7_12 C1_12 1_555 1_555
C12_12 N8_6 1_555 1_555
H9_12 C12_12 1_555 1_555
C13_12 N4_12 1_555 1_555
H10_12 C13_12 1_555 1_555
Zn6_3 N6_3 1_555 1_555
N6_3 C13_12 1_555 1_555
C5_12 C6_12 1_555 1_555
Zn6_3 O3_12 1_555 1_555
O3_12 C9_12 1_555 1_555
N1_12 Zn6_3 1_555 1_555
N3_6 C10_12 1_555 1_555
H5_12 C8_12 1_555 1_555
H6_12 C8_12 1_555 1_555
C9_12 C8_12 1_555 1_555
C10_12 N2_12 1_555 1_555
C11_12 N1_12 1_555 1_555
H8_12 C11_12 1_555 1_555
N7_9 Zn6_3 1_555 1_555
N1_12 N2_12 1_555 1_555
N3_6 C11_12 1_555 1_555
N6_4 C12_13 1_555 1_555
H2_13 C4_13 1_555 1_555
C5_13 C4_13 1_555 1_555
H3_13 C5_13 1_555 1_555
H4_13 C6_13 1_555 1_555
C12_13 N8 1_555 1_555
H9_13 C12_13 1_555 1_555
Zn6_4 N6_4 1_555 1_555
N6_4 C13_13 1_555 1_555
C5_13 C6_13 1_555 1_555
Zn4 O4_13 1_555 1_555
Zn6_4 O3_13 1_555 1_555
O5_8 C7_13 1_555 1_555
O6_8 C7_13 1_555 1_555
O3_13 C9_13 1_555 1_555
O4_13 C9_13 1_555 1_555
N1_13 Zn6_4 1_555 1_555
N2_13 Zn4 1_555 1_555
N7_9 C10_13 1_555 1_555
N4_13 Zn4 1_555 1_555
C1_13 C2_13 1_555 1_555
C2_13 C3_13 1_555 1_555
C3_13 H1_13 1_555 1_555
C7_13 C1_13 1_555 1_555
C8_13 C2_13 1_555 1_555
H5_13 C8_13 1_555 1_555
H6_13 C8_13 1_555 1_555
C9_13 C8_13 1_555 1_555
C10_13 N2_13 1_555 1_555
H7_13 C10_13 1_555 1_555
C11_13 N1_13 1_555 1_555
H8_13 C11_13 1_555 1_555
N7_10 Zn6_4 1_555 1_555
N1_13 N2_13 1_555 1_555
N7_9 C11_13 1_555 1_555
N6_5 C12_14 1_555 1_555
H2_14 C4_14 1_555 1_555
C5_14 C4_14 1_555 1_555
H3_14 C5_14 1_555 1_555
H4_14 C6_14 1_555 1_555
C12_14 N8_2 1_555 1_555
H9_14 C12_14 1_555 1_555
Zn6_5 N6_5 1_555 1_555
N6_5 C13_14 1_555 1_555
C5_14 C6_14 1_555 1_555
Zn4_2 O4_14 1_555 1_555
Zn6_5 O3_14 1_555 1_555
O5_9 C7_14 1_555 1_555
O6_9 C7_14 1_555 1_555
O3_14 C9_14 1_555 1_555
O4_14 C9_14 1_555 1_555
N1_14 Zn6_5 1_555 1_555
N2_14 Zn4_2 1_555 1_555
N7_7 C10_14 1_555 1_555
N4_14 Zn4_2 1_555 1_555
C1_14 C2_14 1_555 1_555
C2_14 C3_14 1_555 1_555
C3_14 H1_14 1_555 1_555
C7_14 C1_14 1_555 1_555
C8_14 C2_14 1_555 1_555
H5_14 C8_14 1_555 1_555
H6_14 C8_14 1_555 1_555
C9_14 C8_14 1_555 1_555
C10_14 N2_14 1_555 1_555
H7_14 C10_14 1_555 1_555
C11_14 N1_14 1_555 1_555
H8_14 C11_14 1_555 1_555
N7_11 Zn6_5 1_555 1_555
N1_14 N2_14 1_555 1_555
N7_7 C11_14 1_555 1_555
N6_6 C12_15 1_555 1_555
H2_15 C4_15 1_555 1_555
C5_15 C4_15 1_555 1_555
H3_15 C5_15 1_555 1_555
H4_15 C6_15 1_555 1_555
C12_15 N8_3 1_555 1_555
H9_15 C12_15 1_555 1_555
Zn6_6 N6_6 1_555 1_555
N6_6 C13_15 1_555 1_555
C5_15 C6_15 1_555 1_555
Zn4_3 O4_15 1_555 1_555
Zn6_6 O3_15 1_555 1_555
O5_7 C7_15 1_555 1_555
O6_7 C7_15 1_555 1_555
O3_15 C9_15 1_555 1_555
O4_15 C9_15 1_555 1_555
N1_15 Zn6_6 1_555 1_555
N2_15 Zn4_3 1_555 1_555
N7_8 C10_15 1_555 1_555
N4_15 Zn4_3 1_555 1_555
C1_15 C2_15 1_555 1_555
C2_15 C3_15 1_555 1_555
C3_15 H1_15 1_555 1_555
C7_15 C1_15 1_555 1_555
C8_15 C2_15 1_555 1_555
H5_15 C8_15 1_555 1_555
H6_15 C8_15 1_555 1_555
C9_15 C8_15 1_555 1_555
C10_15 N2_15 1_555 1_555
H7_15 C10_15 1_555 1_555
C11_15 N1_15 1_555 1_555
H8_15 C11_15 1_555 1_555
N7_12 Zn6_6 1_555 1_555
N1_15 N2_15 1_555 1_555
N7_8 C11_15 1_555 1_555
N7_12 C10_16 1_555 1_555
H7_16 C10_16 1_555 1_555
H8_16 C11_16 1_555 1_555
N7_12 C11_16 1_555 1_555
Zn3_6 O4_16 1_555 1_555
Zn5_5 O3_16 1_555 1_555
O5_5 C7_16 1_555 1_555
O6_5 C7_16 1_555 1_555
O3_16 C9_16 1_555 1_555
O4_16 C9_16 1_555 1_555
N1_16 Zn5_5 1_555 1_555
N2_16 Zn3_6 1_555 1_555
N4_16 Zn3_6 1_555 1_555
N8_7 N4_16 1_555 1_555
N6_7 C12_16 1_555 1_555
C1_16 C2_16 1_555 1_555
C2_16 C3_16 1_555 1_555
C3_16 H1_16 1_555 1_555
C4_16 C3_16 1_555 1_555
H2_16 C4_16 1_555 1_555
C5_16 C4_16 1_555 1_555
H3_16 C5_16 1_555 1_555
C6_16 C1_16 1_555 1_555
H4_16 C6_16 1_555 1_555
C7_16 C1_16 1_555 1_555
C8_16 C2_16 1_555 1_555
H5_16 C8_16 1_555 1_555
H6_16 C8_16 1_555 1_555
C9_16 C8_16 1_555 1_555
C12_16 N8_7 1_555 1_555
C13_16 N4_16 1_555 1_555
H10_16 C13_16 1_555 1_555
N1_16 N2_16 1_555 1_555
N6_7 C13_16 1_555 1_555
C5_16 C6_16 1_555 1_555
Zn3_4 O4_17 1_555 1_555
Zn5_6 O3_17 1_555 1_555
O5_6 C7_17 1_555 1_555
O6_6 C7_17 1_555 1_555
O3_17 C9_17 1_555 1_555
O4_17 C9_17 1_555 1_555
N1_17 Zn5_6 1_555 1_555
N2_17 Zn3_4 1_555 1_555
N7_10 C10_17 1_555 1_555
N4_17 Zn3_4 1_555 1_555
N8_8 N4_17 1_555 1_555
N6_8 C12_17 1_555 1_555
C1_17 C2_17 1_555 1_555
C2_17 C3_17 1_555 1_555
C3_17 H1_17 1_555 1_555
C4_17 C3_17 1_555 1_555
H2_17 C4_17 1_555 1_555
C5_17 C4_17 1_555 1_555
H3_17 C5_17 1_555 1_555
C6_17 C1_17 1_555 1_555
H4_17 C6_17 1_555 1_555
C7_17 C1_17 1_555 1_555
C8_17 C2_17 1_555 1_555
H5_17 C8_17 1_555 1_555
H6_17 C8_17 1_555 1_555
C9_17 C8_17 1_555 1_555
C10_17 N2_17 1_555 1_555
H7_17 C10_17 1_555 1_555
C11_17 N1_17 1_555 1_555
H8_17 C11_17 1_555 1_555
C12_17 N8_8 1_555 1_555
H9_17 C12_17 1_555 1_555
C13_17 N4_17 1_555 1_555
H10_17 C13_17 1_555 1_555
N1_17 N2_17 1_555 1_555
N7_10 C11_17 1_555 1_555
N6_8 C13_17 1_555 1_555
C5_17 C6_17 1_555 1_555
Zn3_5 O4_18 1_555 1_555
Zn5_4 O3_18 1_555 1_555
O5_4 C7_18 1_555 1_555
O6_4 C7_18 1_555 1_555
O3_18 C9_18 1_555 1_555
O4_18 C9_18 1_555 1_555
N1_18 Zn5_4 1_555 1_555
N2_18 Zn3_5 1_555 1_555
N4_18 Zn3_5 1_555 1_555
N8_9 N4_18 1_555 1_555
N6_9 C12_18 1_555 1_555
C1_18 C2_18 1_555 1_555
C2_18 C3_18 1_555 1_555
C3_18 H1_18 1_555 1_555
C4_18 C3_18 1_555 1_555
H2_18 C4_18 1_555 1_555
C5_18 C4_18 1_555 1_555
H3_18 C5_18 1_555 1_555
C6_18 C1_18 1_555 1_555
H4_18 C6_18 1_555 1_555
C7_18 C1_18 1_555 1_555
C8_18 C2_18 1_555 1_555
H5_18 C8_18 1_555 1_555
H6_18 C8_18 1_555 1_555
C9_18 C8_18 1_555 1_555
C12_18 N8_9 1_555 1_555
C13_18 N4_18 1_555 1_555
H10_18 C13_18 1_555 1_555
N1_18 N2_18 1_555 1_555
N6_9 C13_18 1_555 1_555
C5_18 C6_18 1_555 1_555
N7_11 C10_18 1_555 1_555
H7_18 C10_18 1_555 1_555
H8_18 C11_18 1_555 1_555
N7_11 C11_18 1_555 1_555

#END
