
###############################################################################
#
# This file contains modified crystal structure data generated from the
# MOF subset of the Cambridge Structural Database (CSD) v543 
# hosted by the Cambridge Crystallographic Data Centre (CCDC).
#
# This work is licensed under the Creative Commons
# Attribution-NonCommercial-ShareAlike 4.0 International License.
# To view a copy of this license, visit
# http://creativecommons.org/licenses/by-nc-sa/4.0/
# or send a letter to
# Creative Commons, PO Box 1866, Mountain View, CA 94042, USA.
#
# CIF created using the CSD Python API on 29 September 2022
# The structure has been converted into the P1 space group
# The structure has a 3D framework
# The original CSD entry OPOKEM is in the monoclinic crystal system
# The framework has been calculated to contain at least 10.0% void space
# The void calculation uses a probe of radius 1.32A, grid spacing 0.4
#
###############################################################################

data_OPOKEM
_chemical_formula_moiety         '(C240 H176 Eu8 N40 O64)n'
_symmetry_cell_setting           triclinic
_symmetry_space_group_name_H-M   'P 1'
_symmetry_Int_Tables_number      1
_space_group_name_Hall           'P 1'
loop_
_symmetry_equiv_pos_site_id
_symmetry_equiv_pos_as_xyz
1 x,y,z
_cell_length_a                   16.278(3)
_cell_length_b                   14.261(3)
_cell_length_c                   27.936(5)
_cell_angle_alpha                90
_cell_angle_beta                 103.464(3)
_cell_angle_gamma                90
_cell_volume                     6306.85
loop_
_atom_site_label
_atom_site_type_symbol
_atom_site_fract_x
_atom_site_fract_y
_atom_site_fract_z
H1 H 0.958585 0.852894 0.004091
C1 C 0.8634(5) 0.9299(5) 0.0133(3)
H3 H 0.870710 0.915454 0.047610
H4 H 0.888995 0.989443 0.009903
N1 N 0.9040(3) 0.8560(3) 0.98928(17)
H2 H 0.880759 0.800842 0.993138
H5 H 0.804174 0.932713 0.997965
C2 C 0.8953(5) 0.8734(5) 0.9364(2)
H6 H 0.922495 0.823892 0.922633
H7 H 0.836543 0.875474 0.920107
H8 H 0.921364 0.932204 0.932045
N1_2 N 0.0960(3) 0.8560(3) 0.51072(17)
H1_2 H 0.041415 0.852894 0.495909
H2_2 H 0.119241 0.800842 0.506862
C1_2 C 0.1366(5) 0.9299(5) 0.4867(3)
H3_2 H 0.129290 0.915454 0.452390
H4_2 H 0.111005 0.989443 0.490097
H5_2 H 0.195826 0.932713 0.502035
C2_2 C 0.1047(5) 0.8734(5) 0.5636(2)
H6_2 H 0.077505 0.823892 0.577367
H7_2 H 0.163457 0.875474 0.579893
H8_2 H 0.078636 0.932204 0.567955
H1_3 H 0.458585 0.352894 0.004091
C1_3 C 0.3634(5) 0.4299(5) 0.0133(3)
H3_3 H 0.370710 0.415454 0.047610
H4_3 H 0.388995 0.489443 0.009903
N1_3 N 0.4040(3) 0.3560(3) 0.98928(17)
H2_3 H 0.380759 0.300842 0.993138
H5_3 H 0.304174 0.432713 0.997965
C2_3 C 0.3953(5) 0.3734(5) 0.9364(2)
H6_3 H 0.422495 0.323892 0.922633
H7_3 H 0.336543 0.375474 0.920107
H8_3 H 0.421364 0.432204 0.932045
N1_4 N 0.5960(3) 0.3560(3) 0.51072(17)
H1_4 H 0.541415 0.352894 0.495909
H2_4 H 0.619241 0.300842 0.506862
C1_4 C 0.6366(5) 0.4299(5) 0.4867(3)
H3_4 H 0.629290 0.415454 0.452390
H4_4 H 0.611005 0.489443 0.490097
H5_4 H 0.695826 0.432713 0.502035
C2_4 C 0.6047(5) 0.3734(5) 0.5636(2)
H6_4 H 0.577505 0.323892 0.577367
H7_4 H 0.663457 0.375474 0.579893
H8_4 H 0.578636 0.432204 0.567955
N1_5 N 0.0960(3) 0.1440(3) 0.01072(17)
H2_5 H 0.119241 0.199158 0.006862
H5_5 H 0.195826 0.067287 0.002035
C2_5 C 0.1047(5) 0.1266(5) 0.0636(2)
H6_5 H 0.077505 0.176108 0.077367
H7_5 H 0.163457 0.124526 0.079893
H8_5 H 0.078636 0.067796 0.067955
H1_5 H 0.041415 0.147106 0.995909
C1_5 C 0.1366(5) 0.0701(5) 0.9867(3)
H3_5 H 0.129290 0.084546 0.952390
H4_5 H 0.111005 0.010557 0.990097
N1_6 N 0.9040(3) 0.1440(3) 0.48928(17)
H1_6 H 0.958585 0.147106 0.504091
H2_6 H 0.880759 0.199158 0.493138
C1_6 C 0.8634(5) 0.0701(5) 0.5133(3)
H3_6 H 0.870710 0.084546 0.547610
H4_6 H 0.888995 0.010557 0.509903
H5_6 H 0.804174 0.067287 0.497965
C2_6 C 0.8953(5) 0.1266(5) 0.4364(2)
H6_6 H 0.922495 0.176108 0.422633
H7_6 H 0.836543 0.124526 0.420107
H8_6 H 0.921364 0.067796 0.432045
N1_7 N 0.5960(3) 0.6440(3) 0.01072(17)
H2_7 H 0.619241 0.699158 0.006862
H5_7 H 0.695826 0.567287 0.002035
C2_7 C 0.6047(5) 0.6266(5) 0.0636(2)
H6_7 H 0.577505 0.676108 0.077367
H7_7 H 0.663457 0.624526 0.079893
H8_7 H 0.578636 0.567796 0.067955
H1_7 H 0.541415 0.647106 0.995909
C1_7 C 0.6366(5) 0.5701(5) 0.9867(3)
H3_7 H 0.629290 0.584546 0.952390
H4_7 H 0.611005 0.510557 0.990097
N1_8 N 0.4040(3) 0.6440(3) 0.48928(17)
H1_8 H 0.458585 0.647106 0.504091
H2_8 H 0.380759 0.699158 0.493138
C1_8 C 0.3634(5) 0.5701(5) 0.5133(3)
H3_8 H 0.370710 0.584546 0.547610
H4_8 H 0.388995 0.510557 0.509903
H5_8 H 0.304174 0.567287 0.497965
C2_8 C 0.3953(5) 0.6266(5) 0.4364(2)
H6_8 H 0.422495 0.676108 0.422633
H7_8 H 0.336543 0.624526 0.420107
H8_8 H 0.421364 0.567796 0.432045
Eu1 Eu 0.47417(2) 0.11507(2) 0.08106(2)
O1 O 0.34335(16) 0.02173(19) 0.07018(9)
N4 N 0.6312(2) 0.1187(3) 0.07226(14)
N5 N 0.5932(2) 0.1101(2) 0.16095(13)
C19 C 0.6497(3) 0.1245(4) 0.02823(19)
H15 H 0.606370 0.116883 0.000198
C20 C 0.7310(4) 0.1416(5) 0.0225(2)
C21 C 0.7947(4) 0.1525(5) 0.0627(3)
H17 H 0.849076 0.164647 0.059093
C22 C 0.7792(3) 0.1457(4) 0.1104(2)
C23 C 0.6953(3) 0.1283(3) 0.11315(18)
C24 C 0.6748(3) 0.1222(3) 0.16043(17)
C25 C 0.7398(3) 0.1301(4) 0.20292(19)
C26 C 0.8244(4) 0.1488(5) 0.1987(3)
H18 H 0.867157 0.155832 0.227004
C27 C 0.8427(4) 0.1562(6) 0.1546(3)
H19 H 0.898052 0.168411 0.152803
C28 C 0.7189(4) 0.1255(4) 0.2488(2)
H20 H 0.760455 0.130657 0.277812
C29 C 0.6351(4) 0.1133(4) 0.24984(18)
H21 H 0.619205 0.109319 0.279671
C30 C 0.5758(3) 0.1072(3) 0.20621(16)
H22 H 0.519610 0.100524 0.207664
Eu2 Eu 0.52583(2) 0.11507(2) 0.41894(2)
O9 O 0.53044(17) 0.27256(19) 0.08736(10)
O10 O 0.39826(16) 0.20120(19) 0.13494(9)
O11 O 0.34641(16) 0.22526(18) 0.05540(9)
H16 H 0.741401 0.145480 0.991235
O12 O 0.44353(17) 0.13230(19) 0.99492(9)
O2 O 0.43321(17) 0.99986(19) 0.14173(9)
O3 O 0.0671(2) 0.8675(3) 0.03272(11)
O4 O 0.03044(17) 0.77256(19) 0.08736(10)
O5 O 0.10174(16) 0.70120(19) 0.36506(9)
O6 O 0.15359(16) 0.72526(18) 0.44460(9)
O7 O 0.44353(17) 0.86770(19) 0.49492(9)
O8 O 0.48560(17) 0.96350(19) 0.44243(9)
N2 N 0.2347(2) 0.8550(3) 0.24640(12)
N3 N 0.3001(2) 0.8756(3) 0.27739(12)
C3 C 0.3617(2) 0.9884(3) 0.11315(13)
C4 C 0.2939(2) 0.9360(3) 0.13113(13)
C5 C 0.3030(2) 0.9161(3) 0.18076(14)
H9 H 0.352795 0.931387 0.203403
C6 C 0.2364(3) 0.8727(3) 0.19638(13)
C7 C 0.1646(3) 0.8447(3) 0.16223(14)
H10 H 0.121670 0.813372 0.172620
C8 C 0.1564(2) 0.8631(3) 0.11248(13)
C9 C 0.2198(2) 0.9103(3) 0.09780(13)
H11 H 0.213056 0.925393 0.064729
C10 C 0.0787(2) 0.8310(3) 0.07454(14)
C11 C 0.1559(2) 0.7373(3) 0.40023(13)
C12 C 0.4353(2) 0.9052(2) 0.45326(13)
C13 C 0.3604(2) 0.8750(3) 0.41348(13)
C14 C 0.2922(2) 0.8283(3) 0.42510(13)
H12 H 0.290562 0.819925 0.457884
C15 C 0.2272(2) 0.7945(3) 0.38826(13)
C16 C 0.2278(2) 0.8092(3) 0.33907(14)
H13 H 0.183812 0.786683 0.314233
C17 C 0.2946(3) 0.8577(3) 0.32735(13)
C18 C 0.3611(3) 0.8896(3) 0.36409(13)
H14 H 0.406198 0.920679 0.355937
Eu4 Eu 0.02583(2) 0.61507(2) 0.41894(2)
Eu5 Eu 0.47417(2) 0.88493(2) 0.58106(2)
O13 O 0.51440(17) 0.96350(19) 0.05757(9)
Eu3 Eu 0.97417(2) 0.61507(2) 0.08106(2)
O1_2 O 0.65665(16) 0.02173(19) 0.42982(9)
N4_2 N 0.3688(2) 0.1187(3) 0.42774(14)
N5_2 N 0.4068(2) 0.1101(2) 0.33905(13)
C19_2 C 0.3503(3) 0.1245(4) 0.47177(19)
H15_2 H 0.393630 0.116883 0.499802
C20_2 C 0.2690(4) 0.1416(5) 0.4775(2)
H16_2 H 0.258599 0.145480 0.508765
C21_2 C 0.2053(4) 0.1525(5) 0.4373(3)
H17_2 H 0.150924 0.164647 0.440907
C22_2 C 0.2208(3) 0.1457(4) 0.3896(2)
C23_2 C 0.3047(3) 0.1283(3) 0.38685(18)
C24_2 C 0.3252(3) 0.1222(3) 0.33957(17)
C25_2 C 0.2602(3) 0.1301(4) 0.29708(19)
C26_2 C 0.1756(4) 0.1488(5) 0.3013(3)
H18_2 H 0.132843 0.155832 0.272996
C27_2 C 0.1573(4) 0.1562(6) 0.3454(3)
H19_2 H 0.101948 0.168411 0.347197
C28_2 C 0.2811(4) 0.1255(4) 0.2512(2)
H20_2 H 0.239545 0.130657 0.222188
C29_2 C 0.3649(4) 0.1133(4) 0.25016(18)
H21_2 H 0.380795 0.109319 0.220329
C30_2 C 0.4242(3) 0.1072(3) 0.29379(16)
H22_2 H 0.480390 0.100524 0.292336
O9_2 O 0.46956(17) 0.27256(19) 0.41264(10)
O10_2 O 0.60174(16) 0.20120(19) 0.36506(9)
O11_2 O 0.65359(16) 0.22526(18) 0.44460(9)
O12_2 O 0.55647(17) 0.13230(19) 0.50508(9)
O2_2 O 0.56679(17) 0.99986(19) 0.35827(9)
O3_2 O 0.9329(2) 0.8675(3) 0.46728(11)
O4_2 O 0.96956(17) 0.77256(19) 0.41264(10)
O5_2 O 0.89826(16) 0.70120(19) 0.13494(9)
O6_2 O 0.84641(16) 0.72526(18) 0.05540(9)
O7_2 O 0.55647(17) 0.86770(19) 0.00508(9)
N2_2 N 0.7653(2) 0.8550(3) 0.25360(12)
N3_2 N 0.6999(2) 0.8756(3) 0.22261(12)
C3_2 C 0.6383(2) 0.9884(3) 0.38685(13)
C4_2 C 0.7061(2) 0.9360(3) 0.36887(13)
C5_2 C 0.6970(2) 0.9161(3) 0.31924(14)
H9_2 H 0.647205 0.931387 0.296597
C6_2 C 0.7636(3) 0.8727(3) 0.30362(13)
C7_2 C 0.8354(3) 0.8447(3) 0.33777(14)
H10_2 H 0.878330 0.813372 0.327380
C8_2 C 0.8436(2) 0.8631(3) 0.38752(13)
C9_2 C 0.7802(2) 0.9103(3) 0.40220(13)
H11_2 H 0.786944 0.925393 0.435271
C10_2 C 0.9213(2) 0.8310(3) 0.42546(14)
C11_2 C 0.8441(2) 0.7373(3) 0.09977(13)
C12_2 C 0.5647(2) 0.9052(2) 0.04674(13)
C13_2 C 0.6396(2) 0.8750(3) 0.08652(13)
C14_2 C 0.7078(2) 0.8283(3) 0.07490(13)
H12_2 H 0.709438 0.819925 0.042116
C15_2 C 0.7728(2) 0.7945(3) 0.11174(13)
C16_2 C 0.7722(2) 0.8092(3) 0.16093(14)
H13_2 H 0.816188 0.786683 0.185767
C17_2 C 0.7054(3) 0.8577(3) 0.17265(13)
C18_2 C 0.6389(3) 0.8896(3) 0.13591(13)
H14_2 H 0.593802 0.920679 0.144063
Eu5_2 Eu 0.52583(2) 0.88493(2) 0.91894(2)
N4_3 N 0.1312(2) 0.6187(3) 0.07226(14)
N5_3 N 0.0932(2) 0.6101(2) 0.16095(13)
C19_3 C 0.1497(3) 0.6245(4) 0.02823(19)
H15_3 H 0.106370 0.616883 0.000198
C20_3 C 0.2310(4) 0.6416(5) 0.0225(2)
C21_3 C 0.2947(4) 0.6525(5) 0.0627(3)
H17_3 H 0.349076 0.664647 0.059093
C22_3 C 0.2792(3) 0.6457(4) 0.1104(2)
C23_3 C 0.1953(3) 0.6283(3) 0.11315(18)
C24_3 C 0.1748(3) 0.6222(3) 0.16043(17)
C25_3 C 0.2398(3) 0.6301(4) 0.20292(19)
C26_3 C 0.3244(4) 0.6488(5) 0.1987(3)
H18_3 H 0.367157 0.655832 0.227004
C27_3 C 0.3427(4) 0.6562(6) 0.1546(3)
H19_3 H 0.398052 0.668411 0.152803
C28_3 C 0.2189(4) 0.6255(4) 0.2488(2)
H20_3 H 0.260455 0.630657 0.277812
C29_3 C 0.1351(4) 0.6133(4) 0.24984(18)
H21_3 H 0.119205 0.609319 0.279671
C30_3 C 0.0758(3) 0.6072(3) 0.20621(16)
H22_3 H 0.019610 0.600524 0.207664
O13_2 O 0.01440(17) 0.46350(19) 0.05757(9)
O1_3 O 0.84335(16) 0.52173(19) 0.07018(9)
O2_3 O 0.93321(17) 0.49986(19) 0.14173(9)
O3_3 O 0.5671(2) 0.3675(3) 0.03272(11)
O7_3 O 0.94353(17) 0.36770(19) 0.49492(9)
O8_2 O 0.98560(17) 0.46350(19) 0.44243(9)
N2_3 N 0.7347(2) 0.3550(3) 0.24640(12)
N3_3 N 0.8001(2) 0.3756(3) 0.27739(12)
C3_3 C 0.8617(2) 0.4884(3) 0.11315(13)
C4_3 C 0.7939(2) 0.4360(3) 0.13113(13)
C5_3 C 0.8030(2) 0.4161(3) 0.18076(14)
H9_3 H 0.852795 0.431387 0.203403
C6_3 C 0.7364(3) 0.3727(3) 0.19638(13)
C7_3 C 0.6646(3) 0.3447(3) 0.16223(14)
H10_3 H 0.621670 0.313372 0.172620
C8_3 C 0.6564(2) 0.3631(3) 0.11248(13)
C9_3 C 0.7198(2) 0.4103(3) 0.09780(13)
H11_3 H 0.713056 0.425393 0.064729
C10_3 C 0.5787(2) 0.3310(3) 0.07454(14)
C11_3 C 0.6559(2) 0.2373(3) 0.40023(13)
C12_3 C 0.9353(2) 0.4052(2) 0.45326(13)
C13_3 C 0.8604(2) 0.3750(3) 0.41348(13)
C14_3 C 0.7922(2) 0.3283(3) 0.42510(13)
H12_3 H 0.790562 0.319925 0.457884
C15_3 C 0.7272(2) 0.2945(3) 0.38826(13)
C16_3 C 0.7278(2) 0.3092(3) 0.33907(14)
H13_3 H 0.683812 0.286683 0.314233
C17_3 C 0.7946(3) 0.3577(3) 0.32735(13)
C18_3 C 0.8611(3) 0.3896(3) 0.36409(13)
H14_3 H 0.906198 0.420679 0.355937
Eu5_3 Eu 0.97417(2) 0.38493(2) 0.58106(2)
O12_3 O 0.94353(17) 0.63230(19) 0.99492(9)
O1_4 O 0.15665(16) 0.52173(19) 0.42982(9)
O2_4 O 0.06679(17) 0.49986(19) 0.35827(9)
O3_4 O 0.4329(2) 0.3675(3) 0.46728(11)
O7_4 O 0.05647(17) 0.36770(19) 0.00508(9)
N2_4 N 0.2653(2) 0.3550(3) 0.25360(12)
N3_4 N 0.1999(2) 0.3756(3) 0.22261(12)
C3_4 C 0.1383(2) 0.4884(3) 0.38685(13)
C4_4 C 0.2061(2) 0.4360(3) 0.36887(13)
C5_4 C 0.1970(2) 0.4161(3) 0.31924(14)
H9_4 H 0.147205 0.431387 0.296597
C6_4 C 0.2636(3) 0.3727(3) 0.30362(13)
C7_4 C 0.3354(3) 0.3447(3) 0.33777(14)
H10_4 H 0.378330 0.313372 0.327380
C8_4 C 0.3436(2) 0.3631(3) 0.38752(13)
C9_4 C 0.2802(2) 0.4103(3) 0.40220(13)
H11_4 H 0.286944 0.425393 0.435271
C10_4 C 0.4213(2) 0.3310(3) 0.42546(14)
C11_4 C 0.3441(2) 0.2373(3) 0.09977(13)
C12_4 C 0.0647(2) 0.4052(2) 0.04674(13)
C13_4 C 0.1396(2) 0.3750(3) 0.08652(13)
C14_4 C 0.2078(2) 0.3283(3) 0.07490(13)
H12_4 H 0.209438 0.319925 0.042116
C15_4 C 0.2728(2) 0.2945(3) 0.11174(13)
C16_4 C 0.2722(2) 0.3092(3) 0.16093(14)
H13_4 H 0.316188 0.286683 0.185767
C17_4 C 0.2054(3) 0.3577(3) 0.17265(13)
C18_4 C 0.1389(3) 0.3896(3) 0.13591(13)
H14_4 H 0.093802 0.420679 0.144063
O12_4 O 0.05647(17) 0.63230(19) 0.50508(9)
Eu5_4 Eu 0.02583(2) 0.38493(2) 0.91894(2)
N4_4 N 0.8688(2) 0.6187(3) 0.42774(14)
N5_4 N 0.9068(2) 0.6101(2) 0.33905(13)
C19_4 C 0.8503(3) 0.6245(4) 0.47177(19)
H15_4 H 0.893630 0.616883 0.499802
C20_4 C 0.7690(4) 0.6416(5) 0.4775(2)
H16_3 H 0.758599 0.645480 0.508765
C21_4 C 0.7053(4) 0.6525(5) 0.4373(3)
H17_4 H 0.650924 0.664647 0.440907
C22_4 C 0.7208(3) 0.6457(4) 0.3896(2)
C23_4 C 0.8047(3) 0.6283(3) 0.38685(18)
C24_4 C 0.8252(3) 0.6222(3) 0.33957(17)
C25_4 C 0.7602(3) 0.6301(4) 0.29708(19)
C26_4 C 0.6756(4) 0.6488(5) 0.3013(3)
H18_4 H 0.632843 0.655832 0.272996
C27_4 C 0.6573(4) 0.6562(6) 0.3454(3)
H19_4 H 0.601948 0.668411 0.347197
C28_4 C 0.7811(4) 0.6255(4) 0.2512(2)
H20_4 H 0.739545 0.630657 0.222188
C29_4 C 0.8649(4) 0.6133(4) 0.25016(18)
H21_4 H 0.880795 0.609319 0.220329
C30_4 C 0.9242(3) 0.6072(3) 0.29379(16)
H22_4 H 0.980390 0.600524 0.292336
O2_5 O 0.56679(17) 0.00014(19) 0.85827(9)
O3_5 O 0.9329(2) 0.1325(3) 0.96728(11)
O4_3 O 0.96956(17) 0.22744(19) 0.91264(10)
O5_3 O 0.89826(16) 0.29880(19) 0.63494(9)
O6_3 O 0.84641(16) 0.27474(18) 0.55540(9)
O8_3 O 0.51440(17) 0.03650(19) 0.55757(9)
N2_5 N 0.7653(2) 0.1450(3) 0.75360(12)
N3_5 N 0.6999(2) 0.1244(3) 0.72261(12)
C3_5 C 0.6383(2) 0.0116(3) 0.88685(13)
C4_5 C 0.7061(2) 0.0640(3) 0.86887(13)
C5_5 C 0.6970(2) 0.0839(3) 0.81924(14)
H9_5 H 0.647205 0.068613 0.796597
C6_5 C 0.7636(3) 0.1273(3) 0.80362(13)
C7_5 C 0.8354(3) 0.1553(3) 0.83777(14)
H10_5 H 0.878330 0.186628 0.827380
C8_5 C 0.8436(2) 0.1369(3) 0.88752(13)
C9_5 C 0.7802(2) 0.0897(3) 0.90220(13)
H11_5 H 0.786944 0.074607 0.935271
C10_5 C 0.9213(2) 0.1690(3) 0.92546(14)
C11_5 C 0.8441(2) 0.2627(3) 0.59977(13)
C12_5 C 0.5647(2) 0.0948(2) 0.54674(13)
C13_5 C 0.6396(2) 0.1250(3) 0.58652(13)
C14_5 C 0.7078(2) 0.1717(3) 0.57490(13)
H12_5 H 0.709438 0.180075 0.542116
C15_5 C 0.7728(2) 0.2055(3) 0.61174(13)
C16_5 C 0.7722(2) 0.1908(3) 0.66093(14)
H13_5 H 0.816188 0.213317 0.685767
C17_5 C 0.7054(3) 0.1423(3) 0.67265(13)
C18_5 C 0.6389(3) 0.1104(3) 0.63591(13)
H14_5 H 0.593802 0.079321 0.644063
O13_3 O 0.48560(17) 0.03650(19) 0.94243(9)
H16_4 H 0.258599 0.854520 0.008765
O1_5 O 0.65665(16) 0.97827(19) 0.92982(9)
N4_5 N 0.3688(2) 0.8813(3) 0.92774(14)
N5_5 N 0.4068(2) 0.8899(2) 0.83905(13)
C19_5 C 0.3503(3) 0.8755(4) 0.97177(19)
H15_5 H 0.393630 0.883117 0.999802
C20_5 C 0.2690(4) 0.8584(5) 0.9775(2)
C21_5 C 0.2053(4) 0.8475(5) 0.9373(3)
H17_5 H 0.150924 0.835353 0.940907
C22_5 C 0.2208(3) 0.8543(4) 0.8896(2)
C23_5 C 0.3047(3) 0.8717(3) 0.88685(18)
C24_5 C 0.3252(3) 0.8778(3) 0.83957(17)
C25_5 C 0.2602(3) 0.8699(4) 0.79708(19)
C26_5 C 0.1756(4) 0.8512(5) 0.8013(3)
H18_5 H 0.132843 0.844168 0.772996
C27_5 C 0.1573(4) 0.8438(6) 0.8454(3)
H19_5 H 0.101948 0.831589 0.847197
C28_5 C 0.2811(4) 0.8745(4) 0.7512(2)
H20_5 H 0.239545 0.869343 0.722188
C29_5 C 0.3649(4) 0.8867(4) 0.75016(18)
H21_5 H 0.380795 0.890681 0.720329
C30_5 C 0.4242(3) 0.8928(3) 0.79379(16)
H22_5 H 0.480390 0.899476 0.792336
O9_3 O 0.46956(17) 0.72744(19) 0.91264(10)
O10_3 O 0.60174(16) 0.79880(19) 0.86506(9)
O11_3 O 0.65359(16) 0.77474(18) 0.94460(9)
O2_6 O 0.43321(17) 0.00014(19) 0.64173(9)
O3_6 O 0.0671(2) 0.1325(3) 0.53272(11)
O4_4 O 0.03044(17) 0.22744(19) 0.58736(10)
O5_4 O 0.10174(16) 0.29880(19) 0.86506(9)
O6_4 O 0.15359(16) 0.27474(18) 0.94460(9)
N2_6 N 0.2347(2) 0.1450(3) 0.74640(12)
N3_6 N 0.3001(2) 0.1244(3) 0.77739(12)
C3_6 C 0.3617(2) 0.0116(3) 0.61315(13)
C4_6 C 0.2939(2) 0.0640(3) 0.63113(13)
C5_6 C 0.3030(2) 0.0839(3) 0.68076(14)
H9_6 H 0.352795 0.068613 0.703403
C6_6 C 0.2364(3) 0.1273(3) 0.69638(13)
C7_6 C 0.1646(3) 0.1553(3) 0.66223(14)
H10_6 H 0.121670 0.186628 0.672620
C8_6 C 0.1564(2) 0.1369(3) 0.61248(13)
C9_6 C 0.2198(2) 0.0897(3) 0.59780(13)
H11_6 H 0.213056 0.074607 0.564729
C10_6 C 0.0787(2) 0.1690(3) 0.57454(14)
C11_6 C 0.1559(2) 0.2627(3) 0.90023(13)
C12_6 C 0.4353(2) 0.0948(2) 0.95326(13)
C13_6 C 0.3604(2) 0.1250(3) 0.91348(13)
C14_6 C 0.2922(2) 0.1717(3) 0.92510(13)
H12_6 H 0.290562 0.180075 0.957884
C15_6 C 0.2272(2) 0.2055(3) 0.88826(13)
C16_6 C 0.2278(2) 0.1908(3) 0.83907(14)
H13_6 H 0.183812 0.213317 0.814233
C17_6 C 0.2946(3) 0.1423(3) 0.82735(13)
C18_6 C 0.3611(3) 0.1104(3) 0.86409(13)
H14_6 H 0.406198 0.079321 0.855937
O1_6 O 0.34335(16) 0.97827(19) 0.57018(9)
N4_6 N 0.6312(2) 0.8813(3) 0.57226(14)
N5_6 N 0.5932(2) 0.8899(2) 0.66095(13)
C19_6 C 0.6497(3) 0.8755(4) 0.52823(19)
H15_6 H 0.606370 0.883117 0.500198
C20_6 C 0.7310(4) 0.8584(5) 0.5225(2)
H16_5 H 0.741401 0.854520 0.491235
C21_6 C 0.7947(4) 0.8475(5) 0.5627(3)
H17_6 H 0.849076 0.835353 0.559093
C22_6 C 0.7792(3) 0.8543(4) 0.6104(2)
C23_6 C 0.6953(3) 0.8717(3) 0.61315(18)
C24_6 C 0.6748(3) 0.8778(3) 0.66043(17)
C25_6 C 0.7398(3) 0.8699(4) 0.70292(19)
C26_6 C 0.8244(4) 0.8512(5) 0.6987(3)
H18_6 H 0.867157 0.844168 0.727004
C27_6 C 0.8427(4) 0.8438(6) 0.6546(3)
H19_6 H 0.898052 0.831589 0.652803
C28_6 C 0.7189(4) 0.8745(4) 0.7488(2)
H20_6 H 0.760455 0.869343 0.777812
C29_6 C 0.6351(4) 0.8867(4) 0.74984(18)
H21_6 H 0.619205 0.890681 0.779671
C30_6 C 0.5758(3) 0.8928(3) 0.70621(16)
H22_6 H 0.519610 0.899476 0.707664
O9_4 O 0.53044(17) 0.72744(19) 0.58736(10)
O10_4 O 0.39826(16) 0.79880(19) 0.63494(9)
O11_4 O 0.34641(16) 0.77474(18) 0.55540(9)
O1_7 O 0.15665(16) 0.47827(19) 0.92982(9)
O2_7 O 0.06679(17) 0.50014(19) 0.85827(9)
O3_7 O 0.4329(2) 0.6325(3) 0.96728(11)
O8_4 O 0.01440(17) 0.53650(19) 0.55757(9)
N2_7 N 0.2653(2) 0.6450(3) 0.75360(12)
N3_7 N 0.1999(2) 0.6244(3) 0.72261(12)
C3_7 C 0.1383(2) 0.5116(3) 0.88685(13)
C4_7 C 0.2061(2) 0.5640(3) 0.86887(13)
C5_7 C 0.1970(2) 0.5839(3) 0.81924(14)
H9_7 H 0.147205 0.568613 0.796597
C6_7 C 0.2636(3) 0.6273(3) 0.80362(13)
C7_7 C 0.3354(3) 0.6553(3) 0.83777(14)
H10_7 H 0.378330 0.686628 0.827380
C8_7 C 0.3436(2) 0.6369(3) 0.88752(13)
C9_7 C 0.2802(2) 0.5897(3) 0.90220(13)
H11_7 H 0.286944 0.574607 0.935271
C10_7 C 0.4213(2) 0.6690(3) 0.92546(14)
C11_7 C 0.3441(2) 0.7627(3) 0.59977(13)
C12_7 C 0.0647(2) 0.5948(2) 0.54674(13)
C13_7 C 0.1396(2) 0.6250(3) 0.58652(13)
C14_7 C 0.2078(2) 0.6717(3) 0.57490(13)
H12_7 H 0.209438 0.680075 0.542116
C15_7 C 0.2728(2) 0.7055(3) 0.61174(13)
C16_7 C 0.2722(2) 0.6908(3) 0.66093(14)
H13_7 H 0.316188 0.713317 0.685767
C17_7 C 0.2054(3) 0.6423(3) 0.67265(13)
C18_7 C 0.1389(3) 0.6104(3) 0.63591(13)
H14_7 H 0.093802 0.579321 0.644063
N4_7 N 0.8688(2) 0.3813(3) 0.92774(14)
N5_7 N 0.9068(2) 0.3899(2) 0.83905(13)
C19_7 C 0.8503(3) 0.3755(4) 0.97177(19)
H15_7 H 0.893630 0.383117 0.999802
C20_7 C 0.7690(4) 0.3584(5) 0.9775(2)
C21_7 C 0.7053(4) 0.3475(5) 0.9373(3)
H17_7 H 0.650924 0.335353 0.940907
C22_7 C 0.7208(3) 0.3543(4) 0.8896(2)
C23_7 C 0.8047(3) 0.3717(3) 0.88685(18)
C24_7 C 0.8252(3) 0.3778(3) 0.83957(17)
C25_7 C 0.7602(3) 0.3699(4) 0.79708(19)
C26_7 C 0.6756(4) 0.3512(5) 0.8013(3)
H18_7 H 0.632843 0.344168 0.772996
C27_7 C 0.6573(4) 0.3438(6) 0.8454(3)
H19_7 H 0.601948 0.331589 0.847197
C28_7 C 0.7811(4) 0.3745(4) 0.7512(2)
H20_7 H 0.739545 0.369343 0.722188
C29_7 C 0.8649(4) 0.3867(4) 0.75016(18)
H21_7 H 0.880795 0.390681 0.720329
C30_7 C 0.9242(3) 0.3928(3) 0.79379(16)
H22_7 H 0.980390 0.399476 0.792336
O13_4 O 0.98560(17) 0.53650(19) 0.94243(9)
N4_8 N 0.1312(2) 0.3813(3) 0.57226(14)
N5_8 N 0.0932(2) 0.3899(2) 0.66095(13)
C19_8 C 0.1497(3) 0.3755(4) 0.52823(19)
H15_8 H 0.106370 0.383117 0.500198
C20_8 C 0.2310(4) 0.3584(5) 0.5225(2)
H16_6 H 0.241401 0.354520 0.491235
C21_8 C 0.2947(4) 0.3475(5) 0.5627(3)
H17_8 H 0.349076 0.335353 0.559093
C22_8 C 0.2792(3) 0.3543(4) 0.6104(2)
C23_8 C 0.1953(3) 0.3717(3) 0.61315(18)
C24_8 C 0.1748(3) 0.3778(3) 0.66043(17)
C25_8 C 0.2398(3) 0.3699(4) 0.70292(19)
C26_8 C 0.3244(4) 0.3512(5) 0.6987(3)
H18_8 H 0.367157 0.344168 0.727004
C27_8 C 0.3427(4) 0.3438(6) 0.6546(3)
H19_8 H 0.398052 0.331589 0.652803
C28_8 C 0.2189(4) 0.3745(4) 0.7488(2)
H20_8 H 0.260455 0.369343 0.777812
C29_8 C 0.1351(4) 0.3867(4) 0.74984(18)
H21_8 H 0.119205 0.390681 0.779671
C30_8 C 0.0758(3) 0.3928(3) 0.70621(16)
H22_8 H 0.019610 0.399476 0.707664
O1_8 O 0.84335(16) 0.47827(19) 0.57018(9)
O2_8 O 0.93321(17) 0.50014(19) 0.64173(9)
O3_8 O 0.5671(2) 0.6325(3) 0.53272(11)
N2_8 N 0.7347(2) 0.6450(3) 0.74640(12)
N3_8 N 0.8001(2) 0.6244(3) 0.77739(12)
C3_8 C 0.8617(2) 0.5116(3) 0.61315(13)
C4_8 C 0.7939(2) 0.5640(3) 0.63113(13)
C5_8 C 0.8030(2) 0.5839(3) 0.68076(14)
H9_8 H 0.852795 0.568613 0.703403
C6_8 C 0.7364(3) 0.6273(3) 0.69638(13)
C7_8 C 0.6646(3) 0.6553(3) 0.66223(14)
H10_8 H 0.621670 0.686628 0.672620
C8_8 C 0.6564(2) 0.6369(3) 0.61248(13)
C9_8 C 0.7198(2) 0.5897(3) 0.59780(13)
H11_8 H 0.713056 0.574607 0.564729
C10_8 C 0.5787(2) 0.6690(3) 0.57454(14)
C11_8 C 0.6559(2) 0.7627(3) 0.90023(13)
C12_8 C 0.9353(2) 0.5948(2) 0.95326(13)
C13_8 C 0.8604(2) 0.6250(3) 0.91348(13)
C14_8 C 0.7922(2) 0.6717(3) 0.92510(13)
H12_8 H 0.790562 0.680075 0.957884
C15_8 C 0.7272(2) 0.7055(3) 0.88826(13)
C16_8 C 0.7278(2) 0.6908(3) 0.83907(14)
H13_8 H 0.683812 0.713317 0.814233
C17_8 C 0.7946(3) 0.6423(3) 0.82735(13)
C18_8 C 0.8611(3) 0.6104(3) 0.86409(13)
H14_8 H 0.906198 0.579321 0.855937
H16_7 H 0.241401 0.645480 0.991235
H16_8 H 0.758599 0.354520 0.008765
loop_
_geom_bond_atom_site_label_1
_geom_bond_atom_site_label_2
_geom_bond_site_symmetry_1
_geom_bond_site_symmetry_2
H3 C1 1_555 1_555
H4 C1 1_555 1_555
H2 N1 1_555 1_555
C2 N1 1_555 1_555
H6 C2 1_555 1_555
H7 C2 1_555 1_555
H8 C2 1_555 1_555
N1_2 H1_2 1_555 1_555
H2_2 N1_2 1_555 1_555
C1_2 N1_2 1_555 1_555
H3_2 C1_2 1_555 1_555
H4_2 C1_2 1_555 1_555
H5_2 C1_2 1_555 1_555
C2_2 N1_2 1_555 1_555
H6_2 C2_2 1_555 1_555
H7_2 C2_2 1_555 1_555
H8_2 C2_2 1_555 1_555
H3_3 C1_3 1_555 1_555
H4_3 C1_3 1_555 1_555
H2_3 N1_3 1_555 1_555
C2_3 N1_3 1_555 1_555
H6_3 C2_3 1_555 1_555
H7_3 C2_3 1_555 1_555
H8_3 C2_3 1_555 1_555
N1_4 H1_4 1_555 1_555
H2_4 N1_4 1_555 1_555
C1_4 N1_4 1_555 1_555
H3_4 C1_4 1_555 1_555
H4_4 C1_4 1_555 1_555
H5_4 C1_4 1_555 1_555
C2_4 N1_4 1_555 1_555
H6_4 C2_4 1_555 1_555
H7_4 C2_4 1_555 1_555
H8_4 C2_4 1_555 1_555
H2_5 N1_5 1_555 1_555
C2_5 N1_5 1_555 1_555
H6_5 C2_5 1_555 1_555
H7_5 C2_5 1_555 1_555
H8_5 C2_5 1_555 1_555
H3_5 C1_5 1_555 1_555
H4_5 C1_5 1_555 1_555
N1_6 H1_6 1_555 1_555
H2_6 N1_6 1_555 1_555
C1_6 N1_6 1_555 1_555
H3_6 C1_6 1_555 1_555
H4_6 C1_6 1_555 1_555
H5_6 C1_6 1_555 1_555
C2_6 N1_6 1_555 1_555
H6_6 C2_6 1_555 1_555
H7_6 C2_6 1_555 1_555
H8_6 C2_6 1_555 1_555
H2_7 N1_7 1_555 1_555
C2_7 N1_7 1_555 1_555
H6_7 C2_7 1_555 1_555
H7_7 C2_7 1_555 1_555
H8_7 C2_7 1_555 1_555
H3_7 C1_7 1_555 1_555
H4_7 C1_7 1_555 1_555
N1_8 H1_8 1_555 1_555
H2_8 N1_8 1_555 1_555
C1_8 N1_8 1_555 1_555
H3_8 C1_8 1_555 1_555
H4_8 C1_8 1_555 1_555
H5_8 C1_8 1_555 1_555
C2_8 N1_8 1_555 1_555
H6_8 C2_8 1_555 1_555
H7_8 C2_8 1_555 1_555
H8_8 C2_8 1_555 1_555
Eu1 O1 1_555 1_555
N4 Eu1 1_555 1_555
N5 Eu1 1_555 1_555
C19 N4 1_555 1_555
H15 C19 1_555 1_555
C20 C19 1_555 1_555
C21 C20 1_555 1_555
H17 C21 1_555 1_555
C22 C21 1_555 1_555
C23 N4 1_555 1_555
C24 N5 1_555 1_555
C25 C24 1_555 1_555
C26 C25 1_555 1_555
H18 C26 1_555 1_555
C27 C22 1_555 1_555
H19 C27 1_555 1_555
C28 C25 1_555 1_555
H20 C28 1_555 1_555
C29 C28 1_555 1_555
H21 C29 1_555 1_555
C30 N5 1_555 1_555
H22 C30 1_555 1_555
O9 Eu1 1_555 1_555
O10 Eu1 1_555 1_555
O11 Eu1 1_555 1_555
C22 C23 1_555 1_555
C23 C24 1_555 1_555
C26 C27 1_555 1_555
C29 C30 1_555 1_555
O3 C10 1_555 1_555
O4 C10 1_555 1_555
O5 C11 1_555 1_555
O6 C11 1_555 1_555
O7 C12 1_555 1_555
O8 C12 1_555 1_555
N2 N3 1_555 1_555
N3 C17 1_555 1_555
C3 O2 1_555 1_555
C4 C3 1_555 1_555
C5 C4 1_555 1_555
H9 C5 1_555 1_555
C6 N2 1_555 1_555
C7 C6 1_555 1_555
H10 C7 1_555 1_555
C8 C7 1_555 1_555
C9 C4 1_555 1_555
H11 C9 1_555 1_555
C10 C8 1_555 1_555
C11 C15 1_555 1_555
C12 C13 1_555 1_555
C13 C14 1_555 1_555
C14 H12 1_555 1_555
C15 C14 1_555 1_555
C16 C15 1_555 1_555
H13 C16 1_555 1_555
C17 C16 1_555 1_555
C18 C13 1_555 1_555
H14 C18 1_555 1_555
Eu4 O5 1_555 1_555
Eu5 O7 1_555 1_555
O6 Eu4 1_555 1_555
C5 C6 1_555 1_555
C8 C9 1_555 1_555
C17 C18 1_555 1_555
Eu2 O1_2 1_555 1_555
N4_2 Eu2 1_555 1_555
N5_2 Eu2 1_555 1_555
C19_2 N4_2 1_555 1_555
H15_2 C19_2 1_555 1_555
C20_2 C19_2 1_555 1_555
H16_2 C20_2 1_555 1_555
C21_2 C20_2 1_555 1_555
H17_2 C21_2 1_555 1_555
C22_2 C21_2 1_555 1_555
C23_2 N4_2 1_555 1_555
C24_2 N5_2 1_555 1_555
C25_2 C24_2 1_555 1_555
C26_2 C25_2 1_555 1_555
H18_2 C26_2 1_555 1_555
C27_2 C22_2 1_555 1_555
H19_2 C27_2 1_555 1_555
C28_2 C25_2 1_555 1_555
H20_2 C28_2 1_555 1_555
C29_2 C28_2 1_555 1_555
H21_2 C29_2 1_555 1_555
C30_2 N5_2 1_555 1_555
H22_2 C30_2 1_555 1_555
O9_2 Eu2 1_555 1_555
O10_2 Eu2 1_555 1_555
O11_2 Eu2 1_555 1_555
O12_2 Eu2 1_555 1_555
C22_2 C23_2 1_555 1_555
C23_2 C24_2 1_555 1_555
C26_2 C27_2 1_555 1_555
C29_2 C30_2 1_555 1_555
O3_2 C10_2 1_555 1_555
O4_2 C10_2 1_555 1_555
O5_2 C11_2 1_555 1_555
O6_2 C11_2 1_555 1_555
O7_2 C12_2 1_555 1_555
O13 C12_2 1_555 1_555
N2_2 N3_2 1_555 1_555
N3_2 C17_2 1_555 1_555
C3_2 O2_2 1_555 1_555
C4_2 C3_2 1_555 1_555
C5_2 C4_2 1_555 1_555
H9_2 C5_2 1_555 1_555
C6_2 N2_2 1_555 1_555
C7_2 C6_2 1_555 1_555
H10_2 C7_2 1_555 1_555
C8_2 C7_2 1_555 1_555
C9_2 C4_2 1_555 1_555
H11_2 C9_2 1_555 1_555
C10_2 C8_2 1_555 1_555
C11_2 C15_2 1_555 1_555
C12_2 C13_2 1_555 1_555
C13_2 C14_2 1_555 1_555
C14_2 H12_2 1_555 1_555
C15_2 C14_2 1_555 1_555
C16_2 C15_2 1_555 1_555
H13_2 C16_2 1_555 1_555
C17_2 C16_2 1_555 1_555
C18_2 C13_2 1_555 1_555
H14_2 C18_2 1_555 1_555
Eu3 O5_2 1_555 1_555
O6_2 Eu3 1_555 1_555
C5_2 C6_2 1_555 1_555
C8_2 C9_2 1_555 1_555
C17_2 C18_2 1_555 1_555
C19_3 N4_3 1_555 1_555
H15_3 C19_3 1_555 1_555
C20_3 C19_3 1_555 1_555
C21_3 C20_3 1_555 1_555
H17_3 C21_3 1_555 1_555
C22_3 C21_3 1_555 1_555
C23_3 N4_3 1_555 1_555
C24_3 N5_3 1_555 1_555
C25_3 C24_3 1_555 1_555
C26_3 C25_3 1_555 1_555
H18_3 C26_3 1_555 1_555
C27_3 C22_3 1_555 1_555
H19_3 C27_3 1_555 1_555
C28_3 C25_3 1_555 1_555
H20_3 C28_3 1_555 1_555
C29_3 C28_3 1_555 1_555
H21_3 C29_3 1_555 1_555
C30_3 N5_3 1_555 1_555
H22_3 C30_3 1_555 1_555
C22_3 C23_3 1_555 1_555
C23_3 C24_3 1_555 1_555
C26_3 C27_3 1_555 1_555
C29_3 C30_3 1_555 1_555
Eu3 O1_3 1_555 1_555
O1_3 C3_3 1_555 1_555
O2_3 Eu3 1_555 1_555
O3_3 C10_3 1_555 1_555
O9 C10_3 1_555 1_555
O10_2 C11_3 1_555 1_555
O11_2 C11_3 1_555 1_555
O7_3 C12_3 1_555 1_555
O8_2 C12_3 1_555 1_555
N2_3 N3_3 1_555 1_555
N3_3 C17_3 1_555 1_555
C3_3 O2_3 1_555 1_555
C4_3 C3_3 1_555 1_555
C5_3 C4_3 1_555 1_555
H9_3 C5_3 1_555 1_555
C6_3 N2_3 1_555 1_555
C7_3 C6_3 1_555 1_555
H10_3 C7_3 1_555 1_555
C8_3 C7_3 1_555 1_555
C9_3 C4_3 1_555 1_555
H11_3 C9_3 1_555 1_555
C10_3 C8_3 1_555 1_555
C11_3 C15_3 1_555 1_555
C12_3 C13_3 1_555 1_555
C13_3 C14_3 1_555 1_555
C14_3 H12_3 1_555 1_555
C15_3 C14_3 1_555 1_555
C16_3 C15_3 1_555 1_555
H13_3 C16_3 1_555 1_555
C17_3 C16_3 1_555 1_555
C18_3 C13_3 1_555 1_555
H14_3 C18_3 1_555 1_555
Eu5_3 O7_3 1_555 1_555
C5_3 C6_3 1_555 1_555
C8_3 C9_3 1_555 1_555
C17_3 C18_3 1_555 1_555
Eu4 O1_4 1_555 1_555
O1_4 C3_4 1_555 1_555
O2_4 Eu4 1_555 1_555
O3_4 C10_4 1_555 1_555
O9_2 C10_4 1_555 1_555
O10 C11_4 1_555 1_555
O11 C11_4 1_555 1_555
O7_4 C12_4 1_555 1_555
O13_2 C12_4 1_555 1_555
N2_4 N3_4 1_555 1_555
N3_4 C17_4 1_555 1_555
C3_4 O2_4 1_555 1_555
C4_4 C3_4 1_555 1_555
C5_4 C4_4 1_555 1_555
H9_4 C5_4 1_555 1_555
C6_4 N2_4 1_555 1_555
C7_4 C6_4 1_555 1_555
H10_4 C7_4 1_555 1_555
C8_4 C7_4 1_555 1_555
C9_4 C4_4 1_555 1_555
H11_4 C9_4 1_555 1_555
C10_4 C8_4 1_555 1_555
C11_4 C15_4 1_555 1_555
C12_4 C13_4 1_555 1_555
C13_4 C14_4 1_555 1_555
C14_4 H12_4 1_555 1_555
C15_4 C14_4 1_555 1_555
C16_4 C15_4 1_555 1_555
H13_4 C16_4 1_555 1_555
C17_4 C16_4 1_555 1_555
C18_4 C13_4 1_555 1_555
H14_4 C18_4 1_555 1_555
O12_4 Eu4 1_555 1_555
C5_4 C6_4 1_555 1_555
C8_4 C9_4 1_555 1_555
C17_4 C18_4 1_555 1_555
C19_4 N4_4 1_555 1_555
H15_4 C19_4 1_555 1_555
C20_4 C19_4 1_555 1_555
H16_3 C20_4 1_555 1_555
C21_4 C20_4 1_555 1_555
H17_4 C21_4 1_555 1_555
C22_4 C21_4 1_555 1_555
C23_4 N4_4 1_555 1_555
C24_4 N5_4 1_555 1_555
C25_4 C24_4 1_555 1_555
C26_4 C25_4 1_555 1_555
H18_4 C26_4 1_555 1_555
C27_4 C22_4 1_555 1_555
H19_4 C27_4 1_555 1_555
C28_4 C25_4 1_555 1_555
H20_4 C28_4 1_555 1_555
C29_4 C28_4 1_555 1_555
H21_4 C29_4 1_555 1_555
C30_4 N5_4 1_555 1_555
H22_4 C30_4 1_555 1_555
C22_4 C23_4 1_555 1_555
C23_4 C24_4 1_555 1_555
C26_4 C27_4 1_555 1_555
C29_4 C30_4 1_555 1_555
O3_5 C10_5 1_555 1_555
O4_3 C10_5 1_555 1_555
O5_3 C11_5 1_555 1_555
O6_3 C11_5 1_555 1_555
O12_2 C12_5 1_555 1_555
O8_3 C12_5 1_555 1_555
N2_5 N3_5 1_555 1_555
N3_5 C17_5 1_555 1_555
C3_5 O2_5 1_555 1_555
C4_5 C3_5 1_555 1_555
C5_5 C4_5 1_555 1_555
H9_5 C5_5 1_555 1_555
C6_5 N2_5 1_555 1_555
C7_5 C6_5 1_555 1_555
H10_5 C7_5 1_555 1_555
C8_5 C7_5 1_555 1_555
C9_5 C4_5 1_555 1_555
H11_5 C9_5 1_555 1_555
C10_5 C8_5 1_555 1_555
C11_5 C15_5 1_555 1_555
C12_5 C13_5 1_555 1_555
C13_5 C14_5 1_555 1_555
C14_5 H12_5 1_555 1_555
C15_5 C14_5 1_555 1_555
C16_5 C15_5 1_555 1_555
H13_5 C16_5 1_555 1_555
C17_5 C16_5 1_555 1_555
C18_5 C13_5 1_555 1_555
H14_5 C18_5 1_555 1_555
Eu5_3 O5_3 1_555 1_555
O6_3 Eu5_3 1_555 1_555
C5_5 C6_5 1_555 1_555
C8_5 C9_5 1_555 1_555
C17_5 C18_5 1_555 1_555
Eu5_2 O1_5 1_555 1_555
N4_5 Eu5_2 1_555 1_555
N5_5 Eu5_2 1_555 1_555
C19_5 N4_5 1_555 1_555
H15_5 C19_5 1_555 1_555
C20_5 C19_5 1_555 1_555
C21_5 C20_5 1_555 1_555
H17_5 C21_5 1_555 1_555
C22_5 C21_5 1_555 1_555
C23_5 N4_5 1_555 1_555
C24_5 N5_5 1_555 1_555
C25_5 C24_5 1_555 1_555
C26_5 C25_5 1_555 1_555
H18_5 C26_5 1_555 1_555
C27_5 C22_5 1_555 1_555
H19_5 C27_5 1_555 1_555
C28_5 C25_5 1_555 1_555
H20_5 C28_5 1_555 1_555
C29_5 C28_5 1_555 1_555
H21_5 C29_5 1_555 1_555
C30_5 N5_5 1_555 1_555
H22_5 C30_5 1_555 1_555
O9_3 Eu5_2 1_555 1_555
O10_3 Eu5_2 1_555 1_555
O11_3 Eu5_2 1_555 1_555
C22_5 C23_5 1_555 1_555
C23_5 C24_5 1_555 1_555
C26_5 C27_5 1_555 1_555
C29_5 C30_5 1_555 1_555
O3_6 C10_6 1_555 1_555
O4_4 C10_6 1_555 1_555
O5_4 C11_6 1_555 1_555
O6_4 C11_6 1_555 1_555
O12 C12_6 1_555 1_555
O13_3 C12_6 1_555 1_555
N2_6 N3_6 1_555 1_555
N3_6 C17_6 1_555 1_555
C3_6 O2_6 1_555 1_555
C4_6 C3_6 1_555 1_555
C5_6 C4_6 1_555 1_555
H9_6 C5_6 1_555 1_555
C6_6 N2_6 1_555 1_555
C7_6 C6_6 1_555 1_555
H10_6 C7_6 1_555 1_555
C8_6 C7_6 1_555 1_555
C9_6 C4_6 1_555 1_555
H11_6 C9_6 1_555 1_555
C10_6 C8_6 1_555 1_555
C11_6 C15_6 1_555 1_555
C12_6 C13_6 1_555 1_555
C13_6 C14_6 1_555 1_555
C14_6 H12_6 1_555 1_555
C15_6 C14_6 1_555 1_555
C16_6 C15_6 1_555 1_555
H13_6 C16_6 1_555 1_555
C17_6 C16_6 1_555 1_555
C18_6 C13_6 1_555 1_555
H14_6 C18_6 1_555 1_555
Eu5_4 O5_4 1_555 1_555
O6_4 Eu5_4 1_555 1_555
C5_6 C6_6 1_555 1_555
C8_6 C9_6 1_555 1_555
C17_6 C18_6 1_555 1_555
Eu5 O1_6 1_555 1_555
N4_6 Eu5 1_555 1_555
N5_6 Eu5 1_555 1_555
C19_6 N4_6 1_555 1_555
H15_6 C19_6 1_555 1_555
C20_6 C19_6 1_555 1_555
H16_5 C20_6 1_555 1_555
C21_6 C20_6 1_555 1_555
H17_6 C21_6 1_555 1_555
C22_6 C21_6 1_555 1_555
C23_6 N4_6 1_555 1_555
C24_6 N5_6 1_555 1_555
C25_6 C24_6 1_555 1_555
C26_6 C25_6 1_555 1_555
H18_6 C26_6 1_555 1_555
C27_6 C22_6 1_555 1_555
H19_6 C27_6 1_555 1_555
C28_6 C25_6 1_555 1_555
H20_6 C28_6 1_555 1_555
C29_6 C28_6 1_555 1_555
H21_6 C29_6 1_555 1_555
C30_6 N5_6 1_555 1_555
H22_6 C30_6 1_555 1_555
O9_4 Eu5 1_555 1_555
O10_4 Eu5 1_555 1_555
O11_4 Eu5 1_555 1_555
C22_6 C23_6 1_555 1_555
C23_6 C24_6 1_555 1_555
C26_6 C27_6 1_555 1_555
C29_6 C30_6 1_555 1_555
Eu5_4 O1_7 1_555 1_555
O1_7 C3_7 1_555 1_555
O2_7 Eu5_4 1_555 1_555
O3_7 C10_7 1_555 1_555
O9_3 C10_7 1_555 1_555
O10_4 C11_7 1_555 1_555
O11_4 C11_7 1_555 1_555
O12_4 C12_7 1_555 1_555
O8_4 C12_7 1_555 1_555
N2_7 N3_7 1_555 1_555
N3_7 C17_7 1_555 1_555
C3_7 O2_7 1_555 1_555
C4_7 C3_7 1_555 1_555
C5_7 C4_7 1_555 1_555
H9_7 C5_7 1_555 1_555
C6_7 N2_7 1_555 1_555
C7_7 C6_7 1_555 1_555
H10_7 C7_7 1_555 1_555
C8_7 C7_7 1_555 1_555
C9_7 C4_7 1_555 1_555
H11_7 C9_7 1_555 1_555
C10_7 C8_7 1_555 1_555
C11_7 C15_7 1_555 1_555
C12_7 C13_7 1_555 1_555
C13_7 C14_7 1_555 1_555
C14_7 H12_7 1_555 1_555
C15_7 C14_7 1_555 1_555
C16_7 C15_7 1_555 1_555
H13_7 C16_7 1_555 1_555
C17_7 C16_7 1_555 1_555
C18_7 C13_7 1_555 1_555
H14_7 C18_7 1_555 1_555
C5_7 C6_7 1_555 1_555
C8_7 C9_7 1_555 1_555
C17_7 C18_7 1_555 1_555
C19_7 N4_7 1_555 1_555
H15_7 C19_7 1_555 1_555
C20_7 C19_7 1_555 1_555
C21_7 C20_7 1_555 1_555
H17_7 C21_7 1_555 1_555
C22_7 C21_7 1_555 1_555
C23_7 N4_7 1_555 1_555
C24_7 N5_7 1_555 1_555
C25_7 C24_7 1_555 1_555
C26_7 C25_7 1_555 1_555
H18_7 C26_7 1_555 1_555
C27_7 C22_7 1_555 1_555
H19_7 C27_7 1_555 1_555
C28_7 C25_7 1_555 1_555
H20_7 C28_7 1_555 1_555
C29_7 C28_7 1_555 1_555
H21_7 C29_7 1_555 1_555
C30_7 N5_7 1_555 1_555
H22_7 C30_7 1_555 1_555
C22_7 C23_7 1_555 1_555
C23_7 C24_7 1_555 1_555
C26_7 C27_7 1_555 1_555
C29_7 C30_7 1_555 1_555
C19_8 N4_8 1_555 1_555
H15_8 C19_8 1_555 1_555
C20_8 C19_8 1_555 1_555
H16_6 C20_8 1_555 1_555
C21_8 C20_8 1_555 1_555
H17_8 C21_8 1_555 1_555
C22_8 C21_8 1_555 1_555
C23_8 N4_8 1_555 1_555
C24_8 N5_8 1_555 1_555
C25_8 C24_8 1_555 1_555
C26_8 C25_8 1_555 1_555
H18_8 C26_8 1_555 1_555
C27_8 C22_8 1_555 1_555
H19_8 C27_8 1_555 1_555
C28_8 C25_8 1_555 1_555
H20_8 C28_8 1_555 1_555
C29_8 C28_8 1_555 1_555
H21_8 C29_8 1_555 1_555
C30_8 N5_8 1_555 1_555
H22_8 C30_8 1_555 1_555
C22_8 C23_8 1_555 1_555
C23_8 C24_8 1_555 1_555
C26_8 C27_8 1_555 1_555
C29_8 C30_8 1_555 1_555
Eu5_3 O1_8 1_555 1_555
O1_8 C3_8 1_555 1_555
O2_8 Eu5_3 1_555 1_555
O3_8 C10_8 1_555 1_555
O9_4 C10_8 1_555 1_555
O10_3 C11_8 1_555 1_555
O11_3 C11_8 1_555 1_555
O12_3 C12_8 1_555 1_555
O13_4 C12_8 1_555 1_555
N2_8 N3_8 1_555 1_555
N3_8 C17_8 1_555 1_555
C3_8 O2_8 1_555 1_555
C4_8 C3_8 1_555 1_555
C5_8 C4_8 1_555 1_555
H9_8 C5_8 1_555 1_555
C6_8 N2_8 1_555 1_555
C7_8 C6_8 1_555 1_555
H10_8 C7_8 1_555 1_555
C8_8 C7_8 1_555 1_555
C9_8 C4_8 1_555 1_555
H11_8 C9_8 1_555 1_555
C10_8 C8_8 1_555 1_555
C11_8 C15_8 1_555 1_555
C12_8 C13_8 1_555 1_555
C13_8 C14_8 1_555 1_555
C14_8 H12_8 1_555 1_555
C15_8 C14_8 1_555 1_555
C16_8 C15_8 1_555 1_555
H13_8 C16_8 1_555 1_555
C17_8 C16_8 1_555 1_555
C18_8 C13_8 1_555 1_555
H14_8 C18_8 1_555 1_555
C5_8 C6_8 1_555 1_555
C8_8 C9_8 1_555 1_555
C17_8 C18_8 1_555 1_555

#END
