
###############################################################################
#
# This file contains modified crystal structure data generated from the
# MOF subset of the Cambridge Structural Database (CSD) v543 
# hosted by the Cambridge Crystallographic Data Centre (CCDC).
#
# This work is licensed under the Creative Commons
# Attribution-NonCommercial-ShareAlike 4.0 International License.
# To view a copy of this license, visit
# http://creativecommons.org/licenses/by-nc-sa/4.0/
# or send a letter to
# Creative Commons, PO Box 1866, Mountain View, CA 94042, USA.
#
# CIF created using the CSD Python API on 29 September 2022
# The structure has been converted into the P1 space group
# The structure has a 3D framework
# The original CSD entry OPOZAV is in the monoclinic crystal system
# The framework has been calculated to contain at least 10.0% void space
# The void calculation uses a probe of radius 1.32A, grid spacing 0.4
#
###############################################################################

data_OPOZAV
_chemical_formula_moiety         '(C224 H188 N24 O32 Zn12)n'
_symmetry_cell_setting           triclinic
_symmetry_space_group_name_H-M   'P 1'
_symmetry_Int_Tables_number      1
_space_group_name_Hall           'P 1'
loop_
_symmetry_equiv_pos_site_id
_symmetry_equiv_pos_as_xyz
1 x,y,z
_cell_length_a                   15.3836(7)
_cell_length_b                   21.5307(10)
_cell_length_c                   15.7987(7)
_cell_angle_alpha                90
_cell_angle_beta                 96.4010(10)
_cell_angle_gamma                90
_cell_volume                     5200.22
loop_
_atom_site_label
_atom_site_type_symbol
_atom_site_fract_x
_atom_site_fract_y
_atom_site_fract_z
Zn5 Zn 0.42503(4) 0.5000 0.04874(4)
Zn1 Zn 0.94966(4) -0.0000 0.57430(4)
Zn2 Zn 0.07497(4) 0.0000 0.95126(4)
C16 C 0.8497(4) 0.0000 0.7259(4)
H7 H 0.9060 0.0000 0.7574
C17 C 0.7770(4) -0.0000 0.7696(4)
H8 H 0.7833 -0.0000 0.8302
C18 C 0.6956(4) -0.0000 0.7248(4)
C19 C 0.6890(5) 0.0000 0.6355(5)
H9 H 0.6335 0.0000 0.6023
C20 C 0.7646(4) -0.0000 0.5977(4)
H10 H 0.7605 0.0000 0.5373
C21 C 0.6164(5) 0.0000 0.7707(5)
H11 H 0.6223 -0.0000 0.8312
C22 C 0.4000(5) 0.0000 0.7442(5)
H12 H 0.3932 -0.0000 0.6837
C23 C 0.3223(4) -0.0000 0.7909(4)
C24 C 0.3318(4) -0.0000 0.8795(5)
H13 H 0.3882 -0.0000 0.9108
C25 C 0.2575(4) -0.0000 0.9213(4)
H14 H 0.2640 -0.0000 0.9818
C26 C 0.1690(4) -0.0000 0.7959(4)
H15 H 0.1118 -0.0000 0.7662
C27 C 0.2399(5) 0.0000 0.7488(5)
H16 H 0.2312 -0.0000 0.6883
N1 N 0.8443(3) -0.0000 0.6414(3)
N2 N 0.5408(4) 0.0000 0.7288(4)
N3 N 0.4751(4) 0.0000 0.7842(4)
N4 N 0.1772(3) -0.0000 0.8800(3)
C32 C 0.8584(4) 0.1610(2) 0.3010(3)
H27 H 0.8999 0.1443 0.2669
C33 C 0.8524(3) 0.1376(2) 0.3820(3)
C34 C 0.7917(4) 0.1619(3) 0.4308(3)
H28 H 0.7878 0.1457 0.4862
C35 C 0.7366(4) 0.2093(3) 0.4004(3)
H29 H 0.6952 0.2260 0.4346
C36 C 0.6236(3) 0.3171(2) 0.2929(3)
H30 H 0.6026 0.3127 0.3470
C37 C 0.5862(3) 0.3594(2) 0.2346(3)
H31 H 0.5382 0.3839 0.2481
C38 C 0.6179(3) 0.36661(19) 0.1562(3)
C39 C 0.6885(3) 0.3314(2) 0.1359(3)
H32 H 0.7116 0.3372 0.0831
C40 C 0.7972(4) 0.2416(3) 0.1847(3)
C41 C 0.8036(4) 0.2090(2) 0.2701(3)
C42 C 0.7423(3) 0.2324(2) 0.3193(3)
C43 C 0.6923(3) 0.2810(2) 0.2716(3)
C44 C 0.7247(3) 0.2879(2) 0.1935(3)
C45 C 0.9106(3) 0.0855(2) 0.4170(3)
C46 C 0.5770(3) 0.41502(18) 0.0958(3)
O5 O 0.9671(2) 0.06569(14) 0.37191(19)
O7 O 0.8989(2) 0.06562(16) 0.4893(2)
O9 O 0.5032(2) 0.43515(15) 0.1102(2)
O12 O 0.6194(2) 0.43332(14) 0.0371(2)
C47 C 0.9163(8) 0.3230(5) 0.2521(7)
H33 H 0.9716 0.3430 0.2425
H34 H 0.9241 0.2997 0.3056
H35 H 0.8711 0.3548 0.2552
C48 C 0.8880(8) 0.2783(6) 0.1778(8)
H36 H 0.9351 0.2473 0.1744
H37 H 0.8823 0.3023 0.1241
C49 C 0.7118(9) 0.1700(6) 0.1044(8)
H38 H 0.7062 0.1432 0.0540
H39 H 0.6636 0.2001 0.0999
H40 H 0.7097 0.1446 0.1556
C50 C 0.7967(8) 0.2039(6) 0.1100(7)
H41 H 0.8464 0.1744 0.1157
H42 H 0.8002 0.2299 0.0589
Zn1_2 Zn 0.94966(4) 1.0000 0.57430(4)
Zn2_2 Zn 0.07497(4) 1.0000 0.95126(4)
C16_2 C 0.8497(4) 1.0000 0.7259(4)
H7_2 H 0.9060 1.0000 0.7574
C17_2 C 0.7770(4) 1.0000 0.7696(4)
H8_2 H 0.7833 1.0000 0.8302
C18_2 C 0.6956(4) 1.0000 0.7248(4)
C19_2 C 0.6890(5) 1.0000 0.6355(5)
H9_2 H 0.6335 1.0000 0.6023
C20_2 C 0.7646(4) 1.0000 0.5977(4)
H10_2 H 0.7605 1.0000 0.5373
C21_2 C 0.6164(5) 1.0000 0.7707(5)
H11_2 H 0.6223 1.0000 0.8312
C22_2 C 0.4000(5) 1.0000 0.7442(5)
H12_2 H 0.3932 1.0000 0.6837
C23_2 C 0.3223(4) 1.0000 0.7909(4)
C24_2 C 0.3318(4) 1.0000 0.8795(5)
H13_2 H 0.3882 1.0000 0.9108
C25_2 C 0.2575(4) 1.0000 0.9213(4)
H14_2 H 0.2640 1.0000 0.9818
C26_2 C 0.1690(4) 1.0000 0.7959(4)
H15_2 H 0.1118 1.0000 0.7662
C27_2 C 0.2399(5) 1.0000 0.7488(5)
H16_2 H 0.2312 1.0000 0.6883
N1_2 N 0.8443(3) 1.0000 0.6414(3)
N2_2 N 0.5408(4) 1.0000 0.7288(4)
N3_2 N 0.4751(4) 1.0000 0.7842(4)
N4_2 N 0.1772(3) 1.0000 0.8800(3)
O8 O 0.8989(2) 0.93438(16) 0.4893(2)
O6 O 0.9671(2) 0.93431(14) 0.37191(19)
O13 O 0.6194(2) 0.56668(14) 0.0371(2)
C22_3 C 0.1000(5) 0.5000 0.2558(5)
H12_3 H 0.1068 0.5000 0.3163
C23_3 C 0.1777(4) 0.5000 0.2091(4)
C24_3 C 0.1682(4) 0.5000 0.1205(5)
H13_3 H 0.1118 0.5000 0.0892
C25_3 C 0.2425(4) 0.5000 0.0787(4)
H14_3 H 0.2360 0.5000 0.0182
C26_3 C 0.3310(4) 0.5000 0.2041(4)
H15_3 H 0.3882 0.5000 0.2338
C27_3 C 0.2601(5) 0.5000 0.2512(5)
H16_3 H 0.2688 0.5000 0.3117
N3_3 N 0.0249(4) 0.5000 0.2158(4)
N4_3 N 0.3228(3) 0.5000 0.1200(3)
O10 O 0.5032(2) 0.56485(15) 0.1102(2)
C1 C 0.8584(4) 0.8390(2) 0.3010(3)
H1 H 0.8999 0.8557 0.2669
C2 C 0.8524(3) 0.8624(2) 0.3820(3)
C3 C 0.7917(4) 0.8381(3) 0.4308(3)
H2 H 0.7878 0.8543 0.4862
C4 C 0.7366(4) 0.7907(3) 0.4004(3)
H3 H 0.6952 0.7740 0.4346
C5 C 0.6236(3) 0.6829(2) 0.2929(3)
H4 H 0.6026 0.6873 0.3470
C6 C 0.5862(3) 0.6406(2) 0.2346(3)
H5 H 0.5382 0.6161 0.2481
C7 C 0.6179(3) 0.63339(19) 0.1562(3)
C8 C 0.6885(3) 0.6686(2) 0.1359(3)
H6 H 0.7116 0.6628 0.0831
C9 C 0.7972(4) 0.7584(3) 0.1847(3)
C10 C 0.8036(4) 0.7910(2) 0.2701(3)
C11 C 0.7423(3) 0.7676(2) 0.3193(3)
C12 C 0.6923(3) 0.7190(2) 0.2716(3)
C13 C 0.7247(3) 0.7121(2) 0.1935(3)
C14 C 0.9106(3) 0.9145(2) 0.4170(3)
C15 C 0.5770(3) 0.58498(18) 0.0958(3)
C28 C 0.9163(8) 0.6770(5) 0.2521(7)
H17 H 0.9716 0.6570 0.2425
H18 H 0.9241 0.7003 0.3056
H19 H 0.8711 0.6452 0.2552
C29 C 0.8880(8) 0.7217(6) 0.1778(8)
H20 H 0.9351 0.7527 0.1744
H21 H 0.8823 0.6977 0.1241
C30 C 0.7118(9) 0.8300(6) 0.1044(8)
H22 H 0.7062 0.8568 0.0540
H23 H 0.6636 0.7999 0.0999
H24 H 0.7097 0.8554 0.1556
C31 C 0.7967(8) 0.7961(6) 0.1100(7)
H25 H 0.8464 0.8256 0.1157
H26 H 0.8002 0.7701 0.0589
C1_2 C 0.1416(4) 0.1610(2) 0.6990(3)
H1_2 H 0.1001 0.1443 0.7331
C2_2 C 0.1476(3) 0.1376(2) 0.6180(3)
C3_2 C 0.2083(4) 0.1619(3) 0.5692(3)
H2_2 H 0.2122 0.1457 0.5138
C4_2 C 0.2634(4) 0.2093(3) 0.5996(3)
H3_2 H 0.3048 0.2260 0.5654
C5_2 C 0.3764(3) 0.3171(2) 0.7071(3)
H4_2 H 0.3974 0.3127 0.6530
C6_2 C 0.4138(3) 0.3594(2) 0.7654(3)
H5_2 H 0.4618 0.3839 0.7519
C7_2 C 0.3821(3) 0.36661(19) 0.8438(3)
C8_2 C 0.3115(3) 0.3314(2) 0.8641(3)
H6_2 H 0.2884 0.3372 0.9169
C9_2 C 0.2028(4) 0.2416(3) 0.8153(3)
C10_2 C 0.1964(4) 0.2090(2) 0.7299(3)
C11_2 C 0.2577(3) 0.2324(2) 0.6807(3)
C12_2 C 0.3077(3) 0.2810(2) 0.7284(3)
C13_2 C 0.2753(3) 0.2879(2) 0.8065(3)
C14_2 C 0.0894(3) 0.0855(2) 0.5830(3)
C15_2 C 0.4230(3) 0.41502(18) 0.9042(3)
O1 O 0.0329(2) 0.06569(14) 0.62809(19)
O2 O 0.1011(2) 0.06562(16) 0.5107(2)
O3 O 0.4968(2) 0.43515(15) 0.8898(2)
O4 O 0.3806(2) 0.43332(14) 0.9629(2)
C28_2 C 0.0837(8) 0.3230(5) 0.7479(7)
H17_2 H 0.0284 0.3430 0.7575
H18_2 H 0.0759 0.2997 0.6944
H19_2 H 0.1289 0.3548 0.7448
C29_2 C 0.1120(8) 0.2783(6) 0.8222(8)
H20_2 H 0.0649 0.2473 0.8256
H21_2 H 0.1177 0.3023 0.8759
C30_2 C 0.2882(9) 0.1700(6) 0.8956(8)
H22_2 H 0.2938 0.1432 0.9460
H23_2 H 0.3364 0.2001 0.9001
H24_2 H 0.2903 0.1446 0.8444
C31_2 C 0.2033(8) 0.2039(6) 0.8900(7)
H25_2 H 0.1536 0.1744 0.8843
H26_2 H 0.1998 0.2299 0.9411
Zn3 Zn 0.05034(4) -0.0000 0.42570(4)
Zn4 Zn 0.57497(4) 0.5000 0.95126(4)
Zn3_2 Zn 0.05034(4) 1.0000 0.42570(4)
O6_2 O 0.0329(2) 0.93431(14) 0.62809(19)
Zn2_3 Zn 0.92503(4) 0.0000 0.04874(4)
C16_3 C 0.1503(4) 0.0000 0.2741(4)
H7_3 H 0.0940 0.0000 0.2426
C17_3 C 0.2230(4) -0.0000 0.2304(4)
H8_3 H 0.2167 -0.0000 0.1698
C18_3 C 0.3044(4) -0.0000 0.2752(4)
C19_3 C 0.3110(5) -0.0000 0.3645(5)
H9_3 H 0.3665 -0.0000 0.3977
C20_3 C 0.2354(4) -0.0000 0.4023(4)
H10_3 H 0.2395 -0.0000 0.4627
C21_3 C 0.3836(5) -0.0000 0.2293(5)
H11_3 H 0.3777 -0.0000 0.1688
C22_4 C 0.6000(5) -0.0000 0.2558(5)
H12_4 H 0.6068 -0.0000 0.3163
C23_4 C 0.6777(4) -0.0000 0.2091(4)
C24_4 C 0.6682(4) -0.0000 0.1205(5)
H13_4 H 0.6118 -0.0000 0.0892
C25_4 C 0.7425(4) -0.0000 0.0787(4)
H14_4 H 0.7360 -0.0000 0.0182
C26_4 C 0.8310(4) -0.0000 0.2041(4)
H15_4 H 0.8882 -0.0000 0.2338
C27_4 C 0.7601(5) 0.0000 0.2512(5)
H16_4 H 0.7688 -0.0000 0.3117
N1_3 N 0.1557(3) -0.0000 0.3586(3)
N2_3 N 0.4592(4) 0.0000 0.2712(4)
N3_4 N 0.5249(4) 0.0000 0.2158(4)
N4_4 N 0.8228(3) -0.0000 0.1200(3)
Zn2_4 Zn 0.92503(4) 1.0000 0.04874(4)
C16_4 C 0.1503(4) 1.0000 0.2741(4)
H7_4 H 0.0940 1.0000 0.2426
C17_4 C 0.2230(4) 1.0000 0.2304(4)
H8_4 H 0.2167 1.0000 0.1698
C18_4 C 0.3044(4) 1.0000 0.2752(4)
C19_4 C 0.3110(5) 1.0000 0.3645(5)
H9_4 H 0.3665 1.0000 0.3977
C20_4 C 0.2354(4) 1.0000 0.4023(4)
H10_4 H 0.2395 1.0000 0.4627
C21_4 C 0.3836(5) 1.0000 0.2293(5)
H11_4 H 0.3777 1.0000 0.1688
C22_5 C 0.6000(5) 1.0000 0.2558(5)
H12_5 H 0.6068 1.0000 0.3163
C23_5 C 0.6777(4) 1.0000 0.2091(4)
C24_5 C 0.6682(4) 1.0000 0.1205(5)
H13_5 H 0.6118 1.0000 0.0892
C25_5 C 0.7425(4) 1.0000 0.0787(4)
H14_5 H 0.7360 1.0000 0.0182
C26_5 C 0.8310(4) 1.0000 0.2041(4)
H15_5 H 0.8882 1.0000 0.2338
C27_5 C 0.7601(5) 1.0000 0.2512(5)
H16_5 H 0.7688 1.0000 0.3117
N1_4 N 0.1557(3) 1.0000 0.3586(3)
N2_4 N 0.4592(4) 1.0000 0.2712(4)
N3_5 N 0.5249(4) 1.0000 0.2158(4)
N4_5 N 0.8228(3) 1.0000 0.1200(3)
O8_2 O 0.1011(2) 0.93438(16) 0.5107(2)
C22_6 C 0.9000(5) 0.5000 0.7442(5)
H12_6 H 0.8932 0.5000 0.6837
C23_6 C 0.8223(4) 0.5000 0.7909(4)
C24_6 C 0.8318(4) 0.5000 0.8795(5)
H13_6 H 0.8882 0.5000 0.9108
C25_6 C 0.7575(4) 0.5000 0.9213(4)
H14_6 H 0.7640 0.5000 0.9818
C26_6 C 0.6690(4) 0.5000 0.7959(4)
H15_6 H 0.6118 0.5000 0.7662
C27_6 C 0.7399(5) 0.5000 0.7488(5)
H16_6 H 0.7312 0.5000 0.6883
N3_6 N 0.9751(4) 0.5000 0.7842(4)
N4_6 N 0.6772(3) 0.5000 0.8800(3)
O10_2 O 0.4968(2) 0.56485(15) 0.8898(2)
O13_2 O 0.3806(2) 0.56668(14) 0.9629(2)
C32_2 C 0.1416(4) 0.8390(2) 0.6990(3)
H27_2 H 0.1001 0.8557 0.7331
C33_2 C 0.1476(3) 0.8624(2) 0.6180(3)
C34_2 C 0.2083(4) 0.8381(3) 0.5692(3)
H28_2 H 0.2122 0.8543 0.5138
C35_2 C 0.2634(4) 0.7907(3) 0.5996(3)
H29_2 H 0.3048 0.7740 0.5654
C36_2 C 0.3764(3) 0.6829(2) 0.7071(3)
H30_2 H 0.3974 0.6873 0.6530
C37_2 C 0.4138(3) 0.6406(2) 0.7654(3)
H31_2 H 0.4618 0.6161 0.7519
C38_2 C 0.3821(3) 0.63339(19) 0.8438(3)
C39_2 C 0.3115(3) 0.6686(2) 0.8641(3)
H32_2 H 0.2884 0.6628 0.9169
C40_2 C 0.2028(4) 0.7584(3) 0.8153(3)
C41_2 C 0.1964(4) 0.7910(2) 0.7299(3)
C42_2 C 0.2577(3) 0.7676(2) 0.6807(3)
C43_2 C 0.3077(3) 0.7190(2) 0.7284(3)
C44_2 C 0.2753(3) 0.7121(2) 0.8065(3)
C45_2 C 0.0894(3) 0.9145(2) 0.5830(3)
C46_2 C 0.4230(3) 0.58498(18) 0.9042(3)
C47_2 C 0.0837(8) 0.6770(5) 0.7479(7)
H33_2 H 0.0284 0.6570 0.7575
H34_2 H 0.0759 0.7003 0.6944
H35_2 H 0.1289 0.6452 0.7448
C48_2 C 0.1120(8) 0.7217(6) 0.8222(8)
H36_2 H 0.0649 0.7527 0.8256
H37_2 H 0.1177 0.6977 0.8759
C49_2 C 0.2882(9) 0.8300(6) 0.8956(8)
H38_2 H 0.2938 0.8568 0.9460
H39_2 H 0.3364 0.7999 0.9001
H40_2 H 0.2903 0.8554 0.8444
C50_2 C 0.2033(8) 0.7961(6) 0.8900(7)
H41_2 H 0.1536 0.8256 0.8843
H42_2 H 0.1998 0.7701 0.9411
O13_3 O 0.1194(2) 0.06668(14) 0.0371(2)
O14 O 0.1194(2) 0.93332(14) 0.0371(2)
O10_3 O 0.9968(2) 0.06485(15) 0.8898(2)
O11 O 0.9968(2) 0.93515(15) 0.8898(2)
O10_4 O 0.0032(2) 0.06485(15) 0.1102(2)
O11_2 O 0.0032(2) 0.93515(15) 0.1102(2)
O13_4 O 0.8806(2) 0.06668(14) 0.9629(2)
O14_2 O 0.8806(2) 0.93332(14) 0.9629(2)
Zn1_3 Zn 0.44966(4) 0.5000 0.57430(4)
C1_3 C 0.6416(4) 0.6610(2) 0.6990(3)
H1_3 H 0.6001 0.6443 0.7331
C2_3 C 0.6476(3) 0.6376(2) 0.6180(3)
C3_3 C 0.7083(4) 0.6619(3) 0.5692(3)
H2_3 H 0.7122 0.6457 0.5138
C4_3 C 0.7634(4) 0.7093(3) 0.5996(3)
H3_3 H 0.8048 0.7260 0.5654
C5_3 C 0.8764(3) 0.8171(2) 0.7071(3)
H4_3 H 0.8974 0.8127 0.6530
C6_3 C 0.9138(3) 0.8594(2) 0.7654(3)
H5_3 H 0.9618 0.8839 0.7519
C7_3 C 0.8821(3) 0.86661(19) 0.8438(3)
C8_3 C 0.8115(3) 0.8314(2) 0.8641(3)
H6_3 H 0.7884 0.8372 0.9169
C9_3 C 0.7028(4) 0.7416(3) 0.8153(3)
C10_3 C 0.6964(4) 0.7090(2) 0.7299(3)
C11_3 C 0.7577(3) 0.7324(2) 0.6807(3)
C12_3 C 0.8077(3) 0.7810(2) 0.7284(3)
C13_3 C 0.7753(3) 0.7879(2) 0.8065(3)
C14_3 C 0.5894(3) 0.5855(2) 0.5830(3)
C15_3 C 0.9230(3) 0.91502(18) 0.9042(3)
C16_5 C 0.3497(4) 0.5000 0.7259(4)
H7_5 H 0.4060 0.5000 0.7574
C17_5 C 0.2770(4) 0.5000 0.7696(4)
H8_5 H 0.2833 0.5000 0.8302
C18_5 C 0.1956(4) 0.5000 0.7248(4)
C19_5 C 0.1890(5) 0.5000 0.6355(5)
H9_5 H 0.1335 0.5000 0.6023
C20_5 C 0.2646(4) 0.5000 0.5977(4)
H10_5 H 0.2605 0.5000 0.5373
C21_5 C 0.1164(5) 0.5000 0.7707(5)
H11_5 H 0.1223 0.5000 0.8312
N1_5 N 0.3443(3) 0.5000 0.6414(3)
N2_5 N 0.0408(4) 0.5000 0.7288(4)
O1_2 O 0.5329(2) 0.56569(14) 0.62809(19)
O2_2 O 0.6011(2) 0.56562(16) 0.5107(2)
C28_3 C 0.5837(8) 0.8230(5) 0.7479(7)
H17_3 H 0.5284 0.8430 0.7575
H18_3 H 0.5759 0.7997 0.6944
H19_3 H 0.6289 0.8548 0.7448
C29_3 C 0.6120(8) 0.7783(6) 0.8222(8)
H20_3 H 0.5649 0.7473 0.8256
H21_3 H 0.6177 0.8023 0.8759
C30_3 C 0.7882(9) 0.6700(6) 0.8956(8)
H22_3 H 0.7938 0.6432 0.9460
H23_3 H 0.8364 0.7001 0.9001
H24_3 H 0.7903 0.6446 0.8444
C31_3 C 0.7033(8) 0.7039(6) 0.8900(7)
H25_3 H 0.6536 0.6744 0.8843
H26_3 H 0.6998 0.7299 0.9411
Zn3_3 Zn 0.55034(4) 0.5000 0.42570(4)
C32_3 C 0.3584(4) 0.6610(2) 0.3010(3)
H27_3 H 0.3999 0.6443 0.2669
C33_3 C 0.3524(3) 0.6376(2) 0.3820(3)
C34_3 C 0.2917(4) 0.6619(3) 0.4308(3)
H28_3 H 0.2878 0.6457 0.4862
C35_3 C 0.2366(4) 0.7093(3) 0.4004(3)
H29_3 H 0.1952 0.7260 0.4346
C36_3 C 0.1236(3) 0.8171(2) 0.2929(3)
H30_3 H 0.1026 0.8127 0.3470
C37_3 C 0.0862(3) 0.8594(2) 0.2346(3)
H31_3 H 0.0382 0.8839 0.2481
C38_3 C 0.1179(3) 0.86661(19) 0.1562(3)
C39_3 C 0.1885(3) 0.8314(2) 0.1359(3)
H32_3 H 0.2116 0.8372 0.0831
C40_3 C 0.2972(4) 0.7416(3) 0.1847(3)
C41_3 C 0.3036(4) 0.7090(2) 0.2701(3)
C42_3 C 0.2423(3) 0.7324(2) 0.3193(3)
C43_3 C 0.1923(3) 0.7810(2) 0.2716(3)
C44_3 C 0.2247(3) 0.7879(2) 0.1935(3)
C45_3 C 0.4106(3) 0.5855(2) 0.4170(3)
C46_3 C 0.0770(3) 0.91502(18) 0.0958(3)
O5_2 O 0.4671(2) 0.56569(14) 0.37191(19)
O6_3 O 0.5329(2) 0.43431(14) 0.62809(19)
O7_2 O 0.3989(2) 0.56562(16) 0.4893(2)
O8_3 O 0.3989(2) 0.43438(16) 0.4893(2)
C47_3 C 0.4163(8) 0.8230(5) 0.2521(7)
H33_3 H 0.4716 0.8430 0.2425
H34_3 H 0.4241 0.7997 0.3056
H35_3 H 0.3711 0.8548 0.2552
C48_3 C 0.3880(8) 0.7783(6) 0.1778(8)
H36_3 H 0.4351 0.7473 0.1744
H37_3 H 0.3823 0.8023 0.1241
C49_3 C 0.2118(9) 0.6700(6) 0.1044(8)
H38_3 H 0.2062 0.6432 0.0540
H39_3 H 0.1636 0.7001 0.0999
H40_3 H 0.2097 0.6446 0.1556
C50_3 C 0.2967(8) 0.7039(6) 0.1100(7)
H41_3 H 0.3464 0.6744 0.1157
H42_3 H 0.3002 0.7299 0.0589
C16_6 C 0.6503(4) 0.5000 0.2741(4)
H7_6 H 0.5940 0.5000 0.2426
C17_6 C 0.7230(4) 0.5000 0.2304(4)
H8_6 H 0.7167 0.5000 0.1698
C18_6 C 0.8044(4) 0.5000 0.2752(4)
C19_6 C 0.8110(5) 0.5000 0.3645(5)
H9_6 H 0.8665 0.5000 0.3977
C20_6 C 0.7354(4) 0.5000 0.4023(4)
H10_6 H 0.7395 0.5000 0.4627
C21_6 C 0.8836(5) 0.5000 0.2293(5)
H11_6 H 0.8777 0.5000 0.1688
N1_6 N 0.6557(3) 0.5000 0.3586(3)
N2_6 N 0.9592(4) 0.5000 0.2712(4)
O6_4 O 0.4671(2) 0.43431(14) 0.37191(19)
O8_4 O 0.6011(2) 0.43438(16) 0.5107(2)
C1_4 C 0.3584(4) 0.3390(2) 0.3010(3)
H1_4 H 0.3999 0.3557 0.2669
C2_4 C 0.3524(3) 0.3624(2) 0.3820(3)
C3_4 C 0.2917(4) 0.3381(3) 0.4308(3)
H2_4 H 0.2878 0.3543 0.4862
C4_4 C 0.2366(4) 0.2907(3) 0.4004(3)
H3_4 H 0.1952 0.2740 0.4346
C5_4 C 0.1236(3) 0.1829(2) 0.2929(3)
H4_4 H 0.1026 0.1873 0.3470
C6_4 C 0.0862(3) 0.1406(2) 0.2346(3)
H5_4 H 0.0382 0.1161 0.2481
C7_4 C 0.1179(3) 0.13339(19) 0.1562(3)
C8_4 C 0.1885(3) 0.1686(2) 0.1359(3)
H6_4 H 0.2116 0.1628 0.0831
C9_4 C 0.2972(4) 0.2584(3) 0.1847(3)
C10_4 C 0.3036(4) 0.2910(2) 0.2701(3)
C11_4 C 0.2423(3) 0.2676(2) 0.3193(3)
C12_4 C 0.1923(3) 0.2190(2) 0.2716(3)
C13_4 C 0.2247(3) 0.2121(2) 0.1935(3)
C14_4 C 0.4106(3) 0.4145(2) 0.4170(3)
C15_4 C 0.0770(3) 0.08498(18) 0.0958(3)
C28_4 C 0.4163(8) 0.1770(5) 0.2521(7)
H17_4 H 0.4716 0.1570 0.2425
H18_4 H 0.4241 0.2003 0.3056
H19_4 H 0.3711 0.1452 0.2552
C29_4 C 0.3880(8) 0.2217(6) 0.1778(8)
H20_4 H 0.4351 0.2527 0.1744
H21_4 H 0.3823 0.1977 0.1241
C30_4 C 0.2118(9) 0.3300(6) 0.1044(8)
H22_4 H 0.2062 0.3568 0.0540
H23_4 H 0.1636 0.2999 0.0999
H24_4 H 0.2097 0.3554 0.1556
C31_4 C 0.2967(8) 0.2961(6) 0.1100(7)
H25_4 H 0.3464 0.3256 0.1157
H26_4 H 0.3002 0.2701 0.0589
C32_4 C 0.6416(4) 0.3390(2) 0.6990(3)
H27_4 H 0.6001 0.3557 0.7331
C33_4 C 0.6476(3) 0.3624(2) 0.6180(3)
C34_4 C 0.7083(4) 0.3381(3) 0.5692(3)
H28_4 H 0.7122 0.3543 0.5138
C35_4 C 0.7634(4) 0.2907(3) 0.5996(3)
H29_4 H 0.8048 0.2740 0.5654
C36_4 C 0.8764(3) 0.1829(2) 0.7071(3)
H30_4 H 0.8974 0.1873 0.6530
C37_4 C 0.9138(3) 0.1406(2) 0.7654(3)
H31_4 H 0.9618 0.1161 0.7519
C38_4 C 0.8821(3) 0.13339(19) 0.8438(3)
C39_4 C 0.8115(3) 0.1686(2) 0.8641(3)
H32_4 H 0.7884 0.1628 0.9169
C40_4 C 0.7028(4) 0.2584(3) 0.8153(3)
C41_4 C 0.6964(4) 0.2910(2) 0.7299(3)
C42_4 C 0.7577(3) 0.2676(2) 0.6807(3)
C43_4 C 0.8077(3) 0.2190(2) 0.7284(3)
C44_4 C 0.7753(3) 0.2121(2) 0.8065(3)
C45_4 C 0.5894(3) 0.4145(2) 0.5830(3)
C46_4 C 0.9230(3) 0.08498(18) 0.9042(3)
C47_4 C 0.5837(8) 0.1770(5) 0.7479(7)
H33_4 H 0.5284 0.1570 0.7575
H34_4 H 0.5759 0.2003 0.6944
H35_4 H 0.6289 0.1452 0.7448
C48_4 C 0.6120(8) 0.2217(6) 0.8222(8)
H36_4 H 0.5649 0.2527 0.8256
H37_4 H 0.6177 0.1977 0.8759
C49_4 C 0.7882(9) 0.3300(6) 0.8956(8)
H38_4 H 0.7938 0.3568 0.9460
H39_4 H 0.8364 0.2999 0.9001
H40_4 H 0.7903 0.3554 0.8444
C50_4 C 0.7033(8) 0.2961(6) 0.8900(7)
H41_4 H 0.6536 0.3256 0.8843
H42_4 H 0.6998 0.2701 0.9411
loop_
_geom_bond_atom_site_label_1
_geom_bond_atom_site_label_2
_geom_bond_site_symmetry_1
_geom_bond_site_symmetry_2
Zn1 N1 1_555 1_555
Zn2 N4 1_555 1_555
C16 H7 1_555 1_555
C17 C16 1_555 1_555
H8 C17 1_555 1_555
C18 C17 1_555 1_555
C19 C18 1_555 1_555
H9 C19 1_555 1_555
C20 C19 1_555 1_555
H10 C20 1_555 1_555
C21 C18 1_555 1_555
H11 C21 1_555 1_555
C22 H12 1_555 1_555
C23 C22 1_555 1_555
C24 C23 1_555 1_555
H13 C24 1_555 1_555
C25 C24 1_555 1_555
H14 C25 1_555 1_555
C26 H15 1_555 1_555
C27 C23 1_555 1_555
H16 C27 1_555 1_555
N1 C16 1_555 1_555
N2 C21 1_555 1_555
N3 C22 1_555 1_555
N4 C25 1_555 1_555
Zn5 O9 1_555 1_555
C32 H27 1_555 1_555
C33 C32 1_555 1_555
C34 C33 1_555 1_555
H28 C34 1_555 1_555
C35 C34 1_555 1_555
H29 C35 1_555 1_555
C36 H30 1_555 1_555
C37 C36 1_555 1_555
H31 C37 1_555 1_555
C38 C37 1_555 1_555
C39 C38 1_555 1_555
H32 C39 1_555 1_555
C40 C41 1_555 1_555
C41 C32 1_555 1_555
C42 C35 1_555 1_555
C43 C36 1_555 1_555
C44 C39 1_555 1_555
C45 C33 1_555 1_555
C46 C38 1_555 1_555
O7 Zn1 1_555 1_555
O9 C46 1_555 1_555
O12 C46 1_555 1_555
C47 H33 1_555 1_555
H34 C47 1_555 1_555
H35 C47 1_555 1_555
C48 C40 1_555 1_555
H36 C48 1_555 1_555
H37 C48 1_555 1_555
C49 H38 1_555 1_555
H39 C49 1_555 1_555
H40 C49 1_555 1_555
C50 C40 1_555 1_555
H41 C50 1_555 1_555
H42 C50 1_555 1_555
C20 N1 1_555 1_555
C26 C27 1_555 1_555
C26 N4 1_555 1_555
N2 N3 1_555 1_555
C40 C44 1_555 1_555
C41 C42 1_555 1_555
C42 C43 1_555 1_555
C43 C44 1_555 1_555
C45 O5 1_555 1_555
C45 O7 1_555 1_555
C47 C48 1_555 1_555
C49 C50 1_555 1_555
Zn1_2 N1_2 1_555 1_555
Zn2_2 N4_2 1_555 1_555
C16_2 H7_2 1_555 1_555
C17_2 C16_2 1_555 1_555
H8_2 C17_2 1_555 1_555
C18_2 C17_2 1_555 1_555
C19_2 C18_2 1_555 1_555
H9_2 C19_2 1_555 1_555
C20_2 C19_2 1_555 1_555
H10_2 C20_2 1_555 1_555
C21_2 C18_2 1_555 1_555
H11_2 C21_2 1_555 1_555
C22_2 H12_2 1_555 1_555
C23_2 C22_2 1_555 1_555
C24_2 C23_2 1_555 1_555
H13_2 C24_2 1_555 1_555
C25_2 C24_2 1_555 1_555
H14_2 C25_2 1_555 1_555
C26_2 H15_2 1_555 1_555
C27_2 C23_2 1_555 1_555
H16_2 C27_2 1_555 1_555
N1_2 C16_2 1_555 1_555
N2_2 C21_2 1_555 1_555
N3_2 C22_2 1_555 1_555
N4_2 C25_2 1_555 1_555
O8 Zn1_2 1_555 1_555
C20_2 N1_2 1_555 1_555
C26_2 C27_2 1_555 1_555
C26_2 N4_2 1_555 1_555
N2_2 N3_2 1_555 1_555
Zn5 N4_3 1_555 1_555
C22_3 H12_3 1_555 1_555
C23_3 C22_3 1_555 1_555
C24_3 C23_3 1_555 1_555
H13_3 C24_3 1_555 1_555
C25_3 C24_3 1_555 1_555
H14_3 C25_3 1_555 1_555
C26_3 H15_3 1_555 1_555
C27_3 C23_3 1_555 1_555
H16_3 C27_3 1_555 1_555
N3_3 C22_3 1_555 1_555
N4_3 C25_3 1_555 1_555
O10 Zn5 1_555 1_555
C26_3 C27_3 1_555 1_555
C26_3 N4_3 1_555 1_555
C1 H1 1_555 1_555
C2 C1 1_555 1_555
C3 C2 1_555 1_555
H2 C3 1_555 1_555
C4 C3 1_555 1_555
H3 C4 1_555 1_555
C5 H4 1_555 1_555
C6 C5 1_555 1_555
H5 C6 1_555 1_555
C7 C6 1_555 1_555
C8 C7 1_555 1_555
H6 C8 1_555 1_555
C9 C10 1_555 1_555
C10 C1 1_555 1_555
C11 C4 1_555 1_555
C12 C5 1_555 1_555
C13 C8 1_555 1_555
C14 C2 1_555 1_555
C15 C7 1_555 1_555
O8 C14 1_555 1_555
O10 C15 1_555 1_555
O13 C15 1_555 1_555
C28 H17 1_555 1_555
H18 C28 1_555 1_555
H19 C28 1_555 1_555
C29 C9 1_555 1_555
H20 C29 1_555 1_555
H21 C29 1_555 1_555
C30 H22 1_555 1_555
H23 C30 1_555 1_555
H24 C30 1_555 1_555
C31 C9 1_555 1_555
H25 C31 1_555 1_555
H26 C31 1_555 1_555
C9 C13 1_555 1_555
C10 C11 1_555 1_555
C11 C12 1_555 1_555
C12 C13 1_555 1_555
C14 O6 1_555 1_555
C28 C29 1_555 1_555
C30 C31 1_555 1_555
C1_2 H1_2 1_555 1_555
C2_2 C1_2 1_555 1_555
C3_2 C2_2 1_555 1_555
H2_2 C3_2 1_555 1_555
C4_2 C3_2 1_555 1_555
H3_2 C4_2 1_555 1_555
C5_2 H4_2 1_555 1_555
C6_2 C5_2 1_555 1_555
H5_2 C6_2 1_555 1_555
C7_2 C6_2 1_555 1_555
C8_2 C7_2 1_555 1_555
H6_2 C8_2 1_555 1_555
C9_2 C10_2 1_555 1_555
C10_2 C1_2 1_555 1_555
C11_2 C4_2 1_555 1_555
C12_2 C5_2 1_555 1_555
C13_2 C8_2 1_555 1_555
C14_2 C2_2 1_555 1_555
C15_2 C7_2 1_555 1_555
O2 C14_2 1_555 1_555
O3 C15_2 1_555 1_555
O4 C15_2 1_555 1_555
C28_2 H17_2 1_555 1_555
H18_2 C28_2 1_555 1_555
H19_2 C28_2 1_555 1_555
C29_2 C9_2 1_555 1_555
H20_2 C29_2 1_555 1_555
H21_2 C29_2 1_555 1_555
C30_2 H22_2 1_555 1_555
H23_2 C30_2 1_555 1_555
H24_2 C30_2 1_555 1_555
C31_2 C9_2 1_555 1_555
H25_2 C31_2 1_555 1_555
H26_2 C31_2 1_555 1_555
Zn3 O2 1_555 1_555
Zn4 O3 1_555 1_555
C9_2 C13_2 1_555 1_555
C10_2 C11_2 1_555 1_555
C11_2 C12_2 1_555 1_555
C12_2 C13_2 1_555 1_555
C14_2 O1 1_555 1_555
C28_2 C29_2 1_555 1_555
C30_2 C31_2 1_555 1_555
Zn3 N1_3 1_555 1_555
Zn2_3 N4_4 1_555 1_555
C16_3 H7_3 1_555 1_555
C17_3 C16_3 1_555 1_555
H8_3 C17_3 1_555 1_555
C18_3 C17_3 1_555 1_555
C19_3 C18_3 1_555 1_555
H9_3 C19_3 1_555 1_555
C20_3 C19_3 1_555 1_555
H10_3 C20_3 1_555 1_555
C21_3 C18_3 1_555 1_555
H11_3 C21_3 1_555 1_555
C22_4 H12_4 1_555 1_555
C23_4 C22_4 1_555 1_555
C24_4 C23_4 1_555 1_555
H13_4 C24_4 1_555 1_555
C25_4 C24_4 1_555 1_555
H14_4 C25_4 1_555 1_555
C26_4 H15_4 1_555 1_555
C27_4 C23_4 1_555 1_555
H16_4 C27_4 1_555 1_555
N1_3 C16_3 1_555 1_555
N2_3 C21_3 1_555 1_555
N3_4 C22_4 1_555 1_555
N4_4 C25_4 1_555 1_555
C20_3 N1_3 1_555 1_555
C26_4 C27_4 1_555 1_555
C26_4 N4_4 1_555 1_555
N2_3 N3_4 1_555 1_555
Zn3_2 N1_4 1_555 1_555
Zn2_4 N4_5 1_555 1_555
C16_4 H7_4 1_555 1_555
C17_4 C16_4 1_555 1_555
H8_4 C17_4 1_555 1_555
C18_4 C17_4 1_555 1_555
C19_4 C18_4 1_555 1_555
H9_4 C19_4 1_555 1_555
C20_4 C19_4 1_555 1_555
H10_4 C20_4 1_555 1_555
C21_4 C18_4 1_555 1_555
H11_4 C21_4 1_555 1_555
C22_5 H12_5 1_555 1_555
C23_5 C22_5 1_555 1_555
C24_5 C23_5 1_555 1_555
H13_5 C24_5 1_555 1_555
C25_5 C24_5 1_555 1_555
H14_5 C25_5 1_555 1_555
C26_5 H15_5 1_555 1_555
C27_5 C23_5 1_555 1_555
H16_5 C27_5 1_555 1_555
N1_4 C16_4 1_555 1_555
N2_4 C21_4 1_555 1_555
N3_5 C22_5 1_555 1_555
N4_5 C25_5 1_555 1_555
O8_2 Zn3_2 1_555 1_555
C20_4 N1_4 1_555 1_555
C26_5 C27_5 1_555 1_555
C26_5 N4_5 1_555 1_555
N2_4 N3_5 1_555 1_555
Zn4 N4_6 1_555 1_555
C22_6 H12_6 1_555 1_555
C23_6 C22_6 1_555 1_555
C24_6 C23_6 1_555 1_555
H13_6 C24_6 1_555 1_555
C25_6 C24_6 1_555 1_555
H14_6 C25_6 1_555 1_555
C26_6 H15_6 1_555 1_555
C27_6 C23_6 1_555 1_555
H16_6 C27_6 1_555 1_555
N3_6 C22_6 1_555 1_555
N4_6 C25_6 1_555 1_555
O10_2 Zn4 1_555 1_555
C26_6 C27_6 1_555 1_555
C26_6 N4_6 1_555 1_555
C32_2 H27_2 1_555 1_555
C33_2 C32_2 1_555 1_555
C34_2 C33_2 1_555 1_555
H28_2 C34_2 1_555 1_555
C35_2 C34_2 1_555 1_555
H29_2 C35_2 1_555 1_555
C36_2 H30_2 1_555 1_555
C37_2 C36_2 1_555 1_555
H31_2 C37_2 1_555 1_555
C38_2 C37_2 1_555 1_555
C39_2 C38_2 1_555 1_555
H32_2 C39_2 1_555 1_555
C40_2 C41_2 1_555 1_555
C41_2 C32_2 1_555 1_555
C42_2 C35_2 1_555 1_555
C43_2 C36_2 1_555 1_555
C44_2 C39_2 1_555 1_555
C45_2 C33_2 1_555 1_555
C46_2 C38_2 1_555 1_555
O10_2 C46_2 1_555 1_555
O13_2 C46_2 1_555 1_555
C47_2 H33_2 1_555 1_555
H34_2 C47_2 1_555 1_555
H35_2 C47_2 1_555 1_555
C48_2 C40_2 1_555 1_555
H36_2 C48_2 1_555 1_555
H37_2 C48_2 1_555 1_555
C49_2 H38_2 1_555 1_555
H39_2 C49_2 1_555 1_555
H40_2 C49_2 1_555 1_555
C50_2 C40_2 1_555 1_555
H41_2 C50_2 1_555 1_555
H42_2 C50_2 1_555 1_555
C40_2 C44_2 1_555 1_555
C41_2 C42_2 1_555 1_555
C42_2 C43_2 1_555 1_555
C43_2 C44_2 1_555 1_555
C45_2 O6_2 1_555 1_555
C45_2 O8_2 1_555 1_555
C47_2 C48_2 1_555 1_555
C49_2 C50_2 1_555 1_555
Zn1_3 N1_5 1_555 1_555
C1_3 H1_3 1_555 1_555
C2_3 C1_3 1_555 1_555
C3_3 C2_3 1_555 1_555
H2_3 C3_3 1_555 1_555
C4_3 C3_3 1_555 1_555
H3_3 C4_3 1_555 1_555
C5_3 H4_3 1_555 1_555
C6_3 C5_3 1_555 1_555
H5_3 C6_3 1_555 1_555
C7_3 C6_3 1_555 1_555
C8_3 C7_3 1_555 1_555
H6_3 C8_3 1_555 1_555
C9_3 C10_3 1_555 1_555
C10_3 C1_3 1_555 1_555
C11_3 C4_3 1_555 1_555
C12_3 C5_3 1_555 1_555
C13_3 C8_3 1_555 1_555
C14_3 C2_3 1_555 1_555
C15_3 C7_3 1_555 1_555
C16_5 H7_5 1_555 1_555
C17_5 C16_5 1_555 1_555
H8_5 C17_5 1_555 1_555
C18_5 C17_5 1_555 1_555
C19_5 C18_5 1_555 1_555
H9_5 C19_5 1_555 1_555
C20_5 C19_5 1_555 1_555
H10_5 C20_5 1_555 1_555
C21_5 C18_5 1_555 1_555
H11_5 C21_5 1_555 1_555
N1_5 C16_5 1_555 1_555
N2_5 C21_5 1_555 1_555
O1_2 Zn1_3 1_555 1_555
O2_2 C14_3 1_555 1_555
O11 C15_3 1_555 1_555
O14_2 C15_3 1_555 1_555
C28_3 H17_3 1_555 1_555
H18_3 C28_3 1_555 1_555
H19_3 C28_3 1_555 1_555
C29_3 C9_3 1_555 1_555
H20_3 C29_3 1_555 1_555
H21_3 C29_3 1_555 1_555
C30_3 H22_3 1_555 1_555
H23_3 C30_3 1_555 1_555
H24_3 C30_3 1_555 1_555
C31_3 C9_3 1_555 1_555
H25_3 C31_3 1_555 1_555
H26_3 C31_3 1_555 1_555
Zn3_3 O2_2 1_555 1_555
C32_3 H27_3 1_555 1_555
C33_3 C32_3 1_555 1_555
C34_3 C33_3 1_555 1_555
H28_3 C34_3 1_555 1_555
C35_3 C34_3 1_555 1_555
H29_3 C35_3 1_555 1_555
C36_3 H30_3 1_555 1_555
C37_3 C36_3 1_555 1_555
H31_3 C37_3 1_555 1_555
C38_3 C37_3 1_555 1_555
C39_3 C38_3 1_555 1_555
H32_3 C39_3 1_555 1_555
C40_3 C41_3 1_555 1_555
C41_3 C32_3 1_555 1_555
C42_3 C35_3 1_555 1_555
C43_3 C36_3 1_555 1_555
C44_3 C39_3 1_555 1_555
C45_3 C33_3 1_555 1_555
C46_3 C38_3 1_555 1_555
O5_2 Zn3_3 1_555 1_555
O6_3 Zn1_3 1_555 1_555
O7_2 Zn1_3 1_555 1_555
O8_3 Zn1_3 1_555 1_555
O11_2 C46_3 1_555 1_555
O14 C46_3 1_555 1_555
C47_3 H33_3 1_555 1_555
H34_3 C47_3 1_555 1_555
H35_3 C47_3 1_555 1_555
C48_3 C40_3 1_555 1_555
H36_3 C48_3 1_555 1_555
H37_3 C48_3 1_555 1_555
C49_3 H38_3 1_555 1_555
H39_3 C49_3 1_555 1_555
H40_3 C49_3 1_555 1_555
C50_3 C40_3 1_555 1_555
H41_3 C50_3 1_555 1_555
H42_3 C50_3 1_555 1_555
C9_3 C13_3 1_555 1_555
C10_3 C11_3 1_555 1_555
C11_3 C12_3 1_555 1_555
C12_3 C13_3 1_555 1_555
C14_3 O1_2 1_555 1_555
C20_5 N1_5 1_555 1_555
C28_3 C29_3 1_555 1_555
C30_3 C31_3 1_555 1_555
C40_3 C44_3 1_555 1_555
C41_3 C42_3 1_555 1_555
C42_3 C43_3 1_555 1_555
C43_3 C44_3 1_555 1_555
C45_3 O5_2 1_555 1_555
C45_3 O7_2 1_555 1_555
C47_3 C48_3 1_555 1_555
C49_3 C50_3 1_555 1_555
Zn3_3 N1_6 1_555 1_555
C16_6 H7_6 1_555 1_555
C17_6 C16_6 1_555 1_555
H8_6 C17_6 1_555 1_555
C18_6 C17_6 1_555 1_555
C19_6 C18_6 1_555 1_555
H9_6 C19_6 1_555 1_555
C20_6 C19_6 1_555 1_555
H10_6 C20_6 1_555 1_555
C21_6 C18_6 1_555 1_555
H11_6 C21_6 1_555 1_555
N1_6 C16_6 1_555 1_555
N2_6 C21_6 1_555 1_555
O6_4 Zn3_3 1_555 1_555
O8_4 Zn3_3 1_555 1_555
C20_6 N1_6 1_555 1_555
C1_4 H1_4 1_555 1_555
C2_4 C1_4 1_555 1_555
C3_4 C2_4 1_555 1_555
H2_4 C3_4 1_555 1_555
C4_4 C3_4 1_555 1_555
H3_4 C4_4 1_555 1_555
C5_4 H4_4 1_555 1_555
C6_4 C5_4 1_555 1_555
H5_4 C6_4 1_555 1_555
C7_4 C6_4 1_555 1_555
C8_4 C7_4 1_555 1_555
H6_4 C8_4 1_555 1_555
C9_4 C10_4 1_555 1_555
C10_4 C1_4 1_555 1_555
C11_4 C4_4 1_555 1_555
C12_4 C5_4 1_555 1_555
C13_4 C8_4 1_555 1_555
C14_4 C2_4 1_555 1_555
C15_4 C7_4 1_555 1_555
O8_3 C14_4 1_555 1_555
O10_4 C15_4 1_555 1_555
O13_3 C15_4 1_555 1_555
C28_4 H17_4 1_555 1_555
H18_4 C28_4 1_555 1_555
H19_4 C28_4 1_555 1_555
C29_4 C9_4 1_555 1_555
H20_4 C29_4 1_555 1_555
H21_4 C29_4 1_555 1_555
C30_4 H22_4 1_555 1_555
H23_4 C30_4 1_555 1_555
H24_4 C30_4 1_555 1_555
C31_4 C9_4 1_555 1_555
H25_4 C31_4 1_555 1_555
H26_4 C31_4 1_555 1_555
C32_4 H27_4 1_555 1_555
C33_4 C32_4 1_555 1_555
C34_4 C33_4 1_555 1_555
H28_4 C34_4 1_555 1_555
C35_4 C34_4 1_555 1_555
H29_4 C35_4 1_555 1_555
C36_4 H30_4 1_555 1_555
C37_4 C36_4 1_555 1_555
H31_4 C37_4 1_555 1_555
C38_4 C37_4 1_555 1_555
C39_4 C38_4 1_555 1_555
H32_4 C39_4 1_555 1_555
C40_4 C41_4 1_555 1_555
C41_4 C32_4 1_555 1_555
C42_4 C35_4 1_555 1_555
C43_4 C36_4 1_555 1_555
C44_4 C39_4 1_555 1_555
C45_4 C33_4 1_555 1_555
C46_4 C38_4 1_555 1_555
O10_3 C46_4 1_555 1_555
O13_4 C46_4 1_555 1_555
C47_4 H33_4 1_555 1_555
H34_4 C47_4 1_555 1_555
H35_4 C47_4 1_555 1_555
C48_4 C40_4 1_555 1_555
H36_4 C48_4 1_555 1_555
H37_4 C48_4 1_555 1_555
C49_4 H38_4 1_555 1_555
H39_4 C49_4 1_555 1_555
H40_4 C49_4 1_555 1_555
C50_4 C40_4 1_555 1_555
H41_4 C50_4 1_555 1_555
H42_4 C50_4 1_555 1_555
C9_4 C13_4 1_555 1_555
C10_4 C11_4 1_555 1_555
C11_4 C12_4 1_555 1_555
C12_4 C13_4 1_555 1_555
C14_4 O6_4 1_555 1_555
C28_4 C29_4 1_555 1_555
C30_4 C31_4 1_555 1_555
C40_4 C44_4 1_555 1_555
C41_4 C42_4 1_555 1_555
C42_4 C43_4 1_555 1_555
C43_4 C44_4 1_555 1_555
C45_4 O6_3 1_555 1_555
C45_4 O8_4 1_555 1_555
C47_4 C48_4 1_555 1_555
C49_4 C50_4 1_555 1_555

#END
