
###############################################################################
#
# This file contains modified crystal structure data generated from the
# MOF subset of the Cambridge Structural Database (CSD) v543 
# hosted by the Cambridge Crystallographic Data Centre (CCDC).
#
# This work is licensed under the Creative Commons
# Attribution-NonCommercial-ShareAlike 4.0 International License.
# To view a copy of this license, visit
# http://creativecommons.org/licenses/by-nc-sa/4.0/
# or send a letter to
# Creative Commons, PO Box 1866, Mountain View, CA 94042, USA.
#
# CIF created using the CSD Python API on 29 September 2022
# The structure has been converted into the P1 space group
# The structure has a 3D framework
# The original CSD entry OPOZEZ is in the monoclinic crystal system
# The framework has been calculated to contain at least 10.0% void space
# The void calculation uses a probe of radius 1.32A, grid spacing 0.4
#
###############################################################################

data_OPOZEZ
_chemical_formula_moiety         '(C232 H176 Cd8 N32 O32)n'
_symmetry_cell_setting           triclinic
_symmetry_space_group_name_H-M   'P 1'
_symmetry_Int_Tables_number      1
_space_group_name_Hall           'P 1'
loop_
_symmetry_equiv_pos_site_id
_symmetry_equiv_pos_as_xyz
1 x,y,z
_cell_length_a                   15.9388(11)
_cell_length_b                   28.520(2)
_cell_length_c                   16.1837(11)
_cell_angle_alpha                90
_cell_angle_beta                 105.7140(10)
_cell_angle_gamma                90
_cell_volume                     7081.75
loop_
_atom_site_label
_atom_site_type_symbol
_atom_site_fract_x
_atom_site_fract_y
_atom_site_fract_z
C54 C 0.0611(10) 0.0142(5) 0.8637(9)
C57 C 0.1707(10) 0.0456(5) 0.8025(10)
H43 H 0.1847 0.0652 0.7607
C58 C 0.0828(10) 0.0442(6) 0.8057(10)
H44 H 0.0398 0.0635 0.7689
N8 N 0.2338(7) 0.0216(3) 0.8538(7)
Cd3 Cd 0.38001(6) 0.03381(3) 0.86392(5)
O10 O 0.3748(6) 0.0749(3) 0.0014(5)
C1 C 0.3177(8) 0.1329(4) 0.5423(7)
H1 H 0.3104 0.1130 0.4938
C2 C 0.3222(8) 0.1139(4) 0.6239(7)
C3 C 0.3315(8) 0.1431(4) 0.6925(8)
H2 H 0.3328 0.1298 0.7467
C4 C 0.3391(9) 0.1909(4) 0.6869(7)
H3 H 0.3450 0.2104 0.7357
C5 C 0.3613(9) 0.2992(4) 0.6314(8)
H4 H 0.3650 0.2987 0.6910
C6 C 0.3702(9) 0.3407(4) 0.5905(7)
H5 H 0.3823 0.3687 0.6234
C7 C 0.3621(8) 0.3430(4) 0.5018(7)
C8 C 0.3468(9) 0.3009(4) 0.4533(8)
H6 H 0.3421 0.3015 0.3935
C9 C 0.3385(9) 0.2589(4) 0.4940(7)
C10 C 0.3466(9) 0.2582(4) 0.5829(7)
C11 C 0.3379(8) 0.2095(4) 0.6081(7)
C12 C 0.3240(8) 0.1809(3) 0.5342(7)
C13 C 0.3237(8) 0.2099(4) 0.4555(7)
C14 C 0.3963(11) 0.1951(4) 0.4172(9)
H7 H 0.4523 0.1972 0.4610
H8 H 0.3970 0.2157 0.3691
H9 H 0.3865 0.1626 0.3967
C15 C 0.2375(10) 0.2059(5) 0.3869(8)
H10 H 0.1898 0.2151 0.4112
H11 H 0.2287 0.1735 0.3665
H12 H 0.2381 0.2267 0.3388
C16 C 0.3193(8) 0.0613(4) 0.6344(8)
C17 C 0.3722(8) 0.3882(3) 0.4592(8)
H25 H 0.1378 0.0038 0.5724
C47 C 0.5784(9) 0.0103(4) 0.8771(7)
C48 C 0.6633(8) 0.0133(4) 0.8686(8)
C49 C 0.6841(8) 0.0502(4) 0.8244(8)
C50 C 0.6206(9) 0.0826(4) 0.7896(8)
H37 H 0.6334 0.1085 0.7582
C51 C 0.5383(8) 0.0775(4) 0.8005(8)
H38 H 0.4948 0.1001 0.7763
C52 C 0.7711(9) 0.0557(5) 0.8131(9)
H39 H 0.7827 0.0806 0.7787
C53 C 0.9745(9) 0.0089(6) 0.8741(11)
N5 N 0.5182(7) 0.0414(3) 0.8445(6)
N6 N 0.8320(8) 0.0272(5) 0.8493(9)
N7 N 0.9113(9) 0.0369(5) 0.8314(9)
O1 O 0.3098(6) 0.0358(2) 0.5706(5)
O2 O 0.3307(5) 0.0451(2) 0.7088(5)
O3 O 0.3742(7) 0.3870(3) 0.3836(5)
O4 O 0.3748(6) 0.4251(3) 0.5014(5)
Cd4 Cd 0.38001(6) 0.46619(3) 0.36392(5)
O9 O 0.3742(7) 0.1130(3) 0.8836(5)
H13 H 0.3881 0.8869 0.0136
C24 C 0.3560(9) 0.6580(4) 0.0106(7)
C25 C 0.3565(8) 0.6997(4) 0.0548(7)
H18 H 0.3481 0.6999 0.1107
C26 C 0.3695(9) 0.7414(4) 0.0152(8)
C30 C 0.3717(9) 0.7904(4) 0.0487(8)
C31 C 0.4501(9) 0.7960(4) 0.1292(7)
H19 H 0.5040 0.7873 0.1149
H20 H 0.4419 0.7756 0.1751
H21 H 0.4539 0.8287 0.1485
C32 C 0.2894(9) 0.8043(4) 0.0726(9)
H22 H 0.2391 0.8011 0.0223
H23 H 0.2942 0.8370 0.0922
H24 H 0.2817 0.7839 0.1187
C34 C 0.3410(8) 0.6119(4) 0.0530(8)
O7 O 0.3271(6) 0.5748(3) 0.0107(5)
O8 O 0.3454(6) 0.6139(3) 0.1319(5)
Cd6 Cd 0.33799(5) 0.53398(3) 0.14984(5)
Cd2 Cd 0.33799(5) 0.96602(3) 0.64984(5)
C18 C 0.3903(8) 0.8668(4) 0.9674(7)
C19 C 0.3988(8) 0.8852(4) 0.8890(8)
C20 C 0.4055(8) 0.8551(4) 0.8227(7)
H14 H 0.4114 0.8681 0.7705
C21 C 0.4038(9) 0.8070(4) 0.8316(7)
H15 H 0.4096 0.7867 0.7869
C22 C 0.3813(10) 0.6987(4) 0.8899(8)
H16 H 0.3900 0.6985 0.8341
C23 C 0.3677(9) 0.6575(4) 0.9288(8)
H17 H 0.3664 0.6286 0.8994
C27 C 0.3820(9) 0.7405(4) 0.9341(8)
C28 C 0.3932(9) 0.7892(4) 0.9091(7)
C29 C 0.3855(8) 0.8187(4) 0.9745(7)
C33 C 0.3991(7) 0.9376(4) 0.8754(8)
C35 C 0.1277(9) 0.9804(5) 0.6102(10)
C36 C 0.0463(10) 0.9743(6) 0.6154(11)
H26 H 0.0005 0.9933 0.5822
C37 C 0.0294(10) 0.9415(5) 0.6675(11)
C38 C 0.0955(10) 0.9168(5) 0.7170(11)
H27 H 0.0858 0.8951 0.7580
C39 C 0.1795(10) 0.9238(5) 0.7071(12)
H28 H 0.2259 0.9048 0.7394
H35 H 0.5638 0.9845 0.9078
H36 H 0.7055 0.9901 0.8931
H40 H 0.9629 0.9856 0.9113
N1 N 0.1963(7) 0.9554(3) 0.6552(7)
O5 O 0.4072(6) 0.9636(2) 0.9387(5)
O6 O 0.3874(5) 0.9531(2) 0.7998(5)
N9 N 0.4852(6) 0.9712(3) 0.6561(6)
O11 O 0.3271(6) 0.9252(3) 0.5107(5)
O12 O 0.3454(6) 0.8861(3) 0.6319(5)
C40 C 0.9397(11) 0.9336(6) 0.6786(11)
H29 H 0.9306 0.9102 0.7169
C41 C 0.7404(9) 0.9760(5) 0.6247(8)
C42 C 0.6542(9) 0.9732(4) 0.6359(8)
C43 C 0.6266(9) 0.9375(5) 0.6827(9)
H31 H 0.6657 0.9132 0.7085
C44 C 0.5420(8) 0.9379(4) 0.6912(9)
H32 H 0.5243 0.9137 0.7231
N2 N 0.8772(9) 0.9580(5) 0.6373(9)
N3 N 0.7970(8) 0.9466(5) 0.6571(8)
C54_2 C 0.0611(10) 0.4858(5) 0.3637(9)
C55 C 0.1252(10) 0.5130(5) 0.4149(10)
H41 H 0.1122 0.5351 0.4536
C56 C 0.2116(8) 0.5070(5) 0.4086(9)
H42 H 0.2565 0.5248 0.4462
C57_2 C 0.1707(10) 0.4544(5) 0.3025(10)
H43_2 H 0.1847 0.4348 0.2607
C58_2 C 0.0828(10) 0.4558(6) 0.3057(10)
H44_2 H 0.0398 0.4365 0.2689
N8_2 N 0.2338(7) 0.4784(3) 0.3538(7)
C1_2 C 0.3177(8) 0.3671(4) 0.0423(7)
C2_2 C 0.3222(8) 0.3861(4) 0.1239(7)
C3_2 C 0.3315(8) 0.3569(4) 0.1925(8)
H2_2 H 0.3328 0.3702 0.2467
C4_2 C 0.3391(9) 0.3091(4) 0.1869(7)
H3_2 H 0.3450 0.2896 0.2357
C5_2 C 0.3613(9) 0.2008(4) 0.1314(8)
H4_2 H 0.3650 0.2013 0.1910
C6_2 C 0.3702(9) 0.1593(4) 0.0905(7)
H5_2 H 0.3823 0.1313 0.1234
C7_2 C 0.3621(8) 0.1570(4) 0.0018(7)
C10_2 C 0.3466(9) 0.2418(4) 0.0829(7)
C11_2 C 0.3379(8) 0.2905(4) 0.1081(7)
C12_2 C 0.3240(8) 0.3191(3) 0.0342(7)
C16_2 C 0.3193(8) 0.4387(4) 0.1344(8)
C18_2 C 0.3903(8) 0.6332(4) 0.4674(7)
H13_2 H 0.3881 0.6131 0.5136
C19_2 C 0.3988(8) 0.6148(4) 0.3890(8)
C20_2 C 0.4055(8) 0.6449(4) 0.3227(7)
H14_2 H 0.4114 0.6319 0.2705
C21_2 C 0.4038(9) 0.6930(4) 0.3316(7)
H15_2 H 0.4096 0.7133 0.2869
C22_2 C 0.3813(10) 0.8013(4) 0.3899(8)
H16_2 H 0.3900 0.8015 0.3341
C23_2 C 0.3677(9) 0.8425(4) 0.4288(8)
H17_2 H 0.3664 0.8714 0.3994
C24_2 C 0.3560(9) 0.8420(4) 0.5106(7)
C25_2 C 0.3565(8) 0.8003(4) 0.5548(7)
H18_2 H 0.3481 0.8001 0.6107
C26_2 C 0.3695(9) 0.7586(4) 0.5152(8)
C27_2 C 0.3820(9) 0.7595(4) 0.4341(8)
C28_2 C 0.3932(9) 0.7108(4) 0.4091(7)
C29_2 C 0.3855(8) 0.6813(4) 0.4745(7)
C30_2 C 0.3717(9) 0.7096(4) 0.5487(8)
C31_2 C 0.4501(9) 0.7040(4) 0.6292(7)
H19_2 H 0.5040 0.7127 0.6149
H20_2 H 0.4419 0.7244 0.6751
H21_2 H 0.4539 0.6713 0.6485
C32_2 C 0.2894(9) 0.6957(4) 0.5726(9)
H22_2 H 0.2391 0.6989 0.5223
H23_2 H 0.2942 0.6630 0.5922
H24_2 H 0.2817 0.7161 0.6187
C33_2 C 0.3991(7) 0.5624(4) 0.3754(8)
C34_2 C 0.3410(8) 0.8881(4) 0.5530(8)
C35_2 C 0.1277(9) 0.5196(5) 0.1102(10)
H25_2 H 0.1378 0.4962 0.0724
C36_2 C 0.0463(10) 0.5257(6) 0.1154(11)
H26_2 H 0.0005 0.5067 0.0822
C37_2 C 0.0294(10) 0.5585(5) 0.1675(11)
C38_2 C 0.0955(10) 0.5832(5) 0.2170(11)
H27_2 H 0.0858 0.6049 0.2580
C39_2 C 0.1795(10) 0.5762(5) 0.2071(12)
H28_2 H 0.2259 0.5952 0.2394
C47_2 C 0.5784(9) 0.4897(4) 0.3771(7)
H35_2 H 0.5638 0.5155 0.4078
C48_2 C 0.6633(8) 0.4867(4) 0.3686(8)
H36_2 H 0.7055 0.5099 0.3931
C49_2 C 0.6841(8) 0.4498(4) 0.3244(8)
C50_2 C 0.6206(9) 0.4174(4) 0.2896(8)
H37_2 H 0.6334 0.3915 0.2582
C51_2 C 0.5383(8) 0.4225(4) 0.3005(8)
H38_2 H 0.4948 0.3999 0.2763
C52_2 C 0.7711(9) 0.4443(5) 0.3131(9)
H39_2 H 0.7827 0.4194 0.2787
C53_2 C 0.9745(9) 0.4911(6) 0.3741(11)
H40_2 H 0.9629 0.5144 0.4113
N1_2 N 0.1963(7) 0.5446(3) 0.1552(7)
N5_2 N 0.5182(7) 0.4586(3) 0.3445(6)
N6_2 N 0.8320(8) 0.4728(5) 0.3493(9)
N7_2 N 0.9113(9) 0.4631(5) 0.3314(9)
O1_2 O 0.3098(6) 0.4642(2) 0.0706(5)
O2_2 O 0.3307(5) 0.4549(2) 0.2088(5)
O5_2 O 0.4072(6) 0.5364(2) 0.4387(5)
O6_2 O 0.3874(5) 0.5469(2) 0.2998(5)
N9_2 N 0.4852(6) 0.5288(3) 0.1561(6)
H1_2 H 0.3104 0.3870 0.9938
C8_2 C 0.3468(9) 0.1991(4) 0.9533(8)
H6_2 H 0.3421 0.1985 0.8935
C9_2 C 0.3385(9) 0.2411(4) 0.9940(7)
C13_2 C 0.3237(8) 0.2901(4) 0.9555(7)
C14_2 C 0.3963(11) 0.3049(4) 0.9172(9)
H7_2 H 0.4523 0.3028 0.9610
H8_2 H 0.3970 0.2843 0.8691
H9_2 H 0.3865 0.3374 0.8967
C15_2 C 0.2375(10) 0.2941(5) 0.8869(8)
H10_2 H 0.1898 0.2849 0.9112
H11_2 H 0.2287 0.3265 0.8665
H12_2 H 0.2381 0.2733 0.8388
C17_2 C 0.3722(8) 0.1118(3) 0.9592(8)
C40_2 C 0.9397(11) 0.5664(6) 0.1786(11)
H29_2 H 0.9306 0.5898 0.2169
C41_2 C 0.7404(9) 0.5240(5) 0.1247(8)
H30 H 0.7543 0.4990 0.0917
C42_2 C 0.6542(9) 0.5268(4) 0.1359(8)
C43_2 C 0.6266(9) 0.5625(5) 0.1827(9)
H31_2 H 0.6657 0.5868 0.2085
C44_2 C 0.5420(8) 0.5621(4) 0.1912(9)
H32_2 H 0.5243 0.5863 0.2231
C45 C 0.5118(9) 0.4946(4) 0.1121(8)
H33 H 0.4721 0.4703 0.0875
C46 C 0.5942(9) 0.4933(5) 0.1016(9)
H34 H 0.6097 0.4685 0.0695
N2_2 N 0.8772(9) 0.5420(5) 0.1373(9)
N3_2 N 0.7970(8) 0.5534(5) 0.1571(8)
C55_2 C 0.1252(10) 0.9870(5) 0.9149(10)
H41_2 H 0.1122 0.9649 0.9536
C56_2 C 0.2116(8) 0.9930(5) 0.9086(9)
H42_2 H 0.2565 0.9752 0.9462
H30_2 H 0.7543 0.0010 0.5917
C45_2 C 0.5118(9) 0.0054(4) 0.6121(8)
H33_2 H 0.4721 0.0297 0.5875
C46_2 C 0.5942(9) 0.0067(5) 0.6016(9)
H34_2 H 0.6097 0.0315 0.5695
C40_3 C 0.0603(11) 0.4336(6) 0.8214(11)
H29_3 H 0.0694 0.4102 0.7831
C41_3 C 0.2596(9) 0.4760(5) 0.8753(8)
H30_3 H 0.2457 0.5010 0.9083
C42_3 C 0.3458(9) 0.4732(4) 0.8641(8)
C43_3 C 0.3734(9) 0.4375(5) 0.8173(9)
H31_3 H 0.3343 0.4132 0.7915
C44_3 C 0.4580(8) 0.4379(4) 0.8088(9)
H32_3 H 0.4757 0.4137 0.7769
C45_3 C 0.4882(9) 0.5054(4) 0.8879(8)
H33_3 H 0.5279 0.5297 0.9125
C46_3 C 0.4058(9) 0.5067(5) 0.8984(9)
H34_3 H 0.3903 0.5315 0.9305
N2_3 N 0.1228(9) 0.4580(5) 0.8627(9)
N3_3 N 0.2030(8) 0.4466(5) 0.8429(8)
N4 N 0.5148(6) 0.4712(3) 0.8439(6)
Cd5 Cd 0.66201(5) 0.46602(3) 0.85016(5)
H1_3 H 0.6896 0.6130 0.0062
C8_3 C 0.6532(9) 0.8009(4) 0.0467(8)
H6_3 H 0.6579 0.8015 0.1065
C9_3 C 0.6615(9) 0.7589(4) 0.0060(7)
C13_3 C 0.6763(8) 0.7099(4) 0.0445(7)
C14_3 C 0.6037(11) 0.6951(4) 0.0828(9)
H7_3 H 0.5477 0.6972 0.0390
H8_3 H 0.6030 0.7157 0.1309
H9_3 H 0.6135 0.6626 0.1033
C15_3 C 0.7625(10) 0.7059(5) 0.1131(8)
H10_3 H 0.8102 0.7151 0.0888
H11_3 H 0.7713 0.6735 0.1335
H12_3 H 0.7619 0.7267 0.1612
C17_3 C 0.6278(8) 0.8882(3) 0.0408(8)
O3_2 O 0.6258(7) 0.8870(3) 0.1164(5)
Cd4_2 Cd 0.61999(6) 0.96619(3) 0.13608(5)
Cd1 Cd 0.61999(6) 0.53381(3) 0.63608(5)
C1_3 C 0.6823(8) 0.6329(4) 0.9577(7)
C2_3 C 0.6778(8) 0.6139(4) 0.8761(7)
C3_3 C 0.6685(8) 0.6431(4) 0.8075(8)
H2_3 H 0.6672 0.6298 0.7533
C4_3 C 0.6609(9) 0.6909(4) 0.8131(7)
H3_3 H 0.6550 0.7104 0.7643
C5_3 C 0.6387(9) 0.7992(4) 0.8686(8)
H4_3 H 0.6350 0.7987 0.8090
C6_3 C 0.6298(9) 0.8407(4) 0.9095(7)
H5_3 H 0.6177 0.8687 0.8766
C7_3 C 0.6379(8) 0.8430(4) 0.9982(7)
C10_3 C 0.6534(9) 0.7582(4) 0.9171(7)
C11_3 C 0.6621(8) 0.7095(4) 0.8919(7)
C12_3 C 0.6760(8) 0.6809(3) 0.9658(7)
C16_3 C 0.6807(8) 0.5613(4) 0.8656(8)
C18_3 C 0.6097(8) 0.3668(4) 0.5326(7)
H13_3 H 0.6119 0.3869 0.4864
C19_3 C 0.6012(8) 0.3852(4) 0.6110(8)
C20_3 C 0.5945(8) 0.3551(4) 0.6773(7)
H14_3 H 0.5886 0.3681 0.7295
C21_3 C 0.5962(9) 0.3070(4) 0.6684(7)
H15_3 H 0.5904 0.2867 0.7131
C22_3 C 0.6187(10) 0.1987(4) 0.6101(8)
H16_3 H 0.6100 0.1985 0.6659
C23_3 C 0.6323(9) 0.1575(4) 0.5712(8)
H17_3 H 0.6336 0.1286 0.6006
C24_3 C 0.6440(9) 0.1580(4) 0.4894(7)
C25_3 C 0.6435(8) 0.1997(4) 0.4452(7)
H18_3 H 0.6519 0.1999 0.3893
C26_3 C 0.6305(9) 0.2414(4) 0.4848(8)
C27_3 C 0.6180(9) 0.2405(4) 0.5659(8)
C28_3 C 0.6068(9) 0.2892(4) 0.5909(7)
C29_3 C 0.6145(8) 0.3187(4) 0.5255(7)
C30_3 C 0.6283(9) 0.2904(4) 0.4513(8)
C31_3 C 0.5499(9) 0.2960(4) 0.3708(7)
H19_3 H 0.4960 0.2873 0.3851
H20_3 H 0.5581 0.2756 0.3249
H21_3 H 0.5461 0.3287 0.3515
C32_3 C 0.7106(9) 0.3043(4) 0.4274(9)
H22_3 H 0.7609 0.3011 0.4777
H23_3 H 0.7058 0.3370 0.4078
H24_3 H 0.7183 0.2839 0.3813
C33_3 C 0.6009(7) 0.4376(4) 0.6246(8)
C34_3 C 0.6590(8) 0.1119(4) 0.4470(8)
C35_3 C 0.8723(9) 0.4804(5) 0.8898(10)
H25_3 H 0.8622 0.5038 0.9276
C36_3 C 0.9537(10) 0.4743(6) 0.8846(11)
H26_3 H 0.9995 0.4933 0.9178
C37_3 C 0.9706(10) 0.4415(5) 0.8325(11)
C38_3 C 0.9045(10) 0.4168(5) 0.7830(11)
H27_3 H 0.9142 0.3951 0.7420
C39_3 C 0.8205(10) 0.4238(5) 0.7929(12)
H28_3 H 0.7741 0.4048 0.7606
C47_3 C 0.4216(9) 0.5103(4) 0.6229(7)
H35_3 H 0.4362 0.4845 0.5922
C48_3 C 0.3367(8) 0.5133(4) 0.6314(8)
H36_3 H 0.2945 0.4901 0.6069
C49_3 C 0.3159(8) 0.5502(4) 0.6756(8)
C50_3 C 0.3794(9) 0.5826(4) 0.7104(8)
H37_3 H 0.3666 0.6085 0.7418
C51_3 C 0.4617(8) 0.5775(4) 0.6995(8)
H38_3 H 0.5052 0.6001 0.7237
C52_3 C 0.2289(9) 0.5557(5) 0.6869(9)
H39_3 H 0.2173 0.5806 0.7213
C53_3 C 0.0255(9) 0.5089(6) 0.6259(11)
H40_3 H 0.0371 0.4856 0.5887
N1_3 N 0.8037(7) 0.4554(3) 0.8448(7)
N5_3 N 0.4818(7) 0.5414(3) 0.6555(6)
N6_3 N 0.1680(8) 0.5272(5) 0.6507(9)
N7_3 N 0.0887(9) 0.5369(5) 0.6686(9)
O1_3 O 0.6902(6) 0.5358(2) 0.9294(5)
O2_3 O 0.6693(5) 0.5451(2) 0.7912(5)
O4_2 O 0.6252(6) 0.9251(3) 0.9986(5)
O5_3 O 0.5928(6) 0.4636(2) 0.5613(5)
O6_3 O 0.6126(5) 0.4531(2) 0.7002(5)
O7_2 O 0.6729(6) 0.0748(3) 0.4893(5)
O8_2 O 0.6546(6) 0.1139(3) 0.3681(5)
Cd6_2 Cd 0.66201(5) 0.03398(3) 0.35016(5)
N10 N 0.7662(7) 0.5216(3) 0.6462(7)
O9_2 O 0.6258(7) 0.6130(3) 0.6164(5)
O10_2 O 0.6252(6) 0.5749(3) 0.4986(5)
O11_2 O 0.6729(6) 0.4252(3) 0.9893(5)
O12_2 O 0.6546(6) 0.3861(3) 0.8681(5)
C54_3 C 0.9389(10) 0.5142(5) 0.6363(9)
C55_3 C 0.8748(10) 0.4870(5) 0.5851(10)
H41_3 H 0.8878 0.4649 0.5464
C56_3 C 0.7884(8) 0.4930(5) 0.5914(9)
H42_3 H 0.7435 0.4752 0.5538
C57_3 C 0.8293(10) 0.5456(5) 0.6975(10)
H43_3 H 0.8153 0.5652 0.7393
C58_3 C 0.9172(10) 0.5442(6) 0.6943(10)
H44_3 H 0.9602 0.5635 0.7311
C40_4 C 0.0603(11) 0.0664(6) 0.3214(11)
H29_4 H 0.0694 0.0898 0.2831
C41_4 C 0.2596(9) 0.0240(5) 0.3753(8)
C42_4 C 0.3458(9) 0.0268(4) 0.3641(8)
C43_4 C 0.3734(9) 0.0625(5) 0.3173(9)
H31_4 H 0.3343 0.0868 0.2915
C44_4 C 0.4580(8) 0.0621(4) 0.3088(9)
H32_4 H 0.4757 0.0863 0.2769
N2_4 N 0.1228(9) 0.0420(5) 0.3627(9)
N3_4 N 0.2030(8) 0.0534(5) 0.3429(8)
N4_2 N 0.5148(6) 0.0288(3) 0.3439(6)
C18_4 C 0.6097(8) 0.1332(4) 0.0326(7)
C19_4 C 0.6012(8) 0.1148(4) 0.1110(8)
C20_4 C 0.5945(8) 0.1449(4) 0.1773(7)
H14_4 H 0.5886 0.1319 0.2295
C21_4 C 0.5962(9) 0.1930(4) 0.1684(7)
H15_4 H 0.5904 0.2133 0.2131
C22_4 C 0.6187(10) 0.3013(4) 0.1101(8)
H16_4 H 0.6100 0.3015 0.1659
C23_4 C 0.6323(9) 0.3425(4) 0.0712(8)
H17_4 H 0.6336 0.3714 0.1006
C27_4 C 0.6180(9) 0.2595(4) 0.0659(8)
C28_4 C 0.6068(9) 0.2108(4) 0.0909(7)
C29_4 C 0.6145(8) 0.1813(4) 0.0255(7)
C33_4 C 0.6009(7) 0.0624(4) 0.1246(8)
C35_4 C 0.8723(9) 0.0196(5) 0.3898(10)
C36_4 C 0.9537(10) 0.0257(6) 0.3846(11)
H26_4 H 0.9995 0.0067 0.4178
C37_4 C 0.9706(10) 0.0585(5) 0.3325(11)
C38_4 C 0.9045(10) 0.0832(5) 0.2830(11)
H27_4 H 0.9142 0.1049 0.2420
C39_4 C 0.8205(10) 0.0762(5) 0.2929(12)
H28_4 H 0.7741 0.0952 0.2606
H35_4 H 0.4362 0.0155 0.0922
H36_4 H 0.2945 0.0099 0.1069
H40_4 H 0.0371 0.0144 0.0887
N1_4 N 0.8037(7) 0.0446(3) 0.3448(7)
O5_4 O 0.5928(6) 0.0364(2) 0.0613(5)
O6_4 O 0.6126(5) 0.0469(2) 0.2002(5)
H13_4 H 0.6119 0.1131 0.9864
C24_4 C 0.6440(9) 0.3420(4) 0.9894(7)
C25_4 C 0.6435(8) 0.3003(4) 0.9452(7)
H18_4 H 0.6519 0.3001 0.8893
C26_4 C 0.6305(9) 0.2586(4) 0.9848(8)
C30_4 C 0.6283(9) 0.2096(4) 0.9513(8)
C31_4 C 0.5499(9) 0.2040(4) 0.8708(7)
H19_4 H 0.4960 0.2127 0.8851
H20_4 H 0.5581 0.2244 0.8249
H21_4 H 0.5461 0.1713 0.8515
C32_4 C 0.7106(9) 0.1957(4) 0.9274(9)
H22_4 H 0.7609 0.1989 0.9777
H23_4 H 0.7058 0.1630 0.9078
H24_4 H 0.7183 0.2161 0.8813
C34_4 C 0.6590(8) 0.3881(4) 0.9470(8)
C1_4 C 0.6823(8) 0.8671(4) 0.4577(7)
H1_4 H 0.6896 0.8870 0.5062
C2_4 C 0.6778(8) 0.8861(4) 0.3761(7)
C3_4 C 0.6685(8) 0.8569(4) 0.3075(8)
H2_4 H 0.6672 0.8702 0.2533
C4_4 C 0.6609(9) 0.8091(4) 0.3131(7)
H3_4 H 0.6550 0.7896 0.2643
C5_4 C 0.6387(9) 0.7008(4) 0.3686(8)
H4_4 H 0.6350 0.7013 0.3090
C6_4 C 0.6298(9) 0.6593(4) 0.4095(7)
H5_4 H 0.6177 0.6313 0.3766
C7_4 C 0.6379(8) 0.6570(4) 0.4982(7)
C8_4 C 0.6532(9) 0.6991(4) 0.5467(8)
H6_4 H 0.6579 0.6985 0.6065
C9_4 C 0.6615(9) 0.7411(4) 0.5060(7)
C10_4 C 0.6534(9) 0.7418(4) 0.4171(7)
C11_4 C 0.6621(8) 0.7905(4) 0.3919(7)
C12_4 C 0.6760(8) 0.8191(3) 0.4658(7)
C13_4 C 0.6763(8) 0.7901(4) 0.5445(7)
C14_4 C 0.6037(11) 0.8049(4) 0.5828(9)
H7_4 H 0.5477 0.8028 0.5390
H8_4 H 0.6030 0.7843 0.6309
H9_4 H 0.6135 0.8374 0.6033
C15_4 C 0.7625(10) 0.7941(5) 0.6131(8)
H10_4 H 0.8102 0.7849 0.5888
H11_4 H 0.7713 0.8265 0.6335
H12_4 H 0.7619 0.7733 0.6612
C16_4 C 0.6807(8) 0.9387(4) 0.3656(8)
C17_4 C 0.6278(8) 0.6118(3) 0.5408(8)
H25_4 H 0.8622 0.9962 0.4276
C47_4 C 0.4216(9) 0.9897(4) 0.1229(7)
C48_4 C 0.3367(8) 0.9867(4) 0.1314(8)
C49_4 C 0.3159(8) 0.9498(4) 0.1756(8)
C50_4 C 0.3794(9) 0.9174(4) 0.2104(8)
H37_4 H 0.3666 0.8915 0.2418
C51_4 C 0.4617(8) 0.9225(4) 0.1995(8)
H38_4 H 0.5052 0.8999 0.2237
C52_4 C 0.2289(9) 0.9443(5) 0.1869(9)
H39_4 H 0.2173 0.9194 0.2213
C53_4 C 0.0255(9) 0.9911(6) 0.1259(11)
N5_4 N 0.4818(7) 0.9586(3) 0.1555(6)
N6_4 N 0.1680(8) 0.9728(5) 0.1507(9)
N7_4 N 0.0887(9) 0.9631(5) 0.1686(9)
O1_4 O 0.6902(6) 0.9642(2) 0.4294(5)
O2_4 O 0.6693(5) 0.9549(2) 0.2912(5)
N10_2 N 0.7662(7) 0.9784(3) 0.1462(7)
C54_4 C 0.9389(10) 0.9858(5) 0.1363(9)
C57_4 C 0.8293(10) 0.9544(5) 0.1975(10)
H43_4 H 0.8153 0.9348 0.2393
C58_4 C 0.9172(10) 0.9558(6) 0.1943(10)
H44_4 H 0.9602 0.9365 0.2311
H30_4 H 0.2457 0.9990 0.4083
C45_4 C 0.4882(9) 0.9946(4) 0.3879(8)
H33_4 H 0.5279 0.9703 0.4125
C46_4 C 0.4058(9) 0.9933(5) 0.3984(9)
H34_4 H 0.3903 0.9685 0.4305
C55_4 C 0.8748(10) 0.0130(5) 0.0851(10)
H41_4 H 0.8878 0.0351 0.0464
C56_4 C 0.7884(8) 0.0070(5) 0.0914(9)
H42_4 H 0.7435 0.0248 0.0538
loop_
_geom_bond_atom_site_label_1
_geom_bond_atom_site_label_2
_geom_bond_site_symmetry_1
_geom_bond_site_symmetry_2
C57 H43 1_555 1_555
C58 C54 1_555 1_555
H44 C58 1_555 1_555
Cd3 N8 1_555 1_555
C57 C58 1_555 1_555
C57 N8 1_555 1_555
Cd3 N5 1_555 1_555
C1 H1 1_555 1_555
C2 C1 1_555 1_555
C3 C2 1_555 1_555
H2 C3 1_555 1_555
C4 C3 1_555 1_555
H3 C4 1_555 1_555
C5 H4 1_555 1_555
C6 C5 1_555 1_555
H5 C6 1_555 1_555
C7 C6 1_555 1_555
C8 C7 1_555 1_555
H6 C8 1_555 1_555
C9 C8 1_555 1_555
C10 C5 1_555 1_555
C11 C4 1_555 1_555
C12 C1 1_555 1_555
C13 C9 1_555 1_555
C14 C13 1_555 1_555
H7 C14 1_555 1_555
H8 C14 1_555 1_555
H9 C14 1_555 1_555
C15 C13 1_555 1_555
H10 C15 1_555 1_555
H11 C15 1_555 1_555
H12 C15 1_555 1_555
C16 C2 1_555 1_555
C17 C7 1_555 1_555
C48 C47 1_555 1_555
C49 C48 1_555 1_555
C50 C49 1_555 1_555
H37 C50 1_555 1_555
C51 C50 1_555 1_555
H38 C51 1_555 1_555
C52 C49 1_555 1_555
H39 C52 1_555 1_555
N5 C47 1_555 1_555
N6 C52 1_555 1_555
N7 C53 1_555 1_555
O2 Cd3 1_555 1_555
O3 C17 1_555 1_555
O4 C17 1_555 1_555
Cd4 O3 1_555 1_555
O9 Cd3 1_555 1_555
C9 C10 1_555 1_555
C10 C11 1_555 1_555
C11 C12 1_555 1_555
C12 C13 1_555 1_555
C16 O1 1_555 1_555
C16 O2 1_555 1_555
C51 N5 1_555 1_555
N6 N7 1_555 1_555
O4 Cd4 1_555 1_555
C25 C24 1_555 1_555
H18 C25 1_555 1_555
C26 C25 1_555 1_555
C30 C26 1_555 1_555
C31 C30 1_555 1_555
H19 C31 1_555 1_555
H20 C31 1_555 1_555
H21 C31 1_555 1_555
C32 C30 1_555 1_555
H22 C32 1_555 1_555
H23 C32 1_555 1_555
H24 C32 1_555 1_555
C34 C24 1_555 1_555
O7 C34 1_555 1_555
O8 C34 1_555 1_555
Cd6 O7 1_555 1_555
O8 Cd6 1_555 1_555
Cd2 N1 1_555 1_555
C19 C18 1_555 1_555
C20 C19 1_555 1_555
H14 C20 1_555 1_555
C21 C20 1_555 1_555
H15 C21 1_555 1_555
C22 H16 1_555 1_555
C23 C22 1_555 1_555
H17 C23 1_555 1_555
C27 C22 1_555 1_555
C28 C21 1_555 1_555
C29 C18 1_555 1_555
C33 C19 1_555 1_555
C36 C35 1_555 1_555
H26 C36 1_555 1_555
C37 C36 1_555 1_555
C38 C37 1_555 1_555
H27 C38 1_555 1_555
C39 C38 1_555 1_555
H28 C39 1_555 1_555
N1 C35 1_555 1_555
N9 Cd2 1_555 1_555
O11 Cd2 1_555 1_555
O12 Cd2 1_555 1_555
Cd2 O6 1_555 1_555
C27 C28 1_555 1_555
C28 C29 1_555 1_555
C33 O5 1_555 1_555
C33 O6 1_555 1_555
C39 N1 1_555 1_555
H29 C40 1_555 1_555
C42 C41 1_555 1_555
C43 C42 1_555 1_555
H31 C43 1_555 1_555
C44 C43 1_555 1_555
H32 C44 1_555 1_555
N2 C40 1_555 1_555
N3 C41 1_555 1_555
N9 C44 1_555 1_555
N2 N3 1_555 1_555
C55 C54_2 1_555 1_555
H41 C55 1_555 1_555
C56 C55 1_555 1_555
H42 C56 1_555 1_555
C57_2 H43_2 1_555 1_555
C58_2 C54_2 1_555 1_555
H44_2 C58_2 1_555 1_555
N8_2 C56 1_555 1_555
Cd4 N8_2 1_555 1_555
C57_2 C58_2 1_555 1_555
C57_2 N8_2 1_555 1_555
Cd4 N5_2 1_555 1_555
Cd6 N1_2 1_555 1_555
C2_2 C1_2 1_555 1_555
C3_2 C2_2 1_555 1_555
H2_2 C3_2 1_555 1_555
C4_2 C3_2 1_555 1_555
H3_2 C4_2 1_555 1_555
C5_2 H4_2 1_555 1_555
C6_2 C5_2 1_555 1_555
H5_2 C6_2 1_555 1_555
C7_2 C6_2 1_555 1_555
C10_2 C5_2 1_555 1_555
C11_2 C4_2 1_555 1_555
C12_2 C1_2 1_555 1_555
C16_2 C2_2 1_555 1_555
C18_2 H13_2 1_555 1_555
C19_2 C18_2 1_555 1_555
C20_2 C19_2 1_555 1_555
H14_2 C20_2 1_555 1_555
C21_2 C20_2 1_555 1_555
H15_2 C21_2 1_555 1_555
C22_2 H16_2 1_555 1_555
C23_2 C22_2 1_555 1_555
H17_2 C23_2 1_555 1_555
C24_2 C23_2 1_555 1_555
C25_2 C24_2 1_555 1_555
H18_2 C25_2 1_555 1_555
C26_2 C25_2 1_555 1_555
C27_2 C22_2 1_555 1_555
C28_2 C21_2 1_555 1_555
C29_2 C18_2 1_555 1_555
C30_2 C26_2 1_555 1_555
C31_2 C30_2 1_555 1_555
H19_2 C31_2 1_555 1_555
H20_2 C31_2 1_555 1_555
H21_2 C31_2 1_555 1_555
C32_2 C30_2 1_555 1_555
H22_2 C32_2 1_555 1_555
H23_2 C32_2 1_555 1_555
H24_2 C32_2 1_555 1_555
C33_2 C19_2 1_555 1_555
C34_2 C24_2 1_555 1_555
C35_2 H25_2 1_555 1_555
C36_2 C35_2 1_555 1_555
H26_2 C36_2 1_555 1_555
C37_2 C36_2 1_555 1_555
C38_2 C37_2 1_555 1_555
H27_2 C38_2 1_555 1_555
C39_2 C38_2 1_555 1_555
H28_2 C39_2 1_555 1_555
C47_2 H35_2 1_555 1_555
C48_2 C47_2 1_555 1_555
H36_2 C48_2 1_555 1_555
C49_2 C48_2 1_555 1_555
C50_2 C49_2 1_555 1_555
H37_2 C50_2 1_555 1_555
C51_2 C50_2 1_555 1_555
H38_2 C51_2 1_555 1_555
C52_2 C49_2 1_555 1_555
H39_2 C52_2 1_555 1_555
C53_2 H40_2 1_555 1_555
N1_2 C35_2 1_555 1_555
N5_2 C47_2 1_555 1_555
N6_2 C52_2 1_555 1_555
N7_2 C53_2 1_555 1_555
O1_2 Cd6 1_555 1_555
O2_2 Cd4 1_555 1_555
O5_2 Cd4 1_555 1_555
O6_2 Cd4 1_555 1_555
O11 C34_2 1_555 1_555
O12 C34_2 1_555 1_555
N9_2 Cd6 1_555 1_555
Cd6 O2_2 1_555 1_555
Cd6 O6_2 1_555 1_555
C10_2 C11_2 1_555 1_555
C11_2 C12_2 1_555 1_555
C16_2 O1_2 1_555 1_555
C16_2 O2_2 1_555 1_555
C26_2 C27_2 1_555 1_555
C27_2 C28_2 1_555 1_555
C28_2 C29_2 1_555 1_555
C29_2 C30_2 1_555 1_555
C33_2 O5_2 1_555 1_555
C33_2 O6_2 1_555 1_555
C39_2 N1_2 1_555 1_555
C51_2 N5_2 1_555 1_555
N6_2 N7_2 1_555 1_555
H6_2 C8_2 1_555 1_555
C9_2 C8_2 1_555 1_555
C13_2 C9_2 1_555 1_555
C14_2 C13_2 1_555 1_555
H7_2 C14_2 1_555 1_555
H8_2 C14_2 1_555 1_555
H9_2 C14_2 1_555 1_555
C15_2 C13_2 1_555 1_555
H10_2 C15_2 1_555 1_555
H11_2 C15_2 1_555 1_555
H12_2 C15_2 1_555 1_555
O9 C17_2 1_555 1_555
H29_2 C40_2 1_555 1_555
C41_2 H30 1_555 1_555
C42_2 C41_2 1_555 1_555
C43_2 C42_2 1_555 1_555
H31_2 C43_2 1_555 1_555
C44_2 C43_2 1_555 1_555
H32_2 C44_2 1_555 1_555
C45 H33 1_555 1_555
C46 C42_2 1_555 1_555
H34 C46 1_555 1_555
N2_2 C40_2 1_555 1_555
N3_2 C41_2 1_555 1_555
N9_2 C44_2 1_555 1_555
C45 C46 1_555 1_555
C45 N9_2 1_555 1_555
N2_2 N3_2 1_555 1_555
H41_2 C55_2 1_555 1_555
C56_2 C55_2 1_555 1_555
H42_2 C56_2 1_555 1_555
C45_2 H33_2 1_555 1_555
H34_2 C46_2 1_555 1_555
C45_2 C46_2 1_555 1_555
H29_3 C40_3 1_555 1_555
C41_3 H30_3 1_555 1_555
C42_3 C41_3 1_555 1_555
C43_3 C42_3 1_555 1_555
H31_3 C43_3 1_555 1_555
C44_3 C43_3 1_555 1_555
H32_3 C44_3 1_555 1_555
C45_3 H33_3 1_555 1_555
C46_3 C42_3 1_555 1_555
H34_3 C46_3 1_555 1_555
N2_3 C40_3 1_555 1_555
N3_3 C41_3 1_555 1_555
N4 C44_3 1_555 1_555
Cd5 N4 1_555 1_555
C45_3 C46_3 1_555 1_555
C45_3 N4 1_555 1_555
N2_3 N3_3 1_555 1_555
H6_3 C8_3 1_555 1_555
C9_3 C8_3 1_555 1_555
C13_3 C9_3 1_555 1_555
C14_3 C13_3 1_555 1_555
H7_3 C14_3 1_555 1_555
H8_3 C14_3 1_555 1_555
H9_3 C14_3 1_555 1_555
C15_3 C13_3 1_555 1_555
H10_3 C15_3 1_555 1_555
H11_3 C15_3 1_555 1_555
H12_3 C15_3 1_555 1_555
O3_2 C17_3 1_555 1_555
Cd4_2 O3_2 1_555 1_555
Cd1 N5_3 1_555 1_555
Cd5 N1_3 1_555 1_555
C2_3 C1_3 1_555 1_555
C3_3 C2_3 1_555 1_555
H2_3 C3_3 1_555 1_555
C4_3 C3_3 1_555 1_555
H3_3 C4_3 1_555 1_555
C5_3 H4_3 1_555 1_555
C6_3 C5_3 1_555 1_555
H5_3 C6_3 1_555 1_555
C7_3 C6_3 1_555 1_555
C10_3 C5_3 1_555 1_555
C11_3 C4_3 1_555 1_555
C12_3 C1_3 1_555 1_555
C16_3 C2_3 1_555 1_555
C18_3 H13_3 1_555 1_555
C19_3 C18_3 1_555 1_555
C20_3 C19_3 1_555 1_555
H14_3 C20_3 1_555 1_555
C21_3 C20_3 1_555 1_555
H15_3 C21_3 1_555 1_555
C22_3 H16_3 1_555 1_555
C23_3 C22_3 1_555 1_555
H17_3 C23_3 1_555 1_555
C24_3 C23_3 1_555 1_555
C25_3 C24_3 1_555 1_555
H18_3 C25_3 1_555 1_555
C26_3 C25_3 1_555 1_555
C27_3 C22_3 1_555 1_555
C28_3 C21_3 1_555 1_555
C29_3 C18_3 1_555 1_555
C30_3 C26_3 1_555 1_555
C31_3 C30_3 1_555 1_555
H19_3 C31_3 1_555 1_555
H20_3 C31_3 1_555 1_555
H21_3 C31_3 1_555 1_555
C32_3 C30_3 1_555 1_555
H22_3 C32_3 1_555 1_555
H23_3 C32_3 1_555 1_555
H24_3 C32_3 1_555 1_555
C33_3 C19_3 1_555 1_555
C34_3 C24_3 1_555 1_555
C35_3 H25_3 1_555 1_555
C36_3 C35_3 1_555 1_555
H26_3 C36_3 1_555 1_555
C37_3 C36_3 1_555 1_555
C38_3 C37_3 1_555 1_555
H27_3 C38_3 1_555 1_555
C39_3 C38_3 1_555 1_555
H28_3 C39_3 1_555 1_555
C47_3 H35_3 1_555 1_555
C48_3 C47_3 1_555 1_555
H36_3 C48_3 1_555 1_555
C49_3 C48_3 1_555 1_555
C50_3 C49_3 1_555 1_555
H37_3 C50_3 1_555 1_555
C51_3 C50_3 1_555 1_555
H38_3 C51_3 1_555 1_555
C52_3 C49_3 1_555 1_555
H39_3 C52_3 1_555 1_555
C53_3 H40_3 1_555 1_555
N1_3 C35_3 1_555 1_555
N5_3 C47_3 1_555 1_555
N6_3 C52_3 1_555 1_555
N7_3 C53_3 1_555 1_555
O1_3 Cd5 1_555 1_555
O2_3 Cd1 1_555 1_555
O5_3 Cd1 1_555 1_555
O6_3 Cd1 1_555 1_555
O7_2 C34_3 1_555 1_555
O8_2 C34_3 1_555 1_555
Cd6_2 O7_2 1_555 1_555
N10 Cd1 1_555 1_555
O9_2 Cd1 1_555 1_555
O10_2 Cd1 1_555 1_555
O11_2 Cd5 1_555 1_555
O12_2 Cd5 1_555 1_555
Cd5 O2_3 1_555 1_555
Cd5 O6_3 1_555 1_555
C10_3 C11_3 1_555 1_555
C11_3 C12_3 1_555 1_555
C16_3 O1_3 1_555 1_555
C16_3 O2_3 1_555 1_555
C26_3 C27_3 1_555 1_555
C27_3 C28_3 1_555 1_555
C28_3 C29_3 1_555 1_555
C29_3 C30_3 1_555 1_555
C33_3 O5_3 1_555 1_555
C33_3 O6_3 1_555 1_555
C39_3 N1_3 1_555 1_555
C51_3 N5_3 1_555 1_555
N6_3 N7_3 1_555 1_555
O8_2 Cd6_2 1_555 1_555
C55_3 C54_3 1_555 1_555
H41_3 C55_3 1_555 1_555
C56_3 C55_3 1_555 1_555
H42_3 C56_3 1_555 1_555
C57_3 H43_3 1_555 1_555
C58_3 C54_3 1_555 1_555
H44_3 C58_3 1_555 1_555
N10 C56_3 1_555 1_555
C57_3 C58_3 1_555 1_555
C57_3 N10 1_555 1_555
H29_4 C40_4 1_555 1_555
C42_4 C41_4 1_555 1_555
C43_4 C42_4 1_555 1_555
H31_4 C43_4 1_555 1_555
C44_4 C43_4 1_555 1_555
H32_4 C44_4 1_555 1_555
N2_4 C40_4 1_555 1_555
N3_4 C41_4 1_555 1_555
N4_2 C44_4 1_555 1_555
Cd6_2 N4_2 1_555 1_555
N2_4 N3_4 1_555 1_555
Cd6_2 N1_4 1_555 1_555
C19_4 C18_4 1_555 1_555
C20_4 C19_4 1_555 1_555
H14_4 C20_4 1_555 1_555
C21_4 C20_4 1_555 1_555
H15_4 C21_4 1_555 1_555
C22_4 H16_4 1_555 1_555
C23_4 C22_4 1_555 1_555
H17_4 C23_4 1_555 1_555
C27_4 C22_4 1_555 1_555
C28_4 C21_4 1_555 1_555
C29_4 C18_4 1_555 1_555
C33_4 C19_4 1_555 1_555
C36_4 C35_4 1_555 1_555
H26_4 C36_4 1_555 1_555
C37_4 C36_4 1_555 1_555
C38_4 C37_4 1_555 1_555
H27_4 C38_4 1_555 1_555
C39_4 C38_4 1_555 1_555
H28_4 C39_4 1_555 1_555
N1_4 C35_4 1_555 1_555
Cd6_2 O6_4 1_555 1_555
C27_4 C28_4 1_555 1_555
C28_4 C29_4 1_555 1_555
C33_4 O5_4 1_555 1_555
C33_4 O6_4 1_555 1_555
C39_4 N1_4 1_555 1_555
C25_4 C24_4 1_555 1_555
H18_4 C25_4 1_555 1_555
C26_4 C25_4 1_555 1_555
C30_4 C26_4 1_555 1_555
C31_4 C30_4 1_555 1_555
H19_4 C31_4 1_555 1_555
H20_4 C31_4 1_555 1_555
H21_4 C31_4 1_555 1_555
C32_4 C30_4 1_555 1_555
H22_4 C32_4 1_555 1_555
H23_4 C32_4 1_555 1_555
H24_4 C32_4 1_555 1_555
C34_4 C24_4 1_555 1_555
O11_2 C34_4 1_555 1_555
O12_2 C34_4 1_555 1_555
Cd4_2 N5_4 1_555 1_555
C1_4 H1_4 1_555 1_555
C2_4 C1_4 1_555 1_555
C3_4 C2_4 1_555 1_555
H2_4 C3_4 1_555 1_555
C4_4 C3_4 1_555 1_555
H3_4 C4_4 1_555 1_555
C5_4 H4_4 1_555 1_555
C6_4 C5_4 1_555 1_555
H5_4 C6_4 1_555 1_555
C7_4 C6_4 1_555 1_555
C8_4 C7_4 1_555 1_555
H6_4 C8_4 1_555 1_555
C9_4 C8_4 1_555 1_555
C10_4 C5_4 1_555 1_555
C11_4 C4_4 1_555 1_555
C12_4 C1_4 1_555 1_555
C13_4 C9_4 1_555 1_555
C14_4 C13_4 1_555 1_555
H7_4 C14_4 1_555 1_555
H8_4 C14_4 1_555 1_555
H9_4 C14_4 1_555 1_555
C15_4 C13_4 1_555 1_555
H10_4 C15_4 1_555 1_555
H11_4 C15_4 1_555 1_555
H12_4 C15_4 1_555 1_555
C16_4 C2_4 1_555 1_555
C17_4 C7_4 1_555 1_555
C48_4 C47_4 1_555 1_555
C49_4 C48_4 1_555 1_555
C50_4 C49_4 1_555 1_555
H37_4 C50_4 1_555 1_555
C51_4 C50_4 1_555 1_555
H38_4 C51_4 1_555 1_555
C52_4 C49_4 1_555 1_555
H39_4 C52_4 1_555 1_555
N5_4 C47_4 1_555 1_555
N6_4 C52_4 1_555 1_555
N7_4 C53_4 1_555 1_555
O2_4 Cd4_2 1_555 1_555
O9_2 C17_4 1_555 1_555
O10_2 C17_4 1_555 1_555
N10_2 Cd4_2 1_555 1_555
C9_4 C10_4 1_555 1_555
C10_4 C11_4 1_555 1_555
C11_4 C12_4 1_555 1_555
C12_4 C13_4 1_555 1_555
C16_4 O1_4 1_555 1_555
C16_4 O2_4 1_555 1_555
C51_4 N5_4 1_555 1_555
N6_4 N7_4 1_555 1_555
C57_4 H43_4 1_555 1_555
C58_4 C54_4 1_555 1_555
H44_4 C58_4 1_555 1_555
C57_4 C58_4 1_555 1_555
C57_4 N10_2 1_555 1_555
C45_4 H33_4 1_555 1_555
H34_4 C46_4 1_555 1_555
C45_4 C46_4 1_555 1_555
H41_4 C55_4 1_555 1_555
C56_4 C55_4 1_555 1_555
H42_4 C56_4 1_555 1_555

#END
