
###############################################################################
#
# This file contains modified crystal structure data generated from the
# MOF subset of the Cambridge Structural Database (CSD) v543 
# hosted by the Cambridge Crystallographic Data Centre (CCDC).
#
# This work is licensed under the Creative Commons
# Attribution-NonCommercial-ShareAlike 4.0 International License.
# To view a copy of this license, visit
# http://creativecommons.org/licenses/by-nc-sa/4.0/
# or send a letter to
# Creative Commons, PO Box 1866, Mountain View, CA 94042, USA.
#
# CIF created using the CSD Python API on 29 September 2022
# The structure has been converted into the P1 space group
# The structure has a 3D framework
# The original CSD entry OPULUJ is in the monoclinic crystal system
# The framework has been calculated to contain at least 10.0% void space
# The void calculation uses a probe of radius 1.32A, grid spacing 0.4
# The framework is charged, counterions have been retained in the structure
#
###############################################################################

data_OPULUJ
_chemical_formula_moiety         '(C180 H120 In4 O44 4-)n'
_symmetry_cell_setting           triclinic
_symmetry_space_group_name_H-M   'P 1'
_symmetry_Int_Tables_number      1
_space_group_name_Hall           'P 1'
loop_
_symmetry_equiv_pos_site_id
_symmetry_equiv_pos_as_xyz
1 x,y,z
_cell_length_a                   19.0215(14)
_cell_length_b                   28.072(2)
_cell_length_c                   15.9886(12)
_cell_angle_alpha                90
_cell_angle_beta                 112.310(2)
_cell_angle_gamma                90
_cell_volume                     7898.37
loop_
_atom_site_label
_atom_site_type_symbol
_atom_site_fract_x
_atom_site_fract_y
_atom_site_fract_z
In1 In 0.74926(2) 0.70688(2) 0.86745(2)
O3 O 0.11995(10) 0.50094(7) 0.53249(15)
O5 O 0.10676(11) 0.59577(8) 0.38316(14)
O6 O 0.10612(12) 0.60151(8) 0.67919(14)
O8 O 0.24169(12) 0.65230(8) 0.60113(17)
O9 O 0.31869(14) 0.28108(8) 0.71929(18)
O10 O 0.65443(13) 0.67055(9) 0.7722(2)
O11 O 0.24110(13) 0.27572(8) 0.57567(17)
O12 O 0.62009(15) 0.70440(10) 0.8718(2)
C8 C 0.10590(14) 0.59993(10) 0.53075(19)
C10 C 0.07001(15) 0.61276(10) 0.58876(18)
C12 C 0.23360(16) 0.37308(11) 0.5536(2)
H5 H 0.208283 0.353692 0.504108
C14 C 0.00005(14) 0.63261(10) 0.40487(18)
C15 C 0.26435(15) 0.45163(11) 0.6173(2)
C16 C 0.07003(14) 0.60912(10) 0.43779(19)
C18 C 0.27795(17) 0.35323(10) 0.6349(2)
H9 H 0.051175 0.668910 0.284244
C22 C 0.31882(15) 0.58152(11) 0.6433(2)
C23 C 0.25673(15) 0.50365(11) 0.6101(2)
C24 C 0.22666(16) 0.42203(11) 0.5455(2)
H10 H 0.195919 0.435267 0.490384
C25 C 0.39026(15) 0.60948(12) 0.6820(2)
C26 C 0.18645(14) 0.52682(11) 0.57088(19)
C27 C 0.24739(16) 0.60364(11) 0.6030(2)
C28 C 0.52843(17) 0.65611(12) 0.7591(2)
C29 C 0.31640(18) 0.38207(12) 0.7099(2)
H11 H 0.346190 0.368453 0.765048
C31 C 0.30946(17) 0.43122(11) 0.7010(2)
H13 H 0.334680 0.450709 0.750321
C33 C 0.18162(14) 0.57624(10) 0.56821(18)
C34 C 0.32156(15) 0.53266(11) 0.6451(2)
H14 H 0.368776 0.518004 0.670933
C35 C 0.08886(18) 0.48443(12) 0.5944(2)
H15 H 0.043542 0.466506 0.562664
H16 H 0.076712 0.511108 0.623997
H17 H 0.125171 0.464431 0.638626
C36 C 0.28072(18) 0.30024(11) 0.6457(2)
C37 C 0.51825(19) 0.62384(14) 0.6916(3)
H18 H 0.557672 0.617320 0.672388
C38 C 0.44821(19) 0.60056(14) 0.6513(3)
H19 H 0.440577 0.579205 0.604163
C39 C 0.46966(19) 0.66586(14) 0.7892(3)
H20 H 0.476842 0.687660 0.835532
C40 C 0.60534(18) 0.67857(13) 0.8025(3)
C41 C 0.40161(18) 0.64289(14) 0.7495(3)
H21 H 0.362123 0.649863 0.768378
C42 C 0.0738(2) 0.55432(13) 0.3282(2)
H22 H 0.020352 0.559372 0.295924
H23 H 0.081386 0.526846 0.366381
H24 H 0.097830 0.549295 0.285872
C43 C 0.1395(2) 0.64131(15) 0.7363(2)
H25 H 0.100940 0.664602 0.730551
H26 H 0.177902 0.655220 0.718757
H27 H 0.161944 0.630839 0.797995
C44 C 0.2525(3) 0.67336(17) 0.5273(3)
H28 H 0.214486 0.661958 0.472031
H29 H 0.302028 0.665166 0.528841
H30 H 0.248560 0.707342 0.530521
In4 In 0.25074(2) 0.20688(2) 0.63255(2)
O13 O 0.81334(11) 0.64590(7) 0.82162(14)
O14 O 0.80706(12) 0.72030(7) 0.77696(14)
O15 O 0.87446(12) 0.70368(7) 0.98812(14)
O16 O 0.77171(11) 0.66941(8) 0.99207(14)
O17 O 0.68131(14) 0.78108(8) 0.78071(18)
O18 O 0.75890(13) 0.77572(8) 0.92433(17)
C1 C 0.95866(15) 0.64636(10) 0.61660(19)
C2 C 0.87485(15) 0.66638(10) 0.72159(18)
C3 C 0.90398(16) 0.62149(10) 0.72258(19)
H1 H 0.895035 0.597774 0.757955
C4 C 0.99947(15) 0.63453(10) 0.55618(18)
C5 C 0.82969(15) 0.67771(10) 0.77678(18)
C6 C 0.88264(15) 0.63629(11) 0.26590(19)
H2 H 0.856248 0.623355 0.298973
C7 C 0.92814(16) 0.69153(10) 0.61472(19)
H3 H 0.935376 0.714869 0.577490
C9 C 0.94661(16) 0.61136(11) 0.67118(19)
H4 H 0.967164 0.581121 0.673199
C11 C 0.88282(15) 0.66702(10) 0.12614(18)
C13 C 0.96034(15) 0.64390(10) 0.30722(19)
C14_2 C 1.00005(14) 0.63261(10) 0.40487(18)
C17 C 0.96167(16) 0.67517(10) 0.16773(19)
H6 H 0.988046 0.688330 0.134840
C19 C 0.96633(15) 0.64514(10) 0.46469(19)
H7 H 0.920074 0.661150 0.442911
C20 C 0.84394(16) 0.64787(11) 0.17532(19)
H8 H 0.791856 0.642679 0.148015
C21 C 0.99913(16) 0.66359(11) 0.2568(2)
C30 C 0.88738(16) 0.70207(10) 0.66731(19)
H12 H 0.868264 0.732595 0.666927
C32 C 0.84210(16) 0.68064(10) 0.0304(2)
O4 O 0.12554(12) 0.20368(7) 0.51188(14)
O7 O 0.22829(11) 0.16941(8) 0.50793(14)
C6_2 C 0.11736(15) 0.13629(11) 0.23410(19)
H2_2 H 0.143752 0.123355 0.201027
C11_2 C 0.11718(15) 0.16702(10) 0.37386(18)
C13_2 C 0.03966(15) 0.14390(10) 0.19278(19)
C14_3 C -0.00005(14) 0.13261(10) 0.09513(18)
C17_2 C 0.03833(16) 0.17517(10) 0.33227(19)
H6_2 H 0.011954 0.188330 0.365160
C19_2 C 0.03367(15) 0.14514(10) 0.03531(19)
H7_2 H 0.079926 0.161150 0.057089
C20_2 C 0.15606(16) 0.14787(11) 0.32468(19)
H8_2 H 0.208144 0.142679 0.351985
C21_2 C 0.00087(16) 0.16359(11) 0.2432(2)
C32_2 C 0.15790(16) 0.18064(10) 0.4696(2)
O1 O 0.18666(11) 0.14590(7) 0.67838(14)
O2 O 0.19294(12) 0.22030(7) 0.72304(14)
C1_2 C 0.04134(15) 0.14636(10) 0.88340(19)
C2_2 C 0.12515(15) 0.16638(10) 0.77841(18)
C3_2 C 0.09602(16) 0.12149(10) 0.77742(19)
H1_2 H 0.104965 0.097774 0.742045
C4_2 C 0.00053(15) 0.13453(10) 0.94382(18)
C5_2 C 0.17031(15) 0.17771(10) 0.72322(18)
C7_2 C 0.07186(16) 0.19153(10) 0.88528(19)
H3_2 H 0.064624 0.214869 0.922510
C9_2 C 0.05339(16) 0.11136(11) 0.82882(19)
H4_2 H 0.032836 0.081121 0.826801
C30_2 C 0.11262(16) 0.20207(10) 0.83269(19)
H12_2 H 0.131736 0.232595 0.833073
O3_2 O 0.88005(10) 0.00094(7) 0.96751(15)
O6_2 O 0.89388(12) 0.10151(8) 0.82081(14)
O8_2 O 0.75831(12) 0.15230(8) 0.89887(17)
O10_2 O 0.34557(13) 0.17055(9) 0.7278(2)
O12_2 O 0.37991(15) 0.20440(10) 0.6282(2)
C8_2 C 0.89410(14) 0.09993(10) 0.96925(19)
C10_2 C 0.92999(15) 0.11276(10) 0.91124(18)
C22_2 C 0.68118(15) 0.08152(11) 0.8567(2)
C23_2 C 0.74327(15) 0.00365(11) 0.8899(2)
C25_2 C 0.60974(15) 0.10948(12) 0.8180(2)
C26_2 C 0.81355(14) 0.02682(11) 0.92912(19)
C27_2 C 0.75261(16) 0.10364(11) 0.8970(2)
C28_2 C 0.47157(17) 0.15611(12) 0.7409(2)
C33_2 C 0.81838(14) 0.07624(10) 0.93179(18)
C34_2 C 0.67844(15) 0.03266(11) 0.8549(2)
H14_2 H 0.631224 0.018004 0.829067
H16_2 H 0.923288 0.011108 0.876003
C37_2 C 0.48175(19) 0.12384(14) 0.8084(3)
H18_2 H 0.442328 0.117320 0.827612
C38_2 C 0.55179(19) 0.10056(14) 0.8487(3)
H19_2 H 0.559423 0.079205 0.895837
C39_2 C 0.53034(19) 0.16586(14) 0.7108(3)
H20_2 H 0.523158 0.187660 0.664468
C40_2 C 0.39466(18) 0.17857(13) 0.6975(3)
C41_2 C 0.59839(18) 0.14289(14) 0.7505(3)
H21_2 H 0.637877 0.149863 0.731622
C43_2 C 0.8605(2) 0.14131(15) 0.7637(2)
H25_2 H 0.899060 0.164602 0.769449
H26_2 H 0.822098 0.155220 0.781243
H27_2 H 0.838056 0.130839 0.702005
C44_2 C 0.7475(3) 0.17336(17) 0.9727(3)
H29_2 H 0.697972 0.165166 0.971159
H30_2 H 0.751440 0.207342 0.969479
C12_2 C 0.76640(16) 0.87308(11) 0.9464(2)
H5_2 H 0.791717 0.853692 0.995892
C15_2 C 0.73565(15) 0.95163(11) 0.8827(2)
C18_2 C 0.72205(17) 0.85323(10) 0.8651(2)
C24_2 C 0.77334(16) 0.92203(11) 0.9545(2)
C29_2 C 0.68360(18) 0.88207(12) 0.7901(2)
H11_2 H 0.653810 0.868453 0.734952
C31_2 C 0.69054(17) 0.93122(11) 0.7990(2)
H13_2 H 0.665320 0.950709 0.749679
C35_2 C 0.91114(18) 0.98443(12) 0.9056(2)
H15_2 H 0.956458 0.966506 0.937336
H17_2 H 0.874829 0.964431 0.861374
C36_2 C 0.71928(18) 0.80024(11) 0.8543(2)
O5_2 O 0.89324(11) 0.09577(8) 0.11684(14)
C14_4 C 0.99995(14) 0.13261(10) 0.09513(18)
C16_2 C 0.92997(14) 0.10912(10) 0.06221(19)
H9_2 H 0.948825 0.168910 0.215756
C42_2 C 0.9262(2) 0.05432(13) 0.1718(2)
H22_2 H 0.979648 0.059372 0.204076
H23_2 H 0.918614 0.026846 0.133619
H24_2 H 0.902170 0.049295 0.214128
H28_2 H 0.785514 0.161958 0.027969
H10_2 H 0.804081 0.935267 0.009616
O4_2 O 0.12554(12) 0.29632(7) 0.01188(14)
O7_2 O 0.22829(11) 0.33059(8) 0.00793(14)
In2 In 0.25074(2) 0.29312(2) 0.13255(2)
O1_2 O 0.18666(11) 0.35410(7) 0.17838(14)
O2_2 O 0.19294(12) 0.27970(7) 0.22304(14)
C1_3 C 0.04134(15) 0.35364(10) 0.38340(19)
C2_3 C 0.12515(15) 0.33362(10) 0.27841(18)
C3_3 C 0.09602(16) 0.37851(10) 0.27742(19)
H1_3 H 0.104965 0.402226 0.242045
C4_3 C 0.00053(15) 0.36547(10) 0.44382(18)
C5_3 C 0.17031(15) 0.32229(10) 0.22322(18)
C6_3 C 0.11736(15) 0.36371(11) 0.73410(19)
H2_3 H 0.143752 0.376645 0.701027
C7_3 C 0.07186(16) 0.30847(10) 0.38528(19)
H3_3 H 0.064624 0.285131 0.422510
C9_3 C 0.05339(16) 0.38864(11) 0.32882(19)
H4_3 H 0.032836 0.418879 0.326801
C11_3 C 0.11718(15) 0.33298(10) 0.87386(18)
C13_3 C 0.03966(15) 0.35610(10) 0.69278(19)
C14_5 C -0.00005(14) 0.36739(10) 0.59513(18)
C17_3 C 0.03833(16) 0.32483(10) 0.83227(19)
H6_3 H 0.011954 0.311670 0.865160
C19_3 C 0.03367(15) 0.35486(10) 0.53531(19)
H7_3 H 0.079926 0.338850 0.557089
C20_3 C 0.15606(16) 0.35213(11) 0.82468(19)
H8_3 H 0.208144 0.357321 0.851985
C21_3 C 0.00087(16) 0.33641(11) 0.7432(2)
C30_3 C 0.11262(16) 0.29793(10) 0.33269(19)
H12_3 H 0.131736 0.267405 0.333073
C32_3 C 0.15790(16) 0.31936(10) 0.9696(2)
O3_3 O 0.88005(10) 0.49906(7) 0.46751(15)
O5_3 O 0.89324(11) 0.40423(8) 0.61684(14)
O6_3 O 0.89388(12) 0.39849(8) 0.32081(14)
O8_3 O 0.75831(12) 0.34770(8) 0.39887(17)
O9_2 O 0.68131(14) 0.71892(8) 0.28071(18)
O10_3 O 0.34557(13) 0.32945(9) 0.2278(2)
O11_2 O 0.75890(13) 0.72428(8) 0.42433(17)
O12_3 O 0.37991(15) 0.29560(10) 0.1282(2)
C8_3 C 0.89410(14) 0.40007(10) 0.46925(19)
C10_3 C 0.92999(15) 0.38724(10) 0.41124(18)
C12_3 C 0.76640(16) 0.62692(11) 0.4464(2)
H5_3 H 0.791717 0.646308 0.495892
C14_6 C 0.99995(14) 0.36739(10) 0.59513(18)
C15_3 C 0.73565(15) 0.54837(11) 0.3827(2)
C16_3 C 0.92997(14) 0.39088(10) 0.56221(19)
C18_3 C 0.72205(17) 0.64677(10) 0.3651(2)
H9_3 H 0.948825 0.331090 0.715756
C22_3 C 0.68118(15) 0.41848(11) 0.3567(2)
C23_3 C 0.74327(15) 0.49635(11) 0.3899(2)
C24_3 C 0.77334(16) 0.57797(11) 0.4545(2)
H10_3 H 0.804081 0.564733 0.509616
C25_3 C 0.60974(15) 0.39052(12) 0.3180(2)
C26_3 C 0.81355(14) 0.47318(11) 0.42912(19)
C27_3 C 0.75261(16) 0.39636(11) 0.3970(2)
C28_3 C 0.47157(17) 0.34389(12) 0.2409(2)
C29_3 C 0.68360(18) 0.61793(12) 0.2901(2)
H11_3 H 0.653810 0.631547 0.234952
C31_3 C 0.69054(17) 0.56878(11) 0.2990(2)
H13_3 H 0.665320 0.549291 0.249679
C33_3 C 0.81838(14) 0.42376(10) 0.43179(18)
C34_3 C 0.67844(15) 0.46734(11) 0.3549(2)
H14_3 H 0.631224 0.481996 0.329067
C35_3 C 0.91114(18) 0.51557(12) 0.4056(2)
H15_3 H 0.956458 0.533494 0.437336
H16_3 H 0.923288 0.488892 0.376003
H17_3 H 0.874829 0.535569 0.361374
C36_3 C 0.71928(18) 0.69976(11) 0.3543(2)
C37_3 C 0.48175(19) 0.37616(14) 0.3084(3)
H18_3 H 0.442328 0.382680 0.327612
C38_3 C 0.55179(19) 0.39944(14) 0.3487(3)
H19_3 H 0.559423 0.420795 0.395837
C39_3 C 0.53034(19) 0.33414(14) 0.2108(3)
H20_3 H 0.523158 0.312340 0.164468
C40_3 C 0.39466(18) 0.32143(13) 0.1975(3)
C41_3 C 0.59839(18) 0.35711(14) 0.2505(3)
H21_3 H 0.637877 0.350137 0.231622
C42_3 C 0.9262(2) 0.44568(13) 0.6718(2)
H22_3 H 0.979648 0.440628 0.704076
H23_3 H 0.918614 0.473154 0.633619
H24_3 H 0.902170 0.450705 0.714128
C43_3 C 0.8605(2) 0.35869(15) 0.2637(2)
H25_3 H 0.899060 0.335398 0.269449
H26_3 H 0.822098 0.344780 0.281243
H27_3 H 0.838056 0.369161 0.202005
C44_3 C 0.7475(3) 0.32664(17) 0.4727(3)
H28_3 H 0.785514 0.338042 0.527969
H29_3 H 0.697972 0.334834 0.471159
H30_3 H 0.751440 0.292658 0.469479
In4_2 In 0.74926(2) 0.79312(2) 0.36745(2)
O17_2 O 0.31869(14) 0.21892(8) 0.21929(18)
O18_2 O 0.24110(13) 0.22428(8) 0.07567(17)
C12_4 C 0.23360(16) 0.12692(11) 0.0536(2)
H5_4 H 0.208283 0.146308 0.004108
C15_4 C 0.26435(15) 0.04837(11) 0.1173(2)
C18_4 C 0.27795(17) 0.14677(10) 0.1349(2)
C24_4 C 0.22666(16) 0.07797(11) 0.0455(2)
C29_4 C 0.31640(18) 0.11793(12) 0.2099(2)
H11_4 H 0.346190 0.131547 0.265048
C31_4 C 0.30946(17) 0.06878(11) 0.2010(2)
H13_4 H 0.334680 0.049291 0.250321
C35_4 C 0.08886(18) 0.01557(12) 0.0944(2)
H15_4 H 0.043542 0.033494 0.062664
H17_4 H 0.125171 0.035569 0.138626
C36_4 C 0.28072(18) 0.19976(11) 0.1457(2)
O3_4 O 0.11995(10) 0.99906(7) 0.03249(15)
O6_4 O 0.10612(12) 0.89849(8) 0.17919(14)
O8_4 O 0.24169(12) 0.84770(8) 0.10113(17)
O10_4 O 0.65443(13) 0.82945(9) 0.2722(2)
O12_4 O 0.62009(15) 0.79560(10) 0.3718(2)
C8_4 C 0.10590(14) 0.90007(10) 0.03075(19)
C10_4 C 0.07001(15) 0.88724(10) 0.08876(18)
C22_4 C 0.31882(15) 0.91848(11) 0.1433(2)
C23_4 C 0.25673(15) 0.99635(11) 0.1101(2)
C25_4 C 0.39026(15) 0.89052(12) 0.1820(2)
C26_4 C 0.18645(14) 0.97318(11) 0.07088(19)
C27_4 C 0.24739(16) 0.89636(11) 0.1030(2)
C28_4 C 0.52843(17) 0.84389(12) 0.2591(2)
C33_4 C 0.18162(14) 0.92376(10) 0.06821(18)
C34_4 C 0.32156(15) 0.96734(11) 0.1451(2)
H14_4 H 0.368776 0.981996 0.170933
H16_4 H 0.076712 0.988892 0.123997
C37_4 C 0.51825(19) 0.87616(14) 0.1916(3)
H18_4 H 0.557672 0.882680 0.172388
C38_4 C 0.44821(19) 0.89944(14) 0.1513(3)
H19_4 H 0.440577 0.920795 0.104163
C39_4 C 0.46966(19) 0.83414(14) 0.2892(3)
H20_4 H 0.476842 0.812340 0.335532
C40_4 C 0.60534(18) 0.82143(13) 0.3025(3)
C41_4 C 0.40161(18) 0.85711(14) 0.2495(3)
H21_4 H 0.362123 0.850137 0.268378
C43_4 C 0.1395(2) 0.85869(15) 0.2363(2)
H25_4 H 0.100940 0.835398 0.230551
H26_4 H 0.177902 0.844780 0.218757
H27_4 H 0.161944 0.869161 0.297995
C44_4 C 0.2525(3) 0.82664(17) 0.0273(3)
H29_4 H 0.302028 0.834834 0.028841
H30_4 H 0.248560 0.792658 0.030521
O13_2 O 0.81334(11) 0.85410(7) 0.32162(14)
O14_2 O 0.80706(12) 0.77970(7) 0.27696(14)
O15_2 O 0.87446(12) 0.79632(7) 0.48812(14)
O16_2 O 0.77171(11) 0.83059(8) 0.49207(14)
C1_4 C 0.95866(15) 0.85364(10) 0.11660(19)
C2_4 C 0.87485(15) 0.83362(10) 0.22159(18)
C3_4 C 0.90398(16) 0.87851(10) 0.22258(19)
H1_4 H 0.895035 0.902226 0.257955
C4_4 C 0.99947(15) 0.86547(10) 0.05618(18)
C5_4 C 0.82969(15) 0.82229(10) 0.27678(18)
C7_4 C 0.92814(16) 0.80847(10) 0.11472(19)
H3_4 H 0.935376 0.785131 0.077490
C9_4 C 0.94661(16) 0.88864(11) 0.17118(19)
H4_4 H 0.967164 0.918879 0.173199
C30_4 C 0.88738(16) 0.79793(10) 0.16731(19)
H12_4 H 0.868264 0.767405 0.166927
C6_4 C 0.88264(15) 0.86371(11) 0.76590(19)
H2_4 H 0.856248 0.876645 0.798973
C11_4 C 0.88282(15) 0.83298(10) 0.62614(18)
C13_4 C 0.96034(15) 0.85610(10) 0.80722(19)
C14_7 C 1.00005(14) 0.86739(10) 0.90487(18)
C17_4 C 0.96167(16) 0.82483(10) 0.66773(19)
H6_4 H 0.988046 0.811670 0.634840
C19_4 C 0.96633(15) 0.85486(10) 0.96469(19)
H7_4 H 0.920074 0.838850 0.942911
C20_4 C 0.84394(16) 0.85213(11) 0.67532(19)
H8_4 H 0.791856 0.857321 0.648015
C21_4 C 0.99913(16) 0.83641(11) 0.7568(2)
C32_4 C 0.84210(16) 0.81936(10) 0.5304(2)
H10_4 H 0.195919 0.064733 0.990384
O5_4 O 0.10676(11) 0.90423(8) 0.88316(14)
C14_8 C 0.00005(14) 0.86739(10) 0.90487(18)
C16_4 C 0.07003(14) 0.89088(10) 0.93779(19)
H9_4 H 0.051175 0.831090 0.784244
C42_4 C 0.0738(2) 0.94568(13) 0.8282(2)
H22_4 H 0.020352 0.940628 0.795924
H23_4 H 0.081386 0.973154 0.866381
H24_4 H 0.097830 0.950705 0.785872
H28_4 H 0.214486 0.838042 0.972031
loop_
_geom_bond_atom_site_label_1
_geom_bond_atom_site_label_2
_geom_bond_site_symmetry_1
_geom_bond_site_symmetry_2
In1 O10 1_555 1_555
O3 C26 1_555 1_555
O5 C16 1_555 1_555
O6 C10 1_555 1_555
O8 C27 1_555 1_555
O9 C36 1_555 1_555
O10 C40 1_555 1_555
O11 C36 1_555 1_555
O12 In1 1_555 1_555
C8 C10 1_555 1_555
C12 H5 1_555 1_555
C15 C23 1_555 1_555
C16 C8 1_555 1_555
C18 C12 1_555 1_555
C22 C25 1_555 1_555
C23 C26 1_555 1_555
C24 C12 1_555 1_555
H10 C24 1_555 1_555
C25 C38 1_555 1_555
C26 C33 1_555 1_555
C27 C22 1_555 1_555
C28 C37 1_555 1_555
C29 C18 1_555 1_555
H11 C29 1_555 1_555
C31 C15 1_555 1_555
H13 C31 1_555 1_555
C33 C8 1_555 1_555
C34 C22 1_555 1_555
H14 C34 1_555 1_555
C35 O3 1_555 1_555
H15 C35 1_555 1_555
H16 C35 1_555 1_555
H17 C35 1_555 1_555
C36 C18 1_555 1_555
C37 H18 1_555 1_555
C38 C37 1_555 1_555
H19 C38 1_555 1_555
C39 C28 1_555 1_555
H20 C39 1_555 1_555
C40 O12 1_555 1_555
C41 C25 1_555 1_555
H21 C41 1_555 1_555
C42 O5 1_555 1_555
H22 C42 1_555 1_555
H23 C42 1_555 1_555
H24 C42 1_555 1_555
C43 O6 1_555 1_555
H25 C43 1_555 1_555
H26 C43 1_555 1_555
H27 C43 1_555 1_555
C44 O8 1_555 1_555
H28 C44 1_555 1_555
H29 C44 1_555 1_555
H30 C44 1_555 1_555
In4 O9 1_555 1_555
O13 In1 1_555 1_555
O14 In1 1_555 1_555
O15 In1 1_555 1_555
O16 In1 1_555 1_555
O17 In1 1_555 1_555
O18 In1 1_555 1_555
O11 In4 1_555 1_555
C14 C16 1_555 1_555
C15 C24 1_555 1_555
C23 C34 1_555 1_555
C27 C33 1_555 1_555
C28 C40 1_555 1_555
C29 C31 1_555 1_555
C39 C41 1_555 1_555
O13 C5 1_555 1_555
O14 C5 1_555 1_555
C1 C4 1_555 1_555
C2 C3 1_555 1_555
C3 H1 1_555 1_555
C5 C2 1_555 1_555
C6 H2 1_555 1_555
C7 C1 1_555 1_555
H3 C7 1_555 1_555
C9 C1 1_555 1_555
H4 C9 1_555 1_555
C11 C17 1_555 1_555
C13 C6 1_555 1_555
C14_2 C13 1_555 1_555
C17 H6 1_555 1_555
C19 C4 1_555 1_555
H7 C19 1_555 1_555
C20 C6 1_555 1_555
H8 C20 1_555 1_555
C21 C13 1_555 1_555
C30 C2 1_555 1_555
H12 C30 1_555 1_555
C32 C11 1_555 1_555
C3 C9 1_555 1_555
C7 C30 1_555 1_555
C11 C20 1_555 1_555
C14_2 C19 1_555 1_555
C17 C21 1_555 1_555
O4 C32_2 1_555 1_555
O7 C32_2 1_555 1_555
C6_2 H2_2 1_555 1_555
C11_2 C17_2 1_555 1_555
C13_2 C6_2 1_555 1_555
C14_3 C13_2 1_555 1_555
C17_2 H6_2 1_555 1_555
H7_2 C19_2 1_555 1_555
C20_2 C6_2 1_555 1_555
H8_2 C20_2 1_555 1_555
C21_2 C13_2 1_555 1_555
C32_2 C11_2 1_555 1_555
In4 O4 1_555 1_555
O7 In4 1_555 1_555
C11_2 C20_2 1_555 1_555
C14_3 C19_2 1_555 1_555
C17_2 C21_2 1_555 1_555
O1 C5_2 1_555 1_555
O2 C5_2 1_555 1_555
C1_2 C4_2 1_555 1_555
C2_2 C3_2 1_555 1_555
C3_2 H1_2 1_555 1_555
C5_2 C2_2 1_555 1_555
C7_2 C1_2 1_555 1_555
H3_2 C7_2 1_555 1_555
C9_2 C1_2 1_555 1_555
H4_2 C9_2 1_555 1_555
C30_2 C2_2 1_555 1_555
H12_2 C30_2 1_555 1_555
In4 O1 1_555 1_555
O2 In4 1_555 1_555
C3_2 C9_2 1_555 1_555
C7_2 C30_2 1_555 1_555
In4 O10_2 1_555 1_555
O3_2 C26_2 1_555 1_555
O6_2 C10_2 1_555 1_555
O8_2 C27_2 1_555 1_555
O10_2 C40_2 1_555 1_555
O12_2 In4 1_555 1_555
C8_2 C10_2 1_555 1_555
C22_2 C25_2 1_555 1_555
C23_2 C26_2 1_555 1_555
C25_2 C38_2 1_555 1_555
C26_2 C33_2 1_555 1_555
C27_2 C22_2 1_555 1_555
C28_2 C37_2 1_555 1_555
C33_2 C8_2 1_555 1_555
C34_2 C22_2 1_555 1_555
H14_2 C34_2 1_555 1_555
C37_2 H18_2 1_555 1_555
C38_2 C37_2 1_555 1_555
H19_2 C38_2 1_555 1_555
C39_2 C28_2 1_555 1_555
H20_2 C39_2 1_555 1_555
C40_2 O12_2 1_555 1_555
C41_2 C25_2 1_555 1_555
H21_2 C41_2 1_555 1_555
C43_2 O6_2 1_555 1_555
H25_2 C43_2 1_555 1_555
H26_2 C43_2 1_555 1_555
H27_2 C43_2 1_555 1_555
C44_2 O8_2 1_555 1_555
H29_2 C44_2 1_555 1_555
H30_2 C44_2 1_555 1_555
C23_2 C34_2 1_555 1_555
C27_2 C33_2 1_555 1_555
C28_2 C40_2 1_555 1_555
C39_2 C41_2 1_555 1_555
O17 C36_2 1_555 1_555
O18 C36_2 1_555 1_555
C12_2 H5_2 1_555 1_555
C18_2 C12_2 1_555 1_555
C24_2 C12_2 1_555 1_555
C29_2 C18_2 1_555 1_555
H11_2 C29_2 1_555 1_555
C31_2 C15_2 1_555 1_555
H13_2 C31_2 1_555 1_555
H15_2 C35_2 1_555 1_555
H17_2 C35_2 1_555 1_555
C36_2 C18_2 1_555 1_555
C15_2 C24_2 1_555 1_555
C29_2 C31_2 1_555 1_555
O5_2 C16_2 1_555 1_555
C42_2 O5_2 1_555 1_555
H22_2 C42_2 1_555 1_555
H23_2 C42_2 1_555 1_555
H24_2 C42_2 1_555 1_555
C14_4 C16_2 1_555 1_555
In2 O4_2 1_555 1_555
O7_2 In2 1_555 1_555
O1_2 C5_3 1_555 1_555
O2_2 C5_3 1_555 1_555
C1_3 C4_3 1_555 1_555
C2_3 C3_3 1_555 1_555
C3_3 H1_3 1_555 1_555
C5_3 C2_3 1_555 1_555
C6_3 H2_3 1_555 1_555
C7_3 C1_3 1_555 1_555
H3_3 C7_3 1_555 1_555
C9_3 C1_3 1_555 1_555
H4_3 C9_3 1_555 1_555
C11_3 C17_3 1_555 1_555
C13_3 C6_3 1_555 1_555
C14_5 C13_3 1_555 1_555
C17_3 H6_3 1_555 1_555
C19_3 C4_3 1_555 1_555
H7_3 C19_3 1_555 1_555
C20_3 C6_3 1_555 1_555
H8_3 C20_3 1_555 1_555
C21_3 C13_3 1_555 1_555
C30_3 C2_3 1_555 1_555
H12_3 C30_3 1_555 1_555
C32_3 C11_3 1_555 1_555
In2 O1_2 1_555 1_555
O2_2 In2 1_555 1_555
C3_3 C9_3 1_555 1_555
C7_3 C30_3 1_555 1_555
C11_3 C20_3 1_555 1_555
C14_5 C19_3 1_555 1_555
C17_3 C21_3 1_555 1_555
In2 O10_3 1_555 1_555
O3_3 C26_3 1_555 1_555
O5_3 C16_3 1_555 1_555
O6_3 C10_3 1_555 1_555
O8_3 C27_3 1_555 1_555
O9_2 C36_3 1_555 1_555
O10_3 C40_3 1_555 1_555
O11_2 C36_3 1_555 1_555
O12_3 In2 1_555 1_555
C8_3 C10_3 1_555 1_555
C12_3 H5_3 1_555 1_555
C15_3 C23_3 1_555 1_555
C16_3 C8_3 1_555 1_555
C18_3 C12_3 1_555 1_555
C22_3 C25_3 1_555 1_555
C23_3 C26_3 1_555 1_555
C24_3 C12_3 1_555 1_555
H10_3 C24_3 1_555 1_555
C25_3 C38_3 1_555 1_555
C26_3 C33_3 1_555 1_555
C27_3 C22_3 1_555 1_555
C28_3 C37_3 1_555 1_555
C29_3 C18_3 1_555 1_555
H11_3 C29_3 1_555 1_555
C31_3 C15_3 1_555 1_555
H13_3 C31_3 1_555 1_555
C33_3 C8_3 1_555 1_555
C34_3 C22_3 1_555 1_555
H14_3 C34_3 1_555 1_555
C35_3 O3_3 1_555 1_555
H15_3 C35_3 1_555 1_555
H16_3 C35_3 1_555 1_555
H17_3 C35_3 1_555 1_555
C36_3 C18_3 1_555 1_555
C37_3 H18_3 1_555 1_555
C38_3 C37_3 1_555 1_555
H19_3 C38_3 1_555 1_555
C39_3 C28_3 1_555 1_555
H20_3 C39_3 1_555 1_555
C40_3 O12_3 1_555 1_555
C41_3 C25_3 1_555 1_555
H21_3 C41_3 1_555 1_555
C42_3 O5_3 1_555 1_555
H22_3 C42_3 1_555 1_555
H23_3 C42_3 1_555 1_555
H24_3 C42_3 1_555 1_555
C43_3 O6_3 1_555 1_555
H25_3 C43_3 1_555 1_555
H26_3 C43_3 1_555 1_555
H27_3 C43_3 1_555 1_555
C44_3 O8_3 1_555 1_555
H28_3 C44_3 1_555 1_555
H29_3 C44_3 1_555 1_555
H30_3 C44_3 1_555 1_555
In4_2 O9_2 1_555 1_555
O17_2 In2 1_555 1_555
O18_2 In2 1_555 1_555
O11_2 In4_2 1_555 1_555
C14_6 C16_3 1_555 1_555
C15_3 C24_3 1_555 1_555
C23_3 C34_3 1_555 1_555
C27_3 C33_3 1_555 1_555
C28_3 C40_3 1_555 1_555
C29_3 C31_3 1_555 1_555
C39_3 C41_3 1_555 1_555
O17_2 C36_4 1_555 1_555
O18_2 C36_4 1_555 1_555
C12_4 H5_4 1_555 1_555
C18_4 C12_4 1_555 1_555
C24_4 C12_4 1_555 1_555
C29_4 C18_4 1_555 1_555
H11_4 C29_4 1_555 1_555
C31_4 C15_4 1_555 1_555
H13_4 C31_4 1_555 1_555
H15_4 C35_4 1_555 1_555
H17_4 C35_4 1_555 1_555
C36_4 C18_4 1_555 1_555
C15_4 C24_4 1_555 1_555
C29_4 C31_4 1_555 1_555
In4_2 O10_4 1_555 1_555
O3_4 C26_4 1_555 1_555
O6_4 C10_4 1_555 1_555
O8_4 C27_4 1_555 1_555
O10_4 C40_4 1_555 1_555
O12_4 In4_2 1_555 1_555
C8_4 C10_4 1_555 1_555
C22_4 C25_4 1_555 1_555
C23_4 C26_4 1_555 1_555
C25_4 C38_4 1_555 1_555
C26_4 C33_4 1_555 1_555
C27_4 C22_4 1_555 1_555
C28_4 C37_4 1_555 1_555
C33_4 C8_4 1_555 1_555
C34_4 C22_4 1_555 1_555
H14_4 C34_4 1_555 1_555
C37_4 H18_4 1_555 1_555
C38_4 C37_4 1_555 1_555
H19_4 C38_4 1_555 1_555
C39_4 C28_4 1_555 1_555
H20_4 C39_4 1_555 1_555
C40_4 O12_4 1_555 1_555
C41_4 C25_4 1_555 1_555
H21_4 C41_4 1_555 1_555
C43_4 O6_4 1_555 1_555
H25_4 C43_4 1_555 1_555
H26_4 C43_4 1_555 1_555
H27_4 C43_4 1_555 1_555
C44_4 O8_4 1_555 1_555
H29_4 C44_4 1_555 1_555
H30_4 C44_4 1_555 1_555
O13_2 In4_2 1_555 1_555
O14_2 In4_2 1_555 1_555
O15_2 In4_2 1_555 1_555
O16_2 In4_2 1_555 1_555
C23_4 C34_4 1_555 1_555
C27_4 C33_4 1_555 1_555
C28_4 C40_4 1_555 1_555
C39_4 C41_4 1_555 1_555
O13_2 C5_4 1_555 1_555
O14_2 C5_4 1_555 1_555
C1_4 C4_4 1_555 1_555
C2_4 C3_4 1_555 1_555
C3_4 H1_4 1_555 1_555
C5_4 C2_4 1_555 1_555
C7_4 C1_4 1_555 1_555
H3_4 C7_4 1_555 1_555
C9_4 C1_4 1_555 1_555
H4_4 C9_4 1_555 1_555
C30_4 C2_4 1_555 1_555
H12_4 C30_4 1_555 1_555
C3_4 C9_4 1_555 1_555
C7_4 C30_4 1_555 1_555
O15_2 C32_4 1_555 1_555
O16_2 C32_4 1_555 1_555
C6_4 H2_4 1_555 1_555
C11_4 C17_4 1_555 1_555
C13_4 C6_4 1_555 1_555
C14_7 C13_4 1_555 1_555
C17_4 H6_4 1_555 1_555
H7_4 C19_4 1_555 1_555
C20_4 C6_4 1_555 1_555
H8_4 C20_4 1_555 1_555
C21_4 C13_4 1_555 1_555
C32_4 C11_4 1_555 1_555
C11_4 C20_4 1_555 1_555
C14_7 C19_4 1_555 1_555
C17_4 C21_4 1_555 1_555
O5_4 C16_4 1_555 1_555
C42_4 O5_4 1_555 1_555
H22_4 C42_4 1_555 1_555
H23_4 C42_4 1_555 1_555
H24_4 C42_4 1_555 1_555
C14_8 C16_4 1_555 1_555

#END
