
###############################################################################
#
# This file contains modified crystal structure data generated from the
# MOF subset of the Cambridge Structural Database (CSD) v543 
# hosted by the Cambridge Crystallographic Data Centre (CCDC).
#
# This work is licensed under the Creative Commons
# Attribution-NonCommercial-ShareAlike 4.0 International License.
# To view a copy of this license, visit
# http://creativecommons.org/licenses/by-nc-sa/4.0/
# or send a letter to
# Creative Commons, PO Box 1866, Mountain View, CA 94042, USA.
#
# CIF created using the CSD Python API on 29 September 2022
# The structure has been converted into the P1 space group
# The structure has a 3D framework
# The original CSD entry OPUMIY is in the orthorhombic crystal system
# The original CSD entry OPUMIY is in a Sohncke space group
# The framework has been calculated to contain at least 10.0% void space
# The void calculation uses a probe of radius 1.32A, grid spacing 0.4
# The framework is charged, counterions have been retained in the structure
#
###############################################################################

data_OPUMIY
_chemical_formula_moiety         '(C336 H208 In4 O68 8-)n'
_symmetry_cell_setting           triclinic
_symmetry_space_group_name_H-M   'P 1'
_symmetry_Int_Tables_number      1
_space_group_name_Hall           'P 1'
loop_
_symmetry_equiv_pos_site_id
_symmetry_equiv_pos_as_xyz
1 x,y,z
_cell_length_a                   28.7304(19)
_cell_length_b                   30.6295(19)
_cell_length_c                   13.6780(7)
_cell_angle_alpha                90
_cell_angle_beta                 90
_cell_angle_gamma                90
_cell_volume                     12036.6
loop_
_atom_site_label
_atom_site_type_symbol
_atom_site_fract_x
_atom_site_fract_y
_atom_site_fract_z
In1 In 0.250000 0.54939(2) 0.750000
O1 O 0.30696(14) 0.10202(12) 0.2260(4)
O2 O 0.32893(14) 0.30171(11) 0.4908(3)
O3 O 0.31643(14) 0.50297(12) 0.7523(6)
O4 O 0.27287(12) 0.50470(11) 0.6347(3)
O5 O 0.28149(12) 0.08744(12) 0.3745(3)
C1 C 0.37652(16) 0.30058(13) 0.4877(4)
C2 C 0.3066(2) 0.48874(18) 0.6795(5)
C3 C 0.37705(19) 0.22191(16) 0.4216(5)
C4 C 0.33402(18) 0.14854(15) 0.3549(4)
C5 C 0.40098(15) 0.26267(12) 0.4596(4)
C6 C 0.3057(2) 0.1105(2) 0.3195(6)
C7 C 0.36949(17) 0.16614(16) 0.3015(4)
H1 H 0.379232 0.153197 0.241797
C8 C 0.45095(15) 0.26277(13) 0.4644(4)
H2 H 0.467937 0.237404 0.446412
C9 C 0.3892(2) 0.39333(17) 0.6512(4)
H3 H 0.413168 0.379986 0.688486
C10 C 0.36721(17) 0.43012(18) 0.6842(5)
H4 H 0.378581 0.443336 0.742320
C11 C 0.44856(15) 0.33419(13) 0.5263(4)
H5 H 0.464438 0.358136 0.555233
C12 C 0.39093(19) 0.2036(2) 0.3372(5)
H6 H 0.415755 0.216368 0.301366
C13 C 0.47453(18) 0.30010(12) 0.4955(3)
C14 C 0.40095(16) 0.33690(15) 0.5191(4)
C15 C 0.37472(16) 0.37505(16) 0.5572(5)
C16 C 0.3014(2) 0.2986(2) 0.4068(6)
H7 H 0.304921 0.325253 0.367787
H8 H 0.268741 0.295079 0.425648
H9 H 0.311348 0.273355 0.368091
C17 C 0.3297(2) 0.44919(17) 0.6385(3)
C18 C 0.3438(2) 0.20463(16) 0.4796(5)
H10 H 0.335989 0.217753 0.540309
C19 C 0.32037(19) 0.16552(16) 0.4464(4)
H11 H 0.296864 0.151890 0.484528
C20 C 0.31857(17) 0.4342(2) 0.5480(4)
H12 H 0.297276 0.449003 0.506417
C21 C 0.34036(15) 0.39613(14) 0.5209(5)
H13 H 0.327385 0.382890 0.464317
O6 O 0.69304(14) 0.10202(12) 0.7740(4)
O7 O 0.67107(14) 0.30171(11) 0.5092(3)
O8 O 0.68357(14) 0.50297(12) 0.2477(6)
O9 O 0.72713(12) 0.50470(11) 0.3653(3)
O10 O 0.71851(12) 0.08744(12) 0.6255(3)
C22 C 0.62348(16) 0.30058(13) 0.5123(4)
C23 C 0.6934(2) 0.48874(18) 0.3205(5)
C24 C 0.62295(19) 0.22191(16) 0.5784(5)
C25 C 0.66598(18) 0.14854(15) 0.6451(4)
C26 C 0.59902(15) 0.26267(12) 0.5404(4)
C27 C 0.6943(2) 0.1105(2) 0.6805(6)
C28 C 0.63051(17) 0.16614(16) 0.6985(4)
H14 H 0.620768 0.153197 0.758203
C29 C 0.54905(15) 0.26277(13) 0.5356(4)
H15 H 0.532063 0.237404 0.553588
C30 C 0.6108(2) 0.39333(17) 0.3488(4)
H16 H 0.586832 0.379986 0.311514
C31 C 0.63279(17) 0.43012(18) 0.3158(5)
H17 H 0.621419 0.443336 0.257680
C32 C 0.55144(15) 0.33419(13) 0.4737(4)
H18 H 0.535562 0.358136 0.444767
C33 C 0.60907(19) 0.2036(2) 0.6628(5)
H19 H 0.584245 0.216368 0.698634
C34 C 0.52547(18) 0.30010(12) 0.5045(3)
C35 C 0.59905(16) 0.33690(15) 0.4809(4)
C36 C 0.62528(16) 0.37505(16) 0.4428(5)
C37 C 0.6986(2) 0.2986(2) 0.5932(6)
H20 H 0.695079 0.325253 0.632213
H21 H 0.731259 0.295079 0.574352
H22 H 0.688652 0.273355 0.631909
C38 C 0.6703(2) 0.44919(17) 0.3615(3)
C39 C 0.6562(2) 0.20463(16) 0.5204(5)
H23 H 0.664011 0.217753 0.459691
C40 C 0.67963(19) 0.16552(16) 0.5536(4)
H24 H 0.703136 0.151890 0.515472
C41 C 0.68143(17) 0.4342(2) 0.4520(4)
H25 H 0.702724 0.449003 0.493583
C42 C 0.65964(15) 0.39613(14) 0.4791(5)
H26 H 0.672615 0.382890 0.535683
In2 In 0.750000 0.54939(2) 0.250000
In3 In 0.250000 0.04939(2) 0.250000
In4 In 0.750000 0.04939(2) 0.750000
O11 O 0.30696(14) 0.60202(12) 0.7260(4)
O12 O 0.19304(14) 0.60202(12) 0.7740(4)
O13 O 0.18357(14) 0.50297(12) 0.7477(6)
O14 O 0.22713(12) 0.50470(11) 0.8653(3)
O15 O 0.28149(12) 0.58744(12) 0.8745(3)
O16 O 0.21851(12) 0.58744(12) 0.6255(3)
O11_2 O 0.69304(14) 0.60202(12) 0.2740(4)
O12_2 O 0.80696(14) 0.60202(12) 0.2260(4)
O13_2 O 0.81643(14) 0.50297(12) 0.2523(6)
O14_2 O 0.77287(12) 0.50470(11) 0.1347(3)
O15_2 O 0.71851(12) 0.58744(12) 0.1255(3)
O16_2 O 0.78149(12) 0.58744(12) 0.3745(3)
O3_2 O 0.31643(14) 0.00297(12) 0.2523(6)
O4_2 O 0.27287(12) 0.00470(11) 0.1347(3)
O12_3 O 0.19304(14) 0.10202(12) 0.2740(4)
O13_3 O 0.18357(14) 0.00297(12) 0.2477(6)
O14_3 O 0.22713(12) 0.00470(11) 0.3653(3)
O16_3 O 0.21851(12) 0.08744(12) 0.1255(3)
O8_2 O 0.68357(14) 0.00297(12) 0.7477(6)
O9_2 O 0.72713(12) 0.00470(11) 0.8653(3)
C2_2 C 0.3066(2) 0.98874(18) 0.1795(5)
C9_2 C 0.3892(2) 0.89333(17) 0.1512(4)
H3_2 H 0.413168 0.879986 0.188486
C10_2 C 0.36721(17) 0.93012(18) 0.1842(5)
H4_2 H 0.378581 0.943336 0.242320
C11_2 C 0.44856(15) 0.83419(13) 0.0263(4)
H5_2 H 0.464438 0.858136 0.055233
C14_2 C 0.40095(16) 0.83690(15) 0.0191(4)
C15_2 C 0.37472(16) 0.87505(16) 0.0572(5)
C17_2 C 0.3297(2) 0.94919(17) 0.1385(3)
H10_2 H 0.335989 0.717753 0.040309
C20_2 C 0.31857(17) 0.9342(2) 0.0480(4)
H12_2 H 0.297276 0.949003 0.006417
C21_2 C 0.34036(15) 0.89613(14) 0.0209(5)
O7_2 O 0.67107(14) 0.80171(11) 0.0092(3)
C22_2 C 0.62348(16) 0.80058(13) 0.0123(4)
C24_2 C 0.62295(19) 0.72191(16) 0.0784(5)
C25_2 C 0.66598(18) 0.64854(15) 0.1451(4)
C26_2 C 0.59902(15) 0.76267(12) 0.0404(4)
C27_2 C 0.6943(2) 0.6105(2) 0.1805(6)
C28_2 C 0.63051(17) 0.66614(16) 0.1985(4)
H14_2 H 0.620768 0.653197 0.258203
C29_2 C 0.54905(15) 0.76277(13) 0.0356(4)
H15_2 H 0.532063 0.737404 0.053588
C33_2 C 0.60907(19) 0.7036(2) 0.1628(5)
H19_2 H 0.584245 0.716368 0.198634
C34_2 C 0.52547(18) 0.80010(12) 0.0045(3)
C37_2 C 0.6986(2) 0.7986(2) 0.0932(6)
H20_2 H 0.695079 0.825253 0.132213
H21_2 H 0.731259 0.795079 0.074352
H22_2 H 0.688652 0.773355 0.131909
C39_2 C 0.6562(2) 0.70463(16) 0.0204(5)
C40_2 C 0.67963(19) 0.66552(16) 0.0536(4)
H24_2 H 0.703136 0.651890 0.015472
H26_2 H 0.672615 0.882890 0.035683
O2_2 O 0.32893(14) 0.80171(11) 0.9908(3)
C1_2 C 0.37652(16) 0.80058(13) 0.9877(4)
C3_2 C 0.37705(19) 0.72191(16) 0.9216(5)
C4_2 C 0.33402(18) 0.64854(15) 0.8549(4)
C5_2 C 0.40098(15) 0.76267(12) 0.9596(4)
C6_2 C 0.3057(2) 0.6105(2) 0.8195(6)
C7_2 C 0.36949(17) 0.66614(16) 0.8015(4)
H1_2 H 0.379232 0.653197 0.741797
C8_2 C 0.45095(15) 0.76277(13) 0.9644(4)
H2_2 H 0.467937 0.737404 0.946412
C12_2 C 0.39093(19) 0.7036(2) 0.8372(5)
H6_2 H 0.415755 0.716368 0.801366
C13_2 C 0.47453(18) 0.80010(12) 0.9955(3)
C16_2 C 0.3014(2) 0.7986(2) 0.9068(6)
H7_2 H 0.304921 0.825253 0.867787
H8_2 H 0.268741 0.795079 0.925648
H9_2 H 0.311348 0.773355 0.868091
C18_2 C 0.3438(2) 0.70463(16) 0.9796(5)
C19_2 C 0.32037(19) 0.66552(16) 0.9464(4)
H11_2 H 0.296864 0.651890 0.984528
H13_2 H 0.327385 0.882890 0.964317
C23_2 C 0.6934(2) 0.98874(18) 0.8205(5)
C30_2 C 0.6108(2) 0.89333(17) 0.8488(4)
H16_2 H 0.586832 0.879986 0.811514
C31_2 C 0.63279(17) 0.93012(18) 0.8158(5)
H17_2 H 0.621419 0.943336 0.757680
C32_2 C 0.55144(15) 0.83419(13) 0.9737(4)
H18_2 H 0.535562 0.858136 0.944767
C35_2 C 0.59905(16) 0.83690(15) 0.9809(4)
C36_2 C 0.62528(16) 0.87505(16) 0.9428(5)
C38_2 C 0.6703(2) 0.94919(17) 0.8615(3)
H23_2 H 0.664011 0.717753 0.959691
C41_2 C 0.68143(17) 0.9342(2) 0.9520(4)
H25_2 H 0.702724 0.949003 0.993583
C42_2 C 0.65964(15) 0.89613(14) 0.9791(5)
O12_4 O 0.80696(14) 0.10202(12) 0.7260(4)
O13_4 O 0.81643(14) 0.00297(12) 0.7523(6)
O14_4 O 0.77287(12) 0.00470(11) 0.6347(3)
O16_4 O 0.78149(12) 0.08744(12) 0.8745(3)
O7_3 O 0.17107(14) 0.30171(11) 0.0092(3)
C22_3 C 0.12348(16) 0.30058(13) 0.0123(4)
C24_3 C 0.12295(19) 0.22191(16) 0.0784(5)
C25_3 C 0.16598(18) 0.14854(15) 0.1451(4)
C26_3 C 0.09902(15) 0.26267(12) 0.0404(4)
C27_3 C 0.1943(2) 0.1105(2) 0.1805(6)
C28_3 C 0.13051(17) 0.16614(16) 0.1985(4)
H14_3 H 0.120768 0.153197 0.258203
C29_3 C 0.04905(15) 0.26277(13) 0.0356(4)
H15_3 H 0.032063 0.237404 0.053588
C33_3 C 0.10907(19) 0.2036(2) 0.1628(5)
H19_3 H 0.084245 0.216368 0.198634
C34_3 C 0.02547(18) 0.30010(12) 0.0045(3)
C37_3 C 0.1986(2) 0.2986(2) 0.0932(6)
H20_3 H 0.195079 0.325253 0.132213
H21_3 H 0.231259 0.295079 0.074352
H22_3 H 0.188652 0.273355 0.131909
C39_3 C 0.1562(2) 0.20463(16) 0.0204(5)
C40_3 C 0.17963(19) 0.16552(16) 0.0536(4)
H24_3 H 0.203136 0.151890 0.015472
H26_3 H 0.172615 0.382890 0.035683
C23_3 C 0.1934(2) 0.48874(18) 0.8205(5)
C30_3 C 0.1108(2) 0.39333(17) 0.8488(4)
H16_3 H 0.086832 0.379986 0.811514
C31_3 C 0.13279(17) 0.43012(18) 0.8158(5)
H17_3 H 0.121419 0.443336 0.757680
C32_3 C 0.05144(15) 0.33419(13) 0.9737(4)
H18_3 H 0.035562 0.358136 0.944767
C35_3 C 0.09905(16) 0.33690(15) 0.9809(4)
C36_3 C 0.12528(16) 0.37505(16) 0.9428(5)
C38_3 C 0.1703(2) 0.44919(17) 0.8615(3)
H23_3 H 0.164011 0.217753 0.959691
C41_3 C 0.18143(17) 0.4342(2) 0.9520(4)
H25_3 H 0.202724 0.449003 0.993583
C42_3 C 0.15964(15) 0.39613(14) 0.9791(5)
C2_3 C 0.8066(2) 0.48874(18) 0.1795(5)
C9_3 C 0.8892(2) 0.39333(17) 0.1512(4)
H3_3 H 0.913168 0.379986 0.188486
C10_3 C 0.86721(17) 0.43012(18) 0.1842(5)
H4_3 H 0.878581 0.443336 0.242320
C11_3 C 0.94856(15) 0.33419(13) 0.0263(4)
H5_3 H 0.964438 0.358136 0.055233
C14_3 C 0.90095(16) 0.33690(15) 0.0191(4)
C15_3 C 0.87472(16) 0.37505(16) 0.0572(5)
C17_3 C 0.8297(2) 0.44919(17) 0.1385(3)
H10_3 H 0.835989 0.217753 0.040309
C20_3 C 0.81857(17) 0.4342(2) 0.0480(4)
H12_3 H 0.797276 0.449003 0.006417
C21_3 C 0.84036(15) 0.39613(14) 0.0209(5)
O2_3 O 0.82893(14) 0.30171(11) 0.9908(3)
C1_3 C 0.87652(16) 0.30058(13) 0.9877(4)
C3_3 C 0.87705(19) 0.22191(16) 0.9216(5)
C4_3 C 0.83402(18) 0.14854(15) 0.8549(4)
C5_3 C 0.90098(15) 0.26267(12) 0.9596(4)
C6_3 C 0.8057(2) 0.1105(2) 0.8195(6)
C7_3 C 0.86949(17) 0.16614(16) 0.8015(4)
H1_3 H 0.879232 0.153197 0.741797
C8_3 C 0.95095(15) 0.26277(13) 0.9644(4)
H2_3 H 0.967937 0.237404 0.946412
C12_3 C 0.89093(19) 0.2036(2) 0.8372(5)
H6_3 H 0.915755 0.216368 0.801366
C13_3 C 0.97453(18) 0.30010(12) 0.9955(3)
C16_3 C 0.8014(2) 0.2986(2) 0.9068(6)
H7_3 H 0.804921 0.325253 0.867787
H8_3 H 0.768741 0.295079 0.925648
H9_3 H 0.811348 0.273355 0.868091
C18_3 C 0.8438(2) 0.20463(16) 0.9796(5)
C19_3 C 0.82037(19) 0.16552(16) 0.9464(4)
H11_3 H 0.796864 0.151890 0.984528
H13_3 H 0.827385 0.382890 0.964317
O7_4 O 0.17107(14) 0.80171(11) 0.5092(3)
C22_4 C 0.12348(16) 0.80058(13) 0.5123(4)
C23_4 C 0.1934(2) 0.98874(18) 0.3205(5)
C24_4 C 0.12295(19) 0.72191(16) 0.5784(5)
C25_4 C 0.16598(18) 0.64854(15) 0.6451(4)
C26_4 C 0.09902(15) 0.76267(12) 0.5404(4)
C27_4 C 0.1943(2) 0.6105(2) 0.6805(6)
C28_4 C 0.13051(17) 0.66614(16) 0.6985(4)
H14_4 H 0.120768 0.653197 0.758203
C29_4 C 0.04905(15) 0.76277(13) 0.5356(4)
H15_4 H 0.032063 0.737404 0.553588
C30_4 C 0.1108(2) 0.89333(17) 0.3488(4)
H16_4 H 0.086832 0.879986 0.311514
C31_4 C 0.13279(17) 0.93012(18) 0.3158(5)
H17_4 H 0.121419 0.943336 0.257680
C32_4 C 0.05144(15) 0.83419(13) 0.4737(4)
H18_4 H 0.035562 0.858136 0.444767
C33_4 C 0.10907(19) 0.7036(2) 0.6628(5)
H19_4 H 0.084245 0.716368 0.698634
C34_4 C 0.02547(18) 0.80010(12) 0.5045(3)
C35_4 C 0.09905(16) 0.83690(15) 0.4809(4)
C36_4 C 0.12528(16) 0.87505(16) 0.4428(5)
C37_4 C 0.1986(2) 0.7986(2) 0.5932(6)
H20_4 H 0.195079 0.825253 0.632213
H21_4 H 0.231259 0.795079 0.574352
H22_4 H 0.188652 0.773355 0.631909
C38_4 C 0.1703(2) 0.94919(17) 0.3615(3)
C39_4 C 0.1562(2) 0.70463(16) 0.5204(5)
H23_4 H 0.164011 0.717753 0.459691
C40_4 C 0.17963(19) 0.66552(16) 0.5536(4)
H24_4 H 0.203136 0.651890 0.515472
C41_4 C 0.18143(17) 0.9342(2) 0.4520(4)
H25_4 H 0.202724 0.949003 0.493583
C42_4 C 0.15964(15) 0.89613(14) 0.4791(5)
H26_4 H 0.172615 0.882890 0.535683
O2_4 O 0.82893(14) 0.80171(11) 0.4908(3)
C1_4 C 0.87652(16) 0.80058(13) 0.4877(4)
C2_4 C 0.8066(2) 0.98874(18) 0.6795(5)
C3_4 C 0.87705(19) 0.72191(16) 0.4216(5)
C4_4 C 0.83402(18) 0.64854(15) 0.3549(4)
C5_4 C 0.90098(15) 0.76267(12) 0.4596(4)
C6_4 C 0.8057(2) 0.6105(2) 0.3195(6)
C7_4 C 0.86949(17) 0.66614(16) 0.3015(4)
H1_4 H 0.879232 0.653197 0.241797
C8_4 C 0.95095(15) 0.76277(13) 0.4644(4)
H2_4 H 0.967937 0.737404 0.446412
C9_4 C 0.8892(2) 0.89333(17) 0.6512(4)
H3_4 H 0.913168 0.879986 0.688486
C10_4 C 0.86721(17) 0.93012(18) 0.6842(5)
H4_4 H 0.878581 0.943336 0.742320
C11_4 C 0.94856(15) 0.83419(13) 0.5263(4)
H5_4 H 0.964438 0.858136 0.555233
C12_4 C 0.89093(19) 0.7036(2) 0.3372(5)
H6_4 H 0.915755 0.716368 0.301366
C13_4 C 0.97453(18) 0.80010(12) 0.4955(3)
C14_4 C 0.90095(16) 0.83690(15) 0.5191(4)
C15_4 C 0.87472(16) 0.87505(16) 0.5572(5)
C16_4 C 0.8014(2) 0.7986(2) 0.4068(6)
H7_4 H 0.804921 0.825253 0.367787
H8_4 H 0.768741 0.795079 0.425648
H9_4 H 0.811348 0.773355 0.368091
C17_4 C 0.8297(2) 0.94919(17) 0.6385(3)
C18_4 C 0.8438(2) 0.70463(16) 0.4796(5)
H10_4 H 0.835989 0.717753 0.540309
C19_4 C 0.82037(19) 0.66552(16) 0.4464(4)
H11_4 H 0.796864 0.651890 0.484528
C20_4 C 0.81857(17) 0.9342(2) 0.5480(4)
H12_4 H 0.797276 0.949003 0.506417
C21_4 C 0.84036(15) 0.89613(14) 0.5209(5)
H13_4 H 0.827385 0.882890 0.464317
In1_2 In 0.750000 0.45061(2) 0.750000
O1_2 O 0.69304(14) 0.89798(12) 0.2260(4)
O2_5 O 0.67107(14) 0.69829(11) 0.4908(3)
O3_3 O 0.68357(14) 0.49703(12) 0.7523(6)
O4_3 O 0.72713(12) 0.49530(11) 0.6347(3)
O5_2 O 0.71851(12) 0.91256(12) 0.3745(3)
C1_5 C 0.62348(16) 0.69942(13) 0.4877(4)
C2_5 C 0.6934(2) 0.51126(18) 0.6795(5)
C3_5 C 0.62295(19) 0.77809(16) 0.4216(5)
C4_5 C 0.66598(18) 0.85146(15) 0.3549(4)
C5_5 C 0.59902(15) 0.73733(12) 0.4596(4)
C6_5 C 0.6943(2) 0.8895(2) 0.3195(6)
C7_5 C 0.63051(17) 0.83386(16) 0.3015(4)
H1_5 H 0.620768 0.846803 0.241797
C8_5 C 0.54905(15) 0.73723(13) 0.4644(4)
H2_5 H 0.532063 0.762596 0.446412
C9_5 C 0.6108(2) 0.60667(17) 0.6512(4)
H3_5 H 0.586832 0.620014 0.688486
C10_5 C 0.63279(17) 0.56988(18) 0.6842(5)
H4_5 H 0.621419 0.556664 0.742320
C11_5 C 0.55144(15) 0.66581(13) 0.5263(4)
H5_5 H 0.535562 0.641864 0.555233
C12_5 C 0.60907(19) 0.7964(2) 0.3372(5)
H6_5 H 0.584245 0.783632 0.301366
C13_5 C 0.52547(18) 0.69990(12) 0.4955(3)
C14_5 C 0.59905(16) 0.66310(15) 0.5191(4)
C15_5 C 0.62528(16) 0.62495(16) 0.5572(5)
C16_5 C 0.6986(2) 0.7014(2) 0.4068(6)
H7_5 H 0.695079 0.674747 0.367787
H8_5 H 0.731259 0.704921 0.425648
H9_5 H 0.688652 0.726645 0.368091
C17_5 C 0.6703(2) 0.55081(17) 0.6385(3)
C18_5 C 0.6562(2) 0.79537(16) 0.4796(5)
H10_5 H 0.664011 0.782247 0.540309
C19_5 C 0.67963(19) 0.83448(16) 0.4464(4)
H11_5 H 0.703136 0.848110 0.484528
C20_5 C 0.68143(17) 0.5658(2) 0.5480(4)
H12_5 H 0.702724 0.550997 0.506417
C21_5 C 0.65964(15) 0.60387(14) 0.5209(5)
H13_5 H 0.672615 0.617110 0.464317
O6_2 O 0.30696(14) 0.89798(12) 0.7740(4)
O7_5 O 0.32893(14) 0.69829(11) 0.5092(3)
O8_3 O 0.31643(14) 0.49703(12) 0.2477(6)
O9_3 O 0.27287(12) 0.49530(11) 0.3653(3)
O10_2 O 0.28149(12) 0.91256(12) 0.6255(3)
C22_5 C 0.37652(16) 0.69942(13) 0.5123(4)
C23_5 C 0.3066(2) 0.51126(18) 0.3205(5)
C24_5 C 0.37705(19) 0.77809(16) 0.5784(5)
C25_5 C 0.33402(18) 0.85146(15) 0.6451(4)
C26_5 C 0.40098(15) 0.73733(12) 0.5404(4)
C27_5 C 0.3057(2) 0.8895(2) 0.6805(6)
C28_5 C 0.36949(17) 0.83386(16) 0.6985(4)
H14_5 H 0.379232 0.846803 0.758203
C29_5 C 0.45095(15) 0.73723(13) 0.5356(4)
H15_5 H 0.467937 0.762596 0.553588
C30_5 C 0.3892(2) 0.60667(17) 0.3488(4)
H16_5 H 0.413168 0.620014 0.311514
C31_5 C 0.36721(17) 0.56988(18) 0.3158(5)
H17_5 H 0.378581 0.556664 0.257680
C32_5 C 0.44856(15) 0.66581(13) 0.4737(4)
H18_5 H 0.464438 0.641864 0.444767
C33_5 C 0.39093(19) 0.7964(2) 0.6628(5)
H19_5 H 0.415755 0.783632 0.698634
C34_5 C 0.47453(18) 0.69990(12) 0.5045(3)
C35_5 C 0.40095(16) 0.66310(15) 0.4809(4)
C36_5 C 0.37472(16) 0.62495(16) 0.4428(5)
C37_5 C 0.3014(2) 0.7014(2) 0.5932(6)
H20_5 H 0.304921 0.674747 0.632213
H21_5 H 0.268741 0.704921 0.574352
H22_5 H 0.311348 0.726645 0.631909
C38_5 C 0.3297(2) 0.55081(17) 0.3615(3)
C39_5 C 0.3438(2) 0.79537(16) 0.5204(5)
H23_5 H 0.335989 0.782247 0.459691
C40_5 C 0.32037(19) 0.83448(16) 0.5536(4)
H24_5 H 0.296864 0.848110 0.515472
C41_5 C 0.31857(17) 0.5658(2) 0.4520(4)
H25_5 H 0.297276 0.550997 0.493583
C42_5 C 0.34036(15) 0.60387(14) 0.4791(5)
H26_5 H 0.327385 0.617110 0.535683
In2_2 In 0.250000 0.45061(2) 0.250000
In3_2 In 0.750000 0.95061(2) 0.250000
In4_2 In 0.250000 0.95061(2) 0.750000
O11_3 O 0.69304(14) 0.39798(12) 0.7260(4)
O12_5 O 0.80696(14) 0.39798(12) 0.7740(4)
O13_5 O 0.81643(14) 0.49703(12) 0.7477(6)
O14_5 O 0.77287(12) 0.49530(11) 0.8653(3)
O15_3 O 0.71851(12) 0.41256(12) 0.8745(3)
O16_5 O 0.78149(12) 0.41256(12) 0.6255(3)
O11_4 O 0.30696(14) 0.39798(12) 0.2740(4)
O12_6 O 0.19304(14) 0.39798(12) 0.2260(4)
O13_6 O 0.18357(14) 0.49703(12) 0.2523(6)
O14_6 O 0.22713(12) 0.49530(11) 0.1347(3)
O15_4 O 0.28149(12) 0.41256(12) 0.1255(3)
O16_6 O 0.21851(12) 0.41256(12) 0.3745(3)
C2_6 C 0.6934(2) 0.01126(18) 0.1795(5)
C9_6 C 0.6108(2) 0.10667(17) 0.1512(4)
H3_6 H 0.586832 0.120014 0.188486
C10_6 C 0.63279(17) 0.06988(18) 0.1842(5)
H4_6 H 0.621419 0.056664 0.242320
C11_6 C 0.55144(15) 0.16581(13) 0.0263(4)
H5_6 H 0.535562 0.141864 0.055233
C14_6 C 0.59905(16) 0.16310(15) 0.0191(4)
C15_6 C 0.62528(16) 0.12495(16) 0.0572(5)
C17_6 C 0.6703(2) 0.05081(17) 0.1385(3)
H10_6 H 0.664011 0.282247 0.040309
C20_6 C 0.68143(17) 0.0658(2) 0.0480(4)
H12_6 H 0.702724 0.050997 0.006417
C21_6 C 0.65964(15) 0.10387(14) 0.0209(5)
O7_6 O 0.32893(14) 0.19829(11) 0.0092(3)
C22_6 C 0.37652(16) 0.19942(13) 0.0123(4)
C24_6 C 0.37705(19) 0.27809(16) 0.0784(5)
C25_6 C 0.33402(18) 0.35146(15) 0.1451(4)
C26_6 C 0.40098(15) 0.23733(12) 0.0404(4)
C27_6 C 0.3057(2) 0.3895(2) 0.1805(6)
C28_6 C 0.36949(17) 0.33386(16) 0.1985(4)
H14_6 H 0.379232 0.346803 0.258203
C29_6 C 0.45095(15) 0.23723(13) 0.0356(4)
H15_6 H 0.467937 0.262596 0.053588
C33_6 C 0.39093(19) 0.2964(2) 0.1628(5)
H19_6 H 0.415755 0.283632 0.198634
C34_6 C 0.47453(18) 0.19990(12) 0.0045(3)
C37_6 C 0.3014(2) 0.2014(2) 0.0932(6)
H20_6 H 0.304921 0.174747 0.132213
H21_6 H 0.268741 0.204921 0.074352
H22_6 H 0.311348 0.226645 0.131909
C39_6 C 0.3438(2) 0.29537(16) 0.0204(5)
C40_6 C 0.32037(19) 0.33448(16) 0.0536(4)
H24_6 H 0.296864 0.348110 0.015472
H26_6 H 0.327385 0.117110 0.035683
O2_6 O 0.67107(14) 0.19829(11) 0.9908(3)
C1_6 C 0.62348(16) 0.19942(13) 0.9877(4)
C3_6 C 0.62295(19) 0.27809(16) 0.9216(5)
C4_6 C 0.66598(18) 0.35146(15) 0.8549(4)
C5_6 C 0.59902(15) 0.23733(12) 0.9596(4)
C6_6 C 0.6943(2) 0.3895(2) 0.8195(6)
C7_6 C 0.63051(17) 0.33386(16) 0.8015(4)
H1_6 H 0.620768 0.346803 0.741797
C8_6 C 0.54905(15) 0.23723(13) 0.9644(4)
H2_6 H 0.532063 0.262596 0.946412
C12_6 C 0.60907(19) 0.2964(2) 0.8372(5)
H6_6 H 0.584245 0.283632 0.801366
C13_6 C 0.52547(18) 0.19990(12) 0.9955(3)
C16_6 C 0.6986(2) 0.2014(2) 0.9068(6)
H7_6 H 0.695079 0.174747 0.867787
H8_6 H 0.731259 0.204921 0.925648
H9_6 H 0.688652 0.226645 0.868091
C18_6 C 0.6562(2) 0.29537(16) 0.9796(5)
C19_6 C 0.67963(19) 0.33448(16) 0.9464(4)
H11_6 H 0.703136 0.348110 0.984528
H13_6 H 0.672615 0.117110 0.964317
C23_6 C 0.3066(2) 0.01126(18) 0.8205(5)
C30_6 C 0.3892(2) 0.10667(17) 0.8488(4)
H16_6 H 0.413168 0.120014 0.811514
C31_6 C 0.36721(17) 0.06988(18) 0.8158(5)
H17_6 H 0.378581 0.056664 0.757680
C32_6 C 0.44856(15) 0.16581(13) 0.9737(4)
H18_6 H 0.464438 0.141864 0.944767
C35_6 C 0.40095(16) 0.16310(15) 0.9809(4)
C36_6 C 0.37472(16) 0.12495(16) 0.9428(5)
C38_6 C 0.3297(2) 0.05081(17) 0.8615(3)
H23_6 H 0.335989 0.282247 0.959691
C41_6 C 0.31857(17) 0.0658(2) 0.9520(4)
H25_6 H 0.297276 0.050997 0.993583
C42_6 C 0.34036(15) 0.10387(14) 0.9791(5)
O3_4 O 0.68357(14) 0.99703(12) 0.2523(6)
O4_4 O 0.72713(12) 0.99530(11) 0.1347(3)
O12_7 O 0.80696(14) 0.89798(12) 0.2740(4)
O13_7 O 0.81643(14) 0.99703(12) 0.2477(6)
O14_7 O 0.77287(12) 0.99530(11) 0.3653(3)
O16_7 O 0.78149(12) 0.91256(12) 0.1255(3)
O8_4 O 0.31643(14) 0.99703(12) 0.7477(6)
O9_4 O 0.27287(12) 0.99530(11) 0.8653(3)
O12_8 O 0.19304(14) 0.89798(12) 0.7260(4)
O13_8 O 0.18357(14) 0.99703(12) 0.7523(6)
O14_8 O 0.22713(12) 0.99530(11) 0.6347(3)
O16_8 O 0.21851(12) 0.91256(12) 0.8745(3)
C2_7 C 0.1934(2) 0.51126(18) 0.1795(5)
C9_7 C 0.1108(2) 0.60667(17) 0.1512(4)
H3_7 H 0.086832 0.620014 0.188486
C10_7 C 0.13279(17) 0.56988(18) 0.1842(5)
H4_7 H 0.121419 0.556664 0.242320
C11_7 C 0.05144(15) 0.66581(13) 0.0263(4)
H5_7 H 0.035562 0.641864 0.055233
C14_7 C 0.09905(16) 0.66310(15) 0.0191(4)
C15_7 C 0.12528(16) 0.62495(16) 0.0572(5)
C17_7 C 0.1703(2) 0.55081(17) 0.1385(3)
H10_7 H 0.164011 0.782247 0.040309
C20_7 C 0.18143(17) 0.5658(2) 0.0480(4)
H12_7 H 0.202724 0.550997 0.006417
C21_7 C 0.15964(15) 0.60387(14) 0.0209(5)
O2_7 O 0.17107(14) 0.69829(11) 0.9908(3)
C1_7 C 0.12348(16) 0.69942(13) 0.9877(4)
C3_7 C 0.12295(19) 0.77809(16) 0.9216(5)
C4_7 C 0.16598(18) 0.85146(15) 0.8549(4)
C5_7 C 0.09902(15) 0.73733(12) 0.9596(4)
C6_7 C 0.1943(2) 0.8895(2) 0.8195(6)
C7_7 C 0.13051(17) 0.83386(16) 0.8015(4)
H1_7 H 0.120768 0.846803 0.741797
C8_7 C 0.04905(15) 0.73723(13) 0.9644(4)
H2_7 H 0.032063 0.762596 0.946412
C12_7 C 0.10907(19) 0.7964(2) 0.8372(5)
H6_7 H 0.084245 0.783632 0.801366
C13_7 C 0.02547(18) 0.69990(12) 0.9955(3)
C16_7 C 0.1986(2) 0.7014(2) 0.9068(6)
H7_7 H 0.195079 0.674747 0.867787
H8_7 H 0.231259 0.704921 0.925648
H9_7 H 0.188652 0.726645 0.868091
C18_7 C 0.1562(2) 0.79537(16) 0.9796(5)
C19_7 C 0.17963(19) 0.83448(16) 0.9464(4)
H11_7 H 0.203136 0.848110 0.984528
H13_7 H 0.172615 0.617110 0.964317
O7_7 O 0.82893(14) 0.69829(11) 0.0092(3)
C22_7 C 0.87652(16) 0.69942(13) 0.0123(4)
C24_7 C 0.87705(19) 0.77809(16) 0.0784(5)
C25_7 C 0.83402(18) 0.85146(15) 0.1451(4)
C26_7 C 0.90098(15) 0.73733(12) 0.0404(4)
C27_7 C 0.8057(2) 0.8895(2) 0.1805(6)
C28_7 C 0.86949(17) 0.83386(16) 0.1985(4)
H14_7 H 0.879232 0.846803 0.258203
C29_7 C 0.95095(15) 0.73723(13) 0.0356(4)
H15_7 H 0.967937 0.762596 0.053588
C33_7 C 0.89093(19) 0.7964(2) 0.1628(5)
H19_7 H 0.915755 0.783632 0.198634
C34_7 C 0.97453(18) 0.69990(12) 0.0045(3)
C37_7 C 0.8014(2) 0.7014(2) 0.0932(6)
H20_7 H 0.804921 0.674747 0.132213
H21_7 H 0.768741 0.704921 0.074352
H22_7 H 0.811348 0.726645 0.131909
C39_7 C 0.8438(2) 0.79537(16) 0.0204(5)
C40_7 C 0.82037(19) 0.83448(16) 0.0536(4)
H24_7 H 0.796864 0.848110 0.015472
H26_7 H 0.827385 0.617110 0.035683
C23_7 C 0.8066(2) 0.51126(18) 0.8205(5)
C30_7 C 0.8892(2) 0.60667(17) 0.8488(4)
H16_7 H 0.913168 0.620014 0.811514
C31_7 C 0.86721(17) 0.56988(18) 0.8158(5)
H17_7 H 0.878581 0.556664 0.757680
C32_7 C 0.94856(15) 0.66581(13) 0.9737(4)
H18_7 H 0.964438 0.641864 0.944767
C35_7 C 0.90095(16) 0.66310(15) 0.9809(4)
C36_7 C 0.87472(16) 0.62495(16) 0.9428(5)
C38_7 C 0.8297(2) 0.55081(17) 0.8615(3)
H23_7 H 0.835989 0.782247 0.959691
C41_7 C 0.81857(17) 0.5658(2) 0.9520(4)
H25_7 H 0.797276 0.550997 0.993583
C42_7 C 0.84036(15) 0.60387(14) 0.9791(5)
O2_8 O 0.17107(14) 0.19829(11) 0.4908(3)
C1_8 C 0.12348(16) 0.19942(13) 0.4877(4)
C2_8 C 0.1934(2) 0.01126(18) 0.6795(5)
C3_8 C 0.12295(19) 0.27809(16) 0.4216(5)
C4_8 C 0.16598(18) 0.35146(15) 0.3549(4)
C5_8 C 0.09902(15) 0.23733(12) 0.4596(4)
C6_8 C 0.1943(2) 0.3895(2) 0.3195(6)
C7_8 C 0.13051(17) 0.33386(16) 0.3015(4)
H1_8 H 0.120768 0.346803 0.241797
C8_8 C 0.04905(15) 0.23723(13) 0.4644(4)
H2_8 H 0.032063 0.262596 0.446412
C9_8 C 0.1108(2) 0.10667(17) 0.6512(4)
H3_8 H 0.086832 0.120014 0.688486
C10_8 C 0.13279(17) 0.06988(18) 0.6842(5)
H4_8 H 0.121419 0.056664 0.742320
C11_8 C 0.05144(15) 0.16581(13) 0.5263(4)
H5_8 H 0.035562 0.141864 0.555233
C12_8 C 0.10907(19) 0.2964(2) 0.3372(5)
H6_8 H 0.084245 0.283632 0.301366
C13_8 C 0.02547(18) 0.19990(12) 0.4955(3)
C14_8 C 0.09905(16) 0.16310(15) 0.5191(4)
C15_8 C 0.12528(16) 0.12495(16) 0.5572(5)
C16_8 C 0.1986(2) 0.2014(2) 0.4068(6)
H7_8 H 0.195079 0.174747 0.367787
H8_8 H 0.231259 0.204921 0.425648
H9_8 H 0.188652 0.226645 0.368091
C17_8 C 0.1703(2) 0.05081(17) 0.6385(3)
C18_8 C 0.1562(2) 0.29537(16) 0.4796(5)
H10_8 H 0.164011 0.282247 0.540309
C19_8 C 0.17963(19) 0.33448(16) 0.4464(4)
H11_8 H 0.203136 0.348110 0.484528
C20_8 C 0.18143(17) 0.0658(2) 0.5480(4)
H12_8 H 0.202724 0.050997 0.506417
C21_8 C 0.15964(15) 0.10387(14) 0.5209(5)
H13_8 H 0.172615 0.117110 0.464317
O7_8 O 0.82893(14) 0.19829(11) 0.5092(3)
C22_8 C 0.87652(16) 0.19942(13) 0.5123(4)
C23_8 C 0.8066(2) 0.01126(18) 0.3205(5)
C24_8 C 0.87705(19) 0.27809(16) 0.5784(5)
C25_8 C 0.83402(18) 0.35146(15) 0.6451(4)
C26_8 C 0.90098(15) 0.23733(12) 0.5404(4)
C27_8 C 0.8057(2) 0.3895(2) 0.6805(6)
C28_8 C 0.86949(17) 0.33386(16) 0.6985(4)
H14_8 H 0.879232 0.346803 0.758203
C29_8 C 0.95095(15) 0.23723(13) 0.5356(4)
H15_8 H 0.967937 0.262596 0.553588
C30_8 C 0.8892(2) 0.10667(17) 0.3488(4)
H16_8 H 0.913168 0.120014 0.311514
C31_8 C 0.86721(17) 0.06988(18) 0.3158(5)
H17_8 H 0.878581 0.056664 0.257680
C32_8 C 0.94856(15) 0.16581(13) 0.4737(4)
H18_8 H 0.964438 0.141864 0.444767
C33_8 C 0.89093(19) 0.2964(2) 0.6628(5)
H19_8 H 0.915755 0.283632 0.698634
C34_8 C 0.97453(18) 0.19990(12) 0.5045(3)
C35_8 C 0.90095(16) 0.16310(15) 0.4809(4)
C36_8 C 0.87472(16) 0.12495(16) 0.4428(5)
C37_8 C 0.8014(2) 0.2014(2) 0.5932(6)
H20_8 H 0.804921 0.174747 0.632213
H21_8 H 0.768741 0.204921 0.574352
H22_8 H 0.811348 0.226645 0.631909
C38_8 C 0.8297(2) 0.05081(17) 0.3615(3)
C39_8 C 0.8438(2) 0.29537(16) 0.5204(5)
H23_8 H 0.835989 0.282247 0.459691
C40_8 C 0.82037(19) 0.33448(16) 0.5536(4)
H24_8 H 0.796864 0.348110 0.515472
C41_8 C 0.81857(17) 0.0658(2) 0.4520(4)
H25_8 H 0.797276 0.050997 0.493583
C42_8 C 0.84036(15) 0.10387(14) 0.4791(5)
H26_8 H 0.827385 0.117110 0.535683
loop_
_geom_bond_atom_site_label_1
_geom_bond_atom_site_label_2
_geom_bond_site_symmetry_1
_geom_bond_site_symmetry_2
In1 O3 1_555 1_555
O1 C6 1_555 1_555
O2 C1 1_555 1_555
O3 C2 1_555 1_555
O4 In1 1_555 1_555
O5 C6 1_555 1_555
C1 C5 1_555 1_555
C2 O4 1_555 1_555
C3 C5 1_555 1_555
C4 C6 1_555 1_555
C5 C8 1_555 1_555
C7 C4 1_555 1_555
H1 C7 1_555 1_555
C8 H2 1_555 1_555
C9 H3 1_555 1_555
C10 C9 1_555 1_555
H4 C10 1_555 1_555
C11 H5 1_555 1_555
C12 C3 1_555 1_555
H6 C12 1_555 1_555
C13 C8 1_555 1_555
C14 C1 1_555 1_555
C15 C9 1_555 1_555
C16 O2 1_555 1_555
H7 C16 1_555 1_555
H8 C16 1_555 1_555
H9 C16 1_555 1_555
C17 C2 1_555 1_555
C18 C3 1_555 1_555
H10 C18 1_555 1_555
C19 C4 1_555 1_555
H11 C19 1_555 1_555
C20 C17 1_555 1_555
H12 C20 1_555 1_555
C21 C15 1_555 1_555
H13 C21 1_555 1_555
O6 C27 1_555 1_555
O7 C22 1_555 1_555
O8 C23 1_555 1_555
O9 C23 1_555 1_555
O10 C27 1_555 1_555
C22 C26 1_555 1_555
C23 C38 1_555 1_555
C24 C26 1_555 1_555
C25 C27 1_555 1_555
C26 C29 1_555 1_555
C28 C25 1_555 1_555
H14 C28 1_555 1_555
C29 H15 1_555 1_555
C30 H16 1_555 1_555
C31 C30 1_555 1_555
H17 C31 1_555 1_555
C32 H18 1_555 1_555
C33 C24 1_555 1_555
H19 C33 1_555 1_555
C34 C13 1_555 1_555
C35 C22 1_555 1_555
C36 C30 1_555 1_555
C37 O7 1_555 1_555
H20 C37 1_555 1_555
H21 C37 1_555 1_555
H22 C37 1_555 1_555
C38 C31 1_555 1_555
C39 C24 1_555 1_555
H23 C39 1_555 1_555
C40 C25 1_555 1_555
H24 C40 1_555 1_555
C41 C38 1_555 1_555
H25 C41 1_555 1_555
C42 C36 1_555 1_555
H26 C42 1_555 1_555
In2 O8 1_555 1_555
In3 O1 1_555 1_555
In4 O6 1_555 1_555
O11 In1 1_555 1_555
O12 In1 1_555 1_555
O13 In1 1_555 1_555
O14 In1 1_555 1_555
O15 In1 1_555 1_555
O16 In1 1_555 1_555
O5 In3 1_555 1_555
C7 C12 1_555 1_555
C10 C17 1_555 1_555
C11 C13 1_555 1_555
C11 C14 1_555 1_555
C14 C15 1_555 1_555
C18 C19 1_555 1_555
C20 C21 1_555 1_555
O9 In2 1_555 1_555
O10 In4 1_555 1_555
C28 C33 1_555 1_555
C29 C34 1_555 1_555
C32 C34 1_555 1_555
C32 C35 1_555 1_555
C35 C36 1_555 1_555
C39 C40 1_555 1_555
C41 C42 1_555 1_555
O11_2 In2 1_555 1_555
O12_2 In2 1_555 1_555
O13_2 In2 1_555 1_555
O14_2 In2 1_555 1_555
O15_2 In2 1_555 1_555
O16_2 In2 1_555 1_555
In3 O3_2 1_555 1_555
O4_2 In3 1_555 1_555
O12_3 In3 1_555 1_555
O13_3 In3 1_555 1_555
O14_3 In3 1_555 1_555
O16_3 In3 1_555 1_555
In4 O8_2 1_555 1_555
O9_2 In4 1_555 1_555
C9_2 H3_2 1_555 1_555
C10_2 C9_2 1_555 1_555
H4_2 C10_2 1_555 1_555
C11_2 H5_2 1_555 1_555
C15_2 C9_2 1_555 1_555
C17_2 C2_2 1_555 1_555
C20_2 C17_2 1_555 1_555
H12_2 C20_2 1_555 1_555
C21_2 C15_2 1_555 1_555
O11_2 C27_2 1_555 1_555
O7_2 C22_2 1_555 1_555
O15_2 C27_2 1_555 1_555
C22_2 C26_2 1_555 1_555
C24_2 C26_2 1_555 1_555
C25_2 C27_2 1_555 1_555
C26_2 C29_2 1_555 1_555
C28_2 C25_2 1_555 1_555
H14_2 C28_2 1_555 1_555
C29_2 H15_2 1_555 1_555
C33_2 C24_2 1_555 1_555
H19_2 C33_2 1_555 1_555
C37_2 O7_2 1_555 1_555
H20_2 C37_2 1_555 1_555
H21_2 C37_2 1_555 1_555
H22_2 C37_2 1_555 1_555
C39_2 C24_2 1_555 1_555
C40_2 C25_2 1_555 1_555
H24_2 C40_2 1_555 1_555
C10_2 C17_2 1_555 1_555
C11_2 C14_2 1_555 1_555
C14_2 C15_2 1_555 1_555
C20_2 C21_2 1_555 1_555
C28_2 C33_2 1_555 1_555
C29_2 C34_2 1_555 1_555
C39_2 C40_2 1_555 1_555
O11 C6_2 1_555 1_555
O2_2 C1_2 1_555 1_555
O15 C6_2 1_555 1_555
C1_2 C5_2 1_555 1_555
C3_2 C5_2 1_555 1_555
C4_2 C6_2 1_555 1_555
C5_2 C8_2 1_555 1_555
C7_2 C4_2 1_555 1_555
H1_2 C7_2 1_555 1_555
C8_2 H2_2 1_555 1_555
C12_2 C3_2 1_555 1_555
H6_2 C12_2 1_555 1_555
C13_2 C8_2 1_555 1_555
C16_2 O2_2 1_555 1_555
H7_2 C16_2 1_555 1_555
H8_2 C16_2 1_555 1_555
H9_2 C16_2 1_555 1_555
C18_2 C3_2 1_555 1_555
C19_2 C4_2 1_555 1_555
H11_2 C19_2 1_555 1_555
C23_2 C38_2 1_555 1_555
C30_2 H16_2 1_555 1_555
C31_2 C30_2 1_555 1_555
H17_2 C31_2 1_555 1_555
C32_2 H18_2 1_555 1_555
C36_2 C30_2 1_555 1_555
C38_2 C31_2 1_555 1_555
C41_2 C38_2 1_555 1_555
H25_2 C41_2 1_555 1_555
C42_2 C36_2 1_555 1_555
C7_2 C12_2 1_555 1_555
C18_2 C19_2 1_555 1_555
C32_2 C35_2 1_555 1_555
C35_2 C36_2 1_555 1_555
C41_2 C42_2 1_555 1_555
O12_4 In4 1_555 1_555
O13_4 In4 1_555 1_555
O14_4 In4 1_555 1_555
O16_4 In4 1_555 1_555
O12_3 C27_3 1_555 1_555
O7_3 C22_3 1_555 1_555
O16_3 C27_3 1_555 1_555
C22_3 C26_3 1_555 1_555
C24_3 C26_3 1_555 1_555
C25_3 C27_3 1_555 1_555
C26_3 C29_3 1_555 1_555
C28_3 C25_3 1_555 1_555
H14_3 C28_3 1_555 1_555
C29_3 H15_3 1_555 1_555
C33_3 C24_3 1_555 1_555
H19_3 C33_3 1_555 1_555
C37_3 O7_3 1_555 1_555
H20_3 C37_3 1_555 1_555
H21_3 C37_3 1_555 1_555
H22_3 C37_3 1_555 1_555
C39_3 C24_3 1_555 1_555
C40_3 C25_3 1_555 1_555
H24_3 C40_3 1_555 1_555
C28_3 C33_3 1_555 1_555
C29_3 C34_3 1_555 1_555
C39_3 C40_3 1_555 1_555
O13 C23_3 1_555 1_555
O14 C23_3 1_555 1_555
C23_3 C38_3 1_555 1_555
C30_3 H16_3 1_555 1_555
C31_3 C30_3 1_555 1_555
H17_3 C31_3 1_555 1_555
C32_3 H18_3 1_555 1_555
C36_3 C30_3 1_555 1_555
C38_3 C31_3 1_555 1_555
C41_3 C38_3 1_555 1_555
H25_3 C41_3 1_555 1_555
C42_3 C36_3 1_555 1_555
C32_3 C35_3 1_555 1_555
C35_3 C36_3 1_555 1_555
C41_3 C42_3 1_555 1_555
O13_2 C2_3 1_555 1_555
C2_3 O14_2 1_555 1_555
C9_3 H3_3 1_555 1_555
C10_3 C9_3 1_555 1_555
H4_3 C10_3 1_555 1_555
C11_3 H5_3 1_555 1_555
C15_3 C9_3 1_555 1_555
C17_3 C2_3 1_555 1_555
C20_3 C17_3 1_555 1_555
H12_3 C20_3 1_555 1_555
C21_3 C15_3 1_555 1_555
C10_3 C17_3 1_555 1_555
C11_3 C14_3 1_555 1_555
C14_3 C15_3 1_555 1_555
C20_3 C21_3 1_555 1_555
O12_4 C6_3 1_555 1_555
O2_3 C1_3 1_555 1_555
O16_4 C6_3 1_555 1_555
C1_3 C5_3 1_555 1_555
C3_3 C5_3 1_555 1_555
C4_3 C6_3 1_555 1_555
C5_3 C8_3 1_555 1_555
C7_3 C4_3 1_555 1_555
H1_3 C7_3 1_555 1_555
C8_3 H2_3 1_555 1_555
C12_3 C3_3 1_555 1_555
H6_3 C12_3 1_555 1_555
C13_3 C8_3 1_555 1_555
C16_3 O2_3 1_555 1_555
H7_3 C16_3 1_555 1_555
H8_3 C16_3 1_555 1_555
H9_3 C16_3 1_555 1_555
C18_3 C3_3 1_555 1_555
C19_3 C4_3 1_555 1_555
H11_3 C19_3 1_555 1_555
C7_3 C12_3 1_555 1_555
C18_3 C19_3 1_555 1_555
O12 C27_4 1_555 1_555
O7_4 C22_4 1_555 1_555
O16 C27_4 1_555 1_555
C22_4 C26_4 1_555 1_555
C23_4 C38_4 1_555 1_555
C24_4 C26_4 1_555 1_555
C25_4 C27_4 1_555 1_555
C26_4 C29_4 1_555 1_555
C28_4 C25_4 1_555 1_555
H14_4 C28_4 1_555 1_555
C29_4 H15_4 1_555 1_555
C30_4 H16_4 1_555 1_555
C31_4 C30_4 1_555 1_555
H17_4 C31_4 1_555 1_555
C32_4 H18_4 1_555 1_555
C33_4 C24_4 1_555 1_555
H19_4 C33_4 1_555 1_555
C35_4 C22_4 1_555 1_555
C36_4 C30_4 1_555 1_555
C37_4 O7_4 1_555 1_555
H20_4 C37_4 1_555 1_555
H21_4 C37_4 1_555 1_555
H22_4 C37_4 1_555 1_555
C38_4 C31_4 1_555 1_555
C39_4 C24_4 1_555 1_555
H23_4 C39_4 1_555 1_555
C40_4 C25_4 1_555 1_555
H24_4 C40_4 1_555 1_555
C41_4 C38_4 1_555 1_555
H25_4 C41_4 1_555 1_555
C42_4 C36_4 1_555 1_555
H26_4 C42_4 1_555 1_555
C28_4 C33_4 1_555 1_555
C29_4 C34_4 1_555 1_555
C32_4 C34_4 1_555 1_555
C32_4 C35_4 1_555 1_555
C35_4 C36_4 1_555 1_555
C39_4 C40_4 1_555 1_555
C41_4 C42_4 1_555 1_555
O12_2 C6_4 1_555 1_555
O2_4 C1_4 1_555 1_555
O16_2 C6_4 1_555 1_555
C1_4 C5_4 1_555 1_555
C3_4 C5_4 1_555 1_555
C4_4 C6_4 1_555 1_555
C5_4 C8_4 1_555 1_555
C7_4 C4_4 1_555 1_555
H1_4 C7_4 1_555 1_555
C8_4 H2_4 1_555 1_555
C9_4 H3_4 1_555 1_555
C10_4 C9_4 1_555 1_555
H4_4 C10_4 1_555 1_555
C11_4 H5_4 1_555 1_555
C12_4 C3_4 1_555 1_555
H6_4 C12_4 1_555 1_555
C13_4 C8_4 1_555 1_555
C14_4 C1_4 1_555 1_555
C15_4 C9_4 1_555 1_555
C16_4 O2_4 1_555 1_555
H7_4 C16_4 1_555 1_555
H8_4 C16_4 1_555 1_555
H9_4 C16_4 1_555 1_555
C17_4 C2_4 1_555 1_555
C18_4 C3_4 1_555 1_555
H10_4 C18_4 1_555 1_555
C19_4 C4_4 1_555 1_555
H11_4 C19_4 1_555 1_555
C20_4 C17_4 1_555 1_555
H12_4 C20_4 1_555 1_555
C21_4 C15_4 1_555 1_555
H13_4 C21_4 1_555 1_555
C7_4 C12_4 1_555 1_555
C10_4 C17_4 1_555 1_555
C11_4 C13_4 1_555 1_555
C11_4 C14_4 1_555 1_555
C14_4 C15_4 1_555 1_555
C18_4 C19_4 1_555 1_555
C20_4 C21_4 1_555 1_555
In1_2 O3_3 1_555 1_555
O1_2 C6_5 1_555 1_555
O2_5 C1_5 1_555 1_555
O3_3 C2_5 1_555 1_555
O4_3 In1_2 1_555 1_555
O5_2 C6_5 1_555 1_555
C1_5 C5_5 1_555 1_555
C2_5 O4_3 1_555 1_555
C3_5 C5_5 1_555 1_555
C4_5 C6_5 1_555 1_555
C5_5 C8_5 1_555 1_555
C7_5 C4_5 1_555 1_555
H1_5 C7_5 1_555 1_555
C8_5 H2_5 1_555 1_555
C9_5 H3_5 1_555 1_555
C10_5 C9_5 1_555 1_555
H4_5 C10_5 1_555 1_555
C11_5 H5_5 1_555 1_555
C12_5 C3_5 1_555 1_555
H6_5 C12_5 1_555 1_555
C13_5 C8_5 1_555 1_555
C14_5 C1_5 1_555 1_555
C15_5 C9_5 1_555 1_555
C16_5 O2_5 1_555 1_555
H7_5 C16_5 1_555 1_555
H8_5 C16_5 1_555 1_555
H9_5 C16_5 1_555 1_555
C17_5 C2_5 1_555 1_555
C18_5 C3_5 1_555 1_555
H10_5 C18_5 1_555 1_555
C19_5 C4_5 1_555 1_555
H11_5 C19_5 1_555 1_555
C20_5 C17_5 1_555 1_555
H12_5 C20_5 1_555 1_555
C21_5 C15_5 1_555 1_555
H13_5 C21_5 1_555 1_555
O6_2 C27_5 1_555 1_555
O7_5 C22_5 1_555 1_555
O8_3 C23_5 1_555 1_555
O9_3 C23_5 1_555 1_555
O10_2 C27_5 1_555 1_555
C22_5 C26_5 1_555 1_555
C23_5 C38_5 1_555 1_555
C24_5 C26_5 1_555 1_555
C25_5 C27_5 1_555 1_555
C26_5 C29_5 1_555 1_555
C28_5 C25_5 1_555 1_555
H14_5 C28_5 1_555 1_555
C29_5 H15_5 1_555 1_555
C30_5 H16_5 1_555 1_555
C31_5 C30_5 1_555 1_555
H17_5 C31_5 1_555 1_555
C32_5 H18_5 1_555 1_555
C33_5 C24_5 1_555 1_555
H19_5 C33_5 1_555 1_555
C34_5 C13_5 1_555 1_555
C35_5 C22_5 1_555 1_555
C36_5 C30_5 1_555 1_555
C37_5 O7_5 1_555 1_555
H20_5 C37_5 1_555 1_555
H21_5 C37_5 1_555 1_555
H22_5 C37_5 1_555 1_555
C38_5 C31_5 1_555 1_555
C39_5 C24_5 1_555 1_555
H23_5 C39_5 1_555 1_555
C40_5 C25_5 1_555 1_555
H24_5 C40_5 1_555 1_555
C41_5 C38_5 1_555 1_555
H25_5 C41_5 1_555 1_555
C42_5 C36_5 1_555 1_555
H26_5 C42_5 1_555 1_555
In2_2 O8_3 1_555 1_555
In3_2 O1_2 1_555 1_555
In4_2 O6_2 1_555 1_555
O11_3 In1_2 1_555 1_555
O12_5 In1_2 1_555 1_555
O13_5 In1_2 1_555 1_555
O14_5 In1_2 1_555 1_555
O15_3 In1_2 1_555 1_555
O16_5 In1_2 1_555 1_555
O5_2 In3_2 1_555 1_555
C7_5 C12_5 1_555 1_555
C10_5 C17_5 1_555 1_555
C11_5 C13_5 1_555 1_555
C11_5 C14_5 1_555 1_555
C14_5 C15_5 1_555 1_555
C18_5 C19_5 1_555 1_555
C20_5 C21_5 1_555 1_555
O9_3 In2_2 1_555 1_555
O10_2 In4_2 1_555 1_555
C28_5 C33_5 1_555 1_555
C29_5 C34_5 1_555 1_555
C32_5 C34_5 1_555 1_555
C32_5 C35_5 1_555 1_555
C35_5 C36_5 1_555 1_555
C39_5 C40_5 1_555 1_555
C41_5 C42_5 1_555 1_555
O11_4 In2_2 1_555 1_555
O12_6 In2_2 1_555 1_555
O13_6 In2_2 1_555 1_555
O14_6 In2_2 1_555 1_555
O15_4 In2_2 1_555 1_555
O16_6 In2_2 1_555 1_555
C9_6 H3_6 1_555 1_555
C10_6 C9_6 1_555 1_555
H4_6 C10_6 1_555 1_555
C11_6 H5_6 1_555 1_555
C15_6 C9_6 1_555 1_555
C17_6 C2_6 1_555 1_555
C20_6 C17_6 1_555 1_555
H12_6 C20_6 1_555 1_555
C21_6 C15_6 1_555 1_555
O11_4 C27_6 1_555 1_555
O7_6 C22_6 1_555 1_555
O15_4 C27_6 1_555 1_555
C22_6 C26_6 1_555 1_555
C24_6 C26_6 1_555 1_555
C25_6 C27_6 1_555 1_555
C26_6 C29_6 1_555 1_555
C28_6 C25_6 1_555 1_555
H14_6 C28_6 1_555 1_555
C29_6 H15_6 1_555 1_555
C33_6 C24_6 1_555 1_555
H19_6 C33_6 1_555 1_555
C37_6 O7_6 1_555 1_555
H20_6 C37_6 1_555 1_555
H21_6 C37_6 1_555 1_555
H22_6 C37_6 1_555 1_555
C39_6 C24_6 1_555 1_555
C40_6 C25_6 1_555 1_555
H24_6 C40_6 1_555 1_555
C10_6 C17_6 1_555 1_555
C11_6 C14_6 1_555 1_555
C14_6 C15_6 1_555 1_555
C20_6 C21_6 1_555 1_555
C28_6 C33_6 1_555 1_555
C29_6 C34_6 1_555 1_555
C39_6 C40_6 1_555 1_555
O11_3 C6_6 1_555 1_555
O2_6 C1_6 1_555 1_555
O15_3 C6_6 1_555 1_555
C1_6 C5_6 1_555 1_555
C3_6 C5_6 1_555 1_555
C4_6 C6_6 1_555 1_555
C5_6 C8_6 1_555 1_555
C7_6 C4_6 1_555 1_555
H1_6 C7_6 1_555 1_555
C8_6 H2_6 1_555 1_555
C12_6 C3_6 1_555 1_555
H6_6 C12_6 1_555 1_555
C13_6 C8_6 1_555 1_555
C16_6 O2_6 1_555 1_555
H7_6 C16_6 1_555 1_555
H8_6 C16_6 1_555 1_555
H9_6 C16_6 1_555 1_555
C18_6 C3_6 1_555 1_555
C19_6 C4_6 1_555 1_555
H11_6 C19_6 1_555 1_555
C23_6 C38_6 1_555 1_555
C30_6 H16_6 1_555 1_555
C31_6 C30_6 1_555 1_555
H17_6 C31_6 1_555 1_555
C32_6 H18_6 1_555 1_555
C36_6 C30_6 1_555 1_555
C38_6 C31_6 1_555 1_555
C41_6 C38_6 1_555 1_555
H25_6 C41_6 1_555 1_555
C42_6 C36_6 1_555 1_555
C7_6 C12_6 1_555 1_555
C18_6 C19_6 1_555 1_555
C32_6 C35_6 1_555 1_555
C35_6 C36_6 1_555 1_555
C41_6 C42_6 1_555 1_555
In3_2 O3_4 1_555 1_555
O4_4 In3_2 1_555 1_555
O12_7 In3_2 1_555 1_555
O13_7 In3_2 1_555 1_555
O14_7 In3_2 1_555 1_555
O16_7 In3_2 1_555 1_555
In4_2 O8_4 1_555 1_555
O9_4 In4_2 1_555 1_555
O12_8 In4_2 1_555 1_555
O13_8 In4_2 1_555 1_555
O14_8 In4_2 1_555 1_555
O16_8 In4_2 1_555 1_555
O13_6 C2_7 1_555 1_555
C2_7 O14_6 1_555 1_555
C9_7 H3_7 1_555 1_555
C10_7 C9_7 1_555 1_555
H4_7 C10_7 1_555 1_555
C11_7 H5_7 1_555 1_555
C15_7 C9_7 1_555 1_555
C17_7 C2_7 1_555 1_555
C20_7 C17_7 1_555 1_555
H12_7 C20_7 1_555 1_555
C21_7 C15_7 1_555 1_555
C10_7 C17_7 1_555 1_555
C11_7 C14_7 1_555 1_555
C14_7 C15_7 1_555 1_555
C20_7 C21_7 1_555 1_555
O12_8 C6_7 1_555 1_555
O2_7 C1_7 1_555 1_555
O16_8 C6_7 1_555 1_555
C1_7 C5_7 1_555 1_555
C3_7 C5_7 1_555 1_555
C4_7 C6_7 1_555 1_555
C5_7 C8_7 1_555 1_555
C7_7 C4_7 1_555 1_555
H1_7 C7_7 1_555 1_555
C8_7 H2_7 1_555 1_555
C12_7 C3_7 1_555 1_555
H6_7 C12_7 1_555 1_555
C13_7 C8_7 1_555 1_555
C16_7 O2_7 1_555 1_555
H7_7 C16_7 1_555 1_555
H8_7 C16_7 1_555 1_555
H9_7 C16_7 1_555 1_555
C18_7 C3_7 1_555 1_555
C19_7 C4_7 1_555 1_555
H11_7 C19_7 1_555 1_555
C7_7 C12_7 1_555 1_555
C18_7 C19_7 1_555 1_555
O12_7 C27_7 1_555 1_555
O7_7 C22_7 1_555 1_555
O16_7 C27_7 1_555 1_555
C22_7 C26_7 1_555 1_555
C24_7 C26_7 1_555 1_555
C25_7 C27_7 1_555 1_555
C26_7 C29_7 1_555 1_555
C28_7 C25_7 1_555 1_555
H14_7 C28_7 1_555 1_555
C29_7 H15_7 1_555 1_555
C33_7 C24_7 1_555 1_555
H19_7 C33_7 1_555 1_555
C37_7 O7_7 1_555 1_555
H20_7 C37_7 1_555 1_555
H21_7 C37_7 1_555 1_555
H22_7 C37_7 1_555 1_555
C39_7 C24_7 1_555 1_555
C40_7 C25_7 1_555 1_555
H24_7 C40_7 1_555 1_555
C28_7 C33_7 1_555 1_555
C29_7 C34_7 1_555 1_555
C39_7 C40_7 1_555 1_555
O13_5 C23_7 1_555 1_555
O14_5 C23_7 1_555 1_555
C23_7 C38_7 1_555 1_555
C30_7 H16_7 1_555 1_555
C31_7 C30_7 1_555 1_555
H17_7 C31_7 1_555 1_555
C32_7 H18_7 1_555 1_555
C36_7 C30_7 1_555 1_555
C38_7 C31_7 1_555 1_555
C41_7 C38_7 1_555 1_555
H25_7 C41_7 1_555 1_555
C42_7 C36_7 1_555 1_555
C32_7 C35_7 1_555 1_555
C35_7 C36_7 1_555 1_555
C41_7 C42_7 1_555 1_555
O12_6 C6_8 1_555 1_555
O2_8 C1_8 1_555 1_555
O16_6 C6_8 1_555 1_555
C1_8 C5_8 1_555 1_555
C3_8 C5_8 1_555 1_555
C4_8 C6_8 1_555 1_555
C5_8 C8_8 1_555 1_555
C7_8 C4_8 1_555 1_555
H1_8 C7_8 1_555 1_555
C8_8 H2_8 1_555 1_555
C9_8 H3_8 1_555 1_555
C10_8 C9_8 1_555 1_555
H4_8 C10_8 1_555 1_555
C11_8 H5_8 1_555 1_555
C12_8 C3_8 1_555 1_555
H6_8 C12_8 1_555 1_555
C13_8 C8_8 1_555 1_555
C14_8 C1_8 1_555 1_555
C15_8 C9_8 1_555 1_555
C16_8 O2_8 1_555 1_555
H7_8 C16_8 1_555 1_555
H8_8 C16_8 1_555 1_555
H9_8 C16_8 1_555 1_555
C17_8 C2_8 1_555 1_555
C18_8 C3_8 1_555 1_555
H10_8 C18_8 1_555 1_555
C19_8 C4_8 1_555 1_555
H11_8 C19_8 1_555 1_555
C20_8 C17_8 1_555 1_555
H12_8 C20_8 1_555 1_555
C21_8 C15_8 1_555 1_555
H13_8 C21_8 1_555 1_555
C7_8 C12_8 1_555 1_555
C10_8 C17_8 1_555 1_555
C11_8 C13_8 1_555 1_555
C11_8 C14_8 1_555 1_555
C14_8 C15_8 1_555 1_555
C18_8 C19_8 1_555 1_555
C20_8 C21_8 1_555 1_555
O12_5 C27_8 1_555 1_555
O7_8 C22_8 1_555 1_555
O16_5 C27_8 1_555 1_555
C22_8 C26_8 1_555 1_555
C23_8 C38_8 1_555 1_555
C24_8 C26_8 1_555 1_555
C25_8 C27_8 1_555 1_555
C26_8 C29_8 1_555 1_555
C28_8 C25_8 1_555 1_555
H14_8 C28_8 1_555 1_555
C29_8 H15_8 1_555 1_555
C30_8 H16_8 1_555 1_555
C31_8 C30_8 1_555 1_555
H17_8 C31_8 1_555 1_555
C32_8 H18_8 1_555 1_555
C33_8 C24_8 1_555 1_555
H19_8 C33_8 1_555 1_555
C35_8 C22_8 1_555 1_555
C36_8 C30_8 1_555 1_555
C37_8 O7_8 1_555 1_555
H20_8 C37_8 1_555 1_555
H21_8 C37_8 1_555 1_555
H22_8 C37_8 1_555 1_555
C38_8 C31_8 1_555 1_555
C39_8 C24_8 1_555 1_555
H23_8 C39_8 1_555 1_555
C40_8 C25_8 1_555 1_555
H24_8 C40_8 1_555 1_555
C41_8 C38_8 1_555 1_555
H25_8 C41_8 1_555 1_555
C42_8 C36_8 1_555 1_555
H26_8 C42_8 1_555 1_555
C28_8 C33_8 1_555 1_555
C29_8 C34_8 1_555 1_555
C32_8 C34_8 1_555 1_555
C32_8 C35_8 1_555 1_555
C35_8 C36_8 1_555 1_555
C39_8 C40_8 1_555 1_555
C41_8 C42_8 1_555 1_555

#END
