
###############################################################################
#
# This file contains modified crystal structure data generated from the
# MOF subset of the Cambridge Structural Database (CSD) v543 
# hosted by the Cambridge Crystallographic Data Centre (CCDC).
#
# This work is licensed under the Creative Commons
# Attribution-NonCommercial-ShareAlike 4.0 International License.
# To view a copy of this license, visit
# http://creativecommons.org/licenses/by-nc-sa/4.0/
# or send a letter to
# Creative Commons, PO Box 1866, Mountain View, CA 94042, USA.
#
# CIF created using the CSD Python API on 29 September 2022
# The structure has been converted into the P1 space group
# The structure has a 3D framework
# The original CSD entry OPUMAQ is in the monoclinic crystal system
# The framework has been calculated to contain at least 10.0% void space
# The void calculation uses a probe of radius 1.32A, grid spacing 0.4
# The framework is charged, counterions have been retained in the structure
#
###############################################################################

data_OPUMAQ
_chemical_formula_moiety         '(C230 H144 In4 O42 6-)n'
_symmetry_cell_setting           triclinic
_symmetry_space_group_name_H-M   'P 1'
_symmetry_Int_Tables_number      1
_space_group_name_Hall           'P 1'
loop_
_symmetry_equiv_pos_site_id
_symmetry_equiv_pos_as_xyz
1 x,y,z
_cell_length_a                   19.773(11)
_cell_length_b                   36.25(2)
_cell_length_c                   17.175(8)
_cell_angle_alpha                90
_cell_angle_beta                 122.695(10)
_cell_angle_gamma                90
_cell_volume                     10360
loop_
_atom_site_label
_atom_site_type_symbol
_atom_site_fract_x
_atom_site_fract_y
_atom_site_fract_z
In1 In -0.000000 0.53811(2) 0.750000
O13 O 0.0432(3) 0.49297(10) 0.8559(3)
O15 O 0.0383(3) 0.56637(10) 0.6628(3)
O16 O 0.1238(2) 0.50965(9) 0.8141(3)
O17 O 0.0733(3) 0.58344(10) 0.8527(3)
In1_2 In 1.000000 0.53811(2) 0.750000
O1 O 0.9568(3) 0.49297(10) 0.6441(3)
O3 O 0.8762(2) 0.50965(9) 0.6859(3)
O5 O 0.5595(3) 0.24976(11) 0.0127(3)
O6 O 0.7746(3) 0.33346(10) 0.4984(3)
C1 C 0.5163(3) 0.26572(13) 0.1923(4)
C2 C 0.5333(4) 0.17717(14) 0.0408(4)
C3 C 0.5092(3) 0.22910(13) 0.2149(3)
C4 C 0.7274(4) 0.40667(14) 0.4642(4)
C5 C 0.8904(4) 0.49028(14) 0.6392(4)
C6 C 0.5170(3) 0.20104(13) 0.1653(4)
H1 H 0.510186 0.176197 0.177479
C7 C 0.5331(3) 0.27371(14) 0.1267(4)
H2 H 0.537735 0.298586 0.112775
C8 C 0.5340(3) 0.20801(14) 0.0996(4)
C10 C 0.6442(4) 0.31066(14) 0.3806(4)
H3 H 0.660738 0.285694 0.396069
C11 C 0.5684(4) 0.31865(13) 0.3114(4)
C13 C 0.5436(3) 0.35621(13) 0.2880(4)
C14 C 0.8335(4) 0.46096(14) 0.5756(4)
C15 C 0.500000 0.29187(16) 0.250000
C17 C 0.4741(4) 0.15130(15) 0.0090(4)
H5 H 0.434580 0.153292 0.024177
C18 C 0.5433(5) 0.24529(17) 0.0815(5)
C19 C 0.8563(4) 0.43650(15) 0.5350(5)
H6 H 0.907784 0.438663 0.543628
C21 C 0.6967(4) 0.33832(16) 0.4281(5)
C22 C 0.6722(4) 0.37522(14) 0.4083(4)
C23 C 0.8048(4) 0.40799(16) 0.4803(4)
H8 H 0.821961 0.389879 0.454595
C24 C 0.7036(4) 0.43239(16) 0.5012(4)
H9 H 0.650558 0.431745 0.488774
C25 C 0.7581(4) 0.46060(16) 0.5591(5)
H10 H 0.741988 0.478806 0.585674
C26 C 0.5905(4) 0.17221(16) 0.0220(4)
H11 H 0.634033 0.189127 0.046994
C27 C 0.5947(4) 0.38319(14) 0.3371(4)
H12 H 0.577689 0.408153 0.323047
C28 C 0.7981(4) 0.29676(14) 0.5296(5)
H13 H 0.803287 0.282927 0.484096
H14 H 0.757402 0.285036 0.537330
H15 H 0.849837 0.296918 0.589045
H17 H 0.619477 0.298292 0.055270
O8 O 0.5383(3) 0.06637(10) 0.6628(3)
O10 O 0.4267(3) 0.08344(10) 0.6473(3)
O11 O 0.4405(3) 0.24976(11) 0.4873(3)
O12 O 0.2254(3) 0.33346(10) 0.0016(3)
C30 C 0.4837(3) 0.26572(13) 0.3077(4)
C31 C 0.4667(4) 0.17717(14) 0.4592(4)
C32 C 0.4908(3) 0.22910(13) 0.2851(3)
C33 C 0.2726(4) 0.40667(14) 0.0358(4)
C35 C 0.4830(3) 0.20104(13) 0.3347(4)
H19 H 0.489814 0.176197 0.322521
C36 C 0.4669(3) 0.27371(14) 0.3733(4)
H20 H 0.462265 0.298586 0.387225
C37 C 0.4660(3) 0.20801(14) 0.4004(4)
C38 C 0.4726(3) 0.11805(14) 0.5661(4)
C39 C 0.3558(4) 0.31066(14) 0.1194(4)
H21 H 0.339262 0.285694 0.103931
C40 C 0.4316(4) 0.31865(13) 0.1886(4)
C41 C 0.5294(4) 0.12189(14) 0.5456(4)
H22 H 0.571848 0.104462 0.568496
C42 C 0.4564(3) 0.35621(13) 0.2120(4)
C44 C 0.4789(4) 0.08811(14) 0.6288(4)
C45 C 0.5259(4) 0.15130(15) 0.4910(4)
H23 H 0.565420 0.153292 0.475823
C46 C 0.4567(5) 0.24529(17) 0.4185(5)
C48 C 0.4115(4) 0.14344(16) 0.5324(4)
H25 H 0.371204 0.141325 0.546252
C49 C 0.3033(4) 0.33832(16) 0.0719(5)
C50 C 0.3278(4) 0.37522(14) 0.0917(4)
C51 C 0.1952(4) 0.40799(16) 0.0197(4)
H26 H 0.178039 0.389879 0.045405
H27 H 0.349442 0.431745 0.011226
C54 C 0.4095(4) 0.17221(16) 0.4780(4)
H29 H 0.365967 0.189127 0.453006
C55 C 0.4053(4) 0.38319(14) 0.1629(4)
H30 H 0.422311 0.408153 0.176953
H31 H 0.196713 0.282927 0.015904
C57 C 0.4244(5) 0.28786(16) 0.5031(5)
H34 H 0.409034 0.287735 0.548614
H35 H 0.380523 0.298292 0.444730
H36 H 0.472869 0.302850 0.526346
In4 In 0.500000 0.03811(2) 0.750000
O14 O 0.9617(3) 0.56637(10) 0.8372(3)
O18 O 0.9267(3) 0.58344(10) 0.6473(3)
O2 O 0.4617(3) 0.06637(10) 0.8372(3)
O4 O 0.5733(3) 0.08344(10) 0.8527(3)
C9 C 0.5274(3) 0.11805(14) 0.9339(4)
C12 C 0.4706(4) 0.12189(14) 0.9544(4)
H4 H 0.428152 0.104462 0.931504
C16 C 0.5211(4) 0.08811(14) 0.8712(4)
C20 C 0.5885(4) 0.14344(16) 0.9676(4)
H7 H 0.628796 0.141325 0.953748
C29 C 0.5756(5) 0.28786(16) 0.9969(5)
H16 H 0.590966 0.287735 0.951386
H18 H 0.527131 0.302850 0.973654
C34 C 0.1096(4) 0.49028(14) 0.8608(4)
C43 C 0.1665(4) 0.46096(14) 0.9244(4)
C47 C 0.1437(4) 0.43650(15) 0.9650(5)
H24 H 0.092216 0.438663 0.956372
C52 C 0.2964(4) 0.43239(16) 0.9988(4)
C53 C 0.2419(4) 0.46060(16) 0.9409(5)
H28 H 0.258012 0.478806 0.914326
C56 C 0.2019(4) 0.29676(14) 0.9704(5)
H32 H 0.242598 0.285036 0.962670
H33 H 0.150163 0.296918 0.910955
O3_2 O 0.3762(2) 0.00965(9) 0.6859(3)
O16_2 O 0.6238(2) 0.00965(9) 0.8141(3)
O1_2 O 0.4568(3) 0.99297(10) 0.6441(3)
O5_2 O 0.0595(3) 0.74976(11) 0.0127(3)
O6_2 O 0.2746(3) 0.83346(10) 0.4984(3)
C1_2 C 0.0163(3) 0.76572(13) 0.1923(4)
C2_2 C 0.0333(4) 0.67717(14) 0.0408(4)
C3_2 C 0.0092(3) 0.72910(13) 0.2149(3)
C4_2 C 0.2274(4) 0.90667(14) 0.4642(4)
C5_2 C 0.3904(4) 0.99028(14) 0.6392(4)
C6_2 C 0.0170(3) 0.70104(13) 0.1653(4)
H1_2 H 0.010186 0.676197 0.177479
C7_2 C 0.0331(3) 0.77371(14) 0.1267(4)
H2_2 H 0.037735 0.798586 0.112775
C8_2 C 0.0340(3) 0.70801(14) 0.0996(4)
C10_2 C 0.1442(4) 0.81066(14) 0.3806(4)
H3_2 H 0.160738 0.785694 0.396069
C11_2 C 0.0684(4) 0.81865(13) 0.3114(4)
C13_2 C 0.0436(3) 0.85621(13) 0.2880(4)
C14_2 C 0.3335(4) 0.96096(14) 0.5756(4)
C15_2 C -0.000000 0.79187(16) 0.250000
C18_2 C 0.0433(5) 0.74529(17) 0.0815(5)
C19_2 C 0.3563(4) 0.93650(15) 0.5350(5)
H6_2 H 0.407784 0.938663 0.543628
C21_2 C 0.1967(4) 0.83832(16) 0.4281(5)
C22_2 C 0.1722(4) 0.87522(14) 0.4083(4)
C23_2 C 0.3048(4) 0.90799(16) 0.4803(4)
H8_2 H 0.321961 0.889879 0.454595
C24_2 C 0.2036(4) 0.93239(16) 0.5012(4)
H9_2 H 0.150558 0.931745 0.488774
C25_2 C 0.2581(4) 0.96060(16) 0.5591(5)
H10_2 H 0.241988 0.978806 0.585674
C26_2 C 0.0905(4) 0.67221(16) 0.0220(4)
H11_2 H 0.134033 0.689127 0.046994
C27_2 C 0.0947(4) 0.88319(14) 0.3371(4)
H12_2 H 0.077689 0.908153 0.323047
C28_2 C 0.2981(4) 0.79676(14) 0.5296(5)
H13_2 H 0.303287 0.782927 0.484096
H14_2 H 0.257402 0.785036 0.537330
H15_2 H 0.349837 0.796918 0.589045
H17_2 H 0.119477 0.798292 0.055270
C41_2 C 0.0294(4) 0.62189(14) 0.5456(4)
H22_2 H 0.071848 0.604462 0.568496
C45_2 C 0.0259(4) 0.65130(15) 0.4910(4)
H23_2 H 0.065420 0.653292 0.475823
O13_2 O 0.5432(3) 0.99297(10) 0.8559(3)
C9_2 C 0.0274(3) 0.61805(14) 0.9339(4)
C16_2 C 0.0211(4) 0.58811(14) 0.8712(4)
C20_2 C 0.0885(4) 0.64344(16) 0.9676(4)
H7_2 H 0.128796 0.641325 0.953748
C29_2 C 0.0756(5) 0.78786(16) 0.9969(5)
H16_2 H 0.090966 0.787735 0.951386
H18_2 H 0.027131 0.802850 0.973654
C15_3 C 1.000000 0.79187(16) 0.250000
C17_2 C 0.9741(4) 0.65130(15) 0.0090(4)
H5_2 H 0.934580 0.653292 0.024177
O11_2 O 0.9405(3) 0.74976(11) 0.4873(3)
O12_2 O 0.7254(3) 0.83346(10) 0.0016(3)
C30_2 C 0.9837(3) 0.76572(13) 0.3077(4)
C31_2 C 0.9667(4) 0.67717(14) 0.4592(4)
C32_2 C 0.9908(3) 0.72910(13) 0.2851(3)
C33_2 C 0.7726(4) 0.90667(14) 0.0358(4)
C35_2 C 0.9830(3) 0.70104(13) 0.3347(4)
H19_2 H 0.989814 0.676197 0.322521
C36_2 C 0.9669(3) 0.77371(14) 0.3733(4)
H20_2 H 0.962265 0.798586 0.387225
C37_2 C 0.9660(3) 0.70801(14) 0.4004(4)
C38_2 C 0.9726(3) 0.61805(14) 0.5661(4)
C39_2 C 0.8558(4) 0.81066(14) 0.1194(4)
H21_2 H 0.839262 0.785694 0.103931
C40_2 C 0.9316(4) 0.81865(13) 0.1886(4)
C42_2 C 0.9564(3) 0.85621(13) 0.2120(4)
C44_2 C 0.9789(4) 0.58811(14) 0.6288(4)
C46_2 C 0.9567(5) 0.74529(17) 0.4185(5)
C48_2 C 0.9115(4) 0.64344(16) 0.5324(4)
H25_2 H 0.871204 0.641325 0.546252
C49_2 C 0.8033(4) 0.83832(16) 0.0719(5)
C50_2 C 0.8278(4) 0.87522(14) 0.0917(4)
C51_2 C 0.6952(4) 0.90799(16) 0.0197(4)
H26_2 H 0.678039 0.889879 0.045405
H27_2 H 0.849442 0.931745 0.011226
C54_2 C 0.9095(4) 0.67221(16) 0.4780(4)
H29_2 H 0.865967 0.689127 0.453006
C55_2 C 0.9053(4) 0.88319(14) 0.1629(4)
H30_2 H 0.922311 0.908153 0.176953
H31_2 H 0.696713 0.782927 0.015904
C57_2 C 0.9244(5) 0.78786(16) 0.5031(5)
H34_2 H 0.909034 0.787735 0.548614
H35_2 H 0.880523 0.798292 0.444730
H36_2 H 0.972869 0.802850 0.526346
C12_2 C 0.9706(4) 0.62189(14) 0.9544(4)
H4_2 H 0.928152 0.604462 0.931504
C34_2 C 0.6096(4) 0.99028(14) 0.8608(4)
C43_2 C 0.6665(4) 0.96096(14) 0.9244(4)
C47_2 C 0.6437(4) 0.93650(15) 0.9650(5)
H24_2 H 0.592216 0.938663 0.956372
C52_2 C 0.7964(4) 0.93239(16) 0.9988(4)
C53_2 C 0.7419(4) 0.96060(16) 0.9409(5)
H28_2 H 0.758012 0.978806 0.914326
C56_2 C 0.7019(4) 0.79676(14) 0.9704(5)
H32_2 H 0.742598 0.785036 0.962670
H33_2 H 0.650163 0.796918 0.910955
In2 In -0.000000 0.46189(2) 0.250000
O2_2 O 0.5383(3) 0.93363(10) 0.1628(3)
O4_2 O 0.4267(3) 0.91656(10) 0.1473(3)
C9_3 C 0.4726(3) 0.88195(14) 0.0661(4)
C12_3 C 0.5294(4) 0.87811(14) 0.0456(4)
H4_3 H 0.571848 0.895538 0.068496
C16_3 C 0.4789(4) 0.91189(14) 0.1288(4)
C20_3 C 0.4115(4) 0.85656(16) 0.0324(4)
H7_3 H 0.371204 0.858675 0.046252
C29_3 C 0.4244(5) 0.71214(16) 0.0031(5)
H16_3 H 0.409034 0.712265 0.048614
H18_3 H 0.472869 0.697150 0.026346
O7 O 0.9568(3) 0.50703(10) 0.1441(3)
O9 O 0.8762(2) 0.49035(9) 0.1859(3)
C34_3 C 0.8904(4) 0.50972(14) 0.1392(4)
C43_3 C 0.8335(4) 0.53904(14) 0.0756(4)
C47_3 C 0.8563(4) 0.56350(15) 0.0350(5)
H24_3 H 0.907784 0.561337 0.043628
C52_3 C 0.7036(4) 0.56761(16) 0.0012(4)
C53_3 C 0.7581(4) 0.53940(16) 0.0591(5)
H28_3 H 0.741988 0.521194 0.085674
C56_3 C 0.7981(4) 0.70324(14) 0.0296(5)
H32_3 H 0.757402 0.714964 0.037330
H33_3 H 0.849837 0.703082 0.089045
In2_2 In 1.000000 0.46189(2) 0.250000
In3 In 0.500000 0.96189(2) 0.250000
O1_3 O 0.0432(3) 0.50703(10) 0.3559(3)
O3_3 O 0.1238(2) 0.49035(9) 0.3141(3)
O5_3 O 0.4405(3) 0.75024(11) 0.9873(3)
O6_3 O 0.2254(3) 0.66654(10) 0.5016(3)
C1_3 C 0.4837(3) 0.73428(13) 0.8077(4)
C2_3 C 0.4667(4) 0.82283(14) 0.9592(4)
C3_3 C 0.4908(3) 0.77090(13) 0.7851(3)
C4_3 C 0.2726(4) 0.59333(14) 0.5358(4)
C5_3 C 0.1096(4) 0.50972(14) 0.3608(4)
C6_3 C 0.4830(3) 0.79896(13) 0.8347(4)
H1_3 H 0.489814 0.823803 0.822521
C7_3 C 0.4669(3) 0.72629(14) 0.8733(4)
H2_3 H 0.462265 0.701414 0.887225
C8_3 C 0.4660(3) 0.79199(14) 0.9004(4)
C10_3 C 0.3558(4) 0.68934(14) 0.6194(4)
H3_3 H 0.339262 0.714306 0.603931
C11_3 C 0.4316(4) 0.68135(13) 0.6886(4)
C13_3 C 0.4564(3) 0.64379(13) 0.7120(4)
C14_3 C 0.1665(4) 0.53904(14) 0.4244(4)
C15_4 C 0.500000 0.70813(16) 0.750000
C17_3 C 0.5259(4) 0.84870(15) 0.9910(4)
H5_3 H 0.565420 0.846708 0.975823
C18_3 C 0.4567(5) 0.75471(17) 0.9185(5)
C19_3 C 0.1437(4) 0.56350(15) 0.4650(5)
H6_3 H 0.092216 0.561337 0.456372
C21_3 C 0.3033(4) 0.66168(16) 0.5719(5)
C22_3 C 0.3278(4) 0.62478(14) 0.5917(4)
C23_3 C 0.1952(4) 0.59201(16) 0.5197(4)
H8_3 H 0.178039 0.610121 0.545405
C24_3 C 0.2964(4) 0.56761(16) 0.4988(4)
H9_3 H 0.349442 0.568255 0.511226
C25_3 C 0.2419(4) 0.53940(16) 0.4409(5)
H10_3 H 0.258012 0.521194 0.414326
C26_3 C 0.4095(4) 0.82779(16) 0.9780(4)
H11_3 H 0.365967 0.810873 0.953006
C27_3 C 0.4053(4) 0.61681(14) 0.6629(4)
H12_3 H 0.422311 0.591847 0.676953
C28_3 C 0.2019(4) 0.70324(14) 0.4704(5)
H13_3 H 0.196713 0.717073 0.515904
H14_3 H 0.242598 0.714964 0.462670
H15_3 H 0.150163 0.703082 0.410955
H17_3 H 0.380523 0.701708 0.944730
O8_2 O 0.4617(3) 0.93363(10) 0.3372(3)
O10_2 O 0.5733(3) 0.91656(10) 0.3527(3)
O11_3 O 0.5595(3) 0.75024(11) 0.5127(3)
O12_3 O 0.7746(3) 0.66654(10) 0.9984(3)
C30_3 C 0.5163(3) 0.73428(13) 0.6923(4)
C31_3 C 0.5333(4) 0.82283(14) 0.5408(4)
C32_3 C 0.5092(3) 0.77090(13) 0.7149(3)
C33_3 C 0.7274(4) 0.59333(14) 0.9642(4)
C35_3 C 0.5170(3) 0.79896(13) 0.6653(4)
H19_3 H 0.510186 0.823803 0.677479
C36_3 C 0.5331(3) 0.72629(14) 0.6267(4)
H20_3 H 0.537735 0.701414 0.612775
C37_3 C 0.5340(3) 0.79199(14) 0.5996(4)
C38_3 C 0.5274(3) 0.88195(14) 0.4339(4)
C39_3 C 0.6442(4) 0.68934(14) 0.8806(4)
H21_3 H 0.660738 0.714306 0.896069
C40_3 C 0.5684(4) 0.68135(13) 0.8114(4)
C41_3 C 0.4706(4) 0.87811(14) 0.4544(4)
H22_3 H 0.428152 0.895538 0.431504
C42_3 C 0.5436(3) 0.64379(13) 0.7880(4)
C44_3 C 0.5211(4) 0.91189(14) 0.3712(4)
C45_3 C 0.4741(4) 0.84870(15) 0.5090(4)
H23_3 H 0.434580 0.846708 0.524177
C46_3 C 0.5433(5) 0.75471(17) 0.5815(5)
C48_3 C 0.5885(4) 0.85656(16) 0.4676(4)
H25_3 H 0.628796 0.858675 0.453748
C49_3 C 0.6967(4) 0.66168(16) 0.9281(5)
C50_3 C 0.6722(4) 0.62478(14) 0.9083(4)
C51_3 C 0.8048(4) 0.59201(16) 0.9803(4)
H26_3 H 0.821961 0.610121 0.954595
H27_3 H 0.650558 0.568255 0.988774
C54_3 C 0.5905(4) 0.82779(16) 0.5220(4)
H29_3 H 0.634033 0.810873 0.546994
C55_3 C 0.5947(4) 0.61681(14) 0.8371(4)
H30_3 H 0.577689 0.591847 0.823047
H31_3 H 0.803287 0.717073 0.984096
C57_3 C 0.5756(5) 0.71214(16) 0.4969(5)
H34_3 H 0.590966 0.712265 0.451386
H35_3 H 0.619477 0.701708 0.555270
H36_3 H 0.527131 0.697150 0.473654
O14_2 O 0.0383(3) 0.43363(10) 0.1628(3)
O18_2 O 0.0733(3) 0.41656(10) 0.3527(3)
O15_2 O 0.9617(3) 0.43363(10) 0.3372(3)
O17_2 O 0.9267(3) 0.41656(10) 0.1473(3)
C12_4 C 0.0294(4) 0.37811(14) 0.0456(4)
H4_4 H 0.071848 0.395538 0.068496
O7_2 O 0.4568(3) 0.00703(10) 0.1441(3)
C34_4 C 0.3904(4) 0.00972(14) 0.1392(4)
C43_4 C 0.3335(4) 0.03904(14) 0.0756(4)
C47_4 C 0.3563(4) 0.06350(15) 0.0350(5)
H24_4 H 0.407784 0.061337 0.043628
C52_4 C 0.2036(4) 0.06761(16) 0.0012(4)
C53_4 C 0.2581(4) 0.03940(16) 0.0591(5)
H28_4 H 0.241988 0.021194 0.085674
C56_4 C 0.2981(4) 0.20324(14) 0.0296(5)
H32_4 H 0.257402 0.214964 0.037330
H33_4 H 0.349837 0.203082 0.089045
C15_5 C 0.000000 0.20813(16) 0.750000
C17_4 C 0.0259(4) 0.34870(15) 0.9910(4)
H5_4 H 0.065420 0.346708 0.975823
O11_4 O 0.0595(3) 0.25024(11) 0.5127(3)
O12_4 O 0.2746(3) 0.16654(10) 0.9984(3)
C30_4 C 0.0163(3) 0.23428(13) 0.6923(4)
C31_4 C 0.0333(4) 0.32283(14) 0.5408(4)
C32_4 C 0.0092(3) 0.27090(13) 0.7149(3)
C33_4 C 0.2274(4) 0.09333(14) 0.9642(4)
C35_4 C 0.0170(3) 0.29896(13) 0.6653(4)
H19_4 H 0.010186 0.323803 0.677479
C36_4 C 0.0331(3) 0.22629(14) 0.6267(4)
H20_4 H 0.037735 0.201414 0.612775
C37_4 C 0.0340(3) 0.29199(14) 0.5996(4)
C38_4 C 0.0274(3) 0.38195(14) 0.4339(4)
C39_4 C 0.1442(4) 0.18934(14) 0.8806(4)
H21_4 H 0.160738 0.214306 0.896069
C40_4 C 0.0684(4) 0.18135(13) 0.8114(4)
C42_4 C 0.0436(3) 0.14379(13) 0.7880(4)
C44_4 C 0.0211(4) 0.41189(14) 0.3712(4)
C46_4 C 0.0433(5) 0.25471(17) 0.5815(5)
C48_4 C 0.0885(4) 0.35656(16) 0.4676(4)
H25_4 H 0.128796 0.358675 0.453748
C49_4 C 0.1967(4) 0.16168(16) 0.9281(5)
C50_4 C 0.1722(4) 0.12478(14) 0.9083(4)
C51_4 C 0.3048(4) 0.09201(16) 0.9803(4)
H26_4 H 0.321961 0.110121 0.954595
H27_4 H 0.150558 0.068255 0.988774
C54_4 C 0.0905(4) 0.32779(16) 0.5220(4)
H29_4 H 0.134033 0.310873 0.546994
C55_4 C 0.0947(4) 0.11681(14) 0.8371(4)
H30_4 H 0.077689 0.091847 0.823047
H31_4 H 0.303287 0.217073 0.984096
C57_4 C 0.0756(5) 0.21214(16) 0.4969(5)
H34_4 H 0.090966 0.212265 0.451386
H35_4 H 0.119477 0.201708 0.555270
H36_4 H 0.027131 0.197150 0.473654
O9_2 O 0.3762(2) 0.99035(9) 0.1859(3)
C9_4 C 0.9726(3) 0.38195(14) 0.0661(4)
C16_4 C 0.9789(4) 0.41189(14) 0.1288(4)
C20_4 C 0.9115(4) 0.35656(16) 0.0324(4)
H7_4 H 0.871204 0.358675 0.046252
C29_4 C 0.9244(5) 0.21214(16) 0.0031(5)
H16_4 H 0.909034 0.212265 0.048614
H18_4 H 0.972869 0.197150 0.026346
O1_4 O 0.5432(3) 0.00703(10) 0.3559(3)
O5_4 O 0.9405(3) 0.25024(11) 0.9873(3)
O6_4 O 0.7254(3) 0.16654(10) 0.5016(3)
C1_4 C 0.9837(3) 0.23428(13) 0.8077(4)
C2_4 C 0.9667(4) 0.32283(14) 0.9592(4)
C3_4 C 0.9908(3) 0.27090(13) 0.7851(3)
C4_4 C 0.7726(4) 0.09333(14) 0.5358(4)
C5_4 C 0.6096(4) 0.00972(14) 0.3608(4)
C6_4 C 0.9830(3) 0.29896(13) 0.8347(4)
H1_4 H 0.989814 0.323803 0.822521
C7_4 C 0.9669(3) 0.22629(14) 0.8733(4)
H2_4 H 0.962265 0.201414 0.887225
C8_4 C 0.9660(3) 0.29199(14) 0.9004(4)
C10_4 C 0.8558(4) 0.18934(14) 0.6194(4)
H3_4 H 0.839262 0.214306 0.603931
C11_4 C 0.9316(4) 0.18135(13) 0.6886(4)
C13_4 C 0.9564(3) 0.14379(13) 0.7120(4)
C14_4 C 0.6665(4) 0.03904(14) 0.4244(4)
C15_6 C 1.000000 0.20813(16) 0.750000
C18_4 C 0.9567(5) 0.25471(17) 0.9185(5)
C19_4 C 0.6437(4) 0.06350(15) 0.4650(5)
H6_4 H 0.592216 0.061337 0.456372
C21_4 C 0.8033(4) 0.16168(16) 0.5719(5)
C22_4 C 0.8278(4) 0.12478(14) 0.5917(4)
C23_4 C 0.6952(4) 0.09201(16) 0.5197(4)
H8_4 H 0.678039 0.110121 0.545405
C24_4 C 0.7964(4) 0.06761(16) 0.4988(4)
H9_4 H 0.849442 0.068255 0.511226
C25_4 C 0.7419(4) 0.03940(16) 0.4409(5)
H10_4 H 0.758012 0.021194 0.414326
C26_4 C 0.9095(4) 0.32779(16) 0.9780(4)
H11_4 H 0.865967 0.310873 0.953006
C27_4 C 0.9053(4) 0.11681(14) 0.6629(4)
H12_4 H 0.922311 0.091847 0.676953
C28_4 C 0.7019(4) 0.20324(14) 0.4704(5)
H13_4 H 0.696713 0.217073 0.515904
H14_4 H 0.742598 0.214964 0.462670
H15_4 H 0.650163 0.203082 0.410955
H17_4 H 0.880523 0.201708 0.944730
C41_4 C 0.9706(4) 0.37811(14) 0.4544(4)
H22_4 H 0.928152 0.395538 0.431504
C45_4 C 0.9741(4) 0.34870(15) 0.5090(4)
H23_4 H 0.934580 0.346708 0.524177
O3_4 O 0.6238(2) 0.99035(9) 0.3141(3)
loop_
_geom_bond_atom_site_label_1
_geom_bond_atom_site_label_2
_geom_bond_site_symmetry_1
_geom_bond_site_symmetry_2
O13 In1 1_555 1_555
O15 In1 1_555 1_555
O16 In1 1_555 1_555
O17 In1 1_555 1_555
In1_2 O1 1_555 1_555
O1 C5 1_555 1_555
O3 In1_2 1_555 1_555
O5 C18 1_555 1_555
O6 C21 1_555 1_555
C1 C3 1_555 1_555
C2 C8 1_555 1_555
C3 C6 1_555 1_555
C4 C22 1_555 1_555
C5 O3 1_555 1_555
C6 H1 1_555 1_555
C7 C1 1_555 1_555
H2 C7 1_555 1_555
C8 C6 1_555 1_555
C10 H3 1_555 1_555
C11 C10 1_555 1_555
C13 C11 1_555 1_555
C14 C5 1_555 1_555
C15 C1 1_555 1_555
C17 C2 1_555 1_555
H5 C17 1_555 1_555
C18 C7 1_555 1_555
C19 C14 1_555 1_555
H6 C19 1_555 1_555
C21 C10 1_555 1_555
C22 C21 1_555 1_555
C23 C4 1_555 1_555
H8 C23 1_555 1_555
C24 C4 1_555 1_555
H9 C24 1_555 1_555
C25 C14 1_555 1_555
H10 C25 1_555 1_555
C26 C2 1_555 1_555
H11 C26 1_555 1_555
C27 C13 1_555 1_555
H12 C27 1_555 1_555
C28 O6 1_555 1_555
H13 C28 1_555 1_555
H14 C28 1_555 1_555
H15 C28 1_555 1_555
O8 C44 1_555 1_555
O10 C44 1_555 1_555
O11 C46 1_555 1_555
O12 C49 1_555 1_555
C30 C15 1_555 1_555
C31 C37 1_555 1_555
C32 C3 1_555 1_555
C33 C50 1_555 1_555
C35 C32 1_555 1_555
H19 C35 1_555 1_555
C36 C30 1_555 1_555
H20 C36 1_555 1_555
C37 C35 1_555 1_555
C38 C41 1_555 1_555
C39 H21 1_555 1_555
C40 C15 1_555 1_555
C41 H22 1_555 1_555
C42 C13 1_555 1_555
C44 C38 1_555 1_555
C45 C31 1_555 1_555
H23 C45 1_555 1_555
C46 C36 1_555 1_555
C48 C38 1_555 1_555
H25 C48 1_555 1_555
C49 C39 1_555 1_555
C50 C49 1_555 1_555
C51 C33 1_555 1_555
H26 C51 1_555 1_555
C54 C31 1_555 1_555
H29 C54 1_555 1_555
C55 C42 1_555 1_555
H30 C55 1_555 1_555
C57 O11 1_555 1_555
H34 C57 1_555 1_555
H35 C57 1_555 1_555
H36 C57 1_555 1_555
In4 O8 1_555 1_555
O14 In1_2 1_555 1_555
O18 In1_2 1_555 1_555
C8 C18 1_555 1_555
C11 C15 1_555 1_555
C19 C23 1_555 1_555
C22 C27 1_555 1_555
C24 C25 1_555 1_555
O10 In4 1_555 1_555
C30 C32 1_555 1_555
C37 C46 1_555 1_555
C39 C40 1_555 1_555
C40 C42 1_555 1_555
C41 C45 1_555 1_555
C48 C54 1_555 1_555
C50 C55 1_555 1_555
O2 C16 1_555 1_555
O4 C16 1_555 1_555
C9 C12 1_555 1_555
C12 H4 1_555 1_555
C16 C9 1_555 1_555
C20 C9 1_555 1_555
H7 C20 1_555 1_555
H16 C29 1_555 1_555
H18 C29 1_555 1_555
O13 C34 1_555 1_555
O16 C34 1_555 1_555
C34 C43 1_555 1_555
C43 C47 1_555 1_555
C47 H24 1_555 1_555
C53 C43 1_555 1_555
H28 C53 1_555 1_555
H32 C56 1_555 1_555
H33 C56 1_555 1_555
In4 O2 1_555 1_555
O4 In4 1_555 1_555
C52 C53 1_555 1_555
O3_2 In4 1_555 1_555
O16_2 In4 1_555 1_555
O1_2 C5_2 1_555 1_555
O5_2 C18_2 1_555 1_555
O6_2 C21_2 1_555 1_555
C1_2 C3_2 1_555 1_555
C2_2 C8_2 1_555 1_555
C3_2 C6_2 1_555 1_555
C4_2 C22_2 1_555 1_555
C6_2 H1_2 1_555 1_555
C7_2 C1_2 1_555 1_555
H2_2 C7_2 1_555 1_555
C8_2 C6_2 1_555 1_555
C10_2 H3_2 1_555 1_555
C11_2 C10_2 1_555 1_555
C13_2 C11_2 1_555 1_555
C14_2 C5_2 1_555 1_555
C15_2 C1_2 1_555 1_555
C18_2 C7_2 1_555 1_555
C19_2 C14_2 1_555 1_555
H6_2 C19_2 1_555 1_555
C21_2 C10_2 1_555 1_555
C22_2 C21_2 1_555 1_555
C23_2 C4_2 1_555 1_555
H8_2 C23_2 1_555 1_555
C24_2 C4_2 1_555 1_555
H9_2 C24_2 1_555 1_555
C25_2 C14_2 1_555 1_555
H10_2 C25_2 1_555 1_555
C26_2 C2_2 1_555 1_555
H11_2 C26_2 1_555 1_555
C27_2 C13_2 1_555 1_555
H12_2 C27_2 1_555 1_555
C28_2 O6_2 1_555 1_555
H13_2 C28_2 1_555 1_555
H14_2 C28_2 1_555 1_555
H15_2 C28_2 1_555 1_555
C41_2 H22_2 1_555 1_555
H23_2 C45_2 1_555 1_555
C8_2 C18_2 1_555 1_555
C11_2 C15_2 1_555 1_555
C19_2 C23_2 1_555 1_555
C22_2 C27_2 1_555 1_555
C24_2 C25_2 1_555 1_555
C41_2 C45_2 1_555 1_555
O17 C16_2 1_555 1_555
C16_2 C9_2 1_555 1_555
C20_2 C9_2 1_555 1_555
H7_2 C20_2 1_555 1_555
H16_2 C29_2 1_555 1_555
H18_2 C29_2 1_555 1_555
H5_2 C17_2 1_555 1_555
O18 C44_2 1_555 1_555
O11_2 C46_2 1_555 1_555
O12_2 C49_2 1_555 1_555
C30_2 C15_3 1_555 1_555
C31_2 C37_2 1_555 1_555
C33_2 C50_2 1_555 1_555
C35_2 C32_2 1_555 1_555
H19_2 C35_2 1_555 1_555
C36_2 C30_2 1_555 1_555
H20_2 C36_2 1_555 1_555
C37_2 C35_2 1_555 1_555
C39_2 H21_2 1_555 1_555
C40_2 C15_3 1_555 1_555
C44_2 C38_2 1_555 1_555
C46_2 C36_2 1_555 1_555
C48_2 C38_2 1_555 1_555
H25_2 C48_2 1_555 1_555
C49_2 C39_2 1_555 1_555
C50_2 C49_2 1_555 1_555
C51_2 C33_2 1_555 1_555
H26_2 C51_2 1_555 1_555
C54_2 C31_2 1_555 1_555
H29_2 C54_2 1_555 1_555
C55_2 C42_2 1_555 1_555
H30_2 C55_2 1_555 1_555
C57_2 O11_2 1_555 1_555
H34_2 C57_2 1_555 1_555
H35_2 C57_2 1_555 1_555
H36_2 C57_2 1_555 1_555
C30_2 C32_2 1_555 1_555
C37_2 C46_2 1_555 1_555
C39_2 C40_2 1_555 1_555
C40_2 C42_2 1_555 1_555
C48_2 C54_2 1_555 1_555
C50_2 C55_2 1_555 1_555
C12_2 H4_2 1_555 1_555
O13_2 C34_2 1_555 1_555
C34_2 C43_2 1_555 1_555
C43_2 C47_2 1_555 1_555
C47_2 H24_2 1_555 1_555
C53_2 C43_2 1_555 1_555
H28_2 C53_2 1_555 1_555
H32_2 C56_2 1_555 1_555
H33_2 C56_2 1_555 1_555
C52_2 C53_2 1_555 1_555
O2_2 C16_3 1_555 1_555
O4_2 C16_3 1_555 1_555
C9_3 C12_3 1_555 1_555
C12_3 H4_3 1_555 1_555
C16_3 C9_3 1_555 1_555
C20_3 C9_3 1_555 1_555
H7_3 C20_3 1_555 1_555
H16_3 C29_3 1_555 1_555
H18_3 C29_3 1_555 1_555
O7 C34_3 1_555 1_555
O9 C34_3 1_555 1_555
C34_3 C43_3 1_555 1_555
C43_3 C47_3 1_555 1_555
C47_3 H24_3 1_555 1_555
C53_3 C43_3 1_555 1_555
H28_3 C53_3 1_555 1_555
H32_3 C56_3 1_555 1_555
H33_3 C56_3 1_555 1_555
In2_2 O7 1_555 1_555
In3 O2_2 1_555 1_555
O4_2 In3 1_555 1_555
O9 In2_2 1_555 1_555
C52_3 C53_3 1_555 1_555
In2 O1_3 1_555 1_555
O1_3 C5_3 1_555 1_555
O3_3 In2 1_555 1_555
O5_3 C18_3 1_555 1_555
O6_3 C21_3 1_555 1_555
C1_3 C3_3 1_555 1_555
C2_3 C8_3 1_555 1_555
C3_3 C6_3 1_555 1_555
C4_3 C22_3 1_555 1_555
C5_3 O3_3 1_555 1_555
C6_3 H1_3 1_555 1_555
C7_3 C1_3 1_555 1_555
H2_3 C7_3 1_555 1_555
C8_3 C6_3 1_555 1_555
C10_3 H3_3 1_555 1_555
C11_3 C10_3 1_555 1_555
C13_3 C11_3 1_555 1_555
C14_3 C5_3 1_555 1_555
C15_4 C1_3 1_555 1_555
C17_3 C2_3 1_555 1_555
H5_3 C17_3 1_555 1_555
C18_3 C7_3 1_555 1_555
C19_3 C14_3 1_555 1_555
H6_3 C19_3 1_555 1_555
C21_3 C10_3 1_555 1_555
C22_3 C21_3 1_555 1_555
C23_3 C4_3 1_555 1_555
H8_3 C23_3 1_555 1_555
C24_3 C4_3 1_555 1_555
H9_3 C24_3 1_555 1_555
C25_3 C14_3 1_555 1_555
H10_3 C25_3 1_555 1_555
C26_3 C2_3 1_555 1_555
H11_3 C26_3 1_555 1_555
C27_3 C13_3 1_555 1_555
H12_3 C27_3 1_555 1_555
C28_3 O6_3 1_555 1_555
H13_3 C28_3 1_555 1_555
H14_3 C28_3 1_555 1_555
H15_3 C28_3 1_555 1_555
O8_2 C44_3 1_555 1_555
O10_2 C44_3 1_555 1_555
O11_3 C46_3 1_555 1_555
O12_3 C49_3 1_555 1_555
C30_3 C15_4 1_555 1_555
C31_3 C37_3 1_555 1_555
C32_3 C3_3 1_555 1_555
C33_3 C50_3 1_555 1_555
C35_3 C32_3 1_555 1_555
H19_3 C35_3 1_555 1_555
C36_3 C30_3 1_555 1_555
H20_3 C36_3 1_555 1_555
C37_3 C35_3 1_555 1_555
C38_3 C41_3 1_555 1_555
C39_3 H21_3 1_555 1_555
C40_3 C15_4 1_555 1_555
C41_3 H22_3 1_555 1_555
C42_3 C13_3 1_555 1_555
C44_3 C38_3 1_555 1_555
C45_3 C31_3 1_555 1_555
H23_3 C45_3 1_555 1_555
C46_3 C36_3 1_555 1_555
C48_3 C38_3 1_555 1_555
H25_3 C48_3 1_555 1_555
C49_3 C39_3 1_555 1_555
C50_3 C49_3 1_555 1_555
C51_3 C33_3 1_555 1_555
H26_3 C51_3 1_555 1_555
C54_3 C31_3 1_555 1_555
H29_3 C54_3 1_555 1_555
C55_3 C42_3 1_555 1_555
H30_3 C55_3 1_555 1_555
C57_3 O11_3 1_555 1_555
H34_3 C57_3 1_555 1_555
H35_3 C57_3 1_555 1_555
H36_3 C57_3 1_555 1_555
In3 O8_2 1_555 1_555
O14_2 In2 1_555 1_555
O18_2 In2 1_555 1_555
C8_3 C18_3 1_555 1_555
C11_3 C15_4 1_555 1_555
C19_3 C23_3 1_555 1_555
C22_3 C27_3 1_555 1_555
C24_3 C25_3 1_555 1_555
O10_2 In3 1_555 1_555
C30_3 C32_3 1_555 1_555
C37_3 C46_3 1_555 1_555
C39_3 C40_3 1_555 1_555
C40_3 C42_3 1_555 1_555
C41_3 C45_3 1_555 1_555
C48_3 C54_3 1_555 1_555
C50_3 C55_3 1_555 1_555
O15_2 In2_2 1_555 1_555
O17_2 In2_2 1_555 1_555
C12_4 H4_4 1_555 1_555
O7_2 C34_4 1_555 1_555
C34_4 C43_4 1_555 1_555
C43_4 C47_4 1_555 1_555
C47_4 H24_4 1_555 1_555
C53_4 C43_4 1_555 1_555
H28_4 C53_4 1_555 1_555
H32_4 C56_4 1_555 1_555
H33_4 C56_4 1_555 1_555
C52_4 C53_4 1_555 1_555
H5_4 C17_4 1_555 1_555
O18_2 C44_4 1_555 1_555
O11_4 C46_4 1_555 1_555
O12_4 C49_4 1_555 1_555
C30_4 C15_5 1_555 1_555
C31_4 C37_4 1_555 1_555
C33_4 C50_4 1_555 1_555
C35_4 C32_4 1_555 1_555
H19_4 C35_4 1_555 1_555
C36_4 C30_4 1_555 1_555
H20_4 C36_4 1_555 1_555
C37_4 C35_4 1_555 1_555
C39_4 H21_4 1_555 1_555
C40_4 C15_5 1_555 1_555
C44_4 C38_4 1_555 1_555
C46_4 C36_4 1_555 1_555
C48_4 C38_4 1_555 1_555
H25_4 C48_4 1_555 1_555
C49_4 C39_4 1_555 1_555
C50_4 C49_4 1_555 1_555
C51_4 C33_4 1_555 1_555
H26_4 C51_4 1_555 1_555
C54_4 C31_4 1_555 1_555
H29_4 C54_4 1_555 1_555
C55_4 C42_4 1_555 1_555
H30_4 C55_4 1_555 1_555
C57_4 O11_4 1_555 1_555
H34_4 C57_4 1_555 1_555
H35_4 C57_4 1_555 1_555
H36_4 C57_4 1_555 1_555
C30_4 C32_4 1_555 1_555
C37_4 C46_4 1_555 1_555
C39_4 C40_4 1_555 1_555
C40_4 C42_4 1_555 1_555
C48_4 C54_4 1_555 1_555
C50_4 C55_4 1_555 1_555
O9_2 In3 1_555 1_555
O17_2 C16_4 1_555 1_555
C16_4 C9_4 1_555 1_555
C20_4 C9_4 1_555 1_555
H7_4 C20_4 1_555 1_555
H16_4 C29_4 1_555 1_555
H18_4 C29_4 1_555 1_555
O1_4 C5_4 1_555 1_555
O5_4 C18_4 1_555 1_555
O6_4 C21_4 1_555 1_555
C1_4 C3_4 1_555 1_555
C2_4 C8_4 1_555 1_555
C3_4 C6_4 1_555 1_555
C4_4 C22_4 1_555 1_555
C6_4 H1_4 1_555 1_555
C7_4 C1_4 1_555 1_555
H2_4 C7_4 1_555 1_555
C8_4 C6_4 1_555 1_555
C10_4 H3_4 1_555 1_555
C11_4 C10_4 1_555 1_555
C13_4 C11_4 1_555 1_555
C14_4 C5_4 1_555 1_555
C15_6 C1_4 1_555 1_555
C18_4 C7_4 1_555 1_555
C19_4 C14_4 1_555 1_555
H6_4 C19_4 1_555 1_555
C21_4 C10_4 1_555 1_555
C22_4 C21_4 1_555 1_555
C23_4 C4_4 1_555 1_555
H8_4 C23_4 1_555 1_555
C24_4 C4_4 1_555 1_555
H9_4 C24_4 1_555 1_555
C25_4 C14_4 1_555 1_555
H10_4 C25_4 1_555 1_555
C26_4 C2_4 1_555 1_555
H11_4 C26_4 1_555 1_555
C27_4 C13_4 1_555 1_555
H12_4 C27_4 1_555 1_555
C28_4 O6_4 1_555 1_555
H13_4 C28_4 1_555 1_555
H14_4 C28_4 1_555 1_555
H15_4 C28_4 1_555 1_555
C41_4 H22_4 1_555 1_555
H23_4 C45_4 1_555 1_555
C8_4 C18_4 1_555 1_555
C11_4 C15_6 1_555 1_555
C19_4 C23_4 1_555 1_555
C22_4 C27_4 1_555 1_555
C24_4 C25_4 1_555 1_555
C41_4 C45_4 1_555 1_555
O3_4 In3 1_555 1_555

#END
