
###############################################################################
#
# This file contains modified crystal structure data generated from the
# MOF subset of the Cambridge Structural Database (CSD) v543 
# hosted by the Cambridge Crystallographic Data Centre (CCDC).
#
# This work is licensed under the Creative Commons
# Attribution-NonCommercial-ShareAlike 4.0 International License.
# To view a copy of this license, visit
# http://creativecommons.org/licenses/by-nc-sa/4.0/
# or send a letter to
# Creative Commons, PO Box 1866, Mountain View, CA 94042, USA.
#
# CIF created using the CSD Python API on 29 September 2022
# The structure has been converted into the P1 space group
# The structure has a 3D framework
# The original CSD entry OPUMUK is in the orthorhombic crystal system
# The framework has been calculated to contain at least 10.0% void space
# The void calculation uses a probe of radius 1.32A, grid spacing 0.4
# The framework is charged, counterions have been retained in the structure
#
###############################################################################

data_OPUMUK
_chemical_formula_moiety         '(C96 H60 In2 O20 1-)n'
_symmetry_cell_setting           triclinic
_symmetry_space_group_name_H-M   'P 1'
_symmetry_Int_Tables_number      1
_space_group_name_Hall           'P 1'
loop_
_symmetry_equiv_pos_site_id
_symmetry_equiv_pos_as_xyz
1 x,y,z
_cell_length_a                   19.505(4)
_cell_length_b                   9.945(2)
_cell_length_c                   13.327(3)
_cell_angle_alpha                90
_cell_angle_beta                 90
_cell_angle_gamma                90
_cell_volume                     2585.13
loop_
_atom_site_label
_atom_site_type_symbol
_atom_site_fract_x
_atom_site_fract_y
_atom_site_fract_z
In4 In -0.000000 0.500000 0.96185(2)
O14 O 0.3990(4) 0.0503(9) 0.0324(6)
O15 O 0.5495(3) 0.1207(9) 0.0939(6)
O6 O 0.2210(2) 0.0631(5) 0.4608(5)
O7 O 0.0033(3) 0.2928(7) 0.8916(5)
O8 O 0.0728(4) 0.4558(9) 0.8218(6)
C25 C 0.1086(4) 0.0480(9) 0.6020(8)
C29 C 0.0494(5) 0.3323(11) 0.8253(8)
C31 C 0.0751(4) 0.2342(8) 0.7521(7)
C34 C 0.0896(5) 0.0027(6) 0.6930(8)
C35 C 0.0697(6) 0.0941(9) 0.7675(9)
H18 H 0.052300 0.061285 0.829456
C37 C 0.1140(4) 0.1847(8) 0.5863(7)
H20 H 0.128595 0.216407 0.522514
C40 C 0.0991(4) 0.2748(7) 0.6589(7)
H22 H 0.105185 0.367916 0.645888
C44 C 0.2736(5) 0.0380(14) 0.5317(10)
H25 H 0.314509 0.089737 0.513639
H26 H 0.257904 0.065050 0.598590
C47 C 0.2871(6) 0.0204(18) 0.1586(15)
H29 H 0.283329 0.089657 0.109795
H30 H 0.194885 0.053794 0.226960
C2 C 0.8254(3) 0.0412(7) 0.4575(7)
C3 C 0.8785(3) 0.0541(6) 0.5236(6)
C4 C 0.9241(3) 0.1655(7) 0.5108(7)
H1 H 0.962166 0.173840 0.554827
C6 C 0.8171(4) 0.1309(8) 0.3743(6)
C8 C 0.7653(4) 0.1068(9) 0.3003(6)
C9 C 0.9151(3) 0.2594(6) 0.4387(6)
H2 H 0.910400 0.091047 0.706635
C12 C 0.8640(4) 0.2396(8) 0.3640(6)
H4 H 0.861177 0.298240 0.307910
C14 C 0.9809(5) 0.4402(9) 0.3444(8)
H6 H 0.968430 0.398429 0.282919
C15 C 0.9612(3) 0.3830(6) 0.4363(6)
C17 C 0.6554(4) 0.0601(11) 0.1635(8)
C18 C 0.5988(5) 0.0422(12) 0.0896(9)
C19 C 0.9800(5) 0.4421(9) 0.5233(8)
H8 H 0.965774 0.404061 0.585309
H9 H 0.715380 0.058107 0.531924
C21 C 0.6483(6) 0.1627(15) 0.2340(11)
H12 H 0.608501 0.217549 0.237420
C22 C 0.7054(5) 0.1802(15) 0.3015(11)
H13 H 0.701323 0.248250 0.351206
C24 C 0.7662(6) 0.0037(11) 0.2287(14)
In1 In 0.500000 -0.000000 0.96185(2)
O11 O 0.5033(3) 0.2072(7) 0.8916(5)
O12 O 0.5728(4) 0.0442(9) 0.8218(6)
O6_2 O 0.7210(2) 0.4369(5) 0.4608(5)
C25_2 C 0.6086(4) 0.4520(9) 0.6020(8)
C26 C 0.6746(3) 0.5412(7) 0.4575(7)
O9 O 0.8990(4) 0.4497(9) 0.0324(6)
C27 C 0.6215(3) 0.5541(6) 0.5236(6)
C28 C 0.5759(3) 0.6655(7) 0.5108(7)
H16 H 0.537834 0.673840 0.554827
C29_2 C 0.5494(5) 0.1677(11) 0.8253(8)
C30 C 0.6829(4) 0.6309(8) 0.3743(6)
C31_2 C 0.5751(4) 0.2658(8) 0.7521(7)
O10 O 0.9505(3) 0.6207(9) 0.0939(6)
C32 C 0.7347(4) 0.6068(9) 0.3003(6)
C33 C 0.5849(3) 0.7594(6) 0.4387(6)
C34_2 C 0.5896(5) 0.4973(6) 0.6930(8)
H17 H 0.589600 0.591047 0.706635
C35_2 C 0.5697(6) 0.4059(9) 0.7675(9)
H18_2 H 0.552300 0.438715 0.829456
C36 C 0.6360(4) 0.7396(8) 0.3640(6)
H19 H 0.638823 0.798240 0.307910
C37_2 C 0.6140(4) 0.3153(8) 0.5863(7)
H20_2 H 0.628595 0.283593 0.522514
C38 C 0.5191(5) 0.9402(9) 0.3444(8)
H21 H 0.531570 0.898429 0.282919
C39 C 0.5388(3) 0.8830(6) 0.4363(6)
C40_2 C 0.5991(4) 0.2252(7) 0.6589(7)
H22_2 H 0.605185 0.132084 0.645888
C41 C 0.8446(4) 0.5601(11) 0.1635(8)
C42 C 0.9012(5) 0.5422(12) 0.0896(9)
C43 C 0.5200(5) 0.9421(9) 0.5233(8)
H23 H 0.534226 0.904061 0.585309
C44_2 C 0.7736(5) 0.4620(14) 0.5317(10)
H24 H 0.784620 0.558107 0.531924
H25_2 H 0.814509 0.410263 0.513639
H26_2 H 0.757904 0.434950 0.598590
C45 C 0.8517(6) 0.6627(15) 0.2340(11)
H27 H 0.891499 0.717549 0.237420
C46 C 0.7946(5) 0.6802(15) 0.3015(11)
H28 H 0.798677 0.748250 0.351206
C47_2 C 0.7871(6) 0.4796(18) 0.1586(15)
H29_2 H 0.783329 0.410343 0.109795
C48 C 0.7338(6) 0.5037(11) 0.2287(14)
H30_2 H 0.694885 0.446206 0.226960
O13 O 0.6010(4) 0.9497(9) 0.0324(6)
O16 O 0.4505(3) 0.8793(9) 0.0939(6)
In4_2 In 1.000000 0.500000 0.96185(2)
C26_2 C 0.1746(3) 0.9588(7) 0.4575(7)
C27_2 C 0.1215(3) 0.9459(6) 0.5236(6)
C28_2 C 0.0759(3) 0.8345(7) 0.5108(7)
H16_2 H 0.037834 0.826160 0.554827
C30_2 C 0.1829(4) 0.8691(8) 0.3743(6)
C32_2 C 0.2347(4) 0.8932(9) 0.3003(6)
C33_2 C 0.0849(3) 0.7406(6) 0.4387(6)
H17_2 H 0.089600 0.908953 0.706635
C36_2 C 0.1360(4) 0.7604(8) 0.3640(6)
H19_2 H 0.138823 0.701760 0.307910
C38_2 C 0.0191(5) 0.5598(9) 0.3444(8)
H21_2 H 0.031570 0.601571 0.282919
C39_2 C 0.0388(3) 0.6170(6) 0.4363(6)
C41_2 C 0.3446(4) 0.9399(11) 0.1635(8)
C42_2 C 0.4012(5) 0.9578(12) 0.0896(9)
C43_2 C 0.0200(5) 0.5579(9) 0.5233(8)
H23_2 H 0.034226 0.595939 0.585309
H24_2 H 0.284620 0.941893 0.531924
C45_2 C 0.3517(6) 0.8373(15) 0.2340(11)
H27_2 H 0.391499 0.782451 0.237420
C46_2 C 0.2946(5) 0.8198(15) 0.3015(11)
H28_2 H 0.298677 0.751750 0.351206
C48_2 C 0.2338(6) 0.9963(11) 0.2287(14)
O1 O 0.7790(2) 0.9369(5) 0.4608(5)
O2 O 0.9967(3) 0.7072(7) 0.8916(5)
O3 O 0.9272(4) 0.5442(9) 0.8218(6)
C1 C 0.8914(4) 0.9520(9) 0.6020(8)
C5 C 0.9506(5) 0.6677(11) 0.8253(8)
C7 C 0.9249(4) 0.7658(8) 0.7521(7)
C10 C 0.9104(5) 0.9973(6) 0.6930(8)
C11 C 0.9303(6) 0.9059(9) 0.7675(9)
H3 H 0.947700 0.938715 0.829456
C13 C 0.8860(4) 0.8153(8) 0.5863(7)
H5 H 0.871405 0.783593 0.522514
C16 C 0.9009(4) 0.7252(7) 0.6589(7)
H7 H 0.894815 0.632084 0.645888
C20 C 0.7264(5) 0.9620(14) 0.5317(10)
H10 H 0.685491 0.910263 0.513639
H11 H 0.742096 0.934950 0.598590
C23 C 0.7129(6) 0.9796(18) 0.1586(15)
H14 H 0.716671 0.910343 0.109795
H15 H 0.805115 0.946206 0.226960
In1_2 In 0.500000 1.000000 0.96185(2)
O1_2 O 0.2790(2) 0.5631(5) 0.4608(5)
O2_2 O 0.4967(3) 0.7928(7) 0.8916(5)
O3_2 O 0.4272(4) 0.9558(9) 0.8218(6)
C1_2 C 0.3914(4) 0.5480(9) 0.6020(8)
C2_2 C 0.3254(3) 0.4588(7) 0.4575(7)
O4 O 0.1010(4) 0.5503(9) 0.0324(6)
C3_2 C 0.3785(3) 0.4459(6) 0.5236(6)
C4_2 C 0.4241(3) 0.3345(7) 0.5108(7)
H1_2 H 0.462166 0.326160 0.554827
C5_2 C 0.4506(5) 0.8323(11) 0.8253(8)
C6_2 C 0.3171(4) 0.3691(8) 0.3743(6)
C7_2 C 0.4249(4) 0.7342(8) 0.7521(7)
O5 O 0.0495(3) 0.3793(9) 0.0939(6)
C8_2 C 0.2653(4) 0.3932(9) 0.3003(6)
C9_2 C 0.4151(3) 0.2406(6) 0.4387(6)
C10_2 C 0.4104(5) 0.5027(6) 0.6930(8)
H2_2 H 0.410400 0.408953 0.706635
C11_2 C 0.4303(6) 0.5941(9) 0.7675(9)
H3_2 H 0.447700 0.561285 0.829456
C12_2 C 0.3640(4) 0.2604(8) 0.3640(6)
H4_2 H 0.361177 0.201760 0.307910
C13_2 C 0.3860(4) 0.6847(8) 0.5863(7)
H5_2 H 0.371405 0.716407 0.522514
C14_2 C 0.4809(5) 0.0598(9) 0.3444(8)
H6_2 H 0.468430 0.101571 0.282919
C15_2 C 0.4612(3) 0.1170(6) 0.4363(6)
C16_2 C 0.4009(4) 0.7748(7) 0.6589(7)
H7_2 H 0.394815 0.867916 0.645888
C17_2 C 0.1554(4) 0.4399(11) 0.1635(8)
C18_2 C 0.0988(5) 0.4578(12) 0.0896(9)
C19_2 C 0.4800(5) 0.0579(9) 0.5233(8)
H8_2 H 0.465774 0.095939 0.585309
C20_2 C 0.2264(5) 0.5380(14) 0.5317(10)
H9_2 H 0.215380 0.441893 0.531924
H10_2 H 0.185491 0.589737 0.513639
H11_2 H 0.242096 0.565050 0.598590
C21_2 C 0.1483(6) 0.3373(15) 0.2340(11)
H12_2 H 0.108501 0.282451 0.237420
C22_2 C 0.2054(5) 0.3198(15) 0.3015(11)
H13_2 H 0.201323 0.251750 0.351206
C23_2 C 0.2129(6) 0.5204(18) 0.1586(15)
H14_2 H 0.216671 0.589657 0.109795
C24_2 C 0.2662(6) 0.4963(11) 0.2287(14)
H15_2 H 0.305115 0.553794 0.226960
loop_
_geom_bond_atom_site_label_1
_geom_bond_atom_site_label_2
_geom_bond_site_symmetry_1
_geom_bond_site_symmetry_2
O7 C29 1_555 1_555
O8 C29 1_555 1_555
C29 C31 1_555 1_555
C31 C35 1_555 1_555
C34 C25 1_555 1_555
C35 C34 1_555 1_555
H18 C35 1_555 1_555
C37 C25 1_555 1_555
H20 C37 1_555 1_555
C40 C31 1_555 1_555
H22 C40 1_555 1_555
C44 O6 1_555 1_555
H25 C44 1_555 1_555
H26 C44 1_555 1_555
H29 C47 1_555 1_555
In4 O7 1_555 1_555
O8 In4 1_555 1_555
C37 C40 1_555 1_555
C2 C3 1_555 1_555
C3 C4 1_555 1_555
C4 H1 1_555 1_555
C6 C2 1_555 1_555
O15 C18 1_555 1_555
C8 C6 1_555 1_555
C9 C4 1_555 1_555
C12 C6 1_555 1_555
H4 C12 1_555 1_555
C14 H6 1_555 1_555
C15 C9 1_555 1_555
C17 C18 1_555 1_555
C19 C15 1_555 1_555
H8 C19 1_555 1_555
C21 C17 1_555 1_555
H12 C21 1_555 1_555
C22 C8 1_555 1_555
H13 C22 1_555 1_555
C24 C8 1_555 1_555
C9 C12 1_555 1_555
C14 C15 1_555 1_555
C21 C22 1_555 1_555
O11 In1 1_555 1_555
O12 In1 1_555 1_555
O6_2 C26 1_555 1_555
O11 C29_2 1_555 1_555
O12 C29_2 1_555 1_555
C25_2 C27 1_555 1_555
C26 C27 1_555 1_555
O9 C42 1_555 1_555
C27 C28 1_555 1_555
C28 H16 1_555 1_555
C29_2 C31_2 1_555 1_555
C30 C26 1_555 1_555
C31_2 C35_2 1_555 1_555
O10 C42 1_555 1_555
C32 C30 1_555 1_555
C33 C28 1_555 1_555
C34_2 C25_2 1_555 1_555
H17 C34_2 1_555 1_555
C35_2 C34_2 1_555 1_555
H18_2 C35_2 1_555 1_555
C36 C30 1_555 1_555
H19 C36 1_555 1_555
C37_2 C25_2 1_555 1_555
H20_2 C37_2 1_555 1_555
H21 C38 1_555 1_555
C39 C33 1_555 1_555
C40_2 C31_2 1_555 1_555
H22_2 C40_2 1_555 1_555
C41 C42 1_555 1_555
H23 C43 1_555 1_555
C44_2 O6_2 1_555 1_555
H24 C44_2 1_555 1_555
H25_2 C44_2 1_555 1_555
H26_2 C44_2 1_555 1_555
C45 C41 1_555 1_555
H27 C45 1_555 1_555
C46 C32 1_555 1_555
H28 C46 1_555 1_555
C47_2 C41 1_555 1_555
H29_2 C47_2 1_555 1_555
C48 C32 1_555 1_555
H30_2 C48 1_555 1_555
C33 C36 1_555 1_555
C37_2 C40_2 1_555 1_555
C38 C39 1_555 1_555
C39 C43 1_555 1_555
C45 C46 1_555 1_555
C47_2 C48 1_555 1_555
C26_2 C27_2 1_555 1_555
C27_2 C28_2 1_555 1_555
C28_2 H16_2 1_555 1_555
C30_2 C26_2 1_555 1_555
O16 C42_2 1_555 1_555
C32_2 C30_2 1_555 1_555
C33_2 C28_2 1_555 1_555
C36_2 C30_2 1_555 1_555
H19_2 C36_2 1_555 1_555
H21_2 C38_2 1_555 1_555
C39_2 C33_2 1_555 1_555
C41_2 C42_2 1_555 1_555
H23_2 C43_2 1_555 1_555
C45_2 C41_2 1_555 1_555
H27_2 C45_2 1_555 1_555
C46_2 C32_2 1_555 1_555
H28_2 C46_2 1_555 1_555
C48_2 C32_2 1_555 1_555
C33_2 C36_2 1_555 1_555
C38_2 C39_2 1_555 1_555
C39_2 C43_2 1_555 1_555
C45_2 C46_2 1_555 1_555
In4_2 O2 1_555 1_555
O2 C5 1_555 1_555
O3 In4_2 1_555 1_555
C5 O3 1_555 1_555
C7 C5 1_555 1_555
C10 C1 1_555 1_555
C11 C7 1_555 1_555
H3 C11 1_555 1_555
C13 C1 1_555 1_555
H5 C13 1_555 1_555
C16 C7 1_555 1_555
H7 C16 1_555 1_555
C20 O1 1_555 1_555
H10 C20 1_555 1_555
H11 C20 1_555 1_555
H14 C23 1_555 1_555
C10 C11 1_555 1_555
C13 C16 1_555 1_555
In1_2 O2_2 1_555 1_555
O1_2 C2_2 1_555 1_555
O2_2 C5_2 1_555 1_555
O3_2 In1_2 1_555 1_555
C1_2 C3_2 1_555 1_555
C2_2 C3_2 1_555 1_555
O4 C18_2 1_555 1_555
C3_2 C4_2 1_555 1_555
C4_2 H1_2 1_555 1_555
C5_2 O3_2 1_555 1_555
C6_2 C2_2 1_555 1_555
C7_2 C5_2 1_555 1_555
O5 C18_2 1_555 1_555
C8_2 C6_2 1_555 1_555
C9_2 C4_2 1_555 1_555
C10_2 C1_2 1_555 1_555
H2_2 C10_2 1_555 1_555
C11_2 C7_2 1_555 1_555
H3_2 C11_2 1_555 1_555
C12_2 C6_2 1_555 1_555
H4_2 C12_2 1_555 1_555
C13_2 C1_2 1_555 1_555
H5_2 C13_2 1_555 1_555
C14_2 H6_2 1_555 1_555
C15_2 C9_2 1_555 1_555
C16_2 C7_2 1_555 1_555
H7_2 C16_2 1_555 1_555
C17_2 C18_2 1_555 1_555
C19_2 C15_2 1_555 1_555
H8_2 C19_2 1_555 1_555
C20_2 O1_2 1_555 1_555
H9_2 C20_2 1_555 1_555
H10_2 C20_2 1_555 1_555
H11_2 C20_2 1_555 1_555
C21_2 C17_2 1_555 1_555
H12_2 C21_2 1_555 1_555
C22_2 C8_2 1_555 1_555
H13_2 C22_2 1_555 1_555
C23_2 C17_2 1_555 1_555
H14_2 C23_2 1_555 1_555
C24_2 C8_2 1_555 1_555
H15_2 C24_2 1_555 1_555
C9_2 C12_2 1_555 1_555
C10_2 C11_2 1_555 1_555
C13_2 C16_2 1_555 1_555
C14_2 C15_2 1_555 1_555
C21_2 C22_2 1_555 1_555
C23_2 C24_2 1_555 1_555

#END
