
###############################################################################
#
# This file contains modified crystal structure data generated from the
# MOF subset of the Cambridge Structural Database (CSD) v543 
# hosted by the Cambridge Crystallographic Data Centre (CCDC).
#
# This work is licensed under the Creative Commons
# Attribution-NonCommercial-ShareAlike 4.0 International License.
# To view a copy of this license, visit
# http://creativecommons.org/licenses/by-nc-sa/4.0/
# or send a letter to
# Creative Commons, PO Box 1866, Mountain View, CA 94042, USA.
#
# CIF created using the CSD Python API on 29 September 2022
# The structure has been converted into the P1 space group
# The structure has a 3D framework
# The original CSD entry OPUMEU is in the orthorhombic crystal system
# The framework has been calculated to contain at least 10.0% void space
# The void calculation uses a probe of radius 1.32A, grid spacing 0.4
# The framework is charged, counterions have been retained in the structure
# H atom positions have been added when not included in the experimental data
#
###############################################################################

data_OPUMEU
_chemical_formula_moiety         '(C100 H84 In2 O22 3-)n'
_symmetry_cell_setting           triclinic
_symmetry_space_group_name_H-M   'P 1'
_symmetry_Int_Tables_number      1
_space_group_name_Hall           'P 1'
loop_
_symmetry_equiv_pos_site_id
_symmetry_equiv_pos_as_xyz
1 x,y,z
_cell_length_a                   20.0255(9)
_cell_length_b                   23.1603(11)
_cell_length_c                   6.9863(3)
_cell_angle_alpha                90
_cell_angle_beta                 90
_cell_angle_gamma                90
_cell_volume                     3240.22
loop_
_atom_site_label
_atom_site_type_symbol
_atom_site_fract_x
_atom_site_fract_y
_atom_site_fract_z
O14 O 0.0433(3) 0.0581(2) 0.0122(9)
O3 O 0.0599(3) 0.8261(2) 0.1336(10)
C1 C 0.0095(4) 0.9121(4) 0.0293(16)
C2 C 0.0025(3) 0.8627(4) 0.1650(17)
H1 H 0.001589 0.876764 0.298840
C3 C 0.0600(4) 0.7763(3) 0.2363(11)
C4 C 0.0190(5) 0.7650(4) 0.3902(14)
C5 C 0.0207(5) 0.7103(3) 0.4767(14)
C6 C 0.0697(3) 0.6724(2) 0.4274(10)
C7 C 0.1157(4) 0.6876(3) 0.2979(15)
H5 H 0.152195 0.662422 0.273773
C8 C 0.1113(5) 0.7383(3) 0.1996(14)
H6 H 0.143818 0.747462 0.105351
C9 C 0.0733(3) 0.6140(2) 0.5358(9)
C10 C 0.0268(3) 0.5721(2) 0.5073(8)
C11 C 0.0280(3) 0.5208(3) 0.6143(8)
C12 C 0.0805(3) 0.5114(2) 0.7434(8)
C14 C 0.0832(3) 0.4550(3) 0.8462(8)
H10 H 0.128437 0.448719 0.895453
H11 H 0.071489 0.423799 0.757609
H12 H 0.051476 0.455455 0.952977
C15 C 0.1241(3) 0.6078(2) 0.6757(8)
C16 C 0.1729(3) 0.6564(3) 0.7203(11)
H13 H 0.190634 0.651330 0.850024
H14 H 0.149837 0.693578 0.711531
H15 H 0.209804 0.655471 0.628070
C17 C 0.1272(2) 0.5553(2) 0.7741(9)
C18 C 0.1775(3) 0.5462(3) 0.9298(9)
C19 C 0.2480(3) 0.5405(4) 0.8912(10)
H16 H 0.263921 0.541704 0.763206
H21 H 0.039317 0.158746 0.139408
H22 H 0.010212 0.205966 0.437458
H23 H 0.012013 0.300220 0.568831
C38 C 0.0313(4) 0.4185(3) 0.3643(10)
H26 H 0.061957 0.389289 0.415350
H27 H 0.055384 0.454891 0.345913
H28 H 0.013374 0.405285 0.241374
In1 In 0.000000 0.000000 0.7892(2)
O15 O 0.1015(4) 0.0095(4) 0.6452(11)
O17 O 0.0196(4) 0.0648(5) 0.5608(10)
In1_2 In 0.000000 1.000000 0.7892(2)
O1 O 0.0564(3) 0.9248(2) 0.9461(9)
In1_3 In 1.000000 0.000000 0.7892(2)
O13 O 0.9436(3) 0.0752(2) 0.9461(9)
In1_4 In 1.000000 1.000000 0.7892(2)
O16 O 0.8985(4) 0.9905(4) 0.6452(11)
O18 O 0.9804(4) 0.9352(5) 0.5608(10)
O4 O 0.1881(3) 0.0246(5) 0.3821(10)
C20 C 0.2103(3) 0.0336(4) 0.0331(10)
H17 H 0.163727 0.032900 0.007409
C21 C 0.2329(5) 0.0270(8) 0.2262(13)
C22 C 0.2985(3) 0.0363(4) 0.2700(10)
H18 H 0.313345 0.036084 0.399110
C23 C 0.3438(3) 0.0464(4) 0.1182(10)
H19 H 0.389526 0.053405 0.146065
C24 C 0.0791(4) 0.0439(6) 0.5428(14)
C25 C 0.1229(5) 0.0567(7) 0.3547(13)
H39 H 0.132104 0.102846 0.340607
H40 H 0.0971793 0.0410321 0.227562
O10 O 0.8119(3) 0.9754(5) 0.3821(10)
C45 C 0.7897(3) 0.9664(4) 0.0331(10)
H36 H 0.836273 0.967100 0.007409
C46 C 0.7671(5) 0.9730(8) 0.2262(13)
C47 C 0.7015(3) 0.9637(4) 0.2700(10)
H37 H 0.686655 0.963916 0.399110
C48 C 0.6562(3) 0.9536(4) 0.1182(10)
H38 H 0.610474 0.946595 0.146065
C49 C 0.9209(4) 0.9561(6) 0.5428(14)
C50 C 0.8771(5) 0.9433(7) 0.3547(13)
H41 H 0.867896 0.897154 0.340607
H42 H 0.902821 0.958968 0.227562
O4_2 O 0.3119(3) 0.5246(5) 0.3821(10)
C20_2 C 0.2897(3) 0.5336(4) 0.0331(10)
H17_2 H 0.336273 0.532900 0.007409
C21_2 C 0.2671(5) 0.5270(8) 0.2262(13)
C22_2 C 0.2015(3) 0.5363(4) 0.2700(10)
H18_2 H 0.186655 0.536084 0.399110
C23_2 C 0.1562(3) 0.5464(4) 0.1182(10)
H19_2 H 0.110474 0.553405 0.146065
O5 O 0.3985(4) 0.5095(4) 0.6452(11)
C24_2 C 0.4209(4) 0.5439(6) 0.5428(14)
O6 O 0.4804(4) 0.5648(5) 0.5608(10)
C25_2 C 0.3771(5) 0.5567(7) 0.3547(13)
In4 In 0.500000 0.500000 0.7892(2)
H39_2 H 0.367896 0.602846 0.340607
H40_2 H 0.402821 0.541032 0.227562
O10_2 O 0.6881(3) 0.4754(5) 0.3821(10)
C45_2 C 0.7103(3) 0.4664(4) 0.0331(10)
H36_2 H 0.663727 0.467100 0.007409
C46_2 C 0.7329(5) 0.4730(8) 0.2262(13)
C47_2 C 0.7985(3) 0.4637(4) 0.2700(10)
H37_2 H 0.813345 0.463916 0.399110
C48_2 C 0.8438(3) 0.4536(4) 0.1182(10)
H38_2 H 0.889526 0.446595 0.146065
O11 O 0.6015(4) 0.4905(4) 0.6452(11)
C49_2 C 0.5791(4) 0.4561(6) 0.5428(14)
O12 O 0.5196(4) 0.4352(5) 0.5608(10)
C50_2 C 0.6229(5) 0.4433(7) 0.3547(13)
H41_2 H 0.632104 0.397154 0.340607
H42_2 H 0.597179 0.458968 0.227562
O1_2 O 0.4436(3) 0.4248(2) 0.9461(9)
O13_2 O 0.5564(3) 0.5752(2) 0.9461(9)
O2 O 0.9567(3) 0.9419(2) 0.0122(9)
H2 H 0.960683 0.841254 0.139408
H3 H 0.989788 0.794034 0.437458
H4 H 0.987987 0.699780 0.568831
C13 C 0.9687(4) 0.5815(3) 0.3643(10)
H7 H 0.938043 0.610711 0.415350
H8 H 0.944616 0.545109 0.345913
H9 H 0.986626 0.594715 0.241374
O9 O 0.9401(3) 0.1739(2) 0.1336(10)
C26 C 0.9905(4) 0.0879(4) 0.0293(16)
C27 C 0.9975(3) 0.1373(4) 0.1650(17)
H20 H 0.998411 0.123236 0.298840
C28 C 0.9400(4) 0.2237(3) 0.2363(11)
C29 C 0.9810(5) 0.2350(4) 0.3902(14)
C30 C 0.9793(5) 0.2897(3) 0.4767(14)
C31 C 0.9303(3) 0.3276(2) 0.4274(10)
C32 C 0.8843(4) 0.3124(3) 0.2979(15)
H24 H 0.847805 0.337578 0.273773
C33 C 0.8887(5) 0.2617(3) 0.1996(14)
H25 H 0.856182 0.252538 0.105351
C34 C 0.9267(3) 0.3860(2) 0.5358(9)
C35 C 0.9732(3) 0.4279(2) 0.5073(8)
C36 C 0.9720(3) 0.4792(3) 0.6143(8)
C37 C 0.9195(3) 0.4886(2) 0.7434(8)
C39 C 0.9168(3) 0.5450(3) 0.8462(8)
H29 H 0.871563 0.551281 0.895453
H30 H 0.928511 0.576201 0.757609
H31 H 0.948524 0.544545 0.952977
C40 C 0.8759(3) 0.3922(2) 0.6757(8)
C41 C 0.8271(3) 0.3436(3) 0.7203(11)
H32 H 0.809366 0.348670 0.850024
H33 H 0.850163 0.306422 0.711531
H34 H 0.790196 0.344529 0.628070
C42 C 0.8728(2) 0.4447(2) 0.7741(9)
C43 C 0.8225(3) 0.4538(3) 0.9298(9)
C44 C 0.7520(3) 0.4595(4) 0.8912(10)
H35 H 0.736079 0.458296 0.763206
O2_2 O 0.5433(3) 0.4419(2) 0.0122(9)
O3_2 O 0.4401(3) 0.3261(2) 0.1336(10)
C1_2 C 0.4905(4) 0.4121(4) 0.0293(16)
C2_2 C 0.4975(3) 0.3627(4) 0.1650(17)
H1_2 H 0.498411 0.376764 0.298840
H2_2 H 0.539317 0.341254 0.139408
C3_2 C 0.4400(4) 0.2763(3) 0.2363(11)
C4_2 C 0.4810(5) 0.2650(4) 0.3902(14)
H3_2 H 0.510212 0.294034 0.437458
C5_2 C 0.4793(5) 0.2103(3) 0.4767(14)
H4_2 H 0.512013 0.199780 0.568831
C6_2 C 0.4303(3) 0.1724(2) 0.4274(10)
C7_2 C 0.3843(4) 0.1876(3) 0.2979(15)
H5_2 H 0.347805 0.162422 0.273773
C8_2 C 0.3887(5) 0.2383(3) 0.1996(14)
H6_2 H 0.356182 0.247462 0.105351
C9_2 C 0.4267(3) 0.1140(2) 0.5358(9)
C10_2 C 0.4732(3) 0.0721(2) 0.5073(8)
C11_2 C 0.4720(3) 0.0208(3) 0.6143(8)
C12_2 C 0.4195(3) 0.0114(2) 0.7434(8)
C13_2 C 0.5313(4) 0.0815(3) 0.3643(10)
H7_2 H 0.561957 0.110711 0.415350
H8_2 H 0.555384 0.045109 0.345913
H9_2 H 0.513374 0.094715 0.241374
C15_2 C 0.3759(3) 0.1078(2) 0.6757(8)
C16_2 C 0.3271(3) 0.1564(3) 0.7203(11)
H13_2 H 0.309366 0.151330 0.850024
H14_2 H 0.350163 0.193578 0.711531
H15_2 H 0.290196 0.155471 0.628070
C17_2 C 0.3728(2) 0.0553(2) 0.7741(9)
C18_2 C 0.3225(3) 0.0462(3) 0.9298(9)
C19_2 C 0.2520(3) 0.0405(4) 0.8912(10)
H16_2 H 0.236079 0.041704 0.763206
C39_2 C 0.5832(3) 0.0450(3) 0.8462(8)
H29_2 H 0.628437 0.051281 0.895453
H30_2 H 0.571489 0.076201 0.757609
H31_2 H 0.551476 0.044545 0.952977
O14_2 O 0.4567(3) 0.5581(2) 0.0122(9)
C14_2 C 0.4168(3) 0.9550(3) 0.8462(8)
H10_2 H 0.371563 0.948719 0.895453
H11_2 H 0.428511 0.923799 0.757609
H12_2 H 0.448524 0.955455 0.952977
O9_2 O 0.5599(3) 0.6739(2) 0.1336(10)
C26_2 C 0.5095(4) 0.5879(4) 0.0293(16)
C27_2 C 0.5025(3) 0.6373(4) 0.1650(17)
H20_2 H 0.501589 0.623236 0.298840
H21_2 H 0.460683 0.658746 0.139408
C28_2 C 0.5600(4) 0.7237(3) 0.2363(11)
C29_2 C 0.5190(5) 0.7350(4) 0.3902(14)
H22_2 H 0.489788 0.705966 0.437458
C30_2 C 0.5207(5) 0.7897(3) 0.4767(14)
H23_2 H 0.487987 0.800220 0.568831
C31_2 C 0.5697(3) 0.8276(2) 0.4274(10)
C32_2 C 0.6157(4) 0.8124(3) 0.2979(15)
H24_2 H 0.652195 0.837578 0.273773
C33_2 C 0.6113(5) 0.7617(3) 0.1996(14)
H25_2 H 0.643818 0.752538 0.105351
C34_2 C 0.5733(3) 0.8860(2) 0.5358(9)
C35_2 C 0.5268(3) 0.9279(2) 0.5073(8)
C36_2 C 0.5280(3) 0.9792(3) 0.6143(8)
C37_2 C 0.5805(3) 0.9886(2) 0.7434(8)
C38_2 C 0.4687(4) 0.9185(3) 0.3643(10)
H26_2 H 0.438043 0.889289 0.415350
H27_2 H 0.444616 0.954891 0.345913
H28_2 H 0.486626 0.905285 0.241374
C40_2 C 0.6241(3) 0.8922(2) 0.6757(8)
C41_2 C 0.6729(3) 0.8436(3) 0.7203(11)
H32_2 H 0.690634 0.848670 0.850024
H33_2 H 0.649837 0.806422 0.711531
H34_2 H 0.709804 0.844529 0.628070
C42_2 C 0.6272(2) 0.9447(2) 0.7741(9)
C43_2 C 0.6775(3) 0.9538(3) 0.9298(9)
C44_2 C 0.7480(3) 0.9595(4) 0.8912(10)
H35_2 H 0.763921 0.958296 0.763206
loop_
_geom_bond_atom_site_label_1
_geom_bond_atom_site_label_2
_geom_bond_site_symmetry_1
_geom_bond_site_symmetry_2
O3 C2 1_555 1_555
C2 C1 1_555 1_555
H1 C2 1_555 1_555
C3 O3 1_555 1_555
C4 C3 1_555 1_555
C5 C4 1_555 1_555
C6 C5 1_555 1_555
C7 C6 1_555 1_555
H5 C7 1_555 1_555
C8 C3 1_555 1_555
H6 C8 1_555 1_555
C9 C6 1_555 1_555
C10 C9 1_555 1_555
C11 C10 1_555 1_555
C12 C11 1_555 1_555
C14 C12 1_555 1_555
H10 C14 1_555 1_555
H11 C14 1_555 1_555
H12 C14 1_555 1_555
C15 C9 1_555 1_555
C16 C15 1_555 1_555
H13 C16 1_555 1_555
H14 C16 1_555 1_555
H15 C16 1_555 1_555
C17 C12 1_555 1_555
C18 C17 1_555 1_555
C19 C18 1_555 1_555
H16 C19 1_555 1_555
H26 C38 1_555 1_555
H27 C38 1_555 1_555
H28 C38 1_555 1_555
C7 C8 1_555 1_555
C15 C17 1_555 1_555
O15 In1 1_555 1_555
O17 In1 1_555 1_555
In1_2 O1 1_555 1_555
O13 In1_3 1_555 1_555
O16 In1_4 1_555 1_555
O18 In1_4 1_555 1_555
O4 C21 1_555 1_555
H17 C20 1_555 1_555
C21 C20 1_555 1_555
C22 C21 1_555 1_555
H18 C22 1_555 1_555
H19 C23 1_555 1_555
O15 C24 1_555 1_555
C24 O17 1_555 1_555
C25 O4 1_555 1_555
C22 C23 1_555 1_555
C24 C25 1_555 1_555
C25 H39 1_555 1_555
C25 H40 1_555 1_555
O10 C46 1_555 1_555
H36 C45 1_555 1_555
C46 C45 1_555 1_555
C47 C46 1_555 1_555
H37 C47 1_555 1_555
H38 C48 1_555 1_555
O16 C49 1_555 1_555
C49 O18 1_555 1_555
C50 O10 1_555 1_555
C47 C48 1_555 1_555
C49 C50 1_555 1_555
C50 H41 1_555 1_555
C50 H42 1_555 1_555
O4_2 C21_2 1_555 1_555
H17_2 C20_2 1_555 1_555
C21_2 C20_2 1_555 1_555
C22_2 C21_2 1_555 1_555
H18_2 C22_2 1_555 1_555
H19_2 C23_2 1_555 1_555
O5 C24_2 1_555 1_555
C24_2 O6 1_555 1_555
O6 In4 1_555 1_555
C25_2 O4_2 1_555 1_555
In4 O5 1_555 1_555
C22_2 C23_2 1_555 1_555
C24_2 C25_2 1_555 1_555
C25_2 H39_2 1_555 1_555
C25_2 H40_2 1_555 1_555
O10_2 C46_2 1_555 1_555
H36_2 C45_2 1_555 1_555
C46_2 C45_2 1_555 1_555
C47_2 C46_2 1_555 1_555
H37_2 C47_2 1_555 1_555
H38_2 C48_2 1_555 1_555
O11 C49_2 1_555 1_555
C49_2 O12 1_555 1_555
O12 In4 1_555 1_555
C50_2 O10_2 1_555 1_555
In4 O11 1_555 1_555
C47_2 C48_2 1_555 1_555
C49_2 C50_2 1_555 1_555
C50_2 H41_2 1_555 1_555
C50_2 H42_2 1_555 1_555
In4 O1_2 1_555 1_555
O13_2 In4 1_555 1_555
H7 C13 1_555 1_555
H8 C13 1_555 1_555
H9 C13 1_555 1_555
O9 C27 1_555 1_555
C26 C27 1_555 1_555
C27 H20 1_555 1_555
C28 O9 1_555 1_555
C29 C28 1_555 1_555
C30 C29 1_555 1_555
C31 C30 1_555 1_555
C32 C31 1_555 1_555
H24 C32 1_555 1_555
C33 C28 1_555 1_555
H25 C33 1_555 1_555
C34 C31 1_555 1_555
C35 C34 1_555 1_555
C37 C36 1_555 1_555
C39 C37 1_555 1_555
H29 C39 1_555 1_555
H30 C39 1_555 1_555
H31 C39 1_555 1_555
C40 C34 1_555 1_555
C41 C40 1_555 1_555
H32 C41 1_555 1_555
H33 C41 1_555 1_555
H34 C41 1_555 1_555
C42 C37 1_555 1_555
C43 C42 1_555 1_555
C44 C43 1_555 1_555
H35 C44 1_555 1_555
C32 C33 1_555 1_555
C35 C36 1_555 1_555
C40 C42 1_555 1_555
O3_2 C2_2 1_555 1_555
C1_2 O2_2 1_555 1_555
C2_2 C1_2 1_555 1_555
H1_2 C2_2 1_555 1_555
H2_2 C2_2 1_555 1_555
C3_2 O3_2 1_555 1_555
C4_2 C3_2 1_555 1_555
H3_2 C4_2 1_555 1_555
C5_2 C4_2 1_555 1_555
H4_2 C5_2 1_555 1_555
C6_2 C5_2 1_555 1_555
C7_2 C6_2 1_555 1_555
H5_2 C7_2 1_555 1_555
C8_2 C3_2 1_555 1_555
H6_2 C8_2 1_555 1_555
C9_2 C6_2 1_555 1_555
C10_2 C9_2 1_555 1_555
C11_2 C10_2 1_555 1_555
C12_2 C11_2 1_555 1_555
C13_2 C10_2 1_555 1_555
H7_2 C13_2 1_555 1_555
H8_2 C13_2 1_555 1_555
H9_2 C13_2 1_555 1_555
C15_2 C9_2 1_555 1_555
C16_2 C15_2 1_555 1_555
H13_2 C16_2 1_555 1_555
H14_2 C16_2 1_555 1_555
H15_2 C16_2 1_555 1_555
C17_2 C12_2 1_555 1_555
C18_2 C17_2 1_555 1_555
C19_2 C18_2 1_555 1_555
H16_2 C19_2 1_555 1_555
H29_2 C39_2 1_555 1_555
H30_2 C39_2 1_555 1_555
H31_2 C39_2 1_555 1_555
C7_2 C8_2 1_555 1_555
C15_2 C17_2 1_555 1_555
H10_2 C14_2 1_555 1_555
H11_2 C14_2 1_555 1_555
H12_2 C14_2 1_555 1_555
O14_2 C26_2 1_555 1_555
O9_2 C27_2 1_555 1_555
C26_2 C27_2 1_555 1_555
C27_2 H20_2 1_555 1_555
H21_2 C27_2 1_555 1_555
C28_2 O9_2 1_555 1_555
C29_2 C28_2 1_555 1_555
H22_2 C29_2 1_555 1_555
C30_2 C29_2 1_555 1_555
H23_2 C30_2 1_555 1_555
C31_2 C30_2 1_555 1_555
C32_2 C31_2 1_555 1_555
H24_2 C32_2 1_555 1_555
C33_2 C28_2 1_555 1_555
H25_2 C33_2 1_555 1_555
C34_2 C31_2 1_555 1_555
C35_2 C34_2 1_555 1_555
C37_2 C36_2 1_555 1_555
C38_2 C35_2 1_555 1_555
H26_2 C38_2 1_555 1_555
H27_2 C38_2 1_555 1_555
H28_2 C38_2 1_555 1_555
C40_2 C34_2 1_555 1_555
C41_2 C40_2 1_555 1_555
H32_2 C41_2 1_555 1_555
H33_2 C41_2 1_555 1_555
H34_2 C41_2 1_555 1_555
C42_2 C37_2 1_555 1_555
C43_2 C42_2 1_555 1_555
C44_2 C43_2 1_555 1_555
H35_2 C44_2 1_555 1_555
C32_2 C33_2 1_555 1_555
C35_2 C36_2 1_555 1_555
C40_2 C42_2 1_555 1_555

#END
