
###############################################################################
#
# This file contains modified crystal structure data generated from the
# MOF subset of the Cambridge Structural Database (CSD) v543 
# hosted by the Cambridge Crystallographic Data Centre (CCDC).
#
# This work is licensed under the Creative Commons
# Attribution-NonCommercial-ShareAlike 4.0 International License.
# To view a copy of this license, visit
# http://creativecommons.org/licenses/by-nc-sa/4.0/
# or send a letter to
# Creative Commons, PO Box 1866, Mountain View, CA 94042, USA.
#
# CIF created using the CSD Python API on 29 September 2022
# The structure has been converted into the P1 space group
# The structure has a 3D framework
# The original CSD entry OPUNAR is in the monoclinic crystal system
# The framework has been calculated to contain at least 10.0% void space
# The void calculation uses a probe of radius 1.32A, grid spacing 0.4
# The framework is charged, counterions have been retained in the structure
#
###############################################################################

data_OPUNAR
_chemical_formula_moiety         '(C160 H88 In4 O36 6-)n'
_symmetry_cell_setting           triclinic
_symmetry_space_group_name_H-M   'P 1'
_symmetry_Int_Tables_number      1
_space_group_name_Hall           'P 1'
loop_
_symmetry_equiv_pos_site_id
_symmetry_equiv_pos_as_xyz
1 x,y,z
_cell_length_a                   13.2976(13)
_cell_length_b                   30.422(3)
_cell_length_c                   15.8673(15)
_cell_angle_alpha                90
_cell_angle_beta                 112.959(3)
_cell_angle_gamma                90
_cell_volume                     5910.47
loop_
_atom_site_label
_atom_site_type_symbol
_atom_site_fract_x
_atom_site_fract_y
_atom_site_fract_z
In2 In 0.000000 0.43067(2) 0.250000
O6 O 0.8457(6) 0.4665(3) 0.1813(6)
O7 O 0.4339(6) 0.8818(2) 0.1350(5)
O8 O 0.6062(6) 0.8882(2) 0.1950(4)
O9 O 0.9734(6) 0.4814(3) 0.1319(6)
C21 C 0.5256(8) 0.8699(3) 0.1414(6)
O10 O 0.6785(9) 0.6787(4) 0.0842(5)
H13 H 0.740797 0.667243 0.100643
C23 C 0.8790(10) 0.4882(4) 0.1335(9)
C24 C 0.6401(9) 0.8124(4) 0.1062(7)
H14 H 0.702156 0.824501 0.153979
C26 C 0.6548(9) 0.7763(3) 0.0631(7)
H16 H 0.725329 0.763778 0.079042
C27 C 0.5408(9) 0.8329(3) 0.0855(7)
C33 C 0.8354(9) 0.5440(3) 0.0029(9)
C34 C 0.4500(10) 0.8150(4) 0.0160(8)
C37 C 0.8104(9) 0.5255(4) 0.0775(9)
C39 C 0.6666(9) 0.5791(4) 0.0477(8)
H21 H 0.609842 0.589836 0.064272
C40 C 0.7222(9) 0.5393(4) 0.0886(8)
H22 H 0.694511 0.522234 0.124914
In2_2 In 1.000000 0.43067(2) 0.250000
In4 In 0.500000 0.93067(2) 0.250000
O1 O 0.1543(6) 0.4665(3) 0.3187(6)
O2 O 0.5661(6) 0.8818(2) 0.3650(5)
O3 O 0.3938(6) 0.8882(2) 0.3050(4)
O4 O 0.0266(6) 0.4814(3) 0.3681(6)
C1 C 0.4744(8) 0.8699(3) 0.3586(6)
C2 C 0.4776(6) 0.7171(2) 0.6517(5)
H1 H 0.515666 0.742501 0.682708
O5 O 0.3215(9) 0.6787(4) 0.4158(5)
H2 H 0.259203 0.667243 0.399357
C3 C 0.1210(10) 0.4882(4) 0.3665(9)
C4 C 0.3599(9) 0.8124(4) 0.3938(7)
H3 H 0.297844 0.824501 0.346021
C5 C 0.4178(8) 0.6394(3) 0.6567(7)
H4 H 0.416132 0.613726 0.690252
C6 C 0.3452(9) 0.7763(3) 0.4369(7)
H5 H 0.274671 0.763778 0.420958
C7 C 0.4592(9) 0.8329(3) 0.4145(7)
C8 C 0.4736(8) 0.6797(3) 0.7000(7)
C9 C 0.4243(8) 0.7167(3) 0.5556(7)
C10 C 0.3641(9) 0.6421(4) 0.5556(8)
C11 C 0.4356(8) 0.7580(4) 0.5050(6)
C12 C 0.3691(9) 0.6792(3) 0.5075(7)
C13 C 0.1646(9) 0.5440(3) 0.4971(9)
H6 H 0.110344 0.531408 0.514807
C14 C 0.5500(10) 0.8150(4) 0.4840(8)
H7 H 0.620112 0.828137 0.501619
C15 C 0.5345(8) 0.7772(4) 0.5270(8)
H8 H 0.596090 0.764227 0.573811
C16 C 0.3067(9) 0.6013(4) 0.5134(8)
C17 C 0.1896(9) 0.5255(4) 0.4225(9)
C18 C 0.2226(9) 0.5800(3) 0.5400(9)
H9 H 0.208703 0.592210 0.589534
C19 C 0.3334(9) 0.5791(4) 0.4523(8)
H10 H 0.390158 0.589836 0.435728
C20 C 0.2778(9) 0.5393(4) 0.4114(8)
H11 H 0.305489 0.522234 0.375086
C22 C 0.5224(6) 0.7171(2) 0.8483(5)
H12 H 0.484334 0.742501 0.817292
C25 C 0.5822(8) 0.6394(3) 0.8433(7)
H15 H 0.583868 0.613726 0.809748
C28 C 0.5264(8) 0.6797(3) 0.8000(7)
C29 C 0.5757(8) 0.7167(3) 0.9444(7)
C30 C 0.6359(9) 0.6421(4) 0.9444(8)
C31 C 0.5644(8) 0.7580(4) 0.9950(6)
C32 C 0.6309(9) 0.6792(3) 0.9925(7)
H17 H 0.889656 0.531408 0.985193
H18 H 0.379888 0.828137 0.998381
C35 C 0.4655(8) 0.7772(4) 0.9730(8)
H19 H 0.403910 0.764227 0.926189
C36 C 0.6933(9) 0.6013(4) 0.9866(8)
C38 C 0.7774(9) 0.5800(3) 0.9600(9)
H20 H 0.791297 0.592210 0.910466
O12 O 0.0661(6) 0.3818(2) 0.3650(5)
O15 O 0.1062(6) 0.3882(2) 0.1950(4)
O13 O 0.9339(6) 0.3818(2) 0.1350(5)
O14 O 0.8938(6) 0.3882(2) 0.3050(4)
C21_2 C 0.0256(8) 0.3699(3) 0.1414(6)
O10_2 O 0.1785(9) 0.1787(4) 0.0842(5)
H13_2 H 0.240797 0.167243 0.100643
C24_2 C 0.1401(9) 0.3124(4) 0.1062(7)
H14_2 H 0.202156 0.324501 0.153979
C26_2 C 0.1548(9) 0.2763(3) 0.0631(7)
H16_2 H 0.225329 0.263778 0.079042
C27_2 C 0.0408(9) 0.3329(3) 0.0855(7)
C33_2 C 0.3354(9) 0.0440(3) 0.0029(9)
C37_2 C 0.3104(9) 0.0255(4) 0.0775(9)
C39_2 C 0.1666(9) 0.0791(4) 0.0477(8)
H21_2 H 0.109842 0.089836 0.064272
C40_2 C 0.2222(9) 0.0393(4) 0.0886(8)
H22_2 H 0.194511 0.022234 0.124914
H1_2 H 0.015666 0.242501 0.682708
C14_2 C 0.0500(10) 0.3150(4) 0.4840(8)
H7_2 H 0.120112 0.328137 0.501619
C15_2 C 0.0345(8) 0.2772(4) 0.5270(8)
H8_2 H 0.096090 0.264227 0.573811
C22_2 C 0.0224(6) 0.2171(2) 0.8483(5)
C25_2 C 0.0822(8) 0.1394(3) 0.8433(7)
H15_2 H 0.083868 0.113726 0.809748
C28_2 C 0.0264(8) 0.1797(3) 0.8000(7)
C29_2 C 0.0757(8) 0.2167(3) 0.9444(7)
C30_2 C 0.1359(9) 0.1421(4) 0.9444(8)
C31_2 C 0.0644(8) 0.2580(4) 0.9950(6)
C32_2 C 0.1309(9) 0.1792(3) 0.9925(7)
H17_2 H 0.389656 0.031408 0.985193
C36_2 C 0.1933(9) 0.1013(4) 0.9866(8)
C38_2 C 0.2774(9) 0.0800(3) 0.9600(9)
H20_2 H 0.291297 0.092210 0.910466
O6_2 O 0.3457(6) 0.9665(3) 0.1813(6)
O9_2 O 0.4734(6) 0.9814(3) 0.1319(6)
C23_2 C 0.3790(10) 0.9882(4) 0.1335(9)
C34_2 C 0.9500(10) 0.3150(4) 0.0160(8)
C1_2 C 0.9744(8) 0.3699(3) 0.3586(6)
C2_2 C 0.9776(6) 0.2171(2) 0.6517(5)
O5_2 O 0.8215(9) 0.1787(4) 0.4158(5)
H2_2 H 0.759203 0.167243 0.399357
C4_2 C 0.8599(9) 0.3124(4) 0.3938(7)
H3_2 H 0.797844 0.324501 0.346021
C5_2 C 0.9178(8) 0.1394(3) 0.6567(7)
H4_2 H 0.916132 0.113726 0.690252
C6_2 C 0.8452(9) 0.2763(3) 0.4369(7)
H5_2 H 0.774671 0.263778 0.420958
C7_2 C 0.9592(9) 0.3329(3) 0.4145(7)
C8_2 C 0.9736(8) 0.1797(3) 0.7000(7)
C9_2 C 0.9243(8) 0.2167(3) 0.5556(7)
C10_2 C 0.8641(9) 0.1421(4) 0.5556(8)
C11_2 C 0.9356(8) 0.2580(4) 0.5050(6)
C12_2 C 0.8691(9) 0.1792(3) 0.5075(7)
C13_2 C 0.6646(9) 0.0440(3) 0.4971(9)
H6_2 H 0.610344 0.031408 0.514807
C16_2 C 0.8067(9) 0.1013(4) 0.5134(8)
C17_2 C 0.6896(9) 0.0255(4) 0.4225(9)
C18_2 C 0.7226(9) 0.0800(3) 0.5400(9)
H9_2 H 0.708703 0.092210 0.589534
C19_2 C 0.8334(9) 0.0791(4) 0.4523(8)
H10_2 H 0.890158 0.089836 0.435728
C20_2 C 0.7778(9) 0.0393(4) 0.4114(8)
H11_2 H 0.805489 0.022234 0.375086
H12_2 H 0.984334 0.242501 0.817292
H18_2 H 0.879888 0.328137 0.998381
C35_2 C 0.9655(8) 0.2772(4) 0.9730(8)
H19_2 H 0.903910 0.264227 0.926189
O1_2 O 0.6543(6) 0.9665(3) 0.3187(6)
O4_2 O 0.5266(6) 0.9814(3) 0.3681(6)
C3_2 C 0.6210(10) 0.9882(4) 0.3665(9)
In1 In 0.000000 0.56933(2) 0.750000
O11 O 0.1543(6) 0.5335(3) 0.8187(6)
O13_2 O 0.0661(6) 0.6182(2) 0.8650(5)
O14_2 O 0.1062(6) 0.6118(2) 0.6950(4)
O16 O 0.0266(6) 0.5186(3) 0.8681(6)
In1_2 In 1.000000 0.56933(2) 0.750000
O1_3 O 0.8457(6) 0.5335(3) 0.6813(6)
O2_2 O 0.4339(6) 0.1182(2) 0.6350(5)
O3_2 O 0.6062(6) 0.1118(2) 0.6950(4)
O4_3 O 0.9734(6) 0.5186(3) 0.6319(6)
C1_3 C 0.5256(8) 0.1301(3) 0.6414(6)
C2_3 C 0.5224(6) 0.2829(2) 0.3483(5)
H1_3 H 0.484334 0.257499 0.317292
O5_3 O 0.6785(9) 0.3213(4) 0.5842(5)
H2_3 H 0.740797 0.332757 0.600643
C3_3 C 0.8790(10) 0.5118(4) 0.6335(9)
C4_3 C 0.6401(9) 0.1876(4) 0.6062(7)
H3_3 H 0.702156 0.175499 0.653979
C5_3 C 0.5822(8) 0.3606(3) 0.3433(7)
H4_3 H 0.583868 0.386274 0.309748
C6_3 C 0.6548(9) 0.2237(3) 0.5631(7)
H5_3 H 0.725329 0.236222 0.579042
C7_3 C 0.5408(9) 0.1671(3) 0.5855(7)
C8_3 C 0.5264(8) 0.3203(3) 0.3000(7)
C9_3 C 0.5757(8) 0.2833(3) 0.4444(7)
C10_3 C 0.6359(9) 0.3579(4) 0.4444(8)
C11_3 C 0.5644(8) 0.2420(4) 0.4950(6)
C12_3 C 0.6309(9) 0.3208(3) 0.4925(7)
C13_3 C 0.8354(9) 0.4560(3) 0.5029(9)
H6_3 H 0.889656 0.468592 0.485193
C14_3 C 0.4500(10) 0.1850(4) 0.5160(8)
H7_3 H 0.379888 0.171863 0.498381
C15_3 C 0.4655(8) 0.2228(4) 0.4730(8)
H8_3 H 0.403910 0.235773 0.426189
C16_3 C 0.6933(9) 0.3987(4) 0.4866(8)
C17_3 C 0.8104(9) 0.4745(4) 0.5775(9)
C18_3 C 0.7774(9) 0.4200(3) 0.4600(9)
H9_3 H 0.791297 0.407790 0.410466
C19_3 C 0.6666(9) 0.4209(4) 0.5477(8)
H10_3 H 0.609842 0.410164 0.564272
C20_3 C 0.7222(9) 0.4607(4) 0.5886(8)
H11_3 H 0.694511 0.477766 0.624914
C22_3 C 0.4776(6) 0.2829(2) 0.1517(5)
H12_3 H 0.515666 0.257499 0.182708
C25_3 C 0.4178(8) 0.3606(3) 0.1567(7)
H15_3 H 0.416132 0.386274 0.190252
C28_3 C 0.4736(8) 0.3203(3) 0.2000(7)
C29_3 C 0.4243(8) 0.2833(3) 0.0556(7)
C30_3 C 0.3641(9) 0.3579(4) 0.0556(8)
C31_3 C 0.4356(8) 0.2420(4) 0.0050(6)
C32_3 C 0.3691(9) 0.3208(3) 0.0075(7)
H17_3 H 0.110344 0.468592 0.014807
H18_3 H 0.620112 0.171863 0.001619
C35_3 C 0.5345(8) 0.2228(4) 0.0270(8)
H19_3 H 0.596090 0.235773 0.073811
C36_3 C 0.3067(9) 0.3987(4) 0.0134(8)
C38_3 C 0.2226(9) 0.4200(3) 0.0400(9)
H20_3 H 0.208703 0.407790 0.089534
In3 In 0.500000 0.06933(2) 0.750000
O12_2 O 0.9339(6) 0.6182(2) 0.6350(5)
O15_2 O 0.8938(6) 0.6118(2) 0.8050(4)
O7_2 O 0.5661(6) 0.1182(2) 0.8650(5)
O8_2 O 0.3938(6) 0.1118(2) 0.8050(4)
C21_3 C 0.4744(8) 0.1301(3) 0.8586(6)
O10_3 O 0.3215(9) 0.3213(4) 0.9158(5)
H13_3 H 0.259203 0.332757 0.899357
C23_3 C 0.1210(10) 0.5118(4) 0.8665(9)
C24_3 C 0.3599(9) 0.1876(4) 0.8938(7)
H14_3 H 0.297844 0.175499 0.846021
C26_3 C 0.3452(9) 0.2237(3) 0.9369(7)
H16_3 H 0.274671 0.236222 0.920958
C27_3 C 0.4592(9) 0.1671(3) 0.9145(7)
C33_3 C 0.1646(9) 0.4560(3) 0.9971(9)
C34_3 C 0.5500(10) 0.1850(4) 0.9840(8)
C37_3 C 0.1896(9) 0.4745(4) 0.9225(9)
C39_3 C 0.3334(9) 0.4209(4) 0.9523(8)
H21_3 H 0.390158 0.410164 0.935728
C40_3 C 0.2778(9) 0.4607(4) 0.9114(8)
H22_3 H 0.305489 0.477766 0.875086
O1_4 O 0.3457(6) 0.0335(3) 0.6813(6)
O4_4 O 0.4734(6) 0.0186(3) 0.6319(6)
C3_4 C 0.3790(10) 0.0118(4) 0.6335(9)
O11_2 O 0.6543(6) 0.0335(3) 0.8187(6)
O16_2 O 0.5266(6) 0.0186(3) 0.8681(6)
C1_4 C 0.0256(8) 0.6301(3) 0.6414(6)
C2_4 C 0.0224(6) 0.7829(2) 0.3483(5)
O5_4 O 0.1785(9) 0.8213(4) 0.5842(5)
H2_4 H 0.240797 0.832757 0.600643
C4_4 C 0.1401(9) 0.6876(4) 0.6062(7)
H3_4 H 0.202156 0.675499 0.653979
C5_4 C 0.0822(8) 0.8606(3) 0.3433(7)
H4_4 H 0.083868 0.886274 0.309748
C6_4 C 0.1548(9) 0.7237(3) 0.5631(7)
H5_4 H 0.225329 0.736222 0.579042
C7_4 C 0.0408(9) 0.6671(3) 0.5855(7)
C8_4 C 0.0264(8) 0.8203(3) 0.3000(7)
C9_4 C 0.0757(8) 0.7833(3) 0.4444(7)
C10_4 C 0.1359(9) 0.8579(4) 0.4444(8)
C11_4 C 0.0644(8) 0.7420(4) 0.4950(6)
C12_4 C 0.1309(9) 0.8208(3) 0.4925(7)
C13_4 C 0.3354(9) 0.9560(3) 0.5029(9)
H6_4 H 0.389656 0.968592 0.485193
C16_4 C 0.1933(9) 0.8987(4) 0.4866(8)
C17_4 C 0.3104(9) 0.9745(4) 0.5775(9)
C18_4 C 0.2774(9) 0.9200(3) 0.4600(9)
H9_4 H 0.291297 0.907790 0.410466
C19_4 C 0.1666(9) 0.9209(4) 0.5477(8)
H10_4 H 0.109842 0.910164 0.564272
C20_4 C 0.2222(9) 0.9607(4) 0.5886(8)
H11_4 H 0.194511 0.977766 0.624914
H12_4 H 0.015666 0.757499 0.182708
H18_4 H 0.120112 0.671863 0.001619
C35_4 C 0.0345(8) 0.7228(4) 0.0270(8)
H19_4 H 0.096090 0.735773 0.073811
C34_4 C 0.0500(10) 0.6850(4) 0.9840(8)
C23_4 C 0.6210(10) 0.0118(4) 0.8665(9)
H1_4 H 0.984334 0.757499 0.317292
C14_4 C 0.9500(10) 0.6850(4) 0.5160(8)
H7_4 H 0.879888 0.671863 0.498381
C15_4 C 0.9655(8) 0.7228(4) 0.4730(8)
H8_4 H 0.903910 0.735773 0.426189
C22_4 C 0.9776(6) 0.7829(2) 0.1517(5)
C25_4 C 0.9178(8) 0.8606(3) 0.1567(7)
H15_4 H 0.916132 0.886274 0.190252
C28_4 C 0.9736(8) 0.8203(3) 0.2000(7)
C29_4 C 0.9243(8) 0.7833(3) 0.0556(7)
C30_4 C 0.8641(9) 0.8579(4) 0.0556(8)
C31_4 C 0.9356(8) 0.7420(4) 0.0050(6)
C32_4 C 0.8691(9) 0.8208(3) 0.0075(7)
H17_4 H 0.610344 0.968592 0.014807
C36_4 C 0.8067(9) 0.8987(4) 0.0134(8)
C38_4 C 0.7226(9) 0.9200(3) 0.0400(9)
H20_4 H 0.708703 0.907790 0.089534
C21_4 C 0.9744(8) 0.6301(3) 0.8586(6)
O10_4 O 0.8215(9) 0.8213(4) 0.9158(5)
H13_4 H 0.759203 0.832757 0.899357
C24_4 C 0.8599(9) 0.6876(4) 0.8938(7)
H14_4 H 0.797844 0.675499 0.846021
C26_4 C 0.8452(9) 0.7237(3) 0.9369(7)
H16_4 H 0.774671 0.736222 0.920958
C27_4 C 0.9592(9) 0.6671(3) 0.9145(7)
C33_4 C 0.6646(9) 0.9560(3) 0.9971(9)
C37_4 C 0.6896(9) 0.9745(4) 0.9225(9)
C39_4 C 0.8334(9) 0.9209(4) 0.9523(8)
H21_4 H 0.890158 0.910164 0.935728
C40_4 C 0.7778(9) 0.9607(4) 0.9114(8)
H22_4 H 0.805489 0.977766 0.875086
loop_
_geom_bond_atom_site_label_1
_geom_bond_atom_site_label_2
_geom_bond_site_symmetry_1
_geom_bond_site_symmetry_2
O6 C23 1_555 1_555
O7 C21 1_555 1_555
O8 C21 1_555 1_555
O9 C23 1_555 1_555
C21 C27 1_555 1_555
O10 H13 1_555 1_555
C23 C37 1_555 1_555
C24 H14 1_555 1_555
C26 C24 1_555 1_555
H16 C26 1_555 1_555
C27 C24 1_555 1_555
C34 C27 1_555 1_555
C37 C33 1_555 1_555
H21 C39 1_555 1_555
C40 C37 1_555 1_555
H22 C40 1_555 1_555
In2_2 O6 1_555 1_555
In4 O7 1_555 1_555
O8 In4 1_555 1_555
O9 In2_2 1_555 1_555
C39 C40 1_555 1_555
In2 O1 1_555 1_555
O1 C3 1_555 1_555
O2 C1 1_555 1_555
O3 C1 1_555 1_555
O4 In2 1_555 1_555
C1 C7 1_555 1_555
C2 H1 1_555 1_555
O5 H2 1_555 1_555
C3 O4 1_555 1_555
C4 H3 1_555 1_555
C5 H4 1_555 1_555
C6 C4 1_555 1_555
H5 C6 1_555 1_555
C7 C4 1_555 1_555
C8 C2 1_555 1_555
C9 C2 1_555 1_555
C10 C5 1_555 1_555
C11 C6 1_555 1_555
C12 O5 1_555 1_555
C13 H6 1_555 1_555
C14 C7 1_555 1_555
H7 C14 1_555 1_555
C15 C11 1_555 1_555
H8 C15 1_555 1_555
C16 C10 1_555 1_555
C17 C3 1_555 1_555
C18 C13 1_555 1_555
H9 C18 1_555 1_555
C19 C16 1_555 1_555
H10 C19 1_555 1_555
C20 C17 1_555 1_555
H11 C20 1_555 1_555
C22 H12 1_555 1_555
C25 H15 1_555 1_555
C28 C8 1_555 1_555
C29 C22 1_555 1_555
C30 C25 1_555 1_555
C35 C31 1_555 1_555
H19 C35 1_555 1_555
C36 C30 1_555 1_555
H20 C38 1_555 1_555
In4 O2 1_555 1_555
O12 In2 1_555 1_555
O15 In2 1_555 1_555
O3 In4 1_555 1_555
C5 C8 1_555 1_555
C9 C11 1_555 1_555
C9 C12 1_555 1_555
C10 C12 1_555 1_555
C13 C17 1_555 1_555
C14 C15 1_555 1_555
C16 C18 1_555 1_555
C19 C20 1_555 1_555
C22 C28 1_555 1_555
C25 C28 1_555 1_555
C29 C31 1_555 1_555
C29 C32 1_555 1_555
C30 C32 1_555 1_555
C36 C38 1_555 1_555
O13 In2_2 1_555 1_555
O14 In2_2 1_555 1_555
O15 C21_2 1_555 1_555
C21_2 C27_2 1_555 1_555
O10_2 H13_2 1_555 1_555
C24_2 H14_2 1_555 1_555
C26_2 C24_2 1_555 1_555
H16_2 C26_2 1_555 1_555
C27_2 C24_2 1_555 1_555
C37_2 C33_2 1_555 1_555
H21_2 C39_2 1_555 1_555
C40_2 C37_2 1_555 1_555
H22_2 C40_2 1_555 1_555
C39_2 C40_2 1_555 1_555
H7_2 C14_2 1_555 1_555
H8_2 C15_2 1_555 1_555
C25_2 H15_2 1_555 1_555
C29_2 C22_2 1_555 1_555
C30_2 C25_2 1_555 1_555
C36_2 C30_2 1_555 1_555
H20_2 C38_2 1_555 1_555
C14_2 C15_2 1_555 1_555
C22_2 C28_2 1_555 1_555
C25_2 C28_2 1_555 1_555
C29_2 C31_2 1_555 1_555
C29_2 C32_2 1_555 1_555
C30_2 C32_2 1_555 1_555
C36_2 C38_2 1_555 1_555
O6_2 C23_2 1_555 1_555
O9_2 C23_2 1_555 1_555
In4 O6_2 1_555 1_555
O9_2 In4 1_555 1_555
O14 C1_2 1_555 1_555
C1_2 C7_2 1_555 1_555
O5_2 H2_2 1_555 1_555
C4_2 H3_2 1_555 1_555
C5_2 H4_2 1_555 1_555
C6_2 C4_2 1_555 1_555
H5_2 C6_2 1_555 1_555
C7_2 C4_2 1_555 1_555
C8_2 C2_2 1_555 1_555
C9_2 C2_2 1_555 1_555
C10_2 C5_2 1_555 1_555
C11_2 C6_2 1_555 1_555
C12_2 O5_2 1_555 1_555
C13_2 H6_2 1_555 1_555
C16_2 C10_2 1_555 1_555
C18_2 C13_2 1_555 1_555
H9_2 C18_2 1_555 1_555
C19_2 C16_2 1_555 1_555
H10_2 C19_2 1_555 1_555
C20_2 C17_2 1_555 1_555
H11_2 C20_2 1_555 1_555
H19_2 C35_2 1_555 1_555
C5_2 C8_2 1_555 1_555
C9_2 C11_2 1_555 1_555
C9_2 C12_2 1_555 1_555
C10_2 C12_2 1_555 1_555
C13_2 C17_2 1_555 1_555
C16_2 C18_2 1_555 1_555
C19_2 C20_2 1_555 1_555
In4 O1_2 1_555 1_555
O1_2 C3_2 1_555 1_555
O4_2 In4 1_555 1_555
C3_2 O4_2 1_555 1_555
O11 In1 1_555 1_555
O13_2 In1 1_555 1_555
O14_2 In1 1_555 1_555
O16 In1 1_555 1_555
In1_2 O1_3 1_555 1_555
O1_3 C3_3 1_555 1_555
O2_2 C1_3 1_555 1_555
O3_2 C1_3 1_555 1_555
O4_3 In1_2 1_555 1_555
C1_3 C7_3 1_555 1_555
C2_3 H1_3 1_555 1_555
O5_3 H2_3 1_555 1_555
C3_3 O4_3 1_555 1_555
C4_3 H3_3 1_555 1_555
C5_3 H4_3 1_555 1_555
C6_3 C4_3 1_555 1_555
H5_3 C6_3 1_555 1_555
C7_3 C4_3 1_555 1_555
C8_3 C2_3 1_555 1_555
C9_3 C2_3 1_555 1_555
C10_3 C5_3 1_555 1_555
C11_3 C6_3 1_555 1_555
C12_3 O5_3 1_555 1_555
C13_3 H6_3 1_555 1_555
C14_3 C7_3 1_555 1_555
H7_3 C14_3 1_555 1_555
C15_3 C11_3 1_555 1_555
H8_3 C15_3 1_555 1_555
C16_3 C10_3 1_555 1_555
C17_3 C3_3 1_555 1_555
C18_3 C13_3 1_555 1_555
H9_3 C18_3 1_555 1_555
C19_3 C16_3 1_555 1_555
H10_3 C19_3 1_555 1_555
C20_3 C17_3 1_555 1_555
H11_3 C20_3 1_555 1_555
C22_3 H12_3 1_555 1_555
C25_3 H15_3 1_555 1_555
C28_3 C8_3 1_555 1_555
C29_3 C22_3 1_555 1_555
C30_3 C25_3 1_555 1_555
C35_3 C31_3 1_555 1_555
H19_3 C35_3 1_555 1_555
C36_3 C30_3 1_555 1_555
H20_3 C38_3 1_555 1_555
In3 O2_2 1_555 1_555
O12_2 In1_2 1_555 1_555
O15_2 In1_2 1_555 1_555
O3_2 In3 1_555 1_555
C5_3 C8_3 1_555 1_555
C9_3 C11_3 1_555 1_555
C9_3 C12_3 1_555 1_555
C10_3 C12_3 1_555 1_555
C13_3 C17_3 1_555 1_555
C14_3 C15_3 1_555 1_555
C16_3 C18_3 1_555 1_555
C19_3 C20_3 1_555 1_555
C22_3 C28_3 1_555 1_555
C25_3 C28_3 1_555 1_555
C29_3 C31_3 1_555 1_555
C29_3 C32_3 1_555 1_555
C30_3 C32_3 1_555 1_555
C36_3 C38_3 1_555 1_555
O11 C23_3 1_555 1_555
O7_2 C21_3 1_555 1_555
O8_2 C21_3 1_555 1_555
O16 C23_3 1_555 1_555
C21_3 C27_3 1_555 1_555
O10_3 H13_3 1_555 1_555
C23_3 C37_3 1_555 1_555
C24_3 H14_3 1_555 1_555
C26_3 C24_3 1_555 1_555
H16_3 C26_3 1_555 1_555
C27_3 C24_3 1_555 1_555
C34_3 C27_3 1_555 1_555
C37_3 C33_3 1_555 1_555
H21_3 C39_3 1_555 1_555
C40_3 C37_3 1_555 1_555
H22_3 C40_3 1_555 1_555
In3 O7_2 1_555 1_555
O8_2 In3 1_555 1_555
C39_3 C40_3 1_555 1_555
In3 O1_4 1_555 1_555
O1_4 C3_4 1_555 1_555
O4_4 In3 1_555 1_555
C3_4 O4_4 1_555 1_555
O11_2 In3 1_555 1_555
O16_2 In3 1_555 1_555
O14_2 C1_4 1_555 1_555
C1_4 C7_4 1_555 1_555
O5_4 H2_4 1_555 1_555
C4_4 H3_4 1_555 1_555
C5_4 H4_4 1_555 1_555
C6_4 C4_4 1_555 1_555
H5_4 C6_4 1_555 1_555
C7_4 C4_4 1_555 1_555
C8_4 C2_4 1_555 1_555
C9_4 C2_4 1_555 1_555
C10_4 C5_4 1_555 1_555
C11_4 C6_4 1_555 1_555
C12_4 O5_4 1_555 1_555
C13_4 H6_4 1_555 1_555
C16_4 C10_4 1_555 1_555
C18_4 C13_4 1_555 1_555
H9_4 C18_4 1_555 1_555
C19_4 C16_4 1_555 1_555
H10_4 C19_4 1_555 1_555
C20_4 C17_4 1_555 1_555
H11_4 C20_4 1_555 1_555
H19_4 C35_4 1_555 1_555
C5_4 C8_4 1_555 1_555
C9_4 C11_4 1_555 1_555
C9_4 C12_4 1_555 1_555
C10_4 C12_4 1_555 1_555
C13_4 C17_4 1_555 1_555
C16_4 C18_4 1_555 1_555
C19_4 C20_4 1_555 1_555
O11_2 C23_4 1_555 1_555
O16_2 C23_4 1_555 1_555
H7_4 C14_4 1_555 1_555
H8_4 C15_4 1_555 1_555
C25_4 H15_4 1_555 1_555
C29_4 C22_4 1_555 1_555
C30_4 C25_4 1_555 1_555
C36_4 C30_4 1_555 1_555
H20_4 C38_4 1_555 1_555
C14_4 C15_4 1_555 1_555
C22_4 C28_4 1_555 1_555
C25_4 C28_4 1_555 1_555
C29_4 C31_4 1_555 1_555
C29_4 C32_4 1_555 1_555
C30_4 C32_4 1_555 1_555
C36_4 C38_4 1_555 1_555
O15_2 C21_4 1_555 1_555
C21_4 C27_4 1_555 1_555
O10_4 H13_4 1_555 1_555
C24_4 H14_4 1_555 1_555
C26_4 C24_4 1_555 1_555
H16_4 C26_4 1_555 1_555
C27_4 C24_4 1_555 1_555
C37_4 C33_4 1_555 1_555
H21_4 C39_4 1_555 1_555
C40_4 C37_4 1_555 1_555
H22_4 C40_4 1_555 1_555
C39_4 C40_4 1_555 1_555

#END
