
###############################################################################
#
# This file contains modified crystal structure data generated from the
# MOF subset of the Cambridge Structural Database (CSD) v543 
# hosted by the Cambridge Crystallographic Data Centre (CCDC).
#
# This work is licensed under the Creative Commons
# Attribution-NonCommercial-ShareAlike 4.0 International License.
# To view a copy of this license, visit
# http://creativecommons.org/licenses/by-nc-sa/4.0/
# or send a letter to
# Creative Commons, PO Box 1866, Mountain View, CA 94042, USA.
#
# CIF created using the CSD Python API on 29 September 2022
# The structure has been converted into the P1 space group
# The structure has a 3D framework
# The original CSD entry OPUSUQ is in the monoclinic crystal system
# The framework has been calculated to contain at least 10.0% void space
# The void calculation uses a probe of radius 1.32A, grid spacing 0.4
# The framework is charged, counterions have been retained in the structure
#
###############################################################################

data_OPUSUQ
_chemical_formula_moiety         '(C64 H56 N12 O32)n'
_symmetry_cell_setting           triclinic
_symmetry_space_group_name_H-M   'P 1'
_symmetry_Int_Tables_number      1
_space_group_name_Hall           'P 1'
loop_
_symmetry_equiv_pos_site_id
_symmetry_equiv_pos_as_xyz
1 x,y,z
_cell_length_a                   9.2303(5)
_cell_length_b                   10.1530(4)
_cell_length_c                   21.8214(9)
_cell_angle_alpha                90
_cell_angle_beta                 100.353(4)
_cell_angle_gamma                90
_cell_volume                     2011.7
loop_
_atom_site_label
_atom_site_type_symbol
_atom_site_fract_x
_atom_site_fract_y
_atom_site_fract_z
N1 N 0.3440(4) 0.6120(3) 0.24469(15)
H1 H 0.307909 0.539499 0.224658
H2 H 0.299507 0.622376 0.277332
C1 C 0.3096(7) 0.7258(5) 0.2029(2)
H3 H 0.363813 0.719137 0.169348
H4 H 0.336410 0.805562 0.225695
H5 H 0.205951 0.726876 0.186215
C2 C 0.5046(5) 0.5941(6) 0.2673(2)
H6 H 0.552291 0.575741 0.232624
H7 H 0.520069 0.521928 0.296163
H8 H 0.545023 0.673096 0.287750
N1_2 N 0.6560(4) 0.1120(3) 0.25531(15)
H1_2 H 0.692091 0.039499 0.275342
H2_2 H 0.700493 0.122376 0.222668
C1_2 C 0.6904(7) 0.2258(5) 0.2971(2)
H3_2 H 0.636187 0.219137 0.330652
H4_2 H 0.663590 0.305562 0.274305
H5_2 H 0.794049 0.226876 0.313785
C2_2 C 0.4954(5) 0.0941(6) 0.2327(2)
H6_2 H 0.447709 0.075741 0.267376
H7_2 H 0.479931 0.021928 0.203837
H8_2 H 0.454977 0.173096 0.212250
N1_3 N 0.6560(4) 0.3880(3) 0.75531(15)
H1_3 H 0.692091 0.460501 0.775342
H2_3 H 0.700493 0.377624 0.722668
C1_3 C 0.6904(7) 0.2742(5) 0.7971(2)
H3_3 H 0.636187 0.280863 0.830652
H4_3 H 0.663590 0.194438 0.774305
H5_3 H 0.794049 0.273124 0.813785
C2_3 C 0.4954(5) 0.4059(6) 0.7327(2)
H6_3 H 0.447709 0.424259 0.767376
H7_3 H 0.479931 0.478072 0.703837
H8_3 H 0.454977 0.326904 0.712250
N1_4 N 0.3440(4) 0.8880(3) 0.74469(15)
H1_4 H 0.307909 0.960501 0.724658
H2_4 H 0.299507 0.877624 0.777332
C1_4 C 0.3096(7) 0.7742(5) 0.7029(2)
H3_4 H 0.363813 0.780863 0.669348
H4_4 H 0.336410 0.694438 0.725695
H5_4 H 0.205951 0.773124 0.686215
C2_4 C 0.5046(5) 0.9059(6) 0.7673(2)
H6_4 H 0.552291 0.924259 0.732624
H7_4 H 0.520069 0.978072 0.796163
H8_4 H 0.545023 0.826904 0.787750
Gd1 Gd 0.11662(2) 0.12570(2) 0.55948(2)
O10 O 0.2395(3) 0.1072(2) 0.67329(10)
O11 O 0.1709(3) 0.1411(2) 0.45562(10)
O12 O 0.1105(3) 0.3639(2) 0.53494(11)
O13 O 0.3220(3) 0.2738(2) 0.57722(11)
O14 O 0.0602(3) 0.2515(2) 0.64952(10)
O9 O 0.1149(3) 0.8739(2) 0.50543(11)
O16 O 0.3115(3) 0.9656(2) 0.56174(11)
O1 O 0.8851(3) 0.1261(2) 0.49457(11)
O2 O 0.2395(3) 0.3928(2) 0.17329(10)
O4 O 0.8895(3) 0.6361(2) 0.46506(11)
O5 O 0.6780(3) 0.7262(2) 0.42278(11)
O6 O 0.0602(3) 0.2485(2) 0.14952(10)
O7 O 0.0099(3) 0.0282(3) 0.38613(11)
C3 C 0.7536(4) 0.1336(3) 0.46541(15)
O8 O 0.6885(3) 0.0344(2) 0.43826(11)
C4 C 0.6737(4) 0.2630(3) 0.45723(15)
C5 C 0.7525(4) 0.3808(3) 0.46046(15)
C6 C 0.5201(4) 0.2635(3) 0.44088(15)
H9 H 0.854197 0.381373 0.473386
C7 C 0.6769(4) 0.4965(3) 0.44415(15)
C8 C 0.4432(4) 0.3808(3) 0.42613(15)
H10 H 0.468589 0.184609 0.439847
C9 C 0.7544(4) 0.6258(3) 0.44408(15)
C10 C 0.5231(4) 0.4965(4) 0.42707(15)
C11 C 0.2779(4) 0.3855(4) 0.40961(15)
H11 H 0.473909 0.575359 0.416203
N2 N 0.2200(3) 0.3080(3) 0.35379(13)
H12 H 0.236524 0.352197 0.444400
H13 H 0.246797 0.476353 0.402679
N3 N 0.2345(3) 0.3595(3) 0.29831(13)
C12 C 0.1425(4) 0.1950(4) 0.34838(15)
C13 C 0.1630(4) 0.2770(4) 0.25660(15)
C14 C 0.1054(4) 0.1156(3) 0.40133(15)
C15 C 0.1014(4) 0.1721(4) 0.28497(16)
C16 C 0.1543(4) 0.3083(3) 0.18960(15)
H14 H 0.045444 0.102576 0.265580
Gd5 Gd 0.88338(2) 0.87430(2) 0.44052(2)
Gd6 Gd 0.11662(2) 0.37430(2) 0.05948(2)
O15 O 0.9901(3) 0.9718(3) 0.61387(11)
O4_2 O 0.1105(3) 0.1361(2) 0.03494(11)
O5_2 O 0.3220(3) 0.2262(2) 0.07722(11)
C9_2 C 0.2456(4) 0.1258(3) 0.05592(15)
H11_2 H 0.526091 0.075359 0.083797
O1_2 O 0.1149(3) 0.6261(2) 0.00543(11)
O2_2 O 0.7605(3) 0.8928(2) 0.32671(10)
O3 O 0.8291(3) 0.6411(2) 0.04438(10)
O6_2 O 0.9398(3) 0.7485(2) 0.35048(10)
O7_2 O 0.9901(3) 0.5282(3) 0.11387(11)
C3_2 C 0.2464(4) 0.6336(3) 0.03459(15)
O8_2 O 0.3115(3) 0.5344(2) 0.06174(11)
C4_2 C 0.3263(4) 0.7630(3) 0.04277(15)
C5_2 C 0.2475(4) 0.8808(3) 0.03954(15)
C6_2 C 0.4799(4) 0.7635(3) 0.05912(15)
H9_2 H 0.145803 0.881373 0.026614
C7_2 C 0.3231(4) 0.9965(3) 0.05585(15)
C8_2 C 0.5568(4) 0.8808(3) 0.07387(15)
H10_2 H 0.531411 0.684609 0.060153
C10_2 C 0.4769(4) 0.9965(4) 0.07293(15)
C11_2 C 0.7221(4) 0.8855(4) 0.09039(15)
N2_2 N 0.7800(3) 0.8080(3) 0.14621(13)
H12_2 H 0.763476 0.852197 0.055600
H13_2 H 0.753203 0.976353 0.097321
N3_2 N 0.7655(3) 0.8595(3) 0.20169(13)
C12_2 C 0.8575(4) 0.6950(4) 0.15162(15)
C13_2 C 0.8370(4) 0.7770(4) 0.24340(15)
C14_2 C 0.8946(4) 0.6156(3) 0.09867(15)
C15_2 C 0.8986(4) 0.6721(4) 0.21503(16)
C16_2 C 0.8457(4) 0.8083(3) 0.31040(15)
H14_2 H 0.954556 0.602576 0.234420
Gd2 Gd 0.88338(2) 0.62570(2) 0.94052(2)
O15_2 O 0.0099(3) 0.4718(3) 0.88613(11)
O9_2 O 0.8851(3) 0.3739(2) 0.99457(11)
O10_2 O 0.7605(3) 0.6072(2) 0.82671(10)
O12_2 O 0.8895(3) 0.8639(2) 0.96506(11)
O13_2 O 0.6780(3) 0.7738(2) 0.92278(11)
O14_2 O 0.9398(3) 0.7515(2) 0.85048(10)
O16_2 O 0.6885(3) 0.4656(2) 0.93826(11)
O3_2 O 0.8291(3) 0.8589(2) 0.54438(10)
C3_3 C 0.2464(4) 0.8664(3) 0.53459(15)
C4_3 C 0.3263(4) 0.7370(3) 0.54277(15)
C5_3 C 0.2475(4) 0.6192(3) 0.53954(15)
C6_3 C 0.4799(4) 0.7365(3) 0.55912(15)
H9_3 H 0.145803 0.618627 0.526614
C7_3 C 0.3231(4) 0.5035(3) 0.55585(15)
C8_3 C 0.5568(4) 0.6192(3) 0.57387(15)
H10_3 H 0.531411 0.815391 0.560153
C9_3 C 0.2456(4) 0.3742(3) 0.55592(15)
C10_3 C 0.4769(4) 0.5035(4) 0.57293(15)
C11_3 C 0.7221(4) 0.6145(4) 0.59039(15)
H11_3 H 0.526091 0.424641 0.583797
N2_3 N 0.7800(3) 0.6920(3) 0.64621(13)
H12_3 H 0.763476 0.647803 0.555600
H13_3 H 0.753203 0.523647 0.597321
N3_3 N 0.7655(3) 0.6405(3) 0.70169(13)
C12_3 C 0.8575(4) 0.8050(4) 0.65162(15)
C13_3 C 0.8370(4) 0.7230(4) 0.74340(15)
C14_3 C 0.8946(4) 0.8844(3) 0.59867(15)
C15_3 C 0.8986(4) 0.8279(4) 0.71503(16)
C16_3 C 0.8457(4) 0.6917(3) 0.81040(15)
H14_3 H 0.954556 0.897424 0.734420
O11_2 O 0.1709(3) 0.3589(2) 0.95562(10)
C3_4 C 0.7536(4) 0.3664(3) 0.96541(15)
C4_4 C 0.6737(4) 0.2370(3) 0.95723(15)
C5_4 C 0.7525(4) 0.1192(3) 0.96046(15)
C6_4 C 0.5201(4) 0.2365(3) 0.94088(15)
H9_4 H 0.854197 0.118627 0.973386
C7_4 C 0.6769(4) 0.0035(3) 0.94415(15)
C8_4 C 0.4432(4) 0.1192(3) 0.92613(15)
H10_4 H 0.468589 0.315391 0.939847
C10_4 C 0.5231(4) 0.0035(4) 0.92707(15)
C11_4 C 0.2779(4) 0.1145(4) 0.90961(15)
N2_4 N 0.2200(3) 0.1920(3) 0.85379(13)
H12_4 H 0.236524 0.147803 0.944400
H13_4 H 0.246797 0.023647 0.902679
N3_4 N 0.2345(3) 0.1405(3) 0.79831(13)
C12_4 C 0.1425(4) 0.3050(4) 0.84838(15)
C13_4 C 0.1630(4) 0.2230(4) 0.75660(15)
C14_4 C 0.1054(4) 0.3844(3) 0.90133(15)
C15_4 C 0.1014(4) 0.3279(4) 0.78497(16)
C16_4 C 0.1543(4) 0.1917(3) 0.68960(15)
H14_4 H 0.045444 0.397424 0.765580
C9_4 C 0.7544(4) 0.8742(3) 0.94408(15)
H11_4 H 0.473909 0.924641 0.916203
loop_
_geom_bond_atom_site_label_1
_geom_bond_atom_site_label_2
_geom_bond_site_symmetry_1
_geom_bond_site_symmetry_2
N1 H1 1_555 1_555
H2 N1 1_555 1_555
C1 N1 1_555 1_555
H3 C1 1_555 1_555
H4 C1 1_555 1_555
H5 C1 1_555 1_555
C2 N1 1_555 1_555
H6 C2 1_555 1_555
H7 C2 1_555 1_555
H8 C2 1_555 1_555
N1_2 H1_2 1_555 1_555
H2_2 N1_2 1_555 1_555
C1_2 N1_2 1_555 1_555
H3_2 C1_2 1_555 1_555
H4_2 C1_2 1_555 1_555
H5_2 C1_2 1_555 1_555
C2_2 N1_2 1_555 1_555
H6_2 C2_2 1_555 1_555
H7_2 C2_2 1_555 1_555
H8_2 C2_2 1_555 1_555
N1_3 H1_3 1_555 1_555
H2_3 N1_3 1_555 1_555
C1_3 N1_3 1_555 1_555
H3_3 C1_3 1_555 1_555
H4_3 C1_3 1_555 1_555
H5_3 C1_3 1_555 1_555
C2_3 N1_3 1_555 1_555
H6_3 C2_3 1_555 1_555
H7_3 C2_3 1_555 1_555
H8_3 C2_3 1_555 1_555
N1_4 H1_4 1_555 1_555
H2_4 N1_4 1_555 1_555
C1_4 N1_4 1_555 1_555
H3_4 C1_4 1_555 1_555
H4_4 C1_4 1_555 1_555
H5_4 C1_4 1_555 1_555
C2_4 N1_4 1_555 1_555
H6_4 C2_4 1_555 1_555
H7_4 C2_4 1_555 1_555
H8_4 C2_4 1_555 1_555
O10 Gd1 1_555 1_555
O11 Gd1 1_555 1_555
O12 Gd1 1_555 1_555
O13 Gd1 1_555 1_555
O14 Gd1 1_555 1_555
O1 C3 1_555 1_555
O2 C16 1_555 1_555
O11 C14 1_555 1_555
O4 C9 1_555 1_555
O5 C9 1_555 1_555
O6 C16 1_555 1_555
O7 C14 1_555 1_555
C3 O8 1_555 1_555
C4 C3 1_555 1_555
C5 C4 1_555 1_555
C6 C4 1_555 1_555
H9 C5 1_555 1_555
C7 C5 1_555 1_555
C8 C6 1_555 1_555
H10 C6 1_555 1_555
C9 C7 1_555 1_555
C10 C7 1_555 1_555
C11 C8 1_555 1_555
H11 C10 1_555 1_555
N2 C11 1_555 1_555
H12 C11 1_555 1_555
H13 C11 1_555 1_555
N3 N2 1_555 1_555
C12 N2 1_555 1_555
C13 N3 1_555 1_555
C14 C12 1_555 1_555
C15 C12 1_555 1_555
C16 C13 1_555 1_555
H14 C15 1_555 1_555
Gd5 O4 1_555 1_555
Gd6 O2 1_555 1_555
O5 Gd5 1_555 1_555
O6 Gd6 1_555 1_555
C8 C10 1_555 1_555
C13 C15 1_555 1_555
O4_2 C9_2 1_555 1_555
O5_2 C9_2 1_555 1_555
Gd6 O4_2 1_555 1_555
O5_2 Gd6 1_555 1_555
O1_2 C3_2 1_555 1_555
O2_2 C16_2 1_555 1_555
O3 C14_2 1_555 1_555
O6_2 C16_2 1_555 1_555
O7_2 C14_2 1_555 1_555
C3_2 O8_2 1_555 1_555
O8_2 Gd6 1_555 1_555
C4_2 C3_2 1_555 1_555
C5_2 C4_2 1_555 1_555
C6_2 C4_2 1_555 1_555
H9_2 C5_2 1_555 1_555
C7_2 C5_2 1_555 1_555
C8_2 C6_2 1_555 1_555
H10_2 C6_2 1_555 1_555
C10_2 C7_2 1_555 1_555
C11_2 C8_2 1_555 1_555
N2_2 C11_2 1_555 1_555
H12_2 C11_2 1_555 1_555
H13_2 C11_2 1_555 1_555
N3_2 N2_2 1_555 1_555
C12_2 N2_2 1_555 1_555
C13_2 N3_2 1_555 1_555
C14_2 C12_2 1_555 1_555
C15_2 C12_2 1_555 1_555
C16_2 C13_2 1_555 1_555
H14_2 C15_2 1_555 1_555
Gd6 O1_2 1_555 1_555
Gd5 O2_2 1_555 1_555
O6_2 Gd5 1_555 1_555
C8_2 C10_2 1_555 1_555
C13_2 C15_2 1_555 1_555
O9_2 Gd2 1_555 1_555
O10_2 Gd2 1_555 1_555
O12_2 Gd2 1_555 1_555
O13_2 Gd2 1_555 1_555
O14_2 Gd2 1_555 1_555
O16_2 Gd2 1_555 1_555
O9 C3_3 1_555 1_555
O10_2 C16_3 1_555 1_555
O3_2 C14_3 1_555 1_555
O12 C9_3 1_555 1_555
O13 C9_3 1_555 1_555
O14_2 C16_3 1_555 1_555
O15 C14_3 1_555 1_555
C3_3 O16 1_555 1_555
C4_3 C3_3 1_555 1_555
C5_3 C4_3 1_555 1_555
C6_3 C4_3 1_555 1_555
H9_3 C5_3 1_555 1_555
C7_3 C5_3 1_555 1_555
C8_3 C6_3 1_555 1_555
H10_3 C6_3 1_555 1_555
C9_3 C7_3 1_555 1_555
C10_3 C7_3 1_555 1_555
C11_3 C8_3 1_555 1_555
H11_3 C10_3 1_555 1_555
N2_3 C11_3 1_555 1_555
H12_3 C11_3 1_555 1_555
H13_3 C11_3 1_555 1_555
N3_3 N2_3 1_555 1_555
C12_3 N2_3 1_555 1_555
C13_3 N3_3 1_555 1_555
C14_3 C12_3 1_555 1_555
C15_3 C12_3 1_555 1_555
C16_3 C13_3 1_555 1_555
H14_3 C15_3 1_555 1_555
Gd5 O3_2 1_555 1_555
C8_3 C10_3 1_555 1_555
C13_3 C15_3 1_555 1_555
O9_2 C3_4 1_555 1_555
O10 C16_4 1_555 1_555
O11_2 C14_4 1_555 1_555
O14 C16_4 1_555 1_555
O15_2 C14_4 1_555 1_555
C3_4 O16_2 1_555 1_555
C4_4 C3_4 1_555 1_555
C5_4 C4_4 1_555 1_555
C6_4 C4_4 1_555 1_555
H9_4 C5_4 1_555 1_555
C7_4 C5_4 1_555 1_555
C8_4 C6_4 1_555 1_555
H10_4 C6_4 1_555 1_555
C10_4 C7_4 1_555 1_555
C11_4 C8_4 1_555 1_555
N2_4 C11_4 1_555 1_555
H12_4 C11_4 1_555 1_555
H13_4 C11_4 1_555 1_555
N3_4 N2_4 1_555 1_555
C12_4 N2_4 1_555 1_555
C13_4 N3_4 1_555 1_555
C14_4 C12_4 1_555 1_555
C15_4 C12_4 1_555 1_555
C16_4 C13_4 1_555 1_555
H14_4 C15_4 1_555 1_555
C8_4 C10_4 1_555 1_555
C13_4 C15_4 1_555 1_555
O12_2 C9_4 1_555 1_555
O13_2 C9_4 1_555 1_555

#END
