
###############################################################################
#
# This file contains modified crystal structure data generated from the
# MOF subset of the Cambridge Structural Database (CSD) v543 
# hosted by the Cambridge Crystallographic Data Centre (CCDC).
#
# This work is licensed under the Creative Commons
# Attribution-NonCommercial-ShareAlike 4.0 International License.
# To view a copy of this license, visit
# http://creativecommons.org/licenses/by-nc-sa/4.0/
# or send a letter to
# Creative Commons, PO Box 1866, Mountain View, CA 94042, USA.
#
# CIF created using the CSD Python API on 29 September 2022
# The structure has been converted into the P1 space group
# The structure has a 3D framework
# The original CSD entry OPUSOK is in the monoclinic crystal system
# The framework has been calculated to contain at least 10.0% void space
# The void calculation uses a probe of radius 1.32A, grid spacing 0.4
# The framework is charged, counterions have been retained in the structure
#
###############################################################################

data_OPUSOK
_chemical_formula_moiety         '(C56 H24 N8 O32 4-)n'
_symmetry_cell_setting           triclinic
_symmetry_space_group_name_H-M   'P 1'
_symmetry_Int_Tables_number      1
_space_group_name_Hall           'P 1'
loop_
_symmetry_equiv_pos_site_id
_symmetry_equiv_pos_as_xyz
1 x,y,z
_cell_length_a                   9.1791(2)
_cell_length_b                   10.1636(3)
_cell_length_c                   21.7390(5)
_cell_angle_alpha                90
_cell_angle_beta                 99.829(2)
_cell_angle_gamma                90
_cell_volume                     1998.32
loop_
_atom_site_label
_atom_site_type_symbol
_atom_site_fract_x
_atom_site_fract_y
_atom_site_fract_z
O12 O 0.3028(3) 0.0366(3) 0.55958(12)
Eu1 Eu 0.11703(2) 0.87334(2) 0.56009(2)
O9 O 0.1679(3) 0.8581(3) 0.45642(12)
O10 O 0.1093(3) 0.6378(3) 0.53727(14)
O11 O 0.0559(3) 0.7540(3) 0.65003(11)
O13 O 0.2393(3) 0.8924(3) 0.67320(12)
O14 O 0.3228(3) 0.7280(3) 0.57614(13)
Eu5 Eu 0.88297(2) 0.12666(2) 0.43991(2)
O15 O 0.9953(4) 0.0323(3) 0.61259(12)
O2 O 0.8907(3) 0.3622(3) 0.46273(14)
O3 O 0.0559(3) 0.7460(3) 0.15003(11)
O4 O 0.6972(3) 0.9634(3) 0.44042(12)
O5 O 0.2393(3) 0.6076(3) 0.17320(12)
O6 O 0.6772(3) 0.2720(3) 0.42386(13)
O7 O 0.0047(4) 0.9677(3) 0.38741(12)
O8 O 0.8863(3) 0.8680(3) 0.49955(15)
N1 N 0.2194(3) 0.6905(3) 0.35453(13)
N2 N 0.2334(4) 0.6399(3) 0.29874(15)
C1 C 0.1518(4) 0.6886(4) 0.18964(16)
C2 C 0.7567(4) 0.8633(4) 0.46709(18)
C3 C 0.7541(5) 0.6173(4) 0.46008(18)
H1 H 0.856131 0.616225 0.472641
C4 C 0.1396(4) 0.8036(4) 0.34898(17)
C5 C 0.7547(4) 0.3725(4) 0.44298(16)
C6 C 0.2770(4) 0.6140(4) 0.41014(17)
H2 H 0.246028 0.523090 0.403486
H3 H 0.235564 0.647480 0.445205
C7 C 0.1015(5) 0.8814(4) 0.40267(17)
C8 C 0.1591(4) 0.7206(4) 0.25646(16)
C9 C 0.6774(4) 0.5013(4) 0.44329(16)
C10 C 0.5209(4) 0.7344(4) 0.44083(16)
H4 H 0.468976 0.813216 0.439726
C11 C 0.5230(4) 0.5025(4) 0.42636(17)
H5 H 0.472501 0.424378 0.415364
C12 C 0.4454(4) 0.6195(4) 0.42593(17)
C13 C 0.6762(4) 0.7351(4) 0.45784(17)
C14 C 0.0980(5) 0.8246(4) 0.28587(17)
H6 H 0.041059 0.893641 0.266687
Eu6 Eu 0.11703(2) 0.62666(2) 0.06009(2)
O1 O 0.8321(3) 0.3581(3) 0.04358(12)
O3_2 O 0.9441(3) 0.2460(3) 0.34997(11)
O4_2 O 0.3028(3) 0.4634(3) 0.05958(12)
O5_2 O 0.7607(3) 0.1076(3) 0.32680(12)
O7_2 O 0.9953(4) 0.4677(3) 0.11259(12)
O8_2 O 0.1137(3) 0.3680(3) 0.00045(15)
N1_2 N 0.7806(3) 0.1905(3) 0.14547(13)
N2_2 N 0.7666(4) 0.1399(3) 0.20126(15)
C1_2 C 0.8482(4) 0.1886(4) 0.31036(16)
C2_2 C 0.2433(4) 0.3633(4) 0.03291(18)
C3_2 C 0.2459(5) 0.1173(4) 0.03992(18)
H1_2 H 0.143869 0.116225 0.027359
C4_2 C 0.8604(4) 0.3036(4) 0.15102(17)
C6_2 C 0.7230(4) 0.1140(4) 0.08986(17)
H2_2 H 0.753972 0.023090 0.096514
H3_2 H 0.764436 0.147480 0.054795
C7_2 C 0.8985(5) 0.3814(4) 0.09733(17)
C8_2 C 0.8409(4) 0.2206(4) 0.24354(16)
C9_2 C 0.3226(4) 0.0013(4) 0.05671(16)
C10_2 C 0.4791(4) 0.2344(4) 0.05917(16)
H4_2 H 0.531024 0.313216 0.060274
C11_2 C 0.4770(4) 0.0025(4) 0.07364(17)
C12_2 C 0.5546(4) 0.1195(4) 0.07407(17)
C13_2 C 0.3238(4) 0.2351(4) 0.04216(17)
C14_2 C 0.9020(5) 0.3246(4) 0.21413(17)
H6_2 H 0.958941 0.393641 0.233313
Eu2 Eu 0.88297(2) 0.37334(2) 0.93991(2)
O15_2 O 0.0047(4) 0.5323(3) 0.88741(12)
O2_2 O 0.1093(3) 0.8622(3) 0.03727(14)
O6_2 O 0.3228(3) 0.7720(3) 0.07614(13)
C5_2 C 0.2453(4) 0.8725(4) 0.05702(16)
H5_2 H 0.527499 0.924378 0.084636
O10_2 O 0.8907(3) 0.1378(3) 0.96273(14)
O11_2 O 0.9441(3) 0.2540(3) 0.84997(11)
O12_2 O 0.6972(3) 0.5366(3) 0.94042(12)
O13_2 O 0.7607(3) 0.3924(3) 0.82680(12)
O14_2 O 0.6772(3) 0.2280(3) 0.92386(13)
O1_2 O 0.8321(3) 0.1419(3) 0.54358(12)
O8_3 O 0.1137(3) 0.1320(3) 0.50045(15)
N1_3 N 0.7806(3) 0.3095(3) 0.64547(13)
N2_3 N 0.7666(4) 0.3601(3) 0.70126(15)
C1_3 C 0.8482(4) 0.3114(4) 0.81036(16)
C2_3 C 0.2433(4) 0.1367(4) 0.53291(18)
C3_3 C 0.2459(5) 0.3827(4) 0.53992(18)
H1_3 H 0.143869 0.383775 0.527359
C4_3 C 0.8604(4) 0.1964(4) 0.65102(17)
C5_3 C 0.2453(4) 0.6275(4) 0.55702(16)
C6_3 C 0.7230(4) 0.3860(4) 0.58986(17)
H2_3 H 0.753972 0.476910 0.596514
H3_3 H 0.764436 0.352520 0.554795
C7_3 C 0.8985(5) 0.1186(4) 0.59733(17)
C8_3 C 0.8409(4) 0.2794(4) 0.74354(16)
C9_3 C 0.3226(4) 0.4987(4) 0.55671(16)
C10_3 C 0.4791(4) 0.2656(4) 0.55917(16)
H4_3 H 0.531024 0.186784 0.560274
C11_3 C 0.4770(4) 0.4975(4) 0.57364(17)
H5_3 H 0.527499 0.575622 0.584636
C12_3 C 0.5546(4) 0.3805(4) 0.57407(17)
C13_3 C 0.3238(4) 0.2649(4) 0.54216(17)
C14_3 C 0.9020(5) 0.1754(4) 0.71413(17)
H6_3 H 0.958941 0.106359 0.733313
O9_2 O 0.1679(3) 0.6419(3) 0.95642(12)
C5_4 C 0.7547(4) 0.1275(4) 0.94298(16)
H5_4 H 0.472501 0.075622 0.915364
O8_4 O 0.8863(3) 0.6320(3) 0.99955(15)
N1_4 N 0.2194(3) 0.8095(3) 0.85453(13)
N2_4 N 0.2334(4) 0.8601(3) 0.79874(15)
C1_4 C 0.1518(4) 0.8114(4) 0.68964(16)
C2_4 C 0.7567(4) 0.6367(4) 0.96709(18)
C3_4 C 0.7541(5) 0.8827(4) 0.96008(18)
H1_4 H 0.856131 0.883775 0.972641
C4_4 C 0.1396(4) 0.6964(4) 0.84898(17)
C6_4 C 0.2770(4) 0.8860(4) 0.91014(17)
H2_4 H 0.246028 0.976910 0.903486
H3_4 H 0.235564 0.852520 0.945205
C7_4 C 0.1015(5) 0.6186(4) 0.90267(17)
C8_4 C 0.1591(4) 0.7794(4) 0.75646(16)
C9_4 C 0.6774(4) 0.9987(4) 0.94329(16)
C10_4 C 0.5209(4) 0.7656(4) 0.94083(16)
H4_4 H 0.468976 0.686784 0.939726
C11_4 C 0.5230(4) 0.9975(4) 0.92636(17)
C12_4 C 0.4454(4) 0.8805(4) 0.92593(17)
C13_4 C 0.6762(4) 0.7649(4) 0.95784(17)
C14_4 C 0.0980(5) 0.6754(4) 0.78587(17)
H6_4 H 0.041059 0.606359 0.766687
loop_
_geom_bond_atom_site_label_1
_geom_bond_atom_site_label_2
_geom_bond_site_symmetry_1
_geom_bond_site_symmetry_2
O9 Eu1 1_555 1_555
O10 Eu1 1_555 1_555
O11 Eu1 1_555 1_555
O13 Eu1 1_555 1_555
O14 Eu1 1_555 1_555
O9 C7 1_555 1_555
O2 C5 1_555 1_555
O3 C1 1_555 1_555
O4 C2 1_555 1_555
O5 C1 1_555 1_555
O6 C5 1_555 1_555
O7 C7 1_555 1_555
O8 C2 1_555 1_555
N1 N2 1_555 1_555
N2 C8 1_555 1_555
C1 C8 1_555 1_555
C2 C13 1_555 1_555
C3 H1 1_555 1_555
C4 N1 1_555 1_555
C5 C9 1_555 1_555
C6 N1 1_555 1_555
H2 C6 1_555 1_555
H3 C6 1_555 1_555
C7 C4 1_555 1_555
C8 C14 1_555 1_555
C9 C3 1_555 1_555
C10 H4 1_555 1_555
C11 C9 1_555 1_555
H5 C11 1_555 1_555
C12 C6 1_555 1_555
C13 C3 1_555 1_555
C14 C4 1_555 1_555
H6 C14 1_555 1_555
Eu5 O2 1_555 1_555
Eu6 O3 1_555 1_555
O5 Eu6 1_555 1_555
O6 Eu5 1_555 1_555
C10 C12 1_555 1_555
C10 C13 1_555 1_555
C11 C12 1_555 1_555
O1 C7_2 1_555 1_555
O3_2 C1_2 1_555 1_555
O4_2 C2_2 1_555 1_555
O5_2 C1_2 1_555 1_555
O7_2 C7_2 1_555 1_555
O8_2 C2_2 1_555 1_555
N1_2 N2_2 1_555 1_555
N2_2 C8_2 1_555 1_555
C1_2 C8_2 1_555 1_555
C2_2 C13_2 1_555 1_555
C3_2 H1_2 1_555 1_555
C4_2 N1_2 1_555 1_555
C6_2 N1_2 1_555 1_555
H2_2 C6_2 1_555 1_555
H3_2 C6_2 1_555 1_555
C7_2 C4_2 1_555 1_555
C8_2 C14_2 1_555 1_555
C9_2 C3_2 1_555 1_555
C10_2 H4_2 1_555 1_555
C11_2 C9_2 1_555 1_555
C12_2 C6_2 1_555 1_555
C13_2 C3_2 1_555 1_555
C14_2 C4_2 1_555 1_555
H6_2 C14_2 1_555 1_555
Eu6 O4_2 1_555 1_555
Eu5 O3_2 1_555 1_555
O5_2 Eu5 1_555 1_555
C10_2 C12_2 1_555 1_555
C10_2 C13_2 1_555 1_555
C11_2 C12_2 1_555 1_555
O2_2 C5_2 1_555 1_555
O6_2 C5_2 1_555 1_555
Eu6 O2_2 1_555 1_555
O6_2 Eu6 1_555 1_555
O10_2 Eu2 1_555 1_555
O11_2 Eu2 1_555 1_555
O12_2 Eu2 1_555 1_555
O13_2 Eu2 1_555 1_555
O14_2 Eu2 1_555 1_555
O1_2 C7_3 1_555 1_555
O10 C5_3 1_555 1_555
O11_2 C1_3 1_555 1_555
O12 C2_3 1_555 1_555
O13_2 C1_3 1_555 1_555
O14 C5_3 1_555 1_555
O15 C7_3 1_555 1_555
O8_3 C2_3 1_555 1_555
N1_3 N2_3 1_555 1_555
N2_3 C8_3 1_555 1_555
C1_3 C8_3 1_555 1_555
C2_3 C13_3 1_555 1_555
C3_3 H1_3 1_555 1_555
C4_3 N1_3 1_555 1_555
C5_3 C9_3 1_555 1_555
C6_3 N1_3 1_555 1_555
H2_3 C6_3 1_555 1_555
H3_3 C6_3 1_555 1_555
C7_3 C4_3 1_555 1_555
C8_3 C14_3 1_555 1_555
C9_3 C3_3 1_555 1_555
C10_3 H4_3 1_555 1_555
C11_3 C9_3 1_555 1_555
H5_3 C11_3 1_555 1_555
C12_3 C6_3 1_555 1_555
C13_3 C3_3 1_555 1_555
C14_3 C4_3 1_555 1_555
H6_3 C14_3 1_555 1_555
Eu5 O1_2 1_555 1_555
C10_3 C12_3 1_555 1_555
C10_3 C13_3 1_555 1_555
C11_3 C12_3 1_555 1_555
O10_2 C5_4 1_555 1_555
O14_2 C5_4 1_555 1_555
O9_2 C7_4 1_555 1_555
O11 C1_4 1_555 1_555
O12_2 C2_4 1_555 1_555
O13 C1_4 1_555 1_555
O15_2 C7_4 1_555 1_555
O8_4 C2_4 1_555 1_555
N1_4 N2_4 1_555 1_555
N2_4 C8_4 1_555 1_555
C1_4 C8_4 1_555 1_555
C2_4 C13_4 1_555 1_555
C3_4 H1_4 1_555 1_555
C4_4 N1_4 1_555 1_555
C6_4 N1_4 1_555 1_555
H2_4 C6_4 1_555 1_555
H3_4 C6_4 1_555 1_555
C7_4 C4_4 1_555 1_555
C8_4 C14_4 1_555 1_555
C9_4 C3_4 1_555 1_555
C10_4 H4_4 1_555 1_555
C11_4 C9_4 1_555 1_555
C12_4 C6_4 1_555 1_555
C13_4 C3_4 1_555 1_555
C14_4 C4_4 1_555 1_555
H6_4 C14_4 1_555 1_555
C10_4 C12_4 1_555 1_555
C10_4 C13_4 1_555 1_555
C11_4 C12_4 1_555 1_555

#END
