
###############################################################################
#
# This file contains modified crystal structure data generated from the
# MOF subset of the Cambridge Structural Database (CSD) v543 
# hosted by the Cambridge Crystallographic Data Centre (CCDC).
#
# This work is licensed under the Creative Commons
# Attribution-NonCommercial-ShareAlike 4.0 International License.
# To view a copy of this license, visit
# http://creativecommons.org/licenses/by-nc-sa/4.0/
# or send a letter to
# Creative Commons, PO Box 1866, Mountain View, CA 94042, USA.
#
# CIF created using the CSD Python API on 29 September 2022
# The structure has been converted into the P1 space group
# The structure has a 3D framework
# The original CSD entry OPUTUR is in the monoclinic crystal system
# The framework has been calculated to contain at least 10.0% void space
# The void calculation uses a probe of radius 1.32A, grid spacing 0.4
# The framework is charged, counterions have been retained in the structure
#
###############################################################################

data_OPUTUR
_chemical_formula_moiety         '(C56 H24 N8 O32 Tb2 4-)n'
_symmetry_cell_setting           triclinic
_symmetry_space_group_name_H-M   'P 1'
_symmetry_Int_Tables_number      1
_space_group_name_Hall           'P 1'
loop_
_symmetry_equiv_pos_site_id
_symmetry_equiv_pos_as_xyz
1 x,y,z
_cell_length_a                   9.2477(2)
_cell_length_b                   10.1192(2)
_cell_length_c                   21.7150(5)
_cell_angle_alpha                90
_cell_angle_beta                 100.542(2)
_cell_angle_gamma                90
_cell_volume                     1997.78
loop_
_atom_site_label
_atom_site_type_symbol
_atom_site_fract_x
_atom_site_fract_y
_atom_site_fract_z
Tb3 Tb 0.11657(2) 0.37460(2) 0.05970(2)
O2 O 0.3210(3) 0.2279(3) 0.07749(12)
O4 O 0.1090(3) 0.1374(3) 0.03522(11)
H3 H 0.527770 0.076916 0.084496
C9 C 0.2449(4) 0.1292(4) 0.05644(15)
O1 O 0.1127(3) 0.6268(3) 0.00320(12)
O3 O 0.8304(3) 0.6410(3) 0.04353(11)
O5 O 0.3053(3) 0.5351(3) 0.06195(12)
C1 C 0.2428(4) 0.6336(4) 0.03396(15)
O6 O 0.7613(3) 0.8928(2) 0.32720(11)
N1 N 0.7643(3) 0.8592(3) 0.20118(13)
C2 C 0.5546(4) 0.8804(4) 0.07333(15)
C3 C 0.4789(4) 0.7635(4) 0.05815(15)
H1 H 0.532066 0.683059 0.058585
C4 C 0.2455(4) 0.8813(4) 0.03894(15)
H2 H 0.141797 0.883125 0.025516
C5 C 0.4767(4) 0.9966(4) 0.07303(16)
C6 C 0.7210(4) 0.8858(4) 0.08981(16)
H4 H 0.762988 0.852345 0.054006
H5 H 0.752598 0.978778 0.097303
N2 N 0.7784(3) 0.8071(3) 0.14563(13)
O7 O 0.9941(3) 0.5299(3) 0.11302(11)
C7 C 0.3230(4) 0.7618(4) 0.04191(15)
C8 C 0.8393(4) 0.7758(4) 0.24378(16)
C10 C 0.8960(4) 0.6169(4) 0.09755(15)
C11 C 0.3234(4) 0.9976(4) 0.05605(16)
C12 C 0.8472(4) 0.8086(4) 0.31087(15)
C13 C 0.8577(4) 0.6949(4) 0.15130(16)
C14 C 0.9004(4) 0.6720(4) 0.21479(17)
H6 H 0.958564 0.601115 0.234415
O8 O 0.9434(3) 0.7496(3) 0.35131(11)
Tb4 Tb 0.88343(2) 0.87460(2) 0.44030(2)
O13 O 0.2387(3) 0.3928(2) 0.17280(11)
O15 O 0.0566(3) 0.2496(3) 0.14869(11)
Tb6 Tb 0.88343(2) 0.62540(2) 0.94030(2)
O11 O 0.1696(3) 0.3590(3) 0.95647(11)
O9 O 0.8873(3) 0.3732(3) 0.99680(12)
Tb5 Tb 0.11657(2) 0.12540(2) 0.55970(2)
O14 O 0.0059(3) 0.0299(3) 0.38698(11)
O9_2 O 0.1127(3) 0.8732(3) 0.50320(12)
O1_2 O 0.8873(3) 0.1268(3) 0.49680(12)
O2_2 O 0.6790(3) 0.7279(3) 0.42251(12)
O3_2 O 0.1696(3) 0.1410(3) 0.45647(11)
O4_2 O 0.8910(3) 0.6374(3) 0.46478(11)
O5_2 O 0.6947(3) 0.0351(3) 0.43805(12)
C1_2 C 0.7572(4) 0.1336(4) 0.46604(15)
N1_2 N 0.2357(3) 0.3592(3) 0.29882(13)
C2_2 C 0.4454(4) 0.3804(4) 0.42667(15)
C3_2 C 0.5211(4) 0.2635(4) 0.44185(15)
H1_2 H 0.467934 0.183059 0.441415
C4_2 C 0.7545(4) 0.3813(4) 0.46106(15)
H2_2 H 0.858203 0.383125 0.474484
C5_2 C 0.5233(4) 0.4966(4) 0.42697(16)
H3_2 H 0.472230 0.576916 0.415504
C6_2 C 0.2790(4) 0.3858(4) 0.41019(16)
H4_2 H 0.237012 0.352345 0.445994
H5_2 H 0.247402 0.478778 0.402697
N2_2 N 0.2216(3) 0.3071(3) 0.35437(13)
C7_2 C 0.6770(4) 0.2618(4) 0.45809(15)
C8_2 C 0.1607(4) 0.2758(4) 0.25622(16)
C9_2 C 0.7551(4) 0.6292(4) 0.44356(15)
C10_2 C 0.1040(4) 0.1169(4) 0.40245(15)
C11_2 C 0.6766(4) 0.4976(4) 0.44395(16)
C12_2 C 0.1528(4) 0.3086(4) 0.18913(15)
C13_2 C 0.1423(4) 0.1949(4) 0.34870(16)
C14_2 C 0.0996(4) 0.1720(4) 0.28521(17)
H6_2 H 0.041436 0.101115 0.265585
O11_2 O 0.8304(3) 0.8590(3) 0.54353(11)
O14_2 O 0.0059(3) 0.4701(3) 0.88698(11)
O5_3 O 0.6947(3) 0.4649(3) 0.93805(12)
C1_3 C 0.7572(4) 0.3664(4) 0.96604(15)
O6_2 O 0.2387(3) 0.1072(2) 0.67280(11)
N1_3 N 0.2357(3) 0.1408(3) 0.79882(13)
C2_3 C 0.4454(4) 0.1196(4) 0.92667(15)
C3_3 C 0.5211(4) 0.2365(4) 0.94185(15)
H1_3 H 0.467934 0.316941 0.941415
C4_3 C 0.7545(4) 0.1187(4) 0.96106(15)
H2_3 H 0.858203 0.116875 0.974484
C5_3 C 0.5233(4) 0.0034(4) 0.92697(16)
C6_3 C 0.2790(4) 0.1142(4) 0.91019(16)
H4_3 H 0.237012 0.147655 0.945994
H5_3 H 0.247402 0.021222 0.902697
N2_3 N 0.2216(3) 0.1929(3) 0.85437(13)
C7_3 C 0.6770(4) 0.2382(4) 0.95809(15)
C8_3 C 0.1607(4) 0.2242(4) 0.75622(16)
C10_3 C 0.1040(4) 0.3831(4) 0.90245(15)
C11_3 C 0.6766(4) 0.0024(4) 0.94395(16)
C12_3 C 0.1528(4) 0.1914(4) 0.68913(15)
C13_3 C 0.1423(4) 0.3051(4) 0.84870(16)
C14_3 C 0.0996(4) 0.3280(4) 0.78521(17)
H6_3 H 0.041436 0.398885 0.765585
O8_2 O 0.0566(3) 0.2504(3) 0.64869(11)
O10 O 0.6790(3) 0.7721(3) 0.92251(12)
O12 O 0.8910(3) 0.8626(3) 0.96478(11)
O13_2 O 0.7613(3) 0.6072(2) 0.82720(11)
O15_2 O 0.9434(3) 0.7504(3) 0.85131(11)
H3_3 H 0.472230 0.923084 0.915504
C9_3 C 0.7551(4) 0.8708(4) 0.94356(15)
O10_2 O 0.3210(3) 0.2721(3) 0.57749(12)
O12_2 O 0.1090(3) 0.3626(3) 0.53522(11)
O5_4 O 0.3053(3) 0.9649(3) 0.56195(12)
C1_4 C 0.2428(4) 0.8664(4) 0.53396(15)
N1_4 N 0.7643(3) 0.6408(3) 0.70118(13)
C2_4 C 0.5546(4) 0.6196(4) 0.57333(15)
C3_4 C 0.4789(4) 0.7365(4) 0.55815(15)
H1_4 H 0.532066 0.816941 0.558585
C4_4 C 0.2455(4) 0.6187(4) 0.53894(15)
H2_4 H 0.141797 0.616875 0.525516
C5_4 C 0.4767(4) 0.5034(4) 0.57303(16)
H3_4 H 0.527770 0.423084 0.584496
C6_4 C 0.7210(4) 0.6142(4) 0.58981(16)
H4_4 H 0.762988 0.647655 0.554006
H5_4 H 0.752598 0.521222 0.597303
N2_4 N 0.7784(3) 0.6929(3) 0.64563(13)
O7_2 O 0.9941(3) 0.9701(3) 0.61302(11)
C7_4 C 0.3230(4) 0.7382(4) 0.54191(15)
C8_4 C 0.8393(4) 0.7242(4) 0.74378(16)
C9_4 C 0.2449(4) 0.3708(4) 0.55644(15)
C10_4 C 0.8960(4) 0.8831(4) 0.59755(15)
C11_4 C 0.3234(4) 0.5024(4) 0.55605(16)
C12_4 C 0.8472(4) 0.6914(4) 0.81087(15)
C13_4 C 0.8577(4) 0.8051(4) 0.65130(16)
C14_4 C 0.9004(4) 0.8280(4) 0.71479(17)
H6_4 H 0.958564 0.898885 0.734415
loop_
_geom_bond_atom_site_label_1
_geom_bond_atom_site_label_2
_geom_bond_site_symmetry_1
_geom_bond_site_symmetry_2
O2 C9 1_555 1_555
O4 C9 1_555 1_555
Tb3 O2 1_555 1_555
O4 Tb3 1_555 1_555
Tb3 O1 1_555 1_555
O1 C1 1_555 1_555
O3 C10 1_555 1_555
O5 Tb3 1_555 1_555
C1 O5 1_555 1_555
O6 C12 1_555 1_555
N1 N2 1_555 1_555
C2 C3 1_555 1_555
C3 H1 1_555 1_555
C4 H2 1_555 1_555
C5 C2 1_555 1_555
C6 C2 1_555 1_555
H4 C6 1_555 1_555
H5 C6 1_555 1_555
N2 C6 1_555 1_555
O7 C10 1_555 1_555
C7 C1 1_555 1_555
C8 N1 1_555 1_555
C10 C13 1_555 1_555
C11 C4 1_555 1_555
C12 C8 1_555 1_555
C13 N2 1_555 1_555
C14 C8 1_555 1_555
H6 C14 1_555 1_555
O8 C12 1_555 1_555
Tb4 O6 1_555 1_555
O13 Tb3 1_555 1_555
O15 Tb3 1_555 1_555
C3 C7 1_555 1_555
C4 C7 1_555 1_555
C5 C11 1_555 1_555
C13 C14 1_555 1_555
O8 Tb4 1_555 1_555
Tb6 O9 1_555 1_555
O1_2 C1_2 1_555 1_555
O2_2 C9_2 1_555 1_555
O3_2 C10_2 1_555 1_555
O4_2 C9_2 1_555 1_555
C1_2 O5_2 1_555 1_555
O13 C12_2 1_555 1_555
N1_2 N2_2 1_555 1_555
C2_2 C3_2 1_555 1_555
C3_2 H1_2 1_555 1_555
C4_2 H2_2 1_555 1_555
C5_2 C2_2 1_555 1_555
H3_2 C5_2 1_555 1_555
C6_2 C2_2 1_555 1_555
H4_2 C6_2 1_555 1_555
H5_2 C6_2 1_555 1_555
N2_2 C6_2 1_555 1_555
O14 C10_2 1_555 1_555
C7_2 C1_2 1_555 1_555
C8_2 N1_2 1_555 1_555
C9_2 C11_2 1_555 1_555
C10_2 C13_2 1_555 1_555
C11_2 C4_2 1_555 1_555
C12_2 C8_2 1_555 1_555
C13_2 N2_2 1_555 1_555
C14_2 C8_2 1_555 1_555
H6_2 C14_2 1_555 1_555
O15 C12_2 1_555 1_555
Tb4 O2_2 1_555 1_555
Tb5 O3_2 1_555 1_555
O4_2 Tb4 1_555 1_555
C3_2 C7_2 1_555 1_555
C4_2 C7_2 1_555 1_555
C5_2 C11_2 1_555 1_555
C13_2 C14_2 1_555 1_555
O11_2 Tb4 1_555 1_555
O9 C1_3 1_555 1_555
O11 C10_3 1_555 1_555
O5_3 Tb6 1_555 1_555
C1_3 O5_3 1_555 1_555
O6_2 C12_3 1_555 1_555
N1_3 N2_3 1_555 1_555
C2_3 C3_3 1_555 1_555
C3_3 H1_3 1_555 1_555
C4_3 H2_3 1_555 1_555
C5_3 C2_3 1_555 1_555
C6_3 C2_3 1_555 1_555
H4_3 C6_3 1_555 1_555
H5_3 C6_3 1_555 1_555
N2_3 C6_3 1_555 1_555
O14_2 C10_3 1_555 1_555
C7_3 C1_3 1_555 1_555
C8_3 N1_3 1_555 1_555
C10_3 C13_3 1_555 1_555
C11_3 C4_3 1_555 1_555
C12_3 C8_3 1_555 1_555
C13_3 N2_3 1_555 1_555
C14_3 C8_3 1_555 1_555
H6_3 C14_3 1_555 1_555
O8_2 C12_3 1_555 1_555
Tb5 O6_2 1_555 1_555
O10 Tb6 1_555 1_555
O12 Tb6 1_555 1_555
O13_2 Tb6 1_555 1_555
O15_2 Tb6 1_555 1_555
C3_3 C7_3 1_555 1_555
C4_3 C7_3 1_555 1_555
C5_3 C11_3 1_555 1_555
C13_3 C14_3 1_555 1_555
O8_2 Tb5 1_555 1_555
O10 C9_3 1_555 1_555
O12 C9_3 1_555 1_555
O10_2 Tb5 1_555 1_555
O12_2 Tb5 1_555 1_555
O9_2 C1_4 1_555 1_555
O10_2 C9_4 1_555 1_555
O11_2 C10_4 1_555 1_555
O12_2 C9_4 1_555 1_555
C1_4 O5_4 1_555 1_555
O13_2 C12_4 1_555 1_555
N1_4 N2_4 1_555 1_555
C2_4 C3_4 1_555 1_555
C3_4 H1_4 1_555 1_555
C4_4 H2_4 1_555 1_555
C5_4 C2_4 1_555 1_555
H3_4 C5_4 1_555 1_555
C6_4 C2_4 1_555 1_555
H4_4 C6_4 1_555 1_555
H5_4 C6_4 1_555 1_555
N2_4 C6_4 1_555 1_555
O7_2 C10_4 1_555 1_555
C7_4 C1_4 1_555 1_555
C8_4 N1_4 1_555 1_555
C9_4 C11_4 1_555 1_555
C10_4 C13_4 1_555 1_555
C11_4 C4_4 1_555 1_555
C12_4 C8_4 1_555 1_555
C13_4 N2_4 1_555 1_555
C14_4 C8_4 1_555 1_555
H6_4 C14_4 1_555 1_555
O15_2 C12_4 1_555 1_555
C3_4 C7_4 1_555 1_555
C4_4 C7_4 1_555 1_555
C5_4 C11_4 1_555 1_555
C13_4 C14_4 1_555 1_555

#END
