
###############################################################################
#
# This file contains modified crystal structure data generated from the
# MOF subset of the Cambridge Structural Database (CSD) v543 
# hosted by the Cambridge Crystallographic Data Centre (CCDC).
#
# This work is licensed under the Creative Commons
# Attribution-NonCommercial-ShareAlike 4.0 International License.
# To view a copy of this license, visit
# http://creativecommons.org/licenses/by-nc-sa/4.0/
# or send a letter to
# Creative Commons, PO Box 1866, Mountain View, CA 94042, USA.
#
# CIF created using the CSD Python API on 29 September 2022
# The structure has been converted into the P1 space group
# The structure has a 3D framework
# The original CSD entry OPUVAZ is in the monoclinic crystal system
# The framework has been calculated to contain at least 10.0% void space
# The void calculation uses a probe of radius 1.32A, grid spacing 0.4
# The framework is charged, counterions have been retained in the structure
#
###############################################################################

data_OPUVAZ
_chemical_formula_moiety         '(C56 H24 N8 O32 4-)n'
_symmetry_cell_setting           triclinic
_symmetry_space_group_name_H-M   'P 1'
_symmetry_Int_Tables_number      1
_space_group_name_Hall           'P 1'
loop_
_symmetry_equiv_pos_site_id
_symmetry_equiv_pos_as_xyz
1 x,y,z
_cell_length_a                   9.1815(5)
_cell_length_b                   10.1647(4)
_cell_length_c                   21.7438(9)
_cell_angle_alpha                90
_cell_angle_beta                 99.809(4)
_cell_angle_gamma                90
_cell_volume                     1999.62
loop_
_atom_site_label
_atom_site_type_symbol
_atom_site_fract_x
_atom_site_fract_y
_atom_site_fract_z
Dy1 Dy 0.11710(3) 0.12670(3) 0.56004(2)
O9 O 0.1092(4) 0.3620(3) 0.53707(19)
O10 O 0.1679(5) 0.1418(4) 0.45616(16)
O12 O 0.3226(4) 0.2706(4) 0.57572(18)
O13 O 0.2396(5) 0.1080(4) 0.67308(17)
O14 O 0.0551(4) 0.2463(4) 0.64961(16)
O11 O 0.3035(4) 0.9635(3) 0.55986(17)
O1 O 0.8908(4) 0.6380(3) 0.46293(19)
O3 O 0.6965(4) 0.0365(3) 0.44014(17)
O4 O 0.6774(4) 0.7294(4) 0.42428(18)
O5 O 0.2396(5) 0.3920(4) 0.17308(17)
O6 O 0.0551(4) 0.2537(4) 0.14961(16)
O7 O 0.0055(5) 0.0310(4) 0.38760(17)
N1 N 0.2206(5) 0.3093(4) 0.35443(18)
O8 O 0.8865(5) 0.1310(4) 0.4998(2)
N2 N 0.2342(5) 0.3606(4) 0.2986(2)
C1 C 0.2789(6) 0.3851(5) 0.4104(2)
H1 H 0.237744 0.350700 0.445408
H2 H 0.247311 0.475924 0.404206
C2 C 0.5223(6) 0.4980(5) 0.4265(2)
H3 H 0.471459 0.576012 0.415635
C3 C 0.7569(6) 0.1358(5) 0.4674(2)
C4 C 0.6767(6) 0.2668(5) 0.4585(2)
C5 C 0.4458(6) 0.3809(5) 0.4263(2)
C6 C 0.7535(6) 0.3821(5) 0.4602(2)
H4 H 0.855578 0.382758 0.472652
C7 C 0.7557(6) 0.6284(5) 0.4433(2)
C8 C 0.1027(6) 0.1191(5) 0.4031(2)
C9 C 0.1403(6) 0.1963(5) 0.3491(2)
C10 C 0.1588(6) 0.2806(5) 0.2565(2)
C11 C 0.1505(6) 0.3106(5) 0.1893(2)
C12 C 0.5231(6) 0.2646(5) 0.4413(2)
H5 H 0.472376 0.185173 0.440058
C13 C 0.0956(7) 0.1759(6) 0.2853(2)
H6 H 0.036972 0.108035 0.266004
C14 C 0.6774(6) 0.4991(5) 0.4432(2)
Dy5 Dy 0.88290(3) 0.87330(3) 0.43996(2)
Dy6 Dy 0.11710(3) 0.37330(3) 0.06004(2)
O15 O 0.9945(5) 0.9690(4) 0.61240(17)
O1_2 O 0.1092(4) 0.1380(3) 0.03707(19)
O4_2 O 0.3226(4) 0.2294(4) 0.07572(18)
H3_2 H 0.528541 0.076012 0.084365
C7_2 C 0.2443(6) 0.1284(5) 0.0567(2)
O2 O 0.8321(5) 0.6418(4) 0.04384(16)
O3_2 O 0.3035(4) 0.5365(3) 0.05986(17)
O5_2 O 0.7604(5) 0.8920(4) 0.32692(17)
O6_2 O 0.9449(4) 0.7537(4) 0.35039(16)
O7_2 O 0.9945(5) 0.5310(4) 0.11240(17)
N1_2 N 0.7794(5) 0.8093(4) 0.14557(18)
O8_2 O 0.1135(5) 0.6310(4) 0.0002(2)
N2_2 N 0.7658(5) 0.8606(4) 0.2014(2)
C1_2 C 0.7211(6) 0.8851(5) 0.0896(2)
H1_2 H 0.762256 0.850700 0.054592
H2_2 H 0.752689 0.975924 0.095794
C2_2 C 0.4777(6) 0.9980(5) 0.0735(2)
C3_2 C 0.2431(6) 0.6358(5) 0.0326(2)
C4_2 C 0.3233(6) 0.7668(5) 0.0415(2)
C5_2 C 0.5542(6) 0.8809(5) 0.0737(2)
C6_2 C 0.2465(6) 0.8821(5) 0.0398(2)
H4_2 H 0.144422 0.882758 0.027348
C8_2 C 0.8973(6) 0.6191(5) 0.0969(2)
C9_2 C 0.8597(6) 0.6963(5) 0.1509(2)
C10_2 C 0.8412(6) 0.7806(5) 0.2435(2)
C11_2 C 0.8495(6) 0.8106(5) 0.3107(2)
C12_2 C 0.4769(6) 0.7646(5) 0.0587(2)
H5_2 H 0.527624 0.685173 0.059942
C13_2 C 0.9044(7) 0.6759(6) 0.2147(2)
H6_2 H 0.963028 0.608035 0.233996
C14_2 C 0.3226(6) 0.9991(5) 0.0568(2)
Dy2 Dy 0.88290(3) 0.62670(3) 0.93996(2)
O15_2 O 0.0055(5) 0.4690(4) 0.88760(17)
O9_2 O 0.8908(4) 0.8620(3) 0.96293(19)
O11_2 O 0.6965(4) 0.4635(3) 0.94014(17)
O12_2 O 0.6774(4) 0.7706(4) 0.92428(18)
O13_2 O 0.7604(5) 0.6080(4) 0.82692(17)
O14_2 O 0.9449(4) 0.7463(4) 0.85039(16)
O2_2 O 0.8321(5) 0.8582(4) 0.54384(16)
N1_3 N 0.7794(5) 0.6907(4) 0.64557(18)
O8_3 O 0.1135(5) 0.8690(4) 0.5002(2)
N2_3 N 0.7658(5) 0.6394(4) 0.7014(2)
C1_3 C 0.7211(6) 0.6149(5) 0.5896(2)
H1_3 H 0.762256 0.649300 0.554592
H2_3 H 0.752689 0.524076 0.595794
C2_3 C 0.4777(6) 0.5020(5) 0.5735(2)
H3_3 H 0.528541 0.423988 0.584365
C3_3 C 0.2431(6) 0.8642(5) 0.5326(2)
C4_3 C 0.3233(6) 0.7332(5) 0.5415(2)
C5_3 C 0.5542(6) 0.6191(5) 0.5737(2)
C6_3 C 0.2465(6) 0.6179(5) 0.5398(2)
H4_3 H 0.144422 0.617242 0.527348
C7_3 C 0.2443(6) 0.3716(5) 0.5567(2)
C8_3 C 0.8973(6) 0.8809(5) 0.5969(2)
C9_3 C 0.8597(6) 0.8037(5) 0.6509(2)
C10_3 C 0.8412(6) 0.7194(5) 0.7435(2)
C11_3 C 0.8495(6) 0.6894(5) 0.8107(2)
C12_3 C 0.4769(6) 0.7354(5) 0.5587(2)
H5_3 H 0.527624 0.814827 0.559942
C13_3 C 0.9044(7) 0.8241(6) 0.7147(2)
H6_3 H 0.963028 0.891965 0.733996
C14_3 C 0.3226(6) 0.5009(5) 0.5568(2)
O10_2 O 0.1679(5) 0.3582(4) 0.95616(16)
N1_4 N 0.2206(5) 0.1907(4) 0.85443(18)
O8_4 O 0.8865(5) 0.3690(4) 0.9998(2)
N2_4 N 0.2342(5) 0.1394(4) 0.7986(2)
C1_4 C 0.2789(6) 0.1149(5) 0.9104(2)
H1_4 H 0.237744 0.149300 0.945408
H2_4 H 0.247311 0.024076 0.904206
C2_4 C 0.5223(6) 0.0020(5) 0.9265(2)
C3_4 C 0.7569(6) 0.3642(5) 0.9674(2)
C4_4 C 0.6767(6) 0.2332(5) 0.9585(2)
C5_4 C 0.4458(6) 0.1191(5) 0.9263(2)
C6_4 C 0.7535(6) 0.1179(5) 0.9602(2)
H4_4 H 0.855578 0.117242 0.972652
C8_4 C 0.1027(6) 0.3809(5) 0.9031(2)
C9_4 C 0.1403(6) 0.3037(5) 0.8491(2)
C10_4 C 0.1588(6) 0.2194(5) 0.7565(2)
C11_4 C 0.1505(6) 0.1894(5) 0.6893(2)
C12_4 C 0.5231(6) 0.2354(5) 0.9413(2)
H5_4 H 0.472376 0.314827 0.940058
C13_4 C 0.0956(7) 0.3241(6) 0.7853(2)
H6_4 H 0.036972 0.391965 0.766004
C14_4 C 0.6774(6) 0.0009(5) 0.9432(2)
H3_4 H 0.471459 0.923988 0.915635
C7_4 C 0.7557(6) 0.8716(5) 0.9433(2)
loop_
_geom_bond_atom_site_label_1
_geom_bond_atom_site_label_2
_geom_bond_site_symmetry_1
_geom_bond_site_symmetry_2
O9 Dy1 1_555 1_555
O10 Dy1 1_555 1_555
O12 Dy1 1_555 1_555
O13 Dy1 1_555 1_555
O14 Dy1 1_555 1_555
O1 C7 1_555 1_555
O10 C8 1_555 1_555
O3 C3 1_555 1_555
O4 C7 1_555 1_555
O5 C11 1_555 1_555
O6 C11 1_555 1_555
O7 C8 1_555 1_555
N1 N2 1_555 1_555
O8 C3 1_555 1_555
N2 C10 1_555 1_555
C1 N1 1_555 1_555
H1 C1 1_555 1_555
H2 C1 1_555 1_555
C2 H3 1_555 1_555
C3 C4 1_555 1_555
C4 C6 1_555 1_555
C5 C1 1_555 1_555
C6 H4 1_555 1_555
C7 C14 1_555 1_555
C8 C9 1_555 1_555
C9 N1 1_555 1_555
C10 C11 1_555 1_555
C12 C4 1_555 1_555
H5 C12 1_555 1_555
C13 C9 1_555 1_555
H6 C13 1_555 1_555
C14 C2 1_555 1_555
Dy5 O1 1_555 1_555
Dy6 O5 1_555 1_555
O4 Dy5 1_555 1_555
O6 Dy6 1_555 1_555
C2 C5 1_555 1_555
C5 C12 1_555 1_555
C6 C14 1_555 1_555
C10 C13 1_555 1_555
O1_2 C7_2 1_555 1_555
O4_2 C7_2 1_555 1_555
Dy6 O1_2 1_555 1_555
O4_2 Dy6 1_555 1_555
O2 C8_2 1_555 1_555
O3_2 C3_2 1_555 1_555
O5_2 C11_2 1_555 1_555
O6_2 C11_2 1_555 1_555
O7_2 C8_2 1_555 1_555
N1_2 N2_2 1_555 1_555
O8_2 C3_2 1_555 1_555
N2_2 C10_2 1_555 1_555
C1_2 N1_2 1_555 1_555
H1_2 C1_2 1_555 1_555
H2_2 C1_2 1_555 1_555
C3_2 C4_2 1_555 1_555
C4_2 C6_2 1_555 1_555
C5_2 C1_2 1_555 1_555
C6_2 H4_2 1_555 1_555
C8_2 C9_2 1_555 1_555
C9_2 N1_2 1_555 1_555
C10_2 C11_2 1_555 1_555
C12_2 C4_2 1_555 1_555
H5_2 C12_2 1_555 1_555
C13_2 C9_2 1_555 1_555
H6_2 C13_2 1_555 1_555
C14_2 C2_2 1_555 1_555
Dy6 O3_2 1_555 1_555
Dy5 O5_2 1_555 1_555
O6_2 Dy5 1_555 1_555
C2_2 C5_2 1_555 1_555
C5_2 C12_2 1_555 1_555
C6_2 C14_2 1_555 1_555
C10_2 C13_2 1_555 1_555
O9_2 Dy2 1_555 1_555
O11_2 Dy2 1_555 1_555
O12_2 Dy2 1_555 1_555
O13_2 Dy2 1_555 1_555
O14_2 Dy2 1_555 1_555
O9 C7_3 1_555 1_555
O2_2 C8_3 1_555 1_555
O11 C3_3 1_555 1_555
O12 C7_3 1_555 1_555
O13_2 C11_3 1_555 1_555
O14_2 C11_3 1_555 1_555
O15 C8_3 1_555 1_555
N1_3 N2_3 1_555 1_555
O8_3 C3_3 1_555 1_555
N2_3 C10_3 1_555 1_555
C1_3 N1_3 1_555 1_555
H1_3 C1_3 1_555 1_555
H2_3 C1_3 1_555 1_555
C2_3 H3_3 1_555 1_555
C3_3 C4_3 1_555 1_555
C4_3 C6_3 1_555 1_555
C5_3 C1_3 1_555 1_555
C6_3 H4_3 1_555 1_555
C7_3 C14_3 1_555 1_555
C8_3 C9_3 1_555 1_555
C9_3 N1_3 1_555 1_555
C10_3 C11_3 1_555 1_555
C12_3 C4_3 1_555 1_555
H5_3 C12_3 1_555 1_555
C13_3 C9_3 1_555 1_555
H6_3 C13_3 1_555 1_555
C14_3 C2_3 1_555 1_555
Dy5 O2_2 1_555 1_555
C2_3 C5_3 1_555 1_555
C5_3 C12_3 1_555 1_555
C6_3 C14_3 1_555 1_555
C10_3 C13_3 1_555 1_555
O10_2 C8_4 1_555 1_555
O11_2 C3_4 1_555 1_555
O13 C11_4 1_555 1_555
O14 C11_4 1_555 1_555
O15_2 C8_4 1_555 1_555
N1_4 N2_4 1_555 1_555
O8_4 C3_4 1_555 1_555
N2_4 C10_4 1_555 1_555
C1_4 N1_4 1_555 1_555
H1_4 C1_4 1_555 1_555
H2_4 C1_4 1_555 1_555
C3_4 C4_4 1_555 1_555
C4_4 C6_4 1_555 1_555
C5_4 C1_4 1_555 1_555
C6_4 H4_4 1_555 1_555
C8_4 C9_4 1_555 1_555
C9_4 N1_4 1_555 1_555
C10_4 C11_4 1_555 1_555
C12_4 C4_4 1_555 1_555
H5_4 C12_4 1_555 1_555
C13_4 C9_4 1_555 1_555
H6_4 C13_4 1_555 1_555
C14_4 C2_4 1_555 1_555
C2_4 C5_4 1_555 1_555
C5_4 C12_4 1_555 1_555
C6_4 C14_4 1_555 1_555
C10_4 C13_4 1_555 1_555
O9_2 C7_4 1_555 1_555
O12_2 C7_4 1_555 1_555

#END
