
###############################################################################
#
# This file contains modified crystal structure data generated from the
# MOF subset of the Cambridge Structural Database (CSD) v543 
# hosted by the Cambridge Crystallographic Data Centre (CCDC).
#
# This work is licensed under the Creative Commons
# Attribution-NonCommercial-ShareAlike 4.0 International License.
# To view a copy of this license, visit
# http://creativecommons.org/licenses/by-nc-sa/4.0/
# or send a letter to
# Creative Commons, PO Box 1866, Mountain View, CA 94042, USA.
#
# CIF created using the CSD Python API on 29 September 2022
# The structure has been converted into the P1 space group
# The structure has a 3D framework
# The original CSD entry OQANIE is in the orthorhombic crystal system
# The original CSD entry OQANIE is in a Sohncke space group
# The framework has been calculated to contain at least 10.0% void space
# The void calculation uses a probe of radius 1.32A, grid spacing 0.4
# H atom positions have been added when not included in the experimental data
#
###############################################################################

data_OQANIE
_chemical_formula_moiety         '(C96 H108 Cu8 O60)n'
_symmetry_cell_setting           triclinic
_symmetry_space_group_name_H-M   'P 1'
_symmetry_Int_Tables_number      1
_space_group_name_Hall           'P 1'
loop_
_symmetry_equiv_pos_site_id
_symmetry_equiv_pos_as_xyz
1 x,y,z
_cell_length_a                   18.253(4)
_cell_length_b                   18.660(4)
_cell_length_c                   11.928(2)
_cell_angle_alpha                90
_cell_angle_beta                 90
_cell_angle_gamma                90
_cell_volume                     4062.69
loop_
_atom_site_label
_atom_site_type_symbol
_atom_site_fract_x
_atom_site_fract_y
_atom_site_fract_z
Cu4 Cu 0.78042(7) 0.22857(9) 0.08729(10)
C13 C 0.7017(7) 0.0791(8) 0.8484(11)
C14 C 0.7201(7) 0.0117(8) 0.8987(9)
H12 H 0.7439 0.0095 0.9694
C17 C 0.6487(9) 0.0147(10) 0.6908(11)
C18 C 0.6680(10) 0.0794(10) 0.7457(12)
H14 H 0.6573 0.1239 0.7106
C19 C 0.7169(7) 0.1444(8) 0.9085(10)
H18 H 0.5485 0.0167 0.4044
C23 C 0.6887(16) 0.022(4) 0.243(2)
H19 H 0.6732 0.0657 0.2030
C24 C 0.7622(16) 0.014(4) 0.212(3)
H22 H 0.7731 0.0362 0.1381
O8 O 0.6946(5) 0.2031(6) 0.8595(7)
O9 O 0.7511(5) 0.1450(5) 0.9979(7)
O12 O 0.6222(10) 0.0225(7) 0.5830(9)
O13 O 0.6492(19) 0.026(2) 0.3438(17)
O14 O 0.787(2) 0.0535(14) 0.2978(17)
H24 H 0.7816 0.0973 0.2829
Cu6 Cu 0.70852(7) 0.29760(8) 0.92887(10)
Cu2 Cu 0.79148(7) 0.79760(8) 0.07113(10)
C1 C 0.4417(6) 0.7659(9) 0.1830(10)
C2 C 0.5051(6) 0.7614(8) 0.1236(9)
H1 H 0.5034 0.7482 0.0468
C3 C 0.5733(6) 0.7760(8) 0.1740(9)
C4 C 0.5719(6) 0.7931(9) 0.2898(9)
H2 H 0.6165 0.8042 0.3268
C5 C 0.5069(8) 0.7942(9) 0.3508(9)
C6 C 0.4427(7) 0.7838(9) 0.2994(10)
H3 H 0.3981 0.7883 0.3399
C7 C 0.3702(7) 0.7564(9) 0.1247(10)
C8 C 0.6425(6) 0.7757(7) 0.1117(8)
C9 C 0.4527(7) 0.7941(11) 0.5331(9)
H4 H 0.4304 0.7473 0.5142
H5 H 0.4157 0.8321 0.5205
C10 C 0.4775(7) 0.7946(10) 0.6531(10)
H6 H 0.5046 0.8394 0.6686
H7 H 0.4342 0.7931 0.7031
C11 C 0.5334(8) 0.7278(11) 0.7922(12)
H8 H 0.4853 0.7253 0.8301
H9 H 0.5600 0.7700 0.8216
C12 C 0.5765(8) 0.6608(11) 0.8168(15)
H10 H 0.5704 0.6481 0.8968
H11 H 0.5569 0.6209 0.7713
O1 O 0.6976(5) 0.8026(6) 0.1532(7)
O2 O 0.6370(5) 0.7441(6) 0.0141(7)
O3 O 0.3734(4) 0.7204(6) 0.0329(7)
O4 O 0.3123(4) 0.7771(6) 0.1691(6)
O5 O 0.5154(5) 0.8065(7) 0.4652(7)
O6 O 0.5230(6) 0.7354(7) 0.6758(8)
O7 O 0.6530(5) 0.6696(7) 0.7929(8)
H23 H 0.6568 0.6904 0.7306
O15 O 0.8553(6) 0.8537(7) 0.1955(8)
H25 H 0.8563 0.8977 0.1805
H26 H 0.8360 0.8476 0.2587
Cu3 Cu 0.71958(7) 0.72857(9) 0.91271(10)
Cu5 Cu 0.21958(7) 0.77143(9) 0.08729(10)
O19 O 0.8054(5) 0.7031(6) 0.1405(7)
O20 O 0.7489(5) 0.6450(5) 0.0021(7)
C15 C 0.7024(7) 0.9500(7) 0.8411(10)
C16 C 0.6680(11) 0.9498(9) 0.7383(13)
H13 H 0.6577 0.9060 0.7008
C20 C 0.7253(7) 0.8793(7) 0.8934(10)
C21 C 0.6100(15) 0.9637(12) 0.5174(17)
H15 H 0.5685 0.9357 0.5479
H16 H 0.6540 0.9327 0.5173
C22 C 0.5932(17) 0.987(2) 0.402(2)
H17 H 0.5813 0.9435 0.3575
H20 H 0.6645 0.9819 0.2033
H21 H 0.7794 0.9642 0.2141
O10 O 0.7610(5) 0.8816(5) 0.9830(7)
O11 O 0.7005(5) 0.8224(5) 0.8464(7)
Cu7 Cu 0.29148(7) 0.70240(8) 0.92887(10)
O16 O 0.8734(4) 0.7796(6) 0.9671(7)
O17 O 0.8123(4) 0.7229(6) 0.8309(6)
H28 H 0.601028 0.669423 0.8175
Cu2_2 Cu 0.20852(7) 0.20240(8) 0.07113(10)
C1_2 C 0.5583(6) 0.2341(9) 0.1830(10)
C2_2 C 0.4949(6) 0.2386(8) 0.1236(9)
H1_2 H 0.4966 0.2518 0.0468
C3_2 C 0.4267(6) 0.2240(8) 0.1740(9)
C4_2 C 0.4281(6) 0.2069(9) 0.2898(9)
H2_2 H 0.3835 0.1958 0.3268
C5_2 C 0.4931(8) 0.2058(9) 0.3508(9)
C6_2 C 0.5573(7) 0.2162(9) 0.2994(10)
H3_2 H 0.6019 0.2117 0.3399
C7_2 C 0.6298(7) 0.2436(9) 0.1247(10)
C8_2 C 0.3575(6) 0.2243(7) 0.1117(8)
C9_2 C 0.5473(7) 0.2059(11) 0.5331(9)
H4_2 H 0.5696 0.2527 0.5142
H5_2 H 0.5843 0.1679 0.5205
C10_2 C 0.5225(7) 0.2054(10) 0.6531(10)
H6_2 H 0.4954 0.1606 0.6686
H7_2 H 0.5658 0.2069 0.7031
C11_2 C 0.4666(8) 0.2722(11) 0.7922(12)
H8_2 H 0.5147 0.2747 0.8301
H9_2 H 0.4400 0.2300 0.8216
C12_2 C 0.4235(8) 0.3392(11) 0.8168(15)
H10_2 H 0.4296 0.3519 0.8968
H11_2 H 0.4431 0.3791 0.7713
O1_2 O 0.3024(5) 0.1974(6) 0.1532(7)
O2_2 O 0.3630(5) 0.2559(6) 0.0141(7)
O3_2 O 0.6266(4) 0.2796(6) 0.0329(7)
O4_2 O 0.6877(4) 0.2229(6) 0.1691(6)
O5_2 O 0.4846(5) 0.1935(7) 0.4652(7)
O6_2 O 0.4770(6) 0.2646(7) 0.6758(8)
O7_2 O 0.3470(5) 0.3304(7) 0.7929(8)
H23_2 H 0.3432 0.3096 0.7306
O15_2 O 0.1447(6) 0.1463(7) 0.1955(8)
H25_2 H 0.1437 0.1023 0.1805
H26_2 H 0.1640 0.1524 0.2587
Cu3_2 Cu 0.28042(7) 0.27143(9) 0.91271(10)
O19_2 O 0.1946(5) 0.2969(6) 0.1405(7)
O20_2 O 0.2511(5) 0.3550(5) 0.0021(7)
C15_2 C 0.2976(7) 0.0500(7) 0.8411(10)
C16_2 C 0.3320(11) 0.0502(9) 0.7383(13)
H13_2 H 0.3423 0.0940 0.7008
C20_2 C 0.2747(7) 0.1207(7) 0.8934(10)
C21_2 C 0.3900(15) 0.0363(12) 0.5174(17)
H15_2 H 0.4315 0.0643 0.5479
H16_2 H 0.3460 0.0673 0.5173
C22_2 C 0.4068(17) 0.013(2) 0.402(2)
H17_2 H 0.4187 0.0565 0.3575
H20_2 H 0.3355 0.0181 0.2033
H21_2 H 0.2206 0.0358 0.2141
O10_2 O 0.2390(5) 0.1184(5) 0.9830(7)
O11_2 O 0.2995(5) 0.1776(5) 0.8464(7)
O16_2 O 0.1266(4) 0.2204(6) 0.9671(7)
O17_2 O 0.1877(4) 0.2771(6) 0.8309(6)
H28_2 H 0.398972 0.330577 0.8175
C13_2 C 0.2983(7) 0.9209(8) 0.8484(11)
C14_2 C 0.2799(7) 0.9883(8) 0.8987(9)
H12_2 H 0.2561 0.9905 0.9694
C17_2 C 0.3513(9) 0.9853(10) 0.6908(11)
C18_2 C 0.3320(10) 0.9206(10) 0.7457(12)
H14_2 H 0.3427 0.8761 0.7106
C19_2 C 0.2831(7) 0.8556(8) 0.9085(10)
H18_2 H 0.4515 0.9833 0.4044
C23_2 C 0.3113(16) 0.978(4) 0.243(2)
H19_2 H 0.3268 0.9343 0.2030
C24_2 C 0.2378(16) 0.986(4) 0.212(3)
H22_2 H 0.2269 0.9638 0.1381
O8_2 O 0.3054(5) 0.7969(6) 0.8595(7)
O9_2 O 0.2489(5) 0.8550(5) 0.9979(7)
O12_2 O 0.3778(10) 0.9775(7) 0.5830(9)
O13_2 O 0.3508(19) 0.974(2) 0.3438(17)
O14_2 O 0.213(2) 0.9465(14) 0.2978(17)
H24_2 H 0.2184 0.9027 0.2829
C1_3 C 0.0583(6) 0.2659(9) 0.8170(10)
C6_3 C 0.0573(7) 0.2838(9) 0.7006(10)
H3_3 H 0.1019 0.2883 0.6601
C7_3 C 0.1298(7) 0.2564(9) 0.8753(10)
C9_3 C 0.0473(7) 0.2941(11) 0.4669(9)
H4_3 H 0.0696 0.2473 0.4858
H5_3 H 0.0843 0.3321 0.4795
C10_3 C 0.0225(7) 0.2946(10) 0.3469(10)
H7_3 H 0.0658 0.2931 0.2969
H8_3 H 0.0147 0.2253 0.1699
C13_3 C 0.7983(7) 0.5791(8) 0.1516(11)
C14_3 C 0.7799(7) 0.5117(8) 0.1013(9)
H12_3 H 0.7561 0.5095 0.0306
C15_3 C 0.7976(7) 0.4500(7) 0.1589(10)
C16_3 C 0.8320(11) 0.4498(9) 0.2617(13)
H13_3 H 0.8423 0.4060 0.2992
C17_3 C 0.8513(9) 0.5147(10) 0.3092(11)
C18_3 C 0.8320(10) 0.5794(10) 0.2543(12)
H14_3 H 0.8427 0.6239 0.2894
C19_3 C 0.7831(7) 0.6444(8) 0.0915(10)
C20_3 C 0.7747(7) 0.3793(7) 0.1066(10)
C21_3 C 0.8900(15) 0.4637(12) 0.4826(17)
H15_3 H 0.9315 0.4357 0.4521
H16_3 H 0.8460 0.4327 0.4827
C22_3 C 0.9068(17) 0.487(2) 0.598(2)
H17_3 H 0.9187 0.4435 0.6425
H18_3 H 0.9515 0.5167 0.5956
C23_3 C 0.8113(16) 0.522(4) 0.757(2)
H19_3 H 0.8268 0.5657 0.7970
H20_3 H 0.8355 0.4819 0.7967
C24_3 C 0.7378(16) 0.514(4) 0.788(3)
H21_3 H 0.7206 0.4642 0.7859
H22_3 H 0.7269 0.5362 0.8619
O10_3 O 0.7390(5) 0.3816(5) 0.0170(7)
O11_3 O 0.7995(5) 0.3224(5) 0.1536(7)
O12_3 O 0.8778(10) 0.5225(7) 0.4170(9)
O13_3 O 0.8508(19) 0.526(2) 0.6562(17)
O14_3 O 0.713(2) 0.5535(14) 0.7022(17)
H24_3 H 0.7184 0.5973 0.7171
O18 O 0.8470(5) 0.1696(7) 0.2071(8)
H27 H 0.8432 0.1904 0.2694
H28_3 H 0.898972 0.169423 0.1825
C2_3 C 0.9949(6) 0.2614(8) 0.8764(9)
H1_3 H 0.9966 0.2482 0.9532
C3_3 C 0.9267(6) 0.2760(8) 0.8260(9)
C4_3 C 0.9281(6) 0.2931(9) 0.7102(9)
H2_3 H 0.8835 0.3042 0.6732
C5_3 C 0.9931(8) 0.2942(9) 0.6492(9)
C8_3 C 0.8575(6) 0.2757(7) 0.8883(8)
H6_3 H 0.9954 0.3394 0.3314
C11_3 C 0.9666(8) 0.2278(11) 0.2078(12)
H9_3 H 0.9400 0.2700 0.1784
C12_3 C 0.9235(8) 0.1608(11) 0.1832(15)
H10_3 H 0.9296 0.1481 0.1032
H11_3 H 0.9431 0.1209 0.2287
O1_3 O 0.8024(5) 0.3026(6) 0.8468(7)
O2_3 O 0.8630(5) 0.2441(6) 0.9859(7)
O5_3 O 0.9846(5) 0.3065(7) 0.5348(7)
O6_3 O 0.9770(6) 0.2354(7) 0.3242(8)
O15_3 O 0.6447(6) 0.3537(7) 0.8045(8)
H25_3 H 0.6437 0.3977 0.8195
H26_3 H 0.6640 0.3476 0.7413
C13_4 C 0.2017(7) 0.4209(8) 0.1516(11)
C14_4 C 0.2201(7) 0.4883(8) 0.1013(9)
H12_4 H 0.2439 0.4905 0.0306
C15_4 C 0.2024(7) 0.5500(7) 0.1589(10)
C16_4 C 0.1680(11) 0.5502(9) 0.2617(13)
H13_4 H 0.1577 0.5940 0.2992
C17_4 C 0.1487(9) 0.4853(10) 0.3092(11)
C18_4 C 0.1680(10) 0.4206(10) 0.2543(12)
H14_4 H 0.1573 0.3761 0.2894
C19_4 C 0.2169(7) 0.3556(8) 0.0915(10)
C20_4 C 0.2253(7) 0.6207(7) 0.1066(10)
C21_4 C 0.1100(15) 0.5363(12) 0.4826(17)
H15_4 H 0.0685 0.5643 0.4521
H16_4 H 0.1540 0.5673 0.4827
C22_4 C 0.0932(17) 0.513(2) 0.598(2)
H17_4 H 0.0813 0.5565 0.6425
H18_4 H 0.0485 0.4833 0.5956
C23_4 C 0.1887(16) 0.478(4) 0.757(2)
H19_4 H 0.1732 0.4343 0.7970
H20_4 H 0.1645 0.5181 0.7967
C24_4 C 0.2622(16) 0.486(4) 0.788(3)
H21_4 H 0.2794 0.5358 0.7859
H22_4 H 0.2731 0.4638 0.8619
O10_4 O 0.2610(5) 0.6184(5) 0.0170(7)
O11_4 O 0.2005(5) 0.6776(5) 0.1536(7)
O12_4 O 0.1222(10) 0.4775(7) 0.4170(9)
O13_4 O 0.1492(19) 0.474(2) 0.6562(17)
O14_4 O 0.287(2) 0.4465(14) 0.7022(17)
H24_4 H 0.2816 0.4027 0.7171
O18_2 O 0.1530(5) 0.8304(7) 0.2071(8)
H27_2 H 0.1568 0.8096 0.2694
H28_4 H 0.101028 0.830577 0.1825
C2_4 C 0.0051(6) 0.7386(8) 0.8764(9)
H1_4 H 0.0034 0.7518 0.9532
C3_4 C 0.0733(6) 0.7240(8) 0.8260(9)
C4_4 C 0.0719(6) 0.7069(9) 0.7102(9)
H2_4 H 0.1165 0.6958 0.6732
C5_4 C 0.0069(8) 0.7058(9) 0.6492(9)
C8_4 C 0.1425(6) 0.7243(7) 0.8883(8)
H6_4 H 0.0046 0.6606 0.3314
C11_4 C 0.0334(8) 0.7722(11) 0.2078(12)
H9_4 H 0.0600 0.7300 0.1784
C12_4 C 0.0765(8) 0.8392(11) 0.1832(15)
H10_4 H 0.0704 0.8519 0.1032
H11_4 H 0.0569 0.8791 0.2287
O1_4 O 0.1976(5) 0.6974(6) 0.8468(7)
O2_4 O 0.1370(5) 0.7559(6) 0.9859(7)
O5_4 O 0.0154(5) 0.6935(7) 0.5348(7)
O6_4 O 0.0230(6) 0.7646(7) 0.3242(8)
O15_4 O 0.3553(6) 0.6463(7) 0.8045(8)
H25_4 H 0.3563 0.6023 0.8195
H26_4 H 0.3360 0.6524 0.7413
C1_4 C 0.9417(6) 0.7341(9) 0.8170(10)
C6_4 C 0.9427(7) 0.7162(9) 0.7006(10)
H3_4 H 0.8981 0.7117 0.6601
C7_4 C 0.8702(7) 0.7436(9) 0.8753(10)
C9_4 C 0.9527(7) 0.7059(11) 0.4669(9)
H4_4 H 0.9304 0.7527 0.4858
H5_4 H 0.9157 0.6679 0.4795
C10_4 C 0.9775(7) 0.7054(10) 0.3469(10)
H7_4 H 0.9342 0.7069 0.2969
H8_4 H 0.9853 0.7747 0.1699
loop_
_geom_bond_atom_site_label_1
_geom_bond_atom_site_label_2
_geom_bond_site_symmetry_1
_geom_bond_site_symmetry_2
C13 C14 1_555 1_555
C14 H12 1_555 1_555
C18 C13 1_555 1_555
H14 C18 1_555 1_555
C19 C13 1_555 1_555
C23 H19 1_555 1_555
C24 C23 1_555 1_555
H22 C24 1_555 1_555
O8 C19 1_555 1_555
O9 C19 1_555 1_555
O12 C17 1_555 1_555
O14 C24 1_555 1_555
H24 O14 1_555 1_555
Cu6 O8 1_555 1_555
C17 C18 1_555 1_555
C23 O13 1_555 1_555
Cu2 O1 1_555 1_555
C1 C2 1_555 1_555
C2 H1 1_555 1_555
C3 C2 1_555 1_555
C4 C3 1_555 1_555
H2 C4 1_555 1_555
C5 C4 1_555 1_555
C6 C1 1_555 1_555
H3 C6 1_555 1_555
C7 C1 1_555 1_555
C8 C3 1_555 1_555
C9 H4 1_555 1_555
H5 C9 1_555 1_555
C10 C9 1_555 1_555
H6 C10 1_555 1_555
H7 C10 1_555 1_555
C11 H8 1_555 1_555
H9 C11 1_555 1_555
C12 C11 1_555 1_555
H10 C12 1_555 1_555
H11 C12 1_555 1_555
O1 C8 1_555 1_555
O2 C8 1_555 1_555
O3 C7 1_555 1_555
O4 C7 1_555 1_555
O5 C5 1_555 1_555
O6 C10 1_555 1_555
O7 C12 1_555 1_555
H23 O7 1_555 1_555
O15 Cu2 1_555 1_555
H25 O15 1_555 1_555
H26 O15 1_555 1_555
Cu3 O7 1_555 1_555
Cu5 O4 1_555 1_555
O19 Cu2 1_555 1_555
C5 C6 1_555 1_555
C9 O5 1_555 1_555
C11 O6 1_555 1_555
C16 C15 1_555 1_555
H13 C16 1_555 1_555
C20 C15 1_555 1_555
C21 H15 1_555 1_555
H16 C21 1_555 1_555
C22 C21 1_555 1_555
H17 C22 1_555 1_555
O11 Cu3 1_555 1_555
O17 Cu3 1_555 1_555
C20 O10 1_555 1_555
C20 O11 1_555 1_555
O7 H28 1_555 1_555
Cu2_2 O1_2 1_555 1_555
C1_2 C2_2 1_555 1_555
C2_2 H1_2 1_555 1_555
C3_2 C2_2 1_555 1_555
C4_2 C3_2 1_555 1_555
H2_2 C4_2 1_555 1_555
C5_2 C4_2 1_555 1_555
C6_2 C1_2 1_555 1_555
H3_2 C6_2 1_555 1_555
C7_2 C1_2 1_555 1_555
C8_2 C3_2 1_555 1_555
C9_2 H4_2 1_555 1_555
H5_2 C9_2 1_555 1_555
C10_2 C9_2 1_555 1_555
H6_2 C10_2 1_555 1_555
H7_2 C10_2 1_555 1_555
C11_2 H8_2 1_555 1_555
H9_2 C11_2 1_555 1_555
C12_2 C11_2 1_555 1_555
H10_2 C12_2 1_555 1_555
H11_2 C12_2 1_555 1_555
O1_2 C8_2 1_555 1_555
O2_2 C8_2 1_555 1_555
O3_2 C7_2 1_555 1_555
O4_2 C7_2 1_555 1_555
O5_2 C5_2 1_555 1_555
O6_2 C10_2 1_555 1_555
O7_2 C12_2 1_555 1_555
H23_2 O7_2 1_555 1_555
O15_2 Cu2_2 1_555 1_555
H25_2 O15_2 1_555 1_555
H26_2 O15_2 1_555 1_555
Cu3_2 O7_2 1_555 1_555
Cu4 O4_2 1_555 1_555
O19_2 Cu2_2 1_555 1_555
C5_2 C6_2 1_555 1_555
C9_2 O5_2 1_555 1_555
C11_2 O6_2 1_555 1_555
C16_2 C15_2 1_555 1_555
H13_2 C16_2 1_555 1_555
C20_2 C15_2 1_555 1_555
C21_2 H15_2 1_555 1_555
H16_2 C21_2 1_555 1_555
C22_2 C21_2 1_555 1_555
H17_2 C22_2 1_555 1_555
O11_2 Cu3_2 1_555 1_555
O17_2 Cu3_2 1_555 1_555
C20_2 O10_2 1_555 1_555
C20_2 O11_2 1_555 1_555
O7_2 H28_2 1_555 1_555
C13_2 C14_2 1_555 1_555
C14_2 H12_2 1_555 1_555
C18_2 C13_2 1_555 1_555
H14_2 C18_2 1_555 1_555
C19_2 C13_2 1_555 1_555
C23_2 H19_2 1_555 1_555
C24_2 C23_2 1_555 1_555
H22_2 C24_2 1_555 1_555
O8_2 C19_2 1_555 1_555
O9_2 C19_2 1_555 1_555
O12_2 C17_2 1_555 1_555
O14_2 C24_2 1_555 1_555
H24_2 O14_2 1_555 1_555
Cu7 O8_2 1_555 1_555
C17_2 C18_2 1_555 1_555
C23_2 O13_2 1_555 1_555
C6_3 C1_3 1_555 1_555
H3_3 C6_3 1_555 1_555
C7_3 C1_3 1_555 1_555
C9_3 H4_3 1_555 1_555
H5_3 C9_3 1_555 1_555
C10_3 C9_3 1_555 1_555
H7_3 C10_3 1_555 1_555
O16_2 C7_3 1_555 1_555
O17_2 C7_3 1_555 1_555
C13_3 C14_3 1_555 1_555
C14_3 H12_3 1_555 1_555
C15_3 C14_3 1_555 1_555
C16_3 C15_3 1_555 1_555
H13_3 C16_3 1_555 1_555
C17_3 C16_3 1_555 1_555
C18_3 C13_3 1_555 1_555
H14_3 C18_3 1_555 1_555
C19_3 C13_3 1_555 1_555
C20_3 C15_3 1_555 1_555
C21_3 H15_3 1_555 1_555
H16_3 C21_3 1_555 1_555
C22_3 C21_3 1_555 1_555
H17_3 C22_3 1_555 1_555
H18_3 C22_3 1_555 1_555
C23_3 H19_3 1_555 1_555
H20_3 C23_3 1_555 1_555
C24_3 C23_3 1_555 1_555
H21_3 C24_3 1_555 1_555
H22_3 C24_3 1_555 1_555
O19 C19_3 1_555 1_555
O20 C19_3 1_555 1_555
O11_3 Cu4 1_555 1_555
O12_3 C17_3 1_555 1_555
O13_3 C22_3 1_555 1_555
O14_3 C24_3 1_555 1_555
H24_3 O14_3 1_555 1_555
O18 Cu4 1_555 1_555
H27 O18 1_555 1_555
C17_3 C18_3 1_555 1_555
C20_3 O10_3 1_555 1_555
C20_3 O11_3 1_555 1_555
C21_3 O12_3 1_555 1_555
C23_3 O13_3 1_555 1_555
O18 H28_3 1_555 1_555
Cu6 O1_3 1_555 1_555
C2_3 H1_3 1_555 1_555
C3_3 C2_3 1_555 1_555
C4_3 C3_3 1_555 1_555
H2_3 C4_3 1_555 1_555
C5_3 C4_3 1_555 1_555
C8_3 C3_3 1_555 1_555
H9_3 C11_3 1_555 1_555
C12_3 C11_3 1_555 1_555
H10_3 C12_3 1_555 1_555
H11_3 C12_3 1_555 1_555
O1_3 C8_3 1_555 1_555
O2_3 C8_3 1_555 1_555
O5_3 C5_3 1_555 1_555
O18 C12_3 1_555 1_555
O15_3 Cu6 1_555 1_555
H25_3 O15_3 1_555 1_555
H26_3 O15_3 1_555 1_555
C11_3 O6_3 1_555 1_555
C13_4 C14_4 1_555 1_555
C14_4 H12_4 1_555 1_555
C15_4 C14_4 1_555 1_555
C16_4 C15_4 1_555 1_555
H13_4 C16_4 1_555 1_555
C17_4 C16_4 1_555 1_555
C18_4 C13_4 1_555 1_555
H14_4 C18_4 1_555 1_555
C19_4 C13_4 1_555 1_555
C20_4 C15_4 1_555 1_555
C21_4 H15_4 1_555 1_555
H16_4 C21_4 1_555 1_555
C22_4 C21_4 1_555 1_555
H17_4 C22_4 1_555 1_555
H18_4 C22_4 1_555 1_555
C23_4 H19_4 1_555 1_555
H20_4 C23_4 1_555 1_555
C24_4 C23_4 1_555 1_555
H21_4 C24_4 1_555 1_555
H22_4 C24_4 1_555 1_555
O19_2 C19_4 1_555 1_555
O20_2 C19_4 1_555 1_555
O11_4 Cu5 1_555 1_555
O12_4 C17_4 1_555 1_555
O13_4 C22_4 1_555 1_555
O14_4 C24_4 1_555 1_555
H24_4 O14_4 1_555 1_555
O18_2 Cu5 1_555 1_555
H27_2 O18_2 1_555 1_555
C17_4 C18_4 1_555 1_555
C20_4 O10_4 1_555 1_555
C20_4 O11_4 1_555 1_555
C21_4 O12_4 1_555 1_555
C23_4 O13_4 1_555 1_555
O18_2 H28_4 1_555 1_555
Cu7 O1_4 1_555 1_555
C2_4 H1_4 1_555 1_555
C3_4 C2_4 1_555 1_555
C4_4 C3_4 1_555 1_555
H2_4 C4_4 1_555 1_555
C5_4 C4_4 1_555 1_555
C8_4 C3_4 1_555 1_555
H9_4 C11_4 1_555 1_555
C12_4 C11_4 1_555 1_555
H10_4 C12_4 1_555 1_555
H11_4 C12_4 1_555 1_555
O1_4 C8_4 1_555 1_555
O2_4 C8_4 1_555 1_555
O5_4 C5_4 1_555 1_555
O18_2 C12_4 1_555 1_555
O15_4 Cu7 1_555 1_555
H25_4 O15_4 1_555 1_555
H26_4 O15_4 1_555 1_555
C11_4 O6_4 1_555 1_555
C6_4 C1_4 1_555 1_555
H3_4 C6_4 1_555 1_555
C7_4 C1_4 1_555 1_555
C9_4 H4_4 1_555 1_555
H5_4 C9_4 1_555 1_555
C10_4 C9_4 1_555 1_555
H7_4 C10_4 1_555 1_555
O16 C7_4 1_555 1_555
O17 C7_4 1_555 1_555

#END
