
###############################################################################
#
# This file contains modified crystal structure data generated from the
# MOF subset of the Cambridge Structural Database (CSD) v543 
# hosted by the Cambridge Crystallographic Data Centre (CCDC).
#
# This work is licensed under the Creative Commons
# Attribution-NonCommercial-ShareAlike 4.0 International License.
# To view a copy of this license, visit
# http://creativecommons.org/licenses/by-nc-sa/4.0/
# or send a letter to
# Creative Commons, PO Box 1866, Mountain View, CA 94042, USA.
#
# CIF created using the CSD Python API on 29 September 2022
# The structure has been converted into the P1 space group
# The structure has a 3D framework
# The original CSD entry OQEPUW is in the rhombohedral crystal system
# The framework has been calculated to contain at least 10.0% void space
# The void calculation uses a probe of radius 1.32A, grid spacing 0.4
#
###############################################################################

data_OQEPUW
_chemical_formula_moiety         '(C342 H144 Cd30 F108 O150)n'
_symmetry_cell_setting           triclinic
_symmetry_space_group_name_H-M   'P 1'
_symmetry_Int_Tables_number      1
_space_group_name_Hall           'P 1'
loop_
_symmetry_equiv_pos_site_id
_symmetry_equiv_pos_as_xyz
1 x,y,z
_cell_length_a                   39.918(4)
_cell_length_b                   39.918(4)
_cell_length_c                   7.7112(8)
_cell_angle_alpha                90
_cell_angle_beta                 90
_cell_angle_gamma                120
_cell_volume                     10641.2
loop_
_atom_site_label
_atom_site_type_symbol
_atom_site_fract_x
_atom_site_fract_y
_atom_site_fract_z
Cd1 Cd 0.799450(12) 0.161840(12) 0.38375(5)
H2 H 0.7335 0.0556 0.0112
O3 O 0.80516(14) 0.20798(12) 0.2071(5)
C1 C 0.80743(16) 0.20129(17) 0.0506(7)
H5 H 0.7669 0.2356 0.0675
O10 O 0.85549(11) 0.16019(11) 0.3363(5)
O11 O 0.79013(12) 0.10448(12) 0.5212(6)
O13 O 0.84747(11) 0.20906(12) 0.5587(5)
O15 O 0.74474(11) 0.11870(16) 0.2468(5)
O18 O 0.75614(11) 0.15588(16) 0.5936(5)
Cd2 Cd 0.759860(13) 0.118870(13) 0.82407(5)
O1 O 0.81118(11) 0.17314(11) 0.9970(5)
O2 O 0.74228(19) 0.05891(17) 0.9084(10)
H1 H 0.7248 0.0428 0.8411
O4 O 0.87654(12) 0.22885(12) 0.8121(6)
O6 O 0.92704(12) 0.38987(13) 0.6674(5)
O7 O 0.95938(11) 0.41141(11) 0.4199(5)
O8 O 0.93603(13) 0.36967(12) 0.0303(5)
O9 O 0.93360(11) 0.42281(11) 0.0731(5)
F1 F 0.78645(12) 0.36074(11) 0.5485(5)
F2 F 0.74774(11) 0.31928(11) 0.7308(5)
F3 F 0.80864(11) 0.34940(10) 0.7806(5)
F4 F 0.73924(11) 0.29502(12) 0.3567(5)
F5 F 0.71975(10) 0.25454(11) 0.5672(5)
F6 F 0.75331(10) 0.24947(10) 0.3635(5)
C2 C 0.80355(17) 0.22717(16) 0.9198(7)
C3 C 0.82146(15) 0.23567(15) 0.7578(7)
C4 C 0.81572(16) 0.25905(16) 0.6426(7)
H3 H 0.8271 0.2639 0.5333
C5 C 0.79304(15) 0.27539(15) 0.6890(7)
C6 C 0.77478(17) 0.26593(17) 0.8482(8)
H4 H 0.7589 0.2758 0.8797
C7 C 0.77978(17) 0.24192(17) 0.9615(8)
C8 C 0.84979(17) 0.22330(16) 0.7086(8)
C9 C 0.78728(16) 0.30130(16) 0.5585(7)
C10 C 0.82205(15) 0.32277(15) 0.4355(7)
C11 C 0.85833(17) 0.34502(16) 0.5092(7)
H6 H 0.8607 0.3451 0.6292
C12 C 0.89137(16) 0.36721(16) 0.4099(7)
C13 C 0.88876(16) 0.36570(15) 0.2301(7)
C14 C 0.85270(18) 0.34286(17) 0.1555(8)
H7 H 0.8505 0.3414 0.0353
C15 C 0.81994(17) 0.32222(17) 0.2565(8)
H8 H 0.7960 0.3077 0.2028
C16 C 0.92915(16) 0.39140(16) 0.5046(7)
C17 C 0.92236(16) 0.38704(17) 0.1069(7)
C18 C 0.78225(18) 0.33290(17) 0.6547(8)
C19 C 0.74936(17) 0.27496(19) 0.4609(8)
Cd3 Cd 0.867217(12) 0.171493(12) 0.94958(5)
Cd5 Cd 0.970943(17) 0.466117(12) 0.28292(5)
Cd6 Cd 0.906807(13) 0.214463(13) 0.50926(5)
Cd7 Cd 0.974323(18) 0.426527(13) 0.84260(5)
O12 O 0.81920(11) 0.12427(12) 0.7746(5)
O14 O 0.72320(13) 0.12950(18) 0.9993(5)
O16 O 0.70300(12) 0.10031(18) 0.6364(5)
Cd1_2 Cd 0.838160(12) 0.637610(17) 0.38375(5)
H2_2 H 0.9444 0.6779 0.0112
O3_2 O 0.79202(12) 0.59718(18) 0.2071(5)
C1_2 C 0.79871(17) 0.60614(23) 0.0506(7)
H5_2 H 0.7644 0.5313 0.0675
O10_2 O 0.83981(11) 0.69529(16) 0.3363(5)
O11_2 O 0.89552(12) 0.68564(17) 0.5212(6)
O13_2 O 0.79094(12) 0.63841(16) 0.5587(5)
O15_2 O 0.88130(16) 0.62605(19) 0.2468(5)
O18_2 O 0.84412(16) 0.60027(19) 0.5936(5)
Cd2_2 Cd 0.881130(13) 0.640990(18) 0.82407(5)
O1_2 O 0.82686(11) 0.63804(16) 0.9970(5)
O2_2 O 0.94109(17) 0.68337(25) 0.9084(10)
H1_2 H 0.9572 0.6820 0.8411
O4_2 O 0.77115(12) 0.64769(17) 0.8121(6)
O6_2 O 0.61013(13) 0.53717(18) 0.6674(5)
O7_2 O 0.58859(11) 0.54797(16) 0.4199(5)
O8_2 O 0.63033(12) 0.56636(18) 0.0303(5)
O9_2 O 0.57719(11) 0.51079(16) 0.0731(5)
F1_2 F 0.63926(11) 0.42571(16) 0.5485(5)
F2_2 F 0.68072(11) 0.42846(16) 0.7308(5)
F3_2 F 0.65060(10) 0.45924(15) 0.7806(5)
F4_2 F 0.70498(12) 0.44422(16) 0.3567(5)
F5_2 F 0.74546(11) 0.46521(15) 0.5672(5)
F6_2 F 0.75053(10) 0.50384(14) 0.3635(5)
C2_2 C 0.77283(16) 0.57638(23) 0.9198(7)
C3_2 C 0.76433(15) 0.58579(21) 0.7578(7)
C4_2 C 0.74095(16) 0.55667(23) 0.6426(7)
H3_2 H 0.7361 0.5632 0.5333
C5_2 C 0.72461(15) 0.51765(21) 0.6890(7)
C6_2 C 0.73407(17) 0.50885(24) 0.8482(8)
H4_2 H 0.7242 0.4831 0.8797
C7_2 C 0.75808(17) 0.53786(24) 0.9615(8)
C8_2 C 0.77670(16) 0.62649(23) 0.7086(8)
C9_2 C 0.69870(16) 0.48598(23) 0.5585(7)
C10_2 C 0.67723(15) 0.49928(21) 0.4355(7)
C11_2 C 0.65498(16) 0.51331(23) 0.5092(7)
H6_2 H 0.6549 0.5156 0.6292
C12_2 C 0.63279(16) 0.52416(23) 0.4099(7)
C13_2 C 0.63430(15) 0.52306(22) 0.2301(7)
C14_2 C 0.65714(17) 0.50984(25) 0.1555(8)
H7_2 H 0.6586 0.5091 0.0353
C15_2 C 0.67778(17) 0.49772(24) 0.2565(8)
H8_2 H 0.6923 0.4883 0.2028
C16_2 C 0.60860(16) 0.53775(23) 0.5046(7)
C17_2 C 0.61296(17) 0.53532(23) 0.1069(7)
C18_2 C 0.66710(17) 0.44935(25) 0.6547(8)
C19_2 C 0.72504(19) 0.47440(25) 0.4609(8)
Cd3_2 Cd 0.828507(12) 0.695723(17) 0.94958(5)
Cd5_2 Cd 0.533883(12) 0.504827(21) 0.28292(5)
Cd6_2 Cd 0.785537(13) 0.692343(18) 0.50926(5)
Cd7_2 Cd 0.573473(13) 0.547797(22) 0.84260(5)
O12_2 O 0.87573(12) 0.69492(16) 0.7746(5)
O14_2 O 0.87050(18) 0.59371(22) 0.9993(5)
O16_2 O 0.89969(18) 0.60270(22) 0.6364(5)
Cd1_3 Cd 0.362390(17) 0.200550(12) 0.38375(5)
H2_3 H 0.3221 0.2665 0.0112
O3_3 O 0.40282(18) 0.19484(14) 0.2071(5)
C1_3 C 0.39386(23) 0.19257(16) 0.0506(7)
H5_3 H 0.4687 0.2331 0.0675
O10_3 O 0.30471(16) 0.14451(11) 0.3363(5)
O11_3 O 0.31436(17) 0.20987(12) 0.5212(6)
O13_3 O 0.36159(16) 0.15253(11) 0.5587(5)
O15_3 O 0.37395(19) 0.25526(11) 0.2468(5)
O18_3 O 0.39973(19) 0.24386(11) 0.5936(5)
Cd2_3 Cd 0.359010(18) 0.240140(13) 0.82407(5)
O1_3 O 0.36196(16) 0.18882(11) 0.9970(5)
O2_3 O 0.31663(25) 0.25772(19) 0.9084(10)
H1_3 H 0.3180 0.2752 0.8411
O4_3 O 0.35231(17) 0.12346(12) 0.8121(6)
O6_3 O 0.46283(18) 0.07296(12) 0.6674(5)
O7_3 O 0.45203(16) 0.04062(11) 0.4199(5)
O8_3 O 0.43364(18) 0.06397(13) 0.0303(5)
O9_3 O 0.48921(16) 0.06640(11) 0.0731(5)
F1_3 F 0.57429(16) 0.21355(12) 0.5485(5)
F2_3 F 0.57154(16) 0.25226(11) 0.7308(5)
F3_3 F 0.54076(15) 0.19136(11) 0.7806(5)
F4_3 F 0.55578(16) 0.26076(11) 0.3567(5)
F5_3 F 0.53479(15) 0.28025(10) 0.5672(5)
F6_3 F 0.49616(14) 0.24669(10) 0.3635(5)
C2_3 C 0.42362(23) 0.19645(17) 0.9198(7)
C3_3 C 0.41421(21) 0.17854(15) 0.7578(7)
C4_3 C 0.44333(23) 0.18428(16) 0.6426(7)
H3_3 H 0.4368 0.1729 0.5333
C5_3 C 0.48235(21) 0.20696(15) 0.6890(7)
C6_3 C 0.49115(24) 0.22522(17) 0.8482(8)
H4_3 H 0.5169 0.2411 0.8797
C7_3 C 0.46214(24) 0.22022(17) 0.9615(8)
C8_3 C 0.37351(23) 0.15021(17) 0.7086(8)
C9_3 C 0.51402(23) 0.21272(16) 0.5585(7)
C10_3 C 0.50072(21) 0.17795(15) 0.4355(7)
C11_3 C 0.48669(23) 0.14167(17) 0.5092(7)
H6_3 H 0.4844 0.1393 0.6292
C12_3 C 0.47584(23) 0.10863(16) 0.4099(7)
C13_3 C 0.47694(22) 0.11124(16) 0.2301(7)
C14_3 C 0.49016(25) 0.14730(18) 0.1555(8)
H7_3 H 0.4909 0.1495 0.0353
C15_3 C 0.50228(24) 0.18006(17) 0.2565(8)
H8_3 H 0.5117 0.2040 0.2028
C16_3 C 0.46225(23) 0.07085(16) 0.5046(7)
C17_3 C 0.46468(23) 0.07764(16) 0.1069(7)
C18_3 C 0.55065(25) 0.21775(18) 0.6547(8)
C19_3 C 0.52560(25) 0.25064(17) 0.4609(8)
Cd3_3 Cd 0.304277(17) 0.132783(12) 0.94958(5)
Cd5_3 Cd 0.495173(21) 0.029057(17) 0.28292(5)
Cd6_3 Cd 0.307657(18) 0.093193(13) 0.50926(5)
Cd7_3 Cd 0.452203(22) 0.025677(18) 0.84260(5)
O12_3 O 0.30508(16) 0.18080(11) 0.7746(5)
O14_3 O 0.40629(22) 0.27680(13) 0.9993(5)
O16_3 O 0.39730(22) 0.29700(12) 0.6364(5)
Cd1_4 Cd 0.466117(12) 0.495173(12) 0.71708(5)
Cd2_4 Cd 0.426527(13) 0.452203(13) 0.15740(5)
O1_4 O 0.47785(11) 0.50647(11) 0.3303(5)
O2_4 O 0.40895(19) 0.39224(17) 0.2417(10)
H1_4 H 0.3915 0.3761 0.1744
H2_4 H 0.4002 0.3889 0.3445
O3_4 O 0.47183(14) 0.54131(12) 0.5404(5)
O4_4 O 0.54321(12) 0.56218(12) 0.1454(6)
O6_4 O 0.59371(12) 0.72320(13) 0.0007(5)
F2_4 F 0.41441(11) 0.65261(11) 0.0641(5)
F3_4 F 0.47531(11) 0.68273(10) 0.1139(5)
C1_4 C 0.47410(16) 0.53462(17) 0.3839(7)
C2_4 C 0.47022(17) 0.56050(16) 0.2531(7)
C3_4 C 0.48813(15) 0.56900(15) 0.0911(7)
C5_4 C 0.45971(15) 0.60872(15) 0.0223(7)
C6_4 C 0.44145(17) 0.59926(17) 0.1815(8)
H4_4 H 0.4256 0.6091 0.2130
C7_4 C 0.44645(17) 0.57525(17) 0.2948(8)
H5_4 H 0.4336 0.5689 0.4008
C8_4 C 0.51646(17) 0.55663(16) 0.0419(8)
Cd7_4 Cd 0.640990(18) 0.759860(13) 0.17593(5)
O10_4 O 0.52215(11) 0.49353(11) 0.6697(5)
O11_4 O 0.45679(12) 0.43782(12) 0.8546(6)
O12_4 O 0.48586(11) 0.45761(12) 0.1080(5)
O13_4 O 0.51414(11) 0.54239(12) 0.8920(5)
O14_4 O 0.38987(13) 0.46283(18) 0.3326(5)
O15_4 O 0.41141(11) 0.45203(16) 0.5801(5)
O18_4 O 0.42281(11) 0.48921(16) 0.9269(5)
O7_4 O 0.62605(11) 0.74474(11) 0.7532(5)
O8_4 O 0.60270(13) 0.70300(12) 0.3636(5)
O9_4 O 0.60027(11) 0.75614(11) 0.4064(5)
F1_4 F 0.45312(12) 0.69407(11) 0.8818(5)
F4_4 F 0.40591(11) 0.62835(12) 0.6900(5)
F5_4 F 0.38642(10) 0.58787(11) 0.9005(5)
F6_4 F 0.41998(10) 0.58280(10) 0.6968(5)
C4_4 C 0.48239(16) 0.59238(16) 0.9759(7)
H3_4 H 0.4938 0.5972 0.8666
C9_4 C 0.45395(16) 0.63463(16) 0.8918(7)
C10_4 C 0.48872(15) 0.65610(15) 0.7688(7)
C11_4 C 0.52500(17) 0.67835(16) 0.8425(7)
H6_4 H 0.5274 0.6784 0.9625
C12_4 C 0.55804(16) 0.70054(16) 0.7432(7)
C13_4 C 0.55543(16) 0.69903(15) 0.5634(7)
C14_4 C 0.51937(18) 0.67619(17) 0.4888(8)
H7_4 H 0.5172 0.6747 0.3686
C15_4 C 0.48661(17) 0.65555(17) 0.5898(8)
H8_4 H 0.4627 0.6410 0.5361
C16_4 C 0.59582(16) 0.72473(16) 0.8379(7)
C17_4 C 0.58903(16) 0.72037(17) 0.4402(7)
C18_4 C 0.44892(18) 0.66623(17) 0.9880(8)
C19_4 C 0.41603(17) 0.60829(19) 0.7942(8)
Cd5_4 Cd 0.637610(17) 0.799450(12) 0.61625(5)
O16_4 O 0.36967(12) 0.43364(18) 0.9697(5)
O2_5 O 0.60776(17) 0.01670(25) 0.2417(10)
H1_5 H 0.6239 0.0153 0.1744
H2_5 H 0.6111 0.0112 0.3445
O10_5 O 0.50647(11) 0.02863(16) 0.6697(5)
O11_5 O 0.56218(12) 0.01898(17) 0.8546(6)
O12_5 O 0.54239(12) 0.02826(16) 0.1080(5)
Cd1_5 Cd 0.504827(12) 0.970943(17) 0.71708(5)
Cd2_5 Cd 0.547797(13) 0.974323(18) 0.15740(5)
O1_5 O 0.49353(11) 0.97137(16) 0.3303(5)
O3_5 O 0.45869(12) 0.93051(18) 0.5404(5)
O4_5 O 0.43782(12) 0.98102(17) 0.1454(6)
O6_5 O 0.27680(13) 0.87050(18) 0.0007(5)
F2_5 F 0.34739(11) 0.76179(16) 0.0641(5)
F3_5 F 0.31727(10) 0.79257(15) 0.1139(5)
C1_5 C 0.46538(17) 0.93947(23) 0.3839(7)
C2_5 C 0.43950(16) 0.90971(23) 0.2531(7)
C3_5 C 0.43100(15) 0.91912(21) 0.0911(7)
C5_5 C 0.39128(15) 0.85098(21) 0.0223(7)
C6_5 C 0.40074(17) 0.84218(24) 0.1815(8)
H4_5 H 0.3909 0.8164 0.2130
C7_5 C 0.42475(17) 0.87119(24) 0.2948(8)
H5_5 H 0.4311 0.8646 0.4008
C8_5 C 0.44337(16) 0.95982(23) 0.0419(8)
Cd7_5 Cd 0.240140(13) 0.881130(22) 0.17593(5)
O13_5 O 0.45761(12) 0.97174(16) 0.8920(5)
O14_5 O 0.53717(18) 0.92704(22) 0.3326(5)
O15_5 O 0.54797(16) 0.95938(19) 0.5801(5)
O18_5 O 0.51079(16) 0.93360(19) 0.9269(5)
O7_5 O 0.25526(11) 0.88130(16) 0.7532(5)
O8_5 O 0.29700(12) 0.89969(18) 0.3636(5)
O9_5 O 0.24386(11) 0.84412(16) 0.4064(5)
F1_5 F 0.30593(11) 0.75904(16) 0.8818(5)
F4_5 F 0.37165(12) 0.77755(16) 0.6900(5)
F5_5 F 0.41213(11) 0.79854(15) 0.9005(5)
F6_5 F 0.41720(10) 0.83717(14) 0.6968(5)
C4_5 C 0.40762(16) 0.89000(23) 0.9759(7)
H3_5 H 0.4028 0.8965 0.8666
C9_5 C 0.36537(16) 0.81931(23) 0.8918(7)
C10_5 C 0.34390(15) 0.83261(21) 0.7688(7)
C11_5 C 0.32165(16) 0.84664(23) 0.8425(7)
H6_5 H 0.3216 0.8489 0.9625
C12_5 C 0.29946(16) 0.85749(23) 0.7432(7)
C13_5 C 0.30097(15) 0.85639(22) 0.5634(7)
C14_5 C 0.32381(17) 0.84317(25) 0.4888(8)
H7_5 H 0.3253 0.8424 0.3686
C15_5 C 0.34445(17) 0.83105(24) 0.5898(8)
H8_5 H 0.3590 0.8216 0.5361
C16_5 C 0.27527(16) 0.87108(23) 0.8379(7)
C17_5 C 0.27963(17) 0.86865(23) 0.4402(7)
C18_5 C 0.33377(17) 0.78268(25) 0.9880(8)
C19_5 C 0.39171(19) 0.80773(25) 0.7942(8)
Cd5_5 Cd 0.200550(12) 0.838160(21) 0.61625(5)
O16_5 O 0.56636(18) 0.93603(22) 0.9697(5)
Cd1_6 Cd 0.029057(17) 0.533883(12) 0.71708(5)
Cd2_6 Cd 0.025677(18) 0.573473(13) 0.15740(5)
O1_6 O 0.02863(16) 0.52215(11) 0.3303(5)
O3_6 O 0.06949(18) 0.52817(14) 0.5404(5)
O4_6 O 0.01898(17) 0.45679(12) 0.1454(6)
O6_6 O 0.12950(18) 0.40629(12) 0.0007(5)
F2_6 F 0.23821(16) 0.58559(11) 0.0641(5)
F3_6 F 0.20743(15) 0.52469(11) 0.1139(5)
C1_6 C 0.06053(23) 0.52590(16) 0.3839(7)
C2_6 C 0.09029(23) 0.52978(17) 0.2531(7)
C3_6 C 0.08088(21) 0.51187(15) 0.0911(7)
C5_6 C 0.14902(21) 0.54029(15) 0.0223(7)
C6_6 C 0.15782(24) 0.55855(17) 0.1815(8)
H4_6 H 0.1836 0.5744 0.2130
C7_6 C 0.12881(24) 0.55355(17) 0.2948(8)
H5_6 H 0.1354 0.5664 0.4008
C8_6 C 0.04018(23) 0.48354(17) 0.0419(8)
Cd7_6 Cd 0.118870(22) 0.359010(18) 0.17593(5)
O13_6 O 0.02826(16) 0.48586(11) 0.8920(5)
O14_6 O 0.07296(22) 0.61013(13) 0.3326(5)
O15_6 O 0.04062(19) 0.58859(11) 0.5801(5)
O18_6 O 0.06640(19) 0.57719(11) 0.9269(5)
O7_6 O 0.11870(16) 0.37395(11) 0.7532(5)
O8_6 O 0.10031(18) 0.39730(13) 0.3636(5)
O9_6 O 0.15588(16) 0.39973(11) 0.4064(5)
F1_6 F 0.24096(16) 0.54688(12) 0.8818(5)
F4_6 F 0.22245(16) 0.59409(11) 0.6900(5)
F5_6 F 0.20146(15) 0.61358(10) 0.9005(5)
F6_6 F 0.16283(14) 0.58002(10) 0.6968(5)
C4_6 C 0.11000(23) 0.51761(16) 0.9759(7)
H3_6 H 0.1035 0.5062 0.8666
C9_6 C 0.18069(23) 0.54605(16) 0.8918(7)
C10_6 C 0.16739(21) 0.51128(15) 0.7688(7)
C11_6 C 0.15336(23) 0.47500(17) 0.8425(7)
H6_6 H 0.1511 0.4726 0.9625
C12_6 C 0.14251(23) 0.44196(16) 0.7432(7)
C13_6 C 0.14361(22) 0.44457(16) 0.5634(7)
C14_6 C 0.15683(25) 0.48063(18) 0.4888(8)
H7_6 H 0.1576 0.4828 0.3686
C15_6 C 0.16895(24) 0.51339(17) 0.5898(8)
H8_6 H 0.1784 0.5373 0.5361
C16_6 C 0.12892(23) 0.40418(16) 0.8379(7)
C17_6 C 0.13135(23) 0.41097(16) 0.4402(7)
C18_6 C 0.21732(25) 0.55108(18) 0.9880(8)
C19_6 C 0.19227(25) 0.58397(17) 0.7942(8)
Cd5_6 Cd 0.161840(21) 0.362390(17) 0.61625(5)
O16_6 O 0.06397(22) 0.63033(12) 0.9697(5)
O2_6 O 0.98330(25) 0.59105(19) 0.2417(10)
H1_6 H 0.9847 0.6085 0.1744
H2_6 H 0.9888 0.5998 0.3445
O10_6 O 0.97137(16) 0.47785(11) 0.6697(5)
O11_6 O 0.98102(17) 0.54321(12) 0.8546(6)
O12_6 O 0.97174(16) 0.51414(11) 0.1080(5)
O6_7 O 0.26037(12) 0.05654(13) 0.3341(5)
O7_7 O 0.29271(11) 0.07808(11) 0.0866(5)
F1_7 F 0.11978(12) 0.02741(11) 0.2152(5)
F3_7 F 0.14197(11) 0.01607(10) 0.4473(5)
C11_7 C 0.19166(17) 0.01169(16) 0.1759(7)
H6_7 H 0.1940 0.0118 0.2959
C12_7 C 0.22470(16) 0.03388(16) 0.0766(7)
C16_7 C 0.26248(16) 0.05807(16) 0.1713(7)
O8_7 O 0.26936(13) 0.03634(12) 0.6970(5)
O9_7 O 0.26693(11) 0.08948(11) 0.7398(5)
C13_7 C 0.22209(16) 0.03237(15) 0.8968(7)
C14_7 C 0.18603(18) 0.00953(17) 0.8222(8)
H7_7 H 0.1838 0.0081 0.7020
C17_7 C 0.25569(16) 0.05371(17) 0.7736(7)
Cd1_7 Cd 0.132783(12) 0.828507(12) 0.05042(5)
O10_7 O 0.18882(11) 0.82686(11) 0.0030(5)
O11_7 O 0.12346(12) 0.77115(12) 0.1879(6)
O13_7 O 0.18080(11) 0.87573(12) 0.2254(5)
O18_7 O 0.08948(11) 0.82254(16) 0.2602(5)
Cd2_7 Cd 0.093193(13) 0.785537(13) 0.49074(5)
O1_7 O 0.14451(11) 0.83981(11) 0.6637(5)
O2_7 O 0.07561(19) 0.72558(17) 0.5751(10)
H1_7 H 0.0581 0.7095 0.5078
H2_7 H 0.0668 0.7223 0.6779
O3_7 O 0.13849(14) 0.87465(12) 0.8738(5)
O4_7 O 0.20987(12) 0.89552(12) 0.4788(6)
F2_7 F 0.08107(11) 0.98595(11) 0.3975(5)
F4_7 F 0.07257(11) 0.96169(12) 0.0234(5)
F5_7 F 0.05308(10) 0.92121(11) 0.2339(5)
F6_7 F 0.08664(10) 0.91614(10) 0.0302(5)
C1_7 C 0.14076(16) 0.86796(17) 0.7173(7)
C2_7 C 0.13688(17) 0.89384(16) 0.5865(7)
C3_7 C 0.15479(15) 0.90234(15) 0.4245(7)
C4_7 C 0.14905(16) 0.92572(16) 0.3093(7)
H3_7 H 0.1604 0.9306 0.2000
C5_7 C 0.12637(15) 0.94206(15) 0.3557(7)
C6_7 C 0.10811(17) 0.93260(17) 0.5149(8)
H4_7 H 0.0922 0.9425 0.5464
C7_7 C 0.11311(17) 0.90859(17) 0.6282(8)
H5_7 H 0.1002 0.9023 0.7342
C8_7 C 0.18312(17) 0.88997(16) 0.3753(8)
C9_7 C 0.12061(16) 0.96797(16) 0.2252(7)
C10_7 C 0.15538(15) 0.98944(15) 0.1022(7)
C18_7 C 0.11558(18) 0.99957(17) 0.3214(8)
C19_7 C 0.08269(17) 0.94163(19) 0.1276(8)
O12_7 O 0.15253(11) 0.79094(12) 0.4413(5)
O14_7 O 0.05654(13) 0.79616(18) 0.6659(5)
O15_7 O 0.07808(11) 0.78536(16) 0.9134(5)
O16_7 O 0.03634(12) 0.76697(18) 0.3030(5)
Cd1_8 Cd 0.171493(12) 0.304277(17) 0.05042(5)
O10_8 O 0.17314(11) 0.36196(16) 0.0030(5)
O11_8 O 0.22885(12) 0.35231(17) 0.1879(6)
O13_8 O 0.12427(12) 0.30508(16) 0.2254(5)
O18_8 O 0.17746(16) 0.26693(19) 0.2602(5)
Cd2_8 Cd 0.214463(13) 0.307657(18) 0.49074(5)
O1_8 O 0.16019(11) 0.30471(16) 0.6637(5)
O2_8 O 0.27442(17) 0.35004(25) 0.5751(10)
H1_8 H 0.2905 0.3487 0.5078
H2_8 H 0.2777 0.3446 0.6779
O3_8 O 0.12535(12) 0.26385(18) 0.8738(5)
O4_8 O 0.10448(12) 0.31436(17) 0.4788(6)
F2_8 F 0.01405(11) 0.09513(16) 0.3975(5)
F4_8 F 0.03831(12) 0.11089(16) 0.0234(5)
F5_8 F 0.07879(11) 0.13188(15) 0.2339(5)
F6_8 F 0.08386(10) 0.17051(14) 0.0302(5)
C1_8 C 0.13204(17) 0.27281(23) 0.7173(7)
C2_8 C 0.10616(16) 0.24305(23) 0.5865(7)
C3_8 C 0.09766(15) 0.25246(21) 0.4245(7)
C4_8 C 0.07428(16) 0.22334(23) 0.3093(7)
H3_8 H 0.0694 0.2299 0.2000
C5_8 C 0.05794(15) 0.18432(21) 0.3557(7)
C6_8 C 0.06740(17) 0.17552(24) 0.5149(8)
H4_8 H 0.0575 0.1498 0.5464
C7_8 C 0.09141(17) 0.20453(24) 0.6282(8)
H5_8 H 0.0977 0.1980 0.7342
C8_8 C 0.11003(16) 0.29316(23) 0.3753(8)
C9_8 C 0.03203(16) 0.15265(23) 0.2252(7)
C10_8 C 0.01056(15) 0.16595(21) 0.1022(7)
C18_8 C 0.00043(17) 0.11602(25) 0.3214(8)
C19_8 C 0.05837(19) 0.14107(25) 0.1276(8)
O12_8 O 0.20906(12) 0.36159(16) 0.4413(5)
O14_8 O 0.20384(18) 0.26037(22) 0.6659(5)
O15_8 O 0.21464(16) 0.29271(19) 0.9134(5)
O16_8 O 0.23303(18) 0.26936(22) 0.3030(5)
O6_8 O 0.94346(13) 0.20384(18) 0.3341(5)
O7_8 O 0.92192(11) 0.21464(16) 0.0866(5)
F1_8 F 0.97259(11) 0.09238(16) 0.2152(5)
F3_8 F 0.98393(10) 0.12591(15) 0.4473(5)
C11_8 C 0.98831(16) 0.17998(23) 0.1759(7)
H6_8 H 0.9882 0.1823 0.2959
C12_8 C 0.96612(16) 0.19083(23) 0.0766(7)
C16_8 C 0.94193(16) 0.20442(23) 0.1713(7)
O8_8 O 0.96366(12) 0.23303(18) 0.6970(5)
O9_8 O 0.91052(11) 0.17746(16) 0.7398(5)
C13_8 C 0.96763(15) 0.18973(22) 0.8968(7)
C14_8 C 0.99047(17) 0.17651(25) 0.8222(8)
H7_8 H 0.9919 0.1758 0.7020
C17_8 C 0.94629(17) 0.20199(23) 0.7736(7)
Cd1_9 Cd 0.695723(17) 0.867217(12) 0.05042(5)
O10_9 O 0.63804(16) 0.81118(11) 0.0030(5)
O11_9 O 0.64769(17) 0.87654(12) 0.1879(6)
O13_9 O 0.69492(16) 0.81920(11) 0.2254(5)
O18_9 O 0.73307(19) 0.91052(11) 0.2602(5)
Cd2_9 Cd 0.692343(18) 0.906807(13) 0.49074(5)
O1_9 O 0.69529(16) 0.85549(11) 0.6637(5)
O2_9 O 0.64996(25) 0.92439(19) 0.5751(10)
H1_9 H 0.6513 0.9419 0.5078
H2_9 H 0.6554 0.9332 0.6779
O3_9 O 0.73615(18) 0.86151(14) 0.8738(5)
O4_9 O 0.68564(17) 0.79013(12) 0.4788(6)
O6_9 O 0.79616(18) 0.73963(12) 0.3341(5)
O7_9 O 0.78536(16) 0.70729(11) 0.0866(5)
F1_9 F 0.90762(16) 0.88022(12) 0.2152(5)
F2_9 F 0.90487(16) 0.91893(11) 0.3975(5)
F3_9 F 0.87409(15) 0.85803(11) 0.4473(5)
F4_9 F 0.88911(16) 0.92743(11) 0.0234(5)
F5_9 F 0.86812(15) 0.94692(10) 0.2339(5)
F6_9 F 0.82949(14) 0.91336(10) 0.0302(5)
C1_9 C 0.72719(23) 0.85924(16) 0.7173(7)
C2_9 C 0.75695(23) 0.86312(17) 0.5865(7)
C3_9 C 0.74754(21) 0.84521(15) 0.4245(7)
C4_9 C 0.77666(23) 0.85095(16) 0.3093(7)
H3_9 H 0.7701 0.8396 0.2000
C5_9 C 0.81568(21) 0.87363(15) 0.3557(7)
C6_9 C 0.82448(24) 0.89189(17) 0.5149(8)
H4_9 H 0.8502 0.9078 0.5464
C7_9 C 0.79547(24) 0.88689(17) 0.6282(8)
H5_9 H 0.8020 0.8998 0.7342
C8_9 C 0.70684(23) 0.81688(17) 0.3753(8)
C9_9 C 0.84735(23) 0.87939(16) 0.2252(7)
C10_9 C 0.83405(21) 0.84462(15) 0.1022(7)
C11_9 C 0.82002(23) 0.80834(17) 0.1759(7)
H6_9 H 0.8177 0.8060 0.2959
C12_9 C 0.80917(23) 0.77530(16) 0.0766(7)
C16_9 C 0.79558(23) 0.73752(16) 0.1713(7)
C18_9 C 0.88398(25) 0.88442(18) 0.3214(8)
C19_9 C 0.85893(25) 0.91731(17) 0.1276(8)
O12_9 O 0.63841(16) 0.84747(11) 0.4413(5)
O14_9 O 0.73963(22) 0.94346(13) 0.6659(5)
O15_9 O 0.70729(19) 0.92192(11) 0.9134(5)
O16_9 O 0.73064(22) 0.96366(12) 0.3030(5)
O8_9 O 0.76697(18) 0.73064(13) 0.6970(5)
O9_9 O 0.82254(16) 0.73307(11) 0.7398(5)
C13_9 C 0.81027(22) 0.77791(16) 0.8968(7)
C14_9 C 0.82349(25) 0.81397(18) 0.8222(8)
H7_9 H 0.8242 0.8162 0.7020
C15_7 C 0.83561(24) 0.84673(17) 0.9232(8)
H8_7 H 0.8450 0.8707 0.8695
C17_9 C 0.79801(23) 0.74431(16) 0.7736(7)
O2_10 O 0.25772(19) 0.94109(17) 0.0916(10)
H1_10 H 0.2752 0.9572 0.1589
F1_10 F 0.21355(12) 0.63926(11) 0.4515(5)
F2_10 F 0.25226(11) 0.68072(11) 0.2692(5)
F3_10 F 0.19136(11) 0.65060(10) 0.2194(5)
F4_10 F 0.26076(11) 0.70498(12) 0.6433(5)
F5_10 F 0.28025(10) 0.74546(11) 0.4328(5)
F6_10 F 0.24669(10) 0.75053(10) 0.6365(5)
C2_10 C 0.19645(17) 0.77283(16) 0.0802(7)
C3_10 C 0.17854(15) 0.76433(15) 0.2422(7)
C4_10 C 0.18428(16) 0.74095(16) 0.3574(7)
H3_10 H 0.1729 0.7361 0.4667
C5_10 C 0.20696(15) 0.72461(15) 0.3110(7)
C6_10 C 0.22522(17) 0.73407(17) 0.1518(8)
H4_10 H 0.2411 0.7242 0.1203
C7_10 C 0.22022(17) 0.75808(17) 0.0385(8)
C8_10 C 0.15021(17) 0.77670(16) 0.2914(8)
C9_10 C 0.21272(16) 0.69870(16) 0.4415(7)
C10_10 C 0.17795(15) 0.67723(15) 0.5645(7)
C11_10 C 0.14167(17) 0.65498(16) 0.4908(7)
H6_10 H 0.1393 0.6549 0.3708
C12_10 C 0.10863(16) 0.63279(16) 0.5901(7)
C13_10 C 0.11124(16) 0.63430(15) 0.7699(7)
C14_10 C 0.14730(18) 0.65714(17) 0.8445(8)
H7_10 H 0.1495 0.6586 0.9647
C15_8 C 0.18006(17) 0.67778(17) 0.7435(8)
H8_8 H 0.2040 0.6923 0.7972
C16_10 C 0.07085(16) 0.60860(16) 0.4954(7)
C17_10 C 0.07764(16) 0.61296(17) 0.8931(7)
C18_10 C 0.21775(18) 0.66710(17) 0.3453(8)
C19_10 C 0.25064(17) 0.72504(19) 0.5391(8)
H2_10 H 0.2665 0.9444 0.9888
O3_10 O 0.19484(14) 0.79202(12) 0.7929(5)
C1_10 C 0.19257(16) 0.79871(17) 0.9494(7)
H5_10 H 0.2331 0.7644 0.9325
O2_11 O 0.05891(17) 0.31663(25) 0.0916(10)
H1_11 H 0.0428 0.3180 0.1589
F1_11 F 0.36074(11) 0.57429(16) 0.4515(5)
F2_11 F 0.31928(11) 0.57154(16) 0.2692(5)
F3_11 F 0.34940(10) 0.54076(15) 0.2194(5)
F4_11 F 0.29502(12) 0.55578(16) 0.6433(5)
F5_11 F 0.25454(11) 0.53479(15) 0.4328(5)
F6_11 F 0.24947(10) 0.49616(14) 0.6365(5)
C2_11 C 0.22717(16) 0.42362(23) 0.0802(7)
C3_11 C 0.23567(15) 0.41421(21) 0.2422(7)
C4_11 C 0.25905(16) 0.44333(23) 0.3574(7)
H3_11 H 0.2639 0.4368 0.4667
C5_11 C 0.27539(15) 0.48235(21) 0.3110(7)
C6_11 C 0.26593(17) 0.49115(24) 0.1518(8)
H4_11 H 0.2758 0.5169 0.1203
C7_11 C 0.24192(17) 0.46214(24) 0.0385(8)
C8_11 C 0.22330(16) 0.37351(23) 0.2914(8)
C9_11 C 0.30130(16) 0.51402(23) 0.4415(7)
C10_11 C 0.32277(15) 0.50072(21) 0.5645(7)
C11_11 C 0.34502(16) 0.48669(23) 0.4908(7)
H6_11 H 0.3451 0.4844 0.3708
C12_11 C 0.36721(16) 0.47584(23) 0.5901(7)
C13_11 C 0.36570(15) 0.47694(22) 0.7699(7)
C14_11 C 0.34286(17) 0.49016(25) 0.8445(8)
H7_11 H 0.3414 0.4909 0.9647
C15_9 C 0.32222(17) 0.50228(24) 0.7435(8)
H8_9 H 0.3077 0.5117 0.7972
C16_11 C 0.39140(16) 0.46225(23) 0.4954(7)
C17_11 C 0.38704(17) 0.46468(23) 0.8931(7)
C18_11 C 0.33290(17) 0.55065(25) 0.3453(8)
C19_11 C 0.27496(19) 0.52560(25) 0.5391(8)
H2_11 H 0.0556 0.3221 0.9888
O3_11 O 0.20798(12) 0.40282(18) 0.7929(5)
C1_11 C 0.20129(17) 0.39386(23) 0.9494(7)
H5_11 H 0.2356 0.4687 0.9325
O2_12 O 0.68337(25) 0.74228(19) 0.0916(10)
H1_12 H 0.6820 0.7248 0.1589
F1_12 F 0.42571(16) 0.78645(12) 0.4515(5)
F2_12 F 0.42846(16) 0.74774(11) 0.2692(5)
F3_12 F 0.45924(15) 0.80864(11) 0.2194(5)
F4_12 F 0.44422(16) 0.73924(11) 0.6433(5)
F5_12 F 0.46521(15) 0.71975(10) 0.4328(5)
F6_12 F 0.50384(14) 0.75331(10) 0.6365(5)
C2_12 C 0.57638(23) 0.80355(17) 0.0802(7)
C3_12 C 0.58579(21) 0.82146(15) 0.2422(7)
C4_12 C 0.55667(23) 0.81572(16) 0.3574(7)
H3_12 H 0.5632 0.8271 0.4667
C5_12 C 0.51765(21) 0.79304(15) 0.3110(7)
C6_12 C 0.50885(24) 0.77478(17) 0.1518(8)
H4_12 H 0.4831 0.7589 0.1203
C7_12 C 0.53786(24) 0.77978(17) 0.0385(8)
C8_12 C 0.62649(23) 0.84979(17) 0.2914(8)
C9_12 C 0.48598(23) 0.78728(16) 0.4415(7)
C10_12 C 0.49928(21) 0.82205(15) 0.5645(7)
C11_12 C 0.51331(23) 0.85833(17) 0.4908(7)
H6_12 H 0.5156 0.8607 0.3708
C12_12 C 0.52416(23) 0.89137(16) 0.5901(7)
C13_12 C 0.52306(22) 0.88876(16) 0.7699(7)
C14_12 C 0.50984(25) 0.85270(18) 0.8445(8)
H7_12 H 0.5091 0.8505 0.9647
C15_10 C 0.49772(24) 0.81994(17) 0.7435(8)
H8_10 H 0.4883 0.7960 0.7972
C16_12 C 0.53775(23) 0.92915(16) 0.4954(7)
C17_12 C 0.53532(23) 0.92236(16) 0.8931(7)
C18_12 C 0.44935(25) 0.78225(18) 0.3453(8)
C19_12 C 0.47440(25) 0.74936(17) 0.5391(8)
H2_12 H 0.6779 0.7335 0.9888
O3_12 O 0.59718(18) 0.80516(14) 0.7929(5)
C1_12 C 0.60614(23) 0.80743(16) 0.9494(7)
H5_12 H 0.5313 0.7669 0.9325
F1_13 F 0.54688(12) 0.30593(11) 0.1182(5)
F4_13 F 0.59409(11) 0.37165(12) 0.3100(5)
F5_13 F 0.61358(10) 0.41213(11) 0.0995(5)
F6_13 F 0.58002(10) 0.41720(10) 0.3032(5)
C4_13 C 0.51761(16) 0.40762(16) 0.0241(7)
H3_13 H 0.5062 0.4028 0.1334
C9_13 C 0.54605(16) 0.36537(16) 0.1082(7)
C10_13 C 0.51128(15) 0.34390(15) 0.2312(7)
C11_13 C 0.47500(17) 0.32165(16) 0.1575(7)
H6_13 H 0.4726 0.3216 0.0375
C12_13 C 0.44196(16) 0.29946(16) 0.2568(7)
C13_13 C 0.44457(16) 0.30097(15) 0.4366(7)
C14_13 C 0.48063(18) 0.32381(17) 0.5112(8)
H7_13 H 0.4828 0.3253 0.6314
C15_11 C 0.51339(17) 0.34445(17) 0.4102(8)
H8_11 H 0.5373 0.3590 0.4639
C16_13 C 0.40418(16) 0.27527(16) 0.1621(7)
C17_13 C 0.41097(16) 0.27963(17) 0.5598(7)
C18_13 C 0.55108(18) 0.33377(17) 0.0120(8)
C19_13 C 0.58397(17) 0.39171(19) 0.2058(8)
O2_13 O 0.59105(19) 0.60776(17) 0.7583(10)
H1_13 H 0.6085 0.6239 0.8256
H2_13 H 0.5998 0.6111 0.6555
O3_13 O 0.52817(14) 0.45869(12) 0.4596(5)
F2_13 F 0.58559(11) 0.34739(11) 0.9359(5)
F3_13 F 0.52469(11) 0.31727(10) 0.8861(5)
C1_13 C 0.52590(16) 0.46538(17) 0.6161(7)
C2_13 C 0.52978(17) 0.43950(16) 0.7469(7)
C3_13 C 0.51187(15) 0.43100(15) 0.9089(7)
C5_13 C 0.54029(15) 0.39128(15) 0.9777(7)
C6_13 C 0.55855(17) 0.40074(17) 0.8185(8)
H4_13 H 0.5744 0.3909 0.7870
C7_13 C 0.55355(17) 0.42475(17) 0.7052(8)
H5_13 H 0.5664 0.4311 0.5992
C8_13 C 0.48354(17) 0.44337(16) 0.9581(8)
F1_14 F 0.69407(11) 0.24096(16) 0.1182(5)
F4_14 F 0.62835(12) 0.22245(16) 0.3100(5)
F5_14 F 0.58787(11) 0.20146(15) 0.0995(5)
F6_14 F 0.58280(10) 0.16283(14) 0.3032(5)
C4_14 C 0.59238(16) 0.11000(23) 0.0241(7)
H3_14 H 0.5972 0.1035 0.1334
C9_14 C 0.63463(16) 0.18069(23) 0.1082(7)
C10_14 C 0.65610(15) 0.16739(21) 0.2312(7)
C11_14 C 0.67835(16) 0.15336(23) 0.1575(7)
H6_14 H 0.6784 0.1511 0.0375
C12_14 C 0.70054(16) 0.14251(23) 0.2568(7)
C13_14 C 0.69903(15) 0.14361(22) 0.4366(7)
C14_14 C 0.67619(17) 0.15683(25) 0.5112(8)
H7_14 H 0.6747 0.1576 0.6314
C15_12 C 0.65555(17) 0.16895(24) 0.4102(8)
H8_12 H 0.6410 0.1784 0.4639
C16_14 C 0.72473(16) 0.12892(23) 0.1621(7)
C17_14 C 0.72037(17) 0.13135(23) 0.5598(7)
C18_14 C 0.66623(17) 0.21732(25) 0.0120(8)
C19_14 C 0.60829(19) 0.19227(25) 0.2058(8)
O3_14 O 0.54131(12) 0.06949(18) 0.4596(5)
F2_14 F 0.65261(11) 0.23821(16) 0.9359(5)
F3_14 F 0.68273(10) 0.20743(15) 0.8861(5)
C1_14 C 0.53462(17) 0.06053(23) 0.6161(7)
C2_14 C 0.56050(16) 0.09029(23) 0.7469(7)
C3_14 C 0.56900(15) 0.08088(21) 0.9089(7)
C5_14 C 0.60872(15) 0.14902(21) 0.9777(7)
C6_14 C 0.59926(17) 0.15782(24) 0.8185(8)
H4_14 H 0.6091 0.1836 0.7870
C7_14 C 0.57525(17) 0.12881(24) 0.7052(8)
H5_14 H 0.5689 0.1354 0.5992
C8_14 C 0.55663(16) 0.04018(23) 0.9581(8)
O2_14 O 0.39224(17) 0.98330(25) 0.7583(10)
H1_14 H 0.3761 0.9847 0.8256
H2_14 H 0.3889 0.9888 0.6555
O2_15 O 0.01670(25) 0.40895(19) 0.7583(10)
H1_15 H 0.0153 0.3915 0.8256
H2_15 H 0.0112 0.4002 0.6555
F1_15 F 0.75904(16) 0.45312(12) 0.1182(5)
F4_15 F 0.77755(16) 0.40591(11) 0.3100(5)
F5_15 F 0.79854(15) 0.38642(10) 0.0995(5)
F6_15 F 0.83717(14) 0.41998(10) 0.3032(5)
C4_15 C 0.89000(23) 0.48239(16) 0.0241(7)
H3_15 H 0.8965 0.4938 0.1334
C9_15 C 0.81931(23) 0.45395(16) 0.1082(7)
C10_15 C 0.83261(21) 0.48872(15) 0.2312(7)
C11_15 C 0.84664(23) 0.52500(17) 0.1575(7)
H6_15 H 0.8489 0.5274 0.0375
C12_15 C 0.85749(23) 0.55804(16) 0.2568(7)
C13_15 C 0.85639(22) 0.55543(16) 0.4366(7)
C14_15 C 0.84317(25) 0.51937(18) 0.5112(8)
H7_15 H 0.8424 0.5172 0.6314
C15_13 C 0.83105(24) 0.48661(17) 0.4102(8)
H8_13 H 0.8216 0.4627 0.4639
C16_15 C 0.87108(23) 0.59582(16) 0.1621(7)
C17_15 C 0.86865(23) 0.58903(16) 0.5598(7)
C18_15 C 0.78268(25) 0.44892(18) 0.0120(8)
C19_15 C 0.80773(25) 0.41603(17) 0.2058(8)
O3_15 O 0.93051(18) 0.47183(14) 0.4596(5)
F2_15 F 0.76179(16) 0.41441(11) 0.9359(5)
F3_15 F 0.79257(15) 0.47531(11) 0.8861(5)
C1_15 C 0.93947(23) 0.47410(16) 0.6161(7)
C2_15 C 0.90971(23) 0.47022(17) 0.7469(7)
C3_15 C 0.91912(21) 0.48813(15) 0.9089(7)
C5_15 C 0.85098(21) 0.45971(15) 0.9777(7)
C6_15 C 0.84218(24) 0.44145(17) 0.8185(8)
H4_15 H 0.8164 0.4256 0.7870
C7_15 C 0.87119(24) 0.44645(17) 0.7052(8)
H5_15 H 0.8646 0.4336 0.5992
C8_15 C 0.95982(23) 0.51646(17) 0.9581(8)
O2_16 O 0.92439(19) 0.27442(17) 0.4249(10)
H1_16 H 0.9419 0.2905 0.4922
H2_16 H 0.9332 0.2777 0.3221
O3_16 O 0.86151(14) 0.12535(12) 0.1262(5)
F2_16 F 0.91893(11) 0.01405(11) 0.6025(5)
F4_16 F 0.92743(11) 0.03831(12) 0.9766(5)
F5_16 F 0.94692(10) 0.07879(11) 0.7661(5)
F6_16 F 0.91336(10) 0.08386(10) 0.9698(5)
C1_16 C 0.85924(16) 0.13204(17) 0.2827(7)
C2_16 C 0.86312(17) 0.10616(16) 0.4135(7)
C3_16 C 0.84521(15) 0.09766(15) 0.5755(7)
C4_16 C 0.85095(16) 0.07428(16) 0.6907(7)
H3_16 H 0.8396 0.0694 0.8000
C5_16 C 0.87363(15) 0.05794(15) 0.6443(7)
C6_16 C 0.89189(17) 0.06740(17) 0.4851(8)
H4_16 H 0.9078 0.0575 0.4536
C7_16 C 0.88689(17) 0.09141(17) 0.3718(8)
H5_16 H 0.8998 0.0977 0.2658
C8_16 C 0.81688(17) 0.11003(16) 0.6247(8)
C9_16 C 0.87939(16) 0.03203(16) 0.7748(7)
C10_16 C 0.84462(15) 0.01056(15) 0.8978(7)
C18_16 C 0.88442(18) 0.00043(17) 0.6786(8)
C19_16 C 0.91731(17) 0.05837(19) 0.8724(8)
C13_16 C 0.77791(16) 0.96763(15) 0.1032(7)
C14_16 C 0.81397(18) 0.99047(17) 0.1778(8)
H7_16 H 0.8162 0.9919 0.2980
C17_16 C 0.74431(16) 0.94629(17) 0.2264(7)
F1_16 F 0.88022(12) 0.97259(11) 0.7848(5)
F3_16 F 0.85803(11) 0.98393(10) 0.5527(5)
C11_16 C 0.80834(17) 0.98831(16) 0.8241(7)
H6_16 H 0.8060 0.9882 0.7041
C12_16 C 0.77530(16) 0.96612(16) 0.9234(7)
C16_16 C 0.73752(16) 0.94193(16) 0.8287(7)
C13_17 C 0.03237(15) 0.81027(22) 0.1032(7)
C14_17 C 0.00953(17) 0.82349(25) 0.1778(8)
H7_17 H 0.0081 0.8242 0.2980
C17_17 C 0.05371(17) 0.79801(23) 0.2264(7)
F1_17 F 0.02741(11) 0.90762(16) 0.7848(5)
F3_17 F 0.01607(10) 0.87409(15) 0.5527(5)
C11_17 C 0.01169(16) 0.82002(23) 0.8241(7)
H6_17 H 0.0118 0.8177 0.7041
C12_17 C 0.03388(16) 0.80917(23) 0.9234(7)
C16_17 C 0.05807(16) 0.79558(23) 0.8287(7)
O2_17 O 0.72558(17) 0.64996(25) 0.4249(10)
H1_17 H 0.7095 0.6513 0.4922
H2_17 H 0.7223 0.6554 0.3221
O3_17 O 0.87465(12) 0.73615(18) 0.1262(5)
F2_17 F 0.98595(11) 0.90487(16) 0.6025(5)
F4_17 F 0.96169(12) 0.88911(16) 0.9766(5)
F5_17 F 0.92121(11) 0.86812(15) 0.7661(5)
F6_17 F 0.91614(10) 0.82949(14) 0.9698(5)
C1_17 C 0.86796(17) 0.72719(23) 0.2827(7)
C2_17 C 0.89384(16) 0.75695(23) 0.4135(7)
C3_17 C 0.90234(15) 0.74754(21) 0.5755(7)
C4_17 C 0.92572(16) 0.77666(23) 0.6907(7)
H3_17 H 0.9306 0.7701 0.8000
C5_17 C 0.94206(15) 0.81568(21) 0.6443(7)
C6_17 C 0.93260(17) 0.82448(24) 0.4851(8)
H4_17 H 0.9425 0.8502 0.4536
C7_17 C 0.90859(17) 0.79547(24) 0.3718(8)
H5_17 H 0.9023 0.8020 0.2658
C8_17 C 0.88997(16) 0.70684(23) 0.6247(8)
C9_17 C 0.96797(16) 0.84735(23) 0.7748(7)
C10_17 C 0.98944(15) 0.83405(21) 0.8978(7)
C18_17 C 0.99957(17) 0.88398(25) 0.6786(8)
C19_17 C 0.94163(19) 0.85893(25) 0.8724(8)
C13_18 C 0.18973(22) 0.22209(16) 0.1032(7)
C14_18 C 0.17651(25) 0.18603(18) 0.1778(8)
H7_18 H 0.1758 0.1838 0.2980
C15_14 C 0.16439(24) 0.15327(17) 0.0768(8)
H8_14 H 0.1550 0.1293 0.1305
C17_18 C 0.20199(23) 0.25569(16) 0.2264(7)
O2_18 O 0.35004(25) 0.07561(19) 0.4249(10)
H1_18 H 0.3487 0.0581 0.4922
H2_18 H 0.3446 0.0668 0.3221
O3_18 O 0.26385(18) 0.13849(14) 0.1262(5)
F1_18 F 0.09238(16) 0.11978(12) 0.7848(5)
F2_18 F 0.09513(16) 0.08107(11) 0.6025(5)
F3_18 F 0.12591(15) 0.14197(11) 0.5527(5)
F4_18 F 0.11089(16) 0.07257(11) 0.9766(5)
F5_18 F 0.13188(15) 0.05308(10) 0.7661(5)
F6_18 F 0.17051(14) 0.08664(10) 0.9698(5)
C1_18 C 0.27281(23) 0.14076(16) 0.2827(7)
C2_18 C 0.24305(23) 0.13688(17) 0.4135(7)
C3_18 C 0.25246(21) 0.15479(15) 0.5755(7)
C4_18 C 0.22334(23) 0.14905(16) 0.6907(7)
H3_18 H 0.2299 0.1604 0.8000
C5_18 C 0.18432(21) 0.12637(15) 0.6443(7)
C6_18 C 0.17552(24) 0.10811(17) 0.4851(8)
H4_18 H 0.1498 0.0922 0.4536
C7_18 C 0.20453(24) 0.11311(17) 0.3718(8)
H5_18 H 0.1980 0.1002 0.2658
C8_18 C 0.29316(23) 0.18312(17) 0.6247(8)
C9_18 C 0.15265(23) 0.12061(16) 0.7748(7)
C10_18 C 0.16595(21) 0.15538(15) 0.8978(7)
C11_18 C 0.17998(23) 0.19166(17) 0.8241(7)
H6_18 H 0.1823 0.1940 0.7041
C12_18 C 0.19083(23) 0.22470(16) 0.9234(7)
C16_18 C 0.20442(23) 0.26248(16) 0.8287(7)
C18_18 C 0.11602(25) 0.11558(18) 0.6786(8)
C19_18 C 0.14107(25) 0.08269(17) 0.8724(8)
C15_15 C 0.15327(17) 0.98889(17) 0.9232(8)
H8_15 H 0.1293 0.9744 0.8695
C15_16 C 0.01111(17) 0.16439(24) 0.9232(8)
H8_16 H 0.0256 0.1550 0.8695
C15_17 C 0.84673(17) 0.01111(17) 0.0768(8)
H8_17 H 0.8707 0.0256 0.1305
C15_18 C 0.98889(17) 0.83561(24) 0.0768(8)
H8_18 H 0.9744 0.8450 0.1305
loop_
_geom_bond_atom_site_label_1
_geom_bond_atom_site_label_2
_geom_bond_site_symmetry_1
_geom_bond_site_symmetry_2
Cd1 O3 1_555 1_555
O3 C1 1_555 1_555
O10 Cd1 1_555 1_555
O11 Cd1 1_555 1_555
O13 Cd1 1_555 1_555
O15 Cd1 1_555 1_555
O18 Cd1 1_555 1_555
Cd2 O1 1_555 1_555
O2 Cd2 1_555 1_555
H1 O2 1_555 1_555
O4 C8 1_555 1_555
O13 C8 1_555 1_555
O6 C16 1_555 1_555
O7 C16 1_555 1_555
O8 C17 1_555 1_555
O9 C17 1_555 1_555
F1 C18 1_555 1_555
F2 C18 1_555 1_555
F3 C18 1_555 1_555
F4 C19 1_555 1_555
F5 C19 1_555 1_555
F6 C19 1_555 1_555
C2 C3 1_555 1_555
C3 C4 1_555 1_555
C4 H3 1_555 1_555
C5 C4 1_555 1_555
C6 C5 1_555 1_555
H4 C6 1_555 1_555
C7 C2 1_555 1_555
C8 C3 1_555 1_555
C9 C5 1_555 1_555
C10 C9 1_555 1_555
C11 C10 1_555 1_555
H6 C11 1_555 1_555
C12 C11 1_555 1_555
C13 C12 1_555 1_555
C14 C13 1_555 1_555
H7 C14 1_555 1_555
C15 C10 1_555 1_555
H8 C15 1_555 1_555
C16 C12 1_555 1_555
C17 C13 1_555 1_555
C18 C9 1_555 1_555
C19 C9 1_555 1_555
Cd3 O1 1_555 1_555
Cd5 O7 1_555 1_555
Cd6 O13 1_555 1_555
Cd7 O6 1_555 1_555
O12 Cd2 1_555 1_555
O14 Cd2 1_555 1_555
O16 Cd2 1_555 1_555
O18 Cd2 1_555 1_555
O4 Cd3 1_555 1_555
O9 Cd5 1_555 1_555
C6 C7 1_555 1_555
C14 C15 1_555 1_555
Cd3 O12 1_555 1_555
Cd1_2 O3_2 1_555 1_555
O3_2 C1_2 1_555 1_555
O10_2 Cd1_2 1_555 1_555
O11_2 Cd1_2 1_555 1_555
O13_2 Cd1_2 1_555 1_555
O15_2 Cd1_2 1_555 1_555
O18_2 Cd1_2 1_555 1_555
Cd2_2 O1_2 1_555 1_555
O2_2 Cd2_2 1_555 1_555
H1_2 O2_2 1_555 1_555
O4_2 C8_2 1_555 1_555
O13_2 C8_2 1_555 1_555
O6_2 C16_2 1_555 1_555
O7_2 C16_2 1_555 1_555
O8_2 C17_2 1_555 1_555
O9_2 C17_2 1_555 1_555
F1_2 C18_2 1_555 1_555
F2_2 C18_2 1_555 1_555
F3_2 C18_2 1_555 1_555
F4_2 C19_2 1_555 1_555
F5_2 C19_2 1_555 1_555
F6_2 C19_2 1_555 1_555
C2_2 C3_2 1_555 1_555
C3_2 C4_2 1_555 1_555
C4_2 H3_2 1_555 1_555
C5_2 C4_2 1_555 1_555
C6_2 C5_2 1_555 1_555
H4_2 C6_2 1_555 1_555
C7_2 C2_2 1_555 1_555
C8_2 C3_2 1_555 1_555
C9_2 C5_2 1_555 1_555
C10_2 C9_2 1_555 1_555
C11_2 C10_2 1_555 1_555
H6_2 C11_2 1_555 1_555
C12_2 C11_2 1_555 1_555
C13_2 C12_2 1_555 1_555
C14_2 C13_2 1_555 1_555
H7_2 C14_2 1_555 1_555
C15_2 C10_2 1_555 1_555
H8_2 C15_2 1_555 1_555
C16_2 C12_2 1_555 1_555
C17_2 C13_2 1_555 1_555
C18_2 C9_2 1_555 1_555
C19_2 C9_2 1_555 1_555
Cd3_2 O1_2 1_555 1_555
Cd5_2 O7_2 1_555 1_555
Cd6_2 O13_2 1_555 1_555
Cd7_2 O6_2 1_555 1_555
O12_2 Cd2_2 1_555 1_555
O14_2 Cd2_2 1_555 1_555
O16_2 Cd2_2 1_555 1_555
O18_2 Cd2_2 1_555 1_555
O4_2 Cd3_2 1_555 1_555
O9_2 Cd5_2 1_555 1_555
C6_2 C7_2 1_555 1_555
C14_2 C15_2 1_555 1_555
Cd3_2 O12_2 1_555 1_555
Cd1_3 O3_3 1_555 1_555
O3_3 C1_3 1_555 1_555
O10_3 Cd1_3 1_555 1_555
O11_3 Cd1_3 1_555 1_555
O13_3 Cd1_3 1_555 1_555
O15_3 Cd1_3 1_555 1_555
O18_3 Cd1_3 1_555 1_555
Cd2_3 O1_3 1_555 1_555
O2_3 Cd2_3 1_555 1_555
H1_3 O2_3 1_555 1_555
O4_3 C8_3 1_555 1_555
O13_3 C8_3 1_555 1_555
O6_3 C16_3 1_555 1_555
O7_3 C16_3 1_555 1_555
O8_3 C17_3 1_555 1_555
O9_3 C17_3 1_555 1_555
F1_3 C18_3 1_555 1_555
F2_3 C18_3 1_555 1_555
F3_3 C18_3 1_555 1_555
F4_3 C19_3 1_555 1_555
F5_3 C19_3 1_555 1_555
F6_3 C19_3 1_555 1_555
C2_3 C3_3 1_555 1_555
C3_3 C4_3 1_555 1_555
C4_3 H3_3 1_555 1_555
C5_3 C4_3 1_555 1_555
C6_3 C5_3 1_555 1_555
H4_3 C6_3 1_555 1_555
C7_3 C2_3 1_555 1_555
C8_3 C3_3 1_555 1_555
C9_3 C5_3 1_555 1_555
C10_3 C9_3 1_555 1_555
C11_3 C10_3 1_555 1_555
H6_3 C11_3 1_555 1_555
C12_3 C11_3 1_555 1_555
C13_3 C12_3 1_555 1_555
C14_3 C13_3 1_555 1_555
H7_3 C14_3 1_555 1_555
C15_3 C10_3 1_555 1_555
H8_3 C15_3 1_555 1_555
C16_3 C12_3 1_555 1_555
C17_3 C13_3 1_555 1_555
C18_3 C9_3 1_555 1_555
C19_3 C9_3 1_555 1_555
Cd3_3 O1_3 1_555 1_555
Cd5_3 O7_3 1_555 1_555
Cd6_3 O13_3 1_555 1_555
Cd7_3 O6_3 1_555 1_555
O12_3 Cd2_3 1_555 1_555
O14_3 Cd2_3 1_555 1_555
O16_3 Cd2_3 1_555 1_555
O18_3 Cd2_3 1_555 1_555
O4_3 Cd3_3 1_555 1_555
O9_3 Cd5_3 1_555 1_555
C6_3 C7_3 1_555 1_555
C14_3 C15_3 1_555 1_555
Cd3_3 O12_3 1_555 1_555
Cd1_4 O3_4 1_555 1_555
Cd2_4 O1_4 1_555 1_555
O1_4 C1_4 1_555 1_555
O2_4 Cd2_4 1_555 1_555
H1_4 O2_4 1_555 1_555
H2_4 O2_4 1_555 1_555
O3_4 C1_4 1_555 1_555
O4_4 C8_4 1_555 1_555
C1_4 C2_4 1_555 1_555
C2_4 C3_4 1_555 1_555
C6_4 C5_4 1_555 1_555
H4_4 C6_4 1_555 1_555
C7_4 C2_4 1_555 1_555
H5_4 C7_4 1_555 1_555
C8_4 C3_4 1_555 1_555
Cd5_2 O1_4 1_555 1_555
Cd7_4 O6_4 1_555 1_555
O10_4 Cd1_4 1_555 1_555
O11_4 Cd1_4 1_555 1_555
O12_4 Cd2_4 1_555 1_555
O13_4 Cd1_4 1_555 1_555
O14_4 Cd2_4 1_555 1_555
O15_4 Cd1_4 1_555 1_555
O18_4 Cd1_4 1_555 1_555
O4_4 Cd5_2 1_555 1_555
C6_4 C7_4 1_555 1_555
Cd5_2 O12_4 1_555 1_555
O7_4 C16_4 1_555 1_555
O8_4 C17_4 1_555 1_555
O9_4 C17_4 1_555 1_555
F1_4 C18_4 1_555 1_555
F4_4 C19_4 1_555 1_555
F5_4 C19_4 1_555 1_555
F6_4 C19_4 1_555 1_555
C4_4 H3_4 1_555 1_555
C10_4 C9_4 1_555 1_555
C11_4 C10_4 1_555 1_555
H6_4 C11_4 1_555 1_555
C12_4 C11_4 1_555 1_555
C13_4 C12_4 1_555 1_555
C14_4 C13_4 1_555 1_555
H7_4 C14_4 1_555 1_555
C15_4 C10_4 1_555 1_555
H8_4 C15_4 1_555 1_555
C16_4 C12_4 1_555 1_555
C17_4 C13_4 1_555 1_555
C18_4 C9_4 1_555 1_555
C19_4 C9_4 1_555 1_555
Cd5_4 O7_4 1_555 1_555
Cd7_2 O13_4 1_555 1_555
Cd7_4 O8_4 1_555 1_555
O9_4 Cd5_4 1_555 1_555
O9_4 Cd7_4 1_555 1_555
C14_4 C15_4 1_555 1_555
H1_5 O2_5 1_555 1_555
H2_5 O2_5 1_555 1_555
Cd5_3 O12_5 1_555 1_555
Cd1_5 O3_5 1_555 1_555
Cd2_5 O1_5 1_555 1_555
O1_5 C1_5 1_555 1_555
O3_5 C1_5 1_555 1_555
O4_5 C8_5 1_555 1_555
C1_5 C2_5 1_555 1_555
C2_5 C3_5 1_555 1_555
C6_5 C5_5 1_555 1_555
H4_5 C6_5 1_555 1_555
C7_5 C2_5 1_555 1_555
H5_5 C7_5 1_555 1_555
C8_5 C3_5 1_555 1_555
Cd7_5 O6_5 1_555 1_555
O13_5 Cd1_5 1_555 1_555
O14_5 Cd2_5 1_555 1_555
O15_5 Cd1_5 1_555 1_555
O18_5 Cd1_5 1_555 1_555
C6_5 C7_5 1_555 1_555
O7_5 C16_5 1_555 1_555
O8_5 C17_5 1_555 1_555
O9_5 C17_5 1_555 1_555
F1_5 C18_5 1_555 1_555
F4_5 C19_5 1_555 1_555
F5_5 C19_5 1_555 1_555
F6_5 C19_5 1_555 1_555
C4_5 H3_5 1_555 1_555
C10_5 C9_5 1_555 1_555
C11_5 C10_5 1_555 1_555
H6_5 C11_5 1_555 1_555
C12_5 C11_5 1_555 1_555
C13_5 C12_5 1_555 1_555
C14_5 C13_5 1_555 1_555
H7_5 C14_5 1_555 1_555
C15_5 C10_5 1_555 1_555
H8_5 C15_5 1_555 1_555
C16_5 C12_5 1_555 1_555
C17_5 C13_5 1_555 1_555
C18_5 C9_5 1_555 1_555
C19_5 C9_5 1_555 1_555
Cd5_5 O7_5 1_555 1_555
Cd7_5 O8_5 1_555 1_555
O9_5 Cd5_5 1_555 1_555
O9_5 Cd7_5 1_555 1_555
C14_5 C15_5 1_555 1_555
Cd1_6 O3_6 1_555 1_555
Cd2_6 O1_6 1_555 1_555
O1_6 C1_6 1_555 1_555
O3_6 C1_6 1_555 1_555
O4_6 C8_6 1_555 1_555
C1_6 C2_6 1_555 1_555
C2_6 C3_6 1_555 1_555
C6_6 C5_6 1_555 1_555
H4_6 C6_6 1_555 1_555
C7_6 C2_6 1_555 1_555
H5_6 C7_6 1_555 1_555
C8_6 C3_6 1_555 1_555
Cd7_6 O6_6 1_555 1_555
O13_6 Cd1_6 1_555 1_555
O14_6 Cd2_6 1_555 1_555
O15_6 Cd1_6 1_555 1_555
O18_6 Cd1_6 1_555 1_555
C6_6 C7_6 1_555 1_555
O7_6 C16_6 1_555 1_555
O8_6 C17_6 1_555 1_555
O9_6 C17_6 1_555 1_555
F1_6 C18_6 1_555 1_555
F4_6 C19_6 1_555 1_555
F5_6 C19_6 1_555 1_555
F6_6 C19_6 1_555 1_555
C4_6 H3_6 1_555 1_555
C10_6 C9_6 1_555 1_555
C11_6 C10_6 1_555 1_555
H6_6 C11_6 1_555 1_555
C12_6 C11_6 1_555 1_555
C13_6 C12_6 1_555 1_555
C14_6 C13_6 1_555 1_555
H7_6 C14_6 1_555 1_555
C15_6 C10_6 1_555 1_555
H8_6 C15_6 1_555 1_555
C16_6 C12_6 1_555 1_555
C17_6 C13_6 1_555 1_555
C18_6 C9_6 1_555 1_555
C19_6 C9_6 1_555 1_555
Cd5_6 O7_6 1_555 1_555
Cd7_6 O8_6 1_555 1_555
O9_6 Cd5_6 1_555 1_555
O9_6 Cd7_6 1_555 1_555
C14_6 C15_6 1_555 1_555
H1_6 O2_6 1_555 1_555
H2_6 O2_6 1_555 1_555
Cd5 O12_6 1_555 1_555
O6_7 C16_7 1_555 1_555
O7_7 C16_7 1_555 1_555
H6_7 C11_7 1_555 1_555
C12_7 C11_7 1_555 1_555
C16_7 C12_7 1_555 1_555
Cd6_3 O6_7 1_555 1_555
O8_7 C17_7 1_555 1_555
O9_7 C17_7 1_555 1_555
C14_7 C13_7 1_555 1_555
H7_7 C14_7 1_555 1_555
C17_7 C13_7 1_555 1_555
Cd6_3 O8_7 1_555 1_555
O9_7 Cd3_3 1_555 1_555
O9_7 Cd6_3 1_555 1_555
O10_7 Cd1_7 1_555 1_555
O11_7 Cd1_7 1_555 1_555
O13_7 Cd1_7 1_555 1_555
O18_7 Cd1_7 1_555 1_555
Cd2_7 O1_7 1_555 1_555
O1_7 C1_7 1_555 1_555
O2_7 Cd2_7 1_555 1_555
H1_7 O2_7 1_555 1_555
H2_7 O2_7 1_555 1_555
O3_7 C1_7 1_555 1_555
O4_7 C8_7 1_555 1_555
O13_7 C8_7 1_555 1_555
F2_7 C18_7 1_555 1_555
F4_7 C19_7 1_555 1_555
F5_7 C19_7 1_555 1_555
F6_7 C19_7 1_555 1_555
C1_7 C2_7 1_555 1_555
C2_7 C3_7 1_555 1_555
C3_7 C4_7 1_555 1_555
C4_7 H3_7 1_555 1_555
C5_7 C4_7 1_555 1_555
C6_7 C5_7 1_555 1_555
H4_7 C6_7 1_555 1_555
C7_7 C2_7 1_555 1_555
H5_7 C7_7 1_555 1_555
C8_7 C3_7 1_555 1_555
C9_7 C5_7 1_555 1_555
C10_7 C9_7 1_555 1_555
C18_7 C9_7 1_555 1_555
C19_7 C9_7 1_555 1_555
Cd5_5 O1_7 1_555 1_555
Cd7_5 O13_7 1_555 1_555
O12_7 Cd2_7 1_555 1_555
O14_7 Cd2_7 1_555 1_555
O16_7 Cd2_7 1_555 1_555
O18_7 Cd2_7 1_555 1_555
O4_7 Cd5_5 1_555 1_555
C6_7 C7_7 1_555 1_555
Cd5_5 O12_7 1_555 1_555
O10_8 Cd1_8 1_555 1_555
O11_8 Cd1_8 1_555 1_555
O13_8 Cd1_8 1_555 1_555
O18_8 Cd1_8 1_555 1_555
Cd2_8 O1_8 1_555 1_555
O1_8 C1_8 1_555 1_555
O2_8 Cd2_8 1_555 1_555
H1_8 O2_8 1_555 1_555
H2_8 O2_8 1_555 1_555
O3_8 C1_8 1_555 1_555
O4_8 C8_8 1_555 1_555
O13_8 C8_8 1_555 1_555
F2_8 C18_8 1_555 1_555
F4_8 C19_8 1_555 1_555
F5_8 C19_8 1_555 1_555
F6_8 C19_8 1_555 1_555
C1_8 C2_8 1_555 1_555
C2_8 C3_8 1_555 1_555
C3_8 C4_8 1_555 1_555
C4_8 H3_8 1_555 1_555
C5_8 C4_8 1_555 1_555
C6_8 C5_8 1_555 1_555
H4_8 C6_8 1_555 1_555
C7_8 C2_8 1_555 1_555
H5_8 C7_8 1_555 1_555
C8_8 C3_8 1_555 1_555
C9_8 C5_8 1_555 1_555
C10_8 C9_8 1_555 1_555
C18_8 C9_8 1_555 1_555
C19_8 C9_8 1_555 1_555
Cd5_6 O1_8 1_555 1_555
Cd7_6 O13_8 1_555 1_555
O12_8 Cd2_8 1_555 1_555
O14_8 Cd2_8 1_555 1_555
O16_8 Cd2_8 1_555 1_555
O18_8 Cd2_8 1_555 1_555
O4_8 Cd5_6 1_555 1_555
C6_8 C7_8 1_555 1_555
Cd5_6 O12_8 1_555 1_555
O6_8 C16_8 1_555 1_555
O7_8 C16_8 1_555 1_555
H6_8 C11_8 1_555 1_555
C12_8 C11_8 1_555 1_555
C16_8 C12_8 1_555 1_555
Cd6 O6_8 1_555 1_555
O8_8 C17_8 1_555 1_555
O9_8 C17_8 1_555 1_555
C14_8 C13_8 1_555 1_555
H7_8 C14_8 1_555 1_555
C17_8 C13_8 1_555 1_555
Cd6 O8_8 1_555 1_555
O9_8 Cd3 1_555 1_555
O9_8 Cd6 1_555 1_555
O10_9 Cd1_9 1_555 1_555
O11_9 Cd1_9 1_555 1_555
O13_9 Cd1_9 1_555 1_555
O18_9 Cd1_9 1_555 1_555
Cd2_9 O1_9 1_555 1_555
O1_9 C1_9 1_555 1_555
O2_9 Cd2_9 1_555 1_555
H1_9 O2_9 1_555 1_555
H2_9 O2_9 1_555 1_555
O3_9 C1_9 1_555 1_555
O4_9 C8_9 1_555 1_555
O13_9 C8_9 1_555 1_555
O6_9 C16_9 1_555 1_555
O7_9 C16_9 1_555 1_555
F1_9 C18_9 1_555 1_555
F2_9 C18_9 1_555 1_555
F3_9 C18_9 1_555 1_555
F4_9 C19_9 1_555 1_555
F5_9 C19_9 1_555 1_555
F6_9 C19_9 1_555 1_555
C1_9 C2_9 1_555 1_555
C2_9 C3_9 1_555 1_555
C3_9 C4_9 1_555 1_555
C4_9 H3_9 1_555 1_555
C5_9 C4_9 1_555 1_555
C6_9 C5_9 1_555 1_555
H4_9 C6_9 1_555 1_555
C7_9 C2_9 1_555 1_555
H5_9 C7_9 1_555 1_555
C8_9 C3_9 1_555 1_555
C9_9 C5_9 1_555 1_555
C10_9 C9_9 1_555 1_555
C11_9 C10_9 1_555 1_555
H6_9 C11_9 1_555 1_555
C12_9 C11_9 1_555 1_555
C16_9 C12_9 1_555 1_555
C18_9 C9_9 1_555 1_555
C19_9 C9_9 1_555 1_555
Cd5_4 O1_9 1_555 1_555
Cd7_4 O13_9 1_555 1_555
Cd6_2 O6_9 1_555 1_555
O12_9 Cd2_9 1_555 1_555
O14_9 Cd2_9 1_555 1_555
O16_9 Cd2_9 1_555 1_555
O18_9 Cd2_9 1_555 1_555
O4_9 Cd5_4 1_555 1_555
C6_9 C7_9 1_555 1_555
Cd5_4 O12_9 1_555 1_555
O8_9 C17_9 1_555 1_555
O9_9 C17_9 1_555 1_555
C14_9 C13_9 1_555 1_555
H7_9 C14_9 1_555 1_555
H8_7 C15_7 1_555 1_555
C17_9 C13_9 1_555 1_555
Cd6_2 O8_9 1_555 1_555
O9_9 Cd3_2 1_555 1_555
O9_9 Cd6_2 1_555 1_555
C14_9 C15_7 1_555 1_555
Cd7_5 O10_7 1_555 1_555
O2_10 Cd7_5 1_555 1_555
H1_10 O2_10 1_555 1_555
O11_7 C8_10 1_555 1_555
O12_7 C8_10 1_555 1_555
O14_6 C16_10 1_555 1_555
O15_6 C16_10 1_555 1_555
O16_6 C17_10 1_555 1_555
O18_6 C17_10 1_555 1_555
F1_10 C18_10 1_555 1_555
F2_10 C18_10 1_555 1_555
F3_10 C18_10 1_555 1_555
F4_10 C19_10 1_555 1_555
F5_10 C19_10 1_555 1_555
F6_10 C19_10 1_555 1_555
C2_10 C3_10 1_555 1_555
C3_10 C4_10 1_555 1_555
C4_10 H3_10 1_555 1_555
C5_10 C4_10 1_555 1_555
C6_10 C5_10 1_555 1_555
H4_10 C6_10 1_555 1_555
C7_10 C2_10 1_555 1_555
C8_10 C3_10 1_555 1_555
C9_10 C5_10 1_555 1_555
C10_10 C9_10 1_555 1_555
C11_10 C10_10 1_555 1_555
H6_10 C11_10 1_555 1_555
C12_10 C11_10 1_555 1_555
C13_10 C12_10 1_555 1_555
C14_10 C13_10 1_555 1_555
H7_10 C14_10 1_555 1_555
C15_8 C10_10 1_555 1_555
H8_8 C15_8 1_555 1_555
C16_10 C12_10 1_555 1_555
C17_10 C13_10 1_555 1_555
C18_10 C9_10 1_555 1_555
C19_10 C9_10 1_555 1_555
C6_10 C7_10 1_555 1_555
C14_10 C15_8 1_555 1_555
Cd5_5 O3_10 1_555 1_555
O3_10 C1_10 1_555 1_555
Cd7_6 O10_8 1_555 1_555
O2_11 Cd7_6 1_555 1_555
H1_11 O2_11 1_555 1_555
O11_8 C8_11 1_555 1_555
O12_8 C8_11 1_555 1_555
O14_4 C16_11 1_555 1_555
O15_4 C16_11 1_555 1_555
O16_4 C17_11 1_555 1_555
O18_4 C17_11 1_555 1_555
F1_11 C18_11 1_555 1_555
F2_11 C18_11 1_555 1_555
F3_11 C18_11 1_555 1_555
F4_11 C19_11 1_555 1_555
F5_11 C19_11 1_555 1_555
F6_11 C19_11 1_555 1_555
C2_11 C3_11 1_555 1_555
C3_11 C4_11 1_555 1_555
C4_11 H3_11 1_555 1_555
C5_11 C4_11 1_555 1_555
C6_11 C5_11 1_555 1_555
H4_11 C6_11 1_555 1_555
C7_11 C2_11 1_555 1_555
C8_11 C3_11 1_555 1_555
C9_11 C5_11 1_555 1_555
C10_11 C9_11 1_555 1_555
C11_11 C10_11 1_555 1_555
H6_11 C11_11 1_555 1_555
C12_11 C11_11 1_555 1_555
C13_11 C12_11 1_555 1_555
C14_11 C13_11 1_555 1_555
H7_11 C14_11 1_555 1_555
C15_9 C10_11 1_555 1_555
H8_9 C15_9 1_555 1_555
C16_11 C12_11 1_555 1_555
C17_11 C13_11 1_555 1_555
C18_11 C9_11 1_555 1_555
C19_11 C9_11 1_555 1_555
C6_11 C7_11 1_555 1_555
C14_11 C15_9 1_555 1_555
Cd5_6 O3_11 1_555 1_555
O3_11 C1_11 1_555 1_555
Cd7_4 O10_9 1_555 1_555
O2_12 Cd7_4 1_555 1_555
H1_12 O2_12 1_555 1_555
O11_9 C8_12 1_555 1_555
O12_9 C8_12 1_555 1_555
O14_5 C16_12 1_555 1_555
O15_5 C16_12 1_555 1_555
O16_5 C17_12 1_555 1_555
O18_5 C17_12 1_555 1_555
F1_12 C18_12 1_555 1_555
F2_12 C18_12 1_555 1_555
F3_12 C18_12 1_555 1_555
F4_12 C19_12 1_555 1_555
F5_12 C19_12 1_555 1_555
F6_12 C19_12 1_555 1_555
C2_12 C3_12 1_555 1_555
C3_12 C4_12 1_555 1_555
C4_12 H3_12 1_555 1_555
C5_12 C4_12 1_555 1_555
C6_12 C5_12 1_555 1_555
H4_12 C6_12 1_555 1_555
C7_12 C2_12 1_555 1_555
C8_12 C3_12 1_555 1_555
C9_12 C5_12 1_555 1_555
C10_12 C9_12 1_555 1_555
C11_12 C10_12 1_555 1_555
H6_12 C11_12 1_555 1_555
C12_12 C11_12 1_555 1_555
C13_12 C12_12 1_555 1_555
C14_12 C13_12 1_555 1_555
H7_12 C14_12 1_555 1_555
C15_10 C10_12 1_555 1_555
H8_10 C15_10 1_555 1_555
C16_12 C12_12 1_555 1_555
C17_12 C13_12 1_555 1_555
C18_12 C9_12 1_555 1_555
C19_12 C9_12 1_555 1_555
C6_12 C7_12 1_555 1_555
C14_12 C15_10 1_555 1_555
Cd5_4 O3_12 1_555 1_555
O3_12 C1_12 1_555 1_555
O15_3 C16_13 1_555 1_555
O16_3 C17_13 1_555 1_555
O18_3 C17_13 1_555 1_555
F1_13 C18_13 1_555 1_555
F4_13 C19_13 1_555 1_555
F5_13 C19_13 1_555 1_555
F6_13 C19_13 1_555 1_555
C4_13 H3_13 1_555 1_555
C10_13 C9_13 1_555 1_555
C11_13 C10_13 1_555 1_555
H6_13 C11_13 1_555 1_555
C12_13 C11_13 1_555 1_555
C13_13 C12_13 1_555 1_555
C14_13 C13_13 1_555 1_555
H7_13 C14_13 1_555 1_555
C15_11 C10_13 1_555 1_555
H8_11 C15_11 1_555 1_555
C16_13 C12_13 1_555 1_555
C17_13 C13_13 1_555 1_555
C18_13 C9_13 1_555 1_555
C19_13 C9_13 1_555 1_555
C14_13 C15_11 1_555 1_555
Cd5_2 O3_13 1_555 1_555
Cd7_2 O10_4 1_555 1_555
O10_4 C1_13 1_555 1_555
O2_13 Cd7_2 1_555 1_555
H1_13 O2_13 1_555 1_555
H2_13 O2_13 1_555 1_555
O3_13 C1_13 1_555 1_555
O11_4 C8_13 1_555 1_555
C1_13 C2_13 1_555 1_555
C2_13 C3_13 1_555 1_555
C6_13 C5_13 1_555 1_555
H4_13 C6_13 1_555 1_555
C7_13 C2_13 1_555 1_555
H5_13 C7_13 1_555 1_555
C8_13 C3_13 1_555 1_555
C6_13 C7_13 1_555 1_555
O15 C16_14 1_555 1_555
O16 C17_14 1_555 1_555
O18 C17_14 1_555 1_555
F1_14 C18_14 1_555 1_555
F4_14 C19_14 1_555 1_555
F5_14 C19_14 1_555 1_555
F6_14 C19_14 1_555 1_555
C4_14 H3_14 1_555 1_555
C10_14 C9_14 1_555 1_555
C11_14 C10_14 1_555 1_555
H6_14 C11_14 1_555 1_555
C12_14 C11_14 1_555 1_555
C13_14 C12_14 1_555 1_555
C14_14 C13_14 1_555 1_555
H7_14 C14_14 1_555 1_555
C15_12 C10_14 1_555 1_555
H8_12 C15_12 1_555 1_555
C16_14 C12_14 1_555 1_555
C17_14 C13_14 1_555 1_555
C18_14 C9_14 1_555 1_555
C19_14 C9_14 1_555 1_555
C14_14 C15_12 1_555 1_555
Cd5_3 O3_14 1_555 1_555
Cd7_3 O10_5 1_555 1_555
O10_5 C1_14 1_555 1_555
O3_14 C1_14 1_555 1_555
O11_5 C8_14 1_555 1_555
C1_14 C2_14 1_555 1_555
C2_14 C3_14 1_555 1_555
C6_14 C5_14 1_555 1_555
H4_14 C6_14 1_555 1_555
C7_14 C2_14 1_555 1_555
H5_14 C7_14 1_555 1_555
C8_14 C3_14 1_555 1_555
C6_14 C7_14 1_555 1_555
H1_14 O2_14 1_555 1_555
H2_14 O2_14 1_555 1_555
H1_15 O2_15 1_555 1_555
H2_15 O2_15 1_555 1_555
O15_2 C16_15 1_555 1_555
O16_2 C17_15 1_555 1_555
O18_2 C17_15 1_555 1_555
F1_15 C18_15 1_555 1_555
F4_15 C19_15 1_555 1_555
F5_15 C19_15 1_555 1_555
F6_15 C19_15 1_555 1_555
C4_15 H3_15 1_555 1_555
C10_15 C9_15 1_555 1_555
C11_15 C10_15 1_555 1_555
H6_15 C11_15 1_555 1_555
C12_15 C11_15 1_555 1_555
C13_15 C12_15 1_555 1_555
C14_15 C13_15 1_555 1_555
H7_15 C14_15 1_555 1_555
C15_13 C10_15 1_555 1_555
H8_13 C15_13 1_555 1_555
C16_15 C12_15 1_555 1_555
C17_15 C13_15 1_555 1_555
C18_15 C9_15 1_555 1_555
C19_15 C9_15 1_555 1_555
C14_15 C15_13 1_555 1_555
Cd5 O3_15 1_555 1_555
Cd7 O10_6 1_555 1_555
O10_6 C1_15 1_555 1_555
O3_15 C1_15 1_555 1_555
O11_6 C8_15 1_555 1_555
C1_15 C2_15 1_555 1_555
C2_15 C3_15 1_555 1_555
C6_15 C5_15 1_555 1_555
H4_15 C6_15 1_555 1_555
C7_15 C2_15 1_555 1_555
H5_15 C7_15 1_555 1_555
C8_15 C3_15 1_555 1_555
C6_15 C7_15 1_555 1_555
Cd6 O10 1_555 1_555
O10 C1_16 1_555 1_555
O2_16 Cd6 1_555 1_555
H1_16 O2_16 1_555 1_555
H2_16 O2_16 1_555 1_555
O3_16 C1_16 1_555 1_555
O11 C8_16 1_555 1_555
O12 C8_16 1_555 1_555
F2_16 C18_16 1_555 1_555
F4_16 C19_16 1_555 1_555
F5_16 C19_16 1_555 1_555
F6_16 C19_16 1_555 1_555
C1_16 C2_16 1_555 1_555
C2_16 C3_16 1_555 1_555
C3_16 C4_16 1_555 1_555
C4_16 H3_16 1_555 1_555
C5_16 C4_16 1_555 1_555
C6_16 C5_16 1_555 1_555
H4_16 C6_16 1_555 1_555
C7_16 C2_16 1_555 1_555
H5_16 C7_16 1_555 1_555
C8_16 C3_16 1_555 1_555
C9_16 C5_16 1_555 1_555
C10_16 C9_16 1_555 1_555
C18_16 C9_16 1_555 1_555
C19_16 C9_16 1_555 1_555
C6_16 C7_16 1_555 1_555
O16_9 C17_16 1_555 1_555
O18_9 C17_16 1_555 1_555
C14_16 C13_16 1_555 1_555
H7_16 C14_16 1_555 1_555
C17_16 C13_16 1_555 1_555
O14_9 C16_16 1_555 1_555
O15_9 C16_16 1_555 1_555
H6_16 C11_16 1_555 1_555
C12_16 C11_16 1_555 1_555
C16_16 C12_16 1_555 1_555
O16_7 C17_17 1_555 1_555
O18_7 C17_17 1_555 1_555
C14_17 C13_17 1_555 1_555
H7_17 C14_17 1_555 1_555
C17_17 C13_17 1_555 1_555
O14_7 C16_17 1_555 1_555
O15_7 C16_17 1_555 1_555
H6_17 C11_17 1_555 1_555
C12_17 C11_17 1_555 1_555
C16_17 C12_17 1_555 1_555
Cd6_2 O10_2 1_555 1_555
O10_2 C1_17 1_555 1_555
O2_17 Cd6_2 1_555 1_555
H1_17 O2_17 1_555 1_555
H2_17 O2_17 1_555 1_555
O3_17 C1_17 1_555 1_555
O11_2 C8_17 1_555 1_555
O12_2 C8_17 1_555 1_555
F2_17 C18_17 1_555 1_555
F4_17 C19_17 1_555 1_555
F5_17 C19_17 1_555 1_555
F6_17 C19_17 1_555 1_555
C1_17 C2_17 1_555 1_555
C2_17 C3_17 1_555 1_555
C3_17 C4_17 1_555 1_555
C4_17 H3_17 1_555 1_555
C5_17 C4_17 1_555 1_555
C6_17 C5_17 1_555 1_555
H4_17 C6_17 1_555 1_555
C7_17 C2_17 1_555 1_555
H5_17 C7_17 1_555 1_555
C8_17 C3_17 1_555 1_555
C9_17 C5_17 1_555 1_555
C10_17 C9_17 1_555 1_555
C18_17 C9_17 1_555 1_555
C19_17 C9_17 1_555 1_555
C6_17 C7_17 1_555 1_555
O16_8 C17_18 1_555 1_555
O18_8 C17_18 1_555 1_555
C14_18 C13_18 1_555 1_555
H7_18 C14_18 1_555 1_555
H8_14 C15_14 1_555 1_555
C17_18 C13_18 1_555 1_555
C14_18 C15_14 1_555 1_555
Cd6_3 O10_3 1_555 1_555
O10_3 C1_18 1_555 1_555
O2_18 Cd6_3 1_555 1_555
H1_18 O2_18 1_555 1_555
H2_18 O2_18 1_555 1_555
O3_18 C1_18 1_555 1_555
O11_3 C8_18 1_555 1_555
O12_3 C8_18 1_555 1_555
O14_8 C16_18 1_555 1_555
O15_8 C16_18 1_555 1_555
F1_18 C18_18 1_555 1_555
F2_18 C18_18 1_555 1_555
F3_18 C18_18 1_555 1_555
F4_18 C19_18 1_555 1_555
F5_18 C19_18 1_555 1_555
F6_18 C19_18 1_555 1_555
C1_18 C2_18 1_555 1_555
C2_18 C3_18 1_555 1_555
C3_18 C4_18 1_555 1_555
C4_18 H3_18 1_555 1_555
C5_18 C4_18 1_555 1_555
C6_18 C5_18 1_555 1_555
H4_18 C6_18 1_555 1_555
C7_18 C2_18 1_555 1_555
H5_18 C7_18 1_555 1_555
C8_18 C3_18 1_555 1_555
C9_18 C5_18 1_555 1_555
C10_18 C9_18 1_555 1_555
C11_18 C10_18 1_555 1_555
H6_18 C11_18 1_555 1_555
C12_18 C11_18 1_555 1_555
C16_18 C12_18 1_555 1_555
C18_18 C9_18 1_555 1_555
C19_18 C9_18 1_555 1_555
C6_18 C7_18 1_555 1_555
H8_15 C15_15 1_555 1_555
H8_16 C15_16 1_555 1_555
H8_17 C15_17 1_555 1_555
H8_18 C15_18 1_555 1_555

#END
