
###############################################################################
#
# This file contains modified crystal structure data generated from the
# MOF subset of the Cambridge Structural Database (CSD) v543 
# hosted by the Cambridge Crystallographic Data Centre (CCDC).
#
# This work is licensed under the Creative Commons
# Attribution-NonCommercial-ShareAlike 4.0 International License.
# To view a copy of this license, visit
# http://creativecommons.org/licenses/by-nc-sa/4.0/
# or send a letter to
# Creative Commons, PO Box 1866, Mountain View, CA 94042, USA.
#
# CIF created using the CSD Python API on 29 September 2022
# The structure has been converted into the P1 space group
# The structure has a 3D framework
# The original CSD entry OQEROS is in the monoclinic crystal system
# The framework has been calculated to contain at least 10.0% void space
# The void calculation uses a probe of radius 1.32A, grid spacing 0.4
#
###############################################################################

data_OQEROS
_chemical_formula_moiety         '(C192 H96 Cd2 N16 O28 Pd15)n'
_symmetry_cell_setting           triclinic
_symmetry_space_group_name_H-M   'P 1'
_symmetry_Int_Tables_number      1
_space_group_name_Hall           'P 1'
loop_
_symmetry_equiv_pos_site_id
_symmetry_equiv_pos_as_xyz
1 x,y,z
_cell_length_a                   7.29530(10)
_cell_length_b                   25.5761(7)
_cell_length_c                   30.7597(6)
_cell_angle_alpha                90
_cell_angle_beta                 96.361(2)
_cell_angle_gamma                90
_cell_volume                     5703.97
loop_
_atom_site_label
_atom_site_type_symbol
_atom_site_fract_x
_atom_site_fract_y
_atom_site_fract_z
O3 O 0.087(4) 0.7640(7) 0.2022(6)
H9 H 0.0028 0.6095 0.1181
H10 H 0.1038 0.6764 0.1659
Cd2 Cd -0.0000 0.84476(3) 0.2500
Cd3 Cd 1.0000 0.15524(3) 0.7500
O9 O 0.913(4) 0.2360(7) 0.7978(6)
H21 H 0.9972 0.3905 0.8819
H22 H 0.8962 0.3236 0.8341
Pd1 Pd 0.5000 0.5000 0.5000
O4 O 0.197(4) 0.7973(5) 0.3039(4)
N1 N 0.5553(9) 0.5295(3) 0.44150(19)
N2 N 0.7133(9) 0.4502(3) 0.5003(2)
C1 C 0.4636(13) 0.5692(4) 0.4184(3)
C2 C 0.5409(16) 0.5756(5) 0.3777(3)
H1 H 0.5026 0.5994 0.3557
C3 C 0.6754(14) 0.5417(5) 0.3776(3)
H2 H 0.7501 0.5379 0.3552
C4 C 0.6907(12) 0.5114(4) 0.4168(3)
C5 C 0.8161(11) 0.4725(4) 0.4287(3)
C6 C 0.8291(12) 0.4447(4) 0.4680(3)
C7 C 0.9537(18) 0.4047(5) 0.4797(4)
C8 C 0.9165(18) 0.3845(5) 0.5182(4)
H4 H 0.9767 0.3568 0.5333
C9 C 0.7684(14) 0.4137(4) 0.5309(3)
C10 C 0.3174(14) 0.5967(4) 0.4305(3)
C11 C 0.9376(11) 0.4553(4) 0.3950(3)
C12 C 0.8637(12) 0.4282(4) 0.3583(3)
H5 H 0.7379 0.4213 0.3542
C13 C 0.9748(12) 0.4116(4) 0.3281(3)
H6 H 0.9227 0.3939 0.3034
C18 C 0.2470(14) 0.6408(3) 0.4019(2)
C19 C 0.0731(13) 0.6381(3) 0.3784(3)
C20 C 0.0126(14) 0.6782(5) 0.3498(3)
C21 C 0.126(2) 0.7209(4) 0.3446(3)
C22 C 0.300(2) 0.7235(3) 0.3681(4)
H11 H 0.3758 0.7521 0.3646
C23 C 0.3604(15) 0.6835(4) 0.3967(3)
H12 H 0.4767 0.6853 0.4124
C24 C 0.072(4) 0.7637(8) 0.3112(6)
O12 O 0.803(4) 0.2027(5) 0.6961(4)
N3 N 0.4447(9) 0.4705(3) 0.55850(19)
N4 N 0.2867(9) 0.5498(3) 0.4997(2)
C25 C 0.5364(13) 0.4308(4) 0.5816(3)
C26 C 0.4591(16) 0.4244(5) 0.6223(3)
H13 H 0.4974 0.4006 0.6443
C27 C 0.3246(14) 0.4583(5) 0.6224(3)
H14 H 0.2499 0.4621 0.6448
C28 C 0.3093(12) 0.4886(4) 0.5832(3)
C29 C 0.1839(11) 0.5275(4) 0.5713(3)
C30 C 0.1709(12) 0.5553(4) 0.5320(3)
C31 C 0.0463(18) 0.5953(5) 0.5203(4)
C32 C 0.0835(18) 0.6155(5) 0.4818(4)
H16 H 0.0233 0.6432 0.4667
C33 C 0.2316(14) 0.5863(4) 0.4691(3)
C34 C 0.6826(14) 0.4033(4) 0.5695(3)
C35 C 0.0624(11) 0.5447(4) 0.6050(3)
C36 C 0.1363(12) 0.5718(4) 0.6417(3)
H17 H 0.2621 0.5787 0.6458
C37 C 0.0252(12) 0.5884(4) 0.6719(3)
H18 H 0.0773 0.6061 0.6966
C42 C 0.7530(14) 0.3592(3) 0.5981(2)
C43 C 0.9269(13) 0.3619(3) 0.6216(3)
C44 C 0.9874(14) 0.3218(5) 0.6502(3)
C45 C 0.874(2) 0.2791(4) 0.6554(3)
C46 C 0.700(2) 0.2765(3) 0.6319(4)
H23 H 0.6242 0.2479 0.6354
C47 C 0.6396(15) 0.3165(4) 0.6033(3)
H24 H 0.5233 0.3147 0.5876
C48 C 0.928(4) 0.2363(8) 0.6888(6)
Pd1_2 Pd -0.0000 -0.0000 1.0000
O5 O 0.7149(8) 0.1314(3) 0.77192(18)
O7 O 0.9515(9) 0.0919(3) 0.8057(2)
C29_2 C 0.3161(11) 0.0275(4) 0.9287(3)
C30_2 C 0.3291(12) 0.0553(4) 0.9680(3)
C31_2 C 0.4537(18) 0.0953(5) 0.9797(4)
H15 H 0.5472 0.1064 0.9636
C35_2 C 0.4376(11) 0.0447(4) 0.8950(3)
C36_2 C 0.3637(12) 0.0718(4) 0.8583(3)
H17_2 H 0.2379 0.0787 0.8542
C37_2 C 0.4748(12) 0.0884(4) 0.8281(3)
H18_2 H 0.4227 0.1061 0.8034
C38 C 0.6627(11) 0.0796(4) 0.8336(2)
C39 C 0.7358(12) 0.0519(4) 0.8695(3)
H19 H 0.8613 0.0444 0.8733
C40 C 0.6251(12) 0.0354(4) 0.8998(3)
H20 H 0.6775 0.0174 0.9244
C41 C 0.7847(12) 0.1025(4) 0.8013(3)
Pd1_3 Pd 1.0000 1.0000 0.0000
O1 O 0.2851(8) 0.8686(3) 0.22808(18)
O2 O 0.0485(9) 0.9081(3) 0.1943(2)
C5_2 C 0.6839(11) 0.9725(4) 0.0713(3)
C6_2 C 0.6709(12) 0.9447(4) 0.0320(3)
C7_2 C 0.5463(18) 0.9047(5) 0.0203(4)
H3 H 0.4528 0.8936 0.0364
C11_2 C 0.5624(11) 0.9553(4) 0.1050(3)
C12_2 C 0.6363(12) 0.9282(4) 0.1417(3)
H5_2 H 0.7621 0.9213 0.1458
C13_2 C 0.5252(12) 0.9116(4) 0.1719(3)
H6_2 H 0.5773 0.8939 0.1966
C14 C 0.3373(11) 0.9204(4) 0.1664(2)
C15 C 0.2642(12) 0.9481(4) 0.1305(3)
H7 H 0.1387 0.9556 0.1267
C16 C 0.3749(12) 0.9646(4) 0.1002(3)
H8 H 0.3225 0.9826 0.0756
C17 C 0.2153(12) 0.8975(4) 0.1987(3)
Cd4 Cd 0.5000 0.65524(3) 0.7500
O5_2 O 0.2149(8) 0.6314(3) 0.77192(18)
O7_2 O 0.4515(9) 0.5919(3) 0.8057(2)
H15_2 H 0.0472 0.6064 0.9636
C38_2 C 0.1627(11) 0.5796(4) 0.8336(2)
C39_2 C 0.2358(12) 0.5519(4) 0.8695(3)
H19_2 H 0.3613 0.5444 0.8733
C40_2 C 0.1251(12) 0.5354(4) 0.8998(3)
H20_2 H 0.1775 0.5174 0.9244
C41_2 C 0.2847(12) 0.6025(4) 0.8013(3)
Pd1_4 Pd 0.5000 0.5000 0.0000
O4_2 O 0.803(4) 0.7973(5) 0.1961(4)
N1_2 N 0.4447(9) 0.5295(3) 0.05850(19)
C1_2 C 0.5364(13) 0.5692(4) 0.0816(3)
C2_2 C 0.4591(16) 0.5756(5) 0.1223(3)
H1_2 H 0.4974 0.5994 0.1443
C3_2 C 0.3246(14) 0.5417(5) 0.1224(3)
H2_2 H 0.2499 0.5379 0.1448
C4_2 C 0.3093(12) 0.5114(4) 0.0832(3)
C5_3 C 0.1839(11) 0.4725(4) 0.0713(3)
C6_3 C 0.1709(12) 0.4447(4) 0.0320(3)
C7_3 C 0.0463(18) 0.4047(5) 0.0203(4)
C10_2 C 0.6826(14) 0.5967(4) 0.0695(3)
C11_3 C 0.0624(11) 0.4553(4) 0.1050(3)
C12_3 C 0.1363(12) 0.4282(4) 0.1417(3)
H5_3 H 0.2621 0.4213 0.1458
C13_3 C 0.0252(12) 0.4116(4) 0.1719(3)
H6_3 H 0.0773 0.3939 0.1966
C18_2 C 0.7530(14) 0.6408(3) 0.0981(2)
C19_2 C 0.9269(13) 0.6381(3) 0.1216(3)
C20_2 C 0.9874(14) 0.6782(5) 0.1502(3)
C21_2 C 0.874(2) 0.7209(4) 0.1554(3)
C22_2 C 0.700(2) 0.7235(3) 0.1319(4)
H11_2 H 0.6242 0.7521 0.1354
C23_2 C 0.6396(15) 0.6835(4) 0.1033(3)
H12_2 H 0.5233 0.6853 0.0876
C24_2 C 0.928(4) 0.7637(8) 0.1888(6)
Cd2_2 Cd 1.0000 0.84476(3) 0.2500
N4_2 N 0.7133(9) 0.5498(3) 0.0003(2)
C32_2 C 0.9165(18) 0.6155(5) 0.0182(4)
H16_2 H 0.9767 0.6432 0.0333
C33_2 C 0.7684(14) 0.5863(4) 0.0309(3)
O3_2 O 0.913(4) 0.7640(7) 0.2978(6)
H9_2 H 0.9972 0.6095 0.3819
H10_2 H 0.8962 0.6764 0.3341
O5_3 O 0.7851(8) 0.6314(3) 0.72808(18)
O7_3 O 0.5485(9) 0.5919(3) 0.6943(2)
H15_3 H 0.9528 0.6064 0.5364
C38_3 C 0.8373(11) 0.5796(4) 0.6664(2)
C39_3 C 0.7642(12) 0.5519(4) 0.6305(3)
H19_3 H 0.6387 0.5444 0.6267
C40_3 C 0.8749(12) 0.5354(4) 0.6002(3)
H20_3 H 0.8225 0.5174 0.5756
C41_3 C 0.7153(12) 0.6025(4) 0.6987(3)
Pd1_5 Pd 1.0000 1.0000 1.0000
N2_2 N 0.7867(9) 0.9502(3) 0.9997(2)
C8_2 C 0.5835(18) 0.8845(5) 0.9818(4)
H4_2 H 0.5233 0.8568 0.9667
C9_2 C 0.7316(14) 0.9137(4) 0.9691(3)
O9_2 O 0.413(4) 0.7360(7) 0.7978(6)
O12_2 O 0.697(4) 0.7027(5) 0.8039(4)
C25_2 C 0.9636(13) 0.9308(4) 0.9184(3)
C34_2 C 0.8174(14) 0.9033(4) 0.9305(3)
C42_2 C 0.7470(14) 0.8592(3) 0.9019(2)
C43_2 C 0.5731(13) 0.8619(3) 0.8784(3)
H21_2 H 0.4972 0.8905 0.8819
C44_2 C 0.5126(14) 0.8218(5) 0.8498(3)
H22_2 H 0.3962 0.8236 0.8341
C45_2 C 0.626(2) 0.7791(4) 0.8446(3)
C46_2 C 0.800(2) 0.7765(3) 0.8681(4)
H23_2 H 0.8758 0.7479 0.8646
C47_2 C 0.8604(15) 0.8165(4) 0.8967(3)
H24_2 H 0.9767 0.8147 0.9124
C48_2 C 0.572(4) 0.7363(8) 0.8112(6)
O6 O 0.7149(8) 0.8686(3) 0.27192(18)
O8 O 0.9515(9) 0.9081(3) 0.3057(2)
Pd1_6 Pd 0.0000 1.0000 0.5000
N2_3 N 0.2133(9) 0.9502(3) 0.5003(2)
C5_4 C 0.3161(11) 0.9725(4) 0.4287(3)
C6_4 C 0.3291(12) 0.9447(4) 0.4680(3)
C7_4 C 0.4537(18) 0.9047(5) 0.4797(4)
H3_2 H 0.5472 0.8936 0.4636
C8_3 C 0.4165(18) 0.8845(5) 0.5182(4)
H4_3 H 0.4767 0.8568 0.5333
C9_3 C 0.2684(14) 0.9137(4) 0.5309(3)
C11_4 C 0.4376(11) 0.9553(4) 0.3950(3)
C12_4 C 0.3637(12) 0.9282(4) 0.3583(3)
H5_4 H 0.2379 0.9213 0.3542
C13_4 C 0.4748(12) 0.9116(4) 0.3281(3)
H6_4 H 0.4227 0.8939 0.3034
C14_2 C 0.6627(11) 0.9204(4) 0.3336(2)
C15_2 C 0.7358(12) 0.9481(4) 0.3695(3)
H7_2 H 0.8613 0.9556 0.3733
C16_2 C 0.6251(12) 0.9646(4) 0.3998(3)
H8_2 H 0.6775 0.9826 0.4244
C17_2 C 0.7847(12) 0.8975(4) 0.3013(3)
O9_3 O 0.587(4) 0.7360(7) 0.7022(6)
O12_3 O 0.303(4) 0.7027(5) 0.6961(4)
C25_3 C 0.0364(13) 0.9308(4) 0.5816(3)
C34_3 C 0.1826(14) 0.9033(4) 0.5695(3)
C42_3 C 0.2530(14) 0.8592(3) 0.5981(2)
C43_3 C 0.4269(13) 0.8619(3) 0.6216(3)
H21_3 H 0.5028 0.8905 0.6181
C44_3 C 0.4874(14) 0.8218(5) 0.6502(3)
H22_3 H 0.6038 0.8236 0.6659
C45_3 C 0.374(2) 0.7791(4) 0.6554(3)
C46_3 C 0.200(2) 0.7765(3) 0.6319(4)
H23_3 H 0.1242 0.7479 0.6354
C47_3 C 0.1396(15) 0.8165(4) 0.6033(3)
H24_3 H 0.0233 0.8147 0.5876
C48_3 C 0.428(4) 0.7363(8) 0.6888(6)
Pd1_7 Pd 0.5000 0.5000 1.0000
N2_4 N 0.2867(9) 0.4502(3) 0.9997(2)
C8_4 C 0.0835(18) 0.3845(5) 0.9818(4)
H4_4 H 0.0233 0.3568 0.9667
C9_4 C 0.2316(14) 0.4137(4) 0.9691(3)
Cd3_2 Cd -0.0000 0.15524(3) 0.7500
O12_4 O 0.197(4) 0.2027(5) 0.8039(4)
N3_2 N 0.5553(9) 0.4705(3) 0.94150(19)
C25_4 C 0.4636(13) 0.4308(4) 0.9184(3)
C26_2 C 0.5409(16) 0.4244(5) 0.8777(3)
H13_2 H 0.5026 0.4006 0.8557
C27_2 C 0.6754(14) 0.4583(5) 0.8776(3)
H14_2 H 0.7501 0.4621 0.8552
C28_2 C 0.6907(12) 0.4886(4) 0.9168(3)
C29_3 C 0.8161(11) 0.5275(4) 0.9287(3)
C30_3 C 0.8291(12) 0.5553(4) 0.9680(3)
C31_3 C 0.9537(18) 0.5953(5) 0.9797(4)
C34_4 C 0.3174(14) 0.4033(4) 0.9305(3)
C35_3 C 0.9376(11) 0.5447(4) 0.8950(3)
C36_3 C 0.8637(12) 0.5718(4) 0.8583(3)
H17_3 H 0.7379 0.5787 0.8542
C37_3 C 0.9748(12) 0.5884(4) 0.8281(3)
H18_3 H 0.9227 0.6061 0.8034
C42_4 C 0.2470(14) 0.3592(3) 0.9019(2)
C43_4 C 0.0731(13) 0.3619(3) 0.8784(3)
C44_4 C 0.0126(14) 0.3218(5) 0.8498(3)
C45_4 C 0.126(2) 0.2791(4) 0.8446(3)
C46_4 C 0.300(2) 0.2765(3) 0.8681(4)
H23_4 H 0.3758 0.2479 0.8646
C47_4 C 0.3604(15) 0.3165(4) 0.8967(3)
H24_4 H 0.4767 0.3147 0.9124
C48_4 C 0.072(4) 0.2363(8) 0.8112(6)
Cd1 Cd 0.5000 0.34476(3) 0.2500
O1_2 O 0.7851(8) 0.3686(3) 0.22808(18)
O2_2 O 0.5485(9) 0.4081(3) 0.1943(2)
H3_3 H 0.9528 0.3936 0.0364
C14_3 C 0.8373(11) 0.4204(4) 0.1664(2)
C15_3 C 0.7642(12) 0.4481(4) 0.1305(3)
H7_3 H 0.6387 0.4556 0.1267
C16_3 C 0.8749(12) 0.4646(4) 0.1002(3)
H8_3 H 0.8225 0.4826 0.0756
C17_3 C 0.7153(12) 0.3975(4) 0.1987(3)
O6_2 O 0.2149(8) 0.3686(3) 0.27192(18)
O8_2 O 0.4515(9) 0.4081(3) 0.3057(2)
O10 O 0.587(4) 0.2640(7) 0.2022(6)
O11 O 0.413(4) 0.2640(7) 0.2978(6)
O13 O 0.303(4) 0.2973(5) 0.1961(4)
O14 O 0.697(4) 0.2973(5) 0.3039(4)
H3_4 H 0.0472 0.3936 0.4636
C14_4 C 0.1627(11) 0.4204(4) 0.3336(2)
C15_4 C 0.2358(12) 0.4481(4) 0.3695(3)
H7_4 H 0.3613 0.4556 0.3733
C16_4 C 0.1251(12) 0.4646(4) 0.3998(3)
H8_4 H 0.1775 0.4826 0.4244
C17_4 C 0.2847(12) 0.3975(4) 0.3013(3)
O9_4 O 0.087(4) 0.2360(7) 0.7022(6)
H21_4 H 0.0028 0.3905 0.6181
H22_4 H 0.1038 0.3236 0.6659
Pd1_8 Pd -0.0000 -0.0000 0.0000
C1_3 C 0.0364(13) 0.0692(4) 0.0816(3)
C10_3 C 0.1826(14) 0.0967(4) 0.0695(3)
C18_3 C 0.2530(14) 0.1408(3) 0.0981(2)
C19_3 C 0.4269(13) 0.1381(3) 0.1216(3)
H9_3 H 0.5028 0.1095 0.1181
C20_3 C 0.4874(14) 0.1782(5) 0.1502(3)
H10_3 H 0.6038 0.1764 0.1659
C21_3 C 0.374(2) 0.2209(4) 0.1554(3)
C22_3 C 0.200(2) 0.2235(3) 0.1319(4)
H11_3 H 0.1242 0.2521 0.1354
C23_3 C 0.1396(15) 0.1835(4) 0.1033(3)
H12_3 H 0.0233 0.1853 0.0876
C24_3 C 0.428(4) 0.2637(8) 0.1888(6)
N4_3 N 0.2133(9) 0.0498(3) 0.0003(2)
C32_3 C 0.4165(18) 0.1155(5) 0.0182(4)
H16_3 H 0.4767 0.1432 0.0333
C33_3 C 0.2684(14) 0.0863(4) 0.0309(3)
Pd1_9 Pd 1.0000 -0.0000 0.5000
C1_4 C 0.9636(13) 0.0692(4) 0.4184(3)
C10_4 C 0.8174(14) 0.0967(4) 0.4305(3)
C18_4 C 0.7470(14) 0.1408(3) 0.4019(2)
C19_4 C 0.5731(13) 0.1381(3) 0.3784(3)
H9_4 H 0.4972 0.1095 0.3819
C20_4 C 0.5126(14) 0.1782(5) 0.3498(3)
H10_4 H 0.3962 0.1764 0.3341
C21_4 C 0.626(2) 0.2209(4) 0.3446(3)
C22_4 C 0.800(2) 0.2235(3) 0.3681(4)
H11_4 H 0.8758 0.2521 0.3646
C23_4 C 0.8604(15) 0.1835(4) 0.3967(3)
H12_4 H 0.9767 0.1853 0.4124
C24_4 C 0.572(4) 0.2637(8) 0.3112(6)
O5_4 O 0.2851(8) 0.1314(3) 0.72808(18)
O7_4 O 0.0485(9) 0.0919(3) 0.6943(2)
N4_4 N 0.7867(9) 0.0498(3) 0.4997(2)
C29_4 C 0.6839(11) 0.0275(4) 0.5713(3)
C30_4 C 0.6709(12) 0.0553(4) 0.5320(3)
C31_4 C 0.5463(18) 0.0953(5) 0.5203(4)
H15_4 H 0.4528 0.1064 0.5364
C32_4 C 0.5835(18) 0.1155(5) 0.4818(4)
H16_4 H 0.5233 0.1432 0.4667
C33_4 C 0.7316(14) 0.0863(4) 0.4691(3)
C35_4 C 0.5624(11) 0.0447(4) 0.6050(3)
C36_4 C 0.6363(12) 0.0718(4) 0.6417(3)
H17_4 H 0.7621 0.0787 0.6458
C37_4 C 0.5252(12) 0.0884(4) 0.6719(3)
H18_4 H 0.5773 0.1061 0.6966
C38_4 C 0.3373(11) 0.0796(4) 0.6664(2)
C39_4 C 0.2642(12) 0.0519(4) 0.6305(3)
H19_4 H 0.1387 0.0444 0.6267
C40_4 C 0.3749(12) 0.0354(4) 0.6002(3)
H20_4 H 0.3225 0.0174 0.5756
C41_4 C 0.2153(12) 0.1025(4) 0.6987(3)
Pd1_10 Pd -0.0000 1.0000 0.0000
Pd1_11 Pd -0.0000 1.0000 1.0000
N3_3 N 0.0553(9) 0.9705(3) 0.94150(19)
C26_3 C 0.0409(16) 0.9244(5) 0.8777(3)
H13_3 H 0.0026 0.9006 0.8557
C27_3 C 0.1754(14) 0.9583(5) 0.8776(3)
H14_3 H 0.2501 0.9621 0.8552
C28_3 C 0.1907(12) 0.9886(4) 0.9168(3)
Pd1_12 Pd 1.0000 -0.0000 0.0000
N1_3 N 0.9447(9) 0.0295(3) 0.05850(19)
C2_3 C 0.9591(16) 0.0756(5) 0.1223(3)
H1_3 H 0.9974 0.0994 0.1443
C3_3 C 0.8246(14) 0.0417(5) 0.1224(3)
H2_3 H 0.7499 0.0379 0.1448
C4_3 C 0.8093(12) 0.0114(4) 0.0832(3)
Pd1_13 Pd 1.0000 -0.0000 1.0000
Pd1_14 Pd 0.0000 -0.0000 0.5000
N1_4 N 0.0553(9) 0.0295(3) 0.44150(19)
C2_4 C 0.0409(16) 0.0756(5) 0.3777(3)
H1_4 H 0.0026 0.0994 0.3557
C3_4 C 0.1754(14) 0.0417(5) 0.3776(3)
H2_4 H 0.2501 0.0379 0.3552
C4_4 C 0.1907(12) 0.0114(4) 0.4168(3)
Pd1_15 Pd 1.0000 1.0000 0.5000
N3_4 N 0.9447(9) 0.9705(3) 0.55850(19)
C26_4 C 0.9591(16) 0.9244(5) 0.6223(3)
H13_4 H 0.9974 0.9006 0.6443
C27_4 C 0.8246(14) 0.9583(5) 0.6224(3)
H14_4 H 0.7499 0.9621 0.6448
C28_4 C 0.8093(12) 0.9886(4) 0.5832(3)
loop_
_geom_bond_atom_site_label_1
_geom_bond_atom_site_label_2
_geom_bond_site_symmetry_1
_geom_bond_site_symmetry_2
Cd2 O3 1_555 1_555
Cd3 O9 1_555 1_555
Pd1 N1 1_555 1_555
O4 C24 1_555 1_555
N1 C1 1_555 1_555
N2 Pd1 1_555 1_555
C1 C2 1_555 1_555
C2 H1 1_555 1_555
C3 C2 1_555 1_555
H2 C3 1_555 1_555
C4 N1 1_555 1_555
C5 C4 1_555 1_555
C6 N2 1_555 1_555
C7 C6 1_555 1_555
C8 C7 1_555 1_555
H4 C8 1_555 1_555
C9 N2 1_555 1_555
C10 C1 1_555 1_555
C11 C5 1_555 1_555
C12 C11 1_555 1_555
H5 C12 1_555 1_555
C13 C12 1_555 1_555
H6 C13 1_555 1_555
C18 C10 1_555 1_555
C19 C18 1_555 1_555
C20 C19 1_555 1_555
C21 C20 1_555 1_555
C22 C21 1_555 1_555
H11 C22 1_555 1_555
C23 C18 1_555 1_555
H12 C23 1_555 1_555
C24 C21 1_555 1_555
O12 Cd3 1_555 1_555
N3 Pd1 1_555 1_555
N4 Pd1 1_555 1_555
C25 N3 1_555 1_555
C26 C25 1_555 1_555
H13 C26 1_555 1_555
C27 C26 1_555 1_555
H14 C27 1_555 1_555
C28 N3 1_555 1_555
C29 C28 1_555 1_555
C30 N4 1_555 1_555
C31 C30 1_555 1_555
C32 C31 1_555 1_555
H16 C32 1_555 1_555
C33 C10 1_555 1_555
C34 C9 1_555 1_555
C35 C29 1_555 1_555
C36 C35 1_555 1_555
H17 C36 1_555 1_555
C37 C36 1_555 1_555
H18 C37 1_555 1_555
C42 C34 1_555 1_555
C43 C42 1_555 1_555
C44 C43 1_555 1_555
C45 C44 1_555 1_555
C46 C45 1_555 1_555
H23 C46 1_555 1_555
C47 C42 1_555 1_555
H24 C47 1_555 1_555
C48 O12 1_555 1_555
O4 Cd2 1_555 1_555
C3 C4 1_555 1_555
C5 C6 1_555 1_555
C8 C9 1_555 1_555
C22 C23 1_555 1_555
N4 C33 1_555 1_555
C25 C34 1_555 1_555
C27 C28 1_555 1_555
C29 C30 1_555 1_555
C32 C33 1_555 1_555
C45 C48 1_555 1_555
C46 C47 1_555 1_555
Cd3 O5 1_555 1_555
O5 C41 1_555 1_555
O7 Cd3 1_555 1_555
C31_2 C30_2 1_555 1_555
H15 C31_2 1_555 1_555
C35_2 C29_2 1_555 1_555
C36_2 C35_2 1_555 1_555
H17_2 C36_2 1_555 1_555
C37_2 C36_2 1_555 1_555
H18_2 C37_2 1_555 1_555
C38 C37_2 1_555 1_555
C39 C38 1_555 1_555
H19 C39 1_555 1_555
C40 C35_2 1_555 1_555
H20 C40 1_555 1_555
C41 O7 1_555 1_555
C29_2 C30_2 1_555 1_555
C38 C41 1_555 1_555
C39 C40 1_555 1_555
Cd2 O1 1_555 1_555
O1 C17 1_555 1_555
O2 Cd2 1_555 1_555
C7_2 C6_2 1_555 1_555
H3 C7_2 1_555 1_555
C11_2 C5_2 1_555 1_555
C12_2 C11_2 1_555 1_555
H5_2 C12_2 1_555 1_555
C13_2 C12_2 1_555 1_555
H6_2 C13_2 1_555 1_555
C14 C13_2 1_555 1_555
C15 C14 1_555 1_555
H7 C15 1_555 1_555
C16 C11_2 1_555 1_555
H8 C16 1_555 1_555
C17 O2 1_555 1_555
C5_2 C6_2 1_555 1_555
C14 C17 1_555 1_555
C15 C16 1_555 1_555
Cd4 O5_2 1_555 1_555
O5_2 C41_2 1_555 1_555
O7_2 Cd4 1_555 1_555
C39_2 C38_2 1_555 1_555
H19_2 C39_2 1_555 1_555
H20_2 C40_2 1_555 1_555
C41_2 O7_2 1_555 1_555
C38_2 C41_2 1_555 1_555
C39_2 C40_2 1_555 1_555
Pd1_4 N1_2 1_555 1_555
O4_2 C24_2 1_555 1_555
N1_2 C1_2 1_555 1_555
C1_2 C2_2 1_555 1_555
C2_2 H1_2 1_555 1_555
C3_2 C2_2 1_555 1_555
H2_2 C3_2 1_555 1_555
C4_2 N1_2 1_555 1_555
C5_3 C4_2 1_555 1_555
C7_3 C6_3 1_555 1_555
C10_2 C1_2 1_555 1_555
C11_3 C5_3 1_555 1_555
C12_3 C11_3 1_555 1_555
H5_3 C12_3 1_555 1_555
C13_3 C12_3 1_555 1_555
H6_3 C13_3 1_555 1_555
C18_2 C10_2 1_555 1_555
C19_2 C18_2 1_555 1_555
C20_2 C19_2 1_555 1_555
C21_2 C20_2 1_555 1_555
C22_2 C21_2 1_555 1_555
H11_2 C22_2 1_555 1_555
C23_2 C18_2 1_555 1_555
H12_2 C23_2 1_555 1_555
C24_2 C21_2 1_555 1_555
N4_2 Pd1_4 1_555 1_555
H16_2 C32_2 1_555 1_555
C33_2 C10_2 1_555 1_555
O4_2 Cd2_2 1_555 1_555
C3_2 C4_2 1_555 1_555
C5_3 C6_3 1_555 1_555
C22_2 C23_2 1_555 1_555
N4_2 C33_2 1_555 1_555
C32_2 C33_2 1_555 1_555
Cd2_2 O3_2 1_555 1_555
Cd4 O5_3 1_555 1_555
O5_3 C41_3 1_555 1_555
O7_3 Cd4 1_555 1_555
C39_3 C38_3 1_555 1_555
H19_3 C39_3 1_555 1_555
H20_3 C40_3 1_555 1_555
C41_3 O7_3 1_555 1_555
C38_3 C41_3 1_555 1_555
C39_3 C40_3 1_555 1_555
N2_2 Pd1_5 1_555 1_555
H4_2 C8_2 1_555 1_555
C9_2 N2_2 1_555 1_555
Cd4 O9_2 1_555 1_555
O9_2 C48_2 1_555 1_555
O12_2 Cd4 1_555 1_555
C34_2 C9_2 1_555 1_555
C42_2 C34_2 1_555 1_555
C43_2 C42_2 1_555 1_555
H21_2 C43_2 1_555 1_555
C44_2 C43_2 1_555 1_555
H22_2 C44_2 1_555 1_555
C45_2 C44_2 1_555 1_555
C46_2 C45_2 1_555 1_555
H23_2 C46_2 1_555 1_555
C47_2 C42_2 1_555 1_555
H24_2 C47_2 1_555 1_555
C48_2 O12_2 1_555 1_555
C8_2 C9_2 1_555 1_555
C25_2 C34_2 1_555 1_555
C45_2 C48_2 1_555 1_555
C46_2 C47_2 1_555 1_555
O6 Cd2_2 1_555 1_555
O8 Cd2_2 1_555 1_555
O6 C17_2 1_555 1_555
N2_3 Pd1_6 1_555 1_555
C6_4 N2_3 1_555 1_555
C7_4 C6_4 1_555 1_555
H3_2 C7_4 1_555 1_555
C8_3 C7_4 1_555 1_555
H4_3 C8_3 1_555 1_555
C9_3 N2_3 1_555 1_555
C11_4 C5_4 1_555 1_555
C12_4 C11_4 1_555 1_555
H5_4 C12_4 1_555 1_555
C13_4 C12_4 1_555 1_555
H6_4 C13_4 1_555 1_555
C14_2 C13_4 1_555 1_555
C15_2 C14_2 1_555 1_555
H7_2 C15_2 1_555 1_555
C16_2 C11_4 1_555 1_555
H8_2 C16_2 1_555 1_555
C17_2 O8 1_555 1_555
Cd4 O9_3 1_555 1_555
O9_3 C48_3 1_555 1_555
O12_3 Cd4 1_555 1_555
C34_3 C9_3 1_555 1_555
C42_3 C34_3 1_555 1_555
C43_3 C42_3 1_555 1_555
H21_3 C43_3 1_555 1_555
C44_3 C43_3 1_555 1_555
H22_3 C44_3 1_555 1_555
C45_3 C44_3 1_555 1_555
C46_3 C45_3 1_555 1_555
H23_3 C46_3 1_555 1_555
C47_3 C42_3 1_555 1_555
H24_3 C47_3 1_555 1_555
C48_3 O12_3 1_555 1_555
C5_4 C6_4 1_555 1_555
C8_3 C9_3 1_555 1_555
C14_2 C17_2 1_555 1_555
C15_2 C16_2 1_555 1_555
C25_3 C34_3 1_555 1_555
C45_3 C48_3 1_555 1_555
C46_3 C47_3 1_555 1_555
N2_4 Pd1_7 1_555 1_555
H4_4 C8_4 1_555 1_555
C9_4 N2_4 1_555 1_555
O12_4 Cd3_2 1_555 1_555
N3_2 Pd1_7 1_555 1_555
C25_4 N3_2 1_555 1_555
C26_2 C25_4 1_555 1_555
H13_2 C26_2 1_555 1_555
C27_2 C26_2 1_555 1_555
H14_2 C27_2 1_555 1_555
C28_2 N3_2 1_555 1_555
C29_3 C28_2 1_555 1_555
C31_3 C30_3 1_555 1_555
C34_4 C9_4 1_555 1_555
C35_3 C29_3 1_555 1_555
C36_3 C35_3 1_555 1_555
H17_3 C36_3 1_555 1_555
C37_3 C36_3 1_555 1_555
H18_3 C37_3 1_555 1_555
C42_4 C34_4 1_555 1_555
C43_4 C42_4 1_555 1_555
C44_4 C43_4 1_555 1_555
C45_4 C44_4 1_555 1_555
C46_4 C45_4 1_555 1_555
H23_4 C46_4 1_555 1_555
C47_4 C42_4 1_555 1_555
H24_4 C47_4 1_555 1_555
C48_4 O12_4 1_555 1_555
C8_4 C9_4 1_555 1_555
C25_4 C34_4 1_555 1_555
C27_2 C28_2 1_555 1_555
C29_3 C30_3 1_555 1_555
C45_4 C48_4 1_555 1_555
C46_4 C47_4 1_555 1_555
Cd1 O1_2 1_555 1_555
O1_2 C17_3 1_555 1_555
O2_2 Cd1 1_555 1_555
C15_3 C14_3 1_555 1_555
H7_3 C15_3 1_555 1_555
H8_3 C16_3 1_555 1_555
C17_3 O2_2 1_555 1_555
O6_2 Cd1 1_555 1_555
O8_2 Cd1 1_555 1_555
O10 Cd1 1_555 1_555
O11 Cd1 1_555 1_555
O13 Cd1 1_555 1_555
O14 Cd1 1_555 1_555
C14_3 C17_3 1_555 1_555
C15_3 C16_3 1_555 1_555
O6_2 C17_4 1_555 1_555
C15_4 C14_4 1_555 1_555
H7_4 C15_4 1_555 1_555
H8_4 C16_4 1_555 1_555
C17_4 O8_2 1_555 1_555
Cd3_2 O9_4 1_555 1_555
C14_4 C17_4 1_555 1_555
C15_4 C16_4 1_555 1_555
O10 C24_3 1_555 1_555
O13 C24_3 1_555 1_555
C10_3 C1_3 1_555 1_555
C18_3 C10_3 1_555 1_555
C19_3 C18_3 1_555 1_555
H9_3 C19_3 1_555 1_555
C20_3 C19_3 1_555 1_555
H10_3 C20_3 1_555 1_555
C21_3 C20_3 1_555 1_555
C22_3 C21_3 1_555 1_555
H11_3 C22_3 1_555 1_555
C23_3 C18_3 1_555 1_555
H12_3 C23_3 1_555 1_555
C24_3 C21_3 1_555 1_555
N4_3 Pd1_8 1_555 1_555
H16_3 C32_3 1_555 1_555
C33_3 C10_3 1_555 1_555
C22_3 C23_3 1_555 1_555
N4_3 C33_3 1_555 1_555
C32_3 C33_3 1_555 1_555
O11 C24_4 1_555 1_555
O14 C24_4 1_555 1_555
C10_4 C1_4 1_555 1_555
C18_4 C10_4 1_555 1_555
C19_4 C18_4 1_555 1_555
H9_4 C19_4 1_555 1_555
C20_4 C19_4 1_555 1_555
H10_4 C20_4 1_555 1_555
C21_4 C20_4 1_555 1_555
C22_4 C21_4 1_555 1_555
H11_4 C22_4 1_555 1_555
C23_4 C18_4 1_555 1_555
H12_4 C23_4 1_555 1_555
C24_4 C21_4 1_555 1_555
Cd3_2 O5_4 1_555 1_555
O5_4 C41_4 1_555 1_555
O7_4 Cd3_2 1_555 1_555
N4_4 Pd1_9 1_555 1_555
C30_4 N4_4 1_555 1_555
C31_4 C30_4 1_555 1_555
H15_4 C31_4 1_555 1_555
C32_4 C31_4 1_555 1_555
H16_4 C32_4 1_555 1_555
C33_4 C10_4 1_555 1_555
C35_4 C29_4 1_555 1_555
C36_4 C35_4 1_555 1_555
H17_4 C36_4 1_555 1_555
C37_4 C36_4 1_555 1_555
H18_4 C37_4 1_555 1_555
C38_4 C37_4 1_555 1_555
C39_4 C38_4 1_555 1_555
H19_4 C39_4 1_555 1_555
C40_4 C35_4 1_555 1_555
H20_4 C40_4 1_555 1_555
C41_4 O7_4 1_555 1_555
C22_4 C23_4 1_555 1_555
N4_4 C33_4 1_555 1_555
C29_4 C30_4 1_555 1_555
C32_4 C33_4 1_555 1_555
C38_4 C41_4 1_555 1_555
C39_4 C40_4 1_555 1_555
N3_3 Pd1_11 1_555 1_555
H13_3 C26_3 1_555 1_555
C27_3 C26_3 1_555 1_555
H14_3 C27_3 1_555 1_555
C28_3 N3_3 1_555 1_555
C27_3 C28_3 1_555 1_555
Pd1_12 N1_3 1_555 1_555
C2_3 H1_3 1_555 1_555
C3_3 C2_3 1_555 1_555
H2_3 C3_3 1_555 1_555
C4_3 N1_3 1_555 1_555
C3_3 C4_3 1_555 1_555
Pd1_14 N1_4 1_555 1_555
C2_4 H1_4 1_555 1_555
C3_4 C2_4 1_555 1_555
H2_4 C3_4 1_555 1_555
C4_4 N1_4 1_555 1_555
C3_4 C4_4 1_555 1_555
N3_4 Pd1_15 1_555 1_555
H13_4 C26_4 1_555 1_555
C27_4 C26_4 1_555 1_555
H14_4 C27_4 1_555 1_555
C28_4 N3_4 1_555 1_555
C27_4 C28_4 1_555 1_555

#END
