
###############################################################################
#
# This file contains modified crystal structure data generated from the
# MOF subset of the Cambridge Structural Database (CSD) v543 
# hosted by the Cambridge Crystallographic Data Centre (CCDC).
#
# This work is licensed under the Creative Commons
# Attribution-NonCommercial-ShareAlike 4.0 International License.
# To view a copy of this license, visit
# http://creativecommons.org/licenses/by-nc-sa/4.0/
# or send a letter to
# Creative Commons, PO Box 1866, Mountain View, CA 94042, USA.
#
# CIF created using the CSD Python API on 29 September 2022
# The structure has been converted into the P1 space group
# The structure has a 3D framework
# The original CSD entry OQERUY is in the monoclinic crystal system
# The framework has been calculated to contain at least 10.0% void space
# The void calculation uses a probe of radius 1.32A, grid spacing 0.4
#
###############################################################################

data_OQERUY
_chemical_formula_moiety         '(C192 H96 Cd3 N16 O28 Pd6)n'
_symmetry_cell_setting           triclinic
_symmetry_space_group_name_H-M   'P 1'
_symmetry_Int_Tables_number      1
_space_group_name_Hall           'P 1'
loop_
_symmetry_equiv_pos_site_id
_symmetry_equiv_pos_as_xyz
1 x,y,z
_cell_length_a                   7.2172(15)
_cell_length_b                   25.613(5)
_cell_length_c                   30.660(3)
_cell_angle_alpha                90
_cell_angle_beta                 96.392(13)
_cell_angle_gamma                90
_cell_volume                     5632.4
loop_
_atom_site_label
_atom_site_type_symbol
_atom_site_fract_x
_atom_site_fract_y
_atom_site_fract_z
Cd1 Cd -0.0000 0.40505(6) 0.2500
O7 O 0.105(2) 0.3433(5) 0.3055(3)
O10 O 0.142(5) 0.4874(13) 0.2988(11)
O12 O 0.151(5) 0.4549(7) 0.1953(5)
Pd1 Pd 0.7500 0.2500 1.0000
N2 N 0.9544(17) 0.2985(5) 0.9993(3)
C9 C 0.985(3) 0.3365(7) 0.9680(5)
Cd3 Cd 1.0000 0.59495(6) 0.7500
O11 O 0.849(5) 0.5451(7) 0.8047(5)
N3 N 0.638(2) 0.2798(5) 0.9408(3)
C25 C 0.704(2) 0.3193(7) 0.9190(5)
C26 C 0.584(3) 0.3236(9) 0.8761(5)
H13 H 0.6011 0.3464 0.8532
C27 C 0.454(3) 0.2899(9) 0.8770(5)
H14 H 0.3559 0.2864 0.8548
C28 C 0.476(3) 0.2565(9) 0.9173(5)
C29 C 0.360(3) 0.2194(8) 0.9291(4)
C30 C 0.390(3) 0.1952(7) 0.9682(5)
C31 C 0.274(3) 0.1551(9) 0.9800(6)
H15 H 0.1634 0.1447 0.9639
C34 C 0.863(3) 0.3455(7) 0.9291(4)
C35 C 0.209(3) 0.2012(7) 0.8966(5)
C36 C 0.245(3) 0.1725(9) 0.8591(6)
H17 H 0.3662 0.1624 0.8559
C37 C 0.108(3) 0.1596(9) 0.8286(5)
H18 H 0.1367 0.1438 0.8028
C40 C 0.027(3) 0.2129(7) 0.9000(4)
C42 C 0.903(3) 0.3888(6) 0.9003(4)
C45 C 0.962(3) 0.4709(6) 0.8441(5)
C46 C 0.809(3) 0.4716(6) 0.8680(6)
H23 H 0.7259 0.4995 0.8652
C47 C 0.780(2) 0.4305(8) 0.8961(5)
H24 H 0.6774 0.4310 0.9120
C48 C 0.990(4) 0.5130(11) 0.8107(9)
C3 C 0.954(3) 0.2101(9) 0.3770(5)
H2 H 0.8559 0.2136 0.3548
C4 C 0.976(3) 0.2435(9) 0.4173(5)
C5 C 0.860(3) 0.2806(8) 0.4291(4)
C6 C 0.890(3) 0.3048(7) 0.4682(5)
C7 C 0.774(3) 0.3449(9) 0.4800(6)
H3 H 0.6634 0.3553 0.4639
C8 C 0.851(3) 0.3671(8) 0.5202(5)
H4 H 0.8058 0.3949 0.5354
C11 C 0.709(3) 0.2988(7) 0.3966(5)
C12 C 0.745(3) 0.3275(9) 0.3591(6)
H5 H 0.8662 0.3376 0.3559
C13 C 0.608(3) 0.3404(9) 0.3286(5)
H6 H 0.6367 0.3562 0.3028
C14 C 0.426(3) 0.3308(7) 0.3341(4)
C15 C 0.380(2) 0.3030(7) 0.3701(5)
H7 H 0.2570 0.2954 0.3740
C16 C 0.527(3) 0.2871(7) 0.4000(4)
H8 H 0.4997 0.2672 0.4239
C17 C 0.269(3) 0.3547(8) 0.3018(5)
O4 O 0.3108(15) 0.3831(5) 0.2725(3)
O8 O 0.858(5) 0.5126(13) 0.7012(11)
C43 C 0.944(2) 0.3881(6) 0.6235(6)
H21 H 0.8608 0.3602 0.6207
C44 C 0.915(2) 0.4292(9) 0.6516(5)
H22 H 0.8123 0.4287 0.6676
Pd1_2 Pd 0.2500 0.7500 0.0000
N1 N 0.362(2) 0.7202(5) 0.0592(3)
C1 C 0.296(2) 0.6807(7) 0.0810(5)
C2 C 0.416(3) 0.6764(9) 0.1239(5)
H1 H 0.3989 0.6536 0.1468
C3_2 C 0.546(3) 0.7101(9) 0.1230(5)
H2_2 H 0.6441 0.7136 0.1452
C4_2 C 0.524(3) 0.7435(9) 0.0827(5)
C5_2 C 0.640(3) 0.7806(8) 0.0709(4)
C6_2 C 0.610(3) 0.8048(7) 0.0318(5)
C7_2 C 0.726(3) 0.8449(9) 0.0200(6)
H3_2 H 0.8366 0.8553 0.0361
C10 C 0.137(3) 0.6545(7) 0.0709(4)
C11_2 C 0.791(3) 0.7988(7) 0.1034(5)
C12_2 C 0.755(3) 0.8275(9) 0.1409(6)
H5_2 H 0.6338 0.8376 0.1441
C13_2 C 0.892(3) 0.8404(9) 0.1714(5)
H6_2 H 0.8633 0.8562 0.1972
C16_2 C 0.973(3) 0.7871(7) 0.1000(4)
C18 C 0.097(3) 0.6112(6) 0.0997(4)
C21 C 0.038(3) 0.5291(6) 0.1559(5)
C22 C 0.191(3) 0.5284(6) 0.1320(6)
H11 H 0.2741 0.5005 0.1348
C23 C 0.220(2) 0.5695(8) 0.1039(5)
H12 H 0.3226 0.5690 0.0880
C24 C 0.010(4) 0.4870(11) 0.1893(9)
N4 N 0.0456(17) 0.7015(5) 0.0007(3)
C33 C 0.015(3) 0.6635(7) 0.0320(5)
C19 C 0.056(2) 0.6119(6) 0.3765(6)
H9 H 0.1392 0.6398 0.3793
C20 C 0.085(2) 0.5708(9) 0.3484(5)
H10 H 0.1877 0.5713 0.3324
O5 O 0.6892(15) 0.6169(5) 0.7275(3)
O6 O 0.895(2) 0.6567(5) 0.6945(3)
C27_2 C 0.046(3) 0.7899(9) 0.6230(5)
H14_2 H 0.1441 0.7864 0.6452
C28_2 C 0.024(3) 0.7565(9) 0.5827(5)
C29_2 C 0.140(3) 0.7194(8) 0.5709(4)
C30_2 C 0.110(3) 0.6952(7) 0.5318(5)
C31_2 C 0.226(3) 0.6551(9) 0.5200(6)
H15_2 H 0.3366 0.6447 0.5361
C32 C 0.149(3) 0.6329(8) 0.4798(5)
H16 H 0.1942 0.6051 0.4646
C35_2 C 0.291(3) 0.7012(7) 0.6034(5)
C36_2 C 0.255(3) 0.6725(9) 0.6409(6)
H17_2 H 0.1338 0.6624 0.6441
C37_2 C 0.392(3) 0.6596(9) 0.6714(5)
H18_2 H 0.3633 0.6438 0.6972
C38 C 0.574(3) 0.6692(7) 0.6659(4)
C39 C 0.620(2) 0.6970(7) 0.6299(5)
H19 H 0.7430 0.7046 0.6260
C40_2 C 0.473(3) 0.7129(7) 0.6000(4)
H20 H 0.5003 0.7328 0.5761
C41 C 0.731(3) 0.6453(8) 0.6982(5)
Cd1_2 Cd 1.0000 0.40505(6) 0.2500
O1 O 0.895(2) 0.3433(5) 0.1945(3)
C3_3 C 0.046(3) 0.2101(9) 0.1230(5)
H2_3 H 0.1441 0.2136 0.1452
C4_3 C 0.024(3) 0.2435(9) 0.0827(5)
C5_3 C 0.140(3) 0.2806(8) 0.0709(4)
C6_3 C 0.110(3) 0.3048(7) 0.0318(5)
C7_3 C 0.226(3) 0.3449(9) 0.0200(6)
H3_3 H 0.3366 0.3553 0.0361
C11_3 C 0.291(3) 0.2988(7) 0.1034(5)
C12_3 C 0.255(3) 0.3275(9) 0.1409(6)
H5_3 H 0.1338 0.3376 0.1441
C13_3 C 0.392(3) 0.3404(9) 0.1714(5)
H6_3 H 0.3633 0.3562 0.1972
C14_2 C 0.574(3) 0.3308(7) 0.1659(4)
C15_2 C 0.620(2) 0.3030(7) 0.1299(5)
H7_2 H 0.7430 0.2954 0.1260
C16_3 C 0.473(3) 0.2871(7) 0.1000(4)
H8_2 H 0.5003 0.2672 0.0761
C17_2 C 0.731(3) 0.3547(8) 0.1982(5)
O4_2 O 0.6892(15) 0.3831(5) 0.2275(3)
O9 O 0.858(5) 0.4874(13) 0.2012(11)
O13 O 0.849(5) 0.4549(7) 0.3047(5)
C19_2 C 0.944(2) 0.6119(6) 0.1235(6)
H9_2 H 0.8608 0.6398 0.1207
C20_2 C 0.915(2) 0.5708(9) 0.1516(5)
H10_2 H 0.8123 0.5713 0.1676
C32_2 C 0.851(3) 0.6329(8) 0.0202(5)
H16_2 H 0.8058 0.6051 0.0354
Pd1_3 Pd 0.7500 0.7500 0.5000
N1_2 N 0.638(2) 0.7202(5) 0.4408(3)
N2_2 N 0.5456(17) 0.7985(5) 0.5007(3)
C1_2 C 0.704(2) 0.6807(7) 0.4190(5)
C2_2 C 0.584(3) 0.6764(9) 0.3761(5)
H1_2 H 0.6011 0.6536 0.3532
C3_4 C 0.454(3) 0.7101(9) 0.3770(5)
H2_4 H 0.3559 0.7136 0.3548
C4_4 C 0.476(3) 0.7435(9) 0.4173(5)
C5_4 C 0.360(3) 0.7806(8) 0.4291(4)
C6_4 C 0.390(3) 0.8048(7) 0.4682(5)
C7_4 C 0.274(3) 0.8449(9) 0.4800(6)
H3_4 H 0.1634 0.8553 0.4639
C8_2 C 0.351(3) 0.8671(8) 0.5202(5)
H4_2 H 0.3058 0.8949 0.5354
C9_2 C 0.515(3) 0.8365(7) 0.5320(5)
C10_2 C 0.863(3) 0.6545(7) 0.4291(4)
C11_4 C 0.209(3) 0.7988(7) 0.3966(5)
C12_4 C 0.245(3) 0.8275(9) 0.3591(6)
H5_4 H 0.3662 0.8376 0.3559
C13_4 C 0.108(3) 0.8404(9) 0.3286(5)
H6_4 H 0.1367 0.8562 0.3028
C16_4 C 0.027(3) 0.7871(7) 0.4000(4)
C18_2 C 0.903(3) 0.6112(6) 0.4003(4)
C21_2 C 0.962(3) 0.5291(6) 0.3441(5)
C22_2 C 0.809(3) 0.5284(6) 0.3680(6)
H11_2 H 0.7259 0.5005 0.3652
C23_2 C 0.780(2) 0.5695(8) 0.3961(5)
H12_2 H 0.6774 0.5690 0.4120
C24_2 C 0.990(4) 0.4870(11) 0.3107(9)
N3_2 N 0.862(2) 0.7798(5) 0.5592(3)
N4_2 N 0.9544(17) 0.7015(5) 0.4993(3)
C25_2 C 0.796(2) 0.8193(7) 0.5810(5)
C26_2 C 0.916(3) 0.8236(9) 0.6239(5)
H13_2 H 0.8989 0.8464 0.6468
C33_2 C 0.985(3) 0.6635(7) 0.4680(5)
C34_2 C 0.637(3) 0.8455(7) 0.5709(4)
C42_2 C 0.597(3) 0.8888(6) 0.5997(4)
C43_2 C 0.444(2) 0.8881(6) 0.6235(6)
H21_2 H 0.3608 0.8602 0.6207
C44_2 C 0.415(2) 0.9292(9) 0.6516(5)
H22_2 H 0.3123 0.9287 0.6676
C45_2 C 0.538(3) 0.9709(6) 0.6559(5)
C46_2 C 0.691(3) 0.9716(6) 0.6320(6)
H23_2 H 0.7741 0.9995 0.6348
C47_2 C 0.720(2) 0.9305(8) 0.6039(5)
H24_2 H 0.8226 0.9310 0.5880
C8_3 C 0.149(3) 0.3671(8) 0.9798(5)
H4_3 H 0.1942 0.3949 0.9646
Cd3_2 Cd 0.0000 0.59495(6) 0.7500
O8_2 O 0.142(5) 0.5126(13) 0.7988(11)
C43_3 C 0.056(2) 0.3881(6) 0.8765(6)
H21_3 H 0.1392 0.3602 0.8793
C44_3 C 0.085(2) 0.4292(9) 0.8484(5)
H22_3 H 0.1877 0.4287 0.8324
Pd1_4 Pd 0.2500 0.2500 0.5000
N1_3 N 0.138(2) 0.2202(5) 0.4408(3)
N2_3 N 0.0456(17) 0.2985(5) 0.5007(3)
C1_3 C 0.204(2) 0.1807(7) 0.4190(5)
C2_3 C 0.084(3) 0.1764(9) 0.3761(5)
H1_3 H 0.1011 0.1536 0.3532
C9_3 C 0.015(3) 0.3365(7) 0.5320(5)
C10_3 C 0.363(3) 0.1545(7) 0.4291(4)
C18_3 C 0.403(3) 0.1112(6) 0.4003(4)
C19_3 C 0.556(2) 0.1119(6) 0.3765(6)
H9_3 H 0.6392 0.1398 0.3793
C20_3 C 0.585(2) 0.0708(9) 0.3484(5)
H10_3 H 0.6877 0.0713 0.3324
C21_3 C 0.462(3) 0.0291(6) 0.3441(5)
C22_3 C 0.309(3) 0.0284(6) 0.3680(6)
H11_3 H 0.2259 0.0005 0.3652
C23_3 C 0.280(2) 0.0695(8) 0.3961(5)
H12_3 H 0.1774 0.0690 0.4120
O11_2 O 0.151(5) 0.5451(7) 0.6953(5)
N3_3 N 0.362(2) 0.2798(5) 0.5592(3)
N4_3 N 0.4544(17) 0.2015(5) 0.4993(3)
C25_3 C 0.296(2) 0.3193(7) 0.5810(5)
C26_3 C 0.416(3) 0.3236(9) 0.6239(5)
H13_3 H 0.3989 0.3464 0.6468
C27_3 C 0.546(3) 0.2899(9) 0.6230(5)
H14_3 H 0.6441 0.2864 0.6452
C28_3 C 0.524(3) 0.2565(9) 0.5827(5)
C29_3 C 0.640(3) 0.2194(8) 0.5709(4)
C30_3 C 0.610(3) 0.1952(7) 0.5318(5)
C31_3 C 0.726(3) 0.1551(9) 0.5200(6)
H15_3 H 0.8366 0.1447 0.5361
C32_3 C 0.649(3) 0.1329(8) 0.4798(5)
H16_3 H 0.6942 0.1051 0.4646
C33_3 C 0.485(3) 0.1635(7) 0.4680(5)
C34_3 C 0.137(3) 0.3455(7) 0.5709(4)
C35_3 C 0.791(3) 0.2012(7) 0.6034(5)
C36_3 C 0.755(3) 0.1725(9) 0.6409(6)
H17_3 H 0.6338 0.1624 0.6441
C37_3 C 0.892(3) 0.1596(9) 0.6714(5)
H18_3 H 0.8633 0.1438 0.6972
C40_3 C 0.973(3) 0.2129(7) 0.6000(4)
C42_3 C 0.097(3) 0.3888(6) 0.5997(4)
C45_3 C 0.038(3) 0.4709(6) 0.6559(5)
C46_3 C 0.191(3) 0.4716(6) 0.6320(6)
H23_3 H 0.2741 0.4995 0.6348
C47_3 C 0.220(2) 0.4305(8) 0.6039(5)
H24_3 H 0.3226 0.4310 0.5880
C48_2 C 0.010(4) 0.5130(11) 0.6893(9)
O5_2 O 0.3108(15) 0.6169(5) 0.7725(3)
O6_2 O 0.105(2) 0.6567(5) 0.8055(3)
C27_4 C 0.954(3) 0.7899(9) 0.8770(5)
H14_4 H 0.8559 0.7864 0.8548
C28_4 C 0.976(3) 0.7565(9) 0.9173(5)
C29_4 C 0.860(3) 0.7194(8) 0.9291(4)
C30_4 C 0.890(3) 0.6952(7) 0.9682(5)
C31_4 C 0.774(3) 0.6551(9) 0.9800(6)
H15_4 H 0.6634 0.6447 0.9639
C35_4 C 0.709(3) 0.7012(7) 0.8966(5)
C36_4 C 0.745(3) 0.6725(9) 0.8591(6)
H17_4 H 0.8662 0.6624 0.8559
C37_4 C 0.608(3) 0.6596(9) 0.8286(5)
H18_4 H 0.6367 0.6438 0.8028
C38_2 C 0.426(3) 0.6692(7) 0.8341(4)
C39_2 C 0.380(2) 0.6970(7) 0.8701(5)
H19_2 H 0.2570 0.7046 0.8740
C40_4 C 0.527(3) 0.7129(7) 0.9000(4)
H20_2 H 0.4997 0.7328 0.9239
C41_2 C 0.269(3) 0.6453(8) 0.8018(5)
Pd1_5 Pd 0.7500 0.2500 0.0000
N1_4 N 0.862(2) 0.2202(5) 0.0592(3)
C1_4 C 0.796(2) 0.1807(7) 0.0810(5)
C2_4 C 0.916(3) 0.1764(9) 0.1239(5)
H1_4 H 0.8989 0.1536 0.1468
C10_4 C 0.637(3) 0.1545(7) 0.0709(4)
C18_4 C 0.597(3) 0.1112(6) 0.0997(4)
C19_4 C 0.444(2) 0.1119(6) 0.1235(6)
H9_4 H 0.3608 0.1398 0.1207
C20_4 C 0.415(2) 0.0708(9) 0.1516(5)
H10_4 H 0.3123 0.0713 0.1676
C21_4 C 0.538(3) 0.0291(6) 0.1559(5)
C22_4 C 0.691(3) 0.0284(6) 0.1320(6)
H11_4 H 0.7741 0.0005 0.1348
C23_4 C 0.720(2) 0.0695(8) 0.1039(5)
H12_4 H 0.8226 0.0690 0.0880
N4_4 N 0.5456(17) 0.2015(5) 0.0007(3)
C32_4 C 0.351(3) 0.1329(8) 0.0202(5)
H16_4 H 0.3058 0.1051 0.0354
C33_4 C 0.515(3) 0.1635(7) 0.0320(5)
O2 O 0.358(5) 0.9874(13) 0.2012(11)
O3 O 0.651(5) 0.9549(7) 0.1953(5)
C24_3 C 0.510(4) 0.9870(11) 0.1893(9)
Cd2 Cd 0.5000 0.90505(6) 0.2500
O2_2 O 0.642(5) 0.9874(13) 0.2988(11)
O3_2 O 0.349(5) 0.9549(7) 0.3047(5)
C24_4 C 0.490(4) 0.9870(11) 0.3107(9)
O1_2 O 0.395(2) 0.8433(5) 0.1945(3)
C14_3 C 0.074(3) 0.8308(7) 0.1659(4)
C15_3 C 0.120(2) 0.8030(7) 0.1299(5)
H7_3 H 0.2430 0.7954 0.1260
H8_3 H 0.0003 0.7672 0.0761
C17_3 C 0.231(3) 0.8547(8) 0.1982(5)
O4_3 O 0.1892(15) 0.8831(5) 0.2275(3)
O7_2 O 0.605(2) 0.8433(5) 0.3055(3)
C14_4 C 0.926(3) 0.8308(7) 0.3341(4)
C15_4 C 0.880(2) 0.8030(7) 0.3701(5)
H7_4 H 0.7570 0.7954 0.3740
H8_4 H 0.9997 0.7672 0.4239
C17_4 C 0.769(3) 0.8547(8) 0.3018(5)
O4_4 O 0.8108(15) 0.8831(5) 0.2725(3)
Cd4 Cd 0.5000 0.09495(6) 0.7500
O5_3 O 0.8108(15) 0.1169(5) 0.7725(3)
O6_3 O 0.605(2) 0.1567(5) 0.8055(3)
C38_3 C 0.926(3) 0.1692(7) 0.8341(4)
C39_3 C 0.880(2) 0.1970(7) 0.8701(5)
H19_3 H 0.7570 0.2046 0.8740
H20_3 H 0.9997 0.2328 0.9239
C41_3 C 0.769(3) 0.1453(8) 0.8018(5)
O5_4 O 0.1892(15) 0.1169(5) 0.7275(3)
O6_4 O 0.395(2) 0.1567(5) 0.6945(3)
C38_4 C 0.074(3) 0.1692(7) 0.6659(4)
C39_4 C 0.120(2) 0.1970(7) 0.6299(5)
H19_4 H 0.2430 0.2046 0.6260
H20_4 H 0.0003 0.2328 0.5761
C41_4 C 0.231(3) 0.1453(8) 0.6982(5)
O8_3 O 0.642(5) 0.0126(13) 0.7988(11)
O11_3 O 0.349(5) 0.0451(7) 0.8047(5)
C48_3 C 0.490(4) 0.0130(11) 0.8107(9)
O8_4 O 0.358(5) 0.0126(13) 0.7012(11)
O11_4 O 0.651(5) 0.0451(7) 0.6953(5)
C48_4 C 0.510(4) 0.0130(11) 0.6893(9)
Pd1_6 Pd 0.2500 0.7500 1.0000
N2_4 N 0.4544(17) 0.7985(5) 0.9993(3)
C8_4 C 0.649(3) 0.8671(8) 0.9798(5)
H4_4 H 0.6942 0.8949 0.9646
C9_4 C 0.485(3) 0.8365(7) 0.9680(5)
N3_4 N 0.138(2) 0.7798(5) 0.9408(3)
C25_4 C 0.204(2) 0.8193(7) 0.9190(5)
C26_4 C 0.084(3) 0.8236(9) 0.8761(5)
H13_4 H 0.1011 0.8464 0.8532
C34_4 C 0.363(3) 0.8455(7) 0.9291(4)
C42_4 C 0.403(3) 0.8888(6) 0.9003(4)
C43_4 C 0.556(2) 0.8881(6) 0.8765(6)
H21_4 H 0.6392 0.8602 0.8793
C44_4 C 0.585(2) 0.9292(9) 0.8484(5)
H22_4 H 0.6877 0.9287 0.8324
C45_4 C 0.462(3) 0.9709(6) 0.8441(5)
C46_4 C 0.309(3) 0.9716(6) 0.8680(6)
H23_4 H 0.2259 0.9995 0.8652
C47_4 C 0.280(2) 0.9305(8) 0.8961(5)
H24_4 H 0.1774 0.9310 0.9120
loop_
_geom_bond_atom_site_label_1
_geom_bond_atom_site_label_2
_geom_bond_site_symmetry_1
_geom_bond_site_symmetry_2
O7 Cd1 1_555 1_555
O10 Cd1 1_555 1_555
O12 Cd1 1_555 1_555
N2 Pd1 1_555 1_555
C9 N2 1_555 1_555
O11 Cd3 1_555 1_555
N3 Pd1 1_555 1_555
C25 N3 1_555 1_555
C26 C25 1_555 1_555
H13 C26 1_555 1_555
C27 C26 1_555 1_555
H14 C27 1_555 1_555
C28 N3 1_555 1_555
C29 C28 1_555 1_555
C31 C30 1_555 1_555
H15 C31 1_555 1_555
C34 C9 1_555 1_555
C35 C29 1_555 1_555
C36 C35 1_555 1_555
H17 C36 1_555 1_555
C37 C36 1_555 1_555
H18 C37 1_555 1_555
C40 C35 1_555 1_555
C42 C34 1_555 1_555
C46 C45 1_555 1_555
H23 C46 1_555 1_555
C47 C42 1_555 1_555
H24 C47 1_555 1_555
C48 O11 1_555 1_555
C25 C34 1_555 1_555
C27 C28 1_555 1_555
C29 C30 1_555 1_555
C45 C48 1_555 1_555
C46 C47 1_555 1_555
O7 C17 1_555 1_555
H2 C3 1_555 1_555
C5 C4 1_555 1_555
C7 C6 1_555 1_555
H3 C7 1_555 1_555
C8 C7 1_555 1_555
H4 C8 1_555 1_555
C11 C5 1_555 1_555
C12 C11 1_555 1_555
H5 C12 1_555 1_555
C13 C12 1_555 1_555
H6 C13 1_555 1_555
C14 C13 1_555 1_555
C15 C14 1_555 1_555
H7 C15 1_555 1_555
C16 C11 1_555 1_555
H8 C16 1_555 1_555
C17 C14 1_555 1_555
Cd3 O8 1_555 1_555
O4 Cd1 1_555 1_555
H21 C43 1_555 1_555
C44 C43 1_555 1_555
H22 C44 1_555 1_555
C3 C4 1_555 1_555
C5 C6 1_555 1_555
C15 C16 1_555 1_555
C17 O4 1_555 1_555
Pd1_2 N1 1_555 1_555
O12 C24 1_555 1_555
N1 C1 1_555 1_555
C1 C2 1_555 1_555
C2 H1 1_555 1_555
C3_2 C2 1_555 1_555
H2_2 C3_2 1_555 1_555
C4_2 N1 1_555 1_555
C5_2 C4_2 1_555 1_555
C7_2 C6_2 1_555 1_555
H3_2 C7_2 1_555 1_555
C10 C1 1_555 1_555
C11_2 C5_2 1_555 1_555
C12_2 C11_2 1_555 1_555
H5_2 C12_2 1_555 1_555
C13_2 C12_2 1_555 1_555
H6_2 C13_2 1_555 1_555
C16_2 C11_2 1_555 1_555
C18 C10 1_555 1_555
C22 C21 1_555 1_555
H11 C22 1_555 1_555
C23 C18 1_555 1_555
H12 C23 1_555 1_555
C24 C21 1_555 1_555
N4 Pd1_2 1_555 1_555
C33 C10 1_555 1_555
C3_2 C4_2 1_555 1_555
C5_2 C6_2 1_555 1_555
C22 C23 1_555 1_555
N4 C33 1_555 1_555
H9 C19 1_555 1_555
C20 C19 1_555 1_555
H10 C20 1_555 1_555
Cd3 O5 1_555 1_555
O5 C41 1_555 1_555
O6 Cd3 1_555 1_555
H14_2 C27_2 1_555 1_555
C29_2 C28_2 1_555 1_555
C31_2 C30_2 1_555 1_555
H15_2 C31_2 1_555 1_555
C32 C31_2 1_555 1_555
H16 C32 1_555 1_555
C35_2 C29_2 1_555 1_555
C36_2 C35_2 1_555 1_555
H17_2 C36_2 1_555 1_555
C37_2 C36_2 1_555 1_555
H18_2 C37_2 1_555 1_555
C38 C37_2 1_555 1_555
C39 C38 1_555 1_555
H19 C39 1_555 1_555
C40_2 C35_2 1_555 1_555
H20 C40_2 1_555 1_555
C41 O6 1_555 1_555
C27_2 C28_2 1_555 1_555
C29_2 C30_2 1_555 1_555
C38 C41 1_555 1_555
C39 C40_2 1_555 1_555
Cd1_2 O1 1_555 1_555
O1 C17_2 1_555 1_555
H2_3 C3_3 1_555 1_555
C5_3 C4_3 1_555 1_555
C7_3 C6_3 1_555 1_555
H3_3 C7_3 1_555 1_555
C11_3 C5_3 1_555 1_555
C12_3 C11_3 1_555 1_555
H5_3 C12_3 1_555 1_555
C13_3 C12_3 1_555 1_555
H6_3 C13_3 1_555 1_555
C14_2 C13_3 1_555 1_555
C15_2 C14_2 1_555 1_555
H7_2 C15_2 1_555 1_555
C16_3 C11_3 1_555 1_555
H8_2 C16_3 1_555 1_555
C17_2 C14_2 1_555 1_555
O4_2 Cd1_2 1_555 1_555
O9 Cd1_2 1_555 1_555
O13 Cd1_2 1_555 1_555
C3_3 C4_3 1_555 1_555
C5_3 C6_3 1_555 1_555
C15_2 C16_3 1_555 1_555
C17_2 O4_2 1_555 1_555
H9_2 C19_2 1_555 1_555
C20_2 C19_2 1_555 1_555
H10_2 C20_2 1_555 1_555
H16_2 C32_2 1_555 1_555
Pd1_3 N1_2 1_555 1_555
O13 C24_2 1_555 1_555
N1_2 C1_2 1_555 1_555
N2_2 Pd1_3 1_555 1_555
C1_2 C2_2 1_555 1_555
C2_2 H1_2 1_555 1_555
C3_4 C2_2 1_555 1_555
H2_4 C3_4 1_555 1_555
C4_4 N1_2 1_555 1_555
C5_4 C4_4 1_555 1_555
C6_4 N2_2 1_555 1_555
C7_4 C6_4 1_555 1_555
H3_4 C7_4 1_555 1_555
C8_2 C7_4 1_555 1_555
H4_2 C8_2 1_555 1_555
C9_2 N2_2 1_555 1_555
C10_2 C1_2 1_555 1_555
C11_4 C5_4 1_555 1_555
C12_4 C11_4 1_555 1_555
H5_4 C12_4 1_555 1_555
C13_4 C12_4 1_555 1_555
H6_4 C13_4 1_555 1_555
C16_4 C11_4 1_555 1_555
C18_2 C10_2 1_555 1_555
C22_2 C21_2 1_555 1_555
H11_2 C22_2 1_555 1_555
C23_2 C18_2 1_555 1_555
H12_2 C23_2 1_555 1_555
C24_2 C21_2 1_555 1_555
N3_2 Pd1_3 1_555 1_555
N4_2 Pd1_3 1_555 1_555
C25_2 N3_2 1_555 1_555
C26_2 C25_2 1_555 1_555
H13_2 C26_2 1_555 1_555
C33_2 C10_2 1_555 1_555
C34_2 C9_2 1_555 1_555
C42_2 C34_2 1_555 1_555
C43_2 C42_2 1_555 1_555
H21_2 C43_2 1_555 1_555
C44_2 C43_2 1_555 1_555
H22_2 C44_2 1_555 1_555
C45_2 C44_2 1_555 1_555
C46_2 C45_2 1_555 1_555
H23_2 C46_2 1_555 1_555
C47_2 C42_2 1_555 1_555
H24_2 C47_2 1_555 1_555
C3_4 C4_4 1_555 1_555
C5_4 C6_4 1_555 1_555
C8_2 C9_2 1_555 1_555
C22_2 C23_2 1_555 1_555
N4_2 C33_2 1_555 1_555
C25_2 C34_2 1_555 1_555
C46_2 C47_2 1_555 1_555
H4_3 C8_3 1_555 1_555
Cd3_2 O8_2 1_555 1_555
H21_3 C43_3 1_555 1_555
C44_3 C43_3 1_555 1_555
H22_3 C44_3 1_555 1_555
Pd1_4 N1_3 1_555 1_555
N1_3 C1_3 1_555 1_555
N2_3 Pd1_4 1_555 1_555
C1_3 C2_3 1_555 1_555
C2_3 H1_3 1_555 1_555
C9_3 N2_3 1_555 1_555
C10_3 C1_3 1_555 1_555
C18_3 C10_3 1_555 1_555
C19_3 C18_3 1_555 1_555
H9_3 C19_3 1_555 1_555
C20_3 C19_3 1_555 1_555
H10_3 C20_3 1_555 1_555
C21_3 C20_3 1_555 1_555
C22_3 C21_3 1_555 1_555
H11_3 C22_3 1_555 1_555
C23_3 C18_3 1_555 1_555
H12_3 C23_3 1_555 1_555
O11_2 Cd3_2 1_555 1_555
N3_3 Pd1_4 1_555 1_555
N4_3 Pd1_4 1_555 1_555
C25_3 N3_3 1_555 1_555
C26_3 C25_3 1_555 1_555
H13_3 C26_3 1_555 1_555
C27_3 C26_3 1_555 1_555
H14_3 C27_3 1_555 1_555
C28_3 N3_3 1_555 1_555
C29_3 C28_3 1_555 1_555
C30_3 N4_3 1_555 1_555
C31_3 C30_3 1_555 1_555
H15_3 C31_3 1_555 1_555
C32_3 C31_3 1_555 1_555
H16_3 C32_3 1_555 1_555
C33_3 C10_3 1_555 1_555
C34_3 C9_3 1_555 1_555
C35_3 C29_3 1_555 1_555
C36_3 C35_3 1_555 1_555
H17_3 C36_3 1_555 1_555
C37_3 C36_3 1_555 1_555
H18_3 C37_3 1_555 1_555
C40_3 C35_3 1_555 1_555
C42_3 C34_3 1_555 1_555
C46_3 C45_3 1_555 1_555
H23_3 C46_3 1_555 1_555
C47_3 C42_3 1_555 1_555
H24_3 C47_3 1_555 1_555
C48_2 O11_2 1_555 1_555
C22_3 C23_3 1_555 1_555
N4_3 C33_3 1_555 1_555
C25_3 C34_3 1_555 1_555
C27_3 C28_3 1_555 1_555
C29_3 C30_3 1_555 1_555
C32_3 C33_3 1_555 1_555
C45_3 C48_2 1_555 1_555
C46_3 C47_3 1_555 1_555
Cd3_2 O5_2 1_555 1_555
O5_2 C41_2 1_555 1_555
O6_2 Cd3_2 1_555 1_555
H14_4 C27_4 1_555 1_555
C29_4 C28_4 1_555 1_555
C31_4 C30_4 1_555 1_555
H15_4 C31_4 1_555 1_555
C35_4 C29_4 1_555 1_555
C36_4 C35_4 1_555 1_555
H17_4 C36_4 1_555 1_555
C37_4 C36_4 1_555 1_555
H18_4 C37_4 1_555 1_555
C38_2 C37_4 1_555 1_555
C39_2 C38_2 1_555 1_555
H19_2 C39_2 1_555 1_555
C40_4 C35_4 1_555 1_555
H20_2 C40_4 1_555 1_555
C41_2 O6_2 1_555 1_555
C27_4 C28_4 1_555 1_555
C29_4 C30_4 1_555 1_555
C38_2 C41_2 1_555 1_555
C39_2 C40_4 1_555 1_555
Pd1_5 N1_4 1_555 1_555
N1_4 C1_4 1_555 1_555
C1_4 C2_4 1_555 1_555
C2_4 H1_4 1_555 1_555
C10_4 C1_4 1_555 1_555
C18_4 C10_4 1_555 1_555
C19_4 C18_4 1_555 1_555
H9_4 C19_4 1_555 1_555
C20_4 C19_4 1_555 1_555
H10_4 C20_4 1_555 1_555
C21_4 C20_4 1_555 1_555
C22_4 C21_4 1_555 1_555
H11_4 C22_4 1_555 1_555
C23_4 C18_4 1_555 1_555
H12_4 C23_4 1_555 1_555
N4_4 Pd1_5 1_555 1_555
H16_4 C32_4 1_555 1_555
C33_4 C10_4 1_555 1_555
C22_4 C23_4 1_555 1_555
N4_4 C33_4 1_555 1_555
C32_4 C33_4 1_555 1_555
O2 C24_3 1_555 1_555
O3 C24_3 1_555 1_555
Cd2 O2 1_555 1_555
O3 Cd2 1_555 1_555
O2_2 C24_4 1_555 1_555
O3_2 C24_4 1_555 1_555
Cd2 O2_2 1_555 1_555
O3_2 Cd2 1_555 1_555
Cd2 O1_2 1_555 1_555
O1_2 C17_3 1_555 1_555
C15_3 C14_3 1_555 1_555
H7_3 C15_3 1_555 1_555
C17_3 C14_3 1_555 1_555
O4_3 Cd2 1_555 1_555
O7_2 Cd2 1_555 1_555
C17_3 O4_3 1_555 1_555
O7_2 C17_4 1_555 1_555
C15_4 C14_4 1_555 1_555
H7_4 C15_4 1_555 1_555
C17_4 C14_4 1_555 1_555
O4_4 Cd2 1_555 1_555
C17_4 O4_4 1_555 1_555
Cd4 O5_3 1_555 1_555
O5_3 C41_3 1_555 1_555
O6_3 Cd4 1_555 1_555
C39_3 C38_3 1_555 1_555
H19_3 C39_3 1_555 1_555
C41_3 O6_3 1_555 1_555
C38_3 C41_3 1_555 1_555
Cd4 O5_4 1_555 1_555
O5_4 C41_4 1_555 1_555
O6_4 Cd4 1_555 1_555
C39_4 C38_4 1_555 1_555
H19_4 C39_4 1_555 1_555
C41_4 O6_4 1_555 1_555
C38_4 C41_4 1_555 1_555
Cd4 O8_3 1_555 1_555
O8_3 C48_3 1_555 1_555
O11_3 Cd4 1_555 1_555
C48_3 O11_3 1_555 1_555
Cd4 O8_4 1_555 1_555
O8_4 C48_4 1_555 1_555
O11_4 Cd4 1_555 1_555
C48_4 O11_4 1_555 1_555
N2_4 Pd1_6 1_555 1_555
H4_4 C8_4 1_555 1_555
C9_4 N2_4 1_555 1_555
N3_4 Pd1_6 1_555 1_555
C25_4 N3_4 1_555 1_555
C26_4 C25_4 1_555 1_555
H13_4 C26_4 1_555 1_555
C34_4 C9_4 1_555 1_555
C42_4 C34_4 1_555 1_555
C43_4 C42_4 1_555 1_555
H21_4 C43_4 1_555 1_555
C44_4 C43_4 1_555 1_555
H22_4 C44_4 1_555 1_555
C45_4 C44_4 1_555 1_555
C46_4 C45_4 1_555 1_555
H23_4 C46_4 1_555 1_555
C47_4 C42_4 1_555 1_555
H24_4 C47_4 1_555 1_555
C8_4 C9_4 1_555 1_555
C25_4 C34_4 1_555 1_555
C46_4 C47_4 1_555 1_555

#END
