
###############################################################################
#
# This file contains modified crystal structure data generated from the
# MOF subset of the Cambridge Structural Database (CSD) v543 
# hosted by the Cambridge Crystallographic Data Centre (CCDC).
#
# This work is licensed under the Creative Commons
# Attribution-NonCommercial-ShareAlike 4.0 International License.
# To view a copy of this license, visit
# http://creativecommons.org/licenses/by-nc-sa/4.0/
# or send a letter to
# Creative Commons, PO Box 1866, Mountain View, CA 94042, USA.
#
# CIF created using the CSD Python API on 29 September 2022
# The structure has been converted into the P1 space group
# The structure has a 3D framework
# The original CSD entry OQESEJ is in the monoclinic crystal system
# The framework has been calculated to contain at least 10.0% void space
# The void calculation uses a probe of radius 1.32A, grid spacing 0.4
#
###############################################################################

data_OQESEJ
_chemical_formula_moiety         '(C192 H96 Cd3 N16 O28 Pd15)n'
_symmetry_cell_setting           triclinic
_symmetry_space_group_name_H-M   'P 1'
_symmetry_Int_Tables_number      1
_space_group_name_Hall           'P 1'
loop_
_symmetry_equiv_pos_site_id
_symmetry_equiv_pos_as_xyz
1 x,y,z
_cell_length_a                   7.2751(3)
_cell_length_b                   25.5905(15)
_cell_length_c                   30.7749(11)
_cell_angle_alpha                90
_cell_angle_beta                 96.478(4)
_cell_angle_gamma                90
_cell_volume                     5692.89
loop_
_atom_site_label
_atom_site_type_symbol
_atom_site_fract_x
_atom_site_fract_y
_atom_site_fract_z
O2 O 0.111(3) 0.7591(9) 0.2027(8)
H9 H 0.0045 0.6070 0.1196
H10 H 0.1153 0.6738 0.1664
Cd2 Cd -0.0000 0.84427(5) 0.2500
Cd3 Cd 1.0000 0.15573(5) 0.7500
O8 O 0.889(3) 0.2409(9) 0.7973(8)
H21 H 0.9955 0.3930 0.8804
H22 H 0.8847 0.3262 0.8336
Pd1 Pd 0.5000 0.5000 0.5000
N1 N 0.5532(12) 0.5284(4) 0.4412(3)
N2 N 0.7095(13) 0.4504(4) 0.5001(3)
C1 C 0.4619(17) 0.5675(5) 0.4184(4)
C2 C 0.536(2) 0.5748(6) 0.3775(4)
H1 H 0.4963 0.5988 0.3557
C3 C 0.668(2) 0.5410(6) 0.3771(4)
H2 H 0.7411 0.5373 0.3544
C4 C 0.6883(16) 0.5094(6) 0.4167(3)
C5 C 0.8138(15) 0.4705(6) 0.4286(3)
C6 C 0.8272(17) 0.4445(5) 0.4668(4)
C7 C 0.952(3) 0.4034(8) 0.4784(5)
C8 C 0.916(3) 0.3838(7) 0.5196(5)
H4 H 0.9803 0.3575 0.5357
C9 C 0.7649(19) 0.4121(5) 0.5312(4)
C10 C 0.3165(19) 0.5968(5) 0.4312(4)
C11 C 0.9372(15) 0.4553(6) 0.3946(4)
C12 C 0.8606(17) 0.4259(6) 0.3588(4)
H5 H 0.7351 0.4178 0.3556
C13 C 0.9724(16) 0.4090(6) 0.3284(4)
H6 H 0.9212 0.3900 0.3042
C18 C 0.242(2) 0.6406(4) 0.4008(3)
C19 C 0.0676(19) 0.6365(5) 0.3773(4)
C20 C 0.001(2) 0.6765(7) 0.3493(4)
C21 C 0.109(3) 0.7206(5) 0.3447(4)
C22 C 0.283(3) 0.7247(5) 0.3682(5)
H11 H 0.3555 0.7541 0.3651
C23 C 0.350(2) 0.6846(6) 0.3962(4)
H12 H 0.4663 0.6874 0.4119
C24 C 0.049(3) 0.7634(7) 0.3109(5)
O3 O 0.183(3) 0.7950(9) 0.3066(7)
N3 N 0.4468(12) 0.4716(4) 0.5588(3)
N4 N 0.2905(13) 0.5496(4) 0.4999(3)
C25 C 0.5381(17) 0.4325(5) 0.5816(4)
C26 C 0.464(2) 0.4252(6) 0.6225(4)
H13 H 0.5037 0.4012 0.6443
C27 C 0.332(2) 0.4590(6) 0.6229(4)
H14 H 0.2589 0.4627 0.6456
C28 C 0.3117(16) 0.4906(6) 0.5833(3)
C29 C 0.1862(15) 0.5295(6) 0.5714(3)
C30 C 0.1728(17) 0.5555(5) 0.5332(4)
C31 C 0.048(3) 0.5966(8) 0.5216(5)
C32 C 0.084(3) 0.6162(7) 0.4804(5)
H16 H 0.0197 0.6425 0.4643
C33 C 0.2351(19) 0.5879(5) 0.4688(4)
C34 C 0.6835(19) 0.4032(5) 0.5688(4)
C35 C 0.0628(15) 0.5447(6) 0.6054(4)
C36 C 0.1394(17) 0.5741(6) 0.6412(4)
H17 H 0.2649 0.5822 0.6444
C37 C 0.0276(16) 0.5910(6) 0.6716(4)
H18 H 0.0788 0.6100 0.6958
C42 C 0.758(2) 0.3594(4) 0.5992(3)
C43 C 0.9324(19) 0.3635(5) 0.6227(4)
C44 C 0.999(2) 0.3235(7) 0.6507(4)
C45 C 0.891(3) 0.2794(5) 0.6553(4)
C46 C 0.717(3) 0.2753(5) 0.6318(5)
H23 H 0.6445 0.2459 0.6349
C47 C 0.650(2) 0.3154(6) 0.6038(4)
H24 H 0.5337 0.3126 0.5881
C48 C 0.951(3) 0.2366(7) 0.6891(5)
O11 O 0.817(3) 0.2050(9) 0.6934(7)
Pd1_2 Pd -0.0000 0.0000 1.0000
O5 O 0.7128(10) 0.1331(3) 0.7722(2)
O6 O 0.9499(12) 0.0921(5) 0.8059(3)
C29_2 C 0.3138(15) 0.0295(6) 0.9286(3)
C30_2 C 0.3272(17) 0.0555(5) 0.9668(4)
C31_2 C 0.452(3) 0.0966(8) 0.9784(5)
H15 H 0.5425 0.1088 0.9618
C35_2 C 0.4372(15) 0.0447(6) 0.8946(4)
C36_2 C 0.3606(17) 0.0741(6) 0.8588(4)
H17_2 H 0.2351 0.0822 0.8556
C37_2 C 0.4724(16) 0.0910(6) 0.8284(4)
H18_2 H 0.4212 0.1100 0.8042
C38 C 0.6617(15) 0.0800(5) 0.8334(3)
C39 C 0.7338(16) 0.0507(6) 0.8687(4)
H19 H 0.8586 0.0419 0.8715
C40 C 0.6261(15) 0.0340(6) 0.8997(4)
H20 H 0.6789 0.0156 0.9240
C41 C 0.7805(16) 0.1033(5) 0.8013(4)
Pd1_3 Pd 1.0000 1.0000 0.0000
O1 O 0.0501(12) 0.9079(5) 0.1941(3)
C5_2 C 0.6862(15) 0.9705(6) 0.0714(3)
C6_2 C 0.6728(17) 0.9445(5) 0.0332(4)
C7_2 C 0.548(3) 0.9034(8) 0.0216(5)
H3 H 0.4575 0.8912 0.0382
C11_2 C 0.5628(15) 0.9553(6) 0.1054(4)
C12_2 C 0.6394(17) 0.9259(6) 0.1412(4)
H5_2 H 0.7649 0.9178 0.1444
C13_2 C 0.5276(16) 0.9090(6) 0.1716(4)
H6_2 H 0.5788 0.8900 0.1958
C14 C 0.3383(15) 0.9200(5) 0.1666(3)
C15 C 0.2662(16) 0.9493(6) 0.1313(4)
H7 H 0.1414 0.9581 0.1285
C16 C 0.3739(15) 0.9660(6) 0.1003(4)
H8 H 0.3211 0.9844 0.0760
C17 C 0.2195(16) 0.8967(5) 0.1987(4)
O4 O 0.2872(10) 0.8669(3) 0.2278(2)
Cd4 Cd 0.5000 0.65573(5) 0.7500
O5_2 O 0.2128(10) 0.6331(3) 0.7722(2)
O6_2 O 0.4499(12) 0.5921(5) 0.8059(3)
H15_2 H 0.0425 0.6088 0.9618
C38_2 C 0.1617(15) 0.5800(5) 0.8334(3)
C39_2 C 0.2338(16) 0.5507(6) 0.8687(4)
H19_2 H 0.3586 0.5419 0.8715
C40_2 C 0.1261(15) 0.5340(6) 0.8997(4)
H20_2 H 0.1789 0.5156 0.9240
C41_2 C 0.2805(16) 0.6033(5) 0.8013(4)
Pd1_4 Pd 0.5000 0.5000 0.0000
N1_2 N 0.4468(12) 0.5284(4) 0.0588(3)
C1_2 C 0.5381(17) 0.5675(5) 0.0816(4)
C2_2 C 0.464(2) 0.5748(6) 0.1225(4)
H1_2 H 0.5037 0.5988 0.1443
C3_2 C 0.332(2) 0.5410(6) 0.1229(4)
H2_2 H 0.2589 0.5373 0.1456
C4_2 C 0.3117(16) 0.5094(6) 0.0833(3)
C5_3 C 0.1862(15) 0.4705(6) 0.0714(3)
C6_3 C 0.1728(17) 0.4445(5) 0.0332(4)
C7_3 C 0.048(3) 0.4034(8) 0.0216(5)
C10_2 C 0.6835(19) 0.5968(5) 0.0688(4)
C11_3 C 0.0628(15) 0.4553(6) 0.1054(4)
C12_3 C 0.1394(17) 0.4259(6) 0.1412(4)
H5_3 H 0.2649 0.4178 0.1444
C13_3 C 0.0276(16) 0.4090(6) 0.1716(4)
H6_3 H 0.0788 0.3900 0.1958
C18_2 C 0.758(2) 0.6406(4) 0.0992(3)
C19_2 C 0.9324(19) 0.6365(5) 0.1227(4)
C20_2 C 0.999(2) 0.6765(7) 0.1507(4)
C21_2 C 0.891(3) 0.7206(5) 0.1553(4)
C22_2 C 0.717(3) 0.7247(5) 0.1318(5)
H11_2 H 0.6445 0.7541 0.1349
C23_2 C 0.650(2) 0.6846(6) 0.1038(4)
H12_2 H 0.5337 0.6874 0.0881
C24_2 C 0.951(3) 0.7634(7) 0.1891(5)
O3_2 O 0.817(3) 0.7950(9) 0.1934(7)
Cd2_2 Cd 1.0000 0.84427(5) 0.2500
N4_2 N 0.7095(13) 0.5496(4) 0.0001(3)
C32_2 C 0.916(3) 0.6162(7) 0.0196(5)
H16_2 H 0.9803 0.6425 0.0357
C33_2 C 0.7649(19) 0.5879(5) 0.0312(4)
O2_2 O 0.889(3) 0.7591(9) 0.2973(8)
H9_2 H 0.9955 0.6070 0.3804
H10_2 H 0.8847 0.6738 0.3336
O5_3 O 0.7872(10) 0.6331(3) 0.7278(2)
O6_3 O 0.5501(12) 0.5921(5) 0.6941(3)
H15_3 H 0.9575 0.6088 0.5382
C38_3 C 0.8383(15) 0.5800(5) 0.6666(3)
C39_3 C 0.7662(16) 0.5507(6) 0.6313(4)
H19_3 H 0.6414 0.5419 0.6285
C40_3 C 0.8739(15) 0.5340(6) 0.6003(4)
H20_3 H 0.8211 0.5156 0.5760
C41_3 C 0.7195(16) 0.6033(5) 0.6987(4)
Pd1_5 Pd 1.0000 1.0000 1.0000
N2_2 N 0.7905(13) 0.9504(4) 0.9999(3)
C8_2 C 0.584(3) 0.8838(7) 0.9804(5)
H4_2 H 0.5197 0.8575 0.9643
C9_2 C 0.7351(19) 0.9121(5) 0.9688(4)
O8_2 O 0.389(3) 0.7409(9) 0.7973(8)
C25_2 C 0.9619(17) 0.9325(5) 0.9184(4)
H13_2 H 0.9963 0.9012 0.8557
C34_2 C 0.8165(19) 0.9032(5) 0.9312(4)
C42_2 C 0.742(2) 0.8594(4) 0.9008(3)
C43_2 C 0.5676(19) 0.8635(5) 0.8773(4)
H21_2 H 0.4955 0.8930 0.8804
C44_2 C 0.501(2) 0.8235(7) 0.8493(4)
H22_2 H 0.3847 0.8262 0.8336
C45_2 C 0.609(3) 0.7794(5) 0.8447(4)
C46_2 C 0.783(3) 0.7753(5) 0.8682(5)
H23_2 H 0.8555 0.7459 0.8651
C47_2 C 0.850(2) 0.8154(6) 0.8962(4)
H24_2 H 0.9663 0.8126 0.9119
C48_2 C 0.549(3) 0.7366(7) 0.8109(5)
O11_2 O 0.683(3) 0.7050(9) 0.8066(7)
O7 O 0.9499(12) 0.9079(5) 0.3059(3)
Pd1_6 Pd -0.0000 1.0000 0.5000
N2_3 N 0.2095(13) 0.9504(4) 0.5001(3)
C5_4 C 0.3138(15) 0.9705(6) 0.4286(3)
C6_4 C 0.3272(17) 0.9445(5) 0.4668(4)
C7_4 C 0.452(3) 0.9034(8) 0.4784(5)
H3_2 H 0.5425 0.8912 0.4618
C8_3 C 0.416(3) 0.8838(7) 0.5196(5)
H4_3 H 0.4803 0.8575 0.5357
C9_3 C 0.2649(19) 0.9121(5) 0.5312(4)
C11_4 C 0.4372(15) 0.9553(6) 0.3946(4)
C12_4 C 0.3606(17) 0.9259(6) 0.3588(4)
H5_4 H 0.2351 0.9178 0.3556
C13_4 C 0.4724(16) 0.9090(6) 0.3284(4)
H6_4 H 0.4212 0.8900 0.3042
C14_2 C 0.6617(15) 0.9200(5) 0.3334(3)
C15_2 C 0.7338(16) 0.9493(6) 0.3687(4)
H7_2 H 0.8586 0.9581 0.3715
C16_2 C 0.6261(15) 0.9660(6) 0.3997(4)
H8_2 H 0.6789 0.9844 0.4240
C17_2 C 0.7805(16) 0.8967(5) 0.3013(4)
O4_2 O 0.7128(10) 0.8669(3) 0.2722(2)
O8_3 O 0.611(3) 0.7409(9) 0.7027(8)
C25_3 C 0.0381(17) 0.9325(5) 0.5816(4)
H13_3 H 0.0037 0.9012 0.6443
C34_3 C 0.1835(19) 0.9032(5) 0.5688(4)
C42_3 C 0.258(2) 0.8594(4) 0.5992(3)
C43_3 C 0.4324(19) 0.8635(5) 0.6227(4)
H21_3 H 0.5045 0.8930 0.6196
C44_3 C 0.499(2) 0.8235(7) 0.6507(4)
H22_3 H 0.6153 0.8262 0.6664
C45_3 C 0.391(3) 0.7794(5) 0.6553(4)
C46_3 C 0.217(3) 0.7753(5) 0.6318(5)
H23_3 H 0.1445 0.7459 0.6349
C47_3 C 0.150(2) 0.8154(6) 0.6038(4)
H24_3 H 0.0337 0.8126 0.5881
C48_3 C 0.451(3) 0.7366(7) 0.6891(5)
O11_3 O 0.317(3) 0.7050(9) 0.6934(7)
Pd1_7 Pd 0.5000 0.5000 1.0000
N2_4 N 0.2905(13) 0.4504(4) 0.9999(3)
C8_4 C 0.084(3) 0.3838(7) 0.9804(5)
H4_4 H 0.0197 0.3575 0.9643
C9_4 C 0.2351(19) 0.4121(5) 0.9688(4)
Cd3_2 Cd 0.0000 0.15573(5) 0.7500
N3_2 N 0.5532(12) 0.4716(4) 0.9412(3)
C25_4 C 0.4619(17) 0.4325(5) 0.9184(4)
C26_2 C 0.536(2) 0.4252(6) 0.8775(4)
H13_4 H 0.4963 0.4012 0.8557
C27_2 C 0.668(2) 0.4590(6) 0.8771(4)
H14_2 H 0.7411 0.4627 0.8544
C28_2 C 0.6883(16) 0.4906(6) 0.9167(3)
C29_3 C 0.8138(15) 0.5295(6) 0.9286(3)
C30_3 C 0.8272(17) 0.5555(5) 0.9668(4)
C31_3 C 0.952(3) 0.5966(8) 0.9784(5)
C34_4 C 0.3165(19) 0.4032(5) 0.9312(4)
C35_3 C 0.9372(15) 0.5447(6) 0.8946(4)
C36_3 C 0.8606(17) 0.5741(6) 0.8588(4)
H17_3 H 0.7351 0.5822 0.8556
C37_3 C 0.9724(16) 0.5910(6) 0.8284(4)
H18_3 H 0.9212 0.6100 0.8042
C42_4 C 0.242(2) 0.3594(4) 0.9008(3)
C43_4 C 0.0676(19) 0.3635(5) 0.8773(4)
C44_4 C 0.001(2) 0.3235(7) 0.8493(4)
C45_4 C 0.109(3) 0.2794(5) 0.8447(4)
C46_4 C 0.283(3) 0.2753(5) 0.8682(5)
H23_4 H 0.3555 0.2459 0.8651
C47_4 C 0.350(2) 0.3154(6) 0.8962(4)
H24_4 H 0.4663 0.3126 0.9119
C48_4 C 0.049(3) 0.2366(7) 0.8109(5)
O11_4 O 0.183(3) 0.2050(9) 0.8066(7)
Cd1 Cd 0.5000 0.34427(5) 0.2500
O1_2 O 0.5501(12) 0.4079(5) 0.1941(3)
H3_3 H 0.9575 0.3912 0.0382
C14_3 C 0.8383(15) 0.4200(5) 0.1666(3)
C15_3 C 0.7662(16) 0.4493(6) 0.1313(4)
H7_3 H 0.6414 0.4581 0.1285
C16_3 C 0.8739(15) 0.4660(6) 0.1003(4)
H8_3 H 0.8211 0.4844 0.0760
C17_3 C 0.7195(16) 0.3967(5) 0.1987(4)
O4_3 O 0.7872(10) 0.3669(3) 0.2278(2)
O7_2 O 0.4499(12) 0.4079(5) 0.3059(3)
O9 O 0.611(3) 0.2591(9) 0.2027(8)
O10 O 0.389(3) 0.2591(9) 0.2973(8)
O12 O 0.317(3) 0.2950(9) 0.1934(7)
O13 O 0.683(3) 0.2950(9) 0.3066(7)
H3_4 H 0.0425 0.3912 0.4618
C14_4 C 0.1617(15) 0.4200(5) 0.3334(3)
C15_4 C 0.2338(16) 0.4493(6) 0.3687(4)
H7_4 H 0.3586 0.4581 0.3715
C16_4 C 0.1261(15) 0.4660(6) 0.3997(4)
H8_4 H 0.1789 0.4844 0.4240
C17_4 C 0.2805(16) 0.3967(5) 0.3013(4)
O4_4 O 0.2128(10) 0.3669(3) 0.2722(2)
O8_4 O 0.111(3) 0.2409(9) 0.7027(8)
H21_4 H 0.0045 0.3930 0.6196
H22_4 H 0.1153 0.3262 0.6664
Pd1_8 Pd 0.0000 0.0000 0.0000
C1_3 C 0.0381(17) 0.0675(5) 0.0816(4)
H1_3 H 0.0037 0.0988 0.1443
C10_3 C 0.1835(19) 0.0968(5) 0.0688(4)
C18_3 C 0.258(2) 0.1406(4) 0.0992(3)
C19_3 C 0.4324(19) 0.1365(5) 0.1227(4)
H9_3 H 0.5045 0.1070 0.1196
C20_3 C 0.499(2) 0.1765(7) 0.1507(4)
H10_3 H 0.6153 0.1738 0.1664
C21_3 C 0.391(3) 0.2206(5) 0.1553(4)
C22_3 C 0.217(3) 0.2247(5) 0.1318(5)
H11_3 H 0.1445 0.2541 0.1349
C23_3 C 0.150(2) 0.1846(6) 0.1038(4)
H12_3 H 0.0337 0.1874 0.0881
C24_3 C 0.451(3) 0.2634(7) 0.1891(5)
N4_3 N 0.2095(13) 0.0496(4) 0.0001(3)
C32_3 C 0.416(3) 0.1162(7) 0.0196(5)
H16_3 H 0.4803 0.1425 0.0357
C33_3 C 0.2649(19) 0.0879(5) 0.0312(4)
Pd1_9 Pd 1.0000 0.0000 0.5000
C1_4 C 0.9619(17) 0.0675(5) 0.4184(4)
H1_4 H 0.9963 0.0988 0.3557
C10_4 C 0.8165(19) 0.0968(5) 0.4312(4)
C18_4 C 0.742(2) 0.1406(4) 0.4008(3)
C19_4 C 0.5676(19) 0.1365(5) 0.3773(4)
H9_4 H 0.4955 0.1070 0.3804
C20_4 C 0.501(2) 0.1765(7) 0.3493(4)
H10_4 H 0.3847 0.1738 0.3336
C21_4 C 0.609(3) 0.2206(5) 0.3447(4)
C22_4 C 0.783(3) 0.2247(5) 0.3682(5)
H11_4 H 0.8555 0.2541 0.3651
C23_4 C 0.850(2) 0.1846(6) 0.3962(4)
H12_4 H 0.9663 0.1874 0.4119
C24_4 C 0.549(3) 0.2634(7) 0.3109(5)
O5_4 O 0.2872(10) 0.1331(3) 0.7278(2)
O6_4 O 0.0501(12) 0.0921(5) 0.6941(3)
N4_4 N 0.7905(13) 0.0496(4) 0.4999(3)
C29_4 C 0.6862(15) 0.0295(6) 0.5714(3)
C30_4 C 0.6728(17) 0.0555(5) 0.5332(4)
C31_4 C 0.548(3) 0.0966(8) 0.5216(5)
H15_4 H 0.4575 0.1088 0.5382
C32_4 C 0.584(3) 0.1162(7) 0.4804(5)
H16_4 H 0.5197 0.1425 0.4643
C33_4 C 0.7351(19) 0.0879(5) 0.4688(4)
C35_4 C 0.5628(15) 0.0447(6) 0.6054(4)
C36_4 C 0.6394(17) 0.0741(6) 0.6412(4)
H17_4 H 0.7649 0.0822 0.6444
C37_4 C 0.5276(16) 0.0910(6) 0.6716(4)
H18_4 H 0.5788 0.1100 0.6958
C38_4 C 0.3383(15) 0.0800(5) 0.6666(3)
C39_4 C 0.2662(16) 0.0507(6) 0.6313(4)
H19_4 H 0.1414 0.0419 0.6285
C40_4 C 0.3739(15) 0.0340(6) 0.6003(4)
H20_4 H 0.3211 0.0156 0.5760
C41_4 C 0.2195(16) 0.1033(5) 0.6987(4)
Pd1_10 Pd 0.0000 1.0000 0.0000
Pd1_11 Pd -0.0000 1.0000 1.0000
N3_3 N 0.0532(12) 0.9716(4) 0.9412(3)
C26_3 C 0.036(2) 0.9252(6) 0.8775(4)
C27_3 C 0.168(2) 0.9590(6) 0.8771(4)
H14_3 H 0.2411 0.9627 0.8544
C28_3 C 0.1883(16) 0.9906(6) 0.9167(3)
Pd1_12 Pd 1.0000 0.0000 0.0000
N1_3 N 0.9468(12) 0.0284(4) 0.0588(3)
C2_3 C 0.964(2) 0.0748(6) 0.1225(4)
C3_3 C 0.832(2) 0.0410(6) 0.1229(4)
H2_3 H 0.7589 0.0373 0.1456
C4_3 C 0.8117(16) 0.0094(6) 0.0833(3)
Pd1_13 Pd 1.0000 0.0000 1.0000
Pd1_14 Pd -0.0000 0.0000 0.5000
N1_4 N 0.0532(12) 0.0284(4) 0.4412(3)
C2_4 C 0.036(2) 0.0748(6) 0.3775(4)
C3_4 C 0.168(2) 0.0410(6) 0.3771(4)
H2_4 H 0.2411 0.0373 0.3544
C4_4 C 0.1883(16) 0.0094(6) 0.4167(3)
Pd1_15 Pd 1.0000 1.0000 0.5000
N3_4 N 0.9468(12) 0.9716(4) 0.5588(3)
C26_4 C 0.964(2) 0.9252(6) 0.6225(4)
C27_4 C 0.832(2) 0.9590(6) 0.6229(4)
H14_4 H 0.7589 0.9627 0.6456
C28_4 C 0.8117(16) 0.9906(6) 0.5833(3)
loop_
_geom_bond_atom_site_label_1
_geom_bond_atom_site_label_2
_geom_bond_site_symmetry_1
_geom_bond_site_symmetry_2
Cd2 O2 1_555 1_555
Cd3 O8 1_555 1_555
Pd1 N1 1_555 1_555
N1 C1 1_555 1_555
N2 Pd1 1_555 1_555
C1 C2 1_555 1_555
C2 H1 1_555 1_555
C3 C2 1_555 1_555
H2 C3 1_555 1_555
C4 N1 1_555 1_555
C5 C4 1_555 1_555
C6 N2 1_555 1_555
C7 C6 1_555 1_555
C8 C7 1_555 1_555
H4 C8 1_555 1_555
C9 N2 1_555 1_555
C10 C1 1_555 1_555
C11 C5 1_555 1_555
C12 C11 1_555 1_555
H5 C12 1_555 1_555
C13 C12 1_555 1_555
H6 C13 1_555 1_555
C18 C10 1_555 1_555
C19 C18 1_555 1_555
C20 C19 1_555 1_555
C21 C20 1_555 1_555
C22 C21 1_555 1_555
H11 C22 1_555 1_555
C23 C18 1_555 1_555
H12 C23 1_555 1_555
C24 C21 1_555 1_555
O3 C24 1_555 1_555
N3 Pd1 1_555 1_555
N4 Pd1 1_555 1_555
C25 N3 1_555 1_555
C26 C25 1_555 1_555
H13 C26 1_555 1_555
C27 C26 1_555 1_555
H14 C27 1_555 1_555
C28 N3 1_555 1_555
C29 C28 1_555 1_555
C30 N4 1_555 1_555
C31 C30 1_555 1_555
C32 C31 1_555 1_555
H16 C32 1_555 1_555
C33 C10 1_555 1_555
C34 C9 1_555 1_555
C35 C29 1_555 1_555
C36 C35 1_555 1_555
H17 C36 1_555 1_555
C37 C36 1_555 1_555
H18 C37 1_555 1_555
C42 C34 1_555 1_555
C43 C42 1_555 1_555
C44 C43 1_555 1_555
C45 C44 1_555 1_555
C46 C45 1_555 1_555
H23 C46 1_555 1_555
C47 C42 1_555 1_555
H24 C47 1_555 1_555
C48 C45 1_555 1_555
O11 Cd3 1_555 1_555
C3 C4 1_555 1_555
C5 C6 1_555 1_555
C8 C9 1_555 1_555
C22 C23 1_555 1_555
O3 Cd2 1_555 1_555
N4 C33 1_555 1_555
C25 C34 1_555 1_555
C27 C28 1_555 1_555
C29 C30 1_555 1_555
C32 C33 1_555 1_555
C46 C47 1_555 1_555
C48 O11 1_555 1_555
Cd3 O5 1_555 1_555
O5 C41 1_555 1_555
O6 Cd3 1_555 1_555
C31_2 C30_2 1_555 1_555
H15 C31_2 1_555 1_555
C35_2 C29_2 1_555 1_555
C36_2 C35_2 1_555 1_555
H17_2 C36_2 1_555 1_555
C37_2 C36_2 1_555 1_555
H18_2 C37_2 1_555 1_555
C38 C37_2 1_555 1_555
C39 C38 1_555 1_555
H19 C39 1_555 1_555
C40 C35_2 1_555 1_555
H20 C40 1_555 1_555
C41 O6 1_555 1_555
C29_2 C30_2 1_555 1_555
C38 C41 1_555 1_555
C39 C40 1_555 1_555
Cd2 O1 1_555 1_555
O1 C17 1_555 1_555
C7_2 C6_2 1_555 1_555
H3 C7_2 1_555 1_555
C11_2 C5_2 1_555 1_555
C12_2 C11_2 1_555 1_555
H5_2 C12_2 1_555 1_555
C13_2 C12_2 1_555 1_555
H6_2 C13_2 1_555 1_555
C14 C13_2 1_555 1_555
C15 C14 1_555 1_555
H7 C15 1_555 1_555
C16 C11_2 1_555 1_555
H8 C16 1_555 1_555
C17 C14 1_555 1_555
O4 Cd2 1_555 1_555
C5_2 C6_2 1_555 1_555
C15 C16 1_555 1_555
C17 O4 1_555 1_555
Cd4 O5_2 1_555 1_555
O5_2 C41_2 1_555 1_555
O6_2 Cd4 1_555 1_555
C39_2 C38_2 1_555 1_555
H19_2 C39_2 1_555 1_555
H20_2 C40_2 1_555 1_555
C41_2 O6_2 1_555 1_555
C38_2 C41_2 1_555 1_555
C39_2 C40_2 1_555 1_555
Pd1_4 N1_2 1_555 1_555
N1_2 C1_2 1_555 1_555
C1_2 C2_2 1_555 1_555
C2_2 H1_2 1_555 1_555
C3_2 C2_2 1_555 1_555
H2_2 C3_2 1_555 1_555
C4_2 N1_2 1_555 1_555
C5_3 C4_2 1_555 1_555
C7_3 C6_3 1_555 1_555
C10_2 C1_2 1_555 1_555
C11_3 C5_3 1_555 1_555
C12_3 C11_3 1_555 1_555
H5_3 C12_3 1_555 1_555
C13_3 C12_3 1_555 1_555
H6_3 C13_3 1_555 1_555
C18_2 C10_2 1_555 1_555
C19_2 C18_2 1_555 1_555
C20_2 C19_2 1_555 1_555
C21_2 C20_2 1_555 1_555
C22_2 C21_2 1_555 1_555
H11_2 C22_2 1_555 1_555
C23_2 C18_2 1_555 1_555
H12_2 C23_2 1_555 1_555
C24_2 C21_2 1_555 1_555
O3_2 C24_2 1_555 1_555
N4_2 Pd1_4 1_555 1_555
H16_2 C32_2 1_555 1_555
C33_2 C10_2 1_555 1_555
C3_2 C4_2 1_555 1_555
C5_3 C6_3 1_555 1_555
C22_2 C23_2 1_555 1_555
O3_2 Cd2_2 1_555 1_555
N4_2 C33_2 1_555 1_555
C32_2 C33_2 1_555 1_555
Cd2_2 O2_2 1_555 1_555
Cd4 O5_3 1_555 1_555
O5_3 C41_3 1_555 1_555
O6_3 Cd4 1_555 1_555
C39_3 C38_3 1_555 1_555
H19_3 C39_3 1_555 1_555
H20_3 C40_3 1_555 1_555
C41_3 O6_3 1_555 1_555
C38_3 C41_3 1_555 1_555
C39_3 C40_3 1_555 1_555
N2_2 Pd1_5 1_555 1_555
H4_2 C8_2 1_555 1_555
C9_2 N2_2 1_555 1_555
Cd4 O8_2 1_555 1_555
O8_2 C48_2 1_555 1_555
C34_2 C9_2 1_555 1_555
C42_2 C34_2 1_555 1_555
C43_2 C42_2 1_555 1_555
H21_2 C43_2 1_555 1_555
C44_2 C43_2 1_555 1_555
H22_2 C44_2 1_555 1_555
C45_2 C44_2 1_555 1_555
C46_2 C45_2 1_555 1_555
H23_2 C46_2 1_555 1_555
C47_2 C42_2 1_555 1_555
H24_2 C47_2 1_555 1_555
C48_2 C45_2 1_555 1_555
O11_2 Cd4 1_555 1_555
C8_2 C9_2 1_555 1_555
C25_2 C34_2 1_555 1_555
C46_2 C47_2 1_555 1_555
C48_2 O11_2 1_555 1_555
O7 Cd2_2 1_555 1_555
O7 C17_2 1_555 1_555
N2_3 Pd1_6 1_555 1_555
C6_4 N2_3 1_555 1_555
C7_4 C6_4 1_555 1_555
H3_2 C7_4 1_555 1_555
C8_3 C7_4 1_555 1_555
H4_3 C8_3 1_555 1_555
C9_3 N2_3 1_555 1_555
C11_4 C5_4 1_555 1_555
C12_4 C11_4 1_555 1_555
H5_4 C12_4 1_555 1_555
C13_4 C12_4 1_555 1_555
H6_4 C13_4 1_555 1_555
C14_2 C13_4 1_555 1_555
C15_2 C14_2 1_555 1_555
H7_2 C15_2 1_555 1_555
C16_2 C11_4 1_555 1_555
H8_2 C16_2 1_555 1_555
C17_2 C14_2 1_555 1_555
Cd4 O8_3 1_555 1_555
O4_2 Cd2_2 1_555 1_555
O8_3 C48_3 1_555 1_555
C34_3 C9_3 1_555 1_555
C42_3 C34_3 1_555 1_555
C43_3 C42_3 1_555 1_555
H21_3 C43_3 1_555 1_555
C44_3 C43_3 1_555 1_555
H22_3 C44_3 1_555 1_555
C45_3 C44_3 1_555 1_555
C46_3 C45_3 1_555 1_555
H23_3 C46_3 1_555 1_555
C47_3 C42_3 1_555 1_555
H24_3 C47_3 1_555 1_555
C48_3 C45_3 1_555 1_555
O11_3 Cd4 1_555 1_555
C5_4 C6_4 1_555 1_555
C8_3 C9_3 1_555 1_555
C15_2 C16_2 1_555 1_555
C17_2 O4_2 1_555 1_555
C25_3 C34_3 1_555 1_555
C46_3 C47_3 1_555 1_555
C48_3 O11_3 1_555 1_555
N2_4 Pd1_7 1_555 1_555
H4_4 C8_4 1_555 1_555
C9_4 N2_4 1_555 1_555
N3_2 Pd1_7 1_555 1_555
C25_4 N3_2 1_555 1_555
C26_2 C25_4 1_555 1_555
H13_4 C26_2 1_555 1_555
C27_2 C26_2 1_555 1_555
H14_2 C27_2 1_555 1_555
C28_2 N3_2 1_555 1_555
C29_3 C28_2 1_555 1_555
C31_3 C30_3 1_555 1_555
C34_4 C9_4 1_555 1_555
C35_3 C29_3 1_555 1_555
C36_3 C35_3 1_555 1_555
H17_3 C36_3 1_555 1_555
C37_3 C36_3 1_555 1_555
H18_3 C37_3 1_555 1_555
C42_4 C34_4 1_555 1_555
C43_4 C42_4 1_555 1_555
C44_4 C43_4 1_555 1_555
C45_4 C44_4 1_555 1_555
C46_4 C45_4 1_555 1_555
H23_4 C46_4 1_555 1_555
C47_4 C42_4 1_555 1_555
H24_4 C47_4 1_555 1_555
C48_4 C45_4 1_555 1_555
O11_4 Cd3_2 1_555 1_555
C8_4 C9_4 1_555 1_555
C25_4 C34_4 1_555 1_555
C27_2 C28_2 1_555 1_555
C29_3 C30_3 1_555 1_555
C46_4 C47_4 1_555 1_555
C48_4 O11_4 1_555 1_555
Cd1 O1_2 1_555 1_555
O1_2 C17_3 1_555 1_555
C15_3 C14_3 1_555 1_555
H7_3 C15_3 1_555 1_555
H8_3 C16_3 1_555 1_555
C17_3 C14_3 1_555 1_555
O4_3 Cd1 1_555 1_555
O7_2 Cd1 1_555 1_555
O9 Cd1 1_555 1_555
O10 Cd1 1_555 1_555
O12 Cd1 1_555 1_555
O13 Cd1 1_555 1_555
C15_3 C16_3 1_555 1_555
C17_3 O4_3 1_555 1_555
O7_2 C17_4 1_555 1_555
C15_4 C14_4 1_555 1_555
H7_4 C15_4 1_555 1_555
H8_4 C16_4 1_555 1_555
C17_4 C14_4 1_555 1_555
Cd3_2 O8_4 1_555 1_555
O4_4 Cd1 1_555 1_555
C15_4 C16_4 1_555 1_555
C17_4 O4_4 1_555 1_555
O9 C24_3 1_555 1_555
C10_3 C1_3 1_555 1_555
C18_3 C10_3 1_555 1_555
C19_3 C18_3 1_555 1_555
H9_3 C19_3 1_555 1_555
C20_3 C19_3 1_555 1_555
H10_3 C20_3 1_555 1_555
C21_3 C20_3 1_555 1_555
C22_3 C21_3 1_555 1_555
H11_3 C22_3 1_555 1_555
C23_3 C18_3 1_555 1_555
H12_3 C23_3 1_555 1_555
C24_3 C21_3 1_555 1_555
O12 C24_3 1_555 1_555
N4_3 Pd1_8 1_555 1_555
H16_3 C32_3 1_555 1_555
C33_3 C10_3 1_555 1_555
C22_3 C23_3 1_555 1_555
N4_3 C33_3 1_555 1_555
C32_3 C33_3 1_555 1_555
O10 C24_4 1_555 1_555
C10_4 C1_4 1_555 1_555
C18_4 C10_4 1_555 1_555
C19_4 C18_4 1_555 1_555
H9_4 C19_4 1_555 1_555
C20_4 C19_4 1_555 1_555
H10_4 C20_4 1_555 1_555
C21_4 C20_4 1_555 1_555
C22_4 C21_4 1_555 1_555
H11_4 C22_4 1_555 1_555
C23_4 C18_4 1_555 1_555
H12_4 C23_4 1_555 1_555
C24_4 C21_4 1_555 1_555
O13 C24_4 1_555 1_555
Cd3_2 O5_4 1_555 1_555
O5_4 C41_4 1_555 1_555
O6_4 Cd3_2 1_555 1_555
N4_4 Pd1_9 1_555 1_555
C30_4 N4_4 1_555 1_555
C31_4 C30_4 1_555 1_555
H15_4 C31_4 1_555 1_555
C32_4 C31_4 1_555 1_555
H16_4 C32_4 1_555 1_555
C33_4 C10_4 1_555 1_555
C35_4 C29_4 1_555 1_555
C36_4 C35_4 1_555 1_555
H17_4 C36_4 1_555 1_555
C37_4 C36_4 1_555 1_555
H18_4 C37_4 1_555 1_555
C38_4 C37_4 1_555 1_555
C39_4 C38_4 1_555 1_555
H19_4 C39_4 1_555 1_555
C40_4 C35_4 1_555 1_555
H20_4 C40_4 1_555 1_555
C41_4 O6_4 1_555 1_555
C22_4 C23_4 1_555 1_555
N4_4 C33_4 1_555 1_555
C29_4 C30_4 1_555 1_555
C32_4 C33_4 1_555 1_555
C38_4 C41_4 1_555 1_555
C39_4 C40_4 1_555 1_555
N3_3 Pd1_11 1_555 1_555
C27_3 C26_3 1_555 1_555
H14_3 C27_3 1_555 1_555
C28_3 N3_3 1_555 1_555
C27_3 C28_3 1_555 1_555
Pd1_12 N1_3 1_555 1_555
C3_3 C2_3 1_555 1_555
H2_3 C3_3 1_555 1_555
C4_3 N1_3 1_555 1_555
C3_3 C4_3 1_555 1_555
Pd1_14 N1_4 1_555 1_555
C3_4 C2_4 1_555 1_555
H2_4 C3_4 1_555 1_555
C4_4 N1_4 1_555 1_555
C3_4 C4_4 1_555 1_555
N3_4 Pd1_15 1_555 1_555
C27_4 C26_4 1_555 1_555
H14_4 C27_4 1_555 1_555
C28_4 N3_4 1_555 1_555
C27_4 C28_4 1_555 1_555

#END
