
###############################################################################
#
# This file contains modified crystal structure data generated from the
# MOF subset of the Cambridge Structural Database (CSD) v543 
# hosted by the Cambridge Crystallographic Data Centre (CCDC).
#
# This work is licensed under the Creative Commons
# Attribution-NonCommercial-ShareAlike 4.0 International License.
# To view a copy of this license, visit
# http://creativecommons.org/licenses/by-nc-sa/4.0/
# or send a letter to
# Creative Commons, PO Box 1866, Mountain View, CA 94042, USA.
#
# CIF created using the CSD Python API on 29 September 2022
# The structure has been converted into the P1 space group
# The structure has a 3D framework
# The original CSD entry OQESAF is in the monoclinic crystal system
# The framework has been calculated to contain at least 10.0% void space
# The void calculation uses a probe of radius 1.32A, grid spacing 0.4
#
###############################################################################

data_OQESAF
_chemical_formula_moiety         '(C192 H96 Cd3 N16 O28 Pd6)n'
_symmetry_cell_setting           triclinic
_symmetry_space_group_name_H-M   'P 1'
_symmetry_Int_Tables_number      1
_space_group_name_Hall           'P 1'
loop_
_symmetry_equiv_pos_site_id
_symmetry_equiv_pos_as_xyz
1 x,y,z
_cell_length_a                   7.1564(9)
_cell_length_b                   25.080(4)
_cell_length_c                   31.192(3)
_cell_angle_alpha                90
_cell_angle_beta                 96.287(11)
_cell_angle_gamma                90
_cell_volume                     5564.75
loop_
_atom_site_label
_atom_site_type_symbol
_atom_site_fract_x
_atom_site_fract_y
_atom_site_fract_z
Cd1 Cd 0.0000 0.40132(7) 0.2500
O7 O 0.1068(15) 0.3349(5) 0.3045(3)
O10 O 0.148(4) 0.4864(11) 0.2991(8)
O12 O 0.137(4) 0.4466(11) 0.1993(9)
Pd1 Pd 0.7500 0.2500 1.0000
C9 C 0.985(3) 0.3400(8) 0.9692(6)
Cd3 Cd 1.0000 0.59868(7) 0.7500
O11 O 0.863(4) 0.5534(11) 0.8007(9)
N3 N 0.6358(17) 0.2814(5) 0.9424(3)
N4 N 0.5435(17) 0.1992(6) 0.9990(4)
C25 C 0.706(2) 0.3218(7) 0.9206(5)
C26 C 0.587(3) 0.3299(8) 0.8811(5)
H13 H 0.5989 0.3561 0.8605
C27 C 0.457(3) 0.2921(10) 0.8803(5)
H14 H 0.3619 0.2871 0.8578
C28 C 0.481(2) 0.2607(7) 0.9178(4)
C29 C 0.3685(19) 0.2199(8) 0.9295(5)
C30 C 0.392(3) 0.1915(9) 0.9669(5)
C31 C 0.279(3) 0.1495(11) 0.9785(7)
H15 H 0.1705 0.1377 0.9620
C34 C 0.867(3) 0.3499(7) 0.9329(5)
C35 C 0.2071(19) 0.2029(7) 0.8965(4)
C36 C 0.248(2) 0.1752(8) 0.8599(5)
H17 H 0.3726 0.1683 0.8559
C37 C 0.107(2) 0.1579(8) 0.8298(4)
H18 H 0.1376 0.1375 0.8066
C40 C 0.029(2) 0.2154(9) 0.8993(5)
H20 H 0.0008 0.2349 0.9231
C42 C 0.907(3) 0.3964(6) 0.9032(4)
C45 C 0.976(4) 0.4757(7) 0.8447(5)
C46 C 0.825(4) 0.4806(6) 0.8691(6)
H23 H 0.7477 0.5104 0.8658
C47 C 0.791(3) 0.4410(9) 0.8983(5)
H24 H 0.6902 0.4443 0.9147
C48 C 0.998(3) 0.5202(8) 0.8115(6)
O1 O 0.3133(13) 0.3792(5) 0.2725(3)
C3 C 0.957(3) 0.2079(10) 0.3803(5)
H2 H 0.8619 0.2129 0.3578
C4 C 0.981(2) 0.2393(7) 0.4178(4)
C5 C 0.8685(19) 0.2801(8) 0.4295(5)
C6 C 0.892(3) 0.3085(9) 0.4669(5)
C7 C 0.779(3) 0.3505(11) 0.4785(7)
H3 H 0.6705 0.3623 0.4620
C8 C 0.849(4) 0.3718(11) 0.5176(6)
H4 H 0.8007 0.4001 0.5323
C11 C 0.7071(19) 0.2971(7) 0.3965(4)
C12 C 0.748(2) 0.3248(8) 0.3599(5)
H5 H 0.8726 0.3317 0.3559
C13 C 0.607(2) 0.3421(8) 0.3298(4)
H6 H 0.6376 0.3625 0.3066
C14 C 0.428(2) 0.3305(7) 0.3331(4)
C15 C 0.381(2) 0.2992(8) 0.3686(6)
H7 H 0.2580 0.2890 0.3711
C16 C 0.529(2) 0.2846(9) 0.3993(5)
H8 H 0.5008 0.2651 0.4231
C17 C 0.273(2) 0.3485(7) 0.3014(4)
O8 O 0.852(4) 0.5136(11) 0.7009(8)
C43 C 0.943(3) 0.3915(6) 0.6212(6)
H21 H 0.8656 0.3617 0.6180
C44 C 0.909(3) 0.4311(9) 0.6505(6)
H22 H 0.8080 0.4278 0.6668
Pd1_2 Pd 0.2500 0.7500 0.0000
N1 N 0.3642(17) 0.7186(5) 0.0576(3)
N2 N 0.4565(17) 0.8008(6) 0.0010(4)
C1 C 0.294(2) 0.6782(7) 0.0794(5)
C2 C 0.413(3) 0.6701(8) 0.1189(5)
H1 H 0.4011 0.6439 0.1395
C3_2 C 0.543(3) 0.7079(10) 0.1197(5)
H2_2 H 0.6381 0.7129 0.1422
C4_2 C 0.519(2) 0.7393(7) 0.0822(4)
C5_2 C 0.6315(19) 0.7801(8) 0.0705(5)
C6_2 C 0.608(3) 0.8085(9) 0.0331(5)
C7_2 C 0.721(3) 0.8505(11) 0.0215(7)
H3_2 H 0.8295 0.8623 0.0380
C10 C 0.133(3) 0.6501(7) 0.0671(5)
C11_2 C 0.7929(19) 0.7971(7) 0.1035(4)
C12_2 C 0.752(2) 0.8248(8) 0.1401(5)
H5_2 H 0.6274 0.8317 0.1441
C13_2 C 0.893(2) 0.8421(8) 0.1702(4)
H6_2 H 0.8624 0.8625 0.1934
C16_2 C 0.971(2) 0.7846(9) 0.1007(5)
H8_2 H 0.9992 0.7651 0.0769
C18 C 0.093(3) 0.6036(6) 0.0968(4)
C21 C 0.024(4) 0.5243(7) 0.1553(5)
C22 C 0.175(4) 0.5194(6) 0.1309(6)
H11 H 0.2523 0.4896 0.1342
C23 C 0.209(3) 0.5590(9) 0.1017(5)
H12 H 0.3098 0.5557 0.0853
C24 C 0.002(3) 0.4798(8) 0.1885(6)
C33 C 0.015(3) 0.6600(8) 0.0308(6)
C19 C 0.057(3) 0.6085(6) 0.3788(6)
H9 H 0.1344 0.6383 0.3820
C20 C 0.091(3) 0.5689(9) 0.3495(6)
H10 H 0.1920 0.5722 0.3332
O5 O 0.6867(13) 0.6208(5) 0.7275(3)
O6 O 0.8932(15) 0.6651(5) 0.6955(3)
C27_2 C 0.043(3) 0.7921(10) 0.6197(5)
H14_2 H 0.1381 0.7871 0.6422
C28_2 C 0.019(2) 0.7607(7) 0.5822(4)
C29_2 C 0.1315(19) 0.7199(8) 0.5705(5)
C30_2 C 0.108(3) 0.6915(9) 0.5331(5)
C31_2 C 0.221(3) 0.6495(11) 0.5215(7)
H15_2 H 0.3295 0.6377 0.5380
C32 C 0.151(4) 0.6282(11) 0.4824(6)
H16 H 0.1993 0.5999 0.4677
C35_2 C 0.2929(19) 0.7029(7) 0.6035(4)
C36_2 C 0.252(2) 0.6752(8) 0.6401(5)
H17_2 H 0.1274 0.6683 0.6441
C37_2 C 0.393(2) 0.6579(8) 0.6702(4)
H18_2 H 0.3624 0.6375 0.6934
C38 C 0.572(2) 0.6695(7) 0.6669(4)
C39 C 0.619(2) 0.7008(8) 0.6314(6)
H19 H 0.7420 0.7110 0.6289
C40_2 C 0.471(2) 0.7154(9) 0.6007(5)
H20_2 H 0.4992 0.7349 0.5769
C41 C 0.727(2) 0.6515(7) 0.6986(4)
Cd1_2 Cd 1.0000 0.40132(7) 0.2500
O1_2 O 0.6867(13) 0.3792(5) 0.2275(3)
O2 O 0.8932(15) 0.3349(5) 0.1955(3)
C3_3 C 0.043(3) 0.2079(10) 0.1197(5)
H2_3 H 0.1381 0.2129 0.1422
C4_3 C 0.019(2) 0.2393(7) 0.0822(4)
C5_3 C 0.1315(19) 0.2801(8) 0.0705(5)
C6_3 C 0.108(3) 0.3085(9) 0.0331(5)
C7_3 C 0.221(3) 0.3505(11) 0.0215(7)
H3_3 H 0.3295 0.3623 0.0380
C11_3 C 0.2929(19) 0.2971(7) 0.1035(4)
C12_3 C 0.252(2) 0.3248(8) 0.1401(5)
H5_3 H 0.1274 0.3317 0.1441
C13_3 C 0.393(2) 0.3421(8) 0.1702(4)
H6_3 H 0.3624 0.3625 0.1934
C14_2 C 0.572(2) 0.3305(7) 0.1669(4)
C15_2 C 0.619(2) 0.2992(8) 0.1314(6)
H7_2 H 0.7420 0.2890 0.1289
C16_3 C 0.471(2) 0.2846(9) 0.1007(5)
H8_3 H 0.4992 0.2651 0.0769
C17_2 C 0.727(2) 0.3485(7) 0.1986(4)
O9 O 0.852(4) 0.4864(11) 0.2009(8)
O13 O 0.863(4) 0.4466(11) 0.3007(9)
C19_2 C 0.943(3) 0.6085(6) 0.1212(6)
H9_2 H 0.8656 0.6383 0.1180
C20_2 C 0.909(3) 0.5689(9) 0.1505(6)
H10_2 H 0.8080 0.5722 0.1668
C32_2 C 0.849(4) 0.6282(11) 0.0176(6)
H16_2 H 0.8007 0.5999 0.0323
Pd1_3 Pd 0.7500 0.7500 0.5000
N1_2 N 0.6358(17) 0.7186(5) 0.4424(3)
N2_2 N 0.5435(17) 0.8008(6) 0.4990(4)
C1_2 C 0.706(2) 0.6782(7) 0.4206(5)
C2_2 C 0.587(3) 0.6701(8) 0.3811(5)
H1_2 H 0.5989 0.6439 0.3605
C3_4 C 0.457(3) 0.7079(10) 0.3803(5)
H2_4 H 0.3619 0.7129 0.3578
C4_4 C 0.481(2) 0.7393(7) 0.4178(4)
C5_4 C 0.3685(19) 0.7801(8) 0.4295(5)
C6_4 C 0.392(3) 0.8085(9) 0.4669(5)
C7_4 C 0.279(3) 0.8505(11) 0.4785(7)
H3_4 H 0.1705 0.8623 0.4620
C8_2 C 0.349(4) 0.8718(11) 0.5176(6)
H4_2 H 0.3007 0.9001 0.5323
C9_2 C 0.515(3) 0.8400(8) 0.5308(6)
C10_2 C 0.867(3) 0.6501(7) 0.4329(5)
C11_4 C 0.2071(19) 0.7971(7) 0.3965(4)
C12_4 C 0.248(2) 0.8248(8) 0.3599(5)
H5_4 H 0.3726 0.8317 0.3559
C13_4 C 0.107(2) 0.8421(8) 0.3298(4)
H6_4 H 0.1376 0.8625 0.3066
C16_4 C 0.029(2) 0.7846(9) 0.3993(5)
H8_4 H 0.0008 0.7651 0.4231
C18_2 C 0.907(3) 0.6036(6) 0.4032(4)
C21_2 C 0.976(4) 0.5243(7) 0.3447(5)
C22_2 C 0.825(4) 0.5194(6) 0.3691(6)
H11_2 H 0.7477 0.4896 0.3658
C23_2 C 0.791(3) 0.5590(9) 0.3983(5)
H12_2 H 0.6902 0.5557 0.4147
C24_2 C 0.998(3) 0.4798(8) 0.3115(6)
N3_2 N 0.8642(17) 0.7814(5) 0.5576(3)
N4_2 N 0.9565(17) 0.6992(6) 0.5010(4)
C25_2 C 0.794(2) 0.8218(7) 0.5794(5)
C26_2 C 0.913(3) 0.8299(8) 0.6189(5)
H13_2 H 0.9011 0.8561 0.6395
C33_2 C 0.985(3) 0.6600(8) 0.4692(6)
C34_2 C 0.633(3) 0.8499(7) 0.5671(5)
C42_2 C 0.593(3) 0.8964(6) 0.5968(4)
C43_2 C 0.443(3) 0.8915(6) 0.6212(6)
H21_2 H 0.3656 0.8617 0.6180
C44_2 C 0.409(3) 0.9311(9) 0.6505(6)
H22_2 H 0.3080 0.9278 0.6668
C45_2 C 0.524(4) 0.9757(7) 0.6553(5)
C46_2 C 0.675(4) 0.9806(6) 0.6309(6)
C47_2 C 0.709(3) 0.9410(9) 0.6017(5)
H24_2 H 0.8098 0.9443 0.5853
C8_3 C 0.151(4) 0.3718(11) 0.9824(6)
H4_3 H 0.1993 0.4001 0.9677
Cd3_2 Cd 0.0000 0.59868(7) 0.7500
O8_2 O 0.148(4) 0.5136(11) 0.7991(8)
C43_3 C 0.057(3) 0.3915(6) 0.8788(6)
H21_3 H 0.1344 0.3617 0.8820
C44_3 C 0.091(3) 0.4311(9) 0.8495(6)
H22_3 H 0.1920 0.4278 0.8332
Pd1_4 Pd 0.2500 0.2500 0.5000
N1_3 N 0.1358(17) 0.2186(5) 0.4424(3)
N2_3 N 0.0435(17) 0.3008(6) 0.4990(4)
C1_3 C 0.206(2) 0.1782(7) 0.4206(5)
C2_3 C 0.087(3) 0.1701(8) 0.3811(5)
H1_3 H 0.0989 0.1439 0.3605
C9_3 C 0.015(3) 0.3400(8) 0.5308(6)
C10_3 C 0.367(3) 0.1501(7) 0.4329(5)
C18_3 C 0.407(3) 0.1036(6) 0.4032(4)
C19_3 C 0.557(3) 0.1085(6) 0.3788(6)
H9_3 H 0.6344 0.1383 0.3820
C20_3 C 0.591(3) 0.0689(9) 0.3495(6)
H10_3 H 0.6920 0.0722 0.3332
C21_3 C 0.476(4) 0.0243(7) 0.3447(5)
C22_3 C 0.325(4) 0.0194(6) 0.3691(6)
C23_3 C 0.291(3) 0.0590(9) 0.3983(5)
H12_3 H 0.1902 0.0557 0.4147
O11_2 O 0.137(4) 0.5534(11) 0.6993(9)
N3_3 N 0.3642(17) 0.2814(5) 0.5576(3)
N4_3 N 0.4565(17) 0.1992(6) 0.5010(4)
C25_3 C 0.294(2) 0.3218(7) 0.5794(5)
C26_3 C 0.413(3) 0.3299(8) 0.6189(5)
H13_3 H 0.4011 0.3561 0.6395
C27_3 C 0.543(3) 0.2921(10) 0.6197(5)
H14_3 H 0.6381 0.2871 0.6422
C28_3 C 0.519(2) 0.2607(7) 0.5822(4)
C29_3 C 0.6315(19) 0.2199(8) 0.5705(5)
C30_3 C 0.608(3) 0.1915(9) 0.5331(5)
C31_3 C 0.721(3) 0.1495(11) 0.5215(7)
H15_3 H 0.8295 0.1377 0.5380
C32_3 C 0.651(4) 0.1282(11) 0.4824(6)
H16_3 H 0.6993 0.0999 0.4677
C33_3 C 0.485(3) 0.1600(8) 0.4692(6)
C34_3 C 0.133(3) 0.3499(7) 0.5671(5)
C35_3 C 0.7929(19) 0.2029(7) 0.6035(4)
C36_3 C 0.752(2) 0.1752(8) 0.6401(5)
H17_3 H 0.6274 0.1683 0.6441
C37_3 C 0.893(2) 0.1579(8) 0.6702(4)
H18_3 H 0.8624 0.1375 0.6934
C40_3 C 0.971(2) 0.2154(9) 0.6007(5)
H20_3 H 0.9992 0.2349 0.5769
C42_3 C 0.093(3) 0.3964(6) 0.5968(4)
C45_3 C 0.024(4) 0.4757(7) 0.6553(5)
C46_3 C 0.175(4) 0.4806(6) 0.6309(6)
H23_2 H 0.2523 0.5104 0.6342
C47_3 C 0.209(3) 0.4410(9) 0.6017(5)
H24_3 H 0.3098 0.4443 0.5853
C48_2 C 0.002(3) 0.5202(8) 0.6885(6)
O5_2 O 0.3133(13) 0.6208(5) 0.7725(3)
O6_2 O 0.1068(15) 0.6651(5) 0.8045(3)
C27_4 C 0.957(3) 0.7921(10) 0.8803(5)
H14_4 H 0.8619 0.7871 0.8578
C28_4 C 0.981(2) 0.7607(7) 0.9178(4)
C29_4 C 0.8685(19) 0.7199(8) 0.9295(5)
C30_4 C 0.892(3) 0.6915(9) 0.9669(5)
C31_4 C 0.779(3) 0.6495(11) 0.9785(7)
H15_4 H 0.6705 0.6377 0.9620
C35_4 C 0.7071(19) 0.7029(7) 0.8965(4)
C36_4 C 0.748(2) 0.6752(8) 0.8599(5)
H17_4 H 0.8726 0.6683 0.8559
C37_4 C 0.607(2) 0.6579(8) 0.8298(4)
H18_4 H 0.6376 0.6375 0.8066
C38_2 C 0.428(2) 0.6695(7) 0.8331(4)
C39_2 C 0.381(2) 0.7008(8) 0.8686(6)
H19_2 H 0.2580 0.7110 0.8711
C40_4 C 0.529(2) 0.7154(9) 0.8993(5)
H20_4 H 0.5008 0.7349 0.9231
C41_2 C 0.273(2) 0.6515(7) 0.8014(4)
Pd1_5 Pd 0.7500 0.2500 0.0000
N1_4 N 0.8642(17) 0.2186(5) 0.0576(3)
N2_4 N 0.9565(17) 0.3008(6) 0.0010(4)
C1_4 C 0.794(2) 0.1782(7) 0.0794(5)
C2_4 C 0.913(3) 0.1701(8) 0.1189(5)
H1_4 H 0.9011 0.1439 0.1395
C10_4 C 0.633(3) 0.1501(7) 0.0671(5)
C18_4 C 0.593(3) 0.1036(6) 0.0968(4)
C19_4 C 0.443(3) 0.1085(6) 0.1212(6)
H9_4 H 0.3656 0.1383 0.1180
C20_4 C 0.409(3) 0.0689(9) 0.1505(6)
H10_4 H 0.3080 0.0722 0.1668
C21_4 C 0.524(4) 0.0243(7) 0.1553(5)
C22_4 C 0.675(4) 0.0194(6) 0.1309(6)
C23_4 C 0.709(3) 0.0590(9) 0.1017(5)
H12_4 H 0.8098 0.0557 0.0853
C32_4 C 0.349(4) 0.1282(11) 0.0176(6)
H16_4 H 0.3007 0.0999 0.0323
C33_4 C 0.515(3) 0.1600(8) 0.0308(6)
O3 O 0.352(4) 0.9864(11) 0.2009(8)
O4 O 0.637(4) 0.9466(11) 0.1993(9)
H11_3 H 0.7523 0.9896 0.1342
C24_3 C 0.502(3) 0.9798(8) 0.1885(6)
Cd2 Cd 0.5000 0.90132(7) 0.2500
O3_2 O 0.648(4) 0.9864(11) 0.2991(8)
O4_2 O 0.363(4) 0.9466(11) 0.3007(9)
H11_4 H 0.2477 0.9896 0.3658
C24_4 C 0.498(3) 0.9798(8) 0.3115(6)
O1_3 O 0.1867(13) 0.8792(5) 0.2275(3)
O2_2 O 0.3932(15) 0.8349(5) 0.1955(3)
C14_3 C 0.072(2) 0.8305(7) 0.1669(4)
C15_3 C 0.119(2) 0.7992(8) 0.1314(6)
H7_3 H 0.2420 0.7890 0.1289
C17_3 C 0.227(2) 0.8485(7) 0.1986(4)
O7_2 O 0.6068(15) 0.8349(5) 0.3045(3)
O1_4 O 0.8133(13) 0.8792(5) 0.2725(3)
C14_4 C 0.928(2) 0.8305(7) 0.3331(4)
C15_4 C 0.881(2) 0.7992(8) 0.3686(6)
H7_4 H 0.7580 0.7890 0.3711
C17_4 C 0.773(2) 0.8485(7) 0.3014(4)
Cd4 Cd 0.5000 0.09868(7) 0.7500
O5_3 O 0.8133(13) 0.1208(5) 0.7725(3)
O6_3 O 0.6068(15) 0.1651(5) 0.8045(3)
C38_3 C 0.928(2) 0.1695(7) 0.8331(4)
C39_3 C 0.881(2) 0.2008(8) 0.8686(6)
H19_3 H 0.7580 0.2110 0.8711
C41_3 C 0.773(2) 0.1515(7) 0.8014(4)
O5_4 O 0.1867(13) 0.1208(5) 0.7275(3)
O6_4 O 0.3932(15) 0.1651(5) 0.6955(3)
C38_4 C 0.072(2) 0.1695(7) 0.6669(4)
C39_4 C 0.119(2) 0.2008(8) 0.6314(6)
H19_4 H 0.2420 0.2110 0.6289
C41_4 C 0.227(2) 0.1515(7) 0.6986(4)
O8_3 O 0.648(4) 0.0136(11) 0.7991(8)
O11_3 O 0.363(4) 0.0534(11) 0.8007(9)
H23_3 H 0.2477 0.0104 0.8658
C48_3 C 0.498(3) 0.0202(8) 0.8115(6)
O8_4 O 0.352(4) 0.0136(11) 0.7009(8)
O11_4 O 0.637(4) 0.0534(11) 0.6993(9)
H23_4 H 0.7523 0.0104 0.6342
C48_4 C 0.502(3) 0.0202(8) 0.6885(6)
Pd1_6 Pd 0.2500 0.7500 1.0000
C8_4 C 0.651(4) 0.8718(11) 0.9824(6)
H4_4 H 0.6993 0.9001 0.9677
C9_4 C 0.485(3) 0.8400(8) 0.9692(6)
N3_4 N 0.1358(17) 0.7814(5) 0.9424(3)
N4_4 N 0.0435(17) 0.6992(6) 0.9990(4)
C25_4 C 0.206(2) 0.8218(7) 0.9206(5)
C26_4 C 0.087(3) 0.8299(8) 0.8811(5)
H13_4 H 0.0989 0.8561 0.8605
C34_4 C 0.367(3) 0.8499(7) 0.9329(5)
C42_4 C 0.407(3) 0.8964(6) 0.9032(4)
C43_4 C 0.557(3) 0.8915(6) 0.8788(6)
H21_4 H 0.6344 0.8617 0.8820
C44_4 C 0.591(3) 0.9311(9) 0.8495(6)
H22_4 H 0.6920 0.9278 0.8332
C45_4 C 0.476(4) 0.9757(7) 0.8447(5)
C46_4 C 0.325(4) 0.9806(6) 0.8691(6)
C47_4 C 0.291(3) 0.9410(9) 0.8983(5)
H24_4 H 0.1902 0.9443 0.9147
loop_
_geom_bond_atom_site_label_1
_geom_bond_atom_site_label_2
_geom_bond_site_symmetry_1
_geom_bond_site_symmetry_2
O7 Cd1 1_555 1_555
O10 Cd1 1_555 1_555
O12 Cd1 1_555 1_555
O11 Cd3 1_555 1_555
N3 Pd1 1_555 1_555
N4 Pd1 1_555 1_555
C25 N3 1_555 1_555
C26 C25 1_555 1_555
H13 C26 1_555 1_555
C27 C26 1_555 1_555
H14 C27 1_555 1_555
C28 N3 1_555 1_555
C29 C28 1_555 1_555
C30 N4 1_555 1_555
C31 C30 1_555 1_555
H15 C31 1_555 1_555
C34 C9 1_555 1_555
C35 C29 1_555 1_555
C36 C35 1_555 1_555
H17 C36 1_555 1_555
C37 C36 1_555 1_555
H18 C37 1_555 1_555
C40 C35 1_555 1_555
H20 C40 1_555 1_555
C42 C34 1_555 1_555
C46 C45 1_555 1_555
H23 C46 1_555 1_555
C47 C42 1_555 1_555
H24 C47 1_555 1_555
C48 O11 1_555 1_555
C25 C34 1_555 1_555
C27 C28 1_555 1_555
C29 C30 1_555 1_555
C45 C48 1_555 1_555
C46 C47 1_555 1_555
Cd1 O1 1_555 1_555
O1 C17 1_555 1_555
H2 C3 1_555 1_555
C5 C4 1_555 1_555
C7 C6 1_555 1_555
H3 C7 1_555 1_555
C8 C7 1_555 1_555
H4 C8 1_555 1_555
C11 C5 1_555 1_555
C12 C11 1_555 1_555
H5 C12 1_555 1_555
C13 C12 1_555 1_555
H6 C13 1_555 1_555
C14 C13 1_555 1_555
C15 C14 1_555 1_555
H7 C15 1_555 1_555
C16 C11 1_555 1_555
H8 C16 1_555 1_555
C17 O7 1_555 1_555
Cd3 O8 1_555 1_555
H21 C43 1_555 1_555
C44 C43 1_555 1_555
H22 C44 1_555 1_555
C3 C4 1_555 1_555
C5 C6 1_555 1_555
C14 C17 1_555 1_555
C15 C16 1_555 1_555
Pd1_2 N1 1_555 1_555
O12 C24 1_555 1_555
N1 C1 1_555 1_555
N2 Pd1_2 1_555 1_555
C1 C2 1_555 1_555
C2 H1 1_555 1_555
C3_2 C2 1_555 1_555
H2_2 C3_2 1_555 1_555
C4_2 N1 1_555 1_555
C5_2 C4_2 1_555 1_555
C6_2 N2 1_555 1_555
C7_2 C6_2 1_555 1_555
H3_2 C7_2 1_555 1_555
C10 C1 1_555 1_555
C11_2 C5_2 1_555 1_555
C12_2 C11_2 1_555 1_555
H5_2 C12_2 1_555 1_555
C13_2 C12_2 1_555 1_555
H6_2 C13_2 1_555 1_555
C16_2 C11_2 1_555 1_555
H8_2 C16_2 1_555 1_555
C18 C10 1_555 1_555
C22 C21 1_555 1_555
H11 C22 1_555 1_555
C23 C18 1_555 1_555
H12 C23 1_555 1_555
C24 C21 1_555 1_555
C33 C10 1_555 1_555
C3_2 C4_2 1_555 1_555
C5_2 C6_2 1_555 1_555
C22 C23 1_555 1_555
H9 C19 1_555 1_555
C20 C19 1_555 1_555
H10 C20 1_555 1_555
Cd3 O5 1_555 1_555
O5 C41 1_555 1_555
O6 Cd3 1_555 1_555
H14_2 C27_2 1_555 1_555
C29_2 C28_2 1_555 1_555
C31_2 C30_2 1_555 1_555
H15_2 C31_2 1_555 1_555
C32 C31_2 1_555 1_555
H16 C32 1_555 1_555
C35_2 C29_2 1_555 1_555
C36_2 C35_2 1_555 1_555
H17_2 C36_2 1_555 1_555
C37_2 C36_2 1_555 1_555
H18_2 C37_2 1_555 1_555
C38 C37_2 1_555 1_555
C39 C38 1_555 1_555
H19 C39 1_555 1_555
C40_2 C35_2 1_555 1_555
H20_2 C40_2 1_555 1_555
C41 O6 1_555 1_555
C27_2 C28_2 1_555 1_555
C29_2 C30_2 1_555 1_555
C38 C41 1_555 1_555
C39 C40_2 1_555 1_555
Cd1_2 O1_2 1_555 1_555
O1_2 C17_2 1_555 1_555
O2 Cd1_2 1_555 1_555
H2_3 C3_3 1_555 1_555
C5_3 C4_3 1_555 1_555
C7_3 C6_3 1_555 1_555
H3_3 C7_3 1_555 1_555
C11_3 C5_3 1_555 1_555
C12_3 C11_3 1_555 1_555
H5_3 C12_3 1_555 1_555
C13_3 C12_3 1_555 1_555
H6_3 C13_3 1_555 1_555
C14_2 C13_3 1_555 1_555
C15_2 C14_2 1_555 1_555
H7_2 C15_2 1_555 1_555
C16_3 C11_3 1_555 1_555
H8_3 C16_3 1_555 1_555
C17_2 O2 1_555 1_555
O9 Cd1_2 1_555 1_555
O13 Cd1_2 1_555 1_555
C3_3 C4_3 1_555 1_555
C5_3 C6_3 1_555 1_555
C14_2 C17_2 1_555 1_555
C15_2 C16_3 1_555 1_555
H9_2 C19_2 1_555 1_555
C20_2 C19_2 1_555 1_555
H10_2 C20_2 1_555 1_555
H16_2 C32_2 1_555 1_555
Pd1_3 N1_2 1_555 1_555
O13 C24_2 1_555 1_555
N1_2 C1_2 1_555 1_555
N2_2 Pd1_3 1_555 1_555
C1_2 C2_2 1_555 1_555
C2_2 H1_2 1_555 1_555
C3_4 C2_2 1_555 1_555
H2_4 C3_4 1_555 1_555
C4_4 N1_2 1_555 1_555
C5_4 C4_4 1_555 1_555
C6_4 N2_2 1_555 1_555
C7_4 C6_4 1_555 1_555
H3_4 C7_4 1_555 1_555
C8_2 C7_4 1_555 1_555
H4_2 C8_2 1_555 1_555
C9_2 N2_2 1_555 1_555
C10_2 C1_2 1_555 1_555
C11_4 C5_4 1_555 1_555
C12_4 C11_4 1_555 1_555
H5_4 C12_4 1_555 1_555
C13_4 C12_4 1_555 1_555
H6_4 C13_4 1_555 1_555
C16_4 C11_4 1_555 1_555
H8_4 C16_4 1_555 1_555
C18_2 C10_2 1_555 1_555
C22_2 C21_2 1_555 1_555
H11_2 C22_2 1_555 1_555
C23_2 C18_2 1_555 1_555
H12_2 C23_2 1_555 1_555
C24_2 C21_2 1_555 1_555
N3_2 Pd1_3 1_555 1_555
N4_2 Pd1_3 1_555 1_555
C25_2 N3_2 1_555 1_555
C26_2 C25_2 1_555 1_555
H13_2 C26_2 1_555 1_555
C33_2 C10_2 1_555 1_555
C34_2 C9_2 1_555 1_555
C42_2 C34_2 1_555 1_555
C43_2 C42_2 1_555 1_555
H21_2 C43_2 1_555 1_555
C44_2 C43_2 1_555 1_555
H22_2 C44_2 1_555 1_555
C45_2 C44_2 1_555 1_555
C46_2 C45_2 1_555 1_555
C47_2 C42_2 1_555 1_555
H24_2 C47_2 1_555 1_555
C3_4 C4_4 1_555 1_555
C5_4 C6_4 1_555 1_555
C8_2 C9_2 1_555 1_555
C22_2 C23_2 1_555 1_555
N4_2 C33_2 1_555 1_555
C25_2 C34_2 1_555 1_555
C46_2 C47_2 1_555 1_555
H4_3 C8_3 1_555 1_555
Cd3_2 O8_2 1_555 1_555
H21_3 C43_3 1_555 1_555
C44_3 C43_3 1_555 1_555
H22_3 C44_3 1_555 1_555
Pd1_4 N1_3 1_555 1_555
N1_3 C1_3 1_555 1_555
N2_3 Pd1_4 1_555 1_555
C1_3 C2_3 1_555 1_555
C2_3 H1_3 1_555 1_555
C9_3 N2_3 1_555 1_555
C10_3 C1_3 1_555 1_555
C18_3 C10_3 1_555 1_555
C19_3 C18_3 1_555 1_555
H9_3 C19_3 1_555 1_555
C20_3 C19_3 1_555 1_555
H10_3 C20_3 1_555 1_555
C21_3 C20_3 1_555 1_555
C22_3 C21_3 1_555 1_555
C23_3 C18_3 1_555 1_555
H12_3 C23_3 1_555 1_555
O11_2 Cd3_2 1_555 1_555
N3_3 Pd1_4 1_555 1_555
N4_3 Pd1_4 1_555 1_555
C25_3 N3_3 1_555 1_555
C26_3 C25_3 1_555 1_555
H13_3 C26_3 1_555 1_555
C27_3 C26_3 1_555 1_555
H14_3 C27_3 1_555 1_555
C28_3 N3_3 1_555 1_555
C29_3 C28_3 1_555 1_555
C30_3 N4_3 1_555 1_555
C31_3 C30_3 1_555 1_555
H15_3 C31_3 1_555 1_555
C32_3 C31_3 1_555 1_555
H16_3 C32_3 1_555 1_555
C33_3 C10_3 1_555 1_555
C34_3 C9_3 1_555 1_555
C35_3 C29_3 1_555 1_555
C36_3 C35_3 1_555 1_555
H17_3 C36_3 1_555 1_555
C37_3 C36_3 1_555 1_555
H18_3 C37_3 1_555 1_555
C40_3 C35_3 1_555 1_555
H20_3 C40_3 1_555 1_555
C42_3 C34_3 1_555 1_555
C46_3 C45_3 1_555 1_555
H23_2 C46_3 1_555 1_555
C47_3 C42_3 1_555 1_555
H24_3 C47_3 1_555 1_555
C48_2 O11_2 1_555 1_555
C22_3 C23_3 1_555 1_555
N4_3 C33_3 1_555 1_555
C25_3 C34_3 1_555 1_555
C27_3 C28_3 1_555 1_555
C29_3 C30_3 1_555 1_555
C32_3 C33_3 1_555 1_555
C45_3 C48_2 1_555 1_555
C46_3 C47_3 1_555 1_555
Cd3_2 O5_2 1_555 1_555
O5_2 C41_2 1_555 1_555
O6_2 Cd3_2 1_555 1_555
H14_4 C27_4 1_555 1_555
C29_4 C28_4 1_555 1_555
C31_4 C30_4 1_555 1_555
H15_4 C31_4 1_555 1_555
C35_4 C29_4 1_555 1_555
C36_4 C35_4 1_555 1_555
H17_4 C36_4 1_555 1_555
C37_4 C36_4 1_555 1_555
H18_4 C37_4 1_555 1_555
C38_2 C37_4 1_555 1_555
C39_2 C38_2 1_555 1_555
H19_2 C39_2 1_555 1_555
C40_4 C35_4 1_555 1_555
H20_4 C40_4 1_555 1_555
C41_2 O6_2 1_555 1_555
C27_4 C28_4 1_555 1_555
C29_4 C30_4 1_555 1_555
C38_2 C41_2 1_555 1_555
C39_2 C40_4 1_555 1_555
Pd1_5 N1_4 1_555 1_555
N1_4 C1_4 1_555 1_555
N2_4 Pd1_5 1_555 1_555
C1_4 C2_4 1_555 1_555
C2_4 H1_4 1_555 1_555
C10_4 C1_4 1_555 1_555
C18_4 C10_4 1_555 1_555
C19_4 C18_4 1_555 1_555
H9_4 C19_4 1_555 1_555
C20_4 C19_4 1_555 1_555
H10_4 C20_4 1_555 1_555
C21_4 C20_4 1_555 1_555
C22_4 C21_4 1_555 1_555
C23_4 C18_4 1_555 1_555
H12_4 C23_4 1_555 1_555
H16_4 C32_4 1_555 1_555
C33_4 C10_4 1_555 1_555
C22_4 C23_4 1_555 1_555
C32_4 C33_4 1_555 1_555
O3 C24_3 1_555 1_555
O4 C24_3 1_555 1_555
Cd2 O3 1_555 1_555
O4 Cd2 1_555 1_555
O3_2 C24_4 1_555 1_555
O4_2 C24_4 1_555 1_555
Cd2 O3_2 1_555 1_555
O4_2 Cd2 1_555 1_555
Cd2 O1_3 1_555 1_555
O1_3 C17_3 1_555 1_555
O2_2 Cd2 1_555 1_555
C15_3 C14_3 1_555 1_555
H7_3 C15_3 1_555 1_555
C17_3 O2_2 1_555 1_555
O7_2 Cd2 1_555 1_555
C14_3 C17_3 1_555 1_555
Cd2 O1_4 1_555 1_555
O1_4 C17_4 1_555 1_555
C15_4 C14_4 1_555 1_555
H7_4 C15_4 1_555 1_555
C17_4 O7_2 1_555 1_555
C14_4 C17_4 1_555 1_555
Cd4 O5_3 1_555 1_555
O5_3 C41_3 1_555 1_555
O6_3 Cd4 1_555 1_555
C39_3 C38_3 1_555 1_555
H19_3 C39_3 1_555 1_555
C41_3 O6_3 1_555 1_555
C38_3 C41_3 1_555 1_555
Cd4 O5_4 1_555 1_555
O5_4 C41_4 1_555 1_555
O6_4 Cd4 1_555 1_555
C39_4 C38_4 1_555 1_555
H19_4 C39_4 1_555 1_555
C41_4 O6_4 1_555 1_555
C38_4 C41_4 1_555 1_555
Cd4 O8_3 1_555 1_555
O8_3 C48_3 1_555 1_555
O11_3 Cd4 1_555 1_555
C48_3 O11_3 1_555 1_555
Cd4 O8_4 1_555 1_555
O8_4 C48_4 1_555 1_555
O11_4 Cd4 1_555 1_555
C48_4 O11_4 1_555 1_555
H4_4 C8_4 1_555 1_555
N3_4 Pd1_6 1_555 1_555
N4_4 Pd1_6 1_555 1_555
C25_4 N3_4 1_555 1_555
C26_4 C25_4 1_555 1_555
H13_4 C26_4 1_555 1_555
C34_4 C9_4 1_555 1_555
C42_4 C34_4 1_555 1_555
C43_4 C42_4 1_555 1_555
H21_4 C43_4 1_555 1_555
C44_4 C43_4 1_555 1_555
H22_4 C44_4 1_555 1_555
C45_4 C44_4 1_555 1_555
C46_4 C45_4 1_555 1_555
C47_4 C42_4 1_555 1_555
H24_4 C47_4 1_555 1_555
C8_4 C9_4 1_555 1_555
C25_4 C34_4 1_555 1_555
C46_4 C47_4 1_555 1_555

#END
