
###############################################################################
#
# This file contains modified crystal structure data generated from the
# MOF subset of the Cambridge Structural Database (CSD) v543 
# hosted by the Cambridge Crystallographic Data Centre (CCDC).
#
# This work is licensed under the Creative Commons
# Attribution-NonCommercial-ShareAlike 4.0 International License.
# To view a copy of this license, visit
# http://creativecommons.org/licenses/by-nc-sa/4.0/
# or send a letter to
# Creative Commons, PO Box 1866, Mountain View, CA 94042, USA.
#
# CIF created using the CSD Python API on 29 September 2022
# The structure has been converted into the P1 space group
# The structure has a 3D framework
# The original CSD entry OQETUC is in the rhombohedral crystal system
# The framework has been calculated to contain at least 10.0% void space
# The void calculation uses a probe of radius 1.32A, grid spacing 0.4
#
###############################################################################

data_OQETUC
_chemical_formula_moiety         '(C108 H36 Cl50 N58 O18 V22)n'
_symmetry_cell_setting           triclinic
_symmetry_space_group_name_H-M   'P 1'
_symmetry_Int_Tables_number      1
_space_group_name_Hall           'P 1'
loop_
_symmetry_equiv_pos_site_id
_symmetry_equiv_pos_as_xyz
1 x,y,z
_cell_length_a                   38.8820(9)
_cell_length_b                   38.8820(9)
_cell_length_c                   8.310(1)
_cell_angle_alpha                90
_cell_angle_beta                 90
_cell_angle_gamma                120
_cell_volume                     10880
loop_
_atom_site_label
_atom_site_type_symbol
_atom_site_fract_x
_atom_site_fract_y
_atom_site_fract_z
Cl1 Cl 0.3920(4) 0.000 -0.0
Cl3 Cl 0.6080(4) 0.000 -0.0
N9 N 0.7037(13) 0.0514(9) 0.041(4)
N10 N 0.3476(10) 0.0514(9) 0.041(4)
V1 V 0.36496(25) 0.0316(3) 0.83333
Cl1_2 Cl 0.3920(4) 0.000 1.0
N1 N 0.3581(14) 0.000 0.500
N2 N 0.3847(9) 0.0143(10) 0.626(4)
C1 C 0.4184(13) 0.010(2) 0.573(6)
C2 C 0.4493(12) 0.0171(17) 0.658(6)
C3 C 0.4774(12) 0.0131(18) 0.570(5)
O1 O 0.5070(12) 0.014(2) 0.645(9)
H1 H 0.452(2) 0.028(3) 0.791(7)
Cl2 Cl 0.424(1) 0.090(1) 0.833333
N3 N 0.6419(14) 0.000 0.500
N4 N 0.6296(13) 0.0143(10) 0.626(4)
C4 C 0.5916(24) 0.010(2) 0.573(6)
C5 C 0.5678(21) 0.0171(17) 0.658(6)
C6 C 0.5357(22) 0.0131(18) 0.570(5)
H2 H 0.576(4) 0.028(3) 0.791(7)
V2 V 0.66664(39) 0.0316(3) 0.83333
Cl3_2 Cl 0.6080(4) 0.000 1.0
V7 V 0.3017(3) 0.00003(39) 0.50000
V8 V 0.69829(25) 0.00003(39) 0.50000
Cl4 Cl 0.333333 0.0587(4) 0.666667
Cl5 Cl 0.7253(4) 0.0587(4) 0.666667
Cl1_3 Cl 0.3920(4) 1.000 -0.0
Cl3_3 Cl 0.6080(4) 1.000 -0.0
V4 V 0.63504(25) 0.9684(3) 0.16667
V6 V 0.33336(39) 0.9684(3) 0.16667
Cl1_4 Cl 0.3920(4) 1.000 1.0
N1_2 N 0.3581(14) 1.000 0.500
N3_2 N 0.6419(14) 1.000 0.500
N5 N 0.6153(9) 0.9857(10) 0.374(4)
C7 C 0.5816(13) 0.990(2) 0.427(6)
C8 C 0.5507(12) 0.9829(17) 0.342(6)
C9 C 0.5226(12) 0.9869(18) 0.430(5)
O2 O 0.4930(12) 0.986(2) 0.355(9)
H3 H 0.548(2) 0.972(3) 0.209(7)
N6 N 0.3704(13) 0.9857(10) 0.374(4)
C10 C 0.4084(24) 0.990(2) 0.427(6)
C11 C 0.4322(21) 0.9829(17) 0.342(6)
C12 C 0.4643(22) 0.9869(18) 0.430(5)
H4 H 0.424(4) 0.972(3) 0.209(7)
Cl3_4 Cl 0.6080(4) 1.000 1.0
N7 N 0.666667 0.9752(14) 0.833333
N8 N 0.3086(14) 0.9752(14) 0.833333
Cl1_5 Cl 0.000 0.3920(4) -0.0
Cl3_5 Cl 0.000 0.6080(4) -0.0
V4_2 V 0.0316(3) 0.66664(39) 0.16667
V6_2 V 0.0316(3) 0.36496(49) 0.16667
Cl1_6 Cl 0.000 0.3920(4) 1.0
N1_3 N -0.000 0.3581(14) 0.500
N3_3 N -0.000 0.6419(14) 0.500
N5_2 N 0.0143(10) 0.6296(13) 0.374(4)
C7_2 C 0.010(2) 0.5916(24) 0.427(6)
C8_2 C 0.0171(17) 0.5678(21) 0.342(6)
C9_2 C 0.0131(18) 0.5357(22) 0.430(5)
O2_2 O 0.014(2) 0.5070(23) 0.355(9)
H3_2 H 0.028(3) 0.576(4) 0.209(7)
N6_2 N 0.0143(10) 0.3847(16) 0.374(4)
C10_2 C 0.010(2) 0.4184(31) 0.427(6)
C11_2 C 0.0171(17) 0.4493(27) 0.342(6)
C12_2 C 0.0131(18) 0.4774(28) 0.430(5)
H4_2 H 0.028(3) 0.452(5) 0.209(7)
Cl3_6 Cl -0.000 0.6080(4) 1.0
N7_2 N 0.0248(14) 0.6914(14) 0.833333
N8_2 N 0.0248(14) 0.3333(20) 0.833333
Cl1_7 Cl 1.000 0.3920(4) -0.0
Cl3_7 Cl 1.000 0.6080(4) -0.0
N9_2 N 0.9486(9) 0.6524(16) 0.041(4)
N10_2 N 0.9486(9) 0.2963(13) 0.041(4)
V1_2 V 0.9684(3) 0.33336(39) 0.83333
Cl1_8 Cl 1.000 0.3920(4) 1.0
N1_4 N 1.000 0.3581(14) 0.500
N2_2 N 0.9857(10) 0.3704(13) 0.626(4)
C1_2 C 0.990(2) 0.4084(24) 0.573(6)
C2_2 C 0.9829(17) 0.4322(21) 0.658(6)
C3_2 C 0.9869(18) 0.4643(22) 0.570(5)
O1_2 O 0.986(2) 0.4930(23) 0.645(9)
H1_2 H 0.972(3) 0.424(4) 0.791(7)
Cl2_2 Cl 0.910(1) 0.334(1) 0.833333
N3_4 N 1.000 0.6419(14) 0.500
N4_2 N 0.9857(10) 0.6153(16) 0.626(4)
C4_2 C 0.990(2) 0.5816(31) 0.573(6)
C5_2 C 0.9829(17) 0.5507(27) 0.658(6)
C6_2 C 0.9869(18) 0.5226(28) 0.570(5)
H2_2 H 0.972(3) 0.548(5) 0.791(7)
V2_2 V 0.9684(3) 0.63504(49) 0.83333
Cl3_8 Cl 1.000 0.6080(4) 1.0
V7_2 V 0.99997(39) 0.30171(49) 0.50000
V8_2 V 0.99997(39) 0.69827(46) 0.50000
Cl4_2 Cl 0.9413(4) 0.27467(40) 0.666667
Cl5_2 Cl 0.9413(4) 0.6667(6) 0.666667
Cl1_9 Cl 0.6080(4) 0.6080(4) -0.0
Cl3_9 Cl 0.3920(4) 0.3920(4) -0.0
V4_3 V 0.33336(39) 0.36496(25) 0.16667
V6_3 V 0.63504(49) 0.66664(39) 0.16667
N9_3 N 0.3476(16) 0.2963(13) 0.041(4)
N10_3 N 0.7037(13) 0.6524(10) 0.041(4)
V1_3 V 0.66664(39) 0.63504(25) 0.83333
Cl1_10 Cl 0.6080(4) 0.6080(4) 1.0
N1_5 N 0.6419(14) 0.6419(14) 0.500
N2_3 N 0.6296(13) 0.6153(9) 0.626(4)
C1_3 C 0.5916(24) 0.5816(13) 0.573(6)
C2_3 C 0.5678(21) 0.5507(12) 0.658(6)
C3_3 C 0.5357(22) 0.5226(12) 0.570(5)
O1_3 O 0.5070(23) 0.4930(12) 0.645(9)
H1_3 H 0.576(4) 0.548(2) 0.791(7)
Cl2_3 Cl 0.666(1) 0.576(1) 0.833333
N3_5 N 0.3581(14) 0.3581(14) 0.500
N4_3 N 0.3847(16) 0.3704(13) 0.626(4)
C4_3 C 0.4184(31) 0.4084(24) 0.573(6)
C5_3 C 0.4493(27) 0.4322(21) 0.658(6)
C6_3 C 0.4774(28) 0.4643(22) 0.570(5)
H2_3 H 0.452(5) 0.424(4) 0.791(7)
N5_3 N 0.3704(13) 0.3847(9) 0.374(4)
C7_3 C 0.4084(24) 0.4184(13) 0.427(6)
C8_3 C 0.4322(21) 0.4493(12) 0.342(6)
C9_3 C 0.4643(22) 0.4774(12) 0.430(5)
O2_3 O 0.4930(23) 0.5070(12) 0.355(9)
H3_3 H 0.424(4) 0.452(2) 0.209(7)
N6_3 N 0.6153(16) 0.6296(13) 0.374(4)
C10_3 C 0.5816(31) 0.5916(24) 0.427(6)
C11_3 C 0.5507(27) 0.5678(21) 0.342(6)
C12_3 C 0.5226(28) 0.5357(22) 0.430(5)
H4_3 H 0.548(5) 0.576(4) 0.209(7)
V2_3 V 0.36496(49) 0.33336(39) 0.83333
Cl3_10 Cl 0.3920(4) 0.3920(4) 1.0
V7_3 V 0.69829(49) 0.6983(3) 0.50000
V8_3 V 0.30173(46) 0.30171(25) 0.50000
Cl4_3 Cl 0.72533(40) 0.666667 0.666667
Cl5_3 Cl 0.3333(6) 0.2747(4) 0.666667
N7_3 N 0.3086(14) 0.333333 0.833333
N8_3 N 0.6667(20) 0.6914(14) 0.833333
N7_4 N 0.6914(14) 0.0248(14) 0.166667
N8_4 N 0.3333(20) 0.0248(14) 0.166667
Cl2_4 Cl 0.334(1) 0.910(1) 0.166667
V7_4 V 0.30171(49) 0.99997(39) 0.50000
V8_4 V 0.69827(46) 0.99997(39) 0.50000
Cl4_4 Cl 0.27467(40) 0.9413(4) 0.333333
Cl5_4 Cl 0.6667(6) 0.9413(4) 0.333333
N9_4 N 0.6524(16) 0.9486(9) 0.959(4)
N10_4 N 0.2963(13) 0.9486(9) 0.959(4)
Cl2_5 Cl 0.090(1) 0.424(1) 0.166667
V7_5 V 0.00003(39) 0.3017(3) 0.50000
V8_5 V 0.00003(39) 0.69829(25) 0.50000
Cl4_5 Cl 0.0587(4) 0.333333 0.333333
Cl5_5 Cl 0.0587(4) 0.7253(4) 0.333333
N9_5 N 0.0514(9) 0.7037(13) 0.959(4)
N10_5 N 0.0514(9) 0.3476(10) 0.959(4)
N7_5 N 0.9752(14) 0.666667 0.166667
N8_5 N 0.9752(14) 0.3086(14) 0.166667
Cl2_6 Cl 0.576(1) 0.666(1) 0.166667
Cl4_6 Cl 0.666667 0.72533(40) 0.333333
Cl5_6 Cl 0.2747(4) 0.3333(6) 0.333333
N7_6 N 0.333333 0.3086(14) 0.166667
N8_6 N 0.6914(14) 0.6667(20) 0.166667
N9_6 N 0.2963(13) 0.3476(16) 0.959(4)
N10_6 N 0.6524(10) 0.7037(13) 0.959(4)
N9_7 N 0.0371(13) 0.7180(9) 0.707(4)
N2_4 N 0.7180(9) 0.6810(10) 0.293(4)
C1_4 C 0.7517(13) 0.677(2) 0.240(6)
C2_4 C 0.7826(12) 0.6838(17) 0.325(6)
C3_4 C 0.8107(12) 0.6798(18) 0.237(5)
O1_4 O 0.8403(12) 0.681(2) 0.312(9)
H1_4 H 0.785(2) 0.695(3) 0.458(7)
Cl2_7 Cl 0.757(1) 0.757(1) 0.500000
N4_4 N 0.9629(13) 0.6810(10) 0.293(4)
C4_4 C 0.9249(24) 0.677(2) 0.240(6)
C5_4 C 0.9011(21) 0.6838(17) 0.325(6)
C6_4 C 0.8690(22) 0.6798(18) 0.237(5)
H2_4 H 0.909(4) 0.695(3) 0.458(7)
C7_4 C 0.9149(13) 0.657(2) 0.094(6)
C8_4 C 0.8840(12) 0.6496(17) 0.009(6)
C9_4 C 0.8559(12) 0.6536(18) 0.097(5)
O2_4 O 0.8263(12) 0.653(2) 0.022(9)
C10_4 C 0.7417(24) 0.657(2) 0.094(6)
C11_4 C 0.7655(21) 0.6496(17) 0.009(6)
C12_4 C 0.7976(22) 0.6536(18) 0.097(5)
N10_7 N 0.6810(10) 0.7180(9) 0.707(4)
H3_4 H 0.881(2) 0.639(3) 0.876(7)
H4_4 H 0.757(4) 0.639(3) 0.876(7)
N2_5 N 0.3190(10) 0.0371(13) 0.293(4)
C1_5 C 0.323(2) 0.0751(24) 0.240(6)
C2_5 C 0.3162(17) 0.0989(21) 0.325(6)
C3_5 C 0.3202(18) 0.1310(22) 0.237(5)
O1_5 O 0.319(2) 0.1597(23) 0.312(9)
H1_5 H 0.305(3) 0.091(4) 0.458(7)
Cl2_8 Cl 0.243(1) 0.001(1) 0.500000
N4_5 N 0.3190(10) 0.2820(16) 0.293(4)
C4_5 C 0.323(2) 0.2483(31) 0.240(6)
C5_5 C 0.3162(17) 0.2174(27) 0.325(6)
C6_5 C 0.3202(18) 0.1893(28) 0.237(5)
H2_5 H 0.305(3) 0.215(5) 0.458(7)
C7_5 C 0.343(2) 0.2583(24) 0.094(6)
C8_5 C 0.3504(17) 0.2345(21) 0.009(6)
C9_5 C 0.3464(18) 0.2024(22) 0.097(5)
O2_5 O 0.347(2) 0.1737(23) 0.022(9)
C10_5 C 0.343(2) 0.0851(31) 0.094(6)
C11_5 C 0.3504(17) 0.1160(27) 0.009(6)
C12_5 C 0.3464(18) 0.1441(28) 0.097(5)
N9_8 N 0.2820(9) 0.3190(16) 0.707(4)
H3_5 H 0.361(3) 0.243(4) 0.876(7)
H4_5 H 0.361(3) 0.119(5) 0.876(7)
N10_8 N 0.2820(9) 0.9629(13) 0.707(4)
N10_9 N 0.0371(13) 0.3190(10) 0.707(4)
N2_6 N 0.9629(13) 0.2820(9) 0.293(4)
C1_6 C 0.9249(24) 0.2483(13) 0.240(6)
C2_6 C 0.9011(21) 0.2174(12) 0.325(6)
C3_6 C 0.8690(22) 0.1893(12) 0.237(5)
O1_6 O 0.8403(23) 0.1597(12) 0.312(9)
H1_6 H 0.909(4) 0.215(2) 0.458(7)
Cl2_9 Cl 0.999(1) 0.243(1) 0.500000
N4_6 N 0.7180(16) 0.0371(13) 0.293(4)
C4_6 C 0.7517(31) 0.0751(24) 0.240(6)
C5_6 C 0.7826(27) 0.0989(21) 0.325(6)
C6_6 C 0.8107(28) 0.1310(22) 0.237(5)
H2_6 H 0.785(5) 0.091(4) 0.458(7)
C7_6 C 0.7417(24) 0.0851(13) 0.094(6)
C8_6 C 0.7655(21) 0.1160(12) 0.009(6)
C9_6 C 0.7976(22) 0.1441(12) 0.097(5)
O2_6 O 0.8263(23) 0.1737(12) 0.022(9)
C10_6 C 0.9149(31) 0.2583(24) 0.094(6)
C11_6 C 0.8840(27) 0.2345(21) 0.009(6)
C12_6 C 0.8559(28) 0.2024(22) 0.097(5)
H3_6 H 0.757(4) 0.119(2) 0.876(7)
H4_6 H 0.881(5) 0.243(4) 0.876(7)
N9_9 N 0.6810(16) 0.9629(13) 0.707(4)
H3_7 H 0.243(4) 0.361(3) 0.124(7)
H4_7 H 0.119(5) 0.361(3) 0.124(7)
C1_7 C 0.0751(24) 0.323(2) 0.760(6)
C2_7 C 0.0989(21) 0.3162(17) 0.675(6)
C3_7 C 0.1310(22) 0.3202(18) 0.763(5)
O1_7 O 0.1597(23) 0.319(2) 0.688(9)
H1_7 H 0.091(4) 0.305(3) 0.542(7)
Cl2_10 Cl 0.001(1) 0.243(1) 0.500000
C4_7 C 0.2483(31) 0.323(2) 0.760(6)
C5_7 C 0.2174(27) 0.3162(17) 0.675(6)
C6_7 C 0.1893(28) 0.3202(18) 0.763(5)
H2_7 H 0.215(5) 0.305(3) 0.542(7)
C7_7 C 0.2583(24) 0.343(2) 0.906(6)
C8_7 C 0.2345(21) 0.3504(17) 0.991(6)
C9_7 C 0.2024(22) 0.3464(18) 0.903(5)
O2_7 O 0.1737(23) 0.347(2) 0.978(9)
C10_7 C 0.0851(31) 0.343(2) 0.906(6)
C11_7 C 0.1160(27) 0.3504(17) 0.991(6)
C12_7 C 0.1441(28) 0.3464(18) 0.903(5)
H3_8 H 0.639(3) 0.881(2) 0.124(7)
H4_8 H 0.639(3) 0.757(4) 0.124(7)
C1_8 C 0.677(2) 0.7517(13) 0.760(6)
C2_8 C 0.6838(17) 0.7826(12) 0.675(6)
C3_8 C 0.6798(18) 0.8107(12) 0.763(5)
O1_8 O 0.681(2) 0.8403(12) 0.688(9)
H1_8 H 0.695(3) 0.785(2) 0.542(7)
Cl2_11 Cl 0.757(1) 0.757(1) 0.500000
C4_8 C 0.677(2) 0.9249(24) 0.760(6)
C5_8 C 0.6838(17) 0.9011(21) 0.675(6)
C6_8 C 0.6798(18) 0.8690(22) 0.763(5)
H2_8 H 0.695(3) 0.909(4) 0.542(7)
C7_8 C 0.657(2) 0.9149(13) 0.906(6)
C8_8 C 0.6496(17) 0.8840(12) 0.991(6)
C9_8 C 0.6536(18) 0.8559(12) 0.903(5)
O2_8 O 0.653(2) 0.8263(12) 0.978(9)
C10_8 C 0.657(2) 0.7417(24) 0.906(6)
C11_8 C 0.6496(17) 0.7655(21) 0.991(6)
C12_8 C 0.6536(18) 0.7976(22) 0.903(5)
H3_9 H 0.119(2) 0.757(4) 0.124(7)
H4_9 H 0.243(4) 0.881(5) 0.124(7)
C1_9 C 0.2483(13) 0.9249(24) 0.760(6)
C2_9 C 0.2174(12) 0.9011(21) 0.675(6)
C3_9 C 0.1893(12) 0.8690(22) 0.763(5)
O1_9 O 0.1597(12) 0.8403(23) 0.688(9)
H1_9 H 0.215(2) 0.909(4) 0.542(7)
Cl2_12 Cl 0.243(1) 0.999(1) 0.500000
C4_9 C 0.0751(24) 0.7517(31) 0.760(6)
C5_9 C 0.0989(21) 0.7826(27) 0.675(6)
C6_9 C 0.1310(22) 0.8107(28) 0.763(5)
H2_9 H 0.091(4) 0.785(5) 0.542(7)
C7_9 C 0.0851(13) 0.7417(24) 0.906(6)
C8_9 C 0.1160(12) 0.7655(21) 0.991(6)
C9_9 C 0.1441(12) 0.7976(22) 0.903(5)
O2_9 O 0.1737(12) 0.8263(23) 0.978(9)
C10_9 C 0.2583(24) 0.9149(31) 0.906(6)
C11_9 C 0.2345(21) 0.8840(27) 0.991(6)
C12_9 C 0.2024(22) 0.8559(28) 0.903(5)
Cl2_13 Cl 0.091(1) 0.423(1) 0.166666
Cl2_14 Cl 0.577(1) 0.667(1) 0.166666
Cl2_15 Cl 0.333(1) 0.909(1) 0.166666
Cl2_16 Cl 0.667(1) 0.577(1) 0.833334
Cl2_17 Cl 0.423(1) 0.091(1) 0.833334
Cl2_18 Cl 0.909(1) 0.333(1) 0.833334
Cl2_19 Cl 0.576(1) 0.910(1) 0.166667
Cl2_20 Cl 0.090(1) 0.666(1) 0.166667
Cl2_21 Cl 0.334(1) 0.424(1) 0.166667
Cl2_22 Cl 0.666(1) 0.090(1) 0.833333
Cl2_23 Cl 0.910(1) 0.576(1) 0.833333
Cl2_24 Cl 0.424(1) 0.334(1) 0.833333
Cl2_25 Cl 0.243(1) 0.243(1) 0.500000
Cl2_26 Cl 0.757(1) 0.999(1) 0.500000
Cl2_27 Cl 0.001(1) 0.757(1) 0.500000
Cl2_28 Cl 0.999(1) 0.757(1) 0.500000
Cl2_29 Cl 0.243(1) 0.243(1) 0.500000
Cl2_30 Cl 0.757(1) 0.001(1) 0.500000
Cl2_31 Cl 0.909(1) 0.577(1) 0.833334
Cl2_32 Cl 0.423(1) 0.333(1) 0.833334
Cl2_33 Cl 0.667(1) 0.091(1) 0.833334
Cl2_34 Cl 0.333(1) 0.423(1) 0.166666
Cl2_35 Cl 0.577(1) 0.909(1) 0.166666
Cl2_36 Cl 0.091(1) 0.667(1) 0.166666
loop_
_geom_bond_atom_site_label_1
_geom_bond_atom_site_label_2
_geom_bond_site_symmetry_1
_geom_bond_site_symmetry_2
V1 Cl1_2 1_555 1_555
N1 N2 1_555 1_555
N2 V1 1_555 1_555
C1 N2 1_555 1_555
C2 C1 1_555 1_555
C3 C2 1_555 1_555
O1 C3 1_555 1_555
H1 C2 1_555 1_555
Cl2 V1 1_555 1_555
N3 N4 1_555 1_555
N4 C4 1_555 1_555
C4 C5 1_555 1_555
C5 C6 1_555 1_555
C6 O1 1_555 1_555
H2 C5 1_555 1_555
V2 N4 1_555 1_555
Cl3_2 V2 1_555 1_555
V7 N1 1_555 1_555
V8 N3 1_555 1_555
Cl4 V1 1_555 1_555
Cl5 V2 1_555 1_555
V7 Cl4 1_555 1_555
V8 Cl5 1_555 1_555
Cl1_3 V6 1_555 1_555
V4 Cl3_3 1_555 1_555
N5 N3_2 1_555 1_555
C8 C7 1_555 1_555
O2 C9 1_555 1_555
H3 C8 1_555 1_555
N6 N1_2 1_555 1_555
C11 C10 1_555 1_555
H4 C11 1_555 1_555
V4 N5 1_555 1_555
V6 N6 1_555 1_555
N5 C7 1_555 1_555
C8 C9 1_555 1_555
O2 C12 1_555 1_555
N6 C10 1_555 1_555
C11 C12 1_555 1_555
Cl1_5 V6_2 1_555 1_555
V4_2 Cl3_5 1_555 1_555
N5_2 N3_3 1_555 1_555
C8_2 C7_2 1_555 1_555
O2_2 C9_2 1_555 1_555
H3_2 C8_2 1_555 1_555
N6_2 N1_3 1_555 1_555
C11_2 C10_2 1_555 1_555
H4_2 C11_2 1_555 1_555
V4_2 N5_2 1_555 1_555
V6_2 N6_2 1_555 1_555
N5_2 C7_2 1_555 1_555
C8_2 C9_2 1_555 1_555
O2_2 C12_2 1_555 1_555
N6_2 C10_2 1_555 1_555
C11_2 C12_2 1_555 1_555
V1_2 Cl1_8 1_555 1_555
N1_4 N2_2 1_555 1_555
N2_2 V1_2 1_555 1_555
C1_2 N2_2 1_555 1_555
C2_2 C1_2 1_555 1_555
C3_2 C2_2 1_555 1_555
O1_2 C3_2 1_555 1_555
H1_2 C2_2 1_555 1_555
Cl2_2 V1_2 1_555 1_555
N3_4 N4_2 1_555 1_555
N4_2 C4_2 1_555 1_555
C4_2 C5_2 1_555 1_555
C5_2 C6_2 1_555 1_555
C6_2 O1_2 1_555 1_555
H2_2 C5_2 1_555 1_555
V2_2 N4_2 1_555 1_555
Cl3_8 V2_2 1_555 1_555
V7_2 N1_4 1_555 1_555
V8_2 N3_4 1_555 1_555
Cl4_2 V1_2 1_555 1_555
Cl5_2 V2_2 1_555 1_555
V7_2 Cl4_2 1_555 1_555
V8_2 Cl5_2 1_555 1_555
Cl1_9 V6_3 1_555 1_555
V4_3 Cl3_9 1_555 1_555
V1_3 Cl1_10 1_555 1_555
N1_5 N2_3 1_555 1_555
N2_3 V1_3 1_555 1_555
C1_3 N2_3 1_555 1_555
C2_3 C1_3 1_555 1_555
C3_3 C2_3 1_555 1_555
O1_3 C3_3 1_555 1_555
H1_3 C2_3 1_555 1_555
Cl2_3 V1_3 1_555 1_555
N3_5 N4_3 1_555 1_555
N4_3 C4_3 1_555 1_555
C4_3 C5_3 1_555 1_555
C5_3 C6_3 1_555 1_555
C6_3 O1_3 1_555 1_555
H2_3 C5_3 1_555 1_555
N5_3 N3_5 1_555 1_555
C7_3 C4_3 1_555 1_555
C8_3 C7_3 1_555 1_555
C9_3 C6_3 1_555 1_555
O2_3 C9_3 1_555 1_555
H3_3 C8_3 1_555 1_555
N6_3 N1_5 1_555 1_555
C10_3 C1_3 1_555 1_555
C11_3 C10_3 1_555 1_555
C12_3 C3_3 1_555 1_555
H4_3 C11_3 1_555 1_555
V2_3 N4_3 1_555 1_555
Cl3_10 V2_3 1_555 1_555
V4_3 N5_3 1_555 1_555
V6_3 N6_3 1_555 1_555
V7_3 N1_5 1_555 1_555
V8_3 N3_5 1_555 1_555
Cl4_3 V1_3 1_555 1_555
Cl5_3 V2_3 1_555 1_555
N7_3 V2_3 1_555 1_555
N8_3 V1_3 1_555 1_555
N5_3 C7_3 1_555 1_555
C8_3 C9_3 1_555 1_555
O2_3 C12_3 1_555 1_555
N6_3 C10_3 1_555 1_555
C11_3 C12_3 1_555 1_555
V7_3 Cl4_3 1_555 1_555
V8_3 Cl5_3 1_555 1_555
Cl2_4 V6 1_555 1_555
V7_4 N1_2 1_555 1_555
V8_4 N3_2 1_555 1_555
Cl4_4 V6 1_555 1_555
Cl5_4 V4 1_555 1_555
V7_4 Cl4_4 1_555 1_555
V8_4 Cl5_4 1_555 1_555
Cl2_5 V6_2 1_555 1_555
V7_5 N1_3 1_555 1_555
V8_5 N3_3 1_555 1_555
Cl4_5 V6_2 1_555 1_555
Cl5_5 V4_2 1_555 1_555
V7_5 Cl4_5 1_555 1_555
V8_5 Cl5_5 1_555 1_555
Cl2_6 V6_3 1_555 1_555
Cl4_6 V6_3 1_555 1_555
Cl5_6 V4_3 1_555 1_555
N7_6 V4_3 1_555 1_555
N8_6 V6_3 1_555 1_555
V7_3 Cl4_6 1_555 1_555
V8_3 Cl5_6 1_555 1_555
N8_6 N2_4 1_555 1_555
N2_4 V7_3 1_555 1_555
C1_4 N2_4 1_555 1_555
C2_4 C1_4 1_555 1_555
C3_4 C2_4 1_555 1_555
O1_4 C3_4 1_555 1_555
H1_4 C2_4 1_555 1_555
Cl2_7 V7_3 1_555 1_555
N7_5 N4_4 1_555 1_555
N4_4 C4_4 1_555 1_555
C4_4 C5_4 1_555 1_555
C5_4 C6_4 1_555 1_555
C6_4 O1_4 1_555 1_555
H2_4 C5_4 1_555 1_555
N9_2 N7_5 1_555 1_555
C7_4 C4_4 1_555 1_555
C8_4 C7_4 1_555 1_555
C9_4 C6_4 1_555 1_555
O2_4 C9_4 1_555 1_555
N10_3 N8_6 1_555 1_555
C10_4 C1_4 1_555 1_555
C11_4 C10_4 1_555 1_555
C12_4 C3_4 1_555 1_555
V8_2 N4_4 1_555 1_555
N10_7 V7_3 1_555 1_555
N9_2 C7_4 1_555 1_555
C8_4 C9_4 1_555 1_555
O2_4 C12_4 1_555 1_555
N10_3 C10_4 1_555 1_555
C11_4 C12_4 1_555 1_555
N8_4 N2_5 1_555 1_555
N2_5 V7 1_555 1_555
C1_5 N2_5 1_555 1_555
C2_5 C1_5 1_555 1_555
C3_5 C2_5 1_555 1_555
O1_5 C3_5 1_555 1_555
H1_5 C2_5 1_555 1_555
Cl2_8 V7 1_555 1_555
N7_6 N4_5 1_555 1_555
N4_5 C4_5 1_555 1_555
C4_5 C5_5 1_555 1_555
C5_5 C6_5 1_555 1_555
C6_5 O1_5 1_555 1_555
H2_5 C5_5 1_555 1_555
N9_3 N7_6 1_555 1_555
C7_5 C4_5 1_555 1_555
C8_5 C7_5 1_555 1_555
C9_5 C6_5 1_555 1_555
O2_5 C9_5 1_555 1_555
N10 N8_4 1_555 1_555
C10_5 C1_5 1_555 1_555
C11_5 C10_5 1_555 1_555
C12_5 C3_5 1_555 1_555
V8_3 N4_5 1_555 1_555
N9_8 V8_3 1_555 1_555
N9_3 C7_5 1_555 1_555
C8_5 C9_5 1_555 1_555
O2_5 C12_5 1_555 1_555
N10 C10_5 1_555 1_555
C11_5 C12_5 1_555 1_555
N8_5 N2_6 1_555 1_555
N2_6 V7_2 1_555 1_555
C1_6 N2_6 1_555 1_555
C2_6 C1_6 1_555 1_555
C3_6 C2_6 1_555 1_555
O1_6 C3_6 1_555 1_555
H1_6 C2_6 1_555 1_555
Cl2_9 V7_2 1_555 1_555
N7_4 N4_6 1_555 1_555
N4_6 C4_6 1_555 1_555
C4_6 C5_6 1_555 1_555
C5_6 C6_6 1_555 1_555
C6_6 O1_6 1_555 1_555
H2_6 C5_6 1_555 1_555
N9 N7_4 1_555 1_555
C7_6 C4_6 1_555 1_555
C8_6 C7_6 1_555 1_555
C9_6 C6_6 1_555 1_555
O2_6 C9_6 1_555 1_555
N10_2 N8_5 1_555 1_555
C10_6 C1_6 1_555 1_555
C11_6 C10_6 1_555 1_555
C12_6 C3_6 1_555 1_555
V8 N4_6 1_555 1_555
N9 C7_6 1_555 1_555
C8_6 C9_6 1_555 1_555
O2_6 C12_6 1_555 1_555
N10_2 C10_6 1_555 1_555
C11_6 C12_6 1_555 1_555
N8_2 N10_9 1_555 1_555
N10_9 V7_5 1_555 1_555
C1_7 N10_9 1_555 1_555
C2_7 C1_7 1_555 1_555
C3_7 C2_7 1_555 1_555
O1_7 C3_7 1_555 1_555
H1_7 C2_7 1_555 1_555
Cl2_10 V7_5 1_555 1_555
N7_3 N9_8 1_555 1_555
N9_8 C4_7 1_555 1_555
C4_7 C5_7 1_555 1_555
C5_7 C6_7 1_555 1_555
C6_7 O1_7 1_555 1_555
H2_7 C5_7 1_555 1_555
N9_6 N7_3 1_555 1_555
C7_7 C4_7 1_555 1_555
C8_7 C7_7 1_555 1_555
C9_7 C6_7 1_555 1_555
O2_7 C9_7 1_555 1_555
N10_5 N8_2 1_555 1_555
C10_7 C1_7 1_555 1_555
C11_7 C10_7 1_555 1_555
C12_7 C3_7 1_555 1_555
N9_6 C7_7 1_555 1_555
C8_7 C9_7 1_555 1_555
O2_7 C12_7 1_555 1_555
N10_5 C10_7 1_555 1_555
C11_7 C12_7 1_555 1_555
N8_3 N10_7 1_555 1_555
C1_8 N10_7 1_555 1_555
C2_8 C1_8 1_555 1_555
C3_8 C2_8 1_555 1_555
O1_8 C3_8 1_555 1_555
H1_8 C2_8 1_555 1_555
Cl2_11 V7_3 1_555 1_555
N7 N9_9 1_555 1_555
N9_9 C4_8 1_555 1_555
C4_8 C5_8 1_555 1_555
C5_8 C6_8 1_555 1_555
C6_8 O1_8 1_555 1_555
H2_8 C5_8 1_555 1_555
N9_4 N7 1_555 1_555
C7_8 C4_8 1_555 1_555
C8_8 C7_8 1_555 1_555
C9_8 C6_8 1_555 1_555
O2_8 C9_8 1_555 1_555
N10_6 N8_3 1_555 1_555
C10_8 C1_8 1_555 1_555
C11_8 C10_8 1_555 1_555
C12_8 C3_8 1_555 1_555
V8_4 N9_9 1_555 1_555
N9_4 C7_8 1_555 1_555
C8_8 C9_8 1_555 1_555
O2_8 C12_8 1_555 1_555
N10_6 C10_8 1_555 1_555
C11_8 C12_8 1_555 1_555
N8 N10_8 1_555 1_555
N10_8 V7_4 1_555 1_555
C1_9 N10_8 1_555 1_555
C2_9 C1_9 1_555 1_555
C3_9 C2_9 1_555 1_555
O1_9 C3_9 1_555 1_555
H1_9 C2_9 1_555 1_555
Cl2_12 V7_4 1_555 1_555
N7_2 N9_7 1_555 1_555
N9_7 C4_9 1_555 1_555
C4_9 C5_9 1_555 1_555
C5_9 C6_9 1_555 1_555
C6_9 O1_9 1_555 1_555
H2_9 C5_9 1_555 1_555
N9_5 N7_2 1_555 1_555
C7_9 C4_9 1_555 1_555
C8_9 C7_9 1_555 1_555
C9_9 C6_9 1_555 1_555
O2_9 C9_9 1_555 1_555
N10_4 N8 1_555 1_555
C10_9 C1_9 1_555 1_555
C11_9 C10_9 1_555 1_555
C12_9 C3_9 1_555 1_555
V8_5 N9_7 1_555 1_555
N9_5 C7_9 1_555 1_555
C8_9 C9_9 1_555 1_555
O2_9 C12_9 1_555 1_555
N10_4 C10_9 1_555 1_555
C11_9 C12_9 1_555 1_555
Cl2_13 V6_2 1_555 1_555
Cl2_14 V6_3 1_555 1_555
Cl2_15 V6 1_555 1_555
Cl2_16 V1_3 1_555 1_555
Cl2_17 V1 1_555 1_555
Cl2_18 V1_2 1_555 1_555
Cl2_19 V4 1_555 1_555
Cl2_20 V4_2 1_555 1_555
Cl2_21 V4_3 1_555 1_555
Cl2_22 V2 1_555 1_555
Cl2_23 V2_2 1_555 1_555
Cl2_24 V2_3 1_555 1_555
Cl2_25 V8_3 1_555 1_555
Cl2_26 V8_4 1_555 1_555
Cl2_27 V8_5 1_555 1_555
Cl2_28 V8_2 1_555 1_555
Cl2_29 V8_3 1_555 1_555
Cl2_30 V8 1_555 1_555
Cl2_31 V2_2 1_555 1_555
Cl2_32 V2_3 1_555 1_555
Cl2_33 V2 1_555 1_555
Cl2_34 V4_3 1_555 1_555
Cl2_35 V4 1_555 1_555
Cl2_36 V4_2 1_555 1_555

#END
