
###############################################################################
#
# This file contains modified crystal structure data generated from the
# MOF subset of the Cambridge Structural Database (CSD) v543 
# hosted by the Cambridge Crystallographic Data Centre (CCDC).
#
# This work is licensed under the Creative Commons
# Attribution-NonCommercial-ShareAlike 4.0 International License.
# To view a copy of this license, visit
# http://creativecommons.org/licenses/by-nc-sa/4.0/
# or send a letter to
# Creative Commons, PO Box 1866, Mountain View, CA 94042, USA.
#
# CIF created using the CSD Python API on 29 September 2022
# The structure has been converted into the P1 space group
# The structure has a 3D framework
# The original CSD entry OQIQUB01 is in the tetragonal crystal system
# The framework has been calculated to contain at least 10.0% void space
# The void calculation uses a probe of radius 1.32A, grid spacing 0.4
# The framework is charged, counterions have been retained in the structure
# H atom positions have been added when not included in the experimental data
# Generated hydrogen atom positions removed from atoms on special positions
#
###############################################################################

data_OQIQUB01
_chemical_formula_moiety         '(C288 H448 Cu22 N156 O70 20+)n'
_symmetry_cell_setting           triclinic
_symmetry_space_group_name_H-M   'P 1'
_symmetry_Int_Tables_number      1
_space_group_name_Hall           'P 1'
loop_
_symmetry_equiv_pos_site_id
_symmetry_equiv_pos_as_xyz
1 x,y,z
_cell_length_a                   23.0648(13)
_cell_length_b                   23.0648(13)
_cell_length_c                   19.9962(18)
_cell_angle_alpha                90
_cell_angle_beta                 90
_cell_angle_gamma                90
_cell_volume                     10637.7
loop_
_atom_site_label
_atom_site_type_symbol
_atom_site_fract_x
_atom_site_fract_y
_atom_site_fract_z
Cu1 Cu 0.0000 0.0000 0.15834(3)
Cu2 Cu 0.25815(3) 0.48215(2) 0.0000
N1 N 0.05748(6) 0.06422(6) 0.15360(8)
N2 N 0.10019(7) 0.14533(6) 0.12962(8)
C1 C 0.19752(9) 0.25808(8) 0.14859(9)
N3 N 0.29335(7) 0.36327(8) 0.14817(8)
C2 C 0.21745(8) 0.30088(8) 0.19331(9)
C3 C 0.13870(8) 0.24456(8) 0.14698(9)
N4 N 0.13419(8) 0.12087(7) 0.17684(9)
C4 C 0.17978(9) 0.33057(8) 0.23472(10)
C5 C 0.05550(8) 0.11214(8) 0.11599(10)
H1 H 0.0268 0.1207 0.0849
C6 C 0.28054(9) 0.31513(9) 0.19577(10)
H2 H 0.2912 0.3267 0.2408
H3 H 0.3031 0.2812 0.1839
C7 C 0.12064(10) 0.31568(9) 0.23351(11)
C8 C 0.11657(9) 0.20021(8) 0.09783(10)
H4 H 0.0831 0.2160 0.0747
H5 H 0.1464 0.1927 0.0647
N5 N 0.28793(9) 0.42859(8) 0.07125(8)
C9 C 0.10641(9) 0.07205(9) 0.18922(11)
H6 H 0.1196 0.0451 0.2202
C10 C 0.26040(11) 0.38900(9) 0.10387(11)
N6 N 0.07003(10) 0.30885(12) 0.34202(10)
C11 C 0.19920(12) 0.38000(10) 0.27756(12)
H7 H 0.1881 0.4159 0.2570
H8 H 0.2406 0.3788 0.2824
H9 H 0.1814 0.3770 0.3208
C12 C 0.23888(10) 0.22841(11) 0.10121(11)
H10 H 0.2193 0.1971 0.0791
H11 H 0.2714 0.2135 0.1258
H12 H 0.2523 0.2558 0.0685
C13 C 0.10056(9) 0.27282(9) 0.19090(11)
N7 N 0.34538(11) 0.38629(13) 0.14356(13)
C14 C 0.07887(12) 0.34640(12) 0.27902(14)
H13 H 0.0421 0.3522 0.2564
H14 H 0.0942 0.3840 0.2914
C15 C 0.02701(11) 0.30292(13) 0.37996(14)
C16 C 0.03546(11) 0.25452(12) 0.19076(17)
H16 H 0.0200 0.2579 0.2352
H17 H 0.0322 0.2151 0.1759
H18 H 0.0141 0.2793 0.1611
C17 C 0.34113(13) 0.42536(15) 0.09539(14)
N8 N 0.11312(13) 0.27333(19) 0.36530(17)
C18 C 0.08721(15) 0.2509(2) 0.41863(19)
H19 H 0.1044 0.2230 0.4458
O1 O 0.0000 0.0000 0.2923(3)
N9 N 0.03472(9) 0.27170(13) 0.42958(10)
O2 O 0.35053(17) 0.53516(14) 0.0000
O3 O 0.16434(16) 0.4301(2) 0.0000
Cu5 Cu 0.5000 0.5000 0.34166(3)
Cu12 Cu 0.24185(3) 0.01785(2) 0.5000
Cu15 Cu 0.01785(2) 0.75815(3) 0.5000
N15 N 0.43578(6) 0.55748(6) 0.34640(8)
N24 N 0.35467(6) 0.60019(7) 0.37038(8)
C24 C 0.24192(8) 0.69752(9) 0.35141(9)
N31 N 0.13673(8) 0.79335(7) 0.35183(8)
C31 C 0.19912(8) 0.71745(8) 0.30669(9)
C38 C 0.25544(8) 0.63870(8) 0.35302(9)
N38 N 0.37913(7) 0.63419(8) 0.32316(9)
C45 C 0.16943(8) 0.67978(9) 0.26528(10)
C52 C 0.38786(8) 0.55550(8) 0.38401(10)
H25 H 0.3793 0.5268 0.4151
C59 C 0.18487(9) 0.78054(9) 0.30423(10)
H32 H 0.1733 0.7912 0.2592
H39 H 0.2188 0.8031 0.3161
C66 C 0.18432(9) 0.62064(10) 0.26649(11)
C73 C 0.29979(8) 0.61657(9) 0.40217(10)
H46 H 0.2840 0.5831 0.4253
H53 H 0.3073 0.6464 0.4353
N45 N 0.07141(8) 0.78793(9) 0.42875(8)
C80 C 0.42795(9) 0.60641(9) 0.31078(11)
H60 H 0.4549 0.6196 0.2798
C87 C 0.11100(9) 0.76040(11) 0.39613(11)
N54 N 0.19115(12) 0.57003(10) 0.15798(10)
C94 C 0.12000(10) 0.69920(12) 0.22244(12)
H67 H 0.0841 0.6881 0.2430
H74 H 0.1212 0.7406 0.2176
H81 H 0.1230 0.6814 0.1792
C101 C 0.27159(11) 0.73888(10) 0.39879(11)
H88 H 0.3029 0.7193 0.4209
H95 H 0.2865 0.7714 0.3742
H102 H 0.2442 0.7523 0.4315
C108 C 0.22718(9) 0.60056(9) 0.30910(11)
N61 N 0.11371(13) 0.84538(11) 0.35644(13)
C115 C 0.15360(12) 0.57887(12) 0.22098(14)
H109 H 0.1478 0.5421 0.2436
H116 H 0.1160 0.5942 0.2086
C122 C 0.19708(13) 0.52701(11) 0.12004(14)
H120 H 0.3208 0.0083 0.3713
H123 H 0.1792 0.4917 0.1287
C129 C 0.24548(12) 0.53546(11) 0.30924(17)
H130 H 0.2421 0.5200 0.2648
H137 H 0.2849 0.5322 0.3241
H144 H 0.2207 0.5141 0.3389
C136 C 0.07464(15) 0.84113(13) 0.40461(14)
N68 N 0.22667(19) 0.61312(13) 0.13470(17)
C143 C 0.2491(2) 0.58721(15) 0.08137(19)
H151 H 0.2770 0.6044 0.0542
N75 N 0.22830(13) 0.53472(9) 0.07042(10)
H153 H 0.377192 0.451717 0.0777424
H154 H 0.215005 0.378212 0.0955419
H155 H 0.146619 0.43246 0.0451756
H165 H 0.121788 0.715005 0.404458
H174 H 0.048283 0.877192 0.422258
Cu2_2 Cu 0.25815(3) 0.48215(2) 1.0000
O2_2 O 0.35053(17) 0.53516(14) 1.0000
O3_2 O 0.16434(16) 0.4301(2) 1.0000
Cu3 Cu 0.0000 0.0000 0.84166(3)
Cu4 Cu 0.5000 0.5000 0.65834(3)
N13 N 0.05748(6) 0.06422(6) 0.84640(8)
N14 N 0.43578(6) 0.55748(6) 0.65360(8)
N22 N 0.10019(7) 0.14533(6) 0.87038(8)
N23 N 0.35467(6) 0.60019(7) 0.62962(8)
C22 C 0.19752(9) 0.25808(8) 0.85141(9)
C23 C 0.24192(8) 0.69752(9) 0.64859(9)
N29 N 0.29335(7) 0.36327(8) 0.85183(8)
N30 N 0.13673(8) 0.79335(7) 0.64817(8)
C29 C 0.21745(8) 0.30088(8) 0.80669(9)
C30 C 0.19912(8) 0.71745(8) 0.69331(9)
C36 C 0.13870(8) 0.24456(8) 0.85302(9)
C37 C 0.25544(8) 0.63870(8) 0.64698(9)
N36 N 0.13419(8) 0.12087(7) 0.82316(9)
N37 N 0.37913(7) 0.63419(8) 0.67684(9)
C43 C 0.17978(9) 0.33057(8) 0.76528(10)
C44 C 0.16943(8) 0.67978(9) 0.73472(10)
C50 C 0.05550(8) 0.11214(8) 0.88401(10)
C51 C 0.38786(8) 0.55550(8) 0.61599(10)
H23 H 0.0268 0.1207 0.9151
H24 H 0.3793 0.5268 0.5849
C57 C 0.28054(9) 0.31513(9) 0.80423(10)
C58 C 0.18487(9) 0.78054(9) 0.69577(10)
H30 H 0.2912 0.3267 0.7592
H31 H 0.1733 0.7912 0.7408
H37 H 0.3031 0.2812 0.8161
H38 H 0.2188 0.8031 0.6839
C64 C 0.12064(10) 0.31568(9) 0.76649(11)
C65 C 0.18432(9) 0.62064(10) 0.73351(11)
C71 C 0.11657(9) 0.20021(8) 0.90217(10)
C72 C 0.29979(8) 0.61657(9) 0.59783(10)
H44 H 0.0831 0.2160 0.9253
H45 H 0.2840 0.5831 0.5747
H51 H 0.1464 0.1927 0.9353
H52 H 0.3073 0.6464 0.5647
N43 N 0.28793(9) 0.42859(8) 0.92875(8)
N44 N 0.07141(8) 0.78793(9) 0.57125(8)
C78 C 0.10641(9) 0.07205(9) 0.81078(11)
C79 C 0.42795(9) 0.60641(9) 0.68922(11)
H58 H 0.1196 0.0451 0.7798
H59 H 0.4549 0.6196 0.7202
C85 C 0.26040(11) 0.38900(9) 0.89613(11)
C86 C 0.11100(9) 0.76040(11) 0.60387(11)
N52 N 0.07003(10) 0.30885(12) 0.65798(10)
N53 N 0.19115(12) 0.57003(10) 0.84202(10)
C92 C 0.19920(12) 0.38000(10) 0.72244(12)
C93 C 0.12000(10) 0.69920(12) 0.77756(12)
H65 H 0.1881 0.4159 0.7430
H66 H 0.0841 0.6881 0.7570
H72 H 0.2406 0.3788 0.7176
H73 H 0.1212 0.7406 0.7824
H79 H 0.1814 0.3770 0.6792
H80 H 0.1230 0.6814 0.8208
C99 C 0.23888(10) 0.22841(11) 0.89879(11)
C100 C 0.27159(11) 0.73888(10) 0.60121(11)
H86 H 0.2193 0.1971 0.9209
H87 H 0.3029 0.7193 0.5791
H93 H 0.2714 0.2135 0.8742
H94 H 0.2865 0.7714 0.6258
H100 H 0.2523 0.2558 0.9315
H101 H 0.2442 0.7523 0.5685
C106 C 0.10056(9) 0.27282(9) 0.80910(11)
C107 C 0.22718(9) 0.60056(9) 0.69090(11)
N59 N 0.34538(11) 0.38629(13) 0.85644(13)
N60 N 0.11371(13) 0.84538(11) 0.64356(13)
C113 C 0.07887(12) 0.34640(12) 0.72098(14)
C114 C 0.15360(12) 0.57887(12) 0.77902(14)
H107 H 0.0421 0.3522 0.7436
H108 H 0.1478 0.5421 0.7564
H114 H 0.0942 0.3840 0.7086
H115 H 0.1160 0.5942 0.7914
C120 C 0.02701(11) 0.30292(13) 0.62004(14)
C121 C 0.19708(13) 0.52701(11) 0.87996(14)
H122 H 0.1792 0.4917 0.8713
C127 C 0.03546(11) 0.25452(12) 0.80924(17)
C128 C 0.24548(12) 0.53546(11) 0.69076(17)
H128 H 0.0200 0.2579 0.7648
H129 H 0.2421 0.5200 0.7352
H135 H 0.0322 0.2151 0.8241
H136 H 0.2849 0.5322 0.6759
H142 H 0.0141 0.2793 0.8389
H143 H 0.2207 0.5141 0.6611
C134 C 0.34113(13) 0.42536(15) 0.90461(14)
C135 C 0.07464(15) 0.84113(13) 0.59539(14)
N66 N 0.11312(13) 0.27333(19) 0.63470(17)
N67 N 0.22667(19) 0.61312(13) 0.86530(17)
C141 C 0.08721(15) 0.2509(2) 0.58137(19)
C142 C 0.2491(2) 0.58721(15) 0.91863(19)
H149 H 0.1044 0.2230 0.5542
H150 H 0.2770 0.6044 0.9458
O4 O 0.0000 0.0000 0.7077(3)
N73 N 0.03472(9) 0.27170(13) 0.57042(10)
N74 N 0.22830(13) 0.53472(9) 0.92958(10)
H156 H 0.137922 0.448135 0.966763
H157 H 0.382512 0.50826 0.988064
H158 H 0.34875 0.567097 0.966761
H161 H 0.121788 0.715005 0.595542
H163 H 0.215005 0.378212 0.904458
H173 H 0.377192 0.451717 0.922258
H175 H 0.048283 0.877192 0.577742
Cu1_2 Cu 0.0000 1.0000 0.15834(3)
O1_2 O 0.0000 1.0000 0.2923(3)
Cu8 Cu 0.48215(2) 0.74185(3) 0.0000
N12 N 0.06422(6) 0.94252(6) 0.15360(8)
N21 N 0.14533(6) 0.89981(7) 0.12962(8)
C21 C 0.25808(8) 0.80248(9) 0.14859(9)
N28 N 0.36327(8) 0.70665(7) 0.14817(8)
C28 C 0.30088(8) 0.78255(8) 0.19331(9)
C35 C 0.24456(8) 0.86130(8) 0.14698(9)
N35 N 0.12087(7) 0.86581(8) 0.17684(9)
C42 C 0.33057(8) 0.82022(9) 0.23472(10)
C49 C 0.11214(8) 0.94450(8) 0.11599(10)
H22 H 0.1207 0.9732 0.0849
C56 C 0.31513(9) 0.71946(9) 0.19577(10)
H29 H 0.3267 0.7088 0.2408
H36 H 0.2812 0.6969 0.1839
C63 C 0.31568(9) 0.87936(10) 0.23351(11)
C70 C 0.20021(8) 0.88343(9) 0.09783(10)
H43 H 0.2160 0.9169 0.0747
H50 H 0.1927 0.8536 0.0647
N42 N 0.42859(8) 0.71207(9) 0.07125(8)
C77 C 0.07205(9) 0.89359(9) 0.18922(11)
H57 H 0.0451 0.8804 0.2202
C84 C 0.38900(9) 0.73960(11) 0.10387(11)
N51 N 0.30885(12) 0.92997(10) 0.34202(10)
C91 C 0.38000(10) 0.80080(12) 0.27756(12)
H64 H 0.4159 0.8119 0.2570
H71 H 0.3788 0.7594 0.2824
H78 H 0.3770 0.8186 0.3208
C98 C 0.22841(11) 0.76112(10) 0.10121(11)
H85 H 0.1971 0.7807 0.0791
H92 H 0.2135 0.7286 0.1258
H99 H 0.2558 0.7477 0.0685
C105 C 0.27282(9) 0.89944(9) 0.19090(11)
N58 N 0.38629(13) 0.65462(11) 0.14356(13)
C112 C 0.34640(12) 0.92113(12) 0.27902(14)
H106 H 0.3522 0.9579 0.2564
H113 H 0.3840 0.9058 0.2914
C119 C 0.30292(13) 0.97299(11) 0.37996(14)
H119 H 0.0083 0.6792 0.3713
C126 C 0.25452(12) 0.96454(11) 0.19076(17)
H127 H 0.2579 0.9800 0.2352
H134 H 0.2151 0.9678 0.1759
H141 H 0.2793 0.9859 0.1611
C133 C 0.42536(15) 0.65887(13) 0.09539(14)
N65 N 0.27333(19) 0.88688(13) 0.36530(17)
C140 C 0.2509(2) 0.91279(15) 0.41863(19)
H148 H 0.2230 0.8956 0.4458
N72 N 0.27170(13) 0.96528(9) 0.42958(10)
N82 N 0.53472(9) 0.77170(13) 0.07042(10)
O7 O 0.53516(14) 0.64947(17) 0.0000
O10 O 0.4301(2) 0.83566(16) 0.0000
H167 H 0.378212 0.784995 0.0955419
H172 H 0.451717 0.622808 0.0777424
H184 H 0.43246 0.853381 0.0451756
Cu3_2 Cu 0.0000 1.0000 0.84166(3)
Cu8_2 Cu 0.48215(2) 0.74185(3) 1.0000
N18 N 0.06422(6) 0.94252(6) 0.84640(8)
N48 N 0.42859(8) 0.71207(9) 0.92875(8)
O4_2 O 0.0000 1.0000 0.7077(3)
N81 N 0.53472(9) 0.77170(13) 0.92958(10)
O7_2 O 0.53516(14) 0.64947(17) 1.0000
O10_2 O 0.4301(2) 0.83566(16) 1.0000
H182 H 0.50826 0.617488 0.988064
H183 H 0.567097 0.65125 0.966761
H185 H 0.448135 0.862078 0.966763
Cu1_3 Cu 1.0000 0.0000 0.15834(3)
H15 H 0.9917 0.3208 0.3713
O1_3 O 1.0000 0.0000 0.2923(3)
Cu6 Cu 0.51785(2) 0.25815(3) 0.0000
Cu9 Cu 0.98215(2) 0.24185(3) 0.5000
N10 N 0.93578(6) 0.05748(6) 0.15360(8)
N19 N 0.85467(6) 0.10019(7) 0.12962(8)
C19 C 0.74192(8) 0.19752(9) 0.14859(9)
N26 N 0.63673(8) 0.29335(7) 0.14817(8)
C26 C 0.69912(8) 0.21745(8) 0.19331(9)
C33 C 0.75544(8) 0.13870(8) 0.14698(9)
N33 N 0.87913(7) 0.13419(8) 0.17684(9)
C40 C 0.66943(8) 0.17978(9) 0.23472(10)
C47 C 0.88786(8) 0.05550(8) 0.11599(10)
H20 H 0.8793 0.0268 0.0849
C54 C 0.68487(9) 0.28054(9) 0.19577(10)
H27 H 0.6733 0.2912 0.2408
H34 H 0.7188 0.3031 0.1839
C61 C 0.68432(9) 0.12064(10) 0.23351(11)
C68 C 0.79979(8) 0.11657(9) 0.09783(10)
H41 H 0.7840 0.0831 0.0747
H48 H 0.8073 0.1464 0.0647
N40 N 0.57141(8) 0.28793(9) 0.07125(8)
C75 C 0.92795(9) 0.10641(9) 0.18922(11)
H55 H 0.9549 0.1196 0.2202
C82 C 0.61100(9) 0.26040(11) 0.10387(11)
N49 N 0.69115(12) 0.07003(10) 0.34202(10)
C89 C 0.62000(10) 0.19920(12) 0.27756(12)
H62 H 0.5841 0.1881 0.2570
H69 H 0.6212 0.2406 0.2824
H76 H 0.6230 0.1814 0.3208
C96 C 0.77159(11) 0.23888(10) 0.10121(11)
H83 H 0.8029 0.2193 0.0791
H90 H 0.7865 0.2714 0.1258
H97 H 0.7442 0.2523 0.0685
C103 C 0.72718(9) 0.10056(9) 0.19090(11)
N56 N 0.61371(13) 0.34538(11) 0.14356(13)
C110 C 0.65360(12) 0.07887(12) 0.27902(14)
H104 H 0.6478 0.0421 0.2564
H111 H 0.6160 0.0942 0.2914
C117 C 0.69708(13) 0.02701(11) 0.37996(14)
C124 C 0.74548(12) 0.03546(11) 0.19076(17)
H125 H 0.7421 0.0200 0.2352
H132 H 0.7849 0.0322 0.1759
H139 H 0.7207 0.0141 0.1611
C131 C 0.57464(15) 0.34113(13) 0.09539(14)
N63 N 0.72667(19) 0.11312(13) 0.36530(17)
C138 C 0.7491(2) 0.08721(15) 0.41863(19)
H146 H 0.7770 0.1044 0.4458
N70 N 0.72830(13) 0.03472(9) 0.42958(10)
N78 N 0.46528(9) 0.22830(13) 0.07042(10)
O5 O 0.46484(14) 0.35053(17) 0.0000
O8 O 0.5699(2) 0.16434(16) 0.0000
H164 H 0.621788 0.215005 0.0955419
H186 H 0.56754 0.146619 0.0451756
Cu3_3 Cu 1.0000 0.0000 0.84166(3)
Cu6_2 Cu 0.51785(2) 0.25815(3) 1.0000
N16 N 0.93578(6) 0.05748(6) 0.84640(8)
N25 N 0.85467(6) 0.10019(7) 0.87038(8)
C25 C 0.74192(8) 0.19752(9) 0.85141(9)
N32 N 0.63673(8) 0.29335(7) 0.85183(8)
C32 C 0.69912(8) 0.21745(8) 0.80669(9)
C39 C 0.75544(8) 0.13870(8) 0.85302(9)
N39 N 0.87913(7) 0.13419(8) 0.82316(9)
C46 C 0.66943(8) 0.17978(9) 0.76528(10)
C53 C 0.88786(8) 0.05550(8) 0.88401(10)
H26 H 0.8793 0.0268 0.9151
C60 C 0.68487(9) 0.28054(9) 0.80423(10)
H33 H 0.6733 0.2912 0.7592
H40 H 0.7188 0.3031 0.8161
C67 C 0.68432(9) 0.12064(10) 0.76649(11)
C74 C 0.79979(8) 0.11657(9) 0.90217(10)
H47 H 0.7840 0.0831 0.9253
H54 H 0.8073 0.1464 0.9353
N46 N 0.57141(8) 0.28793(9) 0.92875(8)
C81 C 0.92795(9) 0.10641(9) 0.81078(11)
H61 H 0.9549 0.1196 0.7798
C88 C 0.61100(9) 0.26040(11) 0.89613(11)
N55 N 0.69115(12) 0.07003(10) 0.65798(10)
C95 C 0.62000(10) 0.19920(12) 0.72244(12)
H68 H 0.5841 0.1881 0.7430
H75 H 0.6212 0.2406 0.7176
H82 H 0.6230 0.1814 0.6792
C102 C 0.77159(11) 0.23888(10) 0.89879(11)
H89 H 0.8029 0.2193 0.9209
H96 H 0.7865 0.2714 0.8742
H103 H 0.7442 0.2523 0.9315
C109 C 0.72718(9) 0.10056(9) 0.80910(11)
N62 N 0.61371(13) 0.34538(11) 0.85644(13)
C116 C 0.65360(12) 0.07887(12) 0.72098(14)
H110 H 0.6478 0.0421 0.7436
H117 H 0.6160 0.0942 0.7086
C123 C 0.69708(13) 0.02701(11) 0.62004(14)
H121 H 0.9917 0.3208 0.6287
C130 C 0.74548(12) 0.03546(11) 0.80924(17)
H131 H 0.7421 0.0200 0.7648
H138 H 0.7849 0.0322 0.8241
H145 H 0.7207 0.0141 0.8389
C137 C 0.57464(15) 0.34113(13) 0.90461(14)
N69 N 0.72667(19) 0.11312(13) 0.63470(17)
C144 C 0.7491(2) 0.08721(15) 0.58137(19)
H152 H 0.7770 0.1044 0.5542
O4_3 O 1.0000 0.0000 0.7077(3)
N76 N 0.72830(13) 0.03472(9) 0.57042(10)
N77 N 0.46528(9) 0.22830(13) 0.92958(10)
O5_2 O 0.46484(14) 0.35053(17) 1.0000
O8_2 O 0.5699(2) 0.16434(16) 1.0000
H166 H 0.621788 0.215005 0.904458
H168 H 0.548283 0.377192 0.922258
H176 H 0.49174 0.382512 0.988064
H177 H 0.432903 0.34875 0.966761
H187 H 0.551865 0.137922 0.966763
Cu1_4 Cu 1.0000 1.0000 0.15834(3)
O1_4 O 1.0000 1.0000 0.2923(3)
Cu7 Cu 0.74185(3) 0.51785(2) 0.0000
Cu10 Cu 0.75815(3) 0.98215(2) 0.5000
N11 N 0.94252(6) 0.93578(6) 0.15360(8)
N20 N 0.89981(7) 0.85467(6) 0.12962(8)
C20 C 0.80248(9) 0.74192(8) 0.14859(9)
N27 N 0.70665(7) 0.63673(8) 0.14817(8)
C27 C 0.78255(8) 0.69912(8) 0.19331(9)
C34 C 0.86130(8) 0.75544(8) 0.14698(9)
N34 N 0.86581(8) 0.87913(7) 0.17684(9)
C41 C 0.82022(9) 0.66943(8) 0.23472(10)
C48 C 0.94450(8) 0.88786(8) 0.11599(10)
H21 H 0.9732 0.8793 0.0849
C55 C 0.71946(9) 0.68487(9) 0.19577(10)
H28 H 0.7088 0.6733 0.2408
H35 H 0.6969 0.7188 0.1839
C62 C 0.87936(10) 0.68432(9) 0.23351(11)
C69 C 0.88343(9) 0.79979(8) 0.09783(10)
H42 H 0.9169 0.7840 0.0747
H49 H 0.8536 0.8073 0.0647
N41 N 0.71207(9) 0.57141(8) 0.07125(8)
C76 C 0.89359(9) 0.92795(9) 0.18922(11)
H56 H 0.8804 0.9549 0.2202
C83 C 0.73960(11) 0.61100(9) 0.10387(11)
N50 N 0.92997(10) 0.69115(12) 0.34202(10)
C90 C 0.80080(12) 0.62000(10) 0.27756(12)
H63 H 0.8119 0.5841 0.2570
H70 H 0.7594 0.6212 0.2824
H77 H 0.8186 0.6230 0.3208
C97 C 0.76112(10) 0.77159(11) 0.10121(11)
H84 H 0.7807 0.8029 0.0791
H91 H 0.7286 0.7865 0.1258
H98 H 0.7477 0.7442 0.0685
C104 C 0.89944(9) 0.72718(9) 0.19090(11)
N57 N 0.65462(11) 0.61371(13) 0.14356(13)
C111 C 0.92113(12) 0.65360(12) 0.27902(14)
H105 H 0.9579 0.6478 0.2564
H112 H 0.9058 0.6160 0.2914
C118 C 0.97299(11) 0.69708(13) 0.37996(14)
H118 H 0.6792 0.9917 0.3713
C125 C 0.96454(11) 0.74548(12) 0.19076(17)
H126 H 0.9800 0.7421 0.2352
H133 H 0.9678 0.7849 0.1759
H140 H 0.9859 0.7207 0.1611
C132 C 0.65887(13) 0.57464(15) 0.09539(14)
N64 N 0.88688(13) 0.72667(19) 0.36530(17)
C139 C 0.91279(15) 0.7491(2) 0.41863(19)
H147 H 0.8956 0.7770 0.4458
N71 N 0.96528(9) 0.72830(13) 0.42958(10)
N80 N 0.77170(13) 0.46528(9) 0.07042(10)
O6 O 0.64947(17) 0.46484(14) 0.0000
O9 O 0.83566(16) 0.5699(2) 0.0000
H162 H 0.784995 0.621788 0.0955419
H171 H 0.622808 0.548283 0.0777424
H178 H 0.853381 0.56754 0.0451756
Cu3_4 Cu 1.0000 1.0000 0.84166(3)
Cu7_2 Cu 0.74185(3) 0.51785(2) 1.0000
N17 N 0.94252(6) 0.93578(6) 0.84640(8)
N47 N 0.71207(9) 0.57141(8) 0.92875(8)
H124 H 0.6792 0.9917 0.6287
O4_4 O 1.0000 1.0000 0.7077(3)
N79 N 0.77170(13) 0.46528(9) 0.92958(10)
O6_2 O 0.64947(17) 0.46484(14) 1.0000
O9_2 O 0.83566(16) 0.5699(2) 1.0000
H179 H 0.862078 0.551865 0.966763
H180 H 0.617488 0.49174 0.988064
H181 H 0.65125 0.432903 0.966761
H124_2 H 0.0083 0.6792 0.6287
N15_2 N 0.44252(6) 0.43578(6) 0.34640(8)
N24_2 N 0.39981(7) 0.35467(6) 0.37038(8)
C24_2 C 0.30248(9) 0.24192(8) 0.35141(9)
N31_2 N 0.20665(7) 0.13673(8) 0.35183(8)
C31_2 C 0.28255(8) 0.19912(8) 0.30669(9)
C38_2 C 0.36130(8) 0.25544(8) 0.35302(9)
N38_2 N 0.36581(8) 0.37913(7) 0.32316(9)
C45_2 C 0.32022(9) 0.16943(8) 0.26528(10)
C52_2 C 0.44450(8) 0.38786(8) 0.38401(10)
H25_2 H 0.4732 0.3793 0.4151
C59_2 C 0.21946(9) 0.18487(9) 0.30423(10)
H32_2 H 0.2088 0.1733 0.2592
H39_2 H 0.1969 0.2188 0.3161
C66_2 C 0.37936(10) 0.18432(9) 0.26649(11)
C73_2 C 0.38343(9) 0.29979(8) 0.40217(10)
H46_2 H 0.4169 0.2840 0.4253
H53_2 H 0.3536 0.3073 0.4353
N45_2 N 0.21207(9) 0.07141(8) 0.42875(8)
C80_2 C 0.39359(9) 0.42795(9) 0.31078(11)
H60_2 H 0.3804 0.4549 0.2798
C87_2 C 0.23960(11) 0.11100(9) 0.39613(11)
N54_2 N 0.42997(10) 0.19115(12) 0.15798(10)
C94_2 C 0.30080(12) 0.12000(10) 0.22244(12)
H67_2 H 0.3119 0.0841 0.2430
H74_2 H 0.2594 0.1212 0.2176
H81_2 H 0.3186 0.1230 0.1792
C101_2 C 0.26112(10) 0.27159(11) 0.39879(11)
H88_2 H 0.2807 0.3029 0.4209
H95_2 H 0.2286 0.2865 0.3742
H102_2 H 0.2477 0.2442 0.4315
C108_2 C 0.39944(9) 0.22718(9) 0.30910(11)
N61_2 N 0.15462(11) 0.11371(13) 0.35644(13)
C115_2 C 0.42113(12) 0.15360(12) 0.22098(14)
H109_2 H 0.4579 0.1478 0.2436
H116_2 H 0.4058 0.1160 0.2086
C122_2 C 0.47299(11) 0.19708(13) 0.12004(14)
H123_2 H 0.5083 0.1792 0.1287
C129_2 C 0.46454(11) 0.24548(12) 0.30924(17)
H130_2 H 0.4800 0.2421 0.2648
H137_2 H 0.4678 0.2849 0.3241
H144_2 H 0.4859 0.2207 0.3389
C136_2 C 0.15887(13) 0.07464(15) 0.40461(14)
N68_2 N 0.38688(13) 0.22667(19) 0.13470(17)
C143_2 C 0.41279(15) 0.2491(2) 0.08137(19)
H151_2 H 0.3956 0.2770 0.0542
H153_2 H 0.548283 0.377192 0.0777424
H165_2 H 0.284995 0.121788 0.404458
H174_2 H 0.122808 0.048283 0.422258
N14_2 N 0.44252(6) 0.43578(6) 0.65360(8)
N23_2 N 0.39981(7) 0.35467(6) 0.62962(8)
C23_2 C 0.30248(9) 0.24192(8) 0.64859(9)
N30_2 N 0.20665(7) 0.13673(8) 0.64817(8)
C30_2 C 0.28255(8) 0.19912(8) 0.69331(9)
C37_2 C 0.36130(8) 0.25544(8) 0.64698(9)
N37_2 N 0.36581(8) 0.37913(7) 0.67684(9)
C44_2 C 0.32022(9) 0.16943(8) 0.73472(10)
C51_2 C 0.44450(8) 0.38786(8) 0.61599(10)
H24_2 H 0.4732 0.3793 0.5849
C58_2 C 0.21946(9) 0.18487(9) 0.69577(10)
H31_2 H 0.2088 0.1733 0.7408
H38_2 H 0.1969 0.2188 0.6839
C65_2 C 0.37936(10) 0.18432(9) 0.73351(11)
C72_2 C 0.38343(9) 0.29979(8) 0.59783(10)
H45_2 H 0.4169 0.2840 0.5747
H52_2 H 0.3536 0.3073 0.5647
N44_2 N 0.21207(9) 0.07141(8) 0.57125(8)
C79_2 C 0.39359(9) 0.42795(9) 0.68922(11)
H59_2 H 0.3804 0.4549 0.7202
C86_2 C 0.23960(11) 0.11100(9) 0.60387(11)
N53_2 N 0.42997(10) 0.19115(12) 0.84202(10)
C93_2 C 0.30080(12) 0.12000(10) 0.77756(12)
H66_2 H 0.3119 0.0841 0.7570
H73_2 H 0.2594 0.1212 0.7824
H80_2 H 0.3186 0.1230 0.8208
C100_2 C 0.26112(10) 0.27159(11) 0.60121(11)
H87_2 H 0.2807 0.3029 0.5791
H94_2 H 0.2286 0.2865 0.6258
H101_2 H 0.2477 0.2442 0.5685
C107_2 C 0.39944(9) 0.22718(9) 0.69090(11)
N60_2 N 0.15462(11) 0.11371(13) 0.64356(13)
C114_2 C 0.42113(12) 0.15360(12) 0.77902(14)
H108_2 H 0.4579 0.1478 0.7564
H115_2 H 0.4058 0.1160 0.7914
C121_2 C 0.47299(11) 0.19708(13) 0.87996(14)
H122_2 H 0.5083 0.1792 0.8713
C128_2 C 0.46454(11) 0.24548(12) 0.69076(17)
H129_2 H 0.4800 0.2421 0.7352
H136_2 H 0.4678 0.2849 0.6759
H143_2 H 0.4859 0.2207 0.6611
C135_2 C 0.15887(13) 0.07464(15) 0.59539(14)
N67_2 N 0.38688(13) 0.22667(19) 0.86530(17)
C142_2 C 0.41279(15) 0.2491(2) 0.91863(19)
H150_2 H 0.3956 0.2770 0.9458
H161_2 H 0.284995 0.121788 0.595542
H175_2 H 0.122808 0.048283 0.577742
N25_2 N 0.89981(7) 0.85467(6) 0.87038(8)
C25_2 C 0.80248(9) 0.74192(8) 0.85141(9)
N32_2 N 0.70665(7) 0.63673(8) 0.85183(8)
C32_2 C 0.78255(8) 0.69912(8) 0.80669(9)
C39_2 C 0.86130(8) 0.75544(8) 0.85302(9)
N39_2 N 0.86581(8) 0.87913(7) 0.82316(9)
C46_2 C 0.82022(9) 0.66943(8) 0.76528(10)
C53_2 C 0.94450(8) 0.88786(8) 0.88401(10)
H26_2 H 0.9732 0.8793 0.9151
C60_2 C 0.71946(9) 0.68487(9) 0.80423(10)
H33_2 H 0.7088 0.6733 0.7592
H40_2 H 0.6969 0.7188 0.8161
C67_2 C 0.87936(10) 0.68432(9) 0.76649(11)
C74_2 C 0.88343(9) 0.79979(8) 0.90217(10)
H47_2 H 0.9169 0.7840 0.9253
H54_2 H 0.8536 0.8073 0.9353
C81_2 C 0.89359(9) 0.92795(9) 0.81078(11)
H61_2 H 0.8804 0.9549 0.7798
C88_2 C 0.73960(11) 0.61100(9) 0.89613(11)
N55_2 N 0.92997(10) 0.69115(12) 0.65798(10)
C95_2 C 0.80080(12) 0.62000(10) 0.72244(12)
H68_2 H 0.8119 0.5841 0.7430
H75_2 H 0.7594 0.6212 0.7176
H82_2 H 0.8186 0.6230 0.6792
C102_2 C 0.76112(10) 0.77159(11) 0.89879(11)
H89_2 H 0.7807 0.8029 0.9209
H96_2 H 0.7286 0.7865 0.8742
H103_2 H 0.7477 0.7442 0.9315
C109_2 C 0.89944(9) 0.72718(9) 0.80910(11)
N62_2 N 0.65462(11) 0.61371(13) 0.85644(13)
C116_2 C 0.92113(12) 0.65360(12) 0.72098(14)
H110_2 H 0.9579 0.6478 0.7436
H117_2 H 0.9058 0.6160 0.7086
C123_2 C 0.97299(11) 0.69708(13) 0.62004(14)
C130_2 C 0.96454(11) 0.74548(12) 0.80924(17)
H131_2 H 0.9800 0.7421 0.7648
H138_2 H 0.9678 0.7849 0.8241
H145_2 H 0.9859 0.7207 0.8389
C137_2 C 0.65887(13) 0.57464(15) 0.90461(14)
N69_2 N 0.88688(13) 0.72667(19) 0.63470(17)
C144_2 C 0.91279(15) 0.7491(2) 0.58137(19)
H152_2 H 0.8956 0.7770 0.5542
N76_2 N 0.96528(9) 0.72830(13) 0.57042(10)
H166_2 H 0.784995 0.621788 0.904458
H168_2 H 0.622808 0.548283 0.922258
H124_3 H 0.3208 0.0083 0.6287
N25_3 N 0.14533(6) 0.89981(7) 0.87038(8)
C25_3 C 0.25808(8) 0.80248(9) 0.85141(9)
N32_3 N 0.36327(8) 0.70665(7) 0.85183(8)
C32_3 C 0.30088(8) 0.78255(8) 0.80669(9)
C39_3 C 0.24456(8) 0.86130(8) 0.85302(9)
N39_3 N 0.12087(7) 0.86581(8) 0.82316(9)
C46_3 C 0.33057(8) 0.82022(9) 0.76528(10)
C53_3 C 0.11214(8) 0.94450(8) 0.88401(10)
H26_3 H 0.1207 0.9732 0.9151
C60_3 C 0.31513(9) 0.71946(9) 0.80423(10)
H33_3 H 0.3267 0.7088 0.7592
H40_3 H 0.2812 0.6969 0.8161
C67_3 C 0.31568(9) 0.87936(10) 0.76649(11)
C74_3 C 0.20021(8) 0.88343(9) 0.90217(10)
H47_3 H 0.2160 0.9169 0.9253
H54_3 H 0.1927 0.8536 0.9353
C81_3 C 0.07205(9) 0.89359(9) 0.81078(11)
H61_3 H 0.0451 0.8804 0.7798
C88_3 C 0.38900(9) 0.73960(11) 0.89613(11)
N55_3 N 0.30885(12) 0.92997(10) 0.65798(10)
C95_3 C 0.38000(10) 0.80080(12) 0.72244(12)
H68_3 H 0.4159 0.8119 0.7430
H75_3 H 0.3788 0.7594 0.7176
H82_3 H 0.3770 0.8186 0.6792
C102_3 C 0.22841(11) 0.76112(10) 0.89879(11)
H89_3 H 0.1971 0.7807 0.9209
H96_3 H 0.2135 0.7286 0.8742
H103_3 H 0.2558 0.7477 0.9315
C109_3 C 0.27282(9) 0.89944(9) 0.80910(11)
N62_3 N 0.38629(13) 0.65462(11) 0.85644(13)
C116_3 C 0.34640(12) 0.92113(12) 0.72098(14)
H110_3 H 0.3522 0.9579 0.7436
H117_3 H 0.3840 0.9058 0.7086
C123_3 C 0.30292(13) 0.97299(11) 0.62004(14)
C130_3 C 0.25452(12) 0.96454(11) 0.80924(17)
H131_3 H 0.2579 0.9800 0.7648
H138_3 H 0.2151 0.9678 0.8241
H145_3 H 0.2793 0.9859 0.8389
C137_3 C 0.42536(15) 0.65887(13) 0.90461(14)
N69_3 N 0.27333(19) 0.88688(13) 0.63470(17)
C144_3 C 0.2509(2) 0.91279(15) 0.58137(19)
H152_3 H 0.2230 0.8956 0.5542
N76_3 N 0.27170(13) 0.96528(9) 0.57042(10)
H166_3 H 0.378212 0.784995 0.904458
H168_3 H 0.451717 0.622808 0.922258
N15_3 N 0.56422(6) 0.44252(6) 0.34640(8)
N24_3 N 0.64533(6) 0.39981(7) 0.37038(8)
C24_3 C 0.75808(8) 0.30248(9) 0.35141(9)
N31_3 N 0.86327(8) 0.20665(7) 0.35183(8)
C31_3 C 0.80088(8) 0.28255(8) 0.30669(9)
C38_3 C 0.74456(8) 0.36130(8) 0.35302(9)
N38_3 N 0.62087(7) 0.36581(8) 0.32316(9)
C45_3 C 0.83057(8) 0.32022(9) 0.26528(10)
C52_3 C 0.61214(8) 0.44450(8) 0.38401(10)
H25_3 H 0.6207 0.4732 0.4151
C59_3 C 0.81513(9) 0.21946(9) 0.30423(10)
H32_3 H 0.8267 0.2088 0.2592
H39_3 H 0.7812 0.1969 0.3161
C66_3 C 0.81568(9) 0.37936(10) 0.26649(11)
C73_3 C 0.70021(8) 0.38343(9) 0.40217(10)
H46_3 H 0.7160 0.4169 0.4253
H53_3 H 0.6927 0.3536 0.4353
N45_3 N 0.92859(8) 0.21207(9) 0.42875(8)
C80_3 C 0.57205(9) 0.39359(9) 0.31078(11)
H60_3 H 0.5451 0.3804 0.2798
C87_3 C 0.88900(9) 0.23960(11) 0.39613(11)
N54_3 N 0.80885(12) 0.42997(10) 0.15798(10)
C94_3 C 0.88000(10) 0.30080(12) 0.22244(12)
H67_3 H 0.9159 0.3119 0.2430
H74_3 H 0.8788 0.2594 0.2176
H81_3 H 0.8770 0.3186 0.1792
C101_3 C 0.72841(11) 0.26112(10) 0.39879(11)
H88_3 H 0.6971 0.2807 0.4209
H95_3 H 0.7135 0.2286 0.3742
H102_3 H 0.7558 0.2477 0.4315
C108_3 C 0.77282(9) 0.39944(9) 0.30910(11)
N61_3 N 0.88629(13) 0.15462(11) 0.35644(13)
C115_3 C 0.84640(12) 0.42113(12) 0.22098(14)
H109_3 H 0.8522 0.4579 0.2436
H116_3 H 0.8840 0.4058 0.2086
C122_3 C 0.80292(13) 0.47299(11) 0.12004(14)
H123_3 H 0.8208 0.5083 0.1287
C129_3 C 0.75452(12) 0.46454(11) 0.30924(17)
H130_3 H 0.7579 0.4800 0.2648
H137_3 H 0.7151 0.4678 0.3241
H144_3 H 0.7793 0.4859 0.3389
C136_3 C 0.92536(15) 0.15887(13) 0.40461(14)
N68_3 N 0.77333(19) 0.38688(13) 0.13470(17)
C143_3 C 0.7509(2) 0.41279(15) 0.08137(19)
H151_3 H 0.7230 0.3956 0.0542
H165_3 H 0.878212 0.284995 0.404458
H174_3 H 0.951717 0.122808 0.422258
N14_3 N 0.56422(6) 0.44252(6) 0.65360(8)
N23_3 N 0.64533(6) 0.39981(7) 0.62962(8)
C23_3 C 0.75808(8) 0.30248(9) 0.64859(9)
N30_3 N 0.86327(8) 0.20665(7) 0.64817(8)
C30_3 C 0.80088(8) 0.28255(8) 0.69331(9)
C37_3 C 0.74456(8) 0.36130(8) 0.64698(9)
N37_3 N 0.62087(7) 0.36581(8) 0.67684(9)
C44_3 C 0.83057(8) 0.32022(9) 0.73472(10)
C51_3 C 0.61214(8) 0.44450(8) 0.61599(10)
H24_3 H 0.6207 0.4732 0.5849
C58_3 C 0.81513(9) 0.21946(9) 0.69577(10)
H31_3 H 0.8267 0.2088 0.7408
H38_3 H 0.7812 0.1969 0.6839
C65_3 C 0.81568(9) 0.37936(10) 0.73351(11)
C72_3 C 0.70021(8) 0.38343(9) 0.59783(10)
H45_3 H 0.7160 0.4169 0.5747
H52_3 H 0.6927 0.3536 0.5647
N44_3 N 0.92859(8) 0.21207(9) 0.57125(8)
C79_3 C 0.57205(9) 0.39359(9) 0.68922(11)
H59_3 H 0.5451 0.3804 0.7202
C86_3 C 0.88900(9) 0.23960(11) 0.60387(11)
N53_3 N 0.80885(12) 0.42997(10) 0.84202(10)
C93_3 C 0.88000(10) 0.30080(12) 0.77756(12)
H66_3 H 0.9159 0.3119 0.7570
H73_3 H 0.8788 0.2594 0.7824
H80_3 H 0.8770 0.3186 0.8208
C100_3 C 0.72841(11) 0.26112(10) 0.60121(11)
H87_3 H 0.6971 0.2807 0.5791
H94_3 H 0.7135 0.2286 0.6258
H101_3 H 0.7558 0.2477 0.5685
C107_3 C 0.77282(9) 0.39944(9) 0.69090(11)
N60_3 N 0.88629(13) 0.15462(11) 0.64356(13)
C114_3 C 0.84640(12) 0.42113(12) 0.77902(14)
H108_3 H 0.8522 0.4579 0.7564
H115_3 H 0.8840 0.4058 0.7914
C121_3 C 0.80292(13) 0.47299(11) 0.87996(14)
H122_3 H 0.8208 0.5083 0.8713
C128_3 C 0.75452(12) 0.46454(11) 0.69076(17)
H129_3 H 0.7579 0.4800 0.7352
H136_3 H 0.7151 0.4678 0.6759
H143_3 H 0.7793 0.4859 0.6611
C135_3 C 0.92536(15) 0.15887(13) 0.59539(14)
N67_3 N 0.77333(19) 0.38688(13) 0.86530(17)
C142_3 C 0.7509(2) 0.41279(15) 0.91863(19)
H150_3 H 0.7230 0.3956 0.9458
H161_3 H 0.878212 0.284995 0.595542
H175_3 H 0.951717 0.122808 0.577742
N15_4 N 0.55748(6) 0.56422(6) 0.34640(8)
N24_4 N 0.60019(7) 0.64533(6) 0.37038(8)
C24_4 C 0.69752(9) 0.75808(8) 0.35141(9)
N31_4 N 0.79335(7) 0.86327(8) 0.35183(8)
C31_4 C 0.71745(8) 0.80088(8) 0.30669(9)
C38_4 C 0.63870(8) 0.74456(8) 0.35302(9)
N38_4 N 0.63419(8) 0.62087(7) 0.32316(9)
C45_4 C 0.67978(9) 0.83057(8) 0.26528(10)
C52_4 C 0.55550(8) 0.61214(8) 0.38401(10)
H25_4 H 0.5268 0.6207 0.4151
C59_4 C 0.78054(9) 0.81513(9) 0.30423(10)
H32_4 H 0.7912 0.8267 0.2592
H39_4 H 0.8031 0.7812 0.3161
C66_4 C 0.62064(10) 0.81568(9) 0.26649(11)
C73_4 C 0.61657(9) 0.70021(8) 0.40217(10)
H46_4 H 0.5831 0.7160 0.4253
H53_4 H 0.6464 0.6927 0.4353
N45_4 N 0.78793(9) 0.92859(8) 0.42875(8)
C80_4 C 0.60641(9) 0.57205(9) 0.31078(11)
H60_4 H 0.6196 0.5451 0.2798
C87_4 C 0.76040(11) 0.88900(9) 0.39613(11)
N54_4 N 0.57003(10) 0.80885(12) 0.15798(10)
C94_4 C 0.69920(12) 0.88000(10) 0.22244(12)
H67_4 H 0.6881 0.9159 0.2430
H74_4 H 0.7406 0.8788 0.2176
H81_4 H 0.6814 0.8770 0.1792
C101_4 C 0.73888(10) 0.72841(11) 0.39879(11)
H88_4 H 0.7193 0.6971 0.4209
H95_4 H 0.7714 0.7135 0.3742
H102_4 H 0.7523 0.7558 0.4315
C108_4 C 0.60056(9) 0.77282(9) 0.30910(11)
N61_4 N 0.84538(11) 0.88629(13) 0.35644(13)
C115_4 C 0.57887(12) 0.84640(12) 0.22098(14)
H109_4 H 0.5421 0.8522 0.2436
H116_4 H 0.5942 0.8840 0.2086
C122_4 C 0.52701(11) 0.80292(13) 0.12004(14)
H123_4 H 0.4917 0.8208 0.1287
C129_4 C 0.53546(11) 0.75452(12) 0.30924(17)
H130_4 H 0.5200 0.7579 0.2648
H137_4 H 0.5322 0.7151 0.3241
H144_4 H 0.5141 0.7793 0.3389
C136_4 C 0.84113(13) 0.92536(15) 0.40461(14)
N68_4 N 0.61312(13) 0.77333(19) 0.13470(17)
C143_4 C 0.58721(15) 0.7509(2) 0.08137(19)
H151_4 H 0.6044 0.7230 0.0542
H165_4 H 0.715005 0.878212 0.404458
H174_4 H 0.877192 0.951717 0.422258
N14_4 N 0.55748(6) 0.56422(6) 0.65360(8)
N23_4 N 0.60019(7) 0.64533(6) 0.62962(8)
C23_4 C 0.69752(9) 0.75808(8) 0.64859(9)
N30_4 N 0.79335(7) 0.86327(8) 0.64817(8)
C30_4 C 0.71745(8) 0.80088(8) 0.69331(9)
C37_4 C 0.63870(8) 0.74456(8) 0.64698(9)
N37_4 N 0.63419(8) 0.62087(7) 0.67684(9)
C44_4 C 0.67978(9) 0.83057(8) 0.73472(10)
C51_4 C 0.55550(8) 0.61214(8) 0.61599(10)
H24_4 H 0.5268 0.6207 0.5849
C58_4 C 0.78054(9) 0.81513(9) 0.69577(10)
H31_4 H 0.7912 0.8267 0.7408
H38_4 H 0.8031 0.7812 0.6839
C65_4 C 0.62064(10) 0.81568(9) 0.73351(11)
C72_4 C 0.61657(9) 0.70021(8) 0.59783(10)
H45_4 H 0.5831 0.7160 0.5747
H52_4 H 0.6464 0.6927 0.5647
N44_4 N 0.78793(9) 0.92859(8) 0.57125(8)
C79_4 C 0.60641(9) 0.57205(9) 0.68922(11)
H59_4 H 0.6196 0.5451 0.7202
C86_4 C 0.76040(11) 0.88900(9) 0.60387(11)
N53_4 N 0.57003(10) 0.80885(12) 0.84202(10)
C93_4 C 0.69920(12) 0.88000(10) 0.77756(12)
H66_4 H 0.6881 0.9159 0.7570
H73_4 H 0.7406 0.8788 0.7824
H80_4 H 0.6814 0.8770 0.8208
C100_4 C 0.73888(10) 0.72841(11) 0.60121(11)
H87_4 H 0.7193 0.6971 0.5791
H94_4 H 0.7714 0.7135 0.6258
H101_4 H 0.7523 0.7558 0.5685
C107_4 C 0.60056(9) 0.77282(9) 0.69090(11)
N60_4 N 0.84538(11) 0.88629(13) 0.64356(13)
C114_4 C 0.57887(12) 0.84640(12) 0.77902(14)
H108_4 H 0.5421 0.8522 0.7564
H115_4 H 0.5942 0.8840 0.7914
C121_4 C 0.52701(11) 0.80292(13) 0.87996(14)
H122_4 H 0.4917 0.8208 0.8713
C128_4 C 0.53546(11) 0.75452(12) 0.69076(17)
H129_4 H 0.5200 0.7579 0.7352
H136_4 H 0.5322 0.7151 0.6759
H143_4 H 0.5141 0.7793 0.6611
C135_4 C 0.84113(13) 0.92536(15) 0.59539(14)
N67_4 N 0.61312(13) 0.77333(19) 0.86530(17)
C142_4 C 0.58721(15) 0.7509(2) 0.91863(19)
H150_4 H 0.6044 0.7230 0.9458
H161_4 H 0.715005 0.878212 0.595542
H175_4 H 0.877192 0.951717 0.577742
O7_3 O 0.03516(14) 0.14947(17) 0.5000
O2_3 O 0.85053(17) 0.03516(14) 0.5000
O1_5 O 0.5000 0.5000 0.7923(3)
O3_3 O 0.66434(16) 0.9301(2) 0.5000
O4_5 O 0.5000 0.5000 0.2077(3)
O8_3 O 0.0699(2) 0.66434(16) 0.5000
O9_3 O 0.33566(16) 0.0699(2) 0.5000
O10_3 O 0.9301(2) 0.33566(16) 0.5000
O6_3 O 0.14947(17) 0.96484(14) 0.5000
O5_3 O 0.96484(14) 0.85053(17) 0.5000
H179_2 H 0.137922 0.448135 0.0332374
H180_2 H 0.382512 0.50826 0.0119361
H181_2 H 0.34875 0.567097 0.0332389
H178_2 H 0.146619 0.43246 0.954824
H176_2 H 0.50826 0.617488 0.0119361
H177_2 H 0.567097 0.65125 0.0332389
H187_2 H 0.448135 0.862078 0.0332374
H186_2 H 0.43246 0.853381 0.954824
H182_2 H 0.49174 0.382512 0.0119361
H183_2 H 0.432903 0.34875 0.0332389
H185_2 H 0.551865 0.137922 0.0332374
H184_2 H 0.56754 0.146619 0.954824
H156_2 H 0.862078 0.551865 0.0332374
H157_2 H 0.617488 0.49174 0.0119361
H158_2 H 0.65125 0.432903 0.0332389
H155_2 H 0.853381 0.56754 0.954824
N83 N 0.17954(12) 0.05923(10) 0.0000
O11 O 0.12540(15) 0.05631(16) 0.0000
O12 O 0.20420(18) 0.10365(14) 0.0000
O13 O 0.20033(18) 0.01122(14) 0.0000
N83_2 N 0.17954(12) 0.05923(10) 1.0000
O11_2 O 0.12540(15) 0.05631(16) 1.0000
O12_2 O 0.20420(18) 0.10365(14) 1.0000
O13_2 O 0.20033(18) 0.01122(14) 1.0000
N83_3 N 0.94077(10) 0.17954(12) 0.0000
O11_3 O 0.94369(16) 0.12540(15) 0.0000
O12_3 O 0.89635(14) 0.20420(18) 0.0000
O13_3 O 0.98878(14) 0.20033(18) 0.0000
N83_4 N 0.94077(10) 0.17954(12) 1.0000
O11_4 O 0.94369(16) 0.12540(15) 1.0000
O12_4 O 0.89635(14) 0.20420(18) 1.0000
O13_4 O 0.98878(14) 0.20033(18) 1.0000
N83_5 N 0.82046(12) 0.94077(10) 0.0000
O11_5 O 0.87460(15) 0.94369(16) 0.0000
O12_5 O 0.79580(18) 0.89635(14) 0.0000
O13_5 O 0.79967(18) 0.98878(14) 0.0000
N83_6 N 0.82046(12) 0.94077(10) 1.0000
O11_6 O 0.87460(15) 0.94369(16) 1.0000
O12_6 O 0.79580(18) 0.89635(14) 1.0000
O13_6 O 0.79967(18) 0.98878(14) 1.0000
N83_7 N 0.05923(10) 0.82046(12) 0.0000
O11_7 O 0.05631(16) 0.87460(15) 0.0000
O12_7 O 0.10365(14) 0.79580(18) 0.0000
O13_7 O 0.01122(14) 0.79967(18) 0.0000
N83_8 N 0.05923(10) 0.82046(12) 1.0000
O11_8 O 0.05631(16) 0.87460(15) 1.0000
O12_8 O 0.10365(14) 0.79580(18) 1.0000
O13_8 O 0.01122(14) 0.79967(18) 1.0000
N83_9 N 0.67954(12) 0.55923(10) 0.5000
O11_9 O 0.62540(15) 0.55631(16) 0.5000
O12_9 O 0.70420(18) 0.60365(14) 0.5000
O13_9 O 0.70033(18) 0.51122(14) 0.5000
N83_10 N 0.44077(10) 0.67954(12) 0.5000
O11_10 O 0.44369(16) 0.62540(15) 0.5000
O12_10 O 0.39635(14) 0.70420(18) 0.5000
O13_10 O 0.48878(14) 0.70033(18) 0.5000
N83_11 N 0.32046(12) 0.44077(10) 0.5000
O11_11 O 0.37460(15) 0.44369(16) 0.5000
O12_11 O 0.29580(18) 0.39635(14) 0.5000
O13_11 O 0.29967(18) 0.48878(14) 0.5000
N83_12 N 0.55923(10) 0.32046(12) 0.5000
O11_12 O 0.55631(16) 0.37460(15) 0.5000
O12_12 O 0.60365(14) 0.29580(18) 0.5000
O13_12 O 0.51122(14) 0.29967(18) 0.5000
loop_
_geom_bond_atom_site_label_1
_geom_bond_atom_site_label_2
_geom_bond_site_symmetry_1
_geom_bond_site_symmetry_2
Cu1 N1 1_555 1_555
Cu2 N5 1_555 1_555
N1 C5 1_555 1_555
N2 N4 1_555 1_555
C1 C2 1_555 1_555
N3 C6 1_555 1_555
C2 C4 1_555 1_555
C3 C1 1_555 1_555
N4 C9 1_555 1_555
C4 C7 1_555 1_555
C5 N2 1_555 1_555
H1 C5 1_555 1_555
C6 C2 1_555 1_555
H2 C6 1_555 1_555
H3 C6 1_555 1_555
C7 C13 1_555 1_555
C8 N2 1_555 1_555
H4 C8 1_555 1_555
H5 C8 1_555 1_555
N5 C10 1_555 1_555
C9 N1 1_555 1_555
H6 C9 1_555 1_555
C10 N3 1_555 1_555
N6 C14 1_555 1_555
C11 C4 1_555 1_555
H7 C11 1_555 1_555
H8 C11 1_555 1_555
H9 C11 1_555 1_555
C12 C1 1_555 1_555
H10 C12 1_555 1_555
H11 C12 1_555 1_555
H12 C12 1_555 1_555
C13 C3 1_555 1_555
N7 N3 1_555 1_555
C14 C7 1_555 1_555
H13 C14 1_555 1_555
H14 C14 1_555 1_555
C15 N6 1_555 1_555
C16 C13 1_555 1_555
H16 C16 1_555 1_555
H17 C16 1_555 1_555
H18 C16 1_555 1_555
C17 N5 1_555 1_555
N8 N6 1_555 1_555
C18 N8 1_555 1_555
H19 C18 1_555 1_555
O1 Cu1 1_555 1_555
N9 C15 1_555 1_555
O2 Cu2 1_555 1_555
O3 Cu2 1_555 1_555
Cu5 N15 1_555 1_555
Cu15 N45 1_555 1_555
N15 C52 1_555 1_555
N24 N38 1_555 1_555
C24 C31 1_555 1_555
N31 C59 1_555 1_555
C31 C45 1_555 1_555
C38 C24 1_555 1_555
N38 C80 1_555 1_555
C45 C66 1_555 1_555
C52 N24 1_555 1_555
H25 C52 1_555 1_555
C59 C31 1_555 1_555
H32 C59 1_555 1_555
H39 C59 1_555 1_555
C66 C108 1_555 1_555
C73 N24 1_555 1_555
H46 C73 1_555 1_555
H53 C73 1_555 1_555
N45 C87 1_555 1_555
C80 N15 1_555 1_555
H60 C80 1_555 1_555
C87 N31 1_555 1_555
N54 C115 1_555 1_555
C94 C45 1_555 1_555
H67 C94 1_555 1_555
H74 C94 1_555 1_555
H81 C94 1_555 1_555
C101 C24 1_555 1_555
H88 C101 1_555 1_555
H95 C101 1_555 1_555
H102 C101 1_555 1_555
C108 C38 1_555 1_555
N61 N31 1_555 1_555
C115 C66 1_555 1_555
H109 C115 1_555 1_555
H116 C115 1_555 1_555
C122 N54 1_555 1_555
H123 C122 1_555 1_555
C129 C108 1_555 1_555
H130 C129 1_555 1_555
H137 C129 1_555 1_555
H144 C129 1_555 1_555
C136 N45 1_555 1_555
N68 N54 1_555 1_555
C143 N68 1_555 1_555
H151 C143 1_555 1_555
N75 Cu2 1_555 1_555
C3 C8 1_555 1_555
N7 C17 1_555 1_555
C18 N9 1_555 1_555
C38 C73 1_555 1_555
N61 C136 1_555 1_555
C122 N75 1_555 1_555
C143 N75 1_555 1_555
C17 H153 1_555 1_555
C10 H154 1_555 1_555
O3 H155 1_555 1_555
C87 H165 1_555 1_555
C136 H174 1_555 1_555
O2_2 Cu2_2 1_555 1_555
O3_2 Cu2_2 1_555 1_555
Cu3 N13 1_555 1_555
Cu4 N14 1_555 1_555
Cu15 N44 1_555 1_555
N13 C50 1_555 1_555
N14 C51 1_555 1_555
N22 N36 1_555 1_555
N23 N37 1_555 1_555
C22 C29 1_555 1_555
C23 C30 1_555 1_555
N29 C57 1_555 1_555
N30 C58 1_555 1_555
C29 C43 1_555 1_555
C30 C44 1_555 1_555
C36 C22 1_555 1_555
C37 C23 1_555 1_555
N36 C78 1_555 1_555
N37 C79 1_555 1_555
C43 C64 1_555 1_555
C44 C65 1_555 1_555
C50 N22 1_555 1_555
C51 N23 1_555 1_555
H23 C50 1_555 1_555
H24 C51 1_555 1_555
C57 C29 1_555 1_555
C58 C30 1_555 1_555
H30 C57 1_555 1_555
H31 C58 1_555 1_555
H37 C57 1_555 1_555
H38 C58 1_555 1_555
C64 C106 1_555 1_555
C65 C107 1_555 1_555
C71 N22 1_555 1_555
C72 N23 1_555 1_555
H44 C71 1_555 1_555
H45 C72 1_555 1_555
H51 C71 1_555 1_555
H52 C72 1_555 1_555
N43 Cu2_2 1_555 1_555
N44 C86 1_555 1_555
C78 N13 1_555 1_555
C79 N14 1_555 1_555
H58 C78 1_555 1_555
H59 C79 1_555 1_555
C85 N29 1_555 1_555
C86 N30 1_555 1_555
N52 C113 1_555 1_555
N53 C114 1_555 1_555
C92 C43 1_555 1_555
C93 C44 1_555 1_555
H65 C92 1_555 1_555
H66 C93 1_555 1_555
H72 C92 1_555 1_555
H73 C93 1_555 1_555
H79 C92 1_555 1_555
H80 C93 1_555 1_555
C99 C22 1_555 1_555
C100 C23 1_555 1_555
H86 C99 1_555 1_555
H87 C100 1_555 1_555
H93 C99 1_555 1_555
H94 C100 1_555 1_555
H100 C99 1_555 1_555
H101 C100 1_555 1_555
C106 C36 1_555 1_555
C107 C37 1_555 1_555
N59 N29 1_555 1_555
N60 N30 1_555 1_555
C113 C64 1_555 1_555
C114 C65 1_555 1_555
H107 C113 1_555 1_555
H108 C114 1_555 1_555
H114 C113 1_555 1_555
H115 C114 1_555 1_555
C120 N52 1_555 1_555
C121 N53 1_555 1_555
H122 C121 1_555 1_555
C127 C106 1_555 1_555
C128 C107 1_555 1_555
H128 C127 1_555 1_555
H129 C128 1_555 1_555
H135 C127 1_555 1_555
H136 C128 1_555 1_555
H142 C127 1_555 1_555
H143 C128 1_555 1_555
C134 N43 1_555 1_555
C135 N44 1_555 1_555
N66 N52 1_555 1_555
N67 N53 1_555 1_555
C141 N66 1_555 1_555
C142 N67 1_555 1_555
H149 C141 1_555 1_555
H150 C142 1_555 1_555
O4 Cu3 1_555 1_555
N73 C120 1_555 1_555
N74 Cu2_2 1_555 1_555
C36 C71 1_555 1_555
C37 C72 1_555 1_555
N43 C85 1_555 1_555
N59 C134 1_555 1_555
N60 C135 1_555 1_555
C121 N74 1_555 1_555
C141 N73 1_555 1_555
C142 N74 1_555 1_555
O3_2 H156 1_555 1_555
O2_2 H157 1_555 1_555
O2_2 H158 1_555 1_555
C86 H161 1_555 1_555
C85 H163 1_555 1_555
C134 H173 1_555 1_555
C135 H175 1_555 1_555
O1_2 Cu1_2 1_555 1_555
Cu8 N42 1_555 1_555
N12 Cu1_2 1_555 1_555
N21 N35 1_555 1_555
C21 C28 1_555 1_555
N28 C56 1_555 1_555
C28 C42 1_555 1_555
C35 C21 1_555 1_555
N35 C77 1_555 1_555
C42 C63 1_555 1_555
C49 N12 1_555 1_555
H22 C49 1_555 1_555
C56 C28 1_555 1_555
H29 C56 1_555 1_555
H36 C56 1_555 1_555
C63 C105 1_555 1_555
C70 N21 1_555 1_555
H43 C70 1_555 1_555
H50 C70 1_555 1_555
N42 C84 1_555 1_555
C77 N12 1_555 1_555
H57 C77 1_555 1_555
C84 N28 1_555 1_555
N51 C112 1_555 1_555
C91 C42 1_555 1_555
H64 C91 1_555 1_555
H71 C91 1_555 1_555
H78 C91 1_555 1_555
C98 C21 1_555 1_555
H85 C98 1_555 1_555
H92 C98 1_555 1_555
H99 C98 1_555 1_555
C105 C35 1_555 1_555
N58 N28 1_555 1_555
C112 C63 1_555 1_555
H106 C112 1_555 1_555
H113 C112 1_555 1_555
C119 N51 1_555 1_555
C126 C105 1_555 1_555
H127 C126 1_555 1_555
H134 C126 1_555 1_555
H141 C126 1_555 1_555
C133 N42 1_555 1_555
N65 N51 1_555 1_555
C140 N65 1_555 1_555
H148 C140 1_555 1_555
N72 C119 1_555 1_555
N82 Cu8 1_555 1_555
O7 Cu8 1_555 1_555
O10 Cu8 1_555 1_555
N21 C49 1_555 1_555
C35 C70 1_555 1_555
N58 C133 1_555 1_555
C140 N72 1_555 1_555
C84 H167 1_555 1_555
C133 H172 1_555 1_555
O10 H184 1_555 1_555
N18 Cu3_2 1_555 1_555
N48 Cu8_2 1_555 1_555
O4_2 Cu3_2 1_555 1_555
N81 Cu8_2 1_555 1_555
O7_2 Cu8_2 1_555 1_555
O10_2 Cu8_2 1_555 1_555
O7_2 H182 1_555 1_555
O7_2 H183 1_555 1_555
O10_2 H185 1_555 1_555
O1_3 Cu1_3 1_555 1_555
Cu6 N40 1_555 1_555
N10 Cu1_3 1_555 1_555
N19 N33 1_555 1_555
C19 C26 1_555 1_555
N26 C54 1_555 1_555
C26 C40 1_555 1_555
C33 C19 1_555 1_555
N33 C75 1_555 1_555
C40 C61 1_555 1_555
C47 N10 1_555 1_555
H20 C47 1_555 1_555
C54 C26 1_555 1_555
H27 C54 1_555 1_555
H34 C54 1_555 1_555
C61 C103 1_555 1_555
C68 N19 1_555 1_555
H41 C68 1_555 1_555
H48 C68 1_555 1_555
N40 C82 1_555 1_555
C75 N10 1_555 1_555
H55 C75 1_555 1_555
C82 N26 1_555 1_555
N49 C110 1_555 1_555
C89 C40 1_555 1_555
H62 C89 1_555 1_555
H69 C89 1_555 1_555
H76 C89 1_555 1_555
C96 C19 1_555 1_555
H83 C96 1_555 1_555
H90 C96 1_555 1_555
H97 C96 1_555 1_555
C103 C33 1_555 1_555
N56 N26 1_555 1_555
C110 C61 1_555 1_555
H104 C110 1_555 1_555
H111 C110 1_555 1_555
C117 N49 1_555 1_555
C124 C103 1_555 1_555
H125 C124 1_555 1_555
H132 C124 1_555 1_555
H139 C124 1_555 1_555
C131 N40 1_555 1_555
N63 N49 1_555 1_555
C138 N63 1_555 1_555
H146 C138 1_555 1_555
N70 C117 1_555 1_555
N78 Cu6 1_555 1_555
O5 Cu6 1_555 1_555
O8 Cu6 1_555 1_555
N19 C47 1_555 1_555
C33 C68 1_555 1_555
N56 C131 1_555 1_555
C138 N70 1_555 1_555
C82 H164 1_555 1_555
O8 H186 1_555 1_555
N16 Cu3_3 1_555 1_555
N25 N39 1_555 1_555
C25 C32 1_555 1_555
N32 C60 1_555 1_555
C32 C46 1_555 1_555
C39 C25 1_555 1_555
N39 C81 1_555 1_555
C46 C67 1_555 1_555
C53 N16 1_555 1_555
H26 C53 1_555 1_555
C60 C32 1_555 1_555
H33 C60 1_555 1_555
H40 C60 1_555 1_555
C67 C109 1_555 1_555
C74 N25 1_555 1_555
H47 C74 1_555 1_555
H54 C74 1_555 1_555
N46 Cu6_2 1_555 1_555
C81 N16 1_555 1_555
H61 C81 1_555 1_555
C88 N32 1_555 1_555
N55 C116 1_555 1_555
C95 C46 1_555 1_555
H68 C95 1_555 1_555
H75 C95 1_555 1_555
H82 C95 1_555 1_555
C102 C25 1_555 1_555
H89 C102 1_555 1_555
H96 C102 1_555 1_555
H103 C102 1_555 1_555
C109 C39 1_555 1_555
N62 N32 1_555 1_555
C116 C67 1_555 1_555
H110 C116 1_555 1_555
H117 C116 1_555 1_555
C123 N55 1_555 1_555
C130 C109 1_555 1_555
H131 C130 1_555 1_555
H138 C130 1_555 1_555
H145 C130 1_555 1_555
C137 N46 1_555 1_555
N69 N55 1_555 1_555
C144 N69 1_555 1_555
H152 C144 1_555 1_555
O4_3 Cu3_3 1_555 1_555
N76 C123 1_555 1_555
N77 Cu6_2 1_555 1_555
O5_2 Cu6_2 1_555 1_555
O8_2 Cu6_2 1_555 1_555
N25 C53 1_555 1_555
C39 C74 1_555 1_555
N46 C88 1_555 1_555
N62 C137 1_555 1_555
C144 N76 1_555 1_555
C88 H166 1_555 1_555
C137 H168 1_555 1_555
O5_2 H176 1_555 1_555
O5_2 H177 1_555 1_555
O8_2 H187 1_555 1_555
O1_4 Cu1_4 1_555 1_555
Cu7 N41 1_555 1_555
N11 Cu1_4 1_555 1_555
N20 N34 1_555 1_555
C20 C27 1_555 1_555
N27 C55 1_555 1_555
C27 C41 1_555 1_555
C34 C20 1_555 1_555
N34 C76 1_555 1_555
C41 C62 1_555 1_555
C48 N11 1_555 1_555
H21 C48 1_555 1_555
C55 C27 1_555 1_555
H28 C55 1_555 1_555
H35 C55 1_555 1_555
C62 C104 1_555 1_555
C69 N20 1_555 1_555
H42 C69 1_555 1_555
H49 C69 1_555 1_555
N41 C83 1_555 1_555
C76 N11 1_555 1_555
H56 C76 1_555 1_555
C83 N27 1_555 1_555
N50 C111 1_555 1_555
C90 C41 1_555 1_555
H63 C90 1_555 1_555
H70 C90 1_555 1_555
H77 C90 1_555 1_555
C97 C20 1_555 1_555
H84 C97 1_555 1_555
H91 C97 1_555 1_555
H98 C97 1_555 1_555
C104 C34 1_555 1_555
N57 N27 1_555 1_555
C111 C62 1_555 1_555
H105 C111 1_555 1_555
H112 C111 1_555 1_555
C118 N50 1_555 1_555
C125 C104 1_555 1_555
H126 C125 1_555 1_555
H133 C125 1_555 1_555
H140 C125 1_555 1_555
C132 N41 1_555 1_555
N64 N50 1_555 1_555
C139 N64 1_555 1_555
H147 C139 1_555 1_555
N71 C118 1_555 1_555
N80 Cu7 1_555 1_555
O6 Cu7 1_555 1_555
O9 Cu7 1_555 1_555
N20 C48 1_555 1_555
C34 C69 1_555 1_555
N57 C132 1_555 1_555
C139 N71 1_555 1_555
C83 H162 1_555 1_555
C132 H171 1_555 1_555
O9 H178 1_555 1_555
N17 Cu3_4 1_555 1_555
N47 Cu7_2 1_555 1_555
O4_4 Cu3_4 1_555 1_555
N79 Cu7_2 1_555 1_555
O6_2 Cu7_2 1_555 1_555
O9_2 Cu7_2 1_555 1_555
O9_2 H179 1_555 1_555
O6_2 H180 1_555 1_555
O6_2 H181 1_555 1_555
Cu5 N15_2 1_555 1_555
Cu12 N45_2 1_555 1_555
N15_2 C52_2 1_555 1_555
N24_2 N38_2 1_555 1_555
C24_2 C31_2 1_555 1_555
N31_2 C59_2 1_555 1_555
C31_2 C45_2 1_555 1_555
C38_2 C24_2 1_555 1_555
N38_2 C80_2 1_555 1_555
C45_2 C66_2 1_555 1_555
C52_2 N24_2 1_555 1_555
H25_2 C52_2 1_555 1_555
C59_2 C31_2 1_555 1_555
H32_2 C59_2 1_555 1_555
H39_2 C59_2 1_555 1_555
C66_2 C108_2 1_555 1_555
C73_2 N24_2 1_555 1_555
H46_2 C73_2 1_555 1_555
H53_2 C73_2 1_555 1_555
N45_2 C87_2 1_555 1_555
C80_2 N15_2 1_555 1_555
H60_2 C80_2 1_555 1_555
C87_2 N31_2 1_555 1_555
N54_2 C115_2 1_555 1_555
C94_2 C45_2 1_555 1_555
H67_2 C94_2 1_555 1_555
H74_2 C94_2 1_555 1_555
H81_2 C94_2 1_555 1_555
C101_2 C24_2 1_555 1_555
H88_2 C101_2 1_555 1_555
H95_2 C101_2 1_555 1_555
H102_2 C101_2 1_555 1_555
C108_2 C38_2 1_555 1_555
N61_2 N31_2 1_555 1_555
C115_2 C66_2 1_555 1_555
H109_2 C115_2 1_555 1_555
H116_2 C115_2 1_555 1_555
C122_2 N54_2 1_555 1_555
H123_2 C122_2 1_555 1_555
C129_2 C108_2 1_555 1_555
H130_2 C129_2 1_555 1_555
H137_2 C129_2 1_555 1_555
H144_2 C129_2 1_555 1_555
C136_2 N45_2 1_555 1_555
N68_2 N54_2 1_555 1_555
C143_2 N68_2 1_555 1_555
H151_2 C143_2 1_555 1_555
C38_2 C73_2 1_555 1_555
N61_2 C136_2 1_555 1_555
C122_2 N78 1_555 1_555
C143_2 N78 1_555 1_555
C131 H153_2 1_555 1_555
C87_2 H165_2 1_555 1_555
C136_2 H174_2 1_555 1_555
Cu4 N14_2 1_555 1_555
Cu12 N44_2 1_555 1_555
N14_2 C51_2 1_555 1_555
N23_2 N37_2 1_555 1_555
C23_2 C30_2 1_555 1_555
N30_2 C58_2 1_555 1_555
C30_2 C44_2 1_555 1_555
C37_2 C23_2 1_555 1_555
N37_2 C79_2 1_555 1_555
C44_2 C65_2 1_555 1_555
C51_2 N23_2 1_555 1_555
H24_2 C51_2 1_555 1_555
C58_2 C30_2 1_555 1_555
H31_2 C58_2 1_555 1_555
H38_2 C58_2 1_555 1_555
C65_2 C107_2 1_555 1_555
C72_2 N23_2 1_555 1_555
H45_2 C72_2 1_555 1_555
H52_2 C72_2 1_555 1_555
N44_2 C86_2 1_555 1_555
C79_2 N14_2 1_555 1_555
H59_2 C79_2 1_555 1_555
C86_2 N30_2 1_555 1_555
N53_2 C114_2 1_555 1_555
C93_2 C44_2 1_555 1_555
H66_2 C93_2 1_555 1_555
H73_2 C93_2 1_555 1_555
H80_2 C93_2 1_555 1_555
C100_2 C23_2 1_555 1_555
H87_2 C100_2 1_555 1_555
H94_2 C100_2 1_555 1_555
H101_2 C100_2 1_555 1_555
C107_2 C37_2 1_555 1_555
N60_2 N30_2 1_555 1_555
C114_2 C65_2 1_555 1_555
H108_2 C114_2 1_555 1_555
H115_2 C114_2 1_555 1_555
C121_2 N53_2 1_555 1_555
H122_2 C121_2 1_555 1_555
C128_2 C107_2 1_555 1_555
H129_2 C128_2 1_555 1_555
H136_2 C128_2 1_555 1_555
H143_2 C128_2 1_555 1_555
C135_2 N44_2 1_555 1_555
N67_2 N53_2 1_555 1_555
C142_2 N67_2 1_555 1_555
H150_2 C142_2 1_555 1_555
C37_2 C72_2 1_555 1_555
N60_2 C135_2 1_555 1_555
C121_2 N77 1_555 1_555
C142_2 N77 1_555 1_555
C86_2 H161_2 1_555 1_555
C135_2 H175_2 1_555 1_555
N25_2 N39_2 1_555 1_555
C25_2 C32_2 1_555 1_555
N32_2 C60_2 1_555 1_555
C32_2 C46_2 1_555 1_555
C39_2 C25_2 1_555 1_555
N39_2 C81_2 1_555 1_555
C46_2 C67_2 1_555 1_555
C53_2 N17 1_555 1_555
H26_2 C53_2 1_555 1_555
C60_2 C32_2 1_555 1_555
H33_2 C60_2 1_555 1_555
H40_2 C60_2 1_555 1_555
C67_2 C109_2 1_555 1_555
C74_2 N25_2 1_555 1_555
H47_2 C74_2 1_555 1_555
H54_2 C74_2 1_555 1_555
C81_2 N17 1_555 1_555
H61_2 C81_2 1_555 1_555
C88_2 N32_2 1_555 1_555
N55_2 C116_2 1_555 1_555
C95_2 C46_2 1_555 1_555
H68_2 C95_2 1_555 1_555
H75_2 C95_2 1_555 1_555
H82_2 C95_2 1_555 1_555
C102_2 C25_2 1_555 1_555
H89_2 C102_2 1_555 1_555
H96_2 C102_2 1_555 1_555
H103_2 C102_2 1_555 1_555
C109_2 C39_2 1_555 1_555
N62_2 N32_2 1_555 1_555
C116_2 C67_2 1_555 1_555
H110_2 C116_2 1_555 1_555
H117_2 C116_2 1_555 1_555
C123_2 N55_2 1_555 1_555
C130_2 C109_2 1_555 1_555
H131_2 C130_2 1_555 1_555
H138_2 C130_2 1_555 1_555
H145_2 C130_2 1_555 1_555
C137_2 N47 1_555 1_555
N69_2 N55_2 1_555 1_555
C144_2 N69_2 1_555 1_555
H152_2 C144_2 1_555 1_555
N76_2 C123_2 1_555 1_555
N25_2 C53_2 1_555 1_555
C39_2 C74_2 1_555 1_555
N47 C88_2 1_555 1_555
N62_2 C137_2 1_555 1_555
C144_2 N76_2 1_555 1_555
C88_2 H166_2 1_555 1_555
C137_2 H168_2 1_555 1_555
N25_3 N39_3 1_555 1_555
C25_3 C32_3 1_555 1_555
N32_3 C60_3 1_555 1_555
C32_3 C46_3 1_555 1_555
C39_3 C25_3 1_555 1_555
N39_3 C81_3 1_555 1_555
C46_3 C67_3 1_555 1_555
C53_3 N18 1_555 1_555
H26_3 C53_3 1_555 1_555
C60_3 C32_3 1_555 1_555
H33_3 C60_3 1_555 1_555
H40_3 C60_3 1_555 1_555
C67_3 C109_3 1_555 1_555
C74_3 N25_3 1_555 1_555
H47_3 C74_3 1_555 1_555
H54_3 C74_3 1_555 1_555
C81_3 N18 1_555 1_555
H61_3 C81_3 1_555 1_555
C88_3 N32_3 1_555 1_555
N55_3 C116_3 1_555 1_555
C95_3 C46_3 1_555 1_555
H68_3 C95_3 1_555 1_555
H75_3 C95_3 1_555 1_555
H82_3 C95_3 1_555 1_555
C102_3 C25_3 1_555 1_555
H89_3 C102_3 1_555 1_555
H96_3 C102_3 1_555 1_555
H103_3 C102_3 1_555 1_555
C109_3 C39_3 1_555 1_555
N62_3 N32_3 1_555 1_555
C116_3 C67_3 1_555 1_555
H110_3 C116_3 1_555 1_555
H117_3 C116_3 1_555 1_555
C123_3 N55_3 1_555 1_555
C130_3 C109_3 1_555 1_555
H131_3 C130_3 1_555 1_555
H138_3 C130_3 1_555 1_555
H145_3 C130_3 1_555 1_555
C137_3 N48 1_555 1_555
N69_3 N55_3 1_555 1_555
C144_3 N69_3 1_555 1_555
H152_3 C144_3 1_555 1_555
N76_3 C123_3 1_555 1_555
N25_3 C53_3 1_555 1_555
C39_3 C74_3 1_555 1_555
N48 C88_3 1_555 1_555
N62_3 C137_3 1_555 1_555
C144_3 N76_3 1_555 1_555
C88_3 H166_3 1_555 1_555
C137_3 H168_3 1_555 1_555
Cu5 N15_3 1_555 1_555
Cu9 N45_3 1_555 1_555
N15_3 C52_3 1_555 1_555
N24_3 N38_3 1_555 1_555
C24_3 C31_3 1_555 1_555
N31_3 C59_3 1_555 1_555
C31_3 C45_3 1_555 1_555
C38_3 C24_3 1_555 1_555
N38_3 C80_3 1_555 1_555
C45_3 C66_3 1_555 1_555
C52_3 N24_3 1_555 1_555
H25_3 C52_3 1_555 1_555
C59_3 C31_3 1_555 1_555
H32_3 C59_3 1_555 1_555
H39_3 C59_3 1_555 1_555
C66_3 C108_3 1_555 1_555
C73_3 N24_3 1_555 1_555
H46_3 C73_3 1_555 1_555
H53_3 C73_3 1_555 1_555
N45_3 C87_3 1_555 1_555
C80_3 N15_3 1_555 1_555
H60_3 C80_3 1_555 1_555
C87_3 N31_3 1_555 1_555
N54_3 C115_3 1_555 1_555
C94_3 C45_3 1_555 1_555
H67_3 C94_3 1_555 1_555
H74_3 C94_3 1_555 1_555
H81_3 C94_3 1_555 1_555
C101_3 C24_3 1_555 1_555
H88_3 C101_3 1_555 1_555
H95_3 C101_3 1_555 1_555
H102_3 C101_3 1_555 1_555
C108_3 C38_3 1_555 1_555
N61_3 N31_3 1_555 1_555
C115_3 C66_3 1_555 1_555
H109_3 C115_3 1_555 1_555
H116_3 C115_3 1_555 1_555
C122_3 N54_3 1_555 1_555
H123_3 C122_3 1_555 1_555
C129_3 C108_3 1_555 1_555
H130_3 C129_3 1_555 1_555
H137_3 C129_3 1_555 1_555
H144_3 C129_3 1_555 1_555
C136_3 N45_3 1_555 1_555
N68_3 N54_3 1_555 1_555
C143_3 N68_3 1_555 1_555
H151_3 C143_3 1_555 1_555
C38_3 C73_3 1_555 1_555
N61_3 C136_3 1_555 1_555
C122_3 N80 1_555 1_555
C143_3 N80 1_555 1_555
C87_3 H165_3 1_555 1_555
C136_3 H174_3 1_555 1_555
Cu4 N14_3 1_555 1_555
Cu9 N44_3 1_555 1_555
N14_3 C51_3 1_555 1_555
N23_3 N37_3 1_555 1_555
C23_3 C30_3 1_555 1_555
N30_3 C58_3 1_555 1_555
C30_3 C44_3 1_555 1_555
C37_3 C23_3 1_555 1_555
N37_3 C79_3 1_555 1_555
C44_3 C65_3 1_555 1_555
C51_3 N23_3 1_555 1_555
H24_3 C51_3 1_555 1_555
C58_3 C30_3 1_555 1_555
H31_3 C58_3 1_555 1_555
H38_3 C58_3 1_555 1_555
C65_3 C107_3 1_555 1_555
C72_3 N23_3 1_555 1_555
H45_3 C72_3 1_555 1_555
H52_3 C72_3 1_555 1_555
N44_3 C86_3 1_555 1_555
C79_3 N14_3 1_555 1_555
H59_3 C79_3 1_555 1_555
C86_3 N30_3 1_555 1_555
N53_3 C114_3 1_555 1_555
C93_3 C44_3 1_555 1_555
H66_3 C93_3 1_555 1_555
H73_3 C93_3 1_555 1_555
H80_3 C93_3 1_555 1_555
C100_3 C23_3 1_555 1_555
H87_3 C100_3 1_555 1_555
H94_3 C100_3 1_555 1_555
H101_3 C100_3 1_555 1_555
C107_3 C37_3 1_555 1_555
N60_3 N30_3 1_555 1_555
C114_3 C65_3 1_555 1_555
H108_3 C114_3 1_555 1_555
H115_3 C114_3 1_555 1_555
C121_3 N53_3 1_555 1_555
H122_3 C121_3 1_555 1_555
C128_3 C107_3 1_555 1_555
H129_3 C128_3 1_555 1_555
H136_3 C128_3 1_555 1_555
H143_3 C128_3 1_555 1_555
C135_3 N44_3 1_555 1_555
N67_3 N53_3 1_555 1_555
C142_3 N67_3 1_555 1_555
H150_3 C142_3 1_555 1_555
C37_3 C72_3 1_555 1_555
N60_3 C135_3 1_555 1_555
C121_3 N79 1_555 1_555
C142_3 N79 1_555 1_555
C86_3 H161_3 1_555 1_555
C135_3 H175_3 1_555 1_555
Cu5 N15_4 1_555 1_555
Cu10 N45_4 1_555 1_555
N15_4 C52_4 1_555 1_555
N24_4 N38_4 1_555 1_555
C24_4 C31_4 1_555 1_555
N31_4 C59_4 1_555 1_555
C31_4 C45_4 1_555 1_555
C38_4 C24_4 1_555 1_555
N38_4 C80_4 1_555 1_555
C45_4 C66_4 1_555 1_555
C52_4 N24_4 1_555 1_555
H25_4 C52_4 1_555 1_555
C59_4 C31_4 1_555 1_555
H32_4 C59_4 1_555 1_555
H39_4 C59_4 1_555 1_555
C66_4 C108_4 1_555 1_555
C73_4 N24_4 1_555 1_555
H46_4 C73_4 1_555 1_555
H53_4 C73_4 1_555 1_555
N45_4 C87_4 1_555 1_555
C80_4 N15_4 1_555 1_555
H60_4 C80_4 1_555 1_555
C87_4 N31_4 1_555 1_555
N54_4 C115_4 1_555 1_555
C94_4 C45_4 1_555 1_555
H67_4 C94_4 1_555 1_555
H74_4 C94_4 1_555 1_555
H81_4 C94_4 1_555 1_555
C101_4 C24_4 1_555 1_555
H88_4 C101_4 1_555 1_555
H95_4 C101_4 1_555 1_555
H102_4 C101_4 1_555 1_555
C108_4 C38_4 1_555 1_555
N61_4 N31_4 1_555 1_555
C115_4 C66_4 1_555 1_555
H109_4 C115_4 1_555 1_555
H116_4 C115_4 1_555 1_555
C122_4 N54_4 1_555 1_555
H123_4 C122_4 1_555 1_555
C129_4 C108_4 1_555 1_555
H130_4 C129_4 1_555 1_555
H137_4 C129_4 1_555 1_555
H144_4 C129_4 1_555 1_555
C136_4 N45_4 1_555 1_555
N68_4 N54_4 1_555 1_555
C143_4 N68_4 1_555 1_555
H151_4 C143_4 1_555 1_555
C38_4 C73_4 1_555 1_555
N61_4 C136_4 1_555 1_555
C122_4 N82 1_555 1_555
C143_4 N82 1_555 1_555
C87_4 H165_4 1_555 1_555
C136_4 H174_4 1_555 1_555
Cu4 N14_4 1_555 1_555
Cu10 N44_4 1_555 1_555
N14_4 C51_4 1_555 1_555
N23_4 N37_4 1_555 1_555
C23_4 C30_4 1_555 1_555
N30_4 C58_4 1_555 1_555
C30_4 C44_4 1_555 1_555
C37_4 C23_4 1_555 1_555
N37_4 C79_4 1_555 1_555
C44_4 C65_4 1_555 1_555
C51_4 N23_4 1_555 1_555
H24_4 C51_4 1_555 1_555
C58_4 C30_4 1_555 1_555
H31_4 C58_4 1_555 1_555
H38_4 C58_4 1_555 1_555
C65_4 C107_4 1_555 1_555
C72_4 N23_4 1_555 1_555
H45_4 C72_4 1_555 1_555
H52_4 C72_4 1_555 1_555
N44_4 C86_4 1_555 1_555
C79_4 N14_4 1_555 1_555
H59_4 C79_4 1_555 1_555
C86_4 N30_4 1_555 1_555
N53_4 C114_4 1_555 1_555
C93_4 C44_4 1_555 1_555
H66_4 C93_4 1_555 1_555
H73_4 C93_4 1_555 1_555
H80_4 C93_4 1_555 1_555
C100_4 C23_4 1_555 1_555
H87_4 C100_4 1_555 1_555
H94_4 C100_4 1_555 1_555
H101_4 C100_4 1_555 1_555
C107_4 C37_4 1_555 1_555
N60_4 N30_4 1_555 1_555
C114_4 C65_4 1_555 1_555
H108_4 C114_4 1_555 1_555
H115_4 C114_4 1_555 1_555
C121_4 N53_4 1_555 1_555
H122_4 C121_4 1_555 1_555
C128_4 C107_4 1_555 1_555
H129_4 C128_4 1_555 1_555
H136_4 C128_4 1_555 1_555
H143_4 C128_4 1_555 1_555
C135_4 N44_4 1_555 1_555
N67_4 N53_4 1_555 1_555
C142_4 N67_4 1_555 1_555
H150_4 C142_4 1_555 1_555
C37_4 C72_4 1_555 1_555
N60_4 C135_4 1_555 1_555
C121_4 N81 1_555 1_555
C142_4 N81 1_555 1_555
C86_4 H161_4 1_555 1_555
C135_4 H175_4 1_555 1_555
O1_5 Cu4 1_555 1_555
O3_3 Cu10 1_555 1_555
O4_5 Cu5 1_555 1_555
O8_3 Cu15 1_555 1_555
O9_3 Cu12 1_555 1_555
O10_3 Cu9 1_555 1_555
O3 H179_2 1_555 1_555
O2 H180_2 1_555 1_555
O2 H181_2 1_555 1_555
O3_2 H178_2 1_555 1_555
O7 H176_2 1_555 1_555
O7 H177_2 1_555 1_555
O10 H187_2 1_555 1_555
O10_2 H186_2 1_555 1_555
O5 H182_2 1_555 1_555
O5 H183_2 1_555 1_555
O8 H185_2 1_555 1_555
O8_2 H184_2 1_555 1_555
O9 H156_2 1_555 1_555
O6 H157_2 1_555 1_555
O6 H158_2 1_555 1_555
O9_2 H155_2 1_555 1_555
N83 O11 1_555 1_555
O12 N83 1_555 1_555
O13 N83 1_555 1_555
N83_2 O11_2 1_555 1_555
O12_2 N83_2 1_555 1_555
O13_2 N83_2 1_555 1_555
N83_3 O11_3 1_555 1_555
O12_3 N83_3 1_555 1_555
O13_3 N83_3 1_555 1_555
N83_4 O11_4 1_555 1_555
O12_4 N83_4 1_555 1_555
O13_4 N83_4 1_555 1_555
N83_5 O11_5 1_555 1_555
O12_5 N83_5 1_555 1_555
O13_5 N83_5 1_555 1_555
N83_6 O11_6 1_555 1_555
O12_6 N83_6 1_555 1_555
O13_6 N83_6 1_555 1_555
N83_7 O11_7 1_555 1_555
O12_7 N83_7 1_555 1_555
O13_7 N83_7 1_555 1_555
N83_8 O11_8 1_555 1_555
O12_8 N83_8 1_555 1_555
O13_8 N83_8 1_555 1_555
N83_9 O11_9 1_555 1_555
O12_9 N83_9 1_555 1_555
O13_9 N83_9 1_555 1_555
N83_10 O11_10 1_555 1_555
O12_10 N83_10 1_555 1_555
O13_10 N83_10 1_555 1_555
N83_11 O11_11 1_555 1_555
O12_11 N83_11 1_555 1_555
O13_11 N83_11 1_555 1_555
N83_12 O11_12 1_555 1_555
O12_12 N83_12 1_555 1_555
O13_12 N83_12 1_555 1_555

#END
