
###############################################################################
#
# This file contains modified crystal structure data generated from the
# MOF subset of the Cambridge Structural Database (CSD) v543 
# hosted by the Cambridge Crystallographic Data Centre (CCDC).
#
# This work is licensed under the Creative Commons
# Attribution-NonCommercial-ShareAlike 4.0 International License.
# To view a copy of this license, visit
# http://creativecommons.org/licenses/by-nc-sa/4.0/
# or send a letter to
# Creative Commons, PO Box 1866, Mountain View, CA 94042, USA.
#
# CIF created using the CSD Python API on 29 September 2022
# The structure has been converted into the P1 space group
# The structure has a 3D framework
# The original CSD entry OQOBUT is in the tetragonal crystal system
# The original CSD entry OQOBUT is in a Sohncke space group
# The framework has been calculated to contain at least 10.0% void space
# The void calculation uses a probe of radius 1.32A, grid spacing 0.4
# H atom positions have been added when not included in the experimental data
#
###############################################################################

data_OQOBUT
_chemical_formula_moiety         '(C128 H64 Al16 O73)n'
_symmetry_cell_setting           triclinic
_symmetry_space_group_name_H-M   'P 1'
_symmetry_Int_Tables_number      1
_space_group_name_Hall           'P 1'
loop_
_symmetry_equiv_pos_site_id
_symmetry_equiv_pos_as_xyz
1 x,y,z
_cell_length_a                   21.2928(4)
_cell_length_b                   21.2928(4)
_cell_length_c                   10.7304(3)
_cell_angle_alpha                90
_cell_angle_beta                 90
_cell_angle_gamma                90
_cell_volume                     4864.98
loop_
_atom_site_label
_atom_site_type_symbol
_atom_site_fract_x
_atom_site_fract_y
_atom_site_fract_z
_atom_site_U_iso_or_equiv
_atom_site_thermal_displace_type
Al1 Al 0.2554(3) 0.3138(3) 0.2443(8) 1.0400 Uiso
O1 O 0.2487(5) 0.2594(4) 0.3805(14) 1.0400 Uiso
C1 C 0.0564 0.3324 0.2586 1.0400 Uiso
C3 C 0.1188 0.3141 0.2103 1.0400 Uiso
C4 C 0.0524 0.3756 0.3585 1.0400 Uiso
C5 C 0.0008 0.3100 0.2030 1.0400 Uiso
O2 O 0.1685(3) 0.3318(5) 0.2590(13) 1.0400 Uiso
O5 O 0.1205(5) 0.2773(4) 0.1157(9) 1.0400 Uiso
C9 C 0.5578 0.2688 0.2051 1.0400 Uiso
C10 C 0.4452 0.2730 0.0707 1.0400 Uiso
C11 C 0.6164 0.2752 0.2756 1.0400 Uiso
C12 C 0.5582 0.2778 0.0745 1.0400 Uiso
C13 C 0.5007 0.2602 0.2677 1.0400 Uiso
C14 C 0.3840 0.2652 0.2678 1.0400 Uiso
C15 C 0.4442 0.2639 0.2013 1.0400 Uiso
C16 C 0.5021 0.2797 0.0078 1.0400 Uiso
O6 O 0.6575(3) 0.3109(4) 0.235(1) 1.0400 Uiso
O7 O 0.3430(3) 0.2991(4) 0.2213(15) 1.0400 Uiso
O8 O 0.3769(5) 0.2362(4) 0.3695(9) 1.0400 Uiso
O9 O 0.6152(4) 0.2383(4) 0.3643(8) 1.0400 Uiso
Al2 Al 0.7457(3) 0.3198(3) 0.2433(9) 1.0400 Uiso
O10 O 0.7456(4) 0.2584(4) 0.3748(14) 1.0400 Uiso
Al4 Al 0.3138(3) 0.2446(3) 0.4943(8) 1.0400 Uiso
O11 O 0.2406(4) 0.2487(5) 0.1305(14) 1.0400 Uiso
O12 O 0.8353(3) 0.3296(4) 0.2499(9) 1.0400 Uiso
O13 O 0.7335(3) 0.3849(5) 0.3649(8) 1.0400 Uiso
O14 O 0.2773(4) 0.3795(5) 0.3657(9) 1.0400 Uiso
O15 O 0.2638(4) 0.3769(5) 0.1195(9) 1.0400 Uiso
O16 O 0.7383(4) 0.3848(4) 0.1143(8) 1.0400 Uiso
Al5 Al 0.6802(3) 0.2457(3) 0.4933(9) 1.0400 Uiso
O17 O 0.7584(4) 0.2544(4) 0.1248(14) 1.0400 Uiso
H1 H 0.0952345 0.392773 0.402246 . .
H2 H 0.500256 0.250693 0.367415 . .
H4 H 0.602709 0.283287 0.0257086 . .
H5 H 0.401235 0.274782 0.0189697 . .
H6 H 0.00325969 0.275936 0.127456 . .
Al3 Al 0.1862(3) 0.2554(3) 0.9943(8) 1.0400 Uiso
H7 H 0.502687 0.286375 0.907187 . .
C2 C 0.9395 0.3749 0.3453 1.0400 Uiso
C6 C 0.8831 0.3126 0.1826 1.0400 Uiso
C7 C 0.9420 0.3317 0.2452 1.0400 Uiso
C8 C 0.9943 0.3964 0.4015 1.0400 Uiso
O4 O 0.8849(5) 0.2665(3) 0.1149(8) 1.0400 Uiso
H3 H 0.99178 0.429394 0.478883 . .
H8 H 0.894151 0.391502 0.378714 . .
Al6 Al 0.8198(3) 0.2543(3) 0.9933(9) 1.0400 Uiso
Al1_2 Al 0.2446(3) 0.1862(3) 0.7443(8) 1.0400 Uiso
O1_2 O 0.2513(5) 0.2406(4) 0.8805(14) 1.0400 Uiso
C1_2 C 0.4436 0.1676 0.7586 1.0400 Uiso
C2_2 C 0.5605 0.1251 0.8453 1.0400 Uiso
C3_2 C 0.3812 0.1859 0.7103 1.0400 Uiso
C4_2 C 0.4476 0.1244 0.8585 1.0400 Uiso
C5_2 C 0.4992 0.1900 0.7030 1.0400 Uiso
C6_2 C 0.6169 0.1874 0.6826 1.0400 Uiso
C7_2 C 0.5580 0.1683 0.7452 1.0400 Uiso
C8_2 C 0.5057 0.1036 0.9015 1.0400 Uiso
O2_2 O 0.3315(3) 0.1682(5) 0.7590(13) 1.0400 Uiso
O3 O 0.6647(3) 0.1704(4) 0.7499(9) 1.0400 Uiso
O4_2 O 0.6151(5) 0.2335(3) 0.6149(8) 1.0400 Uiso
O5_2 O 0.3795(5) 0.2227(4) 0.6157(9) 1.0400 Uiso
C10_2 C 0.0548 0.2270 0.5707 1.0400 Uiso
C14_2 C 0.1160 0.2348 0.7678 1.0400 Uiso
C15_2 C 0.0558 0.2361 0.7013 1.0400 Uiso
O7_2 O 0.1570(3) 0.2009(4) 0.7213(15) 1.0400 Uiso
O8_2 O 0.1231(5) 0.2638(4) 0.8695(9) 1.0400 Uiso
O11_2 O 0.2594(4) 0.2513(5) 0.6305(14) 1.0400 Uiso
O14_2 O 0.2227(4) 0.1205(5) 0.8657(9) 1.0400 Uiso
O15_2 O 0.2362(4) 0.1231(5) 0.6195(9) 1.0400 Uiso
Al7 Al 0.7543(3) 0.1802(3) 0.7433(9) 1.0400 Uiso
H1_2 H 0.404766 0.107227 0.902246 . .
H3_2 H 0.50822 0.0706056 0.978883 . .
H5_2 H 0.0987651 0.225218 0.51897 . .
H6_2 H 0.49674 0.224064 0.627456 . .
H8_2 H 0.605849 0.108498 0.878714 . .
C9_2 C 0.9422 0.2312 0.7051 1.0400 Uiso
C11_2 C 0.8836 0.2248 0.7756 1.0400 Uiso
C12_2 C 0.9418 0.2222 0.5745 1.0400 Uiso
C13_2 C 0.9993 0.2398 0.7677 1.0400 Uiso
C16_2 C 0.9979 0.2203 0.5078 1.0400 Uiso
O6_2 O 0.8425(3) 0.1891(4) 0.735(1) 1.0400 Uiso
O9_2 O 0.8848(4) 0.2617(4) 0.8643(8) 1.0400 Uiso
O10_2 O 0.7544(4) 0.2416(4) 0.8748(14) 1.0400 Uiso
O13_2 O 0.7665(3) 0.1151(5) 0.8649(8) 1.0400 Uiso
O16_2 O 0.7617(4) 0.1152(4) 0.6143(8) 1.0400 Uiso
O17_2 O 0.7416(4) 0.2456(4) 0.6248(14) 1.0400 Uiso
H2_2 H 0.999744 0.249307 0.867415 . .
H4_2 H 0.897291 0.216713 0.525709 . .
H7_2 H 0.997313 0.213625 0.407187 . .
C9_3 C 0.7312 0.0578 0.4551 1.0400 Uiso
C11_3 C 0.7248 0.1164 0.5256 1.0400 Uiso
C12_3 C 0.7222 0.0582 0.3245 1.0400 Uiso
C13_3 C 0.7398 0.0007 0.5177 1.0400 Uiso
C16_3 C 0.7203 0.0021 0.2578 1.0400 Uiso
O6_3 O 0.6891(4) 0.1575(3) 0.485(1) 1.0400 Uiso
O12_2 O 0.6704(4) 0.3353(3) 0.4999(9) 1.0400 Uiso
H2_3 H 0.749307 0.000256192 0.617415 . .
H4_3 H 0.716713 0.102709 0.275709 . .
H7_3 H 0.713625 0.00268722 0.157187 . .
Al1_3 Al 0.6862(3) 0.7554(3) 0.4943(8) 1.0400 Uiso
O1_3 O 0.7406(4) 0.7487(5) 0.6305(14) 1.0400 Uiso
C1_3 C 0.6676 0.5564 0.5086 1.0400 Uiso
C2_3 C 0.6251 0.4395 0.5953 1.0400 Uiso
C3_3 C 0.6859 0.6188 0.4603 1.0400 Uiso
C4_3 C 0.6244 0.5524 0.6085 1.0400 Uiso
C5_3 C 0.6900 0.5008 0.4530 1.0400 Uiso
C6_3 C 0.6874 0.3831 0.4326 1.0400 Uiso
C7_3 C 0.6683 0.4420 0.4952 1.0400 Uiso
C8_3 C 0.6036 0.4943 0.6515 1.0400 Uiso
O2_3 O 0.6682(5) 0.6685(3) 0.5090(13) 1.0400 Uiso
O5_3 O 0.7227(4) 0.6205(5) 0.3657(9) 1.0400 Uiso
C10_3 C 0.7270 0.9452 0.3207 1.0400 Uiso
C14_3 C 0.7348 0.8840 0.5178 1.0400 Uiso
C15_3 C 0.7361 0.9442 0.4513 1.0400 Uiso
O7_3 O 0.7009(4) 0.8430(3) 0.4713(15) 1.0400 Uiso
O8_3 O 0.7638(4) 0.8769(5) 0.6195(9) 1.0400 Uiso
Al3_2 Al 0.7446(3) 0.6862(3) 0.2443(8) 1.0400 Uiso
Al4_2 Al 0.7554(3) 0.8138(3) 0.7443(8) 1.0400 Uiso
O11_3 O 0.7513(5) 0.7406(4) 0.3805(14) 1.0400 Uiso
O14_3 O 0.6205(5) 0.7773(4) 0.6157(9) 1.0400 Uiso
O15_3 O 0.6231(5) 0.7638(4) 0.3695(9) 1.0400 Uiso
H1_3 H 0.607227 0.595234 0.652246 . .
H3_3 H 0.570606 0.49178 0.728883 . .
H5_3 H 0.725218 0.901235 0.26897 . .
H6_3 H 0.724064 0.50326 0.377456 . .
H8_3 H 0.608498 0.394151 0.628714 . .
C6_4 C 0.8126 0.1169 0.9326 1.0400 Uiso
C7_4 C 0.8317 0.0580 0.9952 1.0400 Uiso
O3_2 O 0.8296(4) 0.1647(3) 0.9999(9) 1.0400 Uiso
O1_4 O 0.7594(4) 0.7513(5) 0.1305(14) 1.0400 Uiso
C1_4 C 0.8324 0.9436 0.0086 1.0400 Uiso
C4_4 C 0.8756 0.9476 0.1085 1.0400 Uiso
O2_4 O 0.8318(5) 0.8315(3) 0.0090(13) 1.0400 Uiso
C11_4 C 0.7752 0.3836 0.0256 1.0400 Uiso
C13_4 C 0.7602 0.4993 0.0177 1.0400 Uiso
C14_4 C 0.7652 0.6160 0.0178 1.0400 Uiso
O8_4 O 0.7362(4) 0.6231(5) 0.1195(9) 1.0400 Uiso
O14_4 O 0.8795(5) 0.7227(4) 0.1157(9) 1.0400 Uiso
H1_4 H 0.892773 0.904766 0.152246 . .
H2_4 H 0.750693 0.499744 0.117415 . .
Al1_4 Al 0.8138(3) 0.7446(3) 0.9943(8) 1.0400 Uiso
C3_4 C 0.8141 0.8812 0.9603 1.0400 Uiso
C5_4 C 0.8100 0.9992 0.9530 1.0400 Uiso
O5_4 O 0.7773(4) 0.8795(5) 0.8657(9) 1.0400 Uiso
C9_4 C 0.7688 0.4422 0.9551 1.0400 Uiso
C10_4 C 0.7730 0.5548 0.8207 1.0400 Uiso
C12_4 C 0.7778 0.4418 0.8245 1.0400 Uiso
C15_4 C 0.7639 0.5558 0.9513 1.0400 Uiso
C16_4 C 0.7797 0.4979 0.7578 1.0400 Uiso
O6_4 O 0.8109(4) 0.3425(3) 0.985(1) 1.0400 Uiso
O7_4 O 0.7991(4) 0.6570(3) 0.9713(15) 1.0400 Uiso
O11_4 O 0.7487(5) 0.7594(4) 0.8805(14) 1.0400 Uiso
O15_4 O 0.8769(5) 0.7362(4) 0.8695(9) 1.0400 Uiso
H4_4 H 0.783287 0.397291 0.775709 . .
H5_4 H 0.774782 0.598765 0.76897 . .
H6_4 H 0.775936 0.99674 0.877456 . .
H7_4 H 0.786375 0.497313 0.657187 . .
C2_4 C 0.0605 0.6251 0.3453 1.0400 Uiso
C6_5 C 0.1169 0.6874 0.1826 1.0400 Uiso
C7_5 C 0.0580 0.6683 0.2452 1.0400 Uiso
C8_4 C 0.0057 0.6036 0.4015 1.0400 Uiso
O3_3 O 0.1647(3) 0.6704(4) 0.2499(9) 1.0400 Uiso
O4_3 O 0.1151(5) 0.7335(3) 0.1149(8) 1.0400 Uiso
Al7_2 Al 0.2543(3) 0.6802(3) 0.2433(9) 1.0400 Uiso
H3_4 H 0.00822035 0.570606 0.478883 . .
H8_4 H 0.105849 0.608498 0.378714 . .
Al6_2 Al 0.1802(3) 0.7457(3) 0.9933(9) 1.0400 Uiso
C1_5 C 0.9436 0.6676 0.2586 1.0400 Uiso
C3_5 C 0.8812 0.6859 0.2103 1.0400 Uiso
C4_5 C 0.9476 0.6244 0.3585 1.0400 Uiso
C5_5 C 0.9992 0.6900 0.2030 1.0400 Uiso
O2_5 O 0.8315(3) 0.6682(5) 0.2590(13) 1.0400 Uiso
C9_5 C 0.4422 0.7312 0.2051 1.0400 Uiso
C10_5 C 0.5548 0.7270 0.0707 1.0400 Uiso
C11_5 C 0.3836 0.7248 0.2756 1.0400 Uiso
C12_5 C 0.4418 0.7222 0.0745 1.0400 Uiso
C13_5 C 0.4993 0.7398 0.2677 1.0400 Uiso
C14_5 C 0.6160 0.7348 0.2678 1.0400 Uiso
C15_5 C 0.5558 0.7361 0.2013 1.0400 Uiso
C16_5 C 0.4979 0.7203 0.0078 1.0400 Uiso
O6_5 O 0.3425(3) 0.6891(4) 0.235(1) 1.0400 Uiso
O7_5 O 0.6570(3) 0.7009(4) 0.2213(15) 1.0400 Uiso
O9_3 O 0.3848(4) 0.7617(4) 0.3643(8) 1.0400 Uiso
O10_3 O 0.2544(4) 0.7416(4) 0.3748(14) 1.0400 Uiso
O13_3 O 0.2665(3) 0.6151(5) 0.3649(8) 1.0400 Uiso
O16_3 O 0.2617(4) 0.6152(4) 0.1143(8) 1.0400 Uiso
Al5_2 Al 0.3198(3) 0.7543(3) 0.4933(9) 1.0400 Uiso
O17_3 O 0.2416(4) 0.7456(4) 0.1248(14) 1.0400 Uiso
H1_5 H 0.904766 0.607227 0.402246 . .
H2_5 H 0.499744 0.749307 0.367415 . .
H4_5 H 0.397291 0.716713 0.0257086 . .
H5_5 H 0.598765 0.725218 0.0189697 . .
H6_5 H 0.99674 0.724064 0.127456 . .
H7_5 H 0.497313 0.713625 0.907187 . .
C1_6 C 0.1676 0.0564 0.0086 1.0400 Uiso
C4_6 C 0.1244 0.0524 0.1085 1.0400 Uiso
O2_6 O 0.1682(5) 0.1685(3) 0.0090(13) 1.0400 Uiso
C11_6 C 0.2248 0.6164 0.0256 1.0400 Uiso
C13_6 C 0.2398 0.5007 0.0177 1.0400 Uiso
C14_6 C 0.2348 0.3840 0.0178 1.0400 Uiso
H1_6 H 0.107227 0.0952345 0.152246 . .
H2_6 H 0.249307 0.500256 0.117415 . .
C3_6 C 0.1859 0.1188 0.9603 1.0400 Uiso
C5_6 C 0.1900 0.0008 0.9530 1.0400 Uiso
C9_6 C 0.2312 0.5578 0.9551 1.0400 Uiso
C10_6 C 0.2270 0.4452 0.8207 1.0400 Uiso
C12_6 C 0.2222 0.5582 0.8245 1.0400 Uiso
C15_6 C 0.2361 0.4442 0.9513 1.0400 Uiso
C16_6 C 0.2203 0.5021 0.7578 1.0400 Uiso
O6_6 O 0.1891(4) 0.6575(3) 0.985(1) 1.0400 Uiso
O7_6 O 0.2009(4) 0.3430(3) 0.9713(15) 1.0400 Uiso
O12_3 O 0.1704(4) 0.8353(3) 0.9999(9) 1.0400 Uiso
O16_4 O 0.1152(4) 0.7383(4) 0.8643(8) 1.0400 Uiso
O17_4 O 0.2456(4) 0.7584(4) 0.8748(14) 1.0400 Uiso
H4_6 H 0.216713 0.602709 0.775709 . .
H5_6 H 0.225218 0.401235 0.76897 . .
H6_6 H 0.224064 0.00325969 0.877456 . .
H7_6 H 0.213625 0.502687 0.657187 . .
C6_6 C 0.1874 0.8831 0.9326 1.0400 Uiso
C7_6 C 0.1683 0.9420 0.9952 1.0400 Uiso
O4_4 O 0.2335(3) 0.8849(5) 0.8649(8) 1.0400 Uiso
Al6_3 Al 0.2457(3) 0.8198(3) 0.7433(9) 1.0400 Uiso
C1_7 C 0.3324 0.4436 0.5086 1.0400 Uiso
C2_5 C 0.3749 0.5605 0.5953 1.0400 Uiso
C3_7 C 0.3141 0.3812 0.4603 1.0400 Uiso
C4_7 C 0.3756 0.4476 0.6085 1.0400 Uiso
C5_7 C 0.3100 0.4992 0.4530 1.0400 Uiso
C6_7 C 0.3126 0.6169 0.4326 1.0400 Uiso
C7_7 C 0.3317 0.5580 0.4952 1.0400 Uiso
C8_5 C 0.3964 0.5057 0.6515 1.0400 Uiso
O2_7 O 0.3318(5) 0.3315(3) 0.5090(13) 1.0400 Uiso
O3_4 O 0.3296(4) 0.6647(3) 0.4999(9) 1.0400 Uiso
C10_7 C 0.2730 0.0548 0.3207 1.0400 Uiso
C14_7 C 0.2652 0.1160 0.5178 1.0400 Uiso
C15_7 C 0.2639 0.0558 0.4513 1.0400 Uiso
O7_7 O 0.2991(4) 0.1570(3) 0.4713(15) 1.0400 Uiso
H1_7 H 0.392773 0.404766 0.652246 . .
H3_5 H 0.429394 0.50822 0.728883 . .
H5_7 H 0.274782 0.0987651 0.26897 . .
H6_7 H 0.275936 0.49674 0.377456 . .
H8_5 H 0.391502 0.605849 0.628714 . .
C9_7 C 0.2688 0.9422 0.4551 1.0400 Uiso
C11_7 C 0.2752 0.8836 0.5256 1.0400 Uiso
C12_7 C 0.2778 0.9418 0.3245 1.0400 Uiso
C13_7 C 0.2602 0.9993 0.5177 1.0400 Uiso
C16_7 C 0.2797 0.9979 0.2578 1.0400 Uiso
O6_7 O 0.3109(4) 0.8425(3) 0.485(1) 1.0400 Uiso
O9_4 O 0.2383(4) 0.8848(4) 0.6143(8) 1.0400 Uiso
O10_4 O 0.2584(4) 0.7544(4) 0.6248(14) 1.0400 Uiso
O13_4 O 0.3849(5) 0.7665(3) 0.6149(8) 1.0400 Uiso
H2_7 H 0.250693 0.999744 0.617415 . .
H4_7 H 0.283287 0.897291 0.275709 . .
H7_7 H 0.286375 0.997313 0.157187 . .
C9_8 C 0.0578 0.7688 0.7051 1.0400 Uiso
C11_8 C 0.1164 0.7752 0.7756 1.0400 Uiso
C12_8 C 0.0582 0.7778 0.5745 1.0400 Uiso
C13_8 C 0.0007 0.7602 0.7677 1.0400 Uiso
C16_8 C 0.0021 0.7797 0.5078 1.0400 Uiso
O6_8 O 0.1575(3) 0.8109(4) 0.735(1) 1.0400 Uiso
O12_4 O 0.3353(3) 0.8296(4) 0.7499(9) 1.0400 Uiso
H2_8 H 0.000256192 0.750693 0.867415 . .
H4_8 H 0.102709 0.783287 0.525709 . .
H7_8 H 0.00268722 0.786375 0.407187 . .
C1_8 C 0.5564 0.8324 0.7586 1.0400 Uiso
C2_6 C 0.4395 0.8749 0.8453 1.0400 Uiso
C3_8 C 0.6188 0.8141 0.7103 1.0400 Uiso
C4_8 C 0.5524 0.8756 0.8585 1.0400 Uiso
C5_8 C 0.5008 0.8100 0.7030 1.0400 Uiso
C6_8 C 0.3831 0.8126 0.6826 1.0400 Uiso
C7_8 C 0.4420 0.8317 0.7452 1.0400 Uiso
C8_6 C 0.4943 0.8964 0.9015 1.0400 Uiso
O2_8 O 0.6685(3) 0.8318(5) 0.7590(13) 1.0400 Uiso
C10_8 C 0.9452 0.7730 0.5707 1.0400 Uiso
C14_8 C 0.8840 0.7652 0.7678 1.0400 Uiso
C15_8 C 0.9442 0.7639 0.7013 1.0400 Uiso
O7_8 O 0.8430(3) 0.7991(4) 0.7213(15) 1.0400 Uiso
H1_8 H 0.595234 0.892773 0.902246 . .
H3_6 H 0.49178 0.929394 0.978883 . .
H5_8 H 0.901235 0.774782 0.51897 . .
H6_8 H 0.50326 0.775936 0.627456 . .
H8_6 H 0.394151 0.891502 0.878714 . .
C2_7 C 0.8749 0.0605 0.0953 1.0400 Uiso
C8_7 C 0.8964 0.0057 0.1515 1.0400 Uiso
H3_7 H 0.929394 0.00822035 0.228883 . .
H8_7 H 0.891502 0.105849 0.128714 . .
C2_8 C 0.1251 0.9395 0.0953 1.0400 Uiso
C8_8 C 0.1036 0.9943 0.1515 1.0400 Uiso
H3_8 H 0.0706056 0.99178 0.228883 . .
H8_8 H 0.108498 0.894151 0.128714 . .
loop_
_geom_bond_atom_site_label_1
_geom_bond_atom_site_label_2
_geom_bond_site_symmetry_1
_geom_bond_site_symmetry_2
Al1 O1 1_555 1_555
O1 Al4 1_555 1_555
C1 C3 1_555 1_555
C3 O2 1_555 1_555
C4 C1 1_555 1_555
C5 C1 1_555 1_555
O2 Al1 1_555 1_555
O5 C3 1_555 1_555
C9 C11 1_555 1_555
C10 C15 1_555 1_555
C11 O6 1_555 1_555
C12 C9 1_555 1_555
C13 C9 1_555 1_555
C14 C15 1_555 1_555
C15 C13 1_555 1_555
C16 C10 1_555 1_555
O6 Al2 1_555 1_555
O7 Al1 1_555 1_555
O8 C14 1_555 1_555
O9 C11 1_555 1_555
Al2 O10 1_555 1_555
O10 Al5 1_555 1_555
Al4 O8 1_555 1_555
O11 Al1 1_555 1_555
O12 Al2 1_555 1_555
O13 Al2 1_555 1_555
O14 Al1 1_555 1_555
O15 Al1 1_555 1_555
O16 Al2 1_555 1_555
Al5 O9 1_555 1_555
O17 Al2 1_555 1_555
C12 C16 1_555 1_555
C14 O7 1_555 1_555
C4 H1 1_555 1_555
C13 H2 1_555 1_555
C12 H4 1_555 1_555
C10 H5 1_555 1_555
C5 H6 1_555 1_555
C2 C7 1_555 1_555
C6 C7 1_555 1_555
C8 C2 1_555 1_555
O12 C6 1_555 1_555
O4 C6 1_555 1_555
C8 H3 1_555 1_555
C2 H8 1_555 1_555
Al1_2 O1_2 1_555 1_555
O1_2 Al3 1_555 1_555
C1_2 C3_2 1_555 1_555
C2_2 C7_2 1_555 1_555
C3_2 O2_2 1_555 1_555
C4_2 C1_2 1_555 1_555
C5_2 C1_2 1_555 1_555
C6_2 C7_2 1_555 1_555
C7_2 C5_2 1_555 1_555
C8_2 C2_2 1_555 1_555
O2_2 Al1_2 1_555 1_555
O3 C6_2 1_555 1_555
O4_2 C6_2 1_555 1_555
O5_2 C3_2 1_555 1_555
C10_2 C15_2 1_555 1_555
C14_2 C15_2 1_555 1_555
O7_2 Al1_2 1_555 1_555
O8_2 C14_2 1_555 1_555
Al4 O5_2 1_555 1_555
Al3 O8_2 1_555 1_555
O11_2 Al1_2 1_555 1_555
O14_2 Al1_2 1_555 1_555
O15_2 Al1_2 1_555 1_555
Al5 O4_2 1_555 1_555
Al7 O3 1_555 1_555
C4_2 C8_2 1_555 1_555
C14_2 O7_2 1_555 1_555
Al4 O11_2 1_555 1_555
C4_2 H1_2 1_555 1_555
C8_2 H3_2 1_555 1_555
C10_2 H5_2 1_555 1_555
C5_2 H6_2 1_555 1_555
C2_2 H8_2 1_555 1_555
C9_2 C11_2 1_555 1_555
C11_2 O6_2 1_555 1_555
C12_2 C9_2 1_555 1_555
C13_2 C9_2 1_555 1_555
O6_2 Al7 1_555 1_555
O9_2 C11_2 1_555 1_555
Al7 O10_2 1_555 1_555
O10_2 Al6 1_555 1_555
O13_2 Al7 1_555 1_555
O16_2 Al7 1_555 1_555
Al6 O9_2 1_555 1_555
O17_2 Al7 1_555 1_555
C12_2 C16_2 1_555 1_555
C13_2 H2_2 1_555 1_555
C12_2 H4_2 1_555 1_555
C16_2 H7_2 1_555 1_555
C9_3 C11_3 1_555 1_555
C11_3 O6_3 1_555 1_555
C12_3 C9_3 1_555 1_555
C13_3 C9_3 1_555 1_555
O6_3 Al5 1_555 1_555
O16_2 C11_3 1_555 1_555
Al5 O17_2 1_555 1_555
O12_2 Al5 1_555 1_555
C12_3 C16_3 1_555 1_555
C13_3 H2_3 1_555 1_555
C12_3 H4_3 1_555 1_555
C16_3 H7_3 1_555 1_555
Al1_3 O1_3 1_555 1_555
O1_3 Al4_2 1_555 1_555
C1_3 C3_3 1_555 1_555
C2_3 C7_3 1_555 1_555
C3_3 O2_3 1_555 1_555
C4_3 C1_3 1_555 1_555
C5_3 C1_3 1_555 1_555
C6_3 C7_3 1_555 1_555
C7_3 C5_3 1_555 1_555
C8_3 C2_3 1_555 1_555
O2_3 Al1_3 1_555 1_555
O12_2 C6_3 1_555 1_555
O13 C6_3 1_555 1_555
O5_3 C3_3 1_555 1_555
C10_3 C15_3 1_555 1_555
C14_3 C15_3 1_555 1_555
O7_3 Al1_3 1_555 1_555
O8_3 C14_3 1_555 1_555
Al3_2 O5_3 1_555 1_555
Al4_2 O8_3 1_555 1_555
O11_3 Al1_3 1_555 1_555
O14_3 Al1_3 1_555 1_555
O15_3 Al1_3 1_555 1_555
C4_3 C8_3 1_555 1_555
C14_3 O7_3 1_555 1_555
Al3_2 O11_3 1_555 1_555
C4_3 H1_3 1_555 1_555
C8_3 H3_3 1_555 1_555
C10_3 H5_3 1_555 1_555
C5_3 H6_3 1_555 1_555
C2_3 H8_3 1_555 1_555
C6_4 C7_4 1_555 1_555
O3_2 C6_4 1_555 1_555
O13_2 C6_4 1_555 1_555
Al6 O3_2 1_555 1_555
O1_4 Al3_2 1_555 1_555
C4_4 C1_4 1_555 1_555
O8_4 C14_4 1_555 1_555
O16 C11_4 1_555 1_555
Al3_2 O8_4 1_555 1_555
C4_4 H1_4 1_555 1_555
C13_4 H2_4 1_555 1_555
O5_4 C3_4 1_555 1_555
C10_4 C15_4 1_555 1_555
C12_4 C9_4 1_555 1_555
C16_4 C10_4 1_555 1_555
O6_4 Al6 1_555 1_555
O7_4 Al1_4 1_555 1_555
Al4_2 O5_4 1_555 1_555
O11_4 Al1_4 1_555 1_555
O15_4 Al1_4 1_555 1_555
C12_4 C16_4 1_555 1_555
Al4_2 O11_4 1_555 1_555
C12_4 H4_4 1_555 1_555
C10_4 H5_4 1_555 1_555
C5_4 H6_4 1_555 1_555
C16_4 H7_4 1_555 1_555
C2_4 C7_5 1_555 1_555
C6_5 C7_5 1_555 1_555
C8_4 C2_4 1_555 1_555
O3_3 C6_5 1_555 1_555
O4_3 C6_5 1_555 1_555
Al7_2 O3_3 1_555 1_555
C8_4 H3_4 1_555 1_555
C2_4 H8_4 1_555 1_555
C1_5 C3_5 1_555 1_555
C3_5 O2_5 1_555 1_555
C4_5 C1_5 1_555 1_555
C5_5 C1_5 1_555 1_555
O2_5 Al3_2 1_555 1_555
O14_4 C3_5 1_555 1_555
C9_5 C11_5 1_555 1_555
C10_5 C15_5 1_555 1_555
C11_5 O6_5 1_555 1_555
C12_5 C9_5 1_555 1_555
C13_5 C9_5 1_555 1_555
C14_5 C15_5 1_555 1_555
C15_5 C13_5 1_555 1_555
C16_5 C10_5 1_555 1_555
O6_5 Al7_2 1_555 1_555
O7_5 Al3_2 1_555 1_555
O15_3 C14_5 1_555 1_555
O9_3 C11_5 1_555 1_555
Al7_2 O10_3 1_555 1_555
O10_3 Al5_2 1_555 1_555
O13_3 Al7_2 1_555 1_555
O16_3 Al7_2 1_555 1_555
Al5_2 O9_3 1_555 1_555
O17_3 Al7_2 1_555 1_555
C12_5 C16_5 1_555 1_555
C14_5 O7_5 1_555 1_555
C4_5 H1_5 1_555 1_555
C13_5 H2_5 1_555 1_555
C12_5 H4_5 1_555 1_555
C10_5 H5_5 1_555 1_555
C5_5 H6_5 1_555 1_555
C4_6 C1_6 1_555 1_555
O15 C14_6 1_555 1_555
O16_3 C11_6 1_555 1_555
C4_6 H1_6 1_555 1_555
C13_6 H2_6 1_555 1_555
O14_2 C3_6 1_555 1_555
C10_6 C15_6 1_555 1_555
C12_6 C9_6 1_555 1_555
C16_6 C10_6 1_555 1_555
O6_6 Al6_2 1_555 1_555
O7_6 Al3 1_555 1_555
O12_3 Al6_2 1_555 1_555
O16_4 Al6_2 1_555 1_555
O17_4 Al6_2 1_555 1_555
C12_6 C16_6 1_555 1_555
C12_6 H4_6 1_555 1_555
C10_6 H5_6 1_555 1_555
C5_6 H6_6 1_555 1_555
C16_6 H7_6 1_555 1_555
C6_6 C7_6 1_555 1_555
O12_3 C6_6 1_555 1_555
O4_4 C6_6 1_555 1_555
Al6_3 O4_4 1_555 1_555
C1_7 C3_7 1_555 1_555
C2_5 C7_7 1_555 1_555
C3_7 O2_7 1_555 1_555
C4_7 C1_7 1_555 1_555
C5_7 C1_7 1_555 1_555
C6_7 C7_7 1_555 1_555
C7_7 C5_7 1_555 1_555
C8_5 C2_5 1_555 1_555
O2_7 Al4 1_555 1_555
O3_4 C6_7 1_555 1_555
O13_3 C6_7 1_555 1_555
O14 C3_7 1_555 1_555
C10_7 C15_7 1_555 1_555
C14_7 C15_7 1_555 1_555
O7_7 Al4 1_555 1_555
O15_2 C14_7 1_555 1_555
Al5_2 O3_4 1_555 1_555
C4_7 C8_5 1_555 1_555
C14_7 O7_7 1_555 1_555
C4_7 H1_7 1_555 1_555
C8_5 H3_5 1_555 1_555
C10_7 H5_7 1_555 1_555
C5_7 H6_7 1_555 1_555
C2_5 H8_5 1_555 1_555
C9_7 C11_7 1_555 1_555
C11_7 O6_7 1_555 1_555
C12_7 C9_7 1_555 1_555
C13_7 C9_7 1_555 1_555
O6_7 Al5_2 1_555 1_555
O9_4 C11_7 1_555 1_555
Al5_2 O10_4 1_555 1_555
O10_4 Al6_3 1_555 1_555
O13_4 Al5_2 1_555 1_555
Al6_3 O9_4 1_555 1_555
C12_7 C16_7 1_555 1_555
C13_7 H2_7 1_555 1_555
C12_7 H4_7 1_555 1_555
C16_7 H7_7 1_555 1_555
C9_8 C11_8 1_555 1_555
C11_8 O6_8 1_555 1_555
C12_8 C9_8 1_555 1_555
C13_8 C9_8 1_555 1_555
O6_8 Al6_3 1_555 1_555
O16_4 C11_8 1_555 1_555
Al6_3 O17_4 1_555 1_555
O12_4 Al6_3 1_555 1_555
C12_8 C16_8 1_555 1_555
C13_8 H2_8 1_555 1_555
C12_8 H4_8 1_555 1_555
C16_8 H7_8 1_555 1_555
C1_8 C3_8 1_555 1_555
C2_6 C7_8 1_555 1_555
C3_8 O2_8 1_555 1_555
C4_8 C1_8 1_555 1_555
C5_8 C1_8 1_555 1_555
C6_8 C7_8 1_555 1_555
C7_8 C5_8 1_555 1_555
C8_6 C2_6 1_555 1_555
O2_8 Al4_2 1_555 1_555
O12_4 C6_8 1_555 1_555
O13_4 C6_8 1_555 1_555
O14_3 C3_8 1_555 1_555
C10_8 C15_8 1_555 1_555
C14_8 C15_8 1_555 1_555
O7_8 Al4_2 1_555 1_555
O15_4 C14_8 1_555 1_555
C4_8 C8_6 1_555 1_555
C14_8 O7_8 1_555 1_555
C4_8 H1_8 1_555 1_555
C8_6 H3_6 1_555 1_555
C10_8 H5_8 1_555 1_555
C5_8 H6_8 1_555 1_555
C2_6 H8_6 1_555 1_555
C8_7 C2_7 1_555 1_555
C8_7 H3_7 1_555 1_555
C2_7 H8_7 1_555 1_555
C8_8 C2_8 1_555 1_555
C8_8 H3_8 1_555 1_555
C2_8 H8_8 1_555 1_555

#END
