
###############################################################################
#
# This file contains modified crystal structure data generated from the
# MOF subset of the Cambridge Structural Database (CSD) v543 
# hosted by the Cambridge Crystallographic Data Centre (CCDC).
#
# This work is licensed under the Creative Commons
# Attribution-NonCommercial-ShareAlike 4.0 International License.
# To view a copy of this license, visit
# http://creativecommons.org/licenses/by-nc-sa/4.0/
# or send a letter to
# Creative Commons, PO Box 1866, Mountain View, CA 94042, USA.
#
# CIF created using the CSD Python API on 29 September 2022
# The structure has been converted into the P1 space group
# The structure has a 3D framework
# The original CSD entry OQOCAA is in the tetragonal crystal system
# The framework has been calculated to contain at least 10.0% void space
# The void calculation uses a probe of radius 1.32A, grid spacing 0.4
# H atom positions have been added when not included in the experimental data
#
###############################################################################

data_OQOCAA
_chemical_formula_moiety         '(C136 H72 Al11 O62)n'
_symmetry_cell_setting           triclinic
_symmetry_space_group_name_H-M   'P 1'
_symmetry_Int_Tables_number      1
_space_group_name_Hall           'P 1'
loop_
_symmetry_equiv_pos_site_id
_symmetry_equiv_pos_as_xyz
1 x,y,z
_cell_length_a                   21.5214(7)
_cell_length_b                   21.5214(7)
_cell_length_c                   10.3218(4)
_cell_angle_alpha                90
_cell_angle_beta                 90
_cell_angle_gamma                90
_cell_volume                     4780.75
loop_
_atom_site_label
_atom_site_type_symbol
_atom_site_fract_x
_atom_site_fract_y
_atom_site_fract_z
Al1 Al 0.3184(4) 0.0000 0.0000
O1 O 0.2568(4) 0.0068(4) 0.1250
O2 O 0.3828(5) 0.0094(4) 0.1248(7)
O3 O 0.3368(4) 0.0675(5) 0.2769(8)
C1 C 0.4435(2) 0.0746(5) 0.4182(7)
C2 C 0.4439(3) 0.0534(5) 0.2895(7)
C3 C 0.3836(4) 0.0386(6) 0.2296(9)
C4 C 0.5000 0.0373(10) 0.2334(18)
C5 C 0.5000 0.0886(9) 0.4789(17)
O4 O 0.6172(5) 0.0094(4) 0.1248(7)
O5 O 0.6632(4) 0.0675(5) 0.2769(8)
C6 C 0.5565(2) 0.0746(5) 0.4182(7)
C7 C 0.5561(3) 0.0534(5) 0.2895(7)
C8 C 0.6164(4) 0.0386(6) 0.2296(9)
Al2 Al 0.6816(4) 0.0000 0.0000
Al3 Al 0.2500 0.0684(4) 0.2500
Al4 Al 0.7500 0.0684(4) 0.2500
H1 H 0.5 0.0113178 0.142866
H2 H 0.399801 0.0800841 0.470148
H3 H 0.5 0.11053 0.573982
H4 H 0.600199 0.0800841 0.470148
Al1_2 Al 0.3184(4) 0.0000 1.0000
Al2_2 Al 0.6816(4) 0.0000 1.0000
O9 O 0.3175(5) 0.0868(4) 0.9731(8)
Al1_3 Al 0.3184(4) 1.0000 0.0000
Al2_3 Al 0.6816(4) 1.0000 0.0000
O8 O 0.3175(5) 0.9132(4) 0.0269(8)
Al1_4 Al 0.3184(4) 1.0000 1.0000
Al2_4 Al 0.6816(4) 1.0000 1.0000
O6 O 0.2568(4) 0.9932(4) 0.8750
O7 O 0.3828(5) 0.9906(4) 0.8752(7)
Al1_5 Al 0.1816(4) 0.0000 0.5000
O6_2 O 0.2432(4) 0.0068(4) 0.3750
O7_2 O 0.1172(5) 0.0094(4) 0.3752(7)
O8_2 O 0.1825(5) 0.0868(4) 0.5269(8)
Al1_6 Al 0.1816(4) 1.0000 0.5000
O1_2 O 0.2432(4) 0.9932(4) 0.6250
O2_2 O 0.1172(5) 0.9906(4) 0.6248(7)
O3_2 O 0.1632(4) 0.9325(5) 0.7769(8)
C1_2 C 0.0565(2) 0.9254(5) 0.9182(7)
C2_2 C 0.0561(3) 0.9466(5) 0.7895(7)
C3_2 C 0.1164(4) 0.9614(6) 0.7296(9)
C4_2 C 0.0000 0.9627(10) 0.7334(18)
C5_2 C 0.0000 0.9114(9) 0.9789(17)
Al3_2 Al 0.2500 0.9316(4) 0.7500
O9_2 O 0.1825(5) 0.9132(4) 0.4731(8)
H1_2 H -6.16298e-33 0.988682 0.642866
H2_2 H 0.100199 0.919916 0.970148
Al2_5 Al 0.8184(4) 0.0000 0.5000
C4_3 C 1.0000 0.9627(10) 0.7334(18)
C5_3 C 1.0000 0.9114(9) 0.9789(17)
O4_2 O 0.8828(5) 0.9906(4) 0.6248(7)
O5_2 O 0.8368(4) 0.9325(5) 0.7769(8)
C6_2 C 0.9435(2) 0.9254(5) 0.9182(7)
C7_2 C 0.9439(3) 0.9466(5) 0.7895(7)
C8_2 C 0.8836(4) 0.9614(6) 0.7296(9)
Al2_6 Al 0.8184(4) 1.0000 0.5000
Al4_2 Al 0.7500 0.9316(4) 0.7500
H1_3 H 1 0.988682 0.642866
H4_2 H 0.899801 0.919916 0.970148
O3_3 O 0.1632(4) 0.0675(5) 0.2231(8)
C1_3 C 0.0565(2) 0.0746(5) 0.0818(7)
C2_3 C 0.0561(3) 0.0534(5) 0.2105(7)
C3_3 C 0.1164(4) 0.0386(6) 0.2704(9)
C4_4 C 0.0000 0.0373(10) 0.2666(18)
C5_4 C -0.0000 0.0886(9) 0.0211(17)
H1_4 H 3.08149e-33 0.0113178 0.357134
H2_3 H 0.100199 0.0800841 0.029852
C4_5 C 1.0000 0.0373(10) 0.2666(18)
C5_5 C 1.0000 0.0886(9) 0.0211(17)
O4_3 O 0.8828(5) 0.0094(4) 0.3752(7)
O5_3 O 0.8368(4) 0.0675(5) 0.2231(8)
C6_3 C 0.9435(2) 0.0746(5) 0.0818(7)
C7_3 C 0.9439(3) 0.0534(5) 0.2105(7)
C8_3 C 0.8836(4) 0.0386(6) 0.2704(9)
H1_5 H 1 0.0113178 0.357134
H4_3 H 0.899801 0.0800841 0.029852
O2_3 O 0.2406(4) 0.8672(5) 0.6252(7)
C1_4 C 0.1754(5) 0.8065(2) 0.3318(7)
C2_4 C 0.1966(5) 0.8061(3) 0.4605(7)
C3_4 C 0.2114(6) 0.8664(4) 0.5204(9)
C4_6 C 0.2127(10) 0.7500 0.5166(18)
C5_6 C 0.1614(9) 0.7500 0.2711(17)
O4_4 O 0.2406(4) 0.6328(5) 0.6252(7)
O5_4 O 0.1825(5) 0.5868(4) 0.4731(8)
C6_4 C 0.1754(5) 0.6935(2) 0.3318(7)
C7_4 C 0.1966(5) 0.6939(3) 0.4605(7)
C8_4 C 0.2114(6) 0.6336(4) 0.5204(9)
Al2_7 Al 0.2500 0.5684(4) 0.7500
Al4_3 Al 0.1816(4) 0.5000 0.5000
O7_3 O 0.2594(4) 0.8672(5) 0.8748(7)
O8_3 O 0.3368(4) 0.9325(5) 0.7231(8)
H1_6 H 0.238682 0.75 0.607134
H2_4 H 0.169916 0.850199 0.279852
H3_2 H 0.13947 0.75 0.176018
H4_4 H 0.169916 0.649801 0.279852
O2_4 O 0.2406(4) 0.1328(5) 0.3748(7)
C1_5 C 0.1754(5) 0.1935(2) 0.6682(7)
C2_5 C 0.1966(5) 0.1939(3) 0.5395(7)
C3_5 C 0.2114(6) 0.1336(4) 0.4796(9)
C4_7 C 0.2127(10) 0.2500 0.4834(18)
C5_7 C 0.1614(9) 0.2500 0.7289(17)
O4_5 O 0.2406(4) 0.3672(5) 0.3748(7)
O5_5 O 0.1825(5) 0.4132(4) 0.5269(8)
C6_5 C 0.1754(5) 0.3065(2) 0.6682(7)
C7_5 C 0.1966(5) 0.3061(3) 0.5395(7)
C8_5 C 0.2114(6) 0.3664(4) 0.4796(9)
Al2_8 Al 0.2500 0.4316(4) 0.2500
O7_4 O 0.2594(4) 0.1328(5) 0.1252(7)
H1_7 H 0.238682 0.25 0.392866
H2_5 H 0.169916 0.149801 0.720148
H3_3 H 0.13947 0.25 0.823982
H4_5 H 0.169916 0.350199 0.720148
C1_6 C 0.3246(5) 0.8065(2) 0.1682(7)
C2_6 C 0.3034(5) 0.8061(3) 0.0395(7)
C5_8 C 0.3386(9) 0.7500 0.2289(17)
O5_6 O 0.3175(5) 0.5868(4) 0.0269(8)
C6_6 C 0.3246(5) 0.6935(2) 0.1682(7)
C7_6 C 0.3034(5) 0.6939(3) 0.0395(7)
Al4_4 Al 0.3184(4) 0.5000 -0.0000
H2_6 H 0.330084 0.850199 0.220148
H3_4 H 0.36053 0.75 0.323982
H4_6 H 0.330084 0.649801 0.220148
C3_6 C 0.2886(6) 0.8664(4) 0.9796(9)
C4_8 C 0.2873(10) 0.7500 0.9834(18)
O4_6 O 0.2594(4) 0.6328(5) 0.8748(7)
C8_6 C 0.2886(6) 0.6336(4) 0.9796(9)
Al4_5 Al 0.3184(4) 0.5000 1.0000
H1_8 H 0.261318 0.75 0.892866
C3_7 C 0.2886(6) 0.1336(4) 0.0204(9)
C4_9 C 0.2873(10) 0.2500 0.0166(18)
O4_7 O 0.2594(4) 0.3672(5) 0.1252(7)
C8_7 C 0.2886(6) 0.3664(4) 0.0204(9)
H1_9 H 0.261318 0.25 0.107134
C1_7 C 0.3246(5) 0.1935(2) 0.8318(7)
C2_7 C 0.3034(5) 0.1939(3) 0.9605(7)
C5_9 C 0.3386(9) 0.2500 0.7711(17)
O5_7 O 0.3175(5) 0.4132(4) 0.9731(8)
C6_7 C 0.3246(5) 0.3065(2) 0.8318(7)
C7_7 C 0.3034(5) 0.3061(3) 0.9605(7)
H2_7 H 0.330084 0.149801 0.779852
H3_5 H 0.36053 0.25 0.676018
H4_7 H 0.330084 0.350199 0.779852
C1_8 C 0.4435(2) 0.9254(5) 0.5818(7)
C2_8 C 0.4439(3) 0.9466(5) 0.7105(7)
C3_8 C 0.3836(4) 0.9614(6) 0.7704(9)
C4_10 C 0.5000 0.9627(10) 0.7666(18)
C5_10 C 0.5000 0.9114(9) 0.5211(17)
O4_8 O 0.6172(5) 0.9906(4) 0.8752(7)
O5_8 O 0.6632(4) 0.9325(5) 0.7231(8)
C6_8 C 0.5565(2) 0.9254(5) 0.5818(7)
C7_8 C 0.5561(3) 0.9466(5) 0.7105(7)
C8_8 C 0.6164(4) 0.9614(6) 0.7704(9)
H1_10 H 0.5 0.988682 0.857134
H2_8 H 0.399801 0.919916 0.529852
H3_6 H 0.5 0.88947 0.426018
H4_8 H 0.600199 0.919916 0.529852
Al1_7 Al 0.6816(4) 0.5000 0.0000
O1_3 O 0.7432(4) 0.4932(4) 0.1250
O2_5 O 0.6172(5) 0.4906(4) 0.1248(7)
O3_4 O 0.6632(4) 0.4325(5) 0.2769(8)
C1_9 C 0.5565(2) 0.4254(5) 0.4182(7)
C2_9 C 0.5561(3) 0.4466(5) 0.2895(7)
C3_9 C 0.6164(4) 0.4614(6) 0.2296(9)
C4_11 C 0.5000 0.4627(10) 0.2334(18)
C5_11 C 0.5000 0.4114(9) 0.4789(17)
O4_9 O 0.3828(5) 0.4906(4) 0.1248(7)
O5_9 O 0.3368(4) 0.4325(5) 0.2769(8)
C6_9 C 0.4435(2) 0.4254(5) 0.4182(7)
C7_9 C 0.4439(3) 0.4466(5) 0.2895(7)
C8_9 C 0.3836(4) 0.4614(6) 0.2296(9)
Al3_3 Al 0.7500 0.4316(4) 0.2500
O8_4 O 0.6825(5) 0.5868(4) 0.0269(8)
H1_11 H 0.5 0.488682 0.142866
H2_9 H 0.600199 0.419916 0.470148
H3_7 H 0.5 0.38947 0.573982
H4_9 H 0.399801 0.419916 0.470148
Al1_8 Al 0.6816(4) 0.5000 1.0000
O6_3 O 0.7432(4) 0.5068(4) 0.8750
O7_5 O 0.6172(5) 0.5094(4) 0.8752(7)
O9_3 O 0.6825(5) 0.4132(4) 0.9731(8)
O3_5 O 0.6632(4) 0.5675(5) 0.7231(8)
C1_10 C 0.5565(2) 0.5746(5) 0.5818(7)
C2_10 C 0.5561(3) 0.5534(5) 0.7105(7)
C3_10 C 0.6164(4) 0.5386(6) 0.7704(9)
C4_12 C 0.5000 0.5373(10) 0.7666(18)
C5_12 C 0.5000 0.5886(9) 0.5211(17)
O4_10 O 0.3828(5) 0.5094(4) 0.8752(7)
O5_10 O 0.3368(4) 0.5675(5) 0.7231(8)
C6_10 C 0.4435(2) 0.5746(5) 0.5818(7)
C7_10 C 0.4439(3) 0.5534(5) 0.7105(7)
C8_10 C 0.3836(4) 0.5386(6) 0.7704(9)
Al3_4 Al 0.7500 0.5684(4) 0.7500
H1_12 H 0.5 0.511318 0.857134
H2_10 H 0.600199 0.580084 0.529852
H3_8 H 0.5 0.61053 0.426018
H4_10 H 0.399801 0.580084 0.529852
O2_6 O 0.7406(4) 0.3672(5) 0.1252(7)
C3_11 C 0.7114(6) 0.3664(4) 0.0204(9)
C4_13 C 0.7127(10) 0.2500 0.0166(18)
O4_11 O 0.7406(4) 0.1328(5) 0.1252(7)
C8_11 C 0.7114(6) 0.1336(4) 0.0204(9)
O6_4 O 0.7568(4) 0.4932(4) 0.3750
O7_6 O 0.7594(4) 0.3672(5) 0.3748(7)
O8_5 O 0.8368(4) 0.4325(5) 0.2231(8)
H1_13 H 0.738682 0.25 0.107134
C1_11 C 0.6754(5) 0.3065(2) 0.8318(7)
C2_11 C 0.6966(5) 0.3061(3) 0.9605(7)
C5_13 C 0.6614(9) 0.2500 0.7711(17)
O5_11 O 0.6825(5) 0.0868(4) 0.9731(8)
C6_11 C 0.6754(5) 0.1935(2) 0.8318(7)
C7_11 C 0.6966(5) 0.1939(3) 0.9605(7)
H2_11 H 0.669916 0.350199 0.779852
H3_9 H 0.63947 0.25 0.676018
H4_11 H 0.669916 0.149801 0.779852
C1_12 C 0.6754(5) 0.6935(2) 0.1682(7)
C2_12 C 0.6966(5) 0.6939(3) 0.0395(7)
C5_14 C 0.6614(9) 0.7500 0.2289(17)
O5_12 O 0.6825(5) 0.9132(4) 0.0269(8)
C6_12 C 0.6754(5) 0.8065(2) 0.1682(7)
C7_12 C 0.6966(5) 0.8061(3) 0.0395(7)
H2_12 H 0.669916 0.649801 0.220148
H3_10 H 0.63947 0.75 0.323982
H4_12 H 0.669916 0.850199 0.220148
O2_7 O 0.7406(4) 0.6328(5) 0.8748(7)
C3_12 C 0.7114(6) 0.6336(4) 0.9796(9)
C4_14 C 0.7127(10) 0.7500 0.9834(18)
O4_12 O 0.7406(4) 0.8672(5) 0.8748(7)
C8_12 C 0.7114(6) 0.8664(4) 0.9796(9)
O6_5 O 0.7568(4) 0.5068(4) 0.6250
O7_7 O 0.7594(4) 0.6328(5) 0.6252(7)
O8_6 O 0.8368(4) 0.5675(5) 0.7769(8)
H1_14 H 0.738682 0.75 0.892866
O3_6 O 0.8175(5) 0.4132(4) 0.5269(8)
C1_13 C 0.8246(5) 0.3065(2) 0.6682(7)
C2_13 C 0.8034(5) 0.3061(3) 0.5395(7)
C3_13 C 0.7886(6) 0.3664(4) 0.4796(9)
C4_15 C 0.7873(10) 0.2500 0.4834(18)
C5_15 C 0.8386(9) 0.2500 0.7289(17)
O4_13 O 0.7594(4) 0.1328(5) 0.3748(7)
O5_13 O 0.8175(5) 0.0868(4) 0.5269(8)
C6_13 C 0.8246(5) 0.1935(2) 0.6682(7)
C7_13 C 0.8034(5) 0.1939(3) 0.5395(7)
C8_13 C 0.7886(6) 0.1336(4) 0.4796(9)
Al3_5 Al 0.8184(4) 0.5000 0.5000
H1_15 H 0.761318 0.25 0.392866
H2_13 H 0.830084 0.350199 0.720148
H3_11 H 0.86053 0.25 0.823982
H4_13 H 0.830084 0.149801 0.720148
O3_7 O 0.8175(5) 0.5868(4) 0.4731(8)
C1_14 C 0.8246(5) 0.6935(2) 0.3318(7)
C2_14 C 0.8034(5) 0.6939(3) 0.4605(7)
C3_14 C 0.7886(6) 0.6336(4) 0.5204(9)
C4_16 C 0.7873(10) 0.7500 0.5166(18)
C5_16 C 0.8386(9) 0.7500 0.2711(17)
O4_14 O 0.7594(4) 0.8672(5) 0.6252(7)
O5_14 O 0.8175(5) 0.9132(4) 0.4731(8)
C6_14 C 0.8246(5) 0.8065(2) 0.3318(7)
C7_14 C 0.8034(5) 0.8061(3) 0.4605(7)
C8_14 C 0.7886(6) 0.8664(4) 0.5204(9)
H1_16 H 0.761318 0.75 0.607134
H2_14 H 0.830084 0.649801 0.279852
H3_12 H 0.86053 0.75 0.176018
H4_14 H 0.830084 0.850199 0.279852
C4_17 C 0.0000 0.4627(10) 0.2666(18)
C5_17 C -0.0000 0.4114(9) 0.0211(17)
O4_15 O 0.1172(5) 0.4906(4) 0.3752(7)
O5_15 O 0.1632(4) 0.4325(5) 0.2231(8)
C6_15 C 0.0565(2) 0.4254(5) 0.0818(7)
C7_15 C 0.0561(3) 0.4466(5) 0.2105(7)
C8_15 C 0.1164(4) 0.4614(6) 0.2704(9)
H1_17 H 6.16298e-33 0.488682 0.357134
H4_15 H 0.100199 0.419916 0.029852
O2_8 O 0.8828(5) 0.4906(4) 0.3752(7)
C1_15 C 0.9435(2) 0.4254(5) 0.0818(7)
C2_15 C 0.9439(3) 0.4466(5) 0.2105(7)
C3_15 C 0.8836(4) 0.4614(6) 0.2704(9)
C4_18 C 1.0000 0.4627(10) 0.2666(18)
C5_18 C 1.0000 0.4114(9) 0.0211(17)
O7_8 O 0.8828(5) 0.5094(4) 0.6248(7)
H1_18 H 1 0.488682 0.357134
H2_15 H 0.899801 0.419916 0.029852
C4_19 C 0.0000 0.5373(10) 0.7334(18)
C5_19 C 0.0000 0.5886(9) 0.9789(17)
O4_16 O 0.1172(5) 0.5094(4) 0.6248(7)
O5_16 O 0.1632(4) 0.5675(5) 0.7769(8)
C6_16 C 0.0565(2) 0.5746(5) 0.9182(7)
C7_16 C 0.0561(3) 0.5534(5) 0.7895(7)
C8_16 C 0.1164(4) 0.5386(6) 0.7296(9)
H1_19 H 0 0.511318 0.642866
H4_16 H 0.100199 0.580084 0.970148
C1_16 C 0.9435(2) 0.5746(5) 0.9182(7)
C2_16 C 0.9439(3) 0.5534(5) 0.7895(7)
C3_16 C 0.8836(4) 0.5386(6) 0.7296(9)
C4_20 C 1.0000 0.5373(10) 0.7334(18)
C5_20 C 1.0000 0.5886(9) 0.9789(17)
H1_20 H 1 0.511318 0.642866
H2_16 H 0.899801 0.580084 0.970148
O6_6 O 0.7432(4) 0.0068(4) 0.1250
O1_4 O 0.7432(4) 0.9932(4) 0.8750
O1_5 O 0.7568(4) 0.0068(4) 0.3750
O6_7 O 0.7568(4) 0.9932(4) 0.6250
O6_8 O 0.2568(4) 0.4932(4) 0.1250
O1_6 O 0.2568(4) 0.5068(4) 0.8750
O6_9 O 0.2432(4) 0.5068(4) 0.6250
O6_10 O 0.2432(4) 0.4932(4) 0.3750
H3_13 H -3.08149e-33 0.88947 0.0739817
H3_14 H 1 0.88947 0.0739817
H3_15 H 1.2326e-32 0.11053 0.926018
H3_16 H 1 0.11053 0.926018
H3_17 H 1.54074e-32 0.38947 0.926018
H3_18 H 1 0.38947 0.926018
H3_19 H 3.08149e-33 0.61053 0.0739817
H3_20 H 1 0.61053 0.0739817
loop_
_geom_bond_atom_site_label_1
_geom_bond_atom_site_label_2
_geom_bond_site_symmetry_1
_geom_bond_site_symmetry_2
Al1 O1 1_555 1_555
O1 Al3 1_555 1_555
O2 Al1 1_555 1_555
O3 C3 1_555 1_555
C1 C2 1_555 1_555
C2 C3 1_555 1_555
C3 O2 1_555 1_555
C4 C2 1_555 1_555
C5 C1 1_555 1_555
O4 C8 1_555 1_555
O5 C8 1_555 1_555
C6 C5 1_555 1_555
C7 C4 1_555 1_555
C8 C7 1_555 1_555
Al2 O4 1_555 1_555
Al3 O3 1_555 1_555
Al4 O5 1_555 1_555
C6 C7 1_555 1_555
C4 H1 1_555 1_555
C1 H2 1_555 1_555
C5 H3 1_555 1_555
C6 H4 1_555 1_555
O9 Al1_2 1_555 1_555
O8 Al1_3 1_555 1_555
O6 Al1_4 1_555 1_555
O7 Al1_4 1_555 1_555
O6_2 Al1_5 1_555 1_555
O7_2 Al1_5 1_555 1_555
O8_2 Al1_5 1_555 1_555
Al1_6 O1_2 1_555 1_555
O1_2 Al3_2 1_555 1_555
O2_2 Al1_6 1_555 1_555
O3_2 C3_2 1_555 1_555
C1_2 C2_2 1_555 1_555
C2_2 C3_2 1_555 1_555
C3_2 O2_2 1_555 1_555
C4_2 C2_2 1_555 1_555
C5_2 C1_2 1_555 1_555
Al3_2 O3_2 1_555 1_555
O9_2 Al1_6 1_555 1_555
C4_2 H1_2 1_555 1_555
C1_2 H2_2 1_555 1_555
O4_2 C8_2 1_555 1_555
O5_2 C8_2 1_555 1_555
C6_2 C5_3 1_555 1_555
C7_2 C4_3 1_555 1_555
C8_2 C7_2 1_555 1_555
Al2_6 O4_2 1_555 1_555
Al4_2 O5_2 1_555 1_555
C6_2 C7_2 1_555 1_555
C4_3 H1_3 1_555 1_555
C6_2 H4_2 1_555 1_555
O6_2 Al3 1_555 1_555
O3_3 C3_3 1_555 1_555
C1_3 C2_3 1_555 1_555
C2_3 C3_3 1_555 1_555
C3_3 O7_2 1_555 1_555
C4_4 C2_3 1_555 1_555
C5_4 C1_3 1_555 1_555
Al3 O3_3 1_555 1_555
C4_4 H1_4 1_555 1_555
C1_3 H2_3 1_555 1_555
O4_3 C8_3 1_555 1_555
O5_3 C8_3 1_555 1_555
C6_3 C5_5 1_555 1_555
C7_3 C4_5 1_555 1_555
C8_3 C7_3 1_555 1_555
Al2_5 O4_3 1_555 1_555
Al4 O5_3 1_555 1_555
C6_3 C7_3 1_555 1_555
C4_5 H1_5 1_555 1_555
C6_3 H4_3 1_555 1_555
O2_3 Al3_2 1_555 1_555
O9_2 C3_4 1_555 1_555
C1_4 C2_4 1_555 1_555
C2_4 C3_4 1_555 1_555
C3_4 O2_3 1_555 1_555
C4_6 C2_4 1_555 1_555
C5_6 C1_4 1_555 1_555
O4_4 C8_4 1_555 1_555
O5_4 C8_4 1_555 1_555
C6_4 C5_6 1_555 1_555
C7_4 C4_6 1_555 1_555
C8_4 C7_4 1_555 1_555
Al2_7 O4_4 1_555 1_555
Al4_3 O5_4 1_555 1_555
O6 Al3_2 1_555 1_555
O7_3 Al3_2 1_555 1_555
O8_3 Al3_2 1_555 1_555
C6_4 C7_4 1_555 1_555
C4_6 H1_6 1_555 1_555
C1_4 H2_4 1_555 1_555
C5_6 H3_2 1_555 1_555
C6_4 H4_4 1_555 1_555
O2_4 Al3 1_555 1_555
O8_2 C3_5 1_555 1_555
C1_5 C2_5 1_555 1_555
C2_5 C3_5 1_555 1_555
C3_5 O2_4 1_555 1_555
C4_7 C2_5 1_555 1_555
C5_7 C1_5 1_555 1_555
O4_5 C8_5 1_555 1_555
O5_5 C8_5 1_555 1_555
C6_5 C5_7 1_555 1_555
C7_5 C4_7 1_555 1_555
C8_5 C7_5 1_555 1_555
Al2_8 O4_5 1_555 1_555
Al4_3 O5_5 1_555 1_555
O7_4 Al3 1_555 1_555
C6_5 C7_5 1_555 1_555
C4_7 H1_7 1_555 1_555
C1_5 H2_5 1_555 1_555
C5_7 H3_3 1_555 1_555
C6_5 H4_5 1_555 1_555
C1_6 C2_6 1_555 1_555
C5_8 C1_6 1_555 1_555
C6_6 C5_8 1_555 1_555
Al4_4 O5_6 1_555 1_555
C6_6 C7_6 1_555 1_555
C1_6 H2_6 1_555 1_555
C5_8 H3_4 1_555 1_555
C6_6 H4_6 1_555 1_555
C3_6 O7_3 1_555 1_555
O4_6 C8_6 1_555 1_555
Al2_7 O4_6 1_555 1_555
C4_8 H1_8 1_555 1_555
C3_7 O7_4 1_555 1_555
O4_7 C8_7 1_555 1_555
Al2_8 O4_7 1_555 1_555
C4_9 H1_9 1_555 1_555
C1_7 C2_7 1_555 1_555
C5_9 C1_7 1_555 1_555
C6_7 C5_9 1_555 1_555
Al4_5 O5_7 1_555 1_555
C6_7 C7_7 1_555 1_555
C1_7 H2_7 1_555 1_555
C5_9 H3_5 1_555 1_555
C6_7 H4_7 1_555 1_555
O8_3 C3_8 1_555 1_555
C1_8 C2_8 1_555 1_555
C2_8 C3_8 1_555 1_555
C3_8 O7 1_555 1_555
C4_10 C2_8 1_555 1_555
C5_10 C1_8 1_555 1_555
O4_8 C8_8 1_555 1_555
O5_8 C8_8 1_555 1_555
C6_8 C5_10 1_555 1_555
C7_8 C4_10 1_555 1_555
C8_8 C7_8 1_555 1_555
Al2_4 O4_8 1_555 1_555
Al4_2 O5_8 1_555 1_555
C6_8 C7_8 1_555 1_555
C4_10 H1_10 1_555 1_555
C1_8 H2_8 1_555 1_555
C5_10 H3_6 1_555 1_555
C6_8 H4_8 1_555 1_555
Al1_7 O1_3 1_555 1_555
O1_3 Al3_3 1_555 1_555
O2_5 Al1_7 1_555 1_555
O3_4 C3_9 1_555 1_555
C1_9 C2_9 1_555 1_555
C2_9 C3_9 1_555 1_555
C3_9 O2_5 1_555 1_555
C4_11 C2_9 1_555 1_555
C5_11 C1_9 1_555 1_555
O4_9 C8_9 1_555 1_555
O5_9 C8_9 1_555 1_555
C6_9 C5_11 1_555 1_555
C7_9 C4_11 1_555 1_555
C8_9 C7_9 1_555 1_555
Al4_4 O4_9 1_555 1_555
Al3_3 O3_4 1_555 1_555
Al2_8 O5_9 1_555 1_555
O8_4 Al1_7 1_555 1_555
C6_9 C7_9 1_555 1_555
C4_11 H1_11 1_555 1_555
C1_9 H2_9 1_555 1_555
C5_11 H3_7 1_555 1_555
C6_9 H4_9 1_555 1_555
O6_3 Al1_8 1_555 1_555
O7_5 Al1_8 1_555 1_555
O9_3 Al1_8 1_555 1_555
O6_3 Al3_4 1_555 1_555
O3_5 C3_10 1_555 1_555
C1_10 C2_10 1_555 1_555
C2_10 C3_10 1_555 1_555
C3_10 O7_5 1_555 1_555
C4_12 C2_10 1_555 1_555
C5_12 C1_10 1_555 1_555
O4_10 C8_10 1_555 1_555
O5_10 C8_10 1_555 1_555
C6_10 C5_12 1_555 1_555
C7_10 C4_12 1_555 1_555
C8_10 C7_10 1_555 1_555
Al4_5 O4_10 1_555 1_555
Al3_4 O3_5 1_555 1_555
Al2_7 O5_10 1_555 1_555
C6_10 C7_10 1_555 1_555
C4_12 H1_12 1_555 1_555
C1_10 H2_10 1_555 1_555
C5_12 H3_8 1_555 1_555
C6_10 H4_10 1_555 1_555
O2_6 Al3_3 1_555 1_555
C3_11 O2_6 1_555 1_555
O4_11 C8_11 1_555 1_555
Al4 O4_11 1_555 1_555
O6_4 Al3_3 1_555 1_555
O7_6 Al3_3 1_555 1_555
O8_5 Al3_3 1_555 1_555
C4_13 H1_13 1_555 1_555
C1_11 C2_11 1_555 1_555
C5_13 C1_11 1_555 1_555
C6_11 C5_13 1_555 1_555
Al2_2 O5_11 1_555 1_555
C6_11 C7_11 1_555 1_555
C1_11 H2_11 1_555 1_555
C5_13 H3_9 1_555 1_555
C6_11 H4_11 1_555 1_555
C1_12 C2_12 1_555 1_555
C5_14 C1_12 1_555 1_555
C6_12 C5_14 1_555 1_555
Al2_3 O5_12 1_555 1_555
C6_12 C7_12 1_555 1_555
C1_12 H2_12 1_555 1_555
C5_14 H3_10 1_555 1_555
C6_12 H4_12 1_555 1_555
O2_7 Al3_4 1_555 1_555
C3_12 O2_7 1_555 1_555
O4_12 C8_12 1_555 1_555
Al4_2 O4_12 1_555 1_555
O6_5 Al3_4 1_555 1_555
O7_7 Al3_4 1_555 1_555
O8_6 Al3_4 1_555 1_555
C4_14 H1_14 1_555 1_555
O6_4 Al3_5 1_555 1_555
O3_6 C3_13 1_555 1_555
C1_13 C2_13 1_555 1_555
C2_13 C3_13 1_555 1_555
C3_13 O7_6 1_555 1_555
C4_15 C2_13 1_555 1_555
C5_15 C1_13 1_555 1_555
O4_13 C8_13 1_555 1_555
O5_13 C8_13 1_555 1_555
C6_13 C5_15 1_555 1_555
C7_13 C4_15 1_555 1_555
C8_13 C7_13 1_555 1_555
Al4 O4_13 1_555 1_555
Al3_5 O3_6 1_555 1_555
Al2_5 O5_13 1_555 1_555
C6_13 C7_13 1_555 1_555
C4_15 H1_15 1_555 1_555
C1_13 H2_13 1_555 1_555
C5_15 H3_11 1_555 1_555
C6_13 H4_13 1_555 1_555
O6_5 Al3_5 1_555 1_555
O3_7 C3_14 1_555 1_555
C1_14 C2_14 1_555 1_555
C2_14 C3_14 1_555 1_555
C3_14 O7_7 1_555 1_555
C4_16 C2_14 1_555 1_555
C5_16 C1_14 1_555 1_555
O4_14 C8_14 1_555 1_555
O5_14 C8_14 1_555 1_555
C6_14 C5_16 1_555 1_555
C7_14 C4_16 1_555 1_555
C8_14 C7_14 1_555 1_555
Al4_2 O4_14 1_555 1_555
Al3_5 O3_7 1_555 1_555
Al2_6 O5_14 1_555 1_555
C6_14 C7_14 1_555 1_555
C4_16 H1_16 1_555 1_555
C1_14 H2_14 1_555 1_555
C5_16 H3_12 1_555 1_555
C6_14 H4_14 1_555 1_555
O4_15 C8_15 1_555 1_555
O5_15 C8_15 1_555 1_555
C6_15 C5_17 1_555 1_555
C7_15 C4_17 1_555 1_555
C8_15 C7_15 1_555 1_555
Al4_3 O4_15 1_555 1_555
Al2_8 O5_15 1_555 1_555
C6_15 C7_15 1_555 1_555
C4_17 H1_17 1_555 1_555
C6_15 H4_15 1_555 1_555
O2_8 Al3_5 1_555 1_555
O8_5 C3_15 1_555 1_555
C1_15 C2_15 1_555 1_555
C2_15 C3_15 1_555 1_555
C3_15 O2_8 1_555 1_555
C4_18 C2_15 1_555 1_555
C5_18 C1_15 1_555 1_555
O7_8 Al3_5 1_555 1_555
C4_18 H1_18 1_555 1_555
C1_15 H2_15 1_555 1_555
O4_16 C8_16 1_555 1_555
O5_16 C8_16 1_555 1_555
C6_16 C5_19 1_555 1_555
C7_16 C4_19 1_555 1_555
C8_16 C7_16 1_555 1_555
Al4_3 O4_16 1_555 1_555
Al2_7 O5_16 1_555 1_555
C6_16 C7_16 1_555 1_555
C4_19 H1_19 1_555 1_555
C6_16 H4_16 1_555 1_555
O8_6 C3_16 1_555 1_555
C1_16 C2_16 1_555 1_555
C2_16 C3_16 1_555 1_555
C3_16 O7_8 1_555 1_555
C4_20 C2_16 1_555 1_555
C5_20 C1_16 1_555 1_555
C4_20 H1_20 1_555 1_555
C1_16 H2_16 1_555 1_555
O6_6 Al2 1_555 1_555
Al2_4 O1_4 1_555 1_555
O1_4 Al4_2 1_555 1_555
Al2_5 O1_5 1_555 1_555
O1_5 Al4 1_555 1_555
O6_7 Al2_6 1_555 1_555
O6_7 Al4_2 1_555 1_555
O6_6 Al4 1_555 1_555
O6_8 Al4_4 1_555 1_555
Al4_5 O1_6 1_555 1_555
O1_6 Al2_7 1_555 1_555
O6_8 Al2_8 1_555 1_555
O6_9 Al2_7 1_555 1_555
O6_10 Al2_8 1_555 1_555
O6_9 Al4_3 1_555 1_555
O6_10 Al4_3 1_555 1_555

#END
