
###############################################################################
#
# This file contains modified crystal structure data generated from the
# MOF subset of the Cambridge Structural Database (CSD) v543 
# hosted by the Cambridge Crystallographic Data Centre (CCDC).
#
# This work is licensed under the Creative Commons
# Attribution-NonCommercial-ShareAlike 4.0 International License.
# To view a copy of this license, visit
# http://creativecommons.org/licenses/by-nc-sa/4.0/
# or send a letter to
# Creative Commons, PO Box 1866, Mountain View, CA 94042, USA.
#
# CIF created using the CSD Python API on 29 September 2022
# The structure has been converted into the P1 space group
# The structure has a 3D framework
# The original CSD entry OQOJUB is in the orthorhombic crystal system
# The original CSD entry OQOJUB is in a Sohncke space group
# The framework has been calculated to contain at least 10.0% void space
# The void calculation uses a probe of radius 1.32A, grid spacing 0.4
#
###############################################################################

data_OQOJUB
_chemical_formula_moiety         '(C120 H196 Li2 O32)n'
_symmetry_cell_setting           triclinic
_symmetry_space_group_name_H-M   'P 1'
_symmetry_Int_Tables_number      1
_space_group_name_Hall           'P 1'
loop_
_symmetry_equiv_pos_site_id
_symmetry_equiv_pos_as_xyz
1 x,y,z
_cell_length_a                   8.3104(2)
_cell_length_b                   12.4546(3)
_cell_length_c                   33.5852(8)
_cell_angle_alpha                90
_cell_angle_beta                 90
_cell_angle_gamma                90
_cell_volume                     3476.16
loop_
_atom_site_label
_atom_site_type_symbol
_atom_site_fract_x
_atom_site_fract_y
_atom_site_fract_z
H10 H 0.0711 0.5791 0.2738
H11 H 0.0566 0.4634 0.2942
H12 H 0.0222 0.6094 0.34
H34 H 0.0092 0.7866 0.3138
C1 C 0.3706(3) 0.57172(17) 0.18486(7)
H1 H 0.3157 0.5207 0.2034
C2 C 0.4888(3) 0.50387(19) 0.15928(7)
H2 H 0.445 0.4309 0.155
H3 H 0.5057 0.5382 0.133
C3 C 0.6491(3) 0.49798(19) 0.18251(7)
H4 H 0.6822 0.4225 0.1869
H5 H 0.7359 0.5362 0.1681
C4 C 0.6104(3) 0.55351(17) 0.22202(7)
H6 H 0.5505 0.4996 0.2383
C5 C 0.7497(3) 0.59120(17) 0.24768(7)
H7 H 0.8109 0.6475 0.2328
C6 C 0.8637(3) 0.49803(18) 0.25728(7)
H8 H 0.8004 0.4378 0.2684
H9 H 0.9144 0.4728 0.2323
C7 C 0.9955(3) 0.52864(18) 0.28682(7)
C8 C 0.9283(3) 0.58106(18) 0.32468(7)
C9 C 0.8440(3) 0.49860(18) 0.35126(7)
H13 H 0.756 0.4644 0.336
H14 H 0.922 0.4418 0.3585
C10 C 0.7748(3) 0.54705(18) 0.38911(7)
H15 H 0.8651 0.5753 0.4058
C11 C 0.6609(3) 0.63873(18) 0.37943(7)
H16 H 0.6215 0.6721 0.4043
H17 H 0.567 0.6113 0.3644
C12 C 0.7509(3) 0.72167(18) 0.35454(7)
H18 H 0.8413 0.7504 0.3705
H19 H 0.6772 0.7821 0.3487
C13 C 0.8181(3) 0.67825(17) 0.31491(7)
C14 C 0.4197(3) 0.68613(19) 0.24983(7)
H20 H 0.3582 0.6293 0.2637
H21 H 0.3449 0.7459 0.2439
C15 C 0.5544(3) 0.72685(18) 0.27730(7)
H22 H 0.6072 0.7894 0.2646
H23 H 0.5062 0.7515 0.3027
C16 C 0.6821(3) 0.64123(17) 0.28635(7)
H24 H 0.6244 0.5819 0.3005
C17 C 0.4863(3) 0.64130(17) 0.21077(7)
C18 C 0.2383(3) 0.62348(18) 0.15934(7)
H25 H 0.2911 0.6642 0.1373
C19 C 0.1367(3) 0.53284(19) 0.14079(7)
H26 H 0.2098 0.4843 0.126
H27 H 0.0878 0.4907 0.1627
C20 C 0.0025(3) 0.56820(19) 0.11257(7)
C21 C 0.0617(3) 0.62693(18) 0.07582(7)
O2 O 0.17957(19) 0.58872(13) 0.05707(5)
C22 C 0.1313(3) 0.7010(2) 0.18253(8)
H30 H 0.0445 0.7268 0.1652
H31 H 0.1957 0.7622 0.1917
H32 H 0.085 0.664 0.2056
C23 C 0.9187(3) 0.76931(19) 0.29625(8)
H33 H 0.9597 0.7461 0.2703
H35 H 0.851 0.8331 0.2928
C24 C 0.5600(3) 0.73139(19) 0.18535(7)
H36 H 0.5964 0.7018 0.1599
H37 H 0.6518 0.7629 0.1995
H38 H 0.4788 0.7869 0.1805
O3 O 0.70074(19) 0.45826(12) 0.40955(5)
C25 C 0.6096(3) 0.48272(18) 0.44352(7)
H39 H 0.6517 0.5501 0.4559
C26 C 0.6260(3) 0.39065(18) 0.47276(7)
H40 H 0.5561 0.4051 0.4964
C27 C 0.5705(3) 0.28689(18) 0.45282(7)
H41 H 0.6357 0.2742 0.4282
C28 C 0.3949(3) 0.30308(17) 0.44141(7)
H42 H 0.3287 0.3118 0.4661
C29 C 0.3769(3) 0.40309(18) 0.41523(7)
H43 H 0.4334 0.3903 0.3894
O4 O 0.44446(18) 0.49645(13) 0.43384(5)
O5 O 0.78769(18) 0.38071(13) 0.48566(5)
H44 H 0.8023 0.4194 0.5058
O6 O 0.58729(18) 0.19728(12) 0.47900(5)
H45 H 0.6685 0.1613 0.4724
O7 O 0.33769(19) 0.21276(13) 0.41928(5)
H46 H 0.2391 0.204 0.4237
C30 C 0.2023(3) 0.4295(2) 0.40690(7)
H47 H 0.1968 0.4958 0.3907
H48 H 0.1537 0.3705 0.3912
O8 O 0.11176(19) 0.44461(13) 0.44245(5)
H49 H 0.1447 0.4998 0.4543
Li1 Li 0.0098(5) 0.8287(3) 0.03130(12)
O9 O 0.21231(18) 0.88071(13) 0.01434(5)
Li2 Li 0.4902(5) 0.1713(3) 0.53130(12)
Li4 Li 0.9902(5) 0.3287(3) 0.46870(12)
H28 H 0.9412 0.504 0.1041
H29 H 0.9276 0.6157 0.1273
O1 O 0.98675(19) 0.71048(13) 0.06578(5)
O11 O 0.88824(19) 0.94461(13) 0.05755(5)
O10 O 0.91271(18) 0.80272(12) 0.97900(5)
C1_2 C 0.1294(3) 0.42828(17) 0.68486(7)
H1_2 H 0.1843 0.4793 0.7034
C2_2 C 0.0112(3) 0.49613(19) 0.65928(7)
H2_2 H 0.055 0.5691 0.655
C14_2 C 0.0803(3) 0.31387(19) 0.74983(7)
H20_2 H 0.1418 0.3707 0.7637
H21_2 H 0.1551 0.2541 0.7439
C17_2 C 0.0137(3) 0.35870(17) 0.71077(7)
C18_2 C 0.2617(3) 0.37652(18) 0.65934(7)
H25_2 H 0.2089 0.3358 0.6373
C19_2 C 0.3633(3) 0.46716(19) 0.64079(7)
H26_2 H 0.2902 0.5157 0.626
H27_2 H 0.4122 0.5093 0.6627
C20_2 C 0.4975(3) 0.43180(19) 0.61257(7)
H28_2 H 0.5588 0.496 0.6041
H29_2 H 0.5724 0.3843 0.6273
C21_2 C 0.4383(3) 0.37307(18) 0.57582(7)
O1_2 O 0.51325(19) 0.28952(13) 0.56578(5)
O2_2 O 0.32043(19) 0.41128(13) 0.55707(5)
C22_2 C 0.3687(3) 0.2990(2) 0.68253(8)
H30_2 H 0.4555 0.2732 0.6652
H31_2 H 0.3043 0.2378 0.6917
H32_2 H 0.415 0.336 0.7056
H38_2 H 0.0212 0.2131 0.6805
C28_2 C 0.1051(3) 0.69692(17) 0.94141(7)
H42_2 H 0.1713 0.6882 0.9661
C29_2 C 0.1231(3) 0.59691(18) 0.91523(7)
H43_2 H 0.0666 0.6097 0.8894
O4_2 O 0.05554(18) 0.50355(13) 0.93384(5)
O7_2 O 0.16231(19) 0.78724(13) 0.91928(5)
H46_2 H 0.2609 0.796 0.9237
C30_2 C 0.2977(3) 0.5705(2) 0.90690(7)
H47_2 H 0.3032 0.5042 0.8907
H48_2 H 0.3463 0.6295 0.8912
O8_2 O 0.38824(19) 0.55539(13) 0.94245(5)
H49_2 H 0.3553 0.5002 0.9543
O9_2 O 0.28769(18) 0.11929(13) 0.51434(5)
O11_2 O 0.61176(19) 0.05539(13) 0.55755(5)
Li3 Li 0.5098(5) 0.6713(3) 0.96870(12)
H3_2 H 0.9943 0.4618 0.633
C3_2 C 0.8509(3) 0.50202(19) 0.68251(7)
H4_2 H 0.8178 0.5775 0.6869
H5_2 H 0.7641 0.4638 0.6681
C4_2 C 0.8896(3) 0.44649(17) 0.72202(7)
H6_2 H 0.9495 0.5004 0.7383
C5_2 C 0.7503(3) 0.40880(17) 0.74768(7)
H7_2 H 0.6891 0.3525 0.7328
C6_2 C 0.6363(3) 0.50197(18) 0.75728(7)
H8_2 H 0.6996 0.5622 0.7684
H9_2 H 0.5856 0.5272 0.7323
C7_2 C 0.5045(3) 0.47136(18) 0.78682(7)
H10_2 H 0.4289 0.4209 0.7738
H11_2 H 0.4434 0.5366 0.7942
C8_2 C 0.5717(3) 0.41894(18) 0.82468(7)
H12_2 H 0.4778 0.3906 0.84
C9_2 C 0.6560(3) 0.50140(18) 0.85126(7)
H13_2 H 0.744 0.5356 0.836
H14_2 H 0.578 0.5582 0.8585
C10_2 C 0.7252(3) 0.45295(18) 0.88911(7)
H15_2 H 0.6349 0.4247 0.9058
C11_2 C 0.8391(3) 0.36127(18) 0.87943(7)
H16_2 H 0.8785 0.3279 0.9043
H17_2 H 0.933 0.3887 0.8644
C12_2 C 0.7491(3) 0.27833(18) 0.85454(7)
H18_2 H 0.6587 0.2496 0.8705
H19_2 H 0.8228 0.2179 0.8487
C13_2 C 0.6819(3) 0.32175(17) 0.81491(7)
C15_2 C 0.9456(3) 0.27315(18) 0.77730(7)
H22_2 H 0.8928 0.2106 0.7646
H23_2 H 0.9938 0.2485 0.8027
C16_2 C 0.8179(3) 0.35877(17) 0.78635(7)
H24_2 H 0.8756 0.4181 0.8005
C23_2 C 0.5813(3) 0.23069(19) 0.79625(8)
H33_2 H 0.5403 0.2539 0.7703
H34_2 H 0.4908 0.2134 0.8138
H35_2 H 0.649 0.1669 0.7928
C24_2 C 0.9400(3) 0.26861(19) 0.68535(7)
H36_2 H 0.9036 0.2982 0.6599
H37_2 H 0.8482 0.2371 0.6995
O3_2 O 0.79926(19) 0.54174(12) 0.90955(5)
C25_2 C 0.8904(3) 0.51728(18) 0.94352(7)
H39_2 H 0.8483 0.4499 0.9559
C26_2 C 0.8740(3) 0.60935(18) 0.97276(7)
H40_2 H 0.9439 0.5949 0.9964
C27_2 C 0.9295(3) 0.71311(18) 0.95282(7)
H41_2 H 0.8643 0.7258 0.9282
O5_2 O 0.71231(18) 0.61929(13) 0.98566(5)
H45_2 H 0.8315 0.8387 0.9724
H28_3 H 0.0588 0.004 0.3959
H29_3 H 0.0724 0.1157 0.3727
O1_3 O 0.01325(19) 0.21048(13) 0.43422(5)
O10_2 O 0.08729(18) 0.30272(12) 0.52100(5)
C1_3 C 0.6294(3) 0.07172(17) 0.31514(7)
H1_3 H 0.6843 0.0207 0.2966
C2_3 C 0.5112(3) 0.00387(19) 0.34072(7)
H3_3 H 0.4943 0.0382 0.367
H5_3 H 0.2641 0.0362 0.3319
C4_3 C 0.3896(3) 0.05351(17) 0.27798(7)
C5_3 C 0.2503(3) 0.09120(17) 0.25232(7)
H7_3 H 0.1891 0.1475 0.2672
C7_3 C 0.0045(3) 0.02864(18) 0.21318(7)
C8_3 C 0.0717(3) 0.08106(18) 0.17532(7)
C10_3 C 0.2252(3) 0.04705(18) 0.11089(7)
H15_3 H 0.1349 0.0753 0.0942
C11_3 C 0.3391(3) 0.13873(18) 0.12057(7)
H16_3 H 0.3785 0.1721 0.0957
H17_3 H 0.433 0.1113 0.1356
C12_3 C 0.2491(3) 0.22167(18) 0.14546(7)
H18_3 H 0.1587 0.2504 0.1295
H19_3 H 0.3228 0.2821 0.1513
C13_3 C 0.1819(3) 0.17825(17) 0.18509(7)
C14_3 C 0.5803(3) 0.18613(19) 0.25017(7)
H20_3 H 0.6418 0.1293 0.2363
H21_3 H 0.6551 0.2459 0.2561
C15_3 C 0.4456(3) 0.22685(18) 0.22270(7)
H22_3 H 0.3928 0.2894 0.2354
H23_3 H 0.4938 0.2515 0.1973
C16_3 C 0.3179(3) 0.14123(17) 0.21365(7)
H24_3 H 0.3756 0.0819 0.1995
C17_3 C 0.5137(3) 0.14130(17) 0.28923(7)
C18_3 C 0.7617(3) 0.12348(18) 0.34066(7)
H25_3 H 0.7089 0.1642 0.3627
C19_3 C 0.8633(3) 0.03284(19) 0.35921(7)
C20_3 C 0.9975(3) 0.06820(19) 0.38743(7)
C21_3 C 0.9383(3) 0.12693(18) 0.42418(7)
O2_3 O 0.82043(19) 0.08872(13) 0.44293(5)
C22_3 C 0.8687(3) 0.2010(2) 0.31747(8)
H30_3 H 0.9555 0.2268 0.3348
H31_3 H 0.8043 0.2622 0.3083
H32_3 H 0.915 0.164 0.2944
C23_3 C 0.0813(3) 0.26931(19) 0.20375(8)
H33_3 H 0.0403 0.2461 0.2297
H35_3 H 0.149 0.3331 0.2072
C24_3 C 0.4400(3) 0.23139(19) 0.31465(7)
H36_3 H 0.4036 0.2018 0.3401
H37_3 H 0.3482 0.2629 0.3005
H38_3 H 0.5212 0.2869 0.3195
H39_3 H 0.3483 0.0501 0.0441
H2_3 H 0.555 0.9309 0.345
C3_3 C 0.3509(3) 0.99798(19) 0.31749(7)
H4_3 H 0.3178 0.9225 0.3131
H6_3 H 0.4495 0.9996 0.2617
C6_3 C 0.1363(3) 0.99803(18) 0.24272(7)
H8_3 H 0.1996 0.9378 0.2316
H9_3 H 0.0856 0.9728 0.2677
C9_3 C 0.1560(3) 0.99860(18) 0.14874(7)
H13_3 H 0.244 0.9644 0.164
H14_3 H 0.078 0.9418 0.1415
H26_3 H 0.7902 0.9843 0.374
H27_3 H 0.9122 0.9907 0.3373
O3_3 O 0.29926(19) 0.95826(12) 0.09045(5)
C25_3 C 0.3904(3) 0.98272(18) 0.05648(7)
C26_3 C 0.3740(3) 0.89065(18) 0.02724(7)
H40_3 H 0.4439 0.9051 0.0036
C27_3 C 0.4295(3) 0.78689(18) 0.04718(7)
H41_3 H 0.3643 0.7742 0.0718
C28_3 C 0.6051(3) 0.80308(17) 0.05859(7)
H42_3 H 0.6713 0.8118 0.0339
C29_3 C 0.6231(3) 0.90309(18) 0.08477(7)
H43_3 H 0.5666 0.8903 0.1106
O4_3 O 0.55554(18) 0.99645(13) 0.06616(5)
O6_2 O 0.41271(18) 0.69728(12) 0.02100(5)
H45_3 H 0.3315 0.6613 0.0276
O7_3 O 0.66231(19) 0.71276(13) 0.08072(5)
H46_3 H 0.7609 0.704 0.0763
C30_3 C 0.7977(3) 0.9295(2) 0.09310(7)
H47_3 H 0.8032 0.9958 0.1093
H48_3 H 0.8463 0.8705 0.1088
H49_3 H 0.8553 0.9998 0.0457
H44_2 H 0.1977 0.9194 0.9942
C3_4 C 0.1491(3) 0.00202(19) 0.81749(7)
H4_4 H 0.1822 0.0775 0.8131
H6_4 H 0.0505 0.0004 0.7617
C6_4 C 0.3637(3) 0.00197(18) 0.74272(7)
H8_4 H 0.3004 0.0622 0.7316
H9_4 H 0.4144 0.0272 0.7677
H11_3 H 0.5566 0.0366 0.7058
C9_4 C 0.3440(3) 0.00140(18) 0.64874(7)
H13_4 H 0.256 0.0356 0.664
H14_4 H 0.422 0.0582 0.6415
O3_4 O 0.20074(19) 0.04174(12) 0.59045(5)
C25_4 C 0.1096(3) 0.01728(18) 0.55648(7)
C26_4 C 0.1260(3) 0.10935(18) 0.52724(7)
H40_4 H 0.0561 0.0949 0.5036
C27_4 C 0.0705(3) 0.21311(18) 0.54718(7)
H41_4 H 0.1357 0.2258 0.5718
H44_3 H 0.3023 0.0806 0.4942
H45_4 H 0.1685 0.3387 0.5276
H2_4 H 0.945 0.0691 0.845
H26_4 H 0.7098 0.0157 0.874
H27_4 H 0.5878 0.0093 0.8373
C28_4 C 0.8949(3) 0.19692(17) 0.55859(7)
H42_4 H 0.8287 0.1882 0.5339
C29_4 C 0.8769(3) 0.09691(18) 0.58477(7)
H43_4 H 0.9334 0.1097 0.6106
O4_4 O 0.94446(18) 0.00355(13) 0.56616(5)
O7_4 O 0.83769(19) 0.28724(13) 0.58072(5)
H46_4 H 0.7391 0.296 0.5763
C30_4 C 0.7023(3) 0.0705(2) 0.59310(7)
H47_4 H 0.6968 0.0042 0.6093
H48_4 H 0.6537 0.1295 0.6088
H49_4 H 0.6447 0.0002 0.5457
C1_4 C 0.8706(3) 0.92828(17) 0.81514(7)
H1_4 H 0.8157 0.9793 0.7966
C2_4 C 0.9888(3) 0.99613(19) 0.84072(7)
C14_4 C 0.9197(3) 0.81387(19) 0.75017(7)
H20_4 H 0.8582 0.8707 0.7363
H21_4 H 0.8449 0.7541 0.7561
C17_4 C 0.9863(3) 0.85870(17) 0.78923(7)
C18_4 C 0.7383(3) 0.87652(18) 0.84066(7)
H25_4 H 0.7911 0.8358 0.8627
C19_4 C 0.6367(3) 0.96716(19) 0.85921(7)
C20_4 C 0.5025(3) 0.93180(19) 0.88743(7)
H28_4 H 0.4412 0.996 0.8959
H29_4 H 0.4276 0.8843 0.8727
C21_4 C 0.5617(3) 0.87307(18) 0.92418(7)
O1_4 O 0.48675(19) 0.78952(13) 0.93422(5)
O2_4 O 0.67957(19) 0.91128(13) 0.94293(5)
C22_4 C 0.6313(3) 0.7990(2) 0.81747(8)
H30_4 H 0.5445 0.7732 0.8348
H31_4 H 0.6957 0.7378 0.8083
H32_4 H 0.585 0.836 0.7944
H38_4 H 0.9788 0.7131 0.8195
H44_4 H 0.6977 0.5806 0.0058
H10_3 H 0.9289 0.0791 0.2262
H12_3 H 0.9778 0.1094 0.16
H34_3 H 0.9908 0.2866 0.1862
H11_4 H 0.9434 0.9634 0.2058
H3_4 H 0.0057 0.9618 0.867
H5_4 H 0.2359 0.9638 0.8319
C4_4 C 0.1104(3) 0.94649(17) 0.77798(7)
C5_4 C 0.2497(3) 0.90880(17) 0.75232(7)
H7_4 H 0.3109 0.8525 0.7672
C7_4 C 0.4955(3) 0.97136(18) 0.71318(7)
H10_4 H 0.5711 0.9209 0.7262
C8_4 C 0.4283(3) 0.91894(18) 0.67532(7)
H12_4 H 0.5222 0.8906 0.66
C10_4 C 0.2748(3) 0.95295(18) 0.61089(7)
H15_4 H 0.3651 0.9247 0.5942
C11_4 C 0.1609(3) 0.86127(18) 0.62057(7)
H16_4 H 0.1215 0.8279 0.5957
H17_4 H 0.067 0.8887 0.6356
C12_4 C 0.2509(3) 0.77833(18) 0.64546(7)
H18_4 H 0.3413 0.7496 0.6295
H19_4 H 0.1772 0.7179 0.6513
C13_4 C 0.3181(3) 0.82175(17) 0.68509(7)
C15_4 C 0.0544(3) 0.77315(18) 0.72270(7)
H22_4 H 0.1072 0.7106 0.7354
H23_4 H 0.0062 0.7485 0.6973
C16_4 C 0.1821(3) 0.85877(17) 0.71365(7)
H24_4 H 0.1244 0.9181 0.6995
C23_4 C 0.4187(3) 0.73069(19) 0.70375(8)
H33_4 H 0.4597 0.7539 0.7297
H34_4 H 0.5092 0.7134 0.6862
H35_4 H 0.351 0.6669 0.7072
C24_4 C 0.0600(3) 0.76861(19) 0.81465(7)
H36_4 H 0.0964 0.7982 0.8401
H37_4 H 0.1518 0.7371 0.8005
H39_4 H 0.1517 0.9499 0.5441
loop_
_geom_bond_atom_site_label_1
_geom_bond_atom_site_label_2
_geom_bond_site_symmetry_1
_geom_bond_site_symmetry_2
C1 H1 1_555 1_555
C2 C1 1_555 1_555
H2 C2 1_555 1_555
H3 C2 1_555 1_555
C3 C2 1_555 1_555
H4 C3 1_555 1_555
H5 C3 1_555 1_555
C4 C3 1_555 1_555
H6 C4 1_555 1_555
C5 C4 1_555 1_555
H7 C5 1_555 1_555
C6 C5 1_555 1_555
H8 C6 1_555 1_555
H9 C6 1_555 1_555
C7 C6 1_555 1_555
C8 C7 1_555 1_555
C9 C8 1_555 1_555
H13 C9 1_555 1_555
H14 C9 1_555 1_555
C10 C9 1_555 1_555
H15 C10 1_555 1_555
C11 C10 1_555 1_555
H16 C11 1_555 1_555
H17 C11 1_555 1_555
C12 C11 1_555 1_555
H18 C12 1_555 1_555
H19 C12 1_555 1_555
C13 C8 1_555 1_555
C14 H20 1_555 1_555
H21 C14 1_555 1_555
C15 C14 1_555 1_555
H22 C15 1_555 1_555
H23 C15 1_555 1_555
C16 C5 1_555 1_555
H24 C16 1_555 1_555
C17 C1 1_555 1_555
C18 C1 1_555 1_555
H25 C18 1_555 1_555
C19 C18 1_555 1_555
H26 C19 1_555 1_555
H27 C19 1_555 1_555
C20 C19 1_555 1_555
C21 C20 1_555 1_555
O2 C21 1_555 1_555
C22 C18 1_555 1_555
H30 C22 1_555 1_555
H31 C22 1_555 1_555
H32 C22 1_555 1_555
C23 C13 1_555 1_555
H33 C23 1_555 1_555
H35 C23 1_555 1_555
C24 C17 1_555 1_555
H36 C24 1_555 1_555
H37 C24 1_555 1_555
H38 C24 1_555 1_555
O3 C10 1_555 1_555
C25 O3 1_555 1_555
H39 C25 1_555 1_555
C26 C25 1_555 1_555
H40 C26 1_555 1_555
C27 C26 1_555 1_555
H41 C27 1_555 1_555
C28 C27 1_555 1_555
H42 C28 1_555 1_555
C29 C28 1_555 1_555
H43 C29 1_555 1_555
O4 C25 1_555 1_555
O5 C26 1_555 1_555
H44 O5 1_555 1_555
O6 C27 1_555 1_555
H45 O6 1_555 1_555
O7 C28 1_555 1_555
H46 O7 1_555 1_555
C30 C29 1_555 1_555
H47 C30 1_555 1_555
H48 C30 1_555 1_555
O8 C30 1_555 1_555
H49 O8 1_555 1_555
O9 Li1 1_555 1_555
Li2 O6 1_555 1_555
Li4 O5 1_555 1_555
C4 C17 1_555 1_555
C12 C13 1_555 1_555
C13 C16 1_555 1_555
C14 C17 1_555 1_555
C15 C16 1_555 1_555
C29 O4 1_555 1_555
C1_2 H1_2 1_555 1_555
C2_2 C1_2 1_555 1_555
H2_2 C2_2 1_555 1_555
C14_2 H20_2 1_555 1_555
H21_2 C14_2 1_555 1_555
C17_2 C1_2 1_555 1_555
C18_2 C1_2 1_555 1_555
H25_2 C18_2 1_555 1_555
C19_2 C18_2 1_555 1_555
H26_2 C19_2 1_555 1_555
H27_2 C19_2 1_555 1_555
C20_2 C19_2 1_555 1_555
H28_2 C20_2 1_555 1_555
H29_2 C20_2 1_555 1_555
C21_2 C20_2 1_555 1_555
O1_2 C21_2 1_555 1_555
O2_2 C21_2 1_555 1_555
C22_2 C18_2 1_555 1_555
H30_2 C22_2 1_555 1_555
H31_2 C22_2 1_555 1_555
H32_2 C22_2 1_555 1_555
H42_2 C28_2 1_555 1_555
C29_2 C28_2 1_555 1_555
H43_2 C29_2 1_555 1_555
O7_2 C28_2 1_555 1_555
H46_2 O7_2 1_555 1_555
C30_2 C29_2 1_555 1_555
H47_2 C30_2 1_555 1_555
H48_2 C30_2 1_555 1_555
O8_2 C30_2 1_555 1_555
H49_2 O8_2 1_555 1_555
Li2 O1_2 1_555 1_555
O9_2 Li2 1_555 1_555
O11_2 Li2 1_555 1_555
Li3 O8_2 1_555 1_555
C14_2 C17_2 1_555 1_555
C29_2 O4_2 1_555 1_555
H4_2 C3_2 1_555 1_555
H5_2 C3_2 1_555 1_555
C4_2 C3_2 1_555 1_555
H6_2 C4_2 1_555 1_555
C5_2 C4_2 1_555 1_555
H7_2 C5_2 1_555 1_555
C6_2 C5_2 1_555 1_555
H8_2 C6_2 1_555 1_555
H9_2 C6_2 1_555 1_555
C7_2 C6_2 1_555 1_555
H10_2 C7_2 1_555 1_555
H11_2 C7_2 1_555 1_555
C8_2 C7_2 1_555 1_555
H12_2 C8_2 1_555 1_555
C9_2 C8_2 1_555 1_555
H13_2 C9_2 1_555 1_555
H14_2 C9_2 1_555 1_555
C10_2 C9_2 1_555 1_555
H15_2 C10_2 1_555 1_555
C11_2 C10_2 1_555 1_555
H16_2 C11_2 1_555 1_555
H17_2 C11_2 1_555 1_555
C12_2 C11_2 1_555 1_555
H18_2 C12_2 1_555 1_555
H19_2 C12_2 1_555 1_555
C13_2 C8_2 1_555 1_555
H22_2 C15_2 1_555 1_555
H23_2 C15_2 1_555 1_555
C16_2 C5_2 1_555 1_555
H24_2 C16_2 1_555 1_555
C23_2 C13_2 1_555 1_555
H33_2 C23_2 1_555 1_555
H34_2 C23_2 1_555 1_555
H35_2 C23_2 1_555 1_555
H36_2 C24_2 1_555 1_555
H37_2 C24_2 1_555 1_555
O3_2 C10_2 1_555 1_555
C25_2 O3_2 1_555 1_555
H39_2 C25_2 1_555 1_555
C26_2 C25_2 1_555 1_555
H40_2 C26_2 1_555 1_555
C27_2 C26_2 1_555 1_555
H41_2 C27_2 1_555 1_555
O5_2 C26_2 1_555 1_555
O10 C27_2 1_555 1_555
H45_2 O10 1_555 1_555
Li3 O5_2 1_555 1_555
C12_2 C13_2 1_555 1_555
C13_2 C16_2 1_555 1_555
C15_2 C16_2 1_555 1_555
C1_3 H1_3 1_555 1_555
C2_3 C1_3 1_555 1_555
H3_3 C2_3 1_555 1_555
C5_3 C4_3 1_555 1_555
H7_3 C5_3 1_555 1_555
C8_3 C7_3 1_555 1_555
H15_3 C10_3 1_555 1_555
C11_3 C10_3 1_555 1_555
H16_3 C11_3 1_555 1_555
H17_3 C11_3 1_555 1_555
C12_3 C11_3 1_555 1_555
H18_3 C12_3 1_555 1_555
H19_3 C12_3 1_555 1_555
C13_3 C8_3 1_555 1_555
C14_3 H20_3 1_555 1_555
H21_3 C14_3 1_555 1_555
C15_3 C14_3 1_555 1_555
H22_3 C15_3 1_555 1_555
H23_3 C15_3 1_555 1_555
C16_3 C5_3 1_555 1_555
H24_3 C16_3 1_555 1_555
C17_3 C1_3 1_555 1_555
C18_3 C1_3 1_555 1_555
H25_3 C18_3 1_555 1_555
C19_3 C18_3 1_555 1_555
C20_3 C19_3 1_555 1_555
C21_3 C20_3 1_555 1_555
O2_3 C21_3 1_555 1_555
C22_3 C18_3 1_555 1_555
H30_3 C22_3 1_555 1_555
H31_3 C22_3 1_555 1_555
H32_3 C22_3 1_555 1_555
C23_3 C13_3 1_555 1_555
H33_3 C23_3 1_555 1_555
H35_3 C23_3 1_555 1_555
C24_3 C17_3 1_555 1_555
H36_3 C24_3 1_555 1_555
H37_3 C24_3 1_555 1_555
H38_3 C24_3 1_555 1_555
C4_3 C17_3 1_555 1_555
C12_3 C13_3 1_555 1_555
C13_3 C16_3 1_555 1_555
C14_3 C17_3 1_555 1_555
C15_3 C16_3 1_555 1_555
H4_3 C3_3 1_555 1_555
H8_3 C6_3 1_555 1_555
H9_3 C6_3 1_555 1_555
H13_3 C9_3 1_555 1_555
H14_3 C9_3 1_555 1_555
C25_3 O3_3 1_555 1_555
C26_3 C25_3 1_555 1_555
H40_3 C26_3 1_555 1_555
C27_3 C26_3 1_555 1_555
H41_3 C27_3 1_555 1_555
C28_3 C27_3 1_555 1_555
H42_3 C28_3 1_555 1_555
C29_3 C28_3 1_555 1_555
H43_3 C29_3 1_555 1_555
O4_3 C25_3 1_555 1_555
O9 C26_3 1_555 1_555
O6_2 C27_3 1_555 1_555
H45_3 O6_2 1_555 1_555
O7_3 C28_3 1_555 1_555
H46_3 O7_3 1_555 1_555
C30_3 C29_3 1_555 1_555
H47_3 C30_3 1_555 1_555
H48_3 C30_3 1_555 1_555
O11 C30_3 1_555 1_555
H49_3 O11 1_555 1_555
C29_3 O4_3 1_555 1_555
H4_4 C3_4 1_555 1_555
H8_4 C6_4 1_555 1_555
H9_4 C6_4 1_555 1_555
H13_4 C9_4 1_555 1_555
H14_4 C9_4 1_555 1_555
C25_4 O3_4 1_555 1_555
C26_4 C25_4 1_555 1_555
H40_4 C26_4 1_555 1_555
C27_4 C26_4 1_555 1_555
H41_4 C27_4 1_555 1_555
O9_2 C26_4 1_555 1_555
H44_3 O9_2 1_555 1_555
O10_2 C27_4 1_555 1_555
H45_4 O10_2 1_555 1_555
H42_4 C28_4 1_555 1_555
C29_4 C28_4 1_555 1_555
H43_4 C29_4 1_555 1_555
O7_4 C28_4 1_555 1_555
H46_4 O7_4 1_555 1_555
C30_4 C29_4 1_555 1_555
H47_4 C30_4 1_555 1_555
H48_4 C30_4 1_555 1_555
O11_2 C30_4 1_555 1_555
H49_4 O11_2 1_555 1_555
C29_4 O4_4 1_555 1_555
C1_4 H1_4 1_555 1_555
C2_4 C1_4 1_555 1_555
C14_4 H20_4 1_555 1_555
H21_4 C14_4 1_555 1_555
C17_4 C1_4 1_555 1_555
C18_4 C1_4 1_555 1_555
H25_4 C18_4 1_555 1_555
C19_4 C18_4 1_555 1_555
C20_4 C19_4 1_555 1_555
H28_4 C20_4 1_555 1_555
H29_4 C20_4 1_555 1_555
C21_4 C20_4 1_555 1_555
O1_4 C21_4 1_555 1_555
O2_4 C21_4 1_555 1_555
C22_4 C18_4 1_555 1_555
H30_4 C22_4 1_555 1_555
H31_4 C22_4 1_555 1_555
H32_4 C22_4 1_555 1_555
Li3 O1_4 1_555 1_555
C14_4 C17_4 1_555 1_555
C5_4 C4_4 1_555 1_555
H7_4 C5_4 1_555 1_555
H10_4 C7_4 1_555 1_555
C8_4 C7_4 1_555 1_555
H12_4 C8_4 1_555 1_555
H15_4 C10_4 1_555 1_555
C11_4 C10_4 1_555 1_555
H16_4 C11_4 1_555 1_555
H17_4 C11_4 1_555 1_555
C12_4 C11_4 1_555 1_555
H18_4 C12_4 1_555 1_555
H19_4 C12_4 1_555 1_555
C13_4 C8_4 1_555 1_555
H22_4 C15_4 1_555 1_555
H23_4 C15_4 1_555 1_555
C16_4 C5_4 1_555 1_555
H24_4 C16_4 1_555 1_555
C23_4 C13_4 1_555 1_555
H33_4 C23_4 1_555 1_555
H34_4 C23_4 1_555 1_555
H35_4 C23_4 1_555 1_555
H36_4 C24_4 1_555 1_555
H37_4 C24_4 1_555 1_555
C12_4 C13_4 1_555 1_555
C13_4 C16_4 1_555 1_555
C15_4 C16_4 1_555 1_555

#END
