
###############################################################################
#
# This file contains modified crystal structure data generated from the
# MOF subset of the Cambridge Structural Database (CSD) v543 
# hosted by the Cambridge Crystallographic Data Centre (CCDC).
#
# This work is licensed under the Creative Commons
# Attribution-NonCommercial-ShareAlike 4.0 International License.
# To view a copy of this license, visit
# http://creativecommons.org/licenses/by-nc-sa/4.0/
# or send a letter to
# Creative Commons, PO Box 1866, Mountain View, CA 94042, USA.
#
# CIF created using the CSD Python API on 29 September 2022
# The structure has been converted into the P1 space group
# The structure has a 3D framework
# The original CSD entry OQORIY is in the orthorhombic crystal system
# The framework has been calculated to contain at least 10.0% void space
# The void calculation uses a probe of radius 1.32A, grid spacing 0.4
# The framework is charged, counterions have been retained in the structure
#
###############################################################################

data_OQORIY
_chemical_formula_moiety         '(C152 H88 Co6 Cr10 Mn8 N56 O96 2+)n'
_symmetry_cell_setting           triclinic
_symmetry_space_group_name_H-M   'P 1'
_symmetry_Int_Tables_number      1
_space_group_name_Hall           'P 1'
loop_
_symmetry_equiv_pos_site_id
_symmetry_equiv_pos_as_xyz
1 x,y,z
_cell_length_a                   19.4566(8)
_cell_length_b                   15.5539(6)
_cell_length_c                   22.9545(9)
_cell_angle_alpha                90
_cell_angle_beta                 90
_cell_angle_gamma                90
_cell_volume                     6946.63
loop_
_atom_site_label
_atom_site_type_symbol
_atom_site_fract_x
_atom_site_fract_y
_atom_site_fract_z
Mn1 Mn 0.250000 -0.000000 0.38191(7)
Mn2 Mn 0.35577(7) 0.250000 0.750000
Cr2 Cr 0.250000 -0.000000 0.61656(7)
O5 O 0.2461(2) 0.1269(3) 0.6217(2)
O6 O 0.3201(2) 0.0130(3) 0.6789(2)
O7 O 0.2856(2) 0.2335(3) 0.6772(2)
O8 O 0.3490(2) 0.1130(3) 0.7461(2)
O11 O 0.3201(3) 0.0112(3) 0.4557(2)
O12 O 0.3191(2) 0.0054(3) 0.5532(2)
C3 C 0.2795(4) 0.1567(5) 0.6640(3)
C4 C 0.3205(4) 0.0887(5) 0.7015(4)
C6 C 0.2896(4) 0.0060(4) 0.5027(4)
O17 O 0.2033(2) 0.2397(3) 0.3127(2)
O18 O 0.1357(2) 0.1229(3) 0.2530(2)
O19 O 0.2510(2) 0.1400(3) 0.3698(2)
O20 O 0.1745(3) 0.0174(4) 0.3120(2)
C9 C 0.2125(3) 0.1625(5) 0.3290(3)
C10 C 0.1698(4) 0.0948(5) 0.2955(3)
Cr3 Cr 0.13331(7) 0.250000 0.250000
O27 O 0.2856(2) 0.2665(3) 0.8228(2)
O28 O 0.3490(2) 0.3870(3) 0.7539(2)
O29 O 0.4442(2) 0.2385(3) 0.69086(18)
O30 O 0.4442(2) 0.2615(3) 0.80914(18)
Mn1_2 Mn 0.250000 1.000000 0.38191(7)
Cr1 Cr 0.36669(7) 0.750000 0.250000
Cr2_2 Cr 0.250000 1.000000 0.61656(7)
O1 O 0.2967(2) 0.7603(3) 0.3127(2)
O2 O 0.3643(2) 0.8771(3) 0.2530(2)
O3 O 0.2490(2) 0.8600(3) 0.3698(2)
O4 O 0.3255(3) 0.9826(4) 0.3120(2)
O9 O 0.4416(2) 0.7501(3) 0.30773(18)
O10 O 0.5558(2) 0.7615(3) 0.30914(18)
C1 C 0.2875(3) 0.8375(5) 0.3290(3)
C2 C 0.3302(4) 0.9052(5) 0.2955(3)
C5 C 0.5003(3) 0.7540(4) 0.2833(3)
O13 O 0.4416(2) 0.7499(3) 0.19227(18)
O14 O 0.5558(2) 0.7385(3) 0.19086(18)
C7 C 0.5003(3) 0.7460(4) 0.2167(3)
O15 O 0.1799(3) 0.9888(3) 0.4557(2)
O16 O 0.1809(2) 0.9946(3) 0.5532(2)
C8 C 0.2104(4) 0.9940(4) 0.5027(4)
O21 O 0.2539(2) 0.8731(3) 0.6217(2)
O22 O 0.1799(2) 0.9870(3) 0.6789(2)
O23 O 0.2144(2) 0.7665(3) 0.6772(2)
O24 O 0.1510(2) 0.8870(3) 0.7461(2)
C11 C 0.2205(4) 0.8433(5) 0.6640(3)
C12 C 0.1795(4) 0.9113(5) 0.7015(4)
Mn3 Mn 0.14423(7) 0.750000 0.750000
Mn4 Mn 0.64423(7) 0.750000 0.250000
O25 O 0.2967(2) 0.7397(3) 0.1873(2)
O26 O 0.3643(2) 0.6229(3) 0.2470(2)
O9_2 O 0.0584(2) 0.2499(3) 0.30773(18)
O13_2 O 0.0584(2) 0.2501(3) 0.19227(18)
O25_2 O 0.2033(2) 0.2603(3) 0.1873(2)
O26_2 O 0.1357(2) 0.3771(3) 0.2470(2)
O27_2 O 0.2144(2) 0.7335(3) 0.8228(2)
O28_2 O 0.1510(2) 0.6130(3) 0.7539(2)
O29_2 O 0.0558(2) 0.7615(3) 0.69086(18)
O30_2 O 0.0558(2) 0.7385(3) 0.80914(18)
O10_2 O 0.9442(2) 0.2385(3) 0.30914(18)
C5_2 C 0.9997(3) 0.2460(4) 0.2833(3)
O14_2 O 0.9442(2) 0.2615(3) 0.19086(18)
C7_2 C 0.9997(3) 0.2540(4) 0.2167(3)
Mn4_2 Mn 0.85577(7) 0.250000 0.250000
Mn1_3 Mn 0.250000 0.500000 0.11809(7)
O3_2 O 0.2510(2) 0.3600(3) 0.1302(2)
O4_2 O 0.1745(3) 0.4826(4) 0.1880(2)
O11_2 O 0.1799(3) 0.5112(3) 0.0443(2)
C1_2 C 0.2125(3) 0.3375(5) 0.1710(3)
C2_2 C 0.1698(4) 0.4052(5) 0.2045(3)
O15_2 O 0.3201(3) 0.4888(3) 0.0443(2)
O19_2 O 0.2490(2) 0.6400(3) 0.1302(2)
O20_2 O 0.3255(3) 0.5174(4) 0.1880(2)
C9_2 C 0.2875(3) 0.6625(5) 0.1710(3)
C10_2 C 0.3302(4) 0.5948(5) 0.2045(3)
Cr2_3 Cr 0.250000 0.500000 0.88344(7)
O5_2 O 0.2539(2) 0.6269(3) 0.8783(2)
O6_2 O 0.1799(2) 0.5130(3) 0.8211(2)
O12_2 O 0.1809(2) 0.5054(3) 0.9468(2)
C3_2 C 0.2205(4) 0.6567(5) 0.8360(3)
C4_2 C 0.1795(4) 0.5887(5) 0.7985(4)
C6_2 C 0.2104(4) 0.5060(4) 0.9973(4)
O16_2 O 0.3191(2) 0.4946(3) 0.9468(2)
C8_2 C 0.2896(4) 0.4940(4) 0.9973(4)
O21_2 O 0.2461(2) 0.3731(3) 0.8783(2)
O22_2 O 0.3201(2) 0.4870(3) 0.8211(2)
C11_2 C 0.2795(4) 0.3433(5) 0.8360(3)
C12_2 C 0.3205(4) 0.4113(5) 0.7985(4)
Mn1_4 Mn 0.750000 0.000000 0.61809(7)
Cr1_2 Cr 0.63331(7) 0.250000 0.750000
Cr2_4 Cr 0.750000 0.000000 0.38344(7)
O1_2 O 0.7033(2) 0.2397(3) 0.6873(2)
O2_2 O 0.6357(2) 0.1229(3) 0.7470(2)
O3_3 O 0.7510(2) 0.1400(3) 0.6302(2)
O4_3 O 0.6745(3) 0.0174(4) 0.6880(2)
O9_3 O 0.5584(2) 0.2499(3) 0.69227(18)
C1_3 C 0.7125(3) 0.1625(5) 0.6710(3)
C2_3 C 0.6698(4) 0.0948(5) 0.7045(3)
C5_3 C 0.4997(3) 0.2460(4) 0.7167(3)
O13_3 O 0.5584(2) 0.2501(3) 0.80773(18)
C7_3 C 0.4997(3) 0.2540(4) 0.7833(3)
O15_3 O 0.8201(3) 0.0112(3) 0.5443(2)
O16_3 O 0.8191(2) 0.0054(3) 0.4468(2)
C8_3 C 0.7896(4) 0.0060(4) 0.4973(4)
O21_3 O 0.7461(2) 0.1269(3) 0.3783(2)
O22_3 O 0.8201(2) 0.0130(3) 0.3211(2)
O23_2 O 0.7856(2) 0.2335(3) 0.3228(2)
O24_2 O 0.8490(2) 0.1130(3) 0.2539(2)
C11_3 C 0.7795(4) 0.1567(5) 0.3360(3)
C12_3 C 0.8205(4) 0.0887(5) 0.2985(4)
O25_3 O 0.7033(2) 0.2603(3) 0.8127(2)
O26_3 O 0.6357(2) 0.3771(3) 0.7530(2)
Mn1_5 Mn 0.750000 1.000000 0.61809(7)
Cr2_5 Cr 0.750000 1.000000 0.38344(7)
O5_3 O 0.7539(2) 0.8731(3) 0.3783(2)
O6_3 O 0.6799(2) 0.9870(3) 0.3211(2)
O7_2 O 0.7144(2) 0.7665(3) 0.3228(2)
O8_2 O 0.6510(2) 0.8870(3) 0.2539(2)
O11_3 O 0.6799(3) 0.9888(3) 0.5443(2)
O12_3 O 0.6809(2) 0.9946(3) 0.4468(2)
C3_3 C 0.7205(4) 0.8433(5) 0.3360(3)
C4_3 C 0.6795(4) 0.9113(5) 0.2985(4)
C6_3 C 0.7104(4) 0.9940(4) 0.4973(4)
O17_2 O 0.7967(2) 0.7603(3) 0.6873(2)
O18_2 O 0.8643(2) 0.8771(3) 0.7470(2)
O19_3 O 0.7490(2) 0.8600(3) 0.6302(2)
O20_3 O 0.8255(3) 0.9826(4) 0.6880(2)
C9_3 C 0.7875(3) 0.8375(5) 0.6710(3)
C10_3 C 0.8302(4) 0.9052(5) 0.7045(3)
Cr3_2 Cr 0.86669(7) 0.750000 0.750000
O27_3 O 0.7144(2) 0.7335(3) 0.1772(2)
O28_3 O 0.6510(2) 0.6130(3) 0.2461(2)
C5_4 C 0.0003(3) 0.7540(4) 0.7167(3)
C7_4 C 0.0003(3) 0.7460(4) 0.7833(3)
O27_4 O 0.7856(2) 0.2665(3) 0.1772(2)
O28_4 O 0.8490(2) 0.3870(3) 0.2461(2)
O9_4 O 0.9416(2) 0.7501(3) 0.69227(18)
O13_4 O 0.9416(2) 0.7499(3) 0.80773(18)
O25_4 O 0.7967(2) 0.7397(3) 0.8127(2)
O26_4 O 0.8643(2) 0.6229(3) 0.7530(2)
Cr2_6 Cr 0.750000 0.500000 0.11656(7)
O5_4 O 0.7461(2) 0.3731(3) 0.1217(2)
O6_4 O 0.8201(2) 0.4870(3) 0.1789(2)
O12_4 O 0.8191(2) 0.4946(3) 0.0532(2)
C3_4 C 0.7795(4) 0.3433(5) 0.1640(3)
C4_4 C 0.8205(4) 0.4113(5) 0.2015(4)
C6_4 C 0.7896(4) 0.4940(4) 0.0027(4)
O16_4 O 0.6809(2) 0.5054(3) 0.0532(2)
C8_4 C 0.7104(4) 0.5060(4) 0.0027(4)
O21_4 O 0.7539(2) 0.6269(3) 0.1217(2)
O22_4 O 0.6799(2) 0.5130(3) 0.1789(2)
C11_4 C 0.7205(4) 0.6567(5) 0.1640(3)
C12_4 C 0.6795(4) 0.5887(5) 0.2015(4)
Mn1_6 Mn 0.750000 0.500000 0.88191(7)
O3_4 O 0.7490(2) 0.6400(3) 0.8698(2)
O4_4 O 0.8255(3) 0.5174(4) 0.8120(2)
O11_4 O 0.8201(3) 0.4888(3) 0.9557(2)
C1_4 C 0.7875(3) 0.6625(5) 0.8290(3)
C2_4 C 0.8302(4) 0.5948(5) 0.7955(3)
O15_4 O 0.6799(3) 0.5112(3) 0.9557(2)
O19_4 O 0.7510(2) 0.3600(3) 0.8698(2)
O20_4 O 0.6745(3) 0.4826(4) 0.8120(2)
C9_4 C 0.7125(3) 0.3375(5) 0.8290(3)
C10_4 C 0.6698(4) 0.4052(5) 0.7955(3)
N14 N 0.0160(3) 0.4801(4) 0.2967(3)
H14 H 0.044046 0.437145 0.304446
H15 H 0.028545 0.520551 0.272159
Co1 Co 0.750000 0.500000 0.43640(6)
N1 N 0.6679(2) 0.5052(3) 0.3736(2)
N2 N 0.5844(3) 0.4468(4) 0.3078(3)
N3 N 0.5615(3) 0.5792(4) 0.3590(3)
N4 N 0.7071(3) 0.6219(4) 0.4481(2)
N5 N 0.8178(3) 0.5633(5) 0.4979(3)
N6 N 0.6864(3) 0.3800(4) 0.3249(2)
H1 H 0.727497 0.376843 0.340762
H2 H 0.672451 0.339632 0.300806
N7 N 0.4840(3) 0.5199(4) 0.2967(3)
H3 H 0.455954 0.562855 0.304446
H4 H 0.471455 0.479449 0.272159
C13 C 0.6468(4) 0.4435(5) 0.3369(3)
C14 C 0.5447(3) 0.5163(5) 0.3220(3)
C15 C 0.6242(3) 0.5711(5) 0.3826(3)
C16 C 0.6461(3) 0.6384(5) 0.4236(3)
C17 C 0.6120(4) 0.7129(5) 0.4369(3)
H5 H 0.569589 0.726534 0.418553
C18 C 0.6403(4) 0.7671(6) 0.4768(4)
H6 H 0.616728 0.818551 0.486703
C19 C 0.7003(4) 0.7496(5) 0.5025(3)
H7 H 0.718955 0.787743 0.530655
C20 C 0.7351(4) 0.6744(6) 0.4873(3)
C21 C 0.7994(4) 0.6419(6) 0.5134(3)
C22 C 0.8408(6) 0.6908(6) 0.5510(4)
H8 H 0.825943 0.746321 0.562795
C23 C 0.9019(4) 0.6601(8) 0.5707(4)
H9 H 0.931017 0.694115 0.594602
C24 C 0.9200(4) 0.5775(7) 0.5549(4)
H10 H 0.962265 0.553910 0.568176
C25 C 0.8779(4) 0.5294(7) 0.5203(3)
H11 H 0.890063 0.471659 0.511476
N8 N 0.8321(2) 0.4948(3) 0.3736(2)
N9 N 0.9156(3) 0.5532(4) 0.3078(3)
N10 N 0.9385(3) 0.4208(4) 0.3590(3)
N11 N 0.7929(3) 0.3781(4) 0.4481(2)
N12 N 0.6822(3) 0.4367(5) 0.4979(3)
N13 N 0.8136(3) 0.6200(4) 0.3249(2)
H12 H 0.772503 0.623157 0.340762
H13 H 0.827549 0.660368 0.300806
C26 C 0.8532(4) 0.5565(5) 0.3369(3)
C27 C 0.9553(3) 0.4837(5) 0.3220(3)
C28 C 0.8758(3) 0.4289(5) 0.3826(3)
C29 C 0.8539(3) 0.3616(5) 0.4236(3)
C30 C 0.8880(4) 0.2871(5) 0.4369(3)
H16 H 0.930411 0.273466 0.418553
C31 C 0.8597(4) 0.2329(6) 0.4768(4)
H17 H 0.883272 0.181449 0.486703
C32 C 0.7997(4) 0.2504(5) 0.5025(3)
H18 H 0.781045 0.212257 0.530655
C33 C 0.7649(4) 0.3256(6) 0.4873(3)
C34 C 0.7006(4) 0.3581(6) 0.5134(3)
C35 C 0.6592(6) 0.3092(6) 0.5510(4)
H19 H 0.674057 0.253679 0.562795
C36 C 0.5981(4) 0.3399(8) 0.5707(4)
H20 H 0.568983 0.305885 0.594602
C37 C 0.5800(4) 0.4225(7) 0.5549(4)
H21 H 0.537735 0.446090 0.568176
C38 C 0.6221(4) 0.4706(7) 0.5203(3)
H22 H 0.609937 0.528341 0.511476
N7_2 N 0.0160(3) 0.0199(4) 0.2033(3)
H3_2 H 0.044046 0.062855 0.195554
H4_2 H 0.028545 0.979449 0.227841
Co1_2 Co 0.750000 -0.000000 0.06360(6)
N1_2 N 0.8321(2) 0.0052(3) 0.1264(2)
N3_2 N 0.9385(3) 0.0792(4) 0.1410(3)
N4_2 N 0.7929(3) 0.1219(4) 0.0519(2)
N5_2 N 0.6822(3) 0.0633(5) 0.0021(3)
C14_2 C 0.9553(3) 0.0163(5) 0.1780(3)
C15_2 C 0.8758(3) 0.0711(5) 0.1174(3)
C16_2 C 0.8539(3) 0.1384(5) 0.0764(3)
C17_2 C 0.8880(4) 0.2129(5) 0.0631(3)
H5_2 H 0.930411 0.226534 0.081447
C18_2 C 0.8597(4) 0.2671(6) 0.0232(4)
H6_2 H 0.883272 0.318551 0.013297
C20_2 C 0.7649(4) 0.1744(6) 0.0127(3)
N9_2 N 0.5844(3) 0.0532(4) 0.1922(3)
N13_2 N 0.6864(3) 0.1200(4) 0.1751(2)
H12_2 H 0.727497 0.123157 0.159238
H13_2 H 0.672451 0.160368 0.199194
H15_2 H 0.471455 0.020551 0.227841
C26_2 C 0.6468(4) 0.0565(5) 0.1631(3)
C19_2 C 0.7997(4) 0.2496(5) 0.9975(3)
H7_2 H 0.781045 0.287743 0.969345
C21_2 C 0.7006(4) 0.1419(6) 0.9866(3)
C22_2 C 0.6592(6) 0.1908(6) 0.9490(4)
H8_2 H 0.674057 0.246321 0.937205
C23_2 C 0.5981(4) 0.1601(8) 0.9293(4)
H9_2 H 0.568983 0.194115 0.905398
C24_2 C 0.5800(4) 0.0775(7) 0.9451(4)
H10_2 H 0.537735 0.053910 0.931824
C25_2 C 0.6221(4) 0.0294(7) 0.9797(3)
H22_2 H 0.890063 0.028341 0.988524
Co1_3 Co 0.750000 1.000000 0.06360(6)
N2_2 N 0.9156(3) 0.9468(4) 0.1922(3)
N6_2 N 0.8136(3) 0.8800(4) 0.1751(2)
H1_2 H 0.772503 0.876843 0.159238
H2_2 H 0.827549 0.839632 0.199194
C13_2 C 0.8532(4) 0.9435(5) 0.1631(3)
N8_2 N 0.6679(2) 0.9948(3) 0.1264(2)
N10_2 N 0.5615(3) 0.9208(4) 0.1410(3)
N11_2 N 0.7071(3) 0.8781(4) 0.0519(2)
N12_2 N 0.8178(3) 0.9367(5) 0.0021(3)
N14_2 N 0.4840(3) 0.9801(4) 0.2033(3)
H14_2 H 0.455954 0.937145 0.195554
C27_2 C 0.5447(3) 0.9837(5) 0.1780(3)
C28_2 C 0.6242(3) 0.9289(5) 0.1174(3)
C29_2 C 0.6461(3) 0.8616(5) 0.0764(3)
C30_2 C 0.6120(4) 0.7871(5) 0.0631(3)
H16_2 H 0.569589 0.773466 0.081447
C31_2 C 0.6403(4) 0.7329(6) 0.0232(4)
H17_2 H 0.616728 0.681449 0.013297
C33_2 C 0.7351(4) 0.8256(6) 0.0127(3)
H11_2 H 0.609937 0.971659 0.988524
C32_2 C 0.7003(4) 0.7504(5) 0.9975(3)
H18_2 H 0.718955 0.712257 0.969345
C34_2 C 0.7994(4) 0.8581(6) 0.9866(3)
C35_2 C 0.8408(6) 0.8092(6) 0.9490(4)
H19_2 H 0.825943 0.753679 0.937205
C36_2 C 0.9019(4) 0.8399(8) 0.9293(4)
H20_2 H 0.931017 0.805885 0.905398
C37_2 C 0.9200(4) 0.9225(7) 0.9451(4)
H21_2 H 0.962265 0.946090 0.931824
C38_2 C 0.8779(4) 0.9706(7) 0.9797(3)
Co1_4 Co 0.250000 0.500000 0.56360(6)
N1_3 N 0.3321(2) 0.4948(3) 0.6264(2)
N2_3 N 0.4156(3) 0.5532(4) 0.6922(3)
N3_3 N 0.4385(3) 0.4208(4) 0.6410(3)
N4_3 N 0.2929(3) 0.3781(4) 0.5519(2)
N5_3 N 0.1822(3) 0.4367(5) 0.5021(3)
N6_3 N 0.3136(3) 0.6200(4) 0.6751(2)
H1_3 H 0.272503 0.623157 0.659238
H2_3 H 0.327549 0.660368 0.699194
N7_3 N 0.5160(3) 0.4801(4) 0.7033(3)
H3_3 H 0.544046 0.437145 0.695554
H4_3 H 0.528545 0.520551 0.727841
C13_3 C 0.3532(4) 0.5565(5) 0.6631(3)
C14_3 C 0.4553(3) 0.4837(5) 0.6780(3)
C15_3 C 0.3758(3) 0.4289(5) 0.6174(3)
C16_3 C 0.3539(3) 0.3616(5) 0.5764(3)
C17_3 C 0.3880(4) 0.2871(5) 0.5631(3)
H5_3 H 0.430411 0.273466 0.581447
C18_3 C 0.3597(4) 0.2329(6) 0.5232(4)
H6_3 H 0.383272 0.181449 0.513297
C19_3 C 0.2997(4) 0.2504(5) 0.4975(3)
H7_3 H 0.281045 0.212257 0.469345
C20_3 C 0.2649(4) 0.3256(6) 0.5127(3)
C21_3 C 0.2006(4) 0.3581(6) 0.4866(3)
C22_3 C 0.1592(6) 0.3092(6) 0.4490(4)
H8_3 H 0.174057 0.253679 0.437205
C23_3 C 0.0981(4) 0.3399(8) 0.4293(4)
H9_3 H 0.068983 0.305885 0.405398
C24_3 C 0.0800(4) 0.4225(7) 0.4451(4)
H10_3 H 0.037735 0.446090 0.431824
C25_3 C 0.1221(4) 0.4706(7) 0.4797(3)
H11_3 H 0.109937 0.528341 0.488524
N8_3 N 0.1679(2) 0.5052(3) 0.6264(2)
N9_3 N 0.0844(3) 0.4468(4) 0.6922(3)
N10_3 N 0.0615(3) 0.5792(4) 0.6410(3)
N11_3 N 0.2071(3) 0.6219(4) 0.5519(2)
N12_3 N 0.3178(3) 0.5633(5) 0.5021(3)
N13_3 N 0.1864(3) 0.3800(4) 0.6751(2)
H12_3 H 0.227497 0.376843 0.659238
H13_3 H 0.172451 0.339632 0.699194
C26_3 C 0.1468(4) 0.4435(5) 0.6631(3)
C27_3 C 0.0447(3) 0.5163(5) 0.6780(3)
C28_3 C 0.1242(3) 0.5711(5) 0.6174(3)
C29_3 C 0.1461(3) 0.6384(5) 0.5764(3)
C30_3 C 0.1120(4) 0.7129(5) 0.5631(3)
H16_3 H 0.069589 0.726534 0.581447
C31_3 C 0.1403(4) 0.7671(6) 0.5232(4)
H17_3 H 0.116728 0.818551 0.513297
C32_3 C 0.2003(4) 0.7496(5) 0.4975(3)
H18_3 H 0.218955 0.787743 0.469345
C33_3 C 0.2351(4) 0.6744(6) 0.5127(3)
C34_3 C 0.2994(4) 0.6419(6) 0.4866(3)
C35_3 C 0.3408(6) 0.6908(6) 0.4490(4)
H19_3 H 0.325943 0.746321 0.437205
C36_3 C 0.4019(4) 0.6601(8) 0.4293(4)
H20_3 H 0.431017 0.694115 0.405398
C37_3 C 0.4200(4) 0.5775(7) 0.4451(4)
H21_3 H 0.462265 0.553910 0.431824
C38_3 C 0.3779(4) 0.5294(7) 0.4797(3)
H22_3 H 0.390063 0.471659 0.488524
N14_3 N 0.9840(3) 0.5199(4) 0.7033(3)
H14_3 H 0.955954 0.562855 0.695554
H15_3 H 0.971455 0.479449 0.727841
H11_4 H 0.390063 0.028341 0.011476
C32_4 C 0.2997(4) 0.2496(5) 0.0025(3)
H18_4 H 0.281045 0.287743 0.030655
C34_4 C 0.2006(4) 0.1419(6) 0.0134(3)
C35_4 C 0.1592(6) 0.1908(6) 0.0510(4)
H19_4 H 0.174057 0.246321 0.062795
C36_4 C 0.0981(4) 0.1601(8) 0.0707(4)
H20_4 H 0.068983 0.194115 0.094602
C37_4 C 0.0800(4) 0.0775(7) 0.0549(4)
H21_4 H 0.037735 0.053910 0.068176
C38_4 C 0.1221(4) 0.0294(7) 0.0203(3)
Co1_5 Co 0.250000 0.000000 0.93640(6)
N2_4 N 0.0844(3) 0.0532(4) 0.8078(3)
N6_4 N 0.1864(3) 0.1200(4) 0.8249(2)
H1_4 H 0.227497 0.123157 0.840762
H2_4 H 0.172451 0.160368 0.800806
C13_4 C 0.1468(4) 0.0565(5) 0.8369(3)
N8_4 N 0.3321(2) 0.0052(3) 0.8736(2)
N10_4 N 0.4385(3) 0.0792(4) 0.8590(3)
N11_4 N 0.2929(3) 0.1219(4) 0.9481(2)
N12_4 N 0.1822(3) 0.0633(5) 0.9979(3)
N14_4 N 0.5160(3) 0.0199(4) 0.7967(3)
H14_4 H 0.544046 0.062855 0.804446
C27_4 C 0.4553(3) 0.0163(5) 0.8220(3)
C28_4 C 0.3758(3) 0.0711(5) 0.8826(3)
C29_4 C 0.3539(3) 0.1384(5) 0.9236(3)
C30_4 C 0.3880(4) 0.2129(5) 0.9369(3)
H16_4 H 0.430411 0.226534 0.918553
C31_4 C 0.3597(4) 0.2671(6) 0.9768(4)
H17_4 H 0.383272 0.318551 0.986703
C33_4 C 0.2649(4) 0.1744(6) 0.9873(3)
C19_4 C 0.2003(4) 0.7504(5) 0.0025(3)
H7_4 H 0.218955 0.712257 0.030655
C21_4 C 0.2994(4) 0.8581(6) 0.0134(3)
C22_4 C 0.3408(6) 0.8092(6) 0.0510(4)
H8_4 H 0.325943 0.753679 0.062795
C23_4 C 0.4019(4) 0.8399(8) 0.0707(4)
H9_4 H 0.431017 0.805885 0.094602
C24_4 C 0.4200(4) 0.9225(7) 0.0549(4)
H10_4 H 0.462265 0.946090 0.068176
C25_4 C 0.3779(4) 0.9706(7) 0.0203(3)
H22_4 H 0.109937 0.971659 0.011476
Co1_6 Co 0.250000 1.000000 0.93640(6)
N1_4 N 0.1679(2) 0.9948(3) 0.8736(2)
N3_4 N 0.0615(3) 0.9208(4) 0.8590(3)
N4_4 N 0.2071(3) 0.8781(4) 0.9481(2)
N5_4 N 0.3178(3) 0.9367(5) 0.9979(3)
C14_4 C 0.0447(3) 0.9837(5) 0.8220(3)
C15_4 C 0.1242(3) 0.9289(5) 0.8826(3)
C16_4 C 0.1461(3) 0.8616(5) 0.9236(3)
C17_4 C 0.1120(4) 0.7871(5) 0.9369(3)
H5_4 H 0.069589 0.773466 0.918553
C18_4 C 0.1403(4) 0.7329(6) 0.9768(4)
H6_4 H 0.116728 0.681449 0.986703
C20_4 C 0.2351(4) 0.8256(6) 0.9873(3)
N9_4 N 0.4156(3) 0.9468(4) 0.8078(3)
N13_4 N 0.3136(3) 0.8800(4) 0.8249(2)
H12_4 H 0.272503 0.876843 0.840762
H13_4 H 0.327549 0.839632 0.800806
H15_4 H 0.528545 0.979449 0.772159
C26_4 C 0.3532(4) 0.9435(5) 0.8369(3)
H4_4 H 0.971455 0.020551 0.772159
N7_4 N 0.9840(3) 0.9801(4) 0.7967(3)
H3_4 H 0.955954 0.937145 0.804446
loop_
_geom_bond_atom_site_label_1
_geom_bond_atom_site_label_2
_geom_bond_site_symmetry_1
_geom_bond_site_symmetry_2
Mn2 O7 1_555 1_555
Cr2 O5 1_555 1_555
O5 C3 1_555 1_555
O6 Cr2 1_555 1_555
O7 C3 1_555 1_555
O8 Mn2 1_555 1_555
O11 Mn1 1_555 1_555
O12 Cr2 1_555 1_555
C3 C4 1_555 1_555
C4 O6 1_555 1_555
C6 O11 1_555 1_555
O17 C9 1_555 1_555
O18 C10 1_555 1_555
O19 Mn1 1_555 1_555
O20 Mn1 1_555 1_555
C9 O19 1_555 1_555
C10 O20 1_555 1_555
Cr3 O17 1_555 1_555
O27 Mn2 1_555 1_555
O28 Mn2 1_555 1_555
O29 Mn2 1_555 1_555
O30 Mn2 1_555 1_555
O8 C4 1_555 1_555
O12 C6 1_555 1_555
O18 Cr3 1_555 1_555
C9 C10 1_555 1_555
Mn1_2 O3 1_555 1_555
Cr1 O1 1_555 1_555
O1 C1 1_555 1_555
O2 Cr1 1_555 1_555
O3 C1 1_555 1_555
O4 Mn1_2 1_555 1_555
O9 Cr1 1_555 1_555
O10 C5 1_555 1_555
C1 C2 1_555 1_555
C2 O2 1_555 1_555
C5 O9 1_555 1_555
O13 Cr1 1_555 1_555
O14 C7 1_555 1_555
C7 C5 1_555 1_555
O15 Mn1_2 1_555 1_555
O16 Cr2_2 1_555 1_555
O21 Cr2_2 1_555 1_555
O22 Cr2_2 1_555 1_555
O23 C11 1_555 1_555
O24 C12 1_555 1_555
C11 O21 1_555 1_555
C12 O22 1_555 1_555
Mn3 O23 1_555 1_555
Mn4 O10 1_555 1_555
O25 Cr1 1_555 1_555
O26 Cr1 1_555 1_555
O4 C2 1_555 1_555
O13 C7 1_555 1_555
O14 Mn4 1_555 1_555
O15 C8 1_555 1_555
O16 C8 1_555 1_555
O24 Mn3 1_555 1_555
C11 C12 1_555 1_555
O9_2 Cr3 1_555 1_555
O13_2 Cr3 1_555 1_555
O25_2 Cr3 1_555 1_555
O26_2 Cr3 1_555 1_555
O27_2 Mn3 1_555 1_555
O28_2 Mn3 1_555 1_555
O29_2 Mn3 1_555 1_555
O30_2 Mn3 1_555 1_555
O10_2 C5_2 1_555 1_555
O14_2 C7_2 1_555 1_555
C7_2 C5_2 1_555 1_555
Mn4_2 O10_2 1_555 1_555
O14_2 Mn4_2 1_555 1_555
Mn1_3 O3_2 1_555 1_555
O25_2 C1_2 1_555 1_555
O3_2 C1_2 1_555 1_555
O4_2 Mn1_3 1_555 1_555
O11_2 Mn1_3 1_555 1_555
C1_2 C2_2 1_555 1_555
C2_2 O26_2 1_555 1_555
O15_2 Mn1_3 1_555 1_555
O25 C9_2 1_555 1_555
O26 C10_2 1_555 1_555
O19_2 Mn1_3 1_555 1_555
O20_2 Mn1_3 1_555 1_555
C9_2 O19_2 1_555 1_555
C10_2 O20_2 1_555 1_555
O4_2 C2_2 1_555 1_555
C9_2 C10_2 1_555 1_555
Cr2_3 O5_2 1_555 1_555
O5_2 C3_2 1_555 1_555
O6_2 Cr2_3 1_555 1_555
O27_2 C3_2 1_555 1_555
O12_2 Cr2_3 1_555 1_555
C3_2 C4_2 1_555 1_555
C4_2 O6_2 1_555 1_555
O16_2 Cr2_3 1_555 1_555
C8_2 C6_2 1_555 1_555
O21_2 Cr2_3 1_555 1_555
O22_2 Cr2_3 1_555 1_555
O27 C11_2 1_555 1_555
O28 C12_2 1_555 1_555
C11_2 O21_2 1_555 1_555
C12_2 O22_2 1_555 1_555
O28_2 C4_2 1_555 1_555
O12_2 C6_2 1_555 1_555
O16_2 C8_2 1_555 1_555
C11_2 C12_2 1_555 1_555
Mn1_4 O3_3 1_555 1_555
Cr1_2 O1_2 1_555 1_555
O1_2 C1_3 1_555 1_555
O2_2 Cr1_2 1_555 1_555
O3_3 C1_3 1_555 1_555
O4_3 Mn1_4 1_555 1_555
O9_3 Cr1_2 1_555 1_555
O29 C5_3 1_555 1_555
C1_3 C2_3 1_555 1_555
C2_3 O2_2 1_555 1_555
C5_3 O9_3 1_555 1_555
O13_3 Cr1_2 1_555 1_555
O30 C7_3 1_555 1_555
C7_3 C5_3 1_555 1_555
O15_3 Mn1_4 1_555 1_555
O16_3 Cr2_4 1_555 1_555
O21_3 Cr2_4 1_555 1_555
O22_3 Cr2_4 1_555 1_555
O23_2 C11_3 1_555 1_555
O24_2 C12_3 1_555 1_555
C11_3 O21_3 1_555 1_555
C12_3 O22_3 1_555 1_555
Mn4_2 O23_2 1_555 1_555
O25_3 Cr1_2 1_555 1_555
O26_3 Cr1_2 1_555 1_555
O4_3 C2_3 1_555 1_555
O13_3 C7_3 1_555 1_555
O15_3 C8_3 1_555 1_555
O16_3 C8_3 1_555 1_555
O24_2 Mn4_2 1_555 1_555
C11_3 C12_3 1_555 1_555
Mn4 O7_2 1_555 1_555
Cr2_5 O5_3 1_555 1_555
O5_3 C3_3 1_555 1_555
O6_3 Cr2_5 1_555 1_555
O7_2 C3_3 1_555 1_555
O8_2 Mn4 1_555 1_555
O11_3 Mn1_5 1_555 1_555
O12_3 Cr2_5 1_555 1_555
C3_3 C4_3 1_555 1_555
C4_3 O6_3 1_555 1_555
C6_3 O11_3 1_555 1_555
O17_2 C9_3 1_555 1_555
O18_2 C10_3 1_555 1_555
O19_3 Mn1_5 1_555 1_555
O20_3 Mn1_5 1_555 1_555
C9_3 O19_3 1_555 1_555
C10_3 O20_3 1_555 1_555
Cr3_2 O17_2 1_555 1_555
O27_3 Mn4 1_555 1_555
O28_3 Mn4 1_555 1_555
O8_2 C4_3 1_555 1_555
O12_3 C6_3 1_555 1_555
O18_2 Cr3_2 1_555 1_555
C9_3 C10_3 1_555 1_555
O29_2 C5_4 1_555 1_555
O30_2 C7_4 1_555 1_555
C7_4 C5_4 1_555 1_555
O27_4 Mn4_2 1_555 1_555
O28_4 Mn4_2 1_555 1_555
O9_4 Cr3_2 1_555 1_555
O13_4 Cr3_2 1_555 1_555
O25_4 Cr3_2 1_555 1_555
O26_4 Cr3_2 1_555 1_555
Cr2_6 O5_4 1_555 1_555
O5_4 C3_4 1_555 1_555
O6_4 Cr2_6 1_555 1_555
O27_4 C3_4 1_555 1_555
O12_4 Cr2_6 1_555 1_555
C3_4 C4_4 1_555 1_555
C4_4 O6_4 1_555 1_555
O16_4 Cr2_6 1_555 1_555
C8_4 C6_4 1_555 1_555
O21_4 Cr2_6 1_555 1_555
O22_4 Cr2_6 1_555 1_555
O27_3 C11_4 1_555 1_555
O28_3 C12_4 1_555 1_555
C11_4 O21_4 1_555 1_555
C12_4 O22_4 1_555 1_555
O28_4 C4_4 1_555 1_555
O12_4 C6_4 1_555 1_555
O16_4 C8_4 1_555 1_555
C11_4 C12_4 1_555 1_555
Mn1_6 O3_4 1_555 1_555
O25_4 C1_4 1_555 1_555
O3_4 C1_4 1_555 1_555
O4_4 Mn1_6 1_555 1_555
O11_4 Mn1_6 1_555 1_555
C1_4 C2_4 1_555 1_555
C2_4 O26_4 1_555 1_555
O15_4 Mn1_6 1_555 1_555
O25_3 C9_4 1_555 1_555
O26_3 C10_4 1_555 1_555
O19_4 Mn1_6 1_555 1_555
O20_4 Mn1_6 1_555 1_555
C9_4 O19_4 1_555 1_555
C10_4 O20_4 1_555 1_555
O4_4 C2_4 1_555 1_555
C9_4 C10_4 1_555 1_555
N14 H14 1_555 1_555
H15 N14 1_555 1_555
Co1 N1 1_555 1_555
N1 C13 1_555 1_555
N2 C13 1_555 1_555
N3 C14 1_555 1_555
N4 Co1 1_555 1_555
N5 Co1 1_555 1_555
N6 H1 1_555 1_555
H2 N6 1_555 1_555
N7 H3 1_555 1_555
H4 N7 1_555 1_555
C13 N6 1_555 1_555
C14 N2 1_555 1_555
C15 N1 1_555 1_555
C16 N4 1_555 1_555
C17 C16 1_555 1_555
H5 C17 1_555 1_555
C18 C17 1_555 1_555
H6 C18 1_555 1_555
C19 C18 1_555 1_555
H7 C19 1_555 1_555
C20 N4 1_555 1_555
C21 N5 1_555 1_555
C22 C21 1_555 1_555
H8 C22 1_555 1_555
C23 C22 1_555 1_555
H9 C23 1_555 1_555
C24 C23 1_555 1_555
H10 C24 1_555 1_555
C25 N5 1_555 1_555
H11 C25 1_555 1_555
N8 Co1 1_555 1_555
N9 C26 1_555 1_555
N10 C27 1_555 1_555
N11 Co1 1_555 1_555
N12 Co1 1_555 1_555
N13 H12 1_555 1_555
H13 N13 1_555 1_555
C26 N8 1_555 1_555
C27 N9 1_555 1_555
C28 N8 1_555 1_555
C29 N11 1_555 1_555
C30 C29 1_555 1_555
H16 C30 1_555 1_555
C31 C30 1_555 1_555
H17 C31 1_555 1_555
C32 C31 1_555 1_555
H18 C32 1_555 1_555
C33 N11 1_555 1_555
C34 N12 1_555 1_555
C35 C34 1_555 1_555
H19 C35 1_555 1_555
C36 C35 1_555 1_555
H20 C36 1_555 1_555
C37 C36 1_555 1_555
H21 C37 1_555 1_555
C38 N12 1_555 1_555
H22 C38 1_555 1_555
N3 C15 1_555 1_555
N7 C14 1_555 1_555
C15 C16 1_555 1_555
C19 C20 1_555 1_555
C20 C21 1_555 1_555
C24 C25 1_555 1_555
N10 C28 1_555 1_555
N13 C26 1_555 1_555
C28 C29 1_555 1_555
C32 C33 1_555 1_555
C33 C34 1_555 1_555
C37 C38 1_555 1_555
N7_2 H3_2 1_555 1_555
Co1_2 N1_2 1_555 1_555
N3_2 C14_2 1_555 1_555
N4_2 Co1_2 1_555 1_555
N5_2 Co1_2 1_555 1_555
C15_2 N1_2 1_555 1_555
C16_2 N4_2 1_555 1_555
C17_2 C16_2 1_555 1_555
H5_2 C17_2 1_555 1_555
C18_2 C17_2 1_555 1_555
H6_2 C18_2 1_555 1_555
C20_2 N4_2 1_555 1_555
N9_2 C26_2 1_555 1_555
N13_2 H12_2 1_555 1_555
H13_2 N13_2 1_555 1_555
N3_2 C15_2 1_555 1_555
C15_2 C16_2 1_555 1_555
N13_2 C26_2 1_555 1_555
H7_2 C19_2 1_555 1_555
C22_2 C21_2 1_555 1_555
H8_2 C22_2 1_555 1_555
C23_2 C22_2 1_555 1_555
H9_2 C23_2 1_555 1_555
C24_2 C23_2 1_555 1_555
H10_2 C24_2 1_555 1_555
C24_2 C25_2 1_555 1_555
N2_2 C13_2 1_555 1_555
N6_2 H1_2 1_555 1_555
H2_2 N6_2 1_555 1_555
C13_2 N6_2 1_555 1_555
N8_2 Co1_3 1_555 1_555
N10_2 C27_2 1_555 1_555
N11_2 Co1_3 1_555 1_555
N12_2 Co1_3 1_555 1_555
N14_2 H14_2 1_555 1_555
C28_2 N8_2 1_555 1_555
C29_2 N11_2 1_555 1_555
C30_2 C29_2 1_555 1_555
H16_2 C30_2 1_555 1_555
C31_2 C30_2 1_555 1_555
H17_2 C31_2 1_555 1_555
C33_2 N11_2 1_555 1_555
N10_2 C28_2 1_555 1_555
N14_2 C27_2 1_555 1_555
C28_2 C29_2 1_555 1_555
H18_2 C32_2 1_555 1_555
C35_2 C34_2 1_555 1_555
H19_2 C35_2 1_555 1_555
C36_2 C35_2 1_555 1_555
H20_2 C36_2 1_555 1_555
C37_2 C36_2 1_555 1_555
H21_2 C37_2 1_555 1_555
C37_2 C38_2 1_555 1_555
Co1_4 N1_3 1_555 1_555
N1_3 C13_3 1_555 1_555
N2_3 C13_3 1_555 1_555
N3_3 C14_3 1_555 1_555
N4_3 Co1_4 1_555 1_555
N5_3 Co1_4 1_555 1_555
N6_3 H1_3 1_555 1_555
H2_3 N6_3 1_555 1_555
N7_3 H3_3 1_555 1_555
H4_3 N7_3 1_555 1_555
C13_3 N6_3 1_555 1_555
C14_3 N2_3 1_555 1_555
C15_3 N1_3 1_555 1_555
C16_3 N4_3 1_555 1_555
C17_3 C16_3 1_555 1_555
H5_3 C17_3 1_555 1_555
C18_3 C17_3 1_555 1_555
H6_3 C18_3 1_555 1_555
C19_3 C18_3 1_555 1_555
H7_3 C19_3 1_555 1_555
C20_3 N4_3 1_555 1_555
C21_3 N5_3 1_555 1_555
C22_3 C21_3 1_555 1_555
H8_3 C22_3 1_555 1_555
C23_3 C22_3 1_555 1_555
H9_3 C23_3 1_555 1_555
C24_3 C23_3 1_555 1_555
H10_3 C24_3 1_555 1_555
C25_3 N5_3 1_555 1_555
H11_3 C25_3 1_555 1_555
N8_3 Co1_4 1_555 1_555
N9_3 C26_3 1_555 1_555
N10_3 C27_3 1_555 1_555
N11_3 Co1_4 1_555 1_555
N12_3 Co1_4 1_555 1_555
N13_3 H12_3 1_555 1_555
H13_3 N13_3 1_555 1_555
C26_3 N8_3 1_555 1_555
C27_3 N9_3 1_555 1_555
C28_3 N8_3 1_555 1_555
C29_3 N11_3 1_555 1_555
C30_3 C29_3 1_555 1_555
H16_3 C30_3 1_555 1_555
C31_3 C30_3 1_555 1_555
H17_3 C31_3 1_555 1_555
C32_3 C31_3 1_555 1_555
H18_3 C32_3 1_555 1_555
C33_3 N11_3 1_555 1_555
C34_3 N12_3 1_555 1_555
C35_3 C34_3 1_555 1_555
H19_3 C35_3 1_555 1_555
C36_3 C35_3 1_555 1_555
H20_3 C36_3 1_555 1_555
C37_3 C36_3 1_555 1_555
H21_3 C37_3 1_555 1_555
C38_3 N12_3 1_555 1_555
H22_3 C38_3 1_555 1_555
N3_3 C15_3 1_555 1_555
N7_3 C14_3 1_555 1_555
C15_3 C16_3 1_555 1_555
C19_3 C20_3 1_555 1_555
C20_3 C21_3 1_555 1_555
C24_3 C25_3 1_555 1_555
N10_3 C28_3 1_555 1_555
N13_3 C26_3 1_555 1_555
C28_3 C29_3 1_555 1_555
C32_3 C33_3 1_555 1_555
C33_3 C34_3 1_555 1_555
C37_3 C38_3 1_555 1_555
N14_3 H14_3 1_555 1_555
H15_3 N14_3 1_555 1_555
H18_4 C32_4 1_555 1_555
C35_4 C34_4 1_555 1_555
H19_4 C35_4 1_555 1_555
C36_4 C35_4 1_555 1_555
H20_4 C36_4 1_555 1_555
C37_4 C36_4 1_555 1_555
H21_4 C37_4 1_555 1_555
C37_4 C38_4 1_555 1_555
N2_4 C13_4 1_555 1_555
N6_4 H1_4 1_555 1_555
H2_4 N6_4 1_555 1_555
C13_4 N6_4 1_555 1_555
N8_4 Co1_5 1_555 1_555
N10_4 C27_4 1_555 1_555
N11_4 Co1_5 1_555 1_555
N12_4 Co1_5 1_555 1_555
N14_4 H14_4 1_555 1_555
C28_4 N8_4 1_555 1_555
C29_4 N11_4 1_555 1_555
C30_4 C29_4 1_555 1_555
H16_4 C30_4 1_555 1_555
C31_4 C30_4 1_555 1_555
H17_4 C31_4 1_555 1_555
C33_4 N11_4 1_555 1_555
N10_4 C28_4 1_555 1_555
N14_4 C27_4 1_555 1_555
C28_4 C29_4 1_555 1_555
H7_4 C19_4 1_555 1_555
C22_4 C21_4 1_555 1_555
H8_4 C22_4 1_555 1_555
C23_4 C22_4 1_555 1_555
H9_4 C23_4 1_555 1_555
C24_4 C23_4 1_555 1_555
H10_4 C24_4 1_555 1_555
C24_4 C25_4 1_555 1_555
Co1_6 N1_4 1_555 1_555
N3_4 C14_4 1_555 1_555
N4_4 Co1_6 1_555 1_555
N5_4 Co1_6 1_555 1_555
C15_4 N1_4 1_555 1_555
C16_4 N4_4 1_555 1_555
C17_4 C16_4 1_555 1_555
H5_4 C17_4 1_555 1_555
C18_4 C17_4 1_555 1_555
H6_4 C18_4 1_555 1_555
C20_4 N4_4 1_555 1_555
N9_4 C26_4 1_555 1_555
N13_4 H12_4 1_555 1_555
H13_4 N13_4 1_555 1_555
N3_4 C15_4 1_555 1_555
C15_4 C16_4 1_555 1_555
N13_4 C26_4 1_555 1_555
N7_4 H3_4 1_555 1_555

#END
