
###############################################################################
#
# This file contains modified crystal structure data generated from the
# MOF subset of the Cambridge Structural Database (CSD) v543 
# hosted by the Cambridge Crystallographic Data Centre (CCDC).
#
# This work is licensed under the Creative Commons
# Attribution-NonCommercial-ShareAlike 4.0 International License.
# To view a copy of this license, visit
# http://creativecommons.org/licenses/by-nc-sa/4.0/
# or send a letter to
# Creative Commons, PO Box 1866, Mountain View, CA 94042, USA.
#
# CIF created using the CSD Python API on 29 September 2022
# The structure has been converted into the P1 space group
# The structure has a 3D framework
# The original CSD entry OQOVIC is in the hexagonal crystal system
# The framework has been calculated to contain at least 10.0% void space
# The void calculation uses a probe of radius 1.32A, grid spacing 0.4
#
###############################################################################

data_OQOVIC
_chemical_formula_moiety         '(C192 H144 Co31 N12 O76)n'
_symmetry_cell_setting           triclinic
_symmetry_space_group_name_H-M   'P 1'
_symmetry_Int_Tables_number      1
_space_group_name_Hall           'P 1'
loop_
_symmetry_equiv_pos_site_id
_symmetry_equiv_pos_as_xyz
1 x,y,z
_cell_length_a                   15.0599(2)
_cell_length_b                   15.0599(2)
_cell_length_c                   32.6709(5)
_cell_angle_alpha                90
_cell_angle_beta                 90
_cell_angle_gamma                120
_cell_volume                     6417.06
loop_
_atom_site_label
_atom_site_type_symbol
_atom_site_fract_x
_atom_site_fract_y
_atom_site_fract_z
Co3 Co -0.0000 0.0000 0.37268(16)
Co8 Co 0.0000 0.0000 0.12732(16)
O37 O 0.0372(21) 0.1228(17) 0.3337(6)
H67 H 0.0701 0.1875 0.3397
H68 H 0.0234 0.1212 0.3078
O39 O 0.0372(21) 0.1228(17) 0.1663(6)
H71 H 0.0701 0.1875 0.1603
H72 H 0.0234 0.1212 0.1922
Co27 Co -0.0000 0.0000 0.46190(11)
Co29 Co 0.0000 0.0000 0.03810(11)
O48 O 0.1174(8) 0.0843(5) 0.41619(19)
O52 O 0.1174(8) 0.0843(5) 0.08381(19)
Co3_2 Co -0.0000 1.0000 0.37268(16)
Co8_2 Co -0.0000 1.0000 0.12732(16)
O36 O 0.0856(13) 0.9628(21) 0.3337(6)
H65 H 0.1174 0.9299 0.3397
H66 H 0.0978 0.9766 0.3078
O38 O 0.0856(13) 0.9628(21) 0.1663(6)
H69 H 0.1174 0.9299 0.1603
H70 H 0.0978 0.9766 0.1922
Co27_2 Co -0.0000 1.0000 0.46190(11)
Co29_2 Co -0.0000 1.0000 0.03810(11)
O1 O 0.1115(6) 0.0000 0.5000
O2 O 0.9157(5) 0.0331(6) 0.41619(19)
O4 O 0.7904(5) 0.0076(5) 0.45853(19)
O5 O 0.3178(5) 0.0855(6) 0.45602(19)
N1 N 0.6376(8) 0.0342(10) 0.2500
N2 N 0.4487(8) 0.0181(10) 0.2500
C1 C 0.8282(5) 0.0201(7) 0.4233(2)
C2 C 0.4948(7) 0.0215(8) 0.2851(2)
C3 C 0.8135(7) 0.0879(8) 0.3551(3)
H3 H 0.8845 0.1283 0.3547
C4 C 0.5923(7) 0.0296(8) 0.2855(3)
C5 C 0.7548(7) 0.0914(9) 0.3226(3)
H4 H 0.7869 0.1360 0.3009
C8 C 0.4397(4) 0.0193(5) 0.32345(15)
C9 C 0.4870(4) 0.0976(4) 0.35210(18)
H7 H 0.5523 0.1524 0.3471
C10 C 0.4366(5) 0.0938(4) 0.38826(17)
H8 H 0.4682 0.1461 0.4074
C11 C 0.3389(5) 0.0118(5) 0.39577(15)
C13 C 0.6493(7) 0.0287(7) 0.3227(3)
C14 C 0.7646(7) 0.0237(7) 0.3876(2)
C15 C 0.2835(7) 0.0045(8) 0.4355(3)
Co3_3 Co 1.0000 0.0000 0.37268(16)
O8 O 0.9157(5) 0.0331(6) 0.08381(19)
O10 O 0.7904(5) 0.0076(5) 0.04147(19)
O11 O 0.3178(5) 0.0855(6) 0.04398(19)
C17 C 0.8282(5) 0.0201(7) 0.0767(2)
C18 C 0.4948(7) 0.0215(8) 0.2149(2)
C19 C 0.8135(7) 0.0879(8) 0.1449(3)
H13 H 0.8845 0.1283 0.1453
C20 C 0.5923(7) 0.0296(8) 0.2145(3)
C21 C 0.7548(7) 0.0914(9) 0.1774(3)
H14 H 0.7869 0.1360 0.1991
C24 C 0.4397(4) 0.0193(5) 0.17655(15)
C25 C 0.4870(4) 0.0976(4) 0.14790(18)
H17 H 0.5523 0.1524 0.1529
C26 C 0.4366(5) 0.0938(4) 0.11174(17)
H18 H 0.4682 0.1461 0.0926
C27 C 0.3389(5) 0.0118(5) 0.10423(15)
C29 C 0.6493(7) 0.0287(7) 0.1773(3)
C30 C 0.7646(7) 0.0237(7) 0.1124(2)
C31 C 0.2835(7) 0.0045(8) 0.0645(3)
Co8_3 Co 1.0000 0.0000 0.12732(16)
Co16 Co 0.87034(13) 0.12514(12) 0.50309(3)
Co18 Co 0.25480(18) 0.12966(13) 0.50309(3)
Co27_3 Co 1.0000 0.0000 0.46190(11)
Co29_3 Co 1.0000 0.0000 0.03810(11)
Co31 Co -0.0000 0.0000 0.53810(11)
O40 O 0.0000 0.1115(6) 0.5000
O41 O 0.1115(6) 0.0000 0.0000
O43 O 0.0000 0.1115(6) 0.0000
Co21 Co 0.87034(13) 0.12514(12) 0.99691(3)
Co23 Co 0.25480(18) 0.12966(13) 0.99691(3)
O41_2 O 0.1115(6) 0.0000 1.0000
O43_2 O 0.0000 0.1115(6) 1.0000
Co1 Co 0.12514(12) 0.87034(13) 0.49691(3)
O1_2 O 0.1115(6) 1.0000 0.5000
O3 O 0.2109(5) 0.9180(6) 0.44506(18)
O6 O 0.1444(8) 0.7411(6) 0.4938(2)
H1 H 0.1528 0.7087 0.5137
H2 H 0.1457 0.7090 0.4722
C6 C 0.6599(7) 0.9619(7) 0.3883(3)
H5 H 0.6281 0.9200 0.4108
C7 C 0.3420(4) 0.9374(5) 0.33095(16)
H6 H 0.3104 0.8850 0.3118
C12 C 0.2916(4) 0.9336(5) 0.36712(18)
H9 H 0.2263 0.8787 0.3721
C16 C 0.6015(7) 0.9619(8) 0.3555(3)
H10 H 0.5310 0.9177 0.3553
O7 O 0.8772(17) 0.9144(13) 0.3337(6)
H11 H 0.8125 0.8826 0.3397
H12 H 0.8788 0.9022 0.3078
Co3_4 Co 1.0000 1.0000 0.37268(16)
O9 O 0.2109(5) 0.9180(6) 0.05494(18)
C22 C 0.6599(7) 0.9619(7) 0.1117(3)
H15 H 0.6281 0.9200 0.0892
C23 C 0.3420(4) 0.9374(5) 0.16905(16)
H16 H 0.3104 0.8850 0.1882
C28 C 0.2916(4) 0.9336(5) 0.13288(18)
H19 H 0.2263 0.8787 0.1279
C32 C 0.6015(7) 0.9619(8) 0.1445(3)
H20 H 0.5310 0.9177 0.1447
Co4 Co 0.12966(13) 0.25480(18) 0.49691(3)
O14 O 0.0820(6) 0.2929(8) 0.44506(18)
O17 O 0.2589(6) 0.4033(10) 0.4938(2)
H21 H 0.2913 0.4441 0.5137
H22 H 0.2910 0.4367 0.4722
C38 C 0.0381(7) 0.6980(10) 0.3883(3)
H25 H 0.0800 0.7081 0.4108
C39 C 0.0626(5) 0.4046(6) 0.33095(16)
H26 H 0.1150 0.4254 0.3118
C44 C 0.0664(5) 0.3580(6) 0.36712(18)
H29 H 0.1213 0.3476 0.3721
C48 C 0.0381(8) 0.6396(11) 0.3555(3)
H30 H 0.0823 0.6133 0.3553
O19 O 0.0820(6) 0.2929(8) 0.05494(18)
C54 C 0.0381(7) 0.6980(10) 0.1117(3)
H33 H 0.0800 0.7081 0.0892
C55 C 0.0626(5) 0.4046(6) 0.16905(16)
H34 H 0.1150 0.4254 0.1882
C60 C 0.0664(5) 0.3580(6) 0.13288(18)
H37 H 0.1213 0.3476 0.1279
C64 C 0.0381(8) 0.6396(11) 0.1445(3)
H38 H 0.0823 0.6133 0.1447
Co6 Co 0.12514(12) 0.87034(13) 0.00309(3)
O32 O 0.1444(8) 0.7411(6) 0.0062(2)
H58 H 0.1457 0.7090 0.0278
O33 O 0.8772(17) 0.9144(13) 0.1663(6)
H59 H 0.8125 0.8826 0.1603
H60 H 0.8788 0.9022 0.1922
Co8_4 Co 1.0000 1.0000 0.12732(16)
Co9 Co 0.12966(13) 0.25480(18) 0.00309(3)
O34 O 0.2589(6) 0.4033(10) 0.0062(2)
H62 H 0.2910 0.4367 0.0278
Co12 Co 0.74520(18) 0.87486(12) 0.49691(3)
Co14 Co 0.74520(18) 0.87486(12) 0.00309(3)
Co27_4 Co 1.0000 1.0000 0.46190(11)
Co29_4 Co 1.0000 1.0000 0.03810(11)
Co31_2 Co -0.0000 1.0000 0.53810(11)
O41_3 O 0.1115(6) 1.0000 0.0000
O46 O 0.9669(6) 0.8826(8) 0.41619(19)
O50 O 0.9669(6) 0.8826(8) 0.08381(19)
O54 O 0.2172(7) 0.2096(5) 0.45853(19)
O56 O 0.2172(7) 0.2096(5) 0.04147(19)
O57 O 0.0076(5) 0.7904(5) 0.54147(19)
O59 O 0.2096(5) 0.2172(7) 0.54147(19)
O63 O 0.0855(6) 0.3178(5) 0.54398(19)
O64 O 0.2323(8) 0.9145(6) 0.54398(19)
H57 H 0.1528 0.7087 0.9863
H61 H 0.2913 0.4441 0.9863
O41_4 O 0.1115(6) 1.0000 1.0000
O60 O 0.0076(5) 0.7904(5) 0.95853(19)
O62 O 0.2096(5) 0.2172(7) 0.95853(19)
O66 O 0.0855(6) 0.3178(5) 0.95602(19)
O67 O 0.2323(8) 0.9145(6) 0.95602(19)
Co31_3 Co 1.0000 0.0000 0.53810(11)
O40_2 O 1.0000 0.1115(6) 0.5000
O43_3 O 1.0000 0.1115(6) 0.0000
O43_4 O 1.0000 0.1115(6) 1.0000
O15 O 0.9924(5) 0.7828(7) 0.45853(19)
O16 O 0.9145(6) 0.2323(8) 0.45602(19)
N3 N 0.9658(10) 0.6034(13) 0.2500
N4 N 0.9819(10) 0.4306(13) 0.2500
C33 C 0.9799(7) 0.8081(9) 0.4233(2)
C34 C 0.9785(8) 0.4733(11) 0.2851(2)
C35 C 0.9121(8) 0.7256(11) 0.3551(3)
H23 H 0.8717 0.7562 0.3547
C36 C 0.9704(8) 0.5627(11) 0.2855(3)
C37 C 0.9086(9) 0.6634(11) 0.3226(3)
H24 H 0.8640 0.6509 0.3009
C40 C 0.9807(5) 0.4204(6) 0.32345(15)
C41 C 0.9024(4) 0.3894(6) 0.35210(18)
H27 H 0.8476 0.3999 0.3471
C42 C 0.9062(4) 0.3428(6) 0.38826(17)
H28 H 0.8539 0.3221 0.4074
C43 C 0.9882(5) 0.3271(7) 0.39577(15)
C45 C 0.9713(7) 0.6206(10) 0.3227(3)
C46 C 0.9763(7) 0.7409(10) 0.3876(2)
C47 C 0.9955(8) 0.2790(11) 0.4355(3)
O20 O 0.9924(5) 0.7828(7) 0.04147(19)
O21 O 0.9145(6) 0.2323(8) 0.04398(19)
C49 C 0.9799(7) 0.8081(9) 0.0767(2)
C50 C 0.9785(8) 0.4733(11) 0.2149(2)
C51 C 0.9121(8) 0.7256(11) 0.1449(3)
H31 H 0.8717 0.7562 0.1453
C52 C 0.9704(8) 0.5627(11) 0.2145(3)
C53 C 0.9086(9) 0.6634(11) 0.1774(3)
H32 H 0.8640 0.6509 0.1991
C56 C 0.9807(5) 0.4204(6) 0.17655(15)
C57 C 0.9024(4) 0.3894(6) 0.14790(18)
H35 H 0.8476 0.3999 0.1529
C58 C 0.9062(4) 0.3428(6) 0.11174(17)
H36 H 0.8539 0.3221 0.0926
C59 C 0.9882(5) 0.3271(7) 0.10423(15)
C61 C 0.9713(7) 0.6206(10) 0.1773(3)
C62 C 0.9763(7) 0.7409(10) 0.1124(2)
C63 C 0.9955(8) 0.2790(11) 0.0645(3)
O22 O 0.8885(6) 0.8885(6) 0.5000
O24 O 0.7071(8) 0.7891(5) 0.44506(18)
O26 O 0.7677(8) 0.6822(5) 0.45602(19)
O27 O 0.5967(10) 0.8556(8) 0.4938(2)
H39 H 0.5559 0.8472 0.5137
H40 H 0.5633 0.8543 0.4722
N5 N 0.3966(13) 0.3624(8) 0.2500
N6 N 0.5694(13) 0.5513(8) 0.2500
C65 C 0.1919(9) 0.1718(5) 0.4233(2)
C66 C 0.5267(11) 0.5052(7) 0.2851(2)
C67 C 0.2744(11) 0.1865(7) 0.3551(3)
H41 H 0.2438 0.1155 0.3547
C68 C 0.4373(11) 0.4077(7) 0.2855(3)
C69 C 0.3366(11) 0.2452(7) 0.3226(3)
H42 H 0.3491 0.2131 0.3009
C70 C 0.3020(10) 0.3401(7) 0.3883(3)
H43 H 0.2919 0.3719 0.4108
C71 C 0.5954(6) 0.6580(4) 0.33095(16)
H44 H 0.5746 0.6896 0.3118
C72 C 0.5796(6) 0.5603(4) 0.32345(15)
C73 C 0.6106(6) 0.5130(4) 0.35210(18)
H45 H 0.6001 0.4477 0.3471
C74 C 0.6572(6) 0.5634(5) 0.38826(17)
H46 H 0.6779 0.5318 0.4074
C75 C 0.6729(7) 0.6611(5) 0.39577(15)
C76 C 0.6420(6) 0.7084(4) 0.36712(18)
H47 H 0.6524 0.7737 0.3721
C77 C 0.3794(10) 0.3507(7) 0.3227(3)
C78 C 0.2591(10) 0.2354(7) 0.3876(2)
C79 C 0.7210(11) 0.7165(7) 0.4355(3)
C80 C 0.3604(11) 0.3985(7) 0.3555(3)
H48 H 0.3867 0.4690 0.3553
O29 O 0.7071(8) 0.7891(5) 0.05494(18)
O31 O 0.7677(8) 0.6822(5) 0.04398(19)
C81 C 0.1919(9) 0.1718(5) 0.0767(2)
C82 C 0.5267(11) 0.5052(7) 0.2149(2)
C83 C 0.2744(11) 0.1865(7) 0.1449(3)
H49 H 0.2438 0.1155 0.1453
C84 C 0.4373(11) 0.4077(7) 0.2145(3)
C85 C 0.3366(11) 0.2452(7) 0.1774(3)
H50 H 0.3491 0.2131 0.1991
C86 C 0.3020(10) 0.3401(7) 0.1117(3)
H51 H 0.2919 0.3719 0.0892
C87 C 0.5954(6) 0.6580(4) 0.16905(16)
H52 H 0.5746 0.6896 0.1882
C88 C 0.5796(6) 0.5603(4) 0.17655(15)
C89 C 0.6106(6) 0.5130(4) 0.14790(18)
H53 H 0.6001 0.4477 0.1529
C90 C 0.6572(6) 0.5634(5) 0.11174(17)
H54 H 0.6779 0.5318 0.0926
C91 C 0.6729(7) 0.6611(5) 0.10423(15)
C92 C 0.6420(6) 0.7084(4) 0.13288(18)
H55 H 0.6524 0.7737 0.1279
C93 C 0.3794(10) 0.3507(7) 0.1773(3)
C94 C 0.2591(10) 0.2354(7) 0.1124(2)
C95 C 0.7210(11) 0.7165(7) 0.0645(3)
C96 C 0.3604(11) 0.3985(7) 0.1445(3)
H56 H 0.3867 0.4690 0.1447
O35 O 0.5967(10) 0.8556(8) 0.0062(2)
H64 H 0.5633 0.8543 0.0278
Co19 Co 0.87486(12) 0.74520(18) 0.50309(3)
Co31_4 Co 1.0000 1.0000 0.53810(11)
O44 O 0.8885(6) 0.8885(6) 0.0000
O58 O 0.7828(7) 0.9924(5) 0.54147(19)
O65 O 0.6822(5) 0.7677(8) 0.54398(19)
H63 H 0.5559 0.8472 0.9863
Co24 Co 0.87486(12) 0.74520(18) 0.99691(3)
O44_2 O 0.8885(6) 0.8885(6) 1.0000
O61 O 0.7828(7) 0.9924(5) 0.95853(19)
O68 O 0.6822(5) 0.7677(8) 0.95602(19)
Co31_5 Co -0.0000 0.0000 0.96190(11)
Co31_6 Co -0.0000 1.0000 0.96190(11)
Co31_7 Co 1.0000 0.0000 0.96190(11)
Co31_8 Co 1.0000 1.0000 0.96190(11)
Co3_5 Co 0.0000 -0.0000 0.62732(16)
Co8_5 Co 0.0000 0.0000 0.87268(16)
O37_2 O 0.1228(17) 0.0372(21) 0.6663(6)
H67_2 H 0.1875 0.0701 0.6603
H68_2 H 0.1212 0.0234 0.6922
O39_2 O 0.1228(17) 0.0372(21) 0.8337(6)
H71_2 H 0.1875 0.0701 0.8397
H72_2 H 0.1212 0.0234 0.8078
O48_2 O 0.0843(5) 0.1174(8) 0.58381(19)
O52_2 O 0.0843(5) 0.1174(8) 0.91619(19)
O2_2 O 0.0331(6) 0.9157(5) 0.58381(19)
N1_2 N 0.0342(10) 0.6376(8) 0.7500
N2_2 N 0.0181(10) 0.4487(8) 0.7500
C1_2 C 0.0201(7) 0.8282(5) 0.5767(2)
C2_2 C 0.0215(8) 0.4948(7) 0.7149(2)
C3_2 C 0.0879(8) 0.8135(7) 0.6449(3)
H3_2 H 0.1283 0.8845 0.6453
C4_2 C 0.0296(8) 0.5923(7) 0.7145(3)
C5_2 C 0.0914(9) 0.7548(7) 0.6774(3)
H4_2 H 0.1360 0.7869 0.6991
C8_2 C 0.0193(5) 0.4397(4) 0.67655(15)
C9_2 C 0.0976(4) 0.4870(4) 0.64790(18)
H7_2 H 0.1524 0.5523 0.6529
C10_2 C 0.0938(4) 0.4366(5) 0.61174(17)
H8_2 H 0.1461 0.4682 0.5926
C11_2 C 0.0118(5) 0.3389(5) 0.60423(15)
C13_2 C 0.0287(7) 0.6493(7) 0.6773(3)
C14_2 C 0.0237(7) 0.7646(7) 0.6124(2)
C15_2 C 0.0045(8) 0.2835(7) 0.5645(3)
Co3_6 Co 0.0000 1.0000 0.62732(16)
O8_2 O 0.0331(6) 0.9157(5) 0.91619(19)
C17_2 C 0.0201(7) 0.8282(5) 0.9233(2)
C18_2 C 0.0215(8) 0.4948(7) 0.7851(2)
C19_2 C 0.0879(8) 0.8135(7) 0.8551(3)
H13_2 H 0.1283 0.8845 0.8547
C20_2 C 0.0296(8) 0.5923(7) 0.7855(3)
C21_2 C 0.0914(9) 0.7548(7) 0.8226(3)
H14_2 H 0.1360 0.7869 0.8009
C24_2 C 0.0193(5) 0.4397(4) 0.82345(15)
C25_2 C 0.0976(4) 0.4870(4) 0.85210(18)
H17_2 H 0.1524 0.5523 0.8471
C26_2 C 0.0938(4) 0.4366(5) 0.88826(17)
H18_2 H 0.1461 0.4682 0.9074
C27_2 C 0.0118(5) 0.3389(5) 0.89577(15)
C29_2 C 0.0287(7) 0.6493(7) 0.8227(3)
C30_2 C 0.0237(7) 0.7646(7) 0.8876(2)
C31_2 C 0.0045(8) 0.2835(7) 0.9355(3)
Co8_6 Co -0.0000 1.0000 0.87268(16)
Co3_7 Co 1.0000 -0.0000 0.62732(16)
Co8_7 Co 1.0000 0.0000 0.87268(16)
O36_2 O 0.9628(21) 0.0856(13) 0.6663(6)
H65_2 H 0.9299 0.1174 0.6603
H66_2 H 0.9766 0.0978 0.6922
O38_2 O 0.9628(21) 0.0856(13) 0.8337(6)
H69_2 H 0.9299 0.1174 0.8397
H70_2 H 0.9766 0.0978 0.8078
H57_2 H 0.7087 0.1528 0.0137
H61_2 H 0.4441 0.2913 0.0137
O3_2 O 0.9180(6) 0.2109(5) 0.55494(18)
O6_2 O 0.7411(6) 0.1444(8) 0.5062(2)
H1_2 H 0.7087 0.1528 0.4863
H2_2 H 0.7090 0.1457 0.5278
C6_2 C 0.9619(7) 0.6599(7) 0.6117(3)
H5_2 H 0.9200 0.6281 0.5892
C7_2 C 0.9374(5) 0.3420(4) 0.66905(16)
H6_2 H 0.8850 0.3104 0.6882
C12_2 C 0.9336(5) 0.2916(4) 0.63288(18)
H9_2 H 0.8787 0.2263 0.6279
C16_2 C 0.9619(8) 0.6015(7) 0.6445(3)
H10_2 H 0.9177 0.5310 0.6447
O7_2 O 0.9144(13) 0.8772(17) 0.6663(6)
H11_2 H 0.8826 0.8125 0.6603
H12_2 H 0.9022 0.8788 0.6922
Co3_8 Co 1.0000 1.0000 0.62732(16)
O9_2 O 0.9180(6) 0.2109(5) 0.94506(18)
C22_2 C 0.9619(7) 0.6599(7) 0.8883(3)
H15_2 H 0.9200 0.6281 0.9108
C23_2 C 0.9374(5) 0.3420(4) 0.83095(16)
H16_2 H 0.8850 0.3104 0.8118
C28_2 C 0.9336(5) 0.2916(4) 0.86712(18)
H19_2 H 0.8787 0.2263 0.8721
C32_2 C 0.9619(8) 0.6015(7) 0.8555(3)
H20_2 H 0.9177 0.5310 0.8553
O14_2 O 0.2929(8) 0.0820(6) 0.55494(18)
O17_2 O 0.4033(10) 0.2589(6) 0.5062(2)
H21_2 H 0.4441 0.2913 0.4863
H22_2 H 0.4367 0.2910 0.5278
C38_2 C 0.6980(10) 0.0381(7) 0.6117(3)
H25_2 H 0.7081 0.0800 0.5892
C39_2 C 0.4046(6) 0.0626(5) 0.66905(16)
H26_2 H 0.4254 0.1150 0.6882
C44_2 C 0.3580(6) 0.0664(5) 0.63288(18)
H29_2 H 0.3476 0.1213 0.6279
C48_2 C 0.6396(11) 0.0381(8) 0.6445(3)
H30_2 H 0.6133 0.0823 0.6447
O19_2 O 0.2929(8) 0.0820(6) 0.94506(18)
C54_2 C 0.6980(10) 0.0381(7) 0.8883(3)
H33_2 H 0.7081 0.0800 0.9108
C55_2 C 0.4046(6) 0.0626(5) 0.83095(16)
H34_2 H 0.4254 0.1150 0.8118
C60_2 C 0.3580(6) 0.0664(5) 0.86712(18)
H37_2 H 0.3476 0.1213 0.8721
C64_2 C 0.6396(11) 0.0381(8) 0.8555(3)
H38_2 H 0.6133 0.0823 0.8553
O32_2 O 0.7411(6) 0.1444(8) 0.9938(2)
H58_2 H 0.7090 0.1457 0.9722
O33_2 O 0.9144(13) 0.8772(17) 0.8337(6)
H59_2 H 0.8826 0.8125 0.8397
H60_2 H 0.9022 0.8788 0.8078
Co8_8 Co 1.0000 1.0000 0.87268(16)
O34_2 O 0.4033(10) 0.2589(6) 0.9938(2)
H62_2 H 0.4367 0.2910 0.9722
O46_2 O 0.8826(8) 0.9669(6) 0.58381(19)
O50_2 O 0.8826(8) 0.9669(6) 0.91619(19)
H63_2 H 0.8472 0.5559 0.0137
N3_2 N 0.6034(13) 0.9658(10) 0.7500
N4_2 N 0.4306(13) 0.9819(10) 0.7500
C33_2 C 0.8081(9) 0.9799(7) 0.5767(2)
C34_2 C 0.4733(11) 0.9785(8) 0.7149(2)
C35_2 C 0.7256(11) 0.9121(8) 0.6449(3)
H23_2 H 0.7562 0.8717 0.6453
C36_2 C 0.5627(11) 0.9704(8) 0.7145(3)
C37_2 C 0.6634(11) 0.9086(9) 0.6774(3)
H24_2 H 0.6509 0.8640 0.6991
C40_2 C 0.4204(6) 0.9807(5) 0.67655(15)
C41_2 C 0.3894(6) 0.9024(4) 0.64790(18)
H27_2 H 0.3999 0.8476 0.6529
C42_2 C 0.3428(6) 0.9062(4) 0.61174(17)
H28_2 H 0.3221 0.8539 0.5926
C43_2 C 0.3271(7) 0.9882(5) 0.60423(15)
C45_2 C 0.6206(10) 0.9713(7) 0.6773(3)
C46_2 C 0.7409(10) 0.9763(7) 0.6124(2)
C47_2 C 0.2790(11) 0.9955(8) 0.5645(3)
C49_2 C 0.8081(9) 0.9799(7) 0.9233(2)
C50_2 C 0.4733(11) 0.9785(8) 0.7851(2)
C51_2 C 0.7256(11) 0.9121(8) 0.8551(3)
H31_2 H 0.7562 0.8717 0.8547
C52_2 C 0.5627(11) 0.9704(8) 0.7855(3)
C53_2 C 0.6634(11) 0.9086(9) 0.8226(3)
H32_2 H 0.6509 0.8640 0.8009
C56_2 C 0.4204(6) 0.9807(5) 0.82345(15)
C57_2 C 0.3894(6) 0.9024(4) 0.85210(18)
H35_2 H 0.3999 0.8476 0.8471
C58_2 C 0.3428(6) 0.9062(4) 0.88826(17)
H36_2 H 0.3221 0.8539 0.9074
C59_2 C 0.3271(7) 0.9882(5) 0.89577(15)
C61_2 C 0.6206(10) 0.9713(7) 0.8227(3)
C62_2 C 0.7409(10) 0.9763(7) 0.8876(2)
C63_2 C 0.2790(11) 0.9955(8) 0.9355(3)
O24_2 O 0.7891(5) 0.7071(8) 0.55494(18)
O27_2 O 0.8556(8) 0.5967(10) 0.5062(2)
H39_2 H 0.8472 0.5559 0.4863
H40_2 H 0.8543 0.5633 0.5278
N5_2 N 0.3624(8) 0.3966(13) 0.7500
N6_2 N 0.5513(8) 0.5694(13) 0.7500
C65_2 C 0.1718(5) 0.1919(9) 0.5767(2)
C66_2 C 0.5052(7) 0.5267(11) 0.7149(2)
C67_2 C 0.1865(7) 0.2744(11) 0.6449(3)
H41_2 H 0.1155 0.2438 0.6453
C68_2 C 0.4077(7) 0.4373(11) 0.7145(3)
C69_2 C 0.2452(7) 0.3366(11) 0.6774(3)
H42_2 H 0.2131 0.3491 0.6991
C70_2 C 0.3401(7) 0.3020(10) 0.6117(3)
H43_2 H 0.3719 0.2919 0.5892
C71_2 C 0.6580(4) 0.5954(6) 0.66905(16)
H44_2 H 0.6896 0.5746 0.6882
C72_2 C 0.5603(4) 0.5796(6) 0.67655(15)
C73_2 C 0.5130(4) 0.6106(6) 0.64790(18)
H45_2 H 0.4477 0.6001 0.6529
C74_2 C 0.5634(5) 0.6572(6) 0.61174(17)
H46_2 H 0.5318 0.6779 0.5926
C75_2 C 0.6611(5) 0.6729(7) 0.60423(15)
C76_2 C 0.7084(4) 0.6420(6) 0.63288(18)
H47_2 H 0.7737 0.6524 0.6279
C77_2 C 0.3507(7) 0.3794(10) 0.6773(3)
C78_2 C 0.2354(7) 0.2591(10) 0.6124(2)
C79_2 C 0.7165(7) 0.7210(11) 0.5645(3)
C80_2 C 0.3985(7) 0.3604(11) 0.6445(3)
H48_2 H 0.4690 0.3867 0.6447
O29_2 O 0.7891(5) 0.7071(8) 0.94506(18)
C81_2 C 0.1718(5) 0.1919(9) 0.9233(2)
C82_2 C 0.5052(7) 0.5267(11) 0.7851(2)
C83_2 C 0.1865(7) 0.2744(11) 0.8551(3)
H49_2 H 0.1155 0.2438 0.8547
C84_2 C 0.4077(7) 0.4373(11) 0.7855(3)
C85_2 C 0.2452(7) 0.3366(11) 0.8226(3)
H50_2 H 0.2131 0.3491 0.8009
C86_2 C 0.3401(7) 0.3020(10) 0.8883(3)
H51_2 H 0.3719 0.2919 0.9108
C87_2 C 0.6580(4) 0.5954(6) 0.83095(16)
H52_2 H 0.6896 0.5746 0.8118
C88_2 C 0.5603(4) 0.5796(6) 0.82345(15)
C89_2 C 0.5130(4) 0.6106(6) 0.85210(18)
H53_2 H 0.4477 0.6001 0.8471
C90_2 C 0.5634(5) 0.6572(6) 0.88826(17)
H54_2 H 0.5318 0.6779 0.9074
C91_2 C 0.6611(5) 0.6729(7) 0.89577(15)
C92_2 C 0.7084(4) 0.6420(6) 0.86712(18)
H55_2 H 0.7737 0.6524 0.8721
C93_2 C 0.3507(7) 0.3794(10) 0.8227(3)
C94_2 C 0.2354(7) 0.2591(10) 0.8876(2)
C95_2 C 0.7165(7) 0.7210(11) 0.9355(3)
C96_2 C 0.3985(7) 0.3604(11) 0.8555(3)
H56_2 H 0.4690 0.3867 0.8553
O35_2 O 0.8556(8) 0.5967(10) 0.9938(2)
H64_2 H 0.8543 0.5633 0.9722
loop_
_geom_bond_atom_site_label_1
_geom_bond_atom_site_label_2
_geom_bond_site_symmetry_1
_geom_bond_site_symmetry_2
O37 Co3 1_555 1_555
H67 O37 1_555 1_555
H68 O37 1_555 1_555
O39 Co8 1_555 1_555
H71 O39 1_555 1_555
H72 O39 1_555 1_555
O48 Co3 1_555 1_555
O52 Co8 1_555 1_555
Co27 O48 1_555 1_555
Co29 O52 1_555 1_555
O36 Co3_2 1_555 1_555
H65 O36 1_555 1_555
H66 O36 1_555 1_555
O38 Co8_2 1_555 1_555
H69 O38 1_555 1_555
H70 O38 1_555 1_555
Co27 O1 1_555 1_555
O1 Co18 1_555 1_555
O2 C1 1_555 1_555
O4 C1 1_555 1_555
O5 C15 1_555 1_555
N1 C4 1_555 1_555
N2 C2 1_555 1_555
C1 C14 1_555 1_555
C2 C4 1_555 1_555
C3 H3 1_555 1_555
C4 C13 1_555 1_555
C5 C3 1_555 1_555
H4 C5 1_555 1_555
C8 C2 1_555 1_555
C9 C8 1_555 1_555
H7 C9 1_555 1_555
C10 C9 1_555 1_555
H8 C10 1_555 1_555
C11 C10 1_555 1_555
C13 C5 1_555 1_555
C14 C3 1_555 1_555
Co3_3 O2 1_555 1_555
O8 C17 1_555 1_555
O10 C17 1_555 1_555
O11 C31 1_555 1_555
C17 C30 1_555 1_555
C18 N2 1_555 1_555
C19 H13 1_555 1_555
C20 N1 1_555 1_555
C21 C19 1_555 1_555
H14 C21 1_555 1_555
C24 C18 1_555 1_555
C25 C24 1_555 1_555
H17 C25 1_555 1_555
C26 C25 1_555 1_555
H18 C26 1_555 1_555
C27 C26 1_555 1_555
C29 C20 1_555 1_555
C30 C19 1_555 1_555
C31 C27 1_555 1_555
Co8_3 O8 1_555 1_555
Co16 O4 1_555 1_555
Co18 O5 1_555 1_555
Co27_3 O2 1_555 1_555
Co29_3 O8 1_555 1_555
Co31 O1 1_555 1_555
O40 Co27 1_555 1_555
O43 Co29 1_555 1_555
C11 C15 1_555 1_555
C18 C20 1_555 1_555
C21 C29 1_555 1_555
Co29 O41 1_555 1_555
Co31 O40 1_555 1_555
Co23 O41_2 1_555 1_555
Co1 O1_2 1_555 1_555
Co27_2 O1_2 1_555 1_555
O3 Co1 1_555 1_555
O6 Co1 1_555 1_555
H1 O6 1_555 1_555
H2 O6 1_555 1_555
C6 H5 1_555 1_555
C7 H6 1_555 1_555
C12 C7 1_555 1_555
H9 C12 1_555 1_555
C16 C6 1_555 1_555
H10 C16 1_555 1_555
O7 H11 1_555 1_555
H12 O7 1_555 1_555
C22 H15 1_555 1_555
C23 H16 1_555 1_555
C28 C23 1_555 1_555
H19 C28 1_555 1_555
C32 C22 1_555 1_555
H20 C32 1_555 1_555
Co4 O40 1_555 1_555
O14 Co4 1_555 1_555
O17 Co4 1_555 1_555
H21 O17 1_555 1_555
H22 O17 1_555 1_555
C38 H25 1_555 1_555
C39 H26 1_555 1_555
C44 C39 1_555 1_555
H29 C44 1_555 1_555
C48 C38 1_555 1_555
H30 C48 1_555 1_555
C54 H33 1_555 1_555
C55 H34 1_555 1_555
C60 C55 1_555 1_555
H37 C60 1_555 1_555
C64 C54 1_555 1_555
H38 C64 1_555 1_555
Co6 O9 1_555 1_555
O32 Co6 1_555 1_555
H58 O32 1_555 1_555
O33 H59 1_555 1_555
H60 O33 1_555 1_555
Co9 O19 1_555 1_555
O34 Co9 1_555 1_555
H62 O34 1_555 1_555
Co31_2 O1_2 1_555 1_555
O41_3 Co6 1_555 1_555
O43 Co9 1_555 1_555
O46 Co3_4 1_555 1_555
O50 Co8_4 1_555 1_555
O54 Co4 1_555 1_555
O56 Co9 1_555 1_555
O57 Co1 1_555 1_555
O59 Co4 1_555 1_555
O63 Co4 1_555 1_555
O64 Co1 1_555 1_555
O7 Co3_4 1_555 1_555
Co29_2 O41_3 1_555 1_555
O33 Co8_4 1_555 1_555
Co27_4 O46 1_555 1_555
Co29_4 O50 1_555 1_555
O40_2 Co27_3 1_555 1_555
O43_3 Co29_3 1_555 1_555
Co31_3 O40_2 1_555 1_555
O40_2 Co16 1_555 1_555
O16 C47 1_555 1_555
N3 C36 1_555 1_555
N4 C34 1_555 1_555
C33 O46 1_555 1_555
C34 C36 1_555 1_555
C35 H23 1_555 1_555
C36 C45 1_555 1_555
C37 C35 1_555 1_555
H24 C37 1_555 1_555
C40 C34 1_555 1_555
C41 C40 1_555 1_555
H27 C41 1_555 1_555
C42 C41 1_555 1_555
H28 C42 1_555 1_555
C43 C42 1_555 1_555
C45 C37 1_555 1_555
C46 C33 1_555 1_555
O50 C49 1_555 1_555
O20 C49 1_555 1_555
O21 C63 1_555 1_555
C49 C62 1_555 1_555
C50 N4 1_555 1_555
C51 H31 1_555 1_555
C52 N3 1_555 1_555
C53 C51 1_555 1_555
H32 C53 1_555 1_555
C56 C50 1_555 1_555
C57 C56 1_555 1_555
H35 C57 1_555 1_555
C58 C57 1_555 1_555
H36 C58 1_555 1_555
C59 C58 1_555 1_555
C61 C52 1_555 1_555
C62 C51 1_555 1_555
C63 C59 1_555 1_555
Co12 O22 1_555 1_555
O22 Co27_4 1_555 1_555
O48 C65 1_555 1_555
O24 Co12 1_555 1_555
O54 C65 1_555 1_555
O26 C79 1_555 1_555
O27 Co12 1_555 1_555
H39 O27 1_555 1_555
H40 O27 1_555 1_555
N5 C68 1_555 1_555
N6 C66 1_555 1_555
C65 C78 1_555 1_555
C66 C68 1_555 1_555
C67 H41 1_555 1_555
C68 C77 1_555 1_555
C69 C67 1_555 1_555
H42 C69 1_555 1_555
C70 H43 1_555 1_555
C71 H44 1_555 1_555
C72 C66 1_555 1_555
C73 C72 1_555 1_555
H45 C73 1_555 1_555
C74 C73 1_555 1_555
H46 C74 1_555 1_555
C75 C74 1_555 1_555
C76 C71 1_555 1_555
H47 C76 1_555 1_555
C77 C69 1_555 1_555
C78 C67 1_555 1_555
C79 O24 1_555 1_555
C80 C70 1_555 1_555
H48 C80 1_555 1_555
O52 C81 1_555 1_555
O29 C95 1_555 1_555
O56 C81 1_555 1_555
O31 C95 1_555 1_555
C81 C94 1_555 1_555
C82 N6 1_555 1_555
C83 H49 1_555 1_555
C84 N5 1_555 1_555
C85 C83 1_555 1_555
H50 C85 1_555 1_555
C86 H51 1_555 1_555
C87 H52 1_555 1_555
C88 C82 1_555 1_555
C89 C88 1_555 1_555
H53 C89 1_555 1_555
C90 C89 1_555 1_555
H54 C90 1_555 1_555
C91 C90 1_555 1_555
C92 C87 1_555 1_555
H55 C92 1_555 1_555
C93 C84 1_555 1_555
C94 C83 1_555 1_555
C95 C91 1_555 1_555
C96 C86 1_555 1_555
H56 C96 1_555 1_555
Co14 O29 1_555 1_555
O35 Co14 1_555 1_555
H64 O35 1_555 1_555
Co16 O16 1_555 1_555
Co18 O54 1_555 1_555
Co19 O15 1_555 1_555
O44 Co29_4 1_555 1_555
O58 Co12 1_555 1_555
O65 Co12 1_555 1_555
O15 C33 1_555 1_555
C35 C46 1_555 1_555
C43 C47 1_555 1_555
C50 C52 1_555 1_555
C53 C61 1_555 1_555
O22 Co19 1_555 1_555
O22 Co31_4 1_555 1_555
O26 Co19 1_555 1_555
C70 C78 1_555 1_555
C71 C72 1_555 1_555
C75 C76 1_555 1_555
C75 C79 1_555 1_555
C77 C80 1_555 1_555
C82 C84 1_555 1_555
C85 C93 1_555 1_555
C86 C94 1_555 1_555
C87 C88 1_555 1_555
C91 C92 1_555 1_555
C93 C96 1_555 1_555
Co14 O44 1_555 1_555
Co21 O43_4 1_555 1_555
Co24 O44_2 1_555 1_555
Co18 O59 1_555 1_555
Co23 O62 1_555 1_555
Co31_5 O41_2 1_555 1_555
Co31_5 O43_2 1_555 1_555
Co31_6 O41_4 1_555 1_555
Co31_7 O43_4 1_555 1_555
O44_2 Co31_8 1_555 1_555
O37_2 Co3_5 1_555 1_555
H67_2 O37_2 1_555 1_555
H68_2 O37_2 1_555 1_555
O39_2 Co8_5 1_555 1_555
H71_2 O39_2 1_555 1_555
H72_2 O39_2 1_555 1_555
O48_2 Co3_5 1_555 1_555
O52_2 Co8_5 1_555 1_555
Co31 O48_2 1_555 1_555
Co31_5 O52_2 1_555 1_555
O2_2 C1_2 1_555 1_555
O57 C1_2 1_555 1_555
O63 C15_2 1_555 1_555
N1_2 C4_2 1_555 1_555
N2_2 C2_2 1_555 1_555
C1_2 C14_2 1_555 1_555
C2_2 C4_2 1_555 1_555
C3_2 H3_2 1_555 1_555
C4_2 C13_2 1_555 1_555
C5_2 C3_2 1_555 1_555
H4_2 C5_2 1_555 1_555
C8_2 C2_2 1_555 1_555
C9_2 C8_2 1_555 1_555
H7_2 C9_2 1_555 1_555
C10_2 C9_2 1_555 1_555
H8_2 C10_2 1_555 1_555
C11_2 C10_2 1_555 1_555
C13_2 C5_2 1_555 1_555
C14_2 C3_2 1_555 1_555
Co3_6 O2_2 1_555 1_555
O8_2 C17_2 1_555 1_555
O60 C17_2 1_555 1_555
O66 C31_2 1_555 1_555
C17_2 C30_2 1_555 1_555
C18_2 N2_2 1_555 1_555
C19_2 H13_2 1_555 1_555
C20_2 N1_2 1_555 1_555
C21_2 C19_2 1_555 1_555
H14_2 C21_2 1_555 1_555
C24_2 C18_2 1_555 1_555
C25_2 C24_2 1_555 1_555
H17_2 C25_2 1_555 1_555
C26_2 C25_2 1_555 1_555
H18_2 C26_2 1_555 1_555
C27_2 C26_2 1_555 1_555
C29_2 C20_2 1_555 1_555
C30_2 C19_2 1_555 1_555
C31_2 C27_2 1_555 1_555
Co8_6 O8_2 1_555 1_555
Co31_2 O2_2 1_555 1_555
Co31_6 O8_2 1_555 1_555
C11_2 C15_2 1_555 1_555
C18_2 C20_2 1_555 1_555
C21_2 C29_2 1_555 1_555
O36_2 Co3_7 1_555 1_555
H65_2 O36_2 1_555 1_555
H66_2 O36_2 1_555 1_555
O38_2 Co8_7 1_555 1_555
H69_2 O38_2 1_555 1_555
H70_2 O38_2 1_555 1_555
O3_2 Co16 1_555 1_555
O6_2 Co16 1_555 1_555
H1_2 O6_2 1_555 1_555
H2_2 O6_2 1_555 1_555
C6_2 H5_2 1_555 1_555
C7_2 H6_2 1_555 1_555
C12_2 C7_2 1_555 1_555
H9_2 C12_2 1_555 1_555
C16_2 C6_2 1_555 1_555
H10_2 C16_2 1_555 1_555
O7_2 H11_2 1_555 1_555
H12_2 O7_2 1_555 1_555
C22_2 H15_2 1_555 1_555
C23_2 H16_2 1_555 1_555
C28_2 C23_2 1_555 1_555
H19_2 C28_2 1_555 1_555
C32_2 C22_2 1_555 1_555
H20_2 C32_2 1_555 1_555
O14_2 Co18 1_555 1_555
O17_2 Co18 1_555 1_555
H21_2 O17_2 1_555 1_555
H22_2 O17_2 1_555 1_555
C38_2 H25_2 1_555 1_555
C39_2 H26_2 1_555 1_555
C44_2 C39_2 1_555 1_555
H29_2 C44_2 1_555 1_555
C48_2 C38_2 1_555 1_555
H30_2 C48_2 1_555 1_555
C54_2 H33_2 1_555 1_555
C55_2 H34_2 1_555 1_555
C60_2 C55_2 1_555 1_555
H37_2 C60_2 1_555 1_555
C64_2 C54_2 1_555 1_555
H38_2 C64_2 1_555 1_555
Co21 O9_2 1_555 1_555
O32_2 Co21 1_555 1_555
H58_2 O32_2 1_555 1_555
O33_2 H59_2 1_555 1_555
H60_2 O33_2 1_555 1_555
Co23 O19_2 1_555 1_555
O34_2 Co23 1_555 1_555
H62_2 O34_2 1_555 1_555
O46_2 Co3_8 1_555 1_555
O50_2 Co8_8 1_555 1_555
O7_2 Co3_8 1_555 1_555
O33_2 Co8_8 1_555 1_555
Co31_4 O46_2 1_555 1_555
Co31_8 O50_2 1_555 1_555
O64 C47_2 1_555 1_555
N3_2 C36_2 1_555 1_555
N4_2 C34_2 1_555 1_555
C33_2 O46_2 1_555 1_555
C34_2 C36_2 1_555 1_555
C35_2 H23_2 1_555 1_555
C36_2 C45_2 1_555 1_555
C37_2 C35_2 1_555 1_555
H24_2 C37_2 1_555 1_555
C40_2 C34_2 1_555 1_555
C41_2 C40_2 1_555 1_555
H27_2 C41_2 1_555 1_555
C42_2 C41_2 1_555 1_555
H28_2 C42_2 1_555 1_555
C43_2 C42_2 1_555 1_555
C45_2 C37_2 1_555 1_555
C46_2 C33_2 1_555 1_555
O50_2 C49_2 1_555 1_555
O61 C49_2 1_555 1_555
O67 C63_2 1_555 1_555
C49_2 C62_2 1_555 1_555
C50_2 N4_2 1_555 1_555
C51_2 H31_2 1_555 1_555
C52_2 N3_2 1_555 1_555
C53_2 C51_2 1_555 1_555
H32_2 C53_2 1_555 1_555
C56_2 C50_2 1_555 1_555
C57_2 C56_2 1_555 1_555
H35_2 C57_2 1_555 1_555
C58_2 C57_2 1_555 1_555
H36_2 C58_2 1_555 1_555
C59_2 C58_2 1_555 1_555
C61_2 C52_2 1_555 1_555
C62_2 C51_2 1_555 1_555
C63_2 C59_2 1_555 1_555
O48_2 C65_2 1_555 1_555
O24_2 Co19 1_555 1_555
O59 C65_2 1_555 1_555
O65 C79_2 1_555 1_555
O27_2 Co19 1_555 1_555
H39_2 O27_2 1_555 1_555
H40_2 O27_2 1_555 1_555
N5_2 C68_2 1_555 1_555
N6_2 C66_2 1_555 1_555
C65_2 C78_2 1_555 1_555
C66_2 C68_2 1_555 1_555
C67_2 H41_2 1_555 1_555
C68_2 C77_2 1_555 1_555
C69_2 C67_2 1_555 1_555
H42_2 C69_2 1_555 1_555
C70_2 H43_2 1_555 1_555
C71_2 H44_2 1_555 1_555
C72_2 C66_2 1_555 1_555
C73_2 C72_2 1_555 1_555
H45_2 C73_2 1_555 1_555
C74_2 C73_2 1_555 1_555
H46_2 C74_2 1_555 1_555
C75_2 C74_2 1_555 1_555
C76_2 C71_2 1_555 1_555
H47_2 C76_2 1_555 1_555
C77_2 C69_2 1_555 1_555
C78_2 C67_2 1_555 1_555
C79_2 O24_2 1_555 1_555
C80_2 C70_2 1_555 1_555
H48_2 C80_2 1_555 1_555
O52_2 C81_2 1_555 1_555
O29_2 C95_2 1_555 1_555
O62 C81_2 1_555 1_555
O68 C95_2 1_555 1_555
C81_2 C94_2 1_555 1_555
C82_2 N6_2 1_555 1_555
C83_2 H49_2 1_555 1_555
C84_2 N5_2 1_555 1_555
C85_2 C83_2 1_555 1_555
H50_2 C85_2 1_555 1_555
C86_2 H51_2 1_555 1_555
C87_2 H52_2 1_555 1_555
C88_2 C82_2 1_555 1_555
C89_2 C88_2 1_555 1_555
H53_2 C89_2 1_555 1_555
C90_2 C89_2 1_555 1_555
H54_2 C90_2 1_555 1_555
C91_2 C90_2 1_555 1_555
C92_2 C87_2 1_555 1_555
H55_2 C92_2 1_555 1_555
C93_2 C84_2 1_555 1_555
C94_2 C83_2 1_555 1_555
C95_2 C91_2 1_555 1_555
C96_2 C86_2 1_555 1_555
H56_2 C96_2 1_555 1_555
Co24 O29_2 1_555 1_555
O35_2 Co24 1_555 1_555
H64_2 O35_2 1_555 1_555
O58 C33_2 1_555 1_555
C35_2 C46_2 1_555 1_555
C43_2 C47_2 1_555 1_555
C50_2 C52_2 1_555 1_555
C53_2 C61_2 1_555 1_555
C70_2 C78_2 1_555 1_555
C71_2 C72_2 1_555 1_555
C75_2 C76_2 1_555 1_555
C75_2 C79_2 1_555 1_555
C77_2 C80_2 1_555 1_555
C82_2 C84_2 1_555 1_555
C85_2 C93_2 1_555 1_555
C86_2 C94_2 1_555 1_555
C87_2 C88_2 1_555 1_555
C91_2 C92_2 1_555 1_555
C93_2 C96_2 1_555 1_555

#END
