
###############################################################################
#
# This file contains modified crystal structure data generated from the
# MOF subset of the Cambridge Structural Database (CSD) v543 
# hosted by the Cambridge Crystallographic Data Centre (CCDC).
#
# This work is licensed under the Creative Commons
# Attribution-NonCommercial-ShareAlike 4.0 International License.
# To view a copy of this license, visit
# http://creativecommons.org/licenses/by-nc-sa/4.0/
# or send a letter to
# Creative Commons, PO Box 1866, Mountain View, CA 94042, USA.
#
# CIF created using the CSD Python API on 29 September 2022
# The structure has been converted into the P1 space group
# The structure has a 3D framework
# The original CSD entry OQUCOU is in the monoclinic crystal system
# The original CSD entry OQUCOU is in a Sohncke space group
# The framework has been calculated to contain at least 10.0% void space
# The void calculation uses a probe of radius 1.32A, grid spacing 0.4
# The framework is charged, counterions have been retained in the structure
# H atom positions have been added when not included in the experimental data
#
###############################################################################

data_OQUCOU
_chemical_formula_moiety         '(C144 H144 Cd11 N20 O62)n'
_symmetry_cell_setting           triclinic
_symmetry_space_group_name_H-M   'P 1'
_symmetry_Int_Tables_number      1
_space_group_name_Hall           'P 1'
loop_
_symmetry_equiv_pos_site_id
_symmetry_equiv_pos_as_xyz
1 x,y,z
_cell_length_a                   25.6433(8)
_cell_length_b                   13.3904(4)
_cell_length_c                   15.1209(5)
_cell_angle_alpha                90
_cell_angle_beta                 92.753(3)
_cell_angle_gamma                90
_cell_volume                     5186.13
loop_
_atom_site_label
_atom_site_type_symbol
_atom_site_fract_x
_atom_site_fract_y
_atom_site_fract_z
Cd7 Cd -0.0000 0.49342(6) 0.5000
Cd5 Cd 0.23864(2) 0.04973(5) 0.00230(4)
O30 O 0.1974(3) 0.2062(6) 0.0226(5)
Cd10 Cd 0.38772(2) 0.42039(4) 0.06400(4)
O41 O 0.2902(3) 0.0235(5) 0.1260(5)
H61 H 0.172109 0.20027 0.0700339
O1 O 0.6863(3) 0.0010(6) 0.1157(5)
O2 O 0.8173(3) 0.0187(7) 0.1131(4)
O3 O 0.5955(2) 0.4104(6) 0.0930(5)
C2 C 0.6839(3) 0.0931(7) 0.1221(6)
C3 C 0.5652(3) 0.0772(7) 0.3764(6)
C4 C 0.8269(4) 0.0043(8) 0.1939(6)
C7 C 0.5983(4) 0.2391(8) 0.3178(6)
H4 H 0.5800 0.2718 0.3610
C13 C 0.6246(3) 0.0874(7) 0.2498(6)
H9 H 0.6237 0.0181 0.2463
O5 O 0.7691(3) 0.3802(6) 0.0603(4)
O6 O 0.7076(3) 0.1487(5) 0.0693(5)
C17 C 0.6356(3) 0.4554(7) 0.1172(6)
C18 C 0.7919(3) 0.4289(8) 0.1224(5)
O7 O 0.9515(3) 0.3769(7) 0.4286(5)
O8 O 0.9290(3) 0.5203(7) 0.3712(5)
C19 C 0.6546(3) 0.2460(7) 0.1956(6)
H12 H 0.6745 0.2824 0.1571
C20 C 0.6530(3) 0.1414(7) 0.1909(5)
C21 C 0.8361(4) 0.2236(8) 0.2807(6)
C22 C 0.8212(3) 0.3747(8) 0.1956(5)
C23 C 0.6258(4) 0.2946(7) 0.2588(6)
O9 O 0.6233(3) 0.3965(5) 0.2695(5)
O10 O 0.8274(3) 0.1284(6) 0.3096(5)
C24 C 0.6533(4) 0.4589(8) 0.2139(6)
H13 H 0.6900 0.4390 0.2201
C25 C 0.8844(3) 0.3736(8) 0.3178(6)
C26 C 0.8103(3) 0.2734(8) 0.2098(6)
H14 H 0.7863 0.2397 0.1726
O11 O 0.5417(3) 0.1270(7) 0.4343(4)
C27 C 0.8746(4) 0.2764(8) 0.3345(6)
H15 H 0.8927 0.2439 0.3807
C28 C 0.9242(4) 0.4271(12) 0.3767(6)
C29 C 0.8562(3) 0.4252(9) 0.2488(5)
H16 H 0.8617 0.4931 0.2401
H19 H 0.7497 0.0277 0.3618
C32 C 0.5972(3) 0.1360(8) 0.3142(6)
O15 O 0.7902(3) 0.5235(5) 0.1260(5)
C33 C 0.7946(4) 0.0626(9) 0.2598(6)
H21 H 0.7673 0.1010 0.2273
C34 C 0.6476(6) 0.5649(10) 0.2498(9)
H22 H 0.6670 0.6104 0.2150
H23 H 0.6114 0.5835 0.2467
H24 H 0.6608 0.5673 0.3103
O16 O 0.6638(3) 0.4991(8) 0.0643(5)
O17 O 0.3137(3) 0.0010(6) 0.8843(5)
O18 O 0.1827(3) 0.0187(7) 0.8869(4)
O19 O 0.4045(2) 0.4104(6) 0.9070(5)
C36 C 0.3161(3) 0.0931(7) 0.8779(6)
C37 C 0.4348(3) 0.0772(7) 0.6236(6)
C38 C 0.1731(4) 0.0043(8) 0.8061(6)
C41 C 0.4017(4) 0.2391(8) 0.6822(6)
H28 H 0.4200 0.2718 0.6390
C47 C 0.3754(3) 0.0874(7) 0.7502(6)
H33 H 0.3763 0.0181 0.7537
O21 O 0.2309(3) 0.3802(6) 0.9397(4)
O22 O 0.2924(3) 0.1487(5) 0.9307(5)
C51 C 0.3644(3) 0.4554(7) 0.8828(6)
C52 C 0.2081(3) 0.4289(8) 0.8776(5)
O23 O 0.0485(3) 0.3769(7) 0.5714(5)
O24 O 0.0710(3) 0.5203(7) 0.6288(5)
C53 C 0.3454(3) 0.2460(7) 0.8044(6)
H36 H 0.3255 0.2824 0.8429
C54 C 0.3470(3) 0.1414(7) 0.8091(5)
C55 C 0.1639(4) 0.2236(8) 0.7193(6)
C56 C 0.1788(3) 0.3747(8) 0.8044(5)
C57 C 0.3742(4) 0.2946(7) 0.7412(6)
O25 O 0.3767(3) 0.3965(5) 0.7305(5)
O26 O 0.1726(3) 0.1284(6) 0.6904(5)
C58 C 0.3467(4) 0.4589(8) 0.7861(6)
H37 H 0.3100 0.4390 0.7799
C59 C 0.1156(3) 0.3736(8) 0.6822(6)
C60 C 0.1897(3) 0.2734(8) 0.7902(6)
H38 H 0.2137 0.2397 0.8274
O27 O 0.4583(3) 0.1270(7) 0.5657(4)
C61 C 0.1254(4) 0.2764(8) 0.6655(6)
H39 H 0.1073 0.2439 0.6193
C62 C 0.0758(4) 0.4271(12) 0.6233(6)
C63 C 0.1438(3) 0.4252(9) 0.7512(5)
H40 H 0.1383 0.4931 0.7599
H43 H 0.2503 0.0277 0.6382
C66 C 0.4028(3) 0.1360(8) 0.6858(6)
O31 O 0.2098(3) 0.5235(5) 0.8740(5)
C67 C 0.2054(4) 0.0626(9) 0.7402(6)
H45 H 0.2327 0.1010 0.7727
C68 C 0.3524(6) 0.5649(10) 0.7502(9)
H46 H 0.3330 0.6104 0.7850
H47 H 0.3886 0.5835 0.7533
H48 H 0.3392 0.5673 0.6897
O32 O 0.3362(3) 0.4991(8) 0.9357(5)
Cd7_2 Cd 1.0000 0.49342(6) 0.5000
Cd12 Cd 0.26136(2) 0.54973(5) 0.99770(4)
Cd13 Cd 0.73864(2) 0.54973(5) 0.00230(4)
N9 N 0.9415(3) 0.0531(6) 0.0895(6)
N10 N 0.0585(3) 0.0531(6) 0.9105(6)
O39 O 0.4290(3) 0.0203(7) 0.3712(5)
O40 O 0.5710(3) 0.0203(7) 0.6288(5)
H56 H 0.821322 0.22667 0.0334982
H60 H 0.178678 0.22667 0.966502
Cd3 Cd 0.76136(2) 0.04973(5) 0.99770(4)
O14 O 0.8026(3) 0.2062(6) 0.9774(5)
Cd11 Cd 0.61228(2) 0.42039(4) 0.93600(4)
O42 O 0.7098(3) 0.0235(5) 0.8740(5)
H57 H 0.827891 0.20027 0.929966
O33 O 0.0955(2) 0.9104(6) 0.0930(5)
O35 O 0.2691(3) 0.8802(6) 0.0603(4)
O43 O 0.1638(3) 0.9991(8) 0.0643(5)
Cd1 Cd 0.5000 0.99342(6) 0.5000
Cd2 Cd 0.88772(2) 0.92039(4) 0.06400(4)
C1 C 0.9937(4) 0.0593(9) 0.1155(10)
N1 N 0.9626(3) 0.6275(6) 0.1038(5)
O4 O 0.5619(3) 0.9864(6) 0.3703(5)
C5 C 0.9909(4) 0.7808(7) 0.1087(7)
N2 N 0.9391(3) 0.7848(6) 0.0909(6)
N3 N 0.9631(3) 0.2109(6) 0.1064(6)
C6 C 0.9296(3) 0.3666(7) 0.0434(7)
H3 H 0.9099 0.3311 0.0009
C8 C 0.9601(3) 0.5222(6) 0.1049(6)
C10 C 0.9220(3) 0.6921(7) 0.0866(7)
H6 H 0.8876 0.6734 0.0736
C11 C 0.9893(4) 0.4730(7) 0.1701(7)
C12 C 0.9242(3) 0.1454(7) 0.0837(7)
H8 H 0.8902 0.1634 0.0666
C14 C 0.9601(3) 0.3168(6) 0.1072(6)
C15 C 0.9894(4) 0.3686(7) 0.1715(7)
C16 C 0.9290(3) 0.4705(7) 0.0436(7)
H11 H 0.9077 0.5050 0.0026
O12 O 0.8181(3) 0.8038(6) 0.0548(6)
O13 O 0.8620(3) 0.9479(7) 0.2209(5)
C30 C 0.7699(6) 0.9913(14) 0.3208(10)
H17 H 0.7475 0.9465 0.2870
H18 H 0.7966 0.9538 0.3527
Cd4 Cd 0.11228(2) 0.92039(4) 0.93600(4)
C35 C 0.0063(4) 0.0593(9) 0.8845(10)
N5 N 0.0374(3) 0.6275(6) 0.8962(5)
O20 O 0.4381(3) 0.9864(6) 0.6297(5)
C39 C 0.0091(4) 0.7808(7) 0.8913(7)
N6 N 0.0609(3) 0.7848(6) 0.9091(6)
N7 N 0.0369(3) 0.2109(6) 0.8936(6)
C40 C 0.0704(3) 0.3666(7) 0.9566(7)
H27 H 0.0901 0.3311 0.9991
C42 C 0.0399(3) 0.5222(6) 0.8951(6)
C44 C 0.0780(3) 0.6921(7) 0.9134(7)
H30 H 0.1124 0.6734 0.9264
C45 C 0.0107(4) 0.4730(7) 0.8299(7)
C46 C 0.0758(3) 0.1454(7) 0.9163(7)
H32 H 0.1098 0.1634 0.9334
C48 C 0.0399(3) 0.3168(6) 0.8928(6)
C49 C 0.0106(4) 0.3686(7) 0.8285(7)
C50 C 0.0710(3) 0.4705(7) 0.9564(7)
H35 H 0.0923 0.5050 0.9974
O28 O 0.1819(3) 0.8038(6) 0.9452(6)
O29 O 0.1380(3) 0.9479(7) 0.7791(5)
C64 C 0.2301(6) 0.9913(14) 0.6792(10)
H41 H 0.2525 0.9465 0.7130
H42 H 0.2034 0.9538 0.6473
O37 O 0.4515(3) 0.8769(7) 0.4286(5)
O38 O 0.5485(3) 0.8769(7) 0.5714(5)
H58 H 0.790035 0.829103 0.0131381
H59 H 0.831067 0.738811 0.0330951
H62 H 0.209965 0.829103 0.986862
H63 H 0.168933 0.738811 0.966905
O34 O 0.9045(2) 0.9104(6) 0.9070(5)
O36 O 0.7309(3) 0.8802(6) 0.9397(4)
O44 O 0.8362(3) 0.9991(8) 0.9357(5)
C34_2 C 0.1476(6) 0.0649(10) 0.2498(9)
H22_2 H 0.1670 0.1104 0.2150
H23_2 H 0.1114 0.0835 0.2467
H24_2 H 0.1608 0.0673 0.3103
O1_2 O 0.1863(3) 0.5010(6) 0.1157(5)
N1_2 N 0.4626(3) 0.1275(6) 0.1038(5)
O2_2 O 0.3173(3) 0.5187(7) 0.1131(4)
O4_2 O 0.0619(3) 0.4864(6) 0.3703(5)
C2_2 C 0.1839(3) 0.5931(7) 0.1221(6)
C3_2 C 0.0652(3) 0.5772(7) 0.3764(6)
C4_2 C 0.3269(4) 0.5043(8) 0.1939(6)
C5_2 C 0.4909(4) 0.2808(7) 0.1087(7)
H2 H 0.5129 0.3360 0.1130
N2_2 N 0.4391(3) 0.2848(6) 0.0909(6)
C7_2 C 0.0983(4) 0.7391(8) 0.3178(6)
H4_2 H 0.0800 0.7718 0.3610
C8_2 C 0.4601(3) 0.0222(6) 0.1049(6)
C9 C 0.5064(3) 0.1850(8) 0.1193(8)
H5 H 0.5400 0.1625 0.1342
C10_2 C 0.4220(3) 0.1921(7) 0.0866(7)
H6_2 H 0.3876 0.1734 0.0736
H7 H 0.5088 0.0088 0.2127
C13_2 C 0.1246(3) 0.5874(7) 0.2498(6)
H9_2 H 0.1237 0.5181 0.2463
O6_2 O 0.2076(3) 0.6487(5) 0.0693(5)
H11_2 H 0.4077 0.0050 0.0026
C17_2 C 0.1356(3) 0.9554(7) 0.1172(6)
C18_2 C 0.2919(3) 0.9289(8) 0.1224(5)
C19_2 C 0.1546(3) 0.7460(7) 0.1956(6)
H12_2 H 0.1745 0.7824 0.1571
C20_2 C 0.1530(3) 0.6414(7) 0.1909(5)
C21_2 C 0.3361(4) 0.7236(8) 0.2807(6)
C22_2 C 0.3212(3) 0.8747(8) 0.1956(5)
C23_2 C 0.1258(4) 0.7946(7) 0.2588(6)
O9_2 O 0.1233(3) 0.8965(5) 0.2695(5)
O10_2 O 0.3274(3) 0.6284(6) 0.3096(5)
C24_2 C 0.1533(4) 0.9589(8) 0.2139(6)
H13_2 H 0.1900 0.9390 0.2201
C25_2 C 0.3844(3) 0.8736(8) 0.3178(6)
C26_2 C 0.3103(3) 0.7734(8) 0.2098(6)
H14_2 H 0.2863 0.7397 0.1726
O11_2 O 0.0417(3) 0.6270(7) 0.4343(4)
C27_2 C 0.3746(4) 0.7764(8) 0.3345(6)
H15_2 H 0.3927 0.7439 0.3807
O12_2 O 0.3181(3) 0.3038(6) 0.0548(6)
C28_2 C 0.4242(4) 0.9271(12) 0.3767(6)
C29_2 C 0.3562(3) 0.9252(9) 0.2488(5)
H16_2 H 0.3617 0.9931 0.2401
O13_2 O 0.3620(3) 0.4479(7) 0.2209(5)
C30_2 C 0.2699(6) 0.4913(14) 0.3208(10)
H17_2 H 0.2475 0.4465 0.2870
H18_2 H 0.2966 0.4538 0.3527
H19_2 H 0.2497 0.5277 0.3618
C32_2 C 0.0972(3) 0.6360(8) 0.3142(6)
C33_2 C 0.2946(4) 0.5626(9) 0.2598(6)
H21_2 H 0.2673 0.6010 0.2273
N9_2 N 0.4415(3) 0.5531(6) 0.0895(6)
H56_2 H 0.321322 0.72667 0.0334982
H58_2 H 0.290035 0.329103 0.0131381
H59_2 H 0.331067 0.238811 0.0330951
O14_2 O 0.3026(3) 0.7062(6) 0.9774(5)
H57_2 H 0.327891 0.70027 0.929966
C1_2 C 0.4937(4) 0.5593(9) 0.1155(10)
H1 H 0.5161 0.5053 0.1254
N3_2 N 0.4631(3) 0.7109(6) 0.1064(6)
C6_2 C 0.4296(3) 0.8666(7) 0.0434(7)
H3_2 H 0.4099 0.8311 0.0009
C11_2 C 0.4893(4) 0.9730(7) 0.1701(7)
C12_2 C 0.4242(3) 0.6454(7) 0.0837(7)
H8_2 H 0.3902 0.6634 0.0666
C14_2 C 0.4601(3) 0.8168(6) 0.1072(6)
C15_2 C 0.4894(4) 0.8686(7) 0.1715(7)
H10 H 0.5089 0.8342 0.2150
C16_2 C 0.4290(3) 0.9705(7) 0.0436(7)
C31 C 0.5071(4) 0.6558(8) 0.1241(11)
H20 H 0.5402 0.6805 0.1393
C68_2 C 0.8524(6) 0.0649(10) 0.7502(9)
H46_2 H 0.8330 0.1104 0.7850
H47_2 H 0.8886 0.0835 0.7533
H48_2 H 0.8392 0.0673 0.6897
O30_2 O 0.6974(3) 0.7062(6) 0.0226(5)
H61_2 H 0.672109 0.70027 0.0700339
O17_2 O 0.8137(3) 0.5010(6) 0.8843(5)
N5_2 N 0.5374(3) 0.1275(6) 0.8962(5)
O18_2 O 0.6827(3) 0.5187(7) 0.8869(4)
O20_2 O 0.9381(3) 0.4864(6) 0.6297(5)
C36_2 C 0.8161(3) 0.5931(7) 0.8779(6)
C37_2 C 0.9348(3) 0.5772(7) 0.6236(6)
C38_2 C 0.6731(4) 0.5043(8) 0.8061(6)
C39_2 C 0.5091(4) 0.2808(7) 0.8913(7)
H26 H 0.4871 0.3360 0.8870
N6_2 N 0.5609(3) 0.2848(6) 0.9091(6)
C41_2 C 0.9017(4) 0.7391(8) 0.6822(6)
H28_2 H 0.9200 0.7718 0.6390
C42_2 C 0.5399(3) 0.0222(6) 0.8951(6)
C43 C 0.4936(3) 0.1850(8) 0.8807(8)
H29 H 0.4600 0.1625 0.8658
C44_2 C 0.5780(3) 0.1921(7) 0.9134(7)
H30_2 H 0.6124 0.1734 0.9264
H31 H 0.4912 0.0088 0.7873
C47_2 C 0.8754(3) 0.5874(7) 0.7502(6)
H33_2 H 0.8763 0.5181 0.7537
O22_2 O 0.7924(3) 0.6487(5) 0.9307(5)
H35_2 H 0.5923 0.0050 0.9974
C51_2 C 0.8644(3) 0.9554(7) 0.8828(6)
C52_2 C 0.7081(3) 0.9289(8) 0.8776(5)
C53_2 C 0.8454(3) 0.7460(7) 0.8044(6)
H36_2 H 0.8255 0.7824 0.8429
C54_2 C 0.8470(3) 0.6414(7) 0.8091(5)
C55_2 C 0.6639(4) 0.7236(8) 0.7193(6)
C56_2 C 0.6788(3) 0.8747(8) 0.8044(5)
C57_2 C 0.8742(4) 0.7946(7) 0.7412(6)
O25_2 O 0.8767(3) 0.8965(5) 0.7305(5)
O26_2 O 0.6726(3) 0.6284(6) 0.6904(5)
C58_2 C 0.8467(4) 0.9589(8) 0.7861(6)
H37_2 H 0.8100 0.9390 0.7799
C59_2 C 0.6156(3) 0.8736(8) 0.6822(6)
C60_2 C 0.6897(3) 0.7734(8) 0.7902(6)
H38_2 H 0.7137 0.7397 0.8274
O27_2 O 0.9583(3) 0.6270(7) 0.5657(4)
C61_2 C 0.6254(4) 0.7764(8) 0.6655(6)
H39_2 H 0.6073 0.7439 0.6193
O28_2 O 0.6819(3) 0.3038(6) 0.9452(6)
C62_2 C 0.5758(4) 0.9271(12) 0.6233(6)
C63_2 C 0.6438(3) 0.9252(9) 0.7512(5)
H40_2 H 0.6383 0.9931 0.7599
O29_2 O 0.6380(3) 0.4479(7) 0.7791(5)
C64_2 C 0.7301(6) 0.4913(14) 0.6792(10)
H41_2 H 0.7525 0.4465 0.7130
H42_2 H 0.7034 0.4538 0.6473
H43_2 H 0.7503 0.5277 0.6382
C66_2 C 0.9028(3) 0.6360(8) 0.6858(6)
C67_2 C 0.7054(4) 0.5626(9) 0.7402(6)
H45_2 H 0.7327 0.6010 0.7727
N10_2 N 0.5585(3) 0.5531(6) 0.9105(6)
H60_2 H 0.678678 0.72667 0.966502
H62_2 H 0.709965 0.329103 0.986862
H63_2 H 0.668933 0.238811 0.966905
C35_2 C 0.5063(4) 0.5593(9) 0.8845(10)
H25 H 0.4839 0.5053 0.8746
N7_2 N 0.5369(3) 0.7109(6) 0.8936(6)
C40_2 C 0.5704(3) 0.8666(7) 0.9566(7)
H27_2 H 0.5901 0.8311 0.9991
C45_2 C 0.5107(4) 0.9730(7) 0.8299(7)
C46_2 C 0.5758(3) 0.6454(7) 0.9163(7)
H32_2 H 0.6098 0.6634 0.9334
C48_2 C 0.5399(3) 0.8168(6) 0.8928(6)
C49_2 C 0.5106(4) 0.8686(7) 0.8285(7)
H34 H 0.4911 0.8342 0.7850
C50_2 C 0.5710(3) 0.9705(7) 0.9564(7)
C65 C 0.4929(4) 0.6558(8) 0.8759(11)
H44 H 0.4598 0.6805 0.8607
H1_2 H 0.0161 0.0053 0.1254
H2_2 H 0.0129 0.8360 0.1130
C9_2 C 0.0064(3) 0.6850(8) 0.1193(8)
H5_2 H 0.0400 0.6625 0.1342
H7_2 H 0.0088 0.5088 0.2127
H10_2 H 0.0089 0.3342 0.2150
C31_2 C 0.0071(4) 0.1558(8) 0.1241(11)
H20_2 H 0.0402 0.1805 0.1393
H25_2 H 0.9839 0.0053 0.8746
H26_2 H 0.9871 0.8360 0.8870
C43_2 C 0.9936(3) 0.6850(8) 0.8807(8)
H29_2 H 0.9600 0.6625 0.8658
H31_2 H 0.9912 0.5088 0.7873
H34_2 H 0.9911 0.3342 0.7850
C65_2 C 0.9929(4) 0.1558(8) 0.8759(11)
H44_2 H 0.9598 0.1805 0.8607
N11 N 0.5626(8) 0.2208(19) 0.5907(13)
H49 H 0.5402 0.2044 0.5492
C69 C 0.5542(14) 0.244(3) 0.691(2)
H50 H 0.5179 0.2369 0.7024
H51 H 0.5743 0.1976 0.7274
H52 H 0.5654 0.3107 0.7045
C70 C 0.6262(16) 0.237(5) 0.587(3)
H53 H 0.6367 0.2248 0.5277
H54 H 0.6350 0.3040 0.6038
H55 H 0.6439 0.1910 0.6268
H64 H 0.56836 0.147611 0.60566
N11_2 N 0.4374(8) 0.2208(19) 0.4093(13)
H49_2 H 0.4598 0.2044 0.4508
C69_2 C 0.4458(14) 0.244(3) 0.309(2)
H50_2 H 0.4821 0.2369 0.2976
H51_2 H 0.4257 0.1976 0.2726
H52_2 H 0.4346 0.3107 0.2955
C70_2 C 0.3738(16) 0.237(5) 0.413(3)
H53_2 H 0.3633 0.2248 0.4723
H54_2 H 0.3650 0.3040 0.3962
H55_2 H 0.3561 0.1910 0.3732
H64_2 H 0.43164 0.147611 0.39434
N11_3 N 0.0626(8) 0.7208(19) 0.5907(13)
H49_3 H 0.0402 0.7044 0.5492
C69_3 C 0.0542(14) 0.744(3) 0.691(2)
H50_3 H 0.0179 0.7369 0.7024
H51_3 H 0.0743 0.6976 0.7274
H52_3 H 0.0654 0.8107 0.7045
C70_3 C 0.1262(16) 0.737(5) 0.587(3)
H53_3 H 0.1367 0.7248 0.5277
H54_3 H 0.1350 0.8040 0.6038
H55_3 H 0.1439 0.6910 0.6268
H64_3 H 0.0683597 0.647611 0.60566
N11_4 N 0.9374(8) 0.7208(19) 0.4093(13)
H49_4 H 0.9598 0.7044 0.4508
C69_4 C 0.9458(14) 0.744(3) 0.309(2)
H50_4 H 0.9821 0.7369 0.2976
H51_4 H 0.9257 0.6976 0.2726
H52_4 H 0.9346 0.8107 0.2955
C70_4 C 0.8738(16) 0.737(5) 0.413(3)
H53_4 H 0.8633 0.7248 0.4723
H54_4 H 0.8650 0.8040 0.3962
H55_4 H 0.8561 0.6910 0.3732
H64_4 H 0.93164 0.647611 0.39434
loop_
_geom_bond_atom_site_label_1
_geom_bond_atom_site_label_2
_geom_bond_site_symmetry_1
_geom_bond_site_symmetry_2
O30 Cd5 1_555 1_555
O41 Cd5 1_555 1_555
O30 H61 1_555 1_555
O1 C2 1_555 1_555
O3 C17 1_555 1_555
C2 O6 1_555 1_555
C3 O11 1_555 1_555
C4 O2 1_555 1_555
C7 H4 1_555 1_555
C13 H9 1_555 1_555
O5 C18 1_555 1_555
C17 C24 1_555 1_555
C18 C22 1_555 1_555
O7 C28 1_555 1_555
O8 C28 1_555 1_555
C19 H12 1_555 1_555
C20 C2 1_555 1_555
C21 O10 1_555 1_555
C22 C26 1_555 1_555
C23 C7 1_555 1_555
O9 C23 1_555 1_555
O10 C33 1_555 1_555
C24 O9 1_555 1_555
H13 C24 1_555 1_555
C25 C27 1_555 1_555
C26 C21 1_555 1_555
H14 C26 1_555 1_555
C27 C21 1_555 1_555
H15 C27 1_555 1_555
C28 C25 1_555 1_555
C29 C22 1_555 1_555
H16 C29 1_555 1_555
C32 C3 1_555 1_555
O15 C18 1_555 1_555
C33 C4 1_555 1_555
H21 C33 1_555 1_555
C34 C24 1_555 1_555
H22 C34 1_555 1_555
H23 C34 1_555 1_555
H24 C34 1_555 1_555
O16 C17 1_555 1_555
O17 C36 1_555 1_555
O19 C51 1_555 1_555
C36 O22 1_555 1_555
C38 O18 1_555 1_555
C41 H28 1_555 1_555
C47 H33 1_555 1_555
O21 C52 1_555 1_555
C51 C58 1_555 1_555
C52 C56 1_555 1_555
O23 C62 1_555 1_555
O24 C62 1_555 1_555
C53 H36 1_555 1_555
C54 C36 1_555 1_555
C55 O26 1_555 1_555
C56 C60 1_555 1_555
C57 C41 1_555 1_555
O25 C57 1_555 1_555
O26 C67 1_555 1_555
C58 O25 1_555 1_555
H37 C58 1_555 1_555
C59 C61 1_555 1_555
C60 C55 1_555 1_555
H38 C60 1_555 1_555
C61 C55 1_555 1_555
H39 C61 1_555 1_555
C62 C59 1_555 1_555
C63 C56 1_555 1_555
H40 C63 1_555 1_555
C66 C37 1_555 1_555
O31 C52 1_555 1_555
C67 C38 1_555 1_555
H45 C67 1_555 1_555
C68 C58 1_555 1_555
H46 C68 1_555 1_555
H47 C68 1_555 1_555
H48 C68 1_555 1_555
O32 C51 1_555 1_555
Cd7 O23 1_555 1_555
Cd7_2 O7 1_555 1_555
Cd12 O21 1_555 1_555
Cd13 O5 1_555 1_555
C7 C32 1_555 1_555
C13 C20 1_555 1_555
C13 C32 1_555 1_555
O8 Cd7_2 1_555 1_555
C19 C20 1_555 1_555
C19 C23 1_555 1_555
C25 C29 1_555 1_555
O15 Cd13 1_555 1_555
O16 Cd13 1_555 1_555
C37 O27 1_555 1_555
C41 C66 1_555 1_555
C47 C54 1_555 1_555
C47 C66 1_555 1_555
O24 Cd7 1_555 1_555
C53 C54 1_555 1_555
C53 C57 1_555 1_555
C59 C63 1_555 1_555
O31 Cd12 1_555 1_555
O32 Cd12 1_555 1_555
O14 Cd3 1_555 1_555
O42 Cd3 1_555 1_555
O14 H57 1_555 1_555
Cd1 O4 1_555 1_555
N1 C8 1_555 1_555
N2 Cd2 1_555 1_555
N3 C12 1_555 1_555
C6 H3 1_555 1_555
C8 C11 1_555 1_555
N9 C1 1_555 1_555
C10 N1 1_555 1_555
H6 C10 1_555 1_555
C12 N9 1_555 1_555
H8 C12 1_555 1_555
C14 N3 1_555 1_555
C15 C11 1_555 1_555
C16 C6 1_555 1_555
H11 C16 1_555 1_555
O12 Cd2 1_555 1_555
O13 Cd2 1_555 1_555
C30 H17 1_555 1_555
H18 C30 1_555 1_555
N5 C42 1_555 1_555
O20 Cd1 1_555 1_555
N6 Cd4 1_555 1_555
N7 C46 1_555 1_555
C40 H27 1_555 1_555
C42 C45 1_555 1_555
N10 C35 1_555 1_555
C44 N5 1_555 1_555
H30 C44 1_555 1_555
C46 N10 1_555 1_555
H32 C46 1_555 1_555
C48 N7 1_555 1_555
C49 C45 1_555 1_555
C50 C40 1_555 1_555
H35 C50 1_555 1_555
O28 Cd4 1_555 1_555
O29 Cd4 1_555 1_555
C64 H41 1_555 1_555
H42 C64 1_555 1_555
O37 Cd1 1_555 1_555
O38 Cd1 1_555 1_555
C5 N2 1_555 1_555
N2 C10 1_555 1_555
C6 C14 1_555 1_555
C8 C16 1_555 1_555
C14 C15 1_555 1_555
C39 N6 1_555 1_555
N6 C44 1_555 1_555
C40 C48 1_555 1_555
C42 C50 1_555 1_555
C48 C49 1_555 1_555
O12 H58 1_555 1_555
O12 H59 1_555 1_555
O28 H62 1_555 1_555
O28 H63 1_555 1_555
H22_2 C34_2 1_555 1_555
H23_2 C34_2 1_555 1_555
H24_2 C34_2 1_555 1_555
Cd7 O4_2 1_555 1_555
Cd10 O2_2 1_555 1_555
O1_2 C2_2 1_555 1_555
N1_2 C8_2 1_555 1_555
O33 C17_2 1_555 1_555
O4_2 C3_2 1_555 1_555
C2_2 O6_2 1_555 1_555
C3_2 O11_2 1_555 1_555
C4_2 O2_2 1_555 1_555
C5_2 H2 1_555 1_555
N2_2 Cd10 1_555 1_555
C7_2 H4_2 1_555 1_555
C9 N1_2 1_555 1_555
H5 C9 1_555 1_555
C10_2 N1_2 1_555 1_555
H6_2 C10_2 1_555 1_555
C13_2 H9_2 1_555 1_555
O35 C18_2 1_555 1_555
C17_2 C24_2 1_555 1_555
C18_2 C22_2 1_555 1_555
O37 C28_2 1_555 1_555
C19_2 H12_2 1_555 1_555
C20_2 C2_2 1_555 1_555
C21_2 O10_2 1_555 1_555
C22_2 C26_2 1_555 1_555
C23_2 C7_2 1_555 1_555
O9_2 C23_2 1_555 1_555
O10_2 C33_2 1_555 1_555
C24_2 O9_2 1_555 1_555
H13_2 C24_2 1_555 1_555
C25_2 C27_2 1_555 1_555
C26_2 C21_2 1_555 1_555
H14_2 C26_2 1_555 1_555
O11_2 Cd7 1_555 1_555
C27_2 C21_2 1_555 1_555
H15_2 C27_2 1_555 1_555
O12_2 Cd10 1_555 1_555
C28_2 C25_2 1_555 1_555
C29_2 C22_2 1_555 1_555
H16_2 C29_2 1_555 1_555
O13_2 Cd10 1_555 1_555
C30_2 H17_2 1_555 1_555
H18_2 C30_2 1_555 1_555
H19_2 C30_2 1_555 1_555
C32_2 C3_2 1_555 1_555
C33_2 C4_2 1_555 1_555
H21_2 C33_2 1_555 1_555
O43 C17_2 1_555 1_555
N9_2 Cd10 1_555 1_555
C4_2 O13_2 1_555 1_555
C5_2 N2_2 1_555 1_555
C5_2 C9 1_555 1_555
N2_2 C10_2 1_555 1_555
C7_2 C32_2 1_555 1_555
C13_2 C20_2 1_555 1_555
C13_2 C32_2 1_555 1_555
C19_2 C20_2 1_555 1_555
C19_2 C23_2 1_555 1_555
C25_2 C29_2 1_555 1_555
C30_2 C33_2 1_555 1_555
O12_2 H58_2 1_555 1_555
O12_2 H59_2 1_555 1_555
O14_2 Cd12 1_555 1_555
O14_2 H57_2 1_555 1_555
C1_2 H1 1_555 1_555
N3_2 C12_2 1_555 1_555
C6_2 H3_2 1_555 1_555
N9_2 C1_2 1_555 1_555
C12_2 N9_2 1_555 1_555
H8_2 C12_2 1_555 1_555
C14_2 N3_2 1_555 1_555
C15_2 C11_2 1_555 1_555
H10 C15_2 1_555 1_555
C16_2 C6_2 1_555 1_555
C31 C1_2 1_555 1_555
H20 C31 1_555 1_555
N3_2 C31 1_555 1_555
C6_2 C14_2 1_555 1_555
C14_2 C15_2 1_555 1_555
H46_2 C68_2 1_555 1_555
H47_2 C68_2 1_555 1_555
H48_2 C68_2 1_555 1_555
O30_2 Cd13 1_555 1_555
O30_2 H61_2 1_555 1_555
Cd11 O18_2 1_555 1_555
O17_2 C36_2 1_555 1_555
N5_2 C42_2 1_555 1_555
O34 C51_2 1_555 1_555
O20_2 Cd7_2 1_555 1_555
C36_2 O22_2 1_555 1_555
C37_2 O20_2 1_555 1_555
C38_2 O18_2 1_555 1_555
C39_2 H26 1_555 1_555
N6_2 Cd11 1_555 1_555
C41_2 H28_2 1_555 1_555
C43 N5_2 1_555 1_555
H29 C43 1_555 1_555
C44_2 N5_2 1_555 1_555
H30_2 C44_2 1_555 1_555
C47_2 H33_2 1_555 1_555
O36 C52_2 1_555 1_555
C51_2 C58_2 1_555 1_555
C52_2 C56_2 1_555 1_555
O38 C62_2 1_555 1_555
C53_2 H36_2 1_555 1_555
C54_2 C36_2 1_555 1_555
C55_2 O26_2 1_555 1_555
C56_2 C60_2 1_555 1_555
C57_2 C41_2 1_555 1_555
O25_2 C57_2 1_555 1_555
O26_2 C67_2 1_555 1_555
C58_2 O25_2 1_555 1_555
H37_2 C58_2 1_555 1_555
C59_2 C61_2 1_555 1_555
C60_2 C55_2 1_555 1_555
H38_2 C60_2 1_555 1_555
O27_2 Cd7_2 1_555 1_555
C61_2 C55_2 1_555 1_555
H39_2 C61_2 1_555 1_555
O28_2 Cd11 1_555 1_555
C62_2 C59_2 1_555 1_555
C63_2 C56_2 1_555 1_555
H40_2 C63_2 1_555 1_555
O29_2 Cd11 1_555 1_555
C64_2 H41_2 1_555 1_555
H42_2 C64_2 1_555 1_555
H43_2 C64_2 1_555 1_555
C66_2 C37_2 1_555 1_555
C67_2 C38_2 1_555 1_555
H45_2 C67_2 1_555 1_555
O44 C51_2 1_555 1_555
N10_2 Cd11 1_555 1_555
C37_2 O27_2 1_555 1_555
C38_2 O29_2 1_555 1_555
C39_2 N6_2 1_555 1_555
C39_2 C43 1_555 1_555
N6_2 C44_2 1_555 1_555
C41_2 C66_2 1_555 1_555
C47_2 C54_2 1_555 1_555
C47_2 C66_2 1_555 1_555
C53_2 C54_2 1_555 1_555
C53_2 C57_2 1_555 1_555
C59_2 C63_2 1_555 1_555
C64_2 C67_2 1_555 1_555
O28_2 H62_2 1_555 1_555
O28_2 H63_2 1_555 1_555
C35_2 H25 1_555 1_555
N7_2 C46_2 1_555 1_555
C40_2 H27_2 1_555 1_555
N10_2 C35_2 1_555 1_555
C46_2 N10_2 1_555 1_555
H32_2 C46_2 1_555 1_555
C48_2 N7_2 1_555 1_555
C49_2 C45_2 1_555 1_555
H34 C49_2 1_555 1_555
C50_2 C40_2 1_555 1_555
C65 C35_2 1_555 1_555
H44 C65 1_555 1_555
N7_2 C65 1_555 1_555
C40_2 C48_2 1_555 1_555
C48_2 C49_2 1_555 1_555
H5_2 C9_2 1_555 1_555
H20_2 C31_2 1_555 1_555
H29_2 C43_2 1_555 1_555
H44_2 C65_2 1_555 1_555
N11 H49 1_555 1_555
C69 N11 1_555 1_555
H50 C69 1_555 1_555
H51 C69 1_555 1_555
H52 C69 1_555 1_555
C70 N11 1_555 1_555
H53 C70 1_555 1_555
H54 C70 1_555 1_555
H55 C70 1_555 1_555
N11 H64 1_555 1_555
N11_2 H49_2 1_555 1_555
C69_2 N11_2 1_555 1_555
H50_2 C69_2 1_555 1_555
H51_2 C69_2 1_555 1_555
H52_2 C69_2 1_555 1_555
C70_2 N11_2 1_555 1_555
H53_2 C70_2 1_555 1_555
H54_2 C70_2 1_555 1_555
H55_2 C70_2 1_555 1_555
N11_2 H64_2 1_555 1_555
N11_3 H49_3 1_555 1_555
C69_3 N11_3 1_555 1_555
H50_3 C69_3 1_555 1_555
H51_3 C69_3 1_555 1_555
H52_3 C69_3 1_555 1_555
C70_3 N11_3 1_555 1_555
H53_3 C70_3 1_555 1_555
H54_3 C70_3 1_555 1_555
H55_3 C70_3 1_555 1_555
N11_3 H64_3 1_555 1_555
N11_4 H49_4 1_555 1_555
C69_4 N11_4 1_555 1_555
H50_4 C69_4 1_555 1_555
H51_4 C69_4 1_555 1_555
H52_4 C69_4 1_555 1_555
C70_4 N11_4 1_555 1_555
H53_4 C70_4 1_555 1_555
H54_4 C70_4 1_555 1_555
H55_4 C70_4 1_555 1_555
N11_4 H64_4 1_555 1_555

#END
