
###############################################################################
#
# This file contains modified crystal structure data generated from the
# MOF subset of the Cambridge Structural Database (CSD) v543 
# hosted by the Cambridge Crystallographic Data Centre (CCDC).
#
# This work is licensed under the Creative Commons
# Attribution-NonCommercial-ShareAlike 4.0 International License.
# To view a copy of this license, visit
# http://creativecommons.org/licenses/by-nc-sa/4.0/
# or send a letter to
# Creative Commons, PO Box 1866, Mountain View, CA 94042, USA.
#
# CIF created using the CSD Python API on 29 September 2022
# The structure has been converted into the P1 space group
# The structure has a 3D framework
# The original CSD entry OQUCUA is in the monoclinic crystal system
# The original CSD entry OQUCUA is in a Sohncke space group
# The framework has been calculated to contain at least 10.0% void space
# The void calculation uses a probe of radius 1.32A, grid spacing 0.4
# The framework is charged, counterions have been retained in the structure
# H atom positions have been added when not included in the experimental data
#
###############################################################################

data_OQUCUA
_chemical_formula_moiety         '(C144 H144 Cd14 N20 O60)n'
_symmetry_cell_setting           triclinic
_symmetry_space_group_name_H-M   'P 1'
_symmetry_Int_Tables_number      1
_space_group_name_Hall           'P 1'
loop_
_symmetry_equiv_pos_site_id
_symmetry_equiv_pos_as_xyz
1 x,y,z
_cell_length_a                   25.7374(4)
_cell_length_b                   13.3941(2)
_cell_length_c                   15.1777(3)
_cell_angle_alpha                90
_cell_angle_beta                 92.727(2)
_cell_angle_gamma                90
_cell_volume                     5226.27
loop_
_atom_site_label
_atom_site_type_symbol
_atom_site_fract_x
_atom_site_fract_y
_atom_site_fract_z
O13 O 0.6362(3) 0.0059(5) 0.2780(4)
H5 H 0.7508 0.0137 0.2086
H7 H 0.7009 0.0036 0.1459
Cd13 Cd 0.38754(2) 0.03807(2) 0.56411(3)
Cd15 Cd 0.61246(2) 0.03807(2) 0.43589(3)
O31 O 0.3638(3) 0.0059(5) 0.7220(4)
H46 H 0.2492 0.0137 0.7914
H48 H 0.2991 0.0036 0.8541
Cd1 Cd 0.5000 0.46509(4) -0.0000
O1 O 0.4393(2) 0.4747(4) 0.1319(3)
O2 O 0.4575(2) 0.3345(4) 0.0657(3)
O3 O 0.5703(2) 0.4378(4) 0.1312(4)
O4 O 0.5487(2) 0.5832(5) 0.0705(3)
C1 C 0.5754(3) 0.5299(6) 0.1248(4)
C2 C 0.6150(2) 0.5839(5) 0.1837(4)
C3 C 0.6418(2) 0.5332(5) 0.2522(3)
C4 C 0.6260(3) 0.6826(5) 0.1669(4)
C5 C 0.6781(2) 0.5861(5) 0.3054(3)
H1 H 0.6356 0.4658 0.2622
C6 C 0.6634(3) 0.7345(5) 0.2186(3)
H2 H 0.6083 0.7152 0.1205
C7 C 0.7072(2) 0.5305(5) 0.3794(4)
C8 C 0.6884(2) 0.6856(5) 0.2902(3)
O5 O 0.6724(2) 0.8299(4) 0.1902(3)
O6 O 0.72946(19) 0.5792(4) 0.4401(3)
O7 O 0.7086(2) 0.4372(3) 0.3764(3)
H3 H 0.7120 0.7200 0.3273
C9 C 0.7052(3) 0.8958(5) 0.2411(4)
C10 C 0.6719(3) 0.9520(5) 0.3046(4)
H4 H 0.7327 0.8584 0.2735
C11 C 0.7283(5) 0.9675(9) 0.1769(7)
O9 O 0.3137(2) 0.4592(4) 0.3843(4)
O10 O 0.68186(19) 0.9395(4) 0.3868(3)
O11 O 0.29138(19) 0.3108(3) 0.4283(3)
H6 H 0.7479 0.9309 0.1355
C12 C 0.3643(2) 0.0053(4) 0.3824(4)
O14 O 0.40446(18) 0.0482(4) 0.4084(3)
N1 N 0.4386(2) 0.1732(4) 0.5903(4)
O15 O 0.3190(2) 0.1568(4) 0.5573(4)
N2 N 0.4411(2) 0.9048(4) 0.5869(4)
C13 C 0.3482(3) 0.0003(5) 0.2857(4)
C14 C 0.4229(2) 0.2660(4) 0.5858(4)
C15 C 0.4915(3) 0.1767(5) 0.6099(5)
O16 O 0.3793(2) 0.0636(3) 0.2334(3)
H8 H 0.3118 0.0210 0.2779
C17 C 0.3163(2) 0.3674(4) 0.3790(4)
N3 N 0.46244(18) 0.3300(3) 0.6010(3)
H9 H 0.3886 0.2852 0.5736
C18 C 0.5065(2) 0.2728(5) 0.6171(5)
H10 H 0.5132 0.1215 0.6170
C19 C 0.3755(3) 0.1663(4) 0.2427(4)
C20 C 0.3468(2) 0.3172(4) 0.3101(3)
C21 C 0.4599(2) 0.4368(4) 0.6033(4)
H14 H 0.5400 0.2961 0.6303
C22 C 0.4038(2) 0.2216(5) 0.1852(3)
C23 C 0.3463(2) 0.2142(4) 0.3052(4)
C24 C 0.3758(2) 0.3727(4) 0.2518(3)
C25 C 0.4294(2) 0.4875(5) 0.5398(4)
C26 C 0.4891(3) 0.4863(4) 0.6680(4)
C27 C 0.4041(2) 0.3248(5) 0.1881(4)
H15 H 0.4230 0.1889 0.1437
H16 H 0.3266 0.1771 0.3433
H17 H 0.3762 0.4420 0.2556
C28 C 0.4294(3) 0.5909(5) 0.5404(4)
H18 H 0.4093 0.4525 0.4976
C29 C 0.4890(3) 0.5902(5) 0.6685(4)
H19 H 0.5086 0.4508 0.7106
C30 C 0.4355(2) 0.3821(5) 0.1252(4)
C31 C 0.4599(2) 0.6413(4) 0.6041(4)
H20 H 0.4093 0.6263 0.4985
H21 H 0.5083 0.6250 0.7117
N4 N 0.4626(2) 0.7473(4) 0.6037(4)
C32 C 0.5073(3) 0.8026(5) 0.6237(7)
C33 C 0.4239(2) 0.8125(4) 0.5814(5)
C34 C 0.4931(3) 0.8977(5) 0.6123(7)
H22 H 0.5400 0.7785 0.6412
H23 H 0.3900 0.7944 0.5645
H24 H 0.5153 0.9520 0.6204
O33 O 0.22946(19) 0.0792(4) 0.4401(3)
Cd7 Cd 0.73909(2) 0.91258(3) 0.50062(2)
Cd9 Cd 0.76091(2) 0.41258(3) 0.49938(2)
Cd11 Cd 0.23909(2) 0.41258(3) 0.50062(2)
H56 H 0.285464 0.122529 0.56639
H57 H 0.325345 0.20782 0.604048
Cd1_2 Cd 0.5000 0.46509(4) 1.0000
O17 O 0.5607(2) 0.4747(4) 0.8681(3)
O18 O 0.5425(2) 0.3345(4) 0.9343(3)
O19 O 0.6863(2) 0.4592(4) 0.6157(4)
O20 O 0.70862(19) 0.3108(3) 0.5717(3)
C35 C 0.6357(2) 0.0053(4) 0.6176(4)
O22 O 0.59554(18) 0.0482(4) 0.5916(3)
N5 N 0.5614(2) 0.1732(4) 0.4097(4)
O23 O 0.6810(2) 0.1568(4) 0.4427(4)
N6 N 0.5589(2) 0.9048(4) 0.4131(4)
C36 C 0.6518(3) 0.0003(5) 0.7143(4)
C37 C 0.5771(2) 0.2660(4) 0.4142(4)
C38 C 0.5085(3) 0.1767(5) 0.3901(5)
O24 O 0.6207(2) 0.0636(3) 0.7666(3)
H25 H 0.6882 0.0210 0.7221
C40 C 0.6837(2) 0.3674(4) 0.6210(4)
N7 N 0.53756(18) 0.3300(3) 0.3990(3)
H26 H 0.6114 0.2852 0.4264
C41 C 0.4935(2) 0.2728(5) 0.3829(5)
H27 H 0.4868 0.1215 0.3830
C42 C 0.6245(3) 0.1663(4) 0.7573(4)
C43 C 0.6532(2) 0.3172(4) 0.6899(3)
C44 C 0.5401(2) 0.4368(4) 0.3967(4)
H31 H 0.4600 0.2961 0.3697
C45 C 0.5962(2) 0.2216(5) 0.8148(3)
C46 C 0.6537(2) 0.2142(4) 0.6948(4)
C47 C 0.6242(2) 0.3727(4) 0.7482(3)
C48 C 0.5706(2) 0.4875(5) 0.4602(4)
C49 C 0.5109(3) 0.4863(4) 0.3320(4)
C50 C 0.5959(2) 0.3248(5) 0.8119(4)
H32 H 0.5770 0.1889 0.8563
H33 H 0.6734 0.1771 0.6567
H34 H 0.6238 0.4420 0.7444
C51 C 0.5706(3) 0.5909(5) 0.4596(4)
H35 H 0.5907 0.4525 0.5024
C52 C 0.5110(3) 0.5902(5) 0.3315(4)
H36 H 0.4914 0.4508 0.2894
C53 C 0.5645(2) 0.3821(5) 0.8748(4)
C54 C 0.5401(2) 0.6413(4) 0.3959(4)
H37 H 0.5907 0.6263 0.5015
H38 H 0.4917 0.6250 0.2883
N8 N 0.5374(2) 0.7473(4) 0.3963(4)
C55 C 0.4927(3) 0.8026(5) 0.3763(7)
C56 C 0.5761(2) 0.8125(4) 0.4186(5)
C57 C 0.5069(3) 0.8977(5) 0.3877(7)
H39 H 0.4600 0.7785 0.3588
H40 H 0.6100 0.7944 0.4355
H41 H 0.4847 0.9520 0.3796
O25 O 0.4297(2) 0.4378(4) 0.8688(4)
O26 O 0.4513(2) 0.5832(5) 0.9295(3)
C58 C 0.4246(3) 0.5299(6) 0.8752(4)
C59 C 0.3850(2) 0.5839(5) 0.8163(4)
C60 C 0.3582(2) 0.5332(5) 0.7478(3)
C61 C 0.3740(3) 0.6826(5) 0.8331(4)
C62 C 0.3219(2) 0.5861(5) 0.6946(3)
H42 H 0.3644 0.4658 0.7378
C63 C 0.3366(3) 0.7345(5) 0.7814(3)
H43 H 0.3917 0.7152 0.8795
C64 C 0.2928(2) 0.5305(5) 0.6206(4)
C65 C 0.3116(2) 0.6856(5) 0.7098(3)
O27 O 0.3276(2) 0.8299(4) 0.8098(3)
O28 O 0.27054(19) 0.5792(4) 0.5599(3)
O29 O 0.2914(2) 0.4372(3) 0.6236(3)
H44 H 0.2880 0.7200 0.6727
C66 C 0.2948(3) 0.8958(5) 0.7589(4)
C67 C 0.3281(3) 0.9520(5) 0.6954(4)
H45 H 0.2673 0.8584 0.7265
C68 C 0.2717(5) 0.9675(9) 0.8231(7)
O30 O 0.31814(19) 0.9395(4) 0.6132(3)
H47 H 0.2521 0.9309 0.8645
O34 O 0.77054(19) 0.0792(4) 0.5599(3)
Cd6 Cd 0.26091(2) 0.91258(3) 0.49938(2)
H60 H 0.714536 0.122529 0.43361
H61 H 0.674655 0.20782 0.395952
O8 O 0.3018(2) 0.7561(4) 0.4790(3)
O12 O 0.3356(2) 0.9603(5) 0.4342(4)
C16 C 0.3536(5) 0.8967(6) 0.2499(6)
H11 H 0.3414 0.8955 0.1891
H12 H 0.3333 0.8514 0.2832
H13 H 0.3895 0.8770 0.2545
O35 O 0.2086(2) 0.9372(3) 0.3764(3)
O38 O 0.1863(2) 0.9592(4) 0.6157(4)
O42 O 0.20862(19) 0.8108(3) 0.5717(3)
H58 H 0.336177 0.755429 0.511598
H59 H 0.279651 0.702056 0.501672
O21 O 0.6644(2) 0.9603(5) 0.5658(4)
C39 C 0.6464(5) 0.8967(6) 0.7501(6)
H28 H 0.6586 0.8955 0.8109
H29 H 0.6667 0.8514 0.7168
H30 H 0.6105 0.8770 0.7455
O32 O 0.6982(2) 0.7561(4) 0.5210(3)
O36 O 0.7914(2) 0.9372(3) 0.6236(3)
O37 O 0.8137(2) 0.9592(4) 0.3843(4)
O41 O 0.79138(19) 0.8108(3) 0.4283(3)
H62 H 0.663823 0.755429 0.488402
H63 H 0.720349 0.702056 0.498328
O4_2 O 0.0487(2) 0.0832(5) 0.0705(3)
C1_2 C 0.0754(3) 0.0299(6) 0.1248(4)
C2_2 C 0.1150(2) 0.0839(5) 0.1837(4)
C3_2 C 0.1418(2) 0.0332(5) 0.2522(3)
C4_2 C 0.1260(3) 0.1826(5) 0.1669(4)
C5_2 C 0.1781(2) 0.0861(5) 0.3054(3)
C6_2 C 0.1634(3) 0.2345(5) 0.2186(3)
H2_2 H 0.1083 0.2152 0.1205
C7_2 C 0.2072(2) 0.0305(5) 0.3794(4)
C8_2 C 0.1884(2) 0.1856(5) 0.2902(3)
O5_2 O 0.1724(2) 0.3299(4) 0.1902(3)
H3_2 H 0.2120 0.2200 0.3273
C9_2 C 0.2052(3) 0.3958(5) 0.2411(4)
C10_2 C 0.1719(3) 0.4520(5) 0.3046(4)
H4_2 H 0.2327 0.3584 0.2735
C11_2 C 0.2283(5) 0.4675(9) 0.1769(7)
O10_2 O 0.18186(19) 0.4395(4) 0.3868(3)
O13_2 O 0.1362(3) 0.5059(5) 0.2780(4)
H5_2 H 0.2508 0.5137 0.2086
H6_2 H 0.2479 0.4309 0.1355
H7_2 H 0.2009 0.5036 0.1459
H21_2 H 0.0083 0.1250 0.7117
C32_2 C 0.0073(3) 0.3026(5) 0.6237(7)
H22_2 H 0.0400 0.2785 0.6412
H24_2 H 0.0153 0.4520 0.6204
Cd15_2 Cd 0.11246(2) 0.53807(2) 0.43589(3)
N6_2 N 0.0589(2) 0.4048(4) 0.4131(4)
C51_2 C 0.0706(3) 0.0909(5) 0.4596(4)
C52_2 C 0.0110(3) 0.0902(5) 0.3315(4)
C54_2 C 0.0401(2) 0.1413(4) 0.3959(4)
H37_2 H 0.0907 0.1263 0.5015
N8_2 N 0.0374(2) 0.2473(4) 0.3963(4)
C56_2 C 0.0761(2) 0.3125(4) 0.4186(5)
C57_2 C 0.0069(3) 0.3977(5) 0.3877(7)
H40_2 H 0.1100 0.2944 0.4355
Cd1_3 Cd -0.0000 0.96509(4) -0.0000
O3_2 O 0.0703(2) 0.9378(4) 0.1312(4)
H1_2 H 0.1356 0.9658 0.2622
C18_2 C 0.0065(2) 0.7728(5) 0.6171(5)
H10_2 H 0.0132 0.6215 0.6170
H14_2 H 0.0400 0.7961 0.6303
H19_2 H 0.0086 0.9508 0.7106
Cd1_4 Cd -0.0000 0.96509(4) 1.0000
O17_2 O 0.0607(2) 0.9747(4) 0.8681(3)
O18_2 O 0.0425(2) 0.8345(4) 0.9343(3)
O21_2 O 0.1644(2) 0.4603(5) 0.5658(4)
C35_2 C 0.1357(2) 0.5053(4) 0.6176(4)
O22_2 O 0.09554(18) 0.5482(4) 0.5916(3)
N5_2 N 0.0614(2) 0.6732(4) 0.4097(4)
O23_2 O 0.1810(2) 0.6568(4) 0.4427(4)
C36_2 C 0.1518(3) 0.5003(5) 0.7143(4)
C37_2 C 0.0771(2) 0.7660(4) 0.4142(4)
C38_2 C 0.0085(3) 0.6767(5) 0.3901(5)
O24_2 O 0.1207(2) 0.5636(3) 0.7666(3)
H25_2 H 0.1882 0.5210 0.7221
C39_2 C 0.1464(5) 0.3967(6) 0.7501(6)
C40_2 C 0.1837(2) 0.8674(4) 0.6210(4)
N7_2 N 0.03756(18) 0.8300(3) 0.3990(3)
H26_2 H 0.1114 0.7852 0.4264
C42_2 C 0.1245(3) 0.6663(4) 0.7573(4)
H28_2 H 0.1586 0.3955 0.8109
H29_2 H 0.1667 0.3514 0.7168
H30_2 H 0.1105 0.3770 0.7455
C43_2 C 0.1532(2) 0.8172(4) 0.6899(3)
C44_2 C 0.0401(2) 0.9368(4) 0.3967(4)
C45_2 C 0.0962(2) 0.7216(5) 0.8148(3)
C46_2 C 0.1537(2) 0.7142(4) 0.6948(4)
C47_2 C 0.1242(2) 0.8727(4) 0.7482(3)
C48_2 C 0.0706(2) 0.9875(5) 0.4602(4)
C49_2 C 0.0109(3) 0.9863(4) 0.3320(4)
C50_2 C 0.0959(2) 0.8248(5) 0.8119(4)
H32_2 H 0.0770 0.6889 0.8563
H33_2 H 0.1734 0.6771 0.6567
H34_2 H 0.1238 0.9420 0.7444
H35_2 H 0.0907 0.9525 0.5024
C53_2 C 0.0645(2) 0.8821(5) 0.8748(4)
O32_2 O 0.1982(2) 0.2561(4) 0.5210(3)
H60_2 H 0.214536 0.622529 0.43361
H61_2 H 0.174655 0.70782 0.395952
H62_2 H 0.163823 0.255429 0.488402
H63_2 H 0.220349 0.202056 0.498328
N2_2 N 0.9411(2) 0.4048(4) 0.5869(4)
C28_2 C 0.9294(3) 0.0909(5) 0.5404(4)
C29_2 C 0.9890(3) 0.0902(5) 0.6685(4)
C31_2 C 0.9599(2) 0.1413(4) 0.6041(4)
H20_2 H 0.9093 0.1263 0.4985
N4_2 N 0.9626(2) 0.2473(4) 0.6037(4)
C33_2 C 0.9239(2) 0.3125(4) 0.5814(5)
C34_2 C 0.9931(3) 0.3977(5) 0.6123(7)
H23_2 H 0.8900 0.2944 0.5645
Cd13_2 Cd 0.88754(2) 0.53807(2) 0.56411(3)
H38_2 H 0.9917 0.1250 0.2883
C55_2 C 0.9927(3) 0.3026(5) 0.3763(7)
H39_2 H 0.9600 0.2785 0.3588
H41_2 H 0.9847 0.4520 0.3796
O26_2 O 0.9513(2) 0.0832(5) 0.9295(3)
C58_2 C 0.9246(3) 0.0299(6) 0.8752(4)
C59_2 C 0.8850(2) 0.0839(5) 0.8163(4)
C60_2 C 0.8582(2) 0.0332(5) 0.7478(3)
C61_2 C 0.8740(3) 0.1826(5) 0.8331(4)
C62_2 C 0.8219(2) 0.0861(5) 0.6946(3)
C63_2 C 0.8366(3) 0.2345(5) 0.7814(3)
H43_2 H 0.8917 0.2152 0.8795
C64_2 C 0.7928(2) 0.0305(5) 0.6206(4)
C65_2 C 0.8116(2) 0.1856(5) 0.7098(3)
O27_2 O 0.8276(2) 0.3299(4) 0.8098(3)
H44_2 H 0.7880 0.2200 0.6727
C66_2 C 0.7948(3) 0.3958(5) 0.7589(4)
C67_2 C 0.8281(3) 0.4520(5) 0.6954(4)
H45_2 H 0.7673 0.3584 0.7265
C68_2 C 0.7717(5) 0.4675(9) 0.8231(7)
O30_2 O 0.81814(19) 0.4395(4) 0.6132(3)
O31_2 O 0.8638(3) 0.5059(5) 0.7220(4)
H46_2 H 0.7492 0.5137 0.7914
H47_2 H 0.7521 0.4309 0.8645
H48_2 H 0.7991 0.5036 0.8541
Cd1_5 Cd 1.0000 0.96509(4) -0.0000
O1_2 O 0.9393(2) 0.9747(4) 0.1319(3)
O2_2 O 0.9575(2) 0.8345(4) 0.0657(3)
O8_2 O 0.8018(2) 0.2561(4) 0.4790(3)
O12_2 O 0.8356(2) 0.4603(5) 0.4342(4)
C12_2 C 0.8643(2) 0.5053(4) 0.3824(4)
O14_2 O 0.90446(18) 0.5482(4) 0.4084(3)
N1_2 N 0.9386(2) 0.6732(4) 0.5903(4)
O15_2 O 0.8190(2) 0.6568(4) 0.5573(4)
C13_2 C 0.8482(3) 0.5003(5) 0.2857(4)
C14_2 C 0.9229(2) 0.7660(4) 0.5858(4)
C15_2 C 0.9915(3) 0.6767(5) 0.6099(5)
O16_2 O 0.8793(2) 0.5636(3) 0.2334(3)
H8_2 H 0.8118 0.5210 0.2779
C16_2 C 0.8536(5) 0.3967(6) 0.2499(6)
C17_2 C 0.8163(2) 0.8674(4) 0.3790(4)
N3_2 N 0.96244(18) 0.8300(3) 0.6010(3)
H9_2 H 0.8886 0.7852 0.5736
C19_2 C 0.8755(3) 0.6663(4) 0.2427(4)
H11_2 H 0.8414 0.3955 0.1891
H12_2 H 0.8333 0.3514 0.2832
H13_2 H 0.8895 0.3770 0.2545
C20_2 C 0.8468(2) 0.8172(4) 0.3101(3)
C21_2 C 0.9599(2) 0.9368(4) 0.6033(4)
C22_2 C 0.9038(2) 0.7216(5) 0.1852(3)
C23_2 C 0.8463(2) 0.7142(4) 0.3052(4)
C24_2 C 0.8758(2) 0.8727(4) 0.2518(3)
C25_2 C 0.9294(2) 0.9875(5) 0.5398(4)
C26_2 C 0.9891(3) 0.9863(4) 0.6680(4)
C27_2 C 0.9041(2) 0.8248(5) 0.1881(4)
H15_2 H 0.9230 0.6889 0.1437
H16_2 H 0.8266 0.6771 0.3433
H17_2 H 0.8762 0.9420 0.2556
H18_2 H 0.9093 0.9525 0.4976
C30_2 C 0.9355(2) 0.8821(5) 0.1252(4)
H56_2 H 0.785464 0.622529 0.56639
H57_2 H 0.825345 0.70782 0.604048
H58_2 H 0.836177 0.255429 0.511598
H59_2 H 0.779651 0.202056 0.501672
Cd1_6 Cd 1.0000 0.96509(4) 1.0000
C41_2 C 0.9935(2) 0.7728(5) 0.3829(5)
H27_2 H 0.9868 0.6215 0.3830
H31_2 H 0.9600 0.7961 0.3697
H36_2 H 0.9914 0.9508 0.2894
O25_2 O 0.9297(2) 0.9378(4) 0.8688(4)
H42_2 H 0.8644 0.9658 0.7378
N11 N 0.4322(5) 0.2292(9) 0.9006(7)
H49 H 0.4552 0.2527 0.9380
C69 C 0.4433(8) 0.2095(14) 0.8119(9)
H50 H 0.4789 0.2261 0.8027
H51 H 0.4376 0.1399 0.7995
H52 H 0.4209 0.2489 0.7734
C70 C 0.3767(7) 0.2063(17) 0.9256(12)
H53 H 0.3729 0.2220 0.9867
H54 H 0.3527 0.2457 0.8899
H55 H 0.3695 0.1367 0.9160
H64 H 0.443097 0.158659 0.917486
N11_2 N 0.5678(5) 0.2292(9) 0.0994(7)
H49_2 H 0.5448 0.2527 0.0620
C69_2 C 0.5567(8) 0.2095(14) 0.1881(9)
H50_2 H 0.5211 0.2261 0.1973
H51_2 H 0.5624 0.1399 0.2005
H52_2 H 0.5791 0.2489 0.2266
C70_2 C 0.6233(7) 0.2063(17) 0.0744(12)
H53_2 H 0.6271 0.2220 0.0133
H54_2 H 0.6473 0.2457 0.1101
H55_2 H 0.6305 0.1367 0.0840
H64_2 H 0.556903 0.158659 0.0825138
N11_3 N 0.9322(5) 0.7292(9) 0.9006(7)
H49_3 H 0.9552 0.7527 0.9380
C69_3 C 0.9433(8) 0.7095(14) 0.8119(9)
H50_3 H 0.9789 0.7261 0.8027
H51_3 H 0.9376 0.6399 0.7995
H52_3 H 0.9209 0.7489 0.7734
C70_3 C 0.8767(7) 0.7063(17) 0.9256(12)
H53_3 H 0.8729 0.7220 0.9867
H54_3 H 0.8527 0.7457 0.8899
H55_3 H 0.8695 0.6367 0.9160
H64_3 H 0.943097 0.658659 0.917486
N11_4 N 0.0678(5) 0.7292(9) 0.0994(7)
H49_4 H 0.0448 0.7527 0.0620
C69_4 C 0.0567(8) 0.7095(14) 0.1881(9)
H50_4 H 0.0211 0.7261 0.1973
H51_4 H 0.0624 0.6399 0.2005
H52_4 H 0.0791 0.7489 0.2266
C70_4 C 0.1233(7) 0.7063(17) 0.0744(12)
H53_4 H 0.1271 0.7220 0.0133
H54_4 H 0.1473 0.7457 0.1101
H55_4 H 0.1305 0.6367 0.0840
H64_4 H 0.0569029 0.658659 0.0825138
loop_
_geom_bond_atom_site_label_1
_geom_bond_atom_site_label_2
_geom_bond_site_symmetry_1
_geom_bond_site_symmetry_2
O13 Cd15 1_555 1_555
O31 Cd13 1_555 1_555
Cd1 O1 1_555 1_555
O1 C30 1_555 1_555
O2 Cd1 1_555 1_555
O3 Cd1 1_555 1_555
O4 Cd1 1_555 1_555
C1 O3 1_555 1_555
C2 C1 1_555 1_555
C3 C2 1_555 1_555
C4 C2 1_555 1_555
C5 C3 1_555 1_555
H1 C3 1_555 1_555
C6 C4 1_555 1_555
H2 C4 1_555 1_555
C7 C5 1_555 1_555
C8 C5 1_555 1_555
O5 C6 1_555 1_555
O6 C7 1_555 1_555
O7 C7 1_555 1_555
H3 C8 1_555 1_555
C9 O5 1_555 1_555
C10 C9 1_555 1_555
H4 C9 1_555 1_555
C11 C9 1_555 1_555
O9 C17 1_555 1_555
O10 C10 1_555 1_555
O11 C17 1_555 1_555
H6 C11 1_555 1_555
O14 Cd13 1_555 1_555
N1 Cd13 1_555 1_555
O15 Cd13 1_555 1_555
N2 C33 1_555 1_555
C13 C12 1_555 1_555
C14 N1 1_555 1_555
C15 N1 1_555 1_555
O16 C13 1_555 1_555
H8 C13 1_555 1_555
C17 C20 1_555 1_555
N3 C14 1_555 1_555
H9 C14 1_555 1_555
C18 C15 1_555 1_555
H10 C15 1_555 1_555
C19 O16 1_555 1_555
C20 C23 1_555 1_555
C21 N3 1_555 1_555
H14 C18 1_555 1_555
C22 C19 1_555 1_555
C23 C19 1_555 1_555
C24 C20 1_555 1_555
C25 C21 1_555 1_555
C26 C21 1_555 1_555
C27 C22 1_555 1_555
H15 C22 1_555 1_555
H16 C23 1_555 1_555
H17 C24 1_555 1_555
C28 C25 1_555 1_555
H18 C25 1_555 1_555
C29 C26 1_555 1_555
H19 C26 1_555 1_555
C30 O2 1_555 1_555
C31 C28 1_555 1_555
H20 C28 1_555 1_555
H21 C29 1_555 1_555
N4 C31 1_555 1_555
C32 N4 1_555 1_555
C33 N4 1_555 1_555
C34 N2 1_555 1_555
H22 C32 1_555 1_555
H23 C33 1_555 1_555
H24 C34 1_555 1_555
Cd7 O10 1_555 1_555
Cd9 O6 1_555 1_555
Cd11 O9 1_555 1_555
O4 C1 1_555 1_555
C6 C8 1_555 1_555
O7 Cd9 1_555 1_555
O11 Cd11 1_555 1_555
C12 O14 1_555 1_555
N3 C18 1_555 1_555
C24 C27 1_555 1_555
C27 C30 1_555 1_555
C29 C31 1_555 1_555
C32 C34 1_555 1_555
O15 H56 1_555 1_555
O15 H57 1_555 1_555
O17 Cd1_2 1_555 1_555
O18 Cd1_2 1_555 1_555
O19 C40 1_555 1_555
O20 C40 1_555 1_555
Cd15 O22 1_555 1_555
O22 C35 1_555 1_555
N5 Cd15 1_555 1_555
O23 Cd15 1_555 1_555
N6 C56 1_555 1_555
C36 C35 1_555 1_555
C37 N5 1_555 1_555
C38 N5 1_555 1_555
O24 C36 1_555 1_555
H25 C36 1_555 1_555
C40 C43 1_555 1_555
N7 C37 1_555 1_555
H26 C37 1_555 1_555
C41 C38 1_555 1_555
H27 C38 1_555 1_555
C42 O24 1_555 1_555
C43 C46 1_555 1_555
C44 N7 1_555 1_555
H31 C41 1_555 1_555
C45 C42 1_555 1_555
C46 C42 1_555 1_555
C47 C43 1_555 1_555
C48 C44 1_555 1_555
C49 C44 1_555 1_555
C50 C45 1_555 1_555
H32 C45 1_555 1_555
H33 C46 1_555 1_555
H34 C47 1_555 1_555
C51 C48 1_555 1_555
H35 C48 1_555 1_555
C52 C49 1_555 1_555
H36 C49 1_555 1_555
C53 O17 1_555 1_555
C54 C51 1_555 1_555
H37 C51 1_555 1_555
H38 C52 1_555 1_555
N8 C54 1_555 1_555
C55 N8 1_555 1_555
C56 N8 1_555 1_555
C57 N6 1_555 1_555
H39 C55 1_555 1_555
H40 C56 1_555 1_555
H41 C57 1_555 1_555
O25 Cd1_2 1_555 1_555
O26 Cd1_2 1_555 1_555
C58 O25 1_555 1_555
C59 C58 1_555 1_555
C60 C59 1_555 1_555
C61 C59 1_555 1_555
C62 C60 1_555 1_555
H42 C60 1_555 1_555
C63 C61 1_555 1_555
H43 C61 1_555 1_555
C64 C62 1_555 1_555
C65 C62 1_555 1_555
O27 C63 1_555 1_555
O28 C64 1_555 1_555
O29 C64 1_555 1_555
H44 C65 1_555 1_555
C66 O27 1_555 1_555
C67 C66 1_555 1_555
H45 C66 1_555 1_555
C68 C66 1_555 1_555
O30 C67 1_555 1_555
H47 C68 1_555 1_555
Cd6 O30 1_555 1_555
Cd9 O19 1_555 1_555
Cd11 O28 1_555 1_555
O18 C53 1_555 1_555
O20 Cd9 1_555 1_555
N7 C41 1_555 1_555
C47 C50 1_555 1_555
C50 C53 1_555 1_555
C52 C54 1_555 1_555
C55 C57 1_555 1_555
O26 C58 1_555 1_555
C63 C65 1_555 1_555
O29 Cd11 1_555 1_555
O23 H60 1_555 1_555
O23 H61 1_555 1_555
Cd6 O8 1_555 1_555
O12 Cd6 1_555 1_555
H11 C16 1_555 1_555
H12 C16 1_555 1_555
H13 C16 1_555 1_555
O35 Cd6 1_555 1_555
O38 Cd6 1_555 1_555
O42 Cd6 1_555 1_555
O8 H58 1_555 1_555
O8 H59 1_555 1_555
H28 C39 1_555 1_555
H29 C39 1_555 1_555
H30 C39 1_555 1_555
Cd7 O21 1_555 1_555
O32 Cd7 1_555 1_555
O36 Cd7 1_555 1_555
O37 Cd7 1_555 1_555
O41 Cd7 1_555 1_555
O32 H62 1_555 1_555
O32 H63 1_555 1_555
C2_2 C1_2 1_555 1_555
C3_2 C2_2 1_555 1_555
C4_2 C2_2 1_555 1_555
C5_2 C3_2 1_555 1_555
C6_2 C4_2 1_555 1_555
H2_2 C4_2 1_555 1_555
C7_2 C5_2 1_555 1_555
C8_2 C5_2 1_555 1_555
O5_2 C6_2 1_555 1_555
O33 C7_2 1_555 1_555
H3_2 C8_2 1_555 1_555
C9_2 O5_2 1_555 1_555
C10_2 C9_2 1_555 1_555
H4_2 C9_2 1_555 1_555
C11_2 C9_2 1_555 1_555
O10_2 C10_2 1_555 1_555
O13_2 C10_2 1_555 1_555
H5_2 C11_2 1_555 1_555
H6_2 C11_2 1_555 1_555
H7_2 C11_2 1_555 1_555
H22_2 C32_2 1_555 1_555
Cd11 O10_2 1_555 1_555
Cd15_2 O10_2 1_555 1_555
O4_2 C1_2 1_555 1_555
C6_2 C8_2 1_555 1_555
O13_2 Cd15_2 1_555 1_555
N6_2 C56_2 1_555 1_555
C54_2 C51_2 1_555 1_555
H37_2 C51_2 1_555 1_555
N8_2 C54_2 1_555 1_555
C56_2 N8_2 1_555 1_555
C57_2 N6_2 1_555 1_555
H40_2 C56_2 1_555 1_555
Cd15_2 N6_2 1_555 1_555
C52_2 C54_2 1_555 1_555
O3_2 Cd1_3 1_555 1_555
H14_2 C18_2 1_555 1_555
O17_2 Cd1_4 1_555 1_555
O18_2 Cd1_4 1_555 1_555
O38 C40_2 1_555 1_555
O42 C40_2 1_555 1_555
O21_2 Cd15_2 1_555 1_555
Cd15_2 O22_2 1_555 1_555
C35_2 O21_2 1_555 1_555
O22_2 C35_2 1_555 1_555
N5_2 Cd15_2 1_555 1_555
O23_2 Cd15_2 1_555 1_555
C36_2 C35_2 1_555 1_555
C37_2 N5_2 1_555 1_555
C38_2 N5_2 1_555 1_555
O24_2 C36_2 1_555 1_555
H25_2 C36_2 1_555 1_555
C39_2 C36_2 1_555 1_555
C40_2 C43_2 1_555 1_555
N7_2 C37_2 1_555 1_555
H26_2 C37_2 1_555 1_555
C42_2 O24_2 1_555 1_555
H28_2 C39_2 1_555 1_555
H29_2 C39_2 1_555 1_555
H30_2 C39_2 1_555 1_555
C43_2 C46_2 1_555 1_555
C44_2 N7_2 1_555 1_555
C45_2 C42_2 1_555 1_555
C46_2 C42_2 1_555 1_555
C47_2 C43_2 1_555 1_555
C48_2 C44_2 1_555 1_555
C49_2 C44_2 1_555 1_555
C50_2 C45_2 1_555 1_555
H32_2 C45_2 1_555 1_555
H33_2 C46_2 1_555 1_555
H34_2 C47_2 1_555 1_555
H35_2 C48_2 1_555 1_555
C53_2 O17_2 1_555 1_555
Cd11 O21_2 1_555 1_555
O32_2 Cd11 1_555 1_555
O18_2 C53_2 1_555 1_555
C47_2 C50_2 1_555 1_555
C50_2 C53_2 1_555 1_555
O23_2 H60_2 1_555 1_555
O23_2 H61_2 1_555 1_555
O32_2 H62_2 1_555 1_555
O32_2 H63_2 1_555 1_555
N2_2 C33_2 1_555 1_555
C31_2 C28_2 1_555 1_555
H20_2 C28_2 1_555 1_555
N4_2 C31_2 1_555 1_555
C33_2 N4_2 1_555 1_555
C34_2 N2_2 1_555 1_555
H23_2 C33_2 1_555 1_555
Cd13_2 N2_2 1_555 1_555
C29_2 C31_2 1_555 1_555
H39_2 C55_2 1_555 1_555
C59_2 C58_2 1_555 1_555
C60_2 C59_2 1_555 1_555
C61_2 C59_2 1_555 1_555
C62_2 C60_2 1_555 1_555
C63_2 C61_2 1_555 1_555
H43_2 C61_2 1_555 1_555
C64_2 C62_2 1_555 1_555
C65_2 C62_2 1_555 1_555
O27_2 C63_2 1_555 1_555
O34 C64_2 1_555 1_555
H44_2 C65_2 1_555 1_555
C66_2 O27_2 1_555 1_555
C67_2 C66_2 1_555 1_555
H45_2 C66_2 1_555 1_555
C68_2 C66_2 1_555 1_555
O30_2 C67_2 1_555 1_555
O31_2 C67_2 1_555 1_555
H46_2 C68_2 1_555 1_555
H47_2 C68_2 1_555 1_555
H48_2 C68_2 1_555 1_555
Cd9 O30_2 1_555 1_555
Cd13_2 O30_2 1_555 1_555
O26_2 C58_2 1_555 1_555
C63_2 C65_2 1_555 1_555
O31_2 Cd13_2 1_555 1_555
Cd1_5 O1_2 1_555 1_555
O1_2 C30_2 1_555 1_555
O2_2 Cd1_5 1_555 1_555
Cd9 O8_2 1_555 1_555
O37 C17_2 1_555 1_555
O41 C17_2 1_555 1_555
O12_2 Cd9 1_555 1_555
Cd13_2 O12_2 1_555 1_555
C12_2 O12_2 1_555 1_555
O14_2 Cd13_2 1_555 1_555
N1_2 Cd13_2 1_555 1_555
O15_2 Cd13_2 1_555 1_555
C13_2 C12_2 1_555 1_555
C14_2 N1_2 1_555 1_555
C15_2 N1_2 1_555 1_555
O16_2 C13_2 1_555 1_555
H8_2 C13_2 1_555 1_555
C16_2 C13_2 1_555 1_555
C17_2 C20_2 1_555 1_555
N3_2 C14_2 1_555 1_555
H9_2 C14_2 1_555 1_555
C19_2 O16_2 1_555 1_555
H11_2 C16_2 1_555 1_555
H12_2 C16_2 1_555 1_555
H13_2 C16_2 1_555 1_555
C20_2 C23_2 1_555 1_555
C21_2 N3_2 1_555 1_555
C22_2 C19_2 1_555 1_555
C23_2 C19_2 1_555 1_555
C24_2 C20_2 1_555 1_555
C25_2 C21_2 1_555 1_555
C26_2 C21_2 1_555 1_555
C27_2 C22_2 1_555 1_555
H15_2 C22_2 1_555 1_555
H16_2 C23_2 1_555 1_555
H17_2 C24_2 1_555 1_555
H18_2 C25_2 1_555 1_555
C30_2 O2_2 1_555 1_555
C12_2 O14_2 1_555 1_555
C24_2 C27_2 1_555 1_555
C27_2 C30_2 1_555 1_555
O15_2 H56_2 1_555 1_555
O15_2 H57_2 1_555 1_555
O8_2 H58_2 1_555 1_555
O8_2 H59_2 1_555 1_555
H31_2 C41_2 1_555 1_555
O25_2 Cd1_6 1_555 1_555
N11 H49 1_555 1_555
C69 N11 1_555 1_555
H50 C69 1_555 1_555
H51 C69 1_555 1_555
H52 C69 1_555 1_555
C70 N11 1_555 1_555
H53 C70 1_555 1_555
H54 C70 1_555 1_555
H55 C70 1_555 1_555
N11 H64 1_555 1_555
N11_2 H49_2 1_555 1_555
C69_2 N11_2 1_555 1_555
H50_2 C69_2 1_555 1_555
H51_2 C69_2 1_555 1_555
H52_2 C69_2 1_555 1_555
C70_2 N11_2 1_555 1_555
H53_2 C70_2 1_555 1_555
H54_2 C70_2 1_555 1_555
H55_2 C70_2 1_555 1_555
N11_2 H64_2 1_555 1_555
N11_3 H49_3 1_555 1_555
C69_3 N11_3 1_555 1_555
H50_3 C69_3 1_555 1_555
H51_3 C69_3 1_555 1_555
H52_3 C69_3 1_555 1_555
C70_3 N11_3 1_555 1_555
H53_3 C70_3 1_555 1_555
H54_3 C70_3 1_555 1_555
H55_3 C70_3 1_555 1_555
N11_3 H64_3 1_555 1_555
N11_4 H49_4 1_555 1_555
C69_4 N11_4 1_555 1_555
H50_4 C69_4 1_555 1_555
H51_4 C69_4 1_555 1_555
H52_4 C69_4 1_555 1_555
C70_4 N11_4 1_555 1_555
H53_4 C70_4 1_555 1_555
H54_4 C70_4 1_555 1_555
H55_4 C70_4 1_555 1_555
N11_4 H64_4 1_555 1_555

#END
