
###############################################################################
#
# This file contains modified crystal structure data generated from the
# MOF subset of the Cambridge Structural Database (CSD) v543 
# hosted by the Cambridge Crystallographic Data Centre (CCDC).
#
# This work is licensed under the Creative Commons
# Attribution-NonCommercial-ShareAlike 4.0 International License.
# To view a copy of this license, visit
# http://creativecommons.org/licenses/by-nc-sa/4.0/
# or send a letter to
# Creative Commons, PO Box 1866, Mountain View, CA 94042, USA.
#
# CIF created using the CSD Python API on 29 September 2022
# The structure has been converted into the P1 space group
# The structure has a 3D framework
# The original CSD entry OQUWUU is in the orthorhombic crystal system
# The framework has been calculated to contain at least 10.0% void space
# The void calculation uses a probe of radius 1.32A, grid spacing 0.4
# H atom positions have been added when not included in the experimental data
# Generated hydrogen atom positions removed from atoms on special positions
#
###############################################################################

data_OQUWUU
_chemical_formula_moiety         '(C384 H384 Co22 N128 O344 P8 W96)n'
_symmetry_cell_setting           triclinic
_symmetry_space_group_name_H-M   'P 1'
_symmetry_Int_Tables_number      1
_space_group_name_Hall           'P 1'
loop_
_symmetry_equiv_pos_site_id
_symmetry_equiv_pos_as_xyz
1 x,y,z
_cell_length_a                   27.249(5)
_cell_length_b                   27.420(5)
_cell_length_c                   25.189(5)
_cell_angle_alpha                90
_cell_angle_beta                 90
_cell_angle_gamma                90
_cell_volume                     18820.4
loop_
_atom_site_label
_atom_site_type_symbol
_atom_site_fract_x
_atom_site_fract_y
_atom_site_fract_z
N8 N 0.2257(4) 0.0649(4) 0.2819(4)
N15 N 0.2371(4) 0.1443(4) 0.2828(4)
C26 C 0.2064(6) 0.0816(5) 0.3286(5)
H25 H 0.1914 0.0630 0.3549
C32 C 0.2431(6) 0.1040(4) 0.2561(5)
H29 H 0.2578 0.1026 0.2228
C33 C 0.2228(6) 0.0022(5) 0.2136(6)
H30 H 0.2168 0.0264 0.1886
C40 C 0.2283(5) 0.0141(4) 0.2649(5)
C44 C 0.2135(6) 0.1305(4) 0.3290(5)
H37 H 0.2040 0.1515 0.3561
Co13 Co 0.24887(5) 0.21621(5) 0.25760(5)
W1 W 0.191578(15) 0.819956(15) 0.623289(17)
W2 W 0.036846(15) 0.886586(16) 0.465668(18)
W3 W 0.207415(17) 0.762212(17) 0.391501(19)
W4 W 0.146024(18) 0.930207(17) 0.41937(2)
W5 W 0.256119(18) 0.755895(19) 0.51486(2)
W6 W 0.089188(19) 0.715183(19) 0.43969(2)
W7 W 0.137558(18) 0.709269(17) 0.56367(2)
W8 W 0.032336(17) 0.772421(18) 0.542647(19)
W9 W 0.260237(18) 0.863092(18) 0.44661(2)
W10 W 0.086138(18) 0.882818(18) 0.60168(2)
W11 W 0.196330(18) 0.926449(17) 0.55583(2)
W12 W 0.09440(2) 0.82986(2) 0.36378(2)
Co2 Co 0.25113(5) 0.71621(5) 0.25760(5)
P1 P 0.14452(8) 0.82089(8) 0.49435(9)
O1 O 0.1527(2) 0.8485(2) 0.5465(3)
O2 O 0.1568(3) 0.9858(3) 0.3925(3)
O5 O 0.2259(3) 0.7326(3) 0.3353(3)
O6 O 0.2245(3) 0.9790(3) 0.5722(4)
O7 O 0.1946(2) 0.8065(2) 0.4709(3)
O8 O 0.1242(3) 0.8934(3) 0.3608(3)
O9 O 0.1561(3) 0.7226(2) 0.4154(3)
O10 O 0.2424(3) 0.8961(3) 0.5104(3)
O11 O 0.0758(3) 0.8222(4) 0.3011(3)
O12 O 0.0478(3) 0.9092(3) 0.6450(3)
O13 O 0.0592(3) 0.9020(3) 0.5351(3)
O14 O 0.0677(3) 0.6686(3) 0.4015(4)
O15 O 0.1354(3) 0.9324(3) 0.5939(3)
O16 O 0.1170(2) 0.8537(2) 0.4548(3)
O17 O 0.0558(3) 0.8215(3) 0.5892(3)
O18 O 0.0696(3) 0.7245(3) 0.5793(3)
O19 O 0.1151(3) 0.6801(3) 0.4997(3)
O20 O 0.2523(3) 0.8165(3) 0.3909(3)
O21 O 0.1617(3) 0.9434(3) 0.4929(3)
O22 O 0.1558(3) 0.7619(3) 0.6095(3)
O23 O 0.2388(3) 0.7951(3) 0.5748(3)
O24 O 0.2499(3) 0.7338(3) 0.4435(3)
O25 O 0.0219(3) 0.8244(3) 0.4928(3)
O26 O 0.2172(3) 0.8839(3) 0.6124(3)
O27 O 0.0387(3) 0.8596(3) 0.3958(3)
O28 O 0.1587(3) 0.8036(3) 0.3636(3)
O29 O 0.2895(3) 0.8124(3) 0.4870(3)
O30 O 0.2011(3) 0.7172(3) 0.5332(3)
O31 O 0.0327(3) 0.7291(3) 0.4815(3)
O32 O 0.0779(3) 0.9381(3) 0.4391(3)
O33 O 0.0764(3) 0.7701(3) 0.3969(3)
O34 O 0.1141(2) 0.7749(2) 0.5053(3)
O35 O 0.2189(3) 0.8061(3) 0.6823(3)
O36 O 0.1326(3) 0.8497(3) 0.6472(3)
O37 O 0.1455(3) 0.6590(3) 0.6025(4)
O38 O 0.3101(3) 0.8942(3) 0.4250(4)
O39 O 0.3043(3) 0.7235(3) 0.5376(4)
O40 O 0.2076(3) 0.8998(3) 0.4158(3)
N3 N 0.3228(3) 0.7330(3) 0.2846(4)
N5 N 0.4033(4) 0.7375(4) 0.2861(4)
N9 N 0.2447(4) 0.7889(4) 0.2286(4)
N10 N 0.2398(4) 0.8682(4) 0.2217(4)
N11 N 0.1803(4) 0.7028(5) 0.2280(5)
N13 N 0.0993(5) 0.6995(5) 0.2225(5)
C4 C 0.1693(11) 0.7017(10) 0.1779(12)
H4 H 0.1918 0.7023 0.1501
C5 C 0.1174(12) 0.6992(12) 0.1719(13)
H5 H 0.0996 0.6977 0.1404
C6 C 0.0340(8) 0.7105(8) 0.2847(10)
H6 H 0.0567 0.7226 0.3090
C7 C 0.0149(7) 0.7032(9) 0.1996(9)
H7 H 0.0232 0.7007 0.1639
C8 C 0.2648(8) 0.8040(8) 0.1819(9)
H8 H 0.2786 0.7831 0.1570
C12 C 0.2623(6) 0.8532(7) 0.1760(7)
H11 H 0.2732 0.8721 0.1477
C14 C 0.3876(5) 0.7597(8) 0.3303(7)
H13 H 0.4068 0.7740 0.3566
C17 C 0.4619(5) 0.7322(7) 0.2137(6)
H16 H 0.4364 0.7318 0.1892
C18 C 0.2261(6) 0.9540(5) 0.1977(6)
H17 H 0.2231 0.9455 0.1621
C22 C 0.2330(7) 0.9799(5) 0.3032(6)
H21 H 0.2338 0.9889 0.3388
C23 C 0.3381(6) 0.7573(6) 0.3288(7)
H22 H 0.3174 0.7703 0.3545
C28 C 0.4526(5) 0.7331(5) 0.2666(5)
C29 C 0.1390(4) 0.7038(5) 0.2536(5)
H26 H 0.1371 0.7072 0.2903
C31 C 0.4892(5) 0.7321(6) 0.3027(6)
H28 H 0.4818 0.7312 0.3387
C35 C 0.2365(6) 0.9310(5) 0.2889(6)
H32 H 0.2405 0.9072 0.3148
C39 C 0.2313(5) 0.8293(4) 0.2515(5)
H35 H 0.2173 0.8307 0.2852
C41 C 0.3629(4) 0.7212(5) 0.2604(5)
H36 H 0.3639 0.7036 0.2289
C42 C 0.2341(5) 0.9181(4) 0.2367(5)
C43 C 0.0480(4) 0.7002(6) 0.2357(5)
N17 N 0.6772(3) 0.7330(3) 0.2154(4)
N18 N 0.5967(4) 0.7375(4) 0.2139(4)
C49 C 0.6124(5) 0.7597(8) 0.1697(7)
H41 H 0.5932 0.7740 0.1434
C50 C 0.5381(5) 0.7322(7) 0.2863(6)
H42 H 0.5636 0.7318 0.3108
C51 C 0.6619(6) 0.7573(6) 0.1712(7)
H43 H 0.6826 0.7703 0.1455
C52 C 0.5474(5) 0.7331(5) 0.2334(5)
C53 C 0.5108(5) 0.7321(6) 0.1973(6)
H44 H 0.5182 0.7312 0.1613
C54 C 0.6371(4) 0.7212(5) 0.2396(5)
H45 H 0.6361 0.7036 0.2711
Co8 Co 0.24887(5) 0.78379(5) 0.75760(5)
Co11 Co 0.74887(5) 0.71621(5) 0.24240(5)
O87 O 0.2811(3) 0.6939(3) 0.1823(3)
N38 N 0.2629(4) 0.6443(4) 0.2828(4)
Co3 Co 0.5000 0.0472(3) 0.7500
N6 N 0.9120(5) 0.0572(4) 0.8062(4)
N14 N 0.9015(4) 0.0858(4) 0.8869(4)
H1 H 0.5805 0.0216 0.6564
C15 C 0.8957(7) 0.1233(6) 0.8509(6)
H14 H 0.8880 0.1554 0.8593
H15 H 0.6654 0.0227 0.6202
H18 H 0.7191 0.0078 0.5516
C24 C 0.9434(6) 0.0374(6) 0.7185(5)
H23 H 0.9567 0.0685 0.7156
C27 C 0.9200(6) 0.0234(6) 0.7643(5)
C38 C 0.9034(8) 0.1052(5) 0.8007(6)
H34 H 0.9027 0.1228 0.7692
C45 C 0.9473(5) 0.0043(6) 0.6761(5)
H38 H 0.9627 0.0137 0.6448
C46 C 0.9099(6) 0.0469(5) 0.8589(5)
H39 H 0.9140 0.0159 0.8732
O43 O 0.5435(10) 0.0229(10) 0.8180(11)
N24 N 0.0880(5) 0.0572(4) 0.6938(4)
N30 N 0.0985(4) 0.0858(4) 0.6131(4)
H51 H 0.4195 0.0216 0.8436
C70 C 0.1043(7) 0.1233(6) 0.6491(6)
H59 H 0.1120 0.1554 0.6407
H60 H 0.3346 0.0227 0.8798
H62 H 0.2809 0.0078 0.9484
C77 C 0.0566(6) 0.0374(6) 0.7815(5)
H66 H 0.0433 0.0685 0.7844
C80 C 0.0800(6) 0.0234(6) 0.7357(5)
C88 C 0.0966(8) 0.1052(5) 0.6993(6)
H75 H 0.0973 0.1228 0.7308
C93 C 0.0527(5) 0.0043(6) 0.8239(5)
H78 H 0.0373 0.0137 0.8552
C94 C 0.0901(6) 0.0469(5) 0.6411(5)
H79 H 0.0860 0.0159 0.6268
O86 O 0.4565(10) 0.0229(10) 0.6820(11)
Co6 Co 0.09850(5) 0.08938(5) 0.52931(6)
Co7 Co 0.90150(5) 0.08938(5) 0.97069(6)
H84 H 0.878822 0.00468164 0.477439
Co4 Co 0.09850(5) 0.91062(5) 0.02931(6)
O46 O 0.0196(3) 0.9139(3) 0.0360(3)
O84 O 0.0887(3) 0.9886(3) 0.0262(3)
O85 O 0.1040(3) 0.8325(3) 0.0328(4)
N25 N 0.1758(4) 0.9154(4) 0.0217(5)
C69 C 0.2548(6) 0.8970(6) 0.0310(7)
H58 H 0.2841 0.8853 0.0449
C78 C 0.2082(5) 0.8910(6) 0.0516(7)
H67 H 0.2005 0.8728 0.0816
N35 N 0.0985(4) 0.9142(4) 0.1131(4)
H87 H 0.0853853 0.817965 0.00282945
H88 H 0.139011 0.822727 0.0302539
H89 H 0.0725846 0.999889 0.0593535
Co1 Co 0.90150(5) 0.91062(5) 0.47069(6)
O3 O 0.9804(3) 0.9139(3) 0.4640(3)
O4 O 0.9751(3) 0.7606(3) 0.5657(3)
O41 O 0.9113(3) 0.9886(3) 0.4738(3)
O42 O 0.8960(3) 0.8325(3) 0.4672(4)
N1 N 0.5499(10) 0.9961(10) 0.7184(16)
N2 N 0.7519(4) 0.9245(4) 0.5153(5)
N4 N 0.6122(7) 0.9609(8) 0.6765(9)
N7 N 0.8242(4) 0.9154(4) 0.4783(5)
N12 N 0.9285(5) 0.9261(4) 0.6365(4)
N16 N 0.9164(4) 0.9053(4) 0.5522(4)
C1 C 0.5805(10) 0.9963(11) 0.6809(11)
C2 C 0.606(2) 0.931(2) 0.716(2)
H2 H 0.6206 0.9011 0.7241
C3 C 0.5664(18) 0.9592(18) 0.747(2)
H3 H 0.5555 0.9514 0.7805
C9 C 0.6471(6) 0.9515(8) 0.6319(9)
C10 C 0.6570(7) 0.9056(8) 0.6175(9)
H9 H 0.6403 0.8799 0.6335
C11 C 0.6929(6) 0.8959(7) 0.5775(9)
H10 H 0.7010 0.8642 0.5681
C13 C 0.7452(6) 0.8970(6) 0.4690(7)
H12 H 0.7159 0.8853 0.4551
C16 C 0.6714(8) 0.9910(7) 0.6088(9)
C19 C 0.7040(6) 0.9819(5) 0.5689(7)
C20 C 0.9246(7) 0.8766(5) 0.6344(6)
H19 H 0.9266 0.8557 0.6634
C21 C 0.9176(7) 0.8628(5) 0.5842(6)
H20 H 0.9140 0.8309 0.5723
C25 C 0.7918(5) 0.8910(6) 0.4484(7)
H24 H 0.7995 0.8728 0.4184
C30 C 0.8001(4) 0.9351(5) 0.5177(5)
H27 H 0.8145 0.9541 0.5440
C34 C 0.9021(6) 0.9752(5) 0.7699(5)
H31 H 0.8876 0.9652 0.8014
C36 C 0.9285(5) 0.9583(5) 0.6808(5)
C37 C 0.9234(4) 0.9410(4) 0.5845(5)
H33 H 0.9249 0.9734 0.5738
C47 C 0.7147(4) 0.9348(5) 0.5539(7)
C48 C 0.9065(7) 0.9433(6) 0.7277(5)
H40 H 0.8948 0.9116 0.7308
N19 N 0.8197(4) 0.7028(5) 0.2720(5)
N20 N 0.9007(5) 0.6995(5) 0.2775(5)
C55 C 0.8307(11) 0.7017(10) 0.3221(12)
H46 H 0.8082 0.7023 0.3499
C56 C 0.8826(12) 0.6992(12) 0.3281(13)
H47 H 0.9004 0.6977 0.3596
C57 C 0.9660(8) 0.7105(8) 0.2153(10)
H48 H 0.9433 0.7226 0.1910
C58 C 0.9851(7) 0.7032(9) 0.3004(9)
H49 H 0.9768 0.7007 0.3361
C59 C 0.8610(4) 0.7038(5) 0.2464(5)
H50 H 0.8629 0.7072 0.2097
C60 C 0.9520(4) 0.7002(6) 0.2643(5)
O47 O 0.0249(3) 0.7606(3) 0.9343(3)
N21 N 0.4501(10) 0.9961(10) 0.7816(16)
N22 N 0.2481(4) 0.9245(4) 0.9847(5)
N23 N 0.3878(7) 0.9609(8) 0.8235(9)
N29 N 0.0715(5) 0.9261(4) 0.8635(4)
N32 N 0.0836(4) 0.9053(4) 0.9478(4)
C61 C 0.4195(10) 0.9963(11) 0.8191(11)
C62 C 0.394(2) 0.931(2) 0.784(2)
H52 H 0.3794 0.9011 0.7759
C63 C 0.4336(18) 0.9592(18) 0.753(2)
H53 H 0.4445 0.9514 0.7195
C65 C 0.3529(6) 0.9515(8) 0.8681(9)
C66 C 0.3430(7) 0.9056(8) 0.8825(9)
H55 H 0.3597 0.8799 0.8665
C67 C 0.3071(6) 0.8959(7) 0.9225(9)
H56 H 0.2990 0.8642 0.9319
C71 C 0.3286(8) 0.9910(7) 0.8912(9)
C73 C 0.2960(6) 0.9819(5) 0.9311(7)
C74 C 0.0754(7) 0.8766(5) 0.8656(6)
H63 H 0.0734 0.8557 0.8366
C75 C 0.0824(7) 0.8628(5) 0.9158(6)
H64 H 0.0860 0.8309 0.9277
C81 C 0.1999(4) 0.9351(5) 0.9823(5)
H69 H 0.1855 0.9541 0.9560
C84 C 0.0979(6) 0.9752(5) 0.7301(5)
H72 H 0.1124 0.9652 0.6986
C86 C 0.0715(5) 0.9583(5) 0.8192(5)
C87 C 0.0766(4) 0.9410(4) 0.9155(5)
H74 H 0.0751 0.9734 0.9262
C95 C 0.2853(4) 0.9348(5) 0.9461(7)
C96 C 0.0935(7) 0.9433(6) 0.7723(5)
H80 H 0.1052 0.9116 0.7692
N36 N 0.9015(4) 0.9142(4) 0.3869(4)
H81 H 0.914615 0.817965 0.497171
H82 H 0.860989 0.822727 0.469746
H83 H 0.927415 0.999889 0.440647
H91 H 0.450319 0.987311 0.68492
N26 N 0.7743(4) 0.0649(4) 0.2181(4)
N31 N 0.7629(4) 0.1443(4) 0.2172(4)
C79 C 0.7936(6) 0.0816(5) 0.1714(5)
H68 H 0.8086 0.0630 0.1451
C82 C 0.7569(6) 0.1040(4) 0.2439(5)
H70 H 0.7422 0.1026 0.2772
C83 C 0.7772(6) 0.0022(5) 0.2864(6)
H71 H 0.7832 0.0264 0.3114
C90 C 0.7717(5) 0.0141(4) 0.2351(5)
C92 C 0.7865(6) 0.1305(4) 0.1710(5)
H77 H 0.7960 0.1515 0.1439
Co12 Co 0.75113(5) 0.21621(5) 0.24240(5)
W14 W 0.963154(15) 0.886586(16) 0.034332(18)
W15 W 0.792585(17) 0.762212(17) 0.108499(19)
W16 W 0.853976(18) 0.930207(17) 0.08063(2)
W18 W 0.910812(19) 0.715183(19) 0.06031(2)
W21 W 0.739763(18) 0.863092(18) 0.05339(2)
W24 W 0.90560(2) 0.82986(2) 0.13622(2)
P2 P 0.85548(8) 0.82089(8) 0.00565(9)
O45 O 0.8432(3) 0.9858(3) 0.1075(3)
O48 O 0.7741(3) 0.7326(3) 0.1647(3)
O50 O 0.8054(2) 0.8065(2) 0.0291(3)
O51 O 0.8758(3) 0.8934(3) 0.1392(3)
O52 O 0.8439(3) 0.7226(2) 0.0846(3)
O54 O 0.9242(3) 0.8222(4) 0.1989(3)
O57 O 0.9323(3) 0.6686(3) 0.0985(4)
O59 O 0.8830(2) 0.8537(2) 0.0452(3)
O62 O 0.8849(3) 0.6801(3) 0.0003(3)
O63 O 0.7477(3) 0.8165(3) 0.1091(3)
O64 O 0.8383(3) 0.9434(3) 0.0071(3)
O67 O 0.7501(3) 0.7338(3) 0.0565(3)
O68 O 0.9781(3) 0.8244(3) 0.0072(3)
O70 O 0.9613(3) 0.8596(3) 0.1042(3)
O71 O 0.8413(3) 0.8036(3) 0.1364(3)
O72 O 0.7105(3) 0.8124(3) 0.0130(3)
O74 O 0.9673(3) 0.7291(3) 0.0185(3)
O75 O 0.9221(3) 0.9381(3) 0.0609(3)
O76 O 0.9236(3) 0.7701(3) 0.1031(3)
O81 O 0.6899(3) 0.8942(3) 0.0750(4)
O83 O 0.7924(3) 0.8998(3) 0.0842(3)
N27 N 0.7553(4) 0.7889(4) 0.2714(4)
N28 N 0.7602(4) 0.8682(4) 0.2783(4)
C64 C 0.7352(8) 0.8040(8) 0.3181(9)
H54 H 0.7214 0.7831 0.3430
C68 C 0.7377(6) 0.8532(7) 0.3240(7)
H57 H 0.7268 0.8721 0.3523
C72 C 0.7739(6) 0.9540(5) 0.3023(6)
H61 H 0.7769 0.9455 0.3379
C76 C 0.7670(7) 0.9799(5) 0.1968(6)
H65 H 0.7662 0.9889 0.1612
C85 C 0.7635(6) 0.9310(5) 0.2111(6)
H73 H 0.7595 0.9072 0.1852
C89 C 0.7687(5) 0.8293(4) 0.2485(5)
H76 H 0.7827 0.8307 0.2148
C91 C 0.7659(5) 0.9181(4) 0.2633(5)
O88 O 0.7189(3) 0.6939(3) 0.3177(3)
N37 N 0.7371(4) 0.6443(4) 0.2172(4)
W13 W 0.808422(15) 0.819956(15) 0.876711(17)
W17 W 0.743881(18) 0.755895(19) 0.98514(2)
W19 W 0.862442(18) 0.709269(17) 0.93633(2)
W20 W 0.967664(17) 0.772421(18) 0.957353(19)
W22 W 0.913862(18) 0.882818(18) 0.89832(2)
W23 W 0.803670(18) 0.926449(17) 0.94417(2)
O44 O 0.8473(2) 0.8485(2) 0.9535(3)
O49 O 0.7755(3) 0.9790(3) 0.9278(4)
O53 O 0.7576(3) 0.8961(3) 0.9896(3)
O55 O 0.9522(3) 0.9092(3) 0.8550(3)
O56 O 0.9408(3) 0.9020(3) 0.9649(3)
O58 O 0.8646(3) 0.9324(3) 0.9061(3)
O60 O 0.9442(3) 0.8215(3) 0.9108(3)
O61 O 0.9304(3) 0.7245(3) 0.9207(3)
O65 O 0.8442(3) 0.7619(3) 0.8905(3)
O66 O 0.7612(3) 0.7951(3) 0.9252(3)
O69 O 0.7828(3) 0.8839(3) 0.8876(3)
O73 O 0.7989(3) 0.7172(3) 0.9668(3)
O77 O 0.8859(2) 0.7749(2) 0.9947(3)
O78 O 0.7811(3) 0.8061(3) 0.8177(3)
O79 O 0.8674(3) 0.8497(3) 0.8528(3)
O80 O 0.8545(3) 0.6590(3) 0.8975(4)
O82 O 0.6957(3) 0.7235(3) 0.9624(4)
Co9 Co 0.75113(5) 0.78379(5) 0.74240(5)
Co3_2 Co 0.0000 0.4528(3) 0.2500
W13_2 W 0.691578(15) 0.680044(15) 0.376711(17)
W14_2 W 0.536846(15) 0.613414(16) 0.534332(18)
W15_2 W 0.707415(17) 0.737788(17) 0.608499(19)
W16_2 W 0.646024(18) 0.569793(17) 0.58063(2)
W17_2 W 0.756119(18) 0.744105(19) 0.48514(2)
W18_2 W 0.589188(19) 0.784817(19) 0.56031(2)
W19_2 W 0.637558(18) 0.790731(17) 0.43633(2)
W20_2 W 0.532336(17) 0.727579(18) 0.457353(19)
W21_2 W 0.760237(18) 0.636908(18) 0.55339(2)
W22_2 W 0.586138(18) 0.617182(18) 0.39832(2)
W23_2 W 0.696330(18) 0.573551(17) 0.44417(2)
W24_2 W 0.59440(2) 0.67014(2) 0.63622(2)
Co4_2 Co 0.40150(5) 0.58938(5) 0.52931(6)
P2_2 P 0.64452(8) 0.67911(8) 0.50565(9)
O44_2 O 0.6527(2) 0.6515(2) 0.4535(3)
O45_2 O 0.6568(3) 0.5142(3) 0.6075(3)
O46_2 O 0.4804(3) 0.5861(3) 0.5360(3)
O47_2 O 0.4751(3) 0.7394(3) 0.4343(3)
O48_2 O 0.7259(3) 0.7674(3) 0.6647(3)
O49_2 O 0.7245(3) 0.5210(3) 0.4278(4)
O50_2 O 0.6946(2) 0.6935(2) 0.5291(3)
O51_2 O 0.6242(3) 0.6066(3) 0.6392(3)
O52_2 O 0.6561(3) 0.7774(2) 0.5846(3)
O53_2 O 0.7424(3) 0.6039(3) 0.4896(3)
O54_2 O 0.5758(3) 0.6778(4) 0.6989(3)
O55_2 O 0.5478(3) 0.5908(3) 0.3550(3)
O56_2 O 0.5592(3) 0.5980(3) 0.4649(3)
O57_2 O 0.5677(3) 0.8314(3) 0.5985(4)
O58_2 O 0.6354(3) 0.5676(3) 0.4061(3)
O59_2 O 0.6170(2) 0.6463(2) 0.5452(3)
O60_2 O 0.5558(3) 0.6785(3) 0.4108(3)
O61_2 O 0.5696(3) 0.7755(3) 0.4207(3)
O62_2 O 0.6151(3) 0.8199(3) 0.5003(3)
O63_2 O 0.7523(3) 0.6835(3) 0.6091(3)
O64_2 O 0.6617(3) 0.5566(3) 0.5071(3)
O65_2 O 0.6558(3) 0.7381(3) 0.3905(3)
O66_2 O 0.7388(3) 0.7049(3) 0.4252(3)
O67_2 O 0.7499(3) 0.7662(3) 0.5565(3)
O68_2 O 0.5219(3) 0.6756(3) 0.5072(3)
O69_2 O 0.7172(3) 0.6161(3) 0.3876(3)
O70_2 O 0.5387(3) 0.6404(3) 0.6042(3)
O71_2 O 0.6587(3) 0.6964(3) 0.6364(3)
O72_2 O 0.7895(3) 0.6876(3) 0.5130(3)
O73_2 O 0.7011(3) 0.7828(3) 0.4668(3)
O74_2 O 0.5327(3) 0.7709(3) 0.5185(3)
O75_2 O 0.5779(3) 0.5619(3) 0.5609(3)
O76_2 O 0.5764(3) 0.7299(3) 0.6031(3)
O77_2 O 0.6141(2) 0.7251(2) 0.4947(3)
O79_2 O 0.6326(3) 0.6503(3) 0.3528(3)
O80_2 O 0.6455(3) 0.8410(3) 0.3975(4)
O81_2 O 0.8101(3) 0.6058(3) 0.5750(4)
O82_2 O 0.8043(3) 0.7765(3) 0.4624(4)
O83_2 O 0.7076(3) 0.6002(3) 0.5842(3)
O84_2 O 0.4113(3) 0.5114(3) 0.5262(3)
O85_2 O 0.3960(3) 0.6675(3) 0.5328(4)
N21_2 N 0.0499(10) 0.5039(10) 0.2816(16)
N22_2 N 0.2519(4) 0.5755(4) 0.4847(5)
N23_2 N 0.1122(7) 0.5391(8) 0.3235(9)
N24_2 N 0.4120(5) 0.4428(4) 0.1938(4)
N25_2 N 0.3242(4) 0.5846(4) 0.5217(5)
N26_2 N 0.7257(4) 0.4351(4) 0.7181(4)
N27_2 N 0.7447(4) 0.7111(4) 0.7714(4)
N28_2 N 0.7398(4) 0.6318(4) 0.7783(4)
N29_2 N 0.4285(5) 0.5739(4) 0.3635(4)
N30_2 N 0.4015(4) 0.4142(4) 0.1131(4)
N31_2 N 0.7371(4) 0.3557(4) 0.7172(4)
N32_2 N 0.4164(4) 0.5947(4) 0.4478(4)
C61_2 C 0.0805(10) 0.5037(11) 0.3191(11)
H51_2 H 0.0805 0.4784 0.3436
C62_2 C 0.106(2) 0.569(2) 0.284(2)
H52_2 H 0.1206 0.5989 0.2759
C63_2 C 0.0664(18) 0.5408(18) 0.253(2)
H53_2 H 0.0555 0.5486 0.2195
C64_2 C 0.7648(8) 0.6960(8) 0.8181(9)
H54_2 H 0.7786 0.7169 0.8430
C65_2 C 0.1471(6) 0.5485(8) 0.3681(9)
C66_2 C 0.1570(7) 0.5944(8) 0.3825(9)
H55_2 H 0.1403 0.6201 0.3665
C67_2 C 0.1929(6) 0.6041(7) 0.4225(9)
H56_2 H 0.2010 0.6358 0.4319
C68_2 C 0.7623(6) 0.6468(7) 0.8240(7)
H57_2 H 0.7732 0.6279 0.8523
C69_2 C 0.2452(6) 0.6030(6) 0.5310(7)
H58_2 H 0.2159 0.6147 0.5449
C70_2 C 0.3957(7) 0.3767(6) 0.1491(6)
H59_2 H 0.3880 0.3446 0.1407
C71_2 C 0.1714(8) 0.5090(7) 0.3912(9)
H60_2 H 0.1654 0.4773 0.3798
C72_2 C 0.7261(6) 0.5460(5) 0.8023(6)
H61_2 H 0.7231 0.5545 0.8379
C73_2 C 0.2040(6) 0.5181(5) 0.4311(7)
H62_2 H 0.2191 0.4922 0.4484
C74_2 C 0.4246(7) 0.6234(5) 0.3656(6)
H63_2 H 0.4266 0.6443 0.3366
C75_2 C 0.4176(7) 0.6372(5) 0.4158(6)
H64_2 H 0.4140 0.6691 0.4277
C76_2 C 0.7330(7) 0.5201(5) 0.6968(6)
H65_2 H 0.7338 0.5111 0.6612
C77_2 C 0.4434(6) 0.4626(6) 0.2815(5)
H66_2 H 0.4567 0.4315 0.2844
C78_2 C 0.2918(5) 0.6090(6) 0.5516(7)
H67_2 H 0.2995 0.6272 0.5816
C79_2 C 0.7064(6) 0.4184(5) 0.6714(5)
H68_2 H 0.6914 0.4370 0.6451
C80_2 C 0.4200(6) 0.4766(6) 0.2357(5)
C81_2 C 0.3001(4) 0.5649(5) 0.4823(5)
H69_2 H 0.3145 0.5459 0.4560
C82_2 C 0.7431(6) 0.3960(4) 0.7439(5)
H70_2 H 0.7578 0.3974 0.7772
C83_2 C 0.7228(6) 0.4978(5) 0.7864(6)
H71_2 H 0.7168 0.4736 0.8114
C84_2 C 0.4021(6) 0.5248(5) 0.2301(5)
H72_2 H 0.3876 0.5348 0.1986
C85_2 C 0.7365(6) 0.5690(5) 0.7111(6)
H73_2 H 0.7405 0.5928 0.6852
C86_2 C 0.4285(5) 0.5417(5) 0.3192(5)
C87_2 C 0.4234(4) 0.5590(4) 0.4155(5)
H74_2 H 0.4249 0.5266 0.4262
C88_2 C 0.4034(8) 0.3948(5) 0.1993(6)
H75_2 H 0.4027 0.3772 0.2308
C89_2 C 0.7313(5) 0.6707(4) 0.7485(5)
H76_2 H 0.7173 0.6693 0.7148
C90_2 C 0.7283(5) 0.4859(4) 0.7351(5)
C91_2 C 0.7341(5) 0.5819(4) 0.7633(5)
C92_2 C 0.7135(6) 0.3695(4) 0.6710(5)
H77_2 H 0.7040 0.3485 0.6439
C93_2 C 0.4473(5) 0.4957(6) 0.3239(5)
H78_2 H 0.4627 0.4863 0.3552
C94_2 C 0.4099(6) 0.4531(5) 0.1411(5)
H79_2 H 0.4140 0.4841 0.1268
C95_2 C 0.2147(4) 0.5652(5) 0.4461(7)
C96_2 C 0.4065(7) 0.5567(6) 0.2723(5)
H80_2 H 0.3948 0.5884 0.2692
O86_2 O 0.0435(10) 0.4771(10) 0.1820(11)
Co6_2 Co 0.40150(5) 0.41062(5) 0.02931(6)
Co12_2 Co 0.74887(5) 0.28379(5) 0.74240(5)
N33 N 0.8228(3) 0.7670(3) 0.7154(4)
N34 N 0.6803(4) 0.7972(5) 0.7720(5)
N35_2 N 0.4015(4) 0.5858(4) 0.6131(4)
N37_2 N 0.7629(4) 0.8557(4) 0.7172(4)
H87_2 H 0.414615 0.682035 0.502829
H88_2 H 0.360989 0.677273 0.530254
H89_2 H 0.427415 0.500111 0.559353
H90 H 0.378822 0.495318 0.522561
W1_2 W 0.308422(15) 0.680044(15) 0.123289(17)
W5_2 W 0.243881(18) 0.744105(19) 0.01486(2)
W7_2 W 0.362442(18) 0.790731(17) 0.06367(2)
W8_2 W 0.467664(17) 0.727579(18) 0.042647(19)
W10_2 W 0.413862(18) 0.617182(18) 0.10168(2)
W11_2 W 0.303670(18) 0.573551(17) 0.05583(2)
O1_2 O 0.3473(2) 0.6515(2) 0.0465(3)
O4_2 O 0.5249(3) 0.7394(3) 0.0657(3)
O6_2 O 0.2755(3) 0.5210(3) 0.0722(4)
O10_2 O 0.2576(3) 0.6039(3) 0.0104(3)
O12_2 O 0.4522(3) 0.5908(3) 0.1450(3)
O13_2 O 0.4408(3) 0.5980(3) 0.0351(3)
O15_2 O 0.3646(3) 0.5676(3) 0.0939(3)
O17_2 O 0.4442(3) 0.6785(3) 0.0892(3)
O18_2 O 0.4304(3) 0.7755(3) 0.0793(3)
O22_2 O 0.3442(3) 0.7381(3) 0.1095(3)
O23_2 O 0.2612(3) 0.7049(3) 0.0748(3)
O26_2 O 0.2828(3) 0.6161(3) 0.1124(3)
O30_2 O 0.2989(3) 0.7828(3) 0.0332(3)
O34_2 O 0.3859(2) 0.7251(2) 0.0053(3)
O36_2 O 0.3674(3) 0.6503(3) 0.1472(3)
O37_2 O 0.3545(3) 0.8410(3) 0.1025(4)
O39_2 O 0.1957(3) 0.7765(3) 0.0376(4)
Co3_3 Co 1.0000 0.4528(3) 0.2500
N1_2 N 0.9501(10) 0.5039(10) 0.2184(16)
N2_2 N 0.7481(4) 0.5755(4) 0.0153(5)
N4_2 N 0.8878(7) 0.5391(8) 0.1765(9)
N6_2 N 0.5880(5) 0.4428(4) 0.3062(4)
N12_2 N 0.5715(5) 0.5739(4) 0.1365(4)
N14_2 N 0.5985(4) 0.4142(4) 0.3869(4)
N16_2 N 0.5836(4) 0.5947(4) 0.0522(4)
C1_2 C 0.9195(10) 0.5037(11) 0.1809(11)
H1_2 H 0.9195 0.4784 0.1564
C2_2 C 0.894(2) 0.569(2) 0.216(2)
H2_2 H 0.8794 0.5989 0.2241
C3_2 C 0.9336(18) 0.5408(18) 0.247(2)
H3_2 H 0.9445 0.5486 0.2805
C9_2 C 0.8529(6) 0.5485(8) 0.1319(9)
C10_2 C 0.8430(7) 0.5944(8) 0.1175(9)
H9_2 H 0.8597 0.6201 0.1335
C11_2 C 0.8071(6) 0.6041(7) 0.0775(9)
H10_2 H 0.7990 0.6358 0.0681
C15_2 C 0.6043(7) 0.3767(6) 0.3509(6)
H14_2 H 0.6120 0.3446 0.3593
C16_2 C 0.8286(8) 0.5090(7) 0.1088(9)
H15_2 H 0.8346 0.4773 0.1202
C19_2 C 0.7960(6) 0.5181(5) 0.0689(7)
H18_2 H 0.7809 0.4922 0.0516
C20_2 C 0.5754(7) 0.6234(5) 0.1344(6)
H19_2 H 0.5734 0.6443 0.1634
C21_2 C 0.5824(7) 0.6372(5) 0.0842(6)
H20_2 H 0.5860 0.6691 0.0723
C24_2 C 0.5566(6) 0.4626(6) 0.2185(5)
H23_2 H 0.5433 0.4315 0.2156
C27_2 C 0.5800(6) 0.4766(6) 0.2643(5)
C30_2 C 0.6999(4) 0.5649(5) 0.0177(5)
H27_2 H 0.6855 0.5459 0.0440
C34_2 C 0.5979(6) 0.5248(5) 0.2699(5)
H31_2 H 0.6124 0.5348 0.3014
C36_2 C 0.5715(5) 0.5417(5) 0.1808(5)
C37_2 C 0.5766(4) 0.5590(4) 0.0845(5)
H33_2 H 0.5751 0.5266 0.0738
C38_2 C 0.5966(8) 0.3948(5) 0.3007(6)
H34_2 H 0.5973 0.3772 0.2692
C45_2 C 0.5527(5) 0.4957(6) 0.1761(5)
H38_2 H 0.5373 0.4863 0.1448
C46_2 C 0.5901(6) 0.4531(5) 0.3589(5)
H39_2 H 0.5860 0.4841 0.3732
C47_2 C 0.7853(4) 0.5652(5) 0.0539(7)
C48_2 C 0.5935(7) 0.5567(6) 0.2277(5)
H40_2 H 0.6052 0.5884 0.2308
O43_2 O 0.9565(10) 0.4771(10) 0.3180(11)
Co7_2 Co 0.59850(5) 0.41062(5) 0.47069(6)
W2_2 W 0.463154(15) 0.613414(16) 0.965668(18)
W3_2 W 0.292585(17) 0.737788(17) 0.891501(19)
W4_2 W 0.353976(18) 0.569793(17) 0.91937(2)
W6_2 W 0.410812(19) 0.784817(19) 0.93969(2)
W9_2 W 0.239763(18) 0.636908(18) 0.94661(2)
W12_2 W 0.40560(2) 0.67014(2) 0.86378(2)
Co1_2 Co 0.59850(5) 0.58938(5) 0.97069(6)
P1_2 P 0.35548(8) 0.67911(8) 0.99435(9)
O2_2 O 0.3432(3) 0.5142(3) 0.8925(3)
O3_2 O 0.5196(3) 0.5861(3) 0.9640(3)
O5_2 O 0.2741(3) 0.7674(3) 0.8353(3)
O7_2 O 0.3054(2) 0.6935(2) 0.9709(3)
O8_2 O 0.3758(3) 0.6066(3) 0.8608(3)
O9_2 O 0.3439(3) 0.7774(2) 0.9154(3)
O11_2 O 0.4242(3) 0.6778(4) 0.8011(3)
O14_2 O 0.4323(3) 0.8314(3) 0.9015(4)
O16_2 O 0.3830(2) 0.6463(2) 0.9548(3)
O19_2 O 0.3849(3) 0.8199(3) 0.9997(3)
O20_2 O 0.2477(3) 0.6835(3) 0.8909(3)
O21_2 O 0.3383(3) 0.5566(3) 0.9929(3)
O24_2 O 0.2501(3) 0.7662(3) 0.9435(3)
O25_2 O 0.4781(3) 0.6756(3) 0.9928(3)
O27_2 O 0.4613(3) 0.6404(3) 0.8958(3)
O28_2 O 0.3413(3) 0.6964(3) 0.8636(3)
O29_2 O 0.2105(3) 0.6876(3) 0.9870(3)
O31_2 O 0.4673(3) 0.7709(3) 0.9815(3)
O32_2 O 0.4221(3) 0.5619(3) 0.9391(3)
O33_2 O 0.4236(3) 0.7299(3) 0.8969(3)
O38_2 O 0.1899(3) 0.6058(3) 0.9250(4)
O40_2 O 0.2924(3) 0.6002(3) 0.9158(3)
O41_2 O 0.5887(3) 0.5114(3) 0.9738(3)
O42_2 O 0.6040(3) 0.6675(3) 0.9672(4)
N3_2 N 0.1772(3) 0.7670(3) 0.7846(4)
N5_2 N 0.0967(4) 0.7625(4) 0.7861(4)
N7_2 N 0.6758(4) 0.5846(4) 0.9783(5)
N8_2 N 0.2743(4) 0.4351(4) 0.7819(4)
N9_2 N 0.2553(4) 0.7111(4) 0.7286(4)
N10_2 N 0.2602(4) 0.6318(4) 0.7217(4)
N11_2 N 0.3197(4) 0.7972(5) 0.7280(5)
N13_2 N 0.4007(5) 0.8005(5) 0.7225(5)
N15_2 N 0.2629(4) 0.3557(4) 0.7828(4)
C4_2 C 0.3307(11) 0.7983(10) 0.6779(12)
H4_2 H 0.3082 0.7977 0.6501
C5_2 C 0.3826(12) 0.8008(12) 0.6719(13)
H5_2 H 0.4004 0.8023 0.6404
C6_2 C 0.4660(8) 0.7895(8) 0.7847(10)
H6_2 H 0.4433 0.7774 0.8090
C7_2 C 0.4851(7) 0.7968(9) 0.6996(9)
H7_2 H 0.4768 0.7993 0.6639
C8_2 C 0.2352(8) 0.6960(8) 0.6819(9)
H8_2 H 0.2214 0.7169 0.6570
C12_2 C 0.2377(6) 0.6468(7) 0.6760(7)
H11_2 H 0.2268 0.6279 0.6477
C13_2 C 0.7548(6) 0.6030(6) 0.9690(7)
H12_2 H 0.7841 0.6147 0.9551
C14_2 C 0.1124(5) 0.7403(8) 0.8303(7)
H13_2 H 0.0932 0.7260 0.8566
C17_2 C 0.0381(5) 0.7678(7) 0.7137(6)
H16_2 H 0.0636 0.7682 0.6892
C18_2 C 0.2739(6) 0.5460(5) 0.6977(6)
H17_2 H 0.2769 0.5545 0.6621
C22_2 C 0.2670(7) 0.5201(5) 0.8032(6)
H21_2 H 0.2662 0.5111 0.8388
C23_2 C 0.1619(6) 0.7427(6) 0.8288(7)
H22_2 H 0.1826 0.7297 0.8545
C25_2 C 0.7082(5) 0.6090(6) 0.9484(7)
H24_2 H 0.7005 0.6272 0.9184
C26_2 C 0.2936(6) 0.4184(5) 0.8286(5)
H25_2 H 0.3086 0.4370 0.8549
C28_2 C 0.0474(5) 0.7669(5) 0.7666(5)
C29_2 C 0.3610(4) 0.7962(5) 0.7536(5)
H26_2 H 0.3629 0.7928 0.7903
C31_2 C 0.0108(5) 0.7679(6) 0.8027(6)
H28_2 H 0.0182 0.7688 0.8387
C32_2 C 0.2569(6) 0.3960(4) 0.7561(5)
H29_2 H 0.2422 0.3974 0.7228
C33_2 C 0.2772(6) 0.4978(5) 0.7136(6)
H30_2 H 0.2832 0.4736 0.6886
C35_2 C 0.2635(6) 0.5690(5) 0.7889(6)
H32_2 H 0.2595 0.5928 0.8148
C39_2 C 0.2687(5) 0.6707(4) 0.7515(5)
H35_2 H 0.2827 0.6693 0.7852
C40_2 C 0.2717(5) 0.4859(4) 0.7649(5)
C41_2 C 0.1371(4) 0.7788(5) 0.7604(5)
H36_2 H 0.1361 0.7964 0.7289
C42_2 C 0.2659(5) 0.5819(4) 0.7367(5)
C43_2 C 0.4520(4) 0.7998(6) 0.7357(5)
C44_2 C 0.2865(6) 0.3695(4) 0.8290(5)
H37_2 H 0.2960 0.3485 0.8561
N20_2 N 0.5993(5) 0.8005(5) 0.7775(5)
C55_2 C 0.6693(11) 0.7983(10) 0.8221(12)
H46_2 H 0.6918 0.7977 0.8499
C56_2 C 0.6174(12) 0.8008(12) 0.8281(13)
H47_2 H 0.5996 0.8023 0.8596
C57_2 C 0.5340(8) 0.7895(8) 0.7153(10)
H48_2 H 0.5567 0.7774 0.6910
C58_2 C 0.5149(7) 0.7968(9) 0.8004(9)
H49_2 H 0.5232 0.7993 0.8361
C59_2 C 0.6390(4) 0.7962(5) 0.7464(5)
H50_2 H 0.6371 0.7928 0.7097
C60_2 C 0.5480(4) 0.7998(6) 0.7643(5)
Co13_2 Co 0.25113(5) 0.28379(5) 0.75760(5)
N36_2 N 0.5985(4) 0.5858(4) 0.8869(4)
N38_2 N 0.2371(4) 0.8557(4) 0.7828(4)
H81_2 H 0.585385 0.682035 0.997171
H82_2 H 0.639011 0.677273 0.969746
H83_2 H 0.572585 0.500111 0.940647
H84_2 H 0.621178 0.495318 0.977439
N18_2 N 0.9033(4) 0.7625(4) 0.7139(4)
C49_2 C 0.8876(5) 0.7403(8) 0.6697(7)
H41_2 H 0.9068 0.7260 0.6434
C50_2 C 0.9619(5) 0.7678(7) 0.7863(6)
H42_2 H 0.9364 0.7682 0.8108
C51_2 C 0.8381(6) 0.7427(6) 0.6712(7)
H43_2 H 0.8174 0.7297 0.6455
C52_2 C 0.9526(5) 0.7669(5) 0.7334(5)
C53_2 C 0.9892(5) 0.7679(6) 0.6973(6)
H44_2 H 0.9818 0.7688 0.6613
C54_2 C 0.8629(4) 0.7788(5) 0.7396(5)
H45_2 H 0.8639 0.7964 0.7711
H91_2 H 0.549681 0.987311 0.81508
W13_3 W 0.191578(15) 0.180044(15) 0.123289(17)
W17_3 W 0.256119(18) 0.244105(19) 0.01486(2)
W19_3 W 0.137558(18) 0.290731(17) 0.06367(2)
W20_3 W 0.032336(17) 0.227579(18) 0.042647(19)
W22_3 W 0.086138(18) 0.117182(18) 0.10168(2)
W23_3 W 0.196330(18) 0.073551(17) 0.05583(2)
O44_3 O 0.1527(2) 0.1515(2) 0.0465(3)
O49_3 O 0.2245(3) 0.0210(3) 0.0722(4)
O53_3 O 0.2424(3) 0.1039(3) 0.0104(3)
O55_3 O 0.0478(3) 0.0908(3) 0.1450(3)
O56_3 O 0.0592(3) 0.0980(3) 0.0351(3)
O58_3 O 0.1354(3) 0.0676(3) 0.0939(3)
O60_3 O 0.0558(3) 0.1785(3) 0.0892(3)
O61_3 O 0.0696(3) 0.2755(3) 0.0793(3)
O65_3 O 0.1558(3) 0.2381(3) 0.1095(3)
O66_3 O 0.2388(3) 0.2049(3) 0.0748(3)
O69_3 O 0.2172(3) 0.1161(3) 0.1124(3)
O73_3 O 0.2011(3) 0.2828(3) 0.0332(3)
O77_3 O 0.1141(2) 0.2251(2) 0.0053(3)
O78_2 O 0.2189(3) 0.1939(3) 0.1823(3)
O79_3 O 0.1326(3) 0.1503(3) 0.1472(3)
O80_3 O 0.1455(3) 0.3410(3) 0.1025(4)
O82_3 O 0.3043(3) 0.2765(3) 0.0376(4)
W14_3 W 0.036846(15) 0.113414(16) 0.965668(18)
W15_3 W 0.207415(17) 0.237788(17) 0.891501(19)
W16_3 W 0.146024(18) 0.069793(17) 0.91937(2)
W18_3 W 0.089188(19) 0.284817(19) 0.93969(2)
W21_3 W 0.260237(18) 0.136908(18) 0.94661(2)
W24_3 W 0.09440(2) 0.17014(2) 0.86378(2)
P2_3 P 0.14452(8) 0.17911(8) 0.99435(9)
O45_3 O 0.1568(3) 0.0142(3) 0.8925(3)
O48_3 O 0.2259(3) 0.2674(3) 0.8353(3)
O50_3 O 0.1946(2) 0.1935(2) 0.9709(3)
O51_3 O 0.1242(3) 0.1066(3) 0.8608(3)
O52_3 O 0.1561(3) 0.2774(2) 0.9154(3)
O54_3 O 0.0758(3) 0.1778(4) 0.8011(3)
O57_3 O 0.0677(3) 0.3314(3) 0.9015(4)
O59_3 O 0.1170(2) 0.1463(2) 0.9548(3)
O62_3 O 0.1151(3) 0.3199(3) 0.9997(3)
O63_3 O 0.2523(3) 0.1835(3) 0.8909(3)
O64_3 O 0.1617(3) 0.0566(3) 0.9929(3)
O67_3 O 0.2499(3) 0.2662(3) 0.9435(3)
O68_3 O 0.0219(3) 0.1756(3) 0.9928(3)
O70_3 O 0.0387(3) 0.1404(3) 0.8958(3)
O71_3 O 0.1587(3) 0.1964(3) 0.8636(3)
O72_3 O 0.2895(3) 0.1876(3) 0.9870(3)
O74_3 O 0.0327(3) 0.2709(3) 0.9815(3)
O75_3 O 0.0779(3) 0.0619(3) 0.9391(3)
O76_3 O 0.0764(3) 0.2299(3) 0.8969(3)
O81_3 O 0.3101(3) 0.1058(3) 0.9250(4)
O83_3 O 0.2076(3) 0.1002(3) 0.9158(3)
N27_3 N 0.2447(4) 0.2111(4) 0.7286(4)
N28_3 N 0.2398(4) 0.1318(4) 0.7217(4)
C64_3 C 0.2648(8) 0.1960(8) 0.6819(9)
H54_3 H 0.2786 0.2169 0.6570
C68_3 C 0.2623(6) 0.1468(7) 0.6760(7)
H57_3 H 0.2732 0.1279 0.6477
C72_3 C 0.2261(6) 0.0460(5) 0.6977(6)
H61_3 H 0.2231 0.0545 0.6621
C76_3 C 0.2330(7) 0.0201(5) 0.8032(6)
H65_3 H 0.2338 0.0111 0.8388
C85_3 C 0.2365(6) 0.0690(5) 0.7889(6)
H73_3 H 0.2405 0.0928 0.8148
C89_3 C 0.2313(5) 0.1707(4) 0.7515(5)
H76_3 H 0.2173 0.1693 0.7852
C91_3 C 0.2341(5) 0.0819(4) 0.7367(5)
O88_2 O 0.2811(3) 0.3061(3) 0.6823(3)
N33_2 N 0.3228(3) 0.2670(3) 0.7846(4)
N34_2 N 0.1803(4) 0.2972(5) 0.7280(5)
N26_3 N 0.2257(4) 0.9351(4) 0.7819(4)
C79_3 C 0.2064(6) 0.9184(5) 0.8286(5)
H68_3 H 0.1914 0.9370 0.8549
C82_3 C 0.2431(6) 0.8960(4) 0.7561(5)
H70_3 H 0.2578 0.8974 0.7228
C83_3 C 0.2228(6) 0.9978(5) 0.7136(6)
H71_3 H 0.2168 0.9736 0.6886
C90_3 C 0.2283(5) 0.9859(4) 0.7649(5)
C92_3 C 0.2135(6) 0.8695(4) 0.8290(5)
H77_3 H 0.2040 0.8485 0.8561
O3_3 O 0.0196(3) 0.0861(3) 0.5360(3)
O4_3 O 0.0249(3) 0.2394(3) 0.4343(3)
O41_3 O 0.0887(3) 0.0114(3) 0.5262(3)
O42_3 O 0.1040(3) 0.1675(3) 0.5328(4)
N1_3 N 0.4501(10) 0.0039(10) 0.2816(16)
N2_3 N 0.2481(4) 0.0755(4) 0.4847(5)
N4_3 N 0.3878(7) 0.0391(8) 0.3235(9)
N7_3 N 0.1758(4) 0.0846(4) 0.5217(5)
N12_3 N 0.0715(5) 0.0739(4) 0.3635(4)
N16_3 N 0.0836(4) 0.0947(4) 0.4478(4)
C1_3 C 0.4195(10) 0.0037(11) 0.3191(11)
C2_3 C 0.394(2) 0.069(2) 0.284(2)
H2_3 H 0.3794 0.0989 0.2759
C3_3 C 0.4336(18) 0.0408(18) 0.253(2)
H3_3 H 0.4445 0.0486 0.2195
C9_3 C 0.3529(6) 0.0485(8) 0.3681(9)
C10_3 C 0.3430(7) 0.0944(8) 0.3825(9)
H9_3 H 0.3597 0.1201 0.3665
C11_3 C 0.3071(6) 0.1041(7) 0.4225(9)
H10_3 H 0.2990 0.1358 0.4319
C13_3 C 0.2548(6) 0.1030(6) 0.5310(7)
H12_3 H 0.2841 0.1147 0.5449
C16_3 C 0.3286(8) 0.0090(7) 0.3912(9)
C19_3 C 0.2960(6) 0.0181(5) 0.4311(7)
C20_3 C 0.0754(7) 0.1234(5) 0.3656(6)
H19_3 H 0.0734 0.1443 0.3366
C21_3 C 0.0824(7) 0.1372(5) 0.4158(6)
H20_3 H 0.0860 0.1691 0.4277
C25_3 C 0.2082(5) 0.1090(6) 0.5516(7)
H24_3 H 0.2005 0.1272 0.5816
C30_3 C 0.1999(4) 0.0649(5) 0.4823(5)
H27_3 H 0.1855 0.0459 0.4560
C34_3 C 0.0979(6) 0.0248(5) 0.2301(5)
H31_3 H 0.1124 0.0348 0.1986
C36_3 C 0.0715(5) 0.0417(5) 0.3192(5)
C37_3 C 0.0766(4) 0.0590(4) 0.4155(5)
H33_3 H 0.0751 0.0266 0.4262
C47_3 C 0.2853(4) 0.0652(5) 0.4461(7)
C48_3 C 0.0935(7) 0.0567(6) 0.2723(5)
H40_3 H 0.1052 0.0884 0.2692
N20_3 N 0.0993(5) 0.3005(5) 0.7225(5)
C55_3 C 0.1693(11) 0.2983(10) 0.6779(12)
H46_3 H 0.1918 0.2977 0.6501
C56_3 C 0.1174(12) 0.3008(12) 0.6719(13)
H47_3 H 0.0996 0.3023 0.6404
C57_3 C 0.0340(8) 0.2895(8) 0.7847(10)
H48_3 H 0.0567 0.2774 0.8090
C58_3 C 0.0149(7) 0.2968(9) 0.6996(9)
H49_3 H 0.0232 0.2993 0.6639
C59_3 C 0.1390(4) 0.2962(5) 0.7536(5)
H50_3 H 0.1371 0.2928 0.7903
C60_3 C 0.0480(4) 0.2998(6) 0.7357(5)
O47_3 O 0.9751(3) 0.2394(3) 0.0657(3)
N21_3 N 0.5499(10) 0.0039(10) 0.2184(16)
N22_3 N 0.7519(4) 0.0755(4) 0.0153(5)
N23_3 N 0.6122(7) 0.0391(8) 0.1765(9)
N29_3 N 0.9285(5) 0.0739(4) 0.1365(4)
N32_3 N 0.9164(4) 0.0947(4) 0.0522(4)
C61_3 C 0.5805(10) 0.0037(11) 0.1809(11)
C62_3 C 0.606(2) 0.069(2) 0.216(2)
H52_3 H 0.6206 0.0989 0.2241
C63_3 C 0.5664(18) 0.0408(18) 0.247(2)
H53_3 H 0.5555 0.0486 0.2805
C65_3 C 0.6471(6) 0.0485(8) 0.1319(9)
C66_3 C 0.6570(7) 0.0944(8) 0.1175(9)
H55_3 H 0.6403 0.1201 0.1335
C67_3 C 0.6929(6) 0.1041(7) 0.0775(9)
H56_3 H 0.7010 0.1358 0.0681
C71_3 C 0.6714(8) 0.0090(7) 0.1088(9)
C73_3 C 0.7040(6) 0.0181(5) 0.0689(7)
C74_3 C 0.9246(7) 0.1234(5) 0.1344(6)
H63_3 H 0.9266 0.1443 0.1634
C75_3 C 0.9176(7) 0.1372(5) 0.0842(6)
H64_3 H 0.9140 0.1691 0.0723
C81_3 C 0.8001(4) 0.0649(5) 0.0177(5)
H69_3 H 0.8145 0.0459 0.0440
C84_3 C 0.9021(6) 0.0248(5) 0.2699(5)
H72_3 H 0.8876 0.0348 0.3014
C86_3 C 0.9285(5) 0.0417(5) 0.1808(5)
C87_3 C 0.9234(4) 0.0590(4) 0.0845(5)
H74_3 H 0.9249 0.0266 0.0738
C95_3 C 0.7147(4) 0.0652(5) 0.0539(7)
C96_3 C 0.9065(7) 0.0567(6) 0.2277(5)
H80_3 H 0.8948 0.0884 0.2308
H81_3 H 0.0853853 0.182035 0.502829
H82_3 H 0.139011 0.177273 0.530254
H83_3 H 0.0725846 0.000110982 0.559353
H91_3 H 0.549681 0.0126887 0.31508
O46_3 O 0.9804(3) 0.0861(3) 0.9640(3)
O84_3 O 0.9113(3) 0.0114(3) 0.9738(3)
O85_3 O 0.8960(3) 0.1675(3) 0.9672(4)
N25_3 N 0.8242(4) 0.0846(4) 0.9783(5)
C69_3 C 0.7452(6) 0.1030(6) 0.9690(7)
H58_3 H 0.7159 0.1147 0.9551
C78_3 C 0.7918(5) 0.1090(6) 0.9484(7)
H67_3 H 0.7995 0.1272 0.9184
H87_3 H 0.914615 0.182035 0.997171
H88_3 H 0.860989 0.177273 0.969746
H89_3 H 0.927415 0.000110982 0.940647
Co3_4 Co 0.5000 0.9528(3) 0.2500
N6_3 N 0.0880(5) 0.9428(4) 0.1938(4)
H1_3 H 0.4195 0.9784 0.3436
C15_3 C 0.1043(7) 0.8767(6) 0.1491(6)
H14_3 H 0.1120 0.8446 0.1407
H15_3 H 0.3346 0.9773 0.3798
H18_3 H 0.2809 0.9922 0.4484
C24_3 C 0.0566(6) 0.9626(6) 0.2815(5)
H23_3 H 0.0433 0.9315 0.2844
C27_3 C 0.0800(6) 0.9766(6) 0.2357(5)
C38_3 C 0.0966(8) 0.8948(5) 0.1993(6)
H34_3 H 0.0973 0.8772 0.2308
C45_3 C 0.0527(5) 0.9957(6) 0.3239(5)
H38_3 H 0.0373 0.9863 0.3552
C46_3 C 0.0901(6) 0.9531(5) 0.1411(5)
H39_3 H 0.0860 0.9841 0.1268
O43_3 O 0.4565(10) 0.9771(10) 0.1820(11)
N24_3 N 0.9120(5) 0.9428(4) 0.3062(4)
H51_3 H 0.5805 0.9784 0.1564
C70_3 C 0.8957(7) 0.8767(6) 0.3509(6)
H59_3 H 0.8880 0.8446 0.3593
H60_3 H 0.6654 0.9773 0.1202
H62_3 H 0.7191 0.9922 0.0516
C77_3 C 0.9434(6) 0.9626(6) 0.2185(5)
H66_3 H 0.9567 0.9315 0.2156
C80_3 C 0.9200(6) 0.9766(6) 0.2643(5)
C88_3 C 0.9034(8) 0.8948(5) 0.3007(6)
H75_3 H 0.9027 0.8772 0.2692
C93_3 C 0.9473(5) 0.9957(6) 0.1761(5)
H78_3 H 0.9627 0.9863 0.1448
C94_3 C 0.9099(6) 0.9531(5) 0.3589(5)
H79_3 H 0.9140 0.9841 0.3732
O86_3 O 0.5435(10) 0.9771(10) 0.3180(11)
H84_3 H 0.121178 0.995318 0.522561
W1_3 W 0.808422(15) 0.180044(15) 0.376711(17)
W2_3 W 0.963154(15) 0.113414(16) 0.534332(18)
W3_3 W 0.792585(17) 0.237788(17) 0.608499(19)
W4_3 W 0.853976(18) 0.069793(17) 0.58063(2)
W5_3 W 0.743881(18) 0.244105(19) 0.48514(2)
W6_3 W 0.910812(19) 0.284817(19) 0.56031(2)
W7_3 W 0.862442(18) 0.290731(17) 0.43633(2)
W8_3 W 0.967664(17) 0.227579(18) 0.457353(19)
W9_3 W 0.739763(18) 0.136908(18) 0.55339(2)
W10_3 W 0.913862(18) 0.117182(18) 0.39832(2)
W11_3 W 0.803670(18) 0.073551(17) 0.44417(2)
W12_3 W 0.90560(2) 0.17014(2) 0.63622(2)
P1_3 P 0.85548(8) 0.17911(8) 0.50565(9)
O1_3 O 0.8473(2) 0.1515(2) 0.4535(3)
O2_3 O 0.8432(3) 0.0142(3) 0.6075(3)
O5_3 O 0.7741(3) 0.2674(3) 0.6647(3)
O6_3 O 0.7755(3) 0.0210(3) 0.4278(4)
O7_3 O 0.8054(2) 0.1935(2) 0.5291(3)
O8_3 O 0.8758(3) 0.1066(3) 0.6392(3)
O9_3 O 0.8439(3) 0.2774(2) 0.5846(3)
O10_3 O 0.7576(3) 0.1039(3) 0.4896(3)
O11_3 O 0.9242(3) 0.1778(4) 0.6989(3)
O12_3 O 0.9522(3) 0.0908(3) 0.3550(3)
O13_3 O 0.9408(3) 0.0980(3) 0.4649(3)
O14_3 O 0.9323(3) 0.3314(3) 0.5985(4)
O15_3 O 0.8646(3) 0.0676(3) 0.4061(3)
O16_3 O 0.8830(2) 0.1463(2) 0.5452(3)
O17_3 O 0.9442(3) 0.1785(3) 0.4108(3)
O18_3 O 0.9304(3) 0.2755(3) 0.4207(3)
O19_3 O 0.8849(3) 0.3199(3) 0.5003(3)
O20_3 O 0.7477(3) 0.1835(3) 0.6091(3)
O21_3 O 0.8383(3) 0.0566(3) 0.5071(3)
O22_3 O 0.8442(3) 0.2381(3) 0.3905(3)
O23_3 O 0.7612(3) 0.2049(3) 0.4252(3)
O24_3 O 0.7501(3) 0.2662(3) 0.5565(3)
O25_3 O 0.9781(3) 0.1756(3) 0.5072(3)
O26_3 O 0.7828(3) 0.1161(3) 0.3876(3)
O27_3 O 0.9613(3) 0.1404(3) 0.6042(3)
O28_3 O 0.8413(3) 0.1964(3) 0.6364(3)
O29_3 O 0.7105(3) 0.1876(3) 0.5130(3)
O30_3 O 0.7989(3) 0.2828(3) 0.4668(3)
O31_3 O 0.9673(3) 0.2709(3) 0.5185(3)
O32_3 O 0.9221(3) 0.0619(3) 0.5609(3)
O33_3 O 0.9236(3) 0.2299(3) 0.6031(3)
O34_3 O 0.8859(2) 0.2251(2) 0.4947(3)
O35_2 O 0.7811(3) 0.1939(3) 0.3177(3)
O36_3 O 0.8674(3) 0.1503(3) 0.3528(3)
O37_3 O 0.8545(3) 0.3410(3) 0.3975(4)
O38_3 O 0.6899(3) 0.1058(3) 0.5750(4)
O39_3 O 0.6957(3) 0.2765(3) 0.4624(4)
O40_3 O 0.7924(3) 0.1002(3) 0.5842(3)
N3_3 N 0.6772(3) 0.2670(3) 0.7154(4)
N5_3 N 0.5967(4) 0.2625(4) 0.7139(4)
N9_3 N 0.7553(4) 0.2111(4) 0.7714(4)
N10_3 N 0.7602(4) 0.1318(4) 0.7783(4)
N11_3 N 0.8197(4) 0.2972(5) 0.7720(5)
N13_3 N 0.9007(5) 0.3005(5) 0.7775(5)
C4_3 C 0.8307(11) 0.2983(10) 0.8221(12)
H4_3 H 0.8082 0.2977 0.8499
C5_3 C 0.8826(12) 0.3008(12) 0.8281(13)
H5_3 H 0.9004 0.3023 0.8596
C6_3 C 0.9660(8) 0.2895(8) 0.7153(10)
H6_3 H 0.9433 0.2774 0.6910
C7_3 C 0.9851(7) 0.2968(9) 0.8004(9)
H7_3 H 0.9768 0.2993 0.8361
C8_3 C 0.7352(8) 0.1960(8) 0.8181(9)
H8_3 H 0.7214 0.2169 0.8430
C12_3 C 0.7377(6) 0.1468(7) 0.8240(7)
H11_3 H 0.7268 0.1279 0.8523
C14_3 C 0.6124(5) 0.2403(8) 0.6697(7)
H13_3 H 0.5932 0.2260 0.6434
C17_3 C 0.5381(5) 0.2678(7) 0.7863(6)
H16_3 H 0.5636 0.2682 0.8108
C18_3 C 0.7739(6) 0.0460(5) 0.8023(6)
H17_3 H 0.7769 0.0545 0.8379
C22_3 C 0.7670(7) 0.0201(5) 0.6968(6)
H21_3 H 0.7662 0.0111 0.6612
C23_3 C 0.6619(6) 0.2427(6) 0.6712(7)
H22_3 H 0.6826 0.2297 0.6455
C28_3 C 0.5474(5) 0.2669(5) 0.7334(5)
C29_3 C 0.8610(4) 0.2962(5) 0.7464(5)
H26_3 H 0.8629 0.2928 0.7097
C31_3 C 0.5108(5) 0.2679(6) 0.6973(6)
H28_3 H 0.5182 0.2688 0.6613
C35_3 C 0.7635(6) 0.0690(5) 0.7111(6)
H32_3 H 0.7595 0.0928 0.6852
C39_3 C 0.7687(5) 0.1707(4) 0.7485(5)
H35_3 H 0.7827 0.1693 0.7148
C41_3 C 0.6371(4) 0.2788(5) 0.7396(5)
H36_3 H 0.6361 0.2964 0.7711
C42_3 C 0.7659(5) 0.0819(4) 0.7633(5)
C43_3 C 0.9520(4) 0.2998(6) 0.7643(5)
N18_3 N 0.4033(4) 0.2625(4) 0.7861(4)
C49_3 C 0.3876(5) 0.2403(8) 0.8303(7)
H41_3 H 0.4068 0.2260 0.8566
C50_3 C 0.4619(5) 0.2678(7) 0.7137(6)
H42_3 H 0.4364 0.2682 0.6892
C51_3 C 0.3381(6) 0.2427(6) 0.8288(7)
H43_3 H 0.3174 0.2297 0.8545
C52_3 C 0.4526(5) 0.2669(5) 0.7666(5)
C53_3 C 0.4892(5) 0.2679(6) 0.8027(6)
H44_3 H 0.4818 0.2688 0.8387
C54_3 C 0.3629(4) 0.2788(5) 0.7604(5)
H45_3 H 0.3639 0.2964 0.7289
O87_2 O 0.7189(3) 0.3061(3) 0.8177(3)
N8_3 N 0.7743(4) 0.9351(4) 0.7181(4)
C26_3 C 0.7936(6) 0.9184(5) 0.6714(5)
H25_3 H 0.8086 0.9370 0.6451
C32_3 C 0.7569(6) 0.8960(4) 0.7439(5)
H29_3 H 0.7422 0.8974 0.7772
C33_3 C 0.7772(6) 0.9978(5) 0.7864(6)
H30_3 H 0.7832 0.9736 0.8114
C40_3 C 0.7717(5) 0.9859(4) 0.7351(5)
C44_3 C 0.7865(6) 0.8695(4) 0.6710(5)
H37_3 H 0.7960 0.8485 0.6439
N17_2 N 0.1772(3) 0.2330(3) 0.2846(4)
N18_4 N 0.0967(4) 0.2375(4) 0.2861(4)
C49_4 C 0.1124(5) 0.2597(8) 0.3303(7)
H41_4 H 0.0932 0.2740 0.3566
C50_4 C 0.0381(5) 0.2322(7) 0.2137(6)
H42_4 H 0.0636 0.2318 0.1892
C51_4 C 0.1619(6) 0.2573(6) 0.3288(7)
H43_4 H 0.1826 0.2703 0.3545
C52_4 C 0.0474(5) 0.2331(5) 0.2666(5)
C53_4 C 0.0108(5) 0.2321(6) 0.3027(6)
H44_4 H 0.0182 0.2312 0.3387
C54_4 C 0.1371(4) 0.2212(5) 0.2604(5)
H45_4 H 0.1361 0.2036 0.2289
W2_4 W 0.536846(15) 0.386586(16) 0.034332(18)
W3_4 W 0.707415(17) 0.262212(17) 0.108499(19)
W4_4 W 0.646024(18) 0.430207(17) 0.08063(2)
W6_4 W 0.589188(19) 0.215183(19) 0.06031(2)
W9_4 W 0.760237(18) 0.363092(18) 0.05339(2)
W12_4 W 0.59440(2) 0.32986(2) 0.13622(2)
P1_4 P 0.64452(8) 0.32089(8) 0.00565(9)
O2_4 O 0.6568(3) 0.4858(3) 0.1075(3)
O3_4 O 0.4804(3) 0.4139(3) 0.0360(3)
O5_4 O 0.7259(3) 0.2326(3) 0.1647(3)
O7_4 O 0.6946(2) 0.3065(2) 0.0291(3)
O8_4 O 0.6242(3) 0.3934(3) 0.1392(3)
O9_4 O 0.6561(3) 0.2226(2) 0.0846(3)
O11_4 O 0.5758(3) 0.3222(4) 0.1989(3)
O14_4 O 0.5677(3) 0.1686(3) 0.0985(4)
O16_4 O 0.6170(2) 0.3537(2) 0.0452(3)
O19_4 O 0.6151(3) 0.1801(3) 0.0003(3)
O20_4 O 0.7523(3) 0.3165(3) 0.1091(3)
O21_4 O 0.6617(3) 0.4434(3) 0.0071(3)
O24_4 O 0.7499(3) 0.2338(3) 0.0565(3)
O25_4 O 0.5219(3) 0.3244(3) 0.0072(3)
O27_4 O 0.5387(3) 0.3596(3) 0.1042(3)
O28_4 O 0.6587(3) 0.3036(3) 0.1364(3)
O29_4 O 0.7895(3) 0.3124(3) 0.0130(3)
O31_4 O 0.5327(3) 0.2291(3) 0.0185(3)
O32_4 O 0.5779(3) 0.4381(3) 0.0609(3)
O33_4 O 0.5764(3) 0.2701(3) 0.1031(3)
O38_4 O 0.8101(3) 0.3942(3) 0.0750(4)
O40_4 O 0.7076(3) 0.3998(3) 0.0842(3)
O41_4 O 0.4113(3) 0.4886(3) 0.0262(3)
O42_4 O 0.3960(3) 0.3325(3) 0.0328(4)
N3_4 N 0.8228(3) 0.2330(3) 0.2154(4)
N5_4 N 0.9033(4) 0.2375(4) 0.2139(4)
N7_4 N 0.3242(4) 0.4154(4) 0.0217(5)
N8_4 N 0.7257(4) 0.5649(4) 0.2181(4)
N9_4 N 0.7447(4) 0.2889(4) 0.2714(4)
N10_4 N 0.7398(4) 0.3682(4) 0.2783(4)
N11_4 N 0.6803(4) 0.2028(5) 0.2720(5)
N13_4 N 0.5993(5) 0.1995(5) 0.2775(5)
C4_4 C 0.6693(11) 0.2017(10) 0.3221(12)
H4_4 H 0.6918 0.2023 0.3499
C5_4 C 0.6174(12) 0.1992(12) 0.3281(13)
H5_4 H 0.5996 0.1977 0.3596
C6_4 C 0.5340(8) 0.2105(8) 0.2153(10)
H6_4 H 0.5567 0.2226 0.1910
C7_4 C 0.5149(7) 0.2032(9) 0.3004(9)
H7_4 H 0.5232 0.2007 0.3361
C8_4 C 0.7648(8) 0.3040(8) 0.3181(9)
H8_4 H 0.7786 0.2831 0.3430
C12_4 C 0.7623(6) 0.3532(7) 0.3240(7)
H11_4 H 0.7732 0.3721 0.3523
C13_4 C 0.2452(6) 0.3970(6) 0.0310(7)
H12_4 H 0.2159 0.3853 0.0449
C14_4 C 0.8876(5) 0.2597(8) 0.1697(7)
H13_4 H 0.9068 0.2740 0.1434
C17_4 C 0.9619(5) 0.2322(7) 0.2863(6)
H16_4 H 0.9364 0.2318 0.3108
C18_4 C 0.7261(6) 0.4540(5) 0.3023(6)
H17_4 H 0.7231 0.4455 0.3379
C22_4 C 0.7330(7) 0.4799(5) 0.1968(6)
H21_4 H 0.7338 0.4889 0.1612
C23_4 C 0.8381(6) 0.2573(6) 0.1712(7)
H22_4 H 0.8174 0.2703 0.1455
C25_4 C 0.2918(5) 0.3910(6) 0.0516(7)
H24_4 H 0.2995 0.3728 0.0816
C26_4 C 0.7064(6) 0.5816(5) 0.1714(5)
H25_4 H 0.6914 0.5630 0.1451
C28_4 C 0.9526(5) 0.2331(5) 0.2334(5)
C29_4 C 0.6390(4) 0.2038(5) 0.2464(5)
H26_4 H 0.6371 0.2072 0.2097
C31_4 C 0.9892(5) 0.2321(6) 0.1973(6)
H28_4 H 0.9818 0.2312 0.1613
C32_4 C 0.7431(6) 0.6040(4) 0.2439(5)
H29_4 H 0.7578 0.6026 0.2772
C33_4 C 0.7228(6) 0.5022(5) 0.2864(6)
H30_4 H 0.7168 0.5264 0.3114
C35_4 C 0.7365(6) 0.4310(5) 0.2111(6)
H32_4 H 0.7405 0.4072 0.1852
C39_4 C 0.7313(5) 0.3293(4) 0.2485(5)
H35_4 H 0.7173 0.3307 0.2148
C40_4 C 0.7283(5) 0.5141(4) 0.2351(5)
C41_4 C 0.8629(4) 0.2212(5) 0.2396(5)
H36_4 H 0.8639 0.2036 0.2711
C42_4 C 0.7341(5) 0.4181(4) 0.2633(5)
C43_4 C 0.5480(4) 0.2002(6) 0.2643(5)
C44_4 C 0.7135(6) 0.6305(4) 0.1710(5)
H37_4 H 0.7040 0.6515 0.1439
N19_2 N 0.3197(4) 0.2028(5) 0.2280(5)
N20_4 N 0.4007(5) 0.1995(5) 0.2225(5)
C55_4 C 0.3307(11) 0.2017(10) 0.1779(12)
H46_4 H 0.3082 0.2023 0.1501
C56_4 C 0.3826(12) 0.1992(12) 0.1719(13)
H47_4 H 0.4004 0.1977 0.1404
C57_4 C 0.4660(8) 0.2105(8) 0.2847(10)
H48_4 H 0.4433 0.2226 0.3090
C58_4 C 0.4851(7) 0.2032(9) 0.1996(9)
H49_4 H 0.4768 0.2007 0.1639
C59_4 C 0.3610(4) 0.2038(5) 0.2536(5)
H50_4 H 0.3629 0.2072 0.2903
C60_4 C 0.4520(4) 0.2002(6) 0.2357(5)
H81_4 H 0.414615 0.317965 0.00282945
H82_4 H 0.360989 0.322727 0.0302539
H83_4 H 0.427415 0.499889 0.0593535
H84_4 H 0.378822 0.504682 0.0225606
W1_4 W 0.691578(15) 0.319956(15) 0.876711(17)
W5_4 W 0.756119(18) 0.255895(19) 0.98514(2)
W7_4 W 0.637558(18) 0.209269(17) 0.93633(2)
W8_4 W 0.532336(17) 0.272421(18) 0.957353(19)
W10_4 W 0.586138(18) 0.382818(18) 0.89832(2)
W11_4 W 0.696330(18) 0.426449(17) 0.94417(2)
O1_4 O 0.6527(2) 0.3485(2) 0.9535(3)
O4_4 O 0.4751(3) 0.2606(3) 0.9343(3)
O6_4 O 0.7245(3) 0.4790(3) 0.9278(4)
O10_4 O 0.7424(3) 0.3961(3) 0.9896(3)
O12_4 O 0.5478(3) 0.4092(3) 0.8550(3)
O13_4 O 0.5592(3) 0.4020(3) 0.9649(3)
O15_4 O 0.6354(3) 0.4324(3) 0.9061(3)
O17_4 O 0.5558(3) 0.3215(3) 0.9108(3)
O18_4 O 0.5696(3) 0.2245(3) 0.9207(3)
O22_4 O 0.6558(3) 0.2619(3) 0.8905(3)
O23_4 O 0.7388(3) 0.2951(3) 0.9252(3)
O26_4 O 0.7172(3) 0.3839(3) 0.8876(3)
O30_4 O 0.7011(3) 0.2172(3) 0.9668(3)
O34_4 O 0.6141(2) 0.2749(2) 0.9947(3)
O36_4 O 0.6326(3) 0.3497(3) 0.8528(3)
O37_4 O 0.6455(3) 0.1590(3) 0.8975(4)
O39_4 O 0.8043(3) 0.2235(3) 0.9624(4)
Co3_5 Co 0.0000 0.5472(3) 0.7500
N1_4 N 0.0499(10) 0.4961(10) 0.7816(16)
N2_4 N 0.2519(4) 0.4245(4) 0.9847(5)
N4_4 N 0.1122(7) 0.4609(8) 0.8235(9)
N6_4 N 0.4120(5) 0.5572(4) 0.6938(4)
N12_4 N 0.4285(5) 0.4261(4) 0.8635(4)
N16_4 N 0.4164(4) 0.4053(4) 0.9478(4)
C1_4 C 0.0805(10) 0.4963(11) 0.8191(11)
H1_4 H 0.0805 0.5216 0.8436
C2_4 C 0.106(2) 0.431(2) 0.784(2)
H2_4 H 0.1206 0.4011 0.7759
C3_4 C 0.0664(18) 0.4592(18) 0.753(2)
H3_4 H 0.0555 0.4514 0.7195
C9_4 C 0.1471(6) 0.4515(8) 0.8681(9)
C10_4 C 0.1570(7) 0.4056(8) 0.8825(9)
H9_4 H 0.1403 0.3799 0.8665
C11_4 C 0.1929(6) 0.3959(7) 0.9225(9)
H10_4 H 0.2010 0.3642 0.9319
C15_4 C 0.3957(7) 0.6233(6) 0.6491(6)
H14_4 H 0.3880 0.6554 0.6407
C16_4 C 0.1714(8) 0.4910(7) 0.8912(9)
H15_4 H 0.1654 0.5227 0.8798
C19_4 C 0.2040(6) 0.4819(5) 0.9311(7)
H18_4 H 0.2191 0.5078 0.9484
C20_4 C 0.4246(7) 0.3766(5) 0.8656(6)
H19_4 H 0.4266 0.3557 0.8366
C21_4 C 0.4176(7) 0.3628(5) 0.9158(6)
H20_4 H 0.4140 0.3309 0.9277
C24_4 C 0.4434(6) 0.5374(6) 0.7815(5)
H23_4 H 0.4567 0.5685 0.7844
C27_4 C 0.4200(6) 0.5234(6) 0.7357(5)
C30_4 C 0.3001(4) 0.4351(5) 0.9823(5)
H27_4 H 0.3145 0.4541 0.9560
C34_4 C 0.4021(6) 0.4752(5) 0.7301(5)
H31_4 H 0.3876 0.4652 0.6986
C36_4 C 0.4285(5) 0.4583(5) 0.8192(5)
C37_4 C 0.4234(4) 0.4410(4) 0.9155(5)
H33_4 H 0.4249 0.4734 0.9262
C38_4 C 0.4034(8) 0.6052(5) 0.6993(6)
H34_4 H 0.4027 0.6228 0.7308
C45_4 C 0.4473(5) 0.5043(6) 0.8239(5)
H38_4 H 0.4627 0.5137 0.8552
C46_4 C 0.4099(6) 0.5469(5) 0.6411(5)
H39_4 H 0.4140 0.5159 0.6268
C47_4 C 0.2147(4) 0.4348(5) 0.9461(7)
C48_4 C 0.4065(7) 0.4433(6) 0.7723(5)
H40_4 H 0.3948 0.4116 0.7692
O43_4 O 0.0435(10) 0.5229(10) 0.6820(11)
Co3_6 Co 1.0000 0.5472(3) 0.7500
W13_4 W 0.308422(15) 0.319956(15) 0.623289(17)
W14_4 W 0.463154(15) 0.386586(16) 0.465668(18)
W15_4 W 0.292585(17) 0.262212(17) 0.391501(19)
W16_4 W 0.353976(18) 0.430207(17) 0.41937(2)
W17_4 W 0.243881(18) 0.255895(19) 0.51486(2)
W18_4 W 0.410812(19) 0.215183(19) 0.43969(2)
W19_4 W 0.362442(18) 0.209269(17) 0.56367(2)
W20_4 W 0.467664(17) 0.272421(18) 0.542647(19)
W21_4 W 0.239763(18) 0.363092(18) 0.44661(2)
W22_4 W 0.413862(18) 0.382818(18) 0.60168(2)
W23_4 W 0.303670(18) 0.426449(17) 0.55583(2)
W24_4 W 0.40560(2) 0.32986(2) 0.36378(2)
P2_4 P 0.35548(8) 0.32089(8) 0.49435(9)
O44_4 O 0.3473(2) 0.3485(2) 0.5465(3)
O45_4 O 0.3432(3) 0.4858(3) 0.3925(3)
O46_4 O 0.5196(3) 0.4139(3) 0.4640(3)
O47_4 O 0.5249(3) 0.2606(3) 0.5657(3)
O48_4 O 0.2741(3) 0.2326(3) 0.3353(3)
O49_4 O 0.2755(3) 0.4790(3) 0.5722(4)
O50_4 O 0.3054(2) 0.3065(2) 0.4709(3)
O51_4 O 0.3758(3) 0.3934(3) 0.3608(3)
O52_4 O 0.3439(3) 0.2226(2) 0.4154(3)
O53_4 O 0.2576(3) 0.3961(3) 0.5104(3)
O54_4 O 0.4242(3) 0.3222(4) 0.3011(3)
O55_4 O 0.4522(3) 0.4092(3) 0.6450(3)
O56_4 O 0.4408(3) 0.4020(3) 0.5351(3)
O57_4 O 0.4323(3) 0.1686(3) 0.4015(4)
O58_4 O 0.3646(3) 0.4324(3) 0.5939(3)
O59_4 O 0.3830(2) 0.3537(2) 0.4548(3)
O60_4 O 0.4442(3) 0.3215(3) 0.5892(3)
O61_4 O 0.4304(3) 0.2245(3) 0.5793(3)
O62_4 O 0.3849(3) 0.1801(3) 0.4997(3)
O63_4 O 0.2477(3) 0.3165(3) 0.3909(3)
O64_4 O 0.3383(3) 0.4434(3) 0.4929(3)
O65_4 O 0.3442(3) 0.2619(3) 0.6095(3)
O66_4 O 0.2612(3) 0.2951(3) 0.5748(3)
O67_4 O 0.2501(3) 0.2338(3) 0.4435(3)
O68_4 O 0.4781(3) 0.3244(3) 0.4928(3)
O69_4 O 0.2828(3) 0.3839(3) 0.6124(3)
O70_4 O 0.4613(3) 0.3596(3) 0.3958(3)
O71_4 O 0.3413(3) 0.3036(3) 0.3636(3)
O72_4 O 0.2105(3) 0.3124(3) 0.4870(3)
O73_4 O 0.2989(3) 0.2172(3) 0.5332(3)
O74_4 O 0.4673(3) 0.2291(3) 0.4815(3)
O75_4 O 0.4221(3) 0.4381(3) 0.4391(3)
O76_4 O 0.4236(3) 0.2701(3) 0.3969(3)
O77_4 O 0.3859(2) 0.2749(2) 0.5053(3)
O79_4 O 0.3674(3) 0.3497(3) 0.6472(3)
O80_4 O 0.3545(3) 0.1590(3) 0.6025(4)
O81_4 O 0.1899(3) 0.3942(3) 0.4250(4)
O82_4 O 0.1957(3) 0.2235(3) 0.5376(4)
O83_4 O 0.2924(3) 0.3998(3) 0.4158(3)
O84_4 O 0.5887(3) 0.4886(3) 0.4738(3)
O85_4 O 0.6040(3) 0.3325(3) 0.4672(4)
N21_4 N 0.9501(10) 0.4961(10) 0.7184(16)
N22_4 N 0.7481(4) 0.4245(4) 0.5153(5)
N23_4 N 0.8878(7) 0.4609(8) 0.6765(9)
N24_4 N 0.5880(5) 0.5572(4) 0.8062(4)
N25_4 N 0.6758(4) 0.4154(4) 0.4783(5)
N26_4 N 0.2743(4) 0.5649(4) 0.2819(4)
N27_4 N 0.2553(4) 0.2889(4) 0.2286(4)
N28_4 N 0.2602(4) 0.3682(4) 0.2217(4)
N29_4 N 0.5715(5) 0.4261(4) 0.6365(4)
N32_4 N 0.5836(4) 0.4053(4) 0.5522(4)
C61_4 C 0.9195(10) 0.4963(11) 0.6809(11)
H51_4 H 0.9195 0.5216 0.6564
C62_4 C 0.894(2) 0.431(2) 0.716(2)
H52_4 H 0.8794 0.4011 0.7241
C63_4 C 0.9336(18) 0.4592(18) 0.747(2)
H53_4 H 0.9445 0.4514 0.7805
C64_4 C 0.2352(8) 0.3040(8) 0.1819(9)
H54_4 H 0.2214 0.2831 0.1570
C65_4 C 0.8529(6) 0.4515(8) 0.6319(9)
C66_4 C 0.8430(7) 0.4056(8) 0.6175(9)
H55_4 H 0.8597 0.3799 0.6335
C67_4 C 0.8071(6) 0.3959(7) 0.5775(9)
H56_4 H 0.7990 0.3642 0.5681
C68_4 C 0.2377(6) 0.3532(7) 0.1760(7)
H57_4 H 0.2268 0.3721 0.1477
C69_4 C 0.7548(6) 0.3970(6) 0.4690(7)
H58_4 H 0.7841 0.3853 0.4551
C70_4 C 0.6043(7) 0.6233(6) 0.8509(6)
H59_4 H 0.6120 0.6554 0.8593
C71_4 C 0.8286(8) 0.4910(7) 0.6088(9)
H60_4 H 0.8346 0.5227 0.6202
C72_4 C 0.2739(6) 0.4540(5) 0.1977(6)
H61_4 H 0.2769 0.4455 0.1621
C73_4 C 0.7960(6) 0.4819(5) 0.5689(7)
H62_4 H 0.7809 0.5078 0.5516
C74_4 C 0.5754(7) 0.3766(5) 0.6344(6)
H63_4 H 0.5734 0.3557 0.6634
C75_4 C 0.5824(7) 0.3628(5) 0.5842(6)
H64_4 H 0.5860 0.3309 0.5723
C76_4 C 0.2670(7) 0.4799(5) 0.3032(6)
H65_4 H 0.2662 0.4889 0.3388
C77_4 C 0.5566(6) 0.5374(6) 0.7185(5)
H66_4 H 0.5433 0.5685 0.7156
C78_4 C 0.7082(5) 0.3910(6) 0.4484(7)
H67_4 H 0.7005 0.3728 0.4184
C79_4 C 0.2936(6) 0.5816(5) 0.3286(5)
H68_4 H 0.3086 0.5630 0.3549
C80_4 C 0.5800(6) 0.5234(6) 0.7643(5)
C81_4 C 0.6999(4) 0.4351(5) 0.5177(5)
H69_4 H 0.6855 0.4541 0.5440
C82_4 C 0.2569(6) 0.6040(4) 0.2561(5)
H70_4 H 0.2422 0.6026 0.2228
C83_4 C 0.2772(6) 0.5022(5) 0.2136(6)
H71_4 H 0.2832 0.5264 0.1886
C84_4 C 0.5979(6) 0.4752(5) 0.7699(5)
H72_4 H 0.6124 0.4652 0.8014
C85_4 C 0.2635(6) 0.4310(5) 0.2889(6)
H73_4 H 0.2595 0.4072 0.3148
C86_4 C 0.5715(5) 0.4583(5) 0.6808(5)
C87_4 C 0.5766(4) 0.4410(4) 0.5845(5)
H74_4 H 0.5751 0.4734 0.5738
C88_4 C 0.5966(8) 0.6052(5) 0.8007(6)
H75_4 H 0.5973 0.6228 0.7692
C89_4 C 0.2687(5) 0.3293(4) 0.2515(5)
H76_4 H 0.2827 0.3307 0.2852
C90_4 C 0.2717(5) 0.5141(4) 0.2649(5)
C91_4 C 0.2659(5) 0.4181(4) 0.2367(5)
C92_4 C 0.2865(6) 0.6305(4) 0.3290(5)
H77_4 H 0.2960 0.6515 0.3561
C93_4 C 0.5527(5) 0.5043(6) 0.6761(5)
H78_4 H 0.5373 0.5137 0.6448
C94_4 C 0.5901(6) 0.5469(5) 0.8589(5)
H79_4 H 0.5860 0.5159 0.8732
C95_4 C 0.7853(4) 0.4348(5) 0.5539(7)
C96_4 C 0.5935(7) 0.4433(6) 0.7277(5)
H80_4 H 0.6052 0.4116 0.7308
O86_4 O 0.9565(10) 0.5229(10) 0.8180(11)
H87_4 H 0.585385 0.317965 0.497171
H88_4 H 0.639011 0.322727 0.469746
H89_4 H 0.572585 0.499889 0.440647
H90_2 H 0.621178 0.504682 0.477439
H91_4 H 0.450319 0.0126887 0.18492
H90_3 H 0.121178 0.00468164 0.0225606
H90_4 H 0.878822 0.995318 0.977439
loop_
_geom_bond_atom_site_label_1
_geom_bond_atom_site_label_2
_geom_bond_site_symmetry_1
_geom_bond_site_symmetry_2
N8 C26 1_555 1_555
N15 C32 1_555 1_555
C26 H25 1_555 1_555
C32 N8 1_555 1_555
H29 C32 1_555 1_555
H30 C33 1_555 1_555
C40 N8 1_555 1_555
C44 N15 1_555 1_555
H37 C44 1_555 1_555
Co13 N15 1_555 1_555
C26 C44 1_555 1_555
C33 C40 1_555 1_555
W1 O1 1_555 1_555
W3 O5 1_555 1_555
W4 O2 1_555 1_555
W5 O7 1_555 1_555
W6 O9 1_555 1_555
W7 O18 1_555 1_555
W9 O7 1_555 1_555
W10 O1 1_555 1_555
W11 O1 1_555 1_555
W12 O8 1_555 1_555
Co2 O5 1_555 1_555
P1 O1 1_555 1_555
O6 W11 1_555 1_555
O7 W3 1_555 1_555
O8 W4 1_555 1_555
O9 W3 1_555 1_555
O10 W9 1_555 1_555
O11 W12 1_555 1_555
O12 W10 1_555 1_555
O13 W2 1_555 1_555
O14 W6 1_555 1_555
O15 W10 1_555 1_555
O16 W2 1_555 1_555
O17 W8 1_555 1_555
O18 W8 1_555 1_555
O19 W6 1_555 1_555
O20 W3 1_555 1_555
O21 W4 1_555 1_555
O22 W1 1_555 1_555
O23 W1 1_555 1_555
O24 W3 1_555 1_555
O25 W2 1_555 1_555
O26 W1 1_555 1_555
O27 W2 1_555 1_555
O28 W3 1_555 1_555
O29 W5 1_555 1_555
O30 W5 1_555 1_555
O31 W6 1_555 1_555
O32 W2 1_555 1_555
O33 W6 1_555 1_555
O34 W6 1_555 1_555
O35 W1 1_555 1_555
O36 W1 1_555 1_555
O37 W7 1_555 1_555
O38 W9 1_555 1_555
O39 W5 1_555 1_555
O40 W4 1_555 1_555
N3 Co2 1_555 1_555
N5 C14 1_555 1_555
N9 Co2 1_555 1_555
N10 C12 1_555 1_555
N11 Co2 1_555 1_555
N13 C5 1_555 1_555
C4 N11 1_555 1_555
H4 C4 1_555 1_555
C5 C4 1_555 1_555
H5 C5 1_555 1_555
C6 H6 1_555 1_555
C7 H7 1_555 1_555
C8 N9 1_555 1_555
H8 C8 1_555 1_555
C12 C8 1_555 1_555
H11 C12 1_555 1_555
C14 H13 1_555 1_555
C17 H16 1_555 1_555
C18 H17 1_555 1_555
C22 H21 1_555 1_555
C23 N3 1_555 1_555
H22 C23 1_555 1_555
C28 N5 1_555 1_555
C29 N11 1_555 1_555
H26 C29 1_555 1_555
C31 C28 1_555 1_555
H28 C31 1_555 1_555
C35 C22 1_555 1_555
H32 C35 1_555 1_555
C39 N9 1_555 1_555
H35 C39 1_555 1_555
C41 N3 1_555 1_555
H36 C41 1_555 1_555
C42 N10 1_555 1_555
C43 N13 1_555 1_555
N17 C51 1_555 1_555
N18 C49 1_555 1_555
C49 H41 1_555 1_555
C50 C31 1_555 1_555
H42 C50 1_555 1_555
C51 C49 1_555 1_555
H43 C51 1_555 1_555
C52 N18 1_555 1_555
C53 C17 1_555 1_555
H44 C53 1_555 1_555
C54 N17 1_555 1_555
H45 C54 1_555 1_555
Co8 O35 1_555 1_555
Co11 N17 1_555 1_555
O87 Co2 1_555 1_555
N38 Co2 1_555 1_555
W4 O16 1_555 1_555
W4 O32 1_555 1_555
W5 O23 1_555 1_555
W5 O24 1_555 1_555
W7 O19 1_555 1_555
W7 O22 1_555 1_555
W7 O30 1_555 1_555
W7 O34 1_555 1_555
W8 O25 1_555 1_555
W8 O31 1_555 1_555
W8 O34 1_555 1_555
W9 O20 1_555 1_555
W9 O29 1_555 1_555
W9 O40 1_555 1_555
W10 O13 1_555 1_555
W10 O17 1_555 1_555
W10 O36 1_555 1_555
W11 O10 1_555 1_555
W11 O15 1_555 1_555
W11 O21 1_555 1_555
W11 O26 1_555 1_555
W12 O16 1_555 1_555
W12 O27 1_555 1_555
W12 O28 1_555 1_555
W12 O33 1_555 1_555
P1 O7 1_555 1_555
P1 O16 1_555 1_555
P1 O34 1_555 1_555
N5 C41 1_555 1_555
N10 C39 1_555 1_555
N13 C29 1_555 1_555
C6 C43 1_555 1_555
C7 C43 1_555 1_555
C14 C23 1_555 1_555
C17 C28 1_555 1_555
C18 C42 1_555 1_555
C35 C42 1_555 1_555
N18 C54 1_555 1_555
C50 C52 1_555 1_555
C52 C53 1_555 1_555
N6 C27 1_555 1_555
N14 C15 1_555 1_555
C15 H14 1_555 1_555
C24 H23 1_555 1_555
C27 C24 1_555 1_555
C38 N6 1_555 1_555
H34 C38 1_555 1_555
C45 C24 1_555 1_555
H38 C45 1_555 1_555
C46 N6 1_555 1_555
H39 C46 1_555 1_555
O43 Co3 1_555 1_555
N24 C80 1_555 1_555
N30 C70 1_555 1_555
C70 H59 1_555 1_555
C77 H66 1_555 1_555
C80 C77 1_555 1_555
C88 N24 1_555 1_555
H75 C88 1_555 1_555
C93 C77 1_555 1_555
H78 C93 1_555 1_555
C94 N24 1_555 1_555
H79 C94 1_555 1_555
O86 Co3 1_555 1_555
Co6 N30 1_555 1_555
Co7 N14 1_555 1_555
N14 C46 1_555 1_555
C15 C38 1_555 1_555
N30 C94 1_555 1_555
C70 C88 1_555 1_555
Co4 O46 1_555 1_555
O84 Co4 1_555 1_555
O85 Co4 1_555 1_555
N25 Co4 1_555 1_555
C69 H58 1_555 1_555
C78 N25 1_555 1_555
H67 C78 1_555 1_555
N35 Co4 1_555 1_555
C69 C78 1_555 1_555
O85 H87 1_555 1_555
O85 H88 1_555 1_555
O84 H89 1_555 1_555
Co1 O3 1_555 1_555
O41 Co1 1_555 1_555
O42 Co1 1_555 1_555
N1 C1 1_555 1_555
N2 C13 1_555 1_555
N4 C1 1_555 1_555
N7 Co1 1_555 1_555
N12 C20 1_555 1_555
N16 Co1 1_555 1_555
C2 N4 1_555 1_555
H2 C2 1_555 1_555
C3 N1 1_555 1_555
H3 C3 1_555 1_555
C9 N4 1_555 1_555
C10 C9 1_555 1_555
H9 C10 1_555 1_555
C11 C10 1_555 1_555
H10 C11 1_555 1_555
C13 H12 1_555 1_555
C16 C9 1_555 1_555
C19 C16 1_555 1_555
C20 H19 1_555 1_555
C21 N16 1_555 1_555
H20 C21 1_555 1_555
C25 N7 1_555 1_555
H24 C25 1_555 1_555
C30 N2 1_555 1_555
H27 C30 1_555 1_555
H31 C34 1_555 1_555
C36 N12 1_555 1_555
C37 N12 1_555 1_555
H33 C37 1_555 1_555
C47 N2 1_555 1_555
C48 C34 1_555 1_555
H40 C48 1_555 1_555
N19 C55 1_555 1_555
N20 C56 1_555 1_555
C55 H46 1_555 1_555
C56 C55 1_555 1_555
H47 C56 1_555 1_555
H48 C57 1_555 1_555
H49 C58 1_555 1_555
C59 N19 1_555 1_555
H50 C59 1_555 1_555
C60 N20 1_555 1_555
N23 C61 1_555 1_555
N29 C74 1_555 1_555
C61 N21 1_555 1_555
C62 N23 1_555 1_555
H52 C62 1_555 1_555
C63 N21 1_555 1_555
H53 C63 1_555 1_555
C65 N23 1_555 1_555
C66 C65 1_555 1_555
H55 C66 1_555 1_555
C67 C66 1_555 1_555
H56 C67 1_555 1_555
C71 C65 1_555 1_555
C73 C71 1_555 1_555
C74 H63 1_555 1_555
C75 N32 1_555 1_555
H64 C75 1_555 1_555
C81 N22 1_555 1_555
H69 C81 1_555 1_555
H72 C84 1_555 1_555
C86 N29 1_555 1_555
C87 N29 1_555 1_555
H74 C87 1_555 1_555
C95 N22 1_555 1_555
C96 C84 1_555 1_555
H80 C96 1_555 1_555
Co11 N19 1_555 1_555
N36 Co1 1_555 1_555
N7 C30 1_555 1_555
N16 C37 1_555 1_555
C2 C3 1_555 1_555
C11 C47 1_555 1_555
C13 C25 1_555 1_555
C19 C47 1_555 1_555
C20 C21 1_555 1_555
C36 C48 1_555 1_555
N20 C59 1_555 1_555
C57 C60 1_555 1_555
C58 C60 1_555 1_555
N32 C87 1_555 1_555
C62 C63 1_555 1_555
C67 C95 1_555 1_555
C73 C95 1_555 1_555
C74 C75 1_555 1_555
C86 C96 1_555 1_555
O42 H81 1_555 1_555
O42 H82 1_555 1_555
O41 H83 1_555 1_555
N26 C79 1_555 1_555
N31 C82 1_555 1_555
C79 H68 1_555 1_555
C82 N26 1_555 1_555
H70 C82 1_555 1_555
H71 C83 1_555 1_555
C90 N26 1_555 1_555
C92 N31 1_555 1_555
H77 C92 1_555 1_555
Co12 N31 1_555 1_555
C79 C92 1_555 1_555
C83 C90 1_555 1_555
W15 O48 1_555 1_555
W16 O45 1_555 1_555
W18 O52 1_555 1_555
W21 O50 1_555 1_555
W24 O51 1_555 1_555
Co11 O48 1_555 1_555
O50 W15 1_555 1_555
O51 W16 1_555 1_555
O52 W15 1_555 1_555
O54 W24 1_555 1_555
O57 W18 1_555 1_555
O59 W14 1_555 1_555
O62 W18 1_555 1_555
O63 W15 1_555 1_555
O64 W16 1_555 1_555
O67 W15 1_555 1_555
O68 W14 1_555 1_555
O70 W14 1_555 1_555
O71 W15 1_555 1_555
O74 W18 1_555 1_555
O75 W14 1_555 1_555
O76 W18 1_555 1_555
O81 W21 1_555 1_555
O83 W16 1_555 1_555
N27 Co11 1_555 1_555
N28 C68 1_555 1_555
C64 N27 1_555 1_555
H54 C64 1_555 1_555
C68 C64 1_555 1_555
H57 C68 1_555 1_555
C72 H61 1_555 1_555
C76 H65 1_555 1_555
C85 C76 1_555 1_555
H73 C85 1_555 1_555
C89 N27 1_555 1_555
H76 C89 1_555 1_555
C91 N28 1_555 1_555
O88 Co11 1_555 1_555
N37 Co11 1_555 1_555
W16 O59 1_555 1_555
W16 O75 1_555 1_555
W21 O63 1_555 1_555
W21 O72 1_555 1_555
W21 O83 1_555 1_555
W24 O59 1_555 1_555
W24 O70 1_555 1_555
W24 O71 1_555 1_555
W24 O76 1_555 1_555
P2 O50 1_555 1_555
P2 O59 1_555 1_555
N28 C89 1_555 1_555
C72 C91 1_555 1_555
C85 C91 1_555 1_555
W13 O44 1_555 1_555
W19 O61 1_555 1_555
W22 O44 1_555 1_555
W23 O44 1_555 1_555
O49 W23 1_555 1_555
O55 W22 1_555 1_555
O58 W22 1_555 1_555
O60 W20 1_555 1_555
O61 W20 1_555 1_555
O65 W13 1_555 1_555
O66 W13 1_555 1_555
O69 W13 1_555 1_555
O73 W17 1_555 1_555
O78 W13 1_555 1_555
O79 W13 1_555 1_555
O80 W19 1_555 1_555
O82 W17 1_555 1_555
Co9 O78 1_555 1_555
W17 O66 1_555 1_555
W19 O65 1_555 1_555
W19 O73 1_555 1_555
W19 O77 1_555 1_555
W20 O77 1_555 1_555
W22 O56 1_555 1_555
W22 O60 1_555 1_555
W22 O79 1_555 1_555
W23 O53 1_555 1_555
W23 O58 1_555 1_555
W23 O69 1_555 1_555
W13_2 O44_2 1_555 1_555
W14_2 O46_2 1_555 1_555
W15_2 O48_2 1_555 1_555
W16_2 O45_2 1_555 1_555
W17_2 O50_2 1_555 1_555
W18_2 O52_2 1_555 1_555
W19_2 O61_2 1_555 1_555
W20_2 O47_2 1_555 1_555
W21_2 O50_2 1_555 1_555
W22_2 O44_2 1_555 1_555
W23_2 O44_2 1_555 1_555
W24_2 O51_2 1_555 1_555
Co4_2 O46_2 1_555 1_555
Co9 O48_2 1_555 1_555
P2_2 O44_2 1_555 1_555
O49_2 W23_2 1_555 1_555
O50_2 W15_2 1_555 1_555
O51_2 W16_2 1_555 1_555
O52_2 W15_2 1_555 1_555
O53_2 W21_2 1_555 1_555
O54_2 W24_2 1_555 1_555
O55_2 W22_2 1_555 1_555
O56_2 W14_2 1_555 1_555
O57_2 W18_2 1_555 1_555
O58_2 W22_2 1_555 1_555
O59_2 W14_2 1_555 1_555
O60_2 W20_2 1_555 1_555
O61_2 W20_2 1_555 1_555
O62_2 W18_2 1_555 1_555
O63_2 W15_2 1_555 1_555
O64_2 W16_2 1_555 1_555
O65_2 W13_2 1_555 1_555
O66_2 W13_2 1_555 1_555
O67_2 W15_2 1_555 1_555
O68_2 W14_2 1_555 1_555
O69_2 W13_2 1_555 1_555
O70_2 W14_2 1_555 1_555
O71_2 W15_2 1_555 1_555
O72_2 W17_2 1_555 1_555
O73_2 W17_2 1_555 1_555
O74_2 W18_2 1_555 1_555
O75_2 W14_2 1_555 1_555
O76_2 W18_2 1_555 1_555
O77_2 W18_2 1_555 1_555
O88 W13_2 1_555 1_555
O79_2 W13_2 1_555 1_555
O80_2 W19_2 1_555 1_555
O81_2 W21_2 1_555 1_555
O82_2 W17_2 1_555 1_555
O83_2 W16_2 1_555 1_555
O84_2 Co4_2 1_555 1_555
O85_2 Co4_2 1_555 1_555
N21_2 Co3_2 1_555 1_555
N22_2 C69_2 1_555 1_555
N23_2 C61_2 1_555 1_555
N24_2 C80_2 1_555 1_555
N25_2 Co4_2 1_555 1_555
N26_2 C79_2 1_555 1_555
N27_2 Co9 1_555 1_555
N28_2 C68_2 1_555 1_555
N29_2 C74_2 1_555 1_555
N30_2 C70_2 1_555 1_555
N31_2 C82_2 1_555 1_555
N32_2 Co4_2 1_555 1_555
C61_2 N21_2 1_555 1_555
H51_2 C61_2 1_555 1_555
C62_2 N23_2 1_555 1_555
H52_2 C62_2 1_555 1_555
C63_2 N21_2 1_555 1_555
H53_2 C63_2 1_555 1_555
C64_2 N27_2 1_555 1_555
H54_2 C64_2 1_555 1_555
C65_2 N23_2 1_555 1_555
C66_2 C65_2 1_555 1_555
H55_2 C66_2 1_555 1_555
C67_2 C66_2 1_555 1_555
H56_2 C67_2 1_555 1_555
C68_2 C64_2 1_555 1_555
H57_2 C68_2 1_555 1_555
C69_2 H58_2 1_555 1_555
C70_2 H59_2 1_555 1_555
C71_2 C65_2 1_555 1_555
H60_2 C71_2 1_555 1_555
C72_2 H61_2 1_555 1_555
C73_2 C71_2 1_555 1_555
H62_2 C73_2 1_555 1_555
C74_2 H63_2 1_555 1_555
C75_2 N32_2 1_555 1_555
H64_2 C75_2 1_555 1_555
C76_2 H65_2 1_555 1_555
C77_2 H66_2 1_555 1_555
C78_2 N25_2 1_555 1_555
H67_2 C78_2 1_555 1_555
C79_2 H68_2 1_555 1_555
C80_2 C77_2 1_555 1_555
C81_2 N22_2 1_555 1_555
H69_2 C81_2 1_555 1_555
C82_2 N26_2 1_555 1_555
H70_2 C82_2 1_555 1_555
C83_2 C72_2 1_555 1_555
H71_2 C83_2 1_555 1_555
C84_2 C80_2 1_555 1_555
H72_2 C84_2 1_555 1_555
C85_2 C76_2 1_555 1_555
H73_2 C85_2 1_555 1_555
C86_2 N29_2 1_555 1_555
C87_2 N29_2 1_555 1_555
H74_2 C87_2 1_555 1_555
C88_2 N24_2 1_555 1_555
H75_2 C88_2 1_555 1_555
C89_2 N27_2 1_555 1_555
H76_2 C89_2 1_555 1_555
C90_2 N26_2 1_555 1_555
C91_2 N28_2 1_555 1_555
C92_2 N31_2 1_555 1_555
H77_2 C92_2 1_555 1_555
C93_2 C77_2 1_555 1_555
H78_2 C93_2 1_555 1_555
C94_2 N24_2 1_555 1_555
H79_2 C94_2 1_555 1_555
C95_2 N22_2 1_555 1_555
C96_2 C84_2 1_555 1_555
H80_2 C96_2 1_555 1_555
O86_2 Co3_2 1_555 1_555
Co6_2 N30_2 1_555 1_555
Co12_2 N31_2 1_555 1_555
N33 Co9 1_555 1_555
N34 Co9 1_555 1_555
N35_2 Co4_2 1_555 1_555
N37_2 Co9 1_555 1_555
W16_2 O59_2 1_555 1_555
W16_2 O75_2 1_555 1_555
W17_2 O66_2 1_555 1_555
W17_2 O67_2 1_555 1_555
W19_2 O62_2 1_555 1_555
W19_2 O65_2 1_555 1_555
W19_2 O73_2 1_555 1_555
W19_2 O77_2 1_555 1_555
W20_2 O68_2 1_555 1_555
W20_2 O74_2 1_555 1_555
W20_2 O77_2 1_555 1_555
W21_2 O63_2 1_555 1_555
W21_2 O72_2 1_555 1_555
W21_2 O83_2 1_555 1_555
W22_2 O56_2 1_555 1_555
W22_2 O60_2 1_555 1_555
W22_2 O79_2 1_555 1_555
W23_2 O53_2 1_555 1_555
W23_2 O58_2 1_555 1_555
W23_2 O64_2 1_555 1_555
W23_2 O69_2 1_555 1_555
W24_2 O59_2 1_555 1_555
W24_2 O70_2 1_555 1_555
W24_2 O71_2 1_555 1_555
W24_2 O76_2 1_555 1_555
P2_2 O50_2 1_555 1_555
P2_2 O59_2 1_555 1_555
P2_2 O77_2 1_555 1_555
N25_2 C81_2 1_555 1_555
N28_2 C89_2 1_555 1_555
N30_2 C94_2 1_555 1_555
N32_2 C87_2 1_555 1_555
C62_2 C63_2 1_555 1_555
C67_2 C95_2 1_555 1_555
C69_2 C78_2 1_555 1_555
C70_2 C88_2 1_555 1_555
C72_2 C91_2 1_555 1_555
C73_2 C95_2 1_555 1_555
C74_2 C75_2 1_555 1_555
C76_2 C90_2 1_555 1_555
C79_2 C92_2 1_555 1_555
C83_2 C90_2 1_555 1_555
C85_2 C91_2 1_555 1_555
C86_2 C93_2 1_555 1_555
C86_2 C96_2 1_555 1_555
O85_2 H87_2 1_555 1_555
O85_2 H88_2 1_555 1_555
O84_2 H89_2 1_555 1_555
O84_2 H90 1_555 1_555
W1_2 O1_2 1_555 1_555
W7_2 O18_2 1_555 1_555
W8_2 O4_2 1_555 1_555
W10_2 O1_2 1_555 1_555
W11_2 O1_2 1_555 1_555
O6_2 W11_2 1_555 1_555
O12_2 W10_2 1_555 1_555
O15_2 W10_2 1_555 1_555
O17_2 W8_2 1_555 1_555
O18_2 W8_2 1_555 1_555
O22_2 W1_2 1_555 1_555
O23_2 W1_2 1_555 1_555
O26_2 W1_2 1_555 1_555
O30_2 W5_2 1_555 1_555
O87 W1_2 1_555 1_555
O36_2 W1_2 1_555 1_555
O37_2 W7_2 1_555 1_555
O39_2 W5_2 1_555 1_555
Co3_3 N1_2 1_555 1_555
N1_2 C1_2 1_555 1_555
N4_2 C1_2 1_555 1_555
N6_2 C27_2 1_555 1_555
N12_2 C20_2 1_555 1_555
N14_2 C15_2 1_555 1_555
C1_2 H1_2 1_555 1_555
C2_2 N4_2 1_555 1_555
H2_2 C2_2 1_555 1_555
C3_2 N1_2 1_555 1_555
H3_2 C3_2 1_555 1_555
C9_2 N4_2 1_555 1_555
C10_2 C9_2 1_555 1_555
H9_2 C10_2 1_555 1_555
C11_2 C10_2 1_555 1_555
H10_2 C11_2 1_555 1_555
C15_2 H14_2 1_555 1_555
C16_2 C9_2 1_555 1_555
H15_2 C16_2 1_555 1_555
C19_2 C16_2 1_555 1_555
H18_2 C19_2 1_555 1_555
C20_2 H19_2 1_555 1_555
C21_2 N16_2 1_555 1_555
H20_2 C21_2 1_555 1_555
C24_2 H23_2 1_555 1_555
C27_2 C24_2 1_555 1_555
C30_2 N2_2 1_555 1_555
H27_2 C30_2 1_555 1_555
C34_2 C27_2 1_555 1_555
H31_2 C34_2 1_555 1_555
C36_2 N12_2 1_555 1_555
C37_2 N12_2 1_555 1_555
H33_2 C37_2 1_555 1_555
C38_2 N6_2 1_555 1_555
H34_2 C38_2 1_555 1_555
C45_2 C24_2 1_555 1_555
H38_2 C45_2 1_555 1_555
C46_2 N6_2 1_555 1_555
H39_2 C46_2 1_555 1_555
C47_2 N2_2 1_555 1_555
C48_2 C34_2 1_555 1_555
H40_2 C48_2 1_555 1_555
O43_2 Co3_3 1_555 1_555
Co7_2 N14_2 1_555 1_555
W5_2 O23_2 1_555 1_555
W7_2 O22_2 1_555 1_555
W7_2 O30_2 1_555 1_555
W7_2 O34_2 1_555 1_555
W8_2 O34_2 1_555 1_555
W10_2 O13_2 1_555 1_555
W10_2 O17_2 1_555 1_555
W10_2 O36_2 1_555 1_555
W11_2 O10_2 1_555 1_555
W11_2 O15_2 1_555 1_555
W11_2 O26_2 1_555 1_555
N14_2 C46_2 1_555 1_555
N16_2 C37_2 1_555 1_555
C2_2 C3_2 1_555 1_555
C11_2 C47_2 1_555 1_555
C15_2 C38_2 1_555 1_555
C19_2 C47_2 1_555 1_555
C20_2 C21_2 1_555 1_555
C36_2 C45_2 1_555 1_555
C36_2 C48_2 1_555 1_555
W2_2 O3_2 1_555 1_555
W3_2 O5_2 1_555 1_555
W4_2 O2_2 1_555 1_555
W6_2 O9_2 1_555 1_555
W9_2 O7_2 1_555 1_555
W12_2 O8_2 1_555 1_555
Co1_2 O3_2 1_555 1_555
Co8 O5_2 1_555 1_555
O7_2 W3_2 1_555 1_555
O8_2 W4_2 1_555 1_555
O9_2 W3_2 1_555 1_555
O11_2 W12_2 1_555 1_555
O14_2 W6_2 1_555 1_555
O16_2 W2_2 1_555 1_555
O19_2 W6_2 1_555 1_555
O20_2 W3_2 1_555 1_555
O21_2 W4_2 1_555 1_555
O24_2 W3_2 1_555 1_555
O25_2 W2_2 1_555 1_555
O27_2 W2_2 1_555 1_555
O28_2 W3_2 1_555 1_555
O31_2 W6_2 1_555 1_555
O32_2 W2_2 1_555 1_555
O33_2 W6_2 1_555 1_555
O38_2 W9_2 1_555 1_555
O40_2 W4_2 1_555 1_555
O41_2 Co1_2 1_555 1_555
O42_2 Co1_2 1_555 1_555
N3_2 Co8 1_555 1_555
N5_2 C14_2 1_555 1_555
N7_2 Co1_2 1_555 1_555
N8_2 C26_2 1_555 1_555
N9_2 Co8 1_555 1_555
N10_2 C12_2 1_555 1_555
N11_2 Co8 1_555 1_555
N13_2 C5_2 1_555 1_555
N15_2 C32_2 1_555 1_555
C4_2 N11_2 1_555 1_555
H4_2 C4_2 1_555 1_555
C5_2 C4_2 1_555 1_555
H5_2 C5_2 1_555 1_555
C6_2 H6_2 1_555 1_555
C7_2 H7_2 1_555 1_555
C8_2 N9_2 1_555 1_555
H8_2 C8_2 1_555 1_555
C12_2 C8_2 1_555 1_555
H11_2 C12_2 1_555 1_555
C13_2 H12_2 1_555 1_555
C14_2 H13_2 1_555 1_555
C17_2 H16_2 1_555 1_555
C18_2 H17_2 1_555 1_555
C22_2 H21_2 1_555 1_555
C23_2 N3_2 1_555 1_555
H22_2 C23_2 1_555 1_555
C25_2 N7_2 1_555 1_555
H24_2 C25_2 1_555 1_555
C26_2 H25_2 1_555 1_555
C28_2 N5_2 1_555 1_555
C29_2 N11_2 1_555 1_555
H26_2 C29_2 1_555 1_555
C31_2 C28_2 1_555 1_555
H28_2 C31_2 1_555 1_555
C32_2 N8_2 1_555 1_555
H29_2 C32_2 1_555 1_555
C33_2 C18_2 1_555 1_555
H30_2 C33_2 1_555 1_555
C35_2 C22_2 1_555 1_555
H32_2 C35_2 1_555 1_555
C39_2 N9_2 1_555 1_555
H35_2 C39_2 1_555 1_555
C40_2 N8_2 1_555 1_555
C41_2 N3_2 1_555 1_555
H36_2 C41_2 1_555 1_555
C42_2 N10_2 1_555 1_555
C43_2 N13_2 1_555 1_555
C44_2 N15_2 1_555 1_555
H37_2 C44_2 1_555 1_555
N34 C55_2 1_555 1_555
N20_2 C56_2 1_555 1_555
C55_2 H46_2 1_555 1_555
C56_2 C55_2 1_555 1_555
H47_2 C56_2 1_555 1_555
C57_2 C7_2 1_555 1_555
H48_2 C57_2 1_555 1_555
C58_2 C6_2 1_555 1_555
H49_2 C58_2 1_555 1_555
C59_2 N34 1_555 1_555
H50_2 C59_2 1_555 1_555
C60_2 N20_2 1_555 1_555
Co13_2 N15_2 1_555 1_555
N36_2 Co1_2 1_555 1_555
N38_2 Co8 1_555 1_555
W4_2 O16_2 1_555 1_555
W4_2 O32_2 1_555 1_555
W9_2 O20_2 1_555 1_555
W9_2 O29_2 1_555 1_555
W9_2 O40_2 1_555 1_555
W12_2 O16_2 1_555 1_555
W12_2 O27_2 1_555 1_555
W12_2 O28_2 1_555 1_555
W12_2 O33_2 1_555 1_555
P1_2 O7_2 1_555 1_555
P1_2 O16_2 1_555 1_555
N5_2 C41_2 1_555 1_555
N10_2 C39_2 1_555 1_555
N13_2 C29_2 1_555 1_555
C6_2 C43_2 1_555 1_555
C7_2 C43_2 1_555 1_555
C13_2 C25_2 1_555 1_555
C14_2 C23_2 1_555 1_555
C17_2 C28_2 1_555 1_555
C18_2 C42_2 1_555 1_555
C22_2 C40_2 1_555 1_555
C26_2 C44_2 1_555 1_555
C33_2 C40_2 1_555 1_555
C35_2 C42_2 1_555 1_555
N20_2 C59_2 1_555 1_555
C57_2 C60_2 1_555 1_555
C58_2 C60_2 1_555 1_555
O42_2 H81_2 1_555 1_555
O42_2 H82_2 1_555 1_555
O41_2 H83_2 1_555 1_555
O41_2 H84_2 1_555 1_555
N33 C51_2 1_555 1_555
N18_2 C49_2 1_555 1_555
C49_2 H41_2 1_555 1_555
H42_2 C50_2 1_555 1_555
C51_2 C49_2 1_555 1_555
H43_2 C51_2 1_555 1_555
C52_2 N18_2 1_555 1_555
H44_2 C53_2 1_555 1_555
C54_2 N33 1_555 1_555
H45_2 C54_2 1_555 1_555
N18_2 C54_2 1_555 1_555
C50_2 C52_2 1_555 1_555
C52_2 C53_2 1_555 1_555
W13_3 O44_3 1_555 1_555
W19_3 O61_3 1_555 1_555
W22_3 O44_3 1_555 1_555
W23_3 O44_3 1_555 1_555
O49_3 W23_3 1_555 1_555
O55_3 W22_3 1_555 1_555
O58_3 W22_3 1_555 1_555
O60_3 W20_3 1_555 1_555
O61_3 W20_3 1_555 1_555
O65_3 W13_3 1_555 1_555
O66_3 W13_3 1_555 1_555
O69_3 W13_3 1_555 1_555
O73_3 W17_3 1_555 1_555
O78_2 W13_3 1_555 1_555
O79_3 W13_3 1_555 1_555
O80_3 W19_3 1_555 1_555
O82_3 W17_3 1_555 1_555
Co13 O78_2 1_555 1_555
W17_3 O66_3 1_555 1_555
W19_3 O65_3 1_555 1_555
W19_3 O73_3 1_555 1_555
W19_3 O77_3 1_555 1_555
W20_3 O77_3 1_555 1_555
W22_3 O56_3 1_555 1_555
W22_3 O60_3 1_555 1_555
W22_3 O79_3 1_555 1_555
W23_3 O53_3 1_555 1_555
W23_3 O58_3 1_555 1_555
W23_3 O69_3 1_555 1_555
W15_3 O48_3 1_555 1_555
W16_3 O45_3 1_555 1_555
W18_3 O52_3 1_555 1_555
W21_3 O50_3 1_555 1_555
W24_3 O51_3 1_555 1_555
Co13_2 O48_3 1_555 1_555
O50_3 W15_3 1_555 1_555
O51_3 W16_3 1_555 1_555
O52_3 W15_3 1_555 1_555
O54_3 W24_3 1_555 1_555
O57_3 W18_3 1_555 1_555
O59_3 W14_3 1_555 1_555
O62_3 W18_3 1_555 1_555
O63_3 W15_3 1_555 1_555
O64_3 W16_3 1_555 1_555
O67_3 W15_3 1_555 1_555
O68_3 W14_3 1_555 1_555
O70_3 W14_3 1_555 1_555
O71_3 W15_3 1_555 1_555
O74_3 W18_3 1_555 1_555
O75_3 W14_3 1_555 1_555
O76_3 W18_3 1_555 1_555
O81_3 W21_3 1_555 1_555
O83_3 W16_3 1_555 1_555
N27_3 Co13_2 1_555 1_555
N28_3 C68_3 1_555 1_555
C64_3 N27_3 1_555 1_555
H54_3 C64_3 1_555 1_555
C68_3 C64_3 1_555 1_555
H57_3 C68_3 1_555 1_555
C72_3 H61_3 1_555 1_555
C76_3 H65_3 1_555 1_555
C85_3 C76_3 1_555 1_555
H73_3 C85_3 1_555 1_555
C89_3 N27_3 1_555 1_555
H76_3 C89_3 1_555 1_555
C91_3 N28_3 1_555 1_555
O88_2 Co13_2 1_555 1_555
N33_2 Co13_2 1_555 1_555
N34_2 Co13_2 1_555 1_555
W16_3 O59_3 1_555 1_555
W16_3 O75_3 1_555 1_555
W21_3 O63_3 1_555 1_555
W21_3 O72_3 1_555 1_555
W21_3 O83_3 1_555 1_555
W24_3 O59_3 1_555 1_555
W24_3 O70_3 1_555 1_555
W24_3 O71_3 1_555 1_555
W24_3 O76_3 1_555 1_555
P2_3 O50_3 1_555 1_555
P2_3 O59_3 1_555 1_555
N28_3 C89_3 1_555 1_555
C72_3 C91_3 1_555 1_555
C85_3 C91_3 1_555 1_555
N26_3 C79_3 1_555 1_555
N38_2 C82_3 1_555 1_555
C79_3 H68_3 1_555 1_555
C82_3 N26_3 1_555 1_555
H70_3 C82_3 1_555 1_555
H71_3 C83_3 1_555 1_555
C90_3 N26_3 1_555 1_555
C92_3 N38_2 1_555 1_555
H77_3 C92_3 1_555 1_555
C79_3 C92_3 1_555 1_555
C83_3 C90_3 1_555 1_555
Co6 O3_3 1_555 1_555
O41_3 Co6 1_555 1_555
O42_3 Co6 1_555 1_555
N1_3 C1_3 1_555 1_555
N2_3 C13_3 1_555 1_555
N4_3 C1_3 1_555 1_555
N7_3 Co6 1_555 1_555
N12_3 C20_3 1_555 1_555
N16_3 Co6 1_555 1_555
C2_3 N4_3 1_555 1_555
H2_3 C2_3 1_555 1_555
C3_3 N1_3 1_555 1_555
H3_3 C3_3 1_555 1_555
C9_3 N4_3 1_555 1_555
C10_3 C9_3 1_555 1_555
H9_3 C10_3 1_555 1_555
C11_3 C10_3 1_555 1_555
H10_3 C11_3 1_555 1_555
C13_3 H12_3 1_555 1_555
C16_3 C9_3 1_555 1_555
C19_3 C16_3 1_555 1_555
C20_3 H19_3 1_555 1_555
C21_3 N16_3 1_555 1_555
H20_3 C21_3 1_555 1_555
C25_3 N7_3 1_555 1_555
H24_3 C25_3 1_555 1_555
C30_3 N2_3 1_555 1_555
H27_3 C30_3 1_555 1_555
H31_3 C34_3 1_555 1_555
C36_3 N12_3 1_555 1_555
C37_3 N12_3 1_555 1_555
H33_3 C37_3 1_555 1_555
C47_3 N2_3 1_555 1_555
C48_3 C34_3 1_555 1_555
H40_3 C48_3 1_555 1_555
N34_2 C55_3 1_555 1_555
N20_3 C56_3 1_555 1_555
C55_3 H46_3 1_555 1_555
C56_3 C55_3 1_555 1_555
H47_3 C56_3 1_555 1_555
H48_3 C57_3 1_555 1_555
H49_3 C58_3 1_555 1_555
C59_3 N34_2 1_555 1_555
H50_3 C59_3 1_555 1_555
C60_3 N20_3 1_555 1_555
N23_3 C61_3 1_555 1_555
N29_3 C74_3 1_555 1_555
C61_3 N21_3 1_555 1_555
C62_3 N23_3 1_555 1_555
H52_3 C62_3 1_555 1_555
C63_3 N21_3 1_555 1_555
H53_3 C63_3 1_555 1_555
C65_3 N23_3 1_555 1_555
C66_3 C65_3 1_555 1_555
H55_3 C66_3 1_555 1_555
C67_3 C66_3 1_555 1_555
H56_3 C67_3 1_555 1_555
C71_3 C65_3 1_555 1_555
C73_3 C71_3 1_555 1_555
C74_3 H63_3 1_555 1_555
C75_3 N32_3 1_555 1_555
H64_3 C75_3 1_555 1_555
C81_3 N22_3 1_555 1_555
H69_3 C81_3 1_555 1_555
H72_3 C84_3 1_555 1_555
C86_3 N29_3 1_555 1_555
C87_3 N29_3 1_555 1_555
H74_3 C87_3 1_555 1_555
C95_3 N22_3 1_555 1_555
C96_3 C84_3 1_555 1_555
H80_3 C96_3 1_555 1_555
N7_3 C30_3 1_555 1_555
N16_3 C37_3 1_555 1_555
C2_3 C3_3 1_555 1_555
C11_3 C47_3 1_555 1_555
C13_3 C25_3 1_555 1_555
C19_3 C47_3 1_555 1_555
C20_3 C21_3 1_555 1_555
C36_3 C48_3 1_555 1_555
N20_3 C59_3 1_555 1_555
C57_3 C60_3 1_555 1_555
C58_3 C60_3 1_555 1_555
N32_3 C87_3 1_555 1_555
C62_3 C63_3 1_555 1_555
C67_3 C95_3 1_555 1_555
C73_3 C95_3 1_555 1_555
C74_3 C75_3 1_555 1_555
C86_3 C96_3 1_555 1_555
O42_3 H81_3 1_555 1_555
O42_3 H82_3 1_555 1_555
O41_3 H83_3 1_555 1_555
Co7 O46_3 1_555 1_555
O84_3 Co7 1_555 1_555
O85_3 Co7 1_555 1_555
N25_3 Co7 1_555 1_555
C69_3 H58_3 1_555 1_555
C78_3 N25_3 1_555 1_555
H67_3 C78_3 1_555 1_555
C69_3 C78_3 1_555 1_555
O85_3 H87_3 1_555 1_555
O85_3 H88_3 1_555 1_555
O84_3 H89_3 1_555 1_555
N6_3 C27_3 1_555 1_555
N35 C15_3 1_555 1_555
C15_3 H14_3 1_555 1_555
C24_3 H23_3 1_555 1_555
C27_3 C24_3 1_555 1_555
C38_3 N6_3 1_555 1_555
H34_3 C38_3 1_555 1_555
C45_3 C24_3 1_555 1_555
H38_3 C45_3 1_555 1_555
C46_3 N6_3 1_555 1_555
H39_3 C46_3 1_555 1_555
O43_3 Co3_4 1_555 1_555
N24_3 C80_3 1_555 1_555
N36 C70_3 1_555 1_555
C70_3 H59_3 1_555 1_555
C77_3 H66_3 1_555 1_555
C80_3 C77_3 1_555 1_555
C88_3 N24_3 1_555 1_555
H75_3 C88_3 1_555 1_555
C93_3 C77_3 1_555 1_555
H78_3 C93_3 1_555 1_555
C94_3 N24_3 1_555 1_555
H79_3 C94_3 1_555 1_555
O86_3 Co3_4 1_555 1_555
N35 C46_3 1_555 1_555
C15_3 C38_3 1_555 1_555
N36 C94_3 1_555 1_555
C70_3 C88_3 1_555 1_555
W1_3 O1_3 1_555 1_555
W3_3 O5_3 1_555 1_555
W4_3 O2_3 1_555 1_555
W5_3 O7_3 1_555 1_555
W6_3 O9_3 1_555 1_555
W7_3 O18_3 1_555 1_555
W9_3 O7_3 1_555 1_555
W10_3 O1_3 1_555 1_555
W11_3 O1_3 1_555 1_555
W12_3 O8_3 1_555 1_555
Co12_2 O5_3 1_555 1_555
P1_3 O1_3 1_555 1_555
O6_3 W11_3 1_555 1_555
O7_3 W3_3 1_555 1_555
O8_3 W4_3 1_555 1_555
O9_3 W3_3 1_555 1_555
O10_3 W9_3 1_555 1_555
O11_3 W12_3 1_555 1_555
O12_3 W10_3 1_555 1_555
O13_3 W2_3 1_555 1_555
O14_3 W6_3 1_555 1_555
O15_3 W10_3 1_555 1_555
O16_3 W2_3 1_555 1_555
O17_3 W8_3 1_555 1_555
O18_3 W8_3 1_555 1_555
O19_3 W6_3 1_555 1_555
O20_3 W3_3 1_555 1_555
O21_3 W4_3 1_555 1_555
O22_3 W1_3 1_555 1_555
O23_3 W1_3 1_555 1_555
O24_3 W3_3 1_555 1_555
O25_3 W2_3 1_555 1_555
O26_3 W1_3 1_555 1_555
O27_3 W2_3 1_555 1_555
O28_3 W3_3 1_555 1_555
O29_3 W5_3 1_555 1_555
O30_3 W5_3 1_555 1_555
O31_3 W6_3 1_555 1_555
O32_3 W2_3 1_555 1_555
O33_3 W6_3 1_555 1_555
O34_3 W6_3 1_555 1_555
O35_2 W1_3 1_555 1_555
O36_3 W1_3 1_555 1_555
O37_3 W7_3 1_555 1_555
O38_3 W9_3 1_555 1_555
O39_3 W5_3 1_555 1_555
O40_3 W4_3 1_555 1_555
N3_3 Co12_2 1_555 1_555
N5_3 C14_3 1_555 1_555
N9_3 Co12_2 1_555 1_555
N10_3 C12_3 1_555 1_555
N11_3 Co12_2 1_555 1_555
N13_3 C5_3 1_555 1_555
C4_3 N11_3 1_555 1_555
H4_3 C4_3 1_555 1_555
C5_3 C4_3 1_555 1_555
H5_3 C5_3 1_555 1_555
C6_3 H6_3 1_555 1_555
C7_3 H7_3 1_555 1_555
C8_3 N9_3 1_555 1_555
H8_3 C8_3 1_555 1_555
C12_3 C8_3 1_555 1_555
H11_3 C12_3 1_555 1_555
C14_3 H13_3 1_555 1_555
C17_3 H16_3 1_555 1_555
C18_3 H17_3 1_555 1_555
C22_3 H21_3 1_555 1_555
C23_3 N3_3 1_555 1_555
H22_3 C23_3 1_555 1_555
C28_3 N5_3 1_555 1_555
C29_3 N11_3 1_555 1_555
H26_3 C29_3 1_555 1_555
C31_3 C28_3 1_555 1_555
H28_3 C31_3 1_555 1_555
C35_3 C22_3 1_555 1_555
H32_3 C35_3 1_555 1_555
C39_3 N9_3 1_555 1_555
H35_3 C39_3 1_555 1_555
C41_3 N3_3 1_555 1_555
H36_3 C41_3 1_555 1_555
C42_3 N10_3 1_555 1_555
C43_3 N13_3 1_555 1_555
N33_2 C51_3 1_555 1_555
N18_3 C49_3 1_555 1_555
C49_3 H41_3 1_555 1_555
C50_3 C31_3 1_555 1_555
H42_3 C50_3 1_555 1_555
C51_3 C49_3 1_555 1_555
H43_3 C51_3 1_555 1_555
C52_3 N18_3 1_555 1_555
C53_3 C17_3 1_555 1_555
H44_3 C53_3 1_555 1_555
C54_3 N33_2 1_555 1_555
H45_3 C54_3 1_555 1_555
Co12 O35_2 1_555 1_555
O87_2 Co12_2 1_555 1_555
W4_3 O16_3 1_555 1_555
W4_3 O32_3 1_555 1_555
W5_3 O23_3 1_555 1_555
W5_3 O24_3 1_555 1_555
W7_3 O19_3 1_555 1_555
W7_3 O22_3 1_555 1_555
W7_3 O30_3 1_555 1_555
W7_3 O34_3 1_555 1_555
W8_3 O25_3 1_555 1_555
W8_3 O31_3 1_555 1_555
W8_3 O34_3 1_555 1_555
W9_3 O20_3 1_555 1_555
W9_3 O29_3 1_555 1_555
W9_3 O40_3 1_555 1_555
W10_3 O13_3 1_555 1_555
W10_3 O17_3 1_555 1_555
W10_3 O36_3 1_555 1_555
W11_3 O10_3 1_555 1_555
W11_3 O15_3 1_555 1_555
W11_3 O21_3 1_555 1_555
W11_3 O26_3 1_555 1_555
W12_3 O16_3 1_555 1_555
W12_3 O27_3 1_555 1_555
W12_3 O28_3 1_555 1_555
W12_3 O33_3 1_555 1_555
P1_3 O7_3 1_555 1_555
P1_3 O16_3 1_555 1_555
P1_3 O34_3 1_555 1_555
N5_3 C41_3 1_555 1_555
N10_3 C39_3 1_555 1_555
N13_3 C29_3 1_555 1_555
C6_3 C43_3 1_555 1_555
C7_3 C43_3 1_555 1_555
C14_3 C23_3 1_555 1_555
C17_3 C28_3 1_555 1_555
C18_3 C42_3 1_555 1_555
C35_3 C42_3 1_555 1_555
N18_3 C54_3 1_555 1_555
C50_3 C52_3 1_555 1_555
C52_3 C53_3 1_555 1_555
N8_3 C26_3 1_555 1_555
N37_2 C32_3 1_555 1_555
C26_3 H25_3 1_555 1_555
C32_3 N8_3 1_555 1_555
H29_3 C32_3 1_555 1_555
H30_3 C33_3 1_555 1_555
C40_3 N8_3 1_555 1_555
C44_3 N37_2 1_555 1_555
H37_3 C44_3 1_555 1_555
C26_3 C44_3 1_555 1_555
C33_3 C40_3 1_555 1_555
N17_2 C51_4 1_555 1_555
N18_4 C49_4 1_555 1_555
C49_4 H41_4 1_555 1_555
H42_4 C50_4 1_555 1_555
C51_4 C49_4 1_555 1_555
H43_4 C51_4 1_555 1_555
C52_4 N18_4 1_555 1_555
H44_4 C53_4 1_555 1_555
C54_4 N17_2 1_555 1_555
H45_4 C54_4 1_555 1_555
Co13 N17_2 1_555 1_555
N18_4 C54_4 1_555 1_555
C50_4 C52_4 1_555 1_555
C52_4 C53_4 1_555 1_555
W2_4 O3_4 1_555 1_555
W3_4 O5_4 1_555 1_555
W4_4 O2_4 1_555 1_555
W6_4 O9_4 1_555 1_555
W9_4 O7_4 1_555 1_555
W12_4 O8_4 1_555 1_555
Co6_2 O3_4 1_555 1_555
Co12 O5_4 1_555 1_555
O7_4 W3_4 1_555 1_555
O8_4 W4_4 1_555 1_555
O9_4 W3_4 1_555 1_555
O11_4 W12_4 1_555 1_555
O14_4 W6_4 1_555 1_555
O16_4 W2_4 1_555 1_555
O19_4 W6_4 1_555 1_555
O20_4 W3_4 1_555 1_555
O21_4 W4_4 1_555 1_555
O24_4 W3_4 1_555 1_555
O25_4 W2_4 1_555 1_555
O27_4 W2_4 1_555 1_555
O28_4 W3_4 1_555 1_555
O31_4 W6_4 1_555 1_555
O32_4 W2_4 1_555 1_555
O33_4 W6_4 1_555 1_555
O38_4 W9_4 1_555 1_555
O40_4 W4_4 1_555 1_555
O41_4 Co6_2 1_555 1_555
O42_4 Co6_2 1_555 1_555
N3_4 Co12 1_555 1_555
N5_4 C14_4 1_555 1_555
N7_4 Co6_2 1_555 1_555
N8_4 C26_4 1_555 1_555
N9_4 Co12 1_555 1_555
N10_4 C12_4 1_555 1_555
N11_4 Co12 1_555 1_555
N13_4 C5_4 1_555 1_555
N37 C32_4 1_555 1_555
C4_4 N11_4 1_555 1_555
H4_4 C4_4 1_555 1_555
C5_4 C4_4 1_555 1_555
H5_4 C5_4 1_555 1_555
C6_4 H6_4 1_555 1_555
C7_4 H7_4 1_555 1_555
C8_4 N9_4 1_555 1_555
H8_4 C8_4 1_555 1_555
C12_4 C8_4 1_555 1_555
H11_4 C12_4 1_555 1_555
C13_4 H12_4 1_555 1_555
C14_4 H13_4 1_555 1_555
C17_4 H16_4 1_555 1_555
C18_4 H17_4 1_555 1_555
C22_4 H21_4 1_555 1_555
C23_4 N3_4 1_555 1_555
H22_4 C23_4 1_555 1_555
C25_4 N7_4 1_555 1_555
H24_4 C25_4 1_555 1_555
C26_4 H25_4 1_555 1_555
C28_4 N5_4 1_555 1_555
C29_4 N11_4 1_555 1_555
H26_4 C29_4 1_555 1_555
C31_4 C28_4 1_555 1_555
H28_4 C31_4 1_555 1_555
C32_4 N8_4 1_555 1_555
H29_4 C32_4 1_555 1_555
C33_4 C18_4 1_555 1_555
H30_4 C33_4 1_555 1_555
C35_4 C22_4 1_555 1_555
H32_4 C35_4 1_555 1_555
C39_4 N9_4 1_555 1_555
H35_4 C39_4 1_555 1_555
C40_4 N8_4 1_555 1_555
C41_4 N3_4 1_555 1_555
H36_4 C41_4 1_555 1_555
C42_4 N10_4 1_555 1_555
C43_4 N13_4 1_555 1_555
C44_4 N37 1_555 1_555
H37_4 C44_4 1_555 1_555
N19_2 C55_4 1_555 1_555
N20_4 C56_4 1_555 1_555
C55_4 H46_4 1_555 1_555
C56_4 C55_4 1_555 1_555
H47_4 C56_4 1_555 1_555
C57_4 C7_4 1_555 1_555
H48_4 C57_4 1_555 1_555
C58_4 C6_4 1_555 1_555
H49_4 C58_4 1_555 1_555
C59_4 N19_2 1_555 1_555
H50_4 C59_4 1_555 1_555
C60_4 N20_4 1_555 1_555
Co13 N19_2 1_555 1_555
W4_4 O16_4 1_555 1_555
W4_4 O32_4 1_555 1_555
W9_4 O20_4 1_555 1_555
W9_4 O29_4 1_555 1_555
W9_4 O40_4 1_555 1_555
W12_4 O16_4 1_555 1_555
W12_4 O27_4 1_555 1_555
W12_4 O28_4 1_555 1_555
W12_4 O33_4 1_555 1_555
P1_4 O7_4 1_555 1_555
P1_4 O16_4 1_555 1_555
N5_4 C41_4 1_555 1_555
N10_4 C39_4 1_555 1_555
N13_4 C29_4 1_555 1_555
C6_4 C43_4 1_555 1_555
C7_4 C43_4 1_555 1_555
C13_4 C25_4 1_555 1_555
C14_4 C23_4 1_555 1_555
C17_4 C28_4 1_555 1_555
C18_4 C42_4 1_555 1_555
C22_4 C40_4 1_555 1_555
C26_4 C44_4 1_555 1_555
C33_4 C40_4 1_555 1_555
C35_4 C42_4 1_555 1_555
N20_4 C59_4 1_555 1_555
C57_4 C60_4 1_555 1_555
C58_4 C60_4 1_555 1_555
O42_4 H81_4 1_555 1_555
O42_4 H82_4 1_555 1_555
O41_4 H83_4 1_555 1_555
O41_4 H84_4 1_555 1_555
W1_4 O1_4 1_555 1_555
W7_4 O18_4 1_555 1_555
W8_4 O4_4 1_555 1_555
W10_4 O1_4 1_555 1_555
W11_4 O1_4 1_555 1_555
O6_4 W11_4 1_555 1_555
O12_4 W10_4 1_555 1_555
O15_4 W10_4 1_555 1_555
O17_4 W8_4 1_555 1_555
O18_4 W8_4 1_555 1_555
O22_4 W1_4 1_555 1_555
O23_4 W1_4 1_555 1_555
O26_4 W1_4 1_555 1_555
O30_4 W5_4 1_555 1_555
O87_2 W1_4 1_555 1_555
O36_4 W1_4 1_555 1_555
O37_4 W7_4 1_555 1_555
O39_4 W5_4 1_555 1_555
Co3_5 N1_4 1_555 1_555
N1_4 C1_4 1_555 1_555
N4_4 C1_4 1_555 1_555
N6_4 C27_4 1_555 1_555
N12_4 C20_4 1_555 1_555
N35_2 C15_4 1_555 1_555
C1_4 H1_4 1_555 1_555
C2_4 N4_4 1_555 1_555
H2_4 C2_4 1_555 1_555
C3_4 N1_4 1_555 1_555
H3_4 C3_4 1_555 1_555
C9_4 N4_4 1_555 1_555
C10_4 C9_4 1_555 1_555
H9_4 C10_4 1_555 1_555
C11_4 C10_4 1_555 1_555
H10_4 C11_4 1_555 1_555
C15_4 H14_4 1_555 1_555
C16_4 C9_4 1_555 1_555
H15_4 C16_4 1_555 1_555
C19_4 C16_4 1_555 1_555
H18_4 C19_4 1_555 1_555
C20_4 H19_4 1_555 1_555
C21_4 N16_4 1_555 1_555
H20_4 C21_4 1_555 1_555
C24_4 H23_4 1_555 1_555
C27_4 C24_4 1_555 1_555
C30_4 N2_4 1_555 1_555
H27_4 C30_4 1_555 1_555
C34_4 C27_4 1_555 1_555
H31_4 C34_4 1_555 1_555
C36_4 N12_4 1_555 1_555
C37_4 N12_4 1_555 1_555
H33_4 C37_4 1_555 1_555
C38_4 N6_4 1_555 1_555
H34_4 C38_4 1_555 1_555
C45_4 C24_4 1_555 1_555
H38_4 C45_4 1_555 1_555
C46_4 N6_4 1_555 1_555
H39_4 C46_4 1_555 1_555
C47_4 N2_4 1_555 1_555
C48_4 C34_4 1_555 1_555
H40_4 C48_4 1_555 1_555
O43_4 Co3_5 1_555 1_555
W5_4 O23_4 1_555 1_555
W7_4 O22_4 1_555 1_555
W7_4 O30_4 1_555 1_555
W7_4 O34_4 1_555 1_555
W8_4 O34_4 1_555 1_555
W10_4 O13_4 1_555 1_555
W10_4 O17_4 1_555 1_555
W10_4 O36_4 1_555 1_555
W11_4 O10_4 1_555 1_555
W11_4 O15_4 1_555 1_555
W11_4 O26_4 1_555 1_555
N35_2 C46_4 1_555 1_555
N16_4 C37_4 1_555 1_555
C2_4 C3_4 1_555 1_555
C11_4 C47_4 1_555 1_555
C15_4 C38_4 1_555 1_555
C19_4 C47_4 1_555 1_555
C20_4 C21_4 1_555 1_555
C36_4 C45_4 1_555 1_555
C36_4 C48_4 1_555 1_555
W13_4 O44_4 1_555 1_555
W14_4 O46_4 1_555 1_555
W15_4 O48_4 1_555 1_555
W16_4 O45_4 1_555 1_555
W17_4 O50_4 1_555 1_555
W18_4 O52_4 1_555 1_555
W19_4 O61_4 1_555 1_555
W20_4 O47_4 1_555 1_555
W21_4 O50_4 1_555 1_555
W22_4 O44_4 1_555 1_555
W23_4 O44_4 1_555 1_555
W24_4 O51_4 1_555 1_555
Co7_2 O46_4 1_555 1_555
Co13 O48_4 1_555 1_555
P2_4 O44_4 1_555 1_555
O49_4 W23_4 1_555 1_555
O50_4 W15_4 1_555 1_555
O51_4 W16_4 1_555 1_555
O52_4 W15_4 1_555 1_555
O53_4 W21_4 1_555 1_555
O54_4 W24_4 1_555 1_555
O55_4 W22_4 1_555 1_555
O56_4 W14_4 1_555 1_555
O57_4 W18_4 1_555 1_555
O58_4 W22_4 1_555 1_555
O59_4 W14_4 1_555 1_555
O60_4 W20_4 1_555 1_555
O61_4 W20_4 1_555 1_555
O62_4 W18_4 1_555 1_555
O63_4 W15_4 1_555 1_555
O64_4 W16_4 1_555 1_555
O65_4 W13_4 1_555 1_555
O66_4 W13_4 1_555 1_555
O67_4 W15_4 1_555 1_555
O68_4 W14_4 1_555 1_555
O69_4 W13_4 1_555 1_555
O70_4 W14_4 1_555 1_555
O71_4 W15_4 1_555 1_555
O72_4 W17_4 1_555 1_555
O73_4 W17_4 1_555 1_555
O74_4 W18_4 1_555 1_555
O75_4 W14_4 1_555 1_555
O76_4 W18_4 1_555 1_555
O77_4 W18_4 1_555 1_555
O88_2 W13_4 1_555 1_555
O79_4 W13_4 1_555 1_555
O80_4 W19_4 1_555 1_555
O81_4 W21_4 1_555 1_555
O82_4 W17_4 1_555 1_555
O83_4 W16_4 1_555 1_555
O84_4 Co7_2 1_555 1_555
O85_4 Co7_2 1_555 1_555
N21_4 Co3_6 1_555 1_555
N22_4 C69_4 1_555 1_555
N23_4 C61_4 1_555 1_555
N24_4 C80_4 1_555 1_555
N25_4 Co7_2 1_555 1_555
N26_4 C79_4 1_555 1_555
N27_4 Co13 1_555 1_555
N28_4 C68_4 1_555 1_555
N29_4 C74_4 1_555 1_555
N36_2 C70_4 1_555 1_555
N38 C82_4 1_555 1_555
N32_4 Co7_2 1_555 1_555
C61_4 N21_4 1_555 1_555
H51_4 C61_4 1_555 1_555
C62_4 N23_4 1_555 1_555
H52_4 C62_4 1_555 1_555
C63_4 N21_4 1_555 1_555
H53_4 C63_4 1_555 1_555
C64_4 N27_4 1_555 1_555
H54_4 C64_4 1_555 1_555
C65_4 N23_4 1_555 1_555
C66_4 C65_4 1_555 1_555
H55_4 C66_4 1_555 1_555
C67_4 C66_4 1_555 1_555
H56_4 C67_4 1_555 1_555
C68_4 C64_4 1_555 1_555
H57_4 C68_4 1_555 1_555
C69_4 H58_4 1_555 1_555
C70_4 H59_4 1_555 1_555
C71_4 C65_4 1_555 1_555
H60_4 C71_4 1_555 1_555
C72_4 H61_4 1_555 1_555
C73_4 C71_4 1_555 1_555
H62_4 C73_4 1_555 1_555
C74_4 H63_4 1_555 1_555
C75_4 N32_4 1_555 1_555
H64_4 C75_4 1_555 1_555
C76_4 H65_4 1_555 1_555
C77_4 H66_4 1_555 1_555
C78_4 N25_4 1_555 1_555
H67_4 C78_4 1_555 1_555
C79_4 H68_4 1_555 1_555
C80_4 C77_4 1_555 1_555
C81_4 N22_4 1_555 1_555
H69_4 C81_4 1_555 1_555
C82_4 N26_4 1_555 1_555
H70_4 C82_4 1_555 1_555
C83_4 C72_4 1_555 1_555
H71_4 C83_4 1_555 1_555
C84_4 C80_4 1_555 1_555
H72_4 C84_4 1_555 1_555
C85_4 C76_4 1_555 1_555
H73_4 C85_4 1_555 1_555
C86_4 N29_4 1_555 1_555
C87_4 N29_4 1_555 1_555
H74_4 C87_4 1_555 1_555
C88_4 N24_4 1_555 1_555
H75_4 C88_4 1_555 1_555
C89_4 N27_4 1_555 1_555
H76_4 C89_4 1_555 1_555
C90_4 N26_4 1_555 1_555
C91_4 N28_4 1_555 1_555
C92_4 N38 1_555 1_555
H77_4 C92_4 1_555 1_555
C93_4 C77_4 1_555 1_555
H78_4 C93_4 1_555 1_555
C94_4 N24_4 1_555 1_555
H79_4 C94_4 1_555 1_555
C95_4 N22_4 1_555 1_555
C96_4 C84_4 1_555 1_555
H80_4 C96_4 1_555 1_555
O86_4 Co3_6 1_555 1_555
W16_4 O59_4 1_555 1_555
W16_4 O75_4 1_555 1_555
W17_4 O66_4 1_555 1_555
W17_4 O67_4 1_555 1_555
W19_4 O62_4 1_555 1_555
W19_4 O65_4 1_555 1_555
W19_4 O73_4 1_555 1_555
W19_4 O77_4 1_555 1_555
W20_4 O68_4 1_555 1_555
W20_4 O74_4 1_555 1_555
W20_4 O77_4 1_555 1_555
W21_4 O63_4 1_555 1_555
W21_4 O72_4 1_555 1_555
W21_4 O83_4 1_555 1_555
W22_4 O56_4 1_555 1_555
W22_4 O60_4 1_555 1_555
W22_4 O79_4 1_555 1_555
W23_4 O53_4 1_555 1_555
W23_4 O58_4 1_555 1_555
W23_4 O64_4 1_555 1_555
W23_4 O69_4 1_555 1_555
W24_4 O59_4 1_555 1_555
W24_4 O70_4 1_555 1_555
W24_4 O71_4 1_555 1_555
W24_4 O76_4 1_555 1_555
P2_4 O50_4 1_555 1_555
P2_4 O59_4 1_555 1_555
P2_4 O77_4 1_555 1_555
N25_4 C81_4 1_555 1_555
N28_4 C89_4 1_555 1_555
N36_2 C94_4 1_555 1_555
N32_4 C87_4 1_555 1_555
C62_4 C63_4 1_555 1_555
C67_4 C95_4 1_555 1_555
C69_4 C78_4 1_555 1_555
C70_4 C88_4 1_555 1_555
C72_4 C91_4 1_555 1_555
C73_4 C95_4 1_555 1_555
C74_4 C75_4 1_555 1_555
C76_4 C90_4 1_555 1_555
C79_4 C92_4 1_555 1_555
C83_4 C90_4 1_555 1_555
C85_4 C91_4 1_555 1_555
C86_4 C93_4 1_555 1_555
C86_4 C96_4 1_555 1_555
O85_4 H87_4 1_555 1_555
O85_4 H88_4 1_555 1_555
O84_4 H89_4 1_555 1_555
O84_4 H90_2 1_555 1_555

#END
