
###############################################################################
#
# This file contains modified crystal structure data generated from the
# MOF subset of the Cambridge Structural Database (CSD) v543 
# hosted by the Cambridge Crystallographic Data Centre (CCDC).
#
# This work is licensed under the Creative Commons
# Attribution-NonCommercial-ShareAlike 4.0 International License.
# To view a copy of this license, visit
# http://creativecommons.org/licenses/by-nc-sa/4.0/
# or send a letter to
# Creative Commons, PO Box 1866, Mountain View, CA 94042, USA.
#
# CIF created using the CSD Python API on 29 September 2022
# The structure has been converted into the P1 space group
# The structure has a 3D framework
# The original CSD entry OQUXEF is in the orthorhombic crystal system
# The framework has been calculated to contain at least 10.0% void space
# The void calculation uses a probe of radius 1.32A, grid spacing 0.4
# H atom positions have been added when not included in the experimental data
#
###############################################################################

data_OQUXEF
_chemical_formula_moiety         '(C144 H128 B4 Co8 N48 O156 W48)n'
_symmetry_cell_setting           triclinic
_symmetry_space_group_name_H-M   'P 1'
_symmetry_Int_Tables_number      1
_space_group_name_Hall           'P 1'
loop_
_symmetry_equiv_pos_site_id
_symmetry_equiv_pos_as_xyz
1 x,y,z
_cell_length_a                   26.780(5)
_cell_length_b                   19.963(5)
_cell_length_c                   12.980(5)
_cell_angle_alpha                90
_cell_angle_beta                 90
_cell_angle_gamma                90
_cell_volume                     6939.23
loop_
_atom_site_label
_atom_site_type_symbol
_atom_site_fract_x
_atom_site_fract_y
_atom_site_fract_z
W1 W 0.15367(3) 0.2500 0.25651(7)
W2 W 0.15436(2) 0.16726(3) 0.47766(5)
W3 W 0.36756(3) 0.2500 0.56014(7)
W4 W 0.26523(2) 0.07694(3) 0.39263(5)
W5 W 0.26661(2) 0.16761(3) 0.63458(5)
W6 W 0.26503(2) 0.15932(4) 0.17322(5)
W7 W 0.36667(2) 0.15871(3) 0.31769(5)
B1 B 0.2628(8) 0.2500 0.401(2)
O1 O 0.1258(5) 0.2500 0.5206(11)
O2 O 0.1988(3) 0.1062(5) 0.4115(8)
O3 O 0.3759(4) 0.1824(5) 0.4559(7)
O4 O 0.2552(5) 0.2500 0.7071(11)
O7 O 0.4255(5) 0.2500 0.6162(13)
O8 O 0.2006(4) 0.1695(5) 0.5883(7)
O9 O 0.3365(4) 0.1843(5) 0.6443(8)
O10 O 0.3363(4) 0.0779(5) 0.3650(9)
O11 O 0.1992(3) 0.1848(5) 0.2030(8)
O12 O 0.4242(4) 0.1274(6) 0.2890(9)
O13 O 0.1262(4) 0.1823(5) 0.3438(8)
O14 O 0.3355(3) 0.1452(5) 0.1880(8)
O15 O 0.2782(4) 0.1057(5) 0.5297(8)
O16 O 0.1105(4) 0.1144(5) 0.5239(9)
O17 O 0.2543(4) 0.0780(6) 0.2480(8)
O18 O 0.2825(5) 0.2500 0.5133(11)
O19 O 0.2063(5) 0.2500 0.4028(11)
O20 O 0.3758(5) 0.2500 0.2820(12)
O21 O 0.2777(5) 0.2500 0.1428(11)
O22 O 0.2814(4) 0.1868(5) 0.3450(8)
O24 O 0.1108(6) 0.2500 0.1596(12)
H2 H 0.0035 0.0069 0.3504
O25 O 0.2814(4) 0.3132(5) 0.3450(8)
W8 W 0.15436(2) 0.33274(3) 0.47766(5)
W9 W 0.26523(2) 0.42306(3) 0.39263(5)
W10 W 0.26661(2) 0.33239(3) 0.63458(5)
W11 W 0.26503(2) 0.34068(4) 0.17322(5)
W12 W 0.36667(2) 0.34129(3) 0.31769(5)
Co2 Co 0.24085(12) 0.60895(17) 0.3991(2)
O26 O 0.1988(3) 0.3938(5) 0.4115(8)
O27 O 0.3759(4) 0.3176(5) 0.4559(7)
O28 O 0.2389(4) 0.6159(6) 0.2374(8)
O29 O 0.2425(4) 0.6281(7) 0.5530(9)
O30 O 0.2006(4) 0.3305(5) 0.5883(7)
O31 O 0.3365(4) 0.3157(5) 0.6443(8)
O32 O 0.3363(4) 0.4221(5) 0.3650(9)
O33 O 0.1992(3) 0.3152(5) 0.2030(8)
O34 O 0.4242(4) 0.3726(6) 0.2890(9)
O35 O 0.1262(4) 0.3177(5) 0.3438(8)
O36 O 0.3355(3) 0.3548(5) 0.1880(8)
O37 O 0.2782(4) 0.3943(5) 0.5297(8)
O38 O 0.1105(4) 0.3856(5) 0.5239(9)
O39 O 0.2543(4) 0.4220(6) 0.2480(8)
O40 O 0.2580(4) 0.5078(5) 0.4108(9)
C13 C 0.0341(7) 0.5827(9) 0.3143(14)
C14 C 0.0264(8) 0.6435(12) 0.2624(18)
H11 H 0.0501 0.6776 0.2647
H12 H 0.0035 0.4931 0.3504
C16 C 0.0873(10) 0.5341(13) 0.444(2)
H13 H 0.0630 0.5092 0.4773
C17 C 0.1378(9) 0.5380(11) 0.4710(15)
H14 H 0.1525 0.5144 0.5249
C18 C 0.1247(7) 0.5989(10) 0.3334(14)
H15 H 0.1292 0.6248 0.2746
N7 N 0.1631(7) 0.5819(9) 0.4063(13)
N8 N 0.0805(5) 0.5712(8) 0.3640(13)
W14 W 0.23339(2) 0.66761(3) 0.13458(5)
W16 W 0.23497(2) 0.65932(4) 0.67322(5)
O41 O 0.2611(4) 0.1159(6) 0.7374(8)
O42 O 0.2611(4) 0.3841(6) 0.7374(8)
O43 O 0.2575(4) 0.1281(7) 0.0530(9)
O44 O 0.2575(4) 0.3719(7) 0.0530(9)
N9 N 0.3190(7) 0.6219(9) 0.3921(13)
Co1 Co 0.24085(12) 0.89105(17) 0.3991(2)
O5 O 0.2389(4) 0.8841(6) 0.2374(8)
O6 O 0.2425(4) 0.8719(7) 0.5530(9)
O23 O 0.2580(4) 0.9922(5) 0.4108(9)
C1 C 0.0341(7) 0.9173(9) 0.3143(14)
C2 C 0.0264(8) 0.8565(12) 0.2624(18)
H1 H 0.0501 0.8224 0.2647
C4 C 0.0873(10) 0.9659(13) 0.444(2)
H3 H 0.0630 0.9908 0.4773
C5 C 0.1378(9) 0.9620(11) 0.4710(15)
H4 H 0.1525 0.9856 0.5249
C6 C 0.1247(7) 0.9011(10) 0.3334(14)
H5 H 0.1292 0.8752 0.2746
N3 N 0.1631(7) 0.9181(9) 0.4063(13)
N4 N 0.0805(5) 0.9288(8) 0.3640(13)
W13 W 0.23339(2) 0.83239(3) 0.13458(5)
W15 W 0.23497(2) 0.84068(4) 0.67322(5)
N10 N 0.3190(7) 0.8781(9) 0.3921(13)
C15 C 0.9983(8) 0.5329(9) 0.3147(16)
C19 C 0.9812(9) 0.6510(12) 0.206(2)
H16 H 0.9763 0.6893 0.1667
C20 C 0.9524(7) 0.5442(10) 0.2578(15)
H17 H 0.9279 0.5112 0.2545
C21 C 0.9458(7) 0.6046(10) 0.2091(14)
C22 C 0.8533(8) 0.5985(11) 0.1800(17)
H18 H 0.8447 0.5742 0.2385
C23 C 0.8981(7) 0.6553(9) 0.0651(15)
H19 H 0.9239 0.6760 0.0293
N5 N 0.8190(7) 0.6219(9) 0.1079(13)
N6 N 0.9009(6) 0.6156(8) 0.1545(12)
C24 C 0.8472(7) 0.6561(10) 0.0435(17)
Co3 Co 0.74085(12) 0.60895(17) 0.1009(2)
C3 C 0.9983(8) 0.9671(9) 0.3147(16)
C7 C 0.9812(9) 0.8490(12) 0.206(2)
H6 H 0.9763 0.8107 0.1667
C8 C 0.9524(7) 0.9558(10) 0.2578(15)
H7 H 0.9279 0.9888 0.2545
C9 C 0.9458(7) 0.8954(10) 0.2091(14)
C10 C 0.8533(8) 0.9015(11) 0.1800(17)
H8 H 0.8447 0.9258 0.2385
C11 C 0.8981(7) 0.8447(9) 0.0651(15)
H9 H 0.9239 0.8240 0.0293
N1 N 0.8190(7) 0.8781(9) 0.1079(13)
N2 N 0.9009(6) 0.8844(8) 0.1545(12)
C12 C 0.8472(7) 0.8439(10) 0.0435(17)
Co4 Co 0.74085(12) 0.89105(17) 0.1009(2)
H4_2 H 0.3475 0.0144 0.0249
Co1_2 Co 0.25915(12) 0.10895(17) 0.8991(2)
O23_2 O 0.2420(4) 0.0078(5) 0.9108(9)
C1_2 C 0.4659(7) 0.0827(9) 0.8143(14)
C2_2 C 0.4736(8) 0.1435(12) 0.7624(18)
H1_2 H 0.4499 0.1776 0.7647
C3_2 C 0.5017(8) 0.0329(9) 0.8147(16)
C4_2 C 0.4127(10) 0.0341(13) 0.944(2)
H3_2 H 0.4370 0.0092 0.9773
C5_2 C 0.3622(9) 0.0380(11) 0.9710(15)
C6_2 C 0.3753(7) 0.0989(10) 0.8334(14)
H5_2 H 0.3708 0.1248 0.7746
C7_2 C 0.5188(9) 0.1510(12) 0.706(2)
H6_2 H 0.5237 0.1893 0.6667
C8_2 C 0.5476(7) 0.0442(10) 0.7578(15)
H7_2 H 0.5721 0.0112 0.7545
C9_2 C 0.5542(7) 0.1046(10) 0.7091(14)
C10_2 C 0.6467(8) 0.0985(11) 0.6800(17)
H8_2 H 0.6553 0.0742 0.7385
C11_2 C 0.6019(7) 0.1553(9) 0.5651(15)
H9_2 H 0.5761 0.1760 0.5293
N1_2 N 0.6810(7) 0.1219(9) 0.6079(13)
N2_2 N 0.5991(6) 0.1156(8) 0.6545(12)
C12_2 C 0.6528(7) 0.1561(10) 0.5435(17)
H10 H 0.6660 0.1791 0.4874
N3_2 N 0.3369(7) 0.0819(9) 0.9063(13)
N4_2 N 0.4195(5) 0.0712(8) 0.8640(13)
Co4_2 Co 0.75915(12) 0.10895(17) 0.6009(2)
N10_2 N 0.1810(7) 0.1219(9) 0.8921(13)
W3_2 W 0.13244(3) 0.7500 0.06014(7)
O1_2 O 0.3742(5) 0.7500 0.0206(11)
O4_2 O 0.2448(5) 0.7500 0.2071(11)
O7_2 O 0.0745(5) 0.7500 0.1162(13)
O8_2 O 0.2994(4) 0.8305(5) 0.0883(7)
O9_2 O 0.1635(4) 0.8157(5) 0.1443(8)
O15_2 O 0.2218(4) 0.8943(5) 0.0297(8)
O16_2 O 0.3895(4) 0.8856(5) 0.0239(9)
O18_2 O 0.2175(5) 0.7500 0.0133(11)
O30_2 O 0.2994(4) 0.6695(5) 0.0883(7)
O31_2 O 0.1635(4) 0.6843(5) 0.1443(8)
O37_2 O 0.2218(4) 0.6057(5) 0.0297(8)
O38_2 O 0.3895(4) 0.6144(5) 0.0239(9)
H14_2 H 0.3475 0.4856 0.0249
W1_2 W 0.34633(3) 0.7500 0.75651(7)
W2_2 W 0.34564(2) 0.83274(3) 0.97766(5)
W4_2 W 0.23477(2) 0.92306(3) 0.89263(5)
W7_2 W 0.13333(2) 0.84129(3) 0.81769(5)
B1_2 B 0.2372(8) 0.7500 0.901(2)
O2_2 O 0.3012(3) 0.8938(5) 0.9115(8)
O3_2 O 0.1241(4) 0.8176(5) 0.9559(7)
O10_2 O 0.1637(4) 0.9221(5) 0.8650(9)
O11_2 O 0.3008(3) 0.8152(5) 0.7030(8)
O12_2 O 0.0758(4) 0.8726(6) 0.7890(9)
O13_2 O 0.3738(4) 0.8177(5) 0.8438(8)
O14_2 O 0.1645(3) 0.8548(5) 0.6880(8)
O17_2 O 0.2457(4) 0.9220(6) 0.7480(8)
O19_2 O 0.2937(5) 0.7500 0.9028(11)
O20_2 O 0.1242(5) 0.7500 0.7820(12)
O21_2 O 0.2223(5) 0.7500 0.6428(11)
O22_2 O 0.2186(4) 0.8132(5) 0.8450(8)
O24_2 O 0.3892(6) 0.7500 0.6596(12)
H2_2 H 0.4965 0.9931 0.8504
O25_2 O 0.2186(4) 0.6868(5) 0.8450(8)
W8_2 W 0.34564(2) 0.66726(3) 0.97766(5)
W9_2 W 0.23477(2) 0.57694(3) 0.89263(5)
W12_2 W 0.13333(2) 0.65871(3) 0.81769(5)
Co2_2 Co 0.25915(12) 0.39105(17) 0.8991(2)
O26_2 O 0.3012(3) 0.6062(5) 0.9115(8)
O27_2 O 0.1241(4) 0.6824(5) 0.9559(7)
O32_2 O 0.1637(4) 0.5779(5) 0.8650(9)
O33_2 O 0.3008(3) 0.6848(5) 0.7030(8)
O34_2 O 0.0758(4) 0.6274(6) 0.7890(9)
O35_2 O 0.3738(4) 0.6823(5) 0.8438(8)
O36_2 O 0.1645(3) 0.6452(5) 0.6880(8)
O39_2 O 0.2457(4) 0.5780(6) 0.7480(8)
O40_2 O 0.2420(4) 0.4922(5) 0.9108(9)
C13_2 C 0.4659(7) 0.4173(9) 0.8143(14)
C14_2 C 0.4736(8) 0.3565(12) 0.7624(18)
H11_2 H 0.4499 0.3224 0.7647
C15_2 C 0.5017(8) 0.4671(9) 0.8147(16)
H12_2 H 0.4965 0.5069 0.8504
C16_2 C 0.4127(10) 0.4659(13) 0.944(2)
H13_2 H 0.4370 0.4908 0.9773
C17_2 C 0.3622(9) 0.4620(11) 0.9710(15)
C18_2 C 0.3753(7) 0.4011(10) 0.8334(14)
H15_2 H 0.3708 0.3752 0.7746
C19_2 C 0.5188(9) 0.3490(12) 0.706(2)
H16_2 H 0.5237 0.3107 0.6667
C20_2 C 0.5476(7) 0.4558(10) 0.7578(15)
H17_2 H 0.5721 0.4888 0.7545
C21_2 C 0.5542(7) 0.3954(10) 0.7091(14)
C22_2 C 0.6467(8) 0.4015(11) 0.6800(17)
H18_2 H 0.6553 0.4258 0.7385
C23_2 C 0.6019(7) 0.3447(9) 0.5651(15)
H19_2 H 0.5761 0.3240 0.5293
N5_2 N 0.6810(7) 0.3781(9) 0.6079(13)
N6_2 N 0.5991(6) 0.3844(8) 0.6545(12)
C24_2 C 0.6528(7) 0.3439(10) 0.5435(17)
H20 H 0.6660 0.3209 0.4874
N7_2 N 0.3369(7) 0.4181(9) 0.9063(13)
N8_2 N 0.4195(5) 0.4288(8) 0.8640(13)
Co3_2 Co 0.75915(12) 0.39105(17) 0.6009(2)
N9_2 N 0.1810(7) 0.3781(9) 0.8921(13)
W1_3 W 0.65367(3) 0.2500 0.24349(7)
W2_3 W 0.65436(2) 0.33274(3) 0.02234(5)
W4_3 W 0.76523(2) 0.42306(3) 0.10737(5)
W6_2 W 0.76503(2) 0.34068(4) 0.32678(5)
W7_3 W 0.86667(2) 0.34129(3) 0.18231(5)
B1_3 B 0.7628(8) 0.2500 0.099(2)
O2_3 O 0.6988(3) 0.3938(5) 0.0885(8)
O3_3 O 0.8759(4) 0.3176(5) 0.0441(7)
O5_2 O 0.7389(4) 0.6159(6) 0.2626(8)
O10_3 O 0.8363(4) 0.4221(5) 0.1350(9)
O11_3 O 0.6992(3) 0.3152(5) 0.2970(8)
O12_3 O 0.9242(4) 0.3726(6) 0.2110(9)
O13_3 O 0.6262(4) 0.3177(5) 0.1562(8)
O14_3 O 0.8355(3) 0.3548(5) 0.3120(8)
O17_3 O 0.7543(4) 0.4220(6) 0.2520(8)
O19_3 O 0.7063(5) 0.2500 0.0972(11)
O20_3 O 0.8758(5) 0.2500 0.2180(12)
O21_3 O 0.7777(5) 0.2500 0.3572(11)
O22_3 O 0.7814(4) 0.3132(5) 0.1550(8)
O23_3 O 0.7580(4) 0.5078(5) 0.0892(9)
O24_3 O 0.6108(6) 0.2500 0.3404(12)
C1_3 C 0.5341(7) 0.5827(9) 0.1857(14)
C2_3 C 0.5264(8) 0.6435(12) 0.2376(18)
H1_3 H 0.5501 0.6776 0.2353
C3_3 C 0.4983(8) 0.5329(9) 0.1853(16)
H2_3 H 0.5035 0.4931 0.1496
C4_3 C 0.5873(10) 0.5341(13) 0.056(2)
H3_3 H 0.5630 0.5092 0.0227
C5_3 C 0.6378(9) 0.5380(11) 0.0290(15)
C6_3 C 0.6247(7) 0.5989(10) 0.1666(14)
H5_3 H 0.6292 0.6248 0.2254
C7_3 C 0.4812(9) 0.6510(12) 0.294(2)
H6_3 H 0.4763 0.6893 0.3333
C8_3 C 0.4524(7) 0.5442(10) 0.2422(15)
H7_3 H 0.4279 0.5112 0.2455
C9_3 C 0.4458(7) 0.6046(10) 0.2909(14)
C10_3 C 0.3533(8) 0.5985(11) 0.3200(17)
H8_3 H 0.3447 0.5742 0.2615
C11_3 C 0.3981(7) 0.6553(9) 0.4349(15)
H9_3 H 0.4239 0.6760 0.4707
N2_3 N 0.4009(6) 0.6156(8) 0.3455(12)
C12_3 C 0.3472(7) 0.6561(10) 0.4565(17)
H10_2 H 0.3340 0.6791 0.5126
N3_3 N 0.6631(7) 0.5819(9) 0.0937(13)
N4_3 N 0.5805(5) 0.5712(8) 0.1360(13)
O25_3 O 0.7814(4) 0.1868(5) 0.1550(8)
W8_3 W 0.65436(2) 0.16726(3) 0.02234(5)
W9_3 W 0.76523(2) 0.07694(3) 0.10737(5)
W11_2 W 0.76503(2) 0.15932(4) 0.32678(5)
W12_3 W 0.86667(2) 0.15871(3) 0.18231(5)
O26_3 O 0.6988(3) 0.1062(5) 0.0885(8)
O27_3 O 0.8759(4) 0.1824(5) 0.0441(7)
O32_3 O 0.8363(4) 0.0779(5) 0.1350(9)
O33_3 O 0.6992(3) 0.1848(5) 0.2970(8)
O34_3 O 0.9242(4) 0.1274(6) 0.2110(9)
O35_3 O 0.6262(4) 0.1823(5) 0.1562(8)
O36_3 O 0.8355(3) 0.1452(5) 0.3120(8)
O39_3 O 0.7543(4) 0.0780(6) 0.2520(8)
H12_3 H 0.5035 0.0069 0.1496
W13_2 W 0.73339(2) 0.66761(3) 0.36542(5)
O43_2 O 0.7575(4) 0.3719(7) 0.4470(9)
O44_2 O 0.7575(4) 0.1281(7) 0.4470(9)
W3_3 W 0.86756(3) 0.2500 0.93986(7)
W5_2 W 0.76661(2) 0.33239(3) 0.86542(5)
O1_3 O 0.6258(5) 0.2500 0.9794(11)
O4_3 O 0.7552(5) 0.2500 0.7929(11)
O6_2 O 0.7425(4) 0.6281(7) 0.9470(9)
O7_3 O 0.9255(5) 0.2500 0.8838(13)
O8_3 O 0.7006(4) 0.3305(5) 0.9117(7)
O9_3 O 0.8365(4) 0.3157(5) 0.8557(8)
O15_3 O 0.7782(4) 0.3943(5) 0.9703(8)
O16_3 O 0.6105(4) 0.3856(5) 0.9761(9)
O18_3 O 0.7825(5) 0.2500 0.9867(11)
H4_3 H 0.6525 0.5144 0.9751
W10_2 W 0.76661(2) 0.16761(3) 0.86542(5)
O30_3 O 0.7006(4) 0.1695(5) 0.9117(7)
O31_3 O 0.8365(4) 0.1843(5) 0.8557(8)
O37_3 O 0.7782(4) 0.1057(5) 0.9703(8)
O38_3 O 0.6105(4) 0.1144(5) 0.9761(9)
W15_2 W 0.73497(2) 0.65932(4) 0.82678(5)
O41_2 O 0.7611(4) 0.3841(6) 0.7626(8)
O42_2 O 0.7611(4) 0.1159(6) 0.7626(8)
O28_2 O 0.7389(4) 0.8841(6) 0.2626(8)
O40_3 O 0.7580(4) 0.9922(5) 0.0892(9)
C13_3 C 0.5341(7) 0.9173(9) 0.1857(14)
C14_3 C 0.5264(8) 0.8565(12) 0.2376(18)
H11_3 H 0.5501 0.8224 0.2353
C15_3 C 0.4983(8) 0.9671(9) 0.1853(16)
C16_3 C 0.5873(10) 0.9659(13) 0.056(2)
H13_3 H 0.5630 0.9908 0.0227
C17_3 C 0.6378(9) 0.9620(11) 0.0290(15)
C18_3 C 0.6247(7) 0.9011(10) 0.1666(14)
H15_3 H 0.6292 0.8752 0.2254
C19_3 C 0.4812(9) 0.8490(12) 0.294(2)
H16_3 H 0.4763 0.8107 0.3333
C20_3 C 0.4524(7) 0.9558(10) 0.2422(15)
H17_3 H 0.4279 0.9888 0.2455
C21_3 C 0.4458(7) 0.8954(10) 0.2909(14)
C22_3 C 0.3533(8) 0.9015(11) 0.3200(17)
H18_3 H 0.3447 0.9258 0.2615
C23_3 C 0.3981(7) 0.8447(9) 0.4349(15)
H19_3 H 0.4239 0.8240 0.4707
N6_3 N 0.4009(6) 0.8844(8) 0.3455(12)
C24_3 C 0.3472(7) 0.8439(10) 0.4565(17)
H20_2 H 0.3340 0.8209 0.5126
N7_3 N 0.6631(7) 0.9181(9) 0.0937(13)
N8_3 N 0.5805(5) 0.9288(8) 0.1360(13)
W14_2 W 0.73339(2) 0.83239(3) 0.36542(5)
O29_2 O 0.7425(4) 0.8719(7) 0.9470(9)
H14_3 H 0.6525 0.9856 0.9751
W16_2 W 0.73497(2) 0.84068(4) 0.82678(5)
C15_4 C 0.0017(8) 0.0329(9) 0.6853(16)
C19_4 C 0.0188(9) 0.1510(12) 0.794(2)
H16_4 H 0.0237 0.1893 0.8333
C20_4 C 0.0476(7) 0.0442(10) 0.7422(15)
H17_4 H 0.0721 0.0112 0.7455
C21_4 C 0.0542(7) 0.1046(10) 0.7909(14)
C22_4 C 0.1467(8) 0.0985(11) 0.8200(17)
H18_4 H 0.1553 0.0742 0.7615
C23_4 C 0.1019(7) 0.1553(9) 0.9349(15)
H19_4 H 0.0761 0.1760 0.9707
N6_4 N 0.0991(6) 0.1156(8) 0.8455(12)
C24_4 C 0.1528(7) 0.1561(10) 0.9565(17)
C3_4 C 0.0017(8) 0.4671(9) 0.6853(16)
C7_4 C 0.0188(9) 0.3490(12) 0.794(2)
H6_4 H 0.0237 0.3107 0.8333
C8_4 C 0.0476(7) 0.4558(10) 0.7422(15)
H7_4 H 0.0721 0.4888 0.7455
C9_4 C 0.0542(7) 0.3954(10) 0.7909(14)
C10_4 C 0.1467(8) 0.4015(11) 0.8200(17)
H8_4 H 0.1553 0.4258 0.7615
C11_4 C 0.1019(7) 0.3447(9) 0.9349(15)
H9_4 H 0.0761 0.3240 0.9707
N2_4 N 0.0991(6) 0.3844(8) 0.8455(12)
C12_4 C 0.1528(7) 0.3439(10) 0.9565(17)
O40_4 O 0.7420(4) 0.0078(5) 0.5892(9)
C13_4 C 0.9659(7) 0.0827(9) 0.6857(14)
C14_4 C 0.9736(8) 0.1435(12) 0.7376(18)
H11_4 H 0.9499 0.1776 0.7353
C16_4 C 0.9127(10) 0.0341(13) 0.556(2)
H13_4 H 0.9370 0.0092 0.5227
C17_4 C 0.8622(9) 0.0380(11) 0.5290(15)
H14_4 H 0.8475 0.0144 0.4751
C18_4 C 0.8753(7) 0.0989(10) 0.6666(14)
H15_4 H 0.8708 0.1248 0.7254
N7_4 N 0.8369(7) 0.0819(9) 0.5937(13)
N8_4 N 0.9195(5) 0.0712(8) 0.6360(13)
W1_4 W 0.84633(3) 0.7500 0.74349(7)
W2_4 W 0.84564(2) 0.66726(3) 0.52234(5)
W3_4 W 0.63244(3) 0.7500 0.43986(7)
W4_4 W 0.73477(2) 0.57694(3) 0.60737(5)
W7_4 W 0.63333(2) 0.65871(3) 0.68231(5)
B1_4 B 0.7372(8) 0.7500 0.599(2)
O1_4 O 0.8742(5) 0.7500 0.4794(11)
O2_4 O 0.8012(3) 0.6062(5) 0.5885(8)
O3_4 O 0.6241(4) 0.6824(5) 0.5441(7)
O4_4 O 0.7448(5) 0.7500 0.2929(11)
O7_4 O 0.5745(5) 0.7500 0.3838(13)
O8_4 O 0.7994(4) 0.6695(5) 0.4117(7)
O9_4 O 0.6635(4) 0.6843(5) 0.3557(8)
O10_4 O 0.6637(4) 0.5779(5) 0.6350(9)
O11_4 O 0.8008(3) 0.6848(5) 0.7970(8)
O12_4 O 0.5758(4) 0.6274(6) 0.7110(9)
O13_4 O 0.8738(4) 0.6823(5) 0.6562(8)
O14_4 O 0.6645(3) 0.6452(5) 0.8120(8)
O15_4 O 0.7218(4) 0.6057(5) 0.4703(8)
O16_4 O 0.8895(4) 0.6144(5) 0.4761(9)
O17_4 O 0.7457(4) 0.5780(6) 0.7520(8)
O18_4 O 0.7175(5) 0.7500 0.4867(11)
O19_4 O 0.7937(5) 0.7500 0.5972(11)
O20_4 O 0.6242(5) 0.7500 0.7180(12)
O21_4 O 0.7223(5) 0.7500 0.8572(11)
O22_4 O 0.7186(4) 0.6868(5) 0.6550(8)
O23_4 O 0.7420(4) 0.4922(5) 0.5892(9)
O24_4 O 0.8892(6) 0.7500 0.8404(12)
C1_4 C 0.9659(7) 0.4173(9) 0.6857(14)
C2_4 C 0.9736(8) 0.3565(12) 0.7376(18)
H1_4 H 0.9499 0.3224 0.7353
H2_4 H 0.9965 0.5069 0.6496
C4_4 C 0.9127(10) 0.4659(13) 0.556(2)
H3_4 H 0.9370 0.4908 0.5227
C5_4 C 0.8622(9) 0.4620(11) 0.5290(15)
H4_4 H 0.8475 0.4856 0.4751
C6_4 C 0.8753(7) 0.4011(10) 0.6666(14)
H5_4 H 0.8708 0.3752 0.7254
N3_4 N 0.8369(7) 0.4181(9) 0.5937(13)
N4_4 N 0.9195(5) 0.4288(8) 0.6360(13)
O25_4 O 0.7186(4) 0.8132(5) 0.6550(8)
W8_4 W 0.84564(2) 0.83274(3) 0.52234(5)
W9_4 W 0.73477(2) 0.92306(3) 0.60737(5)
W12_4 W 0.63333(2) 0.84129(3) 0.68231(5)
O26_4 O 0.8012(3) 0.8938(5) 0.5885(8)
O27_4 O 0.6241(4) 0.8176(5) 0.5441(7)
O30_4 O 0.7994(4) 0.8305(5) 0.4117(7)
O31_4 O 0.6635(4) 0.8157(5) 0.3557(8)
O32_4 O 0.6637(4) 0.9221(5) 0.6350(9)
O33_4 O 0.8008(3) 0.8152(5) 0.7970(8)
O34_4 O 0.5758(4) 0.8726(6) 0.7110(9)
O35_4 O 0.8738(4) 0.8177(5) 0.6562(8)
O36_4 O 0.6645(3) 0.8548(5) 0.8120(8)
O37_4 O 0.7218(4) 0.8943(5) 0.4703(8)
O38_4 O 0.8895(4) 0.8856(5) 0.4761(9)
O39_4 O 0.7457(4) 0.9220(6) 0.7520(8)
H12_4 H 0.9965 0.9931 0.6496
H20_3 H 0.8340 0.6791 0.9874
H10_3 H 0.8340 0.8209 0.9874
H20_4 H 0.1660 0.1791 0.0126
H10_4 H 0.1660 0.3209 0.0126
C26 C 0.4654(5) 0.0504(8) 0.5055(15)
H21 H 0.4426 0.0855 0.5100
C28 C 0.3681(6) 0.0149(9) 0.5907(15)
H23 H 0.3633 0.0469 0.5397
H24 H 0.3000 0.0075 0.6655
C30 C 0.5087(7) 0.0563(11) 0.4499(15)
H25 H 0.5143 0.0955 0.4130
C31 C 0.5427(5) 0.0085(7) 0.4466(12)
C33 C 0.5968(5) 0.0610(9) 0.3162(14)
H27 H 0.5732 0.0905 0.2898
C35 C 0.6672(6) 0.0075(8) 0.3413(15)
N13 N 0.5886(4) 0.0180(6) 0.3890(10)
N14 N 0.6439(5) 0.0568(8) 0.2850(12)
H31 H 0.65997 0.0851199 0.229157
C25 C 0.4573(5) 0.9915(7) 0.5534(12)
C27 C 0.4032(5) 0.9390(9) 0.6838(14)
H22 H 0.4268 0.9095 0.7102
C29 C 0.3328(6) 0.9925(8) 0.6587(15)
N11 N 0.4114(4) 0.9820(6) 0.6110(10)
N12 N 0.3561(5) 0.9432(8) 0.7150(12)
C32 C 0.5346(5) 0.9496(8) 0.4945(15)
H26 H 0.5574 0.9145 0.4900
C34 C 0.6319(6) 0.9851(9) 0.4093(15)
H28 H 0.6367 0.9531 0.4603
H29 H 0.7000 0.9925 0.3345
C36 C 0.4913(7) 0.9437(11) 0.5501(15)
H30 H 0.4857 0.9045 0.5870
H31_2 H 0.34003 0.91488 0.770843
C25_2 C 0.0427(5) 0.0085(7) 0.0534(12)
C27_2 C 0.0968(5) 0.0610(9) 0.1838(14)
H22_2 H 0.0732 0.0905 0.2102
C29_2 C 0.1672(6) 0.0075(8) 0.1587(15)
N11_2 N 0.0886(4) 0.0180(6) 0.1110(10)
N12_2 N 0.1439(5) 0.0568(8) 0.2150(12)
C36_2 C 0.0087(7) 0.0563(11) 0.0501(15)
H30_2 H 0.0143 0.0955 0.0870
H31_3 H 0.15997 0.0851199 0.270843
C26_2 C 0.0346(5) 0.9496(8) 0.0055(15)
H21_2 H 0.0574 0.9145 0.0100
C28_2 C 0.1319(6) 0.9851(9) 0.0907(15)
H23_2 H 0.1367 0.9531 0.0397
H24_2 H 0.2000 0.9925 0.1655
C32_2 C 0.9654(5) 0.0504(8) 0.9945(15)
H26_2 H 0.9426 0.0855 0.9900
C34_2 C 0.8681(6) 0.0149(9) 0.9093(15)
H28_2 H 0.8633 0.0469 0.9603
H29_2 H 0.8000 0.0075 0.8345
C30_2 C 0.9913(7) 0.9437(11) 0.9499(15)
H25_2 H 0.9857 0.9045 0.9130
C31_2 C 0.9573(5) 0.9915(7) 0.9466(12)
C33_2 C 0.9032(5) 0.9390(9) 0.8162(14)
H27_2 H 0.9268 0.9095 0.7898
C35_2 C 0.8328(6) 0.9925(8) 0.8413(15)
N13_2 N 0.9114(4) 0.9820(6) 0.8890(10)
N14_2 N 0.8561(5) 0.9432(8) 0.7850(12)
H31_4 H 0.84003 0.91488 0.729157
C30_3 C 0.0087(7) 0.4437(11) 0.0501(15)
H25_3 H 0.0143 0.4045 0.0870
C31_3 C 0.0427(5) 0.4915(7) 0.0534(12)
C32_3 C 0.0346(5) 0.5504(8) 0.0055(15)
H26_3 H 0.0574 0.5855 0.0100
C33_3 C 0.0968(5) 0.4390(9) 0.1838(14)
H27_3 H 0.0732 0.4095 0.2102
C34_3 C 0.1319(6) 0.5149(9) 0.0907(15)
H28_3 H 0.1367 0.5469 0.0397
C35_3 C 0.1672(6) 0.4925(8) 0.1587(15)
H29_3 H 0.2000 0.5075 0.1655
N13_3 N 0.0886(4) 0.4820(6) 0.1110(10)
N14_3 N 0.1439(5) 0.4432(8) 0.2150(12)
H31_5 H 0.15997 0.41488 0.270843
C25_3 C 0.9573(5) 0.5085(7) 0.9466(12)
C26_3 C 0.9654(5) 0.4496(8) 0.9945(15)
H21_3 H 0.9426 0.4145 0.9900
C27_3 C 0.9032(5) 0.5610(9) 0.8162(14)
H22_3 H 0.9268 0.5905 0.7898
C28_3 C 0.8681(6) 0.4851(9) 0.9093(15)
H23_3 H 0.8633 0.4531 0.9603
C29_3 C 0.8328(6) 0.5075(8) 0.8413(15)
H24_3 H 0.8000 0.4925 0.8345
N11_3 N 0.9114(4) 0.5180(6) 0.8890(10)
N12_3 N 0.8561(5) 0.5568(8) 0.7850(12)
C36_3 C 0.9913(7) 0.5563(11) 0.9499(15)
H30_3 H 0.9857 0.5955 0.9130
H31_6 H 0.84003 0.58512 0.729157
C25_4 C 0.5427(5) 0.4915(7) 0.4466(12)
C26_4 C 0.5346(5) 0.5504(8) 0.4945(15)
H21_4 H 0.5574 0.5855 0.4900
C27_4 C 0.5968(5) 0.4390(9) 0.3162(14)
H22_4 H 0.5732 0.4095 0.2898
C28_4 C 0.6319(6) 0.5149(9) 0.4093(15)
H23_4 H 0.6367 0.5469 0.4603
C29_4 C 0.6672(6) 0.4925(8) 0.3413(15)
H24_4 H 0.7000 0.5075 0.3345
C30_4 C 0.4913(7) 0.5563(11) 0.5501(15)
H25_4 H 0.4857 0.5955 0.5870
N11_4 N 0.5886(4) 0.4820(6) 0.3890(10)
N12_4 N 0.6439(5) 0.4432(8) 0.2850(12)
C31_4 C 0.4573(5) 0.5085(7) 0.5534(12)
C32_4 C 0.4654(5) 0.4496(8) 0.5055(15)
H26_4 H 0.4426 0.4145 0.5100
C33_4 C 0.4032(5) 0.5610(9) 0.6838(14)
H27_4 H 0.4268 0.5905 0.7102
C34_4 C 0.3681(6) 0.4851(9) 0.5907(15)
H28_4 H 0.3633 0.4531 0.5397
C35_4 C 0.3328(6) 0.5075(8) 0.6587(15)
H29_4 H 0.3000 0.4925 0.6655
C36_4 C 0.5087(7) 0.4437(11) 0.4499(15)
H30_4 H 0.5143 0.4045 0.4130
N13_4 N 0.4114(4) 0.5180(6) 0.6110(10)
N14_4 N 0.3561(5) 0.5568(8) 0.7150(12)
H31_7 H 0.65997 0.41488 0.229157
H31_8 H 0.34003 0.58512 0.770843
loop_
_geom_bond_atom_site_label_1
_geom_bond_atom_site_label_2
_geom_bond_site_symmetry_1
_geom_bond_site_symmetry_2
W1 O11 1_555 1_555
W2 O1 1_555 1_555
W3 O3 1_555 1_555
W4 O2 1_555 1_555
W5 O4 1_555 1_555
W6 O11 1_555 1_555
W7 O3 1_555 1_555
B1 O18 1_555 1_555
O1 W8 1_555 1_555
O2 W2 1_555 1_555
O4 W10 1_555 1_555
O7 W3 1_555 1_555
O8 W2 1_555 1_555
O9 W3 1_555 1_555
O10 W4 1_555 1_555
O12 W7 1_555 1_555
O13 W1 1_555 1_555
O14 W6 1_555 1_555
O15 W4 1_555 1_555
O16 W2 1_555 1_555
O17 W4 1_555 1_555
O18 W3 1_555 1_555
O19 W1 1_555 1_555
O20 W7 1_555 1_555
O21 W6 1_555 1_555
O22 W4 1_555 1_555
O24 W1 1_555 1_555
O25 B1 1_555 1_555
W8 O19 1_555 1_555
W9 O25 1_555 1_555
W10 O18 1_555 1_555
W11 O21 1_555 1_555
W12 O20 1_555 1_555
Co2 O28 1_555 1_555
O26 W8 1_555 1_555
O27 W3 1_555 1_555
O28 W14 1_555 1_555
O29 Co2 1_555 1_555
O30 W8 1_555 1_555
O31 W3 1_555 1_555
O32 W9 1_555 1_555
O33 W1 1_555 1_555
O34 W12 1_555 1_555
O35 W1 1_555 1_555
O36 W11 1_555 1_555
O37 W9 1_555 1_555
O38 W8 1_555 1_555
O39 W9 1_555 1_555
O40 W9 1_555 1_555
C13 C14 1_555 1_555
C14 H11 1_555 1_555
C16 H13 1_555 1_555
C17 C16 1_555 1_555
H14 C17 1_555 1_555
C18 H15 1_555 1_555
N7 Co2 1_555 1_555
N8 C13 1_555 1_555
W16 O29 1_555 1_555
O41 W5 1_555 1_555
O42 W10 1_555 1_555
O43 W6 1_555 1_555
O44 W11 1_555 1_555
N9 Co2 1_555 1_555
W2 O13 1_555 1_555
W2 O19 1_555 1_555
W5 O8 1_555 1_555
W5 O9 1_555 1_555
W5 O15 1_555 1_555
W5 O18 1_555 1_555
W6 O17 1_555 1_555
W6 O22 1_555 1_555
W7 O10 1_555 1_555
W7 O14 1_555 1_555
W7 O22 1_555 1_555
B1 O19 1_555 1_555
B1 O22 1_555 1_555
O25 W11 1_555 1_555
O25 W12 1_555 1_555
W8 O35 1_555 1_555
W9 O26 1_555 1_555
W10 O30 1_555 1_555
W10 O31 1_555 1_555
W10 O37 1_555 1_555
W11 O33 1_555 1_555
W11 O39 1_555 1_555
W12 O27 1_555 1_555
W12 O32 1_555 1_555
W12 O36 1_555 1_555
Co2 O40 1_555 1_555
C16 N8 1_555 1_555
C17 N7 1_555 1_555
C18 N7 1_555 1_555
C18 N8 1_555 1_555
Co1 O5 1_555 1_555
O5 W13 1_555 1_555
O6 Co1 1_555 1_555
C1 C2 1_555 1_555
C2 H1 1_555 1_555
C4 H3 1_555 1_555
C5 C4 1_555 1_555
H4 C5 1_555 1_555
C6 H5 1_555 1_555
N3 Co1 1_555 1_555
N4 C1 1_555 1_555
W15 O6 1_555 1_555
N10 Co1 1_555 1_555
Co1 O23 1_555 1_555
C4 N4 1_555 1_555
C5 N3 1_555 1_555
C6 N3 1_555 1_555
C6 N4 1_555 1_555
H16 C19 1_555 1_555
C20 C15 1_555 1_555
H17 C20 1_555 1_555
C21 C19 1_555 1_555
C22 H18 1_555 1_555
C23 H19 1_555 1_555
N5 C22 1_555 1_555
N6 C21 1_555 1_555
C24 C23 1_555 1_555
Co3 N5 1_555 1_555
C20 C21 1_555 1_555
C22 N6 1_555 1_555
C23 N6 1_555 1_555
N5 C24 1_555 1_555
H6 C7 1_555 1_555
C8 C3 1_555 1_555
H7 C8 1_555 1_555
C9 C7 1_555 1_555
C10 H8 1_555 1_555
C11 H9 1_555 1_555
N1 C10 1_555 1_555
N2 C9 1_555 1_555
C12 C11 1_555 1_555
Co4 N1 1_555 1_555
C8 C9 1_555 1_555
C10 N2 1_555 1_555
C11 N2 1_555 1_555
N1 C12 1_555 1_555
Co1_2 O41 1_555 1_555
C1_2 C2_2 1_555 1_555
C2_2 H1_2 1_555 1_555
C3_2 C1_2 1_555 1_555
C4_2 H3_2 1_555 1_555
C5_2 C4_2 1_555 1_555
C6_2 H5_2 1_555 1_555
C7_2 C2_2 1_555 1_555
H6_2 C7_2 1_555 1_555
C8_2 C3_2 1_555 1_555
H7_2 C8_2 1_555 1_555
C9_2 C7_2 1_555 1_555
C10_2 H8_2 1_555 1_555
C11_2 H9_2 1_555 1_555
N1_2 C10_2 1_555 1_555
N2_2 C9_2 1_555 1_555
C12_2 C11_2 1_555 1_555
H10 C12_2 1_555 1_555
N3_2 Co1_2 1_555 1_555
N4_2 C1_2 1_555 1_555
Co4_2 N1_2 1_555 1_555
N10_2 Co1_2 1_555 1_555
Co1_2 O23_2 1_555 1_555
C4_2 N4_2 1_555 1_555
C5_2 N3_2 1_555 1_555
C6_2 N3_2 1_555 1_555
C6_2 N4_2 1_555 1_555
C8_2 C9_2 1_555 1_555
C10_2 N2_2 1_555 1_555
C11_2 N2_2 1_555 1_555
N1_2 C12_2 1_555 1_555
W13 O4_2 1_555 1_555
O4_2 W14 1_555 1_555
O7_2 W3_2 1_555 1_555
O9_2 W3_2 1_555 1_555
O18_2 W3_2 1_555 1_555
W14 O18_2 1_555 1_555
O31_2 W3_2 1_555 1_555
W13 O8_2 1_555 1_555
W13 O9_2 1_555 1_555
W13 O15_2 1_555 1_555
W13 O18_2 1_555 1_555
W14 O30_2 1_555 1_555
W14 O31_2 1_555 1_555
W14 O37_2 1_555 1_555
W1_2 O11_2 1_555 1_555
W4_2 O2_2 1_555 1_555
W15 O11_2 1_555 1_555
W7_2 O3_2 1_555 1_555
O2_2 W2_2 1_555 1_555
O10_2 W4_2 1_555 1_555
O12_2 W7_2 1_555 1_555
O13_2 W1_2 1_555 1_555
O14_2 W15 1_555 1_555
O17_2 W4_2 1_555 1_555
O19_2 W1_2 1_555 1_555
O20_2 W7_2 1_555 1_555
O21_2 W15 1_555 1_555
O22_2 W4_2 1_555 1_555
O24_2 W1_2 1_555 1_555
O25_2 B1_2 1_555 1_555
W8_2 O19_2 1_555 1_555
W9_2 O25_2 1_555 1_555
W16 O21_2 1_555 1_555
W12_2 O20_2 1_555 1_555
Co2_2 O42 1_555 1_555
O26_2 W8_2 1_555 1_555
O32_2 W9_2 1_555 1_555
O33_2 W1_2 1_555 1_555
O34_2 W12_2 1_555 1_555
O35_2 W1_2 1_555 1_555
O36_2 W16 1_555 1_555
O39_2 W9_2 1_555 1_555
O40_2 W9_2 1_555 1_555
C13_2 C14_2 1_555 1_555
C14_2 H11_2 1_555 1_555
C15_2 C13_2 1_555 1_555
H12_2 C15_2 1_555 1_555
C16_2 H13_2 1_555 1_555
C17_2 C16_2 1_555 1_555
C18_2 H15_2 1_555 1_555
C19_2 C14_2 1_555 1_555
H16_2 C19_2 1_555 1_555
C20_2 C15_2 1_555 1_555
H17_2 C20_2 1_555 1_555
C21_2 C19_2 1_555 1_555
C22_2 H18_2 1_555 1_555
C23_2 H19_2 1_555 1_555
N5_2 C22_2 1_555 1_555
N6_2 C21_2 1_555 1_555
C24_2 C23_2 1_555 1_555
H20 C24_2 1_555 1_555
N7_2 Co2_2 1_555 1_555
N8_2 C13_2 1_555 1_555
Co3_2 N5_2 1_555 1_555
N9_2 Co2_2 1_555 1_555
W2_2 O13_2 1_555 1_555
W2_2 O19_2 1_555 1_555
W15 O17_2 1_555 1_555
W15 O22_2 1_555 1_555
W7_2 O10_2 1_555 1_555
W7_2 O14_2 1_555 1_555
W7_2 O22_2 1_555 1_555
B1_2 O19_2 1_555 1_555
B1_2 O22_2 1_555 1_555
O25_2 W16 1_555 1_555
O25_2 W12_2 1_555 1_555
W8_2 O35_2 1_555 1_555
W9_2 O26_2 1_555 1_555
W16 O33_2 1_555 1_555
W16 O39_2 1_555 1_555
W12_2 O27_2 1_555 1_555
W12_2 O32_2 1_555 1_555
W12_2 O36_2 1_555 1_555
Co2_2 O40_2 1_555 1_555
C16_2 N8_2 1_555 1_555
C17_2 N7_2 1_555 1_555
C18_2 N7_2 1_555 1_555
C18_2 N8_2 1_555 1_555
C20_2 C21_2 1_555 1_555
C22_2 N6_2 1_555 1_555
C23_2 N6_2 1_555 1_555
N5_2 C24_2 1_555 1_555
W1_3 O11_3 1_555 1_555
W4_3 O2_3 1_555 1_555
W6_2 O11_3 1_555 1_555
W7_3 O3_3 1_555 1_555
Co3 O5_2 1_555 1_555
O2_3 W2_3 1_555 1_555
O5_2 W13_2 1_555 1_555
O10_3 W4_3 1_555 1_555
O12_3 W7_3 1_555 1_555
O13_3 W1_3 1_555 1_555
O14_3 W6_2 1_555 1_555
O17_3 W4_3 1_555 1_555
O19_3 W1_3 1_555 1_555
O20_3 W7_3 1_555 1_555
O21_3 W6_2 1_555 1_555
O22_3 W4_3 1_555 1_555
O23_3 W4_3 1_555 1_555
O24_3 W1_3 1_555 1_555
C1_3 C2_3 1_555 1_555
C2_3 H1_3 1_555 1_555
C3_3 C1_3 1_555 1_555
H2_3 C3_3 1_555 1_555
C4_3 H3_3 1_555 1_555
C5_3 C4_3 1_555 1_555
C6_3 H5_3 1_555 1_555
C7_3 C2_3 1_555 1_555
H6_3 C7_3 1_555 1_555
C8_3 C3_3 1_555 1_555
H7_3 C8_3 1_555 1_555
C9_3 C7_3 1_555 1_555
C10_3 H8_3 1_555 1_555
C11_3 H9_3 1_555 1_555
N9 C10_3 1_555 1_555
N2_3 C9_3 1_555 1_555
C12_3 C11_3 1_555 1_555
H10_2 C12_3 1_555 1_555
N3_3 Co3 1_555 1_555
N4_3 C1_3 1_555 1_555
O25_3 B1_3 1_555 1_555
W8_3 O19_3 1_555 1_555
W9_3 O25_3 1_555 1_555
W11_2 O21_3 1_555 1_555
W12_3 O20_3 1_555 1_555
O26_3 W8_3 1_555 1_555
O32_3 W9_3 1_555 1_555
O33_3 W1_3 1_555 1_555
O34_3 W12_3 1_555 1_555
O35_3 W1_3 1_555 1_555
O36_3 W11_2 1_555 1_555
O39_3 W9_3 1_555 1_555
O43_2 W6_2 1_555 1_555
O44_2 W11_2 1_555 1_555
W2_3 O13_3 1_555 1_555
W2_3 O19_3 1_555 1_555
W6_2 O17_3 1_555 1_555
W6_2 O22_3 1_555 1_555
W7_3 O10_3 1_555 1_555
W7_3 O14_3 1_555 1_555
W7_3 O22_3 1_555 1_555
Co3 O23_3 1_555 1_555
B1_3 O19_3 1_555 1_555
B1_3 O22_3 1_555 1_555
C4_3 N4_3 1_555 1_555
C5_3 N3_3 1_555 1_555
C6_3 N3_3 1_555 1_555
C6_3 N4_3 1_555 1_555
C8_3 C9_3 1_555 1_555
C10_3 N2_3 1_555 1_555
C11_3 N2_3 1_555 1_555
N9 C12_3 1_555 1_555
O25_3 W11_2 1_555 1_555
O25_3 W12_3 1_555 1_555
W8_3 O35_3 1_555 1_555
W9_3 O26_3 1_555 1_555
W11_2 O33_3 1_555 1_555
W11_2 O39_3 1_555 1_555
W12_3 O27_3 1_555 1_555
W12_3 O32_3 1_555 1_555
W12_3 O36_3 1_555 1_555
W5_2 O4_3 1_555 1_555
O4_3 W10_2 1_555 1_555
O7_3 W3_3 1_555 1_555
O9_3 W3_3 1_555 1_555
O18_3 W3_3 1_555 1_555
W10_2 O18_3 1_555 1_555
O31_3 W3_3 1_555 1_555
W15_2 O6_2 1_555 1_555
O41_2 W5_2 1_555 1_555
O42_2 W10_2 1_555 1_555
W5_2 O8_3 1_555 1_555
W5_2 O9_3 1_555 1_555
W5_2 O15_3 1_555 1_555
W5_2 O18_3 1_555 1_555
W10_2 O30_3 1_555 1_555
W10_2 O31_3 1_555 1_555
W10_2 O37_3 1_555 1_555
Co4 O28_2 1_555 1_555
O28_2 W14_2 1_555 1_555
C13_3 C14_3 1_555 1_555
C14_3 H11_3 1_555 1_555
C15_3 C13_3 1_555 1_555
C16_3 H13_3 1_555 1_555
C17_3 C16_3 1_555 1_555
C18_3 H15_3 1_555 1_555
C19_3 C14_3 1_555 1_555
H16_3 C19_3 1_555 1_555
C20_3 C15_3 1_555 1_555
H17_3 C20_3 1_555 1_555
C21_3 C19_3 1_555 1_555
C22_3 H18_3 1_555 1_555
C23_3 H19_3 1_555 1_555
N10 C22_3 1_555 1_555
N6_3 C21_3 1_555 1_555
C24_3 C23_3 1_555 1_555
H20_2 C24_3 1_555 1_555
N7_3 Co4 1_555 1_555
N8_3 C13_3 1_555 1_555
Co4 O40_3 1_555 1_555
C16_3 N8_3 1_555 1_555
C17_3 N7_3 1_555 1_555
C18_3 N7_3 1_555 1_555
C18_3 N8_3 1_555 1_555
C20_3 C21_3 1_555 1_555
C22_3 N6_3 1_555 1_555
C23_3 N6_3 1_555 1_555
N10 C24_3 1_555 1_555
W16_2 O29_2 1_555 1_555
H16_4 C19_4 1_555 1_555
C20_4 C15_4 1_555 1_555
H17_4 C20_4 1_555 1_555
C21_4 C19_4 1_555 1_555
C22_4 H18_4 1_555 1_555
C23_4 H19_4 1_555 1_555
N10_2 C22_4 1_555 1_555
N6_4 C21_4 1_555 1_555
C24_4 C23_4 1_555 1_555
C20_4 C21_4 1_555 1_555
C22_4 N6_4 1_555 1_555
C23_4 N6_4 1_555 1_555
N10_2 C24_4 1_555 1_555
H6_4 C7_4 1_555 1_555
C8_4 C3_4 1_555 1_555
H7_4 C8_4 1_555 1_555
C9_4 C7_4 1_555 1_555
C10_4 H8_4 1_555 1_555
C11_4 H9_4 1_555 1_555
N9_2 C10_4 1_555 1_555
N2_4 C9_4 1_555 1_555
C12_4 C11_4 1_555 1_555
C8_4 C9_4 1_555 1_555
C10_4 N2_4 1_555 1_555
C11_4 N2_4 1_555 1_555
N9_2 C12_4 1_555 1_555
Co4_2 O42_2 1_555 1_555
O44_2 Co4_2 1_555 1_555
C13_4 C14_4 1_555 1_555
C14_4 H11_4 1_555 1_555
C16_4 H13_4 1_555 1_555
C17_4 C16_4 1_555 1_555
H14_4 C17_4 1_555 1_555
C18_4 H15_4 1_555 1_555
N7_4 Co4_2 1_555 1_555
N8_4 C13_4 1_555 1_555
Co4_2 O40_4 1_555 1_555
C16_4 N8_4 1_555 1_555
C17_4 N7_4 1_555 1_555
C18_4 N7_4 1_555 1_555
C18_4 N8_4 1_555 1_555
W1_4 O11_4 1_555 1_555
W2_4 O1_4 1_555 1_555
W3_4 O3_4 1_555 1_555
W4_4 O2_4 1_555 1_555
W13_2 O4_4 1_555 1_555
W15_2 O11_4 1_555 1_555
W7_4 O3_4 1_555 1_555
Co3_2 O41_2 1_555 1_555
B1_4 O18_4 1_555 1_555
O1_4 W8_4 1_555 1_555
O2_4 W2_4 1_555 1_555
O4_4 W14_2 1_555 1_555
O43_2 Co3_2 1_555 1_555
O7_4 W3_4 1_555 1_555
O8_4 W2_4 1_555 1_555
O9_4 W3_4 1_555 1_555
O10_4 W4_4 1_555 1_555
O12_4 W7_4 1_555 1_555
O13_4 W1_4 1_555 1_555
O14_4 W15_2 1_555 1_555
O15_4 W4_4 1_555 1_555
O16_4 W2_4 1_555 1_555
O17_4 W4_4 1_555 1_555
O18_4 W3_4 1_555 1_555
O19_4 W1_4 1_555 1_555
O20_4 W7_4 1_555 1_555
O21_4 W15_2 1_555 1_555
O22_4 W4_4 1_555 1_555
O23_4 W4_4 1_555 1_555
O24_4 W1_4 1_555 1_555
C1_4 C2_4 1_555 1_555
C2_4 H1_4 1_555 1_555
C4_4 H3_4 1_555 1_555
C5_4 C4_4 1_555 1_555
H4_4 C5_4 1_555 1_555
C6_4 H5_4 1_555 1_555
N3_4 Co3_2 1_555 1_555
N4_4 C1_4 1_555 1_555
O25_4 B1_4 1_555 1_555
W8_4 O19_4 1_555 1_555
W9_4 O25_4 1_555 1_555
W14_2 O18_4 1_555 1_555
W16_2 O21_4 1_555 1_555
W12_4 O20_4 1_555 1_555
O26_4 W8_4 1_555 1_555
O27_4 W3_4 1_555 1_555
O30_4 W8_4 1_555 1_555
O31_4 W3_4 1_555 1_555
O32_4 W9_4 1_555 1_555
O33_4 W1_4 1_555 1_555
O34_4 W12_4 1_555 1_555
O35_4 W1_4 1_555 1_555
O36_4 W16_2 1_555 1_555
O37_4 W9_4 1_555 1_555
O38_4 W8_4 1_555 1_555
O39_4 W9_4 1_555 1_555
W2_4 O13_4 1_555 1_555
W2_4 O19_4 1_555 1_555
W13_2 O8_4 1_555 1_555
W13_2 O9_4 1_555 1_555
W13_2 O15_4 1_555 1_555
W13_2 O18_4 1_555 1_555
W15_2 O17_4 1_555 1_555
W15_2 O22_4 1_555 1_555
W7_4 O10_4 1_555 1_555
W7_4 O14_4 1_555 1_555
W7_4 O22_4 1_555 1_555
Co3_2 O23_4 1_555 1_555
B1_4 O19_4 1_555 1_555
B1_4 O22_4 1_555 1_555
C4_4 N4_4 1_555 1_555
C5_4 N3_4 1_555 1_555
C6_4 N3_4 1_555 1_555
C6_4 N4_4 1_555 1_555
O25_4 W16_2 1_555 1_555
O25_4 W12_4 1_555 1_555
W8_4 O35_4 1_555 1_555
W9_4 O26_4 1_555 1_555
W14_2 O30_4 1_555 1_555
W14_2 O31_4 1_555 1_555
W14_2 O37_4 1_555 1_555
W16_2 O33_4 1_555 1_555
W16_2 O39_4 1_555 1_555
W12_4 O27_4 1_555 1_555
W12_4 O32_4 1_555 1_555
W12_4 O36_4 1_555 1_555
C26 H21 1_555 1_555
C28 H23 1_555 1_555
C30 C26 1_555 1_555
H25 C30 1_555 1_555
C31 C30 1_555 1_555
C33 H27 1_555 1_555
N13 C31 1_555 1_555
N14 C33 1_555 1_555
C33 N13 1_555 1_555
C35 N14 1_555 1_555
N14 H31 1_555 1_555
C27 H22 1_555 1_555
N11 C25 1_555 1_555
N12 C27 1_555 1_555
H26 C32 1_555 1_555
C34 H28 1_555 1_555
C36 C25 1_555 1_555
H30 C36 1_555 1_555
C27 N11 1_555 1_555
C29 N12 1_555 1_555
C32 C36 1_555 1_555
N12 H31_2 1_555 1_555
C27_2 H22_2 1_555 1_555
N11_2 C25_2 1_555 1_555
N12_2 C27_2 1_555 1_555
C36_2 C25_2 1_555 1_555
H30_2 C36_2 1_555 1_555
C27_2 N11_2 1_555 1_555
C29_2 N12_2 1_555 1_555
N12_2 H31_3 1_555 1_555
C26_2 H21_2 1_555 1_555
C28_2 H23_2 1_555 1_555
H26_2 C32_2 1_555 1_555
C34_2 H28_2 1_555 1_555
H25_2 C30_2 1_555 1_555
C31_2 C30_2 1_555 1_555
C33_2 H27_2 1_555 1_555
N13_2 C31_2 1_555 1_555
N14_2 C33_2 1_555 1_555
C33_2 N13_2 1_555 1_555
C35_2 N14_2 1_555 1_555
N14_2 H31_4 1_555 1_555
H25_3 C30_3 1_555 1_555
C31_3 C30_3 1_555 1_555
C32_3 C31_3 1_555 1_555
H26_3 C32_3 1_555 1_555
C33_3 H27_3 1_555 1_555
C34_3 H28_3 1_555 1_555
C35_3 C34_3 1_555 1_555
H29_3 C35_3 1_555 1_555
N13_3 C31_3 1_555 1_555
N14_3 C33_3 1_555 1_555
C33_3 N13_3 1_555 1_555
C34_3 N13_3 1_555 1_555
C35_3 N14_3 1_555 1_555
N14_3 H31_5 1_555 1_555
C25_3 C26_3 1_555 1_555
C26_3 H21_3 1_555 1_555
C27_3 H22_3 1_555 1_555
C28_3 H23_3 1_555 1_555
C29_3 C28_3 1_555 1_555
H24_3 C29_3 1_555 1_555
N11_3 C25_3 1_555 1_555
N12_3 C27_3 1_555 1_555
C36_3 C25_3 1_555 1_555
H30_3 C36_3 1_555 1_555
C27_3 N11_3 1_555 1_555
C28_3 N11_3 1_555 1_555
C29_3 N12_3 1_555 1_555
N12_3 H31_6 1_555 1_555
C25_4 C26_4 1_555 1_555
C26_4 H21_4 1_555 1_555
C27_4 H22_4 1_555 1_555
C28_4 H23_4 1_555 1_555
C29_4 C28_4 1_555 1_555
H24_4 C29_4 1_555 1_555
C30_4 C26_4 1_555 1_555
H25_4 C30_4 1_555 1_555
N11_4 C25_4 1_555 1_555
N12_4 C27_4 1_555 1_555
C31_4 C30_4 1_555 1_555
C32_4 C31_4 1_555 1_555
H26_4 C32_4 1_555 1_555
C33_4 H27_4 1_555 1_555
C34_4 H28_4 1_555 1_555
C35_4 C34_4 1_555 1_555
H29_4 C35_4 1_555 1_555
C36_4 C25_4 1_555 1_555
H30_4 C36_4 1_555 1_555
N13_4 C31_4 1_555 1_555
N14_4 C33_4 1_555 1_555
C27_4 N11_4 1_555 1_555
C28_4 N11_4 1_555 1_555
C29_4 N12_4 1_555 1_555
C32_4 C36_4 1_555 1_555
C33_4 N13_4 1_555 1_555
C34_4 N13_4 1_555 1_555
C35_4 N14_4 1_555 1_555
N12_4 H31_7 1_555 1_555
N14_4 H31_8 1_555 1_555

#END
