
###############################################################################
#
# This file contains modified crystal structure data generated from the
# MOF subset of the Cambridge Structural Database (CSD) v543 
# hosted by the Cambridge Crystallographic Data Centre (CCDC).
#
# This work is licensed under the Creative Commons
# Attribution-NonCommercial-ShareAlike 4.0 International License.
# To view a copy of this license, visit
# http://creativecommons.org/licenses/by-nc-sa/4.0/
# or send a letter to
# Creative Commons, PO Box 1866, Mountain View, CA 94042, USA.
#
# CIF created using the CSD Python API on 29 September 2022
# The structure has been converted into the P1 space group
# The structure has a 3D framework
# The original CSD entry OQUXAB is in the orthorhombic crystal system
# The framework has been calculated to contain at least 10.0% void space
# The void calculation uses a probe of radius 1.32A, grid spacing 0.4
#
###############################################################################

data_OQUXAB
_chemical_formula_moiety         '(C96 H80 Co8 Ge4 N32 O156 W48)n'
_symmetry_cell_setting           triclinic
_symmetry_space_group_name_H-M   'P 1'
_symmetry_Int_Tables_number      1
_space_group_name_Hall           'P 1'
loop_
_symmetry_equiv_pos_site_id
_symmetry_equiv_pos_as_xyz
1 x,y,z
_cell_length_a                   26.8635(13)
_cell_length_b                   20.0627(10)
_cell_length_c                   13.1107(6)
_cell_angle_alpha                90
_cell_angle_beta                 90
_cell_angle_gamma                90
_cell_volume                     7066.07
loop_
_atom_site_label
_atom_site_type_symbol
_atom_site_fract_x
_atom_site_fract_y
_atom_site_fract_z
W2 W 0.26703(3) 0.07466(4) 0.12006(6)
W3 W 0.26819(3) 0.15799(4) 0.33997(6)
W4 W 0.36929(3) 0.15759(4) 0.19155(6)
W5 W 0.15442(3) 0.16649(4) 0.03839(6)
W6 W 0.15514(4) 0.2500 0.25969(9)
Ge1 Ge 0.26413(8) 0.2500 0.11195(17)
O1 O 0.3753(5) 0.1845(7) 0.0536(10)
O2 O 0.2012(4) 0.1074(6) 0.1031(9)
O4 O 0.3369(5) 0.0759(6) 0.1457(10)
O6 O 0.2601(5) 0.1272(7) 0.4601(11)
O7 O 0.3386(4) 0.1442(6) 0.3243(10)
O9 O 0.4275(5) 0.1285(7) 0.2184(11)
O11 O 0.2575(5) 0.0762(6) 0.2642(9)
O12 O 0.2031(5) 0.1857(7) 0.3066(9)
O13 O 0.2860(4) 0.1801(6) 0.1741(9)
O17 O 0.1139(7) 0.2500 0.3584(15)
O20 O 0.2822(7) 0.2500 0.3621(14)
O21 O 0.3755(6) 0.2500 0.2241(15)
O22 O 0.1271(4) 0.1820(6) 0.1731(9)
H7 H 0.6675 0.1751 0.0202
O23 O 0.2003(6) 0.2500 0.1116(12)
W9 W 0.26703(3) 0.42534(4) 0.12006(6)
W10 W 0.26819(3) 0.34201(4) 0.33997(6)
W11 W 0.36929(3) 0.34241(4) 0.19155(6)
W12 W 0.15442(3) 0.33351(4) 0.03839(6)
O25 O 0.3753(5) 0.3155(7) 0.0536(10)
O26 O 0.2012(4) 0.3926(6) 0.1031(9)
O28 O 0.3369(5) 0.4241(6) 0.1457(10)
O29 O 0.2592(5) 0.5081(7) 0.1025(12)
O30 O 0.2601(5) 0.3728(7) 0.4601(11)
O31 O 0.3386(4) 0.3558(6) 0.3243(10)
O33 O 0.4275(5) 0.3715(7) 0.2184(11)
O35 O 0.2575(5) 0.4238(6) 0.2642(9)
O36 O 0.2031(5) 0.3143(7) 0.3066(9)
O37 O 0.2860(4) 0.3199(6) 0.1741(9)
O40 O 0.1271(4) 0.3180(6) 0.1731(9)
H17 H 0.6675 0.3249 0.0202
Co3 Co 0.25868(14) 0.10972(19) 0.6135(3)
Co7 Co 0.24132(14) 0.60972(19) 0.1135(3)
Co8 Co 0.25868(14) 0.39028(19) 0.6135(3)
W1 W 0.26675(3) 0.16699(4) 0.87631(6)
W7 W 0.36851(4) 0.2500 0.94782(9)
O3 O 0.2791(4) 0.1083(6) 0.9863(9)
O8 O 0.2597(5) 0.1139(7) 0.7743(11)
O10 O 0.3376(5) 0.1829(7) 0.8645(10)
O14 O 0.2013(5) 0.1716(6) 0.9317(9)
O15 O 0.4272(8) 0.2500 0.8962(15)
O16 O 0.1249(6) 0.2500 0.9965(14)
O18 O 0.1107(5) 0.1135(7) 0.9902(12)
O19 O 0.2551(7) 0.2500 0.8032(15)
N1 N 0.3363(8) 0.0820(12) 0.6106(16)
N2 N 0.6804(7) 0.1240(12) 0.8845(15)
N3 N 0.4182(8) 0.0709(11) 0.6484(15)
N4 N 0.5996(8) 0.1188(11) 0.8453(18)
C1 C 0.3727(11) 0.0984(13) 0.674(2)
H1 H 0.3680 0.1256 0.7311
C2 C 0.4657(10) 0.0825(15) 0.700(2)
C3 C 0.4719(13) 0.1378(18) 0.749(3)
H2 H 0.4467 0.1696 0.7507
C4 C 0.4081(14) 0.0313(16) 0.564(2)
H3 H 0.4312 0.0062 0.5280
C5 C 0.3594(11) 0.0357(13) 0.544(2)
H4 H 0.3430 0.0117 0.4938
C6 C 0.5024(12) 0.0365(18) 0.694(3)
C7 C 0.6453(12) 0.1016(18) 0.817(2)
H6 H 0.6526 0.0775 0.7581
C8 C 0.6535(11) 0.1562(15) 0.962(2)
C9 C 0.5479(11) 0.0493(16) 0.739(3)
H8 H 0.5742 0.0197 0.7305
C10 C 0.5540(10) 0.1054(14) 0.795(2)
C11 C 0.5163(12) 0.1492(17) 0.799(3)
H9 H 0.5203 0.1881 0.8364
C12 C 0.6047(8) 0.1555(13) 0.9403(17)
H10 H 0.5793 0.1747 0.9783
O24 O 0.2851(6) 0.2500 0.9883(12)
W8 W 0.26675(3) 0.33301(4) 0.87631(6)
O27 O 0.2791(4) 0.3917(6) 0.9863(9)
O32 O 0.2597(5) 0.3861(7) 0.7743(11)
O34 O 0.3376(5) 0.3171(7) 0.8645(10)
O38 O 0.2013(5) 0.3284(6) 0.9317(9)
O39 O 0.1107(5) 0.3865(7) 0.9902(12)
N5 N 0.3363(8) 0.4180(12) 0.6106(16)
N6 N 0.6804(7) 0.3760(12) 0.8845(15)
N7 N 0.4182(8) 0.4291(11) 0.6484(15)
N8 N 0.5996(8) 0.3812(11) 0.8453(18)
C13 C 0.3727(11) 0.4016(13) 0.674(2)
H11 H 0.3680 0.3744 0.7311
C14 C 0.4657(10) 0.4175(15) 0.700(2)
C15 C 0.4719(13) 0.3622(18) 0.749(3)
H12 H 0.4467 0.3304 0.7507
C16 C 0.4081(14) 0.4687(16) 0.564(2)
H13 H 0.4312 0.4938 0.5280
C17 C 0.3594(11) 0.4643(13) 0.544(2)
H14 H 0.3430 0.4883 0.4938
C18 C 0.5024(12) 0.4635(18) 0.694(3)
H15 H 0.4970 0.5036 0.6601
C19 C 0.6453(12) 0.3984(18) 0.817(2)
H16 H 0.6526 0.4225 0.7581
C20 C 0.6535(11) 0.3438(15) 0.962(2)
C21 C 0.5479(11) 0.4507(16) 0.739(3)
H18 H 0.5742 0.4803 0.7305
C22 C 0.5540(10) 0.3946(14) 0.795(2)
C23 C 0.5163(12) 0.3508(17) 0.799(3)
H19 H 0.5203 0.3119 0.8364
C24 C 0.6047(8) 0.3445(13) 0.9403(17)
H20 H 0.5793 0.3253 0.9783
Co5 Co 0.75868(14) 0.39028(19) 0.8865(3)
Co6 Co 0.75868(14) 0.10972(19) 0.8865(3)
O41 O 0.2408(5) 0.0081(7) 0.6025(12)
O42 O 0.2408(5) 0.4919(7) 0.6025(12)
N9 N 0.1804(7) 0.3760(12) 0.6155(15)
N10 N 0.1804(7) 0.1240(12) 0.6155(15)
O5 O 0.2592(5) 0.9919(7) 0.1025(12)
Co4 Co 0.24132(14) 0.89028(19) 0.1135(3)
H5 H 0.0030 0.0036 0.1601
W1_2 W 0.23325(3) 0.83301(4) 0.37631(6)
W2_2 W 0.23297(3) 0.92534(4) 0.62006(6)
W3_2 W 0.23181(3) 0.84201(4) 0.83997(6)
W4_2 W 0.13071(3) 0.84241(4) 0.69155(6)
W5_2 W 0.34558(3) 0.83351(4) 0.53839(6)
W6_2 W 0.34486(4) 0.7500 0.75969(9)
W7_2 W 0.13149(4) 0.7500 0.44782(9)
Ge1_2 Ge 0.23587(8) 0.7500 0.61195(17)
O1_2 O 0.1247(5) 0.8155(7) 0.5536(10)
O2_2 O 0.2988(4) 0.8926(6) 0.6031(9)
O3_2 O 0.2209(4) 0.8917(6) 0.4863(9)
O4_2 O 0.1631(5) 0.9241(6) 0.6457(10)
O6_2 O 0.2399(5) 0.8728(7) 0.9601(11)
O7_2 O 0.1614(4) 0.8558(6) 0.8243(10)
O8_2 O 0.2403(5) 0.8861(7) 0.2743(11)
O9_2 O 0.0725(5) 0.8715(7) 0.7184(11)
O10_2 O 0.1624(5) 0.8171(7) 0.3645(10)
O11_2 O 0.2425(5) 0.9238(6) 0.7642(9)
O12_2 O 0.2969(5) 0.8143(7) 0.8066(9)
O13_2 O 0.2140(4) 0.8199(6) 0.6741(9)
O14_2 O 0.2987(5) 0.8284(6) 0.4317(9)
O15_2 O 0.0728(8) 0.7500 0.3962(15)
O16_2 O 0.3751(6) 0.7500 0.4965(14)
O17_2 O 0.3861(7) 0.7500 0.8584(15)
O18_2 O 0.3893(5) 0.8865(7) 0.4902(12)
O19_2 O 0.2449(7) 0.7500 0.3032(15)
O20_2 O 0.2178(7) 0.7500 0.8621(14)
O21_2 O 0.1245(6) 0.7500 0.7241(15)
O22_2 O 0.3729(4) 0.8180(6) 0.6731(9)
N1_2 N 0.1637(8) 0.9180(12) 0.1106(16)
N3_2 N 0.0818(8) 0.9291(11) 0.1484(15)
C1_2 C 0.1273(11) 0.9016(13) 0.174(2)
H1_2 H 0.1320 0.8744 0.2311
C2_2 C 0.0343(10) 0.9175(15) 0.200(2)
C3_2 C 0.0281(13) 0.8622(18) 0.249(3)
H2_2 H 0.0533 0.8304 0.2507
C4_2 C 0.0919(14) 0.9687(16) 0.064(2)
H3_2 H 0.0688 0.9938 0.0280
C5_2 C 0.1406(11) 0.9643(13) 0.044(2)
O23_2 O 0.2997(6) 0.7500 0.6116(12)
O24_2 O 0.2149(6) 0.7500 0.4883(12)
W8_2 W 0.23325(3) 0.66699(4) 0.37631(6)
W9_2 W 0.23297(3) 0.57466(4) 0.62006(6)
W10_2 W 0.23181(3) 0.65799(4) 0.83997(6)
W11_2 W 0.13071(3) 0.65759(4) 0.69155(6)
W12_2 W 0.34558(3) 0.66649(4) 0.53839(6)
O25_2 O 0.1247(5) 0.6845(7) 0.5536(10)
O26_2 O 0.2988(4) 0.6074(6) 0.6031(9)
O27_2 O 0.2209(4) 0.6083(6) 0.4863(9)
O28_2 O 0.1631(5) 0.5759(6) 0.6457(10)
O30_2 O 0.2399(5) 0.6272(7) 0.9601(11)
O31_2 O 0.1614(4) 0.6442(6) 0.8243(10)
O32_2 O 0.2403(5) 0.6139(7) 0.2743(11)
O33_2 O 0.0725(5) 0.6285(7) 0.7184(11)
O34_2 O 0.1624(5) 0.6829(7) 0.3645(10)
O35_2 O 0.2425(5) 0.5762(6) 0.7642(9)
O36_2 O 0.2969(5) 0.6857(7) 0.8066(9)
O37_2 O 0.2140(4) 0.6801(6) 0.6741(9)
O38_2 O 0.2987(5) 0.6716(6) 0.4317(9)
O39_2 O 0.3893(5) 0.6135(7) 0.4902(12)
O40_2 O 0.3729(4) 0.6820(6) 0.6731(9)
N5_2 N 0.1637(8) 0.5820(12) 0.1106(16)
N7_2 N 0.0818(8) 0.5709(11) 0.1484(15)
C13_2 C 0.1273(11) 0.5984(13) 0.174(2)
H11_2 H 0.1320 0.6256 0.2311
C14_2 C 0.0343(10) 0.5825(15) 0.200(2)
C15_2 C 0.0281(13) 0.6378(18) 0.249(3)
H12_2 H 0.0533 0.6696 0.2507
C16_2 C 0.0919(14) 0.5313(16) 0.064(2)
H13_2 H 0.0688 0.5062 0.0280
C17_2 C 0.1406(11) 0.5357(13) 0.044(2)
H15_2 H 0.0030 0.4964 0.1601
N9_2 N 0.3196(7) 0.6240(12) 0.1155(15)
N10_2 N 0.3196(7) 0.8760(12) 0.1155(15)
H4_2 H 0.1570 0.9883 0.9938
H14_2 H 0.1570 0.5117 0.9938
N2_2 N 0.8196(7) 0.8760(12) 0.3845(15)
N4_2 N 0.9004(8) 0.8812(11) 0.3453(18)
C6_2 C 0.9976(12) 0.9635(18) 0.194(3)
C7_2 C 0.8547(12) 0.8984(18) 0.317(2)
H6_2 H 0.8474 0.9225 0.2581
C8_2 C 0.8465(11) 0.8438(15) 0.462(2)
H7_2 H 0.8325 0.8249 0.5202
C9_2 C 0.9521(11) 0.9507(16) 0.239(3)
H8_2 H 0.9258 0.9803 0.2305
C10_2 C 0.9460(10) 0.8946(14) 0.295(2)
C11_2 C 0.9837(12) 0.8508(17) 0.299(3)
H9_2 H 0.9797 0.8119 0.3364
C12_2 C 0.8953(8) 0.8445(13) 0.4403(17)
H10_2 H 0.9207 0.8253 0.4783
N6_2 N 0.8196(7) 0.6240(12) 0.3845(15)
N8_2 N 0.9004(8) 0.6188(11) 0.3453(18)
C18_2 C 0.9976(12) 0.5365(18) 0.194(3)
C19_2 C 0.8547(12) 0.6016(18) 0.317(2)
H16_2 H 0.8474 0.5775 0.2581
C20_2 C 0.8465(11) 0.6562(15) 0.462(2)
H17_2 H 0.8325 0.6751 0.5202
C21_2 C 0.9521(11) 0.5493(16) 0.239(3)
H18_2 H 0.9258 0.5197 0.2305
C22_2 C 0.9460(10) 0.6054(14) 0.295(2)
C23_2 C 0.9837(12) 0.6492(17) 0.299(3)
H19_2 H 0.9797 0.6881 0.3364
C24_2 C 0.8953(8) 0.6555(13) 0.4403(17)
H20_2 H 0.9207 0.6747 0.4783
Co5_2 Co 0.74132(14) 0.60972(19) 0.3865(3)
Co6_2 Co 0.74132(14) 0.89028(19) 0.3865(3)
N4_3 N 0.0996(8) 0.3812(11) 0.6547(18)
C6_3 C 0.0024(12) 0.4635(18) 0.806(3)
C7_3 C 0.1453(12) 0.3984(18) 0.683(2)
H6_3 H 0.1526 0.4225 0.7419
C8_3 C 0.1535(11) 0.3438(15) 0.538(2)
H7_3 H 0.1675 0.3249 0.4798
C9_3 C 0.0479(11) 0.4507(16) 0.761(3)
H8_3 H 0.0742 0.4803 0.7695
C10_3 C 0.0540(10) 0.3946(14) 0.705(2)
C11_3 C 0.0163(12) 0.3508(17) 0.701(3)
H9_3 H 0.0203 0.3119 0.6636
C12_3 C 0.1047(8) 0.3445(13) 0.5597(17)
H10_3 H 0.0793 0.3253 0.5217
N8_3 N 0.0996(8) 0.1188(11) 0.6547(18)
C18_3 C 0.0024(12) 0.0365(18) 0.806(3)
C19_3 C 0.1453(12) 0.1016(18) 0.683(2)
H16_3 H 0.1526 0.0775 0.7419
C20_3 C 0.1535(11) 0.1562(15) 0.538(2)
H17_3 H 0.1675 0.1751 0.4798
C21_3 C 0.0479(11) 0.0493(16) 0.761(3)
H18_3 H 0.0742 0.0197 0.7695
C22_3 C 0.0540(10) 0.1054(14) 0.705(2)
C23_3 C 0.0163(12) 0.1492(17) 0.701(3)
H19_3 H 0.0203 0.1881 0.6636
C24_3 C 0.1047(8) 0.1555(13) 0.5597(17)
H20_3 H 0.0793 0.1747 0.5217
H4_3 H 0.8430 0.4883 0.0062
H14_3 H 0.8430 0.0117 0.0062
O43 O 0.7601(5) 0.3728(7) 0.0399(11)
O44 O 0.7601(5) 0.1272(7) 0.0399(11)
W1_3 W 0.76675(3) 0.33301(4) 0.62369(6)
W2_3 W 0.76703(3) 0.42534(4) 0.37994(6)
W3_3 W 0.76819(3) 0.34201(4) 0.16003(6)
W4_3 W 0.86929(3) 0.34241(4) 0.30845(6)
W5_3 W 0.65442(3) 0.33351(4) 0.46161(6)
W6_3 W 0.65514(4) 0.2500 0.24031(9)
W7_3 W 0.86851(4) 0.2500 0.55218(9)
Ge1_3 Ge 0.76413(8) 0.2500 0.38805(17)
O1_3 O 0.8753(5) 0.3155(7) 0.4464(10)
O2_3 O 0.7012(4) 0.3926(6) 0.3969(9)
O3_3 O 0.7791(4) 0.3917(6) 0.5137(9)
O4_3 O 0.8369(5) 0.4241(6) 0.3543(10)
O5_2 O 0.7592(5) 0.5081(7) 0.3975(12)
O7_3 O 0.8386(4) 0.3558(6) 0.1757(10)
O8_3 O 0.7597(5) 0.3861(7) 0.7257(11)
O9_3 O 0.9275(5) 0.3715(7) 0.2816(11)
O10_3 O 0.8376(5) 0.3171(7) 0.6355(10)
O11_3 O 0.7575(5) 0.4238(6) 0.2358(9)
O12_3 O 0.7031(5) 0.3143(7) 0.1934(9)
O13_3 O 0.7860(4) 0.3199(6) 0.3259(9)
O14_3 O 0.7013(5) 0.3284(6) 0.5683(9)
O15_3 O 0.9272(8) 0.2500 0.6038(15)
O16_3 O 0.6249(6) 0.2500 0.5035(14)
O17_3 O 0.6139(7) 0.2500 0.1416(15)
O18_3 O 0.6107(5) 0.3865(7) 0.5098(12)
O19_3 O 0.7551(7) 0.2500 0.6968(15)
O20_3 O 0.7822(7) 0.2500 0.1379(14)
O21_3 O 0.8755(6) 0.2500 0.2759(15)
O22_3 O 0.6271(4) 0.3180(6) 0.3269(9)
N1_3 N 0.8363(8) 0.4180(12) 0.8894(16)
N3_3 N 0.9182(8) 0.4291(11) 0.8516(15)
C1_3 C 0.8727(11) 0.4016(13) 0.826(2)
H1_3 H 0.8680 0.3744 0.7689
C2_3 C 0.9657(10) 0.4175(15) 0.800(2)
C3_3 C 0.9719(13) 0.3622(18) 0.751(3)
H2_3 H 0.9467 0.3304 0.7493
C4_3 C 0.9081(14) 0.4687(16) 0.936(2)
H3_3 H 0.9312 0.4938 0.9720
C5_3 C 0.8594(11) 0.4643(13) 0.956(2)
H5_2 H 0.9970 0.5036 0.8399
O23_3 O 0.7003(6) 0.2500 0.3884(12)
O24_3 O 0.7851(6) 0.2500 0.5117(12)
W8_3 W 0.76675(3) 0.16699(4) 0.62369(6)
W9_3 W 0.76703(3) 0.07466(4) 0.37994(6)
W10_3 W 0.76819(3) 0.15799(4) 0.16003(6)
W11_3 W 0.86929(3) 0.15759(4) 0.30845(6)
W12_3 W 0.65442(3) 0.16649(4) 0.46161(6)
O25_3 O 0.8753(5) 0.1845(7) 0.4464(10)
O26_3 O 0.7012(4) 0.1074(6) 0.3969(9)
O27_3 O 0.7791(4) 0.1083(6) 0.5137(9)
O28_3 O 0.8369(5) 0.0759(6) 0.3543(10)
O31_3 O 0.8386(4) 0.1442(6) 0.1757(10)
O32_3 O 0.7597(5) 0.1139(7) 0.7257(11)
O33_3 O 0.9275(5) 0.1285(7) 0.2816(11)
O34_3 O 0.8376(5) 0.1829(7) 0.6355(10)
O35_3 O 0.7575(5) 0.0762(6) 0.2358(9)
O36_3 O 0.7031(5) 0.1857(7) 0.1934(9)
O37_3 O 0.7860(4) 0.1801(6) 0.3259(9)
O38_3 O 0.7013(5) 0.1716(6) 0.5683(9)
O39_3 O 0.6107(5) 0.1135(7) 0.5098(12)
O40_3 O 0.6271(4) 0.1820(6) 0.3269(9)
N5_3 N 0.8363(8) 0.0820(12) 0.8894(16)
N7_3 N 0.9182(8) 0.0709(11) 0.8516(15)
C13_3 C 0.8727(11) 0.0984(13) 0.826(2)
H11_3 H 0.8680 0.1256 0.7689
C14_3 C 0.9657(10) 0.0825(15) 0.800(2)
C15_3 C 0.9719(13) 0.1378(18) 0.751(3)
H12_3 H 0.9467 0.1696 0.7493
C16_3 C 0.9081(14) 0.0313(16) 0.936(2)
H13_3 H 0.9312 0.0062 0.9720
C17_3 C 0.8594(11) 0.0357(13) 0.956(2)
O41_2 O 0.7408(5) 0.4919(7) 0.8975(12)
O42_2 O 0.7408(5) 0.0081(7) 0.8975(12)
O29_2 O 0.7592(5) 0.9919(7) 0.3975(12)
H15_3 H 0.9970 0.9964 0.8399
W1_4 W 0.73325(3) 0.66699(4) 0.12369(6)
W7_4 W 0.63149(4) 0.7500 0.05218(9)
O3_4 O 0.7209(4) 0.6083(6) 0.0137(9)
O8_4 O 0.7403(5) 0.6139(7) 0.2257(11)
O10_4 O 0.6624(5) 0.6829(7) 0.1355(10)
O14_4 O 0.7987(5) 0.6716(6) 0.0683(9)
O15_4 O 0.5728(8) 0.7500 0.1038(15)
O16_4 O 0.8751(6) 0.7500 0.0035(14)
O18_4 O 0.8893(5) 0.6135(7) 0.0098(12)
O19_4 O 0.7449(7) 0.7500 0.1968(15)
N1_4 N 0.6637(8) 0.5820(12) 0.3894(16)
N3_4 N 0.5818(8) 0.5709(11) 0.3516(15)
N4_4 N 0.4004(8) 0.6188(11) 0.1547(18)
C1_4 C 0.6273(11) 0.5984(13) 0.326(2)
H1_4 H 0.6320 0.6256 0.2689
C2_4 C 0.5343(10) 0.5825(15) 0.300(2)
C3_4 C 0.5281(13) 0.6378(18) 0.251(3)
H2_4 H 0.5533 0.6696 0.2493
C4_4 C 0.5919(14) 0.5313(16) 0.436(2)
H3_4 H 0.5688 0.5062 0.4720
C5_4 C 0.6406(11) 0.5357(13) 0.456(2)
H4_4 H 0.6570 0.5117 0.5062
C6_4 C 0.4976(12) 0.5365(18) 0.306(3)
H5_3 H 0.5030 0.4964 0.3399
C7_4 C 0.3547(12) 0.6016(18) 0.183(2)
H6_4 H 0.3474 0.5775 0.2419
C8_4 C 0.3465(11) 0.6562(15) 0.038(2)
C9_4 C 0.4521(11) 0.5493(16) 0.261(3)
H8_4 H 0.4258 0.5197 0.2695
C10_4 C 0.4460(10) 0.6054(14) 0.205(2)
C11_4 C 0.4837(12) 0.6492(17) 0.201(3)
H9_4 H 0.4797 0.6881 0.1636
C12_4 C 0.3953(8) 0.6555(13) 0.0597(17)
H10_4 H 0.4207 0.6747 0.0217
O24_4 O 0.7149(6) 0.7500 0.0117(12)
W8_4 W 0.73325(3) 0.83301(4) 0.12369(6)
O27_4 O 0.7209(4) 0.8917(6) 0.0137(9)
O32_4 O 0.7403(5) 0.8861(7) 0.2257(11)
O34_4 O 0.6624(5) 0.8171(7) 0.1355(10)
O38_4 O 0.7987(5) 0.8284(6) 0.0683(9)
O39_4 O 0.8893(5) 0.8865(7) 0.0098(12)
N5_4 N 0.6637(8) 0.9180(12) 0.3894(16)
N7_4 N 0.5818(8) 0.9291(11) 0.3516(15)
N8_4 N 0.4004(8) 0.8812(11) 0.1547(18)
C13_4 C 0.6273(11) 0.9016(13) 0.326(2)
H11_4 H 0.6320 0.8744 0.2689
C14_4 C 0.5343(10) 0.9175(15) 0.300(2)
C15_4 C 0.5281(13) 0.8622(18) 0.251(3)
H12_4 H 0.5533 0.8304 0.2493
C16_4 C 0.5919(14) 0.9687(16) 0.436(2)
H13_4 H 0.5688 0.9938 0.4720
C17_4 C 0.6406(11) 0.9643(13) 0.456(2)
H14_4 H 0.6570 0.9883 0.5062
C18_4 C 0.4976(12) 0.9635(18) 0.306(3)
C19_4 C 0.3547(12) 0.8984(18) 0.183(2)
H16_4 H 0.3474 0.9225 0.2419
C20_4 C 0.3465(11) 0.8438(15) 0.038(2)
C21_4 C 0.4521(11) 0.9507(16) 0.261(3)
H18_4 H 0.4258 0.9803 0.2695
C22_4 C 0.4460(10) 0.8946(14) 0.205(2)
C23_4 C 0.4837(12) 0.8508(17) 0.201(3)
H19_4 H 0.4797 0.8119 0.1636
C24_4 C 0.3953(8) 0.8445(13) 0.0597(17)
H20_4 H 0.4207 0.8253 0.0217
O43_2 O 0.7399(5) 0.6272(7) 0.5399(11)
O44_2 O 0.7399(5) 0.8728(7) 0.5399(11)
W2_4 W 0.73297(3) 0.57466(4) 0.87994(6)
W3_4 W 0.73181(3) 0.65799(4) 0.66003(6)
W4_4 W 0.63071(3) 0.65759(4) 0.80845(6)
W5_4 W 0.84558(3) 0.66649(4) 0.96161(6)
W6_4 W 0.84486(4) 0.7500 0.74031(9)
Ge1_4 Ge 0.73587(8) 0.7500 0.88805(17)
O1_4 O 0.6247(5) 0.6845(7) 0.9464(10)
O2_4 O 0.7988(4) 0.6074(6) 0.8969(9)
O4_4 O 0.6631(5) 0.5759(6) 0.8543(10)
O7_4 O 0.6614(4) 0.6442(6) 0.6757(10)
O9_4 O 0.5725(5) 0.6285(7) 0.7816(11)
O11_4 O 0.7425(5) 0.5762(6) 0.7358(9)
O12_4 O 0.7969(5) 0.6857(7) 0.6934(9)
O13_4 O 0.7140(4) 0.6801(6) 0.8259(9)
O17_4 O 0.8861(7) 0.7500 0.6416(15)
O20_4 O 0.7178(7) 0.7500 0.6379(14)
O21_4 O 0.6245(6) 0.7500 0.7759(15)
O22_4 O 0.8729(4) 0.6820(6) 0.8269(9)
H7_4 H 0.3325 0.6751 0.9798
O23_4 O 0.7997(6) 0.7500 0.8884(12)
W9_4 W 0.73297(3) 0.92534(4) 0.87994(6)
W10_4 W 0.73181(3) 0.84201(4) 0.66003(6)
W11_4 W 0.63071(3) 0.84241(4) 0.80845(6)
W12_4 W 0.84558(3) 0.83351(4) 0.96161(6)
O25_4 O 0.6247(5) 0.8155(7) 0.9464(10)
O26_4 O 0.7988(4) 0.8926(6) 0.8969(9)
O28_4 O 0.6631(5) 0.9241(6) 0.8543(10)
O31_4 O 0.6614(4) 0.8558(6) 0.6757(10)
O33_4 O 0.5725(5) 0.8715(7) 0.7816(11)
O35_4 O 0.7425(5) 0.9238(6) 0.7358(9)
O36_4 O 0.7969(5) 0.8143(7) 0.6934(9)
O37_4 O 0.7140(4) 0.8199(6) 0.8259(9)
O40_4 O 0.8729(4) 0.8180(6) 0.8269(9)
H17_4 H 0.3325 0.8249 0.9798
H5_4 H 0.4970 0.9964 0.6601
H15_4 H 0.5030 0.0036 0.3399
loop_
_geom_bond_atom_site_label_1
_geom_bond_atom_site_label_2
_geom_bond_site_symmetry_1
_geom_bond_site_symmetry_2
W2 O2 1_555 1_555
W3 O6 1_555 1_555
W4 O1 1_555 1_555
W5 O2 1_555 1_555
W6 O12 1_555 1_555
Ge1 O13 1_555 1_555
O4 W2 1_555 1_555
O6 Co3 1_555 1_555
O7 W3 1_555 1_555
O9 W4 1_555 1_555
O11 W2 1_555 1_555
O12 W3 1_555 1_555
O13 W2 1_555 1_555
O17 W6 1_555 1_555
O20 W3 1_555 1_555
O21 W4 1_555 1_555
O22 W5 1_555 1_555
O23 W5 1_555 1_555
W9 O26 1_555 1_555
W10 O20 1_555 1_555
W11 O21 1_555 1_555
O26 W12 1_555 1_555
O28 W9 1_555 1_555
O29 W9 1_555 1_555
O30 W10 1_555 1_555
O31 W10 1_555 1_555
O33 W11 1_555 1_555
O35 W9 1_555 1_555
O36 W6 1_555 1_555
O37 Ge1 1_555 1_555
O40 W6 1_555 1_555
Co7 O29 1_555 1_555
Co8 O30 1_555 1_555
W3 O11 1_555 1_555
W3 O13 1_555 1_555
W4 O4 1_555 1_555
W4 O7 1_555 1_555
W4 O13 1_555 1_555
W6 O22 1_555 1_555
W6 O23 1_555 1_555
Ge1 O23 1_555 1_555
O23 W12 1_555 1_555
W9 O37 1_555 1_555
W10 O35 1_555 1_555
W10 O36 1_555 1_555
W10 O37 1_555 1_555
W11 O25 1_555 1_555
W11 O28 1_555 1_555
W11 O31 1_555 1_555
W11 O37 1_555 1_555
W12 O40 1_555 1_555
W1 O3 1_555 1_555
Co3 O8 1_555 1_555
O8 W1 1_555 1_555
O10 W1 1_555 1_555
O14 W1 1_555 1_555
O15 W7 1_555 1_555
O19 W1 1_555 1_555
N1 Co3 1_555 1_555
N2 C7 1_555 1_555
N3 C1 1_555 1_555
N4 C7 1_555 1_555
C1 N1 1_555 1_555
H1 C1 1_555 1_555
C2 N3 1_555 1_555
C3 C2 1_555 1_555
H2 C3 1_555 1_555
C4 N3 1_555 1_555
H3 C4 1_555 1_555
C5 N1 1_555 1_555
H4 C5 1_555 1_555
C6 C2 1_555 1_555
C7 H6 1_555 1_555
C8 N2 1_555 1_555
C9 C6 1_555 1_555
H8 C9 1_555 1_555
C10 N4 1_555 1_555
C11 C3 1_555 1_555
H9 C11 1_555 1_555
C12 N4 1_555 1_555
H10 C12 1_555 1_555
O24 W1 1_555 1_555
W8 O19 1_555 1_555
Co8 O32 1_555 1_555
O27 W8 1_555 1_555
O32 W8 1_555 1_555
O34 W7 1_555 1_555
O38 W8 1_555 1_555
N5 Co8 1_555 1_555
N6 C19 1_555 1_555
N7 C13 1_555 1_555
N8 C19 1_555 1_555
C13 N5 1_555 1_555
H11 C13 1_555 1_555
C14 N7 1_555 1_555
C15 C14 1_555 1_555
H12 C15 1_555 1_555
C16 N7 1_555 1_555
H13 C16 1_555 1_555
C17 N5 1_555 1_555
H14 C17 1_555 1_555
C18 C14 1_555 1_555
H15 C18 1_555 1_555
C19 H16 1_555 1_555
C20 N6 1_555 1_555
C21 C18 1_555 1_555
H18 C21 1_555 1_555
C22 N8 1_555 1_555
C23 C15 1_555 1_555
H19 C23 1_555 1_555
C24 N8 1_555 1_555
H20 C24 1_555 1_555
Co5 N6 1_555 1_555
Co6 N2 1_555 1_555
O41 Co3 1_555 1_555
O42 Co8 1_555 1_555
N9 Co8 1_555 1_555
N10 Co3 1_555 1_555
W7 O10 1_555 1_555
W7 O24 1_555 1_555
C4 C5 1_555 1_555
C8 C12 1_555 1_555
C9 C10 1_555 1_555
C10 C11 1_555 1_555
O24 W8 1_555 1_555
W8 O34 1_555 1_555
C16 C17 1_555 1_555
C20 C24 1_555 1_555
C21 C22 1_555 1_555
C22 C23 1_555 1_555
Co4 O5 1_555 1_555
W1_2 O3_2 1_555 1_555
W2_2 O2_2 1_555 1_555
W3_2 O6_2 1_555 1_555
W4_2 O1_2 1_555 1_555
W5_2 O2_2 1_555 1_555
W6_2 O12_2 1_555 1_555
W7_2 O1_2 1_555 1_555
Ge1_2 O13_2 1_555 1_555
Co4 O8_2 1_555 1_555
O3_2 W2_2 1_555 1_555
O4_2 W2_2 1_555 1_555
O7_2 W3_2 1_555 1_555
O8_2 W1_2 1_555 1_555
O9_2 W4_2 1_555 1_555
O10_2 W1_2 1_555 1_555
O11_2 W2_2 1_555 1_555
O12_2 W3_2 1_555 1_555
O13_2 W2_2 1_555 1_555
O14_2 W1_2 1_555 1_555
O15_2 W7_2 1_555 1_555
O16_2 W5_2 1_555 1_555
O17_2 W6_2 1_555 1_555
O18_2 W5_2 1_555 1_555
O19_2 W1_2 1_555 1_555
O20_2 W3_2 1_555 1_555
O21_2 W4_2 1_555 1_555
O22_2 W5_2 1_555 1_555
N1_2 Co4 1_555 1_555
N3_2 C1_2 1_555 1_555
C1_2 N1_2 1_555 1_555
H1_2 C1_2 1_555 1_555
C2_2 N3_2 1_555 1_555
C3_2 C2_2 1_555 1_555
H2_2 C3_2 1_555 1_555
C4_2 N3_2 1_555 1_555
H3_2 C4_2 1_555 1_555
C5_2 N1_2 1_555 1_555
O23_2 W5_2 1_555 1_555
O24_2 W1_2 1_555 1_555
W8_2 O19_2 1_555 1_555
W9_2 O26_2 1_555 1_555
W10_2 O20_2 1_555 1_555
W11_2 O21_2 1_555 1_555
W12_2 O16_2 1_555 1_555
Co7 O32_2 1_555 1_555
O25_2 W7_2 1_555 1_555
O26_2 W12_2 1_555 1_555
O27_2 W8_2 1_555 1_555
O28_2 W9_2 1_555 1_555
O42 W9_2 1_555 1_555
O30_2 W10_2 1_555 1_555
O31_2 W10_2 1_555 1_555
O32_2 W8_2 1_555 1_555
O33_2 W11_2 1_555 1_555
O34_2 W7_2 1_555 1_555
O35_2 W9_2 1_555 1_555
O36_2 W6_2 1_555 1_555
O37_2 Ge1_2 1_555 1_555
O38_2 W8_2 1_555 1_555
O39_2 W12_2 1_555 1_555
O40_2 W6_2 1_555 1_555
N5_2 Co7 1_555 1_555
N7_2 C13_2 1_555 1_555
C13_2 N5_2 1_555 1_555
H11_2 C13_2 1_555 1_555
C14_2 N7_2 1_555 1_555
C15_2 C14_2 1_555 1_555
H12_2 C15_2 1_555 1_555
C16_2 N7_2 1_555 1_555
H13_2 C16_2 1_555 1_555
C17_2 N5_2 1_555 1_555
N9_2 Co7 1_555 1_555
N10_2 Co4 1_555 1_555
W3_2 O11_2 1_555 1_555
W3_2 O13_2 1_555 1_555
W4_2 O4_2 1_555 1_555
W4_2 O7_2 1_555 1_555
W4_2 O13_2 1_555 1_555
W5_2 O14_2 1_555 1_555
W6_2 O22_2 1_555 1_555
W6_2 O23_2 1_555 1_555
W7_2 O10_2 1_555 1_555
W7_2 O24_2 1_555 1_555
Ge1_2 O23_2 1_555 1_555
Ge1_2 O24_2 1_555 1_555
C4_2 C5_2 1_555 1_555
O23_2 W12_2 1_555 1_555
O24_2 W8_2 1_555 1_555
W8_2 O34_2 1_555 1_555
W9_2 O27_2 1_555 1_555
W9_2 O37_2 1_555 1_555
W10_2 O35_2 1_555 1_555
W10_2 O36_2 1_555 1_555
W10_2 O37_2 1_555 1_555
W11_2 O25_2 1_555 1_555
W11_2 O28_2 1_555 1_555
W11_2 O31_2 1_555 1_555
W11_2 O37_2 1_555 1_555
W12_2 O38_2 1_555 1_555
W12_2 O40_2 1_555 1_555
C16_2 C17_2 1_555 1_555
N2_2 C7_2 1_555 1_555
N4_2 C7_2 1_555 1_555
C7_2 H6_2 1_555 1_555
C8_2 N2_2 1_555 1_555
H7_2 C8_2 1_555 1_555
C9_2 C6_2 1_555 1_555
H8_2 C9_2 1_555 1_555
C10_2 N4_2 1_555 1_555
H9_2 C11_2 1_555 1_555
C12_2 N4_2 1_555 1_555
H10_2 C12_2 1_555 1_555
N6_2 C19_2 1_555 1_555
N8_2 C19_2 1_555 1_555
C19_2 H16_2 1_555 1_555
C20_2 N6_2 1_555 1_555
H17_2 C20_2 1_555 1_555
C21_2 C18_2 1_555 1_555
H18_2 C21_2 1_555 1_555
C22_2 N8_2 1_555 1_555
H19_2 C23_2 1_555 1_555
C24_2 N8_2 1_555 1_555
H20_2 C24_2 1_555 1_555
Co5_2 N6_2 1_555 1_555
Co6_2 N2_2 1_555 1_555
C8_2 C12_2 1_555 1_555
C9_2 C10_2 1_555 1_555
C10_2 C11_2 1_555 1_555
C20_2 C24_2 1_555 1_555
C21_2 C22_2 1_555 1_555
C22_2 C23_2 1_555 1_555
N9 C7_3 1_555 1_555
N4_3 C7_3 1_555 1_555
C7_3 H6_3 1_555 1_555
C8_3 N9 1_555 1_555
H7_3 C8_3 1_555 1_555
C9_3 C6_3 1_555 1_555
H8_3 C9_3 1_555 1_555
C10_3 N4_3 1_555 1_555
H9_3 C11_3 1_555 1_555
C12_3 N4_3 1_555 1_555
H10_3 C12_3 1_555 1_555
N10 C19_3 1_555 1_555
N8_3 C19_3 1_555 1_555
C19_3 H16_3 1_555 1_555
C20_3 N10 1_555 1_555
H17_3 C20_3 1_555 1_555
C21_3 C18_3 1_555 1_555
H18_3 C21_3 1_555 1_555
C22_3 N8_3 1_555 1_555
H19_3 C23_3 1_555 1_555
C24_3 N8_3 1_555 1_555
H20_3 C24_3 1_555 1_555
C8_3 C12_3 1_555 1_555
C9_3 C10_3 1_555 1_555
C10_3 C11_3 1_555 1_555
C20_3 C24_3 1_555 1_555
C21_3 C22_3 1_555 1_555
C22_3 C23_3 1_555 1_555
W1_3 O3_3 1_555 1_555
W2_3 O2_3 1_555 1_555
W3_3 O43 1_555 1_555
W4_3 O1_3 1_555 1_555
W5_3 O2_3 1_555 1_555
W6_3 O12_3 1_555 1_555
W7_3 O1_3 1_555 1_555
Ge1_3 O13_3 1_555 1_555
Co5 O8_3 1_555 1_555
O3_3 W2_3 1_555 1_555
O4_3 W2_3 1_555 1_555
O5_2 W2_3 1_555 1_555
O7_3 W3_3 1_555 1_555
O8_3 W1_3 1_555 1_555
O9_3 W4_3 1_555 1_555
O10_3 W1_3 1_555 1_555
O11_3 W2_3 1_555 1_555
O12_3 W3_3 1_555 1_555
O13_3 W2_3 1_555 1_555
O14_3 W1_3 1_555 1_555
O15_3 W7_3 1_555 1_555
O16_3 W5_3 1_555 1_555
O17_3 W6_3 1_555 1_555
O18_3 W5_3 1_555 1_555
O19_3 W1_3 1_555 1_555
O20_3 W3_3 1_555 1_555
O21_3 W4_3 1_555 1_555
O22_3 W5_3 1_555 1_555
N1_3 Co5 1_555 1_555
N3_3 C1_3 1_555 1_555
C1_3 N1_3 1_555 1_555
H1_3 C1_3 1_555 1_555
C2_3 N3_3 1_555 1_555
C3_3 C2_3 1_555 1_555
H2_3 C3_3 1_555 1_555
C4_3 N3_3 1_555 1_555
H3_3 C4_3 1_555 1_555
C5_3 N1_3 1_555 1_555
O23_3 W5_3 1_555 1_555
O24_3 W1_3 1_555 1_555
W8_3 O19_3 1_555 1_555
W9_3 O26_3 1_555 1_555
W10_3 O20_3 1_555 1_555
W11_3 O21_3 1_555 1_555
W12_3 O16_3 1_555 1_555
Co6 O32_3 1_555 1_555
O25_3 W7_3 1_555 1_555
O26_3 W12_3 1_555 1_555
O27_3 W8_3 1_555 1_555
O28_3 W9_3 1_555 1_555
O44 W10_3 1_555 1_555
O31_3 W10_3 1_555 1_555
O32_3 W8_3 1_555 1_555
O33_3 W11_3 1_555 1_555
O34_3 W7_3 1_555 1_555
O35_3 W9_3 1_555 1_555
O36_3 W6_3 1_555 1_555
O37_3 Ge1_3 1_555 1_555
O38_3 W8_3 1_555 1_555
O39_3 W12_3 1_555 1_555
O40_3 W6_3 1_555 1_555
N5_3 Co6 1_555 1_555
N7_3 C13_3 1_555 1_555
C13_3 N5_3 1_555 1_555
H11_3 C13_3 1_555 1_555
C14_3 N7_3 1_555 1_555
C15_3 C14_3 1_555 1_555
H12_3 C15_3 1_555 1_555
C16_3 N7_3 1_555 1_555
H13_3 C16_3 1_555 1_555
C17_3 N5_3 1_555 1_555
Co5_2 O5_2 1_555 1_555
O41_2 Co5 1_555 1_555
O42_2 Co6 1_555 1_555
W3_3 O11_3 1_555 1_555
W3_3 O13_3 1_555 1_555
W4_3 O4_3 1_555 1_555
W4_3 O7_3 1_555 1_555
W4_3 O13_3 1_555 1_555
W5_3 O14_3 1_555 1_555
W6_3 O22_3 1_555 1_555
W6_3 O23_3 1_555 1_555
W7_3 O10_3 1_555 1_555
W7_3 O24_3 1_555 1_555
Ge1_3 O23_3 1_555 1_555
Ge1_3 O24_3 1_555 1_555
C4_3 C5_3 1_555 1_555
O23_3 W12_3 1_555 1_555
O24_3 W8_3 1_555 1_555
W8_3 O34_3 1_555 1_555
W9_3 O27_3 1_555 1_555
W9_3 O37_3 1_555 1_555
W10_3 O35_3 1_555 1_555
W10_3 O36_3 1_555 1_555
W10_3 O37_3 1_555 1_555
W11_3 O25_3 1_555 1_555
W11_3 O28_3 1_555 1_555
W11_3 O31_3 1_555 1_555
W11_3 O37_3 1_555 1_555
W12_3 O38_3 1_555 1_555
W12_3 O40_3 1_555 1_555
C16_3 C17_3 1_555 1_555
Co6_2 O29_2 1_555 1_555
W1_4 O3_4 1_555 1_555
Co5_2 O8_4 1_555 1_555
O8_4 W1_4 1_555 1_555
O10_4 W1_4 1_555 1_555
O14_4 W1_4 1_555 1_555
O15_4 W7_4 1_555 1_555
O19_4 W1_4 1_555 1_555
N1_4 Co5_2 1_555 1_555
N9_2 C7_4 1_555 1_555
N3_4 C1_4 1_555 1_555
N4_4 C7_4 1_555 1_555
C1_4 N1_4 1_555 1_555
H1_4 C1_4 1_555 1_555
C2_4 N3_4 1_555 1_555
C3_4 C2_4 1_555 1_555
H2_4 C3_4 1_555 1_555
C4_4 N3_4 1_555 1_555
H3_4 C4_4 1_555 1_555
C5_4 N1_4 1_555 1_555
H4_4 C5_4 1_555 1_555
C6_4 C2_4 1_555 1_555
H5_3 C6_4 1_555 1_555
C7_4 H6_4 1_555 1_555
C8_4 N9_2 1_555 1_555
C9_4 C6_4 1_555 1_555
H8_4 C9_4 1_555 1_555
C10_4 N4_4 1_555 1_555
C11_4 C3_4 1_555 1_555
H9_4 C11_4 1_555 1_555
C12_4 N4_4 1_555 1_555
H10_4 C12_4 1_555 1_555
O24_4 W1_4 1_555 1_555
W8_4 O19_4 1_555 1_555
Co6_2 O32_4 1_555 1_555
O27_4 W8_4 1_555 1_555
O32_4 W8_4 1_555 1_555
O34_4 W7_4 1_555 1_555
O38_4 W8_4 1_555 1_555
N5_4 Co6_2 1_555 1_555
N10_2 C19_4 1_555 1_555
N7_4 C13_4 1_555 1_555
N8_4 C19_4 1_555 1_555
C13_4 N5_4 1_555 1_555
H11_4 C13_4 1_555 1_555
C14_4 N7_4 1_555 1_555
C15_4 C14_4 1_555 1_555
H12_4 C15_4 1_555 1_555
C16_4 N7_4 1_555 1_555
H13_4 C16_4 1_555 1_555
C17_4 N5_4 1_555 1_555
H14_4 C17_4 1_555 1_555
C18_4 C14_4 1_555 1_555
C19_4 H16_4 1_555 1_555
C20_4 N10_2 1_555 1_555
C21_4 C18_4 1_555 1_555
H18_4 C21_4 1_555 1_555
C22_4 N8_4 1_555 1_555
C23_4 C15_4 1_555 1_555
H19_4 C23_4 1_555 1_555
C24_4 N8_4 1_555 1_555
H20_4 C24_4 1_555 1_555
O43_2 Co5_2 1_555 1_555
O44_2 Co6_2 1_555 1_555
W7_4 O10_4 1_555 1_555
W7_4 O24_4 1_555 1_555
C4_4 C5_4 1_555 1_555
C8_4 C12_4 1_555 1_555
C9_4 C10_4 1_555 1_555
C10_4 C11_4 1_555 1_555
O24_4 W8_4 1_555 1_555
W8_4 O34_4 1_555 1_555
C16_4 C17_4 1_555 1_555
C20_4 C24_4 1_555 1_555
C21_4 C22_4 1_555 1_555
C22_4 C23_4 1_555 1_555
W2_4 O2_4 1_555 1_555
W3_4 O43_2 1_555 1_555
W4_4 O1_4 1_555 1_555
W5_4 O2_4 1_555 1_555
W6_4 O12_4 1_555 1_555
Ge1_4 O13_4 1_555 1_555
O4_4 W2_4 1_555 1_555
O41_2 W2_4 1_555 1_555
O7_4 W3_4 1_555 1_555
O9_4 W4_4 1_555 1_555
O11_4 W2_4 1_555 1_555
O12_4 W3_4 1_555 1_555
O13_4 W2_4 1_555 1_555
O17_4 W6_4 1_555 1_555
O20_4 W3_4 1_555 1_555
O21_4 W4_4 1_555 1_555
O22_4 W5_4 1_555 1_555
O23_4 W5_4 1_555 1_555
W9_4 O26_4 1_555 1_555
W10_4 O20_4 1_555 1_555
W11_4 O21_4 1_555 1_555
O26_4 W12_4 1_555 1_555
O28_4 W9_4 1_555 1_555
O44_2 W10_4 1_555 1_555
O31_4 W10_4 1_555 1_555
O33_4 W11_4 1_555 1_555
O35_4 W9_4 1_555 1_555
O36_4 W6_4 1_555 1_555
O37_4 Ge1_4 1_555 1_555
O40_4 W6_4 1_555 1_555
W3_4 O11_4 1_555 1_555
W3_4 O13_4 1_555 1_555
W4_4 O4_4 1_555 1_555
W4_4 O7_4 1_555 1_555
W4_4 O13_4 1_555 1_555
W6_4 O22_4 1_555 1_555
W6_4 O23_4 1_555 1_555
Ge1_4 O23_4 1_555 1_555
O23_4 W12_4 1_555 1_555
W9_4 O37_4 1_555 1_555
W10_4 O35_4 1_555 1_555
W10_4 O36_4 1_555 1_555
W10_4 O37_4 1_555 1_555
W11_4 O25_4 1_555 1_555
W11_4 O28_4 1_555 1_555
W11_4 O31_4 1_555 1_555
W11_4 O37_4 1_555 1_555
W12_4 O40_4 1_555 1_555

#END
