
###############################################################################
#
# This file contains modified crystal structure data generated from the
# MOF subset of the Cambridge Structural Database (CSD) v543 
# hosted by the Cambridge Crystallographic Data Centre (CCDC).
#
# This work is licensed under the Creative Commons
# Attribution-NonCommercial-ShareAlike 4.0 International License.
# To view a copy of this license, visit
# http://creativecommons.org/licenses/by-nc-sa/4.0/
# or send a letter to
# Creative Commons, PO Box 1866, Mountain View, CA 94042, USA.
#
# CIF created using the CSD Python API on 29 September 2022
# The structure has been converted into the P1 space group
# The structure has a 3D framework
# The original CSD entry OQUXIJ is in the orthorhombic crystal system
# The framework has been calculated to contain at least 10.0% void space
# The void calculation uses a probe of radius 1.32A, grid spacing 0.4
# H atom positions have been added when not included in the experimental data
#
###############################################################################

data_OQUXIJ
_chemical_formula_moiety         '(C144 H128 Co8 N48 O156 W48)n'
_symmetry_cell_setting           triclinic
_symmetry_space_group_name_H-M   'P 1'
_symmetry_Int_Tables_number      1
_space_group_name_Hall           'P 1'
loop_
_symmetry_equiv_pos_site_id
_symmetry_equiv_pos_as_xyz
1 x,y,z
_cell_length_a                   26.548(5)
_cell_length_b                   20.076(5)
_cell_length_c                   12.964(5)
_cell_angle_alpha                90
_cell_angle_beta                 90
_cell_angle_gamma                90
_cell_volume                     6909.52
loop_
_atom_site_label
_atom_site_type_symbol
_atom_site_fract_x
_atom_site_fract_y
_atom_site_fract_z
C6 C 0.4917(7) 0.0591(11) 0.0487(18)
H5 H 0.4855 0.0993 0.0818
N3 N 0.4114(5) 0.0169(8) 0.1130(11)
N4 N 0.3573(6) 0.0540(9) 0.2242(14)
C8 C 0.4575(6) 0.0080(8) 0.0549(14)
C9 C 0.4037(6) 0.0612(10) 0.1881(16)
H7 H 0.4271 0.0922 0.2113
C10 C 0.3331(7) 0.0066(10) 0.1658(18)
H32 H 0.342204 0.0791803 0.284646
C1 C 0.6319(6) 0.0163(9) 0.9032(16)
H1 H 0.6371 0.0492 0.9527
H3 H 0.7003 0.0071 0.8281
C5 C 0.5348(7) 0.0502(10) 0.9938(17)
H4 H 0.5587 0.0841 0.9900
C7 C 0.3681(6) 0.9837(9) 0.0968(16)
H6 H 0.3629 0.9508 0.0473
H8 H 0.2997 0.9929 0.1719
C11 C 0.4652(7) 0.9498(10) 0.0062(17)
H9 H 0.4413 0.9159 0.0100
N1 N 0.5886(5) 0.9831(8) 0.8870(11)
N2 N 0.6427(6) 0.9460(9) 0.7758(14)
C2 C 0.5425(6) 0.9920(8) 0.9451(14)
C3 C 0.5963(6) 0.9388(10) 0.8119(16)
H2 H 0.5729 0.9078 0.7887
C4 C 0.6669(7) 0.9934(10) 0.8342(18)
C12 C 0.5083(7) 0.9409(11) 0.9513(18)
H10 H 0.5145 0.9007 0.9182
H31 H 0.657796 0.92082 0.715354
C7_2 C 0.1319(6) 0.0163(9) 0.5968(16)
H6_2 H 0.1371 0.0492 0.5473
H8_2 H 0.2003 0.0071 0.6719
C11_2 C 0.0348(7) 0.0502(10) 0.5062(17)
H9_2 H 0.0587 0.0841 0.5100
C6_2 C 0.0083(7) 0.9409(11) 0.5487(18)
H5_2 H 0.0145 0.9007 0.5818
N3_2 N 0.0886(5) 0.9831(8) 0.6130(11)
N4_2 N 0.1427(6) 0.9460(9) 0.7242(14)
C8_2 C 0.0425(6) 0.9920(8) 0.5549(14)
C9_2 C 0.0963(6) 0.9388(10) 0.6881(16)
H7_2 H 0.0729 0.9078 0.7113
C10_2 C 0.1669(7) 0.9934(10) 0.6658(18)
H32_2 H 0.157796 0.92082 0.784646
N1_2 N 0.9114(5) 0.0169(8) 0.3870(11)
N2_2 N 0.8573(6) 0.0540(9) 0.2758(14)
C2_2 C 0.9575(6) 0.0080(8) 0.4451(14)
C3_2 C 0.9037(6) 0.0612(10) 0.3119(16)
H2_2 H 0.9271 0.0922 0.2887
C4_2 C 0.8331(7) 0.0066(10) 0.3342(18)
C12_2 C 0.9917(7) 0.0591(11) 0.4513(18)
H10_2 H 0.9855 0.0993 0.4182
H31_2 H 0.842204 0.0791803 0.215354
C1_2 C 0.8681(6) 0.9837(9) 0.4032(16)
H1_2 H 0.8629 0.9508 0.4527
H3_2 H 0.7997 0.9929 0.3281
C5_2 C 0.9652(7) 0.9498(10) 0.4938(17)
H4_2 H 0.9413 0.9159 0.4900
N1_3 N 0.0886(5) 0.5169(8) 0.6130(11)
N2_3 N 0.1427(6) 0.5540(9) 0.7242(14)
C1_3 C 0.1319(6) 0.4837(9) 0.5968(16)
H1_3 H 0.1371 0.4508 0.5473
C2_3 C 0.0425(6) 0.5080(8) 0.5549(14)
C3_3 C 0.0963(6) 0.5612(10) 0.6881(16)
H2_3 H 0.0729 0.5922 0.7113
C4_3 C 0.1669(7) 0.5066(10) 0.6658(18)
H3_3 H 0.2003 0.4929 0.6719
C5_3 C 0.0348(7) 0.4498(10) 0.5062(17)
H4_3 H 0.0587 0.4159 0.5100
C12_3 C 0.0083(7) 0.5591(11) 0.5487(18)
H10_3 H 0.0145 0.5993 0.5818
H31_3 H 0.157796 0.57918 0.784646
C6_3 C 0.9917(7) 0.4409(11) 0.4513(18)
H5_3 H 0.9855 0.4007 0.4182
N3_3 N 0.9114(5) 0.4831(8) 0.3870(11)
N4_3 N 0.8573(6) 0.4460(9) 0.2758(14)
C7_3 C 0.8681(6) 0.5163(9) 0.4032(16)
H6_3 H 0.8629 0.5492 0.4527
C8_3 C 0.9575(6) 0.4920(8) 0.4451(14)
C9_3 C 0.9037(6) 0.4388(10) 0.3119(16)
H7_3 H 0.9271 0.4078 0.2887
C10_3 C 0.8331(7) 0.4934(10) 0.3342(18)
H8_3 H 0.7997 0.5071 0.3281
C11_3 C 0.9652(7) 0.5502(10) 0.4938(17)
H9_3 H 0.9413 0.5841 0.4900
H32_3 H 0.842204 0.42082 0.215354
N1_4 N 0.4114(5) 0.4831(8) 0.1130(11)
N2_4 N 0.3573(6) 0.4460(9) 0.2242(14)
C1_4 C 0.3681(6) 0.5163(9) 0.0968(16)
H1_4 H 0.3629 0.5492 0.0473
C2_4 C 0.4575(6) 0.4920(8) 0.0549(14)
C3_4 C 0.4037(6) 0.4388(10) 0.1881(16)
H2_4 H 0.4271 0.4078 0.2113
C4_4 C 0.3331(7) 0.4934(10) 0.1658(18)
H3_4 H 0.2997 0.5071 0.1719
C5_4 C 0.4652(7) 0.5502(10) 0.0062(17)
H4_4 H 0.4413 0.5841 0.0100
C12_4 C 0.4917(7) 0.4409(11) 0.0487(18)
H10_4 H 0.4855 0.4007 0.0818
H31_4 H 0.342204 0.42082 0.284646
C6_4 C 0.5083(7) 0.5591(11) 0.9513(18)
H5_4 H 0.5145 0.5993 0.9182
N3_4 N 0.5886(5) 0.5169(8) 0.8870(11)
N4_4 N 0.6427(6) 0.5540(9) 0.7758(14)
C7_4 C 0.6319(6) 0.4837(9) 0.9032(16)
H6_4 H 0.6371 0.4508 0.9527
C8_4 C 0.5425(6) 0.5080(8) 0.9451(14)
C9_4 C 0.5963(6) 0.5612(10) 0.8119(16)
H7_4 H 0.5729 0.5922 0.7887
C10_4 C 0.6669(7) 0.5066(10) 0.8342(18)
H8_4 H 0.7003 0.4929 0.8281
C11_4 C 0.5348(7) 0.4498(10) 0.9938(17)
H9_4 H 0.5587 0.4159 0.9900
H32_4 H 0.657796 0.57918 0.715354
H18 H 0.3355 0.1786 0.0199
H28 H 0.3355 0.3214 0.0199
Co1 Co 0.74075(12) 0.10694(17) 0.5966(2)
W1 W 0.84708(2) 0.16718(3) 0.01567(5)
W2 W 0.84766(3) 0.2500 0.23956(7)
W4 W 0.73305(2) 0.07704(3) 0.10493(5)
W6 W 0.63182(2) 0.15782(3) 0.18144(5)
W7 W 0.73380(3) 0.15814(5) 0.32371(6)
N5 N 0.6616(6) 0.0811(8) 0.5876(12)
O1 O 0.7457(5) 0.0749(7) 0.2483(10)
O2 O 0.8002(4) 0.1075(5) 0.0842(9)
O3 O 0.8005(4) 0.3153(6) 0.2890(8)
O4 O 0.6624(4) 0.1415(6) 0.3145(8)
O6 O 0.8761(4) 0.1826(5) 0.1511(9)
O8 O 0.7214(7) 0.2500 0.3493(13)
O9 O 0.6617(4) 0.0752(6) 0.1329(10)
O12 O 0.8017(5) 0.2500 0.0891(11)
O14 O 0.7142(4) 0.1783(6) 0.1610(8)
O16 O 0.7432(5) 0.1278(9) 0.4454(10)
O19 O 0.5728(4) 0.1285(7) 0.2089(10)
O20 O 0.6251(6) 0.2500 0.2139(12)
O21 O 0.8911(6) 0.2500 0.3384(13)
O22 O 0.6239(4) 0.1848(6) 0.0409(8)
C13 C 0.6385(9) 0.0355(10) 0.5231(16)
H11 H 0.6546 0.0120 0.4707
N6 N 0.5803(6) 0.0724(8) 0.6286(12)
C14 C 0.5342(7) 0.0834(10) 0.6819(15)
C15 C 0.4528(7) 0.0444(10) 0.7383(17)
H12 H 0.4279 0.0119 0.7403
C16 C 0.4980(8) 0.0331(10) 0.6854(17)
C17 C 0.4459(7) 0.1041(8) 0.7871(15)
C18 C 0.6259(8) 0.0999(10) 0.6530(16)
H14 H 0.6313 0.1283 0.7086
C19 C 0.4805(10) 0.1522(11) 0.784(2)
H15 H 0.4741 0.1929 0.8152
C20 C 0.5273(8) 0.1417(11) 0.731(2)
H16 H 0.5522 0.1742 0.7318
C21 C 0.5899(10) 0.0301(12) 0.5470(18)
H17 H 0.5665 0.0026 0.5145
N7 N 0.4011(6) 0.1186(8) 0.8445(13)
C22 C 0.3482(9) 0.1568(12) 0.9622(16)
C23 C 0.3982(8) 0.1572(11) 0.9344(16)
H19 H 0.4245 0.1786 0.9681
N8 N 0.3198(7) 0.1208(9) 0.8957(13)
C24 C 0.3530(9) 0.0989(13) 0.8236(18)
H20 H 0.3439 0.0734 0.7667
Co2 Co 0.74075(12) 0.39306(17) 0.5966(2)
W8 W 0.84708(2) 0.33282(3) 0.01567(5)
W9 W 0.73305(2) 0.42296(3) 0.10493(5)
W11 W 0.63182(2) 0.34218(3) 0.18144(5)
W12 W 0.73380(3) 0.34186(5) 0.32371(6)
N9 N 0.6616(6) 0.4189(8) 0.5876(12)
O25 O 0.7457(5) 0.4251(7) 0.2483(10)
O26 O 0.8002(4) 0.3925(5) 0.0842(9)
O27 O 0.8005(4) 0.1847(6) 0.2890(8)
O28 O 0.6624(4) 0.3585(6) 0.3145(8)
O29 O 0.8761(4) 0.3174(5) 0.1511(9)
O31 O 0.6617(4) 0.4248(6) 0.1329(10)
O33 O 0.7142(4) 0.3217(6) 0.1610(8)
O35 O 0.7432(5) 0.3722(9) 0.4454(10)
O37 O 0.5728(4) 0.3715(7) 0.2089(10)
O38 O 0.6239(4) 0.3152(6) 0.0409(8)
O39 O 0.7415(4) 0.5071(5) 0.0845(10)
C25 C 0.6385(9) 0.4645(10) 0.5231(16)
H21 H 0.6546 0.4880 0.4707
N10 N 0.5803(6) 0.4276(8) 0.6286(12)
C26 C 0.5342(7) 0.4166(10) 0.6819(15)
C27 C 0.4528(7) 0.4556(10) 0.7383(17)
H22 H 0.4279 0.4881 0.7403
C28 C 0.4980(8) 0.4669(10) 0.6854(17)
H23 H 0.5038 0.5075 0.6530
C29 C 0.4459(7) 0.3959(8) 0.7871(15)
C30 C 0.6259(8) 0.4001(10) 0.6530(16)
H24 H 0.6313 0.3717 0.7086
C31 C 0.4805(10) 0.3478(11) 0.784(2)
H25 H 0.4741 0.3071 0.8152
C32 C 0.5273(8) 0.3583(11) 0.731(2)
H26 H 0.5522 0.3258 0.7318
C33 C 0.5899(10) 0.4699(12) 0.5470(18)
H27 H 0.5665 0.4974 0.5145
N11 N 0.4011(6) 0.3814(8) 0.8445(13)
C34 C 0.3482(9) 0.3432(12) 0.9622(16)
C35 C 0.3982(8) 0.3428(11) 0.9344(16)
H29 H 0.4245 0.3214 0.9681
N12 N 0.3198(7) 0.3792(9) 0.8957(13)
C36 C 0.3530(9) 0.4011(13) 0.8236(18)
H30 H 0.3439 0.4266 0.7667
Co5 Co 0.24075(12) 0.39306(17) 0.9034(2)
Co6 Co 0.24075(12) 0.10694(17) 0.9034(2)
Co7 Co 0.75925(12) 0.60694(17) 0.0966(2)
O41 O 0.7585(4) 0.0071(5) 0.5845(10)
O42 O 0.7585(4) 0.4929(5) 0.5845(10)
N13 N 0.8198(7) 0.3792(9) 0.6043(13)
N14 N 0.8198(7) 0.1208(9) 0.6043(13)
O43 O 0.7372(4) 0.1148(6) 0.7558(8)
O44 O 0.7372(4) 0.3852(6) 0.7558(8)
W3 W 0.63104(3) 0.2500 0.93449(7)
W5 W 0.73107(3) 0.16945(3) 0.85936(5)
O5 O 0.8773(5) 0.2500 0.9731(12)
O7 O 0.6592(4) 0.1821(5) 0.8459(8)
O10 O 0.8901(4) 0.1129(5) 0.9669(10)
O11 O 0.5707(6) 0.2500 0.8856(13)
O13 O 0.7138(5) 0.2500 0.9648(11)
O15 O 0.7989(4) 0.1722(5) 0.9074(8)
O17 O 0.7196(4) 0.1085(5) 0.9693(9)
O18 O 0.7437(5) 0.2500 0.7791(11)
W10 W 0.73107(3) 0.33055(3) 0.85936(5)
O30 O 0.6592(4) 0.3179(5) 0.8459(8)
O32 O 0.8901(4) 0.3871(5) 0.9669(10)
O34 O 0.7989(4) 0.3278(5) 0.9074(8)
O36 O 0.7196(4) 0.3915(5) 0.9693(9)
O23 O 0.7415(4) 0.9929(5) 0.0845(10)
H13 H 0.5038 0.9925 0.6530
Co4 Co 0.75925(12) 0.89306(17) 0.0966(2)
C15_2 C 0.0472(7) 0.9556(10) 0.2383(17)
H12_2 H 0.0721 0.9881 0.2403
C16_2 C 0.0020(8) 0.9669(10) 0.1854(17)
C17_2 C 0.0541(7) 0.8959(8) 0.2871(15)
C19_2 C 0.0195(10) 0.8478(11) 0.284(2)
H15_2 H 0.0259 0.8071 0.3152
N7_2 N 0.0989(6) 0.8814(8) 0.3445(13)
C22_2 C 0.1518(9) 0.8432(12) 0.4622(16)
H18_2 H 0.1645 0.8214 0.5199
C23_2 C 0.1018(8) 0.8428(11) 0.4344(16)
H19_2 H 0.0755 0.8214 0.4681
N8_2 N 0.1802(7) 0.8792(9) 0.3957(13)
C24_2 C 0.1470(9) 0.9011(13) 0.3236(18)
H20_2 H 0.1561 0.9266 0.2667
C27_2 C 0.0472(7) 0.5444(10) 0.2383(17)
H22_2 H 0.0721 0.5119 0.2403
C28_2 C 0.0020(8) 0.5331(10) 0.1854(17)
C29_2 C 0.0541(7) 0.6041(8) 0.2871(15)
C31_2 C 0.0195(10) 0.6522(11) 0.284(2)
H25_2 H 0.0259 0.6929 0.3152
N11_2 N 0.0989(6) 0.6186(8) 0.3445(13)
C34_2 C 0.1518(9) 0.6568(12) 0.4622(16)
H28_2 H 0.1645 0.6786 0.5199
C35_2 C 0.1018(8) 0.6572(11) 0.4344(16)
H29_2 H 0.0755 0.6786 0.4681
N12_2 N 0.1802(7) 0.6208(9) 0.3957(13)
C36_2 C 0.1470(9) 0.5989(13) 0.3236(18)
H30_2 H 0.1561 0.5734 0.2667
Co5_2 Co 0.25925(12) 0.60694(17) 0.4034(2)
Co6_2 Co 0.25925(12) 0.89306(17) 0.4034(2)
N5_2 N 0.8384(6) 0.9189(8) 0.0876(12)
C13_2 C 0.8615(9) 0.9645(10) 0.0231(16)
N6_2 N 0.9197(6) 0.9276(8) 0.1286(12)
C14_2 C 0.9658(7) 0.9166(10) 0.1819(15)
C18_2 C 0.8741(8) 0.9001(10) 0.1530(16)
H14_2 H 0.8687 0.8717 0.2086
C20_2 C 0.9727(8) 0.8583(11) 0.231(2)
H16_2 H 0.9478 0.8258 0.2318
C21_2 C 0.9101(10) 0.9699(12) 0.0470(18)
H17_2 H 0.9335 0.9974 0.0145
N9_2 N 0.8384(6) 0.5811(8) 0.0876(12)
C25_2 C 0.8615(9) 0.5355(10) 0.0231(16)
N10_2 N 0.9197(6) 0.5724(8) 0.1286(12)
C26_2 C 0.9658(7) 0.5834(10) 0.1819(15)
H23_2 H 0.9962 0.4925 0.1530
C30_2 C 0.8741(8) 0.5999(10) 0.1530(16)
H24_2 H 0.8687 0.6283 0.2086
C32_2 C 0.9727(8) 0.6417(11) 0.231(2)
H26_2 H 0.9478 0.6742 0.2318
C33_2 C 0.9101(10) 0.5301(12) 0.0470(18)
H27_2 H 0.9335 0.5026 0.0145
N13_2 N 0.6802(7) 0.6208(9) 0.1043(13)
N14_2 N 0.6802(7) 0.8792(9) 0.1043(13)
O43_2 O 0.7628(4) 0.8852(6) 0.2558(8)
O44_2 O 0.7628(4) 0.6148(6) 0.2558(8)
W1_2 W 0.65292(2) 0.83282(3) 0.51567(5)
W2_2 W 0.65234(3) 0.7500 0.73956(7)
W3_2 W 0.86896(3) 0.7500 0.43449(7)
W4_2 W 0.76695(2) 0.92296(3) 0.60493(5)
W5_2 W 0.76893(3) 0.83055(3) 0.35936(5)
W6_2 W 0.86818(2) 0.84218(3) 0.68144(5)
W7_2 W 0.76620(3) 0.84186(5) 0.82371(6)
O1_2 O 0.7543(5) 0.9251(7) 0.7483(10)
O2_2 O 0.6998(4) 0.8925(5) 0.5842(9)
O3_2 O 0.6995(4) 0.6847(6) 0.7890(8)
O4_2 O 0.8376(4) 0.8585(6) 0.8145(8)
O5_2 O 0.6227(5) 0.7500 0.4731(12)
O6_2 O 0.6239(4) 0.8174(5) 0.6511(9)
O7_2 O 0.8408(4) 0.8179(5) 0.3459(8)
O8_2 O 0.7786(7) 0.7500 0.8493(13)
O9_2 O 0.8383(4) 0.9248(6) 0.6329(10)
O10_2 O 0.6099(4) 0.8871(5) 0.4669(10)
O11_2 O 0.9293(6) 0.7500 0.3856(13)
O12_2 O 0.6983(5) 0.7500 0.5891(11)
O13_2 O 0.7862(5) 0.7500 0.4648(11)
O14_2 O 0.7858(4) 0.8217(6) 0.6610(8)
O15_2 O 0.7011(4) 0.8278(5) 0.4074(8)
O16_2 O 0.7568(5) 0.8722(9) 0.9454(10)
O17_2 O 0.7804(4) 0.8915(5) 0.4693(9)
O18_2 O 0.7563(5) 0.7500 0.2791(11)
O19_2 O 0.9272(4) 0.8715(7) 0.7089(10)
O20_2 O 0.8749(6) 0.7500 0.7139(12)
O21_2 O 0.6089(6) 0.7500 0.8384(13)
O22_2 O 0.8761(4) 0.8152(6) 0.5409(8)
H11_2 H 0.8454 0.9880 0.9707
W8_2 W 0.65292(2) 0.66718(3) 0.51567(5)
W9_2 W 0.76695(2) 0.57704(3) 0.60493(5)
W10_2 W 0.76893(3) 0.66945(3) 0.35936(5)
W11_2 W 0.86818(2) 0.65782(3) 0.68144(5)
W12_2 W 0.76620(3) 0.65814(5) 0.82371(6)
O25_2 O 0.7543(5) 0.5749(7) 0.7483(10)
O26_2 O 0.6998(4) 0.6075(5) 0.5842(9)
O27_2 O 0.6995(4) 0.8153(6) 0.7890(8)
O28_2 O 0.8376(4) 0.6415(6) 0.8145(8)
O29_2 O 0.6239(4) 0.6826(5) 0.6511(9)
O30_2 O 0.8408(4) 0.6821(5) 0.3459(8)
O31_2 O 0.8383(4) 0.5752(6) 0.6329(10)
O32_2 O 0.6099(4) 0.6129(5) 0.4669(10)
O33_2 O 0.7858(4) 0.6783(6) 0.6610(8)
O34_2 O 0.7011(4) 0.6722(5) 0.4074(8)
O35_2 O 0.7568(5) 0.6278(9) 0.9454(10)
O36_2 O 0.7804(4) 0.6085(5) 0.4693(9)
O37_2 O 0.9272(4) 0.6285(7) 0.7089(10)
O38_2 O 0.8761(4) 0.6848(6) 0.5409(8)
H21_2 H 0.8454 0.5120 0.9707
W1_3 W 0.34708(2) 0.33282(3) 0.48433(5)
W2_3 W 0.34766(3) 0.2500 0.26044(7)
W3_3 W 0.13104(3) 0.2500 0.56551(7)
W4_3 W 0.23305(2) 0.42296(3) 0.39507(5)
W5_3 W 0.23107(3) 0.33055(3) 0.64064(5)
W6_3 W 0.13182(2) 0.34218(3) 0.31856(5)
W7_3 W 0.23380(3) 0.34186(5) 0.17629(6)
O1_3 O 0.2457(5) 0.4251(7) 0.2517(10)
O2_3 O 0.3002(4) 0.3925(5) 0.4158(9)
O3_3 O 0.3005(4) 0.1847(6) 0.2110(8)
O4_3 O 0.1624(4) 0.3585(6) 0.1855(8)
O5_3 O 0.3773(5) 0.2500 0.5269(12)
O6_3 O 0.3761(4) 0.3174(5) 0.3489(9)
O7_3 O 0.1592(4) 0.3179(5) 0.6541(8)
O8_3 O 0.2214(7) 0.2500 0.1507(13)
O9_3 O 0.1617(4) 0.4248(6) 0.3671(10)
O10_3 O 0.3901(4) 0.3871(5) 0.5331(10)
O11_3 O 0.0707(6) 0.2500 0.6144(13)
O12_3 O 0.3017(5) 0.2500 0.4109(11)
O13_3 O 0.2138(5) 0.2500 0.5352(11)
O14_3 O 0.2142(4) 0.3217(6) 0.3390(8)
O15_3 O 0.2989(4) 0.3278(5) 0.5926(8)
O16_3 O 0.2432(5) 0.3722(9) 0.0546(10)
O17_3 O 0.2196(4) 0.3915(5) 0.5307(9)
O18_3 O 0.2437(5) 0.2500 0.7209(11)
O19_3 O 0.0728(4) 0.3715(7) 0.2911(10)
O20_3 O 0.1251(6) 0.2500 0.2861(12)
O21_3 O 0.3911(6) 0.2500 0.1616(13)
O22_3 O 0.1239(4) 0.3152(6) 0.4591(8)
O23_2 O 0.2415(4) 0.5071(5) 0.4155(10)
H11_3 H 0.1546 0.4880 0.0293
O24 O 0.2372(4) 0.3852(6) 0.7442(8)
W8_3 W 0.34708(2) 0.16718(3) 0.48433(5)
W9_3 W 0.23305(2) 0.07704(3) 0.39507(5)
W10_3 W 0.23107(3) 0.16945(3) 0.64064(5)
W11_3 W 0.13182(2) 0.15782(3) 0.31856(5)
W12_3 W 0.23380(3) 0.15814(5) 0.17629(6)
O25_3 O 0.2457(5) 0.0749(7) 0.2517(10)
O26_3 O 0.3002(4) 0.1075(5) 0.4158(9)
O27_3 O 0.3005(4) 0.3153(6) 0.2110(8)
O28_3 O 0.1624(4) 0.1415(6) 0.1855(8)
O29_3 O 0.3761(4) 0.1826(5) 0.3489(9)
O30_3 O 0.1592(4) 0.1821(5) 0.6541(8)
O31_3 O 0.1617(4) 0.0752(6) 0.3671(10)
O32_3 O 0.3901(4) 0.1129(5) 0.5331(10)
O33_3 O 0.2142(4) 0.1783(6) 0.3390(8)
O34_3 O 0.2989(4) 0.1722(5) 0.5926(8)
O35_3 O 0.2432(5) 0.1278(9) 0.0546(10)
O36_3 O 0.2196(4) 0.1085(5) 0.5307(9)
O37_3 O 0.0728(4) 0.1285(7) 0.2911(10)
O38_3 O 0.1239(4) 0.1848(6) 0.4591(8)
H21_3 H 0.1546 0.0120 0.0293
O40 O 0.2372(4) 0.1148(6) 0.7442(8)
N5_3 N 0.1616(6) 0.4189(8) 0.9124(12)
C13_3 C 0.1385(9) 0.4645(10) 0.9769(16)
N6_3 N 0.0803(6) 0.4276(8) 0.8714(12)
C14_3 C 0.0342(7) 0.4166(10) 0.8181(15)
H13_2 H 0.0038 0.5075 0.8470
C18_3 C 0.1259(8) 0.4001(10) 0.8470(16)
H14_3 H 0.1313 0.3717 0.7914
C20_3 C 0.0273(8) 0.3583(11) 0.769(2)
H16_3 H 0.0522 0.3258 0.7682
C21_3 C 0.0899(10) 0.4699(12) 0.9530(18)
H17_3 H 0.0665 0.4974 0.9855
N9_3 N 0.1616(6) 0.0811(8) 0.9124(12)
C25_3 C 0.1385(9) 0.0355(10) 0.9769(16)
N10_3 N 0.0803(6) 0.0724(8) 0.8714(12)
C26_3 C 0.0342(7) 0.0834(10) 0.8181(15)
C30_3 C 0.1259(8) 0.0999(10) 0.8470(16)
H24_3 H 0.1313 0.1283 0.7914
C32_3 C 0.0273(8) 0.1417(11) 0.769(2)
H26_3 H 0.0522 0.1742 0.7682
C33_3 C 0.0899(10) 0.0301(12) 0.9530(18)
H27_3 H 0.0665 0.0026 0.9855
O41_2 O 0.2585(4) 0.4929(5) 0.9155(10)
O42_2 O 0.2585(4) 0.0071(5) 0.9155(10)
O39_2 O 0.2415(4) 0.9929(5) 0.4155(10)
C15_3 C 0.9528(7) 0.4556(10) 0.7617(17)
H12_3 H 0.9279 0.4881 0.7597
C16_3 C 0.9980(8) 0.4669(10) 0.8146(17)
C17_3 C 0.9459(7) 0.3959(8) 0.7129(15)
C19_3 C 0.9805(10) 0.3478(11) 0.716(2)
H15_3 H 0.9741 0.3071 0.6848
N7_3 N 0.9011(6) 0.3814(8) 0.6555(13)
C22_3 C 0.8482(9) 0.3432(12) 0.5378(16)
H18_3 H 0.8355 0.3214 0.4801
C23_3 C 0.8982(8) 0.3428(11) 0.5656(16)
H19_3 H 0.9245 0.3214 0.5319
C24_3 C 0.8530(9) 0.4011(13) 0.6764(18)
H20_3 H 0.8439 0.4266 0.7333
C27_3 C 0.9528(7) 0.0444(10) 0.7617(17)
H22_3 H 0.9279 0.0119 0.7597
C28_3 C 0.9980(8) 0.0331(10) 0.8146(17)
C29_3 C 0.9459(7) 0.1041(8) 0.7129(15)
C31_3 C 0.9805(10) 0.1522(11) 0.716(2)
H25_3 H 0.9741 0.1929 0.6848
N11_3 N 0.9011(6) 0.1186(8) 0.6555(13)
C34_3 C 0.8482(9) 0.1568(12) 0.5378(16)
H28_3 H 0.8355 0.1786 0.4801
C35_3 C 0.8982(8) 0.1572(11) 0.5656(16)
H29_3 H 0.9245 0.1786 0.5319
C36_3 C 0.8530(9) 0.0989(13) 0.6764(18)
H30_3 H 0.8439 0.0734 0.7333
H23_3 H 0.4962 0.0075 0.3470
W3_4 W 0.36896(3) 0.7500 0.06551(7)
W5_4 W 0.26893(3) 0.66945(3) 0.14064(5)
O5_4 O 0.1227(5) 0.7500 0.0269(12)
O7_4 O 0.3408(4) 0.6821(5) 0.1541(8)
O10_4 O 0.1099(4) 0.6129(5) 0.0331(10)
O11_4 O 0.4293(6) 0.7500 0.1144(13)
O13_4 O 0.2862(5) 0.7500 0.0352(11)
O15_4 O 0.2011(4) 0.6722(5) 0.0926(8)
O17_4 O 0.2804(4) 0.6085(5) 0.0307(9)
O18_4 O 0.2563(5) 0.7500 0.2209(11)
O24_2 O 0.2628(4) 0.6148(6) 0.2442(8)
W10_4 W 0.26893(3) 0.83055(3) 0.14064(5)
O30_4 O 0.3408(4) 0.8179(5) 0.1541(8)
O32_4 O 0.1099(4) 0.8871(5) 0.0331(10)
O34_4 O 0.2011(4) 0.8278(5) 0.0926(8)
O36_4 O 0.2804(4) 0.8915(5) 0.0307(9)
O40_2 O 0.2628(4) 0.8852(6) 0.2442(8)
W1_4 W 0.15292(2) 0.66718(3) 0.98433(5)
W2_4 W 0.15234(3) 0.7500 0.76044(7)
W4_4 W 0.26695(2) 0.57704(3) 0.89507(5)
W6_4 W 0.36818(2) 0.65782(3) 0.81856(5)
W7_4 W 0.26620(3) 0.65814(5) 0.67629(6)
N5_4 N 0.3384(6) 0.5811(8) 0.4124(12)
O1_4 O 0.2543(5) 0.5749(7) 0.7517(10)
O2_4 O 0.1998(4) 0.6075(5) 0.9158(9)
O3_4 O 0.1995(4) 0.8153(6) 0.7110(8)
O4_4 O 0.3376(4) 0.6415(6) 0.6855(8)
O6_4 O 0.1239(4) 0.6826(5) 0.8489(9)
O8_4 O 0.2786(7) 0.7500 0.6507(13)
O9_4 O 0.3383(4) 0.5752(6) 0.8671(10)
O12_4 O 0.1983(5) 0.7500 0.9109(11)
O14_4 O 0.2858(4) 0.6783(6) 0.8390(8)
O16_4 O 0.2568(5) 0.6278(9) 0.5546(10)
O19_4 O 0.4272(4) 0.6285(7) 0.7911(10)
O20_4 O 0.3749(6) 0.7500 0.7861(12)
O21_4 O 0.1089(6) 0.7500 0.6616(13)
O22_4 O 0.3761(4) 0.6848(6) 0.9591(8)
C13_4 C 0.3615(9) 0.5355(10) 0.4769(16)
H11_4 H 0.3454 0.5120 0.5293
N6_4 N 0.4197(6) 0.5724(8) 0.3714(12)
C14_4 C 0.4658(7) 0.5834(10) 0.3181(15)
C15_4 C 0.5472(7) 0.5444(10) 0.2617(17)
H12_4 H 0.5721 0.5119 0.2597
C16_4 C 0.5020(8) 0.5331(10) 0.3146(17)
H13_3 H 0.4962 0.4925 0.3470
C17_4 C 0.5541(7) 0.6041(8) 0.2129(15)
C18_4 C 0.3741(8) 0.5999(10) 0.3470(16)
H14_4 H 0.3687 0.6283 0.2914
C19_4 C 0.5195(10) 0.6522(11) 0.216(2)
H15_4 H 0.5259 0.6929 0.1848
C20_4 C 0.4727(8) 0.6417(11) 0.269(2)
H16_4 H 0.4478 0.6742 0.2682
C21_4 C 0.4101(10) 0.5301(12) 0.4530(18)
H17_4 H 0.4335 0.5026 0.4855
N7_4 N 0.5989(6) 0.6186(8) 0.1555(13)
C22_4 C 0.6518(9) 0.6568(12) 0.0378(16)
C23_4 C 0.6018(8) 0.6572(11) 0.0656(16)
H19_4 H 0.5755 0.6786 0.0319
C24_4 C 0.6470(9) 0.5989(13) 0.1764(18)
H20_4 H 0.6561 0.5734 0.2333
W8_4 W 0.15292(2) 0.83282(3) 0.98433(5)
W9_4 W 0.26695(2) 0.92296(3) 0.89507(5)
W11_4 W 0.36818(2) 0.84218(3) 0.81856(5)
W12_4 W 0.26620(3) 0.84186(5) 0.67629(6)
N9_4 N 0.3384(6) 0.9189(8) 0.4124(12)
O25_4 O 0.2543(5) 0.9251(7) 0.7517(10)
O26_4 O 0.1998(4) 0.8925(5) 0.9158(9)
O27_4 O 0.1995(4) 0.6847(6) 0.7110(8)
O28_4 O 0.3376(4) 0.8585(6) 0.6855(8)
O29_4 O 0.1239(4) 0.8174(5) 0.8489(9)
O31_4 O 0.3383(4) 0.9248(6) 0.8671(10)
O33_4 O 0.2858(4) 0.8217(6) 0.8390(8)
O35_4 O 0.2568(5) 0.8722(9) 0.5546(10)
O37_4 O 0.4272(4) 0.8715(7) 0.7911(10)
O38_4 O 0.3761(4) 0.8152(6) 0.9591(8)
C25_4 C 0.3615(9) 0.9645(10) 0.4769(16)
H21_4 H 0.3454 0.9880 0.5293
N10_4 N 0.4197(6) 0.9276(8) 0.3714(12)
C26_4 C 0.4658(7) 0.9166(10) 0.3181(15)
C27_4 C 0.5472(7) 0.9556(10) 0.2617(17)
H22_4 H 0.5721 0.9881 0.2597
C28_4 C 0.5020(8) 0.9669(10) 0.3146(17)
C29_4 C 0.5541(7) 0.8959(8) 0.2129(15)
C30_4 C 0.3741(8) 0.9001(10) 0.3470(16)
H24_4 H 0.3687 0.8717 0.2914
C31_4 C 0.5195(10) 0.8478(11) 0.216(2)
H25_4 H 0.5259 0.8071 0.1848
C32_4 C 0.4727(8) 0.8583(11) 0.269(2)
H26_4 H 0.4478 0.8258 0.2682
C33_4 C 0.4101(10) 0.9699(12) 0.4530(18)
H27_4 H 0.4335 0.9974 0.4855
N11_4 N 0.5989(6) 0.8814(8) 0.1555(13)
C34_4 C 0.6518(9) 0.8432(12) 0.0378(16)
C35_4 C 0.6018(8) 0.8428(11) 0.0656(16)
H29_4 H 0.5755 0.8214 0.0319
C36_4 C 0.6470(9) 0.9011(13) 0.1764(18)
H30_4 H 0.6561 0.9266 0.2333
H13_4 H 0.9962 0.0075 0.1530
H23_4 H 0.0038 0.9925 0.8470
H18_4 H 0.6645 0.6786 0.9801
H28_4 H 0.6645 0.8214 0.9801
loop_
_geom_bond_atom_site_label_1
_geom_bond_atom_site_label_2
_geom_bond_site_symmetry_1
_geom_bond_site_symmetry_2
H5 C6 1_555 1_555
N4 C9 1_555 1_555
C8 C6 1_555 1_555
C9 N3 1_555 1_555
H7 C9 1_555 1_555
C10 N4 1_555 1_555
N3 C8 1_555 1_555
N4 H32 1_555 1_555
C1 H1 1_555 1_555
H4 C5 1_555 1_555
C7 H6 1_555 1_555
H9 C11 1_555 1_555
N2 C3 1_555 1_555
C2 N1 1_555 1_555
C3 N1 1_555 1_555
H2 C3 1_555 1_555
C4 N2 1_555 1_555
C12 C2 1_555 1_555
H10 C12 1_555 1_555
N2 H31 1_555 1_555
C7_2 H6_2 1_555 1_555
H9_2 C11_2 1_555 1_555
H5_2 C6_2 1_555 1_555
N4_2 C9_2 1_555 1_555
C8_2 C6_2 1_555 1_555
C9_2 N3_2 1_555 1_555
H7_2 C9_2 1_555 1_555
C10_2 N4_2 1_555 1_555
N3_2 C8_2 1_555 1_555
N4_2 H32_2 1_555 1_555
N2_2 C3_2 1_555 1_555
C2_2 N1_2 1_555 1_555
C3_2 N1_2 1_555 1_555
H2_2 C3_2 1_555 1_555
C4_2 N2_2 1_555 1_555
C12_2 C2_2 1_555 1_555
H10_2 C12_2 1_555 1_555
N2_2 H31_2 1_555 1_555
C1_2 H1_2 1_555 1_555
H4_2 C5_2 1_555 1_555
N1_3 C1_3 1_555 1_555
N2_3 C3_3 1_555 1_555
C1_3 H1_3 1_555 1_555
C2_3 N1_3 1_555 1_555
C3_3 N1_3 1_555 1_555
H2_3 C3_3 1_555 1_555
C4_3 N2_3 1_555 1_555
H3_3 C4_3 1_555 1_555
C5_3 C2_3 1_555 1_555
H4_3 C5_3 1_555 1_555
C12_3 C2_3 1_555 1_555
H10_3 C12_3 1_555 1_555
C1_3 C4_3 1_555 1_555
N2_3 H31_3 1_555 1_555
H5_3 C6_3 1_555 1_555
N3_3 C7_3 1_555 1_555
N4_3 C9_3 1_555 1_555
C7_3 H6_3 1_555 1_555
C8_3 C6_3 1_555 1_555
C9_3 N3_3 1_555 1_555
H7_3 C9_3 1_555 1_555
C10_3 N4_3 1_555 1_555
H8_3 C10_3 1_555 1_555
C11_3 C8_3 1_555 1_555
H9_3 C11_3 1_555 1_555
N3_3 C8_3 1_555 1_555
C7_3 C10_3 1_555 1_555
N4_3 H32_3 1_555 1_555
N1_4 C1_4 1_555 1_555
N2_4 C3_4 1_555 1_555
C1_4 H1_4 1_555 1_555
C2_4 N1_4 1_555 1_555
C3_4 N1_4 1_555 1_555
H2_4 C3_4 1_555 1_555
C4_4 N2_4 1_555 1_555
H3_4 C4_4 1_555 1_555
C5_4 C2_4 1_555 1_555
H4_4 C5_4 1_555 1_555
C12_4 C2_4 1_555 1_555
H10_4 C12_4 1_555 1_555
C1_4 C4_4 1_555 1_555
N2_4 H31_4 1_555 1_555
H5_4 C6_4 1_555 1_555
N3_4 C7_4 1_555 1_555
N4_4 C9_4 1_555 1_555
C7_4 H6_4 1_555 1_555
C8_4 C6_4 1_555 1_555
C9_4 N3_4 1_555 1_555
H7_4 C9_4 1_555 1_555
C10_4 N4_4 1_555 1_555
H8_4 C10_4 1_555 1_555
C11_4 C8_4 1_555 1_555
H9_4 C11_4 1_555 1_555
N3_4 C8_4 1_555 1_555
C7_4 C10_4 1_555 1_555
N4_4 H32_4 1_555 1_555
Co1 N5 1_555 1_555
W1 O2 1_555 1_555
W2 O3 1_555 1_555
W4 O1 1_555 1_555
W6 O4 1_555 1_555
W7 O1 1_555 1_555
N5 C13 1_555 1_555
O2 W4 1_555 1_555
O3 W12 1_555 1_555
O4 W7 1_555 1_555
O6 W1 1_555 1_555
O8 W7 1_555 1_555
O9 W4 1_555 1_555
O12 W1 1_555 1_555
O14 W4 1_555 1_555
O16 Co1 1_555 1_555
O19 W6 1_555 1_555
O20 W6 1_555 1_555
O21 W2 1_555 1_555
C13 H11 1_555 1_555
N6 C14 1_555 1_555
C14 C16 1_555 1_555
C15 H12 1_555 1_555
C16 C15 1_555 1_555
C17 C15 1_555 1_555
C18 N5 1_555 1_555
H14 C18 1_555 1_555
C19 C17 1_555 1_555
H15 C19 1_555 1_555
C20 C14 1_555 1_555
H16 C20 1_555 1_555
C21 C13 1_555 1_555
H17 C21 1_555 1_555
N7 C17 1_555 1_555
C23 N7 1_555 1_555
H19 C23 1_555 1_555
N8 C22 1_555 1_555
C24 N7 1_555 1_555
H20 C24 1_555 1_555
Co2 N9 1_555 1_555
W9 O25 1_555 1_555
W11 O20 1_555 1_555
W12 O8 1_555 1_555
N9 C25 1_555 1_555
O25 W12 1_555 1_555
O26 W8 1_555 1_555
O27 W2 1_555 1_555
O28 W11 1_555 1_555
O29 W2 1_555 1_555
O31 W9 1_555 1_555
O33 W9 1_555 1_555
O35 Co2 1_555 1_555
O37 W11 1_555 1_555
O39 W9 1_555 1_555
C25 H21 1_555 1_555
N10 C26 1_555 1_555
C26 C28 1_555 1_555
C27 H22 1_555 1_555
C28 C27 1_555 1_555
H23 C28 1_555 1_555
C29 C27 1_555 1_555
C30 N9 1_555 1_555
H24 C30 1_555 1_555
C31 C29 1_555 1_555
H25 C31 1_555 1_555
C32 C26 1_555 1_555
H26 C32 1_555 1_555
C33 C25 1_555 1_555
H27 C33 1_555 1_555
N11 C29 1_555 1_555
C35 N11 1_555 1_555
H29 C35 1_555 1_555
N12 C34 1_555 1_555
C36 N11 1_555 1_555
H30 C36 1_555 1_555
Co5 N12 1_555 1_555
Co6 N8 1_555 1_555
Co7 O39 1_555 1_555
O41 Co1 1_555 1_555
O42 Co2 1_555 1_555
N13 Co2 1_555 1_555
N14 Co1 1_555 1_555
O43 Co1 1_555 1_555
O44 Co2 1_555 1_555
W2 O6 1_555 1_555
W2 O12 1_555 1_555
W6 O9 1_555 1_555
W6 O14 1_555 1_555
W6 O22 1_555 1_555
W7 O14 1_555 1_555
W7 O16 1_555 1_555
W7 O27 1_555 1_555
O12 W8 1_555 1_555
N6 C18 1_555 1_555
N6 C21 1_555 1_555
C19 C20 1_555 1_555
C22 C23 1_555 1_555
N8 C24 1_555 1_555
W8 O29 1_555 1_555
W9 O26 1_555 1_555
W11 O31 1_555 1_555
W11 O33 1_555 1_555
W11 O38 1_555 1_555
W12 O28 1_555 1_555
W12 O33 1_555 1_555
W12 O35 1_555 1_555
N10 C30 1_555 1_555
N10 C33 1_555 1_555
C31 C32 1_555 1_555
C34 C35 1_555 1_555
N12 C36 1_555 1_555
W3 O7 1_555 1_555
W5 O7 1_555 1_555
O11 W3 1_555 1_555
O13 W3 1_555 1_555
O18 W5 1_555 1_555
O43 W5 1_555 1_555
W10 O13 1_555 1_555
O30 W3 1_555 1_555
O44 W10 1_555 1_555
W5 O13 1_555 1_555
W5 O15 1_555 1_555
W5 O17 1_555 1_555
O18 W10 1_555 1_555
W10 O30 1_555 1_555
W10 O34 1_555 1_555
W10 O36 1_555 1_555
Co4 O23 1_555 1_555
C15_2 H12_2 1_555 1_555
C16_2 C15_2 1_555 1_555
C17_2 C15_2 1_555 1_555
C19_2 C17_2 1_555 1_555
H15_2 C19_2 1_555 1_555
N7_2 C17_2 1_555 1_555
C22_2 H18_2 1_555 1_555
C23_2 N7_2 1_555 1_555
H19_2 C23_2 1_555 1_555
N8_2 C22_2 1_555 1_555
C24_2 N7_2 1_555 1_555
H20_2 C24_2 1_555 1_555
C27_2 H22_2 1_555 1_555
C28_2 C27_2 1_555 1_555
C29_2 C27_2 1_555 1_555
C31_2 C29_2 1_555 1_555
H25_2 C31_2 1_555 1_555
N11_2 C29_2 1_555 1_555
C34_2 H28_2 1_555 1_555
C35_2 N11_2 1_555 1_555
H29_2 C35_2 1_555 1_555
N12_2 C34_2 1_555 1_555
C36_2 N11_2 1_555 1_555
H30_2 C36_2 1_555 1_555
Co5_2 N12_2 1_555 1_555
Co6_2 N8_2 1_555 1_555
C22_2 C23_2 1_555 1_555
N8_2 C24_2 1_555 1_555
C34_2 C35_2 1_555 1_555
N12_2 C36_2 1_555 1_555
Co4 N5_2 1_555 1_555
N5_2 C13_2 1_555 1_555
N6_2 C14_2 1_555 1_555
C18_2 N5_2 1_555 1_555
H14_2 C18_2 1_555 1_555
C20_2 C14_2 1_555 1_555
H16_2 C20_2 1_555 1_555
C21_2 C13_2 1_555 1_555
H17_2 C21_2 1_555 1_555
Co7 N9_2 1_555 1_555
N9_2 C25_2 1_555 1_555
N10_2 C26_2 1_555 1_555
C30_2 N9_2 1_555 1_555
H24_2 C30_2 1_555 1_555
C32_2 C26_2 1_555 1_555
H26_2 C32_2 1_555 1_555
C33_2 C25_2 1_555 1_555
H27_2 C33_2 1_555 1_555
N13_2 Co7 1_555 1_555
N14_2 Co4 1_555 1_555
O43_2 Co4 1_555 1_555
O44_2 Co7 1_555 1_555
N6_2 C18_2 1_555 1_555
N6_2 C21_2 1_555 1_555
N10_2 C30_2 1_555 1_555
N10_2 C33_2 1_555 1_555
W1_2 O2_2 1_555 1_555
W2_2 O3_2 1_555 1_555
W3_2 O7_2 1_555 1_555
W4_2 O1_2 1_555 1_555
W5_2 O7_2 1_555 1_555
W6_2 O4_2 1_555 1_555
W7_2 O1_2 1_555 1_555
O2_2 W4_2 1_555 1_555
O3_2 W12_2 1_555 1_555
O4_2 W7_2 1_555 1_555
O5_2 W1_2 1_555 1_555
O6_2 W1_2 1_555 1_555
O8_2 W7_2 1_555 1_555
O9_2 W4_2 1_555 1_555
O10_2 W1_2 1_555 1_555
O11_2 W3_2 1_555 1_555
O12_2 W1_2 1_555 1_555
O13_2 W3_2 1_555 1_555
O14_2 W4_2 1_555 1_555
O15_2 W1_2 1_555 1_555
O17_2 W4_2 1_555 1_555
O18_2 W5_2 1_555 1_555
O19_2 W6_2 1_555 1_555
O20_2 W6_2 1_555 1_555
O21_2 W2_2 1_555 1_555
O22_2 W3_2 1_555 1_555
O43_2 W5_2 1_555 1_555
W8_2 O5_2 1_555 1_555
W9_2 O25_2 1_555 1_555
W10_2 O13_2 1_555 1_555
W11_2 O20_2 1_555 1_555
W12_2 O8_2 1_555 1_555
O25_2 W12_2 1_555 1_555
O26_2 W8_2 1_555 1_555
O27_2 W2_2 1_555 1_555
O28_2 W11_2 1_555 1_555
O29_2 W2_2 1_555 1_555
O30_2 W3_2 1_555 1_555
O31_2 W9_2 1_555 1_555
O32_2 W8_2 1_555 1_555
O33_2 W9_2 1_555 1_555
O34_2 W8_2 1_555 1_555
O36_2 W9_2 1_555 1_555
O37_2 W11_2 1_555 1_555
O38_2 W3_2 1_555 1_555
O42 W9_2 1_555 1_555
O44_2 W10_2 1_555 1_555
W2_2 O6_2 1_555 1_555
W2_2 O12_2 1_555 1_555
W5_2 O13_2 1_555 1_555
W5_2 O15_2 1_555 1_555
W5_2 O17_2 1_555 1_555
W6_2 O9_2 1_555 1_555
W6_2 O14_2 1_555 1_555
W6_2 O22_2 1_555 1_555
W7_2 O14_2 1_555 1_555
W7_2 O16_2 1_555 1_555
W7_2 O27_2 1_555 1_555
O12_2 W8_2 1_555 1_555
O18_2 W10_2 1_555 1_555
W8_2 O29_2 1_555 1_555
W9_2 O26_2 1_555 1_555
W10_2 O30_2 1_555 1_555
W10_2 O34_2 1_555 1_555
W10_2 O36_2 1_555 1_555
W11_2 O31_2 1_555 1_555
W11_2 O33_2 1_555 1_555
W11_2 O38_2 1_555 1_555
W12_2 O28_2 1_555 1_555
W12_2 O33_2 1_555 1_555
W12_2 O35_2 1_555 1_555
W1_3 O2_3 1_555 1_555
W2_3 O3_3 1_555 1_555
W3_3 O7_3 1_555 1_555
W4_3 O1_3 1_555 1_555
W5_3 O7_3 1_555 1_555
W6_3 O4_3 1_555 1_555
W7_3 O1_3 1_555 1_555
O2_3 W4_3 1_555 1_555
O3_3 W12_3 1_555 1_555
O4_3 W7_3 1_555 1_555
O5_3 W1_3 1_555 1_555
O6_3 W1_3 1_555 1_555
O8_3 W7_3 1_555 1_555
O9_3 W4_3 1_555 1_555
O10_3 W1_3 1_555 1_555
O11_3 W3_3 1_555 1_555
O12_3 W1_3 1_555 1_555
O13_3 W3_3 1_555 1_555
O14_3 W4_3 1_555 1_555
O15_3 W1_3 1_555 1_555
O17_3 W4_3 1_555 1_555
O18_3 W5_3 1_555 1_555
O19_3 W6_3 1_555 1_555
O20_3 W6_3 1_555 1_555
O21_3 W2_3 1_555 1_555
O22_3 W3_3 1_555 1_555
O23_2 W4_3 1_555 1_555
O24 W5_3 1_555 1_555
W8_3 O5_3 1_555 1_555
W9_3 O25_3 1_555 1_555
W10_3 O13_3 1_555 1_555
W11_3 O20_3 1_555 1_555
W12_3 O8_3 1_555 1_555
O25_3 W12_3 1_555 1_555
O26_3 W8_3 1_555 1_555
O27_3 W2_3 1_555 1_555
O28_3 W11_3 1_555 1_555
O29_3 W2_3 1_555 1_555
O30_3 W3_3 1_555 1_555
O31_3 W9_3 1_555 1_555
O32_3 W8_3 1_555 1_555
O33_3 W9_3 1_555 1_555
O34_3 W8_3 1_555 1_555
O36_3 W9_3 1_555 1_555
O37_3 W11_3 1_555 1_555
O38_3 W3_3 1_555 1_555
O40 W10_3 1_555 1_555
Co5 O24 1_555 1_555
Co5_2 O23_2 1_555 1_555
Co6 O40 1_555 1_555
W2_3 O6_3 1_555 1_555
W2_3 O12_3 1_555 1_555
W5_3 O13_3 1_555 1_555
W5_3 O15_3 1_555 1_555
W5_3 O17_3 1_555 1_555
W6_3 O9_3 1_555 1_555
W6_3 O14_3 1_555 1_555
W6_3 O22_3 1_555 1_555
W7_3 O14_3 1_555 1_555
W7_3 O16_3 1_555 1_555
W7_3 O27_3 1_555 1_555
O12_3 W8_3 1_555 1_555
O18_3 W10_3 1_555 1_555
W8_3 O29_3 1_555 1_555
W9_3 O26_3 1_555 1_555
W10_3 O30_3 1_555 1_555
W10_3 O34_3 1_555 1_555
W10_3 O36_3 1_555 1_555
W11_3 O31_3 1_555 1_555
W11_3 O33_3 1_555 1_555
W11_3 O38_3 1_555 1_555
W12_3 O28_3 1_555 1_555
W12_3 O33_3 1_555 1_555
W12_3 O35_3 1_555 1_555
Co5 N5_3 1_555 1_555
N5_3 C13_3 1_555 1_555
N6_3 C14_3 1_555 1_555
C18_3 N5_3 1_555 1_555
H14_3 C18_3 1_555 1_555
C20_3 C14_3 1_555 1_555
H16_3 C20_3 1_555 1_555
C21_3 C13_3 1_555 1_555
H17_3 C21_3 1_555 1_555
Co6 N9_3 1_555 1_555
N9_3 C25_3 1_555 1_555
N10_3 C26_3 1_555 1_555
C30_3 N9_3 1_555 1_555
H24_3 C30_3 1_555 1_555
C32_3 C26_3 1_555 1_555
H26_3 C32_3 1_555 1_555
C33_3 C25_3 1_555 1_555
H27_3 C33_3 1_555 1_555
O41_2 Co5 1_555 1_555
O42_2 Co6 1_555 1_555
N6_3 C18_3 1_555 1_555
N6_3 C21_3 1_555 1_555
N10_3 C30_3 1_555 1_555
N10_3 C33_3 1_555 1_555
Co6_2 O39_2 1_555 1_555
C15_3 H12_3 1_555 1_555
C16_3 C15_3 1_555 1_555
C17_3 C15_3 1_555 1_555
C19_3 C17_3 1_555 1_555
H15_3 C19_3 1_555 1_555
N7_3 C17_3 1_555 1_555
C22_3 H18_3 1_555 1_555
C23_3 N7_3 1_555 1_555
H19_3 C23_3 1_555 1_555
N13 C22_3 1_555 1_555
C24_3 N7_3 1_555 1_555
H20_3 C24_3 1_555 1_555
C27_3 H22_3 1_555 1_555
C28_3 C27_3 1_555 1_555
C29_3 C27_3 1_555 1_555
C31_3 C29_3 1_555 1_555
H25_3 C31_3 1_555 1_555
N11_3 C29_3 1_555 1_555
C34_3 H28_3 1_555 1_555
C35_3 N11_3 1_555 1_555
H29_3 C35_3 1_555 1_555
N14 C34_3 1_555 1_555
C36_3 N11_3 1_555 1_555
H30_3 C36_3 1_555 1_555
C22_3 C23_3 1_555 1_555
N13 C24_3 1_555 1_555
C34_3 C35_3 1_555 1_555
N14 C36_3 1_555 1_555
W3_4 O7_4 1_555 1_555
W5_4 O7_4 1_555 1_555
O11_4 W3_4 1_555 1_555
O13_4 W3_4 1_555 1_555
O18_4 W5_4 1_555 1_555
O24_2 W5_4 1_555 1_555
W10_4 O13_4 1_555 1_555
O30_4 W3_4 1_555 1_555
O40_2 W10_4 1_555 1_555
Co5_2 O24_2 1_555 1_555
Co6_2 O40_2 1_555 1_555
W5_4 O13_4 1_555 1_555
W5_4 O15_4 1_555 1_555
W5_4 O17_4 1_555 1_555
O18_4 W10_4 1_555 1_555
W10_4 O30_4 1_555 1_555
W10_4 O34_4 1_555 1_555
W10_4 O36_4 1_555 1_555
Co5_2 N5_4 1_555 1_555
W1_4 O2_4 1_555 1_555
W2_4 O3_4 1_555 1_555
W4_4 O1_4 1_555 1_555
W6_4 O4_4 1_555 1_555
W7_4 O1_4 1_555 1_555
N5_4 C13_4 1_555 1_555
O2_4 W4_4 1_555 1_555
O3_4 W12_4 1_555 1_555
O4_4 W7_4 1_555 1_555
O6_4 W1_4 1_555 1_555
O8_4 W7_4 1_555 1_555
O9_4 W4_4 1_555 1_555
O12_4 W1_4 1_555 1_555
O14_4 W4_4 1_555 1_555
O16_4 Co5_2 1_555 1_555
O19_4 W6_4 1_555 1_555
O20_4 W6_4 1_555 1_555
O21_4 W2_4 1_555 1_555
O41_2 W4_4 1_555 1_555
C13_4 H11_4 1_555 1_555
N6_4 C14_4 1_555 1_555
C14_4 C16_4 1_555 1_555
C15_4 H12_4 1_555 1_555
C16_4 C15_4 1_555 1_555
H13_3 C16_4 1_555 1_555
C17_4 C15_4 1_555 1_555
C18_4 N5_4 1_555 1_555
H14_4 C18_4 1_555 1_555
C19_4 C17_4 1_555 1_555
H15_4 C19_4 1_555 1_555
C20_4 C14_4 1_555 1_555
H16_4 C20_4 1_555 1_555
C21_4 C13_4 1_555 1_555
H17_4 C21_4 1_555 1_555
N7_4 C17_4 1_555 1_555
C23_4 N7_4 1_555 1_555
H19_4 C23_4 1_555 1_555
N13_2 C22_4 1_555 1_555
C24_4 N7_4 1_555 1_555
H20_4 C24_4 1_555 1_555
Co6_2 N9_4 1_555 1_555
W9_4 O25_4 1_555 1_555
W11_4 O20_4 1_555 1_555
W12_4 O8_4 1_555 1_555
N9_4 C25_4 1_555 1_555
O25_4 W12_4 1_555 1_555
O26_4 W8_4 1_555 1_555
O27_4 W2_4 1_555 1_555
O28_4 W11_4 1_555 1_555
O29_4 W2_4 1_555 1_555
O31_4 W9_4 1_555 1_555
O33_4 W9_4 1_555 1_555
O35_4 Co6_2 1_555 1_555
O37_4 W11_4 1_555 1_555
C25_4 H21_4 1_555 1_555
N10_4 C26_4 1_555 1_555
C26_4 C28_4 1_555 1_555
C27_4 H22_4 1_555 1_555
C28_4 C27_4 1_555 1_555
C29_4 C27_4 1_555 1_555
C30_4 N9_4 1_555 1_555
H24_4 C30_4 1_555 1_555
C31_4 C29_4 1_555 1_555
H25_4 C31_4 1_555 1_555
C32_4 C26_4 1_555 1_555
H26_4 C32_4 1_555 1_555
C33_4 C25_4 1_555 1_555
H27_4 C33_4 1_555 1_555
N11_4 C29_4 1_555 1_555
C35_4 N11_4 1_555 1_555
H29_4 C35_4 1_555 1_555
N14_2 C34_4 1_555 1_555
C36_4 N11_4 1_555 1_555
H30_4 C36_4 1_555 1_555
W2_4 O6_4 1_555 1_555
W2_4 O12_4 1_555 1_555
W6_4 O9_4 1_555 1_555
W6_4 O14_4 1_555 1_555
W6_4 O22_4 1_555 1_555
W7_4 O14_4 1_555 1_555
W7_4 O16_4 1_555 1_555
W7_4 O27_4 1_555 1_555
O12_4 W8_4 1_555 1_555
N6_4 C18_4 1_555 1_555
N6_4 C21_4 1_555 1_555
C19_4 C20_4 1_555 1_555
C22_4 C23_4 1_555 1_555
N13_2 C24_4 1_555 1_555
W8_4 O29_4 1_555 1_555
W9_4 O26_4 1_555 1_555
W11_4 O31_4 1_555 1_555
W11_4 O33_4 1_555 1_555
W11_4 O38_4 1_555 1_555
W12_4 O28_4 1_555 1_555
W12_4 O33_4 1_555 1_555
W12_4 O35_4 1_555 1_555
N10_4 C30_4 1_555 1_555
N10_4 C33_4 1_555 1_555
C31_4 C32_4 1_555 1_555
C34_4 C35_4 1_555 1_555
N14_2 C36_4 1_555 1_555

#END
