
###############################################################################
#
# This file contains modified crystal structure data generated from the
# MOF subset of the Cambridge Structural Database (CSD) v543 
# hosted by the Cambridge Crystallographic Data Centre (CCDC).
#
# This work is licensed under the Creative Commons
# Attribution-NonCommercial-ShareAlike 4.0 International License.
# To view a copy of this license, visit
# http://creativecommons.org/licenses/by-nc-sa/4.0/
# or send a letter to
# Creative Commons, PO Box 1866, Mountain View, CA 94042, USA.
#
# CIF created using the CSD Python API on 29 September 2022
# The structure has been converted into the P1 space group
# The structure has a 3D framework
# The original CSD entry OQUZIL is in the orthorhombic crystal system
# The framework has been calculated to contain at least 10.0% void space
# The void calculation uses a probe of radius 1.32A, grid spacing 0.4
# The framework is charged, counterions have been retained in the structure
# H atom positions have been added when not included in the experimental data
#
###############################################################################

data_OQUZIL
_chemical_formula_moiety         '(C144 H136 Ag8 B4 N48 O156 W48)n'
_symmetry_cell_setting           triclinic
_symmetry_space_group_name_H-M   'P 1'
_symmetry_Int_Tables_number      1
_space_group_name_Hall           'P 1'
loop_
_symmetry_equiv_pos_site_id
_symmetry_equiv_pos_as_xyz
1 x,y,z
_cell_length_a                   26.664(5)
_cell_length_b                   20.022(5)
_cell_length_c                   12.937(5)
_cell_angle_alpha                90
_cell_angle_beta                 90
_cell_angle_gamma                90
_cell_volume                     6906.63
loop_
_atom_site_label
_atom_site_type_symbol
_atom_site_fract_x
_atom_site_fract_y
_atom_site_fract_z
W3 W 0.36799(5) 0.2500 0.05493(11)
W4 W 0.26672(4) 0.16822(5) 0.12835(8)
Ag1 Ag 0.25710(17) 0.1059(2) 0.3908(3)
O7 O 0.4273(9) 0.2500 0.1119(19)
O8 O 0.3375(6) 0.1845(8) 0.1400(12)
O9 O 0.2000(6) 0.1714(8) 0.0785(14)
O10 O 0.1115(6) 0.1131(7) 0.0168(13)
O11 O 0.1271(7) 0.2500 0.0076(17)
O18 O 0.2798(7) 0.1057(8) 0.0231(15)
O19 O 0.2608(6) 0.1162(9) 0.2340(18)
O20 O 0.2567(9) 0.2500 0.201(2)
O21 O 0.2842(9) 0.2500 0.004(2)
N1 N 0.3354(13) 0.0783(18) 0.394(3)
N2 N 0.6841(10) 0.1208(14) 0.115(2)
N3 N 0.4154(10) 0.0705(12) 0.3607(19)
N4 N 0.5985(9) 0.1187(13) 0.156(2)
C1 C 0.3703(10) 0.0987(15) 0.332(2)
H1 H 0.3656 0.1279 0.2774
C2 C 0.6462(12) 0.0995(16) 0.182(3)
H2 H 0.6530 0.0740 0.2402
C3 C 0.6524(13) 0.1567(15) 0.038(3)
C4 C 0.5011(12) 0.034(2) 0.311(3)
C5 C 0.4632(11) 0.0814(16) 0.305(3)
C6 C 0.4061(11) 0.0355(15) 0.442(2)
H5 H 0.4296 0.0112 0.4793
C7 C 0.3581(13) 0.0396(15) 0.463(3)
H6 H 0.3424 0.0185 0.5187
C8 C 0.4705(14) 0.1398(19) 0.250(3)
H7 H 0.4450 0.1712 0.2437
C9 C 0.5151(17) 0.149(2) 0.208(4)
H8 H 0.5200 0.1891 0.1721
C10 C 0.6036(11) 0.1564(13) 0.060(2)
H9 H 0.5780 0.1761 0.0218
C11 C 0.5554(11) 0.1054(14) 0.213(2)
C12 C 0.5460(14) 0.0484(17) 0.267(3)
H10 H 0.5720 0.0178 0.2750
W9 W 0.26672(4) 0.33178(5) 0.12835(8)
Ag2 Ag 0.25710(17) 0.3941(2) 0.3908(3)
O29 O 0.3375(6) 0.3155(8) 0.1400(12)
O30 O 0.2000(6) 0.3286(8) 0.0785(14)
O31 O 0.1115(6) 0.3869(7) 0.0168(13)
O36 O 0.2798(7) 0.3943(8) 0.0231(15)
O37 O 0.2608(6) 0.3838(9) 0.2340(18)
N5 N 0.3354(13) 0.4217(18) 0.394(3)
N6 N 0.6841(10) 0.3792(14) 0.115(2)
N7 N 0.4154(10) 0.4295(12) 0.3607(19)
N8 N 0.5985(9) 0.3813(13) 0.156(2)
C13 C 0.3703(10) 0.4013(15) 0.332(2)
H11 H 0.3656 0.3721 0.2774
C14 C 0.6462(12) 0.4005(16) 0.182(3)
H12 H 0.6530 0.4260 0.2402
C15 C 0.6524(13) 0.3433(15) 0.038(3)
C16 C 0.5011(12) 0.466(2) 0.311(3)
H14 H 0.4957 0.5068 0.3439
C17 C 0.4632(11) 0.4186(16) 0.305(3)
C18 C 0.4061(11) 0.4645(15) 0.442(2)
H15 H 0.4296 0.4888 0.4793
C19 C 0.3581(13) 0.4604(15) 0.463(3)
H16 H 0.3424 0.4815 0.5187
C20 C 0.4705(14) 0.3602(19) 0.250(3)
H17 H 0.4450 0.3288 0.2437
C21 C 0.5151(17) 0.351(2) 0.208(4)
H18 H 0.5200 0.3109 0.1721
C22 C 0.6036(11) 0.3436(13) 0.060(2)
H19 H 0.5780 0.3239 0.0218
C23 C 0.5554(11) 0.3946(14) 0.213(2)
C24 C 0.5460(14) 0.4516(17) 0.267(3)
H20 H 0.5720 0.4822 0.2750
Ag5 Ag 0.75710(17) 0.3941(2) 0.1092(3)
Ag6 Ag 0.75710(17) 0.1059(2) 0.1092(3)
O41 O 0.2589(6) 0.1261(11) 0.5475(16)
O42 O 0.2589(6) 0.3739(11) 0.5475(16)
N9 N 0.1841(10) 0.3792(14) 0.385(2)
N10 N 0.1841(10) 0.1208(14) 0.385(2)
O43 O 0.2401(6) 0.0079(9) 0.4048(15)
O44 O 0.2401(6) 0.4921(9) 0.4048(15)
W1 W 0.15469(5) 0.2500 0.74765(12)
W2 W 0.15487(4) 0.16719(4) 0.96933(8)
W5 W 0.26635(4) 0.07766(5) 0.88591(9)
W6 W 0.36799(4) 0.15892(5) 0.81162(8)
W7 W 0.26645(4) 0.15955(5) 0.66603(9)
O1 O 0.2075(7) 0.2500 0.8946(18)
O2 O 0.2818(5) 0.1884(7) 0.8411(12)
O3 O 0.2564(7) 0.0781(9) 0.7437(16)
O4 O 0.4260(6) 0.1286(9) 0.7826(13)
O5 O 0.3763(8) 0.2500 0.7756(17)
O6 O 0.3782(5) 0.1838(7) 0.9532(12)
O12 O 0.1260(5) 0.1848(7) 0.8353(12)
O13 O 0.1109(10) 0.2500 0.654(2)
O14 O 0.2006(6) 0.3145(9) 0.6967(13)
O15 O 0.2797(9) 0.2500 0.6360(19)
O16 O 0.3377(6) 0.1460(8) 0.6811(14)
O17 O 0.3372(6) 0.0787(7) 0.8559(14)
O22 O 0.1989(5) 0.1072(7) 0.9026(13)
H3 H 0.6656 0.1775 0.9797
B1 B 0.2637(13) 0.2500 0.896(3)
O25 O 0.2818(5) 0.3116(7) 0.8411(12)
W8 W 0.15487(4) 0.33281(4) 0.96933(8)
W10 W 0.26635(4) 0.42234(5) 0.88591(9)
W11 W 0.36799(4) 0.34108(5) 0.81162(8)
W12 W 0.26645(4) 0.34045(5) 0.66603(9)
O26 O 0.2564(7) 0.4219(9) 0.7437(16)
O27 O 0.4260(6) 0.3714(9) 0.7826(13)
O28 O 0.3782(5) 0.3162(7) 0.9532(12)
O32 O 0.1260(5) 0.3152(7) 0.8353(12)
O33 O 0.2006(6) 0.1855(9) 0.6967(13)
O34 O 0.3377(6) 0.3540(8) 0.6811(14)
O35 O 0.3372(6) 0.4213(7) 0.8559(14)
O38 O 0.1989(5) 0.3928(7) 0.9026(13)
H13 H 0.6656 0.3225 0.9797
O40 O 0.2599(6) 0.5079(9) 0.9048(15)
Ag7 Ag 0.24290(17) 0.6059(2) 0.8908(3)
O24 O 0.2599(6) 0.9921(9) 0.9048(15)
Ag4 Ag 0.24290(17) 0.8941(2) 0.8908(3)
H4 H 0.0043 0.0068 0.8439
H6_2 H 0.1576 0.9815 0.0187
H16_2 H 0.1576 0.5185 0.0187
O41_2 O 0.2411(6) 0.8739(11) 0.0475(16)
O42_2 O 0.2411(6) 0.6261(11) 0.0475(16)
W1_2 W 0.34531(5) 0.7500 0.24765(12)
W2_2 W 0.34513(4) 0.83281(4) 0.46933(8)
W3_2 W 0.13201(5) 0.7500 0.55493(11)
W4_2 W 0.23328(4) 0.83178(5) 0.62835(8)
W5_2 W 0.23365(4) 0.92234(5) 0.38591(9)
W6_2 W 0.13201(4) 0.84108(5) 0.31162(8)
W7_2 W 0.23355(4) 0.84045(5) 0.16603(9)
O1_2 O 0.2925(7) 0.7500 0.3946(18)
O2_2 O 0.2182(5) 0.8116(7) 0.3411(12)
O3_2 O 0.2436(7) 0.9219(9) 0.2437(16)
O4_2 O 0.0740(6) 0.8714(9) 0.2826(13)
O5_2 O 0.1237(8) 0.7500 0.2756(17)
O6_2 O 0.1218(5) 0.8162(7) 0.4532(12)
O7_2 O 0.0727(9) 0.7500 0.6119(19)
O8_2 O 0.1625(6) 0.8155(8) 0.6400(12)
O9_2 O 0.3000(6) 0.8286(8) 0.5785(14)
O10_2 O 0.3885(6) 0.8869(7) 0.5168(13)
O11_2 O 0.3729(7) 0.7500 0.5076(17)
O12_2 O 0.3740(5) 0.8152(7) 0.3353(12)
O13_2 O 0.3891(10) 0.7500 0.154(2)
O14_2 O 0.2994(6) 0.6855(9) 0.1967(13)
O15_2 O 0.2203(9) 0.7500 0.1360(19)
O16_2 O 0.1623(6) 0.8540(8) 0.1811(14)
O17_2 O 0.1628(6) 0.9213(7) 0.3559(14)
O18_2 O 0.2202(7) 0.8943(8) 0.5231(15)
O19_2 O 0.2392(6) 0.8838(9) 0.7340(18)
O20_2 O 0.2433(9) 0.7500 0.701(2)
O21_2 O 0.2158(9) 0.7500 0.504(2)
O22_2 O 0.3011(5) 0.8928(7) 0.4026(13)
N1_2 N 0.1646(13) 0.9217(18) 0.894(3)
N3_2 N 0.0846(10) 0.9295(12) 0.8607(19)
C1_2 C 0.1297(10) 0.9013(15) 0.832(2)
H1_2 H 0.1344 0.8721 0.7774
C5_2 C 0.0368(11) 0.9186(16) 0.805(3)
C6_2 C 0.0939(11) 0.9645(15) 0.942(2)
H5_2 H 0.0704 0.9888 0.9793
C7_2 C 0.1419(13) 0.9604(15) 0.963(3)
C8_2 C 0.0295(14) 0.8602(19) 0.750(3)
H7_2 H 0.0550 0.8288 0.7437
B1_2 B 0.2363(13) 0.7500 0.396(3)
O25_2 O 0.2182(5) 0.6884(7) 0.3411(12)
W8_2 W 0.34513(4) 0.66719(4) 0.46933(8)
W9_2 W 0.23328(4) 0.66822(5) 0.62835(8)
W10_2 W 0.23365(4) 0.57766(5) 0.38591(9)
W11_2 W 0.13201(4) 0.65892(5) 0.31162(8)
W12_2 W 0.23355(4) 0.65955(5) 0.16603(9)
O26_2 O 0.2436(7) 0.5781(9) 0.2437(16)
O27_2 O 0.0740(6) 0.6286(9) 0.2826(13)
O28_2 O 0.1218(5) 0.6838(7) 0.4532(12)
O29_2 O 0.1625(6) 0.6845(8) 0.6400(12)
O30_2 O 0.3000(6) 0.6714(8) 0.5785(14)
O31_2 O 0.3885(6) 0.6131(7) 0.5168(13)
O32_2 O 0.3740(5) 0.6848(7) 0.3353(12)
O33_2 O 0.2994(6) 0.8145(9) 0.1967(13)
O34_2 O 0.1623(6) 0.6460(8) 0.1811(14)
O35_2 O 0.1628(6) 0.5787(7) 0.3559(14)
O36_2 O 0.2202(7) 0.6057(8) 0.5231(15)
O37_2 O 0.2392(6) 0.6162(9) 0.7340(18)
O38_2 O 0.3011(5) 0.6072(7) 0.4026(13)
N5_2 N 0.1646(13) 0.5783(18) 0.894(3)
N7_2 N 0.0846(10) 0.5705(12) 0.8607(19)
C13_2 C 0.1297(10) 0.5987(15) 0.832(2)
H11_2 H 0.1344 0.6279 0.7774
H14_2 H 0.0043 0.4932 0.8439
C17_2 C 0.0368(11) 0.5814(16) 0.805(3)
C18_2 C 0.0939(11) 0.5355(15) 0.942(2)
H15_2 H 0.0704 0.5112 0.9793
C19_2 C 0.1419(13) 0.5396(15) 0.963(3)
C20_2 C 0.0295(14) 0.6398(19) 0.750(3)
H17_2 H 0.0550 0.6712 0.7437
N9_2 N 0.3159(10) 0.6208(14) 0.885(2)
N10_2 N 0.3159(10) 0.8792(14) 0.885(2)
N2_2 N 0.8159(10) 0.8792(14) 0.615(2)
N4_2 N 0.9015(9) 0.8813(13) 0.656(2)
C2_2 C 0.8538(12) 0.9005(16) 0.682(3)
H2_2 H 0.8470 0.9260 0.7402
C3_2 C 0.8476(13) 0.8433(15) 0.538(3)
H3_2 H 0.8344 0.8225 0.4797
C4_2 C 0.9989(12) 0.966(2) 0.811(3)
C9_2 C 0.9849(17) 0.851(2) 0.708(4)
H8_2 H 0.9800 0.8109 0.6721
C10_2 C 0.8964(11) 0.8436(13) 0.560(2)
H9_2 H 0.9220 0.8239 0.5218
C11_2 C 0.9446(11) 0.8946(14) 0.713(2)
C12_2 C 0.9540(14) 0.9516(17) 0.767(3)
H10_2 H 0.9280 0.9822 0.7750
N6_2 N 0.8159(10) 0.6208(14) 0.615(2)
N8_2 N 0.9015(9) 0.6187(13) 0.656(2)
C14_2 C 0.8538(12) 0.5995(16) 0.682(3)
H12_2 H 0.8470 0.5740 0.7402
C15_2 C 0.8476(13) 0.6567(15) 0.538(3)
H13_2 H 0.8344 0.6775 0.4797
C16_2 C 0.9989(12) 0.534(2) 0.811(3)
C21_2 C 0.9849(17) 0.649(2) 0.708(4)
H18_2 H 0.9800 0.6891 0.6721
C22_2 C 0.8964(11) 0.6564(13) 0.560(2)
H19_2 H 0.9220 0.6761 0.5218
C23_2 C 0.9446(11) 0.6054(14) 0.713(2)
C24_2 C 0.9540(14) 0.5484(17) 0.767(3)
H20_2 H 0.9280 0.5178 0.7750
Ag5_2 Ag 0.74290(17) 0.6059(2) 0.6092(3)
Ag6_2 Ag 0.74290(17) 0.8941(2) 0.6092(3)
N4_3 N 0.0985(9) 0.3813(13) 0.344(2)
C2_3 C 0.1462(12) 0.4005(16) 0.318(3)
H2_3 H 0.1530 0.4260 0.2598
C3_3 C 0.1524(13) 0.3433(15) 0.462(3)
H3_3 H 0.1656 0.3225 0.5203
C4_3 C 0.0011(12) 0.466(2) 0.189(3)
C9_3 C 0.0151(17) 0.351(2) 0.292(4)
H8_3 H 0.0200 0.3109 0.3279
C10_3 C 0.1036(11) 0.3436(13) 0.440(2)
H9_3 H 0.0780 0.3239 0.4782
C11_3 C 0.0554(11) 0.3946(14) 0.287(2)
C12_3 C 0.0460(14) 0.4516(17) 0.233(3)
H10_3 H 0.0720 0.4822 0.2250
N8_3 N 0.0985(9) 0.1187(13) 0.344(2)
C14_3 C 0.1462(12) 0.0995(16) 0.318(3)
H12_3 H 0.1530 0.0740 0.2598
C15_3 C 0.1524(13) 0.1567(15) 0.462(3)
H13_3 H 0.1656 0.1775 0.5203
C16_3 C 0.0011(12) 0.034(2) 0.189(3)
C21_3 C 0.0151(17) 0.149(2) 0.292(4)
H18_3 H 0.0200 0.1891 0.3279
C22_3 C 0.1036(11) 0.1564(13) 0.440(2)
H19_3 H 0.0780 0.1761 0.4782
C23_3 C 0.0554(11) 0.1054(14) 0.287(2)
C24_3 C 0.0460(14) 0.0484(17) 0.233(3)
H20_3 H 0.0720 0.0178 0.2250
W1_3 W 0.65469(5) 0.2500 0.75235(12)
W2_3 W 0.65487(4) 0.33281(4) 0.53067(8)
W3_3 W 0.86799(5) 0.2500 0.44507(11)
W4_3 W 0.76672(4) 0.33178(5) 0.37165(8)
W5_3 W 0.76635(4) 0.42234(5) 0.61409(9)
W6_3 W 0.86799(4) 0.34108(5) 0.68838(8)
W7_3 W 0.76645(4) 0.34045(5) 0.83397(9)
O1_3 O 0.7075(7) 0.2500 0.6054(18)
O2_3 O 0.7818(5) 0.3116(7) 0.6589(12)
O3_3 O 0.7564(7) 0.4219(9) 0.7563(16)
O4_3 O 0.9260(6) 0.3714(9) 0.7174(13)
O5_3 O 0.8763(8) 0.2500 0.7244(17)
O6_3 O 0.8782(5) 0.3162(7) 0.5468(12)
O7_3 O 0.9273(9) 0.2500 0.3881(19)
O8_3 O 0.8375(6) 0.3155(8) 0.3600(12)
O9_3 O 0.7000(6) 0.3286(8) 0.4215(14)
O10_3 O 0.6115(6) 0.3869(7) 0.4832(13)
O11_3 O 0.6271(7) 0.2500 0.4924(17)
O12_3 O 0.6260(5) 0.3152(7) 0.6647(12)
O13_3 O 0.6109(10) 0.2500 0.846(2)
O14_3 O 0.7006(6) 0.1855(9) 0.8033(13)
O15_3 O 0.7797(9) 0.2500 0.8640(19)
O16_3 O 0.8377(6) 0.3540(8) 0.8189(14)
O17_3 O 0.8372(6) 0.4213(7) 0.6441(14)
O18_3 O 0.7798(7) 0.3943(8) 0.4769(15)
O19_3 O 0.7608(6) 0.3838(9) 0.2660(18)
O20_3 O 0.7567(9) 0.2500 0.299(2)
O21_3 O 0.7842(9) 0.2500 0.496(2)
O22_3 O 0.6989(5) 0.3928(7) 0.5974(13)
O23 O 0.7589(6) 0.3739(11) 0.9525(16)
N1_3 N 0.8354(13) 0.4217(18) 0.106(3)
N3_3 N 0.9154(10) 0.4295(12) 0.1393(19)
C1_3 C 0.8703(10) 0.4013(15) 0.168(2)
H1_3 H 0.8656 0.3721 0.2226
H4_2 H 0.9957 0.5068 0.1561
C5_3 C 0.9632(11) 0.4186(16) 0.195(3)
C6_3 C 0.9061(11) 0.4645(15) 0.058(2)
H5_3 H 0.9296 0.4888 0.0207
C7_3 C 0.8581(13) 0.4604(15) 0.037(3)
C8_3 C 0.9705(14) 0.3602(19) 0.250(3)
H7_3 H 0.9450 0.3288 0.2563
B1_3 B 0.7637(13) 0.2500 0.604(3)
O24_2 O 0.7599(6) 0.5079(9) 0.5952(15)
O25_3 O 0.7818(5) 0.1884(7) 0.6589(12)
W8_3 W 0.65487(4) 0.16719(4) 0.53067(8)
W9_3 W 0.76672(4) 0.16822(5) 0.37165(8)
W10_3 W 0.76635(4) 0.07766(5) 0.61409(9)
W11_3 W 0.86799(4) 0.15892(5) 0.68838(8)
W12_3 W 0.76645(4) 0.15955(5) 0.83397(9)
O26_3 O 0.7564(7) 0.0781(9) 0.7563(16)
O27_3 O 0.9260(6) 0.1286(9) 0.7174(13)
O28_3 O 0.8782(5) 0.1838(7) 0.5468(12)
O29_3 O 0.8375(6) 0.1845(8) 0.3600(12)
O30_3 O 0.7000(6) 0.1714(8) 0.4215(14)
O31_3 O 0.6115(6) 0.1131(7) 0.4832(13)
O32_3 O 0.6260(5) 0.1848(7) 0.6647(12)
O33_3 O 0.7006(6) 0.3145(9) 0.8033(13)
O34_3 O 0.8377(6) 0.1460(8) 0.8189(14)
O35_3 O 0.8372(6) 0.0787(7) 0.6441(14)
O36_3 O 0.7798(7) 0.1057(8) 0.4769(15)
O37_3 O 0.7608(6) 0.1162(9) 0.2660(18)
O38_3 O 0.6989(5) 0.1072(7) 0.5974(13)
O39 O 0.7589(6) 0.1261(11) 0.9525(16)
N5_3 N 0.8354(13) 0.0783(18) 0.106(3)
N7_3 N 0.9154(10) 0.0705(12) 0.1393(19)
C13_3 C 0.8703(10) 0.0987(15) 0.168(2)
H11_3 H 0.8656 0.1279 0.2226
C17_3 C 0.9632(11) 0.0814(16) 0.195(3)
C18_3 C 0.9061(11) 0.0355(15) 0.058(2)
H15_3 H 0.9296 0.0112 0.0207
C19_3 C 0.8581(13) 0.0396(15) 0.037(3)
C20_3 C 0.9705(14) 0.1398(19) 0.250(3)
H17_3 H 0.9450 0.1712 0.2563
O43_2 O 0.7401(6) 0.4921(9) 0.0952(15)
O44_2 O 0.7401(6) 0.0079(9) 0.0952(15)
H6_3 H 0.8424 0.4815 0.9813
H16_3 H 0.8424 0.0185 0.9813
H14_3 H 0.9957 0.9932 0.1561
O40_2 O 0.7599(6) 0.9921(9) 0.5952(15)
W1_4 W 0.84531(5) 0.7500 0.25235(12)
W2_4 W 0.84513(4) 0.66719(4) 0.03067(8)
W5_4 W 0.73365(4) 0.57766(5) 0.11409(9)
W6_4 W 0.63201(4) 0.65892(5) 0.18838(8)
W7_4 W 0.73355(4) 0.65955(5) 0.33397(9)
O1_4 O 0.7925(7) 0.7500 0.1054(18)
O2_4 O 0.7182(5) 0.6884(7) 0.1589(12)
O3_4 O 0.7436(7) 0.5781(9) 0.2563(16)
O4_4 O 0.5740(6) 0.6286(9) 0.2174(13)
O5_4 O 0.6237(8) 0.7500 0.2244(17)
O6_4 O 0.6218(5) 0.6838(7) 0.0468(12)
O12_4 O 0.8740(5) 0.6848(7) 0.1647(12)
O13_4 O 0.8891(10) 0.7500 0.346(2)
O14_4 O 0.7994(6) 0.8145(9) 0.3033(13)
O15_4 O 0.7203(9) 0.7500 0.3640(19)
O16_4 O 0.6623(6) 0.6460(8) 0.3189(14)
O17_4 O 0.6628(6) 0.5787(7) 0.1441(14)
O22_4 O 0.8011(5) 0.6072(7) 0.0974(13)
O23_2 O 0.7411(6) 0.6261(11) 0.4525(16)
H3_4 H 0.3344 0.6775 0.0203
B1_4 B 0.7363(13) 0.7500 0.104(3)
O25_4 O 0.7182(5) 0.8116(7) 0.1589(12)
W8_4 W 0.84513(4) 0.83281(4) 0.03067(8)
W10_4 W 0.73365(4) 0.92234(5) 0.11409(9)
W11_4 W 0.63201(4) 0.84108(5) 0.18838(8)
W12_4 W 0.73355(4) 0.84045(5) 0.33397(9)
O26_4 O 0.7436(7) 0.9219(9) 0.2563(16)
O27_4 O 0.5740(6) 0.8714(9) 0.2174(13)
O28_4 O 0.6218(5) 0.8162(7) 0.0468(12)
O32_4 O 0.8740(5) 0.8152(7) 0.1647(12)
O33_4 O 0.7994(6) 0.6855(9) 0.3033(13)
O34_4 O 0.6623(6) 0.8540(8) 0.3189(14)
O35_4 O 0.6628(6) 0.9213(7) 0.1441(14)
O38_4 O 0.8011(5) 0.8928(7) 0.0974(13)
O39_2 O 0.7411(6) 0.8739(11) 0.4525(16)
H13_4 H 0.3344 0.8225 0.0203
W3_4 W 0.63201(5) 0.7500 0.94507(11)
W4_4 W 0.73328(4) 0.66822(5) 0.87165(8)
O7_4 O 0.5727(9) 0.7500 0.8881(19)
O8_4 O 0.6625(6) 0.6845(8) 0.8600(12)
O9_4 O 0.8000(6) 0.6714(8) 0.9215(14)
O10_4 O 0.8885(6) 0.6131(7) 0.9832(13)
O11_4 O 0.8729(7) 0.7500 0.9924(17)
O18_4 O 0.7202(7) 0.6057(8) 0.9769(15)
O19_4 O 0.7392(6) 0.6162(9) 0.7660(18)
O20_4 O 0.7433(9) 0.7500 0.799(2)
O21_4 O 0.7158(9) 0.7500 0.996(2)
N1_4 N 0.6646(13) 0.5783(18) 0.606(3)
N3_4 N 0.5846(10) 0.5705(12) 0.6393(19)
N4_4 N 0.4015(9) 0.6187(13) 0.844(2)
C1_4 C 0.6297(10) 0.5987(15) 0.668(2)
H1_4 H 0.6344 0.6279 0.7226
C2_4 C 0.3538(12) 0.5995(16) 0.818(3)
H2_4 H 0.3470 0.5740 0.7598
C3_4 C 0.3476(13) 0.6567(15) 0.962(3)
C4_4 C 0.4989(12) 0.534(2) 0.689(3)
H4_3 H 0.5043 0.4932 0.6561
C5_4 C 0.5368(11) 0.5814(16) 0.695(3)
C6_4 C 0.5939(11) 0.5355(15) 0.558(2)
H5_4 H 0.5704 0.5112 0.5207
C7_4 C 0.6419(13) 0.5396(15) 0.537(3)
H6_4 H 0.6576 0.5185 0.4813
C8_4 C 0.5295(14) 0.6398(19) 0.750(3)
H7_4 H 0.5550 0.6712 0.7563
C9_4 C 0.4849(17) 0.649(2) 0.792(4)
H8_4 H 0.4800 0.6891 0.8279
C10_4 C 0.3964(11) 0.6564(13) 0.940(2)
H9_4 H 0.4220 0.6761 0.9782
C11_4 C 0.4446(11) 0.6054(14) 0.787(2)
C12_4 C 0.4540(14) 0.5484(17) 0.733(3)
H10_4 H 0.4280 0.5178 0.7250
W9_4 W 0.73328(4) 0.83178(5) 0.87165(8)
O29_4 O 0.6625(6) 0.8155(8) 0.8600(12)
O30_4 O 0.8000(6) 0.8286(8) 0.9215(14)
O31_4 O 0.8885(6) 0.8869(7) 0.9832(13)
O36_4 O 0.7202(7) 0.8943(8) 0.9769(15)
O37_4 O 0.7392(6) 0.8838(9) 0.7660(18)
N5_4 N 0.6646(13) 0.9217(18) 0.606(3)
N7_4 N 0.5846(10) 0.9295(12) 0.6393(19)
N8_4 N 0.4015(9) 0.8813(13) 0.844(2)
C13_4 C 0.6297(10) 0.9013(15) 0.668(2)
H11_4 H 0.6344 0.8721 0.7226
C14_4 C 0.3538(12) 0.9005(16) 0.818(3)
H12_4 H 0.3470 0.9260 0.7598
C15_4 C 0.3476(13) 0.8433(15) 0.962(3)
C16_4 C 0.4989(12) 0.966(2) 0.689(3)
C17_4 C 0.5368(11) 0.9186(16) 0.695(3)
C18_4 C 0.5939(11) 0.9645(15) 0.558(2)
H15_4 H 0.5704 0.9888 0.5207
C19_4 C 0.6419(13) 0.9604(15) 0.537(3)
H16_4 H 0.6576 0.9815 0.4813
C20_4 C 0.5295(14) 0.8602(19) 0.750(3)
H17_4 H 0.5550 0.8288 0.7563
C21_4 C 0.4849(17) 0.851(2) 0.792(4)
H18_4 H 0.4800 0.8109 0.8279
C22_4 C 0.3964(11) 0.8436(13) 0.940(2)
H19_4 H 0.4220 0.8239 0.9782
C23_4 C 0.4446(11) 0.8946(14) 0.787(2)
C24_4 C 0.4540(14) 0.9516(17) 0.733(3)
H20_4 H 0.4280 0.9822 0.7250
H4_4 H 0.4957 0.9932 0.3439
H14_4 H 0.5043 0.0068 0.6561
C25 C 0.4651(11) 0.0501(15) 0.001(2)
H21 H 0.4417 0.0845 0.0044
C28 C 0.3664(10) 0.0138(15) 0.088(2)
H23 H 0.3618 0.0449 0.0349
H25 H 0.2982 0.0077 0.1590
H32 H 0.419379 0.0177274 0.161996
C29 C 0.5080(12) 0.0583(17) 0.946(3)
H24 H 0.5133 0.0969 0.9076
N13 N 0.5903(7) 0.0184(10) 0.8893(17)
N14 N 0.6462(7) 0.0556(12) 0.7845(19)
C32 C 0.5439(8) 0.0081(11) 0.9472(19)
C33 C 0.5999(10) 0.0600(12) 0.8144(19)
H27 H 0.5765 0.0892 0.7859
C36 C 0.6688(10) 0.0072(13) 0.846(2)
H33 H 0.662765 0.082328 0.727239
N11 N 0.4097(7) 0.9816(10) 0.1107(17)
N12 N 0.3538(7) 0.9444(12) 0.2155(19)
C26 C 0.4561(8) 0.9919(11) 0.0528(19)
C27 C 0.4001(10) 0.9400(12) 0.1856(19)
H22 H 0.4235 0.9108 0.2141
C30 C 0.3312(10) 0.9928(13) 0.154(2)
C35 C 0.4920(12) 0.9417(17) 0.054(3)
H29 H 0.4867 0.9031 0.0924
H31 H 0.337235 0.917672 0.272761
C31 C 0.5349(11) 0.9499(15) 0.999(2)
H26 H 0.5583 0.9155 0.9956
C34 C 0.6336(10) 0.9862(15) 0.912(2)
H28 H 0.6382 0.9551 0.9651
H30 H 0.7018 0.9923 0.8410
H32_2 H 0.580621 0.982273 0.838004
N11_2 N 0.0903(7) 0.0184(10) 0.6107(17)
N12_2 N 0.1462(7) 0.0556(12) 0.7155(19)
C26_2 C 0.0439(8) 0.0081(11) 0.5528(19)
C27_2 C 0.0999(10) 0.0600(12) 0.6856(19)
H22_2 H 0.0765 0.0892 0.7141
C30_2 C 0.1688(10) 0.0072(13) 0.654(2)
C35_2 C 0.0080(12) 0.0583(17) 0.554(3)
H29_2 H 0.0133 0.0969 0.5924
H31_2 H 0.162765 0.082328 0.772761
C25_2 C 0.0349(11) 0.9499(15) 0.501(2)
H21_2 H 0.0583 0.9155 0.5044
C28_2 C 0.1336(10) 0.9862(15) 0.588(2)
H23_2 H 0.1382 0.9551 0.5349
H25_2 H 0.2018 0.9923 0.6590
H32_3 H 0.0806206 0.982273 0.661996
C31_2 C 0.9651(11) 0.0501(15) 0.499(2)
H26_2 H 0.9417 0.0845 0.4956
C34_2 C 0.8664(10) 0.0138(15) 0.412(2)
H28_2 H 0.8618 0.0449 0.4651
H30_2 H 0.7982 0.0077 0.3410
H32_4 H 0.919379 0.0177274 0.338004
C29_2 C 0.9920(12) 0.9417(17) 0.446(3)
H24_2 H 0.9867 0.9031 0.4076
N13_2 N 0.9097(7) 0.9816(10) 0.3893(17)
N14_2 N 0.8538(7) 0.9444(12) 0.2845(19)
C32_2 C 0.9561(8) 0.9919(11) 0.4472(19)
C33_2 C 0.9001(10) 0.9400(12) 0.3144(19)
H27_2 H 0.9235 0.9108 0.2859
C36_2 C 0.8312(10) 0.9928(13) 0.346(2)
H33_2 H 0.837235 0.917672 0.227239
C29_3 C 0.0080(12) 0.4417(17) 0.554(3)
H24_3 H 0.0133 0.4031 0.5924
N13_3 N 0.0903(7) 0.4816(10) 0.6107(17)
N14_3 N 0.1462(7) 0.4444(12) 0.7155(19)
C31_3 C 0.0349(11) 0.5501(15) 0.501(2)
H26_3 H 0.0583 0.5845 0.5044
C32_3 C 0.0439(8) 0.4919(11) 0.5528(19)
C33_3 C 0.0999(10) 0.4400(12) 0.6856(19)
H27_3 H 0.0765 0.4108 0.7141
C34_3 C 0.1336(10) 0.5138(15) 0.588(2)
H28_3 H 0.1382 0.5449 0.5349
C36_3 C 0.1688(10) 0.4928(13) 0.654(2)
H30_3 H 0.2018 0.5077 0.6590
H32_5 H 0.0806206 0.517727 0.661996
H33_3 H 0.162765 0.417672 0.772761
N11_3 N 0.9097(7) 0.5184(10) 0.3893(17)
N12_3 N 0.8538(7) 0.5556(12) 0.2845(19)
C25_3 C 0.9651(11) 0.4499(15) 0.499(2)
H21_3 H 0.9417 0.4155 0.4956
C26_3 C 0.9561(8) 0.5081(11) 0.4472(19)
C27_3 C 0.9001(10) 0.5600(12) 0.3144(19)
H22_3 H 0.9235 0.5892 0.2859
C28_3 C 0.8664(10) 0.4862(15) 0.412(2)
H23_3 H 0.8618 0.4551 0.4651
C30_3 C 0.8312(10) 0.5072(13) 0.346(2)
H25_3 H 0.7982 0.4923 0.3410
C35_3 C 0.9920(12) 0.5583(17) 0.446(3)
H29_3 H 0.9867 0.5969 0.4076
H31_3 H 0.837235 0.582328 0.227239
H32_6 H 0.919379 0.482273 0.338004
C29_4 C 0.4920(12) 0.5583(17) 0.054(3)
H24_4 H 0.4867 0.5969 0.0924
N13_4 N 0.4097(7) 0.5184(10) 0.1107(17)
N14_4 N 0.3538(7) 0.5556(12) 0.2155(19)
C31_4 C 0.4651(11) 0.4499(15) 0.001(2)
H26_4 H 0.4417 0.4155 0.0044
C32_4 C 0.4561(8) 0.5081(11) 0.0528(19)
C33_4 C 0.4001(10) 0.5600(12) 0.1856(19)
H27_4 H 0.4235 0.5892 0.2141
C34_4 C 0.3664(10) 0.4862(15) 0.088(2)
H28_4 H 0.3618 0.4551 0.0349
C36_4 C 0.3312(10) 0.5072(13) 0.154(2)
H30_4 H 0.2982 0.4923 0.1590
H32_7 H 0.419379 0.482273 0.161996
H33_4 H 0.337235 0.582328 0.272761
N11_4 N 0.5903(7) 0.4816(10) 0.8893(17)
N12_4 N 0.6462(7) 0.4444(12) 0.7845(19)
C25_4 C 0.5349(11) 0.5501(15) 0.999(2)
H21_4 H 0.5583 0.5845 0.9956
C26_4 C 0.5439(8) 0.4919(11) 0.9472(19)
C27_4 C 0.5999(10) 0.4400(12) 0.8144(19)
H22_4 H 0.5765 0.4108 0.7859
C28_4 C 0.6336(10) 0.5138(15) 0.912(2)
H23_4 H 0.6382 0.5449 0.9651
C30_4 C 0.6688(10) 0.4928(13) 0.846(2)
H25_4 H 0.7018 0.5077 0.8410
C35_4 C 0.5080(12) 0.4417(17) 0.946(3)
H29_4 H 0.5133 0.4031 0.9076
H31_4 H 0.662765 0.417672 0.727239
H32_8 H 0.580621 0.517727 0.838004
loop_
_geom_bond_atom_site_label_1
_geom_bond_atom_site_label_2
_geom_bond_site_symmetry_1
_geom_bond_site_symmetry_2
W4 O8 1_555 1_555
Ag1 O19 1_555 1_555
O7 W3 1_555 1_555
O8 W3 1_555 1_555
O18 W4 1_555 1_555
O19 W4 1_555 1_555
O20 W4 1_555 1_555
O21 W3 1_555 1_555
N1 Ag1 1_555 1_555
N2 C2 1_555 1_555
N3 C1 1_555 1_555
N4 C2 1_555 1_555
C1 N1 1_555 1_555
H1 C1 1_555 1_555
C2 H2 1_555 1_555
C3 N2 1_555 1_555
C5 N3 1_555 1_555
C6 N3 1_555 1_555
H5 C6 1_555 1_555
C7 N1 1_555 1_555
H6 C7 1_555 1_555
C8 C5 1_555 1_555
H7 C8 1_555 1_555
C9 C8 1_555 1_555
H8 C9 1_555 1_555
C10 N4 1_555 1_555
H9 C10 1_555 1_555
C11 N4 1_555 1_555
C12 C4 1_555 1_555
H10 C12 1_555 1_555
W9 O20 1_555 1_555
Ag2 O37 1_555 1_555
O29 W3 1_555 1_555
O36 W9 1_555 1_555
O37 W9 1_555 1_555
N5 Ag2 1_555 1_555
N6 C14 1_555 1_555
N7 C13 1_555 1_555
N8 C14 1_555 1_555
C13 N5 1_555 1_555
H11 C13 1_555 1_555
C14 H12 1_555 1_555
C15 N6 1_555 1_555
C16 H14 1_555 1_555
C17 N7 1_555 1_555
C18 N7 1_555 1_555
H15 C18 1_555 1_555
C19 N5 1_555 1_555
H16 C19 1_555 1_555
C20 C17 1_555 1_555
H17 C20 1_555 1_555
C21 C20 1_555 1_555
H18 C21 1_555 1_555
C22 N8 1_555 1_555
H19 C22 1_555 1_555
C23 N8 1_555 1_555
C24 C16 1_555 1_555
H20 C24 1_555 1_555
Ag5 N6 1_555 1_555
Ag6 N2 1_555 1_555
O41 Ag1 1_555 1_555
O42 Ag2 1_555 1_555
N9 Ag2 1_555 1_555
N10 Ag1 1_555 1_555
O43 Ag1 1_555 1_555
O44 Ag2 1_555 1_555
W4 O9 1_555 1_555
W4 O21 1_555 1_555
O21 W9 1_555 1_555
C3 C10 1_555 1_555
C4 C5 1_555 1_555
C6 C7 1_555 1_555
C9 C11 1_555 1_555
C11 C12 1_555 1_555
W9 O29 1_555 1_555
W9 O30 1_555 1_555
C15 C22 1_555 1_555
C16 C17 1_555 1_555
C18 C19 1_555 1_555
C21 C23 1_555 1_555
C23 C24 1_555 1_555
W1 O1 1_555 1_555
W2 O1 1_555 1_555
W5 O2 1_555 1_555
W6 O2 1_555 1_555
W7 O2 1_555 1_555
O1 B1 1_555 1_555
O2 B1 1_555 1_555
O3 W5 1_555 1_555
O4 W6 1_555 1_555
O5 W6 1_555 1_555
O6 W6 1_555 1_555
O12 W1 1_555 1_555
O13 W1 1_555 1_555
O14 W1 1_555 1_555
O15 W7 1_555 1_555
O16 W6 1_555 1_555
O17 W5 1_555 1_555
O22 W2 1_555 1_555
O41 W7 1_555 1_555
O25 B1 1_555 1_555
W8 O1 1_555 1_555
W10 O25 1_555 1_555
W11 O5 1_555 1_555
W12 O14 1_555 1_555
O26 W10 1_555 1_555
O27 W11 1_555 1_555
O32 W1 1_555 1_555
O33 W1 1_555 1_555
O34 W11 1_555 1_555
O35 W10 1_555 1_555
O38 W8 1_555 1_555
O42 W12 1_555 1_555
O40 W10 1_555 1_555
Ag7 O40 1_555 1_555
W2 O12 1_555 1_555
W5 O22 1_555 1_555
W6 O17 1_555 1_555
W7 O3 1_555 1_555
W7 O16 1_555 1_555
W7 O33 1_555 1_555
O15 W12 1_555 1_555
O25 W11 1_555 1_555
O25 W12 1_555 1_555
W8 O32 1_555 1_555
W10 O38 1_555 1_555
W11 O28 1_555 1_555
W11 O35 1_555 1_555
W12 O26 1_555 1_555
W12 O34 1_555 1_555
Ag4 O24 1_555 1_555
W1_2 O1_2 1_555 1_555
W2_2 O1_2 1_555 1_555
W3_2 O6_2 1_555 1_555
W4_2 O8_2 1_555 1_555
W5_2 O2_2 1_555 1_555
W6_2 O2_2 1_555 1_555
W7_2 O2_2 1_555 1_555
Ag4 O19_2 1_555 1_555
O1_2 B1_2 1_555 1_555
O2_2 B1_2 1_555 1_555
O3_2 W5_2 1_555 1_555
O4_2 W6_2 1_555 1_555
O5_2 W6_2 1_555 1_555
O6_2 W6_2 1_555 1_555
O7_2 W3_2 1_555 1_555
O8_2 W3_2 1_555 1_555
O9_2 W2_2 1_555 1_555
O10_2 W2_2 1_555 1_555
O11_2 W2_2 1_555 1_555
O12_2 W1_2 1_555 1_555
O13_2 W1_2 1_555 1_555
O14_2 W1_2 1_555 1_555
O15_2 W7_2 1_555 1_555
O16_2 W6_2 1_555 1_555
O17_2 W5_2 1_555 1_555
O18_2 W4_2 1_555 1_555
O19_2 W4_2 1_555 1_555
O20_2 W4_2 1_555 1_555
O21_2 W3_2 1_555 1_555
O22_2 W2_2 1_555 1_555
O41_2 W7_2 1_555 1_555
N1_2 Ag4 1_555 1_555
N3_2 C1_2 1_555 1_555
C1_2 N1_2 1_555 1_555
H1_2 C1_2 1_555 1_555
C5_2 N3_2 1_555 1_555
C6_2 N3_2 1_555 1_555
H5_2 C6_2 1_555 1_555
C7_2 N1_2 1_555 1_555
C8_2 C5_2 1_555 1_555
H7_2 C8_2 1_555 1_555
B1_2 O21_2 1_555 1_555
O25_2 B1_2 1_555 1_555
W8_2 O1_2 1_555 1_555
W9_2 O20_2 1_555 1_555
W10_2 O25_2 1_555 1_555
W11_2 O5_2 1_555 1_555
W12_2 O14_2 1_555 1_555
Ag7 O37_2 1_555 1_555
O26_2 W10_2 1_555 1_555
O27_2 W11_2 1_555 1_555
O28_2 W3_2 1_555 1_555
O29_2 W3_2 1_555 1_555
O30_2 W8_2 1_555 1_555
O31_2 W8_2 1_555 1_555
O32_2 W1_2 1_555 1_555
O33_2 W1_2 1_555 1_555
O34_2 W11_2 1_555 1_555
O35_2 W10_2 1_555 1_555
O36_2 W9_2 1_555 1_555
O37_2 W9_2 1_555 1_555
O38_2 W8_2 1_555 1_555
O42_2 W12_2 1_555 1_555
N5_2 Ag7 1_555 1_555
N7_2 C13_2 1_555 1_555
C13_2 N5_2 1_555 1_555
H11_2 C13_2 1_555 1_555
C17_2 N7_2 1_555 1_555
C18_2 N7_2 1_555 1_555
H15_2 C18_2 1_555 1_555
C19_2 N5_2 1_555 1_555
C20_2 C17_2 1_555 1_555
H17_2 C20_2 1_555 1_555
O44 W10_2 1_555 1_555
N9_2 Ag7 1_555 1_555
N10_2 Ag4 1_555 1_555
W2_2 O12_2 1_555 1_555
W4_2 O9_2 1_555 1_555
W4_2 O21_2 1_555 1_555
W5_2 O18_2 1_555 1_555
W5_2 O22_2 1_555 1_555
W6_2 O17_2 1_555 1_555
W7_2 O3_2 1_555 1_555
W7_2 O16_2 1_555 1_555
W7_2 O33_2 1_555 1_555
O11_2 W8_2 1_555 1_555
O15_2 W12_2 1_555 1_555
O21_2 W9_2 1_555 1_555
C6_2 C7_2 1_555 1_555
O25_2 W11_2 1_555 1_555
O25_2 W12_2 1_555 1_555
W8_2 O32_2 1_555 1_555
W9_2 O29_2 1_555 1_555
W9_2 O30_2 1_555 1_555
W10_2 O36_2 1_555 1_555
W10_2 O38_2 1_555 1_555
W11_2 O28_2 1_555 1_555
W11_2 O35_2 1_555 1_555
W12_2 O26_2 1_555 1_555
W12_2 O34_2 1_555 1_555
C18_2 C19_2 1_555 1_555
N2_2 C2_2 1_555 1_555
N4_2 C2_2 1_555 1_555
C2_2 H2_2 1_555 1_555
C3_2 N2_2 1_555 1_555
H3_2 C3_2 1_555 1_555
H8_2 C9_2 1_555 1_555
C10_2 N4_2 1_555 1_555
H9_2 C10_2 1_555 1_555
C11_2 N4_2 1_555 1_555
C12_2 C4_2 1_555 1_555
H10_2 C12_2 1_555 1_555
N6_2 C14_2 1_555 1_555
N8_2 C14_2 1_555 1_555
C14_2 H12_2 1_555 1_555
C15_2 N6_2 1_555 1_555
H13_2 C15_2 1_555 1_555
H18_2 C21_2 1_555 1_555
C22_2 N8_2 1_555 1_555
H19_2 C22_2 1_555 1_555
C23_2 N8_2 1_555 1_555
C24_2 C16_2 1_555 1_555
H20_2 C24_2 1_555 1_555
Ag5_2 N6_2 1_555 1_555
Ag6_2 N2_2 1_555 1_555
C3_2 C10_2 1_555 1_555
C9_2 C11_2 1_555 1_555
C11_2 C12_2 1_555 1_555
C15_2 C22_2 1_555 1_555
C21_2 C23_2 1_555 1_555
C23_2 C24_2 1_555 1_555
N9 C2_3 1_555 1_555
N4_3 C2_3 1_555 1_555
C2_3 H2_3 1_555 1_555
C3_3 N9 1_555 1_555
H3_3 C3_3 1_555 1_555
H8_3 C9_3 1_555 1_555
C10_3 N4_3 1_555 1_555
H9_3 C10_3 1_555 1_555
C11_3 N4_3 1_555 1_555
C12_3 C4_3 1_555 1_555
H10_3 C12_3 1_555 1_555
N10 C14_3 1_555 1_555
N8_3 C14_3 1_555 1_555
C14_3 H12_3 1_555 1_555
C15_3 N10 1_555 1_555
H13_3 C15_3 1_555 1_555
H18_3 C21_3 1_555 1_555
C22_3 N8_3 1_555 1_555
H19_3 C22_3 1_555 1_555
C23_3 N8_3 1_555 1_555
C24_3 C16_3 1_555 1_555
H20_3 C24_3 1_555 1_555
C3_3 C10_3 1_555 1_555
C9_3 C11_3 1_555 1_555
C11_3 C12_3 1_555 1_555
C15_3 C22_3 1_555 1_555
C21_3 C23_3 1_555 1_555
C23_3 C24_3 1_555 1_555
W1_3 O1_3 1_555 1_555
W2_3 O1_3 1_555 1_555
W3_3 O6_3 1_555 1_555
W4_3 O8_3 1_555 1_555
W5_3 O2_3 1_555 1_555
W6_3 O2_3 1_555 1_555
W7_3 O2_3 1_555 1_555
Ag5 O19_3 1_555 1_555
O1_3 B1_3 1_555 1_555
O2_3 B1_3 1_555 1_555
O3_3 W5_3 1_555 1_555
O4_3 W6_3 1_555 1_555
O5_3 W6_3 1_555 1_555
O6_3 W6_3 1_555 1_555
O7_3 W3_3 1_555 1_555
O8_3 W3_3 1_555 1_555
O9_3 W2_3 1_555 1_555
O10_3 W2_3 1_555 1_555
O11_3 W2_3 1_555 1_555
O12_3 W1_3 1_555 1_555
O13_3 W1_3 1_555 1_555
O14_3 W1_3 1_555 1_555
O15_3 W7_3 1_555 1_555
O16_3 W6_3 1_555 1_555
O17_3 W5_3 1_555 1_555
O18_3 W4_3 1_555 1_555
O19_3 W4_3 1_555 1_555
O20_3 W4_3 1_555 1_555
O21_3 W3_3 1_555 1_555
O22_3 W2_3 1_555 1_555
O23 W7_3 1_555 1_555
N1_3 Ag5 1_555 1_555
N3_3 C1_3 1_555 1_555
C1_3 N1_3 1_555 1_555
H1_3 C1_3 1_555 1_555
C5_3 N3_3 1_555 1_555
C6_3 N3_3 1_555 1_555
H5_3 C6_3 1_555 1_555
C7_3 N1_3 1_555 1_555
C8_3 C5_3 1_555 1_555
H7_3 C8_3 1_555 1_555
B1_3 O21_3 1_555 1_555
O24_2 W5_3 1_555 1_555
O25_3 B1_3 1_555 1_555
W8_3 O1_3 1_555 1_555
W9_3 O20_3 1_555 1_555
W10_3 O25_3 1_555 1_555
W11_3 O5_3 1_555 1_555
W12_3 O14_3 1_555 1_555
Ag6 O37_3 1_555 1_555
O26_3 W10_3 1_555 1_555
O27_3 W11_3 1_555 1_555
O28_3 W3_3 1_555 1_555
O29_3 W3_3 1_555 1_555
O30_3 W8_3 1_555 1_555
O31_3 W8_3 1_555 1_555
O32_3 W1_3 1_555 1_555
O33_3 W1_3 1_555 1_555
O34_3 W11_3 1_555 1_555
O35_3 W10_3 1_555 1_555
O36_3 W9_3 1_555 1_555
O37_3 W9_3 1_555 1_555
O38_3 W8_3 1_555 1_555
O39 W12_3 1_555 1_555
N5_3 Ag6 1_555 1_555
N7_3 C13_3 1_555 1_555
C13_3 N5_3 1_555 1_555
H11_3 C13_3 1_555 1_555
C17_3 N7_3 1_555 1_555
C18_3 N7_3 1_555 1_555
H15_3 C18_3 1_555 1_555
C19_3 N5_3 1_555 1_555
C20_3 C17_3 1_555 1_555
H17_3 C20_3 1_555 1_555
Ag5_2 O24_2 1_555 1_555
O43_2 Ag5 1_555 1_555
O44_2 Ag6 1_555 1_555
W2_3 O12_3 1_555 1_555
W4_3 O9_3 1_555 1_555
W4_3 O21_3 1_555 1_555
W5_3 O18_3 1_555 1_555
W5_3 O22_3 1_555 1_555
W6_3 O17_3 1_555 1_555
W7_3 O3_3 1_555 1_555
W7_3 O16_3 1_555 1_555
W7_3 O33_3 1_555 1_555
O11_3 W8_3 1_555 1_555
O15_3 W12_3 1_555 1_555
O21_3 W9_3 1_555 1_555
C6_3 C7_3 1_555 1_555
O25_3 W11_3 1_555 1_555
O25_3 W12_3 1_555 1_555
W8_3 O32_3 1_555 1_555
W9_3 O29_3 1_555 1_555
W9_3 O30_3 1_555 1_555
W10_3 O36_3 1_555 1_555
W10_3 O38_3 1_555 1_555
W11_3 O28_3 1_555 1_555
W11_3 O35_3 1_555 1_555
W12_3 O26_3 1_555 1_555
W12_3 O34_3 1_555 1_555
C18_3 C19_3 1_555 1_555
Ag6_2 O40_2 1_555 1_555
W1_4 O1_4 1_555 1_555
W2_4 O1_4 1_555 1_555
W5_4 O2_4 1_555 1_555
W6_4 O2_4 1_555 1_555
W7_4 O2_4 1_555 1_555
O1_4 B1_4 1_555 1_555
O2_4 B1_4 1_555 1_555
O3_4 W5_4 1_555 1_555
O4_4 W6_4 1_555 1_555
O5_4 W6_4 1_555 1_555
O6_4 W6_4 1_555 1_555
O12_4 W1_4 1_555 1_555
O13_4 W1_4 1_555 1_555
O14_4 W1_4 1_555 1_555
O15_4 W7_4 1_555 1_555
O16_4 W6_4 1_555 1_555
O17_4 W5_4 1_555 1_555
O22_4 W2_4 1_555 1_555
O23_2 W7_4 1_555 1_555
O43_2 W5_4 1_555 1_555
O25_4 B1_4 1_555 1_555
W8_4 O1_4 1_555 1_555
W10_4 O25_4 1_555 1_555
W11_4 O5_4 1_555 1_555
W12_4 O14_4 1_555 1_555
O26_4 W10_4 1_555 1_555
O27_4 W11_4 1_555 1_555
O32_4 W1_4 1_555 1_555
O33_4 W1_4 1_555 1_555
O34_4 W11_4 1_555 1_555
O35_4 W10_4 1_555 1_555
O38_4 W8_4 1_555 1_555
O39_2 W12_4 1_555 1_555
Ag5_2 O23_2 1_555 1_555
Ag6_2 O39_2 1_555 1_555
W2_4 O12_4 1_555 1_555
W5_4 O22_4 1_555 1_555
W6_4 O17_4 1_555 1_555
W7_4 O3_4 1_555 1_555
W7_4 O16_4 1_555 1_555
W7_4 O33_4 1_555 1_555
O15_4 W12_4 1_555 1_555
O25_4 W11_4 1_555 1_555
O25_4 W12_4 1_555 1_555
W8_4 O32_4 1_555 1_555
W10_4 O38_4 1_555 1_555
W11_4 O28_4 1_555 1_555
W11_4 O35_4 1_555 1_555
W12_4 O26_4 1_555 1_555
W12_4 O34_4 1_555 1_555
W4_4 O8_4 1_555 1_555
Ag5_2 O19_4 1_555 1_555
O7_4 W3_4 1_555 1_555
O8_4 W3_4 1_555 1_555
O18_4 W4_4 1_555 1_555
O19_4 W4_4 1_555 1_555
O20_4 W4_4 1_555 1_555
O21_4 W3_4 1_555 1_555
N1_4 Ag5_2 1_555 1_555
N9_2 C2_4 1_555 1_555
N3_4 C1_4 1_555 1_555
N4_4 C2_4 1_555 1_555
C1_4 N1_4 1_555 1_555
H1_4 C1_4 1_555 1_555
C2_4 H2_4 1_555 1_555
C3_4 N9_2 1_555 1_555
C4_4 H4_3 1_555 1_555
C5_4 N3_4 1_555 1_555
C6_4 N3_4 1_555 1_555
H5_4 C6_4 1_555 1_555
C7_4 N1_4 1_555 1_555
H6_4 C7_4 1_555 1_555
C8_4 C5_4 1_555 1_555
H7_4 C8_4 1_555 1_555
C9_4 C8_4 1_555 1_555
H8_4 C9_4 1_555 1_555
C10_4 N4_4 1_555 1_555
H9_4 C10_4 1_555 1_555
C11_4 N4_4 1_555 1_555
C12_4 C4_4 1_555 1_555
H10_4 C12_4 1_555 1_555
W9_4 O20_4 1_555 1_555
Ag6_2 O37_4 1_555 1_555
O29_4 W3_4 1_555 1_555
O36_4 W9_4 1_555 1_555
O37_4 W9_4 1_555 1_555
N5_4 Ag6_2 1_555 1_555
N10_2 C14_4 1_555 1_555
N7_4 C13_4 1_555 1_555
N8_4 C14_4 1_555 1_555
C13_4 N5_4 1_555 1_555
H11_4 C13_4 1_555 1_555
C14_4 H12_4 1_555 1_555
C15_4 N10_2 1_555 1_555
C17_4 N7_4 1_555 1_555
C18_4 N7_4 1_555 1_555
H15_4 C18_4 1_555 1_555
C19_4 N5_4 1_555 1_555
H16_4 C19_4 1_555 1_555
C20_4 C17_4 1_555 1_555
H17_4 C20_4 1_555 1_555
C21_4 C20_4 1_555 1_555
H18_4 C21_4 1_555 1_555
C22_4 N8_4 1_555 1_555
H19_4 C22_4 1_555 1_555
C23_4 N8_4 1_555 1_555
C24_4 C16_4 1_555 1_555
H20_4 C24_4 1_555 1_555
W4_4 O9_4 1_555 1_555
W4_4 O21_4 1_555 1_555
O21_4 W9_4 1_555 1_555
C3_4 C10_4 1_555 1_555
C4_4 C5_4 1_555 1_555
C6_4 C7_4 1_555 1_555
C9_4 C11_4 1_555 1_555
C11_4 C12_4 1_555 1_555
W9_4 O29_4 1_555 1_555
W9_4 O30_4 1_555 1_555
C15_4 C22_4 1_555 1_555
C16_4 C17_4 1_555 1_555
C18_4 C19_4 1_555 1_555
C21_4 C23_4 1_555 1_555
C23_4 C24_4 1_555 1_555
C25 H21 1_555 1_555
H23 C28 1_555 1_555
H24 C29 1_555 1_555
N13 C32 1_555 1_555
N14 C33 1_555 1_555
C32 C29 1_555 1_555
C33 N13 1_555 1_555
H27 C33 1_555 1_555
C36 N14 1_555 1_555
N14 H33 1_555 1_555
N11 C26 1_555 1_555
N12 C27 1_555 1_555
C27 N11 1_555 1_555
H22 C27 1_555 1_555
C30 N12 1_555 1_555
C35 C26 1_555 1_555
H29 C35 1_555 1_555
N12 H31 1_555 1_555
C31 H26 1_555 1_555
H28 C34 1_555 1_555
N11_2 C26_2 1_555 1_555
N12_2 C27_2 1_555 1_555
C27_2 N11_2 1_555 1_555
H22_2 C27_2 1_555 1_555
C30_2 N12_2 1_555 1_555
C35_2 C26_2 1_555 1_555
H29_2 C35_2 1_555 1_555
N12_2 H31_2 1_555 1_555
C25_2 H21_2 1_555 1_555
H23_2 C28_2 1_555 1_555
C31_2 H26_2 1_555 1_555
H28_2 C34_2 1_555 1_555
H24_2 C29_2 1_555 1_555
N13_2 C32_2 1_555 1_555
N14_2 C33_2 1_555 1_555
C32_2 C29_2 1_555 1_555
C33_2 N13_2 1_555 1_555
H27_2 C33_2 1_555 1_555
C36_2 N14_2 1_555 1_555
N14_2 H33_2 1_555 1_555
H24_3 C29_3 1_555 1_555
N13_3 C32_3 1_555 1_555
N14_3 C33_3 1_555 1_555
C31_3 H26_3 1_555 1_555
C32_3 C29_3 1_555 1_555
C33_3 N13_3 1_555 1_555
H27_3 C33_3 1_555 1_555
C34_3 N13_3 1_555 1_555
H28_3 C34_3 1_555 1_555
C36_3 N14_3 1_555 1_555
H30_3 C36_3 1_555 1_555
C31_3 C32_3 1_555 1_555
C34_3 C36_3 1_555 1_555
N13_3 H32_5 1_555 1_555
N14_3 H33_3 1_555 1_555
N11_3 C26_3 1_555 1_555
N12_3 C27_3 1_555 1_555
C25_3 H21_3 1_555 1_555
C26_3 C25_3 1_555 1_555
C27_3 N11_3 1_555 1_555
H22_3 C27_3 1_555 1_555
C28_3 N11_3 1_555 1_555
H23_3 C28_3 1_555 1_555
C30_3 N12_3 1_555 1_555
H25_3 C30_3 1_555 1_555
C35_3 C26_3 1_555 1_555
H29_3 C35_3 1_555 1_555
C28_3 C30_3 1_555 1_555
N12_3 H31_3 1_555 1_555
N11_3 H32_6 1_555 1_555
H24_4 C29_4 1_555 1_555
N13_4 C32_4 1_555 1_555
N14_4 C33_4 1_555 1_555
C31_4 H26_4 1_555 1_555
C32_4 C29_4 1_555 1_555
C33_4 N13_4 1_555 1_555
H27_4 C33_4 1_555 1_555
C34_4 N13_4 1_555 1_555
H28_4 C34_4 1_555 1_555
C36_4 N14_4 1_555 1_555
H30_4 C36_4 1_555 1_555
C31_4 C32_4 1_555 1_555
C34_4 C36_4 1_555 1_555
N13_4 H32_7 1_555 1_555
N14_4 H33_4 1_555 1_555
N11_4 C26_4 1_555 1_555
N12_4 C27_4 1_555 1_555
C25_4 H21_4 1_555 1_555
C26_4 C25_4 1_555 1_555
C27_4 N11_4 1_555 1_555
H22_4 C27_4 1_555 1_555
C28_4 N11_4 1_555 1_555
H23_4 C28_4 1_555 1_555
C30_4 N12_4 1_555 1_555
H25_4 C30_4 1_555 1_555
C35_4 C26_4 1_555 1_555
H29_4 C35_4 1_555 1_555
C28_4 C30_4 1_555 1_555
N12_4 H31_4 1_555 1_555
N11_4 H32_8 1_555 1_555

#END
