
###############################################################################
#
# This file contains modified crystal structure data generated from the
# MOF subset of the Cambridge Structural Database (CSD) v543 
# hosted by the Cambridge Crystallographic Data Centre (CCDC).
#
# This work is licensed under the Creative Commons
# Attribution-NonCommercial-ShareAlike 4.0 International License.
# To view a copy of this license, visit
# http://creativecommons.org/licenses/by-nc-sa/4.0/
# or send a letter to
# Creative Commons, PO Box 1866, Mountain View, CA 94042, USA.
#
# CIF created using the CSD Python API on 29 September 2022
# The structure has been converted into the P1 space group
# The structure has a 3D framework
# The original CSD entry ORAGOF is in the monoclinic crystal system
# The original CSD entry ORAGOF is in a Sohncke space group
# The framework has been calculated to contain at least 10.0% void space
# The void calculation uses a probe of radius 1.32A, grid spacing 0.4
# The framework is charged, counterions have been retained in the structure
# H atom positions have been added when not included in the experimental data
#
###############################################################################

data_ORAGOF
_chemical_formula_moiety         '(C172 H106 Ho8 N12 O72 P12 2-)n'
_symmetry_cell_setting           triclinic
_symmetry_space_group_name_H-M   'P 1'
_symmetry_Int_Tables_number      1
_space_group_name_Hall           'P 1'
loop_
_symmetry_equiv_pos_site_id
_symmetry_equiv_pos_as_xyz
1 x,y,z
_cell_length_a                   15.8769(5)
_cell_length_b                   23.5103(8)
_cell_length_c                   23.1577(8)
_cell_angle_alpha                90
_cell_angle_beta                 101.226(2)
_cell_angle_gamma                90
_cell_volume                     8478.7
loop_
_atom_site_label
_atom_site_type_symbol
_atom_site_fract_x
_atom_site_fract_y
_atom_site_fract_z
H50 H 0.237068 0.0272969 0.354988
H51 H 0.191012 0.0211103 0.278852
C1 C 0.0168(7) 0.4163(5) 0.4953(5)
C2 C 0.0745(8) 0.3788(5) 0.5300(5)
H1 H 0.1257 0.3683 0.5173
C3 C 0.0589(6) 0.3578(5) 0.5805(5)
H2 H 0.0984 0.3320 0.6028
C8 C 0.1794(8) 0.5318(5) 0.6031(5)
C9 C 0.2531(10) 0.5024(6) 0.6059(8)
H5 H 0.2934 0.5141 0.5828
C10 C 0.2699(8) 0.4562(6) 0.6415(6)
H6 H 0.3210 0.4352 0.6415
C11 C 0.2150(6) 0.4389(4) 0.6777(4)
C12 C 0.1391(7) 0.4684(5) 0.6746(5)
H7 H 0.0996 0.4573 0.6985
C13 C 0.1206(7) 0.5145(5) 0.6363(5)
H8 H 0.0675 0.5341 0.6331
C14 C 0.2353(7) 0.3886(5) 0.7161(5)
C15 C 0.3121(7) 0.4658(5) 0.4467(5)
C16 C 0.3947(7) 0.4806(5) 0.4755(5)
H9 H 0.4227 0.5133 0.4642
C17 C 0.4347(8) 0.4460(6) 0.5214(6)
H10 H 0.4929 0.4533 0.5392
C18 C 0.3909(6) 0.4003(5) 0.5425(6)
C19 C 0.3092(7) 0.3866(5) 0.5107(5)
H11 H 0.2802 0.3545 0.5223
C20 C 0.2699(7) 0.4181(5) 0.4637(6)
H12 H 0.2145 0.4078 0.4426
C21 C 0.4299(6) 0.3703(4) 0.5953(4)
C22 C 0.2745(6) 0.6175(5) 0.3548(5)
C23 C 0.2720(6) 0.6478(4) 0.3050(5)
H13 H 0.2245 0.6437 0.2733
C24 C 0.3383(6) 0.6849(5) 0.2997(5)
H14 H 0.3368 0.7063 0.2647
C25 C 0.4072(6) 0.6899(4) 0.3474(4)
C26 C 0.4092(7) 0.6575(5) 0.3964(5)
H15 H 0.4579 0.6598 0.4274
C27 C 0.3432(7) 0.6214(5) 0.4027(5)
H16 H 0.3442 0.6003 0.4378
C28 C 0.4797(6) 0.7296(4) 0.3431(4)
C29 C 0.1427(7) 0.6846(5) 0.4557(5)
C30 C 0.0985(8) 0.6962(5) 0.4012(6)
H17 H 0.0434 0.6800 0.3878
C31 C 0.1355(7) 0.7330(5) 0.3638(5)
H18 H 0.1066 0.7402 0.3246
C32 C 0.2117(6) 0.7573(4) 0.3850(4)
C33 C 0.2554(9) 0.7472(6) 0.4422(6)
H19 H 0.3098 0.7642 0.4563
C34 C 0.2179(11) 0.7114(7) 0.4785(6)
H20 H 0.2446 0.7060 0.5186
C35 C 0.2546(6) 0.7952(4) 0.3463(5)
C43 C 0.5109(7) 0.5776(5) 0.0776(6)
C44 C 0.5598(7) 0.6243(6) 0.0641(6)
H25 H 0.5747 0.6268 0.0264
C45 C 0.5860(7) 0.6660(6) 0.1052(5)
H26 H 0.6201 0.6966 0.0960
C46 C 0.5629(7) 0.6638(5) 0.1599(5)
C47 C 0.5156(9) 0.6179(6) 0.1731(6)
H27 H 0.4998 0.6156 0.2105
C48 C 0.4912(9) 0.5755(6) 0.1320(6)
H28 H 0.4598 0.5439 0.1421
C49 C 0.5834(7) 0.7106(5) 0.2036(5)
C50 C 0.1980(6) 0.6136(5) 0.1440(5)
C51 C 0.2205(6) 0.6689(5) 0.1543(6)
H29 H 0.2751 0.6821 0.1491
C52 C 0.1622(7) 0.7067(5) 0.1728(6)
H30 H 0.1776 0.7455 0.1797
C53 C 0.0830(6) 0.6880(5) 0.1811(4)
C54 C 0.0644(9) 0.6296(6) 0.1727(7)
H31 H 0.0118 0.6155 0.1807
C55 C 0.1189(10) 0.5925(7) 0.1535(10)
H32 H 0.1040 0.5536 0.1468
C56 C 0.0235(6) 0.7265(4) 0.2010(4)
C57 C 0.2988(8) 0.7192(5) 0.0194(5)
C58 C 0.3717(7) 0.7253(5) 0.0584(5)
H33 H 0.4221 0.7061 0.0528
C59 C 0.3739(8) 0.7603(6) 0.1080(5)
H34 H 0.4241 0.7630 0.1379
C60 C 0.2986(6) 0.7916(5) 0.1120(4)
C61 C 0.2265(7) 0.7864(6) 0.0692(5)
H35 H 0.1769 0.8081 0.0717
C62 C 0.2251(8) 0.7493(6) 0.0219(6)
C63 C 0.2944(6) 0.8234(4) 0.1656(4)
C78 C 0.1353(6) 0.4703(5) 0.0201(5)
C79 C 0.1827(7) 0.4259(5) 0.0079(5)
H45 H 0.2402 0.4219 0.0285
H48 H 0.0156 0.5063 0.0083
C85 C 0.2723(7) 0.9524(5) 0.3139(5)
C86 C 0.2086(11) 0.9980(7) 0.3202(8)
Ho1 Ho 0.38981(2) 0.86371(2) 0.30106(2)
Ho3 Ho 0.10629(3) 0.30760(2) 0.78027(2)
Ho4 Ho 0.60987(3) 0.78760(2) 0.29972(2)
N2 N 0.3303(6) 0.5181(4) 0.0572(4)
N3 N 0.2150(7) 0.6001(5) 0.0111(5)
N4 N 0.1055(6) 0.5080(5) 0.3830(5)
N5 N 0.2097(7) 0.5675(4) 0.4678(4)
N6 N 0.0479(6) 0.5428(5) 0.4814(5)
O2 O 0.0303(5) 0.3217(3) 0.6865(3)
O3 O 0.2976(4) 0.3587(4) 0.7108(3)
O4 O 0.1885(5) 0.3788(3) 0.7544(3)
O5 O 0.3831(5) 0.3342(3) 0.6144(3)
O6 O 0.5054(5) 0.3830(4) 0.6186(4)
O7 O 0.0372(6) 0.4373(4) 0.4445(5)
O8 O 0.1619(6) 0.5816(3) 0.5685(3)
O9 O 0.2724(5) 0.4997(4) 0.4005(4)
O11 O 0.1082(6) 0.6476(4) 0.4942(4)
O12 O 0.2031(5) 0.5834(4) 0.3551(4)
O15 O 0.2230(5) 0.7975(3) 0.2913(3)
O16 O 0.3223(5) 0.8208(4) 0.3709(4)
O17 O 0.4611(4) 0.7757(3) 0.3112(3)
O18 O 0.5534(5) 0.7201(3) 0.3661(3)
O19 O 0.2224(4) 0.8465(3) 0.1704(3)
O20 O 0.3589(4) 0.8256(4) 0.2071(3)
O21 O 0.0483(5) 0.7764(3) 0.2205(4)
O23 O 0.5600(9) 0.7036(5) 0.2526(5)
O24 O 0.6233(5) 0.7556(3) 0.1977(3)
O25 O 0.4828(5) 0.5352(3) 0.0359(4)
O27 O 0.2579(5) 0.5783(4) 0.1251(4)
O30 O 0.1686(5) 0.5110(3) 0.0648(3)
O37 O 0.2503(4) 0.9123(3) 0.2738(3)
O38 O 0.3455(5) 0.9500(4) 0.3446(4)
O39 O 0.2336(5) 0.2829(4) 0.8463(4)
P1 P 0.38485(18) 0.53005(14) 0.00882(14)
P2 P 0.24604(18) 0.55293(13) 0.06140(14)
P4 P 0.19343(18) 0.53897(13) 0.40562(14)
P5 P 0.1318(2) 0.58184(13) 0.49970(15)
P6 P 0.0381(2) 0.50268(15) 0.42667(17)
Ho6 Ho 0.61019(2) 0.36371(2) 0.69894(2)
Ho8 Ho 0.12824(2) 0.85940(2) 0.23009(2)
Ho13 Ho 0.39013(3) 0.28760(2) 0.70028(2)
O40 O 0.7024(4) 0.8587(4) 0.2892(3)
O41 O 0.6169(5) 0.8342(3) 0.3856(3)
O42 O 0.4946(5) 0.8830(4) 0.3814(4)
O43 O 0.7301(5) 0.7358(4) 0.3304(4)
O44 O 0.1754(5) 0.2475(3) 0.7273(3)
O48 O 0.0545(4) 0.2129(3) 0.8031(3)
O49 O 0.5226(4) 0.8627(4) 0.2550(3)
O50 O 0.4391(5) 0.9373(4) 0.2452(4)
O52 O 0.0266(4) 0.3967(3) 0.7830(3)
O54 O 0.0790(5) 0.3200(3) 0.8725(4)
H49 H 0.151483 0.978692 0.331333
H52 H 0.280208 0.309517 0.841291
H53 H 0.223908 0.285325 0.887317
H36 H 0.1749 0.7449 0.9924
C64 C 0.4142(7) 0.4603(6) 0.9234(5)
C65 C 0.4756(10) 0.4915(7) 0.9041(6)
H37 H 0.4992 0.5245 0.9249
C66 C 0.5026(9) 0.4745(6) 0.8546(7)
H38 H 0.5458 0.4958 0.8409
C67 C 0.4685(7) 0.4270(5) 0.8238(5)
C68 C 0.4079(7) 0.3940(5) 0.8456(5)
H39 H 0.3871 0.3595 0.8267
C69 C 0.3795(8) 0.4120(7) 0.8941(7)
H40 H 0.3358 0.3914 0.9079
C70 C 0.5038(6) 0.4092(4) 0.7705(5)
C71 C 0.1663(8) 0.5758(5) 0.8783(6)
C72 C 0.1979(7) 0.5240(6) 0.8668(5)
H41 H 0.2579 0.5172 0.8776
C73 C 0.1444(8) 0.4807(5) 0.8396(6)
H42 H 0.1677 0.4447 0.8329
C74 C 0.0584(7) 0.4903(5) 0.8228(5)
C75 C 0.0267(8) 0.5438(5) 0.8348(7)
C76 C 0.0783(8) 0.5871(5) 0.8619(6)
H44 H 0.0551 0.6231 0.8690
C80 C 0.1490(7) 0.3870(5) 0.9665(5)
H46 H 0.1833 0.3572 0.9557
C81 C 0.0618(6) 0.3922(5) 0.9402(5)
C82 C 0.0145(8) 0.4358(5) 0.9552(6)
C83 C 0.0491(7) 0.4764(5) 0.9968(6)
C84 C 0.0266(6) 0.3524(5) 0.8916(5)
N1 N 0.3580(7) 0.5801(5) 0.9658(4)
O26 O 0.2980(7) 0.6833(4) 0.9695(4)
O28 O 0.3849(5) 0.4710(4) 0.9757(4)
O29 O 0.2148(6) 0.6208(4) 0.9039(4)
O31 O 0.4774(4) 0.3627(4) 0.7450(3)
O32 O 0.5609(5) 0.4373(4) 0.7548(4)
P3 P 0.2733(2) 0.61780(14) 0.96725(14)
C4 C 0.9843(6) 0.3736(4) 0.6005(5)
C5 C 0.9265(8) 0.4118(6) 0.5674(5)
H3 H 0.8763 0.4228 0.5811
C6 C 0.9418(7) 0.4334(5) 0.5156(5)
H4 H 0.9027 0.4595 0.4934
C7 C 0.9729(6) 0.3538(4) 0.6588(4)
C36 C 0.9090(7) 0.5616(6) 0.3707(6)
C37 C 0.9350(10) 0.5870(6) 0.3233(6)
H21 H 0.9756 0.5697 0.3036
C38 C 0.8980(8) 0.6396(5) 0.3061(6)
H22 H 0.9180 0.6598 0.2759
C39 C 0.8349(7) 0.6637(5) 0.3301(5)
C40 C 0.8080(9) 0.6362(6) 0.3754(7)
H23 H 0.7657 0.6528 0.3939
C41 C 0.8431(10) 0.5839(7) 0.3937(8)
H24 H 0.8211 0.5631 0.4228
C42 C 0.7943(7) 0.7203(5) 0.3102(5)
Ho2 Ho 0.87176(2) 0.35940(2) 0.76991(2)
O1 O 0.9060(5) 0.3695(3) 0.6772(3)
O10 O 0.9441(5) 0.5069(4) 0.3903(5)
O14 O 0.8246(5) 0.7475(3) 0.2727(3)
O22 O 0.9455(4) 0.7129(3) 0.1969(3)
Ho10 Ho 0.89371(3) 0.80760(2) 0.21973(2)
O45 O 0.7770(5) 0.2975(3) 0.7087(3)
O46 O 0.7776(4) 0.3465(3) 0.8296(3)
O47 O 0.9517(5) 0.2764(3) 0.7795(4)
O51 O 0.9180(5) 0.4546(3) 0.7879(4)
O53 O 0.9482(5) 0.3543(4) 0.8708(3)
O55 O 0.7497(4) 0.4123(3) 0.7262(3)
H43 H 0.9667 0.5505 0.8237
C77 C 0.9974(6) 0.4451(4) 0.7967(5)
H47 H 0.9558 0.4386 0.9368
C36_2 C 0.0910(7) 0.0616(6) 0.6293(6)
C37_2 C 0.0650(10) 0.0870(6) 0.6767(6)
H21_2 H 0.0244 0.0697 0.6964
C38_2 C 0.1020(8) 0.1396(5) 0.6939(6)
H22_2 H 0.0820 0.1598 0.7241
C39_2 C 0.1651(7) 0.1637(5) 0.6699(5)
C40_2 C 0.1920(9) 0.1362(6) 0.6246(7)
H23_2 H 0.2343 0.1528 0.6061
C41_2 C 0.1569(10) 0.0839(7) 0.6063(8)
H24_2 H 0.1789 0.0631 0.5772
C42_2 C 0.2057(7) 0.2203(5) 0.6898(5)
O10_2 O 0.0559(5) 0.0069(4) 0.6097(5)
O13 O 0.2699(5) 0.2358(4) 0.6696(4)
C77_2 C 0.0026(6) 0.9451(4) 0.2033(5)
H47_2 H 0.0442 0.9386 0.0632
O33 O 0.0820(5) 0.9546(3) 0.2121(4)
O35 O 0.0518(5) 0.8543(4) 0.1292(3)
C4_2 C 0.0157(6) 0.8736(4) 0.3995(5)
C5_2 C 0.0735(8) 0.9118(6) 0.4326(5)
H3_2 H 0.1237 0.9228 0.4189
C6_2 C 0.0582(7) 0.9334(5) 0.4844(5)
H4_2 H 0.0973 0.9595 0.5066
C7_2 C 0.0271(6) 0.8538(4) 0.3412(4)
O1_2 O 0.0940(5) 0.8695(3) 0.3228(3)
C8_2 C 0.8206(8) 0.0318(5) 0.3969(5)
C9_2 C 0.7469(10) 0.0024(6) 0.3941(8)
H5_2 H 0.7066 0.0141 0.4172
C13_2 C 0.8794(7) 0.0145(5) 0.3637(5)
H8_2 H 0.9325 0.0341 0.3669
H9_2 H 0.5773 0.0133 0.5358
C22_2 C 0.7255(6) 0.1175(5) 0.6452(5)
C23_2 C 0.7280(6) 0.1478(4) 0.6950(5)
H13_2 H 0.7755 0.1437 0.7267
C24_2 C 0.6617(6) 0.1849(5) 0.7003(5)
H14_2 H 0.6632 0.2063 0.7353
C25_2 C 0.5928(6) 0.1899(4) 0.6526(4)
C26_2 C 0.5908(7) 0.1575(5) 0.6036(5)
H15_2 H 0.5421 0.1598 0.5726
C27_2 C 0.6568(7) 0.1214(5) 0.5973(5)
H16_2 H 0.6558 0.1003 0.5622
C28_2 C 0.5203(6) 0.2296(4) 0.6569(4)
C29_2 C 0.8573(7) 0.1846(5) 0.5443(5)
C30_2 C 0.9015(8) 0.1962(5) 0.5988(6)
H17_2 H 0.9566 0.1800 0.6122
C31_2 C 0.8645(7) 0.2330(5) 0.6362(5)
H18_2 H 0.8934 0.2402 0.6754
C32_2 C 0.7883(6) 0.2573(4) 0.6150(4)
C33_2 C 0.7446(9) 0.2472(6) 0.5578(6)
H19_2 H 0.6902 0.2642 0.5437
C34_2 C 0.7821(11) 0.2114(7) 0.5215(6)
H20_2 H 0.7554 0.2060 0.4814
C35_2 C 0.7454(6) 0.2952(4) 0.6537(5)
C43_2 C 0.4891(7) 0.0776(5) 0.9224(6)
C44_2 C 0.4402(7) 0.1243(6) 0.9359(6)
H25_2 H 0.4253 0.1268 0.9736
C45_2 C 0.4140(7) 0.1660(6) 0.8948(5)
H26_2 H 0.3799 0.1966 0.9040
C46_2 C 0.4371(7) 0.1638(5) 0.8401(5)
C47_2 C 0.4844(9) 0.1179(6) 0.8269(6)
H27_2 H 0.5002 0.1156 0.7895
C48_2 C 0.5088(9) 0.0755(6) 0.8680(6)
H28_2 H 0.5402 0.0439 0.8579
C49_2 C 0.4166(7) 0.2106(5) 0.7964(5)
C50_2 C 0.8020(6) 0.1136(5) 0.8560(5)
C51_2 C 0.7795(6) 0.1689(5) 0.8457(6)
H29_2 H 0.7249 0.1821 0.8509
C52_2 C 0.8378(7) 0.2067(5) 0.8272(6)
H30_2 H 0.8224 0.2455 0.8203
C53_2 C 0.9170(6) 0.1880(5) 0.8189(4)
C54_2 C 0.9356(9) 0.1296(6) 0.8273(7)
H31_2 H 0.9882 0.1155 0.8193
C55_2 C 0.8811(10) 0.0925(7) 0.8465(10)
H32_2 H 0.8960 0.0536 0.8532
C56_2 C 0.9765(6) 0.2265(4) 0.7990(4)
C57_2 C 0.7012(8) 0.2192(5) 0.9806(5)
C58_2 C 0.6283(7) 0.2253(5) 0.9416(5)
H33_2 H 0.5779 0.2061 0.9472
C59_2 C 0.6261(8) 0.2603(6) 0.8920(5)
H34_2 H 0.5759 0.2630 0.8621
C60_2 C 0.7014(6) 0.2916(5) 0.8880(4)
C61_2 C 0.7735(7) 0.2864(6) 0.9308(5)
H35_2 H 0.8231 0.3081 0.9283
C62_2 C 0.7749(8) 0.2493(6) 0.9781(6)
C63_2 C 0.7056(6) 0.3234(4) 0.8344(4)
H48_2 H 0.9844 0.0063 0.9917
C85_2 C 0.7277(7) 0.4524(5) 0.6861(5)
C86_2 C 0.7914(11) 0.4980(7) 0.6798(8)
N2_2 N 0.6697(6) 0.0181(4) 0.9428(4)
N3_2 N 0.7850(7) 0.1001(5) 0.9889(5)
N4_2 N 0.8945(6) 0.0080(5) 0.6170(5)
N5_2 N 0.7903(7) 0.0675(4) 0.5322(4)
N6_2 N 0.9521(6) 0.0428(5) 0.5186(5)
O8_2 O 0.8381(6) 0.0816(3) 0.4315(3)
O11_2 O 0.8918(6) 0.1476(4) 0.5058(4)
O12_2 O 0.7969(5) 0.0834(4) 0.6449(4)
O16_2 O 0.6777(5) 0.3208(4) 0.6291(4)
O17_2 O 0.5389(4) 0.2757(3) 0.6888(3)
O18_2 O 0.4466(5) 0.2201(3) 0.6339(3)
O20_2 O 0.6411(4) 0.3256(4) 0.7929(3)
O23_2 O 0.4400(9) 0.2036(5) 0.7474(5)
O24_2 O 0.3767(5) 0.2556(3) 0.8023(3)
O25_2 O 0.5172(5) 0.0352(3) 0.9641(4)
O27_2 O 0.7421(5) 0.0783(4) 0.8749(4)
O30_2 O 0.8314(5) 0.0110(3) 0.9352(3)
O38_2 O 0.6545(5) 0.4500(4) 0.6554(4)
P1_2 P 0.61515(18) 0.03005(14) 0.99118(14)
P2_2 P 0.75396(18) 0.05293(13) 0.93860(14)
P4_2 P 0.80657(18) 0.03897(13) 0.59438(14)
P5_2 P 0.8682(2) 0.08184(13) 0.50030(15)
P6_2 P 0.9619(2) 0.00268(15) 0.57333(17)
H49_2 H 0.848517 0.478692 0.668667
H50_2 H 0.762932 0.527297 0.645012
H51_2 H 0.808988 0.52111 0.721148
C64_2 C 0.5858(7) 0.9603(6) 0.0766(5)
C65_2 C 0.5244(10) 0.9915(7) 0.0959(6)
C66_2 C 0.4974(9) 0.9745(6) 0.1454(7)
H38_2 H 0.4542 0.9958 0.1591
C67_2 C 0.5315(7) 0.9270(5) 0.1762(5)
C68_2 C 0.5921(7) 0.8940(5) 0.1544(5)
H39_2 H 0.6129 0.8595 0.1733
C69_2 C 0.6205(8) 0.9120(7) 0.1059(7)
H40_2 H 0.6642 0.8914 0.0921
C70_2 C 0.4962(6) 0.9092(4) 0.2295(5)
C73_2 C 0.8556(8) 0.9807(5) 0.1604(6)
H42_2 H 0.8323 0.9447 0.1671
C74_2 C 0.9416(7) 0.9903(5) 0.1772(5)
C80_2 C 0.8510(7) 0.8870(5) 0.0335(5)
H46_2 H 0.8167 0.8572 0.0443
C81_2 C 0.9382(6) 0.8922(5) 0.0598(5)
C82_2 C 0.9855(8) 0.9358(5) 0.0448(6)
C83_2 C 0.9509(7) 0.9764(5) 0.0032(6)
C84_2 C 0.9734(6) 0.8524(5) 0.1084(5)
O28_2 O 0.6151(5) 0.9710(4) 0.0243(4)
O34 O 0.9734(4) 0.8967(3) 0.2170(3)
O36 O 0.9210(5) 0.8200(3) 0.1275(4)
C1_2 C 0.9832(7) 0.9163(5) 0.5047(5)
C2_2 C 0.9255(8) 0.8788(5) 0.4700(5)
H1_2 H 0.8743 0.8683 0.4827
C3_2 C 0.9411(6) 0.8578(5) 0.4195(5)
H2_2 H 0.9016 0.8320 0.3972
C10_2 C 0.7301(8) 0.9562(6) 0.3585(6)
H6_2 H 0.6790 0.9352 0.3585
C11_2 C 0.7850(6) 0.9389(4) 0.3223(4)
C12_2 C 0.8609(7) 0.9684(5) 0.3254(5)
H7_2 H 0.9004 0.9573 0.3015
C14_2 C 0.7647(7) 0.8886(5) 0.2839(5)
C15_2 C 0.6879(7) 0.9658(5) 0.5533(5)
C16_2 C 0.6053(7) 0.9806(5) 0.5245(5)
C17_2 C 0.5653(8) 0.9460(6) 0.4786(6)
H10_2 H 0.5071 0.9533 0.4608
C18_2 C 0.6091(6) 0.9003(5) 0.4575(6)
C19_2 C 0.6908(7) 0.8866(5) 0.4893(5)
H11_2 H 0.7198 0.8545 0.4777
C20_2 C 0.7301(7) 0.9181(5) 0.5363(6)
H12_2 H 0.7855 0.9078 0.5574
C21_2 C 0.5701(6) 0.8703(4) 0.4047(4)
C78_2 C 0.8647(6) 0.9703(5) 0.9799(5)
C79_2 C 0.8173(7) 0.9259(5) 0.9921(5)
H45_2 H 0.7598 0.9219 0.9715
O2_2 O 0.9697(5) 0.8217(3) 0.3135(3)
O4_2 O 0.8115(5) 0.8788(3) 0.2456(3)
O7_2 O 0.9628(6) 0.9373(4) 0.5555(5)
O9_2 O 0.7276(5) 0.9997(4) 0.5995(4)
O39_2 O 0.7664(5) 0.7829(4) 0.1537(4)
H52_2 H 0.719792 0.809517 0.158709
H53_2 H 0.776092 0.785325 0.112683
H43_2 H 0.0333 0.0505 0.1763
H36_2 H 0.8251 0.2449 0.0076
H37_2 H 0.5008 0.0245 0.0751
C71_2 C 0.8337(8) 0.0758(5) 0.1217(6)
C72_2 C 0.8021(7) 0.0240(6) 0.1332(5)
H41_2 H 0.7421 0.0172 0.1224
C75_2 C 0.9733(8) 0.0438(5) 0.1652(7)
C76_2 C 0.9217(8) 0.0871(5) 0.1381(6)
H44_2 H 0.9449 0.1231 0.1310
N1_2 N 0.6420(7) 0.0801(5) 0.0342(4)
O26_2 O 0.7020(7) 0.1833(4) 0.0305(4)
O29_2 O 0.7852(6) 0.1208(4) 0.0961(4)
P3_2 P 0.7267(2) 0.11780(14) 0.03275(14)
loop_
_geom_bond_atom_site_label_1
_geom_bond_atom_site_label_2
_geom_bond_site_symmetry_1
_geom_bond_site_symmetry_2
C1 C2 1_555 1_555
C2 H1 1_555 1_555
C3 C2 1_555 1_555
H2 C3 1_555 1_555
C8 C9 1_555 1_555
C9 H5 1_555 1_555
C10 C9 1_555 1_555
H6 C10 1_555 1_555
C11 C10 1_555 1_555
C12 C11 1_555 1_555
H7 C12 1_555 1_555
C13 C8 1_555 1_555
H8 C13 1_555 1_555
C14 C11 1_555 1_555
C15 C16 1_555 1_555
C16 H9 1_555 1_555
C17 C16 1_555 1_555
H10 C17 1_555 1_555
C18 C17 1_555 1_555
C19 C18 1_555 1_555
H11 C19 1_555 1_555
C20 C15 1_555 1_555
H12 C20 1_555 1_555
C21 C18 1_555 1_555
C22 C23 1_555 1_555
C23 H13 1_555 1_555
C24 C23 1_555 1_555
H14 C24 1_555 1_555
C25 C24 1_555 1_555
C26 C25 1_555 1_555
H15 C26 1_555 1_555
C27 C22 1_555 1_555
H16 C27 1_555 1_555
C28 C25 1_555 1_555
C29 C30 1_555 1_555
C30 H17 1_555 1_555
C31 C30 1_555 1_555
H18 C31 1_555 1_555
C32 C31 1_555 1_555
C33 C32 1_555 1_555
H19 C33 1_555 1_555
C34 C29 1_555 1_555
H20 C34 1_555 1_555
C35 C32 1_555 1_555
C43 C44 1_555 1_555
C44 H25 1_555 1_555
C45 C44 1_555 1_555
H26 C45 1_555 1_555
C46 C45 1_555 1_555
C47 C46 1_555 1_555
H27 C47 1_555 1_555
C48 C43 1_555 1_555
H28 C48 1_555 1_555
C49 C46 1_555 1_555
C50 C51 1_555 1_555
C51 H29 1_555 1_555
C52 C51 1_555 1_555
H30 C52 1_555 1_555
C53 C52 1_555 1_555
C54 C53 1_555 1_555
H31 C54 1_555 1_555
C55 C50 1_555 1_555
H32 C55 1_555 1_555
C56 C53 1_555 1_555
C57 C58 1_555 1_555
C58 H33 1_555 1_555
C59 C58 1_555 1_555
H34 C59 1_555 1_555
C60 C59 1_555 1_555
C61 C60 1_555 1_555
H35 C61 1_555 1_555
C62 C57 1_555 1_555
C63 C60 1_555 1_555
C78 C79 1_555 1_555
C79 H45 1_555 1_555
C85 C86 1_555 1_555
Ho1 O16 1_555 1_555
Ho3 O2 1_555 1_555
Ho4 O17 1_555 1_555
N2 P1 1_555 1_555
N3 P2 1_555 1_555
N4 P4 1_555 1_555
N5 P4 1_555 1_555
N6 P5 1_555 1_555
O3 C14 1_555 1_555
O4 C14 1_555 1_555
O5 C21 1_555 1_555
O6 C21 1_555 1_555
O7 C1 1_555 1_555
O8 C8 1_555 1_555
O9 C15 1_555 1_555
O11 C29 1_555 1_555
O12 C22 1_555 1_555
O15 C35 1_555 1_555
O16 C35 1_555 1_555
O17 C28 1_555 1_555
O18 C28 1_555 1_555
O19 C63 1_555 1_555
O20 C63 1_555 1_555
O21 C56 1_555 1_555
O23 C49 1_555 1_555
O24 C49 1_555 1_555
O25 C43 1_555 1_555
O27 C50 1_555 1_555
O30 C78 1_555 1_555
O37 C85 1_555 1_555
O38 C85 1_555 1_555
O39 Ho3 1_555 1_555
P1 O25 1_555 1_555
P2 N2 1_555 1_555
P4 O9 1_555 1_555
P5 N5 1_555 1_555
P6 N4 1_555 1_555
Ho6 O6 1_555 1_555
Ho8 O15 1_555 1_555
Ho13 O3 1_555 1_555
O40 Ho4 1_555 1_555
O41 Ho4 1_555 1_555
O42 Ho1 1_555 1_555
O43 Ho4 1_555 1_555
O44 Ho3 1_555 1_555
O48 Ho3 1_555 1_555
O49 Ho1 1_555 1_555
O50 Ho1 1_555 1_555
O54 Ho3 1_555 1_555
C12 C13 1_555 1_555
C19 C20 1_555 1_555
C26 C27 1_555 1_555
C33 C34 1_555 1_555
C47 C48 1_555 1_555
C54 C55 1_555 1_555
C61 C62 1_555 1_555
Ho1 O17 1_555 1_555
Ho1 O20 1_555 1_555
Ho1 O37 1_555 1_555
Ho1 O38 1_555 1_555
Ho3 O4 1_555 1_555
Ho3 O52 1_555 1_555
Ho4 O18 1_555 1_555
Ho4 O23 1_555 1_555
Ho4 O24 1_555 1_555
Ho4 O49 1_555 1_555
N6 P6 1_555 1_555
O5 Ho13 1_555 1_555
O7 P6 1_555 1_555
O8 P5 1_555 1_555
O11 P5 1_555 1_555
O12 P4 1_555 1_555
O19 Ho8 1_555 1_555
O21 Ho8 1_555 1_555
O27 P2 1_555 1_555
O30 P2 1_555 1_555
O37 Ho8 1_555 1_555
C86 H49 1_555 1_555
O39 H52 1_555 1_555
O39 H53 1_555 1_555
C64 C65 1_555 1_555
C65 H37 1_555 1_555
C66 C65 1_555 1_555
H38 C66 1_555 1_555
C67 C66 1_555 1_555
C68 C67 1_555 1_555
H39 C68 1_555 1_555
C69 C64 1_555 1_555
H40 C69 1_555 1_555
C70 C67 1_555 1_555
C71 C72 1_555 1_555
C72 H41 1_555 1_555
C73 C72 1_555 1_555
H42 C73 1_555 1_555
C74 C73 1_555 1_555
C75 C74 1_555 1_555
C76 C71 1_555 1_555
H44 C76 1_555 1_555
H46 C80 1_555 1_555
C81 C80 1_555 1_555
C82 C81 1_555 1_555
C84 C81 1_555 1_555
O28 C64 1_555 1_555
O29 C71 1_555 1_555
O31 C70 1_555 1_555
O32 C70 1_555 1_555
O54 C84 1_555 1_555
P3 N1 1_555 1_555
Ho6 O31 1_555 1_555
Ho13 O31 1_555 1_555
C68 C69 1_555 1_555
C75 C76 1_555 1_555
C82 C83 1_555 1_555
O26 P3 1_555 1_555
O29 P3 1_555 1_555
O32 Ho6 1_555 1_555
C5 C4 1_555 1_555
H3 C5 1_555 1_555
H4 C6 1_555 1_555
C7 C4 1_555 1_555
C36 C37 1_555 1_555
C37 H21 1_555 1_555
C38 C37 1_555 1_555
H22 C38 1_555 1_555
C39 C38 1_555 1_555
C40 C39 1_555 1_555
H23 C40 1_555 1_555
C41 C36 1_555 1_555
H24 C41 1_555 1_555
C42 C39 1_555 1_555
Ho2 O1 1_555 1_555
O1 C7 1_555 1_555
O10 C36 1_555 1_555
O43 C42 1_555 1_555
O14 C42 1_555 1_555
Ho10 O14 1_555 1_555
O45 Ho2 1_555 1_555
O46 Ho2 1_555 1_555
O47 Ho2 1_555 1_555
O51 Ho2 1_555 1_555
O53 Ho2 1_555 1_555
O55 Ho2 1_555 1_555
C5 C6 1_555 1_555
C40 C41 1_555 1_555
O22 Ho10 1_555 1_555
O51 C77 1_555 1_555
C36_2 C37_2 1_555 1_555
C37_2 H21_2 1_555 1_555
C38_2 C37_2 1_555 1_555
H22_2 C38_2 1_555 1_555
C39_2 C38_2 1_555 1_555
C40_2 C39_2 1_555 1_555
H23_2 C40_2 1_555 1_555
C41_2 C36_2 1_555 1_555
H24_2 C41_2 1_555 1_555
C42_2 C39_2 1_555 1_555
O10_2 C36_2 1_555 1_555
O13 C42_2 1_555 1_555
O44 C42_2 1_555 1_555
Ho13 O13 1_555 1_555
C40_2 C41_2 1_555 1_555
O33 C77_2 1_555 1_555
Ho8 O33 1_555 1_555
O35 Ho8 1_555 1_555
C5_2 C4_2 1_555 1_555
H3_2 C5_2 1_555 1_555
H4_2 C6_2 1_555 1_555
C7_2 C4_2 1_555 1_555
Ho8 O1_2 1_555 1_555
O1_2 C7_2 1_555 1_555
C5_2 C6_2 1_555 1_555
C8_2 C9_2 1_555 1_555
C9_2 H5_2 1_555 1_555
C13_2 C8_2 1_555 1_555
H8_2 C13_2 1_555 1_555
C22_2 C23_2 1_555 1_555
C23_2 H13_2 1_555 1_555
C24_2 C23_2 1_555 1_555
H14_2 C24_2 1_555 1_555
C25_2 C24_2 1_555 1_555
C26_2 C25_2 1_555 1_555
H15_2 C26_2 1_555 1_555
C27_2 C22_2 1_555 1_555
H16_2 C27_2 1_555 1_555
C28_2 C25_2 1_555 1_555
C29_2 C30_2 1_555 1_555
C30_2 H17_2 1_555 1_555
C31_2 C30_2 1_555 1_555
H18_2 C31_2 1_555 1_555
C32_2 C31_2 1_555 1_555
C33_2 C32_2 1_555 1_555
H19_2 C33_2 1_555 1_555
C34_2 C29_2 1_555 1_555
H20_2 C34_2 1_555 1_555
C35_2 C32_2 1_555 1_555
C43_2 C44_2 1_555 1_555
C44_2 H25_2 1_555 1_555
C45_2 C44_2 1_555 1_555
H26_2 C45_2 1_555 1_555
C46_2 C45_2 1_555 1_555
C47_2 C46_2 1_555 1_555
H27_2 C47_2 1_555 1_555
C48_2 C43_2 1_555 1_555
H28_2 C48_2 1_555 1_555
C49_2 C46_2 1_555 1_555
C50_2 C51_2 1_555 1_555
C51_2 H29_2 1_555 1_555
C52_2 C51_2 1_555 1_555
H30_2 C52_2 1_555 1_555
C53_2 C52_2 1_555 1_555
C54_2 C53_2 1_555 1_555
H31_2 C54_2 1_555 1_555
C55_2 C50_2 1_555 1_555
H32_2 C55_2 1_555 1_555
C56_2 C53_2 1_555 1_555
C57_2 C58_2 1_555 1_555
C58_2 H33_2 1_555 1_555
C59_2 C58_2 1_555 1_555
H34_2 C59_2 1_555 1_555
C60_2 C59_2 1_555 1_555
C61_2 C60_2 1_555 1_555
H35_2 C61_2 1_555 1_555
C62_2 C57_2 1_555 1_555
C63_2 C60_2 1_555 1_555
C85_2 C86_2 1_555 1_555
Ho6 O16_2 1_555 1_555
Ho13 O17_2 1_555 1_555
N2_2 P1_2 1_555 1_555
N3_2 P2_2 1_555 1_555
N4_2 P4_2 1_555 1_555
N5_2 P4_2 1_555 1_555
N6_2 P5_2 1_555 1_555
O8_2 C8_2 1_555 1_555
O11_2 C29_2 1_555 1_555
O12_2 C22_2 1_555 1_555
O45 C35_2 1_555 1_555
O16_2 C35_2 1_555 1_555
O17_2 C28_2 1_555 1_555
O18_2 C28_2 1_555 1_555
O46 C63_2 1_555 1_555
O20_2 C63_2 1_555 1_555
O47 C56_2 1_555 1_555
O23_2 C49_2 1_555 1_555
O24_2 C49_2 1_555 1_555
O25_2 C43_2 1_555 1_555
O27_2 C50_2 1_555 1_555
O55 C85_2 1_555 1_555
O38_2 C85_2 1_555 1_555
P1_2 O25_2 1_555 1_555
P2_2 N2_2 1_555 1_555
P5_2 N5_2 1_555 1_555
P6_2 N4_2 1_555 1_555
C26_2 C27_2 1_555 1_555
C33_2 C34_2 1_555 1_555
C47_2 C48_2 1_555 1_555
C54_2 C55_2 1_555 1_555
C61_2 C62_2 1_555 1_555
Ho6 O17_2 1_555 1_555
Ho6 O20_2 1_555 1_555
Ho6 O55 1_555 1_555
Ho6 O38_2 1_555 1_555
Ho13 O18_2 1_555 1_555
Ho13 O23_2 1_555 1_555
Ho13 O24_2 1_555 1_555
N6_2 P6_2 1_555 1_555
O8_2 P5_2 1_555 1_555
O11_2 P5_2 1_555 1_555
O12_2 P4_2 1_555 1_555
O27_2 P2_2 1_555 1_555
O30_2 P2_2 1_555 1_555
C86_2 H49_2 1_555 1_555
C86_2 H50_2 1_555 1_555
C86_2 H51_2 1_555 1_555
C64_2 C65_2 1_555 1_555
C66_2 C65_2 1_555 1_555
H38_2 C66_2 1_555 1_555
C67_2 C66_2 1_555 1_555
C68_2 C67_2 1_555 1_555
H39_2 C68_2 1_555 1_555
C69_2 C64_2 1_555 1_555
H40_2 C69_2 1_555 1_555
C70_2 C67_2 1_555 1_555
H42_2 C73_2 1_555 1_555
C74_2 C73_2 1_555 1_555
H46_2 C80_2 1_555 1_555
C81_2 C80_2 1_555 1_555
C82_2 C81_2 1_555 1_555
C84_2 C81_2 1_555 1_555
O28_2 C64_2 1_555 1_555
O49 C70_2 1_555 1_555
O50 C70_2 1_555 1_555
O36 C84_2 1_555 1_555
Ho10 O34 1_555 1_555
C68_2 C69_2 1_555 1_555
C82_2 C83_2 1_555 1_555
O36 Ho10 1_555 1_555
C1_2 C2_2 1_555 1_555
C2_2 H1_2 1_555 1_555
C3_2 C2_2 1_555 1_555
H2_2 C3_2 1_555 1_555
H6_2 C10_2 1_555 1_555
C11_2 C10_2 1_555 1_555
C12_2 C11_2 1_555 1_555
H7_2 C12_2 1_555 1_555
C14_2 C11_2 1_555 1_555
C15_2 C16_2 1_555 1_555
C17_2 C16_2 1_555 1_555
H10_2 C17_2 1_555 1_555
C18_2 C17_2 1_555 1_555
C19_2 C18_2 1_555 1_555
H11_2 C19_2 1_555 1_555
C20_2 C15_2 1_555 1_555
H12_2 C20_2 1_555 1_555
C21_2 C18_2 1_555 1_555
C78_2 C79_2 1_555 1_555
C79_2 H45_2 1_555 1_555
Ho10 O2_2 1_555 1_555
O40 C14_2 1_555 1_555
O4_2 C14_2 1_555 1_555
O41 C21_2 1_555 1_555
O42 C21_2 1_555 1_555
O7_2 C1_2 1_555 1_555
O9_2 C15_2 1_555 1_555
O39_2 Ho10 1_555 1_555
C19_2 C20_2 1_555 1_555
Ho10 O4_2 1_555 1_555
O39_2 H52_2 1_555 1_555
O39_2 H53_2 1_555 1_555
C71_2 C72_2 1_555 1_555
C72_2 H41_2 1_555 1_555
C76_2 C71_2 1_555 1_555
H44_2 C76_2 1_555 1_555
O29_2 C71_2 1_555 1_555
P3_2 N1_2 1_555 1_555
C75_2 C76_2 1_555 1_555
O26_2 P3_2 1_555 1_555
O29_2 P3_2 1_555 1_555

#END
