
###############################################################################
#
# This file contains modified crystal structure data generated from the
# MOF subset of the Cambridge Structural Database (CSD) v543 
# hosted by the Cambridge Crystallographic Data Centre (CCDC).
#
# This work is licensed under the Creative Commons
# Attribution-NonCommercial-ShareAlike 4.0 International License.
# To view a copy of this license, visit
# http://creativecommons.org/licenses/by-nc-sa/4.0/
# or send a letter to
# Creative Commons, PO Box 1866, Mountain View, CA 94042, USA.
#
# CIF created using the CSD Python API on 29 September 2022
# The structure has been converted into the P1 space group
# The structure has a 3D framework
# The original CSD entry ORANAY is in the hexagonal crystal system
# The framework has been calculated to contain at least 10.0% void space
# The void calculation uses a probe of radius 1.32A, grid spacing 0.4
#
###############################################################################

data_ORANAY
_chemical_formula_moiety         '(C84 H60 Ce4 Mg15 N12 O66)n'
_symmetry_cell_setting           triclinic
_symmetry_space_group_name_H-M   'P 1'
_symmetry_Int_Tables_number      1
_space_group_name_Hall           'P 1'
loop_
_symmetry_equiv_pos_site_id
_symmetry_equiv_pos_as_xyz
1 x,y,z
_cell_length_a                   15.6115(9)
_cell_length_b                   15.6115(9)
_cell_length_c                   15.1842(12)
_cell_angle_alpha                90
_cell_angle_beta                 90
_cell_angle_gamma                120
_cell_volume                     3204.88
loop_
_atom_site_label
_atom_site_type_symbol
_atom_site_fract_x
_atom_site_fract_y
_atom_site_fract_z
Mg5 Mg 0.5000 0.0000 0.5000
Mg1 Mg -0.0000 0.5000 0.0000
O16 O 0.12979(17) 0.48954(17) 0.0000
H19 H 0.1664 0.5236 0.0399
O35 O 0.05831(12) 0.61161(13) 0.09422(11)
Mg1_2 Mg -0.0000 0.5000 1.0000
Ce2 Ce 0.3333 0.6667 0.7500
O16_2 O 0.12979(17) 0.48954(17) 1.0000
H16 H 0.1664 0.5236 0.9601
O17 O 0.19558(14) 0.61551(14) 0.85858(13)
O18 O 0.05831(12) 0.61161(13) 0.90578(11)
N4 N 0.23701(11) 0.76299(11) 0.7500
C22 C 0.13465(17) 0.64697(17) 0.86078(15)
C23 C 0.15932(16) 0.73510(17) 0.80310(15)
C24 C 0.1070(2) 0.7847(2) 0.8057(2)
H17 H 0.0539 0.7648 0.8441
C25 C 0.13507(17) 0.86493(17) 0.7500
H18 H 0.1007 0.8993 0.7500
O19 O 0.38449(14) 0.80442(14) 0.64142(13)
O20 O 0.38839(13) 0.94169(12) 0.59422(11)
C26 C 0.35303(17) 0.86535(17) 0.63922(15)
C27 C 0.26490(17) 0.84068(16) 0.69690(15)
C28 C 0.2153(2) 0.8930(2) 0.6943(2)
H20 H 0.2352 0.9461 0.6559
Mg5_2 Mg 0.5000 1.0000 0.5000
Mg9 Mg -0.0000 0.5000 0.5000
O31 O 0.38449(14) 0.58007(20) 0.85858(13)
O32 O 0.41993(20) 0.80442(14) 0.85858(13)
O33 O 0.41993(20) 0.61551(14) 0.64142(13)
O34 O 0.19558(14) 0.58007(20) 0.64142(13)
N7 N 0.23701(11) 0.47402(16) 0.7500
N8 N 0.52598(16) 0.76299(11) 0.7500
Mg1_3 Mg 1.0000 0.5000 0.0000
O1 O 0.87021(17) 0.51046(17) 0.0000
H4 H 0.8336 0.4764 0.0399
Mg2 Mg 0.5000 0.5000 0.0000
O6 O 0.48954(17) 0.35975(24) 0.0000
H9 H 0.5236 0.3572 0.0399
Mg3 Mg 0.5000 0.0000 0.0000
O11 O 0.64025(24) 0.12979(17) 0.0000
H14 H 0.6428 0.1664 0.0399
O21 O 0.51046(17) 0.64025(24) 0.0000
H24 H 0.4764 0.6428 0.0399
O36 O 0.38839(13) 0.44670(18) 0.09422(11)
O38 O 0.94169(12) 0.38839(13) 0.09422(11)
O39 O 0.61161(13) 0.55330(18) 0.09422(11)
O40 O 0.44670(18) 0.05831(12) 0.09422(11)
Ce1 Ce 0.6667 0.3333 0.7500
Mg1_4 Mg 1.0000 0.5000 1.0000
O1_2 O 0.87021(17) 0.51046(17) 1.0000
H1 H 0.8336 0.4764 0.9601
O2 O 0.80442(14) 0.38449(14) 0.85858(13)
O3 O 0.94169(12) 0.38839(13) 0.90578(11)
N1 N 0.76299(11) 0.23701(11) 0.7500
C1 C 0.86535(17) 0.35303(17) 0.86078(15)
C2 C 0.84068(16) 0.26490(17) 0.80310(15)
C3 C 0.8930(2) 0.2153(2) 0.8057(2)
H2 H 0.9461 0.2352 0.8441
C4 C 0.86493(17) 0.13507(17) 0.7500
H3 H 0.8993 0.1007 0.7500
O4 O 0.61551(14) 0.19558(14) 0.64142(13)
O5 O 0.61161(13) 0.05831(12) 0.59422(11)
C5 C 0.64697(17) 0.13465(17) 0.63922(15)
C6 C 0.73510(17) 0.15932(16) 0.69690(15)
C7 C 0.7847(2) 0.1070(2) 0.6943(2)
H5 H 0.7648 0.0539 0.6559
Mg2_2 Mg 0.5000 0.5000 1.0000
O6_2 O 0.48954(17) 0.35975(24) 1.0000
H6 H 0.5236 0.3572 0.9601
O7 O 0.61551(14) 0.41993(20) 0.85858(13)
O8 O 0.61161(13) 0.55330(18) 0.90578(11)
N2 N 0.76299(11) 0.52598(16) 0.7500
C8 C 0.64697(17) 0.51232(24) 0.86078(15)
C9 C 0.73510(17) 0.57578(23) 0.80310(15)
C10 C 0.7847(2) 0.6777(3) 0.8057(2)
H7 H 0.7648 0.7109 0.8441
C11 C 0.86493(17) 0.72986(24) 0.7500
H8 H 0.8993 0.7986 0.7500
O9 O 0.80442(14) 0.41993(20) 0.64142(13)
O10 O 0.94169(12) 0.55330(18) 0.59422(11)
C12 C 0.86535(17) 0.51232(24) 0.63922(15)
C13 C 0.84068(16) 0.57578(23) 0.69690(15)
C14 C 0.8930(2) 0.6777(3) 0.6943(2)
H10 H 0.9461 0.7109 0.6559
Mg3_2 Mg 0.5000 0.0000 1.0000
O11_2 O 0.64025(24) 0.12979(17) 1.0000
H11 H 0.6428 0.1664 0.9601
O12 O 0.58007(20) 0.19558(14) 0.85858(13)
O13 O 0.44670(18) 0.05831(12) 0.90578(11)
N3 N 0.47402(16) 0.23701(11) 0.7500
C15 C 0.48768(24) 0.13465(17) 0.86078(15)
C16 C 0.42422(23) 0.15932(16) 0.80310(15)
C17 C 0.3223(3) 0.1070(2) 0.8057(2)
H12 H 0.2891 0.0539 0.8441
C18 C 0.27014(24) 0.13507(17) 0.7500
H13 H 0.2014 0.1007 0.7500
O14 O 0.58007(20) 0.38449(14) 0.64142(13)
O15 O 0.44670(18) 0.38839(13) 0.59422(11)
C19 C 0.48768(24) 0.35303(17) 0.63922(15)
C20 C 0.42422(23) 0.26490(17) 0.69690(15)
C21 C 0.3223(3) 0.2153(2) 0.6943(2)
H15 H 0.2891 0.2352 0.6559
O21_2 O 0.51046(17) 0.64025(24) 1.0000
H21 H 0.4764 0.6428 0.9601
O23 O 0.38839(13) 0.44670(18) 0.90578(11)
C29 C 0.35303(17) 0.48768(24) 0.86078(15)
C30 C 0.26490(17) 0.42422(23) 0.80310(15)
C31 C 0.2153(2) 0.3223(3) 0.8057(2)
H22 H 0.2352 0.2891 0.8441
C32 C 0.13507(17) 0.27014(24) 0.7500
H23 H 0.1007 0.2014 0.7500
O25 O 0.05831(12) 0.44670(18) 0.59422(11)
C33 C 0.13465(17) 0.48768(24) 0.63922(15)
C34 C 0.15932(16) 0.42422(23) 0.69690(15)
C35 C 0.1070(2) 0.3223(3) 0.6943(2)
H25 H 0.0539 0.2891 0.6559
Mg7 Mg 0.5000 0.5000 0.5000
Mg9_2 Mg 1.0000 0.5000 0.5000
Mg3_3 Mg 0.5000 1.0000 0.0000
O26 O 0.35975(24) 0.87021(17) 0.0000
H29 H 0.3572 0.8336 0.0399
O37 O 0.55330(18) 0.94169(12) 0.09422(11)
Mg3_4 Mg 0.5000 1.0000 1.0000
O26_2 O 0.35975(24) 0.87021(17) 1.0000
H26 H 0.3572 0.8336 0.9601
O28 O 0.55330(18) 0.94169(12) 0.90578(11)
C36 C 0.51232(24) 0.86535(17) 0.86078(15)
C37 C 0.57578(23) 0.84068(16) 0.80310(15)
C38 C 0.6777(3) 0.8930(2) 0.8057(2)
H27 H 0.7109 0.9461 0.8441
C39 C 0.72986(24) 0.86493(17) 0.7500
H28 H 0.7986 0.8993 0.7500
O30 O 0.55330(18) 0.61161(13) 0.59422(11)
C40 C 0.51232(24) 0.64697(17) 0.63922(15)
C41 C 0.57578(23) 0.73510(17) 0.69690(15)
C42 C 0.6777(3) 0.7847(2) 0.6943(2)
H30 H 0.7109 0.7648 0.6559
O16_3 O 0.48954(17) 0.12979(17) 0.5000
H16_2 H 0.5236 0.1664 0.5399
H19_2 H 0.5236 0.1664 0.4601
O35_2 O 0.61161(13) 0.05831(12) 0.40578(11)
O1_3 O 0.51046(17) 0.87021(17) 0.5000
H1_2 H 0.4764 0.8336 0.5399
H4_2 H 0.4764 0.8336 0.4601
O6_3 O 0.35975(24) 0.48954(17) 0.5000
H6_2 H 0.3572 0.5236 0.5399
H9_2 H 0.3572 0.5236 0.4601
O11_3 O 0.12979(17) 0.64025(24) 0.5000
H11_2 H 0.1664 0.6428 0.5399
H14_2 H 0.1664 0.6428 0.4601
O21_3 O 0.64025(24) 0.51046(17) 0.5000
H21_2 H 0.6428 0.4764 0.5399
H24_2 H 0.6428 0.4764 0.4601
O36_2 O 0.44670(18) 0.38839(13) 0.40578(11)
O38_2 O 0.38839(13) 0.94169(12) 0.40578(11)
O39_2 O 0.55330(18) 0.61161(13) 0.40578(11)
O40_2 O 0.05831(12) 0.44670(18) 0.40578(11)
O26_3 O 0.87021(17) 0.35975(24) 0.5000
H26_2 H 0.8336 0.3572 0.5399
H29_2 H 0.8336 0.3572 0.4601
O37_2 O 0.94169(12) 0.55330(18) 0.40578(11)
O27 O 0.58007(20) 0.19558(14) 0.14142(13)
N6 N 0.47402(16) 0.23701(11) 0.2500
C36_2 C 0.48768(24) 0.13465(17) 0.13922(15)
C37_2 C 0.42422(23) 0.15932(16) 0.19690(15)
C38_2 C 0.3223(3) 0.1070(2) 0.1943(2)
H27_2 H 0.2891 0.0539 0.1559
C39_2 C 0.27014(24) 0.13507(17) 0.2500
H28_2 H 0.2014 0.1007 0.2500
O29 O 0.58007(20) 0.38449(14) 0.35858(13)
C40_2 C 0.48768(24) 0.35303(17) 0.36078(15)
C41_2 C 0.42422(23) 0.26490(17) 0.30310(15)
C42_2 C 0.3223(3) 0.2153(2) 0.3057(2)
H30_2 H 0.2891 0.2352 0.3441
Ce3 Ce 0.6667 0.3333 0.2500
Ce1_2 Ce 0.3333 0.6667 0.2500
O2_2 O 0.19558(14) 0.61551(14) 0.14142(13)
N1_2 N 0.23701(11) 0.76299(11) 0.2500
C1_2 C 0.13465(17) 0.64697(17) 0.13922(15)
C2_2 C 0.15932(16) 0.73510(17) 0.19690(15)
C3_2 C 0.1070(2) 0.7847(2) 0.1943(2)
H2_2 H 0.0539 0.7648 0.1559
C4_2 C 0.13507(17) 0.86493(17) 0.2500
H3_2 H 0.1007 0.8993 0.2500
O4_2 O 0.38449(14) 0.80442(14) 0.35858(13)
C5_2 C 0.35303(17) 0.86535(17) 0.36078(15)
C6_2 C 0.26490(17) 0.84068(16) 0.30310(15)
C7_2 C 0.2153(2) 0.8930(2) 0.3057(2)
H5_2 H 0.2352 0.9461 0.3441
O7_2 O 0.38449(14) 0.58007(20) 0.14142(13)
N2_2 N 0.23701(11) 0.47402(16) 0.2500
C8_2 C 0.35303(17) 0.48768(24) 0.13922(15)
C9_2 C 0.26490(17) 0.42422(23) 0.19690(15)
C10_2 C 0.2153(2) 0.3223(3) 0.1943(2)
H7_2 H 0.2352 0.2891 0.1559
C11_2 C 0.13507(17) 0.27014(24) 0.2500
H8_2 H 0.1007 0.2014 0.2500
O9_2 O 0.19558(14) 0.58007(20) 0.35858(13)
C12_2 C 0.13465(17) 0.48768(24) 0.36078(15)
C13_2 C 0.15932(16) 0.42422(23) 0.30310(15)
C14_2 C 0.1070(2) 0.3223(3) 0.3057(2)
H10_2 H 0.0539 0.2891 0.3441
O12_2 O 0.41993(20) 0.80442(14) 0.14142(13)
N3_2 N 0.52598(16) 0.76299(11) 0.2500
C15_2 C 0.51232(24) 0.86535(17) 0.13922(15)
C16_2 C 0.57578(23) 0.84068(16) 0.19690(15)
C17_2 C 0.6777(3) 0.8930(2) 0.1943(2)
H12_2 H 0.7109 0.9461 0.1559
C18_2 C 0.72986(24) 0.86493(17) 0.2500
H13_2 H 0.7986 0.8993 0.2500
O14_2 O 0.41993(20) 0.61551(14) 0.35858(13)
C19_2 C 0.51232(24) 0.64697(17) 0.36078(15)
C20_2 C 0.57578(23) 0.73510(17) 0.30310(15)
C21_2 C 0.6777(3) 0.7847(2) 0.3057(2)
H15_2 H 0.7109 0.7648 0.3441
O22 O 0.61551(14) 0.41993(20) 0.14142(13)
N5 N 0.76299(11) 0.52598(16) 0.2500
C29_2 C 0.64697(17) 0.51232(24) 0.13922(15)
C30_2 C 0.73510(17) 0.57578(23) 0.19690(15)
C31_2 C 0.7847(2) 0.6777(3) 0.1943(2)
H22_2 H 0.7648 0.7109 0.1559
C32_2 C 0.86493(17) 0.72986(24) 0.2500
H23_2 H 0.8993 0.7986 0.2500
O24 O 0.80442(14) 0.41993(20) 0.35858(13)
C33_2 C 0.86535(17) 0.51232(24) 0.36078(15)
C34_2 C 0.84068(16) 0.57578(23) 0.30310(15)
C35_2 C 0.8930(2) 0.6777(3) 0.3057(2)
H25_2 H 0.9461 0.7109 0.3441
O17_2 O 0.80442(14) 0.38449(14) 0.14142(13)
N4_2 N 0.76299(11) 0.23701(11) 0.2500
C22_2 C 0.86535(17) 0.35303(17) 0.13922(15)
C23_2 C 0.84068(16) 0.26490(17) 0.19690(15)
C24_2 C 0.8930(2) 0.2153(2) 0.1943(2)
H17_2 H 0.9461 0.2352 0.1559
C25_2 C 0.86493(17) 0.13507(17) 0.2500
H18_2 H 0.8993 0.1007 0.2500
O19_2 O 0.61551(14) 0.19558(14) 0.35858(13)
C26_2 C 0.64697(17) 0.13465(17) 0.36078(15)
C27_2 C 0.73510(17) 0.15932(16) 0.30310(15)
C28_2 C 0.7847(2) 0.1070(2) 0.3057(2)
H20_2 H 0.7648 0.0539 0.3441
loop_
_geom_bond_atom_site_label_1
_geom_bond_atom_site_label_2
_geom_bond_site_symmetry_1
_geom_bond_site_symmetry_2
O16 Mg1 1_555 1_555
H19 O16 1_555 1_555
O35 Mg1 1_555 1_555
Ce2 O17 1_555 1_555
O16_2 Mg1_2 1_555 1_555
H16 O16_2 1_555 1_555
O17 C22 1_555 1_555
O18 Mg1_2 1_555 1_555
N4 Ce2 1_555 1_555
C22 O18 1_555 1_555
C23 N4 1_555 1_555
C24 C23 1_555 1_555
H17 C24 1_555 1_555
C25 C24 1_555 1_555
H18 C25 1_555 1_555
O19 Ce2 1_555 1_555
O20 C26 1_555 1_555
C26 O19 1_555 1_555
C27 N4 1_555 1_555
C28 C25 1_555 1_555
H20 C28 1_555 1_555
Mg5_2 O20 1_555 1_555
O31 Ce2 1_555 1_555
O32 Ce2 1_555 1_555
O33 Ce2 1_555 1_555
O34 Ce2 1_555 1_555
N7 Ce2 1_555 1_555
N8 Ce2 1_555 1_555
C22 C23 1_555 1_555
C26 C27 1_555 1_555
C27 C28 1_555 1_555
Mg1_3 O1 1_555 1_555
H4 O1 1_555 1_555
Mg2 O6 1_555 1_555
H9 O6 1_555 1_555
Mg3 O11 1_555 1_555
H14 O11 1_555 1_555
O21 Mg2 1_555 1_555
H24 O21 1_555 1_555
O36 Mg2 1_555 1_555
O38 Mg1_3 1_555 1_555
O39 Mg2 1_555 1_555
O40 Mg3 1_555 1_555
Ce1 O2 1_555 1_555
Mg1_4 O1_2 1_555 1_555
O1_2 H1 1_555 1_555
O2 C1 1_555 1_555
O3 Mg1_4 1_555 1_555
N1 Ce1 1_555 1_555
C1 O3 1_555 1_555
C2 N1 1_555 1_555
C3 C2 1_555 1_555
H2 C3 1_555 1_555
C4 C3 1_555 1_555
H3 C4 1_555 1_555
O4 Ce1 1_555 1_555
O5 C5 1_555 1_555
C5 O4 1_555 1_555
C6 N1 1_555 1_555
C7 C4 1_555 1_555
H5 C7 1_555 1_555
Mg2_2 O6_2 1_555 1_555
O6_2 H6 1_555 1_555
O7 Ce1 1_555 1_555
O8 Mg2_2 1_555 1_555
N2 Ce1 1_555 1_555
C8 O7 1_555 1_555
C9 N2 1_555 1_555
C10 C9 1_555 1_555
H7 C10 1_555 1_555
C11 C10 1_555 1_555
H8 C11 1_555 1_555
O9 Ce1 1_555 1_555
O10 C12 1_555 1_555
C12 O9 1_555 1_555
C13 N2 1_555 1_555
C14 C11 1_555 1_555
H10 C14 1_555 1_555
Mg3_2 O11_2 1_555 1_555
O11_2 H11 1_555 1_555
O12 Ce1 1_555 1_555
O13 Mg3_2 1_555 1_555
N3 Ce1 1_555 1_555
C15 O12 1_555 1_555
C16 N3 1_555 1_555
C17 C16 1_555 1_555
H12 C17 1_555 1_555
C18 C17 1_555 1_555
H13 C18 1_555 1_555
O14 Ce1 1_555 1_555
O15 C19 1_555 1_555
C19 O14 1_555 1_555
C20 N3 1_555 1_555
C21 C18 1_555 1_555
H15 C21 1_555 1_555
O21_2 Mg2_2 1_555 1_555
H21 O21_2 1_555 1_555
O31 C29 1_555 1_555
O23 Mg2_2 1_555 1_555
N7 C30 1_555 1_555
C29 O23 1_555 1_555
C30 C29 1_555 1_555
C31 C30 1_555 1_555
H22 C31 1_555 1_555
C32 C31 1_555 1_555
H23 C32 1_555 1_555
O34 C33 1_555 1_555
O25 C33 1_555 1_555
C33 C34 1_555 1_555
C34 N7 1_555 1_555
C35 C32 1_555 1_555
H25 C35 1_555 1_555
Mg5 O5 1_555 1_555
Mg7 O15 1_555 1_555
Mg9 O25 1_555 1_555
Mg9_2 O10 1_555 1_555
C1 C2 1_555 1_555
C5 C6 1_555 1_555
C6 C7 1_555 1_555
O8 C8 1_555 1_555
C8 C9 1_555 1_555
C12 C13 1_555 1_555
C13 C14 1_555 1_555
O13 C15 1_555 1_555
C15 C16 1_555 1_555
C19 C20 1_555 1_555
C20 C21 1_555 1_555
C34 C35 1_555 1_555
O26 Mg3_3 1_555 1_555
H29 O26 1_555 1_555
O37 Mg3_3 1_555 1_555
O26_2 Mg3_4 1_555 1_555
H26 O26_2 1_555 1_555
O32 C36 1_555 1_555
O28 Mg3_4 1_555 1_555
N8 C37 1_555 1_555
C36 O28 1_555 1_555
C37 C36 1_555 1_555
C38 C37 1_555 1_555
H27 C38 1_555 1_555
C39 C38 1_555 1_555
H28 C39 1_555 1_555
O33 C40 1_555 1_555
O30 C40 1_555 1_555
C40 C41 1_555 1_555
C41 N8 1_555 1_555
C42 C39 1_555 1_555
H30 C42 1_555 1_555
Mg7 O30 1_555 1_555
C41 C42 1_555 1_555
O16_3 Mg5 1_555 1_555
H16_2 O16_3 1_555 1_555
H19_2 O16_3 1_555 1_555
O35_2 Mg5 1_555 1_555
Mg5_2 O1_3 1_555 1_555
O1_3 H1_2 1_555 1_555
H4_2 O1_3 1_555 1_555
Mg7 O6_3 1_555 1_555
O6_3 H6_2 1_555 1_555
H9_2 O6_3 1_555 1_555
Mg9 O11_3 1_555 1_555
O11_3 H11_2 1_555 1_555
H14_2 O11_3 1_555 1_555
O21_3 Mg7 1_555 1_555
H21_2 O21_3 1_555 1_555
H24_2 O21_3 1_555 1_555
O36_2 Mg7 1_555 1_555
O38_2 Mg5_2 1_555 1_555
O39_2 Mg7 1_555 1_555
O40_2 Mg9 1_555 1_555
O26_3 Mg9_2 1_555 1_555
H26_2 O26_3 1_555 1_555
H29_2 O26_3 1_555 1_555
O37_2 Mg9_2 1_555 1_555
O27 C36_2 1_555 1_555
N6 C37_2 1_555 1_555
C36_2 O40 1_555 1_555
C37_2 C36_2 1_555 1_555
C38_2 C37_2 1_555 1_555
H27_2 C38_2 1_555 1_555
C39_2 C38_2 1_555 1_555
H28_2 C39_2 1_555 1_555
O29 C40_2 1_555 1_555
O36_2 C40_2 1_555 1_555
C40_2 C41_2 1_555 1_555
C41_2 N6 1_555 1_555
C42_2 C39_2 1_555 1_555
H30_2 C42_2 1_555 1_555
Ce3 O27 1_555 1_555
N6 Ce3 1_555 1_555
O29 Ce3 1_555 1_555
C41_2 C42_2 1_555 1_555
Ce1_2 O2_2 1_555 1_555
O2_2 C1_2 1_555 1_555
N1_2 Ce1_2 1_555 1_555
C1_2 O35 1_555 1_555
C2_2 N1_2 1_555 1_555
C3_2 C2_2 1_555 1_555
H2_2 C3_2 1_555 1_555
C4_2 C3_2 1_555 1_555
H3_2 C4_2 1_555 1_555
O4_2 Ce1_2 1_555 1_555
O38_2 C5_2 1_555 1_555
C5_2 O4_2 1_555 1_555
C6_2 N1_2 1_555 1_555
C7_2 C4_2 1_555 1_555
H5_2 C7_2 1_555 1_555
O7_2 Ce1_2 1_555 1_555
N2_2 Ce1_2 1_555 1_555
C8_2 O7_2 1_555 1_555
C9_2 N2_2 1_555 1_555
C10_2 C9_2 1_555 1_555
H7_2 C10_2 1_555 1_555
C11_2 C10_2 1_555 1_555
H8_2 C11_2 1_555 1_555
O9_2 Ce1_2 1_555 1_555
O40_2 C12_2 1_555 1_555
C12_2 O9_2 1_555 1_555
C13_2 N2_2 1_555 1_555
C14_2 C11_2 1_555 1_555
H10_2 C14_2 1_555 1_555
O12_2 Ce1_2 1_555 1_555
N3_2 Ce1_2 1_555 1_555
C15_2 O12_2 1_555 1_555
C16_2 N3_2 1_555 1_555
C17_2 C16_2 1_555 1_555
H12_2 C17_2 1_555 1_555
C18_2 C17_2 1_555 1_555
H13_2 C18_2 1_555 1_555
O14_2 Ce1_2 1_555 1_555
O39_2 C19_2 1_555 1_555
C19_2 O14_2 1_555 1_555
C20_2 N3_2 1_555 1_555
C21_2 C18_2 1_555 1_555
H15_2 C21_2 1_555 1_555
O22 C29_2 1_555 1_555
N5 C30_2 1_555 1_555
C29_2 O39 1_555 1_555
C30_2 C29_2 1_555 1_555
C31_2 C30_2 1_555 1_555
H22_2 C31_2 1_555 1_555
C32_2 C31_2 1_555 1_555
H23_2 C32_2 1_555 1_555
O24 C33_2 1_555 1_555
O37_2 C33_2 1_555 1_555
C33_2 C34_2 1_555 1_555
C34_2 N5 1_555 1_555
C35_2 C32_2 1_555 1_555
H25_2 C35_2 1_555 1_555
Ce3 O22 1_555 1_555
C1_2 C2_2 1_555 1_555
C5_2 C6_2 1_555 1_555
C6_2 C7_2 1_555 1_555
O36 C8_2 1_555 1_555
C8_2 C9_2 1_555 1_555
C12_2 C13_2 1_555 1_555
C13_2 C14_2 1_555 1_555
O37 C15_2 1_555 1_555
C15_2 C16_2 1_555 1_555
C19_2 C20_2 1_555 1_555
C20_2 C21_2 1_555 1_555
N5 Ce3 1_555 1_555
O24 Ce3 1_555 1_555
C34_2 C35_2 1_555 1_555
Ce3 O17_2 1_555 1_555
O17_2 C22_2 1_555 1_555
N4_2 Ce3 1_555 1_555
C22_2 O38 1_555 1_555
C23_2 N4_2 1_555 1_555
C24_2 C23_2 1_555 1_555
H17_2 C24_2 1_555 1_555
C25_2 C24_2 1_555 1_555
H18_2 C25_2 1_555 1_555
O19_2 Ce3 1_555 1_555
O35_2 C26_2 1_555 1_555
C26_2 O19_2 1_555 1_555
C27_2 N4_2 1_555 1_555
C28_2 C25_2 1_555 1_555
H20_2 C28_2 1_555 1_555
C22_2 C23_2 1_555 1_555
C26_2 C27_2 1_555 1_555
C27_2 C28_2 1_555 1_555

#END
