
###############################################################################
#
# This file contains modified crystal structure data generated from the
# MOF subset of the Cambridge Structural Database (CSD) v543 
# hosted by the Cambridge Crystallographic Data Centre (CCDC).
#
# This work is licensed under the Creative Commons
# Attribution-NonCommercial-ShareAlike 4.0 International License.
# To view a copy of this license, visit
# http://creativecommons.org/licenses/by-nc-sa/4.0/
# or send a letter to
# Creative Commons, PO Box 1866, Mountain View, CA 94042, USA.
#
# CIF created using the CSD Python API on 29 September 2022
# The structure has been converted into the P1 space group
# The structure has a 3D framework
# The original CSD entry OREFIC is in the orthorhombic crystal system
# The framework has been calculated to contain at least 10.0% void space
# The void calculation uses a probe of radius 1.32A, grid spacing 0.4
#
###############################################################################

data_OREFIC
_chemical_formula_moiety         '(C1472 H1024 Cu64 I32 N128)n'
_symmetry_cell_setting           triclinic
_symmetry_space_group_name_H-M   'P 1'
_symmetry_Int_Tables_number      1
_space_group_name_Hall           'P 1'
loop_
_symmetry_equiv_pos_site_id
_symmetry_equiv_pos_as_xyz
1 x,y,z
_cell_length_a                   29.445(5)
_cell_length_b                   36.140(5)
_cell_length_c                   27.140(5)
_cell_angle_alpha                90
_cell_angle_beta                 90
_cell_angle_gamma                90
_cell_volume                     28880.8
loop_
_atom_site_label
_atom_site_type_symbol
_atom_site_fract_x
_atom_site_fract_y
_atom_site_fract_z
H9 H 0.1132 0.0157 0.4687
C23 C 0.4555(8) 0.0001(4) 0.1326(6)
H17 H 0.4466 0.0231 0.1206
H18 H 0.4312 0.0088 0.1970
I2 I 0.02941(2) 0.05848(2) 0.51155(2)
Cu5 Cu 0.51561(3) 0.00030(3) 0.04588(3)
C1 C 0.5986(3) 0.7928(3) 0.2779(3)
H1 H 0.6071 0.7915 0.2449
C2 C 0.5557(4) 0.8059(4) 0.2897(4)
H2 H 0.5358 0.8118 0.2642
C3 C 0.6128(5) 0.7822(4) 0.3609(4)
H3 H 0.6313 0.7716 0.3848
C4 C 0.5738(4) 0.7968(3) 0.3739(4)
H4 H 0.5667 0.7986 0.4072
C5 C 0.54130(18) 0.81050(16) 0.33724(19)
C6 C 0.49556(18) 0.82650(15) 0.35171(19)
C7 C 0.4614(3) 0.8270(3) 0.3177(3)
H5 H 0.4665 0.8180 0.2860
C8 C 0.4190(3) 0.8408(3) 0.3305(4)
H6 H 0.3956 0.8407 0.3075
C9 C 0.4869(4) 0.8410(4) 0.3975(4)
H7 H 0.5102 0.8420 0.4206
C10 C 0.4461(4) 0.8535(4) 0.4097(4)
H8 H 0.4416 0.8618 0.4418
C11 C 0.41105(17) 0.85503(15) 0.37844(18)
C12 C 0.1160(3) 0.9952(3) 0.4482(5)
C13 C 0.1602(3) 0.9845(2) 0.4381(5)
H10 H 0.1849 0.9973 0.4511
C14 C 0.0843(3) 0.9546(5) 0.4059(5)
H11 H 0.0587 0.9429 0.3932
C15 C 0.1277(3) 0.9409(4) 0.3921(5)
H12 H 0.1289 0.9212 0.3701
C16 C 0.1661(2) 0.9543(2) 0.4085(2)
C17 C 0.2114(2) 0.93938(18) 0.3966(2)
C18 C 0.2183(4) 0.8981(4) 0.3919(5)
H13 H 0.1948 0.8812 0.3963
C19 C 0.2596(4) 0.8881(3) 0.3810(4)
H14 H 0.2645 0.8629 0.3762
C20 C 0.2444(4) 0.9600(3) 0.3839(5)
H15 H 0.2391 0.9853 0.3819
C21 C 0.2884(4) 0.9471(3) 0.3724(5)
H16 H 0.3105 0.9639 0.3625
C22 C 0.2986(2) 0.91209(16) 0.3757(2)
C24 C 0.4397(8) 0.9902(4) 0.1752(7)
C25 C 0.4796(5) 0.9452(5) 0.1163(5)
H19 H 0.4923 0.9296 0.0927
C26 C 0.4608(5) 0.9279(4) 0.1583(5)
H20 H 0.4638 0.9029 0.1656
C27 C 0.4349(2) 0.95560(18) 0.1899(2)
C28 C 0.41045(19) 0.94059(16) 0.2340(2)
C29 C 0.3980(5) 0.9618(5) 0.2694(6)
H21 H 0.4050 0.9868 0.2667
C30 C 0.3738(4) 0.9498(3) 0.3134(4)
H22 H 0.3637 0.9668 0.3367
C31 C 0.4025(5) 0.9020(4) 0.2388(5)
H23 H 0.4126 0.8859 0.2145
C32 C 0.3793(5) 0.8880(3) 0.2803(4)
H24 H 0.3724 0.8630 0.2822
C33 C 0.36651(18) 0.91248(15) 0.31950(19)
N1 N 0.23153(17) 0.78555(13) 0.64764(14)
C34 C 0.2543(3) 0.76096(11) 0.6170(2)
H25 H 0.2540 0.7358 0.6239
C35 C 0.2774(3) 0.77403(14) 0.5758(2)
H26 H 0.2926 0.7576 0.5553
C36 C 0.27780(19) 0.81168(15) 0.56540(17)
C37 C 0.2550(3) 0.83627(11) 0.5961(2)
H27 H 0.2553 0.8615 0.5891
C38 C 0.2319(3) 0.82321(13) 0.6372(2)
H28 H 0.2167 0.8397 0.6577
C39 C 0.3009(2) 0.82571(16) 0.5199(2)
C40 C 0.3443(4) 0.8415(3) 0.5230(5)
H29 H 0.3599 0.8432 0.5528
C41 C 0.3622(5) 0.8541(4) 0.4803(5)
H30 H 0.3914 0.8637 0.4824
C42 C 0.2797(5) 0.8232(4) 0.4744(5)
H31 H 0.2507 0.8132 0.4722
C43 C 0.3015(5) 0.8358(4) 0.4317(4)
H32 H 0.2886 0.8319 0.4008
C44 C 0.34360(18) 0.85468(16) 0.4363(2)
C45 C 0.36463(18) 0.87052(14) 0.39068(18)
C46 C 0.34444(17) 0.89678(14) 0.36307(18)
N2 N 0.62715(16) 0.78227(14) 0.31130(15)
N3 N 0.07870(19) 0.98123(18) 0.4337(2)
N4 N 0.48106(18) 0.98181(18) 0.10664(18)
Cu1 Cu 0.69288(2) 0.76604(2) 0.29338(2)
Cu2 Cu 0.01561(3) 0.99970(3) 0.45412(3)
I1 I 0.71118(2) 0.69508(2) 0.28737(2)
Cu3 Cu 0.69288(2) 0.73396(2) 0.20662(2)
Cu4 Cu 0.19288(2) 0.76604(2) 0.70662(2)
N5 N 0.73153(17) 0.78555(13) 0.35236(14)
I3 I 0.71118(2) 0.80492(2) 0.21263(2)
Cu6 Cu 0.98439(3) 0.00030(3) 0.54588(3)
N6 N 0.98106(18) 0.01819(18) 0.39336(18)
I4 I 0.97059(2) 0.94152(2) 0.48845(2)
C6_2 C 0.00444(18) 0.17350(15) 0.35171(19)
C7_2 C 0.0386(3) 0.1730(3) 0.3177(3)
H5_2 H 0.0335 0.1820 0.2860
C8_2 C 0.0810(3) 0.1592(3) 0.3305(4)
H6_2 H 0.1044 0.1593 0.3075
C9_2 C 0.0131(4) 0.1590(4) 0.3975(4)
C10_2 C 0.0539(4) 0.1465(4) 0.4097(4)
H8_2 H 0.0584 0.1382 0.4418
C11_2 C 0.08895(17) 0.14497(15) 0.37844(18)
C12_2 C 0.3840(3) 0.0048(3) 0.4482(5)
C13_2 C 0.3398(3) 0.0155(2) 0.4381(5)
H10_2 H 0.3151 0.0027 0.4511
C14_2 C 0.4157(3) 0.0454(5) 0.4059(5)
H11_2 H 0.4413 0.0571 0.3932
C15_2 C 0.3723(3) 0.0591(4) 0.3921(5)
H12_2 H 0.3711 0.0788 0.3701
C16_2 C 0.3339(2) 0.0457(2) 0.4085(2)
C17_2 C 0.2886(2) 0.06062(18) 0.3966(2)
C18_2 C 0.2817(4) 0.1019(4) 0.3919(5)
H13_2 H 0.3052 0.1188 0.3963
C19_2 C 0.2404(4) 0.1119(3) 0.3810(4)
H14_2 H 0.2355 0.1371 0.3762
C20_2 C 0.2556(4) 0.0400(3) 0.3839(5)
H15_2 H 0.2609 0.0147 0.3819
C21_2 C 0.2116(4) 0.0529(3) 0.3724(5)
H16_2 H 0.1895 0.0361 0.3625
C22_2 C 0.2014(2) 0.08791(16) 0.3757(2)
C24_2 C 0.0603(8) 0.0098(4) 0.1752(7)
C25_2 C 0.0204(5) 0.0548(5) 0.1163(5)
H19_2 H 0.0077 0.0704 0.0927
C26_2 C 0.0392(5) 0.0721(4) 0.1583(5)
H20_2 H 0.0362 0.0971 0.1656
C27_2 C 0.0651(2) 0.04440(18) 0.1899(2)
C28_2 C 0.08955(19) 0.05941(16) 0.2340(2)
C29_2 C 0.1020(5) 0.0382(5) 0.2694(6)
H21_2 H 0.0950 0.0132 0.2667
C30_2 C 0.1262(4) 0.0502(3) 0.3134(4)
H22_2 H 0.1363 0.0332 0.3367
C31_2 C 0.0975(5) 0.0980(4) 0.2388(5)
H23_2 H 0.0874 0.1141 0.2145
C32_2 C 0.1207(5) 0.1120(3) 0.2803(4)
H24_2 H 0.1276 0.1370 0.2822
C33_2 C 0.13349(18) 0.08752(15) 0.31950(19)
N1_2 N 0.26847(17) 0.21445(13) 0.64764(14)
C34_2 C 0.2457(3) 0.23904(11) 0.6170(2)
H25_2 H 0.2460 0.2642 0.6239
C35_2 C 0.2226(3) 0.22597(14) 0.5758(2)
H26_2 H 0.2074 0.2424 0.5553
C36_2 C 0.22220(19) 0.18832(15) 0.56540(17)
C37_2 C 0.2450(3) 0.16373(11) 0.5961(2)
H27_2 H 0.2447 0.1385 0.5891
C38_2 C 0.2681(3) 0.17679(13) 0.6372(2)
H28_2 H 0.2833 0.1603 0.6577
C39_2 C 0.1991(2) 0.17429(16) 0.5199(2)
C40_2 C 0.1557(4) 0.1585(3) 0.5230(5)
H29_2 H 0.1401 0.1568 0.5528
C41_2 C 0.1378(5) 0.1459(4) 0.4803(5)
H30_2 H 0.1086 0.1363 0.4824
C42_2 C 0.2203(5) 0.1768(4) 0.4744(5)
H31_2 H 0.2493 0.1868 0.4722
C43_2 C 0.1985(5) 0.1642(4) 0.4317(4)
H32_2 H 0.2114 0.1681 0.4008
C44_2 C 0.15640(18) 0.14532(16) 0.4363(2)
C45_2 C 0.13537(18) 0.12948(14) 0.39068(18)
C46_2 C 0.15556(17) 0.10322(14) 0.36307(18)
N3_2 N 0.42130(19) 0.01877(18) 0.4337(2)
N4_2 N 0.01894(18) 0.01819(18) 0.10664(18)
Cu2_2 Cu 0.48439(3) 0.00030(3) 0.45412(3)
Cu4_2 Cu 0.30712(2) 0.23396(2) 0.70662(2)
I4_2 I 0.52941(2) 0.05848(2) 0.48845(2)
H9_2 H 0.3868 0.9843 0.4687
C23_2 C 0.0445(8) 0.9999(4) 0.1326(6)
H17_2 H 0.0534 0.9769 0.1206
H18_2 H 0.0688 0.9912 0.1970
I2_2 I 0.47059(2) 0.94152(2) 0.51155(2)
Cu6_2 Cu 0.51561(3) 0.99970(3) 0.54588(3)
N6_2 N 0.51894(18) 0.98181(18) 0.39336(18)
C1_2 C 0.9014(3) 0.2072(3) 0.2779(3)
H1_2 H 0.8929 0.2085 0.2449
C2_2 C 0.9443(4) 0.1941(4) 0.2897(4)
H2_2 H 0.9642 0.1882 0.2642
C3_2 C 0.8872(5) 0.2178(4) 0.3609(4)
H3_2 H 0.8687 0.2284 0.3848
C4_2 C 0.9262(4) 0.2032(3) 0.3739(4)
H4_2 H 0.9333 0.2014 0.4072
C5_2 C 0.95870(18) 0.18950(16) 0.33724(19)
H7_2 H 0.9898 0.1580 0.4206
N2_2 N 0.87285(16) 0.21773(14) 0.31130(15)
Cu1_2 Cu 0.80712(2) 0.23396(2) 0.29338(2)
I1_2 I 0.78882(2) 0.30492(2) 0.28737(2)
Cu3_2 Cu 0.80712(2) 0.26604(2) 0.20662(2)
N5_2 N 0.76847(17) 0.21445(13) 0.35236(14)
I3_2 I 0.78882(2) 0.19508(2) 0.21263(2)
Cu5_2 Cu 0.98439(3) 0.99970(3) 0.04588(3)
C1_3 C 0.0986(3) 0.2072(3) 0.2221(3)
H1_3 H 0.1071 0.2085 0.2551
C2_3 C 0.0557(4) 0.1941(4) 0.2103(4)
H2_3 H 0.0358 0.1882 0.2358
C3_3 C 0.1128(5) 0.2178(4) 0.1391(4)
H3_3 H 0.1313 0.2284 0.1152
C4_3 C 0.0738(4) 0.2032(3) 0.1261(4)
H4_3 H 0.0667 0.2014 0.0928
C5_3 C 0.04130(18) 0.18950(16) 0.16276(19)
H7_3 H 0.0102 0.1580 0.0794
N2_3 N 0.12715(16) 0.21773(14) 0.18870(15)
Cu1_3 Cu 0.19288(2) 0.23396(2) 0.20662(2)
I1_3 I 0.21118(2) 0.30492(2) 0.21263(2)
Cu3_3 Cu 0.19288(2) 0.26604(2) 0.29338(2)
N5_3 N 0.23153(17) 0.21445(13) 0.14764(14)
I3_3 I 0.21118(2) 0.19508(2) 0.28737(2)
C6_3 C 0.99556(18) 0.17350(15) 0.14829(19)
C7_3 C 0.9614(3) 0.1730(3) 0.1823(3)
H5_3 H 0.9665 0.1820 0.2140
C8_3 C 0.9190(3) 0.1592(3) 0.1695(4)
H6_3 H 0.8956 0.1593 0.1925
C9_3 C 0.9869(4) 0.1590(4) 0.1025(4)
C10_3 C 0.9461(4) 0.1465(4) 0.0903(4)
H8_3 H 0.9416 0.1382 0.0582
C11_3 C 0.91105(17) 0.14497(15) 0.12156(18)
C12_3 C 0.6160(3) 0.0048(3) 0.0518(5)
C13_3 C 0.6602(3) 0.0155(2) 0.0619(5)
H10_3 H 0.6849 0.0027 0.0489
C14_3 C 0.5843(3) 0.0454(5) 0.0941(5)
H11_3 H 0.5587 0.0571 0.1068
C15_3 C 0.6277(3) 0.0591(4) 0.1079(5)
H12_3 H 0.6289 0.0788 0.1299
C16_3 C 0.6661(2) 0.0457(2) 0.0915(2)
C17_3 C 0.7114(2) 0.06062(18) 0.1034(2)
C18_3 C 0.7183(4) 0.1019(4) 0.1081(5)
H13_3 H 0.6948 0.1188 0.1037
C19_3 C 0.7596(4) 0.1119(3) 0.1190(4)
H14_3 H 0.7645 0.1371 0.1238
C20_3 C 0.7444(4) 0.0400(3) 0.1161(5)
H15_3 H 0.7391 0.0147 0.1181
C21_3 C 0.7884(4) 0.0529(3) 0.1276(5)
H16_3 H 0.8105 0.0361 0.1375
C22_3 C 0.7986(2) 0.08791(16) 0.1243(2)
C24_3 C 0.9397(8) 0.0098(4) 0.3248(7)
C25_3 C 0.9796(5) 0.0548(5) 0.3837(5)
H19_3 H 0.9923 0.0704 0.4073
C26_3 C 0.9608(5) 0.0721(4) 0.3417(5)
H20_3 H 0.9638 0.0971 0.3344
C27_3 C 0.9349(2) 0.04440(18) 0.3101(2)
C28_3 C 0.91045(19) 0.05941(16) 0.2660(2)
C29_3 C 0.8980(5) 0.0382(5) 0.2306(6)
H21_3 H 0.9050 0.0132 0.2333
C30_3 C 0.8738(4) 0.0502(3) 0.1866(4)
H22_3 H 0.8637 0.0332 0.1633
C31_3 C 0.9025(5) 0.0980(4) 0.2612(5)
H23_3 H 0.9126 0.1141 0.2855
C32_3 C 0.8793(5) 0.1120(3) 0.2197(4)
H24_3 H 0.8724 0.1370 0.2178
C33_3 C 0.86651(18) 0.08752(15) 0.18050(19)
C41_3 C 0.8622(5) 0.1459(4) 0.0197(5)
H30_3 H 0.8914 0.1363 0.0176
C42_3 C 0.7797(5) 0.1768(4) 0.0256(5)
H31_3 H 0.7507 0.1868 0.0278
C43_3 C 0.8015(5) 0.1642(4) 0.0683(4)
H32_3 H 0.7886 0.1681 0.0992
C44_3 C 0.84360(18) 0.14532(16) 0.0637(2)
C45_3 C 0.86463(18) 0.12948(14) 0.10932(18)
C46_3 C 0.84444(17) 0.10322(14) 0.13693(18)
N3_3 N 0.57870(19) 0.01877(18) 0.0663(2)
I4_3 I 0.47059(2) 0.05848(2) 0.01155(2)
N1_3 N 0.73153(17) 0.21445(13) 0.85236(14)
C34_3 C 0.7543(3) 0.23904(11) 0.8830(2)
H25_3 H 0.7540 0.2642 0.8761
C35_3 C 0.7774(3) 0.22597(14) 0.9242(2)
H26_3 H 0.7926 0.2424 0.9447
C36_3 C 0.77780(19) 0.18832(15) 0.93460(17)
C37_3 C 0.7550(3) 0.16373(11) 0.9039(2)
H27_3 H 0.7553 0.1385 0.9109
C38_3 C 0.7319(3) 0.17679(13) 0.8628(2)
H28_3 H 0.7167 0.1603 0.8423
C39_3 C 0.8009(2) 0.17429(16) 0.9801(2)
C40_3 C 0.8443(4) 0.1585(3) 0.9770(5)
H29_3 H 0.8599 0.1568 0.9472
Cu4_3 Cu 0.69288(2) 0.23396(2) 0.79338(2)
H9_3 H 0.6132 0.9843 0.0313
C23_3 C 0.9555(8) 0.9999(4) 0.3674(6)
H17_3 H 0.9466 0.9769 0.3794
H18_3 H 0.9312 0.9912 0.3030
I2_3 I 0.52941(2) 0.94152(2) 0.98845(2)
Cu6_3 Cu 0.48439(3) 0.99970(3) 0.95412(3)
Cu6_4 Cu 0.01561(3) 0.00030(3) 0.95412(3)
H9_4 H 0.8868 0.0157 0.0313
C23_4 C 0.5445(8) 0.0001(4) 0.3674(6)
H17_4 H 0.5534 0.0231 0.3794
H18_4 H 0.5688 0.0088 0.3030
C1_4 C 0.4014(3) 0.7928(3) 0.2221(3)
H1_4 H 0.3929 0.7915 0.2551
C2_4 C 0.4443(4) 0.8059(4) 0.2103(4)
H2_4 H 0.4642 0.8118 0.2358
C3_4 C 0.3872(5) 0.7822(4) 0.1391(4)
H3_4 H 0.3687 0.7716 0.1152
C4_4 C 0.4262(4) 0.7968(3) 0.1261(4)
H4_4 H 0.4333 0.7986 0.0928
C5_4 C 0.45870(18) 0.81050(16) 0.16276(19)
C6_4 C 0.50444(18) 0.82650(15) 0.14829(19)
C7_4 C 0.5386(3) 0.8270(3) 0.1823(3)
H5_4 H 0.5335 0.8180 0.2140
C8_4 C 0.5810(3) 0.8408(3) 0.1695(4)
H6_4 H 0.6044 0.8407 0.1925
C9_4 C 0.5131(4) 0.8410(4) 0.1025(4)
H7_4 H 0.4898 0.8420 0.0794
C10_4 C 0.5539(4) 0.8535(4) 0.0903(4)
H8_4 H 0.5584 0.8618 0.0582
C11_4 C 0.58895(17) 0.85503(15) 0.12156(18)
C12_4 C 0.8840(3) 0.9952(3) 0.0518(5)
C13_4 C 0.8398(3) 0.9845(2) 0.0619(5)
H10_4 H 0.8151 0.9973 0.0489
C14_4 C 0.9157(3) 0.9546(5) 0.0941(5)
H11_4 H 0.9413 0.9429 0.1068
C15_4 C 0.8723(3) 0.9409(4) 0.1079(5)
H12_4 H 0.8711 0.9212 0.1299
C16_4 C 0.8339(2) 0.9543(2) 0.0915(2)
C17_4 C 0.7886(2) 0.93938(18) 0.1034(2)
C18_4 C 0.7817(4) 0.8981(4) 0.1081(5)
H13_4 H 0.8052 0.8812 0.1037
C19_4 C 0.7404(4) 0.8881(3) 0.1190(4)
H14_4 H 0.7355 0.8629 0.1238
C20_4 C 0.7556(4) 0.9600(3) 0.1161(5)
H15_4 H 0.7609 0.9853 0.1181
C21_4 C 0.7116(4) 0.9471(3) 0.1276(5)
H16_4 H 0.6895 0.9639 0.1375
C22_4 C 0.7014(2) 0.91209(16) 0.1243(2)
C24_4 C 0.5603(8) 0.9902(4) 0.3248(7)
C25_4 C 0.5204(5) 0.9452(5) 0.3837(5)
H19_4 H 0.5077 0.9296 0.4073
C26_4 C 0.5392(5) 0.9279(4) 0.3417(5)
H20_4 H 0.5362 0.9029 0.3344
C27_4 C 0.5651(2) 0.95560(18) 0.3101(2)
C28_4 C 0.58955(19) 0.94059(16) 0.2660(2)
C29_4 C 0.6020(5) 0.9618(5) 0.2306(6)
H21_4 H 0.5950 0.9868 0.2333
C30_4 C 0.6262(4) 0.9498(3) 0.1866(4)
H22_4 H 0.6363 0.9668 0.1633
C31_4 C 0.5975(5) 0.9020(4) 0.2612(5)
H23_4 H 0.5874 0.8859 0.2855
C32_4 C 0.6207(5) 0.8880(3) 0.2197(4)
H24_4 H 0.6276 0.8630 0.2178
C33_4 C 0.63349(18) 0.91248(15) 0.18050(19)
C41_4 C 0.6378(5) 0.8541(4) 0.0197(5)
H30_4 H 0.6086 0.8637 0.0176
C42_4 C 0.7203(5) 0.8232(4) 0.0256(5)
H31_4 H 0.7493 0.8132 0.0278
C43_4 C 0.6985(5) 0.8358(4) 0.0683(4)
H32_4 H 0.7114 0.8319 0.0992
C44_4 C 0.65640(18) 0.85468(16) 0.0637(2)
C45_4 C 0.63537(18) 0.87052(14) 0.10932(18)
C46_4 C 0.65556(17) 0.89678(14) 0.13693(18)
N2_4 N 0.37285(16) 0.78227(14) 0.18870(15)
N3_4 N 0.92130(19) 0.98123(18) 0.0663(2)
Cu1_4 Cu 0.30712(2) 0.76604(2) 0.20662(2)
I1_4 I 0.28882(2) 0.69508(2) 0.21263(2)
Cu3_4 Cu 0.30712(2) 0.73396(2) 0.29338(2)
N5_4 N 0.26847(17) 0.78555(13) 0.14764(14)
I3_4 I 0.28882(2) 0.80492(2) 0.28737(2)
N1_4 N 0.76847(17) 0.78555(13) 0.85236(14)
C34_4 C 0.7457(3) 0.76096(11) 0.8830(2)
H25_4 H 0.7460 0.7358 0.8761
C35_4 C 0.7226(3) 0.77403(14) 0.9242(2)
H26_4 H 0.7074 0.7576 0.9447
C36_4 C 0.72220(19) 0.81168(15) 0.93460(17)
C37_4 C 0.7450(3) 0.83627(11) 0.9039(2)
H27_4 H 0.7447 0.8615 0.9109
C38_4 C 0.7681(3) 0.82321(13) 0.8628(2)
H28_4 H 0.7833 0.8397 0.8423
C39_4 C 0.6991(2) 0.82571(16) 0.9801(2)
C40_4 C 0.6557(4) 0.8415(3) 0.9770(5)
H29_4 H 0.6401 0.8432 0.9472
Cu4_4 Cu 0.80712(2) 0.76604(2) 0.79338(2)
C1_5 C 0.0986(3) 0.2928(3) 0.2779(3)
H1_5 H 0.1071 0.2915 0.2449
C2_5 C 0.0557(4) 0.3059(4) 0.2897(4)
H2_5 H 0.0358 0.3118 0.2642
C3_5 C 0.1128(5) 0.2822(4) 0.3609(4)
H3_5 H 0.1313 0.2716 0.3848
C4_5 C 0.0738(4) 0.2968(3) 0.3739(4)
H4_5 H 0.0667 0.2986 0.4072
C5_5 C 0.04130(18) 0.31050(16) 0.33724(19)
H7_5 H 0.0102 0.3420 0.4206
N2_5 N 0.12715(16) 0.28227(14) 0.31130(15)
Cu5_3 Cu 0.01561(3) 0.50030(3) 0.04588(3)
N5_5 N 0.23153(17) 0.28555(13) 0.35236(14)
C6_5 C 0.99556(18) 0.32650(15) 0.35171(19)
C7_5 C 0.9614(3) 0.3270(3) 0.3177(3)
H5_5 H 0.9665 0.3180 0.2860
C8_5 C 0.9190(3) 0.3408(3) 0.3305(4)
H6_5 H 0.8956 0.3407 0.3075
C9_5 C 0.9869(4) 0.3410(4) 0.3975(4)
C10_5 C 0.9461(4) 0.3535(4) 0.4097(4)
H8_5 H 0.9416 0.3618 0.4418
C11_5 C 0.91105(17) 0.35503(15) 0.37844(18)
C12_5 C 0.6160(3) 0.4952(3) 0.4482(5)
H9_5 H 0.6132 0.5157 0.4687
C13_5 C 0.6602(3) 0.4845(2) 0.4381(5)
H10_5 H 0.6849 0.4973 0.4511
C14_5 C 0.5843(3) 0.4546(5) 0.4059(5)
H11_5 H 0.5587 0.4429 0.3932
C15_5 C 0.6277(3) 0.4409(4) 0.3921(5)
H12_5 H 0.6289 0.4212 0.3701
C16_5 C 0.6661(2) 0.4543(2) 0.4085(2)
C17_5 C 0.7114(2) 0.43938(18) 0.3966(2)
C18_5 C 0.7183(4) 0.3981(4) 0.3919(5)
H13_5 H 0.6948 0.3812 0.3963
C19_5 C 0.7596(4) 0.3881(3) 0.3810(4)
H14_5 H 0.7645 0.3629 0.3762
C20_5 C 0.7444(4) 0.4600(3) 0.3839(5)
H15_5 H 0.7391 0.4853 0.3819
C21_5 C 0.7884(4) 0.4471(3) 0.3724(5)
H16_5 H 0.8105 0.4639 0.3625
C22_5 C 0.7986(2) 0.41209(16) 0.3757(2)
C23_5 C 0.9555(8) 0.5001(4) 0.1326(6)
H17_5 H 0.9466 0.5231 0.1206
C24_5 C 0.9397(8) 0.4902(4) 0.1752(7)
H18_5 H 0.9312 0.5088 0.1970
C25_5 C 0.9796(5) 0.4452(5) 0.1163(5)
H19_5 H 0.9923 0.4296 0.0927
C26_5 C 0.9608(5) 0.4279(4) 0.1583(5)
H20_5 H 0.9638 0.4029 0.1656
C27_5 C 0.9349(2) 0.45560(18) 0.1899(2)
C28_5 C 0.91045(19) 0.44059(16) 0.2340(2)
C29_5 C 0.8980(5) 0.4618(5) 0.2694(6)
H21_5 H 0.9050 0.4868 0.2667
C30_5 C 0.8738(4) 0.4498(3) 0.3134(4)
H22_5 H 0.8637 0.4668 0.3367
C31_5 C 0.9025(5) 0.4020(4) 0.2388(5)
H23_5 H 0.9126 0.3859 0.2145
C32_5 C 0.8793(5) 0.3880(3) 0.2803(4)
H24_5 H 0.8724 0.3630 0.2822
C33_5 C 0.86651(18) 0.41248(15) 0.31950(19)
N1_5 N 0.73153(17) 0.28555(13) 0.64764(14)
C34_5 C 0.7543(3) 0.26096(11) 0.6170(2)
H25_5 H 0.7540 0.2358 0.6239
C35_5 C 0.7774(3) 0.27403(14) 0.5758(2)
H26_5 H 0.7926 0.2576 0.5553
C36_5 C 0.77780(19) 0.31168(15) 0.56540(17)
C37_5 C 0.7550(3) 0.33627(11) 0.5961(2)
H27_5 H 0.7553 0.3615 0.5891
C38_5 C 0.7319(3) 0.32321(13) 0.6372(2)
H28_5 H 0.7167 0.3397 0.6577
C39_5 C 0.8009(2) 0.32571(16) 0.5199(2)
C40_5 C 0.8443(4) 0.3415(3) 0.5230(5)
H29_5 H 0.8599 0.3432 0.5528
C41_5 C 0.8622(5) 0.3541(4) 0.4803(5)
H30_5 H 0.8914 0.3637 0.4824
C42_5 C 0.7797(5) 0.3232(4) 0.4744(5)
H31_5 H 0.7507 0.3132 0.4722
C43_5 C 0.8015(5) 0.3358(4) 0.4317(4)
H32_5 H 0.7886 0.3319 0.4008
C44_5 C 0.84360(18) 0.35468(16) 0.4363(2)
C45_5 C 0.86463(18) 0.37052(14) 0.39068(18)
C46_5 C 0.84444(17) 0.39678(14) 0.36307(18)
N3_5 N 0.57870(19) 0.48123(18) 0.4337(2)
N4_3 N 0.98106(18) 0.48181(18) 0.10664(18)
Cu2_3 Cu 0.51561(3) 0.49970(3) 0.45412(3)
I2_4 I 0.52941(2) 0.55848(2) 0.51155(2)
Cu4_5 Cu 0.69288(2) 0.26604(2) 0.70662(2)
Cu6_5 Cu 0.48439(3) 0.50030(3) 0.54588(3)
N6_3 N 0.48106(18) 0.51819(18) 0.39336(18)
I4_4 I 0.47059(2) 0.44152(2) 0.48845(2)
Cu6_6 Cu 0.01561(3) 0.49970(3) 0.54588(3)
N6_4 N 0.01894(18) 0.48181(18) 0.39336(18)
I4_5 I 0.02941(2) 0.55848(2) 0.48845(2)
C1_6 C 0.4014(3) 0.7072(3) 0.2779(3)
H1_6 H 0.3929 0.7085 0.2449
C2_6 C 0.4443(4) 0.6941(4) 0.2897(4)
H2_6 H 0.4642 0.6882 0.2642
C3_6 C 0.3872(5) 0.7178(4) 0.3609(4)
H3_6 H 0.3687 0.7284 0.3848
C4_6 C 0.4262(4) 0.7032(3) 0.3739(4)
H4_6 H 0.4333 0.7014 0.4072
C5_6 C 0.45870(18) 0.68950(16) 0.33724(19)
C6_6 C 0.50444(18) 0.67350(15) 0.35171(19)
C7_6 C 0.5386(3) 0.6730(3) 0.3177(3)
H5_6 H 0.5335 0.6820 0.2860
C8_6 C 0.5810(3) 0.6592(3) 0.3305(4)
H6_6 H 0.6044 0.6593 0.3075
C9_6 C 0.5131(4) 0.6590(4) 0.3975(4)
H7_6 H 0.4898 0.6580 0.4206
C10_6 C 0.5539(4) 0.6465(4) 0.4097(4)
H8_6 H 0.5584 0.6382 0.4418
C11_6 C 0.58895(17) 0.64497(15) 0.37844(18)
C12_6 C 0.8840(3) 0.5048(3) 0.4482(5)
H9_6 H 0.8868 0.4843 0.4687
C13_6 C 0.8398(3) 0.5155(2) 0.4381(5)
H10_6 H 0.8151 0.5027 0.4511
C14_6 C 0.9157(3) 0.5454(5) 0.4059(5)
H11_6 H 0.9413 0.5571 0.3932
C15_6 C 0.8723(3) 0.5591(4) 0.3921(5)
H12_6 H 0.8711 0.5788 0.3701
C16_6 C 0.8339(2) 0.5457(2) 0.4085(2)
C17_6 C 0.7886(2) 0.56062(18) 0.3966(2)
C18_6 C 0.7817(4) 0.6019(4) 0.3919(5)
H13_6 H 0.8052 0.6188 0.3963
C19_6 C 0.7404(4) 0.6119(3) 0.3810(4)
H14_6 H 0.7355 0.6371 0.3762
C20_6 C 0.7556(4) 0.5400(3) 0.3839(5)
H15_6 H 0.7609 0.5147 0.3819
C21_6 C 0.7116(4) 0.5529(3) 0.3724(5)
H16_6 H 0.6895 0.5361 0.3625
C22_6 C 0.7014(2) 0.58791(16) 0.3757(2)
C23_6 C 0.5445(8) 0.4999(4) 0.1326(6)
H17_6 H 0.5534 0.4769 0.1206
C24_6 C 0.5603(8) 0.5098(4) 0.1752(7)
H18_6 H 0.5688 0.4912 0.1970
C25_6 C 0.5204(5) 0.5548(5) 0.1163(5)
H19_6 H 0.5077 0.5704 0.0927
C26_6 C 0.5392(5) 0.5721(4) 0.1583(5)
H20_6 H 0.5362 0.5971 0.1656
C27_6 C 0.5651(2) 0.54440(18) 0.1899(2)
C28_6 C 0.58955(19) 0.55941(16) 0.2340(2)
C29_6 C 0.6020(5) 0.5382(5) 0.2694(6)
H21_6 H 0.5950 0.5132 0.2667
C30_6 C 0.6262(4) 0.5502(3) 0.3134(4)
H22_6 H 0.6363 0.5332 0.3367
C31_6 C 0.5975(5) 0.5980(4) 0.2388(5)
H23_6 H 0.5874 0.6141 0.2145
C32_6 C 0.6207(5) 0.6120(3) 0.2803(4)
H24_6 H 0.6276 0.6370 0.2822
C33_6 C 0.63349(18) 0.58752(15) 0.31950(19)
N1_6 N 0.76847(17) 0.71445(13) 0.64764(14)
C34_6 C 0.7457(3) 0.73904(11) 0.6170(2)
H25_6 H 0.7460 0.7642 0.6239
C35_6 C 0.7226(3) 0.72597(14) 0.5758(2)
H26_6 H 0.7074 0.7424 0.5553
C36_6 C 0.72220(19) 0.68832(15) 0.56540(17)
C37_6 C 0.7450(3) 0.66373(11) 0.5961(2)
H27_6 H 0.7447 0.6385 0.5891
C38_6 C 0.7681(3) 0.67679(13) 0.6372(2)
H28_6 H 0.7833 0.6603 0.6577
C39_6 C 0.6991(2) 0.67429(16) 0.5199(2)
C40_6 C 0.6557(4) 0.6585(3) 0.5230(5)
H29_6 H 0.6401 0.6568 0.5528
C41_6 C 0.6378(5) 0.6459(4) 0.4803(5)
H30_6 H 0.6086 0.6363 0.4824
C42_6 C 0.7203(5) 0.6768(4) 0.4744(5)
H31_6 H 0.7493 0.6868 0.4722
C43_6 C 0.6985(5) 0.6642(4) 0.4317(4)
H32_6 H 0.7114 0.6681 0.4008
C44_6 C 0.65640(18) 0.64532(16) 0.4363(2)
C45_6 C 0.63537(18) 0.62948(14) 0.39068(18)
C46_6 C 0.65556(17) 0.60322(14) 0.36307(18)
N2_6 N 0.37285(16) 0.71773(14) 0.31130(15)
N3_6 N 0.92130(19) 0.51877(18) 0.4337(2)
N4_4 N 0.51894(18) 0.51819(18) 0.10664(18)
Cu2_4 Cu 0.98439(3) 0.50030(3) 0.45412(3)
I2_5 I 0.97059(2) 0.44152(2) 0.51155(2)
Cu4_6 Cu 0.80712(2) 0.73396(2) 0.70662(2)
Cu5_4 Cu 0.48439(3) 0.49970(3) 0.04588(3)
N5_6 N 0.26847(17) 0.71445(13) 0.35236(14)
C1_7 C 0.5986(3) 0.7072(3) 0.2221(3)
H1_7 H 0.6071 0.7085 0.2551
C2_7 C 0.5557(4) 0.6941(4) 0.2103(4)
H2_7 H 0.5358 0.6882 0.2358
C3_7 C 0.6128(5) 0.7178(4) 0.1391(4)
H3_7 H 0.6313 0.7284 0.1152
C4_7 C 0.5738(4) 0.7032(3) 0.1261(4)
H4_7 H 0.5667 0.7014 0.0928
C5_7 C 0.54130(18) 0.68950(16) 0.16276(19)
C6_7 C 0.49556(18) 0.67350(15) 0.14829(19)
C7_7 C 0.4614(3) 0.6730(3) 0.1823(3)
H5_7 H 0.4665 0.6820 0.2140
C8_7 C 0.4190(3) 0.6592(3) 0.1695(4)
H6_7 H 0.3956 0.6593 0.1925
C9_7 C 0.4869(4) 0.6590(4) 0.1025(4)
H7_7 H 0.5102 0.6580 0.0794
C10_7 C 0.4461(4) 0.6465(4) 0.0903(4)
H8_7 H 0.4416 0.6382 0.0582
C11_7 C 0.41105(17) 0.64497(15) 0.12156(18)
C12_7 C 0.1160(3) 0.5048(3) 0.0518(5)
H9_7 H 0.1132 0.4843 0.0313
C13_7 C 0.1602(3) 0.5155(2) 0.0619(5)
H10_7 H 0.1849 0.5027 0.0489
C14_7 C 0.0843(3) 0.5454(5) 0.0941(5)
H11_7 H 0.0587 0.5571 0.1068
C15_7 C 0.1277(3) 0.5591(4) 0.1079(5)
H12_7 H 0.1289 0.5788 0.1299
C16_7 C 0.1661(2) 0.5457(2) 0.0915(2)
C17_7 C 0.2114(2) 0.56062(18) 0.1034(2)
C18_7 C 0.2183(4) 0.6019(4) 0.1081(5)
H13_7 H 0.1948 0.6188 0.1037
C19_7 C 0.2596(4) 0.6119(3) 0.1190(4)
H14_7 H 0.2645 0.6371 0.1238
C20_7 C 0.2444(4) 0.5400(3) 0.1161(5)
H15_7 H 0.2391 0.5147 0.1181
C21_7 C 0.2884(4) 0.5529(3) 0.1276(5)
H16_7 H 0.3105 0.5361 0.1375
C22_7 C 0.2986(2) 0.58791(16) 0.1243(2)
C23_7 C 0.4555(8) 0.4999(4) 0.3674(6)
H17_7 H 0.4466 0.4769 0.3794
C24_7 C 0.4397(8) 0.5098(4) 0.3248(7)
H18_7 H 0.4312 0.4912 0.3030
C25_7 C 0.4796(5) 0.5548(5) 0.3837(5)
H19_7 H 0.4923 0.5704 0.4073
C26_7 C 0.4608(5) 0.5721(4) 0.3417(5)
H20_7 H 0.4638 0.5971 0.3344
C27_7 C 0.4349(2) 0.54440(18) 0.3101(2)
C28_7 C 0.41045(19) 0.55941(16) 0.2660(2)
C29_7 C 0.3980(5) 0.5382(5) 0.2306(6)
H21_7 H 0.4050 0.5132 0.2333
C30_7 C 0.3738(4) 0.5502(3) 0.1866(4)
H22_7 H 0.3637 0.5332 0.1633
C31_7 C 0.4025(5) 0.5980(4) 0.2612(5)
H23_7 H 0.4126 0.6141 0.2855
C32_7 C 0.3793(5) 0.6120(3) 0.2197(4)
H24_7 H 0.3724 0.6370 0.2178
C33_7 C 0.36651(18) 0.58752(15) 0.18050(19)
C41_7 C 0.3622(5) 0.6459(4) 0.0197(5)
H30_7 H 0.3914 0.6363 0.0176
C42_7 C 0.2797(5) 0.6768(4) 0.0256(5)
H31_7 H 0.2507 0.6868 0.0278
C43_7 C 0.3015(5) 0.6642(4) 0.0683(4)
H32_7 H 0.2886 0.6681 0.0992
C44_7 C 0.34360(18) 0.64532(16) 0.0637(2)
C45_7 C 0.36463(18) 0.62948(14) 0.10932(18)
C46_7 C 0.34444(17) 0.60322(14) 0.13693(18)
N2_7 N 0.62715(16) 0.71773(14) 0.18870(15)
N3_7 N 0.07870(19) 0.51877(18) 0.0663(2)
N5_7 N 0.73153(17) 0.71445(13) 0.14764(14)
N1_7 N 0.23153(17) 0.71445(13) 0.85236(14)
C34_7 C 0.2543(3) 0.73904(11) 0.8830(2)
H25_7 H 0.2540 0.7642 0.8761
C35_7 C 0.2774(3) 0.72597(14) 0.9242(2)
H26_7 H 0.2926 0.7424 0.9447
C36_7 C 0.27780(19) 0.68832(15) 0.93460(17)
C37_7 C 0.2550(3) 0.66373(11) 0.9039(2)
H27_7 H 0.2553 0.6385 0.9109
C38_7 C 0.2319(3) 0.67679(13) 0.8628(2)
H28_7 H 0.2167 0.6603 0.8423
C39_7 C 0.3009(2) 0.67429(16) 0.9801(2)
C40_7 C 0.3443(4) 0.6585(3) 0.9770(5)
H29_7 H 0.3599 0.6568 0.9472
I2_6 I 0.02941(2) 0.44152(2) 0.98845(2)
Cu4_7 Cu 0.19288(2) 0.73396(2) 0.79338(2)
I4_6 I 0.97059(2) 0.55848(2) 0.01155(2)
Cu6_7 Cu 0.98439(3) 0.49970(3) 0.95412(3)
C6_8 C 0.00444(18) 0.32650(15) 0.14829(19)
C7_8 C 0.0386(3) 0.3270(3) 0.1823(3)
H5_8 H 0.0335 0.3180 0.2140
C8_8 C 0.0810(3) 0.3408(3) 0.1695(4)
H6_8 H 0.1044 0.3407 0.1925
C9_8 C 0.0131(4) 0.3410(4) 0.1025(4)
C10_8 C 0.0539(4) 0.3535(4) 0.0903(4)
H8_8 H 0.0584 0.3618 0.0582
C11_8 C 0.08895(17) 0.35503(15) 0.12156(18)
C12_8 C 0.3840(3) 0.4952(3) 0.0518(5)
H9_8 H 0.3868 0.5157 0.0313
C13_8 C 0.3398(3) 0.4845(2) 0.0619(5)
H10_8 H 0.3151 0.4973 0.0489
C14_8 C 0.4157(3) 0.4546(5) 0.0941(5)
H11_8 H 0.4413 0.4429 0.1068
C15_8 C 0.3723(3) 0.4409(4) 0.1079(5)
H12_8 H 0.3711 0.4212 0.1299
C16_8 C 0.3339(2) 0.4543(2) 0.0915(2)
C17_8 C 0.2886(2) 0.43938(18) 0.1034(2)
C18_8 C 0.2817(4) 0.3981(4) 0.1081(5)
H13_8 H 0.3052 0.3812 0.1037
C19_8 C 0.2404(4) 0.3881(3) 0.1190(4)
H14_8 H 0.2355 0.3629 0.1238
C20_8 C 0.2556(4) 0.4600(3) 0.1161(5)
H15_8 H 0.2609 0.4853 0.1181
C21_8 C 0.2116(4) 0.4471(3) 0.1276(5)
H16_8 H 0.1895 0.4639 0.1375
C22_8 C 0.2014(2) 0.41209(16) 0.1243(2)
C23_8 C 0.0445(8) 0.5001(4) 0.3674(6)
H17_8 H 0.0534 0.5231 0.3794
C24_8 C 0.0603(8) 0.4902(4) 0.3248(7)
H18_8 H 0.0688 0.5088 0.3030
C25_8 C 0.0204(5) 0.4452(5) 0.3837(5)
H19_8 H 0.0077 0.4296 0.4073
C26_8 C 0.0392(5) 0.4279(4) 0.3417(5)
H20_8 H 0.0362 0.4029 0.3344
C27_8 C 0.0651(2) 0.45560(18) 0.3101(2)
C28_8 C 0.08955(19) 0.44059(16) 0.2660(2)
C29_8 C 0.1020(5) 0.4618(5) 0.2306(6)
H21_8 H 0.0950 0.4868 0.2333
C30_8 C 0.1262(4) 0.4498(3) 0.1866(4)
H22_8 H 0.1363 0.4668 0.1633
C31_8 C 0.0975(5) 0.4020(4) 0.2612(5)
H23_8 H 0.0874 0.3859 0.2855
C32_8 C 0.1207(5) 0.3880(3) 0.2197(4)
H24_8 H 0.1276 0.3630 0.2178
C33_8 C 0.13349(18) 0.41248(15) 0.18050(19)
C41_8 C 0.1378(5) 0.3541(4) 0.0197(5)
H30_8 H 0.1086 0.3637 0.0176
C42_8 C 0.2203(5) 0.3232(4) 0.0256(5)
H31_8 H 0.2493 0.3132 0.0278
C43_8 C 0.1985(5) 0.3358(4) 0.0683(4)
H32_8 H 0.2114 0.3319 0.0992
C44_8 C 0.15640(18) 0.35468(16) 0.0637(2)
C45_8 C 0.13537(18) 0.37052(14) 0.10932(18)
C46_8 C 0.15556(17) 0.39678(14) 0.13693(18)
N3_8 N 0.42130(19) 0.48123(18) 0.0663(2)
I4_7 I 0.52941(2) 0.44152(2) 0.01155(2)
N1_8 N 0.26847(17) 0.28555(13) 0.85236(14)
C34_8 C 0.2457(3) 0.26096(11) 0.8830(2)
H25_8 H 0.2460 0.2358 0.8761
C35_8 C 0.2226(3) 0.27403(14) 0.9242(2)
H26_8 H 0.2074 0.2576 0.9447
C36_8 C 0.22220(19) 0.31168(15) 0.93460(17)
C37_8 C 0.2450(3) 0.33627(11) 0.9039(2)
H27_8 H 0.2447 0.3615 0.9109
C38_8 C 0.2681(3) 0.32321(13) 0.8628(2)
H28_8 H 0.2833 0.3397 0.8423
C39_8 C 0.1991(2) 0.32571(16) 0.9801(2)
C40_8 C 0.1557(4) 0.3415(3) 0.9770(5)
H29_8 H 0.1401 0.3432 0.9472
I2_7 I 0.47059(2) 0.55848(2) 0.98845(2)
Cu4_8 Cu 0.30712(2) 0.26604(2) 0.79338(2)
Cu6_8 Cu 0.51561(3) 0.50030(3) 0.95412(3)
C1_8 C 0.9014(3) 0.2928(3) 0.2221(3)
H1_8 H 0.8929 0.2915 0.2551
C2_8 C 0.9443(4) 0.3059(4) 0.2103(4)
H2_8 H 0.9642 0.3118 0.2358
C3_8 C 0.8872(5) 0.2822(4) 0.1391(4)
H3_8 H 0.8687 0.2716 0.1152
C4_8 C 0.9262(4) 0.2968(3) 0.1261(4)
H4_8 H 0.9333 0.2986 0.0928
C5_8 C 0.95870(18) 0.31050(16) 0.16276(19)
H7_8 H 0.9898 0.3420 0.0794
N2_8 N 0.87285(16) 0.28227(14) 0.18870(15)
N5_8 N 0.76847(17) 0.28555(13) 0.14764(14)
N6_5 N 0.01894(18) 0.98181(18) 0.60664(18)
C1_9 C 0.4014(3) 0.2072(3) 0.7221(3)
H1_9 H 0.3929 0.2085 0.7551
C2_9 C 0.4443(4) 0.1941(4) 0.7103(4)
H2_9 H 0.4642 0.1882 0.7358
C3_9 C 0.3872(5) 0.2178(4) 0.6391(4)
H3_9 H 0.3687 0.2284 0.6152
C4_9 C 0.4262(4) 0.2032(3) 0.6261(4)
H4_9 H 0.4333 0.2014 0.5928
C5_9 C 0.45870(18) 0.18950(16) 0.66276(19)
C6_9 C 0.50444(18) 0.17350(15) 0.64829(19)
C7_9 C 0.5386(3) 0.1730(3) 0.6823(3)
H5_9 H 0.5335 0.1820 0.7140
C8_9 C 0.5810(3) 0.1592(3) 0.6695(4)
H6_9 H 0.6044 0.1593 0.6925
C9_9 C 0.5131(4) 0.1590(4) 0.6025(4)
H7_9 H 0.4898 0.1580 0.5794
C10_9 C 0.5539(4) 0.1465(4) 0.5903(4)
H8_9 H 0.5584 0.1382 0.5582
C11_9 C 0.58895(17) 0.14497(15) 0.62156(18)
C12_9 C 0.8840(3) 0.0048(3) 0.5518(5)
C13_9 C 0.8398(3) 0.0155(2) 0.5619(5)
H10_9 H 0.8151 0.0027 0.5489
C14_9 C 0.9157(3) 0.0454(5) 0.5941(5)
H11_9 H 0.9413 0.0571 0.6068
C15_9 C 0.8723(3) 0.0591(4) 0.6079(5)
H12_9 H 0.8711 0.0788 0.6299
C16_9 C 0.8339(2) 0.0457(2) 0.5915(2)
C17_9 C 0.7886(2) 0.06062(18) 0.6034(2)
C18_9 C 0.7817(4) 0.1019(4) 0.6081(5)
H13_9 H 0.8052 0.1188 0.6037
C19_9 C 0.7404(4) 0.1119(3) 0.6190(4)
H14_9 H 0.7355 0.1371 0.6238
C20_9 C 0.7556(4) 0.0400(3) 0.6161(5)
H15_9 H 0.7609 0.0147 0.6181
C21_9 C 0.7116(4) 0.0529(3) 0.6276(5)
H16_9 H 0.6895 0.0361 0.6375
C22_9 C 0.7014(2) 0.08791(16) 0.6243(2)
C24_9 C 0.5603(8) 0.0098(4) 0.8248(7)
C25_9 C 0.5204(5) 0.0548(5) 0.8837(5)
H19_9 H 0.5077 0.0704 0.9073
C26_9 C 0.5392(5) 0.0721(4) 0.8417(5)
H20_9 H 0.5362 0.0971 0.8344
C27_9 C 0.5651(2) 0.04440(18) 0.8101(2)
C28_9 C 0.58955(19) 0.05941(16) 0.7660(2)
C29_9 C 0.6020(5) 0.0382(5) 0.7306(6)
H21_9 H 0.5950 0.0132 0.7333
C30_9 C 0.6262(4) 0.0502(3) 0.6866(4)
H22_9 H 0.6363 0.0332 0.6633
C31_9 C 0.5975(5) 0.0980(4) 0.7612(5)
H23_9 H 0.5874 0.1141 0.7855
C32_9 C 0.6207(5) 0.1120(3) 0.7197(4)
H24_9 H 0.6276 0.1370 0.7178
C33_9 C 0.63349(18) 0.08752(15) 0.68050(19)
C34_9 C 0.7457(3) 0.23904(11) 0.3830(2)
H25_9 H 0.7460 0.2642 0.3761
C35_9 C 0.7226(3) 0.22597(14) 0.4242(2)
H26_9 H 0.7074 0.2424 0.4447
C36_9 C 0.72220(19) 0.18832(15) 0.43460(17)
C37_9 C 0.7450(3) 0.16373(11) 0.4039(2)
H27_9 H 0.7447 0.1385 0.4109
C38_9 C 0.7681(3) 0.17679(13) 0.3628(2)
H28_9 H 0.7833 0.1603 0.3423
C39_9 C 0.6991(2) 0.17429(16) 0.4801(2)
C40_9 C 0.6557(4) 0.1585(3) 0.4770(5)
H29_9 H 0.6401 0.1568 0.4472
C41_9 C 0.6378(5) 0.1459(4) 0.5197(5)
H30_9 H 0.6086 0.1363 0.5176
C42_9 C 0.7203(5) 0.1768(4) 0.5256(5)
H31_9 H 0.7493 0.1868 0.5278
C43_9 C 0.6985(5) 0.1642(4) 0.5683(4)
H32_9 H 0.7114 0.1681 0.5992
C44_9 C 0.65640(18) 0.14532(16) 0.5637(2)
C45_9 C 0.63537(18) 0.12948(14) 0.60932(18)
C46_9 C 0.65556(17) 0.10322(14) 0.63693(18)
N2_9 N 0.37285(16) 0.21773(14) 0.68870(15)
N3_9 N 0.92130(19) 0.01877(18) 0.5663(2)
N4_5 N 0.51894(18) 0.01819(18) 0.89336(18)
I1_5 I 0.28882(2) 0.30492(2) 0.71263(2)
I3_5 I 0.28882(2) 0.19508(2) 0.78737(2)
H9_9 H 0.8868 0.9843 0.5313
C23_9 C 0.5445(8) 0.9999(4) 0.8674(6)
H17_9 H 0.5534 0.9769 0.8794
H18_9 H 0.5688 0.9912 0.8030
C1_10 C 0.0986(3) 0.7928(3) 0.7221(3)
H1_10 H 0.1071 0.7915 0.7551
C2_10 C 0.0557(4) 0.8059(4) 0.7103(4)
H2_10 H 0.0358 0.8118 0.7358
C3_10 C 0.1128(5) 0.7822(4) 0.6391(4)
H3_10 H 0.1313 0.7716 0.6152
C4_10 C 0.0738(4) 0.7968(3) 0.6261(4)
H4_10 H 0.0667 0.7986 0.5928
C5_10 C 0.04130(18) 0.81050(16) 0.66276(19)
H7_10 H 0.0102 0.8420 0.5794
N2_10 N 0.12715(16) 0.78227(14) 0.68870(15)
I1_6 I 0.21118(2) 0.69508(2) 0.71263(2)
I3_6 I 0.21118(2) 0.80492(2) 0.78737(2)
H9_10 H 0.6132 0.0157 0.5313
C23_10 C 0.9555(8) 0.0001(4) 0.8674(6)
H17_10 H 0.9466 0.0231 0.8794
H18_10 H 0.9312 0.0088 0.8030
N6_6 N 0.48106(18) 0.01819(18) 0.60664(18)
C6_10 C 0.99556(18) 0.82650(15) 0.64829(19)
C7_10 C 0.9614(3) 0.8270(3) 0.6823(3)
H5_10 H 0.9665 0.8180 0.7140
C8_10 C 0.9190(3) 0.8408(3) 0.6695(4)
H6_10 H 0.8956 0.8407 0.6925
C9_10 C 0.9869(4) 0.8410(4) 0.6025(4)
C10_10 C 0.9461(4) 0.8535(4) 0.5903(4)
H8_10 H 0.9416 0.8618 0.5582
C11_10 C 0.91105(17) 0.85503(15) 0.62156(18)
C12_10 C 0.6160(3) 0.9952(3) 0.5518(5)
C13_10 C 0.6602(3) 0.9845(2) 0.5619(5)
H10_10 H 0.6849 0.9973 0.5489
C14_10 C 0.5843(3) 0.9546(5) 0.5941(5)
H11_10 H 0.5587 0.9429 0.6068
C15_10 C 0.6277(3) 0.9409(4) 0.6079(5)
H12_10 H 0.6289 0.9212 0.6299
C16_10 C 0.6661(2) 0.9543(2) 0.5915(2)
C17_10 C 0.7114(2) 0.93938(18) 0.6034(2)
C18_10 C 0.7183(4) 0.8981(4) 0.6081(5)
H13_10 H 0.6948 0.8812 0.6037
C19_10 C 0.7596(4) 0.8881(3) 0.6190(4)
H14_10 H 0.7645 0.8629 0.6238
C20_10 C 0.7444(4) 0.9600(3) 0.6161(5)
H15_10 H 0.7391 0.9853 0.6181
C21_10 C 0.7884(4) 0.9471(3) 0.6276(5)
H16_10 H 0.8105 0.9639 0.6375
C22_10 C 0.7986(2) 0.91209(16) 0.6243(2)
C24_10 C 0.9397(8) 0.9902(4) 0.8248(7)
C25_10 C 0.9796(5) 0.9452(5) 0.8837(5)
H19_10 H 0.9923 0.9296 0.9073
C26_10 C 0.9608(5) 0.9279(4) 0.8417(5)
H20_10 H 0.9638 0.9029 0.8344
C27_10 C 0.9349(2) 0.95560(18) 0.8101(2)
C28_10 C 0.91045(19) 0.94059(16) 0.7660(2)
C29_10 C 0.8980(5) 0.9618(5) 0.7306(6)
H21_10 H 0.9050 0.9868 0.7333
C30_10 C 0.8738(4) 0.9498(3) 0.6866(4)
H22_10 H 0.8637 0.9668 0.6633
C31_10 C 0.9025(5) 0.9020(4) 0.7612(5)
H23_10 H 0.9126 0.8859 0.7855
C32_10 C 0.8793(5) 0.8880(3) 0.7197(4)
H24_10 H 0.8724 0.8630 0.7178
C33_10 C 0.86651(18) 0.91248(15) 0.68050(19)
C34_10 C 0.7543(3) 0.76096(11) 0.3830(2)
H25_10 H 0.7540 0.7358 0.3761
C35_10 C 0.7774(3) 0.77403(14) 0.4242(2)
H26_10 H 0.7926 0.7576 0.4447
C36_10 C 0.77780(19) 0.81168(15) 0.43460(17)
C37_10 C 0.7550(3) 0.83627(11) 0.4039(2)
H27_10 H 0.7553 0.8615 0.4109
C38_10 C 0.7319(3) 0.82321(13) 0.3628(2)
H28_10 H 0.7167 0.8397 0.3423
C39_10 C 0.8009(2) 0.82571(16) 0.4801(2)
C40_10 C 0.8443(4) 0.8415(3) 0.4770(5)
H29_10 H 0.8599 0.8432 0.4472
C41_10 C 0.8622(5) 0.8541(4) 0.5197(5)
H30_10 H 0.8914 0.8637 0.5176
C42_10 C 0.7797(5) 0.8232(4) 0.5256(5)
H31_10 H 0.7507 0.8132 0.5278
C43_10 C 0.8015(5) 0.8358(4) 0.5683(4)
H32_10 H 0.7886 0.8319 0.5992
C44_10 C 0.84360(18) 0.85468(16) 0.5637(2)
C45_10 C 0.86463(18) 0.87052(14) 0.60932(18)
C46_10 C 0.84444(17) 0.89678(14) 0.63693(18)
N3_10 N 0.57870(19) 0.98123(18) 0.5663(2)
N4_6 N 0.98106(18) 0.98181(18) 0.89336(18)
H9_11 H 0.3868 0.0157 0.9687
C23_11 C 0.0445(8) 0.0001(4) 0.6326(6)
H17_11 H 0.0534 0.0231 0.6206
H18_11 H 0.0688 0.0088 0.6970
C34_11 C 0.2457(3) 0.76096(11) 0.1170(2)
H25_11 H 0.2460 0.7358 0.1239
C35_11 C 0.2226(3) 0.77403(14) 0.0758(2)
H26_11 H 0.2074 0.7576 0.0553
C36_11 C 0.22220(19) 0.81168(15) 0.06540(17)
C37_11 C 0.2450(3) 0.83627(11) 0.0961(2)
H27_11 H 0.2447 0.8615 0.0891
C38_11 C 0.2681(3) 0.82321(13) 0.1372(2)
H28_11 H 0.2833 0.8397 0.1577
C39_11 C 0.1991(2) 0.82571(16) 0.0199(2)
C40_11 C 0.1557(4) 0.8415(3) 0.0230(5)
H29_11 H 0.1401 0.8432 0.0528
C6_11 C 0.00444(18) 0.82650(15) 0.85171(19)
C7_11 C 0.0386(3) 0.8270(3) 0.8177(3)
H5_11 H 0.0335 0.8180 0.7860
C8_11 C 0.0810(3) 0.8408(3) 0.8305(4)
H6_11 H 0.1044 0.8407 0.8075
C9_11 C 0.0131(4) 0.8410(4) 0.8975(4)
C10_11 C 0.0539(4) 0.8535(4) 0.9097(4)
H8_11 H 0.0584 0.8618 0.9418
C11_11 C 0.08895(17) 0.85503(15) 0.87844(18)
C12_11 C 0.3840(3) 0.9952(3) 0.9482(5)
C13_11 C 0.3398(3) 0.9845(2) 0.9381(5)
H10_11 H 0.3151 0.9973 0.9511
C14_11 C 0.4157(3) 0.9546(5) 0.9059(5)
H11_11 H 0.4413 0.9429 0.8932
C15_11 C 0.3723(3) 0.9409(4) 0.8921(5)
H12_11 H 0.3711 0.9212 0.8701
C16_11 C 0.3339(2) 0.9543(2) 0.9085(2)
C17_11 C 0.2886(2) 0.93938(18) 0.8966(2)
C18_11 C 0.2817(4) 0.8981(4) 0.8919(5)
H13_11 H 0.3052 0.8812 0.8963
C19_11 C 0.2404(4) 0.8881(3) 0.8810(4)
H14_11 H 0.2355 0.8629 0.8762
C20_11 C 0.2556(4) 0.9600(3) 0.8839(5)
H15_11 H 0.2609 0.9853 0.8819
C21_11 C 0.2116(4) 0.9471(3) 0.8724(5)
H16_11 H 0.1895 0.9639 0.8625
C22_11 C 0.2014(2) 0.91209(16) 0.8757(2)
C24_11 C 0.0603(8) 0.9902(4) 0.6752(7)
C25_11 C 0.0204(5) 0.9452(5) 0.6163(5)
H19_11 H 0.0077 0.9296 0.5927
C26_11 C 0.0392(5) 0.9279(4) 0.6583(5)
H20_11 H 0.0362 0.9029 0.6656
C27_11 C 0.0651(2) 0.95560(18) 0.6899(2)
C28_11 C 0.08955(19) 0.94059(16) 0.7340(2)
C29_11 C 0.1020(5) 0.9618(5) 0.7694(6)
H21_11 H 0.0950 0.9868 0.7667
C30_11 C 0.1262(4) 0.9498(3) 0.8134(4)
H22_11 H 0.1363 0.9668 0.8367
C31_11 C 0.0975(5) 0.9020(4) 0.7388(5)
H23_11 H 0.0874 0.8859 0.7145
C32_11 C 0.1207(5) 0.8880(3) 0.7803(4)
H24_11 H 0.1276 0.8630 0.7822
C33_11 C 0.13349(18) 0.91248(15) 0.81950(19)
C41_11 C 0.1378(5) 0.8541(4) 0.9803(5)
H30_11 H 0.1086 0.8637 0.9824
C42_11 C 0.2203(5) 0.8232(4) 0.9744(5)
H31_11 H 0.2493 0.8132 0.9722
C43_11 C 0.1985(5) 0.8358(4) 0.9317(4)
H32_11 H 0.2114 0.8319 0.9008
C44_11 C 0.15640(18) 0.85468(16) 0.9363(2)
C45_11 C 0.13537(18) 0.87052(14) 0.89068(18)
C46_11 C 0.15556(17) 0.89678(14) 0.86307(18)
N3_11 N 0.42130(19) 0.98123(18) 0.9337(2)
C1_11 C 0.9014(3) 0.7928(3) 0.7779(3)
H1_11 H 0.8929 0.7915 0.7449
C2_11 C 0.9443(4) 0.8059(4) 0.7897(4)
H2_11 H 0.9642 0.8118 0.7642
C3_11 C 0.8872(5) 0.7822(4) 0.8609(4)
H3_11 H 0.8687 0.7716 0.8848
C4_11 C 0.9262(4) 0.7968(3) 0.8739(4)
H4_11 H 0.9333 0.7986 0.9072
C5_11 C 0.95870(18) 0.81050(16) 0.83724(19)
H7_11 H 0.9898 0.8420 0.9206
N2_11 N 0.87285(16) 0.78227(14) 0.81130(15)
I1_7 I 0.78882(2) 0.69508(2) 0.78737(2)
I3_7 I 0.78882(2) 0.80492(2) 0.71263(2)
C34_12 C 0.2543(3) 0.23904(11) 0.1170(2)
H25_12 H 0.2540 0.2642 0.1239
C35_12 C 0.2774(3) 0.22597(14) 0.0758(2)
H26_12 H 0.2926 0.2424 0.0553
C36_12 C 0.27780(19) 0.18832(15) 0.06540(17)
C37_12 C 0.2550(3) 0.16373(11) 0.0961(2)
H27_12 H 0.2553 0.1385 0.0891
C38_12 C 0.2319(3) 0.17679(13) 0.1372(2)
H28_12 H 0.2167 0.1603 0.1577
C39_12 C 0.3009(2) 0.17429(16) 0.0199(2)
C40_12 C 0.3443(4) 0.1585(3) 0.0230(5)
H29_12 H 0.3599 0.1568 0.0528
C1_12 C 0.5986(3) 0.2072(3) 0.7779(3)
H1_12 H 0.6071 0.2085 0.7449
C2_12 C 0.5557(4) 0.1941(4) 0.7897(4)
H2_12 H 0.5358 0.1882 0.7642
C3_12 C 0.6128(5) 0.2178(4) 0.8609(4)
H3_12 H 0.6313 0.2284 0.8848
C4_12 C 0.5738(4) 0.2032(3) 0.8739(4)
H4_12 H 0.5667 0.2014 0.9072
C5_12 C 0.54130(18) 0.18950(16) 0.83724(19)
C6_12 C 0.49556(18) 0.17350(15) 0.85171(19)
C7_12 C 0.4614(3) 0.1730(3) 0.8177(3)
H5_12 H 0.4665 0.1820 0.7860
C8_12 C 0.4190(3) 0.1592(3) 0.8305(4)
H6_12 H 0.3956 0.1593 0.8075
C9_12 C 0.4869(4) 0.1590(4) 0.8975(4)
H7_12 H 0.5102 0.1580 0.9206
C10_12 C 0.4461(4) 0.1465(4) 0.9097(4)
H8_12 H 0.4416 0.1382 0.9418
C11_12 C 0.41105(17) 0.14497(15) 0.87844(18)
C12_12 C 0.1160(3) 0.0048(3) 0.9482(5)
C13_12 C 0.1602(3) 0.0155(2) 0.9381(5)
H10_12 H 0.1849 0.0027 0.9511
C14_12 C 0.0843(3) 0.0454(5) 0.9059(5)
H11_12 H 0.0587 0.0571 0.8932
C15_12 C 0.1277(3) 0.0591(4) 0.8921(5)
H12_12 H 0.1289 0.0788 0.8701
C16_12 C 0.1661(2) 0.0457(2) 0.9085(2)
C17_12 C 0.2114(2) 0.06062(18) 0.8966(2)
C18_12 C 0.2183(4) 0.1019(4) 0.8919(5)
H13_12 H 0.1948 0.1188 0.8963
C19_12 C 0.2596(4) 0.1119(3) 0.8810(4)
H14_12 H 0.2645 0.1371 0.8762
C20_12 C 0.2444(4) 0.0400(3) 0.8839(5)
H15_12 H 0.2391 0.0147 0.8819
C21_12 C 0.2884(4) 0.0529(3) 0.8724(5)
H16_12 H 0.3105 0.0361 0.8625
C22_12 C 0.2986(2) 0.08791(16) 0.8757(2)
C24_12 C 0.4397(8) 0.0098(4) 0.6752(7)
C25_12 C 0.4796(5) 0.0548(5) 0.6163(5)
H19_12 H 0.4923 0.0704 0.5927
C26_12 C 0.4608(5) 0.0721(4) 0.6583(5)
H20_12 H 0.4638 0.0971 0.6656
C27_12 C 0.4349(2) 0.04440(18) 0.6899(2)
C28_12 C 0.41045(19) 0.05941(16) 0.7340(2)
C29_12 C 0.3980(5) 0.0382(5) 0.7694(6)
H21_12 H 0.4050 0.0132 0.7667
C30_12 C 0.3738(4) 0.0502(3) 0.8134(4)
H22_12 H 0.3637 0.0332 0.8367
C31_12 C 0.4025(5) 0.0980(4) 0.7388(5)
H23_12 H 0.4126 0.1141 0.7145
C32_12 C 0.3793(5) 0.1120(3) 0.7803(4)
H24_12 H 0.3724 0.1370 0.7822
C33_12 C 0.36651(18) 0.08752(15) 0.81950(19)
C41_12 C 0.3622(5) 0.1459(4) 0.9803(5)
H30_12 H 0.3914 0.1363 0.9824
C42_12 C 0.2797(5) 0.1768(4) 0.9744(5)
H31_12 H 0.2507 0.1868 0.9722
C43_12 C 0.3015(5) 0.1642(4) 0.9317(4)
H32_12 H 0.2886 0.1681 0.9008
C44_12 C 0.34360(18) 0.14532(16) 0.9363(2)
C45_12 C 0.36463(18) 0.12948(14) 0.89068(18)
C46_12 C 0.34444(17) 0.10322(14) 0.86307(18)
N2_12 N 0.62715(16) 0.21773(14) 0.81130(15)
N3_12 N 0.07870(19) 0.01877(18) 0.9337(2)
I1_8 I 0.71118(2) 0.30492(2) 0.78737(2)
I3_8 I 0.71118(2) 0.19508(2) 0.71263(2)
H9_12 H 0.1132 0.9843 0.9687
C23_12 C 0.4555(8) 0.9999(4) 0.6326(6)
H17_12 H 0.4466 0.9769 0.6206
H18_12 H 0.4312 0.9912 0.6970
C6_13 C 0.00444(18) 0.67350(15) 0.64829(19)
C7_13 C 0.0386(3) 0.6730(3) 0.6823(3)
H5_13 H 0.0335 0.6820 0.7140
C8_13 C 0.0810(3) 0.6592(3) 0.6695(4)
H6_13 H 0.1044 0.6593 0.6925
C9_13 C 0.0131(4) 0.6590(4) 0.6025(4)
C10_13 C 0.0539(4) 0.6465(4) 0.5903(4)
H8_13 H 0.0584 0.6382 0.5582
C11_13 C 0.08895(17) 0.64497(15) 0.62156(18)
C12_13 C 0.3840(3) 0.5048(3) 0.5518(5)
H9_13 H 0.3868 0.4843 0.5313
C13_13 C 0.3398(3) 0.5155(2) 0.5619(5)
H10_13 H 0.3151 0.5027 0.5489
C14_13 C 0.4157(3) 0.5454(5) 0.5941(5)
H11_13 H 0.4413 0.5571 0.6068
C15_13 C 0.3723(3) 0.5591(4) 0.6079(5)
H12_13 H 0.3711 0.5788 0.6299
C16_13 C 0.3339(2) 0.5457(2) 0.5915(2)
C17_13 C 0.2886(2) 0.56062(18) 0.6034(2)
C18_13 C 0.2817(4) 0.6019(4) 0.6081(5)
H13_13 H 0.3052 0.6188 0.6037
C19_13 C 0.2404(4) 0.6119(3) 0.6190(4)
H14_13 H 0.2355 0.6371 0.6238
C20_13 C 0.2556(4) 0.5400(3) 0.6161(5)
H15_13 H 0.2609 0.5147 0.6181
C21_13 C 0.2116(4) 0.5529(3) 0.6276(5)
H16_13 H 0.1895 0.5361 0.6375
C22_13 C 0.2014(2) 0.58791(16) 0.6243(2)
C23_13 C 0.0445(8) 0.4999(4) 0.8674(6)
H17_13 H 0.0534 0.4769 0.8794
C24_13 C 0.0603(8) 0.5098(4) 0.8248(7)
H18_13 H 0.0688 0.4912 0.8030
C25_13 C 0.0204(5) 0.5548(5) 0.8837(5)
H19_13 H 0.0077 0.5704 0.9073
C26_13 C 0.0392(5) 0.5721(4) 0.8417(5)
H20_13 H 0.0362 0.5971 0.8344
C27_13 C 0.0651(2) 0.54440(18) 0.8101(2)
C28_13 C 0.08955(19) 0.55941(16) 0.7660(2)
C29_13 C 0.1020(5) 0.5382(5) 0.7306(6)
H21_13 H 0.0950 0.5132 0.7333
C30_13 C 0.1262(4) 0.5502(3) 0.6866(4)
H22_13 H 0.1363 0.5332 0.6633
C31_13 C 0.0975(5) 0.5980(4) 0.7612(5)
H23_13 H 0.0874 0.6141 0.7855
C32_13 C 0.1207(5) 0.6120(3) 0.7197(4)
H24_13 H 0.1276 0.6370 0.7178
C33_13 C 0.13349(18) 0.58752(15) 0.68050(19)
C34_13 C 0.2457(3) 0.73904(11) 0.3830(2)
H25_13 H 0.2460 0.7642 0.3761
C35_13 C 0.2226(3) 0.72597(14) 0.4242(2)
H26_13 H 0.2074 0.7424 0.4447
C36_13 C 0.22220(19) 0.68832(15) 0.43460(17)
C37_13 C 0.2450(3) 0.66373(11) 0.4039(2)
H27_13 H 0.2447 0.6385 0.4109
C38_13 C 0.2681(3) 0.67679(13) 0.3628(2)
H28_13 H 0.2833 0.6603 0.3423
C39_13 C 0.1991(2) 0.67429(16) 0.4801(2)
C40_13 C 0.1557(4) 0.6585(3) 0.4770(5)
H29_13 H 0.1401 0.6568 0.4472
C41_13 C 0.1378(5) 0.6459(4) 0.5197(5)
H30_13 H 0.1086 0.6363 0.5176
C42_13 C 0.2203(5) 0.6768(4) 0.5256(5)
H31_13 H 0.2493 0.6868 0.5278
C43_13 C 0.1985(5) 0.6642(4) 0.5683(4)
H32_13 H 0.2114 0.6681 0.5992
C44_13 C 0.15640(18) 0.64532(16) 0.5637(2)
C45_13 C 0.13537(18) 0.62948(14) 0.60932(18)
C46_13 C 0.15556(17) 0.60322(14) 0.63693(18)
N3_13 N 0.42130(19) 0.51877(18) 0.5663(2)
N4_7 N 0.01894(18) 0.51819(18) 0.89336(18)
N6_7 N 0.51894(18) 0.48181(18) 0.60664(18)
C1_13 C 0.9014(3) 0.7072(3) 0.7221(3)
H1_13 H 0.8929 0.7085 0.7551
C2_13 C 0.9443(4) 0.6941(4) 0.7103(4)
H2_13 H 0.9642 0.6882 0.7358
C3_13 C 0.8872(5) 0.7178(4) 0.6391(4)
H3_13 H 0.8687 0.7284 0.6152
C4_13 C 0.9262(4) 0.7032(3) 0.6261(4)
H4_13 H 0.9333 0.7014 0.5928
C5_13 C 0.95870(18) 0.68950(16) 0.66276(19)
H7_13 H 0.9898 0.6580 0.5794
N2_13 N 0.87285(16) 0.71773(14) 0.68870(15)
C1_14 C 0.5986(3) 0.2928(3) 0.7221(3)
H1_14 H 0.6071 0.2915 0.7551
C2_14 C 0.5557(4) 0.3059(4) 0.7103(4)
H2_14 H 0.5358 0.3118 0.7358
C3_14 C 0.6128(5) 0.2822(4) 0.6391(4)
H3_14 H 0.6313 0.2716 0.6152
C4_14 C 0.5738(4) 0.2968(3) 0.6261(4)
H4_14 H 0.5667 0.2986 0.5928
C5_14 C 0.54130(18) 0.31050(16) 0.66276(19)
C6_14 C 0.49556(18) 0.32650(15) 0.64829(19)
C7_14 C 0.4614(3) 0.3270(3) 0.6823(3)
H5_14 H 0.4665 0.3180 0.7140
C8_14 C 0.4190(3) 0.3408(3) 0.6695(4)
H6_14 H 0.3956 0.3407 0.6925
C9_14 C 0.4869(4) 0.3410(4) 0.6025(4)
H7_14 H 0.5102 0.3420 0.5794
C10_14 C 0.4461(4) 0.3535(4) 0.5903(4)
H8_14 H 0.4416 0.3618 0.5582
C11_14 C 0.41105(17) 0.35503(15) 0.62156(18)
C12_14 C 0.1160(3) 0.4952(3) 0.5518(5)
H9_14 H 0.1132 0.5157 0.5313
C13_14 C 0.1602(3) 0.4845(2) 0.5619(5)
H10_14 H 0.1849 0.4973 0.5489
C14_14 C 0.0843(3) 0.4546(5) 0.5941(5)
H11_14 H 0.0587 0.4429 0.6068
C15_14 C 0.1277(3) 0.4409(4) 0.6079(5)
H12_14 H 0.1289 0.4212 0.6299
C16_14 C 0.1661(2) 0.4543(2) 0.5915(2)
C17_14 C 0.2114(2) 0.43938(18) 0.6034(2)
C18_14 C 0.2183(4) 0.3981(4) 0.6081(5)
H13_14 H 0.1948 0.3812 0.6037
C19_14 C 0.2596(4) 0.3881(3) 0.6190(4)
H14_14 H 0.2645 0.3629 0.6238
C20_14 C 0.2444(4) 0.4600(3) 0.6161(5)
H15_14 H 0.2391 0.4853 0.6181
C21_14 C 0.2884(4) 0.4471(3) 0.6276(5)
H16_14 H 0.3105 0.4639 0.6375
C22_14 C 0.2986(2) 0.41209(16) 0.6243(2)
C23_14 C 0.4555(8) 0.5001(4) 0.8674(6)
H17_14 H 0.4466 0.5231 0.8794
C24_14 C 0.4397(8) 0.4902(4) 0.8248(7)
H18_14 H 0.4312 0.5088 0.8030
C25_14 C 0.4796(5) 0.4452(5) 0.8837(5)
H19_14 H 0.4923 0.4296 0.9073
C26_14 C 0.4608(5) 0.4279(4) 0.8417(5)
H20_14 H 0.4638 0.4029 0.8344
C27_14 C 0.4349(2) 0.45560(18) 0.8101(2)
C28_14 C 0.41045(19) 0.44059(16) 0.7660(2)
C29_14 C 0.3980(5) 0.4618(5) 0.7306(6)
H21_14 H 0.4050 0.4868 0.7333
C30_14 C 0.3738(4) 0.4498(3) 0.6866(4)
H22_14 H 0.3637 0.4668 0.6633
C31_14 C 0.4025(5) 0.4020(4) 0.7612(5)
H23_14 H 0.4126 0.3859 0.7855
C32_14 C 0.3793(5) 0.3880(3) 0.7197(4)
H24_14 H 0.3724 0.3630 0.7178
C33_14 C 0.36651(18) 0.41248(15) 0.68050(19)
C34_14 C 0.2543(3) 0.26096(11) 0.3830(2)
H25_14 H 0.2540 0.2358 0.3761
C35_14 C 0.2774(3) 0.27403(14) 0.4242(2)
H26_14 H 0.2926 0.2576 0.4447
C36_14 C 0.27780(19) 0.31168(15) 0.43460(17)
C37_14 C 0.2550(3) 0.33627(11) 0.4039(2)
H27_14 H 0.2553 0.3615 0.4109
C38_14 C 0.2319(3) 0.32321(13) 0.3628(2)
H28_14 H 0.2167 0.3397 0.3423
C39_14 C 0.3009(2) 0.32571(16) 0.4801(2)
C40_14 C 0.3443(4) 0.3415(3) 0.4770(5)
H29_14 H 0.3599 0.3432 0.4472
C41_14 C 0.3622(5) 0.3541(4) 0.5197(5)
H30_14 H 0.3914 0.3637 0.5176
C42_14 C 0.2797(5) 0.3232(4) 0.5256(5)
H31_14 H 0.2507 0.3132 0.5278
C43_14 C 0.3015(5) 0.3358(4) 0.5683(4)
H32_14 H 0.2886 0.3319 0.5992
C44_14 C 0.34360(18) 0.35468(16) 0.5637(2)
C45_14 C 0.36463(18) 0.37052(14) 0.60932(18)
C46_14 C 0.34444(17) 0.39678(14) 0.63693(18)
N2_14 N 0.62715(16) 0.28227(14) 0.68870(15)
N3_14 N 0.07870(19) 0.48123(18) 0.5663(2)
N4_8 N 0.48106(18) 0.48181(18) 0.89336(18)
N6_8 N 0.98106(18) 0.51819(18) 0.60664(18)
C34_15 C 0.7457(3) 0.26096(11) 0.1170(2)
H25_15 H 0.7460 0.2358 0.1239
C35_15 C 0.7226(3) 0.27403(14) 0.0758(2)
H26_15 H 0.7074 0.2576 0.0553
C36_15 C 0.72220(19) 0.31168(15) 0.06540(17)
C37_15 C 0.7450(3) 0.33627(11) 0.0961(2)
H27_15 H 0.7447 0.3615 0.0891
C38_15 C 0.7681(3) 0.32321(13) 0.1372(2)
H28_15 H 0.7833 0.3397 0.1577
C39_15 C 0.6991(2) 0.32571(16) 0.0199(2)
C40_15 C 0.6557(4) 0.3415(3) 0.0230(5)
H29_15 H 0.6401 0.3432 0.0528
C1_15 C 0.4014(3) 0.2928(3) 0.7779(3)
H1_15 H 0.3929 0.2915 0.7449
C2_15 C 0.4443(4) 0.3059(4) 0.7897(4)
H2_15 H 0.4642 0.3118 0.7642
C3_15 C 0.3872(5) 0.2822(4) 0.8609(4)
H3_15 H 0.3687 0.2716 0.8848
C4_15 C 0.4262(4) 0.2968(3) 0.8739(4)
H4_15 H 0.4333 0.2986 0.9072
C5_15 C 0.45870(18) 0.31050(16) 0.83724(19)
C6_15 C 0.50444(18) 0.32650(15) 0.85171(19)
C7_15 C 0.5386(3) 0.3270(3) 0.8177(3)
H5_15 H 0.5335 0.3180 0.7860
C8_15 C 0.5810(3) 0.3408(3) 0.8305(4)
H6_15 H 0.6044 0.3407 0.8075
C9_15 C 0.5131(4) 0.3410(4) 0.8975(4)
H7_15 H 0.4898 0.3420 0.9206
C10_15 C 0.5539(4) 0.3535(4) 0.9097(4)
H8_15 H 0.5584 0.3618 0.9418
C11_15 C 0.58895(17) 0.35503(15) 0.87844(18)
C12_15 C 0.8840(3) 0.4952(3) 0.9482(5)
H9_15 H 0.8868 0.5157 0.9687
C13_15 C 0.8398(3) 0.4845(2) 0.9381(5)
H10_15 H 0.8151 0.4973 0.9511
C14_15 C 0.9157(3) 0.4546(5) 0.9059(5)
H11_15 H 0.9413 0.4429 0.8932
C15_15 C 0.8723(3) 0.4409(4) 0.8921(5)
H12_15 H 0.8711 0.4212 0.8701
C16_15 C 0.8339(2) 0.4543(2) 0.9085(2)
C17_15 C 0.7886(2) 0.43938(18) 0.8966(2)
C18_15 C 0.7817(4) 0.3981(4) 0.8919(5)
H13_15 H 0.8052 0.3812 0.8963
C19_15 C 0.7404(4) 0.3881(3) 0.8810(4)
H14_15 H 0.7355 0.3629 0.8762
C20_15 C 0.7556(4) 0.4600(3) 0.8839(5)
H15_15 H 0.7609 0.4853 0.8819
C21_15 C 0.7116(4) 0.4471(3) 0.8724(5)
H16_15 H 0.6895 0.4639 0.8625
C22_15 C 0.7014(2) 0.41209(16) 0.8757(2)
C23_15 C 0.5445(8) 0.5001(4) 0.6326(6)
H17_15 H 0.5534 0.5231 0.6206
C24_15 C 0.5603(8) 0.4902(4) 0.6752(7)
H18_15 H 0.5688 0.5088 0.6970
C25_15 C 0.5204(5) 0.4452(5) 0.6163(5)
H19_15 H 0.5077 0.4296 0.5927
C26_15 C 0.5392(5) 0.4279(4) 0.6583(5)
H20_15 H 0.5362 0.4029 0.6656
C27_15 C 0.5651(2) 0.45560(18) 0.6899(2)
C28_15 C 0.58955(19) 0.44059(16) 0.7340(2)
C29_15 C 0.6020(5) 0.4618(5) 0.7694(6)
H21_15 H 0.5950 0.4868 0.7667
C30_15 C 0.6262(4) 0.4498(3) 0.8134(4)
H22_15 H 0.6363 0.4668 0.8367
C31_15 C 0.5975(5) 0.4020(4) 0.7388(5)
H23_15 H 0.5874 0.3859 0.7145
C32_15 C 0.6207(5) 0.3880(3) 0.7803(4)
H24_15 H 0.6276 0.3630 0.7822
C33_15 C 0.63349(18) 0.41248(15) 0.81950(19)
C41_15 C 0.6378(5) 0.3541(4) 0.9803(5)
H30_15 H 0.6086 0.3637 0.9824
C42_15 C 0.7203(5) 0.3232(4) 0.9744(5)
H31_15 H 0.7493 0.3132 0.9722
C43_15 C 0.6985(5) 0.3358(4) 0.9317(4)
H32_15 H 0.7114 0.3319 0.9008
C44_15 C 0.65640(18) 0.35468(16) 0.9363(2)
C45_15 C 0.63537(18) 0.37052(14) 0.89068(18)
C46_15 C 0.65556(17) 0.39678(14) 0.86307(18)
N2_15 N 0.37285(16) 0.28227(14) 0.81130(15)
N3_15 N 0.92130(19) 0.48123(18) 0.9337(2)
C1_16 C 0.0986(3) 0.7072(3) 0.7779(3)
H1_16 H 0.1071 0.7085 0.7449
C2_16 C 0.0557(4) 0.6941(4) 0.7897(4)
H2_16 H 0.0358 0.6882 0.7642
C3_16 C 0.1128(5) 0.7178(4) 0.8609(4)
H3_16 H 0.1313 0.7284 0.8848
C4_16 C 0.0738(4) 0.7032(3) 0.8739(4)
H4_16 H 0.0667 0.7014 0.9072
C5_16 C 0.04130(18) 0.68950(16) 0.83724(19)
H7_16 H 0.0102 0.6580 0.9206
N2_16 N 0.12715(16) 0.71773(14) 0.81130(15)
C34_16 C 0.7543(3) 0.73904(11) 0.1170(2)
H25_16 H 0.7540 0.7642 0.1239
C35_16 C 0.7774(3) 0.72597(14) 0.0758(2)
H26_16 H 0.7926 0.7424 0.0553
C36_16 C 0.77780(19) 0.68832(15) 0.06540(17)
C37_16 C 0.7550(3) 0.66373(11) 0.0961(2)
H27_16 H 0.7553 0.6385 0.0891
C38_16 C 0.7319(3) 0.67679(13) 0.1372(2)
H28_16 H 0.7167 0.6603 0.1577
C39_16 C 0.8009(2) 0.67429(16) 0.0199(2)
C40_16 C 0.8443(4) 0.6585(3) 0.0230(5)
H29_16 H 0.8599 0.6568 0.0528
C6_16 C 0.99556(18) 0.67350(15) 0.85171(19)
C7_16 C 0.9614(3) 0.6730(3) 0.8177(3)
H5_16 H 0.9665 0.6820 0.7860
C8_16 C 0.9190(3) 0.6592(3) 0.8305(4)
H6_16 H 0.8956 0.6593 0.8075
C9_16 C 0.9869(4) 0.6590(4) 0.8975(4)
C10_16 C 0.9461(4) 0.6465(4) 0.9097(4)
H8_16 H 0.9416 0.6382 0.9418
C11_16 C 0.91105(17) 0.64497(15) 0.87844(18)
C12_16 C 0.6160(3) 0.5048(3) 0.9482(5)
H9_16 H 0.6132 0.4843 0.9687
C13_16 C 0.6602(3) 0.5155(2) 0.9381(5)
H10_16 H 0.6849 0.5027 0.9511
C14_16 C 0.5843(3) 0.5454(5) 0.9059(5)
H11_16 H 0.5587 0.5571 0.8932
C15_16 C 0.6277(3) 0.5591(4) 0.8921(5)
H12_16 H 0.6289 0.5788 0.8701
C16_16 C 0.6661(2) 0.5457(2) 0.9085(2)
C17_16 C 0.7114(2) 0.56062(18) 0.8966(2)
C18_16 C 0.7183(4) 0.6019(4) 0.8919(5)
H13_16 H 0.6948 0.6188 0.8963
C19_16 C 0.7596(4) 0.6119(3) 0.8810(4)
H14_16 H 0.7645 0.6371 0.8762
C20_16 C 0.7444(4) 0.5400(3) 0.8839(5)
H15_16 H 0.7391 0.5147 0.8819
C21_16 C 0.7884(4) 0.5529(3) 0.8724(5)
H16_16 H 0.8105 0.5361 0.8625
C22_16 C 0.7986(2) 0.58791(16) 0.8757(2)
C23_16 C 0.9555(8) 0.4999(4) 0.6326(6)
H17_16 H 0.9466 0.4769 0.6206
C24_16 C 0.9397(8) 0.5098(4) 0.6752(7)
H18_16 H 0.9312 0.4912 0.6970
C25_16 C 0.9796(5) 0.5548(5) 0.6163(5)
H19_16 H 0.9923 0.5704 0.5927
C26_16 C 0.9608(5) 0.5721(4) 0.6583(5)
H20_16 H 0.9638 0.5971 0.6656
C27_16 C 0.9349(2) 0.54440(18) 0.6899(2)
C28_16 C 0.91045(19) 0.55941(16) 0.7340(2)
C29_16 C 0.8980(5) 0.5382(5) 0.7694(6)
H21_16 H 0.9050 0.5132 0.7667
C30_16 C 0.8738(4) 0.5502(3) 0.8134(4)
H22_16 H 0.8637 0.5332 0.8367
C31_16 C 0.9025(5) 0.5980(4) 0.7388(5)
H23_16 H 0.9126 0.6141 0.7145
C32_16 C 0.8793(5) 0.6120(3) 0.7803(4)
H24_16 H 0.8724 0.6370 0.7822
C33_16 C 0.86651(18) 0.58752(15) 0.81950(19)
C41_16 C 0.8622(5) 0.6459(4) 0.9803(5)
H30_16 H 0.8914 0.6363 0.9824
C42_16 C 0.7797(5) 0.6768(4) 0.9744(5)
H31_16 H 0.7507 0.6868 0.9722
C43_16 C 0.8015(5) 0.6642(4) 0.9317(4)
H32_16 H 0.7886 0.6681 0.9008
C44_16 C 0.84360(18) 0.64532(16) 0.9363(2)
C45_16 C 0.86463(18) 0.62948(14) 0.89068(18)
C46_16 C 0.84444(17) 0.60322(14) 0.86307(18)
N3_16 N 0.57870(19) 0.51877(18) 0.9337(2)
I4_8 I 0.02941(2) 0.94152(2) 0.01155(2)
I2_8 I 0.97059(2) 0.05848(2) 0.98845(2)
Cu8 Cu 0.48439(3) 0.00030(3) 0.45412(3)
C52 C 0.00444(18) 0.17350(15) 0.35171(19)
C53 C 0.0386(3) 0.1730(3) 0.3177(3)
H37 H 0.0335 0.1820 0.2860
C54 C 0.0810(3) 0.1592(3) 0.3305(4)
H38 H 0.1044 0.1593 0.3075
C55 C 0.0131(4) 0.1590(4) 0.3975(4)
C56 C 0.0539(4) 0.1465(4) 0.4097(4)
H40 H 0.0584 0.1382 0.4418
C57 C 0.08895(17) 0.14497(15) 0.37844(18)
C58 C 0.3840(3) 0.0048(3) 0.4482(5)
C59 C 0.3398(3) 0.0155(2) 0.4381(5)
H42 H 0.3151 0.0027 0.4511
C60 C 0.4157(3) 0.0454(5) 0.4059(5)
H43 H 0.4413 0.0571 0.3932
C61 C 0.3723(3) 0.0591(4) 0.3921(5)
H44 H 0.3711 0.0788 0.3701
C62 C 0.3339(2) 0.0457(2) 0.4085(2)
C63 C 0.2886(2) 0.06062(18) 0.3966(2)
C64 C 0.2817(4) 0.1019(4) 0.3919(5)
H45 H 0.3052 0.1188 0.3963
C65 C 0.2404(4) 0.1119(3) 0.3810(4)
H46 H 0.2355 0.1371 0.3762
C66 C 0.2556(4) 0.0400(3) 0.3839(5)
H47 H 0.2609 0.0147 0.3819
C67 C 0.2116(4) 0.0529(3) 0.3724(5)
H48 H 0.1895 0.0361 0.3625
C68 C 0.2014(2) 0.08791(16) 0.3757(2)
C70 C 0.0603(8) 0.0098(4) 0.1752(7)
C71 C 0.0204(5) 0.0548(5) 0.1163(5)
H51 H 0.0077 0.0704 0.0927
C72 C 0.0392(5) 0.0721(4) 0.1583(5)
H52 H 0.0362 0.0971 0.1656
C73 C 0.0651(2) 0.04440(18) 0.1899(2)
C74 C 0.08955(19) 0.05941(16) 0.2340(2)
C75 C 0.1020(5) 0.0382(5) 0.2694(6)
H53 H 0.0950 0.0132 0.2667
C76 C 0.1262(4) 0.0502(3) 0.3134(4)
H54 H 0.1363 0.0332 0.3367
C77 C 0.0975(5) 0.0980(4) 0.2388(5)
H55 H 0.0874 0.1141 0.2145
C78 C 0.1207(5) 0.1120(3) 0.2803(4)
H56 H 0.1276 0.1370 0.2822
C79 C 0.13349(18) 0.08752(15) 0.31950(19)
N7 N 0.26847(17) 0.21445(13) 0.64764(14)
C80 C 0.2457(3) 0.23904(11) 0.6170(2)
H57 H 0.2460 0.2642 0.6239
C81 C 0.2226(3) 0.22597(14) 0.5758(2)
H58 H 0.2074 0.2424 0.5553
C82 C 0.22220(19) 0.18832(15) 0.56540(17)
C83 C 0.2450(3) 0.16373(11) 0.5961(2)
H59 H 0.2447 0.1385 0.5891
C84 C 0.2681(3) 0.17679(13) 0.6372(2)
H60 H 0.2833 0.1603 0.6577
C85 C 0.1991(2) 0.17429(16) 0.5199(2)
C86 C 0.1557(4) 0.1585(3) 0.5230(5)
H61 H 0.1401 0.1568 0.5528
C87 C 0.1378(5) 0.1459(4) 0.4803(5)
H62 H 0.1086 0.1363 0.4824
C88 C 0.2203(5) 0.1768(4) 0.4744(5)
H63 H 0.2493 0.1868 0.4722
C89 C 0.1985(5) 0.1642(4) 0.4317(4)
H64 H 0.2114 0.1681 0.4008
C90 C 0.15640(18) 0.14532(16) 0.4363(2)
C91 C 0.13537(18) 0.12948(14) 0.39068(18)
C92 C 0.15556(17) 0.10322(14) 0.36307(18)
N9 N 0.42130(19) 0.01877(18) 0.4337(2)
N10 N 0.01894(18) 0.01819(18) 0.10664(18)
Cu10 Cu 0.30712(2) 0.23396(2) 0.70662(2)
I8 I 0.52941(2) 0.05848(2) 0.48845(2)
H41 H 0.3868 0.9843 0.4687
C69 C 0.0445(8) 0.9999(4) 0.1326(6)
H49 H 0.0534 0.9769 0.1206
H50 H 0.0688 0.9912 0.1970
I6 I 0.47059(2) 0.94152(2) 0.51155(2)
Cu12 Cu 0.51561(3) 0.99970(3) 0.54588(3)
N12 N 0.51894(18) 0.98181(18) 0.39336(18)
Cu7 Cu 0.80712(2) 0.23396(2) 0.29338(2)
C47 C 0.9014(3) 0.2072(3) 0.2779(3)
H33 H 0.8929 0.2085 0.2449
C48 C 0.9443(4) 0.1941(4) 0.2897(4)
H34 H 0.9642 0.1882 0.2642
C49 C 0.8872(5) 0.2178(4) 0.3609(4)
H35 H 0.8687 0.2284 0.3848
C50 C 0.9262(4) 0.2032(3) 0.3739(4)
H36 H 0.9333 0.2014 0.4072
C51 C 0.95870(18) 0.18950(16) 0.33724(19)
H39 H 0.9898 0.1580 0.4206
N8 N 0.87285(16) 0.21773(14) 0.31130(15)
I5 I 0.78882(2) 0.30492(2) 0.28737(2)
Cu9 Cu 0.80712(2) 0.26604(2) 0.20662(2)
N11 N 0.76847(17) 0.21445(13) 0.35236(14)
I7 I 0.78882(2) 0.19508(2) 0.21263(2)
Cu11 Cu 0.98439(3) 0.99970(3) 0.04588(3)
H41_2 H 0.1132 0.0157 0.4687
C69_2 C 0.4555(8) 0.0001(4) 0.1326(6)
H49_2 H 0.4466 0.0231 0.1206
H50_2 H 0.4312 0.0088 0.1970
I6_2 I 0.02941(2) 0.05848(2) 0.51155(2)
Cu11_2 Cu 0.51561(3) 0.00030(3) 0.04588(3)
Cu7_2 Cu 0.69288(2) 0.76604(2) 0.29338(2)
Cu8_2 Cu 0.01561(3) 0.99970(3) 0.45412(3)
C47_2 C 0.5986(3) 0.7928(3) 0.2779(3)
H33_2 H 0.6071 0.7915 0.2449
C48_2 C 0.5557(4) 0.8059(4) 0.2897(4)
H34_2 H 0.5358 0.8118 0.2642
C49_2 C 0.6128(5) 0.7822(4) 0.3609(4)
H35_2 H 0.6313 0.7716 0.3848
C50_2 C 0.5738(4) 0.7968(3) 0.3739(4)
H36_2 H 0.5667 0.7986 0.4072
C51_2 C 0.54130(18) 0.81050(16) 0.33724(19)
C52_2 C 0.49556(18) 0.82650(15) 0.35171(19)
C53_2 C 0.4614(3) 0.8270(3) 0.3177(3)
H37_2 H 0.4665 0.8180 0.2860
C54_2 C 0.4190(3) 0.8408(3) 0.3305(4)
H38_2 H 0.3956 0.8407 0.3075
C55_2 C 0.4869(4) 0.8410(4) 0.3975(4)
H39_2 H 0.5102 0.8420 0.4206
C56_2 C 0.4461(4) 0.8535(4) 0.4097(4)
H40_2 H 0.4416 0.8618 0.4418
C57_2 C 0.41105(17) 0.85503(15) 0.37844(18)
C58_2 C 0.1160(3) 0.9952(3) 0.4482(5)
C59_2 C 0.1602(3) 0.9845(2) 0.4381(5)
H42_2 H 0.1849 0.9973 0.4511
C60_2 C 0.0843(3) 0.9546(5) 0.4059(5)
H43_2 H 0.0587 0.9429 0.3932
C61_2 C 0.1277(3) 0.9409(4) 0.3921(5)
H44_2 H 0.1289 0.9212 0.3701
C62_2 C 0.1661(2) 0.9543(2) 0.4085(2)
C63_2 C 0.2114(2) 0.93938(18) 0.3966(2)
C64_2 C 0.2183(4) 0.8981(4) 0.3919(5)
H45_2 H 0.1948 0.8812 0.3963
C65_2 C 0.2596(4) 0.8881(3) 0.3810(4)
H46_2 H 0.2645 0.8629 0.3762
C66_2 C 0.2444(4) 0.9600(3) 0.3839(5)
H47_2 H 0.2391 0.9853 0.3819
C67_2 C 0.2884(4) 0.9471(3) 0.3724(5)
H48_2 H 0.3105 0.9639 0.3625
C68_2 C 0.2986(2) 0.91209(16) 0.3757(2)
C70_2 C 0.4397(8) 0.9902(4) 0.1752(7)
C71_2 C 0.4796(5) 0.9452(5) 0.1163(5)
H51_2 H 0.4923 0.9296 0.0927
C72_2 C 0.4608(5) 0.9279(4) 0.1583(5)
H52_2 H 0.4638 0.9029 0.1656
C73_2 C 0.4349(2) 0.95560(18) 0.1899(2)
C74_2 C 0.41045(19) 0.94059(16) 0.2340(2)
C75_2 C 0.3980(5) 0.9618(5) 0.2694(6)
H53_2 H 0.4050 0.9868 0.2667
C76_2 C 0.3738(4) 0.9498(3) 0.3134(4)
H54_2 H 0.3637 0.9668 0.3367
C77_2 C 0.4025(5) 0.9020(4) 0.2388(5)
H55_2 H 0.4126 0.8859 0.2145
C78_2 C 0.3793(5) 0.8880(3) 0.2803(4)
H56_2 H 0.3724 0.8630 0.2822
C79_2 C 0.36651(18) 0.91248(15) 0.31950(19)
N7_2 N 0.23153(17) 0.78555(13) 0.64764(14)
C80_2 C 0.2543(3) 0.76096(11) 0.6170(2)
H57_2 H 0.2540 0.7358 0.6239
C81_2 C 0.2774(3) 0.77403(14) 0.5758(2)
H58_2 H 0.2926 0.7576 0.5553
C82_2 C 0.27780(19) 0.81168(15) 0.56540(17)
C83_2 C 0.2550(3) 0.83627(11) 0.5961(2)
H59_2 H 0.2553 0.8615 0.5891
C84_2 C 0.2319(3) 0.82321(13) 0.6372(2)
H60_2 H 0.2167 0.8397 0.6577
C85_2 C 0.3009(2) 0.82571(16) 0.5199(2)
C86_2 C 0.3443(4) 0.8415(3) 0.5230(5)
H61_2 H 0.3599 0.8432 0.5528
C87_2 C 0.3622(5) 0.8541(4) 0.4803(5)
H62_2 H 0.3914 0.8637 0.4824
C88_2 C 0.2797(5) 0.8232(4) 0.4744(5)
H63_2 H 0.2507 0.8132 0.4722
C89_2 C 0.3015(5) 0.8358(4) 0.4317(4)
H64_2 H 0.2886 0.8319 0.4008
C90_2 C 0.34360(18) 0.85468(16) 0.4363(2)
C91_2 C 0.36463(18) 0.87052(14) 0.39068(18)
C92_2 C 0.34444(17) 0.89678(14) 0.36307(18)
N8_2 N 0.62715(16) 0.78227(14) 0.31130(15)
N9_2 N 0.07870(19) 0.98123(18) 0.4337(2)
N10_2 N 0.48106(18) 0.98181(18) 0.10664(18)
I5_2 I 0.71118(2) 0.69508(2) 0.28737(2)
Cu9_2 Cu 0.69288(2) 0.73396(2) 0.20662(2)
Cu10_2 Cu 0.19288(2) 0.76604(2) 0.70662(2)
N11_2 N 0.73153(17) 0.78555(13) 0.35236(14)
I7_2 I 0.71118(2) 0.80492(2) 0.21263(2)
Cu12_2 Cu 0.98439(3) 0.00030(3) 0.54588(3)
N12_2 N 0.98106(18) 0.01819(18) 0.39336(18)
I8_2 I 0.97059(2) 0.94152(2) 0.48845(2)
Cu12_3 Cu 0.01561(3) 0.00030(3) 0.95412(3)
H41_3 H 0.8868 0.0157 0.0313
C69_3 C 0.5445(8) 0.0001(4) 0.3674(6)
H49_3 H 0.5534 0.0231 0.3794
H50_3 H 0.5688 0.0088 0.3030
Cu7_3 Cu 0.30712(2) 0.76604(2) 0.20662(2)
C47_3 C 0.4014(3) 0.7928(3) 0.2221(3)
H33_3 H 0.3929 0.7915 0.2551
C48_3 C 0.4443(4) 0.8059(4) 0.2103(4)
H34_3 H 0.4642 0.8118 0.2358
C49_3 C 0.3872(5) 0.7822(4) 0.1391(4)
H35_3 H 0.3687 0.7716 0.1152
C50_3 C 0.4262(4) 0.7968(3) 0.1261(4)
H36_3 H 0.4333 0.7986 0.0928
C51_3 C 0.45870(18) 0.81050(16) 0.16276(19)
C52_3 C 0.50444(18) 0.82650(15) 0.14829(19)
C53_3 C 0.5386(3) 0.8270(3) 0.1823(3)
H37_3 H 0.5335 0.8180 0.2140
C54_3 C 0.5810(3) 0.8408(3) 0.1695(4)
H38_3 H 0.6044 0.8407 0.1925
C55_3 C 0.5131(4) 0.8410(4) 0.1025(4)
H39_3 H 0.4898 0.8420 0.0794
C56_3 C 0.5539(4) 0.8535(4) 0.0903(4)
H40_3 H 0.5584 0.8618 0.0582
C57_3 C 0.58895(17) 0.85503(15) 0.12156(18)
C58_3 C 0.8840(3) 0.9952(3) 0.0518(5)
C59_3 C 0.8398(3) 0.9845(2) 0.0619(5)
H42_3 H 0.8151 0.9973 0.0489
C60_3 C 0.9157(3) 0.9546(5) 0.0941(5)
H43_3 H 0.9413 0.9429 0.1068
C61_3 C 0.8723(3) 0.9409(4) 0.1079(5)
H44_3 H 0.8711 0.9212 0.1299
C62_3 C 0.8339(2) 0.9543(2) 0.0915(2)
C63_3 C 0.7886(2) 0.93938(18) 0.1034(2)
C64_3 C 0.7817(4) 0.8981(4) 0.1081(5)
H45_3 H 0.8052 0.8812 0.1037
C65_3 C 0.7404(4) 0.8881(3) 0.1190(4)
H46_3 H 0.7355 0.8629 0.1238
C66_3 C 0.7556(4) 0.9600(3) 0.1161(5)
H47_3 H 0.7609 0.9853 0.1181
C67_3 C 0.7116(4) 0.9471(3) 0.1276(5)
H48_3 H 0.6895 0.9639 0.1375
C68_3 C 0.7014(2) 0.91209(16) 0.1243(2)
C70_3 C 0.5603(8) 0.9902(4) 0.3248(7)
C71_3 C 0.5204(5) 0.9452(5) 0.3837(5)
H51_3 H 0.5077 0.9296 0.4073
C72_3 C 0.5392(5) 0.9279(4) 0.3417(5)
H52_3 H 0.5362 0.9029 0.3344
C73_3 C 0.5651(2) 0.95560(18) 0.3101(2)
C74_3 C 0.58955(19) 0.94059(16) 0.2660(2)
C75_3 C 0.6020(5) 0.9618(5) 0.2306(6)
H53_3 H 0.5950 0.9868 0.2333
C76_3 C 0.6262(4) 0.9498(3) 0.1866(4)
H54_3 H 0.6363 0.9668 0.1633
C77_3 C 0.5975(5) 0.9020(4) 0.2612(5)
H55_3 H 0.5874 0.8859 0.2855
C78_3 C 0.6207(5) 0.8880(3) 0.2197(4)
H56_3 H 0.6276 0.8630 0.2178
C79_3 C 0.63349(18) 0.91248(15) 0.18050(19)
C87_3 C 0.6378(5) 0.8541(4) 0.0197(5)
H62_3 H 0.6086 0.8637 0.0176
C88_3 C 0.7203(5) 0.8232(4) 0.0256(5)
H63_3 H 0.7493 0.8132 0.0278
C89_3 C 0.6985(5) 0.8358(4) 0.0683(4)
H64_3 H 0.7114 0.8319 0.0992
C90_3 C 0.65640(18) 0.85468(16) 0.0637(2)
C91_3 C 0.63537(18) 0.87052(14) 0.10932(18)
C92_3 C 0.65556(17) 0.89678(14) 0.13693(18)
N8_3 N 0.37285(16) 0.78227(14) 0.18870(15)
N9_3 N 0.92130(19) 0.98123(18) 0.0663(2)
I5_3 I 0.28882(2) 0.69508(2) 0.21263(2)
Cu9_3 Cu 0.30712(2) 0.73396(2) 0.29338(2)
N11_3 N 0.26847(17) 0.78555(13) 0.14764(14)
I7_3 I 0.28882(2) 0.80492(2) 0.28737(2)
N7_3 N 0.76847(17) 0.78555(13) 0.85236(14)
C80_3 C 0.7457(3) 0.76096(11) 0.8830(2)
H57_3 H 0.7460 0.7358 0.8761
C81_3 C 0.7226(3) 0.77403(14) 0.9242(2)
H58_3 H 0.7074 0.7576 0.9447
C82_3 C 0.72220(19) 0.81168(15) 0.93460(17)
C83_3 C 0.7450(3) 0.83627(11) 0.9039(2)
H59_3 H 0.7447 0.8615 0.9109
C84_3 C 0.7681(3) 0.82321(13) 0.8628(2)
H60_3 H 0.7833 0.8397 0.8423
C85_3 C 0.6991(2) 0.82571(16) 0.9801(2)
C86_3 C 0.6557(4) 0.8415(3) 0.9770(5)
H61_3 H 0.6401 0.8432 0.9472
Cu10_3 Cu 0.80712(2) 0.76604(2) 0.79338(2)
Cu7_4 Cu 0.19288(2) 0.23396(2) 0.20662(2)
C47_4 C 0.0986(3) 0.2072(3) 0.2221(3)
H33_4 H 0.1071 0.2085 0.2551
C48_4 C 0.0557(4) 0.1941(4) 0.2103(4)
H34_4 H 0.0358 0.1882 0.2358
C49_4 C 0.1128(5) 0.2178(4) 0.1391(4)
H35_4 H 0.1313 0.2284 0.1152
C50_4 C 0.0738(4) 0.2032(3) 0.1261(4)
H36_4 H 0.0667 0.2014 0.0928
C51_4 C 0.04130(18) 0.18950(16) 0.16276(19)
H39_4 H 0.0102 0.1580 0.0794
N8_4 N 0.12715(16) 0.21773(14) 0.18870(15)
I5_4 I 0.21118(2) 0.30492(2) 0.21263(2)
Cu9_4 Cu 0.19288(2) 0.26604(2) 0.29338(2)
N11_4 N 0.23153(17) 0.21445(13) 0.14764(14)
I7_4 I 0.21118(2) 0.19508(2) 0.28737(2)
C52_4 C 0.99556(18) 0.17350(15) 0.14829(19)
C53_4 C 0.9614(3) 0.1730(3) 0.1823(3)
H37_4 H 0.9665 0.1820 0.2140
C54_4 C 0.9190(3) 0.1592(3) 0.1695(4)
H38_4 H 0.8956 0.1593 0.1925
C55_4 C 0.9869(4) 0.1590(4) 0.1025(4)
C56_4 C 0.9461(4) 0.1465(4) 0.0903(4)
H40_4 H 0.9416 0.1382 0.0582
C57_4 C 0.91105(17) 0.14497(15) 0.12156(18)
C58_4 C 0.6160(3) 0.0048(3) 0.0518(5)
C59_4 C 0.6602(3) 0.0155(2) 0.0619(5)
H42_4 H 0.6849 0.0027 0.0489
C60_4 C 0.5843(3) 0.0454(5) 0.0941(5)
H43_4 H 0.5587 0.0571 0.1068
C61_4 C 0.6277(3) 0.0591(4) 0.1079(5)
H44_4 H 0.6289 0.0788 0.1299
C62_4 C 0.6661(2) 0.0457(2) 0.0915(2)
C63_4 C 0.7114(2) 0.06062(18) 0.1034(2)
C64_4 C 0.7183(4) 0.1019(4) 0.1081(5)
H45_4 H 0.6948 0.1188 0.1037
C65_4 C 0.7596(4) 0.1119(3) 0.1190(4)
H46_4 H 0.7645 0.1371 0.1238
C66_4 C 0.7444(4) 0.0400(3) 0.1161(5)
H47_4 H 0.7391 0.0147 0.1181
C67_4 C 0.7884(4) 0.0529(3) 0.1276(5)
H48_4 H 0.8105 0.0361 0.1375
C68_4 C 0.7986(2) 0.08791(16) 0.1243(2)
C70_4 C 0.9397(8) 0.0098(4) 0.3248(7)
C71_4 C 0.9796(5) 0.0548(5) 0.3837(5)
H51_4 H 0.9923 0.0704 0.4073
C72_4 C 0.9608(5) 0.0721(4) 0.3417(5)
H52_4 H 0.9638 0.0971 0.3344
C73_4 C 0.9349(2) 0.04440(18) 0.3101(2)
C74_4 C 0.91045(19) 0.05941(16) 0.2660(2)
C75_4 C 0.8980(5) 0.0382(5) 0.2306(6)
H53_4 H 0.9050 0.0132 0.2333
C76_4 C 0.8738(4) 0.0502(3) 0.1866(4)
H54_4 H 0.8637 0.0332 0.1633
C77_4 C 0.9025(5) 0.0980(4) 0.2612(5)
H55_4 H 0.9126 0.1141 0.2855
C78_4 C 0.8793(5) 0.1120(3) 0.2197(4)
H56_4 H 0.8724 0.1370 0.2178
C79_4 C 0.86651(18) 0.08752(15) 0.18050(19)
C87_4 C 0.8622(5) 0.1459(4) 0.0197(5)
H62_4 H 0.8914 0.1363 0.0176
C88_4 C 0.7797(5) 0.1768(4) 0.0256(5)
H63_4 H 0.7507 0.1868 0.0278
C89_4 C 0.8015(5) 0.1642(4) 0.0683(4)
H64_4 H 0.7886 0.1681 0.0992
C90_4 C 0.84360(18) 0.14532(16) 0.0637(2)
C91_4 C 0.86463(18) 0.12948(14) 0.10932(18)
C92_4 C 0.84444(17) 0.10322(14) 0.13693(18)
N9_4 N 0.57870(19) 0.01877(18) 0.0663(2)
I8_3 I 0.47059(2) 0.05848(2) 0.01155(2)
N7_4 N 0.73153(17) 0.21445(13) 0.85236(14)
C80_4 C 0.7543(3) 0.23904(11) 0.8830(2)
H57_4 H 0.7540 0.2642 0.8761
C81_4 C 0.7774(3) 0.22597(14) 0.9242(2)
H58_4 H 0.7926 0.2424 0.9447
C82_4 C 0.77780(19) 0.18832(15) 0.93460(17)
C83_4 C 0.7550(3) 0.16373(11) 0.9039(2)
H59_4 H 0.7553 0.1385 0.9109
C84_4 C 0.7319(3) 0.17679(13) 0.8628(2)
H60_4 H 0.7167 0.1603 0.8423
C85_4 C 0.8009(2) 0.17429(16) 0.9801(2)
C86_4 C 0.8443(4) 0.1585(3) 0.9770(5)
H61_4 H 0.8599 0.1568 0.9472
Cu10_4 Cu 0.69288(2) 0.23396(2) 0.79338(2)
H41_4 H 0.6132 0.9843 0.0313
C69_4 C 0.9555(8) 0.9999(4) 0.3674(6)
H49_4 H 0.9466 0.9769 0.3794
H50_4 H 0.9312 0.9912 0.3030
I6_3 I 0.52941(2) 0.94152(2) 0.98845(2)
Cu12_4 Cu 0.48439(3) 0.99970(3) 0.95412(3)
Cu12_5 Cu 0.01561(3) 0.49970(3) 0.54588(3)
N12_3 N 0.01894(18) 0.48181(18) 0.39336(18)
I8_4 I 0.02941(2) 0.55848(2) 0.48845(2)
Cu8_3 Cu 0.98439(3) 0.50030(3) 0.45412(3)
C47_5 C 0.4014(3) 0.7072(3) 0.2779(3)
H33_5 H 0.3929 0.7085 0.2449
C48_5 C 0.4443(4) 0.6941(4) 0.2897(4)
H34_5 H 0.4642 0.6882 0.2642
C49_5 C 0.3872(5) 0.7178(4) 0.3609(4)
H35_5 H 0.3687 0.7284 0.3848
C50_5 C 0.4262(4) 0.7032(3) 0.3739(4)
H36_5 H 0.4333 0.7014 0.4072
C51_5 C 0.45870(18) 0.68950(16) 0.33724(19)
C52_5 C 0.50444(18) 0.67350(15) 0.35171(19)
C53_5 C 0.5386(3) 0.6730(3) 0.3177(3)
H37_5 H 0.5335 0.6820 0.2860
C54_5 C 0.5810(3) 0.6592(3) 0.3305(4)
H38_5 H 0.6044 0.6593 0.3075
C55_5 C 0.5131(4) 0.6590(4) 0.3975(4)
H39_5 H 0.4898 0.6580 0.4206
C56_5 C 0.5539(4) 0.6465(4) 0.4097(4)
H40_5 H 0.5584 0.6382 0.4418
C57_5 C 0.58895(17) 0.64497(15) 0.37844(18)
C58_5 C 0.8840(3) 0.5048(3) 0.4482(5)
H41_5 H 0.8868 0.4843 0.4687
C59_5 C 0.8398(3) 0.5155(2) 0.4381(5)
H42_5 H 0.8151 0.5027 0.4511
C60_5 C 0.9157(3) 0.5454(5) 0.4059(5)
H43_5 H 0.9413 0.5571 0.3932
C61_5 C 0.8723(3) 0.5591(4) 0.3921(5)
H44_5 H 0.8711 0.5788 0.3701
C62_5 C 0.8339(2) 0.5457(2) 0.4085(2)
C63_5 C 0.7886(2) 0.56062(18) 0.3966(2)
C64_5 C 0.7817(4) 0.6019(4) 0.3919(5)
H45_5 H 0.8052 0.6188 0.3963
C65_5 C 0.7404(4) 0.6119(3) 0.3810(4)
H46_5 H 0.7355 0.6371 0.3762
C66_5 C 0.7556(4) 0.5400(3) 0.3839(5)
H47_5 H 0.7609 0.5147 0.3819
C67_5 C 0.7116(4) 0.5529(3) 0.3724(5)
H48_5 H 0.6895 0.5361 0.3625
C68_5 C 0.7014(2) 0.58791(16) 0.3757(2)
C69_5 C 0.5445(8) 0.4999(4) 0.1326(6)
H49_5 H 0.5534 0.4769 0.1206
C70_5 C 0.5603(8) 0.5098(4) 0.1752(7)
H50_5 H 0.5688 0.4912 0.1970
C71_5 C 0.5204(5) 0.5548(5) 0.1163(5)
H51_5 H 0.5077 0.5704 0.0927
C72_5 C 0.5392(5) 0.5721(4) 0.1583(5)
H52_5 H 0.5362 0.5971 0.1656
C73_5 C 0.5651(2) 0.54440(18) 0.1899(2)
C74_5 C 0.58955(19) 0.55941(16) 0.2340(2)
C75_5 C 0.6020(5) 0.5382(5) 0.2694(6)
H53_5 H 0.5950 0.5132 0.2667
C76_5 C 0.6262(4) 0.5502(3) 0.3134(4)
H54_5 H 0.6363 0.5332 0.3367
C77_5 C 0.5975(5) 0.5980(4) 0.2388(5)
H55_5 H 0.5874 0.6141 0.2145
C78_5 C 0.6207(5) 0.6120(3) 0.2803(4)
H56_5 H 0.6276 0.6370 0.2822
C79_5 C 0.63349(18) 0.58752(15) 0.31950(19)
N7_5 N 0.76847(17) 0.71445(13) 0.64764(14)
C80_5 C 0.7457(3) 0.73904(11) 0.6170(2)
H57_5 H 0.7460 0.7642 0.6239
C81_5 C 0.7226(3) 0.72597(14) 0.5758(2)
H58_5 H 0.7074 0.7424 0.5553
C82_5 C 0.72220(19) 0.68832(15) 0.56540(17)
C83_5 C 0.7450(3) 0.66373(11) 0.5961(2)
H59_5 H 0.7447 0.6385 0.5891
C84_5 C 0.7681(3) 0.67679(13) 0.6372(2)
H60_5 H 0.7833 0.6603 0.6577
C85_5 C 0.6991(2) 0.67429(16) 0.5199(2)
C86_5 C 0.6557(4) 0.6585(3) 0.5230(5)
H61_5 H 0.6401 0.6568 0.5528
C87_5 C 0.6378(5) 0.6459(4) 0.4803(5)
H62_5 H 0.6086 0.6363 0.4824
C88_5 C 0.7203(5) 0.6768(4) 0.4744(5)
H63_5 H 0.7493 0.6868 0.4722
C89_5 C 0.6985(5) 0.6642(4) 0.4317(4)
H64_5 H 0.7114 0.6681 0.4008
C90_5 C 0.65640(18) 0.64532(16) 0.4363(2)
C91_5 C 0.63537(18) 0.62948(14) 0.39068(18)
C92_5 C 0.65556(17) 0.60322(14) 0.36307(18)
N8_5 N 0.37285(16) 0.71773(14) 0.31130(15)
N9_5 N 0.92130(19) 0.51877(18) 0.4337(2)
N10_3 N 0.51894(18) 0.51819(18) 0.10664(18)
I6_4 I 0.97059(2) 0.44152(2) 0.51155(2)
Cu10_5 Cu 0.80712(2) 0.73396(2) 0.70662(2)
Cu11_3 Cu 0.48439(3) 0.49970(3) 0.04588(3)
N11_5 N 0.26847(17) 0.71445(13) 0.35236(14)
C47_6 C 0.0986(3) 0.2928(3) 0.2779(3)
H33_6 H 0.1071 0.2915 0.2449
C48_6 C 0.0557(4) 0.3059(4) 0.2897(4)
H34_6 H 0.0358 0.3118 0.2642
C49_6 C 0.1128(5) 0.2822(4) 0.3609(4)
H35_6 H 0.1313 0.2716 0.3848
C50_6 C 0.0738(4) 0.2968(3) 0.3739(4)
H36_6 H 0.0667 0.2986 0.4072
C51_6 C 0.04130(18) 0.31050(16) 0.33724(19)
H39_6 H 0.0102 0.3420 0.4206
N8_6 N 0.12715(16) 0.28227(14) 0.31130(15)
Cu11_4 Cu 0.01561(3) 0.50030(3) 0.04588(3)
N11_6 N 0.23153(17) 0.28555(13) 0.35236(14)
Cu8_4 Cu 0.51561(3) 0.49970(3) 0.45412(3)
C52_6 C 0.99556(18) 0.32650(15) 0.35171(19)
C53_6 C 0.9614(3) 0.3270(3) 0.3177(3)
H37_6 H 0.9665 0.3180 0.2860
C54_6 C 0.9190(3) 0.3408(3) 0.3305(4)
H38_6 H 0.8956 0.3407 0.3075
C55_6 C 0.9869(4) 0.3410(4) 0.3975(4)
C56_6 C 0.9461(4) 0.3535(4) 0.4097(4)
H40_6 H 0.9416 0.3618 0.4418
C57_6 C 0.91105(17) 0.35503(15) 0.37844(18)
C58_6 C 0.6160(3) 0.4952(3) 0.4482(5)
H41_6 H 0.6132 0.5157 0.4687
C59_6 C 0.6602(3) 0.4845(2) 0.4381(5)
H42_6 H 0.6849 0.4973 0.4511
C60_6 C 0.5843(3) 0.4546(5) 0.4059(5)
H43_6 H 0.5587 0.4429 0.3932
C61_6 C 0.6277(3) 0.4409(4) 0.3921(5)
H44_6 H 0.6289 0.4212 0.3701
C62_6 C 0.6661(2) 0.4543(2) 0.4085(2)
C63_6 C 0.7114(2) 0.43938(18) 0.3966(2)
C64_6 C 0.7183(4) 0.3981(4) 0.3919(5)
H45_6 H 0.6948 0.3812 0.3963
C65_6 C 0.7596(4) 0.3881(3) 0.3810(4)
H46_6 H 0.7645 0.3629 0.3762
C66_6 C 0.7444(4) 0.4600(3) 0.3839(5)
H47_6 H 0.7391 0.4853 0.3819
C67_6 C 0.7884(4) 0.4471(3) 0.3724(5)
H48_6 H 0.8105 0.4639 0.3625
C68_6 C 0.7986(2) 0.41209(16) 0.3757(2)
C69_6 C 0.9555(8) 0.5001(4) 0.1326(6)
H49_6 H 0.9466 0.5231 0.1206
C70_6 C 0.9397(8) 0.4902(4) 0.1752(7)
H50_6 H 0.9312 0.5088 0.1970
C71_6 C 0.9796(5) 0.4452(5) 0.1163(5)
H51_6 H 0.9923 0.4296 0.0927
C72_6 C 0.9608(5) 0.4279(4) 0.1583(5)
H52_6 H 0.9638 0.4029 0.1656
C73_6 C 0.9349(2) 0.45560(18) 0.1899(2)
C74_6 C 0.91045(19) 0.44059(16) 0.2340(2)
C75_6 C 0.8980(5) 0.4618(5) 0.2694(6)
H53_6 H 0.9050 0.4868 0.2667
C76_6 C 0.8738(4) 0.4498(3) 0.3134(4)
H54_6 H 0.8637 0.4668 0.3367
C77_6 C 0.9025(5) 0.4020(4) 0.2388(5)
H55_6 H 0.9126 0.3859 0.2145
C78_6 C 0.8793(5) 0.3880(3) 0.2803(4)
H56_6 H 0.8724 0.3630 0.2822
C79_6 C 0.86651(18) 0.41248(15) 0.31950(19)
N7_6 N 0.73153(17) 0.28555(13) 0.64764(14)
C80_6 C 0.7543(3) 0.26096(11) 0.6170(2)
H57_6 H 0.7540 0.2358 0.6239
C81_6 C 0.7774(3) 0.27403(14) 0.5758(2)
H58_6 H 0.7926 0.2576 0.5553
C82_6 C 0.77780(19) 0.31168(15) 0.56540(17)
C83_6 C 0.7550(3) 0.33627(11) 0.5961(2)
H59_6 H 0.7553 0.3615 0.5891
C84_6 C 0.7319(3) 0.32321(13) 0.6372(2)
H60_6 H 0.7167 0.3397 0.6577
C85_6 C 0.8009(2) 0.32571(16) 0.5199(2)
C86_6 C 0.8443(4) 0.3415(3) 0.5230(5)
H61_6 H 0.8599 0.3432 0.5528
C87_6 C 0.8622(5) 0.3541(4) 0.4803(5)
H62_6 H 0.8914 0.3637 0.4824
C88_6 C 0.7797(5) 0.3232(4) 0.4744(5)
H63_6 H 0.7507 0.3132 0.4722
C89_6 C 0.8015(5) 0.3358(4) 0.4317(4)
H64_6 H 0.7886 0.3319 0.4008
C90_6 C 0.84360(18) 0.35468(16) 0.4363(2)
C91_6 C 0.86463(18) 0.37052(14) 0.39068(18)
C92_6 C 0.84444(17) 0.39678(14) 0.36307(18)
N9_6 N 0.57870(19) 0.48123(18) 0.4337(2)
N10_4 N 0.98106(18) 0.48181(18) 0.10664(18)
I6_5 I 0.52941(2) 0.55848(2) 0.51155(2)
Cu10_6 Cu 0.69288(2) 0.26604(2) 0.70662(2)
Cu12_6 Cu 0.48439(3) 0.50030(3) 0.54588(3)
N12_4 N 0.48106(18) 0.51819(18) 0.39336(18)
I8_5 I 0.47059(2) 0.44152(2) 0.48845(2)
C52_7 C 0.00444(18) 0.32650(15) 0.14829(19)
C53_7 C 0.0386(3) 0.3270(3) 0.1823(3)
H37_7 H 0.0335 0.3180 0.2140
C54_7 C 0.0810(3) 0.3408(3) 0.1695(4)
H38_7 H 0.1044 0.3407 0.1925
C55_7 C 0.0131(4) 0.3410(4) 0.1025(4)
C56_7 C 0.0539(4) 0.3535(4) 0.0903(4)
H40_7 H 0.0584 0.3618 0.0582
C57_7 C 0.08895(17) 0.35503(15) 0.12156(18)
C58_7 C 0.3840(3) 0.4952(3) 0.0518(5)
H41_7 H 0.3868 0.5157 0.0313
C59_7 C 0.3398(3) 0.4845(2) 0.0619(5)
H42_7 H 0.3151 0.4973 0.0489
C60_7 C 0.4157(3) 0.4546(5) 0.0941(5)
H43_7 H 0.4413 0.4429 0.1068
C61_7 C 0.3723(3) 0.4409(4) 0.1079(5)
H44_7 H 0.3711 0.4212 0.1299
C62_7 C 0.3339(2) 0.4543(2) 0.0915(2)
C63_7 C 0.2886(2) 0.43938(18) 0.1034(2)
C64_7 C 0.2817(4) 0.3981(4) 0.1081(5)
H45_7 H 0.3052 0.3812 0.1037
C65_7 C 0.2404(4) 0.3881(3) 0.1190(4)
H46_7 H 0.2355 0.3629 0.1238
C66_7 C 0.2556(4) 0.4600(3) 0.1161(5)
H47_7 H 0.2609 0.4853 0.1181
C67_7 C 0.2116(4) 0.4471(3) 0.1276(5)
H48_7 H 0.1895 0.4639 0.1375
C68_7 C 0.2014(2) 0.41209(16) 0.1243(2)
C69_7 C 0.0445(8) 0.5001(4) 0.3674(6)
H49_7 H 0.0534 0.5231 0.3794
C70_7 C 0.0603(8) 0.4902(4) 0.3248(7)
H50_7 H 0.0688 0.5088 0.3030
C71_7 C 0.0204(5) 0.4452(5) 0.3837(5)
H51_7 H 0.0077 0.4296 0.4073
C72_7 C 0.0392(5) 0.4279(4) 0.3417(5)
H52_7 H 0.0362 0.4029 0.3344
C73_7 C 0.0651(2) 0.45560(18) 0.3101(2)
C74_7 C 0.08955(19) 0.44059(16) 0.2660(2)
C75_7 C 0.1020(5) 0.4618(5) 0.2306(6)
H53_7 H 0.0950 0.4868 0.2333
C76_7 C 0.1262(4) 0.4498(3) 0.1866(4)
H54_7 H 0.1363 0.4668 0.1633
C77_7 C 0.0975(5) 0.4020(4) 0.2612(5)
H55_7 H 0.0874 0.3859 0.2855
C78_7 C 0.1207(5) 0.3880(3) 0.2197(4)
H56_7 H 0.1276 0.3630 0.2178
C79_7 C 0.13349(18) 0.41248(15) 0.18050(19)
C87_7 C 0.1378(5) 0.3541(4) 0.0197(5)
H62_7 H 0.1086 0.3637 0.0176
C88_7 C 0.2203(5) 0.3232(4) 0.0256(5)
H63_7 H 0.2493 0.3132 0.0278
C89_7 C 0.1985(5) 0.3358(4) 0.0683(4)
H64_7 H 0.2114 0.3319 0.0992
C90_7 C 0.15640(18) 0.35468(16) 0.0637(2)
C91_7 C 0.13537(18) 0.37052(14) 0.10932(18)
C92_7 C 0.15556(17) 0.39678(14) 0.13693(18)
N9_7 N 0.42130(19) 0.48123(18) 0.0663(2)
I8_6 I 0.52941(2) 0.44152(2) 0.01155(2)
N7_7 N 0.26847(17) 0.28555(13) 0.85236(14)
C80_7 C 0.2457(3) 0.26096(11) 0.8830(2)
H57_7 H 0.2460 0.2358 0.8761
C81_7 C 0.2226(3) 0.27403(14) 0.9242(2)
H58_7 H 0.2074 0.2576 0.9447
C82_7 C 0.22220(19) 0.31168(15) 0.93460(17)
C83_7 C 0.2450(3) 0.33627(11) 0.9039(2)
H59_7 H 0.2447 0.3615 0.9109
C84_7 C 0.2681(3) 0.32321(13) 0.8628(2)
H60_7 H 0.2833 0.3397 0.8423
C85_7 C 0.1991(2) 0.32571(16) 0.9801(2)
C86_7 C 0.1557(4) 0.3415(3) 0.9770(5)
H61_7 H 0.1401 0.3432 0.9472
I6_6 I 0.47059(2) 0.55848(2) 0.98845(2)
Cu10_7 Cu 0.30712(2) 0.26604(2) 0.79338(2)
Cu12_7 Cu 0.51561(3) 0.50030(3) 0.95412(3)
C47_7 C 0.9014(3) 0.2928(3) 0.2221(3)
H33_7 H 0.8929 0.2915 0.2551
C48_7 C 0.9443(4) 0.3059(4) 0.2103(4)
H34_7 H 0.9642 0.3118 0.2358
C49_7 C 0.8872(5) 0.2822(4) 0.1391(4)
H35_7 H 0.8687 0.2716 0.1152
C50_7 C 0.9262(4) 0.2968(3) 0.1261(4)
H36_7 H 0.9333 0.2986 0.0928
C51_7 C 0.95870(18) 0.31050(16) 0.16276(19)
H39_7 H 0.9898 0.3420 0.0794
N8_7 N 0.87285(16) 0.28227(14) 0.18870(15)
N11_7 N 0.76847(17) 0.28555(13) 0.14764(14)
C47_8 C 0.5986(3) 0.7072(3) 0.2221(3)
H33_8 H 0.6071 0.7085 0.2551
C48_8 C 0.5557(4) 0.6941(4) 0.2103(4)
H34_8 H 0.5358 0.6882 0.2358
C49_8 C 0.6128(5) 0.7178(4) 0.1391(4)
H35_8 H 0.6313 0.7284 0.1152
C50_8 C 0.5738(4) 0.7032(3) 0.1261(4)
H36_8 H 0.5667 0.7014 0.0928
C51_8 C 0.54130(18) 0.68950(16) 0.16276(19)
C52_8 C 0.49556(18) 0.67350(15) 0.14829(19)
C53_8 C 0.4614(3) 0.6730(3) 0.1823(3)
H37_8 H 0.4665 0.6820 0.2140
C54_8 C 0.4190(3) 0.6592(3) 0.1695(4)
H38_8 H 0.3956 0.6593 0.1925
C55_8 C 0.4869(4) 0.6590(4) 0.1025(4)
H39_8 H 0.5102 0.6580 0.0794
C56_8 C 0.4461(4) 0.6465(4) 0.0903(4)
H40_8 H 0.4416 0.6382 0.0582
C57_8 C 0.41105(17) 0.64497(15) 0.12156(18)
C58_8 C 0.1160(3) 0.5048(3) 0.0518(5)
H41_8 H 0.1132 0.4843 0.0313
C59_8 C 0.1602(3) 0.5155(2) 0.0619(5)
H42_8 H 0.1849 0.5027 0.0489
C60_8 C 0.0843(3) 0.5454(5) 0.0941(5)
H43_8 H 0.0587 0.5571 0.1068
C61_8 C 0.1277(3) 0.5591(4) 0.1079(5)
H44_8 H 0.1289 0.5788 0.1299
C62_8 C 0.1661(2) 0.5457(2) 0.0915(2)
C63_8 C 0.2114(2) 0.56062(18) 0.1034(2)
C64_8 C 0.2183(4) 0.6019(4) 0.1081(5)
H45_8 H 0.1948 0.6188 0.1037
C65_8 C 0.2596(4) 0.6119(3) 0.1190(4)
H46_8 H 0.2645 0.6371 0.1238
C66_8 C 0.2444(4) 0.5400(3) 0.1161(5)
H47_8 H 0.2391 0.5147 0.1181
C67_8 C 0.2884(4) 0.5529(3) 0.1276(5)
H48_8 H 0.3105 0.5361 0.1375
C68_8 C 0.2986(2) 0.58791(16) 0.1243(2)
C69_8 C 0.4555(8) 0.4999(4) 0.3674(6)
H49_8 H 0.4466 0.4769 0.3794
C70_8 C 0.4397(8) 0.5098(4) 0.3248(7)
H50_8 H 0.4312 0.4912 0.3030
C71_8 C 0.4796(5) 0.5548(5) 0.3837(5)
H51_8 H 0.4923 0.5704 0.4073
C72_8 C 0.4608(5) 0.5721(4) 0.3417(5)
H52_8 H 0.4638 0.5971 0.3344
C73_8 C 0.4349(2) 0.54440(18) 0.3101(2)
C74_8 C 0.41045(19) 0.55941(16) 0.2660(2)
C75_8 C 0.3980(5) 0.5382(5) 0.2306(6)
H53_8 H 0.4050 0.5132 0.2333
C76_8 C 0.3738(4) 0.5502(3) 0.1866(4)
H54_8 H 0.3637 0.5332 0.1633
C77_8 C 0.4025(5) 0.5980(4) 0.2612(5)
H55_8 H 0.4126 0.6141 0.2855
C78_8 C 0.3793(5) 0.6120(3) 0.2197(4)
H56_8 H 0.3724 0.6370 0.2178
C79_8 C 0.36651(18) 0.58752(15) 0.18050(19)
C87_8 C 0.3622(5) 0.6459(4) 0.0197(5)
H62_8 H 0.3914 0.6363 0.0176
C88_8 C 0.2797(5) 0.6768(4) 0.0256(5)
H63_8 H 0.2507 0.6868 0.0278
C89_8 C 0.3015(5) 0.6642(4) 0.0683(4)
H64_8 H 0.2886 0.6681 0.0992
C90_8 C 0.34360(18) 0.64532(16) 0.0637(2)
C91_8 C 0.36463(18) 0.62948(14) 0.10932(18)
C92_8 C 0.34444(17) 0.60322(14) 0.13693(18)
N8_8 N 0.62715(16) 0.71773(14) 0.18870(15)
N9_8 N 0.07870(19) 0.51877(18) 0.0663(2)
N11_8 N 0.73153(17) 0.71445(13) 0.14764(14)
N7_8 N 0.23153(17) 0.71445(13) 0.85236(14)
C80_8 C 0.2543(3) 0.73904(11) 0.8830(2)
H57_8 H 0.2540 0.7642 0.8761
C81_8 C 0.2774(3) 0.72597(14) 0.9242(2)
H58_8 H 0.2926 0.7424 0.9447
C82_8 C 0.27780(19) 0.68832(15) 0.93460(17)
C83_8 C 0.2550(3) 0.66373(11) 0.9039(2)
H59_8 H 0.2553 0.6385 0.9109
C84_8 C 0.2319(3) 0.67679(13) 0.8628(2)
H60_8 H 0.2167 0.6603 0.8423
C85_8 C 0.3009(2) 0.67429(16) 0.9801(2)
C86_8 C 0.3443(4) 0.6585(3) 0.9770(5)
H61_8 H 0.3599 0.6568 0.9472
I6_7 I 0.02941(2) 0.44152(2) 0.98845(2)
Cu10_8 Cu 0.19288(2) 0.73396(2) 0.79338(2)
I8_7 I 0.97059(2) 0.55848(2) 0.01155(2)
Cu12_8 Cu 0.98439(3) 0.49970(3) 0.95412(3)
C47_9 C 0.0986(3) 0.7928(3) 0.7221(3)
H33_9 H 0.1071 0.7915 0.7551
C48_9 C 0.0557(4) 0.8059(4) 0.7103(4)
H34_9 H 0.0358 0.8118 0.7358
C49_9 C 0.1128(5) 0.7822(4) 0.6391(4)
H35_9 H 0.1313 0.7716 0.6152
C50_9 C 0.0738(4) 0.7968(3) 0.6261(4)
H36_9 H 0.0667 0.7986 0.5928
C51_9 C 0.04130(18) 0.81050(16) 0.66276(19)
H39_9 H 0.0102 0.8420 0.5794
N8_9 N 0.12715(16) 0.78227(14) 0.68870(15)
I5_5 I 0.21118(2) 0.69508(2) 0.71263(2)
I7_5 I 0.21118(2) 0.80492(2) 0.78737(2)
H41_9 H 0.6132 0.0157 0.5313
C69_9 C 0.9555(8) 0.0001(4) 0.8674(6)
H49_9 H 0.9466 0.0231 0.8794
H50_9 H 0.9312 0.0088 0.8030
N12_5 N 0.48106(18) 0.01819(18) 0.60664(18)
C52_9 C 0.99556(18) 0.82650(15) 0.64829(19)
C53_9 C 0.9614(3) 0.8270(3) 0.6823(3)
H37_9 H 0.9665 0.8180 0.7140
C54_9 C 0.9190(3) 0.8408(3) 0.6695(4)
H38_9 H 0.8956 0.8407 0.6925
C55_9 C 0.9869(4) 0.8410(4) 0.6025(4)
C56_9 C 0.9461(4) 0.8535(4) 0.5903(4)
H40_9 H 0.9416 0.8618 0.5582
C57_9 C 0.91105(17) 0.85503(15) 0.62156(18)
C58_9 C 0.6160(3) 0.9952(3) 0.5518(5)
C59_9 C 0.6602(3) 0.9845(2) 0.5619(5)
H42_9 H 0.6849 0.9973 0.5489
C60_9 C 0.5843(3) 0.9546(5) 0.5941(5)
H43_9 H 0.5587 0.9429 0.6068
C61_9 C 0.6277(3) 0.9409(4) 0.6079(5)
H44_9 H 0.6289 0.9212 0.6299
C62_9 C 0.6661(2) 0.9543(2) 0.5915(2)
C63_9 C 0.7114(2) 0.93938(18) 0.6034(2)
C64_9 C 0.7183(4) 0.8981(4) 0.6081(5)
H45_9 H 0.6948 0.8812 0.6037
C65_9 C 0.7596(4) 0.8881(3) 0.6190(4)
H46_9 H 0.7645 0.8629 0.6238
C66_9 C 0.7444(4) 0.9600(3) 0.6161(5)
H47_9 H 0.7391 0.9853 0.6181
C67_9 C 0.7884(4) 0.9471(3) 0.6276(5)
H48_9 H 0.8105 0.9639 0.6375
C68_9 C 0.7986(2) 0.91209(16) 0.6243(2)
C70_9 C 0.9397(8) 0.9902(4) 0.8248(7)
C71_9 C 0.9796(5) 0.9452(5) 0.8837(5)
H51_9 H 0.9923 0.9296 0.9073
C72_9 C 0.9608(5) 0.9279(4) 0.8417(5)
H52_9 H 0.9638 0.9029 0.8344
C73_9 C 0.9349(2) 0.95560(18) 0.8101(2)
C74_9 C 0.91045(19) 0.94059(16) 0.7660(2)
C75_9 C 0.8980(5) 0.9618(5) 0.7306(6)
H53_9 H 0.9050 0.9868 0.7333
C76_9 C 0.8738(4) 0.9498(3) 0.6866(4)
H54_9 H 0.8637 0.9668 0.6633
C77_9 C 0.9025(5) 0.9020(4) 0.7612(5)
H55_9 H 0.9126 0.8859 0.7855
C78_9 C 0.8793(5) 0.8880(3) 0.7197(4)
H56_9 H 0.8724 0.8630 0.7178
C79_9 C 0.86651(18) 0.91248(15) 0.68050(19)
C80_9 C 0.7543(3) 0.76096(11) 0.3830(2)
H57_9 H 0.7540 0.7358 0.3761
C81_9 C 0.7774(3) 0.77403(14) 0.4242(2)
H58_9 H 0.7926 0.7576 0.4447
C82_9 C 0.77780(19) 0.81168(15) 0.43460(17)
C83_9 C 0.7550(3) 0.83627(11) 0.4039(2)
H59_9 H 0.7553 0.8615 0.4109
C84_9 C 0.7319(3) 0.82321(13) 0.3628(2)
H60_9 H 0.7167 0.8397 0.3423
C85_9 C 0.8009(2) 0.82571(16) 0.4801(2)
C86_9 C 0.8443(4) 0.8415(3) 0.4770(5)
H61_9 H 0.8599 0.8432 0.4472
C87_9 C 0.8622(5) 0.8541(4) 0.5197(5)
H62_9 H 0.8914 0.8637 0.5176
C88_9 C 0.7797(5) 0.8232(4) 0.5256(5)
H63_9 H 0.7507 0.8132 0.5278
C89_9 C 0.8015(5) 0.8358(4) 0.5683(4)
H64_9 H 0.7886 0.8319 0.5992
C90_9 C 0.84360(18) 0.85468(16) 0.5637(2)
C91_9 C 0.86463(18) 0.87052(14) 0.60932(18)
C92_9 C 0.84444(17) 0.89678(14) 0.63693(18)
N9_9 N 0.57870(19) 0.98123(18) 0.5663(2)
N10_5 N 0.98106(18) 0.98181(18) 0.89336(18)
N12_6 N 0.01894(18) 0.98181(18) 0.60664(18)
C47_10 C 0.4014(3) 0.2072(3) 0.7221(3)
H33_10 H 0.3929 0.2085 0.7551
C48_10 C 0.4443(4) 0.1941(4) 0.7103(4)
H34_10 H 0.4642 0.1882 0.7358
C49_10 C 0.3872(5) 0.2178(4) 0.6391(4)
H35_10 H 0.3687 0.2284 0.6152
C50_10 C 0.4262(4) 0.2032(3) 0.6261(4)
H36_10 H 0.4333 0.2014 0.5928
C51_10 C 0.45870(18) 0.18950(16) 0.66276(19)
C52_10 C 0.50444(18) 0.17350(15) 0.64829(19)
C53_10 C 0.5386(3) 0.1730(3) 0.6823(3)
H37_10 H 0.5335 0.1820 0.7140
C54_10 C 0.5810(3) 0.1592(3) 0.6695(4)
H38_10 H 0.6044 0.1593 0.6925
C55_10 C 0.5131(4) 0.1590(4) 0.6025(4)
H39_10 H 0.4898 0.1580 0.5794
C56_10 C 0.5539(4) 0.1465(4) 0.5903(4)
H40_10 H 0.5584 0.1382 0.5582
C57_10 C 0.58895(17) 0.14497(15) 0.62156(18)
C58_10 C 0.8840(3) 0.0048(3) 0.5518(5)
C59_10 C 0.8398(3) 0.0155(2) 0.5619(5)
H42_10 H 0.8151 0.0027 0.5489
C60_10 C 0.9157(3) 0.0454(5) 0.5941(5)
H43_10 H 0.9413 0.0571 0.6068
C61_10 C 0.8723(3) 0.0591(4) 0.6079(5)
H44_10 H 0.8711 0.0788 0.6299
C62_10 C 0.8339(2) 0.0457(2) 0.5915(2)
C63_10 C 0.7886(2) 0.06062(18) 0.6034(2)
C64_10 C 0.7817(4) 0.1019(4) 0.6081(5)
H45_10 H 0.8052 0.1188 0.6037
C65_10 C 0.7404(4) 0.1119(3) 0.6190(4)
H46_10 H 0.7355 0.1371 0.6238
C66_10 C 0.7556(4) 0.0400(3) 0.6161(5)
H47_10 H 0.7609 0.0147 0.6181
C67_10 C 0.7116(4) 0.0529(3) 0.6276(5)
H48_10 H 0.6895 0.0361 0.6375
C68_10 C 0.7014(2) 0.08791(16) 0.6243(2)
C70_10 C 0.5603(8) 0.0098(4) 0.8248(7)
C71_10 C 0.5204(5) 0.0548(5) 0.8837(5)
H51_10 H 0.5077 0.0704 0.9073
C72_10 C 0.5392(5) 0.0721(4) 0.8417(5)
H52_10 H 0.5362 0.0971 0.8344
C73_10 C 0.5651(2) 0.04440(18) 0.8101(2)
C74_10 C 0.58955(19) 0.05941(16) 0.7660(2)
C75_10 C 0.6020(5) 0.0382(5) 0.7306(6)
H53_10 H 0.5950 0.0132 0.7333
C76_10 C 0.6262(4) 0.0502(3) 0.6866(4)
H54_10 H 0.6363 0.0332 0.6633
C77_10 C 0.5975(5) 0.0980(4) 0.7612(5)
H55_10 H 0.5874 0.1141 0.7855
C78_10 C 0.6207(5) 0.1120(3) 0.7197(4)
H56_10 H 0.6276 0.1370 0.7178
C79_10 C 0.63349(18) 0.08752(15) 0.68050(19)
C80_10 C 0.7457(3) 0.23904(11) 0.3830(2)
H57_10 H 0.7460 0.2642 0.3761
C81_10 C 0.7226(3) 0.22597(14) 0.4242(2)
H58_10 H 0.7074 0.2424 0.4447
C82_10 C 0.72220(19) 0.18832(15) 0.43460(17)
C83_10 C 0.7450(3) 0.16373(11) 0.4039(2)
H59_10 H 0.7447 0.1385 0.4109
C84_10 C 0.7681(3) 0.17679(13) 0.3628(2)
H60_10 H 0.7833 0.1603 0.3423
C85_10 C 0.6991(2) 0.17429(16) 0.4801(2)
C86_10 C 0.6557(4) 0.1585(3) 0.4770(5)
H61_10 H 0.6401 0.1568 0.4472
C87_10 C 0.6378(5) 0.1459(4) 0.5197(5)
H62_10 H 0.6086 0.1363 0.5176
C88_10 C 0.7203(5) 0.1768(4) 0.5256(5)
H63_10 H 0.7493 0.1868 0.5278
C89_10 C 0.6985(5) 0.1642(4) 0.5683(4)
H64_10 H 0.7114 0.1681 0.5992
C90_10 C 0.65640(18) 0.14532(16) 0.5637(2)
C91_10 C 0.63537(18) 0.12948(14) 0.60932(18)
C92_10 C 0.65556(17) 0.10322(14) 0.63693(18)
N8_10 N 0.37285(16) 0.21773(14) 0.68870(15)
N9_10 N 0.92130(19) 0.01877(18) 0.5663(2)
N10_6 N 0.51894(18) 0.01819(18) 0.89336(18)
I5_6 I 0.28882(2) 0.30492(2) 0.71263(2)
I7_6 I 0.28882(2) 0.19508(2) 0.78737(2)
H41_10 H 0.8868 0.9843 0.5313
C69_10 C 0.5445(8) 0.9999(4) 0.8674(6)
H49_10 H 0.5534 0.9769 0.8794
H50_10 H 0.5688 0.9912 0.8030
C80_11 C 0.2543(3) 0.23904(11) 0.1170(2)
H57_11 H 0.2540 0.2642 0.1239
C81_11 C 0.2774(3) 0.22597(14) 0.0758(2)
H58_11 H 0.2926 0.2424 0.0553
C82_11 C 0.27780(19) 0.18832(15) 0.06540(17)
C83_11 C 0.2550(3) 0.16373(11) 0.0961(2)
H59_11 H 0.2553 0.1385 0.0891
C84_11 C 0.2319(3) 0.17679(13) 0.1372(2)
H60_11 H 0.2167 0.1603 0.1577
C85_11 C 0.3009(2) 0.17429(16) 0.0199(2)
C86_11 C 0.3443(4) 0.1585(3) 0.0230(5)
H61_11 H 0.3599 0.1568 0.0528
C47_11 C 0.5986(3) 0.2072(3) 0.7779(3)
H33_11 H 0.6071 0.2085 0.7449
C48_11 C 0.5557(4) 0.1941(4) 0.7897(4)
H34_11 H 0.5358 0.1882 0.7642
C49_11 C 0.6128(5) 0.2178(4) 0.8609(4)
H35_11 H 0.6313 0.2284 0.8848
C50_11 C 0.5738(4) 0.2032(3) 0.8739(4)
H36_11 H 0.5667 0.2014 0.9072
C51_11 C 0.54130(18) 0.18950(16) 0.83724(19)
C52_11 C 0.49556(18) 0.17350(15) 0.85171(19)
C53_11 C 0.4614(3) 0.1730(3) 0.8177(3)
H37_11 H 0.4665 0.1820 0.7860
C54_11 C 0.4190(3) 0.1592(3) 0.8305(4)
H38_11 H 0.3956 0.1593 0.8075
C55_11 C 0.4869(4) 0.1590(4) 0.8975(4)
H39_11 H 0.5102 0.1580 0.9206
C56_11 C 0.4461(4) 0.1465(4) 0.9097(4)
H40_11 H 0.4416 0.1382 0.9418
C57_11 C 0.41105(17) 0.14497(15) 0.87844(18)
C58_11 C 0.1160(3) 0.0048(3) 0.9482(5)
C59_11 C 0.1602(3) 0.0155(2) 0.9381(5)
H42_11 H 0.1849 0.0027 0.9511
C60_11 C 0.0843(3) 0.0454(5) 0.9059(5)
H43_11 H 0.0587 0.0571 0.8932
C61_11 C 0.1277(3) 0.0591(4) 0.8921(5)
H44_11 H 0.1289 0.0788 0.8701
C62_11 C 0.1661(2) 0.0457(2) 0.9085(2)
C63_11 C 0.2114(2) 0.06062(18) 0.8966(2)
C64_11 C 0.2183(4) 0.1019(4) 0.8919(5)
H45_11 H 0.1948 0.1188 0.8963
C65_11 C 0.2596(4) 0.1119(3) 0.8810(4)
H46_11 H 0.2645 0.1371 0.8762
C66_11 C 0.2444(4) 0.0400(3) 0.8839(5)
H47_11 H 0.2391 0.0147 0.8819
C67_11 C 0.2884(4) 0.0529(3) 0.8724(5)
H48_11 H 0.3105 0.0361 0.8625
C68_11 C 0.2986(2) 0.08791(16) 0.8757(2)
C70_11 C 0.4397(8) 0.0098(4) 0.6752(7)
C71_11 C 0.4796(5) 0.0548(5) 0.6163(5)
H51_11 H 0.4923 0.0704 0.5927
C72_11 C 0.4608(5) 0.0721(4) 0.6583(5)
H52_11 H 0.4638 0.0971 0.6656
C73_11 C 0.4349(2) 0.04440(18) 0.6899(2)
C74_11 C 0.41045(19) 0.05941(16) 0.7340(2)
C75_11 C 0.3980(5) 0.0382(5) 0.7694(6)
H53_11 H 0.4050 0.0132 0.7667
C76_11 C 0.3738(4) 0.0502(3) 0.8134(4)
H54_11 H 0.3637 0.0332 0.8367
C77_11 C 0.4025(5) 0.0980(4) 0.7388(5)
H55_11 H 0.4126 0.1141 0.7145
C78_11 C 0.3793(5) 0.1120(3) 0.7803(4)
H56_11 H 0.3724 0.1370 0.7822
C79_11 C 0.36651(18) 0.08752(15) 0.81950(19)
C87_11 C 0.3622(5) 0.1459(4) 0.9803(5)
H62_11 H 0.3914 0.1363 0.9824
C88_11 C 0.2797(5) 0.1768(4) 0.9744(5)
H63_11 H 0.2507 0.1868 0.9722
C89_11 C 0.3015(5) 0.1642(4) 0.9317(4)
H64_11 H 0.2886 0.1681 0.9008
C90_11 C 0.34360(18) 0.14532(16) 0.9363(2)
C91_11 C 0.36463(18) 0.12948(14) 0.89068(18)
C92_11 C 0.34444(17) 0.10322(14) 0.86307(18)
N8_11 N 0.62715(16) 0.21773(14) 0.81130(15)
N9_11 N 0.07870(19) 0.01877(18) 0.9337(2)
I5_7 I 0.71118(2) 0.30492(2) 0.78737(2)
I7_7 I 0.71118(2) 0.19508(2) 0.71263(2)
H41_11 H 0.1132 0.9843 0.9687
C69_11 C 0.4555(8) 0.9999(4) 0.6326(6)
H49_11 H 0.4466 0.9769 0.6206
H50_11 H 0.4312 0.9912 0.6970
H41_12 H 0.3868 0.0157 0.9687
C69_12 C 0.0445(8) 0.0001(4) 0.6326(6)
H49_12 H 0.0534 0.0231 0.6206
H50_12 H 0.0688 0.0088 0.6970
C80_12 C 0.2457(3) 0.76096(11) 0.1170(2)
H57_12 H 0.2460 0.7358 0.1239
C81_12 C 0.2226(3) 0.77403(14) 0.0758(2)
H58_12 H 0.2074 0.7576 0.0553
C82_12 C 0.22220(19) 0.81168(15) 0.06540(17)
C83_12 C 0.2450(3) 0.83627(11) 0.0961(2)
H59_12 H 0.2447 0.8615 0.0891
C84_12 C 0.2681(3) 0.82321(13) 0.1372(2)
H60_12 H 0.2833 0.8397 0.1577
C85_12 C 0.1991(2) 0.82571(16) 0.0199(2)
C86_12 C 0.1557(4) 0.8415(3) 0.0230(5)
H61_12 H 0.1401 0.8432 0.0528
C52_12 C 0.00444(18) 0.82650(15) 0.85171(19)
C53_12 C 0.0386(3) 0.8270(3) 0.8177(3)
H37_12 H 0.0335 0.8180 0.7860
C54_12 C 0.0810(3) 0.8408(3) 0.8305(4)
H38_12 H 0.1044 0.8407 0.8075
C55_12 C 0.0131(4) 0.8410(4) 0.8975(4)
C56_12 C 0.0539(4) 0.8535(4) 0.9097(4)
H40_12 H 0.0584 0.8618 0.9418
C57_12 C 0.08895(17) 0.85503(15) 0.87844(18)
C58_12 C 0.3840(3) 0.9952(3) 0.9482(5)
C59_12 C 0.3398(3) 0.9845(2) 0.9381(5)
H42_12 H 0.3151 0.9973 0.9511
C60_12 C 0.4157(3) 0.9546(5) 0.9059(5)
H43_12 H 0.4413 0.9429 0.8932
C61_12 C 0.3723(3) 0.9409(4) 0.8921(5)
H44_12 H 0.3711 0.9212 0.8701
C62_12 C 0.3339(2) 0.9543(2) 0.9085(2)
C63_12 C 0.2886(2) 0.93938(18) 0.8966(2)
C64_12 C 0.2817(4) 0.8981(4) 0.8919(5)
H45_12 H 0.3052 0.8812 0.8963
C65_12 C 0.2404(4) 0.8881(3) 0.8810(4)
H46_12 H 0.2355 0.8629 0.8762
C66_12 C 0.2556(4) 0.9600(3) 0.8839(5)
H47_12 H 0.2609 0.9853 0.8819
C67_12 C 0.2116(4) 0.9471(3) 0.8724(5)
H48_12 H 0.1895 0.9639 0.8625
C68_12 C 0.2014(2) 0.91209(16) 0.8757(2)
C70_12 C 0.0603(8) 0.9902(4) 0.6752(7)
C71_12 C 0.0204(5) 0.9452(5) 0.6163(5)
H51_12 H 0.0077 0.9296 0.5927
C72_12 C 0.0392(5) 0.9279(4) 0.6583(5)
H52_12 H 0.0362 0.9029 0.6656
C73_12 C 0.0651(2) 0.95560(18) 0.6899(2)
C74_12 C 0.08955(19) 0.94059(16) 0.7340(2)
C75_12 C 0.1020(5) 0.9618(5) 0.7694(6)
H53_12 H 0.0950 0.9868 0.7667
C76_12 C 0.1262(4) 0.9498(3) 0.8134(4)
H54_12 H 0.1363 0.9668 0.8367
C77_12 C 0.0975(5) 0.9020(4) 0.7388(5)
H55_12 H 0.0874 0.8859 0.7145
C78_12 C 0.1207(5) 0.8880(3) 0.7803(4)
H56_12 H 0.1276 0.8630 0.7822
C79_12 C 0.13349(18) 0.91248(15) 0.81950(19)
C87_12 C 0.1378(5) 0.8541(4) 0.9803(5)
H62_12 H 0.1086 0.8637 0.9824
C88_12 C 0.2203(5) 0.8232(4) 0.9744(5)
H63_12 H 0.2493 0.8132 0.9722
C89_12 C 0.1985(5) 0.8358(4) 0.9317(4)
H64_12 H 0.2114 0.8319 0.9008
C90_12 C 0.15640(18) 0.85468(16) 0.9363(2)
C91_12 C 0.13537(18) 0.87052(14) 0.89068(18)
C92_12 C 0.15556(17) 0.89678(14) 0.86307(18)
N9_12 N 0.42130(19) 0.98123(18) 0.9337(2)
C47_12 C 0.9014(3) 0.7928(3) 0.7779(3)
H33_12 H 0.8929 0.7915 0.7449
C48_12 C 0.9443(4) 0.8059(4) 0.7897(4)
H34_12 H 0.9642 0.8118 0.7642
C49_12 C 0.8872(5) 0.7822(4) 0.8609(4)
H35_12 H 0.8687 0.7716 0.8848
C50_12 C 0.9262(4) 0.7968(3) 0.8739(4)
H36_12 H 0.9333 0.7986 0.9072
C51_12 C 0.95870(18) 0.81050(16) 0.83724(19)
H39_12 H 0.9898 0.8420 0.9206
N8_12 N 0.87285(16) 0.78227(14) 0.81130(15)
I5_8 I 0.78882(2) 0.69508(2) 0.78737(2)
I7_8 I 0.78882(2) 0.80492(2) 0.71263(2)
C47_13 C 0.5986(3) 0.2928(3) 0.7221(3)
H33_13 H 0.6071 0.2915 0.7551
C48_13 C 0.5557(4) 0.3059(4) 0.7103(4)
H34_13 H 0.5358 0.3118 0.7358
C49_13 C 0.6128(5) 0.2822(4) 0.6391(4)
H35_13 H 0.6313 0.2716 0.6152
C50_13 C 0.5738(4) 0.2968(3) 0.6261(4)
H36_13 H 0.5667 0.2986 0.5928
C51_13 C 0.54130(18) 0.31050(16) 0.66276(19)
C52_13 C 0.49556(18) 0.32650(15) 0.64829(19)
C53_13 C 0.4614(3) 0.3270(3) 0.6823(3)
H37_13 H 0.4665 0.3180 0.7140
C54_13 C 0.4190(3) 0.3408(3) 0.6695(4)
H38_13 H 0.3956 0.3407 0.6925
C55_13 C 0.4869(4) 0.3410(4) 0.6025(4)
H39_13 H 0.5102 0.3420 0.5794
C56_13 C 0.4461(4) 0.3535(4) 0.5903(4)
H40_13 H 0.4416 0.3618 0.5582
C57_13 C 0.41105(17) 0.35503(15) 0.62156(18)
C58_13 C 0.1160(3) 0.4952(3) 0.5518(5)
H41_13 H 0.1132 0.5157 0.5313
C59_13 C 0.1602(3) 0.4845(2) 0.5619(5)
H42_13 H 0.1849 0.4973 0.5489
C60_13 C 0.0843(3) 0.4546(5) 0.5941(5)
H43_13 H 0.0587 0.4429 0.6068
C61_13 C 0.1277(3) 0.4409(4) 0.6079(5)
H44_13 H 0.1289 0.4212 0.6299
C62_13 C 0.1661(2) 0.4543(2) 0.5915(2)
C63_13 C 0.2114(2) 0.43938(18) 0.6034(2)
C64_13 C 0.2183(4) 0.3981(4) 0.6081(5)
H45_13 H 0.1948 0.3812 0.6037
C65_13 C 0.2596(4) 0.3881(3) 0.6190(4)
H46_13 H 0.2645 0.3629 0.6238
C66_13 C 0.2444(4) 0.4600(3) 0.6161(5)
H47_13 H 0.2391 0.4853 0.6181
C67_13 C 0.2884(4) 0.4471(3) 0.6276(5)
H48_13 H 0.3105 0.4639 0.6375
C68_13 C 0.2986(2) 0.41209(16) 0.6243(2)
C69_13 C 0.4555(8) 0.5001(4) 0.8674(6)
H49_13 H 0.4466 0.5231 0.8794
C70_13 C 0.4397(8) 0.4902(4) 0.8248(7)
H50_13 H 0.4312 0.5088 0.8030
C71_13 C 0.4796(5) 0.4452(5) 0.8837(5)
H51_13 H 0.4923 0.4296 0.9073
C72_13 C 0.4608(5) 0.4279(4) 0.8417(5)
H52_13 H 0.4638 0.4029 0.8344
C73_13 C 0.4349(2) 0.45560(18) 0.8101(2)
C74_13 C 0.41045(19) 0.44059(16) 0.7660(2)
C75_13 C 0.3980(5) 0.4618(5) 0.7306(6)
H53_13 H 0.4050 0.4868 0.7333
C76_13 C 0.3738(4) 0.4498(3) 0.6866(4)
H54_13 H 0.3637 0.4668 0.6633
C77_13 C 0.4025(5) 0.4020(4) 0.7612(5)
H55_13 H 0.4126 0.3859 0.7855
C78_13 C 0.3793(5) 0.3880(3) 0.7197(4)
H56_13 H 0.3724 0.3630 0.7178
C79_13 C 0.36651(18) 0.41248(15) 0.68050(19)
C80_13 C 0.2543(3) 0.26096(11) 0.3830(2)
H57_13 H 0.2540 0.2358 0.3761
C81_13 C 0.2774(3) 0.27403(14) 0.4242(2)
H58_13 H 0.2926 0.2576 0.4447
C82_13 C 0.27780(19) 0.31168(15) 0.43460(17)
C83_13 C 0.2550(3) 0.33627(11) 0.4039(2)
H59_13 H 0.2553 0.3615 0.4109
C84_13 C 0.2319(3) 0.32321(13) 0.3628(2)
H60_13 H 0.2167 0.3397 0.3423
C85_13 C 0.3009(2) 0.32571(16) 0.4801(2)
C86_13 C 0.3443(4) 0.3415(3) 0.4770(5)
H61_13 H 0.3599 0.3432 0.4472
C87_13 C 0.3622(5) 0.3541(4) 0.5197(5)
H62_13 H 0.3914 0.3637 0.5176
C88_13 C 0.2797(5) 0.3232(4) 0.5256(5)
H63_13 H 0.2507 0.3132 0.5278
C89_13 C 0.3015(5) 0.3358(4) 0.5683(4)
H64_13 H 0.2886 0.3319 0.5992
C90_13 C 0.34360(18) 0.35468(16) 0.5637(2)
C91_13 C 0.36463(18) 0.37052(14) 0.60932(18)
C92_13 C 0.34444(17) 0.39678(14) 0.63693(18)
N8_13 N 0.62715(16) 0.28227(14) 0.68870(15)
N9_13 N 0.07870(19) 0.48123(18) 0.5663(2)
N10_7 N 0.48106(18) 0.48181(18) 0.89336(18)
N12_7 N 0.98106(18) 0.51819(18) 0.60664(18)
C52_14 C 0.00444(18) 0.67350(15) 0.64829(19)
C53_14 C 0.0386(3) 0.6730(3) 0.6823(3)
H37_14 H 0.0335 0.6820 0.7140
C54_14 C 0.0810(3) 0.6592(3) 0.6695(4)
H38_14 H 0.1044 0.6593 0.6925
C55_14 C 0.0131(4) 0.6590(4) 0.6025(4)
C56_14 C 0.0539(4) 0.6465(4) 0.5903(4)
H40_14 H 0.0584 0.6382 0.5582
C57_14 C 0.08895(17) 0.64497(15) 0.62156(18)
C58_14 C 0.3840(3) 0.5048(3) 0.5518(5)
H41_14 H 0.3868 0.4843 0.5313
C59_14 C 0.3398(3) 0.5155(2) 0.5619(5)
H42_14 H 0.3151 0.5027 0.5489
C60_14 C 0.4157(3) 0.5454(5) 0.5941(5)
H43_14 H 0.4413 0.5571 0.6068
C61_14 C 0.3723(3) 0.5591(4) 0.6079(5)
H44_14 H 0.3711 0.5788 0.6299
C62_14 C 0.3339(2) 0.5457(2) 0.5915(2)
C63_14 C 0.2886(2) 0.56062(18) 0.6034(2)
C64_14 C 0.2817(4) 0.6019(4) 0.6081(5)
H45_14 H 0.3052 0.6188 0.6037
C65_14 C 0.2404(4) 0.6119(3) 0.6190(4)
H46_14 H 0.2355 0.6371 0.6238
C66_14 C 0.2556(4) 0.5400(3) 0.6161(5)
H47_14 H 0.2609 0.5147 0.6181
C67_14 C 0.2116(4) 0.5529(3) 0.6276(5)
H48_14 H 0.1895 0.5361 0.6375
C68_14 C 0.2014(2) 0.58791(16) 0.6243(2)
C69_14 C 0.0445(8) 0.4999(4) 0.8674(6)
H49_14 H 0.0534 0.4769 0.8794
C70_14 C 0.0603(8) 0.5098(4) 0.8248(7)
H50_14 H 0.0688 0.4912 0.8030
C71_14 C 0.0204(5) 0.5548(5) 0.8837(5)
H51_14 H 0.0077 0.5704 0.9073
C72_14 C 0.0392(5) 0.5721(4) 0.8417(5)
H52_14 H 0.0362 0.5971 0.8344
C73_14 C 0.0651(2) 0.54440(18) 0.8101(2)
C74_14 C 0.08955(19) 0.55941(16) 0.7660(2)
C75_14 C 0.1020(5) 0.5382(5) 0.7306(6)
H53_14 H 0.0950 0.5132 0.7333
C76_14 C 0.1262(4) 0.5502(3) 0.6866(4)
H54_14 H 0.1363 0.5332 0.6633
C77_14 C 0.0975(5) 0.5980(4) 0.7612(5)
H55_14 H 0.0874 0.6141 0.7855
C78_14 C 0.1207(5) 0.6120(3) 0.7197(4)
H56_14 H 0.1276 0.6370 0.7178
C79_14 C 0.13349(18) 0.58752(15) 0.68050(19)
C80_14 C 0.2457(3) 0.73904(11) 0.3830(2)
H57_14 H 0.2460 0.7642 0.3761
C81_14 C 0.2226(3) 0.72597(14) 0.4242(2)
H58_14 H 0.2074 0.7424 0.4447
C82_14 C 0.22220(19) 0.68832(15) 0.43460(17)
C83_14 C 0.2450(3) 0.66373(11) 0.4039(2)
H59_14 H 0.2447 0.6385 0.4109
C84_14 C 0.2681(3) 0.67679(13) 0.3628(2)
H60_14 H 0.2833 0.6603 0.3423
C85_14 C 0.1991(2) 0.67429(16) 0.4801(2)
C86_14 C 0.1557(4) 0.6585(3) 0.4770(5)
H61_14 H 0.1401 0.6568 0.4472
C87_14 C 0.1378(5) 0.6459(4) 0.5197(5)
H62_14 H 0.1086 0.6363 0.5176
C88_14 C 0.2203(5) 0.6768(4) 0.5256(5)
H63_14 H 0.2493 0.6868 0.5278
C89_14 C 0.1985(5) 0.6642(4) 0.5683(4)
H64_14 H 0.2114 0.6681 0.5992
C90_14 C 0.15640(18) 0.64532(16) 0.5637(2)
C91_14 C 0.13537(18) 0.62948(14) 0.60932(18)
C92_14 C 0.15556(17) 0.60322(14) 0.63693(18)
N9_14 N 0.42130(19) 0.51877(18) 0.5663(2)
N10_8 N 0.01894(18) 0.51819(18) 0.89336(18)
N12_8 N 0.51894(18) 0.48181(18) 0.60664(18)
C47_14 C 0.9014(3) 0.7072(3) 0.7221(3)
H33_14 H 0.8929 0.7085 0.7551
C48_14 C 0.9443(4) 0.6941(4) 0.7103(4)
H34_14 H 0.9642 0.6882 0.7358
C49_14 C 0.8872(5) 0.7178(4) 0.6391(4)
H35_14 H 0.8687 0.7284 0.6152
C50_14 C 0.9262(4) 0.7032(3) 0.6261(4)
H36_14 H 0.9333 0.7014 0.5928
C51_14 C 0.95870(18) 0.68950(16) 0.66276(19)
H39_14 H 0.9898 0.6580 0.5794
N8_14 N 0.87285(16) 0.71773(14) 0.68870(15)
C47_15 C 0.0986(3) 0.7072(3) 0.7779(3)
H33_15 H 0.1071 0.7085 0.7449
C48_15 C 0.0557(4) 0.6941(4) 0.7897(4)
H34_15 H 0.0358 0.6882 0.7642
C49_15 C 0.1128(5) 0.7178(4) 0.8609(4)
H35_15 H 0.1313 0.7284 0.8848
C50_15 C 0.0738(4) 0.7032(3) 0.8739(4)
H36_15 H 0.0667 0.7014 0.9072
C51_15 C 0.04130(18) 0.68950(16) 0.83724(19)
H39_15 H 0.0102 0.6580 0.9206
N8_15 N 0.12715(16) 0.71773(14) 0.81130(15)
C80_15 C 0.7543(3) 0.73904(11) 0.1170(2)
H57_15 H 0.7540 0.7642 0.1239
C81_15 C 0.7774(3) 0.72597(14) 0.0758(2)
H58_15 H 0.7926 0.7424 0.0553
C82_15 C 0.77780(19) 0.68832(15) 0.06540(17)
C83_15 C 0.7550(3) 0.66373(11) 0.0961(2)
H59_15 H 0.7553 0.6385 0.0891
C84_15 C 0.7319(3) 0.67679(13) 0.1372(2)
H60_15 H 0.7167 0.6603 0.1577
C85_15 C 0.8009(2) 0.67429(16) 0.0199(2)
C86_15 C 0.8443(4) 0.6585(3) 0.0230(5)
H61_15 H 0.8599 0.6568 0.0528
C52_15 C 0.99556(18) 0.67350(15) 0.85171(19)
C53_15 C 0.9614(3) 0.6730(3) 0.8177(3)
H37_15 H 0.9665 0.6820 0.7860
C54_15 C 0.9190(3) 0.6592(3) 0.8305(4)
H38_15 H 0.8956 0.6593 0.8075
C55_15 C 0.9869(4) 0.6590(4) 0.8975(4)
C56_15 C 0.9461(4) 0.6465(4) 0.9097(4)
H40_15 H 0.9416 0.6382 0.9418
C57_15 C 0.91105(17) 0.64497(15) 0.87844(18)
C58_15 C 0.6160(3) 0.5048(3) 0.9482(5)
H41_15 H 0.6132 0.4843 0.9687
C59_15 C 0.6602(3) 0.5155(2) 0.9381(5)
H42_15 H 0.6849 0.5027 0.9511
C60_15 C 0.5843(3) 0.5454(5) 0.9059(5)
H43_15 H 0.5587 0.5571 0.8932
C61_15 C 0.6277(3) 0.5591(4) 0.8921(5)
H44_15 H 0.6289 0.5788 0.8701
C62_15 C 0.6661(2) 0.5457(2) 0.9085(2)
C63_15 C 0.7114(2) 0.56062(18) 0.8966(2)
C64_15 C 0.7183(4) 0.6019(4) 0.8919(5)
H45_15 H 0.6948 0.6188 0.8963
C65_15 C 0.7596(4) 0.6119(3) 0.8810(4)
H46_15 H 0.7645 0.6371 0.8762
C66_15 C 0.7444(4) 0.5400(3) 0.8839(5)
H47_15 H 0.7391 0.5147 0.8819
C67_15 C 0.7884(4) 0.5529(3) 0.8724(5)
H48_15 H 0.8105 0.5361 0.8625
C68_15 C 0.7986(2) 0.58791(16) 0.8757(2)
C69_15 C 0.9555(8) 0.4999(4) 0.6326(6)
H49_15 H 0.9466 0.4769 0.6206
C70_15 C 0.9397(8) 0.5098(4) 0.6752(7)
H50_15 H 0.9312 0.4912 0.6970
C71_15 C 0.9796(5) 0.5548(5) 0.6163(5)
H51_15 H 0.9923 0.5704 0.5927
C72_15 C 0.9608(5) 0.5721(4) 0.6583(5)
H52_15 H 0.9638 0.5971 0.6656
C73_15 C 0.9349(2) 0.54440(18) 0.6899(2)
C74_15 C 0.91045(19) 0.55941(16) 0.7340(2)
C75_15 C 0.8980(5) 0.5382(5) 0.7694(6)
H53_15 H 0.9050 0.5132 0.7667
C76_15 C 0.8738(4) 0.5502(3) 0.8134(4)
H54_15 H 0.8637 0.5332 0.8367
C77_15 C 0.9025(5) 0.5980(4) 0.7388(5)
H55_15 H 0.9126 0.6141 0.7145
C78_15 C 0.8793(5) 0.6120(3) 0.7803(4)
H56_15 H 0.8724 0.6370 0.7822
C79_15 C 0.86651(18) 0.58752(15) 0.81950(19)
C87_15 C 0.8622(5) 0.6459(4) 0.9803(5)
H62_15 H 0.8914 0.6363 0.9824
C88_15 C 0.7797(5) 0.6768(4) 0.9744(5)
H63_15 H 0.7507 0.6868 0.9722
C89_15 C 0.8015(5) 0.6642(4) 0.9317(4)
H64_15 H 0.7886 0.6681 0.9008
C90_15 C 0.84360(18) 0.64532(16) 0.9363(2)
C91_15 C 0.86463(18) 0.62948(14) 0.89068(18)
C92_15 C 0.84444(17) 0.60322(14) 0.86307(18)
N9_15 N 0.57870(19) 0.51877(18) 0.9337(2)
C80_16 C 0.7457(3) 0.26096(11) 0.1170(2)
H57_16 H 0.7460 0.2358 0.1239
C81_16 C 0.7226(3) 0.27403(14) 0.0758(2)
H58_16 H 0.7074 0.2576 0.0553
C82_16 C 0.72220(19) 0.31168(15) 0.06540(17)
C83_16 C 0.7450(3) 0.33627(11) 0.0961(2)
H59_16 H 0.7447 0.3615 0.0891
C84_16 C 0.7681(3) 0.32321(13) 0.1372(2)
H60_16 H 0.7833 0.3397 0.1577
C85_16 C 0.6991(2) 0.32571(16) 0.0199(2)
C86_16 C 0.6557(4) 0.3415(3) 0.0230(5)
H61_16 H 0.6401 0.3432 0.0528
C47_16 C 0.4014(3) 0.2928(3) 0.7779(3)
H33_16 H 0.3929 0.2915 0.7449
C48_16 C 0.4443(4) 0.3059(4) 0.7897(4)
H34_16 H 0.4642 0.3118 0.7642
C49_16 C 0.3872(5) 0.2822(4) 0.8609(4)
H35_16 H 0.3687 0.2716 0.8848
C50_16 C 0.4262(4) 0.2968(3) 0.8739(4)
H36_16 H 0.4333 0.2986 0.9072
C51_16 C 0.45870(18) 0.31050(16) 0.83724(19)
C52_16 C 0.50444(18) 0.32650(15) 0.85171(19)
C53_16 C 0.5386(3) 0.3270(3) 0.8177(3)
H37_16 H 0.5335 0.3180 0.7860
C54_16 C 0.5810(3) 0.3408(3) 0.8305(4)
H38_16 H 0.6044 0.3407 0.8075
C55_16 C 0.5131(4) 0.3410(4) 0.8975(4)
H39_16 H 0.4898 0.3420 0.9206
C56_16 C 0.5539(4) 0.3535(4) 0.9097(4)
H40_16 H 0.5584 0.3618 0.9418
C57_16 C 0.58895(17) 0.35503(15) 0.87844(18)
C58_16 C 0.8840(3) 0.4952(3) 0.9482(5)
H41_16 H 0.8868 0.5157 0.9687
C59_16 C 0.8398(3) 0.4845(2) 0.9381(5)
H42_16 H 0.8151 0.4973 0.9511
C60_16 C 0.9157(3) 0.4546(5) 0.9059(5)
H43_16 H 0.9413 0.4429 0.8932
C61_16 C 0.8723(3) 0.4409(4) 0.8921(5)
H44_16 H 0.8711 0.4212 0.8701
C62_16 C 0.8339(2) 0.4543(2) 0.9085(2)
C63_16 C 0.7886(2) 0.43938(18) 0.8966(2)
C64_16 C 0.7817(4) 0.3981(4) 0.8919(5)
H45_16 H 0.8052 0.3812 0.8963
C65_16 C 0.7404(4) 0.3881(3) 0.8810(4)
H46_16 H 0.7355 0.3629 0.8762
C66_16 C 0.7556(4) 0.4600(3) 0.8839(5)
H47_16 H 0.7609 0.4853 0.8819
C67_16 C 0.7116(4) 0.4471(3) 0.8724(5)
H48_16 H 0.6895 0.4639 0.8625
C68_16 C 0.7014(2) 0.41209(16) 0.8757(2)
C69_16 C 0.5445(8) 0.5001(4) 0.6326(6)
H49_16 H 0.5534 0.5231 0.6206
C70_16 C 0.5603(8) 0.4902(4) 0.6752(7)
H50_16 H 0.5688 0.5088 0.6970
C71_16 C 0.5204(5) 0.4452(5) 0.6163(5)
H51_16 H 0.5077 0.4296 0.5927
C72_16 C 0.5392(5) 0.4279(4) 0.6583(5)
H52_16 H 0.5362 0.4029 0.6656
C73_16 C 0.5651(2) 0.45560(18) 0.6899(2)
C74_16 C 0.58955(19) 0.44059(16) 0.7340(2)
C75_16 C 0.6020(5) 0.4618(5) 0.7694(6)
H53_16 H 0.5950 0.4868 0.7667
C76_16 C 0.6262(4) 0.4498(3) 0.8134(4)
H54_16 H 0.6363 0.4668 0.8367
C77_16 C 0.5975(5) 0.4020(4) 0.7388(5)
H55_16 H 0.5874 0.3859 0.7145
C78_16 C 0.6207(5) 0.3880(3) 0.7803(4)
H56_16 H 0.6276 0.3630 0.7822
C79_16 C 0.63349(18) 0.41248(15) 0.81950(19)
C87_16 C 0.6378(5) 0.3541(4) 0.9803(5)
H62_16 H 0.6086 0.3637 0.9824
C88_16 C 0.7203(5) 0.3232(4) 0.9744(5)
H63_16 H 0.7493 0.3132 0.9722
C89_16 C 0.6985(5) 0.3358(4) 0.9317(4)
H64_16 H 0.7114 0.3319 0.9008
C90_16 C 0.65640(18) 0.35468(16) 0.9363(2)
C91_16 C 0.63537(18) 0.37052(14) 0.89068(18)
C92_16 C 0.65556(17) 0.39678(14) 0.86307(18)
N8_16 N 0.37285(16) 0.28227(14) 0.81130(15)
N9_16 N 0.92130(19) 0.48123(18) 0.9337(2)
I8_8 I 0.02941(2) 0.94152(2) 0.01155(2)
I6_8 I 0.97059(2) 0.05848(2) 0.98845(2)
loop_
_geom_bond_atom_site_label_1
_geom_bond_atom_site_label_2
_geom_bond_site_symmetry_1
_geom_bond_site_symmetry_2
C23 H17 1_555 1_555
C1 H1 1_555 1_555
C2 C1 1_555 1_555
H2 C2 1_555 1_555
C3 H3 1_555 1_555
C4 C3 1_555 1_555
H4 C4 1_555 1_555
C5 C2 1_555 1_555
C6 C5 1_555 1_555
C7 C6 1_555 1_555
H5 C7 1_555 1_555
C8 C7 1_555 1_555
H6 C8 1_555 1_555
C9 C6 1_555 1_555
H7 C9 1_555 1_555
C10 C9 1_555 1_555
H8 C10 1_555 1_555
C11 C8 1_555 1_555
C13 C12 1_555 1_555
H10 C13 1_555 1_555
C14 H11 1_555 1_555
C15 C14 1_555 1_555
H12 C15 1_555 1_555
C16 C13 1_555 1_555
C17 C16 1_555 1_555
C18 C17 1_555 1_555
H13 C18 1_555 1_555
C19 C18 1_555 1_555
H14 C19 1_555 1_555
C20 C17 1_555 1_555
H15 C20 1_555 1_555
C21 C20 1_555 1_555
H16 C21 1_555 1_555
C22 C19 1_555 1_555
C25 H19 1_555 1_555
C26 C25 1_555 1_555
H20 C26 1_555 1_555
C27 C24 1_555 1_555
C28 C27 1_555 1_555
C29 C28 1_555 1_555
H21 C29 1_555 1_555
C30 C29 1_555 1_555
H22 C30 1_555 1_555
C31 C28 1_555 1_555
H23 C31 1_555 1_555
C32 C31 1_555 1_555
H24 C32 1_555 1_555
C33 C30 1_555 1_555
N1 C34 1_555 1_555
C34 H25 1_555 1_555
C35 C34 1_555 1_555
H26 C35 1_555 1_555
C36 C35 1_555 1_555
C37 C36 1_555 1_555
H27 C37 1_555 1_555
C38 N1 1_555 1_555
H28 C38 1_555 1_555
C39 C36 1_555 1_555
C40 C39 1_555 1_555
H29 C40 1_555 1_555
C41 C40 1_555 1_555
H30 C41 1_555 1_555
C42 C39 1_555 1_555
H31 C42 1_555 1_555
C43 C42 1_555 1_555
H32 C43 1_555 1_555
C44 C41 1_555 1_555
C45 C11 1_555 1_555
C46 C22 1_555 1_555
N2 C1 1_555 1_555
N3 C12 1_555 1_555
Cu1 N2 1_555 1_555
Cu2 N3 1_555 1_555
I1 Cu1 1_555 1_555
Cu3 I1 1_555 1_555
Cu4 N1 1_555 1_555
N5 Cu1 1_555 1_555
I3 Cu1 1_555 1_555
C3 N2 1_555 1_555
C4 C5 1_555 1_555
C10 C11 1_555 1_555
C14 N3 1_555 1_555
C15 C16 1_555 1_555
C21 C22 1_555 1_555
C25 N4 1_555 1_555
C26 C27 1_555 1_555
C32 C33 1_555 1_555
C33 C46 1_555 1_555
C37 C38 1_555 1_555
C43 C44 1_555 1_555
C44 C45 1_555 1_555
C45 C46 1_555 1_555
Cu3 I3 1_555 1_555
C7_2 C6_2 1_555 1_555
H5_2 C7_2 1_555 1_555
C8_2 C7_2 1_555 1_555
H6_2 C8_2 1_555 1_555
C9_2 C6_2 1_555 1_555
C10_2 C9_2 1_555 1_555
H8_2 C10_2 1_555 1_555
C11_2 C8_2 1_555 1_555
C13_2 C12_2 1_555 1_555
H10_2 C13_2 1_555 1_555
C14_2 H11_2 1_555 1_555
C15_2 C14_2 1_555 1_555
H12_2 C15_2 1_555 1_555
C16_2 C13_2 1_555 1_555
C17_2 C16_2 1_555 1_555
C18_2 C17_2 1_555 1_555
H13_2 C18_2 1_555 1_555
C19_2 C18_2 1_555 1_555
H14_2 C19_2 1_555 1_555
C20_2 C17_2 1_555 1_555
H15_2 C20_2 1_555 1_555
C21_2 C20_2 1_555 1_555
H16_2 C21_2 1_555 1_555
C22_2 C19_2 1_555 1_555
C25_2 H19_2 1_555 1_555
C26_2 C25_2 1_555 1_555
H20_2 C26_2 1_555 1_555
C27_2 C24_2 1_555 1_555
C28_2 C27_2 1_555 1_555
C29_2 C28_2 1_555 1_555
H21_2 C29_2 1_555 1_555
C30_2 C29_2 1_555 1_555
H22_2 C30_2 1_555 1_555
C31_2 C28_2 1_555 1_555
H23_2 C31_2 1_555 1_555
C32_2 C31_2 1_555 1_555
H24_2 C32_2 1_555 1_555
C33_2 C30_2 1_555 1_555
N1_2 C34_2 1_555 1_555
C34_2 H25_2 1_555 1_555
C35_2 C34_2 1_555 1_555
H26_2 C35_2 1_555 1_555
C36_2 C35_2 1_555 1_555
C37_2 C36_2 1_555 1_555
H27_2 C37_2 1_555 1_555
C38_2 N1_2 1_555 1_555
H28_2 C38_2 1_555 1_555
C39_2 C36_2 1_555 1_555
C40_2 C39_2 1_555 1_555
H29_2 C40_2 1_555 1_555
C41_2 C40_2 1_555 1_555
H30_2 C41_2 1_555 1_555
C42_2 C39_2 1_555 1_555
H31_2 C42_2 1_555 1_555
C43_2 C42_2 1_555 1_555
H32_2 C43_2 1_555 1_555
C44_2 C41_2 1_555 1_555
C45_2 C11_2 1_555 1_555
C46_2 C22_2 1_555 1_555
N3_2 C12_2 1_555 1_555
Cu2_2 N3_2 1_555 1_555
Cu4_2 N1_2 1_555 1_555
I4_2 Cu2_2 1_555 1_555
C10_2 C11_2 1_555 1_555
C14_2 N3_2 1_555 1_555
C15_2 C16_2 1_555 1_555
C21_2 C22_2 1_555 1_555
C25_2 N4_2 1_555 1_555
C26_2 C27_2 1_555 1_555
C32_2 C33_2 1_555 1_555
C33_2 C46_2 1_555 1_555
C37_2 C38_2 1_555 1_555
C43_2 C44_2 1_555 1_555
C44_2 C45_2 1_555 1_555
C45_2 C46_2 1_555 1_555
C23_2 H17_2 1_555 1_555
Cu6_2 I2_2 1_555 1_555
C1_2 H1_2 1_555 1_555
C2_2 C1_2 1_555 1_555
H2_2 C2_2 1_555 1_555
C3_2 H3_2 1_555 1_555
C4_2 C3_2 1_555 1_555
H4_2 C4_2 1_555 1_555
C5_2 C2_2 1_555 1_555
N2_2 C1_2 1_555 1_555
Cu1_2 N2_2 1_555 1_555
I1_2 Cu1_2 1_555 1_555
Cu3_2 I1_2 1_555 1_555
N5_2 Cu1_2 1_555 1_555
I3_2 Cu1_2 1_555 1_555
C3_2 N2_2 1_555 1_555
C4_2 C5_2 1_555 1_555
Cu3_2 I3_2 1_555 1_555
C1_3 H1_3 1_555 1_555
C2_3 C1_3 1_555 1_555
H2_3 C2_3 1_555 1_555
C3_3 H3_3 1_555 1_555
C4_3 C3_3 1_555 1_555
H4_3 C4_3 1_555 1_555
C5_3 C2_3 1_555 1_555
N2_3 C1_3 1_555 1_555
Cu1_3 N2_3 1_555 1_555
I1_3 Cu1_3 1_555 1_555
Cu3_3 I1_3 1_555 1_555
N5_3 Cu1_3 1_555 1_555
I3_3 Cu1_3 1_555 1_555
C3_3 N2_3 1_555 1_555
C4_3 C5_3 1_555 1_555
Cu3_3 I3_3 1_555 1_555
C7_3 C6_3 1_555 1_555
H5_3 C7_3 1_555 1_555
C8_3 C7_3 1_555 1_555
H6_3 C8_3 1_555 1_555
C9_3 C6_3 1_555 1_555
C10_3 C9_3 1_555 1_555
H8_3 C10_3 1_555 1_555
C11_3 C8_3 1_555 1_555
C13_3 C12_3 1_555 1_555
H10_3 C13_3 1_555 1_555
C14_3 H11_3 1_555 1_555
C15_3 C14_3 1_555 1_555
H12_3 C15_3 1_555 1_555
C16_3 C13_3 1_555 1_555
C17_3 C16_3 1_555 1_555
C18_3 C17_3 1_555 1_555
H13_3 C18_3 1_555 1_555
C19_3 C18_3 1_555 1_555
H14_3 C19_3 1_555 1_555
C20_3 C17_3 1_555 1_555
H15_3 C20_3 1_555 1_555
C21_3 C20_3 1_555 1_555
H16_3 C21_3 1_555 1_555
C22_3 C19_3 1_555 1_555
C25_3 H19_3 1_555 1_555
C26_3 C25_3 1_555 1_555
H20_3 C26_3 1_555 1_555
C27_3 C24_3 1_555 1_555
C28_3 C27_3 1_555 1_555
C29_3 C28_3 1_555 1_555
H21_3 C29_3 1_555 1_555
C30_3 C29_3 1_555 1_555
H22_3 C30_3 1_555 1_555
C31_3 C28_3 1_555 1_555
H23_3 C31_3 1_555 1_555
C32_3 C31_3 1_555 1_555
H24_3 C32_3 1_555 1_555
C33_3 C30_3 1_555 1_555
H30_3 C41_3 1_555 1_555
H31_3 C42_3 1_555 1_555
C43_3 C42_3 1_555 1_555
H32_3 C43_3 1_555 1_555
C44_3 C41_3 1_555 1_555
C45_3 C11_3 1_555 1_555
C46_3 C22_3 1_555 1_555
N3_3 C12_3 1_555 1_555
Cu5 N3_3 1_555 1_555
I4_3 Cu5 1_555 1_555
C10_3 C11_3 1_555 1_555
C14_3 N3_3 1_555 1_555
C15_3 C16_3 1_555 1_555
C21_3 C22_3 1_555 1_555
C25_3 N6 1_555 1_555
C26_3 C27_3 1_555 1_555
C32_3 C33_3 1_555 1_555
C33_3 C46_3 1_555 1_555
C43_3 C44_3 1_555 1_555
C44_3 C45_3 1_555 1_555
C45_3 C46_3 1_555 1_555
N1_3 C34_3 1_555 1_555
C34_3 H25_3 1_555 1_555
C35_3 C34_3 1_555 1_555
H26_3 C35_3 1_555 1_555
C36_3 C35_3 1_555 1_555
C37_3 C36_3 1_555 1_555
H27_3 C37_3 1_555 1_555
C38_3 N1_3 1_555 1_555
H28_3 C38_3 1_555 1_555
C39_3 C36_3 1_555 1_555
C40_3 C39_3 1_555 1_555
H29_3 C40_3 1_555 1_555
Cu4_3 N1_3 1_555 1_555
C37_3 C38_3 1_555 1_555
C23_3 H17_3 1_555 1_555
Cu6_3 I2_3 1_555 1_555
C23_4 H17_4 1_555 1_555
C1_4 H1_4 1_555 1_555
C2_4 C1_4 1_555 1_555
H2_4 C2_4 1_555 1_555
C3_4 H3_4 1_555 1_555
C4_4 C3_4 1_555 1_555
H4_4 C4_4 1_555 1_555
C5_4 C2_4 1_555 1_555
C6_4 C5_4 1_555 1_555
C7_4 C6_4 1_555 1_555
H5_4 C7_4 1_555 1_555
C8_4 C7_4 1_555 1_555
H6_4 C8_4 1_555 1_555
C9_4 C6_4 1_555 1_555
H7_4 C9_4 1_555 1_555
C10_4 C9_4 1_555 1_555
H8_4 C10_4 1_555 1_555
C11_4 C8_4 1_555 1_555
C13_4 C12_4 1_555 1_555
H10_4 C13_4 1_555 1_555
C14_4 H11_4 1_555 1_555
C15_4 C14_4 1_555 1_555
H12_4 C15_4 1_555 1_555
C16_4 C13_4 1_555 1_555
C17_4 C16_4 1_555 1_555
C18_4 C17_4 1_555 1_555
H13_4 C18_4 1_555 1_555
C19_4 C18_4 1_555 1_555
H14_4 C19_4 1_555 1_555
C20_4 C17_4 1_555 1_555
H15_4 C20_4 1_555 1_555
C21_4 C20_4 1_555 1_555
H16_4 C21_4 1_555 1_555
C22_4 C19_4 1_555 1_555
C25_4 H19_4 1_555 1_555
C26_4 C25_4 1_555 1_555
H20_4 C26_4 1_555 1_555
C27_4 C24_4 1_555 1_555
C28_4 C27_4 1_555 1_555
C29_4 C28_4 1_555 1_555
H21_4 C29_4 1_555 1_555
C30_4 C29_4 1_555 1_555
H22_4 C30_4 1_555 1_555
C31_4 C28_4 1_555 1_555
H23_4 C31_4 1_555 1_555
C32_4 C31_4 1_555 1_555
H24_4 C32_4 1_555 1_555
C33_4 C30_4 1_555 1_555
H30_4 C41_4 1_555 1_555
H31_4 C42_4 1_555 1_555
C43_4 C42_4 1_555 1_555
H32_4 C43_4 1_555 1_555
C44_4 C41_4 1_555 1_555
C45_4 C11_4 1_555 1_555
C46_4 C22_4 1_555 1_555
N2_4 C1_4 1_555 1_555
N3_4 C12_4 1_555 1_555
Cu1_4 N2_4 1_555 1_555
Cu5_2 N3_4 1_555 1_555
I1_4 Cu1_4 1_555 1_555
Cu3_4 I1_4 1_555 1_555
N5_4 Cu1_4 1_555 1_555
I3_4 Cu1_4 1_555 1_555
C3_4 N2_4 1_555 1_555
C4_4 C5_4 1_555 1_555
C10_4 C11_4 1_555 1_555
C14_4 N3_4 1_555 1_555
C15_4 C16_4 1_555 1_555
C21_4 C22_4 1_555 1_555
C25_4 N6_2 1_555 1_555
C26_4 C27_4 1_555 1_555
C32_4 C33_4 1_555 1_555
C33_4 C46_4 1_555 1_555
C43_4 C44_4 1_555 1_555
C44_4 C45_4 1_555 1_555
C45_4 C46_4 1_555 1_555
Cu3_4 I3_4 1_555 1_555
N1_4 C34_4 1_555 1_555
C34_4 H25_4 1_555 1_555
C35_4 C34_4 1_555 1_555
H26_4 C35_4 1_555 1_555
C36_4 C35_4 1_555 1_555
C37_4 C36_4 1_555 1_555
H27_4 C37_4 1_555 1_555
C38_4 N1_4 1_555 1_555
H28_4 C38_4 1_555 1_555
C39_4 C36_4 1_555 1_555
C40_4 C39_4 1_555 1_555
H29_4 C40_4 1_555 1_555
Cu4_4 N1_4 1_555 1_555
C37_4 C38_4 1_555 1_555
C1_5 H1_5 1_555 1_555
C2_5 C1_5 1_555 1_555
H2_5 C2_5 1_555 1_555
C3_5 H3_5 1_555 1_555
C4_5 C3_5 1_555 1_555
H4_5 C4_5 1_555 1_555
C5_5 C2_5 1_555 1_555
N2_5 C1_5 1_555 1_555
Cu3_3 N2_5 1_555 1_555
N5_5 Cu3_3 1_555 1_555
C3_5 N2_5 1_555 1_555
C4_5 C5_5 1_555 1_555
C7_5 C6_5 1_555 1_555
H5_5 C7_5 1_555 1_555
C8_5 C7_5 1_555 1_555
H6_5 C8_5 1_555 1_555
C9_5 C6_5 1_555 1_555
C10_5 C9_5 1_555 1_555
H8_5 C10_5 1_555 1_555
C11_5 C8_5 1_555 1_555
C12_5 H9_5 1_555 1_555
C13_5 C12_5 1_555 1_555
H10_5 C13_5 1_555 1_555
C14_5 H11_5 1_555 1_555
C15_5 C14_5 1_555 1_555
H12_5 C15_5 1_555 1_555
C16_5 C13_5 1_555 1_555
C17_5 C16_5 1_555 1_555
C18_5 C17_5 1_555 1_555
H13_5 C18_5 1_555 1_555
C19_5 C18_5 1_555 1_555
H14_5 C19_5 1_555 1_555
C20_5 C17_5 1_555 1_555
H15_5 C20_5 1_555 1_555
C21_5 C20_5 1_555 1_555
H16_5 C21_5 1_555 1_555
C22_5 C19_5 1_555 1_555
C23_5 H17_5 1_555 1_555
C24_5 C23_5 1_555 1_555
H18_5 C24_5 1_555 1_555
C25_5 H19_5 1_555 1_555
C26_5 C25_5 1_555 1_555
H20_5 C26_5 1_555 1_555
C27_5 C24_5 1_555 1_555
C28_5 C27_5 1_555 1_555
C29_5 C28_5 1_555 1_555
H21_5 C29_5 1_555 1_555
C30_5 C29_5 1_555 1_555
H22_5 C30_5 1_555 1_555
C31_5 C28_5 1_555 1_555
H23_5 C31_5 1_555 1_555
C32_5 C31_5 1_555 1_555
H24_5 C32_5 1_555 1_555
C33_5 C30_5 1_555 1_555
N1_5 C34_5 1_555 1_555
C34_5 H25_5 1_555 1_555
C35_5 C34_5 1_555 1_555
H26_5 C35_5 1_555 1_555
C36_5 C35_5 1_555 1_555
C37_5 C36_5 1_555 1_555
H27_5 C37_5 1_555 1_555
C38_5 N1_5 1_555 1_555
H28_5 C38_5 1_555 1_555
C39_5 C36_5 1_555 1_555
C40_5 C39_5 1_555 1_555
H29_5 C40_5 1_555 1_555
C41_5 C40_5 1_555 1_555
H30_5 C41_5 1_555 1_555
C42_5 C39_5 1_555 1_555
H31_5 C42_5 1_555 1_555
C43_5 C42_5 1_555 1_555
H32_5 C43_5 1_555 1_555
C44_5 C41_5 1_555 1_555
C45_5 C11_5 1_555 1_555
C46_5 C22_5 1_555 1_555
N3_5 C12_5 1_555 1_555
N4_3 C23_5 1_555 1_555
Cu2_3 N3_5 1_555 1_555
I2_4 Cu2_3 1_555 1_555
Cu4_5 N1_5 1_555 1_555
Cu6_5 I2_4 1_555 1_555
N6_3 Cu2_3 1_555 1_555
I4_4 Cu2_3 1_555 1_555
C10_5 C11_5 1_555 1_555
C14_5 N3_5 1_555 1_555
C15_5 C16_5 1_555 1_555
C21_5 C22_5 1_555 1_555
C25_5 N4_3 1_555 1_555
C26_5 C27_5 1_555 1_555
C32_5 C33_5 1_555 1_555
C33_5 C46_5 1_555 1_555
C37_5 C38_5 1_555 1_555
C43_5 C44_5 1_555 1_555
C44_5 C45_5 1_555 1_555
C45_5 C46_5 1_555 1_555
Cu6_5 I4_4 1_555 1_555
Cu6_6 I4_5 1_555 1_555
C1_6 H1_6 1_555 1_555
C2_6 C1_6 1_555 1_555
H2_6 C2_6 1_555 1_555
C3_6 H3_6 1_555 1_555
C4_6 C3_6 1_555 1_555
H4_6 C4_6 1_555 1_555
C5_6 C2_6 1_555 1_555
C6_6 C5_6 1_555 1_555
C7_6 C6_6 1_555 1_555
H5_6 C7_6 1_555 1_555
C8_6 C7_6 1_555 1_555
H6_6 C8_6 1_555 1_555
C9_6 C6_6 1_555 1_555
H7_6 C9_6 1_555 1_555
C10_6 C9_6 1_555 1_555
H8_6 C10_6 1_555 1_555
C11_6 C8_6 1_555 1_555
C12_6 H9_6 1_555 1_555
C13_6 C12_6 1_555 1_555
H10_6 C13_6 1_555 1_555
C14_6 H11_6 1_555 1_555
C15_6 C14_6 1_555 1_555
H12_6 C15_6 1_555 1_555
C16_6 C13_6 1_555 1_555
C17_6 C16_6 1_555 1_555
C18_6 C17_6 1_555 1_555
H13_6 C18_6 1_555 1_555
C19_6 C18_6 1_555 1_555
H14_6 C19_6 1_555 1_555
C20_6 C17_6 1_555 1_555
H15_6 C20_6 1_555 1_555
C21_6 C20_6 1_555 1_555
H16_6 C21_6 1_555 1_555
C22_6 C19_6 1_555 1_555
C23_6 H17_6 1_555 1_555
C24_6 C23_6 1_555 1_555
H18_6 C24_6 1_555 1_555
C25_6 H19_6 1_555 1_555
C26_6 C25_6 1_555 1_555
H20_6 C26_6 1_555 1_555
C27_6 C24_6 1_555 1_555
C28_6 C27_6 1_555 1_555
C29_6 C28_6 1_555 1_555
H21_6 C29_6 1_555 1_555
C30_6 C29_6 1_555 1_555
H22_6 C30_6 1_555 1_555
C31_6 C28_6 1_555 1_555
H23_6 C31_6 1_555 1_555
C32_6 C31_6 1_555 1_555
H24_6 C32_6 1_555 1_555
C33_6 C30_6 1_555 1_555
N1_6 C34_6 1_555 1_555
C34_6 H25_6 1_555 1_555
C35_6 C34_6 1_555 1_555
H26_6 C35_6 1_555 1_555
C36_6 C35_6 1_555 1_555
C37_6 C36_6 1_555 1_555
H27_6 C37_6 1_555 1_555
C38_6 N1_6 1_555 1_555
H28_6 C38_6 1_555 1_555
C39_6 C36_6 1_555 1_555
C40_6 C39_6 1_555 1_555
H29_6 C40_6 1_555 1_555
C41_6 C40_6 1_555 1_555
H30_6 C41_6 1_555 1_555
C42_6 C39_6 1_555 1_555
H31_6 C42_6 1_555 1_555
C43_6 C42_6 1_555 1_555
H32_6 C43_6 1_555 1_555
C44_6 C41_6 1_555 1_555
C45_6 C11_6 1_555 1_555
C46_6 C22_6 1_555 1_555
N2_6 C1_6 1_555 1_555
N3_6 C12_6 1_555 1_555
N4_4 C23_6 1_555 1_555
Cu3_4 N2_6 1_555 1_555
Cu2_4 N3_6 1_555 1_555
I2_5 Cu2_4 1_555 1_555
Cu4_6 N1_6 1_555 1_555
Cu5_4 N4_4 1_555 1_555
N5_6 Cu3_4 1_555 1_555
C3_6 N2_6 1_555 1_555
C4_6 C5_6 1_555 1_555
C10_6 C11_6 1_555 1_555
C14_6 N3_6 1_555 1_555
C15_6 C16_6 1_555 1_555
C21_6 C22_6 1_555 1_555
C25_6 N4_4 1_555 1_555
C26_6 C27_6 1_555 1_555
C32_6 C33_6 1_555 1_555
C33_6 C46_6 1_555 1_555
C37_6 C38_6 1_555 1_555
C43_6 C44_6 1_555 1_555
C44_6 C45_6 1_555 1_555
C45_6 C46_6 1_555 1_555
C1_7 H1_7 1_555 1_555
C2_7 C1_7 1_555 1_555
H2_7 C2_7 1_555 1_555
C3_7 H3_7 1_555 1_555
C4_7 C3_7 1_555 1_555
H4_7 C4_7 1_555 1_555
C5_7 C2_7 1_555 1_555
C6_7 C5_7 1_555 1_555
C7_7 C6_7 1_555 1_555
H5_7 C7_7 1_555 1_555
C8_7 C7_7 1_555 1_555
H6_7 C8_7 1_555 1_555
C9_7 C6_7 1_555 1_555
H7_7 C9_7 1_555 1_555
C10_7 C9_7 1_555 1_555
H8_7 C10_7 1_555 1_555
C11_7 C8_7 1_555 1_555
C12_7 H9_7 1_555 1_555
C13_7 C12_7 1_555 1_555
H10_7 C13_7 1_555 1_555
C14_7 H11_7 1_555 1_555
C15_7 C14_7 1_555 1_555
H12_7 C15_7 1_555 1_555
C16_7 C13_7 1_555 1_555
C17_7 C16_7 1_555 1_555
C18_7 C17_7 1_555 1_555
H13_7 C18_7 1_555 1_555
C19_7 C18_7 1_555 1_555
H14_7 C19_7 1_555 1_555
C20_7 C17_7 1_555 1_555
H15_7 C20_7 1_555 1_555
C21_7 C20_7 1_555 1_555
H16_7 C21_7 1_555 1_555
C22_7 C19_7 1_555 1_555
C23_7 H17_7 1_555 1_555
C24_7 C23_7 1_555 1_555
H18_7 C24_7 1_555 1_555
C25_7 H19_7 1_555 1_555
C26_7 C25_7 1_555 1_555
H20_7 C26_7 1_555 1_555
C27_7 C24_7 1_555 1_555
C28_7 C27_7 1_555 1_555
C29_7 C28_7 1_555 1_555
H21_7 C29_7 1_555 1_555
C30_7 C29_7 1_555 1_555
H22_7 C30_7 1_555 1_555
C31_7 C28_7 1_555 1_555
H23_7 C31_7 1_555 1_555
C32_7 C31_7 1_555 1_555
H24_7 C32_7 1_555 1_555
C33_7 C30_7 1_555 1_555
H30_7 C41_7 1_555 1_555
H31_7 C42_7 1_555 1_555
C43_7 C42_7 1_555 1_555
H32_7 C43_7 1_555 1_555
C44_7 C41_7 1_555 1_555
C45_7 C11_7 1_555 1_555
C46_7 C22_7 1_555 1_555
N2_7 C1_7 1_555 1_555
N3_7 C12_7 1_555 1_555
N6_3 C23_7 1_555 1_555
Cu3 N2_7 1_555 1_555
Cu5_3 N3_7 1_555 1_555
N5_7 Cu3 1_555 1_555
C3_7 N2_7 1_555 1_555
C4_7 C5_7 1_555 1_555
C10_7 C11_7 1_555 1_555
C14_7 N3_7 1_555 1_555
C15_7 C16_7 1_555 1_555
C21_7 C22_7 1_555 1_555
C25_7 N6_3 1_555 1_555
C26_7 C27_7 1_555 1_555
C32_7 C33_7 1_555 1_555
C33_7 C46_7 1_555 1_555
C43_7 C44_7 1_555 1_555
C44_7 C45_7 1_555 1_555
C45_7 C46_7 1_555 1_555
N1_7 C34_7 1_555 1_555
C34_7 H25_7 1_555 1_555
C35_7 C34_7 1_555 1_555
H26_7 C35_7 1_555 1_555
C36_7 C35_7 1_555 1_555
C37_7 C36_7 1_555 1_555
H27_7 C37_7 1_555 1_555
C38_7 N1_7 1_555 1_555
H28_7 C38_7 1_555 1_555
C39_7 C36_7 1_555 1_555
C40_7 C39_7 1_555 1_555
H29_7 C40_7 1_555 1_555
Cu4_7 N1_7 1_555 1_555
C37_7 C38_7 1_555 1_555
C7_8 C6_8 1_555 1_555
H5_8 C7_8 1_555 1_555
C8_8 C7_8 1_555 1_555
H6_8 C8_8 1_555 1_555
C9_8 C6_8 1_555 1_555
C10_8 C9_8 1_555 1_555
H8_8 C10_8 1_555 1_555
C11_8 C8_8 1_555 1_555
C12_8 H9_8 1_555 1_555
C13_8 C12_8 1_555 1_555
H10_8 C13_8 1_555 1_555
C14_8 H11_8 1_555 1_555
C15_8 C14_8 1_555 1_555
H12_8 C15_8 1_555 1_555
C16_8 C13_8 1_555 1_555
C17_8 C16_8 1_555 1_555
C18_8 C17_8 1_555 1_555
H13_8 C18_8 1_555 1_555
C19_8 C18_8 1_555 1_555
H14_8 C19_8 1_555 1_555
C20_8 C17_8 1_555 1_555
H15_8 C20_8 1_555 1_555
C21_8 C20_8 1_555 1_555
H16_8 C21_8 1_555 1_555
C22_8 C19_8 1_555 1_555
C23_8 H17_8 1_555 1_555
C24_8 C23_8 1_555 1_555
H18_8 C24_8 1_555 1_555
C25_8 H19_8 1_555 1_555
C26_8 C25_8 1_555 1_555
H20_8 C26_8 1_555 1_555
C27_8 C24_8 1_555 1_555
C28_8 C27_8 1_555 1_555
C29_8 C28_8 1_555 1_555
H21_8 C29_8 1_555 1_555
C30_8 C29_8 1_555 1_555
H22_8 C30_8 1_555 1_555
C31_8 C28_8 1_555 1_555
H23_8 C31_8 1_555 1_555
C32_8 C31_8 1_555 1_555
H24_8 C32_8 1_555 1_555
C33_8 C30_8 1_555 1_555
H30_8 C41_8 1_555 1_555
H31_8 C42_8 1_555 1_555
C43_8 C42_8 1_555 1_555
H32_8 C43_8 1_555 1_555
C44_8 C41_8 1_555 1_555
C45_8 C11_8 1_555 1_555
C46_8 C22_8 1_555 1_555
N3_8 C12_8 1_555 1_555
N6_4 C23_8 1_555 1_555
Cu5_4 N3_8 1_555 1_555
I4_7 Cu5_4 1_555 1_555
C10_8 C11_8 1_555 1_555
C14_8 N3_8 1_555 1_555
C15_8 C16_8 1_555 1_555
C21_8 C22_8 1_555 1_555
C25_8 N6_4 1_555 1_555
C26_8 C27_8 1_555 1_555
C32_8 C33_8 1_555 1_555
C33_8 C46_8 1_555 1_555
C43_8 C44_8 1_555 1_555
C44_8 C45_8 1_555 1_555
C45_8 C46_8 1_555 1_555
N1_8 C34_8 1_555 1_555
C34_8 H25_8 1_555 1_555
C35_8 C34_8 1_555 1_555
H26_8 C35_8 1_555 1_555
C36_8 C35_8 1_555 1_555
C37_8 C36_8 1_555 1_555
H27_8 C37_8 1_555 1_555
C38_8 N1_8 1_555 1_555
H28_8 C38_8 1_555 1_555
C39_8 C36_8 1_555 1_555
C40_8 C39_8 1_555 1_555
H29_8 C40_8 1_555 1_555
Cu4_8 N1_8 1_555 1_555
Cu6_8 I2_7 1_555 1_555
C37_8 C38_8 1_555 1_555
C1_8 H1_8 1_555 1_555
C2_8 C1_8 1_555 1_555
H2_8 C2_8 1_555 1_555
C3_8 H3_8 1_555 1_555
C4_8 C3_8 1_555 1_555
H4_8 C4_8 1_555 1_555
C5_8 C2_8 1_555 1_555
N2_8 C1_8 1_555 1_555
Cu3_2 N2_8 1_555 1_555
N5_8 Cu3_2 1_555 1_555
C3_8 N2_8 1_555 1_555
C4_8 C5_8 1_555 1_555
C1_9 H1_9 1_555 1_555
C2_9 C1_9 1_555 1_555
H2_9 C2_9 1_555 1_555
C3_9 H3_9 1_555 1_555
C4_9 C3_9 1_555 1_555
H4_9 C4_9 1_555 1_555
C5_9 C2_9 1_555 1_555
C6_9 C5_9 1_555 1_555
C7_9 C6_9 1_555 1_555
H5_9 C7_9 1_555 1_555
C8_9 C7_9 1_555 1_555
H6_9 C8_9 1_555 1_555
C9_9 C6_9 1_555 1_555
H7_9 C9_9 1_555 1_555
C10_9 C9_9 1_555 1_555
H8_9 C10_9 1_555 1_555
C11_9 C8_9 1_555 1_555
C13_9 C12_9 1_555 1_555
H10_9 C13_9 1_555 1_555
C14_9 H11_9 1_555 1_555
C15_9 C14_9 1_555 1_555
H12_9 C15_9 1_555 1_555
C16_9 C13_9 1_555 1_555
C17_9 C16_9 1_555 1_555
C18_9 C17_9 1_555 1_555
H13_9 C18_9 1_555 1_555
C19_9 C18_9 1_555 1_555
H14_9 C19_9 1_555 1_555
C20_9 C17_9 1_555 1_555
H15_9 C20_9 1_555 1_555
C21_9 C20_9 1_555 1_555
H16_9 C21_9 1_555 1_555
C22_9 C19_9 1_555 1_555
C25_9 H19_9 1_555 1_555
C26_9 C25_9 1_555 1_555
H20_9 C26_9 1_555 1_555
C27_9 C24_9 1_555 1_555
C28_9 C27_9 1_555 1_555
C29_9 C28_9 1_555 1_555
H21_9 C29_9 1_555 1_555
C30_9 C29_9 1_555 1_555
H22_9 C30_9 1_555 1_555
C31_9 C28_9 1_555 1_555
H23_9 C31_9 1_555 1_555
C32_9 C31_9 1_555 1_555
H24_9 C32_9 1_555 1_555
C33_9 C30_9 1_555 1_555
N5_2 C34_9 1_555 1_555
C34_9 H25_9 1_555 1_555
C35_9 C34_9 1_555 1_555
H26_9 C35_9 1_555 1_555
C36_9 C35_9 1_555 1_555
C37_9 C36_9 1_555 1_555
H27_9 C37_9 1_555 1_555
C38_9 N5_2 1_555 1_555
H28_9 C38_9 1_555 1_555
C39_9 C36_9 1_555 1_555
C40_9 C39_9 1_555 1_555
H29_9 C40_9 1_555 1_555
C41_9 C40_9 1_555 1_555
H30_9 C41_9 1_555 1_555
C42_9 C39_9 1_555 1_555
H31_9 C42_9 1_555 1_555
C43_9 C42_9 1_555 1_555
H32_9 C43_9 1_555 1_555
C44_9 C41_9 1_555 1_555
C45_9 C11_9 1_555 1_555
C46_9 C22_9 1_555 1_555
N2_9 C1_9 1_555 1_555
N3_9 C12_9 1_555 1_555
Cu4_2 N2_9 1_555 1_555
Cu6 N3_9 1_555 1_555
I1_5 Cu4_2 1_555 1_555
Cu4_8 I1_5 1_555 1_555
I3_5 Cu4_2 1_555 1_555
C3_9 N2_9 1_555 1_555
C4_9 C5_9 1_555 1_555
C10_9 C11_9 1_555 1_555
C14_9 N3_9 1_555 1_555
C15_9 C16_9 1_555 1_555
C21_9 C22_9 1_555 1_555
C25_9 N4_5 1_555 1_555
C26_9 C27_9 1_555 1_555
C32_9 C33_9 1_555 1_555
C33_9 C46_9 1_555 1_555
C37_9 C38_9 1_555 1_555
C43_9 C44_9 1_555 1_555
C44_9 C45_9 1_555 1_555
C45_9 C46_9 1_555 1_555
Cu4_8 I3_5 1_555 1_555
C23_9 H17_9 1_555 1_555
C1_10 H1_10 1_555 1_555
C2_10 C1_10 1_555 1_555
H2_10 C2_10 1_555 1_555
C3_10 H3_10 1_555 1_555
C4_10 C3_10 1_555 1_555
H4_10 C4_10 1_555 1_555
C5_10 C2_10 1_555 1_555
N2_10 C1_10 1_555 1_555
Cu4 N2_10 1_555 1_555
I1_6 Cu4 1_555 1_555
Cu4_7 I1_6 1_555 1_555
I3_6 Cu4 1_555 1_555
C3_10 N2_10 1_555 1_555
C4_10 C5_10 1_555 1_555
Cu4_7 I3_6 1_555 1_555
C23_10 H17_10 1_555 1_555
C7_10 C6_10 1_555 1_555
H5_10 C7_10 1_555 1_555
C8_10 C7_10 1_555 1_555
H6_10 C8_10 1_555 1_555
C9_10 C6_10 1_555 1_555
C10_10 C9_10 1_555 1_555
H8_10 C10_10 1_555 1_555
C11_10 C8_10 1_555 1_555
C13_10 C12_10 1_555 1_555
H10_10 C13_10 1_555 1_555
C14_10 H11_10 1_555 1_555
C15_10 C14_10 1_555 1_555
H12_10 C15_10 1_555 1_555
C16_10 C13_10 1_555 1_555
C17_10 C16_10 1_555 1_555
C18_10 C17_10 1_555 1_555
H13_10 C18_10 1_555 1_555
C19_10 C18_10 1_555 1_555
H14_10 C19_10 1_555 1_555
C20_10 C17_10 1_555 1_555
H15_10 C20_10 1_555 1_555
C21_10 C20_10 1_555 1_555
H16_10 C21_10 1_555 1_555
C22_10 C19_10 1_555 1_555
C25_10 H19_10 1_555 1_555
C26_10 C25_10 1_555 1_555
H20_10 C26_10 1_555 1_555
C27_10 C24_10 1_555 1_555
C28_10 C27_10 1_555 1_555
C29_10 C28_10 1_555 1_555
H21_10 C29_10 1_555 1_555
C30_10 C29_10 1_555 1_555
H22_10 C30_10 1_555 1_555
C31_10 C28_10 1_555 1_555
H23_10 C31_10 1_555 1_555
C32_10 C31_10 1_555 1_555
H24_10 C32_10 1_555 1_555
C33_10 C30_10 1_555 1_555
N5 C34_10 1_555 1_555
C34_10 H25_10 1_555 1_555
C35_10 C34_10 1_555 1_555
H26_10 C35_10 1_555 1_555
C36_10 C35_10 1_555 1_555
C37_10 C36_10 1_555 1_555
H27_10 C37_10 1_555 1_555
C38_10 N5 1_555 1_555
H28_10 C38_10 1_555 1_555
C39_10 C36_10 1_555 1_555
C40_10 C39_10 1_555 1_555
H29_10 C40_10 1_555 1_555
C41_10 C40_10 1_555 1_555
H30_10 C41_10 1_555 1_555
C42_10 C39_10 1_555 1_555
H31_10 C42_10 1_555 1_555
C43_10 C42_10 1_555 1_555
H32_10 C43_10 1_555 1_555
C44_10 C41_10 1_555 1_555
C45_10 C11_10 1_555 1_555
C46_10 C22_10 1_555 1_555
N3_10 C12_10 1_555 1_555
Cu6_2 N3_10 1_555 1_555
C10_10 C11_10 1_555 1_555
C14_10 N3_10 1_555 1_555
C15_10 C16_10 1_555 1_555
C21_10 C22_10 1_555 1_555
C25_10 N4_6 1_555 1_555
C26_10 C27_10 1_555 1_555
C32_10 C33_10 1_555 1_555
C33_10 C46_10 1_555 1_555
C37_10 C38_10 1_555 1_555
C43_10 C44_10 1_555 1_555
C44_10 C45_10 1_555 1_555
C45_10 C46_10 1_555 1_555
C23_11 H17_11 1_555 1_555
N5_4 C34_11 1_555 1_555
C34_11 H25_11 1_555 1_555
C35_11 C34_11 1_555 1_555
H26_11 C35_11 1_555 1_555
C36_11 C35_11 1_555 1_555
C37_11 C36_11 1_555 1_555
H27_11 C37_11 1_555 1_555
C38_11 N5_4 1_555 1_555
H28_11 C38_11 1_555 1_555
C39_11 C36_11 1_555 1_555
C40_11 C39_11 1_555 1_555
H29_11 C40_11 1_555 1_555
C37_11 C38_11 1_555 1_555
C7_11 C6_11 1_555 1_555
H5_11 C7_11 1_555 1_555
C8_11 C7_11 1_555 1_555
H6_11 C8_11 1_555 1_555
C9_11 C6_11 1_555 1_555
C10_11 C9_11 1_555 1_555
H8_11 C10_11 1_555 1_555
C11_11 C8_11 1_555 1_555
C13_11 C12_11 1_555 1_555
H10_11 C13_11 1_555 1_555
C14_11 H11_11 1_555 1_555
C15_11 C14_11 1_555 1_555
H12_11 C15_11 1_555 1_555
C16_11 C13_11 1_555 1_555
C17_11 C16_11 1_555 1_555
C18_11 C17_11 1_555 1_555
H13_11 C18_11 1_555 1_555
C19_11 C18_11 1_555 1_555
H14_11 C19_11 1_555 1_555
C20_11 C17_11 1_555 1_555
H15_11 C20_11 1_555 1_555
C21_11 C20_11 1_555 1_555
H16_11 C21_11 1_555 1_555
C22_11 C19_11 1_555 1_555
C25_11 H19_11 1_555 1_555
C26_11 C25_11 1_555 1_555
H20_11 C26_11 1_555 1_555
C27_11 C24_11 1_555 1_555
C28_11 C27_11 1_555 1_555
C29_11 C28_11 1_555 1_555
H21_11 C29_11 1_555 1_555
C30_11 C29_11 1_555 1_555
H22_11 C30_11 1_555 1_555
C31_11 C28_11 1_555 1_555
H23_11 C31_11 1_555 1_555
C32_11 C31_11 1_555 1_555
H24_11 C32_11 1_555 1_555
C33_11 C30_11 1_555 1_555
H30_11 C41_11 1_555 1_555
H31_11 C42_11 1_555 1_555
C43_11 C42_11 1_555 1_555
H32_11 C43_11 1_555 1_555
C44_11 C41_11 1_555 1_555
C45_11 C11_11 1_555 1_555
C46_11 C22_11 1_555 1_555
N3_11 C12_11 1_555 1_555
Cu6_3 N3_11 1_555 1_555
C10_11 C11_11 1_555 1_555
C14_11 N3_11 1_555 1_555
C15_11 C16_11 1_555 1_555
C21_11 C22_11 1_555 1_555
C25_11 N6_5 1_555 1_555
C26_11 C27_11 1_555 1_555
C32_11 C33_11 1_555 1_555
C33_11 C46_11 1_555 1_555
C43_11 C44_11 1_555 1_555
C44_11 C45_11 1_555 1_555
C45_11 C46_11 1_555 1_555
C1_11 H1_11 1_555 1_555
C2_11 C1_11 1_555 1_555
H2_11 C2_11 1_555 1_555
C3_11 H3_11 1_555 1_555
C4_11 C3_11 1_555 1_555
H4_11 C4_11 1_555 1_555
C5_11 C2_11 1_555 1_555
N2_11 C1_11 1_555 1_555
Cu4_4 N2_11 1_555 1_555
I1_7 Cu4_4 1_555 1_555
Cu4_6 I1_7 1_555 1_555
I3_7 Cu4_4 1_555 1_555
C3_11 N2_11 1_555 1_555
C4_11 C5_11 1_555 1_555
Cu4_6 I3_7 1_555 1_555
N5_3 C34_12 1_555 1_555
C34_12 H25_12 1_555 1_555
C35_12 C34_12 1_555 1_555
H26_12 C35_12 1_555 1_555
C36_12 C35_12 1_555 1_555
C37_12 C36_12 1_555 1_555
H27_12 C37_12 1_555 1_555
C38_12 N5_3 1_555 1_555
H28_12 C38_12 1_555 1_555
C39_12 C36_12 1_555 1_555
C40_12 C39_12 1_555 1_555
H29_12 C40_12 1_555 1_555
C37_12 C38_12 1_555 1_555
C1_12 H1_12 1_555 1_555
C2_12 C1_12 1_555 1_555
H2_12 C2_12 1_555 1_555
C3_12 H3_12 1_555 1_555
C4_12 C3_12 1_555 1_555
H4_12 C4_12 1_555 1_555
C5_12 C2_12 1_555 1_555
C6_12 C5_12 1_555 1_555
C7_12 C6_12 1_555 1_555
H5_12 C7_12 1_555 1_555
C8_12 C7_12 1_555 1_555
H6_12 C8_12 1_555 1_555
C9_12 C6_12 1_555 1_555
H7_12 C9_12 1_555 1_555
C10_12 C9_12 1_555 1_555
H8_12 C10_12 1_555 1_555
C11_12 C8_12 1_555 1_555
C13_12 C12_12 1_555 1_555
H10_12 C13_12 1_555 1_555
C14_12 H11_12 1_555 1_555
C15_12 C14_12 1_555 1_555
H12_12 C15_12 1_555 1_555
C16_12 C13_12 1_555 1_555
C17_12 C16_12 1_555 1_555
C18_12 C17_12 1_555 1_555
H13_12 C18_12 1_555 1_555
C19_12 C18_12 1_555 1_555
H14_12 C19_12 1_555 1_555
C20_12 C17_12 1_555 1_555
H15_12 C20_12 1_555 1_555
C21_12 C20_12 1_555 1_555
H16_12 C21_12 1_555 1_555
C22_12 C19_12 1_555 1_555
C25_12 H19_12 1_555 1_555
C26_12 C25_12 1_555 1_555
H20_12 C26_12 1_555 1_555
C27_12 C24_12 1_555 1_555
C28_12 C27_12 1_555 1_555
C29_12 C28_12 1_555 1_555
H21_12 C29_12 1_555 1_555
C30_12 C29_12 1_555 1_555
H22_12 C30_12 1_555 1_555
C31_12 C28_12 1_555 1_555
H23_12 C31_12 1_555 1_555
C32_12 C31_12 1_555 1_555
H24_12 C32_12 1_555 1_555
C33_12 C30_12 1_555 1_555
H30_12 C41_12 1_555 1_555
H31_12 C42_12 1_555 1_555
C43_12 C42_12 1_555 1_555
H32_12 C43_12 1_555 1_555
C44_12 C41_12 1_555 1_555
C45_12 C11_12 1_555 1_555
C46_12 C22_12 1_555 1_555
N2_12 C1_12 1_555 1_555
N3_12 C12_12 1_555 1_555
Cu4_3 N2_12 1_555 1_555
Cu6_4 N3_12 1_555 1_555
I1_8 Cu4_3 1_555 1_555
Cu4_5 I1_8 1_555 1_555
I3_8 Cu4_3 1_555 1_555
C3_12 N2_12 1_555 1_555
C4_12 C5_12 1_555 1_555
C10_12 C11_12 1_555 1_555
C14_12 N3_12 1_555 1_555
C15_12 C16_12 1_555 1_555
C21_12 C22_12 1_555 1_555
C25_12 N6_6 1_555 1_555
C26_12 C27_12 1_555 1_555
C32_12 C33_12 1_555 1_555
C33_12 C46_12 1_555 1_555
C43_12 C44_12 1_555 1_555
C44_12 C45_12 1_555 1_555
C45_12 C46_12 1_555 1_555
Cu4_5 I3_8 1_555 1_555
C23_12 H17_12 1_555 1_555
C7_13 C6_13 1_555 1_555
H5_13 C7_13 1_555 1_555
C8_13 C7_13 1_555 1_555
H6_13 C8_13 1_555 1_555
C9_13 C6_13 1_555 1_555
C10_13 C9_13 1_555 1_555
H8_13 C10_13 1_555 1_555
C11_13 C8_13 1_555 1_555
C12_13 H9_13 1_555 1_555
C13_13 C12_13 1_555 1_555
H10_13 C13_13 1_555 1_555
C14_13 H11_13 1_555 1_555
C15_13 C14_13 1_555 1_555
H12_13 C15_13 1_555 1_555
C16_13 C13_13 1_555 1_555
C17_13 C16_13 1_555 1_555
C18_13 C17_13 1_555 1_555
H13_13 C18_13 1_555 1_555
C19_13 C18_13 1_555 1_555
H14_13 C19_13 1_555 1_555
C20_13 C17_13 1_555 1_555
H15_13 C20_13 1_555 1_555
C21_13 C20_13 1_555 1_555
H16_13 C21_13 1_555 1_555
C22_13 C19_13 1_555 1_555
C23_13 H17_13 1_555 1_555
C24_13 C23_13 1_555 1_555
H18_13 C24_13 1_555 1_555
C25_13 H19_13 1_555 1_555
C26_13 C25_13 1_555 1_555
H20_13 C26_13 1_555 1_555
C27_13 C24_13 1_555 1_555
C28_13 C27_13 1_555 1_555
C29_13 C28_13 1_555 1_555
H21_13 C29_13 1_555 1_555
C30_13 C29_13 1_555 1_555
H22_13 C30_13 1_555 1_555
C31_13 C28_13 1_555 1_555
H23_13 C31_13 1_555 1_555
C32_13 C31_13 1_555 1_555
H24_13 C32_13 1_555 1_555
C33_13 C30_13 1_555 1_555
N5_6 C34_13 1_555 1_555
C34_13 H25_13 1_555 1_555
C35_13 C34_13 1_555 1_555
H26_13 C35_13 1_555 1_555
C36_13 C35_13 1_555 1_555
C37_13 C36_13 1_555 1_555
H27_13 C37_13 1_555 1_555
C38_13 N5_6 1_555 1_555
H28_13 C38_13 1_555 1_555
C39_13 C36_13 1_555 1_555
C40_13 C39_13 1_555 1_555
H29_13 C40_13 1_555 1_555
C41_13 C40_13 1_555 1_555
H30_13 C41_13 1_555 1_555
C42_13 C39_13 1_555 1_555
H31_13 C42_13 1_555 1_555
C43_13 C42_13 1_555 1_555
H32_13 C43_13 1_555 1_555
C44_13 C41_13 1_555 1_555
C45_13 C11_13 1_555 1_555
C46_13 C22_13 1_555 1_555
N3_13 C12_13 1_555 1_555
N4_7 C23_13 1_555 1_555
Cu6_5 N3_13 1_555 1_555
N6_7 Cu6_5 1_555 1_555
C10_13 C11_13 1_555 1_555
C14_13 N3_13 1_555 1_555
C15_13 C16_13 1_555 1_555
C21_13 C22_13 1_555 1_555
C25_13 N4_7 1_555 1_555
C26_13 C27_13 1_555 1_555
C32_13 C33_13 1_555 1_555
C33_13 C46_13 1_555 1_555
C37_13 C38_13 1_555 1_555
C43_13 C44_13 1_555 1_555
C44_13 C45_13 1_555 1_555
C45_13 C46_13 1_555 1_555
C1_13 H1_13 1_555 1_555
C2_13 C1_13 1_555 1_555
H2_13 C2_13 1_555 1_555
C3_13 H3_13 1_555 1_555
C4_13 C3_13 1_555 1_555
H4_13 C4_13 1_555 1_555
C5_13 C2_13 1_555 1_555
N2_13 C1_13 1_555 1_555
Cu4_6 N2_13 1_555 1_555
C3_13 N2_13 1_555 1_555
C4_13 C5_13 1_555 1_555
C1_14 H1_14 1_555 1_555
C2_14 C1_14 1_555 1_555
H2_14 C2_14 1_555 1_555
C3_14 H3_14 1_555 1_555
C4_14 C3_14 1_555 1_555
H4_14 C4_14 1_555 1_555
C5_14 C2_14 1_555 1_555
C6_14 C5_14 1_555 1_555
C7_14 C6_14 1_555 1_555
H5_14 C7_14 1_555 1_555
C8_14 C7_14 1_555 1_555
H6_14 C8_14 1_555 1_555
C9_14 C6_14 1_555 1_555
H7_14 C9_14 1_555 1_555
C10_14 C9_14 1_555 1_555
H8_14 C10_14 1_555 1_555
C11_14 C8_14 1_555 1_555
C12_14 H9_14 1_555 1_555
C13_14 C12_14 1_555 1_555
H10_14 C13_14 1_555 1_555
C14_14 H11_14 1_555 1_555
C15_14 C14_14 1_555 1_555
H12_14 C15_14 1_555 1_555
C16_14 C13_14 1_555 1_555
C17_14 C16_14 1_555 1_555
C18_14 C17_14 1_555 1_555
H13_14 C18_14 1_555 1_555
C19_14 C18_14 1_555 1_555
H14_14 C19_14 1_555 1_555
C20_14 C17_14 1_555 1_555
H15_14 C20_14 1_555 1_555
C21_14 C20_14 1_555 1_555
H16_14 C21_14 1_555 1_555
C22_14 C19_14 1_555 1_555
C23_14 H17_14 1_555 1_555
C24_14 C23_14 1_555 1_555
H18_14 C24_14 1_555 1_555
C25_14 H19_14 1_555 1_555
C26_14 C25_14 1_555 1_555
H20_14 C26_14 1_555 1_555
C27_14 C24_14 1_555 1_555
C28_14 C27_14 1_555 1_555
C29_14 C28_14 1_555 1_555
H21_14 C29_14 1_555 1_555
C30_14 C29_14 1_555 1_555
H22_14 C30_14 1_555 1_555
C31_14 C28_14 1_555 1_555
H23_14 C31_14 1_555 1_555
C32_14 C31_14 1_555 1_555
H24_14 C32_14 1_555 1_555
C33_14 C30_14 1_555 1_555
N5_5 C34_14 1_555 1_555
C34_14 H25_14 1_555 1_555
C35_14 C34_14 1_555 1_555
H26_14 C35_14 1_555 1_555
C36_14 C35_14 1_555 1_555
C37_14 C36_14 1_555 1_555
H27_14 C37_14 1_555 1_555
C38_14 N5_5 1_555 1_555
H28_14 C38_14 1_555 1_555
C39_14 C36_14 1_555 1_555
C40_14 C39_14 1_555 1_555
H29_14 C40_14 1_555 1_555
C41_14 C40_14 1_555 1_555
H30_14 C41_14 1_555 1_555
C42_14 C39_14 1_555 1_555
H31_14 C42_14 1_555 1_555
C43_14 C42_14 1_555 1_555
H32_14 C43_14 1_555 1_555
C44_14 C41_14 1_555 1_555
C45_14 C11_14 1_555 1_555
C46_14 C22_14 1_555 1_555
N2_14 C1_14 1_555 1_555
N3_14 C12_14 1_555 1_555
N4_8 C23_14 1_555 1_555
Cu4_5 N2_14 1_555 1_555
Cu6_6 N3_14 1_555 1_555
Cu6_8 N4_8 1_555 1_555
C3_14 N2_14 1_555 1_555
C4_14 C5_14 1_555 1_555
C10_14 C11_14 1_555 1_555
C14_14 N3_14 1_555 1_555
C15_14 C16_14 1_555 1_555
C21_14 C22_14 1_555 1_555
C25_14 N4_8 1_555 1_555
C26_14 C27_14 1_555 1_555
C32_14 C33_14 1_555 1_555
C33_14 C46_14 1_555 1_555
C37_14 C38_14 1_555 1_555
C43_14 C44_14 1_555 1_555
C44_14 C45_14 1_555 1_555
C45_14 C46_14 1_555 1_555
N5_8 C34_15 1_555 1_555
C34_15 H25_15 1_555 1_555
C35_15 C34_15 1_555 1_555
H26_15 C35_15 1_555 1_555
C36_15 C35_15 1_555 1_555
C37_15 C36_15 1_555 1_555
H27_15 C37_15 1_555 1_555
C38_15 N5_8 1_555 1_555
H28_15 C38_15 1_555 1_555
C39_15 C36_15 1_555 1_555
C40_15 C39_15 1_555 1_555
H29_15 C40_15 1_555 1_555
C37_15 C38_15 1_555 1_555
C1_15 H1_15 1_555 1_555
C2_15 C1_15 1_555 1_555
H2_15 C2_15 1_555 1_555
C3_15 H3_15 1_555 1_555
C4_15 C3_15 1_555 1_555
H4_15 C4_15 1_555 1_555
C5_15 C2_15 1_555 1_555
C6_15 C5_15 1_555 1_555
C7_15 C6_15 1_555 1_555
H5_15 C7_15 1_555 1_555
C8_15 C7_15 1_555 1_555
H6_15 C8_15 1_555 1_555
C9_15 C6_15 1_555 1_555
H7_15 C9_15 1_555 1_555
C10_15 C9_15 1_555 1_555
H8_15 C10_15 1_555 1_555
C11_15 C8_15 1_555 1_555
C12_15 H9_15 1_555 1_555
C13_15 C12_15 1_555 1_555
H10_15 C13_15 1_555 1_555
C14_15 H11_15 1_555 1_555
C15_15 C14_15 1_555 1_555
H12_15 C15_15 1_555 1_555
C16_15 C13_15 1_555 1_555
C17_15 C16_15 1_555 1_555
C18_15 C17_15 1_555 1_555
H13_15 C18_15 1_555 1_555
C19_15 C18_15 1_555 1_555
H14_15 C19_15 1_555 1_555
C20_15 C17_15 1_555 1_555
H15_15 C20_15 1_555 1_555
C21_15 C20_15 1_555 1_555
H16_15 C21_15 1_555 1_555
C22_15 C19_15 1_555 1_555
C23_15 H17_15 1_555 1_555
C24_15 C23_15 1_555 1_555
H18_15 C24_15 1_555 1_555
C25_15 H19_15 1_555 1_555
C26_15 C25_15 1_555 1_555
H20_15 C26_15 1_555 1_555
C27_15 C24_15 1_555 1_555
C28_15 C27_15 1_555 1_555
C29_15 C28_15 1_555 1_555
H21_15 C29_15 1_555 1_555
C30_15 C29_15 1_555 1_555
H22_15 C30_15 1_555 1_555
C31_15 C28_15 1_555 1_555
H23_15 C31_15 1_555 1_555
C32_15 C31_15 1_555 1_555
H24_15 C32_15 1_555 1_555
C33_15 C30_15 1_555 1_555
H30_15 C41_15 1_555 1_555
H31_15 C42_15 1_555 1_555
C43_15 C42_15 1_555 1_555
H32_15 C43_15 1_555 1_555
C44_15 C41_15 1_555 1_555
C45_15 C11_15 1_555 1_555
C46_15 C22_15 1_555 1_555
N2_15 C1_15 1_555 1_555
N3_15 C12_15 1_555 1_555
N6_7 C23_15 1_555 1_555
Cu4_8 N2_15 1_555 1_555
Cu6_7 N3_15 1_555 1_555
C3_15 N2_15 1_555 1_555
C4_15 C5_15 1_555 1_555
C10_15 C11_15 1_555 1_555
C14_15 N3_15 1_555 1_555
C15_15 C16_15 1_555 1_555
C21_15 C22_15 1_555 1_555
C25_15 N6_7 1_555 1_555
C26_15 C27_15 1_555 1_555
C32_15 C33_15 1_555 1_555
C33_15 C46_15 1_555 1_555
C43_15 C44_15 1_555 1_555
C44_15 C45_15 1_555 1_555
C45_15 C46_15 1_555 1_555
C1_16 H1_16 1_555 1_555
C2_16 C1_16 1_555 1_555
H2_16 C2_16 1_555 1_555
C3_16 H3_16 1_555 1_555
C4_16 C3_16 1_555 1_555
H4_16 C4_16 1_555 1_555
C5_16 C2_16 1_555 1_555
N2_16 C1_16 1_555 1_555
Cu4_7 N2_16 1_555 1_555
C3_16 N2_16 1_555 1_555
C4_16 C5_16 1_555 1_555
N5_7 C34_16 1_555 1_555
C34_16 H25_16 1_555 1_555
C35_16 C34_16 1_555 1_555
H26_16 C35_16 1_555 1_555
C36_16 C35_16 1_555 1_555
C37_16 C36_16 1_555 1_555
H27_16 C37_16 1_555 1_555
C38_16 N5_7 1_555 1_555
H28_16 C38_16 1_555 1_555
C39_16 C36_16 1_555 1_555
C40_16 C39_16 1_555 1_555
H29_16 C40_16 1_555 1_555
C37_16 C38_16 1_555 1_555
C7_16 C6_16 1_555 1_555
H5_16 C7_16 1_555 1_555
C8_16 C7_16 1_555 1_555
H6_16 C8_16 1_555 1_555
C9_16 C6_16 1_555 1_555
C10_16 C9_16 1_555 1_555
H8_16 C10_16 1_555 1_555
C11_16 C8_16 1_555 1_555
C12_16 H9_16 1_555 1_555
C13_16 C12_16 1_555 1_555
H10_16 C13_16 1_555 1_555
C14_16 H11_16 1_555 1_555
C15_16 C14_16 1_555 1_555
H12_16 C15_16 1_555 1_555
C16_16 C13_16 1_555 1_555
C17_16 C16_16 1_555 1_555
C18_16 C17_16 1_555 1_555
H13_16 C18_16 1_555 1_555
C19_16 C18_16 1_555 1_555
H14_16 C19_16 1_555 1_555
C20_16 C17_16 1_555 1_555
H15_16 C20_16 1_555 1_555
C21_16 C20_16 1_555 1_555
H16_16 C21_16 1_555 1_555
C22_16 C19_16 1_555 1_555
C23_16 H17_16 1_555 1_555
C24_16 C23_16 1_555 1_555
H18_16 C24_16 1_555 1_555
C25_16 H19_16 1_555 1_555
C26_16 C25_16 1_555 1_555
H20_16 C26_16 1_555 1_555
C27_16 C24_16 1_555 1_555
C28_16 C27_16 1_555 1_555
C29_16 C28_16 1_555 1_555
H21_16 C29_16 1_555 1_555
C30_16 C29_16 1_555 1_555
H22_16 C30_16 1_555 1_555
C31_16 C28_16 1_555 1_555
H23_16 C31_16 1_555 1_555
C32_16 C31_16 1_555 1_555
H24_16 C32_16 1_555 1_555
C33_16 C30_16 1_555 1_555
H30_16 C41_16 1_555 1_555
H31_16 C42_16 1_555 1_555
C43_16 C42_16 1_555 1_555
H32_16 C43_16 1_555 1_555
C44_16 C41_16 1_555 1_555
C45_16 C11_16 1_555 1_555
C46_16 C22_16 1_555 1_555
N3_16 C12_16 1_555 1_555
N6_8 C23_16 1_555 1_555
Cu6_8 N3_16 1_555 1_555
C10_16 C11_16 1_555 1_555
C14_16 N3_16 1_555 1_555
C15_16 C16_16 1_555 1_555
C21_16 C22_16 1_555 1_555
C25_16 N6_8 1_555 1_555
C26_16 C27_16 1_555 1_555
C32_16 C33_16 1_555 1_555
C33_16 C46_16 1_555 1_555
C43_16 C44_16 1_555 1_555
C44_16 C45_16 1_555 1_555
C45_16 C46_16 1_555 1_555
Cu8 N9 1_555 1_555
C53 C52 1_555 1_555
H37 C53 1_555 1_555
C54 C53 1_555 1_555
H38 C54 1_555 1_555
C55 C52 1_555 1_555
C56 C55 1_555 1_555
H40 C56 1_555 1_555
C57 C54 1_555 1_555
C59 C58 1_555 1_555
H42 C59 1_555 1_555
C60 H43 1_555 1_555
C61 C60 1_555 1_555
H44 C61 1_555 1_555
C62 C59 1_555 1_555
C63 C62 1_555 1_555
C64 C63 1_555 1_555
H45 C64 1_555 1_555
C65 C64 1_555 1_555
H46 C65 1_555 1_555
C66 C63 1_555 1_555
H47 C66 1_555 1_555
C67 C66 1_555 1_555
H48 C67 1_555 1_555
C68 C65 1_555 1_555
C71 H51 1_555 1_555
C72 C71 1_555 1_555
H52 C72 1_555 1_555
C73 C70 1_555 1_555
C74 C73 1_555 1_555
C75 C74 1_555 1_555
H53 C75 1_555 1_555
C76 C75 1_555 1_555
H54 C76 1_555 1_555
C77 C74 1_555 1_555
H55 C77 1_555 1_555
C78 C77 1_555 1_555
H56 C78 1_555 1_555
C79 C76 1_555 1_555
N7 C80 1_555 1_555
C80 H57 1_555 1_555
C81 C80 1_555 1_555
H58 C81 1_555 1_555
C82 C81 1_555 1_555
C83 C82 1_555 1_555
H59 C83 1_555 1_555
C84 N7 1_555 1_555
H60 C84 1_555 1_555
C85 C82 1_555 1_555
C86 C85 1_555 1_555
H61 C86 1_555 1_555
C87 C86 1_555 1_555
H62 C87 1_555 1_555
C88 C85 1_555 1_555
H63 C88 1_555 1_555
C89 C88 1_555 1_555
H64 C89 1_555 1_555
C90 C87 1_555 1_555
C91 C57 1_555 1_555
C92 C68 1_555 1_555
N9 C58 1_555 1_555
Cu10 N7 1_555 1_555
I8 Cu8 1_555 1_555
C56 C57 1_555 1_555
C60 N9 1_555 1_555
C61 C62 1_555 1_555
C67 C68 1_555 1_555
C71 N10 1_555 1_555
C72 C73 1_555 1_555
C78 C79 1_555 1_555
C79 C92 1_555 1_555
C83 C84 1_555 1_555
C89 C90 1_555 1_555
C90 C91 1_555 1_555
C91 C92 1_555 1_555
C69 H49 1_555 1_555
Cu12 I6 1_555 1_555
Cu7 N8 1_555 1_555
C47 H33 1_555 1_555
C48 C47 1_555 1_555
H34 C48 1_555 1_555
C49 H35 1_555 1_555
C50 C49 1_555 1_555
H36 C50 1_555 1_555
C51 C48 1_555 1_555
N8 C47 1_555 1_555
I5 Cu7 1_555 1_555
Cu9 I5 1_555 1_555
N11 Cu7 1_555 1_555
I7 Cu7 1_555 1_555
C49 N8 1_555 1_555
C50 C51 1_555 1_555
Cu9 I7 1_555 1_555
C69_2 H49_2 1_555 1_555
Cu7_2 N8_2 1_555 1_555
Cu8_2 N9_2 1_555 1_555
C47_2 H33_2 1_555 1_555
C48_2 C47_2 1_555 1_555
H34_2 C48_2 1_555 1_555
C49_2 H35_2 1_555 1_555
C50_2 C49_2 1_555 1_555
H36_2 C50_2 1_555 1_555
C51_2 C48_2 1_555 1_555
C52_2 C51_2 1_555 1_555
C53_2 C52_2 1_555 1_555
H37_2 C53_2 1_555 1_555
C54_2 C53_2 1_555 1_555
H38_2 C54_2 1_555 1_555
C55_2 C52_2 1_555 1_555
H39_2 C55_2 1_555 1_555
C56_2 C55_2 1_555 1_555
H40_2 C56_2 1_555 1_555
C57_2 C54_2 1_555 1_555
C59_2 C58_2 1_555 1_555
H42_2 C59_2 1_555 1_555
C60_2 H43_2 1_555 1_555
C61_2 C60_2 1_555 1_555
H44_2 C61_2 1_555 1_555
C62_2 C59_2 1_555 1_555
C63_2 C62_2 1_555 1_555
C64_2 C63_2 1_555 1_555
H45_2 C64_2 1_555 1_555
C65_2 C64_2 1_555 1_555
H46_2 C65_2 1_555 1_555
C66_2 C63_2 1_555 1_555
H47_2 C66_2 1_555 1_555
C67_2 C66_2 1_555 1_555
H48_2 C67_2 1_555 1_555
C68_2 C65_2 1_555 1_555
C71_2 H51_2 1_555 1_555
C72_2 C71_2 1_555 1_555
H52_2 C72_2 1_555 1_555
C73_2 C70_2 1_555 1_555
C74_2 C73_2 1_555 1_555
C75_2 C74_2 1_555 1_555
H53_2 C75_2 1_555 1_555
C76_2 C75_2 1_555 1_555
H54_2 C76_2 1_555 1_555
C77_2 C74_2 1_555 1_555
H55_2 C77_2 1_555 1_555
C78_2 C77_2 1_555 1_555
H56_2 C78_2 1_555 1_555
C79_2 C76_2 1_555 1_555
N7_2 C80_2 1_555 1_555
C80_2 H57_2 1_555 1_555
C81_2 C80_2 1_555 1_555
H58_2 C81_2 1_555 1_555
C82_2 C81_2 1_555 1_555
C83_2 C82_2 1_555 1_555
H59_2 C83_2 1_555 1_555
C84_2 N7_2 1_555 1_555
H60_2 C84_2 1_555 1_555
C85_2 C82_2 1_555 1_555
C86_2 C85_2 1_555 1_555
H61_2 C86_2 1_555 1_555
C87_2 C86_2 1_555 1_555
H62_2 C87_2 1_555 1_555
C88_2 C85_2 1_555 1_555
H63_2 C88_2 1_555 1_555
C89_2 C88_2 1_555 1_555
H64_2 C89_2 1_555 1_555
C90_2 C87_2 1_555 1_555
C91_2 C57_2 1_555 1_555
C92_2 C68_2 1_555 1_555
N8_2 C47_2 1_555 1_555
N9_2 C58_2 1_555 1_555
I5_2 Cu7_2 1_555 1_555
Cu9_2 I5_2 1_555 1_555
Cu10_2 N7_2 1_555 1_555
N11_2 Cu7_2 1_555 1_555
I7_2 Cu7_2 1_555 1_555
C49_2 N8_2 1_555 1_555
C50_2 C51_2 1_555 1_555
C56_2 C57_2 1_555 1_555
C60_2 N9_2 1_555 1_555
C61_2 C62_2 1_555 1_555
C67_2 C68_2 1_555 1_555
C71_2 N10_2 1_555 1_555
C72_2 C73_2 1_555 1_555
C78_2 C79_2 1_555 1_555
C79_2 C92_2 1_555 1_555
C83_2 C84_2 1_555 1_555
C89_2 C90_2 1_555 1_555
C90_2 C91_2 1_555 1_555
C91_2 C92_2 1_555 1_555
Cu9_2 I7_2 1_555 1_555
C69_3 H49_3 1_555 1_555
Cu7_3 N8_3 1_555 1_555
Cu11 N9_3 1_555 1_555
C47_3 H33_3 1_555 1_555
C48_3 C47_3 1_555 1_555
H34_3 C48_3 1_555 1_555
C49_3 H35_3 1_555 1_555
C50_3 C49_3 1_555 1_555
H36_3 C50_3 1_555 1_555
C51_3 C48_3 1_555 1_555
C52_3 C51_3 1_555 1_555
C53_3 C52_3 1_555 1_555
H37_3 C53_3 1_555 1_555
C54_3 C53_3 1_555 1_555
H38_3 C54_3 1_555 1_555
C55_3 C52_3 1_555 1_555
H39_3 C55_3 1_555 1_555
C56_3 C55_3 1_555 1_555
H40_3 C56_3 1_555 1_555
C57_3 C54_3 1_555 1_555
C59_3 C58_3 1_555 1_555
H42_3 C59_3 1_555 1_555
C60_3 H43_3 1_555 1_555
C61_3 C60_3 1_555 1_555
H44_3 C61_3 1_555 1_555
C62_3 C59_3 1_555 1_555
C63_3 C62_3 1_555 1_555
C64_3 C63_3 1_555 1_555
H45_3 C64_3 1_555 1_555
C65_3 C64_3 1_555 1_555
H46_3 C65_3 1_555 1_555
C66_3 C63_3 1_555 1_555
H47_3 C66_3 1_555 1_555
C67_3 C66_3 1_555 1_555
H48_3 C67_3 1_555 1_555
C68_3 C65_3 1_555 1_555
C71_3 H51_3 1_555 1_555
C72_3 C71_3 1_555 1_555
H52_3 C72_3 1_555 1_555
C73_3 C70_3 1_555 1_555
C74_3 C73_3 1_555 1_555
C75_3 C74_3 1_555 1_555
H53_3 C75_3 1_555 1_555
C76_3 C75_3 1_555 1_555
H54_3 C76_3 1_555 1_555
C77_3 C74_3 1_555 1_555
H55_3 C77_3 1_555 1_555
C78_3 C77_3 1_555 1_555
H56_3 C78_3 1_555 1_555
C79_3 C76_3 1_555 1_555
H62_3 C87_3 1_555 1_555
H63_3 C88_3 1_555 1_555
C89_3 C88_3 1_555 1_555
H64_3 C89_3 1_555 1_555
C90_3 C87_3 1_555 1_555
C91_3 C57_3 1_555 1_555
C92_3 C68_3 1_555 1_555
N8_3 C47_3 1_555 1_555
N9_3 C58_3 1_555 1_555
I5_3 Cu7_3 1_555 1_555
Cu9_3 I5_3 1_555 1_555
N11_3 Cu7_3 1_555 1_555
I7_3 Cu7_3 1_555 1_555
C49_3 N8_3 1_555 1_555
C50_3 C51_3 1_555 1_555
C56_3 C57_3 1_555 1_555
C60_3 N9_3 1_555 1_555
C61_3 C62_3 1_555 1_555
C67_3 C68_3 1_555 1_555
C71_3 N12 1_555 1_555
C72_3 C73_3 1_555 1_555
C78_3 C79_3 1_555 1_555
C79_3 C92_3 1_555 1_555
C89_3 C90_3 1_555 1_555
C90_3 C91_3 1_555 1_555
C91_3 C92_3 1_555 1_555
Cu9_3 I7_3 1_555 1_555
N7_3 C80_3 1_555 1_555
C80_3 H57_3 1_555 1_555
C81_3 C80_3 1_555 1_555
H58_3 C81_3 1_555 1_555
C82_3 C81_3 1_555 1_555
C83_3 C82_3 1_555 1_555
H59_3 C83_3 1_555 1_555
C84_3 N7_3 1_555 1_555
H60_3 C84_3 1_555 1_555
C85_3 C82_3 1_555 1_555
C86_3 C85_3 1_555 1_555
H61_3 C86_3 1_555 1_555
Cu10_3 N7_3 1_555 1_555
C83_3 C84_3 1_555 1_555
Cu7_4 N8_4 1_555 1_555
C47_4 H33_4 1_555 1_555
C48_4 C47_4 1_555 1_555
H34_4 C48_4 1_555 1_555
C49_4 H35_4 1_555 1_555
C50_4 C49_4 1_555 1_555
H36_4 C50_4 1_555 1_555
C51_4 C48_4 1_555 1_555
N8_4 C47_4 1_555 1_555
I5_4 Cu7_4 1_555 1_555
Cu9_4 I5_4 1_555 1_555
N11_4 Cu7_4 1_555 1_555
I7_4 Cu7_4 1_555 1_555
C49_4 N8_4 1_555 1_555
C50_4 C51_4 1_555 1_555
Cu9_4 I7_4 1_555 1_555
Cu11_2 N9_4 1_555 1_555
C53_4 C52_4 1_555 1_555
H37_4 C53_4 1_555 1_555
C54_4 C53_4 1_555 1_555
H38_4 C54_4 1_555 1_555
C55_4 C52_4 1_555 1_555
C56_4 C55_4 1_555 1_555
H40_4 C56_4 1_555 1_555
C57_4 C54_4 1_555 1_555
C59_4 C58_4 1_555 1_555
H42_4 C59_4 1_555 1_555
C60_4 H43_4 1_555 1_555
C61_4 C60_4 1_555 1_555
H44_4 C61_4 1_555 1_555
C62_4 C59_4 1_555 1_555
C63_4 C62_4 1_555 1_555
C64_4 C63_4 1_555 1_555
H45_4 C64_4 1_555 1_555
C65_4 C64_4 1_555 1_555
H46_4 C65_4 1_555 1_555
C66_4 C63_4 1_555 1_555
H47_4 C66_4 1_555 1_555
C67_4 C66_4 1_555 1_555
H48_4 C67_4 1_555 1_555
C68_4 C65_4 1_555 1_555
C71_4 H51_4 1_555 1_555
C72_4 C71_4 1_555 1_555
H52_4 C72_4 1_555 1_555
C73_4 C70_4 1_555 1_555
C74_4 C73_4 1_555 1_555
C75_4 C74_4 1_555 1_555
H53_4 C75_4 1_555 1_555
C76_4 C75_4 1_555 1_555
H54_4 C76_4 1_555 1_555
C77_4 C74_4 1_555 1_555
H55_4 C77_4 1_555 1_555
C78_4 C77_4 1_555 1_555
H56_4 C78_4 1_555 1_555
C79_4 C76_4 1_555 1_555
H62_4 C87_4 1_555 1_555
H63_4 C88_4 1_555 1_555
C89_4 C88_4 1_555 1_555
H64_4 C89_4 1_555 1_555
C90_4 C87_4 1_555 1_555
C91_4 C57_4 1_555 1_555
C92_4 C68_4 1_555 1_555
N9_4 C58_4 1_555 1_555
I8_3 Cu11_2 1_555 1_555
C56_4 C57_4 1_555 1_555
C60_4 N9_4 1_555 1_555
C61_4 C62_4 1_555 1_555
C67_4 C68_4 1_555 1_555
C71_4 N12_2 1_555 1_555
C72_4 C73_4 1_555 1_555
C78_4 C79_4 1_555 1_555
C79_4 C92_4 1_555 1_555
C89_4 C90_4 1_555 1_555
C90_4 C91_4 1_555 1_555
C91_4 C92_4 1_555 1_555
N7_4 C80_4 1_555 1_555
C80_4 H57_4 1_555 1_555
C81_4 C80_4 1_555 1_555
H58_4 C81_4 1_555 1_555
C82_4 C81_4 1_555 1_555
C83_4 C82_4 1_555 1_555
H59_4 C83_4 1_555 1_555
C84_4 N7_4 1_555 1_555
H60_4 C84_4 1_555 1_555
C85_4 C82_4 1_555 1_555
C86_4 C85_4 1_555 1_555
H61_4 C86_4 1_555 1_555
Cu10_4 N7_4 1_555 1_555
C83_4 C84_4 1_555 1_555
C69_4 H49_4 1_555 1_555
Cu12_4 I6_3 1_555 1_555
Cu12_5 I8_4 1_555 1_555
Cu9_3 N8_5 1_555 1_555
Cu8_3 N9_5 1_555 1_555
C47_5 H33_5 1_555 1_555
C48_5 C47_5 1_555 1_555
H34_5 C48_5 1_555 1_555
C49_5 H35_5 1_555 1_555
C50_5 C49_5 1_555 1_555
H36_5 C50_5 1_555 1_555
C51_5 C48_5 1_555 1_555
C52_5 C51_5 1_555 1_555
C53_5 C52_5 1_555 1_555
H37_5 C53_5 1_555 1_555
C54_5 C53_5 1_555 1_555
H38_5 C54_5 1_555 1_555
C55_5 C52_5 1_555 1_555
H39_5 C55_5 1_555 1_555
C56_5 C55_5 1_555 1_555
H40_5 C56_5 1_555 1_555
C57_5 C54_5 1_555 1_555
C58_5 H41_5 1_555 1_555
C59_5 C58_5 1_555 1_555
H42_5 C59_5 1_555 1_555
C60_5 H43_5 1_555 1_555
C61_5 C60_5 1_555 1_555
H44_5 C61_5 1_555 1_555
C62_5 C59_5 1_555 1_555
C63_5 C62_5 1_555 1_555
C64_5 C63_5 1_555 1_555
H45_5 C64_5 1_555 1_555
C65_5 C64_5 1_555 1_555
H46_5 C65_5 1_555 1_555
C66_5 C63_5 1_555 1_555
H47_5 C66_5 1_555 1_555
C67_5 C66_5 1_555 1_555
H48_5 C67_5 1_555 1_555
C68_5 C65_5 1_555 1_555
C69_5 H49_5 1_555 1_555
C70_5 C69_5 1_555 1_555
H50_5 C70_5 1_555 1_555
C71_5 H51_5 1_555 1_555
C72_5 C71_5 1_555 1_555
H52_5 C72_5 1_555 1_555
C73_5 C70_5 1_555 1_555
C74_5 C73_5 1_555 1_555
C75_5 C74_5 1_555 1_555
H53_5 C75_5 1_555 1_555
C76_5 C75_5 1_555 1_555
H54_5 C76_5 1_555 1_555
C77_5 C74_5 1_555 1_555
H55_5 C77_5 1_555 1_555
C78_5 C77_5 1_555 1_555
H56_5 C78_5 1_555 1_555
C79_5 C76_5 1_555 1_555
N7_5 C80_5 1_555 1_555
C80_5 H57_5 1_555 1_555
C81_5 C80_5 1_555 1_555
H58_5 C81_5 1_555 1_555
C82_5 C81_5 1_555 1_555
C83_5 C82_5 1_555 1_555
H59_5 C83_5 1_555 1_555
C84_5 N7_5 1_555 1_555
H60_5 C84_5 1_555 1_555
C85_5 C82_5 1_555 1_555
C86_5 C85_5 1_555 1_555
H61_5 C86_5 1_555 1_555
C87_5 C86_5 1_555 1_555
H62_5 C87_5 1_555 1_555
C88_5 C85_5 1_555 1_555
H63_5 C88_5 1_555 1_555
C89_5 C88_5 1_555 1_555
H64_5 C89_5 1_555 1_555
C90_5 C87_5 1_555 1_555
C91_5 C57_5 1_555 1_555
C92_5 C68_5 1_555 1_555
N8_5 C47_5 1_555 1_555
N9_5 C58_5 1_555 1_555
N10_3 C69_5 1_555 1_555
I6_4 Cu8_3 1_555 1_555
Cu10_5 N7_5 1_555 1_555
Cu11_3 N10_3 1_555 1_555
N11_5 Cu9_3 1_555 1_555
C49_5 N8_5 1_555 1_555
C50_5 C51_5 1_555 1_555
C56_5 C57_5 1_555 1_555
C60_5 N9_5 1_555 1_555
C61_5 C62_5 1_555 1_555
C67_5 C68_5 1_555 1_555
C71_5 N10_3 1_555 1_555
C72_5 C73_5 1_555 1_555
C78_5 C79_5 1_555 1_555
C79_5 C92_5 1_555 1_555
C83_5 C84_5 1_555 1_555
C89_5 C90_5 1_555 1_555
C90_5 C91_5 1_555 1_555
C91_5 C92_5 1_555 1_555
Cu9_4 N8_6 1_555 1_555
C47_6 H33_6 1_555 1_555
C48_6 C47_6 1_555 1_555
H34_6 C48_6 1_555 1_555
C49_6 H35_6 1_555 1_555
C50_6 C49_6 1_555 1_555
H36_6 C50_6 1_555 1_555
C51_6 C48_6 1_555 1_555
N8_6 C47_6 1_555 1_555
N11_6 Cu9_4 1_555 1_555
C49_6 N8_6 1_555 1_555
C50_6 C51_6 1_555 1_555
Cu8_4 N9_6 1_555 1_555
C53_6 C52_6 1_555 1_555
H37_6 C53_6 1_555 1_555
C54_6 C53_6 1_555 1_555
H38_6 C54_6 1_555 1_555
C55_6 C52_6 1_555 1_555
C56_6 C55_6 1_555 1_555
H40_6 C56_6 1_555 1_555
C57_6 C54_6 1_555 1_555
C58_6 H41_6 1_555 1_555
C59_6 C58_6 1_555 1_555
H42_6 C59_6 1_555 1_555
C60_6 H43_6 1_555 1_555
C61_6 C60_6 1_555 1_555
H44_6 C61_6 1_555 1_555
C62_6 C59_6 1_555 1_555
C63_6 C62_6 1_555 1_555
C64_6 C63_6 1_555 1_555
H45_6 C64_6 1_555 1_555
C65_6 C64_6 1_555 1_555
H46_6 C65_6 1_555 1_555
C66_6 C63_6 1_555 1_555
H47_6 C66_6 1_555 1_555
C67_6 C66_6 1_555 1_555
H48_6 C67_6 1_555 1_555
C68_6 C65_6 1_555 1_555
C69_6 H49_6 1_555 1_555
C70_6 C69_6 1_555 1_555
H50_6 C70_6 1_555 1_555
C71_6 H51_6 1_555 1_555
C72_6 C71_6 1_555 1_555
H52_6 C72_6 1_555 1_555
C73_6 C70_6 1_555 1_555
C74_6 C73_6 1_555 1_555
C75_6 C74_6 1_555 1_555
H53_6 C75_6 1_555 1_555
C76_6 C75_6 1_555 1_555
H54_6 C76_6 1_555 1_555
C77_6 C74_6 1_555 1_555
H55_6 C77_6 1_555 1_555
C78_6 C77_6 1_555 1_555
H56_6 C78_6 1_555 1_555
C79_6 C76_6 1_555 1_555
N7_6 C80_6 1_555 1_555
C80_6 H57_6 1_555 1_555
C81_6 C80_6 1_555 1_555
H58_6 C81_6 1_555 1_555
C82_6 C81_6 1_555 1_555
C83_6 C82_6 1_555 1_555
H59_6 C83_6 1_555 1_555
C84_6 N7_6 1_555 1_555
H60_6 C84_6 1_555 1_555
C85_6 C82_6 1_555 1_555
C86_6 C85_6 1_555 1_555
H61_6 C86_6 1_555 1_555
C87_6 C86_6 1_555 1_555
H62_6 C87_6 1_555 1_555
C88_6 C85_6 1_555 1_555
H63_6 C88_6 1_555 1_555
C89_6 C88_6 1_555 1_555
H64_6 C89_6 1_555 1_555
C90_6 C87_6 1_555 1_555
C91_6 C57_6 1_555 1_555
C92_6 C68_6 1_555 1_555
N9_6 C58_6 1_555 1_555
N10_4 C69_6 1_555 1_555
I6_5 Cu8_4 1_555 1_555
Cu10_6 N7_6 1_555 1_555
Cu12_6 I6_5 1_555 1_555
N12_4 Cu8_4 1_555 1_555
I8_5 Cu8_4 1_555 1_555
C56_6 C57_6 1_555 1_555
C60_6 N9_6 1_555 1_555
C61_6 C62_6 1_555 1_555
C67_6 C68_6 1_555 1_555
C71_6 N10_4 1_555 1_555
C72_6 C73_6 1_555 1_555
C78_6 C79_6 1_555 1_555
C79_6 C92_6 1_555 1_555
C83_6 C84_6 1_555 1_555
C89_6 C90_6 1_555 1_555
C90_6 C91_6 1_555 1_555
C91_6 C92_6 1_555 1_555
Cu12_6 I8_5 1_555 1_555
Cu11_3 N9_7 1_555 1_555
C53_7 C52_7 1_555 1_555
H37_7 C53_7 1_555 1_555
C54_7 C53_7 1_555 1_555
H38_7 C54_7 1_555 1_555
C55_7 C52_7 1_555 1_555
C56_7 C55_7 1_555 1_555
H40_7 C56_7 1_555 1_555
C57_7 C54_7 1_555 1_555
C58_7 H41_7 1_555 1_555
C59_7 C58_7 1_555 1_555
H42_7 C59_7 1_555 1_555
C60_7 H43_7 1_555 1_555
C61_7 C60_7 1_555 1_555
H44_7 C61_7 1_555 1_555
C62_7 C59_7 1_555 1_555
C63_7 C62_7 1_555 1_555
C64_7 C63_7 1_555 1_555
H45_7 C64_7 1_555 1_555
C65_7 C64_7 1_555 1_555
H46_7 C65_7 1_555 1_555
C66_7 C63_7 1_555 1_555
H47_7 C66_7 1_555 1_555
C67_7 C66_7 1_555 1_555
H48_7 C67_7 1_555 1_555
C68_7 C65_7 1_555 1_555
C69_7 H49_7 1_555 1_555
C70_7 C69_7 1_555 1_555
H50_7 C70_7 1_555 1_555
C71_7 H51_7 1_555 1_555
C72_7 C71_7 1_555 1_555
H52_7 C72_7 1_555 1_555
C73_7 C70_7 1_555 1_555
C74_7 C73_7 1_555 1_555
C75_7 C74_7 1_555 1_555
H53_7 C75_7 1_555 1_555
C76_7 C75_7 1_555 1_555
H54_7 C76_7 1_555 1_555
C77_7 C74_7 1_555 1_555
H55_7 C77_7 1_555 1_555
C78_7 C77_7 1_555 1_555
H56_7 C78_7 1_555 1_555
C79_7 C76_7 1_555 1_555
H62_7 C87_7 1_555 1_555
H63_7 C88_7 1_555 1_555
C89_7 C88_7 1_555 1_555
H64_7 C89_7 1_555 1_555
C90_7 C87_7 1_555 1_555
C91_7 C57_7 1_555 1_555
C92_7 C68_7 1_555 1_555
N9_7 C58_7 1_555 1_555
N12_3 C69_7 1_555 1_555
I8_6 Cu11_3 1_555 1_555
C56_7 C57_7 1_555 1_555
C60_7 N9_7 1_555 1_555
C61_7 C62_7 1_555 1_555
C67_7 C68_7 1_555 1_555
C71_7 N12_3 1_555 1_555
C72_7 C73_7 1_555 1_555
C78_7 C79_7 1_555 1_555
C79_7 C92_7 1_555 1_555
C89_7 C90_7 1_555 1_555
C90_7 C91_7 1_555 1_555
C91_7 C92_7 1_555 1_555
N7_7 C80_7 1_555 1_555
C80_7 H57_7 1_555 1_555
C81_7 C80_7 1_555 1_555
H58_7 C81_7 1_555 1_555
C82_7 C81_7 1_555 1_555
C83_7 C82_7 1_555 1_555
H59_7 C83_7 1_555 1_555
C84_7 N7_7 1_555 1_555
H60_7 C84_7 1_555 1_555
C85_7 C82_7 1_555 1_555
C86_7 C85_7 1_555 1_555
H61_7 C86_7 1_555 1_555
Cu10_7 N7_7 1_555 1_555
Cu12_7 I6_6 1_555 1_555
C83_7 C84_7 1_555 1_555
Cu9 N8_7 1_555 1_555
C47_7 H33_7 1_555 1_555
C48_7 C47_7 1_555 1_555
H34_7 C48_7 1_555 1_555
C49_7 H35_7 1_555 1_555
C50_7 C49_7 1_555 1_555
H36_7 C50_7 1_555 1_555
C51_7 C48_7 1_555 1_555
N8_7 C47_7 1_555 1_555
N11_7 Cu9 1_555 1_555
C49_7 N8_7 1_555 1_555
C50_7 C51_7 1_555 1_555
Cu9_2 N8_8 1_555 1_555
Cu11_4 N9_8 1_555 1_555
C47_8 H33_8 1_555 1_555
C48_8 C47_8 1_555 1_555
H34_8 C48_8 1_555 1_555
C49_8 H35_8 1_555 1_555
C50_8 C49_8 1_555 1_555
H36_8 C50_8 1_555 1_555
C51_8 C48_8 1_555 1_555
C52_8 C51_8 1_555 1_555
C53_8 C52_8 1_555 1_555
H37_8 C53_8 1_555 1_555
C54_8 C53_8 1_555 1_555
H38_8 C54_8 1_555 1_555
C55_8 C52_8 1_555 1_555
H39_8 C55_8 1_555 1_555
C56_8 C55_8 1_555 1_555
H40_8 C56_8 1_555 1_555
C57_8 C54_8 1_555 1_555
C58_8 H41_8 1_555 1_555
C59_8 C58_8 1_555 1_555
H42_8 C59_8 1_555 1_555
C60_8 H43_8 1_555 1_555
C61_8 C60_8 1_555 1_555
H44_8 C61_8 1_555 1_555
C62_8 C59_8 1_555 1_555
C63_8 C62_8 1_555 1_555
C64_8 C63_8 1_555 1_555
H45_8 C64_8 1_555 1_555
C65_8 C64_8 1_555 1_555
H46_8 C65_8 1_555 1_555
C66_8 C63_8 1_555 1_555
H47_8 C66_8 1_555 1_555
C67_8 C66_8 1_555 1_555
H48_8 C67_8 1_555 1_555
C68_8 C65_8 1_555 1_555
C69_8 H49_8 1_555 1_555
C70_8 C69_8 1_555 1_555
H50_8 C70_8 1_555 1_555
C71_8 H51_8 1_555 1_555
C72_8 C71_8 1_555 1_555
H52_8 C72_8 1_555 1_555
C73_8 C70_8 1_555 1_555
C74_8 C73_8 1_555 1_555
C75_8 C74_8 1_555 1_555
H53_8 C75_8 1_555 1_555
C76_8 C75_8 1_555 1_555
H54_8 C76_8 1_555 1_555
C77_8 C74_8 1_555 1_555
H55_8 C77_8 1_555 1_555
C78_8 C77_8 1_555 1_555
H56_8 C78_8 1_555 1_555
C79_8 C76_8 1_555 1_555
H62_8 C87_8 1_555 1_555
H63_8 C88_8 1_555 1_555
C89_8 C88_8 1_555 1_555
H64_8 C89_8 1_555 1_555
C90_8 C87_8 1_555 1_555
C91_8 C57_8 1_555 1_555
C92_8 C68_8 1_555 1_555
N8_8 C47_8 1_555 1_555
N9_8 C58_8 1_555 1_555
N12_4 C69_8 1_555 1_555
N11_8 Cu9_2 1_555 1_555
C49_8 N8_8 1_555 1_555
C50_8 C51_8 1_555 1_555
C56_8 C57_8 1_555 1_555
C60_8 N9_8 1_555 1_555
C61_8 C62_8 1_555 1_555
C67_8 C68_8 1_555 1_555
C71_8 N12_4 1_555 1_555
C72_8 C73_8 1_555 1_555
C78_8 C79_8 1_555 1_555
C79_8 C92_8 1_555 1_555
C89_8 C90_8 1_555 1_555
C90_8 C91_8 1_555 1_555
C91_8 C92_8 1_555 1_555
N7_8 C80_8 1_555 1_555
C80_8 H57_8 1_555 1_555
C81_8 C80_8 1_555 1_555
H58_8 C81_8 1_555 1_555
C82_8 C81_8 1_555 1_555
C83_8 C82_8 1_555 1_555
H59_8 C83_8 1_555 1_555
C84_8 N7_8 1_555 1_555
H60_8 C84_8 1_555 1_555
C85_8 C82_8 1_555 1_555
C86_8 C85_8 1_555 1_555
H61_8 C86_8 1_555 1_555
Cu10_8 N7_8 1_555 1_555
C83_8 C84_8 1_555 1_555
Cu10_2 N8_9 1_555 1_555
C47_9 H33_9 1_555 1_555
C48_9 C47_9 1_555 1_555
H34_9 C48_9 1_555 1_555
C49_9 H35_9 1_555 1_555
C50_9 C49_9 1_555 1_555
H36_9 C50_9 1_555 1_555
C51_9 C48_9 1_555 1_555
N8_9 C47_9 1_555 1_555
I5_5 Cu10_2 1_555 1_555
Cu10_8 I5_5 1_555 1_555
I7_5 Cu10_2 1_555 1_555
C49_9 N8_9 1_555 1_555
C50_9 C51_9 1_555 1_555
Cu10_8 I7_5 1_555 1_555
C69_9 H49_9 1_555 1_555
Cu12 N9_9 1_555 1_555
C53_9 C52_9 1_555 1_555
H37_9 C53_9 1_555 1_555
C54_9 C53_9 1_555 1_555
H38_9 C54_9 1_555 1_555
C55_9 C52_9 1_555 1_555
C56_9 C55_9 1_555 1_555
H40_9 C56_9 1_555 1_555
C57_9 C54_9 1_555 1_555
C59_9 C58_9 1_555 1_555
H42_9 C59_9 1_555 1_555
C60_9 H43_9 1_555 1_555
C61_9 C60_9 1_555 1_555
H44_9 C61_9 1_555 1_555
C62_9 C59_9 1_555 1_555
C63_9 C62_9 1_555 1_555
C64_9 C63_9 1_555 1_555
H45_9 C64_9 1_555 1_555
C65_9 C64_9 1_555 1_555
H46_9 C65_9 1_555 1_555
C66_9 C63_9 1_555 1_555
H47_9 C66_9 1_555 1_555
C67_9 C66_9 1_555 1_555
H48_9 C67_9 1_555 1_555
C68_9 C65_9 1_555 1_555
C71_9 H51_9 1_555 1_555
C72_9 C71_9 1_555 1_555
H52_9 C72_9 1_555 1_555
C73_9 C70_9 1_555 1_555
C74_9 C73_9 1_555 1_555
C75_9 C74_9 1_555 1_555
H53_9 C75_9 1_555 1_555
C76_9 C75_9 1_555 1_555
H54_9 C76_9 1_555 1_555
C77_9 C74_9 1_555 1_555
H55_9 C77_9 1_555 1_555
C78_9 C77_9 1_555 1_555
H56_9 C78_9 1_555 1_555
C79_9 C76_9 1_555 1_555
N11_2 C80_9 1_555 1_555
C80_9 H57_9 1_555 1_555
C81_9 C80_9 1_555 1_555
H58_9 C81_9 1_555 1_555
C82_9 C81_9 1_555 1_555
C83_9 C82_9 1_555 1_555
H59_9 C83_9 1_555 1_555
C84_9 N11_2 1_555 1_555
H60_9 C84_9 1_555 1_555
C85_9 C82_9 1_555 1_555
C86_9 C85_9 1_555 1_555
H61_9 C86_9 1_555 1_555
C87_9 C86_9 1_555 1_555
H62_9 C87_9 1_555 1_555
C88_9 C85_9 1_555 1_555
H63_9 C88_9 1_555 1_555
C89_9 C88_9 1_555 1_555
H64_9 C89_9 1_555 1_555
C90_9 C87_9 1_555 1_555
C91_9 C57_9 1_555 1_555
C92_9 C68_9 1_555 1_555
N9_9 C58_9 1_555 1_555
C56_9 C57_9 1_555 1_555
C60_9 N9_9 1_555 1_555
C61_9 C62_9 1_555 1_555
C67_9 C68_9 1_555 1_555
C71_9 N10_5 1_555 1_555
C72_9 C73_9 1_555 1_555
C78_9 C79_9 1_555 1_555
C79_9 C92_9 1_555 1_555
C83_9 C84_9 1_555 1_555
C89_9 C90_9 1_555 1_555
C90_9 C91_9 1_555 1_555
C91_9 C92_9 1_555 1_555
Cu10 N8_10 1_555 1_555
Cu12_2 N9_10 1_555 1_555
C47_10 H33_10 1_555 1_555
C48_10 C47_10 1_555 1_555
H34_10 C48_10 1_555 1_555
C49_10 H35_10 1_555 1_555
C50_10 C49_10 1_555 1_555
H36_10 C50_10 1_555 1_555
C51_10 C48_10 1_555 1_555
C52_10 C51_10 1_555 1_555
C53_10 C52_10 1_555 1_555
H37_10 C53_10 1_555 1_555
C54_10 C53_10 1_555 1_555
H38_10 C54_10 1_555 1_555
C55_10 C52_10 1_555 1_555
H39_10 C55_10 1_555 1_555
C56_10 C55_10 1_555 1_555
H40_10 C56_10 1_555 1_555
C57_10 C54_10 1_555 1_555
C59_10 C58_10 1_555 1_555
H42_10 C59_10 1_555 1_555
C60_10 H43_10 1_555 1_555
C61_10 C60_10 1_555 1_555
H44_10 C61_10 1_555 1_555
C62_10 C59_10 1_555 1_555
C63_10 C62_10 1_555 1_555
C64_10 C63_10 1_555 1_555
H45_10 C64_10 1_555 1_555
C65_10 C64_10 1_555 1_555
H46_10 C65_10 1_555 1_555
C66_10 C63_10 1_555 1_555
H47_10 C66_10 1_555 1_555
C67_10 C66_10 1_555 1_555
H48_10 C67_10 1_555 1_555
C68_10 C65_10 1_555 1_555
C71_10 H51_10 1_555 1_555
C72_10 C71_10 1_555 1_555
H52_10 C72_10 1_555 1_555
C73_10 C70_10 1_555 1_555
C74_10 C73_10 1_555 1_555
C75_10 C74_10 1_555 1_555
H53_10 C75_10 1_555 1_555
C76_10 C75_10 1_555 1_555
H54_10 C76_10 1_555 1_555
C77_10 C74_10 1_555 1_555
H55_10 C77_10 1_555 1_555
C78_10 C77_10 1_555 1_555
H56_10 C78_10 1_555 1_555
C79_10 C76_10 1_555 1_555
N11 C80_10 1_555 1_555
C80_10 H57_10 1_555 1_555
C81_10 C80_10 1_555 1_555
H58_10 C81_10 1_555 1_555
C82_10 C81_10 1_555 1_555
C83_10 C82_10 1_555 1_555
H59_10 C83_10 1_555 1_555
C84_10 N11 1_555 1_555
H60_10 C84_10 1_555 1_555
C85_10 C82_10 1_555 1_555
C86_10 C85_10 1_555 1_555
H61_10 C86_10 1_555 1_555
C87_10 C86_10 1_555 1_555
H62_10 C87_10 1_555 1_555
C88_10 C85_10 1_555 1_555
H63_10 C88_10 1_555 1_555
C89_10 C88_10 1_555 1_555
H64_10 C89_10 1_555 1_555
C90_10 C87_10 1_555 1_555
C91_10 C57_10 1_555 1_555
C92_10 C68_10 1_555 1_555
N8_10 C47_10 1_555 1_555
N9_10 C58_10 1_555 1_555
I5_6 Cu10 1_555 1_555
Cu10_7 I5_6 1_555 1_555
I7_6 Cu10 1_555 1_555
C49_10 N8_10 1_555 1_555
C50_10 C51_10 1_555 1_555
C56_10 C57_10 1_555 1_555
C60_10 N9_10 1_555 1_555
C61_10 C62_10 1_555 1_555
C67_10 C68_10 1_555 1_555
C71_10 N10_6 1_555 1_555
C72_10 C73_10 1_555 1_555
C78_10 C79_10 1_555 1_555
C79_10 C92_10 1_555 1_555
C83_10 C84_10 1_555 1_555
C89_10 C90_10 1_555 1_555
C90_10 C91_10 1_555 1_555
C91_10 C92_10 1_555 1_555
Cu10_7 I7_6 1_555 1_555
C69_10 H49_10 1_555 1_555
N11_4 C80_11 1_555 1_555
C80_11 H57_11 1_555 1_555
C81_11 C80_11 1_555 1_555
H58_11 C81_11 1_555 1_555
C82_11 C81_11 1_555 1_555
C83_11 C82_11 1_555 1_555
H59_11 C83_11 1_555 1_555
C84_11 N11_4 1_555 1_555
H60_11 C84_11 1_555 1_555
C85_11 C82_11 1_555 1_555
C86_11 C85_11 1_555 1_555
H61_11 C86_11 1_555 1_555
C83_11 C84_11 1_555 1_555
Cu10_4 N8_11 1_555 1_555
Cu12_3 N9_11 1_555 1_555
C47_11 H33_11 1_555 1_555
C48_11 C47_11 1_555 1_555
H34_11 C48_11 1_555 1_555
C49_11 H35_11 1_555 1_555
C50_11 C49_11 1_555 1_555
H36_11 C50_11 1_555 1_555
C51_11 C48_11 1_555 1_555
C52_11 C51_11 1_555 1_555
C53_11 C52_11 1_555 1_555
H37_11 C53_11 1_555 1_555
C54_11 C53_11 1_555 1_555
H38_11 C54_11 1_555 1_555
C55_11 C52_11 1_555 1_555
H39_11 C55_11 1_555 1_555
C56_11 C55_11 1_555 1_555
H40_11 C56_11 1_555 1_555
C57_11 C54_11 1_555 1_555
C59_11 C58_11 1_555 1_555
H42_11 C59_11 1_555 1_555
C60_11 H43_11 1_555 1_555
C61_11 C60_11 1_555 1_555
H44_11 C61_11 1_555 1_555
C62_11 C59_11 1_555 1_555
C63_11 C62_11 1_555 1_555
C64_11 C63_11 1_555 1_555
H45_11 C64_11 1_555 1_555
C65_11 C64_11 1_555 1_555
H46_11 C65_11 1_555 1_555
C66_11 C63_11 1_555 1_555
H47_11 C66_11 1_555 1_555
C67_11 C66_11 1_555 1_555
H48_11 C67_11 1_555 1_555
C68_11 C65_11 1_555 1_555
C71_11 H51_11 1_555 1_555
C72_11 C71_11 1_555 1_555
H52_11 C72_11 1_555 1_555
C73_11 C70_11 1_555 1_555
C74_11 C73_11 1_555 1_555
C75_11 C74_11 1_555 1_555
H53_11 C75_11 1_555 1_555
C76_11 C75_11 1_555 1_555
H54_11 C76_11 1_555 1_555
C77_11 C74_11 1_555 1_555
H55_11 C77_11 1_555 1_555
C78_11 C77_11 1_555 1_555
H56_11 C78_11 1_555 1_555
C79_11 C76_11 1_555 1_555
H62_11 C87_11 1_555 1_555
H63_11 C88_11 1_555 1_555
C89_11 C88_11 1_555 1_555
H64_11 C89_11 1_555 1_555
C90_11 C87_11 1_555 1_555
C91_11 C57_11 1_555 1_555
C92_11 C68_11 1_555 1_555
N8_11 C47_11 1_555 1_555
N9_11 C58_11 1_555 1_555
I5_7 Cu10_4 1_555 1_555
Cu10_6 I5_7 1_555 1_555
I7_7 Cu10_4 1_555 1_555
C49_11 N8_11 1_555 1_555
C50_11 C51_11 1_555 1_555
C56_11 C57_11 1_555 1_555
C60_11 N9_11 1_555 1_555
C61_11 C62_11 1_555 1_555
C67_11 C68_11 1_555 1_555
C71_11 N12_5 1_555 1_555
C72_11 C73_11 1_555 1_555
C78_11 C79_11 1_555 1_555
C79_11 C92_11 1_555 1_555
C89_11 C90_11 1_555 1_555
C90_11 C91_11 1_555 1_555
C91_11 C92_11 1_555 1_555
Cu10_6 I7_7 1_555 1_555
C69_11 H49_11 1_555 1_555
C69_12 H49_12 1_555 1_555
N11_3 C80_12 1_555 1_555
C80_12 H57_12 1_555 1_555
C81_12 C80_12 1_555 1_555
H58_12 C81_12 1_555 1_555
C82_12 C81_12 1_555 1_555
C83_12 C82_12 1_555 1_555
H59_12 C83_12 1_555 1_555
C84_12 N11_3 1_555 1_555
H60_12 C84_12 1_555 1_555
C85_12 C82_12 1_555 1_555
C86_12 C85_12 1_555 1_555
H61_12 C86_12 1_555 1_555
C83_12 C84_12 1_555 1_555
Cu12_4 N9_12 1_555 1_555
C53_12 C52_12 1_555 1_555
H37_12 C53_12 1_555 1_555
C54_12 C53_12 1_555 1_555
H38_12 C54_12 1_555 1_555
C55_12 C52_12 1_555 1_555
C56_12 C55_12 1_555 1_555
H40_12 C56_12 1_555 1_555
C57_12 C54_12 1_555 1_555
C59_12 C58_12 1_555 1_555
H42_12 C59_12 1_555 1_555
C60_12 H43_12 1_555 1_555
C61_12 C60_12 1_555 1_555
H44_12 C61_12 1_555 1_555
C62_12 C59_12 1_555 1_555
C63_12 C62_12 1_555 1_555
C64_12 C63_12 1_555 1_555
H45_12 C64_12 1_555 1_555
C65_12 C64_12 1_555 1_555
H46_12 C65_12 1_555 1_555
C66_12 C63_12 1_555 1_555
H47_12 C66_12 1_555 1_555
C67_12 C66_12 1_555 1_555
H48_12 C67_12 1_555 1_555
C68_12 C65_12 1_555 1_555
C71_12 H51_12 1_555 1_555
C72_12 C71_12 1_555 1_555
H52_12 C72_12 1_555 1_555
C73_12 C70_12 1_555 1_555
C74_12 C73_12 1_555 1_555
C75_12 C74_12 1_555 1_555
H53_12 C75_12 1_555 1_555
C76_12 C75_12 1_555 1_555
H54_12 C76_12 1_555 1_555
C77_12 C74_12 1_555 1_555
H55_12 C77_12 1_555 1_555
C78_12 C77_12 1_555 1_555
H56_12 C78_12 1_555 1_555
C79_12 C76_12 1_555 1_555
H62_12 C87_12 1_555 1_555
H63_12 C88_12 1_555 1_555
C89_12 C88_12 1_555 1_555
H64_12 C89_12 1_555 1_555
C90_12 C87_12 1_555 1_555
C91_12 C57_12 1_555 1_555
C92_12 C68_12 1_555 1_555
N9_12 C58_12 1_555 1_555
C56_12 C57_12 1_555 1_555
C60_12 N9_12 1_555 1_555
C61_12 C62_12 1_555 1_555
C67_12 C68_12 1_555 1_555
C71_12 N12_6 1_555 1_555
C72_12 C73_12 1_555 1_555
C78_12 C79_12 1_555 1_555
C79_12 C92_12 1_555 1_555
C89_12 C90_12 1_555 1_555
C90_12 C91_12 1_555 1_555
C91_12 C92_12 1_555 1_555
Cu10_3 N8_12 1_555 1_555
C47_12 H33_12 1_555 1_555
C48_12 C47_12 1_555 1_555
H34_12 C48_12 1_555 1_555
C49_12 H35_12 1_555 1_555
C50_12 C49_12 1_555 1_555
H36_12 C50_12 1_555 1_555
C51_12 C48_12 1_555 1_555
N8_12 C47_12 1_555 1_555
I5_8 Cu10_3 1_555 1_555
Cu10_5 I5_8 1_555 1_555
I7_8 Cu10_3 1_555 1_555
C49_12 N8_12 1_555 1_555
C50_12 C51_12 1_555 1_555
Cu10_5 I7_8 1_555 1_555
Cu10_6 N8_13 1_555 1_555
Cu12_5 N9_13 1_555 1_555
C47_13 H33_13 1_555 1_555
C48_13 C47_13 1_555 1_555
H34_13 C48_13 1_555 1_555
C49_13 H35_13 1_555 1_555
C50_13 C49_13 1_555 1_555
H36_13 C50_13 1_555 1_555
C51_13 C48_13 1_555 1_555
C52_13 C51_13 1_555 1_555
C53_13 C52_13 1_555 1_555
H37_13 C53_13 1_555 1_555
C54_13 C53_13 1_555 1_555
H38_13 C54_13 1_555 1_555
C55_13 C52_13 1_555 1_555
H39_13 C55_13 1_555 1_555
C56_13 C55_13 1_555 1_555
H40_13 C56_13 1_555 1_555
C57_13 C54_13 1_555 1_555
C58_13 H41_13 1_555 1_555
C59_13 C58_13 1_555 1_555
H42_13 C59_13 1_555 1_555
C60_13 H43_13 1_555 1_555
C61_13 C60_13 1_555 1_555
H44_13 C61_13 1_555 1_555
C62_13 C59_13 1_555 1_555
C63_13 C62_13 1_555 1_555
C64_13 C63_13 1_555 1_555
H45_13 C64_13 1_555 1_555
C65_13 C64_13 1_555 1_555
H46_13 C65_13 1_555 1_555
C66_13 C63_13 1_555 1_555
H47_13 C66_13 1_555 1_555
C67_13 C66_13 1_555 1_555
H48_13 C67_13 1_555 1_555
C68_13 C65_13 1_555 1_555
C69_13 H49_13 1_555 1_555
C70_13 C69_13 1_555 1_555
H50_13 C70_13 1_555 1_555
C71_13 H51_13 1_555 1_555
C72_13 C71_13 1_555 1_555
H52_13 C72_13 1_555 1_555
C73_13 C70_13 1_555 1_555
C74_13 C73_13 1_555 1_555
C75_13 C74_13 1_555 1_555
H53_13 C75_13 1_555 1_555
C76_13 C75_13 1_555 1_555
H54_13 C76_13 1_555 1_555
C77_13 C74_13 1_555 1_555
H55_13 C77_13 1_555 1_555
C78_13 C77_13 1_555 1_555
H56_13 C78_13 1_555 1_555
C79_13 C76_13 1_555 1_555
N11_6 C80_13 1_555 1_555
C80_13 H57_13 1_555 1_555
C81_13 C80_13 1_555 1_555
H58_13 C81_13 1_555 1_555
C82_13 C81_13 1_555 1_555
C83_13 C82_13 1_555 1_555
H59_13 C83_13 1_555 1_555
C84_13 N11_6 1_555 1_555
H60_13 C84_13 1_555 1_555
C85_13 C82_13 1_555 1_555
C86_13 C85_13 1_555 1_555
H61_13 C86_13 1_555 1_555
C87_13 C86_13 1_555 1_555
H62_13 C87_13 1_555 1_555
C88_13 C85_13 1_555 1_555
H63_13 C88_13 1_555 1_555
C89_13 C88_13 1_555 1_555
H64_13 C89_13 1_555 1_555
C90_13 C87_13 1_555 1_555
C91_13 C57_13 1_555 1_555
C92_13 C68_13 1_555 1_555
N8_13 C47_13 1_555 1_555
N9_13 C58_13 1_555 1_555
N10_7 C69_13 1_555 1_555
Cu12_7 N10_7 1_555 1_555
C49_13 N8_13 1_555 1_555
C50_13 C51_13 1_555 1_555
C56_13 C57_13 1_555 1_555
C60_13 N9_13 1_555 1_555
C61_13 C62_13 1_555 1_555
C67_13 C68_13 1_555 1_555
C71_13 N10_7 1_555 1_555
C72_13 C73_13 1_555 1_555
C78_13 C79_13 1_555 1_555
C79_13 C92_13 1_555 1_555
C83_13 C84_13 1_555 1_555
C89_13 C90_13 1_555 1_555
C90_13 C91_13 1_555 1_555
C91_13 C92_13 1_555 1_555
Cu12_6 N9_14 1_555 1_555
C53_14 C52_14 1_555 1_555
H37_14 C53_14 1_555 1_555
C54_14 C53_14 1_555 1_555
H38_14 C54_14 1_555 1_555
C55_14 C52_14 1_555 1_555
C56_14 C55_14 1_555 1_555
H40_14 C56_14 1_555 1_555
C57_14 C54_14 1_555 1_555
C58_14 H41_14 1_555 1_555
C59_14 C58_14 1_555 1_555
H42_14 C59_14 1_555 1_555
C60_14 H43_14 1_555 1_555
C61_14 C60_14 1_555 1_555
H44_14 C61_14 1_555 1_555
C62_14 C59_14 1_555 1_555
C63_14 C62_14 1_555 1_555
C64_14 C63_14 1_555 1_555
H45_14 C64_14 1_555 1_555
C65_14 C64_14 1_555 1_555
H46_14 C65_14 1_555 1_555
C66_14 C63_14 1_555 1_555
H47_14 C66_14 1_555 1_555
C67_14 C66_14 1_555 1_555
H48_14 C67_14 1_555 1_555
C68_14 C65_14 1_555 1_555
C69_14 H49_14 1_555 1_555
C70_14 C69_14 1_555 1_555
H50_14 C70_14 1_555 1_555
C71_14 H51_14 1_555 1_555
C72_14 C71_14 1_555 1_555
H52_14 C72_14 1_555 1_555
C73_14 C70_14 1_555 1_555
C74_14 C73_14 1_555 1_555
C75_14 C74_14 1_555 1_555
H53_14 C75_14 1_555 1_555
C76_14 C75_14 1_555 1_555
H54_14 C76_14 1_555 1_555
C77_14 C74_14 1_555 1_555
H55_14 C77_14 1_555 1_555
C78_14 C77_14 1_555 1_555
H56_14 C78_14 1_555 1_555
C79_14 C76_14 1_555 1_555
N11_5 C80_14 1_555 1_555
C80_14 H57_14 1_555 1_555
C81_14 C80_14 1_555 1_555
H58_14 C81_14 1_555 1_555
C82_14 C81_14 1_555 1_555
C83_14 C82_14 1_555 1_555
H59_14 C83_14 1_555 1_555
C84_14 N11_5 1_555 1_555
H60_14 C84_14 1_555 1_555
C85_14 C82_14 1_555 1_555
C86_14 C85_14 1_555 1_555
H61_14 C86_14 1_555 1_555
C87_14 C86_14 1_555 1_555
H62_14 C87_14 1_555 1_555
C88_14 C85_14 1_555 1_555
H63_14 C88_14 1_555 1_555
C89_14 C88_14 1_555 1_555
H64_14 C89_14 1_555 1_555
C90_14 C87_14 1_555 1_555
C91_14 C57_14 1_555 1_555
C92_14 C68_14 1_555 1_555
N9_14 C58_14 1_555 1_555
N10_8 C69_14 1_555 1_555
N12_8 Cu12_6 1_555 1_555
C56_14 C57_14 1_555 1_555
C60_14 N9_14 1_555 1_555
C61_14 C62_14 1_555 1_555
C67_14 C68_14 1_555 1_555
C71_14 N10_8 1_555 1_555
C72_14 C73_14 1_555 1_555
C78_14 C79_14 1_555 1_555
C79_14 C92_14 1_555 1_555
C83_14 C84_14 1_555 1_555
C89_14 C90_14 1_555 1_555
C90_14 C91_14 1_555 1_555
C91_14 C92_14 1_555 1_555
Cu10_5 N8_14 1_555 1_555
C47_14 H33_14 1_555 1_555
C48_14 C47_14 1_555 1_555
H34_14 C48_14 1_555 1_555
C49_14 H35_14 1_555 1_555
C50_14 C49_14 1_555 1_555
H36_14 C50_14 1_555 1_555
C51_14 C48_14 1_555 1_555
N8_14 C47_14 1_555 1_555
C49_14 N8_14 1_555 1_555
C50_14 C51_14 1_555 1_555
Cu10_8 N8_15 1_555 1_555
C47_15 H33_15 1_555 1_555
C48_15 C47_15 1_555 1_555
H34_15 C48_15 1_555 1_555
C49_15 H35_15 1_555 1_555
C50_15 C49_15 1_555 1_555
H36_15 C50_15 1_555 1_555
C51_15 C48_15 1_555 1_555
N8_15 C47_15 1_555 1_555
C49_15 N8_15 1_555 1_555
C50_15 C51_15 1_555 1_555
N11_8 C80_15 1_555 1_555
C80_15 H57_15 1_555 1_555
C81_15 C80_15 1_555 1_555
H58_15 C81_15 1_555 1_555
C82_15 C81_15 1_555 1_555
C83_15 C82_15 1_555 1_555
H59_15 C83_15 1_555 1_555
C84_15 N11_8 1_555 1_555
H60_15 C84_15 1_555 1_555
C85_15 C82_15 1_555 1_555
C86_15 C85_15 1_555 1_555
H61_15 C86_15 1_555 1_555
C83_15 C84_15 1_555 1_555
Cu12_7 N9_15 1_555 1_555
C53_15 C52_15 1_555 1_555
H37_15 C53_15 1_555 1_555
C54_15 C53_15 1_555 1_555
H38_15 C54_15 1_555 1_555
C55_15 C52_15 1_555 1_555
C56_15 C55_15 1_555 1_555
H40_15 C56_15 1_555 1_555
C57_15 C54_15 1_555 1_555
C58_15 H41_15 1_555 1_555
C59_15 C58_15 1_555 1_555
H42_15 C59_15 1_555 1_555
C60_15 H43_15 1_555 1_555
C61_15 C60_15 1_555 1_555
H44_15 C61_15 1_555 1_555
C62_15 C59_15 1_555 1_555
C63_15 C62_15 1_555 1_555
C64_15 C63_15 1_555 1_555
H45_15 C64_15 1_555 1_555
C65_15 C64_15 1_555 1_555
H46_15 C65_15 1_555 1_555
C66_15 C63_15 1_555 1_555
H47_15 C66_15 1_555 1_555
C67_15 C66_15 1_555 1_555
H48_15 C67_15 1_555 1_555
C68_15 C65_15 1_555 1_555
C69_15 H49_15 1_555 1_555
C70_15 C69_15 1_555 1_555
H50_15 C70_15 1_555 1_555
C71_15 H51_15 1_555 1_555
C72_15 C71_15 1_555 1_555
H52_15 C72_15 1_555 1_555
C73_15 C70_15 1_555 1_555
C74_15 C73_15 1_555 1_555
C75_15 C74_15 1_555 1_555
H53_15 C75_15 1_555 1_555
C76_15 C75_15 1_555 1_555
H54_15 C76_15 1_555 1_555
C77_15 C74_15 1_555 1_555
H55_15 C77_15 1_555 1_555
C78_15 C77_15 1_555 1_555
H56_15 C78_15 1_555 1_555
C79_15 C76_15 1_555 1_555
H62_15 C87_15 1_555 1_555
H63_15 C88_15 1_555 1_555
C89_15 C88_15 1_555 1_555
H64_15 C89_15 1_555 1_555
C90_15 C87_15 1_555 1_555
C91_15 C57_15 1_555 1_555
C92_15 C68_15 1_555 1_555
N9_15 C58_15 1_555 1_555
N12_7 C69_15 1_555 1_555
C56_15 C57_15 1_555 1_555
C60_15 N9_15 1_555 1_555
C61_15 C62_15 1_555 1_555
C67_15 C68_15 1_555 1_555
C71_15 N12_7 1_555 1_555
C72_15 C73_15 1_555 1_555
C78_15 C79_15 1_555 1_555
C79_15 C92_15 1_555 1_555
C89_15 C90_15 1_555 1_555
C90_15 C91_15 1_555 1_555
C91_15 C92_15 1_555 1_555
N11_7 C80_16 1_555 1_555
C80_16 H57_16 1_555 1_555
C81_16 C80_16 1_555 1_555
H58_16 C81_16 1_555 1_555
C82_16 C81_16 1_555 1_555
C83_16 C82_16 1_555 1_555
H59_16 C83_16 1_555 1_555
C84_16 N11_7 1_555 1_555
H60_16 C84_16 1_555 1_555
C85_16 C82_16 1_555 1_555
C86_16 C85_16 1_555 1_555
H61_16 C86_16 1_555 1_555
C83_16 C84_16 1_555 1_555
Cu10_7 N8_16 1_555 1_555
Cu12_8 N9_16 1_555 1_555
C47_16 H33_16 1_555 1_555
C48_16 C47_16 1_555 1_555
H34_16 C48_16 1_555 1_555
C49_16 H35_16 1_555 1_555
C50_16 C49_16 1_555 1_555
H36_16 C50_16 1_555 1_555
C51_16 C48_16 1_555 1_555
C52_16 C51_16 1_555 1_555
C53_16 C52_16 1_555 1_555
H37_16 C53_16 1_555 1_555
C54_16 C53_16 1_555 1_555
H38_16 C54_16 1_555 1_555
C55_16 C52_16 1_555 1_555
H39_16 C55_16 1_555 1_555
C56_16 C55_16 1_555 1_555
H40_16 C56_16 1_555 1_555
C57_16 C54_16 1_555 1_555
C58_16 H41_16 1_555 1_555
C59_16 C58_16 1_555 1_555
H42_16 C59_16 1_555 1_555
C60_16 H43_16 1_555 1_555
C61_16 C60_16 1_555 1_555
H44_16 C61_16 1_555 1_555
C62_16 C59_16 1_555 1_555
C63_16 C62_16 1_555 1_555
C64_16 C63_16 1_555 1_555
H45_16 C64_16 1_555 1_555
C65_16 C64_16 1_555 1_555
H46_16 C65_16 1_555 1_555
C66_16 C63_16 1_555 1_555
H47_16 C66_16 1_555 1_555
C67_16 C66_16 1_555 1_555
H48_16 C67_16 1_555 1_555
C68_16 C65_16 1_555 1_555
C69_16 H49_16 1_555 1_555
C70_16 C69_16 1_555 1_555
H50_16 C70_16 1_555 1_555
C71_16 H51_16 1_555 1_555
C72_16 C71_16 1_555 1_555
H52_16 C72_16 1_555 1_555
C73_16 C70_16 1_555 1_555
C74_16 C73_16 1_555 1_555
C75_16 C74_16 1_555 1_555
H53_16 C75_16 1_555 1_555
C76_16 C75_16 1_555 1_555
H54_16 C76_16 1_555 1_555
C77_16 C74_16 1_555 1_555
H55_16 C77_16 1_555 1_555
C78_16 C77_16 1_555 1_555
H56_16 C78_16 1_555 1_555
C79_16 C76_16 1_555 1_555
H62_16 C87_16 1_555 1_555
H63_16 C88_16 1_555 1_555
C89_16 C88_16 1_555 1_555
H64_16 C89_16 1_555 1_555
C90_16 C87_16 1_555 1_555
C91_16 C57_16 1_555 1_555
C92_16 C68_16 1_555 1_555
N8_16 C47_16 1_555 1_555
N9_16 C58_16 1_555 1_555
N12_8 C69_16 1_555 1_555
C49_16 N8_16 1_555 1_555
C50_16 C51_16 1_555 1_555
C56_16 C57_16 1_555 1_555
C60_16 N9_16 1_555 1_555
C61_16 C62_16 1_555 1_555
C67_16 C68_16 1_555 1_555
C71_16 N12_8 1_555 1_555
C72_16 C73_16 1_555 1_555
C78_16 C79_16 1_555 1_555
C79_16 C92_16 1_555 1_555
C89_16 C90_16 1_555 1_555
C90_16 C91_16 1_555 1_555
C91_16 C92_16 1_555 1_555

#END
