
###############################################################################
#
# This file contains modified crystal structure data generated from the
# MOF subset of the Cambridge Structural Database (CSD) v543 
# hosted by the Cambridge Crystallographic Data Centre (CCDC).
#
# This work is licensed under the Creative Commons
# Attribution-NonCommercial-ShareAlike 4.0 International License.
# To view a copy of this license, visit
# http://creativecommons.org/licenses/by-nc-sa/4.0/
# or send a letter to
# Creative Commons, PO Box 1866, Mountain View, CA 94042, USA.
#
# CIF created using the CSD Python API on 29 September 2022
# The structure has been converted into the P1 space group
# The structure has a 3D framework
# The original CSD entry OREZAO is in the hexagonal crystal system
# The original CSD entry OREZAO is in a Sohncke space group
# The framework has been calculated to contain at least 10.0% void space
# The void calculation uses a probe of radius 1.32A, grid spacing 0.4
#
###############################################################################

data_OREZAO
_chemical_formula_moiety         '(C72 H96 Ca2 Cu12 N12 O40 S12)n'
_symmetry_cell_setting           triclinic
_symmetry_space_group_name_H-M   'P 1'
_symmetry_Int_Tables_number      1
_space_group_name_Hall           'P 1'
loop_
_symmetry_equiv_pos_site_id
_symmetry_equiv_pos_as_xyz
1 x,y,z
_cell_length_a                   17.7992(16)
_cell_length_b                   17.7992(16)
_cell_length_c                   12.7145(16)
_cell_angle_alpha                90
_cell_angle_beta                 90
_cell_angle_gamma                120
_cell_volume                     3488.44
loop_
_atom_site_label
_atom_site_type_symbol
_atom_site_fract_x
_atom_site_fract_y
_atom_site_fract_z
N6 N 0.5032(18) 0.1016(13) 0.3894(18)
O19 O 0.5646(21) 0.2401(14) 0.500(2)
O20 O 0.5809(21) 0.0199(15) 0.486(2)
O21 O 0.4848(26) 0.2829(21) 0.4267(18)
C27 C 0.4727(25) 0.0190(18) 0.360(2)
C29 C 0.500(3) 0.225(2) 0.431(3)
C30 C 0.4678(25) 0.1515(17) 0.363(2)
H34 H 0.5009 0.1794 0.2969
C34 C 0.3721 0.0952 0.3168
H42 H 0.3744 0.0490 0.2759
H43 H 0.3680 0.1337 0.2637
C35 C 0.2762 0.0459 0.3707
H45 H 0.2420 0.0426 0.3077
H48 H 0.0995 0.0100 0.3292
S6 S 0.2019 0.0330 0.4631
Cu10 Cu 0.5548(3) 0.4171(4) 0.50411(19)
Cu12 Cu 0.5829(4) 0.1377(3) 0.50411(19)
Ca4 Ca 0.6667 0.3333 0.6346(13)
Cu1 Cu 0.1368(3) 0.5538(2) 0.2662(2)
Cu2 Cu 0.1377(3) 0.5548(3) 0.00411(19)
Ca1 Ca 0.3333 0.6667 0.1346(13)
O1 O 0.1767(7) 0.5340(6) 0.129(2)
N1 N 0.0888(15) 0.5951(16) 0.365(2)
O2 O 0.2348(13) 0.6747(13) 0.2695(19)
O3 O 0.0232(11) 0.4481(11) 0.2830(18)
O4 O 0.2942(13) 0.8032(13) 0.3618(18)
C1 C 0.2361(19) 0.724(2) 0.338(3)
C2 C 0.145(2) 0.695(2) 0.398(3)
H1 H 0.1532 0.7013 0.4762
C4 C 0.021(2) 0.539(2) 0.417(3)
C7 C 0.094(2) 0.738(3) 0.360(3)
H3 H 0.0369 0.7101 0.3960
H4 H 0.1255 0.7997 0.3813
C8 C 0.080(4) 0.733(4) 0.248(3)
H5 H 0.1351 0.7805 0.2199
H6 H 0.0374 0.7532 0.2389
C9 C 0.108(5) 0.753(4) 0.067(4)
H8 H 0.1683 0.7857 0.0924
H9 H 0.0802 0.7878 0.0762
H12 H 0.0128 0.2820 0.3753
C12 C 0.026(7) 0.124(7) 0.388(8)
H14 H 0.0377 0.0874 0.4349
H15 H 0.0807 0.1719 0.3618
S1 S 0.0457(13) 0.6461(13) 0.147(3)
Cu3 Cu 0.4462(2) 0.5830(4) 0.2662(2)
Cu4 Cu 0.4452(3) 0.5829(4) 0.00411(19)
O8 O 0.4660(6) 0.6427(9) 0.129(2)
N3 N 0.4049(16) 0.4937(22) 0.365(2)
N4 N 0.5984(13) 0.4968(18) 0.3894(18)
O9 O 0.3253(13) 0.5601(18) 0.2695(19)
O10 O 0.5519(11) 0.5751(16) 0.2830(18)
O11 O 0.1968(13) 0.4910(18) 0.3618(18)
O12 O 0.6755(15) 0.4354(21) 0.500(2)
O13 O 0.4390(15) 0.4191(21) 0.486(2)
O14 O 0.7981(15) 0.5152(26) 0.4267(18)
C13 C 0.276(2) 0.5121(28) 0.338(3)
C14 C 0.305(2) 0.450(3) 0.398(3)
H17 H 0.2987 0.4519 0.4762
C15 C 0.5463(18) 0.5273(25) 0.360(2)
C16 C 0.461(2) 0.482(3) 0.417(3)
C17 C 0.725(2) 0.500(3) 0.431(3)
C18 C 0.6837(18) 0.5322(25) 0.363(2)
H18 H 0.6785 0.4991 0.2969
C19 C 0.262(3) 0.356(4) 0.360(3)
H19 H 0.2899 0.3268 0.3960
H20 H 0.2003 0.3258 0.3813
C20 C 0.267(4) 0.347(6) 0.248(3)
H21 H 0.2195 0.3546 0.2199
H22 H 0.2468 0.2842 0.2389
C21 C 0.247(4) 0.355(6) 0.067(4)
H24 H 0.2143 0.3826 0.0924
H25 H 0.2122 0.2924 0.0762
C22 C 0.7231 0.6279 0.3168
H26 H 0.6746 0.6256 0.2759
H27 H 0.7657 0.6320 0.2637
C23 C 0.7697 0.7238 0.3707
H28 H 0.7180 0.7308 0.3753
H29 H 0.8006 0.7580 0.3077
C24 C 0.876(7) 0.902(10) 0.388(8)
H30 H 0.9126 0.9503 0.4349
H31 H 0.8281 0.9088 0.3618
H32 H 0.9105 0.9005 0.3292
S3 S 0.3539(13) 0.3996(18) 0.147(3)
S4 S 0.8311 0.7981 0.4631
Cu5 Cu 0.4170(4) 0.8632(3) 0.2662(2)
Cu6 Cu 0.4171(4) 0.8623(3) 0.00411(19)
O15 O 0.3573(9) 0.8233(7) 0.129(2)
N5 N 0.5063(22) 0.9112(15) 0.365(2)
O16 O 0.4399(18) 0.7652(13) 0.2695(19)
O17 O 0.4249(16) 0.9768(11) 0.2830(18)
O18 O 0.5090(18) 0.7058(13) 0.3618(18)
C25 C 0.4879(28) 0.7639(19) 0.338(3)
C26 C 0.550(3) 0.855(2) 0.398(3)
H33 H 0.5481 0.8468 0.4762
C28 C 0.518(3) 0.979(2) 0.417(3)
C31 C 0.644(4) 0.906(2) 0.360(3)
H35 H 0.6732 0.9631 0.3960
H36 H 0.6742 0.8745 0.3813
C32 C 0.653(6) 0.920(4) 0.248(3)
H37 H 0.6454 0.8649 0.2199
H38 H 0.7158 0.9626 0.2389
C33 C 0.645(6) 0.892(5) 0.067(4)
H40 H 0.6174 0.8317 0.0924
H41 H 0.7076 0.9198 0.0762
H44 H 0.2692 0.9872 0.3753
C36 C 0.098(10) 0.974(7) 0.388(8)
H46 H 0.0497 0.9623 0.4349
H47 H 0.0912 0.9193 0.3618
S5 S 0.6004(18) 0.9543(13) 0.147(3)
Cu8 Cu 0.8623(3) 0.4452(3) 0.50411(19)
O22 O 0.2401(14) 0.6755(15) 0.000(2)
O23 O 0.3245(15) 0.5646(21) 0.000(2)
O24 O 0.4354(21) 0.7599(14) 0.000(2)
H7 H 0.1082 0.7392 0.9924
H23 H 0.2608 0.3690 0.9924
H39 H 0.6310 0.8918 0.9924
N7 N 0.1016(13) 0.5984(13) 0.8894(18)
N8 N 0.4016(13) 0.5032(18) 0.8894(18)
N9 N 0.4968(18) 0.8984(13) 0.8894(18)
O22_2 O 0.2401(14) 0.6755(15) 1.000(2)
O23_2 O 0.3245(15) 0.5646(21) 1.000(2)
O24_2 O 0.4354(21) 0.7599(14) 1.000(2)
O25 O 0.0199(15) 0.4390(15) 0.986(2)
O26 O 0.5610(15) 0.5809(21) 0.986(2)
O27 O 0.4191(21) 0.9801(15) 0.986(2)
O28 O 0.2829(21) 0.7981(15) 0.9267(18)
O29 O 0.2019(15) 0.4848(26) 0.9267(18)
O30 O 0.5152(26) 0.7171(21) 0.9267(18)
N2 N 0.8984(13) 0.4016(13) 0.3894(18)
O5 O 0.7599(14) 0.3245(15) 0.500(2)
O6 O 0.9801(15) 0.5610(15) 0.486(2)
O7 O 0.7171(21) 0.2019(15) 0.4267(18)
C3 C 0.9810(18) 0.4537(18) 0.360(2)
C5 C 0.775(2) 0.275(2) 0.431(3)
C6 C 0.8485(17) 0.3163(18) 0.363(2)
H2 H 0.8206 0.3215 0.2969
C10 C 0.9048 0.2769 0.3168
H10 H 0.9510 0.3254 0.2759
H11 H 0.8663 0.2343 0.2637
C11 C 0.9541 0.2303 0.3707
H13 H 0.9574 0.1994 0.3077
H16 H 0.9900 0.0895 0.3292
S2 S 0.9670 0.1689 0.4631
C3_2 C 0.0190(18) 0.5463(18) 0.860(2)
C5_2 C 0.225(2) 0.725(2) 0.931(3)
C6_2 C 0.1515(17) 0.6837(18) 0.863(2)
H2_2 H 0.1794 0.6785 0.7969
C10_2 C 0.0952 0.7231 0.8168
H10_2 H 0.0490 0.6746 0.7759
H11_2 H 0.1337 0.7657 0.7637
C11_2 C 0.0459 0.7697 0.8707
H13_2 H 0.0426 0.8006 0.8077
H16_2 H 0.0100 0.9105 0.8292
S2_2 S 0.0330 0.8311 0.9631
Cu1_2 Cu 0.8632(3) 0.4462(2) 0.7662(2)
O1_2 O 0.8233(7) 0.4660(6) 0.629(2)
N1_2 N 0.9112(15) 0.4049(16) 0.865(2)
O2_2 O 0.7652(13) 0.3253(13) 0.7695(19)
O3_2 O 0.9768(11) 0.5519(11) 0.7830(18)
O4_2 O 0.7058(13) 0.1968(13) 0.8618(18)
C1_2 C 0.7639(19) 0.276(2) 0.838(3)
C2_2 C 0.855(2) 0.305(2) 0.898(3)
H1_2 H 0.8468 0.2987 0.9762
C4_2 C 0.979(2) 0.461(2) 0.917(3)
C7_2 C 0.906(2) 0.262(3) 0.860(3)
H3_2 H 0.9631 0.2899 0.8960
H4_2 H 0.8745 0.2003 0.8813
C8_2 C 0.920(4) 0.267(4) 0.748(3)
H5_2 H 0.8649 0.2195 0.7199
H6_2 H 0.9626 0.2468 0.7389
C9_2 C 0.892(5) 0.247(4) 0.567(4)
H7_2 H 0.8918 0.2608 0.4924
H8_2 H 0.8317 0.2143 0.5924
H9_2 H 0.9198 0.2122 0.5762
H12_2 H 0.9872 0.7180 0.8753
C12_2 C 0.974(7) 0.876(7) 0.888(8)
H14_2 H 0.9623 0.9126 0.9349
H15_2 H 0.9193 0.8281 0.8618
S1_2 S 0.9543(13) 0.3539(13) 0.647(3)
Cu3_2 Cu 0.5538(2) 0.4170(4) 0.7662(2)
O8_2 O 0.5340(6) 0.3573(9) 0.629(2)
N3_2 N 0.5951(16) 0.5063(22) 0.865(2)
O9_2 O 0.6747(13) 0.4399(18) 0.7695(19)
O10_2 O 0.4481(11) 0.4249(16) 0.7830(18)
O11_2 O 0.8032(13) 0.5090(18) 0.8618(18)
C13_2 C 0.724(2) 0.4879(28) 0.838(3)
C14_2 C 0.695(2) 0.550(3) 0.898(3)
H17_2 H 0.7013 0.5481 0.9762
C15_2 C 0.4537(18) 0.4727(25) 0.860(2)
C16_2 C 0.539(2) 0.518(3) 0.917(3)
C17_2 C 0.275(2) 0.500(3) 0.931(3)
C18_2 C 0.3163(18) 0.4678(25) 0.863(2)
H18_2 H 0.3215 0.5009 0.7969
C19_2 C 0.738(3) 0.644(4) 0.860(3)
H19_2 H 0.7101 0.6732 0.8960
H20_2 H 0.7997 0.6742 0.8813
C20_2 C 0.733(4) 0.653(6) 0.748(3)
H21_2 H 0.7805 0.6454 0.7199
H22_2 H 0.7532 0.7158 0.7389
C21_2 C 0.753(4) 0.645(6) 0.567(4)
H23_2 H 0.7392 0.6310 0.4924
H24_2 H 0.7857 0.6174 0.5924
H25_2 H 0.7878 0.7076 0.5762
C22_2 C 0.2769 0.3721 0.8168
H26_2 H 0.3254 0.3744 0.7759
H27_2 H 0.2343 0.3680 0.7637
C23_2 C 0.2303 0.2762 0.8707
H28_2 H 0.2820 0.2692 0.8753
H29_2 H 0.1994 0.2420 0.8077
C24_2 C 0.124(7) 0.098(10) 0.888(8)
H30_2 H 0.0874 0.0497 0.9349
H31_2 H 0.1719 0.0912 0.8618
H32_2 H 0.0895 0.0995 0.8292
S3_2 S 0.6461(13) 0.6004(18) 0.647(3)
S4_2 S 0.1689 0.2019 0.9631
Cu5_2 Cu 0.5830(4) 0.1368(3) 0.7662(2)
O15_2 O 0.6427(9) 0.1767(7) 0.629(2)
N5_2 N 0.4937(22) 0.0888(15) 0.865(2)
O16_2 O 0.5601(18) 0.2348(13) 0.7695(19)
O17_2 O 0.5751(16) 0.0232(11) 0.7830(18)
O18_2 O 0.4910(18) 0.2942(13) 0.8618(18)
C25_2 C 0.5121(28) 0.2361(19) 0.838(3)
C26_2 C 0.450(3) 0.145(2) 0.898(3)
H33_2 H 0.4519 0.1532 0.9762
C28_2 C 0.482(3) 0.021(2) 0.917(3)
C31_2 C 0.356(4) 0.094(2) 0.860(3)
H35_2 H 0.3268 0.0369 0.8960
H36_2 H 0.3258 0.1255 0.8813
C32_2 C 0.347(6) 0.080(4) 0.748(3)
H37_2 H 0.3546 0.1351 0.7199
H38_2 H 0.2842 0.0374 0.7389
C33_2 C 0.355(6) 0.108(5) 0.567(4)
H39_2 H 0.3690 0.1082 0.4924
H40_2 H 0.3826 0.1683 0.5924
H41_2 H 0.2924 0.0802 0.5762
H44_2 H 0.7308 0.0128 0.8753
C36_2 C 0.902(10) 0.026(7) 0.888(8)
H46_2 H 0.9503 0.0377 0.9349
H47_2 H 0.9088 0.0807 0.8618
S5_2 S 0.3996(18) 0.0457(13) 0.647(3)
C27_2 C 0.5273(25) 0.9810(18) 0.860(2)
C29_2 C 0.500(3) 0.775(2) 0.931(3)
C30_2 C 0.5322(25) 0.8485(17) 0.863(2)
H34_2 H 0.4991 0.8206 0.7969
C34_2 C 0.6279 0.9048 0.8168
H42_2 H 0.6256 0.9510 0.7759
H43_2 H 0.6320 0.8663 0.7637
C35_2 C 0.7238 0.9541 0.8707
H45_2 H 0.7580 0.9574 0.8077
H48_2 H 0.9005 0.9900 0.8292
S6_2 S 0.7981 0.9670 0.9631
loop_
_geom_bond_atom_site_label_1
_geom_bond_atom_site_label_2
_geom_bond_site_symmetry_1
_geom_bond_site_symmetry_2
N6 C27 1_555 1_555
O19 C29 1_555 1_555
O21 C29 1_555 1_555
C29 C30 1_555 1_555
C30 N6 1_555 1_555
H34 C30 1_555 1_555
C34 C30 1_555 1_555
H42 C34 1_555 1_555
H43 C34 1_555 1_555
C35 C34 1_555 1_555
H45 C35 1_555 1_555
S6 C35 1_555 1_555
Cu10 O21 1_555 1_555
Cu12 N6 1_555 1_555
Ca4 O19 1_555 1_555
O19 Cu12 1_555 1_555
O20 Cu12 1_555 1_555
Cu1 O1 1_555 1_555
Cu2 O1 1_555 1_555
Ca1 O1 1_555 1_555
N1 Cu1 1_555 1_555
O2 Cu1 1_555 1_555
O3 Cu1 1_555 1_555
O4 C1 1_555 1_555
C1 O2 1_555 1_555
C2 N1 1_555 1_555
H1 C2 1_555 1_555
C4 N1 1_555 1_555
C7 C2 1_555 1_555
H3 C7 1_555 1_555
H4 C7 1_555 1_555
C8 C7 1_555 1_555
H5 C8 1_555 1_555
H6 C8 1_555 1_555
H8 C9 1_555 1_555
H9 C9 1_555 1_555
C12 H14 1_555 1_555
H15 C12 1_555 1_555
S1 C8 1_555 1_555
Cu3 O8 1_555 1_555
Cu4 O8 1_555 1_555
O8 Ca1 1_555 1_555
N3 Cu3 1_555 1_555
N4 C15 1_555 1_555
O9 Ca1 1_555 1_555
O10 Cu3 1_555 1_555
O11 Cu1 1_555 1_555
O12 C17 1_555 1_555
O13 C16 1_555 1_555
O14 C17 1_555 1_555
C13 O9 1_555 1_555
C14 N3 1_555 1_555
H17 C14 1_555 1_555
C15 O10 1_555 1_555
C16 N3 1_555 1_555
C17 C18 1_555 1_555
C18 N4 1_555 1_555
H18 C18 1_555 1_555
C19 C14 1_555 1_555
H19 C19 1_555 1_555
H20 C19 1_555 1_555
C20 C19 1_555 1_555
H21 C20 1_555 1_555
H22 C20 1_555 1_555
H24 C21 1_555 1_555
H25 C21 1_555 1_555
C22 C18 1_555 1_555
H26 C22 1_555 1_555
H27 C22 1_555 1_555
C23 C22 1_555 1_555
H28 C23 1_555 1_555
H29 C23 1_555 1_555
C24 H30 1_555 1_555
H31 C24 1_555 1_555
H32 C24 1_555 1_555
S3 C20 1_555 1_555
S4 C23 1_555 1_555
Cu5 O4 1_555 1_555
Cu6 O15 1_555 1_555
O15 Ca1 1_555 1_555
N5 Cu5 1_555 1_555
O16 Ca1 1_555 1_555
O17 Cu5 1_555 1_555
O18 Cu3 1_555 1_555
C25 O16 1_555 1_555
C26 N5 1_555 1_555
H33 C26 1_555 1_555
C28 N5 1_555 1_555
C31 C26 1_555 1_555
H35 C31 1_555 1_555
H36 C31 1_555 1_555
C32 C31 1_555 1_555
H37 C32 1_555 1_555
H38 C32 1_555 1_555
H40 C33 1_555 1_555
H41 C33 1_555 1_555
C36 H46 1_555 1_555
H47 C36 1_555 1_555
S5 C32 1_555 1_555
Cu8 O14 1_555 1_555
Cu10 N4 1_555 1_555
Ca4 O12 1_555 1_555
O22 Cu2 1_555 1_555
O23 Ca1 1_555 1_555
O24 Ca1 1_555 1_555
Ca1 O2 1_555 1_555
Ca1 O22 1_555 1_555
C1 C2 1_555 1_555
C9 S1 1_555 1_555
Cu3 O9 1_555 1_555
Cu4 O23 1_555 1_555
O11 C13 1_555 1_555
O12 Cu10 1_555 1_555
O13 Cu10 1_555 1_555
C13 C14 1_555 1_555
C15 C16 1_555 1_555
C21 S3 1_555 1_555
C24 S4 1_555 1_555
Cu5 O15 1_555 1_555
Cu5 O16 1_555 1_555
Cu6 O24 1_555 1_555
O18 C25 1_555 1_555
C25 C26 1_555 1_555
C33 S5 1_555 1_555
N2 C3 1_555 1_555
O5 C5 1_555 1_555
O7 C5 1_555 1_555
C5 C6 1_555 1_555
C6 N2 1_555 1_555
H2 C6 1_555 1_555
C10 C6 1_555 1_555
H10 C10 1_555 1_555
H11 C10 1_555 1_555
C11 C10 1_555 1_555
H13 C11 1_555 1_555
S2 C11 1_555 1_555
Cu8 N2 1_555 1_555
Cu12 O7 1_555 1_555
Ca4 O5 1_555 1_555
O5 Cu8 1_555 1_555
O6 Cu8 1_555 1_555
N7 C3_2 1_555 1_555
O22_2 C5_2 1_555 1_555
O28 C5_2 1_555 1_555
C5_2 C6_2 1_555 1_555
C6_2 N7 1_555 1_555
H2_2 C6_2 1_555 1_555
C10_2 C6_2 1_555 1_555
H10_2 C10_2 1_555 1_555
H11_2 C10_2 1_555 1_555
C11_2 C10_2 1_555 1_555
H13_2 C11_2 1_555 1_555
S2_2 C11_2 1_555 1_555
Cu1_2 O1_2 1_555 1_555
Cu8 O1_2 1_555 1_555
Ca4 O1_2 1_555 1_555
N1_2 Cu1_2 1_555 1_555
O2_2 Cu1_2 1_555 1_555
O3_2 Cu1_2 1_555 1_555
O4_2 C1_2 1_555 1_555
C1_2 O2_2 1_555 1_555
C2_2 N1_2 1_555 1_555
H1_2 C2_2 1_555 1_555
C4_2 N1_2 1_555 1_555
C7_2 C2_2 1_555 1_555
H3_2 C7_2 1_555 1_555
H4_2 C7_2 1_555 1_555
C8_2 C7_2 1_555 1_555
H5_2 C8_2 1_555 1_555
H6_2 C8_2 1_555 1_555
C9_2 H7_2 1_555 1_555
H8_2 C9_2 1_555 1_555
H9_2 C9_2 1_555 1_555
C12_2 H14_2 1_555 1_555
H15_2 C12_2 1_555 1_555
S1_2 C8_2 1_555 1_555
Cu3_2 O8_2 1_555 1_555
Cu10 O8_2 1_555 1_555
O8_2 Ca4 1_555 1_555
N3_2 Cu3_2 1_555 1_555
N8 C15_2 1_555 1_555
O9_2 Ca4 1_555 1_555
O10_2 Cu3_2 1_555 1_555
O11_2 Cu1_2 1_555 1_555
O23_2 C17_2 1_555 1_555
O26 C16_2 1_555 1_555
O29 C17_2 1_555 1_555
C13_2 O9_2 1_555 1_555
C14_2 N3_2 1_555 1_555
H17_2 C14_2 1_555 1_555
C15_2 O10_2 1_555 1_555
C16_2 N3_2 1_555 1_555
C17_2 C18_2 1_555 1_555
C18_2 N8 1_555 1_555
H18_2 C18_2 1_555 1_555
C19_2 C14_2 1_555 1_555
H19_2 C19_2 1_555 1_555
H20_2 C19_2 1_555 1_555
C20_2 C19_2 1_555 1_555
H21_2 C20_2 1_555 1_555
H22_2 C20_2 1_555 1_555
C21_2 H23_2 1_555 1_555
H24_2 C21_2 1_555 1_555
H25_2 C21_2 1_555 1_555
C22_2 C18_2 1_555 1_555
H26_2 C22_2 1_555 1_555
H27_2 C22_2 1_555 1_555
C23_2 C22_2 1_555 1_555
H28_2 C23_2 1_555 1_555
H29_2 C23_2 1_555 1_555
C24_2 H30_2 1_555 1_555
H31_2 C24_2 1_555 1_555
H32_2 C24_2 1_555 1_555
S3_2 C20_2 1_555 1_555
S4_2 C23_2 1_555 1_555
Cu5_2 O4_2 1_555 1_555
Cu12 O15_2 1_555 1_555
O15_2 Ca4 1_555 1_555
N5_2 Cu5_2 1_555 1_555
O16_2 Ca4 1_555 1_555
O17_2 Cu5_2 1_555 1_555
O18_2 Cu3_2 1_555 1_555
C25_2 O16_2 1_555 1_555
C26_2 N5_2 1_555 1_555
H33_2 C26_2 1_555 1_555
C28_2 N5_2 1_555 1_555
C31_2 C26_2 1_555 1_555
H35_2 C31_2 1_555 1_555
H36_2 C31_2 1_555 1_555
C32_2 C31_2 1_555 1_555
H37_2 C32_2 1_555 1_555
H38_2 C32_2 1_555 1_555
C33_2 H39_2 1_555 1_555
H40_2 C33_2 1_555 1_555
H41_2 C33_2 1_555 1_555
C36_2 H46_2 1_555 1_555
H47_2 C36_2 1_555 1_555
S5_2 C32_2 1_555 1_555
Ca4 O2_2 1_555 1_555
C1_2 C2_2 1_555 1_555
C9_2 S1_2 1_555 1_555
Cu3_2 O9_2 1_555 1_555
O11_2 C13_2 1_555 1_555
C13_2 C14_2 1_555 1_555
C15_2 C16_2 1_555 1_555
C21_2 S3_2 1_555 1_555
C24_2 S4_2 1_555 1_555
Cu5_2 O15_2 1_555 1_555
Cu5_2 O16_2 1_555 1_555
O18_2 C25_2 1_555 1_555
C25_2 C26_2 1_555 1_555
C33_2 S5_2 1_555 1_555
N9 C27_2 1_555 1_555
O24_2 C29_2 1_555 1_555
O30 C29_2 1_555 1_555
C29_2 C30_2 1_555 1_555
C30_2 N9 1_555 1_555
H34_2 C30_2 1_555 1_555
C34_2 C30_2 1_555 1_555
H42_2 C34_2 1_555 1_555
H43_2 C34_2 1_555 1_555
C35_2 C34_2 1_555 1_555
H45_2 C35_2 1_555 1_555
S6_2 C35_2 1_555 1_555

#END
