
###############################################################################
#
# This file contains modified crystal structure data generated from the
# MOF subset of the Cambridge Structural Database (CSD) v543 
# hosted by the Cambridge Crystallographic Data Centre (CCDC).
#
# This work is licensed under the Creative Commons
# Attribution-NonCommercial-ShareAlike 4.0 International License.
# To view a copy of this license, visit
# http://creativecommons.org/licenses/by-nc-sa/4.0/
# or send a letter to
# Creative Commons, PO Box 1866, Mountain View, CA 94042, USA.
#
# CIF created using the CSD Python API on 29 September 2022
# The structure has been converted into the P1 space group
# The structure has a 3D framework
# The original CSD entry OREZES is in the hexagonal crystal system
# The original CSD entry OREZES is in a Sohncke space group
# The framework has been calculated to contain at least 10.0% void space
# The void calculation uses a probe of radius 1.32A, grid spacing 0.4
# The framework is charged, counterions have been retained in the structure
#
###############################################################################

data_OREZES
_chemical_formula_moiety         '(C72 H96 Au6 Ca2 Cl6 Cu12 N9 O34 S12 12+)n'
_symmetry_cell_setting           triclinic
_symmetry_space_group_name_H-M   'P 1'
_symmetry_Int_Tables_number      1
_space_group_name_Hall           'P 1'
loop_
_symmetry_equiv_pos_site_id
_symmetry_equiv_pos_as_xyz
1 x,y,z
_cell_length_a                   17.850(3)
_cell_length_b                   17.850(3)
_cell_length_c                   13.064(2)
_cell_angle_alpha                90
_cell_angle_beta                 90
_cell_angle_gamma                120
_cell_volume                     3604.82
loop_
_atom_site_label
_atom_site_type_symbol
_atom_site_fract_x
_atom_site_fract_y
_atom_site_fract_z
O8 O 0.6783(14) 0.2347(20) 0.1373(19)
O9 O 0.8000(16) 0.2947(19) 0.0305(14)
O13 O 0.4440(13) 0.0156(19) 0.1131(16)
N3 N 0.5953(13) 0.0998(20) 0.0105(18)
C13 C 0.7292(16) 0.2315(23) 0.061(2)
S3 S 0.8183(19) 0.1383(36) 0.200(2)
C21 C 0.6889(13) 0.1414(19) 0.002(2)
C22 C 0.755(2) 0.118(3) 0.007(4)
H27 H 0.7179 0.0539 0.0119
C23 C 0.8363 0.1282 0.0580
H28 H 0.8883 0.1809 0.0327
H29 H 0.8432 0.0774 0.0449
C24 C 0.781(2) 0.019(3) 0.175(3)
H32 H 0.8162 0.0146 0.1200
Au2 Au 0.6460 0.0414 0.2681
Cu8 Cu 0.5548(2) 0.1357(3) 0.13214(19)
Cu10 Cu 0.8643(3) 0.4191(2) 0.13214(19)
Ca3 Ca 0.6667 0.3333 0.2541(10)
Cu1 Cu 0.5809(2) 0.4452(2) 0.13214(19)
Cu2 Cu 0.5794(3) 0.4441(3) 0.3884(2)
O1 O 0.6418(8) 0.4661(8) 0.2534(15)
O2 O 0.5564(14) 0.3217(14) 0.1373(19)
O3 O 0.4947(11) 0.2000(16) 0.0305(14)
O7 O 0.5716(14) 0.5560(13) 0.1131(16)
N1 N 0.5045(15) 0.4047(13) 0.0105(18)
C1 C 0.5023(17) 0.2708(16) 0.061(2)
C3 C 0.5277(13) 0.5451(14) 0.0396(16)
C5 C 0.5208(19) 0.683(2) 0.038(2)
H1 H 0.5811 0.7265 0.0592
C6 C 0.4525 0.6542 0.1203
H2 H 0.4429 0.7036 0.1084
H3 H 0.4956 0.6753 0.1763
C7 C 0.377(2) 0.610(2) 0.193(3)
H4 H 0.3253 0.5919 0.1495
H5 H 0.3810 0.6577 0.2364
C8 C 0.283(5) 0.416(3) 0.214(5)
H6 H 0.3054 0.4232 0.1439
H7 H 0.2218 0.3999 0.2116
H8 H 0.2886 0.3703 0.2484
S1 S 0.320(3) 0.1817(19) 0.200(2)
C9 C 0.4525(14) 0.3111(13) 0.002(2)
C10 C 0.363(2) 0.245(2) 0.007(4)
H11 H 0.3360 0.2821 0.0119
C11 C 0.2919 0.1637 0.0580
H12 H 0.2926 0.1117 0.0327
H13 H 0.2342 0.1568 0.0449
C12 C 0.238(2) 0.219(2) 0.175(3)
H14 H 0.2684 0.2798 0.1544
H15 H 0.2045 0.2119 0.2374
H16 H 0.1984 0.1838 0.1200
S2 S 0.3447 0.5179 0.2842
Au1 Au 0.3954 0.3540 0.2681
Cl1 Cl 0.3257 0.3912 0.3862
C15 C 0.4549(14) 0.9826(19) 0.0396(16)
C17 C 0.317(2) 0.8378(28) 0.038(2)
H17 H 0.2735 0.8546 0.0592
C18 C 0.3458 0.7983 0.1203
H18 H 0.2964 0.7393 0.1084
H19 H 0.3247 0.8203 0.1763
C19 C 0.390(2) 0.767(3) 0.193(3)
H20 H 0.4081 0.7334 0.1495
H21 H 0.3423 0.7233 0.2364
C20 C 0.584(3) 0.867(6) 0.214(5)
H22 H 0.5768 0.8822 0.1439
H23 H 0.6001 0.8219 0.2116
H24 H 0.6297 0.9183 0.2484
H30 H 0.7202 0.9886 0.1544
H31 H 0.7881 0.9926 0.2374
S4 S 0.4821 0.8268 0.2842
C27 C 0.0174(19) 0.4723(13) 0.0396(16)
C29 C 0.1622(28) 0.4792(19) 0.038(2)
H33 H 0.1454 0.4189 0.0592
C30 C 0.2017 0.5475 0.1203
H34 H 0.2607 0.5571 0.1084
H35 H 0.1797 0.5044 0.1763
C31 C 0.233(3) 0.623(2) 0.193(3)
H36 H 0.2666 0.6747 0.1495
H37 H 0.2767 0.6190 0.2364
C32 C 0.133(6) 0.717(5) 0.214(5)
H38 H 0.1178 0.6946 0.1439
H39 H 0.1781 0.7782 0.2116
H40 H 0.0817 0.7114 0.2484
H46 H 0.0114 0.7316 0.1544
H47 H 0.0074 0.7955 0.2374
S6 S 0.1732 0.6553 0.2842
Cu4 Cu 0.5559(3) 0.1353(4) 0.3884(2)
O20 O 0.5339(8) 0.1757(11) 0.2534(15)
Cu6 Cu 0.8647(4) 0.4206(3) 0.3884(2)
O21 O 0.8243(11) 0.3582(8) 0.2534(15)
Cl2 Cl 0.6088 0.9345 0.3862
Cl3 Cl 0.0655 0.6743 0.3862
O23 O 0.7653(20) 0.4436(14) 0.1373(19)
O25 O 0.7053(19) 0.5053(11) 0.0305(14)
O26 O 0.5632(11) 0.3254(12) 0.3924(14)
O27 O 0.6746(12) 0.2378(16) 0.3924(14)
O28 O 0.7622(16) 0.4368(11) 0.3924(14)
O29 O 0.4851(18) 0.1950(26) 0.466(2)
O30 O 0.8050(26) 0.2901(32) 0.466(2)
O31 O 0.7099(32) 0.5149(18) 0.466(2)
O32 O 0.5760(13) 0.5538(13) 0.4050(15)
O33 O 0.4462(13) 0.0222(18) 0.4050(15)
O34 O 0.9778(18) 0.4240(13) 0.4050(15)
O36 O 0.9844(19) 0.4284(14) 0.1131(16)
N8 N 0.9002(20) 0.4955(15) 0.0105(18)
N9 N 0.4906(14) 0.3980(14) 0.4886(16)
N10 N 0.6020(14) 0.0926(20) 0.4886(16)
N11 N 0.9074(20) 0.5094(14) 0.4886(16)
O4 O 0.4368(11) 0.6746(12) 0.8924(14)
O5 O 0.5149(18) 0.8050(26) 0.966(2)
O6 O 0.4240(13) 0.4462(13) 0.9050(15)
N2 N 0.5094(14) 0.6020(14) 0.9886(16)
C2 C 0.489(3) 0.458(3) 0.991(3)
C4 C 0.478(3) 0.714(4) 0.967(3)
H9 H 0.4656 0.3033 0.9300
H10 H 0.3534 0.2255 0.9351
O10 O 0.3254(12) 0.7622(16) 0.8924(14)
O11 O 0.1950(26) 0.7099(32) 0.966(2)
O12 O 0.5538(13) 0.9778(18) 0.9050(15)
N4 N 0.3980(14) 0.9074(20) 0.9886(16)
C16 C 0.286(4) 0.764(5) 0.967(3)
O16 O 0.2378(16) 0.5632(11) 0.8924(14)
O17 O 0.2901(32) 0.4851(18) 0.966(2)
O18 O 0.0222(18) 0.5760(13) 0.9050(15)
N6 N 0.0926(20) 0.4906(14) 0.9886(16)
C28 C 0.236(5) 0.522(3) 0.967(3)
Cu11 Cu 0.4206(3) 0.5559(3) 0.8884(2)
Cu12 Cu 0.4441(3) 0.8647(4) 0.8884(2)
Cu13 Cu 0.1353(4) 0.5794(3) 0.8884(2)
Ca4 Ca 0.3333 0.6667 0.7541(10)
C25 C 0.7685(23) 0.4977(17) 0.061(2)
S5 S 0.8617(36) 0.680(3) 0.200(2)
C33 C 0.8586(19) 0.5475(14) 0.002(2)
C34 C 0.882(3) 0.637(2) 0.007(4)
H43 H 0.9461 0.6640 0.0119
C35 C 0.8718 0.7081 0.0580
H44 H 0.8191 0.7074 0.0327
H45 H 0.9226 0.7658 0.0449
C36 C 0.981(3) 0.762(2) 0.175(3)
H48 H 0.9854 0.8016 0.1200
Au3 Au 0.9586 0.6046 0.2681
O14 O 0.2347(20) 0.5564(14) 0.6373(19)
O15 O 0.2947(19) 0.4947(11) 0.5305(14)
O19 O 0.0156(19) 0.5716(14) 0.6131(16)
N5 N 0.0998(20) 0.5045(15) 0.5105(18)
C25_2 C 0.2315(23) 0.5023(17) 0.561(2)
C26 C 0.031(4) 0.489(3) 0.491(3)
S5_2 S 0.1383(36) 0.320(3) 0.700(2)
C33_2 C 0.1414(19) 0.4525(14) 0.502(2)
H41 H 0.1623 0.4656 0.4300
C34_2 C 0.118(3) 0.363(2) 0.507(4)
H42 H 0.1279 0.3534 0.4351
H43_2 H 0.0539 0.3360 0.5119
C35_2 C 0.1282 0.2919 0.5580
H44_2 H 0.1809 0.2926 0.5327
H45_2 H 0.0774 0.2342 0.5449
C36_2 C 0.019(3) 0.238(2) 0.675(3)
H48_2 H 0.0146 0.1984 0.6200
Au3_2 Au 0.0414 0.3954 0.7681
Cu7 Cu 0.4191(2) 0.5548(2) 0.63214(19)
Cu9 Cu 0.1357(3) 0.5809(2) 0.63214(19)
O1_2 O 0.3582(8) 0.5339(8) 0.7534(15)
O2_2 O 0.4436(14) 0.6783(14) 0.6373(19)
O3_2 O 0.5053(11) 0.8000(16) 0.5305(14)
O7_2 O 0.4284(14) 0.4440(13) 0.6131(16)
N1_2 N 0.4955(15) 0.5953(13) 0.5105(18)
C1_2 C 0.4977(17) 0.7292(16) 0.561(2)
C2_2 C 0.511(3) 0.542(3) 0.491(3)
C3_2 C 0.4723(13) 0.4549(14) 0.5396(16)
C4_2 C 0.522(3) 0.286(4) 0.467(3)
C5_2 C 0.4792(19) 0.317(2) 0.538(2)
H1_2 H 0.4189 0.2735 0.5592
C6_2 C 0.5475 0.3458 0.6203
H2_2 H 0.5571 0.2964 0.6084
H3_2 H 0.5044 0.3247 0.6763
C7_2 C 0.623(2) 0.390(2) 0.693(3)
H4_2 H 0.6747 0.4081 0.6495
H5_2 H 0.6190 0.3423 0.7364
C8_2 C 0.717(5) 0.584(3) 0.714(5)
H6_2 H 0.6946 0.5768 0.6439
H7_2 H 0.7782 0.6001 0.7116
H8_2 H 0.7114 0.6297 0.7484
S1_2 S 0.680(3) 0.8183(19) 0.700(2)
C9_2 C 0.5475(14) 0.6889(13) 0.502(2)
H9_2 H 0.5344 0.6967 0.4300
C10_2 C 0.637(2) 0.755(2) 0.507(4)
H10_2 H 0.6466 0.7745 0.4351
H11_2 H 0.6640 0.7179 0.5119
C11_2 C 0.7081 0.8363 0.5580
H12_2 H 0.7074 0.8883 0.5327
H13_2 H 0.7658 0.8432 0.5449
C12_2 C 0.762(2) 0.781(2) 0.675(3)
H14_2 H 0.7316 0.7202 0.6544
H15_2 H 0.7955 0.7881 0.7374
H16_2 H 0.8016 0.8162 0.6200
S2_2 S 0.6553 0.4821 0.7842
Au1_2 Au 0.6046 0.6460 0.7681
Cl1_2 Cl 0.6743 0.6088 0.8862
C15_2 C 0.5451(14) 0.0174(19) 0.5396(16)
C16_2 C 0.714(4) 0.236(5) 0.467(3)
C17_2 C 0.683(2) 0.1622(28) 0.538(2)
H17_2 H 0.7265 0.1454 0.5592
C18_2 C 0.6542 0.2017 0.6203
H18_2 H 0.7036 0.2607 0.6084
H19_2 H 0.6753 0.1797 0.6763
C19_2 C 0.610(2) 0.233(3) 0.693(3)
H20_2 H 0.5919 0.2666 0.6495
H21_2 H 0.6577 0.2767 0.7364
C20_2 C 0.416(3) 0.133(6) 0.714(5)
H22_2 H 0.4232 0.1178 0.6439
H23_2 H 0.3999 0.1781 0.7116
H24_2 H 0.3703 0.0817 0.7484
H30_2 H 0.2798 0.0114 0.6544
H31_2 H 0.2119 0.0074 0.7374
S4_2 S 0.5179 0.1732 0.7842
C27_2 C 0.9826(19) 0.5277(13) 0.5396(16)
C28_2 C 0.764(5) 0.478(3) 0.467(3)
C29_2 C 0.8378(28) 0.5208(19) 0.538(2)
H33_2 H 0.8546 0.5811 0.5592
C30_2 C 0.7983 0.4525 0.6203
H34_2 H 0.7393 0.4429 0.6084
H35_2 H 0.8203 0.4956 0.6763
C31_2 C 0.767(3) 0.377(2) 0.693(3)
H36_2 H 0.7334 0.3253 0.6495
H37_2 H 0.7233 0.3810 0.7364
C32_2 C 0.867(6) 0.283(5) 0.714(5)
H38_2 H 0.8822 0.3054 0.6439
H39_2 H 0.8219 0.2218 0.7116
H40_2 H 0.9183 0.2886 0.7484
H46_2 H 0.9886 0.2684 0.6544
H47_2 H 0.9926 0.2045 0.7374
S6_2 S 0.8268 0.3447 0.7842
Cu3 Cu 0.4452(2) 0.8643(3) 0.63214(19)
O20_2 O 0.4661(8) 0.8243(11) 0.7534(15)
O21_2 O 0.1757(11) 0.6418(8) 0.7534(15)
Cl2_2 Cl 0.3912 0.0655 0.8862
Cl3_2 Cl 0.9345 0.3257 0.8862
O22 O 0.3217(14) 0.7653(20) 0.6373(19)
O24 O 0.2000(16) 0.7053(19) 0.5305(14)
O35 O 0.5560(13) 0.9844(19) 0.6131(16)
N7 N 0.4047(13) 0.9002(20) 0.5105(18)
C13_2 C 0.2708(16) 0.7685(23) 0.561(2)
C14 C 0.458(3) 0.969(4) 0.491(3)
S3_2 S 0.1817(19) 0.8617(36) 0.700(2)
C21_2 C 0.3111(13) 0.8586(19) 0.502(2)
H25 H 0.3033 0.8377 0.4300
C22_2 C 0.245(2) 0.882(3) 0.507(4)
H26 H 0.2255 0.8721 0.4351
H27_2 H 0.2821 0.9461 0.5119
C23_2 C 0.1637 0.8718 0.5580
H28_2 H 0.1117 0.8191 0.5327
H29_2 H 0.1568 0.9226 0.5449
C24_2 C 0.219(2) 0.981(3) 0.675(3)
H32_2 H 0.1838 0.9854 0.6200
Au2_2 Au 0.3540 0.9586 0.7681
C14_2 C 0.542(3) 0.031(4) 0.991(3)
H25_2 H 0.6967 0.1623 0.9300
H26_2 H 0.7745 0.1279 0.9351
C26_2 C 0.969(4) 0.511(3) 0.991(3)
H41_2 H 0.8377 0.5344 0.9300
H42_2 H 0.8721 0.6466 0.9351
loop_
_geom_bond_atom_site_label_1
_geom_bond_atom_site_label_2
_geom_bond_site_symmetry_1
_geom_bond_site_symmetry_2
O8 C13 1_555 1_555
O9 C13 1_555 1_555
C13 C21 1_555 1_555
S3 C23 1_555 1_555
C21 N3 1_555 1_555
C22 C21 1_555 1_555
H27 C22 1_555 1_555
C23 C22 1_555 1_555
H28 C23 1_555 1_555
H29 C23 1_555 1_555
C24 S3 1_555 1_555
H32 C24 1_555 1_555
Au2 S3 1_555 1_555
Cu8 O8 1_555 1_555
Cu10 O9 1_555 1_555
Ca3 O8 1_555 1_555
O13 Cu8 1_555 1_555
N3 Cu8 1_555 1_555
Cu1 O1 1_555 1_555
Cu2 O1 1_555 1_555
Ca3 O1 1_555 1_555
O2 Cu1 1_555 1_555
O3 C1 1_555 1_555
O7 Cu1 1_555 1_555
N1 Cu1 1_555 1_555
C1 O2 1_555 1_555
C3 O7 1_555 1_555
H1 C5 1_555 1_555
C6 C5 1_555 1_555
H2 C6 1_555 1_555
H3 C6 1_555 1_555
C7 C6 1_555 1_555
H4 C7 1_555 1_555
H5 C7 1_555 1_555
C8 H6 1_555 1_555
H7 C8 1_555 1_555
H8 C8 1_555 1_555
S1 C11 1_555 1_555
C9 N1 1_555 1_555
C10 C9 1_555 1_555
H11 C10 1_555 1_555
C11 C10 1_555 1_555
H12 C11 1_555 1_555
H13 C11 1_555 1_555
C12 S1 1_555 1_555
H14 C12 1_555 1_555
H15 C12 1_555 1_555
H16 C12 1_555 1_555
S2 C7 1_555 1_555
Au1 S1 1_555 1_555
Cl1 Au1 1_555 1_555
H17 C17 1_555 1_555
C18 C17 1_555 1_555
H18 C18 1_555 1_555
H19 C18 1_555 1_555
C19 C18 1_555 1_555
H20 C19 1_555 1_555
H21 C19 1_555 1_555
C20 H22 1_555 1_555
H23 C20 1_555 1_555
H24 C20 1_555 1_555
S4 C19 1_555 1_555
H33 C29 1_555 1_555
C30 C29 1_555 1_555
H34 C30 1_555 1_555
H35 C30 1_555 1_555
C31 C30 1_555 1_555
H36 C31 1_555 1_555
H37 C31 1_555 1_555
C32 H38 1_555 1_555
H39 C32 1_555 1_555
H40 C32 1_555 1_555
S6 C31 1_555 1_555
Cu8 O3 1_555 1_555
Cu4 O20 1_555 1_555
O20 Ca3 1_555 1_555
Cu10 O21 1_555 1_555
Cu6 O21 1_555 1_555
O21 Ca3 1_555 1_555
O23 Ca3 1_555 1_555
O25 Cu1 1_555 1_555
O26 Cu2 1_555 1_555
O27 Ca3 1_555 1_555
O28 Ca3 1_555 1_555
O29 Cu4 1_555 1_555
O30 Cu6 1_555 1_555
O31 Cu2 1_555 1_555
O32 Cu2 1_555 1_555
O33 Cu4 1_555 1_555
O34 Cu6 1_555 1_555
O36 Cu10 1_555 1_555
N8 Cu10 1_555 1_555
N9 Cu2 1_555 1_555
N10 Cu4 1_555 1_555
N11 Cu6 1_555 1_555
Ca3 O2 1_555 1_555
Ca3 O26 1_555 1_555
C1 C9 1_555 1_555
C8 S2 1_555 1_555
C20 S4 1_555 1_555
C32 S6 1_555 1_555
Cu8 O20 1_555 1_555
Cu4 O27 1_555 1_555
Cu10 O23 1_555 1_555
Cu6 O28 1_555 1_555
O4 C4 1_555 1_555
O5 C4 1_555 1_555
O6 C2 1_555 1_555
O10 C16 1_555 1_555
O11 C16 1_555 1_555
O16 C28 1_555 1_555
O17 C28 1_555 1_555
Cu11 O4 1_555 1_555
Cu12 O5 1_555 1_555
Cu13 O11 1_555 1_555
Ca4 O4 1_555 1_555
O6 Cu11 1_555 1_555
N2 Cu11 1_555 1_555
O10 Cu12 1_555 1_555
O10 Ca4 1_555 1_555
O12 Cu12 1_555 1_555
N4 Cu12 1_555 1_555
O16 Cu13 1_555 1_555
O16 Ca4 1_555 1_555
O17 Cu11 1_555 1_555
O18 Cu13 1_555 1_555
N6 Cu13 1_555 1_555
O23 C25 1_555 1_555
O25 C25 1_555 1_555
C25 C33 1_555 1_555
S5 C35 1_555 1_555
C33 N8 1_555 1_555
C34 C33 1_555 1_555
H43 C34 1_555 1_555
C35 C34 1_555 1_555
H44 C35 1_555 1_555
H45 C35 1_555 1_555
C36 S5 1_555 1_555
H48 C36 1_555 1_555
Au3 S5 1_555 1_555
O14 C25_2 1_555 1_555
O15 C25_2 1_555 1_555
N5 C26 1_555 1_555
C25_2 C33_2 1_555 1_555
S5_2 C35_2 1_555 1_555
C33_2 N5 1_555 1_555
H41 C33_2 1_555 1_555
C34_2 C33_2 1_555 1_555
H42 C34_2 1_555 1_555
H43_2 C34_2 1_555 1_555
C35_2 C34_2 1_555 1_555
H44_2 C35_2 1_555 1_555
H45_2 C35_2 1_555 1_555
C36_2 S5_2 1_555 1_555
H48_2 C36_2 1_555 1_555
Au3_2 S5_2 1_555 1_555
Cu7 O15 1_555 1_555
Cu9 O14 1_555 1_555
Ca4 O14 1_555 1_555
O19 Cu9 1_555 1_555
N5 Cu9 1_555 1_555
Cu7 O1_2 1_555 1_555
Cu11 O1_2 1_555 1_555
Ca4 O1_2 1_555 1_555
O2_2 Cu7 1_555 1_555
O3_2 C1_2 1_555 1_555
O26 C4_2 1_555 1_555
O29 C4_2 1_555 1_555
O32 C2_2 1_555 1_555
O7_2 Cu7 1_555 1_555
N1_2 Cu7 1_555 1_555
N9 C3_2 1_555 1_555
C1_2 O2_2 1_555 1_555
C2_2 N1_2 1_555 1_555
C3_2 O7_2 1_555 1_555
C4_2 C5_2 1_555 1_555
C5_2 N9 1_555 1_555
H1_2 C5_2 1_555 1_555
C6_2 C5_2 1_555 1_555
H2_2 C6_2 1_555 1_555
H3_2 C6_2 1_555 1_555
C7_2 C6_2 1_555 1_555
H4_2 C7_2 1_555 1_555
H5_2 C7_2 1_555 1_555
C8_2 H6_2 1_555 1_555
H7_2 C8_2 1_555 1_555
H8_2 C8_2 1_555 1_555
S1_2 C11_2 1_555 1_555
C9_2 N1_2 1_555 1_555
H9_2 C9_2 1_555 1_555
C10_2 C9_2 1_555 1_555
H10_2 C10_2 1_555 1_555
H11_2 C10_2 1_555 1_555
C11_2 C10_2 1_555 1_555
H12_2 C11_2 1_555 1_555
H13_2 C11_2 1_555 1_555
C12_2 S1_2 1_555 1_555
H14_2 C12_2 1_555 1_555
H15_2 C12_2 1_555 1_555
H16_2 C12_2 1_555 1_555
S2_2 C7_2 1_555 1_555
Au1_2 S1_2 1_555 1_555
Cl1_2 Au1_2 1_555 1_555
O27 C16_2 1_555 1_555
O30 C16_2 1_555 1_555
N10 C15_2 1_555 1_555
C16_2 C17_2 1_555 1_555
C17_2 N10 1_555 1_555
H17_2 C17_2 1_555 1_555
C18_2 C17_2 1_555 1_555
H18_2 C18_2 1_555 1_555
H19_2 C18_2 1_555 1_555
C19_2 C18_2 1_555 1_555
H20_2 C19_2 1_555 1_555
H21_2 C19_2 1_555 1_555
C20_2 H22_2 1_555 1_555
H23_2 C20_2 1_555 1_555
H24_2 C20_2 1_555 1_555
S4_2 C19_2 1_555 1_555
O28 C28_2 1_555 1_555
O31 C28_2 1_555 1_555
N11 C27_2 1_555 1_555
C28_2 C29_2 1_555 1_555
C29_2 N11 1_555 1_555
H33_2 C29_2 1_555 1_555
C30_2 C29_2 1_555 1_555
H34_2 C30_2 1_555 1_555
H35_2 C30_2 1_555 1_555
C31_2 C30_2 1_555 1_555
H36_2 C31_2 1_555 1_555
H37_2 C31_2 1_555 1_555
C32_2 H38_2 1_555 1_555
H39_2 C32_2 1_555 1_555
H40_2 C32_2 1_555 1_555
S6_2 C31_2 1_555 1_555
Cu3 O3_2 1_555 1_555
Cu12 O20_2 1_555 1_555
O20_2 Ca4 1_555 1_555
Cu9 O21_2 1_555 1_555
Cu13 O21_2 1_555 1_555
O21_2 Ca4 1_555 1_555
O22 Ca4 1_555 1_555
O24 Cu9 1_555 1_555
O35 Cu3 1_555 1_555
N7 Cu3 1_555 1_555
Ca4 O2_2 1_555 1_555
C1_2 C9_2 1_555 1_555
C2_2 C3_2 1_555 1_555
C8_2 S2_2 1_555 1_555
C20_2 S4_2 1_555 1_555
C32_2 S6_2 1_555 1_555
Cu3 O20_2 1_555 1_555
Cu3 O22 1_555 1_555
O22 C13_2 1_555 1_555
O24 C13_2 1_555 1_555
N7 C14 1_555 1_555
C13_2 C21_2 1_555 1_555
S3_2 C23_2 1_555 1_555
C21_2 N7 1_555 1_555
H25 C21_2 1_555 1_555
C22_2 C21_2 1_555 1_555
H26 C22_2 1_555 1_555
H27_2 C22_2 1_555 1_555
C23_2 C22_2 1_555 1_555
H28_2 C23_2 1_555 1_555
H29_2 C23_2 1_555 1_555
C24_2 S3_2 1_555 1_555
H32_2 C24_2 1_555 1_555
Au2_2 S3_2 1_555 1_555

#END
