
###############################################################################
#
# This file contains modified crystal structure data generated from the
# MOF subset of the Cambridge Structural Database (CSD) v543 
# hosted by the Cambridge Crystallographic Data Centre (CCDC).
#
# This work is licensed under the Creative Commons
# Attribution-NonCommercial-ShareAlike 4.0 International License.
# To view a copy of this license, visit
# http://creativecommons.org/licenses/by-nc-sa/4.0/
# or send a letter to
# Creative Commons, PO Box 1866, Mountain View, CA 94042, USA.
#
# CIF created using the CSD Python API on 29 September 2022
# The structure has been converted into the P1 space group
# The structure has a 3D framework
# The original CSD entry ORIFUS is in the rhombohedral crystal system
# The original CSD entry ORIFUS is in a Sohncke space group
# The framework has been calculated to contain at least 10.0% void space
# The void calculation uses a probe of radius 1.32A, grid spacing 0.4
# H atom positions have been added when not included in the experimental data
#
###############################################################################

data_ORIFUS
_chemical_formula_moiety         '(C189 H117 Eu18 N27 O114)n'
_symmetry_cell_setting           triclinic
_symmetry_space_group_name_H-M   'P 1'
_symmetry_Int_Tables_number      1
_space_group_name_Hall           'P 1'
loop_
_symmetry_equiv_pos_site_id
_symmetry_equiv_pos_as_xyz
1 x,y,z
_cell_length_a                   19.674(5)
_cell_length_b                   19.674(5)
_cell_length_c                   21.910(5)
_cell_angle_alpha                90
_cell_angle_beta                 90
_cell_angle_gamma                120
_cell_volume                     7344.43
loop_
_atom_site_label
_atom_site_type_symbol
_atom_site_fract_x
_atom_site_fract_y
_atom_site_fract_z
C8 C 0.1160(4) 0.4262(4) 0.6618(3)
C9 C 0.1331(4) 0.6921(3) 0.6646(3)
C10 C 0.1054(4) 0.6113(4) 0.6385(3)
C11 C 0.1234(4) 0.5596(4) 0.6654(3)
H4 H 0.1526 0.5727 0.7013
C12 C 0.0966(4) 0.4861(4) 0.6376(3)
C13 C 0.0478(4) 0.4666(4) 0.5862(4)
H5 H 0.0275 0.4167 0.5695
C14 C 0.0620(5) 0.5899(4) 0.5853(4)
H6 H 0.0546 0.6275 0.5655
N2 N 0.0293(4) 0.5170(4) 0.5602(3)
O2 O 0.0136(3) 0.7729(3) 0.5586(3)
O5 O 0.1045(4) 0.3711(3) 0.6290(3)
O6 O 0.1413(4) 0.4371(4) 0.7165(3)
O7 O 0.1622(4) 0.7038(3) 0.7165(3)
O8 O 0.1235(4) 0.7390(3) 0.6325(3)
Eu2 Eu 0.136616(22) 0.270344(15) 0.609423(9)
C15 C 0.1058(6) 0.4612(4) 0.4011(3)
C16 C 0.3538(6) 0.4464(4) 0.4068(4)
C17 C 0.2733(6) 0.4235(4) 0.4290(3)
C18 C 0.2281(6) 0.4494(4) 0.4023(3)
H7 H 0.2448 0.4785 0.3664
C19 C 0.1569(6) 0.4325(4) 0.4286(3)
C20 C 0.1321(6) 0.3856(4) 0.4815(3)
H8 H 0.0840 0.3729 0.4989
C21 C 0.2447(6) 0.3787(4) 0.4810(3)
H9 H 0.2755 0.3609 0.4993
N3 N 0.1754(5) 0.3588(4) 0.5072(3)
O9 O 0.0719(4) 0.1228(3) 0.6012(2)
O10 O 0.0211(4) 0.2206(3) 0.5439(3)
O11 O 0.0544(4) 0.4625(3) 0.4334(3)
O12 O 0.1194(4) 0.4855(3) 0.3468(3)
O13 O 0.3742(4) 0.4805(3) 0.3567(3)
O14 O 0.3956(4) 0.4302(3) 0.4409(2)
Eu4 Eu 0.528784(16) 0.472238(22) 0.456949(9)
Eu5 Eu 0.195451(16) 0.805571(22) 0.790282(9)
Eu6 Eu 0.194429(22) 0.389879(15) 0.790282(9)
O15 O 0.2271(3) 0.2407(4) 0.5586(3)
O20 O 0.2610(3) 0.3845(5) 0.6325(3)
Eu7 Eu 0.133728(27) 0.863384(22) 0.609423(9)
Eu8 Eu 0.062989(15) 0.532939(27) 0.276090(9)
Eu9 Eu 0.467061(27) 0.530051(22) 0.276090(9)
O21 O 0.0328(5) 0.2139(4) 0.6801(3)
O22 O 0.1862(3) 0.2270(5) 0.6900(3)
O23 O 0.0346(5) 0.6044(4) 0.4409(2)
H10 H 0.0298647 0.260426 0.512361
H11 H 0.0117987 0.171468 0.52374
H12 H 0.0321411 0.103849 0.568073
H13 H 0.112218 0.108043 0.591817
Eu1 Eu 0.943454(15) 0.471216(16) 0.456949(9)
C1 C 0.9420(4) 0.7509(4) 0.5583(3)
C2 C 0.6746(4) 0.5211(4) 0.5109(3)
C3 C 0.7621(4) 0.5557(4) 0.5211(3)
C4 C 0.8083(4) 0.6335(4) 0.5379(3)
H1 H 0.7849 0.6632 0.5475
C5 C 0.8874(4) 0.6665(4) 0.5405(3)
C6 C 0.9165(4) 0.6179(4) 0.5266(3)
H2 H 0.9706 0.6397 0.5296
C7 C 0.7974(4) 0.5134(4) 0.5076(3)
H3 H 0.7663 0.4610 0.4965
N1 N 0.8769(4) 0.5446(4) 0.5097(3)
O1 O 0.9129(3) 0.7927(3) 0.5707(3)
O3 O 0.6463(3) 0.5639(4) 0.5130(3)
O4 O 0.6337(3) 0.4483(3) 0.4987(3)
O16 O 0.9176(5) 0.3537(3) 0.5130(3)
O17 O 0.8146(4) 0.3663(3) 0.4987(3)
O18 O 0.8962(4) 0.3709(6) 0.3832(3)
O19 O 0.8749(5) 0.5045(4) 0.3832(3)
Eu4_2 Eu 0.527762(22) 0.056546(27) 0.456949(9)
H13_2 H 0.891957 0.00417521 0.591817
C1_2 C 0.2491(4) 0.1911(6) 0.5583(3)
C2_2 C 0.4789(4) 0.1535(6) 0.5109(3)
C3_2 C 0.4443(4) 0.2064(6) 0.5211(3)
C4_2 C 0.3665(4) 0.1748(6) 0.5379(3)
H1_2 H 0.3368 0.1217 0.5475
C5_2 C 0.3335(4) 0.2209(6) 0.5405(3)
C6_2 C 0.3821(4) 0.2986(6) 0.5266(3)
H2_2 H 0.3603 0.3309 0.5296
C7_2 C 0.4866(4) 0.2840(6) 0.5076(3)
H3_2 H 0.5390 0.3053 0.4965
C8_2 C 0.5738(4) 0.6898(6) 0.6618(3)
C9_2 C 0.3079(3) 0.4410(5) 0.6646(3)
C10_2 C 0.3887(4) 0.4941(6) 0.6385(3)
C11_2 C 0.4404(4) 0.5638(6) 0.6654(3)
H4_2 H 0.4273 0.5799 0.7013
C12_2 C 0.5139(4) 0.6105(6) 0.6376(3)
C13_2 C 0.5334(4) 0.5812(6) 0.5862(4)
H5_2 H 0.5833 0.6108 0.5695
C14_2 C 0.4101(4) 0.4721(6) 0.5853(4)
H6_2 H 0.3725 0.4271 0.5655
N1_2 N 0.4554(4) 0.3323(6) 0.5097(3)
N2_2 N 0.4830(4) 0.5123(6) 0.5602(3)
O1_2 O 0.2073(3) 0.1202(4) 0.5707(3)
O3_2 O 0.4361(4) 0.0824(5) 0.5130(3)
O4_2 O 0.5517(3) 0.1854(4) 0.4987(3)
O5_2 O 0.6289(3) 0.7334(5) 0.6290(3)
O6_2 O 0.5629(4) 0.7042(6) 0.7165(3)
O7_2 O 0.2962(3) 0.4584(5) 0.7165(3)
Eu2_2 Eu 0.729656(15) 0.866272(27) 0.609423(9)
C15_2 C 0.5388(4) 0.6446(7) 0.4011(3)
C16_2 C 0.5536(4) 0.9074(7) 0.4068(4)
C17_2 C 0.5765(4) 0.8498(7) 0.4290(3)
C18_2 C 0.5506(4) 0.7787(7) 0.4023(3)
H7_2 H 0.5215 0.7663 0.3664
C19_2 C 0.5675(4) 0.7244(7) 0.4286(3)
C20_2 C 0.6144(4) 0.7465(7) 0.4815(3)
H8_2 H 0.6271 0.7111 0.4989
C21_2 C 0.6213(4) 0.8660(7) 0.4810(3)
H9_2 H 0.6391 0.9146 0.4993
N3_2 N 0.6412(4) 0.8166(6) 0.5072(3)
O9_2 O 0.8772(3) 0.9491(5) 0.6012(2)
O10_2 O 0.7794(3) 0.8005(5) 0.5439(3)
O11_2 O 0.5375(3) 0.5919(5) 0.4334(3)
O12_2 O 0.5145(3) 0.6339(5) 0.3468(3)
O13_2 O 0.5195(3) 0.8937(5) 0.3567(3)
O14_2 O 0.5698(3) 0.9654(5) 0.4409(2)
Eu6_2 Eu 0.610121(15) 0.804549(27) 0.790282(9)
O15_2 O 0.7593(4) 0.9864(5) 0.5586(3)
O18_2 O 0.6291(6) 0.5254(7) 0.3832(3)
O19_2 O 0.4955(4) 0.3705(6) 0.3832(3)
O20_2 O 0.6155(5) 0.8765(6) 0.6325(3)
Eu9_2 Eu 0.469949(22) 0.937011(35) 0.276090(9)
O21_2 O 0.7861(4) 0.8188(6) 0.6801(3)
O22_2 O 0.7730(5) 0.9591(6) 0.6900(3)
H10_2 H 0.739574 0.769439 0.512361
H11_2 H 0.828532 0.84033 0.52374
H12_2 H 0.896151 0.928292 0.568073
C1_3 C 0.8089(6) 0.0580(4) 0.5583(3)
C2_3 C 0.8465(6) 0.3254(4) 0.5109(3)
C3_3 C 0.7936(6) 0.2379(4) 0.5211(3)
C4_3 C 0.8252(6) 0.1917(4) 0.5379(3)
H1_3 H 0.8783 0.2151 0.5475
C5_3 C 0.7791(6) 0.1126(4) 0.5405(3)
C6_3 C 0.7014(6) 0.0835(4) 0.5266(3)
H2_3 H 0.6691 0.0294 0.5296
C7_3 C 0.7160(6) 0.2026(4) 0.5076(3)
H3_3 H 0.6947 0.2337 0.4965
N1_3 N 0.6677(6) 0.1231(4) 0.5097(3)
O1_3 O 0.8798(4) 0.0871(3) 0.5707(3)
O18_3 O 0.4746(7) 0.1038(4) 0.3832(3)
O19_3 O 0.6295(6) 0.1251(5) 0.3832(3)
C8_3 C 0.3102(6) 0.8840(4) 0.6618(3)
C9_3 C 0.5590(5) 0.8669(4) 0.6646(3)
C10_3 C 0.5059(6) 0.8946(4) 0.6385(3)
C11_3 C 0.4362(6) 0.8766(4) 0.6654(3)
H4_3 H 0.4201 0.8474 0.7013
C12_3 C 0.3895(6) 0.9034(4) 0.6376(3)
C13_3 C 0.4188(6) 0.9522(4) 0.5862(4)
H5_3 H 0.3892 0.9725 0.5695
C14_3 C 0.5279(6) 0.9380(5) 0.5853(4)
H6_3 H 0.5729 0.9454 0.5655
N2_3 N 0.4877(6) 0.9707(4) 0.5602(3)
O5_3 O 0.2666(5) 0.8955(4) 0.6290(3)
O6_3 O 0.2958(6) 0.8587(4) 0.7165(3)
O7_3 O 0.5416(5) 0.8378(4) 0.7165(3)
C15_3 C 0.3554(7) 0.8942(6) 0.4011(3)
C16_3 C 0.0926(7) 0.6462(6) 0.4068(4)
C17_3 C 0.1502(7) 0.7267(6) 0.4290(3)
C18_3 C 0.2213(7) 0.7719(6) 0.4023(3)
H7_3 H 0.2337 0.7552 0.3664
C19_3 C 0.2756(7) 0.8431(6) 0.4286(3)
C20_3 C 0.2535(7) 0.8679(6) 0.4815(3)
H8_3 H 0.2889 0.9160 0.4989
C21_3 C 0.1340(7) 0.7553(6) 0.4810(3)
H9_3 H 0.0854 0.7245 0.4993
N3_3 N 0.1834(6) 0.8246(5) 0.5072(3)
O9_3 O 0.0509(5) 0.9281(4) 0.6012(2)
O10_3 O 0.1995(5) 0.9789(4) 0.5439(3)
O11_3 O 0.4081(5) 0.9456(4) 0.4334(3)
O12_3 O 0.3661(5) 0.8806(4) 0.3468(3)
O13_3 O 0.1063(5) 0.6258(4) 0.3567(3)
O21_3 O 0.1812(6) 0.9672(5) 0.6801(3)
O22_3 O 0.0409(6) 0.8138(3) 0.6900(3)
H10_3 H 0.230561 0.970135 0.512361
H11_3 H 0.15967 0.988201 0.52374
H12_3 H 0.0717083 0.967859 0.568073
H13_3 H 0.995825 0.887782 0.591817
C16_4 C 0.0205(6) 0.7797(4) 0.7401(4)
O14_3 O 0.0623(4) 0.7635(3) 0.7742(2)
O7_4 O 0.8289(4) 0.0371(3) 0.0498(3)
Eu5_2 Eu 0.862117(16) 0.138905(22) 0.123616(9)
C1_4 C 0.6087(4) 0.0842(4) 0.8916(3)
C9_4 C 0.7998(4) 0.0254(3) 0.9979(3)
O1_4 O 0.5796(3) 0.1260(3) 0.9040(3)
O2_2 O 0.6803(3) 0.1062(3) 0.8919(3)
O8_2 O 0.7902(4) 0.0723(3) 0.9658(3)
Eu7_2 Eu 0.800395(27) 0.196717(22) 0.942756(9)
H4_4 H 0.8193 0.9060 0.0346
O6_4 O 0.8080(4) 0.7704(4) 0.0498(3)
Eu6_3 Eu 0.861095(22) 0.723213(15) 0.123616(9)
O21_4 O 0.6994(5) 0.5473(4) 0.0135(3)
O22_4 O 0.8528(3) 0.5604(5) 0.0234(3)
C2_4 C 0.3413(4) 0.8544(4) 0.8442(3)
C3_4 C 0.4288(4) 0.8890(4) 0.8544(3)
C4_4 C 0.4750(4) 0.9668(4) 0.8712(3)
H1_4 H 0.4516 0.9965 0.8808
C5_4 C 0.5541(4) 0.9998(4) 0.8738(3)
C6_4 C 0.5832(4) 0.9512(4) 0.8599(3)
H2_4 H 0.6373 0.9730 0.8629
C7_4 C 0.4641(4) 0.8467(4) 0.8409(3)
H3_4 H 0.4330 0.7943 0.8298
C8_4 C 0.7827(4) 0.7595(4) 0.9951(3)
C10_4 C 0.7721(4) 0.9446(4) 0.9718(3)
C11_4 C 0.7901(4) 0.8929(4) 0.9987(3)
C12_4 C 0.7633(4) 0.8194(4) 0.9709(3)
C13_4 C 0.7145(4) 0.7999(4) 0.9195(4)
H5_4 H 0.6942 0.7500 0.9028
C14_4 C 0.7287(5) 0.9232(4) 0.9186(4)
H6_4 H 0.7213 0.9608 0.8988
N1_4 N 0.5436(4) 0.8779(4) 0.8430(3)
N2_4 N 0.6960(4) 0.8503(4) 0.8935(3)
O3_3 O 0.3130(3) 0.8972(4) 0.8463(3)
O4_3 O 0.3004(3) 0.7816(3) 0.8320(3)
O5_4 O 0.7712(4) 0.7044(3) 0.9623(3)
Eu2_3 Eu 0.803283(22) 0.603677(15) 0.942756(9)
C15_4 C 0.7725(6) 0.7945(4) 0.7344(3)
C17_4 C 0.9400(6) 0.7568(4) 0.7623(3)
C18_4 C 0.8948(6) 0.7827(4) 0.7356(3)
H7_4 H 0.9115 0.8118 0.6997
C19_4 C 0.8236(6) 0.7658(4) 0.7619(3)
C20_4 C 0.7988(6) 0.7189(4) 0.8148(3)
H8_4 H 0.7507 0.7062 0.8322
C21_4 C 0.9114(6) 0.7120(4) 0.8143(3)
H9_4 H 0.9422 0.6942 0.8326
N3_4 N 0.8421(5) 0.6921(4) 0.8405(3)
O9_4 O 0.7386(4) 0.4561(3) 0.9345(2)
O10_4 O 0.6878(4) 0.5539(3) 0.8772(3)
O11_4 O 0.7211(4) 0.7958(3) 0.7667(3)
O15_3 O 0.8938(3) 0.5740(4) 0.8919(3)
O16_2 O 0.5843(5) 0.6870(3) 0.8463(3)
O17_2 O 0.4813(4) 0.6996(3) 0.8320(3)
O20_3 O 0.9277(3) 0.7178(5) 0.9658(3)
O23_2 O 0.7013(5) 0.9377(4) 0.7742(2)
H10_4 H 0.696531 0.593759 0.845695
H11_4 H 0.678465 0.504802 0.857073
H12_4 H 0.698808 0.437183 0.901406
H13_4 H 0.778885 0.441376 0.92515
O6_5 O 0.2296(4) 0.0375(6) 0.0498(3)
Eu6_4 Eu 0.276787(15) 0.137883(27) 0.123616(9)
O21_5 O 0.4527(4) 0.1522(6) 0.0135(3)
O22_5 O 0.4396(5) 0.2925(6) 0.0234(3)
C8_5 C 0.2405(4) 0.0231(6) 0.9951(3)
O5_5 O 0.2956(3) 0.0667(5) 0.9623(3)
Eu2_4 Eu 0.396323(15) 0.199605(27) 0.942756(9)
C16_5 C 0.2203(4) 0.2407(7) 0.7401(4)
C17_5 C 0.2432(4) 0.1831(7) 0.7623(3)
C18_5 C 0.2173(4) 0.1120(7) 0.7356(3)
H7_5 H 0.1882 0.0996 0.6997
C19_5 C 0.2342(4) 0.0577(7) 0.7619(3)
C20_5 C 0.2811(4) 0.0798(7) 0.8148(3)
H8_5 H 0.2938 0.0444 0.8322
C21_5 C 0.2880(4) 0.1993(7) 0.8143(3)
H9_5 H 0.3058 0.2479 0.8326
N3_5 N 0.3079(4) 0.1499(6) 0.8405(3)
O9_5 O 0.5439(3) 0.2824(5) 0.9345(2)
O10_5 O 0.4461(3) 0.1338(5) 0.8772(3)
O14_4 O 0.2365(3) 0.2987(5) 0.7742(2)
O15_4 O 0.4260(4) 0.3197(5) 0.8919(3)
O20_4 O 0.2822(5) 0.2098(6) 0.9658(3)
H10_5 H 0.406241 0.102772 0.845695
H11_5 H 0.495198 0.173664 0.857073
H12_5 H 0.562817 0.261625 0.901406
H13_5 H 0.558624 0.337509 0.92515
C2_5 C 0.1456(4) 0.4868(6) 0.8442(3)
C3_5 C 0.1110(4) 0.5397(6) 0.8544(3)
C4_5 C 0.0332(4) 0.5081(6) 0.8712(3)
H1_5 H 0.0035 0.4550 0.8808
C5_5 C 0.0002(4) 0.5542(6) 0.8738(3)
C6_5 C 0.0488(4) 0.6319(6) 0.8599(3)
H2_5 H 0.0270 0.6642 0.8629
C7_5 C 0.1533(4) 0.6173(6) 0.8409(3)
H3_5 H 0.2057 0.6386 0.8298
C10_5 C 0.0554(4) 0.8274(6) 0.9718(3)
C11_5 C 0.1071(4) 0.8971(6) 0.9987(3)
C12_5 C 0.1806(4) 0.9438(6) 0.9709(3)
C13_5 C 0.2001(4) 0.9145(6) 0.9195(4)
H5_5 H 0.2500 0.9441 0.9028
C14_5 C 0.0768(4) 0.8054(6) 0.9186(4)
H6_5 H 0.0392 0.7604 0.8988
N1_5 N 0.1221(4) 0.6656(6) 0.8430(3)
N2_5 N 0.1497(4) 0.8456(6) 0.8935(3)
O3_4 O 0.1028(4) 0.4157(5) 0.8463(3)
O4_4 O 0.2184(3) 0.5187(4) 0.8320(3)
C15_5 C 0.2055(4) 0.9779(7) 0.7344(3)
O11_5 O 0.2042(3) 0.9252(5) 0.7667(3)
O7_5 O 0.9629(3) 0.7917(5) 0.0498(3)
C1_5 C 0.9158(4) 0.5244(6) 0.8916(3)
C9_5 C 0.9746(3) 0.7743(5) 0.9979(3)
O1_5 O 0.8740(3) 0.4535(4) 0.9040(3)
H4_5 H 0.0868 0.1807 0.0346
O7_6 O 0.2083(5) 0.1711(4) 0.0498(3)
C1_6 C 0.4756(6) 0.3913(4) 0.8916(3)
C2_6 C 0.5132(6) 0.6587(4) 0.8442(3)
C3_6 C 0.4603(6) 0.5712(4) 0.8544(3)
C4_6 C 0.4919(6) 0.5250(4) 0.8712(3)
H1_6 H 0.5450 0.5484 0.8808
C5_6 C 0.4458(6) 0.4459(4) 0.8738(3)
C6_6 C 0.3681(6) 0.4168(4) 0.8599(3)
H2_6 H 0.3358 0.3627 0.8629
C7_6 C 0.3827(6) 0.5359(4) 0.8409(3)
H3_6 H 0.3614 0.5670 0.8298
C9_6 C 0.2257(5) 0.2002(4) 0.9979(3)
C10_6 C 0.1726(6) 0.2279(4) 0.9718(3)
C11_6 C 0.1029(6) 0.2099(4) 0.9987(3)
C12_6 C 0.0562(6) 0.2367(4) 0.9709(3)
C13_6 C 0.0855(6) 0.2855(4) 0.9195(4)
H5_6 H 0.0559 0.3058 0.9028
C14_6 C 0.1946(6) 0.2713(5) 0.9186(4)
H6_6 H 0.2396 0.2787 0.8988
N1_6 N 0.3344(6) 0.4564(4) 0.8430(3)
N2_6 N 0.1544(6) 0.3040(4) 0.8935(3)
O1_6 O 0.5465(4) 0.4204(3) 0.9040(3)
C15_6 C 0.0221(7) 0.2275(6) 0.7344(3)
O11_6 O 0.0748(5) 0.2789(4) 0.7667(3)
O6_6 O 0.9625(6) 0.1920(4) 0.0498(3)
O21_6 O 0.8478(6) 0.3006(5) 0.0135(3)
O22_6 O 0.7075(6) 0.1472(3) 0.0234(3)
C8_6 C 0.9769(6) 0.2173(4) 0.9951(3)
O5_6 O 0.9333(5) 0.2288(4) 0.9623(3)
C17_6 C 0.8169(7) 0.0600(6) 0.7623(3)
C18_6 C 0.8880(7) 0.1052(6) 0.7356(3)
H7_6 H 0.9004 0.0885 0.6997
C19_6 C 0.9423(7) 0.1764(6) 0.7619(3)
C20_6 C 0.9202(7) 0.2012(6) 0.8148(3)
H8_6 H 0.9556 0.2493 0.8322
C21_6 C 0.8007(7) 0.0886(6) 0.8143(3)
H9_6 H 0.7521 0.0578 0.8326
N3_6 N 0.8501(6) 0.1579(5) 0.8405(3)
O9_6 O 0.7176(5) 0.2614(4) 0.9345(2)
O10_6 O 0.8662(5) 0.3122(4) 0.8772(3)
H10_6 H 0.897228 0.303469 0.845695
H11_6 H 0.826336 0.321535 0.857073
H12_6 H 0.738375 0.301192 0.901406
H13_6 H 0.662491 0.221115 0.92515
C16_6 C 0.7593(7) 0.9795(6) 0.7401(4)
C1_7 C 0.2753(4) 0.4176(4) 0.2250(3)
C2_7 C 0.0079(4) 0.1878(4) 0.1776(3)
C3_7 C 0.0954(4) 0.2224(4) 0.1878(3)
C4_7 C 0.1416(4) 0.3002(4) 0.2046(3)
H1_7 H 0.1182 0.3299 0.2142
C5_7 C 0.2207(4) 0.3332(4) 0.2072(3)
C6_7 C 0.2498(4) 0.2846(4) 0.1933(3)
H2_7 H 0.3039 0.3064 0.1963
C7_7 C 0.1307(4) 0.1801(4) 0.1743(3)
H3_7 H 0.0996 0.1277 0.1632
C8_7 C 0.4493(4) 0.0929(4) 0.3285(3)
C9_7 C 0.4664(4) 0.3588(3) 0.3313(3)
C10_7 C 0.4387(4) 0.2780(4) 0.3052(3)
C11_7 C 0.4567(4) 0.2263(4) 0.3321(3)
H4_6 H 0.4859 0.2394 0.3680
C12_7 C 0.4299(4) 0.1528(4) 0.3043(3)
C13_7 C 0.3811(4) 0.1333(4) 0.2529(4)
H5_7 H 0.3608 0.0834 0.2362
C14_7 C 0.3953(5) 0.2566(4) 0.2520(4)
H6_7 H 0.3879 0.2942 0.2322
N1_7 N 0.2102(4) 0.2113(4) 0.1764(3)
N2_7 N 0.3626(4) 0.1837(4) 0.2269(3)
O1_7 O 0.2462(3) 0.4594(3) 0.2374(3)
O2_3 O 0.3469(3) 0.4396(3) 0.2253(3)
O5_7 O 0.4378(4) 0.0378(3) 0.2957(3)
O8_3 O 0.4568(4) 0.4057(3) 0.2992(3)
C15_7 C 0.4391(6) 0.1279(4) 0.0678(3)
C16_7 C 0.6871(6) 0.1131(4) 0.0735(4)
C17_7 C 0.6066(6) 0.0902(4) 0.0957(3)
C18_7 C 0.5614(6) 0.1161(4) 0.0690(3)
H7_7 H 0.5781 0.1452 0.0331
C19_7 C 0.4902(6) 0.0992(4) 0.0953(3)
C20_7 C 0.4654(6) 0.0523(4) 0.1482(3)
H8_7 H 0.4173 0.0396 0.1656
C21_7 C 0.5780(6) 0.0454(4) 0.1477(3)
H9_7 H 0.6088 0.0276 0.1660
N3_7 N 0.5087(5) 0.0255(4) 0.1739(3)
O11_7 O 0.3877(4) 0.1292(3) 0.1001(3)
O14_5 O 0.7289(4) 0.0969(3) 0.1076(2)
O16_3 O 0.2509(5) 0.0204(3) 0.1797(3)
O17_3 O 0.1479(4) 0.0330(3) 0.1654(3)
O20_5 O 0.5943(3) 0.0512(5) 0.2992(3)
O23_3 O 0.3679(5) 0.2711(4) 0.1076(2)
O9_7 O 0.4052(4) 0.7895(3) 0.2679(2)
O10_7 O 0.3544(4) 0.8873(3) 0.2106(3)
O15_5 O 0.5604(3) 0.9074(4) 0.2253(3)
H10_7 H 0.363198 0.927093 0.179028
H11_7 H 0.345132 0.838135 0.190407
H12_7 H 0.365474 0.770516 0.234739
H13_7 H 0.445551 0.774709 0.258483
O3_5 O 0.9796(3) 0.2306(4) 0.1797(3)
O4_5 O 0.9670(3) 0.1150(3) 0.1654(3)
O9_8 O 0.2105(3) 0.6158(5) 0.2679(2)
O10_8 O 0.1127(3) 0.4672(5) 0.2106(3)
O15_6 O 0.0926(4) 0.6531(5) 0.2253(3)
H10_8 H 0.0729073 0.436105 0.179028
H11_8 H 0.161865 0.506997 0.190407
H12_8 H 0.229484 0.594958 0.234739
H13_8 H 0.225291 0.670842 0.258483
C8_8 C 0.9071(4) 0.3565(6) 0.3285(3)
C9_8 C 0.6412(3) 0.1077(5) 0.3313(3)
C10_8 C 0.7220(4) 0.1608(6) 0.3052(3)
C11_8 C 0.7737(4) 0.2305(6) 0.3321(3)
H4_7 H 0.7606 0.2466 0.3680
C12_8 C 0.8472(4) 0.2772(6) 0.3043(3)
C13_8 C 0.8667(4) 0.2479(6) 0.2529(4)
H5_8 H 0.9166 0.2775 0.2362
C14_8 C 0.7434(4) 0.1388(6) 0.2520(4)
H6_8 H 0.7058 0.0938 0.2322
N2_8 N 0.8163(4) 0.1790(6) 0.2269(3)
O5_8 O 0.9622(3) 0.4001(5) 0.2957(3)
C15_8 C 0.8721(4) 0.3113(7) 0.0678(3)
C16_8 C 0.8869(4) 0.5741(7) 0.0735(4)
C17_8 C 0.9098(4) 0.5165(7) 0.0957(3)
C18_8 C 0.8839(4) 0.4454(7) 0.0690(3)
H7_8 H 0.8548 0.4330 0.0331
C19_8 C 0.9008(4) 0.3911(7) 0.0953(3)
C20_8 C 0.9477(4) 0.4132(7) 0.1482(3)
H8_8 H 0.9604 0.3778 0.1656
C21_8 C 0.9546(4) 0.5327(7) 0.1477(3)
H9_8 H 0.9724 0.5813 0.1660
N3_8 N 0.9745(4) 0.4833(6) 0.1739(3)
O11_8 O 0.8708(3) 0.2586(5) 0.1001(3)
O14_6 O 0.9031(3) 0.6321(5) 0.1076(2)
O20_6 O 0.9488(5) 0.5432(6) 0.2992(3)
C1_8 C 0.5824(4) 0.8578(6) 0.2250(3)
C2_8 C 0.8122(4) 0.8202(6) 0.1776(3)
C3_8 C 0.7776(4) 0.8731(6) 0.1878(3)
C4_8 C 0.6998(4) 0.8415(6) 0.2046(3)
H1_8 H 0.6701 0.7884 0.2142
C5_8 C 0.6668(4) 0.8876(6) 0.2072(3)
C6_8 C 0.7154(4) 0.9653(6) 0.1933(3)
H2_8 H 0.6936 0.9976 0.1963
C7_8 C 0.8199(4) 0.9507(6) 0.1743(3)
H3_8 H 0.8723 0.9720 0.1632
N1_8 N 0.7887(4) 0.9990(6) 0.1764(3)
O1_8 O 0.5406(3) 0.7869(4) 0.2374(3)
O3_6 O 0.7694(4) 0.7491(5) 0.1797(3)
O4_6 O 0.8850(3) 0.8521(4) 0.1654(3)
C1_9 C 0.1422(6) 0.7247(4) 0.2250(3)
C2_9 C 0.1798(6) 0.9921(4) 0.1776(3)
C3_9 C 0.1269(6) 0.9046(4) 0.1878(3)
C4_9 C 0.1585(6) 0.8584(4) 0.2046(3)
H1_9 H 0.2116 0.8818 0.2142
C5_9 C 0.1124(6) 0.7793(4) 0.2072(3)
C6_9 C 0.0347(6) 0.7502(4) 0.1933(3)
H2_9 H 0.0024 0.6961 0.1963
C7_9 C 0.0493(6) 0.8693(4) 0.1743(3)
H3_9 H 0.0280 0.9004 0.1632
N1_9 N 0.0010(6) 0.7898(4) 0.1764(3)
O1_9 O 0.2131(4) 0.7538(3) 0.2374(3)
C8_9 C 0.6435(6) 0.5507(4) 0.3285(3)
C9_9 C 0.8923(5) 0.5336(4) 0.3313(3)
C10_9 C 0.8392(6) 0.5613(4) 0.3052(3)
C11_9 C 0.7695(6) 0.5433(4) 0.3321(3)
H4_8 H 0.7534 0.5141 0.3680
C12_9 C 0.7228(6) 0.5701(4) 0.3043(3)
C13_9 C 0.7521(6) 0.6189(4) 0.2529(4)
H5_9 H 0.7225 0.6392 0.2362
C14_9 C 0.8612(6) 0.6047(5) 0.2520(4)
H6_9 H 0.9062 0.6121 0.2322
N2_9 N 0.8210(6) 0.6374(4) 0.2269(3)
O5_9 O 0.5999(5) 0.5622(4) 0.2957(3)
C15_9 C 0.6887(7) 0.5609(6) 0.0678(3)
C16_9 C 0.4259(7) 0.3129(6) 0.0735(4)
C17_9 C 0.4835(7) 0.3934(6) 0.0957(3)
C18_9 C 0.5546(7) 0.4386(6) 0.0690(3)
H7_9 H 0.5670 0.4219 0.0331
C19_9 C 0.6089(7) 0.5098(6) 0.0953(3)
C20_9 C 0.5868(7) 0.5346(6) 0.1482(3)
H8_9 H 0.6222 0.5827 0.1656
C21_9 C 0.4673(7) 0.4220(6) 0.1477(3)
H9_9 H 0.4187 0.3912 0.1660
N3_9 N 0.5167(6) 0.4913(5) 0.1739(3)
O9_9 O 0.3842(5) 0.5948(4) 0.2679(2)
O10_9 O 0.5328(5) 0.6456(4) 0.2106(3)
O11_9 O 0.7414(5) 0.6123(4) 0.1001(3)
H10_9 H 0.563895 0.636802 0.179028
H11_9 H 0.493003 0.654868 0.190407
H12_9 H 0.405042 0.634526 0.234739
H13_9 H 0.329158 0.554449 0.258483
H4_9 H 0.0940 0.9132 0.0346
loop_
_geom_bond_atom_site_label_1
_geom_bond_atom_site_label_2
_geom_bond_site_symmetry_1
_geom_bond_site_symmetry_2
C8 C12 1_555 1_555
C9 C10 1_555 1_555
C10 C11 1_555 1_555
C11 H4 1_555 1_555
C12 C11 1_555 1_555
C13 C12 1_555 1_555
H5 C13 1_555 1_555
C14 C10 1_555 1_555
H6 C14 1_555 1_555
O5 C8 1_555 1_555
O6 C8 1_555 1_555
O7 C9 1_555 1_555
O8 C9 1_555 1_555
Eu2 O5 1_555 1_555
C15 C19 1_555 1_555
C16 C17 1_555 1_555
C17 C18 1_555 1_555
C18 H7 1_555 1_555
C19 C18 1_555 1_555
C20 C19 1_555 1_555
H8 C20 1_555 1_555
C21 C17 1_555 1_555
H9 C21 1_555 1_555
N3 Eu2 1_555 1_555
O9 Eu2 1_555 1_555
O10 Eu2 1_555 1_555
O12 C15 1_555 1_555
O13 C16 1_555 1_555
O14 C16 1_555 1_555
Eu4 O14 1_555 1_555
Eu5 O7 1_555 1_555
Eu6 O6 1_555 1_555
O15 Eu2 1_555 1_555
O20 Eu2 1_555 1_555
Eu7 O2 1_555 1_555
Eu8 O12 1_555 1_555
Eu9 O13 1_555 1_555
O21 Eu2 1_555 1_555
O22 Eu2 1_555 1_555
C13 N2 1_555 1_555
C14 N2 1_555 1_555
O8 Eu7 1_555 1_555
C15 O11 1_555 1_555
C20 N3 1_555 1_555
C21 N3 1_555 1_555
O10 H10 1_555 1_555
O10 H11 1_555 1_555
O9 H12 1_555 1_555
O9 H13 1_555 1_555
Eu1 N1 1_555 1_555
C1 C5 1_555 1_555
C2 C3 1_555 1_555
C3 C4 1_555 1_555
C4 H1 1_555 1_555
C5 C4 1_555 1_555
C6 C5 1_555 1_555
H2 C6 1_555 1_555
C7 C3 1_555 1_555
H3 C7 1_555 1_555
N1 C6 1_555 1_555
O1 C1 1_555 1_555
O3 C2 1_555 1_555
O4 C2 1_555 1_555
Eu4 O3 1_555 1_555
O16 Eu1 1_555 1_555
O17 Eu1 1_555 1_555
O18 Eu1 1_555 1_555
O19 Eu1 1_555 1_555
C7 N1 1_555 1_555
O4 Eu4 1_555 1_555
Eu4 N1_2 1_555 1_555
C1_2 C5_2 1_555 1_555
C2_2 C3_2 1_555 1_555
C3_2 C4_2 1_555 1_555
C4_2 H1_2 1_555 1_555
C5_2 C4_2 1_555 1_555
C6_2 C5_2 1_555 1_555
H2_2 C6_2 1_555 1_555
C7_2 C3_2 1_555 1_555
H3_2 C7_2 1_555 1_555
C8_2 C12_2 1_555 1_555
C9_2 C10_2 1_555 1_555
C10_2 C11_2 1_555 1_555
C11_2 H4_2 1_555 1_555
C12_2 C11_2 1_555 1_555
C13_2 C12_2 1_555 1_555
H5_2 C13_2 1_555 1_555
C14_2 C10_2 1_555 1_555
H6_2 C14_2 1_555 1_555
N1_2 C6_2 1_555 1_555
N2_2 Eu4 1_555 1_555
O1_2 C1_2 1_555 1_555
O15 C1_2 1_555 1_555
O3_2 C2_2 1_555 1_555
O4_2 C2_2 1_555 1_555
O5_2 C8_2 1_555 1_555
O6_2 C8_2 1_555 1_555
O7_2 C9_2 1_555 1_555
O20 C9_2 1_555 1_555
Eu2_2 O5_2 1_555 1_555
C15_2 C19_2 1_555 1_555
C16_2 C17_2 1_555 1_555
C17_2 C18_2 1_555 1_555
C18_2 H7_2 1_555 1_555
C19_2 C18_2 1_555 1_555
C20_2 C19_2 1_555 1_555
H8_2 C20_2 1_555 1_555
C21_2 C17_2 1_555 1_555
H9_2 C21_2 1_555 1_555
N3_2 Eu2_2 1_555 1_555
O9_2 Eu2_2 1_555 1_555
O10_2 Eu2_2 1_555 1_555
O11_2 Eu4 1_555 1_555
O12_2 C15_2 1_555 1_555
O13_2 C16_2 1_555 1_555
O14_2 C16_2 1_555 1_555
Eu4_2 O3_2 1_555 1_555
Eu6 O7_2 1_555 1_555
Eu6_2 O6_2 1_555 1_555
O15_2 Eu2_2 1_555 1_555
O18_2 Eu4 1_555 1_555
O19_2 Eu4 1_555 1_555
O20_2 Eu2_2 1_555 1_555
Eu9 O12_2 1_555 1_555
Eu9_2 O13_2 1_555 1_555
O21_2 Eu2_2 1_555 1_555
O22_2 Eu2_2 1_555 1_555
C7_2 N1_2 1_555 1_555
C13_2 N2_2 1_555 1_555
C14_2 N2_2 1_555 1_555
O4_2 Eu4_2 1_555 1_555
C15_2 O11_2 1_555 1_555
C20_2 N3_2 1_555 1_555
C21_2 N3_2 1_555 1_555
O10_2 H10_2 1_555 1_555
O10_2 H11_2 1_555 1_555
O9_2 H12_2 1_555 1_555
Eu4_2 N1_3 1_555 1_555
C1_3 C5_3 1_555 1_555
C2_3 C3_3 1_555 1_555
C3_3 C4_3 1_555 1_555
C4_3 H1_3 1_555 1_555
C5_3 C4_3 1_555 1_555
C6_3 C5_3 1_555 1_555
H2_3 C6_3 1_555 1_555
C7_3 C3_3 1_555 1_555
H3_3 C7_3 1_555 1_555
N1_3 C6_3 1_555 1_555
O1_3 C1_3 1_555 1_555
O16 C2_3 1_555 1_555
O17 C2_3 1_555 1_555
O18_3 Eu4_2 1_555 1_555
O19_3 Eu4_2 1_555 1_555
C7_3 N1_3 1_555 1_555
C8_3 C12_3 1_555 1_555
C9_3 C10_3 1_555 1_555
C10_3 C11_3 1_555 1_555
C11_3 H4_3 1_555 1_555
C12_3 C11_3 1_555 1_555
C13_3 C12_3 1_555 1_555
H5_3 C13_3 1_555 1_555
C14_3 C10_3 1_555 1_555
H6_3 C14_3 1_555 1_555
O5_3 C8_3 1_555 1_555
O6_3 C8_3 1_555 1_555
O7_3 C9_3 1_555 1_555
O20_2 C9_3 1_555 1_555
Eu7 O5_3 1_555 1_555
C15_3 C19_3 1_555 1_555
C16_3 C17_3 1_555 1_555
C17_3 C18_3 1_555 1_555
C18_3 H7_3 1_555 1_555
C19_3 C18_3 1_555 1_555
C20_3 C19_3 1_555 1_555
H8_3 C20_3 1_555 1_555
C21_3 C17_3 1_555 1_555
H9_3 C21_3 1_555 1_555
N3_3 Eu7 1_555 1_555
O9_3 Eu7 1_555 1_555
O10_3 Eu7 1_555 1_555
O12_3 C15_3 1_555 1_555
O13_3 C16_3 1_555 1_555
O23 C16_3 1_555 1_555
Eu6_2 O7_3 1_555 1_555
Eu5 O6_3 1_555 1_555
Eu9_2 O12_3 1_555 1_555
Eu8 O13_3 1_555 1_555
O21_3 Eu7 1_555 1_555
O22_3 Eu7 1_555 1_555
C13_3 N2_3 1_555 1_555
C14_3 N2_3 1_555 1_555
C15_3 O11_3 1_555 1_555
C20_3 N3_3 1_555 1_555
C21_3 N3_3 1_555 1_555
O10_3 H10_3 1_555 1_555
O10_3 H11_3 1_555 1_555
O9_3 H12_3 1_555 1_555
O22_3 C16_4 1_555 1_555
O14_3 C16_4 1_555 1_555
Eu5 O14_3 1_555 1_555
Eu5_2 O7_4 1_555 1_555
O1_4 C1_4 1_555 1_555
O2_2 C1_4 1_555 1_555
O8_2 C9_4 1_555 1_555
Eu7_2 O2_2 1_555 1_555
O8_2 Eu7_2 1_555 1_555
Eu6_3 O6_4 1_555 1_555
Eu6_2 N1_4 1_555 1_555
C2_4 C3_4 1_555 1_555
C3_4 C4_4 1_555 1_555
C4_4 H1_4 1_555 1_555
C5_4 C4_4 1_555 1_555
C6_4 C5_4 1_555 1_555
H2_4 C6_4 1_555 1_555
C7_4 C3_4 1_555 1_555
H3_4 C7_4 1_555 1_555
C8_4 C12_4 1_555 1_555
C10_4 C11_4 1_555 1_555
C12_4 C11_4 1_555 1_555
C13_4 C12_4 1_555 1_555
H5_4 C13_4 1_555 1_555
C14_4 C10_4 1_555 1_555
H6_4 C14_4 1_555 1_555
N1_4 C6_4 1_555 1_555
N2_4 Eu6_2 1_555 1_555
O3_3 C2_4 1_555 1_555
O4_3 C2_4 1_555 1_555
O5_4 C8_4 1_555 1_555
Eu2_3 O5_4 1_555 1_555
C15_4 C19_4 1_555 1_555
C17_4 C18_4 1_555 1_555
C18_4 H7_4 1_555 1_555
C19_4 C18_4 1_555 1_555
C20_4 C19_4 1_555 1_555
H8_4 C20_4 1_555 1_555
C21_4 C17_4 1_555 1_555
H9_4 C21_4 1_555 1_555
N3_4 Eu2_3 1_555 1_555
O9_4 Eu2_3 1_555 1_555
O10_4 Eu2_3 1_555 1_555
O11_4 Eu6_2 1_555 1_555
O21_2 C15_4 1_555 1_555
Eu5 O3_3 1_555 1_555
O15_3 Eu2_3 1_555 1_555
O16_2 Eu6_2 1_555 1_555
O17_2 Eu6_2 1_555 1_555
O20_3 Eu2_3 1_555 1_555
O23_2 Eu6_2 1_555 1_555
C7_4 N1_4 1_555 1_555
C13_4 N2_4 1_555 1_555
C14_4 N2_4 1_555 1_555
O4_3 Eu5 1_555 1_555
C15_4 O11_4 1_555 1_555
C20_4 N3_4 1_555 1_555
C21_4 N3_4 1_555 1_555
O10_4 H10_4 1_555 1_555
O10_4 H11_4 1_555 1_555
O9_4 H12_4 1_555 1_555
O9_4 H13_4 1_555 1_555
Eu6_4 O6_5 1_555 1_555
O5_5 C8_5 1_555 1_555
Eu2_4 O5_5 1_555 1_555
C16_5 C17_5 1_555 1_555
C17_5 C18_5 1_555 1_555
C18_5 H7_5 1_555 1_555
C19_5 C18_5 1_555 1_555
C20_5 C19_5 1_555 1_555
H8_5 C20_5 1_555 1_555
C21_5 C17_5 1_555 1_555
H9_5 C21_5 1_555 1_555
N3_5 Eu2_4 1_555 1_555
O9_5 Eu2_4 1_555 1_555
O10_5 Eu2_4 1_555 1_555
O22 C16_5 1_555 1_555
O14_4 C16_5 1_555 1_555
Eu6 O14_4 1_555 1_555
O15_4 Eu2_4 1_555 1_555
O20_4 Eu2_4 1_555 1_555
C20_5 N3_5 1_555 1_555
C21_5 N3_5 1_555 1_555
O10_5 H10_5 1_555 1_555
O10_5 H11_5 1_555 1_555
O9_5 H12_5 1_555 1_555
O9_5 H13_5 1_555 1_555
Eu5 N1_5 1_555 1_555
C2_5 C3_5 1_555 1_555
C3_5 C4_5 1_555 1_555
C4_5 H1_5 1_555 1_555
C5_5 C4_5 1_555 1_555
C6_5 C5_5 1_555 1_555
H2_5 C6_5 1_555 1_555
C7_5 C3_5 1_555 1_555
H3_5 C7_5 1_555 1_555
C10_5 C11_5 1_555 1_555
C12_5 C11_5 1_555 1_555
C13_5 C12_5 1_555 1_555
H5_5 C13_5 1_555 1_555
C14_5 C10_5 1_555 1_555
H6_5 C14_5 1_555 1_555
N1_5 C6_5 1_555 1_555
N2_5 Eu5 1_555 1_555
O3_4 C2_5 1_555 1_555
O4_4 C2_5 1_555 1_555
O11_5 Eu5 1_555 1_555
O21_3 C15_5 1_555 1_555
Eu6 O3_4 1_555 1_555
C7_5 N1_5 1_555 1_555
C13_5 N2_5 1_555 1_555
C14_5 N2_5 1_555 1_555
O4_4 Eu6 1_555 1_555
C15_5 O11_5 1_555 1_555
Eu6_3 O7_5 1_555 1_555
O1_5 C1_5 1_555 1_555
O15_3 C1_5 1_555 1_555
O20_3 C9_5 1_555 1_555
Eu6_4 O7_6 1_555 1_555
Eu6 N1_6 1_555 1_555
C1_6 C5_6 1_555 1_555
C2_6 C3_6 1_555 1_555
C3_6 C4_6 1_555 1_555
C4_6 H1_6 1_555 1_555
C5_6 C4_6 1_555 1_555
C6_6 C5_6 1_555 1_555
H2_6 C6_6 1_555 1_555
C7_6 C3_6 1_555 1_555
H3_6 C7_6 1_555 1_555
C9_6 C10_6 1_555 1_555
C10_6 C11_6 1_555 1_555
C12_6 C11_6 1_555 1_555
C13_6 C12_6 1_555 1_555
H5_6 C13_6 1_555 1_555
C14_6 C10_6 1_555 1_555
H6_6 C14_6 1_555 1_555
N1_6 C6_6 1_555 1_555
N2_6 Eu6 1_555 1_555
O1_6 C1_6 1_555 1_555
O15_4 C1_6 1_555 1_555
O16_2 C2_6 1_555 1_555
O17_2 C2_6 1_555 1_555
O20_4 C9_6 1_555 1_555
O11_6 Eu6 1_555 1_555
O21 C15_6 1_555 1_555
C7_6 N1_6 1_555 1_555
C13_6 N2_6 1_555 1_555
C14_6 N2_6 1_555 1_555
C15_6 O11_6 1_555 1_555
Eu5_2 O6_6 1_555 1_555
O5_6 C8_6 1_555 1_555
Eu7_2 O5_6 1_555 1_555
C17_6 C18_6 1_555 1_555
C18_6 H7_6 1_555 1_555
C19_6 C18_6 1_555 1_555
C20_6 C19_6 1_555 1_555
H8_6 C20_6 1_555 1_555
C21_6 C17_6 1_555 1_555
H9_6 C21_6 1_555 1_555
N3_6 Eu7_2 1_555 1_555
O9_6 Eu7_2 1_555 1_555
O10_6 Eu7_2 1_555 1_555
C20_6 N3_6 1_555 1_555
C21_6 N3_6 1_555 1_555
O10_6 H10_6 1_555 1_555
O10_6 H11_6 1_555 1_555
O9_6 H12_6 1_555 1_555
O9_6 H13_6 1_555 1_555
O22_2 C16_6 1_555 1_555
O23_2 C16_6 1_555 1_555
Eu6_4 N1_7 1_555 1_555
C1_7 C5_7 1_555 1_555
C2_7 C3_7 1_555 1_555
C3_7 C4_7 1_555 1_555
C4_7 H1_7 1_555 1_555
C5_7 C4_7 1_555 1_555
C6_7 C5_7 1_555 1_555
H2_7 C6_7 1_555 1_555
C7_7 C3_7 1_555 1_555
H3_7 C7_7 1_555 1_555
C8_7 C12_7 1_555 1_555
C9_7 C10_7 1_555 1_555
C10_7 C11_7 1_555 1_555
C11_7 H4_6 1_555 1_555
C12_7 C11_7 1_555 1_555
C13_7 C12_7 1_555 1_555
H5_7 C13_7 1_555 1_555
C14_7 C10_7 1_555 1_555
H6_7 C14_7 1_555 1_555
N1_7 C6_7 1_555 1_555
N2_7 Eu6_4 1_555 1_555
O1_7 C1_7 1_555 1_555
O2_3 C1_7 1_555 1_555
O5_7 C8_7 1_555 1_555
O18_3 C8_7 1_555 1_555
O19_2 C9_7 1_555 1_555
O8_3 C9_7 1_555 1_555
C15_7 C19_7 1_555 1_555
C16_7 C17_7 1_555 1_555
C17_7 C18_7 1_555 1_555
C18_7 H7_7 1_555 1_555
C19_7 C18_7 1_555 1_555
C20_7 C19_7 1_555 1_555
H8_7 C20_7 1_555 1_555
C21_7 C17_7 1_555 1_555
H9_7 C21_7 1_555 1_555
O11_7 Eu6_4 1_555 1_555
O21_5 C15_7 1_555 1_555
O22_6 C16_7 1_555 1_555
O14_5 C16_7 1_555 1_555
Eu5_2 O14_5 1_555 1_555
O16_3 Eu6_4 1_555 1_555
O17_3 Eu6_4 1_555 1_555
Eu9 O2_3 1_555 1_555
O23_3 Eu6_4 1_555 1_555
C7_7 N1_7 1_555 1_555
C13_7 N2_7 1_555 1_555
C14_7 N2_7 1_555 1_555
O8_3 Eu9 1_555 1_555
C15_7 O11_7 1_555 1_555
C20_7 N3_7 1_555 1_555
C21_7 N3_7 1_555 1_555
O9_7 Eu9_2 1_555 1_555
O10_7 Eu9_2 1_555 1_555
O15_5 Eu9_2 1_555 1_555
O10_7 H10_7 1_555 1_555
O10_7 H11_7 1_555 1_555
O9_7 H12_7 1_555 1_555
O9_7 H13_7 1_555 1_555
Eu5_2 O3_5 1_555 1_555
O4_5 Eu5_2 1_555 1_555
O9_8 Eu8 1_555 1_555
O10_8 Eu8 1_555 1_555
O15_6 Eu8 1_555 1_555
O10_8 H10_8 1_555 1_555
O10_8 H11_8 1_555 1_555
O9_8 H12_8 1_555 1_555
O9_8 H13_8 1_555 1_555
C8_8 C12_8 1_555 1_555
C9_8 C10_8 1_555 1_555
C10_8 C11_8 1_555 1_555
C11_8 H4_7 1_555 1_555
C12_8 C11_8 1_555 1_555
C13_8 C12_8 1_555 1_555
H5_8 C13_8 1_555 1_555
C14_8 C10_8 1_555 1_555
H6_8 C14_8 1_555 1_555
N2_8 Eu5_2 1_555 1_555
O5_8 C8_8 1_555 1_555
O18 C8_8 1_555 1_555
O19_3 C9_8 1_555 1_555
O20_5 C9_8 1_555 1_555
C15_8 C19_8 1_555 1_555
C16_8 C17_8 1_555 1_555
C17_8 C18_8 1_555 1_555
C18_8 H7_8 1_555 1_555
C19_8 C18_8 1_555 1_555
C20_8 C19_8 1_555 1_555
H8_8 C20_8 1_555 1_555
C21_8 C17_8 1_555 1_555
H9_8 C21_8 1_555 1_555
O11_8 Eu5_2 1_555 1_555
O21_6 C15_8 1_555 1_555
O22_4 C16_8 1_555 1_555
O14_6 C16_8 1_555 1_555
Eu6_3 O14_6 1_555 1_555
C13_8 N2_8 1_555 1_555
C14_8 N2_8 1_555 1_555
C15_8 O11_8 1_555 1_555
C20_8 N3_8 1_555 1_555
C21_8 N3_8 1_555 1_555
C1_8 C5_8 1_555 1_555
C2_8 C3_8 1_555 1_555
C3_8 C4_8 1_555 1_555
C4_8 H1_8 1_555 1_555
C5_8 C4_8 1_555 1_555
C6_8 C5_8 1_555 1_555
H2_8 C6_8 1_555 1_555
C7_8 C3_8 1_555 1_555
H3_8 C7_8 1_555 1_555
N1_8 C6_8 1_555 1_555
O1_8 C1_8 1_555 1_555
O15_5 C1_8 1_555 1_555
O3_6 C2_8 1_555 1_555
O4_6 C2_8 1_555 1_555
Eu6_3 O3_6 1_555 1_555
C7_8 N1_8 1_555 1_555
O4_6 Eu6_3 1_555 1_555
C1_9 C5_9 1_555 1_555
C2_9 C3_9 1_555 1_555
C3_9 C4_9 1_555 1_555
C4_9 H1_9 1_555 1_555
C5_9 C4_9 1_555 1_555
C6_9 C5_9 1_555 1_555
H2_9 C6_9 1_555 1_555
C7_9 C3_9 1_555 1_555
H3_9 C7_9 1_555 1_555
N1_9 C6_9 1_555 1_555
O1_9 C1_9 1_555 1_555
O15_6 C1_9 1_555 1_555
C7_9 N1_9 1_555 1_555
C8_9 C12_9 1_555 1_555
C9_9 C10_9 1_555 1_555
C10_9 C11_9 1_555 1_555
C11_9 H4_8 1_555 1_555
C12_9 C11_9 1_555 1_555
C13_9 C12_9 1_555 1_555
H5_9 C13_9 1_555 1_555
C14_9 C10_9 1_555 1_555
H6_9 C14_9 1_555 1_555
N2_9 Eu6_3 1_555 1_555
O5_9 C8_9 1_555 1_555
O18_2 C8_9 1_555 1_555
O19 C9_9 1_555 1_555
O20_6 C9_9 1_555 1_555
Eu9 O5_9 1_555 1_555
C15_9 C19_9 1_555 1_555
C16_9 C17_9 1_555 1_555
C17_9 C18_9 1_555 1_555
C18_9 H7_9 1_555 1_555
C19_9 C18_9 1_555 1_555
C20_9 C19_9 1_555 1_555
H8_9 C20_9 1_555 1_555
C21_9 C17_9 1_555 1_555
H9_9 C21_9 1_555 1_555
N3_9 Eu9 1_555 1_555
O9_9 Eu9 1_555 1_555
O10_9 Eu9 1_555 1_555
O11_9 Eu6_3 1_555 1_555
O21_4 C15_9 1_555 1_555
O22_5 C16_9 1_555 1_555
O23_3 C16_9 1_555 1_555
C13_9 N2_9 1_555 1_555
C14_9 N2_9 1_555 1_555
C15_9 O11_9 1_555 1_555
C20_9 N3_9 1_555 1_555
C21_9 N3_9 1_555 1_555
O10_9 H10_9 1_555 1_555
O10_9 H11_9 1_555 1_555
O9_9 H12_9 1_555 1_555
O9_9 H13_9 1_555 1_555

#END
