
###############################################################################
#
# This file contains modified crystal structure data generated from the
# MOF subset of the Cambridge Structural Database (CSD) v543 
# hosted by the Cambridge Crystallographic Data Centre (CCDC).
#
# This work is licensed under the Creative Commons
# Attribution-NonCommercial-ShareAlike 4.0 International License.
# To view a copy of this license, visit
# http://creativecommons.org/licenses/by-nc-sa/4.0/
# or send a letter to
# Creative Commons, PO Box 1866, Mountain View, CA 94042, USA.
#
# CIF created using the CSD Python API on 29 September 2022
# The structure has been converted into the P1 space group
# The structure has a 3D framework
# The original CSD entry ORITOB is in the rhombohedral crystal system
# The framework has been calculated to contain at least 10.0% void space
# The void calculation uses a probe of radius 1.32A, grid spacing 0.4
#
###############################################################################

data_ORITOB
_chemical_formula_moiety         '(C198 H90 Cd8 N18 O72)n'
_symmetry_cell_setting           triclinic
_symmetry_space_group_name_H-M   'P 1'
_symmetry_Int_Tables_number      1
_space_group_name_Hall           'P 1'
loop_
_symmetry_equiv_pos_site_id
_symmetry_equiv_pos_as_xyz
1 x,y,z
_cell_length_a                   27.8263(13)
_cell_length_b                   27.8263(13)
_cell_length_c                   10.6537(3)
_cell_angle_alpha                90
_cell_angle_beta                 90
_cell_angle_gamma                120
_cell_volume                     7144.01
loop_
_atom_site_label
_atom_site_type_symbol
_atom_site_fract_x
_atom_site_fract_y
_atom_site_fract_z
Cd1 Cd 0.35974(2) 0.32671(2) 0.07194(4)
O6 O 0.37988(27) 0.33412(19) 0.2786(4)
O7 O 0.3248(2) 0.3807(3) 0.1558(5)
N2 N 0.3856(3) 0.2613(2) 0.1229(5)
O1 O 0.66745(19) 0.62090(19) 0.3881(4)
O2 O 0.6404(2) 0.5621(2) 0.2297(4)
O3 O 0.3893(2) 0.3419(2) 0.8225(5)
O4 O 0.4317(2) 0.3980(2) 0.9826(5)
N1 N 0.5946(2) 0.5423(2) 0.5438(5)
C1 C 0.6386(3) 0.5727(3) 0.3395(6)
C2 C 0.5983(3) 0.5284(3) 0.4270(6)
C3 C 0.4732(3) 0.4266(3) 0.7812(6)
C4 C 0.5554(3) 0.5032(3) 0.6218(6)
C5 C 0.4279(3) 0.3859(3) 0.8667(7)
C6 C 0.4771(3) 0.4114(3) 0.6617(6)
H1 H 0.451803 0.375902 0.633621
C7 C 0.5188(3) 0.4487(3) 0.5808(6)
C8 C 0.5247(3) 0.4349(3) 0.4562(7)
H2 H 0.501704 0.399181 0.426103
C9 C 0.5108(3) 0.4801(3) 0.8224(6)
H3 H 0.508413 0.490143 0.904421
C10 C 0.5507(3) 0.5178(3) 0.7462(6)
H4 H 0.575032 0.553319 0.775775
C11 C 0.5638(3) 0.4740(3) 0.3813(7)
H5 H 0.568134 0.465085 0.299508
Cd2 Cd 0.30030(3) 0.30693(2) 0.73861(4)
Cd3 Cd 0.69970(3) 0.69307(2) 0.26139(4)
Cd4 Cd 0.66004(2) 0.63364(3) 0.59473(4)
O5 O 0.28757(19) 0.28678(27) 0.9452(4)
Cd1_2 Cd 0.67329(2) 0.03303(3) 0.07194(4)
O6_2 O 0.66588(19) 0.04577(33) 0.2786(4)
N2_2 N 0.7387(2) 0.1244(4) 0.1229(5)
O1_2 O 0.37910(19) 0.04655(27) 0.3881(4)
O2_2 O 0.4379(2) 0.0783(3) 0.2297(4)
O3_2 O 0.6581(2) 0.0474(3) 0.8225(5)
O4_2 O 0.6020(2) 0.0337(3) 0.9826(5)
N1_2 N 0.4577(2) 0.0523(3) 0.5438(5)
C1_2 C 0.4273(3) 0.0659(4) 0.3395(6)
C2_2 C 0.4716(3) 0.0699(4) 0.4270(6)
C3_2 C 0.5734(3) 0.0466(4) 0.7812(6)
C4_2 C 0.4968(3) 0.0522(4) 0.6218(6)
C5_2 C 0.6141(3) 0.0420(4) 0.8667(7)
C6_2 C 0.5886(3) 0.0657(4) 0.6617(6)
H1_2 H 0.624098 0.075901 0.633621
C7_2 C 0.5513(3) 0.0701(4) 0.5808(6)
C8_2 C 0.5651(3) 0.0898(4) 0.4562(7)
H2_2 H 0.600819 0.102523 0.426103
C9_2 C 0.5199(3) 0.0307(4) 0.8224(6)
H3_2 H 0.509857 0.018270 0.904421
C10_2 C 0.4822(3) 0.0329(4) 0.7462(6)
H4_2 H 0.446681 0.021713 0.775775
C11_2 C 0.5260(3) 0.0898(4) 0.3813(7)
H5_2 H 0.534915 0.103049 0.299508
Cd3_2 Cd 0.30693(2) 0.00662(4) 0.26139(4)
Cd4_2 Cd 0.36636(3) 0.02641(4) 0.59473(4)
O5_2 O 0.71322(27) 0.00078(33) 0.9452(4)
O7_2 O 0.6193(3) 0.9440(4) 0.1558(5)
Cd2_2 Cd 0.69307(2) 0.99338(4) 0.73861(4)
O7_3 O 0.0560(4) 0.6752(2) 0.1558(5)
Cd2_3 Cd 0.00662(4) 0.69970(3) 0.73861(4)
Cd1_3 Cd 0.96697(3) 0.64026(2) 0.07194(4)
O6_3 O 0.95423(33) 0.62012(27) 0.2786(4)
N2_3 N 0.8756(4) 0.6144(3) 0.1229(5)
O1_3 O 0.95345(27) 0.33255(19) 0.3881(4)
O2_3 O 0.9217(3) 0.3596(2) 0.2297(4)
O3_3 O 0.9526(3) 0.6107(2) 0.8225(5)
O4_3 O 0.9663(3) 0.5683(2) 0.9826(5)
N1_3 N 0.9477(3) 0.4054(2) 0.5438(5)
C1_3 C 0.9341(4) 0.3614(3) 0.3395(6)
C2_3 C 0.9301(4) 0.4017(3) 0.4270(6)
C3_3 C 0.9534(4) 0.5268(3) 0.7812(6)
C4_3 C 0.9478(4) 0.4446(3) 0.6218(6)
C5_3 C 0.9580(4) 0.5721(3) 0.8667(7)
C6_3 C 0.9343(4) 0.5229(3) 0.6617(6)
H1_3 H 0.924099 0.548197 0.633621
C7_3 C 0.9299(4) 0.4812(3) 0.5808(6)
C8_3 C 0.9102(4) 0.4753(3) 0.4562(7)
H2_3 H 0.897477 0.498296 0.426103
C9_3 C 0.9693(4) 0.4892(3) 0.8224(6)
H3_3 H 0.981730 0.491587 0.904421
C10_3 C 0.9671(4) 0.4493(3) 0.7462(6)
H4_3 H 0.978287 0.424968 0.775775
C11_3 C 0.9102(4) 0.4362(3) 0.3813(7)
H5_3 H 0.896951 0.431866 0.299508
Cd3_3 Cd 0.99338(4) 0.30030(3) 0.26139(4)
Cd4_3 Cd 0.97359(4) 0.33996(2) 0.59473(4)
O5_3 O 0.99922(33) 0.71243(19) 0.9452(4)
Cd1_4 Cd 0.02641(2) 0.66004(2) 0.40527(4)
O4_4 O 0.0984(2) 0.7313(2) 0.3159(5)
C3_4 C 0.1399(3) 0.7599(3) 0.1145(6)
C5_4 C 0.0946(3) 0.7192(3) 0.2000(7)
C9_4 C 0.1775(3) 0.8134(3) 0.1557(6)
H3_4 H 0.175080 0.823476 0.237754
C10_4 C 0.2174(3) 0.8511(3) 0.0795(6)
H4_4 H 0.241699 0.886652 0.109108
O6_4 O 0.04655(27) 0.66745(19) 0.6119(4)
N2_4 N 0.0523(3) 0.5946(2) 0.4562(5)
O1_4 O 0.33412(19) 0.95423(19) 0.7214(4)
O2_4 O 0.3071(2) 0.8954(2) 0.5630(4)
N1_4 N 0.2613(2) 0.8756(2) 0.8771(5)
C1_4 C 0.3053(3) 0.9060(3) 0.6728(6)
C2_4 C 0.2650(3) 0.8617(3) 0.7603(6)
C4_4 C 0.2221(3) 0.8365(3) 0.9551(6)
C6_4 C 0.1438(3) 0.7447(3) 0.9950(6)
H1_4 H 0.118470 0.709235 0.966954
C7_4 C 0.1855(3) 0.7820(3) 0.9141(6)
C8_4 C 0.1914(3) 0.7682(3) 0.7895(7)
H2_4 H 0.168371 0.732514 0.759436
C11_4 C 0.2305(3) 0.8073(3) 0.7146(7)
H5_4 H 0.234801 0.798418 0.632841
Cd4_4 Cd 0.32671(2) 0.96697(3) 0.92806(4)
O7_4 O 0.9914(2) 0.7141(3) 0.4892(5)
Cd1_5 Cd 0.33996(2) 0.36636(3) 0.40527(4)
O4_5 O 0.2687(2) 0.3670(3) 0.3159(5)
C3_5 C 0.2401(3) 0.3799(4) 0.1145(6)
C5_5 C 0.2808(3) 0.3753(4) 0.2000(7)
C9_5 C 0.1866(3) 0.3640(4) 0.1557(6)
H3_5 H 0.176524 0.351603 0.237754
C10_5 C 0.1489(3) 0.3662(4) 0.0795(6)
H4_5 H 0.113348 0.355046 0.109108
O6_5 O 0.33255(19) 0.37910(33) 0.6119(4)
O7_5 O 0.2859(3) 0.2774(4) 0.4892(5)
N2_5 N 0.4054(2) 0.4577(4) 0.4562(5)
O1_5 O 0.04577(19) 0.37988(27) 0.7214(4)
O2_5 O 0.1046(2) 0.4116(3) 0.5630(4)
N1_5 N 0.1244(2) 0.3856(3) 0.8771(5)
C1_5 C 0.0940(3) 0.3992(4) 0.6728(6)
C2_5 C 0.1383(3) 0.4032(4) 0.7603(6)
C4_5 C 0.1635(3) 0.3855(4) 0.9551(6)
C6_5 C 0.2553(3) 0.3990(4) 0.9950(6)
H1_5 H 0.290765 0.409234 0.966954
C7_5 C 0.2180(3) 0.4034(4) 0.9141(6)
C8_5 C 0.2318(3) 0.4231(4) 0.7895(7)
H2_5 H 0.267486 0.435856 0.759436
C11_5 C 0.1927(3) 0.4231(4) 0.7146(7)
H5_5 H 0.201582 0.436382 0.632841
Cd4_5 Cd 0.03303(3) 0.35974(4) 0.92806(4)
O7_6 O 0.7226(4) 0.0086(2) 0.4892(5)
Cd1_6 Cd 0.63364(3) 0.97359(2) 0.40527(4)
O4_6 O 0.6330(3) 0.9016(2) 0.3159(5)
C3_6 C 0.6201(4) 0.8601(3) 0.1145(6)
C5_6 C 0.6247(4) 0.9054(3) 0.2000(7)
C9_6 C 0.6360(4) 0.8225(3) 0.1557(6)
H3_6 H 0.648397 0.824920 0.237754
C10_6 C 0.6338(4) 0.7826(3) 0.0795(6)
H4_6 H 0.644954 0.758301 0.109108
O6_6 O 0.62090(33) 0.95345(27) 0.6119(4)
N2_6 N 0.5423(4) 0.9477(3) 0.4562(5)
O1_6 O 0.62012(27) 0.66588(19) 0.7214(4)
O2_6 O 0.5884(3) 0.6929(2) 0.5630(4)
N1_6 N 0.6144(3) 0.7387(2) 0.8771(5)
C1_6 C 0.6008(4) 0.6947(3) 0.6728(6)
C2_6 C 0.5968(4) 0.7350(3) 0.7603(6)
C4_6 C 0.6145(4) 0.7779(3) 0.9551(6)
C6_6 C 0.6010(4) 0.8562(3) 0.9950(6)
H1_6 H 0.590766 0.881530 0.966954
C7_6 C 0.5966(4) 0.8145(3) 0.9141(6)
C8_6 C 0.5769(4) 0.8086(3) 0.7895(7)
H2_6 H 0.564144 0.831629 0.759436
C11_6 C 0.5769(4) 0.7695(3) 0.7146(7)
H5_6 H 0.563618 0.765199 0.632841
Cd4_6 Cd 0.64026(4) 0.67329(2) 0.92806(4)
O1_7 O 0.00078(19) 0.28757(19) 0.0548(4)
O4_7 O 0.7650(2) 0.0647(2) 0.6493(5)
N1_7 N 0.9279(2) 0.2090(2) 0.2105(5)
C1_7 C 0.9719(3) 0.2394(3) 0.0062(6)
C2_7 C 0.9316(3) 0.1951(3) 0.0937(6)
C3_7 C 0.8065(3) 0.0933(3) 0.4479(6)
C4_7 C 0.8887(3) 0.1699(3) 0.2885(6)
C5_7 C 0.7612(3) 0.0526(3) 0.5334(7)
C6_7 C 0.8104(3) 0.0781(3) 0.3284(6)
H1_7 H 0.785136 0.042569 0.300288
C7_7 C 0.8521(3) 0.1154(3) 0.2475(6)
C8_7 C 0.8580(3) 0.1016(3) 0.1229(7)
H2_7 H 0.835037 0.065848 0.092770
C9_7 C 0.8441(3) 0.1468(3) 0.4891(6)
H3_7 H 0.841746 0.156810 0.571088
C10_7 C 0.8840(3) 0.1845(3) 0.4129(6)
H4_7 H 0.908365 0.219986 0.442442
C11_7 C 0.8971(3) 0.1407(3) 0.0480(7)
N2_7 N 0.7190(3) 0.9279(2) 0.7895(5)
N2_8 N 0.0721(2) 0.7910(4) 0.7895(5)
O1_8 O 0.71243(19) 0.71322(27) 0.0548(4)
O4_8 O 0.9353(2) 0.7004(3) 0.6493(5)
N1_8 N 0.7910(2) 0.7190(3) 0.2105(5)
C1_8 C 0.7606(3) 0.7326(4) 0.0062(6)
C2_8 C 0.8049(3) 0.7366(4) 0.0937(6)
C3_8 C 0.9067(3) 0.7133(4) 0.4479(6)
C4_8 C 0.8301(3) 0.7189(4) 0.2885(6)
C5_8 C 0.9474(3) 0.7087(4) 0.5334(7)
C6_8 C 0.9219(3) 0.7324(4) 0.3284(6)
H1_8 H 0.957431 0.742568 0.300288
C7_8 C 0.8846(3) 0.7368(4) 0.2475(6)
C8_8 C 0.8984(3) 0.7565(4) 0.1229(7)
H2_8 H 0.934152 0.769190 0.092770
C9_8 C 0.8532(3) 0.6974(4) 0.4891(6)
H3_8 H 0.843190 0.684937 0.571088
C10_8 C 0.8155(3) 0.6996(4) 0.4129(6)
H4_8 H 0.780014 0.688380 0.442442
C11_8 C 0.8593(3) 0.7565(4) 0.0480(7)
O2_7 O 0.7712(2) 0.7450(3) 0.8964(4)
H5_7 H 0.868248 0.769716 0.966175
O4_9 O 0.2996(3) 0.2350(2) 0.6493(5)
N1_9 N 0.2810(3) 0.0721(2) 0.2105(5)
C1_9 C 0.2674(4) 0.0281(3) 0.0062(6)
C2_9 C 0.2634(4) 0.0684(3) 0.0937(6)
C3_9 C 0.2867(4) 0.1935(3) 0.4479(6)
C4_9 C 0.2811(4) 0.1113(3) 0.2885(6)
C5_9 C 0.2913(4) 0.2388(3) 0.5334(7)
C6_9 C 0.2676(4) 0.1896(3) 0.3284(6)
H1_9 H 0.257432 0.214864 0.300288
C7_9 C 0.2632(4) 0.1479(3) 0.2475(6)
C8_9 C 0.2435(4) 0.1420(3) 0.1229(7)
H2_9 H 0.230810 0.164963 0.092770
C9_9 C 0.3026(4) 0.1559(3) 0.4891(6)
H3_9 H 0.315063 0.158254 0.571088
C10_9 C 0.3004(4) 0.1160(3) 0.4129(6)
H4_9 H 0.311620 0.091635 0.442442
C11_9 C 0.2435(4) 0.1029(3) 0.0480(7)
N2_9 N 0.2090(4) 0.2810(3) 0.7895(5)
O1_9 O 0.28678(27) 0.99922(19) 0.0548(4)
O2_8 O 0.3596(2) 0.4379(2) 0.7703(4)
O3_4 O 0.6107(2) 0.6581(2) 0.1775(5)
O4_10 O 0.5683(2) 0.6020(2) 0.0174(5)
C1_10 C 0.3614(3) 0.4273(3) 0.6605(6)
C2_10 C 0.4017(3) 0.4716(3) 0.5730(6)
C3_10 C 0.5268(3) 0.5734(3) 0.2188(6)
C4_10 C 0.4446(3) 0.4968(3) 0.3782(6)
C5_10 C 0.5721(3) 0.6141(3) 0.1333(7)
C6_10 C 0.5229(3) 0.5886(3) 0.3383(6)
H1_10 H 0.548197 0.624098 0.366379
C7_10 C 0.4812(3) 0.5513(3) 0.4192(6)
C8_10 C 0.4753(3) 0.5651(3) 0.5438(7)
H2_10 H 0.498296 0.600819 0.573897
C9_10 C 0.4892(3) 0.5199(3) 0.1776(6)
H3_10 H 0.491587 0.509857 0.095579
C10_10 C 0.4493(3) 0.4822(3) 0.2538(6)
H4_10 H 0.424968 0.446681 0.224225
C11_10 C 0.4362(3) 0.5260(3) 0.6187(7)
H5_8 H 0.431866 0.534915 0.700492
O7_7 O 0.6752(2) 0.6193(3) 0.8442(5)
O7_8 O 0.3807(3) 0.0560(4) 0.8442(5)
O2_9 O 0.5621(2) 0.9217(3) 0.7703(4)
O3_5 O 0.3419(2) 0.9526(3) 0.1775(5)
O4_11 O 0.3980(2) 0.9663(3) 0.0174(5)
C1_11 C 0.5727(3) 0.9341(4) 0.6605(6)
C2_11 C 0.5284(3) 0.9301(4) 0.5730(6)
C3_11 C 0.4266(3) 0.9534(4) 0.2188(6)
C4_11 C 0.5032(3) 0.9478(4) 0.3782(6)
C5_11 C 0.3859(3) 0.9580(4) 0.1333(7)
C6_11 C 0.4114(3) 0.9343(4) 0.3383(6)
H1_11 H 0.375902 0.924099 0.366379
C7_11 C 0.4487(3) 0.9299(4) 0.4192(6)
C8_11 C 0.4349(3) 0.9102(4) 0.5438(7)
H2_11 H 0.399181 0.897477 0.573897
C9_11 C 0.4801(3) 0.9693(4) 0.1776(6)
H3_11 H 0.490143 0.981730 0.095579
C10_11 C 0.5178(3) 0.9671(4) 0.2538(6)
H4_11 H 0.553319 0.978287 0.224225
C11_11 C 0.4740(3) 0.9102(4) 0.6187(7)
H5_9 H 0.465085 0.896951 0.700492
O2_10 O 0.0783(3) 0.6404(2) 0.7703(4)
O3_6 O 0.0474(3) 0.3893(2) 0.1775(5)
O4_12 O 0.0337(3) 0.4317(2) 0.0174(5)
C1_12 C 0.0659(4) 0.6386(3) 0.6605(6)
C2_12 C 0.0699(4) 0.5983(3) 0.5730(6)
C3_12 C 0.0466(4) 0.4732(3) 0.2188(6)
C4_12 C 0.0522(4) 0.5554(3) 0.3782(6)
C5_12 C 0.0420(4) 0.4279(3) 0.1333(7)
C6_12 C 0.0657(4) 0.4771(3) 0.3383(6)
H1_12 H 0.075901 0.451803 0.366379
C7_12 C 0.0701(4) 0.5188(3) 0.4192(6)
C8_12 C 0.0898(4) 0.5247(3) 0.5438(7)
H2_12 H 0.102523 0.501704 0.573897
C9_12 C 0.0307(4) 0.5108(3) 0.1776(6)
H3_12 H 0.018270 0.508413 0.095579
C10_12 C 0.0329(4) 0.5507(3) 0.2538(6)
H4_12 H 0.021713 0.575032 0.224225
C11_12 C 0.0898(4) 0.5638(3) 0.6187(7)
H5_10 H 0.103049 0.568134 0.700492
O7_9 O 0.9440(4) 0.3248(2) 0.8442(5)
O7_10 O 0.0086(2) 0.2859(3) 0.5108(5)
O2_11 O 0.6929(2) 0.1046(2) 0.4370(4)
C1_13 C 0.6947(3) 0.0940(3) 0.3272(6)
C2_13 C 0.7350(3) 0.1383(3) 0.2397(6)
C4_13 C 0.7779(3) 0.1635(3) 0.0449(6)
C6_13 C 0.8562(3) 0.2553(3) 0.0050(6)
H1_13 H 0.881530 0.290765 0.033046
C7_13 C 0.8145(3) 0.2180(3) 0.0859(6)
C8_13 C 0.8086(3) 0.2318(3) 0.2105(7)
H2_13 H 0.831629 0.267486 0.240564
C11_13 C 0.7695(3) 0.1927(3) 0.2854(7)
H5_11 H 0.765199 0.201582 0.367159
O4_13 O 0.9016(2) 0.2687(2) 0.6841(5)
C3_13 C 0.8601(3) 0.2401(3) 0.8855(6)
C5_13 C 0.9054(3) 0.2808(3) 0.8000(7)
C9_13 C 0.8225(3) 0.1866(3) 0.8443(6)
H3_13 H 0.824920 0.176524 0.762246
C10_13 C 0.7826(3) 0.1489(3) 0.9205(6)
H4_13 H 0.758301 0.113348 0.890892
O2_12 O 0.8954(2) 0.5884(3) 0.4370(4)
C1_14 C 0.9060(3) 0.6008(4) 0.3272(6)
C2_14 C 0.8617(3) 0.5968(4) 0.2397(6)
C4_14 C 0.8365(3) 0.6145(4) 0.0449(6)
C6_14 C 0.7447(3) 0.6010(4) 0.0050(6)
H1_14 H 0.709235 0.590766 0.033046
C7_14 C 0.7820(3) 0.5966(4) 0.0859(6)
C8_14 C 0.7682(3) 0.5769(4) 0.2105(7)
H2_14 H 0.732514 0.564144 0.240564
C11_14 C 0.8073(3) 0.5769(4) 0.2854(7)
H5_12 H 0.798418 0.563618 0.367159
O4_14 O 0.7313(2) 0.6330(3) 0.6841(5)
C3_14 C 0.7599(3) 0.6201(4) 0.8855(6)
C5_14 C 0.7192(3) 0.6247(4) 0.8000(7)
C9_14 C 0.8134(3) 0.6360(4) 0.8443(6)
H3_14 H 0.823476 0.648397 0.762246
C10_14 C 0.8511(3) 0.6338(4) 0.9205(6)
H4_14 H 0.886652 0.644954 0.890892
O7_11 O 0.7141(3) 0.7226(4) 0.5108(5)
O2_13 O 0.4116(3) 0.3071(2) 0.4370(4)
C1_15 C 0.3992(4) 0.3053(3) 0.3272(6)
C2_15 C 0.4032(4) 0.2650(3) 0.2397(6)
C4_15 C 0.3855(4) 0.2221(3) 0.0449(6)
C6_15 C 0.3990(4) 0.1438(3) 0.0050(6)
H1_15 H 0.409234 0.118470 0.033046
C7_15 C 0.4034(4) 0.1855(3) 0.0859(6)
C8_15 C 0.4231(4) 0.1914(3) 0.2105(7)
H2_15 H 0.435856 0.168371 0.240564
C11_15 C 0.4231(4) 0.2305(3) 0.2854(7)
H5_13 H 0.436382 0.234801 0.367159
O4_15 O 0.3670(3) 0.0984(2) 0.6841(5)
C3_15 C 0.3799(4) 0.1399(3) 0.8855(6)
C5_15 C 0.3753(4) 0.0946(3) 0.8000(7)
C9_15 C 0.3640(4) 0.1775(3) 0.8443(6)
H3_15 H 0.351603 0.175080 0.762246
C10_15 C 0.3662(4) 0.2174(3) 0.9205(6)
H4_15 H 0.355046 0.241699 0.890892
O7_12 O 0.2774(4) 0.9914(2) 0.5108(5)
O4_16 O 0.2350(2) 0.9353(2) 0.3507(5)
C1_16 C 0.0281(3) 0.7606(3) 0.9938(6)
C2_16 C 0.0684(3) 0.8049(3) 0.9063(6)
C3_16 C 0.1935(3) 0.9067(3) 0.5521(6)
C4_16 C 0.1113(3) 0.8301(3) 0.7115(6)
C5_16 C 0.2388(3) 0.9474(3) 0.4666(7)
C6_16 C 0.1896(3) 0.9219(3) 0.6716(6)
H1_16 H 0.214864 0.957431 0.699712
C7_16 C 0.1479(3) 0.8846(3) 0.7525(6)
C8_16 C 0.1420(3) 0.8984(3) 0.8771(7)
H2_16 H 0.164963 0.934152 0.907230
C9_16 C 0.1559(3) 0.8532(3) 0.5109(6)
H3_16 H 0.158254 0.843190 0.428912
C10_16 C 0.1160(3) 0.8155(3) 0.5871(6)
H4_16 H 0.091635 0.780014 0.557558
C11_16 C 0.1029(3) 0.8593(3) 0.9520(7)
O2_14 O 0.2288(2) 0.2550(3) 0.1036(4)
H5_14 H 0.131752 0.230284 0.033825
O4_17 O 0.0647(2) 0.2996(3) 0.3507(5)
C1_17 C 0.2394(3) 0.2674(4) 0.9938(6)
C2_17 C 0.1951(3) 0.2634(4) 0.9063(6)
C3_17 C 0.0933(3) 0.2867(4) 0.5521(6)
C4_17 C 0.1699(3) 0.2811(4) 0.7115(6)
C5_17 C 0.0526(3) 0.2913(4) 0.4666(7)
C6_17 C 0.0781(3) 0.2676(4) 0.6716(6)
H1_17 H 0.042569 0.257432 0.699712
C7_17 C 0.1154(3) 0.2632(4) 0.7525(6)
C8_17 C 0.1016(3) 0.2435(4) 0.8771(7)
H2_17 H 0.065848 0.230810 0.907230
C9_17 C 0.1468(3) 0.3026(4) 0.5109(6)
H3_17 H 0.156810 0.315063 0.428912
C10_17 C 0.1845(3) 0.3004(4) 0.5871(6)
H4_17 H 0.219986 0.311620 0.557558
C11_17 C 0.1407(3) 0.2435(4) 0.9520(7)
O4_18 O 0.7004(3) 0.7650(2) 0.3507(5)
C1_18 C 0.7326(4) 0.9719(3) 0.9938(6)
C2_18 C 0.7366(4) 0.9316(3) 0.9063(6)
C3_18 C 0.7133(4) 0.8065(3) 0.5521(6)
C4_18 C 0.7189(4) 0.8887(3) 0.7115(6)
C5_18 C 0.7087(4) 0.7612(3) 0.4666(7)
C6_18 C 0.7324(4) 0.8104(3) 0.6716(6)
H1_18 H 0.742568 0.785136 0.699712
C7_18 C 0.7368(4) 0.8521(3) 0.7525(6)
C8_18 C 0.7565(4) 0.8580(3) 0.8771(7)
H2_18 H 0.769190 0.835037 0.907230
C9_18 C 0.6974(4) 0.8441(3) 0.5109(6)
H3_18 H 0.684937 0.841746 0.428912
C10_18 C 0.6996(4) 0.8840(3) 0.5871(6)
H4_18 H 0.688380 0.908365 0.557558
C11_18 C 0.7565(4) 0.8971(3) 0.9520(7)
O2_15 O 0.9737(2) 0.2288(2) 0.8964(4)
H5_15 H 0.901467 0.131752 0.966175
O2_16 O 0.2550(3) 0.0263(2) 0.8964(4)
H5_16 H 0.230284 0.098533 0.966175
O2_17 O 0.0263(2) 0.7712(2) 0.1036(4)
H5_17 H 0.098533 0.868248 0.033825
O2_18 O 0.7450(3) 0.9737(2) 0.1036(4)
H5_18 H 0.769716 0.901467 0.033825
loop_
_geom_bond_atom_site_label_1
_geom_bond_atom_site_label_2
_geom_bond_site_symmetry_1
_geom_bond_site_symmetry_2
O6 Cd1 1_555 1_555
O7 Cd1 1_555 1_555
N2 Cd1 1_555 1_555
O1 C1 1_555 1_555
O2 C1 1_555 1_555
O3 C5 1_555 1_555
N1 C2 1_555 1_555
C1 C2 1_555 1_555
C2 C11 1_555 1_555
C3 C5 1_555 1_555
C4 N1 1_555 1_555
C5 O4 1_555 1_555
C6 C3 1_555 1_555
H1 C6 1_555 1_555
C7 C4 1_555 1_555
C8 C7 1_555 1_555
H2 C8 1_555 1_555
C9 C3 1_555 1_555
H3 C9 1_555 1_555
C10 C4 1_555 1_555
H4 C10 1_555 1_555
C11 C8 1_555 1_555
H5 C11 1_555 1_555
Cd2 O3 1_555 1_555
Cd3 O1 1_555 1_555
Cd4 O1 1_555 1_555
N1 Cd4 1_555 1_555
C6 C7 1_555 1_555
C9 C10 1_555 1_555
Cd2 O5 1_555 1_555
O6_2 Cd1_2 1_555 1_555
N2_2 Cd1_2 1_555 1_555
O1_2 C1_2 1_555 1_555
O2_2 C1_2 1_555 1_555
O3_2 C5_2 1_555 1_555
N1_2 C2_2 1_555 1_555
C1_2 C2_2 1_555 1_555
C2_2 C11_2 1_555 1_555
C3_2 C5_2 1_555 1_555
C4_2 N1_2 1_555 1_555
C5_2 O4_2 1_555 1_555
C6_2 C3_2 1_555 1_555
H1_2 C6_2 1_555 1_555
C7_2 C4_2 1_555 1_555
C8_2 C7_2 1_555 1_555
H2_2 C8_2 1_555 1_555
C9_2 C3_2 1_555 1_555
H3_2 C9_2 1_555 1_555
C10_2 C4_2 1_555 1_555
H4_2 C10_2 1_555 1_555
C11_2 C8_2 1_555 1_555
H5_2 C11_2 1_555 1_555
Cd3_2 O1_2 1_555 1_555
Cd4_2 O1_2 1_555 1_555
N1_2 Cd4_2 1_555 1_555
C6_2 C7_2 1_555 1_555
C9_2 C10_2 1_555 1_555
O6_3 Cd1_3 1_555 1_555
N2_3 Cd1_3 1_555 1_555
O1_3 C1_3 1_555 1_555
O2_3 C1_3 1_555 1_555
O3_3 C5_3 1_555 1_555
N1_3 C2_3 1_555 1_555
C1_3 C2_3 1_555 1_555
C2_3 C11_3 1_555 1_555
C3_3 C5_3 1_555 1_555
C4_3 N1_3 1_555 1_555
C5_3 O4_3 1_555 1_555
C6_3 C3_3 1_555 1_555
H1_3 C6_3 1_555 1_555
C7_3 C4_3 1_555 1_555
C8_3 C7_3 1_555 1_555
H2_3 C8_3 1_555 1_555
C9_3 C3_3 1_555 1_555
H3_3 C9_3 1_555 1_555
C10_3 C4_3 1_555 1_555
H4_3 C10_3 1_555 1_555
C11_3 C8_3 1_555 1_555
H5_3 C11_3 1_555 1_555
Cd3_3 O1_3 1_555 1_555
Cd4_3 O1_3 1_555 1_555
N1_3 Cd4_3 1_555 1_555
C6_3 C7_3 1_555 1_555
C9_3 C10_3 1_555 1_555
Cd1_4 O7_3 1_555 1_555
O7_3 C5_4 1_555 1_555
O4_4 Cd1_4 1_555 1_555
C3_4 C5_4 1_555 1_555
C5_4 O4_4 1_555 1_555
C9_4 C3_4 1_555 1_555
H3_4 C9_4 1_555 1_555
H4_4 C10_4 1_555 1_555
O6_4 Cd1_4 1_555 1_555
N2_4 Cd1_4 1_555 1_555
C9_4 C10_4 1_555 1_555
O1_4 C1_4 1_555 1_555
O2_4 C1_4 1_555 1_555
N1_4 C2_4 1_555 1_555
C1_4 C2_4 1_555 1_555
C2_4 C11_4 1_555 1_555
C4_4 N1_4 1_555 1_555
H1_4 C6_4 1_555 1_555
C7_4 C4_4 1_555 1_555
C8_4 C7_4 1_555 1_555
H2_4 C8_4 1_555 1_555
C11_4 C8_4 1_555 1_555
H5_4 C11_4 1_555 1_555
Cd4_4 O1_4 1_555 1_555
N1_4 Cd4_4 1_555 1_555
C6_4 C7_4 1_555 1_555
Cd1_5 O7 1_555 1_555
O7 C5_5 1_555 1_555
O4_5 Cd1_5 1_555 1_555
C3_5 C5_5 1_555 1_555
C5_5 O4_5 1_555 1_555
C9_5 C3_5 1_555 1_555
H3_5 C9_5 1_555 1_555
H4_5 C10_5 1_555 1_555
O6 Cd1_5 1_555 1_555
O6_5 Cd1_5 1_555 1_555
O7_5 Cd1_5 1_555 1_555
N2_5 Cd1_5 1_555 1_555
C9_5 C10_5 1_555 1_555
O1_5 C1_5 1_555 1_555
O2_5 C1_5 1_555 1_555
N1_5 C2_5 1_555 1_555
C1_5 C2_5 1_555 1_555
C2_5 C11_5 1_555 1_555
C4_5 N1_5 1_555 1_555
H1_5 C6_5 1_555 1_555
C7_5 C4_5 1_555 1_555
C8_5 C7_5 1_555 1_555
H2_5 C8_5 1_555 1_555
C11_5 C8_5 1_555 1_555
H5_5 C11_5 1_555 1_555
Cd4_5 O1_5 1_555 1_555
N1_5 Cd4_5 1_555 1_555
C6_5 C7_5 1_555 1_555
Cd1_6 O7_2 1_555 1_555
O7_2 C5_6 1_555 1_555
O4_6 Cd1_6 1_555 1_555
C3_6 C5_6 1_555 1_555
C5_6 O4_6 1_555 1_555
C9_6 C3_6 1_555 1_555
H3_6 C9_6 1_555 1_555
H4_6 C10_6 1_555 1_555
O6_6 Cd1_6 1_555 1_555
N2_6 Cd1_6 1_555 1_555
C9_6 C10_6 1_555 1_555
O1_6 C1_6 1_555 1_555
O2_6 C1_6 1_555 1_555
N1_6 C2_6 1_555 1_555
C1_6 C2_6 1_555 1_555
C2_6 C11_6 1_555 1_555
C4_6 N1_6 1_555 1_555
H1_6 C6_6 1_555 1_555
C7_6 C4_6 1_555 1_555
C8_6 C7_6 1_555 1_555
H2_6 C8_6 1_555 1_555
C11_6 C8_6 1_555 1_555
H5_6 C11_6 1_555 1_555
Cd4 O1_6 1_555 1_555
Cd4_6 O1_6 1_555 1_555
N1_6 Cd4_6 1_555 1_555
C6_6 C7_6 1_555 1_555
O7_6 C5_7 1_555 1_555
N1_7 C2_7 1_555 1_555
C1_7 C2_7 1_555 1_555
C2_7 C11_7 1_555 1_555
C3_7 C5_7 1_555 1_555
C4_7 N1_7 1_555 1_555
C5_7 O4_7 1_555 1_555
C6_7 C3_7 1_555 1_555
H1_7 C6_7 1_555 1_555
C7_7 C4_7 1_555 1_555
C8_7 C7_7 1_555 1_555
H2_7 C8_7 1_555 1_555
C9_7 C3_7 1_555 1_555
H3_7 C9_7 1_555 1_555
C10_7 C4_7 1_555 1_555
H4_7 C10_7 1_555 1_555
C11_7 C8_7 1_555 1_555
N1_7 Cd3_3 1_555 1_555
C6_7 C7_7 1_555 1_555
C9_7 C10_7 1_555 1_555
O6_6 Cd2_2 1_555 1_555
N2_7 Cd2_2 1_555 1_555
O6_4 Cd2_3 1_555 1_555
N2_8 Cd2_3 1_555 1_555
O1_8 C1_8 1_555 1_555
O7_4 C5_8 1_555 1_555
N1_8 C2_8 1_555 1_555
C1_8 C2_8 1_555 1_555
C2_8 C11_8 1_555 1_555
C3_8 C5_8 1_555 1_555
C4_8 N1_8 1_555 1_555
C5_8 O4_8 1_555 1_555
C6_8 C3_8 1_555 1_555
H1_8 C6_8 1_555 1_555
C7_8 C4_8 1_555 1_555
C8_8 C7_8 1_555 1_555
H2_8 C8_8 1_555 1_555
C9_8 C3_8 1_555 1_555
H3_8 C9_8 1_555 1_555
C10_8 C4_8 1_555 1_555
H4_8 C10_8 1_555 1_555
C11_8 C8_8 1_555 1_555
Cd3 O1_8 1_555 1_555
N1_8 Cd3 1_555 1_555
C6_8 C7_8 1_555 1_555
C9_8 C10_8 1_555 1_555
Cd2 O7_5 1_555 1_555
O7_5 C5_9 1_555 1_555
O4_9 Cd2 1_555 1_555
N1_9 C2_9 1_555 1_555
C1_9 C2_9 1_555 1_555
C2_9 C11_9 1_555 1_555
C3_9 C5_9 1_555 1_555
C4_9 N1_9 1_555 1_555
C5_9 O4_9 1_555 1_555
C6_9 C3_9 1_555 1_555
H1_9 C6_9 1_555 1_555
C7_9 C4_9 1_555 1_555
C8_9 C7_9 1_555 1_555
H2_9 C8_9 1_555 1_555
C9_9 C3_9 1_555 1_555
H3_9 C9_9 1_555 1_555
C10_9 C4_9 1_555 1_555
H4_9 C10_9 1_555 1_555
C11_9 C8_9 1_555 1_555
O6_5 Cd2 1_555 1_555
N2_9 Cd2 1_555 1_555
N1_9 Cd3_2 1_555 1_555
C6_9 C7_9 1_555 1_555
C9_9 C10_9 1_555 1_555
O6_5 C1_10 1_555 1_555
O2_8 C1_10 1_555 1_555
O3_4 C5_10 1_555 1_555
N2_5 C2_10 1_555 1_555
C1_10 C2_10 1_555 1_555
C2_10 C11_10 1_555 1_555
C3_10 C5_10 1_555 1_555
C4_10 N2_5 1_555 1_555
C5_10 O4_10 1_555 1_555
C6_10 C3_10 1_555 1_555
H1_10 C6_10 1_555 1_555
C7_10 C4_10 1_555 1_555
C8_10 C7_10 1_555 1_555
H2_10 C8_10 1_555 1_555
C9_10 C3_10 1_555 1_555
H3_10 C9_10 1_555 1_555
C10_10 C4_10 1_555 1_555
H4_10 C10_10 1_555 1_555
C11_10 C8_10 1_555 1_555
H5_8 C11_10 1_555 1_555
Cd3 O3_4 1_555 1_555
C6_10 C7_10 1_555 1_555
C9_10 C10_10 1_555 1_555
O7_7 Cd4_6 1_555 1_555
O6_6 C1_11 1_555 1_555
O2_9 C1_11 1_555 1_555
O3_5 C5_11 1_555 1_555
N2_6 C2_11 1_555 1_555
C1_11 C2_11 1_555 1_555
C2_11 C11_11 1_555 1_555
C3_11 C5_11 1_555 1_555
C4_11 N2_6 1_555 1_555
C5_11 O4_11 1_555 1_555
C6_11 C3_11 1_555 1_555
H1_11 C6_11 1_555 1_555
C7_11 C4_11 1_555 1_555
C8_11 C7_11 1_555 1_555
H2_11 C8_11 1_555 1_555
C9_11 C3_11 1_555 1_555
H3_11 C9_11 1_555 1_555
C10_11 C4_11 1_555 1_555
H4_11 C10_11 1_555 1_555
C11_11 C8_11 1_555 1_555
H5_9 C11_11 1_555 1_555
C6_11 C7_11 1_555 1_555
C9_11 C10_11 1_555 1_555
O6_4 C1_12 1_555 1_555
O2_10 C1_12 1_555 1_555
O3_6 C5_12 1_555 1_555
N2_4 C2_12 1_555 1_555
C1_12 C2_12 1_555 1_555
C2_12 C11_12 1_555 1_555
C3_12 C5_12 1_555 1_555
C4_12 N2_4 1_555 1_555
C5_12 O4_12 1_555 1_555
C6_12 C3_12 1_555 1_555
H1_12 C6_12 1_555 1_555
C7_12 C4_12 1_555 1_555
C8_12 C7_12 1_555 1_555
H2_12 C8_12 1_555 1_555
C9_12 C3_12 1_555 1_555
H3_12 C9_12 1_555 1_555
C10_12 C4_12 1_555 1_555
H4_12 C10_12 1_555 1_555
C11_12 C8_12 1_555 1_555
H5_10 C11_12 1_555 1_555
C6_12 C7_12 1_555 1_555
C9_12 C10_12 1_555 1_555
O6_2 C1_13 1_555 1_555
O2_11 C1_13 1_555 1_555
N2_2 C2_13 1_555 1_555
C1_13 C2_13 1_555 1_555
C2_13 C11_13 1_555 1_555
C4_13 N2_2 1_555 1_555
H1_13 C6_13 1_555 1_555
C7_13 C4_13 1_555 1_555
C8_13 C7_13 1_555 1_555
H2_13 C8_13 1_555 1_555
C11_13 C8_13 1_555 1_555
H5_11 C11_13 1_555 1_555
C6_13 C7_13 1_555 1_555
Cd4_3 O7_9 1_555 1_555
O7_9 C5_13 1_555 1_555
O4_13 Cd4_3 1_555 1_555
C3_13 C5_13 1_555 1_555
C5_13 O4_13 1_555 1_555
C9_13 C3_13 1_555 1_555
H3_13 C9_13 1_555 1_555
H4_13 C10_13 1_555 1_555
C9_13 C10_13 1_555 1_555
O6_3 C1_14 1_555 1_555
O2_12 C1_14 1_555 1_555
N2_3 C2_14 1_555 1_555
C1_14 C2_14 1_555 1_555
C2_14 C11_14 1_555 1_555
C4_14 N2_3 1_555 1_555
H1_14 C6_14 1_555 1_555
C7_14 C4_14 1_555 1_555
C8_14 C7_14 1_555 1_555
H2_14 C8_14 1_555 1_555
C11_14 C8_14 1_555 1_555
H5_12 C11_14 1_555 1_555
C6_14 C7_14 1_555 1_555
Cd4 O7_7 1_555 1_555
O7_7 C5_14 1_555 1_555
O4_14 Cd4 1_555 1_555
C3_14 C5_14 1_555 1_555
C5_14 O4_14 1_555 1_555
C9_14 C3_14 1_555 1_555
H3_14 C9_14 1_555 1_555
H4_14 C10_14 1_555 1_555
O7_11 Cd4 1_555 1_555
C9_14 C10_14 1_555 1_555
O6 C1_15 1_555 1_555
O2_13 C1_15 1_555 1_555
N2 C2_15 1_555 1_555
C1_15 C2_15 1_555 1_555
C2_15 C11_15 1_555 1_555
C4_15 N2 1_555 1_555
H1_15 C6_15 1_555 1_555
C7_15 C4_15 1_555 1_555
C8_15 C7_15 1_555 1_555
H2_15 C8_15 1_555 1_555
C11_15 C8_15 1_555 1_555
H5_13 C11_15 1_555 1_555
C6_15 C7_15 1_555 1_555
Cd4_2 O7_8 1_555 1_555
O7_8 C5_15 1_555 1_555
O4_15 Cd4_2 1_555 1_555
C3_15 C5_15 1_555 1_555
C5_15 O4_15 1_555 1_555
C9_15 C3_15 1_555 1_555
H3_15 C9_15 1_555 1_555
H4_15 C10_15 1_555 1_555
C9_15 C10_15 1_555 1_555
O7_12 C5_16 1_555 1_555
N2_8 C2_16 1_555 1_555
C1_16 C2_16 1_555 1_555
C2_16 C11_16 1_555 1_555
C3_16 C5_16 1_555 1_555
C4_16 N2_8 1_555 1_555
C5_16 O4_16 1_555 1_555
C6_16 C3_16 1_555 1_555
H1_16 C6_16 1_555 1_555
C7_16 C4_16 1_555 1_555
C8_16 C7_16 1_555 1_555
H2_16 C8_16 1_555 1_555
C9_16 C3_16 1_555 1_555
H3_16 C9_16 1_555 1_555
C10_16 C4_16 1_555 1_555
H4_16 C10_16 1_555 1_555
C11_16 C8_16 1_555 1_555
C6_16 C7_16 1_555 1_555
C9_16 C10_16 1_555 1_555
O5 C1_17 1_555 1_555
O7_10 C5_17 1_555 1_555
N2_9 C2_17 1_555 1_555
C1_17 C2_17 1_555 1_555
C2_17 C11_17 1_555 1_555
C3_17 C5_17 1_555 1_555
C4_17 N2_9 1_555 1_555
C5_17 O4_17 1_555 1_555
C6_17 C3_17 1_555 1_555
H1_17 C6_17 1_555 1_555
C7_17 C4_17 1_555 1_555
C8_17 C7_17 1_555 1_555
H2_17 C8_17 1_555 1_555
C9_17 C3_17 1_555 1_555
H3_17 C9_17 1_555 1_555
C10_17 C4_17 1_555 1_555
H4_17 C10_17 1_555 1_555
C11_17 C8_17 1_555 1_555
C6_17 C7_17 1_555 1_555
C9_17 C10_17 1_555 1_555
Cd3 O7_11 1_555 1_555
O7_11 C5_18 1_555 1_555
O4_18 Cd3 1_555 1_555
N2_7 C2_18 1_555 1_555
C1_18 C2_18 1_555 1_555
C2_18 C11_18 1_555 1_555
C3_18 C5_18 1_555 1_555
C4_18 N2_7 1_555 1_555
C5_18 O4_18 1_555 1_555
C6_18 C3_18 1_555 1_555
H1_18 C6_18 1_555 1_555
C7_18 C4_18 1_555 1_555
C8_18 C7_18 1_555 1_555
H2_18 C8_18 1_555 1_555
C9_18 C3_18 1_555 1_555
H3_18 C9_18 1_555 1_555
C10_18 C4_18 1_555 1_555
H4_18 C10_18 1_555 1_555
C11_18 C8_18 1_555 1_555
C6_18 C7_18 1_555 1_555
C9_18 C10_18 1_555 1_555

#END
