
###############################################################################
#
# This file contains modified crystal structure data generated from the
# MOF subset of the Cambridge Structural Database (CSD) v543 
# hosted by the Cambridge Crystallographic Data Centre (CCDC).
#
# This work is licensed under the Creative Commons
# Attribution-NonCommercial-ShareAlike 4.0 International License.
# To view a copy of this license, visit
# http://creativecommons.org/licenses/by-nc-sa/4.0/
# or send a letter to
# Creative Commons, PO Box 1866, Mountain View, CA 94042, USA.
#
# CIF created using the CSD Python API on 29 September 2022
# The structure has been converted into the P1 space group
# The structure has a 3D framework
# The original CSD entry ORIVUI is in the rhombohedral crystal system
# The framework has been calculated to contain at least 10.0% void space
# The void calculation uses a probe of radius 1.32A, grid spacing 0.4
# H atom positions have been added when not included in the experimental data
# Generated hydrogen atom positions removed from atoms on special positions
#
###############################################################################

data_ORIVUI
_chemical_formula_moiety         '(C72 H90 Ni18 O72)n'
_symmetry_cell_setting           triclinic
_symmetry_space_group_name_H-M   'P 1'
_symmetry_Int_Tables_number      1
_space_group_name_Hall           'P 1'
loop_
_symmetry_equiv_pos_site_id
_symmetry_equiv_pos_as_xyz
1 x,y,z
_cell_length_a                   25.8561(4)
_cell_length_b                   25.8561
_cell_length_c                   6.71185(24)
_cell_angle_alpha                90
_cell_angle_beta                 90
_cell_angle_gamma                120
_cell_volume                     3885.97
loop_
_atom_site_label
_atom_site_type_symbol
_atom_site_fract_x
_atom_site_fract_y
_atom_site_fract_z
Ni1 Ni 0.38377(8) 0.34887(7) 0.14453(20)
C1 C 0.32325(7) 0.20445(5) 0.28777(16)
C2 C 0.33607(10) 0.21763(6) 0.08652(21)
C4 C 0.31241(15) 0.24508(11) 0.41801(34)
O1 O 0.31488(18) 0.29103(11) 0.3458(5)
O2 O 0.30086(23) 0.23320(18) 0.59946(33)
O3 O 0.33872(20) 0.26699(12) 0.0089(4)
O4 O 0.47922 0.37306 0.25055
C5 C 0.34342(7) 0.12888(5) 0.04556(16)
C6 C 0.33060(10) 0.11570(6) 0.24681(21)
C7 C 0.32052(12) 0.15348(9) 0.36791(10)
H2 H 0.31057(22) 0.14324(16) 0.52422(17)
O7 O 0.32795(20) 0.06634(12) 0.3244(4)
Ni4 Ni 0.29843(11) 0.28290(8) 0.81120(20)
Ni6 Ni 0.31780(7) 0.36823(11) 0.47786(20)
Ni8 Ni 0.36823(11) 0.05044(8) 0.52214(20)
O10 O 0.30948(21) 0.35179(18) 0.0125(5)
O14 O 0.39968(12) 0.40506(23) 0.3422(4)
C3 C 0.34615(12) 0.17985(9) 0.96542(10)
H1 H 0.35610(22) 0.19009(16) 0.80911(17)
C8 C 0.35426(15) 0.08825(11) 0.91532(34)
O5 O 0.35179(18) 0.04230(11) 0.9875(5)
O6 O 0.36581(23) 0.10013(18) 0.73387(33)
O11 O 0.43347(18) 0.40099(29) 0.93279(33)
O15 O 0.40506(23) 0.00539(20) 0.6578(4)
Ni5 Ni 0.28290(8) 0.98446(7) 0.18880(20)
O12 O 0.40099(29) 0.96753(23) 0.06721(33)
Ni2 Ni 0.34887(7) 0.96510(11) 0.85547(20)
O8 O 0.37306 0.89384 0.74945
O9 O 0.29103(11) 0.97615(21) 0.6542(5)
O13 O 0.26699(12) 0.92827(23) 0.9911(4)
Ni5_2 Ni 0.01554(7) 0.29843(11) 0.18880(20)
O12_2 O 0.03247(23) 0.43347(37) 0.06721(33)
Ni2_2 Ni 0.03490(11) 0.38377(13) 0.85547(20)
O8_2 O 0.10616 0.47922 0.74945
O9_2 O 0.02385(21) 0.31488(24) 0.6542(5)
O13_2 O 0.07173(23) 0.33872(26) 0.9911(4)
Ni1_2 Ni 0.65113(7) 0.03490(11) 0.14453(20)
C1_2 C 0.79555(5) 0.11880(9) 0.28777(16)
C2_2 C 0.78237(6) 0.11844(12) 0.08652(21)
C4_2 C 0.75492(11) 0.06733(19) 0.41801(34)
O1_2 O 0.70897(11) 0.02385(21) 0.3458(5)
O2_2 O 0.76680(18) 0.06766(29) 0.59946(33)
O3_2 O 0.73301(12) 0.07173(23) 0.0089(4)
O4_2 O 0.62694 0.10616 0.25055
C5_2 C 0.87112(5) 0.21453(9) 0.04556(16)
C6_2 C 0.88430(6) 0.21489(12) 0.24681(21)
C7_2 C 0.84652(9) 0.16703(15) 0.36791(10)
H2_2 H 0.85676(16) 0.16732(27) 0.52422(17)
O7_2 O 0.93366(12) 0.26160(23) 0.3244(4)
Ni4_2 Ni 0.71710(8) 0.01554(14) 0.81120(20)
Ni8_2 Ni 0.94956(8) 0.31780(14) 0.52214(20)
C3_2 C 0.82015(9) 0.16630(15) 0.96542(10)
H1_2 H 0.80991(16) 0.16601(27) 0.80911(17)
C8_2 C 0.91175(11) 0.26600(19) 0.91532(34)
O5_2 O 0.95770(11) 0.30948(21) 0.9875(5)
O6_2 O 0.89987(18) 0.26567(29) 0.73387(33)
O11_2 O 0.59901(29) 0.03247(34) 0.93279(33)
O15_2 O 0.99461(20) 0.39968(30) 0.6578(4)
Ni6_2 Ni 0.63177(11) 0.94956(13) 0.47786(20)
O10_2 O 0.64821(18) 0.95770(28) 0.0125(5)
O14_2 O 0.59494(23) 0.99461(26) 0.3422(4)
Ni6_3 Ni 0.05044(13) 0.68220(7) 0.47786(20)
O10_3 O 0.04230(28) 0.69052(21) 0.0125(5)
O14_3 O 0.00539(26) 0.60032(12) 0.3422(4)
Ni1_3 Ni 0.96510(11) 0.61623(8) 0.14453(20)
C1_3 C 0.88120(9) 0.67675(7) 0.28777(16)
C2_3 C 0.88156(12) 0.66393(10) 0.08652(21)
C4_3 C 0.93267(19) 0.68759(15) 0.41801(34)
O1_3 O 0.97615(21) 0.68512(18) 0.3458(5)
O2_3 O 0.93234(29) 0.69914(23) 0.59946(33)
O3_3 O 0.92827(23) 0.66128(20) 0.0089(4)
O4_3 O 0.89384 0.52078 0.25055
C5_3 C 0.78547(9) 0.65658(7) 0.04556(16)
C6_3 C 0.78511(12) 0.66940(10) 0.24681(21)
C7_3 C 0.83297(15) 0.67948(12) 0.36791(10)
H2_3 H 0.83268(27) 0.68943(22) 0.52422(17)
O7_3 O 0.73840(23) 0.67205(20) 0.3244(4)
Ni4_3 Ni 0.98446(14) 0.70157(11) 0.81120(20)
Ni5_3 Ni 0.70157(11) 0.71710(8) 0.18880(20)
Ni8_3 Ni 0.68220(14) 0.63177(11) 0.52214(20)
O12_3 O 0.56653(37) 0.59901(29) 0.06721(33)
C3_3 C 0.83370(15) 0.65385(12) 0.96542(10)
H1_3 H 0.83399(27) 0.64390(22) 0.80911(17)
C8_3 C 0.73400(19) 0.64574(15) 0.91532(34)
O5_3 O 0.69052(21) 0.64821(18) 0.9875(5)
O6_3 O 0.73433(29) 0.63419(23) 0.73387(33)
Ni2_3 Ni 0.61623(13) 0.65113(7) 0.85547(20)
O8_3 O 0.52078 0.62694 0.74945
O9_3 O 0.68512(24) 0.70897(11) 0.6542(5)
O11_3 O 0.96753(34) 0.56653(18) 0.93279(33)
O13_3 O 0.66128(26) 0.73301(12) 0.9911(4)
O15_3 O 0.60032(30) 0.59494(23) 0.6578(4)
O4_4 O 0.81255 0.03973 0.91722
O10_4 O 0.64282(21) 0.01845(18) 0.6791(5)
C4_4 C 0.64574(15) 0.91175(11) 0.08468(34)
O2_4 O 0.63419(23) 0.89987(18) 0.26613(33)
C7_4 C 0.65385(12) 0.82015(9) 0.03458(10)
H2_4 H 0.64390(22) 0.80991(16) 0.19089(17)
C1_4 C 0.65658(7) 0.87112(5) 0.95444(16)
C2_4 C 0.66940(10) 0.88430(6) 0.75319(21)
C3_4 C 0.67948(12) 0.84652(9) 0.63209(10)
H1_4 H 0.68943(22) 0.85676(16) 0.47578(17)
O3_4 O 0.67205(20) 0.93366(12) 0.6756(4)
C5_4 C 0.67675(7) 0.79555(5) 0.71223(16)
C6_4 C 0.66393(10) 0.78237(6) 0.91348(21)
C8_4 C 0.68759(15) 0.75492(11) 0.58199(34)
O6_4 O 0.69914(23) 0.76680(18) 0.40054(33)
O8_4 O 0.70639 0.56051 0.41612
O9_4 O 0.62436(11) 0.64282(21) 0.3209(5)
O8_5 O 0.43949 0.14589 0.41612
C4_5 C 0.08825(11) 0.73400(19) 0.08468(34)
O2_5 O 0.10013(18) 0.73433(29) 0.26613(33)
C7_5 C 0.17985(9) 0.83370(15) 0.03458(10)
H2_5 H 0.19009(16) 0.83399(27) 0.19089(17)
C1_5 C 0.12888(5) 0.78547(9) 0.95444(16)
C2_5 C 0.11570(6) 0.78511(12) 0.75319(21)
C3_5 C 0.15348(9) 0.83297(15) 0.63209(10)
H1_5 H 0.14324(16) 0.83268(27) 0.47578(17)
O3_5 O 0.06634(12) 0.73840(23) 0.6756(4)
C5_5 C 0.20445(5) 0.88120(9) 0.71223(16)
C6_5 C 0.21763(6) 0.88156(12) 0.91348(21)
C8_5 C 0.24508(11) 0.93267(19) 0.58199(34)
O6_5 O 0.23320(18) 0.93234(29) 0.40054(33)
O9_5 O 0.35718(21) 0.98155(24) 0.3209(5)
O4_5 O 0.96027 0.77283 0.91722
O10_5 O 0.98155(18) 0.62436(28) 0.6791(5)
C4_6 C 0.26600(19) 0.35426(15) 0.08468(34)
O2_6 O 0.26567(29) 0.36581(23) 0.26613(33)
C7_6 C 0.16630(15) 0.34615(12) 0.03458(10)
H2_6 H 0.16601(27) 0.35610(22) 0.19089(17)
C1_6 C 0.21453(9) 0.34342(7) 0.95444(16)
C2_6 C 0.21489(12) 0.33060(10) 0.75319(21)
C3_6 C 0.16703(15) 0.32052(12) 0.63209(10)
H1_6 H 0.16732(27) 0.31057(22) 0.47578(17)
O3_6 O 0.26160(23) 0.32795(20) 0.6756(4)
O4_6 O 0.22717 0.18745 0.91722
C5_6 C 0.11880(9) 0.32325(7) 0.71223(16)
C6_6 C 0.11844(12) 0.33607(10) 0.91348(21)
C8_6 C 0.06733(19) 0.31241(15) 0.58199(34)
O6_6 O 0.06766(29) 0.30086(23) 0.40054(33)
O9_6 O 0.01845(24) 0.37564(11) 0.3209(5)
O10_6 O 0.37564(28) 0.35718(21) 0.6791(5)
O8_6 O 0.85411 0.29361 0.41612
C2_7 C 0.00274(10) 0.55096(6) 0.41985(21)
C3_7 C 0.01282(12) 0.51318(9) 0.29875(10)
H1_7 H 0.02277(22) 0.52342(16) 0.14244(17)
O4_7 O 0.14589 0.70639 0.58388
C5_7 C 0.01008(7) 0.46222(5) 0.37890(16)
C8_7 C 0.02092(15) 0.42159(11) 0.24866(34)
O8_7 O 0.03973 0.22717 0.08278
C1_7 C 0.98992(7) 0.53778(5) 0.62110(16)
C4_7 C 0.97908(15) 0.57841(11) 0.75134(34)
C6_7 C 0.99726(10) 0.44904(6) 0.58015(21)
C7_7 C 0.98718(12) 0.48682(9) 0.70125(10)
H2_7 H 0.97723(22) 0.47658(16) 0.85756(17)
C1_8 C 0.46222(5) 0.45213(9) 0.62110(16)
C2_8 C 0.44904(6) 0.45177(12) 0.41985(21)
C3_8 C 0.48682(9) 0.49963(15) 0.29875(10)
H1_8 H 0.47658(16) 0.49934(27) 0.14244(17)
C4_8 C 0.42159(11) 0.40066(19) 0.75134(34)
O4_8 O 0.29361 0.43949 0.58388
C5_8 C 0.53778(5) 0.54787(9) 0.37890(16)
C6_8 C 0.55096(6) 0.54823(12) 0.58015(21)
C7_8 C 0.51318(9) 0.50037(15) 0.70125(10)
H2_8 H 0.52342(16) 0.50066(27) 0.85756(17)
C8_8 C 0.57841(11) 0.59934(19) 0.24866(34)
O8_8 O 0.77283 0.81255 0.08278
C1_9 C 0.54787(9) 0.01008(7) 0.62110(16)
C4_9 C 0.59934(19) 0.02092(15) 0.75134(34)
C6_9 C 0.45177(12) 0.00274(10) 0.58015(21)
C7_9 C 0.49963(15) 0.01282(12) 0.70125(10)
H2_9 H 0.49934(27) 0.02277(22) 0.85756(17)
C2_9 C 0.54823(12) 0.99726(10) 0.41985(21)
C3_9 C 0.50037(15) 0.98718(12) 0.29875(10)
H1_9 H 0.50066(27) 0.97723(22) 0.14244(17)
O4_9 O 0.56051 0.85411 0.58388
C5_9 C 0.45213(9) 0.98992(7) 0.37890(16)
C8_9 C 0.40066(19) 0.97908(15) 0.24866(34)
O8_9 O 0.18745 0.96027 0.08278
loop_
_geom_bond_atom_site_label_1
_geom_bond_atom_site_label_2
_geom_bond_site_symmetry_1
_geom_bond_site_symmetry_2
Ni1 O1 1_555 1_555
C1 C2 1_555 1_555
C4 C1 1_555 1_555
O1 C4 1_555 1_555
O2 C4 1_555 1_555
O3 Ni1 1_555 1_555
O4 Ni1 1_555 1_555
C6 C5 1_555 1_555
C7 C1 1_555 1_555
H2 C7 1_555 1_555
O7 C6 1_555 1_555
Ni4 O2 1_555 1_555
Ni6 O1 1_555 1_555
Ni8 O7 1_555 1_555
O10 Ni1 1_555 1_555
O14 Ni1 1_555 1_555
C2 O3 1_555 1_555
C6 C7 1_555 1_555
Ni6 O14 1_555 1_555
C3 H1 1_555 1_555
O5 C8 1_555 1_555
O6 C8 1_555 1_555
Ni8 O6 1_555 1_555
Ni8 O15 1_555 1_555
O8 Ni2 1_555 1_555
O9 Ni2 1_555 1_555
O13 Ni2 1_555 1_555
O8_2 Ni2_2 1_555 1_555
O9_2 Ni2_2 1_555 1_555
O13_2 Ni2_2 1_555 1_555
Ni1_2 O1_2 1_555 1_555
C1_2 C2_2 1_555 1_555
C4_2 C1_2 1_555 1_555
O1_2 C4_2 1_555 1_555
O2_2 C4_2 1_555 1_555
O3_2 Ni1_2 1_555 1_555
O4_2 Ni1_2 1_555 1_555
C6_2 C5_2 1_555 1_555
C7_2 C1_2 1_555 1_555
H2_2 C7_2 1_555 1_555
O7_2 C6_2 1_555 1_555
Ni4_2 O2_2 1_555 1_555
Ni8_2 O7_2 1_555 1_555
C2_2 O3_2 1_555 1_555
C6_2 C7_2 1_555 1_555
C3_2 H1_2 1_555 1_555
O5_2 C8_2 1_555 1_555
O6_2 C8_2 1_555 1_555
Ni8_2 O6_2 1_555 1_555
Ni8_2 O15_2 1_555 1_555
Ni6_2 O14_2 1_555 1_555
Ni6_3 O14_3 1_555 1_555
Ni1_3 O1_3 1_555 1_555
C1_3 C2_3 1_555 1_555
C4_3 C1_3 1_555 1_555
O1_3 C4_3 1_555 1_555
O2_3 C4_3 1_555 1_555
O3_3 Ni1_3 1_555 1_555
O4_3 Ni1_3 1_555 1_555
C6_3 C5_3 1_555 1_555
C7_3 C1_3 1_555 1_555
H2_3 C7_3 1_555 1_555
O7_3 C6_3 1_555 1_555
Ni4_3 O2_3 1_555 1_555
Ni8_3 O7_3 1_555 1_555
C2_3 O3_3 1_555 1_555
C6_3 C7_3 1_555 1_555
O7_3 Ni5_3 1_555 1_555
C3_3 H1_3 1_555 1_555
O5_3 C8_3 1_555 1_555
O6_3 C8_3 1_555 1_555
Ni2_3 O5_3 1_555 1_555
O8_3 Ni2_3 1_555 1_555
Ni8_3 O6_3 1_555 1_555
O9_3 Ni2_3 1_555 1_555
O13_3 Ni2_3 1_555 1_555
O15_3 Ni2_3 1_555 1_555
Ni8_3 O9_3 1_555 1_555
Ni8_3 O15_3 1_555 1_555
O4_4 Ni4_2 1_555 1_555
O10_4 Ni4_2 1_555 1_555
O10_2 C4_4 1_555 1_555
O2_4 C4_4 1_555 1_555
H2_4 C7_4 1_555 1_555
Ni6_2 O2_4 1_555 1_555
C1_4 C2_4 1_555 1_555
C2_4 C3_4 1_555 1_555
C3_4 H1_4 1_555 1_555
C5_4 C3_4 1_555 1_555
C6_4 C5_4 1_555 1_555
C8_4 C5_4 1_555 1_555
O9_3 C8_4 1_555 1_555
O6_4 C8_4 1_555 1_555
O13_3 C6_4 1_555 1_555
O8_4 Ni8_3 1_555 1_555
Ni6_2 O3_4 1_555 1_555
Ni5_3 O6_4 1_555 1_555
O9_4 Ni8_3 1_555 1_555
C2_4 O3_4 1_555 1_555
Ni5_3 O9_4 1_555 1_555
O8_5 Ni8 1_555 1_555
O10_3 C4_5 1_555 1_555
O2_5 C4_5 1_555 1_555
H2_5 C7_5 1_555 1_555
Ni6_3 O2_5 1_555 1_555
C1_5 C2_5 1_555 1_555
C2_5 C3_5 1_555 1_555
C3_5 H1_5 1_555 1_555
C5_5 C3_5 1_555 1_555
C6_5 C5_5 1_555 1_555
C8_5 C5_5 1_555 1_555
O9 C8_5 1_555 1_555
O6_5 C8_5 1_555 1_555
O13 C6_5 1_555 1_555
Ni6_3 O3_5 1_555 1_555
Ni5 O6_5 1_555 1_555
C2_5 O3_5 1_555 1_555
Ni5 O9_5 1_555 1_555
O4_5 Ni4_3 1_555 1_555
O10_5 Ni4_3 1_555 1_555
O10 C4_6 1_555 1_555
O2_6 C4_6 1_555 1_555
H2_6 C7_6 1_555 1_555
Ni6 O2_6 1_555 1_555
C1_6 C2_6 1_555 1_555
C2_6 C3_6 1_555 1_555
C3_6 H1_6 1_555 1_555
O3_6 Ni4 1_555 1_555
O4_6 Ni4 1_555 1_555
C5_6 C3_6 1_555 1_555
C6_6 C5_6 1_555 1_555
C8_6 C5_6 1_555 1_555
O9_2 C8_6 1_555 1_555
O6_6 C8_6 1_555 1_555
O13_2 C6_6 1_555 1_555
Ni6 O3_6 1_555 1_555
Ni5_2 O6_6 1_555 1_555
O10_6 Ni4 1_555 1_555
C2_6 O3_6 1_555 1_555
Ni6 O10_6 1_555 1_555
Ni5_2 O9_6 1_555 1_555
O8_6 Ni8_2 1_555 1_555
C2_7 C3_7 1_555 1_555
C3_7 H1_7 1_555 1_555
O4_7 Ni6_3 1_555 1_555
C5_7 C3_7 1_555 1_555
C8_7 C5_7 1_555 1_555
O9_6 C8_7 1_555 1_555
O12_2 C8_7 1_555 1_555
O8_7 Ni5_2 1_555 1_555
C2_7 O14_3 1_555 1_555
C4_7 C1_7 1_555 1_555
O10_5 C4_7 1_555 1_555
O11_3 C4_7 1_555 1_555
C7_7 C1_7 1_555 1_555
H2_7 C7_7 1_555 1_555
O15_2 C6_7 1_555 1_555
C6_7 C7_7 1_555 1_555
C1_8 C2_8 1_555 1_555
C2_8 C3_8 1_555 1_555
C3_8 H1_8 1_555 1_555
C4_8 C1_8 1_555 1_555
O10_6 C4_8 1_555 1_555
O11 C4_8 1_555 1_555
O4_8 Ni6 1_555 1_555
C5_8 C3_8 1_555 1_555
C6_8 C5_8 1_555 1_555
C7_8 C1_8 1_555 1_555
H2_8 C7_8 1_555 1_555
C8_8 C5_8 1_555 1_555
O9_4 C8_8 1_555 1_555
O12_3 C8_8 1_555 1_555
O15_3 C6_8 1_555 1_555
O8_8 Ni5_3 1_555 1_555
C2_8 O14 1_555 1_555
C6_8 C7_8 1_555 1_555
C4_9 C1_9 1_555 1_555
O10_4 C4_9 1_555 1_555
O11_2 C4_9 1_555 1_555
C7_9 C1_9 1_555 1_555
H2_9 C7_9 1_555 1_555
O15 C6_9 1_555 1_555
C6_9 C7_9 1_555 1_555
C2_9 C3_9 1_555 1_555
C3_9 H1_9 1_555 1_555
O4_9 Ni6_2 1_555 1_555
C5_9 C3_9 1_555 1_555
C8_9 C5_9 1_555 1_555
O9_5 C8_9 1_555 1_555
O12 C8_9 1_555 1_555
O8_9 Ni5 1_555 1_555
C2_9 O14_2 1_555 1_555

#END
