
###############################################################################
#
# This file contains modified crystal structure data generated from the
# MOF subset of the Cambridge Structural Database (CSD) v543 
# hosted by the Cambridge Crystallographic Data Centre (CCDC).
#
# This work is licensed under the Creative Commons
# Attribution-NonCommercial-ShareAlike 4.0 International License.
# To view a copy of this license, visit
# http://creativecommons.org/licenses/by-nc-sa/4.0/
# or send a letter to
# Creative Commons, PO Box 1866, Mountain View, CA 94042, USA.
#
# CIF created using the CSD Python API on 29 September 2022
# The structure has been converted into the P1 space group
# The structure has a 3D framework
# The original CSD entry ORUKET is in the hexagonal crystal system
# The framework has been calculated to contain at least 10.0% void space
# The void calculation uses a probe of radius 1.32A, grid spacing 0.4
# The framework is charged, counterions have been retained in the structure
#
###############################################################################

data_ORUKET
_chemical_formula_moiety         '(C168 H120 Mg6 N12 O84 P12 12-)n'
_symmetry_cell_setting           triclinic
_symmetry_space_group_name_H-M   'P 1'
_symmetry_Int_Tables_number      1
_space_group_name_Hall           'P 1'
loop_
_symmetry_equiv_pos_site_id
_symmetry_equiv_pos_as_xyz
1 x,y,z
_cell_length_a                   18.5710(13)
_cell_length_b                   18.5710(13)
_cell_length_c                   28.8779(15)
_cell_angle_alpha                90
_cell_angle_beta                 90
_cell_angle_gamma                120
_cell_volume                     8625.15
loop_
_atom_site_label
_atom_site_type_symbol
_atom_site_fract_x
_atom_site_fract_y
_atom_site_fract_z
O13 O 0.0387(5) 0.3076(6) 0.8158(3)
O14 O 0.1052(2) 0.4421(3) 0.80080(14)
C22 C 0.0508(4) 0.3800(6) 0.8198(2)
H18 H 0.0497 0.5115 0.8496
Mg6 Mg 0.19231(20) 0.46969(14) 0.7500
Mg1 Mg 0.46969(14) 0.27738(14) 0.2500
O3 O 0.3774(2) 0.1278(3) 0.17005(14)
O4 O 0.5012(2) 0.2192(2) 0.19891(12)
O7 O 0.3398(3) 0.1810(3) 0.2500
H1 H 0.3208 0.1693 0.2774
O8 O 0.5905(3) 0.3710(3) 0.2500
H2 H 0.6020 0.3952 0.2762
C1 C 0.4549(3) 0.1701(3) 0.16716(18)
C2 C 0.4938(3) 0.1658(3) 0.12324(15)
C3 C 0.4427(3) 0.1218(3) 0.08532(17)
H3 H 0.3853 0.0940 0.0890
C4 C 0.4751(3) 0.1188(3) 0.04338(17)
H4 H 0.4402 0.0907 0.0186
C5 C 0.5618(3) 0.1587(3) 0.03816(16)
C6 C 0.6139(3) 0.2007(3) 0.07542(18)
H5 H 0.6713 0.2256 0.0720
C7 C 0.5807(3) 0.2055(3) 0.11760(17)
H6 H 0.6158 0.2348 0.1421
O11 O 0.8722(3) 0.2496(4) 0.17005(14)
O12 O 0.7808(2) 0.2820(3) 0.19891(12)
C15 C 0.8299(3) 0.2848(4) 0.16716(18)
C16 C 0.8342(3) 0.3280(4) 0.12324(15)
C17 C 0.8782(3) 0.3209(4) 0.08532(17)
H11 H 0.9060 0.2913 0.0890
C18 C 0.8812(3) 0.3563(4) 0.04338(17)
H12 H 0.9093 0.3495 0.0186
C19 C 0.8413(3) 0.4031(4) 0.03816(16)
C20 C 0.7993(3) 0.4132(4) 0.07542(18)
H13 H 0.7744 0.4457 0.0720
C21 C 0.7945(3) 0.3752(4) 0.11760(17)
H14 H 0.7652 0.3810 0.1421
O17 O 0.7504(4) 0.6226(2) 0.17005(14)
O18 O 0.7180(3) 0.4988(2) 0.19891(12)
C29 C 0.7152(4) 0.5451(3) 0.16716(18)
C30 C 0.6720(4) 0.5062(3) 0.12324(15)
C31 C 0.6791(4) 0.5573(3) 0.08532(17)
H19 H 0.7087 0.6147 0.0890
C32 C 0.6437(4) 0.5249(3) 0.04338(17)
H20 H 0.6505 0.5598 0.0186
C33 C 0.5969(4) 0.4382(3) 0.03816(16)
C34 C 0.5868(4) 0.3861(3) 0.07542(18)
H21 H 0.5543 0.3287 0.0720
C35 C 0.6248(4) 0.4193(3) 0.11760(17)
H22 H 0.6190 0.3842 0.1421
H27 H 0.3208 0.1693 0.2226
H28 H 0.6020 0.3952 0.2238
Mg2 Mg 0.72262(14) 0.19231(20) 0.2500
O21 O 0.8190(3) 0.1588(4) 0.2500
H29 H 0.8307 0.1515 0.2774
O22 O 0.6290(3) 0.2195(4) 0.2500
H30 H 0.6048 0.2068 0.2762
H31 H 0.8307 0.1515 0.2226
H32 H 0.6048 0.2068 0.2238
Mg3 Mg 0.80769(20) 0.53031(14) 0.2500
O23 O 0.8412(4) 0.6602(3) 0.2500
H33 H 0.8485 0.6792 0.2774
O24 O 0.7805(4) 0.4095(3) 0.2500
H34 H 0.7932 0.3980 0.2762
H35 H 0.8485 0.6792 0.2226
H36 H 0.7932 0.3980 0.2238
O29 O 0.7311(4) 0.0387(5) 0.1842(3)
O30 O 0.6631(2) 0.1052(2) 0.19920(14)
C50 C 0.6708(4) 0.0508(4) 0.1802(2)
H44 H 0.5382 0.0497 0.1504
O43 O 0.7180(3) 0.4988(2) 0.30109(12)
O44 O 0.5012(2) 0.2192(2) 0.30109(12)
O45 O 0.7808(2) 0.2820(3) 0.30109(12)
O46 O 0.4421(3) 0.3369(2) 0.30080(14)
O47 O 0.6631(2) 0.1052(2) 0.30080(14)
O48 O 0.8948(2) 0.5579(3) 0.30080(14)
O49 O 0.8948(2) 0.5579(3) 0.19920(14)
O50 O 0.4421(3) 0.3369(2) 0.19920(14)
P1 P 0.62764(8) 0.23559(8) 0.96178(4)
O1 O 0.5946(2) 0.1573(2) 0.99521(11)
O2 O 0.6184(2) 0.1928(2) 0.91324(12)
N1 N 0.5700(3) 0.2753(3) 0.96721(14)
C9 C 0.4039(4) 0.0154(4) 0.8470(2)
C10 C 0.4113(5) 0.0895(6) 0.8599(4)
H7 H 0.3684 0.1001 0.8531
C11 C 0.4821(6) 0.1502(5) 0.8832(3)
H8 H 0.4875 0.2010 0.8916
C12 C 0.5422(3) 0.1316(3) 0.89281(17)
C13 C 0.5367(4) 0.0590(4) 0.8819(2)
H9 H 0.5786 0.0479 0.8899
C14 C 0.4662(4) 0.0007(3) 0.8581(2)
P2 P 0.76441(8) 0.39205(11) 0.96178(4)
O9 O 0.8427(2) 0.4373(3) 0.99521(11)
O10 O 0.8072(2) 0.4256(3) 0.91324(12)
N2 N 0.7247(3) 0.2947(4) 0.96721(14)
C23 C 0.9846(4) 0.3885(6) 0.8470(2)
C24 C 0.9105(6) 0.3218(8) 0.8599(4)
H15 H 0.8999 0.2683 0.8531
C25 C 0.8498(5) 0.3319(8) 0.8832(3)
H16 H 0.7990 0.2865 0.8916
C26 C 0.8684(3) 0.4106(4) 0.89281(17)
C27 C 0.9410(4) 0.4777(6) 0.8819(2)
H17 H 0.9521 0.5307 0.8899
C28 C 0.9993(3) 0.4655(5) 0.8581(2)
P3 P 0.60795(11) 0.37236(8) 0.96178(4)
O15 O 0.5627(3) 0.4054(2) 0.99521(11)
O16 O 0.5744(3) 0.3816(2) 0.91324(12)
O19 O 0.6924(6) 0.7311(4) 0.8158(3)
O20 O 0.5579(3) 0.6631(2) 0.80080(14)
N3 N 0.7053(4) 0.4300(3) 0.96721(14)
C36 C 0.6200(6) 0.6708(4) 0.8198(2)
C37 C 0.6115(6) 0.5961(4) 0.8470(2)
C38 C 0.6782(8) 0.5887(5) 0.8599(4)
H23 H 0.7317 0.6316 0.8531
C39 C 0.6681(8) 0.5179(6) 0.8832(3)
H24 H 0.7135 0.5125 0.8916
C40 C 0.5894(4) 0.4578(3) 0.89281(17)
C41 C 0.5223(6) 0.4633(4) 0.8819(2)
H25 H 0.4693 0.4214 0.8899
C42 C 0.5345(5) 0.5338(4) 0.8581(2)
H26 H 0.4885 0.5382 0.8496
Mg8 Mg 0.53031(14) 0.72262(14) 0.7500
P4 P 0.37236(8) 0.76441(8) 0.03822(4)
O25 O 0.4054(2) 0.8427(2) 0.00479(11)
O26 O 0.3816(2) 0.8072(2) 0.08676(12)
N4 N 0.4300(3) 0.7247(3) 0.03279(14)
C51 C 0.5961(4) 0.9846(4) 0.1530(2)
C52 C 0.5887(5) 0.9105(6) 0.1401(4)
H41 H 0.6316 0.8999 0.1469
C53 C 0.5179(6) 0.8498(5) 0.1168(3)
H42 H 0.5125 0.7990 0.1084
C54 C 0.4578(3) 0.8684(3) 0.10719(17)
C55 C 0.4633(4) 0.9410(4) 0.1181(2)
H43 H 0.4214 0.9521 0.1101
C56 C 0.5338(4) 0.9993(3) 0.1419(2)
P5 P 0.23559(8) 0.60795(11) 0.03822(4)
O31 O 0.1573(2) 0.5627(3) 0.00479(11)
O32 O 0.1928(2) 0.5744(3) 0.08676(12)
N5 N 0.2753(3) 0.7053(4) 0.03279(14)
C65 C 0.0154(4) 0.6115(6) 0.1530(2)
C66 C 0.0895(6) 0.6782(8) 0.1401(4)
H49 H 0.1001 0.7317 0.1469
C67 C 0.1502(5) 0.6681(8) 0.1168(3)
H50 H 0.2010 0.7135 0.1084
C68 C 0.1316(3) 0.5894(4) 0.10719(17)
C69 C 0.0590(4) 0.5223(6) 0.1181(2)
H51 H 0.0479 0.4693 0.1101
C70 C 0.0007(3) 0.5345(5) 0.1419(2)
P6 P 0.39205(11) 0.62764(8) 0.03822(4)
O37 O 0.4373(3) 0.5946(2) 0.00479(11)
O38 O 0.4256(3) 0.6184(2) 0.08676(12)
O41 O 0.3076(6) 0.2689(4) 0.1842(3)
N6 N 0.2947(4) 0.5700(3) 0.03279(14)
C78 C 0.3800(6) 0.3292(4) 0.1802(2)
C79 C 0.3885(6) 0.4039(4) 0.1530(2)
C80 C 0.3218(8) 0.4113(5) 0.1401(4)
H57 H 0.2683 0.3684 0.1469
C81 C 0.3319(8) 0.4821(6) 0.1168(3)
H58 H 0.2865 0.4875 0.1084
C82 C 0.4106(4) 0.5422(3) 0.10719(17)
C83 C 0.4777(6) 0.5367(4) 0.1181(2)
H59 H 0.5307 0.5786 0.1101
C84 C 0.4655(5) 0.4662(4) 0.1419(2)
H60 H 0.5115 0.4618 0.1504
O5 O 0.2689(4) 0.9613(5) 0.8158(3)
O6 O 0.3369(2) 0.8948(2) 0.80080(14)
C8 C 0.3292(4) 0.9492(4) 0.8198(2)
H10 H 0.4618 0.9503 0.8496
O27 O 0.6226(2) 0.8722(3) 0.82995(14)
O28 O 0.4988(2) 0.7808(2) 0.80109(12)
C43 C 0.5451(3) 0.8299(3) 0.83284(18)
C44 C 0.5062(3) 0.8342(3) 0.87676(15)
C45 C 0.5573(3) 0.8782(3) 0.91468(17)
H37 H 0.6147 0.9060 0.9110
C46 C 0.5249(3) 0.8812(3) 0.95662(17)
H38 H 0.5598 0.9093 0.9814
C47 C 0.4382(3) 0.8413(3) 0.96184(16)
C48 C 0.3861(3) 0.7993(3) 0.92458(18)
H39 H 0.3287 0.7744 0.9280
C49 C 0.4193(3) 0.7945(3) 0.88240(17)
H40 H 0.3842 0.7652 0.8579
O33 O 0.1278(3) 0.7504(4) 0.82995(14)
O34 O 0.2192(2) 0.7180(3) 0.80109(12)
C57 C 0.1701(3) 0.7152(4) 0.83284(18)
C58 C 0.1658(3) 0.6720(4) 0.87676(15)
C59 C 0.1218(3) 0.6791(4) 0.91468(17)
H45 H 0.0940 0.7087 0.9110
C60 C 0.1188(3) 0.6437(4) 0.95662(17)
H46 H 0.0907 0.6505 0.9814
C61 C 0.1587(3) 0.5969(4) 0.96184(16)
C62 C 0.2007(3) 0.5868(4) 0.92458(18)
H47 H 0.2256 0.5543 0.9280
C63 C 0.2055(3) 0.6248(4) 0.88240(17)
H48 H 0.2348 0.6190 0.8579
O39 O 0.2496(4) 0.3774(2) 0.82995(14)
O40 O 0.2820(3) 0.5012(2) 0.80109(12)
C71 C 0.2848(4) 0.4549(3) 0.83284(18)
C72 C 0.3280(4) 0.4938(3) 0.87676(15)
C73 C 0.3209(4) 0.4427(3) 0.91468(17)
H53 H 0.2913 0.3853 0.9110
C74 C 0.3563(4) 0.4751(3) 0.95662(17)
H54 H 0.3495 0.4402 0.9814
C75 C 0.4031(4) 0.5618(3) 0.96184(16)
C76 C 0.4132(4) 0.6139(3) 0.92458(18)
H55 H 0.4457 0.6713 0.9280
C77 C 0.3752(4) 0.5807(3) 0.88240(17)
H56 H 0.3810 0.6158 0.8579
Mg10 Mg 0.27738(14) 0.80769(20) 0.7500
O35 O 0.9613(5) 0.6924(6) 0.1842(3)
C64 C 0.9492(4) 0.6200(6) 0.1802(2)
H52 H 0.9503 0.4885 0.1504
O41_2 O 0.0387(7) 0.3076(6) 0.6842(3)
O42 O 0.1052(4) 0.4421(3) 0.69920(14)
C78_2 C 0.0508(7) 0.3800(6) 0.6802(2)
H60_2 H 0.0497 0.5115 0.6504
O13_2 O 0.7311(8) 0.0387(5) 0.3158(3)
C22_2 C 0.6708(7) 0.0508(4) 0.3198(2)
H18_2 H 0.5382 0.0497 0.3496
P1_2 P 0.39205(11) 0.62764(8) 0.46178(4)
O1_2 O 0.4373(3) 0.5946(2) 0.49521(11)
O2_2 O 0.4256(3) 0.6184(2) 0.41324(12)
O3_2 O 0.2496(4) 0.3774(2) 0.67005(14)
O4_2 O 0.2820(3) 0.5012(2) 0.69891(12)
O5_2 O 0.3076(6) 0.2689(4) 0.3158(3)
O7_2 O 0.1588(4) 0.3398(3) 0.7500
H1_2 H 0.1515 0.3208 0.7774
O8_2 O 0.2195(4) 0.5905(3) 0.7500
H2_2 H 0.2068 0.6020 0.7762
N1_2 N 0.2947(4) 0.5700(3) 0.46721(14)
C1_2 C 0.2848(4) 0.4549(3) 0.66716(18)
C2_2 C 0.3280(4) 0.4938(3) 0.62324(15)
C3_2 C 0.3209(4) 0.4427(3) 0.58532(17)
H3_2 H 0.2913 0.3853 0.5890
C4_2 C 0.3563(4) 0.4751(3) 0.54338(17)
H4_2 H 0.3495 0.4402 0.5186
C5_2 C 0.4031(4) 0.5618(3) 0.53816(16)
C6_2 C 0.4132(4) 0.6139(3) 0.57542(18)
H5_2 H 0.4457 0.6713 0.5720
C7_2 C 0.3752(4) 0.5807(3) 0.61760(17)
H6_2 H 0.3810 0.6158 0.6421
C8_2 C 0.3800(6) 0.3292(4) 0.3198(2)
C9_2 C 0.3885(6) 0.4039(4) 0.3470(2)
C10_2 C 0.3218(8) 0.4113(5) 0.3599(4)
H7_2 H 0.2683 0.3684 0.3531
C11_2 C 0.3319(8) 0.4821(6) 0.3832(3)
H8_2 H 0.2865 0.4875 0.3916
C12_2 C 0.4106(4) 0.5422(3) 0.39281(17)
C13_2 C 0.4777(6) 0.5367(4) 0.3819(2)
H9_2 H 0.5307 0.5786 0.3899
C14_2 C 0.4655(5) 0.4662(4) 0.3581(2)
H10_2 H 0.5115 0.4618 0.3496
P2_2 P 0.37236(14) 0.76441(8) 0.46178(4)
O9_2 O 0.4054(4) 0.8427(2) 0.49521(11)
O10_2 O 0.3816(4) 0.8072(2) 0.41324(12)
O11_2 O 0.6226(5) 0.8722(3) 0.67005(14)
O12_2 O 0.4988(4) 0.7808(2) 0.69891(12)
N2_2 N 0.4300(5) 0.7247(3) 0.46721(14)
C15_2 C 0.5451(5) 0.8299(3) 0.66716(18)
C16_2 C 0.5062(5) 0.8342(3) 0.62324(15)
C17_2 C 0.5573(5) 0.8782(3) 0.58532(17)
H11_2 H 0.6147 0.9060 0.5890
C18_2 C 0.5249(5) 0.8812(3) 0.54338(17)
H12_2 H 0.5598 0.9093 0.5186
C19_2 C 0.4382(5) 0.8413(3) 0.53816(16)
C20_2 C 0.3861(5) 0.7993(3) 0.57542(18)
H13_2 H 0.3287 0.7744 0.5720
C21_2 C 0.4193(5) 0.7945(3) 0.61760(17)
H14_2 H 0.3842 0.7652 0.6421
C23_2 C 0.5961(7) 0.9846(4) 0.3470(2)
C24_2 C 0.5887(10) 0.9105(6) 0.3599(4)
H15_2 H 0.6316 0.8999 0.3531
C25_2 C 0.5179(9) 0.8498(5) 0.3832(3)
H16_2 H 0.5125 0.7990 0.3916
C26_2 C 0.4578(5) 0.8684(3) 0.39281(17)
C27_2 C 0.4633(7) 0.9410(4) 0.3819(2)
H17_2 H 0.4214 0.9521 0.3899
C28_2 C 0.5338(6) 0.9993(3) 0.3581(2)
P3_2 P 0.23559(14) 0.60795(11) 0.46178(4)
O15_2 O 0.1573(4) 0.5627(3) 0.49521(11)
O16_2 O 0.1928(4) 0.5744(3) 0.41324(12)
O17_2 O 0.1278(4) 0.7504(4) 0.67005(14)
O18_2 O 0.2192(4) 0.7180(3) 0.69891(12)
N3_2 N 0.2753(5) 0.7053(4) 0.46721(14)
C29_2 C 0.1701(5) 0.7152(4) 0.66716(18)
C30_2 C 0.1658(5) 0.6720(4) 0.62324(15)
C31_2 C 0.1218(5) 0.6791(4) 0.58532(17)
H19_2 H 0.0940 0.7087 0.5890
C32_2 C 0.1188(5) 0.6437(4) 0.54338(17)
H20_2 H 0.0907 0.6505 0.5186
C33_2 C 0.1587(5) 0.5969(4) 0.53816(16)
C34_2 C 0.2007(5) 0.5868(4) 0.57542(18)
H21_2 H 0.2256 0.5543 0.5720
C35_2 C 0.2055(5) 0.6248(4) 0.61760(17)
H22_2 H 0.2348 0.6190 0.6421
C37_2 C 0.0154(7) 0.6115(6) 0.3470(2)
C38_2 C 0.0895(9) 0.6782(8) 0.3599(4)
H23_2 H 0.1001 0.7317 0.3531
C39_2 C 0.1502(10) 0.6681(8) 0.3832(3)
H24_2 H 0.2010 0.7135 0.3916
C40_2 C 0.1316(5) 0.5894(4) 0.39281(17)
C41_2 C 0.0590(7) 0.5223(6) 0.3819(2)
H25_2 H 0.0479 0.4693 0.3899
C42_2 C 0.0007(6) 0.5345(5) 0.3581(2)
H27_2 H 0.1515 0.3208 0.7226
H28_2 H 0.2068 0.6020 0.7238
O21_2 O 0.6602(5) 0.8190(3) 0.7500
H29_2 H 0.6792 0.8307 0.7774
O22_2 O 0.4095(5) 0.6290(3) 0.7500
H30_2 H 0.3980 0.6048 0.7762
H31_2 H 0.6792 0.8307 0.7226
H32_2 H 0.3980 0.6048 0.7238
O23_2 O 0.1810(5) 0.8412(4) 0.7500
H33_2 H 0.1693 0.8485 0.7774
O24_2 O 0.3710(5) 0.7805(4) 0.7500
H34_2 H 0.3952 0.7932 0.7762
H35_2 H 0.1693 0.8485 0.7226
H36_2 H 0.3952 0.7932 0.7238
P4_2 P 0.60795(11) 0.37236(8) 0.53822(4)
O25_2 O 0.5627(3) 0.4054(2) 0.50479(11)
O26_2 O 0.5744(3) 0.3816(2) 0.58676(12)
O27_2 O 0.7504(4) 0.6226(2) 0.32995(14)
O29_2 O 0.6924(6) 0.7311(4) 0.6842(3)
O30_2 O 0.5579(3) 0.6631(2) 0.69920(14)
N4_2 N 0.7053(4) 0.4300(3) 0.53279(14)
C43_2 C 0.7152(4) 0.5451(3) 0.33284(18)
C44_2 C 0.6720(4) 0.5062(3) 0.37676(15)
C45_2 C 0.6791(4) 0.5573(3) 0.41468(17)
H37_2 H 0.7087 0.6147 0.4110
C46_2 C 0.6437(4) 0.5249(3) 0.45662(17)
H38_2 H 0.6505 0.5598 0.4814
C47_2 C 0.5969(4) 0.4382(3) 0.46184(16)
C48_2 C 0.5868(4) 0.3861(3) 0.42458(18)
H39_2 H 0.5543 0.3287 0.4280
C49_2 C 0.6248(4) 0.4193(3) 0.38240(17)
H40_2 H 0.6190 0.3842 0.3579
C50_2 C 0.6200(6) 0.6708(4) 0.6802(2)
C51_2 C 0.6115(6) 0.5961(4) 0.6530(2)
C52_2 C 0.6782(8) 0.5887(5) 0.6401(4)
H41_2 H 0.7317 0.6316 0.6469
C53_2 C 0.6681(8) 0.5179(6) 0.6168(3)
H42_2 H 0.7135 0.5125 0.6084
C54_2 C 0.5894(4) 0.4578(3) 0.60719(17)
C55_2 C 0.5223(6) 0.4633(4) 0.6181(2)
H43_2 H 0.4693 0.4214 0.6101
C56_2 C 0.5345(5) 0.5338(4) 0.6419(2)
H44_2 H 0.4885 0.5382 0.6504
P5_2 P 0.62764(14) 0.23559(8) 0.53822(4)
O31_2 O 0.5946(4) 0.1573(2) 0.50479(11)
O32_2 O 0.6184(4) 0.1928(2) 0.58676(12)
O33_2 O 0.3774(5) 0.1278(3) 0.32995(14)
N5_2 N 0.5700(5) 0.2753(3) 0.53279(14)
C57_2 C 0.4549(5) 0.1701(3) 0.33284(18)
C58_2 C 0.4938(5) 0.1658(3) 0.37676(15)
C59_2 C 0.4427(5) 0.1218(3) 0.41468(17)
H45_2 H 0.3853 0.0940 0.4110
C60_2 C 0.4751(5) 0.1188(3) 0.45662(17)
H46_2 H 0.4402 0.0907 0.4814
C61_2 C 0.5618(5) 0.1587(3) 0.46184(16)
C62_2 C 0.6139(5) 0.2007(3) 0.42458(18)
H47_2 H 0.6713 0.2256 0.4280
C63_2 C 0.5807(5) 0.2055(3) 0.38240(17)
H48_2 H 0.6158 0.2348 0.3579
C65_2 C 0.4039(7) 0.0154(4) 0.6530(2)
C66_2 C 0.4113(10) 0.0895(6) 0.6401(4)
H49_2 H 0.3684 0.1001 0.6469
C67_2 C 0.4821(9) 0.1502(5) 0.6168(3)
H50_2 H 0.4875 0.2010 0.6084
C68_2 C 0.5422(5) 0.1316(3) 0.60719(17)
C69_2 C 0.5367(7) 0.0590(4) 0.6181(2)
H51_2 H 0.5786 0.0479 0.6101
C70_2 C 0.4662(6) 0.0007(3) 0.6419(2)
P6_2 P 0.76441(14) 0.39205(11) 0.53822(4)
O37_2 O 0.8427(4) 0.4373(3) 0.50479(11)
O38_2 O 0.8072(4) 0.4256(3) 0.58676(12)
O39_2 O 0.8722(4) 0.2496(4) 0.32995(14)
N6_2 N 0.7247(5) 0.2947(4) 0.53279(14)
C71_2 C 0.8299(5) 0.2848(4) 0.33284(18)
C72_2 C 0.8342(5) 0.3280(4) 0.37676(15)
C73_2 C 0.8782(5) 0.3209(4) 0.41468(17)
H53_2 H 0.9060 0.2913 0.4110
C74_2 C 0.8812(5) 0.3563(4) 0.45662(17)
H54_2 H 0.9093 0.3495 0.4814
C75_2 C 0.8413(5) 0.4031(4) 0.46184(16)
C76_2 C 0.7993(5) 0.4132(4) 0.42458(18)
H55_2 H 0.7744 0.4457 0.4280
C77_2 C 0.7945(5) 0.3752(4) 0.38240(17)
H56_2 H 0.7652 0.3810 0.3579
C79_2 C 0.9846(7) 0.3885(6) 0.6530(2)
C80_2 C 0.9105(9) 0.3218(8) 0.6401(4)
H57_2 H 0.8999 0.2683 0.6469
C81_2 C 0.8498(10) 0.3319(8) 0.6168(3)
H58_2 H 0.7990 0.2865 0.6084
C82_2 C 0.8684(5) 0.4106(4) 0.60719(17)
C83_2 C 0.9410(7) 0.4777(6) 0.6181(2)
H59_2 H 0.9521 0.5307 0.6101
C84_2 C 0.9993(6) 0.4655(5) 0.6419(2)
O49_2 O 0.3369(4) 0.8948(2) 0.69920(14)
O35_2 O 0.2689(8) 0.9613(5) 0.6842(3)
C64_2 C 0.3292(7) 0.9492(4) 0.6802(2)
H52_2 H 0.4618 0.9503 0.6504
O19_2 O 0.9613(7) 0.6924(6) 0.3158(3)
C36_2 C 0.9492(7) 0.6200(6) 0.3198(2)
H26_2 H 0.9503 0.4885 0.3496
loop_
_geom_bond_atom_site_label_1
_geom_bond_atom_site_label_2
_geom_bond_site_symmetry_1
_geom_bond_site_symmetry_2
O13 C22 1_555 1_555
O14 C22 1_555 1_555
Mg6 O14 1_555 1_555
Mg1 O4 1_555 1_555
O3 C1 1_555 1_555
O4 C1 1_555 1_555
O7 Mg1 1_555 1_555
H1 O7 1_555 1_555
O8 Mg1 1_555 1_555
H2 O8 1_555 1_555
C1 C2 1_555 1_555
C2 C3 1_555 1_555
C3 H3 1_555 1_555
C4 C3 1_555 1_555
H4 C4 1_555 1_555
C5 C4 1_555 1_555
C6 C5 1_555 1_555
H5 C6 1_555 1_555
C7 C2 1_555 1_555
H6 C7 1_555 1_555
O11 C15 1_555 1_555
O12 C15 1_555 1_555
C15 C16 1_555 1_555
C16 C17 1_555 1_555
C17 H11 1_555 1_555
C18 C17 1_555 1_555
H12 C18 1_555 1_555
C19 C18 1_555 1_555
C20 C19 1_555 1_555
H13 C20 1_555 1_555
C21 C16 1_555 1_555
H14 C21 1_555 1_555
O17 C29 1_555 1_555
O18 C29 1_555 1_555
C29 C30 1_555 1_555
C30 C31 1_555 1_555
C31 H19 1_555 1_555
C32 C31 1_555 1_555
H20 C32 1_555 1_555
C34 C33 1_555 1_555
H21 C34 1_555 1_555
C35 C30 1_555 1_555
H22 C35 1_555 1_555
H27 O7 1_555 1_555
H28 O8 1_555 1_555
Mg2 O12 1_555 1_555
O21 Mg2 1_555 1_555
H29 O21 1_555 1_555
O22 Mg2 1_555 1_555
H30 O22 1_555 1_555
H31 O21 1_555 1_555
H32 O22 1_555 1_555
Mg3 O18 1_555 1_555
O23 Mg3 1_555 1_555
H33 O23 1_555 1_555
O24 Mg3 1_555 1_555
H34 O24 1_555 1_555
H35 O23 1_555 1_555
H36 O24 1_555 1_555
O29 C50 1_555 1_555
O30 Mg2 1_555 1_555
C50 O30 1_555 1_555
O43 Mg3 1_555 1_555
O44 Mg1 1_555 1_555
O45 Mg2 1_555 1_555
O46 Mg1 1_555 1_555
O47 Mg2 1_555 1_555
O48 Mg3 1_555 1_555
O49 Mg3 1_555 1_555
O50 Mg1 1_555 1_555
C6 C7 1_555 1_555
C20 C21 1_555 1_555
C32 C33 1_555 1_555
C34 C35 1_555 1_555
P1 O1 1_555 1_555
O2 P1 1_555 1_555
N1 P1 1_555 1_555
C9 C10 1_555 1_555
C10 H7 1_555 1_555
C11 C10 1_555 1_555
H8 C11 1_555 1_555
C12 O2 1_555 1_555
C13 C12 1_555 1_555
H9 C13 1_555 1_555
C14 C9 1_555 1_555
P2 O9 1_555 1_555
O10 P2 1_555 1_555
N2 P1 1_555 1_555
C23 C24 1_555 1_555
C24 H15 1_555 1_555
C25 C24 1_555 1_555
H16 C25 1_555 1_555
C26 O10 1_555 1_555
C27 C26 1_555 1_555
H17 C27 1_555 1_555
C28 C23 1_555 1_555
P3 N1 1_555 1_555
O15 P3 1_555 1_555
O16 P3 1_555 1_555
O19 C36 1_555 1_555
O20 C36 1_555 1_555
N3 P2 1_555 1_555
C36 C37 1_555 1_555
C37 C38 1_555 1_555
C38 H23 1_555 1_555
C39 C38 1_555 1_555
H24 C39 1_555 1_555
C40 O16 1_555 1_555
C41 C40 1_555 1_555
H25 C41 1_555 1_555
C42 C37 1_555 1_555
H26 C42 1_555 1_555
Mg8 O20 1_555 1_555
C11 C12 1_555 1_555
C13 C14 1_555 1_555
P2 N2 1_555 1_555
C25 C26 1_555 1_555
C27 C28 1_555 1_555
P3 N3 1_555 1_555
C39 C40 1_555 1_555
C41 C42 1_555 1_555
P4 O25 1_555 1_555
O26 P4 1_555 1_555
N4 P4 1_555 1_555
C52 C51 1_555 1_555
H41 C52 1_555 1_555
C53 C52 1_555 1_555
H42 C53 1_555 1_555
C54 O26 1_555 1_555
C55 C54 1_555 1_555
H43 C55 1_555 1_555
C56 C51 1_555 1_555
P5 O31 1_555 1_555
O32 P5 1_555 1_555
N5 P4 1_555 1_555
C65 C66 1_555 1_555
C66 H49 1_555 1_555
C67 C66 1_555 1_555
H50 C67 1_555 1_555
C68 O32 1_555 1_555
C69 C68 1_555 1_555
H51 C69 1_555 1_555
C70 C65 1_555 1_555
P6 N4 1_555 1_555
O37 P6 1_555 1_555
O38 P6 1_555 1_555
O41 C78 1_555 1_555
O50 C78 1_555 1_555
N6 P5 1_555 1_555
C78 C79 1_555 1_555
C79 C80 1_555 1_555
C80 H57 1_555 1_555
C81 C80 1_555 1_555
H58 C81 1_555 1_555
C82 O38 1_555 1_555
C83 C82 1_555 1_555
H59 C83 1_555 1_555
C84 C79 1_555 1_555
H60 C84 1_555 1_555
C53 C54 1_555 1_555
C55 C56 1_555 1_555
P5 N5 1_555 1_555
C67 C68 1_555 1_555
C69 C70 1_555 1_555
P6 N6 1_555 1_555
C81 C82 1_555 1_555
C83 C84 1_555 1_555
O5 C8 1_555 1_555
O6 C8 1_555 1_555
O27 C43 1_555 1_555
O28 C43 1_555 1_555
C43 C44 1_555 1_555
C44 C45 1_555 1_555
C45 H37 1_555 1_555
C46 C45 1_555 1_555
H38 C46 1_555 1_555
C47 C46 1_555 1_555
C48 C47 1_555 1_555
H39 C48 1_555 1_555
C49 C44 1_555 1_555
H40 C49 1_555 1_555
O33 C57 1_555 1_555
O34 C57 1_555 1_555
C57 C58 1_555 1_555
C58 C59 1_555 1_555
C59 H45 1_555 1_555
C60 C59 1_555 1_555
H46 C60 1_555 1_555
C61 C60 1_555 1_555
C62 C61 1_555 1_555
H47 C62 1_555 1_555
C63 C58 1_555 1_555
H48 C63 1_555 1_555
O39 C71 1_555 1_555
O40 C71 1_555 1_555
C71 C72 1_555 1_555
C72 C73 1_555 1_555
C73 H53 1_555 1_555
C74 C73 1_555 1_555
H54 C74 1_555 1_555
C76 C75 1_555 1_555
H55 C76 1_555 1_555
C77 C72 1_555 1_555
H56 C77 1_555 1_555
Mg6 O40 1_555 1_555
Mg8 O28 1_555 1_555
Mg10 O6 1_555 1_555
C48 C49 1_555 1_555
O34 Mg10 1_555 1_555
C62 C63 1_555 1_555
C74 C75 1_555 1_555
C76 C77 1_555 1_555
O35 C64 1_555 1_555
O49 C64 1_555 1_555
O41_2 C78_2 1_555 1_555
O42 C78_2 1_555 1_555
Mg6 O42 1_555 1_555
O13_2 C22_2 1_555 1_555
O47 C22_2 1_555 1_555
Mg6 O4_2 1_555 1_555
P1_2 O1_2 1_555 1_555
O1_2 C5_2 1_555 1_555
O2_2 P1_2 1_555 1_555
O3_2 C1_2 1_555 1_555
O4_2 C1_2 1_555 1_555
O5_2 C8_2 1_555 1_555
O46 C8_2 1_555 1_555
O7_2 Mg6 1_555 1_555
H1_2 O7_2 1_555 1_555
O8_2 Mg6 1_555 1_555
H2_2 O8_2 1_555 1_555
N1_2 P1_2 1_555 1_555
C1_2 C2_2 1_555 1_555
C2_2 C3_2 1_555 1_555
C3_2 H3_2 1_555 1_555
C4_2 C3_2 1_555 1_555
H4_2 C4_2 1_555 1_555
C5_2 C4_2 1_555 1_555
C6_2 C5_2 1_555 1_555
H5_2 C6_2 1_555 1_555
C7_2 C2_2 1_555 1_555
H6_2 C7_2 1_555 1_555
C8_2 C9_2 1_555 1_555
C9_2 C10_2 1_555 1_555
C10_2 H7_2 1_555 1_555
C11_2 C10_2 1_555 1_555
H8_2 C11_2 1_555 1_555
C12_2 O2_2 1_555 1_555
C13_2 C12_2 1_555 1_555
H9_2 C13_2 1_555 1_555
C14_2 C9_2 1_555 1_555
H10_2 C14_2 1_555 1_555
P2_2 O9_2 1_555 1_555
O9_2 C19_2 1_555 1_555
O10_2 P2_2 1_555 1_555
O11_2 C15_2 1_555 1_555
O12_2 C15_2 1_555 1_555
N2_2 P1_2 1_555 1_555
C15_2 C16_2 1_555 1_555
C16_2 C17_2 1_555 1_555
C17_2 H11_2 1_555 1_555
C18_2 C17_2 1_555 1_555
H12_2 C18_2 1_555 1_555
C19_2 C18_2 1_555 1_555
C20_2 C19_2 1_555 1_555
H13_2 C20_2 1_555 1_555
C21_2 C16_2 1_555 1_555
H14_2 C21_2 1_555 1_555
C23_2 C24_2 1_555 1_555
C24_2 H15_2 1_555 1_555
C25_2 C24_2 1_555 1_555
H16_2 C25_2 1_555 1_555
C26_2 O10_2 1_555 1_555
C27_2 C26_2 1_555 1_555
H17_2 C27_2 1_555 1_555
C28_2 C23_2 1_555 1_555
P3_2 N1_2 1_555 1_555
O15_2 P3_2 1_555 1_555
O16_2 P3_2 1_555 1_555
O17_2 C29_2 1_555 1_555
O18_2 C29_2 1_555 1_555
N3_2 P2_2 1_555 1_555
C29_2 C30_2 1_555 1_555
C30_2 C31_2 1_555 1_555
C31_2 H19_2 1_555 1_555
C32_2 C31_2 1_555 1_555
H20_2 C32_2 1_555 1_555
C33_2 O15_2 1_555 1_555
C34_2 C33_2 1_555 1_555
H21_2 C34_2 1_555 1_555
C35_2 C30_2 1_555 1_555
H22_2 C35_2 1_555 1_555
C37_2 C38_2 1_555 1_555
C38_2 H23_2 1_555 1_555
C39_2 C38_2 1_555 1_555
H24_2 C39_2 1_555 1_555
C40_2 O16_2 1_555 1_555
C41_2 C40_2 1_555 1_555
H25_2 C41_2 1_555 1_555
C42_2 C37_2 1_555 1_555
H27_2 O7_2 1_555 1_555
H28_2 O8_2 1_555 1_555
Mg8 O12_2 1_555 1_555
O21_2 Mg8 1_555 1_555
H29_2 O21_2 1_555 1_555
O22_2 Mg8 1_555 1_555
H30_2 O22_2 1_555 1_555
H31_2 O21_2 1_555 1_555
H32_2 O22_2 1_555 1_555
Mg10 O18_2 1_555 1_555
O23_2 Mg10 1_555 1_555
H33_2 O23_2 1_555 1_555
O24_2 Mg10 1_555 1_555
H34_2 O24_2 1_555 1_555
H35_2 O23_2 1_555 1_555
H36_2 O24_2 1_555 1_555
P4_2 O25_2 1_555 1_555
O25_2 C47_2 1_555 1_555
O26_2 P4_2 1_555 1_555
O27_2 C43_2 1_555 1_555
O43 C43_2 1_555 1_555
O29_2 C50_2 1_555 1_555
O30_2 Mg8 1_555 1_555
N4_2 P4_2 1_555 1_555
C43_2 C44_2 1_555 1_555
C44_2 C45_2 1_555 1_555
C45_2 H37_2 1_555 1_555
C46_2 C45_2 1_555 1_555
H38_2 C46_2 1_555 1_555
C47_2 C46_2 1_555 1_555
C48_2 C47_2 1_555 1_555
H39_2 C48_2 1_555 1_555
C49_2 C44_2 1_555 1_555
H40_2 C49_2 1_555 1_555
C50_2 O30_2 1_555 1_555
C51_2 C50_2 1_555 1_555
C52_2 C51_2 1_555 1_555
H41_2 C52_2 1_555 1_555
C53_2 C52_2 1_555 1_555
H42_2 C53_2 1_555 1_555
C54_2 O26_2 1_555 1_555
C55_2 C54_2 1_555 1_555
H43_2 C55_2 1_555 1_555
C56_2 C51_2 1_555 1_555
H44_2 C56_2 1_555 1_555
P5_2 O31_2 1_555 1_555
O31_2 C61_2 1_555 1_555
O32_2 P5_2 1_555 1_555
O33_2 C57_2 1_555 1_555
O44 C57_2 1_555 1_555
N5_2 P4_2 1_555 1_555
C57_2 C58_2 1_555 1_555
C58_2 C59_2 1_555 1_555
C59_2 H45_2 1_555 1_555
C60_2 C59_2 1_555 1_555
H46_2 C60_2 1_555 1_555
C61_2 C60_2 1_555 1_555
C62_2 C61_2 1_555 1_555
H47_2 C62_2 1_555 1_555
C63_2 C58_2 1_555 1_555
H48_2 C63_2 1_555 1_555
C65_2 C66_2 1_555 1_555
C66_2 H49_2 1_555 1_555
C67_2 C66_2 1_555 1_555
H50_2 C67_2 1_555 1_555
C68_2 O32_2 1_555 1_555
C69_2 C68_2 1_555 1_555
H51_2 C69_2 1_555 1_555
C70_2 C65_2 1_555 1_555
P6_2 N4_2 1_555 1_555
O37_2 P6_2 1_555 1_555
O38_2 P6_2 1_555 1_555
O39_2 C71_2 1_555 1_555
O45 C71_2 1_555 1_555
N6_2 P5_2 1_555 1_555
C71_2 C72_2 1_555 1_555
C72_2 C73_2 1_555 1_555
C73_2 H53_2 1_555 1_555
C74_2 C73_2 1_555 1_555
H54_2 C74_2 1_555 1_555
C75_2 O37_2 1_555 1_555
C76_2 C75_2 1_555 1_555
H55_2 C76_2 1_555 1_555
C77_2 C72_2 1_555 1_555
H56_2 C77_2 1_555 1_555
C79_2 C80_2 1_555 1_555
C80_2 H57_2 1_555 1_555
C81_2 C80_2 1_555 1_555
H58_2 C81_2 1_555 1_555
C82_2 O38_2 1_555 1_555
C83_2 C82_2 1_555 1_555
H59_2 C83_2 1_555 1_555
C84_2 C79_2 1_555 1_555
O49_2 Mg10 1_555 1_555
C6_2 C7_2 1_555 1_555
C11_2 C12_2 1_555 1_555
C13_2 C14_2 1_555 1_555
P2_2 N2_2 1_555 1_555
C20_2 C21_2 1_555 1_555
C25_2 C26_2 1_555 1_555
C27_2 C28_2 1_555 1_555
P3_2 N3_2 1_555 1_555
C32_2 C33_2 1_555 1_555
C34_2 C35_2 1_555 1_555
C39_2 C40_2 1_555 1_555
C41_2 C42_2 1_555 1_555
C48_2 C49_2 1_555 1_555
C53_2 C54_2 1_555 1_555
C55_2 C56_2 1_555 1_555
P5_2 N5_2 1_555 1_555
C62_2 C63_2 1_555 1_555
C67_2 C68_2 1_555 1_555
C69_2 C70_2 1_555 1_555
P6_2 N6_2 1_555 1_555
C74_2 C75_2 1_555 1_555
C76_2 C77_2 1_555 1_555
C81_2 C82_2 1_555 1_555
C83_2 C84_2 1_555 1_555
O35_2 C64_2 1_555 1_555
O49_2 C64_2 1_555 1_555
O19_2 C36_2 1_555 1_555
O48 C36_2 1_555 1_555

#END
