
###############################################################################
#
# This file contains modified crystal structure data generated from the
# MOF subset of the Cambridge Structural Database (CSD) v543 
# hosted by the Cambridge Crystallographic Data Centre (CCDC).
#
# This work is licensed under the Creative Commons
# Attribution-NonCommercial-ShareAlike 4.0 International License.
# To view a copy of this license, visit
# http://creativecommons.org/licenses/by-nc-sa/4.0/
# or send a letter to
# Creative Commons, PO Box 1866, Mountain View, CA 94042, USA.
#
# CIF created using the CSD Python API on 29 September 2022
# The structure has been converted into the P1 space group
# The structure has a 3D framework
# The original CSD entry ORULEU is in the monoclinic crystal system
# The framework has been calculated to contain at least 10.0% void space
# The void calculation uses a probe of radius 1.32A, grid spacing 0.4
# H atom positions have been added when not included in the experimental data
#
###############################################################################

data_ORULEU
_chemical_formula_moiety         '(C108 H68 Co12 N12 O48)n'
_symmetry_cell_setting           triclinic
_symmetry_space_group_name_H-M   'P 1'
_symmetry_Int_Tables_number      1
_space_group_name_Hall           'P 1'
loop_
_symmetry_equiv_pos_site_id
_symmetry_equiv_pos_as_xyz
1 x,y,z
_cell_length_a                   11.545(4)
_cell_length_b                   20.225(6)
_cell_length_c                   14.390(4)
_cell_angle_alpha                90
_cell_angle_beta                 90.528(4)
_cell_angle_gamma                90
_cell_volume                     3359.89
loop_
_atom_site_label
_atom_site_type_symbol
_atom_site_fract_x
_atom_site_fract_y
_atom_site_fract_z
Co9 Co 0.14780(4) 0.25533(2) 0.09642(3)
Co6 Co 0.31192(4) 0.13856(2) 0.00057(3)
Co1 Co 0.24613(3) 0.121783(19) 0.23127(3)
O1 O 0.4199(2) 0.13397(14) 0.20482(17)
O2 O 0.4663(2) 0.16478(13) 0.06128(15)
O3 O 0.6486(2) 0.20313(13) 0.47164(16)
O4 O 0.8057(2) 0.26350(12) 0.44540(16)
O5 O 0.9823(2) 0.25618(13) 0.1290(2)
O6 O 0.9551(2) 0.15608(19) 0.0667(2)
O11 O 0.19691(18) 0.16218(11) 0.10261(15)
H1 H 0.141(2) 0.1370(17) 0.088(3)
O12 O 0.0686(3) 0.11237(18) 0.2770(2)
N1 N 0.3016(2) 0.07837(14) 0.36037(18)
N2 N 0.4019(4) 0.00170(17) 0.6200(2)
N3 N 0.3641(3) 0.10212(15) 0.87164(19)
C1 C 0.6083(3) 0.17261(14) 0.1819(2)
C2 C 0.6170(3) 0.18609(15) 0.2770(2)
H3 H 0.5523 0.1803 0.3141
C3 C 0.7200(3) 0.20805(16) 0.3173(2)
C4 C 0.8157(3) 0.21638(17) 0.2611(2)
H4 H 0.8839 0.2332 0.2865
C5 C 0.8114(3) 0.19998(16) 0.1671(2)
C6 C 0.7072(3) 0.17797(14) 0.12589(19)
C7 C 0.7256(3) 0.22620(16) 0.4184(2)
C8 C 0.9234(3) 0.20401(19) 0.1146(2)
C9 C 0.7088(2) 0.15654(15) 0.0262(2)
C14 C 0.7100(3) 0.08951(15) 0.0066(2)
H7 H 0.7008 0.0593 0.0547
C17 C 0.3568(3) 0.11553(18) 0.4245(2)
H8 H 0.3715 0.1596 0.4102
C18 C 0.3927(3) 0.09240(18) 0.5096(2)
H9 H 0.4317 0.1200 0.5510
C19 C 0.3699(3) 0.02684(18) 0.5331(2)
C21 C 0.2846(4) 0.01460(19) 0.3823(3)
C22 C 0.3921(3) 0.03669(18) 0.7027(2)
C23 C 0.4524(3) 0.01634(19) 0.7810(2)
C24 C 0.4365(3) 0.05017(19) 0.8633(2)
H13 H 0.4779 0.0364 0.9155
C25 C 0.3077(4) 0.12074(18) 0.7952(3)
H14 H 0.2588 0.1571 0.7996
C26 C 0.31596(19) 0.09052(11) 0.71087(15)
H15 H 0.2725 0.1051 0.6602
C27 C 0.48828(19) 0.15564(11) 0.14511(15)
Co8 Co 0.81192(4) 0.36144(2) 0.50057(3)
Co11 Co 0.64780(4) 0.24467(2) 0.59642(3)
O16 O 0.3170(3) 0.04205(12) 0.04030(19)
O17 O 0.2298(2) 0.02695(11) 0.17615(17)
O18 O 0.2357(3) 0.21383(12) 0.29888(18)
O19 O 0.2259(2) 0.29922(12) 0.20062(16)
H16 H 0.0415159 0.155477 0.30168
H17 H 0.0186699 0.0989775 0.223688
O9 O 0.7357(3) 0.28617(12) 0.79888(18)
O10 O 0.7259(2) 0.20078(12) 0.70062(16)
C10 C 0.7193(3) 0.20141(15) 0.9529(2)
H5 H 0.7196 0.2466 0.9650
C11 C 0.7294(3) 0.17868(15) 0.8615(2)
C12 C 0.7337(3) 0.11118(15) 0.8438(2)
H6 H 0.7426 0.0960 0.7833
C13 C 0.7247(3) 0.06641(15) 0.9165(2)
C15 C 0.7310(3) 0.22622(16) 0.7814(2)
Co5 Co 0.74613(3) 0.378217(19) 0.73127(3)
O13 O 0.1486(2) 0.29687(13) 0.97164(16)
O14 O 0.3057(2) 0.23650(12) 0.94540(16)
O7 O 0.6830(3) 0.95795(12) 0.95970(19)
O8 O 0.7702(2) 0.97305(11) 0.82385(17)
C16 C 0.7266(3) 0.99335(15) 0.8984(2)
Co4 Co 0.75387(3) 0.878217(19) 0.76873(3)
Co7 Co 0.68808(4) 0.86144(2) 0.99943(3)
Co1_2 Co 0.25387(3) 0.621783(19) 0.26873(3)
Co2 Co 0.18808(4) 0.63856(2) 0.49943(3)
Co3 Co 0.35220(4) 0.75533(2) 0.40358(3)
O1_2 O 0.0801(2) 0.63397(14) 0.29518(17)
O2_2 O 0.0337(2) 0.66478(13) 0.43872(15)
O11_2 O 0.30309(18) 0.66218(11) 0.39739(15)
H1_2 H 0.359(2) 0.6370(17) 0.412(3)
O12_2 O 0.4314(3) 0.61237(18) 0.2230(2)
N1_2 N 0.1984(2) 0.57837(14) 0.13963(18)
C17_2 C 0.1432(3) 0.61553(18) 0.0755(2)
H8_2 H 0.1285 0.6596 0.0898
C20 C 0.1825(4) 0.48666(19) 0.0335(3)
H10 H 0.1951 0.4420 0.0219
C21_2 C 0.2154(4) 0.51460(19) 0.1177(3)
H11 H 0.2513 0.4876 0.1615
C27_2 C 0.01172(19) 0.65564(11) 0.35489(15)
O13_2 O 0.3514(2) 0.79687(13) 0.52836(16)
O14_2 O 0.1943(2) 0.73650(12) 0.55460(16)
O15 O 0.5177(2) 0.75618(13) 0.3710(2)
O16_2 O 0.1830(3) 0.54205(12) 0.45970(19)
O17_2 O 0.2702(2) 0.52695(11) 0.32385(17)
O18_2 O 0.2643(3) 0.71383(12) 0.20112(18)
O19_2 O 0.2741(2) 0.79922(12) 0.29938(16)
N4 N 0.1359(3) 0.60212(15) 0.62836(19)
H16_2 H 0.458484 0.655477 0.19832
H17_2 H 0.48133 0.598977 0.276312
N2_2 N 0.0981(4) 0.50170(17) 0.8800(2)
H2 H 0.0705 0.4622 0.8775
C18_2 C 0.1073(3) 0.59240(18) 0.9904(2)
H9_2 H 0.0683 0.6200 0.9490
C19_2 C 0.1301(3) 0.52684(18) 0.9669(2)
C22_2 C 0.1079(3) 0.53669(18) 0.7973(2)
C23_2 C 0.0476(3) 0.51634(19) 0.7190(2)
C24_2 C 0.0635(3) 0.55017(19) 0.6367(2)
H13_2 H 0.0221 0.5364 0.5845
C25_2 C 0.1923(4) 0.62074(18) 0.7048(3)
H14_2 H 0.2412 0.6571 0.7004
C26_2 C 0.18404(19) 0.59052(11) 0.78913(15)
H15_2 H 0.2275 0.6051 0.8398
O3_2 O 0.8514(2) 0.70313(13) 0.02836(16)
O4_2 O 0.6943(2) 0.76350(12) 0.05460(16)
O6_2 O 0.5449(2) 0.65608(19) 0.4333(2)
O7_2 O 0.8170(3) 0.45795(12) 0.54030(19)
O8_2 O 0.7298(2) 0.47305(11) 0.67615(17)
O9_2 O 0.7643(3) 0.78617(12) 0.70112(18)
O10_2 O 0.7741(2) 0.70078(12) 0.79938(16)
C1_2 C 0.8917(3) 0.67261(14) 0.3181(2)
C2_2 C 0.8830(3) 0.68609(15) 0.2230(2)
H3_2 H 0.9477 0.6803 0.1859
C3_2 C 0.7800(3) 0.70805(16) 0.1827(2)
C4_2 C 0.6843(3) 0.71638(17) 0.2389(2)
H4_2 H 0.6161 0.7332 0.2135
C5_2 C 0.6886(3) 0.69998(16) 0.3329(2)
C6_2 C 0.7928(3) 0.67797(14) 0.37411(19)
C7_2 C 0.7744(3) 0.72620(16) 0.0816(2)
C8_2 C 0.5766(3) 0.70401(19) 0.3854(2)
C9_2 C 0.7912(2) 0.65654(15) 0.4738(2)
C10_2 C 0.7807(3) 0.70141(15) 0.5471(2)
H5_2 H 0.7804 0.7466 0.5350
C11_2 C 0.7706(3) 0.67868(15) 0.6385(2)
C12_2 C 0.7663(3) 0.61118(15) 0.6562(2)
H6_2 H 0.7574 0.5960 0.7167
C13_2 C 0.7753(3) 0.56641(15) 0.5835(2)
C14_2 C 0.7900(3) 0.58951(15) 0.4934(2)
H7_2 H 0.7992 0.5593 0.4453
C15_2 C 0.7690(3) 0.72622(16) 0.7186(2)
C16_2 C 0.7734(3) 0.49335(15) 0.6016(2)
Co10 Co 0.85220(4) 0.74467(2) 0.90358(3)
H12 H 0.9972 0.4805 0.7217
O15_2 O 0.0177(2) 0.74382(13) 0.8710(2)
C16_3 C 0.2734(3) 0.00665(15) 0.1016(2)
C10_3 C 0.2807(3) 0.79859(15) 0.0471(2)
H5_3 H 0.2804 0.7534 0.0350
C11_3 C 0.2706(3) 0.82132(15) 0.1385(2)
C12_3 C 0.2663(3) 0.88882(15) 0.1562(2)
H6_3 H 0.2574 0.9040 0.2167
C13_3 C 0.2753(3) 0.93359(15) 0.0835(2)
C15_3 C 0.2690(3) 0.77378(16) 0.2186(2)
N4_2 N 0.6359(3) 0.89788(15) 0.12836(19)
O1_3 O 0.5801(2) 0.86603(14) 0.79518(17)
O2_3 O 0.5337(2) 0.83522(13) 0.93872(15)
O6_3 O 0.0449(2) 0.84392(19) 0.9333(2)
O11_3 O 0.80309(18) 0.83782(11) 0.89739(15)
H1_3 H 0.859(2) 0.8630(17) 0.912(3)
O12_3 O 0.9314(3) 0.88763(18) 0.7230(2)
N1_3 N 0.6984(2) 0.92163(14) 0.63963(18)
N2_3 N 0.5981(4) 0.99830(17) 0.3800(2)
C1_3 C 0.3917(3) 0.82739(14) 0.8181(2)
C2_3 C 0.3830(3) 0.81391(15) 0.7230(2)
H3_3 H 0.4477 0.8197 0.6859
C3_3 C 0.2800(3) 0.79195(16) 0.6827(2)
C4_3 C 0.1843(3) 0.78362(17) 0.7389(2)
H4_3 H 0.1161 0.7668 0.7135
C5_3 C 0.1886(3) 0.80002(16) 0.8329(2)
C6_3 C 0.2928(3) 0.82203(14) 0.87411(19)
C7_3 C 0.2744(3) 0.77380(16) 0.5816(2)
C8_3 C 0.0766(3) 0.79599(19) 0.8854(2)
C9_3 C 0.2912(2) 0.84346(15) 0.9738(2)
C14_3 C 0.2900(3) 0.91049(15) 0.9934(2)
H7_3 H 0.2992 0.9407 0.9453
C17_3 C 0.6432(3) 0.88447(18) 0.5755(2)
H8_3 H 0.6285 0.8404 0.5898
C18_3 C 0.6073(3) 0.90760(18) 0.4904(2)
H9_3 H 0.5683 0.8800 0.4490
C19_3 C 0.6301(3) 0.97316(18) 0.4669(2)
C21_3 C 0.7154(4) 0.98540(19) 0.6177(3)
C22_3 C 0.6079(3) 0.96331(18) 0.2973(2)
C23_3 C 0.5476(3) 0.98366(19) 0.2190(2)
C24_3 C 0.5635(3) 0.94983(19) 0.1367(2)
H13_3 H 0.5221 0.9636 0.0845
C25_3 C 0.6923(4) 0.87926(18) 0.2048(3)
H14_3 H 0.7412 0.8429 0.2004
C26_3 C 0.68404(19) 0.90948(11) 0.28913(15)
H15_3 H 0.7275 0.8949 0.3398
C27_3 C 0.51172(19) 0.84436(11) 0.85489(15)
H16_3 H 0.958484 0.844523 0.69832
H17_3 H 0.98133 0.901023 0.776312
H12_2 H 0.0028 0.5195 0.2783
O5_2 O 0.4823(2) 0.24382(13) 0.6290(2)
O6_4 O 0.4551(2) 0.34392(19) 0.5667(2)
C1_4 C 0.1083(3) 0.32739(14) 0.6819(2)
C2_4 C 0.1170(3) 0.31391(15) 0.7770(2)
H3_4 H 0.0523 0.3197 0.8141
C3_4 C 0.2200(3) 0.29195(16) 0.8173(2)
C4_4 C 0.3157(3) 0.28362(17) 0.7611(2)
H4_4 H 0.3839 0.2668 0.7865
C5_4 C 0.3114(3) 0.30002(16) 0.6671(2)
C6_4 C 0.2072(3) 0.32203(14) 0.62589(19)
C7_4 C 0.2256(3) 0.27380(16) 0.9184(2)
C8_4 C 0.4234(3) 0.29599(19) 0.6146(2)
C9_4 C 0.2088(2) 0.34346(15) 0.5262(2)
C10_4 C 0.2193(3) 0.29859(15) 0.4529(2)
H5_4 H 0.2196 0.2534 0.4650
C11_4 C 0.2294(3) 0.32132(15) 0.3615(2)
C12_4 C 0.2337(3) 0.38882(15) 0.3438(2)
H6_4 H 0.2426 0.4040 0.2833
C13_4 C 0.2247(3) 0.43359(15) 0.4165(2)
C14_4 C 0.2100(3) 0.41049(15) 0.5066(2)
H7_4 H 0.2008 0.4407 0.5547
C15_4 C 0.2310(3) 0.27378(16) 0.2814(2)
C16_4 C 0.2266(3) 0.50665(15) 0.3984(2)
N2_4 N 0.9019(4) 0.49830(17) 0.1200(2)
H2_2 H 0.9295 0.5378 0.1225
N3_2 N 0.8641(3) 0.39788(15) 0.37164(19)
C18_4 C 0.8927(3) 0.40760(18) 0.0096(2)
H9_4 H 0.9317 0.3800 0.0510
C19_4 C 0.8699(3) 0.47316(18) 0.0331(2)
C22_4 C 0.8921(3) 0.46331(18) 0.2027(2)
C23_4 C 0.9524(3) 0.48366(19) 0.2810(2)
C24_4 C 0.9365(3) 0.44983(19) 0.3633(2)
H13_4 H 0.9779 0.4636 0.4155
C25_4 C 0.8077(4) 0.37926(18) 0.2952(3)
H14_4 H 0.7588 0.3429 0.2996
C26_4 C 0.81596(19) 0.40948(11) 0.21087(15)
H15_4 H 0.7725 0.3949 0.1602
O1_4 O 0.9199(2) 0.36603(14) 0.70482(17)
O2_4 O 0.9663(2) 0.33522(13) 0.56128(15)
O11_4 O 0.69691(18) 0.33782(11) 0.60261(15)
H1_4 H 0.641(2) 0.3630(17) 0.588(3)
O12_4 O 0.5686(3) 0.38763(18) 0.7770(2)
N1_4 N 0.8016(2) 0.42163(14) 0.86037(18)
C17_4 C 0.8568(3) 0.38447(18) 0.9245(2)
H8_4 H 0.8715 0.3404 0.9102
C20_2 C 0.8175(4) 0.51334(19) 0.9665(3)
H10_2 H 0.8049 0.5580 0.9781
C21_4 C 0.7846(4) 0.48540(19) 0.8823(3)
H11_2 H 0.7487 0.5124 0.8385
C27_4 C 0.98828(19) 0.34436(11) 0.64511(15)
H16_4 H 0.541516 0.344523 0.80168
H17_4 H 0.51867 0.401023 0.723688
H2_3 H 0.4295 0.9622 0.6225
C20_3 C 0.3175(4) 0.98666(19) 0.4665(3)
H10_3 H 0.3049 0.9420 0.4781
H11_3 H 0.2487 0.9876 0.3385
H12_3 H 0.5028 0.9805 0.7783
H2_4 H 0.5705 0.0378 0.3775
C20_4 C 0.6825(4) 0.01334(19) 0.5335(3)
H10_4 H 0.6951 0.0580 0.5219
H11_4 H 0.7513 0.0124 0.6615
H12_4 H 0.4972 0.0195 0.2217
loop_
_geom_bond_atom_site_label_1
_geom_bond_atom_site_label_2
_geom_bond_site_symmetry_1
_geom_bond_site_symmetry_2
Co1 O1 1_555 1_555
Co6 O2 1_555 1_555
Co9 O11 1_555 1_555
O1 C27 1_555 1_555
O2 C27 1_555 1_555
O3 C7 1_555 1_555
O4 C7 1_555 1_555
O5 C8 1_555 1_555
O6 C8 1_555 1_555
O11 Co1 1_555 1_555
H1 O11 1_555 1_555
O12 Co1 1_555 1_555
N1 Co1 1_555 1_555
N3 C24 1_555 1_555
C1 C2 1_555 1_555
C2 H3 1_555 1_555
C3 C2 1_555 1_555
C4 C3 1_555 1_555
H4 C4 1_555 1_555
C5 C4 1_555 1_555
C6 C1 1_555 1_555
C7 C3 1_555 1_555
C8 C5 1_555 1_555
C9 C6 1_555 1_555
C14 C9 1_555 1_555
H7 C14 1_555 1_555
C17 N1 1_555 1_555
H8 C17 1_555 1_555
C18 C17 1_555 1_555
H9 C18 1_555 1_555
C19 N2 1_555 1_555
C21 N1 1_555 1_555
C22 N2 1_555 1_555
C23 C22 1_555 1_555
C24 C23 1_555 1_555
H13 C24 1_555 1_555
C25 N3 1_555 1_555
H14 C25 1_555 1_555
C26 C22 1_555 1_555
H15 C26 1_555 1_555
C27 C1 1_555 1_555
Co8 O4 1_555 1_555
Co11 O3 1_555 1_555
O16 Co6 1_555 1_555
O17 Co1 1_555 1_555
O18 Co1 1_555 1_555
O19 Co9 1_555 1_555
Co6 O11 1_555 1_555
C5 C6 1_555 1_555
C18 C19 1_555 1_555
C25 C26 1_555 1_555
O12 H16 1_555 1_555
O12 H17 1_555 1_555
O9 C15 1_555 1_555
O10 C15 1_555 1_555
H5 C10 1_555 1_555
C11 C10 1_555 1_555
C12 C11 1_555 1_555
H6 C12 1_555 1_555
C13 C12 1_555 1_555
C15 C11 1_555 1_555
Co5 O9 1_555 1_555
Co11 O10 1_555 1_555
O7 C16 1_555 1_555
O8 C16 1_555 1_555
Co4 O8 1_555 1_555
Co7 O7 1_555 1_555
Co1_2 O1_2 1_555 1_555
Co2 O2_2 1_555 1_555
Co3 O11_2 1_555 1_555
O1_2 C27_2 1_555 1_555
O2_2 C27_2 1_555 1_555
O11_2 Co1_2 1_555 1_555
H1_2 O11_2 1_555 1_555
O12_2 Co1_2 1_555 1_555
N1_2 Co1_2 1_555 1_555
C17_2 N1_2 1_555 1_555
H8_2 C17_2 1_555 1_555
H10 C20 1_555 1_555
C21_2 N1_2 1_555 1_555
H11 C21_2 1_555 1_555
O13_2 Co3 1_555 1_555
O14_2 Co2 1_555 1_555
O15 Co3 1_555 1_555
O16_2 Co2 1_555 1_555
O17_2 Co1_2 1_555 1_555
O18_2 Co1_2 1_555 1_555
O19_2 Co3 1_555 1_555
N4 Co2 1_555 1_555
Co2 O11_2 1_555 1_555
C20 C21_2 1_555 1_555
O12_2 H16_2 1_555 1_555
O12_2 H17_2 1_555 1_555
N2_2 H2 1_555 1_555
N4 C24_2 1_555 1_555
H9_2 C18_2 1_555 1_555
C19_2 N2_2 1_555 1_555
C22_2 N2_2 1_555 1_555
C23_2 C22_2 1_555 1_555
C24_2 C23_2 1_555 1_555
H13_2 C24_2 1_555 1_555
C25_2 N4 1_555 1_555
H14_2 C25_2 1_555 1_555
C26_2 C22_2 1_555 1_555
H15_2 C26_2 1_555 1_555
C18_2 C19_2 1_555 1_555
C25_2 C26_2 1_555 1_555
O3_2 C7_2 1_555 1_555
O4_2 C7_2 1_555 1_555
O15 C8_2 1_555 1_555
O6_2 C8_2 1_555 1_555
O7_2 C16_2 1_555 1_555
O8_2 C16_2 1_555 1_555
O9_2 C15_2 1_555 1_555
O10_2 C15_2 1_555 1_555
C1_2 C2_2 1_555 1_555
C2_2 H3_2 1_555 1_555
C3_2 C2_2 1_555 1_555
C4_2 C3_2 1_555 1_555
H4_2 C4_2 1_555 1_555
C5_2 C4_2 1_555 1_555
C6_2 C1_2 1_555 1_555
C7_2 C3_2 1_555 1_555
C8_2 C5_2 1_555 1_555
C9_2 C6_2 1_555 1_555
C10_2 C9_2 1_555 1_555
H5_2 C10_2 1_555 1_555
C11_2 C10_2 1_555 1_555
C12_2 C11_2 1_555 1_555
H6_2 C12_2 1_555 1_555
C13_2 C12_2 1_555 1_555
C14_2 C9_2 1_555 1_555
H7_2 C14_2 1_555 1_555
C15_2 C11_2 1_555 1_555
C16_2 C13_2 1_555 1_555
Co5 O8_2 1_555 1_555
Co4 O9_2 1_555 1_555
Co8 O7_2 1_555 1_555
Co10 O10_2 1_555 1_555
C5_2 C6_2 1_555 1_555
C13_2 C14_2 1_555 1_555
O16 C16_3 1_555 1_555
O17 C16_3 1_555 1_555
O18_2 C15_3 1_555 1_555
O19_2 C15_3 1_555 1_555
H5_3 C10_3 1_555 1_555
C11_3 C10_3 1_555 1_555
C12_3 C11_3 1_555 1_555
H6_3 C12_3 1_555 1_555
C13_3 C12_3 1_555 1_555
C15_3 C11_3 1_555 1_555
Co4 O1_3 1_555 1_555
Co7 O2_3 1_555 1_555
Co10 O11_3 1_555 1_555
O1_3 C27_3 1_555 1_555
O2_3 C27_3 1_555 1_555
O13_2 C7_3 1_555 1_555
O14_2 C7_3 1_555 1_555
O15_2 C8_3 1_555 1_555
O6_3 C8_3 1_555 1_555
O11_3 Co4 1_555 1_555
H1_3 O11_3 1_555 1_555
O12_3 Co4 1_555 1_555
N1_3 Co4 1_555 1_555
N4_2 C24_3 1_555 1_555
C1_3 C2_3 1_555 1_555
C2_3 H3_3 1_555 1_555
C3_3 C2_3 1_555 1_555
C4_3 C3_3 1_555 1_555
H4_3 C4_3 1_555 1_555
C5_3 C4_3 1_555 1_555
C6_3 C1_3 1_555 1_555
C7_3 C3_3 1_555 1_555
C8_3 C5_3 1_555 1_555
C9_3 C6_3 1_555 1_555
C14_3 C9_3 1_555 1_555
H7_3 C14_3 1_555 1_555
C17_3 N1_3 1_555 1_555
H8_3 C17_3 1_555 1_555
C18_3 C17_3 1_555 1_555
H9_3 C18_3 1_555 1_555
C19_3 N2_3 1_555 1_555
C21_3 N1_3 1_555 1_555
C22_3 N2_3 1_555 1_555
C23_3 C22_3 1_555 1_555
C24_3 C23_3 1_555 1_555
H13_3 C24_3 1_555 1_555
C25_3 N4_2 1_555 1_555
H14_3 C25_3 1_555 1_555
C26_3 C22_3 1_555 1_555
H15_3 C26_3 1_555 1_555
C27_3 C1_3 1_555 1_555
Co7 O11_3 1_555 1_555
C5_3 C6_3 1_555 1_555
C18_3 C19_3 1_555 1_555
C25_3 C26_3 1_555 1_555
O12_3 H16_3 1_555 1_555
O12_3 H17_3 1_555 1_555
O13 C7_4 1_555 1_555
O14 C7_4 1_555 1_555
O5_2 C8_4 1_555 1_555
O6_4 C8_4 1_555 1_555
O16_2 C16_4 1_555 1_555
O17_2 C16_4 1_555 1_555
O18 C15_4 1_555 1_555
O19 C15_4 1_555 1_555
C1_4 C2_4 1_555 1_555
C2_4 H3_4 1_555 1_555
C3_4 C2_4 1_555 1_555
C4_4 C3_4 1_555 1_555
H4_4 C4_4 1_555 1_555
C5_4 C4_4 1_555 1_555
C6_4 C1_4 1_555 1_555
C7_4 C3_4 1_555 1_555
C8_4 C5_4 1_555 1_555
C9_4 C6_4 1_555 1_555
C10_4 C9_4 1_555 1_555
H5_4 C10_4 1_555 1_555
C11_4 C10_4 1_555 1_555
C12_4 C11_4 1_555 1_555
H6_4 C12_4 1_555 1_555
C13_4 C12_4 1_555 1_555
C14_4 C9_4 1_555 1_555
H7_4 C14_4 1_555 1_555
C15_4 C11_4 1_555 1_555
C16_4 C13_4 1_555 1_555
Co11 O5_2 1_555 1_555
C5_4 C6_4 1_555 1_555
C13_4 C14_4 1_555 1_555
N2_4 H2_2 1_555 1_555
N3_2 C24_4 1_555 1_555
H9_4 C18_4 1_555 1_555
C19_4 N2_4 1_555 1_555
C22_4 N2_4 1_555 1_555
C23_4 C22_4 1_555 1_555
C24_4 C23_4 1_555 1_555
H13_4 C24_4 1_555 1_555
C25_4 N3_2 1_555 1_555
H14_4 C25_4 1_555 1_555
C26_4 C22_4 1_555 1_555
H15_4 C26_4 1_555 1_555
Co8 N3_2 1_555 1_555
C18_4 C19_4 1_555 1_555
C25_4 C26_4 1_555 1_555
Co5 O1_4 1_555 1_555
Co8 O2_4 1_555 1_555
Co11 O11_4 1_555 1_555
O1_4 C27_4 1_555 1_555
O2_4 C27_4 1_555 1_555
O11_4 Co5 1_555 1_555
H1_4 O11_4 1_555 1_555
O12_4 Co5 1_555 1_555
N1_4 Co5 1_555 1_555
C17_4 N1_4 1_555 1_555
H8_4 C17_4 1_555 1_555
H10_2 C20_2 1_555 1_555
C21_4 N1_4 1_555 1_555
H11_2 C21_4 1_555 1_555
Co8 O11_4 1_555 1_555
C20_2 C21_4 1_555 1_555
O12_4 H16_4 1_555 1_555
O12_4 H17_4 1_555 1_555
H10_3 C20_3 1_555 1_555
H10_4 C20_4 1_555 1_555

#END
