
###############################################################################
#
# This file contains modified crystal structure data generated from the
# MOF subset of the Cambridge Structural Database (CSD) v543 
# hosted by the Cambridge Crystallographic Data Centre (CCDC).
#
# This work is licensed under the Creative Commons
# Attribution-NonCommercial-ShareAlike 4.0 International License.
# To view a copy of this license, visit
# http://creativecommons.org/licenses/by-nc-sa/4.0/
# or send a letter to
# Creative Commons, PO Box 1866, Mountain View, CA 94042, USA.
#
# CIF created using the CSD Python API on 29 September 2022
# The structure has been converted into the P1 space group
# The structure has a 3D framework
# The original CSD entry ORUXEH is in the monoclinic crystal system
# The framework has been calculated to contain at least 10.0% void space
# The void calculation uses a probe of radius 1.32A, grid spacing 0.4
# H atom positions have been added when not included in the experimental data
#
###############################################################################

data_ORUXEH
_chemical_formula_moiety         '(C76 H60 Cu18 N28 S16 W4)n'
_symmetry_cell_setting           triclinic
_symmetry_space_group_name_H-M   'P 1'
_symmetry_Int_Tables_number      1
_space_group_name_Hall           'P 1'
loop_
_symmetry_equiv_pos_site_id
_symmetry_equiv_pos_as_xyz
1 x,y,z
_cell_length_a                   14.0993(17)
_cell_length_b                   23.159(3)
_cell_length_c                   15.637(2)
_cell_angle_alpha                90
_cell_angle_beta                 100.586(4)
_cell_angle_gamma                90
_cell_volume                     5018.98
loop_
_atom_site_label
_atom_site_type_symbol
_atom_site_fract_x
_atom_site_fract_y
_atom_site_fract_z
N2 N 0.5982(4) 0.3529(2) 0.1977(3)
C11 C 0.5742(4) 0.3311(3) 0.0181(4)
C12 C 0.6164(5) 0.3803(3) 0.0562(4)
C13 C 0.5502(6) 0.2898(3) 0.0758(4)
H8 H 0.638645 0.407779 0.021298
C14 C 0.6272(5) 0.3906(3) 0.1446(4)
C15 C 0.5626(6) 0.3029(4) 0.1627(5)
H9 H 0.526100 0.253926 0.055597
H10 H 0.655652 0.424966 0.167134
H11 H 0.545141 0.275079 0.199821
Cu4 Cu 0.33908(5) 0.07003(3) 0.00689(4)
N9 N 0.2602(3) 0.1055(2) 0.0975(3)
Cu8 Cu 0.63759(5) 0.35228(3) 0.33600(4)
N11 N 0.3998(4) 0.0028(2) 0.0659(3)
N1 N 0.4622(3) 0.2701(2) 0.8023(3)
N3 N 0.7602(3) 0.3945(2) 0.5975(3)
C1 C 0.7981(5) 0.3895(4) 0.6820(4)
C2 C 0.6693(4) 0.3794(3) 0.5751(4)
H1 H 0.861723 0.401083 0.700386
C3 C 0.7492(5) 0.3686(3) 0.7432(4)
C4 C 0.6120(4) 0.3591(3) 0.6321(4)
H2 H 0.641046 0.382478 0.516700
H3 H 0.780048 0.365673 0.800975
C5 C 0.6541(4) 0.3518(2) 0.7193(3)
H4 H 0.547179 0.350658 0.612496
C6 C 0.5961(4) 0.3285(2) 0.7815(3)
C7 C 0.5210(4) 0.2924(3) 0.7532(4)
C8 C 0.6158(4) 0.3421(3) 0.8689(4)
H5 H 0.509660 0.282298 0.694671
H6 H 0.667141 0.366352 0.890798
C9 C 0.5585(4) 0.3194(3) 0.9238(4)
C10 C 0.4816(4) 0.2841(2) 0.8870(4)
H7 H 0.441703 0.269493 0.923084
W1 W 0.33106(2) 0.13748(2) 0.86467(2)
S1 S 0.40345(11) 0.12161(7) 0.75173(10)
S2 S 0.25115(10) 0.22104(6) 0.84534(10)
S3 S 0.44227(10) 0.14315(6) 0.98480(9)
S4 S 0.22854(10) 0.06543(6) 0.87708(9)
Cu1 Cu 0.34481(5) 0.21412(3) 0.73989(4)
Cu2 Cu 0.52371(5) 0.11964(3) 0.87273(5)
Cu3 Cu 0.13759(5) 0.14772(3) 0.83600(4)
N4 N 0.3274(4) 0.2431(2) 0.6228(3)
C16 C 0.3342(4) 0.2604(3) 0.5551(4)
Cu5 Cu 0.34219(5) 0.29440(4) 0.44548(5)
N5 N 0.2136(4) 0.3141(3) 0.3860(4)
C17 C 0.4559(4) 0.3155(3) 0.4057(4)
C18 C 0.1385(4) 0.3361(3) 0.3727(4)
N6 N 0.5233(3) 0.3316(2) 0.3807(3)
C19 C 0.5651(4) 0.0377(3) 0.8987(4)
N8 N 0.0982(4) 0.1471(2) 0.6977(3)
Cu6 Cu 0.02371(5) 0.38036(3) 0.37273(5)
Cu10 Cu 0.83908(5) 0.42997(3) 0.50689(4)
C20 C 0.6385(4) 0.1639(3) 0.8727(4)
N10 N 0.0233(3) 0.1684(2) 0.8807(3)
N7 N 0.6002(4) 0.9972(2) 0.9341(3)
Cu9 Cu 0.66092(5) 0.92997(3) 0.99311(4)
Cu5_2 Cu 0.15781(5) 0.79440(4) 0.05452(5)
N5_2 N 0.2864(4) 0.8141(3) 0.1140(4)
C17_2 C 0.0441(4) 0.8155(3) 0.0943(4)
C18_2 C 0.3615(4) 0.8361(3) 0.1273(4)
Cu6_2 Cu 0.47629(5) 0.88036(3) 0.12727(5)
N1_2 N 0.0378(3) 0.7701(2) 0.6977(3)
C10_2 C 0.0184(4) 0.7841(2) 0.6130(4)
H7_2 H 0.058297 0.769493 0.576916
W1_2 W 0.16894(2) 0.63748(2) 0.63533(2)
S1_2 S 0.09655(11) 0.62161(7) 0.74827(10)
S2_2 S 0.24885(10) 0.72104(6) 0.65466(10)
S3_2 S 0.05773(10) 0.64315(6) 0.51520(9)
S4_2 S 0.27146(10) 0.56543(6) 0.62292(9)
Cu1_2 Cu 0.15519(5) 0.71412(3) 0.76011(4)
Cu3_2 Cu 0.36241(5) 0.64772(3) 0.66400(4)
Cu4_2 Cu 0.16092(5) 0.57003(3) 0.49311(4)
N4_2 N 0.1726(4) 0.7431(2) 0.8772(3)
C16_2 C 0.1658(4) 0.7604(3) 0.9449(4)
N8_2 N 0.4018(4) 0.6471(2) 0.8023(3)
N9_2 N 0.2398(3) 0.6055(2) 0.4025(3)
N10_2 N 0.4767(3) 0.6684(2) 0.6193(3)
N11_2 N 0.1002(4) 0.5028(2) 0.4341(3)
N6_2 N 0.9767(3) 0.8316(2) 0.1193(3)
Cu7 Cu 0.86241(5) 0.85228(3) 0.16400(4)
N2_2 N 0.9018(4) 0.8529(2) 0.3023(3)
N3_2 N 0.7398(3) 0.8945(2) 0.9025(3)
C1_2 C 0.7019(5) 0.8895(4) 0.8180(4)
C2_2 C 0.8307(4) 0.8794(3) 0.9249(4)
H1_2 H 0.638277 0.901083 0.799614
C3_2 C 0.7508(5) 0.8686(3) 0.7568(4)
C4_2 C 0.8880(4) 0.8591(3) 0.8679(4)
H2_2 H 0.858954 0.882478 0.983300
H3_2 H 0.719952 0.865673 0.699025
C5_2 C 0.8459(4) 0.8518(2) 0.7807(3)
H4_2 H 0.952821 0.850658 0.887504
C6_2 C 0.9039(4) 0.8285(2) 0.7185(3)
C7_2 C 0.9790(4) 0.7924(3) 0.7468(4)
C8_2 C 0.8842(4) 0.8421(3) 0.6311(4)
H5_2 H 0.990340 0.782298 0.805329
H6_2 H 0.832859 0.866352 0.609202
C9_2 C 0.9415(4) 0.8194(3) 0.5762(4)
C11_2 C 0.9258(4) 0.8311(3) 0.4819(4)
C12_2 C 0.8836(5) 0.8803(3) 0.4438(4)
C13_2 C 0.9498(6) 0.7898(3) 0.4242(4)
H8_2 H 0.861355 0.907779 0.478702
C14_2 C 0.8728(5) 0.8906(3) 0.3554(4)
C15_2 C 0.9374(6) 0.8029(4) 0.3373(5)
H9_2 H 0.973900 0.753926 0.444403
H10_2 H 0.844348 0.924966 0.332866
H11_2 H 0.954859 0.775079 0.300179
Cu2_2 Cu 0.97629(5) 0.61964(3) 0.62727(5)
C19_2 C 0.9349(4) 0.5377(3) 0.6013(4)
N7_2 N 0.8998(4) 0.4972(2) 0.5659(3)
C20_2 C 0.8615(4) 0.6639(3) 0.6273(4)
N1_3 N 0.5378(3) 0.7299(2) 0.1977(3)
C1_3 C 0.2019(5) 0.6105(4) 0.3180(4)
C2_3 C 0.3307(4) 0.6206(3) 0.4249(4)
H1_3 H 0.138277 0.598917 0.299614
C3_3 C 0.2508(5) 0.6314(3) 0.2568(4)
C4_3 C 0.3880(4) 0.6409(3) 0.3679(4)
H2_3 H 0.358954 0.617522 0.483300
H3_3 H 0.219952 0.634327 0.199025
C5_3 C 0.3459(4) 0.6482(2) 0.2807(3)
H4_3 H 0.452821 0.649342 0.387504
C6_3 C 0.4039(4) 0.6715(2) 0.2185(3)
C7_3 C 0.4790(4) 0.7076(3) 0.2468(4)
C8_3 C 0.3842(4) 0.6579(3) 0.1311(4)
H5_3 H 0.490340 0.717702 0.305329
H6_3 H 0.332859 0.633648 0.109202
C9_3 C 0.4415(4) 0.6806(3) 0.0762(4)
C10_3 C 0.5184(4) 0.7159(2) 0.1130(4)
H7_3 H 0.558297 0.730507 0.076916
W1_3 W 0.66894(2) 0.86252(2) 0.13533(2)
S1_3 S 0.59655(11) 0.87839(7) 0.24827(10)
S2_3 S 0.74885(10) 0.77896(6) 0.15466(10)
S3_3 S 0.55773(10) 0.85685(6) 0.01520(9)
S4_3 S 0.77146(10) 0.93457(6) 0.12292(9)
Cu1_3 Cu 0.65519(5) 0.78588(3) 0.26011(4)
N4_3 N 0.6726(4) 0.7569(2) 0.3772(3)
C16_3 C 0.6658(4) 0.7396(3) 0.4449(4)
Cu5_3 Cu 0.65781(5) 0.70560(4) 0.55452(5)
N5_3 N 0.7864(4) 0.6859(3) 0.6140(4)
C17_3 C 0.5441(4) 0.6845(3) 0.5943(4)
C19_3 C 0.4349(4) 0.9623(3) 0.1013(4)
C11_3 C 0.4258(4) 0.6689(3) 0.9819(4)
C12_3 C 0.3836(5) 0.6197(3) 0.9438(4)
C13_3 C 0.4498(6) 0.7102(3) 0.9242(4)
H8_3 H 0.361355 0.592221 0.978702
C14_3 C 0.3728(5) 0.6094(3) 0.8554(4)
C15_3 C 0.4374(6) 0.6971(4) 0.8373(5)
H9_3 H 0.473900 0.746074 0.944403
H10_3 H 0.344348 0.575034 0.832866
H11_3 H 0.454859 0.724921 0.800179
C1_4 C 0.2981(5) 0.1105(4) 0.1820(4)
C2_4 C 0.1693(4) 0.1206(3) 0.0751(4)
H1_4 H 0.361723 0.098917 0.200386
C3_4 C 0.2492(5) 0.1314(3) 0.2432(4)
C4_4 C 0.1120(4) 0.1409(3) 0.1321(4)
H2_4 H 0.141046 0.117522 0.016700
H3_4 H 0.280048 0.134327 0.300975
C5_4 C 0.1541(4) 0.1482(2) 0.2193(3)
H4_4 H 0.047179 0.149342 0.112496
C6_4 C 0.0961(4) 0.1715(2) 0.2815(3)
C7_4 C 0.0210(4) 0.2076(3) 0.2532(4)
C8_4 C 0.1158(4) 0.1579(3) 0.3689(4)
H5_4 H 0.009660 0.217702 0.194671
H6_4 H 0.167141 0.133648 0.390798
C9_4 C 0.0585(4) 0.1806(3) 0.4238(4)
C11_4 C 0.0742(4) 0.1689(3) 0.5181(4)
C12_4 C 0.1164(5) 0.1197(3) 0.5562(4)
C13_4 C 0.0502(6) 0.2102(3) 0.5758(4)
H8_4 H 0.138645 0.092221 0.521298
C14_4 C 0.1272(5) 0.1094(3) 0.6446(4)
C15_4 C 0.0626(6) 0.1971(4) 0.6627(5)
H9_4 H 0.026100 0.246074 0.555597
H10_4 H 0.155652 0.075034 0.667134
H11_4 H 0.045141 0.224921 0.699821
C19_4 C 0.0651(4) 0.4623(3) 0.3987(4)
N1_4 N 0.9622(3) 0.2299(2) 0.3023(3)
C10_4 C 0.9816(4) 0.2159(2) 0.3870(4)
H7_4 H 0.941703 0.230507 0.423084
W1_4 W 0.83106(2) 0.36252(2) 0.36467(2)
S1_4 S 0.90345(11) 0.37839(7) 0.25173(10)
S2_4 S 0.75115(10) 0.27896(6) 0.34534(10)
S3_4 S 0.94227(10) 0.35685(6) 0.48480(9)
S4_4 S 0.72854(10) 0.43457(6) 0.37708(9)
Cu1_4 Cu 0.84481(5) 0.28588(3) 0.23989(4)
N4_4 N 0.8274(4) 0.2569(2) 0.1228(3)
C16_4 C 0.8342(4) 0.2396(3) 0.0551(4)
Cu5_4 Cu 0.84219(5) 0.20560(4) 0.94548(5)
N5_4 N 0.7136(4) 0.1859(3) 0.8860(4)
C17_4 C 0.9559(4) 0.1845(3) 0.9057(4)
N12 N 0.4372(13) 0.5118(4) 0.1018(8)
H12 H 0.509189 0.5118 0.1018
H13 H 0.406861 0.547585 0.0706713
H14 H 0.406861 0.476015 0.0706713
H15 H 0.425888 0.5118 0.164057
N12_2 N 0.0628(13) 0.0118(4) 0.3982(8)
H13_2 H 0.0931389 0.047585 0.429329
H15_2 H 0.0741117 0.0118 0.335943
H14_2 H 0.0931389 0.976015 0.429329
H12_2 H 0.990811 0.0118 0.3982
N12_3 N 0.5628(13) 0.4882(4) 0.8982(8)
H12_3 H 0.490811 0.4882 0.8982
H13_3 H 0.593139 0.452415 0.929329
H14_3 H 0.593139 0.523985 0.929329
H15_3 H 0.574112 0.4882 0.835943
H12_4 H 0.00918939 0.9882 0.6018
H14_4 H 0.906861 0.023985 0.570671
N12_4 N 0.9372(13) 0.9882(4) 0.6018(8)
H13_4 H 0.906861 0.952415 0.570671
H15_4 H 0.925888 0.9882 0.664057
loop_
_geom_bond_atom_site_label_1
_geom_bond_atom_site_label_2
_geom_bond_site_symmetry_1
_geom_bond_site_symmetry_2
N2 C14 1_555 1_555
C12 C11 1_555 1_555
C13 C11 1_555 1_555
H8 C12 1_555 1_555
C14 C12 1_555 1_555
C15 N2 1_555 1_555
H9 C13 1_555 1_555
H10 C14 1_555 1_555
H11 C15 1_555 1_555
N9 Cu4 1_555 1_555
Cu8 N2 1_555 1_555
N11 Cu4 1_555 1_555
C13 C15 1_555 1_555
N1 C7 1_555 1_555
N3 C1 1_555 1_555
C1 H1 1_555 1_555
C2 N3 1_555 1_555
C3 C1 1_555 1_555
C4 C2 1_555 1_555
H2 C2 1_555 1_555
H3 C3 1_555 1_555
C5 C3 1_555 1_555
H4 C4 1_555 1_555
C6 C5 1_555 1_555
C7 C6 1_555 1_555
C8 C6 1_555 1_555
H5 C7 1_555 1_555
H6 C8 1_555 1_555
C9 C8 1_555 1_555
C10 N1 1_555 1_555
H7 C10 1_555 1_555
W1 S1 1_555 1_555
S1 Cu1 1_555 1_555
S2 W1 1_555 1_555
S3 W1 1_555 1_555
S4 W1 1_555 1_555
Cu1 N1 1_555 1_555
Cu2 S1 1_555 1_555
Cu3 S2 1_555 1_555
N4 Cu1 1_555 1_555
C16 N4 1_555 1_555
Cu5 C16 1_555 1_555
N5 Cu5 1_555 1_555
C17 Cu5 1_555 1_555
C18 N5 1_555 1_555
N6 C17 1_555 1_555
C19 Cu2 1_555 1_555
N8 Cu3 1_555 1_555
Cu6 C18 1_555 1_555
Cu8 N6 1_555 1_555
Cu10 N3 1_555 1_555
C20 Cu2 1_555 1_555
N10 Cu3 1_555 1_555
C4 C5 1_555 1_555
C9 C10 1_555 1_555
S2 Cu1 1_555 1_555
S3 Cu2 1_555 1_555
S4 Cu3 1_555 1_555
Cu9 N7 1_555 1_555
N5_2 Cu5_2 1_555 1_555
C17_2 Cu5_2 1_555 1_555
C18_2 N5_2 1_555 1_555
Cu6_2 C18_2 1_555 1_555
C10_2 N1_2 1_555 1_555
H7_2 C10_2 1_555 1_555
W1_2 S1_2 1_555 1_555
S1_2 Cu1_2 1_555 1_555
S2_2 W1_2 1_555 1_555
S3_2 W1_2 1_555 1_555
S4_2 W1_2 1_555 1_555
Cu1_2 N1_2 1_555 1_555
Cu3_2 S2_2 1_555 1_555
Cu4_2 S3_2 1_555 1_555
N4_2 Cu1_2 1_555 1_555
C16_2 N4_2 1_555 1_555
N8_2 Cu3_2 1_555 1_555
N9_2 Cu4_2 1_555 1_555
N10_2 Cu3_2 1_555 1_555
N11_2 Cu4_2 1_555 1_555
S2_2 Cu1_2 1_555 1_555
S4_2 Cu3_2 1_555 1_555
S4_2 Cu4_2 1_555 1_555
Cu7 N6_2 1_555 1_555
N2_2 C14_2 1_555 1_555
N3_2 C1_2 1_555 1_555
C1_2 H1_2 1_555 1_555
C2_2 N3_2 1_555 1_555
C3_2 C1_2 1_555 1_555
C4_2 C2_2 1_555 1_555
H2_2 C2_2 1_555 1_555
H3_2 C3_2 1_555 1_555
C5_2 C3_2 1_555 1_555
H4_2 C4_2 1_555 1_555
C6_2 C5_2 1_555 1_555
C7_2 C6_2 1_555 1_555
C8_2 C6_2 1_555 1_555
H5_2 C7_2 1_555 1_555
H6_2 C8_2 1_555 1_555
C9_2 C8_2 1_555 1_555
C11_2 C9_2 1_555 1_555
C12_2 C11_2 1_555 1_555
C13_2 C11_2 1_555 1_555
H8_2 C12_2 1_555 1_555
C14_2 C12_2 1_555 1_555
C15_2 N2_2 1_555 1_555
H9_2 C13_2 1_555 1_555
H10_2 C14_2 1_555 1_555
H11_2 C15_2 1_555 1_555
C19_2 Cu2_2 1_555 1_555
N7_2 C19_2 1_555 1_555
Cu7 N2_2 1_555 1_555
Cu10 N7_2 1_555 1_555
Cu9 N3_2 1_555 1_555
C20_2 Cu2_2 1_555 1_555
C4_2 C5_2 1_555 1_555
C13_2 C15_2 1_555 1_555
N1_3 C7_3 1_555 1_555
N9_2 C1_3 1_555 1_555
C1_3 H1_3 1_555 1_555
C2_3 N9_2 1_555 1_555
C3_3 C1_3 1_555 1_555
C4_3 C2_3 1_555 1_555
H2_3 C2_3 1_555 1_555
H3_3 C3_3 1_555 1_555
C5_3 C3_3 1_555 1_555
H4_3 C4_3 1_555 1_555
C6_3 C5_3 1_555 1_555
C7_3 C6_3 1_555 1_555
C8_3 C6_3 1_555 1_555
H5_3 C7_3 1_555 1_555
H6_3 C8_3 1_555 1_555
C9_3 C8_3 1_555 1_555
C10_3 N1_3 1_555 1_555
H7_3 C10_3 1_555 1_555
W1_3 S1_3 1_555 1_555
S1_3 Cu1_3 1_555 1_555
S2_3 W1_3 1_555 1_555
S3_3 W1_3 1_555 1_555
S4_3 W1_3 1_555 1_555
Cu1_3 N1_3 1_555 1_555
Cu6_2 S1_3 1_555 1_555
Cu7 S2_3 1_555 1_555
N4_3 Cu1_3 1_555 1_555
C16_3 N4_3 1_555 1_555
Cu5_3 C16_3 1_555 1_555
N5_3 Cu5_3 1_555 1_555
C17_3 Cu5_3 1_555 1_555
C20_2 N5_3 1_555 1_555
N10_2 C17_3 1_555 1_555
C19_3 Cu6_2 1_555 1_555
C4_3 C5_3 1_555 1_555
C9_3 C10_3 1_555 1_555
S2_3 Cu1_3 1_555 1_555
S3_3 Cu6_2 1_555 1_555
S4_3 Cu7 1_555 1_555
N8_2 C14_3 1_555 1_555
C12_3 C11_3 1_555 1_555
C13_3 C11_3 1_555 1_555
H8_3 C12_3 1_555 1_555
C14_3 C12_3 1_555 1_555
C15_3 N8_2 1_555 1_555
H9_3 C13_3 1_555 1_555
H10_3 C14_3 1_555 1_555
H11_3 C15_3 1_555 1_555
C13_3 C15_3 1_555 1_555
N8 C14_4 1_555 1_555
N9 C1_4 1_555 1_555
C1_4 H1_4 1_555 1_555
C2_4 N9 1_555 1_555
C3_4 C1_4 1_555 1_555
C4_4 C2_4 1_555 1_555
H2_4 C2_4 1_555 1_555
H3_4 C3_4 1_555 1_555
C5_4 C3_4 1_555 1_555
H4_4 C4_4 1_555 1_555
C6_4 C5_4 1_555 1_555
C7_4 C6_4 1_555 1_555
C8_4 C6_4 1_555 1_555
H5_4 C7_4 1_555 1_555
H6_4 C8_4 1_555 1_555
C9_4 C8_4 1_555 1_555
C11_4 C9_4 1_555 1_555
C12_4 C11_4 1_555 1_555
C13_4 C11_4 1_555 1_555
H8_4 C12_4 1_555 1_555
C14_4 C12_4 1_555 1_555
C15_4 N8 1_555 1_555
H9_4 C13_4 1_555 1_555
H10_4 C14_4 1_555 1_555
H11_4 C15_4 1_555 1_555
C19_4 Cu6 1_555 1_555
N11_2 C19_4 1_555 1_555
C4_4 C5_4 1_555 1_555
C13_4 C15_4 1_555 1_555
C10_4 N1_4 1_555 1_555
H7_4 C10_4 1_555 1_555
W1_4 S1_4 1_555 1_555
S1_4 Cu1_4 1_555 1_555
S2_4 W1_4 1_555 1_555
S3_4 W1_4 1_555 1_555
S4_4 W1_4 1_555 1_555
Cu1_4 N1_4 1_555 1_555
Cu8 S2_4 1_555 1_555
Cu10 S3_4 1_555 1_555
N4_4 Cu1_4 1_555 1_555
C16_4 N4_4 1_555 1_555
S2_4 Cu1_4 1_555 1_555
S4_4 Cu8 1_555 1_555
S4_4 Cu10 1_555 1_555
N5_4 Cu5_4 1_555 1_555
C17_4 Cu5_4 1_555 1_555
C20 N5_4 1_555 1_555
N12 H12 1_555 1_555
N12 H13 1_555 1_555
N12 H14 1_555 1_555
N12 H15 1_555 1_555
N12_2 H13_2 1_555 1_555
N12_2 H15_2 1_555 1_555
N12_3 H12_3 1_555 1_555
N12_3 H13_3 1_555 1_555
N12_3 H14_3 1_555 1_555
N12_3 H15_3 1_555 1_555
N12_4 H13_4 1_555 1_555
N12_4 H15_4 1_555 1_555

#END
