
###############################################################################
#
# This file contains modified crystal structure data generated from the
# MOF subset of the Cambridge Structural Database (CSD) v543 
# hosted by the Cambridge Crystallographic Data Centre (CCDC).
#
# This work is licensed under the Creative Commons
# Attribution-NonCommercial-ShareAlike 4.0 International License.
# To view a copy of this license, visit
# http://creativecommons.org/licenses/by-nc-sa/4.0/
# or send a letter to
# Creative Commons, PO Box 1866, Mountain View, CA 94042, USA.
#
# CIF created using the CSD Python API on 29 September 2022
# The structure has been converted into the P1 space group
# The structure has a 3D framework
# The original CSD entry OSADUK is in the monoclinic crystal system
# The framework has been calculated to contain at least 10.0% void space
# The void calculation uses a probe of radius 1.32A, grid spacing 0.4
# The framework is charged, counterions have been retained in the structure
#
###############################################################################

data_OSADUK
_chemical_formula_moiety         '(C128 H64 O61 Zn14 4-)n'
_symmetry_cell_setting           triclinic
_symmetry_space_group_name_H-M   'P 1'
_symmetry_Int_Tables_number      1
_space_group_name_Hall           'P 1'
loop_
_symmetry_equiv_pos_site_id
_symmetry_equiv_pos_as_xyz
1 x,y,z
_cell_length_a                   33.299(3)
_cell_length_b                   9.790(4)
_cell_length_c                   18.185(5)
_cell_angle_alpha                90
_cell_angle_beta                 93.420(6)
_cell_angle_gamma                90
_cell_volume                     5917.7
loop_
_atom_site_label
_atom_site_type_symbol
_atom_site_fract_x
_atom_site_fract_y
_atom_site_fract_z
Zn1 Zn 0.2500 0.2500 0.5000
Zn2 Zn 0.347290(17) 0.19939(6) 0.51542(3)
O1 O 0.21615(11) 0.1166(4) 0.55479(19)
O2 O 0.15405(11) 0.1880(4) 0.5753(2)
O5 O 0.29779(9) 0.0875(4) 0.4940(2)
O7 O 0.40385(12) 0.1510(5) 0.5358(3)
O8 O 0.39244(15) 0.0177(7) 0.4388(3)
C1 C 0.18543(17) 0.1249(5) 0.5923(3)
C2 C 0.18710(16) 0.0509(6) 0.6647(3)
C3 C 0.15308(16) 0.0366(7) 0.7039(3)
H1 H 0.1287 0.0728 0.6852
H4 H 0.2466 0.0007 0.6681
C13 C 0.4151(2) 0.0701(8) 0.4884(4)
C14 C 0.45914(19) 0.0341(8) 0.4923(4)
C16 C 0.4856(2) 0.0979(10) 0.5463(5)
H8 H 0.4759 0.1650 0.5768
C23 C 0.5261(2) 0.0601(10) 0.5540(4)
H11 H 0.5430 0.0994 0.5907
O13 O 0.28385(11) 0.3834(4) 0.44521(19)
O14 O 0.34595(11) 0.3120(4) 0.4247(2)
O15 O 0.27299(11) 0.6892(4) 0.1005(2)
O16 O 0.34085(11) 0.6820(4) 0.1003(2)
C25 C 0.31457(17) 0.3751(5) 0.4077(3)
C26 C 0.31290(16) 0.4491(6) 0.3353(3)
C27 C 0.34692(16) 0.4634(7) 0.2961(3)
H13 H 0.3713 0.4272 0.3148
C28 C 0.34495(17) 0.5307(7) 0.2297(3)
H14 H 0.3681 0.5396 0.2038
C29 C 0.30926(16) 0.5851(6) 0.2009(3)
C30 C 0.27495(17) 0.5709(7) 0.2381(3)
H15 H 0.2506 0.6049 0.2179
C31 C 0.27648(17) 0.5057(7) 0.3058(3)
H16 H 0.2534 0.4993 0.3319
C32 C 0.30755(18) 0.6571(6) 0.1274(3)
Zn6 Zn 0.2500 0.7500 0.0000
Zn8 Zn 0.347290(17) 0.80061(6) 0.01542(3)
Zn10 Zn 0.152710(17) 0.30061(6) 0.48458(3)
O18 O 0.27299(11) 0.3108(4) 0.6005(2)
O19 O 0.22701(11) 0.1892(4) 0.3995(2)
O20 O 0.34085(11) 0.3180(4) 0.6003(2)
O23 O 0.20221(9) 0.4125(4) 0.5060(2)
Zn6_2 Zn 0.2500 0.7500 1.0000
O3 O 0.22701(11) 0.8108(4) 0.8995(2)
O4 O 0.15915(11) 0.8180(4) 0.8997(2)
O6 O 0.32452(14) 0.9792(5) 0.5919(3)
C4 C 0.15505(17) 0.9693(7) 0.7703(3)
H2 H 0.1319 0.9604 0.7962
C5 C 0.19074(16) 0.9149(6) 0.7991(3)
C6 C 0.22505(17) 0.9291(7) 0.7619(3)
H3 H 0.2494 0.8951 0.7821
C7 C 0.22352(17) 0.9943(7) 0.6942(3)
C8 C 0.19245(18) 0.8429(6) 0.8726(3)
C9 C 0.30076(17) 0.9832(6) 0.5388(4)
C10 C 0.27409(16) 0.8630(6) 0.5189(3)
C11 C 0.27420(19) 0.7495(6) 0.5655(3)
H5 H 0.2903 0.7496 0.6091
C12 C 0.24928(18) 0.8625(6) 0.4527(3)
H6 H 0.2489 0.9379 0.4216
C15 C 0.4739(2) 0.9399(10) 0.4460(4)
H7 H 0.4570 0.9006 0.4093
O10 O 0.17548(14) 0.5208(5) 0.4081(3)
C17 C 0.19924(17) 0.5168(6) 0.4612(4)
C18 C 0.22591(16) 0.6370(6) 0.4811(3)
C19 C 0.22580(19) 0.7505(6) 0.4345(3)
H9 H 0.2097 0.7504 0.3909
C20 C 0.25072(18) 0.6375(6) 0.5473(3)
H10 H 0.2511 0.5621 0.5784
O11 O 0.59615(12) 0.8490(5) 0.4642(3)
O12 O 0.60756(15) 0.9823(7) 0.5612(3)
C21 C 0.5849(2) 0.9299(8) 0.5116(4)
C22 C 0.54086(19) 0.9659(8) 0.5077(4)
C24 C 0.5144(2) 0.9021(10) 0.4537(5)
H12 H 0.5241 0.8350 0.4232
Zn3 Zn 0.652710(17) 0.80061(6) 0.48458(3)
Zn7 Zn 0.152710(17) 0.69939(6) 0.98458(3)
O17 O 0.65405(11) 0.6880(4) 0.5753(2)
O21 O 0.65915(11) 0.6820(4) 0.3997(2)
O22 O 0.70221(9) 0.9125(4) 0.5060(2)
Zn1_2 Zn 0.7500 0.2500 -0.0000
O5_2 O 0.70221(9) 0.0875(4) 0.0060(2)
O8_2 O 0.60756(15) 0.0177(7) 0.0612(3)
C13_2 C 0.5849(2) 0.0701(8) 0.0116(4)
C14_2 C 0.54086(19) 0.0341(8) 0.0077(4)
O13_2 O 0.71615(11) 0.3834(4) 0.05479(19)
O14_2 O 0.65405(11) 0.3120(4) 0.0753(2)
O15_2 O 0.72701(11) 0.6892(4) 0.3995(2)
C25_2 C 0.68543(17) 0.3751(5) 0.0923(3)
C26_2 C 0.68710(16) 0.4491(6) 0.1647(3)
C27_2 C 0.65308(16) 0.4634(7) 0.2039(3)
H13_2 H 0.6287 0.4272 0.1852
C28_2 C 0.65505(17) 0.5307(7) 0.2703(3)
H14_2 H 0.6319 0.5396 0.2962
C29_2 C 0.69074(16) 0.5851(6) 0.2991(3)
C30_2 C 0.72505(17) 0.5709(7) 0.2619(3)
H15_2 H 0.7494 0.6049 0.2821
C31_2 C 0.72352(17) 0.5057(7) 0.1942(3)
H16_2 H 0.7466 0.4993 0.1681
C32_2 C 0.69245(18) 0.6571(6) 0.3726(3)
Zn6_3 Zn 0.7500 0.7500 0.5000
Zn10_2 Zn 0.847290(17) 0.30061(6) 0.01542(3)
O19_2 O 0.77299(11) 0.1892(4) 0.1005(2)
Zn1_3 Zn 0.7500 0.2500 1.0000
Zn2_2 Zn 0.652710(17) 0.19939(6) 0.98458(3)
O1_2 O 0.78385(11) 0.1166(4) 0.94521(19)
O2_2 O 0.84595(11) 0.1880(4) 0.9247(2)
O7_2 O 0.59615(12) 0.1510(5) 0.9642(3)
C1_2 C 0.81457(17) 0.1249(5) 0.9077(3)
C2_2 C 0.81290(16) 0.0509(6) 0.8353(3)
C3_2 C 0.84692(16) 0.0366(7) 0.7961(3)
H1_2 H 0.8713 0.0728 0.8148
H4_2 H 0.7534 0.0007 0.8319
C16_2 C 0.5144(2) 0.0979(10) 0.9537(5)
H8_2 H 0.5241 0.1650 0.9232
C23_2 C 0.4739(2) 0.0601(10) 0.9460(4)
H11_2 H 0.4570 0.0994 0.9093
O18_2 O 0.72701(11) 0.3108(4) 0.8995(2)
O20_2 O 0.65915(11) 0.3180(4) 0.8997(2)
O23_2 O 0.79779(9) 0.4125(4) 0.9940(2)
C12_2 C 0.75072(18) 0.8625(6) 0.0473(3)
H6_2 H 0.7511 0.9379 0.0784
C15_2 C 0.5261(2) 0.9399(10) 0.0540(4)
H7_2 H 0.5430 0.9006 0.0907
O10_2 O 0.82452(14) 0.5208(5) 0.0919(3)
C17_2 C 0.80076(17) 0.5168(6) 0.0388(4)
C18_2 C 0.77409(16) 0.6370(6) 0.0189(3)
C19_2 C 0.77420(19) 0.7505(6) 0.0655(3)
H9_2 H 0.7903 0.7504 0.1091
O11_2 O 0.40385(12) 0.8490(5) 0.0358(3)
C24_2 C 0.4856(2) 0.9021(10) 0.0463(5)
H12_2 H 0.4759 0.8350 0.0768
O3_2 O 0.77299(11) 0.8108(4) 0.6005(2)
O4_2 O 0.84085(11) 0.8180(4) 0.6003(2)
O6_2 O 0.67548(14) 0.9792(5) 0.9081(3)
C4_2 C 0.84495(17) 0.9693(7) 0.7297(3)
H2_2 H 0.8681 0.9604 0.7038
C5_2 C 0.80926(16) 0.9149(6) 0.7009(3)
C6_2 C 0.77495(17) 0.9291(7) 0.7381(3)
H3_2 H 0.7506 0.8951 0.7179
C7_2 C 0.77648(17) 0.9943(7) 0.8058(3)
C8_2 C 0.80755(18) 0.8429(6) 0.6274(3)
C9_2 C 0.69924(17) 0.9832(6) 0.9612(4)
C10_2 C 0.72591(16) 0.8630(6) 0.9811(3)
C11_2 C 0.72580(19) 0.7495(6) 0.9345(3)
H5_2 H 0.7097 0.7496 0.8909
C20_2 C 0.74928(18) 0.6375(6) 0.9527(3)
H10_2 H 0.7489 0.5621 0.9216
O12_2 O 0.39244(15) 0.9823(7) 0.9388(3)
C21_2 C 0.4151(2) 0.9299(8) 0.9884(4)
C22_2 C 0.45914(19) 0.9659(8) 0.9923(4)
Zn7_2 Zn 0.847290(17) 0.69939(6) 0.51542(3)
O17_2 O 0.34595(11) 0.6880(4) 0.9247(2)
O22_2 O 0.29779(9) 0.9125(4) 0.9940(2)
O11_3 O 0.09615(12) 0.3490(5) 0.4642(3)
O12_3 O 0.10756(15) 0.4823(7) 0.5612(3)
C21_3 C 0.0849(2) 0.4299(8) 0.5116(4)
C22_3 C 0.04086(19) 0.4659(8) 0.5077(4)
C23_3 C 0.0261(2) 0.5601(10) 0.5540(4)
H11_3 H 0.0430 0.5994 0.5907
C24_3 C 0.0144(2) 0.4021(10) 0.4537(5)
H12_3 H 0.0241 0.3350 0.4232
O21_2 O 0.15915(11) 0.1820(4) 0.3997(2)
O16_2 O 0.84085(11) 0.1820(4) 0.1003(2)
C28_3 C 0.84495(17) 0.0307(7) 0.2297(3)
H14_3 H 0.8681 0.0396 0.2038
C29_3 C 0.80926(16) 0.0851(6) 0.2009(3)
C30_3 C 0.77495(17) 0.0709(7) 0.2381(3)
H15_3 H 0.7506 0.1049 0.2179
C31_3 C 0.77648(17) 0.0057(7) 0.3058(3)
C32_3 C 0.80755(18) 0.1571(6) 0.1274(3)
O1_3 O 0.71615(11) 0.6166(4) 0.55479(19)
O5_3 O 0.79779(9) 0.5875(4) 0.4940(2)
O6_3 O 0.82452(14) 0.4792(5) 0.5919(3)
O7_3 O 0.90385(12) 0.6510(5) 0.5358(3)
O8_3 O 0.89244(15) 0.5177(7) 0.4388(3)
C1_3 C 0.68543(17) 0.6249(5) 0.5923(3)
C2_3 C 0.68710(16) 0.5509(6) 0.6647(3)
C3_3 C 0.65308(16) 0.5366(7) 0.7039(3)
H1_3 H 0.6287 0.5728 0.6852
C4_3 C 0.65505(17) 0.4693(7) 0.7703(3)
H2_3 H 0.6319 0.4604 0.7962
C5_3 C 0.69074(16) 0.4149(6) 0.7991(3)
C6_3 C 0.72505(17) 0.4291(7) 0.7619(3)
H3_3 H 0.7494 0.3951 0.7821
C7_3 C 0.72352(17) 0.4943(7) 0.6942(3)
H4_3 H 0.7466 0.5007 0.6681
C8_3 C 0.69245(18) 0.3429(6) 0.8726(3)
C9_3 C 0.80076(17) 0.4832(6) 0.5388(4)
C10_3 C 0.77409(16) 0.3630(6) 0.5189(3)
C11_3 C 0.77420(19) 0.2495(6) 0.5655(3)
H5_3 H 0.7903 0.2496 0.6091
C12_3 C 0.74928(18) 0.3625(6) 0.4527(3)
H6_3 H 0.7489 0.4379 0.4216
C13_3 C 0.9151(2) 0.5701(8) 0.4884(4)
C14_3 C 0.95914(19) 0.5341(8) 0.4923(4)
C15_3 C 0.9739(2) 0.4399(10) 0.4460(4)
H7_3 H 0.9570 0.4006 0.4093
C16_3 C 0.9856(2) 0.5979(10) 0.5463(5)
H8_3 H 0.9759 0.6650 0.5768
O10_3 O 0.67548(14) 0.0208(5) 0.4081(3)
C17_3 C 0.69924(17) 0.0168(6) 0.4612(4)
C18_3 C 0.72591(16) 0.1370(6) 0.4811(3)
C19_3 C 0.72580(19) 0.2505(6) 0.4345(3)
H9_3 H 0.7097 0.2504 0.3909
C20_3 C 0.75072(18) 0.1375(6) 0.5473(3)
H10_3 H 0.7511 0.0621 0.5784
O13_3 O 0.78385(11) 0.8834(4) 0.44521(19)
O14_3 O 0.84595(11) 0.8120(4) 0.4247(2)
C25_3 C 0.81457(17) 0.8751(5) 0.4077(3)
C26_3 C 0.81290(16) 0.9491(6) 0.3353(3)
C27_3 C 0.84692(16) 0.9634(7) 0.2961(3)
H13_3 H 0.8713 0.9272 0.3148
H16_3 H 0.7534 0.9993 0.3319
C28_4 C 0.15505(17) 0.0307(7) 0.2703(3)
H14_4 H 0.1319 0.0396 0.2962
C29_4 C 0.19074(16) 0.0851(6) 0.2991(3)
C30_4 C 0.22505(17) 0.0709(7) 0.2619(3)
H15_4 H 0.2494 0.1049 0.2821
C31_4 C 0.22352(17) 0.0057(7) 0.1942(3)
C32_4 C 0.19245(18) 0.1571(6) 0.3726(3)
O5_4 O 0.20221(9) 0.5875(4) 0.0060(2)
O8_4 O 0.10756(15) 0.5177(7) 0.0612(3)
C12_4 C 0.25072(18) 0.3625(6) 0.0473(3)
H6_4 H 0.2511 0.4379 0.0784
C13_4 C 0.0849(2) 0.5701(8) 0.0116(4)
C14_4 C 0.04086(19) 0.5341(8) 0.0077(4)
C15_4 C 0.0261(2) 0.4399(10) 0.0540(4)
H7_4 H 0.0430 0.4006 0.0907
O10_4 O 0.32452(14) 0.0208(5) 0.0919(3)
C17_4 C 0.30076(17) 0.0168(6) 0.0388(4)
C18_4 C 0.27409(16) 0.1370(6) 0.0189(3)
C19_4 C 0.27420(19) 0.2505(6) 0.0655(3)
H9_4 H 0.2903 0.2504 0.1091
O13_4 O 0.21615(11) 0.8834(4) 0.05479(19)
O14_4 O 0.15405(11) 0.8120(4) 0.0753(2)
C25_4 C 0.18543(17) 0.8751(5) 0.0923(3)
C26_4 C 0.18710(16) 0.9491(6) 0.1647(3)
C27_4 C 0.15308(16) 0.9634(7) 0.2039(3)
H13_4 H 0.1287 0.9272 0.1852
H16_4 H 0.2466 0.9993 0.1681
O1_4 O 0.28385(11) 0.6166(4) 0.94521(19)
O6_4 O 0.17548(14) 0.4792(5) 0.9081(3)
O7_4 O 0.09615(12) 0.6510(5) 0.9642(3)
C1_4 C 0.31457(17) 0.6249(5) 0.9077(3)
C2_4 C 0.31290(16) 0.5509(6) 0.8353(3)
C3_4 C 0.34692(16) 0.5366(7) 0.7961(3)
H1_4 H 0.3713 0.5728 0.8148
C4_4 C 0.34495(17) 0.4693(7) 0.7297(3)
H2_4 H 0.3681 0.4604 0.7038
C5_4 C 0.30926(16) 0.4149(6) 0.7009(3)
C6_4 C 0.27495(17) 0.4291(7) 0.7381(3)
H3_4 H 0.2506 0.3951 0.7179
C7_4 C 0.27648(17) 0.4943(7) 0.8058(3)
H4_4 H 0.2534 0.5007 0.8319
C8_4 C 0.30755(18) 0.3429(6) 0.6274(3)
C9_4 C 0.19924(17) 0.4832(6) 0.9612(4)
C10_4 C 0.22591(16) 0.3630(6) 0.9811(3)
C11_4 C 0.22580(19) 0.2495(6) 0.9345(3)
H5_4 H 0.2097 0.2496 0.8909
C16_4 C 0.0144(2) 0.5979(10) 0.9537(5)
H8_4 H 0.0241 0.6650 0.9232
C20_4 C 0.24928(18) 0.1375(6) 0.9527(3)
H10_4 H 0.2489 0.0621 0.9216
O11_4 O 0.90385(12) 0.3490(5) 0.0358(3)
C24_4 C 0.9856(2) 0.4021(10) 0.0463(5)
H12_4 H 0.9759 0.3350 0.0768
O12_4 O 0.89244(15) 0.4823(7) 0.9388(3)
C21_4 C 0.9151(2) 0.4299(8) 0.9884(4)
C22_4 C 0.95914(19) 0.4659(8) 0.9923(4)
C23_4 C 0.9739(2) 0.5601(10) 0.9460(4)
H11_4 H 0.9570 0.5994 0.9093
loop_
_geom_bond_atom_site_label_1
_geom_bond_atom_site_label_2
_geom_bond_site_symmetry_1
_geom_bond_site_symmetry_2
Zn1 O1 1_555 1_555
Zn2 O5 1_555 1_555
O1 C1 1_555 1_555
O2 C1 1_555 1_555
O5 Zn1 1_555 1_555
O7 Zn2 1_555 1_555
O8 C13 1_555 1_555
C1 C2 1_555 1_555
C2 C3 1_555 1_555
C3 H1 1_555 1_555
C13 O7 1_555 1_555
C14 C13 1_555 1_555
C16 C14 1_555 1_555
H8 C16 1_555 1_555
C23 C16 1_555 1_555
H11 C23 1_555 1_555
O13 Zn1 1_555 1_555
O14 Zn2 1_555 1_555
O15 C32 1_555 1_555
O16 C32 1_555 1_555
C25 O13 1_555 1_555
C26 C25 1_555 1_555
C27 C26 1_555 1_555
H13 C27 1_555 1_555
C28 C27 1_555 1_555
H14 C28 1_555 1_555
C29 C28 1_555 1_555
C30 C29 1_555 1_555
H15 C30 1_555 1_555
C31 C26 1_555 1_555
H16 C31 1_555 1_555
C32 C29 1_555 1_555
Zn6 O15 1_555 1_555
Zn8 O16 1_555 1_555
Zn10 O2 1_555 1_555
O18 Zn1 1_555 1_555
O19 Zn1 1_555 1_555
O20 Zn2 1_555 1_555
O23 Zn1 1_555 1_555
O14 C25 1_555 1_555
C30 C31 1_555 1_555
Zn10 O23 1_555 1_555
O3 C8 1_555 1_555
O4 C8 1_555 1_555
O6 C9 1_555 1_555
H2 C4 1_555 1_555
C5 C4 1_555 1_555
C6 C5 1_555 1_555
H3 C6 1_555 1_555
C8 C5 1_555 1_555
C10 C9 1_555 1_555
C11 C10 1_555 1_555
H5 C11 1_555 1_555
C12 C10 1_555 1_555
H6 C12 1_555 1_555
H7 C15 1_555 1_555
O23 C17 1_555 1_555
O10 C17 1_555 1_555
C17 C18 1_555 1_555
C18 C19 1_555 1_555
C19 C12 1_555 1_555
H9 C19 1_555 1_555
C20 C11 1_555 1_555
H10 C20 1_555 1_555
O11 C21 1_555 1_555
O12 C21 1_555 1_555
C21 C22 1_555 1_555
C24 C15 1_555 1_555
H12 C24 1_555 1_555
Zn3 O11 1_555 1_555
Zn6_2 O3 1_555 1_555
Zn7 O4 1_555 1_555
O17 Zn3 1_555 1_555
O21 Zn3 1_555 1_555
O22 Zn3 1_555 1_555
C6 C7 1_555 1_555
C18 C20 1_555 1_555
C22 C24 1_555 1_555
O5_2 Zn1_2 1_555 1_555
O8_2 C13_2 1_555 1_555
C14_2 C13_2 1_555 1_555
O13_2 Zn1_2 1_555 1_555
O15_2 C32_2 1_555 1_555
O21 C32_2 1_555 1_555
C25_2 O13_2 1_555 1_555
C26_2 C25_2 1_555 1_555
C27_2 C26_2 1_555 1_555
H13_2 C27_2 1_555 1_555
C28_2 C27_2 1_555 1_555
H14_2 C28_2 1_555 1_555
C29_2 C28_2 1_555 1_555
C30_2 C29_2 1_555 1_555
H15_2 C30_2 1_555 1_555
C31_2 C26_2 1_555 1_555
H16_2 C31_2 1_555 1_555
C32_2 C29_2 1_555 1_555
Zn6_3 O15_2 1_555 1_555
O19_2 Zn1_2 1_555 1_555
O14_2 C25_2 1_555 1_555
C30_2 C31_2 1_555 1_555
Zn1_3 O1_2 1_555 1_555
O1_2 C1_2 1_555 1_555
O2_2 C1_2 1_555 1_555
O7_2 Zn2_2 1_555 1_555
C1_2 C2_2 1_555 1_555
C2_2 C3_2 1_555 1_555
C3_2 H1_2 1_555 1_555
H8_2 C16_2 1_555 1_555
C23_2 C16_2 1_555 1_555
H11_2 C23_2 1_555 1_555
O18_2 Zn1_3 1_555 1_555
O20_2 Zn2_2 1_555 1_555
O23_2 Zn1_3 1_555 1_555
H6_2 C12_2 1_555 1_555
H7_2 C15_2 1_555 1_555
O10_2 C17_2 1_555 1_555
C17_2 C18_2 1_555 1_555
C18_2 C19_2 1_555 1_555
C19_2 C12_2 1_555 1_555
H9_2 C19_2 1_555 1_555
C24_2 C15_2 1_555 1_555
H12_2 C24_2 1_555 1_555
Zn8 O11_2 1_555 1_555
O3_2 C8_2 1_555 1_555
O4_2 C8_2 1_555 1_555
O6_2 C9_2 1_555 1_555
H2_2 C4_2 1_555 1_555
C5_2 C4_2 1_555 1_555
C6_2 C5_2 1_555 1_555
H3_2 C6_2 1_555 1_555
C8_2 C5_2 1_555 1_555
C10_2 C9_2 1_555 1_555
C11_2 C10_2 1_555 1_555
H5_2 C11_2 1_555 1_555
C20_2 C11_2 1_555 1_555
H10_2 C20_2 1_555 1_555
O12_2 C21_2 1_555 1_555
C21_2 C22_2 1_555 1_555
Zn6_3 O3_2 1_555 1_555
Zn7_2 O4_2 1_555 1_555
C6_2 C7_2 1_555 1_555
O11_3 C21_3 1_555 1_555
O12_3 C21_3 1_555 1_555
C21_3 C22_3 1_555 1_555
C22_3 C23_3 1_555 1_555
H11_3 C23_3 1_555 1_555
H12_3 C24_3 1_555 1_555
Zn10 O11_3 1_555 1_555
O21_2 Zn10 1_555 1_555
C22_3 C24_3 1_555 1_555
O19_2 C32_3 1_555 1_555
O16_2 C32_3 1_555 1_555
H14_3 C28_3 1_555 1_555
C29_3 C28_3 1_555 1_555
C30_3 C29_3 1_555 1_555
H15_3 C30_3 1_555 1_555
C32_3 C29_3 1_555 1_555
Zn10_2 O16_2 1_555 1_555
C30_3 C31_3 1_555 1_555
Zn6_3 O1_3 1_555 1_555
Zn7_2 O5_3 1_555 1_555
O1_3 C1_3 1_555 1_555
O17 C1_3 1_555 1_555
O18_2 C8_3 1_555 1_555
O20_2 C8_3 1_555 1_555
O5_3 Zn6_3 1_555 1_555
O6_3 C9_3 1_555 1_555
O7_3 Zn7_2 1_555 1_555
O8_3 C13_3 1_555 1_555
C1_3 C2_3 1_555 1_555
C2_3 C3_3 1_555 1_555
C3_3 H1_3 1_555 1_555
C4_3 C3_3 1_555 1_555
H2_3 C4_3 1_555 1_555
C5_3 C4_3 1_555 1_555
C6_3 C5_3 1_555 1_555
H3_3 C6_3 1_555 1_555
C7_3 C2_3 1_555 1_555
H4_3 C7_3 1_555 1_555
C8_3 C5_3 1_555 1_555
C9_3 O5_3 1_555 1_555
C10_3 C9_3 1_555 1_555
C11_3 C10_3 1_555 1_555
H5_3 C11_3 1_555 1_555
C12_3 C10_3 1_555 1_555
H6_3 C12_3 1_555 1_555
C13_3 O7_3 1_555 1_555
C14_3 C13_3 1_555 1_555
C15_3 C14_3 1_555 1_555
H7_3 C15_3 1_555 1_555
C16_3 C14_3 1_555 1_555
H8_3 C16_3 1_555 1_555
O10_3 C17_3 1_555 1_555
C17_3 C18_3 1_555 1_555
C18_3 C19_3 1_555 1_555
C19_3 C12_3 1_555 1_555
H9_3 C19_3 1_555 1_555
C20_3 C11_3 1_555 1_555
H10_3 C20_3 1_555 1_555
O13_3 Zn6_3 1_555 1_555
O14_3 Zn7_2 1_555 1_555
C25_3 O13_3 1_555 1_555
C26_3 C25_3 1_555 1_555
C27_3 C26_3 1_555 1_555
H13_3 C27_3 1_555 1_555
O22 Zn6_3 1_555 1_555
C6_3 C7_3 1_555 1_555
C18_3 C20_3 1_555 1_555
O14_3 C25_3 1_555 1_555
O19 C32_4 1_555 1_555
O21_2 C32_4 1_555 1_555
H14_4 C28_4 1_555 1_555
C29_4 C28_4 1_555 1_555
C30_4 C29_4 1_555 1_555
H15_4 C30_4 1_555 1_555
C32_4 C29_4 1_555 1_555
C30_4 C31_4 1_555 1_555
O5_4 Zn6 1_555 1_555
O8_4 C13_4 1_555 1_555
H6_4 C12_4 1_555 1_555
C14_4 C13_4 1_555 1_555
C15_4 C14_4 1_555 1_555
H7_4 C15_4 1_555 1_555
O10_4 C17_4 1_555 1_555
C17_4 C18_4 1_555 1_555
C18_4 C19_4 1_555 1_555
C19_4 C12_4 1_555 1_555
H9_4 C19_4 1_555 1_555
O13_4 Zn6 1_555 1_555
C25_4 O13_4 1_555 1_555
C26_4 C25_4 1_555 1_555
C27_4 C26_4 1_555 1_555
H13_4 C27_4 1_555 1_555
O14_4 C25_4 1_555 1_555
Zn6_2 O1_4 1_555 1_555
O1_4 C1_4 1_555 1_555
O17_2 C1_4 1_555 1_555
O18 C8_4 1_555 1_555
O20 C8_4 1_555 1_555
O6_4 C9_4 1_555 1_555
O7_4 Zn7 1_555 1_555
C1_4 C2_4 1_555 1_555
C2_4 C3_4 1_555 1_555
C3_4 H1_4 1_555 1_555
C4_4 C3_4 1_555 1_555
H2_4 C4_4 1_555 1_555
C5_4 C4_4 1_555 1_555
C6_4 C5_4 1_555 1_555
H3_4 C6_4 1_555 1_555
C7_4 C2_4 1_555 1_555
H4_4 C7_4 1_555 1_555
C8_4 C5_4 1_555 1_555
C10_4 C9_4 1_555 1_555
C11_4 C10_4 1_555 1_555
H5_4 C11_4 1_555 1_555
H8_4 C16_4 1_555 1_555
C20_4 C11_4 1_555 1_555
H10_4 C20_4 1_555 1_555
O22_2 Zn6_2 1_555 1_555
C6_4 C7_4 1_555 1_555
H12_4 C24_4 1_555 1_555
Zn10_2 O11_4 1_555 1_555
O12_4 C21_4 1_555 1_555
C21_4 C22_4 1_555 1_555
C22_4 C23_4 1_555 1_555
H11_4 C23_4 1_555 1_555

#END
