
###############################################################################
#
# This file contains modified crystal structure data generated from the
# MOF subset of the Cambridge Structural Database (CSD) v543 
# hosted by the Cambridge Crystallographic Data Centre (CCDC).
#
# This work is licensed under the Creative Commons
# Attribution-NonCommercial-ShareAlike 4.0 International License.
# To view a copy of this license, visit
# http://creativecommons.org/licenses/by-nc-sa/4.0/
# or send a letter to
# Creative Commons, PO Box 1866, Mountain View, CA 94042, USA.
#
# CIF created using the CSD Python API on 29 September 2022
# The structure has been converted into the P1 space group
# The structure has a 3D framework
# The original CSD entry OSAXAI is in the monoclinic crystal system
# The framework has been calculated to contain at least 10.0% void space
# The void calculation uses a probe of radius 1.32A, grid spacing 0.4
#
###############################################################################

data_OSAXAI
_chemical_formula_moiety         '(C192 H128 N29 O28 Zn8)n'
_symmetry_cell_setting           triclinic
_symmetry_space_group_name_H-M   'P 1'
_symmetry_Int_Tables_number      1
_space_group_name_Hall           'P 1'
loop_
_symmetry_equiv_pos_site_id
_symmetry_equiv_pos_as_xyz
1 x,y,z
_cell_length_a                   24.175(6)
_cell_length_b                   11.436(3)
_cell_length_c                   18.386(5)
_cell_angle_alpha                90
_cell_angle_beta                 101.507(4)
_cell_angle_gamma                90
_cell_volume                     4980.92
loop_
_atom_site_label
_atom_site_type_symbol
_atom_site_fract_x
_atom_site_fract_y
_atom_site_fract_z
N2 N 0.29808(10) 0.0845(2) 0.59672(14)
C22 C 0.34311(14) 0.0268(3) 0.58370(19)
H14 H 0.3725 0.0698 0.5712
C23 C 0.25816(14) 0.0204(3) 0.6178(2)
H15 H 0.2272 0.0591 0.6293
Zn4 Zn 0.303491(13) 0.27724(3) 0.596805(19)
O1 O 0.22027(9) 0.2969(2) 0.58799(13)
O2 O 0.30118(11) 0.2556(2) 0.74480(15)
O3 O 0.36958(10) 0.25473(19) 0.68089(12)
O4 O 0.15930(9) 0.22478(19) 0.49116(11)
N1 N 0.30945(11) 0.4661(2) 0.60127(15)
N4 N 0.50906(13) 0.0162(3) 0.97259(15)
C1 C 0.17225(12) 0.2651(2) 0.55607(16)
C2 C 0.12564(12) 0.2757(3) 0.59876(16)
C3 C 0.13742(13) 0.3100(3) 0.67266(18)
H1 H 0.1742 0.3293 0.6952
C4 C 0.09522(14) 0.3157(3) 0.71278(19)
H2 H 0.1035 0.3370 0.7626
C5 C 0.03992(13) 0.2894(3) 0.67840(18)
C6 C 0.02761(13) 0.2580(3) 0.60457(19)
C7 C 0.07040(13) 0.2511(3) 0.56429(18)
H4 H 0.0621 0.2300 0.5144
C8 C 0.35005(15) 0.2355(3) 0.73912(18)
C9 C 0.39077(13) 0.1802(3) 0.80318(17)
C10 C 0.37317(16) 0.1402(4) 0.8654(2)
H5 H 0.3357 0.1501 0.8695
C11 C 0.41052(16) 0.0852(4) 0.9219(2)
H6 H 0.3979 0.0569 0.9632
C12 C 0.46615(15) 0.0723(3) 0.91713(18)
C13 C 0.48388(16) 0.1127(4) 0.8562(2)
H7 H 0.5215 0.1048 0.8526
C14 C 0.44584(16) 0.1657(4) 0.7994(2)
H8 H 0.4584 0.1919 0.7576
C15 C 0.33446(14) 0.5302(3) 0.55619(19)
H9 H 0.3522 0.4919 0.5225
C16 C 0.33502(15) 0.6510(3) 0.5575(2)
H10 H 0.3532 0.6924 0.5256
C17 C 0.30834(13) 0.7105(3) 0.60677(18)
C18 C 0.28341(13) 0.6437(3) 0.65408(18)
H11 H 0.2658 0.6799 0.6887
C19 C 0.28472(14) 0.5237(3) 0.64983(18)
H12 H 0.2677 0.4804 0.6821
C20 C 0.30548(14) 0.8401(3) 0.60644(18)
C21 C 0.34843(15) 0.9076(3) 0.5878(2)
H13 H 0.3808 0.8718 0.5781
C24 C 0.25989(14) 0.9001(3) 0.6236(2)
H16 H 0.2308 0.8597 0.6388
Zn3 Zn 0.196509(13) 0.22276(3) 0.403195(19)
O10 O 0.34070(9) 0.27522(19) 0.50884(11)
N9 N 0.00705(12) 0.2897(3) 0.78461(15)
H19 H 0.0094 0.2415 0.9184
Zn5 Zn 0.803491(13) 0.22276(3) 0.096805(19)
O9 O 0.84070(9) 0.22478(19) 0.00884(11)
O6 O 0.19882(11) 0.2444(2) 0.25520(15)
O7 O 0.13042(10) 0.24527(19) 0.31911(12)
C32 C 0.14995(15) 0.2645(3) 0.26088(18)
C33 C 0.10923(13) 0.3198(3) 0.19682(17)
C34 C 0.12683(16) 0.3598(4) 0.1346(2)
H21 H 0.1643 0.3499 0.1305
C35 C 0.08948(16) 0.4148(4) 0.0781(2)
H22 H 0.1021 0.4431 0.0368
C36 C 0.03385(15) 0.4277(3) 0.08287(18)
C37 C 0.01612(16) 0.3873(4) 0.1438(2)
C38 C 0.05416(16) 0.3343(4) 0.2006(2)
H24 H 0.0416 0.3081 0.2424
N4_2 N 0.99094(13) 0.5162(3) 0.52741(15)
H7_2 H 0.9785 0.6048 0.6474
O6_2 O 0.80118(11) 0.2444(2) 0.24480(15)
O7_2 O 0.86958(10) 0.24527(19) 0.18089(12)
C32_2 C 0.85005(15) 0.2645(3) 0.23912(18)
C33_2 C 0.89077(13) 0.3198(3) 0.30318(17)
C34_2 C 0.87317(16) 0.3598(4) 0.3654(2)
H21_2 H 0.8357 0.3499 0.3695
C35_2 C 0.91052(16) 0.4148(4) 0.4219(2)
H22_2 H 0.8979 0.4431 0.4632
C36_2 C 0.96615(15) 0.4277(3) 0.41713(18)
C37_2 C 0.98388(16) 0.3873(4) 0.3562(2)
C38_2 C 0.94584(16) 0.3343(4) 0.2994(2)
H24_2 H 0.9584 0.3081 0.2576
N5 N 0.19055(11) 0.0339(2) 0.39873(15)
H25 H 0.1478 0.0081 0.4775
H28 H 0.2323 0.0196 0.3179
O1_2 O 0.27973(9) 0.2031(2) 0.41201(13)
N3 N 0.50705(12) 0.2103(3) 0.28461(15)
C1_2 C 0.32775(12) 0.2349(2) 0.44393(16)
C2_2 C 0.37436(12) 0.2243(3) 0.40124(16)
C3_2 C 0.36258(13) 0.1900(3) 0.32734(18)
H1_2 H 0.3258 0.1707 0.3048
C4_2 C 0.40478(14) 0.1843(3) 0.28722(19)
H2_2 H 0.3965 0.1630 0.2374
C5_2 C 0.46008(13) 0.2106(3) 0.32160(18)
C6_2 C 0.47239(13) 0.2420(3) 0.39543(19)
H3 H 0.5094 0.2585 0.4184
C7_2 C 0.42960(13) 0.2489(3) 0.43571(18)
H4_2 H 0.4379 0.2700 0.4856
O5 O 0.72027(9) 0.2031(2) 0.08799(13)
N6 N 0.80945(11) 0.0339(2) 0.10127(15)
N7 N 0.20192(10) 0.4155(2) 0.40328(14)
N8 N 0.79808(10) 0.4155(2) 0.09672(14)
N9_2 N 0.49295(12) 0.2103(3) 0.21539(15)
C25 C 0.67225(12) 0.2349(2) 0.05607(16)
C26 C 0.62564(12) 0.2243(3) 0.09876(16)
C27 C 0.63742(13) 0.1900(3) 0.17266(18)
H17 H 0.6742 0.1707 0.1952
C28 C 0.59522(14) 0.1843(3) 0.21278(19)
H18 H 0.6035 0.1630 0.2626
C29 C 0.53992(13) 0.2106(3) 0.17840(18)
C30 C 0.52761(13) 0.2420(3) 0.10457(19)
H19_2 H 0.4906 0.2585 0.0816
C31 C 0.57040(13) 0.2489(3) 0.06429(18)
H20 H 0.5621 0.2700 0.0144
C39 C 0.16554(14) 0.9698(3) 0.44381(19)
C40 C 0.16498(15) 0.8490(3) 0.4425(2)
H26 H 0.1468 0.8076 0.4744
C41 C 0.19166(13) 0.7895(3) 0.39323(18)
C42 C 0.21659(13) 0.8563(3) 0.34592(18)
H27 H 0.2342 0.8201 0.3113
C43 C 0.21528(14) 0.9763(3) 0.35017(18)
C44 C 0.19452(14) 0.6599(3) 0.39356(18)
C45 C 0.15157(15) 0.5924(3) 0.4122(2)
H29 H 0.1192 0.6282 0.4219
C46 C 0.15689(14) 0.4732(3) 0.41630(19)
H30 H 0.1275 0.4302 0.4288
C47 C 0.24184(14) 0.4796(3) 0.3822(2)
H31 H 0.2728 0.4409 0.3707
C48 C 0.24011(14) 0.5999(3) 0.3764(2)
H32 H 0.2692 0.6403 0.3612
H25_2 H 0.8522 0.0081 0.0225
H28_2 H 0.7677 0.0196 0.1821
C39_2 C 0.83446(14) 0.9698(3) 0.05619(19)
C40_2 C 0.83502(15) 0.8490(3) 0.0575(2)
H26_2 H 0.8532 0.8076 0.0256
C41_2 C 0.80834(13) 0.7895(3) 0.10677(18)
C42_2 C 0.78341(13) 0.8563(3) 0.15408(18)
H27_2 H 0.7658 0.8201 0.1887
C43_2 C 0.78472(14) 0.9763(3) 0.14983(18)
C44_2 C 0.80548(14) 0.6599(3) 0.10644(18)
C45_2 C 0.84843(15) 0.5924(3) 0.0878(2)
H29_2 H 0.8808 0.6282 0.0781
C46_2 C 0.84311(14) 0.4732(3) 0.08370(19)
H30_2 H 0.8725 0.4302 0.0712
C47_2 C 0.75816(14) 0.4796(3) 0.1178(2)
H31_2 H 0.7272 0.4409 0.1293
C48_2 C 0.75989(14) 0.5999(3) 0.1236(2)
H32_2 H 0.7308 0.6403 0.1388
Zn6 Zn 0.696509(13) 0.72276(3) 0.403195(19)
O6_3 O 0.69882(11) 0.7444(2) 0.25520(15)
O7_3 O 0.63042(10) 0.74527(19) 0.31911(12)
N10 N 0.49094(13) 0.9838(3) 0.02741(15)
C32_3 C 0.64995(15) 0.7645(3) 0.26088(18)
C33_3 C 0.60923(13) 0.8198(3) 0.19682(17)
C34_3 C 0.62683(16) 0.8598(4) 0.1346(2)
H21_3 H 0.6643 0.8499 0.1305
C35_3 C 0.58948(16) 0.9148(4) 0.0781(2)
H22_3 H 0.6021 0.9431 0.0368
C36_3 C 0.53385(15) 0.9277(3) 0.08287(18)
C37_3 C 0.51612(16) 0.8873(4) 0.1438(2)
H23 H 0.4785 0.8952 0.1474
C38_3 C 0.55416(16) 0.8343(4) 0.2006(2)
H24_3 H 0.5416 0.8081 0.2424
N2_2 N 0.79808(10) 0.5845(2) 0.59672(14)
C15_2 C 0.83446(14) 0.0302(3) 0.55619(19)
C16_2 C 0.83502(15) 0.1510(3) 0.5575(2)
H10_2 H 0.8532 0.1924 0.5256
C17_2 C 0.80834(13) 0.2105(3) 0.60677(18)
C18_2 C 0.78341(13) 0.1437(3) 0.65408(18)
H11_2 H 0.7658 0.1799 0.6887
C19_2 C 0.78472(14) 0.0237(3) 0.64983(18)
C20_2 C 0.80548(14) 0.3401(3) 0.60644(18)
C21_2 C 0.84843(15) 0.4076(3) 0.5878(2)
H13_2 H 0.8808 0.3718 0.5781
C22_2 C 0.84311(14) 0.5268(3) 0.58370(19)
H14_2 H 0.8725 0.5698 0.5712
C23_2 C 0.75816(14) 0.5204(3) 0.6178(2)
H15_2 H 0.7272 0.5591 0.6293
C24_2 C 0.75989(14) 0.4001(3) 0.6236(2)
H16_2 H 0.7308 0.3597 0.6388
Zn4_2 Zn 0.803491(13) 0.77724(3) 0.596805(19)
O1_3 O 0.72027(9) 0.7969(2) 0.58799(13)
O2_2 O 0.80118(11) 0.7556(2) 0.74480(15)
O3_2 O 0.86958(10) 0.75473(19) 0.68089(12)
O4_2 O 0.65930(9) 0.72478(19) 0.49116(11)
N1_2 N 0.80945(11) 0.9661(2) 0.60127(15)
N3_2 N 0.49295(12) 0.7897(3) 0.71539(15)
C1_3 C 0.67225(12) 0.7651(2) 0.55607(16)
C2_3 C 0.62564(12) 0.7757(3) 0.59876(16)
C3_3 C 0.63742(13) 0.8100(3) 0.67266(18)
H1_3 H 0.6742 0.8293 0.6952
C4_3 C 0.59522(14) 0.8157(3) 0.71278(19)
H2_3 H 0.6035 0.8370 0.7626
C5_3 C 0.53992(13) 0.7894(3) 0.67840(18)
C6_3 C 0.52761(13) 0.7580(3) 0.60457(19)
H3_2 H 0.4906 0.7415 0.5816
C7_3 C 0.57040(13) 0.7511(3) 0.56429(18)
H4_3 H 0.5621 0.7300 0.5144
C8_2 C 0.85005(15) 0.7355(3) 0.73912(18)
C9_2 C 0.89077(13) 0.6802(3) 0.80318(17)
C10_2 C 0.87317(16) 0.6402(4) 0.8654(2)
H5_2 H 0.8357 0.6501 0.8695
C11_2 C 0.91052(16) 0.5852(4) 0.9219(2)
H6_2 H 0.8979 0.5569 0.9632
C12_2 C 0.96615(15) 0.5723(3) 0.91713(18)
C13_2 C 0.98388(16) 0.6127(4) 0.8562(2)
C14_2 C 0.94584(16) 0.6657(4) 0.7994(2)
H8_2 H 0.9584 0.6919 0.7576
H9_2 H 0.8522 0.9919 0.5225
H12_2 H 0.7677 0.9804 0.6821
Zn2 Zn 0.196509(13) 0.77724(3) 0.903195(19)
O5_2 O 0.27973(9) 0.7969(2) 0.91201(13)
O8 O 0.13042(10) 0.75473(19) 0.81911(12)
O10_2 O 0.84070(9) 0.77522(19) 0.50884(11)
O11 O 0.15930(9) 0.77522(19) 0.99116(11)
N6_2 N 0.19055(11) 0.9661(2) 0.89873(15)
N8_2 N 0.20192(10) 0.5845(2) 0.90328(14)
N9_3 N 0.50705(12) 0.7897(3) 0.78461(15)
C25_2 C 0.32775(12) 0.7651(2) 0.94393(16)
C26_2 C 0.37436(12) 0.7757(3) 0.90124(16)
C27_2 C 0.36258(13) 0.8100(3) 0.82734(18)
H17_2 H 0.3258 0.8293 0.8048
C28_2 C 0.40478(14) 0.8157(3) 0.78722(19)
H18_2 H 0.3965 0.8370 0.7374
C29_2 C 0.46008(13) 0.7894(3) 0.82160(18)
C30_2 C 0.47239(13) 0.7580(3) 0.89543(19)
H19_3 H 0.5094 0.7415 0.9184
C31_2 C 0.42960(13) 0.7511(3) 0.93571(18)
H20_2 H 0.4379 0.7300 0.9856
C15_3 C 0.16554(14) 0.0302(3) 0.94381(19)
C16_3 C 0.16498(15) 0.1510(3) 0.9425(2)
H10_3 H 0.1468 0.1924 0.9744
C17_3 C 0.19166(13) 0.2105(3) 0.89323(18)
C18_3 C 0.21659(13) 0.1437(3) 0.84592(18)
H11_3 H 0.2342 0.1799 0.8113
C19_3 C 0.21528(14) 0.0237(3) 0.85017(18)
C20_3 C 0.19452(14) 0.3401(3) 0.89356(18)
C21_3 C 0.15157(15) 0.4076(3) 0.9122(2)
H13_3 H 0.1192 0.3718 0.9219
C22_3 C 0.15689(14) 0.5268(3) 0.91630(19)
H14_3 H 0.1275 0.5698 0.9288
C23_3 C 0.24184(14) 0.5204(3) 0.8822(2)
H15_3 H 0.2728 0.5591 0.8707
C24_3 C 0.24011(14) 0.4001(3) 0.8764(2)
H16_3 H 0.2692 0.3597 0.8612
O2_3 O 0.19882(11) 0.7556(2) 0.75520(15)
C8_3 C 0.14995(15) 0.7355(3) 0.76088(18)
C9_3 C 0.10923(13) 0.6802(3) 0.69682(17)
C10_3 C 0.12683(16) 0.6402(4) 0.6346(2)
H5_3 H 0.1643 0.6501 0.6305
C11_3 C 0.08948(16) 0.5852(4) 0.5781(2)
H6_3 H 0.1021 0.5569 0.5368
C12_3 C 0.03385(15) 0.5723(3) 0.58287(18)
C13_3 C 0.01612(16) 0.6127(4) 0.6438(2)
C14_3 C 0.05416(16) 0.6657(4) 0.7006(2)
H8_3 H 0.0416 0.6919 0.7424
H9_3 H 0.1478 0.9919 0.9775
H12_3 H 0.2323 0.9804 0.8179
N10_2 N 0.00906(13) 0.4838(3) 0.47259(15)
H23_2 H 0.0215 0.3952 0.3526
N5_2 N 0.69055(11) 0.5339(2) 0.39873(15)
C39_3 C 0.66554(14) 0.4698(3) 0.44381(19)
H25_3 H 0.6478 0.5081 0.4775
C40_3 C 0.66498(15) 0.3490(3) 0.4425(2)
H26_3 H 0.6468 0.3076 0.4744
C41_3 C 0.69166(13) 0.2895(3) 0.39323(18)
C42_3 C 0.71659(13) 0.3563(3) 0.34592(18)
H27_3 H 0.7342 0.3201 0.3113
C43_3 C 0.71528(14) 0.4763(3) 0.35017(18)
H28_3 H 0.7323 0.5196 0.3179
C44_3 C 0.69452(14) 0.1599(3) 0.39356(18)
C45_3 C 0.65157(15) 0.0924(3) 0.4122(2)
H29_3 H 0.6192 0.1282 0.4219
C48_3 C 0.74011(14) 0.0999(3) 0.3764(2)
H32_3 H 0.7692 0.1403 0.3612
O1_4 O 0.77973(9) 0.7031(2) 0.41201(13)
C1_4 C 0.82775(12) 0.7349(2) 0.44393(16)
C2_4 C 0.87436(12) 0.7243(3) 0.40124(16)
C3_4 C 0.86258(13) 0.6900(3) 0.32734(18)
H1_4 H 0.8258 0.6707 0.3048
C4_4 C 0.90478(14) 0.6843(3) 0.28722(19)
H2_4 H 0.8965 0.6630 0.2374
C5_4 C 0.96008(13) 0.7106(3) 0.32160(18)
C6_4 C 0.97239(13) 0.7420(3) 0.39543(19)
C7_4 C 0.92960(13) 0.7489(3) 0.43571(18)
H4_4 H 0.9379 0.7700 0.4856
N7_2 N 0.70192(10) 0.9155(2) 0.40328(14)
N9_4 N 0.99295(12) 0.7103(3) 0.21539(15)
H19_4 H 0.9906 0.7585 0.0816
C46_3 C 0.65689(14) 0.9732(3) 0.41630(19)
H30_3 H 0.6275 0.9302 0.4288
C47_3 C 0.74184(14) 0.9796(3) 0.3822(2)
H31_3 H 0.7728 0.9409 0.3707
N3_3 N 0.99295(12) 0.2897(3) 0.71539(15)
H3_3 H 0.9906 0.2415 0.5816
Zn2_2 Zn 0.696509(13) 0.27724(3) 0.903195(19)
O5_3 O 0.77973(9) 0.2969(2) 0.91201(13)
O8_2 O 0.63042(10) 0.25473(19) 0.81911(12)
O11_2 O 0.65930(9) 0.27522(19) 0.99116(11)
N6_3 N 0.69055(11) 0.4661(2) 0.89873(15)
N8_3 N 0.70192(10) 0.0845(2) 0.90328(14)
C25_3 C 0.82775(12) 0.2651(2) 0.94393(16)
C26_3 C 0.87436(12) 0.2757(3) 0.90124(16)
C27_3 C 0.86258(13) 0.3100(3) 0.82734(18)
H17_3 H 0.8258 0.3293 0.8048
C28_3 C 0.90478(14) 0.3157(3) 0.78722(19)
H18_3 H 0.8965 0.3370 0.7374
C29_3 C 0.96008(13) 0.2894(3) 0.82160(18)
C30_3 C 0.97239(13) 0.2580(3) 0.89543(19)
C31_3 C 0.92960(13) 0.2511(3) 0.93571(18)
H20_3 H 0.9379 0.2300 0.9856
C22_4 C 0.65689(14) 0.0268(3) 0.91630(19)
H14_4 H 0.6275 0.0698 0.9288
C23_4 C 0.74184(14) 0.0204(3) 0.8822(2)
H15_4 H 0.7728 0.0591 0.8707
O2_4 O 0.69882(11) 0.2556(2) 0.75520(15)
N4_3 N 0.49094(13) 0.0162(3) 0.52741(15)
C8_4 C 0.64995(15) 0.2355(3) 0.76088(18)
C9_4 C 0.60923(13) 0.1802(3) 0.69682(17)
C10_4 C 0.62683(16) 0.1402(4) 0.6346(2)
H5_4 H 0.6643 0.1501 0.6305
C11_4 C 0.58948(16) 0.0852(4) 0.5781(2)
H6_4 H 0.6021 0.0569 0.5368
C12_4 C 0.53385(15) 0.0723(3) 0.58287(18)
C13_4 C 0.51612(16) 0.1127(4) 0.6438(2)
H7_3 H 0.4785 0.1048 0.6474
C14_4 C 0.55416(16) 0.1657(4) 0.7006(2)
H8_4 H 0.5416 0.1919 0.7424
C15_4 C 0.66554(14) 0.5302(3) 0.94381(19)
H9_4 H 0.6478 0.4919 0.9775
C16_4 C 0.66498(15) 0.6510(3) 0.9425(2)
H10_4 H 0.6468 0.6924 0.9744
C17_4 C 0.69166(13) 0.7105(3) 0.89323(18)
C18_4 C 0.71659(13) 0.6437(3) 0.84592(18)
H11_4 H 0.7342 0.6799 0.8113
C19_4 C 0.71528(14) 0.5237(3) 0.85017(18)
H12_4 H 0.7323 0.4804 0.8179
C20_4 C 0.69452(14) 0.8401(3) 0.89356(18)
C21_4 C 0.65157(15) 0.9076(3) 0.9122(2)
H13_4 H 0.6192 0.8718 0.9219
C24_4 C 0.74011(14) 0.9001(3) 0.8764(2)
H16_4 H 0.7692 0.8597 0.8612
Zn6_2 Zn 0.303491(13) 0.72276(3) 0.096805(19)
O6_4 O 0.30118(11) 0.7444(2) 0.24480(15)
O7_4 O 0.36958(10) 0.74527(19) 0.18089(12)
N10_3 N 0.50906(13) 0.9838(3) 0.47259(15)
C32_4 C 0.35005(15) 0.7645(3) 0.23912(18)
C33_4 C 0.39077(13) 0.8198(3) 0.30318(17)
C34_4 C 0.37317(16) 0.8598(4) 0.3654(2)
H21_4 H 0.3357 0.8499 0.3695
C35_4 C 0.41052(16) 0.9148(4) 0.4219(2)
H22_4 H 0.3979 0.9431 0.4632
C36_4 C 0.46615(15) 0.9277(3) 0.41713(18)
C37_4 C 0.48388(16) 0.8873(4) 0.3562(2)
H23_3 H 0.5215 0.8952 0.3526
C38_4 C 0.44584(16) 0.8343(4) 0.2994(2)
H24_4 H 0.4584 0.8081 0.2576
N4_4 N 0.00906(13) 0.5162(3) 0.97259(15)
H7_4 H 0.0215 0.6048 0.8526
O9_2 O 0.34070(9) 0.72478(19) 0.00884(11)
N10_4 N 0.99094(13) 0.4838(3) 0.02741(15)
H23_4 H 0.9785 0.3952 0.1474
N3_4 N 0.00705(12) 0.7103(3) 0.28461(15)
H3_4 H 0.0094 0.7585 0.4184
O5_4 O 0.22027(9) 0.7031(2) 0.08799(13)
N6_4 N 0.30945(11) 0.5339(2) 0.10127(15)
N8_4 N 0.29808(10) 0.9155(2) 0.09672(14)
C25_4 C 0.17225(12) 0.7349(2) 0.05607(16)
C26_4 C 0.12564(12) 0.7243(3) 0.09876(16)
C27_4 C 0.13742(13) 0.6900(3) 0.17266(18)
H17_4 H 0.1742 0.6707 0.1952
C28_4 C 0.09522(14) 0.6843(3) 0.21278(19)
H18_4 H 0.1035 0.6630 0.2626
C29_4 C 0.03992(13) 0.7106(3) 0.17840(18)
C30_4 C 0.02761(13) 0.7420(3) 0.10457(19)
C31_4 C 0.07040(13) 0.7489(3) 0.06429(18)
H20_4 H 0.0621 0.7700 0.0144
C39_4 C 0.33446(14) 0.4698(3) 0.05619(19)
H25_4 H 0.3522 0.5081 0.0225
C40_4 C 0.33502(15) 0.3490(3) 0.0575(2)
H26_4 H 0.3532 0.3076 0.0256
C41_4 C 0.30834(13) 0.2895(3) 0.10677(18)
C42_4 C 0.28341(13) 0.3563(3) 0.15408(18)
H27_4 H 0.2658 0.3201 0.1887
C43_4 C 0.28472(14) 0.4763(3) 0.14983(18)
H28_4 H 0.2677 0.5196 0.1821
C44_4 C 0.30548(14) 0.1599(3) 0.10644(18)
C45_4 C 0.34843(15) 0.0924(3) 0.0878(2)
H29_4 H 0.3808 0.1282 0.0781
C48_4 C 0.25989(14) 0.0999(3) 0.1236(2)
H32_4 H 0.2308 0.1403 0.1388
C46_4 C 0.34311(14) 0.9732(3) 0.08370(19)
H30_4 H 0.3725 0.9302 0.0712
C47_4 C 0.25816(14) 0.9796(3) 0.1178(2)
H31_4 H 0.2272 0.9409 0.1293
loop_
_geom_bond_atom_site_label_1
_geom_bond_atom_site_label_2
_geom_bond_site_symmetry_1
_geom_bond_site_symmetry_2
N2 C22 1_555 1_555
H14 C22 1_555 1_555
C23 N2 1_555 1_555
H15 C23 1_555 1_555
Zn4 N2 1_555 1_555
Zn4 O1 1_555 1_555
O1 C1 1_555 1_555
O2 C8 1_555 1_555
O3 Zn4 1_555 1_555
O4 C1 1_555 1_555
N1 Zn4 1_555 1_555
N4 C12 1_555 1_555
C1 C2 1_555 1_555
C2 C3 1_555 1_555
C3 H1 1_555 1_555
C4 C3 1_555 1_555
H2 C4 1_555 1_555
C5 C4 1_555 1_555
C6 C5 1_555 1_555
C7 C2 1_555 1_555
H4 C7 1_555 1_555
C8 O3 1_555 1_555
C9 C8 1_555 1_555
C10 C9 1_555 1_555
H5 C10 1_555 1_555
C11 C10 1_555 1_555
H6 C11 1_555 1_555
C12 C11 1_555 1_555
C13 C12 1_555 1_555
H7 C13 1_555 1_555
C14 C9 1_555 1_555
H8 C14 1_555 1_555
C15 N1 1_555 1_555
H9 C15 1_555 1_555
C16 C15 1_555 1_555
H10 C16 1_555 1_555
C17 C16 1_555 1_555
C18 C17 1_555 1_555
H11 C18 1_555 1_555
C19 N1 1_555 1_555
H12 C19 1_555 1_555
C20 C17 1_555 1_555
C21 C20 1_555 1_555
H13 C21 1_555 1_555
C24 C20 1_555 1_555
H16 C24 1_555 1_555
Zn3 O4 1_555 1_555
O10 Zn4 1_555 1_555
C6 C7 1_555 1_555
C13 C14 1_555 1_555
C18 C19 1_555 1_555
Zn5 O9 1_555 1_555
Zn3 O7 1_555 1_555
O6 C32 1_555 1_555
O7 C32 1_555 1_555
C32 C33 1_555 1_555
C33 C34 1_555 1_555
C34 H21 1_555 1_555
C35 C34 1_555 1_555
H22 C35 1_555 1_555
C37 C36 1_555 1_555
C38 C33 1_555 1_555
H24 C38 1_555 1_555
C35 C36 1_555 1_555
C37 C38 1_555 1_555
Zn5 O7_2 1_555 1_555
O6_2 C32_2 1_555 1_555
O7_2 C32_2 1_555 1_555
C32_2 C33_2 1_555 1_555
C33_2 C34_2 1_555 1_555
C34_2 H21_2 1_555 1_555
C35_2 C34_2 1_555 1_555
H22_2 C35_2 1_555 1_555
C37_2 C36_2 1_555 1_555
C38_2 C33_2 1_555 1_555
H24_2 C38_2 1_555 1_555
C35_2 C36_2 1_555 1_555
C37_2 C38_2 1_555 1_555
Zn3 N5 1_555 1_555
Zn3 O1_2 1_555 1_555
O1_2 C1_2 1_555 1_555
O10 C1_2 1_555 1_555
N3 C5_2 1_555 1_555
C1_2 C2_2 1_555 1_555
C2_2 C3_2 1_555 1_555
C3_2 H1_2 1_555 1_555
C4_2 C3_2 1_555 1_555
H2_2 C4_2 1_555 1_555
C5_2 C4_2 1_555 1_555
C6_2 C5_2 1_555 1_555
H3 C6_2 1_555 1_555
C7_2 C2_2 1_555 1_555
H4_2 C7_2 1_555 1_555
Zn5 O5 1_555 1_555
O5 C25 1_555 1_555
N6 Zn5 1_555 1_555
N7 Zn3 1_555 1_555
N8 Zn5 1_555 1_555
N9_2 N3 1_555 1_555
C25 C26 1_555 1_555
C26 C27 1_555 1_555
C27 H17 1_555 1_555
C28 C27 1_555 1_555
H18 C28 1_555 1_555
C29 N9_2 1_555 1_555
C30 C29 1_555 1_555
H19_2 C30 1_555 1_555
C31 C26 1_555 1_555
H20 C31 1_555 1_555
C40 C39 1_555 1_555
H26 C40 1_555 1_555
C41 C40 1_555 1_555
C42 C41 1_555 1_555
H27 C42 1_555 1_555
C44 C41 1_555 1_555
C45 C44 1_555 1_555
H29 C45 1_555 1_555
C46 N7 1_555 1_555
H30 C46 1_555 1_555
C47 N7 1_555 1_555
H31 C47 1_555 1_555
C48 C44 1_555 1_555
H32 C48 1_555 1_555
C6_2 C7_2 1_555 1_555
C28 C29 1_555 1_555
C30 C31 1_555 1_555
C42 C43 1_555 1_555
C45 C46 1_555 1_555
C47 C48 1_555 1_555
C40_2 C39_2 1_555 1_555
H26_2 C40_2 1_555 1_555
C41_2 C40_2 1_555 1_555
C42_2 C41_2 1_555 1_555
H27_2 C42_2 1_555 1_555
C44_2 C41_2 1_555 1_555
C45_2 C44_2 1_555 1_555
H29_2 C45_2 1_555 1_555
C46_2 N8 1_555 1_555
H30_2 C46_2 1_555 1_555
C47_2 N8 1_555 1_555
H31_2 C47_2 1_555 1_555
C48_2 C44_2 1_555 1_555
H32_2 C48_2 1_555 1_555
C42_2 C43_2 1_555 1_555
C45_2 C46_2 1_555 1_555
C47_2 C48_2 1_555 1_555
Zn6 O7_3 1_555 1_555
O6_3 C32_3 1_555 1_555
O7_3 C32_3 1_555 1_555
C32_3 C33_3 1_555 1_555
C33_3 C34_3 1_555 1_555
C34_3 H21_3 1_555 1_555
C35_3 C34_3 1_555 1_555
H22_3 C35_3 1_555 1_555
C36_3 N10 1_555 1_555
C37_3 C36_3 1_555 1_555
H23 C37_3 1_555 1_555
C38_3 C33_3 1_555 1_555
H24_3 C38_3 1_555 1_555
C35_3 C36_3 1_555 1_555
C37_3 C38_3 1_555 1_555
N2_2 C22_2 1_555 1_555
C16_2 C15_2 1_555 1_555
H10_2 C16_2 1_555 1_555
C17_2 C16_2 1_555 1_555
C18_2 C17_2 1_555 1_555
H11_2 C18_2 1_555 1_555
C20_2 C17_2 1_555 1_555
C21_2 C20_2 1_555 1_555
H13_2 C21_2 1_555 1_555
C22_2 C21_2 1_555 1_555
H14_2 C22_2 1_555 1_555
C23_2 N2_2 1_555 1_555
H15_2 C23_2 1_555 1_555
C24_2 C20_2 1_555 1_555
H16_2 C24_2 1_555 1_555
Zn4_2 N2_2 1_555 1_555
C18_2 C19_2 1_555 1_555
C23_2 C24_2 1_555 1_555
Zn4_2 O1_3 1_555 1_555
O1_3 C1_3 1_555 1_555
O2_2 C8_2 1_555 1_555
O3_2 Zn4_2 1_555 1_555
O4_2 C1_3 1_555 1_555
N1_2 Zn4_2 1_555 1_555
N3_2 C5_3 1_555 1_555
C1_3 C2_3 1_555 1_555
C2_3 C3_3 1_555 1_555
C3_3 H1_3 1_555 1_555
C4_3 C3_3 1_555 1_555
H2_3 C4_3 1_555 1_555
C5_3 C4_3 1_555 1_555
C6_3 C5_3 1_555 1_555
H3_2 C6_3 1_555 1_555
C7_3 C2_3 1_555 1_555
H4_3 C7_3 1_555 1_555
C8_2 O3_2 1_555 1_555
C9_2 C8_2 1_555 1_555
C10_2 C9_2 1_555 1_555
H5_2 C10_2 1_555 1_555
C11_2 C10_2 1_555 1_555
H6_2 C11_2 1_555 1_555
C12_2 C11_2 1_555 1_555
C13_2 C12_2 1_555 1_555
C14_2 C9_2 1_555 1_555
H8_2 C14_2 1_555 1_555
Zn2 O5_2 1_555 1_555
Zn6 O4_2 1_555 1_555
O5_2 C25_2 1_555 1_555
O8 Zn2 1_555 1_555
O10_2 Zn4_2 1_555 1_555
O11 Zn2 1_555 1_555
N6_2 Zn2 1_555 1_555
N8_2 Zn2 1_555 1_555
N9_3 N3_2 1_555 1_555
C25_2 C26_2 1_555 1_555
C26_2 C27_2 1_555 1_555
C27_2 H17_2 1_555 1_555
C28_2 C27_2 1_555 1_555
H18_2 C28_2 1_555 1_555
C29_2 N9_3 1_555 1_555
C30_2 C29_2 1_555 1_555
H19_3 C30_2 1_555 1_555
C31_2 C26_2 1_555 1_555
H20_2 C31_2 1_555 1_555
C6_3 C7_3 1_555 1_555
C13_2 C14_2 1_555 1_555
C28_2 C29_2 1_555 1_555
C30_2 C31_2 1_555 1_555
N8_2 C22_3 1_555 1_555
C16_3 C15_3 1_555 1_555
H10_3 C16_3 1_555 1_555
C17_3 C16_3 1_555 1_555
C18_3 C17_3 1_555 1_555
H11_3 C18_3 1_555 1_555
C20_3 C17_3 1_555 1_555
C21_3 C20_3 1_555 1_555
H13_3 C21_3 1_555 1_555
C22_3 C21_3 1_555 1_555
H14_3 C22_3 1_555 1_555
C23_3 N8_2 1_555 1_555
H15_3 C23_3 1_555 1_555
C24_3 C20_3 1_555 1_555
H16_3 C24_3 1_555 1_555
C18_3 C19_3 1_555 1_555
C23_3 C24_3 1_555 1_555
O2_3 C8_3 1_555 1_555
C8_3 O8 1_555 1_555
C9_3 C8_3 1_555 1_555
C10_3 C9_3 1_555 1_555
H5_3 C10_3 1_555 1_555
C11_3 C10_3 1_555 1_555
H6_3 C11_3 1_555 1_555
C12_3 C11_3 1_555 1_555
C13_3 C12_3 1_555 1_555
C14_3 C9_3 1_555 1_555
H8_3 C14_3 1_555 1_555
C13_3 C14_3 1_555 1_555
Zn6 N5_2 1_555 1_555
N5_2 C39_3 1_555 1_555
C39_3 H25_3 1_555 1_555
C40_3 C39_3 1_555 1_555
H26_3 C40_3 1_555 1_555
C41_3 C40_3 1_555 1_555
C42_3 C41_3 1_555 1_555
H27_3 C42_3 1_555 1_555
C43_3 N5_2 1_555 1_555
H28_3 C43_3 1_555 1_555
C44_3 C41_3 1_555 1_555
C45_3 C44_3 1_555 1_555
H29_3 C45_3 1_555 1_555
C48_3 C44_3 1_555 1_555
H32_3 C48_3 1_555 1_555
C42_3 C43_3 1_555 1_555
Zn6 O1_4 1_555 1_555
O1_4 C1_4 1_555 1_555
O10_2 C1_4 1_555 1_555
C1_4 C2_4 1_555 1_555
C2_4 C3_4 1_555 1_555
C3_4 H1_4 1_555 1_555
C4_4 C3_4 1_555 1_555
H2_4 C4_4 1_555 1_555
C5_4 C4_4 1_555 1_555
C6_4 C5_4 1_555 1_555
C7_4 C2_4 1_555 1_555
H4_4 C7_4 1_555 1_555
N7_2 Zn6 1_555 1_555
C46_3 N7_2 1_555 1_555
H30_3 C46_3 1_555 1_555
C47_3 N7_2 1_555 1_555
H31_3 C47_3 1_555 1_555
C6_4 C7_4 1_555 1_555
Zn2_2 O5_3 1_555 1_555
O5_3 C25_3 1_555 1_555
O8_2 Zn2_2 1_555 1_555
O11_2 Zn2_2 1_555 1_555
N6_3 Zn2_2 1_555 1_555
N8_3 Zn2_2 1_555 1_555
C25_3 C26_3 1_555 1_555
C26_3 C27_3 1_555 1_555
C27_3 H17_3 1_555 1_555
C28_3 C27_3 1_555 1_555
H18_3 C28_3 1_555 1_555
C30_3 C29_3 1_555 1_555
C31_3 C26_3 1_555 1_555
H20_3 C31_3 1_555 1_555
C28_3 C29_3 1_555 1_555
C30_3 C31_3 1_555 1_555
N8_3 C22_4 1_555 1_555
H14_4 C22_4 1_555 1_555
C23_4 N8_3 1_555 1_555
H15_4 C23_4 1_555 1_555
O2_4 C8_4 1_555 1_555
N4_3 C12_4 1_555 1_555
C8_4 O8_2 1_555 1_555
C9_4 C8_4 1_555 1_555
C10_4 C9_4 1_555 1_555
H5_4 C10_4 1_555 1_555
C11_4 C10_4 1_555 1_555
H6_4 C11_4 1_555 1_555
C12_4 C11_4 1_555 1_555
C13_4 C12_4 1_555 1_555
H7_3 C13_4 1_555 1_555
C14_4 C9_4 1_555 1_555
H8_4 C14_4 1_555 1_555
C15_4 N6_3 1_555 1_555
H9_4 C15_4 1_555 1_555
C16_4 C15_4 1_555 1_555
H10_4 C16_4 1_555 1_555
C17_4 C16_4 1_555 1_555
C18_4 C17_4 1_555 1_555
H11_4 C18_4 1_555 1_555
C19_4 N6_3 1_555 1_555
H12_4 C19_4 1_555 1_555
C20_4 C17_4 1_555 1_555
C21_4 C20_4 1_555 1_555
H13_4 C21_4 1_555 1_555
C24_4 C20_4 1_555 1_555
H16_4 C24_4 1_555 1_555
C13_4 C14_4 1_555 1_555
C18_4 C19_4 1_555 1_555
Zn6_2 O7_4 1_555 1_555
O6_4 C32_4 1_555 1_555
O7_4 C32_4 1_555 1_555
C32_4 C33_4 1_555 1_555
C33_4 C34_4 1_555 1_555
C34_4 H21_4 1_555 1_555
C35_4 C34_4 1_555 1_555
H22_4 C35_4 1_555 1_555
C36_4 N10_3 1_555 1_555
C37_4 C36_4 1_555 1_555
H23_3 C37_4 1_555 1_555
C38_4 C33_4 1_555 1_555
H24_4 C38_4 1_555 1_555
C35_4 C36_4 1_555 1_555
C37_4 C38_4 1_555 1_555
Zn6_2 O9_2 1_555 1_555
Zn6_2 O5_4 1_555 1_555
O5_4 C25_4 1_555 1_555
N6_4 Zn6_2 1_555 1_555
N8_4 Zn6_2 1_555 1_555
C25_4 C26_4 1_555 1_555
C26_4 C27_4 1_555 1_555
C27_4 H17_4 1_555 1_555
C28_4 C27_4 1_555 1_555
H18_4 C28_4 1_555 1_555
C30_4 C29_4 1_555 1_555
C31_4 C26_4 1_555 1_555
H20_4 C31_4 1_555 1_555
C28_4 C29_4 1_555 1_555
C30_4 C31_4 1_555 1_555
N6_4 C39_4 1_555 1_555
C39_4 H25_4 1_555 1_555
C40_4 C39_4 1_555 1_555
H26_4 C40_4 1_555 1_555
C41_4 C40_4 1_555 1_555
C42_4 C41_4 1_555 1_555
H27_4 C42_4 1_555 1_555
C43_4 N6_4 1_555 1_555
H28_4 C43_4 1_555 1_555
C44_4 C41_4 1_555 1_555
C45_4 C44_4 1_555 1_555
H29_4 C45_4 1_555 1_555
C48_4 C44_4 1_555 1_555
H32_4 C48_4 1_555 1_555
C42_4 C43_4 1_555 1_555
C46_4 N8_4 1_555 1_555
H30_4 C46_4 1_555 1_555
C47_4 N8_4 1_555 1_555
H31_4 C47_4 1_555 1_555

#END
