
###############################################################################
#
# This file contains modified crystal structure data generated from the
# MOF subset of the Cambridge Structural Database (CSD) v543 
# hosted by the Cambridge Crystallographic Data Centre (CCDC).
#
# This work is licensed under the Creative Commons
# Attribution-NonCommercial-ShareAlike 4.0 International License.
# To view a copy of this license, visit
# http://creativecommons.org/licenses/by-nc-sa/4.0/
# or send a letter to
# Creative Commons, PO Box 1866, Mountain View, CA 94042, USA.
#
# CIF created using the CSD Python API on 29 September 2022
# The structure has been converted into the P1 space group
# The structure has a 3D framework
# The original CSD entry OSIDEC is in the monoclinic crystal system
# The framework has been calculated to contain at least 10.0% void space
# The void calculation uses a probe of radius 1.32A, grid spacing 0.4
#
###############################################################################

data_OSIDEC
_chemical_formula_moiety         '(C120 H120 Cu20 I20 N42 P8 S8)n'
_symmetry_cell_setting           triclinic
_symmetry_space_group_name_H-M   'P 1'
_symmetry_Int_Tables_number      1
_space_group_name_Hall           'P 1'
loop_
_symmetry_equiv_pos_site_id
_symmetry_equiv_pos_as_xyz
1 x,y,z
_cell_length_a                   19.0412(3)
_cell_length_b                   16.5847(3)
_cell_length_c                   15.8654(3)
_cell_angle_alpha                90
_cell_angle_beta                 103.168(2)
_cell_angle_gamma                90
_cell_volume                     4878.44
loop_
_atom_site_label
_atom_site_type_symbol
_atom_site_fract_x
_atom_site_fract_y
_atom_site_fract_z
I3 I 0.66075(2) 0.04864(3) 0.58007(3)
I4 I 0.20254(2) 0.01417(3) 0.84159(3)
I5 I 0.46544(2) 0.17092(3) 0.43116(3)
Cu1 Cu 0.33660(6) 0.10874(6) 0.42213(6)
Cu4 Cu 0.53063(6) 0.08454(7) 0.55904(7)
N6 N 0.4658(3) 0.0855(4) 0.6422(4)
C12 C 0.4315(4) 0.0192(4) 0.6602(4)
C13 C 0.3815(4) 0.0227(4) 0.7131(4)
C15 C 0.3677(4) 0.0973(5) 0.7449(4)
H16 H 0.333824 0.102012 0.780362
C26 C 0.4026(4) 0.1638(4) 0.7253(5)
H26 H 0.393462 0.215171 0.747001
C27 C 0.4514(4) 0.1557(5) 0.6738(5)
H27 H 0.475596 0.202447 0.660439
S3 S 0.27498(10) 0.18474(11) 0.30156(10)
N13 N 0.2805(3) 0.1442(4) 0.5118(4)
I1 I 0.15533(2) 0.88829(3) 0.59357(3)
I2 I 0.12753(2) 0.75298(3) 0.83542(3)
Cu2 Cu 0.12141(6) 0.89782(7) 0.74667(7)
Cu3 Cu 0.20193(6) 0.78044(6) 0.71225(6)
Cu5 Cu 0.22966(7) 0.86244(7) 0.86970(7)
S1 S 0.32097(9) 0.78910(10) 0.79896(10)
P1 P 0.22571(9) 0.37315(10) 0.69722(10)
P2 P 0.36963(9) 0.85847(10) 0.72939(10)
S2 S 0.27498(10) 0.31526(11) 0.80156(10)
N2 N 0.2932(3) 0.6575(4) 0.4894(4)
N4 N 0.2378(3) 0.3349(3) 0.6041(4)
H1 H 0.275356 0.356080 0.591737
N5 N 0.4590(3) 0.8559(4) 0.7598(3)
H2 H 0.473148 0.810632 0.743005
N7 N 0.1889(3) 0.6723(3) 0.6481(3)
N8 N 0.2561(3) 0.4674(4) 0.6967(3)
H3 H 0.274368 0.482624 0.748942
N9 N 0.6243(3) 0.8924(4) 0.9249(4)
N10 N 0.3447(3) 0.9538(4) 0.7308(4)
H4 H 0.331011 0.961966 0.778165
N11 N 0.3558(3) 0.8316(4) 0.6261(3)
H5 H 0.320548 0.859036 0.595975
N12 N 0.1374(3) 0.3775(4) 0.6812(3)
H6 H 0.119530 0.330966 0.664661
C1 C 0.2364(4) 0.2513(4) 0.5867(4)
C2 C 0.3310(4) 0.5979(4) 0.5360(5)
H7 H 0.323799 0.544043 0.515487
C3 C 0.5763(4) 0.8782(4) 0.8490(4)
H8 H 0.594365 0.870886 0.798337
C4 C 0.3503(4) 0.7512(4) 0.5982(4)
C5 C 0.2776(4) 0.2210(4) 0.5320(4)
H9 H 0.305497 0.258101 0.507654
C6 C 0.0258(4) 0.3981(5) 0.7239(4)
H10 H 0.003846 0.366556 0.675076
C7 C 0.5032(4) 0.8737(4) 0.8413(4)
C8 C 0.3025(4) 0.7322(4) 0.5207(4)
H11 H 0.275114 0.774499 0.488572
C9 C 0.3797(4) 0.6126(4) 0.6123(5)
H12 H 0.405695 0.568924 0.643457
C10 C 0.1407(4) 0.6621(5) 0.5728(4)
H13 H 0.114031 0.707311 0.546048
C11 C 0.2150(4) 0.5307(4) 0.6507(4)
H14 H 0.441171 0.968848 0.636742
C14 C 0.3914(4) 0.6892(4) 0.6445(4)
H15 H 0.426289 0.699738 0.696532
C16 C 0.1935(4) 0.1967(5) 0.6202(5)
H17 H 0.163001 0.214760 0.656166
C17 C 0.2236(4) 0.6074(4) 0.6865(4)
H18 H 0.256014 0.614024 0.741277
C18 C 0.0998(4) 0.4108(5) 0.7400(4)
C19 C 0.1670(4) 0.5209(4) 0.5716(4)
H19 H 0.160531 0.469571 0.544300
C20 C 0.4758(4) 0.8863(5) 0.9156(4)
H20 H 0.425449 0.885392 0.912726
C21 C 0.5253(4) 0.8999(5) 0.9929(5)
C22 C 0.2406(4) 0.0914(5) 0.5454(4)
H22 H 0.242581 0.035833 0.531660
C23 C 0.1286(4) 0.5876(5) 0.5329(4)
H23 H 0.094283 0.582040 0.479388
C24 C 0.5983(4) 0.9040(5) 0.9950(4)
C25 C 0.1967(4) 0.1157(4) 0.5994(5)
H25 H 0.169008 0.077090 0.621981
C28 C 0.0163(4) 0.4733(6) 0.8421(5)
C29 C 0.1308(4) 0.4583(5) 0.8104(5)
H29 H 0.181141 0.469086 0.823122
C30 C 0.0881(5) 0.4898(6) 0.8621(6)
H30 H 0.108535 0.522484 0.910699
I6 I 0.33925(2) 0.95136(3) 0.41993(3)
Cu7 Cu 0.66340(6) 0.89126(6) 0.57787(6)
Cu8 Cu 0.33660(6) 0.39126(6) 0.92213(6)
Cu10 Cu 0.22966(7) 0.63756(7) 0.36970(7)
N14 N 0.2932(3) 0.8425(4) 0.9894(4)
N15 N 0.0164(3) 0.9282(4) 0.7261(4)
N3 N 0.9836(3) 0.4282(4) 0.7739(4)
H28 H 0.987519 0.494793 0.878337
Cu9 Cu 0.87859(6) 0.39782(7) 0.75333(7)
H28_2 H 0.012481 0.994793 0.621663
I5_2 I 0.53456(2) 0.67092(3) 0.06884(3)
Cu1_2 Cu 0.66340(6) 0.60874(6) 0.07787(6)
N2_2 N 0.7068(3) 0.1575(4) 0.0106(4)
H11_2 H 0.724886 0.274499 0.011428
H23_2 H 0.905717 0.082040 0.020612
I6_2 I 0.66075(2) 0.45136(3) 0.08007(3)
Cu10_2 Cu 0.77034(7) 0.13756(7) 0.13030(7)
S3_2 S 0.72502(10) 0.68474(11) 0.19844(10)
I1_2 I 0.84467(2) 0.38829(3) 0.90643(3)
I2_2 I 0.87247(2) 0.25298(3) 0.66458(3)
I3_2 I 0.33925(2) 0.54864(3) 0.91993(3)
I4_2 I 0.79746(2) 0.51417(3) 0.65841(3)
Cu3_2 Cu 0.79807(6) 0.28044(6) 0.78775(6)
Cu4_2 Cu 0.46937(6) 0.58454(7) 0.94096(7)
Cu5_2 Cu 0.77034(7) 0.36244(7) 0.63030(7)
S1_2 S 0.67903(9) 0.28910(10) 0.70104(10)
P2_2 P 0.63037(9) 0.35847(10) 0.77061(10)
N5_2 N 0.5410(3) 0.3559(4) 0.7402(3)
H2_2 H 0.526852 0.310632 0.756995
N6_2 N 0.5342(3) 0.5855(4) 0.8578(4)
N7_2 N 0.8111(3) 0.1723(3) 0.8519(3)
N9_2 N 0.3757(3) 0.3924(4) 0.5751(4)
N10_2 N 0.6553(3) 0.4538(4) 0.7692(4)
H4_2 H 0.668989 0.461966 0.721835
N11_2 N 0.6442(3) 0.3316(4) 0.8739(3)
H5_2 H 0.679452 0.359036 0.904025
C2_2 C 0.6690(4) 0.0979(4) 0.9640(5)
H7_2 H 0.676201 0.044043 0.984513
C3_2 C 0.4237(4) 0.3782(4) 0.6510(4)
H8_2 H 0.405635 0.370886 0.701663
C4_2 C 0.6497(4) 0.2512(4) 0.9018(4)
C7_2 C 0.4968(4) 0.3737(4) 0.6587(4)
C8_2 C 0.6975(4) 0.2322(4) 0.9793(4)
C9_2 C 0.6203(4) 0.1126(4) 0.8877(5)
H12_2 H 0.594305 0.068924 0.856543
C10_2 C 0.8593(4) 0.1621(5) 0.9272(4)
H13_2 H 0.885969 0.207311 0.953952
C11_2 C 0.7850(4) 0.0307(4) 0.8493(4)
C12_2 C 0.5685(4) 0.5192(4) 0.8398(4)
H14_2 H 0.558829 0.468848 0.863258
C13_2 C 0.6185(4) 0.5227(4) 0.7869(4)
C14_2 C 0.6086(4) 0.1892(4) 0.8555(4)
H15_2 H 0.573711 0.199738 0.803468
C15_2 C 0.6323(4) 0.5973(5) 0.7551(4)
H16_2 H 0.666176 0.602012 0.719638
C17_2 C 0.7764(4) 0.1074(4) 0.8135(4)
H18_2 H 0.743986 0.114024 0.758723
C19_2 C 0.8330(4) 0.0209(4) 0.9284(4)
C20_2 C 0.5242(4) 0.3863(5) 0.5844(4)
H20_2 H 0.574551 0.385392 0.587274
C21_2 C 0.4747(4) 0.3999(5) 0.5071(5)
H21 H 0.490972 0.406544 0.455227
C23_2 C 0.8714(4) 0.0876(5) 0.9671(4)
C24_2 C 0.4017(4) 0.4040(5) 0.5050(4)
H24 H 0.369024 0.415419 0.451511
C26_2 C 0.5974(4) 0.6638(4) 0.7747(5)
H26_2 H 0.606538 0.715171 0.752999
C27_2 C 0.5486(4) 0.6557(5) 0.8262(5)
H27_2 H 0.524404 0.702447 0.839561
H30_2 H 0.891465 0.022484 0.589301
N13_2 N 0.7195(3) 0.6442(4) 0.9882(4)
N14_2 N 0.7068(3) 0.3425(4) 0.5106(4)
P1_2 P 0.77429(9) 0.87315(10) 0.80278(10)
S2_2 S 0.72502(10) 0.81526(11) 0.69844(10)
N4_2 N 0.7622(3) 0.8349(3) 0.8959(4)
H1_2 H 0.724644 0.856080 0.908263
N8_2 N 0.7439(3) 0.9674(4) 0.8033(3)
H3_2 H 0.725632 0.982624 0.751058
N12_2 N 0.8626(3) 0.8775(4) 0.8188(3)
H6_2 H 0.880470 0.830966 0.835339
C1_2 C 0.7636(4) 0.7513(4) 0.9133(4)
C5_2 C 0.7224(4) 0.7210(4) 0.9680(4)
H9_2 H 0.694503 0.758101 0.992346
C6_2 C 0.9742(4) 0.8981(5) 0.7761(4)
H10_2 H 0.996154 0.866556 0.824924
C16_2 C 0.8065(4) 0.6967(5) 0.8798(5)
H17_2 H 0.836999 0.714760 0.843834
C18_2 C 0.9002(4) 0.9108(5) 0.7600(4)
H19_2 H 0.839469 0.969571 0.955700
C22_2 C 0.7594(4) 0.5914(5) 0.9546(4)
H22_2 H 0.757419 0.535833 0.968340
C25_2 C 0.8033(4) 0.6157(4) 0.9006(5)
H25_2 H 0.830992 0.577090 0.878019
C28_2 C 0.9837(4) 0.9733(6) 0.6579(5)
C29_2 C 0.8692(4) 0.9583(5) 0.6896(5)
H29_2 H 0.818859 0.969086 0.676878
C30_2 C 0.9119(5) 0.9898(6) 0.6379(6)
N3_2 N 0.0164(3) 0.5718(4) 0.2261(4)
H28_3 H 0.012481 0.505207 0.121663
Cu9_2 Cu 0.12141(6) 0.60218(7) 0.24667(7)
I1_3 I 0.84467(2) 0.11171(3) 0.40643(3)
I2_3 I 0.87247(2) 0.24702(3) 0.16458(3)
Cu2_2 Cu 0.87859(6) 0.10218(7) 0.25333(7)
Cu3_3 Cu 0.79807(6) 0.21956(6) 0.28775(6)
S1_3 S 0.67903(9) 0.21090(10) 0.20104(10)
P1_3 P 0.77429(9) 0.62685(10) 0.30278(10)
P2_3 P 0.63037(9) 0.14153(10) 0.27061(10)
N1 N 0.7195(3) 0.8558(4) 0.4882(4)
N4_3 N 0.7622(3) 0.6651(3) 0.3959(4)
H1_3 H 0.724644 0.643920 0.408263
N5_3 N 0.5410(3) 0.1441(4) 0.2402(3)
H2_3 H 0.526852 0.189368 0.256995
N7_3 N 0.8111(3) 0.3277(3) 0.3519(3)
N8_3 N 0.7439(3) 0.5326(4) 0.3033(3)
H3_3 H 0.725632 0.517376 0.251058
N9_3 N 0.3757(3) 0.1076(4) 0.0751(4)
N10_3 N 0.6553(3) 0.0462(4) 0.2692(4)
H4_3 H 0.668989 0.038034 0.221835
N11_3 N 0.6442(3) 0.1684(4) 0.3739(3)
H5_3 H 0.679452 0.140964 0.404025
N12_3 N 0.8626(3) 0.6225(4) 0.3188(3)
H6_3 H 0.880470 0.669034 0.335339
C1_3 C 0.7636(4) 0.7487(4) 0.4133(4)
C2_3 C 0.6690(4) 0.4021(4) 0.4640(5)
H7_3 H 0.676201 0.455957 0.484513
C3_3 C 0.4237(4) 0.1218(4) 0.1510(4)
H8_3 H 0.405635 0.129114 0.201663
C4_3 C 0.6497(4) 0.2488(4) 0.4018(4)
C5_3 C 0.7224(4) 0.7790(4) 0.4680(4)
H9_3 H 0.694503 0.741899 0.492346
C6_3 C 0.9742(4) 0.6019(5) 0.2761(4)
H10_3 H 0.996154 0.633444 0.324924
C7_3 C 0.4968(4) 0.1263(4) 0.1587(4)
C8_3 C 0.6975(4) 0.2678(4) 0.4793(4)
H11_3 H 0.724886 0.225501 0.511428
C9_3 C 0.6203(4) 0.3874(4) 0.3877(5)
H12_3 H 0.594305 0.431076 0.356543
C10_3 C 0.8593(4) 0.3379(5) 0.4272(4)
H13_3 H 0.885969 0.292689 0.453952
C11_3 C 0.7850(4) 0.4693(4) 0.3493(4)
H14_3 H 0.558829 0.031152 0.363258
C14_3 C 0.6086(4) 0.3108(4) 0.3555(4)
H15_3 H 0.573711 0.300262 0.303468
C16_3 C 0.8065(4) 0.8033(5) 0.3798(5)
H17_3 H 0.836999 0.785240 0.343834
C17_3 C 0.7764(4) 0.3926(4) 0.3135(4)
H18_3 H 0.743986 0.385976 0.258723
C18_3 C 0.9002(4) 0.5892(5) 0.2600(4)
C19_3 C 0.8330(4) 0.4791(4) 0.4284(4)
H19_3 H 0.839469 0.530429 0.455700
C20_3 C 0.5242(4) 0.1137(5) 0.0844(4)
H20_3 H 0.574551 0.114608 0.087274
C21_3 C 0.4747(4) 0.1001(5) 0.0071(5)
C22_3 C 0.7594(4) 0.9086(5) 0.4546(4)
H22_3 H 0.757419 0.964167 0.468340
C23_3 C 0.8714(4) 0.4124(5) 0.4671(4)
H23_3 H 0.905717 0.417960 0.520612
C24_3 C 0.4017(4) 0.0960(5) 0.0050(4)
C25_3 C 0.8033(4) 0.8843(4) 0.4006(5)
H25_3 H 0.830992 0.922910 0.378019
C28_3 C 0.9837(4) 0.5267(6) 0.1579(5)
C29_3 C 0.8692(4) 0.5417(5) 0.1896(5)
H29_3 H 0.818859 0.530914 0.176878
C30_3 C 0.9119(5) 0.5102(6) 0.1379(6)
H30_3 H 0.891465 0.477516 0.089301
N15_2 N 0.9836(3) 0.0718(4) 0.2739(4)
I4_3 I 0.79746(2) 0.98583(3) 0.15841(3)
I5_3 I 0.53456(2) 0.82908(3) 0.56884(3)
Cu4_3 Cu 0.46937(6) 0.91546(7) 0.44096(7)
N6_3 N 0.5342(3) 0.9145(4) 0.3578(4)
C12_3 C 0.5685(4) 0.9808(4) 0.3398(4)
C13_3 C 0.6185(4) 0.9773(4) 0.2869(4)
C15_3 C 0.6323(4) 0.9027(5) 0.2551(4)
H16_3 H 0.666176 0.897988 0.219638
C26_3 C 0.5974(4) 0.8362(4) 0.2747(5)
H26_3 H 0.606538 0.784829 0.252999
C27_3 C 0.5486(4) 0.8443(5) 0.3262(5)
H27_3 H 0.524404 0.797553 0.339561
P1_4 P 0.22571(9) 0.12685(10) 0.19722(10)
N1_2 N 0.2805(3) 0.3558(4) 0.0118(4)
N4_4 N 0.2378(3) 0.1651(3) 0.1041(4)
H1_4 H 0.275356 0.143920 0.091737
N8_4 N 0.2561(3) 0.0326(4) 0.1967(3)
H3_4 H 0.274368 0.017376 0.248942
N12_4 N 0.1374(3) 0.1225(4) 0.1812(3)
H6_4 H 0.119530 0.169034 0.164661
C1_4 C 0.2364(4) 0.2487(4) 0.0867(4)
C5_4 C 0.2776(4) 0.2790(4) 0.0320(4)
H9_4 H 0.305497 0.241899 0.007654
C6_4 C 0.0258(4) 0.1019(5) 0.2239(4)
H10_4 H 0.003846 0.133444 0.175076
C16_4 C 0.1935(4) 0.3033(5) 0.1202(5)
H17_4 H 0.163001 0.285240 0.156166
C18_4 C 0.0998(4) 0.0892(5) 0.2400(4)
H19_4 H 0.160531 0.030429 0.044300
C22_4 C 0.2406(4) 0.4086(5) 0.0454(4)
H22_4 H 0.242581 0.464167 0.031660
C25_4 C 0.1967(4) 0.3843(4) 0.0994(5)
H25_4 H 0.169008 0.422910 0.121981
C28_4 C 0.0163(4) 0.0267(6) 0.3421(5)
C29_4 C 0.1308(4) 0.0417(5) 0.3104(5)
H29_4 H 0.181141 0.030914 0.323122
C30_4 C 0.0881(5) 0.0102(6) 0.3621(6)
I1_4 I 0.15533(2) 0.61171(3) 0.09357(3)
I2_4 I 0.12753(2) 0.74702(3) 0.33542(3)
I4_4 I 0.20254(2) 0.48583(3) 0.34159(3)
Cu3_4 Cu 0.20193(6) 0.71956(6) 0.21225(6)
Cu4_4 Cu 0.53063(6) 0.41546(7) 0.05904(7)
S1_4 S 0.32097(9) 0.71090(10) 0.29896(10)
P2_4 P 0.36963(9) 0.64153(10) 0.22939(10)
N5_4 N 0.4590(3) 0.6441(4) 0.2598(3)
H2_4 H 0.473148 0.689368 0.243005
N6_4 N 0.4658(3) 0.4145(4) 0.1422(4)
N7_4 N 0.1889(3) 0.8277(3) 0.1481(3)
N9_4 N 0.6243(3) 0.6076(4) 0.4249(4)
N10_4 N 0.3447(3) 0.5462(4) 0.2308(4)
H4_4 H 0.331011 0.538034 0.278165
N11_4 N 0.3558(3) 0.6684(4) 0.1261(3)
H5_4 H 0.320548 0.640964 0.095975
C2_4 C 0.3310(4) 0.9021(4) 0.0360(5)
H7_4 H 0.323799 0.955957 0.015487
C3_4 C 0.5763(4) 0.6218(4) 0.3490(4)
H8_4 H 0.594365 0.629114 0.298337
C4_4 C 0.3503(4) 0.7488(4) 0.0982(4)
C7_4 C 0.5032(4) 0.6263(4) 0.3413(4)
C8_4 C 0.3025(4) 0.7678(4) 0.0207(4)
C9_4 C 0.3797(4) 0.8874(4) 0.1123(5)
H12_4 H 0.405695 0.931076 0.143457
C10_4 C 0.1407(4) 0.8379(5) 0.0728(4)
H13_4 H 0.114031 0.792689 0.046048
C11_4 C 0.2150(4) 0.9693(4) 0.1507(4)
C12_4 C 0.4315(4) 0.4808(4) 0.1602(4)
H14_4 H 0.441171 0.531152 0.136742
C13_4 C 0.3815(4) 0.4773(4) 0.2131(4)
C14_4 C 0.3914(4) 0.8108(4) 0.1445(4)
H15_4 H 0.426289 0.800262 0.196532
C15_4 C 0.3677(4) 0.4027(5) 0.2449(4)
H16_4 H 0.333824 0.397988 0.280362
C17_4 C 0.2236(4) 0.8926(4) 0.1865(4)
H18_4 H 0.256014 0.885976 0.241277
C19_4 C 0.1670(4) 0.9791(4) 0.0716(4)
C20_4 C 0.4758(4) 0.6137(5) 0.4156(4)
H20_4 H 0.425449 0.614608 0.412726
C21_4 C 0.5253(4) 0.6001(5) 0.4929(5)
H21_2 H 0.509028 0.593456 0.544773
C23_4 C 0.1286(4) 0.9124(5) 0.0329(4)
C24_4 C 0.5983(4) 0.5960(5) 0.4950(4)
H24_2 H 0.630976 0.584581 0.548489
C26_4 C 0.4026(4) 0.3362(4) 0.2253(5)
H26_4 H 0.393462 0.284829 0.247001
C27_4 C 0.4514(4) 0.3443(5) 0.1738(5)
H27_4 H 0.475596 0.297553 0.160439
H30_4 H 0.108535 0.977516 0.410699
I5_4 I 0.46544(2) 0.32908(3) 0.93116(3)
H11_4 H 0.275114 0.725501 0.988572
H23_4 H 0.094283 0.917960 0.979388
H28_4 H 0.987519 0.005207 0.378337
H21_3 H 0.509028 0.906544 0.044773
H24_3 H 0.630976 0.915419 0.048489
H21_4 H 0.490972 0.093456 0.955227
H24_4 H 0.369024 0.084581 0.951511
loop_
_geom_bond_atom_site_label_1
_geom_bond_atom_site_label_2
_geom_bond_site_symmetry_1
_geom_bond_site_symmetry_2
I3 Cu4 1_555 1_555
I5 Cu1 1_555 1_555
Cu4 I5 1_555 1_555
N6 Cu4 1_555 1_555
C12 N6 1_555 1_555
C15 C13 1_555 1_555
H16 C15 1_555 1_555
C26 C15 1_555 1_555
H26 C26 1_555 1_555
C27 N6 1_555 1_555
H27 C27 1_555 1_555
S3 Cu1 1_555 1_555
N13 Cu1 1_555 1_555
C12 C13 1_555 1_555
C26 C27 1_555 1_555
I1 Cu2 1_555 1_555
I2 Cu2 1_555 1_555
Cu2 Cu3 1_555 1_555
Cu3 I1 1_555 1_555
Cu5 I2 1_555 1_555
S1 Cu3 1_555 1_555
P1 S2 1_555 1_555
P2 S1 1_555 1_555
S2 Cu8 1_555 1_555
N13 C5 1_555 1_555
N2 C2 1_555 1_555
N4 P1 1_555 1_555
H1 N4 1_555 1_555
N5 P2 1_555 1_555
H2 N5 1_555 1_555
N7 Cu3 1_555 1_555
N8 P1 1_555 1_555
H3 N8 1_555 1_555
N9 C3 1_555 1_555
N10 P2 1_555 1_555
H4 N10 1_555 1_555
N11 P2 1_555 1_555
H5 N11 1_555 1_555
N12 P1 1_555 1_555
H6 N12 1_555 1_555
C1 N4 1_555 1_555
C2 H7 1_555 1_555
C3 H8 1_555 1_555
C4 N11 1_555 1_555
C5 C1 1_555 1_555
H9 C5 1_555 1_555
C6 H10 1_555 1_555
C7 N5 1_555 1_555
C8 N2 1_555 1_555
H11 C8 1_555 1_555
C9 C2 1_555 1_555
H12 C9 1_555 1_555
C10 N7 1_555 1_555
H13 C10 1_555 1_555
C11 N8 1_555 1_555
C14 C4 1_555 1_555
H15 C14 1_555 1_555
C16 C1 1_555 1_555
H17 C16 1_555 1_555
C17 N7 1_555 1_555
H18 C17 1_555 1_555
C18 N12 1_555 1_555
C19 C11 1_555 1_555
H19 C19 1_555 1_555
C20 C7 1_555 1_555
H20 C20 1_555 1_555
C21 C20 1_555 1_555
C22 N13 1_555 1_555
H22 C22 1_555 1_555
C23 C10 1_555 1_555
H23 C23 1_555 1_555
C24 N9 1_555 1_555
C25 C16 1_555 1_555
H25 C25 1_555 1_555
C29 C18 1_555 1_555
H29 C29 1_555 1_555
C30 C28 1_555 1_555
H30 C30 1_555 1_555
Cu10 N2 1_555 1_555
N14 Cu5 1_555 1_555
N15 Cu2 1_555 1_555
I2 Cu3 1_555 1_555
Cu2 Cu5 1_555 1_555
Cu3 Cu5 1_555 1_555
Cu5 S1 1_555 1_555
C3 C7 1_555 1_555
C4 C8 1_555 1_555
C6 C18 1_555 1_555
C9 C14 1_555 1_555
C11 C17 1_555 1_555
C19 C23 1_555 1_555
C21 C24 1_555 1_555
C22 C25 1_555 1_555
C29 C30 1_555 1_555
Cu9 N3 1_555 1_555
I5_2 Cu1_2 1_555 1_555
Cu1_2 I6_2 1_555 1_555
Cu10_2 N2_2 1_555 1_555
S3_2 Cu1_2 1_555 1_555
I1_2 Cu9 1_555 1_555
I2_2 Cu9 1_555 1_555
I3_2 Cu4_2 1_555 1_555
I4_2 Cu9 1_555 1_555
Cu9 Cu3_2 1_555 1_555
Cu3_2 I1_2 1_555 1_555
Cu5_2 I2_2 1_555 1_555
S1_2 Cu3_2 1_555 1_555
P2_2 S1_2 1_555 1_555
N5_2 P2_2 1_555 1_555
H2_2 N5_2 1_555 1_555
N6_2 Cu4_2 1_555 1_555
N7_2 Cu3_2 1_555 1_555
N9_2 C3_2 1_555 1_555
N10_2 P2_2 1_555 1_555
H4_2 N10_2 1_555 1_555
N11_2 P2_2 1_555 1_555
H5_2 N11_2 1_555 1_555
C2_2 H7_2 1_555 1_555
C3_2 H8_2 1_555 1_555
C4_2 N11_2 1_555 1_555
C7_2 N5_2 1_555 1_555
C9_2 C2_2 1_555 1_555
H12_2 C9_2 1_555 1_555
C10_2 N7_2 1_555 1_555
H13_2 C10_2 1_555 1_555
C12_2 N6_2 1_555 1_555
H14_2 C12_2 1_555 1_555
C13_2 N10_2 1_555 1_555
C14_2 C4_2 1_555 1_555
H15_2 C14_2 1_555 1_555
C15_2 C13_2 1_555 1_555
H16_2 C15_2 1_555 1_555
C17_2 N7_2 1_555 1_555
H18_2 C17_2 1_555 1_555
C19_2 C11_2 1_555 1_555
C20_2 C7_2 1_555 1_555
H20_2 C20_2 1_555 1_555
C21_2 C20_2 1_555 1_555
H21 C21_2 1_555 1_555
C23_2 C10_2 1_555 1_555
C24_2 N9_2 1_555 1_555
H24 C24_2 1_555 1_555
C26_2 C15_2 1_555 1_555
H26_2 C26_2 1_555 1_555
C27_2 N6_2 1_555 1_555
H27_2 C27_2 1_555 1_555
Cu8 I3_2 1_555 1_555
N14_2 Cu5_2 1_555 1_555
I2_2 Cu3_2 1_555 1_555
I4_2 Cu5_2 1_555 1_555
Cu9 Cu5_2 1_555 1_555
Cu3_2 Cu5_2 1_555 1_555
Cu5_2 S1_2 1_555 1_555
C3_2 C7_2 1_555 1_555
C4_2 C8_2 1_555 1_555
C9_2 C14_2 1_555 1_555
C11_2 C17_2 1_555 1_555
C12_2 C13_2 1_555 1_555
C19_2 C23_2 1_555 1_555
C21_2 C24_2 1_555 1_555
C26_2 C27_2 1_555 1_555
P1_2 S2_2 1_555 1_555
S2_2 Cu7 1_555 1_555
N13_2 C5_2 1_555 1_555
N4_2 P1_2 1_555 1_555
H1_2 N4_2 1_555 1_555
N8_2 P1_2 1_555 1_555
H3_2 N8_2 1_555 1_555
N12_2 P1_2 1_555 1_555
H6_2 N12_2 1_555 1_555
C1_2 N4_2 1_555 1_555
C5_2 C1_2 1_555 1_555
H9_2 C5_2 1_555 1_555
C6_2 H10_2 1_555 1_555
C16_2 C1_2 1_555 1_555
H17_2 C16_2 1_555 1_555
C18_2 N12_2 1_555 1_555
C22_2 N13_2 1_555 1_555
H22_2 C22_2 1_555 1_555
C25_2 C16_2 1_555 1_555
H25_2 C25_2 1_555 1_555
C29_2 C18_2 1_555 1_555
H29_2 C29_2 1_555 1_555
C30_2 C28_2 1_555 1_555
C6_2 C18_2 1_555 1_555
C22_2 C25_2 1_555 1_555
C29_2 C30_2 1_555 1_555
Cu9_2 N3_2 1_555 1_555
I1_3 Cu2_2 1_555 1_555
I2_3 Cu2_2 1_555 1_555
Cu2_2 Cu3_3 1_555 1_555
Cu3_3 I1_3 1_555 1_555
Cu10_2 I2_3 1_555 1_555
S1_3 Cu3_3 1_555 1_555
P1_3 S3_2 1_555 1_555
P2_3 S1_3 1_555 1_555
N1 C5_3 1_555 1_555
N14_2 C2_3 1_555 1_555
N4_3 P1_3 1_555 1_555
H1_3 N4_3 1_555 1_555
N5_3 P2_3 1_555 1_555
H2_3 N5_3 1_555 1_555
N7_3 Cu3_3 1_555 1_555
N8_3 P1_3 1_555 1_555
H3_3 N8_3 1_555 1_555
N9_3 C3_3 1_555 1_555
N10_3 P2_3 1_555 1_555
H4_3 N10_3 1_555 1_555
N11_3 P2_3 1_555 1_555
H5_3 N11_3 1_555 1_555
N12_3 P1_3 1_555 1_555
H6_3 N12_3 1_555 1_555
C1_3 N4_3 1_555 1_555
C2_3 H7_3 1_555 1_555
C3_3 H8_3 1_555 1_555
C4_3 N11_3 1_555 1_555
C5_3 C1_3 1_555 1_555
H9_3 C5_3 1_555 1_555
C6_3 H10_3 1_555 1_555
C7_3 N5_3 1_555 1_555
C8_3 N14_2 1_555 1_555
H11_3 C8_3 1_555 1_555
C9_3 C2_3 1_555 1_555
H12_3 C9_3 1_555 1_555
C10_3 N7_3 1_555 1_555
H13_3 C10_3 1_555 1_555
C11_3 N8_3 1_555 1_555
C14_3 C4_3 1_555 1_555
H15_3 C14_3 1_555 1_555
C16_3 C1_3 1_555 1_555
H17_3 C16_3 1_555 1_555
C17_3 N7_3 1_555 1_555
H18_3 C17_3 1_555 1_555
C18_3 N12_3 1_555 1_555
C19_3 C11_3 1_555 1_555
H19_3 C19_3 1_555 1_555
C20_3 C7_3 1_555 1_555
H20_3 C20_3 1_555 1_555
C21_3 C20_3 1_555 1_555
C22_3 N1 1_555 1_555
H22_3 C22_3 1_555 1_555
C23_3 C10_3 1_555 1_555
H23_3 C23_3 1_555 1_555
C24_3 N9_3 1_555 1_555
C25_3 C16_3 1_555 1_555
H25_3 C25_3 1_555 1_555
C29_3 C18_3 1_555 1_555
H29_3 C29_3 1_555 1_555
C30_3 C28_3 1_555 1_555
H30_3 C30_3 1_555 1_555
Cu7 N1 1_555 1_555
N15_2 Cu2_2 1_555 1_555
I2_3 Cu3_3 1_555 1_555
Cu2_2 Cu10_2 1_555 1_555
Cu3_3 Cu10_2 1_555 1_555
Cu10_2 S1_3 1_555 1_555
C3_3 C7_3 1_555 1_555
C4_3 C8_3 1_555 1_555
C6_3 C18_3 1_555 1_555
C9_3 C14_3 1_555 1_555
C11_3 C17_3 1_555 1_555
C19_3 C23_3 1_555 1_555
C21_3 C24_3 1_555 1_555
C22_3 C25_3 1_555 1_555
C29_3 C30_3 1_555 1_555
I6 Cu4_3 1_555 1_555
I5_3 Cu7 1_555 1_555
Cu4_3 I5_3 1_555 1_555
N6_3 Cu4_3 1_555 1_555
C12_3 N6_3 1_555 1_555
C15_3 C13_3 1_555 1_555
H16_3 C15_3 1_555 1_555
C26_3 C15_3 1_555 1_555
H26_3 C26_3 1_555 1_555
C27_3 N6_3 1_555 1_555
H27_3 C27_3 1_555 1_555
C12_3 C13_3 1_555 1_555
C26_3 C27_3 1_555 1_555
P1_4 S3 1_555 1_555
N1_2 C5_4 1_555 1_555
N4_4 P1_4 1_555 1_555
H1_4 N4_4 1_555 1_555
N8_4 P1_4 1_555 1_555
H3_4 N8_4 1_555 1_555
N12_4 P1_4 1_555 1_555
H6_4 N12_4 1_555 1_555
C1_4 N4_4 1_555 1_555
C5_4 C1_4 1_555 1_555
H9_4 C5_4 1_555 1_555
C6_4 H10_4 1_555 1_555
C16_4 C1_4 1_555 1_555
H17_4 C16_4 1_555 1_555
C18_4 N12_4 1_555 1_555
C22_4 N1_2 1_555 1_555
H22_4 C22_4 1_555 1_555
C25_4 C16_4 1_555 1_555
H25_4 C25_4 1_555 1_555
C29_4 C18_4 1_555 1_555
H29_4 C29_4 1_555 1_555
C30_4 C28_4 1_555 1_555
C6_4 C18_4 1_555 1_555
C22_4 C25_4 1_555 1_555
C29_4 C30_4 1_555 1_555
I1_4 Cu9_2 1_555 1_555
I2_4 Cu9_2 1_555 1_555
I6_2 Cu4_4 1_555 1_555
I4_4 Cu9_2 1_555 1_555
Cu9_2 Cu3_4 1_555 1_555
Cu3_4 I1_4 1_555 1_555
Cu10 I2_4 1_555 1_555
S1_4 Cu3_4 1_555 1_555
P2_4 S1_4 1_555 1_555
N5_4 P2_4 1_555 1_555
H2_4 N5_4 1_555 1_555
N6_4 Cu4_4 1_555 1_555
N7_4 Cu3_4 1_555 1_555
N9_4 C3_4 1_555 1_555
N10_4 P2_4 1_555 1_555
H4_4 N10_4 1_555 1_555
N11_4 P2_4 1_555 1_555
H5_4 N11_4 1_555 1_555
C2_4 H7_4 1_555 1_555
C3_4 H8_4 1_555 1_555
C4_4 N11_4 1_555 1_555
C7_4 N5_4 1_555 1_555
C9_4 C2_4 1_555 1_555
H12_4 C9_4 1_555 1_555
C10_4 N7_4 1_555 1_555
H13_4 C10_4 1_555 1_555
C12_4 N6_4 1_555 1_555
H14_4 C12_4 1_555 1_555
C13_4 N10_4 1_555 1_555
C14_4 C4_4 1_555 1_555
H15_4 C14_4 1_555 1_555
C15_4 C13_4 1_555 1_555
H16_4 C15_4 1_555 1_555
C17_4 N7_4 1_555 1_555
H18_4 C17_4 1_555 1_555
C19_4 C11_4 1_555 1_555
C20_4 C7_4 1_555 1_555
H20_4 C20_4 1_555 1_555
C21_4 C20_4 1_555 1_555
H21_2 C21_4 1_555 1_555
C23_4 C10_4 1_555 1_555
C24_4 N9_4 1_555 1_555
H24_2 C24_4 1_555 1_555
C26_4 C15_4 1_555 1_555
H26_4 C26_4 1_555 1_555
C27_4 N6_4 1_555 1_555
H27_4 C27_4 1_555 1_555
I2_4 Cu3_4 1_555 1_555
I4_4 Cu10 1_555 1_555
Cu9_2 Cu10 1_555 1_555
Cu3_4 Cu10 1_555 1_555
Cu10 S1_4 1_555 1_555
C3_4 C7_4 1_555 1_555
C4_4 C8_4 1_555 1_555
C9_4 C14_4 1_555 1_555
C11_4 C17_4 1_555 1_555
C12_4 C13_4 1_555 1_555
C19_4 C23_4 1_555 1_555
C21_4 C24_4 1_555 1_555
C26_4 C27_4 1_555 1_555
I5_4 Cu8 1_555 1_555

#END
