
###############################################################################
#
# This file contains modified crystal structure data generated from the
# MOF subset of the Cambridge Structural Database (CSD) v543 
# hosted by the Cambridge Crystallographic Data Centre (CCDC).
#
# This work is licensed under the Creative Commons
# Attribution-NonCommercial-ShareAlike 4.0 International License.
# To view a copy of this license, visit
# http://creativecommons.org/licenses/by-nc-sa/4.0/
# or send a letter to
# Creative Commons, PO Box 1866, Mountain View, CA 94042, USA.
#
# CIF created using the CSD Python API on 29 September 2022
# The structure has been converted into the P1 space group
# The structure has a 3D framework
# The original CSD entry OSIKUX is in the orthorhombic crystal system
# The framework has been calculated to contain at least 10.0% void space
# The void calculation uses a probe of radius 1.32A, grid spacing 0.4
# H atom positions have been added when not included in the experimental data
#
###############################################################################

data_OSIKUX
_chemical_formula_moiety         '(C288 H192 Br48 N96 Zn24)n'
_symmetry_cell_setting           triclinic
_symmetry_space_group_name_H-M   'P 1'
_symmetry_Int_Tables_number      1
_space_group_name_Hall           'P 1'
loop_
_symmetry_equiv_pos_site_id
_symmetry_equiv_pos_as_xyz
1 x,y,z
_cell_length_a                   43.6039(12)
_cell_length_b                   26.20409(85)
_cell_length_c                   13.76634(26)
_cell_angle_alpha                90
_cell_angle_beta                 90
_cell_angle_gamma                90
_cell_volume                     15729.4
loop_
_atom_site_label
_atom_site_type_symbol
_atom_site_fract_x
_atom_site_fract_y
_atom_site_fract_z
H21 H 0.0816303 0.0121277 0.932322
C32 C 0.0231(34) 0.9404(59) 0.090(12)
C36 C 0.0513(41) 0.9551(55) 0.13(1)
N12 N 0.0739(26) 0.9709(46) 0.06(1)
Zn5 Zn 0.11444(46) 0.9808(8) 0.1384(14)
H20 H 0.0557576 0.954608 0.20783
H22 H 0.00498678 0.926501 0.137605
N13 N 0.5684(34) 0.0367(53) 0.0388(85)
C5 C 0.6674(43) 0.8131(73) 0.989(12)
C6 C 0.6703(47) 0.7264(66) 0.995(12)
C9 C 0.6490(42) 0.8615(69) 0.986(13)
N3 N 0.6516(27) 0.7680(59) 0.9901(95)
C10 C 0.6572(45) 0.6762(67) 0.977(12)
C11 C 0.6186(41) 0.8608(65) 0.974(11)
C12 C 0.6636(38) 0.9067(68) 0.990(12)
C13 C 0.6772(37) 0.6339(76) 0.978(12)
C14 C 0.6263(38) 0.6685(65) 0.952(12)
C15 C 0.6051(37) 0.9042(66) 0.941(12)
C16 C 0.6479(42) 0.9502(64) 0.963(12)
C17 C 0.6651(36) 0.5865(59) 0.971(12)
C18 C 0.6178(35) 0.6195(74) 0.93(1)
N6 N 0.6190(32) 0.9476(54) 0.94(1)
N7 N 0.6373(37) 0.5795(44) 0.9286(91)
Zn3 Zn 0.61444(46) 0.5192(8) 0.8616(14)
C22 C 0.8958(46) 0.8354(69) 0.98(1)
Br4 Br 0.54951(39) 0.97641(63) 0.8294(12)
Br5 Br 0.64080(41) 0.45474(63) 0.9285(12)
Br6 Br 0.60902(38) 0.5494(6) 0.7014(12)
C24 C 0.9434(43) 0.8797(74) 0.962(15)
N8 N 0.9382(31) 0.8857(57) 0.868(12)
C25 C 0.956(5) 0.916(7) 0.823(12)
C26 C 0.9860(39) 0.9281(73) 0.952(15)
C27 C 0.9468(48) 0.9315(71) 0.722(11)
N10 N 0.9773(32) 0.943(5) 0.862(11)
C29 C 0.9622(36) 0.9723(64) 0.677(13)
C30 C 0.9202(41) 0.9152(55) 0.679(12)
C33 C 0.9535(36) 0.9859(59) 0.586(13)
C34 C 0.9119(37) 0.9341(66) 0.592(13)
N11 N 0.9316(34) 0.9633(53) 0.5388(85)
Zn4 Zn 0.90836(48) 0.98765(79) 0.4034(14)
N14 N 0.5739(26) 0.5291(46) 0.94(1)
H1 H 0.593818 0.612387 0.912559
H5 H 0.60517 0.82679 0.990033
H8 H 0.701885 0.639285 0.98428
H9 H 0.659735 0.98678 0.960948
H11 H 0.896045 0.827575 0.902313
H12 H 0.609937 0.699883 0.9502
H14 H 0.581615 0.902233 0.914353
H16 H 0.677691 0.55387 0.99945
H18 H 0.905818 0.887026 0.715145
H19 H 0.980618 0.99244 0.714213
H23 H 0.889105 0.925954 0.563643
C1 C 0.7865(37) 0.2261(82) 0.521(12)
C2 C 0.7537(38) 0.2218(79) 0.564(12)
N1 N 0.8022(35) 0.1821(57) 0.51(1)
N2 N 0.7985(32) 0.2734(54) 0.508(9)
C3 C 0.7442(41) 0.1780(61) 0.607(11)
C4 C 0.7348(44) 0.2681(57) 0.572(11)
C5_2 C 0.8326(43) 0.1869(73) 0.489(12)
C6_2 C 0.8297(47) 0.2736(66) 0.495(12)
C7 C 0.7130(42) 0.1754(57) 0.636(11)
C8 C 0.7065(41) 0.2629(63) 0.620(12)
C9_2 C 0.8510(42) 0.1385(69) 0.486(13)
N3_2 N 0.8484(27) 0.2320(59) 0.4901(95)
C10_2 C 0.8428(45) 0.3238(67) 0.477(12)
N4 N 0.6964(29) 0.219(6) 0.653(9)
C11_2 C 0.8814(41) 0.1392(65) 0.474(11)
C12_2 C 0.8364(38) 0.0933(68) 0.490(12)
C13_2 C 0.8228(37) 0.3661(76) 0.478(12)
C14_2 C 0.8737(38) 0.3315(65) 0.452(12)
Zn1 Zn 0.65296(47) 0.23567(74) 0.7197(15)
C15_2 C 0.8949(37) 0.0958(66) 0.441(12)
C16_2 C 0.8521(42) 0.0498(64) 0.463(12)
C17_2 C 0.8349(36) 0.4135(59) 0.471(12)
C18_2 C 0.8822(35) 0.3805(74) 0.43(1)
Br1 Br 0.66567(38) 0.19891(65) 0.8860(11)
Br2 Br 0.63800(39) 0.32002(61) 0.7203(12)
N5 N 0.626(3) 0.1818(42) 0.65(1)
N6_2 N 0.8810(32) 0.0524(54) 0.44(1)
N7_2 N 0.8627(37) 0.4205(44) 0.4286(91)
C19 C 0.5994(44) 0.1625(61) 0.6802(97)
C20 C 0.6288(37) 0.1829(56) 0.544(14)
Zn3_2 Zn 0.88556(46) 0.4808(8) 0.3616(14)
C21 C 0.5782(39) 0.1365(62) 0.623(14)
C22_2 C 0.6042(46) 0.1646(69) 0.48(1)
Br4_2 Br 0.95049(39) 0.02359(63) 0.3294(12)
Br5_2 Br 0.85920(41) 0.54526(63) 0.4285(12)
Br6_2 Br 0.89098(38) 0.4506(6) 0.2014(12)
C23 C 0.5815(42) 0.1369(68) 0.525(13)
C24_2 C 0.5566(43) 0.1203(74) 0.462(15)
N8_2 N 0.5618(31) 0.1143(57) 0.368(12)
N9 N 0.5325(39) 0.0978(52) 0.5097(94)
C25_2 C 0.544(5) 0.084(7) 0.323(12)
C26_2 C 0.5140(39) 0.0719(73) 0.452(15)
C27_2 C 0.5532(48) 0.0685(71) 0.222(11)
N10_2 N 0.5227(32) 0.057(5) 0.362(11)
C28 C 0.4820(39) 0.0568(68) 0.493(12)
C29_2 C 0.5378(36) 0.0277(64) 0.177(13)
C30_2 C 0.5798(41) 0.0848(55) 0.179(12)
C31 C 0.4608(37) 0.0310(61) 0.43(1)
C32_2 C 0.4769(34) 0.0596(59) 0.590(12)
C33_2 C 0.5465(36) 0.0141(59) 0.086(13)
C34_2 C 0.5881(37) 0.0659(66) 0.092(13)
C35 C 0.4334(39) 0.0137(56) 0.472(11)
C36_2 C 0.4487(41) 0.0449(55) 0.63(1)
N12_2 N 0.4261(26) 0.0291(46) 0.56(1)
Zn5_2 Zn 0.38556(46) 0.0192(8) 0.6384(14)
N14_2 N 0.9261(26) 0.4709(46) 0.44(1)
H1_2 H 0.906182 0.387613 0.412559
H2 H 0.59371 0.167514 0.756632
H3 H 0.649771 0.197746 0.511643
H4 H 0.759837 0.146191 0.618773
H5_2 H 0.89483 0.17321 0.490033
H6 H 0.702086 0.138312 0.644881
H7 H 0.559195 0.116085 0.656525
H8_2 H 0.798115 0.360715 0.48428
H9_2 H 0.840265 0.0132198 0.460948
H10 H 0.69236 0.296732 0.630232
H11_2 H 0.603955 0.172425 0.402313
H12_2 H 0.890063 0.300117 0.4502
H13 H 0.74233 0.304522 0.542294
H14_2 H 0.918385 0.0977666 0.414353
H15 H 0.812648 0.0910782 0.514082
H16_2 H 0.822309 0.44613 0.49945
H17 H 0.465767 0.0251523 0.353278
H18_2 H 0.594182 0.112974 0.215145
H19_2 H 0.519382 0.00756042 0.214213
H20_2 H 0.444242 0.0453924 0.70783
H22_2 H 0.495013 0.0734991 0.637605
H23_2 H 0.610895 0.074046 0.0636432
Br3 Br 0.8764(4) 0.92591(65) 0.3452(12)
H21_2 H 0.41837 0.987872 0.432322
H24 H 0.534519 0.98267 0.0508112
Zn4_2 Zn 0.09164(48) 0.48765(79) 0.0966(14)
C1_2 C 0.2865(37) 0.2739(82) 0.479(12)
C2_2 C 0.2537(38) 0.2782(79) 0.436(12)
N1_2 N 0.3022(35) 0.3179(57) 0.49(1)
N2_2 N 0.2985(32) 0.2266(54) 0.492(9)
C3_2 C 0.2442(41) 0.3220(61) 0.393(11)
C4_2 C 0.2348(44) 0.2319(57) 0.428(11)
C5_3 C 0.3326(43) 0.3131(73) 0.511(12)
C6_3 C 0.3297(47) 0.2264(66) 0.505(12)
C7_2 C 0.2130(42) 0.3246(57) 0.364(11)
C8_2 C 0.2065(41) 0.2371(63) 0.380(12)
C9_3 C 0.3510(42) 0.3615(69) 0.514(13)
N3_3 N 0.3484(27) 0.2680(59) 0.5099(95)
C10_3 C 0.3428(45) 0.1762(67) 0.523(12)
N4_2 N 0.1964(29) 0.281(6) 0.347(9)
C11_3 C 0.3814(41) 0.3608(65) 0.526(11)
C12_3 C 0.3364(38) 0.4067(68) 0.510(12)
C13_3 C 0.3228(37) 0.1339(76) 0.522(12)
C14_3 C 0.3737(38) 0.1685(65) 0.548(12)
Zn1_2 Zn 0.15296(47) 0.26433(74) 0.2803(15)
C15_3 C 0.3949(37) 0.4042(66) 0.559(12)
C16_3 C 0.3521(42) 0.4502(64) 0.537(12)
C17_3 C 0.3349(36) 0.0865(59) 0.529(12)
C18_3 C 0.3822(35) 0.1195(74) 0.57(1)
Br1_2 Br 0.16567(38) 0.30109(65) 0.1140(11)
Br2_2 Br 0.13800(39) 0.17998(61) 0.2797(12)
N5_2 N 0.126(3) 0.3182(42) 0.35(1)
N6_3 N 0.3810(32) 0.4476(54) 0.56(1)
N7_3 N 0.3627(37) 0.0795(44) 0.5714(91)
C19_2 C 0.0994(44) 0.3375(61) 0.3198(97)
C20_2 C 0.1288(37) 0.3171(56) 0.456(14)
Zn2 Zn 0.40836(48) 0.51235(79) 0.5966(14)
C21_2 C 0.0782(39) 0.3635(62) 0.377(14)
C22_3 C 0.1042(46) 0.3354(69) 0.52(1)
Br3_2 Br 0.3764(4) 0.57409(65) 0.6548(12)
Br4_3 Br 0.45049(39) 0.47641(63) 0.6706(12)
Br6_3 Br 0.39098(38) 0.0494(6) 0.7986(12)
C23_2 C 0.0815(42) 0.3631(68) 0.475(13)
C24_3 C 0.0566(43) 0.3797(74) 0.538(15)
N8_3 N 0.0618(31) 0.3857(57) 0.632(12)
N9_2 N 0.0325(39) 0.4022(52) 0.4903(94)
C25_3 C 0.044(5) 0.416(7) 0.677(12)
C26_3 C 0.0140(39) 0.4281(73) 0.548(15)
C27_3 C 0.0532(48) 0.4315(71) 0.778(11)
N10_3 N 0.0227(32) 0.443(5) 0.638(11)
C29_3 C 0.0378(36) 0.4723(64) 0.823(13)
C30_3 C 0.0798(41) 0.4152(55) 0.821(12)
C33_3 C 0.0465(36) 0.4859(59) 0.914(13)
C34_3 C 0.0881(37) 0.4341(66) 0.908(13)
N11_2 N 0.0684(34) 0.4633(53) 0.9612(85)
N13_2 N 0.4316(34) 0.5367(53) 0.4612(85)
H1_3 H 0.406182 0.112387 0.587441
H2_2 H 0.0937101 0.332486 0.243368
H3_2 H 0.149771 0.302254 0.488357
H4_2 H 0.259837 0.353809 0.381227
H5_3 H 0.39483 0.32679 0.509967
H6_2 H 0.202086 0.361688 0.355119
H7_2 H 0.0591949 0.383915 0.343475
H8_3 H 0.298115 0.139285 0.51572
H9_3 H 0.340265 0.48678 0.539052
H10_2 H 0.19236 0.203268 0.369768
H11_3 H 0.103955 0.327575 0.597687
H12_3 H 0.390063 0.199883 0.5498
H13_2 H 0.24233 0.195478 0.457706
H14_3 H 0.418385 0.402233 0.585647
H15_2 H 0.312648 0.408922 0.485918
H16_3 H 0.322309 0.0538698 0.50055
H18_3 H 0.0941822 0.387026 0.784855
H19_3 H 0.0193818 0.49244 0.785787
H23_3 H 0.110895 0.425954 0.936357
H24_2 H 0.0345188 0.51733 0.949189
C28_2 C 0.9820(39) 0.4432(68) 0.507(12)
C31_2 C 0.9608(37) 0.4690(61) 0.57(1)
C32_3 C 0.9769(34) 0.4404(59) 0.410(12)
C35_2 C 0.9334(39) 0.4863(56) 0.528(11)
C36_3 C 0.9487(41) 0.4551(55) 0.37(1)
H17_2 H 0.965767 0.474848 0.646722
H20_3 H 0.944242 0.454608 0.29217
H21_3 H 0.91837 0.512128 0.567678
H22_3 H 0.995013 0.426501 0.362395
C5_4 C 0.1674(43) 0.6869(73) 0.011(12)
C6_4 C 0.1703(47) 0.7736(66) 0.005(12)
C9_4 C 0.1490(42) 0.6385(69) 0.014(13)
N3_4 N 0.1516(27) 0.7320(59) 0.0099(95)
C10_4 C 0.1572(45) 0.8238(67) 0.023(12)
C11_4 C 0.1186(41) 0.6392(65) 0.026(11)
C12_4 C 0.1636(38) 0.5933(68) 0.010(12)
C13_4 C 0.1772(37) 0.8661(76) 0.022(12)
C14_4 C 0.1263(38) 0.8315(65) 0.048(12)
C15_4 C 0.1051(37) 0.5958(66) 0.059(12)
C16_4 C 0.1479(42) 0.5498(64) 0.037(12)
C17_4 C 0.1651(36) 0.9135(59) 0.029(12)
C18_4 C 0.1178(35) 0.8805(74) 0.07(1)
N6_4 N 0.1190(32) 0.5524(54) 0.06(1)
N7_4 N 0.1373(37) 0.9205(44) 0.0714(91)
C22_4 C 0.3958(46) 0.6646(69) 0.02(1)
Br3_3 Br 0.1236(4) 0.42591(65) 0.1548(12)
Br4_4 Br 0.04951(39) 0.52359(63) 0.1706(12)
Br6_4 Br 0.10902(38) 0.9506(6) 0.2986(12)
C24_4 C 0.4434(43) 0.6203(74) 0.038(15)
N8_4 N 0.4382(31) 0.6143(57) 0.132(12)
C25_4 C 0.456(5) 0.584(7) 0.177(12)
C26_4 C 0.4860(39) 0.5719(73) 0.048(15)
C27_4 C 0.4468(48) 0.5685(71) 0.278(11)
N10_4 N 0.4773(32) 0.557(5) 0.138(11)
C28_3 C 0.5180(39) 0.5568(68) 0.007(12)
C29_4 C 0.4622(36) 0.5277(64) 0.323(13)
C30_4 C 0.4202(41) 0.5848(55) 0.321(12)
C31_3 C 0.5392(37) 0.5310(61) 0.07(1)
C33_4 C 0.4535(36) 0.5141(59) 0.414(13)
C34_4 C 0.4119(37) 0.5659(66) 0.408(13)
C35_3 C 0.5666(39) 0.5137(56) 0.028(11)
H1_4 H 0.0938177 0.887613 0.0874414
H5_4 H 0.10517 0.67321 0.00996707
H8_4 H 0.201885 0.860715 0.0157198
H9_4 H 0.159735 0.51322 0.0390515
H11_4 H 0.396045 0.672425 0.0976872
H12_4 H 0.109937 0.800117 0.0497998
H14_4 H 0.0816145 0.597767 0.0856474
H16_4 H 0.177691 0.94613 0.000550203
H17_3 H 0.534233 0.525152 0.146722
H18_4 H 0.405818 0.612974 0.284855
H19_4 H 0.480618 0.50756 0.285787
H21_4 H 0.58163 0.487872 0.0676776
H23_4 H 0.389105 0.574046 0.436357
H24_3 H 0.465481 0.48267 0.449189
C1_3 C 0.2135(37) 0.7261(82) 0.979(12)
C2_3 C 0.2463(38) 0.7218(79) 0.936(12)
N1_3 N 0.1978(35) 0.6821(57) 0.99(1)
N2_3 N 0.2015(32) 0.7734(54) 0.992(9)
C3_3 C 0.2558(41) 0.6780(61) 0.893(11)
C4_3 C 0.2652(44) 0.7681(57) 0.928(11)
C7_3 C 0.2870(42) 0.6754(57) 0.864(11)
C8_3 C 0.2935(41) 0.7629(63) 0.880(12)
N4_3 N 0.3036(29) 0.719(6) 0.847(9)
Zn1_3 Zn 0.34704(47) 0.73567(74) 0.7803(15)
Br1_3 Br 0.33433(38) 0.69891(65) 0.6140(11)
Br2_3 Br 0.36200(39) 0.82002(61) 0.7797(12)
N5_3 N 0.374(3) 0.6818(42) 0.85(1)
C19_3 C 0.4006(44) 0.6625(61) 0.8198(97)
C20_3 C 0.3712(37) 0.6829(56) 0.956(14)
C21_3 C 0.4218(39) 0.6365(62) 0.877(14)
C23_3 C 0.4185(42) 0.6369(68) 0.975(13)
N9_3 N 0.4675(39) 0.5978(52) 0.9903(94)
C32_4 C 0.5231(34) 0.5596(59) 0.910(12)
C36_4 C 0.5513(41) 0.5449(55) 0.87(1)
H2_3 H 0.40629 0.667514 0.743368
H3_3 H 0.350229 0.697746 0.988357
H4_3 H 0.240163 0.646191 0.881227
H6_3 H 0.297914 0.638312 0.855119
H7_3 H 0.440805 0.616085 0.843475
H10_3 H 0.30764 0.796732 0.869768
H13_3 H 0.25767 0.804522 0.957706
H15_3 H 0.187352 0.591078 0.985918
H20_4 H 0.555758 0.545392 0.79217
H22_4 H 0.504987 0.573499 0.862395
C28_4 C 0.0180(39) 0.9432(68) 0.993(12)
C31_4 C 0.0392(37) 0.9690(61) 0.93(1)
C35_4 C 0.0666(39) 0.9863(56) 0.972(11)
H17_4 H 0.0342326 0.974848 0.853278
Zn2_2 Zn 0.59164(48) 0.01235(79) 0.9034(14)
Br3_4 Br 0.6236(4) 0.07409(65) 0.8452(12)
H24_4 H 0.965481 0.0173304 0.550811
C1_4 C 0.7135(37) 0.7739(82) 0.021(12)
C2_4 C 0.7463(38) 0.7782(79) 0.064(12)
N1_4 N 0.6978(35) 0.8179(57) 0.01(1)
N2_4 N 0.7015(32) 0.7266(54) 0.008(9)
C3_4 C 0.7558(41) 0.8220(61) 0.107(11)
C4_4 C 0.7652(44) 0.7319(57) 0.072(11)
C7_4 C 0.7870(42) 0.8246(57) 0.136(11)
C8_4 C 0.7935(41) 0.7371(63) 0.120(12)
N4_4 N 0.8036(29) 0.781(6) 0.153(9)
Zn1_4 Zn 0.84704(47) 0.76433(74) 0.2197(15)
Br1_4 Br 0.83433(38) 0.80109(65) 0.3860(11)
Br2_4 Br 0.86200(39) 0.67998(61) 0.2203(12)
N5_4 N 0.874(3) 0.8182(42) 0.15(1)
C19_4 C 0.9006(44) 0.8375(61) 0.1802(97)
C20_4 C 0.8712(37) 0.8171(56) 0.044(14)
C21_4 C 0.9218(39) 0.8635(62) 0.123(14)
C23_4 C 0.9185(42) 0.8631(68) 0.025(13)
N9_4 N 0.9675(39) 0.9022(52) 0.0097(94)
H2_4 H 0.90629 0.832486 0.256632
H3_4 H 0.850229 0.802254 0.0116429
H4_4 H 0.740163 0.853809 0.118773
H6_4 H 0.797914 0.861688 0.144881
H7_4 H 0.940805 0.883915 0.156525
H10_4 H 0.80764 0.703268 0.130232
H13_4 H 0.75767 0.695478 0.0422937
H15_4 H 0.687352 0.908922 0.0140816
Br5_3 Br 0.35920(41) 0.95474(63) 0.5715(12)
Br5_4 Br 0.14080(41) 0.04526(63) 0.0715(12)
C5_5 C 0.3326(43) 0.1869(73) 0.011(12)
C6_5 C 0.3297(47) 0.2736(66) 0.005(12)
C9_5 C 0.3510(42) 0.1385(69) 0.014(13)
N3_5 N 0.3484(27) 0.2320(59) 0.0099(95)
C10_5 C 0.3428(45) 0.3238(67) 0.023(12)
C11_5 C 0.3814(41) 0.1392(65) 0.026(11)
C12_5 C 0.3364(38) 0.0933(68) 0.010(12)
C13_5 C 0.3228(37) 0.3661(76) 0.022(12)
C14_5 C 0.3737(38) 0.3315(65) 0.048(12)
C15_5 C 0.3949(37) 0.0958(66) 0.059(12)
C16_5 C 0.3521(42) 0.0498(64) 0.037(12)
C17_5 C 0.3349(36) 0.4135(59) 0.029(12)
C18_5 C 0.3822(35) 0.3805(74) 0.07(1)
N6_5 N 0.3810(32) 0.0524(54) 0.06(1)
N7_5 N 0.3627(37) 0.4205(44) 0.0714(91)
Zn3_3 Zn 0.38556(46) 0.4808(8) 0.1384(14)
C22_5 C 0.1042(46) 0.1646(69) 0.02(1)
Br4_5 Br 0.45049(39) 0.02359(63) 0.1706(12)
Br5_5 Br 0.35920(41) 0.54526(63) 0.0715(12)
Br6_5 Br 0.39098(38) 0.4506(6) 0.2986(12)
C24_5 C 0.0566(43) 0.1203(74) 0.038(15)
N8_5 N 0.0618(31) 0.1143(57) 0.132(12)
C25_5 C 0.044(5) 0.084(7) 0.177(12)
C26_5 C 0.0140(39) 0.0719(73) 0.048(15)
C27_5 C 0.0532(48) 0.0685(71) 0.278(11)
N10_5 N 0.0227(32) 0.057(5) 0.138(11)
C29_5 C 0.0378(36) 0.0277(64) 0.323(13)
C30_5 C 0.0798(41) 0.0848(55) 0.321(12)
C33_5 C 0.0465(36) 0.0141(59) 0.414(13)
C34_5 C 0.0881(37) 0.0659(66) 0.408(13)
N11_3 N 0.0684(34) 0.0367(53) 0.4612(85)
Zn4_3 Zn 0.09164(48) 0.01235(79) 0.5966(14)
N14_3 N 0.4261(26) 0.4709(46) 0.06(1)
H1_5 H 0.406182 0.387613 0.0874414
H5_5 H 0.39483 0.17321 0.00996707
H8_5 H 0.298115 0.360715 0.0157198
H9_5 H 0.340265 0.0132198 0.0390515
H11_5 H 0.103955 0.172425 0.0976872
H12_5 H 0.390063 0.300117 0.0497998
H14_5 H 0.418385 0.0977666 0.0856474
H16_5 H 0.322309 0.44613 0.000550203
H18_5 H 0.0941822 0.112974 0.284855
H19_5 H 0.0193818 0.00756042 0.285787
H23_5 H 0.110895 0.074046 0.436357
N13_3 N 0.4316(34) 0.9633(53) 0.9612(85)
C32_5 C 0.9769(34) 0.0596(59) 0.910(12)
C36_5 C 0.9487(41) 0.0449(55) 0.87(1)
N12_3 N 0.9261(26) 0.0291(46) 0.94(1)
Zn5_3 Zn 0.88556(46) 0.0192(8) 0.8616(14)
H20_5 H 0.944242 0.0453924 0.79217
H22_5 H 0.995013 0.0734991 0.862395
Br3_5 Br 0.1236(4) 0.07409(65) 0.6548(12)
H21_5 H 0.58163 0.0121277 0.567678
H24_5 H 0.465481 0.0173304 0.949189
C1_5 C 0.2135(37) 0.7739(82) 0.479(12)
C2_5 C 0.2463(38) 0.7782(79) 0.436(12)
N1_5 N 0.1978(35) 0.8179(57) 0.49(1)
N2_5 N 0.2015(32) 0.7266(54) 0.492(9)
C3_5 C 0.2558(41) 0.8220(61) 0.393(11)
C4_5 C 0.2652(44) 0.7319(57) 0.428(11)
C5_6 C 0.1674(43) 0.8131(73) 0.511(12)
C6_6 C 0.1703(47) 0.7264(66) 0.505(12)
C7_5 C 0.2870(42) 0.8246(57) 0.364(11)
C8_5 C 0.2935(41) 0.7371(63) 0.380(12)
C9_6 C 0.1490(42) 0.8615(69) 0.514(13)
N3_6 N 0.1516(27) 0.7680(59) 0.5099(95)
C10_6 C 0.1572(45) 0.6762(67) 0.523(12)
N4_5 N 0.3036(29) 0.781(6) 0.347(9)
C11_6 C 0.1186(41) 0.8608(65) 0.526(11)
C12_6 C 0.1636(38) 0.9067(68) 0.510(12)
C13_6 C 0.1772(37) 0.6339(76) 0.522(12)
C14_6 C 0.1263(38) 0.6685(65) 0.548(12)
Zn1_5 Zn 0.34704(47) 0.76433(74) 0.2803(15)
C15_6 C 0.1051(37) 0.9042(66) 0.559(12)
C16_6 C 0.1479(42) 0.9502(64) 0.537(12)
C17_6 C 0.1651(36) 0.5865(59) 0.529(12)
C18_6 C 0.1178(35) 0.6195(74) 0.57(1)
Br1_5 Br 0.33433(38) 0.80109(65) 0.1140(11)
Br2_5 Br 0.36200(39) 0.67998(61) 0.2797(12)
N5_5 N 0.374(3) 0.8182(42) 0.35(1)
N6_6 N 0.1190(32) 0.9476(54) 0.56(1)
N7_6 N 0.1373(37) 0.5795(44) 0.5714(91)
C19_5 C 0.4006(44) 0.8375(61) 0.3198(97)
C20_5 C 0.3712(37) 0.8171(56) 0.456(14)
Zn3_4 Zn 0.11444(46) 0.5192(8) 0.6384(14)
C21_5 C 0.4218(39) 0.8635(62) 0.377(14)
C22_6 C 0.3958(46) 0.8354(69) 0.52(1)
Br4_6 Br 0.04951(39) 0.97641(63) 0.6706(12)
Br5_6 Br 0.14080(41) 0.45474(63) 0.5715(12)
Br6_6 Br 0.10902(38) 0.5494(6) 0.7986(12)
C23_5 C 0.4185(42) 0.8631(68) 0.475(13)
C24_6 C 0.4434(43) 0.8797(74) 0.538(15)
N8_6 N 0.4382(31) 0.8857(57) 0.632(12)
N9_5 N 0.4675(39) 0.9022(52) 0.4903(94)
C25_6 C 0.456(5) 0.916(7) 0.677(12)
C26_6 C 0.4860(39) 0.9281(73) 0.548(15)
C27_6 C 0.4468(48) 0.9315(71) 0.778(11)
N10_6 N 0.4773(32) 0.943(5) 0.638(11)
C28_5 C 0.5180(39) 0.9432(68) 0.507(12)
C29_6 C 0.4622(36) 0.9723(64) 0.823(13)
C30_6 C 0.4202(41) 0.9152(55) 0.821(12)
C31_5 C 0.5392(37) 0.9690(61) 0.57(1)
C32_6 C 0.5231(34) 0.9404(59) 0.410(12)
C33_6 C 0.4535(36) 0.9859(59) 0.914(13)
C34_6 C 0.4119(37) 0.9341(66) 0.908(13)
C35_5 C 0.5666(39) 0.9863(56) 0.528(11)
C36_6 C 0.5513(41) 0.9551(55) 0.37(1)
N12_4 N 0.5739(26) 0.9709(46) 0.44(1)
Zn5_4 Zn 0.61444(46) 0.9808(8) 0.3616(14)
N14_4 N 0.0739(26) 0.5291(46) 0.56(1)
H1_6 H 0.0938177 0.612387 0.587441
H2_5 H 0.40629 0.832486 0.243368
H3_5 H 0.350229 0.802254 0.488357
H4_5 H 0.240163 0.853809 0.381227
H5_6 H 0.10517 0.82679 0.509967
H6_5 H 0.297914 0.861688 0.355119
H7_5 H 0.440805 0.883915 0.343475
H8_6 H 0.201885 0.639285 0.51572
H9_6 H 0.159735 0.98678 0.539052
H10_5 H 0.30764 0.703268 0.369768
H11_6 H 0.396045 0.827575 0.597687
H12_6 H 0.109937 0.699883 0.5498
H13_5 H 0.25767 0.695478 0.457706
H14_6 H 0.0816145 0.902233 0.585647
H15_5 H 0.187352 0.908922 0.485918
H16_6 H 0.177691 0.55387 0.50055
H17_5 H 0.534233 0.974848 0.646722
H18_6 H 0.405818 0.887026 0.784855
H19_6 H 0.480618 0.99244 0.785787
H20_6 H 0.555758 0.954608 0.29217
H22_6 H 0.504987 0.926501 0.362395
H23_6 H 0.389105 0.925954 0.936357
C28_6 C 0.0180(39) 0.5568(68) 0.493(12)
C31_6 C 0.0392(37) 0.5310(61) 0.43(1)
C32_7 C 0.0231(34) 0.5596(59) 0.590(12)
C35_6 C 0.0666(39) 0.5137(56) 0.472(11)
C36_7 C 0.0513(41) 0.5449(55) 0.63(1)
H17_6 H 0.0342326 0.525152 0.353278
H20_7 H 0.0557576 0.545392 0.70783
H21_6 H 0.0816303 0.487872 0.432322
H22_7 H 0.00498678 0.573499 0.637605
C1_6 C 0.7135(37) 0.7261(82) 0.521(12)
C2_6 C 0.7463(38) 0.7218(79) 0.564(12)
N1_6 N 0.6978(35) 0.6821(57) 0.51(1)
N2_6 N 0.7015(32) 0.7734(54) 0.508(9)
C3_6 C 0.7558(41) 0.6780(61) 0.607(11)
C4_6 C 0.7652(44) 0.7681(57) 0.572(11)
C5_7 C 0.6674(43) 0.6869(73) 0.489(12)
C6_7 C 0.6703(47) 0.7736(66) 0.495(12)
C7_6 C 0.7870(42) 0.6754(57) 0.636(11)
C8_6 C 0.7935(41) 0.7629(63) 0.620(12)
C9_7 C 0.6490(42) 0.6385(69) 0.486(13)
N3_7 N 0.6516(27) 0.7320(59) 0.4901(95)
C10_7 C 0.6572(45) 0.8238(67) 0.477(12)
N4_6 N 0.8036(29) 0.719(6) 0.653(9)
C11_7 C 0.6186(41) 0.6392(65) 0.474(11)
C12_7 C 0.6636(38) 0.5933(68) 0.490(12)
C13_7 C 0.6772(37) 0.8661(76) 0.478(12)
C14_7 C 0.6263(38) 0.8315(65) 0.452(12)
Zn1_6 Zn 0.84704(47) 0.73567(74) 0.7197(15)
C15_7 C 0.6051(37) 0.5958(66) 0.441(12)
C16_7 C 0.6479(42) 0.5498(64) 0.463(12)
C17_7 C 0.6651(36) 0.9135(59) 0.471(12)
C18_7 C 0.6178(35) 0.8805(74) 0.43(1)
Br1_6 Br 0.83433(38) 0.69891(65) 0.8860(11)
Br2_6 Br 0.86200(39) 0.82002(61) 0.7203(12)
N5_6 N 0.874(3) 0.6818(42) 0.65(1)
N6_7 N 0.6190(32) 0.5524(54) 0.44(1)
N7_7 N 0.6373(37) 0.9205(44) 0.4286(91)
C19_6 C 0.9006(44) 0.6625(61) 0.6802(97)
C20_6 C 0.8712(37) 0.6829(56) 0.544(14)
Zn2_3 Zn 0.59164(48) 0.48765(79) 0.4034(14)
C21_6 C 0.9218(39) 0.6365(62) 0.623(14)
C22_7 C 0.8958(46) 0.6646(69) 0.48(1)
Br3_6 Br 0.6236(4) 0.42591(65) 0.3452(12)
Br4_7 Br 0.54951(39) 0.52359(63) 0.3294(12)
Br6_7 Br 0.60902(38) 0.9506(6) 0.2014(12)
C23_6 C 0.9185(42) 0.6369(68) 0.525(13)
C24_7 C 0.9434(43) 0.6203(74) 0.462(15)
N8_7 N 0.9382(31) 0.6143(57) 0.368(12)
N9_6 N 0.9675(39) 0.5978(52) 0.5097(94)
C25_7 C 0.956(5) 0.584(7) 0.323(12)
C26_7 C 0.9860(39) 0.5719(73) 0.452(15)
C27_7 C 0.9468(48) 0.5685(71) 0.222(11)
N10_7 N 0.9773(32) 0.557(5) 0.362(11)
C29_7 C 0.9622(36) 0.5277(64) 0.177(13)
C30_7 C 0.9202(41) 0.5848(55) 0.179(12)
C33_7 C 0.9535(36) 0.5141(59) 0.086(13)
C34_7 C 0.9119(37) 0.5659(66) 0.092(13)
N11_4 N 0.9316(34) 0.5367(53) 0.0388(85)
N13_4 N 0.5684(34) 0.4633(53) 0.5388(85)
H1_7 H 0.593818 0.887613 0.412559
H2_6 H 0.90629 0.667514 0.756632
H3_6 H 0.850229 0.697746 0.511643
H4_6 H 0.740163 0.646191 0.618773
H5_7 H 0.60517 0.67321 0.490033
H6_6 H 0.797914 0.638312 0.644881
H7_6 H 0.940805 0.616085 0.656525
H8_7 H 0.701885 0.860715 0.48428
H9_7 H 0.659735 0.51322 0.460948
H10_6 H 0.80764 0.796732 0.630232
H11_7 H 0.896045 0.672425 0.402313
H12_7 H 0.609937 0.800117 0.4502
H13_6 H 0.75767 0.804522 0.542294
H14_7 H 0.581615 0.597767 0.414353
H15_6 H 0.687352 0.591078 0.514082
H16_7 H 0.677691 0.94613 0.49945
H18_7 H 0.905818 0.612974 0.215145
H19_7 H 0.980618 0.50756 0.214213
H23_7 H 0.889105 0.574046 0.0636432
H24_6 H 0.965481 0.48267 0.0508112
Zn4_4 Zn 0.90836(48) 0.51235(79) 0.9034(14)
C1_7 C 0.7865(37) 0.2739(82) 0.021(12)
C2_7 C 0.7537(38) 0.2782(79) 0.064(12)
N1_7 N 0.8022(35) 0.3179(57) 0.01(1)
N2_7 N 0.7985(32) 0.2266(54) 0.008(9)
C3_7 C 0.7442(41) 0.3220(61) 0.107(11)
C4_7 C 0.7348(44) 0.2319(57) 0.072(11)
C7_7 C 0.7130(42) 0.3246(57) 0.136(11)
C8_7 C 0.7065(41) 0.2371(63) 0.120(12)
N4_7 N 0.6964(29) 0.281(6) 0.153(9)
Zn1_7 Zn 0.65296(47) 0.26433(74) 0.2197(15)
Br1_7 Br 0.66567(38) 0.30109(65) 0.3860(11)
Br2_7 Br 0.63800(39) 0.17998(61) 0.2203(12)
N5_7 N 0.626(3) 0.3182(42) 0.15(1)
C19_7 C 0.5994(44) 0.3375(61) 0.1802(97)
C20_7 C 0.6288(37) 0.3171(56) 0.044(14)
C21_7 C 0.5782(39) 0.3635(62) 0.123(14)
C23_7 C 0.5815(42) 0.3631(68) 0.025(13)
N9_7 N 0.5325(39) 0.4022(52) 0.0097(94)
C32_8 C 0.4769(34) 0.4404(59) 0.090(12)
C36_8 C 0.4487(41) 0.4551(55) 0.13(1)
H2_7 H 0.59371 0.332486 0.256632
H3_7 H 0.649771 0.302254 0.0116429
H4_7 H 0.759837 0.353809 0.118773
H6_7 H 0.702086 0.361688 0.144881
H7_7 H 0.559195 0.383915 0.156525
H10_7 H 0.69236 0.203268 0.130232
H13_7 H 0.74233 0.195478 0.0422937
H15_7 H 0.812648 0.408922 0.0140816
H20_8 H 0.444242 0.454608 0.20783
H22_8 H 0.495013 0.426501 0.137605
C5_8 C 0.8326(43) 0.3131(73) 0.989(12)
C6_8 C 0.8297(47) 0.2264(66) 0.995(12)
C9_8 C 0.8510(42) 0.3615(69) 0.986(13)
N3_8 N 0.8484(27) 0.2680(59) 0.9901(95)
C10_8 C 0.8428(45) 0.1762(67) 0.977(12)
C11_8 C 0.8814(41) 0.3608(65) 0.974(11)
C12_8 C 0.8364(38) 0.4067(68) 0.990(12)
C13_8 C 0.8228(37) 0.1339(76) 0.978(12)
C14_8 C 0.8737(38) 0.1685(65) 0.952(12)
C15_8 C 0.8949(37) 0.4042(66) 0.941(12)
C16_8 C 0.8521(42) 0.4502(64) 0.963(12)
C17_8 C 0.8349(36) 0.0865(59) 0.971(12)
C18_8 C 0.8822(35) 0.1195(74) 0.93(1)
N6_8 N 0.8810(32) 0.4476(54) 0.94(1)
N7_8 N 0.8627(37) 0.0795(44) 0.9286(91)
C22_8 C 0.6042(46) 0.3354(69) 0.98(1)
Br3_7 Br 0.8764(4) 0.57409(65) 0.8452(12)
Br4_8 Br 0.95049(39) 0.47641(63) 0.8294(12)
Br6_8 Br 0.89098(38) 0.0494(6) 0.7014(12)
C24_8 C 0.5566(43) 0.3797(74) 0.962(15)
N8_8 N 0.5618(31) 0.3857(57) 0.868(12)
C25_8 C 0.544(5) 0.416(7) 0.823(12)
C26_8 C 0.5140(39) 0.4281(73) 0.952(15)
C27_8 C 0.5532(48) 0.4315(71) 0.722(11)
N10_8 N 0.5227(32) 0.443(5) 0.862(11)
C28_7 C 0.4820(39) 0.4432(68) 0.993(12)
C29_8 C 0.5378(36) 0.4723(64) 0.677(13)
C30_8 C 0.5798(41) 0.4152(55) 0.679(12)
C31_7 C 0.4608(37) 0.4690(61) 0.93(1)
C33_8 C 0.5465(36) 0.4859(59) 0.586(13)
C34_8 C 0.5881(37) 0.4341(66) 0.592(13)
C35_7 C 0.4334(39) 0.4863(56) 0.972(11)
H1_8 H 0.906182 0.112387 0.912559
H5_8 H 0.89483 0.32679 0.990033
H8_8 H 0.798115 0.139285 0.98428
H9_8 H 0.840265 0.48678 0.960948
H11_8 H 0.603955 0.327575 0.902313
H12_8 H 0.890063 0.199883 0.9502
H14_8 H 0.918385 0.402233 0.914353
H16_8 H 0.822309 0.0538698 0.99945
H17_7 H 0.465767 0.474848 0.853278
H18_8 H 0.594182 0.387026 0.715145
H19_8 H 0.519382 0.49244 0.714213
H21_7 H 0.41837 0.512128 0.932322
H23_8 H 0.610895 0.425954 0.563643
H24_7 H 0.534519 0.51733 0.550811
C1_8 C 0.2865(37) 0.2261(82) 0.979(12)
C2_8 C 0.2537(38) 0.2218(79) 0.936(12)
N1_8 N 0.3022(35) 0.1821(57) 0.99(1)
N2_8 N 0.2985(32) 0.2734(54) 0.992(9)
C3_8 C 0.2442(41) 0.1780(61) 0.893(11)
C4_8 C 0.2348(44) 0.2681(57) 0.928(11)
C7_8 C 0.2130(42) 0.1754(57) 0.864(11)
C8_8 C 0.2065(41) 0.2629(63) 0.880(12)
N4_8 N 0.1964(29) 0.219(6) 0.847(9)
Zn1_8 Zn 0.15296(47) 0.23567(74) 0.7803(15)
Br1_8 Br 0.16567(38) 0.19891(65) 0.6140(11)
Br2_8 Br 0.13800(39) 0.32002(61) 0.7797(12)
N5_8 N 0.126(3) 0.1818(42) 0.85(1)
C19_8 C 0.0994(44) 0.1625(61) 0.8198(97)
C20_8 C 0.1288(37) 0.1829(56) 0.956(14)
C21_8 C 0.0782(39) 0.1365(62) 0.877(14)
C23_8 C 0.0815(42) 0.1369(68) 0.975(13)
N9_8 N 0.0325(39) 0.0978(52) 0.9903(94)
H2_8 H 0.0937101 0.167514 0.743368
H3_8 H 0.149771 0.197746 0.988357
H4_8 H 0.259837 0.146191 0.881227
H6_8 H 0.202086 0.138312 0.855119
H7_8 H 0.0591949 0.116085 0.843475
H10_8 H 0.19236 0.296732 0.869768
H13_8 H 0.24233 0.304522 0.957706
H15_8 H 0.312648 0.0910782 0.985918
Zn2_4 Zn 0.40836(48) 0.98765(79) 0.0966(14)
Br3_8 Br 0.3764(4) 0.92591(65) 0.1548(12)
H24_8 H 0.0345188 0.98267 0.449189
C28_8 C 0.9820(39) 0.0568(68) 0.007(12)
C31_8 C 0.9608(37) 0.0310(61) 0.07(1)
C35_8 C 0.9334(39) 0.0137(56) 0.028(11)
H17_8 H 0.965767 0.0251523 0.146722
H21_8 H 0.91837 0.987872 0.0676776
Br5_7 Br 0.64080(41) 0.04526(63) 0.4285(12)
Br5_8 Br 0.85920(41) 0.95474(63) 0.9285(12)
loop_
_geom_bond_atom_site_label_1
_geom_bond_atom_site_label_2
_geom_bond_site_symmetry_1
_geom_bond_site_symmetry_2
C36 C32 1_555 1_555
Zn5 N12 1_555 1_555
C36 N12 1_555 1_555
C36 H20 1_555 1_555
C32 H22 1_555 1_555
C9 C5 1_555 1_555
N3 C5 1_555 1_555
C10 C6 1_555 1_555
C11 C9 1_555 1_555
C12 C9 1_555 1_555
C13 C10 1_555 1_555
C14 C10 1_555 1_555
C15 C11 1_555 1_555
C16 C12 1_555 1_555
C17 C13 1_555 1_555
C18 C14 1_555 1_555
N6 C15 1_555 1_555
N7 C17 1_555 1_555
Zn3 N7 1_555 1_555
Br5 Zn3 1_555 1_555
Br6 Zn3 1_555 1_555
N8 C24 1_555 1_555
C25 N8 1_555 1_555
C27 C25 1_555 1_555
N10 C25 1_555 1_555
C29 C27 1_555 1_555
C30 C27 1_555 1_555
C33 C29 1_555 1_555
C34 C30 1_555 1_555
N11 C33 1_555 1_555
Zn4 N11 1_555 1_555
N14 Zn3 1_555 1_555
C6 N3 1_555 1_555
C16 N6 1_555 1_555
C18 N7 1_555 1_555
C26 N10 1_555 1_555
C34 N11 1_555 1_555
C18 H1 1_555 1_555
C11 H5 1_555 1_555
C13 H8 1_555 1_555
C16 H9 1_555 1_555
C22 H11 1_555 1_555
C14 H12 1_555 1_555
C15 H14 1_555 1_555
C17 H16 1_555 1_555
C30 H18 1_555 1_555
C29 H19 1_555 1_555
C34 H23 1_555 1_555
C1 C2 1_555 1_555
C2 C3 1_555 1_555
N1 C1 1_555 1_555
N2 C1 1_555 1_555
C3 C7 1_555 1_555
C4 C2 1_555 1_555
C5_2 N1 1_555 1_555
C6_2 N2 1_555 1_555
C7 N4 1_555 1_555
C8 C4 1_555 1_555
C9_2 C5_2 1_555 1_555
N3_2 C5_2 1_555 1_555
C10_2 C6_2 1_555 1_555
N4 C8 1_555 1_555
C11_2 C9_2 1_555 1_555
C12_2 C9_2 1_555 1_555
C13_2 C10_2 1_555 1_555
C14_2 C10_2 1_555 1_555
Zn1 N4 1_555 1_555
C15_2 C11_2 1_555 1_555
C16_2 C12_2 1_555 1_555
C17_2 C13_2 1_555 1_555
C18_2 C14_2 1_555 1_555
Br1 Zn1 1_555 1_555
Br2 Zn1 1_555 1_555
N5 Zn1 1_555 1_555
N6_2 C15_2 1_555 1_555
N7_2 C17_2 1_555 1_555
C19 N5 1_555 1_555
C20 N5 1_555 1_555
Zn3_2 N7_2 1_555 1_555
C21 C19 1_555 1_555
C22_2 C20 1_555 1_555
Br5_2 Zn3_2 1_555 1_555
Br6_2 Zn3_2 1_555 1_555
C23 C21 1_555 1_555
C24_2 C23 1_555 1_555
N8_2 C24_2 1_555 1_555
N9 C24_2 1_555 1_555
C25_2 N8_2 1_555 1_555
C26_2 N9 1_555 1_555
C27_2 C25_2 1_555 1_555
N10_2 C25_2 1_555 1_555
C28 C26_2 1_555 1_555
C29_2 C27_2 1_555 1_555
C30_2 C27_2 1_555 1_555
C31 C28 1_555 1_555
C32_2 C28 1_555 1_555
C33_2 C29_2 1_555 1_555
C34_2 C30_2 1_555 1_555
C35 C31 1_555 1_555
C36_2 C32_2 1_555 1_555
N13 C33_2 1_555 1_555
N12_2 C35 1_555 1_555
Zn5_2 N12_2 1_555 1_555
N14_2 Zn3_2 1_555 1_555
C6_2 N3_2 1_555 1_555
C16_2 N6_2 1_555 1_555
C18_2 N7_2 1_555 1_555
C22_2 C23 1_555 1_555
C26_2 N10_2 1_555 1_555
C34_2 N13 1_555 1_555
C36_2 N12_2 1_555 1_555
C18_2 H1_2 1_555 1_555
C19 H2 1_555 1_555
C20 H3 1_555 1_555
C3 H4 1_555 1_555
C11_2 H5_2 1_555 1_555
C7 H6 1_555 1_555
C21 H7 1_555 1_555
C13_2 H8_2 1_555 1_555
C16_2 H9_2 1_555 1_555
C8 H10 1_555 1_555
C22_2 H11_2 1_555 1_555
C14_2 H12_2 1_555 1_555
C4 H13 1_555 1_555
C15_2 H14_2 1_555 1_555
C12_2 H15 1_555 1_555
C17_2 H16_2 1_555 1_555
C31 H17 1_555 1_555
C30_2 H18_2 1_555 1_555
C29_2 H19_2 1_555 1_555
C36_2 H20_2 1_555 1_555
C32_2 H22_2 1_555 1_555
C34_2 H23_2 1_555 1_555
Br3 Zn4 1_555 1_555
C1_2 C2_2 1_555 1_555
C2_2 C3_2 1_555 1_555
N1_2 C1_2 1_555 1_555
N2_2 C1_2 1_555 1_555
C3_2 C7_2 1_555 1_555
C4_2 C2_2 1_555 1_555
C5_3 N1_2 1_555 1_555
C6_3 N2_2 1_555 1_555
C7_2 N4_2 1_555 1_555
C8_2 C4_2 1_555 1_555
C9_3 C5_3 1_555 1_555
N3_3 C5_3 1_555 1_555
C10_3 C6_3 1_555 1_555
N4_2 C8_2 1_555 1_555
C11_3 C9_3 1_555 1_555
C12_3 C9_3 1_555 1_555
C13_3 C10_3 1_555 1_555
C14_3 C10_3 1_555 1_555
Zn1_2 N4_2 1_555 1_555
C15_3 C11_3 1_555 1_555
C16_3 C12_3 1_555 1_555
C17_3 C13_3 1_555 1_555
C18_3 C14_3 1_555 1_555
Br1_2 Zn1_2 1_555 1_555
Br2_2 Zn1_2 1_555 1_555
N5_2 Zn1_2 1_555 1_555
N6_3 C15_3 1_555 1_555
N7_3 C17_3 1_555 1_555
C19_2 N5_2 1_555 1_555
C20_2 N5_2 1_555 1_555
Zn2 N6_3 1_555 1_555
Zn5_2 N7_3 1_555 1_555
C21_2 C19_2 1_555 1_555
C22_3 C20_2 1_555 1_555
Br3_2 Zn2 1_555 1_555
Br4_3 Zn2 1_555 1_555
Br6_3 Zn5_2 1_555 1_555
C23_2 C21_2 1_555 1_555
C24_3 C23_2 1_555 1_555
N8_3 C24_3 1_555 1_555
N9_2 C24_3 1_555 1_555
C25_3 N8_3 1_555 1_555
C26_3 N9_2 1_555 1_555
C27_3 C25_3 1_555 1_555
N10_3 C25_3 1_555 1_555
C29_3 C27_3 1_555 1_555
C30_3 C27_3 1_555 1_555
C33_3 C29_3 1_555 1_555
C34_3 C30_3 1_555 1_555
N11_2 C33_3 1_555 1_555
N13_2 Zn2 1_555 1_555
C6_3 N3_3 1_555 1_555
C16_3 N6_3 1_555 1_555
C18_3 N7_3 1_555 1_555
C22_3 C23_2 1_555 1_555
C26_3 N10_3 1_555 1_555
C34_3 N11_2 1_555 1_555
C18_3 H1_3 1_555 1_555
C19_2 H2_2 1_555 1_555
C20_2 H3_2 1_555 1_555
C3_2 H4_2 1_555 1_555
C11_3 H5_3 1_555 1_555
C7_2 H6_2 1_555 1_555
C21_2 H7_2 1_555 1_555
C13_3 H8_3 1_555 1_555
C16_3 H9_3 1_555 1_555
C8_2 H10_2 1_555 1_555
C22_3 H11_3 1_555 1_555
C14_3 H12_3 1_555 1_555
C4_2 H13_2 1_555 1_555
C15_3 H14_3 1_555 1_555
C12_3 H15_2 1_555 1_555
C17_3 H16_3 1_555 1_555
C30_3 H18_3 1_555 1_555
C29_3 H19_3 1_555 1_555
C34_3 H23_3 1_555 1_555
C33_3 H24_2 1_555 1_555
C31_2 C28_2 1_555 1_555
C32_3 C28_2 1_555 1_555
C35_2 C31_2 1_555 1_555
C36_3 C32_3 1_555 1_555
N14_2 C35_2 1_555 1_555
C36_3 N14_2 1_555 1_555
C31_2 H17_2 1_555 1_555
C36_3 H20_3 1_555 1_555
C35_2 H21_3 1_555 1_555
C32_3 H22_3 1_555 1_555
C9_4 C5_4 1_555 1_555
N3_4 C5_4 1_555 1_555
C10_4 C6_4 1_555 1_555
C11_4 C9_4 1_555 1_555
C12_4 C9_4 1_555 1_555
C13_4 C10_4 1_555 1_555
C14_4 C10_4 1_555 1_555
C15_4 C11_4 1_555 1_555
C16_4 C12_4 1_555 1_555
C17_4 C13_4 1_555 1_555
C18_4 C14_4 1_555 1_555
N6_4 C15_4 1_555 1_555
N7_4 C17_4 1_555 1_555
Zn4_2 N6_4 1_555 1_555
Zn5 N7_4 1_555 1_555
Br3_3 Zn4_2 1_555 1_555
Br4_4 Zn4_2 1_555 1_555
Br6_4 Zn5 1_555 1_555
N8_4 C24_4 1_555 1_555
C25_4 N8_4 1_555 1_555
C27_4 C25_4 1_555 1_555
N10_4 C25_4 1_555 1_555
C28_3 C26_4 1_555 1_555
C29_4 C27_4 1_555 1_555
C30_4 C27_4 1_555 1_555
C31_3 C28_3 1_555 1_555
C33_4 C29_4 1_555 1_555
C34_4 C30_4 1_555 1_555
C35_3 C31_3 1_555 1_555
N13_2 C33_4 1_555 1_555
C6_4 N3_4 1_555 1_555
C16_4 N6_4 1_555 1_555
C18_4 N7_4 1_555 1_555
C26_4 N10_4 1_555 1_555
C34_4 N13_2 1_555 1_555
C18_4 H1_4 1_555 1_555
C11_4 H5_4 1_555 1_555
C13_4 H8_4 1_555 1_555
C16_4 H9_4 1_555 1_555
C22_4 H11_4 1_555 1_555
C14_4 H12_4 1_555 1_555
C15_4 H14_4 1_555 1_555
C17_4 H16_4 1_555 1_555
C31_3 H17_3 1_555 1_555
C30_4 H18_4 1_555 1_555
C29_4 H19_4 1_555 1_555
C35_3 H21_4 1_555 1_555
C34_4 H23_4 1_555 1_555
C33_4 H24_3 1_555 1_555
C1_3 C2_3 1_555 1_555
C2_3 C3_3 1_555 1_555
N1_3 C1_3 1_555 1_555
N2_3 C1_3 1_555 1_555
C3_3 C7_3 1_555 1_555
C4_3 C2_3 1_555 1_555
C7_3 N4_3 1_555 1_555
C8_3 C4_3 1_555 1_555
N4_3 C8_3 1_555 1_555
Zn1_3 N4_3 1_555 1_555
Br1_3 Zn1_3 1_555 1_555
Br2_3 Zn1_3 1_555 1_555
N5_3 Zn1_3 1_555 1_555
C19_3 N5_3 1_555 1_555
C20_3 N5_3 1_555 1_555
C21_3 C19_3 1_555 1_555
C23_3 C21_3 1_555 1_555
C36_4 C32_4 1_555 1_555
C36_4 N14 1_555 1_555
C19_3 H2_3 1_555 1_555
C20_3 H3_3 1_555 1_555
C3_3 H4_3 1_555 1_555
C7_3 H6_3 1_555 1_555
C21_3 H7_3 1_555 1_555
C8_3 H10_3 1_555 1_555
C4_3 H13_3 1_555 1_555
C36_4 H20_4 1_555 1_555
C32_4 H22_4 1_555 1_555
C31_4 C28_4 1_555 1_555
C35_4 C31_4 1_555 1_555
C31_4 H17_4 1_555 1_555
Br3_4 Zn2_2 1_555 1_555
C1_4 C2_4 1_555 1_555
C2_4 C3_4 1_555 1_555
N1_4 C1_4 1_555 1_555
N2_4 C1_4 1_555 1_555
C3_4 C7_4 1_555 1_555
C4_4 C2_4 1_555 1_555
C7_4 N4_4 1_555 1_555
C8_4 C4_4 1_555 1_555
N4_4 C8_4 1_555 1_555
Zn1_4 N4_4 1_555 1_555
Br1_4 Zn1_4 1_555 1_555
Br2_4 Zn1_4 1_555 1_555
N5_4 Zn1_4 1_555 1_555
C19_4 N5_4 1_555 1_555
C20_4 N5_4 1_555 1_555
C21_4 C19_4 1_555 1_555
C23_4 C21_4 1_555 1_555
C19_4 H2_4 1_555 1_555
C20_4 H3_4 1_555 1_555
C3_4 H4_4 1_555 1_555
C7_4 H6_4 1_555 1_555
C21_4 H7_4 1_555 1_555
C8_4 H10_4 1_555 1_555
C4_4 H13_4 1_555 1_555
C9_5 C5_5 1_555 1_555
N3_5 C5_5 1_555 1_555
C10_5 C6_5 1_555 1_555
C11_5 C9_5 1_555 1_555
C12_5 C9_5 1_555 1_555
C13_5 C10_5 1_555 1_555
C14_5 C10_5 1_555 1_555
C15_5 C11_5 1_555 1_555
C16_5 C12_5 1_555 1_555
C17_5 C13_5 1_555 1_555
C18_5 C14_5 1_555 1_555
N6_5 C15_5 1_555 1_555
N7_5 C17_5 1_555 1_555
Zn3_3 N7_5 1_555 1_555
Br5_5 Zn3_3 1_555 1_555
Br6_5 Zn3_3 1_555 1_555
N8_5 C24_5 1_555 1_555
C25_5 N8_5 1_555 1_555
C27_5 C25_5 1_555 1_555
N10_5 C25_5 1_555 1_555
C29_5 C27_5 1_555 1_555
C30_5 C27_5 1_555 1_555
C33_5 C29_5 1_555 1_555
C34_5 C30_5 1_555 1_555
N11_3 C33_5 1_555 1_555
Zn4_3 N11_3 1_555 1_555
N14_3 Zn3_3 1_555 1_555
C6_5 N3_5 1_555 1_555
C16_5 N6_5 1_555 1_555
C18_5 N7_5 1_555 1_555
C26_5 N10_5 1_555 1_555
C34_5 N11_3 1_555 1_555
C18_5 H1_5 1_555 1_555
C11_5 H5_5 1_555 1_555
C13_5 H8_5 1_555 1_555
C16_5 H9_5 1_555 1_555
C22_5 H11_5 1_555 1_555
C14_5 H12_5 1_555 1_555
C15_5 H14_5 1_555 1_555
C17_5 H16_5 1_555 1_555
C30_5 H18_5 1_555 1_555
C29_5 H19_5 1_555 1_555
C34_5 H23_5 1_555 1_555
C36_5 C32_5 1_555 1_555
Zn5_3 N12_3 1_555 1_555
C36_5 N12_3 1_555 1_555
C36_5 H20_5 1_555 1_555
C32_5 H22_5 1_555 1_555
Br3_5 Zn4_3 1_555 1_555
C1_5 C2_5 1_555 1_555
C2_5 C3_5 1_555 1_555
N1_5 C1_5 1_555 1_555
N2_5 C1_5 1_555 1_555
C3_5 C7_5 1_555 1_555
C4_5 C2_5 1_555 1_555
C5_6 N1_5 1_555 1_555
C6_6 N2_5 1_555 1_555
C7_5 N4_5 1_555 1_555
C8_5 C4_5 1_555 1_555
C9_6 C5_6 1_555 1_555
N3_6 C5_6 1_555 1_555
C10_6 C6_6 1_555 1_555
N4_5 C8_5 1_555 1_555
C11_6 C9_6 1_555 1_555
C12_6 C9_6 1_555 1_555
C13_6 C10_6 1_555 1_555
C14_6 C10_6 1_555 1_555
Zn1_5 N4_5 1_555 1_555
C15_6 C11_6 1_555 1_555
C16_6 C12_6 1_555 1_555
C17_6 C13_6 1_555 1_555
C18_6 C14_6 1_555 1_555
Br1_5 Zn1_5 1_555 1_555
Br2_5 Zn1_5 1_555 1_555
N5_5 Zn1_5 1_555 1_555
N6_6 C15_6 1_555 1_555
N7_6 C17_6 1_555 1_555
C19_5 N5_5 1_555 1_555
C20_5 N5_5 1_555 1_555
Zn3_4 N7_6 1_555 1_555
C21_5 C19_5 1_555 1_555
C22_6 C20_5 1_555 1_555
Br5_6 Zn3_4 1_555 1_555
Br6_6 Zn3_4 1_555 1_555
C23_5 C21_5 1_555 1_555
C24_6 C23_5 1_555 1_555
N8_6 C24_6 1_555 1_555
N9_5 C24_6 1_555 1_555
C25_6 N8_6 1_555 1_555
C26_6 N9_5 1_555 1_555
C27_6 C25_6 1_555 1_555
N10_6 C25_6 1_555 1_555
C28_5 C26_6 1_555 1_555
C29_6 C27_6 1_555 1_555
C30_6 C27_6 1_555 1_555
C31_5 C28_5 1_555 1_555
C32_6 C28_5 1_555 1_555
C33_6 C29_6 1_555 1_555
C34_6 C30_6 1_555 1_555
C35_5 C31_5 1_555 1_555
C36_6 C32_6 1_555 1_555
N13_3 C33_6 1_555 1_555
N12_4 C35_5 1_555 1_555
Zn5_4 N12_4 1_555 1_555
N14_4 Zn3_4 1_555 1_555
C6_6 N3_6 1_555 1_555
C16_6 N6_6 1_555 1_555
C18_6 N7_6 1_555 1_555
C22_6 C23_5 1_555 1_555
C26_6 N10_6 1_555 1_555
C34_6 N13_3 1_555 1_555
C36_6 N12_4 1_555 1_555
C18_6 H1_6 1_555 1_555
C19_5 H2_5 1_555 1_555
C20_5 H3_5 1_555 1_555
C3_5 H4_5 1_555 1_555
C11_6 H5_6 1_555 1_555
C7_5 H6_5 1_555 1_555
C21_5 H7_5 1_555 1_555
C13_6 H8_6 1_555 1_555
C16_6 H9_6 1_555 1_555
C8_5 H10_5 1_555 1_555
C22_6 H11_6 1_555 1_555
C14_6 H12_6 1_555 1_555
C4_5 H13_5 1_555 1_555
C15_6 H14_6 1_555 1_555
C12_6 H15_5 1_555 1_555
C17_6 H16_6 1_555 1_555
C31_5 H17_5 1_555 1_555
C30_6 H18_6 1_555 1_555
C29_6 H19_6 1_555 1_555
C36_6 H20_6 1_555 1_555
C32_6 H22_6 1_555 1_555
C34_6 H23_6 1_555 1_555
C31_6 C28_6 1_555 1_555
C32_7 C28_6 1_555 1_555
C35_6 C31_6 1_555 1_555
C36_7 C32_7 1_555 1_555
N14_4 C35_6 1_555 1_555
C36_7 N14_4 1_555 1_555
C31_6 H17_6 1_555 1_555
C36_7 H20_7 1_555 1_555
C35_6 H21_6 1_555 1_555
C32_7 H22_7 1_555 1_555
C1_6 C2_6 1_555 1_555
C2_6 C3_6 1_555 1_555
N1_6 C1_6 1_555 1_555
N2_6 C1_6 1_555 1_555
C3_6 C7_6 1_555 1_555
C4_6 C2_6 1_555 1_555
C5_7 N1_6 1_555 1_555
C6_7 N2_6 1_555 1_555
C7_6 N4_6 1_555 1_555
C8_6 C4_6 1_555 1_555
C9_7 C5_7 1_555 1_555
N3_7 C5_7 1_555 1_555
C10_7 C6_7 1_555 1_555
N4_6 C8_6 1_555 1_555
C11_7 C9_7 1_555 1_555
C12_7 C9_7 1_555 1_555
C13_7 C10_7 1_555 1_555
C14_7 C10_7 1_555 1_555
Zn1_6 N4_6 1_555 1_555
C15_7 C11_7 1_555 1_555
C16_7 C12_7 1_555 1_555
C17_7 C13_7 1_555 1_555
C18_7 C14_7 1_555 1_555
Br1_6 Zn1_6 1_555 1_555
Br2_6 Zn1_6 1_555 1_555
N5_6 Zn1_6 1_555 1_555
N6_7 C15_7 1_555 1_555
N7_7 C17_7 1_555 1_555
C19_6 N5_6 1_555 1_555
C20_6 N5_6 1_555 1_555
Zn2_3 N6_7 1_555 1_555
Zn5_4 N7_7 1_555 1_555
C21_6 C19_6 1_555 1_555
C22_7 C20_6 1_555 1_555
Br3_6 Zn2_3 1_555 1_555
Br4_7 Zn2_3 1_555 1_555
Br6_7 Zn5_4 1_555 1_555
C23_6 C21_6 1_555 1_555
C24_7 C23_6 1_555 1_555
N8_7 C24_7 1_555 1_555
N9_6 C24_7 1_555 1_555
C25_7 N8_7 1_555 1_555
C26_7 N9_6 1_555 1_555
C27_7 C25_7 1_555 1_555
N10_7 C25_7 1_555 1_555
C29_7 C27_7 1_555 1_555
C30_7 C27_7 1_555 1_555
C33_7 C29_7 1_555 1_555
C34_7 C30_7 1_555 1_555
N11_4 C33_7 1_555 1_555
N13_4 Zn2_3 1_555 1_555
C6_7 N3_7 1_555 1_555
C16_7 N6_7 1_555 1_555
C18_7 N7_7 1_555 1_555
C22_7 C23_6 1_555 1_555
C26_7 N10_7 1_555 1_555
C34_7 N11_4 1_555 1_555
C18_7 H1_7 1_555 1_555
C19_6 H2_6 1_555 1_555
C20_6 H3_6 1_555 1_555
C3_6 H4_6 1_555 1_555
C11_7 H5_7 1_555 1_555
C7_6 H6_6 1_555 1_555
C21_6 H7_6 1_555 1_555
C13_7 H8_7 1_555 1_555
C16_7 H9_7 1_555 1_555
C8_6 H10_6 1_555 1_555
C22_7 H11_7 1_555 1_555
C14_7 H12_7 1_555 1_555
C4_6 H13_6 1_555 1_555
C15_7 H14_7 1_555 1_555
C12_7 H15_6 1_555 1_555
C17_7 H16_7 1_555 1_555
C30_7 H18_7 1_555 1_555
C29_7 H19_7 1_555 1_555
C34_7 H23_7 1_555 1_555
C33_7 H24_6 1_555 1_555
C1_7 C2_7 1_555 1_555
C2_7 C3_7 1_555 1_555
N1_7 C1_7 1_555 1_555
N2_7 C1_7 1_555 1_555
C3_7 C7_7 1_555 1_555
C4_7 C2_7 1_555 1_555
C7_7 N4_7 1_555 1_555
C8_7 C4_7 1_555 1_555
N4_7 C8_7 1_555 1_555
Zn1_7 N4_7 1_555 1_555
Br1_7 Zn1_7 1_555 1_555
Br2_7 Zn1_7 1_555 1_555
N5_7 Zn1_7 1_555 1_555
C19_7 N5_7 1_555 1_555
C20_7 N5_7 1_555 1_555
C21_7 C19_7 1_555 1_555
C23_7 C21_7 1_555 1_555
C36_8 C32_8 1_555 1_555
C36_8 N14_3 1_555 1_555
C19_7 H2_7 1_555 1_555
C20_7 H3_7 1_555 1_555
C3_7 H4_7 1_555 1_555
C7_7 H6_7 1_555 1_555
C21_7 H7_7 1_555 1_555
C8_7 H10_7 1_555 1_555
C4_7 H13_7 1_555 1_555
C36_8 H20_8 1_555 1_555
C32_8 H22_8 1_555 1_555
C9_8 C5_8 1_555 1_555
N3_8 C5_8 1_555 1_555
C10_8 C6_8 1_555 1_555
C11_8 C9_8 1_555 1_555
C12_8 C9_8 1_555 1_555
C13_8 C10_8 1_555 1_555
C14_8 C10_8 1_555 1_555
C15_8 C11_8 1_555 1_555
C16_8 C12_8 1_555 1_555
C17_8 C13_8 1_555 1_555
C18_8 C14_8 1_555 1_555
N6_8 C15_8 1_555 1_555
N7_8 C17_8 1_555 1_555
Zn4_4 N6_8 1_555 1_555
Zn5_3 N7_8 1_555 1_555
Br3_7 Zn4_4 1_555 1_555
Br4_8 Zn4_4 1_555 1_555
Br6_8 Zn5_3 1_555 1_555
N8_8 C24_8 1_555 1_555
C25_8 N8_8 1_555 1_555
C27_8 C25_8 1_555 1_555
N10_8 C25_8 1_555 1_555
C28_7 C26_8 1_555 1_555
C29_8 C27_8 1_555 1_555
C30_8 C27_8 1_555 1_555
C31_7 C28_7 1_555 1_555
C33_8 C29_8 1_555 1_555
C34_8 C30_8 1_555 1_555
C35_7 C31_7 1_555 1_555
N13_4 C33_8 1_555 1_555
C6_8 N3_8 1_555 1_555
C16_8 N6_8 1_555 1_555
C18_8 N7_8 1_555 1_555
C26_8 N10_8 1_555 1_555
C34_8 N13_4 1_555 1_555
C18_8 H1_8 1_555 1_555
C11_8 H5_8 1_555 1_555
C13_8 H8_8 1_555 1_555
C16_8 H9_8 1_555 1_555
C22_8 H11_8 1_555 1_555
C14_8 H12_8 1_555 1_555
C15_8 H14_8 1_555 1_555
C17_8 H16_8 1_555 1_555
C31_7 H17_7 1_555 1_555
C30_8 H18_8 1_555 1_555
C29_8 H19_8 1_555 1_555
C35_7 H21_7 1_555 1_555
C34_8 H23_8 1_555 1_555
C33_8 H24_7 1_555 1_555
C1_8 C2_8 1_555 1_555
C2_8 C3_8 1_555 1_555
N1_8 C1_8 1_555 1_555
N2_8 C1_8 1_555 1_555
C3_8 C7_8 1_555 1_555
C4_8 C2_8 1_555 1_555
C7_8 N4_8 1_555 1_555
C8_8 C4_8 1_555 1_555
N4_8 C8_8 1_555 1_555
Zn1_8 N4_8 1_555 1_555
Br1_8 Zn1_8 1_555 1_555
Br2_8 Zn1_8 1_555 1_555
N5_8 Zn1_8 1_555 1_555
C19_8 N5_8 1_555 1_555
C20_8 N5_8 1_555 1_555
C21_8 C19_8 1_555 1_555
C23_8 C21_8 1_555 1_555
C19_8 H2_8 1_555 1_555
C20_8 H3_8 1_555 1_555
C3_8 H4_8 1_555 1_555
C7_8 H6_8 1_555 1_555
C21_8 H7_8 1_555 1_555
C8_8 H10_8 1_555 1_555
C4_8 H13_8 1_555 1_555
Br3_8 Zn2_4 1_555 1_555
C31_8 C28_8 1_555 1_555
C35_8 C31_8 1_555 1_555
C31_8 H17_8 1_555 1_555

#END
