
###############################################################################
#
# This file contains modified crystal structure data generated from the
# MOF subset of the Cambridge Structural Database (CSD) v543 
# hosted by the Cambridge Crystallographic Data Centre (CCDC).
#
# This work is licensed under the Creative Commons
# Attribution-NonCommercial-ShareAlike 4.0 International License.
# To view a copy of this license, visit
# http://creativecommons.org/licenses/by-nc-sa/4.0/
# or send a letter to
# Creative Commons, PO Box 1866, Mountain View, CA 94042, USA.
#
# CIF created using the CSD Python API on 29 September 2022
# The structure has been converted into the P1 space group
# The structure has a 3D framework
# The original CSD entry OSIKIL is in the orthorhombic crystal system
# The framework has been calculated to contain at least 10.0% void space
# The void calculation uses a probe of radius 1.32A, grid spacing 0.4
#
###############################################################################

data_OSIKIL
_chemical_formula_moiety         '(C288 H192 I48 N96 Zn24)n'
_symmetry_cell_setting           triclinic
_symmetry_space_group_name_H-M   'P 1'
_symmetry_Int_Tables_number      1
_space_group_name_Hall           'P 1'
loop_
_symmetry_equiv_pos_site_id
_symmetry_equiv_pos_as_xyz
1 x,y,z
_cell_length_a                   27.46900(10)
_cell_length_b                   13.6888(3)
_cell_length_c                   45.9961(5)
_cell_angle_alpha                90
_cell_angle_beta                 90
_cell_angle_gamma                90
_cell_volume                     17295.3
loop_
_atom_site_label
_atom_site_type_symbol
_atom_site_fract_x
_atom_site_fract_y
_atom_site_fract_z
I2 I 0.014859(10) 0.43310(2) 0.401578(7)
Zn2 Zn 0.74593(2) 0.64990(3) 0.188179(10)
Zn3 Zn 0.945790(18) 0.34737(3) 0.428038(11)
I1 I 0.692929(13) 0.80191(2) 0.196285(7)
I4 I 0.936727(13) 0.16477(2) 0.437875(9)
I5 I 0.836761(13) 0.67120(3) 0.178296(8)
N2 N 0.59876(13) 0.3239(2) 0.04317(7)
N3 N 0.63583(12) 0.3214(2) 0.08998(7)
N4 N 0.63443(12) 0.4680(2) 0.06257(7)
N5 N 0.71305(13) 0.5701(2) 0.15571(7)
N6 N 0.73703(13) 0.5633(2) 0.22443(7)
N7 N 0.67525(12) 0.4501(2) 0.32168(7)
N8 N 0.76128(12) 0.4481(2) 0.32611(7)
N9 N 0.71219(11) 0.4157(2) 0.36746(7)
N10 N 0.88339(12) 0.3846(2) 0.40534(7)
N12 N 0.53471(12) 0.3906(2) 0.39036(8)
C1 C 0.58255(19) 0.0389(3) 0.10311(10)
H1 H 0.5859 0.0088 0.1216
C2 C 0.6009(2) 0.1318(3) 0.09915(10)
H2 H 0.6170 0.1643 0.1146
C3 C 0.59559(15) 0.1775(3) 0.07226(9)
C4 C 0.57234(15) 0.1256(3) 0.05016(10)
H3 H 0.5680 0.1540 0.0315
C5 C 0.55569(16) 0.0324(3) 0.05587(10)
C9 C 0.60857(18) 0.5713(3) 0.01264(10)
H8 H 0.6272 0.6033 0.0272
C10 C 0.59544(15) 0.4733(3) 0.01574(8)
C11 C 0.61145(15) 0.2794(3) 0.06827(9)
C12 C 0.61093(15) 0.4178(3) 0.04186(8)
C13 C 0.64531(14) 0.4164(3) 0.08622(8)
C14 C 0.66925(14) 0.4690(3) 0.11068(8)
C15 C 0.67042(16) 0.5701(3) 0.11080(9)
H9 H 0.6563 0.6061 0.0953
C16 C 0.69241(17) 0.6178(3) 0.13372(9)
H10 H 0.6928 0.6872 0.1338
C17 C 0.71159(18) 0.4730(3) 0.15571(10)
H11 H 0.7263 0.4387 0.1714
C18 C 0.68947(17) 0.4199(3) 0.13374(9)
H12 H 0.6883 0.3506 0.1346
C19 C 0.68511(15) 0.5164(3) 0.26376(9)
H13 H 0.6531 0.5091 0.2713
C20 C 0.69274(16) 0.5543(3) 0.23601(9)
H14 H 0.6653 0.5744 0.2249
C21 C 0.77560(15) 0.5318(3) 0.23964(8)
H15 H 0.8069 0.5354 0.2310
C22 C 0.77160(15) 0.4943(3) 0.26744(8)
H16 H 0.7995 0.4720 0.2777
C23 C 0.72540(15) 0.4898(2) 0.28016(8)
C24 C 0.62066(15) 0.4069(3) 0.39356(9)
H17 H 0.6490 0.4080 0.4054
C25 C 0.57558(15) 0.3936(3) 0.40611(9)
H18 H 0.5735 0.3864 0.4266
C26 C 0.53798(16) 0.4033(3) 0.36134(10)
H19 H 0.5090 0.4023 0.3501
C27 C 0.58251(15) 0.4177(3) 0.34735(10)
H20 H 0.5839 0.4269 0.3269
C28 C 0.62472(14) 0.4184(3) 0.36388(8)
C29 C 0.67325(14) 0.4284(2) 0.35006(8)
C30 C 0.72017(14) 0.4594(2) 0.31107(8)
C31 C 0.75519(13) 0.4262(2) 0.35418(8)
C32 C 0.79948(14) 0.4135(2) 0.37207(8)
C33 C 0.84578(14) 0.4272(3) 0.35994(9)
H21 H 0.8492 0.4459 0.3402
C34 C 0.88623(15) 0.4131(3) 0.37722(9)
H22 H 0.9175 0.4240 0.3690
C35 C 0.83875(15) 0.3719(3) 0.41667(9)
H23 H 0.8363 0.3515 0.4364
C36 C 0.79639(14) 0.3868(3) 0.40137(8)
H24 H 0.7656 0.3792 0.4105
Zn4 Zn 0.469582(18) 0.35370(3) 0.409975(12)
N13 N 0.93288(13) 0.4204(2) 0.46673(7)
N11 N 0.56712(13) 0.5796(2) 0.96673(7)
C6 C 0.56700(17) 0.4312(3) 0.99434(9)
H5 H 0.5567 0.3652 0.9961
C7 C 0.55347(17) 0.4861(3) 0.97010(10)
H6 H 0.5340 0.4564 0.9555
C8 C 0.59363(18) 0.6210(3) 0.98775(10)
H7 H 0.6028 0.6875 0.9856
Zn5 Zn 0.554210(18) 0.65263(3) 0.928038(11)
Zn1 Zn 0.530418(18) 0.85370(3) 0.090025(12)
I3 I 0.512908(12) 0.77326(2) 0.041043(8)
I6 I 0.580188(13) 0.76981(2) 0.129244(9)
N1 N 0.56005(12) 0.9894(2) 0.08165(8)
H4 H 0.5404 0.9971 0.0406
N14 N 0.46529(12) 0.8906(2) 0.10964(8)
Zn1_2 Zn 0.969582(18) 0.14630(3) 0.590025(12)
I3_2 I 0.987092(12) 0.22674(2) 0.541043(8)
I6_2 I 0.919812(13) 0.23019(2) 0.629244(9)
N1_2 N 0.93995(12) 0.0106(2) 0.58165(8)
H4_2 H 0.9596 0.0029 0.5406
Zn2_2 Zn 0.75407(2) 0.35010(3) 0.688179(10)
I1_2 I 0.807071(13) 0.19809(2) 0.696285(7)
I2_2 I 0.485141(10) 0.56690(2) 0.901578(7)
I4_2 I 0.563273(13) 0.83523(2) 0.937875(9)
I5_2 I 0.663239(13) 0.32880(3) 0.678296(8)
N2_2 N 0.90124(13) 0.6761(2) 0.54317(7)
N3_2 N 0.86417(12) 0.6786(2) 0.58998(7)
N4_2 N 0.86557(12) 0.5320(2) 0.56257(7)
N5_2 N 0.78695(13) 0.4299(2) 0.65571(7)
N6_2 N 0.76297(13) 0.4367(2) 0.72443(7)
N7_2 N 0.82475(12) 0.5499(2) 0.82168(7)
N8_2 N 0.73872(12) 0.5519(2) 0.82611(7)
N9_2 N 0.78781(11) 0.5843(2) 0.86746(7)
N10_2 N 0.61661(12) 0.6154(2) 0.90534(7)
N12_2 N 0.96529(12) 0.6094(2) 0.89036(8)
C1_2 C 0.91745(19) 0.9611(3) 0.60311(10)
H1_2 H 0.9141 0.9912 0.6216
C2_2 C 0.8991(2) 0.8682(3) 0.59915(10)
H2_2 H 0.8830 0.8357 0.6146
C3_2 C 0.90441(15) 0.8225(3) 0.57226(9)
C4_2 C 0.92766(15) 0.8744(3) 0.55016(10)
H3_2 H 0.9320 0.8460 0.5315
C5_2 C 0.94431(16) 0.9676(3) 0.55587(10)
C6_2 C 0.93300(17) 0.5688(3) 0.49434(9)
H5_2 H 0.9433 0.6348 0.4961
C7_2 C 0.94653(17) 0.5139(3) 0.47010(10)
H6_2 H 0.9660 0.5436 0.4555
C8_2 C 0.90637(18) 0.3790(3) 0.48775(10)
H7_2 H 0.8972 0.3125 0.4856
C9_2 C 0.89143(18) 0.4287(3) 0.51264(10)
H8_2 H 0.8728 0.3967 0.5272
C10_2 C 0.90456(15) 0.5267(3) 0.51574(8)
C11_2 C 0.88855(15) 0.7206(3) 0.56827(9)
C12_2 C 0.88907(15) 0.5822(3) 0.54186(8)
C13_2 C 0.85469(14) 0.5836(3) 0.58622(8)
C14_2 C 0.83075(14) 0.5310(3) 0.61068(8)
C15_2 C 0.82958(16) 0.4299(3) 0.61080(9)
H9_2 H 0.8437 0.3939 0.5953
C16_2 C 0.80759(17) 0.3822(3) 0.63372(9)
H10_2 H 0.8072 0.3128 0.6338
C17_2 C 0.78841(18) 0.5270(3) 0.65571(10)
H11_2 H 0.7737 0.5613 0.6714
C18_2 C 0.81053(17) 0.5801(3) 0.63374(9)
H12_2 H 0.8117 0.6494 0.6346
C19_2 C 0.81489(15) 0.4836(3) 0.76376(9)
H13_2 H 0.8469 0.4909 0.7713
C20_2 C 0.80726(16) 0.4457(3) 0.73601(9)
H14_2 H 0.8347 0.4256 0.7249
C21_2 C 0.72440(15) 0.4682(3) 0.73964(8)
H15_2 H 0.6931 0.4646 0.7310
C22_2 C 0.72840(15) 0.5057(3) 0.76744(8)
H16_2 H 0.7005 0.5280 0.7777
C23_2 C 0.77460(15) 0.5102(2) 0.78016(8)
C24_2 C 0.87934(15) 0.5931(3) 0.89356(9)
H17_2 H 0.8510 0.5920 0.9054
C25_2 C 0.92442(15) 0.6064(3) 0.90611(9)
H18_2 H 0.9265 0.6136 0.9266
C26_2 C 0.96202(16) 0.5967(3) 0.86134(10)
H19_2 H 0.9910 0.5977 0.8501
C27_2 C 0.91749(15) 0.5823(3) 0.84735(10)
H20_2 H 0.9161 0.5731 0.8269
C28_2 C 0.87528(14) 0.5816(3) 0.86388(8)
C29_2 C 0.82675(14) 0.5716(2) 0.85006(8)
C30_2 C 0.77983(14) 0.5406(2) 0.81107(8)
C31_2 C 0.74481(13) 0.5738(2) 0.85418(8)
C32_2 C 0.70052(14) 0.5865(2) 0.87207(8)
C33_2 C 0.65422(14) 0.5728(3) 0.85994(9)
H21_2 H 0.6508 0.5541 0.8402
C34_2 C 0.61377(15) 0.5869(3) 0.87722(9)
H22_2 H 0.5825 0.5760 0.8690
C35_2 C 0.66125(15) 0.6281(3) 0.91667(9)
H23_2 H 0.6637 0.6485 0.9364
C36_2 C 0.70361(14) 0.6132(3) 0.90137(8)
H24_2 H 0.7344 0.6208 0.9105
Zn3_2 Zn 0.054210(18) 0.84737(3) 0.071962(11)
I3_3 I 0.487092(12) 0.27326(2) 0.458957(8)
I4_3 I 0.063273(13) 0.66477(2) 0.062125(9)
I6_3 I 0.419812(13) 0.26981(2) 0.370756(9)
N1_3 N 0.43995(12) 0.4894(2) 0.41835(8)
N2_3 N 0.40124(13) 0.8239(2) 0.45683(7)
N3_3 N 0.36417(12) 0.8214(2) 0.41002(7)
N4_3 N 0.36557(12) 0.9680(2) 0.43743(7)
N7_3 N 0.32475(12) 0.9501(2) 0.17832(7)
N8_3 N 0.23872(12) 0.9481(2) 0.17389(7)
N9_3 N 0.28781(11) 0.9157(2) 0.13254(7)
N10_3 N 0.11661(12) 0.8846(2) 0.09466(7)
C1_3 C 0.41745(19) 0.5389(3) 0.39689(10)
H1_3 H 0.4141 0.5088 0.3784
C2_3 C 0.3991(2) 0.6318(3) 0.40085(10)
H2_3 H 0.3830 0.6643 0.3854
C3_3 C 0.40441(15) 0.6775(3) 0.42774(9)
C4_3 C 0.42766(15) 0.6256(3) 0.44984(10)
H3_3 H 0.4320 0.6540 0.4685
C5_3 C 0.44431(16) 0.5324(3) 0.44413(10)
H4_3 H 0.4596 0.4971 0.4594
C6_3 C 0.43300(17) 0.9312(3) 0.50566(9)
H5_3 H 0.4433 0.8652 0.5039
C7_3 C 0.44653(17) 0.9861(3) 0.52990(10)
H6_3 H 0.4660 0.9564 0.5445
C10_3 C 0.40456(15) 0.9733(3) 0.48426(8)
C11_3 C 0.38855(15) 0.7794(3) 0.43173(9)
C12_3 C 0.38907(15) 0.9178(3) 0.45814(8)
C13_3 C 0.35469(14) 0.9164(3) 0.41378(8)
C14_3 C 0.33075(14) 0.9690(3) 0.38932(8)
C17_3 C 0.28841(18) 0.9730(3) 0.34429(10)
H11_3 H 0.2737 0.9387 0.3286
C18_3 C 0.31053(17) 0.9199(3) 0.36626(9)
H12_3 H 0.3117 0.8506 0.3654
C22_3 C 0.22840(15) 0.9943(3) 0.23256(8)
H16_3 H 0.2005 0.9720 0.2223
C23_3 C 0.27460(15) 0.9898(2) 0.21984(8)
C24_3 C 0.37934(15) 0.9069(3) 0.10644(9)
H17_3 H 0.3510 0.9080 0.0946
C25_3 C 0.42442(15) 0.8936(3) 0.09389(9)
H18_3 H 0.4265 0.8864 0.0734
C26_3 C 0.46202(16) 0.9033(3) 0.13866(10)
H19_3 H 0.4910 0.9023 0.1499
C27_3 C 0.41749(15) 0.9177(3) 0.15265(10)
H20_3 H 0.4161 0.9269 0.1731
C28_3 C 0.37528(14) 0.9184(3) 0.13612(8)
C29_3 C 0.32675(14) 0.9284(2) 0.14994(8)
C30_3 C 0.27983(14) 0.9594(2) 0.18893(8)
C31_3 C 0.24481(13) 0.9262(2) 0.14582(8)
C32_3 C 0.20052(14) 0.9135(2) 0.12793(8)
C33_3 C 0.15422(14) 0.9272(3) 0.14006(9)
H21_3 H 0.1508 0.9459 0.1598
C34_3 C 0.11377(15) 0.9131(3) 0.12278(9)
H22_3 H 0.0825 0.9240 0.1310
C35_3 C 0.16125(15) 0.8719(3) 0.08333(9)
H23_3 H 0.1637 0.8515 0.0636
C36_3 C 0.20361(14) 0.8868(3) 0.09863(8)
H24_3 H 0.2344 0.8792 0.0895
N13_2 N 0.06712(13) 0.9204(2) 0.03327(7)
C8_3 C 0.09363(18) 0.8790(3) 0.01225(10)
H7_3 H 0.1028 0.8125 0.0144
N14_2 N 0.03471(12) 0.1094(2) 0.60964(8)
Zn4_2 Zn 0.030418(18) 0.64630(3) 0.909975(12)
Zn2_3 Zn 0.25407(2) 0.14990(3) 0.311821(10)
I1_3 I 0.307071(13) 0.30191(2) 0.303715(7)
I5_3 I 0.163239(13) 0.17120(3) 0.321704(8)
N5_3 N 0.28695(13) 0.0701(2) 0.34429(7)
N6_3 N 0.26297(13) 0.0633(2) 0.27557(7)
N11_2 N 0.43288(13) 0.0796(2) 0.53327(7)
C8_4 C 0.40637(18) 0.1210(3) 0.51225(10)
H7_4 H 0.3972 0.1875 0.5144
C9_3 C 0.39143(18) 0.0713(3) 0.48736(10)
H8_3 H 0.3728 0.1033 0.4728
C15_3 C 0.32958(16) 0.0701(3) 0.38920(9)
H9_3 H 0.3437 0.1061 0.4047
C16_3 C 0.30759(17) 0.1178(3) 0.36628(9)
H10_3 H 0.3072 0.1872 0.3662
C19_3 C 0.31489(15) 0.0164(3) 0.23624(9)
H13_3 H 0.3469 0.0091 0.2287
C20_3 C 0.30726(16) 0.0543(3) 0.26399(9)
H14_3 H 0.3347 0.0744 0.2751
C21_3 C 0.22440(15) 0.0318(3) 0.26036(8)
H15_3 H 0.1931 0.0354 0.2690
Zn5_2 Zn 0.445790(18) 0.15263(3) 0.571962(11)
I2_3 I 0.514859(10) 0.06690(2) 0.598422(7)
I3_4 I 0.012908(12) 0.72674(2) 0.958957(8)
I4_4 I 0.436727(13) 0.33523(2) 0.562125(9)
I6_4 I 0.080188(13) 0.73019(2) 0.870756(9)
N1_4 N 0.06005(12) 0.5106(2) 0.91835(8)
N2_4 N 0.09876(13) 0.1761(2) 0.95683(7)
N3_4 N 0.13583(12) 0.1786(2) 0.91002(7)
N4_4 N 0.13443(12) 0.0320(2) 0.93743(7)
N7_4 N 0.17525(12) 0.0499(2) 0.67832(7)
N8_4 N 0.26128(12) 0.0519(2) 0.67389(7)
N9_4 N 0.21219(11) 0.0843(2) 0.63254(7)
N10_4 N 0.38339(12) 0.1154(2) 0.59466(7)
C1_4 C 0.08255(19) 0.4611(3) 0.89689(10)
H1_4 H 0.0859 0.4912 0.8784
C2_4 C 0.1009(2) 0.3682(3) 0.90085(10)
H2_4 H 0.1170 0.3357 0.8854
C3_4 C 0.09559(15) 0.3225(3) 0.92774(9)
C4_4 C 0.07234(15) 0.3744(3) 0.94984(10)
H3_4 H 0.0680 0.3460 0.9685
C5_4 C 0.05569(16) 0.4676(3) 0.94413(10)
H4_4 H 0.0404 0.5029 0.9594
C10_4 C 0.09544(15) 0.0267(3) 0.98426(8)
C11_4 C 0.11145(15) 0.2206(3) 0.93173(9)
C12_4 C 0.11093(15) 0.0822(3) 0.95814(8)
C13_4 C 0.14531(14) 0.0836(3) 0.91378(8)
C14_4 C 0.16925(14) 0.0310(3) 0.88932(8)
C17_4 C 0.21159(18) 0.0270(3) 0.84429(10)
H11_4 H 0.2263 0.0613 0.8286
C18_4 C 0.18947(17) 0.0801(3) 0.86626(9)
H12_4 H 0.1883 0.1494 0.8654
C22_4 C 0.27160(15) 0.0057(3) 0.73256(8)
H16_4 H 0.2995 0.0280 0.7223
C23_4 C 0.22540(15) 0.0102(2) 0.71984(8)
C24_4 C 0.12066(15) 0.0931(3) 0.60644(9)
H17_4 H 0.1490 0.0920 0.5946
C25_4 C 0.07558(15) 0.1064(3) 0.59389(9)
H18_4 H 0.0735 0.1136 0.5734
C26_4 C 0.03798(16) 0.0967(3) 0.63866(10)
H19_4 H 0.0090 0.0977 0.6499
C27_4 C 0.08251(15) 0.0823(3) 0.65265(10)
H20_4 H 0.0839 0.0731 0.6731
C28_4 C 0.12472(14) 0.0816(3) 0.63612(8)
C29_4 C 0.17325(14) 0.0716(2) 0.64994(8)
C30_4 C 0.22017(14) 0.0406(2) 0.68893(8)
C31_4 C 0.25519(13) 0.0738(2) 0.64582(8)
C32_4 C 0.29948(14) 0.0865(2) 0.62793(8)
C33_4 C 0.34578(14) 0.0728(3) 0.64006(9)
H21_4 H 0.3492 0.0541 0.6598
C34_4 C 0.38623(15) 0.0869(3) 0.62278(9)
H22_4 H 0.4175 0.0760 0.6310
C35_4 C 0.33875(15) 0.1281(3) 0.58333(9)
H23_4 H 0.3363 0.1485 0.5636
C36_4 C 0.29639(14) 0.1132(3) 0.59863(8)
H24_4 H 0.2656 0.1208 0.5895
I2_4 I 0.985141(10) 0.93310(2) 0.098422(7)
C6_4 C 0.06700(17) 0.0688(3) 0.00566(9)
H5_4 H 0.0567 0.1348 0.0039
C7_4 C 0.05347(17) 0.0139(3) 0.02990(10)
H6_4 H 0.0340 0.0436 0.0445
Zn2_4 Zn 0.24593(2) 0.85010(3) 0.811821(10)
I1_4 I 0.192929(13) 0.69809(2) 0.803715(7)
I5_4 I 0.336761(13) 0.82880(3) 0.821704(8)
N5_4 N 0.21305(13) 0.9299(2) 0.84429(7)
N6_4 N 0.23703(13) 0.9367(2) 0.77557(7)
C9_4 C 0.10857(18) 0.9287(3) 0.98736(10)
H8_4 H 0.1272 0.8967 0.9728
C15_4 C 0.17042(16) 0.9299(3) 0.88920(9)
H9_4 H 0.1563 0.8939 0.9047
C16_4 C 0.19241(17) 0.8822(3) 0.86628(9)
H10_4 H 0.1928 0.8128 0.8662
C19_4 C 0.18511(15) 0.9836(3) 0.73624(9)
H13_4 H 0.1531 0.9909 0.7287
C20_4 C 0.19274(16) 0.9457(3) 0.76399(9)
H14_4 H 0.1653 0.9256 0.7751
C21_4 C 0.27560(15) 0.9682(3) 0.76036(8)
H15_4 H 0.3069 0.9646 0.7690
Zn1_3 Zn 0.469582(18) 0.14630(3) 0.909975(12)
I3_5 I 0.487092(12) 0.22674(2) 0.958957(8)
I6_5 I 0.419812(13) 0.23019(2) 0.870756(9)
N1_5 N 0.43995(12) 0.0106(2) 0.91835(8)
H4_5 H 0.4596 0.0029 0.9594
N14_3 N 0.53471(12) 0.1094(2) 0.89036(8)
N11_3 N 0.43288(13) 0.4204(2) 0.03327(7)
C6_5 C 0.43300(17) 0.5688(3) 0.00566(9)
H5_5 H 0.4433 0.6348 0.0039
C7_5 C 0.44653(17) 0.5139(3) 0.02990(10)
H6_5 H 0.4660 0.5436 0.0445
C8_5 C 0.40637(18) 0.3790(3) 0.01225(10)
H7_5 H 0.3972 0.3125 0.0144
Zn5_3 Zn 0.445790(18) 0.34737(3) 0.071962(11)
Zn2_5 Zn 0.25407(2) 0.35010(3) 0.811821(10)
Zn3_3 Zn 0.054210(18) 0.65263(3) 0.571962(11)
I1_5 I 0.307071(13) 0.19809(2) 0.803715(7)
I4_5 I 0.063273(13) 0.83523(2) 0.562125(9)
I5_5 I 0.163239(13) 0.32880(3) 0.821704(8)
N2_5 N 0.40124(13) 0.6761(2) 0.95683(7)
N3_5 N 0.36417(12) 0.6786(2) 0.91002(7)
N4_5 N 0.36557(12) 0.5320(2) 0.93743(7)
N5_5 N 0.28695(13) 0.4299(2) 0.84429(7)
N6_5 N 0.26297(13) 0.4367(2) 0.77557(7)
N7_5 N 0.32475(12) 0.5499(2) 0.67832(7)
N8_5 N 0.23872(12) 0.5519(2) 0.67389(7)
N9_5 N 0.28781(11) 0.5843(2) 0.63254(7)
N10_5 N 0.11661(12) 0.6154(2) 0.59466(7)
N12_3 N 0.46529(12) 0.6094(2) 0.60964(8)
C1_5 C 0.41745(19) 0.9611(3) 0.89689(10)
H1_5 H 0.4141 0.9912 0.8784
C2_5 C 0.3991(2) 0.8682(3) 0.90085(10)
H2_5 H 0.3830 0.8357 0.8854
C3_5 C 0.40441(15) 0.8225(3) 0.92774(9)
C4_5 C 0.42766(15) 0.8744(3) 0.94984(10)
H3_5 H 0.4320 0.8460 0.9685
C5_5 C 0.44431(16) 0.9676(3) 0.94413(10)
C9_5 C 0.39143(18) 0.4287(3) 0.98736(10)
H8_5 H 0.3728 0.3967 0.9728
C10_5 C 0.40456(15) 0.5267(3) 0.98426(8)
C11_5 C 0.38855(15) 0.7206(3) 0.93173(9)
C12_5 C 0.38907(15) 0.5822(3) 0.95814(8)
C13_5 C 0.35469(14) 0.5836(3) 0.91378(8)
C14_5 C 0.33075(14) 0.5310(3) 0.88932(8)
C15_5 C 0.32958(16) 0.4299(3) 0.88920(9)
H9_5 H 0.3437 0.3939 0.9047
C16_5 C 0.30759(17) 0.3822(3) 0.86628(9)
H10_5 H 0.3072 0.3128 0.8662
C17_5 C 0.28841(18) 0.5270(3) 0.84429(10)
H11_5 H 0.2737 0.5613 0.8286
C18_5 C 0.31053(17) 0.5801(3) 0.86626(9)
H12_5 H 0.3117 0.6494 0.8654
C19_5 C 0.31489(15) 0.4836(3) 0.73624(9)
H13_5 H 0.3469 0.4909 0.7287
C20_5 C 0.30726(16) 0.4457(3) 0.76399(9)
H14_5 H 0.3347 0.4256 0.7751
C21_5 C 0.22440(15) 0.4682(3) 0.76036(8)
H15_5 H 0.1931 0.4646 0.7690
C22_5 C 0.22840(15) 0.5057(3) 0.73256(8)
H16_5 H 0.2005 0.5280 0.7223
C23_5 C 0.27460(15) 0.5102(2) 0.71984(8)
C24_5 C 0.37934(15) 0.5931(3) 0.60644(9)
H17_5 H 0.3510 0.5920 0.5946
C25_5 C 0.42442(15) 0.6064(3) 0.59389(9)
H18_5 H 0.4265 0.6136 0.5734
C26_5 C 0.46202(16) 0.5967(3) 0.63866(10)
H19_5 H 0.4910 0.5977 0.6499
C27_5 C 0.41749(15) 0.5823(3) 0.65265(10)
H20_5 H 0.4161 0.5731 0.6731
C28_5 C 0.37528(14) 0.5816(3) 0.63612(8)
C29_5 C 0.32675(14) 0.5716(2) 0.64994(8)
C30_5 C 0.27983(14) 0.5406(2) 0.68893(8)
C31_5 C 0.24481(13) 0.5738(2) 0.64582(8)
C32_5 C 0.20052(14) 0.5865(2) 0.62793(8)
C33_5 C 0.15422(14) 0.5728(3) 0.64006(9)
H21_5 H 0.1508 0.5541 0.6598
C34_5 C 0.11377(15) 0.5869(3) 0.62278(9)
H22_5 H 0.0825 0.5760 0.6310
C35_5 C 0.16125(15) 0.6281(3) 0.58333(9)
H23_5 H 0.1637 0.6485 0.5636
C36_5 C 0.20361(14) 0.6132(3) 0.59863(8)
H24_5 H 0.2344 0.6208 0.5895
Zn4_3 Zn 0.530418(18) 0.64630(3) 0.590025(12)
N13_3 N 0.06712(13) 0.5796(2) 0.53327(7)
Zn2_6 Zn 0.24593(2) 0.64990(3) 0.311821(10)
I1_6 I 0.192929(13) 0.80191(2) 0.303715(7)
I2_5 I 0.514859(10) 0.43310(2) 0.098422(7)
I4_6 I 0.436727(13) 0.16477(2) 0.062125(9)
I5_6 I 0.336761(13) 0.67120(3) 0.321704(8)
N2_6 N 0.09876(13) 0.3239(2) 0.45683(7)
N3_6 N 0.13583(12) 0.3214(2) 0.41002(7)
N4_6 N 0.13443(12) 0.4680(2) 0.43743(7)
N5_6 N 0.21305(13) 0.5701(2) 0.34429(7)
N6_6 N 0.23703(13) 0.5633(2) 0.27557(7)
N7_6 N 0.17525(12) 0.4501(2) 0.17832(7)
N8_6 N 0.26128(12) 0.4481(2) 0.17389(7)
N9_6 N 0.21219(11) 0.4157(2) 0.13254(7)
N10_6 N 0.38339(12) 0.3846(2) 0.09466(7)
N12_4 N 0.03471(12) 0.3906(2) 0.10964(8)
C1_6 C 0.08255(19) 0.0389(3) 0.39689(10)
H1_6 H 0.0859 0.0088 0.3784
C2_6 C 0.1009(2) 0.1318(3) 0.40085(10)
H2_6 H 0.1170 0.1643 0.3854
C3_6 C 0.09559(15) 0.1775(3) 0.42774(9)
C4_6 C 0.07234(15) 0.1256(3) 0.44984(10)
H3_6 H 0.0680 0.1540 0.4685
C5_6 C 0.05569(16) 0.0324(3) 0.44413(10)
C6_6 C 0.06700(17) 0.4312(3) 0.50566(9)
H5_6 H 0.0567 0.3652 0.5039
C7_6 C 0.05347(17) 0.4861(3) 0.52990(10)
H6_6 H 0.0340 0.4564 0.5445
C8_6 C 0.09363(18) 0.6210(3) 0.51225(10)
H7_6 H 0.1028 0.6875 0.5144
C9_6 C 0.10857(18) 0.5713(3) 0.48736(10)
H8_6 H 0.1272 0.6033 0.4728
C10_6 C 0.09544(15) 0.4733(3) 0.48426(8)
C11_6 C 0.11145(15) 0.2794(3) 0.43173(9)
C12_6 C 0.11093(15) 0.4178(3) 0.45814(8)
C13_6 C 0.14531(14) 0.4164(3) 0.41378(8)
C14_6 C 0.16925(14) 0.4690(3) 0.38932(8)
C15_6 C 0.17042(16) 0.5701(3) 0.38920(9)
H9_6 H 0.1563 0.6061 0.4047
C16_6 C 0.19241(17) 0.6178(3) 0.36628(9)
H10_6 H 0.1928 0.6872 0.3662
C17_6 C 0.21159(18) 0.4730(3) 0.34429(10)
H11_6 H 0.2263 0.4387 0.3286
C18_6 C 0.18947(17) 0.4199(3) 0.36626(9)
H12_6 H 0.1883 0.3506 0.3654
C19_6 C 0.18511(15) 0.5164(3) 0.23624(9)
H13_6 H 0.1531 0.5091 0.2287
C20_6 C 0.19274(16) 0.5543(3) 0.26399(9)
H14_6 H 0.1653 0.5744 0.2751
C21_6 C 0.27560(15) 0.5318(3) 0.26036(8)
H15_6 H 0.3069 0.5354 0.2690
C22_6 C 0.27160(15) 0.4943(3) 0.23256(8)
H16_6 H 0.2995 0.4720 0.2223
C23_6 C 0.22540(15) 0.4898(2) 0.21984(8)
C24_6 C 0.12066(15) 0.4069(3) 0.10644(9)
H17_6 H 0.1490 0.4080 0.0946
C25_6 C 0.07558(15) 0.3936(3) 0.09389(9)
H18_6 H 0.0735 0.3864 0.0734
C26_6 C 0.03798(16) 0.4033(3) 0.13866(10)
H19_6 H 0.0090 0.4023 0.1499
C27_6 C 0.08251(15) 0.4177(3) 0.15265(10)
H20_6 H 0.0839 0.4269 0.1731
C28_6 C 0.12472(14) 0.4184(3) 0.13612(8)
C29_6 C 0.17325(14) 0.4284(2) 0.14994(8)
C30_6 C 0.22017(14) 0.4594(2) 0.18893(8)
C31_6 C 0.25519(13) 0.4262(2) 0.14582(8)
C32_6 C 0.29948(14) 0.4135(2) 0.12793(8)
C33_6 C 0.34578(14) 0.4272(3) 0.14006(9)
H21_6 H 0.3492 0.4459 0.1598
C34_6 C 0.38623(15) 0.4131(3) 0.12278(9)
H22_6 H 0.4175 0.4240 0.1310
C35_6 C 0.33875(15) 0.3719(3) 0.08333(9)
H23_6 H 0.3363 0.3515 0.0636
C36_6 C 0.29639(14) 0.3868(3) 0.09863(8)
H24_6 H 0.2656 0.3792 0.0895
Zn1_4 Zn 0.030418(18) 0.85370(3) 0.409975(12)
I3_6 I 0.012908(12) 0.77326(2) 0.458957(8)
I6_6 I 0.080188(13) 0.76981(2) 0.370756(9)
N1_6 N 0.06005(12) 0.9894(2) 0.41835(8)
H4_6 H 0.0404 0.9971 0.4594
Zn3_4 Zn 0.945790(18) 0.15263(3) 0.928038(11)
I3_7 I 0.512908(12) 0.72674(2) 0.541043(8)
I4_7 I 0.936727(13) 0.33523(2) 0.937875(9)
I6_7 I 0.580188(13) 0.73019(2) 0.629244(9)
N1_7 N 0.56005(12) 0.5106(2) 0.58165(8)
N2_7 N 0.59876(13) 0.1761(2) 0.54317(7)
N3_7 N 0.63583(12) 0.1786(2) 0.58998(7)
N4_7 N 0.63443(12) 0.0320(2) 0.56257(7)
N7_7 N 0.67525(12) 0.0499(2) 0.82168(7)
N8_7 N 0.76128(12) 0.0519(2) 0.82611(7)
N9_7 N 0.71219(11) 0.0843(2) 0.86746(7)
N10_7 N 0.88339(12) 0.1154(2) 0.90534(7)
C1_7 C 0.58255(19) 0.4611(3) 0.60311(10)
H1_7 H 0.5859 0.4912 0.6216
C2_7 C 0.6009(2) 0.3682(3) 0.59915(10)
H2_7 H 0.6170 0.3357 0.6146
C3_7 C 0.59559(15) 0.3225(3) 0.57226(9)
C4_7 C 0.57234(15) 0.3744(3) 0.55016(10)
H3_7 H 0.5680 0.3460 0.5315
C5_7 C 0.55569(16) 0.4676(3) 0.55587(10)
H4_7 H 0.5404 0.5029 0.5406
C6_7 C 0.56700(17) 0.0688(3) 0.49434(9)
H5_7 H 0.5567 0.1348 0.4961
C7_7 C 0.55347(17) 0.0139(3) 0.47010(10)
H6_7 H 0.5340 0.0436 0.4555
C10_7 C 0.59544(15) 0.0267(3) 0.51574(8)
C11_7 C 0.61145(15) 0.2206(3) 0.56827(9)
C12_7 C 0.61093(15) 0.0822(3) 0.54186(8)
C13_7 C 0.64531(14) 0.0836(3) 0.58622(8)
C14_7 C 0.66925(14) 0.0310(3) 0.61068(8)
C17_7 C 0.71159(18) 0.0270(3) 0.65571(10)
H11_7 H 0.7263 0.0613 0.6714
C18_7 C 0.68947(17) 0.0801(3) 0.63374(9)
H12_7 H 0.6883 0.1494 0.6346
C22_7 C 0.77160(15) 0.0057(3) 0.76744(8)
H16_7 H 0.7995 0.0280 0.7777
C23_7 C 0.72540(15) 0.0102(2) 0.78016(8)
C24_7 C 0.62066(15) 0.0931(3) 0.89356(9)
H17_7 H 0.6490 0.0920 0.9054
C25_7 C 0.57558(15) 0.1064(3) 0.90611(9)
H18_7 H 0.5735 0.1136 0.9266
C26_7 C 0.53798(16) 0.0967(3) 0.86134(10)
H19_7 H 0.5090 0.0977 0.8501
C27_7 C 0.58251(15) 0.0823(3) 0.84735(10)
H20_7 H 0.5839 0.0731 0.8269
C28_7 C 0.62472(14) 0.0816(3) 0.86388(8)
C29_7 C 0.67325(14) 0.0716(2) 0.85006(8)
C30_7 C 0.72017(14) 0.0406(2) 0.81107(8)
C31_7 C 0.75519(13) 0.0738(2) 0.85418(8)
C32_7 C 0.79948(14) 0.0865(2) 0.87207(8)
C33_7 C 0.84578(14) 0.0728(3) 0.85994(9)
H21_7 H 0.8492 0.0541 0.8402
C34_7 C 0.88623(15) 0.0869(3) 0.87722(9)
H22_7 H 0.9175 0.0760 0.8690
C35_7 C 0.83875(15) 0.1281(3) 0.91667(9)
H23_7 H 0.8363 0.1485 0.9364
C36_7 C 0.79639(14) 0.1132(3) 0.90137(8)
H24_7 H 0.7656 0.1208 0.9105
N13_4 N 0.93288(13) 0.0796(2) 0.96673(7)
C8_7 C 0.90637(18) 0.1210(3) 0.98775(10)
H7_7 H 0.8972 0.1875 0.9856
I2_6 I 0.985141(10) 0.56690(2) 0.598422(7)
Zn4_4 Zn 0.969582(18) 0.35370(3) 0.090025(12)
N14_4 N 0.96529(12) 0.8906(2) 0.39036(8)
Zn2_7 Zn 0.74593(2) 0.85010(3) 0.688179(10)
I1_7 I 0.692929(13) 0.69809(2) 0.696285(7)
I5_7 I 0.836761(13) 0.82880(3) 0.678296(8)
N5_7 N 0.71305(13) 0.9299(2) 0.65571(7)
N6_7 N 0.73703(13) 0.9367(2) 0.72443(7)
N11_4 N 0.56712(13) 0.9204(2) 0.46673(7)
C8_8 C 0.59363(18) 0.8790(3) 0.48775(10)
H7_8 H 0.6028 0.8125 0.4856
C9_7 C 0.60857(18) 0.9287(3) 0.51264(10)
H8_7 H 0.6272 0.8967 0.5272
C15_7 C 0.67042(16) 0.9299(3) 0.61080(9)
H9_7 H 0.6563 0.8939 0.5953
C16_7 C 0.69241(17) 0.8822(3) 0.63372(9)
H10_7 H 0.6928 0.8128 0.6338
C19_7 C 0.68511(15) 0.9836(3) 0.76376(9)
H13_7 H 0.6531 0.9909 0.7713
C20_7 C 0.69274(16) 0.9457(3) 0.73601(9)
H14_7 H 0.6653 0.9256 0.7249
C21_7 C 0.77560(15) 0.9682(3) 0.73964(8)
H15_7 H 0.8069 0.9646 0.7310
Zn5_4 Zn 0.554210(18) 0.84737(3) 0.428038(11)
I2_7 I 0.485141(10) 0.93310(2) 0.401578(7)
I3_8 I 0.987092(12) 0.27326(2) 0.041043(8)
I4_8 I 0.563273(13) 0.66477(2) 0.437875(9)
I6_8 I 0.919812(13) 0.26981(2) 0.129244(9)
N1_8 N 0.93995(12) 0.4894(2) 0.08165(8)
N2_8 N 0.90124(13) 0.8239(2) 0.04317(7)
N3_8 N 0.86417(12) 0.8214(2) 0.08998(7)
N4_8 N 0.86557(12) 0.9680(2) 0.06257(7)
N7_8 N 0.82475(12) 0.9501(2) 0.32168(7)
N8_8 N 0.73872(12) 0.9481(2) 0.32611(7)
N9_8 N 0.78781(11) 0.9157(2) 0.36746(7)
N10_8 N 0.61661(12) 0.8846(2) 0.40534(7)
C1_8 C 0.91745(19) 0.5389(3) 0.10311(10)
H1_8 H 0.9141 0.5088 0.1216
C2_8 C 0.8991(2) 0.6318(3) 0.09915(10)
H2_8 H 0.8830 0.6643 0.1146
C3_8 C 0.90441(15) 0.6775(3) 0.07226(9)
C4_8 C 0.92766(15) 0.6256(3) 0.05016(10)
H3_8 H 0.9320 0.6540 0.0315
C5_8 C 0.94431(16) 0.5324(3) 0.05587(10)
H4_8 H 0.9596 0.4971 0.0406
C10_8 C 0.90456(15) 0.9733(3) 0.01574(8)
C11_8 C 0.88855(15) 0.7794(3) 0.06827(9)
C12_8 C 0.88907(15) 0.9178(3) 0.04186(8)
C13_8 C 0.85469(14) 0.9164(3) 0.08622(8)
C14_8 C 0.83075(14) 0.9690(3) 0.11068(8)
C17_8 C 0.78841(18) 0.9730(3) 0.15571(10)
H11_8 H 0.7737 0.9387 0.1714
C18_8 C 0.81053(17) 0.9199(3) 0.13374(9)
H12_8 H 0.8117 0.8506 0.1346
C22_8 C 0.72840(15) 0.9943(3) 0.26744(8)
H16_8 H 0.7005 0.9720 0.2777
C23_8 C 0.77460(15) 0.9898(2) 0.28016(8)
C24_8 C 0.87934(15) 0.9069(3) 0.39356(9)
H17_8 H 0.8510 0.9080 0.4054
C25_8 C 0.92442(15) 0.8936(3) 0.40611(9)
H18_8 H 0.9265 0.8864 0.4266
C26_8 C 0.96202(16) 0.9033(3) 0.36134(10)
H19_8 H 0.9910 0.9023 0.3501
C27_8 C 0.91749(15) 0.9177(3) 0.34735(10)
H20_8 H 0.9161 0.9269 0.3269
C28_8 C 0.87528(14) 0.9184(3) 0.36388(8)
C29_8 C 0.82675(14) 0.9284(2) 0.35006(8)
C30_8 C 0.77983(14) 0.9594(2) 0.31107(8)
C31_8 C 0.74481(13) 0.9262(2) 0.35418(8)
C32_8 C 0.70052(14) 0.9135(2) 0.37207(8)
C33_8 C 0.65422(14) 0.9272(3) 0.35994(9)
H21_8 H 0.6508 0.9459 0.3402
C34_8 C 0.61377(15) 0.9131(3) 0.37722(9)
H22_8 H 0.5825 0.9240 0.3690
C35_8 C 0.66125(15) 0.8719(3) 0.41667(9)
H23_8 H 0.6637 0.8515 0.4364
C36_8 C 0.70361(14) 0.8868(3) 0.40137(8)
H24_8 H 0.7344 0.8792 0.4105
I2_8 I 0.014859(10) 0.06690(2) 0.901578(7)
Zn2_8 Zn 0.75407(2) 0.14990(3) 0.188179(10)
I1_8 I 0.807071(13) 0.30191(2) 0.196285(7)
I5_8 I 0.663239(13) 0.17120(3) 0.178296(8)
N5_8 N 0.78695(13) 0.0701(2) 0.15571(7)
N6_8 N 0.76297(13) 0.0633(2) 0.22443(7)
C9_8 C 0.89143(18) 0.0713(3) 0.01264(10)
H8_8 H 0.8728 0.1033 0.0272
C15_8 C 0.82958(16) 0.0701(3) 0.11080(9)
H9_8 H 0.8437 0.1061 0.0953
C16_8 C 0.80759(17) 0.1178(3) 0.13372(9)
H10_8 H 0.8072 0.1872 0.1338
C19_8 C 0.81489(15) 0.0164(3) 0.26376(9)
H13_8 H 0.8469 0.0091 0.2713
C20_8 C 0.80726(16) 0.0543(3) 0.23601(9)
H14_8 H 0.8347 0.0744 0.2249
C21_8 C 0.72440(15) 0.0318(3) 0.23964(8)
H15_8 H 0.6931 0.0354 0.2310
C6_8 C 0.93300(17) 0.9312(3) 0.99434(9)
H5_8 H 0.9433 0.8652 0.9961
C7_8 C 0.94653(17) 0.9861(3) 0.97010(10)
H6_8 H 0.9660 0.9564 0.9555
loop_
_geom_bond_atom_site_label_1
_geom_bond_atom_site_label_2
_geom_bond_site_symmetry_1
_geom_bond_site_symmetry_2
Zn2 I1 1_555 1_555
I4 Zn3 1_555 1_555
I5 Zn2 1_555 1_555
N2 C11 1_555 1_555
N3 C11 1_555 1_555
N4 C12 1_555 1_555
N5 Zn2 1_555 1_555
N6 Zn2 1_555 1_555
N7 C29 1_555 1_555
N8 C30 1_555 1_555
N9 C29 1_555 1_555
N10 Zn3 1_555 1_555
N12 C25 1_555 1_555
H1 C1 1_555 1_555
C2 C1 1_555 1_555
H2 C2 1_555 1_555
C3 C2 1_555 1_555
C4 C3 1_555 1_555
H3 C4 1_555 1_555
H8 C9 1_555 1_555
C11 C3 1_555 1_555
C12 N2 1_555 1_555
C13 N3 1_555 1_555
C14 C13 1_555 1_555
C15 C14 1_555 1_555
H9 C15 1_555 1_555
C16 N5 1_555 1_555
H10 C16 1_555 1_555
C17 N5 1_555 1_555
H11 C17 1_555 1_555
C18 C14 1_555 1_555
H12 C18 1_555 1_555
C19 H13 1_555 1_555
C20 N6 1_555 1_555
H14 C20 1_555 1_555
C21 N6 1_555 1_555
H15 C21 1_555 1_555
C22 C21 1_555 1_555
H16 C22 1_555 1_555
C23 C19 1_555 1_555
C24 H17 1_555 1_555
C25 C24 1_555 1_555
H18 C25 1_555 1_555
C26 N12 1_555 1_555
H19 C26 1_555 1_555
C27 C26 1_555 1_555
H20 C27 1_555 1_555
C28 C24 1_555 1_555
C29 C28 1_555 1_555
C30 N7 1_555 1_555
C31 N8 1_555 1_555
C32 C31 1_555 1_555
C33 C32 1_555 1_555
H21 C33 1_555 1_555
C34 N10 1_555 1_555
H22 C34 1_555 1_555
C35 N10 1_555 1_555
H23 C35 1_555 1_555
C36 C32 1_555 1_555
H24 C36 1_555 1_555
Zn4 N12 1_555 1_555
N13 Zn3 1_555 1_555
N4 C13 1_555 1_555
N9 C31 1_555 1_555
C4 C5 1_555 1_555
C9 C10 1_555 1_555
C10 C12 1_555 1_555
C15 C16 1_555 1_555
C17 C18 1_555 1_555
C19 C20 1_555 1_555
C22 C23 1_555 1_555
C23 C30 1_555 1_555
C27 C28 1_555 1_555
C33 C34 1_555 1_555
C35 C36 1_555 1_555
N11 C7 1_555 1_555
C6 H5 1_555 1_555
C7 C6 1_555 1_555
H6 C7 1_555 1_555
C8 N11 1_555 1_555
H7 C8 1_555 1_555
Zn5 N11 1_555 1_555
Zn1 I3 1_555 1_555
I6 Zn1 1_555 1_555
N1 Zn1 1_555 1_555
N14 Zn1 1_555 1_555
Zn1_2 I3_2 1_555 1_555
I6_2 Zn1_2 1_555 1_555
N1_2 Zn1_2 1_555 1_555
Zn2_2 I1_2 1_555 1_555
Zn5 I2_2 1_555 1_555
I4_2 Zn5 1_555 1_555
I5_2 Zn2_2 1_555 1_555
N2_2 C11_2 1_555 1_555
N3_2 C11_2 1_555 1_555
N4_2 C12_2 1_555 1_555
N5_2 Zn2_2 1_555 1_555
N6_2 Zn2_2 1_555 1_555
N7_2 C29_2 1_555 1_555
N8_2 C30_2 1_555 1_555
N9_2 C29_2 1_555 1_555
N10_2 Zn5 1_555 1_555
N13 C7_2 1_555 1_555
N12_2 C25_2 1_555 1_555
H1_2 C1_2 1_555 1_555
C2_2 C1_2 1_555 1_555
H2_2 C2_2 1_555 1_555
C3_2 C2_2 1_555 1_555
C4_2 C3_2 1_555 1_555
H3_2 C4_2 1_555 1_555
C6_2 H5_2 1_555 1_555
C7_2 C6_2 1_555 1_555
H6_2 C7_2 1_555 1_555
C8_2 N13 1_555 1_555
H7_2 C8_2 1_555 1_555
C9_2 C8_2 1_555 1_555
H8_2 C9_2 1_555 1_555
C10_2 C6_2 1_555 1_555
C11_2 C3_2 1_555 1_555
C12_2 N2_2 1_555 1_555
C13_2 N3_2 1_555 1_555
C14_2 C13_2 1_555 1_555
C15_2 C14_2 1_555 1_555
H9_2 C15_2 1_555 1_555
C16_2 N5_2 1_555 1_555
H10_2 C16_2 1_555 1_555
C17_2 N5_2 1_555 1_555
H11_2 C17_2 1_555 1_555
C18_2 C14_2 1_555 1_555
H12_2 C18_2 1_555 1_555
C19_2 H13_2 1_555 1_555
C20_2 N6_2 1_555 1_555
H14_2 C20_2 1_555 1_555
C21_2 N6_2 1_555 1_555
H15_2 C21_2 1_555 1_555
C22_2 C21_2 1_555 1_555
H16_2 C22_2 1_555 1_555
C23_2 C19_2 1_555 1_555
C24_2 H17_2 1_555 1_555
C25_2 C24_2 1_555 1_555
H18_2 C25_2 1_555 1_555
C26_2 N12_2 1_555 1_555
H19_2 C26_2 1_555 1_555
C27_2 C26_2 1_555 1_555
H20_2 C27_2 1_555 1_555
C28_2 C24_2 1_555 1_555
C29_2 C28_2 1_555 1_555
C30_2 N7_2 1_555 1_555
C31_2 N8_2 1_555 1_555
C32_2 C31_2 1_555 1_555
C33_2 C32_2 1_555 1_555
H21_2 C33_2 1_555 1_555
C34_2 N10_2 1_555 1_555
H22_2 C34_2 1_555 1_555
C35_2 N10_2 1_555 1_555
H23_2 C35_2 1_555 1_555
C36_2 C32_2 1_555 1_555
H24_2 C36_2 1_555 1_555
N4_2 C13_2 1_555 1_555
N9_2 C31_2 1_555 1_555
C4_2 C5_2 1_555 1_555
C9_2 C10_2 1_555 1_555
C10_2 C12_2 1_555 1_555
C15_2 C16_2 1_555 1_555
C17_2 C18_2 1_555 1_555
C19_2 C20_2 1_555 1_555
C22_2 C23_2 1_555 1_555
C23_2 C30_2 1_555 1_555
C27_2 C28_2 1_555 1_555
C33_2 C34_2 1_555 1_555
C35_2 C36_2 1_555 1_555
Zn4 I3_3 1_555 1_555
I4_3 Zn3_2 1_555 1_555
I6_3 Zn4 1_555 1_555
N1_3 Zn4 1_555 1_555
N2_3 C11_3 1_555 1_555
N3_3 C11_3 1_555 1_555
N4_3 C12_3 1_555 1_555
N7_3 C29_3 1_555 1_555
N8_3 C30_3 1_555 1_555
N9_3 C29_3 1_555 1_555
N10_3 Zn3_2 1_555 1_555
N14 C25_3 1_555 1_555
C1_3 N1_3 1_555 1_555
H1_3 C1_3 1_555 1_555
C2_3 C1_3 1_555 1_555
H2_3 C2_3 1_555 1_555
C3_3 C2_3 1_555 1_555
C4_3 C3_3 1_555 1_555
H3_3 C4_3 1_555 1_555
C5_3 N1_3 1_555 1_555
H4_3 C5_3 1_555 1_555
C6_3 H5_3 1_555 1_555
C7_3 C6_3 1_555 1_555
H6_3 C7_3 1_555 1_555
C10_3 C6_3 1_555 1_555
C11_3 C3_3 1_555 1_555
C12_3 N2_3 1_555 1_555
C13_3 N3_3 1_555 1_555
C14_3 C13_3 1_555 1_555
H11_3 C17_3 1_555 1_555
C18_3 C14_3 1_555 1_555
H12_3 C18_3 1_555 1_555
H16_3 C22_3 1_555 1_555
C24_3 H17_3 1_555 1_555
C25_3 C24_3 1_555 1_555
H18_3 C25_3 1_555 1_555
C26_3 N14 1_555 1_555
H19_3 C26_3 1_555 1_555
C27_3 C26_3 1_555 1_555
H20_3 C27_3 1_555 1_555
C28_3 C24_3 1_555 1_555
C29_3 C28_3 1_555 1_555
C30_3 N7_3 1_555 1_555
C31_3 N8_3 1_555 1_555
C32_3 C31_3 1_555 1_555
C33_3 C32_3 1_555 1_555
H21_3 C33_3 1_555 1_555
C34_3 N10_3 1_555 1_555
H22_3 C34_3 1_555 1_555
C35_3 N10_3 1_555 1_555
H23_3 C35_3 1_555 1_555
C36_3 C32_3 1_555 1_555
H24_3 C36_3 1_555 1_555
N13_2 Zn3_2 1_555 1_555
N4_3 C13_3 1_555 1_555
N9_3 C31_3 1_555 1_555
C4_3 C5_3 1_555 1_555
C10_3 C12_3 1_555 1_555
C17_3 C18_3 1_555 1_555
C22_3 C23_3 1_555 1_555
C23_3 C30_3 1_555 1_555
C27_3 C28_3 1_555 1_555
C33_3 C34_3 1_555 1_555
C35_3 C36_3 1_555 1_555
C8_3 N13_2 1_555 1_555
H7_3 C8_3 1_555 1_555
Zn2_3 I1_3 1_555 1_555
I5_3 Zn2_3 1_555 1_555
N5_3 Zn2_3 1_555 1_555
N6_3 Zn2_3 1_555 1_555
C8_4 N11_2 1_555 1_555
H7_4 C8_4 1_555 1_555
C9_3 C8_4 1_555 1_555
H8_3 C9_3 1_555 1_555
H9_3 C15_3 1_555 1_555
C16_3 N5_3 1_555 1_555
H10_3 C16_3 1_555 1_555
C19_3 H13_3 1_555 1_555
C20_3 N6_3 1_555 1_555
H14_3 C20_3 1_555 1_555
C21_3 N6_3 1_555 1_555
H15_3 C21_3 1_555 1_555
Zn5_2 N11_2 1_555 1_555
C15_3 C16_3 1_555 1_555
C19_3 C20_3 1_555 1_555
Zn4_2 I3_4 1_555 1_555
Zn5_2 I2_3 1_555 1_555
I4_4 Zn5_2 1_555 1_555
I6_4 Zn4_2 1_555 1_555
N1_4 Zn4_2 1_555 1_555
N2_4 C11_4 1_555 1_555
N3_4 C11_4 1_555 1_555
N4_4 C12_4 1_555 1_555
N7_4 C29_4 1_555 1_555
N8_4 C30_4 1_555 1_555
N9_4 C29_4 1_555 1_555
N10_4 Zn5_2 1_555 1_555
N14_2 C25_4 1_555 1_555
C1_4 N1_4 1_555 1_555
H1_4 C1_4 1_555 1_555
C2_4 C1_4 1_555 1_555
H2_4 C2_4 1_555 1_555
C3_4 C2_4 1_555 1_555
C4_4 C3_4 1_555 1_555
H3_4 C4_4 1_555 1_555
C5_4 N1_4 1_555 1_555
H4_4 C5_4 1_555 1_555
C11_4 C3_4 1_555 1_555
C12_4 N2_4 1_555 1_555
C13_4 N3_4 1_555 1_555
C14_4 C13_4 1_555 1_555
H11_4 C17_4 1_555 1_555
C18_4 C14_4 1_555 1_555
H12_4 C18_4 1_555 1_555
H16_4 C22_4 1_555 1_555
C24_4 H17_4 1_555 1_555
C25_4 C24_4 1_555 1_555
H18_4 C25_4 1_555 1_555
C26_4 N14_2 1_555 1_555
H19_4 C26_4 1_555 1_555
C27_4 C26_4 1_555 1_555
H20_4 C27_4 1_555 1_555
C28_4 C24_4 1_555 1_555
C29_4 C28_4 1_555 1_555
C30_4 N7_4 1_555 1_555
C31_4 N8_4 1_555 1_555
C32_4 C31_4 1_555 1_555
C33_4 C32_4 1_555 1_555
H21_4 C33_4 1_555 1_555
C34_4 N10_4 1_555 1_555
H22_4 C34_4 1_555 1_555
C35_4 N10_4 1_555 1_555
H23_4 C35_4 1_555 1_555
C36_4 C32_4 1_555 1_555
H24_4 C36_4 1_555 1_555
N4_4 C13_4 1_555 1_555
N9_4 C31_4 1_555 1_555
C4_4 C5_4 1_555 1_555
C10_4 C12_4 1_555 1_555
C17_4 C18_4 1_555 1_555
C22_4 C23_4 1_555 1_555
C23_4 C30_4 1_555 1_555
C27_4 C28_4 1_555 1_555
C33_4 C34_4 1_555 1_555
C35_4 C36_4 1_555 1_555
C6_4 H5_4 1_555 1_555
C7_4 C6_4 1_555 1_555
H6_4 C7_4 1_555 1_555
Zn2_4 I1_4 1_555 1_555
I5_4 Zn2_4 1_555 1_555
N5_4 Zn2_4 1_555 1_555
N6_4 Zn2_4 1_555 1_555
H8_4 C9_4 1_555 1_555
H9_4 C15_4 1_555 1_555
C16_4 N5_4 1_555 1_555
H10_4 C16_4 1_555 1_555
C19_4 H13_4 1_555 1_555
C20_4 N6_4 1_555 1_555
H14_4 C20_4 1_555 1_555
C21_4 N6_4 1_555 1_555
H15_4 C21_4 1_555 1_555
C15_4 C16_4 1_555 1_555
C19_4 C20_4 1_555 1_555
Zn1_3 I3_5 1_555 1_555
I6_5 Zn1_3 1_555 1_555
N1_5 Zn1_3 1_555 1_555
N14_3 Zn1_3 1_555 1_555
N11_3 C7_5 1_555 1_555
C6_5 H5_5 1_555 1_555
C7_5 C6_5 1_555 1_555
H6_5 C7_5 1_555 1_555
C8_5 N11_3 1_555 1_555
H7_5 C8_5 1_555 1_555
Zn5_3 N11_3 1_555 1_555
Zn2_5 I1_5 1_555 1_555
I4_5 Zn3_3 1_555 1_555
I5_5 Zn2_5 1_555 1_555
N2_5 C11_5 1_555 1_555
N3_5 C11_5 1_555 1_555
N4_5 C12_5 1_555 1_555
N5_5 Zn2_5 1_555 1_555
N6_5 Zn2_5 1_555 1_555
N7_5 C29_5 1_555 1_555
N8_5 C30_5 1_555 1_555
N9_5 C29_5 1_555 1_555
N10_5 Zn3_3 1_555 1_555
N12_3 C25_5 1_555 1_555
H1_5 C1_5 1_555 1_555
C2_5 C1_5 1_555 1_555
H2_5 C2_5 1_555 1_555
C3_5 C2_5 1_555 1_555
C4_5 C3_5 1_555 1_555
H3_5 C4_5 1_555 1_555
H8_5 C9_5 1_555 1_555
C11_5 C3_5 1_555 1_555
C12_5 N2_5 1_555 1_555
C13_5 N3_5 1_555 1_555
C14_5 C13_5 1_555 1_555
C15_5 C14_5 1_555 1_555
H9_5 C15_5 1_555 1_555
C16_5 N5_5 1_555 1_555
H10_5 C16_5 1_555 1_555
C17_5 N5_5 1_555 1_555
H11_5 C17_5 1_555 1_555
C18_5 C14_5 1_555 1_555
H12_5 C18_5 1_555 1_555
C19_5 H13_5 1_555 1_555
C20_5 N6_5 1_555 1_555
H14_5 C20_5 1_555 1_555
C21_5 N6_5 1_555 1_555
H15_5 C21_5 1_555 1_555
C22_5 C21_5 1_555 1_555
H16_5 C22_5 1_555 1_555
C23_5 C19_5 1_555 1_555
C24_5 H17_5 1_555 1_555
C25_5 C24_5 1_555 1_555
H18_5 C25_5 1_555 1_555
C26_5 N12_3 1_555 1_555
H19_5 C26_5 1_555 1_555
C27_5 C26_5 1_555 1_555
H20_5 C27_5 1_555 1_555
C28_5 C24_5 1_555 1_555
C29_5 C28_5 1_555 1_555
C30_5 N7_5 1_555 1_555
C31_5 N8_5 1_555 1_555
C32_5 C31_5 1_555 1_555
C33_5 C32_5 1_555 1_555
H21_5 C33_5 1_555 1_555
C34_5 N10_5 1_555 1_555
H22_5 C34_5 1_555 1_555
C35_5 N10_5 1_555 1_555
H23_5 C35_5 1_555 1_555
C36_5 C32_5 1_555 1_555
H24_5 C36_5 1_555 1_555
Zn4_3 N12_3 1_555 1_555
N13_3 Zn3_3 1_555 1_555
N4_5 C13_5 1_555 1_555
N9_5 C31_5 1_555 1_555
C4_5 C5_5 1_555 1_555
C9_5 C10_5 1_555 1_555
C10_5 C12_5 1_555 1_555
C15_5 C16_5 1_555 1_555
C17_5 C18_5 1_555 1_555
C19_5 C20_5 1_555 1_555
C22_5 C23_5 1_555 1_555
C23_5 C30_5 1_555 1_555
C27_5 C28_5 1_555 1_555
C33_5 C34_5 1_555 1_555
C35_5 C36_5 1_555 1_555
Zn2_6 I1_6 1_555 1_555
Zn5_3 I2_5 1_555 1_555
I4_6 Zn5_3 1_555 1_555
I5_6 Zn2_6 1_555 1_555
N2_6 C11_6 1_555 1_555
N3_6 C11_6 1_555 1_555
N4_6 C12_6 1_555 1_555
N5_6 Zn2_6 1_555 1_555
N6_6 Zn2_6 1_555 1_555
N7_6 C29_6 1_555 1_555
N8_6 C30_6 1_555 1_555
N9_6 C29_6 1_555 1_555
N10_6 Zn5_3 1_555 1_555
N13_3 C7_6 1_555 1_555
N12_4 C25_6 1_555 1_555
H1_6 C1_6 1_555 1_555
C2_6 C1_6 1_555 1_555
H2_6 C2_6 1_555 1_555
C3_6 C2_6 1_555 1_555
C4_6 C3_6 1_555 1_555
H3_6 C4_6 1_555 1_555
C6_6 H5_6 1_555 1_555
C7_6 C6_6 1_555 1_555
H6_6 C7_6 1_555 1_555
C8_6 N13_3 1_555 1_555
H7_6 C8_6 1_555 1_555
C9_6 C8_6 1_555 1_555
H8_6 C9_6 1_555 1_555
C10_6 C6_6 1_555 1_555
C11_6 C3_6 1_555 1_555
C12_6 N2_6 1_555 1_555
C13_6 N3_6 1_555 1_555
C14_6 C13_6 1_555 1_555
C15_6 C14_6 1_555 1_555
H9_6 C15_6 1_555 1_555
C16_6 N5_6 1_555 1_555
H10_6 C16_6 1_555 1_555
C17_6 N5_6 1_555 1_555
H11_6 C17_6 1_555 1_555
C18_6 C14_6 1_555 1_555
H12_6 C18_6 1_555 1_555
C19_6 H13_6 1_555 1_555
C20_6 N6_6 1_555 1_555
H14_6 C20_6 1_555 1_555
C21_6 N6_6 1_555 1_555
H15_6 C21_6 1_555 1_555
C22_6 C21_6 1_555 1_555
H16_6 C22_6 1_555 1_555
C23_6 C19_6 1_555 1_555
C24_6 H17_6 1_555 1_555
C25_6 C24_6 1_555 1_555
H18_6 C25_6 1_555 1_555
C26_6 N12_4 1_555 1_555
H19_6 C26_6 1_555 1_555
C27_6 C26_6 1_555 1_555
H20_6 C27_6 1_555 1_555
C28_6 C24_6 1_555 1_555
C29_6 C28_6 1_555 1_555
C30_6 N7_6 1_555 1_555
C31_6 N8_6 1_555 1_555
C32_6 C31_6 1_555 1_555
C33_6 C32_6 1_555 1_555
H21_6 C33_6 1_555 1_555
C34_6 N10_6 1_555 1_555
H22_6 C34_6 1_555 1_555
C35_6 N10_6 1_555 1_555
H23_6 C35_6 1_555 1_555
C36_6 C32_6 1_555 1_555
H24_6 C36_6 1_555 1_555
N4_6 C13_6 1_555 1_555
N9_6 C31_6 1_555 1_555
C4_6 C5_6 1_555 1_555
C9_6 C10_6 1_555 1_555
C10_6 C12_6 1_555 1_555
C15_6 C16_6 1_555 1_555
C17_6 C18_6 1_555 1_555
C19_6 C20_6 1_555 1_555
C22_6 C23_6 1_555 1_555
C23_6 C30_6 1_555 1_555
C27_6 C28_6 1_555 1_555
C33_6 C34_6 1_555 1_555
C35_6 C36_6 1_555 1_555
Zn1_4 I3_6 1_555 1_555
I6_6 Zn1_4 1_555 1_555
N1_6 Zn1_4 1_555 1_555
Zn4_3 I3_7 1_555 1_555
I4_7 Zn3_4 1_555 1_555
I6_7 Zn4_3 1_555 1_555
N1_7 Zn4_3 1_555 1_555
N2_7 C11_7 1_555 1_555
N3_7 C11_7 1_555 1_555
N4_7 C12_7 1_555 1_555
N7_7 C29_7 1_555 1_555
N8_7 C30_7 1_555 1_555
N9_7 C29_7 1_555 1_555
N10_7 Zn3_4 1_555 1_555
N14_3 C25_7 1_555 1_555
C1_7 N1_7 1_555 1_555
H1_7 C1_7 1_555 1_555
C2_7 C1_7 1_555 1_555
H2_7 C2_7 1_555 1_555
C3_7 C2_7 1_555 1_555
C4_7 C3_7 1_555 1_555
H3_7 C4_7 1_555 1_555
C5_7 N1_7 1_555 1_555
H4_7 C5_7 1_555 1_555
C6_7 H5_7 1_555 1_555
C7_7 C6_7 1_555 1_555
H6_7 C7_7 1_555 1_555
C10_7 C6_7 1_555 1_555
C11_7 C3_7 1_555 1_555
C12_7 N2_7 1_555 1_555
C13_7 N3_7 1_555 1_555
C14_7 C13_7 1_555 1_555
H11_7 C17_7 1_555 1_555
C18_7 C14_7 1_555 1_555
H12_7 C18_7 1_555 1_555
H16_7 C22_7 1_555 1_555
C24_7 H17_7 1_555 1_555
C25_7 C24_7 1_555 1_555
H18_7 C25_7 1_555 1_555
C26_7 N14_3 1_555 1_555
H19_7 C26_7 1_555 1_555
C27_7 C26_7 1_555 1_555
H20_7 C27_7 1_555 1_555
C28_7 C24_7 1_555 1_555
C29_7 C28_7 1_555 1_555
C30_7 N7_7 1_555 1_555
C31_7 N8_7 1_555 1_555
C32_7 C31_7 1_555 1_555
C33_7 C32_7 1_555 1_555
H21_7 C33_7 1_555 1_555
C34_7 N10_7 1_555 1_555
H22_7 C34_7 1_555 1_555
C35_7 N10_7 1_555 1_555
H23_7 C35_7 1_555 1_555
C36_7 C32_7 1_555 1_555
H24_7 C36_7 1_555 1_555
N13_4 Zn3_4 1_555 1_555
N4_7 C13_7 1_555 1_555
N9_7 C31_7 1_555 1_555
C4_7 C5_7 1_555 1_555
C10_7 C12_7 1_555 1_555
C17_7 C18_7 1_555 1_555
C22_7 C23_7 1_555 1_555
C23_7 C30_7 1_555 1_555
C27_7 C28_7 1_555 1_555
C33_7 C34_7 1_555 1_555
C35_7 C36_7 1_555 1_555
C8_7 N13_4 1_555 1_555
H7_7 C8_7 1_555 1_555
Zn2_7 I1_7 1_555 1_555
I5_7 Zn2_7 1_555 1_555
N5_7 Zn2_7 1_555 1_555
N6_7 Zn2_7 1_555 1_555
C8_8 N11_4 1_555 1_555
H7_8 C8_8 1_555 1_555
C9_7 C8_8 1_555 1_555
H8_7 C9_7 1_555 1_555
H9_7 C15_7 1_555 1_555
C16_7 N5_7 1_555 1_555
H10_7 C16_7 1_555 1_555
C19_7 H13_7 1_555 1_555
C20_7 N6_7 1_555 1_555
H14_7 C20_7 1_555 1_555
C21_7 N6_7 1_555 1_555
H15_7 C21_7 1_555 1_555
Zn5_4 N11_4 1_555 1_555
C15_7 C16_7 1_555 1_555
C19_7 C20_7 1_555 1_555
Zn4_4 I3_8 1_555 1_555
Zn5_4 I2_7 1_555 1_555
I4_8 Zn5_4 1_555 1_555
I6_8 Zn4_4 1_555 1_555
N1_8 Zn4_4 1_555 1_555
N2_8 C11_8 1_555 1_555
N3_8 C11_8 1_555 1_555
N4_8 C12_8 1_555 1_555
N7_8 C29_8 1_555 1_555
N8_8 C30_8 1_555 1_555
N9_8 C29_8 1_555 1_555
N10_8 Zn5_4 1_555 1_555
N14_4 C25_8 1_555 1_555
C1_8 N1_8 1_555 1_555
H1_8 C1_8 1_555 1_555
C2_8 C1_8 1_555 1_555
H2_8 C2_8 1_555 1_555
C3_8 C2_8 1_555 1_555
C4_8 C3_8 1_555 1_555
H3_8 C4_8 1_555 1_555
C5_8 N1_8 1_555 1_555
H4_8 C5_8 1_555 1_555
C11_8 C3_8 1_555 1_555
C12_8 N2_8 1_555 1_555
C13_8 N3_8 1_555 1_555
C14_8 C13_8 1_555 1_555
H11_8 C17_8 1_555 1_555
C18_8 C14_8 1_555 1_555
H12_8 C18_8 1_555 1_555
H16_8 C22_8 1_555 1_555
C24_8 H17_8 1_555 1_555
C25_8 C24_8 1_555 1_555
H18_8 C25_8 1_555 1_555
C26_8 N14_4 1_555 1_555
H19_8 C26_8 1_555 1_555
C27_8 C26_8 1_555 1_555
H20_8 C27_8 1_555 1_555
C28_8 C24_8 1_555 1_555
C29_8 C28_8 1_555 1_555
C30_8 N7_8 1_555 1_555
C31_8 N8_8 1_555 1_555
C32_8 C31_8 1_555 1_555
C33_8 C32_8 1_555 1_555
H21_8 C33_8 1_555 1_555
C34_8 N10_8 1_555 1_555
H22_8 C34_8 1_555 1_555
C35_8 N10_8 1_555 1_555
H23_8 C35_8 1_555 1_555
C36_8 C32_8 1_555 1_555
H24_8 C36_8 1_555 1_555
N4_8 C13_8 1_555 1_555
N9_8 C31_8 1_555 1_555
C4_8 C5_8 1_555 1_555
C10_8 C12_8 1_555 1_555
C17_8 C18_8 1_555 1_555
C22_8 C23_8 1_555 1_555
C23_8 C30_8 1_555 1_555
C27_8 C28_8 1_555 1_555
C33_8 C34_8 1_555 1_555
C35_8 C36_8 1_555 1_555
Zn2_8 I1_8 1_555 1_555
I5_8 Zn2_8 1_555 1_555
N5_8 Zn2_8 1_555 1_555
N6_8 Zn2_8 1_555 1_555
H8_8 C9_8 1_555 1_555
H9_8 C15_8 1_555 1_555
C16_8 N5_8 1_555 1_555
H10_8 C16_8 1_555 1_555
C19_8 H13_8 1_555 1_555
C20_8 N6_8 1_555 1_555
H14_8 C20_8 1_555 1_555
C21_8 N6_8 1_555 1_555
H15_8 C21_8 1_555 1_555
C15_8 C16_8 1_555 1_555
C19_8 C20_8 1_555 1_555
C6_8 H5_8 1_555 1_555
C7_8 C6_8 1_555 1_555
H6_8 C7_8 1_555 1_555

#END
