
###############################################################################
#
# This file contains modified crystal structure data generated from the
# MOF subset of the Cambridge Structural Database (CSD) v543 
# hosted by the Cambridge Crystallographic Data Centre (CCDC).
#
# This work is licensed under the Creative Commons
# Attribution-NonCommercial-ShareAlike 4.0 International License.
# To view a copy of this license, visit
# http://creativecommons.org/licenses/by-nc-sa/4.0/
# or send a letter to
# Creative Commons, PO Box 1866, Mountain View, CA 94042, USA.
#
# CIF created using the CSD Python API on 29 September 2022
# The structure has been converted into the P1 space group
# The structure has a 3D framework
# The original CSD entry OSIMOV is in the orthorhombic crystal system
# The framework has been calculated to contain at least 10.0% void space
# The void calculation uses a probe of radius 1.32A, grid spacing 0.4
# H atom positions have been added when not included in the experimental data
#
###############################################################################

data_OSIMOV
_chemical_formula_moiety         '(C280 H216 O110 Th16)n'
_symmetry_cell_setting           triclinic
_symmetry_space_group_name_H-M   'P 1'
_symmetry_Int_Tables_number      1
_space_group_name_Hall           'P 1'
loop_
_symmetry_equiv_pos_site_id
_symmetry_equiv_pos_as_xyz
1 x,y,z
_cell_length_a                   33.443(2)
_cell_length_b                   16.4404(9)
_cell_length_c                   20.0127(12)
_cell_angle_alpha                90
_cell_angle_beta                 90
_cell_angle_gamma                90
_cell_volume                     11003.3
loop_
_atom_site_label
_atom_site_type_symbol
_atom_site_fract_x
_atom_site_fract_y
_atom_site_fract_z
O1 O 0.2362(3) -0.0000 0.5000
Th2 Th 0.25475(2) 0.13395(3) 0.47766(2)
O10 O 0.2762(2) 0.2431(5) 0.5479(3)
O11 O 0.1842(3) 0.1026(7) 0.4381(7)
O12 O 0.2473(4) 0.1228(9) 0.3607(9)
O13 O 0.2238(2) 0.2569(5) 0.4521(3)
O14 O 0.2072(3) 0.1501(5) 0.5678(5)
O15 O 0.3073(3) 0.2176(6) 0.4247(5)
O16 O 0.2931(4) 0.0862(7) 0.5691(6)
O17 O 0.3085(4) 0.0488(7) 0.4336(8)
Th4 Th 0.24525(2) 0.36605(3) 0.52234(2)
H23 H 0.167579 0.0857221 0.476808
H24 H 0.172422 0.151918 0.417287
H25 H 0.219227 0.1081 0.349956
H26 H 0.253998 0.175638 0.339426
Th5 Th 0.25475(2) 0.63395(3) 0.02234(2)
Th9 Th 0.74525(2) 0.63395(3) 0.02234(2)
Th1 Th 0.25475(2) 0.86605(3) 0.52234(2)
O1_2 O 0.2362(3) 1.0000 0.5000
O2 O 0.2762(2) 0.7569(5) 0.4521(3)
O3 O 0.3073(3) 0.7824(6) 0.5753(5)
O4 O 0.1842(3) 0.8974(7) 0.5619(7)
O5 O 0.2473(4) 0.8772(9) 0.6393(9)
O6 O 0.2072(3) 0.8499(5) 0.4322(5)
O7 O 0.2931(4) 0.9138(7) 0.4309(6)
O8 O 0.3085(4) 0.9512(7) 0.5664(8)
C1 C 0.3153(4) 0.7073(9) 0.5844(8)
C2 C 0.3541(4) 0.6895(9) 0.6204(7)
C3 C 0.3622(4) 0.6094(8) 0.6369(7)
C4 C 0.3816(5) 0.7476(11) 0.6310(10)
H1 H 0.3435 0.5680 0.6262
C5 C 0.3971(4) 0.5898(9) 0.6685(7)
C6 C 0.4180(5) 0.7302(10) 0.6620(10)
H2 H 0.3762 0.8018 0.6172
C7 C 0.4253(4) 0.6516(9) 0.6833(7)
H3 H 0.4024 0.5350 0.6805
H4 H 0.4374 0.7716 0.6683
C8 C 0.4631(4) 0.6316(8) 0.7185(8)
C9 C 0.5000 0.6493(13) 0.6893(11)
C10 C 0.4637(4) 0.5920(10) 0.7811(7)
H5 H 0.5000 0.6750 0.6468
C11 C 0.5000 0.5757(12) 0.8107(10)
C12 C 0.4261(4) 0.5757(9) 0.8172(7)
H6 H 0.5000 0.5519 0.8539
C13 C 0.3991(4) 0.6363(8) 0.8317(8)
C14 C 0.4185(5) 0.4966(9) 0.8411(9)
H7 H 0.4051 0.6903 0.8180
C15 C 0.3637(4) 0.6222(9) 0.8651(9)
H8 H 0.4375 0.4543 0.8347
C16 C 0.3824(5) 0.4812(11) 0.8744(10)
H9 H 0.3457 0.6657 0.8739
C17 C 0.3544(4) 0.5420(9) 0.8863(8)
H10 H 0.3769 0.4275 0.8893
C18 C 0.3163(5) 0.5251(10) 0.9205(10)
O9 O 0.2238(2) 0.7431(5) 0.5479(3)
Th3 Th 0.24525(2) 0.63395(3) 0.47766(2)
O18 O 0.2928(3) 0.6501(5) 0.5678(5)
C19 C 0.5369(4) 0.6316(8) 0.7185(8)
C20 C 0.5747(4) 0.6516(9) 0.6833(7)
C21 C 0.5363(4) 0.5920(10) 0.7811(7)
C22 C 0.6029(4) 0.5898(9) 0.6685(7)
C23 C 0.5820(5) 0.7302(10) 0.6620(10)
C24 C 0.5739(4) 0.5757(9) 0.8172(7)
C25 C 0.6378(4) 0.6094(8) 0.6369(7)
H11 H 0.5976 0.5350 0.6805
H12 H 0.5626 0.7716 0.6683
C26 C 0.6184(5) 0.7476(11) 0.6310(10)
C27 C 0.6009(4) 0.6363(8) 0.8317(8)
C28 C 0.5815(5) 0.4966(9) 0.8411(9)
C29 C 0.6459(4) 0.6895(9) 0.6204(7)
H13 H 0.6565 0.5680 0.6262
H14 H 0.6238 0.8018 0.6172
H15 H 0.5949 0.6903 0.8180
C30 C 0.6363(4) 0.6222(9) 0.8651(9)
H16 H 0.5625 0.4543 0.8347
C31 C 0.6176(5) 0.4812(11) 0.8744(10)
C32 C 0.6847(4) 0.7073(9) 0.5844(8)
H17 H 0.6543 0.6657 0.8739
C33 C 0.6456(4) 0.5420(9) 0.8863(8)
H18 H 0.6231 0.4275 0.8893
O19 O 0.2931(4) 0.5862(7) 0.9309(6)
O20 O 0.3085(4) 0.4512(7) 0.9336(8)
O21 O 0.7072(3) 0.6501(5) 0.5678(5)
O22 O 0.6927(3) 0.7824(6) 0.5753(5)
C34 C 0.6837(5) 0.5251(10) 0.9205(10)
Th6 Th 0.25475(2) 0.36605(3) 0.97766(2)
Th7 Th 0.75475(2) 0.63395(3) 0.47766(2)
Th8 Th 0.74525(2) 0.86605(3) 0.52234(2)
O23 O 0.7069(4) 0.5862(7) 0.9309(6)
O24 O 0.6915(4) 0.4512(7) 0.9336(8)
Th10 Th 0.74525(2) 0.36605(3) 0.97766(2)
H19 H 0.219227 0.8919 0.650044
H20 H 0.253998 0.824362 0.660574
H21 H 0.167579 0.914278 0.523192
H22 H 0.172422 0.848082 0.582713
C14_2 C 0.5815(5) 0.0034(9) 0.3411(9)
H8_2 H 0.5625 0.0457 0.3347
C16_2 C 0.6176(5) 0.0188(11) 0.3744(10)
H10_2 H 0.6231 0.0725 0.3893
C28_2 C 0.4185(5) 0.0034(9) 0.3411(9)
H16_2 H 0.4375 0.0457 0.3347
C31_2 C 0.3824(5) 0.0188(11) 0.3744(10)
H18_2 H 0.3769 0.0725 0.3893
O20_2 O 0.6915(4) 0.0488(7) 0.4336(8)
Th6_2 Th 0.74525(2) 0.13395(3) 0.47766(2)
O1_3 O 0.7638(3) 0.5000 0.0000
O3_2 O 0.6927(3) 0.7176(6) 0.0753(5)
O4_2 O 0.8158(3) 0.6026(7) 0.0619(7)
O5_2 O 0.7527(4) 0.6228(9) 0.1393(9)
O8_2 O 0.6915(4) 0.5488(7) 0.0664(8)
C1_2 C 0.6847(4) 0.7927(9) 0.0844(8)
C2_2 C 0.6459(4) 0.8105(9) 0.1204(7)
C3_2 C 0.6378(4) 0.8906(8) 0.1369(7)
C4_2 C 0.6184(5) 0.7524(11) 0.1310(10)
H1_2 H 0.6565 0.9320 0.1262
C5_2 C 0.6029(4) 0.9102(9) 0.1685(7)
C6_2 C 0.5820(5) 0.7698(10) 0.1620(10)
H2_2 H 0.6238 0.6982 0.1172
C7_2 C 0.5747(4) 0.8484(9) 0.1833(7)
H3_2 H 0.5976 0.9650 0.1805
H4_2 H 0.5626 0.7284 0.1683
C8_2 C 0.5369(4) 0.8684(8) 0.2185(8)
C9_2 C 0.5000 0.8507(13) 0.1893(11)
C10_2 C 0.5363(4) 0.9080(10) 0.2811(7)
H5_2 H 0.5000 0.8250 0.1468
C11_2 C 0.5000 0.9243(12) 0.3107(10)
C12_2 C 0.5739(4) 0.9243(9) 0.3172(7)
H6_2 H 0.5000 0.9481 0.3539
C13_2 C 0.6009(4) 0.8637(8) 0.3317(8)
H7_2 H 0.5949 0.8097 0.3180
C15_2 C 0.6363(4) 0.8778(9) 0.3651(9)
H9_2 H 0.6543 0.8343 0.3739
C17_2 C 0.6456(4) 0.9580(9) 0.3863(8)
C18_2 C 0.6837(5) 0.9749(10) 0.4205(10)
O9_2 O 0.7762(2) 0.7569(5) 0.0479(3)
O10_2 O 0.7238(2) 0.2569(5) 0.0479(3)
O14_2 O 0.7928(3) 0.3499(5) 0.0678(5)
O16_2 O 0.7069(4) 0.4138(7) 0.0691(6)
O18_2 O 0.7072(3) 0.8499(5) 0.0678(5)
Th4_2 Th 0.75475(2) 0.13395(3) 0.02234(2)
C19_2 C 0.4631(4) 0.8684(8) 0.2185(8)
C20_2 C 0.4253(4) 0.8484(9) 0.1833(7)
C21_2 C 0.4637(4) 0.9080(10) 0.2811(7)
C22_2 C 0.3971(4) 0.9102(9) 0.1685(7)
C23_2 C 0.4180(5) 0.7698(10) 0.1620(10)
C24_2 C 0.4261(4) 0.9243(9) 0.3172(7)
C25_2 C 0.3622(4) 0.8906(8) 0.1369(7)
H11_2 H 0.4024 0.9650 0.1805
H12_2 H 0.4374 0.7284 0.1683
C26_2 C 0.3816(5) 0.7524(11) 0.1310(10)
C27_2 C 0.3991(4) 0.8637(8) 0.3317(8)
C29_2 C 0.3541(4) 0.8105(9) 0.1204(7)
H13_2 H 0.3435 0.9320 0.1262
H14_2 H 0.3762 0.6982 0.1172
H15_2 H 0.4051 0.8097 0.3180
C30_2 C 0.3637(4) 0.8778(9) 0.3651(9)
C32_2 C 0.3153(4) 0.7927(9) 0.0844(8)
H17_2 H 0.3457 0.8343 0.3739
C33_2 C 0.3544(4) 0.9580(9) 0.3863(8)
O19_2 O 0.7069(4) 0.9138(7) 0.4309(6)
O21_2 O 0.2928(3) 0.8499(5) 0.0678(5)
O22_2 O 0.3073(3) 0.7176(6) 0.0753(5)
C34_2 C 0.3163(5) 0.9749(10) 0.4205(10)
H19_2 H 0.780773 0.6081 0.150044
H20_2 H 0.746002 0.675638 0.160574
H21_2 H 0.832421 0.585722 0.0231925
H22_2 H 0.827578 0.651918 0.082713
O1_4 O 0.7638(3) 0.5000 1.0000
O2_2 O 0.7238(2) 0.7431(5) 0.9521(3)
O6_2 O 0.7928(3) 0.6501(5) 0.9322(5)
Th3_2 Th 0.75475(2) 0.86605(3) 0.97766(2)
O11_2 O 0.8158(3) 0.3974(7) 0.9381(7)
O12_2 O 0.7527(4) 0.3772(9) 0.8607(9)
O13_2 O 0.7762(2) 0.2431(5) 0.9521(3)
O15_2 O 0.6927(3) 0.2824(6) 0.9247(5)
Th7_2 Th 0.24525(2) 0.86605(3) 0.97766(2)
H23_2 H 0.832421 0.414278 0.976808
H24_2 H 0.827578 0.348082 0.917287
H25_2 H 0.780773 0.3919 0.849956
H26_2 H 0.746002 0.324362 0.839426
Th7_3 Th 0.24525(2) 0.13395(3) 0.02234(2)
C1_3 C 0.6847(4) 0.2073(9) 0.9156(8)
C2_3 C 0.6459(4) 0.1895(9) 0.8796(7)
C3_3 C 0.6378(4) 0.1094(8) 0.8631(7)
C4_3 C 0.6184(5) 0.2476(11) 0.8690(10)
H1_3 H 0.6565 0.0680 0.8738
C5_3 C 0.6029(4) 0.0898(9) 0.8315(7)
C6_3 C 0.5820(5) 0.2302(10) 0.8380(10)
H2_3 H 0.6238 0.3018 0.8828
C7_3 C 0.5747(4) 0.1516(9) 0.8167(7)
H3_3 H 0.5976 0.0350 0.8195
H4_3 H 0.5626 0.2716 0.8317
C8_3 C 0.5369(4) 0.1316(8) 0.7815(8)
C9_3 C 0.5000 0.1493(13) 0.8107(11)
C10_3 C 0.5363(4) 0.0920(10) 0.7189(7)
H5_3 H 0.5000 0.1750 0.8532
C11_3 C 0.5000 0.0757(12) 0.6893(10)
C12_3 C 0.5739(4) 0.0757(9) 0.6828(7)
H6_3 H 0.5000 0.0519 0.6461
C13_3 C 0.6009(4) 0.1363(8) 0.6683(8)
H7_3 H 0.5949 0.1903 0.6820
C15_3 C 0.6363(4) 0.1222(9) 0.6349(9)
H9_3 H 0.6543 0.1657 0.6261
C17_3 C 0.6456(4) 0.0420(9) 0.6137(8)
C18_3 C 0.6837(5) 0.0251(10) 0.5795(10)
O18_3 O 0.7072(3) 0.1501(5) 0.9322(5)
C19_3 C 0.4631(4) 0.1316(8) 0.7815(8)
C20_3 C 0.4253(4) 0.1516(9) 0.8167(7)
C21_3 C 0.4637(4) 0.0920(10) 0.7189(7)
C22_3 C 0.3971(4) 0.0898(9) 0.8315(7)
C23_3 C 0.4180(5) 0.2302(10) 0.8380(10)
C24_3 C 0.4261(4) 0.0757(9) 0.6828(7)
C25_3 C 0.3622(4) 0.1094(8) 0.8631(7)
H11_3 H 0.4024 0.0350 0.8195
H12_3 H 0.4374 0.2716 0.8317
C26_3 C 0.3816(5) 0.2476(11) 0.8690(10)
C27_3 C 0.3991(4) 0.1363(8) 0.6683(8)
C29_3 C 0.3541(4) 0.1895(9) 0.8796(7)
H13_3 H 0.3435 0.0680 0.8738
H14_3 H 0.3762 0.3018 0.8828
H15_3 H 0.4051 0.1903 0.6820
C30_3 C 0.3637(4) 0.1222(9) 0.6349(9)
C32_3 C 0.3153(4) 0.2073(9) 0.9156(8)
H17_3 H 0.3457 0.1657 0.6261
C33_3 C 0.3544(4) 0.0420(9) 0.6137(8)
O19_3 O 0.7069(4) 0.0862(7) 0.5691(6)
O21_3 O 0.2928(3) 0.1501(5) 0.9322(5)
O22_3 O 0.3073(3) 0.2824(6) 0.9247(5)
C34_3 C 0.3163(5) 0.0251(10) 0.5795(10)
C14_3 C 0.5815(5) 0.9966(9) 0.6589(9)
H8_3 H 0.5625 0.9543 0.6653
C16_3 C 0.6176(5) 0.9812(11) 0.6256(10)
H10_3 H 0.6231 0.9275 0.6107
C28_3 C 0.4185(5) 0.9966(9) 0.6589(9)
H16_3 H 0.4375 0.9543 0.6653
C31_3 C 0.3824(5) 0.9812(11) 0.6256(10)
H18_3 H 0.3769 0.9275 0.6107
O20_3 O 0.6915(4) 0.9512(7) 0.5664(8)
C1_4 C 0.3153(4) 0.2927(9) 0.4156(8)
C2_4 C 0.3541(4) 0.3105(9) 0.3796(7)
C3_4 C 0.3622(4) 0.3906(8) 0.3631(7)
C4_4 C 0.3816(5) 0.2524(11) 0.3690(10)
H1_4 H 0.3435 0.4320 0.3738
C5_4 C 0.3971(4) 0.4102(9) 0.3315(7)
C6_4 C 0.4180(5) 0.2698(10) 0.3380(10)
H2_4 H 0.3762 0.1982 0.3828
C7_4 C 0.4253(4) 0.3484(9) 0.3167(7)
H3_4 H 0.4024 0.4650 0.3195
H4_4 H 0.4374 0.2284 0.3317
C8_4 C 0.4631(4) 0.3684(8) 0.2815(8)
C9_4 C 0.5000 0.3507(13) 0.3107(11)
C10_4 C 0.4637(4) 0.4080(10) 0.2189(7)
H5_4 H 0.5000 0.3250 0.3532
C11_4 C 0.5000 0.4243(12) 0.1893(10)
C12_4 C 0.4261(4) 0.4243(9) 0.1828(7)
H6_4 H 0.5000 0.4481 0.1461
C13_4 C 0.3991(4) 0.3637(8) 0.1683(8)
C14_4 C 0.4185(5) 0.5034(9) 0.1589(9)
H7_4 H 0.4051 0.3097 0.1820
C15_4 C 0.3637(4) 0.3778(9) 0.1349(9)
H8_4 H 0.4375 0.5457 0.1653
C16_4 C 0.3824(5) 0.5188(11) 0.1256(10)
H9_4 H 0.3457 0.3343 0.1261
C17_4 C 0.3544(4) 0.4580(9) 0.1137(8)
H10_4 H 0.3769 0.5725 0.1107
C18_4 C 0.3163(5) 0.4749(10) 0.0795(10)
O18_4 O 0.2928(3) 0.3499(5) 0.4322(5)
C19_4 C 0.5369(4) 0.3684(8) 0.2815(8)
C20_4 C 0.5747(4) 0.3484(9) 0.3167(7)
C21_4 C 0.5363(4) 0.4080(10) 0.2189(7)
C22_4 C 0.6029(4) 0.4102(9) 0.3315(7)
C23_4 C 0.5820(5) 0.2698(10) 0.3380(10)
C24_4 C 0.5739(4) 0.4243(9) 0.1828(7)
C25_4 C 0.6378(4) 0.3906(8) 0.3631(7)
H11_4 H 0.5976 0.4650 0.3195
H12_4 H 0.5626 0.2284 0.3317
C26_4 C 0.6184(5) 0.2524(11) 0.3690(10)
C27_4 C 0.6009(4) 0.3637(8) 0.1683(8)
C28_4 C 0.5815(5) 0.5034(9) 0.1589(9)
C29_4 C 0.6459(4) 0.3105(9) 0.3796(7)
H13_4 H 0.6565 0.4320 0.3738
H14_4 H 0.6238 0.1982 0.3828
H15_4 H 0.5949 0.3097 0.1820
C30_4 C 0.6363(4) 0.3778(9) 0.1349(9)
H16_4 H 0.5625 0.5457 0.1653
C31_4 C 0.6176(5) 0.5188(11) 0.1256(10)
C32_4 C 0.6847(4) 0.2927(9) 0.4156(8)
H17_4 H 0.6543 0.3343 0.1261
C33_4 C 0.6456(4) 0.4580(9) 0.1137(8)
H18_4 H 0.6231 0.5725 0.1107
O19_4 O 0.2931(4) 0.4138(7) 0.0691(6)
O20_4 O 0.3085(4) 0.5488(7) 0.0664(8)
O21_4 O 0.7072(3) 0.3499(5) 0.4322(5)
O22_4 O 0.6927(3) 0.2176(6) 0.4247(5)
C34_4 C 0.6837(5) 0.4749(10) 0.0795(10)
Th7_4 Th 0.75475(2) 0.36605(3) 0.52234(2)
C9_5 C -0.0000 0.1493(13) 0.6893(11)
H5_5 H 0.0000 0.1750 0.6468
C11_5 C -0.0000 0.0757(12) 0.8107(10)
H6_5 H -0.0000 0.0519 0.8539
C19_5 C 0.0369(4) 0.1316(8) 0.7185(8)
C20_5 C 0.0747(4) 0.1516(9) 0.6833(7)
C21_5 C 0.0363(4) 0.0920(10) 0.7811(7)
C22_5 C 0.1029(4) 0.0898(9) 0.6685(7)
C23_5 C 0.0820(5) 0.2302(10) 0.6620(10)
C24_5 C 0.0739(4) 0.0757(9) 0.8172(7)
C25_5 C 0.1378(4) 0.1094(8) 0.6369(7)
H11_5 H 0.0976 0.0350 0.6805
H12_5 H 0.0626 0.2716 0.6683
C26_5 C 0.1184(5) 0.2476(11) 0.6310(10)
C27_5 C 0.1009(4) 0.1363(8) 0.8317(8)
C29_5 C 0.1459(4) 0.1895(9) 0.6204(7)
H13_5 H 0.1565 0.0680 0.6262
H14_5 H 0.1238 0.3018 0.6172
H15_5 H 0.0949 0.1903 0.8180
C30_5 C 0.1363(4) 0.1222(9) 0.8651(9)
C32_5 C 0.1847(4) 0.2073(9) 0.5844(8)
H17_5 H 0.1543 0.1657 0.8739
C33_5 C 0.1456(4) 0.0420(9) 0.8863(8)
O22_5 O 0.1927(3) 0.2824(6) 0.5753(5)
C34_5 C 0.1837(5) 0.0251(10) 0.9205(10)
O23_2 O 0.2069(4) 0.0862(7) 0.9309(6)
C28_5 C 0.0815(5) 0.9966(9) 0.8411(9)
H16_5 H 0.0625 0.9543 0.8347
C31_5 C 0.1176(5) 0.9812(11) 0.8744(10)
H18_5 H 0.1231 0.9275 0.8893
O24_2 O 0.1915(4) 0.9512(7) 0.9336(8)
O1_5 O 0.7362(3) 0.5000 0.5000
O2_3 O 0.7762(2) 0.2569(5) 0.4521(3)
O3_3 O 0.8073(3) 0.2824(6) 0.5753(5)
O4_3 O 0.6842(3) 0.3974(7) 0.5619(7)
O5_3 O 0.7473(4) 0.3772(9) 0.6393(9)
O7_2 O 0.7931(4) 0.4138(7) 0.4309(6)
O8_3 O 0.8085(4) 0.4512(7) 0.5664(8)
C1_5 C 0.8153(4) 0.2073(9) 0.5844(8)
C2_5 C 0.8541(4) 0.1895(9) 0.6204(7)
C3_5 C 0.8622(4) 0.1094(8) 0.6369(7)
C4_5 C 0.8816(5) 0.2476(11) 0.6310(10)
H1_5 H 0.8435 0.0680 0.6262
C5_5 C 0.8971(4) 0.0898(9) 0.6685(7)
C6_5 C 0.9180(5) 0.2302(10) 0.6620(10)
H2_5 H 0.8762 0.3018 0.6172
C7_5 C 0.9253(4) 0.1516(9) 0.6833(7)
H3_5 H 0.9024 0.0350 0.6805
H4_5 H 0.9374 0.2716 0.6683
C8_5 C 0.9631(4) 0.1316(8) 0.7185(8)
C9_6 C 1.0000 0.1493(13) 0.6893(11)
C10_5 C 0.9637(4) 0.0920(10) 0.7811(7)
H5_6 H 1.0000 0.1750 0.6468
C11_6 C 1.0000 0.0757(12) 0.8107(10)
C12_5 C 0.9261(4) 0.0757(9) 0.8172(7)
H6_6 H 1.0000 0.0519 0.8539
C13_5 C 0.8991(4) 0.1363(8) 0.8317(8)
H7_5 H 0.9051 0.1903 0.8180
C15_5 C 0.8637(4) 0.1222(9) 0.8651(9)
H9_5 H 0.8457 0.1657 0.8739
C17_5 C 0.8544(4) 0.0420(9) 0.8863(8)
C18_5 C 0.8163(5) 0.0251(10) 0.9205(10)
O9_3 O 0.7238(2) 0.2431(5) 0.5479(3)
O10_3 O 0.7762(2) 0.7431(5) 0.5479(3)
O11_3 O 0.6842(3) 0.6026(7) 0.4381(7)
O12_3 O 0.7473(4) 0.6228(9) 0.3607(9)
O13_3 O 0.7238(2) 0.7569(5) 0.4521(3)
O15_3 O 0.8073(3) 0.7176(6) 0.4247(5)
O16_3 O 0.7931(4) 0.5862(7) 0.5691(6)
O17_2 O 0.8085(4) 0.5488(7) 0.4336(8)
O18_5 O 0.7928(3) 0.1501(5) 0.5678(5)
O19_5 O 0.7931(4) 0.0862(7) 0.9309(6)
H19_3 H 0.719227 0.3919 0.650044
H20_3 H 0.753998 0.324362 0.660574
H21_3 H 0.667579 0.414278 0.523192
H22_3 H 0.672422 0.348082 0.582713
H23_3 H 0.667579 0.585722 0.476808
H24_3 H 0.672422 0.651918 0.417287
H25_3 H 0.719227 0.6081 0.349956
H26_3 H 0.753998 0.675638 0.339426
C14_5 C 0.9185(5) 0.9966(9) 0.8411(9)
H8_5 H 0.9375 0.9543 0.8347
C16_5 C 0.8824(5) 0.9812(11) 0.8744(10)
H10_5 H 0.8769 0.9275 0.8893
O20_5 O 0.8085(4) 0.9512(7) 0.9336(8)
O1_6 O 0.2638(3) 0.0000 0.0000
O3_4 O 0.1927(3) 0.2176(6) 0.0753(5)
O4_4 O 0.3158(3) 0.1026(7) 0.0619(7)
O5_4 O 0.2527(4) 0.1228(9) 0.1393(9)
O8_4 O 0.1915(4) 0.0488(7) 0.0664(8)
C1_6 C 0.1847(4) 0.2927(9) 0.0844(8)
C2_6 C 0.1459(4) 0.3105(9) 0.1204(7)
C3_6 C 0.1378(4) 0.3906(8) 0.1369(7)
C4_6 C 0.1184(5) 0.2524(11) 0.1310(10)
H1_6 H 0.1565 0.4320 0.1262
C5_6 C 0.1029(4) 0.4102(9) 0.1685(7)
C6_6 C 0.0820(5) 0.2698(10) 0.1620(10)
H2_6 H 0.1238 0.1982 0.1172
C7_6 C 0.0747(4) 0.3484(9) 0.1833(7)
H3_6 H 0.0976 0.4650 0.1805
H4_6 H 0.0626 0.2284 0.1683
C8_6 C 0.0369(4) 0.3684(8) 0.2185(8)
C9_7 C 0.0000 0.3507(13) 0.1893(11)
C10_6 C 0.0363(4) 0.4080(10) 0.2811(7)
H5_7 H 0.0000 0.3250 0.1468
C11_7 C 0.0000 0.4243(12) 0.3107(10)
C12_6 C 0.0739(4) 0.4243(9) 0.3172(7)
H6_7 H 0.0000 0.4481 0.3539
C13_6 C 0.1009(4) 0.3637(8) 0.3317(8)
C14_6 C 0.0815(5) 0.5034(9) 0.3411(9)
H7_6 H 0.0949 0.3097 0.3180
C15_6 C 0.1363(4) 0.3778(9) 0.3651(9)
H8_6 H 0.0625 0.5457 0.3347
C16_6 C 0.1176(5) 0.5188(11) 0.3744(10)
H9_6 H 0.1543 0.3343 0.3739
C17_6 C 0.1456(4) 0.4580(9) 0.3863(8)
H10_6 H 0.1231 0.5725 0.3893
C18_6 C 0.1837(5) 0.4749(10) 0.4205(10)
O9_4 O 0.2762(2) 0.2569(5) 0.0479(3)
O18_6 O 0.2072(3) 0.3499(5) 0.0678(5)
O19_6 O 0.2069(4) 0.4138(7) 0.4309(6)
O20_6 O 0.1915(4) 0.5488(7) 0.4336(8)
H19_4 H 0.280773 0.1081 0.150044
H20_4 H 0.246002 0.175638 0.160574
H21_4 H 0.332421 0.0857221 0.0231925
H22_4 H 0.327578 0.151918 0.082713
O1_7 O 0.2638(3) 0.0000 1.0000
O2_4 O 0.2238(2) 0.2431(5) 0.9521(3)
O1_8 O 0.2638(3) 1.0000 0.0000
O10_4 O 0.2238(2) 0.7569(5) 0.0479(3)
O16_4 O 0.2069(4) 0.9138(7) 0.0691(6)
O1_9 O 0.2638(3) 1.0000 1.0000
O11_4 O 0.3158(3) 0.8974(7) 0.9381(7)
O12_4 O 0.2527(4) 0.8772(9) 0.8607(9)
O13_4 O 0.2762(2) 0.7431(5) 0.9521(3)
O15_4 O 0.1927(3) 0.7824(6) 0.9247(5)
H23_4 H 0.332421 0.914278 0.976808
H24_4 H 0.327578 0.848082 0.917287
H25_4 H 0.280773 0.8919 0.849956
H26_4 H 0.246002 0.824362 0.839426
C9_8 C 1.0000 0.3507(13) 0.1893(11)
H5_8 H 1.0000 0.3250 0.1468
C11_8 C 1.0000 0.4243(12) 0.3107(10)
H6_8 H 1.0000 0.4481 0.3539
C19_6 C 0.9631(4) 0.3684(8) 0.2185(8)
C20_6 C 0.9253(4) 0.3484(9) 0.1833(7)
C21_6 C 0.9637(4) 0.4080(10) 0.2811(7)
C22_6 C 0.8971(4) 0.4102(9) 0.1685(7)
C23_6 C 0.9180(5) 0.2698(10) 0.1620(10)
C24_6 C 0.9261(4) 0.4243(9) 0.3172(7)
C25_6 C 0.8622(4) 0.3906(8) 0.1369(7)
H11_6 H 0.9024 0.4650 0.1805
H12_6 H 0.9374 0.2284 0.1683
C26_6 C 0.8816(5) 0.2524(11) 0.1310(10)
C27_6 C 0.8991(4) 0.3637(8) 0.3317(8)
C28_6 C 0.9185(5) 0.5034(9) 0.3411(9)
C29_6 C 0.8541(4) 0.3105(9) 0.1204(7)
H13_6 H 0.8435 0.4320 0.1262
H14_6 H 0.8762 0.1982 0.1172
H15_6 H 0.9051 0.3097 0.3180
C30_6 C 0.8637(4) 0.3778(9) 0.3651(9)
H16_6 H 0.9375 0.5457 0.3347
C31_6 C 0.8824(5) 0.5188(11) 0.3744(10)
C32_6 C 0.8153(4) 0.2927(9) 0.0844(8)
H17_6 H 0.8457 0.3343 0.3739
C33_6 C 0.8544(4) 0.4580(9) 0.3863(8)
H18_6 H 0.8769 0.5725 0.3893
O22_6 O 0.8073(3) 0.2176(6) 0.0753(5)
C34_6 C 0.8163(5) 0.4749(10) 0.4205(10)
C1_7 C 0.1847(4) 0.7073(9) 0.9156(8)
C2_7 C 0.1459(4) 0.6895(9) 0.8796(7)
C3_7 C 0.1378(4) 0.6094(8) 0.8631(7)
C4_7 C 0.1184(5) 0.7476(11) 0.8690(10)
H1_7 H 0.1565 0.5680 0.8738
C5_7 C 0.1029(4) 0.5898(9) 0.8315(7)
C6_7 C 0.0820(5) 0.7302(10) 0.8380(10)
H2_7 H 0.1238 0.8018 0.8828
C7_7 C 0.0747(4) 0.6516(9) 0.8167(7)
H3_7 H 0.0976 0.5350 0.8195
H4_7 H 0.0626 0.7716 0.8317
C8_7 C 0.0369(4) 0.6316(8) 0.7815(8)
C9_9 C 0.0000 0.6493(13) 0.8107(11)
C10_7 C 0.0363(4) 0.5920(10) 0.7189(7)
H5_9 H 0.0000 0.6750 0.8532
C11_9 C 0.0000 0.5757(12) 0.6893(10)
C12_7 C 0.0739(4) 0.5757(9) 0.6828(7)
H6_9 H 0.0000 0.5519 0.6461
C13_7 C 0.1009(4) 0.6363(8) 0.6683(8)
C14_7 C 0.0815(5) 0.4966(9) 0.6589(9)
H7_7 H 0.0949 0.6903 0.6820
C15_7 C 0.1363(4) 0.6222(9) 0.6349(9)
H8_7 H 0.0625 0.4543 0.6653
C16_7 C 0.1176(5) 0.4812(11) 0.6256(10)
H9_7 H 0.1543 0.6657 0.6261
C17_7 C 0.1456(4) 0.5420(9) 0.6137(8)
H10_7 H 0.1231 0.4275 0.6107
C18_7 C 0.1837(5) 0.5251(10) 0.5795(10)
O18_7 O 0.2072(3) 0.6501(5) 0.9322(5)
O19_7 O 0.2069(4) 0.5862(7) 0.5691(6)
O20_7 O 0.1915(4) 0.4512(7) 0.5664(8)
C9_10 C 1.0000 0.6493(13) 0.8107(11)
H5_10 H 1.0000 0.6750 0.8532
C11_10 C 1.0000 0.5757(12) 0.6893(10)
H6_10 H 1.0000 0.5519 0.6461
C19_7 C 0.9631(4) 0.6316(8) 0.7815(8)
C20_7 C 0.9253(4) 0.6516(9) 0.8167(7)
C21_7 C 0.9637(4) 0.5920(10) 0.7189(7)
C22_7 C 0.8971(4) 0.5898(9) 0.8315(7)
C23_7 C 0.9180(5) 0.7302(10) 0.8380(10)
C24_7 C 0.9261(4) 0.5757(9) 0.6828(7)
C25_7 C 0.8622(4) 0.6094(8) 0.8631(7)
H11_7 H 0.9024 0.5350 0.8195
H12_7 H 0.9374 0.7716 0.8317
C26_7 C 0.8816(5) 0.7476(11) 0.8690(10)
C27_7 C 0.8991(4) 0.6363(8) 0.6683(8)
C28_7 C 0.9185(5) 0.4966(9) 0.6589(9)
C29_7 C 0.8541(4) 0.6895(9) 0.8796(7)
H13_7 H 0.8435 0.5680 0.8738
H14_7 H 0.8762 0.8018 0.8828
H15_7 H 0.9051 0.6903 0.6820
C30_7 C 0.8637(4) 0.6222(9) 0.6349(9)
H16_7 H 0.9375 0.4543 0.6653
C31_7 C 0.8824(5) 0.4812(11) 0.6256(10)
C32_7 C 0.8153(4) 0.7073(9) 0.9156(8)
H17_7 H 0.8457 0.6657 0.6261
C33_7 C 0.8544(4) 0.5420(9) 0.6137(8)
H18_7 H 0.8769 0.4275 0.6107
O22_7 O 0.8073(3) 0.7824(6) 0.9247(5)
C34_7 C 0.8163(5) 0.5251(10) 0.5795(10)
C28_8 C 0.0815(5) 0.0034(9) 0.1589(9)
H16_8 H 0.0625 0.0457 0.1653
C31_8 C 0.1176(5) 0.0188(11) 0.1256(10)
H18_8 H 0.1231 0.0725 0.1107
C9_11 C -0.0000 0.8507(13) 0.3107(11)
H5_11 H 0.0000 0.8250 0.3532
C11_11 C -0.0000 0.9243(12) 0.1893(10)
H6_11 H -0.0000 0.9481 0.1461
C19_8 C 0.0369(4) 0.8684(8) 0.2815(8)
C20_8 C 0.0747(4) 0.8484(9) 0.3167(7)
C21_8 C 0.0363(4) 0.9080(10) 0.2189(7)
C22_8 C 0.1029(4) 0.9102(9) 0.3315(7)
C23_8 C 0.0820(5) 0.7698(10) 0.3380(10)
C24_8 C 0.0739(4) 0.9243(9) 0.1828(7)
C25_8 C 0.1378(4) 0.8906(8) 0.3631(7)
H11_8 H 0.0976 0.9650 0.3195
H12_8 H 0.0626 0.7284 0.3317
C26_8 C 0.1184(5) 0.7524(11) 0.3690(10)
C27_8 C 0.1009(4) 0.8637(8) 0.1683(8)
C29_8 C 0.1459(4) 0.8105(9) 0.3796(7)
H13_8 H 0.1565 0.9320 0.3738
H14_8 H 0.1238 0.6982 0.3828
H15_8 H 0.0949 0.8097 0.1820
C30_8 C 0.1363(4) 0.8778(9) 0.1349(9)
C32_8 C 0.1847(4) 0.7927(9) 0.4156(8)
H17_8 H 0.1543 0.8343 0.1261
C33_8 C 0.1456(4) 0.9580(9) 0.1137(8)
O22_8 O 0.1927(3) 0.7176(6) 0.4247(5)
C34_8 C 0.1837(5) 0.9749(10) 0.0795(10)
C14_8 C 0.9185(5) 0.0034(9) 0.1589(9)
H8_8 H 0.9375 0.0457 0.1653
C16_8 C 0.8824(5) 0.0188(11) 0.1256(10)
H10_8 H 0.8769 0.0725 0.1107
O20_8 O 0.8085(4) 0.0488(7) 0.0664(8)
C1_8 C 0.8153(4) 0.7927(9) 0.4156(8)
C2_8 C 0.8541(4) 0.8105(9) 0.3796(7)
C3_8 C 0.8622(4) 0.8906(8) 0.3631(7)
C4_8 C 0.8816(5) 0.7524(11) 0.3690(10)
H1_8 H 0.8435 0.9320 0.3738
C5_8 C 0.8971(4) 0.9102(9) 0.3315(7)
C6_8 C 0.9180(5) 0.7698(10) 0.3380(10)
H2_8 H 0.8762 0.6982 0.3828
C7_8 C 0.9253(4) 0.8484(9) 0.3167(7)
H3_8 H 0.9024 0.9650 0.3195
H4_8 H 0.9374 0.7284 0.3317
C8_8 C 0.9631(4) 0.8684(8) 0.2815(8)
C9_12 C 1.0000 0.8507(13) 0.3107(11)
C10_8 C 0.9637(4) 0.9080(10) 0.2189(7)
H5_12 H 1.0000 0.8250 0.3532
C11_12 C 1.0000 0.9243(12) 0.1893(10)
C12_8 C 0.9261(4) 0.9243(9) 0.1828(7)
H6_12 H 1.0000 0.9481 0.1461
C13_8 C 0.8991(4) 0.8637(8) 0.1683(8)
H7_8 H 0.9051 0.8097 0.1820
C15_8 C 0.8637(4) 0.8778(9) 0.1349(9)
H9_8 H 0.8457 0.8343 0.1261
C17_8 C 0.8544(4) 0.9580(9) 0.1137(8)
C18_8 C 0.8163(5) 0.9749(10) 0.0795(10)
O18_8 O 0.7928(3) 0.8499(5) 0.4322(5)
O19_8 O 0.7931(4) 0.9138(7) 0.0691(6)
O1_10 O 0.7638(3) 0.0000 0.5000
O4_5 O 0.8158(3) 0.1026(7) 0.4381(7)
O5_5 O 0.7527(4) 0.1228(9) 0.3607(9)
H19_5 H 0.780773 0.1081 0.349956
H20_5 H 0.746002 0.175638 0.339426
H21_5 H 0.832421 0.0857221 0.476808
H22_5 H 0.827578 0.151918 0.417287
O1_11 O 0.7638(3) 1.0000 0.5000
O11_5 O 0.8158(3) 0.8974(7) 0.5619(7)
O12_5 O 0.7527(4) 0.8772(9) 0.6393(9)
H23_5 H 0.832421 0.914278 0.523192
H24_5 H 0.827578 0.848082 0.582713
H25_5 H 0.780773 0.8919 0.650044
H26_5 H 0.746002 0.824362 0.660574
O1_12 O 0.2362(3) 0.5000 0.0000
O11_6 O 0.1842(3) 0.6026(7) 0.0619(7)
O12_6 O 0.2473(4) 0.6228(9) 0.1393(9)
H23_6 H 0.167579 0.585722 0.0231925
H24_6 H 0.172422 0.651918 0.082713
H25_6 H 0.219227 0.6081 0.150044
H26_6 H 0.253998 0.675638 0.160574
O1_13 O 0.2362(3) 0.5000 1.0000
O4_6 O 0.1842(3) 0.3974(7) 0.9381(7)
O5_6 O 0.2473(4) 0.3772(9) 0.8607(9)
H19_6 H 0.219227 0.3919 0.849956
H20_6 H 0.253998 0.324362 0.839426
H21_6 H 0.167579 0.414278 0.976808
H22_6 H 0.172422 0.348082 0.917287
O1_14 O 0.2638(3) 0.5000 0.5000
O4_7 O 0.3158(3) 0.6026(7) 0.4381(7)
O5_7 O 0.2527(4) 0.6228(9) 0.3607(9)
O11_7 O 0.3158(3) 0.3974(7) 0.5619(7)
O12_7 O 0.2527(4) 0.3772(9) 0.6393(9)
H19_7 H 0.280773 0.6081 0.349956
H20_7 H 0.246002 0.675638 0.339426
H21_7 H 0.332421 0.585722 0.476808
H22_7 H 0.327578 0.651918 0.417287
H23_7 H 0.332421 0.414278 0.523192
H24_7 H 0.327578 0.348082 0.582713
H25_7 H 0.280773 0.3919 0.650044
H26_7 H 0.246002 0.324362 0.660574
O1_15 O 0.7362(3) -0.0000 0.0000
O11_8 O 0.6842(3) 0.1026(7) 0.0619(7)
O12_8 O 0.7473(4) 0.1228(9) 0.1393(9)
H23_8 H 0.667579 0.0857221 0.0231925
H24_8 H 0.672422 0.151918 0.082713
H25_8 H 0.719227 0.1081 0.150044
H26_8 H 0.753998 0.175638 0.160574
O1_16 O 0.7362(3) -0.0000 1.0000
O1_17 O 0.7362(3) 1.0000 0.0000
O1_18 O 0.7362(3) 1.0000 1.0000
O4_8 O 0.6842(3) 0.8974(7) 0.9381(7)
O5_8 O 0.7473(4) 0.8772(9) 0.8607(9)
H19_8 H 0.719227 0.8919 0.849956
H20_8 H 0.753998 0.824362 0.839426
H21_8 H 0.667579 0.914278 0.976808
H22_8 H 0.672422 0.848082 0.917287
loop_
_geom_bond_atom_site_label_1
_geom_bond_atom_site_label_2
_geom_bond_site_symmetry_1
_geom_bond_site_symmetry_2
O1 Th2 1_555 1_555
Th2 O10 1_555 1_555
O10 Th4 1_555 1_555
O11 Th2 1_555 1_555
O12 Th2 1_555 1_555
O13 Th2 1_555 1_555
O14 Th2 1_555 1_555
O15 Th2 1_555 1_555
O16 Th2 1_555 1_555
O17 Th2 1_555 1_555
Th4 O13 1_555 1_555
O11 H23 1_555 1_555
O11 H24 1_555 1_555
O12 H25 1_555 1_555
O12 H26 1_555 1_555
Th1 O1_2 1_555 1_555
O2 Th1 1_555 1_555
O3 Th1 1_555 1_555
O4 Th1 1_555 1_555
O5 Th1 1_555 1_555
O6 Th1 1_555 1_555
O7 Th1 1_555 1_555
O8 Th1 1_555 1_555
C1 O3 1_555 1_555
C2 C1 1_555 1_555
C3 C2 1_555 1_555
C4 C2 1_555 1_555
H1 C3 1_555 1_555
C5 C3 1_555 1_555
C6 C4 1_555 1_555
H2 C4 1_555 1_555
C7 C5 1_555 1_555
H3 C5 1_555 1_555
H4 C6 1_555 1_555
C8 C7 1_555 1_555
C9 C8 1_555 1_555
C10 C8 1_555 1_555
H5 C9 1_555 1_555
C11 C10 1_555 1_555
C12 C10 1_555 1_555
H6 C11 1_555 1_555
C13 C12 1_555 1_555
C14 C12 1_555 1_555
H7 C13 1_555 1_555
C15 C13 1_555 1_555
H8 C14 1_555 1_555
C16 C14 1_555 1_555
H9 C15 1_555 1_555
C17 C15 1_555 1_555
H10 C16 1_555 1_555
C18 C17 1_555 1_555
O9 Th1 1_555 1_555
Th3 O2 1_555 1_555
O18 C1 1_555 1_555
C19 C9 1_555 1_555
C20 C19 1_555 1_555
C21 C11 1_555 1_555
C22 C20 1_555 1_555
C23 C20 1_555 1_555
C24 C21 1_555 1_555
C25 C22 1_555 1_555
H11 C22 1_555 1_555
H12 C23 1_555 1_555
C26 C23 1_555 1_555
C27 C24 1_555 1_555
C28 C24 1_555 1_555
C29 C25 1_555 1_555
H13 C25 1_555 1_555
H14 C26 1_555 1_555
H15 C27 1_555 1_555
C30 C27 1_555 1_555
H16 C28 1_555 1_555
C31 C28 1_555 1_555
C32 C29 1_555 1_555
H17 C30 1_555 1_555
C33 C30 1_555 1_555
H18 C31 1_555 1_555
O19 C18 1_555 1_555
O20 C18 1_555 1_555
O21 C32 1_555 1_555
O22 C32 1_555 1_555
C34 C33 1_555 1_555
Th6 O20 1_555 1_555
Th7 O21 1_555 1_555
Th8 O22 1_555 1_555
O23 C34 1_555 1_555
O24 C34 1_555 1_555
Th10 O24 1_555 1_555
C6 C7 1_555 1_555
C16 C17 1_555 1_555
O9 Th3 1_555 1_555
Th3 O18 1_555 1_555
C19 C21 1_555 1_555
C26 C29 1_555 1_555
C31 C33 1_555 1_555
O5 H19 1_555 1_555
O5 H20 1_555 1_555
O4 H21 1_555 1_555
O4 H22 1_555 1_555
H8_2 C14_2 1_555 1_555
C16_2 C14_2 1_555 1_555
H10_2 C16_2 1_555 1_555
H16_2 C28_2 1_555 1_555
C31_2 C28_2 1_555 1_555
H18_2 C31_2 1_555 1_555
Th6_2 O20_2 1_555 1_555
Th9 O1_3 1_555 1_555
O3_2 Th9 1_555 1_555
O4_2 Th9 1_555 1_555
O5_2 Th9 1_555 1_555
O8_2 Th9 1_555 1_555
C1_2 O3_2 1_555 1_555
C2_2 C1_2 1_555 1_555
C3_2 C2_2 1_555 1_555
C4_2 C2_2 1_555 1_555
H1_2 C3_2 1_555 1_555
C5_2 C3_2 1_555 1_555
C6_2 C4_2 1_555 1_555
H2_2 C4_2 1_555 1_555
C7_2 C5_2 1_555 1_555
H3_2 C5_2 1_555 1_555
H4_2 C6_2 1_555 1_555
C8_2 C7_2 1_555 1_555
C9_2 C8_2 1_555 1_555
C10_2 C8_2 1_555 1_555
H5_2 C9_2 1_555 1_555
C11_2 C10_2 1_555 1_555
C12_2 C10_2 1_555 1_555
H6_2 C11_2 1_555 1_555
C13_2 C12_2 1_555 1_555
H7_2 C13_2 1_555 1_555
C15_2 C13_2 1_555 1_555
H9_2 C15_2 1_555 1_555
C17_2 C15_2 1_555 1_555
C18_2 C17_2 1_555 1_555
O9_2 Th9 1_555 1_555
O10_2 Th4_2 1_555 1_555
O18_2 C1_2 1_555 1_555
C19_2 C9_2 1_555 1_555
C20_2 C19_2 1_555 1_555
C21_2 C11_2 1_555 1_555
C22_2 C20_2 1_555 1_555
C23_2 C20_2 1_555 1_555
C24_2 C21_2 1_555 1_555
C25_2 C22_2 1_555 1_555
H11_2 C22_2 1_555 1_555
H12_2 C23_2 1_555 1_555
C26_2 C23_2 1_555 1_555
C27_2 C24_2 1_555 1_555
C29_2 C25_2 1_555 1_555
H13_2 C25_2 1_555 1_555
H14_2 C26_2 1_555 1_555
H15_2 C27_2 1_555 1_555
C30_2 C27_2 1_555 1_555
C32_2 C29_2 1_555 1_555
H17_2 C30_2 1_555 1_555
C33_2 C30_2 1_555 1_555
O19_2 C18_2 1_555 1_555
O21_2 C32_2 1_555 1_555
O22_2 C32_2 1_555 1_555
C34_2 C33_2 1_555 1_555
Th8 O19_2 1_555 1_555
Th5 O22_2 1_555 1_555
O7 C34_2 1_555 1_555
C6_2 C7_2 1_555 1_555
C19_2 C21_2 1_555 1_555
C26_2 C29_2 1_555 1_555
O5_2 H19_2 1_555 1_555
O5_2 H20_2 1_555 1_555
O4_2 H21_2 1_555 1_555
O4_2 H22_2 1_555 1_555
O1_4 Th10 1_555 1_555
Th3_2 O2_2 1_555 1_555
O11_2 Th10 1_555 1_555
O12_2 Th10 1_555 1_555
O13_2 Th10 1_555 1_555
O15_2 Th10 1_555 1_555
O11_2 H23_2 1_555 1_555
O11_2 H24_2 1_555 1_555
O12_2 H25_2 1_555 1_555
O12_2 H26_2 1_555 1_555
C1_3 O15_2 1_555 1_555
C2_3 C1_3 1_555 1_555
C3_3 C2_3 1_555 1_555
C4_3 C2_3 1_555 1_555
H1_3 C3_3 1_555 1_555
C5_3 C3_3 1_555 1_555
C6_3 C4_3 1_555 1_555
H2_3 C4_3 1_555 1_555
C7_3 C5_3 1_555 1_555
H3_3 C5_3 1_555 1_555
H4_3 C6_3 1_555 1_555
C8_3 C7_3 1_555 1_555
C9_3 C8_3 1_555 1_555
C10_3 C8_3 1_555 1_555
H5_3 C9_3 1_555 1_555
C11_3 C10_3 1_555 1_555
C12_3 C10_3 1_555 1_555
H6_3 C11_3 1_555 1_555
C13_3 C12_3 1_555 1_555
H7_3 C13_3 1_555 1_555
C15_3 C13_3 1_555 1_555
H9_3 C15_3 1_555 1_555
C17_3 C15_3 1_555 1_555
C18_3 C17_3 1_555 1_555
O18_3 C1_3 1_555 1_555
C19_3 C9_3 1_555 1_555
C20_3 C19_3 1_555 1_555
C21_3 C11_3 1_555 1_555
C22_3 C20_3 1_555 1_555
C23_3 C20_3 1_555 1_555
C24_3 C21_3 1_555 1_555
C25_3 C22_3 1_555 1_555
H11_3 C22_3 1_555 1_555
H12_3 C23_3 1_555 1_555
C26_3 C23_3 1_555 1_555
C27_3 C24_3 1_555 1_555
C29_3 C25_3 1_555 1_555
H13_3 C25_3 1_555 1_555
H14_3 C26_3 1_555 1_555
H15_3 C27_3 1_555 1_555
C30_3 C27_3 1_555 1_555
C32_3 C29_3 1_555 1_555
H17_3 C30_3 1_555 1_555
C33_3 C30_3 1_555 1_555
O19_3 C18_3 1_555 1_555
O21_3 C32_3 1_555 1_555
O22_3 C32_3 1_555 1_555
C34_3 C33_3 1_555 1_555
Th6_2 O19_3 1_555 1_555
Th6 O22_3 1_555 1_555
O16 C34_3 1_555 1_555
C6_3 C7_3 1_555 1_555
C19_3 C21_3 1_555 1_555
C26_3 C29_3 1_555 1_555
H8_3 C14_3 1_555 1_555
C16_3 C14_3 1_555 1_555
H10_3 C16_3 1_555 1_555
H16_3 C28_3 1_555 1_555
C31_3 C28_3 1_555 1_555
H18_3 C31_3 1_555 1_555
Th8 O20_3 1_555 1_555
C1_4 O15 1_555 1_555
C2_4 C1_4 1_555 1_555
C3_4 C2_4 1_555 1_555
C4_4 C2_4 1_555 1_555
H1_4 C3_4 1_555 1_555
C5_4 C3_4 1_555 1_555
C6_4 C4_4 1_555 1_555
H2_4 C4_4 1_555 1_555
C7_4 C5_4 1_555 1_555
H3_4 C5_4 1_555 1_555
H4_4 C6_4 1_555 1_555
C8_4 C7_4 1_555 1_555
C9_4 C8_4 1_555 1_555
C10_4 C8_4 1_555 1_555
H5_4 C9_4 1_555 1_555
C11_4 C10_4 1_555 1_555
C12_4 C10_4 1_555 1_555
H6_4 C11_4 1_555 1_555
C13_4 C12_4 1_555 1_555
C14_4 C12_4 1_555 1_555
H7_4 C13_4 1_555 1_555
C15_4 C13_4 1_555 1_555
H8_4 C14_4 1_555 1_555
C16_4 C14_4 1_555 1_555
H9_4 C15_4 1_555 1_555
C17_4 C15_4 1_555 1_555
H10_4 C16_4 1_555 1_555
C18_4 C17_4 1_555 1_555
O18_4 C1_4 1_555 1_555
C19_4 C9_4 1_555 1_555
C20_4 C19_4 1_555 1_555
C21_4 C11_4 1_555 1_555
C22_4 C20_4 1_555 1_555
C23_4 C20_4 1_555 1_555
C24_4 C21_4 1_555 1_555
C25_4 C22_4 1_555 1_555
H11_4 C22_4 1_555 1_555
H12_4 C23_4 1_555 1_555
C26_4 C23_4 1_555 1_555
C27_4 C24_4 1_555 1_555
C28_4 C24_4 1_555 1_555
C29_4 C25_4 1_555 1_555
H13_4 C25_4 1_555 1_555
H14_4 C26_4 1_555 1_555
H15_4 C27_4 1_555 1_555
C30_4 C27_4 1_555 1_555
H16_4 C28_4 1_555 1_555
C31_4 C28_4 1_555 1_555
C32_4 C29_4 1_555 1_555
H17_4 C30_4 1_555 1_555
C33_4 C30_4 1_555 1_555
H18_4 C31_4 1_555 1_555
O19_4 C18_4 1_555 1_555
O20_4 C18_4 1_555 1_555
O21_4 C32_4 1_555 1_555
O22_4 C32_4 1_555 1_555
C34_4 C33_4 1_555 1_555
Th5 O20_4 1_555 1_555
Th7_4 O21_4 1_555 1_555
Th6_2 O22_4 1_555 1_555
O16_2 C34_4 1_555 1_555
O8_2 C34_4 1_555 1_555
C6_4 C7_4 1_555 1_555
C16_4 C17_4 1_555 1_555
Th4 O18_4 1_555 1_555
C19_4 C21_4 1_555 1_555
C26_4 C29_4 1_555 1_555
C31_4 C33_4 1_555 1_555
H5_5 C9_5 1_555 1_555
H6_5 C11_5 1_555 1_555
C19_5 C9_5 1_555 1_555
C20_5 C19_5 1_555 1_555
C21_5 C11_5 1_555 1_555
C22_5 C20_5 1_555 1_555
C23_5 C20_5 1_555 1_555
C24_5 C21_5 1_555 1_555
C25_5 C22_5 1_555 1_555
H11_5 C22_5 1_555 1_555
H12_5 C23_5 1_555 1_555
C26_5 C23_5 1_555 1_555
C27_5 C24_5 1_555 1_555
C29_5 C25_5 1_555 1_555
H13_5 C25_5 1_555 1_555
H14_5 C26_5 1_555 1_555
H15_5 C27_5 1_555 1_555
C30_5 C27_5 1_555 1_555
C32_5 C29_5 1_555 1_555
H17_5 C30_5 1_555 1_555
C33_5 C30_5 1_555 1_555
O14 C32_5 1_555 1_555
O22_5 C32_5 1_555 1_555
C34_5 C33_5 1_555 1_555
Th4 O22_5 1_555 1_555
O23_2 C34_5 1_555 1_555
C19_5 C21_5 1_555 1_555
C26_5 C29_5 1_555 1_555
H16_5 C28_5 1_555 1_555
C31_5 C28_5 1_555 1_555
H18_5 C31_5 1_555 1_555
Th7_2 O24_2 1_555 1_555
Th7_4 O1_5 1_555 1_555
O1_5 Th7 1_555 1_555
O2_3 Th7_4 1_555 1_555
O3_3 Th7_4 1_555 1_555
O4_3 Th7_4 1_555 1_555
O5_3 Th7_4 1_555 1_555
O7_2 Th7_4 1_555 1_555
O8_3 Th7_4 1_555 1_555
C1_5 O3_3 1_555 1_555
C2_5 C1_5 1_555 1_555
C3_5 C2_5 1_555 1_555
C4_5 C2_5 1_555 1_555
H1_5 C3_5 1_555 1_555
C5_5 C3_5 1_555 1_555
C6_5 C4_5 1_555 1_555
H2_5 C4_5 1_555 1_555
C7_5 C5_5 1_555 1_555
H3_5 C5_5 1_555 1_555
H4_5 C6_5 1_555 1_555
C8_5 C7_5 1_555 1_555
C9_6 C8_5 1_555 1_555
C10_5 C8_5 1_555 1_555
H5_6 C9_6 1_555 1_555
C11_6 C10_5 1_555 1_555
C12_5 C10_5 1_555 1_555
H6_6 C11_6 1_555 1_555
C13_5 C12_5 1_555 1_555
H7_5 C13_5 1_555 1_555
C15_5 C13_5 1_555 1_555
H9_5 C15_5 1_555 1_555
C17_5 C15_5 1_555 1_555
C18_5 C17_5 1_555 1_555
O9_3 Th7_4 1_555 1_555
Th7 O10_3 1_555 1_555
Th6_2 O2_3 1_555 1_555
O10_3 Th8 1_555 1_555
O11_3 Th7 1_555 1_555
O12_3 Th7 1_555 1_555
O13_3 Th7 1_555 1_555
O15_3 Th7 1_555 1_555
O16_3 Th7 1_555 1_555
O17_2 Th7 1_555 1_555
O18_5 C1_5 1_555 1_555
Th8 O13_3 1_555 1_555
O19_5 C18_5 1_555 1_555
C6_5 C7_5 1_555 1_555
O9_3 Th6_2 1_555 1_555
Th6_2 O18_5 1_555 1_555
O5_3 H19_3 1_555 1_555
O5_3 H20_3 1_555 1_555
O4_3 H21_3 1_555 1_555
O4_3 H22_3 1_555 1_555
O11_3 H23_3 1_555 1_555
O11_3 H24_3 1_555 1_555
O12_3 H25_3 1_555 1_555
O12_3 H26_3 1_555 1_555
H8_5 C14_5 1_555 1_555
C16_5 C14_5 1_555 1_555
H10_5 C16_5 1_555 1_555
Th3_2 O20_5 1_555 1_555
Th7_3 O1_6 1_555 1_555
O3_4 Th7_3 1_555 1_555
O4_4 Th7_3 1_555 1_555
O5_4 Th7_3 1_555 1_555
O8_4 Th7_3 1_555 1_555
C1_6 O3_4 1_555 1_555
C2_6 C1_6 1_555 1_555
C3_6 C2_6 1_555 1_555
C4_6 C2_6 1_555 1_555
H1_6 C3_6 1_555 1_555
C5_6 C3_6 1_555 1_555
C6_6 C4_6 1_555 1_555
H2_6 C4_6 1_555 1_555
C7_6 C5_6 1_555 1_555
H3_6 C5_6 1_555 1_555
H4_6 C6_6 1_555 1_555
C8_6 C7_6 1_555 1_555
C9_7 C8_6 1_555 1_555
C10_6 C8_6 1_555 1_555
H5_7 C9_7 1_555 1_555
C11_7 C10_6 1_555 1_555
C12_6 C10_6 1_555 1_555
H6_7 C11_7 1_555 1_555
C13_6 C12_6 1_555 1_555
C14_6 C12_6 1_555 1_555
H7_6 C13_6 1_555 1_555
C15_6 C13_6 1_555 1_555
H8_6 C14_6 1_555 1_555
C16_6 C14_6 1_555 1_555
H9_6 C15_6 1_555 1_555
C17_6 C15_6 1_555 1_555
H10_6 C16_6 1_555 1_555
C18_6 C17_6 1_555 1_555
O9_4 Th7_3 1_555 1_555
O18_6 C1_6 1_555 1_555
O19_6 C18_6 1_555 1_555
O20_6 C18_6 1_555 1_555
Th4 O19_6 1_555 1_555
Th3 O20_6 1_555 1_555
C6_6 C7_6 1_555 1_555
C16_6 C17_6 1_555 1_555
O5_4 H19_4 1_555 1_555
O5_4 H20_4 1_555 1_555
O4_4 H21_4 1_555 1_555
O4_4 H22_4 1_555 1_555
Th6 O2_4 1_555 1_555
O10_4 Th5 1_555 1_555
O1_9 Th7_2 1_555 1_555
O11_4 Th7_2 1_555 1_555
O12_4 Th7_2 1_555 1_555
O13_4 Th7_2 1_555 1_555
O15_4 Th7_2 1_555 1_555
O11_4 H23_4 1_555 1_555
O11_4 H24_4 1_555 1_555
O12_4 H25_4 1_555 1_555
O12_4 H26_4 1_555 1_555
H5_8 C9_8 1_555 1_555
H6_8 C11_8 1_555 1_555
C19_6 C9_8 1_555 1_555
C20_6 C19_6 1_555 1_555
C21_6 C11_8 1_555 1_555
C22_6 C20_6 1_555 1_555
C23_6 C20_6 1_555 1_555
C24_6 C21_6 1_555 1_555
C25_6 C22_6 1_555 1_555
H11_6 C22_6 1_555 1_555
H12_6 C23_6 1_555 1_555
C26_6 C23_6 1_555 1_555
C27_6 C24_6 1_555 1_555
C28_6 C24_6 1_555 1_555
C29_6 C25_6 1_555 1_555
H13_6 C25_6 1_555 1_555
H14_6 C26_6 1_555 1_555
H15_6 C27_6 1_555 1_555
C30_6 C27_6 1_555 1_555
H16_6 C28_6 1_555 1_555
C31_6 C28_6 1_555 1_555
C32_6 C29_6 1_555 1_555
H17_6 C30_6 1_555 1_555
C33_6 C30_6 1_555 1_555
H18_6 C31_6 1_555 1_555
O14_2 C32_6 1_555 1_555
O22_6 C32_6 1_555 1_555
C34_6 C33_6 1_555 1_555
Th4_2 O22_6 1_555 1_555
O7_2 C34_6 1_555 1_555
O17_2 C34_6 1_555 1_555
C19_6 C21_6 1_555 1_555
C26_6 C29_6 1_555 1_555
C31_6 C33_6 1_555 1_555
C1_7 O15_4 1_555 1_555
C2_7 C1_7 1_555 1_555
C3_7 C2_7 1_555 1_555
C4_7 C2_7 1_555 1_555
H1_7 C3_7 1_555 1_555
C5_7 C3_7 1_555 1_555
C6_7 C4_7 1_555 1_555
H2_7 C4_7 1_555 1_555
C7_7 C5_7 1_555 1_555
H3_7 C5_7 1_555 1_555
H4_7 C6_7 1_555 1_555
C8_7 C7_7 1_555 1_555
C9_9 C8_7 1_555 1_555
C10_7 C8_7 1_555 1_555
H5_9 C9_9 1_555 1_555
C11_9 C10_7 1_555 1_555
C12_7 C10_7 1_555 1_555
H6_9 C11_9 1_555 1_555
C13_7 C12_7 1_555 1_555
C14_7 C12_7 1_555 1_555
H7_7 C13_7 1_555 1_555
C15_7 C13_7 1_555 1_555
H8_7 C14_7 1_555 1_555
C16_7 C14_7 1_555 1_555
H9_7 C15_7 1_555 1_555
C17_7 C15_7 1_555 1_555
H10_7 C16_7 1_555 1_555
C18_7 C17_7 1_555 1_555
O18_7 C1_7 1_555 1_555
O19_7 C18_7 1_555 1_555
O20_7 C18_7 1_555 1_555
Th3 O19_7 1_555 1_555
Th4 O20_7 1_555 1_555
C6_7 C7_7 1_555 1_555
C16_7 C17_7 1_555 1_555
H5_10 C9_10 1_555 1_555
H6_10 C11_10 1_555 1_555
C19_7 C9_10 1_555 1_555
C20_7 C19_7 1_555 1_555
C21_7 C11_10 1_555 1_555
C22_7 C20_7 1_555 1_555
C23_7 C20_7 1_555 1_555
C24_7 C21_7 1_555 1_555
C25_7 C22_7 1_555 1_555
H11_7 C22_7 1_555 1_555
H12_7 C23_7 1_555 1_555
C26_7 C23_7 1_555 1_555
C27_7 C24_7 1_555 1_555
C28_7 C24_7 1_555 1_555
C29_7 C25_7 1_555 1_555
H13_7 C25_7 1_555 1_555
H14_7 C26_7 1_555 1_555
H15_7 C27_7 1_555 1_555
C30_7 C27_7 1_555 1_555
H16_7 C28_7 1_555 1_555
C31_7 C28_7 1_555 1_555
C32_7 C29_7 1_555 1_555
H17_7 C30_7 1_555 1_555
C33_7 C30_7 1_555 1_555
H18_7 C31_7 1_555 1_555
O6_2 C32_7 1_555 1_555
O22_7 C32_7 1_555 1_555
C34_7 C33_7 1_555 1_555
Th3_2 O22_7 1_555 1_555
O16_3 C34_7 1_555 1_555
O8_3 C34_7 1_555 1_555
C19_7 C21_7 1_555 1_555
C26_7 C29_7 1_555 1_555
C31_7 C33_7 1_555 1_555
H16_8 C28_8 1_555 1_555
C31_8 C28_8 1_555 1_555
H18_8 C31_8 1_555 1_555
H5_11 C9_11 1_555 1_555
H6_11 C11_11 1_555 1_555
C19_8 C9_11 1_555 1_555
C20_8 C19_8 1_555 1_555
C21_8 C11_11 1_555 1_555
C22_8 C20_8 1_555 1_555
C23_8 C20_8 1_555 1_555
C24_8 C21_8 1_555 1_555
C25_8 C22_8 1_555 1_555
H11_8 C22_8 1_555 1_555
H12_8 C23_8 1_555 1_555
C26_8 C23_8 1_555 1_555
C27_8 C24_8 1_555 1_555
C29_8 C25_8 1_555 1_555
H13_8 C25_8 1_555 1_555
H14_8 C26_8 1_555 1_555
H15_8 C27_8 1_555 1_555
C30_8 C27_8 1_555 1_555
C32_8 C29_8 1_555 1_555
H17_8 C30_8 1_555 1_555
C33_8 C30_8 1_555 1_555
O6 C32_8 1_555 1_555
O22_8 C32_8 1_555 1_555
C34_8 C33_8 1_555 1_555
Th3 O22_8 1_555 1_555
O16_4 C34_8 1_555 1_555
C19_8 C21_8 1_555 1_555
C26_8 C29_8 1_555 1_555
H8_8 C14_8 1_555 1_555
C16_8 C14_8 1_555 1_555
H10_8 C16_8 1_555 1_555
Th4_2 O20_8 1_555 1_555
C1_8 O15_3 1_555 1_555
C2_8 C1_8 1_555 1_555
C3_8 C2_8 1_555 1_555
C4_8 C2_8 1_555 1_555
H1_8 C3_8 1_555 1_555
C5_8 C3_8 1_555 1_555
C6_8 C4_8 1_555 1_555
H2_8 C4_8 1_555 1_555
C7_8 C5_8 1_555 1_555
H3_8 C5_8 1_555 1_555
H4_8 C6_8 1_555 1_555
C8_8 C7_8 1_555 1_555
C9_12 C8_8 1_555 1_555
C10_8 C8_8 1_555 1_555
H5_12 C9_12 1_555 1_555
C11_12 C10_8 1_555 1_555
C12_8 C10_8 1_555 1_555
H6_12 C11_12 1_555 1_555
C13_8 C12_8 1_555 1_555
H7_8 C13_8 1_555 1_555
C15_8 C13_8 1_555 1_555
H9_8 C15_8 1_555 1_555
C17_8 C15_8 1_555 1_555
C18_8 C17_8 1_555 1_555
O18_8 C1_8 1_555 1_555
O19_8 C18_8 1_555 1_555
C6_8 C7_8 1_555 1_555
Th8 O18_8 1_555 1_555
Th6_2 O1_10 1_555 1_555
O4_5 Th6_2 1_555 1_555
O5_5 Th6_2 1_555 1_555
O5_5 H19_5 1_555 1_555
O5_5 H20_5 1_555 1_555
O4_5 H21_5 1_555 1_555
O4_5 H22_5 1_555 1_555
O1_11 Th8 1_555 1_555
O11_5 Th8 1_555 1_555
O12_5 Th8 1_555 1_555
O11_5 H23_5 1_555 1_555
O11_5 H24_5 1_555 1_555
O12_5 H25_5 1_555 1_555
O12_5 H26_5 1_555 1_555
O1_12 Th5 1_555 1_555
O11_6 Th5 1_555 1_555
O12_6 Th5 1_555 1_555
O11_6 H23_6 1_555 1_555
O11_6 H24_6 1_555 1_555
O12_6 H25_6 1_555 1_555
O12_6 H26_6 1_555 1_555
Th6 O1_13 1_555 1_555
O4_6 Th6 1_555 1_555
O5_6 Th6 1_555 1_555
O5_6 H19_6 1_555 1_555
O5_6 H20_6 1_555 1_555
O4_6 H21_6 1_555 1_555
O4_6 H22_6 1_555 1_555
Th3 O1_14 1_555 1_555
O1_14 Th4 1_555 1_555
O4_7 Th3 1_555 1_555
O5_7 Th3 1_555 1_555
O11_7 Th4 1_555 1_555
O12_7 Th4 1_555 1_555
O5_7 H19_7 1_555 1_555
O5_7 H20_7 1_555 1_555
O4_7 H21_7 1_555 1_555
O4_7 H22_7 1_555 1_555
O11_7 H23_7 1_555 1_555
O11_7 H24_7 1_555 1_555
O12_7 H25_7 1_555 1_555
O12_7 H26_7 1_555 1_555
O1_15 Th4_2 1_555 1_555
O11_8 Th4_2 1_555 1_555
O12_8 Th4_2 1_555 1_555
O11_8 H23_8 1_555 1_555
O11_8 H24_8 1_555 1_555
O12_8 H25_8 1_555 1_555
O12_8 H26_8 1_555 1_555
Th3_2 O1_18 1_555 1_555
O4_8 Th3_2 1_555 1_555
O5_8 Th3_2 1_555 1_555
O5_8 H19_8 1_555 1_555
O5_8 H20_8 1_555 1_555
O4_8 H21_8 1_555 1_555
O4_8 H22_8 1_555 1_555

#END
