
###############################################################################
#
# This file contains modified crystal structure data generated from the
# MOF subset of the Cambridge Structural Database (CSD) v543 
# hosted by the Cambridge Crystallographic Data Centre (CCDC).
#
# This work is licensed under the Creative Commons
# Attribution-NonCommercial-ShareAlike 4.0 International License.
# To view a copy of this license, visit
# http://creativecommons.org/licenses/by-nc-sa/4.0/
# or send a letter to
# Creative Commons, PO Box 1866, Mountain View, CA 94042, USA.
#
# CIF created using the CSD Python API on 29 September 2022
# The structure has been converted into the P1 space group
# The structure has a 3D framework
# The original CSD entry OSIVIX is in the monoclinic crystal system
# The framework has been calculated to contain at least 10.0% void space
# The void calculation uses a probe of radius 1.32A, grid spacing 0.4
# The framework is charged, counterions have been retained in the structure
#
###############################################################################

data_OSIVIX
_chemical_formula_moiety         '(C168 H96 N144 O138 Zn52 24-)n'
_symmetry_cell_setting           triclinic
_symmetry_space_group_name_H-M   'P 1'
_symmetry_Int_Tables_number      1
_space_group_name_Hall           'P 1'
loop_
_symmetry_equiv_pos_site_id
_symmetry_equiv_pos_as_xyz
1 x,y,z
_cell_length_a                   23.8935(12)
_cell_length_b                   18.9861(12)
_cell_length_c                   25.1041(17)
_cell_angle_alpha                90
_cell_angle_beta                 114.315(6)
_cell_angle_gamma                90
_cell_volume                     10378.1
loop_
_atom_site_label
_atom_site_type_symbol
_atom_site_fract_x
_atom_site_fract_y
_atom_site_fract_z
O15 O 0.8152(3) 0.3038(3) 0.0205(3)
O17 O 0.4728(4) 0.5737(4) 0.0235(3)
O21 O 0.7546(3) 0.2244(3) 0.0680(3)
C23 C 0.7326(4) 0.2268(4) 0.0141(4)
O23 O 0.5244(5) 0.4492(4) 0.0622(3)
C24 C 0.5152(5) 0.4644(5) 0.0119(4)
Zn13 Zn 0.49258(5) 0.53595(5) 0.10269(4)
Zn16 Zn 0.83341(4) 0.29160(5) 0.10982(4)
Zn3 Zn 0.50742(5) 0.46405(5) 0.89731(4)
Zn4 Zn 0.5000 0.45746(6) 0.7500
Zn5 Zn 0.24920(4) 0.04735(6) 0.74808(4)
Zn6 Zn 0.66659(4) 0.20840(5) 0.89018(4)
N4 N 0.5460(4) 0.0362(4) 0.8732(3)
N5 N 0.5401(3) 0.0395(3) 0.8161(3)
N6 N 0.5991(3) 0.1293(4) 0.8658(3)
N10 N 0.4250(3) 0.4614(4) 0.8300(3)
N11 N 0.4187(3) 0.4578(3) 0.7737(3)
N12 N 0.3282(3) 0.4844(4) 0.7729(3)
N13 N 0.5521(4) 0.5383(4) 0.8717(3)
N14 N 0.5437(3) 0.5409(3) 0.8146(3)
N15 N 0.6030(3) 0.6310(4) 0.8618(3)
N16 N 0.5485(3) 0.3811(4) 0.8728(3)
N17 N 0.5462(3) 0.3803(3) 0.8170(3)
N18 N 0.6071(3) 0.2942(4) 0.8676(3)
O5 O 0.2634(3) 0.0608(3) 0.8353(3)
O6 O 0.1899(3) 0.1395(3) 0.7437(3)
O7 O 0.1718(3) 0.2118(3) 0.8039(3)
O8 O 0.2365(3) 0.1275(4) 0.8941(3)
O9 O 0.7335(3) 0.1268(3) 0.8961(3)
O10 O 0.6667(3) 0.2094(3) 0.8052(3)
O11 O 0.7656(3) 0.0642(3) 0.8397(3)
O12 O 0.6883(3) 0.1385(3) 0.7459(3)
O16 O 0.7454(3) 0.2756(3) 0.9320(3)
O18 O 0.4756(5) 0.5508(4) 0.9378(3)
C3 C 0.5724(4) 0.0955(4) 0.8141(4)
H3 H 0.5762 0.1101 0.7804
C4 C 0.5799(4) 0.0900(5) 0.9007(4)
H4 H 0.5899 0.1004 0.9397
C7 C 0.3602(4) 0.4717(5) 0.7409(4)
H7 H 0.3432 0.4725 0.7003
C8 C 0.3707(4) 0.4783(5) 0.8281(4)
H8 H 0.3628 0.4852 0.8610
C9 C 0.5751(4) 0.5975(4) 0.8116(4)
H9 H 0.5773 0.6121 0.7771
C10 C 0.5859(4) 0.5928(5) 0.8976(4)
H10 H 0.5969 0.6039 0.9367
C11 C 0.5820(4) 0.3281(4) 0.8163(4)
H11 H 0.5891 0.3160 0.7837
C12 C 0.5847(4) 0.3292(4) 0.9010(4)
H12 H 0.5939 0.3180 0.9397
C15 C 0.2359(4) 0.1124(5) 0.8457(4)
C16 C 0.1959(4) 0.1596(5) 0.7929(4)
C17 C 0.6931(4) 0.1579(5) 0.7946(4)
C18 C 0.7348(4) 0.1120(5) 0.8482(4)
C20 C 0.7674(4) 0.2732(4) 0.9859(4)
C21 C 0.4848(5) 0.5356(5) 0.9881(4)
O22 O 0.6848(3) 0.1962(3) 0.9795(3)
O24 O 0.5272(4) 0.4263(4) 0.9765(3)
Zn9 Zn 0.49258(5) 0.46405(5) 0.60269(4)
Zn10 Zn 0.75080(4) 0.04735(6) 0.75192(4)
Zn11 Zn 0.33341(4) 0.20840(5) 0.60982(4)
N22 N 0.4540(4) 0.0362(4) 0.6268(3)
N23 N 0.4599(3) 0.0395(3) 0.6839(3)
N24 N 0.4009(3) 0.1293(4) 0.6342(3)
N28 N 0.5750(3) 0.4614(4) 0.6700(3)
N29 N 0.5813(3) 0.4578(3) 0.7263(3)
N30 N 0.6718(3) 0.4844(4) 0.7271(3)
N31 N 0.4479(4) 0.5383(4) 0.6283(3)
N32 N 0.4563(3) 0.5409(3) 0.6854(3)
N33 N 0.3970(3) 0.6310(4) 0.6382(3)
N34 N 0.4515(3) 0.3811(4) 0.6272(3)
N35 N 0.4538(3) 0.3803(3) 0.6830(3)
N36 N 0.3929(3) 0.2942(4) 0.6324(3)
O29 O 0.7366(3) 0.0608(3) 0.6647(3)
O30 O 0.8101(3) 0.1395(3) 0.7563(3)
O31 O 0.8282(3) 0.2118(3) 0.6961(3)
O32 O 0.7635(3) 0.1275(4) 0.6059(3)
O33 O 0.2665(3) 0.1268(3) 0.6039(3)
O34 O 0.3333(3) 0.2094(3) 0.6948(3)
O35 O 0.2344(3) 0.0642(3) 0.6603(3)
O36 O 0.3117(3) 0.1385(3) 0.7541(3)
C27 C 0.4276(4) 0.0955(4) 0.6859(4)
H15 H 0.4238 0.1101 0.7196
C28 C 0.4201(4) 0.0900(5) 0.5993(4)
H16 H 0.4101 0.1004 0.5603
C31 C 0.6398(4) 0.4717(5) 0.7591(4)
H19 H 0.6568 0.4725 0.7997
C32 C 0.6293(4) 0.4783(5) 0.6719(4)
H20 H 0.6372 0.4852 0.6390
C33 C 0.4249(4) 0.5975(4) 0.6884(4)
H21 H 0.4227 0.6121 0.7229
C34 C 0.4141(4) 0.5928(5) 0.6024(4)
H22 H 0.4031 0.6039 0.5633
C35 C 0.4180(4) 0.3281(4) 0.6837(4)
H23 H 0.4109 0.3160 0.7163
C36 C 0.4153(4) 0.3292(4) 0.5990(4)
H24 H 0.4061 0.3180 0.5603
C39 C 0.7641(4) 0.1124(5) 0.6543(4)
C40 C 0.8041(4) 0.1596(5) 0.7071(4)
C41 C 0.3069(4) 0.1579(5) 0.7054(4)
C42 C 0.2652(4) 0.1120(5) 0.6518(4)
Zn14 Zn 0.74920(4) 0.54735(6) 0.74808(4)
Zn15 Zn 0.25080(4) 0.54735(6) 0.75192(4)
Zn17 Zn 0.67060(5) 0.71049(5) 0.88801(4)
Zn18 Zn 0.32940(5) 0.71049(5) 0.61199(4)
Zn19 Zn 0.17060(5) 0.21049(5) 0.88801(4)
Zn20 Zn 0.82940(5) 0.21049(5) 0.61199(4)
O43 O 0.3152(3) 0.1962(3) 0.5205(3)
O44 O 0.2546(3) 0.2756(3) 0.5680(3)
O45 O 0.4728(4) 0.4263(4) 0.5235(3)
O46 O 0.5244(5) 0.5508(4) 0.5622(3)
O3 O 0.4943(6) 0.8264(6) 0.0243(4)
O4 O 0.5794(10) 0.9309(11) 0.0731(10)
O13 O 0.8156(3) 0.8029(3) 0.0235(3)
C14 C 0.5412(10) 0.9291(11) 0.0121(10)
O19 O 0.7508(3) 0.7242(3) 0.0667(3)
C22 C 0.7315(4) 0.7271(4) 0.0131(4)
Zn21 Zn 0.82940(5) 0.78951(5) 0.11199(4)
Zn1 Zn 0.50380(5) 0.95458(5) 0.89760(4)
Zn2 Zn 0.5000 0.95807(6) 0.7500
N1 N 0.4227(3) 0.9612(4) 0.8274(3)
N2 N 0.4178(3) 0.9589(3) 0.7719(3)
N3 N 0.3260(3) 0.9845(4) 0.7694(3)
N7 N 0.5467(3) 0.8800(4) 0.8159(3)
N8 N 0.5481(3) 0.8784(4) 0.8711(3)
N9 N 0.6102(4) 0.7945(4) 0.8658(3)
O1 O 0.4671(4) 0.8778(5) 0.9389(4)
O2 O 0.5576(5) 0.9691(5) 0.9828(4)
O14 O 0.7492(3) 0.7758(3) 0.9333(3)
C1 C 0.3596(4) 0.9721(5) 0.7384(4)
H1 H 0.3434 0.9729 0.6978
C2 C 0.3677(4) 0.9769(5) 0.8239(4)
H2 H 0.3589 0.9821 0.8565
C5 C 0.5857(4) 0.8269(5) 0.8988(4)
H5 H 0.5944 0.8142 0.9371
C6 C 0.5845(4) 0.8291(4) 0.8149(4)
H6 H 0.5923 0.8185 0.7824
C13 C 0.5006(6) 0.8710(7) 0.9924(5)
C19 C 0.7685(4) 0.7729(4) 0.9869(4)
O20 O 0.6844(3) 0.6971(3) 0.9765(3)
Zn8 Zn 0.49620(5) 0.95458(5) 0.60240(4)
N19 N 0.5773(3) 0.9612(4) 0.6726(3)
N20 N 0.5822(3) 0.9589(3) 0.7281(3)
N21 N 0.6740(3) 0.9845(4) 0.7306(3)
N25 N 0.4533(3) 0.8800(4) 0.6841(3)
N26 N 0.4519(3) 0.8784(4) 0.6289(3)
N27 N 0.3898(4) 0.7945(4) 0.6342(3)
O25 O 0.5329(4) 0.8778(5) 0.5611(4)
O26 O 0.4424(5) 0.9691(5) 0.5172(4)
O27 O 0.5057(6) 0.8264(6) 0.4757(4)
O28 O 0.4206(10) 0.9309(11) 0.4269(10)
C25 C 0.6404(4) 0.9721(5) 0.7616(4)
H13 H 0.6566 0.9729 0.8022
C26 C 0.6323(4) 0.9769(5) 0.6761(4)
H14 H 0.6411 0.9821 0.6435
C29 C 0.4143(4) 0.8269(5) 0.6012(4)
H17 H 0.4056 0.8142 0.5629
C30 C 0.4155(4) 0.8291(4) 0.6851(4)
H18 H 0.4077 0.8185 0.7176
C37 C 0.4994(6) 0.8710(7) 0.5076(5)
C38 C 0.4588(10) 0.9291(11) 0.4879(10)
N37 N 0.8282(3) 0.9844(4) 0.7729(3)
N38 N 0.1718(3) 0.9844(4) 0.7271(3)
O37 O 0.6718(3) 0.7118(3) 0.8039(3)
O38 O 0.3282(3) 0.7118(3) 0.6961(3)
O39 O 0.7365(3) 0.6275(4) 0.8941(3)
O40 O 0.2635(3) 0.6275(4) 0.6059(3)
O41 O 0.3156(3) 0.6971(3) 0.5235(3)
O42 O 0.2508(3) 0.7758(3) 0.5667(3)
O15_2 O 0.1848(3) 0.3038(3) 0.4795(3)
O17_2 O 0.5272(4) 0.5737(4) 0.4765(3)
C20_2 C 0.2326(4) 0.2732(4) 0.5141(4)
C21_2 C 0.5152(5) 0.5356(5) 0.5119(4)
O21_2 O 0.2454(3) 0.2244(3) 0.4320(3)
C23_2 C 0.2674(4) 0.2268(4) 0.4859(4)
O23_2 O 0.4756(5) 0.4492(4) 0.4378(3)
C24_2 C 0.4848(5) 0.4644(5) 0.4881(4)
Zn13_2 Zn 0.50742(5) 0.53595(5) 0.39731(4)
Zn16_2 Zn 0.16659(4) 0.29160(5) 0.39018(4)
O13_2 O 0.1844(3) 0.8029(3) 0.4765(3)
C19_2 C 0.2315(4) 0.7729(4) 0.5131(4)
O19_2 O 0.2492(3) 0.7242(3) 0.4333(3)
C22_2 C 0.2685(4) 0.7271(4) 0.4869(4)
Zn21_2 Zn 0.17060(5) 0.78951(5) 0.38801(4)
N13_2 N 0.0521(4) 0.0383(4) 0.8717(3)
N14_2 N 0.0437(3) 0.0409(3) 0.8146(3)
N15_2 N 0.1030(3) 0.1310(4) 0.8618(3)
C9_2 C 0.0751(4) 0.0975(4) 0.8116(4)
H9_2 H 0.0773 0.1121 0.7771
C10_2 C 0.0859(4) 0.0928(5) 0.8976(4)
H10_2 H 0.0969 0.1039 0.9367
O46_2 O 0.0244(5) 0.0508(4) 0.5622(3)
O4_2 O 0.0794(10) 0.4309(11) 0.0731(10)
O13_3 O 0.3156(3) 0.3029(3) 0.0235(3)
O15_3 O 0.3152(3) 0.8038(3) 0.0205(3)
C14_2 C 0.0412(10) 0.4291(11) 0.0121(10)
O19_3 O 0.2508(3) 0.2242(3) 0.0667(3)
C22_3 C 0.2315(4) 0.2271(4) 0.0131(4)
O21_3 O 0.2546(3) 0.7244(3) 0.0680(3)
C23_3 C 0.2326(4) 0.7268(4) 0.0141(4)
O23_3 O 0.0244(5) 0.9492(4) 0.0622(3)
C24_3 C 0.0152(5) 0.9644(5) 0.0119(4)
Zn16_3 Zn 0.33341(4) 0.79160(5) 0.10982(4)
Zn21_3 Zn 0.32940(5) 0.28951(5) 0.11199(4)
Zn1_2 Zn 0.00380(5) 0.45458(5) 0.89760(4)
Zn2_2 Zn 0.0000 0.45807(6) 0.7500
Zn3_2 Zn 0.00742(5) 0.96405(5) 0.89731(4)
Zn4_2 Zn -0.0000 0.95746(6) 0.7500
Zn6_2 Zn 0.16659(4) 0.70840(5) 0.89018(4)
N4_2 N 0.0460(4) 0.5362(4) 0.8732(3)
N5_2 N 0.0401(3) 0.5395(3) 0.8161(3)
N6_2 N 0.0991(3) 0.6293(4) 0.8658(3)
N7_2 N 0.0467(3) 0.3800(4) 0.8159(3)
N8_2 N 0.0481(3) 0.3784(4) 0.8711(3)
N9_2 N 0.1102(4) 0.2945(4) 0.8658(3)
N16_2 N 0.0485(3) 0.8811(4) 0.8728(3)
N17_2 N 0.0462(3) 0.8803(3) 0.8170(3)
N18_2 N 0.1071(3) 0.7942(4) 0.8676(3)
O2_2 O 0.0576(5) 0.4691(5) 0.9828(4)
O9_2 O 0.2335(3) 0.6268(3) 0.8961(3)
O10_2 O 0.1667(3) 0.7094(3) 0.8052(3)
O11_2 O 0.2656(3) 0.5642(3) 0.8397(3)
O12_2 O 0.1883(3) 0.6385(3) 0.7459(3)
O14_2 O 0.2492(3) 0.2758(3) 0.9333(3)
O16_2 O 0.2454(3) 0.7756(3) 0.9320(3)
C3_2 C 0.0724(4) 0.5955(4) 0.8141(4)
H3_2 H 0.0762 0.6101 0.7804
C4_2 C 0.0799(4) 0.5900(5) 0.9007(4)
H4_2 H 0.0899 0.6004 0.9397
C5_2 C 0.0857(4) 0.3269(5) 0.8988(4)
H5_2 H 0.0944 0.3142 0.9371
C6_2 C 0.0845(4) 0.3291(4) 0.8149(4)
H6_2 H 0.0923 0.3185 0.7824
C11_2 C 0.0820(4) 0.8281(4) 0.8163(4)
H11_2 H 0.0891 0.8160 0.7837
C12_2 C 0.0847(4) 0.8292(4) 0.9010(4)
H12_2 H 0.0939 0.8180 0.9397
C13_2 C 0.0006(6) 0.3710(7) 0.9924(5)
C17_2 C 0.1931(4) 0.6579(5) 0.7946(4)
C18_2 C 0.2348(4) 0.6120(5) 0.8482(4)
C19_3 C 0.2685(4) 0.2729(4) 0.9869(4)
C20_3 C 0.2674(4) 0.7732(4) 0.9859(4)
O20_2 O 0.1844(3) 0.1971(3) 0.9765(3)
O22_2 O 0.1848(3) 0.6962(3) 0.9795(3)
O24_2 O 0.0272(4) 0.9263(4) 0.9765(3)
N19_2 N 0.0773(3) 0.4612(4) 0.6726(3)
N20_2 N 0.0822(3) 0.4589(3) 0.7281(3)
N21_2 N 0.1740(3) 0.4845(4) 0.7306(3)
N28_2 N 0.0750(3) 0.9614(4) 0.6700(3)
N29_2 N 0.0813(3) 0.9578(3) 0.7263(3)
O25_2 O 0.0329(4) 0.3778(5) 0.5611(4)
O27_2 O 0.0057(6) 0.3264(6) 0.4757(4)
O29_2 O 0.2366(3) 0.5608(3) 0.6647(3)
O30_2 O 0.3101(3) 0.6395(3) 0.7563(3)
C25_2 C 0.1404(4) 0.4721(5) 0.7616(4)
H13_2 H 0.1566 0.4729 0.8022
C26_2 C 0.1323(4) 0.4769(5) 0.6761(4)
H14_2 H 0.1411 0.4821 0.6435
C31_2 C 0.1398(4) 0.9717(5) 0.7591(4)
H19_2 H 0.1568 0.9725 0.7997
C32_2 C 0.1293(4) 0.9783(5) 0.6719(4)
H20_2 H 0.1372 0.9852 0.6390
C39_2 C 0.2641(4) 0.6124(5) 0.6543(4)
C40_2 C 0.3041(4) 0.6596(5) 0.7071(4)
O17_3 O 0.9728(4) 0.0737(4) 0.0235(3)
Zn13_3 Zn 0.99258(5) 0.03595(5) 0.10269(4)
O18_2 O 0.9756(5) 0.0508(4) 0.9378(3)
C21_3 C 0.9848(5) 0.0356(5) 0.9881(4)
N31_2 N 0.9479(4) 0.0383(4) 0.6283(3)
N32_2 N 0.9563(3) 0.0409(3) 0.6854(3)
N33_2 N 0.8970(3) 0.1310(4) 0.6382(3)
C33_2 C 0.9249(4) 0.0975(4) 0.6884(4)
H21_2 H 0.9227 0.1121 0.7229
C34_2 C 0.9141(4) 0.0928(5) 0.6024(4)
H22_2 H 0.9031 0.1039 0.5633
Zn2_3 Zn 1.0000 0.45807(6) 0.7500
Zn4_3 Zn 1.0000 0.95746(6) 0.7500
N1_2 N 0.9227(3) 0.4612(4) 0.8274(3)
N2_2 N 0.9178(3) 0.4589(3) 0.7719(3)
N3_2 N 0.8260(3) 0.4845(4) 0.7694(3)
N10_2 N 0.9250(3) 0.9614(4) 0.8300(3)
N11_2 N 0.9187(3) 0.9578(3) 0.7737(3)
O1_2 O 0.9671(4) 0.3778(5) 0.9389(4)
O5_2 O 0.7634(3) 0.5608(3) 0.8353(3)
O6_2 O 0.6899(3) 0.6395(3) 0.7437(3)
C1_2 C 0.8596(4) 0.4721(5) 0.7384(4)
H1_2 H 0.8434 0.4729 0.6978
C2_2 C 0.8677(4) 0.4769(5) 0.8239(4)
H2_2 H 0.8589 0.4821 0.8565
C7_2 C 0.8602(4) 0.9717(5) 0.7409(4)
H7_2 H 0.8432 0.9725 0.7003
C8_2 C 0.8707(4) 0.9783(5) 0.8281(4)
H8_2 H 0.8628 0.9852 0.8610
C15_2 C 0.7359(4) 0.6124(5) 0.8457(4)
C16_2 C 0.6959(4) 0.6596(5) 0.7929(4)
Zn8_2 Zn 0.99620(5) 0.45458(5) 0.60240(4)
Zn9_2 Zn 0.99258(5) 0.96405(5) 0.60269(4)
Zn11_2 Zn 0.83341(4) 0.70840(5) 0.60982(4)
N22_2 N 0.9540(4) 0.5362(4) 0.6268(3)
N23_2 N 0.9599(3) 0.5395(3) 0.6839(3)
N24_2 N 0.9009(3) 0.6293(4) 0.6342(3)
N25_2 N 0.9533(3) 0.3800(4) 0.6841(3)
N26_2 N 0.9519(3) 0.3784(4) 0.6289(3)
N27_2 N 0.8898(4) 0.2945(4) 0.6342(3)
N34_2 N 0.9515(3) 0.8811(4) 0.6272(3)
N35_2 N 0.9538(3) 0.8803(3) 0.6830(3)
N36_2 N 0.8929(3) 0.7942(4) 0.6324(3)
O26_2 O 0.9424(5) 0.4691(5) 0.5172(4)
O28_2 O 0.9206(10) 0.4309(11) 0.4269(10)
O33_2 O 0.7665(3) 0.6268(3) 0.6039(3)
O34_2 O 0.8333(3) 0.7094(3) 0.6948(3)
O35_2 O 0.7344(3) 0.5642(3) 0.6603(3)
O36_2 O 0.8117(3) 0.6385(3) 0.7541(3)
C27_2 C 0.9276(4) 0.5955(4) 0.6859(4)
H15_2 H 0.9238 0.6101 0.7196
C28_2 C 0.9201(4) 0.5900(5) 0.5993(4)
H16_2 H 0.9101 0.6004 0.5603
C29_2 C 0.9143(4) 0.3269(5) 0.6012(4)
H17_2 H 0.9056 0.3142 0.5629
C30_2 C 0.9155(4) 0.3291(4) 0.6851(4)
H18_2 H 0.9077 0.3185 0.7176
C35_2 C 0.9180(4) 0.8281(4) 0.6837(4)
H23_2 H 0.9109 0.8160 0.7163
C36_2 C 0.9153(4) 0.8292(4) 0.5990(4)
H24_2 H 0.9061 0.8180 0.5603
C37_2 C 0.9994(6) 0.3710(7) 0.5076(5)
C38_2 C 0.9588(10) 0.4291(11) 0.4879(10)
C41_2 C 0.8069(4) 0.6579(5) 0.7054(4)
C42_2 C 0.7652(4) 0.6120(5) 0.6518(4)
O41_2 O 0.8156(3) 0.1971(3) 0.5235(3)
O42_2 O 0.7508(3) 0.2758(3) 0.5667(3)
O43_2 O 0.8152(3) 0.6962(3) 0.5205(3)
O44_2 O 0.7546(3) 0.7756(3) 0.5680(3)
O45_2 O 0.9728(4) 0.9263(4) 0.5235(3)
O17_4 O 0.0272(4) 0.0737(4) 0.4765(3)
C21_4 C 0.0152(5) 0.0356(5) 0.5119(4)
Zn13_4 Zn 0.00742(5) 0.03595(5) 0.39731(4)
O13_4 O 0.6844(3) 0.3029(3) 0.4765(3)
O15_4 O 0.6848(3) 0.8038(3) 0.4795(3)
C19_4 C 0.7315(4) 0.2729(4) 0.5131(4)
C20_4 C 0.7326(4) 0.7732(4) 0.5141(4)
O19_4 O 0.7492(3) 0.2242(3) 0.4333(3)
C22_4 C 0.7685(4) 0.2271(4) 0.4869(4)
O21_4 O 0.7454(3) 0.7244(3) 0.4320(3)
C23_4 C 0.7674(4) 0.7268(4) 0.4859(4)
O23_4 O 0.9756(5) 0.9492(4) 0.4378(3)
C24_4 C 0.9848(5) 0.9644(5) 0.4881(4)
Zn16_4 Zn 0.66659(4) 0.79160(5) 0.39018(4)
Zn21_4 Zn 0.67060(5) 0.28951(5) 0.38801(4)
Zn1_3 Zn 0.49620(5) 0.04542(5) 0.10240(4)
Zn2_4 Zn 0.5000 0.04193(6) 0.2500
N1_3 N 0.5773(3) 0.0388(4) 0.1726(3)
N2_3 N 0.5822(3) 0.0411(3) 0.2281(3)
N3_3 N 0.6740(3) 0.0155(4) 0.2306(3)
N7_3 N 0.4533(3) 0.1200(4) 0.1841(3)
N8_3 N 0.4519(3) 0.1216(4) 0.1289(3)
N9_3 N 0.3898(4) 0.2055(4) 0.1342(3)
O1_3 O 0.5329(4) 0.1222(5) 0.0611(4)
O2_3 O 0.4424(5) 0.0309(5) 0.0172(4)
C1_3 C 0.6404(4) 0.0279(5) 0.2616(4)
H1_3 H 0.6566 0.0271 0.3022
C2_3 C 0.6323(4) 0.0231(5) 0.1761(4)
H2_3 H 0.6411 0.0179 0.1435
C5_3 C 0.4143(4) 0.1731(5) 0.1012(4)
H5_3 H 0.4056 0.1858 0.0629
C6_3 C 0.4155(4) 0.1709(4) 0.1851(4)
H6_3 H 0.4077 0.1815 0.2176
C13_3 C 0.4994(6) 0.1290(7) 0.0076(5)
Zn8_3 Zn 0.50380(5) 0.04542(5) 0.39760(4)
N19_3 N 0.4227(3) 0.0388(4) 0.3274(3)
N20_3 N 0.4178(3) 0.0411(3) 0.2719(3)
N21_3 N 0.3260(3) 0.0155(4) 0.2694(3)
N25_3 N 0.5467(3) 0.1200(4) 0.3159(3)
N26_3 N 0.5481(3) 0.1216(4) 0.3711(3)
N27_3 N 0.6102(4) 0.2055(4) 0.3658(3)
O25_3 O 0.4671(4) 0.1222(5) 0.4389(4)
O26_3 O 0.5576(5) 0.0309(5) 0.4828(4)
O27_3 O 0.4943(6) 0.1736(6) 0.5243(4)
O28_3 O 0.5794(10) 0.0691(11) 0.5731(10)
C25_3 C 0.3596(4) 0.0279(5) 0.2384(4)
H13_3 H 0.3434 0.0271 0.1978
C26_3 C 0.3677(4) 0.0231(5) 0.3239(4)
H14_3 H 0.3589 0.0179 0.3565
C29_3 C 0.5857(4) 0.1731(5) 0.3988(4)
H17_3 H 0.5944 0.1858 0.4371
C30_3 C 0.5845(4) 0.1709(4) 0.3149(4)
H18_3 H 0.5923 0.1815 0.2824
C37_3 C 0.5006(6) 0.1290(7) 0.4924(5)
C38_3 C 0.5412(10) 0.0709(11) 0.5121(10)
N37_2 N 0.1718(3) 0.0156(4) 0.2271(3)
N38_2 N 0.8282(3) 0.0156(4) 0.2729(3)
N39 N 0.3970(3) 0.3690(4) 0.1382(3)
N40 N 0.6030(3) 0.3690(4) 0.3618(3)
O37_2 O 0.3282(3) 0.2882(3) 0.1961(3)
O38_2 O 0.6718(3) 0.2882(3) 0.3039(3)
O39_2 O 0.2635(3) 0.3725(4) 0.1059(3)
O40_2 O 0.7365(3) 0.3725(4) 0.3941(3)
O3_2 O 0.5057(6) 0.1736(6) 0.9757(4)
O4_3 O 0.4206(10) 0.0691(11) 0.9269(10)
C14_3 C 0.4588(10) 0.0709(11) 0.9879(10)
Zn4_4 Zn 0.5000 0.54254(6) 0.2500
Zn5_2 Zn 0.75080(4) 0.95265(6) 0.25192(4)
N4_3 N 0.4540(4) 0.9638(4) 0.1268(3)
N5_3 N 0.4599(3) 0.9605(3) 0.1839(3)
N6_3 N 0.4009(3) 0.8707(4) 0.1342(3)
N10_3 N 0.5750(3) 0.5386(4) 0.1700(3)
N11_3 N 0.5813(3) 0.5422(3) 0.2263(3)
N12_2 N 0.6718(3) 0.5156(4) 0.2271(3)
N13_3 N 0.4479(4) 0.4617(4) 0.1283(3)
N14_3 N 0.4563(3) 0.4591(3) 0.1854(3)
N16_3 N 0.4515(3) 0.6189(4) 0.1272(3)
N17_3 N 0.4538(3) 0.6197(3) 0.1830(3)
N18_3 N 0.3929(3) 0.7058(4) 0.1324(3)
O5_3 O 0.7366(3) 0.9392(3) 0.1647(3)
O6_3 O 0.8101(3) 0.8605(3) 0.2563(3)
O7_2 O 0.8282(3) 0.7882(3) 0.1961(3)
O8_2 O 0.7635(3) 0.8725(4) 0.1059(3)
O9_3 O 0.2665(3) 0.8732(3) 0.1039(3)
O10_3 O 0.3333(3) 0.7906(3) 0.1948(3)
O11_3 O 0.2344(3) 0.9358(3) 0.1603(3)
O12_3 O 0.3117(3) 0.8615(3) 0.2541(3)
C3_3 C 0.4276(4) 0.9045(4) 0.1859(4)
H3_3 H 0.4238 0.8899 0.2196
C4_3 C 0.4201(4) 0.9100(5) 0.0993(4)
H4_3 H 0.4101 0.8996 0.0603
C7_3 C 0.6398(4) 0.5283(5) 0.2591(4)
H7_3 H 0.6568 0.5275 0.2997
C8_3 C 0.6293(4) 0.5217(5) 0.1719(4)
H8_3 H 0.6372 0.5148 0.1390
C9_3 C 0.4249(4) 0.4025(4) 0.1884(4)
H9_3 H 0.4227 0.3879 0.2229
C10_3 C 0.4141(4) 0.4072(5) 0.1024(4)
H10_3 H 0.4031 0.3961 0.0633
C11_3 C 0.4180(4) 0.6719(4) 0.1837(4)
H11_3 H 0.4109 0.6840 0.2163
C12_3 C 0.4153(4) 0.6708(4) 0.0990(4)
H12_3 H 0.4061 0.6820 0.0603
C15_3 C 0.7641(4) 0.8876(5) 0.1543(4)
C16_3 C 0.8041(4) 0.8404(5) 0.2071(4)
C17_3 C 0.3069(4) 0.8421(5) 0.2054(4)
C18_3 C 0.2652(4) 0.8880(5) 0.1518(4)
Zn10_2 Zn 0.24920(4) 0.95265(6) 0.24808(4)
N22_3 N 0.5460(4) 0.9638(4) 0.3732(3)
N23_3 N 0.5401(3) 0.9605(3) 0.3161(3)
N24_3 N 0.5991(3) 0.8707(4) 0.3658(3)
N28_3 N 0.4250(3) 0.5386(4) 0.3300(3)
N29_3 N 0.4187(3) 0.5422(3) 0.2737(3)
N30_2 N 0.3282(3) 0.5156(4) 0.2729(3)
N31_3 N 0.5521(4) 0.4617(4) 0.3717(3)
N32_3 N 0.5437(3) 0.4591(3) 0.3146(3)
N34_3 N 0.5485(3) 0.6189(4) 0.3728(3)
N35_3 N 0.5462(3) 0.6197(3) 0.3170(3)
N36_3 N 0.6071(3) 0.7058(4) 0.3676(3)
O29_3 O 0.2634(3) 0.9392(3) 0.3353(3)
O30_3 O 0.1899(3) 0.8605(3) 0.2437(3)
O31_2 O 0.1718(3) 0.7882(3) 0.3039(3)
O32_2 O 0.2365(3) 0.8725(4) 0.3941(3)
O33_3 O 0.7335(3) 0.8732(3) 0.3961(3)
O34_3 O 0.6667(3) 0.7906(3) 0.3052(3)
O35_3 O 0.7656(3) 0.9358(3) 0.3397(3)
O36_3 O 0.6883(3) 0.8615(3) 0.2459(3)
C27_3 C 0.5724(4) 0.9045(4) 0.3141(4)
H15_3 H 0.5762 0.8899 0.2804
C28_3 C 0.5799(4) 0.9100(5) 0.4007(4)
H16_3 H 0.5899 0.8996 0.4397
C31_3 C 0.3602(4) 0.5283(5) 0.2409(4)
H19_3 H 0.3432 0.5275 0.2003
C32_3 C 0.3707(4) 0.5217(5) 0.3281(4)
H20_3 H 0.3628 0.5148 0.3610
C33_3 C 0.5751(4) 0.4025(4) 0.3116(4)
H21_3 H 0.5773 0.3879 0.2771
C34_3 C 0.5859(4) 0.4072(5) 0.3976(4)
H22_3 H 0.5969 0.3961 0.4367
C35_3 C 0.5820(4) 0.6719(4) 0.3163(4)
H23_3 H 0.5891 0.6840 0.2837
C36_3 C 0.5847(4) 0.6708(4) 0.4010(4)
H24_3 H 0.5939 0.6820 0.4397
C39_3 C 0.2359(4) 0.8876(5) 0.3457(4)
C40_3 C 0.1959(4) 0.8404(5) 0.2929(4)
C41_3 C 0.6931(4) 0.8421(5) 0.2946(4)
C42_3 C 0.7348(4) 0.8880(5) 0.3482(4)
Zn14_2 Zn 0.25080(4) 0.45265(6) 0.25192(4)
Zn15_2 Zn 0.74920(4) 0.45265(6) 0.24808(4)
Zn2_5 Zn -0.0000 0.54193(6) 0.2500
Zn4_5 Zn -0.0000 0.04254(6) 0.2500
N1_4 N 0.0773(3) 0.5388(4) 0.1726(3)
N2_4 N 0.0822(3) 0.5411(3) 0.2281(3)
N3_4 N 0.1740(3) 0.5155(4) 0.2306(3)
N10_4 N 0.0750(3) 0.0386(4) 0.1700(3)
N11_4 N 0.0813(3) 0.0422(3) 0.2263(3)
O1_4 O 0.0329(4) 0.6222(5) 0.0611(4)
O5_4 O 0.2366(3) 0.4392(3) 0.1647(3)
O6_4 O 0.3101(3) 0.3605(3) 0.2563(3)
C1_4 C 0.1404(4) 0.5279(5) 0.2616(4)
H1_4 H 0.1566 0.5271 0.3022
C2_4 C 0.1323(4) 0.5231(5) 0.1761(4)
H2_4 H 0.1411 0.5179 0.1435
C7_4 C 0.1398(4) 0.0283(5) 0.2591(4)
H7_4 H 0.1568 0.0275 0.2997
C8_4 C 0.1293(4) 0.0217(5) 0.1719(4)
H8_4 H 0.1372 0.0148 0.1390
C15_4 C 0.2641(4) 0.3876(5) 0.1543(4)
C16_4 C 0.3041(4) 0.3404(5) 0.2071(4)
Zn8_4 Zn 0.00380(5) 0.54542(5) 0.39760(4)
N22_4 N 0.0460(4) 0.4638(4) 0.3732(3)
N23_4 N 0.0401(3) 0.4605(3) 0.3161(3)
N24_4 N 0.0991(3) 0.3707(4) 0.3658(3)
N25_4 N 0.0467(3) 0.6200(4) 0.3159(3)
N26_4 N 0.0481(3) 0.6216(4) 0.3711(3)
N27_4 N 0.1102(4) 0.7055(4) 0.3658(3)
N34_4 N 0.0485(3) 0.1189(4) 0.3728(3)
N35_4 N 0.0462(3) 0.1197(3) 0.3170(3)
N36_4 N 0.1071(3) 0.2058(4) 0.3676(3)
O26_4 O 0.0576(5) 0.5309(5) 0.4828(4)
O28_4 O 0.0794(10) 0.5691(11) 0.5731(10)
O33_4 O 0.2335(3) 0.3732(3) 0.3961(3)
O34_4 O 0.1667(3) 0.2906(3) 0.3052(3)
O35_4 O 0.2656(3) 0.4358(3) 0.3397(3)
O36_4 O 0.1883(3) 0.3615(3) 0.2459(3)
C27_4 C 0.0724(4) 0.4045(4) 0.3141(4)
H15_4 H 0.0762 0.3899 0.2804
C28_4 C 0.0799(4) 0.4100(5) 0.4007(4)
H16_4 H 0.0899 0.3996 0.4397
C29_4 C 0.0857(4) 0.6731(5) 0.3988(4)
H17_4 H 0.0944 0.6858 0.4371
C30_4 C 0.0845(4) 0.6709(4) 0.3149(4)
H18_4 H 0.0923 0.6815 0.2824
C35_4 C 0.0820(4) 0.1719(4) 0.3163(4)
H23_4 H 0.0891 0.1840 0.2837
C36_4 C 0.0847(4) 0.1708(4) 0.4010(4)
H24_4 H 0.0939 0.1820 0.4397
C37_4 C 0.0006(6) 0.6290(7) 0.4924(5)
C38_4 C 0.0412(10) 0.5709(11) 0.5121(10)
C41_4 C 0.1931(4) 0.3421(5) 0.2946(4)
C42_4 C 0.2348(4) 0.3880(5) 0.3482(4)
N40_2 N 0.1030(3) 0.8690(4) 0.3618(3)
N31_4 N 0.0521(4) 0.9617(4) 0.3717(3)
N32_4 N 0.0437(3) 0.9591(3) 0.3146(3)
C33_4 C 0.0751(4) 0.9025(4) 0.3116(4)
H21_4 H 0.0773 0.8879 0.2771
C34_4 C 0.0859(4) 0.9072(5) 0.3976(4)
H22_4 H 0.0969 0.8961 0.4367
Zn1_4 Zn 0.99620(5) 0.54542(5) 0.10240(4)
Zn2_6 Zn 1.0000 0.54193(6) 0.2500
Zn4_6 Zn 1.0000 0.04254(6) 0.2500
N4_4 N 0.9540(4) 0.4638(4) 0.1268(3)
N5_4 N 0.9599(3) 0.4605(3) 0.1839(3)
N6_4 N 0.9009(3) 0.3707(4) 0.1342(3)
N7_4 N 0.9533(3) 0.6200(4) 0.1841(3)
N8_4 N 0.9519(3) 0.6216(4) 0.1289(3)
N9_4 N 0.8898(4) 0.7055(4) 0.1342(3)
N16_4 N 0.9515(3) 0.1189(4) 0.1272(3)
N17_4 N 0.9538(3) 0.1197(3) 0.1830(3)
N18_4 N 0.8929(3) 0.2058(4) 0.1324(3)
O2_4 O 0.9424(5) 0.5309(5) 0.0172(4)
O9_4 O 0.7665(3) 0.3732(3) 0.1039(3)
O10_4 O 0.8333(3) 0.2906(3) 0.1948(3)
O11_4 O 0.7344(3) 0.4358(3) 0.1603(3)
O12_4 O 0.8117(3) 0.3615(3) 0.2541(3)
C3_4 C 0.9276(4) 0.4045(4) 0.1859(4)
H3_4 H 0.9238 0.3899 0.2196
C4_4 C 0.9201(4) 0.4100(5) 0.0993(4)
H4_4 H 0.9101 0.3996 0.0603
C5_4 C 0.9143(4) 0.6731(5) 0.1012(4)
H5_4 H 0.9056 0.6858 0.0629
C6_4 C 0.9155(4) 0.6709(4) 0.1851(4)
H6_4 H 0.9077 0.6815 0.2176
C11_4 C 0.9180(4) 0.1719(4) 0.1837(4)
H11_4 H 0.9109 0.1840 0.2163
C12_4 C 0.9153(4) 0.1708(4) 0.0990(4)
H12_4 H 0.9061 0.1820 0.0603
C13_4 C 0.9994(6) 0.6290(7) 0.0076(5)
C17_4 C 0.8069(4) 0.3421(5) 0.2054(4)
C18_4 C 0.7652(4) 0.3880(5) 0.1518(4)
N19_4 N 0.9227(3) 0.5388(4) 0.3274(3)
N20_4 N 0.9178(3) 0.5411(3) 0.2719(3)
N21_4 N 0.8260(3) 0.5155(4) 0.2694(3)
N28_4 N 0.9250(3) 0.0386(4) 0.3300(3)
N29_4 N 0.9187(3) 0.0422(3) 0.2737(3)
O25_4 O 0.9671(4) 0.6222(5) 0.4389(4)
O27_4 O 0.9943(6) 0.6736(6) 0.5243(4)
O29_4 O 0.7634(3) 0.4392(3) 0.3353(3)
O30_4 O 0.6899(3) 0.3605(3) 0.2437(3)
C25_4 C 0.8596(4) 0.5279(5) 0.2384(4)
H13_4 H 0.8434 0.5271 0.1978
C26_4 C 0.8677(4) 0.5231(5) 0.3239(4)
H14_4 H 0.8589 0.5179 0.3565
C31_4 C 0.8602(4) 0.0283(5) 0.2409(4)
H19_4 H 0.8432 0.0275 0.2003
C32_4 C 0.8707(4) 0.0217(5) 0.3281(4)
H20_4 H 0.8628 0.0148 0.3610
C39_4 C 0.7359(4) 0.3876(5) 0.3457(4)
C40_4 C 0.6959(4) 0.3404(5) 0.2929(4)
N39_2 N 0.8970(3) 0.8690(4) 0.1382(3)
O4_4 O 0.9206(10) 0.5691(11) 0.9269(10)
C14_4 C 0.9588(10) 0.5709(11) 0.9879(10)
N13_4 N 0.9479(4) 0.9617(4) 0.1283(3)
N14_4 N 0.9563(3) 0.9591(3) 0.1854(3)
C9_4 C 0.9249(4) 0.9025(4) 0.1884(4)
H9_4 H 0.9227 0.8879 0.2229
C10_4 C 0.9141(4) 0.9072(5) 0.1024(4)
H10_4 H 0.9031 0.8961 0.0633
O3_3 O 0.9943(6) 0.3264(6) 0.0243(4)
O3_4 O 0.0057(6) 0.6736(6) 0.9757(4)
loop_
_geom_bond_atom_site_label_1
_geom_bond_atom_site_label_2
_geom_bond_site_symmetry_1
_geom_bond_site_symmetry_2
O21 C23 1_555 1_555
O23 C24 1_555 1_555
Zn13 O17 1_555 1_555
Zn16 O15 1_555 1_555
O21 Zn16 1_555 1_555
O23 Zn13 1_555 1_555
Zn3 N10 1_555 1_555
Zn4 N11 1_555 1_555
Zn6 N6 1_555 1_555
N6 C3 1_555 1_555
N10 N11 1_555 1_555
N11 C7 1_555 1_555
N12 C7 1_555 1_555
N13 Zn3 1_555 1_555
N14 Zn4 1_555 1_555
N15 C9 1_555 1_555
N16 Zn3 1_555 1_555
N17 Zn4 1_555 1_555
N18 Zn6 1_555 1_555
O5 Zn5 1_555 1_555
O6 Zn5 1_555 1_555
O7 C16 1_555 1_555
O8 C15 1_555 1_555
O9 Zn6 1_555 1_555
O10 Zn6 1_555 1_555
O11 C18 1_555 1_555
O12 C17 1_555 1_555
O16 Zn6 1_555 1_555
O18 Zn3 1_555 1_555
C3 N5 1_555 1_555
H3 C3 1_555 1_555
C4 N4 1_555 1_555
H4 C4 1_555 1_555
C7 H7 1_555 1_555
C8 N10 1_555 1_555
H8 C8 1_555 1_555
C9 N14 1_555 1_555
H9 C9 1_555 1_555
C10 N13 1_555 1_555
H10 C10 1_555 1_555
C11 N17 1_555 1_555
H11 C11 1_555 1_555
C12 N16 1_555 1_555
H12 C12 1_555 1_555
C15 O5 1_555 1_555
C16 O6 1_555 1_555
C17 O10 1_555 1_555
C18 O9 1_555 1_555
C20 O16 1_555 1_555
C21 O18 1_555 1_555
O22 Zn6 1_555 1_555
O24 Zn3 1_555 1_555
Zn9 N28 1_555 1_555
Zn10 O11 1_555 1_555
Zn11 N24 1_555 1_555
N24 C27 1_555 1_555
N28 N29 1_555 1_555
N29 Zn4 1_555 1_555
N30 C31 1_555 1_555
N31 Zn9 1_555 1_555
N32 Zn4 1_555 1_555
N33 C33 1_555 1_555
N34 Zn9 1_555 1_555
N35 Zn4 1_555 1_555
N36 Zn11 1_555 1_555
O29 Zn10 1_555 1_555
O30 Zn10 1_555 1_555
O31 C40 1_555 1_555
O32 C39 1_555 1_555
O33 Zn11 1_555 1_555
O34 Zn11 1_555 1_555
O35 Zn5 1_555 1_555
O36 Zn5 1_555 1_555
C27 N23 1_555 1_555
H15 C27 1_555 1_555
C28 N22 1_555 1_555
H16 C28 1_555 1_555
C31 N29 1_555 1_555
H19 C31 1_555 1_555
C32 N28 1_555 1_555
H20 C32 1_555 1_555
C33 N32 1_555 1_555
H21 C33 1_555 1_555
C34 N31 1_555 1_555
H22 C34 1_555 1_555
C35 N35 1_555 1_555
H23 C35 1_555 1_555
C36 N34 1_555 1_555
H24 C36 1_555 1_555
C39 O29 1_555 1_555
C40 O30 1_555 1_555
C41 O34 1_555 1_555
C42 O33 1_555 1_555
Zn14 N30 1_555 1_555
Zn15 N12 1_555 1_555
Zn17 N15 1_555 1_555
Zn18 N33 1_555 1_555
Zn19 O7 1_555 1_555
Zn20 O31 1_555 1_555
O43 Zn11 1_555 1_555
O44 Zn11 1_555 1_555
O45 Zn9 1_555 1_555
O46 Zn9 1_555 1_555
N4 N5 1_555 1_555
N6 C4 1_555 1_555
N12 C8 1_555 1_555
N13 N14 1_555 1_555
N15 C10 1_555 1_555
N16 N17 1_555 1_555
N18 C11 1_555 1_555
N18 C12 1_555 1_555
O8 Zn19 1_555 1_555
O12 Zn10 1_555 1_555
C15 C16 1_555 1_555
C17 C18 1_555 1_555
N22 N23 1_555 1_555
N24 C28 1_555 1_555
N30 C32 1_555 1_555
N31 N32 1_555 1_555
N33 C34 1_555 1_555
N34 N35 1_555 1_555
N36 C35 1_555 1_555
N36 C36 1_555 1_555
O32 Zn20 1_555 1_555
O35 C42 1_555 1_555
O36 C41 1_555 1_555
C39 C40 1_555 1_555
C41 C42 1_555 1_555
O4 C14 1_555 1_555
O19 C22 1_555 1_555
Zn21 O13 1_555 1_555
O19 Zn21 1_555 1_555
Zn1 N1 1_555 1_555
Zn2 N2 1_555 1_555
Zn17 N9 1_555 1_555
N1 N2 1_555 1_555
N2 C1 1_555 1_555
N3 C1 1_555 1_555
N7 Zn2 1_555 1_555
N8 Zn1 1_555 1_555
N9 C5 1_555 1_555
O1 Zn1 1_555 1_555
O2 Zn1 1_555 1_555
O14 Zn17 1_555 1_555
C1 H1 1_555 1_555
C2 N1 1_555 1_555
H2 C2 1_555 1_555
C5 N8 1_555 1_555
H5 C5 1_555 1_555
C6 N7 1_555 1_555
H6 C6 1_555 1_555
C13 O1 1_555 1_555
C19 O14 1_555 1_555
O20 Zn17 1_555 1_555
Zn8 N19 1_555 1_555
Zn18 N27 1_555 1_555
N19 N20 1_555 1_555
N20 Zn2 1_555 1_555
N25 Zn2 1_555 1_555
N26 Zn8 1_555 1_555
N27 C29 1_555 1_555
O25 Zn8 1_555 1_555
O26 Zn8 1_555 1_555
O27 C37 1_555 1_555
O28 C38 1_555 1_555
C25 N20 1_555 1_555
H13 C25 1_555 1_555
C26 N19 1_555 1_555
H14 C26 1_555 1_555
C29 N26 1_555 1_555
H17 C29 1_555 1_555
C30 N25 1_555 1_555
H18 C30 1_555 1_555
C37 O25 1_555 1_555
C38 O26 1_555 1_555
O37 Zn17 1_555 1_555
O38 Zn18 1_555 1_555
O39 Zn17 1_555 1_555
O40 Zn18 1_555 1_555
O41 Zn18 1_555 1_555
O42 Zn18 1_555 1_555
N3 C2 1_555 1_555
N7 N8 1_555 1_555
N9 C6 1_555 1_555
N21 C25 1_555 1_555
N21 C26 1_555 1_555
N25 N26 1_555 1_555
N27 C30 1_555 1_555
C37 C38 1_555 1_555
O15_2 C20_2 1_555 1_555
O17_2 C21_2 1_555 1_555
C20_2 O44 1_555 1_555
C21_2 O46 1_555 1_555
O21_2 C23_2 1_555 1_555
C23_2 C20_2 1_555 1_555
O23_2 C24_2 1_555 1_555
C24_2 C21_2 1_555 1_555
Zn13_2 O17_2 1_555 1_555
Zn16_2 O15_2 1_555 1_555
O21_2 Zn16_2 1_555 1_555
C23_2 O43 1_555 1_555
O23_2 Zn13_2 1_555 1_555
C24_2 O45 1_555 1_555
O13_2 C19_2 1_555 1_555
C19_2 O42 1_555 1_555
O19_2 C22_2 1_555 1_555
C22_2 C19_2 1_555 1_555
Zn21_2 O13_2 1_555 1_555
O19_2 Zn21_2 1_555 1_555
C22_2 O41 1_555 1_555
N15_2 C9_2 1_555 1_555
C9_2 N14_2 1_555 1_555
H9_2 C9_2 1_555 1_555
C10_2 N13_2 1_555 1_555
H10_2 C10_2 1_555 1_555
Zn19 N15_2 1_555 1_555
N13_2 N14_2 1_555 1_555
N15_2 C10_2 1_555 1_555
O4_2 C14_2 1_555 1_555
O19_3 C22_3 1_555 1_555
O21_3 C23_3 1_555 1_555
O23_3 C24_3 1_555 1_555
Zn16_3 O15_3 1_555 1_555
Zn21_3 O13_3 1_555 1_555
O19_3 Zn21_3 1_555 1_555
O21_3 Zn16_3 1_555 1_555
Zn6_2 N6_2 1_555 1_555
Zn19 N9_2 1_555 1_555
N4_2 Zn1_2 1_555 1_555
N5_2 Zn2_2 1_555 1_555
N6_2 C3_2 1_555 1_555
N7_2 Zn2_2 1_555 1_555
N8_2 Zn1_2 1_555 1_555
N9_2 C5_2 1_555 1_555
N16_2 Zn3_2 1_555 1_555
N17_2 Zn4_2 1_555 1_555
N18_2 Zn6_2 1_555 1_555
O2_2 Zn1_2 1_555 1_555
O9_2 Zn6_2 1_555 1_555
O10_2 Zn6_2 1_555 1_555
O11_2 C18_2 1_555 1_555
O12_2 C17_2 1_555 1_555
O14_2 Zn19 1_555 1_555
O16_2 Zn6_2 1_555 1_555
C3_2 N5_2 1_555 1_555
H3_2 C3_2 1_555 1_555
C4_2 N4_2 1_555 1_555
H4_2 C4_2 1_555 1_555
C5_2 N8_2 1_555 1_555
H5_2 C5_2 1_555 1_555
C6_2 N7_2 1_555 1_555
H6_2 C6_2 1_555 1_555
C11_2 N17_2 1_555 1_555
H11_2 C11_2 1_555 1_555
C12_2 N16_2 1_555 1_555
H12_2 C12_2 1_555 1_555
C17_2 O10_2 1_555 1_555
C18_2 O9_2 1_555 1_555
C19_3 O14_2 1_555 1_555
C20_3 O16_2 1_555 1_555
O20_2 Zn19 1_555 1_555
O22_2 Zn6_2 1_555 1_555
O24_2 Zn3_2 1_555 1_555
Zn15 O11_2 1_555 1_555
N19_2 N20_2 1_555 1_555
N20_2 Zn2_2 1_555 1_555
N21_2 Zn15 1_555 1_555
N28_2 N29_2 1_555 1_555
N29_2 Zn4_2 1_555 1_555
N38 C31_2 1_555 1_555
O29_2 Zn15 1_555 1_555
O30_2 Zn15 1_555 1_555
O38 C40_2 1_555 1_555
O40 C39_2 1_555 1_555
C25_2 N20_2 1_555 1_555
H13_2 C25_2 1_555 1_555
C26_2 N19_2 1_555 1_555
H14_2 C26_2 1_555 1_555
C31_2 N29_2 1_555 1_555
H19_2 C31_2 1_555 1_555
C32_2 N28_2 1_555 1_555
H20_2 C32_2 1_555 1_555
C39_2 O29_2 1_555 1_555
C40_2 O30_2 1_555 1_555
N4_2 N5_2 1_555 1_555
N6_2 C4_2 1_555 1_555
N7_2 N8_2 1_555 1_555
N9_2 C6_2 1_555 1_555
N16_2 N17_2 1_555 1_555
N18_2 C11_2 1_555 1_555
N18_2 C12_2 1_555 1_555
O12_2 Zn15 1_555 1_555
C17_2 C18_2 1_555 1_555
N21_2 C25_2 1_555 1_555
N21_2 C26_2 1_555 1_555
N38 C32_2 1_555 1_555
C39_2 C40_2 1_555 1_555
Zn13_3 O17_3 1_555 1_555
C21_3 O18_2 1_555 1_555
N33_2 C33_2 1_555 1_555
C33_2 N32_2 1_555 1_555
H21_2 C33_2 1_555 1_555
C34_2 N31_2 1_555 1_555
H22_2 C34_2 1_555 1_555
Zn20 N33_2 1_555 1_555
N31_2 N32_2 1_555 1_555
N33_2 C34_2 1_555 1_555
Zn2_3 N2_2 1_555 1_555
Zn4_3 N11_2 1_555 1_555
Zn14 N3_2 1_555 1_555
N1_2 N2_2 1_555 1_555
N2_2 C1_2 1_555 1_555
N3_2 C1_2 1_555 1_555
N10_2 N11_2 1_555 1_555
N11_2 C7_2 1_555 1_555
N37 C7_2 1_555 1_555
O5_2 Zn14 1_555 1_555
O6_2 Zn14 1_555 1_555
O37 C16_2 1_555 1_555
O39 C15_2 1_555 1_555
C1_2 H1_2 1_555 1_555
C2_2 N1_2 1_555 1_555
H2_2 C2_2 1_555 1_555
C7_2 H7_2 1_555 1_555
C8_2 N10_2 1_555 1_555
H8_2 C8_2 1_555 1_555
C15_2 O5_2 1_555 1_555
C16_2 O6_2 1_555 1_555
Zn11_2 N24_2 1_555 1_555
Zn20 N27_2 1_555 1_555
N22_2 Zn8_2 1_555 1_555
N23_2 Zn2_3 1_555 1_555
N24_2 C27_2 1_555 1_555
N25_2 Zn2_3 1_555 1_555
N26_2 Zn8_2 1_555 1_555
N27_2 C29_2 1_555 1_555
N34_2 Zn9_2 1_555 1_555
N35_2 Zn4_3 1_555 1_555
N36_2 Zn11_2 1_555 1_555
O26_2 Zn8_2 1_555 1_555
O28_2 C38_2 1_555 1_555
O33_2 Zn11_2 1_555 1_555
O34_2 Zn11_2 1_555 1_555
O35_2 Zn14 1_555 1_555
O36_2 Zn14 1_555 1_555
C27_2 N23_2 1_555 1_555
H15_2 C27_2 1_555 1_555
C28_2 N22_2 1_555 1_555
H16_2 C28_2 1_555 1_555
C29_2 N26_2 1_555 1_555
H17_2 C29_2 1_555 1_555
C30_2 N25_2 1_555 1_555
H18_2 C30_2 1_555 1_555
C35_2 N35_2 1_555 1_555
H23_2 C35_2 1_555 1_555
C36_2 N34_2 1_555 1_555
H24_2 C36_2 1_555 1_555
C38_2 O26_2 1_555 1_555
C41_2 O34_2 1_555 1_555
C42_2 O33_2 1_555 1_555
O41_2 Zn20 1_555 1_555
O42_2 Zn20 1_555 1_555
O43_2 Zn11_2 1_555 1_555
O44_2 Zn11_2 1_555 1_555
O45_2 Zn9_2 1_555 1_555
N3_2 C2_2 1_555 1_555
N37 C8_2 1_555 1_555
C15_2 C16_2 1_555 1_555
N22_2 N23_2 1_555 1_555
N24_2 C28_2 1_555 1_555
N25_2 N26_2 1_555 1_555
N27_2 C30_2 1_555 1_555
N34_2 N35_2 1_555 1_555
N36_2 C35_2 1_555 1_555
N36_2 C36_2 1_555 1_555
O35_2 C42_2 1_555 1_555
O36_2 C41_2 1_555 1_555
C37_2 C38_2 1_555 1_555
C41_2 C42_2 1_555 1_555
O17_4 C21_4 1_555 1_555
C21_4 O46_2 1_555 1_555
Zn13_4 O17_4 1_555 1_555
O13_4 C19_4 1_555 1_555
O15_4 C20_4 1_555 1_555
C19_4 O42_2 1_555 1_555
C20_4 O44_2 1_555 1_555
O19_4 C22_4 1_555 1_555
C22_4 C19_4 1_555 1_555
O21_4 C23_4 1_555 1_555
C23_4 C20_4 1_555 1_555
O23_4 C24_4 1_555 1_555
Zn16_4 O15_4 1_555 1_555
Zn21_4 O13_4 1_555 1_555
O19_4 Zn21_4 1_555 1_555
C22_4 O41_2 1_555 1_555
O21_4 Zn16_4 1_555 1_555
C23_4 O43_2 1_555 1_555
C24_4 O45_2 1_555 1_555
Zn1_3 N1_3 1_555 1_555
Zn2_4 N2_3 1_555 1_555
Zn21_3 N9_3 1_555 1_555
N1_3 N2_3 1_555 1_555
N2_3 C1_3 1_555 1_555
N3_3 C1_3 1_555 1_555
N7_3 Zn2_4 1_555 1_555
N8_3 Zn1_3 1_555 1_555
N9_3 C5_3 1_555 1_555
O1_3 Zn1_3 1_555 1_555
O2_3 Zn1_3 1_555 1_555
C1_3 H1_3 1_555 1_555
C2_3 N1_3 1_555 1_555
H2_3 C2_3 1_555 1_555
C5_3 N8_3 1_555 1_555
H5_3 C5_3 1_555 1_555
C6_3 N7_3 1_555 1_555
H6_3 C6_3 1_555 1_555
C13_3 O1_3 1_555 1_555
Zn8_3 N19_3 1_555 1_555
Zn21_4 N27_3 1_555 1_555
N19_3 N20_3 1_555 1_555
N20_3 Zn2_4 1_555 1_555
N25_3 Zn2_4 1_555 1_555
N26_3 Zn8_3 1_555 1_555
N27_3 C29_3 1_555 1_555
O25_3 Zn8_3 1_555 1_555
O26_3 Zn8_3 1_555 1_555
O27_3 C37_3 1_555 1_555
O28_3 C38_3 1_555 1_555
C25_3 N20_3 1_555 1_555
H13_3 C25_3 1_555 1_555
C26_3 N19_3 1_555 1_555
H14_3 C26_3 1_555 1_555
C29_3 N26_3 1_555 1_555
H17_3 C29_3 1_555 1_555
C30_3 N25_3 1_555 1_555
H18_3 C30_3 1_555 1_555
C37_3 O25_3 1_555 1_555
C38_3 O26_3 1_555 1_555
N39 Zn21_3 1_555 1_555
N40 Zn21_4 1_555 1_555
O37_2 Zn21_3 1_555 1_555
O38_2 Zn21_4 1_555 1_555
O39_2 Zn21_3 1_555 1_555
O40_2 Zn21_4 1_555 1_555
N3_3 C2_3 1_555 1_555
N7_3 N8_3 1_555 1_555
N9_3 C6_3 1_555 1_555
N21_3 C25_3 1_555 1_555
N21_3 C26_3 1_555 1_555
N25_3 N26_3 1_555 1_555
N27_3 C30_3 1_555 1_555
C37_3 C38_3 1_555 1_555
O4_3 C14_3 1_555 1_555
Zn13 N10_3 1_555 1_555
Zn4_4 N11_3 1_555 1_555
Zn16_3 N6_3 1_555 1_555
N6_3 C3_3 1_555 1_555
N10_3 N11_3 1_555 1_555
N11_3 C7_3 1_555 1_555
N12_2 C7_3 1_555 1_555
N13_3 Zn13 1_555 1_555
N14_3 Zn4_4 1_555 1_555
N39 C9_3 1_555 1_555
N16_3 Zn13 1_555 1_555
N17_3 Zn4_4 1_555 1_555
N18_3 Zn16_3 1_555 1_555
O5_3 Zn5_2 1_555 1_555
O6_3 Zn5_2 1_555 1_555
O7_2 C16_3 1_555 1_555
O8_2 C15_3 1_555 1_555
O9_3 Zn16_3 1_555 1_555
O10_3 Zn16_3 1_555 1_555
O11_3 C18_3 1_555 1_555
O12_3 C17_3 1_555 1_555
C3_3 N5_3 1_555 1_555
H3_3 C3_3 1_555 1_555
C4_3 N4_3 1_555 1_555
H4_3 C4_3 1_555 1_555
C7_3 H7_3 1_555 1_555
C8_3 N10_3 1_555 1_555
H8_3 C8_3 1_555 1_555
C9_3 N14_3 1_555 1_555
H9_3 C9_3 1_555 1_555
C10_3 N13_3 1_555 1_555
H10_3 C10_3 1_555 1_555
C11_3 N17_3 1_555 1_555
H11_3 C11_3 1_555 1_555
C12_3 N16_3 1_555 1_555
H12_3 C12_3 1_555 1_555
C15_3 O5_3 1_555 1_555
C16_3 O6_3 1_555 1_555
C17_3 O10_3 1_555 1_555
C18_3 O9_3 1_555 1_555
Zn13_2 N28_3 1_555 1_555
Zn10_2 O11_3 1_555 1_555
Zn16_4 N24_3 1_555 1_555
N24_3 C27_3 1_555 1_555
N28_3 N29_3 1_555 1_555
N29_3 Zn4_4 1_555 1_555
N30_2 C31_3 1_555 1_555
N31_3 Zn13_2 1_555 1_555
N32_3 Zn4_4 1_555 1_555
N40 C33_3 1_555 1_555
N34_3 Zn13_2 1_555 1_555
N35_3 Zn4_4 1_555 1_555
N36_3 Zn16_4 1_555 1_555
O29_3 Zn10_2 1_555 1_555
O30_3 Zn10_2 1_555 1_555
O31_2 C40_3 1_555 1_555
O32_2 C39_3 1_555 1_555
O33_3 Zn16_4 1_555 1_555
O34_3 Zn16_4 1_555 1_555
O35_3 Zn5_2 1_555 1_555
O36_3 Zn5_2 1_555 1_555
C27_3 N23_3 1_555 1_555
H15_3 C27_3 1_555 1_555
C28_3 N22_3 1_555 1_555
H16_3 C28_3 1_555 1_555
C31_3 N29_3 1_555 1_555
H19_3 C31_3 1_555 1_555
C32_3 N28_3 1_555 1_555
H20_3 C32_3 1_555 1_555
C33_3 N32_3 1_555 1_555
H21_3 C33_3 1_555 1_555
C34_3 N31_3 1_555 1_555
H22_3 C34_3 1_555 1_555
C35_3 N35_3 1_555 1_555
H23_3 C35_3 1_555 1_555
C36_3 N34_3 1_555 1_555
H24_3 C36_3 1_555 1_555
C39_3 O29_3 1_555 1_555
C40_3 O30_3 1_555 1_555
C41_3 O34_3 1_555 1_555
C42_3 O33_3 1_555 1_555
Zn14_2 N30_2 1_555 1_555
Zn15_2 N12_2 1_555 1_555
Zn21 O7_2 1_555 1_555
Zn21_2 O31_2 1_555 1_555
N4_3 N5_3 1_555 1_555
N6_3 C4_3 1_555 1_555
N12_2 C8_3 1_555 1_555
N13_3 N14_3 1_555 1_555
N39 C10_3 1_555 1_555
N16_3 N17_3 1_555 1_555
N18_3 C11_3 1_555 1_555
N18_3 C12_3 1_555 1_555
O8_2 Zn21 1_555 1_555
O12_3 Zn10_2 1_555 1_555
C15_3 C16_3 1_555 1_555
C17_3 C18_3 1_555 1_555
N22_3 N23_3 1_555 1_555
N24_3 C28_3 1_555 1_555
N30_2 C32_3 1_555 1_555
N31_3 N32_3 1_555 1_555
N40 C34_3 1_555 1_555
N34_3 N35_3 1_555 1_555
N36_3 C35_3 1_555 1_555
N36_3 C36_3 1_555 1_555
O32_2 Zn21_2 1_555 1_555
O35_3 C42_3 1_555 1_555
O36_3 C41_3 1_555 1_555
C39_3 C40_3 1_555 1_555
C41_3 C42_3 1_555 1_555
Zn2_5 N2_4 1_555 1_555
Zn4_5 N11_4 1_555 1_555
Zn14_2 N3_4 1_555 1_555
N1_4 N2_4 1_555 1_555
N2_4 C1_4 1_555 1_555
N3_4 C1_4 1_555 1_555
N10_4 N11_4 1_555 1_555
N11_4 C7_4 1_555 1_555
N37_2 C7_4 1_555 1_555
O5_4 Zn14_2 1_555 1_555
O6_4 Zn14_2 1_555 1_555
O37_2 C16_4 1_555 1_555
O39_2 C15_4 1_555 1_555
C1_4 H1_4 1_555 1_555
C2_4 N1_4 1_555 1_555
H2_4 C2_4 1_555 1_555
C7_4 H7_4 1_555 1_555
C8_4 N10_4 1_555 1_555
H8_4 C8_4 1_555 1_555
C15_4 O5_4 1_555 1_555
C16_4 O6_4 1_555 1_555
Zn16_2 N24_4 1_555 1_555
Zn21_2 N27_4 1_555 1_555
N22_4 Zn8_4 1_555 1_555
N23_4 Zn2_5 1_555 1_555
N24_4 C27_4 1_555 1_555
N25_4 Zn2_5 1_555 1_555
N26_4 Zn8_4 1_555 1_555
N27_4 C29_4 1_555 1_555
N34_4 Zn13_4 1_555 1_555
N35_4 Zn4_5 1_555 1_555
N36_4 Zn16_2 1_555 1_555
O26_4 Zn8_4 1_555 1_555
O28_4 C38_4 1_555 1_555
O33_4 Zn16_2 1_555 1_555
O34_4 Zn16_2 1_555 1_555
O35_4 Zn14_2 1_555 1_555
O36_4 Zn14_2 1_555 1_555
C27_4 N23_4 1_555 1_555
H15_4 C27_4 1_555 1_555
C28_4 N22_4 1_555 1_555
H16_4 C28_4 1_555 1_555
C29_4 N26_4 1_555 1_555
H17_4 C29_4 1_555 1_555
C30_4 N25_4 1_555 1_555
H18_4 C30_4 1_555 1_555
C35_4 N35_4 1_555 1_555
H23_4 C35_4 1_555 1_555
C36_4 N34_4 1_555 1_555
H24_4 C36_4 1_555 1_555
C38_4 O26_4 1_555 1_555
C41_4 O34_4 1_555 1_555
C42_4 O33_4 1_555 1_555
N40_2 Zn21_2 1_555 1_555
N3_4 C2_4 1_555 1_555
N37_2 C8_4 1_555 1_555
C15_4 C16_4 1_555 1_555
N22_4 N23_4 1_555 1_555
N24_4 C28_4 1_555 1_555
N25_4 N26_4 1_555 1_555
N27_4 C30_4 1_555 1_555
N34_4 N35_4 1_555 1_555
N36_4 C35_4 1_555 1_555
N36_4 C36_4 1_555 1_555
O35_4 C42_4 1_555 1_555
O36_4 C41_4 1_555 1_555
C37_4 C38_4 1_555 1_555
C41_4 C42_4 1_555 1_555
N40_2 C33_4 1_555 1_555
C33_4 N32_4 1_555 1_555
H21_4 C33_4 1_555 1_555
C34_4 N31_4 1_555 1_555
H22_4 C34_4 1_555 1_555
N31_4 N32_4 1_555 1_555
N40_2 C34_4 1_555 1_555
Zn16 N6_4 1_555 1_555
Zn21 N9_4 1_555 1_555
N4_4 Zn1_4 1_555 1_555
N5_4 Zn2_6 1_555 1_555
N6_4 C3_4 1_555 1_555
N7_4 Zn2_6 1_555 1_555
N8_4 Zn1_4 1_555 1_555
N9_4 C5_4 1_555 1_555
N16_4 Zn13_3 1_555 1_555
N17_4 Zn4_6 1_555 1_555
N18_4 Zn16 1_555 1_555
O2_4 Zn1_4 1_555 1_555
O9_4 Zn16 1_555 1_555
O10_4 Zn16 1_555 1_555
O11_4 C18_4 1_555 1_555
O12_4 C17_4 1_555 1_555
C3_4 N5_4 1_555 1_555
H3_4 C3_4 1_555 1_555
C4_4 N4_4 1_555 1_555
H4_4 C4_4 1_555 1_555
C5_4 N8_4 1_555 1_555
H5_4 C5_4 1_555 1_555
C6_4 N7_4 1_555 1_555
H6_4 C6_4 1_555 1_555
C11_4 N17_4 1_555 1_555
H11_4 C11_4 1_555 1_555
C12_4 N16_4 1_555 1_555
H12_4 C12_4 1_555 1_555
C17_4 O10_4 1_555 1_555
C18_4 O9_4 1_555 1_555
Zn15_2 O11_4 1_555 1_555
N19_4 N20_4 1_555 1_555
N20_4 Zn2_6 1_555 1_555
N21_4 Zn15_2 1_555 1_555
N28_4 N29_4 1_555 1_555
N29_4 Zn4_6 1_555 1_555
N38_2 C31_4 1_555 1_555
O29_4 Zn15_2 1_555 1_555
O30_4 Zn15_2 1_555 1_555
O38_2 C40_4 1_555 1_555
O40_2 C39_4 1_555 1_555
C25_4 N20_4 1_555 1_555
H13_4 C25_4 1_555 1_555
C26_4 N19_4 1_555 1_555
H14_4 C26_4 1_555 1_555
C31_4 N29_4 1_555 1_555
H19_4 C31_4 1_555 1_555
C32_4 N28_4 1_555 1_555
H20_4 C32_4 1_555 1_555
C39_4 O29_4 1_555 1_555
C40_4 O30_4 1_555 1_555
N39_2 Zn21 1_555 1_555
N4_4 N5_4 1_555 1_555
N6_4 C4_4 1_555 1_555
N7_4 N8_4 1_555 1_555
N9_4 C6_4 1_555 1_555
N16_4 N17_4 1_555 1_555
N18_4 C11_4 1_555 1_555
N18_4 C12_4 1_555 1_555
O12_4 Zn15_2 1_555 1_555
C17_4 C18_4 1_555 1_555
N21_4 C25_4 1_555 1_555
N21_4 C26_4 1_555 1_555
N38_2 C32_4 1_555 1_555
C39_4 C40_4 1_555 1_555
O4_4 C14_4 1_555 1_555
N39_2 C9_4 1_555 1_555
C9_4 N14_4 1_555 1_555
H9_4 C9_4 1_555 1_555
C10_4 N13_4 1_555 1_555
H10_4 C10_4 1_555 1_555
N13_4 N14_4 1_555 1_555
N39_2 C10_4 1_555 1_555

#END
