
###############################################################################
#
# This file contains modified crystal structure data generated from the
# MOF subset of the Cambridge Structural Database (CSD) v543 
# hosted by the Cambridge Crystallographic Data Centre (CCDC).
#
# This work is licensed under the Creative Commons
# Attribution-NonCommercial-ShareAlike 4.0 International License.
# To view a copy of this license, visit
# http://creativecommons.org/licenses/by-nc-sa/4.0/
# or send a letter to
# Creative Commons, PO Box 1866, Mountain View, CA 94042, USA.
#
# CIF created using the CSD Python API on 29 September 2022
# The structure has been converted into the P1 space group
# The structure has a 3D framework
# The original CSD entry OSIWUJ is in the monoclinic crystal system
# The framework has been calculated to contain at least 10.0% void space
# The void calculation uses a probe of radius 1.32A, grid spacing 0.4
#
###############################################################################

data_OSIWUJ
_chemical_formula_moiety         '(C64 H96 Ag8 N48)n'
_symmetry_cell_setting           triclinic
_symmetry_space_group_name_H-M   'P 1'
_symmetry_Int_Tables_number      1
_space_group_name_Hall           'P 1'
loop_
_symmetry_equiv_pos_site_id
_symmetry_equiv_pos_as_xyz
1 x,y,z
_cell_length_a                   13.1876(10)
_cell_length_b                   21.3132(15)
_cell_length_c                   11.7034(8)
_cell_angle_alpha                90
_cell_angle_beta                 122.8280(10)
_cell_angle_gamma                90
_cell_volume                     2764.15
loop_
_atom_site_label
_atom_site_type_symbol
_atom_site_fract_x
_atom_site_fract_y
_atom_site_fract_z
Ag3 Ag 0.07684(3) 0.301451(15) 0.68236(3)
N8 N 0.1156(3) 0.40484(14) 0.6632(3)
N17 N 0.2231(3) 0.23915(15) 0.8181(3)
H24 H 0.0187 0.2069 0.4081
Ag1 Ag 0.57684(3) 0.198549(15) 0.18236(3)
Ag2 Ag 0.64860(3) 0.062780(14) 0.44269(3)
N1 N 0.6156(3) 0.09516(14) 0.1632(3)
N2 N 0.6484(3) 0.04816(15) 0.2579(3)
N3 N 0.6560(3) 0.00969(15) 0.0862(3)
N4 N 0.3916(3) 0.20580(15) 0.0019(3)
C1 C 0.6212(4) 0.06993(17) 0.0635(4)
H5 H 0.7086 0.1763 0.0252
H9 H 0.4453 0.3258 0.0388
Ag4 Ag 0.42316(3) 0.198549(15) 0.31764(3)
Ag6 Ag 0.92316(3) 0.301451(15) 0.81764(3)
Ag8 Ag 0.35140(3) 0.062780(14) 0.05731(3)
Ag10 Ag 0.85140(3) 0.437220(14) 0.55731(3)
N10 N 0.3516(3) 0.04816(15) 0.2421(3)
N13 N 0.8916(3) 0.29420(15) 0.5019(3)
N14 N 0.8142(3) 0.34407(15) 0.4487(3)
N15 N 0.6858(3) 0.15593(15) 0.5513(3)
N16 N 0.7231(3) 0.26085(15) 0.3181(3)
C10 C 0.6701(4) 0.00100(19) 0.7065(4)
H13 H 0.6932 0.0397 0.7500
C13 C 0.8347(4) 0.24550(18) 0.4218(4)
C14 C 0.7165(4) 0.3225(2) 0.3410(4)
H19 H 0.6488 0.3471 0.2854
C15 C 0.8904(4) 0.1818(2) 0.4422(5)
H20 H 0.8275 0.1502 0.4068
H21 H 0.9453 0.1742 0.5388
C16 C 0.9569(9) 0.1755(4) 0.3742(11)
H22 H 0.9931 0.1346 0.3924
H23 H 0.9021 0.1807 0.2780
N5 N 0.3142(3) 0.15593(15) 0.9487(3)
C3 C 0.5909(5) 0.1054(2) 0.9382(4)
H2 H 0.5204 0.1312 0.9096
H3 H 0.5698 0.0755 0.8660
C4 C 0.6886(7) 0.1457(4) 0.9557(7)
H4 H 0.6627 0.1668 0.8716
H6 H 0.7582 0.1206 0.9818
C5 C 0.3347(4) 0.25450(18) 0.9218(4)
C6 C 0.2165(4) 0.1775(2) 0.8410(4)
H7 H 0.1488 0.1529 0.7854
C7 C 0.3904(4) 0.3182(2) 0.9422(5)
H8 H 0.3275 0.3498 0.9068
C8 C 0.4569(9) 0.3245(4) 0.8742(11)
H10 H 0.4931 0.3654 0.8924
H11 H 0.4021 0.3193 0.7780
H12 H 0.5187 0.2931 0.9081
C2 C 0.6701(4) 0.99900(19) 0.2065(4)
H1 H 0.6932 0.9603 0.2500
Ag7 Ag 0.57684(3) 0.801451(15) 0.68236(3)
Ag11 Ag 0.64860(3) 0.937220(14) 0.94269(3)
N7 N 0.6156(3) 0.90484(14) 0.6632(3)
N9 N 0.6484(3) 0.95184(15) 0.7579(3)
N11 N 0.6560(3) 0.99031(15) 0.5862(3)
C9 C 0.6212(4) 0.93007(17) 0.5635(4)
C11 C 0.5909(5) 0.8946(2) 0.4382(4)
H14 H 0.5204 0.8688 0.4096
H15 H 0.5698 0.9245 0.3660
C12 C 0.6886(7) 0.8543(4) 0.4557(7)
H16 H 0.6627 0.8332 0.3716
H17 H 0.7086 0.8237 0.5252
H18 H 0.7582 0.8794 0.4818
N12 N 0.3440(3) 0.99031(15) 0.9138(3)
N1_2 N 0.3844(3) 0.09516(14) 0.3368(3)
N3_2 N 0.3440(3) 0.00969(15) 0.4138(3)
N4_2 N 0.6084(3) 0.20580(15) 0.4981(3)
N6 N 0.7769(3) 0.23915(15) 0.6819(3)
C1_2 C 0.3788(4) 0.06993(17) 0.4365(4)
C3_2 C 0.4091(5) 0.1054(2) 0.5618(4)
H2_2 H 0.4796 0.1312 0.5904
H3_2 H 0.4302 0.0755 0.6340
C4_2 C 0.3114(7) 0.1457(4) 0.5443(7)
H4_2 H 0.3373 0.1668 0.6284
H5_2 H 0.2914 0.1763 0.4748
H6_2 H 0.2418 0.1206 0.5182
C5_2 C 0.6653(4) 0.25450(18) 0.5782(4)
C6_2 C 0.7835(4) 0.1775(2) 0.6590(4)
H7_2 H 0.8512 0.1529 0.7146
C7_2 C 0.6096(4) 0.3182(2) 0.5578(5)
H8_2 H 0.6725 0.3498 0.5932
H9_2 H 0.5547 0.3258 0.4612
C8_2 C 0.5431(9) 0.3245(4) 0.6258(11)
H10_2 H 0.5069 0.3654 0.6076
H11_2 H 0.5979 0.3193 0.7220
H12_2 H 0.4813 0.2931 0.5919
N14_2 N 0.1858(3) 0.34407(15) 0.0513(3)
N16_2 N 0.2769(3) 0.26085(15) 0.1819(3)
C13_2 C 0.1653(4) 0.24550(18) 0.0782(4)
C14_2 C 0.2835(4) 0.3225(2) 0.1590(4)
H19_2 H 0.3512 0.3471 0.2146
C15_2 C 0.1096(4) 0.1818(2) 0.0578(5)
H20_2 H 0.1725 0.1502 0.0932
C16_2 C 0.0431(9) 0.1755(4) 0.1258(11)
H22_2 H 0.0069 0.1346 0.1076
H23_2 H 0.0979 0.1807 0.2220
Ag10_2 Ag 0.14860(3) 0.437220(14) 0.94269(3)
N13_2 N 0.1084(3) 0.29420(15) 0.9981(3)
C10_2 C 0.3299(4) 0.00100(19) 0.7935(4)
H13_2 H 0.3068 0.0397 0.7500
H21_2 H 0.0547 0.1742 0.9612
C2_2 C 0.3299(4) 0.99900(19) 0.2935(4)
H1_2 H 0.3068 0.9603 0.2500
Ag9 Ag 0.35140(3) 0.937220(14) 0.55731(3)
C11_2 C 0.4091(5) 0.8946(2) 0.0618(4)
H14_2 H 0.4796 0.8688 0.0904
H15_2 H 0.4302 0.9245 0.1340
C12_2 C 0.3114(7) 0.8543(4) 0.0443(7)
H16_2 H 0.3373 0.8332 0.1284
H18_2 H 0.2418 0.8794 0.0182
Ag7_2 Ag 0.42316(3) 0.801451(15) 0.81764(3)
N7_2 N 0.3844(3) 0.90484(14) 0.8368(3)
N9_2 N 0.3516(3) 0.95184(15) 0.7421(3)
C9_2 C 0.3788(4) 0.93007(17) 0.9365(4)
H17_2 H 0.2914 0.8237 0.9748
H24_2 H 0.9813 0.2069 0.0919
N8_2 N 0.8844(3) 0.40484(14) 0.8368(3)
Ag1_2 Ag 0.07684(3) 0.698549(15) 0.18236(3)
Ag2_2 Ag 0.14860(3) 0.562780(14) 0.44269(3)
N1_3 N 0.1156(3) 0.59516(14) 0.1632(3)
N2_2 N 0.1484(3) 0.54816(15) 0.2579(3)
N3_3 N 0.1560(3) 0.50969(15) 0.0862(3)
C1_3 C 0.1212(4) 0.56993(17) 0.0635(4)
C2_3 C 0.1701(4) 0.49900(19) 0.2065(4)
H1_3 H 0.1932 0.4603 0.2500
H5_3 H 0.2086 0.6763 0.0252
N9_3 N 0.1484(3) 0.45184(15) 0.7579(3)
N11_2 N 0.1560(3) 0.49031(15) 0.5862(3)
N13_3 N 0.3916(3) 0.79420(15) 0.5019(3)
N14_3 N 0.3142(3) 0.84407(15) 0.4487(3)
N15_2 N 0.1858(3) 0.65593(15) 0.5513(3)
N16_3 N 0.2231(3) 0.76085(15) 0.3181(3)
N17_2 N 0.7231(3) 0.73915(15) 0.8181(3)
C9_3 C 0.1212(4) 0.43007(17) 0.5635(4)
C10_3 C 0.1701(4) 0.50100(19) 0.7065(4)
H13_3 H 0.1932 0.5397 0.7500
C11_3 C 0.0909(5) 0.3946(2) 0.4382(4)
H14_3 H 0.0204 0.3688 0.4096
H15_3 H 0.0698 0.4245 0.3660
C12_3 C 0.1886(7) 0.3543(4) 0.4557(7)
H16_3 H 0.1627 0.3332 0.3716
H17_3 H 0.2086 0.3237 0.5252
H18_3 H 0.2582 0.3794 0.4818
C13_3 C 0.3347(4) 0.74550(18) 0.4218(4)
C14_3 C 0.2165(4) 0.8225(2) 0.3410(4)
H19_3 H 0.1488 0.8471 0.2854
C15_3 C 0.3904(4) 0.6818(2) 0.4422(5)
H20_3 H 0.3275 0.6502 0.4068
H21_3 H 0.4453 0.6742 0.5388
C16_3 C 0.4569(9) 0.6755(4) 0.3742(11)
H22_3 H 0.4931 0.6346 0.3924
H23_3 H 0.4021 0.6807 0.2780
H24_3 H 0.5187 0.7069 0.4081
C3_3 C 0.0909(5) 0.6054(2) 0.9382(4)
H2_3 H 0.0204 0.6312 0.9096
H3_3 H 0.0698 0.5755 0.8660
C4_3 C 0.1886(7) 0.6457(4) 0.9557(7)
H4_3 H 0.1627 0.6668 0.8716
H6_3 H 0.2582 0.6206 0.9818
H12_3 H 0.0187 0.7931 0.9081
N4_3 N 0.8916(3) 0.70580(15) 0.0019(3)
H9_3 H 0.9453 0.8258 0.0388
Ag4_2 Ag 0.92316(3) 0.698549(15) 0.31764(3)
Ag8_2 Ag 0.85140(3) 0.562780(14) 0.05731(3)
N10_2 N 0.8516(3) 0.54816(15) 0.2421(3)
N5_2 N 0.8142(3) 0.65593(15) 0.9487(3)
C5_3 C 0.8347(4) 0.75450(18) 0.9218(4)
C6_3 C 0.7165(4) 0.6775(2) 0.8410(4)
H7_3 H 0.6488 0.6529 0.7854
C7_3 C 0.8904(4) 0.8182(2) 0.9422(5)
H8_3 H 0.8275 0.8498 0.9068
C8_3 C 0.9569(9) 0.8245(4) 0.8742(11)
H10_3 H 0.9931 0.8654 0.8924
H11_3 H 0.9021 0.8193 0.7780
N12_2 N 0.8440(3) 0.49031(15) 0.9138(3)
N4_4 N 0.1084(3) 0.70580(15) 0.4981(3)
N6_2 N 0.2769(3) 0.73915(15) 0.6819(3)
C5_4 C 0.1653(4) 0.75450(18) 0.5782(4)
C6_4 C 0.2835(4) 0.6775(2) 0.6590(4)
H7_4 H 0.3512 0.6529 0.7146
C7_4 C 0.1096(4) 0.8182(2) 0.5578(5)
H8_4 H 0.1725 0.8498 0.5932
H9_4 H 0.0547 0.8258 0.4612
C8_4 C 0.0431(9) 0.8245(4) 0.6258(11)
H10_4 H 0.0069 0.8654 0.6076
H11_4 H 0.0979 0.8193 0.7220
N1_4 N 0.8844(3) 0.59516(14) 0.3368(3)
N3_4 N 0.8440(3) 0.50969(15) 0.4138(3)
C1_4 C 0.8788(4) 0.56993(17) 0.4365(4)
C2_4 C 0.8299(4) 0.49900(19) 0.2935(4)
H1_4 H 0.8068 0.4603 0.2500
C3_4 C 0.9091(5) 0.6054(2) 0.5618(4)
H2_4 H 0.9796 0.6312 0.5904
H3_4 H 0.9302 0.5755 0.6340
C4_4 C 0.8114(7) 0.6457(4) 0.5443(7)
H4_4 H 0.8373 0.6668 0.6284
H5_4 H 0.7914 0.6763 0.4748
H6_4 H 0.7418 0.6206 0.5182
H12_4 H 0.9813 0.7931 0.5919
N14_4 N 0.6858(3) 0.84407(15) 0.0513(3)
N16_4 N 0.7769(3) 0.76085(15) 0.1819(3)
C11_4 C 0.9091(5) 0.3946(2) 0.0618(4)
H14_4 H 0.9796 0.3688 0.0904
H15_4 H 0.9302 0.4245 0.1340
C12_4 C 0.8114(7) 0.3543(4) 0.0443(7)
H16_4 H 0.8373 0.3332 0.1284
H18_4 H 0.7418 0.3794 0.0182
C13_4 C 0.6653(4) 0.74550(18) 0.0782(4)
C14_4 C 0.7835(4) 0.8225(2) 0.1590(4)
H19_4 H 0.8512 0.8471 0.2146
C15_4 C 0.6096(4) 0.6818(2) 0.0578(5)
H20_4 H 0.6725 0.6502 0.0932
C16_4 C 0.5431(9) 0.6755(4) 0.1258(11)
H22_4 H 0.5069 0.6346 0.1076
H23_4 H 0.5979 0.6807 0.2220
H24_4 H 0.4813 0.7069 0.0919
N9_4 N 0.8516(3) 0.45184(15) 0.7421(3)
N13_4 N 0.6084(3) 0.79420(15) 0.9981(3)
C9_4 C 0.8788(4) 0.43007(17) 0.9365(4)
C10_4 C 0.8299(4) 0.50100(19) 0.7935(4)
H13_4 H 0.8068 0.5397 0.7500
H17_4 H 0.7914 0.3237 0.9748
H21_4 H 0.5547 0.6742 0.9612
loop_
_geom_bond_atom_site_label_1
_geom_bond_atom_site_label_2
_geom_bond_site_symmetry_1
_geom_bond_site_symmetry_2
N8 Ag3 1_555 1_555
N17 Ag3 1_555 1_555
Ag1 N1 1_555 1_555
Ag2 N2 1_555 1_555
N1 N2 1_555 1_555
N3 C1 1_555 1_555
N4 Ag1 1_555 1_555
C1 N1 1_555 1_555
Ag4 Ag1 1_555 1_555
Ag10 N14 1_555 1_555
N10 Ag8 1_555 1_555
N14 N13 1_555 1_555
N15 Ag2 1_555 1_555
N16 Ag1 1_555 1_555
H13 C10 1_555 1_555
C13 N13 1_555 1_555
C14 N14 1_555 1_555
H19 C14 1_555 1_555
C15 C13 1_555 1_555
H20 C15 1_555 1_555
H21 C15 1_555 1_555
C16 C15 1_555 1_555
H22 C16 1_555 1_555
H23 C16 1_555 1_555
N16 C13 1_555 1_555
N16 C14 1_555 1_555
N17 C5 1_555 1_555
H2 C3 1_555 1_555
H3 C3 1_555 1_555
C4 C3 1_555 1_555
H4 C4 1_555 1_555
H6 C4 1_555 1_555
C6 N5 1_555 1_555
H7 C6 1_555 1_555
C7 C5 1_555 1_555
H8 C7 1_555 1_555
C8 C7 1_555 1_555
H10 C8 1_555 1_555
H11 C8 1_555 1_555
H12 C8 1_555 1_555
N17 C6 1_555 1_555
H1 C2 1_555 1_555
Ag7 N7 1_555 1_555
Ag11 N9 1_555 1_555
N7 N9 1_555 1_555
C9 N7 1_555 1_555
C11 C9 1_555 1_555
H14 C11 1_555 1_555
H15 C11 1_555 1_555
C12 C11 1_555 1_555
H16 C12 1_555 1_555
H17 C12 1_555 1_555
H18 C12 1_555 1_555
N11 C9 1_555 1_555
Ag4 N1_2 1_555 1_555
N1_2 N10 1_555 1_555
N3_2 C1_2 1_555 1_555
N4_2 Ag4 1_555 1_555
N15 N4_2 1_555 1_555
N6 C5_2 1_555 1_555
C1_2 N1_2 1_555 1_555
C3_2 C1_2 1_555 1_555
H2_2 C3_2 1_555 1_555
H3_2 C3_2 1_555 1_555
C4_2 C3_2 1_555 1_555
H4_2 C4_2 1_555 1_555
H5_2 C4_2 1_555 1_555
H6_2 C4_2 1_555 1_555
C5_2 N4_2 1_555 1_555
C6_2 N15 1_555 1_555
H7_2 C6_2 1_555 1_555
C7_2 C5_2 1_555 1_555
H8_2 C7_2 1_555 1_555
H9_2 C7_2 1_555 1_555
C8_2 C7_2 1_555 1_555
H10_2 C8_2 1_555 1_555
H11_2 C8_2 1_555 1_555
H12_2 C8_2 1_555 1_555
Ag6 N6 1_555 1_555
N16_2 Ag4 1_555 1_555
C14_2 N14_2 1_555 1_555
H19_2 C14_2 1_555 1_555
C15_2 C13_2 1_555 1_555
H20_2 C15_2 1_555 1_555
C16_2 C15_2 1_555 1_555
H22_2 C16_2 1_555 1_555
H23_2 C16_2 1_555 1_555
N6 C6_2 1_555 1_555
N16_2 C13_2 1_555 1_555
N16_2 C14_2 1_555 1_555
H13_2 C10_2 1_555 1_555
H1_2 C2_2 1_555 1_555
H14_2 C11_2 1_555 1_555
H15_2 C11_2 1_555 1_555
C12_2 C11_2 1_555 1_555
H16_2 C12_2 1_555 1_555
H18_2 C12_2 1_555 1_555
Ag7_2 N7_2 1_555 1_555
Ag9 N9_2 1_555 1_555
N7_2 N9_2 1_555 1_555
C9_2 N7_2 1_555 1_555
N12 C9_2 1_555 1_555
N8_2 Ag6 1_555 1_555
Ag1_2 N1_3 1_555 1_555
Ag2_2 N2_2 1_555 1_555
N1_3 N2_2 1_555 1_555
N2_2 C2_3 1_555 1_555
N3_3 C1_3 1_555 1_555
C1_3 N1_3 1_555 1_555
C2_3 N3_3 1_555 1_555
H1_3 C2_3 1_555 1_555
Ag7 Ag7_2 1_555 1_555
Ag9 N14_3 1_555 1_555
Ag10_2 N9_3 1_555 1_555
N8 N9_3 1_555 1_555
N9_3 C10_3 1_555 1_555
N11_2 Ag2_2 1_555 1_555
N13_3 Ag7 1_555 1_555
N14_3 N13_3 1_555 1_555
N15_2 Ag2_2 1_555 1_555
N16_3 Ag1_2 1_555 1_555
N17_2 Ag7 1_555 1_555
C9_3 N8 1_555 1_555
C10_3 N11_2 1_555 1_555
H13_3 C10_3 1_555 1_555
C11_3 C9_3 1_555 1_555
H14_3 C11_3 1_555 1_555
H15_3 C11_3 1_555 1_555
C12_3 C11_3 1_555 1_555
H16_3 C12_3 1_555 1_555
H17_3 C12_3 1_555 1_555
H18_3 C12_3 1_555 1_555
C13_3 N13_3 1_555 1_555
C14_3 N14_3 1_555 1_555
H19_3 C14_3 1_555 1_555
C15_3 C13_3 1_555 1_555
H20_3 C15_3 1_555 1_555
H21_3 C15_3 1_555 1_555
C16_3 C15_3 1_555 1_555
H22_3 C16_3 1_555 1_555
H23_3 C16_3 1_555 1_555
H24_3 C16_3 1_555 1_555
N11_2 C9_3 1_555 1_555
N16_3 C13_3 1_555 1_555
N16_3 C14_3 1_555 1_555
H2_3 C3_3 1_555 1_555
H3_3 C3_3 1_555 1_555
C4_3 C3_3 1_555 1_555
H4_3 C4_3 1_555 1_555
H6_3 C4_3 1_555 1_555
N10_2 Ag8_2 1_555 1_555
N17_2 C5_3 1_555 1_555
C6_3 N5_2 1_555 1_555
H7_3 C6_3 1_555 1_555
C7_3 C5_3 1_555 1_555
H8_3 C7_3 1_555 1_555
C8_3 C7_3 1_555 1_555
H10_3 C8_3 1_555 1_555
H11_3 C8_3 1_555 1_555
N17_2 C6_3 1_555 1_555
N15_2 N4_4 1_555 1_555
N6_2 C5_4 1_555 1_555
C5_4 N4_4 1_555 1_555
C6_4 N15_2 1_555 1_555
H7_4 C6_4 1_555 1_555
C7_4 C5_4 1_555 1_555
H8_4 C7_4 1_555 1_555
H9_4 C7_4 1_555 1_555
C8_4 C7_4 1_555 1_555
H10_4 C8_4 1_555 1_555
H11_4 C8_4 1_555 1_555
Ag7_2 N6_2 1_555 1_555
N6_2 C6_4 1_555 1_555
Ag4_2 N1_4 1_555 1_555
N1_4 N10_2 1_555 1_555
N10_2 C2_4 1_555 1_555
N3_4 C1_4 1_555 1_555
C1_4 N1_4 1_555 1_555
C2_4 N3_4 1_555 1_555
H1_4 C2_4 1_555 1_555
C3_4 C1_4 1_555 1_555
H2_4 C3_4 1_555 1_555
H3_4 C3_4 1_555 1_555
C4_4 C3_4 1_555 1_555
H4_4 C4_4 1_555 1_555
H5_4 C4_4 1_555 1_555
H6_4 C4_4 1_555 1_555
Ag10 N3_4 1_555 1_555
N16_4 Ag4_2 1_555 1_555
H14_4 C11_4 1_555 1_555
H15_4 C11_4 1_555 1_555
C12_4 C11_4 1_555 1_555
H16_4 C12_4 1_555 1_555
H18_4 C12_4 1_555 1_555
C14_4 N14_4 1_555 1_555
H19_4 C14_4 1_555 1_555
C15_4 C13_4 1_555 1_555
H20_4 C15_4 1_555 1_555
C16_4 C15_4 1_555 1_555
H22_4 C16_4 1_555 1_555
H23_4 C16_4 1_555 1_555
H24_4 C16_4 1_555 1_555
N16_4 C13_4 1_555 1_555
N16_4 C14_4 1_555 1_555
Ag10 N9_4 1_555 1_555
N8_2 N9_4 1_555 1_555
N9_4 C10_4 1_555 1_555
N13_4 Ag7_2 1_555 1_555
C9_4 N8_2 1_555 1_555
C10_4 N12_2 1_555 1_555
H13_4 C10_4 1_555 1_555
N12_2 C9_4 1_555 1_555

#END
