
###############################################################################
#
# This file contains modified crystal structure data generated from the
# MOF subset of the Cambridge Structural Database (CSD) v543 
# hosted by the Cambridge Crystallographic Data Centre (CCDC).
#
# This work is licensed under the Creative Commons
# Attribution-NonCommercial-ShareAlike 4.0 International License.
# To view a copy of this license, visit
# http://creativecommons.org/licenses/by-nc-sa/4.0/
# or send a letter to
# Creative Commons, PO Box 1866, Mountain View, CA 94042, USA.
#
# CIF created using the CSD Python API on 29 September 2022
# The structure has been converted into the P1 space group
# The structure has a 3D framework
# The original CSD entry OSIXIY is in the monoclinic crystal system
# The framework has been calculated to contain at least 10.0% void space
# The void calculation uses a probe of radius 1.32A, grid spacing 0.4
#
###############################################################################

data_OSIXIY
_chemical_formula_moiety         '(C64 H96 Ag16 N48)n'
_symmetry_cell_setting           triclinic
_symmetry_space_group_name_H-M   'P 1'
_symmetry_Int_Tables_number      1
_space_group_name_Hall           'P 1'
loop_
_symmetry_equiv_pos_site_id
_symmetry_equiv_pos_as_xyz
1 x,y,z
_cell_length_a                   11.9318(6)
_cell_length_b                   21.3866(10)
_cell_length_c                   11.6563(6)
_cell_angle_alpha                90
_cell_angle_beta                 113.8440(10)
_cell_angle_gamma                90
_cell_volume                     2720.59
loop_
_atom_site_label
_atom_site_type_symbol
_atom_site_fract_x
_atom_site_fract_y
_atom_site_fract_z
H17 H 0.0024 0.1320 0.0208
N6 N 0.0320(3) 0.00975(14) 0.3414(3)
C6 C 0.0364(4) 0.07170(19) 0.3605(4)
H7 H 0.1029 0.0963 0.3667
Ag8 Ag 0.18155(3) 0.947710(14) 0.35897(3)
Ag1 Ag 0.58794(3) 0.186180(14) 0.53427(3)
Ag2 Ag 0.67645(3) 0.052900(14) 0.34915(3)
Ag3 Ag 0.90106(3) 0.186320(14) 0.44496(3)
Ag4 Ag 0.81845(3) 0.052290(14) 0.64103(3)
N1 N 0.6334(3) 0.15569(14) 0.2915(3)
N2 N 0.5945(3) 0.20072(14) 0.3514(3)
N3 N 0.5852(3) 0.24064(14) 0.1712(3)
N4 N 0.8621(3) 0.04372(15) 0.3540(3)
N5 N 0.9383(3) 0.09443(15) 0.3696(3)
N7 N 0.8596(3) 0.15627(14) 0.6896(3)
N8 N 0.9012(3) 0.20108(14) 0.6306(3)
N9 N 0.9103(3) 0.24091(14) 0.8109(3)
N10 N 0.6341(3) 0.04498(14) 0.6394(3)
N11 N 0.5520(3) 0.09385(14) 0.6084(3)
N12 N 0.4659(3) 0.01133(14) 0.6557(3)
C1 C 0.6257(4) 0.18145(17) 0.1853(3)
C2 C 0.5675(4) 0.24966(18) 0.2768(3)
H1 H 0.5387 0.2871 0.2954
C3 C 0.6596(4) 0.1478(2) 0.0912(4)
H2 H 0.7327 0.1232 0.1354
H3 H 0.6791 0.1784 0.0407
C4 C 0.5617(7) 0.1059(3) 0.0068(6)
H5 H 0.5449 0.0740 0.0555
C9 C 0.8670(4) 0.18186(17) 0.7961(3)
C10 C 0.9297(4) 0.24962(17) 0.7057(3)
H13 H 0.9603 0.2867 0.6880
C11 C 0.8317(4) 0.14877(19) 0.8891(4)
H14 H 0.7594 0.1236 0.8444
H15 H 0.8102 0.1796 0.9379
C12 C 0.9302(6) 0.1076(3) 0.9766(5)
H18 H 0.9487 0.0754 0.9295
C14 C 0.4545(4) 0.07168(18) 0.6191(4)
H19 H 0.3842 0.0952 0.6031
Ag5 Ag 0.58794(3) 0.313820(14) 0.03427(3)
Ag7 Ag 0.90106(3) 0.313680(14) 0.94496(3)
N13 N 0.5852(3) 0.25936(14) 0.6712(3)
N15 N 0.9103(3) 0.25909(14) 0.3109(3)
C5 C 0.9212(4) 0.99482(17) 0.3378(3)
C7 C 0.8677(4) 0.93033(19) 0.3149(4)
H8 H 0.8092 0.9267 0.3529
H9 H 0.9326 0.9002 0.3552
C8 C 0.8056(7) 0.9151(3) 0.1793(6)
H10 H 0.7739 0.8733 0.1695
H11 H 0.7395 0.9439 0.1394
H12 H 0.8633 0.9183 0.1412
C13 C 0.5791(4) 0.99682(17) 0.6661(3)
C15 C 0.6401(4) 0.9351(2) 0.7101(5)
H20 H 0.5783 0.9026 0.6826
H21 H 0.6965 0.9275 0.6707
C16 C 0.7068(8) 0.9305(3) 0.8451(6)
H22 H 0.7448 0.8901 0.8661
H23 H 0.6511 0.9360 0.8850
H24 H 0.7687 0.9624 0.8734
Ag6 Ag 0.32355(3) 0.947100(14) 0.65085(3)
N14 N 0.9680(3) 0.99025(14) 0.6586(3)
N16 N 0.5341(3) 0.98867(14) 0.3443(3)
Ag2_2 Ag 0.32355(3) 0.552900(14) 0.15085(3)
Ag3_2 Ag 0.09894(3) 0.686320(14) 0.05504(3)
N1_2 N 0.3666(3) 0.65569(14) 0.2085(3)
N2_2 N 0.4055(3) 0.70072(14) 0.1486(3)
N3_2 N 0.4148(3) 0.74064(14) 0.3288(3)
N4_2 N 0.1379(3) 0.54372(15) 0.1460(3)
N5_2 N 0.0617(3) 0.59443(15) 0.1304(3)
C1_2 C 0.3743(4) 0.68145(17) 0.3147(3)
C2_2 C 0.4325(4) 0.74966(18) 0.2232(3)
H1_2 H 0.4613 0.7871 0.2046
C3_2 C 0.3404(4) 0.6478(2) 0.4088(4)
H2_2 H 0.2673 0.6232 0.3646
H3_2 H 0.3209 0.6784 0.4593
C4_2 C 0.4383(7) 0.6059(3) 0.4932(6)
H4 H 0.4118 0.5869 0.5526
H5_2 H 0.4551 0.5740 0.4445
H6 H 0.5113 0.6298 0.5372
C5_2 C 0.0788(4) 0.49482(17) 0.1622(3)
C7_2 C 0.1323(4) 0.43033(19) 0.1851(4)
H8_2 H 0.1908 0.4267 0.1471
H9_2 H 0.0674 0.4002 0.1448
C8_2 C 0.1944(7) 0.4151(3) 0.3207(6)
H10_2 H 0.2261 0.3733 0.3305
H11_2 H 0.2605 0.4439 0.3606
H12_2 H 0.1367 0.4183 0.3588
Ag5_2 Ag 0.41206(3) 0.813820(14) 0.46573(3)
N15_2 N 0.0897(3) 0.75909(14) 0.1891(3)
N16_2 N 0.4659(3) 0.48867(14) 0.1557(3)
Ag1_2 Ag 0.41206(3) 0.686180(14) 0.96573(3)
Ag4_2 Ag 0.18155(3) 0.552290(14) 0.85897(3)
N7_2 N 0.1404(3) 0.65627(14) 0.8104(3)
N8_2 N 0.0988(3) 0.70108(14) 0.8694(3)
N9_2 N 0.0897(3) 0.74091(14) 0.6891(3)
N10_2 N 0.3659(3) 0.54498(14) 0.8606(3)
N11_2 N 0.4480(3) 0.59385(14) 0.8916(3)
N12_2 N 0.5341(3) 0.51133(14) 0.8443(3)
C9_2 C 0.1330(4) 0.68186(17) 0.7039(3)
C10_2 C 0.0703(4) 0.74962(17) 0.7943(3)
H13_2 H 0.0397 0.7867 0.8120
C11_2 C 0.1683(4) 0.64877(19) 0.6109(4)
H14_2 H 0.2406 0.6236 0.6556
H15_2 H 0.1898 0.6796 0.5621
C12_2 C 0.0698(6) 0.6076(3) 0.5234(5)
H16 H 0.0972 0.5888 0.4645
H18_2 H 0.0513 0.5754 0.5705
C13_2 C 0.4209(4) 0.49682(17) 0.8339(3)
C14_2 C 0.5455(4) 0.57168(18) 0.8809(4)
H19_2 H 0.6158 0.5952 0.8969
C15_2 C 0.3599(4) 0.4351(2) 0.7899(5)
H20_2 H 0.4217 0.4026 0.8174
H21_2 H 0.3035 0.4275 0.8293
C16_2 C 0.2932(8) 0.4305(3) 0.6549(6)
H22_2 H 0.2552 0.3901 0.6339
H23_2 H 0.3489 0.4360 0.6150
H24_2 H 0.2313 0.4624 0.6266
Ag6_2 Ag 0.67645(3) 0.447100(14) 0.84915(3)
Ag7_2 Ag 0.09894(3) 0.813680(14) 0.55504(3)
N13_2 N 0.4148(3) 0.75936(14) 0.8288(3)
N14_2 N 0.0320(3) 0.49025(14) 0.8414(3)
N6_2 N 0.9680(3) 0.50975(14) 0.1586(3)
C6_2 C 0.9636(4) 0.57170(19) 0.1395(4)
H7_2 H 0.8971 0.5963 0.1333
Ag8_2 Ag 0.81845(3) 0.447710(14) 0.14103(3)
C5_3 C 0.0788(4) 0.00518(17) 0.6622(3)
C7_3 C 0.1323(4) 0.06967(19) 0.6851(4)
H8_3 H 0.1908 0.0733 0.6471
H9_3 H 0.0674 0.0998 0.6448
C8_3 C 0.1944(7) 0.0849(3) 0.8207(6)
H10_3 H 0.2261 0.1267 0.8305
H11_3 H 0.2605 0.0561 0.8606
H12_3 H 0.1367 0.0817 0.8588
C13_3 C 0.4209(4) 0.00318(17) 0.3339(3)
C15_3 C 0.3599(4) 0.0649(2) 0.2899(5)
H20_3 H 0.4217 0.0974 0.3174
H21_3 H 0.3035 0.0725 0.3293
C16_3 C 0.2932(8) 0.0695(3) 0.1549(6)
H22_3 H 0.2552 0.1099 0.1339
H23_3 H 0.3489 0.0640 0.1150
H24_3 H 0.2313 0.0376 0.1266
N1_3 N 0.3666(3) 0.84431(14) 0.7085(3)
N2_3 N 0.4055(3) 0.79928(14) 0.6486(3)
N4_3 N 0.1379(3) 0.95628(15) 0.6460(3)
N5_3 N 0.0617(3) 0.90557(15) 0.6304(3)
N7_3 N 0.1404(3) 0.84373(14) 0.3104(3)
N8_3 N 0.0988(3) 0.79892(14) 0.3694(3)
N10_3 N 0.3659(3) 0.95502(14) 0.3606(3)
N11_3 N 0.4480(3) 0.90615(14) 0.3916(3)
C1_3 C 0.3743(4) 0.81855(17) 0.8147(3)
C2_3 C 0.4325(4) 0.75034(18) 0.7232(3)
H1_3 H 0.4613 0.7129 0.7046
C3_3 C 0.3404(4) 0.8522(2) 0.9088(4)
H2_3 H 0.2673 0.8768 0.8646
H3_3 H 0.3209 0.8216 0.9593
C4_3 C 0.4383(7) 0.8941(3) 0.9932(6)
H5_3 H 0.4551 0.9260 0.9445
C9_3 C 0.1330(4) 0.81814(17) 0.2039(3)
C10_3 C 0.0703(4) 0.75038(17) 0.2943(3)
H13_3 H 0.0397 0.7133 0.3120
C11_3 C 0.1683(4) 0.85123(19) 0.1109(4)
H14_3 H 0.2406 0.8764 0.1556
H15_3 H 0.1898 0.8204 0.0621
C12_3 C 0.0698(6) 0.8924(3) 0.0234(5)
H18_3 H 0.0513 0.9246 0.0705
C14_3 C 0.5455(4) 0.92832(18) 0.3809(4)
H19_3 H 0.6158 0.9048 0.3969
C6_3 C 0.9636(4) 0.92830(19) 0.6395(4)
H7_3 H 0.8971 0.9037 0.6333
C6_4 C 0.0364(4) 0.42830(19) 0.8605(4)
H7_4 H 0.1029 0.4037 0.8667
N7_4 N 0.8596(3) 0.34373(14) 0.1896(3)
N8_4 N 0.9012(3) 0.29892(14) 0.1306(3)
N10_4 N 0.6341(3) 0.45502(14) 0.1394(3)
N11_4 N 0.5520(3) 0.40615(14) 0.1084(3)
C9_4 C 0.8670(4) 0.31814(17) 0.2961(3)
C10_4 C 0.9297(4) 0.25038(17) 0.2057(3)
H13_4 H 0.9603 0.2133 0.1880
C11_4 C 0.8317(4) 0.35123(19) 0.3891(4)
H14_4 H 0.7594 0.3764 0.3444
H15_4 H 0.8102 0.3204 0.4379
C12_4 C 0.9302(6) 0.3924(3) 0.4766(5)
H16_2 H 0.9028 0.4112 0.5355
H18_4 H 0.9487 0.4246 0.4295
C13_4 C 0.5791(4) 0.50318(17) 0.1661(3)
C14_4 C 0.4545(4) 0.42832(18) 0.1191(4)
H19_4 H 0.3842 0.4048 0.1031
C15_4 C 0.6401(4) 0.5649(2) 0.2101(5)
H20_4 H 0.5783 0.5974 0.1826
H21_4 H 0.6965 0.5725 0.1707
C16_4 C 0.7068(8) 0.5695(3) 0.3451(6)
H22_4 H 0.7448 0.6099 0.3661
H23_4 H 0.6511 0.5640 0.3850
H24_4 H 0.7687 0.5376 0.3734
N1_4 N 0.6334(3) 0.34431(14) 0.7915(3)
N2_4 N 0.5945(3) 0.29928(14) 0.8514(3)
N4_4 N 0.8621(3) 0.45628(15) 0.8540(3)
N5_4 N 0.9383(3) 0.40557(15) 0.8696(3)
C1_4 C 0.6257(4) 0.31855(17) 0.6853(3)
C2_4 C 0.5675(4) 0.25034(18) 0.7768(3)
H1_4 H 0.5387 0.2129 0.7954
C3_4 C 0.6596(4) 0.3522(2) 0.5912(4)
H2_4 H 0.7327 0.3768 0.6354
H3_4 H 0.6791 0.3216 0.5407
C4_4 C 0.5617(7) 0.3941(3) 0.5068(6)
H4_2 H 0.5882 0.4131 0.4474
H5_4 H 0.5449 0.4260 0.5555
H6_2 H 0.4887 0.3702 0.4628
C5_4 C 0.9212(4) 0.50518(17) 0.8378(3)
C7_4 C 0.8677(4) 0.56967(19) 0.8149(4)
H8_4 H 0.8092 0.5733 0.8529
H9_4 H 0.9326 0.5998 0.8552
C8_4 C 0.8056(7) 0.5849(3) 0.6793(6)
H10_4 H 0.7739 0.6267 0.6695
H11_4 H 0.7395 0.5561 0.6394
H12_4 H 0.8633 0.5817 0.6412
H16_3 H 0.9028 0.0888 0.0355
H4_3 H 0.5882 0.0869 0.9474
H6_3 H 0.4887 0.1298 0.9628
H17_2 H 0.9976 0.6320 0.4792
H4_4 H 0.4118 0.9131 0.0526
H6_4 H 0.5113 0.8702 0.0372
H16_4 H 0.0972 0.9112 0.9645
H17_3 H 0.9976 0.8680 0.9792
H17_4 H 0.0024 0.3680 0.5208
loop_
_geom_bond_atom_site_label_1
_geom_bond_atom_site_label_2
_geom_bond_site_symmetry_1
_geom_bond_site_symmetry_2
H7 C6 1_555 1_555
N6 C6 1_555 1_555
Ag1 N2 1_555 1_555
Ag2 N1 1_555 1_555
Ag3 N5 1_555 1_555
Ag4 N7 1_555 1_555
N1 N2 1_555 1_555
N2 C2 1_555 1_555
N3 C1 1_555 1_555
N4 Ag2 1_555 1_555
N5 N4 1_555 1_555
N7 N8 1_555 1_555
N8 Ag3 1_555 1_555
N9 C9 1_555 1_555
N10 Ag4 1_555 1_555
N11 Ag1 1_555 1_555
C1 N1 1_555 1_555
C2 N3 1_555 1_555
H1 C2 1_555 1_555
C3 C1 1_555 1_555
H2 C3 1_555 1_555
H3 C3 1_555 1_555
C4 C3 1_555 1_555
H5 C4 1_555 1_555
C9 N7 1_555 1_555
C10 N8 1_555 1_555
H13 C10 1_555 1_555
C11 C9 1_555 1_555
H14 C11 1_555 1_555
H15 C11 1_555 1_555
C12 C11 1_555 1_555
H18 C12 1_555 1_555
C14 N11 1_555 1_555
H19 C14 1_555 1_555
Ag5 N3 1_555 1_555
Ag7 N9 1_555 1_555
N13 Ag1 1_555 1_555
N15 Ag3 1_555 1_555
N9 C10 1_555 1_555
N10 N11 1_555 1_555
N12 C14 1_555 1_555
C7 C5 1_555 1_555
H8 C7 1_555 1_555
H9 C7 1_555 1_555
C8 C7 1_555 1_555
H10 C8 1_555 1_555
H11 C8 1_555 1_555
H12 C8 1_555 1_555
C15 C13 1_555 1_555
H20 C15 1_555 1_555
H21 C15 1_555 1_555
C16 C15 1_555 1_555
H22 C16 1_555 1_555
H23 C16 1_555 1_555
H24 C16 1_555 1_555
Ag2_2 N1_2 1_555 1_555
Ag3_2 N5_2 1_555 1_555
N1_2 N2_2 1_555 1_555
N2_2 C2_2 1_555 1_555
N3_2 C1_2 1_555 1_555
N4_2 Ag2_2 1_555 1_555
N5_2 N4_2 1_555 1_555
C1_2 N1_2 1_555 1_555
C2_2 N3_2 1_555 1_555
H1_2 C2_2 1_555 1_555
C3_2 C1_2 1_555 1_555
H2_2 C3_2 1_555 1_555
H3_2 C3_2 1_555 1_555
C4_2 C3_2 1_555 1_555
H4 C4_2 1_555 1_555
H5_2 C4_2 1_555 1_555
H6 C4_2 1_555 1_555
C5_2 N4_2 1_555 1_555
C7_2 C5_2 1_555 1_555
H8_2 C7_2 1_555 1_555
H9_2 C7_2 1_555 1_555
C8_2 C7_2 1_555 1_555
H10_2 C8_2 1_555 1_555
H11_2 C8_2 1_555 1_555
H12_2 C8_2 1_555 1_555
Ag5_2 N3_2 1_555 1_555
N15_2 Ag3_2 1_555 1_555
N16_2 Ag2_2 1_555 1_555
Ag4_2 N7_2 1_555 1_555
N7_2 N8_2 1_555 1_555
N9_2 C9_2 1_555 1_555
N10_2 Ag4_2 1_555 1_555
N11_2 Ag1_2 1_555 1_555
N12_2 C13_2 1_555 1_555
C9_2 N7_2 1_555 1_555
C10_2 N8_2 1_555 1_555
H13_2 C10_2 1_555 1_555
C11_2 C9_2 1_555 1_555
H14_2 C11_2 1_555 1_555
H15_2 C11_2 1_555 1_555
C12_2 C11_2 1_555 1_555
H16 C12_2 1_555 1_555
H18_2 C12_2 1_555 1_555
C13_2 N10_2 1_555 1_555
C14_2 N11_2 1_555 1_555
H19_2 C14_2 1_555 1_555
C15_2 C13_2 1_555 1_555
H20_2 C15_2 1_555 1_555
H21_2 C15_2 1_555 1_555
C16_2 C15_2 1_555 1_555
H22_2 C16_2 1_555 1_555
H23_2 C16_2 1_555 1_555
H24_2 C16_2 1_555 1_555
Ag6_2 N12_2 1_555 1_555
Ag7_2 N9_2 1_555 1_555
N13_2 Ag1_2 1_555 1_555
N14_2 Ag4_2 1_555 1_555
N9_2 C10_2 1_555 1_555
N10_2 N11_2 1_555 1_555
N12_2 C14_2 1_555 1_555
H7_2 C6_2 1_555 1_555
Ag8_2 N6_2 1_555 1_555
N6_2 C6_2 1_555 1_555
C7_3 C5_3 1_555 1_555
H8_3 C7_3 1_555 1_555
H9_3 C7_3 1_555 1_555
C8_3 C7_3 1_555 1_555
H10_3 C8_3 1_555 1_555
H11_3 C8_3 1_555 1_555
H12_3 C8_3 1_555 1_555
C15_3 C13_3 1_555 1_555
H20_3 C15_3 1_555 1_555
H21_3 C15_3 1_555 1_555
C16_3 C15_3 1_555 1_555
H22_3 C16_3 1_555 1_555
H23_3 C16_3 1_555 1_555
H24_3 C16_3 1_555 1_555
Ag5_2 N2_3 1_555 1_555
Ag6 N1_3 1_555 1_555
Ag7_2 N5_3 1_555 1_555
Ag8 N7_3 1_555 1_555
N1_3 N2_3 1_555 1_555
N2_3 C2_3 1_555 1_555
N13_2 C1_3 1_555 1_555
N4_3 Ag6 1_555 1_555
N5_3 N4_3 1_555 1_555
N7_3 N8_3 1_555 1_555
N8_3 Ag7_2 1_555 1_555
N15_2 C9_3 1_555 1_555
N10_3 Ag8 1_555 1_555
N11_3 Ag5_2 1_555 1_555
C1_3 N1_3 1_555 1_555
C2_3 N13_2 1_555 1_555
H1_3 C2_3 1_555 1_555
C3_3 C1_3 1_555 1_555
H2_3 C3_3 1_555 1_555
H3_3 C3_3 1_555 1_555
C4_3 C3_3 1_555 1_555
H5_3 C4_3 1_555 1_555
C9_3 N7_3 1_555 1_555
C10_3 N8_3 1_555 1_555
H13_3 C10_3 1_555 1_555
C11_3 C9_3 1_555 1_555
H14_3 C11_3 1_555 1_555
H15_3 C11_3 1_555 1_555
C12_3 C11_3 1_555 1_555
H18_3 C12_3 1_555 1_555
C14_3 N11_3 1_555 1_555
H19_3 C14_3 1_555 1_555
N15_2 C10_3 1_555 1_555
N10_3 N11_3 1_555 1_555
N16 C14_3 1_555 1_555
H7_3 C6_3 1_555 1_555
N14 C6_3 1_555 1_555
H7_4 C6_4 1_555 1_555
N14_2 C6_4 1_555 1_555
Ag8_2 N7_4 1_555 1_555
N7_4 N8_4 1_555 1_555
N15 C9_4 1_555 1_555
N10_4 Ag8_2 1_555 1_555
N11_4 Ag5 1_555 1_555
N16_2 C13_4 1_555 1_555
C9_4 N7_4 1_555 1_555
C10_4 N8_4 1_555 1_555
H13_4 C10_4 1_555 1_555
C11_4 C9_4 1_555 1_555
H14_4 C11_4 1_555 1_555
H15_4 C11_4 1_555 1_555
C12_4 C11_4 1_555 1_555
H16_2 C12_4 1_555 1_555
H18_4 C12_4 1_555 1_555
C13_4 N10_4 1_555 1_555
C14_4 N11_4 1_555 1_555
H19_4 C14_4 1_555 1_555
C15_4 C13_4 1_555 1_555
H20_4 C15_4 1_555 1_555
H21_4 C15_4 1_555 1_555
C16_4 C15_4 1_555 1_555
H22_4 C16_4 1_555 1_555
H23_4 C16_4 1_555 1_555
H24_4 C16_4 1_555 1_555
N15 C10_4 1_555 1_555
N10_4 N11_4 1_555 1_555
N16_2 C14_4 1_555 1_555
Ag6_2 N1_4 1_555 1_555
Ag7 N5_4 1_555 1_555
N1_4 N2_4 1_555 1_555
N2_4 C2_4 1_555 1_555
N13 C1_4 1_555 1_555
N4_4 Ag6_2 1_555 1_555
N5_4 N4_4 1_555 1_555
C1_4 N1_4 1_555 1_555
C2_4 N13 1_555 1_555
H1_4 C2_4 1_555 1_555
C3_4 C1_4 1_555 1_555
H2_4 C3_4 1_555 1_555
H3_4 C3_4 1_555 1_555
C4_4 C3_4 1_555 1_555
H4_2 C4_4 1_555 1_555
H5_4 C4_4 1_555 1_555
H6_2 C4_4 1_555 1_555
C5_4 N4_4 1_555 1_555
C7_4 C5_4 1_555 1_555
H8_4 C7_4 1_555 1_555
H9_4 C7_4 1_555 1_555
C8_4 C7_4 1_555 1_555
H10_4 C8_4 1_555 1_555
H11_4 C8_4 1_555 1_555
H12_4 C8_4 1_555 1_555

#END
