
###############################################################################
#
# This file contains modified crystal structure data generated from the
# MOF subset of the Cambridge Structural Database (CSD) v543 
# hosted by the Cambridge Crystallographic Data Centre (CCDC).
#
# This work is licensed under the Creative Commons
# Attribution-NonCommercial-ShareAlike 4.0 International License.
# To view a copy of this license, visit
# http://creativecommons.org/licenses/by-nc-sa/4.0/
# or send a letter to
# Creative Commons, PO Box 1866, Mountain View, CA 94042, USA.
#
# CIF created using the CSD Python API on 29 September 2022
# The structure has been converted into the P1 space group
# The structure has a 3D framework
# The original CSD entry OSOBIK is in the tetragonal crystal system
# The framework has been calculated to contain at least 10.0% void space
# The void calculation uses a probe of radius 1.32A, grid spacing 0.4
# H atom positions have been added when not included in the experimental data
# Generated hydrogen atom positions removed from atoms on special positions
#
###############################################################################

data_OSOBIK
_chemical_formula_moiety         '(C376 H264 Cu21 F16 N20 O100)n'
_symmetry_cell_setting           triclinic
_symmetry_space_group_name_H-M   'P 1'
_symmetry_Int_Tables_number      1
_space_group_name_Hall           'P 1'
loop_
_symmetry_equiv_pos_site_id
_symmetry_equiv_pos_as_xyz
1 x,y,z
_cell_length_a                   19.1920(4)
_cell_length_b                   19.1920(4)
_cell_length_c                   61.554(2)
_cell_angle_alpha                90
_cell_angle_beta                 90
_cell_angle_gamma                90
_cell_volume                     22672.4
loop_
_atom_site_label
_atom_site_type_symbol
_atom_site_fract_x
_atom_site_fract_y
_atom_site_fract_z
Cu1 Cu 0.5000 0.43296(3) 0.50212(2)
Cu2 Cu -0.0000 0.2500 0.39658(2)
O1 O 0.42864(15) 0.43743(12) 0.47945(4)
F1 F 0.29849(12) 0.54849(12) 0.3750
O2 O 0.42921(14) 0.55352(12) 0.47539(4)
O3 O 0.07196(14) 0.32164(14) 0.39322(4)
N1 N 0.5000 0.3212(2) 0.50371(6)
C1 C 0.1481(2) 0.3981(2) 0.3750
C2 C 0.2491(2) 0.4991(2) 0.3750
C3 C 0.4096(2) 0.49252(18) 0.47024(6)
C4 C 0.3631(2) 0.48610(19) 0.45105(6)
C5 C 0.3063(2) 0.4127(2) 0.42460(7)
H1 H 0.2955 0.3675 0.4194
C6 C 0.2816(2) 0.4710(2) 0.41367(7)
C7 C 0.2384(3) 0.4606(2) 0.39420(7)
C8 C 0.09242(18) 0.34242(18) 0.3750
C9 C 0.1866(2) 0.4098(2) 0.39361(7)
H2 H 0.1777 0.3827 0.4062
C10 C 0.3375(2) 0.5440(2) 0.44042(6)
H3 H 0.3478 0.5891 0.4459
C11 C 0.3466(2) 0.4201(2) 0.44305(7)
H4 H 0.3633 0.3798 0.4504
C12 C 0.2970(2) 0.5375(2) 0.42189(7)
H5 H 0.2797 0.5779 0.4148
O4 O -0.0000 0.2500 0.43129(8)
C13 C 0.5000 0.2849(3) 0.52169(11)
H6 H 0.5000 0.3088 0.5352
C14 C 0.5000 0.2853(3) 0.48488(10)
H7 H 0.5000 0.3098 0.4715
O5 O 0.18743(12) 0.67864(15) 0.27055(4)
O6 O 0.07164(14) 0.32196(14) 0.35678(4)
C15 C 0.24252(18) 0.6596(2) 0.27976(6)
C16 C 0.23610(19) 0.6131(2) 0.29895(6)
C17 C 0.1627(2) 0.5563(2) 0.32540(7)
H8 H 0.1175 0.5455 0.3306
C18 C 0.2210(2) 0.5316(2) 0.33633(7)
C19 C 0.2106(2) 0.4884(3) 0.35580(7)
C20 C 0.1598(2) 0.4366(2) 0.35639(7)
H9 H 0.1327 0.4277 0.3438
C21 C 0.2940(2) 0.5875(2) 0.30958(6)
H10 H 0.3391 0.5978 0.3041
C22 C 0.1701(2) 0.5966(2) 0.30695(7)
H11 H 0.1298 0.6133 0.2996
C23 C 0.2875(2) 0.5470(2) 0.32811(7)
H12 H 0.3279 0.5297 0.3352
O7 O 0.30352(12) 0.67921(14) 0.27461(4)
N2 N 0.5000 0.1788(2) 0.50371(6)
C24 C 0.5000 0.2151(3) 0.52169(11)
H13 H 0.5000 0.1912 0.5352
C25 C 0.5000 0.2147(3) 0.48488(10)
H14 H 0.5000 0.1902 0.4715
Cu3 Cu 0.5000 0.56704(3) 0.49788(2)
Cu8 Cu 0.31704(3) 0.7500 0.25212(2)
Cu9 Cu 0.5000 0.06704(3) 0.50212(2)
Cu10 Cu 0.18296(3) 0.7500 0.24788(2)
Cu11 Cu -0.0000 0.2500 0.35342(2)
O14 O 0.42864(15) 0.56257(12) 0.52055(4)
O15 O 0.57136(15) 0.56257(12) 0.52055(4)
O16 O 0.57136(15) 0.43743(12) 0.47945(4)
O17 O 0.42921(14) 0.44648(12) 0.52461(4)
O18 O 0.57079(14) 0.44648(12) 0.52461(4)
O19 O 0.57079(14) 0.55352(12) 0.47539(4)
O21 O 0.07196(14) 0.17836(14) 0.39322(4)
N3 N 0.5000 0.6788(2) 0.49629(6)
Cu2_2 Cu 1.0000 0.2500 0.39658(2)
O4_2 O 1.0000 0.2500 0.43129(8)
F2 F 0.70151(12) 0.54849(12) 0.3750
O10 O 0.92804(14) 0.32164(14) 0.39322(4)
C26 C 0.8519(2) 0.3981(2) 0.3750
C27 C 0.7509(2) 0.4991(2) 0.3750
C28 C 0.5904(2) 0.49252(18) 0.47024(6)
C29 C 0.6369(2) 0.48610(19) 0.45105(6)
C30 C 0.6937(2) 0.4127(2) 0.42460(7)
H15 H 0.7045 0.3675 0.4194
C31 C 0.7184(2) 0.4710(2) 0.41367(7)
C32 C 0.7616(3) 0.4606(2) 0.39420(7)
C33 C 0.90758(18) 0.34242(18) 0.3750
C34 C 0.8134(2) 0.4098(2) 0.39361(7)
H16 H 0.8223 0.3827 0.4062
C35 C 0.6625(2) 0.5440(2) 0.44042(6)
H17 H 0.6522 0.5891 0.4459
C36 C 0.6534(2) 0.4201(2) 0.44305(7)
H18 H 0.6367 0.3798 0.4504
C37 C 0.7030(2) 0.5375(2) 0.42189(7)
H19 H 0.7203 0.5779 0.4148
O11 O 0.81257(12) 0.67864(15) 0.27055(4)
O12 O 0.92836(14) 0.32196(14) 0.35678(4)
C38 C 0.75748(18) 0.6596(2) 0.27976(6)
C39 C 0.76390(19) 0.6131(2) 0.29895(6)
C40 C 0.8373(2) 0.5563(2) 0.32540(7)
H20 H 0.8825 0.5455 0.3306
C41 C 0.7790(2) 0.5316(2) 0.33633(7)
C42 C 0.7894(2) 0.4884(3) 0.35580(7)
C43 C 0.8402(2) 0.4366(2) 0.35639(7)
H21 H 0.8673 0.4277 0.3438
C44 C 0.7060(2) 0.5875(2) 0.30958(6)
H22 H 0.6609 0.5978 0.3041
C45 C 0.8299(2) 0.5966(2) 0.30695(7)
H23 H 0.8702 0.6133 0.2996
C46 C 0.7125(2) 0.5470(2) 0.32811(7)
H24 H 0.6721 0.5297 0.3352
O13 O 0.69648(12) 0.67921(14) 0.27461(4)
Cu6 Cu 0.81704(3) 0.7500 0.24788(2)
Cu7 Cu 0.68296(3) 0.7500 0.25212(2)
Cu11_2 Cu 1.0000 0.2500 0.35342(2)
O20 O 0.92804(14) 0.17836(14) 0.39322(4)
N2_2 N 0.0712(2) 0.2500 0.75371(6)
C24_2 C 0.0349(3) 0.2500 0.77169(11)
H13_2 H 0.0588 0.2500 0.7852
C25_2 C 0.0353(3) 0.2500 0.73488(10)
H14_2 H 0.0598 0.2500 0.7215
Cu9_2 Cu 0.18296(3) 0.2500 0.75212(2)
Cu2_3 Cu 0.0000 0.7500 0.64658(2)
O4_3 O 0.0000 0.7500 0.68129(8)
Cu11_3 Cu 0.0000 0.7500 0.60342(2)
O20_2 O 0.07164(14) 0.67804(14) 0.64322(4)
O21_2 O 0.07164(14) 0.82196(14) 0.64322(4)
Cu1_2 Cu 0.81704(3) 0.2500 0.75212(2)
O1_2 O 0.81257(12) 0.17864(15) 0.72945(4)
F1_2 F 0.70151(12) 0.04849(12) 0.6250
O2_2 O 0.69648(12) 0.17921(14) 0.72539(4)
N1_2 N 0.9288(2) 0.2500 0.75371(6)
C3_2 C 0.75748(18) 0.1596(2) 0.72024(6)
C4_2 C 0.76390(19) 0.1131(2) 0.70105(6)
C5_2 C 0.8373(2) 0.0563(2) 0.67460(7)
H1_2 H 0.8825 0.0455 0.6694
C6_2 C 0.7790(2) 0.0316(2) 0.66367(7)
C10_2 C 0.7060(2) 0.0875(2) 0.69042(6)
H3_2 H 0.6609 0.0978 0.6959
C11_2 C 0.8299(2) 0.0966(2) 0.69305(7)
H4_2 H 0.8702 0.1133 0.7004
C12_2 C 0.7125(2) 0.0470(2) 0.67189(7)
H5_2 H 0.6721 0.0297 0.6648
C13_2 C 0.9651(3) 0.2500 0.77169(11)
H6_2 H 0.9412 0.2500 0.7852
C14_2 C 0.9647(3) 0.2500 0.73488(10)
H7_2 H 0.9402 0.2500 0.7215
C21_2 C 0.6625(2) 0.0440(2) 0.55958(6)
H10_2 H 0.6522 0.0891 0.5541
C23_2 C 0.7030(2) 0.0375(2) 0.57811(7)
H12_2 H 0.7203 0.0779 0.5852
O7_2 O 0.57079(14) 0.05352(12) 0.52461(4)
Cu3_2 Cu 0.68296(3) 0.2500 0.74788(2)
O14_2 O 0.68743(12) 0.17864(15) 0.77055(4)
O15_2 O 0.68743(12) 0.32136(15) 0.77055(4)
O16_2 O 0.81257(12) 0.32136(15) 0.72945(4)
O17_2 O 0.80352(12) 0.17921(14) 0.77461(4)
O18_2 O 0.80352(12) 0.32079(14) 0.77461(4)
O19_2 O 0.69648(12) 0.32079(14) 0.72539(4)
N3_2 N 0.5712(2) 0.2500 0.74629(6)
Cu2_4 Cu 1.0000 0.7500 0.64658(2)
O3_2 O 0.92836(14) 0.82196(14) 0.64322(4)
C1_2 C 0.8519(2) 0.8981(2) 0.6250
C2_2 C 0.7509(2) 0.9991(2) 0.6250
C7_2 C 0.7894(2) 0.9884(3) 0.64420(7)
C8_2 C 0.90758(18) 0.84242(18) 0.6250
C9_2 C 0.8402(2) 0.9366(2) 0.64361(7)
H2_2 H 0.8673 0.9277 0.6562
O4_4 O 1.0000 0.7500 0.68129(8)
O5_2 O 0.57136(15) 0.93743(12) 0.52055(4)
O6_2 O 0.92804(14) 0.82164(14) 0.60678(4)
C15_2 C 0.5904(2) 0.99252(18) 0.52976(6)
C16_2 C 0.6369(2) 0.98610(19) 0.54895(6)
C17_2 C 0.6937(2) 0.9127(2) 0.57540(7)
H8_2 H 0.7045 0.8675 0.5806
C18_2 C 0.7184(2) 0.9710(2) 0.58633(7)
C19_2 C 0.7616(3) 0.9606(2) 0.60580(7)
C20_2 C 0.8134(2) 0.9098(2) 0.60639(7)
H9_2 H 0.8223 0.8827 0.5938
C22_2 C 0.6534(2) 0.9201(2) 0.55695(7)
H11_2 H 0.6367 0.8798 0.5496
F2_2 F 0.70151(12) 0.45151(12) 0.6250
O10_2 O 0.92836(14) 0.67804(14) 0.64322(4)
C26_2 C 0.8519(2) 0.6019(2) 0.6250
C27_2 C 0.7509(2) 0.5009(2) 0.6250
C28_2 C 0.75748(18) 0.3404(2) 0.72024(6)
C29_2 C 0.76390(19) 0.3869(2) 0.70105(6)
C30_2 C 0.8373(2) 0.4437(2) 0.67460(7)
H15_2 H 0.8825 0.4545 0.6694
C31_2 C 0.7790(2) 0.4684(2) 0.66367(7)
C32_2 C 0.7894(2) 0.5116(3) 0.64420(7)
C33_2 C 0.90758(18) 0.65758(18) 0.6250
C34_2 C 0.8402(2) 0.5634(2) 0.64361(7)
H16_2 H 0.8673 0.5723 0.6562
C35_2 C 0.7060(2) 0.4125(2) 0.69042(6)
H17_2 H 0.6609 0.4022 0.6959
C36_2 C 0.8299(2) 0.4034(2) 0.69305(7)
H18_2 H 0.8702 0.3867 0.7004
C37_2 C 0.7125(2) 0.4530(2) 0.67189(7)
H19_2 H 0.6721 0.4703 0.6648
O12_2 O 0.92804(14) 0.67836(14) 0.60678(4)
C38_2 C 0.5904(2) 0.50748(18) 0.52976(6)
C39_2 C 0.6369(2) 0.51390(19) 0.54895(6)
C40_2 C 0.6937(2) 0.5873(2) 0.57540(7)
H20_2 H 0.7045 0.6325 0.5806
C41_2 C 0.7184(2) 0.5290(2) 0.58633(7)
C42_2 C 0.7616(3) 0.5394(2) 0.60580(7)
C43_2 C 0.8134(2) 0.5902(2) 0.60639(7)
H21_2 H 0.8223 0.6173 0.5938
C44_2 C 0.6625(2) 0.4560(2) 0.55958(6)
H22_2 H 0.6522 0.4109 0.5541
C45_2 C 0.6534(2) 0.5799(2) 0.55695(7)
H23_2 H 0.6367 0.6202 0.5496
C46_2 C 0.7030(2) 0.4625(2) 0.57811(7)
H24_2 H 0.7203 0.4221 0.5852
Cu10_2 Cu 0.5000 0.93296(3) 0.49788(2)
Cu11_4 Cu 1.0000 0.7500 0.60342(2)
F1_3 F 0.29849(12) 0.45151(12) 0.6250
O3_3 O 0.07196(14) 0.67836(14) 0.60678(4)
C1_3 C 0.1481(2) 0.6019(2) 0.6250
C2_3 C 0.2491(2) 0.5009(2) 0.6250
C3_3 C 0.4096(2) 0.50748(18) 0.52976(6)
C4_3 C 0.3631(2) 0.51390(19) 0.54895(6)
C5_3 C 0.3063(2) 0.5873(2) 0.57540(7)
H1_3 H 0.2955 0.6325 0.5806
C6_3 C 0.2816(2) 0.5290(2) 0.58633(7)
C7_3 C 0.2384(3) 0.5394(2) 0.60580(7)
C8_3 C 0.09242(18) 0.65758(18) 0.6250
C9_3 C 0.1866(2) 0.5902(2) 0.60639(7)
H2_3 H 0.1777 0.6173 0.5938
C10_3 C 0.3375(2) 0.4560(2) 0.55958(6)
H3_3 H 0.3478 0.4109 0.5541
C11_3 C 0.3466(2) 0.5799(2) 0.55695(7)
H4_3 H 0.3633 0.6202 0.5496
C12_3 C 0.2970(2) 0.4625(2) 0.57811(7)
H5_3 H 0.2797 0.4221 0.5852
O4_5 O -0.0000 0.7500 0.56871(8)
C13_3 C 0.5000 0.7151(3) 0.47831(11)
H6_3 H 0.5000 0.6912 0.4648
C14_3 C 0.5000 0.7147(3) 0.51512(10)
H7_3 H 0.5000 0.6902 0.5285
O5_3 O 0.18743(12) 0.32136(15) 0.72945(4)
C15_3 C 0.24252(18) 0.3404(2) 0.72024(6)
C16_3 C 0.23610(19) 0.3869(2) 0.70105(6)
C17_3 C 0.1627(2) 0.4437(2) 0.67460(7)
H8_3 H 0.1175 0.4545 0.6694
C18_3 C 0.2210(2) 0.4684(2) 0.66367(7)
C19_3 C 0.2106(2) 0.5116(3) 0.64420(7)
C20_3 C 0.1598(2) 0.5634(2) 0.64361(7)
H9_3 H 0.1327 0.5723 0.6562
C21_3 C 0.2940(2) 0.4125(2) 0.69042(6)
H10_3 H 0.3391 0.4022 0.6959
C22_3 C 0.1701(2) 0.4034(2) 0.69305(7)
H11_3 H 0.1298 0.3867 0.7004
C23_3 C 0.2875(2) 0.4530(2) 0.67189(7)
H12_3 H 0.3279 0.4703 0.6648
O7_3 O 0.30352(12) 0.32079(14) 0.72539(4)
N2_3 N 0.5000 0.8212(2) 0.49629(6)
C24_3 C 0.5000 0.7849(3) 0.47831(11)
H13_3 H 0.5000 0.8088 0.4648
C25_3 C 0.5000 0.7853(3) 0.51512(10)
H14_3 H 0.5000 0.8098 0.5285
Cu8_2 Cu 0.31704(3) 0.2500 0.74788(2)
O21_3 O 0.07196(14) 0.82164(14) 0.60678(4)
O4_6 O 1.0000 0.7500 0.56871(8)
Cu4 Cu -0.0000 0.56704(3) 0.00212(2)
Cu5 Cu 0.0000 0.43296(3) 0.99788(2)
N1_3 N 0.0000 0.6788(2) 0.00371(6)
C13_4 C -0.0000 0.7151(3) 0.02169(11)
H6_4 H -0.0000 0.6912 0.0352
N2_4 N -0.0000 0.8212(2) 0.00371(6)
C24_4 C -0.0000 0.7849(3) 0.02169(11)
H13_4 H -0.0000 0.8088 0.0352
Cu4_2 Cu 1.0000 0.56704(3) 0.00212(2)
Cu9_3 Cu -0.0000 0.93296(3) 0.00212(2)
O14_3 O 0.07136(15) 0.43743(12) 0.02055(4)
O17_3 O 0.07079(14) 0.55352(12) 0.02461(4)
Cu2_5 Cu 0.5000 0.7500 0.89658(2)
O1_3 O 0.07136(15) 0.56257(12) 0.97945(4)
F1_4 F 0.20151(12) 0.45151(12) 0.8750
O2_3 O 0.07079(14) 0.44648(12) 0.97539(4)
O3_4 O 0.42804(14) 0.67836(14) 0.89322(4)
C1_4 C 0.3519(2) 0.6019(2) 0.8750
C2_4 C 0.2509(2) 0.5009(2) 0.8750
C3_4 C 0.0904(2) 0.50748(18) 0.97024(6)
C4_4 C 0.1369(2) 0.51390(19) 0.95105(6)
C5_4 C 0.1937(2) 0.5873(2) 0.92460(7)
H1_4 H 0.2045 0.6325 0.9194
C6_4 C 0.2184(2) 0.5290(2) 0.91367(7)
C7_4 C 0.2616(3) 0.5394(2) 0.89420(7)
C8_4 C 0.40758(18) 0.65758(18) 0.8750
C9_4 C 0.3134(2) 0.5902(2) 0.89361(7)
H2_4 H 0.3223 0.6173 0.9062
C10_4 C 0.1625(2) 0.4560(2) 0.94042(6)
H3_4 H 0.1522 0.4109 0.9459
C11_4 C 0.1534(2) 0.5799(2) 0.94305(7)
H4_4 H 0.1367 0.6202 0.9504
C12_4 C 0.2030(2) 0.4625(2) 0.92189(7)
H5_4 H 0.2203 0.4221 0.9148
O4_7 O 0.5000 0.7500 0.93129(8)
C14_4 C -0.0000 0.7147(3) 0.98488(10)
H7_4 H -0.0000 0.6902 0.9715
O5_4 O 0.31257(12) 0.32136(15) 0.77055(4)
O6_3 O 0.42836(14) 0.67804(14) 0.85678(4)
C15_4 C 0.25748(18) 0.3404(2) 0.77976(6)
C16_4 C 0.26390(19) 0.3869(2) 0.79895(6)
C17_4 C 0.3373(2) 0.4437(2) 0.82540(7)
H8_4 H 0.3825 0.4545 0.8306
C18_4 C 0.2790(2) 0.4684(2) 0.83633(7)
C19_4 C 0.2894(2) 0.5116(3) 0.85580(7)
C20_4 C 0.3402(2) 0.5634(2) 0.85639(7)
H9_4 H 0.3673 0.5723 0.8438
C21_4 C 0.2060(2) 0.4125(2) 0.80958(6)
H10_4 H 0.1609 0.4022 0.8041
C22_4 C 0.3299(2) 0.4034(2) 0.80695(7)
H11_4 H 0.3702 0.3867 0.7996
C23_4 C 0.2125(2) 0.4530(2) 0.82811(7)
H12_4 H 0.1721 0.4703 0.8352
O7_4 O 0.19648(12) 0.32079(14) 0.77461(4)
C25_4 C -0.0000 0.7853(3) 0.98488(10)
H14_4 H 0.0000 0.8098 0.9715
O8 O 0.92864(15) 0.56257(12) 0.97945(4)
F2_3 F 0.79849(12) 0.45151(12) 0.8750
O9 O 0.92921(14) 0.44648(12) 0.97539(4)
O10_3 O 0.57196(14) 0.67836(14) 0.89322(4)
C26_3 C 0.6481(2) 0.6019(2) 0.8750
C27_3 C 0.7491(2) 0.5009(2) 0.8750
C28_3 C 0.9096(2) 0.50748(18) 0.97024(6)
C29_3 C 0.8631(2) 0.51390(19) 0.95105(6)
C30_3 C 0.8063(2) 0.5873(2) 0.92460(7)
H15_3 H 0.7955 0.6325 0.9194
C31_3 C 0.7816(2) 0.5290(2) 0.91367(7)
C32_3 C 0.7384(3) 0.5394(2) 0.89420(7)
C33_3 C 0.59242(18) 0.65758(18) 0.8750
C34_3 C 0.6866(2) 0.5902(2) 0.89361(7)
H16_3 H 0.6777 0.6173 0.9062
C35_3 C 0.8375(2) 0.4560(2) 0.94042(6)
H17_3 H 0.8478 0.4109 0.9459
C36_3 C 0.8466(2) 0.5799(2) 0.94305(7)
H18_3 H 0.8633 0.6202 0.9504
C37_3 C 0.7970(2) 0.4625(2) 0.92189(7)
H19_3 H 0.7797 0.4221 0.9148
O12_3 O 0.57164(14) 0.67804(14) 0.85678(4)
C38_3 C 0.74252(18) 0.3404(2) 0.77976(6)
C39_3 C 0.73610(19) 0.3869(2) 0.79895(6)
C40_3 C 0.6627(2) 0.4437(2) 0.82540(7)
H20_3 H 0.6175 0.4545 0.8306
C41_3 C 0.7210(2) 0.4684(2) 0.83633(7)
C42_3 C 0.7106(2) 0.5116(3) 0.85580(7)
C43_3 C 0.6598(2) 0.5634(2) 0.85639(7)
H21_3 H 0.6327 0.5723 0.8438
C44_3 C 0.7940(2) 0.4125(2) 0.80958(6)
H22_3 H 0.8391 0.4022 0.8041
C45_3 C 0.6701(2) 0.4034(2) 0.80695(7)
H23_3 H 0.6298 0.3867 0.7996
C46_3 C 0.7875(2) 0.4530(2) 0.82811(7)
H24_3 H 0.8279 0.4703 0.8352
Cu5_2 Cu 1.0000 0.43296(3) 0.99788(2)
Cu11_5 Cu 0.5000 0.7500 0.85342(2)
O20_3 O 0.57196(14) 0.82164(14) 0.89322(4)
O21_4 O 0.42804(14) 0.82164(14) 0.89322(4)
N3_3 N -0.0000 0.3212(2) 0.99629(6)
N1_4 N 1.0000 0.6788(2) 0.00371(6)
C13_5 C 1.0000 0.7151(3) 0.02169(11)
H6_5 H 1.0000 0.6912 0.0352
N2_5 N 1.0000 0.8212(2) 0.00371(6)
C24_5 C 1.0000 0.7849(3) 0.02169(11)
H13_5 H 1.0000 0.8088 0.0352
Cu9_4 Cu 1.0000 0.93296(3) 0.00212(2)
O15_3 O 0.92864(15) 0.43743(12) 0.02055(4)
O18_3 O 0.92921(14) 0.55352(12) 0.02461(4)
C14_5 C 1.0000 0.7147(3) 0.98488(10)
H7_5 H 1.0000 0.6902 0.9715
C25_5 C 1.0000 0.7853(3) 0.98488(10)
H14_5 H 1.0000 0.8098 0.9715
N3_4 N 1.0000 0.3212(2) 0.99629(6)
O4_8 O 0.0000 0.2500 0.31871(8)
O21_5 O 0.07164(14) 0.17804(14) 0.35678(4)
N2_6 N 0.0712(2) 0.7500 0.24629(6)
C24_6 C 0.0349(3) 0.7500 0.22831(11)
H13_6 H 0.0588 0.7500 0.2148
C25_6 C 0.0353(3) 0.7500 0.26512(10)
H14_6 H 0.0598 0.7500 0.2785
O3_5 O 0.92836(14) 0.17804(14) 0.35678(4)
C1_5 C 0.8519(2) 0.1019(2) 0.3750
C2_5 C 0.7509(2) 0.0009(2) 0.3750
C7_5 C 0.7894(2) 0.0116(3) 0.35580(7)
C8_5 C 0.90758(18) 0.15758(18) 0.3750
C9_5 C 0.8402(2) 0.0634(2) 0.35639(7)
H2_5 H 0.8673 0.0723 0.3438
O4_9 O 1.0000 0.2500 0.31871(8)
O5_5 O 0.57136(15) 0.06257(12) 0.47945(4)
C15_5 C 0.5904(2) 0.00748(18) 0.47024(6)
C16_5 C 0.6369(2) 0.01390(19) 0.45105(6)
C17_5 C 0.6937(2) 0.0873(2) 0.42460(7)
H8_5 H 0.7045 0.1325 0.4194
C18_5 C 0.7184(2) 0.0290(2) 0.41367(7)
C19_5 C 0.7616(3) 0.0394(2) 0.39420(7)
C20_5 C 0.8134(2) 0.0902(2) 0.39361(7)
H9_5 H 0.8223 0.1173 0.4062
C22_5 C 0.6534(2) 0.0799(2) 0.44305(7)
H11_5 H 0.6367 0.1202 0.4504
O1_4 O 0.81257(12) 0.82136(15) 0.27055(4)
F1_5 F 0.70151(12) 0.95151(12) 0.3750
O2_4 O 0.69648(12) 0.82079(14) 0.27461(4)
N1_5 N 0.9288(2) 0.7500 0.24629(6)
C3_5 C 0.75748(18) 0.8404(2) 0.27976(6)
C4_5 C 0.76390(19) 0.8869(2) 0.29895(6)
C5_5 C 0.8373(2) 0.9437(2) 0.32540(7)
H1_5 H 0.8825 0.9545 0.3306
C6_5 C 0.7790(2) 0.9684(2) 0.33633(7)
C10_5 C 0.7060(2) 0.9125(2) 0.30958(6)
H3_5 H 0.6609 0.9022 0.3041
C11_5 C 0.8299(2) 0.9034(2) 0.30695(7)
H4_5 H 0.8702 0.8867 0.2996
C12_5 C 0.7125(2) 0.9530(2) 0.32811(7)
H5_5 H 0.6721 0.9703 0.3352
C13_6 C 0.9651(3) 0.7500 0.22831(11)
H6_6 H 0.9412 0.7500 0.2148
C14_6 C 0.9647(3) 0.7500 0.26512(10)
H7_6 H 0.9402 0.7500 0.2785
C21_5 C 0.6625(2) 0.9560(2) 0.44042(6)
H10_5 H 0.6522 0.9109 0.4459
C23_5 C 0.7030(2) 0.9625(2) 0.42189(7)
H12_5 H 0.7203 0.9221 0.4148
O7_5 O 0.57079(14) 0.94648(12) 0.47539(4)
O14_4 O 0.68743(12) 0.82136(15) 0.22945(4)
O15_4 O 0.68743(12) 0.67864(15) 0.22945(4)
O17_4 O 0.80352(12) 0.82079(14) 0.22539(4)
O18_4 O 0.80352(12) 0.67921(14) 0.22539(4)
N3_5 N 0.5712(2) 0.7500 0.25371(6)
Cu8_3 Cu 0.0000 0.06704(3) 0.99788(2)
F1_6 F 0.79849(12) 0.04849(12) 0.8750
C3_6 C 0.74252(18) 0.1596(2) 0.77976(6)
C4_6 C 0.73610(19) 0.1131(2) 0.79895(6)
C5_6 C 0.6627(2) 0.0563(2) 0.82540(7)
H1_6 H 0.6175 0.0455 0.8306
C6_6 C 0.7210(2) 0.0316(2) 0.83633(7)
C10_6 C 0.7940(2) 0.0875(2) 0.80958(6)
H3_6 H 0.8391 0.0978 0.8041
C11_6 C 0.6701(2) 0.0966(2) 0.80695(7)
H4_6 H 0.6298 0.1133 0.7996
C12_6 C 0.7875(2) 0.0470(2) 0.82811(7)
H5_6 H 0.8279 0.0297 0.8352
C13_7 C 0.5349(3) 0.2500 0.72831(11)
H6_7 H 0.5588 0.2500 0.7148
C14_7 C 0.5353(3) 0.2500 0.76512(10)
H7_7 H 0.5598 0.2500 0.7785
C21_6 C 0.8375(2) 0.0440(2) 0.94042(6)
H10_6 H 0.8478 0.0891 0.9459
C23_6 C 0.7970(2) 0.0375(2) 0.92189(7)
H12_6 H 0.7797 0.0779 0.9148
O7_6 O 0.92921(14) 0.05352(12) 0.97539(4)
N2_7 N 0.4288(2) 0.2500 0.74629(6)
C24_7 C 0.4651(3) 0.2500 0.72831(11)
H13_7 H 0.4412 0.2500 0.7148
C25_7 C 0.4647(3) 0.2500 0.76512(10)
H14_7 H 0.4402 0.2500 0.7785
Cu8_4 Cu 1.0000 0.06704(3) 0.99788(2)
O3_6 O 0.57164(14) 0.82196(14) 0.85678(4)
C1_6 C 0.6481(2) 0.8981(2) 0.8750
C2_6 C 0.7491(2) 0.9991(2) 0.8750
C7_6 C 0.7106(2) 0.9884(3) 0.85580(7)
C8_6 C 0.59242(18) 0.84242(18) 0.8750
C9_6 C 0.6598(2) 0.9366(2) 0.85639(7)
H2_6 H 0.6327 0.9277 0.8438
O4_10 O 0.5000 0.7500 0.81871(8)
O5_6 O 0.92864(15) 0.93743(12) 0.97945(4)
C15_6 C 0.9096(2) 0.99252(18) 0.97024(6)
C16_6 C 0.8631(2) 0.98610(19) 0.95105(6)
C17_6 C 0.8063(2) 0.9127(2) 0.92460(7)
H8_6 H 0.7955 0.8675 0.9194
C18_6 C 0.7816(2) 0.9710(2) 0.91367(7)
C19_6 C 0.7384(3) 0.9606(2) 0.89420(7)
C20_6 C 0.6866(2) 0.9098(2) 0.89361(7)
H9_6 H 0.6777 0.8827 0.9062
C22_6 C 0.8466(2) 0.9201(2) 0.94305(7)
H11_6 H 0.8633 0.8798 0.9504
O21_6 O 0.42836(14) 0.82196(14) 0.85678(4)
Cu2_6 Cu 0.5000 0.2500 0.14658(2)
O3_7 O 0.57164(14) 0.17804(14) 0.14322(4)
C1_7 C 0.6481(2) 0.1019(2) 0.1250
C2_7 C 0.7491(2) 0.0009(2) 0.1250
C7_7 C 0.7106(2) 0.0116(3) 0.14420(7)
C8_7 C 0.59242(18) 0.15758(18) 0.1250
C9_7 C 0.6598(2) 0.0634(2) 0.14361(7)
H2_7 H 0.6327 0.0723 0.1562
O4_11 O 0.5000 0.2500 0.18129(8)
O5_7 O 0.92864(15) 0.06257(12) 0.02055(4)
O6_4 O 0.57196(14) 0.17836(14) 0.10678(4)
C15_7 C 0.9096(2) 0.00748(18) 0.02976(6)
C16_7 C 0.8631(2) 0.01390(19) 0.04895(6)
C17_7 C 0.8063(2) 0.0873(2) 0.07540(7)
H8_7 H 0.7955 0.1325 0.0806
C18_7 C 0.7816(2) 0.0290(2) 0.08633(7)
C19_7 C 0.7384(3) 0.0394(2) 0.10580(7)
C20_7 C 0.6866(2) 0.0902(2) 0.10639(7)
H9_7 H 0.6777 0.1173 0.0938
C22_7 C 0.8466(2) 0.0799(2) 0.05695(7)
H11_7 H 0.8633 0.1202 0.0496
F2_4 F 0.79849(12) 0.54849(12) 0.1250
O10_4 O 0.57164(14) 0.32196(14) 0.14322(4)
C26_4 C 0.6481(2) 0.3981(2) 0.1250
C27_4 C 0.7491(2) 0.4991(2) 0.1250
C28_4 C 0.74252(18) 0.6596(2) 0.22024(6)
C29_4 C 0.73610(19) 0.6131(2) 0.20105(6)
C30_4 C 0.6627(2) 0.5563(2) 0.17460(7)
H15_4 H 0.6175 0.5455 0.1694
C31_4 C 0.7210(2) 0.5316(2) 0.16367(7)
C32_4 C 0.7106(2) 0.4884(3) 0.14420(7)
C33_4 C 0.59242(18) 0.34242(18) 0.1250
C34_4 C 0.6598(2) 0.4366(2) 0.14361(7)
H16_4 H 0.6327 0.4277 0.1562
C35_4 C 0.7940(2) 0.5875(2) 0.19042(6)
H17_4 H 0.8391 0.5978 0.1959
C36_4 C 0.6701(2) 0.5966(2) 0.19305(7)
H18_4 H 0.6298 0.6133 0.2004
C37_4 C 0.7875(2) 0.5470(2) 0.17189(7)
H19_4 H 0.8279 0.5297 0.1648
O12_4 O 0.57196(14) 0.32164(14) 0.10678(4)
C38_4 C 0.9096(2) 0.49252(18) 0.02976(6)
C39_4 C 0.8631(2) 0.48610(19) 0.04895(6)
C40_4 C 0.8063(2) 0.4127(2) 0.07540(7)
H20_4 H 0.7955 0.3675 0.0806
C41_4 C 0.7816(2) 0.4710(2) 0.08633(7)
C42_4 C 0.7384(3) 0.4606(2) 0.10580(7)
C43_4 C 0.6866(2) 0.4098(2) 0.10639(7)
H21_4 H 0.6777 0.3827 0.0938
C44_4 C 0.8375(2) 0.5440(2) 0.05958(6)
H22_4 H 0.8478 0.5891 0.0541
C45_4 C 0.8466(2) 0.4201(2) 0.05695(7)
H23_4 H 0.8633 0.3798 0.0496
C46_4 C 0.7970(2) 0.5375(2) 0.07811(7)
H24_4 H 0.7797 0.5779 0.0852
Cu11_6 Cu 0.5000 0.2500 0.10342(2)
O20_4 O 0.42836(14) 0.32196(14) 0.14322(4)
O21_7 O 0.42836(14) 0.17804(14) 0.14322(4)
F1_7 F 0.79849(12) 0.95151(12) 0.1250
C3_7 C 0.74252(18) 0.8404(2) 0.22024(6)
C4_7 C 0.73610(19) 0.8869(2) 0.20105(6)
C5_7 C 0.6627(2) 0.9437(2) 0.17460(7)
H1_7 H 0.6175 0.9545 0.1694
C6_7 C 0.7210(2) 0.9684(2) 0.16367(7)
C10_7 C 0.7940(2) 0.9125(2) 0.19042(6)
H3_7 H 0.8391 0.9022 0.1959
C11_7 C 0.6701(2) 0.9034(2) 0.19305(7)
H4_7 H 0.6298 0.8867 0.2004
C12_7 C 0.7875(2) 0.9530(2) 0.17189(7)
H5_7 H 0.8279 0.9703 0.1648
C13_8 C 0.5349(3) 0.7500 0.27169(11)
H6_8 H 0.5588 0.7500 0.2852
C14_8 C 0.5353(3) 0.7500 0.23488(10)
H7_8 H 0.5598 0.7500 0.2215
C21_7 C 0.8375(2) 0.9560(2) 0.05958(6)
H10_7 H 0.8478 0.9109 0.0541
C23_7 C 0.7970(2) 0.9625(2) 0.07811(7)
H12_7 H 0.7797 0.9221 0.0852
O7_7 O 0.92921(14) 0.94648(12) 0.02461(4)
N2_8 N 0.4288(2) 0.7500 0.25371(6)
C24_8 C 0.4651(3) 0.7500 0.27169(11)
H13_8 H 0.4412 0.7500 0.2852
C25_8 C 0.4647(3) 0.7500 0.23488(10)
H14_8 H 0.4402 0.7500 0.2215
F1_8 F 0.20151(12) 0.54849(12) 0.1250
O3_8 O 0.42804(14) 0.32164(14) 0.10678(4)
C1_8 C 0.3519(2) 0.3981(2) 0.1250
C2_8 C 0.2509(2) 0.4991(2) 0.1250
C3_8 C 0.0904(2) 0.49252(18) 0.02976(6)
C4_8 C 0.1369(2) 0.48610(19) 0.04895(6)
C5_8 C 0.1937(2) 0.4127(2) 0.07540(7)
H1_8 H 0.2045 0.3675 0.0806
C6_8 C 0.2184(2) 0.4710(2) 0.08633(7)
C7_8 C 0.2616(3) 0.4606(2) 0.10580(7)
C8_8 C 0.40758(18) 0.34242(18) 0.1250
C9_8 C 0.3134(2) 0.4098(2) 0.10639(7)
H2_8 H 0.3223 0.3827 0.0938
C10_8 C 0.1625(2) 0.5440(2) 0.05958(6)
H3_8 H 0.1522 0.5891 0.0541
C11_8 C 0.1534(2) 0.4201(2) 0.05695(7)
H4_8 H 0.1367 0.3798 0.0496
C12_8 C 0.2030(2) 0.5375(2) 0.07811(7)
H5_8 H 0.2203 0.5779 0.0852
O4_12 O 0.5000 0.2500 0.06871(8)
C14_9 C -0.0000 0.2853(3) 0.01512(10)
H7_9 H -0.0000 0.3098 0.0285
O5_8 O 0.31257(12) 0.67864(15) 0.22945(4)
C15_8 C 0.25748(18) 0.6596(2) 0.22024(6)
C16_8 C 0.26390(19) 0.6131(2) 0.20105(6)
C17_8 C 0.3373(2) 0.5563(2) 0.17460(7)
H8_8 H 0.3825 0.5455 0.1694
C18_8 C 0.2790(2) 0.5316(2) 0.16367(7)
C19_8 C 0.2894(2) 0.4884(3) 0.14420(7)
C20_8 C 0.3402(2) 0.4366(2) 0.14361(7)
H9_8 H 0.3673 0.4277 0.1562
C21_8 C 0.2060(2) 0.5875(2) 0.19042(6)
H10_8 H 0.1609 0.5978 0.1959
C22_8 C 0.3299(2) 0.5966(2) 0.19305(7)
H11_8 H 0.3702 0.6133 0.2004
C23_8 C 0.2125(2) 0.5470(2) 0.17189(7)
H12_8 H 0.1721 0.5297 0.1648
O7_8 O 0.19648(12) 0.67921(14) 0.22539(4)
C25_9 C 0.0000 0.2147(3) 0.01512(10)
H14_9 H -0.0000 0.1902 0.0285
O21_8 O 0.42804(14) 0.17836(14) 0.10678(4)
C13_9 C 0.0000 0.2849(3) 0.97831(11)
H6_9 H 0.0000 0.3088 0.9648
N2_9 N -0.0000 0.1788(2) 0.99629(6)
C24_9 C 0.0000 0.2151(3) 0.97831(11)
H13_9 H -0.0000 0.1912 0.9648
C14_10 C 1.0000 0.2853(3) 0.01512(10)
H7_10 H 1.0000 0.3098 0.0285
C25_10 C 1.0000 0.2147(3) 0.01512(10)
H14_10 H 1.0000 0.1902 0.0285
C13_10 C 1.0000 0.2849(3) 0.97831(11)
H6_10 H 1.0000 0.3088 0.9648
N2_10 N 1.0000 0.1788(2) 0.99629(6)
C24_10 C 1.0000 0.2151(3) 0.97831(11)
H13_10 H 1.0000 0.1912 0.9648
O15_5 O 0.07136(15) 0.06257(12) 0.02055(4)
O19_3 O 0.07079(14) 0.05352(12) 0.97539(4)
O18_5 O 0.07079(14) 0.94648(12) 0.02461(4)
O16_3 O 0.07136(15) 0.93743(12) 0.97945(4)
F2_5 F 0.20151(12) 0.04849(12) 0.8750
C35_5 C 0.1625(2) 0.0440(2) 0.94042(6)
H17_5 H 0.1522 0.0891 0.9459
C37_5 C 0.2030(2) 0.0375(2) 0.92189(7)
H19_5 H 0.2203 0.0779 0.9148
O11_2 O 0.31257(12) 0.17864(15) 0.77055(4)
C38_5 C 0.25748(18) 0.1596(2) 0.77976(6)
C39_5 C 0.26390(19) 0.1131(2) 0.79895(6)
C40_5 C 0.3373(2) 0.0563(2) 0.82540(7)
H20_5 H 0.3825 0.0455 0.8306
C41_5 C 0.2790(2) 0.0316(2) 0.83633(7)
C44_5 C 0.2060(2) 0.0875(2) 0.80958(6)
H22_5 H 0.1609 0.0978 0.8041
C45_5 C 0.3299(2) 0.0966(2) 0.80695(7)
H23_5 H 0.3702 0.1133 0.7996
C46_5 C 0.2125(2) 0.0470(2) 0.82811(7)
H24_5 H 0.1721 0.0297 0.8352
O13_2 O 0.19648(12) 0.17921(14) 0.77461(4)
C26_5 C 0.3519(2) 0.8981(2) 0.8750
C27_5 C 0.2509(2) 0.9991(2) 0.8750
C28_5 C 0.0904(2) 0.99252(18) 0.97024(6)
C29_5 C 0.1369(2) 0.98610(19) 0.95105(6)
C30_5 C 0.1937(2) 0.9127(2) 0.92460(7)
H15_5 H 0.2045 0.8675 0.9194
C31_5 C 0.2184(2) 0.9710(2) 0.91367(7)
C32_5 C 0.2616(3) 0.9606(2) 0.89420(7)
C33_5 C 0.40758(18) 0.84242(18) 0.8750
C34_5 C 0.3134(2) 0.9098(2) 0.89361(7)
H16_5 H 0.3223 0.8827 0.9062
C36_5 C 0.1534(2) 0.9201(2) 0.94305(7)
H18_5 H 0.1367 0.8798 0.9504
C42_5 C 0.2894(2) 0.9884(3) 0.85580(7)
C43_5 C 0.3402(2) 0.9366(2) 0.85639(7)
H21_5 H 0.3673 0.9277 0.8438
C26_6 C 0.3519(2) 0.1019(2) 0.1250
C27_6 C 0.2509(2) 0.0009(2) 0.1250
C32_6 C 0.2894(2) 0.0116(3) 0.14420(7)
C33_6 C 0.40758(18) 0.15758(18) 0.1250
C34_6 C 0.3402(2) 0.0634(2) 0.14361(7)
H16_6 H 0.3673 0.0723 0.1562
C38_6 C 0.0904(2) 0.00748(18) 0.02976(6)
C39_6 C 0.1369(2) 0.01390(19) 0.04895(6)
C40_6 C 0.1937(2) 0.0873(2) 0.07540(7)
H20_6 H 0.2045 0.1325 0.0806
C41_6 C 0.2184(2) 0.0290(2) 0.08633(7)
C42_6 C 0.2616(3) 0.0394(2) 0.10580(7)
C43_6 C 0.3134(2) 0.0902(2) 0.10639(7)
H21_6 H 0.3223 0.1173 0.0938
C45_6 C 0.1534(2) 0.0799(2) 0.05695(7)
H23_6 H 0.1367 0.1202 0.0496
O15_6 O 0.18743(12) 0.82136(15) 0.27055(4)
O16_4 O 0.31257(12) 0.82136(15) 0.22945(4)
O18_6 O 0.30352(12) 0.82079(14) 0.27461(4)
O19_4 O 0.19648(12) 0.82079(14) 0.22539(4)
F2_6 F 0.20151(12) 0.95151(12) 0.1250
C28_6 C 0.25748(18) 0.8404(2) 0.22024(6)
C29_6 C 0.26390(19) 0.8869(2) 0.20105(6)
C30_6 C 0.3373(2) 0.9437(2) 0.17460(7)
H15_6 H 0.3825 0.9545 0.1694
C31_6 C 0.2790(2) 0.9684(2) 0.16367(7)
C35_6 C 0.2060(2) 0.9125(2) 0.19042(6)
H17_6 H 0.1609 0.9022 0.1959
C36_6 C 0.3299(2) 0.9034(2) 0.19305(7)
H18_6 H 0.3702 0.8867 0.2004
C37_6 C 0.2125(2) 0.9530(2) 0.17189(7)
H19_6 H 0.1721 0.9703 0.1648
C44_6 C 0.1625(2) 0.9560(2) 0.05958(6)
H22_6 H 0.1522 0.9109 0.0541
C46_6 C 0.2030(2) 0.9625(2) 0.07811(7)
H24_6 H 0.2203 0.9221 0.0852
O8_2 O 0.42864(15) 0.06257(12) 0.47945(4)
C26_7 C 0.1481(2) 0.1019(2) 0.3750
C27_7 C 0.2491(2) 0.0009(2) 0.3750
C28_7 C 0.4096(2) 0.00748(18) 0.47024(6)
C29_7 C 0.3631(2) 0.01390(19) 0.45105(6)
C30_7 C 0.3063(2) 0.0873(2) 0.42460(7)
H15_7 H 0.2955 0.1325 0.4194
C31_7 C 0.2816(2) 0.0290(2) 0.41367(7)
C32_7 C 0.2384(3) 0.0394(2) 0.39420(7)
C33_7 C 0.09242(18) 0.15758(18) 0.3750
C34_7 C 0.1866(2) 0.0902(2) 0.39361(7)
H16_7 H 0.1777 0.1173 0.4062
C36_7 C 0.3466(2) 0.0799(2) 0.44305(7)
H18_7 H 0.3633 0.1202 0.4504
C42_7 C 0.2106(2) 0.0116(3) 0.35580(7)
C43_7 C 0.1598(2) 0.0634(2) 0.35639(7)
H21_7 H 0.1327 0.0723 0.3438
F2_7 F 0.29849(12) 0.95151(12) 0.3750
O9_2 O 0.42921(14) 0.94648(12) 0.47539(4)
C35_7 C 0.3375(2) 0.9560(2) 0.44042(6)
H17_7 H 0.3478 0.9109 0.4459
C37_7 C 0.2970(2) 0.9625(2) 0.42189(7)
H19_7 H 0.2797 0.9221 0.4148
C38_7 C 0.24252(18) 0.8404(2) 0.27976(6)
C39_7 C 0.23610(19) 0.8869(2) 0.29895(6)
C40_7 C 0.1627(2) 0.9437(2) 0.32540(7)
H20_7 H 0.1175 0.9545 0.3306
C41_7 C 0.2210(2) 0.9684(2) 0.33633(7)
C44_7 C 0.2940(2) 0.9125(2) 0.30958(6)
H22_7 H 0.3391 0.9022 0.3041
C45_7 C 0.1701(2) 0.9034(2) 0.30695(7)
H23_7 H 0.1298 0.8867 0.2996
C46_7 C 0.2875(2) 0.9530(2) 0.32811(7)
H24_7 H 0.3279 0.9703 0.3352
O18_7 O 0.42921(14) 0.05352(12) 0.52461(4)
O15_7 O 0.42864(15) 0.93743(12) 0.52055(4)
O15_8 O 0.18743(12) 0.17864(15) 0.72945(4)
O18_8 O 0.30352(12) 0.17921(14) 0.72539(4)
F2_8 F 0.29849(12) 0.04849(12) 0.6250
C28_8 C 0.24252(18) 0.1596(2) 0.72024(6)
C29_8 C 0.23610(19) 0.1131(2) 0.70105(6)
C30_8 C 0.1627(2) 0.0563(2) 0.67460(7)
H15_8 H 0.1175 0.0455 0.6694
C31_8 C 0.2210(2) 0.0316(2) 0.66367(7)
C35_8 C 0.2940(2) 0.0875(2) 0.69042(6)
H17_8 H 0.3391 0.0978 0.6959
C36_8 C 0.1701(2) 0.0966(2) 0.69305(7)
H18_8 H 0.1298 0.1133 0.7004
C37_8 C 0.2875(2) 0.0470(2) 0.67189(7)
H19_8 H 0.3279 0.0297 0.6648
C44_8 C 0.3375(2) 0.0440(2) 0.55958(6)
H22_8 H 0.3478 0.0891 0.5541
C46_8 C 0.2970(2) 0.0375(2) 0.57811(7)
H24_8 H 0.2797 0.0779 0.5852
C26_8 C 0.1481(2) 0.8981(2) 0.6250
C27_8 C 0.2491(2) 0.9991(2) 0.6250
C32_8 C 0.2106(2) 0.9884(3) 0.64420(7)
C33_8 C 0.09242(18) 0.84242(18) 0.6250
C34_8 C 0.1598(2) 0.9366(2) 0.64361(7)
H16_8 H 0.1327 0.9277 0.6562
C38_8 C 0.4096(2) 0.99252(18) 0.52976(6)
C39_8 C 0.3631(2) 0.98610(19) 0.54895(6)
C40_8 C 0.3063(2) 0.9127(2) 0.57540(7)
H20_8 H 0.2955 0.8675 0.5806
C41_8 C 0.2816(2) 0.9710(2) 0.58633(7)
C42_8 C 0.2384(3) 0.9606(2) 0.60580(7)
C43_8 C 0.1866(2) 0.9098(2) 0.60639(7)
H21_8 H 0.1777 0.8827 0.5938
C45_8 C 0.3466(2) 0.9201(2) 0.55695(7)
H23_8 H 0.3633 0.8798 0.5496
loop_
_geom_bond_atom_site_label_1
_geom_bond_atom_site_label_2
_geom_bond_site_symmetry_1
_geom_bond_site_symmetry_2
Cu1 O1 1_555 1_555
Cu2 O3 1_555 1_555
O1 C3 1_555 1_555
F1 C2 1_555 1_555
O2 C3 1_555 1_555
O3 C8 1_555 1_555
N1 Cu1 1_555 1_555
C1 C8 1_555 1_555
C2 C7 1_555 1_555
C3 C4 1_555 1_555
C4 C10 1_555 1_555
C5 H1 1_555 1_555
C6 C5 1_555 1_555
C7 C6 1_555 1_555
C8 O6 1_555 1_555
C9 C1 1_555 1_555
H2 C9 1_555 1_555
C10 H3 1_555 1_555
C11 C4 1_555 1_555
H4 C11 1_555 1_555
C12 C6 1_555 1_555
H5 C12 1_555 1_555
O4 Cu2 1_555 1_555
C13 N1 1_555 1_555
H6 C13 1_555 1_555
C14 N1 1_555 1_555
H7 C14 1_555 1_555
O5 C15 1_555 1_555
O6 Cu11 1_555 1_555
C15 C16 1_555 1_555
C16 C21 1_555 1_555
C17 H8 1_555 1_555
C18 C17 1_555 1_555
C19 C2 1_555 1_555
C20 C1 1_555 1_555
H9 C20 1_555 1_555
C21 H10 1_555 1_555
C22 C16 1_555 1_555
H11 C22 1_555 1_555
C23 C18 1_555 1_555
H12 C23 1_555 1_555
O7 C15 1_555 1_555
N2 C24 1_555 1_555
C24 C13 1_555 1_555
H13 C24 1_555 1_555
C25 C14 1_555 1_555
H14 C25 1_555 1_555
Cu3 Cu1 1_555 1_555
Cu8 O7 1_555 1_555
Cu9 N2 1_555 1_555
Cu10 O5 1_555 1_555
Cu11 Cu2 1_555 1_555
O14 Cu3 1_555 1_555
O15 Cu3 1_555 1_555
O16 Cu1 1_555 1_555
O17 Cu1 1_555 1_555
O18 Cu1 1_555 1_555
O19 Cu3 1_555 1_555
O21 Cu2 1_555 1_555
N3 Cu3 1_555 1_555
O2 Cu3 1_555 1_555
C5 C11 1_555 1_555
C7 C9 1_555 1_555
C10 C12 1_555 1_555
C17 C22 1_555 1_555
C18 C19 1_555 1_555
C19 C20 1_555 1_555
C21 C23 1_555 1_555
N2 C25 1_555 1_555
Cu8 Cu10 1_555 1_555
O4_2 Cu2_2 1_555 1_555
O16 C28 1_555 1_555
F2 C27 1_555 1_555
O19 C28 1_555 1_555
O10 Cu2_2 1_555 1_555
C26 C33 1_555 1_555
C27 C32 1_555 1_555
C28 C29 1_555 1_555
C29 C35 1_555 1_555
C30 H15 1_555 1_555
C31 C30 1_555 1_555
C32 C31 1_555 1_555
C33 O10 1_555 1_555
C34 C26 1_555 1_555
H16 C34 1_555 1_555
C35 H17 1_555 1_555
C36 C29 1_555 1_555
H18 C36 1_555 1_555
C37 C31 1_555 1_555
H19 C37 1_555 1_555
O11 C38 1_555 1_555
O12 C33 1_555 1_555
C38 C39 1_555 1_555
C39 C44 1_555 1_555
C40 H20 1_555 1_555
C41 C40 1_555 1_555
C42 C27 1_555 1_555
C43 C26 1_555 1_555
H21 C43 1_555 1_555
C44 H22 1_555 1_555
C45 C39 1_555 1_555
H23 C45 1_555 1_555
C46 C41 1_555 1_555
H24 C46 1_555 1_555
O13 C38 1_555 1_555
Cu6 O11 1_555 1_555
Cu7 O13 1_555 1_555
Cu11_2 Cu2_2 1_555 1_555
O20 Cu2_2 1_555 1_555
C30 C36 1_555 1_555
C32 C34 1_555 1_555
C35 C37 1_555 1_555
O12 Cu11_2 1_555 1_555
C40 C45 1_555 1_555
C41 C42 1_555 1_555
C42 C43 1_555 1_555
C44 C46 1_555 1_555
Cu6 Cu7 1_555 1_555
N2_2 C24_2 1_555 1_555
H13_2 C24_2 1_555 1_555
H14_2 C25_2 1_555 1_555
Cu9_2 N2_2 1_555 1_555
N2_2 C25_2 1_555 1_555
O4_3 Cu2_3 1_555 1_555
Cu11_3 Cu2_3 1_555 1_555
O20_2 Cu2_3 1_555 1_555
O21_2 Cu2_3 1_555 1_555
Cu1_2 O1_2 1_555 1_555
O1_2 C3_2 1_555 1_555
O2_2 C3_2 1_555 1_555
N1_2 Cu1_2 1_555 1_555
C3_2 C4_2 1_555 1_555
C4_2 C10_2 1_555 1_555
C5_2 H1_2 1_555 1_555
C6_2 C5_2 1_555 1_555
C10_2 H3_2 1_555 1_555
C11_2 C4_2 1_555 1_555
H4_2 C11_2 1_555 1_555
C12_2 C6_2 1_555 1_555
H5_2 C12_2 1_555 1_555
C13_2 N1_2 1_555 1_555
H6_2 C13_2 1_555 1_555
C14_2 N1_2 1_555 1_555
H7_2 C14_2 1_555 1_555
C21_2 H10_2 1_555 1_555
H12_2 C23_2 1_555 1_555
Cu3_2 Cu1_2 1_555 1_555
Cu9 O7_2 1_555 1_555
O14_2 Cu3_2 1_555 1_555
O15_2 Cu3_2 1_555 1_555
O16_2 Cu1_2 1_555 1_555
O17_2 Cu1_2 1_555 1_555
O18_2 Cu1_2 1_555 1_555
O19_2 Cu3_2 1_555 1_555
N3_2 Cu3_2 1_555 1_555
O2_2 Cu3_2 1_555 1_555
C5_2 C11_2 1_555 1_555
C10_2 C12_2 1_555 1_555
C21_2 C23_2 1_555 1_555
Cu2_4 O3_2 1_555 1_555
O3_2 C8_2 1_555 1_555
C1_2 C8_2 1_555 1_555
C2_2 C7_2 1_555 1_555
C8_2 O6_2 1_555 1_555
C9_2 C1_2 1_555 1_555
H2_2 C9_2 1_555 1_555
O4_4 Cu2_4 1_555 1_555
O5_2 C15_2 1_555 1_555
O6_2 Cu11_4 1_555 1_555
C15_2 C16_2 1_555 1_555
C17_2 H8_2 1_555 1_555
C18_2 C17_2 1_555 1_555
C19_2 C2_2 1_555 1_555
C20_2 C1_2 1_555 1_555
H9_2 C20_2 1_555 1_555
C22_2 C16_2 1_555 1_555
H11_2 C22_2 1_555 1_555
O16_2 C28_2 1_555 1_555
F2_2 C27_2 1_555 1_555
O19_2 C28_2 1_555 1_555
O10_2 Cu2_4 1_555 1_555
C26_2 C33_2 1_555 1_555
C27_2 C32_2 1_555 1_555
C28_2 C29_2 1_555 1_555
C29_2 C35_2 1_555 1_555
C30_2 H15_2 1_555 1_555
C31_2 C30_2 1_555 1_555
C32_2 C31_2 1_555 1_555
C33_2 O10_2 1_555 1_555
C34_2 C26_2 1_555 1_555
H16_2 C34_2 1_555 1_555
C35_2 H17_2 1_555 1_555
C36_2 C29_2 1_555 1_555
H18_2 C36_2 1_555 1_555
C37_2 C31_2 1_555 1_555
H19_2 C37_2 1_555 1_555
O15 C38_2 1_555 1_555
O12_2 C33_2 1_555 1_555
C38_2 C39_2 1_555 1_555
C39_2 C44_2 1_555 1_555
C40_2 H20_2 1_555 1_555
C41_2 C40_2 1_555 1_555
C42_2 C27_2 1_555 1_555
C43_2 C26_2 1_555 1_555
H21_2 C43_2 1_555 1_555
C44_2 H22_2 1_555 1_555
C45_2 C39_2 1_555 1_555
H23_2 C45_2 1_555 1_555
C46_2 C41_2 1_555 1_555
H24_2 C46_2 1_555 1_555
O18 C38_2 1_555 1_555
Cu10_2 O5_2 1_555 1_555
Cu11_4 Cu2_4 1_555 1_555
C7_2 C9_2 1_555 1_555
C17_2 C22_2 1_555 1_555
C18_2 C19_2 1_555 1_555
C19_2 C20_2 1_555 1_555
C30_2 C36_2 1_555 1_555
C32_2 C34_2 1_555 1_555
C35_2 C37_2 1_555 1_555
O12_2 Cu11_4 1_555 1_555
C40_2 C45_2 1_555 1_555
C41_2 C42_2 1_555 1_555
C42_2 C43_2 1_555 1_555
C44_2 C46_2 1_555 1_555
Cu11_3 O3_3 1_555 1_555
O14 C3_3 1_555 1_555
F1_3 C2_3 1_555 1_555
O17 C3_3 1_555 1_555
O3_3 C8_3 1_555 1_555
C1_3 C8_3 1_555 1_555
C2_3 C7_3 1_555 1_555
C3_3 C4_3 1_555 1_555
C4_3 C10_3 1_555 1_555
C5_3 H1_3 1_555 1_555
C6_3 C5_3 1_555 1_555
C7_3 C6_3 1_555 1_555
C8_3 O20_2 1_555 1_555
C9_3 C1_3 1_555 1_555
H2_3 C9_3 1_555 1_555
C10_3 H3_3 1_555 1_555
C11_3 C4_3 1_555 1_555
H4_3 C11_3 1_555 1_555
C12_3 C6_3 1_555 1_555
H5_3 C12_3 1_555 1_555
O4_5 Cu11_3 1_555 1_555
C13_3 N3 1_555 1_555
H6_3 C13_3 1_555 1_555
C14_3 N3 1_555 1_555
H7_3 C14_3 1_555 1_555
O5_3 C15_3 1_555 1_555
C15_3 C16_3 1_555 1_555
C16_3 C21_3 1_555 1_555
C17_3 H8_3 1_555 1_555
C18_3 C17_3 1_555 1_555
C19_3 C2_3 1_555 1_555
C20_3 C1_3 1_555 1_555
H9_3 C20_3 1_555 1_555
C21_3 H10_3 1_555 1_555
C22_3 C16_3 1_555 1_555
H11_3 C22_3 1_555 1_555
C23_3 C18_3 1_555 1_555
H12_3 C23_3 1_555 1_555
O7_3 C15_3 1_555 1_555
N2_3 C24_3 1_555 1_555
C24_3 C13_3 1_555 1_555
H13_3 C24_3 1_555 1_555
C25_3 C14_3 1_555 1_555
H14_3 C25_3 1_555 1_555
Cu8_2 O7_3 1_555 1_555
Cu10_2 N2_3 1_555 1_555
Cu9_2 O5_3 1_555 1_555
O21_3 Cu11_3 1_555 1_555
C5_3 C11_3 1_555 1_555
C7_3 C9_3 1_555 1_555
C10_3 C12_3 1_555 1_555
C17_3 C22_3 1_555 1_555
C18_3 C19_3 1_555 1_555
C19_3 C20_3 1_555 1_555
C21_3 C23_3 1_555 1_555
N2_3 C25_3 1_555 1_555
Cu8_2 Cu9_2 1_555 1_555
O4_6 Cu11_4 1_555 1_555
N1_3 Cu4 1_555 1_555
C13_4 N1_3 1_555 1_555
H6_4 C13_4 1_555 1_555
N2_4 C24_4 1_555 1_555
C24_4 C13_4 1_555 1_555
H13_4 C24_4 1_555 1_555
Cu9_3 N2_4 1_555 1_555
O17_3 Cu4 1_555 1_555
Cu2_5 O3_4 1_555 1_555
O1_3 C3_4 1_555 1_555
F1_4 C2_4 1_555 1_555
O2_3 C3_4 1_555 1_555
O3_4 C8_4 1_555 1_555
C1_4 C8_4 1_555 1_555
C2_4 C7_4 1_555 1_555
C3_4 C4_4 1_555 1_555
C4_4 C10_4 1_555 1_555
C5_4 H1_4 1_555 1_555
C6_4 C5_4 1_555 1_555
C7_4 C6_4 1_555 1_555
C8_4 O6_3 1_555 1_555
C9_4 C1_4 1_555 1_555
H2_4 C9_4 1_555 1_555
C10_4 H3_4 1_555 1_555
C11_4 C4_4 1_555 1_555
H4_4 C11_4 1_555 1_555
C12_4 C6_4 1_555 1_555
H5_4 C12_4 1_555 1_555
O4_7 Cu2_5 1_555 1_555
H7_4 C14_4 1_555 1_555
O5_4 C15_4 1_555 1_555
O6_3 Cu11_5 1_555 1_555
C15_4 C16_4 1_555 1_555
C16_4 C21_4 1_555 1_555
C17_4 H8_4 1_555 1_555
C18_4 C17_4 1_555 1_555
C19_4 C2_4 1_555 1_555
C20_4 C1_4 1_555 1_555
H9_4 C20_4 1_555 1_555
C21_4 H10_4 1_555 1_555
C22_4 C16_4 1_555 1_555
H11_4 C22_4 1_555 1_555
C23_4 C18_4 1_555 1_555
H12_4 C23_4 1_555 1_555
O7_4 C15_4 1_555 1_555
C25_4 C14_4 1_555 1_555
H14_4 C25_4 1_555 1_555
O8 C28_3 1_555 1_555
F2_3 C27_3 1_555 1_555
O9 C28_3 1_555 1_555
O10_3 Cu2_5 1_555 1_555
C26_3 C33_3 1_555 1_555
C27_3 C32_3 1_555 1_555
C28_3 C29_3 1_555 1_555
C29_3 C35_3 1_555 1_555
C30_3 H15_3 1_555 1_555
C31_3 C30_3 1_555 1_555
C32_3 C31_3 1_555 1_555
C33_3 O10_3 1_555 1_555
C34_3 C26_3 1_555 1_555
H16_3 C34_3 1_555 1_555
C35_3 H17_3 1_555 1_555
C36_3 C29_3 1_555 1_555
H18_3 C36_3 1_555 1_555
C37_3 C31_3 1_555 1_555
H19_3 C37_3 1_555 1_555
O15_2 C38_3 1_555 1_555
O12_3 C33_3 1_555 1_555
C38_3 C39_3 1_555 1_555
C39_3 C44_3 1_555 1_555
C40_3 H20_3 1_555 1_555
C41_3 C40_3 1_555 1_555
C42_3 C27_3 1_555 1_555
C43_3 C26_3 1_555 1_555
H21_3 C43_3 1_555 1_555
C44_3 H22_3 1_555 1_555
C45_3 C39_3 1_555 1_555
H23_3 C45_3 1_555 1_555
C46_3 C41_3 1_555 1_555
H24_3 C46_3 1_555 1_555
O18_2 C38_3 1_555 1_555
Cu5_2 O9 1_555 1_555
Cu9_2 O7_4 1_555 1_555
Cu8_2 O5_4 1_555 1_555
Cu11_5 Cu2_5 1_555 1_555
O20_3 Cu2_5 1_555 1_555
O21_4 Cu2_5 1_555 1_555
N3_3 Cu5 1_555 1_555
O2_3 Cu5 1_555 1_555
C5_4 C11_4 1_555 1_555
C7_4 C9_4 1_555 1_555
C10_4 C12_4 1_555 1_555
C17_4 C22_4 1_555 1_555
C18_4 C19_4 1_555 1_555
C19_4 C20_4 1_555 1_555
C21_4 C23_4 1_555 1_555
C30_3 C36_3 1_555 1_555
C32_3 C34_3 1_555 1_555
C35_3 C37_3 1_555 1_555
O12_3 Cu11_5 1_555 1_555
C40_3 C45_3 1_555 1_555
C41_3 C42_3 1_555 1_555
C42_3 C43_3 1_555 1_555
C44_3 C46_3 1_555 1_555
N1_4 Cu4_2 1_555 1_555
C13_5 N1_4 1_555 1_555
H6_5 C13_5 1_555 1_555
N2_5 C24_5 1_555 1_555
C24_5 C13_5 1_555 1_555
H13_5 C24_5 1_555 1_555
Cu9_4 N2_5 1_555 1_555
O18_3 Cu4_2 1_555 1_555
H7_5 C14_5 1_555 1_555
C25_5 C14_5 1_555 1_555
H14_5 C25_5 1_555 1_555
N3_4 Cu5_2 1_555 1_555
O4_8 Cu11 1_555 1_555
O21_5 Cu11 1_555 1_555
N2_6 C24_6 1_555 1_555
H13_6 C24_6 1_555 1_555
H14_6 C25_6 1_555 1_555
Cu10 N2_6 1_555 1_555
N2_6 C25_6 1_555 1_555
Cu11_2 O3_5 1_555 1_555
O3_5 C8_5 1_555 1_555
C1_5 C8_5 1_555 1_555
C2_5 C7_5 1_555 1_555
C8_5 O20 1_555 1_555
C9_5 C1_5 1_555 1_555
H2_5 C9_5 1_555 1_555
O4_9 Cu11_2 1_555 1_555
O5_5 C15_5 1_555 1_555
C15_5 C16_5 1_555 1_555
C17_5 H8_5 1_555 1_555
C18_5 C17_5 1_555 1_555
C19_5 C2_5 1_555 1_555
C20_5 C1_5 1_555 1_555
H9_5 C20_5 1_555 1_555
C22_5 C16_5 1_555 1_555
H11_5 C22_5 1_555 1_555
Cu9 O5_5 1_555 1_555
C7_5 C9_5 1_555 1_555
C17_5 C22_5 1_555 1_555
C18_5 C19_5 1_555 1_555
C19_5 C20_5 1_555 1_555
Cu6 O1_4 1_555 1_555
O1_4 C3_5 1_555 1_555
O2_4 C3_5 1_555 1_555
N1_5 Cu6 1_555 1_555
C3_5 C4_5 1_555 1_555
C4_5 C10_5 1_555 1_555
C5_5 H1_5 1_555 1_555
C6_5 C5_5 1_555 1_555
C10_5 H3_5 1_555 1_555
C11_5 C4_5 1_555 1_555
H4_5 C11_5 1_555 1_555
C12_5 C6_5 1_555 1_555
H5_5 C12_5 1_555 1_555
C13_6 N1_5 1_555 1_555
H6_6 C13_6 1_555 1_555
C14_6 N1_5 1_555 1_555
H7_6 C14_6 1_555 1_555
C21_5 H10_5 1_555 1_555
H12_5 C23_5 1_555 1_555
Cu10_2 O7_5 1_555 1_555
O14_4 Cu7 1_555 1_555
O15_4 Cu7 1_555 1_555
O17_4 Cu6 1_555 1_555
O18_4 Cu6 1_555 1_555
N3_5 Cu7 1_555 1_555
O2_4 Cu7 1_555 1_555
C5_5 C11_5 1_555 1_555
C10_5 C12_5 1_555 1_555
C21_5 C23_5 1_555 1_555
O14_2 C3_6 1_555 1_555
O17_2 C3_6 1_555 1_555
C3_6 C4_6 1_555 1_555
C4_6 C10_6 1_555 1_555
C5_6 H1_6 1_555 1_555
C6_6 C5_6 1_555 1_555
C10_6 H3_6 1_555 1_555
C11_6 C4_6 1_555 1_555
H4_6 C11_6 1_555 1_555
C12_6 C6_6 1_555 1_555
H5_6 C12_6 1_555 1_555
C13_7 N3_2 1_555 1_555
H6_7 C13_7 1_555 1_555
C14_7 N3_2 1_555 1_555
H7_7 C14_7 1_555 1_555
C21_6 H10_6 1_555 1_555
H12_6 C23_6 1_555 1_555
N2_7 C24_7 1_555 1_555
C24_7 C13_7 1_555 1_555
H13_7 C24_7 1_555 1_555
C25_7 C14_7 1_555 1_555
H14_7 C25_7 1_555 1_555
Cu8_4 O7_6 1_555 1_555
Cu8_2 N2_7 1_555 1_555
C5_6 C11_6 1_555 1_555
C10_6 C12_6 1_555 1_555
C21_6 C23_6 1_555 1_555
N2_7 C25_7 1_555 1_555
Cu11_5 O3_6 1_555 1_555
O3_6 C8_6 1_555 1_555
C1_6 C8_6 1_555 1_555
C2_6 C7_6 1_555 1_555
C8_6 O20_3 1_555 1_555
C9_6 C1_6 1_555 1_555
H2_6 C9_6 1_555 1_555
O4_10 Cu11_5 1_555 1_555
O5_6 C15_6 1_555 1_555
C15_6 C16_6 1_555 1_555
C17_6 H8_6 1_555 1_555
C18_6 C17_6 1_555 1_555
C19_6 C2_6 1_555 1_555
C20_6 C1_6 1_555 1_555
H9_6 C20_6 1_555 1_555
C22_6 C16_6 1_555 1_555
H11_6 C22_6 1_555 1_555
O21_6 Cu11_5 1_555 1_555
C7_6 C9_6 1_555 1_555
C17_6 C22_6 1_555 1_555
C18_6 C19_6 1_555 1_555
C19_6 C20_6 1_555 1_555
Cu2_6 O3_7 1_555 1_555
O3_7 C8_7 1_555 1_555
C1_7 C8_7 1_555 1_555
C2_7 C7_7 1_555 1_555
C8_7 O6_4 1_555 1_555
C9_7 C1_7 1_555 1_555
H2_7 C9_7 1_555 1_555
O4_11 Cu2_6 1_555 1_555
O5_7 C15_7 1_555 1_555
O6_4 Cu11_6 1_555 1_555
C15_7 C16_7 1_555 1_555
C17_7 H8_7 1_555 1_555
C18_7 C17_7 1_555 1_555
C19_7 C2_7 1_555 1_555
C20_7 C1_7 1_555 1_555
H9_7 C20_7 1_555 1_555
C22_7 C16_7 1_555 1_555
H11_7 C22_7 1_555 1_555
O15_4 C28_4 1_555 1_555
F2_4 C27_4 1_555 1_555
O18_4 C28_4 1_555 1_555
O10_4 Cu2_6 1_555 1_555
C26_4 C33_4 1_555 1_555
C27_4 C32_4 1_555 1_555
C28_4 C29_4 1_555 1_555
C29_4 C35_4 1_555 1_555
C30_4 H15_4 1_555 1_555
C31_4 C30_4 1_555 1_555
C32_4 C31_4 1_555 1_555
C33_4 O10_4 1_555 1_555
C34_4 C26_4 1_555 1_555
H16_4 C34_4 1_555 1_555
C35_4 H17_4 1_555 1_555
C36_4 C29_4 1_555 1_555
H18_4 C36_4 1_555 1_555
C37_4 C31_4 1_555 1_555
H19_4 C37_4 1_555 1_555
O15_3 C38_4 1_555 1_555
O12_4 C33_4 1_555 1_555
C38_4 C39_4 1_555 1_555
C39_4 C44_4 1_555 1_555
C40_4 H20_4 1_555 1_555
C41_4 C40_4 1_555 1_555
C42_4 C27_4 1_555 1_555
C43_4 C26_4 1_555 1_555
H21_4 C43_4 1_555 1_555
C44_4 H22_4 1_555 1_555
C45_4 C39_4 1_555 1_555
H23_4 C45_4 1_555 1_555
C46_4 C41_4 1_555 1_555
H24_4 C46_4 1_555 1_555
O18_3 C38_4 1_555 1_555
Cu11_6 Cu2_6 1_555 1_555
O20_4 Cu2_6 1_555 1_555
O21_7 Cu2_6 1_555 1_555
C7_7 C9_7 1_555 1_555
C17_7 C22_7 1_555 1_555
C18_7 C19_7 1_555 1_555
C19_7 C20_7 1_555 1_555
C30_4 C36_4 1_555 1_555
C32_4 C34_4 1_555 1_555
C35_4 C37_4 1_555 1_555
O12_4 Cu11_6 1_555 1_555
C40_4 C45_4 1_555 1_555
C41_4 C42_4 1_555 1_555
C42_4 C43_4 1_555 1_555
C44_4 C46_4 1_555 1_555
O14_4 C3_7 1_555 1_555
O17_4 C3_7 1_555 1_555
C3_7 C4_7 1_555 1_555
C4_7 C10_7 1_555 1_555
C5_7 H1_7 1_555 1_555
C6_7 C5_7 1_555 1_555
C10_7 H3_7 1_555 1_555
C11_7 C4_7 1_555 1_555
H4_7 C11_7 1_555 1_555
C12_7 C6_7 1_555 1_555
H5_7 C12_7 1_555 1_555
C13_8 N3_5 1_555 1_555
H6_8 C13_8 1_555 1_555
C14_8 N3_5 1_555 1_555
H7_8 C14_8 1_555 1_555
C21_7 H10_7 1_555 1_555
H12_7 C23_7 1_555 1_555
N2_8 C24_8 1_555 1_555
C24_8 C13_8 1_555 1_555
H13_8 C24_8 1_555 1_555
C25_8 C14_8 1_555 1_555
H14_8 C25_8 1_555 1_555
Cu9_4 O7_7 1_555 1_555
Cu8 N2_8 1_555 1_555
C5_7 C11_7 1_555 1_555
C10_7 C12_7 1_555 1_555
C21_7 C23_7 1_555 1_555
N2_8 C25_8 1_555 1_555
Cu11_6 O3_8 1_555 1_555
O14_3 C3_8 1_555 1_555
F1_8 C2_8 1_555 1_555
O17_3 C3_8 1_555 1_555
O3_8 C8_8 1_555 1_555
C1_8 C8_8 1_555 1_555
C2_8 C7_8 1_555 1_555
C3_8 C4_8 1_555 1_555
C4_8 C10_8 1_555 1_555
C5_8 H1_8 1_555 1_555
C6_8 C5_8 1_555 1_555
C7_8 C6_8 1_555 1_555
C8_8 O20_4 1_555 1_555
C9_8 C1_8 1_555 1_555
H2_8 C9_8 1_555 1_555
C10_8 H3_8 1_555 1_555
C11_8 C4_8 1_555 1_555
H4_8 C11_8 1_555 1_555
C12_8 C6_8 1_555 1_555
H5_8 C12_8 1_555 1_555
O4_12 Cu11_6 1_555 1_555
H7_9 C14_9 1_555 1_555
O5_8 C15_8 1_555 1_555
C15_8 C16_8 1_555 1_555
C16_8 C21_8 1_555 1_555
C17_8 H8_8 1_555 1_555
C18_8 C17_8 1_555 1_555
C19_8 C2_8 1_555 1_555
C20_8 C1_8 1_555 1_555
H9_8 C20_8 1_555 1_555
C21_8 H10_8 1_555 1_555
C22_8 C16_8 1_555 1_555
H11_8 C22_8 1_555 1_555
C23_8 C18_8 1_555 1_555
H12_8 C23_8 1_555 1_555
O7_8 C15_8 1_555 1_555
C25_9 C14_9 1_555 1_555
H14_9 C25_9 1_555 1_555
Cu10 O7_8 1_555 1_555
Cu8 O5_8 1_555 1_555
O21_8 Cu11_6 1_555 1_555
C5_8 C11_8 1_555 1_555
C7_8 C9_8 1_555 1_555
C10_8 C12_8 1_555 1_555
C17_8 C22_8 1_555 1_555
C18_8 C19_8 1_555 1_555
C19_8 C20_8 1_555 1_555
C21_8 C23_8 1_555 1_555
C13_9 N3_3 1_555 1_555
H6_9 C13_9 1_555 1_555
N2_9 C24_9 1_555 1_555
C24_9 C13_9 1_555 1_555
H13_9 C24_9 1_555 1_555
Cu8_3 N2_9 1_555 1_555
H7_10 C14_10 1_555 1_555
C25_10 C14_10 1_555 1_555
H14_10 C25_10 1_555 1_555
C13_10 N3_4 1_555 1_555
H6_10 C13_10 1_555 1_555
N2_10 C24_10 1_555 1_555
C24_10 C13_10 1_555 1_555
H13_10 C24_10 1_555 1_555
Cu8_4 N2_10 1_555 1_555
O19_3 Cu8_3 1_555 1_555
O18_5 Cu9_3 1_555 1_555
C35_5 H17_5 1_555 1_555
H19_5 C37_5 1_555 1_555
O11_2 C38_5 1_555 1_555
C38_5 C39_5 1_555 1_555
C39_5 C44_5 1_555 1_555
C40_5 H20_5 1_555 1_555
C41_5 C40_5 1_555 1_555
C44_5 H22_5 1_555 1_555
C45_5 C39_5 1_555 1_555
H23_5 C45_5 1_555 1_555
C46_5 C41_5 1_555 1_555
H24_5 C46_5 1_555 1_555
O13_2 C38_5 1_555 1_555
Cu8_2 O11_2 1_555 1_555
Cu9_2 O13_2 1_555 1_555
C35_5 C37_5 1_555 1_555
C40_5 C45_5 1_555 1_555
C44_5 C46_5 1_555 1_555
O16_3 C28_5 1_555 1_555
C26_5 C33_5 1_555 1_555
C27_5 C32_5 1_555 1_555
C28_5 C29_5 1_555 1_555
C30_5 H15_5 1_555 1_555
C31_5 C30_5 1_555 1_555
C32_5 C31_5 1_555 1_555
C33_5 O21_4 1_555 1_555
C34_5 C26_5 1_555 1_555
H16_5 C34_5 1_555 1_555
C36_5 C29_5 1_555 1_555
H18_5 C36_5 1_555 1_555
O21_6 C33_5 1_555 1_555
C42_5 C27_5 1_555 1_555
C43_5 C26_5 1_555 1_555
H21_5 C43_5 1_555 1_555
C30_5 C36_5 1_555 1_555
C32_5 C34_5 1_555 1_555
C42_5 C43_5 1_555 1_555
C26_6 C33_6 1_555 1_555
C27_6 C32_6 1_555 1_555
C33_6 O21_7 1_555 1_555
C34_6 C26_6 1_555 1_555
H16_6 C34_6 1_555 1_555
O15_5 C38_6 1_555 1_555
O21_8 C33_6 1_555 1_555
C38_6 C39_6 1_555 1_555
C40_6 H20_6 1_555 1_555
C41_6 C40_6 1_555 1_555
C42_6 C27_6 1_555 1_555
C43_6 C26_6 1_555 1_555
H21_6 C43_6 1_555 1_555
C45_6 C39_6 1_555 1_555
H23_6 C45_6 1_555 1_555
O15_6 Cu10 1_555 1_555
O16_4 Cu8 1_555 1_555
O18_6 Cu8 1_555 1_555
O19_4 Cu10 1_555 1_555
C32_6 C34_6 1_555 1_555
C40_6 C45_6 1_555 1_555
C41_6 C42_6 1_555 1_555
C42_6 C43_6 1_555 1_555
O16_4 C28_6 1_555 1_555
O19_4 C28_6 1_555 1_555
C28_6 C29_6 1_555 1_555
C29_6 C35_6 1_555 1_555
C30_6 H15_6 1_555 1_555
C31_6 C30_6 1_555 1_555
C35_6 H17_6 1_555 1_555
C36_6 C29_6 1_555 1_555
H18_6 C36_6 1_555 1_555
C37_6 C31_6 1_555 1_555
H19_6 C37_6 1_555 1_555
C44_6 H22_6 1_555 1_555
H24_6 C46_6 1_555 1_555
C30_6 C36_6 1_555 1_555
C35_6 C37_6 1_555 1_555
C44_6 C46_6 1_555 1_555
O8_2 C28_7 1_555 1_555
C26_7 C33_7 1_555 1_555
C27_7 C32_7 1_555 1_555
C28_7 C29_7 1_555 1_555
C30_7 H15_7 1_555 1_555
C31_7 C30_7 1_555 1_555
C32_7 C31_7 1_555 1_555
C33_7 O21 1_555 1_555
C34_7 C26_7 1_555 1_555
H16_7 C34_7 1_555 1_555
C36_7 C29_7 1_555 1_555
H18_7 C36_7 1_555 1_555
O21_5 C33_7 1_555 1_555
C42_7 C27_7 1_555 1_555
C43_7 C26_7 1_555 1_555
H21_7 C43_7 1_555 1_555
Cu9 O8_2 1_555 1_555
C30_7 C36_7 1_555 1_555
C32_7 C34_7 1_555 1_555
C42_7 C43_7 1_555 1_555
C35_7 H17_7 1_555 1_555
H19_7 C37_7 1_555 1_555
O15_6 C38_7 1_555 1_555
C38_7 C39_7 1_555 1_555
C39_7 C44_7 1_555 1_555
C40_7 H20_7 1_555 1_555
C41_7 C40_7 1_555 1_555
C44_7 H22_7 1_555 1_555
C45_7 C39_7 1_555 1_555
H23_7 C45_7 1_555 1_555
C46_7 C41_7 1_555 1_555
H24_7 C46_7 1_555 1_555
O18_6 C38_7 1_555 1_555
Cu10_2 O9_2 1_555 1_555
C35_7 C37_7 1_555 1_555
C40_7 C45_7 1_555 1_555
C44_7 C46_7 1_555 1_555
O18_7 Cu9 1_555 1_555
O15_7 Cu10_2 1_555 1_555
O15_8 Cu9_2 1_555 1_555
O18_8 Cu8_2 1_555 1_555
O15_8 C28_8 1_555 1_555
O18_8 C28_8 1_555 1_555
C28_8 C29_8 1_555 1_555
C29_8 C35_8 1_555 1_555
C30_8 H15_8 1_555 1_555
C31_8 C30_8 1_555 1_555
C35_8 H17_8 1_555 1_555
C36_8 C29_8 1_555 1_555
H18_8 C36_8 1_555 1_555
C37_8 C31_8 1_555 1_555
H19_8 C37_8 1_555 1_555
C44_8 H22_8 1_555 1_555
H24_8 C46_8 1_555 1_555
C30_8 C36_8 1_555 1_555
C35_8 C37_8 1_555 1_555
C44_8 C46_8 1_555 1_555
C26_8 C33_8 1_555 1_555
C27_8 C32_8 1_555 1_555
C33_8 O21_2 1_555 1_555
C34_8 C26_8 1_555 1_555
H16_8 C34_8 1_555 1_555
O15_7 C38_8 1_555 1_555
O21_3 C33_8 1_555 1_555
C38_8 C39_8 1_555 1_555
C40_8 H20_8 1_555 1_555
C41_8 C40_8 1_555 1_555
C42_8 C27_8 1_555 1_555
C43_8 C26_8 1_555 1_555
H21_8 C43_8 1_555 1_555
C45_8 C39_8 1_555 1_555
H23_8 C45_8 1_555 1_555
C32_8 C34_8 1_555 1_555
C40_8 C45_8 1_555 1_555
C41_8 C42_8 1_555 1_555
C42_8 C43_8 1_555 1_555

#END
