
###############################################################################
#
# This file contains modified crystal structure data generated from the
# MOF subset of the Cambridge Structural Database (CSD) v543 
# hosted by the Cambridge Crystallographic Data Centre (CCDC).
#
# This work is licensed under the Creative Commons
# Attribution-NonCommercial-ShareAlike 4.0 International License.
# To view a copy of this license, visit
# http://creativecommons.org/licenses/by-nc-sa/4.0/
# or send a letter to
# Creative Commons, PO Box 1866, Mountain View, CA 94042, USA.
#
# CIF created using the CSD Python API on 29 September 2022
# The structure has been converted into the P1 space group
# The structure has a 3D framework
# The original CSD entry OSOCEH is in the tetragonal crystal system
# The framework has been calculated to contain at least 10.0% void space
# The void calculation uses a probe of radius 1.32A, grid spacing 0.4
# H atom positions have been added when not included in the experimental data
# Generated hydrogen atom positions removed from atoms on special positions
#
###############################################################################

data_OSOCEH
_chemical_formula_moiety         '(C376 H260 Cl20 Cu25 N20 O102)n'
_symmetry_cell_setting           triclinic
_symmetry_space_group_name_H-M   'P 1'
_symmetry_Int_Tables_number      1
_space_group_name_Hall           'P 1'
loop_
_symmetry_equiv_pos_site_id
_symmetry_equiv_pos_as_xyz
1 x,y,z
_cell_length_a                   19.4287(2)
_cell_length_b                   19.4287(2)
_cell_length_c                   60.6746(10)
_cell_angle_alpha                90
_cell_angle_beta                 90
_cell_angle_gamma                90
_cell_volume                     22903.1
loop_
_atom_site_label
_atom_site_type_symbol
_atom_site_fract_x
_atom_site_fract_y
_atom_site_fract_z
Cu2 Cu 0.0000 0.43374(2) 0.49739(2)
N1 N 0.0000 0.32056(17) 0.49487(5)
Cl1 Cl -0.0000 0.31955(16) 0.45046(5)
C13 C -0.0000 0.2880(6) 0.47487(12)
C14 C 0.0000 0.2854(3) 0.51402(9)
H7 H 0.0000 0.3097 0.5276
N2 N 0.0000 0.17944(17) 0.49487(5)
Cl2 Cl -0.0000 0.18045(16) 0.45046(5)
C24 C -0.0000 0.2120(6) 0.47487(12)
C25 C 0.0000 0.2146(3) 0.51402(9)
H13 H 0.0000 0.1903 0.5276
Cu3 Cu 0.0000 0.56626(2) 0.50261(2)
Cu10 Cu 0.0000 0.06626(2) 0.49739(2)
O17 O 0.07010(10) 0.55032(10) 0.52511(3)
O18 O 0.07010(10) 0.44968(10) 0.47489(3)
N3 N 0.0000 0.67944(17) 0.50513(5)
O20 O 0.07112(12) 0.43569(10) 0.52040(3)
O21 O 0.07112(12) 0.56431(10) 0.47960(3)
Cu1 Cu 0.5000 0.7500 0.39691(2)
Cu2_2 Cu 1.0000 0.43374(2) 0.49739(2)
O1 O 0.57133(11) 0.67916(10) 0.39355(3)
O2 O 0.92990(10) 0.44968(10) 0.47489(3)
N1_2 N 1.0000 0.32056(17) 0.49487(5)
O3 O 0.92888(12) 0.56431(10) 0.47960(3)
O4 O 0.5000 0.7500 0.43217(6)
C1 C 0.86380(15) 0.51767(15) 0.45082(4)
C2 C 0.64570(14) 0.60430(14) 0.3750
C3 C 0.91134(15) 0.50945(14) 0.46996(4)
C4 C 0.68579(16) 0.59374(17) 0.39377(4)
H1 H 0.6783 0.6211 0.4065
C5 C 0.74701(14) 0.50299(14) 0.3750
H2 H 0.7816 0.4684 0.3750
C6 C 0.84368(18) 0.58330(16) 0.44418(5)
H3 H 0.8586 0.6225 0.4522
C7 C 0.73671(19) 0.54325(17) 0.39388(4)
C8 C 0.59107(13) 0.65893(13) 0.3750
C9 C 0.78106(17) 0.53424(16) 0.41373(5)
C10 C 0.80176(18) 0.59138(16) 0.42577(5)
H4 H 0.7873 0.6361 0.4214
C11 C 0.80040(17) 0.46904(16) 0.42030(5)
H5 H 0.7855 0.4300 0.4122
C12 C 0.84206(16) 0.46032(16) 0.43898(5)
H6 H 0.8554 0.4155 0.4435
Cl1_2 Cl 1.0000 0.31955(16) 0.45046(5)
C13_2 C 1.0000 0.2880(6) 0.47487(12)
C14_2 C 1.0000 0.2854(3) 0.51402(9)
H7_2 H 1.0000 0.3097 0.5276
O5 O 0.57084(10) 0.67867(11) 0.35645(3)
O6 O 0.80032(10) 0.32010(10) 0.27511(3)
O7 O 0.68569(10) 0.32112(12) 0.27040(3)
C15 C 0.73233(15) 0.38620(15) 0.29918(4)
C16 C 0.74055(14) 0.33866(15) 0.28004(4)
C17 C 0.65626(17) 0.56421(16) 0.35623(4)
H8 H 0.6289 0.5717 0.3435
C18 C 0.66670(16) 0.40632(18) 0.30582(5)
H9 H 0.6275 0.3914 0.2978
C19 C 0.70675(17) 0.51329(19) 0.35612(4)
C20 C 0.71576(16) 0.46894(17) 0.33627(5)
C21 C 0.65862(16) 0.44824(18) 0.32423(5)
H10 H 0.6139 0.4627 0.3286
C22 C 0.78096(16) 0.44960(17) 0.32970(5)
H11 H 0.8200 0.4645 0.3378
C23 C 0.78968(16) 0.40794(16) 0.31102(5)
H12 H 0.8345 0.3946 0.3065
N2_2 N 1.0000 0.17944(17) 0.49487(5)
Cl2_2 Cl 1.0000 0.18045(16) 0.45046(5)
C24_2 C 1.0000 0.2120(6) 0.47487(12)
C25_2 C 1.0000 0.2146(3) 0.51402(9)
H13_2 H 1.0000 0.1903 0.5276
Cu3_2 Cu 1.0000 0.56626(2) 0.50261(2)
O8 O 0.42867(11) 0.67916(10) 0.39355(3)
C26 C 0.13620(15) 0.51767(15) 0.45082(4)
C27 C 0.35430(14) 0.60430(14) 0.3750
C28 C 0.08866(15) 0.50945(14) 0.46996(4)
C29 C 0.31421(16) 0.59374(17) 0.39377(4)
H14 H 0.3217 0.6211 0.4065
C30 C 0.25299(14) 0.50299(14) 0.3750
H15 H 0.2184 0.4684 0.3750
C31 C 0.15632(18) 0.58330(16) 0.44418(5)
H16 H 0.1414 0.6225 0.4522
C32 C 0.26329(19) 0.54325(17) 0.39388(4)
C33 C 0.40893(13) 0.65893(13) 0.3750
C34 C 0.21894(17) 0.53424(16) 0.41373(5)
C35 C 0.19824(18) 0.59138(16) 0.42577(5)
H17 H 0.2127 0.6361 0.4214
C36 C 0.19960(17) 0.46904(16) 0.42030(5)
H18 H 0.2145 0.4300 0.4122
C37 C 0.15794(16) 0.46032(16) 0.43898(5)
H19 H 0.1446 0.4155 0.4435
O11 O 0.42916(10) 0.67867(11) 0.35645(3)
O12 O 0.19968(10) 0.32010(10) 0.27511(3)
O13 O 0.31431(10) 0.32112(12) 0.27040(3)
C38 C 0.26767(15) 0.38620(15) 0.29918(4)
C39 C 0.25945(14) 0.33866(15) 0.28004(4)
C40 C 0.34374(17) 0.56421(16) 0.35623(4)
H20 H 0.3711 0.5717 0.3435
C41 C 0.33330(16) 0.40632(18) 0.30582(5)
H21 H 0.3725 0.3914 0.2978
C42 C 0.29325(17) 0.51329(19) 0.35612(4)
C43 C 0.28424(16) 0.46894(17) 0.33627(5)
C44 C 0.34138(16) 0.44824(18) 0.32423(5)
H22 H 0.3861 0.4627 0.3286
C45 C 0.21904(16) 0.44960(17) 0.32970(5)
H23 H 0.1800 0.4645 0.3378
C46 C 0.21032(16) 0.40794(16) 0.31102(5)
H24 H 0.1655 0.3946 0.3065
Cu4 Cu 0.5000 0.7500 0.35309(2)
Cu7 Cu 0.81626(2) 0.2500 0.25261(2)
Cu8 Cu 0.68374(2) 0.2500 0.24739(2)
Cu9 Cu 0.31626(2) 0.2500 0.24739(2)
Cu10_2 Cu 1.0000 0.06626(2) 0.49739(2)
Cu11 Cu 0.18374(2) 0.2500 0.25261(2)
O14 O 0.42867(11) 0.82084(10) 0.39355(3)
O15 O 0.57133(11) 0.82084(10) 0.39355(3)
O16 O 0.92990(10) 0.55032(10) 0.52511(3)
N3_2 N 1.0000 0.67944(17) 0.50513(5)
O19 O 0.92888(12) 0.43569(10) 0.52040(3)
N2_3 N 0.07056(17) 0.7500 0.74487(5)
Cl2_3 Cl 0.06955(16) 0.7500 0.70046(5)
C24_3 C 0.0380(6) 0.7500 0.72487(12)
C25_3 C 0.0354(3) 0.7500 0.76402(9)
H13_3 H 0.0597 0.7500 0.7776
Cu10_3 Cu 0.18374(2) 0.7500 0.74739(2)
Cu11_2 Cu 0.0000 0.93374(2) 0.50261(2)
Cu1_2 Cu 0.5000 0.2500 0.64691(2)
Cu2_3 Cu 0.81626(2) 0.7500 0.74739(2)
O1_2 O 0.57084(10) 0.32133(11) 0.64355(3)
O2_2 O 0.80032(10) 0.67990(10) 0.72489(3)
N1_3 N 0.92944(17) 0.7500 0.74487(5)
O3_2 O 0.68569(10) 0.67888(12) 0.72960(3)
O4_2 O 0.5000 0.2500 0.68217(6)
C1_2 C 0.73233(15) 0.61380(15) 0.70082(4)
C2_2 C 0.64570(14) 0.39570(14) 0.6250
C3_2 C 0.74055(14) 0.66134(15) 0.71996(4)
C4_2 C 0.65626(17) 0.43579(16) 0.64377(4)
H1_2 H 0.6289 0.4283 0.6565
C5_2 C 0.74701(14) 0.49701(14) 0.6250
H2_2 H 0.7816 0.5316 0.6250
C6_2 C 0.66670(16) 0.59368(18) 0.69418(5)
H3_2 H 0.6275 0.6086 0.7022
C7_2 C 0.70675(17) 0.48671(19) 0.64388(4)
C8_2 C 0.59107(13) 0.34107(13) 0.6250
C9_2 C 0.71576(16) 0.53106(17) 0.66373(5)
C10_2 C 0.65862(16) 0.55176(18) 0.67577(5)
H4_2 H 0.6139 0.5373 0.6714
C11_2 C 0.78096(16) 0.55040(17) 0.67030(5)
H5_2 H 0.8200 0.5355 0.6622
C12_2 C 0.78968(16) 0.59206(16) 0.68898(5)
H6_2 H 0.8345 0.6054 0.6935
Cl1_3 Cl 0.93045(16) 0.7500 0.70046(5)
C13_3 C 0.9620(6) 0.7500 0.72487(12)
C14_3 C 0.9646(3) 0.7500 0.76402(9)
H7_3 H 0.9403 0.7500 0.7776
O5_2 O 0.57133(11) 0.32084(10) 0.60645(3)
C15_2 C 0.86380(15) 0.48233(15) 0.54918(4)
C16_2 C 0.91134(15) 0.49055(14) 0.53004(4)
C17_2 C 0.68579(16) 0.40626(17) 0.60623(4)
H8_2 H 0.6783 0.3789 0.5935
C18_2 C 0.84368(18) 0.41670(16) 0.55582(5)
H9_2 H 0.8586 0.3775 0.5478
C19_2 C 0.73671(19) 0.45675(17) 0.60612(4)
C20_2 C 0.78106(17) 0.46576(16) 0.58627(5)
C21_2 C 0.80176(18) 0.40862(16) 0.57423(5)
H10_2 H 0.7873 0.3639 0.5786
C22_2 C 0.80040(17) 0.53096(16) 0.57970(5)
H11_2 H 0.7855 0.5700 0.5878
C23_2 C 0.84206(16) 0.53968(16) 0.56102(5)
H12_2 H 0.8554 0.5845 0.5565
Cu3_3 Cu 0.68374(2) 0.7500 0.75261(2)
O8_2 O 0.57084(10) 0.17867(11) 0.64355(3)
C27_2 C 0.64570(14) 0.10430(14) 0.6250
C29_2 C 0.65626(17) 0.06421(16) 0.64377(4)
H14_2 H 0.6289 0.0717 0.6565
C30_2 C 0.74701(14) 0.00299(14) 0.6250
C32_2 C 0.70675(17) 0.01329(19) 0.64388(4)
C33_2 C 0.59107(13) 0.15893(13) 0.6250
O11_2 O 0.57133(11) 0.17916(10) 0.60645(3)
O13_2 O 0.92888(12) 0.06431(10) 0.52040(3)
C38_2 C 0.86380(15) 0.01767(15) 0.54918(4)
C39_2 C 0.91134(15) 0.00945(14) 0.53004(4)
C40_2 C 0.68579(16) 0.09374(17) 0.60623(4)
H20_2 H 0.6783 0.1211 0.5935
C41_2 C 0.84368(18) 0.08330(16) 0.55582(5)
H21_2 H 0.8586 0.1225 0.5478
C42_2 C 0.73671(19) 0.04325(17) 0.60612(4)
C43_2 C 0.78106(17) 0.03424(16) 0.58627(5)
C44_2 C 0.80176(18) 0.09138(16) 0.57423(5)
H22_2 H 0.7873 0.1361 0.5786
Cu4_2 Cu 0.5000 0.2500 0.60309(2)
O14_2 O 0.42916(10) 0.17867(11) 0.64355(3)
O15_2 O 0.42916(10) 0.32133(11) 0.64355(3)
O16_2 O 0.69968(10) 0.67990(10) 0.77511(3)
O17_2 O 0.69968(10) 0.82010(10) 0.77511(3)
O18_2 O 0.80032(10) 0.82010(10) 0.72489(3)
N3_3 N 0.57056(17) 0.7500 0.75513(5)
O19_2 O 0.81431(10) 0.67888(12) 0.77040(3)
O20_2 O 0.81431(10) 0.82112(12) 0.77040(3)
O21_2 O 0.68569(10) 0.82112(12) 0.72960(3)
C26_2 C 0.73233(15) 0.88620(15) 0.70082(4)
C28_2 C 0.74055(14) 0.83866(15) 0.71996(4)
H15_2 H 0.7816 0.9684 0.6250
C31_2 C 0.66670(16) 0.90632(18) 0.69418(5)
H16_2 H 0.6275 0.8914 0.7022
C34_2 C 0.71576(16) 0.96894(17) 0.66373(5)
C35_2 C 0.65862(16) 0.94824(18) 0.67577(5)
H17_2 H 0.6139 0.9627 0.6714
C36_2 C 0.78096(16) 0.94960(17) 0.67030(5)
H18_2 H 0.8200 0.9645 0.6622
C37_2 C 0.78968(16) 0.90794(16) 0.68898(5)
H19_2 H 0.8345 0.8946 0.6935
O12_2 O 0.92990(10) 0.94968(10) 0.52511(3)
C45_2 C 0.80040(17) 0.96904(16) 0.57970(5)
H23_2 H 0.7855 0.9300 0.5878
C46_2 C 0.84206(16) 0.96032(16) 0.56102(5)
H24_2 H 0.8554 0.9155 0.5565
Cu11_3 Cu 1.0000 0.93374(2) 0.50261(2)
Cl1_4 Cl -0.0000 0.68045(16) 0.54954(5)
C13_4 C -0.0000 0.7120(6) 0.52513(12)
C14_4 C 0.0000 0.7146(3) 0.48598(9)
H7_4 H 0.0000 0.6903 0.4724
N2_4 N 0.0000 0.82056(17) 0.50513(5)
Cl2_4 Cl -0.0000 0.81955(16) 0.54954(5)
C24_4 C -0.0000 0.7880(6) 0.52513(12)
C25_4 C 0.0000 0.7854(3) 0.48598(9)
H13_4 H 0.0000 0.8097 0.4724
O4_3 O 0.5000 0.2500 0.56783(6)
Cl1_5 Cl 1.0000 0.68045(16) 0.54954(5)
C13_5 C 1.0000 0.7120(6) 0.52513(12)
C14_5 C 1.0000 0.7146(3) 0.48598(9)
H7_5 H 1.0000 0.6903 0.4724
N2_5 N 1.0000 0.82056(17) 0.50513(5)
Cl2_5 Cl 1.0000 0.81955(16) 0.54954(5)
C24_5 C 1.0000 0.7880(6) 0.52513(12)
C25_5 C 1.0000 0.7854(3) 0.48598(9)
H13_5 H 1.0000 0.8097 0.4724
O8_3 O 0.42867(11) 0.32084(10) 0.60645(3)
C26_3 C 0.13620(15) 0.48233(15) 0.54918(4)
C27_3 C 0.35430(14) 0.39570(14) 0.6250
C28_3 C 0.08866(15) 0.49055(14) 0.53004(4)
C29_3 C 0.31421(16) 0.40626(17) 0.60623(4)
H14_3 H 0.3217 0.3789 0.5935
C30_3 C 0.25299(14) 0.49701(14) 0.6250
H15_3 H 0.2184 0.5316 0.6250
C31_3 C 0.15632(18) 0.41670(16) 0.55582(5)
H16_3 H 0.1414 0.3775 0.5478
C32_3 C 0.26329(19) 0.45675(17) 0.60612(4)
C33_3 C 0.40893(13) 0.34107(13) 0.6250
C34_3 C 0.21894(17) 0.46576(16) 0.58627(5)
C35_3 C 0.19824(18) 0.40862(16) 0.57423(5)
H17_3 H 0.2127 0.3639 0.5786
C36_3 C 0.19960(17) 0.53096(16) 0.57970(5)
H18_3 H 0.2145 0.5700 0.5878
C37_3 C 0.15794(16) 0.53968(16) 0.56102(5)
H19_3 H 0.1446 0.5845 0.5565
O12_3 O 0.19968(10) 0.67990(10) 0.72489(3)
O13_3 O 0.31431(10) 0.67888(12) 0.72960(3)
C38_3 C 0.26767(15) 0.61380(15) 0.70082(4)
C39_3 C 0.25945(14) 0.66134(15) 0.71996(4)
C40_3 C 0.34374(17) 0.43579(16) 0.64377(4)
H20_3 H 0.3711 0.4283 0.6565
C41_3 C 0.33330(16) 0.59368(18) 0.69418(5)
H21_3 H 0.3725 0.6086 0.7022
C42_3 C 0.29325(17) 0.48671(19) 0.64388(4)
C43_3 C 0.28424(16) 0.53106(17) 0.66373(5)
C44_3 C 0.34138(16) 0.55176(18) 0.67577(5)
H22_3 H 0.3861 0.5373 0.6714
C45_3 C 0.21904(16) 0.55040(17) 0.67030(5)
H23_3 H 0.1800 0.5355 0.6622
C46_3 C 0.21032(16) 0.59206(16) 0.68898(5)
H24_3 H 0.1655 0.6054 0.6935
Cu9_2 Cu 0.31626(2) 0.7500 0.75261(2)
O14_3 O 0.42867(11) 0.17916(10) 0.60645(3)
Cu6 Cu 0.5000 0.43374(2) 0.00261(2)
Cu1_3 Cu -0.0000 0.2500 0.89691(2)
O4_4 O -0.0000 0.2500 0.93217(6)
O8_4 O 0.07133(11) 0.32084(10) 0.89355(3)
O9 O 0.42990(10) 0.55032(10) 0.97489(3)
O10 O 0.42888(12) 0.43569(10) 0.97960(3)
C26_4 C 0.36380(15) 0.48233(15) 0.95082(4)
C27_4 C 0.14570(14) 0.39570(14) 0.8750
C28_4 C 0.41134(15) 0.49055(14) 0.96996(4)
C29_4 C 0.18579(16) 0.40626(17) 0.89377(4)
H14_4 H 0.1783 0.3789 0.9065
C30_4 C 0.24701(14) 0.49701(14) 0.8750
H15_4 H 0.2816 0.5316 0.8750
C31_4 C 0.34368(18) 0.41670(16) 0.94418(5)
H16_4 H 0.3586 0.3775 0.9522
C32_4 C 0.23671(19) 0.45675(17) 0.89388(4)
C33_4 C 0.09107(13) 0.34107(13) 0.8750
C34_4 C 0.28106(17) 0.46576(16) 0.91373(5)
C35_4 C 0.30176(18) 0.40862(16) 0.92577(5)
H17_4 H 0.2873 0.3639 0.9214
C36_4 C 0.30040(17) 0.53096(16) 0.92030(5)
H18_4 H 0.2855 0.5700 0.9122
C37_4 C 0.34206(16) 0.53968(16) 0.93898(5)
H19_4 H 0.3554 0.5845 0.9435
O11_3 O 0.07084(10) 0.32133(11) 0.85645(3)
O12_4 O 0.30032(10) 0.67990(10) 0.77511(3)
O13_4 O 0.18569(10) 0.67888(12) 0.77040(3)
C38_4 C 0.23233(15) 0.61380(15) 0.79918(4)
C39_4 C 0.24055(14) 0.66134(15) 0.78004(4)
C40_4 C 0.15626(17) 0.43579(16) 0.85623(4)
H20_4 H 0.1289 0.4283 0.8435
C41_4 C 0.16670(16) 0.59368(18) 0.80582(5)
H21_4 H 0.1275 0.6086 0.7978
C42_4 C 0.20675(17) 0.48671(19) 0.85612(4)
C43_4 C 0.21576(16) 0.53106(17) 0.83627(5)
C44_4 C 0.15862(16) 0.55176(18) 0.82423(5)
H22_4 H 0.1139 0.5373 0.8286
C45_4 C 0.28096(16) 0.55040(17) 0.82970(5)
H23_4 H 0.3200 0.5355 0.8378
C46_4 C 0.28968(16) 0.59206(16) 0.81102(5)
H24_4 H 0.3345 0.6054 0.8065
Cu4_3 Cu -0.0000 0.2500 0.85309(2)
Cu5 Cu 0.5000 0.56626(2) 0.99739(2)
O14_4 O 0.07133(11) 0.17916(10) 0.89355(3)
C14_6 C 0.5000 0.7146(3) 0.01402(9)
H7_6 H 0.5000 0.6903 0.0276
C25_6 C 0.5000 0.7854(3) 0.01402(9)
H13_6 H 0.5000 0.8097 0.0276
O16_3 O 0.57010(10) 0.44968(10) 0.02511(3)
O17_3 O 0.42990(10) 0.44968(10) 0.02511(3)
N3_4 N 0.5000 0.32056(17) 0.00513(5)
O19_3 O 0.57112(12) 0.56431(10) 0.02040(3)
O20_3 O 0.42888(12) 0.56431(10) 0.02040(3)
Cu1_4 Cu 1.0000 0.2500 0.89691(2)
O1_3 O 0.92867(11) 0.32084(10) 0.89355(3)
O2_3 O 0.57010(10) 0.55032(10) 0.97489(3)
N1_4 N 0.5000 0.67944(17) 0.99487(5)
O3_3 O 0.57112(12) 0.43569(10) 0.97960(3)
O4_5 O 1.0000 0.2500 0.93217(6)
C1_3 C 0.63620(15) 0.48233(15) 0.95082(4)
C2_3 C 0.85430(14) 0.39570(14) 0.8750
C3_3 C 0.58866(15) 0.49055(14) 0.96996(4)
C4_3 C 0.81421(16) 0.40626(17) 0.89377(4)
H1_3 H 0.8217 0.3789 0.9065
C5_3 C 0.75299(14) 0.49701(14) 0.8750
H2_3 H 0.7184 0.5316 0.8750
C6_3 C 0.65632(18) 0.41670(16) 0.94418(5)
H3_3 H 0.6414 0.3775 0.9522
C7_3 C 0.76329(19) 0.45675(17) 0.89388(4)
C8_3 C 0.90893(13) 0.34107(13) 0.8750
C9_3 C 0.71894(17) 0.46576(16) 0.91373(5)
C10_3 C 0.69824(18) 0.40862(16) 0.92577(5)
H4_3 H 0.7127 0.3639 0.9214
C11_3 C 0.69960(17) 0.53096(16) 0.92030(5)
H5_3 H 0.7145 0.5700 0.9122
C12_3 C 0.65794(16) 0.53968(16) 0.93898(5)
H6_3 H 0.6446 0.5845 0.9435
Cl1_6 Cl 0.5000 0.68045(16) 0.95046(5)
C13_6 C 0.5000 0.7120(6) 0.97487(12)
O5_3 O 0.92916(10) 0.32133(11) 0.85645(3)
C15_3 C 0.76767(15) 0.61380(15) 0.79918(4)
C16_3 C 0.75945(14) 0.66134(15) 0.78004(4)
C17_3 C 0.84374(17) 0.43579(16) 0.85623(4)
H8_3 H 0.8711 0.4283 0.8435
C18_3 C 0.83330(16) 0.59368(18) 0.80582(5)
H9_3 H 0.8725 0.6086 0.7978
C19_3 C 0.79325(17) 0.48671(19) 0.85612(4)
C20_3 C 0.78424(16) 0.53106(17) 0.83627(5)
C21_3 C 0.84138(16) 0.55176(18) 0.82423(5)
H10_3 H 0.8861 0.5373 0.8286
C22_3 C 0.71904(16) 0.55040(17) 0.82970(5)
H11_3 H 0.6800 0.5355 0.8378
C23_3 C 0.71032(16) 0.59206(16) 0.81102(5)
H12_3 H 0.6655 0.6054 0.8065
N2_6 N 0.5000 0.82056(17) 0.99487(5)
Cl2_6 Cl 0.5000 0.81955(16) 0.95046(5)
C24_6 C 0.5000 0.7880(6) 0.97487(12)
Cu4_4 Cu 1.0000 0.2500 0.85309(2)
Cu10_4 Cu 0.5000 0.93374(2) 0.99739(2)
O15_3 O 0.92867(11) 0.17916(10) 0.89355(3)
N2_7 N 0.07056(17) 0.2500 0.25513(5)
Cl2_7 Cl 0.06955(16) 0.2500 0.29954(5)
C24_7 C 0.0380(6) 0.2500 0.27513(12)
C25_7 C 0.0354(3) 0.2500 0.23598(9)
H13_7 H 0.0597 0.2500 0.2224
O9_2 O 0.80032(10) 0.17990(10) 0.27511(3)
O10_2 O 0.68569(10) 0.17888(12) 0.27040(3)
C26_5 C 0.73233(15) 0.11380(15) 0.29918(4)
C28_5 C 0.74055(14) 0.16134(15) 0.28004(4)
H15_5 H 0.7816 0.0316 0.3750
C31_5 C 0.66670(16) 0.09368(18) 0.30582(5)
H16_5 H 0.6275 0.1086 0.2978
C34_5 C 0.71576(16) 0.03106(17) 0.33627(5)
C35_5 C 0.65862(16) 0.05176(18) 0.32423(5)
H17_5 H 0.6139 0.0373 0.3286
C36_5 C 0.78096(16) 0.05040(17) 0.32970(5)
H18_5 H 0.8200 0.0355 0.3378
C37_5 C 0.78968(16) 0.09206(16) 0.31102(5)
H19_5 H 0.8345 0.1054 0.3065
O12_5 O 0.92990(10) 0.05032(10) 0.47489(3)
C45_5 C 0.80040(17) 0.03096(16) 0.42030(5)
H23_5 H 0.7855 0.0700 0.4122
C46_5 C 0.84206(16) 0.03968(16) 0.43898(5)
H24_5 H 0.8554 0.0845 0.4435
N1_5 N 0.92944(17) 0.2500 0.25513(5)
O4_6 O 0.5000 0.7500 0.31783(6)
Cl1_7 Cl 0.93045(16) 0.2500 0.29954(5)
C13_7 C 0.9620(6) 0.2500 0.27513(12)
C14_7 C 0.9646(3) 0.2500 0.23598(9)
H7_7 H 0.9403 0.2500 0.2224
O8_5 O 0.57084(10) 0.82133(11) 0.35645(3)
C27_5 C 0.64570(14) 0.89570(14) 0.3750
C29_5 C 0.65626(17) 0.93579(16) 0.35623(4)
H14_5 H 0.6289 0.9283 0.3435
C30_5 C 0.74701(14) 0.99701(14) 0.3750
C32_5 C 0.70675(17) 0.98671(19) 0.35612(4)
C33_5 C 0.59107(13) 0.84107(13) 0.3750
O13_5 O 0.92888(12) 0.93569(10) 0.47960(3)
C38_5 C 0.86380(15) 0.98233(15) 0.45082(4)
C39_5 C 0.91134(15) 0.99055(14) 0.46996(4)
C40_5 C 0.68579(16) 0.90626(17) 0.39377(4)
H20_5 H 0.6783 0.8789 0.4065
C41_5 C 0.84368(18) 0.91670(16) 0.44418(5)
H21_5 H 0.8586 0.8775 0.4522
C42_5 C 0.73671(19) 0.95675(17) 0.39388(4)
C43_5 C 0.78106(17) 0.96576(16) 0.41373(5)
C44_5 C 0.80176(18) 0.90862(16) 0.42577(5)
H22_5 H 0.7873 0.8639 0.4214
O14_5 O 0.42916(10) 0.82133(11) 0.35645(3)
O16_4 O 0.69968(10) 0.32010(10) 0.22489(3)
O17_4 O 0.69968(10) 0.17990(10) 0.22489(3)
N3_5 N 0.57056(17) 0.2500 0.24487(5)
O19_4 O 0.81431(10) 0.32112(12) 0.22960(3)
O20_4 O 0.81431(10) 0.17888(12) 0.22960(3)
O4_7 O 0.0000 0.2500 0.81783(6)
O14_6 O 0.07084(10) 0.17867(11) 0.85645(3)
Cu9_3 Cu 0.5000 0.06626(2) 0.00261(2)
O4_8 O 1.0000 0.2500 0.81783(6)
Cl1_8 Cl 0.56955(16) 0.7500 0.79954(5)
C13_8 C 0.5380(6) 0.7500 0.77513(12)
C14_8 C 0.5354(3) 0.7500 0.73598(9)
H7_8 H 0.5597 0.7500 0.7224
N2_8 N 0.42944(17) 0.7500 0.75513(5)
Cl2_8 Cl 0.43045(16) 0.7500 0.79954(5)
C24_8 C 0.4620(6) 0.7500 0.77513(12)
C25_8 C 0.4646(3) 0.7500 0.73598(9)
H13_8 H 0.4403 0.7500 0.7224
O8_6 O 0.92916(10) 0.17867(11) 0.85645(3)
C27_6 C 0.85430(14) 0.10430(14) 0.8750
C29_6 C 0.84374(17) 0.06421(16) 0.85623(4)
H14_6 H 0.8711 0.0717 0.8435
C30_6 C 0.75299(14) 0.00299(14) 0.8750
C32_6 C 0.79325(17) 0.01329(19) 0.85612(4)
C33_6 C 0.90893(13) 0.15893(13) 0.8750
O13_6 O 0.57112(12) 0.06431(10) 0.97960(3)
C38_6 C 0.63620(15) 0.01767(15) 0.95082(4)
C39_6 C 0.58866(15) 0.00945(14) 0.96996(4)
C40_6 C 0.81421(16) 0.09374(17) 0.89377(4)
H20_6 H 0.8217 0.1211 0.9065
C41_6 C 0.65632(18) 0.08330(16) 0.94418(5)
H21_6 H 0.6414 0.1225 0.9522
C42_6 C 0.76329(19) 0.04325(17) 0.89388(4)
C43_6 C 0.71894(17) 0.03424(16) 0.91373(5)
C44_6 C 0.69824(18) 0.09138(16) 0.92577(5)
H22_6 H 0.7127 0.1361 0.9214
C26_6 C 0.76767(15) 0.88620(15) 0.79918(4)
C28_6 C 0.75945(14) 0.83866(15) 0.78004(4)
H15_6 H 0.7184 0.9684 0.8750
C31_6 C 0.83330(16) 0.90632(18) 0.80582(5)
H16_6 H 0.8725 0.8914 0.7978
C34_6 C 0.78424(16) 0.96894(17) 0.83627(5)
C35_6 C 0.84138(16) 0.94824(18) 0.82423(5)
H17_6 H 0.8861 0.9627 0.8286
C36_6 C 0.71904(16) 0.94960(17) 0.82970(5)
H18_6 H 0.6800 0.9645 0.8378
C37_6 C 0.71032(16) 0.90794(16) 0.81102(5)
H19_6 H 0.6655 0.8946 0.8065
O12_6 O 0.57010(10) 0.94968(10) 0.97489(3)
C45_6 C 0.69960(17) 0.96904(16) 0.92030(5)
H23_6 H 0.7145 0.9300 0.9122
C46_6 C 0.65794(16) 0.96032(16) 0.93898(5)
H24_6 H 0.6446 0.9155 0.9435
Cu1_5 Cu 0.0000 0.7500 0.14691(2)
O4_9 O 0.0000 0.7500 0.18217(6)
Cu4_5 Cu 0.0000 0.7500 0.10309(2)
O14_7 O 0.07084(10) 0.82133(11) 0.14355(3)
O15_4 O 0.07084(10) 0.67867(11) 0.14355(3)
C26_7 C 0.76767(15) 0.11380(15) 0.20082(4)
C28_7 C 0.75945(14) 0.16134(15) 0.21996(4)
H15_7 H 0.7184 0.0316 0.1250
C31_7 C 0.83330(16) 0.09368(18) 0.19418(5)
H16_7 H 0.8725 0.1086 0.2022
C34_7 C 0.78424(16) 0.03106(17) 0.16373(5)
C35_7 C 0.84138(16) 0.05176(18) 0.17577(5)
H17_7 H 0.8861 0.0373 0.1714
C36_7 C 0.71904(16) 0.05040(17) 0.17030(5)
H18_7 H 0.6800 0.0355 0.1622
C37_7 C 0.71032(16) 0.09206(16) 0.18898(5)
H19_7 H 0.6655 0.1054 0.1935
O12_7 O 0.57010(10) 0.05032(10) 0.02511(3)
C45_7 C 0.69960(17) 0.03096(16) 0.07970(5)
H23_7 H 0.7145 0.0700 0.0878
C46_7 C 0.65794(16) 0.03968(16) 0.06102(5)
H24_7 H 0.6446 0.0845 0.0565
Cu1_6 Cu 1.0000 0.7500 0.14691(2)
O1_4 O 0.92916(10) 0.67867(11) 0.14355(3)
O4_10 O 1.0000 0.7500 0.18217(6)
C1_4 C 0.76767(15) 0.38620(15) 0.20082(4)
C2_4 C 0.85430(14) 0.60430(14) 0.1250
C3_4 C 0.75945(14) 0.33866(15) 0.21996(4)
C4_4 C 0.84374(17) 0.56421(16) 0.14377(4)
H1_4 H 0.8711 0.5717 0.1565
C5_4 C 0.75299(14) 0.50299(14) 0.1250
H2_4 H 0.7184 0.4684 0.1250
C6_4 C 0.83330(16) 0.40632(18) 0.19418(5)
H3_4 H 0.8725 0.3914 0.2022
C7_4 C 0.79325(17) 0.51329(19) 0.14388(4)
C8_4 C 0.90893(13) 0.65893(13) 0.1250
C9_4 C 0.78424(16) 0.46894(17) 0.16373(5)
C10_4 C 0.84138(16) 0.44824(18) 0.17577(5)
H4_4 H 0.8861 0.4627 0.1714
C11_4 C 0.71904(16) 0.44960(17) 0.17030(5)
H5_4 H 0.6800 0.4645 0.1622
C12_4 C 0.71032(16) 0.40794(16) 0.18898(5)
H6_4 H 0.6655 0.3946 0.1935
Cl1_9 Cl 0.56955(16) 0.2500 0.20046(5)
C13_9 C 0.5380(6) 0.2500 0.22487(12)
C14_9 C 0.5354(3) 0.2500 0.26402(9)
H7_9 H 0.5597 0.2500 0.2776
O5_4 O 0.92867(11) 0.67916(10) 0.10645(3)
C15_4 C 0.63620(15) 0.51767(15) 0.04918(4)
C16_4 C 0.58866(15) 0.50945(14) 0.03004(4)
C17_4 C 0.81421(16) 0.59374(17) 0.10623(4)
H8_4 H 0.8217 0.6211 0.0935
C18_4 C 0.65632(18) 0.58330(16) 0.05582(5)
H9_4 H 0.6414 0.6225 0.0478
C19_4 C 0.76329(19) 0.54325(17) 0.10612(4)
C20_4 C 0.71894(17) 0.53424(16) 0.08627(5)
C21_4 C 0.69824(18) 0.59138(16) 0.07423(5)
H10_4 H 0.7127 0.6361 0.0786
C22_4 C 0.69960(17) 0.46904(16) 0.07970(5)
H11_4 H 0.7145 0.4300 0.0878
C23_4 C 0.65794(16) 0.46032(16) 0.06102(5)
H12_4 H 0.6446 0.4155 0.0565
N2_9 N 0.42944(17) 0.2500 0.24487(5)
Cl2_9 Cl 0.43045(16) 0.2500 0.20046(5)
C24_9 C 0.4620(6) 0.2500 0.22487(12)
C25_9 C 0.4646(3) 0.2500 0.26402(9)
H13_9 H 0.4403 0.2500 0.2776
O8_7 O 0.92916(10) 0.82133(11) 0.14355(3)
C27_7 C 0.85430(14) 0.89570(14) 0.1250
C29_7 C 0.84374(17) 0.93579(16) 0.14377(4)
H14_7 H 0.8711 0.9283 0.1565
C30_7 C 0.75299(14) 0.99701(14) 0.1250
C32_7 C 0.79325(17) 0.98671(19) 0.14388(4)
C33_7 C 0.90893(13) 0.84107(13) 0.1250
O11_4 O 0.92867(11) 0.82084(10) 0.10645(3)
O13_7 O 0.57112(12) 0.93569(10) 0.02040(3)
C38_7 C 0.63620(15) 0.98233(15) 0.04918(4)
C39_7 C 0.58866(15) 0.99055(14) 0.03004(4)
C40_7 C 0.81421(16) 0.90626(17) 0.10623(4)
H20_7 H 0.8217 0.8789 0.0935
C41_7 C 0.65632(18) 0.91670(16) 0.05582(5)
H21_7 H 0.6414 0.8775 0.0478
C42_7 C 0.76329(19) 0.95675(17) 0.10612(4)
C43_7 C 0.71894(17) 0.96576(16) 0.08627(5)
C44_7 C 0.69824(18) 0.90862(16) 0.07423(5)
H22_7 H 0.7127 0.8639 0.0786
Cu4_6 Cu 1.0000 0.7500 0.10309(2)
O4_11 O -0.0000 0.7500 0.06783(6)
O8_8 O 0.07133(11) 0.67916(10) 0.10645(3)
C26_8 C 0.36380(15) 0.51767(15) 0.04918(4)
C27_8 C 0.14570(14) 0.60430(14) 0.1250
C28_8 C 0.41134(15) 0.50945(14) 0.03004(4)
C29_8 C 0.18579(16) 0.59374(17) 0.10623(4)
H14_8 H 0.1783 0.6211 0.0935
C30_8 C 0.24701(14) 0.50299(14) 0.1250
H15_8 H 0.2816 0.4684 0.1250
C31_8 C 0.34368(18) 0.58330(16) 0.05582(5)
H16_8 H 0.3586 0.6225 0.0478
C32_8 C 0.23671(19) 0.54325(17) 0.10612(4)
C33_8 C 0.09107(13) 0.65893(13) 0.1250
C34_8 C 0.28106(17) 0.53424(16) 0.08627(5)
C35_8 C 0.30176(18) 0.59138(16) 0.07423(5)
H17_8 H 0.2873 0.6361 0.0786
C36_8 C 0.30040(17) 0.46904(16) 0.07970(5)
H18_8 H 0.2855 0.4300 0.0878
C37_8 C 0.34206(16) 0.46032(16) 0.06102(5)
H19_8 H 0.3554 0.4155 0.0565
O12_8 O 0.30032(10) 0.32010(10) 0.22489(3)
O13_8 O 0.18569(10) 0.32112(12) 0.22960(3)
C38_8 C 0.23233(15) 0.38620(15) 0.20082(4)
C39_8 C 0.24055(14) 0.33866(15) 0.21996(4)
C40_8 C 0.15626(17) 0.56421(16) 0.14377(4)
H20_8 H 0.1289 0.5717 0.1565
C41_8 C 0.16670(16) 0.40632(18) 0.19418(5)
H21_8 H 0.1275 0.3914 0.2022
C42_8 C 0.20675(17) 0.51329(19) 0.14388(4)
C43_8 C 0.21576(16) 0.46894(17) 0.16373(5)
C44_8 C 0.15862(16) 0.44824(18) 0.17577(5)
H22_8 H 0.1139 0.4627 0.1714
C45_8 C 0.28096(16) 0.44960(17) 0.17030(5)
H23_8 H 0.3200 0.4645 0.1622
C46_8 C 0.28968(16) 0.40794(16) 0.18898(5)
H24_8 H 0.3345 0.3946 0.1935
O14_8 O 0.07133(11) 0.82084(10) 0.10645(3)
O4_12 O 1.0000 0.7500 0.06783(6)
Cl1_10 Cl 0.5000 0.31955(16) 0.04954(5)
C13_10 C 0.5000 0.2880(6) 0.02513(12)
N2_10 N 0.5000 0.17944(17) 0.00513(5)
Cl2_10 Cl 0.5000 0.18045(16) 0.04954(5)
C24_10 C 0.5000 0.2120(6) 0.02513(12)
C14_10 C 0.5000 0.2854(3) 0.98598(9)
H7_10 H 0.5000 0.3097 0.9724
C25_10 C 0.5000 0.2146(3) 0.98598(9)
H13_10 H 0.5000 0.1903 0.9724
O16_5 O 0.42990(10) 0.05032(10) 0.02511(3)
O3_4 O 0.42888(12) 0.06431(10) 0.97960(3)
C1_5 C 0.36380(15) 0.01767(15) 0.95082(4)
C2_5 C 0.14570(14) 0.10430(14) 0.8750
C3_5 C 0.41134(15) 0.00945(14) 0.96996(4)
C4_5 C 0.18579(16) 0.09374(17) 0.89377(4)
H1_5 H 0.1783 0.1211 0.9065
C5_5 C 0.24701(14) 0.00299(14) 0.8750
C6_5 C 0.34368(18) 0.08330(16) 0.94418(5)
H3_5 H 0.3586 0.1225 0.9522
C7_5 C 0.23671(19) 0.04325(17) 0.89388(4)
C8_5 C 0.09107(13) 0.15893(13) 0.8750
C9_5 C 0.28106(17) 0.03424(16) 0.91373(5)
C10_5 C 0.30176(18) 0.09138(16) 0.92577(5)
H4_5 H 0.2873 0.1361 0.9214
C17_5 C 0.15626(17) 0.06421(16) 0.85623(4)
H8_5 H 0.1289 0.0717 0.8435
C19_5 C 0.20675(17) 0.01329(19) 0.85612(4)
O19_5 O 0.42888(12) 0.93569(10) 0.02040(3)
O2_4 O 0.42990(10) 0.94968(10) 0.97489(3)
H2_5 H 0.2816 0.9684 0.8750
C11_5 C 0.30040(17) 0.96904(16) 0.92030(5)
H5_5 H 0.2855 0.9300 0.9122
C12_5 C 0.34206(16) 0.96032(16) 0.93898(5)
H6_5 H 0.3554 0.9155 0.9435
O6_2 O 0.30032(10) 0.82010(10) 0.77511(3)
O7_2 O 0.18569(10) 0.82112(12) 0.77040(3)
C15_5 C 0.23233(15) 0.88620(15) 0.79918(4)
C16_5 C 0.24055(14) 0.83866(15) 0.78004(4)
C18_5 C 0.16670(16) 0.90632(18) 0.80582(5)
H9_5 H 0.1275 0.8914 0.7978
C20_5 C 0.21576(16) 0.96894(17) 0.83627(5)
C21_5 C 0.15862(16) 0.94824(18) 0.82423(5)
H10_5 H 0.1139 0.9627 0.8286
C22_5 C 0.28096(16) 0.94960(17) 0.82970(5)
H11_5 H 0.3200 0.9645 0.8378
C23_5 C 0.28968(16) 0.90794(16) 0.81102(5)
H12_5 H 0.3345 0.8946 0.8065
O2_5 O 0.30032(10) 0.17990(10) 0.22489(3)
O3_5 O 0.18569(10) 0.17888(12) 0.22960(3)
C1_6 C 0.23233(15) 0.11380(15) 0.20082(4)
C3_6 C 0.24055(14) 0.16134(15) 0.21996(4)
H2_6 H 0.2816 0.0316 0.1250
C6_6 C 0.16670(16) 0.09368(18) 0.19418(5)
H3_6 H 0.1275 0.1086 0.2022
C9_6 C 0.21576(16) 0.03106(17) 0.16373(5)
C10_6 C 0.15862(16) 0.05176(18) 0.17577(5)
H4_6 H 0.1139 0.0373 0.1714
C11_6 C 0.28096(16) 0.05040(17) 0.17030(5)
H5_6 H 0.3200 0.0355 0.1622
C12_6 C 0.28968(16) 0.09206(16) 0.18898(5)
H6_6 H 0.3345 0.1054 0.1935
C22_6 C 0.30040(17) 0.03096(16) 0.07970(5)
H11_6 H 0.2855 0.0700 0.0878
C23_6 C 0.34206(16) 0.03968(16) 0.06102(5)
H12_6 H 0.3554 0.0845 0.0565
O16_6 O 0.19968(10) 0.17990(10) 0.27511(3)
O19_6 O 0.31431(10) 0.17888(12) 0.27040(3)
C2_6 C 0.14570(14) 0.89570(14) 0.1250
C4_6 C 0.15626(17) 0.93579(16) 0.14377(4)
H1_6 H 0.1289 0.9283 0.1565
C5_6 C 0.24701(14) 0.99701(14) 0.1250
C7_6 C 0.20675(17) 0.98671(19) 0.14388(4)
C8_6 C 0.09107(13) 0.84107(13) 0.1250
C15_6 C 0.36380(15) 0.98233(15) 0.04918(4)
C16_6 C 0.41134(15) 0.99055(14) 0.03004(4)
C17_6 C 0.18579(16) 0.90626(17) 0.10623(4)
H8_6 H 0.1783 0.8789 0.0935
C18_6 C 0.34368(18) 0.91670(16) 0.05582(5)
H9_6 H 0.3586 0.8775 0.0478
C19_6 C 0.23671(19) 0.95675(17) 0.10612(4)
C20_6 C 0.28106(17) 0.96576(16) 0.08627(5)
C21_6 C 0.30176(18) 0.90862(16) 0.07423(5)
H10_6 H 0.2873 0.8639 0.0786
O2_6 O 0.07010(10) 0.05032(10) 0.47489(3)
H2_7 H 0.2184 0.0316 0.3750
C11_7 C 0.19960(17) 0.03096(16) 0.42030(5)
H5_7 H 0.2145 0.0700 0.4122
C12_7 C 0.15794(16) 0.03968(16) 0.43898(5)
H6_7 H 0.1446 0.0845 0.4435
C15_7 C 0.26767(15) 0.11380(15) 0.29918(4)
C16_7 C 0.25945(14) 0.16134(15) 0.28004(4)
C18_7 C 0.33330(16) 0.09368(18) 0.30582(5)
H9_7 H 0.3725 0.1086 0.2978
C20_7 C 0.28424(16) 0.03106(17) 0.33627(5)
C21_7 C 0.34138(16) 0.05176(18) 0.32423(5)
H10_7 H 0.3861 0.0373 0.3286
C22_7 C 0.21904(16) 0.05040(17) 0.32970(5)
H11_7 H 0.1800 0.0355 0.3378
C23_7 C 0.21032(16) 0.09206(16) 0.31102(5)
H12_7 H 0.1655 0.1054 0.3065
O19_7 O 0.07112(12) 0.06431(10) 0.52040(3)
O3_6 O 0.07112(12) 0.93569(10) 0.47960(3)
C1_7 C 0.13620(15) 0.98233(15) 0.45082(4)
C2_7 C 0.35430(14) 0.89570(14) 0.3750
C3_7 C 0.08866(15) 0.99055(14) 0.46996(4)
C4_7 C 0.31421(16) 0.90626(17) 0.39377(4)
H1_7 H 0.3217 0.8789 0.4065
C5_7 C 0.25299(14) 0.99701(14) 0.3750
C6_7 C 0.15632(18) 0.91670(16) 0.44418(5)
H3_7 H 0.1414 0.8775 0.4522
C7_7 C 0.26329(19) 0.95675(17) 0.39388(4)
C8_7 C 0.40893(13) 0.84107(13) 0.3750
C9_7 C 0.21894(17) 0.96576(16) 0.41373(5)
C10_7 C 0.19824(18) 0.90862(16) 0.42577(5)
H4_7 H 0.2127 0.8639 0.4214
C17_7 C 0.34374(17) 0.93579(16) 0.35623(4)
H8_7 H 0.3711 0.9283 0.3435
C19_7 C 0.29325(17) 0.98671(19) 0.35612(4)
O16_7 O 0.07010(10) 0.94968(10) 0.52511(3)
O16_8 O 0.19968(10) 0.82010(10) 0.72489(3)
O19_8 O 0.31431(10) 0.82112(12) 0.72960(3)
C2_8 C 0.35430(14) 0.10430(14) 0.6250
C4_8 C 0.34374(17) 0.06421(16) 0.64377(4)
H1_8 H 0.3711 0.0717 0.6565
C5_8 C 0.25299(14) 0.00299(14) 0.6250
C7_8 C 0.29325(17) 0.01329(19) 0.64388(4)
C8_8 C 0.40893(13) 0.15893(13) 0.6250
C15_8 C 0.13620(15) 0.01767(15) 0.54918(4)
C16_8 C 0.08866(15) 0.00945(14) 0.53004(4)
C17_8 C 0.31421(16) 0.09374(17) 0.60623(4)
H8_8 H 0.3217 0.1211 0.5935
C18_8 C 0.15632(18) 0.08330(16) 0.55582(5)
H9_8 H 0.1414 0.1225 0.5478
C19_8 C 0.26329(19) 0.04325(17) 0.60612(4)
C20_8 C 0.21894(17) 0.03424(16) 0.58627(5)
C21_8 C 0.19824(18) 0.09138(16) 0.57423(5)
H10_8 H 0.2127 0.1361 0.5786
C1_8 C 0.26767(15) 0.88620(15) 0.70082(4)
C3_8 C 0.25945(14) 0.83866(15) 0.71996(4)
H2_8 H 0.2184 0.9684 0.6250
C6_8 C 0.33330(16) 0.90632(18) 0.69418(5)
H3_8 H 0.3725 0.8914 0.7022
C9_8 C 0.28424(16) 0.96894(17) 0.66373(5)
C10_8 C 0.34138(16) 0.94824(18) 0.67577(5)
H4_8 H 0.3861 0.9627 0.6714
C11_8 C 0.21904(16) 0.94960(17) 0.67030(5)
H5_8 H 0.1800 0.9645 0.6622
C12_8 C 0.21032(16) 0.90794(16) 0.68898(5)
H6_8 H 0.1655 0.8946 0.6935
C22_8 C 0.19960(17) 0.96904(16) 0.57970(5)
H11_8 H 0.2145 0.9300 0.5878
C23_8 C 0.15794(16) 0.96032(16) 0.56102(5)
H12_8 H 0.1446 0.9155 0.5565
loop_
_geom_bond_atom_site_label_1
_geom_bond_atom_site_label_2
_geom_bond_site_symmetry_1
_geom_bond_site_symmetry_2
N1 Cu2 1_555 1_555
Cl1 C13 1_555 1_555
C13 N1 1_555 1_555
C14 N1 1_555 1_555
H7 C14 1_555 1_555
N2 C24 1_555 1_555
Cl2 C24 1_555 1_555
C24 C13 1_555 1_555
C25 C14 1_555 1_555
H13 C25 1_555 1_555
Cu3 Cu2 1_555 1_555
Cu10 N2 1_555 1_555
O17 Cu3 1_555 1_555
O18 Cu2 1_555 1_555
N3 Cu3 1_555 1_555
O20 Cu2 1_555 1_555
O21 Cu3 1_555 1_555
N2 C25 1_555 1_555
Cu1 O1 1_555 1_555
Cu2_2 O2 1_555 1_555
O1 C8 1_555 1_555
O2 C3 1_555 1_555
N1_2 Cu2_2 1_555 1_555
O3 C3 1_555 1_555
O4 Cu1 1_555 1_555
C1 C3 1_555 1_555
C2 C4 1_555 1_555
C4 H1 1_555 1_555
C5 H2 1_555 1_555
C6 C1 1_555 1_555
H3 C6 1_555 1_555
C7 C4 1_555 1_555
C8 C2 1_555 1_555
C9 C7 1_555 1_555
C10 C6 1_555 1_555
H4 C10 1_555 1_555
C11 C9 1_555 1_555
H5 C11 1_555 1_555
C12 C1 1_555 1_555
H6 C12 1_555 1_555
Cl1_2 C13_2 1_555 1_555
C13_2 N1_2 1_555 1_555
C14_2 N1_2 1_555 1_555
H7_2 C14_2 1_555 1_555
O5 C8 1_555 1_555
O6 C16 1_555 1_555
O7 C16 1_555 1_555
C15 C16 1_555 1_555
C17 C2 1_555 1_555
H8 C17 1_555 1_555
C18 C15 1_555 1_555
H9 C18 1_555 1_555
C19 C5 1_555 1_555
C20 C19 1_555 1_555
C21 C18 1_555 1_555
H10 C21 1_555 1_555
C22 C20 1_555 1_555
H11 C22 1_555 1_555
C23 C15 1_555 1_555
H12 C23 1_555 1_555
N2_2 C24_2 1_555 1_555
Cl2_2 C24_2 1_555 1_555
C24_2 C13_2 1_555 1_555
C25_2 C14_2 1_555 1_555
H13_2 C25_2 1_555 1_555
Cu3_2 Cu2_2 1_555 1_555
O8 Cu1 1_555 1_555
O18 C28 1_555 1_555
O21 C28 1_555 1_555
C26 C28 1_555 1_555
C27 C29 1_555 1_555
C29 H14 1_555 1_555
C30 H15 1_555 1_555
C31 C26 1_555 1_555
H16 C31 1_555 1_555
C32 C29 1_555 1_555
C33 O8 1_555 1_555
C34 C32 1_555 1_555
C35 C31 1_555 1_555
H17 C35 1_555 1_555
C36 C34 1_555 1_555
H18 C36 1_555 1_555
C37 C26 1_555 1_555
H19 C37 1_555 1_555
O11 C33 1_555 1_555
O12 C39 1_555 1_555
O13 C39 1_555 1_555
C38 C39 1_555 1_555
C40 C27 1_555 1_555
H20 C40 1_555 1_555
C41 C38 1_555 1_555
H21 C41 1_555 1_555
C42 C30 1_555 1_555
C43 C42 1_555 1_555
C44 C41 1_555 1_555
H22 C44 1_555 1_555
C45 C43 1_555 1_555
H23 C45 1_555 1_555
C46 C38 1_555 1_555
H24 C46 1_555 1_555
Cu4 Cu1 1_555 1_555
Cu7 O6 1_555 1_555
Cu8 O7 1_555 1_555
Cu9 O13 1_555 1_555
Cu10_2 N2_2 1_555 1_555
Cu11 O12 1_555 1_555
O14 Cu1 1_555 1_555
O15 Cu1 1_555 1_555
O16 Cu3_2 1_555 1_555
N3_2 Cu3_2 1_555 1_555
O19 Cu2_2 1_555 1_555
O3 Cu3_2 1_555 1_555
C5 C7 1_555 1_555
C9 C10 1_555 1_555
C11 C12 1_555 1_555
O5 Cu4 1_555 1_555
C17 C19 1_555 1_555
C20 C21 1_555 1_555
C22 C23 1_555 1_555
N2_2 C25_2 1_555 1_555
C27 C33 1_555 1_555
C30 C32 1_555 1_555
C34 C35 1_555 1_555
C36 C37 1_555 1_555
O11 Cu4 1_555 1_555
C40 C42 1_555 1_555
C43 C44 1_555 1_555
C45 C46 1_555 1_555
Cu7 Cu8 1_555 1_555
Cu9 Cu11 1_555 1_555
N2_3 C24_3 1_555 1_555
Cl2_3 C24_3 1_555 1_555
H13_3 C25_3 1_555 1_555
Cu10_3 N2_3 1_555 1_555
N2_3 C25_3 1_555 1_555
Cu1_2 O1_2 1_555 1_555
Cu2_3 O2_2 1_555 1_555
O1_2 C8_2 1_555 1_555
O2_2 C3_2 1_555 1_555
N1_3 Cu2_3 1_555 1_555
O3_2 C3_2 1_555 1_555
O4_2 Cu1_2 1_555 1_555
C1_2 C3_2 1_555 1_555
C2_2 C4_2 1_555 1_555
C4_2 H1_2 1_555 1_555
C5_2 H2_2 1_555 1_555
C6_2 C1_2 1_555 1_555
H3_2 C6_2 1_555 1_555
C7_2 C4_2 1_555 1_555
C8_2 C2_2 1_555 1_555
C9_2 C7_2 1_555 1_555
C10_2 C6_2 1_555 1_555
H4_2 C10_2 1_555 1_555
C11_2 C9_2 1_555 1_555
H5_2 C11_2 1_555 1_555
C12_2 C1_2 1_555 1_555
H6_2 C12_2 1_555 1_555
Cl1_3 C13_3 1_555 1_555
C13_3 N1_3 1_555 1_555
C14_3 N1_3 1_555 1_555
H7_3 C14_3 1_555 1_555
O5_2 C8_2 1_555 1_555
O16 C16_2 1_555 1_555
O19 C16_2 1_555 1_555
C15_2 C16_2 1_555 1_555
C17_2 C2_2 1_555 1_555
H8_2 C17_2 1_555 1_555
C18_2 C15_2 1_555 1_555
H9_2 C18_2 1_555 1_555
C19_2 C5_2 1_555 1_555
C20_2 C19_2 1_555 1_555
C21_2 C18_2 1_555 1_555
H10_2 C21_2 1_555 1_555
C22_2 C20_2 1_555 1_555
H11_2 C22_2 1_555 1_555
C23_2 C15_2 1_555 1_555
H12_2 C23_2 1_555 1_555
Cu3_3 Cu2_3 1_555 1_555
O8_2 Cu1_2 1_555 1_555
C27_2 C29_2 1_555 1_555
C29_2 H14_2 1_555 1_555
C32_2 C29_2 1_555 1_555
C33_2 O8_2 1_555 1_555
O11_2 C33_2 1_555 1_555
O13_2 C39_2 1_555 1_555
C38_2 C39_2 1_555 1_555
C40_2 C27_2 1_555 1_555
H20_2 C40_2 1_555 1_555
C41_2 C38_2 1_555 1_555
H21_2 C41_2 1_555 1_555
C42_2 C30_2 1_555 1_555
C43_2 C42_2 1_555 1_555
C44_2 C41_2 1_555 1_555
H22_2 C44_2 1_555 1_555
Cu4_2 Cu1_2 1_555 1_555
Cu10_2 O13_2 1_555 1_555
O14_2 Cu1_2 1_555 1_555
O15_2 Cu1_2 1_555 1_555
O16_2 Cu3_3 1_555 1_555
O17_2 Cu3_3 1_555 1_555
O18_2 Cu2_3 1_555 1_555
N3_3 Cu3_3 1_555 1_555
O19_2 Cu2_3 1_555 1_555
O20_2 Cu2_3 1_555 1_555
O21_2 Cu3_3 1_555 1_555
O3_2 Cu3_3 1_555 1_555
C5_2 C7_2 1_555 1_555
C9_2 C10_2 1_555 1_555
C11_2 C12_2 1_555 1_555
O5_2 Cu4_2 1_555 1_555
C17_2 C19_2 1_555 1_555
C20_2 C21_2 1_555 1_555
C22_2 C23_2 1_555 1_555
C27_2 C33_2 1_555 1_555
C30_2 C32_2 1_555 1_555
O11_2 Cu4_2 1_555 1_555
C40_2 C42_2 1_555 1_555
C43_2 C44_2 1_555 1_555
O18_2 C28_2 1_555 1_555
O21_2 C28_2 1_555 1_555
C26_2 C28_2 1_555 1_555
C31_2 C26_2 1_555 1_555
H16_2 C31_2 1_555 1_555
C35_2 C31_2 1_555 1_555
H17_2 C35_2 1_555 1_555
C36_2 C34_2 1_555 1_555
H18_2 C36_2 1_555 1_555
C37_2 C26_2 1_555 1_555
H19_2 C37_2 1_555 1_555
H23_2 C45_2 1_555 1_555
H24_2 C46_2 1_555 1_555
Cu11_3 O12_2 1_555 1_555
C34_2 C35_2 1_555 1_555
C36_2 C37_2 1_555 1_555
C45_2 C46_2 1_555 1_555
Cl1_4 C13_4 1_555 1_555
C13_4 N3 1_555 1_555
C14_4 N3 1_555 1_555
H7_4 C14_4 1_555 1_555
N2_4 C24_4 1_555 1_555
Cl2_4 C24_4 1_555 1_555
C24_4 C13_4 1_555 1_555
C25_4 C14_4 1_555 1_555
H13_4 C25_4 1_555 1_555
Cu11_2 N2_4 1_555 1_555
N2_4 C25_4 1_555 1_555
O4_3 Cu4_2 1_555 1_555
Cl1_5 C13_5 1_555 1_555
C13_5 N3_2 1_555 1_555
C14_5 N3_2 1_555 1_555
H7_5 C14_5 1_555 1_555
N2_5 C24_5 1_555 1_555
Cl2_5 C24_5 1_555 1_555
C24_5 C13_5 1_555 1_555
C25_5 C14_5 1_555 1_555
H13_5 C25_5 1_555 1_555
O8_3 Cu4_2 1_555 1_555
O17 C28_3 1_555 1_555
O20 C28_3 1_555 1_555
C26_3 C28_3 1_555 1_555
C27_3 C29_3 1_555 1_555
C29_3 H14_3 1_555 1_555
C30_3 H15_3 1_555 1_555
C31_3 C26_3 1_555 1_555
H16_3 C31_3 1_555 1_555
C32_3 C29_3 1_555 1_555
C33_3 O8_3 1_555 1_555
C34_3 C32_3 1_555 1_555
C35_3 C31_3 1_555 1_555
H17_3 C35_3 1_555 1_555
C36_3 C34_3 1_555 1_555
H18_3 C36_3 1_555 1_555
C37_3 C26_3 1_555 1_555
H19_3 C37_3 1_555 1_555
O15_2 C33_3 1_555 1_555
O12_3 C39_3 1_555 1_555
O13_3 C39_3 1_555 1_555
C38_3 C39_3 1_555 1_555
C40_3 C27_3 1_555 1_555
H20_3 C40_3 1_555 1_555
C41_3 C38_3 1_555 1_555
H21_3 C41_3 1_555 1_555
C42_3 C30_3 1_555 1_555
C43_3 C42_3 1_555 1_555
C44_3 C41_3 1_555 1_555
H22_3 C44_3 1_555 1_555
C45_3 C43_3 1_555 1_555
H23_3 C45_3 1_555 1_555
C46_3 C38_3 1_555 1_555
H24_3 C46_3 1_555 1_555
Cu9_2 O13_3 1_555 1_555
Cu11_3 N2_5 1_555 1_555
Cu10_3 O12_3 1_555 1_555
O14_3 Cu4_2 1_555 1_555
N2_5 C25_5 1_555 1_555
C27_3 C33_3 1_555 1_555
C30_3 C32_3 1_555 1_555
C34_3 C35_3 1_555 1_555
C36_3 C37_3 1_555 1_555
C40_3 C42_3 1_555 1_555
C43_3 C44_3 1_555 1_555
C45_3 C46_3 1_555 1_555
Cu9_2 Cu10_3 1_555 1_555
O4_4 Cu1_3 1_555 1_555
O8_4 Cu1_3 1_555 1_555
O9 C28_4 1_555 1_555
O10 C28_4 1_555 1_555
C26_4 C28_4 1_555 1_555
C27_4 C29_4 1_555 1_555
C29_4 H14_4 1_555 1_555
C30_4 H15_4 1_555 1_555
C31_4 C26_4 1_555 1_555
H16_4 C31_4 1_555 1_555
C32_4 C29_4 1_555 1_555
C33_4 O8_4 1_555 1_555
C34_4 C32_4 1_555 1_555
C35_4 C31_4 1_555 1_555
H17_4 C35_4 1_555 1_555
C36_4 C34_4 1_555 1_555
H18_4 C36_4 1_555 1_555
C37_4 C26_4 1_555 1_555
H19_4 C37_4 1_555 1_555
O11_3 C33_4 1_555 1_555
O12_4 C39_4 1_555 1_555
O13_4 C39_4 1_555 1_555
C38_4 C39_4 1_555 1_555
C40_4 C27_4 1_555 1_555
H20_4 C40_4 1_555 1_555
C41_4 C38_4 1_555 1_555
H21_4 C41_4 1_555 1_555
C42_4 C30_4 1_555 1_555
C43_4 C42_4 1_555 1_555
C44_4 C41_4 1_555 1_555
H22_4 C44_4 1_555 1_555
C45_4 C43_4 1_555 1_555
H23_4 C45_4 1_555 1_555
C46_4 C38_4 1_555 1_555
H24_4 C46_4 1_555 1_555
Cu4_3 Cu1_3 1_555 1_555
Cu5 O9 1_555 1_555
Cu10_3 O13_4 1_555 1_555
Cu9_2 O12_4 1_555 1_555
O14_4 Cu1_3 1_555 1_555
C27_4 C33_4 1_555 1_555
C30_4 C32_4 1_555 1_555
C34_4 C35_4 1_555 1_555
C36_4 C37_4 1_555 1_555
O11_3 Cu4_3 1_555 1_555
C40_4 C42_4 1_555 1_555
C43_4 C44_4 1_555 1_555
C45_4 C46_4 1_555 1_555
H7_6 C14_6 1_555 1_555
C25_6 C14_6 1_555 1_555
H13_6 C25_6 1_555 1_555
O16_3 Cu6 1_555 1_555
O17_3 Cu6 1_555 1_555
N3_4 Cu6 1_555 1_555
Cu1_4 O1_3 1_555 1_555
Cu5 O2_3 1_555 1_555
O1_3 C8_3 1_555 1_555
O2_3 C3_3 1_555 1_555
N1_4 Cu5 1_555 1_555
O3_3 C3_3 1_555 1_555
O4_5 Cu1_4 1_555 1_555
C1_3 C3_3 1_555 1_555
C2_3 C4_3 1_555 1_555
C4_3 H1_3 1_555 1_555
C5_3 H2_3 1_555 1_555
C6_3 C1_3 1_555 1_555
H3_3 C6_3 1_555 1_555
C7_3 C4_3 1_555 1_555
C8_3 C2_3 1_555 1_555
C9_3 C7_3 1_555 1_555
C10_3 C6_3 1_555 1_555
H4_3 C10_3 1_555 1_555
C11_3 C9_3 1_555 1_555
H5_3 C11_3 1_555 1_555
C12_3 C1_3 1_555 1_555
H6_3 C12_3 1_555 1_555
Cl1_6 C13_6 1_555 1_555
C13_6 N1_4 1_555 1_555
O5_3 C8_3 1_555 1_555
O16_2 C16_3 1_555 1_555
O19_2 C16_3 1_555 1_555
C15_3 C16_3 1_555 1_555
C17_3 C2_3 1_555 1_555
H8_3 C17_3 1_555 1_555
C18_3 C15_3 1_555 1_555
H9_3 C18_3 1_555 1_555
C19_3 C5_3 1_555 1_555
C20_3 C19_3 1_555 1_555
C21_3 C18_3 1_555 1_555
H10_3 C21_3 1_555 1_555
C22_3 C20_3 1_555 1_555
H11_3 C22_3 1_555 1_555
C23_3 C15_3 1_555 1_555
H12_3 C23_3 1_555 1_555
N2_6 C24_6 1_555 1_555
Cl2_6 C24_6 1_555 1_555
C24_6 C13_6 1_555 1_555
Cu4_4 Cu1_4 1_555 1_555
Cu10_4 N2_6 1_555 1_555
O15_3 Cu1_4 1_555 1_555
C5_3 C7_3 1_555 1_555
C9_3 C10_3 1_555 1_555
C11_3 C12_3 1_555 1_555
O5_3 Cu4_4 1_555 1_555
C17_3 C19_3 1_555 1_555
C20_3 C21_3 1_555 1_555
C22_3 C23_3 1_555 1_555
N2_7 C24_7 1_555 1_555
Cl2_7 C24_7 1_555 1_555
H13_7 C25_7 1_555 1_555
Cu11 N2_7 1_555 1_555
N2_7 C25_7 1_555 1_555
O9_2 C28_5 1_555 1_555
O10_2 C28_5 1_555 1_555
C26_5 C28_5 1_555 1_555
C31_5 C26_5 1_555 1_555
H16_5 C31_5 1_555 1_555
C35_5 C31_5 1_555 1_555
H17_5 C35_5 1_555 1_555
C36_5 C34_5 1_555 1_555
H18_5 C36_5 1_555 1_555
C37_5 C26_5 1_555 1_555
H19_5 C37_5 1_555 1_555
H23_5 C45_5 1_555 1_555
H24_5 C46_5 1_555 1_555
Cu7 O9_2 1_555 1_555
Cu8 O10_2 1_555 1_555
Cu10_2 O12_5 1_555 1_555
C34_5 C35_5 1_555 1_555
C36_5 C37_5 1_555 1_555
C45_5 C46_5 1_555 1_555
N1_5 Cu7 1_555 1_555
O4_6 Cu4 1_555 1_555
Cl1_7 C13_7 1_555 1_555
C13_7 N1_5 1_555 1_555
C14_7 N1_5 1_555 1_555
H7_7 C14_7 1_555 1_555
O8_5 Cu4 1_555 1_555
C27_5 C29_5 1_555 1_555
C29_5 H14_5 1_555 1_555
C32_5 C29_5 1_555 1_555
C33_5 O8_5 1_555 1_555
O15 C33_5 1_555 1_555
O13_5 C39_5 1_555 1_555
C38_5 C39_5 1_555 1_555
C40_5 C27_5 1_555 1_555
H20_5 C40_5 1_555 1_555
C41_5 C38_5 1_555 1_555
H21_5 C41_5 1_555 1_555
C42_5 C30_5 1_555 1_555
C43_5 C42_5 1_555 1_555
C44_5 C41_5 1_555 1_555
H22_5 C44_5 1_555 1_555
Cu11_3 O13_5 1_555 1_555
O14_5 Cu4 1_555 1_555
O16_4 Cu8 1_555 1_555
O17_4 Cu8 1_555 1_555
N3_5 Cu8 1_555 1_555
O19_4 Cu7 1_555 1_555
O20_4 Cu7 1_555 1_555
C27_5 C33_5 1_555 1_555
C30_5 C32_5 1_555 1_555
C40_5 C42_5 1_555 1_555
C43_5 C44_5 1_555 1_555
O4_7 Cu4_3 1_555 1_555
O14_6 Cu4_3 1_555 1_555
O4_8 Cu4_4 1_555 1_555
Cl1_8 C13_8 1_555 1_555
C13_8 N3_3 1_555 1_555
C14_8 N3_3 1_555 1_555
H7_8 C14_8 1_555 1_555
N2_8 C24_8 1_555 1_555
Cl2_8 C24_8 1_555 1_555
C24_8 C13_8 1_555 1_555
C25_8 C14_8 1_555 1_555
H13_8 C25_8 1_555 1_555
O8_6 Cu4_4 1_555 1_555
C27_6 C29_6 1_555 1_555
C29_6 H14_6 1_555 1_555
C32_6 C29_6 1_555 1_555
C33_6 O8_6 1_555 1_555
O15_3 C33_6 1_555 1_555
O13_6 C39_6 1_555 1_555
C38_6 C39_6 1_555 1_555
C40_6 C27_6 1_555 1_555
H20_6 C40_6 1_555 1_555
C41_6 C38_6 1_555 1_555
H21_6 C41_6 1_555 1_555
C42_6 C30_6 1_555 1_555
C43_6 C42_6 1_555 1_555
C44_6 C41_6 1_555 1_555
H22_6 C44_6 1_555 1_555
Cu9_2 N2_8 1_555 1_555
N2_8 C25_8 1_555 1_555
C27_6 C33_6 1_555 1_555
C30_6 C32_6 1_555 1_555
C40_6 C42_6 1_555 1_555
C43_6 C44_6 1_555 1_555
O17_2 C28_6 1_555 1_555
O20_2 C28_6 1_555 1_555
C26_6 C28_6 1_555 1_555
C31_6 C26_6 1_555 1_555
H16_6 C31_6 1_555 1_555
C35_6 C31_6 1_555 1_555
H17_6 C35_6 1_555 1_555
C36_6 C34_6 1_555 1_555
H18_6 C36_6 1_555 1_555
C37_6 C26_6 1_555 1_555
H19_6 C37_6 1_555 1_555
H23_6 C45_6 1_555 1_555
H24_6 C46_6 1_555 1_555
Cu10_4 O12_6 1_555 1_555
C34_6 C35_6 1_555 1_555
C36_6 C37_6 1_555 1_555
C45_6 C46_6 1_555 1_555
O4_9 Cu1_5 1_555 1_555
Cu4_5 Cu1_5 1_555 1_555
O14_7 Cu1_5 1_555 1_555
O15_4 Cu1_5 1_555 1_555
O17_4 C28_7 1_555 1_555
O20_4 C28_7 1_555 1_555
C26_7 C28_7 1_555 1_555
C31_7 C26_7 1_555 1_555
H16_7 C31_7 1_555 1_555
C35_7 C31_7 1_555 1_555
H17_7 C35_7 1_555 1_555
C36_7 C34_7 1_555 1_555
H18_7 C36_7 1_555 1_555
C37_7 C26_7 1_555 1_555
H19_7 C37_7 1_555 1_555
H23_7 C45_7 1_555 1_555
H24_7 C46_7 1_555 1_555
Cu9_3 O12_7 1_555 1_555
C34_7 C35_7 1_555 1_555
C36_7 C37_7 1_555 1_555
C45_7 C46_7 1_555 1_555
Cu1_6 O1_4 1_555 1_555
O1_4 C8_4 1_555 1_555
O16_4 C3_4 1_555 1_555
O19_4 C3_4 1_555 1_555
O4_10 Cu1_6 1_555 1_555
C1_4 C3_4 1_555 1_555
C2_4 C4_4 1_555 1_555
C4_4 H1_4 1_555 1_555
C5_4 H2_4 1_555 1_555
C6_4 C1_4 1_555 1_555
H3_4 C6_4 1_555 1_555
C7_4 C4_4 1_555 1_555
C8_4 C2_4 1_555 1_555
C9_4 C7_4 1_555 1_555
C10_4 C6_4 1_555 1_555
H4_4 C10_4 1_555 1_555
C11_4 C9_4 1_555 1_555
H5_4 C11_4 1_555 1_555
C12_4 C1_4 1_555 1_555
H6_4 C12_4 1_555 1_555
Cl1_9 C13_9 1_555 1_555
C13_9 N3_5 1_555 1_555
C14_9 N3_5 1_555 1_555
H7_9 C14_9 1_555 1_555
O5_4 C8_4 1_555 1_555
O16_3 C16_4 1_555 1_555
O19_3 C16_4 1_555 1_555
C15_4 C16_4 1_555 1_555
C17_4 C2_4 1_555 1_555
H8_4 C17_4 1_555 1_555
C18_4 C15_4 1_555 1_555
H9_4 C18_4 1_555 1_555
C19_4 C5_4 1_555 1_555
C20_4 C19_4 1_555 1_555
C21_4 C18_4 1_555 1_555
H10_4 C21_4 1_555 1_555
C22_4 C20_4 1_555 1_555
H11_4 C22_4 1_555 1_555
C23_4 C15_4 1_555 1_555
H12_4 C23_4 1_555 1_555
N2_9 C24_9 1_555 1_555
Cl2_9 C24_9 1_555 1_555
C24_9 C13_9 1_555 1_555
C25_9 C14_9 1_555 1_555
H13_9 C25_9 1_555 1_555
O8_7 Cu1_6 1_555 1_555
C27_7 C29_7 1_555 1_555
C29_7 H14_7 1_555 1_555
C32_7 C29_7 1_555 1_555
C33_7 O8_7 1_555 1_555
O11_4 C33_7 1_555 1_555
O13_7 C39_7 1_555 1_555
C38_7 C39_7 1_555 1_555
C40_7 C27_7 1_555 1_555
H20_7 C40_7 1_555 1_555
C41_7 C38_7 1_555 1_555
H21_7 C41_7 1_555 1_555
C42_7 C30_7 1_555 1_555
C43_7 C42_7 1_555 1_555
C44_7 C41_7 1_555 1_555
H22_7 C44_7 1_555 1_555
Cu4_6 Cu1_6 1_555 1_555
Cu9 N2_9 1_555 1_555
C5_4 C7_4 1_555 1_555
C9_4 C10_4 1_555 1_555
C11_4 C12_4 1_555 1_555
O5_4 Cu4_6 1_555 1_555
C17_4 C19_4 1_555 1_555
C20_4 C21_4 1_555 1_555
C22_4 C23_4 1_555 1_555
N2_9 C25_9 1_555 1_555
C27_7 C33_7 1_555 1_555
C30_7 C32_7 1_555 1_555
O11_4 Cu4_6 1_555 1_555
C40_7 C42_7 1_555 1_555
C43_7 C44_7 1_555 1_555
O4_11 Cu4_5 1_555 1_555
O8_8 Cu4_5 1_555 1_555
O17_3 C28_8 1_555 1_555
O20_3 C28_8 1_555 1_555
C26_8 C28_8 1_555 1_555
C27_8 C29_8 1_555 1_555
C29_8 H14_8 1_555 1_555
C30_8 H15_8 1_555 1_555
C31_8 C26_8 1_555 1_555
H16_8 C31_8 1_555 1_555
C32_8 C29_8 1_555 1_555
C33_8 O8_8 1_555 1_555
C34_8 C32_8 1_555 1_555
C35_8 C31_8 1_555 1_555
H17_8 C35_8 1_555 1_555
C36_8 C34_8 1_555 1_555
H18_8 C36_8 1_555 1_555
C37_8 C26_8 1_555 1_555
H19_8 C37_8 1_555 1_555
O15_4 C33_8 1_555 1_555
O12_8 C39_8 1_555 1_555
O13_8 C39_8 1_555 1_555
C38_8 C39_8 1_555 1_555
C40_8 C27_8 1_555 1_555
H20_8 C40_8 1_555 1_555
C41_8 C38_8 1_555 1_555
H21_8 C41_8 1_555 1_555
C42_8 C30_8 1_555 1_555
C43_8 C42_8 1_555 1_555
C44_8 C41_8 1_555 1_555
H22_8 C44_8 1_555 1_555
C45_8 C43_8 1_555 1_555
H23_8 C45_8 1_555 1_555
C46_8 C38_8 1_555 1_555
H24_8 C46_8 1_555 1_555
Cu11 O13_8 1_555 1_555
Cu9 O12_8 1_555 1_555
O14_8 Cu4_5 1_555 1_555
C27_8 C33_8 1_555 1_555
C30_8 C32_8 1_555 1_555
C34_8 C35_8 1_555 1_555
C36_8 C37_8 1_555 1_555
C40_8 C42_8 1_555 1_555
C43_8 C44_8 1_555 1_555
C45_8 C46_8 1_555 1_555
O4_12 Cu4_6 1_555 1_555
Cl1_10 C13_10 1_555 1_555
C13_10 N3_4 1_555 1_555
N2_10 C24_10 1_555 1_555
Cl2_10 C24_10 1_555 1_555
C24_10 C13_10 1_555 1_555
Cu9_3 N2_10 1_555 1_555
H7_10 C14_10 1_555 1_555
C25_10 C14_10 1_555 1_555
H13_10 C25_10 1_555 1_555
O16_5 Cu9_3 1_555 1_555
O14_4 C8_5 1_555 1_555
O3_4 C3_5 1_555 1_555
C1_5 C3_5 1_555 1_555
C2_5 C4_5 1_555 1_555
C4_5 H1_5 1_555 1_555
C6_5 C1_5 1_555 1_555
H3_5 C6_5 1_555 1_555
C7_5 C4_5 1_555 1_555
C8_5 C2_5 1_555 1_555
C9_5 C7_5 1_555 1_555
C10_5 C6_5 1_555 1_555
H4_5 C10_5 1_555 1_555
O14_6 C8_5 1_555 1_555
C17_5 C2_5 1_555 1_555
H8_5 C17_5 1_555 1_555
C19_5 C5_5 1_555 1_555
C5_5 C7_5 1_555 1_555
C9_5 C10_5 1_555 1_555
C17_5 C19_5 1_555 1_555
Cu10_4 O2_4 1_555 1_555
H5_5 C11_5 1_555 1_555
H6_5 C12_5 1_555 1_555
O6_2 C16_5 1_555 1_555
O7_2 C16_5 1_555 1_555
C15_5 C16_5 1_555 1_555
C18_5 C15_5 1_555 1_555
H9_5 C18_5 1_555 1_555
C21_5 C18_5 1_555 1_555
H10_5 C21_5 1_555 1_555
C22_5 C20_5 1_555 1_555
H11_5 C22_5 1_555 1_555
C23_5 C15_5 1_555 1_555
H12_5 C23_5 1_555 1_555
Cu9_2 O6_2 1_555 1_555
Cu10_3 O7_2 1_555 1_555
C11_5 C12_5 1_555 1_555
C20_5 C21_5 1_555 1_555
C22_5 C23_5 1_555 1_555
Cu9 O2_5 1_555 1_555
O2_5 C3_6 1_555 1_555
O3_5 C3_6 1_555 1_555
C1_6 C3_6 1_555 1_555
C6_6 C1_6 1_555 1_555
H3_6 C6_6 1_555 1_555
C10_6 C6_6 1_555 1_555
H4_6 C10_6 1_555 1_555
C11_6 C9_6 1_555 1_555
H5_6 C11_6 1_555 1_555
C12_6 C1_6 1_555 1_555
H6_6 C12_6 1_555 1_555
H11_6 C22_6 1_555 1_555
H12_6 C23_6 1_555 1_555
O16_6 Cu11 1_555 1_555
O19_6 Cu9 1_555 1_555
O3_5 Cu11 1_555 1_555
C9_6 C10_6 1_555 1_555
C11_6 C12_6 1_555 1_555
C22_6 C23_6 1_555 1_555
O14_7 C8_6 1_555 1_555
C2_6 C4_6 1_555 1_555
C4_6 H1_6 1_555 1_555
C7_6 C4_6 1_555 1_555
C8_6 C2_6 1_555 1_555
O14_8 C8_6 1_555 1_555
O19_5 C16_6 1_555 1_555
C15_6 C16_6 1_555 1_555
C17_6 C2_6 1_555 1_555
H8_6 C17_6 1_555 1_555
C18_6 C15_6 1_555 1_555
H9_6 C18_6 1_555 1_555
C19_6 C5_6 1_555 1_555
C20_6 C19_6 1_555 1_555
C21_6 C18_6 1_555 1_555
H10_6 C21_6 1_555 1_555
C5_6 C7_6 1_555 1_555
C17_6 C19_6 1_555 1_555
C20_6 C21_6 1_555 1_555
Cu10 O2_6 1_555 1_555
H5_7 C11_7 1_555 1_555
H6_7 C12_7 1_555 1_555
O16_6 C16_7 1_555 1_555
O19_6 C16_7 1_555 1_555
C15_7 C16_7 1_555 1_555
C18_7 C15_7 1_555 1_555
H9_7 C18_7 1_555 1_555
C21_7 C18_7 1_555 1_555
H10_7 C21_7 1_555 1_555
C22_7 C20_7 1_555 1_555
H11_7 C22_7 1_555 1_555
C23_7 C15_7 1_555 1_555
H12_7 C23_7 1_555 1_555
O19_7 Cu10 1_555 1_555
C11_7 C12_7 1_555 1_555
C20_7 C21_7 1_555 1_555
C22_7 C23_7 1_555 1_555
O14 C8_7 1_555 1_555
O3_6 C3_7 1_555 1_555
C1_7 C3_7 1_555 1_555
C2_7 C4_7 1_555 1_555
C4_7 H1_7 1_555 1_555
C6_7 C1_7 1_555 1_555
H3_7 C6_7 1_555 1_555
C7_7 C4_7 1_555 1_555
C8_7 C2_7 1_555 1_555
C9_7 C7_7 1_555 1_555
C10_7 C6_7 1_555 1_555
H4_7 C10_7 1_555 1_555
O14_5 C8_7 1_555 1_555
C17_7 C2_7 1_555 1_555
H8_7 C17_7 1_555 1_555
C19_7 C5_7 1_555 1_555
O16_7 Cu11_2 1_555 1_555
O3_6 Cu11_2 1_555 1_555
C5_7 C7_7 1_555 1_555
C9_7 C10_7 1_555 1_555
C17_7 C19_7 1_555 1_555
O16_8 Cu10_3 1_555 1_555
O19_8 Cu9_2 1_555 1_555
O14_2 C8_8 1_555 1_555
C2_8 C4_8 1_555 1_555
C4_8 H1_8 1_555 1_555
C7_8 C4_8 1_555 1_555
C8_8 C2_8 1_555 1_555
O14_3 C8_8 1_555 1_555
O19_7 C16_8 1_555 1_555
C15_8 C16_8 1_555 1_555
C17_8 C2_8 1_555 1_555
H8_8 C17_8 1_555 1_555
C18_8 C15_8 1_555 1_555
H9_8 C18_8 1_555 1_555
C19_8 C5_8 1_555 1_555
C20_8 C19_8 1_555 1_555
C21_8 C18_8 1_555 1_555
H10_8 C21_8 1_555 1_555
C5_8 C7_8 1_555 1_555
C17_8 C19_8 1_555 1_555
C20_8 C21_8 1_555 1_555
O16_8 C3_8 1_555 1_555
O19_8 C3_8 1_555 1_555
C1_8 C3_8 1_555 1_555
C6_8 C1_8 1_555 1_555
H3_8 C6_8 1_555 1_555
C10_8 C6_8 1_555 1_555
H4_8 C10_8 1_555 1_555
C11_8 C9_8 1_555 1_555
H5_8 C11_8 1_555 1_555
C12_8 C1_8 1_555 1_555
H6_8 C12_8 1_555 1_555
H11_8 C22_8 1_555 1_555
H12_8 C23_8 1_555 1_555
C9_8 C10_8 1_555 1_555
C11_8 C12_8 1_555 1_555
C22_8 C23_8 1_555 1_555

#END
