
###############################################################################
#
# This file contains modified crystal structure data generated from the
# MOF subset of the Cambridge Structural Database (CSD) v543 
# hosted by the Cambridge Crystallographic Data Centre (CCDC).
#
# This work is licensed under the Creative Commons
# Attribution-NonCommercial-ShareAlike 4.0 International License.
# To view a copy of this license, visit
# http://creativecommons.org/licenses/by-nc-sa/4.0/
# or send a letter to
# Creative Commons, PO Box 1866, Mountain View, CA 94042, USA.
#
# CIF created using the CSD Python API on 29 September 2022
# The structure has been converted into the P1 space group
# The structure has a 3D framework
# The original CSD entry OSOHUC is in the monoclinic crystal system
# The framework has been calculated to contain at least 10.0% void space
# The void calculation uses a probe of radius 1.32A, grid spacing 0.4
#
###############################################################################

data_OSOHUC
_chemical_formula_moiety         '(C336 H240 N48 O48 Zn14)n'
_symmetry_cell_setting           triclinic
_symmetry_space_group_name_H-M   'P 1'
_symmetry_Int_Tables_number      1
_space_group_name_Hall           'P 1'
loop_
_symmetry_equiv_pos_site_id
_symmetry_equiv_pos_as_xyz
1 x,y,z
_cell_length_a                   31.2189(7)
_cell_length_b                   17.4602(3)
_cell_length_c                   22.1406(5)
_cell_angle_alpha                90
_cell_angle_beta                 130.2370(10)
_cell_angle_gamma                90
_cell_volume                     9212.9
loop_
_atom_site_label
_atom_site_type_symbol
_atom_site_fract_x
_atom_site_fract_y
_atom_site_fract_z
Zn1 Zn -0.000000 0.32508(8) 0.250000
Zn2 Zn 0.29625(5) 0.24771(6) 0.23675(8)
O1 O 0.0494(3) 0.3942(3) 0.2501(4)
O2 O 0.2930(3) 0.3879(4) 0.2821(5)
O3 O 0.2373(3) 0.2861(4) 0.2374(5)
O4 O 0.0750(3) 0.2877(4) 0.2261(5)
C1 C 0.1316(4) 0.4792(5) 0.2617(5)
H1 H 0.105621 0.506201 0.261040
C2 C 0.1267(4) 0.3981(5) 0.2523(6)
C3 C 0.1655(4) 0.3616(5) 0.2533(5)
H2 H 0.163331 0.308559 0.247771
C4 C 0.2083(4) 0.3997(5) 0.2622(6)
C5 C 0.1744(4) 0.5184(5) 0.2717(6)
C6 C 0.2134(4) 0.4756(5) 0.2728(6)
H3 H 0.243075 0.500615 0.280994
H4 H 0.006934 0.182167 0.174559
N3 N 0.3683(4) 0.2416(5) 0.3508(6)
C14 C 0.3788(5) 0.1871(7) 0.3996(8)
H8 H 0.351781 0.151399 0.386283
N5 N 0.4281(5) 0.1860(7) 0.4660(7)
C16 C 0.4570(6) 0.2427(9) 0.4626(10)
C19 C 0.4196(6) 0.2794(9) 0.3913(9)
C21 C 0.4851(8) 0.3661(13) 0.4149(14)
H12 H 0.496382 0.404377 0.398671
C22 C 0.4297(7) 0.3431(10) 0.3640(11)
H13 H 0.401899 0.367605 0.316410
C23 C 0.5215(9) 0.3364(13) 0.4836(14)
H14 H 0.556351 0.360299 0.516242
C25 C 0.5148(8) 0.2674(12) 0.5183(13)
H16 H 0.542954 0.244918 0.567023
O5 O 0.1394(3) 0.6389(4) 0.2691(5)
C27 C 0.2501(4) 0.3571(6) 0.2603(7)
C29 C 0.1763(4) 0.6033(5) 0.2751(6)
C30 C 0.0818(4) 0.3580(5) 0.2430(6)
C37 C 0.4752(7) 0.0575(9) 0.5105(8)
C38 C 0.4532(7) 0.1239(9) 0.5292(9)
H25 H 0.424852 0.105086 0.531085
H26 H 0.483733 0.145213 0.580644
O6 O 0.2175(3) 0.6363(4) 0.2843(4)
C41 C 0.5070(7) 0.0083(10) 0.5658(10)
H29 H 0.512813 0.009804 0.612641
C42 C 0.4679(8) 0.0464(11) 0.4464(9)
H30 H 0.443015 0.079238 0.404362
N9 N 0.0484(3) 0.2581(4) 0.3474(5)
N10 N 0.0685(3) 0.1614(5) 0.4250(5)
C60 C 0.0304(4) 0.1977(5) 0.3602(6)
C61 C 0.1052(4) 0.2612(6) 0.4126(7)
C63 C 0.1196(4) 0.2025(6) 0.4626(7)
C64 C 0.1458(5) 0.3153(7) 0.4332(7)
H44 H 0.136684 0.356775 0.400406
C66 C 0.1750(5) 0.1910(8) 0.5333(8)
H46 H 0.184289 0.148477 0.564983
C67 C 0.2135(6) 0.2425(8) 0.5535(9)
H47 H 0.250016 0.237514 0.601029
C70 C 0.1987(6) 0.3054(8) 0.5023(8)
H49 H 0.226154 0.340773 0.516754
C74 C 0.0894(5) 0.0238(6) 0.4586(6)
C79 C 0.0603(5) 0.0938(6) 0.4567(7)
H53 H 0.020462 0.083452 0.424081
H54 H 0.074739 0.104976 0.509815
H57 H 0.150073 0.015389 0.578029
H58 H 0.038524 0.010307 0.341903
Zn7 Zn 0.20375(5) 0.74771(6) 0.26325(8)
N14 N 0.2916(4) 0.2972(5) 0.1496(6)
O14 O 0.2825(3) 0.1363(4) 0.2157(4)
N7 N 0.6317(4) 0.7584(5) 0.6492(6)
C43 C 0.6212(5) 0.8129(7) 0.6004(8)
H31 H 0.648219 0.848601 0.613717
N8 N 0.5719(5) 0.8140(7) 0.5340(7)
C44 C 0.5430(6) 0.7573(9) 0.5374(10)
C45 C 0.5804(6) 0.7206(9) 0.6087(9)
C46 C 0.5149(8) 0.6339(13) 0.5851(14)
H32 H 0.503618 0.595623 0.601329
C47 C 0.5703(7) 0.6569(10) 0.6360(11)
H33 H 0.598101 0.632395 0.683590
C48 C 0.4785(9) 0.6636(13) 0.5164(14)
H34 H 0.443649 0.639701 0.483758
C49 C 0.4852(8) 0.7326(12) 0.4817(13)
H35 H 0.457046 0.755082 0.432977
C50 C 0.5248(7) 0.9425(9) 0.4895(8)
C51 C 0.5468(7) 0.8761(9) 0.4708(9)
H36 H 0.575148 0.894914 0.468915
H37 H 0.516267 0.854787 0.419356
C52 C 0.4930(7) 0.9917(10) 0.4342(10)
H38 H 0.487187 0.990196 0.387359
C53 C 0.5321(8) 0.9536(11) 0.5536(9)
H39 H 0.556985 0.920762 0.595638
N11 N 0.2084(4) 0.7972(5) 0.3504(6)
C62 C 0.2491(6) 0.8476(7) 0.4099(8)
C65 C 0.1757(5) 0.7831(6) 0.3657(8)
H45 H 0.145142 0.750102 0.335837
C68 C 0.2360(6) 0.8616(7) 0.4562(8)
C69 C 0.2977(6) 0.8773(8) 0.4253(8)
H48 H 0.306573 0.866354 0.393433
C71 C 0.2721(7) 0.9085(9) 0.5244(9)
H50 H 0.264356 0.917598 0.557937
C72 C 0.3167(7) 0.9388(10) 0.5392(9)
H51 H 0.339670 0.971162 0.582578
N12 N 0.1902(5) 0.8202(5) 0.4275(6)
C77 C 0.1568(5) 0.9214(6) 0.5314(7)
H52 H 0.185148 0.897591 0.579144
C78 C 0.1365(5) 0.8882(7) 0.4614(8)
C80 C 0.1620(6) 0.8123(7) 0.4628(8)
H55 H 0.189245 0.794666 0.517065
H56 H 0.132546 0.774040 0.433341
C81 C 0.1347(5) 0.9908(6) 0.5307(7)
C82 C 0.0689(5) 0.9892(7) 0.3900(7)
C83 C 0.3306(7) 0.9235(9) 0.4908(9)
H59 H 0.362776 0.945211 0.503772
C84 C 0.0944(6) 0.9197(7) 0.3916(8)
H60 H 0.081659 0.896901 0.344599
Zn8 Zn 0.70375(5) 0.75229(6) 0.76325(8)
Zn1_2 Zn 1.000000 0.32508(8) 0.250000
N1 N 0.9516(3) 0.2581(4) 0.1526(5)
N2 N 0.9315(3) 0.1614(5) 0.0750(5)
C7 C 0.9696(4) 0.1977(5) 0.1398(6)
C8 C 0.8948(4) 0.2612(6) 0.0874(7)
C10 C 0.8804(4) 0.2025(6) 0.0374(7)
C11 C 0.8542(5) 0.3153(7) 0.0668(7)
H5 H 0.863316 0.356775 0.099594
C28 C 0.9106(5) 0.0238(6) 0.0414(6)
C33 C 0.9397(5) 0.0938(6) 0.0433(7)
H19 H 0.979538 0.083452 0.075919
H24 H 0.961476 0.010307 0.158097
Zn3 Zn 0.70375(5) 0.24771(6) 0.26325(8)
O7 O 0.9506(3) 0.3942(3) 0.2499(4)
O8 O 0.7070(3) 0.3879(4) 0.2179(5)
O9 O 0.7627(3) 0.2861(4) 0.2626(5)
O10 O 0.9250(3) 0.2877(4) 0.2739(5)
C54 C 0.8684(4) 0.4792(5) 0.2383(5)
H40 H 0.894379 0.506201 0.238960
C55 C 0.8733(4) 0.3981(5) 0.2477(6)
C56 C 0.8345(4) 0.3616(5) 0.2467(5)
H41 H 0.836669 0.308559 0.252229
C57 C 0.7917(4) 0.3997(5) 0.2378(6)
C58 C 0.8256(4) 0.5184(5) 0.2283(6)
C59 C 0.7866(4) 0.4756(5) 0.2272(6)
H42 H 0.756925 0.500615 0.219006
H43 H 0.993066 0.182167 0.325441
O11 O 0.8606(3) 0.6389(4) 0.2309(5)
C73 C 0.7499(4) 0.3571(6) 0.2397(7)
C75 C 0.8237(4) 0.6033(5) 0.2249(6)
C76 C 0.9182(4) 0.3580(5) 0.2570(6)
O12 O 0.7825(3) 0.6363(4) 0.2157(4)
Zn5 Zn 0.79625(5) 0.74771(6) 0.23675(8)
N13 N 0.6317(4) 0.2416(5) 0.1492(6)
N15 N 0.7084(4) 0.2972(5) 0.3504(6)
O13 O 0.7175(3) 0.1363(4) 0.2843(4)
C13 C 0.8250(5) 0.1910(8) 0.9667(8)
H7 H 0.815711 0.148477 0.935017
C15 C 0.7865(6) 0.2425(8) 0.9465(9)
H9 H 0.749984 0.237514 0.898971
C20 C 0.8013(6) 0.3054(8) 0.9977(8)
H11 H 0.773846 0.340773 0.983246
H20 H 0.925261 0.104976 0.990185
H23 H 0.849927 0.015389 0.921971
N4 N 0.7916(4) 0.7972(5) 0.1496(6)
C9 C 0.7509(6) 0.8476(7) 0.0901(8)
C12 C 0.8243(5) 0.7831(6) 0.1343(8)
H6 H 0.854858 0.750102 0.164163
C17 C 0.7640(6) 0.8616(7) 0.0438(8)
C18 C 0.7023(6) 0.8773(8) 0.0747(8)
H10 H 0.693427 0.866354 0.106567
N6 N 0.8098(5) 0.8202(5) 0.0725(6)
C32 C 0.8635(5) 0.8882(7) 0.0386(8)
C34 C 0.8380(6) 0.8123(7) 0.0372(8)
H22 H 0.867454 0.774040 0.066659
C36 C 0.9311(5) 0.9892(7) 0.1100(7)
C39 C 0.6694(7) 0.9235(9) 0.0092(9)
C40 C 0.9056(6) 0.9197(7) 0.1084(8)
H28 H 0.918341 0.896901 0.155401
C24 C 0.7279(7) 0.9085(9) 0.9756(9)
H15 H 0.735644 0.917598 0.942063
C26 C 0.6833(7) 0.9388(10) 0.9608(9)
H17 H 0.660330 0.971162 0.917422
C31 C 0.8432(5) 0.9214(6) 0.9686(7)
H18 H 0.814852 0.897591 0.920856
H21 H 0.810755 0.794666 0.982935
C35 C 0.8653(5) 0.9908(6) 0.9693(7)
H27 H 0.637224 0.945211 0.996228
C14_2 C 0.6212(5) 0.1871(7) 0.1004(8)
H8_2 H 0.648219 0.151399 0.113717
N5_2 N 0.5719(5) 0.1860(7) 0.0340(7)
C16_2 C 0.5430(6) 0.2427(9) 0.0374(10)
C19_2 C 0.5804(6) 0.2794(9) 0.1087(9)
C21_2 C 0.5149(8) 0.3661(13) 0.0851(14)
H12_2 H 0.503618 0.404377 0.101329
C22_2 C 0.5703(7) 0.3431(10) 0.1360(11)
H13_2 H 0.598101 0.367605 0.183590
C23_2 C 0.4785(9) 0.3364(13) 0.0164(14)
C42_2 C 0.5321(8) 0.0464(11) 0.0536(9)
H30_2 H 0.556985 0.079238 0.095638
H14_2 H 0.443649 0.360299 0.983758
C25_2 C 0.4852(8) 0.2674(12) 0.9817(13)
H16_2 H 0.457046 0.244918 0.932977
C37_2 C 0.5248(7) 0.0575(9) 0.9895(8)
C38_2 C 0.5468(7) 0.1239(9) 0.9708(9)
H25_2 H 0.575148 0.105086 0.968915
H26_2 H 0.516267 0.145213 0.919356
C41_2 C 0.4930(7) 0.0083(10) 0.9342(10)
H29_2 H 0.487187 0.009804 0.887359
H34_2 H 0.556351 0.639701 0.016242
C49_2 C 0.5148(8) 0.7326(12) 0.0183(13)
H35_2 H 0.542954 0.755082 0.067023
C50_2 C 0.4752(7) 0.9425(9) 0.0105(8)
C51_2 C 0.4532(7) 0.8761(9) 0.0292(9)
H36_2 H 0.424852 0.894914 0.031085
H37_2 H 0.483733 0.854787 0.080644
C52_2 C 0.5070(7) 0.9917(10) 0.0658(10)
H38_2 H 0.512813 0.990196 0.112641
N7_2 N 0.3683(4) 0.7584(5) 0.8508(6)
C43_2 C 0.3788(5) 0.8129(7) 0.8996(8)
H31_2 H 0.351781 0.848601 0.886283
N8_2 N 0.4281(5) 0.8140(7) 0.9660(7)
C44_2 C 0.4570(6) 0.7573(9) 0.9626(10)
C45_2 C 0.4196(6) 0.7206(9) 0.8913(9)
C46_2 C 0.4851(8) 0.6339(13) 0.9149(14)
H32_2 H 0.496382 0.595623 0.898671
C47_2 C 0.4297(7) 0.6569(10) 0.8640(11)
H33_2 H 0.401899 0.632395 0.816410
C48_2 C 0.5215(9) 0.6636(13) 0.9836(14)
C53_2 C 0.4679(8) 0.9536(11) 0.9464(9)
H39_2 H 0.443015 0.920762 0.904362
Zn8_2 Zn 0.29625(5) 0.75229(6) 0.73675(8)
C23_3 C 0.0215(9) 0.8364(13) 0.4836(14)
H14_3 H 0.056351 0.860299 0.516242
C25_3 C 0.0148(8) 0.7674(12) 0.5183(13)
H16_3 H 0.042954 0.744918 0.567023
C41_3 C 0.0070(7) 0.5083(10) 0.5658(10)
H29_3 H 0.012813 0.509804 0.612641
N7_3 N 0.1317(4) 0.2584(5) 0.6492(6)
C43_3 C 0.1212(5) 0.3129(7) 0.6004(8)
H31_3 H 0.148219 0.348601 0.613717
N8_3 N 0.0719(5) 0.3140(7) 0.5340(7)
C44_3 C 0.0430(6) 0.2573(9) 0.5374(10)
C45_3 C 0.0804(6) 0.2206(9) 0.6087(9)
C46_3 C 0.0149(8) 0.1339(13) 0.5851(14)
H32_3 H 0.003618 0.095623 0.601329
C47_3 C 0.0703(7) 0.1569(10) 0.6360(11)
H33_3 H 0.098101 0.132395 0.683590
C50_3 C 0.0248(7) 0.4425(9) 0.4895(8)
C51_3 C 0.0468(7) 0.3761(9) 0.4708(9)
H36_3 H 0.075148 0.394914 0.468915
H37_3 H 0.016267 0.354787 0.419356
C53_3 C 0.0321(8) 0.4536(11) 0.5536(9)
H39_3 H 0.056985 0.420762 0.595638
Zn8_3 Zn 0.20375(5) 0.25229(6) 0.76325(8)
H1_2 H 0.605621 0.006201 0.261040
C5_2 C 0.6744(4) 0.0184(5) 0.2717(6)
H3_2 H 0.743075 0.000615 0.280994
O5_2 O 0.6394(3) 0.1389(4) 0.2691(5)
C29_2 C 0.6763(4) 0.1033(5) 0.2751(6)
H40_2 H 0.394379 0.006201 0.238960
C58_2 C 0.3256(4) 0.0184(5) 0.2283(6)
H42_2 H 0.256925 0.000615 0.219006
O11_2 O 0.3606(3) 0.1389(4) 0.2309(5)
C75_2 C 0.3237(4) 0.1033(5) 0.2249(6)
Zn1_3 Zn 0.500000 0.82508(8) 0.250000
O1_2 O 0.5494(3) 0.8942(3) 0.2501(4)
O2_2 O 0.7930(3) 0.8879(4) 0.2821(5)
O3_2 O 0.7373(3) 0.7861(4) 0.2374(5)
O4_2 O 0.5750(3) 0.7877(4) 0.2261(5)
C1_2 C 0.6316(4) 0.9792(5) 0.2617(5)
C2_2 C 0.6267(4) 0.8981(5) 0.2523(6)
C3_2 C 0.6655(4) 0.8616(5) 0.2533(5)
H2_2 H 0.663331 0.808559 0.247771
C4_2 C 0.7083(4) 0.8997(5) 0.2622(6)
C6_2 C 0.7134(4) 0.9756(5) 0.2728(6)
N1_2 N 0.4516(3) 0.7581(4) 0.1526(5)
N2_2 N 0.4315(3) 0.6614(5) 0.0750(5)
C7_2 C 0.4696(4) 0.6977(5) 0.1398(6)
H4_2 H 0.506934 0.682167 0.174559
N3_2 N 0.8683(4) 0.7416(5) 0.3508(6)
C8_2 C 0.3948(4) 0.7612(6) 0.0874(7)
C9_2 C 0.2509(6) 0.3476(7) 0.0901(8)
C10_2 C 0.3804(4) 0.7025(6) 0.0374(7)
C11_2 C 0.3542(5) 0.8153(7) 0.0668(7)
H5_2 H 0.363316 0.856775 0.099594
C12_2 C 0.3243(5) 0.2831(6) 0.1343(8)
H6_2 H 0.354858 0.250102 0.164163
C14_3 C 0.8788(5) 0.6871(7) 0.3996(8)
H8_3 H 0.851781 0.651399 0.386283
N5_3 N 0.9281(5) 0.6860(7) 0.4660(7)
C16_3 C 0.9570(6) 0.7427(9) 0.4626(10)
C17_2 C 0.2640(6) 0.3616(7) 0.0438(8)
C18_2 C 0.2023(6) 0.3773(8) 0.0747(8)
H10_2 H 0.193427 0.366354 0.106567
C19_3 C 0.9196(6) 0.7794(9) 0.3913(9)
C21_3 C 0.9851(8) 0.8661(13) 0.4149(14)
H12_3 H 0.996382 0.904377 0.398671
C22_3 C 0.9297(7) 0.8431(10) 0.3640(11)
H13_3 H 0.901899 0.867605 0.316410
N6_2 N 0.3098(5) 0.3202(5) 0.0725(6)
C27_2 C 0.7501(4) 0.8571(6) 0.2603(7)
C28_2 C 0.4106(5) 0.5238(6) 0.0414(6)
C30_2 C 0.5818(4) 0.8580(5) 0.2430(6)
C32_2 C 0.3635(5) 0.3882(7) 0.0386(8)
C33_2 C 0.4397(5) 0.5938(6) 0.0433(7)
H19_2 H 0.479538 0.583452 0.075919
C34_2 C 0.3380(6) 0.3123(7) 0.0372(8)
H22_2 H 0.367454 0.274040 0.066659
C36_2 C 0.4311(5) 0.4892(7) 0.1100(7)
H24_2 H 0.461476 0.510307 0.158097
C37_3 C 0.9752(7) 0.5575(9) 0.5105(8)
C38_3 C 0.9532(7) 0.6239(9) 0.5292(9)
H25_3 H 0.924852 0.605086 0.531085
H26_3 H 0.983733 0.645213 0.580644
C39_2 C 0.1694(7) 0.4235(9) 0.0092(9)
C40_2 C 0.4056(6) 0.4197(7) 0.1084(8)
H28_2 H 0.418341 0.396901 0.155401
C42_3 C 0.9679(8) 0.5464(11) 0.4464(9)
H30_3 H 0.943015 0.579238 0.404362
C48_3 C 0.9785(9) 0.1636(13) 0.5164(14)
H34_3 H 0.943649 0.139701 0.483758
C49_3 C 0.9852(8) 0.2326(12) 0.4817(13)
H35_3 H 0.957046 0.255082 0.432977
C52_3 C 0.9930(7) 0.4917(10) 0.4342(10)
H38_3 H 0.987187 0.490196 0.387359
O7_2 O 0.4506(3) 0.8942(3) 0.2499(4)
O8_2 O 0.2070(3) 0.8879(4) 0.2179(5)
O9_2 O 0.2627(3) 0.7861(4) 0.2626(5)
O10_2 O 0.4250(3) 0.7877(4) 0.2739(5)
C54_2 C 0.3684(4) 0.9792(5) 0.2383(5)
C55_2 C 0.3733(4) 0.8981(5) 0.2477(6)
C56_2 C 0.3345(4) 0.8616(5) 0.2467(5)
H41_2 H 0.336669 0.808559 0.252229
C57_2 C 0.2917(4) 0.8997(5) 0.2378(6)
C59_2 C 0.2866(4) 0.9756(5) 0.2272(6)
N9_2 N 0.5484(3) 0.7581(4) 0.3474(5)
N10_2 N 0.5685(3) 0.6614(5) 0.4250(5)
C60_2 C 0.5304(4) 0.6977(5) 0.3602(6)
H43_2 H 0.493066 0.682167 0.325441
C61_2 C 0.6052(4) 0.7612(6) 0.4126(7)
C62_2 C 0.7491(6) 0.3476(7) 0.4099(8)
C63_2 C 0.6196(4) 0.7025(6) 0.4626(7)
C64_2 C 0.6458(5) 0.8153(7) 0.4332(7)
H44_2 H 0.636684 0.856775 0.400406
C65_2 C 0.6757(5) 0.2831(6) 0.3657(8)
H45_2 H 0.645142 0.250102 0.335837
C66_2 C 0.6750(5) 0.6910(8) 0.5333(8)
H46_2 H 0.684289 0.648477 0.564983
C67_2 C 0.7135(6) 0.7425(8) 0.5535(9)
H47_2 H 0.750016 0.737514 0.601029
C68_2 C 0.7360(6) 0.3616(7) 0.4562(8)
C69_2 C 0.7977(6) 0.3773(8) 0.4253(8)
H48_2 H 0.806573 0.366354 0.393433
C70_2 C 0.6987(6) 0.8054(8) 0.5023(8)
H49_2 H 0.726154 0.840773 0.516754
C71_2 C 0.7721(7) 0.4085(9) 0.5244(9)
H50_2 H 0.764356 0.417598 0.557937
C72_2 C 0.8167(7) 0.4388(10) 0.5392(9)
H51_2 H 0.839670 0.471162 0.582578
N12_2 N 0.6902(5) 0.3202(5) 0.4275(6)
C73_2 C 0.2499(4) 0.8571(6) 0.2397(7)
C74_2 C 0.5894(5) 0.5238(6) 0.4586(6)
C76_2 C 0.4182(4) 0.8580(5) 0.2570(6)
C77_2 C 0.6568(5) 0.4214(6) 0.5314(7)
H52_2 H 0.685148 0.397591 0.579144
C78_2 C 0.6365(5) 0.3882(7) 0.4614(8)
C79_2 C 0.5603(5) 0.5938(6) 0.4567(7)
H53_2 H 0.520462 0.583452 0.424081
H54_2 H 0.574739 0.604976 0.509815
C80_2 C 0.6620(6) 0.3123(7) 0.4628(8)
H55_2 H 0.689245 0.294666 0.517065
H56_2 H 0.632546 0.274040 0.433341
C81_2 C 0.6347(5) 0.4908(6) 0.5307(7)
H57_2 H 0.650073 0.515389 0.578029
C82_2 C 0.5689(5) 0.4892(7) 0.3900(7)
H58_2 H 0.538524 0.510307 0.341903
C83_2 C 0.8306(7) 0.4235(9) 0.4908(9)
H59_2 H 0.862776 0.445211 0.503772
C84_2 C 0.5944(6) 0.4197(7) 0.3916(8)
H60_2 H 0.581659 0.396901 0.344599
N13_2 N 0.1317(4) 0.7416(5) 0.1492(6)
C14_4 C 0.1212(5) 0.6871(7) 0.1004(8)
H8_4 H 0.148219 0.651399 0.113717
N5_4 N 0.0719(5) 0.6860(7) 0.0340(7)
C16_4 C 0.0430(6) 0.7427(9) 0.0374(10)
C19_4 C 0.0804(6) 0.7794(9) 0.1087(9)
C21_4 C 0.0149(8) 0.8661(13) 0.0851(14)
H12_4 H 0.003618 0.904377 0.101329
C22_4 C 0.0703(7) 0.8431(10) 0.1360(11)
H13_4 H 0.098101 0.867605 0.183590
C42_4 C 0.0321(8) 0.5464(11) 0.0536(9)
H30_4 H 0.056985 0.579238 0.095638
H34_4 H 0.056351 0.139701 0.016242
C49_4 C 0.0148(8) 0.2326(12) 0.0183(13)
H35_4 H 0.042954 0.255082 0.067023
C52_4 C 0.0070(7) 0.4917(10) 0.0658(10)
H38_4 H 0.012813 0.490196 0.112641
H14_4 H 0.943649 0.860299 0.983758
C25_4 C 0.9852(8) 0.7674(12) 0.9817(13)
H16_4 H 0.957046 0.744918 0.932977
C41_4 C 0.9930(7) 0.5083(10) 0.9342(10)
H29_4 H 0.987187 0.509804 0.887359
N7_4 N 0.8683(4) 0.2584(5) 0.8508(6)
C43_4 C 0.8788(5) 0.3129(7) 0.8996(8)
H31_4 H 0.851781 0.348601 0.886283
N8_4 N 0.9281(5) 0.3140(7) 0.9660(7)
C44_4 C 0.9570(6) 0.2573(9) 0.9626(10)
C45_4 C 0.9196(6) 0.2206(9) 0.8913(9)
C46_4 C 0.9851(8) 0.1339(13) 0.9149(14)
H32_4 H 0.996382 0.095623 0.898671
C47_4 C 0.9297(7) 0.1569(10) 0.8640(11)
H33_4 H 0.901899 0.132395 0.816410
C53_4 C 0.9679(8) 0.4536(11) 0.9464(9)
H39_4 H 0.943015 0.420762 0.904362
Zn8_4 Zn 0.79625(5) 0.25229(6) 0.73675(8)
C24_2 C 0.2721(7) 0.0915(9) 0.0244(9)
H15_2 H 0.264356 0.082402 0.057937
C26_2 C 0.3167(7) 0.0612(10) 0.0392(9)
H17_2 H 0.339670 0.028838 0.082578
C31_2 C 0.1568(5) 0.0786(6) 0.0314(7)
H18_2 H 0.185148 0.102409 0.079144
H21_2 H 0.189245 0.205334 0.017065
C35_2 C 0.1347(5) 0.0092(6) 0.0307(7)
H27_2 H 0.362776 0.054789 0.003772
N4_2 N 0.2084(4) 0.2028(5) 0.8504(6)
C9_3 C 0.2491(6) 0.1524(7) 0.9099(8)
C12_3 C 0.1757(5) 0.2169(6) 0.8657(8)
H6_3 H 0.145142 0.249898 0.835837
C17_3 C 0.2360(6) 0.1384(7) 0.9562(8)
C18_3 C 0.2977(6) 0.1227(8) 0.9253(8)
H10_3 H 0.306573 0.133646 0.893433
N6_3 N 0.1902(5) 0.1798(5) 0.9275(6)
C32_3 C 0.1365(5) 0.1118(7) 0.9614(8)
C34_3 C 0.1620(6) 0.1877(7) 0.9628(8)
H22_3 H 0.132546 0.225960 0.933341
C36_3 C 0.0689(5) 0.0108(7) 0.8900(7)
C39_3 C 0.3306(7) 0.0765(9) 0.9908(9)
C40_3 C 0.0944(6) 0.0803(7) 0.8916(8)
H28_3 H 0.081659 0.103099 0.844599
C13_2 C 0.1750(5) 0.8090(8) 0.0333(8)
H7_2 H 0.184289 0.851523 0.064983
C15_2 C 0.2135(6) 0.7575(8) 0.0535(9)
H9_2 H 0.250016 0.762486 0.101029
C20_2 C 0.1987(6) 0.6946(8) 0.0023(8)
H11_2 H 0.226154 0.659227 0.016754
H20_2 H 0.074739 0.895024 0.009815
H23_2 H 0.150073 0.984611 0.078029
Zn1_4 Zn 0.000000 0.67492(8) 0.750000
N1_3 N 0.0484(3) 0.7419(4) 0.8474(5)
N2_3 N 0.0685(3) 0.8386(5) 0.9250(5)
C7_3 C 0.0304(4) 0.8023(5) 0.8602(6)
C8_3 C 0.1052(4) 0.7388(6) 0.9126(7)
C10_3 C 0.1196(4) 0.7975(6) 0.9626(7)
C11_3 C 0.1458(5) 0.6847(7) 0.9332(7)
H5_3 H 0.136684 0.643225 0.900406
C28_3 C 0.0894(5) 0.9762(6) 0.9586(6)
C33_3 C 0.0603(5) 0.9062(6) 0.9567(7)
H19_3 H 0.020462 0.916548 0.924081
H24_3 H 0.038524 0.989693 0.841903
O7_3 O 0.0494(3) 0.6058(3) 0.7501(4)
O8_3 O 0.2930(3) 0.6121(4) 0.7821(5)
O9_3 O 0.2373(3) 0.7139(4) 0.7374(5)
O10_3 O 0.0750(3) 0.7123(4) 0.7261(5)
C54_3 C 0.1316(4) 0.5208(5) 0.7617(5)
H40_3 H 0.105621 0.493799 0.761040
C55_3 C 0.1267(4) 0.6019(5) 0.7523(6)
C56_3 C 0.1655(4) 0.6384(5) 0.7533(5)
H41_3 H 0.163331 0.691441 0.747771
C57_3 C 0.2083(4) 0.6003(5) 0.7622(6)
C58_3 C 0.1744(4) 0.4816(5) 0.7717(6)
C59_3 C 0.2134(4) 0.5244(5) 0.7728(6)
H42_3 H 0.243075 0.499385 0.780994
H43_3 H 0.006934 0.817833 0.674559
O11_3 O 0.1394(3) 0.3611(4) 0.7691(5)
C73_3 C 0.2501(4) 0.6429(6) 0.7603(7)
C75_3 C 0.1763(4) 0.3967(5) 0.7751(6)
C76_3 C 0.0818(4) 0.6420(5) 0.7430(6)
O12_2 O 0.2175(3) 0.3637(4) 0.7843(4)
N15_2 N 0.2916(4) 0.7028(5) 0.6496(6)
O13_2 O 0.2825(3) 0.8637(4) 0.7157(4)
N11_2 N 0.7916(4) 0.2028(5) 0.6496(6)
C62_3 C 0.7509(6) 0.1524(7) 0.5901(8)
C65_3 C 0.8243(5) 0.2169(6) 0.6343(8)
H45_3 H 0.854858 0.249898 0.664163
C68_3 C 0.7640(6) 0.1384(7) 0.5438(8)
C69_3 C 0.7023(6) 0.1227(8) 0.5747(8)
H48_3 H 0.693427 0.133646 0.606567
C71_3 C 0.7279(7) 0.0915(9) 0.4756(9)
H50_3 H 0.735644 0.082402 0.442063
C72_3 C 0.6833(7) 0.0612(10) 0.4608(9)
H51_3 H 0.660330 0.028838 0.417422
N12_3 N 0.8098(5) 0.1798(5) 0.5725(6)
C77_3 C 0.8432(5) 0.0786(6) 0.4686(7)
H52_3 H 0.814852 0.102409 0.420856
C78_3 C 0.8635(5) 0.1118(7) 0.5386(8)
C80_3 C 0.8380(6) 0.1877(7) 0.5372(8)
H55_3 H 0.810755 0.205334 0.482935
H56_3 H 0.867454 0.225960 0.566659
C81_3 C 0.8653(5) 0.0092(6) 0.4693(7)
C82_3 C 0.9311(5) 0.0108(7) 0.6100(7)
C83_3 C 0.6694(7) 0.0765(9) 0.5092(9)
H59_3 H 0.637224 0.054789 0.496228
C84_3 C 0.9056(6) 0.0803(7) 0.6084(8)
H60_3 H 0.918341 0.103099 0.655401
Zn1_5 Zn 1.000000 0.67492(8) 0.750000
O1_3 O 0.9506(3) 0.6058(3) 0.7499(4)
O2_3 O 0.7070(3) 0.6121(4) 0.7179(5)
O3_3 O 0.7627(3) 0.7139(4) 0.7626(5)
O4_3 O 0.9250(3) 0.7123(4) 0.7739(5)
C1_3 C 0.8684(4) 0.5208(5) 0.7383(5)
H1_3 H 0.894379 0.493799 0.738960
C2_3 C 0.8733(4) 0.6019(5) 0.7477(6)
C3_3 C 0.8345(4) 0.6384(5) 0.7467(5)
H2_3 H 0.836669 0.691441 0.752229
C4_3 C 0.7917(4) 0.6003(5) 0.7378(6)
C5_3 C 0.8256(4) 0.4816(5) 0.7283(6)
C6_3 C 0.7866(4) 0.5244(5) 0.7272(6)
H3_3 H 0.756925 0.499385 0.719006
H4_3 H 0.993066 0.817833 0.825441
O5_3 O 0.8606(3) 0.3611(4) 0.7309(5)
C27_3 C 0.7499(4) 0.6429(6) 0.7397(7)
C29_3 C 0.8237(4) 0.3967(5) 0.7249(6)
C30_3 C 0.9182(4) 0.6420(5) 0.7570(6)
O6_2 O 0.7825(3) 0.3637(4) 0.7157(4)
N9_3 N 0.9516(3) 0.7419(4) 0.6526(5)
N10_3 N 0.9315(3) 0.8386(5) 0.5750(5)
C60_3 C 0.9696(4) 0.8023(5) 0.6398(6)
C61_3 C 0.8948(4) 0.7388(6) 0.5874(7)
C63_3 C 0.8804(4) 0.7975(6) 0.5374(7)
C64_3 C 0.8542(5) 0.6847(7) 0.5668(7)
H44_3 H 0.863316 0.643225 0.599594
C66_3 C 0.8250(5) 0.8090(8) 0.4667(8)
H46_3 H 0.815711 0.851523 0.435017
C67_3 C 0.7865(6) 0.7575(8) 0.4465(9)
H47_3 H 0.749984 0.762486 0.398971
C70_3 C 0.8013(6) 0.6946(8) 0.4977(8)
H49_3 H 0.773846 0.659227 0.483246
C74_3 C 0.9106(5) 0.9762(6) 0.5414(6)
C79_3 C 0.9397(5) 0.9062(6) 0.5433(7)
H53_3 H 0.979538 0.916548 0.575919
H54_3 H 0.925261 0.895024 0.490185
H57_3 H 0.849927 0.984611 0.421971
H58_3 H 0.961476 0.989693 0.658097
N14_2 N 0.7084(4) 0.7028(5) 0.8504(6)
O14_2 O 0.7175(3) 0.8637(4) 0.7843(4)
Zn1_6 Zn 0.500000 0.17492(8) 0.750000
O1_4 O 0.4506(3) 0.1058(3) 0.7499(4)
O2_4 O 0.2070(3) 0.1121(4) 0.7179(5)
O3_4 O 0.2627(3) 0.2139(4) 0.7626(5)
O4_4 O 0.4250(3) 0.2123(4) 0.7739(5)
C1_4 C 0.3684(4) 0.0208(5) 0.7383(5)
C2_4 C 0.3733(4) 0.1019(5) 0.7477(6)
C3_4 C 0.3345(4) 0.1384(5) 0.7467(5)
H2_4 H 0.336669 0.191441 0.752229
C4_4 C 0.2917(4) 0.1003(5) 0.7378(6)
C6_4 C 0.2866(4) 0.0244(5) 0.7272(6)
N1_4 N 0.5484(3) 0.2419(4) 0.8474(5)
N2_4 N 0.5685(3) 0.3386(5) 0.9250(5)
C7_4 C 0.5304(4) 0.3023(5) 0.8602(6)
H4_4 H 0.493066 0.317833 0.825441
C8_4 C 0.6052(4) 0.2388(6) 0.9126(7)
C9_4 C 0.7491(6) 0.6524(7) 0.9099(8)
C10_4 C 0.6196(4) 0.2975(6) 0.9626(7)
C11_4 C 0.6458(5) 0.1847(7) 0.9332(7)
H5_4 H 0.636684 0.143225 0.900406
C12_4 C 0.6757(5) 0.7169(6) 0.8657(8)
H6_4 H 0.645142 0.749898 0.835837
C17_4 C 0.7360(6) 0.6384(7) 0.9562(8)
C18_4 C 0.7977(6) 0.6227(8) 0.9253(8)
H10_4 H 0.806573 0.633646 0.893433
N6_4 N 0.6902(5) 0.6798(5) 0.9275(6)
C27_4 C 0.2499(4) 0.1429(6) 0.7397(7)
C28_4 C 0.5894(5) 0.4762(6) 0.9586(6)
C30_4 C 0.4182(4) 0.1420(5) 0.7570(6)
C32_4 C 0.6365(5) 0.6118(7) 0.9614(8)
C33_4 C 0.5603(5) 0.4062(6) 0.9567(7)
H19_4 H 0.520462 0.416548 0.924081
C34_4 C 0.6620(6) 0.6877(7) 0.9628(8)
H22_4 H 0.632546 0.725960 0.933341
C36_4 C 0.5689(5) 0.5108(7) 0.8900(7)
H24_4 H 0.538524 0.489693 0.841903
C39_4 C 0.8306(7) 0.5765(9) 0.9908(9)
C40_4 C 0.5944(6) 0.5803(7) 0.8916(8)
H28_4 H 0.581659 0.603099 0.844599
O7_4 O 0.5494(3) 0.1058(3) 0.7501(4)
O8_4 O 0.7930(3) 0.1121(4) 0.7821(5)
O9_4 O 0.7373(3) 0.2139(4) 0.7374(5)
O10_4 O 0.5750(3) 0.2123(4) 0.7261(5)
C54_4 C 0.6316(4) 0.0208(5) 0.7617(5)
C55_4 C 0.6267(4) 0.1019(5) 0.7523(6)
C56_4 C 0.6655(4) 0.1384(5) 0.7533(5)
H41_4 H 0.663331 0.191441 0.747771
C57_4 C 0.7083(4) 0.1003(5) 0.7622(6)
C59_4 C 0.7134(4) 0.0244(5) 0.7728(6)
N9_4 N 0.4516(3) 0.2419(4) 0.6526(5)
N10_4 N 0.4315(3) 0.3386(5) 0.5750(5)
C60_4 C 0.4696(4) 0.3023(5) 0.6398(6)
H43_4 H 0.506934 0.317833 0.674559
C61_4 C 0.3948(4) 0.2388(6) 0.5874(7)
C62_4 C 0.2509(6) 0.6524(7) 0.5901(8)
C63_4 C 0.3804(4) 0.2975(6) 0.5374(7)
C64_4 C 0.3542(5) 0.1847(7) 0.5668(7)
H44_4 H 0.363316 0.143225 0.599594
C65_4 C 0.3243(5) 0.7169(6) 0.6343(8)
H45_4 H 0.354858 0.749898 0.664163
C66_4 C 0.3250(5) 0.3090(8) 0.4667(8)
H46_4 H 0.315711 0.351523 0.435017
C67_4 C 0.2865(6) 0.2575(8) 0.4465(9)
H47_4 H 0.249984 0.262486 0.398971
C68_4 C 0.2640(6) 0.6384(7) 0.5438(8)
C69_4 C 0.2023(6) 0.6227(8) 0.5747(8)
H48_4 H 0.193427 0.633646 0.606567
C70_4 C 0.3013(6) 0.1946(8) 0.4977(8)
H49_4 H 0.273846 0.159227 0.483246
C71_4 C 0.2279(7) 0.5915(9) 0.4756(9)
H50_4 H 0.235644 0.582402 0.442063
C72_4 C 0.1833(7) 0.5612(10) 0.4608(9)
H51_4 H 0.160330 0.528838 0.417422
N12_4 N 0.3098(5) 0.6798(5) 0.5725(6)
C73_4 C 0.7501(4) 0.1429(6) 0.7603(7)
C74_4 C 0.4106(5) 0.4762(6) 0.5414(6)
C76_4 C 0.5818(4) 0.1420(5) 0.7430(6)
C77_4 C 0.3432(5) 0.5786(6) 0.4686(7)
H52_4 H 0.314852 0.602409 0.420856
C78_4 C 0.3635(5) 0.6118(7) 0.5386(8)
C79_4 C 0.4397(5) 0.4062(6) 0.5433(7)
H53_4 H 0.479538 0.416548 0.575919
H54_4 H 0.425261 0.395024 0.490185
C80_4 C 0.3380(6) 0.6877(7) 0.5372(8)
H55_4 H 0.310755 0.705334 0.482935
H56_4 H 0.367454 0.725960 0.566659
C81_4 C 0.3653(5) 0.5092(6) 0.4693(7)
H57_4 H 0.349927 0.484611 0.421971
C82_4 C 0.4311(5) 0.5108(7) 0.6100(7)
H58_4 H 0.461476 0.489693 0.658097
C83_4 C 0.1694(7) 0.5765(9) 0.5092(9)
H59_4 H 0.137224 0.554789 0.496228
C84_4 C 0.4056(6) 0.5803(7) 0.6084(8)
H60_4 H 0.418341 0.603099 0.655401
H1_4 H 0.394379 0.993799 0.738960
C5_4 C 0.3256(4) 0.9816(5) 0.7283(6)
H3_4 H 0.256925 0.999385 0.719006
O5_4 O 0.3606(3) 0.8611(4) 0.7309(5)
C29_4 C 0.3237(4) 0.8967(5) 0.7249(6)
H40_4 H 0.605621 0.993799 0.761040
C58_4 C 0.6744(4) 0.9816(5) 0.7717(6)
H42_4 H 0.743075 0.999385 0.780994
O11_4 O 0.6394(3) 0.8611(4) 0.7691(5)
C75_4 C 0.6763(4) 0.8967(5) 0.7751(6)
C13_3 C 0.3250(5) 0.6910(8) 0.9667(8)
H7_3 H 0.315711 0.648477 0.935017
C15_3 C 0.2865(6) 0.7425(8) 0.9465(9)
H9_3 H 0.249984 0.737514 0.898971
C20_3 C 0.3013(6) 0.8054(8) 0.9977(8)
H11_3 H 0.273846 0.840773 0.983246
C24_3 C 0.2279(7) 0.4085(9) 0.9756(9)
H15_3 H 0.235644 0.417598 0.942063
C26_3 C 0.1833(7) 0.4388(10) 0.9608(9)
H17_3 H 0.160330 0.471162 0.917422
C31_3 C 0.3432(5) 0.4214(6) 0.9686(7)
H18_3 H 0.314852 0.397591 0.920856
H20_3 H 0.425261 0.604976 0.990185
H21_3 H 0.310755 0.294666 0.982935
C35_3 C 0.3653(5) 0.4908(6) 0.9693(7)
H23_3 H 0.349927 0.515389 0.921971
H27_3 H 0.137224 0.445211 0.996228
C37_4 C 0.0248(7) 0.5575(9) 0.9895(8)
C38_4 C 0.0468(7) 0.6239(9) 0.9708(9)
H25_4 H 0.075148 0.605086 0.968915
H26_4 H 0.016267 0.645213 0.919356
C48_4 C 0.0215(9) 0.1636(13) 0.9836(14)
C23_4 C 0.9785(9) 0.8364(13) 0.0164(14)
C50_4 C 0.9752(7) 0.4425(9) 0.0105(8)
C51_4 C 0.9532(7) 0.3761(9) 0.0292(9)
H36_4 H 0.924852 0.394914 0.031085
H37_4 H 0.983733 0.354787 0.080644
C13_4 C 0.6750(5) 0.3090(8) 0.0333(8)
H7_4 H 0.684289 0.351523 0.064983
C15_4 C 0.7135(6) 0.2575(8) 0.0535(9)
H9_4 H 0.750016 0.262486 0.101029
C20_4 C 0.6987(6) 0.1946(8) 0.0023(8)
H11_4 H 0.726154 0.159227 0.016754
C24_4 C 0.7721(7) 0.5915(9) 0.0244(9)
H15_4 H 0.764356 0.582402 0.057937
C26_4 C 0.8167(7) 0.5612(10) 0.0392(9)
H17_4 H 0.839670 0.528838 0.082578
C31_4 C 0.6568(5) 0.5786(6) 0.0314(7)
H18_4 H 0.685148 0.602409 0.079144
H20_4 H 0.574739 0.395024 0.009815
H21_4 H 0.689245 0.705334 0.017065
C35_4 C 0.6347(5) 0.5092(6) 0.0307(7)
H23_4 H 0.650073 0.484611 0.078029
H27_4 H 0.862776 0.554789 0.003772
loop_
_geom_bond_atom_site_label_1
_geom_bond_atom_site_label_2
_geom_bond_site_symmetry_1
_geom_bond_site_symmetry_2
Zn1 O1 1_555 1_555
Zn2 O3 1_555 1_555
O1 C30 1_555 1_555
O2 C27 1_555 1_555
O3 C27 1_555 1_555
O4 C30 1_555 1_555
C1 H1 1_555 1_555
C2 C1 1_555 1_555
C3 C2 1_555 1_555
H2 C3 1_555 1_555
C4 C3 1_555 1_555
C5 C1 1_555 1_555
C6 C4 1_555 1_555
H3 C6 1_555 1_555
N3 Zn2 1_555 1_555
C14 N3 1_555 1_555
H8 C14 1_555 1_555
N5 C14 1_555 1_555
C16 N5 1_555 1_555
C19 N3 1_555 1_555
C21 H12 1_555 1_555
C22 C19 1_555 1_555
H13 C22 1_555 1_555
C23 C21 1_555 1_555
H14 C23 1_555 1_555
C25 C16 1_555 1_555
H16 C25 1_555 1_555
O5 C29 1_555 1_555
C27 C4 1_555 1_555
C29 C5 1_555 1_555
C30 C2 1_555 1_555
C37 C38 1_555 1_555
C38 N5 1_555 1_555
H25 C38 1_555 1_555
H26 C38 1_555 1_555
O6 C29 1_555 1_555
C41 C37 1_555 1_555
H29 C41 1_555 1_555
C42 C37 1_555 1_555
H30 C42 1_555 1_555
N9 Zn1 1_555 1_555
N10 C60 1_555 1_555
C60 N9 1_555 1_555
C61 N9 1_555 1_555
C63 N10 1_555 1_555
C64 C61 1_555 1_555
H44 C64 1_555 1_555
C66 C63 1_555 1_555
H46 C66 1_555 1_555
C67 C66 1_555 1_555
H47 C67 1_555 1_555
C70 C64 1_555 1_555
H49 C70 1_555 1_555
C74 C79 1_555 1_555
C79 N10 1_555 1_555
H53 C79 1_555 1_555
H54 C79 1_555 1_555
Zn7 O6 1_555 1_555
N14 Zn2 1_555 1_555
O14 Zn2 1_555 1_555
C5 C6 1_555 1_555
C16 C19 1_555 1_555
C21 C22 1_555 1_555
C23 C25 1_555 1_555
C61 C63 1_555 1_555
C67 C70 1_555 1_555
N7 C43 1_555 1_555
C43 H31 1_555 1_555
N8 C43 1_555 1_555
C44 N8 1_555 1_555
C45 N7 1_555 1_555
C46 H32 1_555 1_555
C47 C45 1_555 1_555
H33 C47 1_555 1_555
C48 C46 1_555 1_555
H34 C48 1_555 1_555
C49 C44 1_555 1_555
H35 C49 1_555 1_555
C50 C51 1_555 1_555
C51 N8 1_555 1_555
H36 C51 1_555 1_555
H37 C51 1_555 1_555
H38 C52 1_555 1_555
H39 C53 1_555 1_555
N11 C62 1_555 1_555
C62 C68 1_555 1_555
C65 N11 1_555 1_555
H45 C65 1_555 1_555
C68 C71 1_555 1_555
C69 C62 1_555 1_555
H48 C69 1_555 1_555
C71 H50 1_555 1_555
C72 C71 1_555 1_555
H51 C72 1_555 1_555
N12 C65 1_555 1_555
C77 H52 1_555 1_555
C78 C77 1_555 1_555
C80 N12 1_555 1_555
H55 C80 1_555 1_555
H56 C80 1_555 1_555
C83 C69 1_555 1_555
H59 C83 1_555 1_555
C84 C78 1_555 1_555
H60 C84 1_555 1_555
Zn7 N11 1_555 1_555
Zn8 N7 1_555 1_555
C44 C45 1_555 1_555
C46 C47 1_555 1_555
C48 C49 1_555 1_555
C50 C52 1_555 1_555
C50 C53 1_555 1_555
C68 N12 1_555 1_555
C72 C83 1_555 1_555
C77 C81 1_555 1_555
C78 C80 1_555 1_555
C82 C84 1_555 1_555
N1 Zn1_2 1_555 1_555
N2 C7 1_555 1_555
C7 N1 1_555 1_555
C8 N1 1_555 1_555
C10 N2 1_555 1_555
C11 C8 1_555 1_555
H5 C11 1_555 1_555
C28 C33 1_555 1_555
C33 N2 1_555 1_555
H19 C33 1_555 1_555
Zn3 O9 1_555 1_555
O7 Zn1_2 1_555 1_555
O8 C73 1_555 1_555
O9 C73 1_555 1_555
O10 C76 1_555 1_555
C54 H40 1_555 1_555
C55 C54 1_555 1_555
C56 C55 1_555 1_555
H41 C56 1_555 1_555
C57 C56 1_555 1_555
C58 C54 1_555 1_555
C59 C57 1_555 1_555
H42 C59 1_555 1_555
O11 C75 1_555 1_555
C73 C57 1_555 1_555
C75 C58 1_555 1_555
C76 O7 1_555 1_555
O12 C75 1_555 1_555
Zn5 O12 1_555 1_555
N13 Zn3 1_555 1_555
N15 Zn3 1_555 1_555
O13 Zn3 1_555 1_555
C8 C10 1_555 1_555
C55 C76 1_555 1_555
C58 C59 1_555 1_555
H7 C13 1_555 1_555
C15 C13 1_555 1_555
H9 C15 1_555 1_555
H11 C20 1_555 1_555
C15 C20 1_555 1_555
N4 C9 1_555 1_555
C9 C17 1_555 1_555
C12 N4 1_555 1_555
H6 C12 1_555 1_555
C18 C9 1_555 1_555
H10 C18 1_555 1_555
N6 C12 1_555 1_555
C34 N6 1_555 1_555
H22 C34 1_555 1_555
C39 C18 1_555 1_555
C40 C32 1_555 1_555
H28 C40 1_555 1_555
Zn5 N4 1_555 1_555
C17 N6 1_555 1_555
C32 C34 1_555 1_555
C36 C40 1_555 1_555
C24 H15 1_555 1_555
C26 C24 1_555 1_555
H17 C26 1_555 1_555
C31 H18 1_555 1_555
C31 C35 1_555 1_555
C14_2 N13 1_555 1_555
H8_2 C14_2 1_555 1_555
N5_2 C14_2 1_555 1_555
C16_2 N5_2 1_555 1_555
C19_2 N13 1_555 1_555
C21_2 H12_2 1_555 1_555
C22_2 C19_2 1_555 1_555
H13_2 C22_2 1_555 1_555
C23_2 C21_2 1_555 1_555
H30_2 C42_2 1_555 1_555
C16_2 C19_2 1_555 1_555
C21_2 C22_2 1_555 1_555
H16_2 C25_2 1_555 1_555
C37_2 C38_2 1_555 1_555
H25_2 C38_2 1_555 1_555
H26_2 C38_2 1_555 1_555
C41_2 C37_2 1_555 1_555
H29_2 C41_2 1_555 1_555
H35_2 C49_2 1_555 1_555
C50_2 C51_2 1_555 1_555
H36_2 C51_2 1_555 1_555
H37_2 C51_2 1_555 1_555
H38_2 C52_2 1_555 1_555
C50_2 C52_2 1_555 1_555
N7_2 C43_2 1_555 1_555
C43_2 H31_2 1_555 1_555
N8_2 C43_2 1_555 1_555
C44_2 N8_2 1_555 1_555
C45_2 N7_2 1_555 1_555
C46_2 H32_2 1_555 1_555
C47_2 C45_2 1_555 1_555
H33_2 C47_2 1_555 1_555
C48_2 C46_2 1_555 1_555
H39_2 C53_2 1_555 1_555
Zn8_2 N7_2 1_555 1_555
C44_2 C45_2 1_555 1_555
C46_2 C47_2 1_555 1_555
H14_3 C23_3 1_555 1_555
H16_3 C25_3 1_555 1_555
H29_3 C41_3 1_555 1_555
N7_3 C43_3 1_555 1_555
C43_3 H31_3 1_555 1_555
N8_3 C43_3 1_555 1_555
C44_3 N8_3 1_555 1_555
C45_3 N7_3 1_555 1_555
C46_3 H32_3 1_555 1_555
C47_3 C45_3 1_555 1_555
H33_3 C47_3 1_555 1_555
C50_3 C51_3 1_555 1_555
C51_3 N8_3 1_555 1_555
H36_3 C51_3 1_555 1_555
H37_3 C51_3 1_555 1_555
C53_3 C41_3 1_555 1_555
H39_3 C53_3 1_555 1_555
Zn8_3 N7_3 1_555 1_555
C23_3 C25_3 1_555 1_555
C44_3 C45_3 1_555 1_555
C46_3 C47_3 1_555 1_555
C50_3 C53_3 1_555 1_555
O5_2 C29_2 1_555 1_555
C29_2 C5_2 1_555 1_555
O13 C29_2 1_555 1_555
O11_2 C75_2 1_555 1_555
C75_2 C58_2 1_555 1_555
O14 C75_2 1_555 1_555
Zn1_3 O1_2 1_555 1_555
Zn5 O3_2 1_555 1_555
O1_2 C30_2 1_555 1_555
O2_2 C27_2 1_555 1_555
O3_2 C27_2 1_555 1_555
O4_2 C30_2 1_555 1_555
C2_2 C1_2 1_555 1_555
C3_2 C2_2 1_555 1_555
H2_2 C3_2 1_555 1_555
C4_2 C3_2 1_555 1_555
C6_2 C4_2 1_555 1_555
N1_2 Zn1_3 1_555 1_555
N2_2 C7_2 1_555 1_555
C7_2 N1_2 1_555 1_555
H4_2 C7_2 1_555 1_555
N3_2 Zn5 1_555 1_555
C8_2 N1_2 1_555 1_555
N14 C9_2 1_555 1_555
C9_2 C17_2 1_555 1_555
C10_2 N2_2 1_555 1_555
C11_2 C8_2 1_555 1_555
H5_2 C11_2 1_555 1_555
C12_2 N14 1_555 1_555
H6_2 C12_2 1_555 1_555
C14_3 N3_2 1_555 1_555
H8_3 C14_3 1_555 1_555
N5_3 C14_3 1_555 1_555
C16_3 N5_3 1_555 1_555
C18_2 C9_2 1_555 1_555
H10_2 C18_2 1_555 1_555
C19_3 N3_2 1_555 1_555
C21_3 H12_3 1_555 1_555
C22_3 C19_3 1_555 1_555
H13_3 C22_3 1_555 1_555
N6_2 C12_2 1_555 1_555
C27_2 C4_2 1_555 1_555
C28_2 C33_2 1_555 1_555
C30_2 C2_2 1_555 1_555
C33_2 N2_2 1_555 1_555
H19_2 C33_2 1_555 1_555
C34_2 N6_2 1_555 1_555
H22_2 C34_2 1_555 1_555
C36_2 C28_2 1_555 1_555
H24_2 C36_2 1_555 1_555
C37_3 C38_3 1_555 1_555
C38_3 N5_3 1_555 1_555
H25_3 C38_3 1_555 1_555
H26_3 C38_3 1_555 1_555
C39_2 C18_2 1_555 1_555
C40_2 C32_2 1_555 1_555
H28_2 C40_2 1_555 1_555
C42_3 C37_3 1_555 1_555
H30_3 C42_3 1_555 1_555
H34_3 C48_3 1_555 1_555
H35_3 C49_3 1_555 1_555
C52_3 C42_3 1_555 1_555
H38_3 C52_3 1_555 1_555
Zn7 O9_2 1_555 1_555
O7_2 Zn1_3 1_555 1_555
O8_2 C73_2 1_555 1_555
O9_2 C73_2 1_555 1_555
O10_2 C76_2 1_555 1_555
C55_2 C54_2 1_555 1_555
C56_2 C55_2 1_555 1_555
H41_2 C56_2 1_555 1_555
C57_2 C56_2 1_555 1_555
C59_2 C57_2 1_555 1_555
N9_2 Zn1_3 1_555 1_555
N10_2 C60_2 1_555 1_555
C60_2 N9_2 1_555 1_555
H43_2 C60_2 1_555 1_555
C61_2 N9_2 1_555 1_555
N15 C62_2 1_555 1_555
C62_2 C68_2 1_555 1_555
C63_2 N10_2 1_555 1_555
C64_2 C61_2 1_555 1_555
H44_2 C64_2 1_555 1_555
C65_2 N15 1_555 1_555
H45_2 C65_2 1_555 1_555
C66_2 C63_2 1_555 1_555
H46_2 C66_2 1_555 1_555
C67_2 C66_2 1_555 1_555
H47_2 C67_2 1_555 1_555
C68_2 C71_2 1_555 1_555
C69_2 C62_2 1_555 1_555
H48_2 C69_2 1_555 1_555
C70_2 C64_2 1_555 1_555
H49_2 C70_2 1_555 1_555
C71_2 H50_2 1_555 1_555
C72_2 C71_2 1_555 1_555
H51_2 C72_2 1_555 1_555
N12_2 C65_2 1_555 1_555
C73_2 C57_2 1_555 1_555
C74_2 C79_2 1_555 1_555
C76_2 O7_2 1_555 1_555
C77_2 H52_2 1_555 1_555
C78_2 C77_2 1_555 1_555
C79_2 N10_2 1_555 1_555
H53_2 C79_2 1_555 1_555
H54_2 C79_2 1_555 1_555
C80_2 N12_2 1_555 1_555
H55_2 C80_2 1_555 1_555
H56_2 C80_2 1_555 1_555
C81_2 C74_2 1_555 1_555
H57_2 C81_2 1_555 1_555
C82_2 C74_2 1_555 1_555
H58_2 C82_2 1_555 1_555
C83_2 C69_2 1_555 1_555
H59_2 C83_2 1_555 1_555
C84_2 C78_2 1_555 1_555
H60_2 C84_2 1_555 1_555
N13_2 Zn7 1_555 1_555
C8_2 C10_2 1_555 1_555
C16_3 C19_3 1_555 1_555
C17_2 N6_2 1_555 1_555
C21_3 C22_3 1_555 1_555
C32_2 C34_2 1_555 1_555
C36_2 C40_2 1_555 1_555
C48_3 C49_3 1_555 1_555
C55_2 C76_2 1_555 1_555
C61_2 C63_2 1_555 1_555
C67_2 C70_2 1_555 1_555
C68_2 N12_2 1_555 1_555
C72_2 C83_2 1_555 1_555
C77_2 C81_2 1_555 1_555
C78_2 C80_2 1_555 1_555
C82_2 C84_2 1_555 1_555
C14_4 N13_2 1_555 1_555
H8_4 C14_4 1_555 1_555
N5_4 C14_4 1_555 1_555
C16_4 N5_4 1_555 1_555
C19_4 N13_2 1_555 1_555
C21_4 H12_4 1_555 1_555
C22_4 C19_4 1_555 1_555
H13_4 C22_4 1_555 1_555
H30_4 C42_4 1_555 1_555
H35_4 C49_4 1_555 1_555
C52_4 C42_4 1_555 1_555
H38_4 C52_4 1_555 1_555
C16_4 C19_4 1_555 1_555
C21_4 C22_4 1_555 1_555
H16_4 C25_4 1_555 1_555
H29_4 C41_4 1_555 1_555
N7_4 C43_4 1_555 1_555
C43_4 H31_4 1_555 1_555
N8_4 C43_4 1_555 1_555
C44_4 N8_4 1_555 1_555
C45_4 N7_4 1_555 1_555
C46_4 H32_4 1_555 1_555
C47_4 C45_4 1_555 1_555
H33_4 C47_4 1_555 1_555
C53_4 C41_4 1_555 1_555
H39_4 C53_4 1_555 1_555
Zn8_4 N7_4 1_555 1_555
C44_4 C45_4 1_555 1_555
C46_4 C47_4 1_555 1_555
C24_2 H15_2 1_555 1_555
C26_2 C24_2 1_555 1_555
H17_2 C26_2 1_555 1_555
C31_2 H18_2 1_555 1_555
C31_2 C35_2 1_555 1_555
N4_2 C9_3 1_555 1_555
C9_3 C17_3 1_555 1_555
C12_3 N4_2 1_555 1_555
H6_3 C12_3 1_555 1_555
C18_3 C9_3 1_555 1_555
H10_3 C18_3 1_555 1_555
N6_3 C12_3 1_555 1_555
C34_3 N6_3 1_555 1_555
H22_3 C34_3 1_555 1_555
C39_3 C18_3 1_555 1_555
C40_3 C32_3 1_555 1_555
H28_3 C40_3 1_555 1_555
Zn8_3 N4_2 1_555 1_555
C17_3 N6_3 1_555 1_555
C32_3 C34_3 1_555 1_555
C36_3 C40_3 1_555 1_555
H7_2 C13_2 1_555 1_555
C15_2 C13_2 1_555 1_555
H9_2 C15_2 1_555 1_555
H11_2 C20_2 1_555 1_555
C15_2 C20_2 1_555 1_555
N1_3 Zn1_4 1_555 1_555
N2_3 C7_3 1_555 1_555
C7_3 N1_3 1_555 1_555
C8_3 N1_3 1_555 1_555
C10_3 N2_3 1_555 1_555
C11_3 C8_3 1_555 1_555
H5_3 C11_3 1_555 1_555
C28_3 C33_3 1_555 1_555
C33_3 N2_3 1_555 1_555
H19_3 C33_3 1_555 1_555
Zn8_2 O9_3 1_555 1_555
O7_3 Zn1_4 1_555 1_555
O8_3 C73_3 1_555 1_555
O9_3 C73_3 1_555 1_555
O10_3 C76_3 1_555 1_555
C54_3 H40_3 1_555 1_555
C55_3 C54_3 1_555 1_555
C56_3 C55_3 1_555 1_555
H41_3 C56_3 1_555 1_555
C57_3 C56_3 1_555 1_555
C58_3 C54_3 1_555 1_555
C59_3 C57_3 1_555 1_555
H42_3 C59_3 1_555 1_555
O11_3 C75_3 1_555 1_555
C73_3 C57_3 1_555 1_555
C75_3 C58_3 1_555 1_555
C76_3 O7_3 1_555 1_555
O12_2 C75_3 1_555 1_555
Zn8_3 O12_2 1_555 1_555
N15_2 Zn8_2 1_555 1_555
O13_2 Zn8_2 1_555 1_555
C8_3 C10_3 1_555 1_555
C55_3 C76_3 1_555 1_555
C58_3 C59_3 1_555 1_555
N11_2 C62_3 1_555 1_555
C62_3 C68_3 1_555 1_555
C65_3 N11_2 1_555 1_555
H45_3 C65_3 1_555 1_555
C68_3 C71_3 1_555 1_555
C69_3 C62_3 1_555 1_555
H48_3 C69_3 1_555 1_555
C71_3 H50_3 1_555 1_555
C72_3 C71_3 1_555 1_555
H51_3 C72_3 1_555 1_555
N12_3 C65_3 1_555 1_555
C77_3 H52_3 1_555 1_555
C78_3 C77_3 1_555 1_555
C80_3 N12_3 1_555 1_555
H55_3 C80_3 1_555 1_555
H56_3 C80_3 1_555 1_555
C83_3 C69_3 1_555 1_555
H59_3 C83_3 1_555 1_555
C84_3 C78_3 1_555 1_555
H60_3 C84_3 1_555 1_555
Zn8_4 N11_2 1_555 1_555
C68_3 N12_3 1_555 1_555
C72_3 C83_3 1_555 1_555
C77_3 C81_3 1_555 1_555
C78_3 C80_3 1_555 1_555
C82_3 C84_3 1_555 1_555
Zn1_5 O1_3 1_555 1_555
Zn8 O3_3 1_555 1_555
O1_3 C30_3 1_555 1_555
O2_3 C27_3 1_555 1_555
O3_3 C27_3 1_555 1_555
O4_3 C30_3 1_555 1_555
C1_3 H1_3 1_555 1_555
C2_3 C1_3 1_555 1_555
C3_3 C2_3 1_555 1_555
H2_3 C3_3 1_555 1_555
C4_3 C3_3 1_555 1_555
C5_3 C1_3 1_555 1_555
C6_3 C4_3 1_555 1_555
H3_3 C6_3 1_555 1_555
O5_3 C29_3 1_555 1_555
C27_3 C4_3 1_555 1_555
C29_3 C5_3 1_555 1_555
C30_3 C2_3 1_555 1_555
O6_2 C29_3 1_555 1_555
N9_3 Zn1_5 1_555 1_555
N10_3 C60_3 1_555 1_555
C60_3 N9_3 1_555 1_555
C61_3 N9_3 1_555 1_555
C63_3 N10_3 1_555 1_555
C64_3 C61_3 1_555 1_555
H44_3 C64_3 1_555 1_555
C66_3 C63_3 1_555 1_555
H46_3 C66_3 1_555 1_555
C67_3 C66_3 1_555 1_555
H47_3 C67_3 1_555 1_555
C70_3 C64_3 1_555 1_555
H49_3 C70_3 1_555 1_555
C74_3 C79_3 1_555 1_555
C79_3 N10_3 1_555 1_555
H53_3 C79_3 1_555 1_555
H54_3 C79_3 1_555 1_555
Zn8_4 O6_2 1_555 1_555
N14_2 Zn8 1_555 1_555
O14_2 Zn8 1_555 1_555
C5_3 C6_3 1_555 1_555
C61_3 C63_3 1_555 1_555
C67_3 C70_3 1_555 1_555
Zn1_6 O1_4 1_555 1_555
Zn8_3 O3_4 1_555 1_555
O1_4 C30_4 1_555 1_555
O2_4 C27_4 1_555 1_555
O3_4 C27_4 1_555 1_555
O4_4 C30_4 1_555 1_555
C2_4 C1_4 1_555 1_555
C3_4 C2_4 1_555 1_555
H2_4 C3_4 1_555 1_555
C4_4 C3_4 1_555 1_555
C6_4 C4_4 1_555 1_555
N1_4 Zn1_6 1_555 1_555
N2_4 C7_4 1_555 1_555
C7_4 N1_4 1_555 1_555
H4_4 C7_4 1_555 1_555
C8_4 N1_4 1_555 1_555
N14_2 C9_4 1_555 1_555
C9_4 C17_4 1_555 1_555
C10_4 N2_4 1_555 1_555
C11_4 C8_4 1_555 1_555
H5_4 C11_4 1_555 1_555
C12_4 N14_2 1_555 1_555
H6_4 C12_4 1_555 1_555
C18_4 C9_4 1_555 1_555
H10_4 C18_4 1_555 1_555
N6_4 C12_4 1_555 1_555
C27_4 C4_4 1_555 1_555
C28_4 C33_4 1_555 1_555
C30_4 C2_4 1_555 1_555
C33_4 N2_4 1_555 1_555
H19_4 C33_4 1_555 1_555
C34_4 N6_4 1_555 1_555
H22_4 C34_4 1_555 1_555
C36_4 C28_4 1_555 1_555
H24_4 C36_4 1_555 1_555
C39_4 C18_4 1_555 1_555
C40_4 C32_4 1_555 1_555
H28_4 C40_4 1_555 1_555
Zn8_4 O9_4 1_555 1_555
O7_4 Zn1_6 1_555 1_555
O8_4 C73_4 1_555 1_555
O9_4 C73_4 1_555 1_555
O10_4 C76_4 1_555 1_555
C55_4 C54_4 1_555 1_555
C56_4 C55_4 1_555 1_555
H41_4 C56_4 1_555 1_555
C57_4 C56_4 1_555 1_555
C59_4 C57_4 1_555 1_555
N9_4 Zn1_6 1_555 1_555
N10_4 C60_4 1_555 1_555
C60_4 N9_4 1_555 1_555
H43_4 C60_4 1_555 1_555
C61_4 N9_4 1_555 1_555
N15_2 C62_4 1_555 1_555
C62_4 C68_4 1_555 1_555
C63_4 N10_4 1_555 1_555
C64_4 C61_4 1_555 1_555
H44_4 C64_4 1_555 1_555
C65_4 N15_2 1_555 1_555
H45_4 C65_4 1_555 1_555
C66_4 C63_4 1_555 1_555
H46_4 C66_4 1_555 1_555
C67_4 C66_4 1_555 1_555
H47_4 C67_4 1_555 1_555
C68_4 C71_4 1_555 1_555
C69_4 C62_4 1_555 1_555
H48_4 C69_4 1_555 1_555
C70_4 C64_4 1_555 1_555
H49_4 C70_4 1_555 1_555
C71_4 H50_4 1_555 1_555
C72_4 C71_4 1_555 1_555
H51_4 C72_4 1_555 1_555
N12_4 C65_4 1_555 1_555
C73_4 C57_4 1_555 1_555
C74_4 C79_4 1_555 1_555
C76_4 O7_4 1_555 1_555
C77_4 H52_4 1_555 1_555
C78_4 C77_4 1_555 1_555
C79_4 N10_4 1_555 1_555
H53_4 C79_4 1_555 1_555
H54_4 C79_4 1_555 1_555
C80_4 N12_4 1_555 1_555
H55_4 C80_4 1_555 1_555
H56_4 C80_4 1_555 1_555
C81_4 C74_4 1_555 1_555
H57_4 C81_4 1_555 1_555
C82_4 C74_4 1_555 1_555
H58_4 C82_4 1_555 1_555
C83_4 C69_4 1_555 1_555
H59_4 C83_4 1_555 1_555
C84_4 C78_4 1_555 1_555
H60_4 C84_4 1_555 1_555
C8_4 C10_4 1_555 1_555
C17_4 N6_4 1_555 1_555
C32_4 C34_4 1_555 1_555
C36_4 C40_4 1_555 1_555
C55_4 C76_4 1_555 1_555
C61_4 C63_4 1_555 1_555
C67_4 C70_4 1_555 1_555
C68_4 N12_4 1_555 1_555
C72_4 C83_4 1_555 1_555
C77_4 C81_4 1_555 1_555
C78_4 C80_4 1_555 1_555
C82_4 C84_4 1_555 1_555
O5_4 C29_4 1_555 1_555
C29_4 C5_4 1_555 1_555
O13_2 C29_4 1_555 1_555
O11_4 C75_4 1_555 1_555
C75_4 C58_4 1_555 1_555
O14_2 C75_4 1_555 1_555
H7_3 C13_3 1_555 1_555
C15_3 C13_3 1_555 1_555
H9_3 C15_3 1_555 1_555
H11_3 C20_3 1_555 1_555
C24_3 H15_3 1_555 1_555
C26_3 C24_3 1_555 1_555
H17_3 C26_3 1_555 1_555
C31_3 H18_3 1_555 1_555
H23_3 C35_3 1_555 1_555
C15_3 C20_3 1_555 1_555
C31_3 C35_3 1_555 1_555
C37_4 C38_4 1_555 1_555
H25_4 C38_4 1_555 1_555
H26_4 C38_4 1_555 1_555
C50_4 C51_4 1_555 1_555
H36_4 C51_4 1_555 1_555
H37_4 C51_4 1_555 1_555
H7_4 C13_4 1_555 1_555
C15_4 C13_4 1_555 1_555
H9_4 C15_4 1_555 1_555
H11_4 C20_4 1_555 1_555
C24_4 H15_4 1_555 1_555
C26_4 C24_4 1_555 1_555
H17_4 C26_4 1_555 1_555
C31_4 H18_4 1_555 1_555
H23_4 C35_4 1_555 1_555
C15_4 C20_4 1_555 1_555
C31_4 C35_4 1_555 1_555

#END
