
###############################################################################
#
# This file contains modified crystal structure data generated from the
# MOF subset of the Cambridge Structural Database (CSD) v543 
# hosted by the Cambridge Crystallographic Data Centre (CCDC).
#
# This work is licensed under the Creative Commons
# Attribution-NonCommercial-ShareAlike 4.0 International License.
# To view a copy of this license, visit
# http://creativecommons.org/licenses/by-nc-sa/4.0/
# or send a letter to
# Creative Commons, PO Box 1866, Mountain View, CA 94042, USA.
#
# CIF created using the CSD Python API on 29 September 2022
# The structure has been converted into the P1 space group
# The structure has a 3D framework
# The original CSD entry OSOMEP is in the monoclinic crystal system
# The framework has been calculated to contain at least 10.0% void space
# The void calculation uses a probe of radius 1.32A, grid spacing 0.4
# The framework is charged, counterions have been retained in the structure
#
###############################################################################

data_OSOMEP
_chemical_formula_moiety         '(C120 H120 N36 O60 Zn12 3+)n'
_symmetry_cell_setting           triclinic
_symmetry_space_group_name_H-M   'P 1'
_symmetry_Int_Tables_number      1
_space_group_name_Hall           'P 1'
loop_
_symmetry_equiv_pos_site_id
_symmetry_equiv_pos_as_xyz
1 x,y,z
_cell_length_a                   8.931(4)
_cell_length_b                   22.681(9)
_cell_length_c                   19.916(9)
_cell_angle_alpha                90
_cell_angle_beta                 98.310(6)
_cell_angle_gamma                90
_cell_volume                     3991.91
loop_
_atom_site_label
_atom_site_type_symbol
_atom_site_fract_x
_atom_site_fract_y
_atom_site_fract_z
N8 N 0.3268(5) 0.2582(2) 0.0705(3)
C21 C 0.2549(7) 0.3106(3) 0.0693(3)
H23 H 0.2866 0.3383 0.1027
C22 C 0.1356(7) 0.3241(3) 0.0197(3)
H24 H 0.0885 0.3607 0.0196
C25 C 0.2770(7) 0.2180(3) 0.0236(3)
H26 H 0.3245 0.1814 0.0252
Zn9 Zn 0.50814(7) 0.25261(3) 0.14298(3)
C23 C 0.0859(6) 0.2829(3) 0.9697(3)
C24 C 0.1582(7) 0.2286(3) 0.9732(3)
H25 H 0.1263 0.1995 0.9414
Zn4 Zn 0.57160(8) 0.13975(3) 0.23054(3)
Zn10 Zn 0.56501(15) 0.46697(4) 0.17035(5)
O16 O 0.6709(6) 0.4168(2) 0.1131(3)
O17 O 0.5786(5) 0.3337(2) 0.1462(3)
O18 O 0.6606(5) 0.1903(2) 0.1540(2)
O19 O 0.8904(7) 0.1544(3) 0.1696(4)
O22 O 0.6212(7) 0.5394(2) 0.1267(3)
O24 O 0.4650(6) 0.0934(2) 0.2976(3)
O26 O 0.4612(5) 0.22811(18) 0.2333(2)
O28 O 0.6908(7) 0.0466(3) 0.0779(3)
O29 O 0.4620(7) 0.0818(3) 0.0381(3)
O32 O 0.4831(6) 0.4562(2) 0.2548(3)
O33 O 0.3953(5) 0.1259(2) 0.1534(3)
H31 H 0.3874 0.1309 0.1108
H32 H 0.3126 0.1112 0.1620
O34 O 0.6733(5) 0.0605(2) 0.2106(2)
H33 H 0.7212 0.0495 0.1789
H34 H 0.6594 0.0303 0.2342
O35 O 0.8324(13) 0.4826(5) 0.2246(6)
H35 H 0.8612 0.4486 0.2139
H36 H 0.8997 0.4975 0.2543
N13 N 0.7330(6) 0.2695(2) 0.0548(3)
N17 N 0.7387(6) 0.1698(2) 0.3070(3)
N21 N 0.3385(8) 0.4656(3) 0.1087(3)
C34 C 0.7555(7) 0.3322(3) 0.0646(3)
H37 H 0.8610 0.3389 0.0824
H38 H 0.7358 0.3512 0.0206
C35 C 0.6597(7) 0.3615(3) 0.1111(3)
C36 C 0.8495(7) 0.2300(3) 0.0909(3)
H39 H 0.8920 0.2068 0.0573
H40 H 0.9303 0.2542 0.1141
C37 C 0.7988(7) 0.1885(3) 0.1416(4)
C43 C 0.5933(10) 0.0679(3) 0.0317(3)
Zn1 Zn 0.57160(8) 0.36025(3) 0.73054(3)
Zn2 Zn 0.50814(7) 0.24739(3) 0.64298(3)
Zn3 Zn 0.56501(15) 0.03303(4) 0.67035(5)
O1 O 0.6709(6) 0.0832(2) 0.6131(3)
O2 O 0.5786(5) 0.1663(2) 0.6462(3)
O3 O 0.6606(5) 0.3097(2) 0.6540(2)
O4 O 0.8904(7) 0.3456(3) 0.6696(4)
O5 O 0.3788(7) 0.0394(2) 0.3733(3)
O8 O 0.2761(6) 0.2926(3) 0.2194(3)
O9 O 0.6908(7) 0.4534(3) 0.5779(3)
O10 O 0.4620(7) 0.4182(3) 0.5381(3)
O11 O 0.6796(7) 0.4024(3) 0.3000(3)
O13 O 0.3953(5) 0.3741(2) 0.6534(3)
H1 H 0.3874 0.3691 0.6108
H2 H 0.3126 0.3888 0.6620
O14 O 0.6733(5) 0.4395(2) 0.7106(2)
H3 H 0.7212 0.4505 0.6789
H4 H 0.6594 0.4697 0.7342
O15 O 0.8324(13) 0.0174(5) 0.7246(6)
H5 H 0.8612 0.0514 0.7139
H6 H 0.8997 0.0025 0.7543
N1 N 0.5595(6) 0.2114(2) 0.4589(3)
N2 N 0.6510(6) 0.3090(2) 0.4858(3)
N3 N 0.4722(7) 0.2922(2) 0.3859(3)
N4 N 0.7330(6) 0.2305(2) 0.5548(3)
N5 N 0.5573(8) 0.3853(2) 0.4173(3)
N6 N 0.3819(6) 0.1985(2) 0.3628(3)
N7 N 0.7387(6) 0.3302(2) 0.8070(3)
N9 N 0.3385(8) 0.0344(3) 0.6087(3)
C1 C 0.6449(8) 0.2512(2) 0.4969(3)
C2 C 0.4743(7) 0.2351(2) 0.4045(3)
C3 C 0.5611(7) 0.3270(2) 0.4298(3)
C4 C 0.7555(7) 0.1678(3) 0.5646(3)
H7 H 0.8610 0.1611 0.5824
H8 H 0.7358 0.1488 0.5206
C5 C 0.6597(7) 0.1385(3) 0.6111(3)
C6 C 0.8495(7) 0.2700(3) 0.5909(3)
H9 H 0.8920 0.2932 0.5573
H10 H 0.9303 0.2458 0.6141
C7 C 0.7988(7) 0.3115(3) 0.6416(4)
C8 C 0.3488(9) 0.1395(3) 0.3862(3)
H11 H 0.2400 0.1359 0.3839
H12 H 0.3922 0.1362 0.4336
C9 C 0.4045(7) 0.0879(3) 0.3485(3)
C10 C 0.2767(8) 0.2243(3) 0.3093(3)
H13 H 0.2201 0.2546 0.3291
H14 H 0.2051 0.1941 0.2913
C11 C 0.3411(7) 0.2513(3) 0.2508(3)
C12 C 0.6508(10) 0.4244(3) 0.4641(3)
H15 H 0.6553 0.4627 0.4429
H16 H 0.7529 0.4087 0.4724
C13 C 0.5933(10) 0.4321(3) 0.5317(3)
C14 C 0.4648(8) 0.4106(3) 0.3576(3)
H17 H 0.4190 0.4468 0.3708
H18 H 0.3839 0.3834 0.3415
C15 C 0.5541(8) 0.4238(3) 0.3002(3)
C16 C 0.8186(8) 0.3714(3) 0.8450(4)
H19 H 0.7988 0.4109 0.8351
C17 C 0.9297(8) 0.3572(3) 0.8984(4)
H20 H 0.9812 0.3870 0.9242
C18 C 0.9644(6) 0.2990(3) 0.9138(3)
C19 C 0.8819(7) 0.2567(3) 0.8744(3)
H21 H 0.9005 0.2168 0.8829
C20 C 0.7701(7) 0.2743(3) 0.8215(3)
H22 H 0.7157 0.2453 0.7953
C26 C 0.2060(11) 0.0348(4) 0.6301(4)
H27 H 0.2035 0.0440 0.6754
C27 C 0.0733(11) 0.0226(4) 0.5908(4)
C28 C 0.0721(9) 0.0080(3) 0.5232(4)
C29 C 0.2078(10) 0.0093(5) 0.4993(4)
H29 H 0.2133 0.0003 0.4542
C30 C 0.3320(12) 0.0235(5) 0.5413(5)
H30 H 0.4218 0.0262 0.5230
Zn14 Zn 0.43499(15) 0.53303(4) 0.82965(5)
O20 O 0.3788(7) 0.4606(2) 0.8733(3)
O23 O 0.4650(6) 0.4066(2) 0.7976(3)
O25 O 0.4612(5) 0.27189(18) 0.7333(2)
O27 O 0.2761(6) 0.2074(3) 0.7194(3)
O30 O 0.6796(7) 0.0976(3) 0.8000(3)
O31 O 0.4831(6) 0.0438(2) 0.7548(3)
N10 N 0.5595(6) 0.2886(2) 0.9589(3)
N11 N 0.6510(6) 0.1910(2) 0.9858(3)
N12 N 0.4722(7) 0.2078(2) 0.8859(3)
N14 N 0.5573(8) 0.1147(2) 0.9173(3)
N15 N 0.3819(6) 0.3015(2) 0.8628(3)
N18 N 0.3268(5) 0.2418(2) 0.5705(3)
C31 C 0.6449(8) 0.2488(2) 0.9969(3)
C32 C 0.4743(7) 0.2649(2) 0.9045(3)
C33 C 0.5611(7) 0.1730(2) 0.9298(3)
C38 C 0.3488(9) 0.3605(3) 0.8862(3)
H41 H 0.2400 0.3641 0.8839
H42 H 0.3922 0.3638 0.9336
C39 C 0.4045(7) 0.4121(3) 0.8485(3)
C40 C 0.2767(8) 0.2757(3) 0.8093(3)
H43 H 0.2201 0.2454 0.8291
H44 H 0.2051 0.3059 0.7913
C41 C 0.3411(7) 0.2487(3) 0.7508(3)
C42 C 0.6508(10) 0.0756(3) 0.9641(3)
H45 H 0.6553 0.0373 0.9429
H46 H 0.7529 0.0913 0.9724
C44 C 0.4648(8) 0.0894(3) 0.8576(3)
H47 H 0.4190 0.0532 0.8708
H48 H 0.3839 0.1166 0.8415
C45 C 0.5541(8) 0.0762(3) 0.8002(3)
C51 C 0.2549(7) 0.1894(3) 0.5693(3)
H53 H 0.2866 0.1617 0.6027
C52 C 0.1356(7) 0.1759(3) 0.5197(3)
H54 H 0.0885 0.1393 0.5196
C53 C 0.0859(6) 0.2171(3) 0.4697(3)
C54 C 0.1582(7) 0.2714(3) 0.4732(3)
H55 H 0.1263 0.3005 0.4414
C55 C 0.2770(7) 0.2820(3) 0.5236(3)
H56 H 0.3245 0.3186 0.5252
Zn11 Zn 0.43499(15) 0.96697(4) 0.32965(5)
O21 O 0.6212(7) 0.9606(2) 0.6267(3)
H58 H 0.0167 0.9760 0.3909
H28 H 0.9833 0.0240 0.6091
C46 C 0.8186(8) 0.1286(3) 0.3450(4)
H49 H 0.7988 0.0891 0.3351
C47 C 0.9297(8) 0.1428(3) 0.3984(4)
H50 H 0.9812 0.1130 0.4242
C48 C 0.9644(6) 0.2010(3) 0.4138(3)
C49 C 0.8819(7) 0.2433(3) 0.3744(3)
H51 H 0.9005 0.2832 0.3829
C50 C 0.7701(7) 0.2257(3) 0.3215(3)
H52 H 0.7157 0.2547 0.2953
N20 N 0.6615(8) 0.9656(3) 0.3913(3)
C56 C 0.7940(11) 0.9652(4) 0.3699(4)
H57 H 0.7965 0.9560 0.3246
C57 C 0.9267(11) 0.9774(4) 0.4092(4)
C58 C 0.9279(9) 0.9920(3) 0.4768(4)
C59 C 0.7922(10) 0.9907(5) 0.5007(4)
H59 H 0.7867 0.9997 0.5458
C60 C 0.6680(12) 0.9765(5) 0.4587(5)
H60 H 0.5782 0.9738 0.4770
Zn6 Zn 0.42840(8) 0.63975(3) 0.26946(3)
N16 N 0.2613(6) 0.6698(2) 0.1930(3)
C46_2 C 0.1814(8) 0.6286(3) 0.1550(4)
H49_2 H 0.2012 0.5891 0.1649
C47_2 C 0.0703(8) 0.6428(3) 0.1016(4)
H50_2 H 0.0188 0.6130 0.0758
C48_2 C 0.0356(6) 0.7010(3) 0.0862(3)
C49_2 C 0.1181(7) 0.7433(3) 0.1256(3)
H51_2 H 0.0995 0.7832 0.1171
C50_2 C 0.2299(7) 0.7257(3) 0.1785(3)
H52_2 H 0.2843 0.7547 0.2047
C56_2 C 0.2060(11) 0.4652(4) 0.1301(4)
H57_2 H 0.2035 0.4560 0.1754
C57_2 C 0.0733(11) 0.4774(4) 0.0908(4)
C58_2 C 0.0721(9) 0.4920(3) 0.0232(4)
C60_2 C 0.3320(12) 0.4765(5) 0.0413(5)
H60_2 H 0.4218 0.4738 0.0230
H28_2 H 0.0167 0.5240 0.8909
C59_2 C 0.2078(10) 0.4907(5) 0.9993(4)
H59_2 H 0.2133 0.4997 0.9542
O6 O 0.5350(6) 0.5934(2) 0.2024(3)
O7 O 0.5388(5) 0.72811(18) 0.2667(2)
O8_2 O 0.7239(6) 0.7926(3) 0.2806(3)
O11_2 O 0.3204(7) 0.9024(3) 0.2000(3)
O12 O 0.5169(6) 0.9562(2) 0.2452(3)
N1_2 N 0.4405(6) 0.7114(2) 0.0411(3)
N2_2 N 0.3490(6) 0.8090(2) 0.0142(3)
N3_2 N 0.5278(7) 0.7922(2) 0.1141(3)
N5_2 N 0.4427(8) 0.8853(2) 0.0827(3)
N6_2 N 0.6181(6) 0.6985(2) 0.1372(3)
C1_2 C 0.3551(8) 0.7512(2) 0.0031(3)
C2_2 C 0.5257(7) 0.7351(2) 0.0955(3)
C3_2 C 0.4389(7) 0.8270(2) 0.0702(3)
C8_2 C 0.6512(9) 0.6395(3) 0.1138(3)
H11_2 H 0.7600 0.6359 0.1161
H12_2 H 0.6078 0.6362 0.0664
C9_2 C 0.5955(7) 0.5879(3) 0.1515(3)
C10_2 C 0.7233(8) 0.7243(3) 0.1907(3)
H13_2 H 0.7799 0.7546 0.1709
H14_2 H 0.7949 0.6941 0.2087
C11_2 C 0.6589(7) 0.7513(3) 0.2492(3)
C12_2 C 0.3492(10) 0.9244(3) 0.0359(3)
H15_2 H 0.3447 0.9627 0.0571
H16_2 H 0.2471 0.9087 0.0276
C14_2 C 0.5352(8) 0.9106(3) 0.1424(3)
H17_2 H 0.5810 0.9468 0.1292
H18_2 H 0.6161 0.8834 0.1585
C15_2 C 0.4459(8) 0.9238(3) 0.1998(3)
C29_2 C 0.7922(10) 0.5093(5) 0.0007(4)
H29_2 H 0.7867 0.5003 0.0458
Zn8 Zn 0.49186(7) 0.75261(3) 0.35702(3)
C53_2 C 0.9141(6) 0.7171(3) 0.0303(3)
C54_2 C 0.8418(7) 0.7714(3) 0.0268(3)
H55_2 H 0.8737 0.8005 0.0586
H58_2 H 0.9833 0.4760 0.1091
Zn1_2 Zn 0.42840(8) 0.86025(3) 0.76946(3)
Zn2_2 Zn 0.49186(7) 0.74739(3) 0.85702(3)
O1_2 O 0.3291(6) 0.5832(2) 0.8869(3)
O2_2 O 0.4214(5) 0.6663(2) 0.8538(3)
O3_2 O 0.3394(5) 0.8097(2) 0.8460(2)
O4_2 O 0.1096(7) 0.8456(3) 0.8304(4)
O9_2 O 0.3092(7) 0.9534(3) 0.9221(3)
O10_2 O 0.5380(7) 0.9182(3) 0.9619(3)
O13_2 O 0.6047(5) 0.8741(2) 0.8466(3)
H1_2 H 0.6126 0.8691 0.8892
H2_2 H 0.6874 0.8888 0.8380
O14_2 O 0.3267(5) 0.9395(2) 0.7894(2)
H3_2 H 0.2788 0.9505 0.8211
H4_2 H 0.3406 0.9697 0.7658
O15_2 O 0.1676(13) 0.5174(5) 0.7754(6)
H5_2 H 0.1388 0.5514 0.7861
H6_2 H 0.1003 0.5025 0.7457
N4_2 N 0.2670(6) 0.7305(2) 0.9452(3)
N7_2 N 0.2613(6) 0.8302(2) 0.6930(3)
N9_2 N 0.6615(8) 0.5344(3) 0.8913(3)
C4_2 C 0.2445(7) 0.6678(3) 0.9354(3)
H7_2 H 0.1390 0.6611 0.9176
H8_2 H 0.2642 0.6488 0.9794
C5_2 C 0.3403(7) 0.6385(3) 0.8889(3)
C6_2 C 0.1505(7) 0.7700(3) 0.9091(3)
H9_2 H 0.1080 0.7932 0.9427
H10_2 H 0.0697 0.7458 0.8859
C7_2 C 0.2012(7) 0.8115(3) 0.8584(4)
C13_2 C 0.4067(10) 0.9321(3) 0.9683(3)
C16_2 C 0.1814(8) 0.8714(3) 0.6550(4)
H19_2 H 0.2012 0.9109 0.6649
C17_2 C 0.0703(8) 0.8572(3) 0.6016(4)
H20_2 H 0.0188 0.8870 0.5758
C18_2 C 0.0356(6) 0.7990(3) 0.5862(3)
C19_2 C 0.1181(7) 0.7567(3) 0.6256(3)
H21_2 H 0.0995 0.7168 0.6171
C20_2 C 0.2299(7) 0.7743(3) 0.6785(3)
H22_2 H 0.2843 0.7453 0.7047
C26_2 C 0.7940(11) 0.5348(4) 0.8699(4)
H27_2 H 0.7965 0.5440 0.8246
C27_2 C 0.9267(11) 0.5226(4) 0.9092(4)
C28_2 C 0.9279(9) 0.5080(3) 0.9768(4)
C30_2 C 0.6680(12) 0.5235(5) 0.9587(5)
H30_2 H 0.5782 0.5262 0.9770
O16_2 O 0.3291(6) 0.9168(2) 0.3869(3)
O17_2 O 0.4214(5) 0.8337(2) 0.3538(3)
O18_2 O 0.3394(5) 0.6903(2) 0.3460(2)
O19_2 O 0.1096(7) 0.6544(3) 0.3304(4)
O23_2 O 0.5350(6) 0.9066(2) 0.7024(3)
O25_2 O 0.5388(5) 0.77189(18) 0.7667(2)
O27_2 O 0.7239(6) 0.7074(3) 0.7806(3)
O28_2 O 0.3092(7) 0.5466(3) 0.4221(3)
O29_2 O 0.5380(7) 0.5818(3) 0.4619(3)
O30_2 O 0.3204(7) 0.5976(3) 0.7000(3)
O31_2 O 0.5169(6) 0.5438(2) 0.7452(3)
O33_2 O 0.6047(5) 0.6259(2) 0.3466(3)
H31_2 H 0.6126 0.6309 0.3892
H32_2 H 0.6874 0.6112 0.3380
O34_2 O 0.3267(5) 0.5605(2) 0.2894(2)
H33_2 H 0.2788 0.5495 0.3211
H34_2 H 0.3406 0.5303 0.2658
O35_2 O 0.1676(13) 0.9826(5) 0.2754(6)
H35_2 H 0.1388 0.9486 0.2861
H36_2 H 0.1003 0.9975 0.2457
N10_2 N 0.4405(6) 0.7886(2) 0.5411(3)
N11_2 N 0.3490(6) 0.6910(2) 0.5142(3)
N12_2 N 0.5278(7) 0.7078(2) 0.6141(3)
N13_2 N 0.2670(6) 0.7695(2) 0.4452(3)
N14_2 N 0.4427(8) 0.6147(2) 0.5827(3)
N15_2 N 0.6181(6) 0.8015(2) 0.6372(3)
N18_2 N 0.6732(5) 0.7418(2) 0.9295(3)
N19 N 0.6732(5) 0.7582(2) 0.4295(3)
C31_2 C 0.3551(8) 0.7488(2) 0.5031(3)
C32_2 C 0.5257(7) 0.7649(2) 0.5955(3)
C33_2 C 0.4389(7) 0.6730(2) 0.5702(3)
C34_2 C 0.2445(7) 0.8322(3) 0.4354(3)
H37_2 H 0.1390 0.8389 0.4176
H38_2 H 0.2642 0.8512 0.4794
C35_2 C 0.3403(7) 0.8615(3) 0.3889(3)
C36_2 C 0.1505(7) 0.7300(3) 0.4091(3)
H39_2 H 0.1080 0.7068 0.4427
H40_2 H 0.0697 0.7542 0.3859
C37_2 C 0.2012(7) 0.6885(3) 0.3584(4)
C38_2 C 0.6512(9) 0.8605(3) 0.6138(3)
H41_2 H 0.7600 0.8641 0.6161
H42_2 H 0.6078 0.8638 0.5664
C39_2 C 0.5955(7) 0.9121(3) 0.6515(3)
C40_2 C 0.7233(8) 0.7757(3) 0.6907(3)
H43_2 H 0.7799 0.7454 0.6709
H44_2 H 0.7949 0.8059 0.7087
C41_2 C 0.6589(7) 0.7487(3) 0.7492(3)
C42_2 C 0.3492(10) 0.5756(3) 0.5359(3)
H45_2 H 0.3447 0.5373 0.5571
H46_2 H 0.2471 0.5913 0.5276
C43_2 C 0.4067(10) 0.5679(3) 0.4683(3)
C44_2 C 0.5352(8) 0.5894(3) 0.6424(3)
H47_2 H 0.5810 0.5532 0.6292
H48_2 H 0.6161 0.6166 0.6585
C45_2 C 0.4459(8) 0.5762(3) 0.6998(3)
C51_2 C 0.7451(7) 0.6894(3) 0.9307(3)
H53_2 H 0.7134 0.6617 0.8973
C52_2 C 0.8644(7) 0.6759(3) 0.9803(3)
H54_2 H 0.9115 0.6393 0.9804
C55_2 C 0.7230(7) 0.7820(3) 0.9764(3)
H56_2 H 0.6755 0.8186 0.9748
C21_2 C 0.7451(7) 0.8106(3) 0.4307(3)
H23_2 H 0.7134 0.8383 0.3973
C22_2 C 0.8644(7) 0.8241(3) 0.4803(3)
H24_2 H 0.9115 0.8607 0.4804
C23_2 C 0.9141(6) 0.7829(3) 0.5303(3)
C24_2 C 0.8418(7) 0.7286(3) 0.5268(3)
H25_2 H 0.8737 0.6995 0.5586
C25_2 C 0.7230(7) 0.7180(3) 0.4764(3)
H26_2 H 0.6755 0.6814 0.4748
loop_
_geom_bond_atom_site_label_1
_geom_bond_atom_site_label_2
_geom_bond_site_symmetry_1
_geom_bond_site_symmetry_2
N8 C21 1_555 1_555
C21 H23 1_555 1_555
C22 C21 1_555 1_555
H24 C22 1_555 1_555
C25 N8 1_555 1_555
H26 C25 1_555 1_555
Zn9 N8 1_555 1_555
C24 C23 1_555 1_555
H25 C24 1_555 1_555
Zn4 O18 1_555 1_555
Zn9 O17 1_555 1_555
Zn10 O16 1_555 1_555
O16 C35 1_555 1_555
O17 C35 1_555 1_555
O18 Zn9 1_555 1_555
O19 C37 1_555 1_555
O22 Zn10 1_555 1_555
O24 Zn4 1_555 1_555
O26 Zn4 1_555 1_555
O28 C43 1_555 1_555
O29 C43 1_555 1_555
O32 Zn10 1_555 1_555
O33 Zn4 1_555 1_555
H31 O33 1_555 1_555
H32 O33 1_555 1_555
O34 Zn4 1_555 1_555
H33 O34 1_555 1_555
H34 O34 1_555 1_555
O35 Zn10 1_555 1_555
H35 O35 1_555 1_555
H36 O35 1_555 1_555
N17 Zn4 1_555 1_555
N21 Zn10 1_555 1_555
C34 N13 1_555 1_555
H37 C34 1_555 1_555
H38 C34 1_555 1_555
C35 C34 1_555 1_555
C36 N13 1_555 1_555
H39 C36 1_555 1_555
H40 C36 1_555 1_555
C37 O18 1_555 1_555
Zn9 O26 1_555 1_555
C36 C37 1_555 1_555
Zn1 O3 1_555 1_555
Zn2 O2 1_555 1_555
Zn3 O1 1_555 1_555
O1 C5 1_555 1_555
O2 C5 1_555 1_555
O3 Zn2 1_555 1_555
O4 C7 1_555 1_555
O5 C9 1_555 1_555
O24 C9 1_555 1_555
O26 C11 1_555 1_555
O8 C11 1_555 1_555
O9 C13 1_555 1_555
O10 C13 1_555 1_555
O11 C15 1_555 1_555
O32 C15 1_555 1_555
O13 Zn1 1_555 1_555
H1 O13 1_555 1_555
H2 O13 1_555 1_555
O14 Zn1 1_555 1_555
H3 O14 1_555 1_555
H4 O14 1_555 1_555
O15 Zn3 1_555 1_555
H5 O15 1_555 1_555
H6 O15 1_555 1_555
N1 C1 1_555 1_555
N2 C1 1_555 1_555
N3 C2 1_555 1_555
N4 C1 1_555 1_555
N5 C3 1_555 1_555
N6 C2 1_555 1_555
N7 Zn1 1_555 1_555
N9 Zn3 1_555 1_555
C2 N1 1_555 1_555
C3 N2 1_555 1_555
C4 N4 1_555 1_555
H7 C4 1_555 1_555
H8 C4 1_555 1_555
C5 C4 1_555 1_555
C6 N4 1_555 1_555
H9 C6 1_555 1_555
H10 C6 1_555 1_555
C7 O3 1_555 1_555
C8 N6 1_555 1_555
H11 C8 1_555 1_555
H12 C8 1_555 1_555
C9 C8 1_555 1_555
C10 N6 1_555 1_555
H13 C10 1_555 1_555
H14 C10 1_555 1_555
C11 C10 1_555 1_555
C12 N5 1_555 1_555
H15 C12 1_555 1_555
H16 C12 1_555 1_555
C13 C12 1_555 1_555
C14 N5 1_555 1_555
H17 C14 1_555 1_555
H18 C14 1_555 1_555
C15 C14 1_555 1_555
C16 N7 1_555 1_555
H19 C16 1_555 1_555
C17 C16 1_555 1_555
H20 C17 1_555 1_555
C18 C17 1_555 1_555
C19 C18 1_555 1_555
H21 C19 1_555 1_555
C20 N7 1_555 1_555
H22 C20 1_555 1_555
C26 N9 1_555 1_555
H27 C26 1_555 1_555
C27 C26 1_555 1_555
C28 C27 1_555 1_555
C29 C28 1_555 1_555
H29 C29 1_555 1_555
C30 N9 1_555 1_555
H30 C30 1_555 1_555
Zn14 O20 1_555 1_555
O20 C39 1_555 1_555
O23 Zn1 1_555 1_555
O25 Zn1 1_555 1_555
O27 C41 1_555 1_555
O30 C45 1_555 1_555
O31 Zn3 1_555 1_555
N10 C31 1_555 1_555
N11 C31 1_555 1_555
N12 C32 1_555 1_555
N14 C33 1_555 1_555
N15 C32 1_555 1_555
N18 Zn2 1_555 1_555
C32 N10 1_555 1_555
C33 N11 1_555 1_555
C38 N15 1_555 1_555
H41 C38 1_555 1_555
H42 C38 1_555 1_555
C39 O23 1_555 1_555
C40 N15 1_555 1_555
H43 C40 1_555 1_555
H44 C40 1_555 1_555
C41 O25 1_555 1_555
C42 N14 1_555 1_555
H45 C42 1_555 1_555
H46 C42 1_555 1_555
C44 N14 1_555 1_555
H47 C44 1_555 1_555
H48 C44 1_555 1_555
C45 O31 1_555 1_555
C51 N18 1_555 1_555
H53 C51 1_555 1_555
C52 C51 1_555 1_555
H54 C52 1_555 1_555
C54 C53 1_555 1_555
H55 C54 1_555 1_555
C55 N18 1_555 1_555
H56 C55 1_555 1_555
Zn2 O25 1_555 1_555
N3 C3 1_555 1_555
C6 C7 1_555 1_555
C19 C20 1_555 1_555
C29 C30 1_555 1_555
N12 C33 1_555 1_555
C38 C39 1_555 1_555
C40 C41 1_555 1_555
C44 C45 1_555 1_555
C52 C53 1_555 1_555
C54 C55 1_555 1_555
N17 C46 1_555 1_555
C46 H49 1_555 1_555
C47 C46 1_555 1_555
H50 C47 1_555 1_555
C48 C47 1_555 1_555
C49 C48 1_555 1_555
H51 C49 1_555 1_555
C50 N17 1_555 1_555
H52 C50 1_555 1_555
C49 C50 1_555 1_555
Zn11 N20 1_555 1_555
N20 C56 1_555 1_555
C56 H57 1_555 1_555
C57 C56 1_555 1_555
C59 C58 1_555 1_555
H59 C59 1_555 1_555
C60 N20 1_555 1_555
H60 C60 1_555 1_555
C57 C58 1_555 1_555
C59 C60 1_555 1_555
Zn6 N16 1_555 1_555
N16 C46_2 1_555 1_555
N21 C56_2 1_555 1_555
C46_2 H49_2 1_555 1_555
C47_2 C46_2 1_555 1_555
H50_2 C47_2 1_555 1_555
C48_2 C47_2 1_555 1_555
C49_2 C48_2 1_555 1_555
H51_2 C49_2 1_555 1_555
C50_2 N16 1_555 1_555
H52_2 C50_2 1_555 1_555
C56_2 H57_2 1_555 1_555
C57_2 C56_2 1_555 1_555
C60_2 N21 1_555 1_555
H60_2 C60_2 1_555 1_555
C49_2 C50_2 1_555 1_555
C57_2 C58_2 1_555 1_555
H59_2 C59_2 1_555 1_555
O22 C9_2 1_555 1_555
O6 C9_2 1_555 1_555
O7 C11_2 1_555 1_555
O8_2 C11_2 1_555 1_555
O11_2 C15_2 1_555 1_555
O12 C15_2 1_555 1_555
N1_2 C1_2 1_555 1_555
N2_2 C1_2 1_555 1_555
N3_2 C2_2 1_555 1_555
N5_2 C3_2 1_555 1_555
N6_2 C2_2 1_555 1_555
C2_2 N1_2 1_555 1_555
C3_2 N2_2 1_555 1_555
C8_2 N6_2 1_555 1_555
H11_2 C8_2 1_555 1_555
H12_2 C8_2 1_555 1_555
C9_2 C8_2 1_555 1_555
C10_2 N6_2 1_555 1_555
H13_2 C10_2 1_555 1_555
H14_2 C10_2 1_555 1_555
C11_2 C10_2 1_555 1_555
C12_2 N5_2 1_555 1_555
H15_2 C12_2 1_555 1_555
H16_2 C12_2 1_555 1_555
C14_2 N5_2 1_555 1_555
H17_2 C14_2 1_555 1_555
H18_2 C14_2 1_555 1_555
C15_2 C14_2 1_555 1_555
H29_2 C29_2 1_555 1_555
Zn6 O6 1_555 1_555
Zn8 O7 1_555 1_555
Zn11 O12 1_555 1_555
C54_2 C53_2 1_555 1_555
H55_2 C54_2 1_555 1_555
O7 Zn6 1_555 1_555
N3_2 C3_2 1_555 1_555
Zn1_2 O3_2 1_555 1_555
Zn2_2 O2_2 1_555 1_555
Zn14 O1_2 1_555 1_555
O1_2 C5_2 1_555 1_555
O2_2 C5_2 1_555 1_555
O3_2 Zn2_2 1_555 1_555
O4_2 C7_2 1_555 1_555
O9_2 C13_2 1_555 1_555
O10_2 C13_2 1_555 1_555
O13_2 Zn1_2 1_555 1_555
H1_2 O13_2 1_555 1_555
H2_2 O13_2 1_555 1_555
O14_2 Zn1_2 1_555 1_555
H3_2 O14_2 1_555 1_555
H4_2 O14_2 1_555 1_555
O15_2 Zn14 1_555 1_555
H5_2 O15_2 1_555 1_555
H6_2 O15_2 1_555 1_555
N7_2 Zn1_2 1_555 1_555
N9_2 Zn14 1_555 1_555
C4_2 N4_2 1_555 1_555
H7_2 C4_2 1_555 1_555
H8_2 C4_2 1_555 1_555
C5_2 C4_2 1_555 1_555
C6_2 N4_2 1_555 1_555
H9_2 C6_2 1_555 1_555
H10_2 C6_2 1_555 1_555
C7_2 O3_2 1_555 1_555
C16_2 N7_2 1_555 1_555
H19_2 C16_2 1_555 1_555
C17_2 C16_2 1_555 1_555
H20_2 C17_2 1_555 1_555
C18_2 C17_2 1_555 1_555
C19_2 C18_2 1_555 1_555
H21_2 C19_2 1_555 1_555
C20_2 N7_2 1_555 1_555
H22_2 C20_2 1_555 1_555
C26_2 N9_2 1_555 1_555
H27_2 C26_2 1_555 1_555
C27_2 C26_2 1_555 1_555
C28_2 C27_2 1_555 1_555
C30_2 N9_2 1_555 1_555
H30_2 C30_2 1_555 1_555
Zn6 O18_2 1_555 1_555
Zn8 O17_2 1_555 1_555
Zn11 O16_2 1_555 1_555
O16_2 C35_2 1_555 1_555
O17_2 C35_2 1_555 1_555
O18_2 Zn8 1_555 1_555
O19_2 C37_2 1_555 1_555
O21 C39_2 1_555 1_555
O23_2 Zn1_2 1_555 1_555
O25_2 Zn1_2 1_555 1_555
O27_2 C41_2 1_555 1_555
O28_2 C43_2 1_555 1_555
O29_2 C43_2 1_555 1_555
O30_2 C45_2 1_555 1_555
O31_2 Zn14 1_555 1_555
O33_2 Zn6 1_555 1_555
H31_2 O33_2 1_555 1_555
H32_2 O33_2 1_555 1_555
O34_2 Zn6 1_555 1_555
H33_2 O34_2 1_555 1_555
H34_2 O34_2 1_555 1_555
O35_2 Zn11 1_555 1_555
H35_2 O35_2 1_555 1_555
H36_2 O35_2 1_555 1_555
N10_2 C31_2 1_555 1_555
N11_2 C31_2 1_555 1_555
N12_2 C32_2 1_555 1_555
N13_2 C31_2 1_555 1_555
N14_2 C33_2 1_555 1_555
N15_2 C32_2 1_555 1_555
N18_2 Zn2_2 1_555 1_555
N19 Zn8 1_555 1_555
C32_2 N10_2 1_555 1_555
C33_2 N11_2 1_555 1_555
C34_2 N13_2 1_555 1_555
H37_2 C34_2 1_555 1_555
H38_2 C34_2 1_555 1_555
C35_2 C34_2 1_555 1_555
C36_2 N13_2 1_555 1_555
H39_2 C36_2 1_555 1_555
H40_2 C36_2 1_555 1_555
C37_2 O18_2 1_555 1_555
C38_2 N15_2 1_555 1_555
H41_2 C38_2 1_555 1_555
H42_2 C38_2 1_555 1_555
C39_2 O23_2 1_555 1_555
C40_2 N15_2 1_555 1_555
H43_2 C40_2 1_555 1_555
H44_2 C40_2 1_555 1_555
C41_2 O25_2 1_555 1_555
C42_2 N14_2 1_555 1_555
H45_2 C42_2 1_555 1_555
H46_2 C42_2 1_555 1_555
C43_2 C42_2 1_555 1_555
C44_2 N14_2 1_555 1_555
H47_2 C44_2 1_555 1_555
H48_2 C44_2 1_555 1_555
C45_2 O31_2 1_555 1_555
C51_2 N18_2 1_555 1_555
H53_2 C51_2 1_555 1_555
C52_2 C51_2 1_555 1_555
H54_2 C52_2 1_555 1_555
C55_2 N18_2 1_555 1_555
H56_2 C55_2 1_555 1_555
Zn2_2 O25_2 1_555 1_555
C6_2 C7_2 1_555 1_555
C19_2 C20_2 1_555 1_555
N12_2 C33_2 1_555 1_555
C36_2 C37_2 1_555 1_555
C38_2 C39_2 1_555 1_555
C40_2 C41_2 1_555 1_555
C44_2 C45_2 1_555 1_555
N19 C21_2 1_555 1_555
C21_2 H23_2 1_555 1_555
C22_2 C21_2 1_555 1_555
H24_2 C22_2 1_555 1_555
C24_2 C23_2 1_555 1_555
H25_2 C24_2 1_555 1_555
C25_2 N19 1_555 1_555
H26_2 C25_2 1_555 1_555
C22_2 C23_2 1_555 1_555
C24_2 C25_2 1_555 1_555

#END
