
###############################################################################
#
# This file contains modified crystal structure data generated from the
# MOF subset of the Cambridge Structural Database (CSD) v543 
# hosted by the Cambridge Crystallographic Data Centre (CCDC).
#
# This work is licensed under the Creative Commons
# Attribution-NonCommercial-ShareAlike 4.0 International License.
# To view a copy of this license, visit
# http://creativecommons.org/licenses/by-nc-sa/4.0/
# or send a letter to
# Creative Commons, PO Box 1866, Mountain View, CA 94042, USA.
#
# CIF created using the CSD Python API on 29 September 2022
# The structure has been converted into the P1 space group
# The structure has a 3D framework
# The original CSD entry OSOMIT is in the triclinic crystal system
# The framework has been calculated to contain at least 10.0% void space
# The void calculation uses a probe of radius 1.32A, grid spacing 0.4
# H atom positions have been added when not included in the experimental data
#
###############################################################################

data_OSOMIT
_chemical_formula_moiety         '(C60 H60 N18 O26 Zn6)n'
_symmetry_cell_setting           triclinic
_symmetry_space_group_name_H-M   'P 1'
_symmetry_Int_Tables_number      1
_space_group_name_Hall           'P 1'
loop_
_symmetry_equiv_pos_site_id
_symmetry_equiv_pos_as_xyz
1 x,y,z
_cell_length_a                   10.721(12)
_cell_length_b                   13.018(14)
_cell_length_c                   15.183(16)
_cell_angle_alpha                95.599(9)
_cell_angle_beta                 108.010(8)
_cell_angle_gamma                104.702(12)
_cell_volume                     1913.2
loop_
_atom_site_label
_atom_site_type_symbol
_atom_site_fract_x
_atom_site_fract_y
_atom_site_fract_z
_atom_site_U_iso_or_equiv
_atom_site_thermal_displace_type
Zn13 Zn 0.25183(9) 0.63203(7) 0.08392(6) 0.0386 Uani
O23 O 0.1752(6) 0.4842(5) 0.0066(4) 0.0468 Uani
Zn6 Zn 0.58228(8) 0.07958(6) 0.65621(5) 0.0326 Uani
Zn12 Zn 0.74817(9) 0.36797(7) 0.91608(6) 0.0386 Uani
Zn14 Zn 0.41831(13) 0.54113(9) 0.83732(8) 0.0631 Uani
N10 N 0.0123(5) 0.3077(4) 0.7014(4) 0.0306 Uani
N12 N 0.1703(6) 0.2226(5) 0.6688(4) 0.0343 Uani
N14 N 0.1167(6) 0.1310(5) 0.5169(4) 0.0357 Uani
C33 C 0.1282(7) 0.2786(5) 0.7270(5) 0.0321 Uani
C34 C 0.0811(7) 0.1906(5) 0.5795(5) 0.0323 Uani
N15 N 0.2125(6) 0.3102(5) 0.8202(4) 0.0399 Uani
C36 C 0.1561(7) 0.3445(6) 0.8903(5) 0.0376 Uani
H31 H 0.0585 0.3326 0.8590 0.0450 Uiso
H32 H 0.1659 0.2983 0.9368 0.0450 Uiso
C38 C 0.0252(8) 0.0968(6) 0.4198(5) 0.0404 Uani
H35 H 0.0511 0.0403 0.3898 0.0480 Uiso
C39 C 0.2470(7) 0.1068(6) 0.5475(5) 0.0395 Uani
H37 H 0.2630 0.0895 0.6100 0.0470 Uiso
H38 H 0.2397 0.0430 0.5052 0.0470 Uiso
O19 O 0.5545(5) 0.2782(5) 0.8855(4) 0.0500 Uani
C41 C 0.4634(8) 0.3250(6) 0.8629(5) 0.0390 Uani
C42 C 0.3239(7) 0.2609(6) 0.8523(5) 0.0408 Uani
H39 H 0.3004 0.1940 0.8082 0.0490 Uiso
H40 H 0.3258 0.2417 0.9128 0.0490 Uiso
O22 O 0.4943(6) 0.4208(5) 0.8512(6) 0.0651 Uani
C43 C 0.2203(8) 0.4610(6) 0.9416(5) 0.0413 Uani
O26 O 0.3059(7) 0.5309(5) 0.9208(5) 0.0563 Uani
O27 O 0.3508(6) 0.2727(6) 0.5068(5) 0.0640 Uani
C44 C 0.3693(8) 0.1969(7) 0.5504(6) 0.0425 Uani
O28 O 0.4879(5) 0.1918(5) 0.5935(4) 0.0484 Uani
O31 O 0.1342(7) 0.2646(5) 0.3816(5) 0.0560 Uani
C45 C 0.0218(9) 0.1839(7) 0.3603(6) 0.0482 Uani
O33 O 0.5610(5) 0.6985(5) 0.9010(3) 0.0614 Uani
H41 H 0.5669 0.7649 0.9121 0.0740 Uiso
H42 H 0.6420 0.6929 0.9230 0.0740 Uiso
N19 N 0.2749(7) 0.5319(5) 0.7116(4) 0.0427 Uani
C16 C 0.0408(8) 0.2771(7) 0.1316(6) 0.0507 Uani
H17 H 0.1166 0.3157 0.1843 0.0600 Uiso
C21 C 0.0956(7) 0.1055(6) 0.1664(5) 0.0386 Uani
C22 C 0.0439(8) 0.0019(7) 0.1819(6) 0.0453 Uani
C26 C 0.0051(7) 0.1645(6) 0.1092(5) 0.0382 Uani
C28 C 0.2348(9) 0.1554(8) 0.2040(7) 0.0588 Uani
H26 H 0.2719 0.2252 0.1963 0.0700 Uiso
C30 C 0.3198(9) 0.0997(7) 0.2539(7) 0.0574 Uani
H28 H 0.4142 0.1335 0.2786 0.0690 Uiso
O15 O 0.6594(5) 0.0723(4) 0.5492(3) 0.0335 Uani
O16 O 0.7838(6) 0.4055(4) 0.8028(4) 0.0480 Uani
O17 O 0.7365(5) 0.2314(4) 0.7472(3) 0.0364 Uani
N11 N 0.8086(5) 0.2902(5) 0.5835(4) 0.0311 Uani
N13 N 0.9584(6) 0.2080(4) 0.5458(4) 0.0322 Uani
C31 C 0.7793(7) 0.3637(5) 0.6472(5) 0.0326 Uani
H29 H 0.8523 0.4318 0.6658 0.0390 Uiso
H30 H 0.6947 0.3778 0.6127 0.0390 Uiso
C32 C 0.7649(7) 0.3258(6) 0.7362(5) 0.0342 Uani
C35 C 0.9308(7) 0.2676(5) 0.6116(4) 0.0290 Uani
C37 C 0.7076(7) 0.2382(5) 0.4896(5) 0.0339 Uani
H33 H 0.6368 0.2742 0.4754 0.0410 Uiso
H34 H 0.7530 0.2486 0.4435 0.0410 Uiso
H36 H 0.9328 0.0649 0.4193 0.0480 Uiso
O18 O 0.5689(5) 0.0695(4) 0.3954(3) 0.0424 Uani
C40 C 0.6390(6) 0.1174(5) 0.4783(4) 0.0294 Uani
O25 O 0.8248(6) 0.5158(5) 0.9934(4) 0.0468 Uani
O32 O 0.9188(7) 0.1776(6) 0.2938(5) 0.0704 Uani
N17 N 0.8529(6) 0.2795(5) 0.9966(5) 0.0408 Uani
O34 O 0.5017(7) 0.0845(5) 0.7651(4) 0.0571 Uani
H43 H 0.5341 0.1427 0.8060 0.0680 Uiso
H44 H 0.4243 0.0411 0.7592 0.0680 Uiso
N21 N 0.7295(6) 0.0016(5) 0.7322(4) 0.0375 Uani
H58 H 0.841037 0.175359 0.316721 . .
H49 H 0.0502 0.0330 0.8406 0.0550 Uiso
Zn1 Zn 0.41772(8) 0.92042(6) 0.34379(5) 0.0326 Uani
O1 O 0.3406(5) 0.9277(4) 0.4508(3) 0.0335 Uani
O2 O 0.2162(6) 0.5945(4) 0.1972(4) 0.0480 Uani
O3 O 0.2635(5) 0.7686(4) 0.2528(3) 0.0364 Uani
N2 N 0.1914(5) 0.7098(5) 0.4165(4) 0.0311 Uani
N4 N 0.0416(6) 0.7920(4) 0.4542(4) 0.0322 Uani
C1 C 0.2207(7) 0.6363(5) 0.3528(5) 0.0326 Uani
H1 H 0.1477 0.5682 0.3342 0.0390 Uiso
H2 H 0.3053 0.6222 0.3873 0.0390 Uiso
C2 C 0.2351(7) 0.6742(6) 0.2638(5) 0.0342 Uani
C5 C 0.0692(7) 0.7324(5) 0.3884(4) 0.0290 Uani
C7 C 0.2924(7) 0.7618(5) 0.5104(5) 0.0339 Uani
H5 H 0.3632 0.7258 0.5246 0.0410 Uiso
H6 H 0.2470 0.7514 0.5565 0.0410 Uiso
H8 H 0.0672 0.9351 0.5807 0.0480 Uiso
O4 O 0.4311(5) 0.9305(4) 0.6046(3) 0.0424 Uani
C10 C 0.3610(6) 0.8826(5) 0.5217(4) 0.0294 Uani
O12 O 0.0812(7) 0.8224(6) 0.7062(5) 0.0704 Uani
O14 O 0.4983(7) 0.9155(5) 0.2349(4) 0.0571 Uani
H15 H 0.4659 0.8573 0.1940 0.0680 Uiso
H16 H 0.5757 0.9589 0.2408 0.0680 Uiso
C29 C 0.1357(8) 0.9523(6) 0.2316(5) 0.0403 Uani
H27 H 0.1007 0.8823 0.2400 0.0490 Uiso
N9 N 0.2705(6) 0.9984(5) 0.2678(4) 0.0375 Uani
O20 O 0.4455(5) 0.7218(5) 0.1145(4) 0.0500 Uani
O29 O 0.5121(5) 0.8082(5) 0.4065(4) 0.0484 Uani
N16 N 0.1471(6) 0.7205(5) 0.0034(5) 0.0408 Uani
C47 C 0.0584(8) 0.5079(6) 0.5449(5) 0.0397 Uani
C49 C 0.1616(9) 0.4604(7) 0.5475(6) 0.0507 Uani
H47 H 0.1597 0.4202 0.4928 0.0610 Uiso
C50 C 0.1779(9) 0.5807(7) 0.7088(6) 0.0480 Uani
H48 H 0.1841 0.6228 0.7640 0.0580 Uiso
C53 C 0.1834(9) 0.8289(6) 0.0248(6) 0.0496 Uani
H50 H 0.2602 0.8650 0.0777 0.0590 Uiso
C54 C 0.2674(8) 0.4733(7) 0.6323(5) 0.0453 Uani
H51 H 0.3350 0.4400 0.6336 0.0540 Uiso
C57 C 0.0698(8) 0.5712(6) 0.6276(6) 0.0451 Uani
H53 H 0.0049 0.6068 0.6282 0.0540 Uiso
H57 H 0.104553 0.889306 0.753079 . .
C23 C 0.8166(9) 0.1711(6) 0.9752(6) 0.0496 Uani
H22 H 0.7398 0.1350 0.9223 0.0590 Uiso
C59 C 0.8643(8) 0.0477(6) 0.7684(5) 0.0403 Uani
H55 H 0.8993 0.1177 0.7600 0.0490 Uiso
Zn3 Zn 0.58169(13) 0.45887(9) 0.16268(8) 0.0631 Uani
N1 N 0.9877(5) 0.6923(4) 0.2986(4) 0.0306 Uani
N3 N 0.8297(6) 0.7774(5) 0.3312(4) 0.0343 Uani
N5 N 0.8833(6) 0.8690(5) 0.4831(4) 0.0357 Uani
C3 C 0.8718(7) 0.7214(5) 0.2730(5) 0.0321 Uani
C4 C 0.9189(7) 0.8094(5) 0.4205(5) 0.0323 Uani
N6 N 0.7875(6) 0.6898(5) 0.1798(4) 0.0399 Uani
C6 C 0.8439(7) 0.6555(6) 0.1097(5) 0.0376 Uani
H3 H 0.9415 0.6674 0.1410 0.0450 Uiso
H4 H 0.8341 0.7017 0.0632 0.0450 Uiso
C8 C 0.9748(8) 0.9032(6) 0.5802(5) 0.0404 Uani
H7 H 0.9489 0.9597 0.6102 0.0480 Uiso
C9 C 0.7530(7) 0.8932(6) 0.4525(5) 0.0395 Uani
H9 H 0.7370 0.9105 0.3900 0.0470 Uiso
H10 H 0.7603 0.9570 0.4948 0.0470 Uiso
C11 C 0.5366(8) 0.6750(6) 0.1371(5) 0.0390 Uani
C12 C 0.6761(7) 0.7391(6) 0.1477(5) 0.0408 Uani
H11 H 0.6996 0.8060 0.1918 0.0490 Uiso
H12 H 0.6742 0.7583 0.0872 0.0490 Uiso
O6 O 0.5057(6) 0.5792(5) 0.1488(6) 0.0651 Uani
C13 C 0.7797(8) 0.5390(6) 0.0584(5) 0.0413 Uani
O8 O 0.6941(7) 0.4691(5) 0.0792(5) 0.0563 Uani
O9 O 0.6492(6) 0.7273(6) 0.4932(5) 0.0640 Uani
C14 C 0.6307(8) 0.8031(7) 0.4496(6) 0.0425 Uani
O11 O 0.8658(7) 0.7354(5) 0.6184(5) 0.0560 Uani
C15 C 0.9782(9) 0.8161(7) 0.6397(6) 0.0482 Uani
O13 O 0.4390(5) 0.3015(5) 0.0990(3) 0.0614 Uani
H13 H 0.4331 0.2351 0.0879 0.0740 Uiso
H14 H 0.3580 0.3071 0.0770 0.0740 Uiso
N8 N 0.7251(7) 0.4681(5) 0.2884(4) 0.0427 Uani
C17 C 0.9416(8) 0.4921(6) 0.4551(5) 0.0397 Uani
C19 C 0.8384(9) 0.5396(7) 0.4525(6) 0.0507 Uani
H19 H 0.8403 0.5798 0.5072 0.0610 Uiso
C20 C 0.8221(9) 0.4193(7) 0.2912(6) 0.0480 Uani
H20 H 0.8159 0.3772 0.2360 0.0580 Uiso
H21 H 0.9498 0.9670 0.1594 0.0550 Uiso
C24 C 0.7326(8) 0.5267(7) 0.3677(5) 0.0453 Uani
H23 H 0.6650 0.5600 0.3664 0.0540 Uiso
C27 C 0.9302(8) 0.4288(6) 0.3724(6) 0.0451 Uani
H25 H 0.9951 0.3932 0.3718 0.0540 Uiso
C46 C 0.9592(8) 0.7229(7) 0.8684(6) 0.0507 Uani
H45 H 0.8834 0.6843 0.8157 0.0600 Uiso
C51 C 0.9044(7) 0.8945(6) 0.8336(5) 0.0386 Uani
C52 C 0.9561(8) 0.9981(7) 0.8181(6) 0.0453 Uani
C56 C 0.9949(7) 0.8355(6) 0.8908(5) 0.0382 Uani
C58 C 0.7652(9) 0.8446(8) 0.7960(7) 0.0588 Uani
H54 H 0.7281 0.7748 0.8037 0.0700 Uiso
C60 C 0.6802(9) 0.9003(7) 0.7461(7) 0.0574 Uani
H56 H 0.5858 0.8665 0.7214 0.0690 Uiso
H57_2 H 0.895447 0.110694 0.246921 . .
H58_2 H 0.158963 0.824641 0.683279 . .
C48 C 0.0387(8) 0.6693(6) 0.9261(6) 0.0430 Uani
H46 H 0.0151 0.5944 0.9100 0.0520 Uiso
C55 C 0.1108(9) 0.8891(7) 0.9712(6) 0.0523 Uani
H52 H 0.1385 0.9641 0.9883 0.0630 Uiso
C18 C 0.9613(8) 0.3307(6) 0.0739(6) 0.0430 Uani
H18 H 0.9849 0.4056 0.0900 0.0520 Uiso
C25 C 0.8892(9) 0.1109(7) 0.0288(6) 0.0523 Uani
H24 H 0.8615 0.0359 0.0117 0.0630 Uiso
loop_
_atom_site_aniso_label
_atom_site_aniso_U_11
_atom_site_aniso_U_22
_atom_site_aniso_U_33
_atom_site_aniso_U_23
_atom_site_aniso_U_13
_atom_site_aniso_U_12
Zn13 0.0416 0.0367 0.0355 0.0034 0.0061 0.0187
O23 0.053 0.046 0.039 -0.006 0.015 0.017
Zn6 0.0329 0.0351 0.0284 0.0027 0.0065 0.0143
Zn12 0.0416 0.0367 0.0355 0.0034 0.0061 0.0187
Zn14 0.071 0.0546 0.0447 0.0011 -0.0094 0.0263
N10 0.027 0.031 0.031 -0.002 0.005 0.013
N12 0.027 0.048 0.029 0 0.007 0.019
N14 0.034 0.045 0.031 0.003 0.009 0.021
C33 0.029 0.035 0.032 -0.001 0.009 0.014
C34 0.034 0.033 0.033 -0.002 0.016 0.013
N15 0.03 0.055 0.031 -0.002 0.002 0.021
C36 0.031 0.049 0.027 -0.004 0.004 0.014
C38 0.041 0.051 0.029 -0.002 0.009 0.021
C39 0.037 0.046 0.04 0.002 0.012 0.024
O19 0.038 0.051 0.054 -0.008 0.005 0.022
C41 0.04 0.048 0.031 0.001 0.009 0.023
C42 0.037 0.047 0.037 0.007 0.006 0.019
O22 0.046 0.054 0.107 0.02 0.033 0.025
C43 0.043 0.041 0.037 0 0.003 0.024
O26 0.067 0.039 0.062 0.003 0.027 0.011
O27 0.048 0.074 0.08 0.036 0.021 0.029
C44 0.04 0.053 0.047 0.017 0.021 0.025
O28 0.035 0.054 0.06 0.015 0.012 0.024
O31 0.062 0.056 0.056 0.018 0.018 0.028
C45 0.055 0.054 0.044 0.003 0.018 0.032
O33 0.036 0.08 0.027 -0.012 0.01 -0.043
N19 0.041 0.045 0.034 0.007 0.001 0.014
C16 0.04 0.046 0.057 0.01 0.002 0.016
C21 0.039 0.045 0.037 0.008 0.012 0.023
C22 0.034 0.048 0.049 0.009 0.004 0.017
C26 0.034 0.045 0.04 0.01 0.01 0.022
C28 0.046 0.052 0.077 0.03 0.009 0.021
C30 0.038 0.04 0.083 0.024 0 0.014
O15 0.036 0.036 0.031 0.0038 0.01 0.018
O16 0.072 0.036 0.035 -0.003 0.017 0.02
O17 0.044 0.032 0.028 -0.0027 0.006 0.014
N11 0.024 0.037 0.028 -0.002 0.004 0.011
N13 0.029 0.034 0.033 -0.002 0.009 0.014
C31 0.033 0.029 0.037 0.003 0.01 0.015
C32 0.03 0.037 0.032 -0.003 0.003 0.017
C35 0.031 0.03 0.027 0.005 0.01 0.011
C37 0.03 0.037 0.029 0.001 0 0.015
O18 0.042 0.045 0.028 0 -0.001 0.011
C40 0.022 0.04 0.025 -0.001 0.005 0.014
O25 0.053 0.046 0.039 -0.006 0.015 0.017
O32 0.066 0.09 0.049 0.015 -0.004 0.042
N17 0.041 0.046 0.042 0.012 0.012 0.026
O34 0.063 0.045 0.06 -0.005 0.033 0.002
N21 0.038 0.039 0.034 0.007 0.006 0.017
Zn1 0.0329 0.0351 0.0284 0.0027 0.0065 0.0143
O1 0.036 0.036 0.031 0.0038 0.01 0.018
O2 0.072 0.036 0.035 -0.003 0.017 0.02
O3 0.044 0.032 0.028 -0.0027 0.006 0.014
N2 0.024 0.037 0.028 -0.002 0.004 0.011
N4 0.029 0.034 0.033 -0.002 0.009 0.014
C1 0.033 0.029 0.037 0.003 0.01 0.015
C2 0.03 0.037 0.032 -0.003 0.003 0.017
C5 0.031 0.03 0.027 0.005 0.01 0.011
C7 0.03 0.037 0.029 0.001 0 0.015
O4 0.042 0.045 0.028 0 -0.001 0.011
C10 0.022 0.04 0.025 -0.001 0.005 0.014
O12 0.066 0.09 0.049 0.015 -0.004 0.042
O14 0.063 0.045 0.06 -0.005 0.033 0.002
C29 0.037 0.038 0.045 0.009 0.009 0.016
N9 0.038 0.039 0.034 0.007 0.006 0.017
O20 0.038 0.051 0.054 -0.008 0.005 0.022
O29 0.035 0.054 0.06 0.015 0.012 0.024
N16 0.041 0.046 0.042 0.012 0.012 0.026
C47 0.042 0.034 0.032 0.009 0.003 0.004
C49 0.049 0.061 0.037 -0.001 0.01 0.018
C50 0.053 0.052 0.038 0.008 0.007 0.025
C53 0.046 0.042 0.049 0.006 -0.005 0.021
C54 0.038 0.056 0.037 0.005 0.005 0.017
C57 0.044 0.044 0.046 0.01 0.007 0.021
C23 0.046 0.042 0.049 0.006 -0.005 0.021
C59 0.037 0.038 0.045 0.009 0.009 0.016
Zn3 0.071 0.0546 0.0447 0.0011 -0.0094 0.0263
N1 0.027 0.031 0.031 -0.002 0.005 0.013
N3 0.027 0.048 0.029 0 0.007 0.019
N5 0.034 0.045 0.031 0.003 0.009 0.021
C3 0.029 0.035 0.032 -0.001 0.009 0.014
C4 0.034 0.033 0.033 -0.002 0.016 0.013
N6 0.03 0.055 0.031 -0.002 0.002 0.021
C6 0.031 0.049 0.027 -0.004 0.004 0.014
C8 0.041 0.051 0.029 -0.002 0.009 0.021
C9 0.037 0.046 0.04 0.002 0.012 0.024
C11 0.04 0.048 0.031 0.001 0.009 0.023
C12 0.037 0.047 0.037 0.007 0.006 0.019
O6 0.046 0.054 0.107 0.02 0.033 0.025
C13 0.043 0.041 0.037 0 0.003 0.024
O8 0.067 0.039 0.062 0.003 0.027 0.011
O9 0.048 0.074 0.08 0.036 0.021 0.029
C14 0.04 0.053 0.047 0.017 0.021 0.025
O11 0.062 0.056 0.056 0.018 0.018 0.028
C15 0.055 0.054 0.044 0.003 0.018 0.032
O13 0.036 0.08 0.027 -0.012 0.01 -0.043
N8 0.041 0.045 0.034 0.007 0.001 0.014
C17 0.042 0.034 0.032 0.009 0.003 0.004
C19 0.049 0.061 0.037 -0.001 0.01 0.018
C20 0.053 0.052 0.038 0.008 0.007 0.025
C24 0.038 0.056 0.037 0.005 0.005 0.017
C27 0.044 0.044 0.046 0.01 0.007 0.021
C46 0.04 0.046 0.057 0.01 0.002 0.016
C51 0.039 0.045 0.037 0.008 0.012 0.023
C52 0.034 0.048 0.049 0.009 0.004 0.017
C56 0.034 0.045 0.04 0.01 0.01 0.022
C58 0.046 0.052 0.077 0.03 0.009 0.021
C60 0.038 0.04 0.083 0.024 0 0.014
C48 0.039 0.037 0.045 0.008 -0.001 0.017
C55 0.057 0.042 0.048 -0.001 -0.003 0.028
C18 0.039 0.037 0.045 0.008 -0.001 0.017
C25 0.057 0.042 0.048 -0.001 -0.003 0.028
loop_
_geom_bond_atom_site_label_1
_geom_bond_atom_site_label_2
_geom_bond_site_symmetry_1
_geom_bond_site_symmetry_2
Zn13 O23 1_555 1_555
Zn6 O28 1_555 1_555
Zn12 O19 1_555 1_555
Zn14 O22 1_555 1_555
N10 C33 1_555 1_555
N12 C33 1_555 1_555
N14 C34 1_555 1_555
C33 N15 1_555 1_555
C34 N12 1_555 1_555
N15 C36 1_555 1_555
C36 H31 1_555 1_555
H32 C36 1_555 1_555
C38 N14 1_555 1_555
H35 C38 1_555 1_555
C39 N14 1_555 1_555
H37 C39 1_555 1_555
H38 C39 1_555 1_555
O19 C41 1_555 1_555
C41 C42 1_555 1_555
C42 N15 1_555 1_555
H39 C42 1_555 1_555
H40 C42 1_555 1_555
O22 C41 1_555 1_555
C43 C36 1_555 1_555
O26 Zn14 1_555 1_555
O27 C44 1_555 1_555
C44 C39 1_555 1_555
O28 C44 1_555 1_555
O31 C45 1_555 1_555
C45 C38 1_555 1_555
O33 Zn14 1_555 1_555
H41 O33 1_555 1_555
H42 O33 1_555 1_555
N19 Zn14 1_555 1_555
C43 O26 1_555 1_555
C16 H17 1_555 1_555
C21 C22 1_555 1_555
C26 C16 1_555 1_555
C28 C21 1_555 1_555
H26 C28 1_555 1_555
C30 C28 1_555 1_555
H28 C30 1_555 1_555
Zn12 O16 1_555 1_555
O15 Zn6 1_555 1_555
O16 C32 1_555 1_555
O17 Zn6 1_555 1_555
N11 C31 1_555 1_555
C31 H29 1_555 1_555
H30 C31 1_555 1_555
C32 O17 1_555 1_555
C37 N11 1_555 1_555
H33 C37 1_555 1_555
H34 C37 1_555 1_555
C40 O15 1_555 1_555
O25 Zn12 1_555 1_555
N17 Zn12 1_555 1_555
O34 Zn6 1_555 1_555
H43 O34 1_555 1_555
H44 O34 1_555 1_555
N21 Zn6 1_555 1_555
C21 C26 1_555 1_555
N11 C35 1_555 1_555
N13 C35 1_555 1_555
C31 C32 1_555 1_555
C37 C40 1_555 1_555
O18 C40 1_555 1_555
O32 H58 1_555 1_555
Zn1 O1 1_555 1_555
Zn13 O2 1_555 1_555
O1 C10 1_555 1_555
O2 C2 1_555 1_555
O3 Zn1 1_555 1_555
N2 C1 1_555 1_555
C1 H1 1_555 1_555
H2 C1 1_555 1_555
C2 O3 1_555 1_555
C7 N2 1_555 1_555
H5 C7 1_555 1_555
H6 C7 1_555 1_555
O4 C10 1_555 1_555
C10 C7 1_555 1_555
O14 Zn1 1_555 1_555
H15 O14 1_555 1_555
H16 O14 1_555 1_555
H27 C29 1_555 1_555
N9 Zn1 1_555 1_555
O20 Zn13 1_555 1_555
O29 Zn1 1_555 1_555
N16 Zn13 1_555 1_555
N19 C50 1_555 1_555
C49 C47 1_555 1_555
H47 C49 1_555 1_555
C50 H48 1_555 1_555
C53 N16 1_555 1_555
H50 C53 1_555 1_555
C54 N19 1_555 1_555
H51 C54 1_555 1_555
C57 C47 1_555 1_555
H53 C57 1_555 1_555
N2 C5 1_555 1_555
N4 C5 1_555 1_555
C1 C2 1_555 1_555
C29 N9 1_555 1_555
C49 C54 1_555 1_555
C50 C57 1_555 1_555
O12 H57 1_555 1_555
C23 N17 1_555 1_555
H22 C23 1_555 1_555
H55 C59 1_555 1_555
N21 C59 1_555 1_555
Zn3 O6 1_555 1_555
N1 C3 1_555 1_555
N3 C3 1_555 1_555
N5 C4 1_555 1_555
C3 N6 1_555 1_555
C4 N3 1_555 1_555
N6 C6 1_555 1_555
C6 H3 1_555 1_555
H4 C6 1_555 1_555
C8 N5 1_555 1_555
H7 C8 1_555 1_555
C9 N5 1_555 1_555
H9 C9 1_555 1_555
H10 C9 1_555 1_555
O20 C11 1_555 1_555
C11 C12 1_555 1_555
C12 N6 1_555 1_555
H11 C12 1_555 1_555
H12 C12 1_555 1_555
O6 C11 1_555 1_555
C13 C6 1_555 1_555
O8 Zn3 1_555 1_555
O9 C14 1_555 1_555
C14 C9 1_555 1_555
O29 C14 1_555 1_555
O11 C15 1_555 1_555
C15 C8 1_555 1_555
O13 Zn3 1_555 1_555
H13 O13 1_555 1_555
H14 O13 1_555 1_555
N8 Zn3 1_555 1_555
C17 C19 1_555 1_555
C19 H19 1_555 1_555
C20 N8 1_555 1_555
H20 C20 1_555 1_555
C24 N8 1_555 1_555
H23 C24 1_555 1_555
C27 C17 1_555 1_555
H25 C27 1_555 1_555
C13 O8 1_555 1_555
C19 C24 1_555 1_555
C20 C27 1_555 1_555
C46 H45 1_555 1_555
C51 C52 1_555 1_555
C56 C46 1_555 1_555
C58 C51 1_555 1_555
H54 C58 1_555 1_555
C60 C58 1_555 1_555
H56 C60 1_555 1_555
C51 C56 1_555 1_555
O32 H57_2 1_555 1_555
O12 H58_2 1_555 1_555
H46 C48 1_555 1_555
H52 C55 1_555 1_555
H18 C18 1_555 1_555
H24 C25 1_555 1_555

#END
