
###############################################################################
#
# This file contains modified crystal structure data generated from the
# MOF subset of the Cambridge Structural Database (CSD) v543 
# hosted by the Cambridge Crystallographic Data Centre (CCDC).
#
# This work is licensed under the Creative Commons
# Attribution-NonCommercial-ShareAlike 4.0 International License.
# To view a copy of this license, visit
# http://creativecommons.org/licenses/by-nc-sa/4.0/
# or send a letter to
# Creative Commons, PO Box 1866, Mountain View, CA 94042, USA.
#
# CIF created using the CSD Python API on 29 September 2022
# The structure has been converted into the P1 space group
# The structure has a 3D framework
# The original CSD entry OSOTUN is in the rhombohedral crystal system
# The framework has been calculated to contain at least 10.0% void space
# The void calculation uses a probe of radius 1.32A, grid spacing 0.4
#
###############################################################################

data_OSOTUN
_chemical_formula_moiety         '(C1232 H656 N144 O164 Zn97)n'
_symmetry_cell_setting           triclinic
_symmetry_space_group_name_H-M   'P 1'
_symmetry_Int_Tables_number      1
_space_group_name_Hall           'P 1'
loop_
_symmetry_equiv_pos_site_id
_symmetry_equiv_pos_as_xyz
1 x,y,z
_cell_length_a                   34.7050(9)
_cell_length_b                   34.7050(9)
_cell_length_c                   37.9023(12)
_cell_angle_alpha                90
_cell_angle_beta                 90
_cell_angle_gamma                120
_cell_volume                     39534.9
loop_
_atom_site_label
_atom_site_type_symbol
_atom_site_fract_x
_atom_site_fract_y
_atom_site_fract_z
Zn10 Zn 0.53267(12) -0.00000(10) 0.7500
C170 C 0.6314(12) -0.0000(10) 0.7500
C171 C 0.4372(10) -0.0000(8) 0.7500
H90 H 0.6582 -0.0000 0.7500
H91 H 0.4104 -0.0000 0.7500
O24 O 0.6225(2) 0.2298(3) 0.93251(17)
C189 C 0.6316(4) 0.2382(5) 0.8997(3)
O25 O 0.6477(3) 0.2761(4) 0.88569(17)
C190 C 0.6219(4) 0.2018(6) 0.8756(3)
C191 C 0.6080(5) 0.1593(7) 0.8874(3)
C192 C 0.6254(4) 0.2072(6) 0.8412(3)
H101 H 0.6076 0.1538 0.9115
C193 C 0.5945(5) 0.1246(7) 0.8638(3)
C194 C 0.6138(5) 0.1720(7) 0.8179(4)
H102 H 0.6361 0.2356 0.8320
H103 H 0.5827 0.0960 0.8728
C195 C 0.5972(4) 0.1293(6) 0.8297(3)
H104 H 0.6173 0.1776 0.7938
C196 C 0.5798(5) 0.0908(7) 0.8068(3)
C197 C 0.6056(5) 0.0742(7) 0.7943(3)
C198 C 0.5359(6) 0.0741(8) 0.7959(3)
C199 C 0.6545(5) 0.0952(8) 0.8032(5)
N23 N 0.5947(3) 0.0396(5) 0.7721(3)
N24 N 0.5100(3) 0.0365(4) 0.7735(2)
C200 C 0.5027(6) 0.0884(8) 0.8060(4)
C201 C 0.6678(5) 0.0686(8) 0.7903(5)
H105 H 0.6717 0.1217 0.8153
C202 C 0.6305(5) 0.0339(9) 0.7679(5)
C203 C 0.4698(5) 0.0340(6) 0.7704(4)
C204 C 0.4641(5) 0.0643(7) 0.7907(4)
H106 H 0.5091 0.1118 0.8213
H107 H 0.6953 0.0708 0.7942
H108 H 0.4388 0.0669 0.7929
Zn11 Zn 0.06147(3) 0.03109(3) 0.13829(2)
Zn15 Zn 0.63558(3) 0.27186(3) 0.97162(2)
Zn20 Zn 0.96891(3) 0.03039(4) 0.13829(2)
O29 O 0.0737(2) 0.0822(4) 0.16738(19)
O31 O 0.1035(3) 0.0442(2) 0.09918(17)
Zn24 Zn 0.6667 0.3333 0.90526(5)
O34 O 0.0572(4) 0.0190(3) 0.05236(17)
Zn1 Zn 0.27186(3) 0.63558(3) 0.52838(2)
O1 O 0.3333 0.6667 0.5439(2)
O2 O 0.2610(2) 0.6753(2) 0.49798(18)
O3 O 0.3249(4) 0.7404(2) 0.49929(19)
O4 O 0.2298(3) 0.6225(2) 0.56749(17)
Zn2 Zn 0.3333 0.6667 0.59474(5)
C1 C 0.2865(4) 0.7160(4) 0.4901(3)
C2 C 0.2382(5) 0.6316(4) 0.6003(3)
O5 O 0.2761(4) 0.6477(3) 0.61431(17)
C3 C 0.2636(4) 0.7326(3) 0.4650(3)
C4 C 0.2018(6) 0.6219(4) 0.6244(3)
C5 C 0.2886(3) 0.7764(4) 0.4530(3)
C6 C 0.2208(4) 0.7073(4) 0.4539(3)
C7 C 0.1593(7) 0.6080(5) 0.6126(3)
C8 C 0.2072(6) 0.6254(4) 0.6588(3)
H1 H 0.3181 0.7939 0.4601
C9 C 0.2692(4) 0.7941(4) 0.4298(3)
C10 C 0.2042(4) 0.7262(3) 0.4314(3)
H2 H 0.2034 0.6780 0.4613
H3 H 0.1538 0.6076 0.5885
C11 C 0.1246(7) 0.5945(5) 0.6362(3)
C12 C 0.1720(7) 0.6138(5) 0.6821(4)
H4 H 0.2356 0.6361 0.6680
H5 H 0.2858 0.8235 0.4223
C13 C 0.2271(3) 0.7688(4) 0.4188(3)
H6 H 0.1749 0.7086 0.4240
H7 H 0.0960 0.5827 0.6272
C14 C 0.1293(6) 0.5972(4) 0.6703(3)
H8 H 0.1776 0.6173 0.7062
C15 C 0.2098(4) 0.7890(3) 0.3926(3)
C16 C 0.0908(7) 0.5798(5) 0.6932(3)
C17 C 0.1805(4) 0.8020(3) 0.4053(3)
C18 C 0.2231(4) 0.7932(3) 0.3582(3)
C19 C 0.0742(7) 0.6056(5) 0.7057(3)
C20 C 0.0741(8) 0.5359(6) 0.7041(3)
N1 N 0.1595(3) 0.8198(3) 0.3848(2)
C21 C 0.1642(4) 0.7975(4) 0.4423(3)
N2 N 0.2105(3) 0.8104(3) 0.3322(2)
C22 C 0.2518(4) 0.7795(5) 0.3457(3)
C23 C 0.0952(8) 0.6545(5) 0.6968(5)
N3 N 0.0396(5) 0.5947(3) 0.7279(3)
N4 N 0.0365(4) 0.5100(3) 0.7265(2)
C24 C 0.0884(8) 0.5027(6) 0.6940(4)
C25 C 0.1322(5) 0.8247(5) 0.4065(3)
Zn3 Zn 0.1667 0.8333 0.3333
C26 C 0.1351(5) 0.8131(5) 0.4433(3)
H9 H 0.1724 0.7861 0.4612
C27 C 0.2315(5) 0.8078(5) 0.3010(3)
H10 H 0.2645 0.7660 0.3587
C28 C 0.2578(5) 0.7893(5) 0.3109(4)
C29 C 0.0686(8) 0.6678(5) 0.7097(5)
H11 H 0.1217 0.6717 0.6847
C30 C 0.0339(9) 0.6305(5) 0.7321(5)
Zn4 Zn 0.00000(10) 0.53267(7) 0.7500
C31 C 0.0340(6) 0.4698(5) 0.7296(4)
C32 C 0.0643(7) 0.4641(5) 0.7093(4)
H12 H 0.1118 0.5091 0.6787
C33 C 0.1059(5) 0.8441(5) 0.3971(3)
H13 H 0.1204 0.8158 0.4629
H14 H 0.2764 0.7847 0.2960
H15 H 0.0708 0.6953 0.7058
C34 C 0.0000(10) 0.6314(7) 0.7500
C35 C 0.0000(8) 0.4372(6) 0.7500
H16 H 0.0669 0.4388 0.7071
H17 H 0.0893 0.8467 0.4152
H18 H 0.0000 0.6582 0.7500
H19 H 0.0000 0.4104 0.7500
O6 O 0.0723(2) 0.9914(2) 0.16869(18)
O7 O 0.0084(4) 0.9263(2) 0.16738(19)
C36 C 0.0468(4) 0.9507(4) 0.1766(3)
C37 C 0.0697(4) 0.9341(3) 0.2017(3)
C38 C 0.0447(3) 0.8903(4) 0.2137(3)
C39 C 0.1125(4) 0.9594(4) 0.2128(3)
H20 H 0.0152 0.8728 0.2066
C40 C 0.0641(4) 0.8726(4) 0.2369(3)
C41 C 0.1291(4) 0.9405(3) 0.2353(3)
H21 H 0.1299 0.9887 0.2054
H22 H 0.0475 0.8432 0.2444
C42 C 0.1062(3) 0.8979(4) 0.2479(3)
H23 H 0.1584 0.9581 0.2427
C43 C 0.1235(4) 0.8777(3) 0.2741(3)
C44 C 0.1528(4) 0.8647(3) 0.2614(3)
C45 C 0.1102(4) 0.8735(3) 0.3085(3)
N5 N 0.1738(3) 0.8469(3) 0.2819(2)
C46 C 0.1691(4) 0.8692(4) 0.2244(3)
N6 N 0.1228(3) 0.8563(3) 0.3345(2)
C47 C 0.0815(4) 0.8872(5) 0.3210(3)
C48 C 0.2011(5) 0.8420(5) 0.2602(3)
C49 C 0.1982(5) 0.8536(5) 0.2234(3)
H24 H 0.1609 0.8806 0.2055
C50 C 0.1018(5) 0.8589(5) 0.3657(3)
H25 H 0.0688 0.9007 0.3080
C51 C 0.0755(5) 0.8774(5) 0.3558(4)
C52 C 0.2274(5) 0.8226(5) 0.2696(3)
H26 H 0.2129 0.8509 0.2038
H27 H 0.0569 0.8820 0.3707
H28 H 0.2440 0.8200 0.2515
Zn5 Zn 0.36442(3) 0.63628(4) 0.52838(2)
O10 O 0.3247(2) 0.5857(3) 0.49798(18)
O11 O 0.2596(2) 0.5845(4) 0.49929(19)
O12 O 0.3775(2) 0.6073(4) 0.56749(17)
C69 C 0.2840(4) 0.5705(6) 0.4901(3)
C70 C 0.3684(4) 0.6066(6) 0.6003(3)
O13 O 0.3523(3) 0.6284(5) 0.61431(17)
C71 C 0.2674(3) 0.5310(5) 0.4650(3)
C72 C 0.3781(4) 0.5799(7) 0.6244(3)
C73 C 0.2236(4) 0.5122(5) 0.4530(3)
C74 C 0.2927(4) 0.5135(6) 0.4539(3)
C75 C 0.3920(5) 0.5513(9) 0.6126(3)
C76 C 0.3746(4) 0.5818(7) 0.6588(3)
H37 H 0.2061 0.5242 0.4601
C77 C 0.2059(4) 0.4751(6) 0.4298(3)
C78 C 0.2738(3) 0.4780(5) 0.4314(3)
H38 H 0.3220 0.5254 0.4613
H39 H 0.3924 0.5462 0.5885
C79 C 0.4055(5) 0.5301(9) 0.6362(3)
C80 C 0.3862(5) 0.5582(9) 0.6821(4)
H40 H 0.3639 0.5995 0.6680
H41 H 0.1765 0.4623 0.4223
C81 C 0.2312(4) 0.4583(5) 0.4188(3)
H42 H 0.2914 0.4663 0.4240
H43 H 0.4173 0.5133 0.6272
C82 C 0.4028(4) 0.5321(7) 0.6703(3)
H44 H 0.3827 0.5603 0.7062
C83 C 0.2110(3) 0.4208(5) 0.3926(3)
C84 C 0.4202(5) 0.5110(9) 0.6932(3)
C85 C 0.1980(3) 0.3785(5) 0.4053(3)
C86 C 0.2068(3) 0.4299(5) 0.3582(3)
C87 C 0.3944(5) 0.4686(9) 0.7057(3)
C88 C 0.4641(6) 0.5382(10) 0.7041(3)
N9 N 0.1802(3) 0.3397(4) 0.3848(2)
C89 C 0.2025(4) 0.3667(6) 0.4423(3)
N10 N 0.1896(3) 0.4001(4) 0.3322(2)
C90 C 0.2205(5) 0.4723(6) 0.3457(3)
C91 C 0.3455(5) 0.4407(9) 0.6968(5)
N11 N 0.4053(3) 0.4449(6) 0.7279(3)
N12 N 0.4900(3) 0.5265(5) 0.7265(2)
C92 C 0.4973(6) 0.5857(10) 0.6940(4)
C93 C 0.1753(5) 0.3075(7) 0.4065(3)
Zn6 Zn 0.1667 0.3334 0.3333
C94 C 0.1869(5) 0.3220(7) 0.4433(3)
H45 H 0.2139 0.3863 0.4612
C95 C 0.1922(5) 0.4237(7) 0.3010(3)
H46 H 0.2340 0.4985 0.3587
C96 C 0.2107(5) 0.4685(7) 0.3109(4)
C97 C 0.3322(5) 0.4008(9) 0.7097(5)
H47 H 0.3283 0.4500 0.6847
C98 C 0.3695(5) 0.4034(10) 0.7321(5)
Zn7 Zn 0.46733(7) 0.46733(12) 0.7500
C99 C 0.5302(5) 0.5642(8) 0.7296(4)
C100 C 0.5359(5) 0.6002(9) 0.7093(4)
H48 H 0.4909 0.6027 0.6787
C101 C 0.1559(5) 0.2618(7) 0.3971(3)
H49 H 0.1842 0.3046 0.4629
H50 H 0.2153 0.4917 0.2960
H51 H 0.3047 0.3755 0.7058
C102 C 0.3686(7) 0.3686(12) 0.7500
C103 C 0.5628(6) 0.5628(10) 0.7500
H52 H 0.5612 0.6281 0.7071
H53 H 0.1533 0.2426 0.4152
H54 H 0.3418 0.3418 0.7500
H55 H 0.5896 0.5896 0.7500
O14 O 0.0086(2) 0.0810(3) 0.16869(18)
C104 C 0.0493(4) 0.0962(6) 0.1766(3)
C105 C 0.0659(3) 0.1357(5) 0.2017(3)
C106 C 0.1097(4) 0.1545(5) 0.2137(3)
C107 C 0.0406(4) 0.1532(6) 0.2128(3)
H56 H 0.1272 0.1425 0.2066
C108 C 0.1274(4) 0.1916(6) 0.2369(3)
C109 C 0.0595(3) 0.1887(5) 0.2353(3)
H57 H 0.0113 0.1413 0.2054
H58 H 0.1568 0.2044 0.2444
C110 C 0.1021(4) 0.2084(5) 0.2479(3)
H59 H 0.0419 0.2004 0.2427
C111 C 0.1223(3) 0.2459(5) 0.2741(3)
C112 C 0.1353(3) 0.2882(5) 0.2614(3)
C113 C 0.1265(3) 0.2368(5) 0.3085(3)
N13 N 0.1531(3) 0.3270(4) 0.2819(2)
C114 C 0.1308(4) 0.3000(6) 0.2244(3)
N14 N 0.1437(3) 0.2666(4) 0.3345(2)
C115 C 0.1128(5) 0.1944(6) 0.3210(3)
C116 C 0.1580(5) 0.3592(7) 0.2602(3)
C117 C 0.1464(5) 0.3447(7) 0.2234(3)
H60 H 0.1194 0.2804 0.2055
C118 C 0.1411(5) 0.2430(7) 0.3657(3)
H61 H 0.0993 0.1682 0.3080
C119 C 0.1226(5) 0.1982(7) 0.3558(4)
C120 C 0.1774(5) 0.4049(7) 0.2696(3)
H62 H 0.1491 0.3621 0.2038
H63 H 0.1180 0.1750 0.3707
H64 H 0.1800 0.4241 0.2515
O16 O 0.6073(4) 0.3775(2) 0.93251(17)
C121 C 0.6066(6) 0.3684(4) 0.8997(3)
O17 O 0.6284(5) 0.3523(3) 0.88569(17)
C122 C 0.5799(7) 0.3781(4) 0.8756(3)
C123 C 0.5513(9) 0.3920(5) 0.8874(3)
C124 C 0.5818(7) 0.3746(4) 0.8412(3)
H65 H 0.5462 0.3924 0.9115
C125 C 0.5301(9) 0.4055(5) 0.8638(3)
C126 C 0.5582(9) 0.3862(5) 0.8179(4)
H66 H 0.5995 0.3639 0.8320
H67 H 0.5133 0.4173 0.8728
C127 C 0.5321(7) 0.4028(4) 0.8297(3)
H68 H 0.5603 0.3827 0.7938
C128 C 0.5110(9) 0.4202(5) 0.8068(3)
C129 C 0.4686(9) 0.3944(5) 0.7943(3)
C130 C 0.5382(10) 0.4641(6) 0.7959(3)
C131 C 0.4407(9) 0.3455(5) 0.8032(5)
N15 N 0.4449(6) 0.4053(3) 0.7721(3)
N16 N 0.5265(5) 0.4900(3) 0.7735(2)
C132 C 0.5857(10) 0.4973(6) 0.8060(4)
C133 C 0.4008(9) 0.3322(5) 0.7903(5)
H69 H 0.4500 0.3283 0.8153
C134 C 0.4034(10) 0.3695(5) 0.7679(5)
C135 C 0.5642(8) 0.5302(5) 0.7704(4)
C136 C 0.6002(9) 0.5359(5) 0.7907(4)
H70 H 0.6027 0.4909 0.8213
H71 H 0.3755 0.3047 0.7942
H72 H 0.6281 0.5612 0.7929
Zn8 Zn 0.36372(4) 0.72814(3) 0.52838(2)
O18 O 0.4143(3) 0.7390(2) 0.49798(18)
O19 O 0.4155(4) 0.6751(4) 0.49929(19)
O20 O 0.3927(4) 0.7702(3) 0.56749(17)
C137 C 0.4295(6) 0.7135(4) 0.4901(3)
C138 C 0.3934(6) 0.7618(5) 0.6003(3)
O21 O 0.3716(5) 0.7239(4) 0.61431(17)
C139 C 0.4690(5) 0.7364(4) 0.4650(3)
C140 C 0.4201(7) 0.7982(6) 0.6244(3)
C141 C 0.4878(5) 0.7114(3) 0.4530(3)
C142 C 0.4865(6) 0.7792(4) 0.4539(3)
C143 C 0.4487(9) 0.8407(7) 0.6126(3)
C144 C 0.4182(7) 0.7928(6) 0.6588(3)
H73 H 0.4758 0.6819 0.4601
C145 C 0.5249(6) 0.7308(4) 0.4298(3)
C146 C 0.5220(5) 0.7958(4) 0.4314(3)
H74 H 0.4746 0.7966 0.4613
H75 H 0.4538 0.8462 0.5885
C147 C 0.4699(9) 0.8754(7) 0.6362(3)
C148 C 0.4418(9) 0.8280(7) 0.6821(4)
H76 H 0.4005 0.7644 0.6680
H77 H 0.5377 0.7142 0.4223
C149 C 0.5417(5) 0.7729(3) 0.4188(3)
H78 H 0.5337 0.8251 0.4240
H79 H 0.4867 0.9040 0.6272
C150 C 0.4679(7) 0.8707(6) 0.6703(3)
H80 H 0.4397 0.8224 0.7062
C151 C 0.5792(5) 0.7902(4) 0.3926(3)
C152 C 0.4890(9) 0.9092(7) 0.6932(3)
C153 C 0.6215(5) 0.8195(4) 0.4053(3)
C154 C 0.5701(5) 0.7769(4) 0.3582(3)
C155 C 0.5314(9) 0.9258(7) 0.7057(3)
C156 C 0.4618(10) 0.9259(8) 0.7041(3)
N17 N 0.6603(4) 0.8405(3) 0.3848(2)
C157 C 0.6333(6) 0.8358(4) 0.4423(3)
N18 N 0.5999(4) 0.7895(3) 0.3322(2)
C158 C 0.5277(6) 0.7482(4) 0.3457(3)
C159 C 0.5593(9) 0.9048(8) 0.6968(5)
N19 N 0.5551(6) 0.9604(5) 0.7279(3)
N20 N 0.4735(5) 0.9635(4) 0.7265(2)
C160 C 0.4143(10) 0.9116(8) 0.6940(4)
C161 C 0.6925(7) 0.8678(5) 0.4065(3)
Zn9 Zn 0.6666 0.8333 0.3333
C162 C 0.6780(7) 0.8649(5) 0.4433(3)
H81 H 0.6137 0.8276 0.4612
C163 C 0.5763(7) 0.7685(5) 0.3010(3)
H82 H 0.5015 0.7355 0.3587
C164 C 0.5315(7) 0.7422(5) 0.3109(4)
C165 C 0.5992(9) 0.9314(8) 0.7097(5)
H83 H 0.5500 0.8783 0.6847
C166 C 0.5966(10) 0.9661(9) 0.7321(5)
Zn10_2 Zn 0.53267(12) 1.00000(10) 0.7500
C167 C 0.4358(8) 0.9660(6) 0.7296(4)
C168 C 0.3998(9) 0.9357(7) 0.7093(4)
H84 H 0.3973 0.8882 0.6787
C169 C 0.7382(7) 0.8941(5) 0.3971(3)
H85 H 0.6954 0.8796 0.4629
H86 H 0.5083 0.7236 0.2960
H87 H 0.6245 0.9292 0.7058
C170_2 C 0.6314(12) 1.0000(10) 0.7500
C171_2 C 0.4372(10) 1.0000(8) 0.7500
H88 H 0.3719 0.9331 0.7071
H89 H 0.7574 0.9107 0.4152
H90_2 H 0.6582 1.0000 0.7500
H91_2 H 0.4104 1.0000 0.7500
O22 O 0.9190(3) 0.9277(2) 0.16869(18)
O23 O 0.9178(4) 0.9916(4) 0.16738(19)
C172 C 0.9038(6) 0.9532(4) 0.1766(3)
C173 C 0.8643(5) 0.9303(4) 0.2017(3)
C174 C 0.8455(5) 0.9553(3) 0.2137(3)
C175 C 0.8468(6) 0.8875(4) 0.2128(3)
H92 H 0.8575 0.9848 0.2066
C176 C 0.8084(6) 0.9359(4) 0.2369(3)
C177 C 0.8113(5) 0.8709(4) 0.2353(3)
H93 H 0.8587 0.8701 0.2054
H94 H 0.7956 0.9525 0.2444
C178 C 0.7916(5) 0.8938(3) 0.2479(3)
H95 H 0.7996 0.8416 0.2427
C179 C 0.7541(5) 0.8765(4) 0.2741(3)
C180 C 0.7118(5) 0.8472(4) 0.2614(3)
C181 C 0.7632(5) 0.8898(4) 0.3085(3)
N21 N 0.6730(4) 0.8262(3) 0.2819(2)
C182 C 0.7000(6) 0.8309(4) 0.2244(3)
N22 N 0.7334(4) 0.8772(3) 0.3345(2)
C183 C 0.8056(6) 0.9185(4) 0.3210(3)
C184 C 0.6408(7) 0.7989(5) 0.2602(3)
C185 C 0.6553(7) 0.8018(5) 0.2234(3)
H96 H 0.7196 0.8391 0.2055
C186 C 0.7570(7) 0.8982(5) 0.3657(3)
H97 H 0.8318 0.9312 0.3080
C187 C 0.8018(7) 0.9245(5) 0.3558(4)
C188 C 0.5951(7) 0.7726(5) 0.2696(3)
H98 H 0.6379 0.7871 0.2038
H99 H 0.8250 0.9431 0.3707
H100 H 0.5759 0.7560 0.2515
O26 O 0.0000 1.0000 0.1228(2)
Zn12 Zn 0.0000 1.0000 0.07193(5)
Zn16 Zn 0.63628(4) 0.36442(3) 0.97162(2)
Zn21 Zn 0.96961(4) 0.93853(3) 0.13829(2)
O35 O 0.9810(3) 0.0383(5) 0.05236(17)
Zn4_2 Zn 1.00000(10) 0.53267(7) 0.7500
C34_2 C 1.0000(10) 0.6314(7) 0.7500
C35_2 C 1.0000(8) 0.4372(6) 0.7500
H18_2 H 1.0000 0.6582 0.7500
H19_2 H 1.0000 0.4104 0.7500
O8 O 0.7702(3) 0.3927(4) 0.93251(17)
C53 C 0.7618(5) 0.3934(6) 0.8997(3)
O9 O 0.7239(4) 0.3716(5) 0.88569(17)
C54 C 0.7982(6) 0.4201(7) 0.8756(3)
C55 C 0.8407(7) 0.4487(9) 0.8874(3)
C56 C 0.7928(6) 0.4182(7) 0.8412(3)
H29 H 0.8462 0.4538 0.9115
C57 C 0.8754(7) 0.4699(9) 0.8638(3)
C58 C 0.8280(7) 0.4418(9) 0.8179(4)
H30 H 0.7644 0.4005 0.8320
H31 H 0.9040 0.4867 0.8728
C59 C 0.8707(6) 0.4679(7) 0.8297(3)
H32 H 0.8224 0.4397 0.7938
C60 C 0.9092(7) 0.4890(9) 0.8068(3)
C61 C 0.9258(7) 0.5314(9) 0.7943(3)
C62 C 0.9259(8) 0.4618(10) 0.7959(3)
C63 C 0.9048(8) 0.5593(9) 0.8032(5)
N7 N 0.9604(5) 0.5551(6) 0.7721(3)
N8 N 0.9635(4) 0.4735(5) 0.7735(2)
C64 C 0.9116(8) 0.4143(10) 0.8060(4)
C65 C 0.9314(8) 0.5992(9) 0.7903(5)
H33 H 0.8783 0.5500 0.8153
C66 C 0.9661(9) 0.5966(10) 0.7679(5)
C67 C 0.9660(6) 0.4358(8) 0.7704(4)
C68 C 0.9357(7) 0.3998(9) 0.7907(4)
H34 H 0.8882 0.3973 0.8213
H35 H 0.9292 0.6245 0.7942
H36 H 0.9331 0.3719 0.7929
Zn17 Zn 0.72814(3) 0.36372(4) 0.97162(2)
O32 O 0.9558(2) 0.0594(4) 0.09918(17)
O33 O 0.9406(4) 0.8965(3) 0.09918(17)
O36 O 0.9617(5) 0.9428(4) 0.05236(17)
O27 O 0.0000 0.0001 0.1228(2)
Zn12_2 Zn 0.0000 0.0001 0.07193(5)
O26_2 O 0.9999 1.0000 0.1228(2)
Zn12_3 Zn 0.9999 1.0000 0.07193(5)
O1_2 O 0.6667 0.3333 0.9561(2)
C2_2 C 0.0951(5) 0.0351(4) 0.0664(3)
C4_2 C 0.1315(6) 0.0448(4) 0.0423(3)
C7_2 C 0.1740(7) 0.0587(5) 0.0541(3)
C8_2 C 0.1261(6) 0.0413(4) 0.0079(3)
H3_2 H 0.1795 0.0591 0.0782
C11_2 C 0.2087(7) 0.0722(5) 0.0305(3)
H7_2 H 0.2373 0.0840 0.0395
C70_2 C 0.9649(4) 0.0601(6) 0.0664(3)
C72_2 C 0.9552(4) 0.0868(7) 0.0423(3)
C75_2 C 0.9413(5) 0.1154(9) 0.0541(3)
C76_2 C 0.9587(4) 0.0849(7) 0.0079(3)
H39_2 H 0.9409 0.1205 0.0782
C79_2 C 0.9278(5) 0.1366(9) 0.0305(3)
H43_2 H 0.9160 0.1534 0.0395
C138_2 C 0.9399(6) 0.9049(5) 0.0664(3)
C140_2 C 0.9132(7) 0.8685(6) 0.0423(3)
C143_2 C 0.8846(9) 0.8260(7) 0.0541(3)
C144_2 C 0.9151(7) 0.8739(6) 0.0079(3)
H75_2 H 0.8795 0.8205 0.0782
C147_2 C 0.8634(9) 0.7913(7) 0.0305(3)
H79_2 H 0.8466 0.7627 0.0395
Zn11_2 Zn 0.03109(3) 0.06147(3) 0.36171(2)
Zn20_2 Zn 0.03039(4) 0.96891(3) 0.36171(2)
O29_2 O 0.0822(4) 0.0737(2) 0.33262(19)
O31_2 O 0.0442(2) 0.1035(3) 0.40082(17)
O34_2 O 0.0190(3) 0.0572(4) 0.44764(17)
O35_2 O 0.0383(5) 0.9810(3) 0.44764(17)
O2_2 O 0.6753(2) 0.2610(2) 0.00202(18)
O3_2 O 0.7404(2) 0.3249(4) 0.00071(19)
C1_2 C 0.7160(4) 0.2865(4) 0.0099(3)
C3_2 C 0.7326(3) 0.2636(4) 0.0350(3)
C5_2 C 0.7764(4) 0.2886(3) 0.0470(3)
C6_2 C 0.7073(4) 0.2208(4) 0.0461(3)
H1_2 H 0.7939 0.3181 0.0399
C9_2 C 0.7941(4) 0.2692(4) 0.0702(3)
C10_2 C 0.7262(3) 0.2042(4) 0.0686(3)
H2_2 H 0.6780 0.2034 0.0387
H5_2 H 0.8235 0.2858 0.0777
C13_2 C 0.7688(4) 0.2271(3) 0.0812(3)
H6_2 H 0.7086 0.1749 0.0760
C15_2 C 0.7890(3) 0.2098(4) 0.1074(3)
C17_2 C 0.8020(3) 0.1805(4) 0.0947(3)
C18_2 C 0.7932(3) 0.2231(4) 0.1418(3)
N1_2 N 0.8198(3) 0.1595(3) 0.1152(2)
C21_2 C 0.7975(4) 0.1642(4) 0.0577(3)
N2_2 N 0.8104(3) 0.2105(3) 0.1678(2)
C22_2 C 0.7795(5) 0.2518(4) 0.1543(3)
C25_2 C 0.8247(5) 0.1322(5) 0.0935(3)
Zn3_2 Zn 0.8333 0.1667 0.1667
C26_2 C 0.8131(5) 0.1351(5) 0.0567(3)
H9_2 H 0.7861 0.1724 0.0388
C27_2 C 0.8078(5) 0.2315(5) 0.1990(3)
H10_2 H 0.7660 0.2645 0.1413
C28_2 C 0.7893(5) 0.2578(5) 0.1891(4)
C33_2 C 0.8441(5) 0.1059(5) 0.1029(3)
H13_2 H 0.8158 0.1204 0.0371
H14_2 H 0.7847 0.2764 0.2040
H17_2 H 0.8467 0.0893 0.0848
O6_2 O 0.9914(2) 0.0723(2) 0.33131(18)
O7_2 O 0.9263(2) 0.0084(4) 0.33262(19)
C36_2 C 0.9507(4) 0.0468(4) 0.3234(3)
C37_2 C 0.9341(3) 0.0697(4) 0.2983(3)
C38_2 C 0.8903(4) 0.0447(3) 0.2863(3)
C39_2 C 0.9594(4) 0.1125(4) 0.2872(3)
H20_2 H 0.8728 0.0152 0.2934
C40_2 C 0.8726(4) 0.0641(4) 0.2631(3)
C41_2 C 0.9405(3) 0.1291(4) 0.2647(3)
H21_2 H 0.9887 0.1299 0.2946
H22_2 H 0.8432 0.0475 0.2556
C42_2 C 0.8979(4) 0.1062(3) 0.2521(3)
H23_2 H 0.9581 0.1584 0.2573
C43_2 C 0.8777(3) 0.1235(4) 0.2259(3)
C44_2 C 0.8647(3) 0.1528(4) 0.2386(3)
C45_2 C 0.8735(3) 0.1102(4) 0.1915(3)
N5_2 N 0.8469(3) 0.1738(3) 0.2181(2)
C46_2 C 0.8692(4) 0.1691(4) 0.2756(3)
N6_2 N 0.8563(3) 0.1228(3) 0.1655(2)
C47_2 C 0.8872(5) 0.0815(4) 0.1790(3)
C48_2 C 0.8420(5) 0.2011(5) 0.2398(3)
C49_2 C 0.8536(5) 0.1982(5) 0.2766(3)
H24_2 H 0.8806 0.1609 0.2945
C50_2 C 0.8589(5) 0.1018(5) 0.1343(3)
H25_2 H 0.9007 0.0688 0.1920
C51_2 C 0.8774(5) 0.0755(5) 0.1442(4)
C52_2 C 0.8226(5) 0.2274(5) 0.2304(3)
H26_2 H 0.8509 0.2129 0.2962
H27_2 H 0.8820 0.0569 0.1293
H28_2 H 0.8200 0.2440 0.2485
O10_2 O 0.5857(3) 0.3247(2) 0.00202(18)
O11_2 O 0.5845(4) 0.2596(2) 0.00071(19)
C69_2 C 0.5705(6) 0.2840(4) 0.0099(3)
C71_2 C 0.5310(5) 0.2674(3) 0.0350(3)
C73_2 C 0.5122(5) 0.2236(4) 0.0470(3)
C74_2 C 0.5135(6) 0.2927(4) 0.0461(3)
H37_2 H 0.5242 0.2061 0.0399
C77_2 C 0.4751(6) 0.2059(4) 0.0702(3)
C78_2 C 0.4780(5) 0.2738(3) 0.0686(3)
H38_2 H 0.5254 0.3220 0.0387
H41_2 H 0.4623 0.1765 0.0777
C81_2 C 0.4583(5) 0.2312(4) 0.0812(3)
H42_2 H 0.4663 0.2914 0.0760
C83_2 C 0.4208(5) 0.2110(3) 0.1074(3)
C85_2 C 0.3785(5) 0.1980(3) 0.0947(3)
C86_2 C 0.4299(5) 0.2068(3) 0.1418(3)
N9_2 N 0.3397(4) 0.1802(3) 0.1152(2)
C89_2 C 0.3667(6) 0.2025(4) 0.0577(3)
N10_2 N 0.4001(4) 0.1896(3) 0.1678(2)
C90_2 C 0.4723(6) 0.2205(5) 0.1543(3)
C93_2 C 0.3075(7) 0.1753(5) 0.0935(3)
Zn6_2 Zn 0.3334 0.1667 0.1667
C94_2 C 0.3220(7) 0.1869(5) 0.0567(3)
H45_2 H 0.3863 0.2139 0.0388
C95_2 C 0.4237(7) 0.1922(5) 0.1990(3)
H46_2 H 0.4985 0.2340 0.1413
C96_2 C 0.4685(7) 0.2107(5) 0.1891(4)
C101_2 C 0.2618(7) 0.1559(5) 0.1029(3)
H49_2 H 0.3046 0.1842 0.0371
H50_2 H 0.4917 0.2153 0.2040
H53_2 H 0.2426 0.1533 0.0848
O14_2 O 0.0810(3) 0.0086(2) 0.33131(18)
C104_2 C 0.0962(6) 0.0493(4) 0.3234(3)
C105_2 C 0.1357(5) 0.0659(3) 0.2983(3)
C106_2 C 0.1545(5) 0.1097(4) 0.2863(3)
C107_2 C 0.1532(6) 0.0406(4) 0.2872(3)
H56_2 H 0.1425 0.1272 0.2934
C108_2 C 0.1916(6) 0.1274(4) 0.2631(3)
C109_2 C 0.1887(5) 0.0595(3) 0.2647(3)
H57_2 H 0.1413 0.0113 0.2946
H58_2 H 0.2044 0.1568 0.2556
C110_2 C 0.2084(5) 0.1021(4) 0.2521(3)
H59_2 H 0.2004 0.0419 0.2573
C111_2 C 0.2459(5) 0.1223(3) 0.2259(3)
C112_2 C 0.2882(5) 0.1353(3) 0.2386(3)
C113_2 C 0.2368(5) 0.1265(3) 0.1915(3)
N13_2 N 0.3270(4) 0.1531(3) 0.2181(2)
C114_2 C 0.3000(6) 0.1308(4) 0.2756(3)
N14_2 N 0.2666(4) 0.1437(3) 0.1655(2)
C115_2 C 0.1944(6) 0.1128(5) 0.1790(3)
C116_2 C 0.3592(7) 0.1580(5) 0.2398(3)
C117_2 C 0.3447(7) 0.1464(5) 0.2766(3)
H60_2 H 0.2804 0.1194 0.2945
C118_2 C 0.2430(7) 0.1411(5) 0.1343(3)
H61_2 H 0.1682 0.0993 0.1920
C119_2 C 0.1982(7) 0.1226(5) 0.1442(4)
C120_2 C 0.4049(7) 0.1774(5) 0.2304(3)
H62_2 H 0.3621 0.1491 0.2962
H63_2 H 0.1750 0.1180 0.1293
H64_2 H 0.4241 0.1800 0.2485
O18_2 O 0.7390(2) 0.4143(3) 0.00202(18)
O19_2 O 0.6751(4) 0.4155(4) 0.00071(19)
C137_2 C 0.7135(4) 0.4295(6) 0.0099(3)
C139_2 C 0.7364(4) 0.4690(5) 0.0350(3)
C141_2 C 0.7114(3) 0.4878(5) 0.0470(3)
C142_2 C 0.7792(4) 0.4865(6) 0.0461(3)
H73_2 H 0.6819 0.4758 0.0399
C145_2 C 0.7308(4) 0.5249(6) 0.0702(3)
C146_2 C 0.7958(4) 0.5220(5) 0.0686(3)
H74_2 H 0.7966 0.4746 0.0387
H77_2 H 0.7142 0.5377 0.0777
C149_2 C 0.7729(3) 0.5417(5) 0.0812(3)
H78_2 H 0.8251 0.5337 0.0760
C151_2 C 0.7902(4) 0.5792(5) 0.1074(3)
C153_2 C 0.8195(4) 0.6215(5) 0.0947(3)
C154_2 C 0.7769(4) 0.5701(5) 0.1418(3)
N17_2 N 0.8405(3) 0.6603(4) 0.1152(2)
C157_2 C 0.8358(4) 0.6333(6) 0.0577(3)
N18_2 N 0.7895(3) 0.5999(4) 0.1678(2)
C158_2 C 0.7482(4) 0.5277(6) 0.1543(3)
C161_2 C 0.8678(5) 0.6925(7) 0.0935(3)
Zn9_2 Zn 0.8333 0.6666 0.1667
C162_2 C 0.8649(5) 0.6780(7) 0.0567(3)
H81_2 H 0.8276 0.6137 0.0388
C163_2 C 0.7685(5) 0.5763(7) 0.1990(3)
H82_2 H 0.7355 0.5015 0.1413
C164_2 C 0.7422(5) 0.5315(7) 0.1891(4)
C169_2 C 0.8941(5) 0.7382(7) 0.1029(3)
H85_2 H 0.8796 0.6954 0.0371
H86_2 H 0.7236 0.5083 0.2040
H89_2 H 0.9107 0.7574 0.0848
O22_2 O 0.9277(2) 0.9190(3) 0.33131(18)
O23_2 O 0.9916(4) 0.9178(4) 0.33262(19)
C172_2 C 0.9532(4) 0.9038(6) 0.3234(3)
C173_2 C 0.9303(4) 0.8643(5) 0.2983(3)
C174_2 C 0.9553(3) 0.8455(5) 0.2863(3)
C175_2 C 0.8875(4) 0.8468(6) 0.2872(3)
H92_2 H 0.9848 0.8575 0.2934
C176_2 C 0.9359(4) 0.8084(6) 0.2631(3)
C177_2 C 0.8709(4) 0.8113(5) 0.2647(3)
H93_2 H 0.8701 0.8587 0.2946
H94_2 H 0.9525 0.7956 0.2556
C178_2 C 0.8938(3) 0.7916(5) 0.2521(3)
H95_2 H 0.8416 0.7996 0.2573
C179_2 C 0.8765(4) 0.7541(5) 0.2259(3)
C180_2 C 0.8472(4) 0.7118(5) 0.2386(3)
C181_2 C 0.8898(4) 0.7632(5) 0.1915(3)
N21_2 N 0.8262(3) 0.6730(4) 0.2181(2)
C182_2 C 0.8309(4) 0.7000(6) 0.2756(3)
N22_2 N 0.8772(3) 0.7334(4) 0.1655(2)
C183_2 C 0.9185(4) 0.8056(6) 0.1790(3)
C184_2 C 0.7989(5) 0.6408(7) 0.2398(3)
C185_2 C 0.8018(5) 0.6553(7) 0.2766(3)
H96_2 H 0.8391 0.7196 0.2945
C186_2 C 0.8982(5) 0.7570(7) 0.1343(3)
H97_2 H 0.9312 0.8318 0.1920
C187_2 C 0.9245(5) 0.8018(7) 0.1442(4)
C188_2 C 0.7726(5) 0.5951(7) 0.2304(3)
H98_2 H 0.7871 0.6379 0.2962
H99_2 H 0.9431 0.8250 0.1293
H100_2 H 0.7560 0.5759 0.2485
O26_3 O 1.0000 0.0000 0.3772(2)
Zn12_4 Zn 1.0000 0.0000 0.42807(5)
Zn21_2 Zn 0.93853(3) 0.96961(4) 0.36171(2)
O32_2 O 0.0594(4) 0.9558(2) 0.40082(17)
O33_2 O 0.8965(3) 0.9406(4) 0.40082(17)
O36_2 O 0.9428(4) 0.9617(5) 0.44764(17)
O27_2 O 0.0001 0.0000 0.3772(2)
Zn12_5 Zn 0.0001 0.0000 0.42807(5)
O26_4 O 1.0000 0.9999 0.3772(2)
Zn12_6 Zn 1.0000 0.9999 0.42807(5)
O22_3 O 0.2524(3) 0.5943(2) 0.83535(18)
O23_3 O 0.2512(4) 0.6582(4) 0.83404(19)
C172_3 C 0.2372(6) 0.6198(4) 0.8432(3)
C173_3 C 0.1977(5) 0.5969(4) 0.8683(3)
C174_3 C 0.1789(5) 0.6219(3) 0.8803(3)
C175_3 C 0.1802(6) 0.5541(4) 0.8794(3)
H92_3 H 0.1909 0.6514 0.8732
C176_3 C 0.1418(6) 0.6025(4) 0.9035(3)
C177_3 C 0.1447(5) 0.5375(4) 0.9019(3)
H93_3 H 0.1921 0.5367 0.8720
H94_3 H 0.1290 0.6191 0.9110
C178_3 C 0.1250(5) 0.5604(3) 0.9145(3)
H95_3 H 0.1330 0.5082 0.9093
C179_3 C 0.0875(5) 0.5431(4) 0.9407(3)
C180_3 C 0.0452(5) 0.5138(4) 0.9280(3)
C181_3 C 0.0966(5) 0.5564(4) 0.9751(3)
N21_3 N 0.0064(4) 0.4928(3) 0.9485(2)
C182_3 C 0.0334(6) 0.4975(4) 0.8910(3)
C183_3 C 0.1390(6) 0.5851(4) 0.9876(3)
H96_3 H 0.0530 0.5057 0.8721
H97_3 H 0.1652 0.5978 0.9746
Zn20_3 Zn 0.30225(3) 0.69705(4) 0.80495(2)
Zn21_3 Zn 0.30295(4) 0.60519(3) 0.80495(2)
N2_3 N 0.5438(3) 0.4771(3) 0.9989(2)
Zn3_3 Zn 0.5000 0.5000 1.0000
C27_3 C 0.5648(5) 0.4745(5) 0.9677(3)
C28_3 C 0.5911(5) 0.4560(5) 0.9776(4)
H14_3 H 0.6097 0.4514 0.9627
O6_3 O 0.4057(2) 0.6580(2) 0.83535(18)
O7_3 O 0.3418(4) 0.5929(2) 0.83404(19)
C36_3 C 0.3802(4) 0.6173(4) 0.8432(3)
C37_3 C 0.4031(4) 0.6007(3) 0.8683(3)
C38_3 C 0.3781(3) 0.5569(4) 0.8803(3)
C39_3 C 0.4459(4) 0.6260(4) 0.8794(3)
H20_3 H 0.3486 0.5394 0.8732
C40_3 C 0.3975(4) 0.5392(4) 0.9035(3)
C41_3 C 0.4625(4) 0.6071(3) 0.9019(3)
H21_3 H 0.4633 0.6553 0.8720
H22_3 H 0.3809 0.5098 0.9110
C42_3 C 0.4396(3) 0.5645(4) 0.9145(3)
H23_3 H 0.4918 0.6247 0.9093
C43_3 C 0.4569(4) 0.5443(3) 0.9407(3)
C44_3 C 0.4862(4) 0.5313(3) 0.9280(3)
C45_3 C 0.4436(4) 0.5401(3) 0.9751(3)
N5_3 N 0.5072(3) 0.5135(3) 0.9485(2)
C46_3 C 0.5025(4) 0.5358(4) 0.8910(3)
C47_3 C 0.4149(4) 0.5538(5) 0.9876(3)
C48_3 C 0.5345(5) 0.5086(5) 0.9268(3)
C49_3 C 0.5316(5) 0.5202(5) 0.8900(3)
H24_3 H 0.4943 0.5472 0.8721
H25_3 H 0.4022 0.5673 0.9746
C52_3 C 0.5608(5) 0.4892(5) 0.9362(3)
H26_3 H 0.5463 0.5175 0.8704
H28_3 H 0.5774 0.4866 0.9181
N10_3 N 0.5229(3) 0.0668(4) 0.9989(2)
Zn6_3 Zn 0.5000 0.0001 1.0000
C95_3 C 0.5255(5) 0.0904(7) 0.9677(3)
C96_3 C 0.5440(5) 0.1352(7) 0.9776(4)
H50_3 H 0.5486 0.1584 0.9627
C116_3 C 0.4914(5) 0.0258(7) 0.9268(3)
C117_3 C 0.4798(5) 0.0113(7) 0.8900(3)
C120_3 C 0.5108(5) 0.0715(7) 0.9362(3)
H62_3 H 0.4825 0.0287 0.8704
H64_3 H 0.5134 0.0907 0.9181
N18_3 N 0.9332(4) 0.4562(3) 0.9989(2)
Zn9_3 Zn 0.9999 0.5000 1.0000
C163_3 C 0.9096(7) 0.4352(5) 0.9677(3)
C164_3 C 0.8648(7) 0.4089(5) 0.9776(4)
H86_3 H 0.8416 0.3903 0.9627
C184_3 C 0.9742(7) 0.4655(5) 0.9268(3)
C185_3 C 0.9887(7) 0.4684(5) 0.8900(3)
C188_3 C 0.9285(7) 0.4392(5) 0.9362(3)
H98_3 H 0.9713 0.4537 0.8704
H100_3 H 0.9093 0.4226 0.9181
Zn11_3 Zn 0.39481(3) 0.69775(3) 0.80495(2)
O26_5 O 0.3334 0.6666 0.7894(2)
Zn12_7 Zn 0.3334 0.6666 0.73859(5)
O29_3 O 0.4071(2) 0.7488(4) 0.83404(19)
O31_3 O 0.4369(3) 0.7108(2) 0.76584(17)
O33_3 O 0.2740(4) 0.5631(3) 0.76584(17)
O34_3 O 0.3906(4) 0.6856(3) 0.71902(17)
O35_3 O 0.3144(3) 0.7049(5) 0.71902(17)
O36_3 O 0.2951(5) 0.6094(4) 0.71902(17)
O14_3 O 0.3420(2) 0.7476(3) 0.83535(18)
C104_3 C 0.3827(4) 0.7628(6) 0.8432(3)
C105_3 C 0.3993(3) 0.8023(5) 0.8683(3)
C106_3 C 0.4431(4) 0.8211(5) 0.8803(3)
C107_3 C 0.3740(4) 0.8198(6) 0.8794(3)
H56_3 H 0.4606 0.8091 0.8732
C108_3 C 0.4608(4) 0.8582(6) 0.9035(3)
C109_3 C 0.3929(3) 0.8553(5) 0.9019(3)
H57_3 H 0.3447 0.8079 0.8720
H58_3 H 0.4902 0.8710 0.9110
C110_3 C 0.4355(4) 0.8750(5) 0.9145(3)
H59_3 H 0.3753 0.8670 0.9093
C111_3 C 0.4557(3) 0.9125(5) 0.9407(3)
C112_3 C 0.4687(3) 0.9548(5) 0.9280(3)
C113_3 C 0.4599(3) 0.9034(5) 0.9751(3)
N13_3 N 0.4865(3) 0.9936(4) 0.9485(2)
C114_3 C 0.4642(4) 0.9666(6) 0.8910(3)
C115_3 C 0.4462(5) 0.8610(6) 0.9876(3)
H60_3 H 0.4528 0.9470 0.8721
H61_3 H 0.4327 0.8348 0.9746
O32_3 O 0.2892(2) 0.7260(4) 0.76584(17)
C133_2 C 0.2659(9) 0.0011(5) 0.5430(5)
H69_2 H 0.2167 0.0050 0.5180
H71_2 H 0.2912 0.0286 0.5391
C2_3 C 0.4285(5) 0.7017(4) 0.7330(3)
C4_3 C 0.4649(6) 0.7114(4) 0.7089(3)
C7_3 C 0.5074(7) 0.7253(5) 0.7207(3)
C8_3 C 0.4595(6) 0.7079(4) 0.6745(3)
H3_3 H 0.5129 0.7257 0.7448
C11_3 C 0.5421(7) 0.7388(5) 0.6971(3)
C12_2 C 0.4947(7) 0.7195(5) 0.6512(4)
H4_2 H 0.4311 0.6972 0.6653
H7_3 H 0.5707 0.7506 0.7061
C14_2 C 0.5374(6) 0.7361(4) 0.6630(3)
H8_2 H 0.4891 0.7160 0.6271
C16_2 C 0.5759(7) 0.7535(5) 0.6401(3)
C19_2 C 0.5925(7) 0.7277(5) 0.6276(3)
C20_2 C 0.5926(8) 0.7974(6) 0.6292(3)
C23_2 C 0.5715(8) 0.6788(5) 0.6365(5)
N3_2 N 0.6271(5) 0.7386(3) 0.6054(3)
N4_2 N 0.6302(4) 0.8233(3) 0.6068(2)
C24_2 C 0.5783(8) 0.8306(6) 0.6393(4)
C29_2 C 0.5981(8) 0.6655(5) 0.6236(5)
H11_2 H 0.5450 0.6616 0.6486
C30_2 C 0.6328(9) 0.7028(5) 0.6012(5)
Zn4_3 Zn 0.66667(10) 0.80066(7) 0.5833
C31_2 C 0.6327(6) 0.8635(5) 0.6037(4)
C32_2 C 0.6024(7) 0.8692(5) 0.6240(4)
H12_2 H 0.5549 0.8242 0.6546
H15_2 H 0.5959 0.6380 0.6275
C34_3 C 0.6667(10) 0.7019(7) 0.5833
C35_3 C 0.6667(8) 0.8961(6) 0.5833
H16_2 H 0.5998 0.8945 0.6262
H18_3 H 0.6667 0.6751 0.5833
H19_3 H 0.6667 0.9229 0.5833
C53_2 C 0.9049(5) 0.9399(6) 0.4336(3)
C54_2 C 0.8685(6) 0.9132(7) 0.4577(3)
C55_2 C 0.8260(7) 0.8846(9) 0.4459(3)
C56_2 C 0.8739(6) 0.9151(7) 0.4921(3)
H29_2 H 0.8205 0.8795 0.4218
C57_2 C 0.7913(7) 0.8634(9) 0.4695(3)
C58_2 C 0.8387(7) 0.8915(9) 0.5154(4)
H30_2 H 0.9023 0.9328 0.5013
H31_2 H 0.7627 0.8466 0.4605
C59_2 C 0.7960(6) 0.8654(7) 0.5036(3)
H32_2 H 0.8443 0.8936 0.5395
C60_2 C 0.7575(7) 0.8443(9) 0.5265(3)
C61_2 C 0.7409(7) 0.8019(9) 0.5390(3)
C62_2 C 0.7408(8) 0.8715(10) 0.5374(3)
C63_2 C 0.7619(8) 0.7740(9) 0.5301(5)
N7_2 N 0.7063(5) 0.7782(6) 0.5612(3)
N8_2 N 0.7032(4) 0.8598(5) 0.5598(2)
C64_2 C 0.7551(8) 0.9190(10) 0.5273(4)
C65_2 C 0.7353(8) 0.7341(9) 0.5430(5)
H33_2 H 0.7884 0.7833 0.5180
C66_2 C 0.7006(9) 0.7367(10) 0.5654(5)
C67_2 C 0.7007(6) 0.8975(8) 0.5629(4)
C68_2 C 0.7310(7) 0.9335(9) 0.5426(4)
H34_2 H 0.7785 0.9360 0.5120
H35_2 H 0.7375 0.7088 0.5391
H36_2 H 0.7336 0.9614 0.5404
C70_3 C 0.2983(4) 0.7267(6) 0.7330(3)
C72_3 C 0.2886(4) 0.7534(7) 0.7089(3)
C75_3 C 0.2747(5) 0.7820(9) 0.7207(3)
C76_3 C 0.2921(4) 0.7515(7) 0.6745(3)
H39_3 H 0.2743 0.7871 0.7448
C79_3 C 0.2612(5) 0.8032(9) 0.6971(3)
C80_2 C 0.2805(5) 0.7751(9) 0.6512(4)
H40_2 H 0.3028 0.7338 0.6653
H43_3 H 0.2494 0.8200 0.7061
C82_2 C 0.2639(4) 0.8012(7) 0.6630(3)
H44_2 H 0.2840 0.7730 0.6271
C84_2 C 0.2465(5) 0.8223(9) 0.6401(3)
C87_2 C 0.2723(5) 0.8647(9) 0.6276(3)
C88_2 C 0.2026(6) 0.7951(10) 0.6292(3)
C91_2 C 0.3212(5) 0.8926(9) 0.6365(5)
N11_2 N 0.2614(3) 0.8884(6) 0.6054(3)
N12_2 N 0.1767(3) 0.8068(5) 0.6068(2)
C92_2 C 0.1694(6) 0.7476(10) 0.6393(4)
C97_2 C 0.3345(5) 0.9325(9) 0.6236(5)
H47_2 H 0.3384 0.8833 0.6486
C98_2 C 0.2972(5) 0.9299(10) 0.6012(5)
Zn7_2 Zn 0.19934(7) 0.86600(12) 0.5833
C99_2 C 0.1365(5) 0.7691(8) 0.6037(4)
C100_2 C 0.1308(5) 0.7331(9) 0.6240(4)
H48_2 H 0.1758 0.7306 0.6546
H51_2 H 0.3620 0.9578 0.6275
C102_2 C 0.2981(7) 0.9647(12) 0.5833
C103_2 C 0.1039(6) 0.7705(10) 0.5833
H52_2 H 0.1055 0.7052 0.6262
H54_2 H 0.3249 0.9915 0.5833
H55_2 H 0.0771 0.7437 0.5833
C121_2 C 0.0601(6) 0.9649(4) 0.4336(3)
C122_2 C 0.0868(7) 0.9552(4) 0.4577(3)
C123_2 C 0.1154(9) 0.9413(5) 0.4459(3)
C124_2 C 0.0849(7) 0.9587(4) 0.4921(3)
H65_2 H 0.1205 0.9409 0.4218
C125_2 C 0.1366(9) 0.9278(5) 0.4695(3)
C126_2 C 0.1085(9) 0.9471(5) 0.5154(4)
H66_2 H 0.0672 0.9694 0.5013
H67_2 H 0.1534 0.9160 0.4605
C127_2 C 0.1346(7) 0.9305(4) 0.5036(3)
H68_2 H 0.1064 0.9506 0.5395
C128_2 C 0.1557(9) 0.9131(5) 0.5265(3)
C129_2 C 0.1981(9) 0.9389(5) 0.5390(3)
C130_2 C 0.1285(10) 0.8692(6) 0.5374(3)
C131_2 C 0.2260(9) 0.9878(5) 0.5301(5)
N15_2 N 0.2218(6) 0.9280(3) 0.5612(3)
N16_2 N 0.1402(5) 0.8433(3) 0.5598(2)
C132_2 C 0.0810(10) 0.8360(6) 0.5273(4)
C134_2 C 0.2633(10) 0.9638(5) 0.5654(5)
C135_2 C 0.1025(8) 0.8031(5) 0.5629(4)
C136_2 C 0.0665(9) 0.7974(5) 0.5426(4)
H70_2 H 0.0640 0.8424 0.5120
H72_2 H 0.0386 0.7721 0.5404
C138_3 C 0.2733(6) 0.5715(5) 0.7330(3)
C140_3 C 0.2466(7) 0.5351(6) 0.7089(3)
C143_3 C 0.2180(9) 0.4926(7) 0.7207(3)
C144_3 C 0.2485(7) 0.5405(6) 0.6745(3)
H75_3 H 0.2129 0.4871 0.7448
C147_3 C 0.1968(9) 0.4579(7) 0.6971(3)
C148_2 C 0.2249(9) 0.5053(7) 0.6512(4)
H76_2 H 0.2662 0.5689 0.6653
H79_3 H 0.1800 0.4293 0.7061
C150_2 C 0.1988(7) 0.4626(6) 0.6630(3)
H80_2 H 0.2270 0.5109 0.6271
C152_2 C 0.1777(9) 0.4241(7) 0.6401(3)
C155_2 C 0.1353(9) 0.4075(7) 0.6276(3)
C156_2 C 0.2049(10) 0.4074(8) 0.6292(3)
C159_2 C 0.1074(9) 0.4285(8) 0.6365(5)
N19_2 N 0.1116(6) 0.3729(5) 0.6054(3)
N20_2 N 0.1932(5) 0.3698(4) 0.6068(2)
C160_2 C 0.2524(10) 0.4217(8) 0.6393(4)
C165_2 C 0.0675(9) 0.4019(8) 0.6236(5)
H83_2 H 0.1167 0.4550 0.6486
C166_2 C 0.0701(10) 0.3672(9) 0.6012(5)
Zn10_3 Zn 0.13400(12) 0.33333(10) 0.5833
C167_2 C 0.2309(8) 0.3673(6) 0.6037(4)
C168_2 C 0.2669(9) 0.3976(7) 0.6240(4)
H84_2 H 0.2694 0.4451 0.6546
H87_2 H 0.0422 0.4041 0.6275
C170_3 C 0.0353(12) 0.3333(10) 0.5833
C171_3 C 0.2295(10) 0.3333(8) 0.5833
H88_2 H 0.2948 0.4002 0.6262
H90_3 H 0.0085 0.3333 0.5833
H91_3 H 0.2563 0.3333 0.5833
C189_2 C 0.0351(4) 0.0951(5) 0.4336(3)
C190_2 C 0.0448(4) 0.1315(6) 0.4577(3)
C191_2 C 0.0587(5) 0.1740(7) 0.4459(3)
C192_2 C 0.0413(4) 0.1261(6) 0.4921(3)
H101_2 H 0.0591 0.1795 0.4218
C193_2 C 0.0722(5) 0.2087(7) 0.4695(3)
C194_2 C 0.0529(5) 0.1613(7) 0.5154(4)
H102_2 H 0.0306 0.0977 0.5013
H103_2 H 0.0840 0.2373 0.4605
C195_2 C 0.0695(4) 0.2040(6) 0.5036(3)
H104_2 H 0.0494 0.1557 0.5395
C196_2 C 0.0869(5) 0.2425(7) 0.5265(3)
C197_2 C 0.0611(5) 0.2591(7) 0.5390(3)
C198_2 C 0.1308(6) 0.2592(8) 0.5374(3)
C199_2 C 0.0122(5) 0.2381(8) 0.5301(5)
N23_2 N 0.0720(3) 0.2937(5) 0.5612(3)
N24_2 N 0.1567(3) 0.2968(4) 0.5598(2)
C200_2 C 0.1640(6) 0.2449(8) 0.5273(4)
C202_2 C 0.0362(5) 0.2994(9) 0.5654(5)
C203_2 C 0.1969(5) 0.2993(6) 0.5629(4)
C204_2 C 0.2026(5) 0.2690(7) 0.5426(4)
H106_2 H 0.1576 0.2215 0.5120
H108_2 H 0.2279 0.2664 0.5404
C201_2 C 0.9989(5) 0.2647(8) 0.5430(5)
H105_2 H 0.9950 0.2116 0.5180
H107_2 H 0.9714 0.2625 0.5391
C148_3 C 0.1085(9) 0.1613(7) 0.0154(4)
H76_3 H 0.0672 0.0977 0.0013
C150_3 C 0.1346(7) 0.2040(6) 0.0036(3)
H80_3 H 0.1064 0.1557 0.0395
C152_3 C 0.1557(9) 0.2425(7) 0.0265(3)
C155_3 C 0.1981(9) 0.2591(7) 0.0390(3)
C156_3 C 0.1285(10) 0.2592(8) 0.0374(3)
C159_3 C 0.2260(9) 0.2381(8) 0.0301(5)
N19_3 N 0.2218(6) 0.2937(5) 0.0612(3)
N20_3 N 0.1402(5) 0.2968(4) 0.0598(2)
C160_3 C 0.0810(10) 0.2449(8) 0.0273(4)
C165_3 C 0.2659(9) 0.2647(8) 0.0430(5)
H83_3 H 0.2167 0.2116 0.0180
C166_3 C 0.2633(10) 0.2994(9) 0.0654(5)
Zn10_4 Zn 0.19934(12) 0.33333(10) 0.0833
C167_3 C 0.1025(8) 0.2993(6) 0.0629(4)
C168_3 C 0.0665(9) 0.2690(7) 0.0426(4)
H84_3 H 0.0640 0.2215 0.0120
H87_3 H 0.2912 0.2625 0.0391
C170_4 C 0.2981(12) 0.3333(10) 0.0833
C171_4 C 0.1039(10) 0.3333(8) 0.0833
H88_3 H 0.0386 0.2664 0.0404
H90_4 H 0.3249 0.3333 0.0833
H91_4 H 0.0771 0.3333 0.0833
O24_2 O 0.2892(2) 0.5631(3) 0.26584(17)
C189_3 C 0.2983(4) 0.5715(5) 0.2330(3)
O25_2 O 0.3144(3) 0.6094(4) 0.21902(17)
C190_3 C 0.2886(4) 0.5351(6) 0.2089(3)
C191_3 C 0.2747(5) 0.4926(7) 0.2207(3)
C192_3 C 0.2921(4) 0.5405(6) 0.1745(3)
H101_3 H 0.2743 0.4871 0.2448
C193_3 C 0.2612(5) 0.4579(7) 0.1971(3)
C194_3 C 0.2805(5) 0.5053(7) 0.1512(4)
H102_3 H 0.3028 0.5689 0.1653
H103_3 H 0.2494 0.4293 0.2061
C195_3 C 0.2639(4) 0.4626(6) 0.1630(3)
H104_3 H 0.2840 0.5109 0.1271
C196_3 C 0.2465(5) 0.4241(7) 0.1401(3)
C197_3 C 0.2723(5) 0.4075(7) 0.1276(3)
C198_3 C 0.2026(6) 0.4074(8) 0.1292(3)
C199_3 C 0.3212(5) 0.4285(8) 0.1365(5)
N23_3 N 0.2614(3) 0.3729(5) 0.1054(3)
N24_3 N 0.1767(3) 0.3698(4) 0.1068(2)
C200_3 C 0.1694(6) 0.4217(8) 0.1393(4)
C201_3 C 0.3345(5) 0.4019(8) 0.1236(5)
H105_3 H 0.3384 0.4550 0.1486
C202_3 C 0.2972(5) 0.3672(9) 0.1012(5)
C203_3 C 0.1365(5) 0.3673(6) 0.1037(4)
C204_3 C 0.1308(5) 0.3976(7) 0.1240(4)
H106_3 H 0.1758 0.4451 0.1546
H107_3 H 0.3620 0.4041 0.1275
H108_3 H 0.1055 0.4002 0.1262
Zn15_2 Zn 0.30225(3) 0.60519(3) 0.30495(2)
Zn24_2 Zn 0.3334 0.6666 0.23859(5)
C80_3 C 0.0529(5) 0.8915(9) 0.0154(4)
H40_3 H 0.0306 0.9328 0.0013
C82_3 C 0.0695(4) 0.8654(7) 0.0036(3)
H44_3 H 0.0494 0.8936 0.0395
C84_3 C 0.0869(5) 0.8443(9) 0.0265(3)
C87_3 C 0.0611(5) 0.8019(9) 0.0390(3)
C88_3 C 0.1308(6) 0.8715(10) 0.0374(3)
C91_3 C 0.0122(5) 0.7740(9) 0.0301(5)
N11_3 N 0.0720(3) 0.7782(6) 0.0612(3)
N12_3 N 0.1567(3) 0.8598(5) 0.0598(2)
C92_3 C 0.1640(6) 0.9190(10) 0.0273(4)
C98_3 C 0.0362(5) 0.7367(10) 0.0654(5)
Zn7_3 Zn 0.13400(7) 0.80066(12) 0.0833
C99_3 C 0.1969(5) 0.8975(8) 0.0629(4)
C100_3 C 0.2026(5) 0.9335(9) 0.0426(4)
H48_3 H 0.1576 0.9360 0.0120
C102_3 C 0.0353(7) 0.7019(12) 0.0833
C103_3 C 0.2295(6) 0.8961(10) 0.0833
H52_3 H 0.2279 0.9614 0.0404
H54_3 H 0.0085 0.6751 0.0833
H55_3 H 0.2563 0.9229 0.0833
O16_2 O 0.2740(4) 0.7108(2) 0.26584(17)
C121_3 C 0.2733(6) 0.7017(4) 0.2330(3)
O17_2 O 0.2951(5) 0.6856(3) 0.21902(17)
C122_3 C 0.2466(7) 0.7114(4) 0.2089(3)
C123_3 C 0.2180(9) 0.7253(5) 0.2207(3)
C124_3 C 0.2485(7) 0.7079(4) 0.1745(3)
H65_3 H 0.2129 0.7257 0.2448
C125_3 C 0.1968(9) 0.7388(5) 0.1971(3)
C126_3 C 0.2249(9) 0.7195(5) 0.1512(4)
H66_3 H 0.2662 0.6972 0.1653
H67_3 H 0.1800 0.7506 0.2061
C127_3 C 0.1988(7) 0.7361(4) 0.1630(3)
H68_3 H 0.2270 0.7160 0.1271
C128_3 C 0.1777(9) 0.7535(5) 0.1401(3)
C129_3 C 0.1353(9) 0.7277(5) 0.1276(3)
C130_3 C 0.2049(10) 0.7974(6) 0.1292(3)
C131_3 C 0.1074(9) 0.6788(5) 0.1365(5)
N15_3 N 0.1116(6) 0.7386(3) 0.1054(3)
N16_3 N 0.1932(5) 0.8233(3) 0.1068(2)
C132_3 C 0.2524(10) 0.8306(6) 0.1393(4)
C133_3 C 0.0675(9) 0.6655(5) 0.1236(5)
H69_3 H 0.1167 0.6616 0.1486
C134_3 C 0.0701(10) 0.7028(5) 0.1012(5)
C135_3 C 0.2309(8) 0.8635(5) 0.1037(4)
C136_3 C 0.2669(9) 0.8692(5) 0.1240(4)
H70_3 H 0.2694 0.8242 0.1546
H71_3 H 0.0422 0.6380 0.1275
H72_3 H 0.2948 0.8945 0.1262
Zn16_2 Zn 0.30295(4) 0.69775(3) 0.30495(2)
C29_3 C 0.7353(8) 0.0011(5) 0.0430(5)
H11_3 H 0.7884 0.0050 0.0180
H15_3 H 0.7375 0.0286 0.0391
C12_3 C 0.8387(7) 0.9471(5) 0.0154(4)
H4_3 H 0.9023 0.9694 0.0013
C14_3 C 0.7960(6) 0.9305(4) 0.0036(3)
H8_3 H 0.8443 0.9506 0.0395
C16_3 C 0.7575(7) 0.9131(5) 0.0265(3)
C19_3 C 0.7409(7) 0.9389(5) 0.0390(3)
C20_3 C 0.7408(8) 0.8692(6) 0.0374(3)
C23_3 C 0.7619(8) 0.9878(5) 0.0301(5)
N3_3 N 0.7063(5) 0.9280(3) 0.0612(3)
N4_3 N 0.7032(4) 0.8433(3) 0.0598(2)
C24_3 C 0.7551(8) 0.8360(6) 0.0273(4)
C30_3 C 0.7006(9) 0.9638(5) 0.0654(5)
Zn4_4 Zn 0.66667(10) 0.86600(7) 0.0833
C31_3 C 0.7007(6) 0.8031(5) 0.0629(4)
C32_3 C 0.7310(7) 0.7974(5) 0.0426(4)
H12_3 H 0.7785 0.8424 0.0120
C34_4 C 0.6667(10) 0.9647(7) 0.0833
C35_4 C 0.6667(8) 0.7705(6) 0.0833
H16_3 H 0.7336 0.7721 0.0404
H18_4 H 0.6667 0.9915 0.0833
H19_4 H 0.6667 0.7437 0.0833
O8_2 O 0.4369(3) 0.7260(4) 0.26584(17)
C53_3 C 0.4285(5) 0.7267(6) 0.2330(3)
O9_2 O 0.3906(4) 0.7049(5) 0.21902(17)
C54_3 C 0.4649(6) 0.7534(7) 0.2089(3)
C55_3 C 0.5074(7) 0.7820(9) 0.2207(3)
C56_3 C 0.4595(6) 0.7515(7) 0.1745(3)
H29_3 H 0.5129 0.7871 0.2448
C57_3 C 0.5421(7) 0.8032(9) 0.1971(3)
C58_3 C 0.4947(7) 0.7751(9) 0.1512(4)
H30_3 H 0.4311 0.7338 0.1653
H31_3 H 0.5707 0.8200 0.2061
C59_3 C 0.5374(6) 0.8012(7) 0.1630(3)
H32_3 H 0.4891 0.7730 0.1271
C60_3 C 0.5759(7) 0.8223(9) 0.1401(3)
C61_3 C 0.5925(7) 0.8647(9) 0.1276(3)
C62_3 C 0.5926(8) 0.7951(10) 0.1292(3)
C63_3 C 0.5715(8) 0.8926(9) 0.1365(5)
N7_3 N 0.6271(5) 0.8884(6) 0.1054(3)
N8_3 N 0.6302(4) 0.8068(5) 0.1068(2)
C64_3 C 0.5783(8) 0.7476(10) 0.1393(4)
C65_3 C 0.5981(8) 0.9325(9) 0.1236(5)
H33_3 H 0.5450 0.8833 0.1486
C66_3 C 0.6328(9) 0.9299(10) 0.1012(5)
C67_3 C 0.6327(6) 0.7691(8) 0.1037(4)
C68_3 C 0.6024(7) 0.7331(9) 0.1240(4)
H34_3 H 0.5549 0.7306 0.1546
H35_3 H 0.5959 0.9578 0.1275
H36_3 H 0.5998 0.7052 0.1262
C97_3 C 0.9989(5) 0.7341(9) 0.0430(5)
H47_3 H 0.9950 0.7833 0.0180
H51_3 H 0.9714 0.7088 0.0391
Zn17_2 Zn 0.39481(3) 0.69705(4) 0.30495(2)
C161_3 C 0.5345(5) 0.0258(7) 0.4268(3)
C162_3 C 0.5316(5) 0.0113(7) 0.3900(3)
C169_3 C 0.5608(5) 0.0715(7) 0.4362(3)
H85_3 H 0.5463 0.0287 0.3704
H89_3 H 0.5774 0.0907 0.4181
O22_4 O 0.5943(2) 0.2524(3) 0.66465(18)
O23_4 O 0.6582(4) 0.2512(4) 0.66596(19)
C172_4 C 0.6198(4) 0.2372(6) 0.6568(3)
C173_4 C 0.5969(4) 0.1977(5) 0.6317(3)
C174_4 C 0.6219(3) 0.1789(5) 0.6197(3)
C175_4 C 0.5541(4) 0.1802(6) 0.6206(3)
H92_4 H 0.6514 0.1909 0.6268
C176_4 C 0.6025(4) 0.1418(6) 0.5965(3)
C177_4 C 0.5375(4) 0.1447(5) 0.5981(3)
H93_4 H 0.5367 0.1921 0.6280
H94_4 H 0.6191 0.1290 0.5890
C178_4 C 0.5604(3) 0.1250(5) 0.5855(3)
H95_4 H 0.5082 0.1330 0.5907
C179_4 C 0.5431(4) 0.0875(5) 0.5593(3)
C180_4 C 0.5138(4) 0.0452(5) 0.5720(3)
C181_4 C 0.5564(4) 0.0966(5) 0.5249(3)
N21_4 N 0.4928(3) 0.0064(4) 0.5515(2)
C182_4 C 0.4975(4) 0.0334(6) 0.6090(3)
N22_3 N 0.5438(3) 0.0668(4) 0.4989(2)
C183_4 C 0.5851(4) 0.1390(6) 0.5124(3)
H96_4 H 0.5057 0.0530 0.6279
C186_3 C 0.5648(5) 0.0904(7) 0.4677(3)
H97_4 H 0.5978 0.1652 0.5254
C187_3 C 0.5911(5) 0.1352(7) 0.4776(4)
H99_3 H 0.6097 0.1584 0.4627
Zn20_4 Zn 0.69705(4) 0.30225(3) 0.69505(2)
Zn21_4 Zn 0.60519(3) 0.30295(4) 0.69505(2)
O1_3 O 0.3334 0.6666 0.2894(2)
O2_3 O 0.3420(2) 0.5943(2) 0.33535(18)
O3_3 O 0.4071(2) 0.6582(4) 0.33404(19)
C1_3 C 0.3827(4) 0.6198(4) 0.3432(3)
C3_3 C 0.3993(3) 0.5969(4) 0.3683(3)
C5_3 C 0.4431(4) 0.6219(3) 0.3803(3)
C6_3 C 0.3740(4) 0.5541(4) 0.3794(3)
H1_3 H 0.4606 0.6514 0.3732
C9_3 C 0.4608(4) 0.6025(4) 0.4035(3)
C10_3 C 0.3929(3) 0.5375(4) 0.4019(3)
H2_3 H 0.3447 0.5367 0.3720
H5_3 H 0.4902 0.6191 0.4110
C13_3 C 0.4355(4) 0.5604(3) 0.4145(3)
H6_3 H 0.3753 0.5082 0.4093
C15_3 C 0.4557(3) 0.5431(4) 0.4407(3)
C17_3 C 0.4687(3) 0.5138(4) 0.4280(3)
C18_3 C 0.4599(3) 0.5564(4) 0.4751(3)
N1_3 N 0.4865(3) 0.4928(3) 0.4485(2)
C21_3 C 0.4642(4) 0.4975(4) 0.3910(3)
N2_4 N 0.4771(3) 0.5438(3) 0.5011(2)
C22_3 C 0.4462(5) 0.5851(4) 0.4876(3)
C25_3 C 0.4914(5) 0.4655(5) 0.4268(3)
Zn3_4 Zn 0.5000 0.5000 0.5000
C26_3 C 0.4798(5) 0.4684(5) 0.3900(3)
H9_3 H 0.4528 0.5057 0.3721
C27_4 C 0.4745(5) 0.5648(5) 0.5323(3)
H10_3 H 0.4327 0.5978 0.4746
C28_4 C 0.4560(5) 0.5911(5) 0.5224(4)
C33_3 C 0.5108(5) 0.4392(5) 0.4362(3)
H13_3 H 0.4825 0.4537 0.3704
H14_4 H 0.4514 0.6097 0.5373
H17_3 H 0.5134 0.4226 0.4181
O6_4 O 0.6580(2) 0.4057(2) 0.66465(18)
O7_4 O 0.5929(2) 0.3418(4) 0.66596(19)
C36_4 C 0.6173(4) 0.3802(4) 0.6568(3)
C37_4 C 0.6007(3) 0.4031(4) 0.6317(3)
C38_4 C 0.5569(4) 0.3781(3) 0.6197(3)
C39_4 C 0.6260(4) 0.4459(4) 0.6206(3)
H20_4 H 0.5394 0.3486 0.6268
C40_4 C 0.5392(4) 0.3975(4) 0.5965(3)
C41_4 C 0.6071(3) 0.4625(4) 0.5981(3)
H21_4 H 0.6553 0.4633 0.6280
H22_4 H 0.5098 0.3809 0.5890
C42_4 C 0.5645(4) 0.4396(3) 0.5855(3)
H23_4 H 0.6247 0.4918 0.5907
C43_4 C 0.5443(3) 0.4569(4) 0.5593(3)
C44_4 C 0.5313(3) 0.4862(4) 0.5720(3)
C45_4 C 0.5401(3) 0.4436(4) 0.5249(3)
N5_4 N 0.5135(3) 0.5072(3) 0.5515(2)
C46_4 C 0.5358(4) 0.5025(4) 0.6090(3)
N6_3 N 0.5229(3) 0.4562(3) 0.4989(2)
C47_4 C 0.5538(5) 0.4149(4) 0.5124(3)
C48_4 C 0.5086(5) 0.5345(5) 0.5732(3)
C49_4 C 0.5202(5) 0.5316(5) 0.6100(3)
H24_4 H 0.5472 0.4943 0.6279
C50_3 C 0.5255(5) 0.4352(5) 0.4677(3)
H25_4 H 0.5673 0.4022 0.5254
C51_3 C 0.5440(5) 0.4089(5) 0.4776(4)
C52_4 C 0.4892(5) 0.5608(5) 0.5638(3)
H26_4 H 0.5175 0.5463 0.6296
H27_3 H 0.5486 0.3903 0.4627
H28_4 H 0.4866 0.5774 0.5819
O10_3 O 0.2524(3) 0.6580(2) 0.33535(18)
O11_3 O 0.2512(4) 0.5929(2) 0.33404(19)
C69_3 C 0.2372(6) 0.6173(4) 0.3432(3)
C71_3 C 0.1977(5) 0.6007(3) 0.3683(3)
C73_3 C 0.1789(5) 0.5569(4) 0.3803(3)
C74_3 C 0.1802(6) 0.6260(4) 0.3794(3)
H37_3 H 0.1909 0.5394 0.3732
C77_3 C 0.1418(6) 0.5392(4) 0.4035(3)
C78_3 C 0.1447(5) 0.6071(3) 0.4019(3)
H38_3 H 0.1921 0.6553 0.3720
H41_3 H 0.1290 0.5098 0.4110
C81_3 C 0.1250(5) 0.5645(4) 0.4145(3)
H42_3 H 0.1330 0.6247 0.4093
C83_3 C 0.0875(5) 0.5443(3) 0.4407(3)
C85_3 C 0.0452(5) 0.5313(3) 0.4280(3)
C86_3 C 0.0966(5) 0.5401(3) 0.4751(3)
N9_3 N 0.0064(4) 0.5135(3) 0.4485(2)
C89_3 C 0.0334(6) 0.5358(4) 0.3910(3)
N10_4 N 0.0668(4) 0.5229(3) 0.5011(2)
C90_3 C 0.1390(6) 0.5538(5) 0.4876(3)
Zn6_4 Zn 0.0001 0.5000 0.5000
H45_3 H 0.0530 0.5472 0.3721
C95_4 C 0.0904(7) 0.5255(5) 0.5323(3)
H46_3 H 0.1652 0.5673 0.4746
C96_4 C 0.1352(7) 0.5440(5) 0.5224(4)
H50_4 H 0.1584 0.5486 0.5373
C116_4 C 0.0258(7) 0.4914(5) 0.5732(3)
C117_4 C 0.0113(7) 0.4798(5) 0.6100(3)
C120_4 C 0.0715(7) 0.5108(5) 0.5638(3)
H62_4 H 0.0287 0.4825 0.6296
H64_4 H 0.0907 0.5134 0.5819
O18_3 O 0.4057(2) 0.7476(3) 0.33535(18)
O19_3 O 0.3418(4) 0.7488(4) 0.33404(19)
C137_3 C 0.3802(4) 0.7628(6) 0.3432(3)
C139_3 C 0.4031(4) 0.8023(5) 0.3683(3)
C141_3 C 0.3781(3) 0.8211(5) 0.3803(3)
C142_3 C 0.4459(4) 0.8198(6) 0.3794(3)
H73_3 H 0.3486 0.8091 0.3732
C145_3 C 0.3975(4) 0.8582(6) 0.4035(3)
C146_3 C 0.4625(4) 0.8553(5) 0.4019(3)
H74_3 H 0.4633 0.8079 0.3720
H77_3 H 0.3809 0.8710 0.4110
C149_3 C 0.4396(3) 0.8750(5) 0.4145(3)
H78_3 H 0.4918 0.8670 0.4093
C151_3 C 0.4569(4) 0.9125(5) 0.4407(3)
C153_3 C 0.4862(4) 0.9548(5) 0.4280(3)
C154_3 C 0.4436(4) 0.9034(5) 0.4751(3)
N17_3 N 0.5072(3) 0.9936(4) 0.4485(2)
C157_3 C 0.5025(4) 0.9666(6) 0.3910(3)
N18_4 N 0.4562(3) 0.9332(4) 0.5011(2)
C158_3 C 0.4149(4) 0.8610(6) 0.4876(3)
Zn9_4 Zn 0.5000 0.9999 0.5000
H81_3 H 0.4943 0.9470 0.3721
C163_4 C 0.4352(5) 0.9096(7) 0.5323(3)
H82_3 H 0.4022 0.8348 0.4746
C164_4 C 0.4089(5) 0.8648(7) 0.5224(4)
H86_4 H 0.3903 0.8416 0.5373
C184_4 C 0.4655(5) 0.9742(7) 0.5732(3)
C185_4 C 0.4684(5) 0.9887(7) 0.6100(3)
C188_4 C 0.4392(5) 0.9285(7) 0.5638(3)
H98_4 H 0.4537 0.9713 0.6296
H100_4 H 0.4226 0.9093 0.5819
Zn11_4 Zn 0.69775(3) 0.39481(3) 0.69505(2)
O26_6 O 0.6666 0.3334 0.7106(2)
Zn12_8 Zn 0.6666 0.3334 0.76141(5)
O29_4 O 0.7488(4) 0.4071(2) 0.66596(19)
O31_4 O 0.7108(2) 0.4369(3) 0.73416(17)
O33_4 O 0.5631(3) 0.2740(4) 0.73416(17)
O34_4 O 0.6856(3) 0.3906(4) 0.78098(17)
O35_4 O 0.7049(5) 0.3144(3) 0.78098(17)
O36_4 O 0.6094(4) 0.2951(5) 0.78098(17)
C93_3 C 0.9742(7) 0.5086(5) 0.4268(3)
C94_3 C 0.9887(7) 0.5202(5) 0.3900(3)
C101_3 C 0.9285(7) 0.4892(5) 0.4362(3)
H49_3 H 0.9713 0.5175 0.3704
H53_3 H 0.9093 0.4866 0.4181
O14_4 O 0.7476(3) 0.3420(2) 0.66465(18)
C104_4 C 0.7628(6) 0.3827(4) 0.6568(3)
C105_4 C 0.8023(5) 0.3993(3) 0.6317(3)
C106_4 C 0.8211(5) 0.4431(4) 0.6197(3)
C107_4 C 0.8198(6) 0.3740(4) 0.6206(3)
H56_4 H 0.8091 0.4606 0.6268
C108_4 C 0.8582(6) 0.4608(4) 0.5965(3)
C109_4 C 0.8553(5) 0.3929(3) 0.5981(3)
H57_4 H 0.8079 0.3447 0.6280
H58_4 H 0.8710 0.4902 0.5890
C110_4 C 0.8750(5) 0.4355(4) 0.5855(3)
H59_4 H 0.8670 0.3753 0.5907
C111_4 C 0.9125(5) 0.4557(3) 0.5593(3)
C112_4 C 0.9548(5) 0.4687(3) 0.5720(3)
C113_4 C 0.9034(5) 0.4599(3) 0.5249(3)
N13_4 N 0.9936(4) 0.4865(3) 0.5515(2)
C114_4 C 0.9666(6) 0.4642(4) 0.6090(3)
N14_3 N 0.9332(4) 0.4771(3) 0.4989(2)
C115_4 C 0.8610(6) 0.4462(5) 0.5124(3)
H60_4 H 0.9470 0.4528 0.6279
C118_3 C 0.9096(7) 0.4745(5) 0.4677(3)
H61_4 H 0.8348 0.4327 0.5254
C119_3 C 0.8648(7) 0.4560(5) 0.4776(4)
H63_3 H 0.8416 0.4514 0.4627
O32_4 O 0.7260(4) 0.2892(2) 0.73416(17)
C12_4 C 0.1613(7) 0.0529(5) 0.9846(4)
H4_4 H 0.0977 0.0306 0.9987
C14_4 C 0.2040(6) 0.0695(4) 0.9964(3)
H8_4 H 0.1557 0.0494 0.9605
C16_4 C 0.2425(7) 0.0869(5) 0.9735(3)
C19_4 C 0.2591(7) 0.0611(5) 0.9610(3)
C20_4 C 0.2592(8) 0.1308(6) 0.9626(3)
C23_4 C 0.2381(8) 0.0122(5) 0.9699(5)
N3_4 N 0.2937(5) 0.0720(3) 0.9388(3)
N4_4 N 0.2968(4) 0.1567(3) 0.9402(2)
C24_4 C 0.2449(8) 0.1640(6) 0.9727(4)
C30_4 C 0.2994(9) 0.0362(5) 0.9346(5)
Zn4_5 Zn 0.33333(10) 0.13400(7) 0.9167
C31_4 C 0.2993(6) 0.1969(5) 0.9371(4)
C32_4 C 0.2690(7) 0.2026(5) 0.9574(4)
H12_4 H 0.2215 0.1576 0.9880
C34_5 C 0.3333(10) 0.0353(7) 0.9167
C35_5 C 0.3333(8) 0.2295(6) 0.9167
H16_4 H 0.2664 0.2279 0.9596
H18_5 H 0.3333 0.0085 0.9167
H19_5 H 0.3333 0.2563 0.9167
C53_4 C 0.5715(5) 0.2733(6) 0.7670(3)
C54_4 C 0.5351(6) 0.2466(7) 0.7911(3)
C55_4 C 0.4926(7) 0.2180(9) 0.7793(3)
C56_4 C 0.5405(6) 0.2485(7) 0.8255(3)
H29_4 H 0.4871 0.2129 0.7552
C57_4 C 0.4579(7) 0.1968(9) 0.8029(3)
C58_4 C 0.5053(7) 0.2249(9) 0.8488(4)
H30_4 H 0.5689 0.2662 0.8347
H31_4 H 0.4293 0.1800 0.7939
C59_4 C 0.4626(6) 0.1988(7) 0.8370(3)
H32_4 H 0.5109 0.2270 0.8729
C60_4 C 0.4241(7) 0.1777(9) 0.8599(3)
C61_4 C 0.4075(7) 0.1353(9) 0.8724(3)
C62_4 C 0.4074(8) 0.2049(10) 0.8708(3)
C63_4 C 0.4285(8) 0.1074(9) 0.8635(5)
N7_4 N 0.3729(5) 0.1116(6) 0.8946(3)
N8_4 N 0.3698(4) 0.1932(5) 0.8932(2)
C64_4 C 0.4217(8) 0.2524(10) 0.8607(4)
C65_4 C 0.4019(8) 0.0675(9) 0.8764(5)
H33_4 H 0.4550 0.1167 0.8514
C66_4 C 0.3672(9) 0.0701(10) 0.8988(5)
C67_4 C 0.3673(6) 0.2309(8) 0.8963(4)
C68_4 C 0.3976(7) 0.2669(9) 0.8760(4)
H34_4 H 0.4451 0.2694 0.8454
H35_4 H 0.4041 0.0422 0.8725
H36_4 H 0.4002 0.2948 0.8738
C97_4 C 0.0011(5) 0.2659(9) 0.9570(5)
H47_4 H 0.0050 0.2167 0.9820
H51_4 H 0.0286 0.2912 0.9609
C29_4 C 0.2647(8) 0.9989(5) 0.9570(5)
H11_4 H 0.2116 0.9950 0.9820
H15_4 H 0.2625 0.9714 0.9609
C80_4 C 0.9471(5) 0.1085(9) 0.9846(4)
H40_4 H 0.9694 0.0672 0.9987
C82_4 C 0.9305(4) 0.1346(7) 0.9964(3)
H44_4 H 0.9506 0.1064 0.9605
C84_4 C 0.9131(5) 0.1557(9) 0.9735(3)
C87_4 C 0.9389(5) 0.1981(9) 0.9610(3)
C88_4 C 0.8692(6) 0.1285(10) 0.9626(3)
C91_4 C 0.9878(5) 0.2260(9) 0.9699(5)
N11_4 N 0.9280(3) 0.2218(6) 0.9388(3)
N12_4 N 0.8433(3) 0.1402(5) 0.9402(2)
C92_4 C 0.8360(6) 0.0810(10) 0.9727(4)
C98_4 C 0.9638(5) 0.2633(10) 0.9346(5)
Zn7_4 Zn 0.86600(7) 0.19934(12) 0.9167
C99_4 C 0.8031(5) 0.1025(8) 0.9371(4)
C100_4 C 0.7974(5) 0.0665(9) 0.9574(4)
H48_4 H 0.8424 0.0640 0.9880
C102_4 C 0.9647(7) 0.2981(12) 0.9167
C103_4 C 0.7705(6) 0.1039(10) 0.9167
H52_4 H 0.7721 0.0386 0.9596
H54_4 H 0.9915 0.3249 0.9167
H55_4 H 0.7437 0.0771 0.9167
C121_4 C 0.7267(6) 0.2983(4) 0.7670(3)
C122_4 C 0.7534(7) 0.2886(4) 0.7911(3)
C123_4 C 0.7820(9) 0.2747(5) 0.7793(3)
C124_4 C 0.7515(7) 0.2921(4) 0.8255(3)
H65_4 H 0.7871 0.2743 0.7552
C125_4 C 0.8032(9) 0.2612(5) 0.8029(3)
C126_4 C 0.7751(9) 0.2805(5) 0.8488(4)
H66_4 H 0.7338 0.3028 0.8347
H67_4 H 0.8200 0.2494 0.7939
C127_4 C 0.8012(7) 0.2639(4) 0.8370(3)
H68_4 H 0.7730 0.2840 0.8729
C128_4 C 0.8223(9) 0.2465(5) 0.8599(3)
C129_4 C 0.8647(9) 0.2723(5) 0.8724(3)
C130_4 C 0.7951(10) 0.2026(6) 0.8708(3)
C131_4 C 0.8926(9) 0.3212(5) 0.8635(5)
N15_4 N 0.8884(6) 0.2614(3) 0.8946(3)
N16_4 N 0.8068(5) 0.1767(3) 0.8932(2)
C132_4 C 0.7476(10) 0.1694(6) 0.8607(4)
C133_4 C 0.9325(9) 0.3345(5) 0.8764(5)
H69_4 H 0.8833 0.3384 0.8514
C134_4 C 0.9299(10) 0.2972(5) 0.8988(5)
C135_4 C 0.7691(8) 0.1365(5) 0.8963(4)
C136_4 C 0.7331(9) 0.1308(5) 0.8760(4)
H70_4 H 0.7306 0.1758 0.8454
H71_4 H 0.9578 0.3620 0.8725
H72_4 H 0.7052 0.1055 0.8738
C148_4 C 0.8915(9) 0.8387(7) 0.9846(4)
H76_4 H 0.9328 0.9023 0.9987
C150_4 C 0.8654(7) 0.7960(6) 0.9964(3)
H80_4 H 0.8936 0.8443 0.9605
C152_4 C 0.8443(9) 0.7575(7) 0.9735(3)
C155_4 C 0.8019(9) 0.7409(7) 0.9610(3)
C156_4 C 0.8715(10) 0.7408(8) 0.9626(3)
C159_4 C 0.7740(9) 0.7619(8) 0.9699(5)
N19_4 N 0.7782(6) 0.7063(5) 0.9388(3)
N20_4 N 0.8598(5) 0.7032(4) 0.9402(2)
C160_4 C 0.9190(10) 0.7551(8) 0.9727(4)
C165_4 C 0.7341(9) 0.7353(8) 0.9570(5)
H83_4 H 0.7833 0.7884 0.9820
C166_4 C 0.7367(10) 0.7006(9) 0.9346(5)
Zn10_5 Zn 0.80066(12) 0.66667(10) 0.9167
C167_4 C 0.8975(8) 0.7007(6) 0.9371(4)
C168_4 C 0.9335(9) 0.7310(7) 0.9574(4)
H84_4 H 0.9360 0.7785 0.9880
H87_4 H 0.7088 0.7375 0.9609
C170_5 C 0.7019(12) 0.6667(10) 0.9167
C171_5 C 0.8961(10) 0.6667(8) 0.9167
H88_4 H 0.9614 0.7336 0.9596
H90_5 H 0.6751 0.6667 0.9167
H91_5 H 0.9229 0.6667 0.9167
C189_4 C 0.7017(4) 0.4285(5) 0.7670(3)
C190_4 C 0.7114(4) 0.4649(6) 0.7911(3)
C191_4 C 0.7253(5) 0.5074(7) 0.7793(3)
C192_4 C 0.7079(4) 0.4595(6) 0.8255(3)
H101_4 H 0.7257 0.5129 0.7552
C193_4 C 0.7388(5) 0.5421(7) 0.8029(3)
C194_4 C 0.7195(5) 0.4947(7) 0.8488(4)
H102_4 H 0.6972 0.4311 0.8347
H103_4 H 0.7506 0.5707 0.7939
C195_4 C 0.7361(4) 0.5374(6) 0.8370(3)
H104_4 H 0.7160 0.4891 0.8729
C196_4 C 0.7535(5) 0.5759(7) 0.8599(3)
C197_4 C 0.7277(5) 0.5925(7) 0.8724(3)
C198_4 C 0.7974(6) 0.5926(8) 0.8708(3)
C199_4 C 0.6788(5) 0.5715(8) 0.8635(5)
N23_4 N 0.7386(3) 0.6271(5) 0.8946(3)
N24_4 N 0.8233(3) 0.6302(4) 0.8932(2)
C200_4 C 0.8306(6) 0.5783(8) 0.8607(4)
C201_4 C 0.6655(5) 0.5981(8) 0.8764(5)
H105_4 H 0.6616 0.5450 0.8514
C202_4 C 0.7028(5) 0.6328(9) 0.8988(5)
C203_4 C 0.8635(5) 0.6327(6) 0.8963(4)
C204_4 C 0.8692(5) 0.6024(7) 0.8760(4)
H106_4 H 0.8242 0.5549 0.8454
H107_4 H 0.6380 0.5959 0.8725
H108_4 H 0.8945 0.5998 0.8738
Zn6_5 Zn 0.9999 0.5000 0.5000
Zn9_5 Zn 0.5000 0.0001 0.5000
Zn8_2 Zn 0.03039(4) 0.06147(3) 0.86171(2)
O18_4 O 0.0810(3) 0.0723(2) 0.83131(18)
O19_4 O 0.0822(4) 0.0084(4) 0.83262(19)
O20_2 O 0.0594(4) 0.1035(3) 0.90082(17)
C137_4 C 0.0962(6) 0.0468(4) 0.8234(3)
C138_4 C 0.0601(6) 0.0951(5) 0.9336(3)
O21_2 O 0.0383(5) 0.0572(4) 0.94764(17)
C139_4 C 0.1357(5) 0.0697(4) 0.7983(3)
C140_4 C 0.0868(7) 0.1315(6) 0.9577(3)
C141_4 C 0.1545(5) 0.0447(3) 0.7863(3)
C142_4 C 0.1532(6) 0.1125(4) 0.7872(3)
C143_4 C 0.1154(9) 0.1740(7) 0.9459(3)
C144_4 C 0.0849(7) 0.1261(6) 0.9921(3)
H73_4 H 0.1425 0.0152 0.7934
C145_4 C 0.1916(6) 0.0641(4) 0.7631(3)
C146_4 C 0.1887(5) 0.1291(4) 0.7647(3)
H74_4 H 0.1413 0.1299 0.7946
H75_4 H 0.1205 0.1795 0.9218
C147_4 C 0.1366(9) 0.2087(7) 0.9695(3)
H77_4 H 0.2044 0.0475 0.7556
C149_4 C 0.2084(5) 0.1062(3) 0.7521(3)
H78_4 H 0.2004 0.1584 0.7573
H79_4 H 0.1534 0.2373 0.9605
C151_4 C 0.2459(5) 0.1235(4) 0.7259(3)
C153_4 C 0.2882(5) 0.1528(4) 0.7386(3)
C154_4 C 0.2368(5) 0.1102(4) 0.6915(3)
N17_4 N 0.3270(4) 0.1738(3) 0.7181(2)
C157_4 C 0.3000(6) 0.1691(4) 0.7756(3)
N18_5 N 0.2666(4) 0.1228(3) 0.6655(2)
C158_4 C 0.1944(6) 0.0815(4) 0.6790(3)
C161_4 C 0.3592(7) 0.2011(5) 0.7398(3)
Zn9_6 Zn 0.3333 0.1666 0.6666
C162_4 C 0.3447(7) 0.1982(5) 0.7766(3)
H81_4 H 0.2804 0.1609 0.7945
C163_5 C 0.2430(7) 0.1018(5) 0.6343(3)
H82_4 H 0.1682 0.0688 0.6920
C164_5 C 0.1982(7) 0.0755(5) 0.6442(4)
C169_4 C 0.4049(7) 0.2274(5) 0.7304(3)
H85_4 H 0.3621 0.2129 0.7962
H86_5 H 0.1750 0.0569 0.6293
H89_4 H 0.4241 0.2440 0.7485
O22_5 O 0.5857(3) 0.2610(2) 0.50202(18)
O23_5 O 0.5845(4) 0.3249(4) 0.50071(19)
C172_5 C 0.5705(6) 0.2865(4) 0.5099(3)
C173_5 C 0.5310(5) 0.2636(4) 0.5350(3)
C174_5 C 0.5122(5) 0.2886(3) 0.5470(3)
C175_5 C 0.5135(6) 0.2208(4) 0.5461(3)
H92_5 H 0.5242 0.3181 0.5399
C176_5 C 0.4751(6) 0.2692(4) 0.5702(3)
C177_5 C 0.4780(5) 0.2042(4) 0.5686(3)
H93_5 H 0.5254 0.2034 0.5387
H94_5 H 0.4623 0.2858 0.5777
C178_5 C 0.4583(5) 0.2271(3) 0.5812(3)
H95_5 H 0.4663 0.1749 0.5760
C179_5 C 0.4208(5) 0.2098(4) 0.6074(3)
C180_5 C 0.3785(5) 0.1805(4) 0.5947(3)
C181_5 C 0.4299(5) 0.2231(4) 0.6418(3)
N21_5 N 0.3397(4) 0.1595(3) 0.6152(2)
C182_5 C 0.3667(6) 0.1642(4) 0.5577(3)
N22_4 N 0.4001(4) 0.2105(3) 0.6678(2)
C183_5 C 0.4723(6) 0.2518(4) 0.6543(3)
C184_5 C 0.3075(7) 0.1322(5) 0.5935(3)
C185_5 C 0.3220(7) 0.1351(5) 0.5567(3)
H96_5 H 0.3863 0.1724 0.5388
C186_4 C 0.4237(7) 0.2315(5) 0.6990(3)
H97_5 H 0.4985 0.2645 0.6413
C187_4 C 0.4685(7) 0.2578(5) 0.6891(4)
C188_5 C 0.2618(7) 0.1059(5) 0.6029(3)
H98_5 H 0.3046 0.1204 0.5371
H99_4 H 0.4917 0.2764 0.7040
H100_5 H 0.2426 0.0893 0.5848
Zn20_5 Zn 0.63558(3) 0.36372(4) 0.47162(2)
Zn21_5 Zn 0.63628(4) 0.27186(3) 0.47162(2)
Zn5_2 Zn 0.03109(3) 0.96961(4) 0.86171(2)
O12_2 O 0.0442(2) 0.9406(4) 0.90082(17)
C70_4 C 0.0351(4) 0.9399(6) 0.9336(3)
O13_2 O 0.0190(3) 0.9617(5) 0.94764(17)
C72_4 C 0.0448(4) 0.9132(7) 0.9577(3)
C75_4 C 0.0587(5) 0.8846(9) 0.9459(3)
C76_4 C 0.0413(4) 0.9151(7) 0.9921(3)
H39_4 H 0.0591 0.8795 0.9218
C79_4 C 0.0722(5) 0.8634(9) 0.9695(3)
H43_4 H 0.0840 0.8466 0.9605
O1_4 O 1.0000 0.0000 0.8772(2)
O2_4 O 0.9277(2) 0.0086(2) 0.83131(18)
O3_4 O 0.9916(4) 0.0737(2) 0.83262(19)
Zn2_2 Zn 1.0000 0.0000 0.92807(5)
C1_4 C 0.9532(4) 0.0493(4) 0.8234(3)
C3_4 C 0.9303(4) 0.0659(3) 0.7983(3)
C5_4 C 0.9553(3) 0.1097(4) 0.7863(3)
C6_4 C 0.8875(4) 0.0406(4) 0.7872(3)
H1_4 H 0.9848 0.1272 0.7934
C9_4 C 0.9359(4) 0.1274(4) 0.7631(3)
C10_4 C 0.8709(4) 0.0595(3) 0.7647(3)
H2_4 H 0.8701 0.0113 0.7946
H5_4 H 0.9525 0.1568 0.7556
C13_4 C 0.8938(3) 0.1021(4) 0.7521(3)
H6_4 H 0.8416 0.0419 0.7573
C15_4 C 0.8765(4) 0.1223(3) 0.7259(3)
C17_4 C 0.8472(4) 0.1353(3) 0.7386(3)
C18_4 C 0.8898(4) 0.1265(3) 0.6915(3)
N1_4 N 0.8262(3) 0.1531(3) 0.7181(2)
C21_4 C 0.8309(4) 0.1308(4) 0.7756(3)
N2_5 N 0.8772(3) 0.1437(3) 0.6655(2)
C22_4 C 0.9185(4) 0.1128(5) 0.6790(3)
C25_4 C 0.7989(5) 0.1580(5) 0.7398(3)
Zn3_5 Zn 0.8334 0.1666 0.6666
C26_4 C 0.8018(5) 0.1464(5) 0.7766(3)
H9_4 H 0.8391 0.1194 0.7945
C27_5 C 0.8982(5) 0.1411(5) 0.6343(3)
H10_4 H 0.9312 0.0993 0.6920
C28_5 C 0.9245(5) 0.1226(5) 0.6442(4)
C33_4 C 0.7726(5) 0.1774(5) 0.7304(3)
H13_4 H 0.7871 0.1491 0.7962
H14_5 H 0.9431 0.1180 0.6293
H17_4 H 0.7560 0.1800 0.7485
O6_5 O 0.7390(2) 0.3247(2) 0.50202(18)
O7_5 O 0.6751(4) 0.2596(2) 0.50071(19)
C36_5 C 0.7135(4) 0.2840(4) 0.5099(3)
C37_5 C 0.7364(4) 0.2674(3) 0.5350(3)
C38_5 C 0.7114(3) 0.2236(4) 0.5470(3)
C39_5 C 0.7792(4) 0.2927(4) 0.5461(3)
H20_5 H 0.6819 0.2061 0.5399
C40_5 C 0.7308(4) 0.2059(4) 0.5702(3)
C41_5 C 0.7958(4) 0.2738(3) 0.5686(3)
H21_5 H 0.7966 0.3220 0.5387
H22_5 H 0.7142 0.1765 0.5777
C42_5 C 0.7729(3) 0.2312(4) 0.5812(3)
H23_5 H 0.8251 0.2914 0.5760
C43_5 C 0.7902(4) 0.2110(3) 0.6074(3)
C44_5 C 0.8195(4) 0.1980(3) 0.5947(3)
C45_5 C 0.7769(4) 0.2068(3) 0.6418(3)
N5_5 N 0.8405(3) 0.1802(3) 0.6152(2)
C46_5 C 0.8358(4) 0.2025(4) 0.5577(3)
N6_4 N 0.7895(3) 0.1896(3) 0.6678(2)
C47_5 C 0.7482(4) 0.2205(5) 0.6543(3)
C48_5 C 0.8678(5) 0.1753(5) 0.5935(3)
C49_5 C 0.8649(5) 0.1869(5) 0.5567(3)
H24_5 H 0.8276 0.2139 0.5388
C50_4 C 0.7685(5) 0.1922(5) 0.6990(3)
H25_5 H 0.7355 0.2340 0.6413
C51_4 C 0.7422(5) 0.2107(5) 0.6891(4)
C52_5 C 0.8941(5) 0.1559(5) 0.6029(3)
H26_5 H 0.8796 0.1842 0.5371
H27_4 H 0.7236 0.2153 0.7040
H28_5 H 0.9107 0.1533 0.5848
Zn11_5 Zn 0.72814(3) 0.36442(3) 0.47162(2)
O26_7 O 0.6667 0.3333 0.4561(2)
Zn12_9 Zn 0.6667 0.3333 0.40526(5)
O29_5 O 0.7404(2) 0.4155(4) 0.50071(19)
O31_5 O 0.7702(3) 0.3775(2) 0.43251(17)
O33_5 O 0.6073(4) 0.2298(3) 0.43251(17)
O34_5 O 0.7239(4) 0.3523(3) 0.38569(17)
O35_5 O 0.6477(3) 0.3716(5) 0.38569(17)
O36_5 O 0.6284(5) 0.2761(4) 0.38569(17)
Zn1_2 Zn 0.93853(3) 0.96891(3) 0.86171(2)
O4_2 O 0.8965(3) 0.9558(2) 0.90082(17)
C2_4 C 0.9049(5) 0.9649(4) 0.9336(3)
O5_2 O 0.9428(4) 0.9810(3) 0.94764(17)
C4_4 C 0.8685(6) 0.9552(4) 0.9577(3)
C7_4 C 0.8260(7) 0.9413(5) 0.9459(3)
C8_4 C 0.8739(6) 0.9587(4) 0.9921(3)
H3_4 H 0.8205 0.9409 0.9218
C11_4 C 0.7913(7) 0.9278(5) 0.9695(3)
H7_4 H 0.7627 0.9160 0.9605
O10_4 O 0.9914(2) 0.9190(3) 0.83131(18)
O11_4 O 0.9263(2) 0.9178(4) 0.83262(19)
C69_4 C 0.9507(4) 0.9038(6) 0.8234(3)
C71_4 C 0.9341(3) 0.8643(5) 0.7983(3)
C73_4 C 0.8903(4) 0.8455(5) 0.7863(3)
C74_4 C 0.9594(4) 0.8468(6) 0.7872(3)
H37_4 H 0.8728 0.8575 0.7934
C77_4 C 0.8726(4) 0.8084(6) 0.7631(3)
C78_4 C 0.9405(3) 0.8113(5) 0.7647(3)
H38_4 H 0.9887 0.8587 0.7946
H41_4 H 0.8432 0.7956 0.7556
C81_4 C 0.8979(4) 0.7916(5) 0.7521(3)
H42_4 H 0.9581 0.7996 0.7573
C83_4 C 0.8777(3) 0.7541(5) 0.7259(3)
C85_4 C 0.8647(3) 0.7118(5) 0.7386(3)
C86_4 C 0.8735(3) 0.7632(5) 0.6915(3)
N9_4 N 0.8469(3) 0.6730(4) 0.7181(2)
C89_4 C 0.8692(4) 0.7000(6) 0.7756(3)
N10_5 N 0.8563(3) 0.7334(4) 0.6655(2)
C90_4 C 0.8872(5) 0.8056(6) 0.6790(3)
C93_4 C 0.8420(5) 0.6408(7) 0.7398(3)
Zn6_6 Zn 0.8334 0.6667 0.6666
C94_4 C 0.8536(5) 0.6553(7) 0.7766(3)
H45_4 H 0.8806 0.7196 0.7945
C95_5 C 0.8589(5) 0.7570(7) 0.6343(3)
H46_4 H 0.9007 0.8318 0.6920
C96_5 C 0.8774(5) 0.8018(7) 0.6442(4)
C101_4 C 0.8226(5) 0.5951(7) 0.7304(3)
H49_4 H 0.8509 0.6379 0.7962
H50_5 H 0.8820 0.8250 0.6293
H53_4 H 0.8200 0.5759 0.7485
O14_5 O 0.6753(2) 0.4143(3) 0.50202(18)
C104_5 C 0.7160(4) 0.4295(6) 0.5099(3)
C105_5 C 0.7326(3) 0.4690(5) 0.5350(3)
C106_5 C 0.7764(4) 0.4878(5) 0.5470(3)
C107_5 C 0.7073(4) 0.4865(6) 0.5461(3)
H56_5 H 0.7939 0.4758 0.5399
C108_5 C 0.7941(4) 0.5249(6) 0.5702(3)
C109_5 C 0.7262(3) 0.5220(5) 0.5686(3)
H57_5 H 0.6780 0.4746 0.5387
H58_5 H 0.8235 0.5377 0.5777
C110_5 C 0.7688(4) 0.5417(5) 0.5812(3)
H59_5 H 0.7086 0.5337 0.5760
C111_5 C 0.7890(3) 0.5792(5) 0.6074(3)
C112_5 C 0.8020(3) 0.6215(5) 0.5947(3)
C113_5 C 0.7932(3) 0.5701(5) 0.6418(3)
N13_5 N 0.8198(3) 0.6603(4) 0.6152(2)
C114_5 C 0.7975(4) 0.6333(6) 0.5577(3)
N14_4 N 0.8104(3) 0.5999(4) 0.6678(2)
C115_5 C 0.7795(5) 0.5277(6) 0.6543(3)
C116_5 C 0.8247(5) 0.6925(7) 0.5935(3)
C117_5 C 0.8131(5) 0.6780(7) 0.5567(3)
H60_5 H 0.7861 0.6137 0.5388
C118_4 C 0.8078(5) 0.5763(7) 0.6990(3)
H61_5 H 0.7660 0.5015 0.6413
C119_4 C 0.7893(5) 0.5315(7) 0.6891(4)
C120_5 C 0.8441(5) 0.7382(7) 0.6029(3)
H62_5 H 0.8158 0.6954 0.5371
H63_4 H 0.7847 0.5083 0.7040
H64_5 H 0.8467 0.7574 0.5848
O32_5 O 0.6225(2) 0.3927(4) 0.43251(17)
O1_5 O 1.0000 0.9999 0.8772(2)
Zn2_3 Zn 1.0000 0.9999 0.92807(5)
O1_6 O 0.0001 0.0000 0.8772(2)
Zn2_4 Zn 0.0001 0.0000 0.92807(5)
Zn20_6 Zn 0.36372(4) 0.63558(3) 0.02838(2)
Zn21_6 Zn 0.27186(3) 0.63628(4) 0.02838(2)
Zn11_6 Zn 0.36442(3) 0.72814(3) 0.02838(2)
O26_8 O 0.3333 0.6667 0.0439(2)
Zn12_10 Zn 0.3333 0.6667 0.09474(5)
O31_6 O 0.3775(2) 0.7702(3) 0.06749(17)
O33_6 O 0.2298(3) 0.6073(4) 0.06749(17)
O34_6 O 0.3523(3) 0.7239(4) 0.11431(17)
O35_6 O 0.3716(5) 0.6477(3) 0.11431(17)
O36_6 O 0.2761(4) 0.6284(5) 0.11431(17)
O32_6 O 0.3927(4) 0.6225(2) 0.06749(17)
Zn4_6 Zn 0.00000(10) 0.46733(7) 0.2500
C34_6 C -0.0000(10) 0.3686(7) 0.2500
C35_6 C -0.0000(8) 0.5628(6) 0.2500
H18_6 H 0.0000 0.3418 0.2500
H19_6 H -0.0000 0.5896 0.2500
C53_5 C 0.2382(5) 0.6066(6) 0.1003(3)
C54_5 C 0.2018(6) 0.5799(7) 0.1244(3)
C55_5 C 0.1593(7) 0.5513(9) 0.1126(3)
C56_5 C 0.2072(6) 0.5818(7) 0.1588(3)
H29_5 H 0.1538 0.5462 0.0885
C57_5 C 0.1246(7) 0.5301(9) 0.1362(3)
C58_5 C 0.1720(7) 0.5582(9) 0.1821(4)
H30_5 H 0.2356 0.5995 0.1680
H31_5 H 0.0960 0.5133 0.1272
C59_5 C 0.1293(6) 0.5321(7) 0.1703(3)
H32_5 H 0.1776 0.5603 0.2062
C60_5 C 0.0908(7) 0.5110(9) 0.1932(3)
C61_5 C 0.0742(7) 0.4686(9) 0.2057(3)
C62_5 C 0.0741(8) 0.5382(10) 0.2041(3)
C63_5 C 0.0952(8) 0.4407(9) 0.1968(5)
N7_5 N 0.0396(5) 0.4449(6) 0.2279(3)
N8_5 N 0.0365(4) 0.5265(5) 0.2265(2)
C64_5 C 0.0884(8) 0.5857(10) 0.1940(4)
C65_5 C 0.0686(8) 0.4008(9) 0.2097(5)
H33_5 H 0.1217 0.4500 0.1847
C66_5 C 0.0339(9) 0.4034(10) 0.2321(5)
C67_5 C 0.0340(6) 0.5642(8) 0.2296(4)
C68_5 C 0.0643(7) 0.6002(9) 0.2093(4)
H34_5 H 0.1118 0.6027 0.1787
H35_5 H 0.0708 0.3755 0.2058
H36_5 H 0.0669 0.6281 0.2071
C2_5 C 0.7618(5) 0.3684(4) 0.3997(3)
C4_5 C 0.7982(6) 0.3781(4) 0.3756(3)
C7_5 C 0.8407(7) 0.3920(5) 0.3874(3)
C8_5 C 0.7928(6) 0.3746(4) 0.3412(3)
H3_5 H 0.8462 0.3924 0.4115
C11_5 C 0.8754(7) 0.4055(5) 0.3638(3)
C12_5 C 0.8280(7) 0.3862(5) 0.3179(4)
H4_5 H 0.7644 0.3639 0.3320
H7_5 H 0.9040 0.4173 0.3728
C14_5 C 0.8707(6) 0.4028(4) 0.3297(3)
H8_5 H 0.8224 0.3827 0.2938
C16_5 C 0.9092(7) 0.4202(5) 0.3068(3)
C19_5 C 0.9258(7) 0.3944(5) 0.2943(3)
C20_5 C 0.9259(8) 0.4641(6) 0.2959(3)
C23_5 C 0.9048(8) 0.3455(5) 0.3032(5)
N3_5 N 0.9604(5) 0.4053(3) 0.2721(3)
N4_5 N 0.9635(4) 0.4900(3) 0.2735(2)
C24_5 C 0.9116(8) 0.4973(6) 0.3060(4)
C29_5 C 0.9314(8) 0.3322(5) 0.2903(5)
H11_5 H 0.8783 0.3283 0.3153
C30_5 C 0.9661(9) 0.3695(5) 0.2679(5)
Zn4_7 Zn 1.00000(10) 0.46733(7) 0.2500
C31_5 C 0.9660(6) 0.5302(5) 0.2704(4)
C32_5 C 0.9357(7) 0.5359(5) 0.2907(4)
H12_5 H 0.8882 0.4909 0.3213
H15_5 H 0.9292 0.3047 0.2942
C34_7 C 1.0000(10) 0.3686(7) 0.2500
C35_7 C 1.0000(8) 0.5628(6) 0.2500
H16_5 H 0.9331 0.5612 0.2929
H18_7 H 1.0000 0.3418 0.2500
H19_7 H 1.0000 0.5896 0.2500
C70_5 C 0.6316(4) 0.3934(6) 0.3997(3)
C72_5 C 0.6219(4) 0.4201(7) 0.3756(3)
C75_5 C 0.6080(5) 0.4487(9) 0.3874(3)
C76_5 C 0.6254(4) 0.4182(7) 0.3412(3)
H39_5 H 0.6076 0.4538 0.4115
C79_5 C 0.5945(5) 0.4699(9) 0.3638(3)
C80_5 C 0.6138(5) 0.4418(9) 0.3179(4)
H40_5 H 0.6361 0.4005 0.3320
H43_5 H 0.5827 0.4867 0.3728
C82_5 C 0.5972(4) 0.4679(7) 0.3297(3)
H44_5 H 0.6173 0.4397 0.2938
C84_5 C 0.5798(5) 0.4890(9) 0.3068(3)
C87_5 C 0.6056(5) 0.5314(9) 0.2943(3)
C88_5 C 0.5359(6) 0.4618(10) 0.2959(3)
C91_5 C 0.6545(5) 0.5593(9) 0.3032(5)
N11_5 N 0.5947(3) 0.5551(6) 0.2721(3)
N12_5 N 0.5100(3) 0.4735(5) 0.2735(2)
C92_5 C 0.5027(6) 0.4143(10) 0.3060(4)
C97_5 C 0.6678(5) 0.5992(9) 0.2903(5)
H47_5 H 0.6717 0.5500 0.3153
C98_5 C 0.6305(5) 0.5966(10) 0.2679(5)
Zn7_5 Zn 0.53267(7) 0.53267(12) 0.2500
C99_5 C 0.4698(5) 0.4358(8) 0.2704(4)
C100_5 C 0.4641(5) 0.3998(9) 0.2907(4)
H48_5 H 0.5091 0.3973 0.3213
H51_5 H 0.6953 0.6245 0.2942
C102_5 C 0.6314(7) 0.6314(12) 0.2500
C103_5 C 0.4372(6) 0.4372(10) 0.2500
H52_5 H 0.4388 0.3719 0.2929
H54_5 H 0.6582 0.6582 0.2500
H55_5 H 0.4104 0.4104 0.2500
C121_5 C 0.3934(6) 0.6316(4) 0.1003(3)
C122_5 C 0.4201(7) 0.6219(4) 0.1244(3)
C123_5 C 0.4487(9) 0.6080(5) 0.1126(3)
C124_5 C 0.4182(7) 0.6254(4) 0.1588(3)
H65_5 H 0.4538 0.6076 0.0885
C125_5 C 0.4699(9) 0.5945(5) 0.1362(3)
C126_5 C 0.4418(9) 0.6138(5) 0.1821(4)
H66_5 H 0.4005 0.6361 0.1680
H67_5 H 0.4867 0.5827 0.1272
C127_5 C 0.4679(7) 0.5972(4) 0.1703(3)
H68_5 H 0.4397 0.6173 0.2062
C128_5 C 0.4890(9) 0.5798(5) 0.1932(3)
C129_5 C 0.5314(9) 0.6056(5) 0.2057(3)
C130_5 C 0.4618(10) 0.5359(6) 0.2041(3)
C131_5 C 0.5593(9) 0.6545(5) 0.1968(5)
N15_5 N 0.5551(6) 0.5947(3) 0.2279(3)
N16_5 N 0.4735(5) 0.5100(3) 0.2265(2)
C132_5 C 0.4143(10) 0.5027(6) 0.1940(4)
C133_5 C 0.5992(9) 0.6678(5) 0.2097(5)
H69_5 H 0.5500 0.6717 0.1847
C134_5 C 0.5966(10) 0.6305(5) 0.2321(5)
C135_5 C 0.4358(8) 0.4698(5) 0.2296(4)
C136_5 C 0.3998(9) 0.4641(5) 0.2093(4)
H70_5 H 0.3973 0.5091 0.1787
H71_5 H 0.6245 0.6953 0.2058
H72_5 H 0.3719 0.4388 0.2071
C138_5 C 0.6066(6) 0.2382(5) 0.3997(3)
C140_5 C 0.5799(7) 0.2018(6) 0.3756(3)
C143_5 C 0.5513(9) 0.1593(7) 0.3874(3)
C144_5 C 0.5818(7) 0.2072(6) 0.3412(3)
H75_5 H 0.5462 0.1538 0.4115
C147_5 C 0.5301(9) 0.1246(7) 0.3638(3)
C148_5 C 0.5582(9) 0.1720(7) 0.3179(4)
H76_5 H 0.5995 0.2356 0.3320
H79_5 H 0.5133 0.0960 0.3728
C150_5 C 0.5321(7) 0.1293(6) 0.3297(3)
H80_5 H 0.5603 0.1776 0.2938
C152_5 C 0.5110(9) 0.0908(7) 0.3068(3)
C155_5 C 0.4686(9) 0.0742(7) 0.2943(3)
C156_5 C 0.5382(10) 0.0741(8) 0.2959(3)
C159_5 C 0.4407(9) 0.0952(8) 0.3032(5)
N19_5 N 0.4449(6) 0.0396(5) 0.2721(3)
N20_5 N 0.5265(5) 0.0365(4) 0.2735(2)
C160_5 C 0.5857(10) 0.0884(8) 0.3060(4)
C165_5 C 0.4008(9) 0.0686(8) 0.2903(5)
H83_5 H 0.4500 0.1217 0.3153
C166_5 C 0.4034(10) 0.0339(9) 0.2679(5)
Zn10_6 Zn 0.46733(12) 0.00000(10) 0.2500
C167_5 C 0.5642(8) 0.0340(6) 0.2704(4)
C168_5 C 0.6002(9) 0.0643(7) 0.2907(4)
H84_5 H 0.6027 0.1118 0.3213
H87_5 H 0.3755 0.0708 0.2942
C170_6 C 0.3686(12) 0.0000(10) 0.2500
C171_6 C 0.5628(10) 0.0000(8) 0.2500
H88_5 H 0.6281 0.0669 0.2929
H90_6 H 0.3418 0.0000 0.2500
H91_6 H 0.5896 0.0000 0.2500
Zn10_7 Zn 0.46733(12) 1.00000(10) 0.2500
C170_7 C 0.3686(12) 1.0000(10) 0.2500
C171_7 C 0.5628(10) 1.0000(8) 0.2500
H90_7 H 0.3418 1.0000 0.2500
H91_7 H 0.5896 1.0000 0.2500
C189_5 C 0.3684(4) 0.7618(5) 0.1003(3)
C190_5 C 0.3781(4) 0.7982(6) 0.1244(3)
C191_5 C 0.3920(5) 0.8407(7) 0.1126(3)
C192_5 C 0.3746(4) 0.7928(6) 0.1588(3)
H101_5 H 0.3924 0.8462 0.0885
C193_5 C 0.4055(5) 0.8754(7) 0.1362(3)
C194_5 C 0.3862(5) 0.8280(7) 0.1821(4)
H102_5 H 0.3639 0.7644 0.1680
H103_5 H 0.4173 0.9040 0.1272
C195_5 C 0.4028(4) 0.8707(6) 0.1703(3)
H104_5 H 0.3827 0.8224 0.2062
C196_5 C 0.4202(5) 0.9092(7) 0.1932(3)
C197_5 C 0.3944(5) 0.9258(7) 0.2057(3)
C198_5 C 0.4641(6) 0.9259(8) 0.2041(3)
C199_5 C 0.3455(5) 0.9048(8) 0.1968(5)
N23_5 N 0.4053(3) 0.9604(5) 0.2279(3)
N24_5 N 0.4900(3) 0.9635(4) 0.2265(2)
C200_5 C 0.4973(6) 0.9116(8) 0.1940(4)
C201_5 C 0.3322(5) 0.9314(8) 0.2097(5)
H105_5 H 0.3283 0.8783 0.1847
C202_5 C 0.3695(5) 0.9661(9) 0.2321(5)
C203_5 C 0.5302(5) 0.9660(6) 0.2296(4)
C204_5 C 0.5359(5) 0.9357(7) 0.2093(4)
H106_5 H 0.4909 0.8882 0.1787
H107_5 H 0.3047 0.9292 0.2058
H108_5 H 0.5612 0.9331 0.2071
C161_5 C 0.0258(7) 0.5345(5) 0.0732(3)
C162_5 C 0.0113(7) 0.5316(5) 0.1100(3)
C169_5 C 0.0715(7) 0.5608(5) 0.0638(3)
H85_5 H 0.0287 0.5463 0.1296
H89_5 H 0.0907 0.5774 0.0819
N22_5 N 0.0668(4) 0.5438(3) 0.0011(2)
C186_5 C 0.0904(7) 0.5648(5) 0.0323(3)
C187_5 C 0.1352(7) 0.5911(5) 0.0224(4)
H99_5 H 0.1584 0.6097 0.0373
C201_6 C 0.0011(5) 0.7353(8) 0.4570(5)
H105_6 H 0.0050 0.7884 0.4820
H107_6 H 0.0286 0.7375 0.4609
Zn24_3 Zn 0.0000 1.0000 0.57193(5)
Zn1_3 Zn 0.60519(3) 0.30225(3) 0.19505(2)
O1_7 O 0.6666 0.3334 0.2106(2)
O2_5 O 0.5943(2) 0.3420(2) 0.16465(18)
O3_5 O 0.6582(4) 0.4071(2) 0.16596(19)
O4_3 O 0.5631(3) 0.2892(2) 0.23416(17)
Zn2_5 Zn 0.6666 0.3334 0.26141(5)
C1_5 C 0.6198(4) 0.3827(4) 0.1568(3)
C2_6 C 0.5715(5) 0.2983(4) 0.2670(3)
O5_3 O 0.6094(4) 0.3144(3) 0.28098(17)
C3_5 C 0.5969(4) 0.3993(3) 0.1317(3)
C4_6 C 0.5351(6) 0.2886(4) 0.2911(3)
C5_5 C 0.6219(3) 0.4431(4) 0.1197(3)
C6_5 C 0.5541(4) 0.3740(4) 0.1206(3)
C7_6 C 0.4926(7) 0.2747(5) 0.2793(3)
C8_6 C 0.5405(6) 0.2921(4) 0.3255(3)
H1_5 H 0.6514 0.4606 0.1268
C9_5 C 0.6025(4) 0.4608(4) 0.0965(3)
C10_5 C 0.5375(4) 0.3929(3) 0.0981(3)
H2_5 H 0.5367 0.3447 0.1280
H3_6 H 0.4871 0.2743 0.2552
C11_6 C 0.4579(7) 0.2612(5) 0.3029(3)
C12_6 C 0.5053(7) 0.2805(5) 0.3488(4)
H4_6 H 0.5689 0.3028 0.3347
H5_5 H 0.6191 0.4902 0.0890
C13_5 C 0.5604(3) 0.4355(4) 0.0855(3)
H6_5 H 0.5082 0.3753 0.0907
H7_6 H 0.4293 0.2494 0.2939
C14_6 C 0.4626(6) 0.2639(4) 0.3370(3)
H8_6 H 0.5109 0.2840 0.3729
C15_5 C 0.5431(4) 0.4557(3) 0.0593(3)
C16_6 C 0.4241(7) 0.2465(5) 0.3599(3)
C17_5 C 0.5138(4) 0.4687(3) 0.0720(3)
C18_5 C 0.5564(4) 0.4599(3) 0.0249(3)
C19_6 C 0.4075(7) 0.2723(5) 0.3724(3)
C20_6 C 0.4074(8) 0.2026(6) 0.3708(3)
N1_5 N 0.4928(3) 0.4865(3) 0.0515(2)
C21_5 C 0.4975(4) 0.4642(4) 0.1090(3)
C22_5 C 0.5851(4) 0.4462(5) 0.0124(3)
C23_6 C 0.4285(8) 0.3212(5) 0.3635(5)
N3_6 N 0.3729(5) 0.2614(3) 0.3946(3)
N4_6 N 0.3698(4) 0.1767(3) 0.3932(2)
C24_6 C 0.4217(8) 0.1694(6) 0.3607(4)
C25_5 C 0.4655(5) 0.4914(5) 0.0732(3)
C26_5 C 0.4684(5) 0.4798(5) 0.1100(3)
H9_5 H 0.5057 0.4528 0.1279
H10_5 H 0.5978 0.4327 0.0254
C29_6 C 0.4019(8) 0.3345(5) 0.3764(5)
H11_6 H 0.4550 0.3384 0.3514
C30_6 C 0.3672(9) 0.2972(5) 0.3988(5)
Zn4_8 Zn 0.33333(10) 0.19934(7) 0.4167
C31_6 C 0.3673(6) 0.1365(5) 0.3963(4)
C32_6 C 0.3976(7) 0.1308(5) 0.3760(4)
H12_6 H 0.4451 0.1758 0.3454
C33_5 C 0.4392(5) 0.5108(5) 0.0638(3)
H13_5 H 0.4537 0.4825 0.1296
H15_6 H 0.4041 0.3620 0.3725
C34_8 C 0.3333(10) 0.2981(7) 0.4167
C35_8 C 0.3333(8) 0.1039(6) 0.4167
H16_6 H 0.4002 0.1055 0.3738
H17_5 H 0.4226 0.5134 0.0819
H18_8 H 0.3333 0.3249 0.4167
H19_8 H 0.3333 0.0771 0.4167
N6_5 N 0.4562(3) 0.5229(3) 0.0011(2)
C50_5 C 0.4352(5) 0.5255(5) 0.0323(3)
C51_5 C 0.4089(5) 0.5440(5) 0.0224(4)
H27_5 H 0.3903 0.5486 0.0373
O8_3 O 0.1035(3) 0.0594(4) 0.59918(17)
C53_6 C 0.0951(5) 0.0601(6) 0.5664(3)
O9_3 O 0.0572(4) 0.0383(5) 0.55236(17)
C54_6 C 0.1315(6) 0.0868(7) 0.5423(3)
C55_6 C 0.1740(7) 0.1154(9) 0.5541(3)
C56_6 C 0.1261(6) 0.0849(7) 0.5079(3)
H29_6 H 0.1795 0.1205 0.5782
C57_6 C 0.2087(7) 0.1366(9) 0.5305(3)
C58_6 C 0.1613(7) 0.1085(9) 0.4846(4)
H30_6 H 0.0977 0.0672 0.4987
H31_6 H 0.2373 0.1534 0.5395
C59_6 C 0.2040(6) 0.1346(7) 0.4964(3)
H32_6 H 0.1557 0.1064 0.4605
C60_6 C 0.2425(7) 0.1557(9) 0.4735(3)
C61_6 C 0.2591(7) 0.1981(9) 0.4610(3)
C62_6 C 0.2592(8) 0.1285(10) 0.4626(3)
C63_6 C 0.2381(8) 0.2260(9) 0.4699(5)
N7_6 N 0.2937(5) 0.2218(6) 0.4388(3)
N8_6 N 0.2968(4) 0.1402(5) 0.4402(2)
C64_6 C 0.2449(8) 0.0810(10) 0.4727(4)
C65_6 C 0.2647(8) 0.2659(9) 0.4570(5)
H33_6 H 0.2116 0.2167 0.4820
C66_6 C 0.2994(9) 0.2633(10) 0.4346(5)
C67_6 C 0.2993(6) 0.1025(8) 0.4371(4)
C68_6 C 0.2690(7) 0.0665(9) 0.4574(4)
H34_6 H 0.2215 0.0640 0.4880
H35_6 H 0.2625 0.2912 0.4609
H36_6 H 0.2664 0.0386 0.4596
Zn5_3 Zn 0.69775(3) 0.30295(4) 0.19505(2)
O10_5 O 0.6580(2) 0.2524(3) 0.16465(18)
O11_5 O 0.5929(2) 0.2512(4) 0.16596(19)
O12_3 O 0.7108(2) 0.2740(4) 0.23416(17)
C69_5 C 0.6173(4) 0.2372(6) 0.1568(3)
C70_6 C 0.7017(4) 0.2733(6) 0.2670(3)
O13_3 O 0.6856(3) 0.2951(5) 0.28098(17)
C71_5 C 0.6007(3) 0.1977(5) 0.1317(3)
C72_6 C 0.7114(4) 0.2466(7) 0.2911(3)
C73_5 C 0.5569(4) 0.1789(5) 0.1197(3)
C74_5 C 0.6260(4) 0.1802(6) 0.1206(3)
C75_6 C 0.7253(5) 0.2180(9) 0.2793(3)
C76_6 C 0.7079(4) 0.2485(7) 0.3255(3)
H37_5 H 0.5394 0.1909 0.1268
C77_5 C 0.5392(4) 0.1418(6) 0.0965(3)
C78_5 C 0.6071(3) 0.1447(5) 0.0981(3)
H38_5 H 0.6553 0.1921 0.1280
H39_6 H 0.7257 0.2129 0.2552
C79_6 C 0.7388(5) 0.1968(9) 0.3029(3)
C80_6 C 0.7195(5) 0.2249(9) 0.3488(4)
H40_6 H 0.6972 0.2662 0.3347
H41_5 H 0.5098 0.1290 0.0890
C81_5 C 0.5645(4) 0.1250(5) 0.0855(3)
H42_5 H 0.6247 0.1330 0.0907
H43_6 H 0.7506 0.1800 0.2939
C82_6 C 0.7361(4) 0.1988(7) 0.3370(3)
H44_6 H 0.7160 0.2270 0.3729
C83_5 C 0.5443(3) 0.0875(5) 0.0593(3)
C84_6 C 0.7535(5) 0.1777(9) 0.3599(3)
C85_5 C 0.5313(3) 0.0452(5) 0.0720(3)
C86_5 C 0.5401(3) 0.0966(5) 0.0249(3)
C87_6 C 0.7277(5) 0.1353(9) 0.3724(3)
C88_6 C 0.7974(6) 0.2049(10) 0.3708(3)
N9_5 N 0.5135(3) 0.0064(4) 0.0515(2)
C89_5 C 0.5358(4) 0.0334(6) 0.1090(3)
C90_5 C 0.5538(5) 0.1390(6) 0.0124(3)
C91_6 C 0.6788(5) 0.1074(9) 0.3635(5)
N11_6 N 0.7386(3) 0.1116(6) 0.3946(3)
N12_6 N 0.8233(3) 0.1932(5) 0.3932(2)
C92_6 C 0.8306(6) 0.2524(10) 0.3607(4)
H45_5 H 0.5472 0.0530 0.1279
H46_5 H 0.5673 0.1652 0.0254
C97_6 C 0.6655(5) 0.0675(9) 0.3764(5)
H47_6 H 0.6616 0.1167 0.3514
C98_6 C 0.7028(5) 0.0701(10) 0.3988(5)
Zn7_6 Zn 0.80066(7) 0.13400(12) 0.4167
C99_6 C 0.8635(5) 0.2309(8) 0.3963(4)
C100_6 C 0.8692(5) 0.2669(9) 0.3760(4)
H48_6 H 0.8242 0.2694 0.3454
H51_6 H 0.6380 0.0422 0.3725
C102_6 C 0.7019(7) 0.0353(12) 0.4167
C103_6 C 0.8961(6) 0.2295(10) 0.4167
H52_6 H 0.8945 0.2948 0.3738
H54_6 H 0.6751 0.0085 0.4167
H55_6 H 0.9229 0.2563 0.4167
O16_3 O 0.9406(4) 0.0442(2) 0.59918(17)
C121_6 C 0.9399(6) 0.0351(4) 0.5664(3)
O17_3 O 0.9617(5) 0.0190(3) 0.55236(17)
C122_6 C 0.9132(7) 0.0448(4) 0.5423(3)
C123_6 C 0.8846(9) 0.0587(5) 0.5541(3)
C124_6 C 0.9151(7) 0.0413(4) 0.5079(3)
H65_6 H 0.8795 0.0591 0.5782
C125_6 C 0.8634(9) 0.0722(5) 0.5305(3)
C126_6 C 0.8915(9) 0.0529(5) 0.4846(4)
H66_6 H 0.9328 0.0306 0.4987
H67_6 H 0.8466 0.0840 0.5395
C127_6 C 0.8654(7) 0.0695(4) 0.4964(3)
H68_6 H 0.8936 0.0494 0.4605
C128_6 C 0.8443(9) 0.0869(5) 0.4735(3)
C129_6 C 0.8019(9) 0.0611(5) 0.4610(3)
C130_6 C 0.8715(10) 0.1308(6) 0.4626(3)
C131_6 C 0.7740(9) 0.0122(5) 0.4699(5)
N15_6 N 0.7782(6) 0.0720(3) 0.4388(3)
N16_6 N 0.8598(5) 0.1567(3) 0.4402(2)
C132_6 C 0.9190(10) 0.1640(6) 0.4727(4)
C134_6 C 0.7367(10) 0.0362(5) 0.4346(5)
C135_6 C 0.8975(8) 0.1969(5) 0.4371(4)
C136_6 C 0.9335(9) 0.2026(5) 0.4574(4)
H70_6 H 0.9360 0.1576 0.4880
H72_6 H 0.9614 0.2279 0.4596
Zn8_3 Zn 0.69705(4) 0.39481(3) 0.19505(2)
O18_5 O 0.7476(3) 0.4057(2) 0.16465(18)
O19_5 O 0.7488(4) 0.3418(4) 0.16596(19)
O20_3 O 0.7260(4) 0.4369(3) 0.23416(17)
C137_5 C 0.7628(6) 0.3802(4) 0.1568(3)
C138_6 C 0.7267(6) 0.4285(5) 0.2670(3)
O21_3 O 0.7049(5) 0.3906(4) 0.28098(17)
C139_5 C 0.8023(5) 0.4031(4) 0.1317(3)
C140_6 C 0.7534(7) 0.4649(6) 0.2911(3)
C141_5 C 0.8211(5) 0.3781(3) 0.1197(3)
C142_5 C 0.8198(6) 0.4459(4) 0.1206(3)
C143_6 C 0.7820(9) 0.5074(7) 0.2793(3)
C144_6 C 0.7515(7) 0.4595(6) 0.3255(3)
H73_5 H 0.8091 0.3486 0.1268
C145_5 C 0.8582(6) 0.3975(4) 0.0965(3)
C146_5 C 0.8553(5) 0.4625(4) 0.0981(3)
H74_5 H 0.8079 0.4633 0.1280
H75_6 H 0.7871 0.5129 0.2552
C147_6 C 0.8032(9) 0.5421(7) 0.3029(3)
C148_6 C 0.7751(9) 0.4947(7) 0.3488(4)
H76_6 H 0.7338 0.4311 0.3347
H77_5 H 0.8710 0.3809 0.0890
C149_5 C 0.8750(5) 0.4396(3) 0.0855(3)
H78_5 H 0.8670 0.4918 0.0907
H79_6 H 0.8200 0.5707 0.2939
C150_6 C 0.8012(7) 0.5374(6) 0.3370(3)
H80_6 H 0.7730 0.4891 0.3729
C151_5 C 0.9125(5) 0.4569(4) 0.0593(3)
C152_6 C 0.8223(9) 0.5759(7) 0.3599(3)
C153_5 C 0.9548(5) 0.4862(4) 0.0720(3)
C154_5 C 0.9034(5) 0.4436(4) 0.0249(3)
C155_6 C 0.8647(9) 0.5925(7) 0.3724(3)
C156_6 C 0.7951(10) 0.5926(8) 0.3708(3)
N17_5 N 0.9936(4) 0.5072(3) 0.0515(2)
C157_5 C 0.9666(6) 0.5025(4) 0.1090(3)
C158_5 C 0.8610(6) 0.4149(4) 0.0124(3)
C159_6 C 0.8926(9) 0.5715(8) 0.3635(5)
N19_6 N 0.8884(6) 0.6271(5) 0.3946(3)
N20_6 N 0.8068(5) 0.6302(4) 0.3932(2)
C160_6 C 0.7476(10) 0.5783(8) 0.3607(4)
H81_5 H 0.9470 0.4943 0.1279
H82_5 H 0.8348 0.4022 0.0254
C165_6 C 0.9325(9) 0.5981(8) 0.3764(5)
H83_6 H 0.8833 0.5450 0.3514
C166_6 C 0.9299(10) 0.6328(9) 0.3988(5)
Zn10_8 Zn 0.86600(12) 0.66667(10) 0.4167
C167_6 C 0.7691(8) 0.6327(6) 0.3963(4)
C168_6 C 0.7331(9) 0.6024(7) 0.3760(4)
H84_6 H 0.7306 0.5549 0.3454
H87_6 H 0.9578 0.5959 0.3725
C170_8 C 0.9647(12) 0.6667(10) 0.4167
C171_8 C 0.7705(10) 0.6667(8) 0.4167
H88_6 H 0.7052 0.5998 0.3738
H90_8 H 0.9915 0.6667 0.4167
H91_8 H 0.7437 0.6667 0.4167
O24_3 O 0.9558(2) 0.8965(3) 0.59918(17)
C189_6 C 0.9649(4) 0.9049(5) 0.5664(3)
O25_3 O 0.9810(3) 0.9428(4) 0.55236(17)
C190_6 C 0.9552(4) 0.8685(6) 0.5423(3)
C191_6 C 0.9413(5) 0.8260(7) 0.5541(3)
C192_6 C 0.9587(4) 0.8739(6) 0.5079(3)
H101_6 H 0.9409 0.8205 0.5782
C193_6 C 0.9278(5) 0.7913(7) 0.5305(3)
C194_6 C 0.9471(5) 0.8387(7) 0.4846(4)
H102_6 H 0.9694 0.9023 0.4987
H103_6 H 0.9160 0.7627 0.5395
C195_6 C 0.9305(4) 0.7960(6) 0.4964(3)
H104_6 H 0.9506 0.8443 0.4605
C196_6 C 0.9131(5) 0.7575(7) 0.4735(3)
C197_6 C 0.9389(5) 0.7409(7) 0.4610(3)
C198_6 C 0.8692(6) 0.7408(8) 0.4626(3)
C199_6 C 0.9878(5) 0.7619(8) 0.4699(5)
N23_6 N 0.9280(3) 0.7063(5) 0.4388(3)
N24_6 N 0.8433(3) 0.7032(4) 0.4402(2)
C200_6 C 0.8360(6) 0.7551(8) 0.4727(4)
C202_6 C 0.9638(5) 0.7006(9) 0.4346(5)
C203_6 C 0.8031(5) 0.7007(6) 0.4371(4)
C204_6 C 0.7974(5) 0.7310(7) 0.4574(4)
H106_6 H 0.8424 0.7785 0.4880
H108_6 H 0.7721 0.7336 0.4596
Zn15_3 Zn 0.96891(3) 0.93853(3) 0.63829(2)
Zn16_3 Zn 0.96961(4) 0.03109(3) 0.63829(2)
Zn17_3 Zn 0.06147(3) 0.03039(4) 0.63829(2)
C93_5 C 0.5086(5) 0.9742(7) 0.0732(3)
C94_5 C 0.5202(5) 0.9887(7) 0.1100(3)
C101_5 C 0.4892(5) 0.9285(7) 0.0638(3)
H49_5 H 0.5175 0.9713 0.1296
H53_5 H 0.4866 0.9093 0.0819
N14_5 N 0.4771(3) 0.9332(4) 0.0011(2)
C118_5 C 0.4745(5) 0.9096(7) 0.0323(3)
C119_5 C 0.4560(5) 0.8648(7) 0.0224(4)
H63_5 H 0.4514 0.8416 0.0373
C133_6 C 0.7341(9) 0.9989(5) 0.4570(5)
H69_6 H 0.7833 0.9950 0.4820
H71_6 H 0.7088 0.9714 0.4609
Zn23 Zn 0.0000 0.0001 0.57193(5)
Zn22 Zn 0.9999 1.0000 0.57193(5)
O18_6 O 0.0723(2) 0.0810(3) 0.66869(18)
O19_6 O 0.0084(4) 0.0822(4) 0.66738(19)
C137_6 C 0.0468(4) 0.0962(6) 0.6766(3)
C139_6 C 0.0697(4) 0.1357(5) 0.7017(3)
C141_6 C 0.0447(3) 0.1545(5) 0.7137(3)
C142_6 C 0.1125(4) 0.1532(6) 0.7128(3)
H73_6 H 0.0152 0.1425 0.7066
C145_6 C 0.0641(4) 0.1916(6) 0.7369(3)
C146_6 C 0.1291(4) 0.1887(5) 0.7353(3)
H74_6 H 0.1299 0.1413 0.7054
H77_6 H 0.0475 0.2044 0.7444
C149_6 C 0.1062(3) 0.2084(5) 0.7479(3)
H78_6 H 0.1584 0.2004 0.7427
C151_6 C 0.1235(4) 0.2459(5) 0.7741(3)
C153_6 C 0.1528(4) 0.2882(5) 0.7614(3)
C154_6 C 0.1102(4) 0.2368(5) 0.8085(3)
N17_6 N 0.1738(3) 0.3270(4) 0.7819(2)
C157_6 C 0.1691(4) 0.3000(6) 0.7244(3)
N18_6 N 0.1228(3) 0.2666(4) 0.8345(2)
C158_6 C 0.0815(4) 0.1944(6) 0.8210(3)
C161_6 C 0.2011(5) 0.3592(7) 0.7602(3)
Zn9_7 Zn 0.1666 0.3333 0.8334
C162_6 C 0.1982(5) 0.3447(7) 0.7234(3)
H81_6 H 0.1609 0.2804 0.7055
C163_6 C 0.1018(5) 0.2430(7) 0.8657(3)
H82_6 H 0.0688 0.1682 0.8080
C164_6 C 0.0755(5) 0.1982(7) 0.8558(4)
C169_6 C 0.2274(5) 0.4049(7) 0.7696(3)
H85_6 H 0.2129 0.3621 0.7038
H86_6 H 0.0569 0.1750 0.8707
H89_6 H 0.2440 0.4241 0.7515
O22_6 O 0.2610(2) 0.5857(3) 0.99798(18)
O23_6 O 0.3249(4) 0.5845(4) 0.99929(19)
C172_6 C 0.2865(4) 0.5705(6) 0.9901(3)
C173_6 C 0.2636(4) 0.5310(5) 0.9650(3)
C174_6 C 0.2886(3) 0.5122(5) 0.9530(3)
C175_6 C 0.2208(4) 0.5135(6) 0.9539(3)
H92_6 H 0.3181 0.5242 0.9601
C176_6 C 0.2692(4) 0.4751(6) 0.9298(3)
C177_6 C 0.2042(4) 0.4780(5) 0.9314(3)
H93_6 H 0.2034 0.5254 0.9613
H94_6 H 0.2858 0.4623 0.9223
C178_6 C 0.2271(3) 0.4583(5) 0.9188(3)
H95_6 H 0.1749 0.4663 0.9240
C179_6 C 0.2098(4) 0.4208(5) 0.8926(3)
C180_6 C 0.1805(4) 0.3785(5) 0.9053(3)
C181_6 C 0.2231(4) 0.4299(5) 0.8582(3)
N21_6 N 0.1595(3) 0.3397(4) 0.8848(2)
C182_6 C 0.1642(4) 0.3667(6) 0.9423(3)
N22_6 N 0.2105(3) 0.4001(4) 0.8322(2)
C183_6 C 0.2518(4) 0.4723(6) 0.8457(3)
C184_6 C 0.1322(5) 0.3075(7) 0.9065(3)
C185_6 C 0.1351(5) 0.3220(7) 0.9433(3)
H96_6 H 0.1724 0.3863 0.9612
C186_6 C 0.2315(5) 0.4237(7) 0.8010(3)
H97_6 H 0.2645 0.4985 0.8587
C187_6 C 0.2578(5) 0.4685(7) 0.8109(4)
C188_6 C 0.1059(5) 0.2618(7) 0.8971(3)
H98_6 H 0.1204 0.3046 0.9629
H99_6 H 0.2764 0.4917 0.7960
H100_6 H 0.0893 0.2426 0.9152
O1_8 O 0.0000 1.0000 0.6228(2)
O2_6 O 0.0086(2) 0.9277(2) 0.66869(18)
O3_6 O 0.0737(2) 0.9916(4) 0.66738(19)
C1_6 C 0.0493(4) 0.9532(4) 0.6766(3)
C3_6 C 0.0659(3) 0.9303(4) 0.7017(3)
C5_6 C 0.1097(4) 0.9553(3) 0.7137(3)
C6_6 C 0.0406(4) 0.8875(4) 0.7128(3)
H1_6 H 0.1272 0.9848 0.7066
C9_6 C 0.1274(4) 0.9359(4) 0.7369(3)
C10_6 C 0.0595(3) 0.8709(4) 0.7353(3)
H2_6 H 0.0113 0.8701 0.7054
H5_6 H 0.1568 0.9525 0.7444
C13_6 C 0.1021(4) 0.8938(3) 0.7479(3)
H6_6 H 0.0419 0.8416 0.7427
C15_6 C 0.1223(3) 0.8765(4) 0.7741(3)
C17_6 C 0.1353(3) 0.8472(4) 0.7614(3)
C18_6 C 0.1265(3) 0.8898(4) 0.8085(3)
N1_6 N 0.1531(3) 0.8262(3) 0.7819(2)
C21_6 C 0.1308(4) 0.8309(4) 0.7244(3)
N2_6 N 0.1437(3) 0.8772(3) 0.8345(2)
C22_6 C 0.1128(5) 0.9185(4) 0.8210(3)
C25_6 C 0.1580(5) 0.7989(5) 0.7602(3)
Zn3_6 Zn 0.1666 0.8334 0.8334
C26_6 C 0.1464(5) 0.8018(5) 0.7234(3)
H9_6 H 0.1194 0.8391 0.7055
C27_6 C 0.1411(5) 0.8982(5) 0.8657(3)
H10_6 H 0.0993 0.9312 0.8080
C28_6 C 0.1226(5) 0.9245(5) 0.8558(4)
C33_6 C 0.1774(5) 0.7726(5) 0.7696(3)
H13_6 H 0.1491 0.7871 0.7038
H14_6 H 0.1180 0.9431 0.8707
H17_6 H 0.1800 0.7560 0.7515
O6_6 O 0.3247(2) 0.7390(2) 0.99798(18)
O7_6 O 0.2596(2) 0.6751(4) 0.99929(19)
C36_6 C 0.2840(4) 0.7135(4) 0.9901(3)
C37_6 C 0.2674(3) 0.7364(4) 0.9650(3)
C38_6 C 0.2236(4) 0.7114(3) 0.9530(3)
C39_6 C 0.2927(4) 0.7792(4) 0.9539(3)
H20_6 H 0.2061 0.6819 0.9601
C40_6 C 0.2059(4) 0.7308(4) 0.9298(3)
C41_6 C 0.2738(3) 0.7958(4) 0.9314(3)
H21_6 H 0.3220 0.7966 0.9613
H22_6 H 0.1765 0.7142 0.9223
C42_6 C 0.2312(4) 0.7729(3) 0.9188(3)
H23_6 H 0.2914 0.8251 0.9240
C43_6 C 0.2110(3) 0.7902(4) 0.8926(3)
C44_6 C 0.1980(3) 0.8195(4) 0.9053(3)
C45_6 C 0.2068(3) 0.7769(4) 0.8582(3)
N5_6 N 0.1802(3) 0.8405(3) 0.8848(2)
C46_6 C 0.2025(4) 0.8358(4) 0.9423(3)
N6_6 N 0.1896(3) 0.7895(3) 0.8322(2)
C47_6 C 0.2205(5) 0.7482(4) 0.8457(3)
C48_6 C 0.1753(5) 0.8678(5) 0.9065(3)
C49_6 C 0.1869(5) 0.8649(5) 0.9433(3)
H24_6 H 0.2139 0.8276 0.9612
C50_6 C 0.1922(5) 0.7685(5) 0.8010(3)
H25_6 H 0.2340 0.7355 0.8587
C51_6 C 0.2107(5) 0.7422(5) 0.8109(4)
C52_6 C 0.1559(5) 0.8941(5) 0.8971(3)
H26_6 H 0.1842 0.8796 0.9629
H27_6 H 0.2153 0.7236 0.7960
H28_6 H 0.1533 0.9107 0.9152
O29_6 O 0.4155(4) 0.7404(2) 0.99929(19)
O10_6 O 0.9190(3) 0.9914(2) 0.66869(18)
O11_6 O 0.9178(4) 0.9263(2) 0.66738(19)
C69_6 C 0.9038(6) 0.9507(4) 0.6766(3)
C71_6 C 0.8643(5) 0.9341(3) 0.7017(3)
C73_6 C 0.8455(5) 0.8903(4) 0.7137(3)
C74_6 C 0.8468(6) 0.9594(4) 0.7128(3)
H37_6 H 0.8575 0.8728 0.7066
C77_6 C 0.8084(6) 0.8726(4) 0.7369(3)
C78_6 C 0.8113(5) 0.9405(3) 0.7353(3)
H38_6 H 0.8587 0.9887 0.7054
H41_6 H 0.7956 0.8432 0.7444
C81_6 C 0.7916(5) 0.8979(4) 0.7479(3)
H42_6 H 0.7996 0.9581 0.7427
C83_6 C 0.7541(5) 0.8777(3) 0.7741(3)
C85_6 C 0.7118(5) 0.8647(3) 0.7614(3)
C86_6 C 0.7632(5) 0.8735(3) 0.8085(3)
N9_6 N 0.6730(4) 0.8469(3) 0.7819(2)
C89_6 C 0.7000(6) 0.8692(4) 0.7244(3)
N10_6 N 0.7334(4) 0.8563(3) 0.8345(2)
C90_6 C 0.8056(6) 0.8872(5) 0.8210(3)
C93_6 C 0.6408(7) 0.8420(5) 0.7602(3)
Zn6_7 Zn 0.6667 0.8334 0.8334
C94_6 C 0.6553(7) 0.8536(5) 0.7234(3)
H45_6 H 0.7196 0.8806 0.7055
C95_6 C 0.7570(7) 0.8589(5) 0.8657(3)
H46_6 H 0.8318 0.9007 0.8080
C96_6 C 0.8018(7) 0.8774(5) 0.8558(4)
C101_6 C 0.5951(7) 0.8226(5) 0.7696(3)
H49_6 H 0.6379 0.8509 0.7038
H50_6 H 0.8250 0.8820 0.8707
H53_6 H 0.5759 0.8200 0.7515
O14_6 O 0.4143(3) 0.6753(2) 0.99798(18)
C104_6 C 0.4295(6) 0.7160(4) 0.9901(3)
C105_6 C 0.4690(5) 0.7326(3) 0.9650(3)
C106_6 C 0.4878(5) 0.7764(4) 0.9530(3)
C107_6 C 0.4865(6) 0.7073(4) 0.9539(3)
H56_6 H 0.4758 0.7939 0.9601
C108_6 C 0.5249(6) 0.7941(4) 0.9298(3)
C109_6 C 0.5220(5) 0.7262(3) 0.9314(3)
H57_6 H 0.4746 0.6780 0.9613
H58_6 H 0.5377 0.8235 0.9223
C110_6 C 0.5417(5) 0.7688(4) 0.9188(3)
H59_6 H 0.5337 0.7086 0.9240
C111_6 C 0.5792(5) 0.7890(3) 0.8926(3)
C112_6 C 0.6215(5) 0.8020(3) 0.9053(3)
C113_6 C 0.5701(5) 0.7932(3) 0.8582(3)
N13_6 N 0.6603(4) 0.8198(3) 0.8848(2)
C114_6 C 0.6333(6) 0.7975(4) 0.9423(3)
N14_6 N 0.5999(4) 0.8104(3) 0.8322(2)
C115_6 C 0.5277(6) 0.7795(5) 0.8457(3)
C116_6 C 0.6925(7) 0.8247(5) 0.9065(3)
C117_6 C 0.6780(7) 0.8131(5) 0.9433(3)
H60_6 H 0.6137 0.7861 0.9612
C118_6 C 0.5763(7) 0.8078(5) 0.8010(3)
H61_6 H 0.5015 0.7660 0.8587
C119_6 C 0.5315(7) 0.7893(5) 0.8109(4)
C120_6 C 0.7382(7) 0.8441(5) 0.8971(3)
H62_6 H 0.6954 0.8158 0.9629
H63_6 H 0.5083 0.7847 0.7960
H64_6 H 0.7574 0.8467 0.9152
O1_9 O 0.9999 1.0000 0.6228(2)
O1_10 O 0.0000 0.0001 0.6228(2)
Zn3_7 Zn 0.5000 0.5000 0.0000
Zn6_8 Zn 0.5000 0.9999 0.0000
Zn9_8 Zn 0.0001 0.5000 0.0000
loop_
_geom_bond_atom_site_label_1
_geom_bond_atom_site_label_2
_geom_bond_site_symmetry_1
_geom_bond_site_symmetry_2
H90 C170 1_555 1_555
H91 C171 1_555 1_555
O24 C189 1_555 1_555
C189 O25 1_555 1_555
O25 Zn24 1_555 1_555
C190 C189 1_555 1_555
C191 C190 1_555 1_555
C192 C190 1_555 1_555
H101 C191 1_555 1_555
C193 C191 1_555 1_555
C194 C192 1_555 1_555
H102 C192 1_555 1_555
H103 C193 1_555 1_555
C195 C193 1_555 1_555
H104 C194 1_555 1_555
C196 C195 1_555 1_555
C197 C196 1_555 1_555
C198 C196 1_555 1_555
C199 C197 1_555 1_555
N23 Zn10 1_555 1_555
N24 Zn10 1_555 1_555
C200 C198 1_555 1_555
C201 C199 1_555 1_555
H105 C199 1_555 1_555
C202 C170 1_555 1_555
C203 C171 1_555 1_555
C204 C200 1_555 1_555
H106 C200 1_555 1_555
H107 C201 1_555 1_555
H108 C204 1_555 1_555
Zn15 O24 1_555 1_555
O29 Zn11 1_555 1_555
O31 Zn11 1_555 1_555
C194 C195 1_555 1_555
C197 N23 1_555 1_555
C198 N24 1_555 1_555
N23 C202 1_555 1_555
N24 C203 1_555 1_555
C201 C202 1_555 1_555
C203 C204 1_555 1_555
Zn1 O1 1_555 1_555
O1 Zn2 1_555 1_555
O2 Zn1 1_555 1_555
O3 C1 1_555 1_555
O4 Zn1 1_555 1_555
Zn2 O5 1_555 1_555
C1 O2 1_555 1_555
C2 O4 1_555 1_555
O5 C2 1_555 1_555
C3 C1 1_555 1_555
C4 C2 1_555 1_555
C5 C3 1_555 1_555
C6 C3 1_555 1_555
C7 C4 1_555 1_555
C8 C4 1_555 1_555
H1 C5 1_555 1_555
C9 C5 1_555 1_555
C10 C6 1_555 1_555
H2 C6 1_555 1_555
H3 C7 1_555 1_555
C11 C7 1_555 1_555
C12 C8 1_555 1_555
H4 C8 1_555 1_555
H5 C9 1_555 1_555
C13 C9 1_555 1_555
H6 C10 1_555 1_555
H7 C11 1_555 1_555
C14 C11 1_555 1_555
H8 C12 1_555 1_555
C15 C13 1_555 1_555
C16 C14 1_555 1_555
C17 C15 1_555 1_555
C18 C15 1_555 1_555
C19 C16 1_555 1_555
C20 C16 1_555 1_555
N1 C17 1_555 1_555
C21 C17 1_555 1_555
N2 C18 1_555 1_555
C22 C18 1_555 1_555
C23 C19 1_555 1_555
N3 C19 1_555 1_555
N4 C20 1_555 1_555
C24 C20 1_555 1_555
C25 N1 1_555 1_555
Zn3 N1 1_555 1_555
C26 C21 1_555 1_555
H9 C21 1_555 1_555
C27 N2 1_555 1_555
H10 C22 1_555 1_555
C28 C22 1_555 1_555
C29 C23 1_555 1_555
H11 C23 1_555 1_555
C30 N3 1_555 1_555
Zn4 N3 1_555 1_555
C31 N4 1_555 1_555
C32 C24 1_555 1_555
H12 C24 1_555 1_555
C33 C25 1_555 1_555
H13 C26 1_555 1_555
H14 C28 1_555 1_555
H15 C29 1_555 1_555
C34 C30 1_555 1_555
C35 C31 1_555 1_555
H16 C32 1_555 1_555
H17 C33 1_555 1_555
H18 C34 1_555 1_555
H19 C35 1_555 1_555
O6 C36 1_555 1_555
O7 C36 1_555 1_555
C36 C37 1_555 1_555
C37 C38 1_555 1_555
C38 H20 1_555 1_555
C39 C37 1_555 1_555
C40 C38 1_555 1_555
C41 C39 1_555 1_555
H21 C39 1_555 1_555
H22 C40 1_555 1_555
C42 C40 1_555 1_555
H23 C41 1_555 1_555
C43 C42 1_555 1_555
C44 C43 1_555 1_555
C45 C43 1_555 1_555
N5 Zn3 1_555 1_555
C46 C44 1_555 1_555
N6 Zn3 1_555 1_555
C47 C45 1_555 1_555
C48 N5 1_555 1_555
C49 C46 1_555 1_555
H24 C46 1_555 1_555
C50 C33 1_555 1_555
H25 C47 1_555 1_555
C51 C47 1_555 1_555
C52 C27 1_555 1_555
H26 C49 1_555 1_555
H27 C51 1_555 1_555
H28 C52 1_555 1_555
Zn5 O1 1_555 1_555
O10 Zn5 1_555 1_555
O11 Zn1 1_555 1_555
O12 Zn5 1_555 1_555
C69 O10 1_555 1_555
C70 O12 1_555 1_555
O13 Zn2 1_555 1_555
C71 C69 1_555 1_555
C72 C70 1_555 1_555
C73 C71 1_555 1_555
C74 C71 1_555 1_555
C75 C72 1_555 1_555
C76 C72 1_555 1_555
H37 C73 1_555 1_555
C77 C73 1_555 1_555
C78 C74 1_555 1_555
H38 C74 1_555 1_555
H39 C75 1_555 1_555
C79 C75 1_555 1_555
C80 C76 1_555 1_555
H40 C76 1_555 1_555
H41 C77 1_555 1_555
C81 C77 1_555 1_555
H42 C78 1_555 1_555
H43 C79 1_555 1_555
C82 C79 1_555 1_555
H44 C80 1_555 1_555
C83 C81 1_555 1_555
C84 C82 1_555 1_555
C85 C83 1_555 1_555
C86 C83 1_555 1_555
C87 C84 1_555 1_555
C88 C84 1_555 1_555
N9 C85 1_555 1_555
C89 C85 1_555 1_555
N10 C86 1_555 1_555
C90 C86 1_555 1_555
C91 C87 1_555 1_555
N11 C87 1_555 1_555
N12 C88 1_555 1_555
C92 C88 1_555 1_555
C93 N9 1_555 1_555
Zn6 N9 1_555 1_555
C94 C89 1_555 1_555
H45 C89 1_555 1_555
C95 N10 1_555 1_555
H46 C90 1_555 1_555
C96 C90 1_555 1_555
C97 C91 1_555 1_555
H47 C91 1_555 1_555
C98 N11 1_555 1_555
Zn7 N11 1_555 1_555
C99 N12 1_555 1_555
C100 C92 1_555 1_555
H48 C92 1_555 1_555
C101 C93 1_555 1_555
H49 C94 1_555 1_555
H50 C96 1_555 1_555
H51 C97 1_555 1_555
C102 C98 1_555 1_555
C103 C99 1_555 1_555
H52 C100 1_555 1_555
H53 C101 1_555 1_555
H54 C102 1_555 1_555
H55 C103 1_555 1_555
O14 C104 1_555 1_555
O29 C104 1_555 1_555
C104 C105 1_555 1_555
C105 C106 1_555 1_555
C106 H56 1_555 1_555
C107 C105 1_555 1_555
C108 C106 1_555 1_555
C109 C107 1_555 1_555
H57 C107 1_555 1_555
H58 C108 1_555 1_555
C110 C108 1_555 1_555
H59 C109 1_555 1_555
C111 C110 1_555 1_555
C112 C111 1_555 1_555
C113 C111 1_555 1_555
N13 Zn6 1_555 1_555
C114 C112 1_555 1_555
N14 Zn6 1_555 1_555
C115 C113 1_555 1_555
C116 N13 1_555 1_555
C117 C114 1_555 1_555
H60 C114 1_555 1_555
C118 C101 1_555 1_555
H61 C115 1_555 1_555
C119 C115 1_555 1_555
C120 C95 1_555 1_555
H62 C117 1_555 1_555
H63 C119 1_555 1_555
H64 C120 1_555 1_555
O16 C121 1_555 1_555
C121 O17 1_555 1_555
O17 Zn24 1_555 1_555
C122 C121 1_555 1_555
C123 C122 1_555 1_555
C124 C122 1_555 1_555
H65 C123 1_555 1_555
C125 C123 1_555 1_555
C126 C124 1_555 1_555
H66 C124 1_555 1_555
H67 C125 1_555 1_555
C127 C125 1_555 1_555
H68 C126 1_555 1_555
C128 C127 1_555 1_555
C129 C128 1_555 1_555
C130 C128 1_555 1_555
C131 C129 1_555 1_555
N15 Zn7 1_555 1_555
N16 Zn7 1_555 1_555
C132 C130 1_555 1_555
C133 C131 1_555 1_555
H69 C131 1_555 1_555
C134 C102 1_555 1_555
C135 C103 1_555 1_555
C136 C132 1_555 1_555
H70 C132 1_555 1_555
H71 C133 1_555 1_555
H72 C136 1_555 1_555
Zn8 O1 1_555 1_555
O18 Zn8 1_555 1_555
O19 Zn5 1_555 1_555
O20 Zn8 1_555 1_555
C137 O18 1_555 1_555
C138 O20 1_555 1_555
O21 Zn2 1_555 1_555
C139 C137 1_555 1_555
C140 C138 1_555 1_555
C141 C139 1_555 1_555
C142 C139 1_555 1_555
C143 C140 1_555 1_555
C144 C140 1_555 1_555
H73 C141 1_555 1_555
C145 C141 1_555 1_555
C146 C142 1_555 1_555
H74 C142 1_555 1_555
H75 C143 1_555 1_555
C147 C143 1_555 1_555
C148 C144 1_555 1_555
H76 C144 1_555 1_555
H77 C145 1_555 1_555
C149 C145 1_555 1_555
H78 C146 1_555 1_555
H79 C147 1_555 1_555
C150 C147 1_555 1_555
H80 C148 1_555 1_555
C151 C149 1_555 1_555
C152 C150 1_555 1_555
C153 C151 1_555 1_555
C154 C151 1_555 1_555
C155 C152 1_555 1_555
C156 C152 1_555 1_555
N17 C153 1_555 1_555
C157 C153 1_555 1_555
N18 C154 1_555 1_555
C158 C154 1_555 1_555
C159 C155 1_555 1_555
N19 C155 1_555 1_555
N20 C156 1_555 1_555
C160 C156 1_555 1_555
C161 N17 1_555 1_555
Zn9 N17 1_555 1_555
C162 C157 1_555 1_555
H81 C157 1_555 1_555
C163 N18 1_555 1_555
H82 C158 1_555 1_555
C164 C158 1_555 1_555
C165 C159 1_555 1_555
H83 C159 1_555 1_555
C166 N19 1_555 1_555
Zn10_2 N19 1_555 1_555
C167 N20 1_555 1_555
C168 C160 1_555 1_555
H84 C160 1_555 1_555
C169 C161 1_555 1_555
H85 C162 1_555 1_555
H86 C164 1_555 1_555
H87 C165 1_555 1_555
C170_2 C166 1_555 1_555
C171_2 C167 1_555 1_555
H88 C168 1_555 1_555
H89 C169 1_555 1_555
H90_2 C170_2 1_555 1_555
H91_2 C171_2 1_555 1_555
O22 C172 1_555 1_555
O23 C172 1_555 1_555
C172 C173 1_555 1_555
C173 C174 1_555 1_555
C174 H92 1_555 1_555
C175 C173 1_555 1_555
C176 C174 1_555 1_555
C177 C175 1_555 1_555
H93 C175 1_555 1_555
H94 C176 1_555 1_555
C178 C176 1_555 1_555
H95 C177 1_555 1_555
C179 C178 1_555 1_555
C180 C179 1_555 1_555
C181 C179 1_555 1_555
N21 Zn9 1_555 1_555
C182 C180 1_555 1_555
N22 Zn9 1_555 1_555
C183 C181 1_555 1_555
C184 N21 1_555 1_555
C185 C182 1_555 1_555
H96 C182 1_555 1_555
C186 C169 1_555 1_555
H97 C183 1_555 1_555
C187 C183 1_555 1_555
C188 C163 1_555 1_555
H98 C185 1_555 1_555
H99 C187 1_555 1_555
H100 C188 1_555 1_555
Zn12 O26 1_555 1_555
Zn16 O16 1_555 1_555
Zn21 O22 1_555 1_555
O3 Zn8 1_555 1_555
C10 C13 1_555 1_555
C12 C14 1_555 1_555
N2 Zn3 1_555 1_555
N4 Zn4 1_555 1_555
C25 C26 1_555 1_555
C27 C28 1_555 1_555
C29 C30 1_555 1_555
C31 C32 1_555 1_555
C41 C42 1_555 1_555
C44 N5 1_555 1_555
C45 N6 1_555 1_555
N6 C50 1_555 1_555
C48 C49 1_555 1_555
C48 C52 1_555 1_555
C50 C51 1_555 1_555
O11 C69 1_555 1_555
C70 O13 1_555 1_555
C78 C81 1_555 1_555
C80 C82 1_555 1_555
N10 Zn6 1_555 1_555
N12 Zn7 1_555 1_555
C93 C94 1_555 1_555
C95 C96 1_555 1_555
C97 C98 1_555 1_555
C99 C100 1_555 1_555
C109 C110 1_555 1_555
C112 N13 1_555 1_555
C113 N14 1_555 1_555
N14 C118 1_555 1_555
C116 C117 1_555 1_555
C116 C120 1_555 1_555
C118 C119 1_555 1_555
C126 C127 1_555 1_555
C129 N15 1_555 1_555
C130 N16 1_555 1_555
N15 C134 1_555 1_555
N16 C135 1_555 1_555
C133 C134 1_555 1_555
C135 C136 1_555 1_555
O19 C137 1_555 1_555
C138 O21 1_555 1_555
C146 C149 1_555 1_555
C148 C150 1_555 1_555
N18 Zn9 1_555 1_555
N20 Zn10_2 1_555 1_555
C161 C162 1_555 1_555
C163 C164 1_555 1_555
C165 C166 1_555 1_555
C167 C168 1_555 1_555
C177 C178 1_555 1_555
C180 N21 1_555 1_555
C181 N22 1_555 1_555
N22 C186 1_555 1_555
C184 C185 1_555 1_555
C184 C188 1_555 1_555
C186 C187 1_555 1_555
H18_2 C34_2 1_555 1_555
H19_2 C35_2 1_555 1_555
O8 C53 1_555 1_555
C53 O9 1_555 1_555
O9 Zn24 1_555 1_555
C54 C53 1_555 1_555
C55 C54 1_555 1_555
C56 C54 1_555 1_555
H29 C55 1_555 1_555
C57 C55 1_555 1_555
C58 C56 1_555 1_555
H30 C56 1_555 1_555
H31 C57 1_555 1_555
C59 C57 1_555 1_555
H32 C58 1_555 1_555
C60 C59 1_555 1_555
C61 C60 1_555 1_555
C62 C60 1_555 1_555
C63 C61 1_555 1_555
N7 Zn4_2 1_555 1_555
N8 Zn4_2 1_555 1_555
C64 C62 1_555 1_555
C65 C63 1_555 1_555
H33 C63 1_555 1_555
C66 C34_2 1_555 1_555
C67 C35_2 1_555 1_555
C68 C64 1_555 1_555
H34 C64 1_555 1_555
H35 C65 1_555 1_555
H36 C68 1_555 1_555
Zn17 O8 1_555 1_555
O32 Zn20 1_555 1_555
O33 Zn21 1_555 1_555
C58 C59 1_555 1_555
C61 N7 1_555 1_555
C62 N8 1_555 1_555
N7 C66 1_555 1_555
N8 C67 1_555 1_555
C65 C66 1_555 1_555
C67 C68 1_555 1_555
Zn12_2 O27 1_555 1_555
O34 Zn12_2 1_555 1_555
O27 Zn11 1_555 1_555
O26_2 Zn21 1_555 1_555
Zn12_3 O26_2 1_555 1_555
O36 Zn12_3 1_555 1_555
Zn15 O1_2 1_555 1_555
O1_2 Zn24 1_555 1_555
Zn16 O1_2 1_555 1_555
Zn17 O1_2 1_555 1_555
C2_2 O31 1_555 1_555
O34 C2_2 1_555 1_555
C4_2 C2_2 1_555 1_555
C7_2 C4_2 1_555 1_555
C8_2 C4_2 1_555 1_555
H3_2 C7_2 1_555 1_555
C11_2 C7_2 1_555 1_555
H7_2 C11_2 1_555 1_555
C70_2 O32 1_555 1_555
C72_2 C70_2 1_555 1_555
C75_2 C72_2 1_555 1_555
C76_2 C72_2 1_555 1_555
H39_2 C75_2 1_555 1_555
C79_2 C75_2 1_555 1_555
H43_2 C79_2 1_555 1_555
C70_2 O35 1_555 1_555
C138_2 O33 1_555 1_555
C140_2 C138_2 1_555 1_555
C143_2 C140_2 1_555 1_555
C144_2 C140_2 1_555 1_555
H75_2 C143_2 1_555 1_555
C147_2 C143_2 1_555 1_555
H79_2 C147_2 1_555 1_555
C138_2 O36 1_555 1_555
O29_2 Zn11_2 1_555 1_555
O31_2 Zn11_2 1_555 1_555
O3_2 C1_2 1_555 1_555
C1_2 O2_2 1_555 1_555
C3_2 C1_2 1_555 1_555
C5_2 C3_2 1_555 1_555
C6_2 C3_2 1_555 1_555
H1_2 C5_2 1_555 1_555
C9_2 C5_2 1_555 1_555
C10_2 C6_2 1_555 1_555
H2_2 C6_2 1_555 1_555
H5_2 C9_2 1_555 1_555
C13_2 C9_2 1_555 1_555
H6_2 C10_2 1_555 1_555
C15_2 C13_2 1_555 1_555
C17_2 C15_2 1_555 1_555
C18_2 C15_2 1_555 1_555
N1_2 C17_2 1_555 1_555
C21_2 C17_2 1_555 1_555
N2_2 C18_2 1_555 1_555
C22_2 C18_2 1_555 1_555
C25_2 N1_2 1_555 1_555
Zn3_2 N1_2 1_555 1_555
C26_2 C21_2 1_555 1_555
H9_2 C21_2 1_555 1_555
C27_2 N2_2 1_555 1_555
H10_2 C22_2 1_555 1_555
C28_2 C22_2 1_555 1_555
C33_2 C25_2 1_555 1_555
H13_2 C26_2 1_555 1_555
H14_2 C28_2 1_555 1_555
H17_2 C33_2 1_555 1_555
O6_2 C36_2 1_555 1_555
O7_2 C36_2 1_555 1_555
C36_2 C37_2 1_555 1_555
C37_2 C38_2 1_555 1_555
C38_2 H20_2 1_555 1_555
C39_2 C37_2 1_555 1_555
C40_2 C38_2 1_555 1_555
C41_2 C39_2 1_555 1_555
H21_2 C39_2 1_555 1_555
H22_2 C40_2 1_555 1_555
C42_2 C40_2 1_555 1_555
H23_2 C41_2 1_555 1_555
C43_2 C42_2 1_555 1_555
C44_2 C43_2 1_555 1_555
C45_2 C43_2 1_555 1_555
N5_2 Zn3_2 1_555 1_555
C46_2 C44_2 1_555 1_555
N6_2 Zn3_2 1_555 1_555
C47_2 C45_2 1_555 1_555
C48_2 N5_2 1_555 1_555
C49_2 C46_2 1_555 1_555
H24_2 C46_2 1_555 1_555
C50_2 C33_2 1_555 1_555
H25_2 C47_2 1_555 1_555
C51_2 C47_2 1_555 1_555
C52_2 C27_2 1_555 1_555
H26_2 C49_2 1_555 1_555
H27_2 C51_2 1_555 1_555
H28_2 C52_2 1_555 1_555
C69_2 O10_2 1_555 1_555
C71_2 C69_2 1_555 1_555
C73_2 C71_2 1_555 1_555
C74_2 C71_2 1_555 1_555
H37_2 C73_2 1_555 1_555
C77_2 C73_2 1_555 1_555
C78_2 C74_2 1_555 1_555
H38_2 C74_2 1_555 1_555
H41_2 C77_2 1_555 1_555
C81_2 C77_2 1_555 1_555
H42_2 C78_2 1_555 1_555
C83_2 C81_2 1_555 1_555
C85_2 C83_2 1_555 1_555
C86_2 C83_2 1_555 1_555
N9_2 C85_2 1_555 1_555
C89_2 C85_2 1_555 1_555
N10_2 C86_2 1_555 1_555
C90_2 C86_2 1_555 1_555
C93_2 N9_2 1_555 1_555
Zn6_2 N9_2 1_555 1_555
C94_2 C89_2 1_555 1_555
H45_2 C89_2 1_555 1_555
C95_2 N10_2 1_555 1_555
H46_2 C90_2 1_555 1_555
C96_2 C90_2 1_555 1_555
C101_2 C93_2 1_555 1_555
H49_2 C94_2 1_555 1_555
H50_2 C96_2 1_555 1_555
H53_2 C101_2 1_555 1_555
O14_2 C104_2 1_555 1_555
O29_2 C104_2 1_555 1_555
C104_2 C105_2 1_555 1_555
C105_2 C106_2 1_555 1_555
C106_2 H56_2 1_555 1_555
C107_2 C105_2 1_555 1_555
C108_2 C106_2 1_555 1_555
C109_2 C107_2 1_555 1_555
H57_2 C107_2 1_555 1_555
H58_2 C108_2 1_555 1_555
C110_2 C108_2 1_555 1_555
H59_2 C109_2 1_555 1_555
C111_2 C110_2 1_555 1_555
C112_2 C111_2 1_555 1_555
C113_2 C111_2 1_555 1_555
N13_2 Zn6_2 1_555 1_555
C114_2 C112_2 1_555 1_555
N14_2 Zn6_2 1_555 1_555
C115_2 C113_2 1_555 1_555
C116_2 N13_2 1_555 1_555
C117_2 C114_2 1_555 1_555
H60_2 C114_2 1_555 1_555
C118_2 C101_2 1_555 1_555
H61_2 C115_2 1_555 1_555
C119_2 C115_2 1_555 1_555
C120_2 C95_2 1_555 1_555
H62_2 C117_2 1_555 1_555
H63_2 C119_2 1_555 1_555
H64_2 C120_2 1_555 1_555
C137_2 O18_2 1_555 1_555
C139_2 C137_2 1_555 1_555
C141_2 C139_2 1_555 1_555
C142_2 C139_2 1_555 1_555
H73_2 C141_2 1_555 1_555
C145_2 C141_2 1_555 1_555
C146_2 C142_2 1_555 1_555
H74_2 C142_2 1_555 1_555
H77_2 C145_2 1_555 1_555
C149_2 C145_2 1_555 1_555
H78_2 C146_2 1_555 1_555
C151_2 C149_2 1_555 1_555
C153_2 C151_2 1_555 1_555
C154_2 C151_2 1_555 1_555
N17_2 C153_2 1_555 1_555
C157_2 C153_2 1_555 1_555
N18_2 C154_2 1_555 1_555
C158_2 C154_2 1_555 1_555
C161_2 N17_2 1_555 1_555
Zn9_2 N17_2 1_555 1_555
C162_2 C157_2 1_555 1_555
H81_2 C157_2 1_555 1_555
C163_2 N18_2 1_555 1_555
H82_2 C158_2 1_555 1_555
C164_2 C158_2 1_555 1_555
C169_2 C161_2 1_555 1_555
H85_2 C162_2 1_555 1_555
H86_2 C164_2 1_555 1_555
H89_2 C169_2 1_555 1_555
O22_2 C172_2 1_555 1_555
O23_2 C172_2 1_555 1_555
C172_2 C173_2 1_555 1_555
C173_2 C174_2 1_555 1_555
C174_2 H92_2 1_555 1_555
C175_2 C173_2 1_555 1_555
C176_2 C174_2 1_555 1_555
C177_2 C175_2 1_555 1_555
H93_2 C175_2 1_555 1_555
H94_2 C176_2 1_555 1_555
C178_2 C176_2 1_555 1_555
H95_2 C177_2 1_555 1_555
C179_2 C178_2 1_555 1_555
C180_2 C179_2 1_555 1_555
C181_2 C179_2 1_555 1_555
N21_2 Zn9_2 1_555 1_555
C182_2 C180_2 1_555 1_555
N22_2 Zn9_2 1_555 1_555
C183_2 C181_2 1_555 1_555
C184_2 N21_2 1_555 1_555
C185_2 C182_2 1_555 1_555
H96_2 C182_2 1_555 1_555
C186_2 C169_2 1_555 1_555
H97_2 C183_2 1_555 1_555
C187_2 C183_2 1_555 1_555
C188_2 C163_2 1_555 1_555
H98_2 C185_2 1_555 1_555
H99_2 C187_2 1_555 1_555
H100_2 C188_2 1_555 1_555
Zn12_4 O26_3 1_555 1_555
Zn21_2 O22_2 1_555 1_555
C10_2 C13_2 1_555 1_555
N2_2 Zn3_2 1_555 1_555
C25_2 C26_2 1_555 1_555
C27_2 C28_2 1_555 1_555
C41_2 C42_2 1_555 1_555
C44_2 N5_2 1_555 1_555
C45_2 N6_2 1_555 1_555
N6_2 C50_2 1_555 1_555
C48_2 C49_2 1_555 1_555
C48_2 C52_2 1_555 1_555
C50_2 C51_2 1_555 1_555
O11_2 C69_2 1_555 1_555
C78_2 C81_2 1_555 1_555
N10_2 Zn6_2 1_555 1_555
C93_2 C94_2 1_555 1_555
C95_2 C96_2 1_555 1_555
C109_2 C110_2 1_555 1_555
C112_2 N13_2 1_555 1_555
C113_2 N14_2 1_555 1_555
N14_2 C118_2 1_555 1_555
C116_2 C117_2 1_555 1_555
C116_2 C120_2 1_555 1_555
C118_2 C119_2 1_555 1_555
O19_2 C137_2 1_555 1_555
C146_2 C149_2 1_555 1_555
N18_2 Zn9_2 1_555 1_555
C161_2 C162_2 1_555 1_555
C163_2 C164_2 1_555 1_555
C177_2 C178_2 1_555 1_555
C180_2 N21_2 1_555 1_555
C181_2 N22_2 1_555 1_555
N22_2 C186_2 1_555 1_555
C184_2 C185_2 1_555 1_555
C184_2 C188_2 1_555 1_555
C186_2 C187_2 1_555 1_555
O32_2 Zn20_2 1_555 1_555
O33_2 Zn21_2 1_555 1_555
Zn12_5 O27_2 1_555 1_555
O34_2 Zn12_5 1_555 1_555
O27_2 Zn11_2 1_555 1_555
O26_4 Zn21_2 1_555 1_555
Zn12_6 O26_4 1_555 1_555
O36_2 Zn12_6 1_555 1_555
O22_3 C172_3 1_555 1_555
O23_3 C172_3 1_555 1_555
C172_3 C173_3 1_555 1_555
C173_3 C174_3 1_555 1_555
C174_3 H92_3 1_555 1_555
C175_3 C173_3 1_555 1_555
C176_3 C174_3 1_555 1_555
C177_3 C175_3 1_555 1_555
H93_3 C175_3 1_555 1_555
H94_3 C176_3 1_555 1_555
C178_3 C176_3 1_555 1_555
H95_3 C177_3 1_555 1_555
C179_3 C178_3 1_555 1_555
C180_3 C179_3 1_555 1_555
C181_3 C179_3 1_555 1_555
C182_3 C180_3 1_555 1_555
C183_3 C181_3 1_555 1_555
H96_3 C182_3 1_555 1_555
H97_3 C183_3 1_555 1_555
Zn20_3 O23_3 1_555 1_555
Zn21_3 O22_3 1_555 1_555
C177_3 C178_3 1_555 1_555
C180_3 N21_3 1_555 1_555
C27_3 N2_3 1_555 1_555
H14_3 C28_3 1_555 1_555
O6_3 C36_3 1_555 1_555
O7_3 C36_3 1_555 1_555
C36_3 C37_3 1_555 1_555
C37_3 C38_3 1_555 1_555
C38_3 H20_3 1_555 1_555
C39_3 C37_3 1_555 1_555
C40_3 C38_3 1_555 1_555
C41_3 C39_3 1_555 1_555
H21_3 C39_3 1_555 1_555
H22_3 C40_3 1_555 1_555
C42_3 C40_3 1_555 1_555
H23_3 C41_3 1_555 1_555
C43_3 C42_3 1_555 1_555
C44_3 C43_3 1_555 1_555
C45_3 C43_3 1_555 1_555
N5_3 Zn3_3 1_555 1_555
C46_3 C44_3 1_555 1_555
C47_3 C45_3 1_555 1_555
C48_3 N5_3 1_555 1_555
C49_3 C46_3 1_555 1_555
H24_3 C46_3 1_555 1_555
H25_3 C47_3 1_555 1_555
C52_3 C27_3 1_555 1_555
H26_3 C49_3 1_555 1_555
H28_3 C52_3 1_555 1_555
C95_3 N10_3 1_555 1_555
H50_3 C96_3 1_555 1_555
C120_3 C95_3 1_555 1_555
H62_3 C117_3 1_555 1_555
H64_3 C120_3 1_555 1_555
C163_3 N18_3 1_555 1_555
H86_3 C164_3 1_555 1_555
C188_3 C163_3 1_555 1_555
H98_3 C185_3 1_555 1_555
H100_3 C188_3 1_555 1_555
Zn11_3 O6_3 1_555 1_555
O26_5 Zn11_3 1_555 1_555
Zn12_7 O26_5 1_555 1_555
Zn21_3 O7_3 1_555 1_555
Zn20_3 O26_5 1_555 1_555
O29_3 Zn11_3 1_555 1_555
O31_3 Zn11_3 1_555 1_555
O33_3 Zn21_3 1_555 1_555
O34_3 Zn12_7 1_555 1_555
O35_3 Zn12_7 1_555 1_555
O36_3 Zn12_7 1_555 1_555
N2_3 Zn3_3 1_555 1_555
C27_3 C28_3 1_555 1_555
C41_3 C42_3 1_555 1_555
C44_3 N5_3 1_555 1_555
C48_3 C49_3 1_555 1_555
C48_3 C52_3 1_555 1_555
N10_3 Zn6_3 1_555 1_555
C95_3 C96_3 1_555 1_555
C116_3 C117_3 1_555 1_555
C116_3 C120_3 1_555 1_555
N18_3 Zn9_3 1_555 1_555
C163_3 C164_3 1_555 1_555
C184_3 C185_3 1_555 1_555
C184_3 C188_3 1_555 1_555
O26_5 Zn21_3 1_555 1_555
O14_3 C104_3 1_555 1_555
O29_3 C104_3 1_555 1_555
C104_3 C105_3 1_555 1_555
C105_3 C106_3 1_555 1_555
C106_3 H56_3 1_555 1_555
C107_3 C105_3 1_555 1_555
C108_3 C106_3 1_555 1_555
C109_3 C107_3 1_555 1_555
H57_3 C107_3 1_555 1_555
H58_3 C108_3 1_555 1_555
C110_3 C108_3 1_555 1_555
H59_3 C109_3 1_555 1_555
C111_3 C110_3 1_555 1_555
C112_3 C111_3 1_555 1_555
C113_3 C111_3 1_555 1_555
C114_3 C112_3 1_555 1_555
C115_3 C113_3 1_555 1_555
H60_3 C114_3 1_555 1_555
H61_3 C115_3 1_555 1_555
Zn20_3 O14_3 1_555 1_555
O32_3 Zn20_3 1_555 1_555
C109_3 C110_3 1_555 1_555
C112_3 N13_3 1_555 1_555
H71_2 C133_2 1_555 1_555
C2_3 O31_3 1_555 1_555
O34_3 C2_3 1_555 1_555
C4_3 C2_3 1_555 1_555
C7_3 C4_3 1_555 1_555
C8_3 C4_3 1_555 1_555
H3_3 C7_3 1_555 1_555
C11_3 C7_3 1_555 1_555
C12_2 C8_3 1_555 1_555
H4_2 C8_3 1_555 1_555
H7_3 C11_3 1_555 1_555
C14_2 C11_3 1_555 1_555
H8_2 C12_2 1_555 1_555
C16_2 C14_2 1_555 1_555
C19_2 C16_2 1_555 1_555
C20_2 C16_2 1_555 1_555
C23_2 C19_2 1_555 1_555
N3_2 C19_2 1_555 1_555
N4_2 C20_2 1_555 1_555
C24_2 C20_2 1_555 1_555
C29_2 C23_2 1_555 1_555
H11_2 C23_2 1_555 1_555
C30_2 N3_2 1_555 1_555
Zn4_3 N3_2 1_555 1_555
C31_2 N4_2 1_555 1_555
C32_2 C24_2 1_555 1_555
H12_2 C24_2 1_555 1_555
H15_2 C29_2 1_555 1_555
C34_3 C30_2 1_555 1_555
C35_3 C31_2 1_555 1_555
H16_2 C32_2 1_555 1_555
H18_3 C34_3 1_555 1_555
H19_3 C35_3 1_555 1_555
O33_2 C53_2 1_555 1_555
C53_2 O36_2 1_555 1_555
C54_2 C53_2 1_555 1_555
C55_2 C54_2 1_555 1_555
C56_2 C54_2 1_555 1_555
H29_2 C55_2 1_555 1_555
C57_2 C55_2 1_555 1_555
C58_2 C56_2 1_555 1_555
H30_2 C56_2 1_555 1_555
H31_2 C57_2 1_555 1_555
C59_2 C57_2 1_555 1_555
H32_2 C58_2 1_555 1_555
C60_2 C59_2 1_555 1_555
C61_2 C60_2 1_555 1_555
C62_2 C60_2 1_555 1_555
C63_2 C61_2 1_555 1_555
N7_2 Zn4_3 1_555 1_555
N8_2 Zn4_3 1_555 1_555
C64_2 C62_2 1_555 1_555
C65_2 C63_2 1_555 1_555
H33_2 C63_2 1_555 1_555
C66_2 C34_3 1_555 1_555
C67_2 C35_3 1_555 1_555
C68_2 C64_2 1_555 1_555
H34_2 C64_2 1_555 1_555
H35_2 C65_2 1_555 1_555
H36_2 C68_2 1_555 1_555
C70_3 O32_3 1_555 1_555
C72_3 C70_3 1_555 1_555
C75_3 C72_3 1_555 1_555
C76_3 C72_3 1_555 1_555
H39_3 C75_3 1_555 1_555
C79_3 C75_3 1_555 1_555
C80_2 C76_3 1_555 1_555
H40_2 C76_3 1_555 1_555
H43_3 C79_3 1_555 1_555
C82_2 C79_3 1_555 1_555
H44_2 C80_2 1_555 1_555
C84_2 C82_2 1_555 1_555
C87_2 C84_2 1_555 1_555
C88_2 C84_2 1_555 1_555
C91_2 C87_2 1_555 1_555
N11_2 C87_2 1_555 1_555
N12_2 C88_2 1_555 1_555
C92_2 C88_2 1_555 1_555
C97_2 C91_2 1_555 1_555
H47_2 C91_2 1_555 1_555
C98_2 N11_2 1_555 1_555
Zn7_2 N11_2 1_555 1_555
C99_2 N12_2 1_555 1_555
C100_2 C92_2 1_555 1_555
H48_2 C92_2 1_555 1_555
H51_2 C97_2 1_555 1_555
C102_2 C98_2 1_555 1_555
C103_2 C99_2 1_555 1_555
H52_2 C100_2 1_555 1_555
H54_2 C102_2 1_555 1_555
H55_2 C103_2 1_555 1_555
O32_2 C121_2 1_555 1_555
C121_2 O35_2 1_555 1_555
C122_2 C121_2 1_555 1_555
C123_2 C122_2 1_555 1_555
C124_2 C122_2 1_555 1_555
H65_2 C123_2 1_555 1_555
C125_2 C123_2 1_555 1_555
C126_2 C124_2 1_555 1_555
H66_2 C124_2 1_555 1_555
H67_2 C125_2 1_555 1_555
C127_2 C125_2 1_555 1_555
H68_2 C126_2 1_555 1_555
C128_2 C127_2 1_555 1_555
C129_2 C128_2 1_555 1_555
C130_2 C128_2 1_555 1_555
C131_2 C129_2 1_555 1_555
N15_2 Zn7_2 1_555 1_555
N16_2 Zn7_2 1_555 1_555
C132_2 C130_2 1_555 1_555
C134_2 C102_2 1_555 1_555
C135_2 C103_2 1_555 1_555
C136_2 C132_2 1_555 1_555
H70_2 C132_2 1_555 1_555
H72_2 C136_2 1_555 1_555
C138_3 O33_3 1_555 1_555
C140_3 C138_3 1_555 1_555
C143_3 C140_3 1_555 1_555
C144_3 C140_3 1_555 1_555
H75_3 C143_3 1_555 1_555
C147_3 C143_3 1_555 1_555
C148_2 C144_3 1_555 1_555
H76_2 C144_3 1_555 1_555
H79_3 C147_3 1_555 1_555
C150_2 C147_3 1_555 1_555
H80_2 C148_2 1_555 1_555
C152_2 C150_2 1_555 1_555
C155_2 C152_2 1_555 1_555
C156_2 C152_2 1_555 1_555
C159_2 C155_2 1_555 1_555
N19_2 C155_2 1_555 1_555
N20_2 C156_2 1_555 1_555
C160_2 C156_2 1_555 1_555
C165_2 C159_2 1_555 1_555
H83_2 C159_2 1_555 1_555
C166_2 N19_2 1_555 1_555
Zn10_3 N19_2 1_555 1_555
C167_2 N20_2 1_555 1_555
C168_2 C160_2 1_555 1_555
H84_2 C160_2 1_555 1_555
H87_2 C165_2 1_555 1_555
C170_3 C166_2 1_555 1_555
C171_3 C167_2 1_555 1_555
H88_2 C168_2 1_555 1_555
H90_3 C170_3 1_555 1_555
H91_3 C171_3 1_555 1_555
O31_2 C189_2 1_555 1_555
C189_2 O34_2 1_555 1_555
C190_2 C189_2 1_555 1_555
C191_2 C190_2 1_555 1_555
C192_2 C190_2 1_555 1_555
H101_2 C191_2 1_555 1_555
C193_2 C191_2 1_555 1_555
C194_2 C192_2 1_555 1_555
H102_2 C192_2 1_555 1_555
H103_2 C193_2 1_555 1_555
C195_2 C193_2 1_555 1_555
H104_2 C194_2 1_555 1_555
C196_2 C195_2 1_555 1_555
C197_2 C196_2 1_555 1_555
C198_2 C196_2 1_555 1_555
C199_2 C197_2 1_555 1_555
N23_2 Zn10_3 1_555 1_555
N24_2 Zn10_3 1_555 1_555
C200_2 C198_2 1_555 1_555
C202_2 C170_3 1_555 1_555
C203_2 C171_3 1_555 1_555
C204_2 C200_2 1_555 1_555
H106_2 C200_2 1_555 1_555
H108_2 C204_2 1_555 1_555
C12_2 C14_2 1_555 1_555
N4_2 Zn4_3 1_555 1_555
C29_2 C30_2 1_555 1_555
C31_2 C32_2 1_555 1_555
C58_2 C59_2 1_555 1_555
C61_2 N7_2 1_555 1_555
C62_2 N8_2 1_555 1_555
N7_2 C66_2 1_555 1_555
N8_2 C67_2 1_555 1_555
C65_2 C66_2 1_555 1_555
C67_2 C68_2 1_555 1_555
C70_3 O35_3 1_555 1_555
C80_2 C82_2 1_555 1_555
N12_2 Zn7_2 1_555 1_555
C97_2 C98_2 1_555 1_555
C99_2 C100_2 1_555 1_555
C126_2 C127_2 1_555 1_555
C129_2 N15_2 1_555 1_555
C130_2 N16_2 1_555 1_555
N15_2 C134_2 1_555 1_555
N16_2 C135_2 1_555 1_555
C135_2 C136_2 1_555 1_555
C138_3 O36_3 1_555 1_555
C148_2 C150_2 1_555 1_555
N20_2 Zn10_3 1_555 1_555
C165_2 C166_2 1_555 1_555
C167_2 C168_2 1_555 1_555
C194_2 C195_2 1_555 1_555
C197_2 N23_2 1_555 1_555
C198_2 N24_2 1_555 1_555
N23_2 C202_2 1_555 1_555
N24_2 C203_2 1_555 1_555
C203_2 C204_2 1_555 1_555
H107_2 C201_2 1_555 1_555
H80_3 C148_3 1_555 1_555
C152_3 C150_3 1_555 1_555
C155_3 C152_3 1_555 1_555
C156_3 C152_3 1_555 1_555
C159_3 C155_3 1_555 1_555
N19_3 C155_3 1_555 1_555
N20_3 C156_3 1_555 1_555
C160_3 C156_3 1_555 1_555
C165_3 C159_3 1_555 1_555
H83_3 C159_3 1_555 1_555
C166_3 N19_3 1_555 1_555
Zn10_4 N19_3 1_555 1_555
C167_3 N20_3 1_555 1_555
C168_3 C160_3 1_555 1_555
H84_3 C160_3 1_555 1_555
H87_3 C165_3 1_555 1_555
C170_4 C166_3 1_555 1_555
C171_4 C167_3 1_555 1_555
H88_3 C168_3 1_555 1_555
H90_4 C170_4 1_555 1_555
H91_4 C171_4 1_555 1_555
O24_2 C189_3 1_555 1_555
C189_3 O25_2 1_555 1_555
O25_2 Zn24_2 1_555 1_555
C190_3 C189_3 1_555 1_555
C191_3 C190_3 1_555 1_555
C192_3 C190_3 1_555 1_555
H101_3 C191_3 1_555 1_555
C193_3 C191_3 1_555 1_555
C194_3 C192_3 1_555 1_555
H102_3 C192_3 1_555 1_555
H103_3 C193_3 1_555 1_555
C195_3 C193_3 1_555 1_555
H104_3 C194_3 1_555 1_555
C196_3 C195_3 1_555 1_555
C197_3 C196_3 1_555 1_555
C198_3 C196_3 1_555 1_555
C199_3 C197_3 1_555 1_555
N23_3 Zn10_4 1_555 1_555
N24_3 Zn10_4 1_555 1_555
C200_3 C198_3 1_555 1_555
C201_3 C199_3 1_555 1_555
H105_3 C199_3 1_555 1_555
C202_3 C170_4 1_555 1_555
C203_3 C171_4 1_555 1_555
C204_3 C200_3 1_555 1_555
H106_3 C200_3 1_555 1_555
H107_3 C201_3 1_555 1_555
H108_3 C204_3 1_555 1_555
Zn15_2 O24_2 1_555 1_555
C148_3 C150_3 1_555 1_555
N20_3 Zn10_4 1_555 1_555
C165_3 C166_3 1_555 1_555
C167_3 C168_3 1_555 1_555
C194_3 C195_3 1_555 1_555
C197_3 N23_3 1_555 1_555
C198_3 N24_3 1_555 1_555
N23_3 C202_3 1_555 1_555
N24_3 C203_3 1_555 1_555
C201_3 C202_3 1_555 1_555
C203_3 C204_3 1_555 1_555
H44_3 C80_3 1_555 1_555
C84_3 C82_3 1_555 1_555
C87_3 C84_3 1_555 1_555
C88_3 C84_3 1_555 1_555
C91_3 C87_3 1_555 1_555
N11_3 C87_3 1_555 1_555
N12_3 C88_3 1_555 1_555
C92_3 C88_3 1_555 1_555
C98_3 N11_3 1_555 1_555
Zn7_3 N11_3 1_555 1_555
C99_3 N12_3 1_555 1_555
C100_3 C92_3 1_555 1_555
H48_3 C92_3 1_555 1_555
C102_3 C98_3 1_555 1_555
C103_3 C99_3 1_555 1_555
H52_3 C100_3 1_555 1_555
H54_3 C102_3 1_555 1_555
H55_3 C103_3 1_555 1_555
O16_2 C121_3 1_555 1_555
C121_3 O17_2 1_555 1_555
O17_2 Zn24_2 1_555 1_555
C122_3 C121_3 1_555 1_555
C123_3 C122_3 1_555 1_555
C124_3 C122_3 1_555 1_555
H65_3 C123_3 1_555 1_555
C125_3 C123_3 1_555 1_555
C126_3 C124_3 1_555 1_555
H66_3 C124_3 1_555 1_555
H67_3 C125_3 1_555 1_555
C127_3 C125_3 1_555 1_555
H68_3 C126_3 1_555 1_555
C128_3 C127_3 1_555 1_555
C129_3 C128_3 1_555 1_555
C130_3 C128_3 1_555 1_555
C131_3 C129_3 1_555 1_555
N15_3 Zn7_3 1_555 1_555
N16_3 Zn7_3 1_555 1_555
C132_3 C130_3 1_555 1_555
C133_3 C131_3 1_555 1_555
H69_3 C131_3 1_555 1_555
C134_3 C102_3 1_555 1_555
C135_3 C103_3 1_555 1_555
C136_3 C132_3 1_555 1_555
H70_3 C132_3 1_555 1_555
H71_3 C133_3 1_555 1_555
H72_3 C136_3 1_555 1_555
Zn16_2 O16_2 1_555 1_555
C80_3 C82_3 1_555 1_555
N12_3 Zn7_3 1_555 1_555
C99_3 C100_3 1_555 1_555
C126_3 C127_3 1_555 1_555
C129_3 N15_3 1_555 1_555
C130_3 N16_3 1_555 1_555
N15_3 C134_3 1_555 1_555
N16_3 C135_3 1_555 1_555
C133_3 C134_3 1_555 1_555
C135_3 C136_3 1_555 1_555
H15_3 C29_3 1_555 1_555
H8_3 C12_3 1_555 1_555
C16_3 C14_3 1_555 1_555
C19_3 C16_3 1_555 1_555
C20_3 C16_3 1_555 1_555
C23_3 C19_3 1_555 1_555
N3_3 C19_3 1_555 1_555
N4_3 C20_3 1_555 1_555
C24_3 C20_3 1_555 1_555
C30_3 N3_3 1_555 1_555
Zn4_4 N3_3 1_555 1_555
C31_3 N4_3 1_555 1_555
C32_3 C24_3 1_555 1_555
H12_3 C24_3 1_555 1_555
C34_4 C30_3 1_555 1_555
C35_4 C31_3 1_555 1_555
H16_3 C32_3 1_555 1_555
H18_4 C34_4 1_555 1_555
H19_4 C35_4 1_555 1_555
O8_2 C53_3 1_555 1_555
C53_3 O9_2 1_555 1_555
O9_2 Zn24_2 1_555 1_555
C54_3 C53_3 1_555 1_555
C55_3 C54_3 1_555 1_555
C56_3 C54_3 1_555 1_555
H29_3 C55_3 1_555 1_555
C57_3 C55_3 1_555 1_555
C58_3 C56_3 1_555 1_555
H30_3 C56_3 1_555 1_555
H31_3 C57_3 1_555 1_555
C59_3 C57_3 1_555 1_555
H32_3 C58_3 1_555 1_555
C60_3 C59_3 1_555 1_555
C61_3 C60_3 1_555 1_555
C62_3 C60_3 1_555 1_555
C63_3 C61_3 1_555 1_555
N7_3 Zn4_4 1_555 1_555
N8_3 Zn4_4 1_555 1_555
C64_3 C62_3 1_555 1_555
C65_3 C63_3 1_555 1_555
H33_3 C63_3 1_555 1_555
C66_3 C34_4 1_555 1_555
C67_3 C35_4 1_555 1_555
C68_3 C64_3 1_555 1_555
H34_3 C64_3 1_555 1_555
H35_3 C65_3 1_555 1_555
H36_3 C68_3 1_555 1_555
H51_3 C97_3 1_555 1_555
Zn17_2 O8_2 1_555 1_555
C12_3 C14_3 1_555 1_555
N4_3 Zn4_4 1_555 1_555
C31_3 C32_3 1_555 1_555
C58_3 C59_3 1_555 1_555
C61_3 N7_3 1_555 1_555
C62_3 N8_3 1_555 1_555
N7_3 C66_3 1_555 1_555
N8_3 C67_3 1_555 1_555
C65_3 C66_3 1_555 1_555
C67_3 C68_3 1_555 1_555
C169_3 C161_3 1_555 1_555
H85_3 C162_3 1_555 1_555
H89_3 C169_3 1_555 1_555
O22_4 C172_4 1_555 1_555
O23_4 C172_4 1_555 1_555
C172_4 C173_4 1_555 1_555
C173_4 C174_4 1_555 1_555
C174_4 H92_4 1_555 1_555
C175_4 C173_4 1_555 1_555
C176_4 C174_4 1_555 1_555
C177_4 C175_4 1_555 1_555
H93_4 C175_4 1_555 1_555
H94_4 C176_4 1_555 1_555
C178_4 C176_4 1_555 1_555
H95_4 C177_4 1_555 1_555
C179_4 C178_4 1_555 1_555
C180_4 C179_4 1_555 1_555
C181_4 C179_4 1_555 1_555
C182_4 C180_4 1_555 1_555
C183_4 C181_4 1_555 1_555
H96_4 C182_4 1_555 1_555
C186_3 C169_3 1_555 1_555
H97_4 C183_4 1_555 1_555
C187_3 C183_4 1_555 1_555
H99_3 C187_3 1_555 1_555
Zn20_4 O23_4 1_555 1_555
Zn21_4 O22_4 1_555 1_555
C161_3 C162_3 1_555 1_555
C177_4 C178_4 1_555 1_555
C180_4 N21_4 1_555 1_555
C181_4 N22_3 1_555 1_555
N22_3 C186_3 1_555 1_555
C186_3 C187_3 1_555 1_555
Zn15_2 O1_3 1_555 1_555
O1_3 Zn24_2 1_555 1_555
O2_3 Zn15_2 1_555 1_555
O3_3 C1_3 1_555 1_555
C1_3 O2_3 1_555 1_555
C3_3 C1_3 1_555 1_555
C5_3 C3_3 1_555 1_555
C6_3 C3_3 1_555 1_555
H1_3 C5_3 1_555 1_555
C9_3 C5_3 1_555 1_555
C10_3 C6_3 1_555 1_555
H2_3 C6_3 1_555 1_555
H5_3 C9_3 1_555 1_555
C13_3 C9_3 1_555 1_555
H6_3 C10_3 1_555 1_555
C15_3 C13_3 1_555 1_555
C17_3 C15_3 1_555 1_555
C18_3 C15_3 1_555 1_555
N1_3 C17_3 1_555 1_555
C21_3 C17_3 1_555 1_555
N2_4 C18_3 1_555 1_555
C22_3 C18_3 1_555 1_555
C25_3 N1_3 1_555 1_555
Zn3_4 N1_3 1_555 1_555
C26_3 C21_3 1_555 1_555
H9_3 C21_3 1_555 1_555
C27_4 N2_4 1_555 1_555
H10_3 C22_3 1_555 1_555
C28_4 C22_3 1_555 1_555
C33_3 C25_3 1_555 1_555
H13_3 C26_3 1_555 1_555
H14_4 C28_4 1_555 1_555
H17_3 C33_3 1_555 1_555
O6_4 C36_4 1_555 1_555
O7_4 C36_4 1_555 1_555
C36_4 C37_4 1_555 1_555
C37_4 C38_4 1_555 1_555
C38_4 H20_4 1_555 1_555
C39_4 C37_4 1_555 1_555
C40_4 C38_4 1_555 1_555
C41_4 C39_4 1_555 1_555
H21_4 C39_4 1_555 1_555
H22_4 C40_4 1_555 1_555
C42_4 C40_4 1_555 1_555
H23_4 C41_4 1_555 1_555
C43_4 C42_4 1_555 1_555
C44_4 C43_4 1_555 1_555
C45_4 C43_4 1_555 1_555
N5_4 Zn3_4 1_555 1_555
C46_4 C44_4 1_555 1_555
N6_3 Zn3_4 1_555 1_555
C47_4 C45_4 1_555 1_555
C48_4 N5_4 1_555 1_555
C49_4 C46_4 1_555 1_555
H24_4 C46_4 1_555 1_555
C50_3 C33_3 1_555 1_555
H25_4 C47_4 1_555 1_555
C51_3 C47_4 1_555 1_555
C52_4 C27_4 1_555 1_555
H26_4 C49_4 1_555 1_555
H27_3 C51_3 1_555 1_555
H28_4 C52_4 1_555 1_555
Zn16_2 O1_3 1_555 1_555
O10_3 Zn16_2 1_555 1_555
O11_3 Zn15_2 1_555 1_555
C69_3 O10_3 1_555 1_555
C71_3 C69_3 1_555 1_555
C73_3 C71_3 1_555 1_555
C74_3 C71_3 1_555 1_555
H37_3 C73_3 1_555 1_555
C77_3 C73_3 1_555 1_555
C78_3 C74_3 1_555 1_555
H38_3 C74_3 1_555 1_555
H41_3 C77_3 1_555 1_555
C81_3 C77_3 1_555 1_555
H42_3 C78_3 1_555 1_555
C83_3 C81_3 1_555 1_555
C85_3 C83_3 1_555 1_555
C86_3 C83_3 1_555 1_555
N9_3 C85_3 1_555 1_555
C89_3 C85_3 1_555 1_555
N10_4 C86_3 1_555 1_555
C90_3 C86_3 1_555 1_555
Zn6_4 N9_3 1_555 1_555
H45_3 C89_3 1_555 1_555
C95_4 N10_4 1_555 1_555
H46_3 C90_3 1_555 1_555
C96_4 C90_3 1_555 1_555
H50_4 C96_4 1_555 1_555
C120_4 C95_4 1_555 1_555
H62_4 C117_4 1_555 1_555
H64_4 C120_4 1_555 1_555
Zn17_2 O1_3 1_555 1_555
O18_3 Zn17_2 1_555 1_555
O19_3 Zn16_2 1_555 1_555
C137_3 O18_3 1_555 1_555
C139_3 C137_3 1_555 1_555
C141_3 C139_3 1_555 1_555
C142_3 C139_3 1_555 1_555
H73_3 C141_3 1_555 1_555
C145_3 C141_3 1_555 1_555
C146_3 C142_3 1_555 1_555
H74_3 C142_3 1_555 1_555
H77_3 C145_3 1_555 1_555
C149_3 C145_3 1_555 1_555
H78_3 C146_3 1_555 1_555
C151_3 C149_3 1_555 1_555
C153_3 C151_3 1_555 1_555
C154_3 C151_3 1_555 1_555
N17_3 C153_3 1_555 1_555
C157_3 C153_3 1_555 1_555
N18_4 C154_3 1_555 1_555
C158_3 C154_3 1_555 1_555
Zn9_4 N17_3 1_555 1_555
H81_3 C157_3 1_555 1_555
C163_4 N18_4 1_555 1_555
H82_3 C158_3 1_555 1_555
C164_4 C158_3 1_555 1_555
H86_4 C164_4 1_555 1_555
C188_4 C163_4 1_555 1_555
H98_4 C185_4 1_555 1_555
H100_4 C188_4 1_555 1_555
Zn11_4 O6_4 1_555 1_555
O26_6 Zn11_4 1_555 1_555
Zn12_8 O26_6 1_555 1_555
Zn21_4 O7_4 1_555 1_555
Zn20_4 O26_6 1_555 1_555
O29_4 Zn11_4 1_555 1_555
O31_4 Zn11_4 1_555 1_555
O33_4 Zn21_4 1_555 1_555
O34_4 Zn12_8 1_555 1_555
O35_4 Zn12_8 1_555 1_555
O36_4 Zn12_8 1_555 1_555
O3_3 Zn17_2 1_555 1_555
C10_3 C13_3 1_555 1_555
N2_4 Zn3_4 1_555 1_555
C25_3 C26_3 1_555 1_555
C27_4 C28_4 1_555 1_555
C41_4 C42_4 1_555 1_555
C44_4 N5_4 1_555 1_555
C45_4 N6_3 1_555 1_555
N6_3 C50_3 1_555 1_555
C48_4 C49_4 1_555 1_555
C48_4 C52_4 1_555 1_555
C50_3 C51_3 1_555 1_555
O11_3 C69_3 1_555 1_555
C78_3 C81_3 1_555 1_555
N10_4 Zn6_4 1_555 1_555
C95_4 C96_4 1_555 1_555
C116_4 C117_4 1_555 1_555
C116_4 C120_4 1_555 1_555
O19_3 C137_3 1_555 1_555
C146_3 C149_3 1_555 1_555
N18_4 Zn9_4 1_555 1_555
C163_4 C164_4 1_555 1_555
C184_4 C185_4 1_555 1_555
C184_4 C188_4 1_555 1_555
O26_6 Zn21_4 1_555 1_555
C101_3 C93_3 1_555 1_555
H49_3 C94_3 1_555 1_555
H53_3 C101_3 1_555 1_555
O14_4 C104_4 1_555 1_555
O29_4 C104_4 1_555 1_555
C104_4 C105_4 1_555 1_555
C105_4 C106_4 1_555 1_555
C106_4 H56_4 1_555 1_555
C107_4 C105_4 1_555 1_555
C108_4 C106_4 1_555 1_555
C109_4 C107_4 1_555 1_555
H57_4 C107_4 1_555 1_555
H58_4 C108_4 1_555 1_555
C110_4 C108_4 1_555 1_555
H59_4 C109_4 1_555 1_555
C111_4 C110_4 1_555 1_555
C112_4 C111_4 1_555 1_555
C113_4 C111_4 1_555 1_555
C114_4 C112_4 1_555 1_555
C115_4 C113_4 1_555 1_555
H60_4 C114_4 1_555 1_555
C118_3 C101_3 1_555 1_555
H61_4 C115_4 1_555 1_555
C119_3 C115_4 1_555 1_555
H63_3 C119_3 1_555 1_555
Zn20_4 O14_4 1_555 1_555
O32_4 Zn20_4 1_555 1_555
C93_3 C94_3 1_555 1_555
C109_4 C110_4 1_555 1_555
C112_4 N13_4 1_555 1_555
C113_4 N14_3 1_555 1_555
N14_3 C118_3 1_555 1_555
C118_3 C119_3 1_555 1_555
H8_4 C12_4 1_555 1_555
C16_4 C14_4 1_555 1_555
C19_4 C16_4 1_555 1_555
C20_4 C16_4 1_555 1_555
C23_4 C19_4 1_555 1_555
N3_4 C19_4 1_555 1_555
N4_4 C20_4 1_555 1_555
C24_4 C20_4 1_555 1_555
C30_4 N3_4 1_555 1_555
Zn4_5 N3_4 1_555 1_555
C31_4 N4_4 1_555 1_555
C32_4 C24_4 1_555 1_555
H12_4 C24_4 1_555 1_555
C34_5 C30_4 1_555 1_555
C35_5 C31_4 1_555 1_555
H16_4 C32_4 1_555 1_555
H18_5 C34_5 1_555 1_555
H19_5 C35_5 1_555 1_555
O33_4 C53_4 1_555 1_555
C53_4 O36_4 1_555 1_555
C54_4 C53_4 1_555 1_555
C55_4 C54_4 1_555 1_555
C56_4 C54_4 1_555 1_555
H29_4 C55_4 1_555 1_555
C57_4 C55_4 1_555 1_555
C58_4 C56_4 1_555 1_555
H30_4 C56_4 1_555 1_555
H31_4 C57_4 1_555 1_555
C59_4 C57_4 1_555 1_555
H32_4 C58_4 1_555 1_555
C60_4 C59_4 1_555 1_555
C61_4 C60_4 1_555 1_555
C62_4 C60_4 1_555 1_555
C63_4 C61_4 1_555 1_555
N7_4 Zn4_5 1_555 1_555
N8_4 Zn4_5 1_555 1_555
C64_4 C62_4 1_555 1_555
C65_4 C63_4 1_555 1_555
H33_4 C63_4 1_555 1_555
C66_4 C34_5 1_555 1_555
C67_4 C35_5 1_555 1_555
C68_4 C64_4 1_555 1_555
H34_4 C64_4 1_555 1_555
H35_4 C65_4 1_555 1_555
H36_4 C68_4 1_555 1_555
H51_4 C97_4 1_555 1_555
C12_4 C14_4 1_555 1_555
N4_4 Zn4_5 1_555 1_555
C31_4 C32_4 1_555 1_555
C58_4 C59_4 1_555 1_555
C61_4 N7_4 1_555 1_555
C62_4 N8_4 1_555 1_555
N7_4 C66_4 1_555 1_555
N8_4 C67_4 1_555 1_555
C65_4 C66_4 1_555 1_555
C67_4 C68_4 1_555 1_555
H15_4 C29_4 1_555 1_555
H44_4 C80_4 1_555 1_555
C84_4 C82_4 1_555 1_555
C87_4 C84_4 1_555 1_555
C88_4 C84_4 1_555 1_555
C91_4 C87_4 1_555 1_555
N11_4 C87_4 1_555 1_555
N12_4 C88_4 1_555 1_555
C92_4 C88_4 1_555 1_555
C98_4 N11_4 1_555 1_555
Zn7_4 N11_4 1_555 1_555
C99_4 N12_4 1_555 1_555
C100_4 C92_4 1_555 1_555
H48_4 C92_4 1_555 1_555
C102_4 C98_4 1_555 1_555
C103_4 C99_4 1_555 1_555
H52_4 C100_4 1_555 1_555
H54_4 C102_4 1_555 1_555
H55_4 C103_4 1_555 1_555
O32_4 C121_4 1_555 1_555
C121_4 O35_4 1_555 1_555
C122_4 C121_4 1_555 1_555
C123_4 C122_4 1_555 1_555
C124_4 C122_4 1_555 1_555
H65_4 C123_4 1_555 1_555
C125_4 C123_4 1_555 1_555
C126_4 C124_4 1_555 1_555
H66_4 C124_4 1_555 1_555
H67_4 C125_4 1_555 1_555
C127_4 C125_4 1_555 1_555
H68_4 C126_4 1_555 1_555
C128_4 C127_4 1_555 1_555
C129_4 C128_4 1_555 1_555
C130_4 C128_4 1_555 1_555
C131_4 C129_4 1_555 1_555
N15_4 Zn7_4 1_555 1_555
N16_4 Zn7_4 1_555 1_555
C132_4 C130_4 1_555 1_555
C133_4 C131_4 1_555 1_555
H69_4 C131_4 1_555 1_555
C134_4 C102_4 1_555 1_555
C135_4 C103_4 1_555 1_555
C136_4 C132_4 1_555 1_555
H70_4 C132_4 1_555 1_555
H71_4 C133_4 1_555 1_555
H72_4 C136_4 1_555 1_555
C80_4 C82_4 1_555 1_555
N12_4 Zn7_4 1_555 1_555
C99_4 C100_4 1_555 1_555
C126_4 C127_4 1_555 1_555
C129_4 N15_4 1_555 1_555
C130_4 N16_4 1_555 1_555
N15_4 C134_4 1_555 1_555
N16_4 C135_4 1_555 1_555
C133_4 C134_4 1_555 1_555
C135_4 C136_4 1_555 1_555
H80_4 C148_4 1_555 1_555
C152_4 C150_4 1_555 1_555
C155_4 C152_4 1_555 1_555
C156_4 C152_4 1_555 1_555
C159_4 C155_4 1_555 1_555
N19_4 C155_4 1_555 1_555
N20_4 C156_4 1_555 1_555
C160_4 C156_4 1_555 1_555
C165_4 C159_4 1_555 1_555
H83_4 C159_4 1_555 1_555
C166_4 N19_4 1_555 1_555
Zn10_5 N19_4 1_555 1_555
C167_4 N20_4 1_555 1_555
C168_4 C160_4 1_555 1_555
H84_4 C160_4 1_555 1_555
H87_4 C165_4 1_555 1_555
C170_5 C166_4 1_555 1_555
C171_5 C167_4 1_555 1_555
H88_4 C168_4 1_555 1_555
H90_5 C170_5 1_555 1_555
H91_5 C171_5 1_555 1_555
O31_4 C189_4 1_555 1_555
C189_4 O34_4 1_555 1_555
C190_4 C189_4 1_555 1_555
C191_4 C190_4 1_555 1_555
C192_4 C190_4 1_555 1_555
H101_4 C191_4 1_555 1_555
C193_4 C191_4 1_555 1_555
C194_4 C192_4 1_555 1_555
H102_4 C192_4 1_555 1_555
H103_4 C193_4 1_555 1_555
C195_4 C193_4 1_555 1_555
H104_4 C194_4 1_555 1_555
C196_4 C195_4 1_555 1_555
C197_4 C196_4 1_555 1_555
C198_4 C196_4 1_555 1_555
C199_4 C197_4 1_555 1_555
N23_4 Zn10_5 1_555 1_555
N24_4 Zn10_5 1_555 1_555
C200_4 C198_4 1_555 1_555
C201_4 C199_4 1_555 1_555
H105_4 C199_4 1_555 1_555
C202_4 C170_5 1_555 1_555
C203_4 C171_5 1_555 1_555
C204_4 C200_4 1_555 1_555
H106_4 C200_4 1_555 1_555
H107_4 C201_4 1_555 1_555
H108_4 C204_4 1_555 1_555
C148_4 C150_4 1_555 1_555
N20_4 Zn10_5 1_555 1_555
C165_4 C166_4 1_555 1_555
C167_4 C168_4 1_555 1_555
C194_4 C195_4 1_555 1_555
C197_4 N23_4 1_555 1_555
C198_4 N24_4 1_555 1_555
N23_4 C202_4 1_555 1_555
N24_4 C203_4 1_555 1_555
C201_4 C202_4 1_555 1_555
C203_4 C204_4 1_555 1_555
Zn6_5 N13_4 1_555 1_555
Zn9_5 N21_4 1_555 1_555
N14_3 Zn6_5 1_555 1_555
N22_3 Zn9_5 1_555 1_555
O18_4 Zn8_2 1_555 1_555
O20_2 Zn8_2 1_555 1_555
C137_4 O18_4 1_555 1_555
C138_4 O20_2 1_555 1_555
C139_4 C137_4 1_555 1_555
C140_4 C138_4 1_555 1_555
C141_4 C139_4 1_555 1_555
C142_4 C139_4 1_555 1_555
C143_4 C140_4 1_555 1_555
C144_4 C140_4 1_555 1_555
H73_4 C141_4 1_555 1_555
C145_4 C141_4 1_555 1_555
C146_4 C142_4 1_555 1_555
H74_4 C142_4 1_555 1_555
H75_4 C143_4 1_555 1_555
C147_4 C143_4 1_555 1_555
H77_4 C145_4 1_555 1_555
C149_4 C145_4 1_555 1_555
H78_4 C146_4 1_555 1_555
H79_4 C147_4 1_555 1_555
C151_4 C149_4 1_555 1_555
C153_4 C151_4 1_555 1_555
C154_4 C151_4 1_555 1_555
N17_4 C153_4 1_555 1_555
C157_4 C153_4 1_555 1_555
N18_5 C154_4 1_555 1_555
C158_4 C154_4 1_555 1_555
C161_4 N17_4 1_555 1_555
Zn9_6 N17_4 1_555 1_555
C162_4 C157_4 1_555 1_555
H81_4 C157_4 1_555 1_555
C163_5 N18_5 1_555 1_555
H82_4 C158_4 1_555 1_555
C164_5 C158_4 1_555 1_555
C169_4 C161_4 1_555 1_555
H85_4 C162_4 1_555 1_555
H86_5 C164_5 1_555 1_555
H89_4 C169_4 1_555 1_555
O22_5 C172_5 1_555 1_555
O23_5 C172_5 1_555 1_555
C172_5 C173_5 1_555 1_555
C173_5 C174_5 1_555 1_555
C174_5 H92_5 1_555 1_555
C175_5 C173_5 1_555 1_555
C176_5 C174_5 1_555 1_555
C177_5 C175_5 1_555 1_555
H93_5 C175_5 1_555 1_555
H94_5 C176_5 1_555 1_555
C178_5 C176_5 1_555 1_555
H95_5 C177_5 1_555 1_555
C179_5 C178_5 1_555 1_555
C180_5 C179_5 1_555 1_555
C181_5 C179_5 1_555 1_555
N21_5 Zn9_6 1_555 1_555
C182_5 C180_5 1_555 1_555
N22_4 Zn9_6 1_555 1_555
C183_5 C181_5 1_555 1_555
C184_5 N21_5 1_555 1_555
C185_5 C182_5 1_555 1_555
H96_5 C182_5 1_555 1_555
C186_4 C169_4 1_555 1_555
H97_5 C183_5 1_555 1_555
C187_4 C183_5 1_555 1_555
C188_5 C163_5 1_555 1_555
H98_5 C185_5 1_555 1_555
H99_4 C187_4 1_555 1_555
H100_5 C188_5 1_555 1_555
Zn20_5 O23_5 1_555 1_555
Zn21_5 O22_5 1_555 1_555
O19_4 C137_4 1_555 1_555
C138_4 O21_2 1_555 1_555
C146_4 C149_4 1_555 1_555
N18_5 Zn9_6 1_555 1_555
C161_4 C162_4 1_555 1_555
C163_5 C164_5 1_555 1_555
C177_5 C178_5 1_555 1_555
C180_5 N21_5 1_555 1_555
C181_5 N22_4 1_555 1_555
N22_4 C186_4 1_555 1_555
C184_5 C185_5 1_555 1_555
C184_5 C188_5 1_555 1_555
C186_4 C187_4 1_555 1_555
O12_2 Zn5_2 1_555 1_555
C70_4 O12_2 1_555 1_555
C72_4 C70_4 1_555 1_555
C75_4 C72_4 1_555 1_555
C76_4 C72_4 1_555 1_555
H39_4 C75_4 1_555 1_555
C79_4 C75_4 1_555 1_555
H43_4 C79_4 1_555 1_555
C70_4 O13_2 1_555 1_555
O1_4 Zn2_2 1_555 1_555
O3_4 C1_4 1_555 1_555
C1_4 O2_4 1_555 1_555
C3_4 C1_4 1_555 1_555
C5_4 C3_4 1_555 1_555
C6_4 C3_4 1_555 1_555
H1_4 C5_4 1_555 1_555
C9_4 C5_4 1_555 1_555
C10_4 C6_4 1_555 1_555
H2_4 C6_4 1_555 1_555
H5_4 C9_4 1_555 1_555
C13_4 C9_4 1_555 1_555
H6_4 C10_4 1_555 1_555
C15_4 C13_4 1_555 1_555
C17_4 C15_4 1_555 1_555
C18_4 C15_4 1_555 1_555
N1_4 C17_4 1_555 1_555
C21_4 C17_4 1_555 1_555
N2_5 C18_4 1_555 1_555
C22_4 C18_4 1_555 1_555
C25_4 N1_4 1_555 1_555
Zn3_5 N1_4 1_555 1_555
C26_4 C21_4 1_555 1_555
H9_4 C21_4 1_555 1_555
C27_5 N2_5 1_555 1_555
H10_4 C22_4 1_555 1_555
C28_5 C22_4 1_555 1_555
C33_4 C25_4 1_555 1_555
H13_4 C26_4 1_555 1_555
H14_5 C28_5 1_555 1_555
H17_4 C33_4 1_555 1_555
O6_5 C36_5 1_555 1_555
O7_5 C36_5 1_555 1_555
C36_5 C37_5 1_555 1_555
C37_5 C38_5 1_555 1_555
C38_5 H20_5 1_555 1_555
C39_5 C37_5 1_555 1_555
C40_5 C38_5 1_555 1_555
C41_5 C39_5 1_555 1_555
H21_5 C39_5 1_555 1_555
H22_5 C40_5 1_555 1_555
C42_5 C40_5 1_555 1_555
H23_5 C41_5 1_555 1_555
C43_5 C42_5 1_555 1_555
C44_5 C43_5 1_555 1_555
C45_5 C43_5 1_555 1_555
N5_5 Zn3_5 1_555 1_555
C46_5 C44_5 1_555 1_555
N6_4 Zn3_5 1_555 1_555
C47_5 C45_5 1_555 1_555
C48_5 N5_5 1_555 1_555
C49_5 C46_5 1_555 1_555
H24_5 C46_5 1_555 1_555
C50_4 C33_4 1_555 1_555
H25_5 C47_5 1_555 1_555
C51_4 C47_5 1_555 1_555
C52_5 C27_5 1_555 1_555
H26_5 C49_5 1_555 1_555
H27_4 C51_4 1_555 1_555
H28_5 C52_5 1_555 1_555
Zn11_5 O6_5 1_555 1_555
O26_7 Zn11_5 1_555 1_555
Zn12_9 O26_7 1_555 1_555
Zn21_5 O7_5 1_555 1_555
Zn20_5 O26_7 1_555 1_555
O29_5 Zn11_5 1_555 1_555
O31_5 Zn11_5 1_555 1_555
O33_5 Zn21_5 1_555 1_555
O34_5 Zn12_9 1_555 1_555
O35_5 Zn12_9 1_555 1_555
O36_5 Zn12_9 1_555 1_555
C10_4 C13_4 1_555 1_555
N2_5 Zn3_5 1_555 1_555
C25_4 C26_4 1_555 1_555
C27_5 C28_5 1_555 1_555
C41_5 C42_5 1_555 1_555
C44_5 N5_5 1_555 1_555
C45_5 N6_4 1_555 1_555
N6_4 C50_4 1_555 1_555
C48_5 C49_5 1_555 1_555
C48_5 C52_5 1_555 1_555
C50_4 C51_4 1_555 1_555
O26_7 Zn21_5 1_555 1_555
O4_2 Zn1_2 1_555 1_555
C2_4 O4_2 1_555 1_555
O5_2 C2_4 1_555 1_555
C4_4 C2_4 1_555 1_555
C7_4 C4_4 1_555 1_555
C8_4 C4_4 1_555 1_555
H3_4 C7_4 1_555 1_555
C11_4 C7_4 1_555 1_555
H7_4 C11_4 1_555 1_555
O11_4 Zn1_2 1_555 1_555
C69_4 O10_4 1_555 1_555
C71_4 C69_4 1_555 1_555
C73_4 C71_4 1_555 1_555
C74_4 C71_4 1_555 1_555
H37_4 C73_4 1_555 1_555
C77_4 C73_4 1_555 1_555
C78_4 C74_4 1_555 1_555
H38_4 C74_4 1_555 1_555
H41_4 C77_4 1_555 1_555
C81_4 C77_4 1_555 1_555
H42_4 C78_4 1_555 1_555
C83_4 C81_4 1_555 1_555
C85_4 C83_4 1_555 1_555
C86_4 C83_4 1_555 1_555
N9_4 C85_4 1_555 1_555
C89_4 C85_4 1_555 1_555
N10_5 C86_4 1_555 1_555
C90_4 C86_4 1_555 1_555
C93_4 N9_4 1_555 1_555
Zn6_6 N9_4 1_555 1_555
C94_4 C89_4 1_555 1_555
H45_4 C89_4 1_555 1_555
C95_5 N10_5 1_555 1_555
H46_4 C90_4 1_555 1_555
C96_5 C90_4 1_555 1_555
C101_4 C93_4 1_555 1_555
H49_4 C94_4 1_555 1_555
H50_5 C96_5 1_555 1_555
H53_4 C101_4 1_555 1_555
O14_5 C104_5 1_555 1_555
O29_5 C104_5 1_555 1_555
C104_5 C105_5 1_555 1_555
C105_5 C106_5 1_555 1_555
C106_5 H56_5 1_555 1_555
C107_5 C105_5 1_555 1_555
C108_5 C106_5 1_555 1_555
C109_5 C107_5 1_555 1_555
H57_5 C107_5 1_555 1_555
H58_5 C108_5 1_555 1_555
C110_5 C108_5 1_555 1_555
H59_5 C109_5 1_555 1_555
C111_5 C110_5 1_555 1_555
C112_5 C111_5 1_555 1_555
C113_5 C111_5 1_555 1_555
N13_5 Zn6_6 1_555 1_555
C114_5 C112_5 1_555 1_555
N14_4 Zn6_6 1_555 1_555
C115_5 C113_5 1_555 1_555
C116_5 N13_5 1_555 1_555
C117_5 C114_5 1_555 1_555
H60_5 C114_5 1_555 1_555
C118_4 C101_4 1_555 1_555
H61_5 C115_5 1_555 1_555
C119_4 C115_5 1_555 1_555
C120_5 C95_5 1_555 1_555
H62_5 C117_5 1_555 1_555
H63_4 C119_4 1_555 1_555
H64_5 C120_5 1_555 1_555
Zn20_5 O14_5 1_555 1_555
O32_5 Zn20_5 1_555 1_555
O11_4 C69_4 1_555 1_555
C78_4 C81_4 1_555 1_555
N10_5 Zn6_6 1_555 1_555
C93_4 C94_4 1_555 1_555
C95_5 C96_5 1_555 1_555
C109_5 C110_5 1_555 1_555
C112_5 N13_5 1_555 1_555
C113_5 N14_4 1_555 1_555
N14_4 C118_4 1_555 1_555
C116_5 C117_5 1_555 1_555
C116_5 C120_5 1_555 1_555
C118_4 C119_4 1_555 1_555
O1_5 Zn2_3 1_555 1_555
Zn1_2 O1_5 1_555 1_555
O5_2 Zn2_3 1_555 1_555
Zn8_2 O1_6 1_555 1_555
O1_6 Zn2_4 1_555 1_555
Zn2_4 O21_2 1_555 1_555
O26_8 Zn11_6 1_555 1_555
Zn12_10 O26_8 1_555 1_555
Zn20_6 O26_8 1_555 1_555
O31_6 Zn11_6 1_555 1_555
O33_6 Zn21_6 1_555 1_555
O34_6 Zn12_10 1_555 1_555
O35_6 Zn12_10 1_555 1_555
O36_6 Zn12_10 1_555 1_555
O26_8 Zn21_6 1_555 1_555
O32_6 Zn20_6 1_555 1_555
H18_6 C34_6 1_555 1_555
H19_6 C35_6 1_555 1_555
O33_6 C53_5 1_555 1_555
C53_5 O36_6 1_555 1_555
C54_5 C53_5 1_555 1_555
C55_5 C54_5 1_555 1_555
C56_5 C54_5 1_555 1_555
H29_5 C55_5 1_555 1_555
C57_5 C55_5 1_555 1_555
C58_5 C56_5 1_555 1_555
H30_5 C56_5 1_555 1_555
H31_5 C57_5 1_555 1_555
C59_5 C57_5 1_555 1_555
H32_5 C58_5 1_555 1_555
C60_5 C59_5 1_555 1_555
C61_5 C60_5 1_555 1_555
C62_5 C60_5 1_555 1_555
C63_5 C61_5 1_555 1_555
N7_5 Zn4_6 1_555 1_555
N8_5 Zn4_6 1_555 1_555
C64_5 C62_5 1_555 1_555
C65_5 C63_5 1_555 1_555
H33_5 C63_5 1_555 1_555
C66_5 C34_6 1_555 1_555
C67_5 C35_6 1_555 1_555
C68_5 C64_5 1_555 1_555
H34_5 C64_5 1_555 1_555
H35_5 C65_5 1_555 1_555
H36_5 C68_5 1_555 1_555
C58_5 C59_5 1_555 1_555
C61_5 N7_5 1_555 1_555
C62_5 N8_5 1_555 1_555
N7_5 C66_5 1_555 1_555
N8_5 C67_5 1_555 1_555
C65_5 C66_5 1_555 1_555
C67_5 C68_5 1_555 1_555
C2_5 O31_5 1_555 1_555
O34_5 C2_5 1_555 1_555
C4_5 C2_5 1_555 1_555
C7_5 C4_5 1_555 1_555
C8_5 C4_5 1_555 1_555
H3_5 C7_5 1_555 1_555
C11_5 C7_5 1_555 1_555
C12_5 C8_5 1_555 1_555
H4_5 C8_5 1_555 1_555
H7_5 C11_5 1_555 1_555
C14_5 C11_5 1_555 1_555
H8_5 C12_5 1_555 1_555
C16_5 C14_5 1_555 1_555
C19_5 C16_5 1_555 1_555
C20_5 C16_5 1_555 1_555
C23_5 C19_5 1_555 1_555
N3_5 C19_5 1_555 1_555
N4_5 C20_5 1_555 1_555
C24_5 C20_5 1_555 1_555
C29_5 C23_5 1_555 1_555
H11_5 C23_5 1_555 1_555
C30_5 N3_5 1_555 1_555
Zn4_7 N3_5 1_555 1_555
C31_5 N4_5 1_555 1_555
C32_5 C24_5 1_555 1_555
H12_5 C24_5 1_555 1_555
H15_5 C29_5 1_555 1_555
C34_7 C30_5 1_555 1_555
C35_7 C31_5 1_555 1_555
H16_5 C32_5 1_555 1_555
H18_7 C34_7 1_555 1_555
H19_7 C35_7 1_555 1_555
C70_5 O32_5 1_555 1_555
C72_5 C70_5 1_555 1_555
C75_5 C72_5 1_555 1_555
C76_5 C72_5 1_555 1_555
H39_5 C75_5 1_555 1_555
C79_5 C75_5 1_555 1_555
C80_5 C76_5 1_555 1_555
H40_5 C76_5 1_555 1_555
H43_5 C79_5 1_555 1_555
C82_5 C79_5 1_555 1_555
H44_5 C80_5 1_555 1_555
C84_5 C82_5 1_555 1_555
C87_5 C84_5 1_555 1_555
C88_5 C84_5 1_555 1_555
C91_5 C87_5 1_555 1_555
N11_5 C87_5 1_555 1_555
N12_5 C88_5 1_555 1_555
C92_5 C88_5 1_555 1_555
C97_5 C91_5 1_555 1_555
H47_5 C91_5 1_555 1_555
C98_5 N11_5 1_555 1_555
Zn7_5 N11_5 1_555 1_555
C99_5 N12_5 1_555 1_555
C100_5 C92_5 1_555 1_555
H48_5 C92_5 1_555 1_555
H51_5 C97_5 1_555 1_555
C102_5 C98_5 1_555 1_555
C103_5 C99_5 1_555 1_555
H52_5 C100_5 1_555 1_555
H54_5 C102_5 1_555 1_555
H55_5 C103_5 1_555 1_555
O32_6 C121_5 1_555 1_555
C121_5 O35_6 1_555 1_555
C122_5 C121_5 1_555 1_555
C123_5 C122_5 1_555 1_555
C124_5 C122_5 1_555 1_555
H65_5 C123_5 1_555 1_555
C125_5 C123_5 1_555 1_555
C126_5 C124_5 1_555 1_555
H66_5 C124_5 1_555 1_555
H67_5 C125_5 1_555 1_555
C127_5 C125_5 1_555 1_555
H68_5 C126_5 1_555 1_555
C128_5 C127_5 1_555 1_555
C129_5 C128_5 1_555 1_555
C130_5 C128_5 1_555 1_555
C131_5 C129_5 1_555 1_555
N15_5 Zn7_5 1_555 1_555
N16_5 Zn7_5 1_555 1_555
C132_5 C130_5 1_555 1_555
C133_5 C131_5 1_555 1_555
H69_5 C131_5 1_555 1_555
C134_5 C102_5 1_555 1_555
C135_5 C103_5 1_555 1_555
C136_5 C132_5 1_555 1_555
H70_5 C132_5 1_555 1_555
H71_5 C133_5 1_555 1_555
H72_5 C136_5 1_555 1_555
C138_5 O33_5 1_555 1_555
C140_5 C138_5 1_555 1_555
C143_5 C140_5 1_555 1_555
C144_5 C140_5 1_555 1_555
H75_5 C143_5 1_555 1_555
C147_5 C143_5 1_555 1_555
C148_5 C144_5 1_555 1_555
H76_5 C144_5 1_555 1_555
H79_5 C147_5 1_555 1_555
C150_5 C147_5 1_555 1_555
H80_5 C148_5 1_555 1_555
C152_5 C150_5 1_555 1_555
C155_5 C152_5 1_555 1_555
C156_5 C152_5 1_555 1_555
C159_5 C155_5 1_555 1_555
N19_5 C155_5 1_555 1_555
N20_5 C156_5 1_555 1_555
C160_5 C156_5 1_555 1_555
C165_5 C159_5 1_555 1_555
H83_5 C159_5 1_555 1_555
C166_5 N19_5 1_555 1_555
Zn10_6 N19_5 1_555 1_555
C167_5 N20_5 1_555 1_555
C168_5 C160_5 1_555 1_555
H84_5 C160_5 1_555 1_555
H87_5 C165_5 1_555 1_555
C170_6 C166_5 1_555 1_555
C171_6 C167_5 1_555 1_555
H88_5 C168_5 1_555 1_555
H90_6 C170_6 1_555 1_555
H91_6 C171_6 1_555 1_555
C12_5 C14_5 1_555 1_555
N4_5 Zn4_7 1_555 1_555
C29_5 C30_5 1_555 1_555
C31_5 C32_5 1_555 1_555
C70_5 O35_5 1_555 1_555
C80_5 C82_5 1_555 1_555
N12_5 Zn7_5 1_555 1_555
C97_5 C98_5 1_555 1_555
C99_5 C100_5 1_555 1_555
C126_5 C127_5 1_555 1_555
C129_5 N15_5 1_555 1_555
C130_5 N16_5 1_555 1_555
N15_5 C134_5 1_555 1_555
N16_5 C135_5 1_555 1_555
C133_5 C134_5 1_555 1_555
C135_5 C136_5 1_555 1_555
C138_5 O36_5 1_555 1_555
C148_5 C150_5 1_555 1_555
N20_5 Zn10_6 1_555 1_555
C165_5 C166_5 1_555 1_555
C167_5 C168_5 1_555 1_555
H90_7 C170_7 1_555 1_555
H91_7 C171_7 1_555 1_555
O31_6 C189_5 1_555 1_555
C189_5 O34_6 1_555 1_555
C190_5 C189_5 1_555 1_555
C191_5 C190_5 1_555 1_555
C192_5 C190_5 1_555 1_555
H101_5 C191_5 1_555 1_555
C193_5 C191_5 1_555 1_555
C194_5 C192_5 1_555 1_555
H102_5 C192_5 1_555 1_555
H103_5 C193_5 1_555 1_555
C195_5 C193_5 1_555 1_555
H104_5 C194_5 1_555 1_555
C196_5 C195_5 1_555 1_555
C197_5 C196_5 1_555 1_555
C198_5 C196_5 1_555 1_555
C199_5 C197_5 1_555 1_555
N23_5 Zn10_7 1_555 1_555
N24_5 Zn10_7 1_555 1_555
C200_5 C198_5 1_555 1_555
C201_5 C199_5 1_555 1_555
H105_5 C199_5 1_555 1_555
C202_5 C170_7 1_555 1_555
C203_5 C171_7 1_555 1_555
C204_5 C200_5 1_555 1_555
H106_5 C200_5 1_555 1_555
H107_5 C201_5 1_555 1_555
H108_5 C204_5 1_555 1_555
C194_5 C195_5 1_555 1_555
C197_5 N23_5 1_555 1_555
C198_5 N24_5 1_555 1_555
N23_5 C202_5 1_555 1_555
N24_5 C203_5 1_555 1_555
C201_5 C202_5 1_555 1_555
C203_5 C204_5 1_555 1_555
C169_5 C161_5 1_555 1_555
H85_5 C162_5 1_555 1_555
H89_5 C169_5 1_555 1_555
C186_5 C169_5 1_555 1_555
H99_5 C187_5 1_555 1_555
H107_6 C201_6 1_555 1_555
C161_5 C162_5 1_555 1_555
N22_5 C186_5 1_555 1_555
C186_5 C187_5 1_555 1_555
Zn1_3 O1_7 1_555 1_555
O1_7 Zn2_5 1_555 1_555
O2_5 Zn1_3 1_555 1_555
O3_5 C1_5 1_555 1_555
O4_3 Zn1_3 1_555 1_555
Zn2_5 O5_3 1_555 1_555
C1_5 O2_5 1_555 1_555
C2_6 O4_3 1_555 1_555
O5_3 C2_6 1_555 1_555
C3_5 C1_5 1_555 1_555
C4_6 C2_6 1_555 1_555
C5_5 C3_5 1_555 1_555
C6_5 C3_5 1_555 1_555
C7_6 C4_6 1_555 1_555
C8_6 C4_6 1_555 1_555
H1_5 C5_5 1_555 1_555
C9_5 C5_5 1_555 1_555
C10_5 C6_5 1_555 1_555
H2_5 C6_5 1_555 1_555
H3_6 C7_6 1_555 1_555
C11_6 C7_6 1_555 1_555
C12_6 C8_6 1_555 1_555
H4_6 C8_6 1_555 1_555
H5_5 C9_5 1_555 1_555
C13_5 C9_5 1_555 1_555
H6_5 C10_5 1_555 1_555
H7_6 C11_6 1_555 1_555
C14_6 C11_6 1_555 1_555
H8_6 C12_6 1_555 1_555
C15_5 C13_5 1_555 1_555
C16_6 C14_6 1_555 1_555
C17_5 C15_5 1_555 1_555
C18_5 C15_5 1_555 1_555
C19_6 C16_6 1_555 1_555
C20_6 C16_6 1_555 1_555
N1_5 C17_5 1_555 1_555
C21_5 C17_5 1_555 1_555
C22_5 C18_5 1_555 1_555
C23_6 C19_6 1_555 1_555
N3_6 C19_6 1_555 1_555
N4_6 C20_6 1_555 1_555
C24_6 C20_6 1_555 1_555
C25_5 N1_5 1_555 1_555
C26_5 C21_5 1_555 1_555
H9_5 C21_5 1_555 1_555
H10_5 C22_5 1_555 1_555
C29_6 C23_6 1_555 1_555
H11_6 C23_6 1_555 1_555
C30_6 N3_6 1_555 1_555
Zn4_8 N3_6 1_555 1_555
C31_6 N4_6 1_555 1_555
C32_6 C24_6 1_555 1_555
H12_6 C24_6 1_555 1_555
C33_5 C25_5 1_555 1_555
H13_5 C26_5 1_555 1_555
H15_6 C29_6 1_555 1_555
C34_8 C30_6 1_555 1_555
C35_8 C31_6 1_555 1_555
H16_6 C32_6 1_555 1_555
H17_5 C33_5 1_555 1_555
H18_8 C34_8 1_555 1_555
H19_8 C35_8 1_555 1_555
C50_5 C33_5 1_555 1_555
H27_5 C51_5 1_555 1_555
O8_3 C53_6 1_555 1_555
C53_6 O9_3 1_555 1_555
C54_6 C53_6 1_555 1_555
C55_6 C54_6 1_555 1_555
C56_6 C54_6 1_555 1_555
H29_6 C55_6 1_555 1_555
C57_6 C55_6 1_555 1_555
C58_6 C56_6 1_555 1_555
H30_6 C56_6 1_555 1_555
H31_6 C57_6 1_555 1_555
C59_6 C57_6 1_555 1_555
H32_6 C58_6 1_555 1_555
C60_6 C59_6 1_555 1_555
C61_6 C60_6 1_555 1_555
C62_6 C60_6 1_555 1_555
C63_6 C61_6 1_555 1_555
N7_6 Zn4_8 1_555 1_555
N8_6 Zn4_8 1_555 1_555
C64_6 C62_6 1_555 1_555
C65_6 C63_6 1_555 1_555
H33_6 C63_6 1_555 1_555
C66_6 C34_8 1_555 1_555
C67_6 C35_8 1_555 1_555
C68_6 C64_6 1_555 1_555
H34_6 C64_6 1_555 1_555
H35_6 C65_6 1_555 1_555
H36_6 C68_6 1_555 1_555
Zn5_3 O1_7 1_555 1_555
O10_5 Zn5_3 1_555 1_555
O11_5 Zn1_3 1_555 1_555
O12_3 Zn5_3 1_555 1_555
C69_5 O10_5 1_555 1_555
C70_6 O12_3 1_555 1_555
O13_3 Zn2_5 1_555 1_555
C71_5 C69_5 1_555 1_555
C72_6 C70_6 1_555 1_555
C73_5 C71_5 1_555 1_555
C74_5 C71_5 1_555 1_555
C75_6 C72_6 1_555 1_555
C76_6 C72_6 1_555 1_555
H37_5 C73_5 1_555 1_555
C77_5 C73_5 1_555 1_555
C78_5 C74_5 1_555 1_555
H38_5 C74_5 1_555 1_555
H39_6 C75_6 1_555 1_555
C79_6 C75_6 1_555 1_555
C80_6 C76_6 1_555 1_555
H40_6 C76_6 1_555 1_555
H41_5 C77_5 1_555 1_555
C81_5 C77_5 1_555 1_555
H42_5 C78_5 1_555 1_555
H43_6 C79_6 1_555 1_555
C82_6 C79_6 1_555 1_555
H44_6 C80_6 1_555 1_555
C83_5 C81_5 1_555 1_555
C84_6 C82_6 1_555 1_555
C85_5 C83_5 1_555 1_555
C86_5 C83_5 1_555 1_555
C87_6 C84_6 1_555 1_555
C88_6 C84_6 1_555 1_555
N9_5 C85_5 1_555 1_555
C89_5 C85_5 1_555 1_555
C90_5 C86_5 1_555 1_555
C91_6 C87_6 1_555 1_555
N11_6 C87_6 1_555 1_555
N12_6 C88_6 1_555 1_555
C92_6 C88_6 1_555 1_555
H45_5 C89_5 1_555 1_555
H46_5 C90_5 1_555 1_555
C97_6 C91_6 1_555 1_555
H47_6 C91_6 1_555 1_555
C98_6 N11_6 1_555 1_555
Zn7_6 N11_6 1_555 1_555
C99_6 N12_6 1_555 1_555
C100_6 C92_6 1_555 1_555
H48_6 C92_6 1_555 1_555
H51_6 C97_6 1_555 1_555
C102_6 C98_6 1_555 1_555
C103_6 C99_6 1_555 1_555
H52_6 C100_6 1_555 1_555
H54_6 C102_6 1_555 1_555
H55_6 C103_6 1_555 1_555
O16_3 C121_6 1_555 1_555
C121_6 O17_3 1_555 1_555
C122_6 C121_6 1_555 1_555
C123_6 C122_6 1_555 1_555
C124_6 C122_6 1_555 1_555
H65_6 C123_6 1_555 1_555
C125_6 C123_6 1_555 1_555
C126_6 C124_6 1_555 1_555
H66_6 C124_6 1_555 1_555
H67_6 C125_6 1_555 1_555
C127_6 C125_6 1_555 1_555
H68_6 C126_6 1_555 1_555
C128_6 C127_6 1_555 1_555
C129_6 C128_6 1_555 1_555
C130_6 C128_6 1_555 1_555
C131_6 C129_6 1_555 1_555
N15_6 Zn7_6 1_555 1_555
N16_6 Zn7_6 1_555 1_555
C132_6 C130_6 1_555 1_555
C134_6 C102_6 1_555 1_555
C135_6 C103_6 1_555 1_555
C136_6 C132_6 1_555 1_555
H70_6 C132_6 1_555 1_555
H72_6 C136_6 1_555 1_555
Zn8_3 O1_7 1_555 1_555
O18_5 Zn8_3 1_555 1_555
O19_5 Zn5_3 1_555 1_555
O20_3 Zn8_3 1_555 1_555
C137_5 O18_5 1_555 1_555
C138_6 O20_3 1_555 1_555
O21_3 Zn2_5 1_555 1_555
C139_5 C137_5 1_555 1_555
C140_6 C138_6 1_555 1_555
C141_5 C139_5 1_555 1_555
C142_5 C139_5 1_555 1_555
C143_6 C140_6 1_555 1_555
C144_6 C140_6 1_555 1_555
H73_5 C141_5 1_555 1_555
C145_5 C141_5 1_555 1_555
C146_5 C142_5 1_555 1_555
H74_5 C142_5 1_555 1_555
H75_6 C143_6 1_555 1_555
C147_6 C143_6 1_555 1_555
C148_6 C144_6 1_555 1_555
H76_6 C144_6 1_555 1_555
H77_5 C145_5 1_555 1_555
C149_5 C145_5 1_555 1_555
H78_5 C146_5 1_555 1_555
H79_6 C147_6 1_555 1_555
C150_6 C147_6 1_555 1_555
H80_6 C148_6 1_555 1_555
C151_5 C149_5 1_555 1_555
C152_6 C150_6 1_555 1_555
C153_5 C151_5 1_555 1_555
C154_5 C151_5 1_555 1_555
C155_6 C152_6 1_555 1_555
C156_6 C152_6 1_555 1_555
N17_5 C153_5 1_555 1_555
C157_5 C153_5 1_555 1_555
C158_5 C154_5 1_555 1_555
C159_6 C155_6 1_555 1_555
N19_6 C155_6 1_555 1_555
N20_6 C156_6 1_555 1_555
C160_6 C156_6 1_555 1_555
H81_5 C157_5 1_555 1_555
H82_5 C158_5 1_555 1_555
C165_6 C159_6 1_555 1_555
H83_6 C159_6 1_555 1_555
C166_6 N19_6 1_555 1_555
Zn10_8 N19_6 1_555 1_555
C167_6 N20_6 1_555 1_555
C168_6 C160_6 1_555 1_555
H84_6 C160_6 1_555 1_555
H87_6 C165_6 1_555 1_555
C170_8 C166_6 1_555 1_555
C171_8 C167_6 1_555 1_555
H88_6 C168_6 1_555 1_555
H90_8 C170_8 1_555 1_555
H91_8 C171_8 1_555 1_555
O24_3 C189_6 1_555 1_555
C189_6 O25_3 1_555 1_555
C190_6 C189_6 1_555 1_555
C191_6 C190_6 1_555 1_555
C192_6 C190_6 1_555 1_555
H101_6 C191_6 1_555 1_555
C193_6 C191_6 1_555 1_555
C194_6 C192_6 1_555 1_555
H102_6 C192_6 1_555 1_555
H103_6 C193_6 1_555 1_555
C195_6 C193_6 1_555 1_555
H104_6 C194_6 1_555 1_555
C196_6 C195_6 1_555 1_555
C197_6 C196_6 1_555 1_555
C198_6 C196_6 1_555 1_555
C199_6 C197_6 1_555 1_555
N23_6 Zn10_8 1_555 1_555
N24_6 Zn10_8 1_555 1_555
C200_6 C198_6 1_555 1_555
C202_6 C170_8 1_555 1_555
C203_6 C171_8 1_555 1_555
C204_6 C200_6 1_555 1_555
H106_6 C200_6 1_555 1_555
H108_6 C204_6 1_555 1_555
Zn15_3 O24_3 1_555 1_555
Zn16_3 O16_3 1_555 1_555
Zn17_3 O8_3 1_555 1_555
O3_5 Zn8_3 1_555 1_555
C10_5 C13_5 1_555 1_555
C12_6 C14_6 1_555 1_555
N4_6 Zn4_8 1_555 1_555
C25_5 C26_5 1_555 1_555
C29_6 C30_6 1_555 1_555
C31_6 C32_6 1_555 1_555
N6_5 C50_5 1_555 1_555
C50_5 C51_5 1_555 1_555
C58_6 C59_6 1_555 1_555
C61_6 N7_6 1_555 1_555
C62_6 N8_6 1_555 1_555
N7_6 C66_6 1_555 1_555
N8_6 C67_6 1_555 1_555
C65_6 C66_6 1_555 1_555
C67_6 C68_6 1_555 1_555
O11_5 C69_5 1_555 1_555
C70_6 O13_3 1_555 1_555
C78_5 C81_5 1_555 1_555
C80_6 C82_6 1_555 1_555
N12_6 Zn7_6 1_555 1_555
C97_6 C98_6 1_555 1_555
C99_6 C100_6 1_555 1_555
C126_6 C127_6 1_555 1_555
C129_6 N15_6 1_555 1_555
C130_6 N16_6 1_555 1_555
N15_6 C134_6 1_555 1_555
N16_6 C135_6 1_555 1_555
C135_6 C136_6 1_555 1_555
O19_5 C137_5 1_555 1_555
C138_6 O21_3 1_555 1_555
C146_5 C149_5 1_555 1_555
C148_6 C150_6 1_555 1_555
N20_6 Zn10_8 1_555 1_555
C165_6 C166_6 1_555 1_555
C167_6 C168_6 1_555 1_555
C194_6 C195_6 1_555 1_555
C197_6 N23_6 1_555 1_555
C198_6 N24_6 1_555 1_555
N23_6 C202_6 1_555 1_555
N24_6 C203_6 1_555 1_555
C203_6 C204_6 1_555 1_555
C101_5 C93_5 1_555 1_555
H49_5 C94_5 1_555 1_555
H53_5 C101_5 1_555 1_555
C118_5 C101_5 1_555 1_555
H63_5 C119_5 1_555 1_555
H71_6 C133_6 1_555 1_555
C93_5 C94_5 1_555 1_555
N14_5 C118_5 1_555 1_555
C118_5 C119_5 1_555 1_555
O9_3 Zn23 1_555 1_555
O25_3 Zn22 1_555 1_555
O18_6 Zn17_3 1_555 1_555
C137_6 O18_6 1_555 1_555
C139_6 C137_6 1_555 1_555
C141_6 C139_6 1_555 1_555
C142_6 C139_6 1_555 1_555
H73_6 C141_6 1_555 1_555
C145_6 C141_6 1_555 1_555
C146_6 C142_6 1_555 1_555
H74_6 C142_6 1_555 1_555
H77_6 C145_6 1_555 1_555
C149_6 C145_6 1_555 1_555
H78_6 C146_6 1_555 1_555
C151_6 C149_6 1_555 1_555
C153_6 C151_6 1_555 1_555
C154_6 C151_6 1_555 1_555
N17_6 C153_6 1_555 1_555
C157_6 C153_6 1_555 1_555
N18_6 C154_6 1_555 1_555
C158_6 C154_6 1_555 1_555
C161_6 N17_6 1_555 1_555
Zn9_7 N17_6 1_555 1_555
C162_6 C157_6 1_555 1_555
H81_6 C157_6 1_555 1_555
C163_6 N18_6 1_555 1_555
H82_6 C158_6 1_555 1_555
C164_6 C158_6 1_555 1_555
C169_6 C161_6 1_555 1_555
H85_6 C162_6 1_555 1_555
H86_6 C164_6 1_555 1_555
H89_6 C169_6 1_555 1_555
O22_6 C172_6 1_555 1_555
O23_6 C172_6 1_555 1_555
C172_6 C173_6 1_555 1_555
C173_6 C174_6 1_555 1_555
C174_6 H92_6 1_555 1_555
C175_6 C173_6 1_555 1_555
C176_6 C174_6 1_555 1_555
C177_6 C175_6 1_555 1_555
H93_6 C175_6 1_555 1_555
H94_6 C176_6 1_555 1_555
C178_6 C176_6 1_555 1_555
H95_6 C177_6 1_555 1_555
C179_6 C178_6 1_555 1_555
C180_6 C179_6 1_555 1_555
C181_6 C179_6 1_555 1_555
N21_6 Zn9_7 1_555 1_555
C182_6 C180_6 1_555 1_555
N22_6 Zn9_7 1_555 1_555
C183_6 C181_6 1_555 1_555
C184_6 N21_6 1_555 1_555
C185_6 C182_6 1_555 1_555
H96_6 C182_6 1_555 1_555
C186_6 C169_6 1_555 1_555
H97_6 C183_6 1_555 1_555
C187_6 C183_6 1_555 1_555
C188_6 C163_6 1_555 1_555
H98_6 C185_6 1_555 1_555
H99_6 C187_6 1_555 1_555
H100_6 C188_6 1_555 1_555
O19_6 C137_6 1_555 1_555
C146_6 C149_6 1_555 1_555
N18_6 Zn9_7 1_555 1_555
C161_6 C162_6 1_555 1_555
C163_6 C164_6 1_555 1_555
C177_6 C178_6 1_555 1_555
C180_6 N21_6 1_555 1_555
C181_6 N22_6 1_555 1_555
N22_6 C186_6 1_555 1_555
C184_6 C185_6 1_555 1_555
C184_6 C188_6 1_555 1_555
C186_6 C187_6 1_555 1_555
O1_8 Zn24_3 1_555 1_555
O3_6 C1_6 1_555 1_555
C1_6 O2_6 1_555 1_555
C3_6 C1_6 1_555 1_555
C5_6 C3_6 1_555 1_555
C6_6 C3_6 1_555 1_555
H1_6 C5_6 1_555 1_555
C9_6 C5_6 1_555 1_555
C10_6 C6_6 1_555 1_555
H2_6 C6_6 1_555 1_555
H5_6 C9_6 1_555 1_555
C13_6 C9_6 1_555 1_555
H6_6 C10_6 1_555 1_555
C15_6 C13_6 1_555 1_555
C17_6 C15_6 1_555 1_555
C18_6 C15_6 1_555 1_555
N1_6 C17_6 1_555 1_555
C21_6 C17_6 1_555 1_555
N2_6 C18_6 1_555 1_555
C22_6 C18_6 1_555 1_555
C25_6 N1_6 1_555 1_555
Zn3_6 N1_6 1_555 1_555
C26_6 C21_6 1_555 1_555
H9_6 C21_6 1_555 1_555
C27_6 N2_6 1_555 1_555
H10_6 C22_6 1_555 1_555
C28_6 C22_6 1_555 1_555
C33_6 C25_6 1_555 1_555
H13_6 C26_6 1_555 1_555
H14_6 C28_6 1_555 1_555
H17_6 C33_6 1_555 1_555
O6_6 C36_6 1_555 1_555
O7_6 C36_6 1_555 1_555
C36_6 C37_6 1_555 1_555
C37_6 C38_6 1_555 1_555
C38_6 H20_6 1_555 1_555
C39_6 C37_6 1_555 1_555
C40_6 C38_6 1_555 1_555
C41_6 C39_6 1_555 1_555
H21_6 C39_6 1_555 1_555
H22_6 C40_6 1_555 1_555
C42_6 C40_6 1_555 1_555
H23_6 C41_6 1_555 1_555
C43_6 C42_6 1_555 1_555
C44_6 C43_6 1_555 1_555
C45_6 C43_6 1_555 1_555
N5_6 Zn3_6 1_555 1_555
C46_6 C44_6 1_555 1_555
N6_6 Zn3_6 1_555 1_555
C47_6 C45_6 1_555 1_555
C48_6 N5_6 1_555 1_555
C49_6 C46_6 1_555 1_555
H24_6 C46_6 1_555 1_555
C50_6 C33_6 1_555 1_555
H25_6 C47_6 1_555 1_555
C51_6 C47_6 1_555 1_555
C52_6 C27_6 1_555 1_555
H26_6 C49_6 1_555 1_555
H27_6 C51_6 1_555 1_555
H28_6 C52_6 1_555 1_555
C10_6 C13_6 1_555 1_555
N2_6 Zn3_6 1_555 1_555
C25_6 C26_6 1_555 1_555
C27_6 C28_6 1_555 1_555
C41_6 C42_6 1_555 1_555
C44_6 N5_6 1_555 1_555
C45_6 N6_6 1_555 1_555
N6_6 C50_6 1_555 1_555
C48_6 C49_6 1_555 1_555
C48_6 C52_6 1_555 1_555
C50_6 C51_6 1_555 1_555
O11_6 Zn15_3 1_555 1_555
C69_6 O10_6 1_555 1_555
C71_6 C69_6 1_555 1_555
C73_6 C71_6 1_555 1_555
C74_6 C71_6 1_555 1_555
H37_6 C73_6 1_555 1_555
C77_6 C73_6 1_555 1_555
C78_6 C74_6 1_555 1_555
H38_6 C74_6 1_555 1_555
H41_6 C77_6 1_555 1_555
C81_6 C77_6 1_555 1_555
H42_6 C78_6 1_555 1_555
C83_6 C81_6 1_555 1_555
C85_6 C83_6 1_555 1_555
C86_6 C83_6 1_555 1_555
N9_6 C85_6 1_555 1_555
C89_6 C85_6 1_555 1_555
N10_6 C86_6 1_555 1_555
C90_6 C86_6 1_555 1_555
C93_6 N9_6 1_555 1_555
Zn6_7 N9_6 1_555 1_555
C94_6 C89_6 1_555 1_555
H45_6 C89_6 1_555 1_555
C95_6 N10_6 1_555 1_555
H46_6 C90_6 1_555 1_555
C96_6 C90_6 1_555 1_555
C101_6 C93_6 1_555 1_555
H49_6 C94_6 1_555 1_555
H50_6 C96_6 1_555 1_555
H53_6 C101_6 1_555 1_555
O14_6 C104_6 1_555 1_555
O29_6 C104_6 1_555 1_555
C104_6 C105_6 1_555 1_555
C105_6 C106_6 1_555 1_555
C106_6 H56_6 1_555 1_555
C107_6 C105_6 1_555 1_555
C108_6 C106_6 1_555 1_555
C109_6 C107_6 1_555 1_555
H57_6 C107_6 1_555 1_555
H58_6 C108_6 1_555 1_555
C110_6 C108_6 1_555 1_555
H59_6 C109_6 1_555 1_555
C111_6 C110_6 1_555 1_555
C112_6 C111_6 1_555 1_555
C113_6 C111_6 1_555 1_555
N13_6 Zn6_7 1_555 1_555
C114_6 C112_6 1_555 1_555
N14_6 Zn6_7 1_555 1_555
C115_6 C113_6 1_555 1_555
C116_6 N13_6 1_555 1_555
C117_6 C114_6 1_555 1_555
H60_6 C114_6 1_555 1_555
C118_6 C101_6 1_555 1_555
H61_6 C115_6 1_555 1_555
C119_6 C115_6 1_555 1_555
C120_6 C95_6 1_555 1_555
H62_6 C117_6 1_555 1_555
H63_6 C119_6 1_555 1_555
H64_6 C120_6 1_555 1_555
O11_6 C69_6 1_555 1_555
C78_6 C81_6 1_555 1_555
N10_6 Zn6_7 1_555 1_555
C93_6 C94_6 1_555 1_555
C95_6 C96_6 1_555 1_555
C109_6 C110_6 1_555 1_555
C112_6 N13_6 1_555 1_555
C113_6 N14_6 1_555 1_555
N14_6 C118_6 1_555 1_555
C116_6 C117_6 1_555 1_555
C116_6 C120_6 1_555 1_555
C118_6 C119_6 1_555 1_555
O1_9 Zn22 1_555 1_555
Zn15_3 O1_9 1_555 1_555
Zn17_3 O1_10 1_555 1_555
O1_10 Zn23 1_555 1_555
N1_5 Zn3_7 1_555 1_555
N6_5 Zn3_7 1_555 1_555
N14_5 Zn6_8 1_555 1_555
N22_5 Zn9_8 1_555 1_555

#END
