
###############################################################################
#
# This file contains modified crystal structure data generated from the
# MOF subset of the Cambridge Structural Database (CSD) v543 
# hosted by the Cambridge Crystallographic Data Centre (CCDC).
#
# This work is licensed under the Creative Commons
# Attribution-NonCommercial-ShareAlike 4.0 International License.
# To view a copy of this license, visit
# http://creativecommons.org/licenses/by-nc-sa/4.0/
# or send a letter to
# Creative Commons, PO Box 1866, Mountain View, CA 94042, USA.
#
# CIF created using the CSD Python API on 29 September 2022
# The structure has been converted into the P1 space group
# The structure has a 3D framework
# The original CSD entry OSUGUG is in the monoclinic crystal system
# The framework has been calculated to contain at least 10.0% void space
# The void calculation uses a probe of radius 1.32A, grid spacing 0.4
# The framework is charged, counterions have been retained in the structure
#
###############################################################################

data_OSUGUG
_chemical_formula_moiety         '(C96 H96 Cl8 Cu6 N32 O40 4+)n'
_symmetry_cell_setting           triclinic
_symmetry_space_group_name_H-M   'P 1'
_symmetry_Int_Tables_number      1
_space_group_name_Hall           'P 1'
loop_
_symmetry_equiv_pos_site_id
_symmetry_equiv_pos_as_xyz
1 x,y,z
_cell_length_a                   16.159(3)
_cell_length_b                   14.035(3)
_cell_length_c                   15.438(3)
_cell_angle_alpha                90
_cell_angle_beta                 109.09(3)
_cell_angle_gamma                90
_cell_volume                     3308.66
loop_
_atom_site_label
_atom_site_type_symbol
_atom_site_fract_x
_atom_site_fract_y
_atom_site_fract_z
Cu3 Cu 0.0000 0.10315(5) 0.7500
Cu1 Cu 0.0000 0.89685(5) 0.2500
N1 N 0.0387(2) 0.7996(2) 0.3503(2)
N2 N 0.0434(2) 0.6749(2) 0.4378(2)
O1 O 0.1550(3) 0.8765(3) 0.2447(3)
H1 H 0.1922 0.8340 0.2708
H2 H 0.1886 0.9103 0.2248
C1 C 0.0012(3) 0.7186(3) 0.3580(3)
C2 C 0.1095(3) 0.8079(3) 0.4296(3)
H4 H 0.1486 0.8587 0.4438
C3 C 0.1134(3) 0.7312(3) 0.4834(3)
H5 H 0.1552 0.7190 0.5401
C4 C 0.0212(3) 0.5850(3) 0.4692(3)
C5 C 0.0856(3) 0.5223(4) 0.5129(4)
H6 H 0.1438 0.5373 0.5212
H13 H 0.0483 0.3056 0.6862
C18 C 0.0650(3) 0.4366(4) 0.5449(4)
H17 H 0.1089 0.3941 0.5757
H3 H 0.0483 0.6944 0.1862
C6 C 0.0650(3) 0.5634(4) 0.0449(4)
H7 H 0.1089 0.6059 0.0757
H15 H 0.1552 0.2810 0.0401
C17 C 0.0856(3) 0.4777(4) 0.0129(4)
H16 H 0.1438 0.4627 0.0212
N5 N 0.0387(2) 0.2004(2) 0.8503(2)
N6 N 0.0434(2) 0.3251(2) 0.9378(2)
C13 C 0.0012(3) 0.2814(3) 0.8580(3)
C14 C 0.1095(3) 0.1921(3) 0.9296(3)
H14 H 0.1486 0.1413 0.9438
C15 C 0.1134(3) 0.2688(3) 0.9834(3)
C16 C 0.0212(3) 0.4150(3) 0.9692(3)
O2 O 0.1550(3) 0.1235(3) 0.7447(3)
H23 H 0.1922 0.1660 0.7708
H24 H 0.1886 0.0897 0.7248
Cu1_2 Cu 0.5000 0.39685(5) 0.2500
N1_2 N 0.5387(2) 0.2996(2) 0.3503(2)
N2_2 N 0.5434(2) 0.1749(2) 0.4378(2)
N3 N 0.4612(2) 0.5022(2) 0.1563(2)
N4 N 0.3865(3) 0.6201(2) 0.0754(3)
O1_2 O 0.6550(3) 0.3765(3) 0.2447(3)
H1_2 H 0.6922 0.3340 0.2708
H2_2 H 0.6886 0.4103 0.2248
C1_2 C 0.5012(3) 0.2186(3) 0.3580(3)
H3_2 H 0.4517 0.1944 0.3138
C2_2 C 0.6095(3) 0.3079(3) 0.4296(3)
H4_2 H 0.6486 0.3587 0.4438
C3_2 C 0.6134(3) 0.2312(3) 0.4834(3)
H5_2 H 0.6552 0.2190 0.5401
C4_2 C 0.5212(3) 0.0850(3) 0.4692(3)
C5_2 C 0.5856(3) 0.0223(4) 0.5129(4)
H6_2 H 0.6438 0.0373 0.5212
C6_2 C 0.4350(3) 0.0634(4) 0.4551(4)
H7_2 H 0.3911 0.1059 0.4243
C7 C 0.3883(3) 0.5497(3) 0.1352(3)
H8 H 0.3432 0.5367 0.1585
C8 C 0.5092(3) 0.5429(4) 0.1087(4)
H9 H 0.5648 0.5236 0.1105
C9 C 0.4638(4) 0.6155(4) 0.0585(4)
H10 H 0.4818 0.6550 0.0196
C10 C 0.3165(3) 0.6866(3) 0.0372(3)
C12 C 0.2733(3) 0.7256(4) 0.0917(3)
H12 H 0.2891 0.7093 0.1534
C23 C 0.2059(4) 0.7896(4) 0.0539(3)
H21 H 0.1759 0.8164 0.0901
O2_2 O 0.3450(3) 0.3765(3) 0.2553(3)
H23_2 H 0.3078 0.3340 0.2292
H24_2 H 0.3114 0.4103 0.2752
N9 N 0.4613(2) 0.2996(2) 0.1497(2)
N10 N 0.5388(2) 0.5022(2) 0.3437(2)
C20 C 0.9908(3) 0.9571(4) 0.8913(4)
H19 H 0.9352 0.9764 0.8895
N2_3 N 0.4566(2) 0.1749(2) 0.0622(2)
N4_2 N 0.6135(3) 0.6201(2) 0.4246(3)
C1_3 C 0.4988(3) 0.2186(3) 0.1420(3)
H3_3 H 0.5483 0.1944 0.1862
C2_3 C 0.3905(3) 0.3079(3) 0.0704(3)
H4_3 H 0.3514 0.3587 0.0562
C3_3 C 0.3866(3) 0.2312(3) 0.0166(3)
C4_3 C 0.4788(3) 0.0850(3) 0.0308(3)
C6_3 C 0.5650(3) 0.0634(4) 0.0449(4)
H7_3 H 0.6089 0.1059 0.0757
C7_2 C 0.6117(3) 0.5497(3) 0.3648(3)
H8_2 H 0.6568 0.5367 0.3415
C8_2 C 0.4908(3) 0.5429(4) 0.3913(4)
H9_2 H 0.4352 0.5236 0.3895
C9_2 C 0.5362(4) 0.6155(4) 0.4415(4)
H10_2 H 0.5182 0.6550 0.4804
C10_2 C 0.6835(3) 0.6866(3) 0.4628(3)
C11 C 0.7059(4) 0.7104(4) 0.5539(3)
H11 H 0.6759 0.6836 0.5901
C12_2 C 0.7267(3) 0.7256(4) 0.4083(3)
H12_2 H 0.7109 0.7093 0.3466
N7 N 0.9612(2) 0.9978(2) 0.6563(2)
N8 N 0.8865(3) 0.8799(2) 0.5754(3)
C19 C 0.8883(3) 0.9503(3) 0.6352(3)
H18 H 0.8432 0.9633 0.6585
C21 C 0.9638(4) 0.8845(4) 0.5585(4)
H20 H 0.9818 0.8450 0.5196
C22 C 0.8165(3) 0.8134(3) 0.5372(3)
C23_2 C 0.7941(4) 0.7896(4) 0.4461(3)
H21_2 H 0.8241 0.8164 0.4099
C24 C 0.7733(3) 0.7744(4) 0.5917(3)
H22 H 0.7891 0.7907 0.6534
C11_2 C 0.2941(4) 0.7104(4) 0.9461(3)
H11_2 H 0.3241 0.6836 0.9099
N7_2 N 0.0388(2) 0.9978(2) 0.8437(2)
N8_2 N 0.1135(3) 0.8799(2) 0.9246(3)
C19_2 C 0.1117(3) 0.9503(3) 0.8648(3)
H18_2 H 0.1568 0.9633 0.8415
C21_2 C 0.0362(4) 0.8845(4) 0.9415(4)
H20_2 H 0.0182 0.8450 0.9804
C22_2 C 0.1835(3) 0.8134(3) 0.9628(3)
C24_2 C 0.2267(3) 0.7744(4) 0.9083(3)
H22_2 H 0.2109 0.7907 0.8466
C20_2 C 0.0092(3) 0.9571(4) 0.6087(4)
H19_2 H 0.0648 0.9764 0.6105
N5_2 N 0.4613(2) 0.7004(2) 0.6497(2)
N6_2 N 0.4566(2) 0.8251(2) 0.5622(2)
C13_2 C 0.4988(3) 0.7814(3) 0.6420(3)
H13_2 H 0.5483 0.8056 0.6862
C14_2 C 0.3905(3) 0.6921(3) 0.5704(3)
H14_2 H 0.3514 0.6413 0.5562
C15_2 C 0.3866(3) 0.7688(3) 0.5166(3)
H15_2 H 0.3448 0.7810 0.4599
C16_2 C 0.4788(3) 0.9150(3) 0.5308(3)
C17_2 C 0.4144(3) 0.9777(4) 0.4871(4)
H16_2 H 0.3562 0.9627 0.4788
C18_2 C 0.5650(3) 0.9366(4) 0.5449(4)
H17_2 H 0.6089 0.8941 0.5757
Cu2 Cu 0.5000 0.60315(5) 0.7500
N5_3 N 0.5387(2) 0.7004(2) 0.8503(2)
N6_3 N 0.5434(2) 0.8251(2) 0.9378(2)
C13_3 C 0.5012(3) 0.7814(3) 0.8580(3)
H13_3 H 0.4517 0.8056 0.8138
C14_3 C 0.6095(3) 0.6921(3) 0.9296(3)
H14_3 H 0.6486 0.6413 0.9438
C15_3 C 0.6134(3) 0.7688(3) 0.9834(3)
C16_3 C 0.5212(3) 0.9150(3) 0.9692(3)
C18_3 C 0.4350(3) 0.9366(4) 0.9551(4)
H17_3 H 0.3911 0.8941 0.9243
C8_3 C 0.0092(3) 0.0429(4) 0.1087(4)
H9_3 H 0.0648 0.0236 0.1105
N10_2 N 0.0388(2) 0.0022(2) 0.3437(2)
C11_3 C 0.7941(4) 0.2104(4) 0.9461(3)
H11_3 H 0.8241 0.1836 0.9099
N7_3 N 0.5388(2) 0.4978(2) 0.8437(2)
N8_3 N 0.6135(3) 0.3799(2) 0.9246(3)
C19_3 C 0.6117(3) 0.4503(3) 0.8648(3)
H18_3 H 0.6568 0.4633 0.8415
C20_3 C 0.4908(3) 0.4571(4) 0.8913(4)
H19_3 H 0.4352 0.4764 0.8895
C21_3 C 0.5362(4) 0.3845(4) 0.9415(4)
H20_3 H 0.5182 0.3450 0.9804
C22_3 C 0.6835(3) 0.3134(3) 0.9628(3)
C24_3 C 0.7267(3) 0.2744(4) 0.9083(3)
H22_3 H 0.7109 0.2907 0.8466
N4_3 N 0.1135(3) 0.1201(2) 0.4246(3)
C7_3 C 0.1117(3) 0.0497(3) 0.3648(3)
H8_3 H 0.1568 0.0367 0.3415
C9_3 C 0.0362(4) 0.1155(4) 0.4415(4)
H10_3 H 0.0182 0.1550 0.4804
C10_3 C 0.1835(3) 0.1866(3) 0.4628(3)
C11_4 C 0.2059(4) 0.2104(4) 0.5539(3)
H11_4 H 0.1759 0.1836 0.5901
C12_3 C 0.2267(3) 0.2256(4) 0.4083(3)
H12_3 H 0.2109 0.2093 0.3466
N7_4 N 0.4612(2) 0.4978(2) 0.6563(2)
N8_4 N 0.3865(3) 0.3799(2) 0.5754(3)
C19_4 C 0.3883(3) 0.4503(3) 0.6352(3)
H18_4 H 0.3432 0.4633 0.6585
C20_4 C 0.5092(3) 0.4571(4) 0.6087(4)
H19_4 H 0.5648 0.4764 0.6105
C21_4 C 0.4638(4) 0.3845(4) 0.5585(4)
H20_4 H 0.4818 0.3450 0.5196
C22_4 C 0.3165(3) 0.3134(3) 0.5372(3)
C23_3 C 0.2941(4) 0.2896(4) 0.4461(3)
H21_3 H 0.3241 0.3164 0.4099
C24_4 C 0.2733(3) 0.2744(4) 0.5917(3)
H22_4 H 0.2891 0.2907 0.6534
O1_3 O 0.3450(3) 0.6235(3) 0.7553(3)
H1_3 H 0.3078 0.6660 0.7292
H2_3 H 0.3114 0.5897 0.7752
O2_3 O 0.6550(3) 0.6235(3) 0.7447(3)
H23_3 H 0.6922 0.6660 0.7708
H24_3 H 0.6886 0.5897 0.7248
Cu3_2 Cu 1.0000 0.10315(5) 0.7500
Cu1_3 Cu 1.0000 0.89685(5) 0.2500
H3_4 H 0.9517 0.6944 0.3138
C6_4 C 0.9350(3) 0.5634(4) 0.4551(4)
H7_4 H 0.8911 0.6059 0.4243
N5_4 N 0.9613(2) 0.2004(2) 0.6497(2)
N6_4 N 0.9566(2) 0.3251(2) 0.5622(2)
C13_4 C 0.9988(3) 0.2814(3) 0.6420(3)
C14_4 C 0.8905(3) 0.1921(3) 0.5704(3)
H14_4 H 0.8514 0.1413 0.5562
C15_4 C 0.8866(3) 0.2688(3) 0.5166(3)
H15_3 H 0.8448 0.2810 0.4599
C16_4 C 0.9788(3) 0.4150(3) 0.5308(3)
C17_3 C 0.9144(3) 0.4777(4) 0.4871(4)
H16_3 H 0.8562 0.4627 0.4788
O2_4 O 0.8450(3) 0.8765(3) 0.2553(3)
H23_4 H 0.8078 0.8340 0.2292
H24_4 H 0.8114 0.9103 0.2752
N9_2 N 0.9613(2) 0.7996(2) 0.1497(2)
N2_4 N 0.9566(2) 0.6749(2) 0.0622(2)
C1_4 C 0.9988(3) 0.7186(3) 0.1420(3)
C2_4 C 0.8905(3) 0.8079(3) 0.0704(3)
H4_4 H 0.8514 0.8587 0.0562
C3_4 C 0.8866(3) 0.7312(3) 0.0166(3)
C4_4 C 0.9788(3) 0.5850(3) 0.0308(3)
H5_3 H 0.8448 0.7190 0.9599
C5_3 C 0.9144(3) 0.5223(4) 0.9871(4)
H6_3 H 0.8562 0.5373 0.9788
H13_4 H 0.9517 0.3056 0.8138
C18_4 C 0.9350(3) 0.4366(4) 0.9551(4)
H17_4 H 0.8911 0.3941 0.9243
O1_4 O 0.8450(3) 0.1235(3) 0.7553(3)
H1_4 H 0.8078 0.1660 0.7292
H2_4 H 0.8114 0.0897 0.7752
H5_4 H 0.3448 0.2190 0.9599
C5_4 C 0.4144(3) 0.0223(4) 0.9871(4)
H6_4 H 0.3562 0.0373 0.9788
H15_4 H 0.6552 0.7810 0.0401
C17_4 C 0.5856(3) 0.9777(4) 0.0129(4)
H16_4 H 0.6438 0.9627 0.0212
N3_2 N 0.9612(2) 0.0022(2) 0.1563(2)
N4_4 N 0.8865(3) 0.1201(2) 0.0754(3)
C7_4 C 0.8883(3) 0.0497(3) 0.1352(3)
H8_4 H 0.8432 0.0367 0.1585
C9_4 C 0.9638(4) 0.1155(4) 0.0585(4)
H10_4 H 0.9818 0.1550 0.0196
C10_4 C 0.8165(3) 0.1866(3) 0.0372(3)
C12_4 C 0.7733(3) 0.2256(4) 0.0917(3)
H12_4 H 0.7891 0.2093 0.1534
C23_4 C 0.7059(4) 0.2896(4) 0.0539(3)
H21_4 H 0.6759 0.3164 0.0901
C8_4 C 0.9908(3) 0.0429(4) 0.3913(4)
H9_4 H 0.9352 0.0236 0.3895
Cl1 Cl 0.27719(10) 0.08993(11) 0.18178(10)
O3 O 0.3670(3) 0.0876(4) 0.1968(4)
O4 O 0.2585(4) 0.0416(4) 0.2521(4)
O5 O 0.2554(6) 0.1893(4) 0.1892(5)
O6 O 0.2295(4) 0.0535(4) 0.0945(3)
Cl1_2 Cl 0.72281(10) 0.08993(11) 0.31822(10)
O3_2 O 0.6330(3) 0.0876(4) 0.3032(4)
O4_2 O 0.7415(4) 0.0416(4) 0.2479(4)
O5_2 O 0.7446(6) 0.1893(4) 0.3108(5)
O6_2 O 0.7705(4) 0.0535(4) 0.4055(3)
Cl1_3 Cl 0.77719(10) 0.58993(11) 0.18178(10)
O3_3 O 0.8670(3) 0.5876(4) 0.1968(4)
O4_3 O 0.7585(4) 0.5416(4) 0.2521(4)
O5_3 O 0.7554(6) 0.6893(4) 0.1892(5)
O6_3 O 0.7295(4) 0.5535(4) 0.0945(3)
Cl1_4 Cl 0.22281(10) 0.58993(11) 0.31822(10)
O3_4 O 0.1330(3) 0.5876(4) 0.3032(4)
O4_4 O 0.2415(4) 0.5416(4) 0.2479(4)
O5_4 O 0.2446(6) 0.6893(4) 0.3108(5)
O6_4 O 0.2705(4) 0.5535(4) 0.4055(3)
Cl1_5 Cl 0.72281(10) 0.91007(11) 0.81822(10)
O3_5 O 0.6330(3) 0.9124(4) 0.8032(4)
O4_5 O 0.7415(4) 0.9584(4) 0.7479(4)
O5_5 O 0.7446(6) 0.8107(4) 0.8108(5)
O6_5 O 0.7705(4) 0.9465(4) 0.9055(3)
Cl1_6 Cl 0.27719(10) 0.91007(11) 0.68178(10)
O3_6 O 0.3670(3) 0.9124(4) 0.6968(4)
O4_6 O 0.2585(4) 0.9584(4) 0.7521(4)
O5_6 O 0.2554(6) 0.8107(4) 0.6892(5)
O6_6 O 0.2295(4) 0.9465(4) 0.5945(3)
Cl1_7 Cl 0.22281(10) 0.41007(11) 0.81822(10)
O3_7 O 0.1330(3) 0.4124(4) 0.8032(4)
O4_7 O 0.2415(4) 0.4584(4) 0.7479(4)
O5_7 O 0.2446(6) 0.3107(4) 0.8108(5)
O6_7 O 0.2705(4) 0.4465(4) 0.9055(3)
Cl1_8 Cl 0.77719(10) 0.41007(11) 0.68178(10)
O3_8 O 0.8670(3) 0.4124(4) 0.6968(4)
O4_8 O 0.7585(4) 0.4584(4) 0.7521(4)
O5_8 O 0.7554(6) 0.3107(4) 0.6892(5)
O6_8 O 0.7295(4) 0.4465(4) 0.5945(3)
loop_
_geom_bond_atom_site_label_1
_geom_bond_atom_site_label_2
_geom_bond_site_symmetry_1
_geom_bond_site_symmetry_2
Cu1 N1 1_555 1_555
N1 C1 1_555 1_555
N2 C1 1_555 1_555
O1 Cu1 1_555 1_555
H1 O1 1_555 1_555
H2 O1 1_555 1_555
C2 N1 1_555 1_555
H4 C2 1_555 1_555
C3 N2 1_555 1_555
H5 C3 1_555 1_555
C4 N2 1_555 1_555
C5 C4 1_555 1_555
H6 C5 1_555 1_555
C18 C5 1_555 1_555
H17 C18 1_555 1_555
C2 C3 1_555 1_555
H7 C6 1_555 1_555
C17 C6 1_555 1_555
H16 C17 1_555 1_555
N5 C13 1_555 1_555
N6 C13 1_555 1_555
C14 N5 1_555 1_555
H14 C14 1_555 1_555
C15 N6 1_555 1_555
C16 N6 1_555 1_555
Cu3 N5 1_555 1_555
C14 C15 1_555 1_555
O2 Cu3 1_555 1_555
H23 O2 1_555 1_555
H24 O2 1_555 1_555
Cu1_2 N1_2 1_555 1_555
N1_2 C1_2 1_555 1_555
N2_2 C1_2 1_555 1_555
N3 Cu1_2 1_555 1_555
N4 C7 1_555 1_555
O1_2 Cu1_2 1_555 1_555
H1_2 O1_2 1_555 1_555
H2_2 O1_2 1_555 1_555
C1_2 H3_2 1_555 1_555
C2_2 N1_2 1_555 1_555
H4_2 C2_2 1_555 1_555
C3_2 N2_2 1_555 1_555
H5_2 C3_2 1_555 1_555
C4_2 N2_2 1_555 1_555
C5_2 C4_2 1_555 1_555
H6_2 C5_2 1_555 1_555
C6_2 C4_2 1_555 1_555
H7_2 C6_2 1_555 1_555
C7 N3 1_555 1_555
H8 C7 1_555 1_555
C8 N3 1_555 1_555
H9 C8 1_555 1_555
C9 N4 1_555 1_555
H10 C9 1_555 1_555
C10 N4 1_555 1_555
C12 C10 1_555 1_555
H12 C12 1_555 1_555
C23 C12 1_555 1_555
H21 C23 1_555 1_555
O2_2 Cu1_2 1_555 1_555
H23_2 O2_2 1_555 1_555
H24_2 O2_2 1_555 1_555
N9 Cu1_2 1_555 1_555
N10 Cu1_2 1_555 1_555
C2_2 C3_2 1_555 1_555
C8 C9 1_555 1_555
H19 C20 1_555 1_555
N9 C1_3 1_555 1_555
N2_3 C1_3 1_555 1_555
N4_2 C7_2 1_555 1_555
C1_3 H3_3 1_555 1_555
C2_3 N9 1_555 1_555
H4_3 C2_3 1_555 1_555
C3_3 N2_3 1_555 1_555
C4_3 N2_3 1_555 1_555
C6_3 C4_3 1_555 1_555
H7_3 C6_3 1_555 1_555
C7_2 N10 1_555 1_555
H8_2 C7_2 1_555 1_555
C8_2 N10 1_555 1_555
H9_2 C8_2 1_555 1_555
C9_2 N4_2 1_555 1_555
H10_2 C9_2 1_555 1_555
C10_2 N4_2 1_555 1_555
C11 C10_2 1_555 1_555
H11 C11 1_555 1_555
C12_2 C10_2 1_555 1_555
H12_2 C12_2 1_555 1_555
N7 C19 1_555 1_555
N8 C19 1_555 1_555
C19 H18 1_555 1_555
C21 N8 1_555 1_555
H20 C21 1_555 1_555
C22 N8 1_555 1_555
C23_2 C12_2 1_555 1_555
H21_2 C23_2 1_555 1_555
C24 C11 1_555 1_555
H22 C24 1_555 1_555
C2_3 C3_3 1_555 1_555
C8_2 C9_2 1_555 1_555
C22 C23_2 1_555 1_555
C22 C24 1_555 1_555
H11_2 C11_2 1_555 1_555
N7_2 C19_2 1_555 1_555
N8_2 C19_2 1_555 1_555
C19_2 H18_2 1_555 1_555
C21_2 N8_2 1_555 1_555
H20_2 C21_2 1_555 1_555
C22_2 N8_2 1_555 1_555
C24_2 C11_2 1_555 1_555
H22_2 C24_2 1_555 1_555
C22_2 C24_2 1_555 1_555
H19_2 C20_2 1_555 1_555
N5_2 C13_2 1_555 1_555
N6_2 C13_2 1_555 1_555
C13_2 H13_2 1_555 1_555
C14_2 N5_2 1_555 1_555
H14_2 C14_2 1_555 1_555
C15_2 N6_2 1_555 1_555
H15_2 C15_2 1_555 1_555
C16_2 N6_2 1_555 1_555
H16_2 C17_2 1_555 1_555
H17_2 C18_2 1_555 1_555
Cu2 N5_2 1_555 1_555
C14_2 C15_2 1_555 1_555
C16_2 C17_2 1_555 1_555
C16_2 C18_2 1_555 1_555
N5_3 C13_3 1_555 1_555
N6_3 C13_3 1_555 1_555
C13_3 H13_3 1_555 1_555
C14_3 N5_3 1_555 1_555
H14_3 C14_3 1_555 1_555
C15_3 N6_3 1_555 1_555
C16_3 N6_3 1_555 1_555
H17_3 C18_3 1_555 1_555
Cu2 N5_3 1_555 1_555
C14_3 C15_3 1_555 1_555
C16_3 C18_3 1_555 1_555
H9_3 C8_3 1_555 1_555
H11_3 C11_3 1_555 1_555
N7_3 C19_3 1_555 1_555
N8_3 C19_3 1_555 1_555
C19_3 H18_3 1_555 1_555
C20_3 N7_3 1_555 1_555
H19_3 C20_3 1_555 1_555
C21_3 N8_3 1_555 1_555
H20_3 C21_3 1_555 1_555
C22_3 N8_3 1_555 1_555
C24_3 C11_3 1_555 1_555
H22_3 C24_3 1_555 1_555
Cu2 N7_3 1_555 1_555
C20_3 C21_3 1_555 1_555
C22_3 C24_3 1_555 1_555
N4_3 C7_3 1_555 1_555
C7_3 N10_2 1_555 1_555
H8_3 C7_3 1_555 1_555
C9_3 N4_3 1_555 1_555
H10_3 C9_3 1_555 1_555
C10_3 N4_3 1_555 1_555
C11_4 C10_3 1_555 1_555
H11_4 C11_4 1_555 1_555
C12_3 C10_3 1_555 1_555
H12_3 C12_3 1_555 1_555
N7_4 C19_4 1_555 1_555
N8_4 C19_4 1_555 1_555
C19_4 H18_4 1_555 1_555
C20_4 N7_4 1_555 1_555
H19_4 C20_4 1_555 1_555
C21_4 N8_4 1_555 1_555
H20_4 C21_4 1_555 1_555
C22_4 N8_4 1_555 1_555
C23_3 C12_3 1_555 1_555
H21_3 C23_3 1_555 1_555
C24_4 C11_4 1_555 1_555
H22_4 C24_4 1_555 1_555
Cu2 N7_4 1_555 1_555
C20_4 C21_4 1_555 1_555
C22_4 C23_3 1_555 1_555
C22_4 C24_4 1_555 1_555
O1_3 Cu2 1_555 1_555
H1_3 O1_3 1_555 1_555
H2_3 O1_3 1_555 1_555
O2_3 Cu2 1_555 1_555
H23_3 O2_3 1_555 1_555
H24_3 O2_3 1_555 1_555
H7_4 C6_4 1_555 1_555
N5_4 C13_4 1_555 1_555
N6_4 C13_4 1_555 1_555
C14_4 N5_4 1_555 1_555
H14_4 C14_4 1_555 1_555
C15_4 N6_4 1_555 1_555
H15_3 C15_4 1_555 1_555
C16_4 N6_4 1_555 1_555
C17_3 C6_4 1_555 1_555
H16_3 C17_3 1_555 1_555
O2_4 Cu1_3 1_555 1_555
H23_4 O2_4 1_555 1_555
H24_4 O2_4 1_555 1_555
Cu3_2 N5_4 1_555 1_555
N9_2 Cu1_3 1_555 1_555
C14_4 C15_4 1_555 1_555
C16_4 C17_3 1_555 1_555
N9_2 C1_4 1_555 1_555
N2_4 C1_4 1_555 1_555
C2_4 N9_2 1_555 1_555
H4_4 C2_4 1_555 1_555
C3_4 N2_4 1_555 1_555
C4_4 N2_4 1_555 1_555
C2_4 C3_4 1_555 1_555
H6_3 C5_3 1_555 1_555
C18_4 C5_3 1_555 1_555
H17_4 C18_4 1_555 1_555
O1_4 Cu3_2 1_555 1_555
H1_4 O1_4 1_555 1_555
H2_4 O1_4 1_555 1_555
H6_4 C5_4 1_555 1_555
H16_4 C17_4 1_555 1_555
N4_4 C7_4 1_555 1_555
C7_4 N3_2 1_555 1_555
H8_4 C7_4 1_555 1_555
C9_4 N4_4 1_555 1_555
H10_4 C9_4 1_555 1_555
C10_4 N4_4 1_555 1_555
C12_4 C10_4 1_555 1_555
H12_4 C12_4 1_555 1_555
C23_4 C12_4 1_555 1_555
H21_4 C23_4 1_555 1_555
H9_4 C8_4 1_555 1_555
Cl1 O3 1_555 1_555
O4 Cl1 1_555 1_555
O5 Cl1 1_555 1_555
O6 Cl1 1_555 1_555
Cl1_2 O3_2 1_555 1_555
O4_2 Cl1_2 1_555 1_555
O5_2 Cl1_2 1_555 1_555
O6_2 Cl1_2 1_555 1_555
Cl1_3 O3_3 1_555 1_555
O4_3 Cl1_3 1_555 1_555
O5_3 Cl1_3 1_555 1_555
O6_3 Cl1_3 1_555 1_555
Cl1_4 O3_4 1_555 1_555
O4_4 Cl1_4 1_555 1_555
O5_4 Cl1_4 1_555 1_555
O6_4 Cl1_4 1_555 1_555
Cl1_5 O3_5 1_555 1_555
O4_5 Cl1_5 1_555 1_555
O5_5 Cl1_5 1_555 1_555
O6_5 Cl1_5 1_555 1_555
Cl1_6 O3_6 1_555 1_555
O4_6 Cl1_6 1_555 1_555
O5_6 Cl1_6 1_555 1_555
O6_6 Cl1_6 1_555 1_555
Cl1_7 O3_7 1_555 1_555
O4_7 Cl1_7 1_555 1_555
O5_7 Cl1_7 1_555 1_555
O6_7 Cl1_7 1_555 1_555
Cl1_8 O3_8 1_555 1_555
O4_8 Cl1_8 1_555 1_555
O5_8 Cl1_8 1_555 1_555
O6_8 Cl1_8 1_555 1_555

#END
