
###############################################################################
#
# This file contains modified crystal structure data generated from the
# MOF subset of the Cambridge Structural Database (CSD) v543 
# hosted by the Cambridge Crystallographic Data Centre (CCDC).
#
# This work is licensed under the Creative Commons
# Attribution-NonCommercial-ShareAlike 4.0 International License.
# To view a copy of this license, visit
# http://creativecommons.org/licenses/by-nc-sa/4.0/
# or send a letter to
# Creative Commons, PO Box 1866, Mountain View, CA 94042, USA.
#
# CIF created using the CSD Python API on 29 September 2022
# The structure has been converted into the P1 space group
# The structure has a 3D framework
# The original CSD entry OSURAX is in the orthorhombic crystal system
# The framework has been calculated to contain at least 10.0% void space
# The void calculation uses a probe of radius 1.32A, grid spacing 0.4
#
###############################################################################

data_OSURAX
_chemical_formula_moiety         '(C256 H168 Cd17 N40 O53)n'
_symmetry_cell_setting           triclinic
_symmetry_space_group_name_H-M   'P 1'
_symmetry_Int_Tables_number      1
_space_group_name_Hall           'P 1'
loop_
_symmetry_equiv_pos_site_id
_symmetry_equiv_pos_as_xyz
1 x,y,z
_cell_length_a                   31.98(3)
_cell_length_b                   7.904(7)
_cell_length_c                   26.80(3)
_cell_angle_alpha                90
_cell_angle_beta                 90
_cell_angle_gamma                90
_cell_volume                     6774.23
loop_
_atom_site_label
_atom_site_type_symbol
_atom_site_fract_x
_atom_site_fract_y
_atom_site_fract_z
C4 C 0.2417(4) 0.1643(17) 0.6320(5)
H2 H 0.2664 0.2250 0.6353
N1 N 0.1739(3) 0.0883(15) 0.4882(5)
H4 H 0.1834 0.1898 0.4859
C8 C 0.1904(3) 0.0343(12) 0.5785(4)
C19 C 0.1836(3) 0.0251(14) 0.6688(4)
C20 C 0.2208(4) 0.1175(16) 0.6738(5)
C21 C 0.2272(4) 0.1241(17) 0.5837(5)
H11 H 0.2423 0.1577 0.5557
C22 C 0.2365(3) 0.1634(15) 0.7249(5)
C23 C 0.2683(3) 0.2829(13) 0.8166(4)
C24 C 0.2249(3) 0.2798(15) 0.8088(5)
H12 H 0.2064 0.3190 0.8330
C25 C 0.2799(4) 0.1672(17) 0.7349(5)
H13 H 0.2985 0.1310 0.7104
C26 C 0.2105(4) 0.2151(17) 0.7631(5)
H14 H 0.1818 0.2066 0.7583
C27 C 0.2956(4) 0.2239(17) 0.7804(5)
H15 H 0.3242 0.2221 0.7865
C28 C 0.2849(3) 0.3586(11) 0.8614(3)
N2 N 0.3248(4) 0.4111(13) 0.8675(4)
C29 C 0.2639(4) 0.4132(15) 0.9033(5)
H16 H 0.2358 0.3968 0.9103
C30 C 0.3303(3) 0.4894(11) 0.9113(3)
N4 N 0.2920(4) 0.4951(11) 0.9323(5)
H17 H 0.2862 0.5438 0.9602
C31 C 0.1557(3) 0.0011(13) 0.4510(4)
H18 H 0.1514 0.0400 0.4187
Cd9 Cd 0.39163(2) 0.63406(7) 0.93443(3)
Cd1 Cd 0.10837(2) 0.63406(7) 0.43443(3)
Cd2 Cd -0.0000 0.5000 0.47714(4)
C1 C 0.1750(3) 0.9898(10) 0.5307(3)
C2 C 0.0810(3) 0.2386(12) 0.5844(3)
H1 H 0.0927 0.3356 0.5983
C3 C 0.0904(3) 0.3839(11) 0.5049(4)
C5 C 0.0780(3) 0.2292(11) 0.5365(3)
C6 C 0.0645(3) 0.0847(10) 0.5136(3)
H3 H 0.0630 0.0797 0.4790
O1 O 0.0699(2) 0.4084(8) 0.4647(2)
O2 O 0.1197(3) 0.4772(9) 0.5185(3)
C10 C 0.0670(3) 0.1041(11) 0.6180(4)
C11 C 0.0699(3) 0.1184(13) 0.6744(4)
C12 C 0.1567(3) 0.8452(11) 0.5171(4)
H6 H 0.1529 0.7543 0.5386
O3 O 0.0791(3) 0.0706(13) 0.8604(3)
O4 O 0.1127(4) 0.3031(12) 0.8458(3)
C14 C 0.0920(4) 0.1789(17) 0.8319(4)
C15 C 0.0824(3) 0.1631(13) 0.7758(4)
C16 C 0.0860(4) 0.2650(13) 0.6954(4)
H7 H 0.0915 0.3566 0.6747
C17 C 0.0936(5) 0.2797(17) 0.7420(5)
H8 H 0.1076 0.3759 0.7530
C18 C 0.1685(3) 0.9820(13) 0.6205(4)
H9 H 0.1441 0.9191 0.6171
H10 H 0.1687 0.9922 0.6970
N3 N 0.1443(2) 0.8438(9) 0.4690(3)
N5 N 0.0669(5) 0.012(2) 0.7571(5)
O7 O 0.0000 0.5000 0.3935(6)
H22 H 0.0260 0.5384 0.3677
Cd6 Cd 0.10837(2) 0.13406(7) 0.93443(3)
O15 O 0.0791(3) 0.5706(13) 0.3604(3)
O17 O 0.1127(4) 0.8031(12) 0.3458(3)
O19 O 0.0426(2) 0.7738(8) 0.4685(3)
O21 O 0.0212(2) 0.6715(7) 0.5417(3)
C66 C 0.1697(3) 0.4894(11) 0.4113(3)
C7 C 0.0529(3) 0.9464(10) 0.5417(3)
C9 C 0.0539(3) 0.9604(10) 0.5936(4)
H5 H 0.0454 0.8682 0.6126
C13 C 0.0377(3) 0.7865(11) 0.5165(4)
C32 C 0.0608(5) 0.9932(18) 0.7056(5)
H19 H 0.0503 0.8920 0.6931
H20 H 0.0611 0.9302 0.7770
Cd2_2 Cd 1.0000 0.5000 0.47714(4)
O7_2 O 1.0000 0.5000 0.3935(6)
H21 H 0.9740 0.4616 0.3677
C39 C 0.9471(3) 0.0536(10) 0.5417(3)
C41 C 0.9461(3) 0.0396(10) 0.5936(4)
H27 H 0.9546 0.1318 0.6126
C45 C 0.9623(3) 0.2135(11) 0.5165(4)
O12 O 0.9574(2) 0.2262(8) 0.4685(3)
O13 O 0.9788(2) 0.3285(7) 0.5417(3)
C64 C 0.9392(5) 0.0068(18) 0.7056(5)
H41 H 0.9497 0.1080 0.6931
H42 H 0.9389 0.0698 0.7770
Cd5 Cd 0.89163(2) 0.36594(7) 0.43443(3)
O14 O 0.9301(2) 0.5916(8) 0.4647(2)
C33 C 0.8250(3) 0.0102(10) 0.5307(3)
C34 C 0.9190(3) 0.7614(12) 0.5844(3)
H23 H 0.9073 0.6644 0.5983
C35 C 0.9096(3) 0.6161(11) 0.5049(4)
C37 C 0.9220(3) 0.7708(11) 0.5365(3)
C38 C 0.9355(3) 0.9153(10) 0.5136(3)
H25 H 0.9370 0.9203 0.4790
O9 O 0.8803(3) 0.5228(9) 0.5185(3)
C42 C 0.9330(3) 0.8959(11) 0.6180(4)
C43 C 0.9301(3) 0.8816(13) 0.6744(4)
C44 C 0.8433(3) 0.1548(11) 0.5171(4)
H28 H 0.8471 0.2457 0.5386
O10 O 0.9209(3) 0.9294(13) 0.8604(3)
O11 O 0.8873(4) 0.6969(12) 0.8458(3)
C46 C 0.9080(4) 0.8211(17) 0.8319(4)
C47 C 0.9176(3) 0.8369(13) 0.7758(4)
C48 C 0.9140(4) 0.7350(13) 0.6954(4)
H29 H 0.9085 0.6434 0.6747
C49 C 0.9064(5) 0.7203(17) 0.7420(5)
H30 H 0.8924 0.6241 0.7530
C50 C 0.8315(3) 0.0180(13) 0.6205(4)
H31 H 0.8559 0.0809 0.6171
H32 H 0.8313 0.0078 0.6970
N8 N 0.8557(2) 0.1562(9) 0.4690(3)
N10 N 0.9331(5) 0.988(2) 0.7571(5)
Cd7 Cd 0.89163(2) 0.86594(7) 0.93443(3)
O16 O 0.9209(3) 0.4294(13) 0.3604(3)
O18 O 0.8873(4) 0.1969(12) 0.3458(3)
C65 C 0.8303(3) 0.5106(11) 0.4113(3)
C36 C 0.7583(4) 0.8357(17) 0.6320(5)
H24 H 0.7336 0.7750 0.6353
N6 N 0.8261(3) 0.9117(15) 0.4882(5)
H26 H 0.8166 0.8102 0.4859
C40 C 0.8096(3) 0.9657(12) 0.5785(4)
C51 C 0.8164(3) 0.9749(14) 0.6688(4)
C52 C 0.7792(4) 0.8825(16) 0.6738(5)
C53 C 0.7728(4) 0.8759(17) 0.5837(5)
H33 H 0.7577 0.8423 0.5557
C54 C 0.7635(3) 0.8366(15) 0.7249(5)
C55 C 0.7317(3) 0.7171(13) 0.8166(4)
C56 C 0.7751(3) 0.7202(15) 0.8088(5)
H34 H 0.7936 0.6810 0.8330
C57 C 0.7201(4) 0.8328(17) 0.7349(5)
H35 H 0.7015 0.8690 0.7104
C58 C 0.7895(4) 0.7849(17) 0.7631(5)
H36 H 0.8182 0.7934 0.7583
C59 C 0.7044(4) 0.7761(17) 0.7804(5)
H37 H 0.6758 0.7779 0.7865
C60 C 0.7151(3) 0.6414(11) 0.8614(3)
N7 N 0.6752(4) 0.5889(13) 0.8675(4)
C61 C 0.7361(4) 0.5868(15) 0.9033(5)
H38 H 0.7642 0.6032 0.9103
C62 C 0.6697(3) 0.5106(11) 0.9113(3)
N9 N 0.7080(4) 0.5049(11) 0.9323(5)
H39 H 0.7138 0.4562 0.9602
C63 C 0.8443(3) 0.9989(13) 0.4510(4)
H40 H 0.8486 0.9600 0.4187
Cd8 Cd 0.60837(2) 0.36594(7) 0.93443(3)
H39_2 H 0.2138 0.0438 0.9602
Cd3 Cd 0.39163(2) 0.13406(7) 0.43443(3)
C33_2 C 0.3250(3) 0.4898(10) 0.5307(3)
C36_2 C 0.2583(4) 0.6643(17) 0.6320(5)
H24_2 H 0.2336 0.7250 0.6353
N6_2 N 0.3261(3) 0.5883(15) 0.4882(5)
H26_2 H 0.3166 0.6898 0.4859
C40_2 C 0.3096(3) 0.5343(12) 0.5785(4)
C44_2 C 0.3433(3) 0.3452(11) 0.5171(4)
H28_2 H 0.3471 0.2543 0.5386
C50_2 C 0.3315(3) 0.4820(13) 0.6205(4)
H31_2 H 0.3559 0.4191 0.6171
C51_2 C 0.3164(3) 0.5251(14) 0.6688(4)
H32_2 H 0.3313 0.4922 0.6970
C52_2 C 0.2792(4) 0.6175(16) 0.6738(5)
C53_2 C 0.2728(4) 0.6241(17) 0.5837(5)
H33_2 H 0.2577 0.6577 0.5557
C54_2 C 0.2635(3) 0.6634(15) 0.7249(5)
C55_2 C 0.2317(3) 0.7829(13) 0.8166(4)
C56_2 C 0.2751(3) 0.7798(15) 0.8088(5)
H34_2 H 0.2936 0.8190 0.8330
C57_2 C 0.2201(4) 0.6672(17) 0.7349(5)
H35_2 H 0.2015 0.6310 0.7104
C58_2 C 0.2895(4) 0.7151(17) 0.7631(5)
H36_2 H 0.3182 0.7066 0.7583
C59_2 C 0.2044(4) 0.7239(17) 0.7804(5)
H37_2 H 0.1758 0.7221 0.7865
C60_2 C 0.2151(3) 0.8586(11) 0.8614(3)
N7_2 N 0.1752(4) 0.9111(13) 0.8675(4)
C61_2 C 0.2361(4) 0.9132(15) 0.9033(5)
H38_2 H 0.2642 0.8968 0.9103
N8_2 N 0.3557(2) 0.3438(9) 0.4690(3)
C62_2 C 0.1697(3) 0.9894(11) 0.9113(3)
N9_2 N 0.2080(4) 0.9951(11) 0.9323(5)
C63_2 C 0.3443(3) 0.5011(13) 0.4510(4)
H40_2 H 0.3486 0.5400 0.4187
Cd10 Cd 0.5000 0.0000 0.47714(4)
O16_2 O 0.4209(3) 0.0706(13) 0.3604(3)
O18_2 O 0.3873(4) 0.3031(12) 0.3458(3)
O20 O 0.4574(2) 0.2738(8) 0.4685(3)
C2_2 C 0.5810(3) 0.2614(12) 0.5844(3)
H1_2 H 0.5927 0.1644 0.5983
C3_2 C 0.5904(3) 0.1161(11) 0.5049(4)
C5_2 C 0.5780(3) 0.2708(11) 0.5365(3)
C6_2 C 0.5645(3) 0.4153(10) 0.5136(3)
H3_2 H 0.5630 0.4203 0.4790
C7_2 C 0.5529(3) 0.5536(10) 0.5417(3)
O1_2 O 0.5699(2) 0.0916(8) 0.4647(2)
O2_2 O 0.6197(3) 0.0228(9) 0.5185(3)
C9_2 C 0.5539(3) 0.5396(10) 0.5936(4)
H5_2 H 0.5454 0.6318 0.6126
C10_2 C 0.5670(3) 0.3959(11) 0.6180(4)
C11_2 C 0.5699(3) 0.3816(13) 0.6744(4)
C13_2 C 0.5377(3) 0.7135(11) 0.5165(4)
O3_2 O 0.5791(3) 0.4294(13) 0.8604(3)
O4_2 O 0.6127(4) 0.1969(12) 0.8458(3)
C14_2 C 0.5920(4) 0.3211(17) 0.8319(4)
O5 O 0.5426(2) 0.7262(8) 0.4685(3)
O6 O 0.5212(2) 0.8285(7) 0.5417(3)
C15_2 C 0.5824(3) 0.3369(13) 0.7758(4)
C16_2 C 0.5860(4) 0.2350(13) 0.6954(4)
H7_2 H 0.5915 0.1434 0.6747
C17_2 C 0.5936(5) 0.2203(17) 0.7420(5)
H8_2 H 0.6076 0.1241 0.7530
C32_2 C 0.5608(5) 0.5068(18) 0.7056(5)
H19_2 H 0.5503 0.6080 0.6931
N5_2 N 0.5669(5) 0.488(2) 0.7571(5)
H20_2 H 0.5611 0.5698 0.7770
O7_3 O 0.5000 0.0000 0.3935(6)
H21_2 H 0.4740 0.0384 0.3677
C34_2 C 0.4190(3) 0.7386(12) 0.5844(3)
H23_2 H 0.4073 0.8356 0.5983
C35_2 C 0.4096(3) 0.8839(11) 0.5049(4)
C37_2 C 0.4220(3) 0.7292(11) 0.5365(3)
C38_2 C 0.4355(3) 0.5847(10) 0.5136(3)
H25_2 H 0.4370 0.5797 0.4790
C39_2 C 0.4471(3) 0.4464(10) 0.5417(3)
O8 O 0.4301(2) 0.9084(8) 0.4647(2)
O9_2 O 0.3803(3) 0.9772(9) 0.5185(3)
C41_2 C 0.4461(3) 0.4604(10) 0.5936(4)
H27_2 H 0.4546 0.3682 0.6126
C42_2 C 0.4330(3) 0.6041(11) 0.6180(4)
C43_2 C 0.4301(3) 0.6184(13) 0.6744(4)
C45_2 C 0.4623(3) 0.2865(11) 0.5165(4)
O10_2 O 0.4209(3) 0.5706(13) 0.8604(3)
O11_2 O 0.3873(4) 0.8031(12) 0.8458(3)
C46_2 C 0.4080(4) 0.6789(17) 0.8319(4)
O13_2 O 0.4788(2) 0.1715(7) 0.5417(3)
C47_2 C 0.4176(3) 0.6631(13) 0.7758(4)
C48_2 C 0.4140(4) 0.7650(13) 0.6954(4)
H29_2 H 0.4085 0.8566 0.6747
C49_2 C 0.4064(5) 0.7797(17) 0.7420(5)
H30_2 H 0.3924 0.8759 0.7530
C64_2 C 0.4392(5) 0.4932(18) 0.7056(5)
H41_2 H 0.4497 0.3920 0.6931
N10_2 N 0.4331(5) 0.512(2) 0.7571(5)
H42_2 H 0.4389 0.4302 0.7770
Cd4 Cd 0.60837(2) 0.86594(7) 0.43443(3)
Cd10_2 Cd 0.5000 1.0000 0.47714(4)
C65_2 C 0.3303(3) 0.9894(11) 0.4113(3)
C66_2 C 0.6697(3) 0.0106(11) 0.4113(3)
C1_2 C 0.6750(3) 0.5102(10) 0.5307(3)
C4_2 C 0.7417(4) 0.3357(17) 0.6320(5)
H2_2 H 0.7664 0.2750 0.6353
N1_2 N 0.6739(3) 0.4117(15) 0.4882(5)
H4_2 H 0.6834 0.3102 0.4859
C8_2 C 0.6904(3) 0.4657(12) 0.5785(4)
C12_2 C 0.6567(3) 0.6548(11) 0.5171(4)
H6_2 H 0.6529 0.7457 0.5386
C18_2 C 0.6685(3) 0.5180(13) 0.6205(4)
H9_2 H 0.6441 0.5809 0.6171
C19_2 C 0.6836(3) 0.4749(14) 0.6688(4)
H10_2 H 0.6687 0.5078 0.6970
C20_2 C 0.7208(4) 0.3825(16) 0.6738(5)
C21_2 C 0.7272(4) 0.3759(17) 0.5837(5)
H11_2 H 0.7423 0.3423 0.5557
C22_2 C 0.7365(3) 0.3366(15) 0.7249(5)
C23_2 C 0.7683(3) 0.2171(13) 0.8166(4)
C24_2 C 0.7249(3) 0.2202(15) 0.8088(5)
H12_2 H 0.7064 0.1810 0.8330
C25_2 C 0.7799(4) 0.3328(17) 0.7349(5)
H13_2 H 0.7985 0.3690 0.7104
C26_2 C 0.7105(4) 0.2849(17) 0.7631(5)
H14_2 H 0.6818 0.2934 0.7583
C27_2 C 0.7956(4) 0.2761(17) 0.7804(5)
H15_2 H 0.8242 0.2779 0.7865
C28_2 C 0.7849(3) 0.1414(11) 0.8614(3)
N2_2 N 0.8248(4) 0.0889(13) 0.8675(4)
C29_2 C 0.7639(4) 0.0868(15) 0.9033(5)
H16_2 H 0.7358 0.1032 0.9103
N3_2 N 0.6443(2) 0.6562(9) 0.4690(3)
C30_2 C 0.8303(3) 0.0106(11) 0.9113(3)
N4_2 N 0.7920(4) 0.0049(11) 0.9323(5)
C31_2 C 0.6557(3) 0.4989(13) 0.4510(4)
H18_2 H 0.6514 0.4600 0.4187
O7_4 O 0.5000 1.0000 0.3935(6)
H22_2 H 0.5260 0.9616 0.3677
O15_2 O 0.5791(3) 0.9294(13) 0.3604(3)
O17_2 O 0.6127(4) 0.6969(12) 0.3458(3)
H17_2 H 0.7862 0.9562 0.9602
H17_3 H 0.2862 0.0438 0.4602
C1_3 C 0.1750(3) 0.4898(10) 0.0307(3)
C4_3 C 0.2417(4) 0.6643(17) 0.1320(5)
H2_3 H 0.2664 0.7250 0.1353
C8_3 C 0.1904(3) 0.5343(12) 0.0785(4)
C12_3 C 0.1567(3) 0.3452(11) 0.0171(4)
H6_3 H 0.1529 0.2543 0.0386
C18_3 C 0.1685(3) 0.4820(13) 0.1205(4)
H9_3 H 0.1441 0.4191 0.1171
C19_3 C 0.1836(3) 0.5251(14) 0.1688(4)
H10_3 H 0.1687 0.4922 0.1970
C20_3 C 0.2208(4) 0.6175(16) 0.1738(5)
C21_3 C 0.2272(4) 0.6241(17) 0.0837(5)
H11_3 H 0.2423 0.6577 0.0557
C22_3 C 0.2365(3) 0.6634(15) 0.2249(5)
C23_3 C 0.2683(3) 0.7829(13) 0.3166(4)
C24_3 C 0.2249(3) 0.7798(15) 0.3088(5)
H12_3 H 0.2064 0.8190 0.3330
C25_3 C 0.2799(4) 0.6672(17) 0.2349(5)
H13_3 H 0.2985 0.6310 0.2104
C26_3 C 0.2105(4) 0.7151(17) 0.2631(5)
H14_3 H 0.1818 0.7066 0.2583
C27_3 C 0.2956(4) 0.7239(17) 0.2804(5)
H15_3 H 0.3242 0.7221 0.2865
C28_3 C 0.2849(3) 0.8586(11) 0.3614(3)
N2_3 N 0.3248(4) 0.9111(13) 0.3675(4)
C29_3 C 0.2639(4) 0.9132(15) 0.4033(5)
H16_3 H 0.2358 0.8968 0.4103
N4_3 N 0.2920(4) 0.9951(11) 0.4323(5)
O21_2 O 0.0212(2) 0.1715(7) 0.0417(3)
Cd2_3 Cd -0.0000 0.0000 0.97714(4)
N1_3 N 0.1739(3) 0.5883(15) 0.9882(5)
H4_3 H 0.1834 0.6898 0.9859
N3_3 N 0.1443(2) 0.3438(9) 0.9690(3)
C31_3 C 0.1557(3) 0.5011(13) 0.9510(4)
H18_3 H 0.1514 0.5400 0.9187
O7_5 O -0.0000 0.0000 0.8935(6)
H22_3 H 0.0260 0.0384 0.8677
O19_2 O 0.0426(2) 0.2738(8) 0.9685(3)
C2_3 C 0.0810(3) 0.7386(12) 0.0844(3)
H1_3 H 0.0927 0.8356 0.0983
C3_3 C 0.0904(3) 0.8839(11) 0.0049(4)
C5_3 C 0.0780(3) 0.7292(11) 0.0365(3)
C6_3 C 0.0645(3) 0.5847(10) 0.0136(3)
C7_3 C 0.0529(3) 0.4464(10) 0.0417(3)
O2_3 O 0.1197(3) 0.9772(9) 0.0185(3)
C9_3 C 0.0539(3) 0.4604(10) 0.0936(4)
H5_3 H 0.0454 0.3682 0.1126
C10_3 C 0.0670(3) 0.6041(11) 0.1180(4)
C11_3 C 0.0699(3) 0.6184(13) 0.1744(4)
C13_3 C 0.0377(3) 0.2865(11) 0.0165(4)
C14_3 C 0.0920(4) 0.6789(17) 0.3319(4)
C15_3 C 0.0824(3) 0.6631(13) 0.2758(4)
C16_3 C 0.0860(4) 0.7650(13) 0.1954(4)
H7_3 H 0.0915 0.8566 0.1747
C17_3 C 0.0936(5) 0.7797(17) 0.2420(5)
H8_3 H 0.1076 0.8759 0.2530
C32_3 C 0.0608(5) 0.4932(18) 0.2056(5)
H19_3 H 0.0503 0.3920 0.1931
N5_3 N 0.0669(5) 0.512(2) 0.2571(5)
H20_3 H 0.0611 0.4302 0.2770
Cd2_4 Cd -0.0000 1.0000 0.97714(4)
H3_3 H 0.0630 0.5797 0.9790
O1_3 O 0.0699(2) 0.9084(8) 0.9647(2)
O7_6 O -0.0000 1.0000 0.8935(6)
Cd2_5 Cd 1.0000 0.0000 0.97714(4)
O7_7 O 1.0000 0.0000 0.8935(6)
O14_2 O 0.9301(2) 0.0916(8) 0.9647(2)
C34_3 C 0.9190(3) 0.2614(12) 0.0844(3)
H23_3 H 0.9073 0.1644 0.0983
C35_3 C 0.9096(3) 0.1161(11) 0.0049(4)
C37_3 C 0.9220(3) 0.2708(11) 0.0365(3)
C38_3 C 0.9355(3) 0.4153(10) 0.0136(3)
C39_3 C 0.9471(3) 0.5536(10) 0.0417(3)
O9_3 O 0.8803(3) 0.0228(9) 0.0185(3)
C41_3 C 0.9461(3) 0.5396(10) 0.0936(4)
H27_3 H 0.9546 0.6318 0.1126
C42_3 C 0.9330(3) 0.3959(11) 0.1180(4)
C43_3 C 0.9301(3) 0.3816(13) 0.1744(4)
C45_3 C 0.9623(3) 0.7135(11) 0.0165(4)
C46_3 C 0.9080(4) 0.3211(17) 0.3319(4)
O13_3 O 0.9788(2) 0.8285(7) 0.0417(3)
C47_3 C 0.9176(3) 0.3369(13) 0.2758(4)
C48_3 C 0.9140(4) 0.2350(13) 0.1954(4)
H29_3 H 0.9085 0.1434 0.1747
C49_3 C 0.9064(5) 0.2203(17) 0.2420(5)
H30_3 H 0.8924 0.1241 0.2530
C64_3 C 0.9392(5) 0.5068(18) 0.2056(5)
H41_3 H 0.9497 0.6080 0.1931
N10_3 N 0.9331(5) 0.488(2) 0.2571(5)
H42_3 H 0.9389 0.5698 0.2770
Cd2_6 Cd 1.0000 1.0000 0.97714(4)
O7_8 O 1.0000 1.0000 0.8935(6)
H21_3 H 0.9740 0.9616 0.8677
H25_3 H 0.9370 0.4203 0.9790
O12_2 O 0.9574(2) 0.7262(8) 0.9685(3)
C33_3 C 0.8250(3) 0.5102(10) 0.0307(3)
C36_3 C 0.7583(4) 0.3357(17) 0.1320(5)
H24_3 H 0.7336 0.2750 0.1353
C40_3 C 0.8096(3) 0.4657(12) 0.0785(4)
C44_3 C 0.8433(3) 0.6548(11) 0.0171(4)
H28_3 H 0.8471 0.7457 0.0386
C50_3 C 0.8315(3) 0.5180(13) 0.1205(4)
H31_3 H 0.8559 0.5809 0.1171
C51_3 C 0.8164(3) 0.4749(14) 0.1688(4)
H32_3 H 0.8313 0.5078 0.1970
C52_3 C 0.7792(4) 0.3825(16) 0.1738(5)
C53_3 C 0.7728(4) 0.3759(17) 0.0837(5)
H33_3 H 0.7577 0.3423 0.0557
C54_3 C 0.7635(3) 0.3366(15) 0.2249(5)
C55_3 C 0.7317(3) 0.2171(13) 0.3166(4)
C56_3 C 0.7751(3) 0.2202(15) 0.3088(5)
H34_3 H 0.7936 0.1810 0.3330
C57_3 C 0.7201(4) 0.3328(17) 0.2349(5)
H35_3 H 0.7015 0.3690 0.2104
C58_3 C 0.7895(4) 0.2849(17) 0.2631(5)
H36_3 H 0.8182 0.2934 0.2583
C59_3 C 0.7044(4) 0.2761(17) 0.2804(5)
H37_3 H 0.6758 0.2779 0.2865
C60_3 C 0.7151(3) 0.1414(11) 0.3614(3)
N7_3 N 0.6752(4) 0.0889(13) 0.3675(4)
C61_3 C 0.7361(4) 0.0868(15) 0.4033(5)
H38_3 H 0.7642 0.1032 0.4103
N9_3 N 0.7080(4) 0.0049(11) 0.4323(5)
N6_3 N 0.8261(3) 0.4117(15) 0.9882(5)
H26_3 H 0.8166 0.3102 0.9859
N8_3 N 0.8557(2) 0.6562(9) 0.9690(3)
C63_3 C 0.8443(3) 0.4989(13) 0.9510(4)
H40_3 H 0.8486 0.4600 0.9187
H39_3 H 0.7138 0.9562 0.4602
C36_4 C 0.2583(4) 0.1643(17) 0.1320(5)
H24_4 H 0.2336 0.2250 0.1353
C40_4 C 0.3096(3) 0.0343(12) 0.0785(4)
C51_4 C 0.3164(3) 0.0251(14) 0.1688(4)
C52_4 C 0.2792(4) 0.1175(16) 0.1738(5)
C53_4 C 0.2728(4) 0.1241(17) 0.0837(5)
H33_4 H 0.2577 0.1577 0.0557
C54_4 C 0.2635(3) 0.1634(15) 0.2249(5)
C55_4 C 0.2317(3) 0.2829(13) 0.3166(4)
C56_4 C 0.2751(3) 0.2798(15) 0.3088(5)
H34_4 H 0.2936 0.3190 0.3330
C57_4 C 0.2201(4) 0.1672(17) 0.2349(5)
H35_4 H 0.2015 0.1310 0.2104
C58_4 C 0.2895(4) 0.2151(17) 0.2631(5)
H36_4 H 0.3182 0.2066 0.2583
C59_4 C 0.2044(4) 0.2239(17) 0.2804(5)
H37_4 H 0.1758 0.2221 0.2865
C60_4 C 0.2151(3) 0.3586(11) 0.3614(3)
N7_4 N 0.1752(4) 0.4111(13) 0.3675(4)
C61_4 C 0.2361(4) 0.4132(15) 0.4033(5)
H38_4 H 0.2642 0.3968 0.4103
N9_4 N 0.2080(4) 0.4951(11) 0.4323(5)
H39_4 H 0.2138 0.5438 0.4602
C7_4 C 0.5529(3) 0.0536(10) 0.0417(3)
C9_4 C 0.5539(3) 0.0396(10) 0.0936(4)
H5_4 H 0.5454 0.1318 0.1126
C13_4 C 0.5377(3) 0.2135(11) 0.0165(4)
O6_2 O 0.5212(2) 0.3285(7) 0.0417(3)
C32_4 C 0.5608(5) 0.0068(18) 0.2056(5)
H19_4 H 0.5503 0.1080 0.1931
H20_4 H 0.5611 0.0698 0.2770
C33_4 C 0.3250(3) 0.9898(10) 0.0307(3)
C34_4 C 0.4190(3) 0.2386(12) 0.0844(3)
H23_4 H 0.4073 0.3356 0.0983
C35_4 C 0.4096(3) 0.3839(11) 0.0049(4)
C37_4 C 0.4220(3) 0.2292(11) 0.0365(3)
C38_4 C 0.4355(3) 0.0847(10) 0.0136(3)
O9_4 O 0.3803(3) 0.4772(9) 0.0185(3)
C42_4 C 0.4330(3) 0.1041(11) 0.1180(4)
C43_4 C 0.4301(3) 0.1184(13) 0.1744(4)
C44_4 C 0.3433(3) 0.8452(11) 0.0171(4)
H28_4 H 0.3471 0.7543 0.0386
C46_4 C 0.4080(4) 0.1789(17) 0.3319(4)
C47_4 C 0.4176(3) 0.1631(13) 0.2758(4)
C48_4 C 0.4140(4) 0.2650(13) 0.1954(4)
H29_4 H 0.4085 0.3566 0.1747
C49_4 C 0.4064(5) 0.2797(17) 0.2420(5)
H30_4 H 0.3924 0.3759 0.2530
C50_4 C 0.3315(3) 0.9820(13) 0.1205(4)
H31_4 H 0.3559 0.9191 0.1171
H32_4 H 0.3313 0.9922 0.1970
N10_4 N 0.4331(5) 0.012(2) 0.2571(5)
O5_2 O 0.5426(2) 0.2262(8) 0.9685(3)
H25_4 H 0.4370 0.0797 0.9790
O8_2 O 0.4301(2) 0.4084(8) 0.9647(2)
N8_4 N 0.3557(2) 0.8438(9) 0.9690(3)
Cd10_3 Cd 0.5000 0.5000 0.97714(4)
O20_2 O 0.4574(2) 0.7738(8) 0.9685(3)
C1_4 C 0.6750(3) 0.0102(10) 0.0307(3)
C2_4 C 0.5810(3) 0.7614(12) 0.0844(3)
H1_4 H 0.5927 0.6644 0.0983
C3_4 C 0.5904(3) 0.6161(11) 0.0049(4)
C5_4 C 0.5780(3) 0.7708(11) 0.0365(3)
C6_4 C 0.5645(3) 0.9153(10) 0.0136(3)
O2_4 O 0.6197(3) 0.5228(9) 0.0185(3)
C10_4 C 0.5670(3) 0.8959(11) 0.1180(4)
C11_4 C 0.5699(3) 0.8816(13) 0.1744(4)
C12_4 C 0.6567(3) 0.1548(11) 0.0171(4)
H6_4 H 0.6529 0.2457 0.0386
C14_4 C 0.5920(4) 0.8211(17) 0.3319(4)
C15_4 C 0.5824(3) 0.8369(13) 0.2758(4)
C16_4 C 0.5860(4) 0.7350(13) 0.1954(4)
H7_4 H 0.5915 0.6434 0.1747
C17_4 C 0.5936(5) 0.7203(17) 0.2420(5)
H8_4 H 0.6076 0.6241 0.2530
C18_4 C 0.6685(3) 0.0180(13) 0.1205(4)
H9_4 H 0.6441 0.0809 0.1171
H10_4 H 0.6687 0.0078 0.1970
N5_4 N 0.5669(5) 0.988(2) 0.2571(5)
C39_4 C 0.4471(3) 0.9464(10) 0.0417(3)
C41_4 C 0.4461(3) 0.9604(10) 0.0936(4)
H27_4 H 0.4546 0.8682 0.1126
C45_4 C 0.4623(3) 0.7865(11) 0.0165(4)
O13_4 O 0.4788(2) 0.6715(7) 0.0417(3)
C64_4 C 0.4392(5) 0.9932(18) 0.2056(5)
H41_4 H 0.4497 0.8920 0.1931
H42_4 H 0.4389 0.9302 0.2770
H3_4 H 0.5630 0.9203 0.9790
O1_4 O 0.5699(2) 0.5916(8) 0.9647(2)
N3_4 N 0.6443(2) 0.1562(9) 0.9690(3)
O7_9 O 0.5000 0.5000 0.8935(6)
H21_4 H 0.4740 0.5384 0.8677
H22_4 H 0.5260 0.4616 0.8677
C4_4 C 0.7417(4) 0.8357(17) 0.1320(5)
H2_4 H 0.7664 0.7750 0.1353
C8_4 C 0.6904(3) 0.9657(12) 0.0785(4)
C19_4 C 0.6836(3) 0.9749(14) 0.1688(4)
C20_4 C 0.7208(4) 0.8825(16) 0.1738(5)
C21_4 C 0.7272(4) 0.8759(17) 0.0837(5)
H11_4 H 0.7423 0.8423 0.0557
C22_4 C 0.7365(3) 0.8366(15) 0.2249(5)
C23_4 C 0.7683(3) 0.7171(13) 0.3166(4)
C24_4 C 0.7249(3) 0.7202(15) 0.3088(5)
H12_4 H 0.7064 0.6810 0.3330
C25_4 C 0.7799(4) 0.8328(17) 0.2349(5)
H13_4 H 0.7985 0.8690 0.2104
C26_4 C 0.7105(4) 0.7849(17) 0.2631(5)
H14_4 H 0.6818 0.7934 0.2583
C27_4 C 0.7956(4) 0.7761(17) 0.2804(5)
H15_4 H 0.8242 0.7779 0.2865
C28_4 C 0.7849(3) 0.6414(11) 0.3614(3)
N2_4 N 0.8248(4) 0.5889(13) 0.3675(4)
C29_4 C 0.7639(4) 0.5868(15) 0.4033(5)
H16_4 H 0.7358 0.6032 0.4103
N4_4 N 0.7920(4) 0.5049(11) 0.4323(5)
H17_4 H 0.7862 0.4562 0.4602
N6_4 N 0.3261(3) 0.0883(15) 0.9882(5)
H26_4 H 0.3166 0.1898 0.9859
C63_4 C 0.3443(3) 0.0011(13) 0.9510(4)
H40_4 H 0.3486 0.0400 0.9187
N1_4 N 0.6739(3) 0.9117(15) 0.9882(5)
H4_4 H 0.6834 0.8102 0.9859
C31_4 C 0.6557(3) 0.9989(13) 0.9510(4)
H18_4 H 0.6514 0.9600 0.9187
loop_
_geom_bond_atom_site_label_1
_geom_bond_atom_site_label_2
_geom_bond_site_symmetry_1
_geom_bond_site_symmetry_2
C4 H2 1_555 1_555
N1 H4 1_555 1_555
C20 C4 1_555 1_555
C21 C4 1_555 1_555
H11 C21 1_555 1_555
C22 C20 1_555 1_555
C23 C24 1_555 1_555
C24 H12 1_555 1_555
C25 C22 1_555 1_555
H13 C25 1_555 1_555
C26 C22 1_555 1_555
H14 C26 1_555 1_555
C27 C23 1_555 1_555
H15 C27 1_555 1_555
C28 C23 1_555 1_555
N2 C28 1_555 1_555
C29 C28 1_555 1_555
H16 C29 1_555 1_555
C30 N2 1_555 1_555
N4 C29 1_555 1_555
H17 N4 1_555 1_555
C31 N1 1_555 1_555
H18 C31 1_555 1_555
Cd9 C30 1_555 1_555
C8 C21 1_555 1_555
C19 C20 1_555 1_555
C24 C26 1_555 1_555
C25 C27 1_555 1_555
C30 N4 1_555 1_555
Cd1 O1 1_555 1_555
Cd2 O1 1_555 1_555
C2 H1 1_555 1_555
C3 C5 1_555 1_555
C5 C2 1_555 1_555
C6 C5 1_555 1_555
H3 C6 1_555 1_555
O1 C3 1_555 1_555
O2 Cd1 1_555 1_555
C10 C2 1_555 1_555
C11 C10 1_555 1_555
C12 C1 1_555 1_555
H6 C12 1_555 1_555
O3 C14 1_555 1_555
O4 C14 1_555 1_555
C14 C15 1_555 1_555
C15 C17 1_555 1_555
C16 C11 1_555 1_555
H7 C16 1_555 1_555
C17 C16 1_555 1_555
H8 C17 1_555 1_555
H9 C18 1_555 1_555
N3 Cd1 1_555 1_555
N5 C15 1_555 1_555
O7 Cd2 1_555 1_555
H22 O7 1_555 1_555
Cd6 O3 1_555 1_555
O15 Cd1 1_555 1_555
O17 Cd1 1_555 1_555
O19 Cd1 1_555 1_555
O21 Cd2 1_555 1_555
C66 Cd1 1_555 1_555
Cd2 O19 1_555 1_555
C3 O2 1_555 1_555
C12 N3 1_555 1_555
O4 Cd6 1_555 1_555
C9 C7 1_555 1_555
H5 C9 1_555 1_555
C13 C7 1_555 1_555
O19 C13 1_555 1_555
O21 C13 1_555 1_555
H19 C32 1_555 1_555
O7_2 Cd2_2 1_555 1_555
H21 O7_2 1_555 1_555
C41 C39 1_555 1_555
H27 C41 1_555 1_555
C45 C39 1_555 1_555
O12 Cd2_2 1_555 1_555
O13 Cd2_2 1_555 1_555
H41 C64 1_555 1_555
Cd5 O12 1_555 1_555
O14 Cd2_2 1_555 1_555
C45 O12 1_555 1_555
C45 O13 1_555 1_555
Cd5 O14 1_555 1_555
C34 H23 1_555 1_555
C35 C37 1_555 1_555
C37 C34 1_555 1_555
C38 C37 1_555 1_555
H25 C38 1_555 1_555
O14 C35 1_555 1_555
O9 Cd5 1_555 1_555
C42 C34 1_555 1_555
C43 C42 1_555 1_555
C44 C33 1_555 1_555
H28 C44 1_555 1_555
O10 C46 1_555 1_555
O11 C46 1_555 1_555
C46 C47 1_555 1_555
C47 C49 1_555 1_555
C48 C43 1_555 1_555
H29 C48 1_555 1_555
C49 C48 1_555 1_555
H30 C49 1_555 1_555
H31 C50 1_555 1_555
N8 Cd5 1_555 1_555
N10 C47 1_555 1_555
Cd7 O10 1_555 1_555
O16 Cd5 1_555 1_555
O18 Cd5 1_555 1_555
C65 Cd5 1_555 1_555
C35 O9 1_555 1_555
C44 N8 1_555 1_555
O11 Cd7 1_555 1_555
C36 H24 1_555 1_555
N6 H26 1_555 1_555
C52 C36 1_555 1_555
C53 C36 1_555 1_555
H33 C53 1_555 1_555
C54 C52 1_555 1_555
C55 C56 1_555 1_555
C56 H34 1_555 1_555
C57 C54 1_555 1_555
H35 C57 1_555 1_555
C58 C54 1_555 1_555
H36 C58 1_555 1_555
C59 C55 1_555 1_555
H37 C59 1_555 1_555
C60 C55 1_555 1_555
N7 C60 1_555 1_555
C61 C60 1_555 1_555
H38 C61 1_555 1_555
C62 N7 1_555 1_555
N9 C61 1_555 1_555
H39 N9 1_555 1_555
C63 N6 1_555 1_555
H40 C63 1_555 1_555
Cd8 C62 1_555 1_555
C40 C53 1_555 1_555
C51 C52 1_555 1_555
C56 C58 1_555 1_555
C57 C59 1_555 1_555
C62 N9 1_555 1_555
C33_2 N6_2 1_555 1_555
C36_2 H24_2 1_555 1_555
N6_2 H26_2 1_555 1_555
C40_2 C33_2 1_555 1_555
C44_2 C33_2 1_555 1_555
H28_2 C44_2 1_555 1_555
C50_2 C40_2 1_555 1_555
H31_2 C50_2 1_555 1_555
C51_2 C50_2 1_555 1_555
H32_2 C51_2 1_555 1_555
C52_2 C36_2 1_555 1_555
C53_2 C36_2 1_555 1_555
H33_2 C53_2 1_555 1_555
C54_2 C52_2 1_555 1_555
C55_2 C56_2 1_555 1_555
C56_2 H34_2 1_555 1_555
C57_2 C54_2 1_555 1_555
H35_2 C57_2 1_555 1_555
C58_2 C54_2 1_555 1_555
H36_2 C58_2 1_555 1_555
C59_2 C55_2 1_555 1_555
H37_2 C59_2 1_555 1_555
C60_2 C55_2 1_555 1_555
N7_2 C60_2 1_555 1_555
C61_2 C60_2 1_555 1_555
H38_2 C61_2 1_555 1_555
N8_2 Cd3 1_555 1_555
C62_2 N7_2 1_555 1_555
N9_2 C61_2 1_555 1_555
C63_2 N6_2 1_555 1_555
H40_2 C63_2 1_555 1_555
O16_2 Cd3 1_555 1_555
O18_2 Cd3 1_555 1_555
O20 Cd3 1_555 1_555
C40_2 C53_2 1_555 1_555
C44_2 N8_2 1_555 1_555
C51_2 C52_2 1_555 1_555
C56_2 C58_2 1_555 1_555
C57_2 C59_2 1_555 1_555
N8_2 C63_2 1_555 1_555
C62_2 N9_2 1_555 1_555
Cd10 O20 1_555 1_555
Cd10 O1_2 1_555 1_555
C2_2 H1_2 1_555 1_555
C3_2 C5_2 1_555 1_555
C5_2 C2_2 1_555 1_555
C6_2 C5_2 1_555 1_555
H3_2 C6_2 1_555 1_555
C7_2 C6_2 1_555 1_555
O1_2 C3_2 1_555 1_555
C9_2 C7_2 1_555 1_555
H5_2 C9_2 1_555 1_555
C10_2 C2_2 1_555 1_555
C11_2 C10_2 1_555 1_555
C13_2 C7_2 1_555 1_555
O3_2 C14_2 1_555 1_555
O4_2 C14_2 1_555 1_555
C14_2 C15_2 1_555 1_555
O5 C13_2 1_555 1_555
O6 C13_2 1_555 1_555
C15_2 C17_2 1_555 1_555
C16_2 C11_2 1_555 1_555
H7_2 C16_2 1_555 1_555
C17_2 C16_2 1_555 1_555
H8_2 C17_2 1_555 1_555
C32_2 C11_2 1_555 1_555
H19_2 C32_2 1_555 1_555
N5_2 C15_2 1_555 1_555
H20_2 N5_2 1_555 1_555
O7_3 Cd10 1_555 1_555
H21_2 O7_3 1_555 1_555
C34_2 H23_2 1_555 1_555
C35_2 C37_2 1_555 1_555
C37_2 C34_2 1_555 1_555
C38_2 C37_2 1_555 1_555
H25_2 C38_2 1_555 1_555
C39_2 C38_2 1_555 1_555
O8 C35_2 1_555 1_555
C41_2 C39_2 1_555 1_555
H27_2 C41_2 1_555 1_555
C42_2 C34_2 1_555 1_555
C43_2 C42_2 1_555 1_555
C45_2 C39_2 1_555 1_555
O10_2 C46_2 1_555 1_555
O11_2 C46_2 1_555 1_555
C46_2 C47_2 1_555 1_555
O13_2 Cd10 1_555 1_555
C47_2 C49_2 1_555 1_555
C48_2 C43_2 1_555 1_555
H29_2 C48_2 1_555 1_555
C49_2 C48_2 1_555 1_555
H30_2 C49_2 1_555 1_555
C64_2 C43_2 1_555 1_555
H41_2 C64_2 1_555 1_555
N10_2 C47_2 1_555 1_555
H42_2 N10_2 1_555 1_555
Cd4 O5 1_555 1_555
Cd8 O3_2 1_555 1_555
Cd9 O10_2 1_555 1_555
Cd10_2 O5 1_555 1_555
C3_2 O2_2 1_555 1_555
C9_2 C10_2 1_555 1_555
O4_2 Cd8 1_555 1_555
O6 Cd10_2 1_555 1_555
C32_2 N5_2 1_555 1_555
C35_2 O9_2 1_555 1_555
O8 Cd10_2 1_555 1_555
C41_2 C42_2 1_555 1_555
C45_2 O20 1_555 1_555
C45_2 O13_2 1_555 1_555
O11_2 Cd9 1_555 1_555
C64_2 N10_2 1_555 1_555
C1_2 N1_2 1_555 1_555
C4_2 H2_2 1_555 1_555
N1_2 H4_2 1_555 1_555
C8_2 C1_2 1_555 1_555
C12_2 C1_2 1_555 1_555
H6_2 C12_2 1_555 1_555
C18_2 C8_2 1_555 1_555
H9_2 C18_2 1_555 1_555
C19_2 C18_2 1_555 1_555
H10_2 C19_2 1_555 1_555
C20_2 C4_2 1_555 1_555
C21_2 C4_2 1_555 1_555
H11_2 C21_2 1_555 1_555
C22_2 C20_2 1_555 1_555
C23_2 C24_2 1_555 1_555
C24_2 H12_2 1_555 1_555
C25_2 C22_2 1_555 1_555
H13_2 C25_2 1_555 1_555
C26_2 C22_2 1_555 1_555
H14_2 C26_2 1_555 1_555
C27_2 C23_2 1_555 1_555
H15_2 C27_2 1_555 1_555
C28_2 C23_2 1_555 1_555
N2_2 C28_2 1_555 1_555
C29_2 C28_2 1_555 1_555
H16_2 C29_2 1_555 1_555
N3_2 Cd4 1_555 1_555
C30_2 N2_2 1_555 1_555
N4_2 C29_2 1_555 1_555
C31_2 N1_2 1_555 1_555
H18_2 C31_2 1_555 1_555
O7_4 Cd10_2 1_555 1_555
H22_2 O7_4 1_555 1_555
O15_2 Cd4 1_555 1_555
O17_2 Cd4 1_555 1_555
C8_2 C21_2 1_555 1_555
C12_2 N3_2 1_555 1_555
C19_2 C20_2 1_555 1_555
C24_2 C26_2 1_555 1_555
C25_2 C27_2 1_555 1_555
N3_2 C31_2 1_555 1_555
C30_2 N4_2 1_555 1_555
C4_3 H2_3 1_555 1_555
C8_3 C1_3 1_555 1_555
C12_3 C1_3 1_555 1_555
H6_3 C12_3 1_555 1_555
C18_3 C8_3 1_555 1_555
H9_3 C18_3 1_555 1_555
C19_3 C18_3 1_555 1_555
H10_3 C19_3 1_555 1_555
C20_3 C4_3 1_555 1_555
C21_3 C4_3 1_555 1_555
H11_3 C21_3 1_555 1_555
C22_3 C20_3 1_555 1_555
C23_3 C24_3 1_555 1_555
C24_3 H12_3 1_555 1_555
C25_3 C22_3 1_555 1_555
H13_3 C25_3 1_555 1_555
C26_3 C22_3 1_555 1_555
H14_3 C26_3 1_555 1_555
C27_3 C23_3 1_555 1_555
H15_3 C27_3 1_555 1_555
C28_3 C23_3 1_555 1_555
N2_3 C28_3 1_555 1_555
C29_3 C28_3 1_555 1_555
H16_3 C29_3 1_555 1_555
C65_2 N2_3 1_555 1_555
N4_3 C29_3 1_555 1_555
C8_3 C21_3 1_555 1_555
C19_3 C20_3 1_555 1_555
C24_3 C26_3 1_555 1_555
C25_3 C27_3 1_555 1_555
C65_2 N4_3 1_555 1_555
N1_3 H4_3 1_555 1_555
N3_3 Cd6 1_555 1_555
C31_3 N1_3 1_555 1_555
H18_3 C31_3 1_555 1_555
O7_5 Cd2_3 1_555 1_555
H22_3 O7_5 1_555 1_555
O19_2 Cd6 1_555 1_555
Cd2_3 O19_2 1_555 1_555
N3_3 C31_3 1_555 1_555
C2_3 H1_3 1_555 1_555
C3_3 C5_3 1_555 1_555
C5_3 C2_3 1_555 1_555
C6_3 C5_3 1_555 1_555
C7_3 C6_3 1_555 1_555
C9_3 C7_3 1_555 1_555
H5_3 C9_3 1_555 1_555
C10_3 C2_3 1_555 1_555
C11_3 C10_3 1_555 1_555
C13_3 C7_3 1_555 1_555
O15 C14_3 1_555 1_555
O17 C14_3 1_555 1_555
C14_3 C15_3 1_555 1_555
O21_2 C13_3 1_555 1_555
C15_3 C17_3 1_555 1_555
C16_3 C11_3 1_555 1_555
H7_3 C16_3 1_555 1_555
C17_3 C16_3 1_555 1_555
H8_3 C17_3 1_555 1_555
C32_3 C11_3 1_555 1_555
H19_3 C32_3 1_555 1_555
N5_3 C15_3 1_555 1_555
H20_3 N5_3 1_555 1_555
C3_3 O2_3 1_555 1_555
C9_3 C10_3 1_555 1_555
C32_3 N5_3 1_555 1_555
Cd2_4 O1_3 1_555 1_555
O7_6 Cd2_4 1_555 1_555
O7_7 Cd2_5 1_555 1_555
O14_2 Cd2_5 1_555 1_555
C34_3 H23_3 1_555 1_555
C35_3 C37_3 1_555 1_555
C37_3 C34_3 1_555 1_555
C38_3 C37_3 1_555 1_555
C39_3 C38_3 1_555 1_555
C41_3 C39_3 1_555 1_555
H27_3 C41_3 1_555 1_555
C42_3 C34_3 1_555 1_555
C43_3 C42_3 1_555 1_555
C45_3 C39_3 1_555 1_555
O16 C46_3 1_555 1_555
O18 C46_3 1_555 1_555
C46_3 C47_3 1_555 1_555
C47_3 C49_3 1_555 1_555
C48_3 C43_3 1_555 1_555
H29_3 C48_3 1_555 1_555
C49_3 C48_3 1_555 1_555
H30_3 C49_3 1_555 1_555
C64_3 C43_3 1_555 1_555
H41_3 C64_3 1_555 1_555
N10_3 C47_3 1_555 1_555
H42_3 N10_3 1_555 1_555
C35_3 O9_3 1_555 1_555
C41_3 C42_3 1_555 1_555
C45_3 O13_3 1_555 1_555
C64_3 N10_3 1_555 1_555
O7_8 Cd2_6 1_555 1_555
H21_3 O7_8 1_555 1_555
O12_2 Cd2_6 1_555 1_555
Cd7 O12_2 1_555 1_555
C36_3 H24_3 1_555 1_555
C40_3 C33_3 1_555 1_555
C44_3 C33_3 1_555 1_555
H28_3 C44_3 1_555 1_555
C50_3 C40_3 1_555 1_555
H31_3 C50_3 1_555 1_555
C51_3 C50_3 1_555 1_555
H32_3 C51_3 1_555 1_555
C52_3 C36_3 1_555 1_555
C53_3 C36_3 1_555 1_555
H33_3 C53_3 1_555 1_555
C54_3 C52_3 1_555 1_555
C55_3 C56_3 1_555 1_555
C56_3 H34_3 1_555 1_555
C57_3 C54_3 1_555 1_555
H35_3 C57_3 1_555 1_555
C58_3 C54_3 1_555 1_555
H36_3 C58_3 1_555 1_555
C59_3 C55_3 1_555 1_555
H37_3 C59_3 1_555 1_555
C60_3 C55_3 1_555 1_555
N7_3 C60_3 1_555 1_555
C61_3 C60_3 1_555 1_555
H38_3 C61_3 1_555 1_555
C66_2 N7_3 1_555 1_555
N9_3 C61_3 1_555 1_555
C40_3 C53_3 1_555 1_555
C51_3 C52_3 1_555 1_555
C56_3 C58_3 1_555 1_555
C57_3 C59_3 1_555 1_555
C66_2 N9_3 1_555 1_555
N6_3 H26_3 1_555 1_555
N8_3 Cd7 1_555 1_555
C63_3 N6_3 1_555 1_555
H40_3 C63_3 1_555 1_555
N8_3 C63_3 1_555 1_555
C36_4 H24_4 1_555 1_555
C52_4 C36_4 1_555 1_555
C53_4 C36_4 1_555 1_555
H33_4 C53_4 1_555 1_555
C54_4 C52_4 1_555 1_555
C55_4 C56_4 1_555 1_555
C56_4 H34_4 1_555 1_555
C57_4 C54_4 1_555 1_555
H35_4 C57_4 1_555 1_555
C58_4 C54_4 1_555 1_555
H36_4 C58_4 1_555 1_555
C59_4 C55_4 1_555 1_555
H37_4 C59_4 1_555 1_555
C60_4 C55_4 1_555 1_555
N7_4 C60_4 1_555 1_555
C61_4 C60_4 1_555 1_555
H38_4 C61_4 1_555 1_555
C66 N7_4 1_555 1_555
N9_4 C61_4 1_555 1_555
H39_4 N9_4 1_555 1_555
C40_4 C53_4 1_555 1_555
C51_4 C52_4 1_555 1_555
C56_4 C58_4 1_555 1_555
C57_4 C59_4 1_555 1_555
C66 N9_4 1_555 1_555
C9_4 C7_4 1_555 1_555
H5_4 C9_4 1_555 1_555
C13_4 C7_4 1_555 1_555
O6_2 C13_4 1_555 1_555
H19_4 C32_4 1_555 1_555
C34_4 H23_4 1_555 1_555
C35_4 C37_4 1_555 1_555
C37_4 C34_4 1_555 1_555
C38_4 C37_4 1_555 1_555
C42_4 C34_4 1_555 1_555
C43_4 C42_4 1_555 1_555
C44_4 C33_4 1_555 1_555
H28_4 C44_4 1_555 1_555
O16_2 C46_4 1_555 1_555
O18_2 C46_4 1_555 1_555
C46_4 C47_4 1_555 1_555
C47_4 C49_4 1_555 1_555
C48_4 C43_4 1_555 1_555
H29_4 C48_4 1_555 1_555
C49_4 C48_4 1_555 1_555
H30_4 C49_4 1_555 1_555
H31_4 C50_4 1_555 1_555
N10_4 C47_4 1_555 1_555
C35_4 O9_4 1_555 1_555
Cd9 O8_2 1_555 1_555
N8_4 Cd9 1_555 1_555
Cd8 O5_2 1_555 1_555
Cd10_3 O5_2 1_555 1_555
O20_2 Cd9 1_555 1_555
O8_2 Cd10_3 1_555 1_555
Cd10_3 O20_2 1_555 1_555
C2_4 H1_4 1_555 1_555
C3_4 C5_4 1_555 1_555
C5_4 C2_4 1_555 1_555
C6_4 C5_4 1_555 1_555
C10_4 C2_4 1_555 1_555
C11_4 C10_4 1_555 1_555
C12_4 C1_4 1_555 1_555
H6_4 C12_4 1_555 1_555
O15_2 C14_4 1_555 1_555
O17_2 C14_4 1_555 1_555
C14_4 C15_4 1_555 1_555
C15_4 C17_4 1_555 1_555
C16_4 C11_4 1_555 1_555
H7_4 C16_4 1_555 1_555
C17_4 C16_4 1_555 1_555
H8_4 C17_4 1_555 1_555
H9_4 C18_4 1_555 1_555
N5_4 C15_4 1_555 1_555
C41_4 C39_4 1_555 1_555
H27_4 C41_4 1_555 1_555
C45_4 C39_4 1_555 1_555
H41_4 C64_4 1_555 1_555
C3_4 O2_4 1_555 1_555
C45_4 O13_4 1_555 1_555
Cd8 O1_4 1_555 1_555
Cd10_3 O1_4 1_555 1_555
N3_4 Cd8 1_555 1_555
O7_9 Cd10_3 1_555 1_555
H21_4 O7_9 1_555 1_555
H22_4 O7_9 1_555 1_555
C4_4 H2_4 1_555 1_555
C20_4 C4_4 1_555 1_555
C21_4 C4_4 1_555 1_555
H11_4 C21_4 1_555 1_555
C22_4 C20_4 1_555 1_555
C23_4 C24_4 1_555 1_555
C24_4 H12_4 1_555 1_555
C25_4 C22_4 1_555 1_555
H13_4 C25_4 1_555 1_555
C26_4 C22_4 1_555 1_555
H14_4 C26_4 1_555 1_555
C27_4 C23_4 1_555 1_555
H15_4 C27_4 1_555 1_555
C28_4 C23_4 1_555 1_555
N2_4 C28_4 1_555 1_555
C29_4 C28_4 1_555 1_555
H16_4 C29_4 1_555 1_555
C65 N2_4 1_555 1_555
N4_4 C29_4 1_555 1_555
H17_4 N4_4 1_555 1_555
C8_4 C21_4 1_555 1_555
C19_4 C20_4 1_555 1_555
C24_4 C26_4 1_555 1_555
C25_4 C27_4 1_555 1_555
C65 N4_4 1_555 1_555
N6_4 H26_4 1_555 1_555
C63_4 N6_4 1_555 1_555
H40_4 C63_4 1_555 1_555
N1_4 H4_4 1_555 1_555
C31_4 N1_4 1_555 1_555
H18_4 C31_4 1_555 1_555

#END
