
###############################################################################
#
# This file contains modified crystal structure data generated from the
# MOF subset of the Cambridge Structural Database (CSD) v543 
# hosted by the Cambridge Crystallographic Data Centre (CCDC).
#
# This work is licensed under the Creative Commons
# Attribution-NonCommercial-ShareAlike 4.0 International License.
# To view a copy of this license, visit
# http://creativecommons.org/licenses/by-nc-sa/4.0/
# or send a letter to
# Creative Commons, PO Box 1866, Mountain View, CA 94042, USA.
#
# CIF created using the CSD Python API on 29 September 2022
# The structure has been converted into the P1 space group
# The structure has a 3D framework
# The original CSD entry OTAGAU is in the monoclinic crystal system
# The framework has been calculated to contain at least 10.0% void space
# The void calculation uses a probe of radius 1.32A, grid spacing 0.4
# H atom positions have been added when not included in the experimental data
#
###############################################################################

data_OTAGAU
_chemical_formula_moiety         '(C168 H112 N8 O60 Zn14)n'
_symmetry_cell_setting           triclinic
_symmetry_space_group_name_H-M   'P 1'
_symmetry_Int_Tables_number      1
_space_group_name_Hall           'P 1'
loop_
_symmetry_equiv_pos_site_id
_symmetry_equiv_pos_as_xyz
1 x,y,z
_cell_length_a                   24.677(5)
_cell_length_b                   21.780(5)
_cell_length_c                   25.025(5)
_cell_angle_alpha                90
_cell_angle_beta                 109.500(5)
_cell_angle_gamma                90
_cell_volume                     12678.6
loop_
_atom_site_label
_atom_site_type_symbol
_atom_site_fract_x
_atom_site_fract_y
_atom_site_fract_z
Zn1 Zn 0.23629(2) 0.08228(3) 0.26676(2)
O15 O 0.3750(5) 0.0215(5) 0.3554(5)
Zn10 Zn 0.71308(3) 0.03690(3) 0.65749(3)
O16 O 0.26580(18) 0.1218(2) 0.3405(2)
O17 O 0.33426(17) 0.05621(19) 0.20565(18)
O19 O 0.26935(17) 0.12347(18) 0.21478(18)
O20 O 0.15566(18) 0.1046(2) 0.23432(18)
O21 O 0.1181(2) 0.0095(3) 0.2165(3)
O22 O 0.2772(4) 0.0338(3) 0.3857(3)
H27 H 0.36586 0.066015 0.35123
H28 H 0.402842 0.0134629 0.393819
Zn2 Zn 0.30099(2) 0.97927(3) 0.22075(2)
Zn3 Zn 0.28692(3) 0.96310(3) 0.34251(3)
Zn4 Zn 0.17944(3) 0.95332(3) 0.23133(3)
O1 O 0.25207(13) 0.99579(14) 0.26509(13)
O2 O 0.73420(18) 0.8782(2) 0.6595(2)
O3 O 0.66574(17) 0.55621(19) 0.29435(18)
O4 O 0.26049(18) 0.5548(2) 0.64486(17)
O5 O 0.36510(16) 0.92404(18) 0.25447(18)
O6 O 0.73065(17) 0.62347(18) 0.28522(18)
O9 O 0.2339(2) 0.9018(2) 0.3560(2)
N1 N 0.5963(2) 0.7919(3) 0.4074(2)
O10 O 0.7228(4) 0.9662(3) 0.6143(3)
C1 C 0.5391(3) 0.8156(3) 0.3796(3)
C2 C 0.1428(3) 0.7697(3) 0.3071(3)
H1 H 0.134923 0.774676 0.268309
C3 C 0.6890(3) 0.8148(3) 0.5554(3)
H2 H 0.708964 0.791185 0.586827
O11 O 0.3446(3) 0.9081(3) 0.3316(3)
O12 O 0.1746(2) 0.8781(2) 0.2672(2)
C4 C 0.1869(3) 0.8043(3) 0.4005(3)
H3 H 0.210203 0.832150 0.426075
C5 C 0.6598(3) 0.7866(3) 0.5046(3)
H4 H 0.661053 0.744056 0.501709
C6 C 0.5191(3) 0.8266(3) 0.3228(3)
H5 H 0.541804 0.816436 0.301000
C7 C 0.1208(3) 0.7205(3) 0.3263(3)
H6 H 0.097916 0.692308 0.300635
C8 C 0.1323(3) 0.7120(3) 0.3835(3)
O13 O 0.1771(2) 0.5752(2) 0.6575(2)
N2 N 0.1088(2) 0.6618(3) 0.4039(2)
C9 C 0.2091(3) 0.5746(3) 0.6283(3)
C10 C 0.6084(3) 0.6515(3) 0.3287(3)
H7 H 0.586062 0.617857 0.311821
C11 C 0.6890(3) 0.6091(3) 0.3004(2)
C12 C 0.6971(3) 0.7057(3) 0.3551(3)
H8 H 0.734752 0.708909 0.355218
C13 C 0.0531(3) 0.6389(3) 0.3719(3)
C14 C 0.1839(3) 0.5970(3) 0.5695(2)
C15 C 0.6644(2) 0.6569(3) 0.3290(2)
C16 C 0.4648(3) 0.8532(3) 0.2965(3)
H9 H 0.451164 0.858768 0.257466
C17 C 0.2160(3) 0.6028(3) 0.5339(3)
H10 H 0.254664 0.592070 0.546803
C19 C 0.0427(3) 0.5771(4) 0.3702(3)
H12 H 0.072699 0.550187 0.387615
C20 C 0.7181(4) 0.9093(4) 0.6163(3)
C21 C 0.1263(3) 0.6127(4) 0.5493(3)
H13 H 0.103960 0.608738 0.572646
C23 C 0.4323(3) 0.8705(3) 0.3280(3)
C24 C 0.1345(3) 0.6402(3) 0.4600(3)
C25 C 0.1765(3) 0.8126(3) 0.3442(3)
C26 C 0.4535(3) 0.8593(5) 0.3861(4)
H14 H 0.432531 0.872278 0.408742
C27 C 0.6886(3) 0.8775(3) 0.5598(3)
C28 C 0.6290(3) 0.8203(3) 0.4587(2)
C29 C 0.6197(3) 0.7473(3) 0.3806(2)
C30 C 0.1966(4) 0.8684(3) 0.3214(4)
C32 C 0.0095(3) 0.6800(3) 0.3452(3)
H15 H 0.016165 0.722133 0.346740
C33 C 0.5860(3) 0.6970(3) 0.3540(3)
H16 H 0.548200 0.694137 0.353392
C35 C 0.1912(3) 0.6245(4) 0.4792(3)
H18 H 0.213130 0.628285 0.455602
C36 C 0.1641(3) 0.7562(3) 0.4204(3)
H19 H 0.170017 0.753020 0.459004
C37 C 0.3768(3) 0.9030(3) 0.3028(4)
C38 C 0.6753(3) 0.7505(3) 0.3812(3)
H20 H 0.698571 0.783073 0.399412
C39 C 0.6605(4) 0.9112(3) 0.5120(3)
H21 H 0.662449 0.953842 0.513984
C40 C 0.1020(3) 0.6343(4) 0.4949(3)
H22 H 0.063285 0.644895 0.481573
C41 C 0.5044(3) 0.8295(4) 0.4103(3)
H23 H 0.515644 0.818500 0.448400
O14 O 0.3337(4) 0.9290(6) 0.4332(4)
C42 C 0.6301(4) 0.8842(4) 0.4620(3)
H24 H 0.610447 0.907858 0.430636
Zn6 Zn 0.76371(2) 0.58228(3) 0.23324(2)
Zn7 Zn 0.76371(2) 0.91772(3) 0.73324(2)
Zn8 Zn 0.69901(2) 0.47927(3) 0.27925(2)
Zn9 Zn 0.30099(2) 0.52073(3) 0.72075(2)
Zn12 Zn 0.17944(3) 0.54668(3) 0.73133(3)
O18 O 0.26049(18) 0.9452(2) 0.14486(17)
O23 O 0.1771(2) 0.9248(2) 0.1575(2)
H25 H 0.344894 0.964702 0.459263
H26 H 0.307746 0.901731 0.445375
O7 O 0.84434(18) 0.6046(2) 0.26568(18)
O8 O 0.8819(2) 0.5095(3) 0.2835(3)
C18 C 0.9891(3) 0.5545(3) 0.3433(4)
H11 H 0.982577 0.512535 0.344648
C22 C 0.9446(3) 0.5920(3) 0.3143(3)
C31 C 0.8858(3) 0.5672(4) 0.2868(3)
C34 C 0.9547(3) 0.6556(3) 0.3157(3)
H17 H 0.924860 0.682006 0.296836
Zn11 Zn 0.82056(3) 0.45332(3) 0.26867(3)
C18_2 C 0.0109(3) 0.0545(3) 0.1567(4)
H11_2 H 0.017423 0.012535 0.155352
C22_2 C 0.0554(3) 0.0920(3) 0.1857(3)
C31_2 C 0.1142(3) 0.0672(4) 0.2132(3)
C34_2 C 0.0453(3) 0.1556(3) 0.1843(3)
H17_2 H 0.075140 0.182006 0.203164
Zn3_2 Zn 0.71308(3) 0.46310(3) 0.15749(3)
O1_2 O 0.74793(13) 0.49579(14) 0.23491(13)
O5_2 O 0.63490(16) 0.42404(18) 0.24553(18)
O9_2 O 0.7661(2) 0.4018(2) 0.1440(2)
N1_2 N 0.4037(2) 0.2919(3) 0.0926(2)
C1_2 C 0.4609(3) 0.3156(3) 0.1204(3)
C2_2 C 0.8572(3) 0.2697(3) 0.1929(3)
H1_2 H 0.865077 0.274676 0.231691
O11_2 O 0.6554(3) 0.4081(3) 0.1684(3)
O12_2 O 0.8254(2) 0.3781(2) 0.2328(2)
C4_2 C 0.8131(3) 0.3043(3) 0.0995(3)
H3_2 H 0.789797 0.332150 0.073925
C6_2 C 0.4809(3) 0.3266(3) 0.1772(3)
H5_2 H 0.458196 0.316436 0.199000
C7_2 C 0.8792(3) 0.2205(3) 0.1737(3)
H6_2 H 0.902084 0.192308 0.199365
C8_2 C 0.8677(3) 0.2120(3) 0.1165(3)
N2_2 N 0.8912(2) 0.1618(3) 0.0961(2)
C10_2 C 0.3916(3) 0.1515(3) 0.1713(3)
H7_2 H 0.413938 0.117857 0.188179
C11_2 C 0.3110(3) 0.1091(3) 0.1996(2)
C12_2 C 0.3029(3) 0.2057(3) 0.1449(3)
H8_2 H 0.265248 0.208909 0.144782
C13_2 C 0.9469(3) 0.1389(3) 0.1281(3)
C15_2 C 0.3356(2) 0.1569(3) 0.1710(2)
C16_2 C 0.5352(3) 0.3532(3) 0.2035(3)
H9_2 H 0.548836 0.358768 0.242534
C19_2 C 0.9573(3) 0.0771(4) 0.1298(3)
H12_2 H 0.927301 0.050187 0.112385
C23_2 C 0.5677(3) 0.3705(3) 0.1720(3)
C24_2 C 0.8655(3) 0.1402(3) 0.0400(3)
C25_2 C 0.8235(3) 0.3126(3) 0.1558(3)
C26_2 C 0.5465(3) 0.3593(5) 0.1139(4)
H14_2 H 0.567469 0.372278 0.091258
C28_2 C 0.3710(3) 0.3203(3) 0.0413(2)
C29_2 C 0.3803(3) 0.2473(3) 0.1194(2)
C30_2 C 0.8034(4) 0.3684(3) 0.1786(4)
C32_2 C 0.9905(3) 0.1800(3) 0.1548(3)
H15_2 H 0.983835 0.222133 0.153260
C33_2 C 0.4140(3) 0.1970(3) 0.1460(3)
H16_2 H 0.451800 0.194137 0.146608
C35_2 C 0.8088(3) 0.1245(4) 0.0208(3)
H18_2 H 0.786870 0.128285 0.044398
C36_2 C 0.8359(3) 0.2562(3) 0.0796(3)
H19_2 H 0.829983 0.253020 0.040996
C37_2 C 0.6232(3) 0.4030(3) 0.1972(4)
C38_2 C 0.3247(3) 0.2505(3) 0.1188(3)
H20_2 H 0.301429 0.283073 0.100588
C40_2 C 0.8980(3) 0.1343(4) 0.0051(3)
H22_2 H 0.936715 0.144895 0.018427
C41_2 C 0.4956(3) 0.3295(4) 0.0897(3)
H23_2 H 0.484356 0.318500 0.051600
O14_2 O 0.6663(4) 0.4290(6) 0.0668(4)
C42_2 C 0.3699(4) 0.3842(4) 0.0380(3)
H24_2 H 0.389553 0.407858 0.069364
O15_2 O 0.6250(5) 0.5215(5) 0.1446(5)
O16_2 O 0.73420(18) 0.6218(2) 0.1595(2)
O18_2 O 0.73951(18) 0.4452(2) 0.35514(17)
O22_2 O 0.7228(4) 0.5338(3) 0.1143(3)
O23_2 O 0.8229(2) 0.4248(2) 0.3425(2)
H25_2 H 0.655106 0.464702 0.0407372
H26_2 H 0.692254 0.401731 0.0546255
H27_2 H 0.63414 0.566015 0.14877
H28_2 H 0.597158 0.513463 0.106181
O2_2 O 0.26580(18) 0.3782(2) 0.8405(2)
O4_2 O 0.73951(18) 0.0548(2) 0.85514(17)
O10_2 O 0.2772(4) 0.4662(3) 0.8857(3)
C3_2 C 0.3110(3) 0.3148(3) 0.9446(3)
H2_2 H 0.291036 0.291185 0.913173
C5_2 C 0.3402(3) 0.2866(3) 0.9954(3)
H4_2 H 0.338947 0.244056 0.998291
O13_2 O 0.8229(2) 0.0752(2) 0.8425(2)
C9_2 C 0.7909(3) 0.0746(3) 0.8717(3)
C14_2 C 0.8161(3) 0.0970(3) 0.9305(2)
C17_2 C 0.7840(3) 0.1028(3) 0.9661(3)
H10_2 H 0.745336 0.092070 0.953197
C20_2 C 0.2819(4) 0.4093(4) 0.8837(3)
C21_2 C 0.8737(3) 0.1127(4) 0.9507(3)
H13_2 H 0.896040 0.108738 0.927354
C27_2 C 0.3114(3) 0.3775(3) 0.9402(3)
C39_2 C 0.3395(4) 0.4112(3) 0.9880(3)
H21_2 H 0.337551 0.453842 0.986016
Zn7_2 Zn 0.23629(2) 0.41772(3) 0.76676(2)
Zn9_2 Zn 0.69901(2) 0.02073(3) 0.77925(2)
Zn10_2 Zn 0.28692(3) 0.53690(3) 0.84251(3)
Zn12_2 Zn 0.82056(3) 0.04668(3) 0.76867(3)
O7_2 O 0.15566(18) 0.3954(2) 0.73432(18)
O8_2 O 0.1181(2) 0.4905(3) 0.7165(3)
C18_3 C 0.0109(3) 0.4455(3) 0.6567(4)
H11_3 H 0.017423 0.487465 0.655352
C22_3 C 0.0554(3) 0.4080(3) 0.6857(3)
C31_3 C 0.1142(3) 0.4328(4) 0.7132(3)
C34_3 C 0.0453(3) 0.3444(3) 0.6843(3)
H17_3 H 0.075140 0.317994 0.703164
O1_3 O 0.74793(13) 0.00421(14) 0.73491(13)
O3_2 O 0.33426(17) 0.44379(19) 0.70565(18)
O5_3 O 0.63490(16) 0.07596(18) 0.74553(18)
O6_2 O 0.26935(17) 0.37653(18) 0.71478(18)
O9_3 O 0.7661(2) 0.0982(2) 0.6440(2)
N1_3 N 0.4037(2) 0.2081(3) 0.5926(2)
C1_3 C 0.4609(3) 0.1844(3) 0.6204(3)
C2_3 C 0.8572(3) 0.2303(3) 0.6929(3)
H1_3 H 0.865077 0.225324 0.731691
C3_3 C 0.3110(3) 0.1852(3) 0.4446(3)
H2_3 H 0.291036 0.208815 0.413173
O11_3 O 0.6554(3) 0.0919(3) 0.6684(3)
O12_3 O 0.8254(2) 0.1219(2) 0.7328(2)
C4_3 C 0.8131(3) 0.1957(3) 0.5995(3)
H3_3 H 0.789797 0.167850 0.573925
C5_3 C 0.3402(3) 0.2134(3) 0.4954(3)
H4_3 H 0.338947 0.255944 0.498291
C6_3 C 0.4809(3) 0.1734(3) 0.6772(3)
H5_3 H 0.458196 0.183564 0.699000
C7_3 C 0.8792(3) 0.2795(3) 0.6737(3)
H6_3 H 0.902084 0.307692 0.699365
C8_3 C 0.8677(3) 0.2880(3) 0.6165(3)
N2_3 N 0.8912(2) 0.3382(3) 0.5961(2)
C9_3 C 0.7909(3) 0.4254(3) 0.3717(3)
C10_3 C 0.3916(3) 0.3485(3) 0.6713(3)
H7_3 H 0.413938 0.382143 0.688179
C11_3 C 0.3110(3) 0.3909(3) 0.6996(2)
C12_3 C 0.3029(3) 0.2943(3) 0.6449(3)
H8_3 H 0.265248 0.291091 0.644782
C13_3 C 0.9469(3) 0.3611(3) 0.6281(3)
C14_3 C 0.8161(3) 0.4030(3) 0.4305(2)
C15_3 C 0.3356(2) 0.3431(3) 0.6710(2)
C16_3 C 0.5352(3) 0.1468(3) 0.7035(3)
H9_3 H 0.548836 0.141232 0.742534
C17_3 C 0.7840(3) 0.3972(3) 0.4661(3)
H10_3 H 0.745336 0.407930 0.453197
C19_3 C 0.9573(3) 0.4229(4) 0.6298(3)
H12_3 H 0.927301 0.449813 0.612385
C20_3 C 0.2819(4) 0.0907(4) 0.3837(3)
C21_3 C 0.8737(3) 0.3873(4) 0.4507(3)
H13_3 H 0.896040 0.391262 0.427354
C23_3 C 0.5677(3) 0.1295(3) 0.6720(3)
C24_3 C 0.8655(3) 0.3598(3) 0.5400(3)
C25_3 C 0.8235(3) 0.1874(3) 0.6558(3)
C26_3 C 0.5465(3) 0.1407(5) 0.6139(4)
H14_3 H 0.567469 0.127722 0.591258
C27_3 C 0.3114(3) 0.1225(3) 0.4402(3)
C28_3 C 0.3710(3) 0.1797(3) 0.5413(2)
C29_3 C 0.3803(3) 0.2527(3) 0.6194(2)
C30_3 C 0.8034(4) 0.1316(3) 0.6786(4)
C32_3 C 0.9905(3) 0.3200(3) 0.6548(3)
H15_3 H 0.983835 0.277867 0.653260
C33_3 C 0.4140(3) 0.3030(3) 0.6460(3)
H16_3 H 0.451800 0.305863 0.646608
C35_3 C 0.8088(3) 0.3755(4) 0.5208(3)
H18_3 H 0.786870 0.371715 0.544398
C36_3 C 0.8359(3) 0.2438(3) 0.5796(3)
H19_3 H 0.829983 0.246980 0.540996
C37_3 C 0.6232(3) 0.0970(3) 0.6972(4)
C38_3 C 0.3247(3) 0.2495(3) 0.6188(3)
H20_3 H 0.301429 0.216927 0.600588
C39_3 C 0.3395(4) 0.0888(3) 0.4880(3)
H21_3 H 0.337551 0.046158 0.486016
C40_3 C 0.8980(3) 0.3657(4) 0.5051(3)
H22_3 H 0.936715 0.355105 0.518427
C41_3 C 0.4956(3) 0.1705(4) 0.5897(3)
H23_3 H 0.484356 0.181500 0.551600
O14_3 O 0.6663(4) 0.0710(6) 0.5668(4)
C42_3 C 0.3699(4) 0.1158(4) 0.5380(3)
H24_3 H 0.389553 0.092142 0.569364
H25_3 H 0.655106 0.0352984 0.540737
H26_3 H 0.692254 0.0982691 0.554625
O15_3 O 0.6250(5) 0.9785(5) 0.6446(5)
O17_2 O 0.66574(17) 0.94379(19) 0.79435(18)
O19_2 O 0.73065(17) 0.87653(18) 0.78522(18)
O20_2 O 0.84434(18) 0.8954(2) 0.76568(18)
O21_2 O 0.8819(2) 0.9905(3) 0.7835(3)
H27_3 H 0.63414 0.933985 0.64877
H28_3 H 0.597158 0.986537 0.606181
C3_4 C 0.6890(3) 0.6852(3) 0.0554(3)
H2_4 H 0.708964 0.708815 0.086827
C5_4 C 0.6598(3) 0.7134(3) 0.0046(3)
H4_4 H 0.661053 0.755944 0.001709
C9_4 C 0.2091(3) 0.9254(3) 0.1283(3)
C14_4 C 0.1839(3) 0.9030(3) 0.0695(2)
C17_4 C 0.2160(3) 0.8972(3) 0.0339(3)
H10_4 H 0.254664 0.907930 0.046803
C20_4 C 0.7181(4) 0.5907(4) 0.1163(3)
C21_4 C 0.1263(3) 0.8873(4) 0.0493(3)
H13_4 H 0.103960 0.891262 0.072646
C27_4 C 0.6886(3) 0.6225(3) 0.0598(3)
C39_4 C 0.6605(4) 0.5888(3) 0.0120(3)
H21_4 H 0.662449 0.546158 0.013984
O1_4 O 0.25207(13) 0.50421(14) 0.76509(13)
O5_4 O 0.36510(16) 0.57596(18) 0.75447(18)
O9_4 O 0.2339(2) 0.5982(2) 0.8560(2)
N1_4 N 0.5963(2) 0.7081(3) 0.9074(2)
C1_4 C 0.5391(3) 0.6844(3) 0.8796(3)
C2_4 C 0.1428(3) 0.7303(3) 0.8071(3)
H1_4 H 0.134923 0.725324 0.768309
O11_4 O 0.3446(3) 0.5919(3) 0.8316(3)
O12_4 O 0.1746(2) 0.6219(2) 0.7672(2)
C4_4 C 0.1869(3) 0.6957(3) 0.9005(3)
H3_4 H 0.210203 0.667850 0.926075
C6_4 C 0.5191(3) 0.6734(3) 0.8228(3)
H5_4 H 0.541804 0.683564 0.801000
C7_4 C 0.1208(3) 0.7795(3) 0.8263(3)
H6_4 H 0.097916 0.807692 0.800635
C8_4 C 0.1323(3) 0.7880(3) 0.8835(3)
N2_4 N 0.1088(2) 0.8382(3) 0.9039(2)
C10_4 C 0.6084(3) 0.8485(3) 0.8287(3)
H7_4 H 0.586062 0.882143 0.811821
C11_4 C 0.6890(3) 0.8909(3) 0.8004(2)
C12_4 C 0.6971(3) 0.7943(3) 0.8551(3)
H8_4 H 0.734752 0.791091 0.855218
C13_4 C 0.0531(3) 0.8611(3) 0.8719(3)
C15_4 C 0.6644(2) 0.8431(3) 0.8290(2)
C16_4 C 0.4648(3) 0.6468(3) 0.7965(3)
H9_4 H 0.451164 0.641232 0.757466
C19_4 C 0.0427(3) 0.9229(4) 0.8702(3)
H12_4 H 0.072699 0.949813 0.887615
C23_4 C 0.4323(3) 0.6295(3) 0.8280(3)
C24_4 C 0.1345(3) 0.8598(3) 0.9600(3)
C25_4 C 0.1765(3) 0.6874(3) 0.8442(3)
C26_4 C 0.4535(3) 0.6407(5) 0.8861(4)
H14_4 H 0.432531 0.627722 0.908742
C28_4 C 0.6290(3) 0.6797(3) 0.9587(2)
C29_4 C 0.6197(3) 0.7527(3) 0.8806(2)
C30_4 C 0.1966(4) 0.6316(3) 0.8214(4)
C32_4 C 0.0095(3) 0.8200(3) 0.8452(3)
H15_4 H 0.016165 0.777867 0.846740
C33_4 C 0.5860(3) 0.8030(3) 0.8540(3)
H16_4 H 0.548200 0.805863 0.853392
C35_4 C 0.1912(3) 0.8755(4) 0.9792(3)
H18_4 H 0.213130 0.871715 0.955602
C36_4 C 0.1641(3) 0.7438(3) 0.9204(3)
H19_4 H 0.170017 0.746980 0.959004
C37_4 C 0.3768(3) 0.5970(3) 0.8028(4)
C38_4 C 0.6753(3) 0.7495(3) 0.8812(3)
H20_4 H 0.698571 0.716927 0.899412
C40_4 C 0.1020(3) 0.8657(4) 0.9949(3)
H22_4 H 0.063285 0.855105 0.981573
C41_4 C 0.5044(3) 0.6705(4) 0.9103(3)
H23_4 H 0.515644 0.681500 0.948400
O14_4 O 0.3337(4) 0.5710(6) 0.9332(4)
C42_4 C 0.6301(4) 0.6158(4) 0.9620(3)
H24_4 H 0.610447 0.592142 0.930636
O15_4 O 0.3750(5) 0.4785(5) 0.8554(5)
H25_4 H 0.344894 0.535298 0.959263
H26_4 H 0.307746 0.598269 0.945375
H27_4 H 0.36586 0.433985 0.85123
H28_4 H 0.402842 0.486537 0.893819
C18_4 C 0.9891(3) 0.9455(3) 0.8433(4)
H11_4 H 0.982577 0.987465 0.844648
C22_4 C 0.9446(3) 0.9080(3) 0.8143(3)
C31_4 C 0.8858(3) 0.9328(4) 0.7868(3)
C34_4 C 0.9547(3) 0.8444(3) 0.8157(3)
H17_4 H 0.924860 0.817994 0.796836
loop_
_geom_bond_atom_site_label_1
_geom_bond_atom_site_label_2
_geom_bond_site_symmetry_1
_geom_bond_site_symmetry_2
O16 Zn1 1_555 1_555
O19 Zn1 1_555 1_555
O20 Zn1 1_555 1_555
O15 H27 1_555 1_555
O15 H28 1_555 1_555
Zn2 O1 1_555 1_555
Zn3 O1 1_555 1_555
Zn4 O1 1_555 1_555
O2 C20 1_555 1_555
O3 C11 1_555 1_555
O4 C9 1_555 1_555
O5 Zn2 1_555 1_555
O6 C11 1_555 1_555
O9 Zn3 1_555 1_555
N1 C1 1_555 1_555
O10 C20 1_555 1_555
C1 C6 1_555 1_555
C2 H1 1_555 1_555
C3 H2 1_555 1_555
O11 Zn3 1_555 1_555
O12 Zn4 1_555 1_555
C4 H3 1_555 1_555
C5 C3 1_555 1_555
H4 C5 1_555 1_555
C6 H5 1_555 1_555
C7 C2 1_555 1_555
H6 C7 1_555 1_555
C8 C7 1_555 1_555
O13 C9 1_555 1_555
N2 C8 1_555 1_555
C9 C14 1_555 1_555
C10 H7 1_555 1_555
C11 C15 1_555 1_555
C12 H8 1_555 1_555
C13 N2 1_555 1_555
C14 C17 1_555 1_555
C15 C10 1_555 1_555
C16 C6 1_555 1_555
H9 C16 1_555 1_555
C17 H10 1_555 1_555
C19 C13 1_555 1_555
H12 C19 1_555 1_555
C20 C27 1_555 1_555
C21 C14 1_555 1_555
H13 C21 1_555 1_555
C23 C16 1_555 1_555
C24 N2 1_555 1_555
C25 C2 1_555 1_555
C26 C23 1_555 1_555
H14 C26 1_555 1_555
C27 C3 1_555 1_555
C28 N1 1_555 1_555
C29 N1 1_555 1_555
C30 O9 1_555 1_555
C32 C13 1_555 1_555
H15 C32 1_555 1_555
C33 C10 1_555 1_555
H16 C33 1_555 1_555
C35 C17 1_555 1_555
H18 C35 1_555 1_555
C36 C4 1_555 1_555
H19 C36 1_555 1_555
C37 O5 1_555 1_555
C38 C12 1_555 1_555
H20 C38 1_555 1_555
C39 C27 1_555 1_555
H21 C39 1_555 1_555
C40 C21 1_555 1_555
H22 C40 1_555 1_555
C41 C1 1_555 1_555
H23 C41 1_555 1_555
O14 Zn3 1_555 1_555
C42 C28 1_555 1_555
H24 C42 1_555 1_555
Zn6 O6 1_555 1_555
Zn7 O2 1_555 1_555
Zn8 O3 1_555 1_555
Zn9 O4 1_555 1_555
Zn12 O13 1_555 1_555
O18 Zn2 1_555 1_555
O23 Zn4 1_555 1_555
O11 C37 1_555 1_555
O12 C30 1_555 1_555
C4 C25 1_555 1_555
C5 C28 1_555 1_555
C8 C36 1_555 1_555
C12 C15 1_555 1_555
C23 C37 1_555 1_555
C24 C35 1_555 1_555
C24 C40 1_555 1_555
C25 C30 1_555 1_555
C26 C41 1_555 1_555
C29 C33 1_555 1_555
C29 C38 1_555 1_555
C39 C42 1_555 1_555
O14 H25 1_555 1_555
O14 H26 1_555 1_555
O7 C31 1_555 1_555
O8 C31 1_555 1_555
C18 H11 1_555 1_555
C22 C18 1_555 1_555
C31 C22 1_555 1_555
C34 C22 1_555 1_555
H17 C34 1_555 1_555
Zn6 O7 1_555 1_555
Zn11 O8 1_555 1_555
O20 C31_2 1_555 1_555
O21 C31_2 1_555 1_555
C18_2 H11_2 1_555 1_555
C22_2 C18_2 1_555 1_555
C31_2 C22_2 1_555 1_555
C34_2 C22_2 1_555 1_555
H17_2 C34_2 1_555 1_555
Zn6 O1_2 1_555 1_555
Zn8 O1_2 1_555 1_555
Zn3_2 O1_2 1_555 1_555
Zn11 O1_2 1_555 1_555
O17 C11_2 1_555 1_555
O5_2 Zn8 1_555 1_555
O19 C11_2 1_555 1_555
O9_2 Zn3_2 1_555 1_555
N1_2 C1_2 1_555 1_555
C1_2 C6_2 1_555 1_555
C2_2 H1_2 1_555 1_555
O11_2 Zn3_2 1_555 1_555
O12_2 Zn11 1_555 1_555
C4_2 H3_2 1_555 1_555
C6_2 H5_2 1_555 1_555
C7_2 C2_2 1_555 1_555
H6_2 C7_2 1_555 1_555
C8_2 C7_2 1_555 1_555
N2_2 C8_2 1_555 1_555
C10_2 H7_2 1_555 1_555
C11_2 C15_2 1_555 1_555
C12_2 H8_2 1_555 1_555
C13_2 N2_2 1_555 1_555
C15_2 C10_2 1_555 1_555
C16_2 C6_2 1_555 1_555
H9_2 C16_2 1_555 1_555
C19_2 C13_2 1_555 1_555
H12_2 C19_2 1_555 1_555
C23_2 C16_2 1_555 1_555
C24_2 N2_2 1_555 1_555
C25_2 C2_2 1_555 1_555
C26_2 C23_2 1_555 1_555
H14_2 C26_2 1_555 1_555
C28_2 N1_2 1_555 1_555
C29_2 N1_2 1_555 1_555
C30_2 O9_2 1_555 1_555
C32_2 C13_2 1_555 1_555
H15_2 C32_2 1_555 1_555
C33_2 C10_2 1_555 1_555
H16_2 C33_2 1_555 1_555
H18_2 C35_2 1_555 1_555
C36_2 C4_2 1_555 1_555
H19_2 C36_2 1_555 1_555
C37_2 O5_2 1_555 1_555
C38_2 C12_2 1_555 1_555
H20_2 C38_2 1_555 1_555
H22_2 C40_2 1_555 1_555
C41_2 C1_2 1_555 1_555
H23_2 C41_2 1_555 1_555
O14_2 Zn3_2 1_555 1_555
C42_2 C28_2 1_555 1_555
H24_2 C42_2 1_555 1_555
O15_2 Zn3_2 1_555 1_555
O16_2 Zn6 1_555 1_555
O18_2 Zn8 1_555 1_555
O22_2 Zn3_2 1_555 1_555
O23_2 Zn11 1_555 1_555
O11_2 C37_2 1_555 1_555
O12_2 C30_2 1_555 1_555
C4_2 C25_2 1_555 1_555
C8_2 C36_2 1_555 1_555
C12_2 C15_2 1_555 1_555
C23_2 C37_2 1_555 1_555
C24_2 C35_2 1_555 1_555
C24_2 C40_2 1_555 1_555
C25_2 C30_2 1_555 1_555
C26_2 C41_2 1_555 1_555
C29_2 C33_2 1_555 1_555
C29_2 C38_2 1_555 1_555
O14_2 H25_2 1_555 1_555
O14_2 H26_2 1_555 1_555
O15_2 H27_2 1_555 1_555
O15_2 H28_2 1_555 1_555
O2_2 C20_2 1_555 1_555
O4_2 C9_2 1_555 1_555
O10_2 C20_2 1_555 1_555
C3_2 H2_2 1_555 1_555
C5_2 C3_2 1_555 1_555
H4_2 C5_2 1_555 1_555
O13_2 C9_2 1_555 1_555
C9_2 C14_2 1_555 1_555
C14_2 C17_2 1_555 1_555
C17_2 H10_2 1_555 1_555
C20_2 C27_2 1_555 1_555
C21_2 C14_2 1_555 1_555
H13_2 C21_2 1_555 1_555
C27_2 C3_2 1_555 1_555
C39_2 C27_2 1_555 1_555
H21_2 C39_2 1_555 1_555
Zn7_2 O2_2 1_555 1_555
Zn9_2 O4_2 1_555 1_555
Zn10_2 O10_2 1_555 1_555
Zn12_2 O13_2 1_555 1_555
O7_2 C31_3 1_555 1_555
O8_2 C31_3 1_555 1_555
C18_3 H11_3 1_555 1_555
C22_3 C18_3 1_555 1_555
C31_3 C22_3 1_555 1_555
C34_3 C22_3 1_555 1_555
H17_3 C34_3 1_555 1_555
Zn7_2 O7_2 1_555 1_555
Zn12 O8_2 1_555 1_555
Zn9_2 O1_3 1_555 1_555
Zn10 O1_3 1_555 1_555
Zn12_2 O1_3 1_555 1_555
O16 C20_3 1_555 1_555
O3_2 C11_3 1_555 1_555
O18_2 C9_3 1_555 1_555
O5_3 Zn9_2 1_555 1_555
O6_2 C11_3 1_555 1_555
O9_3 Zn10 1_555 1_555
N1_3 C1_3 1_555 1_555
O22 C20_3 1_555 1_555
C1_3 C6_3 1_555 1_555
C2_3 H1_3 1_555 1_555
C3_3 H2_3 1_555 1_555
O11_3 Zn10 1_555 1_555
O12_3 Zn12_2 1_555 1_555
C4_3 H3_3 1_555 1_555
C5_3 C3_3 1_555 1_555
H4_3 C5_3 1_555 1_555
C6_3 H5_3 1_555 1_555
C7_3 C2_3 1_555 1_555
H6_3 C7_3 1_555 1_555
C8_3 C7_3 1_555 1_555
O23_2 C9_3 1_555 1_555
N2_3 C8_3 1_555 1_555
C9_3 C14_3 1_555 1_555
C10_3 H7_3 1_555 1_555
C11_3 C15_3 1_555 1_555
C12_3 H8_3 1_555 1_555
C13_3 N2_3 1_555 1_555
C14_3 C17_3 1_555 1_555
C15_3 C10_3 1_555 1_555
C16_3 C6_3 1_555 1_555
H9_3 C16_3 1_555 1_555
C17_3 H10_3 1_555 1_555
C19_3 C13_3 1_555 1_555
H12_3 C19_3 1_555 1_555
C20_3 C27_3 1_555 1_555
C21_3 C14_3 1_555 1_555
H13_3 C21_3 1_555 1_555
C23_3 C16_3 1_555 1_555
C24_3 N2_3 1_555 1_555
C25_3 C2_3 1_555 1_555
C26_3 C23_3 1_555 1_555
H14_3 C26_3 1_555 1_555
C27_3 C3_3 1_555 1_555
C28_3 N1_3 1_555 1_555
C29_3 N1_3 1_555 1_555
C30_3 O9_3 1_555 1_555
C32_3 C13_3 1_555 1_555
H15_3 C32_3 1_555 1_555
C33_3 C10_3 1_555 1_555
H16_3 C33_3 1_555 1_555
C35_3 C17_3 1_555 1_555
H18_3 C35_3 1_555 1_555
C36_3 C4_3 1_555 1_555
H19_3 C36_3 1_555 1_555
C37_3 O5_3 1_555 1_555
C38_3 C12_3 1_555 1_555
H20_3 C38_3 1_555 1_555
C39_3 C27_3 1_555 1_555
H21_3 C39_3 1_555 1_555
C40_3 C21_3 1_555 1_555
H22_3 C40_3 1_555 1_555
C41_3 C1_3 1_555 1_555
H23_3 C41_3 1_555 1_555
O14_3 Zn10 1_555 1_555
C42_3 C28_3 1_555 1_555
H24_3 C42_3 1_555 1_555
Zn7_2 O6_2 1_555 1_555
Zn9 O3_2 1_555 1_555
O11_3 C37_3 1_555 1_555
O12_3 C30_3 1_555 1_555
C4_3 C25_3 1_555 1_555
C5_3 C28_3 1_555 1_555
C8_3 C36_3 1_555 1_555
C12_3 C15_3 1_555 1_555
C23_3 C37_3 1_555 1_555
C24_3 C35_3 1_555 1_555
C24_3 C40_3 1_555 1_555
C25_3 C30_3 1_555 1_555
C26_3 C41_3 1_555 1_555
C29_3 C33_3 1_555 1_555
C29_3 C38_3 1_555 1_555
C39_3 C42_3 1_555 1_555
O14_3 H25_3 1_555 1_555
O14_3 H26_3 1_555 1_555
O19_2 Zn7 1_555 1_555
O20_2 Zn7 1_555 1_555
O15_3 H27_3 1_555 1_555
O15_3 H28_3 1_555 1_555
O16_2 C20_4 1_555 1_555
O18 C9_4 1_555 1_555
O22_2 C20_4 1_555 1_555
C3_4 H2_4 1_555 1_555
C5_4 C3_4 1_555 1_555
H4_4 C5_4 1_555 1_555
O23 C9_4 1_555 1_555
C9_4 C14_4 1_555 1_555
C14_4 C17_4 1_555 1_555
C17_4 H10_4 1_555 1_555
C20_4 C27_4 1_555 1_555
C21_4 C14_4 1_555 1_555
H13_4 C21_4 1_555 1_555
C27_4 C3_4 1_555 1_555
C39_4 C27_4 1_555 1_555
H21_4 C39_4 1_555 1_555
Zn7_2 O1_4 1_555 1_555
Zn9 O1_4 1_555 1_555
Zn10_2 O1_4 1_555 1_555
Zn12 O1_4 1_555 1_555
O17_2 C11_4 1_555 1_555
O5_4 Zn9 1_555 1_555
O19_2 C11_4 1_555 1_555
O9_4 Zn10_2 1_555 1_555
N1_4 C1_4 1_555 1_555
C1_4 C6_4 1_555 1_555
C2_4 H1_4 1_555 1_555
O11_4 Zn10_2 1_555 1_555
O12_4 Zn12 1_555 1_555
C4_4 H3_4 1_555 1_555
C6_4 H5_4 1_555 1_555
C7_4 C2_4 1_555 1_555
H6_4 C7_4 1_555 1_555
C8_4 C7_4 1_555 1_555
N2_4 C8_4 1_555 1_555
C10_4 H7_4 1_555 1_555
C11_4 C15_4 1_555 1_555
C12_4 H8_4 1_555 1_555
C13_4 N2_4 1_555 1_555
C15_4 C10_4 1_555 1_555
C16_4 C6_4 1_555 1_555
H9_4 C16_4 1_555 1_555
C19_4 C13_4 1_555 1_555
H12_4 C19_4 1_555 1_555
C23_4 C16_4 1_555 1_555
C24_4 N2_4 1_555 1_555
C25_4 C2_4 1_555 1_555
C26_4 C23_4 1_555 1_555
H14_4 C26_4 1_555 1_555
C28_4 N1_4 1_555 1_555
C29_4 N1_4 1_555 1_555
C30_4 O9_4 1_555 1_555
C32_4 C13_4 1_555 1_555
H15_4 C32_4 1_555 1_555
C33_4 C10_4 1_555 1_555
H16_4 C33_4 1_555 1_555
H18_4 C35_4 1_555 1_555
C36_4 C4_4 1_555 1_555
H19_4 C36_4 1_555 1_555
C37_4 O5_4 1_555 1_555
C38_4 C12_4 1_555 1_555
H20_4 C38_4 1_555 1_555
H22_4 C40_4 1_555 1_555
C41_4 C1_4 1_555 1_555
H23_4 C41_4 1_555 1_555
O14_4 Zn10_2 1_555 1_555
C42_4 C28_4 1_555 1_555
H24_4 C42_4 1_555 1_555
O15_4 Zn10_2 1_555 1_555
O11_4 C37_4 1_555 1_555
O12_4 C30_4 1_555 1_555
C4_4 C25_4 1_555 1_555
C8_4 C36_4 1_555 1_555
C12_4 C15_4 1_555 1_555
C23_4 C37_4 1_555 1_555
C24_4 C35_4 1_555 1_555
C24_4 C40_4 1_555 1_555
C25_4 C30_4 1_555 1_555
C26_4 C41_4 1_555 1_555
C29_4 C33_4 1_555 1_555
C29_4 C38_4 1_555 1_555
O14_4 H25_4 1_555 1_555
O14_4 H26_4 1_555 1_555
O15_4 H27_4 1_555 1_555
O15_4 H28_4 1_555 1_555
O20_2 C31_4 1_555 1_555
O21_2 C31_4 1_555 1_555
C18_4 H11_4 1_555 1_555
C22_4 C18_4 1_555 1_555
C31_4 C22_4 1_555 1_555
C34_4 C22_4 1_555 1_555
H17_4 C34_4 1_555 1_555

#END
