
###############################################################################
#
# This file contains modified crystal structure data generated from the
# MOF subset of the Cambridge Structural Database (CSD) v543 
# hosted by the Cambridge Crystallographic Data Centre (CCDC).
#
# This work is licensed under the Creative Commons
# Attribution-NonCommercial-ShareAlike 4.0 International License.
# To view a copy of this license, visit
# http://creativecommons.org/licenses/by-nc-sa/4.0/
# or send a letter to
# Creative Commons, PO Box 1866, Mountain View, CA 94042, USA.
#
# CIF created using the CSD Python API on 29 September 2022
# The structure has been converted into the P1 space group
# The structure has a 3D framework
# The original CSD entry OTALUS is in the tetragonal crystal system
# The framework has been calculated to contain at least 10.0% void space
# The void calculation uses a probe of radius 1.32A, grid spacing 0.4
# The framework is charged, counterions have been retained in the structure
#
###############################################################################

data_OTALUS
_chemical_formula_moiety         '(C544 H672 F8 N32 O144 P32 Zn32 8-)n'
_symmetry_cell_setting           triclinic
_symmetry_space_group_name_H-M   'P 1'
_symmetry_Int_Tables_number      1
_space_group_name_Hall           'P 1'
loop_
_symmetry_equiv_pos_site_id
_symmetry_equiv_pos_as_xyz
1 x,y,z
_cell_length_a                   27.581(5)
_cell_length_b                   27.581(5)
_cell_length_c                   43.468(8)
_cell_angle_alpha                90
_cell_angle_beta                 90
_cell_angle_gamma                90
_cell_volume                     33066.6
loop_
_atom_site_label
_atom_site_type_symbol
_atom_site_fract_x
_atom_site_fract_y
_atom_site_fract_z
C1 C 0.2214(3) 0.2397(3) 0.27654(18)
C2 C 0.2002(4) 0.2589(4) 0.25041(17)
C3 C 0.1615(4) 0.2354(4) 0.2367(2)
H1 H 0.1469 0.2486 0.2188
C4 C 0.1440(4) 0.1926(5) 0.2491(3)
H2 H 0.1175 0.1764 0.2397
C5 C 0.1653(4) 0.1733(4) 0.2752(3)
H3 H 0.1533 0.1440 0.2837
C6 C 0.2040(4) 0.1969(3) 0.2890(2)
C7 C 0.2273(6) 0.1681(4) 0.3175(4)
H4 H 0.2562 0.1883 0.3229
C8 C 0.2046(17) 0.1566(9) 0.3492(7)
H5 H 0.2288 0.1404 0.3622
H6 H 0.1766 0.1352 0.3464
H7 H 0.1942 0.1868 0.3590
C9 C 0.2499(11) 0.1236(4) 0.3020(6)
H8 H 0.2682 0.1049 0.3173
H9 H 0.2718 0.1342 0.2855
H10 H 0.2242 0.1033 0.2933
C10 C 0.2210(6) 0.3049(7) 0.2368(3)
H11 H 0.2543 0.3131 0.2443
C11 C 0.1840(10) 0.3439(10) 0.2423(6)
H12 H 0.1778 0.3468 0.2644
H13 H 0.1538 0.3355 0.2317
H14 H 0.1962 0.3748 0.2344
C12 C 0.2175(10) 0.2992(11) 0.2017(4)
H15 H 0.2412 0.2751 0.1947
H16 H 0.2242 0.3304 0.1918
H17 H 0.1848 0.2884 0.1962
C13 C 0.3857(2) 0.49377(17) 0.40065(12)
C14 C 0.3718(3) 0.5374(2) 0.38898(15)
C15 C 0.3724(4) 0.5775(2) 0.40712(19)
H18 H 0.3627 0.6079 0.3990
C16 C 0.3869(3) 0.5741(2) 0.43694(18)
H19 H 0.3874 0.6021 0.4496
C17 C 0.4009(2) 0.5305(2) 0.44862(15)
H20 H 0.4110 0.5281 0.4694
C18 C 0.4003(2) 0.49035(17) 0.43047(13)
C19 C 0.4158(4) 0.4414(4) 0.4427(2)
H21 H 0.4083 0.4154 0.4274
C20 C 0.3943(13) 0.4288(8) 0.4741(5)
H22 H 0.3589 0.4285 0.4726
H23 H 0.4045 0.4531 0.4892
H24 H 0.4059 0.3967 0.4805
C21 C 0.4670(5) 0.4363(7) 0.4542(6)
H25 H 0.4723 0.4030 0.4612
H26 H 0.4723 0.4588 0.4713
H27 H 0.4897 0.4438 0.4375
C22 C 0.4316(4) 0.2209(3) 0.4125(2)
H28 H 0.4324 0.1963 0.3973
C23 C 0.4610(4) 0.2169(4) 0.4377(2)
H29 H 0.4836 0.1910 0.4394
C24 C 0.4571(3) 0.2524(3) 0.46139(16)
C25 C 0.4890(3) 0.2477(3) 0.48963(17)
C26 C 0.4251(3) 0.2887(3) 0.45782(19)
H30 H 0.4213 0.3122 0.4736
C27 C 0.3977(3) 0.2916(3) 0.4312(2)
H31 H 0.3755 0.3177 0.4286
C28 C 0.5064(2) 0.2686(3) 0.54157(17)
H32 H 0.4970 0.2855 0.5597
C29 C 0.4757(3) 0.2685(3) 0.5167(2)
H33 H 0.4447 0.2833 0.5184
C30 C 0.5317(4) 0.2234(4) 0.4888(2)
H34 H 0.5414 0.2064 0.4708
C31 C 0.5616(3) 0.2237(4) 0.51506(17)
H35 H 0.5920 0.2076 0.5142
F1 F 0.2500 0.35635(14) 0.3750
N1 N 0.4022(3) 0.2584(2) 0.40904(16)
N2 N 0.5486(2) 0.2459(3) 0.54115(12)
O1 O 0.3850(2) 0.4533(2) 0.38200(14)
O2 O 0.35572(19) 0.36703(17) 0.38072(13)
O3 O 0.3163(2) 0.4293(2) 0.34766(13)
O4 O 0.3047(2) 0.4327(2) 0.40489(12)
O5 O 0.2629(3) 0.2601(2) 0.28883(14)
O6 O 0.3013(2) 0.28113(18) 0.33846(12)
O7 O 0.2632(3) 0.34626(18) 0.30674(10)
O8 O 0.2105(2) 0.2850(2) 0.33312(15)
O9 O 0.3764(2) 0.2635(2) 0.38316(13)
P1 P 0.33592(8) 0.41791(7) 0.37871(4)
P2 P 0.25889(9) 0.29618(7) 0.31924(4)
Zn1 Zn 0.31648(3) 0.30863(3) 0.378068(18)
Zn2 Zn 0.25624(3) 0.40563(3) 0.330495(16)
C32 C 0.3565(10) 0.5428(6) 0.3555(4)
H36 H 0.3591 0.5107 0.3450
C33 C 0.3031(11) 0.5588(9) 0.3560(6)
H37 H 0.2915 0.5628 0.3348
H38 H 0.3002 0.5897 0.3669
H39 H 0.2836 0.5341 0.3664
C34 C 0.3931(17) 0.5791(13) 0.3404(7)
H40 H 0.4262 0.5668 0.3430
H41 H 0.3903 0.6108 0.3505
H42 H 0.3857 0.5824 0.3185
C35 C 0.2786(3) 0.2397(3) 0.47346(18)
C36 C 0.2998(4) 0.2589(4) 0.49959(17)
C37 C 0.3385(4) 0.2354(4) 0.5133(2)
H43 H 0.3531 0.2486 0.5312
C38 C 0.3560(4) 0.1926(5) 0.5009(3)
H44 H 0.3825 0.1764 0.5103
C39 C 0.3347(4) 0.1733(4) 0.4748(3)
H45 H 0.3467 0.1440 0.4663
C40 C 0.2960(4) 0.1969(3) 0.4610(2)
C41 C 0.2727(6) 0.1681(4) 0.4325(4)
H46 H 0.2438 0.1883 0.4271
C42 C 0.2954(17) 0.1566(9) 0.4008(7)
H47 H 0.2712 0.1404 0.3878
H48 H 0.3234 0.1352 0.4036
H49 H 0.3058 0.1868 0.3910
C43 C 0.2501(11) 0.1236(4) 0.4480(6)
H50 H 0.2318 0.1049 0.4327
H51 H 0.2282 0.1342 0.4645
H52 H 0.2758 0.1033 0.4567
C44 C 0.2790(6) 0.3049(7) 0.5132(3)
H53 H 0.2457 0.3131 0.5057
C45 C 0.3160(10) 0.3439(10) 0.5077(6)
H54 H 0.3222 0.3468 0.4856
H55 H 0.3462 0.3355 0.5183
H56 H 0.3038 0.3748 0.5156
C46 C 0.2825(10) 0.2992(11) 0.5483(4)
H57 H 0.2588 0.2751 0.5553
H58 H 0.2758 0.3304 0.5582
H59 H 0.3152 0.2884 0.5538
C47 C 0.1143(2) 0.49377(17) 0.34935(12)
C48 C 0.1282(3) 0.5374(2) 0.36102(15)
C49 C 0.1276(4) 0.5775(2) 0.34288(19)
H60 H 0.1373 0.6079 0.3510
C50 C 0.1131(3) 0.5741(2) 0.31306(18)
H61 H 0.1126 0.6021 0.3004
C51 C 0.0991(2) 0.5305(2) 0.30138(15)
H62 H 0.0890 0.5281 0.2806
C52 C 0.0997(2) 0.49035(17) 0.31953(13)
C53 C 0.0842(4) 0.4414(4) 0.3073(2)
H63 H 0.0917 0.4154 0.3226
C54 C 0.1057(13) 0.4288(8) 0.2759(5)
H64 H 0.1411 0.4285 0.2774
H65 H 0.0955 0.4531 0.2608
H66 H 0.0941 0.3967 0.2695
C55 C 0.0330(5) 0.4363(7) 0.2958(6)
H67 H 0.0277 0.4030 0.2888
H68 H 0.0277 0.4588 0.2787
H69 H 0.0103 0.4438 0.3125
C56 C 0.0684(4) 0.2209(3) 0.3375(2)
H70 H 0.0676 0.1963 0.3527
C57 C 0.0390(4) 0.2169(4) 0.3123(2)
H71 H 0.0164 0.1910 0.3106
C58 C 0.0429(3) 0.2524(3) 0.28861(16)
C59 C 0.0110(3) 0.2477(3) 0.26037(17)
C60 C 0.0749(3) 0.2887(3) 0.29218(19)
H72 H 0.0787 0.3122 0.2764
C61 C 0.1023(3) 0.2916(3) 0.3188(2)
H73 H 0.1245 0.3177 0.3214
H74 H 0.0030 0.2855 0.1903
C63 C 0.0243(3) 0.2685(3) 0.2333(2)
H75 H 0.0553 0.2833 0.2316
N3 N 0.0978(3) 0.2584(2) 0.34096(16)
O10 O 0.1150(2) 0.4533(2) 0.36800(14)
O11 O 0.14428(19) 0.36703(17) 0.36928(13)
O12 O 0.1837(2) 0.4293(2) 0.40234(13)
O13 O 0.1953(2) 0.4327(2) 0.34511(12)
O14 O 0.2371(3) 0.2601(2) 0.46117(14)
O15 O 0.1987(2) 0.28113(18) 0.41154(12)
O16 O 0.2368(3) 0.34626(18) 0.44326(10)
O17 O 0.2895(2) 0.2850(2) 0.41688(15)
O18 O 0.1236(2) 0.2635(2) 0.36684(13)
P3 P 0.16408(8) 0.41791(7) 0.37129(4)
P4 P 0.24111(9) 0.29618(7) 0.43076(4)
Zn3 Zn 0.18352(3) 0.30863(3) 0.371932(18)
Zn4 Zn 0.24376(3) 0.40563(3) 0.419505(16)
C66 C 0.1435(10) 0.5428(6) 0.3945(4)
H78 H 0.1409 0.5107 0.4050
C67 C 0.1969(11) 0.5588(9) 0.3940(6)
H79 H 0.2085 0.5628 0.4152
H80 H 0.1998 0.5897 0.3831
H81 H 0.2164 0.5341 0.3836
C68 C 0.1069(17) 0.5791(13) 0.4096(7)
H82 H 0.0738 0.5668 0.4070
H83 H 0.1097 0.6108 0.3995
H84 H 0.1143 0.5824 0.4315
N5 N 0.2459(3) 0.4514(2) 0.45885(12)
N6 N 0.2541(3) 0.4514(2) 0.29115(12)
Zn6 Zn 0.59437(3) 0.24376(3) 0.580495(16)
C62 C 0.9936(2) 0.2686(3) 0.20843(17)
C64 C 0.9683(4) 0.2234(4) 0.2612(2)
H76 H 0.9586 0.2064 0.2792
C65 C 0.9384(3) 0.2237(4) 0.23494(17)
H77 H 0.9080 0.2076 0.2358
N4 N 0.9514(2) 0.2459(3) 0.20885(12)
Zn5 Zn 0.90563(3) 0.24376(3) 0.169505(16)
C62_2 C 0.2686(3) 0.0064(2) 0.79157(17)
C64_2 C 0.2234(4) 0.0317(4) 0.7388(2)
H76_2 H 0.2064 0.0414 0.7208
C65_2 C 0.2237(4) 0.0616(3) 0.76506(17)
H77_2 H 0.2076 0.0920 0.7642
N4_2 N 0.2459(3) 0.0486(2) 0.79115(12)
Zn5_2 Zn 0.24376(3) 0.09437(3) 0.830495(16)
C1_2 C 0.2397(3) 0.7786(3) 0.72346(18)
C2_2 C 0.2589(4) 0.7998(4) 0.74959(17)
C3_2 C 0.2354(4) 0.8385(4) 0.7633(2)
H1_2 H 0.2486 0.8531 0.7812
C4_2 C 0.1926(5) 0.8560(4) 0.7509(3)
H2_2 H 0.1764 0.8825 0.7603
C5_2 C 0.1733(4) 0.8347(4) 0.7248(3)
H3_2 H 0.1440 0.8467 0.7163
C6_2 C 0.1969(3) 0.7960(4) 0.7110(2)
C7_2 C 0.1681(4) 0.7727(6) 0.6825(4)
H4_2 H 0.1883 0.7438 0.6771
C8_2 C 0.1566(9) 0.7954(17) 0.6508(7)
H5_2 H 0.1404 0.7712 0.6378
H6_2 H 0.1352 0.8234 0.6536
H7_2 H 0.1868 0.8058 0.6410
C9_2 C 0.1236(4) 0.7501(11) 0.6980(6)
H8_2 H 0.1049 0.7318 0.6827
H9_2 H 0.1342 0.7282 0.7145
H10_2 H 0.1033 0.7758 0.7067
C10_2 C 0.3049(7) 0.7790(6) 0.7632(3)
H11_2 H 0.3131 0.7457 0.7557
C11_2 C 0.3439(10) 0.8160(10) 0.7577(6)
H12_2 H 0.3468 0.8222 0.7356
H13_2 H 0.3355 0.8462 0.7683
H14_2 H 0.3748 0.8038 0.7656
C12_2 C 0.2992(11) 0.7825(10) 0.7983(4)
H15_2 H 0.2751 0.7588 0.8053
H16_2 H 0.3304 0.7758 0.8082
H17_2 H 0.2884 0.8152 0.8038
C13_2 C 0.49377(17) 0.6143(2) 0.59935(12)
C14_2 C 0.5374(2) 0.6282(3) 0.61102(15)
C15_2 C 0.5775(2) 0.6276(4) 0.59288(19)
H18_2 H 0.6079 0.6373 0.6010
C16_2 C 0.5741(2) 0.6131(3) 0.56306(18)
H19_2 H 0.6021 0.6126 0.5504
C17_2 C 0.5305(2) 0.5991(2) 0.55138(15)
H20_2 H 0.5281 0.5890 0.5306
C18_2 C 0.49035(17) 0.5997(2) 0.56953(13)
C19_2 C 0.4414(4) 0.5842(4) 0.5573(2)
H21_2 H 0.4154 0.5917 0.5726
C20_2 C 0.4288(8) 0.6057(13) 0.5259(5)
H22_2 H 0.4285 0.6411 0.5274
H23_2 H 0.4531 0.5955 0.5108
H24_2 H 0.3967 0.5941 0.5195
C21_2 C 0.4363(7) 0.5330(5) 0.5458(6)
H25_2 H 0.4030 0.5277 0.5388
H26_2 H 0.4588 0.5277 0.5287
H27_2 H 0.4438 0.5103 0.5625
C22_2 C 0.2209(3) 0.5684(4) 0.5875(2)
H28_2 H 0.1963 0.5676 0.6027
C23_2 C 0.2169(4) 0.5390(4) 0.5623(2)
H29_2 H 0.1910 0.5164 0.5606
C24_2 C 0.2524(3) 0.5429(3) 0.53861(16)
C25_2 C 0.2477(3) 0.5110(3) 0.51037(17)
C26_2 C 0.2887(3) 0.5749(3) 0.54218(19)
H30_2 H 0.3122 0.5787 0.5264
C27_2 C 0.2916(3) 0.6023(3) 0.5688(2)
H31_2 H 0.3177 0.6245 0.5714
C28_2 C 0.2686(3) 0.4936(2) 0.45843(17)
H32_2 H 0.2855 0.5030 0.4403
C29_2 C 0.2685(3) 0.5243(3) 0.4833(2)
H33_2 H 0.2833 0.5553 0.4816
C30_2 C 0.2234(4) 0.4683(4) 0.5112(2)
H34_2 H 0.2064 0.4586 0.5292
C31_2 C 0.2237(4) 0.4384(3) 0.48494(17)
H35_2 H 0.2076 0.4080 0.4858
F1_2 F 0.35635(14) 0.7500 0.6250
N1_2 N 0.2584(2) 0.5978(3) 0.59096(16)
O1_2 O 0.4533(2) 0.6150(2) 0.61800(14)
O2_2 O 0.36703(17) 0.64428(19) 0.61928(13)
O3_2 O 0.4293(2) 0.6837(2) 0.65234(13)
O4_2 O 0.4327(2) 0.6953(2) 0.59511(12)
O5_2 O 0.2601(2) 0.7371(3) 0.71117(14)
O6_2 O 0.28113(18) 0.6987(2) 0.66154(12)
O7_2 O 0.34626(18) 0.7368(3) 0.69326(10)
O8_2 O 0.2850(2) 0.7895(2) 0.66688(15)
O9_2 O 0.2635(2) 0.6236(2) 0.61684(13)
P1_2 P 0.41791(7) 0.66408(8) 0.62129(4)
P2_2 P 0.29618(7) 0.74111(9) 0.68076(4)
Zn1_2 Zn 0.30863(3) 0.68352(3) 0.621932(18)
Zn2_2 Zn 0.40563(3) 0.74376(3) 0.669505(16)
C32_2 C 0.5428(6) 0.6435(10) 0.6445(4)
H36_2 H 0.5107 0.6409 0.6550
C33_2 C 0.5588(9) 0.6969(11) 0.6440(6)
H37_2 H 0.5628 0.7085 0.6652
H38_2 H 0.5897 0.6998 0.6331
H39_2 H 0.5341 0.7164 0.6336
C34_2 C 0.5791(13) 0.6069(17) 0.6596(7)
H40_2 H 0.5668 0.5738 0.6570
H41_2 H 0.6108 0.6097 0.6495
H42_2 H 0.5824 0.6143 0.6815
C35_2 C 0.2397(3) 0.7214(3) 0.52654(18)
C36_2 C 0.2589(4) 0.7002(4) 0.50041(17)
C37_2 C 0.2354(4) 0.6615(4) 0.4867(2)
H43_2 H 0.2486 0.6469 0.4688
C38_2 C 0.1926(5) 0.6440(4) 0.4991(3)
H44_2 H 0.1764 0.6175 0.4897
C39_2 C 0.1733(4) 0.6653(4) 0.5252(3)
H45_2 H 0.1440 0.6533 0.5337
C40_2 C 0.1969(3) 0.7040(4) 0.5390(2)
C41_2 C 0.1681(4) 0.7273(6) 0.5675(4)
H46_2 H 0.1883 0.7562 0.5729
C42_2 C 0.1566(9) 0.7046(17) 0.5992(7)
H47_2 H 0.1404 0.7288 0.6122
H48_2 H 0.1352 0.6766 0.5964
H49_2 H 0.1868 0.6942 0.6090
C43_2 C 0.1236(4) 0.7499(11) 0.5520(6)
H50_2 H 0.1049 0.7682 0.5673
H51_2 H 0.1342 0.7718 0.5355
H52_2 H 0.1033 0.7242 0.5433
C44_2 C 0.3049(7) 0.7210(6) 0.4868(3)
H53_2 H 0.3131 0.7543 0.4943
C45_2 C 0.3439(10) 0.6840(10) 0.4923(6)
H54_2 H 0.3468 0.6778 0.5144
H55_2 H 0.3355 0.6538 0.4817
H56_2 H 0.3748 0.6962 0.4844
C46_2 C 0.2992(11) 0.7175(10) 0.4517(4)
H57_2 H 0.2751 0.7412 0.4447
H58_2 H 0.3304 0.7242 0.4418
H59_2 H 0.2884 0.6848 0.4462
C47_2 C 0.49377(17) 0.8857(2) 0.65065(12)
C48_2 C 0.5374(2) 0.8718(3) 0.63898(15)
C49_2 C 0.5775(2) 0.8724(4) 0.65712(19)
H60_2 H 0.6079 0.8627 0.6490
C50_2 C 0.5741(2) 0.8869(3) 0.68694(18)
H61_2 H 0.6021 0.8874 0.6996
C51_2 C 0.5305(2) 0.9009(2) 0.69862(15)
H62_2 H 0.5281 0.9110 0.7194
C52_2 C 0.49035(17) 0.9003(2) 0.68047(13)
C53_2 C 0.4414(4) 0.9158(4) 0.6927(2)
H63_2 H 0.4154 0.9083 0.6774
C54_2 C 0.4288(8) 0.8943(13) 0.7241(5)
H64_2 H 0.4285 0.8589 0.7226
H65_2 H 0.4531 0.9045 0.7392
H66_2 H 0.3967 0.9059 0.7305
C55_2 C 0.4363(7) 0.9670(5) 0.7042(6)
H67_2 H 0.4030 0.9723 0.7112
H68_2 H 0.4588 0.9723 0.7213
H69_2 H 0.4438 0.9897 0.6875
C56_2 C 0.2209(3) 0.9316(4) 0.6625(2)
H70_2 H 0.1963 0.9324 0.6473
C57_2 C 0.2169(4) 0.9610(4) 0.6877(2)
H71_2 H 0.1910 0.9836 0.6894
C58_2 C 0.2524(3) 0.9571(3) 0.71139(16)
C59_2 C 0.2477(3) 0.9890(3) 0.73963(17)
C60_2 C 0.2887(3) 0.9251(3) 0.70782(19)
H72_2 H 0.3122 0.9213 0.7236
C61_2 C 0.2916(3) 0.8977(3) 0.6812(2)
H73_2 H 0.3177 0.8755 0.6786
H74_2 H 0.2855 0.9970 0.8097
C63_2 C 0.2685(3) 0.9757(3) 0.7667(2)
H75_2 H 0.2833 0.9447 0.7684
N3_2 N 0.2584(2) 0.9022(3) 0.65904(16)
O10_2 O 0.4533(2) 0.8850(2) 0.63200(14)
O11_2 O 0.36703(17) 0.85572(19) 0.63072(13)
O12_2 O 0.4293(2) 0.8163(2) 0.59766(13)
O13_2 O 0.4327(2) 0.8047(2) 0.65489(12)
O14_2 O 0.2601(2) 0.7629(3) 0.53883(14)
O15_2 O 0.28113(18) 0.8013(2) 0.58846(12)
O16_2 O 0.34626(18) 0.7632(3) 0.55674(10)
O17_2 O 0.2850(2) 0.7105(2) 0.58312(15)
O18_2 O 0.2635(2) 0.8764(2) 0.63316(13)
P3_2 P 0.41791(7) 0.83592(8) 0.62871(4)
P4_2 P 0.29618(7) 0.75889(9) 0.56924(4)
Zn3_2 Zn 0.30863(3) 0.81648(3) 0.628068(18)
Zn4_2 Zn 0.40563(3) 0.75624(3) 0.580495(16)
C66_2 C 0.5428(6) 0.8565(10) 0.6055(4)
H78_2 H 0.5107 0.8591 0.5950
C67_2 C 0.5588(9) 0.8031(11) 0.6060(6)
H79_2 H 0.5628 0.7915 0.5848
H80_2 H 0.5897 0.8002 0.6169
H81_2 H 0.5341 0.7836 0.6164
C68_2 C 0.5791(13) 0.8931(17) 0.5904(7)
H82_2 H 0.5668 0.9262 0.5930
H83_2 H 0.6108 0.8903 0.6005
H84_2 H 0.5824 0.8857 0.5685
N5_2 N 0.4514(2) 0.7541(3) 0.54115(12)
N6_2 N 0.4514(2) 0.7459(3) 0.70885(12)
C62_3 C 0.0064(2) 0.7314(3) 0.20843(17)
C64_3 C 0.0317(4) 0.7766(4) 0.2612(2)
H76_3 H 0.0414 0.7936 0.2792
C65_3 C 0.0616(3) 0.7763(4) 0.23494(17)
H77_3 H 0.0920 0.7924 0.2358
N4_3 N 0.0486(2) 0.7541(3) 0.20885(12)
Zn5_3 Zn 0.09437(3) 0.75624(3) 0.169505(16)
C1_3 C 0.7786(3) 0.7603(3) 0.27654(18)
C2_3 C 0.7998(4) 0.7411(4) 0.25041(17)
C3_3 C 0.8385(4) 0.7646(4) 0.2367(2)
H1_3 H 0.8531 0.7514 0.2188
C4_3 C 0.8560(4) 0.8074(5) 0.2491(3)
H2_3 H 0.8825 0.8236 0.2397
C5_3 C 0.8347(4) 0.8267(4) 0.2752(3)
H3_3 H 0.8467 0.8560 0.2837
C6_3 C 0.7960(4) 0.8031(3) 0.2890(2)
C7_3 C 0.7727(6) 0.8319(4) 0.3175(4)
H4_3 H 0.7438 0.8117 0.3229
C8_3 C 0.7954(17) 0.8434(9) 0.3492(7)
H5_3 H 0.7712 0.8596 0.3622
H6_3 H 0.8234 0.8648 0.3464
H7_3 H 0.8058 0.8132 0.3590
C9_3 C 0.7501(11) 0.8764(4) 0.3020(6)
H8_3 H 0.7318 0.8951 0.3173
H9_3 H 0.7282 0.8658 0.2855
H10_3 H 0.7758 0.8967 0.2933
C10_3 C 0.7790(6) 0.6951(7) 0.2368(3)
H11_3 H 0.7457 0.6869 0.2443
C11_3 C 0.8160(10) 0.6561(10) 0.2423(6)
H12_3 H 0.8222 0.6532 0.2644
H13_3 H 0.8462 0.6645 0.2317
H14_3 H 0.8038 0.6252 0.2344
C12_3 C 0.7825(10) 0.7008(11) 0.2017(4)
H15_3 H 0.7588 0.7249 0.1947
H16_3 H 0.7758 0.6696 0.1918
H17_3 H 0.8152 0.7116 0.1962
C13_3 C 0.6143(2) 0.50623(17) 0.40065(12)
C14_3 C 0.6282(3) 0.4626(2) 0.38898(15)
C15_3 C 0.6276(4) 0.4225(2) 0.40712(19)
H18_3 H 0.6373 0.3921 0.3990
C16_3 C 0.6131(3) 0.4259(2) 0.43694(18)
H19_3 H 0.6126 0.3979 0.4496
C17_3 C 0.5991(2) 0.4695(2) 0.44862(15)
H20_3 H 0.5890 0.4719 0.4694
C18_3 C 0.5997(2) 0.50965(17) 0.43047(13)
C19_3 C 0.5842(4) 0.5586(4) 0.4427(2)
H21_3 H 0.5917 0.5846 0.4274
C20_3 C 0.6057(13) 0.5712(8) 0.4741(5)
H22_3 H 0.6411 0.5715 0.4726
H23_3 H 0.5955 0.5469 0.4892
H24_3 H 0.5941 0.6033 0.4805
C21_3 C 0.5330(5) 0.5637(7) 0.4542(6)
H25_3 H 0.5277 0.5970 0.4612
H26_3 H 0.5277 0.5412 0.4713
H27_3 H 0.5103 0.5562 0.4375
C22_3 C 0.5684(4) 0.7791(3) 0.4125(2)
H28_3 H 0.5676 0.8037 0.3973
C23_3 C 0.5390(4) 0.7831(4) 0.4377(2)
H29_3 H 0.5164 0.8090 0.4394
C24_3 C 0.5429(3) 0.7476(3) 0.46139(16)
C25_3 C 0.5110(3) 0.7523(3) 0.48963(17)
C26_3 C 0.5749(3) 0.7113(3) 0.45782(19)
H30_3 H 0.5787 0.6878 0.4736
C27_3 C 0.6023(3) 0.7084(3) 0.4312(2)
H31_3 H 0.6245 0.6823 0.4286
C28_3 C 0.4936(2) 0.7314(3) 0.54157(17)
H32_3 H 0.5030 0.7145 0.5597
C29_3 C 0.5243(3) 0.7315(3) 0.5167(2)
H33_3 H 0.5553 0.7167 0.5184
C30_3 C 0.4683(4) 0.7766(4) 0.4888(2)
H34_3 H 0.4586 0.7936 0.4708
C31_3 C 0.4384(3) 0.7763(4) 0.51506(17)
H35_3 H 0.4080 0.7924 0.5142
F1_3 F 0.7500 0.64365(14) 0.3750
N1_3 N 0.5978(3) 0.7416(2) 0.40904(16)
O1_3 O 0.6150(2) 0.5467(2) 0.38200(14)
O2_3 O 0.64428(19) 0.63297(17) 0.38072(13)
O3_3 O 0.6837(2) 0.5707(2) 0.34766(13)
O4_3 O 0.6953(2) 0.5673(2) 0.40489(12)
O5_3 O 0.7371(3) 0.7399(2) 0.28883(14)
O6_3 O 0.6987(2) 0.71887(18) 0.33846(12)
O7_3 O 0.7368(3) 0.65374(18) 0.30674(10)
O8_3 O 0.7895(2) 0.7150(2) 0.33312(15)
O9_3 O 0.6236(2) 0.7365(2) 0.38316(13)
P1_3 P 0.66408(8) 0.58209(7) 0.37871(4)
P2_3 P 0.74111(9) 0.70382(7) 0.31924(4)
Zn1_3 Zn 0.68352(3) 0.69137(3) 0.378068(18)
Zn2_3 Zn 0.74376(3) 0.59437(3) 0.330495(16)
C32_3 C 0.6435(10) 0.4572(6) 0.3555(4)
H36_3 H 0.6409 0.4893 0.3450
C33_3 C 0.6969(11) 0.4412(9) 0.3560(6)
H37_3 H 0.7085 0.4372 0.3348
H38_3 H 0.6998 0.4103 0.3669
H39_3 H 0.7164 0.4659 0.3664
C34_3 C 0.6069(17) 0.4209(13) 0.3404(7)
H40_3 H 0.5738 0.4332 0.3430
H41_3 H 0.6097 0.3892 0.3505
H42_3 H 0.6143 0.4176 0.3185
C35_3 C 0.7214(3) 0.7603(3) 0.47346(18)
C36_3 C 0.7002(4) 0.7411(4) 0.49959(17)
C37_3 C 0.6615(4) 0.7646(4) 0.5133(2)
H43_3 H 0.6469 0.7514 0.5312
C38_3 C 0.6440(4) 0.8074(5) 0.5009(3)
H44_3 H 0.6175 0.8236 0.5103
C39_3 C 0.6653(4) 0.8267(4) 0.4748(3)
H45_3 H 0.6533 0.8560 0.4663
C40_3 C 0.7040(4) 0.8031(3) 0.4610(2)
C41_3 C 0.7273(6) 0.8319(4) 0.4325(4)
H46_3 H 0.7562 0.8117 0.4271
C42_3 C 0.7046(17) 0.8434(9) 0.4008(7)
H47_3 H 0.7288 0.8596 0.3878
H48_3 H 0.6766 0.8648 0.4036
H49_3 H 0.6942 0.8132 0.3910
C43_3 C 0.7499(11) 0.8764(4) 0.4480(6)
H50_3 H 0.7682 0.8951 0.4327
H51_3 H 0.7718 0.8658 0.4645
H52_3 H 0.7242 0.8967 0.4567
C44_3 C 0.7210(6) 0.6951(7) 0.5132(3)
H53_3 H 0.7543 0.6869 0.5057
C45_3 C 0.6840(10) 0.6561(10) 0.5077(6)
H54_3 H 0.6778 0.6532 0.4856
H55_3 H 0.6538 0.6645 0.5183
H56_3 H 0.6962 0.6252 0.5156
C46_3 C 0.7175(10) 0.7008(11) 0.5483(4)
H57_3 H 0.7412 0.7249 0.5553
H58_3 H 0.7242 0.6696 0.5582
H59_3 H 0.6848 0.7116 0.5538
C47_3 C 0.8857(2) 0.50623(17) 0.34935(12)
C48_3 C 0.8718(3) 0.4626(2) 0.36102(15)
C49_3 C 0.8724(4) 0.4225(2) 0.34288(19)
H60_3 H 0.8627 0.3921 0.3510
C50_3 C 0.8869(3) 0.4259(2) 0.31306(18)
H61_3 H 0.8874 0.3979 0.3004
C51_3 C 0.9009(2) 0.4695(2) 0.30138(15)
H62_3 H 0.9110 0.4719 0.2806
C52_3 C 0.9003(2) 0.50965(17) 0.31953(13)
C53_3 C 0.9158(4) 0.5586(4) 0.3073(2)
H63_3 H 0.9083 0.5846 0.3226
C54_3 C 0.8943(13) 0.5712(8) 0.2759(5)
H64_3 H 0.8589 0.5715 0.2774
H65_3 H 0.9045 0.5469 0.2608
H66_3 H 0.9059 0.6033 0.2695
C55_3 C 0.9670(5) 0.5637(7) 0.2958(6)
H67_3 H 0.9723 0.5970 0.2888
H68_3 H 0.9723 0.5412 0.2787
H69_3 H 0.9897 0.5562 0.3125
C56_3 C 0.9316(4) 0.7791(3) 0.3375(2)
H70_3 H 0.9324 0.8037 0.3527
C57_3 C 0.9610(4) 0.7831(4) 0.3123(2)
H71_3 H 0.9836 0.8090 0.3106
C58_3 C 0.9571(3) 0.7476(3) 0.28861(16)
C59_3 C 0.9890(3) 0.7523(3) 0.26037(17)
C60_3 C 0.9251(3) 0.7113(3) 0.29218(19)
H72_3 H 0.9213 0.6878 0.2764
C61_3 C 0.8977(3) 0.7084(3) 0.3188(2)
H73_3 H 0.8755 0.6823 0.3214
H74_3 H 0.9970 0.7145 0.1903
C63_3 C 0.9757(3) 0.7315(3) 0.2333(2)
H75_3 H 0.9447 0.7167 0.2316
N3_3 N 0.9022(3) 0.7416(2) 0.34096(16)
O10_3 O 0.8850(2) 0.5467(2) 0.36800(14)
O11_3 O 0.85572(19) 0.63297(17) 0.36928(13)
O12_3 O 0.8163(2) 0.5707(2) 0.40234(13)
O13_3 O 0.8047(2) 0.5673(2) 0.34511(12)
O14_3 O 0.7629(3) 0.7399(2) 0.46117(14)
O15_3 O 0.8013(2) 0.71887(18) 0.41154(12)
O16_3 O 0.7632(3) 0.65374(18) 0.44326(10)
O17_3 O 0.7105(2) 0.7150(2) 0.41688(15)
O18_3 O 0.8764(2) 0.7365(2) 0.36684(13)
P3_3 P 0.83592(8) 0.58209(7) 0.37129(4)
P4_3 P 0.75889(9) 0.70382(7) 0.43076(4)
Zn3_3 Zn 0.81648(3) 0.69137(3) 0.371932(18)
Zn4_3 Zn 0.75624(3) 0.59437(3) 0.419505(16)
C66_3 C 0.8565(10) 0.4572(6) 0.3945(4)
H78_3 H 0.8591 0.4893 0.4050
C67_3 C 0.8031(11) 0.4412(9) 0.3940(6)
H79_3 H 0.7915 0.4372 0.4152
H80_3 H 0.8002 0.4103 0.3831
H81_3 H 0.7836 0.4659 0.3836
C68_3 C 0.8931(17) 0.4209(13) 0.4096(7)
H82_3 H 0.9262 0.4332 0.4070
H83_3 H 0.8903 0.3892 0.3995
H84_3 H 0.8857 0.4176 0.4315
N5_3 N 0.7541(3) 0.5486(2) 0.45885(12)
N6_3 N 0.7459(3) 0.5486(2) 0.29115(12)
C1_4 C 0.7603(3) 0.2214(3) 0.72346(18)
C2_4 C 0.7411(4) 0.2002(4) 0.74959(17)
C3_4 C 0.7646(4) 0.1615(4) 0.7633(2)
H1_4 H 0.7514 0.1469 0.7812
C4_4 C 0.8074(5) 0.1440(4) 0.7509(3)
H2_4 H 0.8236 0.1175 0.7603
C5_4 C 0.8267(4) 0.1653(4) 0.7248(3)
H3_4 H 0.8560 0.1533 0.7163
C6_4 C 0.8031(3) 0.2040(4) 0.7110(2)
C7_4 C 0.8319(4) 0.2273(6) 0.6825(4)
H4_4 H 0.8117 0.2562 0.6771
C8_4 C 0.8434(9) 0.2046(17) 0.6508(7)
H5_4 H 0.8596 0.2288 0.6378
H6_4 H 0.8648 0.1766 0.6536
H7_4 H 0.8132 0.1942 0.6410
C9_4 C 0.8764(4) 0.2499(11) 0.6980(6)
H8_4 H 0.8951 0.2682 0.6827
H9_4 H 0.8658 0.2718 0.7145
H10_4 H 0.8967 0.2242 0.7067
C10_4 C 0.6951(7) 0.2210(6) 0.7632(3)
H11_4 H 0.6869 0.2543 0.7557
C11_4 C 0.6561(10) 0.1840(10) 0.7577(6)
H12_4 H 0.6532 0.1778 0.7356
H13_4 H 0.6645 0.1538 0.7683
H14_4 H 0.6252 0.1962 0.7656
C12_4 C 0.7008(11) 0.2175(10) 0.7983(4)
H15_4 H 0.7249 0.2412 0.8053
H16_4 H 0.6696 0.2242 0.8082
H17_4 H 0.7116 0.1848 0.8038
C13_4 C 0.50623(17) 0.3857(2) 0.59935(12)
C14_4 C 0.4626(2) 0.3718(3) 0.61102(15)
C15_4 C 0.4225(2) 0.3724(4) 0.59288(19)
H18_4 H 0.3921 0.3627 0.6010
C16_4 C 0.4259(2) 0.3869(3) 0.56306(18)
H19_4 H 0.3979 0.3874 0.5504
C17_4 C 0.4695(2) 0.4009(2) 0.55138(15)
H20_4 H 0.4719 0.4110 0.5306
C18_4 C 0.50965(17) 0.4003(2) 0.56953(13)
C19_4 C 0.5586(4) 0.4158(4) 0.5573(2)
H21_4 H 0.5846 0.4083 0.5726
C20_4 C 0.5712(8) 0.3943(13) 0.5259(5)
H22_4 H 0.5715 0.3589 0.5274
H23_4 H 0.5469 0.4045 0.5108
H24_4 H 0.6033 0.4059 0.5195
C21_4 C 0.5637(7) 0.4670(5) 0.5458(6)
H25_4 H 0.5970 0.4723 0.5388
H26_4 H 0.5412 0.4723 0.5287
H27_4 H 0.5562 0.4897 0.5625
C22_4 C 0.7791(3) 0.4316(4) 0.5875(2)
H28_4 H 0.8037 0.4324 0.6027
C23_4 C 0.7831(4) 0.4610(4) 0.5623(2)
H29_4 H 0.8090 0.4836 0.5606
C24_4 C 0.7476(3) 0.4571(3) 0.53861(16)
C25_4 C 0.7523(3) 0.4890(3) 0.51037(17)
C26_4 C 0.7113(3) 0.4251(3) 0.54218(19)
H30_4 H 0.6878 0.4213 0.5264
C27_4 C 0.7084(3) 0.3977(3) 0.5688(2)
H31_4 H 0.6823 0.3755 0.5714
C28_4 C 0.7314(3) 0.5064(2) 0.45843(17)
H32_4 H 0.7145 0.4970 0.4403
C29_4 C 0.7315(3) 0.4757(3) 0.4833(2)
H33_4 H 0.7167 0.4447 0.4816
C30_4 C 0.7766(4) 0.5317(4) 0.5112(2)
H34_4 H 0.7936 0.5414 0.5292
C31_4 C 0.7763(4) 0.5616(3) 0.48494(17)
H35_4 H 0.7924 0.5920 0.4858
F1_4 F 0.64365(14) 0.2500 0.6250
N1_4 N 0.7416(2) 0.4022(3) 0.59096(16)
O1_4 O 0.5467(2) 0.3850(2) 0.61800(14)
O2_4 O 0.63297(17) 0.35572(19) 0.61928(13)
O3_4 O 0.5707(2) 0.3163(2) 0.65234(13)
O4_4 O 0.5673(2) 0.3047(2) 0.59511(12)
O5_4 O 0.7399(2) 0.2629(3) 0.71117(14)
O6_4 O 0.71887(18) 0.3013(2) 0.66154(12)
O7_4 O 0.65374(18) 0.2632(3) 0.69326(10)
O8_4 O 0.7150(2) 0.2105(2) 0.66688(15)
O9_4 O 0.7365(2) 0.3764(2) 0.61684(13)
P1_4 P 0.58209(7) 0.33592(8) 0.62129(4)
P2_4 P 0.70382(7) 0.25889(9) 0.68076(4)
Zn1_4 Zn 0.69137(3) 0.31648(3) 0.621932(18)
Zn2_4 Zn 0.59437(3) 0.25624(3) 0.669505(16)
C32_4 C 0.4572(6) 0.3565(10) 0.6445(4)
H36_4 H 0.4893 0.3591 0.6550
C33_4 C 0.4412(9) 0.3031(11) 0.6440(6)
H37_4 H 0.4372 0.2915 0.6652
H38_4 H 0.4103 0.3002 0.6331
H39_4 H 0.4659 0.2836 0.6336
C34_4 C 0.4209(13) 0.3931(17) 0.6596(7)
H40_4 H 0.4332 0.4262 0.6570
H41_4 H 0.3892 0.3903 0.6495
H42_4 H 0.4176 0.3857 0.6815
C35_4 C 0.7603(3) 0.2786(3) 0.52654(18)
C36_4 C 0.7411(4) 0.2998(4) 0.50041(17)
C37_4 C 0.7646(4) 0.3385(4) 0.4867(2)
H43_4 H 0.7514 0.3531 0.4688
C38_4 C 0.8074(5) 0.3560(4) 0.4991(3)
H44_4 H 0.8236 0.3825 0.4897
C39_4 C 0.8267(4) 0.3347(4) 0.5252(3)
H45_4 H 0.8560 0.3467 0.5337
C40_4 C 0.8031(3) 0.2960(4) 0.5390(2)
C41_4 C 0.8319(4) 0.2727(6) 0.5675(4)
H46_4 H 0.8117 0.2438 0.5729
C42_4 C 0.8434(9) 0.2954(17) 0.5992(7)
H47_4 H 0.8596 0.2712 0.6122
H48_4 H 0.8648 0.3234 0.5964
H49_4 H 0.8132 0.3058 0.6090
C43_4 C 0.8764(4) 0.2501(11) 0.5520(6)
H50_4 H 0.8951 0.2318 0.5673
H51_4 H 0.8658 0.2282 0.5355
H52_4 H 0.8967 0.2758 0.5433
C44_4 C 0.6951(7) 0.2790(6) 0.4868(3)
H53_4 H 0.6869 0.2457 0.4943
C45_4 C 0.6561(10) 0.3160(10) 0.4923(6)
H54_4 H 0.6532 0.3222 0.5144
H55_4 H 0.6645 0.3462 0.4817
H56_4 H 0.6252 0.3038 0.4844
C46_4 C 0.7008(11) 0.2825(10) 0.4517(4)
H57_4 H 0.7249 0.2588 0.4447
H58_4 H 0.6696 0.2758 0.4418
H59_4 H 0.7116 0.3152 0.4462
C47_4 C 0.50623(17) 0.1143(2) 0.65065(12)
C48_4 C 0.4626(2) 0.1282(3) 0.63898(15)
C49_4 C 0.4225(2) 0.1276(4) 0.65712(19)
H60_4 H 0.3921 0.1373 0.6490
C50_4 C 0.4259(2) 0.1131(3) 0.68694(18)
H61_4 H 0.3979 0.1126 0.6996
C51_4 C 0.4695(2) 0.0991(2) 0.69862(15)
H62_4 H 0.4719 0.0890 0.7194
C52_4 C 0.50965(17) 0.0997(2) 0.68047(13)
C53_4 C 0.5586(4) 0.0842(4) 0.6927(2)
H63_4 H 0.5846 0.0917 0.6774
C54_4 C 0.5712(8) 0.1057(13) 0.7241(5)
H64_4 H 0.5715 0.1411 0.7226
H65_4 H 0.5469 0.0955 0.7392
H66_4 H 0.6033 0.0941 0.7305
C55_4 C 0.5637(7) 0.0330(5) 0.7042(6)
H67_4 H 0.5970 0.0277 0.7112
H68_4 H 0.5412 0.0277 0.7213
H69_4 H 0.5562 0.0103 0.6875
C56_4 C 0.7791(3) 0.0684(4) 0.6625(2)
H70_4 H 0.8037 0.0676 0.6473
C57_4 C 0.7831(4) 0.0390(4) 0.6877(2)
H71_4 H 0.8090 0.0164 0.6894
C58_4 C 0.7476(3) 0.0429(3) 0.71139(16)
C59_4 C 0.7523(3) 0.0110(3) 0.73963(17)
C60_4 C 0.7113(3) 0.0749(3) 0.70782(19)
H72_4 H 0.6878 0.0787 0.7236
C61_4 C 0.7084(3) 0.1023(3) 0.6812(2)
H73_4 H 0.6823 0.1245 0.6786
H74_4 H 0.7145 0.0030 0.8097
C63_4 C 0.7315(3) 0.0243(3) 0.7667(2)
H75_4 H 0.7167 0.0553 0.7684
N3_4 N 0.7416(2) 0.0978(3) 0.65904(16)
O10_4 O 0.5467(2) 0.1150(2) 0.63200(14)
O11_4 O 0.63297(17) 0.14428(19) 0.63072(13)
O12_4 O 0.5707(2) 0.1837(2) 0.59766(13)
O13_4 O 0.5673(2) 0.1953(2) 0.65489(12)
O14_4 O 0.7399(2) 0.2371(3) 0.53883(14)
O15_4 O 0.71887(18) 0.1987(2) 0.58846(12)
O16_4 O 0.65374(18) 0.2368(3) 0.55674(10)
O17_4 O 0.7150(2) 0.2895(2) 0.58312(15)
O18_4 O 0.7365(2) 0.1236(2) 0.63316(13)
P3_4 P 0.58209(7) 0.16408(8) 0.62871(4)
P4_4 P 0.70382(7) 0.24111(9) 0.56924(4)
Zn3_4 Zn 0.69137(3) 0.18352(3) 0.628068(18)
C66_4 C 0.4572(6) 0.1435(10) 0.6055(4)
H78_4 H 0.4893 0.1409 0.5950
C67_4 C 0.4412(9) 0.1969(11) 0.6060(6)
H79_4 H 0.4372 0.2085 0.5848
H80_4 H 0.4103 0.1998 0.6169
H81_4 H 0.4659 0.2164 0.6164
C68_4 C 0.4209(13) 0.1069(17) 0.5904(7)
H82_4 H 0.4332 0.0738 0.5930
H83_4 H 0.3892 0.1097 0.6005
H84_4 H 0.4176 0.1143 0.5685
N6_4 N 0.5486(2) 0.2541(3) 0.70885(12)
C62_4 C 0.7314(3) 0.9936(2) 0.79157(17)
C64_4 C 0.7766(4) 0.9683(4) 0.7388(2)
H76_4 H 0.7936 0.9586 0.7208
C65_4 C 0.7763(4) 0.9384(3) 0.76506(17)
H77_4 H 0.7924 0.9080 0.7642
N4_4 N 0.7541(3) 0.9514(2) 0.79115(12)
Zn5_4 Zn 0.75624(3) 0.90563(3) 0.830495(16)
C62_5 C 0.2314(3) 0.0064(2) 0.95843(17)
C65_5 C 0.2763(4) 0.0616(3) 0.98494(17)
H77_5 H 0.2924 0.0920 0.9858
N4_5 N 0.2541(3) 0.0486(2) 0.95885(12)
Zn5_5 Zn 0.25624(3) 0.09437(3) 0.919505(16)
C1_5 C 0.2603(3) 0.7786(3) 0.02654(18)
C2_5 C 0.2411(4) 0.7998(4) 0.00041(17)
C5_5 C 0.3267(4) 0.8347(4) 0.0252(3)
H3_5 H 0.3560 0.8467 0.0337
C6_5 C 0.3031(3) 0.7960(4) 0.0390(2)
C7_5 C 0.3319(4) 0.7727(6) 0.0675(4)
H4_5 H 0.3117 0.7438 0.0729
C8_5 C 0.3434(9) 0.7954(17) 0.0992(7)
H5_5 H 0.3596 0.7712 0.1122
H6_5 H 0.3648 0.8234 0.0964
H7_5 H 0.3132 0.8058 0.1090
C9_5 C 0.3764(4) 0.7501(11) 0.0520(6)
H8_5 H 0.3951 0.7318 0.0673
H9_5 H 0.3658 0.7282 0.0355
H10_5 H 0.3967 0.7758 0.0433
H12_5 H 0.1532 0.8222 0.0144
C13_5 C 0.00623(17) 0.6143(2) 0.15065(12)
C18_5 C 0.00965(17) 0.5997(2) 0.18047(13)
C19_5 C 0.0586(4) 0.5842(4) 0.1927(2)
H21_5 H 0.0846 0.5917 0.1774
C20_5 C 0.0712(8) 0.6057(13) 0.2241(5)
H22_5 H 0.0715 0.6411 0.2226
H23_5 H 0.0469 0.5955 0.2392
H24_5 H 0.1033 0.5941 0.2305
C21_5 C 0.0637(7) 0.5330(5) 0.2042(6)
H25_5 H 0.0970 0.5277 0.2112
H26_5 H 0.0412 0.5277 0.2213
H27_5 H 0.0562 0.5103 0.1875
C22_5 C 0.2791(3) 0.5684(4) 0.1625(2)
H28_5 H 0.3037 0.5676 0.1473
C23_5 C 0.2831(4) 0.5390(4) 0.1877(2)
H29_5 H 0.3090 0.5164 0.1894
C24_5 C 0.2476(3) 0.5429(3) 0.21139(16)
C25_5 C 0.2523(3) 0.5110(3) 0.23963(17)
C26_5 C 0.2113(3) 0.5749(3) 0.20782(19)
H30_5 H 0.1878 0.5787 0.2236
C27_5 C 0.2084(3) 0.6023(3) 0.1812(2)
H31_5 H 0.1823 0.6245 0.1786
C28_5 C 0.2314(3) 0.4936(2) 0.29157(17)
H32_5 H 0.2145 0.5030 0.3097
C29_5 C 0.2315(3) 0.5243(3) 0.2667(2)
H33_5 H 0.2167 0.5553 0.2684
C30_5 C 0.2766(4) 0.4683(4) 0.2388(2)
H34_5 H 0.2936 0.4586 0.2208
C31_5 C 0.2763(4) 0.4384(3) 0.26506(17)
H35_5 H 0.2924 0.4080 0.2642
F1_5 F 0.14365(14) 0.7500 0.1250
N1_5 N 0.2416(2) 0.5978(3) 0.15904(16)
O1_5 O 0.0467(2) 0.6150(2) 0.13200(14)
O2_5 O 0.13297(17) 0.64428(19) 0.13072(13)
O3_5 O 0.0707(2) 0.6837(2) 0.09766(13)
O4_5 O 0.0673(2) 0.6953(2) 0.15489(12)
O5_5 O 0.2399(2) 0.7371(3) 0.03883(14)
O6_5 O 0.21887(18) 0.6987(2) 0.08846(12)
O7_5 O 0.15374(18) 0.7368(3) 0.05674(10)
O8_5 O 0.2150(2) 0.7895(2) 0.08312(15)
O9_5 O 0.2365(2) 0.6236(2) 0.13316(13)
P1_5 P 0.08209(7) 0.66408(8) 0.12871(4)
P2_5 P 0.20382(7) 0.74111(9) 0.06924(4)
Zn1_5 Zn 0.19137(3) 0.68352(3) 0.128068(18)
Zn2_5 Zn 0.09437(3) 0.74376(3) 0.080495(16)
C35_5 C 0.2603(3) 0.7214(3) 0.22346(18)
C36_5 C 0.2411(4) 0.7002(4) 0.24959(17)
C37_5 C 0.2646(4) 0.6615(4) 0.2633(2)
H43_5 H 0.2514 0.6469 0.2812
C38_5 C 0.3074(5) 0.6440(4) 0.2509(3)
H44_5 H 0.3236 0.6175 0.2603
C39_5 C 0.3267(4) 0.6653(4) 0.2248(3)
H45_5 H 0.3560 0.6533 0.2163
C40_5 C 0.3031(3) 0.7040(4) 0.2110(2)
C41_5 C 0.3319(4) 0.7273(6) 0.1825(4)
H46_5 H 0.3117 0.7562 0.1771
C42_5 C 0.3434(9) 0.7046(17) 0.1508(7)
H47_5 H 0.3596 0.7288 0.1378
H48_5 H 0.3648 0.6766 0.1536
H49_5 H 0.3132 0.6942 0.1410
C43_5 C 0.3764(4) 0.7499(11) 0.1980(6)
H50_5 H 0.3951 0.7682 0.1827
H51_5 H 0.3658 0.7718 0.2145
H52_5 H 0.3967 0.7242 0.2067
C44_5 C 0.1951(7) 0.7210(6) 0.2632(3)
H53_5 H 0.1869 0.7543 0.2557
C45_5 C 0.1561(10) 0.6840(10) 0.2577(6)
H54_5 H 0.1532 0.6778 0.2356
H55_5 H 0.1645 0.6538 0.2683
H56_5 H 0.1252 0.6962 0.2656
C46_5 C 0.2008(11) 0.7175(10) 0.2983(4)
H57_5 H 0.2249 0.7412 0.3053
H58_5 H 0.1696 0.7242 0.3082
H59_5 H 0.2116 0.6848 0.3038
C47_5 C 0.00623(17) 0.8857(2) 0.09935(12)
C52_5 C 0.00965(17) 0.9003(2) 0.06953(13)
C53_5 C 0.0586(4) 0.9158(4) 0.0573(2)
H63_5 H 0.0846 0.9083 0.0726
C54_5 C 0.0712(8) 0.8943(13) 0.0259(5)
H64_5 H 0.0715 0.8589 0.0274
H65_5 H 0.0469 0.9045 0.0108
H66_5 H 0.1033 0.9059 0.0195
C55_5 C 0.0637(7) 0.9670(5) 0.0458(6)
H67_5 H 0.0970 0.9723 0.0388
H68_5 H 0.0412 0.9723 0.0287
H69_5 H 0.0562 0.9897 0.0625
C56_5 C 0.2791(3) 0.9316(4) 0.0875(2)
H70_5 H 0.3037 0.9324 0.1027
C57_5 C 0.2831(4) 0.9610(4) 0.0623(2)
H71_5 H 0.3090 0.9836 0.0606
C58_5 C 0.2476(3) 0.9571(3) 0.03861(16)
C59_5 C 0.2523(3) 0.9890(3) 0.01037(17)
C60_5 C 0.2113(3) 0.9251(3) 0.04218(19)
H72_5 H 0.1878 0.9213 0.0264
C61_5 C 0.2084(3) 0.8977(3) 0.0688(2)
H73_5 H 0.1823 0.8755 0.0714
N3_5 N 0.2416(2) 0.9022(3) 0.09096(16)
O10_5 O 0.0467(2) 0.8850(2) 0.11800(14)
O11_5 O 0.13297(17) 0.85572(19) 0.11928(13)
O12_5 O 0.0707(2) 0.8163(2) 0.15234(13)
O13_5 O 0.0673(2) 0.8047(2) 0.09511(12)
O14_5 O 0.2399(2) 0.7629(3) 0.21117(14)
O15_5 O 0.21887(18) 0.8013(2) 0.16154(12)
O16_5 O 0.15374(18) 0.7632(3) 0.19326(10)
O17_5 O 0.2150(2) 0.7105(2) 0.16688(15)
O18_5 O 0.2365(2) 0.8764(2) 0.11684(13)
P3_5 P 0.08209(7) 0.83592(8) 0.12129(4)
P4_5 P 0.20382(7) 0.75889(9) 0.18076(4)
Zn3_5 Zn 0.19137(3) 0.81648(3) 0.121932(18)
N6_5 N 0.0486(2) 0.7459(3) 0.04115(12)
C1_6 C 0.7397(3) 0.2214(3) 0.02654(18)
C2_6 C 0.7589(4) 0.2002(4) 0.00041(17)
C5_6 C 0.6733(4) 0.1653(4) 0.0252(3)
H3_6 H 0.6440 0.1533 0.0337
C6_6 C 0.6969(3) 0.2040(4) 0.0390(2)
C7_6 C 0.6681(4) 0.2273(6) 0.0675(4)
H4_6 H 0.6883 0.2562 0.0729
C8_6 C 0.6566(9) 0.2046(17) 0.0992(7)
H5_6 H 0.6404 0.2288 0.1122
H6_6 H 0.6352 0.1766 0.0964
H7_6 H 0.6868 0.1942 0.1090
C9_6 C 0.6236(4) 0.2499(11) 0.0520(6)
H8_6 H 0.6049 0.2682 0.0673
H9_6 H 0.6342 0.2718 0.0355
H10_6 H 0.6033 0.2242 0.0433
H12_6 H 0.8468 0.1778 0.0144
C13_6 C 0.99377(17) 0.3857(2) 0.15065(12)
C18_6 C 0.99035(17) 0.4003(2) 0.18047(13)
C19_6 C 0.9414(4) 0.4158(4) 0.1927(2)
H21_6 H 0.9154 0.4083 0.1774
C20_6 C 0.9288(8) 0.3943(13) 0.2241(5)
H22_6 H 0.9285 0.3589 0.2226
H23_6 H 0.9531 0.4045 0.2392
H24_6 H 0.8967 0.4059 0.2305
C21_6 C 0.9363(7) 0.4670(5) 0.2042(6)
H25_6 H 0.9030 0.4723 0.2112
H26_6 H 0.9588 0.4723 0.2213
H27_6 H 0.9438 0.4897 0.1875
C22_6 C 0.7209(3) 0.4316(4) 0.1625(2)
H28_6 H 0.6963 0.4324 0.1473
C23_6 C 0.7169(4) 0.4610(4) 0.1877(2)
H29_6 H 0.6910 0.4836 0.1894
C24_6 C 0.7524(3) 0.4571(3) 0.21139(16)
C25_6 C 0.7477(3) 0.4890(3) 0.23963(17)
C26_6 C 0.7887(3) 0.4251(3) 0.20782(19)
H30_6 H 0.8122 0.4213 0.2236
C27_6 C 0.7916(3) 0.3977(3) 0.1812(2)
H31_6 H 0.8177 0.3755 0.1786
C28_6 C 0.7686(3) 0.5064(2) 0.29157(17)
H32_6 H 0.7855 0.4970 0.3097
C29_6 C 0.7685(3) 0.4757(3) 0.2667(2)
H33_6 H 0.7833 0.4447 0.2684
C30_6 C 0.7234(4) 0.5317(4) 0.2388(2)
H34_6 H 0.7064 0.5414 0.2208
C31_6 C 0.7237(4) 0.5616(3) 0.26506(17)
H35_6 H 0.7076 0.5920 0.2642
F1_6 F 0.85635(14) 0.2500 0.1250
N1_6 N 0.7584(2) 0.4022(3) 0.15904(16)
O1_6 O 0.9533(2) 0.3850(2) 0.13200(14)
O2_6 O 0.86703(17) 0.35572(19) 0.13072(13)
O3_6 O 0.9293(2) 0.3163(2) 0.09766(13)
O4_6 O 0.9327(2) 0.3047(2) 0.15489(12)
O5_6 O 0.7601(2) 0.2629(3) 0.03883(14)
O6_6 O 0.78113(18) 0.3013(2) 0.08846(12)
O7_6 O 0.84626(18) 0.2632(3) 0.05674(10)
O8_6 O 0.7850(2) 0.2105(2) 0.08312(15)
O9_6 O 0.7635(2) 0.3764(2) 0.13316(13)
P1_6 P 0.91791(7) 0.33592(8) 0.12871(4)
P2_6 P 0.79618(7) 0.25889(9) 0.06924(4)
Zn1_6 Zn 0.80863(3) 0.31648(3) 0.128068(18)
Zn2_6 Zn 0.90563(3) 0.25624(3) 0.080495(16)
C35_6 C 0.7397(3) 0.2786(3) 0.22346(18)
C36_6 C 0.7589(4) 0.2998(4) 0.24959(17)
C37_6 C 0.7354(4) 0.3385(4) 0.2633(2)
H43_6 H 0.7486 0.3531 0.2812
C38_6 C 0.6926(5) 0.3560(4) 0.2509(3)
H44_6 H 0.6764 0.3825 0.2603
C39_6 C 0.6733(4) 0.3347(4) 0.2248(3)
H45_6 H 0.6440 0.3467 0.2163
C40_6 C 0.6969(3) 0.2960(4) 0.2110(2)
C41_6 C 0.6681(4) 0.2727(6) 0.1825(4)
H46_6 H 0.6883 0.2438 0.1771
C42_6 C 0.6566(9) 0.2954(17) 0.1508(7)
H47_6 H 0.6404 0.2712 0.1378
H48_6 H 0.6352 0.3234 0.1536
H49_6 H 0.6868 0.3058 0.1410
C43_6 C 0.6236(4) 0.2501(11) 0.1980(6)
H50_6 H 0.6049 0.2318 0.1827
H51_6 H 0.6342 0.2282 0.2145
H52_6 H 0.6033 0.2758 0.2067
C44_6 C 0.8049(7) 0.2790(6) 0.2632(3)
H53_6 H 0.8131 0.2457 0.2557
C45_6 C 0.8439(10) 0.3160(10) 0.2577(6)
H54_6 H 0.8468 0.3222 0.2356
H55_6 H 0.8355 0.3462 0.2683
H56_6 H 0.8748 0.3038 0.2656
C46_6 C 0.7992(11) 0.2825(10) 0.2983(4)
H57_6 H 0.7751 0.2588 0.3053
H58_6 H 0.8304 0.2758 0.3082
H59_6 H 0.7884 0.3152 0.3038
C47_6 C 0.99377(17) 0.1143(2) 0.09935(12)
C52_6 C 0.99035(17) 0.0997(2) 0.06953(13)
C53_6 C 0.9414(4) 0.0842(4) 0.0573(2)
H63_6 H 0.9154 0.0917 0.0726
C54_6 C 0.9288(8) 0.1057(13) 0.0259(5)
H64_6 H 0.9285 0.1411 0.0274
H65_6 H 0.9531 0.0955 0.0108
H66_6 H 0.8967 0.0941 0.0195
C55_6 C 0.9363(7) 0.0330(5) 0.0458(6)
H67_6 H 0.9030 0.0277 0.0388
H68_6 H 0.9588 0.0277 0.0287
H69_6 H 0.9438 0.0103 0.0625
C56_6 C 0.7209(3) 0.0684(4) 0.0875(2)
H70_6 H 0.6963 0.0676 0.1027
C57_6 C 0.7169(4) 0.0390(4) 0.0623(2)
H71_6 H 0.6910 0.0164 0.0606
C58_6 C 0.7524(3) 0.0429(3) 0.03861(16)
C59_6 C 0.7477(3) 0.0110(3) 0.01037(17)
C60_6 C 0.7887(3) 0.0749(3) 0.04218(19)
H72_6 H 0.8122 0.0787 0.0264
C61_6 C 0.7916(3) 0.1023(3) 0.0688(2)
H73_6 H 0.8177 0.1245 0.0714
N3_6 N 0.7584(2) 0.0978(3) 0.09096(16)
O10_6 O 0.9533(2) 0.1150(2) 0.11800(14)
O11_6 O 0.86703(17) 0.14428(19) 0.11928(13)
O12_6 O 0.9293(2) 0.1837(2) 0.15234(13)
O13_6 O 0.9327(2) 0.1953(2) 0.09511(12)
O14_6 O 0.7601(2) 0.2371(3) 0.21117(14)
O15_6 O 0.78113(18) 0.1987(2) 0.16154(12)
O16_6 O 0.84626(18) 0.2368(3) 0.19326(10)
O17_6 O 0.7850(2) 0.2895(2) 0.16688(15)
O18_6 O 0.7635(2) 0.1236(2) 0.11684(13)
P3_6 P 0.91791(7) 0.16408(8) 0.12129(4)
P4_6 P 0.79618(7) 0.24111(9) 0.18076(4)
Zn3_6 Zn 0.80863(3) 0.18352(3) 0.121932(18)
N6_6 N 0.9514(2) 0.2541(3) 0.04115(12)
C62_6 C 0.7686(3) 0.9936(2) 0.95843(17)
C65_6 C 0.7237(4) 0.9384(3) 0.98494(17)
H77_6 H 0.7076 0.9080 0.9858
N4_6 N 0.7459(3) 0.9514(2) 0.95885(12)
Zn5_6 Zn 0.74376(3) 0.90563(3) 0.919505(16)
C28_7 C 0.0064(2) 0.7686(3) 0.04157(17)
C31_7 C 0.0616(3) 0.7237(4) 0.01506(17)
H35_7 H 0.0920 0.7076 0.0142
C1_7 C 0.7214(3) 0.7397(3) 0.77654(18)
C2_7 C 0.7002(4) 0.7589(4) 0.75041(17)
C3_5 C 0.6615(4) 0.7354(4) 0.7367(2)
H1_5 H 0.6469 0.7486 0.7188
C4_5 C 0.6440(4) 0.6926(5) 0.7491(3)
H2_5 H 0.6175 0.6764 0.7397
C5_7 C 0.6653(4) 0.6733(4) 0.7752(3)
H3_7 H 0.6533 0.6440 0.7837
C6_7 C 0.7040(4) 0.6969(3) 0.7890(2)
C7_7 C 0.7273(6) 0.6681(4) 0.8175(4)
H4_7 H 0.7562 0.6883 0.8229
C8_7 C 0.7046(17) 0.6566(9) 0.8492(7)
H5_7 H 0.7288 0.6404 0.8622
H6_7 H 0.6766 0.6352 0.8464
H7_7 H 0.6942 0.6868 0.8590
C9_7 C 0.7499(11) 0.6236(4) 0.8020(6)
H8_7 H 0.7682 0.6049 0.8173
H9_7 H 0.7718 0.6342 0.7855
H10_7 H 0.7242 0.6033 0.7933
C10_5 C 0.7210(6) 0.8049(7) 0.7368(3)
H11_5 H 0.7543 0.8131 0.7443
C11_5 C 0.6840(10) 0.8439(10) 0.7423(6)
H12_7 H 0.6778 0.8468 0.7644
H13_5 H 0.6538 0.8355 0.7317
H14_5 H 0.6962 0.8748 0.7344
C12_5 C 0.7175(10) 0.7992(11) 0.7017(4)
H15_5 H 0.7412 0.7751 0.6947
H16_5 H 0.7242 0.8304 0.6918
H17_5 H 0.6848 0.7884 0.6962
C13_7 C 0.8857(2) 0.99377(17) 0.90065(12)
C18_7 C 0.9003(2) 0.99035(17) 0.93047(13)
C19_7 C 0.9158(4) 0.9414(4) 0.9427(2)
H21_7 H 0.9083 0.9154 0.9274
C20_7 C 0.8943(13) 0.9288(8) 0.9741(5)
H22_7 H 0.8589 0.9285 0.9726
H23_7 H 0.9045 0.9531 0.9892
H24_7 H 0.9059 0.8967 0.9805
C21_7 C 0.9670(5) 0.9363(7) 0.9542(6)
H25_7 H 0.9723 0.9030 0.9612
H26_7 H 0.9723 0.9588 0.9713
H27_7 H 0.9897 0.9438 0.9375
C22_7 C 0.9316(4) 0.7209(3) 0.9125(2)
H28_7 H 0.9324 0.6963 0.8973
C23_7 C 0.9610(4) 0.7169(4) 0.9377(2)
H29_7 H 0.9836 0.6910 0.9394
C24_7 C 0.9571(3) 0.7524(3) 0.96139(16)
C25_7 C 0.9890(3) 0.7477(3) 0.98963(17)
C26_7 C 0.9251(3) 0.7887(3) 0.95782(19)
H30_7 H 0.9213 0.8122 0.9736
C27_7 C 0.8977(3) 0.7916(3) 0.9312(2)
H31_7 H 0.8755 0.8177 0.9286
F1_7 F 0.7500 0.85635(14) 0.8750
N1_7 N 0.9022(3) 0.7584(2) 0.90904(16)
O1_7 O 0.8850(2) 0.9533(2) 0.88200(14)
O2_7 O 0.85572(19) 0.86703(17) 0.88072(13)
O3_7 O 0.8163(2) 0.9293(2) 0.84766(13)
O4_7 O 0.8047(2) 0.9327(2) 0.90489(12)
O5_7 O 0.7629(3) 0.7601(2) 0.78883(14)
O6_7 O 0.8013(2) 0.78113(18) 0.83846(12)
O7_7 O 0.7632(3) 0.84626(18) 0.80674(10)
O8_7 O 0.7105(2) 0.7850(2) 0.83312(15)
O9_7 O 0.8764(2) 0.7635(2) 0.88316(13)
P1_7 P 0.83592(8) 0.91791(7) 0.87871(4)
P2_7 P 0.75889(9) 0.79618(7) 0.81924(4)
Zn1_7 Zn 0.81648(3) 0.80863(3) 0.878068(18)
C35_7 C 0.7786(3) 0.7397(3) 0.97346(18)
C36_7 C 0.7998(4) 0.7589(4) 0.99959(17)
C39_7 C 0.8347(4) 0.6733(4) 0.9748(3)
H45_7 H 0.8467 0.6440 0.9663
C40_7 C 0.7960(4) 0.6969(3) 0.9610(2)
C41_7 C 0.7727(6) 0.6681(4) 0.9325(4)
H46_7 H 0.7438 0.6883 0.9271
C42_7 C 0.7954(17) 0.6566(9) 0.9008(7)
H47_7 H 0.7712 0.6404 0.8878
H48_7 H 0.8234 0.6352 0.9036
H49_7 H 0.8058 0.6868 0.8910
C43_7 C 0.7501(11) 0.6236(4) 0.9480(6)
H50_7 H 0.7318 0.6049 0.9327
H51_7 H 0.7282 0.6342 0.9645
H52_7 H 0.7758 0.6033 0.9567
H54_7 H 0.8222 0.8468 0.9856
C47_7 C 0.6143(2) 0.99377(17) 0.84935(12)
C52_7 C 0.5997(2) 0.99035(17) 0.81953(13)
C53_7 C 0.5842(4) 0.9414(4) 0.8073(2)
H63_7 H 0.5917 0.9154 0.8226
C54_7 C 0.6057(13) 0.9288(8) 0.7759(5)
H64_7 H 0.6411 0.9285 0.7774
H65_7 H 0.5955 0.9531 0.7608
H66_7 H 0.5941 0.8967 0.7695
C55_7 C 0.5330(5) 0.9363(7) 0.7958(6)
H67_7 H 0.5277 0.9030 0.7888
H68_7 H 0.5277 0.9588 0.7787
H69_7 H 0.5103 0.9438 0.8125
C56_7 C 0.5684(4) 0.7209(3) 0.8375(2)
H70_7 H 0.5676 0.6963 0.8527
C57_7 C 0.5390(4) 0.7169(4) 0.8123(2)
H71_7 H 0.5164 0.6910 0.8106
C58_7 C 0.5429(3) 0.7524(3) 0.78861(16)
C59_7 C 0.5110(3) 0.7477(3) 0.76037(17)
C60_7 C 0.5749(3) 0.7887(3) 0.79218(19)
H72_7 H 0.5787 0.8122 0.7764
C61_7 C 0.6023(3) 0.7916(3) 0.8188(2)
H73_7 H 0.6245 0.8177 0.8214
C62_7 C 0.4936(2) 0.7686(3) 0.70843(17)
H74_5 H 0.5030 0.7855 0.6903
C63_5 C 0.5243(3) 0.7685(3) 0.7333(2)
H75_5 H 0.5553 0.7833 0.7316
C64_5 C 0.4683(4) 0.7234(4) 0.7612(2)
H76_5 H 0.4586 0.7064 0.7792
C65_7 C 0.4384(3) 0.7237(4) 0.73494(17)
H77_7 H 0.4080 0.7076 0.7358
N3_7 N 0.5978(3) 0.7584(2) 0.84096(16)
O10_7 O 0.6150(2) 0.9533(2) 0.86800(14)
O11_7 O 0.64428(19) 0.86703(17) 0.86928(13)
O12_7 O 0.6837(2) 0.9293(2) 0.90234(13)
O13_7 O 0.6953(2) 0.9327(2) 0.84511(12)
O14_7 O 0.7371(3) 0.7601(2) 0.96117(14)
O15_7 O 0.6987(2) 0.78113(18) 0.91154(12)
O16_7 O 0.7368(3) 0.84626(18) 0.94326(10)
O17_7 O 0.7895(2) 0.7850(2) 0.91688(15)
O18_7 O 0.6236(2) 0.7635(2) 0.86684(13)
P3_7 P 0.66408(8) 0.91791(7) 0.87129(4)
P4_7 P 0.74111(9) 0.79618(7) 0.93076(4)
Zn3_7 Zn 0.68352(3) 0.80863(3) 0.871932(18)
C1_8 C 0.2786(3) 0.2603(3) 0.77654(18)
C2_8 C 0.2998(4) 0.2411(4) 0.75041(17)
C3_6 C 0.3385(4) 0.2646(4) 0.7367(2)
H1_6 H 0.3531 0.2514 0.7188
C4_6 C 0.3560(4) 0.3074(5) 0.7491(3)
H2_6 H 0.3825 0.3236 0.7397
C5_8 C 0.3347(4) 0.3267(4) 0.7752(3)
H3_8 H 0.3467 0.3560 0.7837
C6_8 C 0.2960(4) 0.3031(3) 0.7890(2)
C7_8 C 0.2727(6) 0.3319(4) 0.8175(4)
H4_8 H 0.2438 0.3117 0.8229
C8_8 C 0.2954(17) 0.3434(9) 0.8492(7)
H5_8 H 0.2712 0.3596 0.8622
H6_8 H 0.3234 0.3648 0.8464
H7_8 H 0.3058 0.3132 0.8590
C9_8 C 0.2501(11) 0.3764(4) 0.8020(6)
H8_8 H 0.2318 0.3951 0.8173
H9_8 H 0.2282 0.3658 0.7855
H10_8 H 0.2758 0.3967 0.7933
C10_6 C 0.2790(6) 0.1951(7) 0.7368(3)
H11_6 H 0.2457 0.1869 0.7443
C11_6 C 0.3160(10) 0.1561(10) 0.7423(6)
H12_8 H 0.3222 0.1532 0.7644
H13_6 H 0.3462 0.1645 0.7317
H14_6 H 0.3038 0.1252 0.7344
C12_6 C 0.2825(10) 0.2008(11) 0.7017(4)
H15_6 H 0.2588 0.2249 0.6947
H16_6 H 0.2758 0.1696 0.6918
H17_6 H 0.3152 0.2116 0.6962
C13_8 C 0.1143(2) 0.00623(17) 0.90065(12)
C18_8 C 0.0997(2) 0.00965(17) 0.93047(13)
C19_8 C 0.0842(4) 0.0586(4) 0.9427(2)
H21_8 H 0.0917 0.0846 0.9274
C20_8 C 0.1057(13) 0.0712(8) 0.9741(5)
H22_8 H 0.1411 0.0715 0.9726
H23_8 H 0.0955 0.0469 0.9892
H24_8 H 0.0941 0.1033 0.9805
C21_8 C 0.0330(5) 0.0637(7) 0.9542(6)
H25_8 H 0.0277 0.0970 0.9612
H26_8 H 0.0277 0.0412 0.9713
H27_8 H 0.0103 0.0562 0.9375
C22_8 C 0.0684(4) 0.2791(3) 0.9125(2)
H28_8 H 0.0676 0.3037 0.8973
C23_8 C 0.0390(4) 0.2831(4) 0.9377(2)
H29_8 H 0.0164 0.3090 0.9394
C24_8 C 0.0429(3) 0.2476(3) 0.96139(16)
C25_8 C 0.0110(3) 0.2523(3) 0.98963(17)
C26_8 C 0.0749(3) 0.2113(3) 0.95782(19)
H30_8 H 0.0787 0.1878 0.9736
C27_8 C 0.1023(3) 0.2084(3) 0.9312(2)
H31_8 H 0.1245 0.1823 0.9286
F1_8 F 0.2500 0.14365(14) 0.8750
N1_8 N 0.0978(3) 0.2416(2) 0.90904(16)
O1_8 O 0.1150(2) 0.0467(2) 0.88200(14)
O2_8 O 0.14428(19) 0.13297(17) 0.88072(13)
O3_8 O 0.1837(2) 0.0707(2) 0.84766(13)
O4_8 O 0.1953(2) 0.0673(2) 0.90489(12)
O5_8 O 0.2371(3) 0.2399(2) 0.78883(14)
O6_8 O 0.1987(2) 0.21887(18) 0.83846(12)
O7_8 O 0.2368(3) 0.15374(18) 0.80674(10)
O8_8 O 0.2895(2) 0.2150(2) 0.83312(15)
O9_8 O 0.1236(2) 0.2365(2) 0.88316(13)
P1_8 P 0.16408(8) 0.08209(7) 0.87871(4)
P2_8 P 0.24111(9) 0.20382(7) 0.81924(4)
Zn1_8 Zn 0.18352(3) 0.19137(3) 0.878068(18)
C35_8 C 0.2214(3) 0.2603(3) 0.97346(18)
C36_8 C 0.2002(4) 0.2411(4) 0.99959(17)
C39_8 C 0.1653(4) 0.3267(4) 0.9748(3)
H45_8 H 0.1533 0.3560 0.9663
C40_8 C 0.2040(4) 0.3031(3) 0.9610(2)
C41_8 C 0.2273(6) 0.3319(4) 0.9325(4)
H46_8 H 0.2562 0.3117 0.9271
C42_8 C 0.2046(17) 0.3434(9) 0.9008(7)
H47_8 H 0.2288 0.3596 0.8878
H48_8 H 0.1766 0.3648 0.9036
H49_8 H 0.1942 0.3132 0.8910
C43_8 C 0.2499(11) 0.3764(4) 0.9480(6)
H50_8 H 0.2682 0.3951 0.9327
H51_8 H 0.2718 0.3658 0.9645
H52_8 H 0.2242 0.3967 0.9567
H54_8 H 0.1778 0.1532 0.9856
C47_8 C 0.3857(2) 0.00623(17) 0.84935(12)
C52_8 C 0.4003(2) 0.00965(17) 0.81953(13)
C53_8 C 0.4158(4) 0.0586(4) 0.8073(2)
H63_8 H 0.4083 0.0846 0.8226
C54_8 C 0.3943(13) 0.0712(8) 0.7759(5)
H64_8 H 0.3589 0.0715 0.7774
H65_8 H 0.4045 0.0469 0.7608
H66_8 H 0.4059 0.1033 0.7695
C55_8 C 0.4670(5) 0.0637(7) 0.7958(6)
H67_8 H 0.4723 0.0970 0.7888
H68_8 H 0.4723 0.0412 0.7787
H69_8 H 0.4897 0.0562 0.8125
C56_8 C 0.4316(4) 0.2791(3) 0.8375(2)
H70_8 H 0.4324 0.3037 0.8527
C57_8 C 0.4610(4) 0.2831(4) 0.8123(2)
H71_8 H 0.4836 0.3090 0.8106
C58_8 C 0.4571(3) 0.2476(3) 0.78861(16)
C59_8 C 0.4890(3) 0.2523(3) 0.76037(17)
C60_8 C 0.4251(3) 0.2113(3) 0.79218(19)
H72_8 H 0.4213 0.1878 0.7764
C61_8 C 0.3977(3) 0.2084(3) 0.8188(2)
H73_8 H 0.3755 0.1823 0.8214
C62_8 C 0.5064(2) 0.2314(3) 0.70843(17)
H74_6 H 0.4970 0.2145 0.6903
C63_6 C 0.4757(3) 0.2315(3) 0.7333(2)
H75_6 H 0.4447 0.2167 0.7316
C64_6 C 0.5317(4) 0.2766(4) 0.7612(2)
H76_6 H 0.5414 0.2936 0.7792
C65_8 C 0.5616(3) 0.2763(4) 0.73494(17)
H77_8 H 0.5920 0.2924 0.7358
N3_8 N 0.4022(3) 0.2416(2) 0.84096(16)
O10_8 O 0.3850(2) 0.0467(2) 0.86800(14)
O11_8 O 0.35572(19) 0.13297(17) 0.86928(13)
O12_8 O 0.3163(2) 0.0707(2) 0.90234(13)
O13_8 O 0.3047(2) 0.0673(2) 0.84511(12)
O14_8 O 0.2629(3) 0.2399(2) 0.96117(14)
O15_8 O 0.3013(2) 0.21887(18) 0.91154(12)
O16_8 O 0.2632(3) 0.15374(18) 0.94326(10)
O17_8 O 0.2105(2) 0.2150(2) 0.91688(15)
O18_8 O 0.3764(2) 0.2365(2) 0.86684(13)
P3_8 P 0.33592(8) 0.08209(7) 0.87129(4)
P4_8 P 0.25889(9) 0.20382(7) 0.93076(4)
Zn3_8 Zn 0.31648(3) 0.19137(3) 0.871932(18)
C28_8 C 0.9936(2) 0.2314(3) 0.04157(17)
C31_8 C 0.9384(3) 0.2763(4) 0.01506(17)
H35_8 H 0.9080 0.2924 0.0142
C64_7 C 0.2766(4) 0.0317(4) 0.0112(2)
H76_7 H 0.2936 0.0414 0.0292
C3_7 C 0.2646(4) 0.8385(4) 0.9867(2)
H1_7 H 0.2514 0.8531 0.9688
C4_7 C 0.3074(5) 0.8560(4) 0.9991(3)
H2_7 H 0.3236 0.8825 0.9897
C10_7 C 0.1951(7) 0.7790(6) 0.9868(3)
H11_7 H 0.1869 0.7457 0.9943
C11_7 C 0.1561(10) 0.8160(10) 0.9923(6)
H13_7 H 0.1645 0.8462 0.9817
H14_7 H 0.1252 0.8038 0.9844
C12_7 C 0.2008(11) 0.7825(10) 0.9517(4)
H15_7 H 0.2249 0.7588 0.9447
H16_7 H 0.1696 0.7758 0.9418
H17_7 H 0.2116 0.8152 0.9462
H74_7 H 0.2145 0.9970 0.9403
C63_7 C 0.2315(3) 0.9757(3) 0.9833(2)
H75_7 H 0.2167 0.9447 0.9816
C14_5 C 0.9626(2) 0.6282(3) 0.13898(15)
C15_5 C 0.9225(2) 0.6276(4) 0.15712(19)
H18_5 H 0.8921 0.6373 0.1490
C16_5 C 0.9259(2) 0.6131(3) 0.18694(18)
H19_5 H 0.8979 0.6126 0.1996
C17_5 C 0.9695(2) 0.5991(2) 0.19862(15)
H20_5 H 0.9719 0.5890 0.2194
C32_5 C 0.9572(6) 0.6435(10) 0.1055(4)
H36_5 H 0.9893 0.6409 0.0950
C33_5 C 0.9412(9) 0.6969(11) 0.1060(6)
H37_5 H 0.9372 0.7085 0.0848
H38_5 H 0.9103 0.6998 0.1169
H39_5 H 0.9659 0.7164 0.1164
C34_5 C 0.9209(13) 0.6069(17) 0.0904(7)
H40_5 H 0.9332 0.5738 0.0930
H41_5 H 0.8892 0.6097 0.1005
H42_5 H 0.9176 0.6143 0.0685
C48_5 C 0.9626(2) 0.8718(3) 0.11102(15)
C49_5 C 0.9225(2) 0.8724(4) 0.09288(19)
H60_5 H 0.8921 0.8627 0.1010
C50_5 C 0.9259(2) 0.8869(3) 0.06306(18)
H61_5 H 0.8979 0.8874 0.0504
C51_5 C 0.9695(2) 0.9009(2) 0.05138(15)
H62_5 H 0.9719 0.9110 0.0306
C66_5 C 0.9572(6) 0.8565(10) 0.1445(4)
H78_5 H 0.9893 0.8591 0.1550
C67_5 C 0.9412(9) 0.8031(11) 0.1440(6)
H79_5 H 0.9372 0.7915 0.1652
H80_5 H 0.9103 0.8002 0.1331
H81_5 H 0.9659 0.7836 0.1336
C68_5 C 0.9209(13) 0.8931(17) 0.1596(7)
H82_5 H 0.9332 0.9262 0.1570
H83_5 H 0.8892 0.8903 0.1495
H84_5 H 0.9176 0.8857 0.1815
C14_6 C 0.0374(2) 0.3718(3) 0.13898(15)
C15_6 C 0.0775(2) 0.3724(4) 0.15712(19)
H18_6 H 0.1079 0.3627 0.1490
C16_6 C 0.0741(2) 0.3869(3) 0.18694(18)
H19_6 H 0.1021 0.3874 0.1996
C17_6 C 0.0305(2) 0.4009(2) 0.19862(15)
H20_6 H 0.0281 0.4110 0.2194
C32_6 C 0.0428(6) 0.3565(10) 0.1055(4)
H36_6 H 0.0107 0.3591 0.0950
C33_6 C 0.0588(9) 0.3031(11) 0.1060(6)
H37_6 H 0.0628 0.2915 0.0848
H38_6 H 0.0897 0.3002 0.1169
H39_6 H 0.0341 0.2836 0.1164
C34_6 C 0.0791(13) 0.3931(17) 0.0904(7)
H40_6 H 0.0668 0.4262 0.0930
H41_6 H 0.1108 0.3903 0.1005
H42_6 H 0.0824 0.3857 0.0685
C48_6 C 0.0374(2) 0.1282(3) 0.11102(15)
C49_6 C 0.0775(2) 0.1276(4) 0.09288(19)
H60_6 H 0.1079 0.1373 0.1010
C50_6 C 0.0741(2) 0.1131(3) 0.06306(18)
H61_6 H 0.1021 0.1126 0.0504
C51_6 C 0.0305(2) 0.0991(2) 0.05138(15)
H62_6 H 0.0281 0.0890 0.0306
C66_6 C 0.0428(6) 0.1435(10) 0.1445(4)
H78_6 H 0.0107 0.1409 0.1550
C67_6 C 0.0588(9) 0.1969(11) 0.1440(6)
H79_6 H 0.0628 0.2085 0.1652
H80_6 H 0.0897 0.1998 0.1331
H81_6 H 0.0341 0.2164 0.1336
C68_6 C 0.0791(13) 0.1069(17) 0.1596(7)
H82_6 H 0.0668 0.0738 0.1570
H83_6 H 0.1108 0.1097 0.1495
H84_6 H 0.0824 0.1143 0.1815
C3_8 C 0.7354(4) 0.1615(4) 0.9867(2)
H1_8 H 0.7486 0.1469 0.9688
C4_8 C 0.6926(5) 0.1440(4) 0.9991(3)
H2_8 H 0.6764 0.1175 0.9897
C10_8 C 0.8049(7) 0.2210(6) 0.9868(3)
H11_8 H 0.8131 0.2543 0.9943
C11_8 C 0.8439(10) 0.1840(10) 0.9923(6)
H13_8 H 0.8355 0.1538 0.9817
H14_8 H 0.8748 0.1962 0.9844
C12_8 C 0.7992(11) 0.2175(10) 0.9517(4)
H15_8 H 0.7751 0.2412 0.9447
H16_8 H 0.8304 0.2242 0.9418
H17_8 H 0.7884 0.1848 0.9462
H74_8 H 0.7855 0.0030 0.9403
C63_8 C 0.7685(3) 0.0243(3) 0.9833(2)
H75_8 H 0.7833 0.0553 0.9816
C64_8 C 0.7234(4) 0.9683(4) 0.0112(2)
H76_8 H 0.7064 0.9586 0.0292
C30_7 C 0.0317(4) 0.7234(4) 0.9888(2)
H34_7 H 0.0414 0.7064 0.9708
C14_7 C 0.8718(3) 0.0374(2) 0.88898(15)
C15_7 C 0.8724(4) 0.0775(2) 0.90712(19)
H18_7 H 0.8627 0.1079 0.8990
C16_7 C 0.8869(3) 0.0741(2) 0.93694(18)
H19_7 H 0.8874 0.1021 0.9496
C17_7 C 0.9009(2) 0.0305(2) 0.94862(15)
H20_7 H 0.9110 0.0281 0.9694
C32_7 C 0.8565(10) 0.0428(6) 0.8555(4)
H36_7 H 0.8591 0.0107 0.8450
C33_7 C 0.8031(11) 0.0588(9) 0.8560(6)
H37_7 H 0.7915 0.0628 0.8348
H38_7 H 0.8002 0.0897 0.8669
H39_7 H 0.7836 0.0341 0.8664
C34_7 C 0.8931(17) 0.0791(13) 0.8404(7)
H40_7 H 0.9262 0.0668 0.8430
H41_7 H 0.8903 0.1108 0.8505
H42_7 H 0.8857 0.0824 0.8185
C48_7 C 0.6282(3) 0.0374(2) 0.86102(15)
C49_7 C 0.6276(4) 0.0775(2) 0.84288(19)
H60_7 H 0.6373 0.1079 0.8510
C50_7 C 0.6131(3) 0.0741(2) 0.81306(18)
H61_7 H 0.6126 0.1021 0.8004
C51_7 C 0.5991(2) 0.0305(2) 0.80138(15)
H62_7 H 0.5890 0.0281 0.7806
C66_7 C 0.6435(10) 0.0428(6) 0.8945(4)
H78_7 H 0.6409 0.0107 0.9050
C67_7 C 0.6969(11) 0.0588(9) 0.8940(6)
H79_7 H 0.7085 0.0628 0.9152
H80_7 H 0.6998 0.0897 0.8831
H81_7 H 0.7164 0.0341 0.8836
C68_7 C 0.6069(17) 0.0791(13) 0.9096(7)
H82_7 H 0.5738 0.0668 0.9070
H83_7 H 0.6097 0.1108 0.8995
H84_7 H 0.6143 0.0824 0.9315
H32_7 H 0.9970 0.7855 0.0597
C29_7 C 0.9757(3) 0.7685(3) 0.0167(2)
H33_7 H 0.9447 0.7833 0.0184
C37_7 C 0.8385(4) 0.7354(4) 0.0133(2)
H43_7 H 0.8531 0.7486 0.0312
C38_7 C 0.8560(4) 0.6926(5) 0.0009(3)
H44_7 H 0.8825 0.6764 0.0103
C44_7 C 0.7790(6) 0.8049(7) 0.0132(3)
H53_7 H 0.7457 0.8131 0.0057
C45_7 C 0.8160(10) 0.8439(10) 0.0077(6)
H55_7 H 0.8462 0.8355 0.0183
H56_7 H 0.8038 0.8748 0.0156
C46_7 C 0.7825(10) 0.7992(11) 0.0483(4)
H57_7 H 0.7588 0.7751 0.0553
H58_7 H 0.7758 0.8304 0.0582
H59_7 H 0.8152 0.7884 0.0538
H32_8 H 0.0030 0.2145 0.0597
C29_8 C 0.0243(3) 0.2315(3) 0.0167(2)
H33_8 H 0.0553 0.2167 0.0184
C37_8 C 0.1615(4) 0.2646(4) 0.0133(2)
H43_8 H 0.1469 0.2514 0.0312
C38_8 C 0.1440(4) 0.3074(5) 0.0009(3)
H44_8 H 0.1175 0.3236 0.0103
C44_8 C 0.2210(6) 0.1951(7) 0.0132(3)
H53_8 H 0.2543 0.1869 0.0057
C45_8 C 0.1840(10) 0.1561(10) 0.0077(6)
H55_8 H 0.1538 0.1645 0.0183
H56_8 H 0.1962 0.1252 0.0156
C46_8 C 0.2175(10) 0.2008(11) 0.0483(4)
H57_8 H 0.2412 0.2249 0.0553
H58_8 H 0.2242 0.1696 0.0582
H59_8 H 0.1848 0.2116 0.0538
C14_8 C 0.1282(3) 0.9626(2) 0.88898(15)
C15_8 C 0.1276(4) 0.9225(2) 0.90712(19)
H18_8 H 0.1373 0.8921 0.8990
C16_8 C 0.1131(3) 0.9259(2) 0.93694(18)
H19_8 H 0.1126 0.8979 0.9496
C17_8 C 0.0991(2) 0.9695(2) 0.94862(15)
H20_8 H 0.0890 0.9719 0.9694
C32_8 C 0.1435(10) 0.9572(6) 0.8555(4)
H36_8 H 0.1409 0.9893 0.8450
C33_8 C 0.1969(11) 0.9412(9) 0.8560(6)
H37_8 H 0.2085 0.9372 0.8348
H38_8 H 0.1998 0.9103 0.8669
H39_8 H 0.2164 0.9659 0.8664
C34_8 C 0.1069(17) 0.9209(13) 0.8404(7)
H40_8 H 0.0738 0.9332 0.8430
H41_8 H 0.1097 0.8892 0.8505
H42_8 H 0.1143 0.9176 0.8185
C48_8 C 0.3718(3) 0.9626(2) 0.86102(15)
C49_8 C 0.3724(4) 0.9225(2) 0.84288(19)
H60_8 H 0.3627 0.8921 0.8510
C50_8 C 0.3869(3) 0.9259(2) 0.81306(18)
H61_8 H 0.3874 0.8979 0.8004
C51_8 C 0.4009(2) 0.9695(2) 0.80138(15)
H62_8 H 0.4110 0.9719 0.7806
C66_8 C 0.3565(10) 0.9572(6) 0.8945(4)
H78_8 H 0.3591 0.9893 0.9050
C67_8 C 0.3031(11) 0.9412(9) 0.8940(6)
H79_8 H 0.2915 0.9372 0.9152
H80_8 H 0.3002 0.9103 0.8831
H81_8 H 0.2836 0.9659 0.8836
C68_8 C 0.3931(17) 0.9209(13) 0.9096(7)
H82_8 H 0.4262 0.9332 0.9070
H83_8 H 0.3903 0.8892 0.8995
H84_8 H 0.3857 0.9176 0.9315
C30_8 C 0.9683(4) 0.2766(4) 0.9888(2)
H34_8 H 0.9586 0.2936 0.9708
loop_
_geom_bond_atom_site_label_1
_geom_bond_atom_site_label_2
_geom_bond_site_symmetry_1
_geom_bond_site_symmetry_2
C1 C2 1_555 1_555
C2 C3 1_555 1_555
C3 H1 1_555 1_555
C4 C3 1_555 1_555
H2 C4 1_555 1_555
C5 C4 1_555 1_555
H3 C5 1_555 1_555
C6 C1 1_555 1_555
C7 C6 1_555 1_555
H4 C7 1_555 1_555
C8 C7 1_555 1_555
H5 C8 1_555 1_555
H6 C8 1_555 1_555
H7 C8 1_555 1_555
C9 C7 1_555 1_555
H8 C9 1_555 1_555
H9 C9 1_555 1_555
H10 C9 1_555 1_555
C10 C2 1_555 1_555
H11 C10 1_555 1_555
C11 C10 1_555 1_555
H12 C11 1_555 1_555
H13 C11 1_555 1_555
H14 C11 1_555 1_555
C12 C10 1_555 1_555
H15 C12 1_555 1_555
H16 C12 1_555 1_555
H17 C12 1_555 1_555
C13 C14 1_555 1_555
C14 C15 1_555 1_555
C15 H18 1_555 1_555
C16 C15 1_555 1_555
H19 C16 1_555 1_555
C17 C16 1_555 1_555
H20 C17 1_555 1_555
C18 C13 1_555 1_555
C19 C18 1_555 1_555
H21 C19 1_555 1_555
C20 C19 1_555 1_555
H22 C20 1_555 1_555
H23 C20 1_555 1_555
H24 C20 1_555 1_555
C21 C19 1_555 1_555
H25 C21 1_555 1_555
H26 C21 1_555 1_555
H27 C21 1_555 1_555
C22 H28 1_555 1_555
C23 C22 1_555 1_555
H29 C23 1_555 1_555
C24 C23 1_555 1_555
C25 C24 1_555 1_555
C26 C24 1_555 1_555
H30 C26 1_555 1_555
C27 C26 1_555 1_555
H31 C27 1_555 1_555
C28 H32 1_555 1_555
C29 C25 1_555 1_555
H33 C29 1_555 1_555
C30 C25 1_555 1_555
H34 C30 1_555 1_555
C31 C30 1_555 1_555
H35 C31 1_555 1_555
F1 Zn1 1_555 1_555
N1 C22 1_555 1_555
N2 C28 1_555 1_555
O1 C13 1_555 1_555
O2 P1 1_555 1_555
O3 P1 1_555 1_555
O4 P1 1_555 1_555
O5 C1 1_555 1_555
O6 P2 1_555 1_555
O7 P2 1_555 1_555
O8 P2 1_555 1_555
O9 N1 1_555 1_555
P1 O1 1_555 1_555
P2 O5 1_555 1_555
Zn1 O2 1_555 1_555
Zn2 F1 1_555 1_555
C32 C14 1_555 1_555
H36 C32 1_555 1_555
C33 C32 1_555 1_555
H37 C33 1_555 1_555
H38 C33 1_555 1_555
H39 C33 1_555 1_555
C34 C32 1_555 1_555
H40 C34 1_555 1_555
H41 C34 1_555 1_555
H42 C34 1_555 1_555
C35 C36 1_555 1_555
C36 C37 1_555 1_555
C37 H43 1_555 1_555
C38 C37 1_555 1_555
H44 C38 1_555 1_555
C39 C38 1_555 1_555
H45 C39 1_555 1_555
C40 C35 1_555 1_555
C41 C40 1_555 1_555
H46 C41 1_555 1_555
C42 C41 1_555 1_555
H47 C42 1_555 1_555
H48 C42 1_555 1_555
H49 C42 1_555 1_555
C43 C41 1_555 1_555
H50 C43 1_555 1_555
H51 C43 1_555 1_555
H52 C43 1_555 1_555
C44 C36 1_555 1_555
H53 C44 1_555 1_555
C45 C44 1_555 1_555
H54 C45 1_555 1_555
H55 C45 1_555 1_555
H56 C45 1_555 1_555
C46 C44 1_555 1_555
H57 C46 1_555 1_555
H58 C46 1_555 1_555
H59 C46 1_555 1_555
C47 C48 1_555 1_555
C48 C49 1_555 1_555
C49 H60 1_555 1_555
C50 C49 1_555 1_555
H61 C50 1_555 1_555
C51 C50 1_555 1_555
H62 C51 1_555 1_555
C52 C47 1_555 1_555
C53 C52 1_555 1_555
H63 C53 1_555 1_555
C54 C53 1_555 1_555
H64 C54 1_555 1_555
H65 C54 1_555 1_555
H66 C54 1_555 1_555
C55 C53 1_555 1_555
H67 C55 1_555 1_555
H68 C55 1_555 1_555
H69 C55 1_555 1_555
C56 H70 1_555 1_555
C57 C56 1_555 1_555
H71 C57 1_555 1_555
C58 C57 1_555 1_555
C59 C58 1_555 1_555
C60 C58 1_555 1_555
H72 C60 1_555 1_555
C61 C60 1_555 1_555
H73 C61 1_555 1_555
C63 C59 1_555 1_555
H75 C63 1_555 1_555
N3 C56 1_555 1_555
O10 C47 1_555 1_555
O11 P3 1_555 1_555
O12 P3 1_555 1_555
O13 Zn2 1_555 1_555
O14 C35 1_555 1_555
O15 P4 1_555 1_555
O16 P4 1_555 1_555
O17 Zn1 1_555 1_555
O18 N3 1_555 1_555
P3 O10 1_555 1_555
P4 O14 1_555 1_555
Zn3 F1 1_555 1_555
Zn4 F1 1_555 1_555
C66 C48 1_555 1_555
H78 C66 1_555 1_555
C67 C66 1_555 1_555
H79 C67 1_555 1_555
H80 C67 1_555 1_555
H81 C67 1_555 1_555
C68 C66 1_555 1_555
H82 C68 1_555 1_555
H83 C68 1_555 1_555
H84 C68 1_555 1_555
N5 Zn4 1_555 1_555
N6 Zn2 1_555 1_555
Zn6 N2 1_555 1_555
C5 C6 1_555 1_555
C17 C18 1_555 1_555
C27 N1 1_555 1_555
C28 C29 1_555 1_555
C31 N2 1_555 1_555
O3 Zn2 1_555 1_555
O4 Zn4 1_555 1_555
O6 Zn1 1_555 1_555
O7 Zn2 1_555 1_555
O8 Zn3 1_555 1_555
O9 Zn1 1_555 1_555
C39 C40 1_555 1_555
C51 C52 1_555 1_555
C61 N3 1_555 1_555
O11 Zn3 1_555 1_555
O12 Zn4 1_555 1_555
O13 P3 1_555 1_555
O15 Zn3 1_555 1_555
O16 Zn4 1_555 1_555
O17 P4 1_555 1_555
O18 Zn3 1_555 1_555
H76 C64 1_555 1_555
C65 C64 1_555 1_555
H77 C65 1_555 1_555
N4 C62 1_555 1_555
Zn5 N4 1_555 1_555
C65 N4 1_555 1_555
H76_2 C64_2 1_555 1_555
C65_2 C64_2 1_555 1_555
H77_2 C65_2 1_555 1_555
N4_2 C62_2 1_555 1_555
Zn5_2 N4_2 1_555 1_555
C65_2 N4_2 1_555 1_555
C1_2 C2_2 1_555 1_555
C2_2 C3_2 1_555 1_555
C3_2 H1_2 1_555 1_555
C4_2 C3_2 1_555 1_555
H2_2 C4_2 1_555 1_555
C5_2 C4_2 1_555 1_555
H3_2 C5_2 1_555 1_555
C6_2 C1_2 1_555 1_555
C7_2 C6_2 1_555 1_555
H4_2 C7_2 1_555 1_555
C8_2 C7_2 1_555 1_555
H5_2 C8_2 1_555 1_555
H6_2 C8_2 1_555 1_555
H7_2 C8_2 1_555 1_555
C9_2 C7_2 1_555 1_555
H8_2 C9_2 1_555 1_555
H9_2 C9_2 1_555 1_555
H10_2 C9_2 1_555 1_555
C10_2 C2_2 1_555 1_555
H11_2 C10_2 1_555 1_555
C11_2 C10_2 1_555 1_555
H12_2 C11_2 1_555 1_555
H13_2 C11_2 1_555 1_555
H14_2 C11_2 1_555 1_555
C12_2 C10_2 1_555 1_555
H15_2 C12_2 1_555 1_555
H16_2 C12_2 1_555 1_555
H17_2 C12_2 1_555 1_555
C13_2 C14_2 1_555 1_555
C14_2 C15_2 1_555 1_555
C15_2 H18_2 1_555 1_555
C16_2 C15_2 1_555 1_555
H19_2 C16_2 1_555 1_555
C17_2 C16_2 1_555 1_555
H20_2 C17_2 1_555 1_555
C18_2 C13_2 1_555 1_555
C19_2 C18_2 1_555 1_555
H21_2 C19_2 1_555 1_555
C20_2 C19_2 1_555 1_555
H22_2 C20_2 1_555 1_555
H23_2 C20_2 1_555 1_555
H24_2 C20_2 1_555 1_555
C21_2 C19_2 1_555 1_555
H25_2 C21_2 1_555 1_555
H26_2 C21_2 1_555 1_555
H27_2 C21_2 1_555 1_555
C22_2 H28_2 1_555 1_555
C23_2 C22_2 1_555 1_555
H29_2 C23_2 1_555 1_555
C24_2 C23_2 1_555 1_555
C25_2 C24_2 1_555 1_555
C26_2 C24_2 1_555 1_555
H30_2 C26_2 1_555 1_555
C27_2 C26_2 1_555 1_555
H31_2 C27_2 1_555 1_555
C28_2 H32_2 1_555 1_555
C29_2 C25_2 1_555 1_555
H33_2 C29_2 1_555 1_555
C30_2 C25_2 1_555 1_555
H34_2 C30_2 1_555 1_555
C31_2 C30_2 1_555 1_555
H35_2 C31_2 1_555 1_555
F1_2 Zn1_2 1_555 1_555
N1_2 C22_2 1_555 1_555
N5 C28_2 1_555 1_555
O1_2 C13_2 1_555 1_555
O2_2 P1_2 1_555 1_555
O3_2 P1_2 1_555 1_555
O4_2 P1_2 1_555 1_555
O5_2 C1_2 1_555 1_555
O6_2 P2_2 1_555 1_555
O7_2 P2_2 1_555 1_555
O8_2 P2_2 1_555 1_555
O9_2 N1_2 1_555 1_555
P1_2 O1_2 1_555 1_555
P2_2 O5_2 1_555 1_555
Zn1_2 O2_2 1_555 1_555
Zn2_2 F1_2 1_555 1_555
C32_2 C14_2 1_555 1_555
H36_2 C32_2 1_555 1_555
C33_2 C32_2 1_555 1_555
H37_2 C33_2 1_555 1_555
H38_2 C33_2 1_555 1_555
H39_2 C33_2 1_555 1_555
C34_2 C32_2 1_555 1_555
H40_2 C34_2 1_555 1_555
H41_2 C34_2 1_555 1_555
H42_2 C34_2 1_555 1_555
C35_2 C36_2 1_555 1_555
C36_2 C37_2 1_555 1_555
C37_2 H43_2 1_555 1_555
C38_2 C37_2 1_555 1_555
H44_2 C38_2 1_555 1_555
C39_2 C38_2 1_555 1_555
H45_2 C39_2 1_555 1_555
C40_2 C35_2 1_555 1_555
C41_2 C40_2 1_555 1_555
H46_2 C41_2 1_555 1_555
C42_2 C41_2 1_555 1_555
H47_2 C42_2 1_555 1_555
H48_2 C42_2 1_555 1_555
H49_2 C42_2 1_555 1_555
C43_2 C41_2 1_555 1_555
H50_2 C43_2 1_555 1_555
H51_2 C43_2 1_555 1_555
H52_2 C43_2 1_555 1_555
C44_2 C36_2 1_555 1_555
H53_2 C44_2 1_555 1_555
C45_2 C44_2 1_555 1_555
H54_2 C45_2 1_555 1_555
H55_2 C45_2 1_555 1_555
H56_2 C45_2 1_555 1_555
C46_2 C44_2 1_555 1_555
H57_2 C46_2 1_555 1_555
H58_2 C46_2 1_555 1_555
H59_2 C46_2 1_555 1_555
C47_2 C48_2 1_555 1_555
C48_2 C49_2 1_555 1_555
C49_2 H60_2 1_555 1_555
C50_2 C49_2 1_555 1_555
H61_2 C50_2 1_555 1_555
C51_2 C50_2 1_555 1_555
H62_2 C51_2 1_555 1_555
C52_2 C47_2 1_555 1_555
C53_2 C52_2 1_555 1_555
H63_2 C53_2 1_555 1_555
C54_2 C53_2 1_555 1_555
H64_2 C54_2 1_555 1_555
H65_2 C54_2 1_555 1_555
H66_2 C54_2 1_555 1_555
C55_2 C53_2 1_555 1_555
H67_2 C55_2 1_555 1_555
H68_2 C55_2 1_555 1_555
H69_2 C55_2 1_555 1_555
C56_2 H70_2 1_555 1_555
C57_2 C56_2 1_555 1_555
H71_2 C57_2 1_555 1_555
C58_2 C57_2 1_555 1_555
C59_2 C58_2 1_555 1_555
C60_2 C58_2 1_555 1_555
H72_2 C60_2 1_555 1_555
C61_2 C60_2 1_555 1_555
H73_2 C61_2 1_555 1_555
C63_2 C59_2 1_555 1_555
H75_2 C63_2 1_555 1_555
N3_2 C56_2 1_555 1_555
O10_2 C47_2 1_555 1_555
O11_2 P3_2 1_555 1_555
O12_2 P3_2 1_555 1_555
O13_2 Zn2_2 1_555 1_555
O14_2 C35_2 1_555 1_555
O15_2 P4_2 1_555 1_555
O16_2 P4_2 1_555 1_555
O17_2 Zn1_2 1_555 1_555
O18_2 N3_2 1_555 1_555
P3_2 O10_2 1_555 1_555
P4_2 O14_2 1_555 1_555
Zn3_2 F1_2 1_555 1_555
Zn4_2 F1_2 1_555 1_555
C66_2 C48_2 1_555 1_555
H78_2 C66_2 1_555 1_555
C67_2 C66_2 1_555 1_555
H79_2 C67_2 1_555 1_555
H80_2 C67_2 1_555 1_555
H81_2 C67_2 1_555 1_555
C68_2 C66_2 1_555 1_555
H82_2 C68_2 1_555 1_555
H83_2 C68_2 1_555 1_555
H84_2 C68_2 1_555 1_555
N5_2 Zn4_2 1_555 1_555
N6_2 Zn2_2 1_555 1_555
C5_2 C6_2 1_555 1_555
C17_2 C18_2 1_555 1_555
C27_2 N1_2 1_555 1_555
C28_2 C29_2 1_555 1_555
C31_2 N5 1_555 1_555
O3_2 Zn2_2 1_555 1_555
O4_2 Zn4_2 1_555 1_555
O6_2 Zn1_2 1_555 1_555
O7_2 Zn2_2 1_555 1_555
O8_2 Zn3_2 1_555 1_555
O9_2 Zn1_2 1_555 1_555
C39_2 C40_2 1_555 1_555
C51_2 C52_2 1_555 1_555
C61_2 N3_2 1_555 1_555
O11_2 Zn3_2 1_555 1_555
O12_2 Zn4_2 1_555 1_555
O13_2 P3_2 1_555 1_555
O15_2 Zn3_2 1_555 1_555
O16_2 Zn4_2 1_555 1_555
O17_2 P4_2 1_555 1_555
O18_2 Zn3_2 1_555 1_555
H76_3 C64_3 1_555 1_555
C65_3 C64_3 1_555 1_555
H77_3 C65_3 1_555 1_555
N4_3 C62_3 1_555 1_555
Zn5_3 N4_3 1_555 1_555
C65_3 N4_3 1_555 1_555
C1_3 C2_3 1_555 1_555
C2_3 C3_3 1_555 1_555
C3_3 H1_3 1_555 1_555
C4_3 C3_3 1_555 1_555
H2_3 C4_3 1_555 1_555
C5_3 C4_3 1_555 1_555
H3_3 C5_3 1_555 1_555
C6_3 C1_3 1_555 1_555
C7_3 C6_3 1_555 1_555
H4_3 C7_3 1_555 1_555
C8_3 C7_3 1_555 1_555
H5_3 C8_3 1_555 1_555
H6_3 C8_3 1_555 1_555
H7_3 C8_3 1_555 1_555
C9_3 C7_3 1_555 1_555
H8_3 C9_3 1_555 1_555
H9_3 C9_3 1_555 1_555
H10_3 C9_3 1_555 1_555
C10_3 C2_3 1_555 1_555
H11_3 C10_3 1_555 1_555
C11_3 C10_3 1_555 1_555
H12_3 C11_3 1_555 1_555
H13_3 C11_3 1_555 1_555
H14_3 C11_3 1_555 1_555
C12_3 C10_3 1_555 1_555
H15_3 C12_3 1_555 1_555
H16_3 C12_3 1_555 1_555
H17_3 C12_3 1_555 1_555
C13_3 C14_3 1_555 1_555
C14_3 C15_3 1_555 1_555
C15_3 H18_3 1_555 1_555
C16_3 C15_3 1_555 1_555
H19_3 C16_3 1_555 1_555
C17_3 C16_3 1_555 1_555
H20_3 C17_3 1_555 1_555
C18_3 C13_3 1_555 1_555
C19_3 C18_3 1_555 1_555
H21_3 C19_3 1_555 1_555
C20_3 C19_3 1_555 1_555
H22_3 C20_3 1_555 1_555
H23_3 C20_3 1_555 1_555
H24_3 C20_3 1_555 1_555
C21_3 C19_3 1_555 1_555
H25_3 C21_3 1_555 1_555
H26_3 C21_3 1_555 1_555
H27_3 C21_3 1_555 1_555
C22_3 H28_3 1_555 1_555
C23_3 C22_3 1_555 1_555
H29_3 C23_3 1_555 1_555
C24_3 C23_3 1_555 1_555
C25_3 C24_3 1_555 1_555
C26_3 C24_3 1_555 1_555
H30_3 C26_3 1_555 1_555
C27_3 C26_3 1_555 1_555
H31_3 C27_3 1_555 1_555
C28_3 H32_3 1_555 1_555
C29_3 C25_3 1_555 1_555
H33_3 C29_3 1_555 1_555
C30_3 C25_3 1_555 1_555
H34_3 C30_3 1_555 1_555
C31_3 C30_3 1_555 1_555
H35_3 C31_3 1_555 1_555
F1_3 Zn1_3 1_555 1_555
N1_3 C22_3 1_555 1_555
N5_2 C28_3 1_555 1_555
O1_3 C13_3 1_555 1_555
O2_3 P1_3 1_555 1_555
O3_3 P1_3 1_555 1_555
O4_3 P1_3 1_555 1_555
O5_3 C1_3 1_555 1_555
O6_3 P2_3 1_555 1_555
O7_3 P2_3 1_555 1_555
O8_3 P2_3 1_555 1_555
O9_3 N1_3 1_555 1_555
P1_3 O1_3 1_555 1_555
P2_3 O5_3 1_555 1_555
Zn1_3 O2_3 1_555 1_555
Zn2_3 F1_3 1_555 1_555
C32_3 C14_3 1_555 1_555
H36_3 C32_3 1_555 1_555
C33_3 C32_3 1_555 1_555
H37_3 C33_3 1_555 1_555
H38_3 C33_3 1_555 1_555
H39_3 C33_3 1_555 1_555
C34_3 C32_3 1_555 1_555
H40_3 C34_3 1_555 1_555
H41_3 C34_3 1_555 1_555
H42_3 C34_3 1_555 1_555
C35_3 C36_3 1_555 1_555
C36_3 C37_3 1_555 1_555
C37_3 H43_3 1_555 1_555
C38_3 C37_3 1_555 1_555
H44_3 C38_3 1_555 1_555
C39_3 C38_3 1_555 1_555
H45_3 C39_3 1_555 1_555
C40_3 C35_3 1_555 1_555
C41_3 C40_3 1_555 1_555
H46_3 C41_3 1_555 1_555
C42_3 C41_3 1_555 1_555
H47_3 C42_3 1_555 1_555
H48_3 C42_3 1_555 1_555
H49_3 C42_3 1_555 1_555
C43_3 C41_3 1_555 1_555
H50_3 C43_3 1_555 1_555
H51_3 C43_3 1_555 1_555
H52_3 C43_3 1_555 1_555
C44_3 C36_3 1_555 1_555
H53_3 C44_3 1_555 1_555
C45_3 C44_3 1_555 1_555
H54_3 C45_3 1_555 1_555
H55_3 C45_3 1_555 1_555
H56_3 C45_3 1_555 1_555
C46_3 C44_3 1_555 1_555
H57_3 C46_3 1_555 1_555
H58_3 C46_3 1_555 1_555
H59_3 C46_3 1_555 1_555
C47_3 C48_3 1_555 1_555
C48_3 C49_3 1_555 1_555
C49_3 H60_3 1_555 1_555
C50_3 C49_3 1_555 1_555
H61_3 C50_3 1_555 1_555
C51_3 C50_3 1_555 1_555
H62_3 C51_3 1_555 1_555
C52_3 C47_3 1_555 1_555
C53_3 C52_3 1_555 1_555
H63_3 C53_3 1_555 1_555
C54_3 C53_3 1_555 1_555
H64_3 C54_3 1_555 1_555
H65_3 C54_3 1_555 1_555
H66_3 C54_3 1_555 1_555
C55_3 C53_3 1_555 1_555
H67_3 C55_3 1_555 1_555
H68_3 C55_3 1_555 1_555
H69_3 C55_3 1_555 1_555
C56_3 H70_3 1_555 1_555
C57_3 C56_3 1_555 1_555
H71_3 C57_3 1_555 1_555
C58_3 C57_3 1_555 1_555
C59_3 C58_3 1_555 1_555
C60_3 C58_3 1_555 1_555
H72_3 C60_3 1_555 1_555
C61_3 C60_3 1_555 1_555
H73_3 C61_3 1_555 1_555
C63_3 C59_3 1_555 1_555
H75_3 C63_3 1_555 1_555
N3_3 C56_3 1_555 1_555
O10_3 C47_3 1_555 1_555
O11_3 P3_3 1_555 1_555
O12_3 P3_3 1_555 1_555
O13_3 Zn2_3 1_555 1_555
O14_3 C35_3 1_555 1_555
O15_3 P4_3 1_555 1_555
O16_3 P4_3 1_555 1_555
O17_3 Zn1_3 1_555 1_555
O18_3 N3_3 1_555 1_555
P3_3 O10_3 1_555 1_555
P4_3 O14_3 1_555 1_555
Zn3_3 F1_3 1_555 1_555
Zn4_3 F1_3 1_555 1_555
C66_3 C48_3 1_555 1_555
H78_3 C66_3 1_555 1_555
C67_3 C66_3 1_555 1_555
H79_3 C67_3 1_555 1_555
H80_3 C67_3 1_555 1_555
H81_3 C67_3 1_555 1_555
C68_3 C66_3 1_555 1_555
H82_3 C68_3 1_555 1_555
H83_3 C68_3 1_555 1_555
H84_3 C68_3 1_555 1_555
N5_3 Zn4_3 1_555 1_555
N6_3 Zn2_3 1_555 1_555
C5_3 C6_3 1_555 1_555
C17_3 C18_3 1_555 1_555
C27_3 N1_3 1_555 1_555
C28_3 C29_3 1_555 1_555
C31_3 N5_2 1_555 1_555
O3_3 Zn2_3 1_555 1_555
O4_3 Zn4_3 1_555 1_555
O6_3 Zn1_3 1_555 1_555
O7_3 Zn2_3 1_555 1_555
O8_3 Zn3_3 1_555 1_555
O9_3 Zn1_3 1_555 1_555
C39_3 C40_3 1_555 1_555
C51_3 C52_3 1_555 1_555
C61_3 N3_3 1_555 1_555
O11_3 Zn3_3 1_555 1_555
O12_3 Zn4_3 1_555 1_555
O13_3 P3_3 1_555 1_555
O15_3 Zn3_3 1_555 1_555
O16_3 Zn4_3 1_555 1_555
O17_3 P4_3 1_555 1_555
O18_3 Zn3_3 1_555 1_555
C1_4 C2_4 1_555 1_555
C2_4 C3_4 1_555 1_555
C3_4 H1_4 1_555 1_555
C4_4 C3_4 1_555 1_555
H2_4 C4_4 1_555 1_555
C5_4 C4_4 1_555 1_555
H3_4 C5_4 1_555 1_555
C6_4 C1_4 1_555 1_555
C7_4 C6_4 1_555 1_555
H4_4 C7_4 1_555 1_555
C8_4 C7_4 1_555 1_555
H5_4 C8_4 1_555 1_555
H6_4 C8_4 1_555 1_555
H7_4 C8_4 1_555 1_555
C9_4 C7_4 1_555 1_555
H8_4 C9_4 1_555 1_555
H9_4 C9_4 1_555 1_555
H10_4 C9_4 1_555 1_555
C10_4 C2_4 1_555 1_555
H11_4 C10_4 1_555 1_555
C11_4 C10_4 1_555 1_555
H12_4 C11_4 1_555 1_555
H13_4 C11_4 1_555 1_555
H14_4 C11_4 1_555 1_555
C12_4 C10_4 1_555 1_555
H15_4 C12_4 1_555 1_555
H16_4 C12_4 1_555 1_555
H17_4 C12_4 1_555 1_555
C13_4 C14_4 1_555 1_555
C14_4 C15_4 1_555 1_555
C15_4 H18_4 1_555 1_555
C16_4 C15_4 1_555 1_555
H19_4 C16_4 1_555 1_555
C17_4 C16_4 1_555 1_555
H20_4 C17_4 1_555 1_555
C18_4 C13_4 1_555 1_555
C19_4 C18_4 1_555 1_555
H21_4 C19_4 1_555 1_555
C20_4 C19_4 1_555 1_555
H22_4 C20_4 1_555 1_555
H23_4 C20_4 1_555 1_555
H24_4 C20_4 1_555 1_555
C21_4 C19_4 1_555 1_555
H25_4 C21_4 1_555 1_555
H26_4 C21_4 1_555 1_555
H27_4 C21_4 1_555 1_555
C22_4 H28_4 1_555 1_555
C23_4 C22_4 1_555 1_555
H29_4 C23_4 1_555 1_555
C24_4 C23_4 1_555 1_555
C25_4 C24_4 1_555 1_555
C26_4 C24_4 1_555 1_555
H30_4 C26_4 1_555 1_555
C27_4 C26_4 1_555 1_555
H31_4 C27_4 1_555 1_555
C28_4 H32_4 1_555 1_555
C29_4 C25_4 1_555 1_555
H33_4 C29_4 1_555 1_555
C30_4 C25_4 1_555 1_555
H34_4 C30_4 1_555 1_555
C31_4 C30_4 1_555 1_555
H35_4 C31_4 1_555 1_555
F1_4 Zn1_4 1_555 1_555
N1_4 C22_4 1_555 1_555
N5_3 C28_4 1_555 1_555
O1_4 C13_4 1_555 1_555
O2_4 P1_4 1_555 1_555
O3_4 P1_4 1_555 1_555
O4_4 P1_4 1_555 1_555
O5_4 C1_4 1_555 1_555
O6_4 P2_4 1_555 1_555
O7_4 P2_4 1_555 1_555
O8_4 P2_4 1_555 1_555
O9_4 N1_4 1_555 1_555
P1_4 O1_4 1_555 1_555
P2_4 O5_4 1_555 1_555
Zn1_4 O2_4 1_555 1_555
Zn2_4 F1_4 1_555 1_555
C32_4 C14_4 1_555 1_555
H36_4 C32_4 1_555 1_555
C33_4 C32_4 1_555 1_555
H37_4 C33_4 1_555 1_555
H38_4 C33_4 1_555 1_555
H39_4 C33_4 1_555 1_555
C34_4 C32_4 1_555 1_555
H40_4 C34_4 1_555 1_555
H41_4 C34_4 1_555 1_555
H42_4 C34_4 1_555 1_555
C35_4 C36_4 1_555 1_555
C36_4 C37_4 1_555 1_555
C37_4 H43_4 1_555 1_555
C38_4 C37_4 1_555 1_555
H44_4 C38_4 1_555 1_555
C39_4 C38_4 1_555 1_555
H45_4 C39_4 1_555 1_555
C40_4 C35_4 1_555 1_555
C41_4 C40_4 1_555 1_555
H46_4 C41_4 1_555 1_555
C42_4 C41_4 1_555 1_555
H47_4 C42_4 1_555 1_555
H48_4 C42_4 1_555 1_555
H49_4 C42_4 1_555 1_555
C43_4 C41_4 1_555 1_555
H50_4 C43_4 1_555 1_555
H51_4 C43_4 1_555 1_555
H52_4 C43_4 1_555 1_555
C44_4 C36_4 1_555 1_555
H53_4 C44_4 1_555 1_555
C45_4 C44_4 1_555 1_555
H54_4 C45_4 1_555 1_555
H55_4 C45_4 1_555 1_555
H56_4 C45_4 1_555 1_555
C46_4 C44_4 1_555 1_555
H57_4 C46_4 1_555 1_555
H58_4 C46_4 1_555 1_555
H59_4 C46_4 1_555 1_555
C47_4 C48_4 1_555 1_555
C48_4 C49_4 1_555 1_555
C49_4 H60_4 1_555 1_555
C50_4 C49_4 1_555 1_555
H61_4 C50_4 1_555 1_555
C51_4 C50_4 1_555 1_555
H62_4 C51_4 1_555 1_555
C52_4 C47_4 1_555 1_555
C53_4 C52_4 1_555 1_555
H63_4 C53_4 1_555 1_555
C54_4 C53_4 1_555 1_555
H64_4 C54_4 1_555 1_555
H65_4 C54_4 1_555 1_555
H66_4 C54_4 1_555 1_555
C55_4 C53_4 1_555 1_555
H67_4 C55_4 1_555 1_555
H68_4 C55_4 1_555 1_555
H69_4 C55_4 1_555 1_555
C56_4 H70_4 1_555 1_555
C57_4 C56_4 1_555 1_555
H71_4 C57_4 1_555 1_555
C58_4 C57_4 1_555 1_555
C59_4 C58_4 1_555 1_555
C60_4 C58_4 1_555 1_555
H72_4 C60_4 1_555 1_555
C61_4 C60_4 1_555 1_555
H73_4 C61_4 1_555 1_555
C63_4 C59_4 1_555 1_555
H75_4 C63_4 1_555 1_555
N3_4 C56_4 1_555 1_555
O10_4 C47_4 1_555 1_555
O11_4 P3_4 1_555 1_555
O12_4 P3_4 1_555 1_555
O13_4 Zn2_4 1_555 1_555
O14_4 C35_4 1_555 1_555
O15_4 P4_4 1_555 1_555
O16_4 P4_4 1_555 1_555
O17_4 Zn1_4 1_555 1_555
O18_4 N3_4 1_555 1_555
P3_4 O10_4 1_555 1_555
P4_4 O14_4 1_555 1_555
Zn3_4 F1_4 1_555 1_555
Zn6 F1_4 1_555 1_555
C66_4 C48_4 1_555 1_555
H78_4 C66_4 1_555 1_555
C67_4 C66_4 1_555 1_555
H79_4 C67_4 1_555 1_555
H80_4 C67_4 1_555 1_555
H81_4 C67_4 1_555 1_555
C68_4 C66_4 1_555 1_555
H82_4 C68_4 1_555 1_555
H83_4 C68_4 1_555 1_555
H84_4 C68_4 1_555 1_555
N6_4 Zn2_4 1_555 1_555
C5_4 C6_4 1_555 1_555
C17_4 C18_4 1_555 1_555
C27_4 N1_4 1_555 1_555
C28_4 C29_4 1_555 1_555
C31_4 N5_3 1_555 1_555
O3_4 Zn2_4 1_555 1_555
O4_4 Zn6 1_555 1_555
O6_4 Zn1_4 1_555 1_555
O7_4 Zn2_4 1_555 1_555
O8_4 Zn3_4 1_555 1_555
O9_4 Zn1_4 1_555 1_555
C39_4 C40_4 1_555 1_555
C51_4 C52_4 1_555 1_555
C61_4 N3_4 1_555 1_555
O11_4 Zn3_4 1_555 1_555
O12_4 Zn6 1_555 1_555
O13_4 P3_4 1_555 1_555
O15_4 Zn3_4 1_555 1_555
O16_4 Zn6 1_555 1_555
O17_4 P4_4 1_555 1_555
O18_4 Zn3_4 1_555 1_555
H76_4 C64_4 1_555 1_555
C65_4 C64_4 1_555 1_555
H77_4 C65_4 1_555 1_555
N4_4 C62_4 1_555 1_555
Zn5_4 N4_4 1_555 1_555
C65_4 N4_4 1_555 1_555
H77_5 C65_5 1_555 1_555
N4_5 C62_5 1_555 1_555
Zn5_5 N4_5 1_555 1_555
C65_5 N4_5 1_555 1_555
C1_5 C2_5 1_555 1_555
H3_5 C5_5 1_555 1_555
C6_5 C1_5 1_555 1_555
C7_5 C6_5 1_555 1_555
H4_5 C7_5 1_555 1_555
C8_5 C7_5 1_555 1_555
H5_5 C8_5 1_555 1_555
H6_5 C8_5 1_555 1_555
H7_5 C8_5 1_555 1_555
C9_5 C7_5 1_555 1_555
H8_5 C9_5 1_555 1_555
H9_5 C9_5 1_555 1_555
H10_5 C9_5 1_555 1_555
C18_5 C13_5 1_555 1_555
C19_5 C18_5 1_555 1_555
H21_5 C19_5 1_555 1_555
C20_5 C19_5 1_555 1_555
H22_5 C20_5 1_555 1_555
H23_5 C20_5 1_555 1_555
H24_5 C20_5 1_555 1_555
C21_5 C19_5 1_555 1_555
H25_5 C21_5 1_555 1_555
H26_5 C21_5 1_555 1_555
H27_5 C21_5 1_555 1_555
C22_5 H28_5 1_555 1_555
C23_5 C22_5 1_555 1_555
H29_5 C23_5 1_555 1_555
C24_5 C23_5 1_555 1_555
C25_5 C24_5 1_555 1_555
C26_5 C24_5 1_555 1_555
H30_5 C26_5 1_555 1_555
C27_5 C26_5 1_555 1_555
H31_5 C27_5 1_555 1_555
C28_5 H32_5 1_555 1_555
C29_5 C25_5 1_555 1_555
H33_5 C29_5 1_555 1_555
C30_5 C25_5 1_555 1_555
H34_5 C30_5 1_555 1_555
C31_5 C30_5 1_555 1_555
H35_5 C31_5 1_555 1_555
F1_5 Zn1_5 1_555 1_555
N1_5 C22_5 1_555 1_555
N6 C28_5 1_555 1_555
O1_5 C13_5 1_555 1_555
O2_5 P1_5 1_555 1_555
O3_5 P1_5 1_555 1_555
O4_5 P1_5 1_555 1_555
O5_5 C1_5 1_555 1_555
O6_5 P2_5 1_555 1_555
O7_5 P2_5 1_555 1_555
O8_5 P2_5 1_555 1_555
O9_5 N1_5 1_555 1_555
P1_5 O1_5 1_555 1_555
P2_5 O5_5 1_555 1_555
Zn1_5 O2_5 1_555 1_555
Zn2_5 F1_5 1_555 1_555
C35_5 C36_5 1_555 1_555
C36_5 C37_5 1_555 1_555
C37_5 H43_5 1_555 1_555
C38_5 C37_5 1_555 1_555
H44_5 C38_5 1_555 1_555
C39_5 C38_5 1_555 1_555
H45_5 C39_5 1_555 1_555
C40_5 C35_5 1_555 1_555
C41_5 C40_5 1_555 1_555
H46_5 C41_5 1_555 1_555
C42_5 C41_5 1_555 1_555
H47_5 C42_5 1_555 1_555
H48_5 C42_5 1_555 1_555
H49_5 C42_5 1_555 1_555
C43_5 C41_5 1_555 1_555
H50_5 C43_5 1_555 1_555
H51_5 C43_5 1_555 1_555
H52_5 C43_5 1_555 1_555
C44_5 C36_5 1_555 1_555
H53_5 C44_5 1_555 1_555
C45_5 C44_5 1_555 1_555
H54_5 C45_5 1_555 1_555
H55_5 C45_5 1_555 1_555
H56_5 C45_5 1_555 1_555
C46_5 C44_5 1_555 1_555
H57_5 C46_5 1_555 1_555
H58_5 C46_5 1_555 1_555
H59_5 C46_5 1_555 1_555
C52_5 C47_5 1_555 1_555
C53_5 C52_5 1_555 1_555
H63_5 C53_5 1_555 1_555
C54_5 C53_5 1_555 1_555
H64_5 C54_5 1_555 1_555
H65_5 C54_5 1_555 1_555
H66_5 C54_5 1_555 1_555
C55_5 C53_5 1_555 1_555
H67_5 C55_5 1_555 1_555
H68_5 C55_5 1_555 1_555
H69_5 C55_5 1_555 1_555
C56_5 H70_5 1_555 1_555
C57_5 C56_5 1_555 1_555
H71_5 C57_5 1_555 1_555
C58_5 C57_5 1_555 1_555
C59_5 C58_5 1_555 1_555
C60_5 C58_5 1_555 1_555
H72_5 C60_5 1_555 1_555
C61_5 C60_5 1_555 1_555
H73_5 C61_5 1_555 1_555
N3_5 C56_5 1_555 1_555
O10_5 C47_5 1_555 1_555
O11_5 P3_5 1_555 1_555
O12_5 P3_5 1_555 1_555
O13_5 Zn2_5 1_555 1_555
O14_5 C35_5 1_555 1_555
O15_5 P4_5 1_555 1_555
O16_5 P4_5 1_555 1_555
O17_5 Zn1_5 1_555 1_555
O18_5 N3_5 1_555 1_555
P3_5 O10_5 1_555 1_555
P4_5 O14_5 1_555 1_555
Zn3_5 F1_5 1_555 1_555
Zn5_3 F1_5 1_555 1_555
N6_5 Zn2_5 1_555 1_555
C5_5 C6_5 1_555 1_555
C27_5 N1_5 1_555 1_555
C28_5 C29_5 1_555 1_555
C31_5 N6 1_555 1_555
O3_5 Zn2_5 1_555 1_555
O4_5 Zn5_3 1_555 1_555
O6_5 Zn1_5 1_555 1_555
O7_5 Zn2_5 1_555 1_555
O8_5 Zn3_5 1_555 1_555
O9_5 Zn1_5 1_555 1_555
C39_5 C40_5 1_555 1_555
C61_5 N3_5 1_555 1_555
O11_5 Zn3_5 1_555 1_555
O12_5 Zn5_3 1_555 1_555
O13_5 P3_5 1_555 1_555
O15_5 Zn3_5 1_555 1_555
O16_5 Zn5_3 1_555 1_555
O17_5 P4_5 1_555 1_555
O18_5 Zn3_5 1_555 1_555
C1_6 C2_6 1_555 1_555
H3_6 C5_6 1_555 1_555
C6_6 C1_6 1_555 1_555
C7_6 C6_6 1_555 1_555
H4_6 C7_6 1_555 1_555
C8_6 C7_6 1_555 1_555
H5_6 C8_6 1_555 1_555
H6_6 C8_6 1_555 1_555
H7_6 C8_6 1_555 1_555
C9_6 C7_6 1_555 1_555
H8_6 C9_6 1_555 1_555
H9_6 C9_6 1_555 1_555
H10_6 C9_6 1_555 1_555
C18_6 C13_6 1_555 1_555
C19_6 C18_6 1_555 1_555
H21_6 C19_6 1_555 1_555
C20_6 C19_6 1_555 1_555
H22_6 C20_6 1_555 1_555
H23_6 C20_6 1_555 1_555
H24_6 C20_6 1_555 1_555
C21_6 C19_6 1_555 1_555
H25_6 C21_6 1_555 1_555
H26_6 C21_6 1_555 1_555
H27_6 C21_6 1_555 1_555
C22_6 H28_6 1_555 1_555
C23_6 C22_6 1_555 1_555
H29_6 C23_6 1_555 1_555
C24_6 C23_6 1_555 1_555
C25_6 C24_6 1_555 1_555
C26_6 C24_6 1_555 1_555
H30_6 C26_6 1_555 1_555
C27_6 C26_6 1_555 1_555
H31_6 C27_6 1_555 1_555
C28_6 H32_6 1_555 1_555
C29_6 C25_6 1_555 1_555
H33_6 C29_6 1_555 1_555
C30_6 C25_6 1_555 1_555
H34_6 C30_6 1_555 1_555
C31_6 C30_6 1_555 1_555
H35_6 C31_6 1_555 1_555
F1_6 Zn1_6 1_555 1_555
N1_6 C22_6 1_555 1_555
N6_3 C28_6 1_555 1_555
O1_6 C13_6 1_555 1_555
O2_6 P1_6 1_555 1_555
O3_6 P1_6 1_555 1_555
O4_6 P1_6 1_555 1_555
O5_6 C1_6 1_555 1_555
O6_6 P2_6 1_555 1_555
O7_6 P2_6 1_555 1_555
O8_6 P2_6 1_555 1_555
O9_6 N1_6 1_555 1_555
P1_6 O1_6 1_555 1_555
P2_6 O5_6 1_555 1_555
Zn1_6 O2_6 1_555 1_555
Zn2_6 F1_6 1_555 1_555
C35_6 C36_6 1_555 1_555
C36_6 C37_6 1_555 1_555
C37_6 H43_6 1_555 1_555
C38_6 C37_6 1_555 1_555
H44_6 C38_6 1_555 1_555
C39_6 C38_6 1_555 1_555
H45_6 C39_6 1_555 1_555
C40_6 C35_6 1_555 1_555
C41_6 C40_6 1_555 1_555
H46_6 C41_6 1_555 1_555
C42_6 C41_6 1_555 1_555
H47_6 C42_6 1_555 1_555
H48_6 C42_6 1_555 1_555
H49_6 C42_6 1_555 1_555
C43_6 C41_6 1_555 1_555
H50_6 C43_6 1_555 1_555
H51_6 C43_6 1_555 1_555
H52_6 C43_6 1_555 1_555
C44_6 C36_6 1_555 1_555
H53_6 C44_6 1_555 1_555
C45_6 C44_6 1_555 1_555
H54_6 C45_6 1_555 1_555
H55_6 C45_6 1_555 1_555
H56_6 C45_6 1_555 1_555
C46_6 C44_6 1_555 1_555
H57_6 C46_6 1_555 1_555
H58_6 C46_6 1_555 1_555
H59_6 C46_6 1_555 1_555
C52_6 C47_6 1_555 1_555
C53_6 C52_6 1_555 1_555
H63_6 C53_6 1_555 1_555
C54_6 C53_6 1_555 1_555
H64_6 C54_6 1_555 1_555
H65_6 C54_6 1_555 1_555
H66_6 C54_6 1_555 1_555
C55_6 C53_6 1_555 1_555
H67_6 C55_6 1_555 1_555
H68_6 C55_6 1_555 1_555
H69_6 C55_6 1_555 1_555
C56_6 H70_6 1_555 1_555
C57_6 C56_6 1_555 1_555
H71_6 C57_6 1_555 1_555
C58_6 C57_6 1_555 1_555
C59_6 C58_6 1_555 1_555
C60_6 C58_6 1_555 1_555
H72_6 C60_6 1_555 1_555
C61_6 C60_6 1_555 1_555
H73_6 C61_6 1_555 1_555
N3_6 C56_6 1_555 1_555
O10_6 C47_6 1_555 1_555
O11_6 P3_6 1_555 1_555
O12_6 P3_6 1_555 1_555
O13_6 Zn2_6 1_555 1_555
O14_6 C35_6 1_555 1_555
O15_6 P4_6 1_555 1_555
O16_6 P4_6 1_555 1_555
O17_6 Zn1_6 1_555 1_555
O18_6 N3_6 1_555 1_555
P3_6 O10_6 1_555 1_555
P4_6 O14_6 1_555 1_555
Zn3_6 F1_6 1_555 1_555
Zn5 F1_6 1_555 1_555
N6_6 Zn2_6 1_555 1_555
C5_6 C6_6 1_555 1_555
C27_6 N1_6 1_555 1_555
C28_6 C29_6 1_555 1_555
C31_6 N6_3 1_555 1_555
O3_6 Zn2_6 1_555 1_555
O4_6 Zn5 1_555 1_555
O6_6 Zn1_6 1_555 1_555
O7_6 Zn2_6 1_555 1_555
O8_6 Zn3_6 1_555 1_555
O9_6 Zn1_6 1_555 1_555
C39_6 C40_6 1_555 1_555
C61_6 N3_6 1_555 1_555
O11_6 Zn3_6 1_555 1_555
O12_6 Zn5 1_555 1_555
O13_6 P3_6 1_555 1_555
O15_6 Zn3_6 1_555 1_555
O16_6 Zn5 1_555 1_555
O17_6 P4_6 1_555 1_555
O18_6 Zn3_6 1_555 1_555
H77_6 C65_6 1_555 1_555
N4_6 C62_6 1_555 1_555
Zn5_6 N4_6 1_555 1_555
C65_6 N4_6 1_555 1_555
H35_7 C31_7 1_555 1_555
N6_5 C28_7 1_555 1_555
C31_7 N6_5 1_555 1_555
C1_7 C2_7 1_555 1_555
C2_7 C3_5 1_555 1_555
C3_5 H1_5 1_555 1_555
C4_5 C3_5 1_555 1_555
H2_5 C4_5 1_555 1_555
C5_7 C4_5 1_555 1_555
H3_7 C5_7 1_555 1_555
C6_7 C1_7 1_555 1_555
C7_7 C6_7 1_555 1_555
H4_7 C7_7 1_555 1_555
C8_7 C7_7 1_555 1_555
H5_7 C8_7 1_555 1_555
H6_7 C8_7 1_555 1_555
H7_7 C8_7 1_555 1_555
C9_7 C7_7 1_555 1_555
H8_7 C9_7 1_555 1_555
H9_7 C9_7 1_555 1_555
H10_7 C9_7 1_555 1_555
C10_5 C2_7 1_555 1_555
H11_5 C10_5 1_555 1_555
C11_5 C10_5 1_555 1_555
H12_7 C11_5 1_555 1_555
H13_5 C11_5 1_555 1_555
H14_5 C11_5 1_555 1_555
C12_5 C10_5 1_555 1_555
H15_5 C12_5 1_555 1_555
H16_5 C12_5 1_555 1_555
H17_5 C12_5 1_555 1_555
C18_7 C13_7 1_555 1_555
C19_7 C18_7 1_555 1_555
H21_7 C19_7 1_555 1_555
C20_7 C19_7 1_555 1_555
H22_7 C20_7 1_555 1_555
H23_7 C20_7 1_555 1_555
H24_7 C20_7 1_555 1_555
C21_7 C19_7 1_555 1_555
H25_7 C21_7 1_555 1_555
H26_7 C21_7 1_555 1_555
H27_7 C21_7 1_555 1_555
C22_7 H28_7 1_555 1_555
C23_7 C22_7 1_555 1_555
H29_7 C23_7 1_555 1_555
C24_7 C23_7 1_555 1_555
C25_7 C24_7 1_555 1_555
C26_7 C24_7 1_555 1_555
H30_7 C26_7 1_555 1_555
C27_7 C26_7 1_555 1_555
H31_7 C27_7 1_555 1_555
F1_7 Zn1_7 1_555 1_555
N1_7 C22_7 1_555 1_555
O1_7 C13_7 1_555 1_555
O2_7 P1_7 1_555 1_555
O3_7 P1_7 1_555 1_555
O4_7 P1_7 1_555 1_555
O5_7 C1_7 1_555 1_555
O6_7 P2_7 1_555 1_555
O7_7 P2_7 1_555 1_555
O8_7 P2_7 1_555 1_555
O9_7 N1_7 1_555 1_555
P1_7 O1_7 1_555 1_555
P2_7 O5_7 1_555 1_555
Zn1_7 O2_7 1_555 1_555
Zn5_4 F1_7 1_555 1_555
C35_7 C36_7 1_555 1_555
H45_7 C39_7 1_555 1_555
C40_7 C35_7 1_555 1_555
C41_7 C40_7 1_555 1_555
H46_7 C41_7 1_555 1_555
C42_7 C41_7 1_555 1_555
H47_7 C42_7 1_555 1_555
H48_7 C42_7 1_555 1_555
H49_7 C42_7 1_555 1_555
C43_7 C41_7 1_555 1_555
H50_7 C43_7 1_555 1_555
H51_7 C43_7 1_555 1_555
H52_7 C43_7 1_555 1_555
C52_7 C47_7 1_555 1_555
C53_7 C52_7 1_555 1_555
H63_7 C53_7 1_555 1_555
C54_7 C53_7 1_555 1_555
H64_7 C54_7 1_555 1_555
H65_7 C54_7 1_555 1_555
H66_7 C54_7 1_555 1_555
C55_7 C53_7 1_555 1_555
H67_7 C55_7 1_555 1_555
H68_7 C55_7 1_555 1_555
H69_7 C55_7 1_555 1_555
C56_7 H70_7 1_555 1_555
C57_7 C56_7 1_555 1_555
H71_7 C57_7 1_555 1_555
C58_7 C57_7 1_555 1_555
C59_7 C58_7 1_555 1_555
C60_7 C58_7 1_555 1_555
H72_7 C60_7 1_555 1_555
C61_7 C60_7 1_555 1_555
H73_7 C61_7 1_555 1_555
C62_7 H74_5 1_555 1_555
C63_5 C59_7 1_555 1_555
H75_5 C63_5 1_555 1_555
C64_5 C59_7 1_555 1_555
H76_5 C64_5 1_555 1_555
C65_7 C64_5 1_555 1_555
H77_7 C65_7 1_555 1_555
N3_7 C56_7 1_555 1_555
N6_2 C62_7 1_555 1_555
O10_7 C47_7 1_555 1_555
O11_7 P3_7 1_555 1_555
O12_7 P3_7 1_555 1_555
O13_7 Zn5_4 1_555 1_555
O14_7 C35_7 1_555 1_555
O15_7 P4_7 1_555 1_555
O16_7 P4_7 1_555 1_555
O17_7 Zn1_7 1_555 1_555
O18_7 N3_7 1_555 1_555
P3_7 O10_7 1_555 1_555
P4_7 O14_7 1_555 1_555
Zn3_7 F1_7 1_555 1_555
Zn5_6 F1_7 1_555 1_555
C5_7 C6_7 1_555 1_555
C27_7 N1_7 1_555 1_555
O3_7 Zn5_4 1_555 1_555
O4_7 Zn5_6 1_555 1_555
O6_7 Zn1_7 1_555 1_555
O7_7 Zn5_4 1_555 1_555
O8_7 Zn3_7 1_555 1_555
O9_7 Zn1_7 1_555 1_555
C39_7 C40_7 1_555 1_555
C61_7 N3_7 1_555 1_555
C62_7 C63_5 1_555 1_555
C65_7 N6_2 1_555 1_555
O11_7 Zn3_7 1_555 1_555
O12_7 Zn5_6 1_555 1_555
O13_7 P3_7 1_555 1_555
O15_7 Zn3_7 1_555 1_555
O16_7 Zn5_6 1_555 1_555
O17_7 P4_7 1_555 1_555
O18_7 Zn3_7 1_555 1_555
C1_8 C2_8 1_555 1_555
C2_8 C3_6 1_555 1_555
C3_6 H1_6 1_555 1_555
C4_6 C3_6 1_555 1_555
H2_6 C4_6 1_555 1_555
C5_8 C4_6 1_555 1_555
H3_8 C5_8 1_555 1_555
C6_8 C1_8 1_555 1_555
C7_8 C6_8 1_555 1_555
H4_8 C7_8 1_555 1_555
C8_8 C7_8 1_555 1_555
H5_8 C8_8 1_555 1_555
H6_8 C8_8 1_555 1_555
H7_8 C8_8 1_555 1_555
C9_8 C7_8 1_555 1_555
H8_8 C9_8 1_555 1_555
H9_8 C9_8 1_555 1_555
H10_8 C9_8 1_555 1_555
C10_6 C2_8 1_555 1_555
H11_6 C10_6 1_555 1_555
C11_6 C10_6 1_555 1_555
H12_8 C11_6 1_555 1_555
H13_6 C11_6 1_555 1_555
H14_6 C11_6 1_555 1_555
C12_6 C10_6 1_555 1_555
H15_6 C12_6 1_555 1_555
H16_6 C12_6 1_555 1_555
H17_6 C12_6 1_555 1_555
C18_8 C13_8 1_555 1_555
C19_8 C18_8 1_555 1_555
H21_8 C19_8 1_555 1_555
C20_8 C19_8 1_555 1_555
H22_8 C20_8 1_555 1_555
H23_8 C20_8 1_555 1_555
H24_8 C20_8 1_555 1_555
C21_8 C19_8 1_555 1_555
H25_8 C21_8 1_555 1_555
H26_8 C21_8 1_555 1_555
H27_8 C21_8 1_555 1_555
C22_8 H28_8 1_555 1_555
C23_8 C22_8 1_555 1_555
H29_8 C23_8 1_555 1_555
C24_8 C23_8 1_555 1_555
C25_8 C24_8 1_555 1_555
C26_8 C24_8 1_555 1_555
H30_8 C26_8 1_555 1_555
C27_8 C26_8 1_555 1_555
H31_8 C27_8 1_555 1_555
F1_8 Zn1_8 1_555 1_555
N1_8 C22_8 1_555 1_555
O1_8 C13_8 1_555 1_555
O2_8 P1_8 1_555 1_555
O3_8 P1_8 1_555 1_555
O4_8 P1_8 1_555 1_555
O5_8 C1_8 1_555 1_555
O6_8 P2_8 1_555 1_555
O7_8 P2_8 1_555 1_555
O8_8 P2_8 1_555 1_555
O9_8 N1_8 1_555 1_555
P1_8 O1_8 1_555 1_555
P2_8 O5_8 1_555 1_555
Zn1_8 O2_8 1_555 1_555
Zn5_2 F1_8 1_555 1_555
C35_8 C36_8 1_555 1_555
H45_8 C39_8 1_555 1_555
C40_8 C35_8 1_555 1_555
C41_8 C40_8 1_555 1_555
H46_8 C41_8 1_555 1_555
C42_8 C41_8 1_555 1_555
H47_8 C42_8 1_555 1_555
H48_8 C42_8 1_555 1_555
H49_8 C42_8 1_555 1_555
C43_8 C41_8 1_555 1_555
H50_8 C43_8 1_555 1_555
H51_8 C43_8 1_555 1_555
H52_8 C43_8 1_555 1_555
C52_8 C47_8 1_555 1_555
C53_8 C52_8 1_555 1_555
H63_8 C53_8 1_555 1_555
C54_8 C53_8 1_555 1_555
H64_8 C54_8 1_555 1_555
H65_8 C54_8 1_555 1_555
H66_8 C54_8 1_555 1_555
C55_8 C53_8 1_555 1_555
H67_8 C55_8 1_555 1_555
H68_8 C55_8 1_555 1_555
H69_8 C55_8 1_555 1_555
C56_8 H70_8 1_555 1_555
C57_8 C56_8 1_555 1_555
H71_8 C57_8 1_555 1_555
C58_8 C57_8 1_555 1_555
C59_8 C58_8 1_555 1_555
C60_8 C58_8 1_555 1_555
H72_8 C60_8 1_555 1_555
C61_8 C60_8 1_555 1_555
H73_8 C61_8 1_555 1_555
C62_8 H74_6 1_555 1_555
C63_6 C59_8 1_555 1_555
H75_6 C63_6 1_555 1_555
C64_6 C59_8 1_555 1_555
H76_6 C64_6 1_555 1_555
C65_8 C64_6 1_555 1_555
H77_8 C65_8 1_555 1_555
N3_8 C56_8 1_555 1_555
N6_4 C62_8 1_555 1_555
O10_8 C47_8 1_555 1_555
O11_8 P3_8 1_555 1_555
O12_8 P3_8 1_555 1_555
O13_8 Zn5_2 1_555 1_555
O14_8 C35_8 1_555 1_555
O15_8 P4_8 1_555 1_555
O16_8 P4_8 1_555 1_555
O17_8 Zn1_8 1_555 1_555
O18_8 N3_8 1_555 1_555
P3_8 O10_8 1_555 1_555
P4_8 O14_8 1_555 1_555
Zn3_8 F1_8 1_555 1_555
Zn5_5 F1_8 1_555 1_555
C5_8 C6_8 1_555 1_555
C27_8 N1_8 1_555 1_555
O3_8 Zn5_2 1_555 1_555
O4_8 Zn5_5 1_555 1_555
O6_8 Zn1_8 1_555 1_555
O7_8 Zn5_2 1_555 1_555
O8_8 Zn3_8 1_555 1_555
O9_8 Zn1_8 1_555 1_555
C39_8 C40_8 1_555 1_555
C61_8 N3_8 1_555 1_555
C62_8 C63_6 1_555 1_555
C65_8 N6_4 1_555 1_555
O11_8 Zn3_8 1_555 1_555
O12_8 Zn5_5 1_555 1_555
O13_8 P3_8 1_555 1_555
O15_8 Zn3_8 1_555 1_555
O16_8 Zn5_5 1_555 1_555
O17_8 P4_8 1_555 1_555
O18_8 Zn3_8 1_555 1_555
H35_8 C31_8 1_555 1_555
N6_6 C28_8 1_555 1_555
C31_8 N6_6 1_555 1_555
H76_7 C64_7 1_555 1_555
C3_7 H1_7 1_555 1_555
C4_7 C3_7 1_555 1_555
H2_7 C4_7 1_555 1_555
H11_7 C10_7 1_555 1_555
C11_7 C10_7 1_555 1_555
H13_7 C11_7 1_555 1_555
H14_7 C11_7 1_555 1_555
C12_7 C10_7 1_555 1_555
H15_7 C12_7 1_555 1_555
H16_7 C12_7 1_555 1_555
H17_7 C12_7 1_555 1_555
H75_7 C63_7 1_555 1_555
C14_5 C15_5 1_555 1_555
C15_5 H18_5 1_555 1_555
C16_5 C15_5 1_555 1_555
H19_5 C16_5 1_555 1_555
C17_5 C16_5 1_555 1_555
H20_5 C17_5 1_555 1_555
C32_5 C14_5 1_555 1_555
H36_5 C32_5 1_555 1_555
C33_5 C32_5 1_555 1_555
H37_5 C33_5 1_555 1_555
H38_5 C33_5 1_555 1_555
H39_5 C33_5 1_555 1_555
C34_5 C32_5 1_555 1_555
H40_5 C34_5 1_555 1_555
H41_5 C34_5 1_555 1_555
H42_5 C34_5 1_555 1_555
C48_5 C49_5 1_555 1_555
C49_5 H60_5 1_555 1_555
C50_5 C49_5 1_555 1_555
H61_5 C50_5 1_555 1_555
C51_5 C50_5 1_555 1_555
H62_5 C51_5 1_555 1_555
C66_5 C48_5 1_555 1_555
H78_5 C66_5 1_555 1_555
C67_5 C66_5 1_555 1_555
H79_5 C67_5 1_555 1_555
H80_5 C67_5 1_555 1_555
H81_5 C67_5 1_555 1_555
C68_5 C66_5 1_555 1_555
H82_5 C68_5 1_555 1_555
H83_5 C68_5 1_555 1_555
H84_5 C68_5 1_555 1_555
C14_6 C15_6 1_555 1_555
C15_6 H18_6 1_555 1_555
C16_6 C15_6 1_555 1_555
H19_6 C16_6 1_555 1_555
C17_6 C16_6 1_555 1_555
H20_6 C17_6 1_555 1_555
C32_6 C14_6 1_555 1_555
H36_6 C32_6 1_555 1_555
C33_6 C32_6 1_555 1_555
H37_6 C33_6 1_555 1_555
H38_6 C33_6 1_555 1_555
H39_6 C33_6 1_555 1_555
C34_6 C32_6 1_555 1_555
H40_6 C34_6 1_555 1_555
H41_6 C34_6 1_555 1_555
H42_6 C34_6 1_555 1_555
C48_6 C49_6 1_555 1_555
C49_6 H60_6 1_555 1_555
C50_6 C49_6 1_555 1_555
H61_6 C50_6 1_555 1_555
C51_6 C50_6 1_555 1_555
H62_6 C51_6 1_555 1_555
C66_6 C48_6 1_555 1_555
H78_6 C66_6 1_555 1_555
C67_6 C66_6 1_555 1_555
H79_6 C67_6 1_555 1_555
H80_6 C67_6 1_555 1_555
H81_6 C67_6 1_555 1_555
C68_6 C66_6 1_555 1_555
H82_6 C68_6 1_555 1_555
H83_6 C68_6 1_555 1_555
H84_6 C68_6 1_555 1_555
C3_8 H1_8 1_555 1_555
C4_8 C3_8 1_555 1_555
H2_8 C4_8 1_555 1_555
H11_8 C10_8 1_555 1_555
C11_8 C10_8 1_555 1_555
H13_8 C11_8 1_555 1_555
H14_8 C11_8 1_555 1_555
C12_8 C10_8 1_555 1_555
H15_8 C12_8 1_555 1_555
H16_8 C12_8 1_555 1_555
H17_8 C12_8 1_555 1_555
H75_8 C63_8 1_555 1_555
H76_8 C64_8 1_555 1_555
H34_7 C30_7 1_555 1_555
C14_7 C15_7 1_555 1_555
C15_7 H18_7 1_555 1_555
C16_7 C15_7 1_555 1_555
H19_7 C16_7 1_555 1_555
C17_7 C16_7 1_555 1_555
H20_7 C17_7 1_555 1_555
C32_7 C14_7 1_555 1_555
H36_7 C32_7 1_555 1_555
C33_7 C32_7 1_555 1_555
H37_7 C33_7 1_555 1_555
H38_7 C33_7 1_555 1_555
H39_7 C33_7 1_555 1_555
C34_7 C32_7 1_555 1_555
H40_7 C34_7 1_555 1_555
H41_7 C34_7 1_555 1_555
H42_7 C34_7 1_555 1_555
C48_7 C49_7 1_555 1_555
C49_7 H60_7 1_555 1_555
C50_7 C49_7 1_555 1_555
H61_7 C50_7 1_555 1_555
C51_7 C50_7 1_555 1_555
H62_7 C51_7 1_555 1_555
C66_7 C48_7 1_555 1_555
H78_7 C66_7 1_555 1_555
C67_7 C66_7 1_555 1_555
H79_7 C67_7 1_555 1_555
H80_7 C67_7 1_555 1_555
H81_7 C67_7 1_555 1_555
C68_7 C66_7 1_555 1_555
H82_7 C68_7 1_555 1_555
H83_7 C68_7 1_555 1_555
H84_7 C68_7 1_555 1_555
H33_7 C29_7 1_555 1_555
C37_7 H43_7 1_555 1_555
C38_7 C37_7 1_555 1_555
H44_7 C38_7 1_555 1_555
H53_7 C44_7 1_555 1_555
C45_7 C44_7 1_555 1_555
H55_7 C45_7 1_555 1_555
H56_7 C45_7 1_555 1_555
C46_7 C44_7 1_555 1_555
H57_7 C46_7 1_555 1_555
H58_7 C46_7 1_555 1_555
H59_7 C46_7 1_555 1_555
H33_8 C29_8 1_555 1_555
C37_8 H43_8 1_555 1_555
C38_8 C37_8 1_555 1_555
H44_8 C38_8 1_555 1_555
H53_8 C44_8 1_555 1_555
C45_8 C44_8 1_555 1_555
H55_8 C45_8 1_555 1_555
H56_8 C45_8 1_555 1_555
C46_8 C44_8 1_555 1_555
H57_8 C46_8 1_555 1_555
H58_8 C46_8 1_555 1_555
H59_8 C46_8 1_555 1_555
C14_8 C15_8 1_555 1_555
C15_8 H18_8 1_555 1_555
C16_8 C15_8 1_555 1_555
H19_8 C16_8 1_555 1_555
C17_8 C16_8 1_555 1_555
H20_8 C17_8 1_555 1_555
C32_8 C14_8 1_555 1_555
H36_8 C32_8 1_555 1_555
C33_8 C32_8 1_555 1_555
H37_8 C33_8 1_555 1_555
H38_8 C33_8 1_555 1_555
H39_8 C33_8 1_555 1_555
C34_8 C32_8 1_555 1_555
H40_8 C34_8 1_555 1_555
H41_8 C34_8 1_555 1_555
H42_8 C34_8 1_555 1_555
C48_8 C49_8 1_555 1_555
C49_8 H60_8 1_555 1_555
C50_8 C49_8 1_555 1_555
H61_8 C50_8 1_555 1_555
C51_8 C50_8 1_555 1_555
H62_8 C51_8 1_555 1_555
C66_8 C48_8 1_555 1_555
H78_8 C66_8 1_555 1_555
C67_8 C66_8 1_555 1_555
H79_8 C67_8 1_555 1_555
H80_8 C67_8 1_555 1_555
H81_8 C67_8 1_555 1_555
C68_8 C66_8 1_555 1_555
H82_8 C68_8 1_555 1_555
H83_8 C68_8 1_555 1_555
H84_8 C68_8 1_555 1_555
H34_8 C30_8 1_555 1_555

#END
