
###############################################################################
#
# This file contains modified crystal structure data generated from the
# MOF subset of the Cambridge Structural Database (CSD) v543 
# hosted by the Cambridge Crystallographic Data Centre (CCDC).
#
# This work is licensed under the Creative Commons
# Attribution-NonCommercial-ShareAlike 4.0 International License.
# To view a copy of this license, visit
# http://creativecommons.org/licenses/by-nc-sa/4.0/
# or send a letter to
# Creative Commons, PO Box 1866, Mountain View, CA 94042, USA.
#
# CIF created using the CSD Python API on 29 September 2022
# The structure has been converted into the P1 space group
# The structure has a 3D framework
# The original CSD entry OTARIL is in the monoclinic crystal system
# The framework has been calculated to contain at least 10.0% void space
# The void calculation uses a probe of radius 1.32A, grid spacing 0.4
#
###############################################################################

data_OTARIL
_chemical_formula_moiety         '(C360 H240 F48 N32 O32 Zn8)n'
_symmetry_cell_setting           triclinic
_symmetry_space_group_name_H-M   'P 1'
_symmetry_Int_Tables_number      1
_space_group_name_Hall           'P 1'
loop_
_symmetry_equiv_pos_site_id
_symmetry_equiv_pos_as_xyz
1 x,y,z
_cell_length_a                   23.685(3)
_cell_length_b                   14.647(2)
_cell_length_c                   29.080(4)
_cell_angle_alpha                90
_cell_angle_beta                 101.867(2)
_cell_angle_gamma                90
_cell_volume                     9872.65
loop_
_atom_site_label
_atom_site_type_symbol
_atom_site_fract_x
_atom_site_fract_y
_atom_site_fract_z
H55 H 0.0227 0.1240 0.3162
C83 C 0.04995(12) 0.0448(2) 0.42319(9)
H59 H 0.2203 0.0078 0.3581
C89 C 0.13939(12) 0.00570(19) 0.36981(10)
H60 H 0.1480 0.0343 0.3990
F10 F 0.09133(7) 0.00765(13) 0.45533(6)
F11 F 0.00552(7) 0.05881(11) 0.44318(5)
F12 F 0.06920(7) 0.12657(11) 0.41329(5)
C81 C 0.03273(12) 0.98601(19) 0.37788(9)
C82 C 0.02245(12) 0.8911(2) 0.39297(10)
C84 C 0.08264(12) 0.9798(2) 0.35061(9)
C85 C 0.07046(13) 0.9397(2) 0.30657(11)
H57 H 0.0325 0.9256 0.2928
C86 C 0.11390(13) 0.9203(2) 0.28253(10)
H58 H 0.1054 0.8919 0.2533
C87 C 0.17057(12) 0.94404(19) 0.30305(10)
C88 C 0.18280(12) 0.98888(19) 0.34562(10)
C90 C 0.21960(12) 0.9178(2) 0.27952(10)
F8 F 0.07091(7) 0.84780(12) 0.41075(6)
O7 O 0.20811(9) 0.86287(14) 0.24591(7)
O10 O 0.26823(9) 0.94829(14) 0.29477(7)
Zn4 Zn 0.274054(13) 0.81938(2) 0.222292(11)
C1 C 0.28982(12) 0.1624(2) 0.32769(10)
H1 H 0.2751 0.1242 0.3025
C2 C 0.34338(12) 0.2130(2) 0.39381(10)
C3 C 0.30486(13) 0.2803(2) 0.37414(9)
C4 C 0.30386(13) 0.3654(2) 0.39571(9)
H2 H 0.2783 0.4113 0.3829
C5 C 0.34400(13) 0.3768(2) 0.43804(10)
H3 H 0.3450 0.4323 0.4538
C6 C 0.38240(13) 0.3085(2) 0.45744(10)
H4 H 0.4078 0.3202 0.4857
C7 C 0.38458(13) 0.2227(2) 0.43639(10)
H5 H 0.4104 0.1769 0.4491
C8 C 0.36573(12) 0.0526(2) 0.36529(10)
H6 H 0.3393 0.0016 0.3579
H7 H 0.3886 0.0434 0.3967
C9 C 0.40546(12) 0.0559(2) 0.33004(10)
C12 C 0.47969(12) 0.05751(19) 0.26708(10)
C13 C 0.47316(13) 0.1371(2) 0.29332(11)
H10 H 0.4933 0.1899 0.2891
C14 C 0.43759(13) 0.1369(2) 0.32467(10)
H11 H 0.4342 0.1887 0.3424
C15 C 0.19644(12) 0.50913(19) 0.30312(10)
H12 H 0.2237 0.5339 0.2878
C16 C 0.12649(13) 0.49879(19) 0.34272(9)
C17 C 0.14170(12) 0.41158(19) 0.33036(9)
C18 C 0.11238(13) 0.3347(2) 0.34139(10)
H13 H 0.1217 0.2766 0.3324
C19 C 0.06936(13) 0.3477(2) 0.36590(10)
H14 H 0.0500 0.2973 0.3745
C20 C 0.05345(14) 0.4384(2) 0.37873(10)
H15 H 0.0232 0.4455 0.3944
C21 C 0.08249(12) 0.5139(2) 0.36804(10)
H16 H 0.0736 0.5722 0.3770
C22 C 0.16748(13) 0.65722(18) 0.33174(10)
H17 H 0.1915 0.6821 0.3115
H18 H 0.1295 0.6845 0.3228
C23 C 0.19243(13) 0.6804(2) 0.38071(10)
C24 C 0.22022(14) 0.6183(2) 0.41362(10)
H19 H 0.2248 0.5581 0.4050
C25 C 0.24109(13) 0.6461(2) 0.45937(10)
H20 H 0.2583 0.6025 0.4810
C26 C 0.23803(13) 0.7353(2) 0.47511(10)
C27 C 0.20877(13) 0.7931(2) 0.44027(10)
H21 H 0.2046 0.8536 0.4487
C28 C 0.18529(13) 0.7696(2) 0.39435(10)
H22 H 0.1654 0.8120 0.3733
C29 C 0.17003(12) 0.17752(19) 0.22521(10)
C30 C 0.11727(12) 0.12653(19) 0.20060(10)
C31 C 0.12482(12) 0.0517(2) 0.17396(10)
H23 H 0.1619 0.0324 0.1726
C32 C 0.07722(12) 0.0048(2) 0.14898(10)
C33 C 0.02102(12) 0.03118(19) 0.15176(10)
C34 C 0.01398(12) 0.10591(19) 0.18078(9)
C35 C 0.06249(12) 0.1522(2) 0.20475(10)
H26 H 0.0579 0.2012 0.2239
N1 N 0.18601(10) 0.42012(17) 0.30591(8)
N2 N 0.16280(10) 0.55778(16) 0.32518(8)
N3 N 0.27124(9) 0.24719(15) 0.33225(7)
N4 N 0.33250(10) 0.13865(16) 0.36389(8)
O1 O 0.21807(8) 0.15083(14) 0.22392(7)
O2 O 0.15932(8) 0.25097(14) 0.24588(7)
Zn1 Zn 0.225946(13) 0.31938(2) 0.277708(11)
C46 C 0.71018(12) 0.1624(2) 0.17231(10)
H31 H 0.7249 0.1242 0.1975
C47 C 0.65662(12) 0.2130(2) 0.10619(10)
C48 C 0.69514(13) 0.2803(2) 0.12586(9)
C49 C 0.69614(13) 0.3654(2) 0.10429(9)
H32 H 0.7217 0.4113 0.1171
C50 C 0.65600(13) 0.3768(2) 0.06196(10)
H33 H 0.6550 0.4323 0.0462
C51 C 0.61760(13) 0.3085(2) 0.04256(10)
H34 H 0.5922 0.3202 0.0143
C52 C 0.61542(13) 0.2227(2) 0.06361(10)
H35 H 0.5896 0.1769 0.0509
C53 C 0.63427(12) 0.0526(2) 0.13471(10)
H36 H 0.6607 0.0016 0.1421
H37 H 0.6114 0.0434 0.1033
C54 C 0.59454(12) 0.0559(2) 0.16996(10)
C57 C 0.52031(12) 0.05751(19) 0.23292(10)
C58 C 0.52684(13) 0.1371(2) 0.20668(11)
H40 H 0.5067 0.1899 0.2109
C59 C 0.56241(13) 0.1369(2) 0.17533(10)
H41 H 0.5658 0.1887 0.1576
C60 C 0.30356(12) 0.99087(19) 0.69688(10)
H42 H 0.2763 0.9661 0.7122
C66 C 0.41751(12) 0.9861(2) 0.63196(10)
H46 H 0.4264 0.9278 0.6230
C67 C 0.33252(13) 0.84278(18) 0.66826(10)
H47 H 0.3085 0.8179 0.6885
H48 H 0.3705 0.8155 0.6772
C68 C 0.30757(13) 0.8196(2) 0.61929(10)
C69 C 0.27978(14) 0.8817(2) 0.58638(10)
H49 H 0.2752 0.9419 0.5950
C70 C 0.25891(13) 0.8539(2) 0.54063(10)
H50 H 0.2417 0.8975 0.5190
C71 C 0.26197(13) 0.7647(2) 0.52489(10)
C72 C 0.29123(13) 0.7069(2) 0.55973(10)
H51 H 0.2954 0.6464 0.5513
C73 C 0.31471(13) 0.7304(2) 0.60565(10)
H52 H 0.3346 0.6880 0.6267
C74 C 0.82997(12) 0.17752(19) 0.27479(10)
C75 C 0.88273(12) 0.12653(19) 0.29940(10)
C76 C 0.87518(12) 0.0517(2) 0.32604(10)
H53 H 0.8381 0.0324 0.3274
C77 C 0.92278(12) 0.0048(2) 0.35102(10)
C78 C 0.97898(12) 0.03118(19) 0.34824(10)
C79 C 0.98602(12) 0.10591(19) 0.31922(9)
C80 C 0.93751(12) 0.1522(2) 0.29525(10)
H56 H 0.9421 0.2012 0.2761
N6 N 0.81399(10) 0.42012(17) 0.19409(8)
N7 N 0.33720(10) 0.94222(16) 0.67482(8)
N8 N 0.72876(9) 0.24719(15) 0.16775(7)
N9 N 0.66750(10) 0.13865(16) 0.13611(8)
O5 O 0.78193(8) 0.15083(14) 0.27608(7)
O6 O 0.84068(8) 0.25097(14) 0.25412(7)
O8 O 0.29189(9) 0.36287(14) 0.25409(7)
O9 O 0.70811(9) 0.36287(14) 0.24591(7)
Zn2 Zn 0.774054(13) 0.31938(2) 0.222292(11)
C36 C 0.96727(12) 0.98601(19) 0.12212(9)
C37 C 0.97755(12) 0.8911(2) 0.10703(10)
C39 C 0.91736(12) 0.9798(2) 0.14939(9)
C40 C 0.92954(13) 0.9397(2) 0.19343(11)
H27 H 0.9675 0.9256 0.2072
C41 C 0.88610(13) 0.9203(2) 0.21747(10)
H28 H 0.8946 0.8919 0.2467
C42 C 0.82943(12) 0.94404(19) 0.19695(10)
C43 C 0.81720(12) 0.98888(19) 0.15438(10)
C45 C 0.78040(12) 0.9178(2) 0.22048(10)
F2 F 0.92909(7) 0.84780(12) 0.08925(6)
O3 O 0.79189(9) 0.86287(14) 0.25409(7)
O4 O 0.73177(9) 0.94829(14) 0.20523(7)
Zn3 Zn 0.725946(13) 0.81938(2) 0.277708(11)
C15_2 C 0.80356(12) 0.50913(19) 0.19688(10)
H12_2 H 0.7763 0.5339 0.2122
C16_2 C 0.87351(13) 0.49879(19) 0.15728(9)
C17_2 C 0.85830(12) 0.41158(19) 0.16964(9)
C18_2 C 0.88762(13) 0.3347(2) 0.15861(10)
H13_2 H 0.8783 0.2766 0.1676
C19_2 C 0.93064(13) 0.3477(2) 0.13410(10)
H14_2 H 0.9500 0.2973 0.1255
C20_2 C 0.94655(14) 0.4384(2) 0.12127(10)
H15_2 H 0.9768 0.4455 0.1056
C21_2 C 0.91751(12) 0.5139(2) 0.13196(10)
H16_2 H 0.9264 0.5722 0.1230
C22_2 C 0.83252(13) 0.65722(18) 0.16826(10)
H17_2 H 0.8085 0.6821 0.1885
H18_2 H 0.8705 0.6845 0.1772
C23_2 C 0.80757(13) 0.6804(2) 0.11929(10)
C24_2 C 0.77978(14) 0.6183(2) 0.08638(10)
H19_2 H 0.7752 0.5581 0.0950
C25_2 C 0.75891(13) 0.6461(2) 0.04063(10)
H20_2 H 0.7417 0.6025 0.0190
C26_2 C 0.76197(13) 0.7353(2) 0.02489(10)
C27_2 C 0.79123(13) 0.7931(2) 0.05973(10)
H21_2 H 0.7954 0.8536 0.0513
C28_2 C 0.81471(13) 0.7696(2) 0.10565(10)
H22_2 H 0.8346 0.8120 0.1267
N2_2 N 0.83720(10) 0.55778(16) 0.17482(8)
C46_2 C 0.21018(12) 0.6624(2) 0.17231(10)
H31_2 H 0.2249 0.6242 0.1975
C47_2 C 0.15662(12) 0.7130(2) 0.10619(10)
C48_2 C 0.19514(13) 0.7803(2) 0.12586(9)
C49_2 C 0.19614(13) 0.8654(2) 0.10429(9)
H32_2 H 0.2217 0.9113 0.1171
C50_2 C 0.15600(13) 0.8768(2) 0.06196(10)
H33_2 H 0.1550 0.9323 0.0462
C51_2 C 0.11760(13) 0.8085(2) 0.04256(10)
H34_2 H 0.0922 0.8202 0.0143
C52_2 C 0.11542(13) 0.7227(2) 0.06361(10)
H35_2 H 0.0896 0.6769 0.0509
C53_2 C 0.13427(12) 0.5526(2) 0.13471(10)
H36_2 H 0.1607 0.5016 0.1421
H37_2 H 0.1114 0.5434 0.1033
C54_2 C 0.09454(12) 0.5559(2) 0.16996(10)
C55 C 0.08877(12) 0.4794(2) 0.19617(9)
H38 H 0.1097 0.4269 0.1929
C56 C 0.05171(12) 0.4806(2) 0.22754(10)
H39 H 0.0481 0.4288 0.2451
C57_2 C 0.02031(12) 0.55751(19) 0.23292(10)
C58_2 C 0.02684(13) 0.6371(2) 0.20668(11)
H40_2 H 0.0067 0.6899 0.2109
C59_2 C 0.06241(13) 0.6369(2) 0.17533(10)
H41_2 H 0.0658 0.6887 0.1576
C74_2 C 0.32997(12) 0.67752(19) 0.27479(10)
C75_2 C 0.38273(12) 0.62653(19) 0.29940(10)
C76_2 C 0.37518(12) 0.5517(2) 0.32604(10)
H53_2 H 0.3381 0.5324 0.3274
C77_2 C 0.42278(12) 0.5048(2) 0.35102(10)
H54 H 0.4173 0.4554 0.3697
C78_2 C 0.47898(12) 0.53118(19) 0.34824(10)
C79_2 C 0.48602(12) 0.60591(19) 0.31922(9)
H55_2 H 0.5227 0.6240 0.3162
C80_2 C 0.43751(12) 0.6522(2) 0.29525(10)
H56_2 H 0.4421 0.7012 0.2761
C81_2 C 0.53273(12) 0.48601(19) 0.37788(9)
C82_2 C 0.52245(12) 0.3911(2) 0.39297(10)
C83_2 C 0.54995(12) 0.5448(2) 0.42319(9)
C84_2 C 0.58264(12) 0.4798(2) 0.35061(9)
C85_2 C 0.57046(13) 0.4397(2) 0.30657(11)
H57_2 H 0.5325 0.4256 0.2928
C86_2 C 0.61390(13) 0.4203(2) 0.28253(10)
H58_2 H 0.6054 0.3919 0.2533
C87_2 C 0.67057(12) 0.44404(19) 0.30305(10)
C88_2 C 0.68280(12) 0.48888(19) 0.34562(10)
H59_2 H 0.7203 0.5078 0.3581
C89_2 C 0.63939(12) 0.50570(19) 0.36981(10)
H60_2 H 0.6480 0.5343 0.3990
C90_2 C 0.71960(12) 0.4178(2) 0.27952(10)
F7 F 0.49486(7) 0.34032(11) 0.35747(6)
F8_2 F 0.57091(7) 0.34780(12) 0.41075(6)
F9 F 0.49010(7) 0.38757(12) 0.42620(6)
F10_2 F 0.59133(7) 0.50765(13) 0.45533(6)
F11_2 F 0.50552(7) 0.55881(11) 0.44318(5)
F12_2 F 0.56920(7) 0.62657(11) 0.41329(5)
N6_2 N 0.31399(10) 0.92012(17) 0.19409(8)
N8_2 N 0.22876(9) 0.74719(15) 0.16775(7)
N9_2 N 0.16750(10) 0.63865(16) 0.13611(8)
O5_2 O 0.28193(8) 0.65083(14) 0.27608(7)
O6_2 O 0.34068(8) 0.75097(14) 0.25412(7)
O10_2 O 0.76823(9) 0.44829(14) 0.29477(7)
C1_2 C 0.78982(12) 0.6624(2) 0.32769(10)
H1_2 H 0.7751 0.6242 0.3025
C2_2 C 0.84338(12) 0.7130(2) 0.39381(10)
C3_2 C 0.80486(13) 0.7803(2) 0.37414(9)
C4_2 C 0.80386(13) 0.8654(2) 0.39571(9)
H2_2 H 0.7783 0.9113 0.3829
C5_2 C 0.84400(13) 0.8768(2) 0.43804(10)
H3_2 H 0.8450 0.9323 0.4538
C6_2 C 0.88240(13) 0.8085(2) 0.45744(10)
H4_2 H 0.9078 0.8202 0.4857
C7_2 C 0.88458(13) 0.7227(2) 0.43639(10)
H5_2 H 0.9104 0.6769 0.4491
C8_2 C 0.86573(12) 0.5526(2) 0.36529(10)
H6_2 H 0.8393 0.5016 0.3579
H7_2 H 0.8886 0.5434 0.3967
C9_2 C 0.90546(12) 0.5559(2) 0.33004(10)
C10 C 0.91123(12) 0.4794(2) 0.30383(9)
H8 H 0.8903 0.4269 0.3071
C11 C 0.94829(12) 0.4806(2) 0.27246(10)
H9 H 0.9519 0.4288 0.2549
C12_2 C 0.97969(12) 0.55751(19) 0.26708(10)
C13_2 C 0.97316(13) 0.6371(2) 0.29332(11)
H10_2 H 0.9933 0.6899 0.2891
C14_2 C 0.93759(13) 0.6369(2) 0.32467(10)
H11_2 H 0.9342 0.6887 0.3424
C16_3 C 0.62649(13) 0.99879(19) 0.34272(9)
C17_3 C 0.64170(12) 0.91158(19) 0.33036(9)
C18_3 C 0.61238(13) 0.8347(2) 0.34139(10)
H13_3 H 0.6217 0.7766 0.3324
C19_3 C 0.56936(13) 0.8477(2) 0.36590(10)
H14_3 H 0.5500 0.7973 0.3745
C20_3 C 0.55345(14) 0.9384(2) 0.37873(10)
H15_3 H 0.5232 0.9455 0.3944
C29_2 C 0.67003(12) 0.67752(19) 0.22521(10)
C30_2 C 0.61727(12) 0.62653(19) 0.20060(10)
C31_2 C 0.62482(12) 0.5517(2) 0.17396(10)
H23_2 H 0.6619 0.5324 0.1726
C32_2 C 0.57722(12) 0.5048(2) 0.14898(10)
H24 H 0.5827 0.4554 0.1303
C33_2 C 0.52102(12) 0.53118(19) 0.15176(10)
C34_2 C 0.51398(12) 0.60591(19) 0.18078(9)
H25 H 0.4773 0.6240 0.1838
C35_2 C 0.56249(12) 0.6522(2) 0.20475(10)
H26_2 H 0.5579 0.7012 0.2239
C36_2 C 0.46727(12) 0.48601(19) 0.12212(9)
C37_2 C 0.47755(12) 0.3911(2) 0.10703(10)
C38 C 0.45005(12) 0.5448(2) 0.07681(9)
C39_2 C 0.41736(12) 0.4798(2) 0.14939(9)
C40_2 C 0.42954(13) 0.4397(2) 0.19343(11)
H27_2 H 0.4675 0.4256 0.2072
C41_2 C 0.38610(13) 0.4203(2) 0.21747(10)
H28_2 H 0.3946 0.3919 0.2467
C42_2 C 0.32943(12) 0.44404(19) 0.19695(10)
C43_2 C 0.31720(12) 0.48888(19) 0.15438(10)
H29 H 0.2797 0.5078 0.1419
C44 C 0.36061(12) 0.50570(19) 0.13019(10)
H30 H 0.3520 0.5343 0.1010
C45_2 C 0.28040(12) 0.4178(2) 0.22048(10)
F1 F 0.50514(7) 0.34032(11) 0.14253(6)
F2_2 F 0.42909(7) 0.34780(12) 0.08925(6)
F3 F 0.50990(7) 0.38757(12) 0.07380(6)
F4 F 0.40867(7) 0.50765(13) 0.04467(6)
F5 F 0.49448(7) 0.55881(11) 0.05682(5)
F6 F 0.43080(7) 0.62657(11) 0.08671(5)
N1_2 N 0.68601(10) 0.92012(17) 0.30591(8)
N3_2 N 0.77124(9) 0.74719(15) 0.33225(7)
N4_2 N 0.83250(10) 0.63865(16) 0.36389(8)
O1_2 O 0.71807(8) 0.65083(14) 0.22392(7)
O2_2 O 0.65932(8) 0.75097(14) 0.24588(7)
O4_2 O 0.23177(9) 0.44829(14) 0.20523(7)
C16_4 C 0.37351(13) 0.99879(19) 0.15728(9)
C17_4 C 0.35830(12) 0.91158(19) 0.16964(9)
C18_4 C 0.38762(13) 0.8347(2) 0.15861(10)
H13_4 H 0.3783 0.7766 0.1676
C19_4 C 0.43064(13) 0.8477(2) 0.13410(10)
H14_4 H 0.4500 0.7973 0.1255
C20_4 C 0.44655(14) 0.9384(2) 0.12127(10)
H15_4 H 0.4768 0.9455 0.1056
C61 C 0.37351(13) 0.00121(19) 0.65728(9)
C62 C 0.35830(12) 0.08842(19) 0.66964(9)
C63 C 0.38762(13) 0.1653(2) 0.65861(10)
H43 H 0.3783 0.2234 0.6676
C64 C 0.43064(13) 0.1523(2) 0.63410(10)
H44 H 0.4500 0.2027 0.6255
C65 C 0.44655(14) 0.0616(2) 0.62127(10)
H45 H 0.4768 0.0545 0.6056
N5 N 0.31399(10) 0.07988(17) 0.69409(8)
Zn5 Zn 0.274054(13) 0.18062(2) 0.722292(11)
C61_2 C 0.62649(13) 0.00121(19) 0.84272(9)
C62_2 C 0.64170(12) 0.08842(19) 0.83036(9)
C63_2 C 0.61238(13) 0.1653(2) 0.84139(10)
H43_2 H 0.6217 0.2234 0.8324
C64_2 C 0.56936(13) 0.1523(2) 0.86590(10)
H44_2 H 0.5500 0.2027 0.8745
C65_2 C 0.55345(14) 0.0616(2) 0.87873(10)
H45_2 H 0.5232 0.0545 0.8944
N5_2 N 0.68601(10) 0.07988(17) 0.80591(8)
Zn5_2 Zn 0.725946(13) 0.18062(2) 0.777708(11)
C15_3 C 0.69644(12) 0.00913(19) 0.30312(10)
H12_3 H 0.7237 0.0339 0.2878
C21_3 C 0.58249(12) 0.0139(2) 0.36804(10)
H16_3 H 0.5736 0.0722 0.3770
C22_3 C 0.66748(13) 0.15722(18) 0.33174(10)
H17_3 H 0.6915 0.1821 0.3115
H18_3 H 0.6295 0.1845 0.3228
C23_3 C 0.69243(13) 0.1804(2) 0.38071(10)
C24_3 C 0.72022(14) 0.1183(2) 0.41362(10)
H19_3 H 0.7248 0.0581 0.4050
C25_3 C 0.74109(13) 0.1461(2) 0.45937(10)
H20_3 H 0.7583 0.1025 0.4810
C26_3 C 0.73803(13) 0.2353(2) 0.47511(10)
C27_3 C 0.70877(13) 0.2931(2) 0.44027(10)
H21_3 H 0.7046 0.3536 0.4487
C28_3 C 0.68529(13) 0.2696(2) 0.39435(10)
H22_3 H 0.6654 0.3120 0.3733
N2_3 N 0.66280(10) 0.05778(16) 0.32518(8)
C60_2 C 0.80356(12) 0.49087(19) 0.69688(10)
H42_2 H 0.7763 0.4661 0.7122
C61_3 C 0.87351(13) 0.50121(19) 0.65728(9)
C62_3 C 0.85830(12) 0.58842(19) 0.66964(9)
C63_3 C 0.88762(13) 0.6653(2) 0.65861(10)
H43_3 H 0.8783 0.7234 0.6676
C64_3 C 0.93064(13) 0.6523(2) 0.63410(10)
H44_3 H 0.9500 0.7027 0.6255
C65_3 C 0.94655(14) 0.5616(2) 0.62127(10)
H45_3 H 0.9768 0.5545 0.6056
C66_2 C 0.91751(12) 0.4861(2) 0.63196(10)
H46_2 H 0.9264 0.4278 0.6230
C67_2 C 0.83252(13) 0.34278(18) 0.66826(10)
H47_2 H 0.8085 0.3179 0.6885
H48_2 H 0.8705 0.3155 0.6772
C68_2 C 0.80757(13) 0.3196(2) 0.61929(10)
C69_2 C 0.77978(14) 0.3817(2) 0.58638(10)
H49_2 H 0.7752 0.4419 0.5950
C70_2 C 0.75891(13) 0.3539(2) 0.54063(10)
H50_2 H 0.7417 0.3975 0.5190
C71_2 C 0.76197(13) 0.2647(2) 0.52489(10)
C72_2 C 0.79123(13) 0.2069(2) 0.55973(10)
H51_2 H 0.7954 0.1464 0.5513
C73_2 C 0.81471(13) 0.2304(2) 0.60565(10)
H52_2 H 0.8346 0.1880 0.6267
N5_3 N 0.81399(10) 0.57988(17) 0.69409(8)
N7_2 N 0.83720(10) 0.44222(16) 0.67482(8)
Zn5_3 Zn 0.774054(13) 0.68062(2) 0.722292(11)
C60_3 C 0.19644(12) 0.49087(19) 0.80312(10)
H42_3 H 0.2237 0.4661 0.7878
C61_4 C 0.12649(13) 0.50121(19) 0.84272(9)
C62_4 C 0.14170(12) 0.58842(19) 0.83036(9)
C63_4 C 0.11238(13) 0.6653(2) 0.84139(10)
H43_4 H 0.1217 0.7234 0.8324
C64_4 C 0.06936(13) 0.6523(2) 0.86590(10)
H44_4 H 0.0500 0.7027 0.8745
C65_4 C 0.05345(14) 0.5616(2) 0.87873(10)
H45_4 H 0.0232 0.5545 0.8944
C66_3 C 0.08249(12) 0.4861(2) 0.86804(10)
H46_3 H 0.0736 0.4278 0.8770
C67_3 C 0.16748(13) 0.34278(18) 0.83174(10)
H47_3 H 0.1915 0.3179 0.8115
H48_3 H 0.1295 0.3155 0.8228
C68_3 C 0.19243(13) 0.3196(2) 0.88071(10)
C69_3 C 0.22022(14) 0.3817(2) 0.91362(10)
H49_3 H 0.2248 0.4419 0.9050
C70_3 C 0.24109(13) 0.3539(2) 0.95937(10)
H50_3 H 0.2583 0.3975 0.9810
C71_3 C 0.23803(13) 0.2647(2) 0.97511(10)
C72_3 C 0.20877(13) 0.2069(2) 0.94027(10)
H51_3 H 0.2046 0.1464 0.9487
C73_3 C 0.18529(13) 0.2304(2) 0.89435(10)
H52_3 H 0.1654 0.1880 0.8733
N5_4 N 0.18601(10) 0.57988(17) 0.80591(8)
N7_3 N 0.16280(10) 0.44222(16) 0.82518(8)
Zn5_4 Zn 0.225946(13) 0.68062(2) 0.777708(11)
C36_3 C 0.03273(12) 0.01399(19) 0.87788(9)
C37_3 C 0.02245(12) 0.1089(2) 0.89297(10)
C39_3 C 0.08264(12) 0.0202(2) 0.85061(9)
C40_3 C 0.07046(13) 0.0603(2) 0.80657(11)
H27_3 H 0.0325 0.0744 0.7928
C41_3 C 0.11390(13) 0.0797(2) 0.78253(10)
H28_3 H 0.1054 0.1081 0.7533
C42_3 C 0.17057(12) 0.05596(19) 0.80305(10)
C43_3 C 0.18280(12) 0.01112(19) 0.84562(10)
C45_3 C 0.21960(12) 0.0822(2) 0.77952(10)
F2_3 F 0.07091(7) 0.15220(12) 0.91075(6)
O3_2 O 0.20811(9) 0.13713(14) 0.74591(7)
O4_3 O 0.26823(9) 0.05171(14) 0.79477(7)
C1_3 C 0.71018(12) 0.8376(2) 0.67231(10)
H1_3 H 0.7249 0.8758 0.6975
C2_3 C 0.65662(12) 0.7870(2) 0.60619(10)
C3_3 C 0.69514(13) 0.7197(2) 0.62586(9)
C4_3 C 0.69614(13) 0.6346(2) 0.60429(9)
H2_3 H 0.7217 0.5887 0.6171
C5_3 C 0.65600(13) 0.6232(2) 0.56196(10)
H3_3 H 0.6550 0.5677 0.5462
C6_3 C 0.61760(13) 0.6915(2) 0.54256(10)
H4_3 H 0.5922 0.6798 0.5143
C7_3 C 0.61542(13) 0.7773(2) 0.56361(10)
H5_3 H 0.5896 0.8231 0.5509
C8_3 C 0.63427(12) 0.9474(2) 0.63471(10)
H6_3 H 0.6607 0.9984 0.6421
H7_3 H 0.6114 0.9566 0.6033
C9_3 C 0.59454(12) 0.9441(2) 0.66996(10)
C12_3 C 0.52031(12) 0.94249(19) 0.73292(10)
C13_3 C 0.52684(13) 0.8629(2) 0.70668(11)
H10_3 H 0.5067 0.8101 0.7109
C14_3 C 0.56241(13) 0.8631(2) 0.67533(10)
H11_3 H 0.5658 0.8113 0.6576
C29_3 C 0.82997(12) 0.82248(19) 0.77479(10)
C30_3 C 0.88273(12) 0.87347(19) 0.79940(10)
C31_3 C 0.87518(12) 0.9483(2) 0.82604(10)
H23_3 H 0.8381 0.9676 0.8274
C32_3 C 0.92278(12) 0.9952(2) 0.85102(10)
C33_3 C 0.97898(12) 0.96882(19) 0.84824(10)
C34_3 C 0.98602(12) 0.89409(19) 0.81922(9)
C35_3 C 0.93751(12) 0.8478(2) 0.79525(10)
H26_3 H 0.9421 0.7988 0.7761
N3_3 N 0.72876(9) 0.75281(15) 0.66775(7)
N4_3 N 0.66750(10) 0.86135(16) 0.63611(8)
O1_3 O 0.78193(8) 0.84917(14) 0.77608(7)
O2_3 O 0.84068(8) 0.74903(14) 0.75412(7)
C46_3 C 0.28982(12) 0.8376(2) 0.82769(10)
H31_3 H 0.2751 0.8758 0.8025
C47_3 C 0.34338(12) 0.7870(2) 0.89381(10)
C48_3 C 0.30486(13) 0.7197(2) 0.87414(9)
C49_3 C 0.30386(13) 0.6346(2) 0.89571(9)
H32_3 H 0.2783 0.5887 0.8829
C50_3 C 0.34400(13) 0.6232(2) 0.93804(10)
H33_3 H 0.3450 0.5677 0.9538
C51_3 C 0.38240(13) 0.6915(2) 0.95744(10)
H34_3 H 0.4078 0.6798 0.9857
C52_3 C 0.38458(13) 0.7773(2) 0.93639(10)
H35_3 H 0.4104 0.8231 0.9491
C53_3 C 0.36573(12) 0.9474(2) 0.86529(10)
H36_3 H 0.3393 0.9984 0.8579
H37_3 H 0.3886 0.9566 0.8967
C54_3 C 0.40546(12) 0.9441(2) 0.83004(10)
C57_3 C 0.47969(12) 0.94249(19) 0.76708(10)
C58_3 C 0.47316(13) 0.8629(2) 0.79332(11)
H40_3 H 0.4933 0.8101 0.7891
C59_3 C 0.43759(13) 0.8631(2) 0.82467(10)
H41_3 H 0.4342 0.8113 0.8424
C74_3 C 0.17003(12) 0.82248(19) 0.72521(10)
C75_3 C 0.11727(12) 0.87347(19) 0.70060(10)
C76_3 C 0.12482(12) 0.9483(2) 0.67396(10)
H53_3 H 0.1619 0.9676 0.6726
C77_3 C 0.07722(12) 0.9952(2) 0.64898(10)
C78_3 C 0.02102(12) 0.96882(19) 0.65176(10)
C79_3 C 0.01398(12) 0.89409(19) 0.68078(9)
C80_3 C 0.06249(12) 0.8478(2) 0.70475(10)
H56_3 H 0.0579 0.7988 0.7239
N8_3 N 0.27124(9) 0.75281(15) 0.83225(7)
N9_3 N 0.33250(10) 0.86135(16) 0.86389(8)
O5_3 O 0.21807(8) 0.84917(14) 0.72392(7)
O6_3 O 0.15932(8) 0.74903(14) 0.74588(7)
O8_2 O 0.70811(9) 0.63713(14) 0.74591(7)
O9_2 O 0.29189(9) 0.63713(14) 0.75409(7)
C81_3 C 0.96727(12) 0.01399(19) 0.62212(9)
C82_3 C 0.97755(12) 0.1089(2) 0.60703(10)
C84_3 C 0.91736(12) 0.0202(2) 0.64939(9)
C85_3 C 0.92954(13) 0.0603(2) 0.69343(11)
H57_3 H 0.9675 0.0744 0.7072
C86_3 C 0.88610(13) 0.0797(2) 0.71747(10)
H58_3 H 0.8946 0.1081 0.7467
C87_3 C 0.82943(12) 0.05596(19) 0.69695(10)
C88_3 C 0.81720(12) 0.01112(19) 0.65438(10)
C90_3 C 0.78040(12) 0.0822(2) 0.72048(10)
F8_3 F 0.92909(7) 0.15220(12) 0.58925(6)
O7_2 O 0.79189(9) 0.13713(14) 0.75409(7)
O10_3 O 0.73177(9) 0.05171(14) 0.70523(7)
C1_4 C 0.21018(12) 0.3376(2) 0.67231(10)
H1_4 H 0.2249 0.3758 0.6975
C2_4 C 0.15662(12) 0.2870(2) 0.60619(10)
C3_4 C 0.19514(13) 0.2197(2) 0.62586(9)
C4_4 C 0.19614(13) 0.1346(2) 0.60429(9)
H2_4 H 0.2217 0.0887 0.6171
C5_4 C 0.15600(13) 0.1232(2) 0.56196(10)
H3_4 H 0.1550 0.0677 0.5462
C6_4 C 0.11760(13) 0.1915(2) 0.54256(10)
H4_4 H 0.0922 0.1798 0.5143
C7_4 C 0.11542(13) 0.2773(2) 0.56361(10)
H5_4 H 0.0896 0.3231 0.5509
C8_4 C 0.13427(12) 0.4474(2) 0.63471(10)
H6_4 H 0.1607 0.4984 0.6421
H7_4 H 0.1114 0.4566 0.6033
C9_4 C 0.09454(12) 0.4441(2) 0.66996(10)
C10_2 C 0.08877(12) 0.5206(2) 0.69617(9)
H8_2 H 0.1097 0.5731 0.6929
C11_2 C 0.05171(12) 0.5194(2) 0.72754(10)
H9_2 H 0.0481 0.5712 0.7451
C12_4 C 0.02031(12) 0.44249(19) 0.73292(10)
C13_4 C 0.02684(13) 0.3629(2) 0.70668(11)
H10_4 H 0.0067 0.3101 0.7109
C14_4 C 0.06241(13) 0.3631(2) 0.67533(10)
H11_4 H 0.0658 0.3113 0.6576
C29_4 C 0.32997(12) 0.32248(19) 0.77479(10)
C30_4 C 0.38273(12) 0.37347(19) 0.79940(10)
C31_4 C 0.37518(12) 0.4483(2) 0.82604(10)
H23_4 H 0.3381 0.4676 0.8274
C32_4 C 0.42278(12) 0.4952(2) 0.85102(10)
H24_2 H 0.4173 0.5446 0.8697
C33_4 C 0.47898(12) 0.46882(19) 0.84824(10)
C34_4 C 0.48602(12) 0.39409(19) 0.81922(9)
H25_2 H 0.5227 0.3760 0.8162
C35_4 C 0.43751(12) 0.3478(2) 0.79525(10)
H26_4 H 0.4421 0.2988 0.7761
C36_4 C 0.53273(12) 0.51399(19) 0.87788(9)
C37_4 C 0.52245(12) 0.6089(2) 0.89297(10)
C38_2 C 0.54995(12) 0.4552(2) 0.92319(9)
C39_4 C 0.58264(12) 0.5202(2) 0.85061(9)
C40_4 C 0.57046(13) 0.5603(2) 0.80657(11)
H27_4 H 0.5325 0.5744 0.7928
C41_4 C 0.61390(13) 0.5797(2) 0.78253(10)
H28_4 H 0.6054 0.6081 0.7533
C42_4 C 0.67057(12) 0.55596(19) 0.80305(10)
C43_4 C 0.68280(12) 0.51112(19) 0.84562(10)
H29_2 H 0.7203 0.4922 0.8581
C44_2 C 0.63939(12) 0.49430(19) 0.86981(10)
H30_2 H 0.6480 0.4657 0.8990
C45_4 C 0.71960(12) 0.5822(2) 0.77952(10)
F1_2 F 0.49486(7) 0.65968(11) 0.85747(6)
F2_4 F 0.57091(7) 0.65220(12) 0.91075(6)
F3_2 F 0.49010(7) 0.61243(12) 0.92620(6)
F4_2 F 0.59133(7) 0.49235(13) 0.95533(6)
F5_2 F 0.50552(7) 0.44119(11) 0.94318(5)
F6_2 F 0.56920(7) 0.37343(11) 0.91329(5)
N3_4 N 0.22876(9) 0.25281(15) 0.66775(7)
N4_4 N 0.16750(10) 0.36135(16) 0.63611(8)
O1_4 O 0.28193(8) 0.34917(14) 0.77608(7)
O2_4 O 0.34068(8) 0.24903(14) 0.75412(7)
O4_4 O 0.76823(9) 0.55171(14) 0.79477(7)
C46_4 C 0.78982(12) 0.3376(2) 0.82769(10)
H31_4 H 0.7751 0.3758 0.8025
C47_4 C 0.84338(12) 0.2870(2) 0.89381(10)
C48_4 C 0.80486(13) 0.2197(2) 0.87414(9)
C49_4 C 0.80386(13) 0.1346(2) 0.89571(9)
H32_4 H 0.7783 0.0887 0.8829
C50_4 C 0.84400(13) 0.1232(2) 0.93804(10)
H33_4 H 0.8450 0.0677 0.9538
C51_4 C 0.88240(13) 0.1915(2) 0.95744(10)
H34_4 H 0.9078 0.1798 0.9857
C52_4 C 0.88458(13) 0.2773(2) 0.93639(10)
H35_4 H 0.9104 0.3231 0.9491
C53_4 C 0.86573(12) 0.4474(2) 0.86529(10)
H36_4 H 0.8393 0.4984 0.8579
H37_4 H 0.8886 0.4566 0.8967
C54_4 C 0.90546(12) 0.4441(2) 0.83004(10)
C55_2 C 0.91123(12) 0.5206(2) 0.80383(9)
H38_2 H 0.8903 0.5731 0.8071
C56_2 C 0.94829(12) 0.5194(2) 0.77246(10)
H39_2 H 0.9519 0.5712 0.7549
C57_4 C 0.97969(12) 0.44249(19) 0.76708(10)
C58_4 C 0.97316(13) 0.3629(2) 0.79332(11)
H40_4 H 0.9933 0.3101 0.7891
C59_4 C 0.93759(13) 0.3631(2) 0.82467(10)
H41_4 H 0.9342 0.3113 0.8424
C74_4 C 0.67003(12) 0.32248(19) 0.72521(10)
C75_4 C 0.61727(12) 0.37347(19) 0.70060(10)
C76_4 C 0.62482(12) 0.4483(2) 0.67396(10)
H53_4 H 0.6619 0.4676 0.6726
C77_4 C 0.57722(12) 0.4952(2) 0.64898(10)
H54_2 H 0.5827 0.5446 0.6303
C78_4 C 0.52102(12) 0.46882(19) 0.65176(10)
C79_4 C 0.51398(12) 0.39409(19) 0.68078(9)
H55_3 H 0.4773 0.3760 0.6838
C80_4 C 0.56249(12) 0.3478(2) 0.70475(10)
H56_4 H 0.5579 0.2988 0.7239
C81_4 C 0.46727(12) 0.51399(19) 0.62212(9)
C82_4 C 0.47755(12) 0.6089(2) 0.60703(10)
C83_3 C 0.45005(12) 0.4552(2) 0.57681(9)
C84_4 C 0.41736(12) 0.5202(2) 0.64939(9)
C85_4 C 0.42954(13) 0.5603(2) 0.69343(11)
H57_4 H 0.4675 0.5744 0.7072
C86_4 C 0.38610(13) 0.5797(2) 0.71747(10)
H58_4 H 0.3946 0.6081 0.7467
C87_4 C 0.32943(12) 0.55596(19) 0.69695(10)
C88_4 C 0.31720(12) 0.51112(19) 0.65438(10)
H59_3 H 0.2797 0.4922 0.6419
C89_3 C 0.36061(12) 0.49430(19) 0.63019(10)
H60_3 H 0.3520 0.4657 0.6010
C90_4 C 0.28040(12) 0.5822(2) 0.72048(10)
F7_2 F 0.50514(7) 0.65968(11) 0.64253(6)
F8_4 F 0.42909(7) 0.65220(12) 0.58925(6)
F9_2 F 0.50990(7) 0.61243(12) 0.57380(6)
F10_3 F 0.40867(7) 0.49235(13) 0.54467(6)
F11_3 F 0.49448(7) 0.44119(11) 0.55682(5)
F12_3 F 0.43080(7) 0.37343(11) 0.58671(5)
N8_4 N 0.77124(9) 0.25281(15) 0.83225(7)
N9_4 N 0.83250(10) 0.36135(16) 0.86389(8)
O5_4 O 0.71807(8) 0.34917(14) 0.72392(7)
O6_4 O 0.65932(8) 0.24903(14) 0.74588(7)
O10_4 O 0.23177(9) 0.55171(14) 0.70523(7)
C10_3 C 0.41123(12) 0.9794(2) 0.30383(9)
H8_3 H 0.3903 0.9269 0.3071
C11_3 C 0.44829(12) 0.9806(2) 0.27246(10)
H9_3 H 0.4519 0.9288 0.2549
H24_3 H 0.0827 0.9554 0.1303
F1_3 F 0.00514(7) 0.84032(11) 0.14253(6)
F3_3 F 0.00990(7) 0.88757(12) 0.07380(6)
C55_3 C 0.58877(12) 0.9794(2) 0.19617(9)
H38_3 H 0.6097 0.9269 0.1929
C56_3 C 0.55171(12) 0.9806(2) 0.22754(10)
H39_3 H 0.5481 0.9288 0.2451
H54_3 H 0.9173 0.9554 0.3697
F7_3 F 0.99486(7) 0.84032(11) 0.35747(6)
F9_3 F 0.99010(7) 0.88757(12) 0.42620(6)
H25_3 H 0.9773 0.1240 0.1838
C38_3 C 0.95005(12) 0.0448(2) 0.07681(9)
H29_3 H 0.7797 0.0078 0.1419
C44_3 C 0.86061(12) 0.00570(19) 0.13019(10)
H30_3 H 0.8520 0.0343 0.1010
F4_3 F 0.90867(7) 0.00765(13) 0.04467(6)
F5_3 F 0.99448(7) 0.05881(11) 0.05682(5)
F6_3 F 0.93080(7) 0.12657(11) 0.08671(5)
C60_4 C 0.69644(12) 0.99087(19) 0.80312(10)
H42_4 H 0.7237 0.9661 0.7878
C66_4 C 0.58249(12) 0.9861(2) 0.86804(10)
H46_4 H 0.5736 0.9278 0.8770
C67_4 C 0.66748(13) 0.84278(18) 0.83174(10)
H47_4 H 0.6915 0.8179 0.8115
H48_4 H 0.6295 0.8155 0.8228
C68_4 C 0.69243(13) 0.8196(2) 0.88071(10)
C69_4 C 0.72022(14) 0.8817(2) 0.91362(10)
H49_4 H 0.7248 0.9419 0.9050
C70_4 C 0.74109(13) 0.8539(2) 0.95937(10)
H50_4 H 0.7583 0.8975 0.9810
C71_4 C 0.73803(13) 0.7647(2) 0.97511(10)
C72_4 C 0.70877(13) 0.7069(2) 0.94027(10)
H51_4 H 0.7046 0.6464 0.9487
C73_4 C 0.68529(13) 0.7304(2) 0.89435(10)
H52_4 H 0.6654 0.6880 0.8733
N7_4 N 0.66280(10) 0.94222(16) 0.82518(8)
C15_4 C 0.30356(12) 0.00913(19) 0.19688(10)
H12_4 H 0.2763 0.0339 0.2122
C21_4 C 0.41751(12) 0.0139(2) 0.13196(10)
H16_4 H 0.4264 0.0722 0.1230
C22_4 C 0.33252(13) 0.15722(18) 0.16826(10)
H17_4 H 0.3085 0.1821 0.1885
H18_4 H 0.3705 0.1845 0.1772
C23_4 C 0.30757(13) 0.1804(2) 0.11929(10)
C24_4 C 0.27978(14) 0.1183(2) 0.08638(10)
H19_4 H 0.2752 0.0581 0.0950
C25_4 C 0.25891(13) 0.1461(2) 0.04063(10)
H20_4 H 0.2417 0.1025 0.0190
C26_4 C 0.26197(13) 0.2353(2) 0.02489(10)
C27_4 C 0.29123(13) 0.2931(2) 0.05973(10)
H21_4 H 0.2954 0.3536 0.0513
C28_4 C 0.31471(13) 0.2696(2) 0.10565(10)
H22_4 H 0.3346 0.3120 0.1267
N2_4 N 0.33720(10) 0.05778(16) 0.17482(8)
H25_4 H 0.0227 0.8760 0.8162
C38_4 C 0.04995(12) 0.9552(2) 0.92319(9)
H29_4 H 0.2203 0.9922 0.8581
C44_4 C 0.13939(12) 0.99430(19) 0.86981(10)
H30_4 H 0.1480 0.9657 0.8990
F4_4 F 0.09133(7) 0.99235(13) 0.95533(6)
F5_4 F 0.00552(7) 0.94119(11) 0.94318(5)
F6_4 F 0.06920(7) 0.87343(11) 0.91329(5)
C10_4 C 0.58877(12) 0.0206(2) 0.69617(9)
H8_4 H 0.6097 0.0731 0.6929
C11_4 C 0.55171(12) 0.0194(2) 0.72754(10)
H9_4 H 0.5481 0.0712 0.7451
H24_4 H 0.9173 0.0446 0.8697
F1_4 F 0.99486(7) 0.15968(11) 0.85747(6)
F3_4 F 0.99010(7) 0.11243(12) 0.92620(6)
C55_4 C 0.41123(12) 0.0206(2) 0.80383(9)
H38_4 H 0.3903 0.0731 0.8071
C56_4 C 0.44829(12) 0.0194(2) 0.77246(10)
H39_4 H 0.4519 0.0712 0.7549
H54_4 H 0.0827 0.0446 0.6303
F7_4 F 0.00514(7) 0.15968(11) 0.64253(6)
F9_4 F 0.00990(7) 0.11243(12) 0.57380(6)
H55_4 H 0.9773 0.8760 0.6838
C83_4 C 0.95005(12) 0.9552(2) 0.57681(9)
H59_4 H 0.7797 0.9922 0.6419
C89_4 C 0.86061(12) 0.99430(19) 0.63019(10)
H60_4 H 0.8520 0.9657 0.6010
F10_4 F 0.90867(7) 0.99235(13) 0.54467(6)
F11_4 F 0.99448(7) 0.94119(11) 0.55682(5)
F12_4 F 0.93080(7) 0.87343(11) 0.58671(5)
loop_
_geom_bond_atom_site_label_1
_geom_bond_atom_site_label_2
_geom_bond_site_symmetry_1
_geom_bond_site_symmetry_2
H60 C89 1_555 1_555
F10 C83 1_555 1_555
F11 C83 1_555 1_555
F12 C83 1_555 1_555
C82 C81 1_555 1_555
C84 C81 1_555 1_555
C85 C84 1_555 1_555
H57 C85 1_555 1_555
C86 C85 1_555 1_555
H58 C86 1_555 1_555
C87 C86 1_555 1_555
C88 C87 1_555 1_555
C90 C87 1_555 1_555
F8 C82 1_555 1_555
O7 C90 1_555 1_555
O10 C90 1_555 1_555
Zn4 O7 1_555 1_555
C1 H1 1_555 1_555
C2 C3 1_555 1_555
C3 C4 1_555 1_555
C4 H2 1_555 1_555
C5 C4 1_555 1_555
H3 C5 1_555 1_555
C6 C5 1_555 1_555
H4 C6 1_555 1_555
C7 C2 1_555 1_555
H5 C7 1_555 1_555
C8 H6 1_555 1_555
H7 C8 1_555 1_555
C9 C8 1_555 1_555
C13 C12 1_555 1_555
H10 C13 1_555 1_555
C14 C9 1_555 1_555
H11 C14 1_555 1_555
C15 H12 1_555 1_555
C16 C17 1_555 1_555
C17 C18 1_555 1_555
C18 H13 1_555 1_555
C19 C18 1_555 1_555
H14 C19 1_555 1_555
C20 C19 1_555 1_555
H15 C20 1_555 1_555
C21 C16 1_555 1_555
H16 C21 1_555 1_555
C22 H17 1_555 1_555
H18 C22 1_555 1_555
C23 C22 1_555 1_555
C24 C23 1_555 1_555
H19 C24 1_555 1_555
C25 C24 1_555 1_555
H20 C25 1_555 1_555
C26 C25 1_555 1_555
C27 C26 1_555 1_555
H21 C27 1_555 1_555
C28 C23 1_555 1_555
H22 C28 1_555 1_555
C29 C30 1_555 1_555
C30 C31 1_555 1_555
C31 H23 1_555 1_555
C32 C31 1_555 1_555
C33 C32 1_555 1_555
C34 C33 1_555 1_555
C35 C30 1_555 1_555
H26 C35 1_555 1_555
N1 C15 1_555 1_555
N2 C15 1_555 1_555
N3 C1 1_555 1_555
N4 C1 1_555 1_555
O1 C29 1_555 1_555
O2 C29 1_555 1_555
Zn1 N1 1_555 1_555
C46 H31 1_555 1_555
C47 C48 1_555 1_555
C48 C49 1_555 1_555
C49 H32 1_555 1_555
C50 C49 1_555 1_555
H33 C50 1_555 1_555
C51 C50 1_555 1_555
H34 C51 1_555 1_555
C52 C47 1_555 1_555
H35 C52 1_555 1_555
C53 H36 1_555 1_555
H37 C53 1_555 1_555
C54 C53 1_555 1_555
C57 C12 1_555 1_555
C58 C57 1_555 1_555
H40 C58 1_555 1_555
C59 C54 1_555 1_555
H41 C59 1_555 1_555
C60 H42 1_555 1_555
H46 C66 1_555 1_555
C67 H47 1_555 1_555
H48 C67 1_555 1_555
C68 C67 1_555 1_555
C69 C68 1_555 1_555
H49 C69 1_555 1_555
C70 C69 1_555 1_555
H50 C70 1_555 1_555
C71 C26 1_555 1_555
C72 C71 1_555 1_555
H51 C72 1_555 1_555
C73 C68 1_555 1_555
H52 C73 1_555 1_555
C74 C75 1_555 1_555
C75 C76 1_555 1_555
C76 H53 1_555 1_555
C77 C76 1_555 1_555
C78 C77 1_555 1_555
C79 C78 1_555 1_555
C80 C75 1_555 1_555
H56 C80 1_555 1_555
N6 Zn2 1_555 1_555
N7 C60 1_555 1_555
N8 C46 1_555 1_555
N9 C46 1_555 1_555
O5 C74 1_555 1_555
O6 C74 1_555 1_555
O8 Zn1 1_555 1_555
O9 Zn2 1_555 1_555
Zn2 N8 1_555 1_555
C2 N4 1_555 1_555
C3 N3 1_555 1_555
C6 C7 1_555 1_555
C8 N4 1_555 1_555
C13 C14 1_555 1_555
C16 N2 1_555 1_555
C17 N1 1_555 1_555
C20 C21 1_555 1_555
C22 N2 1_555 1_555
C27 C28 1_555 1_555
C34 C35 1_555 1_555
N3 Zn1 1_555 1_555
O2 Zn1 1_555 1_555
C47 N9 1_555 1_555
C48 N8 1_555 1_555
C51 C52 1_555 1_555
C53 N9 1_555 1_555
C58 C59 1_555 1_555
C67 N7 1_555 1_555
C70 C71 1_555 1_555
C72 C73 1_555 1_555
C79 C80 1_555 1_555
O6 Zn2 1_555 1_555
C37 C36 1_555 1_555
C39 C36 1_555 1_555
C40 C39 1_555 1_555
H27 C40 1_555 1_555
C41 C40 1_555 1_555
H28 C41 1_555 1_555
C42 C41 1_555 1_555
C43 C42 1_555 1_555
C45 C42 1_555 1_555
F2 C37 1_555 1_555
O3 C45 1_555 1_555
O4 C45 1_555 1_555
Zn3 O3 1_555 1_555
C15_2 H12_2 1_555 1_555
C16_2 C17_2 1_555 1_555
C17_2 C18_2 1_555 1_555
C18_2 H13_2 1_555 1_555
C19_2 C18_2 1_555 1_555
H14_2 C19_2 1_555 1_555
C20_2 C19_2 1_555 1_555
H15_2 C20_2 1_555 1_555
C21_2 C16_2 1_555 1_555
H16_2 C21_2 1_555 1_555
C22_2 H17_2 1_555 1_555
H18_2 C22_2 1_555 1_555
C23_2 C22_2 1_555 1_555
C24_2 C23_2 1_555 1_555
H19_2 C24_2 1_555 1_555
C25_2 C24_2 1_555 1_555
H20_2 C25_2 1_555 1_555
C26_2 C25_2 1_555 1_555
C27_2 C26_2 1_555 1_555
H21_2 C27_2 1_555 1_555
C28_2 C23_2 1_555 1_555
H22_2 C28_2 1_555 1_555
N6 C15_2 1_555 1_555
N2_2 C15_2 1_555 1_555
C16_2 N2_2 1_555 1_555
C17_2 N6 1_555 1_555
C20_2 C21_2 1_555 1_555
C22_2 N2_2 1_555 1_555
C27_2 C28_2 1_555 1_555
C46_2 H31_2 1_555 1_555
C47_2 C48_2 1_555 1_555
C48_2 C49_2 1_555 1_555
C49_2 H32_2 1_555 1_555
C50_2 C49_2 1_555 1_555
H33_2 C50_2 1_555 1_555
C51_2 C50_2 1_555 1_555
H34_2 C51_2 1_555 1_555
C52_2 C47_2 1_555 1_555
H35_2 C52_2 1_555 1_555
C53_2 H36_2 1_555 1_555
H37_2 C53_2 1_555 1_555
C54_2 C53_2 1_555 1_555
C55 C54_2 1_555 1_555
H38 C55 1_555 1_555
C56 C55 1_555 1_555
H39 C56 1_555 1_555
C58_2 C57_2 1_555 1_555
H40_2 C58_2 1_555 1_555
C59_2 C54_2 1_555 1_555
H41_2 C59_2 1_555 1_555
C74_2 C75_2 1_555 1_555
C75_2 C76_2 1_555 1_555
C76_2 H53_2 1_555 1_555
C77_2 C76_2 1_555 1_555
H54 C77_2 1_555 1_555
C78_2 C77_2 1_555 1_555
C79_2 C78_2 1_555 1_555
H55_2 C79_2 1_555 1_555
C80_2 C75_2 1_555 1_555
H56_2 C80_2 1_555 1_555
C81_2 C78_2 1_555 1_555
C82_2 C81_2 1_555 1_555
C83_2 C81_2 1_555 1_555
C84_2 C81_2 1_555 1_555
C85_2 C84_2 1_555 1_555
H57_2 C85_2 1_555 1_555
C86_2 C85_2 1_555 1_555
H58_2 C86_2 1_555 1_555
C87_2 C86_2 1_555 1_555
C88_2 C87_2 1_555 1_555
H59_2 C88_2 1_555 1_555
C89_2 C84_2 1_555 1_555
H60_2 C89_2 1_555 1_555
C90_2 C87_2 1_555 1_555
F7 C82_2 1_555 1_555
F8_2 C82_2 1_555 1_555
F9 C82_2 1_555 1_555
F10_2 C83_2 1_555 1_555
F11_2 C83_2 1_555 1_555
F12_2 C83_2 1_555 1_555
N6_2 Zn4 1_555 1_555
N8_2 C46_2 1_555 1_555
N9_2 C46_2 1_555 1_555
O5_2 C74_2 1_555 1_555
O6_2 C74_2 1_555 1_555
O9 C90_2 1_555 1_555
O10_2 C90_2 1_555 1_555
Zn4 N8_2 1_555 1_555
C47_2 N9_2 1_555 1_555
C48_2 N8_2 1_555 1_555
C51_2 C52_2 1_555 1_555
C53_2 N9_2 1_555 1_555
C56 C57_2 1_555 1_555
C58_2 C59_2 1_555 1_555
C79_2 C80_2 1_555 1_555
C88_2 C89_2 1_555 1_555
O6_2 Zn4 1_555 1_555
C1_2 H1_2 1_555 1_555
C2_2 C3_2 1_555 1_555
C3_2 C4_2 1_555 1_555
C4_2 H2_2 1_555 1_555
C5_2 C4_2 1_555 1_555
H3_2 C5_2 1_555 1_555
C6_2 C5_2 1_555 1_555
H4_2 C6_2 1_555 1_555
C7_2 C2_2 1_555 1_555
H5_2 C7_2 1_555 1_555
C8_2 H6_2 1_555 1_555
H7_2 C8_2 1_555 1_555
C9_2 C8_2 1_555 1_555
C10 C9_2 1_555 1_555
H8 C10 1_555 1_555
C11 C10 1_555 1_555
H9 C11 1_555 1_555
C12_2 C11 1_555 1_555
C13_2 C12_2 1_555 1_555
H10_2 C13_2 1_555 1_555
C14_2 C9_2 1_555 1_555
H11_2 C14_2 1_555 1_555
C16_3 C17_3 1_555 1_555
C17_3 C18_3 1_555 1_555
C18_3 H13_3 1_555 1_555
C19_3 C18_3 1_555 1_555
H14_3 C19_3 1_555 1_555
C20_3 C19_3 1_555 1_555
H15_3 C20_3 1_555 1_555
C29_2 C30_2 1_555 1_555
C30_2 C31_2 1_555 1_555
C31_2 H23_2 1_555 1_555
C32_2 C31_2 1_555 1_555
H24 C32_2 1_555 1_555
C33_2 C32_2 1_555 1_555
C34_2 C33_2 1_555 1_555
H25 C34_2 1_555 1_555
C35_2 C30_2 1_555 1_555
H26_2 C35_2 1_555 1_555
C36_2 C33_2 1_555 1_555
C37_2 C36_2 1_555 1_555
C38 C36_2 1_555 1_555
C39_2 C36_2 1_555 1_555
C40_2 C39_2 1_555 1_555
H27_2 C40_2 1_555 1_555
C41_2 C40_2 1_555 1_555
H28_2 C41_2 1_555 1_555
C42_2 C41_2 1_555 1_555
C43_2 C42_2 1_555 1_555
H29 C43_2 1_555 1_555
C44 C39_2 1_555 1_555
H30 C44 1_555 1_555
C45_2 C42_2 1_555 1_555
F1 C37_2 1_555 1_555
F2_2 C37_2 1_555 1_555
F3 C37_2 1_555 1_555
F4 C38 1_555 1_555
F5 C38 1_555 1_555
F6 C38 1_555 1_555
N3_2 C1_2 1_555 1_555
N4_2 C1_2 1_555 1_555
O1_2 C29_2 1_555 1_555
O2_2 C29_2 1_555 1_555
O8 C45_2 1_555 1_555
O4_2 C45_2 1_555 1_555
Zn3 N1_2 1_555 1_555
C2_2 N4_2 1_555 1_555
C3_2 N3_2 1_555 1_555
C6_2 C7_2 1_555 1_555
C8_2 N4_2 1_555 1_555
C13_2 C14_2 1_555 1_555
C17_3 N1_2 1_555 1_555
C34_2 C35_2 1_555 1_555
C43_2 C44 1_555 1_555
N3_2 Zn3 1_555 1_555
O2_2 Zn3 1_555 1_555
C16_4 C17_4 1_555 1_555
C17_4 C18_4 1_555 1_555
C18_4 H13_4 1_555 1_555
C19_4 C18_4 1_555 1_555
H14_4 C19_4 1_555 1_555
C20_4 C19_4 1_555 1_555
H15_4 C20_4 1_555 1_555
C17_4 N6_2 1_555 1_555
C61 C62 1_555 1_555
C62 C63 1_555 1_555
C63 H43 1_555 1_555
C64 C63 1_555 1_555
H44 C64 1_555 1_555
C65 C64 1_555 1_555
H45 C65 1_555 1_555
Zn5 N5 1_555 1_555
C62 N5 1_555 1_555
C61_2 C62_2 1_555 1_555
C62_2 C63_2 1_555 1_555
C63_2 H43_2 1_555 1_555
C64_2 C63_2 1_555 1_555
H44_2 C64_2 1_555 1_555
C65_2 C64_2 1_555 1_555
H45_2 C65_2 1_555 1_555
Zn5_2 N5_2 1_555 1_555
C62_2 N5_2 1_555 1_555
C15_3 H12_3 1_555 1_555
H16_3 C21_3 1_555 1_555
C22_3 H17_3 1_555 1_555
H18_3 C22_3 1_555 1_555
C23_3 C22_3 1_555 1_555
C24_3 C23_3 1_555 1_555
H19_3 C24_3 1_555 1_555
C25_3 C24_3 1_555 1_555
H20_3 C25_3 1_555 1_555
C26_3 C25_3 1_555 1_555
C27_3 C26_3 1_555 1_555
H21_3 C27_3 1_555 1_555
C28_3 C23_3 1_555 1_555
H22_3 C28_3 1_555 1_555
N2_3 C15_3 1_555 1_555
C60_2 H42_2 1_555 1_555
C61_3 C62_3 1_555 1_555
C62_3 C63_3 1_555 1_555
C63_3 H43_3 1_555 1_555
C64_3 C63_3 1_555 1_555
H44_3 C64_3 1_555 1_555
C65_3 C64_3 1_555 1_555
H45_3 C65_3 1_555 1_555
C66_2 C61_3 1_555 1_555
H46_2 C66_2 1_555 1_555
C67_2 H47_2 1_555 1_555
H48_2 C67_2 1_555 1_555
C68_2 C67_2 1_555 1_555
C69_2 C68_2 1_555 1_555
H49_2 C69_2 1_555 1_555
C70_2 C69_2 1_555 1_555
H50_2 C70_2 1_555 1_555
C71_2 C26_3 1_555 1_555
C72_2 C71_2 1_555 1_555
H51_2 C72_2 1_555 1_555
C73_2 C68_2 1_555 1_555
H52_2 C73_2 1_555 1_555
N5_3 C60_2 1_555 1_555
N7_2 C60_2 1_555 1_555
Zn5_3 N5_3 1_555 1_555
C22_3 N2_3 1_555 1_555
C27_3 C28_3 1_555 1_555
C61_3 N7_2 1_555 1_555
C62_3 N5_3 1_555 1_555
C65_3 C66_2 1_555 1_555
C67_2 N7_2 1_555 1_555
C70_2 C71_2 1_555 1_555
C72_2 C73_2 1_555 1_555
C60_3 H42_3 1_555 1_555
C61_4 C62_4 1_555 1_555
C62_4 C63_4 1_555 1_555
C63_4 H43_4 1_555 1_555
C64_4 C63_4 1_555 1_555
H44_4 C64_4 1_555 1_555
C65_4 C64_4 1_555 1_555
H45_4 C65_4 1_555 1_555
C66_3 C61_4 1_555 1_555
H46_3 C66_3 1_555 1_555
C67_3 H47_3 1_555 1_555
H48_3 C67_3 1_555 1_555
C68_3 C67_3 1_555 1_555
C69_3 C68_3 1_555 1_555
H49_3 C69_3 1_555 1_555
C70_3 C69_3 1_555 1_555
H50_3 C70_3 1_555 1_555
C72_3 C71_3 1_555 1_555
H51_3 C72_3 1_555 1_555
C73_3 C68_3 1_555 1_555
H52_3 C73_3 1_555 1_555
N5_4 C60_3 1_555 1_555
N7_3 C60_3 1_555 1_555
Zn5_4 N5_4 1_555 1_555
C61_4 N7_3 1_555 1_555
C62_4 N5_4 1_555 1_555
C65_4 C66_3 1_555 1_555
C67_3 N7_3 1_555 1_555
C70_3 C71_3 1_555 1_555
C72_3 C73_3 1_555 1_555
C37_3 C36_3 1_555 1_555
C39_3 C36_3 1_555 1_555
C40_3 C39_3 1_555 1_555
H27_3 C40_3 1_555 1_555
C41_3 C40_3 1_555 1_555
H28_3 C41_3 1_555 1_555
C42_3 C41_3 1_555 1_555
C43_3 C42_3 1_555 1_555
C45_3 C42_3 1_555 1_555
F2_3 C37_3 1_555 1_555
O3_2 C45_3 1_555 1_555
O4_3 C45_3 1_555 1_555
Zn5 O3_2 1_555 1_555
C1_3 H1_3 1_555 1_555
C2_3 C3_3 1_555 1_555
C3_3 C4_3 1_555 1_555
C4_3 H2_3 1_555 1_555
C5_3 C4_3 1_555 1_555
H3_3 C5_3 1_555 1_555
C6_3 C5_3 1_555 1_555
H4_3 C6_3 1_555 1_555
C7_3 C2_3 1_555 1_555
H5_3 C7_3 1_555 1_555
C8_3 H6_3 1_555 1_555
H7_3 C8_3 1_555 1_555
C9_3 C8_3 1_555 1_555
C13_3 C12_3 1_555 1_555
H10_3 C13_3 1_555 1_555
C14_3 C9_3 1_555 1_555
H11_3 C14_3 1_555 1_555
C29_3 C30_3 1_555 1_555
C30_3 C31_3 1_555 1_555
C31_3 H23_3 1_555 1_555
C32_3 C31_3 1_555 1_555
C33_3 C32_3 1_555 1_555
C34_3 C33_3 1_555 1_555
C35_3 C30_3 1_555 1_555
H26_3 C35_3 1_555 1_555
N3_3 C1_3 1_555 1_555
N4_3 C1_3 1_555 1_555
O1_3 C29_3 1_555 1_555
O2_3 C29_3 1_555 1_555
C46_3 H31_3 1_555 1_555
C47_3 C48_3 1_555 1_555
C48_3 C49_3 1_555 1_555
C49_3 H32_3 1_555 1_555
C50_3 C49_3 1_555 1_555
H33_3 C50_3 1_555 1_555
C51_3 C50_3 1_555 1_555
H34_3 C51_3 1_555 1_555
C52_3 C47_3 1_555 1_555
H35_3 C52_3 1_555 1_555
C53_3 H36_3 1_555 1_555
H37_3 C53_3 1_555 1_555
C54_3 C53_3 1_555 1_555
C57_3 C12_3 1_555 1_555
C58_3 C57_3 1_555 1_555
H40_3 C58_3 1_555 1_555
C59_3 C54_3 1_555 1_555
H41_3 C59_3 1_555 1_555
C74_3 C75_3 1_555 1_555
C75_3 C76_3 1_555 1_555
C76_3 H53_3 1_555 1_555
C77_3 C76_3 1_555 1_555
C78_3 C77_3 1_555 1_555
C79_3 C78_3 1_555 1_555
C80_3 C75_3 1_555 1_555
H56_3 C80_3 1_555 1_555
N8_3 C46_3 1_555 1_555
N9_3 C46_3 1_555 1_555
O5_3 C74_3 1_555 1_555
O6_3 C74_3 1_555 1_555
O8_2 Zn5_3 1_555 1_555
O9_2 Zn5_4 1_555 1_555
Zn5_4 N8_3 1_555 1_555
C2_3 N4_3 1_555 1_555
C3_3 N3_3 1_555 1_555
C6_3 C7_3 1_555 1_555
C8_3 N4_3 1_555 1_555
C13_3 C14_3 1_555 1_555
C34_3 C35_3 1_555 1_555
N3_3 Zn5_3 1_555 1_555
O2_3 Zn5_3 1_555 1_555
C47_3 N9_3 1_555 1_555
C48_3 N8_3 1_555 1_555
C51_3 C52_3 1_555 1_555
C53_3 N9_3 1_555 1_555
C58_3 C59_3 1_555 1_555
C79_3 C80_3 1_555 1_555
O6_3 Zn5_4 1_555 1_555
C82_3 C81_3 1_555 1_555
C84_3 C81_3 1_555 1_555
C85_3 C84_3 1_555 1_555
H57_3 C85_3 1_555 1_555
C86_3 C85_3 1_555 1_555
H58_3 C86_3 1_555 1_555
C87_3 C86_3 1_555 1_555
C88_3 C87_3 1_555 1_555
C90_3 C87_3 1_555 1_555
F8_3 C82_3 1_555 1_555
O7_2 C90_3 1_555 1_555
O10_3 C90_3 1_555 1_555
Zn5_2 O7_2 1_555 1_555
C1_4 H1_4 1_555 1_555
C2_4 C3_4 1_555 1_555
C3_4 C4_4 1_555 1_555
C4_4 H2_4 1_555 1_555
C5_4 C4_4 1_555 1_555
H3_4 C5_4 1_555 1_555
C6_4 C5_4 1_555 1_555
H4_4 C6_4 1_555 1_555
C7_4 C2_4 1_555 1_555
H5_4 C7_4 1_555 1_555
C8_4 H6_4 1_555 1_555
H7_4 C8_4 1_555 1_555
C9_4 C8_4 1_555 1_555
C10_2 C9_4 1_555 1_555
H8_2 C10_2 1_555 1_555
C11_2 C10_2 1_555 1_555
H9_2 C11_2 1_555 1_555
C12_4 C11_2 1_555 1_555
C13_4 C12_4 1_555 1_555
H10_4 C13_4 1_555 1_555
C14_4 C9_4 1_555 1_555
H11_4 C14_4 1_555 1_555
C29_4 C30_4 1_555 1_555
C30_4 C31_4 1_555 1_555
C31_4 H23_4 1_555 1_555
C32_4 C31_4 1_555 1_555
H24_2 C32_4 1_555 1_555
C33_4 C32_4 1_555 1_555
C34_4 C33_4 1_555 1_555
H25_2 C34_4 1_555 1_555
C35_4 C30_4 1_555 1_555
H26_4 C35_4 1_555 1_555
C36_4 C33_4 1_555 1_555
C37_4 C36_4 1_555 1_555
C38_2 C36_4 1_555 1_555
C39_4 C36_4 1_555 1_555
C40_4 C39_4 1_555 1_555
H27_4 C40_4 1_555 1_555
C41_4 C40_4 1_555 1_555
H28_4 C41_4 1_555 1_555
C42_4 C41_4 1_555 1_555
C43_4 C42_4 1_555 1_555
H29_2 C43_4 1_555 1_555
C44_2 C39_4 1_555 1_555
H30_2 C44_2 1_555 1_555
C45_4 C42_4 1_555 1_555
F1_2 C37_4 1_555 1_555
F2_4 C37_4 1_555 1_555
F3_2 C37_4 1_555 1_555
F4_2 C38_2 1_555 1_555
F5_2 C38_2 1_555 1_555
F6_2 C38_2 1_555 1_555
N3_4 C1_4 1_555 1_555
N4_4 C1_4 1_555 1_555
O1_4 C29_4 1_555 1_555
O2_4 C29_4 1_555 1_555
O8_2 C45_4 1_555 1_555
O4_4 C45_4 1_555 1_555
C2_4 N4_4 1_555 1_555
C3_4 N3_4 1_555 1_555
C6_4 C7_4 1_555 1_555
C8_4 N4_4 1_555 1_555
C13_4 C14_4 1_555 1_555
C34_4 C35_4 1_555 1_555
C43_4 C44_2 1_555 1_555
N3_4 Zn5 1_555 1_555
O2_4 Zn5 1_555 1_555
C46_4 H31_4 1_555 1_555
C47_4 C48_4 1_555 1_555
C48_4 C49_4 1_555 1_555
C49_4 H32_4 1_555 1_555
C50_4 C49_4 1_555 1_555
H33_4 C50_4 1_555 1_555
C51_4 C50_4 1_555 1_555
H34_4 C51_4 1_555 1_555
C52_4 C47_4 1_555 1_555
H35_4 C52_4 1_555 1_555
C53_4 H36_4 1_555 1_555
H37_4 C53_4 1_555 1_555
C54_4 C53_4 1_555 1_555
C55_2 C54_4 1_555 1_555
H38_2 C55_2 1_555 1_555
C56_2 C55_2 1_555 1_555
H39_2 C56_2 1_555 1_555
C58_4 C57_4 1_555 1_555
H40_4 C58_4 1_555 1_555
C59_4 C54_4 1_555 1_555
H41_4 C59_4 1_555 1_555
C74_4 C75_4 1_555 1_555
C75_4 C76_4 1_555 1_555
C76_4 H53_4 1_555 1_555
C77_4 C76_4 1_555 1_555
H54_2 C77_4 1_555 1_555
C78_4 C77_4 1_555 1_555
C79_4 C78_4 1_555 1_555
H55_3 C79_4 1_555 1_555
C80_4 C75_4 1_555 1_555
H56_4 C80_4 1_555 1_555
C81_4 C78_4 1_555 1_555
C82_4 C81_4 1_555 1_555
C83_3 C81_4 1_555 1_555
C84_4 C81_4 1_555 1_555
C85_4 C84_4 1_555 1_555
H57_4 C85_4 1_555 1_555
C86_4 C85_4 1_555 1_555
H58_4 C86_4 1_555 1_555
C87_4 C86_4 1_555 1_555
C88_4 C87_4 1_555 1_555
H59_3 C88_4 1_555 1_555
C89_3 C84_4 1_555 1_555
H60_3 C89_3 1_555 1_555
C90_4 C87_4 1_555 1_555
F7_2 C82_4 1_555 1_555
F8_4 C82_4 1_555 1_555
F9_2 C82_4 1_555 1_555
F10_3 C83_3 1_555 1_555
F11_3 C83_3 1_555 1_555
F12_3 C83_3 1_555 1_555
N8_4 C46_4 1_555 1_555
N9_4 C46_4 1_555 1_555
O5_4 C74_4 1_555 1_555
O6_4 C74_4 1_555 1_555
O9_2 C90_4 1_555 1_555
O10_4 C90_4 1_555 1_555
Zn5_2 N8_4 1_555 1_555
C47_4 N9_4 1_555 1_555
C48_4 N8_4 1_555 1_555
C51_4 C52_4 1_555 1_555
C53_4 N9_4 1_555 1_555
C56_2 C57_4 1_555 1_555
C58_4 C59_4 1_555 1_555
C79_4 C80_4 1_555 1_555
C88_4 C89_3 1_555 1_555
O6_4 Zn5_2 1_555 1_555
H8_3 C10_3 1_555 1_555
C11_3 C10_3 1_555 1_555
H9_3 C11_3 1_555 1_555
H38_3 C55_3 1_555 1_555
C56_3 C55_3 1_555 1_555
H39_3 C56_3 1_555 1_555
H30_3 C44_3 1_555 1_555
F4_3 C38_3 1_555 1_555
F5_3 C38_3 1_555 1_555
F6_3 C38_3 1_555 1_555
C60_4 H42_4 1_555 1_555
H46_4 C66_4 1_555 1_555
C67_4 H47_4 1_555 1_555
H48_4 C67_4 1_555 1_555
C68_4 C67_4 1_555 1_555
C69_4 C68_4 1_555 1_555
H49_4 C69_4 1_555 1_555
C70_4 C69_4 1_555 1_555
H50_4 C70_4 1_555 1_555
C72_4 C71_4 1_555 1_555
H51_4 C72_4 1_555 1_555
C73_4 C68_4 1_555 1_555
H52_4 C73_4 1_555 1_555
N7_4 C60_4 1_555 1_555
C67_4 N7_4 1_555 1_555
C70_4 C71_4 1_555 1_555
C72_4 C73_4 1_555 1_555
C15_4 H12_4 1_555 1_555
H16_4 C21_4 1_555 1_555
C22_4 H17_4 1_555 1_555
H18_4 C22_4 1_555 1_555
C23_4 C22_4 1_555 1_555
C24_4 C23_4 1_555 1_555
H19_4 C24_4 1_555 1_555
C25_4 C24_4 1_555 1_555
H20_4 C25_4 1_555 1_555
C26_4 C25_4 1_555 1_555
C27_4 C26_4 1_555 1_555
H21_4 C27_4 1_555 1_555
C28_4 C23_4 1_555 1_555
H22_4 C28_4 1_555 1_555
N2_4 C15_4 1_555 1_555
C22_4 N2_4 1_555 1_555
C27_4 C28_4 1_555 1_555
H30_4 C44_4 1_555 1_555
F4_4 C38_4 1_555 1_555
F5_4 C38_4 1_555 1_555
F6_4 C38_4 1_555 1_555
H8_4 C10_4 1_555 1_555
C11_4 C10_4 1_555 1_555
H9_4 C11_4 1_555 1_555
H38_4 C55_4 1_555 1_555
C56_4 C55_4 1_555 1_555
H39_4 C56_4 1_555 1_555
H60_4 C89_4 1_555 1_555
F10_4 C83_4 1_555 1_555
F11_4 C83_4 1_555 1_555
F12_4 C83_4 1_555 1_555

#END
