
###############################################################################
#
# This file contains modified crystal structure data generated from the
# MOF subset of the Cambridge Structural Database (CSD) v543 
# hosted by the Cambridge Crystallographic Data Centre (CCDC).
#
# This work is licensed under the Creative Commons
# Attribution-NonCommercial-ShareAlike 4.0 International License.
# To view a copy of this license, visit
# http://creativecommons.org/licenses/by-nc-sa/4.0/
# or send a letter to
# Creative Commons, PO Box 1866, Mountain View, CA 94042, USA.
#
# CIF created using the CSD Python API on 29 September 2022
# The structure has been converted into the P1 space group
# The structure has a 3D framework
# The original CSD entry OTATOT is in the orthorhombic crystal system
# The framework has been calculated to contain at least 10.0% void space
# The void calculation uses a probe of radius 1.32A, grid spacing 0.4
#
###############################################################################

data_OTATOT
_chemical_formula_moiety         '(C96 H88 N8 O32 Tb4)n'
_symmetry_cell_setting           triclinic
_symmetry_space_group_name_H-M   'P 1'
_symmetry_Int_Tables_number      1
_space_group_name_Hall           'P 1'
loop_
_symmetry_equiv_pos_site_id
_symmetry_equiv_pos_as_xyz
1 x,y,z
_cell_length_a                   17.7423(5)
_cell_length_b                   19.7457(5)
_cell_length_c                   10.0389(3)
_cell_angle_alpha                90
_cell_angle_beta                 90
_cell_angle_gamma                90
_cell_volume                     3516.97
loop_
_atom_site_label
_atom_site_type_symbol
_atom_site_fract_x
_atom_site_fract_y
_atom_site_fract_z
C16 C 0.35855(17) 0.04547(14) 0.7690(3)
H13 H 0.3854 0.0719 0.8292
C18 C 0.29257(16) 0.03558(13) 0.5644(3)
H15 H 0.2741 0.0551 0.4868
C19 C 0.33176(16) 0.07407(13) 0.6537(3)
H16 H 0.3403 0.1197 0.6363
H7 H 0.0616 0.0094 0.8057
H20 H 0.0046 0.0933 0.8740
C8 C 0.43682(14) 0.64528(12) 0.0033(3)
H6 H 0.4377 0.6855 0.0516
C12 C 0.47745(14) 0.59010(12) 0.0471(3)
H9 H 0.5046 0.5933 0.1260
O4 O 0.36614(10) 0.78461(9) 0.0785(2)
H10 H 0.3630(12) 0.7893(13) 0.1567(17)
H11 H 0.3954(13) 0.8138(11) 0.053(3)
O5 O 0.28027(9) 0.67141(8) 0.12685(17)
O6 O 0.21973(9) 0.82859(8) 0.12685(17)
Tb3 Tb 0.7500 0.2500 0.031380(15)
C21 C 0.56198(13) 0.47062(11) 0.1418(3)
H18 H 0.5616 0.5094 0.1943
C22 C 0.52136(13) 0.47010(11) 0.0242(2)
C23 C 0.60273(14) 0.41548(12) 0.1830(3)
H19 H 0.6295 0.4173 0.2626
N2 N 0.60402(10) 0.35889(9) 0.10885(19)
O9 O 0.64460(8) 0.30523(7) 0.14915(17)
O11 O 0.13386(10) 0.71539(9) 0.0785(2)
H21 H 0.1370(12) 0.7107(13) 0.1567(17)
H22 H 0.1046(13) 0.6862(11) 0.053(3)
O1 O 0.21973(9) 0.67141(8) 0.62685(17)
Tb1 Tb 0.2500 0.7500 0.968620(15)
C1 C 0.20450(12) 0.63659(11) 0.7280(2)
C2 C 0.19288(12) 0.56196(11) 0.7048(2)
C3 C 0.15409(14) 0.52241(12) 0.7966(3)
H1 H 0.1368 0.5413 0.8758
C4 C 0.14145(17) 0.45453(14) 0.7690(3)
H2 H 0.1146 0.4281 0.8292
C5 C 0.21967(14) 0.53235(12) 0.5892(3)
H3 H 0.2461 0.5584 0.5278
C6 C 0.20743(16) 0.46442(13) 0.5644(3)
H4 H 0.2259 0.4449 0.4868
C7 C 0.16824(16) 0.42593(13) 0.6537(3)
H5 H 0.1597 0.3803 0.6363
C9 C 0.43802(13) 0.52938(11) 0.8582(3)
H7_2 H 0.4384 0.4906 0.8057
C10 C 0.47864(13) 0.52990(11) 0.9758(2)
C11 C 0.39727(14) 0.58452(12) 0.8170(3)
H8 H 0.3705 0.5827 0.7374
N1 N 0.39598(10) 0.64111(9) 0.89115(19)
O2 O 0.19829(9) 0.65990(8) 0.84359(18)
O3 O 0.35540(8) 0.69477(7) 0.85085(17)
O7 O 0.28027(9) 0.82859(8) 0.62685(17)
Tb2 Tb 0.2500 0.7500 0.468620(15)
C13 C 0.29550(12) 0.86341(11) 0.7280(2)
C14 C 0.30712(12) 0.93804(11) 0.7048(2)
C15 C 0.34591(14) 0.97759(12) 0.7966(3)
H12 H 0.3632 0.9587 0.8758
C17 C 0.28033(14) 0.96765(12) 0.5892(3)
H14 H 0.2539 0.9416 0.5278
C20 C 0.56318(14) 0.35472(12) 0.9967(3)
H17 H 0.5623 0.3145 0.9484
C24 C 0.52255(14) 0.40990(12) 0.9529(3)
H20_2 H 0.4954 0.4067 0.8740
O8 O 0.30171(9) 0.84010(8) 0.84359(18)
O10 O 0.14460(8) 0.80523(7) 0.85085(17)
C8_2 C 0.06318(14) 0.85472(12) 0.0033(3)
H6_2 H 0.0623 0.8145 0.0516
C12_2 C 0.02255(14) 0.90990(12) 0.0471(3)
C9_2 C 0.06198(13) 0.97062(11) 0.8582(3)
C10_2 C 0.02136(13) 0.97010(11) 0.9758(2)
C11_2 C 0.10273(14) 0.91548(12) 0.8170(3)
H8_2 H 0.1295 0.9173 0.7374
N1_2 N 0.10402(10) 0.85889(9) 0.89115(19)
C21_2 C 0.93802(13) 0.02938(11) 0.1418(3)
C22_2 C 0.97864(13) 0.02990(11) 0.0242(2)
C23_2 C 0.89727(14) 0.08452(12) 0.1830(3)
H19_2 H 0.8705 0.0827 0.2626
N2_2 N 0.89598(10) 0.14111(9) 0.10885(19)
O9_2 O 0.85540(8) 0.19477(7) 0.14915(17)
C20_2 C 0.93682(14) 0.14528(12) 0.9967(3)
H17_2 H 0.9377 0.1855 0.9484
C24_2 C 0.97745(14) 0.09010(12) 0.9529(3)
H15_2 H 0.7259 0.5551 0.0132
O1_2 O 0.78027(9) 0.17141(8) 0.87315(17)
Tb1_2 Tb 0.7500 0.2500 0.531380(15)
C1_2 C 0.79550(12) 0.13659(11) 0.7720(2)
C2_2 C 0.80712(12) 0.06196(11) 0.7952(2)
C3_2 C 0.84591(14) 0.02241(12) 0.7034(3)
H1_2 H 0.8632 0.0413 0.6242
C5_2 C 0.78033(14) 0.03235(12) 0.9108(3)
H3_2 H 0.7539 0.0584 0.9722
C8_3 C 0.56318(14) 0.14528(12) 0.4967(3)
H6_3 H 0.5623 0.1855 0.4484
C9_3 C 0.56198(13) 0.02938(11) 0.6418(3)
C10_3 C 0.52136(13) 0.02990(11) 0.5242(2)
C11_3 C 0.60273(14) 0.08452(12) 0.6830(3)
H8_3 H 0.6295 0.0827 0.7626
C12_3 C 0.52255(14) 0.09010(12) 0.4529(3)
H9_2 H 0.4954 0.0933 0.3740
N1_3 N 0.60402(10) 0.14111(9) 0.60885(19)
O2_2 O 0.80171(9) 0.15990(8) 0.65641(18)
O3_2 O 0.64460(8) 0.19477(7) 0.64915(17)
O4_2 O 0.63386(10) 0.28461(9) 0.4215(2)
H10_2 H 0.6370(12) 0.2893(13) 0.3433(17)
H11_2 H 0.6046(13) 0.3138(11) 0.447(3)
O5_2 O 0.71973(9) 0.17141(8) 0.37315(17)
O6_2 O 0.78027(9) 0.32859(8) 0.37315(17)
O7_2 O 0.71973(9) 0.32859(8) 0.87315(17)
C13_2 C 0.70450(12) 0.36341(11) 0.7720(2)
C14_2 C 0.69288(12) 0.43804(11) 0.7952(2)
C15_2 C 0.65409(14) 0.47759(12) 0.7034(3)
H12_2 H 0.6368 0.4587 0.6242
C16_2 C 0.64145(17) 0.54547(14) 0.7310(3)
H13_2 H 0.6146 0.5719 0.6708
C17_2 C 0.71967(14) 0.46765(12) 0.9108(3)
H14_2 H 0.7461 0.4416 0.9722
C18_2 C 0.70743(16) 0.53558(13) 0.9356(3)
C19_2 C 0.66824(16) 0.57407(13) 0.8463(3)
H16_2 H 0.6597 0.6197 0.8637
H18_2 H 0.4384 0.0094 0.3057
O8_2 O 0.69829(9) 0.34010(8) 0.65641(18)
O10_2 O 0.85540(8) 0.30523(7) 0.64915(17)
O11_2 O 0.86614(10) 0.21539(9) 0.4215(2)
H21_2 H 0.8630(12) 0.2107(13) 0.3433(17)
H22_2 H 0.8954(13) 0.1862(11) 0.447(3)
C4_2 C 0.85855(17) 0.95453(14) 0.7310(3)
H2_2 H 0.8854 0.9281 0.6708
C6_2 C 0.79257(16) 0.96442(13) 0.9356(3)
C7_2 C 0.83176(16) 0.92593(13) 0.8463(3)
H5_2 H 0.8403 0.8803 0.8637
H7_3 H 0.5616 0.9906 0.6943
C20_3 C 0.43682(14) 0.85472(12) 0.5033(3)
H17_3 H 0.4377 0.8145 0.5516
C21_3 C 0.43802(13) 0.97062(11) 0.3582(3)
C22_3 C 0.47864(13) 0.97010(11) 0.4758(2)
C23_3 C 0.39727(14) 0.91548(12) 0.3170(3)
H19_3 H 0.3705 0.9173 0.2374
C24_3 C 0.47745(14) 0.90990(12) 0.5471(3)
H20_3 H 0.5046 0.9067 0.6260
N2_3 N 0.39598(10) 0.85889(9) 0.39115(19)
O9_3 O 0.35540(8) 0.80523(7) 0.35085(17)
H9_3 H 0.0046 0.4067 0.3740
C20_4 C 0.06318(14) 0.64528(12) 0.5033(3)
H17_4 H 0.0623 0.6855 0.5516
C21_4 C 0.06198(13) 0.52938(11) 0.3582(3)
H18_3 H 0.0616 0.4906 0.3057
C22_4 C 0.02136(13) 0.52990(11) 0.4758(2)
C23_4 C 0.10273(14) 0.58452(12) 0.3170(3)
H19_4 H 0.1295 0.5827 0.2374
C24_4 C 0.02255(14) 0.59010(12) 0.5471(3)
N2_4 N 0.10402(10) 0.64111(9) 0.39115(19)
O9_4 O 0.14460(8) 0.69477(7) 0.35085(17)
C8_4 C 0.93682(14) 0.35472(12) 0.4967(3)
H6_4 H 0.9377 0.3145 0.4484
C9_4 C 0.93802(13) 0.47062(11) 0.6418(3)
H7_4 H 0.9384 0.5094 0.6943
C10_4 C 0.97864(13) 0.47010(11) 0.5242(2)
C11_4 C 0.89727(14) 0.41548(12) 0.6830(3)
H8_4 H 0.8705 0.4173 0.7626
C12_4 C 0.97745(14) 0.40990(12) 0.4529(3)
N1_4 N 0.89598(10) 0.35889(9) 0.60885(19)
H20_4 H 0.9954 0.5933 0.6260
C1_3 C 0.79550(12) 0.36341(11) 0.2720(2)
C2_3 C 0.80712(12) 0.43804(11) 0.2952(2)
C3_3 C 0.84591(14) 0.47759(12) 0.2034(3)
H1_3 H 0.8632 0.4587 0.1242
C4_3 C 0.85855(17) 0.54547(14) 0.2310(3)
H2_3 H 0.8854 0.5719 0.1708
C5_3 C 0.78033(14) 0.46765(12) 0.4108(3)
H3_3 H 0.7539 0.4416 0.4722
C6_3 C 0.79257(16) 0.53558(13) 0.4356(3)
H4_2 H 0.7741 0.5551 0.5132
C7_3 C 0.83176(16) 0.57407(13) 0.3463(3)
H5_3 H 0.8403 0.6197 0.3637
O2_3 O 0.80171(9) 0.34010(8) 0.15641(18)
C13_3 C 0.70450(12) 0.13659(11) 0.2720(2)
C14_3 C 0.69288(12) 0.06196(11) 0.2952(2)
C15_3 C 0.65409(14) 0.02241(12) 0.2034(3)
H12_3 H 0.6368 0.0413 0.1242
C17_3 C 0.71967(14) 0.03235(12) 0.4108(3)
H14_3 H 0.7461 0.0584 0.4722
O8_3 O 0.69829(9) 0.15990(8) 0.15641(18)
O4_3 O 0.63386(10) 0.21539(9) 0.9215(2)
H10_3 H 0.6370(12) 0.2107(13) 0.8433(17)
H11_3 H 0.6046(13) 0.1862(11) 0.947(3)
O11_3 O 0.86614(10) 0.28461(9) 0.9215(2)
H21_3 H 0.8630(12) 0.2893(13) 0.8433(17)
H22_3 H 0.8954(13) 0.3138(11) 0.947(3)
C4_4 C 0.14145(17) 0.04547(14) 0.2690(3)
H2_4 H 0.1146 0.0719 0.3292
C6_4 C 0.20743(16) 0.03558(13) 0.0644(3)
C7_4 C 0.16824(16) 0.07407(13) 0.1537(3)
H5_4 H 0.1597 0.1197 0.1363
C1_4 C 0.20450(12) 0.86341(11) 0.2280(2)
C2_4 C 0.19288(12) 0.93804(11) 0.2048(2)
C3_4 C 0.15409(14) 0.97759(12) 0.2966(3)
H1_4 H 0.1368 0.9587 0.3758
C5_4 C 0.21967(14) 0.96765(12) 0.0892(3)
H3_4 H 0.2461 0.9416 0.0278
O2_4 O 0.19829(9) 0.84010(8) 0.34359(18)
O4_4 O 0.36614(10) 0.71539(9) 0.5785(2)
H10_4 H 0.3630(12) 0.7107(13) 0.6567(17)
H11_4 H 0.3954(13) 0.6862(11) 0.553(3)
C13_4 C 0.29550(12) 0.63659(11) 0.2280(2)
C14_4 C 0.30712(12) 0.56196(11) 0.2048(2)
C15_4 C 0.34591(14) 0.52241(12) 0.2966(3)
H12_4 H 0.3632 0.5413 0.3758
C16_3 C 0.35855(17) 0.45453(14) 0.2690(3)
H13_3 H 0.3854 0.4281 0.3292
C17_4 C 0.28033(14) 0.53235(12) 0.0892(3)
H14_4 H 0.2539 0.5584 0.0278
C18_3 C 0.29257(16) 0.46442(13) 0.0644(3)
C19_3 C 0.33176(16) 0.42593(13) 0.1537(3)
H16_3 H 0.3403 0.3803 0.1363
O8_4 O 0.30171(9) 0.65990(8) 0.34359(18)
O11_4 O 0.13386(10) 0.78461(9) 0.5785(2)
H21_4 H 0.1370(12) 0.7893(13) 0.6567(17)
H22_4 H 0.1046(13) 0.8138(11) 0.553(3)
H15_3 H 0.2741 0.4449 0.9868
H9_4 H 0.9954 0.9067 0.1260
H18_4 H 0.9384 0.9906 0.1943
C16_4 C 0.64145(17) 0.95453(14) 0.2310(3)
H13_4 H 0.6146 0.9281 0.1708
C18_4 C 0.70743(16) 0.96442(13) 0.4356(3)
H15_4 H 0.7259 0.9449 0.5132
C19_4 C 0.66824(16) 0.92593(13) 0.3463(3)
H16_4 H 0.6597 0.8803 0.3637
H4_3 H 0.7741 0.9449 0.0132
H4_4 H 0.2259 0.0551 0.9868
loop_
_geom_bond_atom_site_label_1
_geom_bond_atom_site_label_2
_geom_bond_site_symmetry_1
_geom_bond_site_symmetry_2
H13 C16 1_555 1_555
H15 C18 1_555 1_555
C19 C16 1_555 1_555
H16 C19 1_555 1_555
C18 C19 1_555 1_555
C8 H6 1_555 1_555
C12 C8 1_555 1_555
H9 C12 1_555 1_555
H10 O4 1_555 1_555
H11 O4 1_555 1_555
Tb3 O9 1_555 1_555
C21 H18 1_555 1_555
C23 C21 1_555 1_555
H19 C23 1_555 1_555
O9 N2 1_555 1_555
H21 O11 1_555 1_555
H22 O11 1_555 1_555
C21 C22 1_555 1_555
C23 N2 1_555 1_555
O1 C1 1_555 1_555
Tb1 O2 1_555 1_555
C1 C2 1_555 1_555
C2 C3 1_555 1_555
C3 H1 1_555 1_555
C4 C3 1_555 1_555
H2 C4 1_555 1_555
C5 C2 1_555 1_555
H3 C5 1_555 1_555
C6 C5 1_555 1_555
H4 C6 1_555 1_555
C7 C4 1_555 1_555
H5 C7 1_555 1_555
C9 H7_2 1_555 1_555
C10 C9 1_555 1_555
C11 C9 1_555 1_555
H8 C11 1_555 1_555
O2 C1 1_555 1_555
O3 Tb1 1_555 1_555
O7 Tb2 1_555 1_555
Tb2 O1 1_555 1_555
C13 O7 1_555 1_555
C14 C13 1_555 1_555
C15 C14 1_555 1_555
H12 C15 1_555 1_555
C17 C14 1_555 1_555
H14 C17 1_555 1_555
C20 H17 1_555 1_555
C24 C20 1_555 1_555
H20_2 C24 1_555 1_555
O8 Tb1 1_555 1_555
O10 Tb1 1_555 1_555
C6 C7 1_555 1_555
C11 N1 1_555 1_555
N1 O3 1_555 1_555
C13 O8 1_555 1_555
C8_2 H6_2 1_555 1_555
C12_2 C8_2 1_555 1_555
C10_2 C9_2 1_555 1_555
C11_2 C9_2 1_555 1_555
H8_2 C11_2 1_555 1_555
C11_2 N1_2 1_555 1_555
N1_2 O10 1_555 1_555
Tb3 O9_2 1_555 1_555
C23_2 C21_2 1_555 1_555
H19_2 C23_2 1_555 1_555
O9_2 N2_2 1_555 1_555
C21_2 C22_2 1_555 1_555
C23_2 N2_2 1_555 1_555
C20_2 H17_2 1_555 1_555
C24_2 C20_2 1_555 1_555
O1_2 C1_2 1_555 1_555
Tb1_2 O2_2 1_555 1_555
C1_2 C2_2 1_555 1_555
C2_2 C3_2 1_555 1_555
C3_2 H1_2 1_555 1_555
C5_2 C2_2 1_555 1_555
H3_2 C5_2 1_555 1_555
C8_3 H6_3 1_555 1_555
C10_3 C9_3 1_555 1_555
C11_3 C9_3 1_555 1_555
H8_3 C11_3 1_555 1_555
C12_3 C8_3 1_555 1_555
H9_2 C12_3 1_555 1_555
N1_3 C8_3 1_555 1_555
O2_2 C1_2 1_555 1_555
O3_2 Tb1_2 1_555 1_555
O4_2 Tb1_2 1_555 1_555
H10_2 O4_2 1_555 1_555
H11_2 O4_2 1_555 1_555
O5_2 Tb1_2 1_555 1_555
O6_2 Tb1_2 1_555 1_555
C13_2 O7_2 1_555 1_555
C14_2 C13_2 1_555 1_555
C15_2 C14_2 1_555 1_555
H12_2 C15_2 1_555 1_555
C16_2 C15_2 1_555 1_555
H13_2 C16_2 1_555 1_555
C17_2 C14_2 1_555 1_555
H14_2 C17_2 1_555 1_555
C18_2 C17_2 1_555 1_555
C19_2 C16_2 1_555 1_555
H16_2 C19_2 1_555 1_555
O8_2 Tb1_2 1_555 1_555
O10_2 Tb1_2 1_555 1_555
O11_2 Tb1_2 1_555 1_555
H21_2 O11_2 1_555 1_555
H22_2 O11_2 1_555 1_555
C10_3 C12_3 1_555 1_555
C11_3 N1_3 1_555 1_555
N1_3 O3_2 1_555 1_555
C13_2 O8_2 1_555 1_555
C18_2 C19_2 1_555 1_555
H2_2 C4_2 1_555 1_555
C7_2 C4_2 1_555 1_555
H5_2 C7_2 1_555 1_555
Tb2 O9_3 1_555 1_555
C20_3 H17_3 1_555 1_555
C23_3 C21_3 1_555 1_555
H19_3 C23_3 1_555 1_555
C24_3 C20_3 1_555 1_555
H20_3 C24_3 1_555 1_555
N2_3 C20_3 1_555 1_555
O9_3 N2_3 1_555 1_555
C6_2 C7_2 1_555 1_555
C21_3 C22_3 1_555 1_555
C22_3 C24_3 1_555 1_555
C23_3 N2_3 1_555 1_555
Tb2 O9_4 1_555 1_555
C20_4 H17_4 1_555 1_555
C21_4 H18_3 1_555 1_555
C23_4 C21_4 1_555 1_555
H19_4 C23_4 1_555 1_555
C24_4 C20_4 1_555 1_555
N2_4 C20_4 1_555 1_555
O9_4 N2_4 1_555 1_555
C21_4 C22_4 1_555 1_555
C22_4 C24_4 1_555 1_555
C23_4 N2_4 1_555 1_555
C8_4 H6_4 1_555 1_555
C9_4 H7_4 1_555 1_555
C10_4 C9_4 1_555 1_555
C11_4 C9_4 1_555 1_555
H8_4 C11_4 1_555 1_555
C12_4 C8_4 1_555 1_555
N1_4 C8_4 1_555 1_555
C10_4 C12_4 1_555 1_555
C11_4 N1_4 1_555 1_555
N1_4 O10_2 1_555 1_555
O6_2 C1_3 1_555 1_555
Tb3 O2_3 1_555 1_555
C1_3 C2_3 1_555 1_555
C2_3 C3_3 1_555 1_555
C3_3 H1_3 1_555 1_555
C4_3 C3_3 1_555 1_555
H2_3 C4_3 1_555 1_555
C5_3 C2_3 1_555 1_555
H3_3 C5_3 1_555 1_555
C6_3 C5_3 1_555 1_555
H4_2 C6_3 1_555 1_555
C7_3 C4_3 1_555 1_555
H5_3 C7_3 1_555 1_555
O2_3 C1_3 1_555 1_555
C13_3 O5_2 1_555 1_555
C14_3 C13_3 1_555 1_555
C15_3 C14_3 1_555 1_555
H12_3 C15_3 1_555 1_555
C17_3 C14_3 1_555 1_555
H14_3 C17_3 1_555 1_555
O8_3 Tb3 1_555 1_555
C6_3 C7_3 1_555 1_555
C13_3 O8_3 1_555 1_555
H10_3 O4_3 1_555 1_555
H11_3 O4_3 1_555 1_555
H21_3 O11_3 1_555 1_555
H22_3 O11_3 1_555 1_555
H2_4 C4_4 1_555 1_555
C7_4 C4_4 1_555 1_555
H5_4 C7_4 1_555 1_555
C6_4 C7_4 1_555 1_555
O6 C1_4 1_555 1_555
Tb2 O2_4 1_555 1_555
C1_4 C2_4 1_555 1_555
C2_4 C3_4 1_555 1_555
C3_4 H1_4 1_555 1_555
C5_4 C2_4 1_555 1_555
H3_4 C5_4 1_555 1_555
O2_4 C1_4 1_555 1_555
O4_4 Tb2 1_555 1_555
H10_4 O4_4 1_555 1_555
H11_4 O4_4 1_555 1_555
C13_4 O5 1_555 1_555
C14_4 C13_4 1_555 1_555
C15_4 C14_4 1_555 1_555
H12_4 C15_4 1_555 1_555
C16_3 C15_4 1_555 1_555
H13_3 C16_3 1_555 1_555
C17_4 C14_4 1_555 1_555
H14_4 C17_4 1_555 1_555
C18_3 C17_4 1_555 1_555
C19_3 C16_3 1_555 1_555
H16_3 C19_3 1_555 1_555
O8_4 Tb2 1_555 1_555
O11_4 Tb2 1_555 1_555
H21_4 O11_4 1_555 1_555
H22_4 O11_4 1_555 1_555
C13_4 O8_4 1_555 1_555
C18_3 C19_3 1_555 1_555
H13_4 C16_4 1_555 1_555
H15_4 C18_4 1_555 1_555
C19_4 C16_4 1_555 1_555
H16_4 C19_4 1_555 1_555
C18_4 C19_4 1_555 1_555

#END
