
###############################################################################
#
# This file contains modified crystal structure data generated from the
# MOF subset of the Cambridge Structural Database (CSD) v543 
# hosted by the Cambridge Crystallographic Data Centre (CCDC).
#
# This work is licensed under the Creative Commons
# Attribution-NonCommercial-ShareAlike 4.0 International License.
# To view a copy of this license, visit
# http://creativecommons.org/licenses/by-nc-sa/4.0/
# or send a letter to
# Creative Commons, PO Box 1866, Mountain View, CA 94042, USA.
#
# CIF created using the CSD Python API on 29 September 2022
# The structure has been converted into the P1 space group
# The structure has a 3D framework
# The original CSD entry OTAVAH is in the orthorhombic crystal system
# The framework has been calculated to contain at least 10.0% void space
# The void calculation uses a probe of radius 1.32A, grid spacing 0.4
#
###############################################################################

data_OTAVAH
_chemical_formula_moiety         '(C96 H88 Gd4 N8 O32)n'
_symmetry_cell_setting           triclinic
_symmetry_space_group_name_H-M   'P 1'
_symmetry_Int_Tables_number      1
_space_group_name_Hall           'P 1'
loop_
_symmetry_equiv_pos_site_id
_symmetry_equiv_pos_as_xyz
1 x,y,z
_cell_length_a                   10.040
_cell_length_b                   17.788
_cell_length_c                   19.786
_cell_angle_alpha                90
_cell_angle_beta                 90
_cell_angle_gamma                90
_cell_volume                     3533.61
loop_
_atom_site_label
_atom_site_type_symbol
_atom_site_fract_x
_atom_site_fract_y
_atom_site_fract_z
H16 H 0.0129 0.7251 0.0549
H5 H 0.0129 0.7749 0.4451
Gd2 Gd 0.03047(3) 0.7500 0.7500
O5 O 0.3525(3) 0.1449(2) 0.19425(17)
C14 C 0.4765(6) 0.0214(3) 0.0308(3)
N2 N 0.3930(5) 0.1026(3) 0.1415(2)
C17 C 0.3177(6) 0.1018(4) 0.0835(3)
H13 H 0.2386 0.1290 0.0815
C18 C 0.3579(7) 0.0622(3) 0.0300(3)
Gd3 Gd 0.46953(3) 0.2500 0.2500
C23 C 0.5454(6) 0.0216(3) 0.0901(3)
C24 C 0.5026(6) 0.0626(3) 0.1450(3)
H20 H 0.5517 0.0619 0.1849
C1 C 0.7701(5) 0.7956(3) 0.6369(3)
O1 O 0.6475(3) 0.8551(2) 0.80575(17)
O2 O 0.6550(4) 0.8018(2) 0.65915(17)
C2 C 0.5235(6) 0.9786(3) 0.9692(3)
O3 O 0.8703(4) 0.7802(2) 0.67189(18)
N1 N 0.6070(5) 0.8974(3) 0.8585(2)
C3 C 0.7939(5) 0.8070(3) 0.5618(3)
C4 C 0.7300(7) 0.8583(4) 0.4546(3)
H1 H 0.6698 0.8851 0.4283
C5 C 0.6823(6) 0.8982(4) 0.9165(3)
H2 H 0.7614 0.8710 0.9185
C6 C 0.6421(7) 0.9378(3) 0.9700(3)
C7 C 0.7028(6) 0.8458(3) 0.5223(3)
H4 H 0.6239 0.8634 0.5411
C8 C 0.9349(7) 0.7930(4) 0.4646(3)
C9 C 0.9102(6) 0.7809(3) 0.5331(3)
H6 H 0.9721 0.7552 0.5594
C10 C 0.8447(8) 0.8314(4) 0.4259(3)
H7 H 0.8613 0.8393 0.3802
Gd1 Gd 0.53047(3) 0.7500 0.7500
C11 C 0.4546(6) 0.9784(3) 0.9099(3)
C12 C 0.4974(6) 0.9374(3) 0.8550(3)
H9 H 0.4483 0.9381 0.8151
O4 O 0.4189(5) 0.8664(3) 0.7156(2)
H10 H 0.325(8) 0.868(4) 0.708(4)
H11 H 0.440(5) 0.886(3) 0.690(2)
C13 C 0.7701(5) 0.7044(3) 0.8631(3)
O6 O 0.6475(3) 0.6449(2) 0.69425(17)
O7 O 0.6550(4) 0.6982(2) 0.84085(17)
O8 O 0.8703(4) 0.7198(2) 0.82811(18)
O9 O 0.3703(4) 0.7802(2) 0.82811(18)
O10 O 0.3703(4) 0.7198(2) 0.67189(18)
C15 C 0.7939(5) 0.6930(3) 0.9382(3)
C19 C 0.7028(6) 0.6542(3) 0.9777(3)
H15 H 0.6239 0.6366 0.9589
C21 C 0.9102(6) 0.7191(3) 0.9669(3)
H17 H 0.9721 0.7448 0.9406
O11 O 0.4189(5) 0.6336(3) 0.7844(2)
H21 H 0.325(8) 0.632(4) 0.792(4)
H22 H 0.440(5) 0.614(3) 0.810(2)
C11_2 C 0.0454(6) 0.0216(3) 0.4099(3)
C12_2 C 0.0026(6) 0.0626(3) 0.3550(3)
H9_2 H 0.0517 0.0619 0.3151
O4_2 O 0.0811(5) 0.1336(3) 0.2156(2)
H10_2 H 0.175(8) 0.132(4) 0.208(4)
H11_2 H 0.060(5) 0.114(3) 0.190(2)
O9_2 O 0.1297(4) 0.2198(2) 0.32811(18)
O10_2 O 0.1297(4) 0.2802(2) 0.17189(18)
O11_2 O 0.0811(5) 0.3664(3) 0.2844(2)
H21_2 H 0.175(8) 0.368(4) 0.292(4)
H22_2 H 0.060(5) 0.386(3) 0.310(2)
H8 H 0.1232 0.9934 0.4064
O5_2 O 0.1475(3) 0.8551(2) 0.69425(17)
C14_2 C 0.0235(6) 0.9786(3) 0.5308(3)
N2_2 N 0.1070(5) 0.8974(3) 0.6415(2)
C17_2 C 0.1823(6) 0.8982(4) 0.5835(3)
H13_2 H 0.2614 0.8710 0.5815
C18_2 C 0.1421(7) 0.9378(3) 0.5300(3)
H14 H 0.1945 0.9382 0.4912
C1_2 C 0.7299(5) 0.2044(3) 0.1369(3)
O1_2 O 0.8525(3) 0.1449(2) 0.30575(17)
O2_2 O 0.8450(4) 0.1982(2) 0.15915(17)
C2_2 C 0.9765(6) 0.0214(3) 0.4692(3)
O3_2 O 0.6297(4) 0.2198(2) 0.17189(18)
N1_2 N 0.8930(5) 0.1026(3) 0.3585(2)
C3_2 C 0.7061(5) 0.1930(3) 0.0618(3)
C5_2 C 0.8177(6) 0.1018(4) 0.4165(3)
H2_2 H 0.7386 0.1290 0.4185
C6_2 C 0.8579(7) 0.0622(3) 0.4700(3)
H3 H 0.8055 0.0618 0.5088
C7_2 C 0.7972(6) 0.1542(3) 0.0223(3)
H4_2 H 0.8761 0.1366 0.0411
C9_2 C 0.5898(6) 0.2191(3) 0.0331(3)
H6_2 H 0.5279 0.2448 0.0594
Gd1_2 Gd 0.96953(3) 0.2500 0.2500
C13_2 C 0.7299(5) 0.2956(3) 0.3631(3)
O6_2 O 0.8525(3) 0.3551(2) 0.19425(17)
O7_2 O 0.8450(4) 0.3018(2) 0.34085(17)
O8_2 O 0.6297(4) 0.2802(2) 0.32811(18)
C15_2 C 0.7061(5) 0.3070(3) 0.4382(3)
C16 C 0.7700(7) 0.3583(4) 0.5454(3)
H12 H 0.8302 0.3851 0.5717
C19_2 C 0.7972(6) 0.3458(3) 0.4777(3)
H15_2 H 0.8761 0.3634 0.4589
C20 C 0.5651(7) 0.2930(4) 0.5354(3)
H16_2 H 0.4871 0.2749 0.5549
C21_2 C 0.5898(6) 0.2809(3) 0.4669(3)
H17_2 H 0.5279 0.2552 0.4406
C22 C 0.6553(8) 0.3314(4) 0.5741(3)
H18 H 0.6387 0.3393 0.6198
H19 H 0.8768 0.0066 0.5936
C4_2 C 0.7700(7) 0.1417(4) 0.9546(3)
H1_2 H 0.8302 0.1149 0.9283
C8_2 C 0.5651(7) 0.2070(4) 0.9646(3)
H5_2 H 0.4871 0.2251 0.9451
C10_2 C 0.6553(8) 0.1686(4) 0.9259(3)
H7_2 H 0.6387 0.1607 0.8802
C23_2 C 0.9546(6) 0.9784(3) 0.5901(3)
C24_2 C 0.9974(6) 0.9374(3) 0.6450(3)
H20_2 H 0.9483 0.9381 0.6849
C2_3 C 0.5235(6) 0.5214(3) 0.5308(3)
N1_3 N 0.6070(5) 0.6026(3) 0.6415(2)
C5_3 C 0.6823(6) 0.6018(4) 0.5835(3)
H2_3 H 0.7614 0.6290 0.5815
C6_3 C 0.6421(7) 0.5622(3) 0.5300(3)
H3_2 H 0.6945 0.5618 0.4912
C11_3 C 0.4546(6) 0.5216(3) 0.5901(3)
H8_2 H 0.3768 0.4934 0.5936
C12_3 C 0.4974(6) 0.5626(3) 0.6450(3)
H9_3 H 0.4483 0.5619 0.6849
O5_3 O 0.3525(3) 0.3551(2) 0.30575(17)
C14_3 C 0.4765(6) 0.4786(3) 0.4692(3)
N2_3 N 0.3930(5) 0.3974(3) 0.3585(2)
C17_3 C 0.3177(6) 0.3982(4) 0.4165(3)
H13_3 H 0.2386 0.3710 0.4185
C18_3 C 0.3579(7) 0.4378(3) 0.4700(3)
H14_2 H 0.3055 0.4382 0.5088
C23_3 C 0.5454(6) 0.4784(3) 0.4099(3)
H19_2 H 0.6232 0.5066 0.4064
C24_3 C 0.5026(6) 0.4374(3) 0.3550(3)
H20_3 H 0.5517 0.4381 0.3151
C11_4 C 0.0454(6) 0.4784(3) 0.0901(3)
H8_3 H 0.1232 0.5066 0.0936
C12_4 C 0.0026(6) 0.4374(3) 0.1450(3)
H9_4 H 0.0517 0.4381 0.1849
H14_3 H 0.1945 0.5618 0.0088
O5_4 O 0.1475(3) 0.6449(2) 0.80575(17)
C14_4 C 0.0235(6) 0.5214(3) 0.9692(3)
N2_4 N 0.1070(5) 0.6026(3) 0.8585(2)
C17_4 C 0.1823(6) 0.6018(4) 0.9165(3)
H13_4 H 0.2614 0.6290 0.9185
C18_4 C 0.1421(7) 0.5622(3) 0.9700(3)
C2_4 C 0.9765(6) 0.4786(3) 0.0308(3)
N1_4 N 0.8930(5) 0.3974(3) 0.1415(2)
C5_4 C 0.8177(6) 0.3982(4) 0.0835(3)
H2_4 H 0.7386 0.3710 0.0815
C6_4 C 0.8579(7) 0.4378(3) 0.0300(3)
H3_3 H 0.8055 0.4382 0.9912
C23_4 C 0.9546(6) 0.5216(3) 0.9099(3)
H19_3 H 0.8768 0.4934 0.9064
C24_4 C 0.9974(6) 0.5626(3) 0.8550(3)
H20_4 H 0.9483 0.5619 0.8151
C1_3 C 0.2299(5) 0.2044(3) 0.3631(3)
O2_3 O 0.3450(4) 0.1982(2) 0.34085(17)
C3_3 C 0.2061(5) 0.1930(3) 0.4382(3)
C4_3 C 0.2700(7) 0.1417(4) 0.5454(3)
H1_3 H 0.3302 0.1149 0.5717
C7_3 C 0.2972(6) 0.1542(3) 0.4777(3)
H4_3 H 0.3761 0.1366 0.4589
C8_3 C 0.0651(7) 0.2070(4) 0.5354(3)
C9_3 C 0.0898(6) 0.2191(3) 0.4669(3)
H6_3 H 0.0279 0.2448 0.4406
C10_3 C 0.1553(8) 0.1686(4) 0.5741(3)
H7_3 H 0.1387 0.1607 0.6198
O4_3 O 0.5811(5) 0.1336(3) 0.2844(2)
H10_3 H 0.675(8) 0.132(4) 0.292(4)
H11_3 H 0.560(5) 0.114(3) 0.310(2)
C13_3 C 0.2299(5) 0.2956(3) 0.1369(3)
O7_3 O 0.3450(4) 0.3018(2) 0.15915(17)
C15_3 C 0.2061(5) 0.3070(3) 0.0618(3)
C19_3 C 0.2972(6) 0.3458(3) 0.0223(3)
H15_3 H 0.3761 0.3634 0.0411
C21_3 C 0.0898(6) 0.2809(3) 0.0331(3)
H17_3 H 0.0279 0.2552 0.0594
O11_3 O 0.5811(5) 0.3664(3) 0.2156(2)
H21_3 H 0.675(8) 0.368(4) 0.208(4)
H22_3 H 0.560(5) 0.386(3) 0.190(2)
H5_3 H 0.9871 0.2251 0.5549
C4_4 C 0.2300(7) 0.8583(4) 0.0454(3)
H1_4 H 0.1698 0.8851 0.0717
C8_4 C 0.4349(7) 0.7930(4) 0.0354(3)
H5_4 H 0.5129 0.7749 0.0549
C10_4 C 0.3447(8) 0.8314(4) 0.0741(3)
H7_4 H 0.3613 0.8393 0.1198
C1_4 C 0.2701(5) 0.7956(3) 0.8631(3)
O2_4 O 0.1550(4) 0.8018(2) 0.84085(17)
C3_4 C 0.2939(5) 0.8070(3) 0.9382(3)
C7_4 C 0.2028(6) 0.8458(3) 0.9777(3)
H4_4 H 0.1239 0.8634 0.9589
C9_4 C 0.4102(6) 0.7809(3) 0.9669(3)
H6_4 H 0.4721 0.7552 0.9406
C13_4 C 0.2701(5) 0.7044(3) 0.6369(3)
O7_4 O 0.1550(4) 0.6982(2) 0.65915(17)
C15_4 C 0.2939(5) 0.6930(3) 0.5618(3)
C16_2 C 0.2300(7) 0.6417(4) 0.4546(3)
H12_2 H 0.1698 0.6149 0.4283
C19_4 C 0.2028(6) 0.6542(3) 0.5223(3)
H15_4 H 0.1239 0.6366 0.5411
C20_2 C 0.4349(7) 0.7070(4) 0.4646(3)
H16_3 H 0.5129 0.7251 0.4451
C21_4 C 0.4102(6) 0.7191(3) 0.5331(3)
H17_4 H 0.4721 0.7448 0.5594
C22_2 C 0.3447(8) 0.6686(4) 0.4259(3)
H18_2 H 0.3613 0.6607 0.3802
O4_4 O 0.9189(5) 0.8664(3) 0.7844(2)
H10_4 H 0.825(8) 0.868(4) 0.792(4)
H11_4 H 0.940(5) 0.886(3) 0.810(2)
O11_4 O 0.9189(5) 0.6336(3) 0.7156(2)
H21_4 H 0.825(8) 0.632(4) 0.708(4)
H22_4 H 0.940(5) 0.614(3) 0.690(2)
H8_4 H 0.3768 0.0066 0.9064
H14_4 H 0.3055 0.0618 0.9912
C16_3 C 0.2700(7) 0.3583(4) 0.9546(3)
H12_3 H 0.3302 0.3851 0.9283
C20_3 C 0.0651(7) 0.2930(4) 0.9646(3)
C22_3 C 0.1553(8) 0.3314(4) 0.9259(3)
H18_3 H 0.1387 0.3393 0.8802
H3_4 H 0.6945 0.9382 0.0088
C16_4 C 0.7300(7) 0.6417(4) 0.0454(3)
H12_4 H 0.6698 0.6149 0.0717
C20_4 C 0.9349(7) 0.7070(4) 0.0354(3)
C22_4 C 0.8447(8) 0.6686(4) 0.0741(3)
H18_4 H 0.8613 0.6607 0.1198
H19_4 H 0.6232 0.9934 0.0936
H16_4 H 0.9871 0.2749 0.9451
loop_
_geom_bond_atom_site_label_1
_geom_bond_atom_site_label_2
_geom_bond_site_symmetry_1
_geom_bond_site_symmetry_2
O5 N2 1_555 1_555
N2 C17 1_555 1_555
C17 H13 1_555 1_555
C18 C14 1_555 1_555
Gd3 O5 1_555 1_555
C23 C14 1_555 1_555
C24 N2 1_555 1_555
H20 C24 1_555 1_555
C17 C18 1_555 1_555
C23 C24 1_555 1_555
C1 O2 1_555 1_555
O1 N1 1_555 1_555
O2 Gd1 1_555 1_555
C2 C6 1_555 1_555
O3 C1 1_555 1_555
N1 C5 1_555 1_555
C3 C1 1_555 1_555
C4 H1 1_555 1_555
C5 H2 1_555 1_555
C6 C5 1_555 1_555
C7 C3 1_555 1_555
H4 C7 1_555 1_555
C9 C3 1_555 1_555
H6 C9 1_555 1_555
C10 C4 1_555 1_555
H7 C10 1_555 1_555
Gd1 O1 1_555 1_555
C11 C2 1_555 1_555
C12 N1 1_555 1_555
H9 C12 1_555 1_555
O4 Gd1 1_555 1_555
H10 O4 1_555 1_555
H11 O4 1_555 1_555
C13 O7 1_555 1_555
O6 Gd1 1_555 1_555
O7 Gd1 1_555 1_555
O8 C13 1_555 1_555
O9 Gd1 1_555 1_555
O10 Gd1 1_555 1_555
C15 C13 1_555 1_555
C19 C15 1_555 1_555
H15 C19 1_555 1_555
C21 C15 1_555 1_555
H17 C21 1_555 1_555
O11 Gd1 1_555 1_555
H21 O11 1_555 1_555
H22 O11 1_555 1_555
C4 C7 1_555 1_555
C8 C9 1_555 1_555
C8 C10 1_555 1_555
C11 C12 1_555 1_555
H9_2 C12_2 1_555 1_555
H10_2 O4_2 1_555 1_555
H11_2 O4_2 1_555 1_555
H21_2 O11_2 1_555 1_555
H22_2 O11_2 1_555 1_555
C11_2 C12_2 1_555 1_555
O5_2 N2_2 1_555 1_555
N2_2 C17_2 1_555 1_555
C17_2 H13_2 1_555 1_555
C18_2 C14_2 1_555 1_555
H14 C18_2 1_555 1_555
Gd2 O5_2 1_555 1_555
C17_2 C18_2 1_555 1_555
C1_2 O2_2 1_555 1_555
O1_2 N1_2 1_555 1_555
O2_2 Gd1_2 1_555 1_555
C2_2 C6_2 1_555 1_555
O3_2 C1_2 1_555 1_555
N1_2 C5_2 1_555 1_555
C3_2 C1_2 1_555 1_555
C5_2 H2_2 1_555 1_555
C6_2 C5_2 1_555 1_555
H3 C6_2 1_555 1_555
C7_2 C3_2 1_555 1_555
H4_2 C7_2 1_555 1_555
C9_2 C3_2 1_555 1_555
H6_2 C9_2 1_555 1_555
Gd1_2 O1_2 1_555 1_555
C13_2 O7_2 1_555 1_555
O6_2 Gd1_2 1_555 1_555
O7_2 Gd1_2 1_555 1_555
O8_2 C13_2 1_555 1_555
C15_2 C13_2 1_555 1_555
C16 H12 1_555 1_555
C19_2 C15_2 1_555 1_555
H15_2 C19_2 1_555 1_555
C20 H16_2 1_555 1_555
C21_2 C15_2 1_555 1_555
H17_2 C21_2 1_555 1_555
C22 C16 1_555 1_555
H18 C22 1_555 1_555
Gd3 O3_2 1_555 1_555
O8_2 Gd3 1_555 1_555
C16 C19_2 1_555 1_555
C20 C21_2 1_555 1_555
C20 C22 1_555 1_555
C4_2 H1_2 1_555 1_555
C8_2 H5_2 1_555 1_555
C10_2 C4_2 1_555 1_555
H7_2 C10_2 1_555 1_555
C8_2 C10_2 1_555 1_555
H20_2 C24_2 1_555 1_555
C23_2 C24_2 1_555 1_555
O6 N1_3 1_555 1_555
C2_3 C6_3 1_555 1_555
N1_3 C5_3 1_555 1_555
C5_3 H2_3 1_555 1_555
C6_3 C5_3 1_555 1_555
H3_2 C6_3 1_555 1_555
C11_3 C2_3 1_555 1_555
H8_2 C11_3 1_555 1_555
C12_3 N1_3 1_555 1_555
H9_3 C12_3 1_555 1_555
O5_3 N2_3 1_555 1_555
C14_3 C2_3 1_555 1_555
N2_3 C17_3 1_555 1_555
C17_3 H13_3 1_555 1_555
C18_3 C14_3 1_555 1_555
H14_2 C18_3 1_555 1_555
Gd3 O5_3 1_555 1_555
C23_3 C14_3 1_555 1_555
H19_2 C23_3 1_555 1_555
C24_3 N2_3 1_555 1_555
H20_3 C24_3 1_555 1_555
C11_3 C12_3 1_555 1_555
C17_3 C18_3 1_555 1_555
C23_3 C24_3 1_555 1_555
H8_3 C11_4 1_555 1_555
H9_4 C12_4 1_555 1_555
C11_4 C12_4 1_555 1_555
O5_4 N2_4 1_555 1_555
N2_4 C17_4 1_555 1_555
C17_4 H13_4 1_555 1_555
C18_4 C14_4 1_555 1_555
Gd2 O5_4 1_555 1_555
C17_4 C18_4 1_555 1_555
O6_2 N1_4 1_555 1_555
C2_4 C6_4 1_555 1_555
N1_4 C5_4 1_555 1_555
C5_4 H2_4 1_555 1_555
C6_4 C5_4 1_555 1_555
H19_3 C23_4 1_555 1_555
H20_4 C24_4 1_555 1_555
C23_4 C24_4 1_555 1_555
C1_3 O2_3 1_555 1_555
O2_3 Gd3 1_555 1_555
O9_2 C1_3 1_555 1_555
C3_3 C1_3 1_555 1_555
C4_3 H1_3 1_555 1_555
C7_3 C3_3 1_555 1_555
H4_3 C7_3 1_555 1_555
C9_3 C3_3 1_555 1_555
H6_3 C9_3 1_555 1_555
C10_3 C4_3 1_555 1_555
H7_3 C10_3 1_555 1_555
O4_3 Gd3 1_555 1_555
H10_3 O4_3 1_555 1_555
H11_3 O4_3 1_555 1_555
C13_3 O7_3 1_555 1_555
O7_3 Gd3 1_555 1_555
O10_2 C13_3 1_555 1_555
C15_3 C13_3 1_555 1_555
C19_3 C15_3 1_555 1_555
H15_3 C19_3 1_555 1_555
C21_3 C15_3 1_555 1_555
H17_3 C21_3 1_555 1_555
O11_3 Gd3 1_555 1_555
H21_3 O11_3 1_555 1_555
H22_3 O11_3 1_555 1_555
C4_3 C7_3 1_555 1_555
C8_3 C9_3 1_555 1_555
C8_3 C10_3 1_555 1_555
C4_4 H1_4 1_555 1_555
C8_4 H5_4 1_555 1_555
C10_4 C4_4 1_555 1_555
H7_4 C10_4 1_555 1_555
C8_4 C10_4 1_555 1_555
C1_4 O2_4 1_555 1_555
O2_4 Gd2 1_555 1_555
O9 C1_4 1_555 1_555
C3_4 C1_4 1_555 1_555
C7_4 C3_4 1_555 1_555
H4_4 C7_4 1_555 1_555
C9_4 C3_4 1_555 1_555
H6_4 C9_4 1_555 1_555
C13_4 O7_4 1_555 1_555
O7_4 Gd2 1_555 1_555
O10 C13_4 1_555 1_555
C15_4 C13_4 1_555 1_555
C16_2 H12_2 1_555 1_555
C19_4 C15_4 1_555 1_555
H15_4 C19_4 1_555 1_555
C20_2 H16_3 1_555 1_555
C21_4 C15_4 1_555 1_555
H17_4 C21_4 1_555 1_555
C22_2 C16_2 1_555 1_555
H18_2 C22_2 1_555 1_555
C16_2 C19_4 1_555 1_555
C20_2 C21_4 1_555 1_555
C20_2 C22_2 1_555 1_555
H10_4 O4_4 1_555 1_555
H11_4 O4_4 1_555 1_555
H21_4 O11_4 1_555 1_555
H22_4 O11_4 1_555 1_555
C16_3 H12_3 1_555 1_555
C22_3 C16_3 1_555 1_555
H18_3 C22_3 1_555 1_555
C20_3 C22_3 1_555 1_555
C16_4 H12_4 1_555 1_555
C22_4 C16_4 1_555 1_555
H18_4 C22_4 1_555 1_555
C20_4 C22_4 1_555 1_555

#END
