
###############################################################################
#
# This file contains modified crystal structure data generated from the
# MOF subset of the Cambridge Structural Database (CSD) v543 
# hosted by the Cambridge Crystallographic Data Centre (CCDC).
#
# This work is licensed under the Creative Commons
# Attribution-NonCommercial-ShareAlike 4.0 International License.
# To view a copy of this license, visit
# http://creativecommons.org/licenses/by-nc-sa/4.0/
# or send a letter to
# Creative Commons, PO Box 1866, Mountain View, CA 94042, USA.
#
# CIF created using the CSD Python API on 29 September 2022
# The structure has been converted into the P1 space group
# The structure has a 3D framework
# The original CSD entry OTAWIR is in the monoclinic crystal system
# The framework has been calculated to contain at least 10.0% void space
# The void calculation uses a probe of radius 1.32A, grid spacing 0.4
#
###############################################################################

data_OTAWIR
_chemical_formula_moiety         '(C192 H128 N16 O40 Zn8)n'
_symmetry_cell_setting           triclinic
_symmetry_space_group_name_H-M   'P 1'
_symmetry_Int_Tables_number      1
_space_group_name_Hall           'P 1'
loop_
_symmetry_equiv_pos_site_id
_symmetry_equiv_pos_as_xyz
1 x,y,z
_cell_length_a                   28.6626(14)
_cell_length_b                   10.6905(7)
_cell_length_c                   28.2321(15)
_cell_angle_alpha                90
_cell_angle_beta                 111.522(6)
_cell_angle_gamma                90
_cell_volume                     8047.65
loop_
_atom_site_label
_atom_site_type_symbol
_atom_site_fract_x
_atom_site_fract_y
_atom_site_fract_z
Zn1 Zn 0.10915(2) 0.22393(6) 0.48011(2)
O1 O 0.15929(12) 0.2122(3) 0.55316(11)
N1 N 0.27907(11) 0.3738(4) 0.80858(11)
N2 N 0.14711(12) 0.6647(4) 0.94628(11)
C1 C 0.19971(12) 0.5396(4) 0.89500(13)
C2 C 0.22714(11) 0.4800(4) 0.86550(12)
C3 C 0.30255(12) 0.3977(4) 0.85838(13)
O2 O 0.10797(13) 0.3715(4) 0.54225(11)
C4 C 0.23025(13) 0.4037(4) 0.78658(13)
C5 C 0.27821(12) 0.4498(4) 0.88801(12)
H1 H 0.2956 0.4645 0.9225
C6 C 0.35681(12) 0.3681(4) 0.87985(13)
C7 C 0.20703(14) 0.3771(5) 0.73111(13)
O3 O 0.54234(11) 0.3489(5) 0.97732(17)
C8 C 0.20321(12) 0.4543(5) 0.81363(13)
H2 H 0.1692 0.4711 0.7974
C9 C 0.14293(14) 0.3019(5) 0.57033(15)
C10 C 0.16487(14) 0.3291(5) 0.62664(14)
C11 C 0.44062(14) 0.4066(5) 0.94103(17)
H3 H 0.4620 0.4496 0.9693
C12 C 0.38926(13) 0.4331(5) 0.92172(15)
H4 H 0.3767 0.4947 0.9370
C13 C 0.45948(14) 0.3168(5) 0.91812(17)
O4 O 0.53319(15) 0.2167(6) 0.9172(2)
C14 C 0.37605(17) 0.2763(5) 0.85731(19)
H5 H 0.3548 0.2320 0.8294
C15 C 0.20576(19) 0.2612(5) 0.65752(16)
H6 H 0.2192 0.1989 0.6434
C16 C 0.16541(18) 0.4436(6) 0.70025(15)
H7 H 0.1509 0.5036 0.7144
C17 C 0.14520(16) 0.4204(6) 0.64778(15)
H8 H 0.1181 0.4675 0.6271
C18 C 0.22687(17) 0.2849(5) 0.70924(17)
H9 H 0.2545 0.2388 0.7295
C19 C 0.42688(19) 0.2509(6) 0.8766(2)
H10 H 0.4395 0.1887 0.8615
C20 C 0.51501(17) 0.2910(6) 0.9382(2)
O5 O 0.1310(2) 0.0601(6) 0.4557(2)
H11 H 0.1487 0.0032 0.4751
H12 H 0.1238 0.0389 0.4248
C21 C 0.22217(15) 0.5965(9) 0.9388(2)
H13 H 0.2570 0.5997 0.9529
C22 C 0.19347(18) 0.6527(9) 0.9642(2)
H14 H 0.2105 0.6831 0.9969
C23 C 0.12359(17) 0.5892(9) 0.9066(3)
H15 H 0.0889 0.5820 0.8959
C24 C 0.14758(19) 0.5222(9) 0.8809(3)
H16 H 0.1301 0.4670 0.8550
Zn2 Zn 0.10915(2) 0.77607(6) 0.98011(2)
Zn3 Zn 0.60915(2) 0.27607(6) 0.98011(2)
N3 N 0.14711(12) 0.3353(4) 0.44628(11)
O6 O 0.04234(11) 0.1511(5) 0.47732(17)
O7 O 0.03319(15) 0.2833(6) 0.4172(2)
O3_2 O 0.04234(11) 0.8489(5) 0.97732(17)
O4_2 O 0.03319(15) 0.7167(6) 0.9172(2)
C20_2 C 0.01501(17) 0.7910(6) 0.9382(2)
N2_2 N 0.64711(12) 0.1647(4) 0.94628(11)
C1_2 C 0.69971(12) 0.0396(4) 0.89500(13)
H7_2 H 0.6509 0.0036 0.7144
C21_2 C 0.72217(15) 0.0965(9) 0.9388(2)
H13_2 H 0.7570 0.0997 0.9529
C22_2 C 0.69347(18) 0.1527(9) 0.9642(2)
H14_2 H 0.7105 0.1831 0.9969
C23_2 C 0.62359(17) 0.0892(9) 0.9066(3)
H15_2 H 0.5889 0.0820 0.8959
C24_2 C 0.64758(19) 0.0222(9) 0.8809(3)
Zn1_2 Zn 0.60915(2) 0.72393(6) 0.48011(2)
O1_2 O 0.65929(12) 0.7122(3) 0.55316(11)
N1_2 N 0.77907(11) 0.8738(4) 0.80858(11)
C2_2 C 0.72714(11) 0.9800(4) 0.86550(12)
C3_2 C 0.80255(12) 0.8977(4) 0.85838(13)
O2_2 O 0.60797(13) 0.8715(4) 0.54225(11)
C4_2 C 0.73025(13) 0.9037(4) 0.78658(13)
C5_2 C 0.77821(12) 0.9498(4) 0.88801(12)
H1_2 H 0.7956 0.9645 0.9225
C6_2 C 0.85681(12) 0.8681(4) 0.87985(13)
C7_2 C 0.70703(14) 0.8771(5) 0.73111(13)
C8_2 C 0.70321(12) 0.9543(5) 0.81363(13)
H2_2 H 0.6692 0.9711 0.7974
C9_2 C 0.64293(14) 0.8019(5) 0.57033(15)
C10_2 C 0.66487(14) 0.8291(5) 0.62664(14)
C11_2 C 0.94062(14) 0.9066(5) 0.94103(17)
H3_2 H 0.9620 0.9496 0.9693
C12_2 C 0.88926(13) 0.9331(5) 0.92172(15)
H4_2 H 0.8767 0.9947 0.9370
C13_2 C 0.95948(14) 0.8168(5) 0.91812(17)
C14_2 C 0.87605(17) 0.7763(5) 0.85731(19)
H5_2 H 0.8548 0.7320 0.8294
C15_2 C 0.70576(19) 0.7612(5) 0.65752(16)
H6_2 H 0.7192 0.6989 0.6434
C16_2 C 0.66541(18) 0.9436(6) 0.70025(15)
C17_2 C 0.64520(16) 0.9204(6) 0.64778(15)
H8_2 H 0.6181 0.9675 0.6271
C18_2 C 0.72687(17) 0.7849(5) 0.70924(17)
H9_2 H 0.7545 0.7388 0.7295
C19_2 C 0.92688(19) 0.7509(6) 0.8766(2)
H10_2 H 0.9395 0.6887 0.8615
O5_2 O 0.6310(2) 0.5601(6) 0.4557(2)
H11_2 H 0.6487 0.5032 0.4751
H12_2 H 0.6238 0.5389 0.4248
H16_2 H 0.6301 0.9670 0.8550
N3_2 N 0.64711(12) 0.8353(4) 0.44628(11)
O6_2 O 0.54234(11) 0.6511(5) 0.47732(17)
O7_2 O 0.53319(15) 0.7833(6) 0.4172(2)
O1_3 O 0.15929(12) 0.7878(3) 0.05316(11)
N1_3 N 0.27907(11) 0.6262(4) 0.30858(11)
C1_3 C 0.19971(12) 0.4604(4) 0.39500(13)
C2_3 C 0.22714(11) 0.5200(4) 0.36550(12)
C3_3 C 0.30255(12) 0.6023(4) 0.35838(13)
O2_3 O 0.10797(13) 0.6285(4) 0.04225(11)
C4_3 C 0.23025(13) 0.5963(4) 0.28658(13)
C5_3 C 0.27821(12) 0.5502(4) 0.38801(12)
H1_3 H 0.2956 0.5355 0.4225
C6_3 C 0.35681(12) 0.6319(4) 0.37985(13)
C7_3 C 0.20703(14) 0.6229(5) 0.23111(13)
C8_3 C 0.20321(12) 0.5457(5) 0.31363(13)
H2_3 H 0.1692 0.5289 0.2974
C9_3 C 0.14293(14) 0.6981(5) 0.07033(15)
C10_3 C 0.16487(14) 0.6709(5) 0.12664(14)
C11_3 C 0.44062(14) 0.5934(5) 0.44103(17)
H3_3 H 0.4620 0.5504 0.4693
C12_3 C 0.38926(13) 0.5669(5) 0.42172(15)
H4_3 H 0.3767 0.5053 0.4370
C13_3 C 0.45948(14) 0.6832(5) 0.41812(17)
C14_3 C 0.37605(17) 0.7237(5) 0.35731(19)
H5_3 H 0.3548 0.7680 0.3294
C15_3 C 0.20576(19) 0.7388(5) 0.15752(16)
H6_3 H 0.2192 0.8011 0.1434
C16_3 C 0.16541(18) 0.5564(6) 0.20025(15)
H7_3 H 0.1509 0.4964 0.2144
C17_3 C 0.14520(16) 0.5796(6) 0.14778(15)
H8_3 H 0.1181 0.5325 0.1271
C18_3 C 0.22687(17) 0.7151(5) 0.20924(17)
H9_3 H 0.2545 0.7612 0.2295
C19_3 C 0.42688(19) 0.7491(6) 0.3766(2)
H10_3 H 0.4395 0.8113 0.3615
C20_3 C 0.51501(17) 0.7090(6) 0.4382(2)
C21_3 C 0.22217(15) 0.4035(9) 0.4388(2)
H13_3 H 0.2570 0.4003 0.4529
C22_3 C 0.19347(18) 0.3473(9) 0.4642(2)
H14_3 H 0.2105 0.3169 0.4969
C23_3 C 0.12359(17) 0.4108(9) 0.4066(3)
H15_3 H 0.0889 0.4180 0.3959
C24_3 C 0.14758(19) 0.4778(9) 0.3809(3)
H16_3 H 0.1301 0.5330 0.3550
O5_3 O 0.1310(2) 0.9399(6) 0.9557(2)
H11_3 H 0.1487 0.9968 0.9751
H12_3 H 0.1238 0.9611 0.9248
C20_4 C 0.01501(17) 0.2090(6) 0.4382(2)
O5_4 O 0.6310(2) 0.4399(6) 0.9557(2)
H11_4 H 0.6487 0.4968 0.9751
H12_4 H 0.6238 0.4611 0.9248
C1_4 C 0.69971(12) 0.9604(4) 0.39500(13)
H7_4 H 0.6509 0.9964 0.2144
C21_4 C 0.72217(15) 0.9035(9) 0.4388(2)
H13_4 H 0.7570 0.9003 0.4529
C22_4 C 0.69347(18) 0.8473(9) 0.4642(2)
H14_4 H 0.7105 0.8169 0.4969
C23_4 C 0.62359(17) 0.9108(9) 0.4066(3)
H15_4 H 0.5889 0.9180 0.3959
C24_4 C 0.64758(19) 0.9778(9) 0.3809(3)
Zn1_3 Zn 0.89085(2) 0.22393(6) 0.01989(2)
O5_5 O 0.8690(2) 0.0601(6) 0.0443(2)
H11_5 H 0.8513 0.0032 0.0249
H12_5 H 0.8762 0.0389 0.0752
N3_3 N 0.85289(12) 0.3353(4) 0.05372(11)
O6_3 O 0.95766(11) 0.1511(5) 0.02268(17)
O7_3 O 0.96681(15) 0.2833(6) 0.0828(2)
O1_4 O 0.84071(12) 0.2122(3) 0.94684(11)
N1_4 N 0.72093(11) 0.3738(4) 0.69142(11)
N2_3 N 0.85289(12) 0.6647(4) 0.55372(11)
C1_5 C 0.80029(12) 0.5396(4) 0.60500(13)
C2_4 C 0.77286(11) 0.4800(4) 0.63450(12)
C3_4 C 0.69745(12) 0.3977(4) 0.64162(13)
O2_4 O 0.89203(13) 0.3715(4) 0.95775(11)
C4_4 C 0.76975(13) 0.4037(4) 0.71342(13)
C5_4 C 0.72179(12) 0.4498(4) 0.61199(12)
H1_4 H 0.7044 0.4645 0.5775
C6_4 C 0.64319(12) 0.3681(4) 0.62015(13)
C7_4 C 0.79297(14) 0.3771(5) 0.76889(13)
O3_3 O 0.45766(11) 0.3489(5) 0.52268(17)
C8_4 C 0.79679(12) 0.4543(5) 0.68637(13)
H2_4 H 0.8308 0.4711 0.7026
C9_4 C 0.85707(14) 0.3019(5) 0.92967(15)
C10_4 C 0.83513(14) 0.3291(5) 0.87336(14)
C11_4 C 0.55938(14) 0.4066(5) 0.55897(17)
H3_4 H 0.5380 0.4496 0.5307
C12_4 C 0.61074(13) 0.4331(5) 0.57828(15)
H4_4 H 0.6233 0.4947 0.5630
C13_4 C 0.54052(14) 0.3168(5) 0.58188(17)
O4_3 O 0.46681(15) 0.2167(6) 0.5828(2)
C14_4 C 0.62395(17) 0.2763(5) 0.64269(19)
H5_4 H 0.6452 0.2320 0.6706
C15_4 C 0.79424(19) 0.2612(5) 0.84248(16)
H6_4 H 0.7808 0.1989 0.8566
C16_4 C 0.83459(18) 0.4436(6) 0.79975(15)
H7_5 H 0.8491 0.5036 0.7856
C17_4 C 0.85480(16) 0.4204(6) 0.85222(15)
H8_4 H 0.8819 0.4675 0.8729
C18_4 C 0.77313(17) 0.2849(5) 0.79076(17)
H9_4 H 0.7455 0.2388 0.7705
C19_4 C 0.57312(19) 0.2509(6) 0.6234(2)
H10_4 H 0.5605 0.1887 0.6385
C20_5 C 0.48499(17) 0.2910(6) 0.5618(2)
C21_5 C 0.77783(15) 0.5965(9) 0.5612(2)
H13_5 H 0.7430 0.5997 0.5471
C22_5 C 0.80653(18) 0.6527(9) 0.5358(2)
H14_5 H 0.7895 0.6831 0.5031
C23_5 C 0.87641(17) 0.5892(9) 0.5934(3)
H15_5 H 0.9111 0.5820 0.6041
C24_5 C 0.85242(19) 0.5222(9) 0.6191(3)
H16_4 H 0.8699 0.4670 0.6450
Zn2_2 Zn 0.89085(2) 0.77607(6) 0.51989(2)
Zn3_2 Zn 0.39085(2) 0.27607(6) 0.51989(2)
N2_4 N 0.35289(12) 0.1647(4) 0.55372(11)
C1_6 C 0.30029(12) 0.0396(4) 0.60500(13)
H7_6 H 0.3491 0.0036 0.7856
C21_6 C 0.27783(15) 0.0965(9) 0.5612(2)
H13_6 H 0.2430 0.0997 0.5471
C22_6 C 0.30653(18) 0.1527(9) 0.5358(2)
H14_6 H 0.2895 0.1831 0.5031
C23_6 C 0.37641(17) 0.0892(9) 0.5934(3)
H15_6 H 0.4111 0.0820 0.6041
C24_6 C 0.35242(19) 0.0222(9) 0.6191(3)
Zn1_4 Zn 0.39085(2) 0.72393(6) 0.01989(2)
O5_6 O 0.3690(2) 0.5601(6) 0.0443(2)
H11_6 H 0.3513 0.5032 0.0249
H12_6 H 0.3762 0.5389 0.0752
N3_4 N 0.35289(12) 0.8353(4) 0.05372(11)
O6_4 O 0.45766(11) 0.6511(5) 0.02268(17)
O7_4 O 0.46681(15) 0.7833(6) 0.0828(2)
O3_4 O 0.95766(11) 0.8489(5) 0.52268(17)
O4_4 O 0.96681(15) 0.7167(6) 0.5828(2)
C20_6 C 0.98499(17) 0.7910(6) 0.5618(2)
O1_5 O 0.84071(12) 0.7878(3) 0.44684(11)
N1_5 N 0.72093(11) 0.6262(4) 0.19142(11)
C1_7 C 0.80029(12) 0.4604(4) 0.10500(13)
C2_5 C 0.77286(11) 0.5200(4) 0.13450(12)
C3_5 C 0.69745(12) 0.6023(4) 0.14162(13)
O2_5 O 0.89203(13) 0.6285(4) 0.45775(11)
C4_5 C 0.76975(13) 0.5963(4) 0.21342(13)
C5_5 C 0.72179(12) 0.5502(4) 0.11199(12)
H1_5 H 0.7044 0.5355 0.0775
C6_5 C 0.64319(12) 0.6319(4) 0.12015(13)
C7_5 C 0.79297(14) 0.6229(5) 0.26889(13)
C8_5 C 0.79679(12) 0.5457(5) 0.18637(13)
H2_5 H 0.8308 0.5289 0.2026
C9_5 C 0.85707(14) 0.6981(5) 0.42967(15)
C10_5 C 0.83513(14) 0.6709(5) 0.37336(14)
C11_5 C 0.55938(14) 0.5934(5) 0.05897(17)
H3_5 H 0.5380 0.5504 0.0307
C12_5 C 0.61074(13) 0.5669(5) 0.07828(15)
H4_5 H 0.6233 0.5053 0.0630
C13_5 C 0.54052(14) 0.6832(5) 0.08188(17)
C14_5 C 0.62395(17) 0.7237(5) 0.14269(19)
H5_5 H 0.6452 0.7680 0.1706
C15_5 C 0.79424(19) 0.7388(5) 0.34248(16)
H6_5 H 0.7808 0.8011 0.3566
C16_5 C 0.83459(18) 0.5564(6) 0.29975(15)
H7_7 H 0.8491 0.4964 0.2856
C17_5 C 0.85480(16) 0.5796(6) 0.35222(15)
H8_5 H 0.8819 0.5325 0.3729
C18_5 C 0.77313(17) 0.7151(5) 0.29076(17)
H9_5 H 0.7455 0.7612 0.2705
C19_5 C 0.57312(19) 0.7491(6) 0.1234(2)
H10_5 H 0.5605 0.8113 0.1385
C20_7 C 0.48499(17) 0.7090(6) 0.0618(2)
O5_7 O 0.8690(2) 0.9399(6) 0.5443(2)
H11_7 H 0.8513 0.9968 0.5249
H12_7 H 0.8762 0.9611 0.5752
C21_7 C 0.77783(15) 0.4035(9) 0.0612(2)
H13_7 H 0.7430 0.4003 0.0471
C22_7 C 0.80653(18) 0.3473(9) 0.0358(2)
H14_7 H 0.7895 0.3169 0.0031
C23_7 C 0.87641(17) 0.4108(9) 0.0934(3)
H15_7 H 0.9111 0.4180 0.1041
C24_7 C 0.85242(19) 0.4778(9) 0.1191(3)
H16_5 H 0.8699 0.5330 0.1450
O1_6 O 0.34071(12) 0.2878(3) 0.44684(11)
N1_6 N 0.22093(11) 0.1262(4) 0.19142(11)
C2_6 C 0.27286(11) 0.0200(4) 0.13450(12)
C3_6 C 0.19745(12) 0.1023(4) 0.14162(13)
O2_6 O 0.39203(13) 0.1285(4) 0.45775(11)
C4_6 C 0.26975(13) 0.0963(4) 0.21342(13)
C5_6 C 0.22179(12) 0.0502(4) 0.11199(12)
H1_6 H 0.2044 0.0355 0.0775
C6_6 C 0.14319(12) 0.1319(4) 0.12015(13)
C7_6 C 0.29297(14) 0.1229(5) 0.26889(13)
C8_6 C 0.29679(12) 0.0457(5) 0.18637(13)
H2_6 H 0.3308 0.0289 0.2026
C9_6 C 0.35707(14) 0.1981(5) 0.42967(15)
C10_6 C 0.33513(14) 0.1709(5) 0.37336(14)
C11_6 C 0.05938(14) 0.0934(5) 0.05897(17)
H3_6 H 0.0380 0.0504 0.0307
C12_6 C 0.11074(13) 0.0669(5) 0.07828(15)
H4_6 H 0.1233 0.0053 0.0630
C13_6 C 0.04052(14) 0.1832(5) 0.08188(17)
C14_6 C 0.12395(17) 0.2237(5) 0.14269(19)
H5_6 H 0.1452 0.2680 0.1706
C15_6 C 0.29424(19) 0.2388(5) 0.34248(16)
H6_6 H 0.2808 0.3011 0.3566
C16_6 C 0.33459(18) 0.0564(6) 0.29975(15)
C17_6 C 0.35480(16) 0.0796(6) 0.35222(15)
H8_6 H 0.3819 0.0325 0.3729
C18_6 C 0.27313(17) 0.2151(5) 0.29076(17)
H9_6 H 0.2455 0.2612 0.2705
C19_6 C 0.07312(19) 0.2491(6) 0.1234(2)
H10_6 H 0.0605 0.3113 0.1385
O5_8 O 0.3690(2) 0.4399(6) 0.5443(2)
H11_8 H 0.3513 0.4968 0.5249
H12_8 H 0.3762 0.4611 0.5752
H16_6 H 0.3699 0.0330 0.1450
C1_8 C 0.30029(12) 0.9604(4) 0.10500(13)
H7_8 H 0.3491 0.9964 0.2856
C21_8 C 0.27783(15) 0.9035(9) 0.0612(2)
H13_8 H 0.2430 0.9003 0.0471
C22_8 C 0.30653(18) 0.8473(9) 0.0358(2)
H14_8 H 0.2895 0.8169 0.0031
C23_8 C 0.37641(17) 0.9108(9) 0.0934(3)
H15_8 H 0.4111 0.9180 0.1041
C24_8 C 0.35242(19) 0.9778(9) 0.1191(3)
C20_8 C 0.98499(17) 0.2090(6) 0.0618(2)
O1_7 O 0.34071(12) 0.7122(3) 0.94684(11)
N1_7 N 0.22093(11) 0.8738(4) 0.69142(11)
C2_7 C 0.27286(11) 0.9800(4) 0.63450(12)
C3_7 C 0.19745(12) 0.8977(4) 0.64162(13)
O2_7 O 0.39203(13) 0.8715(4) 0.95775(11)
C4_7 C 0.26975(13) 0.9037(4) 0.71342(13)
C5_7 C 0.22179(12) 0.9498(4) 0.61199(12)
H1_7 H 0.2044 0.9645 0.5775
C6_7 C 0.14319(12) 0.8681(4) 0.62015(13)
C7_7 C 0.29297(14) 0.8771(5) 0.76889(13)
C8_7 C 0.29679(12) 0.9543(5) 0.68637(13)
H2_7 H 0.3308 0.9711 0.7026
C9_7 C 0.35707(14) 0.8019(5) 0.92967(15)
C10_7 C 0.33513(14) 0.8291(5) 0.87336(14)
C11_7 C 0.05938(14) 0.9066(5) 0.55897(17)
H3_7 H 0.0380 0.9496 0.5307
C12_7 C 0.11074(13) 0.9331(5) 0.57828(15)
H4_7 H 0.1233 0.9947 0.5630
C13_7 C 0.04052(14) 0.8168(5) 0.58188(17)
C14_7 C 0.12395(17) 0.7763(5) 0.64269(19)
H5_7 H 0.1452 0.7320 0.6706
C15_7 C 0.29424(19) 0.7612(5) 0.84248(16)
H6_7 H 0.2808 0.6989 0.8566
C16_7 C 0.33459(18) 0.9436(6) 0.79975(15)
C17_7 C 0.35480(16) 0.9204(6) 0.85222(15)
H8_7 H 0.3819 0.9675 0.8729
C18_7 C 0.27313(17) 0.7849(5) 0.79076(17)
H9_7 H 0.2455 0.7388 0.7705
C19_7 C 0.07312(19) 0.7509(6) 0.6234(2)
H10_7 H 0.0605 0.6887 0.6385
H16_7 H 0.3699 0.9670 0.6450
O1_8 O 0.65929(12) 0.2878(3) 0.05316(11)
N1_8 N 0.77907(11) 0.1262(4) 0.30858(11)
C2_8 C 0.72714(11) 0.0200(4) 0.36550(12)
C3_8 C 0.80255(12) 0.1023(4) 0.35838(13)
O2_8 O 0.60797(13) 0.1285(4) 0.04225(11)
C4_8 C 0.73025(13) 0.0963(4) 0.28658(13)
C5_8 C 0.77821(12) 0.0502(4) 0.38801(12)
H1_8 H 0.7956 0.0355 0.4225
C6_8 C 0.85681(12) 0.1319(4) 0.37985(13)
C7_8 C 0.70703(14) 0.1229(5) 0.23111(13)
C8_8 C 0.70321(12) 0.0457(5) 0.31363(13)
H2_8 H 0.6692 0.0289 0.2974
C9_8 C 0.64293(14) 0.1981(5) 0.07033(15)
C10_8 C 0.66487(14) 0.1709(5) 0.12664(14)
C11_8 C 0.94062(14) 0.0934(5) 0.44103(17)
H3_8 H 0.9620 0.0504 0.4693
C12_8 C 0.88926(13) 0.0669(5) 0.42172(15)
H4_8 H 0.8767 0.0053 0.4370
C13_8 C 0.95948(14) 0.1832(5) 0.41812(17)
C14_8 C 0.87605(17) 0.2237(5) 0.35731(19)
H5_8 H 0.8548 0.2680 0.3294
C15_8 C 0.70576(19) 0.2388(5) 0.15752(16)
H6_8 H 0.7192 0.3011 0.1434
C16_8 C 0.66541(18) 0.0564(6) 0.20025(15)
C17_8 C 0.64520(16) 0.0796(6) 0.14778(15)
H8_8 H 0.6181 0.0325 0.1271
C18_8 C 0.72687(17) 0.2151(5) 0.20924(17)
H9_8 H 0.7545 0.2612 0.2295
C19_8 C 0.92688(19) 0.2491(6) 0.3766(2)
H10_8 H 0.9395 0.3113 0.3615
H16_8 H 0.6301 0.0330 0.3550
loop_
_geom_bond_atom_site_label_1
_geom_bond_atom_site_label_2
_geom_bond_site_symmetry_1
_geom_bond_site_symmetry_2
Zn1 O1 1_555 1_555
O1 C9 1_555 1_555
N1 C3 1_555 1_555
N2 C22 1_555 1_555
C1 C2 1_555 1_555
C2 C5 1_555 1_555
C3 C5 1_555 1_555
O2 Zn1 1_555 1_555
C4 N1 1_555 1_555
C5 H1 1_555 1_555
C6 C3 1_555 1_555
C7 C4 1_555 1_555
O3 C20 1_555 1_555
C8 C2 1_555 1_555
H2 C8 1_555 1_555
C9 O2 1_555 1_555
C10 C9 1_555 1_555
C11 H3 1_555 1_555
C12 C6 1_555 1_555
H4 C12 1_555 1_555
C13 C11 1_555 1_555
O4 C20 1_555 1_555
C14 C6 1_555 1_555
H5 C14 1_555 1_555
C15 C10 1_555 1_555
H6 C15 1_555 1_555
C16 C7 1_555 1_555
H7 C16 1_555 1_555
C17 C10 1_555 1_555
H8 C17 1_555 1_555
C18 C7 1_555 1_555
H9 C18 1_555 1_555
C19 C13 1_555 1_555
H10 C19 1_555 1_555
C20 C13 1_555 1_555
O5 Zn1 1_555 1_555
H11 O5 1_555 1_555
H12 O5 1_555 1_555
C21 C1 1_555 1_555
H13 C21 1_555 1_555
C22 C21 1_555 1_555
H14 C22 1_555 1_555
C23 N2 1_555 1_555
H15 C23 1_555 1_555
C24 C1 1_555 1_555
H16 C24 1_555 1_555
Zn2 N2 1_555 1_555
Zn3 O3 1_555 1_555
N3 Zn1 1_555 1_555
O6 Zn1 1_555 1_555
O7 Zn1 1_555 1_555
C4 C8 1_555 1_555
C11 C12 1_555 1_555
O4 Zn3 1_555 1_555
C14 C19 1_555 1_555
C15 C18 1_555 1_555
C16 C17 1_555 1_555
C23 C24 1_555 1_555
O3_2 C20_2 1_555 1_555
O4_2 C20_2 1_555 1_555
Zn2 O3_2 1_555 1_555
O4_2 Zn2 1_555 1_555
N2_2 C22_2 1_555 1_555
C21_2 C1_2 1_555 1_555
H13_2 C21_2 1_555 1_555
C22_2 C21_2 1_555 1_555
H14_2 C22_2 1_555 1_555
C23_2 N2_2 1_555 1_555
H15_2 C23_2 1_555 1_555
C24_2 C1_2 1_555 1_555
Zn3 N2_2 1_555 1_555
C23_2 C24_2 1_555 1_555
Zn1_2 O1_2 1_555 1_555
O1_2 C9_2 1_555 1_555
N1_2 C3_2 1_555 1_555
C2_2 C5_2 1_555 1_555
C3_2 C5_2 1_555 1_555
O2_2 Zn1_2 1_555 1_555
C4_2 N1_2 1_555 1_555
C5_2 H1_2 1_555 1_555
C6_2 C3_2 1_555 1_555
C7_2 C4_2 1_555 1_555
C8_2 C2_2 1_555 1_555
H2_2 C8_2 1_555 1_555
C9_2 O2_2 1_555 1_555
C10_2 C9_2 1_555 1_555
C11_2 H3_2 1_555 1_555
C12_2 C6_2 1_555 1_555
H4_2 C12_2 1_555 1_555
C13_2 C11_2 1_555 1_555
C14_2 C6_2 1_555 1_555
H5_2 C14_2 1_555 1_555
C15_2 C10_2 1_555 1_555
H6_2 C15_2 1_555 1_555
C16_2 C7_2 1_555 1_555
C17_2 C10_2 1_555 1_555
H8_2 C17_2 1_555 1_555
C18_2 C7_2 1_555 1_555
H9_2 C18_2 1_555 1_555
C19_2 C13_2 1_555 1_555
H10_2 C19_2 1_555 1_555
O5_2 Zn1_2 1_555 1_555
H11_2 O5_2 1_555 1_555
H12_2 O5_2 1_555 1_555
N3_2 Zn1_2 1_555 1_555
O6_2 Zn1_2 1_555 1_555
O7_2 Zn1_2 1_555 1_555
C4_2 C8_2 1_555 1_555
C11_2 C12_2 1_555 1_555
C14_2 C19_2 1_555 1_555
C15_2 C18_2 1_555 1_555
C16_2 C17_2 1_555 1_555
O1_3 C9_3 1_555 1_555
N1_3 C3_3 1_555 1_555
N3 C22_3 1_555 1_555
C1_3 C2_3 1_555 1_555
C2_3 C5_3 1_555 1_555
C3_3 C5_3 1_555 1_555
C4_3 N1_3 1_555 1_555
C5_3 H1_3 1_555 1_555
C6_3 C3_3 1_555 1_555
C7_3 C4_3 1_555 1_555
O6_2 C20_3 1_555 1_555
C8_3 C2_3 1_555 1_555
H2_3 C8_3 1_555 1_555
C9_3 O2_3 1_555 1_555
C10_3 C9_3 1_555 1_555
C11_3 H3_3 1_555 1_555
C12_3 C6_3 1_555 1_555
H4_3 C12_3 1_555 1_555
C13_3 C11_3 1_555 1_555
O7_2 C20_3 1_555 1_555
C14_3 C6_3 1_555 1_555
H5_3 C14_3 1_555 1_555
C15_3 C10_3 1_555 1_555
H6_3 C15_3 1_555 1_555
C16_3 C7_3 1_555 1_555
H7_3 C16_3 1_555 1_555
C17_3 C10_3 1_555 1_555
H8_3 C17_3 1_555 1_555
C18_3 C7_3 1_555 1_555
H9_3 C18_3 1_555 1_555
C19_3 C13_3 1_555 1_555
H10_3 C19_3 1_555 1_555
C20_3 C13_3 1_555 1_555
C21_3 C1_3 1_555 1_555
H13_3 C21_3 1_555 1_555
C22_3 C21_3 1_555 1_555
H14_3 C22_3 1_555 1_555
C23_3 N3 1_555 1_555
H15_3 C23_3 1_555 1_555
C24_3 C1_3 1_555 1_555
H16_3 C24_3 1_555 1_555
C4_3 C8_3 1_555 1_555
C11_3 C12_3 1_555 1_555
C14_3 C19_3 1_555 1_555
C15_3 C18_3 1_555 1_555
C16_3 C17_3 1_555 1_555
C23_3 C24_3 1_555 1_555
O5_3 Zn2 1_555 1_555
H11_3 O5_3 1_555 1_555
H12_3 O5_3 1_555 1_555
O6 C20_4 1_555 1_555
O7 C20_4 1_555 1_555
O5_4 Zn3 1_555 1_555
H11_4 O5_4 1_555 1_555
H12_4 O5_4 1_555 1_555
N3_2 C22_4 1_555 1_555
C21_4 C1_4 1_555 1_555
H13_4 C21_4 1_555 1_555
C22_4 C21_4 1_555 1_555
H14_4 C22_4 1_555 1_555
C23_4 N3_2 1_555 1_555
H15_4 C23_4 1_555 1_555
C24_4 C1_4 1_555 1_555
C23_4 C24_4 1_555 1_555
O5_5 Zn1_3 1_555 1_555
H11_5 O5_5 1_555 1_555
H12_5 O5_5 1_555 1_555
N3_3 Zn1_3 1_555 1_555
O6_3 Zn1_3 1_555 1_555
O7_3 Zn1_3 1_555 1_555
O1_4 C9_4 1_555 1_555
N1_4 C3_4 1_555 1_555
N2_3 C22_5 1_555 1_555
C1_5 C2_4 1_555 1_555
C2_4 C5_4 1_555 1_555
C3_4 C5_4 1_555 1_555
C4_4 N1_4 1_555 1_555
C5_4 H1_4 1_555 1_555
C6_4 C3_4 1_555 1_555
C7_4 C4_4 1_555 1_555
O3_3 C20_5 1_555 1_555
C8_4 C2_4 1_555 1_555
H2_4 C8_4 1_555 1_555
C9_4 O2_4 1_555 1_555
C10_4 C9_4 1_555 1_555
C11_4 H3_4 1_555 1_555
C12_4 C6_4 1_555 1_555
H4_4 C12_4 1_555 1_555
C13_4 C11_4 1_555 1_555
O4_3 C20_5 1_555 1_555
C14_4 C6_4 1_555 1_555
H5_4 C14_4 1_555 1_555
C15_4 C10_4 1_555 1_555
H6_4 C15_4 1_555 1_555
C16_4 C7_4 1_555 1_555
H7_5 C16_4 1_555 1_555
C17_4 C10_4 1_555 1_555
H8_4 C17_4 1_555 1_555
C18_4 C7_4 1_555 1_555
H9_4 C18_4 1_555 1_555
C19_4 C13_4 1_555 1_555
H10_4 C19_4 1_555 1_555
C20_5 C13_4 1_555 1_555
C21_5 C1_5 1_555 1_555
H13_5 C21_5 1_555 1_555
C22_5 C21_5 1_555 1_555
H14_5 C22_5 1_555 1_555
C23_5 N2_3 1_555 1_555
H15_5 C23_5 1_555 1_555
C24_5 C1_5 1_555 1_555
H16_4 C24_5 1_555 1_555
Zn2_2 N2_3 1_555 1_555
Zn3_2 O3_3 1_555 1_555
C4_4 C8_4 1_555 1_555
C11_4 C12_4 1_555 1_555
O4_3 Zn3_2 1_555 1_555
C14_4 C19_4 1_555 1_555
C15_4 C18_4 1_555 1_555
C16_4 C17_4 1_555 1_555
C23_5 C24_5 1_555 1_555
N2_4 C22_6 1_555 1_555
C21_6 C1_6 1_555 1_555
H13_6 C21_6 1_555 1_555
C22_6 C21_6 1_555 1_555
H14_6 C22_6 1_555 1_555
C23_6 N2_4 1_555 1_555
H15_6 C23_6 1_555 1_555
C24_6 C1_6 1_555 1_555
Zn3_2 N2_4 1_555 1_555
C23_6 C24_6 1_555 1_555
O5_6 Zn1_4 1_555 1_555
H11_6 O5_6 1_555 1_555
H12_6 O5_6 1_555 1_555
N3_4 Zn1_4 1_555 1_555
O6_4 Zn1_4 1_555 1_555
O7_4 Zn1_4 1_555 1_555
O3_4 C20_6 1_555 1_555
O4_4 C20_6 1_555 1_555
Zn2_2 O3_4 1_555 1_555
O4_4 Zn2_2 1_555 1_555
Zn2_2 O1_5 1_555 1_555
O1_5 C9_5 1_555 1_555
N1_5 C3_5 1_555 1_555
N3_3 C22_7 1_555 1_555
C1_7 C2_5 1_555 1_555
C2_5 C5_5 1_555 1_555
C3_5 C5_5 1_555 1_555
O2_5 Zn2_2 1_555 1_555
C4_5 N1_5 1_555 1_555
C5_5 H1_5 1_555 1_555
C6_5 C3_5 1_555 1_555
C7_5 C4_5 1_555 1_555
O6_4 C20_7 1_555 1_555
C8_5 C2_5 1_555 1_555
H2_5 C8_5 1_555 1_555
C9_5 O2_5 1_555 1_555
C10_5 C9_5 1_555 1_555
C11_5 H3_5 1_555 1_555
C12_5 C6_5 1_555 1_555
H4_5 C12_5 1_555 1_555
C13_5 C11_5 1_555 1_555
O7_4 C20_7 1_555 1_555
C14_5 C6_5 1_555 1_555
H5_5 C14_5 1_555 1_555
C15_5 C10_5 1_555 1_555
H6_5 C15_5 1_555 1_555
C16_5 C7_5 1_555 1_555
H7_7 C16_5 1_555 1_555
C17_5 C10_5 1_555 1_555
H8_5 C17_5 1_555 1_555
C18_5 C7_5 1_555 1_555
H9_5 C18_5 1_555 1_555
C19_5 C13_5 1_555 1_555
H10_5 C19_5 1_555 1_555
C20_7 C13_5 1_555 1_555
O5_7 Zn2_2 1_555 1_555
H11_7 O5_7 1_555 1_555
H12_7 O5_7 1_555 1_555
C21_7 C1_7 1_555 1_555
H13_7 C21_7 1_555 1_555
C22_7 C21_7 1_555 1_555
H14_7 C22_7 1_555 1_555
C23_7 N3_3 1_555 1_555
H15_7 C23_7 1_555 1_555
C24_7 C1_7 1_555 1_555
H16_5 C24_7 1_555 1_555
C4_5 C8_5 1_555 1_555
C11_5 C12_5 1_555 1_555
C14_5 C19_5 1_555 1_555
C15_5 C18_5 1_555 1_555
C16_5 C17_5 1_555 1_555
C23_7 C24_7 1_555 1_555
Zn3_2 O1_6 1_555 1_555
O1_6 C9_6 1_555 1_555
N1_6 C3_6 1_555 1_555
C2_6 C5_6 1_555 1_555
C3_6 C5_6 1_555 1_555
O2_6 Zn3_2 1_555 1_555
C4_6 N1_6 1_555 1_555
C5_6 H1_6 1_555 1_555
C6_6 C3_6 1_555 1_555
C7_6 C4_6 1_555 1_555
C8_6 C2_6 1_555 1_555
H2_6 C8_6 1_555 1_555
C9_6 O2_6 1_555 1_555
C10_6 C9_6 1_555 1_555
C11_6 H3_6 1_555 1_555
C12_6 C6_6 1_555 1_555
H4_6 C12_6 1_555 1_555
C13_6 C11_6 1_555 1_555
C14_6 C6_6 1_555 1_555
H5_6 C14_6 1_555 1_555
C15_6 C10_6 1_555 1_555
H6_6 C15_6 1_555 1_555
C16_6 C7_6 1_555 1_555
C17_6 C10_6 1_555 1_555
H8_6 C17_6 1_555 1_555
C18_6 C7_6 1_555 1_555
H9_6 C18_6 1_555 1_555
C19_6 C13_6 1_555 1_555
H10_6 C19_6 1_555 1_555
O5_8 Zn3_2 1_555 1_555
H11_8 O5_8 1_555 1_555
H12_8 O5_8 1_555 1_555
C4_6 C8_6 1_555 1_555
C11_6 C12_6 1_555 1_555
C14_6 C19_6 1_555 1_555
C15_6 C18_6 1_555 1_555
C16_6 C17_6 1_555 1_555
N3_4 C22_8 1_555 1_555
C21_8 C1_8 1_555 1_555
H13_8 C21_8 1_555 1_555
C22_8 C21_8 1_555 1_555
H14_8 C22_8 1_555 1_555
C23_8 N3_4 1_555 1_555
H15_8 C23_8 1_555 1_555
C24_8 C1_8 1_555 1_555
C23_8 C24_8 1_555 1_555
O6_3 C20_8 1_555 1_555
O7_3 C20_8 1_555 1_555
O1_7 C9_7 1_555 1_555
N1_7 C3_7 1_555 1_555
C2_7 C5_7 1_555 1_555
C3_7 C5_7 1_555 1_555
C4_7 N1_7 1_555 1_555
C5_7 H1_7 1_555 1_555
C6_7 C3_7 1_555 1_555
C7_7 C4_7 1_555 1_555
C8_7 C2_7 1_555 1_555
H2_7 C8_7 1_555 1_555
C9_7 O2_7 1_555 1_555
C10_7 C9_7 1_555 1_555
C11_7 H3_7 1_555 1_555
C12_7 C6_7 1_555 1_555
H4_7 C12_7 1_555 1_555
C13_7 C11_7 1_555 1_555
C14_7 C6_7 1_555 1_555
H5_7 C14_7 1_555 1_555
C15_7 C10_7 1_555 1_555
H6_7 C15_7 1_555 1_555
C16_7 C7_7 1_555 1_555
C17_7 C10_7 1_555 1_555
H8_7 C17_7 1_555 1_555
C18_7 C7_7 1_555 1_555
H9_7 C18_7 1_555 1_555
C19_7 C13_7 1_555 1_555
H10_7 C19_7 1_555 1_555
C4_7 C8_7 1_555 1_555
C11_7 C12_7 1_555 1_555
C14_7 C19_7 1_555 1_555
C15_7 C18_7 1_555 1_555
C16_7 C17_7 1_555 1_555
O1_8 C9_8 1_555 1_555
N1_8 C3_8 1_555 1_555
C2_8 C5_8 1_555 1_555
C3_8 C5_8 1_555 1_555
C4_8 N1_8 1_555 1_555
C5_8 H1_8 1_555 1_555
C6_8 C3_8 1_555 1_555
C7_8 C4_8 1_555 1_555
C8_8 C2_8 1_555 1_555
H2_8 C8_8 1_555 1_555
C9_8 O2_8 1_555 1_555
C10_8 C9_8 1_555 1_555
C11_8 H3_8 1_555 1_555
C12_8 C6_8 1_555 1_555
H4_8 C12_8 1_555 1_555
C13_8 C11_8 1_555 1_555
C14_8 C6_8 1_555 1_555
H5_8 C14_8 1_555 1_555
C15_8 C10_8 1_555 1_555
H6_8 C15_8 1_555 1_555
C16_8 C7_8 1_555 1_555
C17_8 C10_8 1_555 1_555
H8_8 C17_8 1_555 1_555
C18_8 C7_8 1_555 1_555
H9_8 C18_8 1_555 1_555
C19_8 C13_8 1_555 1_555
H10_8 C19_8 1_555 1_555
C4_8 C8_8 1_555 1_555
C11_8 C12_8 1_555 1_555
C14_8 C19_8 1_555 1_555
C15_8 C18_8 1_555 1_555
C16_8 C17_8 1_555 1_555

#END
