
###############################################################################
#
# This file contains modified crystal structure data generated from the
# MOF subset of the Cambridge Structural Database (CSD) v543 
# hosted by the Cambridge Crystallographic Data Centre (CCDC).
#
# This work is licensed under the Creative Commons
# Attribution-NonCommercial-ShareAlike 4.0 International License.
# To view a copy of this license, visit
# http://creativecommons.org/licenses/by-nc-sa/4.0/
# or send a letter to
# Creative Commons, PO Box 1866, Mountain View, CA 94042, USA.
#
# CIF created using the CSD Python API on 29 September 2022
# The structure has been converted into the P1 space group
# The structure has a 3D framework
# The original CSD entry OTAXOX is in the orthorhombic crystal system
# The framework has been calculated to contain at least 10.0% void space
# The void calculation uses a probe of radius 1.32A, grid spacing 0.4
#
###############################################################################

data_OTAXOX
_chemical_formula_moiety         '(C48 H48 Mg33 O94)n'
_symmetry_cell_setting           triclinic
_symmetry_space_group_name_H-M   'P 1'
_symmetry_Int_Tables_number      1
_space_group_name_Hall           'P 1'
loop_
_symmetry_equiv_pos_site_id
_symmetry_equiv_pos_as_xyz
1 x,y,z
_cell_length_a                   9.9638(18)
_cell_length_b                   18.450(3)
_cell_length_c                   18.082(3)
_cell_angle_alpha                90
_cell_angle_beta                 90
_cell_angle_gamma                90
_cell_volume                     3324.05
loop_
_atom_site_label
_atom_site_type_symbol
_atom_site_fract_x
_atom_site_fract_y
_atom_site_fract_z
Mg1 Mg 0.57509(18) 0.17847(7) 0.05856(9)
Mg3 Mg 0.5000 0.0000 0.0000
Mg4 Mg 0.5000 0.18441(12) 0.2500
O1 O 0.6964(4) 0.26727(15) 0.02957(18)
O3 O 0.6505(4) 0.18343(17) 0.16631(18)
O4 O 0.8678(4) 0.2000(2) 0.1449(2)
O6 O 0.4176(4) 0.25137(15) 0.07585(18)
O7 O 0.4714(4) 0.08382(15) 0.07916(18)
O8 O 0.7518(4) 0.12846(15) 0.02038(18)
O9 O 0.3958(5) 0.26458(18) 0.1973(2)
O10 O 0.3962(4) 0.10773(18) 0.1927(2)
O11 O 0.7039(4) 0.01247(16) 0.0089(2)
C2 C 0.7809(7) 0.0632(2) 0.0117(3)
H2 H 0.8717 0.0523 0.0070
C3 C 0.7719(7) 0.1884(3) 0.1853(3)
H3 H 0.7904 0.1826 0.2354
C4 C 0.3680(7) 0.2792(3) 0.1330(3)
H4 H 0.3032 0.3148 0.1258
C6 C 0.4002(7) 0.0708(3) 0.1361(3)
H6 H 0.3463 0.0297 0.1348
Mg7 Mg 0.42491(18) 0.17847(7) 0.44144(9)
Mg9 Mg 0.88421(18) 0.21717(7) 0.03518(9)
Mg12 Mg 0.61579(18) 0.28283(7) 0.53518(9)
O16 O 0.0544(4) 0.15762(16) 0.0272(2)
O19 O 0.3495(4) 0.18343(17) 0.33369(18)
O24 O 0.5824(4) 0.25137(15) 0.42415(18)
O30 O 0.6042(5) 0.26458(18) 0.3027(2)
O32 O 0.6038(4) 0.10773(18) 0.3073(2)
C7 C 0.1657(7) 0.1733(3) 0.0011(3)
H7 H 0.2327 0.1383 0.0044
C10 C 0.6320(7) 0.2792(3) 0.3670(3)
H10 H 0.6968 0.3148 0.3742
Mg2 Mg 0.38421(18) 0.28283(7) 0.96482(9)
Mg3_2 Mg 0.5000 0.0000 1.0000
O2 O 0.5544(4) 0.34238(16) 0.9728(2)
O5 O 0.4862(4) 0.18596(16) 0.95312(19)
O12 O 0.4985(5) 0.07193(17) 0.9149(2)
C1 C 0.6657(7) 0.3267(3) 0.9989(3)
H1 H 0.7327 0.3617 0.9956
C5 C 0.4806(6) 0.1369(3) 0.9041(3)
H5 H 0.4615 0.1514 0.8560
Mg6 Mg 0.07509(18) 0.32153(7) 0.94144(9)
Mg14 Mg -0.0000 0.31559(12) 0.7500
O13 O 0.1964(4) 0.23273(15) 0.97043(18)
O18 O 0.1505(4) 0.31657(17) 0.83369(18)
O21 O 0.3678(4) 0.3000(2) 0.8551(2)
O28 O 0.2518(4) 0.37154(15) 0.97962(18)
C9 C 0.2719(7) 0.3116(3) 0.8147(3)
H9 H 0.2904 0.3174 0.7646
Mg3_3 Mg 0.5000 1.0000 0.0000
Mg8 Mg 0.61579(18) 0.71717(7) 0.03518(9)
O15 O 0.8036(4) 0.76727(15) 0.02957(18)
O17 O 0.4456(4) 0.65762(16) 0.0272(2)
O22 O 0.6322(4) 0.7000(2) 0.1449(2)
O23 O 0.5138(4) 0.81404(16) 0.04688(19)
O29 O 0.7482(4) 0.62846(15) 0.02038(18)
O34 O 0.5015(5) 0.92807(17) 0.0851(2)
C11 C 0.5194(6) 0.8631(3) 0.0959(3)
H11 H 0.5385 0.8486 0.1440
Mg3_4 Mg 0.5000 1.0000 1.0000
Mg5 Mg 0.42491(18) 0.82153(7) 0.94144(9)
Mg10 Mg 0.11579(18) 0.78283(7) 0.96482(9)
Mg13 Mg 0.5000 0.81559(12) 0.7500
O14 O 0.3036(4) 0.73273(15) 0.97043(18)
O20 O 0.3495(4) 0.81657(17) 0.83369(18)
O25 O 0.5824(4) 0.74863(15) 0.92415(18)
O26 O 0.5286(4) 0.91618(15) 0.92084(18)
O27 O 0.2482(4) 0.87154(15) 0.97962(18)
O31 O 0.6038(4) 0.89227(18) 0.8073(2)
O33 O 0.2961(4) 0.98753(16) 0.9911(2)
C8 C 0.2191(7) 0.9368(2) 0.9883(3)
H8 H 0.1283 0.9477 0.9930
C12 C 0.5998(7) 0.9292(3) 0.8639(3)
H12 H 0.6537 0.9703 0.8652
Mg14_2 Mg 1.0000 0.31559(12) 0.7500
Mg2_2 Mg 0.11579(18) 0.21717(7) 0.46482(9)
Mg3_5 Mg 0.0000 0.5000 0.5000
O5_2 O 0.0138(4) 0.31404(16) 0.45312(19)
O6_2 O 0.0824(4) 0.24863(15) 0.57585(18)
O7_2 O 0.0286(4) 0.41618(15) 0.57916(18)
O9_2 O 0.1042(5) 0.23542(18) 0.6973(2)
O10_2 O 0.1038(4) 0.39227(18) 0.6927(2)
O12_2 O 0.0015(5) 0.42807(17) 0.4149(2)
C4_2 C 0.1320(7) 0.2208(3) 0.6330(3)
H4_2 H 0.1968 0.1852 0.6258
C5_2 C 0.0194(6) 0.3631(3) 0.4041(3)
H5_2 H 0.0385 0.3486 0.3560
C6_2 C 0.0998(7) 0.4292(3) 0.6361(3)
H6_2 H 0.1537 0.4703 0.6348
Mg5_2 Mg 0.07509(18) 0.67847(7) 0.44144(9)
Mg10_2 Mg 0.38421(18) 0.71717(7) 0.46482(9)
Mg13_2 Mg -0.0000 0.68441(12) 0.2500
O13_2 O 0.3036(4) 0.26727(15) 0.47043(18)
O14_2 O 0.1964(4) 0.76727(15) 0.47043(18)
O16_2 O 0.4456(4) 0.34238(16) 0.5272(2)
O17_2 O 0.0544(4) 0.84238(16) 0.5272(2)
O20_2 O 0.1505(4) 0.68343(17) 0.33369(18)
O21_2 O 0.1322(4) 0.2000(2) 0.3551(2)
O27_2 O 0.2518(4) 0.62846(15) 0.47962(18)
O28_2 O 0.2482(4) 0.12846(15) 0.47962(18)
O33_2 O 0.2039(4) 0.51247(16) 0.4911(2)
C7_2 C 0.3343(7) 0.3267(3) 0.5011(3)
H7_2 H 0.2673 0.3617 0.5044
C8_2 C 0.2809(7) 0.5632(2) 0.4883(3)
H8_2 H 0.3717 0.5523 0.4930
C9_2 C 0.2281(7) 0.1884(3) 0.3147(3)
H9_2 H 0.2096 0.1826 0.2646
Mg1_2 Mg 0.92491(18) 0.32153(7) 0.55856(9)
Mg3_6 Mg 1.0000 0.5000 0.5000
O1_2 O 0.8036(4) 0.23273(15) 0.52957(18)
O2_2 O 0.9456(4) 0.15762(16) 0.4728(2)
O3_2 O 0.8495(4) 0.31657(17) 0.66631(18)
O4_2 O 0.6322(4) 0.3000(2) 0.6449(2)
O8_2 O 0.7482(4) 0.37154(15) 0.52038(18)
O11_2 O 0.7961(4) 0.48753(16) 0.5089(2)
C1_2 C 0.8343(7) 0.1733(3) 0.4989(3)
H1_2 H 0.7673 0.1383 0.4956
C2_2 C 0.7191(7) 0.4368(2) 0.5117(3)
H2_2 H 0.6283 0.4477 0.5070
C3_2 C 0.7281(7) 0.3116(3) 0.6853(3)
H3_2 H 0.7096 0.3174 0.7354
Mg8_2 Mg 0.88421(18) 0.78283(7) 0.53518(9)
Mg13_3 Mg 1.0000 0.68441(12) 0.2500
O15_2 O 0.6964(4) 0.73273(15) 0.52957(18)
O22_2 O 0.8678(4) 0.8000(2) 0.6449(2)
O23_2 O 0.9862(4) 0.68596(16) 0.54688(19)
O24_2 O 0.9176(4) 0.24863(15) 0.92415(18)
O25_2 O 0.9176(4) 0.75137(15) 0.42415(18)
O26_2 O 0.9714(4) 0.58382(15) 0.42084(18)
O29_2 O 0.7518(4) 0.87154(15) 0.52038(18)
O30_2 O 0.8958(5) 0.23542(18) 0.8027(2)
O31_2 O 0.8962(4) 0.60773(18) 0.3073(2)
O32_2 O 0.8962(4) 0.39227(18) 0.8073(2)
O34_2 O 0.9985(5) 0.57193(17) 0.5851(2)
C10_2 C 0.8680(7) 0.2208(3) 0.8670(3)
H10_2 H 0.8032 0.1852 0.8742
C11_2 C 0.9806(6) 0.6369(3) 0.5959(3)
H11_2 H 0.9615 0.6514 0.6440
C12_2 C 0.9002(7) 0.5708(3) 0.3639(3)
H12_2 H 0.8463 0.5297 0.3652
Mg3_7 Mg -0.0000 0.5000 0.0000
O25_3 O 0.0824(4) 0.75137(15) 0.07585(18)
O26_3 O 0.0286(4) 0.58382(15) 0.07916(18)
O31_3 O 0.1038(4) 0.60773(18) 0.1927(2)
C12_3 C 0.0998(7) 0.5708(3) 0.1361(3)
H12_3 H 0.1537 0.5297 0.1348
Mg3_8 Mg -0.0000 0.5000 1.0000
O11_3 O 0.2039(4) 0.48753(16) 0.9911(2)
C2_3 C 0.2809(7) 0.4368(2) 0.9883(3)
H2_3 H 0.3717 0.4477 0.9930
O22_3 O 0.1322(4) 0.8000(2) 0.8551(2)
O23_3 O 0.0138(4) 0.68596(16) 0.95312(19)
O34_3 O 0.0015(5) 0.57193(17) 0.9149(2)
C11_3 C 0.0194(6) 0.6369(3) 0.9041(3)
H11_3 H 0.0385 0.6514 0.8560
Mg3_9 Mg 1.0000 0.5000 0.0000
O5_3 O 0.9862(4) 0.31404(16) 0.04688(19)
O12_3 O 0.9985(5) 0.42807(17) 0.0851(2)
C5_3 C 0.9806(6) 0.3631(3) 0.0959(3)
H5_3 H 0.9615 0.3486 0.1440
Mg5_3 Mg 0.92491(18) 0.67847(7) 0.05856(9)
O20_3 O 0.8495(4) 0.68343(17) 0.16631(18)
O33_3 O 0.7961(4) 0.51247(16) 0.0089(2)
C8_3 C 0.7191(7) 0.5632(2) 0.0117(3)
H8_3 H 0.6283 0.5523 0.0070
Mg3_10 Mg 1.0000 0.5000 1.0000
O7_3 O 0.9714(4) 0.41618(15) 0.92084(18)
C6_3 C 0.9002(7) 0.4292(3) 0.8639(3)
H6_3 H 0.8463 0.4703 0.8652
O17_3 O 0.9456(4) 0.84238(16) 0.9728(2)
Mg3_11 Mg 0.5000 0.0000 0.5000
O5_4 O 0.5138(4) 0.18596(16) 0.54688(19)
O7_4 O 0.5286(4) 0.08382(15) 0.42084(18)
O11_4 O 0.2961(4) 0.01247(16) 0.4911(2)
O12_4 O 0.5015(5) 0.07193(17) 0.5851(2)
C2_4 C 0.2191(7) 0.0632(2) 0.4883(3)
H2_4 H 0.1283 0.0523 0.4930
C5_4 C 0.5194(6) 0.1369(3) 0.5959(3)
H5_4 H 0.5385 0.1514 0.6440
C6_4 C 0.5998(7) 0.0708(3) 0.3639(3)
H6_4 H 0.6537 0.0297 0.3652
Mg3_12 Mg 0.5000 1.0000 0.5000
Mg5_4 Mg 0.57509(18) 0.82153(7) 0.55856(9)
O17_4 O 0.5544(4) 0.65762(16) 0.4728(2)
O20_4 O 0.6505(4) 0.81657(17) 0.66631(18)
O22_4 O 0.3678(4) 0.7000(2) 0.3551(2)
O23_4 O 0.4862(4) 0.81404(16) 0.45312(19)
O25_4 O 0.4176(4) 0.74863(15) 0.57585(18)
O26_4 O 0.4714(4) 0.91618(15) 0.57916(18)
O31_4 O 0.3962(4) 0.89227(18) 0.6927(2)
O33_4 O 0.7039(4) 0.98753(16) 0.5089(2)
O34_4 O 0.4985(5) 0.92807(17) 0.4149(2)
C8_4 C 0.7809(7) 0.9368(2) 0.5117(3)
H8_4 H 0.8717 0.9477 0.5070
C11_4 C 0.4806(6) 0.8631(3) 0.4041(3)
H11_4 H 0.4615 0.8486 0.3560
C12_4 C 0.4002(7) 0.9292(3) 0.6361(3)
H12_4 H 0.3463 0.9703 0.6348
C1_3 C 0.3343(7) 0.6733(3) 0.0011(3)
H1_3 H 0.2673 0.6383 0.0044
C9_3 C 0.7281(7) 0.6884(3) 0.1853(3)
H9_3 H 0.7096 0.6826 0.2354
O9_3 O 0.6042(5) 0.73542(18) 0.8027(2)
C3_3 C 0.2281(7) 0.8116(3) 0.8147(3)
H3_3 H 0.2096 0.8174 0.7646
C4_3 C 0.6320(7) 0.7208(3) 0.8670(3)
H4_3 H 0.6968 0.6852 0.8742
O30_3 O 0.3958(5) 0.73542(18) 0.6973(2)
C7_3 C 0.8343(7) 0.8267(3) 0.9989(3)
H7_3 H 0.7673 0.8617 0.9956
C10_3 C 0.3680(7) 0.7208(3) 0.6330(3)
H10_3 H 0.3032 0.6852 0.6258
C1_4 C 0.1657(7) 0.8267(3) 0.5011(3)
H1_4 H 0.2327 0.8617 0.5044
C3_4 C 0.2719(7) 0.6884(3) 0.3147(3)
H3_4 H 0.2904 0.6826 0.2646
O30_4 O 0.1042(5) 0.76458(18) 0.1973(2)
C10_4 C 0.1320(7) 0.7792(3) 0.1330(3)
H10_4 H 0.1968 0.8148 0.1258
O9_4 O 0.8958(5) 0.76458(18) 0.3027(2)
C4_4 C 0.8680(7) 0.7792(3) 0.3670(3)
H4_4 H 0.8032 0.8148 0.3742
C7_4 C 0.6657(7) 0.6733(3) 0.4989(3)
H7_4 H 0.7327 0.6383 0.4956
C9_4 C 0.7719(7) 0.8116(3) 0.6853(3)
H9_4 H 0.7904 0.8174 0.7354
loop_
_geom_bond_atom_site_label_1
_geom_bond_atom_site_label_2
_geom_bond_site_symmetry_1
_geom_bond_site_symmetry_2
Mg1 O1 1_555 1_555
Mg3 O7 1_555 1_555
Mg4 O3 1_555 1_555
O3 Mg1 1_555 1_555
O4 C3 1_555 1_555
O6 Mg1 1_555 1_555
O7 Mg1 1_555 1_555
O8 Mg1 1_555 1_555
O9 Mg4 1_555 1_555
O10 Mg4 1_555 1_555
O11 Mg3 1_555 1_555
C2 O8 1_555 1_555
H2 C2 1_555 1_555
C3 O3 1_555 1_555
H3 C3 1_555 1_555
C4 O6 1_555 1_555
H4 C4 1_555 1_555
C6 O7 1_555 1_555
H6 C6 1_555 1_555
Mg7 O19 1_555 1_555
Mg9 O1 1_555 1_555
Mg12 O24 1_555 1_555
O16 C7 1_555 1_555
O19 Mg4 1_555 1_555
O24 Mg7 1_555 1_555
O30 Mg4 1_555 1_555
O32 Mg4 1_555 1_555
H7 C7 1_555 1_555
C10 O24 1_555 1_555
H10 C10 1_555 1_555
O4 Mg9 1_555 1_555
O8 Mg9 1_555 1_555
O9 C4 1_555 1_555
O10 C6 1_555 1_555
O11 C2 1_555 1_555
O30 C10 1_555 1_555
Mg2 O2 1_555 1_555
O2 C1 1_555 1_555
O12 Mg3_2 1_555 1_555
C1 H1 1_555 1_555
C5 O5 1_555 1_555
H5 C5 1_555 1_555
Mg6 O13 1_555 1_555
Mg14 O18 1_555 1_555
O13 Mg2 1_555 1_555
O18 Mg6 1_555 1_555
O21 Mg2 1_555 1_555
O28 Mg2 1_555 1_555
C9 O18 1_555 1_555
H9 C9 1_555 1_555
Mg2 O5 1_555 1_555
O12 C5 1_555 1_555
Mg6 O28 1_555 1_555
O21 C9 1_555 1_555
Mg8 O15 1_555 1_555
O17 Mg8 1_555 1_555
O22 Mg8 1_555 1_555
O29 Mg8 1_555 1_555
O34 Mg3_3 1_555 1_555
C11 O23 1_555 1_555
H11 C11 1_555 1_555
Mg8 O23 1_555 1_555
O34 C11 1_555 1_555
Mg5 O14 1_555 1_555
Mg10 O14 1_555 1_555
Mg13 O20 1_555 1_555
O20 Mg5 1_555 1_555
O25 Mg5 1_555 1_555
O26 Mg3_4 1_555 1_555
O27 Mg5 1_555 1_555
O31 Mg13 1_555 1_555
O33 Mg3_4 1_555 1_555
C8 O27 1_555 1_555
H8 C8 1_555 1_555
C12 O26 1_555 1_555
H12 C12 1_555 1_555
Mg5 O26 1_555 1_555
Mg10 O27 1_555 1_555
O31 C12 1_555 1_555
O33 C8 1_555 1_555
Mg3_5 O7_2 1_555 1_555
O9_2 Mg14 1_555 1_555
O10_2 Mg14 1_555 1_555
O12_2 Mg3_5 1_555 1_555
C4_2 O6_2 1_555 1_555
H4_2 C4_2 1_555 1_555
C5_2 O5_2 1_555 1_555
H5_2 C5_2 1_555 1_555
C6_2 O7_2 1_555 1_555
H6_2 C6_2 1_555 1_555
Mg5_2 O14_2 1_555 1_555
Mg7 O13_2 1_555 1_555
Mg10_2 O14_2 1_555 1_555
Mg12 O16_2 1_555 1_555
Mg13_2 O20_2 1_555 1_555
O13_2 Mg2_2 1_555 1_555
O16_2 C7_2 1_555 1_555
O20_2 Mg5_2 1_555 1_555
O21_2 Mg2_2 1_555 1_555
O27_2 Mg5_2 1_555 1_555
O28_2 Mg2_2 1_555 1_555
O33_2 Mg3_5 1_555 1_555
C7_2 O13_2 1_555 1_555
H7_2 C7_2 1_555 1_555
C8_2 O27_2 1_555 1_555
H8_2 C8_2 1_555 1_555
C9_2 O19 1_555 1_555
H9_2 C9_2 1_555 1_555
Mg2_2 O5_2 1_555 1_555
Mg2_2 O6_2 1_555 1_555
O9_2 C4_2 1_555 1_555
O10_2 C6_2 1_555 1_555
O12_2 C5_2 1_555 1_555
Mg7 O28_2 1_555 1_555
Mg10_2 O27_2 1_555 1_555
O21_2 C9_2 1_555 1_555
O33_2 C8_2 1_555 1_555
Mg1_2 O1_2 1_555 1_555
Mg14_2 O3_2 1_555 1_555
O1_2 C1_2 1_555 1_555
O2_2 C1_2 1_555 1_555
O3_2 Mg1_2 1_555 1_555
O4_2 C3_2 1_555 1_555
O8_2 Mg1_2 1_555 1_555
O11_2 Mg3_6 1_555 1_555
C1_2 H1_2 1_555 1_555
C2_2 O8_2 1_555 1_555
H2_2 C2_2 1_555 1_555
C3_2 O3_2 1_555 1_555
H3_2 C3_2 1_555 1_555
Mg8_2 O15_2 1_555 1_555
Mg12 O1_2 1_555 1_555
O22_2 Mg8_2 1_555 1_555
O26_2 Mg3_6 1_555 1_555
O29_2 Mg8_2 1_555 1_555
O30_2 Mg14_2 1_555 1_555
O31_2 Mg13_3 1_555 1_555
O32_2 Mg14_2 1_555 1_555
O34_2 Mg3_6 1_555 1_555
C10_2 O24_2 1_555 1_555
H10_2 C10_2 1_555 1_555
C11_2 O23_2 1_555 1_555
H11_2 C11_2 1_555 1_555
C12_2 O26_2 1_555 1_555
H12_2 C12_2 1_555 1_555
O4_2 Mg12 1_555 1_555
O8_2 Mg12 1_555 1_555
O11_2 C2_2 1_555 1_555
Mg8_2 O23_2 1_555 1_555
Mg8_2 O25_2 1_555 1_555
O30_2 C10_2 1_555 1_555
O31_2 C12_2 1_555 1_555
O34_2 C11_2 1_555 1_555
O26_3 Mg3_7 1_555 1_555
O31_3 Mg13_2 1_555 1_555
C12_3 O26_3 1_555 1_555
H12_3 C12_3 1_555 1_555
O31_3 C12_3 1_555 1_555
O11_3 Mg3_8 1_555 1_555
C2_3 O28 1_555 1_555
H2_3 C2_3 1_555 1_555
O22_3 Mg10 1_555 1_555
O34_3 Mg3_8 1_555 1_555
C11_3 O23_3 1_555 1_555
H11_3 C11_3 1_555 1_555
O11_3 C2_3 1_555 1_555
Mg10 O23_3 1_555 1_555
O34_3 C11_3 1_555 1_555
O12_3 Mg3_9 1_555 1_555
C5_3 O5_3 1_555 1_555
H5_3 C5_3 1_555 1_555
Mg5_3 O15 1_555 1_555
Mg13_3 O20_3 1_555 1_555
O20_3 Mg5_3 1_555 1_555
O29 Mg5_3 1_555 1_555
O33_3 Mg3_9 1_555 1_555
C8_3 O29 1_555 1_555
H8_3 C8_3 1_555 1_555
Mg9 O5_3 1_555 1_555
O12_3 C5_3 1_555 1_555
O33_3 C8_3 1_555 1_555
Mg3_10 O7_3 1_555 1_555
C6_3 O7_3 1_555 1_555
H6_3 C6_3 1_555 1_555
O32_2 C6_3 1_555 1_555
Mg3_11 O7_4 1_555 1_555
O5_4 Mg7 1_555 1_555
O7_4 Mg7 1_555 1_555
O11_4 Mg3_11 1_555 1_555
O12_4 Mg3_11 1_555 1_555
C2_4 O28_2 1_555 1_555
H2_4 C2_4 1_555 1_555
C5_4 O5_4 1_555 1_555
H5_4 C5_4 1_555 1_555
C6_4 O7_4 1_555 1_555
H6_4 C6_4 1_555 1_555
Mg12 O5_4 1_555 1_555
O32 C6_4 1_555 1_555
O11_4 C2_4 1_555 1_555
O12_4 C5_4 1_555 1_555
Mg5_4 O15_2 1_555 1_555
Mg13 O20_4 1_555 1_555
O17_4 Mg10_2 1_555 1_555
O20_4 Mg5_4 1_555 1_555
O22_4 Mg10_2 1_555 1_555
O23_4 Mg5_4 1_555 1_555
O25_4 Mg5_4 1_555 1_555
O26_4 Mg3_12 1_555 1_555
O29_2 Mg5_4 1_555 1_555
O31_4 Mg13 1_555 1_555
O33_4 Mg3_12 1_555 1_555
O34_4 Mg3_12 1_555 1_555
C8_4 O29_2 1_555 1_555
H8_4 C8_4 1_555 1_555
C11_4 O23_4 1_555 1_555
H11_4 C11_4 1_555 1_555
C12_4 O26_4 1_555 1_555
H12_4 C12_4 1_555 1_555
Mg5_4 O26_4 1_555 1_555
Mg10_2 O23_4 1_555 1_555
Mg10_2 O25_4 1_555 1_555
O31_4 C12_4 1_555 1_555
O33_4 C8_4 1_555 1_555
O34_4 C11_4 1_555 1_555
O17 C1_3 1_555 1_555
C1_3 H1_3 1_555 1_555
C9_3 O20_3 1_555 1_555
H9_3 C9_3 1_555 1_555
O22 C9_3 1_555 1_555
O22_3 C3_3 1_555 1_555
O9_3 Mg13 1_555 1_555
C3_3 O20 1_555 1_555
H3_3 C3_3 1_555 1_555
C4_3 O25 1_555 1_555
H4_3 C4_3 1_555 1_555
O17_3 C7_3 1_555 1_555
O30_3 Mg13 1_555 1_555
H7_3 C7_3 1_555 1_555
C10_3 O25_4 1_555 1_555
H10_3 C10_3 1_555 1_555
O9_3 C4_3 1_555 1_555
O30_3 C10_3 1_555 1_555
O14_2 C1_4 1_555 1_555
O17_2 C1_4 1_555 1_555
O22_4 C3_4 1_555 1_555
C1_4 H1_4 1_555 1_555
C3_4 O20_2 1_555 1_555
H3_4 C3_4 1_555 1_555
O30_4 Mg13_2 1_555 1_555
C10_4 O25_3 1_555 1_555
H10_4 C10_4 1_555 1_555
O30_4 C10_4 1_555 1_555
O9_4 Mg13_3 1_555 1_555
C4_4 O25_2 1_555 1_555
H4_4 C4_4 1_555 1_555
O17_4 C7_4 1_555 1_555
C7_4 O15_2 1_555 1_555
H7_4 C7_4 1_555 1_555
C9_4 O20_4 1_555 1_555
H9_4 C9_4 1_555 1_555
O9_4 C4_4 1_555 1_555
O22_2 C9_4 1_555 1_555

#END
