
###############################################################################
#
# This file contains modified crystal structure data generated from the
# MOF subset of the Cambridge Structural Database (CSD) v543 
# hosted by the Cambridge Crystallographic Data Centre (CCDC).
#
# This work is licensed under the Creative Commons
# Attribution-NonCommercial-ShareAlike 4.0 International License.
# To view a copy of this license, visit
# http://creativecommons.org/licenses/by-nc-sa/4.0/
# or send a letter to
# Creative Commons, PO Box 1866, Mountain View, CA 94042, USA.
#
# CIF created using the CSD Python API on 29 September 2022
# The structure has been converted into the P1 space group
# The structure has a 3D framework
# The original CSD entry OTECEX is in the tetragonal crystal system
# The original CSD entry OTECEX is in a Sohncke space group
# The framework has been calculated to contain at least 10.0% void space
# The void calculation uses a probe of radius 1.32A, grid spacing 0.4
#
###############################################################################

data_OTECEX
_chemical_formula_moiety         '(C224 H144 Al20 O76)n'
_symmetry_cell_setting           triclinic
_symmetry_space_group_name_H-M   'P 1'
_symmetry_Int_Tables_number      1
_space_group_name_Hall           'P 1'
loop_
_symmetry_equiv_pos_site_id
_symmetry_equiv_pos_as_xyz
1 x,y,z
_cell_length_a                   18.4753(4)
_cell_length_b                   18.4753(4)
_cell_length_c                   37.4264(9)
_cell_angle_alpha                90
_cell_angle_beta                 90
_cell_angle_gamma                90
_cell_volume                     12775
loop_
_atom_site_label
_atom_site_type_symbol
_atom_site_fract_x
_atom_site_fract_y
_atom_site_fract_z
Al21 Al 0.0000 0.0000 0.38726(2)
C61 C 0.02377(13) 0.69381(18) 0.15740(7)
C71 C 0.08773(13) 0.70041(17) 0.13412(6)
C72 C 0.02073(18) 0.72953(14) 0.19043(6)
C83 C 0.07870(14) 0.7021(2) 0.09660(6)
C84 C 0.15576(13) 0.70616(15) 0.14860(5)
H49 H 0.0607 0.7579 0.1981
C94 C 0.14017(12) 0.70648(16) 0.07491(5)
H57 H 0.0317 0.7003 0.0863
C95 C 0.21634(12) 0.71174(13) 0.12626(5)
H58 H 0.1618 0.7064 0.1738
H59 H 0.0170 0.8491 0.2321
C105 C 0.20756(11) 0.71181(12) 0.08959(5)
H65 H 0.1350 0.7057 0.0497
H66 H 0.2634 0.7155 0.1363
H67 H 0.0158 0.9076 0.2868
C109 C 0.27275(10) 0.70674(10) 0.06643(4)
O49 O 0.33332(7) 0.70446(7) 0.08221(3)
O50 O 0.26496(7) 0.70431(8) 0.03306(3)
Al19 Al 0.40721(3) 0.63454(3) 0.07891(2)
Al20 Al 0.33408(3) 0.66592(3) 0.0000
Al21_2 Al 0.0000 1.0000 0.38726(2)
H71 H 0.0424 0.2949 0.6109
C112 C 0.00598(11) 0.15413(10) 0.61428(4)
O55 O 0.06898(8) 0.16041(7) 0.60216(3)
Al20_2 Al 0.33408(3) 0.66592(3) 1.0000
Al23 Al 0.13454(3) 0.09279(3) 0.57891(2)
Al24 Al 0.0000 -0.0000 0.61274(2)
Al24_2 Al 0.0000 1.0000 0.61274(2)
Al21_3 Al 1.0000 0.0000 0.38726(2)
O1 O 0.37146(6) 0.60635(7) 0.03483(3)
O2 O 0.40161(8) 0.74194(8) 0.01163(3)
H1 H 0.3725 0.5560 0.0297
C1 C 0.45279(13) 0.75035(13) 0.03340(5)
O4 O 0.48056(6) 0.56926(7) 0.07888(3)
O5 O 0.43569(8) 0.66806(8) 0.12502(3)
O6 O 0.46891(7) 0.70772(8) 0.05861(3)
O8 O 0.33959(7) 0.56898(8) 0.10216(3)
H2 H 0.4819 0.7924 0.0307
Al3 Al 0.5000 0.5000 0.11274(2)
H3 H 0.5126 0.5711 0.0590
C2 C 0.34587(10) 0.50598(11) 0.11428(4)
O9 O 0.47982(8) 0.56734(9) 0.15034(3)
O10 O 0.59711(7) 0.52978(8) 0.11597(3)
C4 C 0.27928(11) 0.46968(14) 0.12859(5)
C6 C 0.21094(11) 0.49820(16) 0.12354(6)
C7 C 0.28828(12) 0.40603(16) 0.14831(6)
H4 H 0.2051 0.5424 0.1109
C10 C 0.15115(14) 0.46245(18) 0.13689(7)
C11 C 0.22902(14) 0.37025(18) 0.16155(7)
H5 H 0.3355 0.3875 0.1525
C14 C 0.15940(13) 0.39563(19) 0.15567(7)
H8 H 0.1042 0.4824 0.1336
H9 H 0.2358 0.3272 0.1750
C16 C 0.09651(14) 0.3531(2) 0.16795(7)
C18 C 0.03579(14) 0.34678(19) 0.14647(7)
C19 C 0.09731(14) 0.31837(19) 0.20114(7)
H12 H 0.0347 0.3705 0.1240
H13 H 0.1379 0.3240 0.2165
O19 O 0.51944(6) 0.43074(7) 0.07888(3)
O20 O 0.52018(8) 0.43266(9) 0.15034(3)
O21 O 0.40289(7) 0.47022(8) 0.11597(3)
Al6 Al 0.59279(3) 0.36546(3) 0.07891(2)
H22 H 0.4874 0.4289 0.0590
C30 C 0.65413(10) 0.49402(11) 0.11428(4)
O27 O 0.62854(6) 0.39365(7) 0.03483(3)
O28 O 0.56431(8) 0.33194(8) 0.12502(3)
O29 O 0.53109(7) 0.29228(8) 0.05861(3)
O30 O 0.66668(7) 0.29554(7) 0.08221(3)
O31 O 0.66041(7) 0.43102(8) 0.10216(3)
C32 C 0.72072(11) 0.53032(14) 0.12859(5)
H24 H 0.6275 0.4440 0.0297
Al8 Al 0.66592(3) 0.33408(3) 0.0000
C34 C 0.54721(13) 0.24965(13) 0.03340(5)
C35 C 0.78906(11) 0.50180(16) 0.12354(6)
C36 C 0.71172(12) 0.59397(16) 0.14831(6)
O37 O 0.59839(8) 0.25806(8) 0.01163(3)
O40 O 0.73504(7) 0.29569(8) 0.03306(3)
H26 H 0.5181 0.2076 0.0307
H27 H 0.7949 0.4576 0.1109
C40 C 0.84885(14) 0.53755(18) 0.13689(7)
C41 C 0.77098(14) 0.62975(18) 0.16155(7)
H28 H 0.6645 0.6125 0.1525
C44 C 0.84060(13) 0.60437(19) 0.15567(7)
H32 H 0.8958 0.5176 0.1336
H33 H 0.7642 0.6728 0.1750
C47 C 0.90349(14) 0.6469(2) 0.16795(7)
C48 C 0.03996(19) 0.27618(14) 0.21187(6)
C52 C 0.96421(14) 0.65322(19) 0.14647(7)
C53 C 0.90269(14) 0.68163(19) 0.20114(7)
C55 C 0.04119(18) 0.23792(13) 0.24715(6)
H37 H 0.9653 0.6295 0.1240
C62 C 0.96004(19) 0.72382(14) 0.21187(6)
H38 H 0.8621 0.6760 0.2165
C63 C 0.00715(18) 0.17264(14) 0.25172(6)
C64 C 0.07587(17) 0.27007(14) 0.27674(6)
C73 C 0.95881(18) 0.76208(13) 0.24715(6)
C74 C 0.00734(15) 0.13801(13) 0.28437(5)
C75 C 0.07484(16) 0.23527(12) 0.30931(6)
H44 H 0.0998 0.3153 0.2742
C85 C 0.99285(18) 0.82736(14) 0.25172(6)
C86 C 0.92413(17) 0.72993(14) 0.27674(6)
C87 C 0.04072(14) 0.16887(11) 0.31351(5)
H51 H 0.0979 0.2571 0.3293
C96 C 0.99266(15) 0.86199(13) 0.28437(5)
C97 C 0.92516(16) 0.76473(12) 0.30931(6)
H60 H 0.9002 0.6847 0.2742
C98 C 0.04181(13) 0.13105(10) 0.34914(5)
C106 C 0.95928(14) 0.83113(11) 0.31351(5)
H68 H 0.9021 0.7429 0.3293
O43 O 0.06431(8) 0.16806(8) 0.37498(3)
O44 O 0.02018(8) 0.06734(9) 0.34966(3)
C110 C 0.95819(13) 0.86895(10) 0.34914(5)
Al11 Al 0.90721(3) 0.86546(3) 0.42109(2)
Al13 Al 0.09279(3) 0.13454(3) 0.42109(2)
O51 O 0.93569(8) 0.83194(8) 0.37498(3)
O52 O 0.97982(8) 0.93266(9) 0.34966(3)
Al21_4 Al 1.0000 1.0000 0.38726(2)
O3 O 0.29569(8) 0.73504(7) 0.96694(3)
C3 C 0.36895(10) 0.54181(13) 0.84914(5)
C5 C 0.33113(11) 0.54072(14) 0.81351(5)
C8 C 0.36199(13) 0.50734(15) 0.78437(5)
C9 C 0.26473(12) 0.57484(16) 0.80931(6)
H6 H 0.4076 0.4842 0.7868
C12 C 0.32736(14) 0.50715(18) 0.75172(6)
C13 C 0.22993(14) 0.57587(17) 0.77674(6)
H7 H 0.2429 0.5979 0.8293
C15 C 0.26208(13) 0.54119(18) 0.74715(6)
H10 H 0.3491 0.4830 0.7321
H11 H 0.1847 0.5998 0.7742
C17 C 0.22382(14) 0.53996(19) 0.71187(6)
C20 C 0.22953(14) 0.47927(18) 0.69043(6)
H14 H 0.2579 0.4393 0.6981
O11 O 0.39365(7) 0.62854(6) 0.96517(3)
O13 O 0.25806(8) 0.59839(8) 0.98837(3)
Al4 Al 0.36546(3) 0.59279(3) 0.92109(2)
H19 H 0.4440 0.6275 0.9703
C29 C 0.24965(13) 0.54721(13) 0.96660(5)
O14 O 0.43074(7) 0.51944(6) 0.92112(3)
O15 O 0.33194(8) 0.56431(8) 0.87498(3)
O16 O 0.29228(8) 0.53109(7) 0.94139(3)
O17 O 0.29554(7) 0.66668(7) 0.91779(3)
O18 O 0.43102(8) 0.66041(7) 0.89784(3)
H20 H 0.2076 0.5181 0.9693
Al5 Al 0.5000 0.5000 0.88726(2)
H21 H 0.4289 0.4874 0.9410
O22 O 0.43266(9) 0.52018(8) 0.84966(3)
O23 O 0.56926(7) 0.48056(6) 0.92112(3)
O24 O 0.56734(9) 0.47982(8) 0.84966(3)
O25 O 0.47022(8) 0.40289(7) 0.88403(3)
O26 O 0.52978(8) 0.59711(7) 0.88403(3)
Al7 Al 0.63454(3) 0.40721(3) 0.92109(2)
H23 H 0.5711 0.5126 0.9410
C31 C 0.63105(10) 0.45819(13) 0.84914(5)
O32 O 0.60635(7) 0.37146(6) 0.96517(3)
O33 O 0.66806(8) 0.43569(8) 0.87498(3)
O34 O 0.70772(8) 0.46891(7) 0.94139(3)
O35 O 0.70446(7) 0.33332(7) 0.91779(3)
O36 O 0.56898(8) 0.33959(7) 0.89784(3)
C33 C 0.66887(11) 0.45928(14) 0.81351(5)
Al8_2 Al 0.66592(3) 0.33408(3) 1.0000
H25 H 0.5560 0.3725 0.9703
C37 C 0.75035(13) 0.45279(13) 0.96660(5)
C38 C 0.63801(13) 0.49266(15) 0.78437(5)
C39 C 0.73527(12) 0.42516(16) 0.80931(6)
O38 O 0.74194(8) 0.40161(8) 0.98837(3)
O39 O 0.70431(8) 0.26496(7) 0.96694(3)
H29 H 0.7924 0.4819 0.9693
H30 H 0.5924 0.5158 0.7868
C42 C 0.67264(14) 0.49285(18) 0.75172(6)
C43 C 0.77007(14) 0.42413(17) 0.77674(6)
H31 H 0.7571 0.4021 0.8293
C45 C 0.73792(13) 0.45881(18) 0.74715(6)
H34 H 0.6509 0.5170 0.7321
H35 H 0.8153 0.4002 0.7742
C46 C 0.18163(19) 0.59731(14) 0.70114(7)
C49 C 0.77618(14) 0.46004(19) 0.71187(6)
C50 C 0.19381(18) 0.47623(13) 0.65740(7)
C51 C 0.1469(2) 0.59651(14) 0.66795(7)
H36 H 0.1760 0.6379 0.7165
C56 C 0.77047(14) 0.52073(18) 0.69043(6)
C57 C 0.81837(19) 0.40269(14) 0.70114(7)
C58 C 0.20041(17) 0.41227(13) 0.63412(6)
C59 C 0.15322(19) 0.53579(14) 0.64647(7)
C60 C 0.10437(19) 0.65940(13) 0.65567(7)
H40 H 0.7421 0.5607 0.6981
C65 C 0.80619(18) 0.52377(13) 0.65740(7)
C66 C 0.8531(2) 0.40349(14) 0.66795(7)
H41 H 0.8240 0.3621 0.7165
C67 C 0.2021(2) 0.42130(14) 0.59660(6)
C68 C 0.20616(15) 0.34424(13) 0.64860(5)
H42 H 0.1295 0.5347 0.6240
C69 C 0.03755(18) 0.65115(14) 0.63689(7)
C70 C 0.12975(18) 0.72902(14) 0.66155(7)
C76 C 0.79959(17) 0.58773(13) 0.63412(6)
C77 C 0.84678(19) 0.46421(14) 0.64647(7)
C78 C 0.89563(19) 0.34060(13) 0.65567(7)
C79 C 0.20648(16) 0.35983(12) 0.57491(5)
H45 H 0.2003 0.4683 0.5863
C80 C 0.21174(13) 0.28366(12) 0.62626(5)
H46 H 0.2064 0.3382 0.6738
C81 C 0.00180(16) 0.71094(11) 0.62354(6)
H47 H 0.0176 0.6042 0.6336
C82 C 0.09397(16) 0.78828(12) 0.64831(6)
H48 H 0.1728 0.7358 0.6750
C88 C 0.7979(2) 0.57870(14) 0.59660(6)
C89 C 0.79384(15) 0.65576(13) 0.64860(5)
H52 H 0.8705 0.4653 0.6240
C90 C 0.96245(18) 0.34885(14) 0.63689(7)
C91 C 0.87025(18) 0.27098(14) 0.66155(7)
C92 C 0.21181(12) 0.29244(11) 0.58959(5)
H53 H 0.2057 0.3650 0.5497
H54 H 0.2155 0.2366 0.6363
C93 C 0.03032(14) 0.77928(11) 0.62859(5)
H56 H 0.1125 0.8355 0.6525
C99 C 0.79352(16) 0.64017(12) 0.57491(5)
H61 H 0.7997 0.5317 0.5863
C100 C 0.78826(13) 0.71634(12) 0.62626(5)
H62 H 0.7936 0.6618 0.6738
C101 C 0.99820(16) 0.28906(11) 0.62354(6)
H63 H 0.9824 0.3958 0.6336
C102 C 0.90603(16) 0.21172(12) 0.64831(6)
H64 H 0.8272 0.2642 0.6750
C103 C 0.20674(10) 0.22725(10) 0.56643(4)
C107 C 0.78819(12) 0.70756(11) 0.58959(5)
H69 H 0.7943 0.6350 0.5497
H70 H 0.7845 0.7634 0.6363
C108 C 0.96968(14) 0.22072(11) 0.62859(5)
H72 H 0.8875 0.1645 0.6525
O45 O 0.20446(7) 0.16668(7) 0.58221(3)
O46 O 0.20431(8) 0.23504(7) 0.53306(3)
O48 O 0.02978(8) 0.90289(7) 0.61597(3)
C111 C 0.79326(10) 0.77275(10) 0.56643(4)
Al16 Al 0.16592(3) 0.16592(3) 0.5000
Al18 Al 0.86546(3) 0.90721(3) 0.57891(2)
O53 O 0.79554(7) 0.83332(7) 0.58221(3)
O54 O 0.79569(8) 0.76496(7) 0.53306(3)
O56 O 0.97022(8) 0.09711(7) 0.61597(3)
Al22 Al 0.83408(3) 0.83408(3) 0.5000
Al24_3 Al 1.0000 -0.0000 0.61274(2)
Al24_4 Al 1.0000 1.0000 0.61274(2)
C21 C 0.97623(13) 0.30619(18) 0.15740(7)
C22 C 0.91227(13) 0.29959(17) 0.13412(6)
C23 C 0.92130(14) 0.2979(2) 0.09660(6)
C24 C 0.84424(13) 0.29384(15) 0.14860(5)
C25 C 0.85983(12) 0.29352(16) 0.07491(5)
H15 H 0.9683 0.2997 0.0863
C26 C 0.78366(12) 0.28826(13) 0.12626(5)
H16 H 0.8382 0.2936 0.1738
C27 C 0.79244(11) 0.28819(12) 0.08959(5)
H17 H 0.8650 0.2943 0.0497
H18 H 0.7366 0.2845 0.1363
C28 C 0.72725(10) 0.29326(10) 0.06643(4)
C54 C 0.97927(18) 0.27047(14) 0.19043(6)
H39 H 0.9393 0.2421 0.1981
H43 H 0.9830 0.1509 0.2321
H50 H 0.9842 0.0924 0.2868
H55 H 0.9576 0.7051 0.6109
C104 C 0.99402(11) 0.84587(10) 0.61428(4)
O47 O 0.93102(8) 0.83959(7) 0.60216(3)
O19_2 O 0.06926(7) 0.01944(6) 0.57888(3)
O20_2 O 0.06734(9) 0.02018(8) 0.65034(3)
O23_2 O 0.01944(6) 0.06926(7) 0.42112(3)
O27_2 O 0.10635(7) 0.12854(6) 0.53483(3)
O28_2 O 0.16806(8) 0.06431(8) 0.62502(3)
O29_2 O 0.20772(8) 0.03109(7) 0.55861(3)
O32_2 O 0.12854(6) 0.10635(7) 0.46517(3)
O34_2 O 0.03109(7) 0.20772(8) 0.44139(3)
O35_2 O 0.16668(7) 0.20446(7) 0.41779(3)
O36_2 O 0.16041(7) 0.06898(8) 0.39784(3)
H24_2 H 0.0560 0.1275 0.5297
C34_2 C 0.25035(13) 0.04721(13) 0.53340(5)
H25_2 H 0.1275 0.0560 0.4703
C37_2 C 0.04721(13) 0.25035(13) 0.46660(5)
O37_2 O 0.24194(8) 0.09839(8) 0.51163(3)
O38_2 O 0.09839(8) 0.24194(8) 0.48837(3)
O39_2 O 0.23504(7) 0.20431(8) 0.46694(3)
H26_2 H 0.2924 0.0181 0.5307
H29_2 H 0.0181 0.2924 0.4693
H21_2 H 0.0126 0.9289 0.4410
O25_2 O 0.09711(7) 0.97022(8) 0.38403(3)
H22_2 H 0.0711 0.9874 0.5590
H3_2 H 0.9289 0.0126 0.5590
O26_2 O 0.90289(7) 0.02978(8) 0.38403(3)
H23_2 H 0.9874 0.0711 0.4410
O1_2 O 0.89365(7) 0.87146(6) 0.53483(3)
O2_2 O 0.75806(8) 0.90161(8) 0.51163(3)
O3_2 O 0.76496(7) 0.79569(8) 0.46694(3)
H1_2 H 0.9440 0.8725 0.5297
C1_2 C 0.74965(13) 0.95279(13) 0.53340(5)
O4_2 O 0.93074(7) 0.98056(6) 0.57888(3)
O5_2 O 0.83194(8) 0.93569(8) 0.62502(3)
O6_2 O 0.79228(8) 0.96891(7) 0.55861(3)
H2_2 H 0.7076 0.9819 0.5307
O9_2 O 0.93266(9) 0.97982(8) 0.65034(3)
O11_2 O 0.87146(6) 0.89365(7) 0.46517(3)
O13_2 O 0.90161(8) 0.75806(8) 0.48837(3)
H19_2 H 0.8725 0.9440 0.4703
C29_2 C 0.95279(13) 0.74965(13) 0.46660(5)
O14_2 O 0.98056(6) 0.93074(7) 0.42112(3)
O16_2 O 0.96891(7) 0.79228(8) 0.44139(3)
O17_2 O 0.83332(7) 0.79554(7) 0.41779(3)
O18_2 O 0.83959(7) 0.93102(8) 0.39784(3)
H20_2 H 0.9819 0.7076 0.4693
C30_2 C 0.15413(10) 0.00598(11) 0.38572(4)
C31_2 C 0.13105(10) 0.04181(13) 0.65086(5)
C33_2 C 0.16887(11) 0.04072(14) 0.68649(5)
C38_2 C 0.13801(13) 0.00734(15) 0.71563(5)
C39_2 C 0.23527(12) 0.07484(16) 0.69069(6)
H27_2 H 0.2949 0.0424 0.3891
C42_2 C 0.17264(14) 0.00715(18) 0.74828(6)
C43_2 C 0.27007(14) 0.07587(17) 0.72326(6)
H31_2 H 0.2571 0.0979 0.6707
C45_2 C 0.23792(13) 0.04119(18) 0.75285(6)
H35_2 H 0.3153 0.0998 0.7258
C49_2 C 0.27618(14) 0.03996(19) 0.78813(6)
C57_2 C 0.31837(19) 0.09731(14) 0.79886(7)
C66_2 C 0.3531(2) 0.09651(14) 0.83205(7)
H41_2 H 0.3240 0.1379 0.7835
C77_2 C 0.34678(19) 0.03579(14) 0.85353(7)
C78_2 C 0.39563(19) 0.15940(13) 0.84433(7)
H52_2 H 0.3705 0.0347 0.8760
C90_2 C 0.46245(18) 0.15115(14) 0.86311(7)
C91_2 C 0.37025(18) 0.22902(14) 0.83845(7)
C101_2 C 0.49820(16) 0.21094(11) 0.87646(6)
H63_2 H 0.4824 0.1042 0.8664
C102_2 C 0.40603(16) 0.28828(12) 0.85169(6)
H64_2 H 0.3272 0.2358 0.8250
C108_2 C 0.46968(14) 0.27928(11) 0.87141(5)
H71_2 H 0.5424 0.2051 0.8891
H72_2 H 0.3875 0.3355 0.8475
C112_2 C 0.50598(11) 0.34587(10) 0.88572(4)
C32_2 C 0.22072(11) 0.96968(14) 0.37141(5)
C35_2 C 0.28906(11) 0.99820(16) 0.37646(6)
C36_2 C 0.21172(12) 0.90603(16) 0.35169(6)
C40_2 C 0.34885(14) 0.96245(18) 0.36311(7)
C41_2 C 0.27098(14) 0.87025(18) 0.33845(7)
H28_2 H 0.1645 0.8875 0.3475
H30_2 H 0.0924 0.9842 0.7132
C44_2 C 0.34060(13) 0.89563(19) 0.34433(7)
H32_2 H 0.3958 0.9824 0.3664
H33_2 H 0.2642 0.8272 0.3250
H34_2 H 0.1509 0.9830 0.7679
C47_2 C 0.40349(14) 0.8531(2) 0.33205(7)
C52_2 C 0.46421(14) 0.84678(19) 0.35353(7)
C53_2 C 0.40269(14) 0.81837(19) 0.29886(7)
C56_2 C 0.27047(14) 0.97927(18) 0.80957(6)
C61_2 C 0.52377(13) 0.80619(18) 0.34260(7)
H37_2 H 0.4653 0.8705 0.3760
C62_2 C 0.46004(19) 0.77618(14) 0.28813(6)
H38_2 H 0.3621 0.8240 0.2835
H40_2 H 0.2421 0.9393 0.8019
C65_2 C 0.30619(18) 0.97623(13) 0.84260(7)
C71_2 C 0.58773(13) 0.79959(17) 0.36588(6)
C72_2 C 0.52073(18) 0.77047(14) 0.30957(6)
C73_2 C 0.45881(18) 0.73792(13) 0.25285(6)
C76_2 C 0.29959(17) 0.91227(13) 0.86588(6)
C83_2 C 0.57870(14) 0.7979(2) 0.40340(6)
C84_2 C 0.65576(13) 0.79384(15) 0.35140(5)
H49_2 H 0.5607 0.7421 0.3019
C85_2 C 0.49285(18) 0.67264(14) 0.24828(6)
C86_2 C 0.42413(17) 0.77007(14) 0.22326(6)
C88_2 C 0.2979(2) 0.92130(14) 0.90340(6)
C89_2 C 0.29384(15) 0.84424(13) 0.85140(5)
C94_2 C 0.64017(12) 0.79352(16) 0.42509(5)
H57_2 H 0.5317 0.7997 0.4137
C95_2 C 0.71634(12) 0.78826(13) 0.37374(5)
H58_2 H 0.6618 0.7936 0.3262
C96_2 C 0.49266(15) 0.63801(13) 0.21563(5)
H59_2 H 0.5170 0.6509 0.2679
C97_2 C 0.42516(16) 0.73527(12) 0.19069(6)
H60_2 H 0.4002 0.8153 0.2258
C99_2 C 0.29352(16) 0.85983(12) 0.92509(5)
H61_2 H 0.2997 0.9683 0.9137
C100_2 C 0.28826(13) 0.78366(12) 0.87374(5)
H62_2 H 0.2936 0.8382 0.8262
C105_2 C 0.70756(11) 0.78819(12) 0.41041(5)
H65_2 H 0.6350 0.7943 0.4503
H66_2 H 0.7634 0.7845 0.3637
C106_2 C 0.45928(14) 0.66887(11) 0.18649(5)
H67_2 H 0.5158 0.5924 0.2132
H68_2 H 0.4021 0.7571 0.1707
C107_2 C 0.28819(12) 0.79244(11) 0.91041(5)
H69_2 H 0.2943 0.8650 0.9503
H70_2 H 0.2845 0.7366 0.8637
C109_2 C 0.77275(10) 0.79326(10) 0.43357(4)
C110_2 C 0.45819(13) 0.63105(10) 0.15086(5)
C111_2 C 0.29326(10) 0.72725(10) 0.93357(4)
C4_2 C 0.77928(11) 0.03032(14) 0.37141(5)
C6_2 C 0.71094(11) 0.00180(16) 0.37646(6)
C7_2 C 0.78828(12) 0.09397(16) 0.35169(6)
C10_2 C 0.65115(14) 0.03755(18) 0.36311(7)
C11_2 C 0.72902(14) 0.12975(18) 0.33845(7)
H5_2 H 0.8355 0.1125 0.3475
H6_2 H 0.9076 0.0158 0.7132
C14_2 C 0.65940(13) 0.10437(19) 0.34433(7)
H8_2 H 0.6042 0.0176 0.3664
H9_2 H 0.7358 0.1728 0.3250
H10_2 H 0.8491 0.0170 0.7679
C16_2 C 0.59651(14) 0.1469(2) 0.33205(7)
C18_2 C 0.53579(14) 0.15322(19) 0.35353(7)
C19_2 C 0.59731(14) 0.18163(19) 0.29886(7)
C20_2 C 0.72953(14) 0.02073(18) 0.80957(6)
C21_2 C 0.47623(13) 0.19381(18) 0.34260(7)
H12_2 H 0.5347 0.1295 0.3760
H13_2 H 0.6379 0.1760 0.2835
H14_2 H 0.7579 0.0607 0.8019
C22_2 C 0.41227(13) 0.20041(17) 0.36588(6)
C23_2 C 0.42130(14) 0.2021(2) 0.40340(6)
C24_2 C 0.34424(13) 0.20616(15) 0.35140(5)
C25_2 C 0.35983(12) 0.20648(16) 0.42509(5)
H15_2 H 0.4683 0.2003 0.4137
C26_2 C 0.28366(12) 0.21174(13) 0.37374(5)
H16_2 H 0.3382 0.2064 0.3262
C27_2 C 0.29244(11) 0.21181(12) 0.41041(5)
H17_2 H 0.3650 0.2057 0.4503
H18_2 H 0.2366 0.2155 0.3637
C28_2 C 0.22725(10) 0.20674(10) 0.43357(4)
C48_2 C 0.53996(19) 0.22382(14) 0.28813(6)
C50_2 C 0.69381(18) 0.02377(13) 0.84260(7)
C54_2 C 0.47927(18) 0.22953(14) 0.30957(6)
C55_2 C 0.54119(18) 0.26208(13) 0.25285(6)
C58_2 C 0.70041(17) 0.08773(13) 0.86588(6)
H39_2 H 0.4393 0.2579 0.3019
C63_2 C 0.50715(18) 0.32736(14) 0.24828(6)
C64_2 C 0.57587(17) 0.22993(14) 0.22326(6)
C67_2 C 0.7021(2) 0.07870(14) 0.90340(6)
C68_2 C 0.70616(15) 0.15576(13) 0.85140(5)
C74_2 C 0.50734(15) 0.36199(13) 0.21563(5)
H43_2 H 0.4830 0.3491 0.2679
C75_2 C 0.57484(16) 0.26473(12) 0.19069(6)
H44_2 H 0.5998 0.1847 0.2258
C79_2 C 0.70648(16) 0.14017(12) 0.92509(5)
H45_2 H 0.7003 0.0317 0.9137
C80_2 C 0.71174(13) 0.21634(12) 0.87374(5)
H46_2 H 0.7064 0.1618 0.8262
C87_2 C 0.54072(14) 0.33113(11) 0.18649(5)
H50_2 H 0.4842 0.4076 0.2132
H51_2 H 0.5979 0.2429 0.1707
C92_2 C 0.71181(12) 0.20756(11) 0.91041(5)
H53_2 H 0.7057 0.1350 0.9503
H54_2 H 0.7155 0.2634 0.8637
C98_2 C 0.54181(13) 0.36895(10) 0.15086(5)
C103_2 C 0.70674(10) 0.27275(10) 0.93357(4)
C2_2 C 0.84587(10) 0.99402(11) 0.38572(4)
C3_2 C 0.86895(10) 0.95819(13) 0.65086(5)
C5_2 C 0.83113(11) 0.95928(14) 0.68649(5)
C8_2 C 0.86199(13) 0.99266(15) 0.71563(5)
C9_2 C 0.76473(12) 0.92516(16) 0.69069(6)
H4_2 H 0.7051 0.9576 0.3891
C12_2 C 0.82736(14) 0.99285(18) 0.74828(6)
C13_2 C 0.72993(14) 0.92413(17) 0.72326(6)
H7_2 H 0.7429 0.9021 0.6707
C15_2 C 0.76208(13) 0.95881(18) 0.75285(6)
H11_2 H 0.6847 0.9002 0.7258
C17_2 C 0.72382(14) 0.96004(19) 0.78813(6)
C46_2 C 0.68163(19) 0.90269(14) 0.79886(7)
C51_2 C 0.6469(2) 0.90349(14) 0.83205(7)
H36_2 H 0.6760 0.8621 0.7835
C59_2 C 0.65322(19) 0.96421(14) 0.85353(7)
C60_2 C 0.60437(19) 0.84060(13) 0.84433(7)
H42_2 H 0.6295 0.9653 0.8760
C69_2 C 0.53755(18) 0.84885(14) 0.86311(7)
C70_2 C 0.62975(18) 0.77098(14) 0.83845(7)
C81_2 C 0.50180(16) 0.78906(11) 0.87646(6)
H47_2 H 0.5176 0.8958 0.8664
C82_2 C 0.59397(16) 0.71172(12) 0.85169(6)
H48_2 H 0.6728 0.7642 0.8250
C93_2 C 0.53032(14) 0.72072(11) 0.87141(5)
H55_2 H 0.4576 0.7949 0.8891
H56_2 H 0.6125 0.6645 0.8475
C104_2 C 0.49402(11) 0.65413(10) 0.88572(4)
loop_
_geom_bond_atom_site_label_1
_geom_bond_atom_site_label_2
_geom_bond_site_symmetry_1
_geom_bond_site_symmetry_2
C71 C61 1_555 1_555
C72 C61 1_555 1_555
C83 C71 1_555 1_555
C84 C71 1_555 1_555
H49 C72 1_555 1_555
C94 C83 1_555 1_555
H57 C83 1_555 1_555
C95 C84 1_555 1_555
H58 C84 1_555 1_555
C105 C94 1_555 1_555
H65 C94 1_555 1_555
H66 C95 1_555 1_555
C109 C105 1_555 1_555
O49 C109 1_555 1_555
O50 C109 1_555 1_555
Al19 O49 1_555 1_555
Al20 O50 1_555 1_555
C95 C105 1_555 1_555
O55 C112 1_555 1_555
Al23 O55 1_555 1_555
Al20 O1 1_555 1_555
O1 Al19 1_555 1_555
O2 Al20 1_555 1_555
Al19 O4 1_555 1_555
H1 O1 1_555 1_555
C1 O2 1_555 1_555
O4 Al3 1_555 1_555
O5 Al19 1_555 1_555
O6 Al19 1_555 1_555
O8 Al19 1_555 1_555
H2 C1 1_555 1_555
Al3 O9 1_555 1_555
H3 O4 1_555 1_555
C2 O8 1_555 1_555
O10 Al3 1_555 1_555
C4 C2 1_555 1_555
C6 C4 1_555 1_555
C7 C4 1_555 1_555
H4 C6 1_555 1_555
C10 C6 1_555 1_555
C11 C7 1_555 1_555
H5 C7 1_555 1_555
C14 C10 1_555 1_555
H8 C10 1_555 1_555
H9 C11 1_555 1_555
C16 C14 1_555 1_555
C18 C16 1_555 1_555
C19 C16 1_555 1_555
H12 C18 1_555 1_555
H13 C19 1_555 1_555
O19 Al3 1_555 1_555
O20 Al3 1_555 1_555
O21 Al3 1_555 1_555
Al6 O19 1_555 1_555
H22 O19 1_555 1_555
C30 O10 1_555 1_555
O27 Al6 1_555 1_555
O28 Al6 1_555 1_555
O29 Al6 1_555 1_555
O30 Al6 1_555 1_555
O31 Al6 1_555 1_555
C32 C30 1_555 1_555
H24 O27 1_555 1_555
Al8 O27 1_555 1_555
C34 O29 1_555 1_555
C35 C32 1_555 1_555
C36 C32 1_555 1_555
O37 Al8 1_555 1_555
O40 Al8 1_555 1_555
H26 C34 1_555 1_555
H27 C35 1_555 1_555
C40 C35 1_555 1_555
C41 C36 1_555 1_555
H28 C36 1_555 1_555
C44 C40 1_555 1_555
H32 C40 1_555 1_555
H33 C41 1_555 1_555
C47 C44 1_555 1_555
C48 C19 1_555 1_555
C52 C47 1_555 1_555
C53 C47 1_555 1_555
C55 C48 1_555 1_555
H37 C52 1_555 1_555
C62 C53 1_555 1_555
H38 C53 1_555 1_555
C63 C55 1_555 1_555
C64 C55 1_555 1_555
C73 C62 1_555 1_555
C74 C63 1_555 1_555
C75 C64 1_555 1_555
H44 C64 1_555 1_555
C85 C73 1_555 1_555
C86 C73 1_555 1_555
C87 C74 1_555 1_555
H51 C75 1_555 1_555
C96 C85 1_555 1_555
C97 C86 1_555 1_555
H60 C86 1_555 1_555
C98 C87 1_555 1_555
C106 C96 1_555 1_555
H68 C97 1_555 1_555
O43 C98 1_555 1_555
O44 C98 1_555 1_555
C110 C106 1_555 1_555
Al11 O51 1_555 1_555
Al13 O43 1_555 1_555
Al21 O44 1_555 1_555
O51 C110 1_555 1_555
O52 C110 1_555 1_555
Al21_4 O52 1_555 1_555
C1 O6 1_555 1_555
C2 O21 1_555 1_555
C11 C14 1_555 1_555
C30 O31 1_555 1_555
C34 O37 1_555 1_555
C41 C44 1_555 1_555
C75 C87 1_555 1_555
C97 C106 1_555 1_555
O3 Al20_2 1_555 1_555
C3 C5 1_555 1_555
C5 C8 1_555 1_555
C8 H6 1_555 1_555
C9 C5 1_555 1_555
C12 C8 1_555 1_555
C13 C9 1_555 1_555
H7 C9 1_555 1_555
C15 C12 1_555 1_555
H10 C12 1_555 1_555
H11 C13 1_555 1_555
C17 C15 1_555 1_555
C20 C17 1_555 1_555
H14 C20 1_555 1_555
O11 Al20_2 1_555 1_555
O13 Al20_2 1_555 1_555
Al4 O11 1_555 1_555
H19 O11 1_555 1_555
C29 O13 1_555 1_555
O14 Al4 1_555 1_555
O15 C3 1_555 1_555
O16 Al4 1_555 1_555
O17 Al4 1_555 1_555
O18 Al4 1_555 1_555
H20 C29 1_555 1_555
Al5 O14 1_555 1_555
H21 O14 1_555 1_555
O22 C3 1_555 1_555
O23 Al5 1_555 1_555
O24 Al5 1_555 1_555
O25 Al5 1_555 1_555
O26 Al5 1_555 1_555
Al7 O23 1_555 1_555
H23 O23 1_555 1_555
C31 O24 1_555 1_555
O32 Al7 1_555 1_555
O33 Al7 1_555 1_555
O34 Al7 1_555 1_555
O35 Al7 1_555 1_555
O36 Al7 1_555 1_555
C33 C31 1_555 1_555
H25 O32 1_555 1_555
C37 O34 1_555 1_555
C38 C33 1_555 1_555
C39 C33 1_555 1_555
O38 Al8_2 1_555 1_555
O39 Al8_2 1_555 1_555
H29 C37 1_555 1_555
H30 C38 1_555 1_555
C42 C38 1_555 1_555
C43 C39 1_555 1_555
H31 C39 1_555 1_555
C45 C42 1_555 1_555
H34 C42 1_555 1_555
H35 C43 1_555 1_555
C46 C17 1_555 1_555
C49 C45 1_555 1_555
C50 C20 1_555 1_555
C51 C46 1_555 1_555
H36 C46 1_555 1_555
C56 C49 1_555 1_555
C57 C49 1_555 1_555
C58 C50 1_555 1_555
C59 C50 1_555 1_555
C60 C51 1_555 1_555
H40 C56 1_555 1_555
C65 C56 1_555 1_555
C66 C57 1_555 1_555
H41 C57 1_555 1_555
C67 C58 1_555 1_555
C68 C58 1_555 1_555
H42 C59 1_555 1_555
C69 C60 1_555 1_555
C70 C60 1_555 1_555
C76 C65 1_555 1_555
C77 C65 1_555 1_555
C78 C66 1_555 1_555
C79 C67 1_555 1_555
H45 C67 1_555 1_555
C80 C68 1_555 1_555
H46 C68 1_555 1_555
C81 C69 1_555 1_555
H47 C69 1_555 1_555
C82 C70 1_555 1_555
H48 C70 1_555 1_555
C88 C76 1_555 1_555
C89 C76 1_555 1_555
H52 C77 1_555 1_555
C90 C78 1_555 1_555
C91 C78 1_555 1_555
C92 C79 1_555 1_555
H53 C79 1_555 1_555
H54 C80 1_555 1_555
C93 C81 1_555 1_555
H56 C82 1_555 1_555
C99 C88 1_555 1_555
H61 C88 1_555 1_555
C100 C89 1_555 1_555
H62 C89 1_555 1_555
C101 C90 1_555 1_555
H63 C90 1_555 1_555
C102 C91 1_555 1_555
H64 C91 1_555 1_555
C103 C92 1_555 1_555
Al24_2 O48 1_555 1_555
C107 C99 1_555 1_555
H69 C99 1_555 1_555
H70 C100 1_555 1_555
C108 C101 1_555 1_555
H72 C102 1_555 1_555
O45 C103 1_555 1_555
O46 C103 1_555 1_555
C111 C107 1_555 1_555
Al23 O45 1_555 1_555
Al16 O46 1_555 1_555
Al18 O53 1_555 1_555
O53 C111 1_555 1_555
O54 C111 1_555 1_555
Al22 O54 1_555 1_555
Al24_3 O56 1_555 1_555
C13 C15 1_555 1_555
Al4 O15 1_555 1_555
C29 O16 1_555 1_555
Al5 O22 1_555 1_555
C31 O33 1_555 1_555
O32 Al8_2 1_555 1_555
C37 O38 1_555 1_555
C43 C45 1_555 1_555
C51 C59 1_555 1_555
C66 C77 1_555 1_555
C80 C92 1_555 1_555
C82 C93 1_555 1_555
C100 C107 1_555 1_555
C102 C108 1_555 1_555
C22 C21 1_555 1_555
C23 C22 1_555 1_555
C24 C22 1_555 1_555
C25 C23 1_555 1_555
H15 C23 1_555 1_555
C26 C24 1_555 1_555
H16 C24 1_555 1_555
C27 C25 1_555 1_555
H17 C25 1_555 1_555
H18 C26 1_555 1_555
C28 C27 1_555 1_555
C54 C21 1_555 1_555
H39 C54 1_555 1_555
O30 C28 1_555 1_555
O40 C28 1_555 1_555
C26 C27 1_555 1_555
O47 C104 1_555 1_555
Al18 O47 1_555 1_555
O19_2 Al24 1_555 1_555
O20_2 Al24 1_555 1_555
O23_2 Al21 1_555 1_555
Al23 O19_2 1_555 1_555
Al13 O23_2 1_555 1_555
O27_2 Al23 1_555 1_555
O28_2 Al23 1_555 1_555
O29_2 Al23 1_555 1_555
O32_2 Al13 1_555 1_555
O34_2 Al13 1_555 1_555
O35_2 Al13 1_555 1_555
O36_2 Al13 1_555 1_555
H24_2 O27_2 1_555 1_555
Al16 O27_2 1_555 1_555
C34_2 O29_2 1_555 1_555
H25_2 O32_2 1_555 1_555
C37_2 O34_2 1_555 1_555
O37_2 Al16 1_555 1_555
O38_2 Al16 1_555 1_555
O39_2 Al16 1_555 1_555
H26_2 C34_2 1_555 1_555
H29_2 C37_2 1_555 1_555
O32_2 Al16 1_555 1_555
C34_2 O37_2 1_555 1_555
C37_2 O38_2 1_555 1_555
O25_2 Al21_2 1_555 1_555
O26_2 Al21_3 1_555 1_555
Al22 O1_2 1_555 1_555
O1_2 Al18 1_555 1_555
O2_2 Al22 1_555 1_555
O3_2 Al22 1_555 1_555
Al18 O4_2 1_555 1_555
H1_2 O1_2 1_555 1_555
C1_2 O2_2 1_555 1_555
O4_2 Al24_4 1_555 1_555
O5_2 Al18 1_555 1_555
O6_2 Al18 1_555 1_555
H2_2 C1_2 1_555 1_555
Al24_4 O9_2 1_555 1_555
O11_2 Al22 1_555 1_555
O13_2 Al22 1_555 1_555
Al11 O11_2 1_555 1_555
H19_2 O11_2 1_555 1_555
C29_2 O13_2 1_555 1_555
O14_2 Al11 1_555 1_555
O16_2 Al11 1_555 1_555
O17_2 Al11 1_555 1_555
O18_2 Al11 1_555 1_555
H20_2 C29_2 1_555 1_555
Al21_4 O14_2 1_555 1_555
C1_2 O6_2 1_555 1_555
C29_2 O16_2 1_555 1_555
C31_2 O20_2 1_555 1_555
C33_2 C31_2 1_555 1_555
C38_2 C33_2 1_555 1_555
C39_2 C33_2 1_555 1_555
C42_2 C38_2 1_555 1_555
C43_2 C39_2 1_555 1_555
H31_2 C39_2 1_555 1_555
C45_2 C42_2 1_555 1_555
H35_2 C43_2 1_555 1_555
C49_2 C45_2 1_555 1_555
C57_2 C49_2 1_555 1_555
C66_2 C57_2 1_555 1_555
H41_2 C57_2 1_555 1_555
C78_2 C66_2 1_555 1_555
H52_2 C77_2 1_555 1_555
C90_2 C78_2 1_555 1_555
C91_2 C78_2 1_555 1_555
C101_2 C90_2 1_555 1_555
H63_2 C90_2 1_555 1_555
C102_2 C91_2 1_555 1_555
H64_2 C91_2 1_555 1_555
C108_2 C101_2 1_555 1_555
H71_2 C101_2 1_555 1_555
H72_2 C102_2 1_555 1_555
C112_2 C108_2 1_555 1_555
O36 C112_2 1_555 1_555
O25 C112_2 1_555 1_555
C30_2 O36_2 1_555 1_555
C31_2 O28_2 1_555 1_555
C43_2 C45_2 1_555 1_555
C66_2 C77_2 1_555 1_555
C102_2 C108_2 1_555 1_555
C35_2 C32_2 1_555 1_555
C36_2 C32_2 1_555 1_555
C40_2 C35_2 1_555 1_555
C41_2 C36_2 1_555 1_555
H28_2 C36_2 1_555 1_555
C44_2 C40_2 1_555 1_555
H32_2 C40_2 1_555 1_555
H33_2 C41_2 1_555 1_555
C47_2 C44_2 1_555 1_555
C52_2 C47_2 1_555 1_555
C53_2 C47_2 1_555 1_555
C61_2 C52_2 1_555 1_555
H37_2 C52_2 1_555 1_555
C62_2 C53_2 1_555 1_555
H38_2 C53_2 1_555 1_555
H40_2 C56_2 1_555 1_555
C65_2 C56_2 1_555 1_555
C71_2 C61_2 1_555 1_555
C72_2 C61_2 1_555 1_555
C73_2 C62_2 1_555 1_555
C76_2 C65_2 1_555 1_555
C83_2 C71_2 1_555 1_555
C84_2 C71_2 1_555 1_555
H49_2 C72_2 1_555 1_555
C85_2 C73_2 1_555 1_555
C86_2 C73_2 1_555 1_555
C88_2 C76_2 1_555 1_555
C89_2 C76_2 1_555 1_555
C94_2 C83_2 1_555 1_555
H57_2 C83_2 1_555 1_555
C95_2 C84_2 1_555 1_555
H58_2 C84_2 1_555 1_555
C96_2 C85_2 1_555 1_555
H59_2 C85_2 1_555 1_555
C97_2 C86_2 1_555 1_555
H60_2 C86_2 1_555 1_555
C99_2 C88_2 1_555 1_555
H61_2 C88_2 1_555 1_555
C100_2 C89_2 1_555 1_555
H62_2 C89_2 1_555 1_555
C105_2 C94_2 1_555 1_555
H65_2 C94_2 1_555 1_555
H66_2 C95_2 1_555 1_555
C106_2 C96_2 1_555 1_555
H67_2 C96_2 1_555 1_555
H68_2 C97_2 1_555 1_555
C107_2 C99_2 1_555 1_555
H69_2 C99_2 1_555 1_555
H70_2 C100_2 1_555 1_555
C109_2 C105_2 1_555 1_555
C110_2 C106_2 1_555 1_555
C111_2 C107_2 1_555 1_555
O17_2 C109_2 1_555 1_555
O3_2 C109_2 1_555 1_555
O5 C110_2 1_555 1_555
O9 C110_2 1_555 1_555
O17 C111_2 1_555 1_555
O3 C111_2 1_555 1_555
C41_2 C44_2 1_555 1_555
C62_2 C72_2 1_555 1_555
C95_2 C105_2 1_555 1_555
C97_2 C106_2 1_555 1_555
C100_2 C107_2 1_555 1_555
C6_2 C4_2 1_555 1_555
C7_2 C4_2 1_555 1_555
C10_2 C6_2 1_555 1_555
C11_2 C7_2 1_555 1_555
H5_2 C7_2 1_555 1_555
C14_2 C10_2 1_555 1_555
H8_2 C10_2 1_555 1_555
H9_2 C11_2 1_555 1_555
C16_2 C14_2 1_555 1_555
C18_2 C16_2 1_555 1_555
C19_2 C16_2 1_555 1_555
C21_2 C18_2 1_555 1_555
H12_2 C18_2 1_555 1_555
H13_2 C19_2 1_555 1_555
H14_2 C20_2 1_555 1_555
C22_2 C21_2 1_555 1_555
C23_2 C22_2 1_555 1_555
C24_2 C22_2 1_555 1_555
C25_2 C23_2 1_555 1_555
H15_2 C23_2 1_555 1_555
C26_2 C24_2 1_555 1_555
H16_2 C24_2 1_555 1_555
C27_2 C25_2 1_555 1_555
H17_2 C25_2 1_555 1_555
H18_2 C26_2 1_555 1_555
C28_2 C27_2 1_555 1_555
C48_2 C19_2 1_555 1_555
C50_2 C20_2 1_555 1_555
C54_2 C21_2 1_555 1_555
C55_2 C48_2 1_555 1_555
C58_2 C50_2 1_555 1_555
H39_2 C54_2 1_555 1_555
C63_2 C55_2 1_555 1_555
C64_2 C55_2 1_555 1_555
C67_2 C58_2 1_555 1_555
C68_2 C58_2 1_555 1_555
C74_2 C63_2 1_555 1_555
H43_2 C63_2 1_555 1_555
C75_2 C64_2 1_555 1_555
H44_2 C64_2 1_555 1_555
C79_2 C67_2 1_555 1_555
H45_2 C67_2 1_555 1_555
C80_2 C68_2 1_555 1_555
H46_2 C68_2 1_555 1_555
C87_2 C74_2 1_555 1_555
H50_2 C74_2 1_555 1_555
H51_2 C75_2 1_555 1_555
C92_2 C79_2 1_555 1_555
H53_2 C79_2 1_555 1_555
H54_2 C80_2 1_555 1_555
C98_2 C87_2 1_555 1_555
C103_2 C92_2 1_555 1_555
O35_2 C28_2 1_555 1_555
O39_2 C28_2 1_555 1_555
O28 C98_2 1_555 1_555
O20 C98_2 1_555 1_555
O35 C103_2 1_555 1_555
O39 C103_2 1_555 1_555
C11_2 C14_2 1_555 1_555
C26_2 C27_2 1_555 1_555
C48_2 C54_2 1_555 1_555
C75_2 C87_2 1_555 1_555
C80_2 C92_2 1_555 1_555
C2_2 O18_2 1_555 1_555
C3_2 C5_2 1_555 1_555
C5_2 C8_2 1_555 1_555
C9_2 C5_2 1_555 1_555
C12_2 C8_2 1_555 1_555
C13_2 C9_2 1_555 1_555
H7_2 C9_2 1_555 1_555
C15_2 C12_2 1_555 1_555
H11_2 C13_2 1_555 1_555
C17_2 C15_2 1_555 1_555
O5_2 C3_2 1_555 1_555
O9_2 C3_2 1_555 1_555
C46_2 C17_2 1_555 1_555
C51_2 C46_2 1_555 1_555
H36_2 C46_2 1_555 1_555
C60_2 C51_2 1_555 1_555
H42_2 C59_2 1_555 1_555
C69_2 C60_2 1_555 1_555
C70_2 C60_2 1_555 1_555
C81_2 C69_2 1_555 1_555
H47_2 C69_2 1_555 1_555
C82_2 C70_2 1_555 1_555
H48_2 C70_2 1_555 1_555
C93_2 C81_2 1_555 1_555
H55_2 C81_2 1_555 1_555
H56_2 C82_2 1_555 1_555
C104_2 C93_2 1_555 1_555
O18 C104_2 1_555 1_555
O26 C104_2 1_555 1_555
C13_2 C15_2 1_555 1_555
C51_2 C59_2 1_555 1_555
C82_2 C93_2 1_555 1_555

#END
