
###############################################################################
#
# This file contains modified crystal structure data generated from the
# MOF subset of the Cambridge Structural Database (CSD) v543 
# hosted by the Cambridge Crystallographic Data Centre (CCDC).
#
# This work is licensed under the Creative Commons
# Attribution-NonCommercial-ShareAlike 4.0 International License.
# To view a copy of this license, visit
# http://creativecommons.org/licenses/by-nc-sa/4.0/
# or send a letter to
# Creative Commons, PO Box 1866, Mountain View, CA 94042, USA.
#
# CIF created using the CSD Python API on 29 September 2022
# The structure has been converted into the P1 space group
# The structure has a 3D framework
# The original CSD entry OTECUN is in the tetragonal crystal system
# The original CSD entry OTECUN is in a Sohncke space group
# The framework has been calculated to contain at least 10.0% void space
# The void calculation uses a probe of radius 1.32A, grid spacing 0.4
# H atom positions have been added when not included in the experimental data
#
###############################################################################

data_OTECUN
_chemical_formula_moiety         '(C288 H176 Al24 O112)n'
_symmetry_cell_setting           triclinic
_symmetry_space_group_name_H-M   'P 1'
_symmetry_Int_Tables_number      1
_space_group_name_Hall           'P 1'
loop_
_symmetry_equiv_pos_site_id
_symmetry_equiv_pos_as_xyz
1 x,y,z
_cell_length_a                   19.0082(15)
_cell_length_b                   19.0082(15)
_cell_length_c                   36.661(3)
_cell_angle_alpha                90
_cell_angle_beta                 90
_cell_angle_gamma                90
_cell_volume                     13246
loop_
_atom_site_label
_atom_site_type_symbol
_atom_site_fract_x
_atom_site_fract_y
_atom_site_fract_z
Al9 Al 0.0000 0.0000 0.88564(10)
Al21 Al -0.0000 0.0000 0.11436(10)
Al9_2 Al 0.0000 1.0000 0.88564(10)
C112 C 0.0018(6) 0.7549(6) 0.3202(3)
H63 H 0.0435 0.7759 0.3109
C114 C 0.0037(7) 0.7235(6) 0.3565(3)
H64 H 0.0024 0.8712 0.2745
H66 H 0.0055 0.9205 0.2190
C130 C 0.0740(6) 0.7192(6) 0.3744(3)
C131 C 0.1408(7) 0.7167(6) 0.3563(3)
H73 H 0.1422 0.7192 0.3305
C132 C 0.1974(7) 0.7115(5) 0.3736(3)
C133 C 0.0738(7) 0.7177(6) 0.4128(3)
H74 H 0.0313 0.7227 0.4262
C134 C 0.1353(7) 0.7091(5) 0.4295(3)
H75 H 0.2406 0.7100 0.3606
C135 C 0.1981(6) 0.7077(6) 0.4112(3)
H76 H 0.1356 0.7036 0.4553
C136 C 0.2640(8) 0.6960(4) 0.4308(3)
Al21_2 Al -0.0000 1.0000 0.11436(10)
O68 O 0.2646(3) 0.6987(3) 0.4679(2)
Al22 Al 0.33476(14) 0.66524(14) 0.5000
O70 O 0.3206(3) 0.6854(3) 0.41237(16)
Al24 Al 0.39712(14) 0.62419(15) 0.41816(7)
C2 C 0.7549(6) 0.0018(6) 0.6798(3)
H3 H 0.7759 0.0435 0.6891
H4 H 0.8712 0.0024 0.7255
H6 H 0.9205 0.0055 0.7810
C17 C 0.7235(6) 0.0037(7) 0.6435(3)
C18 C 0.7167(6) 0.1408(7) 0.6437(3)
H13 H 0.7192 0.1422 0.6695
C19 C 0.7177(6) 0.0738(7) 0.5872(3)
H14 H 0.7227 0.0313 0.5738
C20 C 0.7192(6) 0.0740(6) 0.6256(3)
C22 C 0.7115(5) 0.1974(7) 0.6264(3)
H15 H 0.7100 0.2406 0.6394
C23 C 0.7091(5) 0.1353(7) 0.5705(3)
H16 H 0.7036 0.1356 0.5447
C25 C 0.7077(6) 0.1981(6) 0.5888(3)
O12 O 0.6987(3) 0.2646(3) 0.5321(2)
C36 C 0.6960(4) 0.2640(8) 0.5692(3)
O14 O 0.6854(3) 0.3206(3) 0.58763(16)
Al7 Al 0.66524(14) 0.33476(14) 0.5000
Al9_3 Al 1.0000 0.0000 0.88564(10)
Al11 Al 0.62419(15) 0.39712(14) 0.58184(7)
Al21_3 Al 1.0000 0.0000 0.11436(10)
Al2 Al 0.5000 0.5000 0.61436(10)
Al3 Al 0.37581(15) 0.60288(14) 0.58184(7)
O1 O 0.2964(4) 0.5443(3) 0.5657(2)
O2 O 0.4342(3) 0.5267(2) 0.57982(14)
H1 H 0.4303 0.4977 0.5588
O3 O 0.3957(3) 0.6322(3) 0.53460(13)
H2 H 0.4437 0.6298 0.5275
O4 O 0.4484(4) 0.6615(3) 0.60098(17)
O5 O 0.2624(3) 0.6016(4) 0.51389(17)
C1 C 0.5081(7) 0.6520(7) 0.6108(3)
C3 C 0.8486(7) 0.9775(6) 0.7447(4)
C4 C 0.7555(7) 0.9410(7) 0.7017(3)
C5 C 0.8478(7) 0.9439(5) 0.8089(4)
C6 C 0.6808(6) 0.8873(7) 0.6539(4)
C7 C 0.6866(6) 0.9477(6) 0.6339(3)
H5 H 0.6621 0.9496 0.6114
C8 C 0.7895(8) 0.9428(6) 0.7370(3)
C9 C 0.8782(6) 0.9796(5) 0.7778(4)
O6 O 0.5357(3) 0.5916(4) 0.61593(17)
C10 C 0.7560(7) 0.9079(6) 0.7669(4)
H7 H 0.7124 0.8849 0.7627
C11 C 0.5795(8) 0.8367(6) 0.6256(3)
H8 H 0.5656 0.8841 0.6215
C12 C 0.5326(6) 0.7786(6) 0.6147(3)
H9 H 0.4883 0.7875 0.6036
C13 C 0.7836(6) 0.9062(5) 0.8010(4)
H10 H 0.7607 0.8803 0.8197
C14 C 0.6636(7) 0.7537(7) 0.6483(3)
H11 H 0.7067 0.7446 0.6606
C15 C 0.5545(7) 0.7134(6) 0.6209(3)
C16 C 0.6228(7) 0.6985(6) 0.6374(3)
H12 H 0.6384 0.6514 0.6405
C21 C 0.6436(8) 0.8225(8) 0.6418(3)
C24 C 0.7183(7) 0.8829(6) 0.6896(3)
H17 H 0.7167 0.8410 0.7037
C26 C 0.2559(6) 0.5537(7) 0.5356(3)
O7 O 0.0756(6) 0.5114(7) 0.4433(3)
O8 O 0.1707(8) 0.3359(7) 0.6082(4)
C27 C 0.1136(6) 0.4496(7) 0.4965(3)
C28 C 0.1040(6) 0.3953(6) 0.5214(4)
H18 H 0.0696 0.3601 0.5169
C29 C 0.1447(7) 0.3927(6) 0.5529(3)
C30 C 0.1950(6) 0.4442(7) 0.5594(3)
H19 H 0.2228 0.4424 0.5809
C31 C 0.2046(5) 0.4984(6) 0.5344(4)
C32 C 0.1639(6) 0.5011(6) 0.5030(3)
H20 H 0.1704 0.5382 0.4859
O9 O 0.0355(7) 0.3958(7) 0.4504(3)
C33 C 0.0745(11) 0.4441(10) 0.4618(5)
C34 C 0.1373(12) 0.3329(12) 0.5819(6)
O10 O 0.0896(7) 0.2835(7) 0.5771(4)
O11 O 0.9357(4) 0.9772(3) 0.84698(16)
O13 O 0.8465(4) 0.9165(3) 0.8703(2)
C35 C 0.8810(6) 0.9486(6) 0.8439(3)
O15 O 0.7036(4) 0.4557(3) 0.5657(2)
O16 O 0.5658(3) 0.4733(2) 0.57982(14)
H21 H 0.5697 0.5023 0.5588
O17 O 0.6043(3) 0.3678(3) 0.53460(13)
H22 H 0.5563 0.3702 0.5275
O18 O 0.5516(4) 0.3385(3) 0.60098(17)
O19 O 0.7376(3) 0.3984(4) 0.51389(17)
C37 C 0.4919(7) 0.3480(7) 0.6108(3)
C39 C 0.1514(7) 0.0225(6) 0.7447(4)
C40 C 0.2445(7) 0.0590(7) 0.7017(3)
C41 C 0.1522(7) 0.0561(5) 0.8089(4)
C42 C 0.3192(6) 0.1127(7) 0.6539(4)
C43 C 0.3134(6) 0.0523(6) 0.6339(3)
H25 H 0.3379 0.0504 0.6114
C44 C 0.2105(8) 0.0572(6) 0.7370(3)
C45 C 0.1218(6) 0.0204(5) 0.7778(4)
O20 O 0.4643(3) 0.4084(4) 0.61593(17)
C46 C 0.2440(7) 0.0921(6) 0.7669(4)
H27 H 0.2876 0.1151 0.7627
C47 C 0.4205(8) 0.1633(6) 0.6256(3)
H28 H 0.4344 0.1159 0.6215
C48 C 0.4674(6) 0.2214(6) 0.6147(3)
H29 H 0.5117 0.2125 0.6036
C49 C 0.2164(6) 0.0938(5) 0.8010(4)
H30 H 0.2393 0.1197 0.8197
C50 C 0.3364(7) 0.2463(7) 0.6483(3)
H31 H 0.2933 0.2554 0.6606
C51 C 0.4455(7) 0.2866(6) 0.6209(3)
C52 C 0.3772(7) 0.3015(6) 0.6374(3)
H32 H 0.3616 0.3486 0.6405
C57 C 0.3564(8) 0.1775(8) 0.6418(3)
C60 C 0.2817(7) 0.1171(6) 0.6896(3)
H37 H 0.2833 0.1590 0.7037
C62 C 0.7441(6) 0.4463(7) 0.5356(3)
O21 O 0.9244(6) 0.4886(7) 0.4433(3)
O22 O 0.8293(8) 0.6641(7) 0.6082(4)
C63 C 0.8864(6) 0.5504(7) 0.4965(3)
C64 C 0.8960(6) 0.6047(6) 0.5214(4)
H38 H 0.9304 0.6399 0.5169
C65 C 0.8553(7) 0.6073(6) 0.5529(3)
C66 C 0.8050(6) 0.5558(7) 0.5594(3)
H39 H 0.7772 0.5576 0.5809
C67 C 0.7954(5) 0.5016(6) 0.5344(4)
C68 C 0.8361(6) 0.4989(6) 0.5030(3)
H40 H 0.8296 0.4618 0.4859
O23 O 0.9645(7) 0.6042(7) 0.4504(3)
C69 C 0.9255(11) 0.5559(10) 0.4618(5)
C70 C 0.8627(12) 0.6671(12) 0.5819(6)
O24 O 0.9104(7) 0.7165(7) 0.5771(4)
O25 O 0.0643(4) 0.0228(3) 0.84698(16)
O27 O 0.1535(4) 0.0835(3) 0.8703(2)
C71 C 0.1190(6) 0.0514(6) 0.8439(3)
Al9_4 Al 1.0000 1.0000 0.88564(10)
Al12 Al 0.87581(15) 0.89712(14) 0.91816(7)
Al13 Al 0.12419(15) 0.10288(14) 0.91816(7)
O29 O 0.3678(3) 0.6043(3) 0.46540(13)
O30 O 0.3984(4) 0.7376(3) 0.48611(17)
O31 O 0.4357(4) 0.5228(3) 0.65302(16)
O32 O 0.5643(4) 0.4772(3) 0.65302(16)
O33 O 0.3013(3) 0.7354(3) 0.5321(2)
O35 O 0.3465(4) 0.5835(3) 0.6297(2)
O36 O 0.6535(4) 0.4165(3) 0.6297(2)
O38 O 0.3146(3) 0.6794(3) 0.58763(16)
Al14 Al 0.5000 0.5000 0.38564(10)
O39 O 0.4733(2) 0.5658(3) 0.42018(14)
O40 O 0.4084(4) 0.4643(3) 0.38407(17)
O41 O 0.5267(2) 0.4342(3) 0.42018(14)
O42 O 0.5916(4) 0.5357(3) 0.38407(17)
O43 O 0.4772(3) 0.5643(4) 0.34698(16)
O44 O 0.5228(3) 0.4357(4) 0.34698(16)
O45 O 0.4557(3) 0.7036(4) 0.4343(2)
O46 O 0.3385(3) 0.5516(4) 0.39902(17)
O47 O 0.4165(3) 0.6535(4) 0.3703(2)
C73 C 0.4463(7) 0.7441(6) 0.4644(3)
H41 H 0.5023 0.5697 0.4412
H42 H 0.3702 0.5563 0.4725
C74 C 0.3480(7) 0.4919(7) 0.3892(3)
C75 C 0.2866(6) 0.4455(7) 0.3791(3)
C77 C 0.0590(7) 0.2445(7) 0.2983(3)
C79 C 0.0225(6) 0.1514(7) 0.2553(4)
C80 C 0.0572(6) 0.2105(8) 0.2630(3)
C81 C 0.0204(5) 0.1218(6) 0.2222(4)
C82 C 0.1171(6) 0.2817(7) 0.3104(3)
C83 C 0.0561(5) 0.1522(7) 0.1911(4)
C84 C 0.0938(5) 0.2164(6) 0.1990(4)
C85 C 0.0514(6) 0.1190(6) 0.1561(3)
C86 C 0.1127(7) 0.3192(6) 0.3461(4)
C87 C 0.0523(6) 0.3134(6) 0.3661(3)
C88 C 0.1775(8) 0.3564(8) 0.3582(3)
H45 H 0.0504 0.3379 0.3886
C89 C 0.0921(6) 0.2440(7) 0.2331(4)
H47 H 0.1151 0.2876 0.2373
C90 C 0.1633(6) 0.4205(8) 0.3744(3)
H48 H 0.1159 0.4344 0.3785
C91 C 0.2214(6) 0.4674(6) 0.3853(3)
H49 H 0.2125 0.5117 0.3964
H50 H 0.1197 0.2393 0.1803
C92 C 0.2463(7) 0.3364(7) 0.3517(3)
H51 H 0.2554 0.2933 0.3394
C93 C 0.3015(6) 0.3772(7) 0.3626(3)
H52 H 0.3486 0.3616 0.3595
H57 H 0.1590 0.2833 0.2963
C101 C 0.5016(6) 0.7954(5) 0.4656(4)
O49 O 0.4886(7) 0.9244(6) 0.5567(3)
C102 C 0.5559(10) 0.9255(11) 0.5382(5)
O50 O 0.6641(7) 0.8293(8) 0.3918(4)
C103 C 0.6671(12) 0.8627(12) 0.4181(6)
C104 C 0.5504(7) 0.8864(6) 0.5035(3)
C105 C 0.6047(6) 0.8960(6) 0.4786(4)
C106 C 0.4989(6) 0.8361(6) 0.4970(3)
H58 H 0.6399 0.9304 0.4831
C107 C 0.6073(6) 0.8553(7) 0.4471(3)
C108 C 0.5558(7) 0.8050(6) 0.4406(3)
H59 H 0.5576 0.7772 0.4191
H60 H 0.4618 0.8296 0.5141
O51 O 0.6042(7) 0.9645(7) 0.5496(3)
O52 O 0.7165(7) 0.9104(7) 0.4229(4)
O53 O 0.0228(3) 0.0643(4) 0.15302(16)
O55 O 0.0835(3) 0.1535(4) 0.1297(2)
Al18 Al 0.10288(14) 0.12419(15) 0.08184(7)
Al20 Al 0.60288(14) 0.37581(15) 0.41816(7)
O57 O 0.5443(3) 0.2964(4) 0.4343(2)
O58 O 0.6322(3) 0.3957(3) 0.46540(13)
O59 O 0.6615(3) 0.4484(4) 0.39902(17)
O60 O 0.5835(3) 0.3465(4) 0.3703(2)
O61 O 0.6794(3) 0.3146(3) 0.41237(16)
C109 C 0.5537(7) 0.2559(6) 0.4644(3)
H61 H 0.4977 0.4303 0.4412
H62 H 0.6298 0.4437 0.4725
C110 C 0.6520(7) 0.5081(7) 0.3892(3)
O62 O 0.6016(4) 0.2624(3) 0.48611(17)
C111 C 0.7134(6) 0.5545(7) 0.3791(3)
C113 C 0.9410(7) 0.7555(7) 0.2983(3)
C115 C 0.9775(6) 0.8486(7) 0.2553(4)
C116 C 0.9428(6) 0.7895(8) 0.2630(3)
C117 C 0.9796(5) 0.8782(6) 0.2222(4)
C118 C 0.8829(6) 0.7183(7) 0.3104(3)
C119 C 0.9439(5) 0.8478(7) 0.1911(4)
C120 C 0.9062(5) 0.7836(6) 0.1990(4)
C121 C 0.9486(6) 0.8810(6) 0.1561(3)
C122 C 0.8873(7) 0.6808(6) 0.3461(4)
C123 C 0.9477(6) 0.6866(6) 0.3661(3)
C124 C 0.8225(8) 0.6436(8) 0.3582(3)
H65 H 0.9496 0.6621 0.3886
C125 C 0.9079(6) 0.7560(7) 0.2331(4)
H67 H 0.8849 0.7124 0.2373
C126 C 0.8367(6) 0.5795(8) 0.3744(3)
H68 H 0.8841 0.5656 0.3785
C127 C 0.7786(6) 0.5326(6) 0.3853(3)
H69 H 0.7875 0.4883 0.3964
H70 H 0.8803 0.7607 0.1803
C128 C 0.7537(7) 0.6636(7) 0.3517(3)
H71 H 0.7446 0.7067 0.3394
C129 C 0.6985(6) 0.6228(7) 0.3626(3)
H72 H 0.6514 0.6384 0.3595
H77 H 0.8410 0.7167 0.2963
C137 C 0.4984(6) 0.2046(5) 0.4656(4)
O63 O 0.5114(7) 0.0756(6) 0.5567(3)
C138 C 0.4441(10) 0.0745(11) 0.5382(5)
O64 O 0.3359(7) 0.1707(8) 0.3918(4)
C139 C 0.3329(12) 0.1373(12) 0.4181(6)
C140 C 0.4496(7) 0.1136(6) 0.5035(3)
C141 C 0.3953(6) 0.1040(6) 0.4786(4)
C142 C 0.5011(6) 0.1639(6) 0.4970(3)
H78 H 0.3601 0.0696 0.4831
C143 C 0.3927(6) 0.1447(7) 0.4471(3)
C144 C 0.4442(7) 0.1950(6) 0.4406(3)
H79 H 0.4424 0.2228 0.4191
H80 H 0.5382 0.1704 0.5141
O65 O 0.3958(7) 0.0355(7) 0.5496(3)
O66 O 0.2835(7) 0.0896(7) 0.4229(4)
O67 O 0.9772(3) 0.9357(4) 0.15302(16)
Al21_4 Al 1.0000 1.0000 0.11436(10)
O69 O 0.9165(3) 0.8465(4) 0.1297(2)
Al23 Al 0.89712(14) 0.87581(15) 0.08184(7)
O72 O 0.7354(3) 0.3013(3) 0.4679(2)
H81 H 0.286787 0.0535837 0.403354
H82 H 0.525105 0.125048 0.561784
H83 H 0.713213 0.946416 0.403354
H84 H 0.474895 0.874952 0.561784
H85 H 0.0535837 0.286787 0.596646
H86 H 0.125048 0.525105 0.438216
H87 H 0.874952 0.474895 0.438216
H88 H 0.946416 0.713213 0.596646
C38 C 0.2451(6) 0.9982(6) 0.6798(3)
H23 H 0.2241 0.9565 0.6891
H24 H 0.1288 0.9976 0.7255
H26 H 0.0795 0.9945 0.7810
C53 C 0.2765(6) 0.9963(7) 0.6435(3)
C54 C 0.2833(6) 0.8592(7) 0.6437(3)
H33 H 0.2808 0.8578 0.6695
C55 C 0.2823(6) 0.9262(7) 0.5872(3)
H34 H 0.2773 0.9687 0.5738
C56 C 0.2808(6) 0.9260(6) 0.6256(3)
C58 C 0.2885(5) 0.8026(7) 0.6264(3)
H35 H 0.2900 0.7594 0.6394
C59 C 0.2909(5) 0.8647(7) 0.5705(3)
H36 H 0.2964 0.8644 0.5447
C61 C 0.2923(6) 0.8019(6) 0.5888(3)
C72 C 0.3040(4) 0.7360(8) 0.5692(3)
C76 C 0.9982(6) 0.2451(6) 0.3202(3)
H43 H 0.9565 0.2241 0.3109
C78 C 0.9963(7) 0.2765(6) 0.3565(3)
H44 H 0.9976 0.1288 0.2745
H46 H 0.9945 0.0795 0.2190
C94 C 0.9260(6) 0.2808(6) 0.3744(3)
C95 C 0.8592(7) 0.2833(6) 0.3563(3)
H53 H 0.8578 0.2808 0.3305
C96 C 0.8026(7) 0.2885(5) 0.3736(3)
C97 C 0.9262(7) 0.2823(6) 0.4128(3)
H54 H 0.9687 0.2773 0.4262
C98 C 0.8647(7) 0.2909(5) 0.4295(3)
H55 H 0.7594 0.2900 0.3606
C99 C 0.8019(6) 0.2923(6) 0.4112(3)
H56 H 0.8644 0.2964 0.4553
C100 C 0.7360(8) 0.3040(4) 0.4308(3)
O15_2 O 0.0443(3) 0.2036(4) 0.0657(2)
O16_2 O 0.0267(2) 0.0658(3) 0.07982(14)
O17_2 O 0.1322(3) 0.1043(3) 0.03460(13)
H22_2 H 0.1298 0.0563 0.0275
O18_2 O 0.1615(3) 0.0516(4) 0.10098(17)
O19_2 O 0.1016(4) 0.2376(3) 0.01389(17)
H29_2 H 0.2875 0.0117 0.1036
C62_2 C 0.0537(7) 0.2441(6) 0.0356(3)
C68_2 C 0.0011(6) 0.3361(6) 0.0030(3)
Al6 Al 0.16524(14) 0.16524(14) 0.0000
O37 O 0.1794(3) 0.1854(3) 0.08763(16)
O63_2 O 0.4244(6) 0.0114(7) 0.0567(3)
H80_2 H 0.3296 0.0382 0.0141
O71 O 0.2354(3) 0.1987(3) 0.0321(2)
H82_2 H 0.374952 0.0251049 0.0617838
O21_2 O 0.0114(7) 0.4244(6) 0.9433(3)
H40_2 H 0.0382 0.3296 0.9859
Al6_2 Al 0.16524(14) 0.16524(14) 1.0000
O41_2 O 0.0658(3) 0.0267(2) 0.92018(14)
O57_2 O 0.2036(4) 0.0443(3) 0.9343(2)
O58_2 O 0.1043(3) 0.1322(3) 0.96540(13)
O59_2 O 0.0516(4) 0.1615(3) 0.89902(17)
O61_2 O 0.1854(3) 0.1794(3) 0.91237(16)
C109_2 C 0.2441(6) 0.0537(7) 0.9644(3)
H62_2 H 0.0563 0.1298 0.9725
O62_2 O 0.2376(3) 0.1016(4) 0.98611(17)
H69_2 H 0.0117 0.2875 0.8964
C142_2 C 0.3361(6) 0.0011(6) 0.9970(3)
O72_2 O 0.1987(3) 0.2354(3) 0.9679(2)
H87_2 H 0.0251049 0.374952 0.938216
H1_2 H 0.0023 0.9303 0.0588
O8_2 O 0.1641(7) 0.6707(8) 0.1082(4)
C28_2 C 0.1047(6) 0.6040(6) 0.0214(4)
H18_2 H 0.1399 0.5696 0.0169
C29_2 C 0.1073(6) 0.6447(7) 0.0529(3)
C30_2 C 0.0558(7) 0.6950(6) 0.0594(3)
H19_2 H 0.0576 0.7228 0.0809
C31_2 C 0.0016(6) 0.7046(5) 0.0344(4)
C34_2 C 0.1671(12) 0.6373(12) 0.0819(6)
O10_2 O 0.2165(7) 0.5896(7) 0.0771(4)
C37_2 C 0.1520(7) 0.9919(7) 0.1108(3)
C38_2 C 0.5018(6) 0.7451(6) 0.1798(3)
H23_2 H 0.5435 0.7241 0.1891
C39_2 C 0.4775(6) 0.6514(7) 0.2447(4)
H24_2 H 0.5024 0.6288 0.2255
C40_2 C 0.4410(7) 0.7445(7) 0.2017(3)
C41_2 C 0.4439(5) 0.6522(7) 0.3089(4)
C42_2 C 0.3873(7) 0.8192(6) 0.1539(4)
C43_2 C 0.4477(6) 0.8134(6) 0.1339(3)
H25_2 H 0.4496 0.8379 0.1114
C44_2 C 0.4428(6) 0.7105(8) 0.2370(3)
C45_2 C 0.4796(5) 0.6218(6) 0.2778(4)
H26_2 H 0.5055 0.5795 0.2810
O20_2 O 0.0916(4) 0.9643(3) 0.11593(17)
C46_2 C 0.4079(6) 0.7440(7) 0.2669(4)
H27_2 H 0.3849 0.7876 0.2627
C47_2 C 0.3367(6) 0.9205(8) 0.1256(3)
H28_2 H 0.3841 0.9344 0.1215
C48_2 C 0.2786(6) 0.9674(6) 0.1147(3)
C49_2 C 0.4062(5) 0.7164(6) 0.3010(4)
H30_2 H 0.3803 0.7393 0.3197
C50_2 C 0.2537(7) 0.8364(7) 0.1483(3)
H31_2 H 0.2446 0.7933 0.1606
C51_2 C 0.2134(6) 0.9455(7) 0.1209(3)
C52_2 C 0.1985(6) 0.8772(7) 0.1374(3)
H32_2 H 0.1514 0.8616 0.1405
C53_2 C 0.5037(7) 0.7765(6) 0.1435(3)
C54_2 C 0.6408(7) 0.7833(6) 0.1437(3)
H33_2 H 0.6422 0.7808 0.1695
C55_2 C 0.5738(7) 0.7823(6) 0.0872(3)
H34_2 H 0.5313 0.7773 0.0738
C56_2 C 0.5740(6) 0.7808(6) 0.1256(3)
C57_2 C 0.3225(8) 0.8564(8) 0.1418(3)
C58_2 C 0.6974(7) 0.7885(5) 0.1264(3)
H35_2 H 0.7406 0.7900 0.1394
C59_2 C 0.6353(7) 0.7909(5) 0.0705(3)
H36_2 H 0.6356 0.7964 0.0447
C60_2 C 0.3829(6) 0.7817(7) 0.1896(3)
H37_2 H 0.3410 0.7833 0.2037
C61_2 C 0.6981(6) 0.7923(6) 0.0888(3)
O26 O 0.7646(3) 0.8013(3) 0.0321(2)
C71_2 C 0.4486(6) 0.6190(6) 0.3439(3)
C72_2 C 0.7640(8) 0.8040(4) 0.0692(3)
O28 O 0.8206(3) 0.8146(3) 0.08763(16)
Al5 Al 0.83476(14) 0.83476(14) 0.0000
C138_2 C 0.4255(11) 0.9441(10) 0.0382(5)
C140_2 C 0.3864(6) 0.9496(7) 0.0035(3)
O65_2 O 0.4645(7) 0.8958(7) 0.0496(3)
H85_2 H 0.213213 0.553584 0.0966456
C27_2 C 0.0504(7) 0.6136(6) 0.9965(3)
O9_2 O 0.1042(7) 0.5355(7) 0.9504(3)
C33_2 C 0.0559(10) 0.5745(11) 0.9618(5)
Al5_2 Al 0.83476(14) 0.83476(14) 1.0000
O40_2 O 0.0357(3) 0.9084(4) 0.88407(17)
C74_2 C 0.0081(7) 0.8480(7) 0.8892(3)
C75_2 C 0.0545(7) 0.7866(6) 0.8791(3)
C76_2 C 0.2549(6) 0.4982(6) 0.8202(3)
H43_2 H 0.2759 0.4565 0.8109
C77_2 C 0.2555(7) 0.5590(7) 0.7983(3)
C78_2 C 0.2235(6) 0.4963(7) 0.8565(3)
C79_2 C 0.3486(7) 0.5225(6) 0.7553(4)
H44_2 H 0.3712 0.4976 0.7745
C80_2 C 0.2895(8) 0.5572(6) 0.7630(3)
C81_2 C 0.3782(6) 0.5204(5) 0.7222(4)
C82_2 C 0.2183(7) 0.6171(6) 0.8104(3)
C83_2 C 0.3478(7) 0.5561(5) 0.6911(4)
C84_2 C 0.2836(6) 0.5938(5) 0.6990(4)
C85_2 C 0.3810(6) 0.5514(6) 0.6561(3)
C86_2 C 0.1808(6) 0.6127(7) 0.8461(4)
C87_2 C 0.1866(6) 0.5523(6) 0.8661(3)
C88_2 C 0.1436(8) 0.6775(8) 0.8582(3)
H45_2 H 0.1621 0.5504 0.8886
C89_2 C 0.2560(7) 0.5921(6) 0.7331(4)
H46_2 H 0.4205 0.4945 0.7190
H47_2 H 0.2124 0.6151 0.7373
C90_2 C 0.0795(8) 0.6633(6) 0.8744(3)
H48_2 H 0.0656 0.6159 0.8785
C91_2 C 0.0326(6) 0.7214(6) 0.8853(3)
H50_2 H 0.2607 0.6197 0.6803
C92_2 C 0.1636(7) 0.7463(7) 0.8517(3)
H51_2 H 0.2067 0.7554 0.8394
C93_2 C 0.1228(7) 0.8015(6) 0.8626(3)
H52_2 H 0.1384 0.8486 0.8595
C94_2 C 0.2192(6) 0.4260(6) 0.8744(3)
C95_2 C 0.2167(6) 0.3592(7) 0.8563(3)
H53_2 H 0.2192 0.3578 0.8305
C96_2 C 0.2115(5) 0.3026(7) 0.8736(3)
C97_2 C 0.2177(6) 0.4262(7) 0.9128(3)
H54_2 H 0.2227 0.4687 0.9262
C98_2 C 0.2091(5) 0.3647(7) 0.9295(3)
H55_2 H 0.2100 0.2594 0.8606
C99_2 C 0.2077(6) 0.3019(6) 0.9112(3)
H56_2 H 0.2036 0.3644 0.9553
H57_2 H 0.2167 0.6590 0.7963
C100_2 C 0.1960(4) 0.2360(8) 0.9308(3)
H61_2 H 0.0697 0.9977 0.9412
C137_2 C 0.2954(5) 0.9984(6) 0.9656(4)
O64_2 O 0.3293(8) 0.8359(7) 0.8918(4)
C139_2 C 0.3627(12) 0.8329(12) 0.9181(6)
C141_2 C 0.3960(6) 0.8953(6) 0.9786(4)
H78_2 H 0.4304 0.8601 0.9831
C143_2 C 0.3553(7) 0.8927(6) 0.9471(3)
C144_2 C 0.3050(6) 0.9442(7) 0.9406(3)
H79_2 H 0.2772 0.9424 0.9191
O66_2 O 0.4104(7) 0.7835(7) 0.9229(4)
H81_2 H 0.446416 0.786787 0.903354
C1_2 C 0.8480(7) 0.0081(7) 0.1108(3)
C2_2 C 0.4982(6) 0.2549(6) 0.1798(3)
H3_2 H 0.4565 0.2759 0.1891
C3_2 C 0.5225(6) 0.3486(7) 0.2447(4)
H4_2 H 0.4976 0.3712 0.2255
C4_2 C 0.5590(7) 0.2555(7) 0.2017(3)
C5_2 C 0.5561(5) 0.3478(7) 0.3089(4)
C6_2 C 0.6127(7) 0.1808(6) 0.1539(4)
C7_2 C 0.5523(6) 0.1866(6) 0.1339(3)
H5_2 H 0.5504 0.1621 0.1114
C8_2 C 0.5572(6) 0.2895(8) 0.2370(3)
C9_2 C 0.5204(5) 0.3782(6) 0.2778(4)
H6_2 H 0.4945 0.4205 0.2810
O6_2 O 0.9084(4) 0.0357(3) 0.11593(17)
C10_2 C 0.5921(6) 0.2560(7) 0.2669(4)
H7_2 H 0.6151 0.2124 0.2627
C11_2 C 0.6633(6) 0.0795(8) 0.1256(3)
H8_2 H 0.6159 0.0656 0.1215
C12_2 C 0.7214(6) 0.0326(6) 0.1147(3)
C13_2 C 0.5938(5) 0.2836(6) 0.3010(4)
H10_2 H 0.6197 0.2607 0.3197
C14_2 C 0.7463(7) 0.1636(7) 0.1483(3)
H11_2 H 0.7554 0.2067 0.1606
C15_2 C 0.7866(6) 0.0545(7) 0.1209(3)
C16_2 C 0.8015(6) 0.1228(7) 0.1374(3)
H12_2 H 0.8486 0.1384 0.1405
C17_2 C 0.4963(7) 0.2235(6) 0.1435(3)
C18_2 C 0.3592(7) 0.2167(6) 0.1437(3)
H13_2 H 0.3578 0.2192 0.1695
C19_2 C 0.4262(7) 0.2177(6) 0.0872(3)
H14_2 H 0.4687 0.2227 0.0738
C20_2 C 0.4260(6) 0.2192(6) 0.1256(3)
C21_2 C 0.6775(8) 0.1436(8) 0.1418(3)
C22_2 C 0.3026(7) 0.2115(5) 0.1264(3)
H15_2 H 0.2594 0.2100 0.1394
C23_2 C 0.3647(7) 0.2091(5) 0.0705(3)
H16_2 H 0.3644 0.2036 0.0447
C24_2 C 0.6171(6) 0.2183(7) 0.1896(3)
H17_2 H 0.6590 0.2167 0.2037
C25_2 C 0.3019(6) 0.2077(6) 0.0888(3)
C35_2 C 0.5514(6) 0.3810(6) 0.3439(3)
C36_2 C 0.2360(8) 0.1960(4) 0.0692(3)
H21_2 H 0.9977 0.0697 0.0588
O22_2 O 0.8359(7) 0.3293(8) 0.1082(4)
C64_2 C 0.8953(6) 0.3960(6) 0.0214(4)
H38_2 H 0.8601 0.4304 0.0169
C65_2 C 0.8927(6) 0.3553(7) 0.0529(3)
C66_2 C 0.9442(7) 0.3050(6) 0.0594(3)
H39_2 H 0.9424 0.2772 0.0809
C67_2 C 0.9984(6) 0.2954(5) 0.0344(4)
C70_2 C 0.8329(12) 0.3627(12) 0.0819(6)
O24_2 O 0.7835(7) 0.4104(7) 0.0771(4)
C102_2 C 0.5745(11) 0.0559(10) 0.0382(5)
C104_2 C 0.6136(6) 0.0504(7) 0.0035(3)
O51_2 O 0.5355(7) 0.1042(7) 0.0496(3)
H88_2 H 0.786787 0.446416 0.0966456
C63_2 C 0.9496(7) 0.3864(6) 0.9965(3)
O23_2 O 0.8958(7) 0.4645(7) 0.9504(3)
C69_2 C 0.9441(10) 0.4255(11) 0.9618(5)
O42_2 O 0.9643(3) 0.0916(4) 0.88407(17)
H41_2 H 0.9303 0.0023 0.9412
C101_2 C 0.7046(5) 0.0016(6) 0.9656(4)
O50_2 O 0.6707(8) 0.1641(7) 0.8918(4)
C103_2 C 0.6373(12) 0.1671(12) 0.9181(6)
C105_2 C 0.6040(6) 0.1047(6) 0.9786(4)
H58_2 H 0.5696 0.1399 0.9831
C107_2 C 0.6447(7) 0.1073(6) 0.9471(3)
C108_2 C 0.6950(6) 0.0558(7) 0.9406(3)
H59_2 H 0.7228 0.0576 0.9191
O52_2 O 0.5896(7) 0.2165(7) 0.9229(4)
C110_2 C 0.9919(7) 0.1520(7) 0.8892(3)
C111_2 C 0.9455(7) 0.2134(6) 0.8791(3)
C112_2 C 0.7451(6) 0.5018(6) 0.8202(3)
H63_2 H 0.7241 0.5435 0.8109
C113_2 C 0.7445(7) 0.4410(7) 0.7983(3)
C114_2 C 0.7765(6) 0.5037(7) 0.8565(3)
C115_2 C 0.6514(7) 0.4775(6) 0.7553(4)
H64_2 H 0.6288 0.5024 0.7745
C116_2 C 0.7105(8) 0.4428(6) 0.7630(3)
C117_2 C 0.6218(6) 0.4796(5) 0.7222(4)
C118_2 C 0.7817(7) 0.3829(6) 0.8104(3)
C119_2 C 0.6522(7) 0.4439(5) 0.6911(4)
C120_2 C 0.7164(6) 0.4062(5) 0.6990(4)
C121_2 C 0.6190(6) 0.4486(6) 0.6561(3)
C122_2 C 0.8192(6) 0.3873(7) 0.8461(4)
C123_2 C 0.8134(6) 0.4477(6) 0.8661(3)
C124_2 C 0.8564(8) 0.3225(8) 0.8582(3)
H65_2 H 0.8379 0.4496 0.8886
C125_2 C 0.7440(7) 0.4079(6) 0.7331(4)
H66_2 H 0.5795 0.5055 0.7190
H67_2 H 0.7876 0.3849 0.7373
C126_2 C 0.9205(8) 0.3367(6) 0.8744(3)
H68_2 H 0.9344 0.3841 0.8785
C127_2 C 0.9674(6) 0.2786(6) 0.8853(3)
H70_2 H 0.7393 0.3803 0.6803
C128_2 C 0.8364(7) 0.2537(7) 0.8517(3)
H71_2 H 0.7933 0.2446 0.8394
C129_2 C 0.8772(7) 0.1985(6) 0.8626(3)
H72_2 H 0.8616 0.1514 0.8595
C130_2 C 0.7808(6) 0.5740(6) 0.8744(3)
C131_2 C 0.7833(6) 0.6408(7) 0.8563(3)
H73_2 H 0.7808 0.6422 0.8305
C132_2 C 0.7885(5) 0.6974(7) 0.8736(3)
C133_2 C 0.7823(6) 0.5738(7) 0.9128(3)
H74_2 H 0.7773 0.5313 0.9262
C134_2 C 0.7909(5) 0.6353(7) 0.9295(3)
H75_2 H 0.7900 0.7406 0.8606
C135_2 C 0.7923(6) 0.6981(6) 0.9112(3)
H76_2 H 0.7964 0.6356 0.9553
H77_2 H 0.7833 0.3410 0.7963
C136_2 C 0.8040(4) 0.7640(8) 0.9308(3)
O68_2 O 0.8013(3) 0.7646(3) 0.9679(2)
O70_2 O 0.8146(3) 0.8206(3) 0.91237(16)
H83_2 H 0.553584 0.213213 0.903354
O1_2 O 0.9557(3) 0.7964(4) 0.0657(2)
O2_2 O 0.9733(2) 0.9342(3) 0.07982(14)
O3_2 O 0.8678(3) 0.8957(3) 0.03460(13)
H2_2 H 0.8702 0.9437 0.0275
O4_2 O 0.8385(3) 0.9484(4) 0.10098(17)
O5_2 O 0.8984(4) 0.7624(3) 0.01389(17)
H9_2 H 0.7125 0.9883 0.1036
C26_2 C 0.9463(7) 0.7559(6) 0.0356(3)
C32_2 C 0.9989(6) 0.6639(6) 0.0030(3)
O49_2 O 0.5756(6) 0.9886(7) 0.0567(3)
H60_2 H 0.6704 0.9618 0.0141
H84_2 H 0.625048 0.974895 0.0617838
O7_2 O 0.9886(7) 0.5756(6) 0.9433(3)
H20_2 H 0.9618 0.6704 0.9859
O29_2 O 0.8957(3) 0.8678(3) 0.96540(13)
O30_2 O 0.7624(3) 0.8984(4) 0.98611(17)
O39_2 O 0.9342(3) 0.9733(2) 0.92018(14)
O45_2 O 0.7964(4) 0.9557(3) 0.9343(2)
O46_2 O 0.9484(4) 0.8385(3) 0.89902(17)
C73_2 C 0.7559(6) 0.9463(7) 0.9644(3)
H42_2 H 0.9437 0.8702 0.9725
H49_2 H 0.9883 0.7125 0.8964
C106_2 C 0.6639(6) 0.9989(6) 0.9970(3)
H86_2 H 0.974895 0.625048 0.938216
loop_
_geom_bond_atom_site_label_1
_geom_bond_atom_site_label_2
_geom_bond_site_symmetry_1
_geom_bond_site_symmetry_2
C112 H63 1_555 1_555
C114 C112 1_555 1_555
C130 C114 1_555 1_555
C131 C130 1_555 1_555
H73 C131 1_555 1_555
C132 C131 1_555 1_555
C133 C130 1_555 1_555
H74 C133 1_555 1_555
C134 C133 1_555 1_555
H75 C132 1_555 1_555
C135 C132 1_555 1_555
H76 C134 1_555 1_555
C136 C135 1_555 1_555
O68 C136 1_555 1_555
Al22 O68 1_555 1_555
O70 C136 1_555 1_555
Al24 O70 1_555 1_555
C134 C135 1_555 1_555
C2 H3 1_555 1_555
C17 C2 1_555 1_555
C18 H13 1_555 1_555
C19 H14 1_555 1_555
C20 C17 1_555 1_555
C22 C18 1_555 1_555
H15 C22 1_555 1_555
C23 C19 1_555 1_555
H16 C23 1_555 1_555
C25 C22 1_555 1_555
O12 C36 1_555 1_555
C36 C25 1_555 1_555
O14 C36 1_555 1_555
Al7 O12 1_555 1_555
Al11 O14 1_555 1_555
C18 C20 1_555 1_555
C19 C20 1_555 1_555
C23 C25 1_555 1_555
Al22 O3 1_555 1_555
Al2 O2 1_555 1_555
Al3 O1 1_555 1_555
O1 C26 1_555 1_555
O2 Al3 1_555 1_555
H1 O2 1_555 1_555
O3 Al3 1_555 1_555
H2 O3 1_555 1_555
O4 Al3 1_555 1_555
O5 Al22 1_555 1_555
C1 O4 1_555 1_555
C5 C9 1_555 1_555
C6 C7 1_555 1_555
C7 H5 1_555 1_555
C8 C3 1_555 1_555
C9 C3 1_555 1_555
O6 Al2 1_555 1_555
C10 C8 1_555 1_555
H7 C10 1_555 1_555
C11 H8 1_555 1_555
C12 C11 1_555 1_555
H9 C12 1_555 1_555
C13 C5 1_555 1_555
H10 C13 1_555 1_555
C14 H11 1_555 1_555
C15 C1 1_555 1_555
C16 C14 1_555 1_555
H12 C16 1_555 1_555
C21 C6 1_555 1_555
C24 C4 1_555 1_555
H17 C24 1_555 1_555
C26 O5 1_555 1_555
O7 C33 1_555 1_555
O8 C34 1_555 1_555
C27 C28 1_555 1_555
C28 H18 1_555 1_555
C29 C28 1_555 1_555
C30 C29 1_555 1_555
H19 C30 1_555 1_555
C31 C26 1_555 1_555
C32 C27 1_555 1_555
H20 C32 1_555 1_555
O9 C33 1_555 1_555
C33 C27 1_555 1_555
C34 C29 1_555 1_555
O10 C34 1_555 1_555
O11 C35 1_555 1_555
O13 C35 1_555 1_555
C35 C5 1_555 1_555
Al11 O15 1_555 1_555
O15 C62 1_555 1_555
O16 Al2 1_555 1_555
H21 O16 1_555 1_555
O17 Al11 1_555 1_555
H22 O17 1_555 1_555
O18 Al11 1_555 1_555
O19 C62 1_555 1_555
C37 O18 1_555 1_555
C41 C45 1_555 1_555
C42 C43 1_555 1_555
C43 H25 1_555 1_555
C44 C39 1_555 1_555
C45 C39 1_555 1_555
O20 Al2 1_555 1_555
C46 C44 1_555 1_555
H27 C46 1_555 1_555
C47 H28 1_555 1_555
C48 C47 1_555 1_555
H29 C48 1_555 1_555
C49 C41 1_555 1_555
H30 C49 1_555 1_555
C50 H31 1_555 1_555
C51 C37 1_555 1_555
C52 C50 1_555 1_555
H32 C52 1_555 1_555
C57 C42 1_555 1_555
C60 C40 1_555 1_555
H37 C60 1_555 1_555
C62 C67 1_555 1_555
O21 C69 1_555 1_555
O22 C70 1_555 1_555
C63 C64 1_555 1_555
C64 H38 1_555 1_555
C65 C64 1_555 1_555
C66 C65 1_555 1_555
H39 C66 1_555 1_555
C67 C66 1_555 1_555
C68 C63 1_555 1_555
H40 C68 1_555 1_555
O23 C69 1_555 1_555
C69 C63 1_555 1_555
C70 C65 1_555 1_555
O24 C70 1_555 1_555
O25 C71 1_555 1_555
O27 C71 1_555 1_555
C71 C41 1_555 1_555
Al7 O17 1_555 1_555
Al9 O25 1_555 1_555
Al9_4 O11 1_555 1_555
Al12 O13 1_555 1_555
Al13 O27 1_555 1_555
O29 Al22 1_555 1_555
O30 Al22 1_555 1_555
O31 Al2 1_555 1_555
O32 Al2 1_555 1_555
O33 Al22 1_555 1_555
O35 Al3 1_555 1_555
O36 Al11 1_555 1_555
O38 Al3 1_555 1_555
Al14 O39 1_555 1_555
O39 Al24 1_555 1_555
O40 Al14 1_555 1_555
O41 Al14 1_555 1_555
O42 Al14 1_555 1_555
O43 Al14 1_555 1_555
O44 Al14 1_555 1_555
Al24 O29 1_555 1_555
O45 Al24 1_555 1_555
O46 Al24 1_555 1_555
O47 Al24 1_555 1_555
C73 O30 1_555 1_555
H41 O39 1_555 1_555
H42 O29 1_555 1_555
C74 O40 1_555 1_555
C75 C74 1_555 1_555
C80 C77 1_555 1_555
C81 C79 1_555 1_555
C82 C77 1_555 1_555
C83 C81 1_555 1_555
C84 C83 1_555 1_555
C85 C83 1_555 1_555
C86 C82 1_555 1_555
C88 C86 1_555 1_555
H45 C87 1_555 1_555
C89 C80 1_555 1_555
H47 C89 1_555 1_555
C90 C88 1_555 1_555
H48 C90 1_555 1_555
C91 C75 1_555 1_555
H49 C91 1_555 1_555
H50 C84 1_555 1_555
C92 C88 1_555 1_555
H51 C92 1_555 1_555
C93 C75 1_555 1_555
H52 C93 1_555 1_555
H57 C82 1_555 1_555
C101 C73 1_555 1_555
O49 C102 1_555 1_555
C102 C104 1_555 1_555
O50 C103 1_555 1_555
C103 C107 1_555 1_555
C104 C105 1_555 1_555
C105 H58 1_555 1_555
C106 C101 1_555 1_555
C107 C105 1_555 1_555
C108 C101 1_555 1_555
H59 C108 1_555 1_555
H60 C106 1_555 1_555
O51 C102 1_555 1_555
O52 C103 1_555 1_555
O53 C85 1_555 1_555
Al21 O53 1_555 1_555
O55 C85 1_555 1_555
Al18 O55 1_555 1_555
Al20 O41 1_555 1_555
O57 Al20 1_555 1_555
O58 Al7 1_555 1_555
O59 Al20 1_555 1_555
O60 Al20 1_555 1_555
O61 Al20 1_555 1_555
C109 O57 1_555 1_555
H61 O41 1_555 1_555
H62 O58 1_555 1_555
C110 O42 1_555 1_555
O62 Al7 1_555 1_555
C111 C110 1_555 1_555
C116 C113 1_555 1_555
C117 C115 1_555 1_555
C118 C113 1_555 1_555
C119 C117 1_555 1_555
C120 C119 1_555 1_555
C121 C119 1_555 1_555
C122 C118 1_555 1_555
C124 C122 1_555 1_555
H65 C123 1_555 1_555
C125 C116 1_555 1_555
H67 C125 1_555 1_555
C126 C124 1_555 1_555
H68 C126 1_555 1_555
C127 C111 1_555 1_555
H69 C127 1_555 1_555
H70 C120 1_555 1_555
C128 C124 1_555 1_555
H71 C128 1_555 1_555
C129 C111 1_555 1_555
H72 C129 1_555 1_555
H77 C118 1_555 1_555
C137 C109 1_555 1_555
O63 C138 1_555 1_555
C138 C140 1_555 1_555
O64 C139 1_555 1_555
C139 C143 1_555 1_555
C140 C141 1_555 1_555
C141 H78 1_555 1_555
C142 C137 1_555 1_555
C143 C141 1_555 1_555
C144 C137 1_555 1_555
H79 C144 1_555 1_555
H80 C142 1_555 1_555
O65 C138 1_555 1_555
O66 C139 1_555 1_555
O67 C121 1_555 1_555
Al21_4 O67 1_555 1_555
O69 C121 1_555 1_555
Al23 O69 1_555 1_555
O72 Al7 1_555 1_555
C1 O6 1_555 1_555
C4 C8 1_555 1_555
C6 C24 1_555 1_555
C10 C13 1_555 1_555
C11 C21 1_555 1_555
C12 C15 1_555 1_555
C14 C21 1_555 1_555
C15 C16 1_555 1_555
C30 C31 1_555 1_555
C31 C32 1_555 1_555
Al11 O16 1_555 1_555
O19 Al7 1_555 1_555
C37 O20 1_555 1_555
C40 C44 1_555 1_555
C42 C60 1_555 1_555
C46 C49 1_555 1_555
C47 C57 1_555 1_555
C48 C51 1_555 1_555
C50 C57 1_555 1_555
C51 C52 1_555 1_555
C67 C68 1_555 1_555
O45 C73 1_555 1_555
O46 C74 1_555 1_555
C79 C80 1_555 1_555
C84 C89 1_555 1_555
C86 C87 1_555 1_555
C90 C91 1_555 1_555
C92 C93 1_555 1_555
C104 C106 1_555 1_555
C107 C108 1_555 1_555
Al20 O58 1_555 1_555
O59 C110 1_555 1_555
C109 O62 1_555 1_555
C115 C116 1_555 1_555
C120 C125 1_555 1_555
C122 C123 1_555 1_555
C126 C127 1_555 1_555
C128 C129 1_555 1_555
C140 C142 1_555 1_555
C143 C144 1_555 1_555
O66 H81 1_555 1_555
O63 H82 1_555 1_555
O52 H83 1_555 1_555
O49 H84 1_555 1_555
O10 H85 1_555 1_555
O7 H86 1_555 1_555
O21 H87 1_555 1_555
O24 H88 1_555 1_555
C38 H23 1_555 1_555
C53 C38 1_555 1_555
C54 H33 1_555 1_555
C55 H34 1_555 1_555
C56 C53 1_555 1_555
C58 C54 1_555 1_555
H35 C58 1_555 1_555
C59 C55 1_555 1_555
H36 C59 1_555 1_555
C61 C58 1_555 1_555
O33 C72 1_555 1_555
C72 C61 1_555 1_555
O38 C72 1_555 1_555
C54 C56 1_555 1_555
C55 C56 1_555 1_555
C59 C61 1_555 1_555
C76 H43 1_555 1_555
C78 C76 1_555 1_555
C94 C78 1_555 1_555
C95 C94 1_555 1_555
H53 C95 1_555 1_555
C96 C95 1_555 1_555
C97 C94 1_555 1_555
H54 C97 1_555 1_555
C98 C97 1_555 1_555
H55 C96 1_555 1_555
C99 C96 1_555 1_555
H56 C98 1_555 1_555
C100 C99 1_555 1_555
O72 C100 1_555 1_555
O61 C100 1_555 1_555
C98 C99 1_555 1_555
Al18 O15_2 1_555 1_555
O15_2 C62_2 1_555 1_555
O16_2 Al21 1_555 1_555
O17_2 Al18 1_555 1_555
H22_2 O17_2 1_555 1_555
O18_2 Al18 1_555 1_555
O19_2 C62_2 1_555 1_555
Al6 O17_2 1_555 1_555
O37 Al18 1_555 1_555
O71 Al6 1_555 1_555
Al18 O16_2 1_555 1_555
O19_2 Al6 1_555 1_555
O63_2 H82_2 1_555 1_555
O41_2 Al9 1_555 1_555
Al13 O41_2 1_555 1_555
O57_2 Al13 1_555 1_555
O58_2 Al6_2 1_555 1_555
O59_2 Al13 1_555 1_555
O61_2 Al13 1_555 1_555
C109_2 O57_2 1_555 1_555
H62_2 O58_2 1_555 1_555
O62_2 Al6_2 1_555 1_555
O72_2 Al6_2 1_555 1_555
Al13 O58_2 1_555 1_555
C109_2 O62_2 1_555 1_555
O21_2 H87_2 1_555 1_555
O8_2 C34_2 1_555 1_555
C28_2 H18_2 1_555 1_555
C29_2 C28_2 1_555 1_555
C30_2 C29_2 1_555 1_555
H19_2 C30_2 1_555 1_555
C34_2 C29_2 1_555 1_555
O10_2 C34_2 1_555 1_555
C38_2 H23_2 1_555 1_555
C39_2 H24_2 1_555 1_555
C40_2 C38_2 1_555 1_555
C41_2 C45_2 1_555 1_555
C42_2 C43_2 1_555 1_555
C43_2 H25_2 1_555 1_555
C44_2 C39_2 1_555 1_555
C45_2 C39_2 1_555 1_555
H26_2 C45_2 1_555 1_555
O20_2 Al21_2 1_555 1_555
C46_2 C44_2 1_555 1_555
H27_2 C46_2 1_555 1_555
C47_2 H28_2 1_555 1_555
C48_2 C47_2 1_555 1_555
C49_2 C41_2 1_555 1_555
H30_2 C49_2 1_555 1_555
C50_2 H31_2 1_555 1_555
C51_2 C37_2 1_555 1_555
C52_2 C50_2 1_555 1_555
H32_2 C52_2 1_555 1_555
C53_2 C38_2 1_555 1_555
C54_2 H33_2 1_555 1_555
C55_2 H34_2 1_555 1_555
C56_2 C53_2 1_555 1_555
C57_2 C42_2 1_555 1_555
C58_2 C54_2 1_555 1_555
H35_2 C58_2 1_555 1_555
C59_2 C55_2 1_555 1_555
H36_2 C59_2 1_555 1_555
C60_2 C40_2 1_555 1_555
H37_2 C60_2 1_555 1_555
C61_2 C58_2 1_555 1_555
O43 C71_2 1_555 1_555
O26 C72_2 1_555 1_555
O47 C71_2 1_555 1_555
C71_2 C41_2 1_555 1_555
C72_2 C61_2 1_555 1_555
O28 C72_2 1_555 1_555
Al5 O26 1_555 1_555
Al23 O28 1_555 1_555
C138_2 C140_2 1_555 1_555
O65_2 C138_2 1_555 1_555
C30_2 C31_2 1_555 1_555
C37_2 O20_2 1_555 1_555
C40_2 C44_2 1_555 1_555
C42_2 C60_2 1_555 1_555
C43_2 C53_2 1_555 1_555
C46_2 C49_2 1_555 1_555
C47_2 C57_2 1_555 1_555
C48_2 C51_2 1_555 1_555
C50_2 C57_2 1_555 1_555
C51_2 C52_2 1_555 1_555
C54_2 C56_2 1_555 1_555
C55_2 C56_2 1_555 1_555
C59_2 C61_2 1_555 1_555
O10_2 H85_2 1_555 1_555
O9_2 C33_2 1_555 1_555
C33_2 C27_2 1_555 1_555
O40_2 Al9_2 1_555 1_555
C74_2 O40_2 1_555 1_555
C75_2 C74_2 1_555 1_555
C76_2 H43_2 1_555 1_555
C77_2 C76_2 1_555 1_555
C78_2 C76_2 1_555 1_555
C79_2 H44_2 1_555 1_555
C80_2 C77_2 1_555 1_555
C81_2 C79_2 1_555 1_555
C82_2 C77_2 1_555 1_555
C83_2 C81_2 1_555 1_555
C84_2 C83_2 1_555 1_555
C85_2 C83_2 1_555 1_555
C86_2 C82_2 1_555 1_555
C87_2 C78_2 1_555 1_555
C88_2 C86_2 1_555 1_555
H45_2 C87_2 1_555 1_555
C89_2 C80_2 1_555 1_555
H46_2 C81_2 1_555 1_555
H47_2 C89_2 1_555 1_555
C90_2 C88_2 1_555 1_555
H48_2 C90_2 1_555 1_555
C91_2 C75_2 1_555 1_555
H50_2 C84_2 1_555 1_555
C92_2 C88_2 1_555 1_555
H51_2 C92_2 1_555 1_555
C93_2 C75_2 1_555 1_555
H52_2 C93_2 1_555 1_555
C94_2 C78_2 1_555 1_555
C95_2 C94_2 1_555 1_555
H53_2 C95_2 1_555 1_555
C96_2 C95_2 1_555 1_555
C97_2 C94_2 1_555 1_555
H54_2 C97_2 1_555 1_555
C98_2 C97_2 1_555 1_555
H55_2 C96_2 1_555 1_555
C99_2 C96_2 1_555 1_555
H56_2 C98_2 1_555 1_555
H57_2 C82_2 1_555 1_555
C100_2 C99_2 1_555 1_555
O31 C85_2 1_555 1_555
O72_2 C100_2 1_555 1_555
O35 C85_2 1_555 1_555
O61_2 C100_2 1_555 1_555
O64_2 C139_2 1_555 1_555
C139_2 C143_2 1_555 1_555
C141_2 H78_2 1_555 1_555
C143_2 C141_2 1_555 1_555
C144_2 C137_2 1_555 1_555
H79_2 C144_2 1_555 1_555
O66_2 C139_2 1_555 1_555
C79_2 C80_2 1_555 1_555
C84_2 C89_2 1_555 1_555
C86_2 C87_2 1_555 1_555
C90_2 C91_2 1_555 1_555
C92_2 C93_2 1_555 1_555
C98_2 C99_2 1_555 1_555
C143_2 C144_2 1_555 1_555
O66_2 H81_2 1_555 1_555
C2_2 H3_2 1_555 1_555
C3_2 H4_2 1_555 1_555
C4_2 C2_2 1_555 1_555
C5_2 C9_2 1_555 1_555
C6_2 C7_2 1_555 1_555
C7_2 H5_2 1_555 1_555
C8_2 C3_2 1_555 1_555
C9_2 C3_2 1_555 1_555
H6_2 C9_2 1_555 1_555
O6_2 Al21_3 1_555 1_555
C10_2 C8_2 1_555 1_555
H7_2 C10_2 1_555 1_555
C11_2 H8_2 1_555 1_555
C12_2 C11_2 1_555 1_555
C13_2 C5_2 1_555 1_555
H10_2 C13_2 1_555 1_555
C14_2 H11_2 1_555 1_555
C15_2 C1_2 1_555 1_555
C16_2 C14_2 1_555 1_555
H12_2 C16_2 1_555 1_555
C17_2 C2_2 1_555 1_555
C18_2 H13_2 1_555 1_555
C19_2 H14_2 1_555 1_555
C20_2 C17_2 1_555 1_555
C21_2 C6_2 1_555 1_555
C22_2 C18_2 1_555 1_555
H15_2 C22_2 1_555 1_555
C23_2 C19_2 1_555 1_555
H16_2 C23_2 1_555 1_555
C24_2 C4_2 1_555 1_555
H17_2 C24_2 1_555 1_555
C25_2 C22_2 1_555 1_555
O44 C35_2 1_555 1_555
O71 C36_2 1_555 1_555
O60 C35_2 1_555 1_555
C35_2 C5_2 1_555 1_555
C36_2 C25_2 1_555 1_555
O37 C36_2 1_555 1_555
O22_2 C70_2 1_555 1_555
C64_2 H38_2 1_555 1_555
C65_2 C64_2 1_555 1_555
C66_2 C65_2 1_555 1_555
H39_2 C66_2 1_555 1_555
C67_2 C66_2 1_555 1_555
C70_2 C65_2 1_555 1_555
O24_2 C70_2 1_555 1_555
C102_2 C104_2 1_555 1_555
O51_2 C102_2 1_555 1_555
C1_2 O6_2 1_555 1_555
C4_2 C8_2 1_555 1_555
C6_2 C24_2 1_555 1_555
C7_2 C17_2 1_555 1_555
C10_2 C13_2 1_555 1_555
C11_2 C21_2 1_555 1_555
C12_2 C15_2 1_555 1_555
C14_2 C21_2 1_555 1_555
C15_2 C16_2 1_555 1_555
C18_2 C20_2 1_555 1_555
C19_2 C20_2 1_555 1_555
C23_2 C25_2 1_555 1_555
O24_2 H88_2 1_555 1_555
O23_2 C69_2 1_555 1_555
C69_2 C63_2 1_555 1_555
O42_2 Al9_3 1_555 1_555
O50_2 C103_2 1_555 1_555
C103_2 C107_2 1_555 1_555
C105_2 H58_2 1_555 1_555
C107_2 C105_2 1_555 1_555
C108_2 C101_2 1_555 1_555
H59_2 C108_2 1_555 1_555
O52_2 C103_2 1_555 1_555
C110_2 O42_2 1_555 1_555
C111_2 C110_2 1_555 1_555
C112_2 H63_2 1_555 1_555
C113_2 C112_2 1_555 1_555
C114_2 C112_2 1_555 1_555
C115_2 H64_2 1_555 1_555
C116_2 C113_2 1_555 1_555
C117_2 C115_2 1_555 1_555
C118_2 C113_2 1_555 1_555
C119_2 C117_2 1_555 1_555
C120_2 C119_2 1_555 1_555
C121_2 C119_2 1_555 1_555
C122_2 C118_2 1_555 1_555
C123_2 C114_2 1_555 1_555
C124_2 C122_2 1_555 1_555
H65_2 C123_2 1_555 1_555
C125_2 C116_2 1_555 1_555
H66_2 C117_2 1_555 1_555
H67_2 C125_2 1_555 1_555
C126_2 C124_2 1_555 1_555
H68_2 C126_2 1_555 1_555
C127_2 C111_2 1_555 1_555
H70_2 C120_2 1_555 1_555
C128_2 C124_2 1_555 1_555
H71_2 C128_2 1_555 1_555
C129_2 C111_2 1_555 1_555
H72_2 C129_2 1_555 1_555
C130_2 C114_2 1_555 1_555
C131_2 C130_2 1_555 1_555
H73_2 C131_2 1_555 1_555
C132_2 C131_2 1_555 1_555
C133_2 C130_2 1_555 1_555
H74_2 C133_2 1_555 1_555
C134_2 C133_2 1_555 1_555
H75_2 C132_2 1_555 1_555
C135_2 C132_2 1_555 1_555
H76_2 C134_2 1_555 1_555
H77_2 C118_2 1_555 1_555
C136_2 C135_2 1_555 1_555
O32 C121_2 1_555 1_555
O68_2 C136_2 1_555 1_555
Al5_2 O68_2 1_555 1_555
O36 C121_2 1_555 1_555
O70_2 C136_2 1_555 1_555
Al12 O70_2 1_555 1_555
C107_2 C108_2 1_555 1_555
C115_2 C116_2 1_555 1_555
C120_2 C125_2 1_555 1_555
C122_2 C123_2 1_555 1_555
C126_2 C127_2 1_555 1_555
C128_2 C129_2 1_555 1_555
C134_2 C135_2 1_555 1_555
O52_2 H83_2 1_555 1_555
Al5 O3_2 1_555 1_555
Al21_4 O2_2 1_555 1_555
Al23 O1_2 1_555 1_555
O1_2 C26_2 1_555 1_555
O2_2 Al23 1_555 1_555
O3_2 Al23 1_555 1_555
H2_2 O3_2 1_555 1_555
O4_2 Al23 1_555 1_555
O5_2 Al5 1_555 1_555
C26_2 O5_2 1_555 1_555
O49_2 H84_2 1_555 1_555
O29_2 Al5_2 1_555 1_555
O30_2 Al5_2 1_555 1_555
Al9_4 O39_2 1_555 1_555
O39_2 Al12 1_555 1_555
Al12 O29_2 1_555 1_555
O45_2 Al12 1_555 1_555
O46_2 Al12 1_555 1_555
C73_2 O30_2 1_555 1_555
H42_2 O29_2 1_555 1_555
O45_2 C73_2 1_555 1_555
O7_2 H86_2 1_555 1_555

#END
