
###############################################################################
#
# This file contains modified crystal structure data generated from the
# MOF subset of the Cambridge Structural Database (CSD) v543 
# hosted by the Cambridge Crystallographic Data Centre (CCDC).
#
# This work is licensed under the Creative Commons
# Attribution-NonCommercial-ShareAlike 4.0 International License.
# To view a copy of this license, visit
# http://creativecommons.org/licenses/by-nc-sa/4.0/
# or send a letter to
# Creative Commons, PO Box 1866, Mountain View, CA 94042, USA.
#
# CIF created using the CSD Python API on 29 September 2022
# The structure has been converted into the P1 space group
# The structure has a 3D framework
# The original CSD entry OTEDEY is in the tetragonal crystal system
# The original CSD entry OTEDEY is in a Sohncke space group
# The framework has been calculated to contain at least 10.0% void space
# The void calculation uses a probe of radius 1.32A, grid spacing 0.4
#
###############################################################################

data_OTEDEY
_chemical_formula_moiety         '(C280 H248 Al20 N8 O84)n'
_symmetry_cell_setting           triclinic
_symmetry_space_group_name_H-M   'P 1'
_symmetry_Int_Tables_number      1
_space_group_name_Hall           'P 1'
loop_
_symmetry_equiv_pos_site_id
_symmetry_equiv_pos_as_xyz
1 x,y,z
_cell_length_a                   19.5071(9)
_cell_length_b                   19.5071(9)
_cell_length_c                   34.2595(18)
_cell_angle_alpha                90
_cell_angle_beta                 90
_cell_angle_gamma                90
_cell_volume                     13036.7
loop_
_atom_site_label
_atom_site_type_symbol
_atom_site_fract_x
_atom_site_fract_y
_atom_site_fract_z
Al6 Al -0.0000 0.0000 0.10663(6)
Al24 Al 0.0000 0.0000 0.89337(6)
O5 O 0.03166(19) 0.84233(17) 0.10197(9)
Al6_2 Al -0.0000 1.0000 0.10663(6)
Al11 Al 0.10648(8) 0.88176(7) 0.07579(4)
Al24_2 Al 0.0000 1.0000 0.89337(6)
Al6_3 Al 1.0000 0.0000 0.10663(6)
O55 O 0.84233(17) 0.03166(19) 0.89803(9)
Al21 Al 0.88176(7) 0.10648(8) 0.92421(4)
Al24_3 Al 1.0000 0.0000 0.89337(6)
Al18 Al 0.84286(7) 0.15714(7) -0.0000
Al22 Al 0.15714(7) 0.84286(7) -0.0000
Al1 Al 0.5000 0.5000 0.39337(6)
Al2 Al 0.65714(7) 0.65714(7) 0.5000
Al3 Al 0.60648(8) 0.61824(7) 0.42421(4)
O1 O 0.55568(19) 0.53250(16) 0.35197(9)
O2 O 0.68326(17) 0.60075(17) 0.45700(10)
O3 O 0.56039(15) 0.53697(14) 0.43019(8)
H1 H 0.5669 0.5146 0.4511
O4 O 0.64661(19) 0.58823(18) 0.37754(11)
C1 C 0.6433(3) 0.5624(3) 0.30922(17)
C2 C 0.8104(3) 0.3145(3) 0.08137(15)
C3 C 0.9457(3) 0.7315(3) 0.10872(17)
H2 H 0.9900 0.7236 0.0980
C4 C 0.7802(3) 0.4397(3) 0.11827(16)
C5 C 0.6122(3) 0.5606(3) 0.34868(17)
C6 C 0.7945(3) 0.3837(3) 0.13967(17)
H3 H 0.7938 0.3867 0.1673
C7 C 0.8011(3) 0.5649(3) 0.12373(18)
H4 H 0.8256 0.5631 0.0998
C8 C 0.9698(3) 0.8571(3) 0.10822(14)
C9 C 0.7959(3) 0.6295(3) 0.14426(19)
C10 C 0.8557(3) 0.8096(3) 0.12948(15)
H5 H 0.8399 0.8551 0.1335
C11 C 0.9044(3) 0.6778(3) 0.11729(17)
H6 H 0.9206 0.6325 0.1131
C12 C 0.8375(4) 0.6877(3) 0.13229(17)
C13 C 0.8109(3) 0.3196(3) 0.12144(17)
H7 H 0.8220 0.2808 0.1369
C14 C 0.9229(3) 0.7995(3) 0.11578(15)
C15 C 0.8123(3) 0.7559(3) 0.13719(18)
H8 H 0.7666 0.7639 0.1456
C16 C 0.6156(3) 0.5262(3) 0.28012(16)
H9 H 0.5766 0.4983 0.2848
C17 C 0.7620(3) 0.6286(3) 0.18000(19)
H10 H 0.7592 0.6699 0.1946
C18 C 0.7961(3) 0.3710(3) 0.05927(17)
H11 H 0.7981 0.3676 0.0316
C19 C 0.7029(3) 0.6038(3) 0.30291(18)
H12 H 0.7237 0.6285 0.3236
C20 C 0.7784(3) 0.4342(3) 0.0766(2)
H13 H 0.7656 0.4723 0.0609
C21 C 0.7712(3) 0.5058(3) 0.13804(17)
C22 C 0.7006(3) 0.5683(3) 0.23542(18)
C23 C 0.8301(3) 0.2480(3) 0.06367(16)
C24 C 0.7365(3) 0.5087(3) 0.17401(18)
H14 H 0.7159 0.4683 0.1841
C25 C 0.7288(4) 0.6062(3) 0.2654(2)
H15 H 0.7671 0.6348 0.2601
C26 C 0.6443(4) 0.5295(3) 0.24243(19)
H16 H 0.6240 0.5042 0.2217
C27 C 0.7318(3) 0.5696(3) 0.19524(18)
O6 O 0.82329(19) 0.24086(17) 0.02615(11)
O7 O 0.84966(18) 0.20306(18) 0.08620(10)
O8 O 0.94634(16) 0.91792(16) 0.10919(9)
C28 C 0.7779(6) 0.5191(6) 0.4543(3)
H17 H 0.8100 0.5571 0.4600
H18 H 0.7954 0.4769 0.4669
C29 C 0.7079(5) 0.5359(5) 0.4693(3)
H19 H 0.6767 0.5016 0.4568
N1 N 0.7714(5) 0.5089(5) 0.4114(2)
H20 H 0.7314 0.4906 0.4057
O9 O 0.8155(4) 0.4780(4) 0.3564(2)
O10 O 0.8694(4) 0.4383(4) 0.4128(2)
C30 C 0.8264(7) 0.4716(8) 0.3936(4)
C31 C 0.8599(6) 0.4359(6) 0.3282(4)
C32 C 0.6977(5) 0.5265(5) 0.5136(3)
H21 H 0.6805 0.4796 0.5189
H22 H 0.7422 0.5320 0.5271
O11 O 0.65130(17) 0.57435(17) 0.52764(9)
C33 C 0.8206(6) 0.4388(7) 0.2911(3)
H23 H 0.7754 0.4180 0.2949
H24 H 0.8455 0.4137 0.2707
H25 H 0.8150 0.4868 0.2831
C34 C 0.8735(7) 0.3618(7) 0.3411(4)
H26 H 0.9164 0.3600 0.3560
H27 H 0.8773 0.3323 0.3181
H28 H 0.8356 0.3459 0.3576
C35 C 0.9288(6) 0.4687(7) 0.3291(4)
H29 H 0.9285 0.5096 0.3125
H30 H 0.9632 0.4362 0.3194
H31 H 0.9401 0.4818 0.3559
Al4 Al 0.39352(8) 0.38176(7) 0.42421(4)
O12 O 0.44432(19) 0.46750(16) 0.35197(9)
O13 O 0.31674(17) 0.39925(17) 0.45700(10)
O14 O 0.43961(15) 0.46303(14) 0.43019(8)
H32 H 0.4331 0.4854 0.4511
O15 O 0.35339(19) 0.41177(18) 0.37754(11)
C36 C 0.3567(3) 0.4376(3) 0.30922(17)
C37 C 0.1896(3) 0.6855(3) 0.08137(15)
C38 C 0.0543(3) 0.2685(3) 0.10872(17)
H33 H 0.0100 0.2764 0.0980
C39 C 0.2198(3) 0.5603(3) 0.11827(16)
C40 C 0.3878(3) 0.4394(3) 0.34868(17)
C41 C 0.2055(3) 0.6163(3) 0.13967(17)
H34 H 0.2062 0.6133 0.1673
C42 C 0.1989(3) 0.4351(3) 0.12373(18)
H35 H 0.1744 0.4369 0.0998
C43 C 0.0302(3) 0.1429(3) 0.10822(14)
C44 C 0.2041(3) 0.3705(3) 0.14426(19)
C45 C 0.1443(3) 0.1904(3) 0.12948(15)
H36 H 0.1601 0.1449 0.1335
C46 C 0.0956(3) 0.3222(3) 0.11729(17)
H37 H 0.0794 0.3675 0.1131
C47 C 0.1625(4) 0.3123(3) 0.13229(17)
C48 C 0.1891(3) 0.6804(3) 0.12144(17)
H38 H 0.1780 0.7192 0.1369
C49 C 0.0771(3) 0.2005(3) 0.11578(15)
C50 C 0.1877(3) 0.2441(3) 0.13719(18)
H39 H 0.2334 0.2361 0.1456
C51 C 0.3844(3) 0.4738(3) 0.28012(16)
H40 H 0.4234 0.5017 0.2848
C52 C 0.2380(3) 0.3714(3) 0.18000(19)
H41 H 0.2408 0.3301 0.1946
C53 C 0.2039(3) 0.6290(3) 0.05927(17)
H42 H 0.2019 0.6324 0.0316
C54 C 0.2971(3) 0.3962(3) 0.30291(18)
H43 H 0.2763 0.3715 0.3236
C55 C 0.2216(3) 0.5658(3) 0.0766(2)
H44 H 0.2344 0.5277 0.0609
C56 C 0.2288(3) 0.4942(3) 0.13804(17)
C57 C 0.2994(3) 0.4317(3) 0.23542(18)
C58 C 0.1699(3) 0.7520(3) 0.06367(16)
C59 C 0.2635(3) 0.4913(3) 0.17401(18)
H45 H 0.2841 0.5317 0.1841
C60 C 0.2712(4) 0.3938(3) 0.2654(2)
H46 H 0.2329 0.3652 0.2601
C61 C 0.3557(4) 0.4705(3) 0.24243(19)
H47 H 0.3760 0.4958 0.2217
C62 C 0.2682(3) 0.4304(3) 0.19524(18)
O17 O 0.17671(19) 0.75914(17) 0.02615(11)
O18 O 0.15034(18) 0.79694(18) 0.08620(10)
O19 O 0.05366(16) 0.08208(16) 0.10919(9)
C63 C 0.2221(6) 0.4809(6) 0.4543(3)
H48 H 0.1900 0.4429 0.4600
H49 H 0.2046 0.5231 0.4669
C64 C 0.2921(5) 0.4641(5) 0.4693(3)
H50 H 0.3233 0.4984 0.4568
N2 N 0.2286(5) 0.4911(5) 0.4114(2)
H51 H 0.2686 0.5094 0.4057
O20 O 0.1845(4) 0.5220(4) 0.3564(2)
O21 O 0.1306(4) 0.5617(4) 0.4128(2)
C65 C 0.1736(7) 0.5284(8) 0.3936(4)
C66 C 0.1401(6) 0.5641(6) 0.3282(4)
C67 C 0.3023(5) 0.4735(5) 0.5136(3)
H52 H 0.3195 0.5204 0.5189
H53 H 0.2578 0.4680 0.5271
O22 O 0.34870(17) 0.42565(17) 0.52764(9)
C68 C 0.1794(6) 0.5612(7) 0.2911(3)
H54 H 0.2246 0.5820 0.2949
H55 H 0.1545 0.5863 0.2707
H56 H 0.1850 0.5132 0.2831
C69 C 0.1265(7) 0.6382(7) 0.3411(4)
H57 H 0.0836 0.6400 0.3560
H58 H 0.1227 0.6677 0.3181
H59 H 0.1644 0.6541 0.3576
C70 C 0.0712(6) 0.5313(7) 0.3291(4)
H60 H 0.0715 0.4904 0.3125
H61 H 0.0368 0.5638 0.3194
H62 H 0.0599 0.5182 0.3559
Al6_4 Al 1.0000 1.0000 0.10663(6)
Al8 Al 0.34286(7) 0.34286(7) 0.5000
Al13 Al 0.89352(8) 0.11824(7) 0.07579(4)
Al14 Al 0.61824(7) 0.60648(8) 0.57579(4)
Al15 Al 0.38176(7) 0.39352(8) 0.57579(4)
O23 O 0.60075(17) 0.68326(17) 0.54300(10)
O24 O 0.53166(19) 0.65767(17) 0.39803(9)
O25 O 0.46834(19) 0.34233(17) 0.39803(9)
O26 O 0.74086(17) 0.67671(19) 0.52615(11)
O27 O 0.67671(19) 0.74086(17) 0.47385(11)
O28 O 0.34966(18) 0.29694(18) 0.41380(10)
O29 O 0.65034(18) 0.70306(18) 0.41380(10)
O30 O 0.44634(16) 0.58208(16) 0.39081(9)
O31 O 0.55366(16) 0.41792(16) 0.39081(9)
O32 O 0.57435(17) 0.65130(17) 0.47236(9)
O33 O 0.42565(17) 0.34870(17) 0.47236(9)
Al16 Al 0.5000 0.5000 0.60663(6)
O34 O 0.46750(16) 0.44432(19) 0.64803(9)
O35 O 0.46303(14) 0.43961(15) 0.56981(8)
O36 O 0.53250(16) 0.55568(19) 0.64803(9)
O37 O 0.53697(14) 0.56039(15) 0.56981(8)
O38 O 0.41792(16) 0.55366(16) 0.60919(9)
O39 O 0.58208(16) 0.44634(16) 0.60919(9)
O40 O 0.39925(17) 0.31674(17) 0.54300(10)
O41 O 0.32329(19) 0.25914(17) 0.47385(11)
O42 O 0.25914(17) 0.32329(19) 0.52615(11)
O43 O 0.41177(18) 0.35339(19) 0.62246(11)
O44 O 0.34233(17) 0.46834(19) 0.60197(9)
O45 O 0.29694(18) 0.34966(18) 0.58620(10)
C71 C 0.4394(3) 0.3878(3) 0.65132(17)
C72 C 0.4641(5) 0.2921(5) 0.5307(3)
H63 H 0.4854 0.4331 0.5489
C73 C 0.4376(3) 0.3567(3) 0.69078(17)
C74 C 0.4738(3) 0.3844(3) 0.71988(16)
C75 C 0.3962(3) 0.2971(3) 0.69709(18)
C76 C 0.6855(3) 0.1896(3) 0.91863(15)
C77 C 0.6804(3) 0.1891(3) 0.87856(17)
C78 C 0.6290(3) 0.2039(3) 0.94073(17)
C79 C 0.7520(3) 0.1699(3) 0.93633(16)
C80 C 0.2685(3) 0.0543(3) 0.89128(17)
H64 H 0.2764 0.0100 0.9020
C81 C 0.3222(3) 0.0956(3) 0.88271(17)
C82 C 0.2005(3) 0.0771(3) 0.88422(15)
C83 C 0.5603(3) 0.2198(3) 0.88173(16)
C84 C 0.6163(3) 0.2055(3) 0.86033(17)
C85 C 0.5658(3) 0.2216(3) 0.9234(2)
C86 C 0.4942(3) 0.2288(3) 0.86196(17)
H65 H 0.6133 0.2062 0.8327
C87 C 0.4351(3) 0.1989(3) 0.87627(18)
H66 H 0.4369 0.1744 0.9002
C88 C 0.3705(3) 0.2041(3) 0.85574(19)
C89 C 0.1429(3) 0.0302(3) 0.89178(14)
O47 O 0.08208(16) 0.05366(16) 0.89081(9)
C90 C 0.3123(3) 0.1625(4) 0.86771(17)
C91 C 0.3714(3) 0.2380(3) 0.82000(19)
C92 C 0.1904(3) 0.1443(3) 0.87052(15)
H67 H 0.1449 0.1601 0.8665
C93 C 0.2441(3) 0.1877(3) 0.86281(18)
H68 H 0.3675 0.0794 0.8869
H69 H 0.7192 0.1780 0.8631
H70 H 0.2361 0.2334 0.8544
H71 H 0.5017 0.4234 0.7152
C94 C 0.4705(3) 0.3557(4) 0.75757(19)
H72 H 0.3301 0.2408 0.8054
C95 C 0.4304(3) 0.2682(3) 0.80476(18)
H73 H 0.6324 0.2019 0.9684
H74 H 0.3715 0.2763 0.6764
C96 C 0.3938(3) 0.2712(4) 0.7346(2)
H75 H 0.5277 0.2344 0.9391
C97 C 0.4913(3) 0.2635(3) 0.82599(18)
C98 C 0.4317(3) 0.2994(3) 0.76458(18)
O48 O 0.75914(17) 0.17671(19) 0.97385(11)
O49 O 0.79694(18) 0.15034(18) 0.91380(10)
H76 H 0.5317 0.2841 0.8159
H77 H 0.3652 0.2329 0.7399
H78 H 0.4958 0.3760 0.7783
Al18_2 Al 0.84286(7) 0.15714(7) 1.0000
C99 C 0.4809(6) 0.2221(6) 0.5457(3)
H79 H 0.4429 0.1900 0.5400
H80 H 0.5231 0.2046 0.5331
N3 N 0.4911(5) 0.2286(5) 0.5886(2)
H81 H 0.4984 0.3233 0.5432
C100 C 0.4735(5) 0.3023(5) 0.4864(3)
H82 H 0.5094 0.2686 0.5943
C101 C 0.5284(8) 0.1736(7) 0.6064(4)
O50 O 0.5220(4) 0.1845(4) 0.6436(2)
C102 C 0.5641(6) 0.1401(6) 0.6718(4)
O51 O 0.5617(4) 0.1306(4) 0.5872(2)
C103 C 0.5612(7) 0.1794(6) 0.7089(3)
C104 C 0.6382(7) 0.1265(7) 0.6589(4)
C105 C 0.5313(7) 0.0712(6) 0.6709(4)
H83 H 0.5204 0.3195 0.4811
H84 H 0.4680 0.2578 0.4729
H85 H 0.5820 0.2246 0.7051
H86 H 0.5863 0.1545 0.7293
H87 H 0.5132 0.1850 0.7169
H88 H 0.6400 0.0836 0.6440
H89 H 0.6677 0.1227 0.6819
H90 H 0.6541 0.1644 0.6424
H91 H 0.4904 0.0715 0.6875
H92 H 0.5638 0.0368 0.6806
H93 H 0.5182 0.0599 0.6441
O52 O 0.58823(18) 0.64661(19) 0.62246(11)
O53 O 0.65767(17) 0.53166(19) 0.60197(9)
O54 O 0.70306(18) 0.65034(18) 0.58620(10)
C106 C 0.5606(3) 0.6122(3) 0.65132(17)
C107 C 0.5359(5) 0.7079(5) 0.5307(3)
H94 H 0.5146 0.5669 0.5489
C108 C 0.5624(3) 0.6433(3) 0.69078(17)
C109 C 0.5262(3) 0.6156(3) 0.71988(16)
C110 C 0.6038(3) 0.7029(3) 0.69709(18)
C111 C 0.3145(3) 0.8104(3) 0.91863(15)
C112 C 0.3196(3) 0.8109(3) 0.87856(17)
C113 C 0.3710(3) 0.7961(3) 0.94073(17)
C114 C 0.2480(3) 0.8301(3) 0.93633(16)
C115 C 0.7315(3) 0.9457(3) 0.89128(17)
H95 H 0.7236 0.9900 0.9020
C116 C 0.6778(3) 0.9044(3) 0.88271(17)
C117 C 0.7995(3) 0.9229(3) 0.88422(15)
C118 C 0.4397(3) 0.7802(3) 0.88173(16)
C119 C 0.3837(3) 0.7945(3) 0.86033(17)
C120 C 0.4342(3) 0.7784(3) 0.9234(2)
C121 C 0.5058(3) 0.7712(3) 0.86196(17)
H96 H 0.3867 0.7938 0.8327
C122 C 0.5649(3) 0.8011(3) 0.87627(18)
H97 H 0.5631 0.8256 0.9002
C123 C 0.6295(3) 0.7959(3) 0.85574(19)
C124 C 0.8571(3) 0.9698(3) 0.89178(14)
O56 O 0.91792(16) 0.94634(16) 0.89081(9)
C125 C 0.6877(3) 0.8375(4) 0.86771(17)
C126 C 0.6286(3) 0.7620(3) 0.82000(19)
C127 C 0.8096(3) 0.8557(3) 0.87052(15)
H98 H 0.8551 0.8399 0.8665
C128 C 0.7559(3) 0.8123(3) 0.86281(18)
H99 H 0.6325 0.9206 0.8869
H100 H 0.2808 0.8220 0.8631
H101 H 0.7639 0.7666 0.8544
H102 H 0.4983 0.5766 0.7152
C129 C 0.5295(3) 0.6443(4) 0.75757(19)
H103 H 0.6699 0.7592 0.8054
C130 C 0.5696(3) 0.7318(3) 0.80476(18)
H104 H 0.3676 0.7981 0.9684
H105 H 0.6285 0.7237 0.6764
C131 C 0.6062(3) 0.7288(4) 0.7346(2)
H106 H 0.4723 0.7656 0.9391
C132 C 0.5087(3) 0.7365(3) 0.82599(18)
C133 C 0.5683(3) 0.7006(3) 0.76458(18)
O57 O 0.24086(17) 0.82329(19) 0.97385(11)
O58 O 0.20306(18) 0.84966(18) 0.91380(10)
H107 H 0.4683 0.7159 0.8159
H108 H 0.6348 0.7671 0.7399
H109 H 0.5042 0.6240 0.7783
Al22_2 Al 0.15714(7) 0.84286(7) 1.0000
Al23 Al 0.11824(7) 0.89352(8) 0.92421(4)
Al24_4 Al 1.0000 1.0000 0.89337(6)
C134 C 0.5191(6) 0.7779(6) 0.5457(3)
H110 H 0.5571 0.8100 0.5400
H111 H 0.4769 0.7954 0.5331
N4 N 0.5089(5) 0.7714(5) 0.5886(2)
H112 H 0.5016 0.6767 0.5432
C135 C 0.5265(5) 0.6977(5) 0.4864(3)
H113 H 0.4906 0.7314 0.5943
C136 C 0.4716(8) 0.8264(7) 0.6064(4)
O59 O 0.4780(4) 0.8155(4) 0.6436(2)
C137 C 0.4359(6) 0.8599(6) 0.6718(4)
O60 O 0.4383(4) 0.8694(4) 0.5872(2)
C138 C 0.4388(7) 0.8206(6) 0.7089(3)
C139 C 0.3618(7) 0.8735(7) 0.6589(4)
C140 C 0.4687(7) 0.9288(6) 0.6709(4)
H114 H 0.4796 0.6805 0.4811
H115 H 0.5320 0.7422 0.4729
H116 H 0.4180 0.7754 0.7051
H117 H 0.4137 0.8455 0.7293
H118 H 0.4868 0.8150 0.7169
H119 H 0.3600 0.9164 0.6440
H120 H 0.3323 0.8773 0.6819
H121 H 0.3459 0.8356 0.6424
H122 H 0.5096 0.9285 0.6875
H123 H 0.4362 0.9632 0.6806
H124 H 0.4818 0.9401 0.6441
O46 O 0.15767(17) 0.96834(19) 0.89803(9)
O16 O 0.96834(19) 0.15767(17) 0.10197(9)
H21_2 H 0.0204 0.1805 0.0189
C76_2 C 0.3104(3) 0.1855(3) 0.41863(15)
C77_2 C 0.3109(3) 0.1804(3) 0.37856(17)
C78_2 C 0.2961(3) 0.1290(3) 0.44073(17)
C79_2 C 0.3301(3) 0.2520(3) 0.43633(16)
C83_2 C 0.2802(3) 0.0603(3) 0.38173(16)
C84_2 C 0.2945(3) 0.1163(3) 0.36033(17)
C85_2 C 0.2784(3) 0.0658(3) 0.4234(2)
H65_2 H 0.2938 0.1133 0.3327
H69_2 H 0.3220 0.2192 0.3631
H71_2 H 0.0766 0.0017 0.2152
H73_2 H 0.2981 0.1324 0.4684
H75_2 H 0.2656 0.0277 0.4391
H76_2 H 0.2159 0.0317 0.3159
H80_2 H 0.2954 0.0231 0.0331
H82_2 H 0.2314 0.0094 0.0943
C101_2 C 0.3264(7) 0.0284(8) 0.1064(4)
O50_2 O 0.3155(4) 0.0220(4) 0.1436(2)
C102_2 C 0.3599(6) 0.0641(6) 0.1718(4)
O51_2 O 0.3694(4) 0.0617(4) 0.0872(2)
C103_2 C 0.3206(6) 0.0612(7) 0.2089(3)
C104_2 C 0.3735(7) 0.1382(7) 0.1589(4)
C105_2 C 0.4288(6) 0.0313(7) 0.1709(4)
H85_2 H 0.2754 0.0820 0.2051
H86_2 H 0.3455 0.0863 0.2293
H87_2 H 0.3150 0.0132 0.2169
H88_2 H 0.4164 0.1400 0.1440
H89_2 H 0.3773 0.1677 0.1819
H90_2 H 0.3356 0.1541 0.1424
H92_2 H 0.4632 0.0638 0.1806
H93_2 H 0.4401 0.0182 0.1441
C2_2 C 0.1855(3) 0.3104(3) 0.58137(15)
C4_2 C 0.0603(3) 0.2802(3) 0.61827(16)
C6_2 C 0.1163(3) 0.2945(3) 0.63967(17)
H3_2 H 0.1133 0.2938 0.6673
C13_2 C 0.1804(3) 0.3109(3) 0.62144(17)
H7_2 H 0.2192 0.3220 0.6369
H9_2 H 0.0017 0.0766 0.7848
C18_2 C 0.1290(3) 0.2961(3) 0.55927(17)
H11_2 H 0.1324 0.2981 0.5316
C20_2 C 0.0658(3) 0.2784(3) 0.5766(2)
H13_2 H 0.0277 0.2656 0.5609
C23_2 C 0.2520(3) 0.3301(3) 0.56367(16)
H14_2 H 0.0317 0.2159 0.6841
H18_2 H 0.0231 0.2954 0.9669
H20_2 H 0.0094 0.2314 0.9057
O9_2 O 0.0220(4) 0.3155(4) 0.8564(2)
O10_2 O 0.0617(4) 0.3694(4) 0.9128(2)
C30_2 C 0.0284(8) 0.3264(7) 0.8936(4)
C31_2 C 0.0641(6) 0.3599(6) 0.8282(4)
C33_2 C 0.0612(7) 0.3206(6) 0.7911(3)
H23_2 H 0.0820 0.2754 0.7949
H24_2 H 0.0863 0.3455 0.7707
H25_2 H 0.0132 0.3150 0.7831
C34_2 C 0.1382(7) 0.3735(7) 0.8411(4)
H26_2 H 0.1400 0.4164 0.8560
H27_2 H 0.1677 0.3773 0.8181
H28_2 H 0.1541 0.3356 0.8576
C35_2 C 0.0313(7) 0.4288(6) 0.8291(4)
H30_2 H 0.0638 0.4632 0.8194
H31_2 H 0.0182 0.4401 0.8559
H83_2 H 0.1805 0.0204 0.9811
C67_2 C 0.0265(5) 0.8023(5) 0.0136(3)
H53_2 H 0.0320 0.7578 0.0271
O22_2 O 0.07435(17) 0.84870(17) 0.02764(9)
O34_2 O 0.05568(19) 0.96750(16) 0.14803(9)
O35_2 O 0.06039(15) 0.96303(14) 0.06981(8)
O40_2 O 0.18326(17) 0.89925(17) 0.04300(10)
O43_2 O 0.14661(19) 0.91177(18) 0.12246(11)
C71_2 C 0.1122(3) 0.9394(3) 0.15132(17)
C72_2 C 0.2079(5) 0.9641(5) 0.0307(3)
H63_2 H 0.0669 0.9854 0.0489
C73_2 C 0.1433(3) 0.9376(3) 0.19078(17)
C74_2 C 0.1156(3) 0.9738(3) 0.21988(16)
C75_2 C 0.2029(3) 0.8962(3) 0.19709(18)
C80_2 C 0.4457(3) 0.7685(3) 0.39128(17)
H64_2 H 0.4900 0.7764 0.4020
C81_2 C 0.4044(3) 0.8222(3) 0.38271(17)
C82_2 C 0.4229(3) 0.7005(3) 0.38422(15)
C86_2 C 0.2712(3) 0.9942(3) 0.36196(17)
C87_2 C 0.3011(3) 0.9351(3) 0.37627(18)
H66_2 H 0.3256 0.9369 0.4002
C88_2 C 0.2959(3) 0.8705(3) 0.35574(19)
C89_2 C 0.4698(3) 0.6429(3) 0.39178(14)
C90_2 C 0.3375(4) 0.8123(3) 0.36771(17)
C91_2 C 0.2620(3) 0.8714(3) 0.32000(19)
C92_2 C 0.3557(3) 0.6904(3) 0.37052(15)
H67_2 H 0.3399 0.6449 0.3665
C93_2 C 0.3123(3) 0.7441(3) 0.36281(18)
H68_2 H 0.4206 0.8675 0.3869
H70_2 H 0.2666 0.7361 0.3544
C94_2 C 0.1443(4) 0.9705(3) 0.25757(19)
H72_2 H 0.2592 0.8301 0.3054
C95_2 C 0.2318(3) 0.9304(3) 0.30476(18)
H74_2 H 0.2237 0.8715 0.1764
C96_2 C 0.2288(4) 0.8938(3) 0.2346(2)
C97_2 C 0.2365(3) 0.9913(3) 0.32599(18)
C98_2 C 0.2006(3) 0.9317(3) 0.26458(18)
H77_2 H 0.2671 0.8652 0.2399
H78_2 H 0.1240 0.9958 0.2783
C99_2 C 0.2779(6) 0.9809(6) 0.0457(3)
H79_2 H 0.3100 0.9429 0.0400
N3_2 N 0.2714(5) 0.9911(5) 0.0886(2)
H81_2 H 0.1767 0.9984 0.0432
H91_2 H 0.4285 0.9904 0.1875
O12_2 O 0.03250(16) 0.94432(19) 0.85197(9)
O13_2 O 0.10075(17) 0.81674(17) 0.95700(10)
O14_2 O 0.03697(14) 0.93961(15) 0.93019(8)
H32_2 H 0.0146 0.9331 0.9511
O15_2 O 0.08823(18) 0.85339(19) 0.87754(11)
C36_2 C 0.0624(3) 0.8567(3) 0.80922(17)
C38_2 C 0.2315(3) 0.5543(3) 0.60872(17)
H33_2 H 0.2236 0.5100 0.5980
C40_2 C 0.0606(3) 0.8878(3) 0.84868(17)
C42_2 C 0.0649(3) 0.6989(3) 0.62373(18)
H35_2 H 0.0631 0.6744 0.5998
C43_2 C 0.3571(3) 0.5302(3) 0.60822(14)
C44_2 C 0.1295(3) 0.7041(3) 0.64426(19)
C45_2 C 0.3096(3) 0.6443(3) 0.62948(15)
H36_2 H 0.3551 0.6601 0.6335
C46_2 C 0.1778(3) 0.5956(3) 0.61729(17)
H37_2 H 0.1325 0.5794 0.6131
C47_2 C 0.1877(3) 0.6625(4) 0.63229(17)
C49_2 C 0.2995(3) 0.5771(3) 0.61578(15)
C50_2 C 0.2559(3) 0.6877(3) 0.63719(18)
H39_2 H 0.2639 0.7334 0.6456
C51_2 C 0.0262(3) 0.8844(3) 0.78012(16)
C52_2 C 0.1286(3) 0.7380(3) 0.68000(19)
H41_2 H 0.1699 0.7408 0.6946
C54_2 C 0.1038(3) 0.7971(3) 0.80291(18)
H43_2 H 0.1285 0.7763 0.8236
C56_2 C 0.0058(3) 0.7288(3) 0.63804(17)
C57_2 C 0.0683(3) 0.7994(3) 0.73542(18)
C59_2 C 0.0087(3) 0.7635(3) 0.67401(18)
C60_2 C 0.1062(3) 0.7712(4) 0.7654(2)
H46_2 H 0.1348 0.7329 0.7601
C61_2 C 0.0295(3) 0.8557(4) 0.74243(19)
H47_2 H 0.0042 0.8760 0.7217
C62_2 C 0.0696(3) 0.7682(3) 0.69524(18)
C63_2 C 0.0191(6) 0.7221(6) 0.9543(3)
H48_2 H 0.0571 0.6900 0.9600
C64_2 C 0.0359(5) 0.7921(5) 0.9693(3)
H50_2 H 0.0016 0.8233 0.9568
N2_2 N 0.0089(5) 0.7286(5) 0.9114(2)
H60_2 H 0.0096 0.5715 0.8125
O33_2 O 0.15130(17) 0.92565(17) 0.97236(9)
C100_2 C 0.1977(5) 0.9735(5) 0.9864(3)
H84_2 H 0.2422 0.9680 0.9729
C32_2 C 0.9735(5) 0.1977(5) 0.0136(3)
H22_2 H 0.9680 0.2422 0.0271
O11_2 O 0.92565(17) 0.15130(17) 0.02764(9)
O23_2 O 0.81674(17) 0.10075(17) 0.04300(10)
O36_2 O 0.94432(19) 0.03250(16) 0.14803(9)
O37_2 O 0.93961(15) 0.03697(14) 0.06981(8)
O52_2 O 0.85339(19) 0.08823(18) 0.12246(11)
C106_2 C 0.8878(3) 0.0606(3) 0.15132(17)
C107_2 C 0.7921(5) 0.0359(5) 0.0307(3)
H94_2 H 0.9331 0.0146 0.0489
C108_2 C 0.8567(3) 0.0624(3) 0.19078(17)
C109_2 C 0.8844(3) 0.0262(3) 0.21988(16)
C110_2 C 0.7971(3) 0.1038(3) 0.19709(18)
C115_2 C 0.5543(3) 0.2315(3) 0.39128(17)
H95_2 H 0.5100 0.2236 0.4020
C116_2 C 0.5956(3) 0.1778(3) 0.38271(17)
C117_2 C 0.5771(3) 0.2995(3) 0.38422(15)
C121_2 C 0.7288(3) 0.0058(3) 0.36196(17)
C122_2 C 0.6989(3) 0.0649(3) 0.37627(18)
H97_2 H 0.6744 0.0631 0.4002
C123_2 C 0.7041(3) 0.1295(3) 0.35574(19)
C124_2 C 0.5302(3) 0.3571(3) 0.39178(14)
C125_2 C 0.6625(4) 0.1877(3) 0.36771(17)
C126_2 C 0.7380(3) 0.1286(3) 0.32000(19)
C127_2 C 0.6443(3) 0.3096(3) 0.37052(15)
H98_2 H 0.6601 0.3551 0.3665
C128_2 C 0.6877(3) 0.2559(3) 0.36281(18)
H99_2 H 0.5794 0.1325 0.3869
H101_2 H 0.7334 0.2639 0.3544
C129_2 C 0.8557(4) 0.0295(3) 0.25757(19)
H103_2 H 0.7408 0.1699 0.3054
C130_2 C 0.7682(3) 0.0696(3) 0.30476(18)
H105_2 H 0.7763 0.1285 0.1764
C131_2 C 0.7712(4) 0.1062(3) 0.2346(2)
C132_2 C 0.7635(3) 0.0087(3) 0.32599(18)
C133_2 C 0.7994(3) 0.0683(3) 0.26458(18)
H108_2 H 0.7329 0.1348 0.2399
H109_2 H 0.8760 0.0042 0.2783
C134_2 C 0.7221(6) 0.0191(6) 0.0457(3)
H110_2 H 0.6900 0.0571 0.0400
N4_2 N 0.7286(5) 0.0089(5) 0.0886(2)
H112_2 H 0.8233 0.0016 0.0432
H122_2 H 0.5715 0.0096 0.1875
O1_2 O 0.96750(16) 0.05568(19) 0.85197(9)
O2_2 O 0.89925(17) 0.18326(17) 0.95700(10)
O3_2 O 0.96303(14) 0.06039(15) 0.93019(8)
H1_2 H 0.9854 0.0669 0.9511
O4_2 O 0.91177(18) 0.14661(19) 0.87754(11)
C1_2 C 0.9376(3) 0.1433(3) 0.80922(17)
C3_2 C 0.7685(3) 0.4457(3) 0.60872(17)
H2_2 H 0.7764 0.4900 0.5980
C5_2 C 0.9394(3) 0.1122(3) 0.84868(17)
C7_2 C 0.9351(3) 0.3011(3) 0.62373(18)
H4_2 H 0.9369 0.3256 0.5998
C8_2 C 0.6429(3) 0.4698(3) 0.60822(14)
C9_2 C 0.8705(3) 0.2959(3) 0.64426(19)
C10_2 C 0.6904(3) 0.3557(3) 0.62948(15)
H5_2 H 0.6449 0.3399 0.6335
C11_2 C 0.8222(3) 0.4044(3) 0.61729(17)
H6_2 H 0.8675 0.4206 0.6131
C12_2 C 0.8123(3) 0.3375(4) 0.63229(17)
C14_2 C 0.7005(3) 0.4229(3) 0.61578(15)
C15_2 C 0.7441(3) 0.3123(3) 0.63719(18)
H8_2 H 0.7361 0.2666 0.6456
C16_2 C 0.9738(3) 0.1156(3) 0.78012(16)
C17_2 C 0.8714(3) 0.2620(3) 0.68000(19)
H10_2 H 0.8301 0.2592 0.6946
C19_2 C 0.8962(3) 0.2029(3) 0.80291(18)
H12_2 H 0.8715 0.2237 0.8236
C21_2 C 0.9942(3) 0.2712(3) 0.63804(17)
C22_2 C 0.9317(3) 0.2006(3) 0.73542(18)
C24_2 C 0.9913(3) 0.2365(3) 0.67401(18)
C25_2 C 0.8938(3) 0.2288(4) 0.7654(2)
H15_2 H 0.8652 0.2671 0.7601
C26_2 C 0.9705(3) 0.1443(4) 0.74243(19)
H16_2 H 0.9958 0.1240 0.7217
C27_2 C 0.9304(3) 0.2318(3) 0.69524(18)
C28_2 C 0.9809(6) 0.2779(6) 0.9543(3)
H17_2 H 0.9429 0.3100 0.9600
C29_2 C 0.9641(5) 0.2079(5) 0.9693(3)
H19_2 H 0.9984 0.1767 0.9568
N1_2 N 0.9911(5) 0.2714(5) 0.9114(2)
H29_2 H 0.9904 0.4285 0.8125
O32_2 O 0.84870(17) 0.07435(17) 0.97236(9)
C135_2 C 0.8023(5) 0.0265(5) 0.9864(3)
H115_2 H 0.7578 0.0320 0.9729
H52_2 H 0.9796 0.8195 0.0189
C111_2 C 0.6896(3) 0.8145(3) 0.41863(15)
C112_2 C 0.6891(3) 0.8196(3) 0.37856(17)
C113_2 C 0.7039(3) 0.8710(3) 0.44073(17)
C114_2 C 0.6699(3) 0.7480(3) 0.43633(16)
C118_2 C 0.7198(3) 0.9397(3) 0.38173(16)
C119_2 C 0.7055(3) 0.8837(3) 0.36033(17)
C120_2 C 0.7216(3) 0.9342(3) 0.4234(2)
H96_2 H 0.7062 0.8867 0.3327
H100_2 H 0.6780 0.7808 0.3631
H102_2 H 0.9234 0.9983 0.2152
H104_2 H 0.7019 0.8676 0.4684
H106_2 H 0.7344 0.9723 0.4391
H107_2 H 0.7841 0.9683 0.3159
H111_2 H 0.7046 0.9769 0.0331
H113_2 H 0.7686 0.9906 0.0943
C136_2 C 0.6736(7) 0.9716(8) 0.1064(4)
O59_2 O 0.6845(4) 0.9780(4) 0.1436(2)
C137_2 C 0.6401(6) 0.9359(6) 0.1718(4)
O60_2 O 0.6306(4) 0.9383(4) 0.0872(2)
C138_2 C 0.6794(6) 0.9388(7) 0.2089(3)
C139_2 C 0.6265(7) 0.8618(7) 0.1589(4)
C140_2 C 0.5712(6) 0.9687(7) 0.1709(4)
H116_2 H 0.7246 0.9180 0.2051
H117_2 H 0.6545 0.9137 0.2293
H118_2 H 0.6850 0.9868 0.2169
H119_2 H 0.5836 0.8600 0.1440
H120_2 H 0.6227 0.8323 0.1819
H121_2 H 0.6644 0.8459 0.1424
H123_2 H 0.5368 0.9362 0.1806
H124_2 H 0.5599 0.9818 0.1441
C37_2 C 0.8145(3) 0.6896(3) 0.58137(15)
C39_2 C 0.9397(3) 0.7198(3) 0.61827(16)
C41_2 C 0.8837(3) 0.7055(3) 0.63967(17)
H34_2 H 0.8867 0.7062 0.6673
C48_2 C 0.8196(3) 0.6891(3) 0.62144(17)
H38_2 H 0.7808 0.6780 0.6369
H40_2 H 0.9983 0.9234 0.7848
C53_2 C 0.8710(3) 0.7039(3) 0.55927(17)
H42_2 H 0.8676 0.7019 0.5316
C55_2 C 0.9342(3) 0.7216(3) 0.5766(2)
H44_2 H 0.9723 0.7344 0.5609
C58_2 C 0.7480(3) 0.6699(3) 0.56367(16)
H45_2 H 0.9683 0.7841 0.6841
H49_2 H 0.9769 0.7046 0.9669
H51_2 H 0.9906 0.7686 0.9057
O20_2 O 0.9780(4) 0.6845(4) 0.8564(2)
O21_2 O 0.9383(4) 0.6306(4) 0.9128(2)
C65_2 C 0.9716(8) 0.6736(7) 0.8936(4)
C66_2 C 0.9359(6) 0.6401(6) 0.8282(4)
C68_2 C 0.9388(7) 0.6794(6) 0.7911(3)
H54_2 H 0.9180 0.7246 0.7949
H55_2 H 0.9137 0.6545 0.7707
H56_2 H 0.9868 0.6850 0.7831
C69_2 C 0.8618(7) 0.6265(7) 0.8411(4)
H57_2 H 0.8600 0.5836 0.8560
H58_2 H 0.8323 0.6227 0.8181
H59_2 H 0.8459 0.6644 0.8576
C70_2 C 0.9687(7) 0.5712(6) 0.8291(4)
H61_2 H 0.9362 0.5368 0.8194
H62_2 H 0.9818 0.5599 0.8559
H114_2 H 0.8195 0.9796 0.9811
loop_
_geom_bond_atom_site_label_1
_geom_bond_atom_site_label_2
_geom_bond_site_symmetry_1
_geom_bond_site_symmetry_2
Al11 O5 1_555 1_555
Al21 O55 1_555 1_555
Al1 O1 1_555 1_555
Al2 O2 1_555 1_555
Al3 O2 1_555 1_555
O1 C5 1_555 1_555
O2 C29 1_555 1_555
O3 Al1 1_555 1_555
H1 O3 1_555 1_555
O4 Al3 1_555 1_555
C1 C5 1_555 1_555
C2 C13 1_555 1_555
C3 H2 1_555 1_555
C4 C6 1_555 1_555
C5 O4 1_555 1_555
C6 H3 1_555 1_555
C7 H4 1_555 1_555
C8 C14 1_555 1_555
C9 C7 1_555 1_555
C10 H5 1_555 1_555
C11 C3 1_555 1_555
H6 C11 1_555 1_555
C12 C9 1_555 1_555
C13 C6 1_555 1_555
H7 C13 1_555 1_555
C14 C3 1_555 1_555
C15 C10 1_555 1_555
H8 C15 1_555 1_555
C16 C1 1_555 1_555
H9 C16 1_555 1_555
C17 C9 1_555 1_555
H10 C17 1_555 1_555
C18 C2 1_555 1_555
H11 C18 1_555 1_555
C19 C1 1_555 1_555
H12 C19 1_555 1_555
C20 C4 1_555 1_555
H13 C20 1_555 1_555
C21 C4 1_555 1_555
C22 C25 1_555 1_555
C23 C2 1_555 1_555
C24 C21 1_555 1_555
H14 C24 1_555 1_555
C25 C19 1_555 1_555
H15 C25 1_555 1_555
C26 C16 1_555 1_555
H16 C26 1_555 1_555
C27 C17 1_555 1_555
O6 C23 1_555 1_555
O7 C23 1_555 1_555
O8 C8 1_555 1_555
C28 H17 1_555 1_555
H18 C28 1_555 1_555
C29 C28 1_555 1_555
H19 C29 1_555 1_555
N1 C28 1_555 1_555
H20 N1 1_555 1_555
O9 C30 1_555 1_555
O10 C30 1_555 1_555
C30 N1 1_555 1_555
C31 O9 1_555 1_555
C32 C29 1_555 1_555
H21 C32 1_555 1_555
H22 C32 1_555 1_555
O11 Al2 1_555 1_555
C33 C31 1_555 1_555
H23 C33 1_555 1_555
H24 C33 1_555 1_555
H25 C33 1_555 1_555
C34 C31 1_555 1_555
H26 C34 1_555 1_555
H27 C34 1_555 1_555
H28 C34 1_555 1_555
C35 C31 1_555 1_555
H29 C35 1_555 1_555
H30 C35 1_555 1_555
H31 C35 1_555 1_555
Al4 O13 1_555 1_555
O12 Al1 1_555 1_555
O13 C64 1_555 1_555
O14 Al1 1_555 1_555
H32 O14 1_555 1_555
O15 Al4 1_555 1_555
C36 C40 1_555 1_555
C37 C48 1_555 1_555
C38 H33 1_555 1_555
C39 C41 1_555 1_555
C40 O12 1_555 1_555
C41 H34 1_555 1_555
C42 H35 1_555 1_555
C43 C49 1_555 1_555
C44 C42 1_555 1_555
C45 H36 1_555 1_555
C46 C38 1_555 1_555
H37 C46 1_555 1_555
C47 C44 1_555 1_555
C48 C41 1_555 1_555
H38 C48 1_555 1_555
C49 C38 1_555 1_555
C50 C45 1_555 1_555
H39 C50 1_555 1_555
C51 C36 1_555 1_555
H40 C51 1_555 1_555
C52 C44 1_555 1_555
H41 C52 1_555 1_555
C53 C37 1_555 1_555
H42 C53 1_555 1_555
C54 C36 1_555 1_555
H43 C54 1_555 1_555
C55 C39 1_555 1_555
H44 C55 1_555 1_555
C56 C39 1_555 1_555
C57 C60 1_555 1_555
C58 C37 1_555 1_555
C59 C56 1_555 1_555
H45 C59 1_555 1_555
C60 C54 1_555 1_555
H46 C60 1_555 1_555
C61 C51 1_555 1_555
H47 C61 1_555 1_555
C62 C52 1_555 1_555
O17 C58 1_555 1_555
O18 C58 1_555 1_555
O19 C43 1_555 1_555
C63 H48 1_555 1_555
H49 C63 1_555 1_555
C64 C63 1_555 1_555
H50 C64 1_555 1_555
N2 C63 1_555 1_555
H51 N2 1_555 1_555
O20 C65 1_555 1_555
O21 C65 1_555 1_555
C65 N2 1_555 1_555
C66 O20 1_555 1_555
C67 C64 1_555 1_555
H52 C67 1_555 1_555
H53 C67 1_555 1_555
O22 C67 1_555 1_555
C68 C66 1_555 1_555
H54 C68 1_555 1_555
H55 C68 1_555 1_555
H56 C68 1_555 1_555
C69 C66 1_555 1_555
H57 C69 1_555 1_555
H58 C69 1_555 1_555
H59 C69 1_555 1_555
C70 C66 1_555 1_555
H60 C70 1_555 1_555
H61 C70 1_555 1_555
H62 C70 1_555 1_555
Al6 O19 1_555 1_555
Al6_4 O8 1_555 1_555
Al18 O6 1_555 1_555
Al8 O13 1_555 1_555
Al22 O17 1_555 1_555
Al11 O18 1_555 1_555
Al13 O7 1_555 1_555
Al14 O11 1_555 1_555
Al15 O22 1_555 1_555
O23 Al2 1_555 1_555
O24 Al3 1_555 1_555
O25 Al4 1_555 1_555
O26 Al2 1_555 1_555
O27 Al2 1_555 1_555
O28 Al4 1_555 1_555
O29 Al3 1_555 1_555
O30 Al1 1_555 1_555
O31 Al1 1_555 1_555
O32 Al2 1_555 1_555
O33 Al4 1_555 1_555
Al16 O34 1_555 1_555
O34 C71 1_555 1_555
O35 Al15 1_555 1_555
O36 Al16 1_555 1_555
O37 Al14 1_555 1_555
O38 Al16 1_555 1_555
O39 Al16 1_555 1_555
O40 Al8 1_555 1_555
O41 Al8 1_555 1_555
O42 Al8 1_555 1_555
O43 Al15 1_555 1_555
O44 Al15 1_555 1_555
O45 Al15 1_555 1_555
C71 O43 1_555 1_555
C72 O40 1_555 1_555
H63 O35 1_555 1_555
C73 C71 1_555 1_555
C74 C73 1_555 1_555
C75 C73 1_555 1_555
C76 C77 1_555 1_555
C77 C84 1_555 1_555
C78 C76 1_555 1_555
C79 C76 1_555 1_555
C80 H64 1_555 1_555
C81 C80 1_555 1_555
C82 C80 1_555 1_555
C83 C84 1_555 1_555
C84 H65 1_555 1_555
C85 C78 1_555 1_555
C86 C83 1_555 1_555
C87 C86 1_555 1_555
H66 C87 1_555 1_555
C88 C87 1_555 1_555
C89 C82 1_555 1_555
O47 C89 1_555 1_555
C90 C81 1_555 1_555
C91 C88 1_555 1_555
C92 C82 1_555 1_555
H67 C92 1_555 1_555
C93 C90 1_555 1_555
H68 C81 1_555 1_555
H69 C77 1_555 1_555
H70 C93 1_555 1_555
H71 C74 1_555 1_555
C94 C74 1_555 1_555
H72 C91 1_555 1_555
C95 C91 1_555 1_555
H73 C78 1_555 1_555
H74 C75 1_555 1_555
C96 C75 1_555 1_555
H75 C85 1_555 1_555
C97 C86 1_555 1_555
C98 C94 1_555 1_555
O48 C79 1_555 1_555
O49 C79 1_555 1_555
H76 C97 1_555 1_555
H77 C96 1_555 1_555
H78 C94 1_555 1_555
Al18_2 O48 1_555 1_555
Al21 O49 1_555 1_555
Al24 O47 1_555 1_555
C99 C72 1_555 1_555
H79 C99 1_555 1_555
H80 C99 1_555 1_555
N3 C99 1_555 1_555
H81 C72 1_555 1_555
C100 O33 1_555 1_555
H82 N3 1_555 1_555
C101 N3 1_555 1_555
O50 C101 1_555 1_555
C102 O50 1_555 1_555
O51 C101 1_555 1_555
C103 C102 1_555 1_555
C104 C102 1_555 1_555
C105 C102 1_555 1_555
H83 C100 1_555 1_555
H84 C100 1_555 1_555
H85 C103 1_555 1_555
H86 C103 1_555 1_555
H87 C103 1_555 1_555
H88 C104 1_555 1_555
H89 C104 1_555 1_555
H90 C104 1_555 1_555
H91 C105 1_555 1_555
H92 C105 1_555 1_555
H93 C105 1_555 1_555
O52 Al14 1_555 1_555
O53 Al14 1_555 1_555
O54 Al14 1_555 1_555
C106 O36 1_555 1_555
C107 O23 1_555 1_555
H94 O37 1_555 1_555
C108 C106 1_555 1_555
C109 C108 1_555 1_555
C110 C108 1_555 1_555
C111 C112 1_555 1_555
C112 C119 1_555 1_555
C113 C111 1_555 1_555
C114 C111 1_555 1_555
C115 H95 1_555 1_555
C116 C115 1_555 1_555
C117 C115 1_555 1_555
C118 C119 1_555 1_555
C119 H96 1_555 1_555
C120 C113 1_555 1_555
C121 C118 1_555 1_555
C122 C121 1_555 1_555
H97 C122 1_555 1_555
C123 C122 1_555 1_555
C124 C117 1_555 1_555
O56 C124 1_555 1_555
C125 C116 1_555 1_555
C126 C123 1_555 1_555
C127 C117 1_555 1_555
H98 C127 1_555 1_555
C128 C125 1_555 1_555
H99 C116 1_555 1_555
H100 C112 1_555 1_555
H101 C128 1_555 1_555
H102 C109 1_555 1_555
C129 C109 1_555 1_555
H103 C126 1_555 1_555
C130 C126 1_555 1_555
H104 C113 1_555 1_555
H105 C110 1_555 1_555
C131 C110 1_555 1_555
H106 C120 1_555 1_555
C132 C121 1_555 1_555
C133 C129 1_555 1_555
O57 C114 1_555 1_555
O58 C114 1_555 1_555
H107 C132 1_555 1_555
H108 C131 1_555 1_555
H109 C129 1_555 1_555
Al22_2 O57 1_555 1_555
Al23 O58 1_555 1_555
Al24_4 O56 1_555 1_555
C134 C107 1_555 1_555
H110 C134 1_555 1_555
H111 C134 1_555 1_555
N4 C134 1_555 1_555
H112 C107 1_555 1_555
C135 O32 1_555 1_555
H113 N4 1_555 1_555
C136 N4 1_555 1_555
O59 C136 1_555 1_555
C137 O59 1_555 1_555
O60 C136 1_555 1_555
C138 C137 1_555 1_555
C139 C137 1_555 1_555
C140 C137 1_555 1_555
H114 C135 1_555 1_555
H115 C135 1_555 1_555
H116 C138 1_555 1_555
H117 C138 1_555 1_555
H118 C138 1_555 1_555
H119 C139 1_555 1_555
H120 C139 1_555 1_555
H121 C139 1_555 1_555
H122 C140 1_555 1_555
H123 C140 1_555 1_555
H124 C140 1_555 1_555
Al3 O3 1_555 1_555
Al3 O32 1_555 1_555
C7 C21 1_555 1_555
C10 C14 1_555 1_555
C11 C12 1_555 1_555
C12 C15 1_555 1_555
C18 C20 1_555 1_555
C22 C26 1_555 1_555
C22 C27 1_555 1_555
C24 C27 1_555 1_555
C32 O11 1_555 1_555
Al4 O14 1_555 1_555
O15 C40 1_555 1_555
C42 C56 1_555 1_555
C45 C49 1_555 1_555
C46 C47 1_555 1_555
C47 C50 1_555 1_555
C53 C55 1_555 1_555
C57 C61 1_555 1_555
C57 C62 1_555 1_555
C59 C62 1_555 1_555
O22 Al8 1_555 1_555
Al8 O33 1_555 1_555
Al14 O23 1_555 1_555
Al15 O40 1_555 1_555
Al16 O35 1_555 1_555
Al16 O37 1_555 1_555
C72 C100 1_555 1_555
C83 C85 1_555 1_555
C88 C90 1_555 1_555
C92 C93 1_555 1_555
C95 C97 1_555 1_555
C95 C98 1_555 1_555
C96 C98 1_555 1_555
O52 C106 1_555 1_555
C107 C135 1_555 1_555
C118 C120 1_555 1_555
C123 C125 1_555 1_555
C127 C128 1_555 1_555
C130 C132 1_555 1_555
C130 C133 1_555 1_555
C131 C133 1_555 1_555
Al23 O46 1_555 1_555
Al13 O16 1_555 1_555
C76_2 C77_2 1_555 1_555
C77_2 C84_2 1_555 1_555
C78_2 C76_2 1_555 1_555
C79_2 C76_2 1_555 1_555
C83_2 C84_2 1_555 1_555
C84_2 H65_2 1_555 1_555
C85_2 C78_2 1_555 1_555
H69_2 C77_2 1_555 1_555
H73_2 C78_2 1_555 1_555
H75_2 C85_2 1_555 1_555
O41 C79_2 1_555 1_555
O28 C79_2 1_555 1_555
O50_2 C101_2 1_555 1_555
C102_2 O50_2 1_555 1_555
O51_2 C101_2 1_555 1_555
C103_2 C102_2 1_555 1_555
C104_2 C102_2 1_555 1_555
C105_2 C102_2 1_555 1_555
H85_2 C103_2 1_555 1_555
H86_2 C103_2 1_555 1_555
H87_2 C103_2 1_555 1_555
H88_2 C104_2 1_555 1_555
H89_2 C104_2 1_555 1_555
H90_2 C104_2 1_555 1_555
H92_2 C105_2 1_555 1_555
H93_2 C105_2 1_555 1_555
C83_2 C85_2 1_555 1_555
C2_2 C13_2 1_555 1_555
C4_2 C6_2 1_555 1_555
C6_2 H3_2 1_555 1_555
C13_2 C6_2 1_555 1_555
H7_2 C13_2 1_555 1_555
C18_2 C2_2 1_555 1_555
H11_2 C18_2 1_555 1_555
C20_2 C4_2 1_555 1_555
H13_2 C20_2 1_555 1_555
C23_2 C2_2 1_555 1_555
O42 C23_2 1_555 1_555
O45 C23_2 1_555 1_555
O9_2 C30_2 1_555 1_555
O10_2 C30_2 1_555 1_555
C31_2 O9_2 1_555 1_555
C33_2 C31_2 1_555 1_555
H23_2 C33_2 1_555 1_555
H24_2 C33_2 1_555 1_555
H25_2 C33_2 1_555 1_555
C34_2 C31_2 1_555 1_555
H26_2 C34_2 1_555 1_555
H27_2 C34_2 1_555 1_555
H28_2 C34_2 1_555 1_555
C35_2 C31_2 1_555 1_555
H30_2 C35_2 1_555 1_555
H31_2 C35_2 1_555 1_555
C18_2 C20_2 1_555 1_555
H53_2 C67_2 1_555 1_555
O22_2 C67_2 1_555 1_555
Al11 O22_2 1_555 1_555
Al6_2 O34_2 1_555 1_555
O34_2 C71_2 1_555 1_555
O35_2 Al11 1_555 1_555
O40_2 Al22 1_555 1_555
O43_2 Al11 1_555 1_555
C71_2 O43_2 1_555 1_555
C72_2 O40_2 1_555 1_555
H63_2 O35_2 1_555 1_555
C73_2 C71_2 1_555 1_555
C74_2 C73_2 1_555 1_555
C75_2 C73_2 1_555 1_555
C80_2 H64_2 1_555 1_555
C81_2 C80_2 1_555 1_555
C82_2 C80_2 1_555 1_555
C87_2 C86_2 1_555 1_555
H66_2 C87_2 1_555 1_555
C88_2 C87_2 1_555 1_555
C89_2 C82_2 1_555 1_555
O24 C89_2 1_555 1_555
O30 C89_2 1_555 1_555
C90_2 C81_2 1_555 1_555
C91_2 C88_2 1_555 1_555
C92_2 C82_2 1_555 1_555
H67_2 C92_2 1_555 1_555
C93_2 C90_2 1_555 1_555
H68_2 C81_2 1_555 1_555
H70_2 C93_2 1_555 1_555
C94_2 C74_2 1_555 1_555
H72_2 C91_2 1_555 1_555
C95_2 C91_2 1_555 1_555
H74_2 C75_2 1_555 1_555
C96_2 C75_2 1_555 1_555
C97_2 C86_2 1_555 1_555
C98_2 C94_2 1_555 1_555
H77_2 C96_2 1_555 1_555
H78_2 C94_2 1_555 1_555
C99_2 C72_2 1_555 1_555
H79_2 C99_2 1_555 1_555
N3_2 C99_2 1_555 1_555
H81_2 C72_2 1_555 1_555
O22_2 Al22 1_555 1_555
Al11 O40_2 1_555 1_555
Al6_2 O35_2 1_555 1_555
C88_2 C90_2 1_555 1_555
C92_2 C93_2 1_555 1_555
C95_2 C97_2 1_555 1_555
C95_2 C98_2 1_555 1_555
C96_2 C98_2 1_555 1_555
Al23 O13_2 1_555 1_555
O12_2 Al24_2 1_555 1_555
O13_2 C64_2 1_555 1_555
O14_2 Al24_2 1_555 1_555
H32_2 O14_2 1_555 1_555
O15_2 Al23 1_555 1_555
C36_2 C40_2 1_555 1_555
C38_2 H33_2 1_555 1_555
C40_2 O12_2 1_555 1_555
C42_2 H35_2 1_555 1_555
C43_2 C49_2 1_555 1_555
C44_2 C42_2 1_555 1_555
C45_2 H36_2 1_555 1_555
C46_2 C38_2 1_555 1_555
H37_2 C46_2 1_555 1_555
C47_2 C44_2 1_555 1_555
C49_2 C38_2 1_555 1_555
C50_2 C45_2 1_555 1_555
H39_2 C50_2 1_555 1_555
C51_2 C36_2 1_555 1_555
C52_2 C44_2 1_555 1_555
H41_2 C52_2 1_555 1_555
C54_2 C36_2 1_555 1_555
H43_2 C54_2 1_555 1_555
C57_2 C60_2 1_555 1_555
C59_2 C56_2 1_555 1_555
C60_2 C54_2 1_555 1_555
H46_2 C60_2 1_555 1_555
C61_2 C51_2 1_555 1_555
H47_2 C61_2 1_555 1_555
C62_2 C52_2 1_555 1_555
O44 C43_2 1_555 1_555
O38 C43_2 1_555 1_555
C63_2 H48_2 1_555 1_555
C64_2 C63_2 1_555 1_555
H50_2 C64_2 1_555 1_555
N2_2 C63_2 1_555 1_555
Al22_2 O13_2 1_555 1_555
O33_2 Al23 1_555 1_555
C100_2 O33_2 1_555 1_555
H84_2 C100_2 1_555 1_555
Al23 O14_2 1_555 1_555
O15_2 C40_2 1_555 1_555
C42_2 C56_2 1_555 1_555
C45_2 C49_2 1_555 1_555
C46_2 C47_2 1_555 1_555
C47_2 C50_2 1_555 1_555
C57_2 C61_2 1_555 1_555
C57_2 C62_2 1_555 1_555
C59_2 C62_2 1_555 1_555
Al22_2 O33_2 1_555 1_555
H22_2 C32_2 1_555 1_555
O11_2 Al18 1_555 1_555
Al13 O11_2 1_555 1_555
O23_2 Al18 1_555 1_555
O36_2 Al6_3 1_555 1_555
O37_2 Al13 1_555 1_555
O52_2 Al13 1_555 1_555
C106_2 O36_2 1_555 1_555
C107_2 O23_2 1_555 1_555
H94_2 O37_2 1_555 1_555
C108_2 C106_2 1_555 1_555
C109_2 C108_2 1_555 1_555
C110_2 C108_2 1_555 1_555
C115_2 H95_2 1_555 1_555
C116_2 C115_2 1_555 1_555
C117_2 C115_2 1_555 1_555
C122_2 C121_2 1_555 1_555
H97_2 C122_2 1_555 1_555
C123_2 C122_2 1_555 1_555
C124_2 C117_2 1_555 1_555
O25 C124_2 1_555 1_555
O31 C124_2 1_555 1_555
C125_2 C116_2 1_555 1_555
C126_2 C123_2 1_555 1_555
C127_2 C117_2 1_555 1_555
H98_2 C127_2 1_555 1_555
C128_2 C125_2 1_555 1_555
H99_2 C116_2 1_555 1_555
H101_2 C128_2 1_555 1_555
C129_2 C109_2 1_555 1_555
H103_2 C126_2 1_555 1_555
C130_2 C126_2 1_555 1_555
H105_2 C110_2 1_555 1_555
C131_2 C110_2 1_555 1_555
C132_2 C121_2 1_555 1_555
C133_2 C129_2 1_555 1_555
H108_2 C131_2 1_555 1_555
H109_2 C129_2 1_555 1_555
C134_2 C107_2 1_555 1_555
H110_2 C134_2 1_555 1_555
N4_2 C134_2 1_555 1_555
H112_2 C107_2 1_555 1_555
C32_2 O11_2 1_555 1_555
Al13 O23_2 1_555 1_555
Al6_3 O37_2 1_555 1_555
O52_2 C106_2 1_555 1_555
C123_2 C125_2 1_555 1_555
C127_2 C128_2 1_555 1_555
C130_2 C132_2 1_555 1_555
C130_2 C133_2 1_555 1_555
C131_2 C133_2 1_555 1_555
Al24_3 O1_2 1_555 1_555
Al18_2 O2_2 1_555 1_555
Al21 O2_2 1_555 1_555
O1_2 C5_2 1_555 1_555
O2_2 C29_2 1_555 1_555
O3_2 Al24_3 1_555 1_555
H1_2 O3_2 1_555 1_555
O4_2 Al21 1_555 1_555
C1_2 C5_2 1_555 1_555
C3_2 H2_2 1_555 1_555
C5_2 O4_2 1_555 1_555
C7_2 H4_2 1_555 1_555
C8_2 C14_2 1_555 1_555
C9_2 C7_2 1_555 1_555
C10_2 H5_2 1_555 1_555
C11_2 C3_2 1_555 1_555
H6_2 C11_2 1_555 1_555
C12_2 C9_2 1_555 1_555
C14_2 C3_2 1_555 1_555
C15_2 C10_2 1_555 1_555
H8_2 C15_2 1_555 1_555
C16_2 C1_2 1_555 1_555
C17_2 C9_2 1_555 1_555
H10_2 C17_2 1_555 1_555
C19_2 C1_2 1_555 1_555
H12_2 C19_2 1_555 1_555
C22_2 C25_2 1_555 1_555
C24_2 C21_2 1_555 1_555
C25_2 C19_2 1_555 1_555
H15_2 C25_2 1_555 1_555
C26_2 C16_2 1_555 1_555
H16_2 C26_2 1_555 1_555
C27_2 C17_2 1_555 1_555
O53 C8_2 1_555 1_555
O39 C8_2 1_555 1_555
C28_2 H17_2 1_555 1_555
C29_2 C28_2 1_555 1_555
H19_2 C29_2 1_555 1_555
N1_2 C28_2 1_555 1_555
O32_2 Al18_2 1_555 1_555
C135_2 O32_2 1_555 1_555
H115_2 C135_2 1_555 1_555
Al21 O3_2 1_555 1_555
Al21 O32_2 1_555 1_555
C7_2 C21_2 1_555 1_555
C10_2 C14_2 1_555 1_555
C11_2 C12_2 1_555 1_555
C12_2 C15_2 1_555 1_555
C22_2 C26_2 1_555 1_555
C22_2 C27_2 1_555 1_555
C24_2 C27_2 1_555 1_555
C111_2 C112_2 1_555 1_555
C112_2 C119_2 1_555 1_555
C113_2 C111_2 1_555 1_555
C114_2 C111_2 1_555 1_555
C118_2 C119_2 1_555 1_555
C119_2 H96_2 1_555 1_555
C120_2 C113_2 1_555 1_555
H100_2 C112_2 1_555 1_555
H104_2 C113_2 1_555 1_555
H106_2 C120_2 1_555 1_555
O27 C114_2 1_555 1_555
O29 C114_2 1_555 1_555
O59_2 C136_2 1_555 1_555
C137_2 O59_2 1_555 1_555
O60_2 C136_2 1_555 1_555
C138_2 C137_2 1_555 1_555
C139_2 C137_2 1_555 1_555
C140_2 C137_2 1_555 1_555
H116_2 C138_2 1_555 1_555
H117_2 C138_2 1_555 1_555
H118_2 C138_2 1_555 1_555
H119_2 C139_2 1_555 1_555
H120_2 C139_2 1_555 1_555
H121_2 C139_2 1_555 1_555
H123_2 C140_2 1_555 1_555
H124_2 C140_2 1_555 1_555
C118_2 C120_2 1_555 1_555
C37_2 C48_2 1_555 1_555
C39_2 C41_2 1_555 1_555
C41_2 H34_2 1_555 1_555
C48_2 C41_2 1_555 1_555
H38_2 C48_2 1_555 1_555
C53_2 C37_2 1_555 1_555
H42_2 C53_2 1_555 1_555
C55_2 C39_2 1_555 1_555
H44_2 C55_2 1_555 1_555
C58_2 C37_2 1_555 1_555
O26 C58_2 1_555 1_555
O54 C58_2 1_555 1_555
O20_2 C65_2 1_555 1_555
O21_2 C65_2 1_555 1_555
C66_2 O20_2 1_555 1_555
C68_2 C66_2 1_555 1_555
H54_2 C68_2 1_555 1_555
H55_2 C68_2 1_555 1_555
H56_2 C68_2 1_555 1_555
C69_2 C66_2 1_555 1_555
H57_2 C69_2 1_555 1_555
H58_2 C69_2 1_555 1_555
H59_2 C69_2 1_555 1_555
C70_2 C66_2 1_555 1_555
H61_2 C70_2 1_555 1_555
H62_2 C70_2 1_555 1_555
C53_2 C55_2 1_555 1_555

#END
