
###############################################################################
#
# This file contains modified crystal structure data generated from the
# MOF subset of the Cambridge Structural Database (CSD) v543 
# hosted by the Cambridge Crystallographic Data Centre (CCDC).
#
# This work is licensed under the Creative Commons
# Attribution-NonCommercial-ShareAlike 4.0 International License.
# To view a copy of this license, visit
# http://creativecommons.org/licenses/by-nc-sa/4.0/
# or send a letter to
# Creative Commons, PO Box 1866, Mountain View, CA 94042, USA.
#
# CIF created using the CSD Python API on 29 September 2022
# The structure has been converted into the P1 space group
# The structure has a 3D framework
# The original CSD entry OTEDUO is in the tetragonal crystal system
# The original CSD entry OTEDUO is in a Sohncke space group
# The framework has been calculated to contain at least 10.0% void space
# The void calculation uses a probe of radius 1.32A, grid spacing 0.4
#
###############################################################################

data_OTEDUO
_chemical_formula_moiety         '(C456 H320 Al28 O148)n'
_symmetry_cell_setting           triclinic
_symmetry_space_group_name_H-M   'P 1'
_symmetry_Int_Tables_number      1
_space_group_name_Hall           'P 1'
loop_
_symmetry_equiv_pos_site_id
_symmetry_equiv_pos_as_xyz
1 x,y,z
_cell_length_a                   19.5333(8)
_cell_length_b                   19.5333(8)
_cell_length_c                   69.876(3)
_cell_angle_alpha                90
_cell_angle_beta                 90
_cell_angle_gamma                90
_cell_volume                     26661.2
loop_
_atom_site_label
_atom_site_type_symbol
_atom_site_fract_x
_atom_site_fract_y
_atom_site_fract_z
O46 O 0.06924(6) 0.14893(7) 0.69335(2)
C69 C 0.00816(10) 0.13934(11) 0.68927(3)
Al18 Al 0.13163(3) 0.10857(3) 0.71063(2)
H76 H 0.0430 0.2674 0.6915
Al24 Al 0.02370(3) 0.99482(3) 0.69342(2)
O10 O 0.14893(7) 0.06924(6) 0.30665(2)
H36 H 0.2674 0.0430 0.3085
C55 C 0.13934(11) 0.00816(10) 0.31073(3)
Al8 Al 0.10857(3) 0.13163(3) 0.28937(2)
Al1 Al 0.50518(3) 0.52370(3) 0.44342(2)
O1 O 0.90850(6) 0.06712(7) 0.30354(2)
O2 O 0.48383(7) 0.59189(7) 0.42540(2)
O3 O 0.53826(7) 0.47427(7) 0.42178(2)
O4 O 0.46818(6) 0.57564(6) 0.46304(2)
O5 O 0.52879(6) 0.45215(6) 0.45978(2)
C1 C 0.45881(11) 0.65214(10) 0.42599(3)
C2 C 0.57024(11) 0.41966(10) 0.41976(3)
Al2 Al 0.39143(3) 0.63163(3) 0.46063(2)
H1 H 0.4876 0.5738 0.4739
Al3 Al 0.61008(3) 0.40347(3) 0.45967(2)
H2 H 0.4993 0.4407 0.4681
C3 C 0.45848(11) 0.69035(10) 0.40783(3)
O6 O 0.43315(7) 0.68043(7) 0.44067(2)
C4 C 0.57185(11) 0.38661(10) 0.40066(3)
O7 O 0.60292(7) 0.38850(7) 0.43305(2)
O8 O 0.41130(7) 0.69234(7) 0.48084(2)
O9 O 0.34694(6) 0.59098(7) 0.48127(2)
O11 O 0.18779(7) 0.18570(7) 0.29499(2)
O13 O 0.80762(6) 0.85370(7) 0.29229(2)
O14 O 0.62283(6) 0.41047(6) 0.48568(2)
O15 O 0.56028(7) 0.31937(7) 0.46276(2)
C5 C 0.49246(12) 0.66350(11) 0.39175(3)
C6 C 0.42284(12) 0.75157(11) 0.40597(3)
C7 C 0.53600(11) 0.41558(11) 0.38538(3)
C8 C 0.60748(12) 0.32655(11) 0.39764(3)
C9 C 0.43128(16) 0.75882(17) 0.47797(4)
Al4 Al 0.34444(3) 0.66292(3) 0.49870(2)
C10 C 0.32547(16) 0.52349(16) 0.48352(4)
H3 H 0.6092 0.4471 0.4910
C11 C 0.57631(11) 0.27130(11) 0.47391(3)
C12 C 0.48906(13) 0.69743(12) 0.37454(3)
H4 H 0.5177 0.6221 0.3928
C13 C 0.41975(13) 0.78549(12) 0.38895(3)
H5 H 0.4001 0.7702 0.4168
C14 C 0.53505(12) 0.38285(11) 0.36768(3)
H6 H 0.5123 0.4576 0.3871
H7 H 0.6328 0.3068 0.4079
C15 C 0.60686(12) 0.29465(11) 0.37996(3)
H8 H 0.3907 0.7877 0.4761
H9 H 0.4604 0.7614 0.4666
H10 H 0.4570 0.7749 0.4891
O16 O 0.22803(7) 0.20438(6) 0.26554(2)
O17 O 0.61991(7) 0.27282(7) 0.48703(2)
O18 O 0.75619(7) 0.84535(7) 0.26373(2)
H11 H 0.3627 0.4964 0.4891
H12 H 0.3130 0.5045 0.4710
H13 H 0.2856 0.5221 0.4920
H14 H 0.5527 0.2292 0.4722
H15 H 0.5126 0.6793 0.3638
C16 C 0.45180(12) 0.75791(11) 0.37251(3)
H16 H 0.3960 0.8278 0.3881
C17 C 0.57060(12) 0.32188(11) 0.36472(3)
H17 H 0.5097 0.4024 0.3574
H18 H 0.6318 0.2533 0.3782
C18 C 0.44812(13) 0.79364(11) 0.35366(3)
C19 C 0.56650(12) 0.28475(11) 0.34611(3)
C20 C 0.50628(13) 0.79803(12) 0.34218(3)
C21 C 0.38794(12) 0.82518(11) 0.34777(3)
C22 C 0.50436(11) 0.28171(10) 0.33616(3)
C23 C 0.62254(12) 0.24938(11) 0.33891(3)
C24 C 0.50372(12) 0.83267(11) 0.32455(3)
H19 H 0.5479 0.7775 0.3463
C25 C 0.38420(13) 0.85966(11) 0.33053(3)
H20 H 0.3486 0.8230 0.3557
C26 C 0.49868(12) 0.24532(10) 0.31914(3)
H21 H 0.4655 0.3049 0.3411
C27 C 0.61780(11) 0.21106(11) 0.32194(3)
H22 H 0.6649 0.2511 0.3456
C28 C 0.44297(12) 0.86219(11) 0.31888(3)
C29 C 0.56713(12) 0.83805(10) 0.31303(3)
C30 C 0.32036(12) 0.89598(11) 0.32507(3)
C31 C 0.43089(11) 0.23848(10) 0.30948(3)
C32 C 0.55532(11) 0.20939(10) 0.31221(3)
C33 C 0.67771(12) 0.17036(11) 0.31523(3)
H23 H 0.4407 0.8847 0.3068
C34 C 0.56724(13) 0.82916(11) 0.29339(3)
C35 C 0.62875(13) 0.85237(11) 0.32215(3)
C36 C 0.25740(12) 0.86591(11) 0.32752(3)
C37 C 0.32395(12) 0.96143(11) 0.31772(3)
C38 C 0.37274(12) 0.22807(11) 0.32041(3)
C39 C 0.42407(11) 0.23901(11) 0.28975(3)
H24 H 0.5513 0.1835 0.3008
C40 C 0.74385(12) 0.19451(11) 0.31681(3)
C41 C 0.66811(12) 0.10415(10) 0.30792(3)
C42 C 0.62780(12) 0.83277(10) 0.28286(3)
H25 H 0.5253 0.8204 0.2870
H26 H 0.6294 0.8609 0.3355
C43 C 0.68896(12) 0.85431(10) 0.31185(3)
H27 H 0.2547 0.8205 0.3324
C44 C 0.19667(12) 0.90155(11) 0.32295(3)
H28 H 0.3674 0.9821 0.3156
C45 C 0.26445(12) 0.99755(10) 0.31332(3)
H29 H 0.3767 0.2278 0.3340
C46 C 0.30856(11) 0.21804(11) 0.31213(3)
C47 C 0.36054(11) 0.23010(10) 0.28108(3)
H30 H 0.4635 0.2456 0.2820
C48 C 0.79996(11) 0.15500(10) 0.31172(3)
H31 H 0.7512 0.2395 0.3215
C49 C 0.72327(12) 0.06364(11) 0.30276(3)
H32 H 0.6230 0.0868 0.3065
C50 C 0.68904(11) 0.84589(10) 0.29205(3)
H33 H 0.6269 0.8262 0.2694
H34 H 0.7310 0.8615 0.3184
C51 C 0.20138(11) 0.96731(10) 0.31594(3)
H35 H 0.1533 0.8805 0.3247
C52 C 0.30277(10) 0.21928(9) 0.29235(3)
H37 H 0.2694 0.2105 0.3199
H38 H 0.3566 0.2314 0.2675
C53 C 0.78929(11) 0.08860(10) 0.30481(3)
H39 H 0.8450 0.1728 0.3129
H40 H 0.7159 0.0189 0.2978
C54 C 0.75598(10) 0.84880(10) 0.28184(3)
C56 C 0.23497(10) 0.20286(10) 0.28343(3)
C57 C 0.84928(10) 0.04374(10) 0.30073(3)
O19 O 0.08108(6) 0.97846(7) 0.31106(2)
Al6 Al 0.99482(3) 0.02370(3) 0.30658(2)
O20 O 0.59150(6) 0.56712(7) 0.44646(2)
Al10 Al 0.88992(3) 0.90347(3) 0.29033(2)
O21 O 0.35107(7) 0.56924(6) 0.44335(2)
O22 O 0.31221(7) 0.68570(7) 0.45501(2)
O23 O 0.66306(6) 0.48351(7) 0.45527(2)
O24 O 0.69238(6) 0.35370(7) 0.45771(2)
O25 O 0.41047(6) 0.62283(6) 0.51432(2)
Al11 Al 0.83708(3) 0.84444(3) 0.24870(2)
Al12 Al 0.15556(3) 0.16292(3) 0.25130(2)
Al13 Al 0.66292(3) 0.34444(3) 0.50130(2)
O26 O 0.27197(7) 0.70438(6) 0.48446(2)
O27 O 0.27282(7) 0.61991(7) 0.51297(2)
O28 O 0.34535(7) 0.74381(7) 0.51373(2)
O29 O 0.41892(6) 0.47846(7) 0.43894(2)
Al14 Al 0.52370(3) 0.50518(3) 0.55658(2)
O30 O 0.59189(7) 0.48383(7) 0.57460(2)
O31 O 0.47427(7) 0.53826(7) 0.57822(2)
O32 O 0.57564(6) 0.46818(6) 0.53696(2)
O33 O 0.45215(6) 0.52879(6) 0.54022(2)
O34 O 0.56712(7) 0.59150(6) 0.55354(2)
O35 O 0.47846(7) 0.41892(6) 0.56106(2)
O36 O 0.06712(7) 0.90850(6) 0.69646(2)
C58 C 0.04374(10) 0.84928(10) 0.69927(3)
C59 C 0.65214(10) 0.45881(11) 0.57401(3)
C60 C 0.41966(10) 0.57024(11) 0.58024(3)
Al16 Al 0.63163(3) 0.39143(3) 0.53937(2)
H41 H 0.5738 0.4876 0.5261
Al17 Al 0.40347(3) 0.61008(3) 0.54033(2)
H42 H 0.4407 0.4993 0.5319
C61 C 0.69035(10) 0.45848(11) 0.59217(3)
O37 O 0.68043(7) 0.43315(7) 0.55933(2)
C62 C 0.38661(10) 0.57185(11) 0.59934(3)
O38 O 0.38850(7) 0.60292(7) 0.56695(2)
O39 O 0.69234(7) 0.41130(7) 0.51916(2)
O40 O 0.59098(7) 0.34694(6) 0.51873(2)
O41 O 0.56924(6) 0.35107(7) 0.55665(2)
O42 O 0.68570(7) 0.31221(7) 0.54499(2)
O43 O 0.31937(7) 0.56028(7) 0.53724(2)
O44 O 0.48351(7) 0.66306(6) 0.54473(2)
O45 O 0.35370(7) 0.69238(6) 0.54229(2)
C63 C 0.66350(11) 0.49246(12) 0.60825(3)
C64 C 0.75157(11) 0.42284(12) 0.59403(3)
C65 C 0.41558(11) 0.53600(11) 0.61462(3)
C66 C 0.32655(11) 0.60748(12) 0.60236(3)
C67 C 0.75882(17) 0.43128(16) 0.52203(4)
C68 C 0.52349(16) 0.32547(16) 0.51648(4)
O47 O 0.18570(7) 0.18779(7) 0.70501(2)
C70 C 0.20286(10) 0.23497(10) 0.71657(3)
O49 O 0.85370(7) 0.80762(6) 0.70771(2)
C71 C 0.84880(10) 0.75598(10) 0.71816(3)
Al21 Al 0.90347(3) 0.88992(3) 0.70967(2)
H43 H 0.4471 0.6092 0.5090
C72 C 0.27130(11) 0.57631(11) 0.52609(3)
C73 C 0.69743(12) 0.48906(13) 0.62546(3)
H44 H 0.6221 0.5177 0.6072
C74 C 0.78549(12) 0.41975(13) 0.61105(3)
H45 H 0.7702 0.4001 0.5832
C75 C 0.38285(11) 0.53505(12) 0.63232(3)
H46 H 0.4576 0.5123 0.6129
H47 H 0.3068 0.6328 0.5921
C76 C 0.29465(11) 0.60686(12) 0.62004(3)
H48 H 0.7877 0.3907 0.5239
H49 H 0.7614 0.4604 0.5334
H50 H 0.7749 0.4570 0.5109
O50 O 0.70438(6) 0.27197(7) 0.51554(2)
O51 O 0.74381(7) 0.34535(7) 0.48627(2)
H51 H 0.4964 0.3627 0.5109
H52 H 0.5045 0.3130 0.5290
H53 H 0.5221 0.2856 0.5080
H54 H 0.2292 0.5527 0.5278
H55 H 0.6793 0.5126 0.6362
C77 C 0.75791(11) 0.45180(12) 0.62749(3)
H56 H 0.8278 0.3960 0.6119
C78 C 0.32188(11) 0.57060(12) 0.63528(3)
H57 H 0.4024 0.5097 0.6426
H58 H 0.2533 0.6318 0.6218
O52 O 0.20438(6) 0.22803(7) 0.73446(2)
Al22 Al 0.16292(3) 0.15556(3) 0.74870(2)
O53 O 0.84535(7) 0.75619(7) 0.73627(2)
Al23 Al 0.84444(3) 0.83708(3) 0.75130(2)
C79 C 0.79364(11) 0.44812(13) 0.64634(3)
C80 C 0.28475(11) 0.56650(12) 0.65389(3)
C81 C 0.79803(12) 0.50628(13) 0.65782(3)
C82 C 0.82518(11) 0.38794(12) 0.65223(3)
C83 C 0.28171(10) 0.50436(11) 0.66384(3)
C84 C 0.24938(11) 0.62254(12) 0.66109(3)
C85 C 0.83267(11) 0.50372(12) 0.67545(3)
H59 H 0.7775 0.5479 0.6537
C86 C 0.85966(11) 0.38420(13) 0.66947(3)
H60 H 0.8230 0.3486 0.6443
C87 C 0.24532(10) 0.49868(12) 0.68086(3)
H61 H 0.3049 0.4655 0.6589
C88 C 0.21106(11) 0.61780(11) 0.67806(3)
H62 H 0.2511 0.6649 0.6544
C89 C 0.86219(11) 0.44297(12) 0.68112(3)
C90 C 0.83805(10) 0.56713(12) 0.68697(3)
C91 C 0.89598(11) 0.32036(12) 0.67493(3)
C92 C 0.23848(10) 0.43089(11) 0.69052(3)
C93 C 0.20939(10) 0.55532(11) 0.68779(3)
C94 C 0.17036(11) 0.67771(12) 0.68477(3)
H63 H 0.8847 0.4407 0.6932
C95 C 0.82916(11) 0.56724(13) 0.70661(3)
C96 C 0.85237(11) 0.62875(13) 0.67785(3)
C97 C 0.86591(11) 0.25740(12) 0.67248(3)
C98 C 0.96143(11) 0.32395(12) 0.68228(3)
C99 C 0.22807(11) 0.37274(12) 0.67959(3)
C100 C 0.23901(11) 0.42407(11) 0.71025(3)
H64 H 0.1835 0.5513 0.6992
C101 C 0.19451(11) 0.74385(12) 0.68319(3)
C102 C 0.10415(10) 0.66811(12) 0.69208(3)
C103 C 0.83277(10) 0.62780(12) 0.71714(3)
H65 H 0.8204 0.5253 0.7130
H66 H 0.8609 0.6294 0.6645
C104 C 0.85431(10) 0.68896(12) 0.68815(3)
H67 H 0.8205 0.2547 0.6676
C105 C 0.90155(11) 0.19667(12) 0.67705(3)
H68 H 0.9821 0.3674 0.6844
C106 C 0.99755(10) 0.26445(12) 0.68668(3)
H69 H 0.2278 0.3767 0.6660
C107 C 0.21804(11) 0.30856(11) 0.68787(3)
C108 C 0.23010(10) 0.36054(11) 0.71892(3)
H70 H 0.2456 0.4635 0.7180
C109 C 0.15500(10) 0.79996(11) 0.68828(3)
H71 H 0.2395 0.7512 0.6785
C110 C 0.06364(11) 0.72327(12) 0.69724(3)
H72 H 0.0868 0.6230 0.6935
C111 C 0.84589(10) 0.68904(11) 0.70795(3)
H73 H 0.8262 0.6269 0.7306
H74 H 0.8615 0.7310 0.6816
C112 C 0.96731(10) 0.20138(11) 0.68406(3)
H75 H 0.8805 0.1533 0.6753
C113 C 0.21928(9) 0.30277(10) 0.70765(3)
H77 H 0.2105 0.2694 0.6801
H78 H 0.2314 0.3566 0.7325
C114 C 0.08860(10) 0.78929(11) 0.69519(3)
H79 H 0.1728 0.8450 0.6871
H80 H 0.0189 0.7159 0.7022
O54 O 0.97846(7) 0.08108(6) 0.68894(2)
O12 O 0.83694(6) 0.98351(7) 0.29473(2)
O48 O 0.98351(7) 0.83694(6) 0.70527(2)
O1_2 O 0.43288(7) 0.40850(6) 0.05354(2)
O3_2 O 0.02573(7) 0.03826(7) 0.17178(2)
O5_2 O 0.04785(6) 0.02879(6) 0.20978(2)
C2_2 C 0.08034(10) 0.07024(11) 0.16976(3)
Al3_2 Al 0.09653(3) 0.11008(3) 0.20967(2)
C4_2 C 0.11339(10) 0.07185(11) 0.15066(3)
O7_2 O 0.11150(7) 0.10292(7) 0.18305(2)
O12_2 O 0.51649(7) 0.33694(6) 0.04473(2)
O14_2 O 0.08953(6) 0.12283(6) 0.23568(2)
O15_2 O 0.18063(7) 0.06028(7) 0.21276(2)
C7_2 C 0.08442(11) 0.03600(11) 0.13538(3)
C8_2 C 0.17345(11) 0.10748(12) 0.14764(3)
H3_2 H 0.0529 0.1092 0.2410
C11_2 C 0.22870(11) 0.07631(11) 0.22391(3)
C14_2 C 0.11715(11) 0.03505(12) 0.11768(3)
H6_2 H 0.0424 0.0123 0.1371
H7_2 H 0.1932 0.1328 0.1579
C15_2 C 0.20535(11) 0.10686(12) 0.12996(3)
O17_2 O 0.22718(7) 0.11991(7) 0.23703(2)
H14_2 H 0.2708 0.0527 0.2222
C17_2 C 0.17812(11) 0.07060(12) 0.11472(3)
H17_2 H 0.0976 0.0097 0.1074
H18_2 H 0.2467 0.1318 0.1282
C19_2 C 0.21525(11) 0.06650(12) 0.09611(3)
C22_2 C 0.21829(10) 0.00436(11) 0.08616(3)
C23_2 C 0.25062(11) 0.12254(12) 0.08891(3)
C27_2 C 0.28894(11) 0.11780(11) 0.07194(3)
H22_2 H 0.2489 0.1649 0.0956
C32_2 C 0.29061(10) 0.05532(11) 0.06221(3)
C33_2 C 0.32964(11) 0.17771(12) 0.06523(3)
H24_2 H 0.3165 0.0513 0.0508
C40_2 C 0.30549(11) 0.24385(12) 0.06681(3)
C41_2 C 0.39585(10) 0.16811(12) 0.05792(3)
C48_2 C 0.34500(10) 0.29996(11) 0.06172(3)
H31_2 H 0.2605 0.2512 0.0715
C49_2 C 0.43636(11) 0.22327(12) 0.05276(3)
H32_2 H 0.4132 0.1230 0.0565
C53_2 C 0.41140(10) 0.28929(11) 0.05481(3)
H39_2 H 0.3272 0.3450 0.0629
H40_2 H 0.4811 0.2159 0.0478
C57_2 C 0.45626(10) 0.34928(10) 0.05073(3)
Al6_2 Al 0.47630(3) 0.49482(3) 0.05658(2)
Al9 Al 0.59653(3) 0.38992(3) 0.04033(2)
O23_2 O 0.01649(7) 0.16306(6) 0.20527(2)
O24_2 O 0.14630(7) 0.19238(6) 0.20771(2)
O30_2 O 0.01617(7) 0.09189(7) 0.32460(2)
O32_2 O 0.03182(6) 0.07564(6) 0.28696(2)
C59_2 C 0.04119(11) 0.15214(10) 0.32401(3)
H41_2 H 0.0124 0.0738 0.2761
C61_2 C 0.04152(11) 0.19035(10) 0.34217(3)
O37_2 O 0.06685(7) 0.18043(7) 0.30933(2)
O39_2 O 0.08870(7) 0.19234(7) 0.26916(2)
O40_2 O 0.15306(6) 0.09098(7) 0.26873(2)
C63_2 C 0.00754(12) 0.16350(11) 0.35825(3)
C64_2 C 0.07716(12) 0.25157(11) 0.34403(3)
C67_2 C 0.06872(16) 0.25882(17) 0.27203(4)
C68_2 C 0.17453(16) 0.02349(16) 0.26648(4)
C69_2 C 0.36066(11) 0.50816(10) 0.43927(3)
C73_2 C 0.01094(13) 0.19743(12) 0.37546(3)
C74_2 C 0.08025(13) 0.28549(12) 0.36105(3)
H45_2 H 0.0999 0.2702 0.3332
H48_2 H 0.1093 0.2877 0.2739
H49_2 H 0.0396 0.2614 0.2834
H50_2 H 0.0430 0.2749 0.2609
O51_2 O 0.15465(7) 0.24381(7) 0.23627(2)
H52_2 H 0.1870 0.0045 0.2790
H53_2 H 0.2144 0.0221 0.2580
C77_2 C 0.04820(12) 0.25791(11) 0.37749(3)
H56_2 H 0.1040 0.3278 0.3619
C79_2 C 0.05188(13) 0.29364(11) 0.39634(3)
C82_2 C 0.11206(12) 0.32518(11) 0.40223(3)
C86_2 C 0.11580(13) 0.35966(11) 0.41947(3)
H60_2 H 0.1514 0.3230 0.3943
C89_2 C 0.05703(12) 0.36219(11) 0.43112(3)
C91_2 C 0.17964(12) 0.39598(11) 0.42493(3)
H63_2 H 0.0593 0.3847 0.4432
C97_2 C 0.24260(12) 0.36591(11) 0.42248(3)
C98_2 C 0.17605(12) 0.46143(11) 0.43228(3)
H67_2 H 0.2453 0.3205 0.4176
C105_2 C 0.30333(12) 0.40155(11) 0.42705(3)
H68_2 H 0.1326 0.4821 0.4344
C106_2 C 0.23555(12) 0.49755(10) 0.43668(3)
C112_2 C 0.29862(11) 0.46731(10) 0.43406(3)
H75_2 H 0.3467 0.3805 0.4253
H76_2 H 0.2326 0.5430 0.4415
H2_2 H 0.0593 0.9993 0.2181
O11_2 O 0.31430(7) 0.68779(7) 0.04499(2)
O16_2 O 0.29562(6) 0.72803(7) 0.01554(2)
H11_2 H 0.0036 0.8627 0.2391
C26_2 C 0.25468(10) 0.99868(12) 0.06914(3)
H21_2 H 0.1951 0.9655 0.0911
C31_2 C 0.26152(10) 0.93089(11) 0.05948(3)
C38_2 C 0.27193(11) 0.87274(12) 0.07041(3)
C39_2 C 0.26099(11) 0.92407(11) 0.03975(3)
H29_2 H 0.2722 0.8767 0.0840
C46_2 C 0.28196(11) 0.80856(11) 0.06213(3)
C47_2 C 0.26990(10) 0.86054(11) 0.03108(3)
H30_2 H 0.2544 0.9635 0.0320
C52_2 C 0.28072(9) 0.80277(10) 0.04235(3)
H37_2 H 0.2895 0.7694 0.0699
H38_2 H 0.2686 0.8566 0.0175
C56_2 C 0.29714(10) 0.73497(10) 0.03343(3)
Al7 Al 0.36837(3) 0.60857(3) 0.03937(2)
Al12_2 Al 0.33708(3) 0.65556(3) 0.00130(2)
O29_2 O 0.02154(7) 0.91892(6) 0.18894(2)
H42_2 H 0.0007 0.9407 0.2819
C70_2 C 0.26503(10) 0.70286(10) 0.46657(3)
H51_2 H 0.1373 0.9964 0.2609
C87_2 C 0.00132(12) 0.74532(10) 0.43086(3)
H61_2 H 0.0345 0.8049 0.4089
C92_2 C 0.06911(11) 0.73848(10) 0.44052(3)
C99_2 C 0.12726(12) 0.72807(11) 0.42959(3)
C100_2 C 0.07593(11) 0.73901(11) 0.46025(3)
H69_2 H 0.1233 0.7278 0.4160
C107_2 C 0.19144(11) 0.71804(11) 0.43787(3)
C108_2 C 0.13946(11) 0.73010(10) 0.46892(3)
H70_2 H 0.0365 0.7456 0.4680
C113_2 C 0.19723(10) 0.71928(9) 0.45765(3)
H77_2 H 0.2306 0.7105 0.4301
H78_2 H 0.1434 0.7314 0.4825
Al1_2 Al 0.97630(3) 0.00518(3) 0.19342(2)
O13_2 O 0.64630(7) 0.30762(6) 0.04229(2)
H4_2 H 0.8779 0.0177 0.1428
O18_2 O 0.65465(7) 0.25619(7) 0.01373(2)
H15_2 H 0.8207 0.0126 0.1138
C20_2 C 0.70197(12) 0.00628(13) 0.09218(3)
C24_2 C 0.66733(11) 0.00372(12) 0.07455(3)
H19_2 H 0.7225 0.0479 0.0963
C29_2 C 0.66195(10) 0.06713(12) 0.06303(3)
C34_2 C 0.67084(11) 0.06724(13) 0.04339(3)
C35_2 C 0.64763(11) 0.12875(13) 0.07215(3)
C42_2 C 0.66723(10) 0.12780(12) 0.03286(3)
H25_2 H 0.6796 0.0253 0.0370
H26_2 H 0.6391 0.1294 0.0855
C43_2 C 0.64569(10) 0.18896(12) 0.06185(3)
C50_2 C 0.65411(10) 0.18904(11) 0.04205(3)
H33_2 H 0.6738 0.1269 0.0194
H34_2 H 0.6385 0.2310 0.0684
C54_2 C 0.65120(10) 0.25598(10) 0.03184(3)
O20_2 O 0.93288(7) 0.09150(6) 0.19646(2)
C71_2 C 0.74402(10) 0.34880(10) 0.46816(3)
H44_2 H 0.9823 0.1221 0.3572
H55_2 H 0.9874 0.1793 0.3862
C81_2 C 0.99372(13) 0.29803(12) 0.40782(3)
C85_2 C 0.99628(12) 0.33267(11) 0.42545(3)
H59_2 H 0.9521 0.2775 0.4037
C90_2 C 0.93287(12) 0.33805(10) 0.43697(3)
C95_2 C 0.93276(13) 0.32916(11) 0.45661(3)
C96_2 C 0.87125(13) 0.35237(11) 0.42785(3)
C103_2 C 0.87220(12) 0.33277(10) 0.46714(3)
H65_2 H 0.9747 0.3204 0.4630
H66_2 H 0.8706 0.3609 0.4145
C104_2 C 0.81104(12) 0.35431(10) 0.43815(3)
C111_2 C 0.81096(11) 0.34589(10) 0.45795(3)
H73_2 H 0.8731 0.3262 0.4806
H74_2 H 0.7690 0.3615 0.4316
Al11_2 Al 0.65556(3) 0.33708(3) 0.99870(2)
O2_2 O 0.90811(7) 0.98383(7) 0.17540(2)
O4_2 O 0.92436(6) 0.96818(6) 0.21304(2)
C1_2 C 0.84786(10) 0.95881(11) 0.17599(3)
Al2_2 Al 0.86837(3) 0.89143(3) 0.21063(2)
H1_2 H 0.9262 0.9876 0.2239
C3_2 C 0.80965(10) 0.95848(11) 0.15783(3)
O6_2 O 0.81957(7) 0.93315(7) 0.19067(2)
O8_2 O 0.80766(7) 0.91130(7) 0.23084(2)
O9_2 O 0.90902(7) 0.84694(6) 0.23127(2)
O10_2 O 0.43076(6) 0.64893(7) 0.05665(2)
C5_2 C 0.83650(11) 0.99246(12) 0.14175(3)
C6_2 C 0.74843(11) 0.92284(12) 0.15597(3)
C9_2 C 0.74118(17) 0.93128(16) 0.22797(4)
C10_2 C 0.97651(16) 0.82547(16) 0.23352(4)
C12_2 C 0.80257(12) 0.98906(13) 0.12454(3)
C13_2 C 0.71451(12) 0.91975(13) 0.13895(3)
H5_2 H 0.7298 0.9001 0.1668
H8_2 H 0.7123 0.8907 0.2261
H9_2 H 0.7386 0.9604 0.2166
H10_2 H 0.7251 0.9570 0.2391
H12_2 H 0.9955 0.8130 0.2210
H13_2 H 0.9779 0.7856 0.2420
C16_2 C 0.74209(11) 0.95180(12) 0.12251(3)
H16_2 H 0.6722 0.8960 0.1381
C18_2 C 0.70636(11) 0.94812(13) 0.10366(3)
C21_2 C 0.67482(11) 0.88794(12) 0.09777(3)
C25_2 C 0.64034(11) 0.88420(13) 0.08053(3)
H20_2 H 0.6770 0.8486 0.1057
C28_2 C 0.63781(11) 0.94297(12) 0.06888(3)
C30_2 C 0.60402(11) 0.82036(12) 0.07507(3)
H23_2 H 0.6153 0.9407 0.0568
C36_2 C 0.63409(11) 0.75740(12) 0.07752(3)
C37_2 C 0.53857(11) 0.82395(12) 0.06772(3)
H27_2 H 0.6795 0.7547 0.0824
C44_2 C 0.59845(11) 0.69667(12) 0.07295(3)
H28_2 H 0.5179 0.8674 0.0656
C45_2 C 0.50245(10) 0.76445(12) 0.06332(3)
C51_2 C 0.53269(10) 0.70138(11) 0.06594(3)
H35_2 H 0.6195 0.6533 0.0747
H36_2 H 0.4570 0.7674 0.0585
C55_2 C 0.49184(10) 0.63934(11) 0.06073(3)
O19_2 O 0.52154(7) 0.58108(6) 0.06106(2)
O21_2 O 0.93076(6) 0.85107(7) 0.19335(2)
O22_2 O 0.81430(7) 0.81221(7) 0.20501(2)
O25_2 O 0.87717(6) 0.91047(6) 0.26432(2)
O26_2 O 0.79562(6) 0.77197(7) 0.23446(2)
O27_2 O 0.88009(7) 0.77282(7) 0.26297(2)
O31_2 O 0.96174(7) 0.97427(7) 0.32822(2)
O33_2 O 0.97121(6) 0.95215(6) 0.29022(2)
C58_2 C 0.65072(10) 0.54374(10) 0.44927(3)
C60_2 C 0.92976(11) 0.91966(10) 0.33024(3)
C62_2 C 0.92815(11) 0.88661(10) 0.34934(3)
O38_2 O 0.89708(7) 0.88850(7) 0.31695(2)
O43_2 O 0.93972(7) 0.81937(7) 0.28724(2)
C65_2 C 0.96400(11) 0.91558(11) 0.36462(3)
C66_2 C 0.89252(12) 0.82655(11) 0.35236(3)
H43_2 H 0.8908 0.9471 0.2590
C72_2 C 0.92369(11) 0.77130(11) 0.27609(3)
C75_2 C 0.96495(12) 0.88285(11) 0.38232(3)
H46_2 H 0.9877 0.9576 0.3629
H47_2 H 0.8672 0.8068 0.3421
C76_2 C 0.89314(12) 0.79465(11) 0.37004(3)
H54_2 H 0.9473 0.7292 0.2778
C78_2 C 0.92940(12) 0.82188(11) 0.38528(3)
H57_2 H 0.9903 0.9024 0.3926
H58_2 H 0.8682 0.7533 0.3718
C80_2 C 0.93350(12) 0.78475(11) 0.40389(3)
C83_2 C 0.99564(11) 0.78171(10) 0.41384(3)
C84_2 C 0.87746(12) 0.74938(11) 0.41109(3)
C88_2 C 0.88220(11) 0.71106(11) 0.42806(3)
H62_2 H 0.8351 0.7511 0.4044
C93_2 C 0.94468(11) 0.70939(10) 0.43779(3)
C94_2 C 0.82229(12) 0.67036(11) 0.43477(3)
H64_2 H 0.9487 0.6835 0.4492
C101_2 C 0.75615(12) 0.69451(11) 0.43319(3)
C102_2 C 0.83189(12) 0.60415(10) 0.44208(3)
C109_2 C 0.70004(11) 0.65500(10) 0.43828(3)
H71_2 H 0.7488 0.7395 0.4285
C110_2 C 0.77673(12) 0.56364(11) 0.44724(3)
H72_2 H 0.8770 0.5868 0.4435
C114_2 C 0.71071(11) 0.58860(10) 0.44519(3)
H79_2 H 0.6550 0.6728 0.4371
H80_2 H 0.7841 0.5189 0.4522
Al5 Al 0.00518(3) 0.97630(3) 0.80658(2)
O12_3 O 0.16306(6) 0.01649(7) 0.79473(2)
Al9_2 Al 0.11008(3) 0.09653(3) 0.79033(2)
O25_3 O 0.58953(6) 0.37717(6) 0.01432(2)
O27_3 O 0.72718(7) 0.38009(7) 0.01297(2)
O30_3 O 0.40811(7) 0.51617(7) 0.07460(2)
O31_3 O 0.52573(7) 0.46174(7) 0.07822(2)
O32_3 O 0.42436(6) 0.53182(6) 0.03696(2)
O33_3 O 0.54785(6) 0.47121(6) 0.04022(2)
C58_3 C 0.95626(10) 0.15072(10) 0.19927(3)
C59_3 C 0.34786(10) 0.54119(11) 0.07401(3)
C60_3 C 0.58034(10) 0.42976(11) 0.08024(3)
H41_3 H 0.4262 0.5124 0.0261
H42_3 H 0.5593 0.5007 0.0319
C61_3 C 0.30965(10) 0.54152(11) 0.09217(3)
O37_3 O 0.31957(7) 0.56685(7) 0.05933(2)
C62_3 C 0.61339(10) 0.42815(11) 0.09934(3)
O38_3 O 0.61150(7) 0.39708(7) 0.06695(2)
O39_3 O 0.30766(7) 0.58870(7) 0.01916(2)
O40_3 O 0.40902(7) 0.65306(6) 0.01873(2)
O43_3 O 0.68063(7) 0.43972(7) 0.03724(2)
C63_3 C 0.33650(11) 0.50754(12) 0.10825(3)
C64_3 C 0.24843(11) 0.57716(12) 0.09403(3)
C65_3 C 0.58442(11) 0.46400(11) 0.11462(3)
C66_3 C 0.67345(11) 0.39252(12) 0.10236(3)
C67_3 C 0.24118(17) 0.56872(16) 0.02203(4)
C68_3 C 0.47651(16) 0.67453(16) 0.01648(4)
C70_3 C 0.79714(10) 0.76503(10) 0.21657(3)
C71_3 C 0.15120(10) 0.24402(10) 0.21816(3)
H43_3 H 0.5529 0.3908 0.0090
C72_3 C 0.72870(11) 0.42369(11) 0.02609(3)
C73_3 C 0.30257(12) 0.51094(13) 0.12546(3)
H44_3 H 0.3779 0.4823 0.1072
C74_3 C 0.21451(12) 0.58025(13) 0.11105(3)
H45_3 H 0.2298 0.5999 0.0832
C75_3 C 0.61715(11) 0.46495(12) 0.13232(3)
H46_3 H 0.5424 0.4877 0.1129
H47_3 H 0.6932 0.3672 0.0921
C76_3 C 0.70535(11) 0.39314(12) 0.12004(3)
H48_3 H 0.2123 0.6093 0.0239
H49_3 H 0.2386 0.5396 0.0334
H50_3 H 0.2251 0.5430 0.0109
H51_3 H 0.5036 0.6373 0.0109
H52_3 H 0.4955 0.6870 0.0290
H53_3 H 0.4779 0.7144 0.0080
H54_3 H 0.7708 0.4473 0.0278
H55_3 H 0.3207 0.4874 0.1362
C77_3 C 0.24209(11) 0.54820(12) 0.12749(3)
H56_3 H 0.1722 0.6040 0.1119
C78_3 C 0.67812(11) 0.42940(12) 0.13528(3)
H57_3 H 0.5976 0.4903 0.1426
H58_3 H 0.7467 0.3682 0.1218
C79_3 C 0.20636(11) 0.55188(13) 0.14634(3)
C80_3 C 0.71525(11) 0.43350(12) 0.15389(3)
C81_3 C 0.20197(12) 0.49372(13) 0.15782(3)
C82_3 C 0.17482(11) 0.61206(12) 0.15223(3)
C83_3 C 0.71829(10) 0.49564(11) 0.16384(3)
C84_3 C 0.75062(11) 0.37746(12) 0.16109(3)
C85_3 C 0.16733(11) 0.49628(12) 0.17545(3)
H59_3 H 0.2225 0.4521 0.1537
C86_3 C 0.14034(11) 0.61580(13) 0.16947(3)
H60_3 H 0.1770 0.6514 0.1443
C87_3 C 0.75468(10) 0.50132(12) 0.18086(3)
H61_3 H 0.6951 0.5345 0.1589
C88_3 C 0.78894(11) 0.38220(11) 0.17806(3)
H62_3 H 0.7489 0.3351 0.1544
C89_3 C 0.13781(11) 0.55703(12) 0.18112(3)
C90_3 C 0.16195(10) 0.43287(12) 0.18697(3)
C91_3 C 0.10402(11) 0.67964(12) 0.17493(3)
C92_3 C 0.76152(10) 0.56911(11) 0.19052(3)
C93_3 C 0.79061(10) 0.44468(11) 0.18779(3)
C94_3 C 0.82964(11) 0.32229(12) 0.18477(3)
H63_3 H 0.1153 0.5593 0.1932
C95_3 C 0.17084(11) 0.43276(13) 0.20661(3)
C96_3 C 0.14763(11) 0.37125(13) 0.17785(3)
C97_3 C 0.13409(11) 0.74260(12) 0.17248(3)
C98_3 C 0.03857(11) 0.67605(12) 0.18228(3)
C99_3 C 0.77193(11) 0.62726(12) 0.17959(3)
C100_3 C 0.76099(11) 0.57593(11) 0.21025(3)
H64_3 H 0.8165 0.4487 0.1992
C101_3 C 0.80549(11) 0.25615(12) 0.18319(3)
C102_3 C 0.89585(10) 0.33189(12) 0.19208(3)
C103_3 C 0.16723(10) 0.37220(12) 0.21714(3)
H65_3 H 0.1796 0.4747 0.2130
H66_3 H 0.1391 0.3706 0.1645
C104_3 C 0.14569(10) 0.31104(12) 0.18815(3)
H67_3 H 0.1795 0.7453 0.1676
C105_3 C 0.09845(11) 0.80333(12) 0.17705(3)
H68_3 H 0.0179 0.6326 0.1844
C106_3 C 0.00245(10) 0.73555(12) 0.18668(3)
H69_3 H 0.7722 0.6233 0.1660
C107_3 C 0.78196(11) 0.69144(11) 0.18787(3)
C108_3 C 0.76990(10) 0.63946(11) 0.21892(3)
H70_3 H 0.7544 0.5365 0.2180
C109_3 C 0.84500(10) 0.20004(11) 0.18828(3)
H71_3 H 0.7605 0.2488 0.1785
C110_3 C 0.93636(11) 0.27673(12) 0.19724(3)
H72_3 H 0.9132 0.3770 0.1935
C111_3 C 0.15411(10) 0.31096(11) 0.20795(3)
H73_3 H 0.1738 0.3731 0.2306
H74_3 H 0.1385 0.2690 0.1816
C112_3 C 0.03269(10) 0.79862(11) 0.18406(3)
H75_3 H 0.1195 0.8467 0.1753
C113_3 C 0.78072(9) 0.69723(10) 0.20765(3)
H77_3 H 0.7895 0.7306 0.1801
H78_3 H 0.7686 0.6434 0.2325
C114_3 C 0.91140(10) 0.21071(11) 0.19519(3)
H79_3 H 0.8272 0.1550 0.1871
H80_3 H 0.9811 0.2841 0.2022
Al1_3 Al 0.49482(3) 0.47630(3) 0.94342(2)
O1_3 O 0.09150(6) 0.93288(7) 0.80354(2)
O2_3 O 0.51617(7) 0.40811(7) 0.92540(2)
O3_3 O 0.46174(7) 0.52573(7) 0.92178(2)
O4_3 O 0.53182(6) 0.42436(6) 0.96304(2)
O5_3 O 0.47121(6) 0.54785(6) 0.95978(2)
C1_3 C 0.54119(11) 0.34786(10) 0.92599(3)
C2_3 C 0.42976(11) 0.58034(10) 0.91976(3)
Al2_3 Al 0.60857(3) 0.36837(3) 0.96063(2)
H1_3 H 0.5124 0.4262 0.9739
Al3_3 Al 0.38992(3) 0.59653(3) 0.95967(2)
H2_3 H 0.5007 0.5593 0.9681
C3_3 C 0.54152(11) 0.30965(10) 0.90783(3)
O6_3 O 0.56685(7) 0.31957(7) 0.94067(2)
C4_3 C 0.42815(11) 0.61339(10) 0.90066(3)
O7_3 O 0.39708(7) 0.61150(7) 0.93305(2)
O8_3 O 0.58870(7) 0.30766(7) 0.98084(2)
O9_3 O 0.65306(6) 0.40902(7) 0.98127(2)
O11_3 O 0.81221(7) 0.81430(7) 0.79499(2)
O13_3 O 0.19238(6) 0.14630(7) 0.79229(2)
O14_3 O 0.37717(6) 0.58953(6) 0.98568(2)
O15_3 O 0.43972(7) 0.68063(7) 0.96276(2)
C5_3 C 0.50754(12) 0.33650(11) 0.89175(3)
C6_3 C 0.57716(12) 0.24843(11) 0.90597(3)
C7_3 C 0.46400(11) 0.58442(11) 0.88538(3)
C8_3 C 0.39252(12) 0.67345(11) 0.89764(3)
C9_3 C 0.56872(16) 0.24118(17) 0.97797(4)
C10_3 C 0.67453(16) 0.47651(16) 0.98352(4)
H3_3 H 0.3908 0.5529 0.9910
C11_3 C 0.42369(11) 0.72870(11) 0.97391(3)
C12_3 C 0.51094(13) 0.30257(12) 0.87454(3)
H4_3 H 0.4823 0.3779 0.8928
C13_3 C 0.58025(13) 0.21451(12) 0.88895(3)
H5_3 H 0.5999 0.2298 0.9168
C14_3 C 0.46495(12) 0.61715(11) 0.86768(3)
H6_3 H 0.4877 0.5424 0.8871
H7_3 H 0.3672 0.6932 0.9079
C15_3 C 0.39314(12) 0.70535(11) 0.87996(3)
H8_3 H 0.6093 0.2123 0.9761
H9_3 H 0.5396 0.2386 0.9666
H10_3 H 0.5430 0.2251 0.9891
O16_3 O 0.77197(7) 0.79562(6) 0.76554(2)
O17_3 O 0.38009(7) 0.72718(7) 0.98703(2)
O18_3 O 0.24381(7) 0.15465(7) 0.76373(2)
H11_3 H 0.6373 0.5036 0.9891
H12_3 H 0.6870 0.4955 0.9710
H13_3 H 0.7144 0.4779 0.9920
H14_3 H 0.4473 0.7708 0.9722
H15_3 H 0.4874 0.3207 0.8638
C16_3 C 0.54820(12) 0.24209(11) 0.87251(3)
H16_3 H 0.6040 0.1722 0.8881
C17_3 C 0.42940(12) 0.67812(11) 0.86472(3)
H17_3 H 0.4903 0.5976 0.8574
H18_3 H 0.3682 0.7467 0.8782
C18_3 C 0.55188(13) 0.20636(11) 0.85366(3)
C19_3 C 0.43350(12) 0.71525(11) 0.84611(3)
C20_3 C 0.49372(13) 0.20197(12) 0.84218(3)
C21_3 C 0.61206(12) 0.17482(11) 0.84777(3)
C22_3 C 0.49564(11) 0.71829(10) 0.83616(3)
C23_3 C 0.37746(12) 0.75062(11) 0.83891(3)
C24_3 C 0.49628(12) 0.16733(11) 0.82455(3)
H19_3 H 0.4521 0.2225 0.8463
C25_3 C 0.61580(13) 0.14034(11) 0.83053(3)
H20_3 H 0.6514 0.1770 0.8557
C26_3 C 0.50132(12) 0.75468(10) 0.81914(3)
H21_3 H 0.5345 0.6951 0.8411
C27_3 C 0.38220(11) 0.78894(11) 0.82194(3)
H22_3 H 0.3351 0.7489 0.8456
C28_3 C 0.55703(12) 0.13781(11) 0.81888(3)
C29_3 C 0.43287(12) 0.16195(10) 0.81303(3)
C30_3 C 0.67964(12) 0.10402(11) 0.82507(3)
C31_3 C 0.56911(11) 0.76152(10) 0.80948(3)
C32_3 C 0.44468(11) 0.79061(10) 0.81221(3)
C33_3 C 0.32229(12) 0.82964(11) 0.81523(3)
H23_3 H 0.5593 0.1153 0.8068
C34_3 C 0.43276(13) 0.17084(11) 0.79339(3)
C35_3 C 0.37125(13) 0.14763(11) 0.82215(3)
C36_3 C 0.74260(12) 0.13409(11) 0.82752(3)
C37_3 C 0.67605(12) 0.03857(11) 0.81772(3)
C38_3 C 0.62726(12) 0.77193(11) 0.82041(3)
C39_3 C 0.57593(11) 0.76099(11) 0.78975(3)
H24_3 H 0.4487 0.8165 0.8008
C40_3 C 0.25615(12) 0.80549(11) 0.81681(3)
C41_3 C 0.33189(12) 0.89585(10) 0.80792(3)
C42_3 C 0.37220(12) 0.16723(10) 0.78286(3)
H25_3 H 0.4747 0.1796 0.7870
H26_3 H 0.3706 0.1391 0.8355
C43_3 C 0.31104(12) 0.14569(10) 0.81185(3)
H27_3 H 0.7453 0.1795 0.8324
C44_3 C 0.80333(12) 0.09845(11) 0.82295(3)
H28_3 H 0.6326 0.0179 0.8156
C45_3 C 0.73555(12) 0.00245(10) 0.81332(3)
H29_3 H 0.6233 0.7722 0.8340
C46_3 C 0.69144(11) 0.78196(11) 0.81213(3)
C47_3 C 0.63946(11) 0.76990(10) 0.78108(3)
H30_3 H 0.5365 0.7544 0.7820
C48_3 C 0.20004(11) 0.84500(10) 0.81172(3)
H31_3 H 0.2488 0.7605 0.8215
C49_3 C 0.27673(12) 0.93636(11) 0.80276(3)
H32_3 H 0.3770 0.9132 0.8065
C50_3 C 0.31096(11) 0.15411(10) 0.79205(3)
H33_3 H 0.3731 0.1738 0.7694
H34_3 H 0.2690 0.1385 0.8184
C51_3 C 0.79862(11) 0.03269(10) 0.81594(3)
H35_3 H 0.8467 0.1195 0.8247
C52_3 C 0.69723(10) 0.78072(9) 0.79235(3)
H37_3 H 0.7306 0.7895 0.8199
H38_3 H 0.6434 0.7686 0.7675
C53_3 C 0.21071(11) 0.91140(10) 0.80481(3)
H39_3 H 0.1550 0.8272 0.8129
H40_3 H 0.2841 0.9811 0.7978
C54_3 C 0.24402(10) 0.15120(10) 0.78184(3)
C56_3 C 0.76503(10) 0.79714(10) 0.78343(3)
C57_3 C 0.15072(10) 0.95626(10) 0.80073(3)
O19_3 O 0.91892(6) 0.02154(7) 0.81106(2)
O20_3 O 0.40850(6) 0.43288(7) 0.94646(2)
Al7_2 Al 0.89143(3) 0.86837(3) 0.78937(2)
O21_3 O 0.64893(7) 0.43076(6) 0.94335(2)
O22_3 O 0.68779(7) 0.31430(7) 0.95501(2)
O23_3 O 0.33694(6) 0.51649(7) 0.95527(2)
O24_3 O 0.30762(6) 0.64630(7) 0.95771(2)
O26_3 O 0.72803(7) 0.29562(6) 0.98446(2)
O29_3 O 0.58108(6) 0.52154(7) 0.93894(2)
O51_3 O 0.25619(7) 0.65465(7) 0.98627(2)
O10_3 O 0.85107(7) 0.93076(6) 0.80665(2)
H36_3 H 0.7326 0.9570 0.8085
C55_3 C 0.86066(11) 0.99184(10) 0.81073(3)
C69_3 C 0.99184(10) 0.86066(11) 0.18927(3)
H76_3 H 0.9570 0.7326 0.1915
O2_4 O 0.09189(7) 0.01617(7) 0.67540(2)
O4_4 O 0.07564(6) 0.03182(6) 0.71304(2)
C1_4 C 0.15214(10) 0.04119(11) 0.67599(3)
H1_4 H 0.0738 0.0124 0.7239
C3_4 C 0.19035(10) 0.04152(11) 0.65783(3)
O6_4 O 0.18043(7) 0.06685(7) 0.69067(2)
O8_4 O 0.19234(7) 0.08870(7) 0.73084(2)
O9_4 O 0.09098(7) 0.15306(6) 0.73127(2)
C5_4 C 0.16350(11) 0.00754(12) 0.64175(3)
C6_4 C 0.25157(11) 0.07716(12) 0.65597(3)
C9_4 C 0.25882(17) 0.06872(16) 0.72797(4)
C10_4 C 0.02349(16) 0.17453(16) 0.73352(4)
C12_4 C 0.19743(12) 0.01094(13) 0.62454(3)
C13_4 C 0.28549(12) 0.08025(13) 0.63895(3)
H5_4 H 0.2702 0.0999 0.6668
H8_4 H 0.2877 0.1093 0.7261
H9_4 H 0.2614 0.0396 0.7166
H10_4 H 0.2749 0.0430 0.7391
H12_4 H 0.0045 0.1870 0.7210
H13_4 H 0.0221 0.2144 0.7420
C16_4 C 0.25791(11) 0.04820(12) 0.62251(3)
H16_4 H 0.3278 0.1040 0.6381
C18_4 C 0.29364(11) 0.05188(13) 0.60366(3)
C21_4 C 0.32518(11) 0.11206(12) 0.59777(3)
C25_4 C 0.35966(11) 0.11580(13) 0.58053(3)
H20_4 H 0.3230 0.1514 0.6057
C28_4 C 0.36219(11) 0.05703(12) 0.56888(3)
C30_4 C 0.39598(11) 0.17964(12) 0.57507(3)
H23_4 H 0.3847 0.0593 0.5568
C36_4 C 0.36591(11) 0.24260(12) 0.57752(3)
C37_4 C 0.46143(11) 0.17605(12) 0.56772(3)
H27_4 H 0.3205 0.2453 0.5824
C44_4 C 0.40155(11) 0.30333(12) 0.57295(3)
H28_4 H 0.4821 0.1326 0.5656
C45_4 C 0.49755(10) 0.23555(12) 0.56332(3)
C51_4 C 0.46731(10) 0.29862(11) 0.56594(3)
H35_4 H 0.3805 0.3467 0.5747
H36_4 H 0.5430 0.2326 0.5585
C55_4 C 0.50816(10) 0.36066(11) 0.56073(3)
O25_4 O 0.12283(6) 0.08953(6) 0.76432(2)
O27_4 O 0.11991(7) 0.22718(7) 0.76297(2)
O31_4 O 0.03826(7) 0.02573(7) 0.82822(2)
O33_4 O 0.02879(6) 0.04785(6) 0.79022(2)
C58_4 C 0.34928(10) 0.45626(10) 0.94927(3)
C60_4 C 0.07024(11) 0.08034(10) 0.83024(3)
C62_4 C 0.07185(11) 0.11339(10) 0.84934(3)
O38_4 O 0.10292(7) 0.11150(7) 0.81695(2)
O43_4 O 0.06028(7) 0.18063(7) 0.78724(2)
C65_4 C 0.03600(11) 0.08442(11) 0.86462(3)
C66_4 C 0.10748(12) 0.17345(11) 0.85236(3)
H43_4 H 0.1092 0.0529 0.7590
C72_4 C 0.07631(11) 0.22870(11) 0.77609(3)
C75_4 C 0.03505(12) 0.11715(11) 0.88232(3)
H46_4 H 0.0123 0.0424 0.8629
H47_4 H 0.1328 0.1932 0.8421
C76_4 C 0.10686(12) 0.20535(11) 0.87004(3)
H54_4 H 0.0527 0.2708 0.7778
C78_4 C 0.07060(12) 0.17812(11) 0.88528(3)
H57_4 H 0.0097 0.0976 0.8926
H58_4 H 0.1318 0.2467 0.8718
C80_4 C 0.06650(12) 0.21525(11) 0.90389(3)
C83_4 C 0.00436(11) 0.21829(10) 0.91384(3)
C84_4 C 0.12254(12) 0.25062(11) 0.91109(3)
C88_4 C 0.11780(11) 0.28894(11) 0.92806(3)
H62_4 H 0.1649 0.2489 0.9044
C93_4 C 0.05532(11) 0.29061(10) 0.93779(3)
C94_4 C 0.17771(12) 0.32964(11) 0.93477(3)
H64_4 H 0.0513 0.3165 0.9492
C101_4 C 0.24385(12) 0.30549(11) 0.93319(3)
C102_4 C 0.16811(12) 0.39585(10) 0.94208(3)
C109_4 C 0.29996(11) 0.34500(10) 0.93828(3)
H71_4 H 0.2512 0.2605 0.9285
C110_4 C 0.22327(12) 0.43636(11) 0.94724(3)
H72_4 H 0.1230 0.4132 0.9435
C114_4 C 0.28929(11) 0.41140(10) 0.94519(3)
H79_4 H 0.3450 0.3272 0.9371
H80_4 H 0.2159 0.4811 0.9522
H4_4 H 0.1221 0.9823 0.6428
H15_4 H 0.1793 0.9874 0.6138
C20_4 C 0.29803(12) 0.99372(13) 0.59218(3)
C24_4 C 0.33267(11) 0.99628(12) 0.57455(3)
H19_4 H 0.2775 0.9521 0.5963
C29_4 C 0.33805(10) 0.93287(12) 0.56303(3)
C34_4 C 0.32916(11) 0.93276(13) 0.54339(3)
C35_4 C 0.35237(11) 0.87125(13) 0.57215(3)
C42_4 C 0.33277(10) 0.87220(12) 0.53286(3)
H25_4 H 0.3204 0.9747 0.5370
H26_4 H 0.3609 0.8706 0.5855
C43_4 C 0.35431(10) 0.81104(12) 0.56185(3)
C50_4 C 0.34589(10) 0.81096(11) 0.54205(3)
H33_4 H 0.3262 0.8731 0.5194
H34_4 H 0.3615 0.7690 0.5684
C54_4 C 0.34880(10) 0.74402(10) 0.53184(3)
C71_4 C 0.25598(10) 0.65120(10) 0.96816(3)
H44_4 H 0.0177 0.8779 0.8572
H55_4 H 0.0126 0.8207 0.8862
C81_4 C 0.00628(13) 0.70197(12) 0.90782(3)
C85_4 C 0.00372(12) 0.66733(11) 0.92545(3)
H59_4 H 0.0479 0.7225 0.9037
C90_4 C 0.06713(12) 0.66195(10) 0.93697(3)
C95_4 C 0.06724(13) 0.67084(11) 0.95661(3)
C96_4 C 0.12875(13) 0.64763(11) 0.92785(3)
C103_4 C 0.12780(12) 0.66723(10) 0.96714(3)
H65_4 H 0.0253 0.6796 0.9630
H66_4 H 0.1294 0.6391 0.9145
C104_4 C 0.18896(12) 0.64569(10) 0.93815(3)
C111_4 C 0.18904(11) 0.65411(10) 0.95795(3)
H73_4 H 0.1269 0.6738 0.9806
H74_4 H 0.2310 0.6385 0.9316
H2_4 H 0.9407 0.0007 0.7181
H11_4 H 0.9964 0.1373 0.7391
C26_4 C 0.74532(10) 0.00132(12) 0.56914(3)
H21_4 H 0.8049 0.0345 0.5911
C31_4 C 0.73848(10) 0.06911(11) 0.55948(3)
C38_4 C 0.72807(11) 0.12726(12) 0.57041(3)
C39_4 C 0.73901(11) 0.07593(11) 0.53975(3)
H29_4 H 0.7278 0.1233 0.5840
C46_4 C 0.71804(11) 0.19144(11) 0.56213(3)
C47_4 C 0.73010(10) 0.13946(11) 0.53108(3)
H30_4 H 0.7456 0.0365 0.5320
C52_4 C 0.71928(9) 0.19723(10) 0.54235(3)
H37_4 H 0.7105 0.2306 0.5699
H38_4 H 0.7314 0.1434 0.5175
C56_4 C 0.70286(10) 0.26503(10) 0.53343(3)
H42_4 H 0.9993 0.0593 0.7819
C70_4 C 0.73497(10) 0.29714(10) 0.96657(3)
H51_4 H 0.8627 0.0036 0.7609
C87_4 C 0.99868(12) 0.25468(10) 0.93086(3)
H61_4 H 0.9655 0.1951 0.9089
C92_4 C 0.93089(11) 0.26152(10) 0.94052(3)
C99_4 C 0.87274(12) 0.27193(11) 0.92959(3)
C100_4 C 0.92407(11) 0.26099(11) 0.96025(3)
H69_4 H 0.8767 0.2722 0.9160
C107_4 C 0.80856(11) 0.28196(11) 0.93787(3)
C108_4 C 0.86054(11) 0.26990(10) 0.96892(3)
H70_4 H 0.9635 0.2544 0.9680
C113_4 C 0.80277(10) 0.28072(9) 0.95765(3)
H77_4 H 0.7694 0.2895 0.9301
H78_4 H 0.8566 0.2686 0.9825
O3_4 O 0.97427(7) 0.96174(7) 0.67178(2)
O5_4 O 0.95215(6) 0.97121(6) 0.70978(2)
C2_4 C 0.91966(10) 0.92976(11) 0.66976(3)
C4_4 C 0.88661(10) 0.92815(11) 0.65066(3)
O7_4 O 0.88850(7) 0.89708(7) 0.68305(2)
O14_4 O 0.91047(6) 0.87717(6) 0.73568(2)
O15_4 O 0.81937(7) 0.93972(7) 0.71276(2)
C7_4 C 0.91558(11) 0.96400(11) 0.63538(3)
C8_4 C 0.82655(11) 0.89252(12) 0.64764(3)
H3_4 H 0.9471 0.8908 0.7410
C11_4 C 0.77130(11) 0.92369(11) 0.72391(3)
C14_4 C 0.88285(11) 0.96495(12) 0.61768(3)
H6_4 H 0.9576 0.9877 0.6371
H7_4 H 0.8068 0.8672 0.6579
C15_4 C 0.79465(11) 0.89314(12) 0.62996(3)
O17_4 O 0.77282(7) 0.88009(7) 0.73703(2)
H14_4 H 0.7292 0.9473 0.7222
C17_4 C 0.82188(11) 0.92940(12) 0.61472(3)
H17_4 H 0.9024 0.9903 0.6074
H18_4 H 0.7533 0.8682 0.6282
C19_4 C 0.78475(11) 0.93350(12) 0.59611(3)
C22_4 C 0.78171(10) 0.99564(11) 0.58616(3)
C23_4 C 0.74938(11) 0.87746(12) 0.58891(3)
C27_4 C 0.71106(11) 0.88220(11) 0.57194(3)
H22_4 H 0.7511 0.8351 0.5956
C32_4 C 0.70939(10) 0.94468(11) 0.56221(3)
C33_4 C 0.67036(11) 0.82229(12) 0.56523(3)
H24_4 H 0.6835 0.9487 0.5508
C40_4 C 0.69451(11) 0.75615(12) 0.56681(3)
C41_4 C 0.60415(10) 0.83189(12) 0.55792(3)
C48_4 C 0.65500(10) 0.70004(11) 0.56172(3)
H31_4 H 0.7395 0.7488 0.5715
C49_4 C 0.56364(11) 0.77673(12) 0.55276(3)
H32_4 H 0.5868 0.8770 0.5565
C53_4 C 0.58860(10) 0.71071(11) 0.55481(3)
H39_4 H 0.6728 0.6550 0.5629
H40_4 H 0.5189 0.7841 0.5478
C57_4 C 0.54374(10) 0.65072(10) 0.55073(3)
O30_4 O 0.98383(7) 0.90811(7) 0.82460(2)
O32_4 O 0.96818(6) 0.92436(6) 0.78696(2)
C59_4 C 0.95881(11) 0.84786(10) 0.82401(3)
H41_4 H 0.9876 0.9262 0.7761
C61_4 C 0.95848(11) 0.80965(10) 0.84217(3)
O37_4 O 0.93315(7) 0.81957(7) 0.80933(2)
O39_4 O 0.91130(7) 0.80766(7) 0.76916(2)
O40_4 O 0.84694(6) 0.90902(7) 0.76873(2)
C63_4 C 0.99246(12) 0.83650(11) 0.85825(3)
C64_4 C 0.92284(12) 0.74843(11) 0.84403(3)
C67_4 C 0.93128(16) 0.74118(17) 0.77203(4)
C68_4 C 0.82547(16) 0.97651(16) 0.76648(4)
C69_4 C 0.63934(11) 0.49184(10) 0.93927(3)
C73_4 C 0.98906(13) 0.80257(12) 0.87546(3)
C74_4 C 0.91975(13) 0.71451(12) 0.86105(3)
H45_4 H 0.9001 0.7298 0.8332
H48_4 H 0.8907 0.7123 0.7739
H49_4 H 0.9604 0.7386 0.7834
H50_4 H 0.9570 0.7251 0.7609
H52_4 H 0.8130 0.9955 0.7790
H53_4 H 0.7856 0.9779 0.7580
C77_4 C 0.95180(12) 0.74209(11) 0.87749(3)
H56_4 H 0.8960 0.6722 0.8619
C79_4 C 0.94812(13) 0.70636(11) 0.89634(3)
C82_4 C 0.88794(12) 0.67482(11) 0.90223(3)
C86_4 C 0.88420(13) 0.64034(11) 0.91947(3)
H60_4 H 0.8486 0.6770 0.8943
C89_4 C 0.94297(12) 0.63781(11) 0.93112(3)
C91_4 C 0.82036(12) 0.60402(11) 0.92493(3)
H63_4 H 0.9407 0.6153 0.9432
C97_4 C 0.75740(12) 0.63409(11) 0.92248(3)
C98_4 C 0.82395(12) 0.53857(11) 0.93228(3)
H67_4 H 0.7547 0.6795 0.9176
C105_4 C 0.69667(12) 0.59845(11) 0.92705(3)
H68_4 H 0.8674 0.5179 0.9344
C106_4 C 0.76445(12) 0.50245(10) 0.93668(3)
C112_4 C 0.70138(11) 0.53269(10) 0.93406(3)
H75_4 H 0.6533 0.6195 0.9253
H76_4 H 0.7674 0.4570 0.9415
loop_
_geom_bond_atom_site_label_1
_geom_bond_atom_site_label_2
_geom_bond_site_symmetry_1
_geom_bond_site_symmetry_2
O46 C69 1_555 1_555
Al18 O46 1_555 1_555
O10 C55 1_555 1_555
Al8 O10 1_555 1_555
Al1 O2 1_555 1_555
O1 C57 1_555 1_555
O2 C1 1_555 1_555
O3 Al1 1_555 1_555
O4 Al1 1_555 1_555
O5 Al1 1_555 1_555
C1 C3 1_555 1_555
C2 O3 1_555 1_555
Al2 O4 1_555 1_555
H1 O4 1_555 1_555
Al3 O5 1_555 1_555
H2 O5 1_555 1_555
C3 C5 1_555 1_555
O6 C1 1_555 1_555
C4 C2 1_555 1_555
O7 C2 1_555 1_555
O8 Al2 1_555 1_555
O9 Al2 1_555 1_555
O11 C56 1_555 1_555
O13 C54 1_555 1_555
O14 Al3 1_555 1_555
O15 Al3 1_555 1_555
C5 C12 1_555 1_555
C6 C3 1_555 1_555
C7 C4 1_555 1_555
C8 C4 1_555 1_555
C9 O8 1_555 1_555
Al4 O8 1_555 1_555
C10 O9 1_555 1_555
H3 O14 1_555 1_555
C11 O15 1_555 1_555
C12 H15 1_555 1_555
H4 C5 1_555 1_555
C13 C6 1_555 1_555
H5 C6 1_555 1_555
C14 C7 1_555 1_555
H6 C7 1_555 1_555
H7 C8 1_555 1_555
C15 C8 1_555 1_555
H8 C9 1_555 1_555
H9 C9 1_555 1_555
H10 C9 1_555 1_555
O16 C56 1_555 1_555
O17 C11 1_555 1_555
O18 C54 1_555 1_555
H11 C10 1_555 1_555
H12 C10 1_555 1_555
H13 C10 1_555 1_555
H14 C11 1_555 1_555
C16 C12 1_555 1_555
H16 C13 1_555 1_555
C17 C14 1_555 1_555
H17 C14 1_555 1_555
H18 C15 1_555 1_555
C18 C16 1_555 1_555
C19 C17 1_555 1_555
C20 C18 1_555 1_555
C21 C18 1_555 1_555
C22 C19 1_555 1_555
C23 C19 1_555 1_555
C24 C20 1_555 1_555
H19 C20 1_555 1_555
C25 C21 1_555 1_555
H20 C21 1_555 1_555
C26 C22 1_555 1_555
H21 C22 1_555 1_555
C27 C23 1_555 1_555
H22 C23 1_555 1_555
C28 C24 1_555 1_555
C29 C24 1_555 1_555
C30 C25 1_555 1_555
C31 C26 1_555 1_555
C32 C26 1_555 1_555
C33 C27 1_555 1_555
H23 C28 1_555 1_555
C34 C29 1_555 1_555
C35 C29 1_555 1_555
C36 C30 1_555 1_555
C37 C30 1_555 1_555
C38 C31 1_555 1_555
C39 C31 1_555 1_555
H24 C32 1_555 1_555
C40 C33 1_555 1_555
C41 C33 1_555 1_555
C42 C34 1_555 1_555
H25 C34 1_555 1_555
H26 C35 1_555 1_555
C43 C35 1_555 1_555
H27 C36 1_555 1_555
C44 C36 1_555 1_555
H28 C37 1_555 1_555
C45 C37 1_555 1_555
H29 C38 1_555 1_555
C46 C38 1_555 1_555
C47 C39 1_555 1_555
H30 C39 1_555 1_555
C48 C40 1_555 1_555
H31 C40 1_555 1_555
C49 C41 1_555 1_555
H32 C41 1_555 1_555
C50 C42 1_555 1_555
H33 C42 1_555 1_555
H34 C43 1_555 1_555
C51 C44 1_555 1_555
H35 C44 1_555 1_555
C52 C46 1_555 1_555
H37 C46 1_555 1_555
H38 C47 1_555 1_555
C53 C48 1_555 1_555
H39 C48 1_555 1_555
H40 C49 1_555 1_555
C54 C50 1_555 1_555
C56 C52 1_555 1_555
C57 C53 1_555 1_555
Al6 O1 1_555 1_555
O20 Al1 1_555 1_555
Al8 O11 1_555 1_555
Al10 O13 1_555 1_555
O21 Al2 1_555 1_555
O22 Al2 1_555 1_555
O23 Al3 1_555 1_555
O24 Al3 1_555 1_555
O25 Al4 1_555 1_555
Al11 O18 1_555 1_555
Al12 O16 1_555 1_555
Al13 O14 1_555 1_555
O26 Al4 1_555 1_555
O27 Al4 1_555 1_555
O28 Al4 1_555 1_555
O29 Al1 1_555 1_555
Al14 O30 1_555 1_555
O30 C59 1_555 1_555
O31 Al14 1_555 1_555
O32 Al14 1_555 1_555
O33 Al14 1_555 1_555
O34 Al14 1_555 1_555
O35 Al14 1_555 1_555
O36 C58 1_555 1_555
Al24 O36 1_555 1_555
C59 C61 1_555 1_555
C60 O31 1_555 1_555
Al16 O32 1_555 1_555
H41 O32 1_555 1_555
Al17 O25 1_555 1_555
H42 O33 1_555 1_555
C61 C63 1_555 1_555
O37 C59 1_555 1_555
C62 C60 1_555 1_555
O38 C60 1_555 1_555
O39 Al13 1_555 1_555
O40 Al13 1_555 1_555
O41 Al16 1_555 1_555
O42 Al16 1_555 1_555
O43 Al17 1_555 1_555
O44 Al17 1_555 1_555
O45 Al17 1_555 1_555
C63 C73 1_555 1_555
C64 C61 1_555 1_555
C65 C62 1_555 1_555
C66 C62 1_555 1_555
C67 O39 1_555 1_555
C68 O40 1_555 1_555
O47 C70 1_555 1_555
C70 O52 1_555 1_555
Al18 O47 1_555 1_555
O49 C71 1_555 1_555
C71 O53 1_555 1_555
Al21 O49 1_555 1_555
H43 O25 1_555 1_555
C72 O27 1_555 1_555
C73 H55 1_555 1_555
H44 C63 1_555 1_555
C74 C64 1_555 1_555
H45 C64 1_555 1_555
C75 C65 1_555 1_555
H46 C65 1_555 1_555
H47 C66 1_555 1_555
C76 C66 1_555 1_555
H48 C67 1_555 1_555
H49 C67 1_555 1_555
H50 C67 1_555 1_555
O50 Al13 1_555 1_555
O51 Al13 1_555 1_555
H51 C68 1_555 1_555
H52 C68 1_555 1_555
H53 C68 1_555 1_555
H54 C72 1_555 1_555
C77 C73 1_555 1_555
H56 C74 1_555 1_555
C78 C75 1_555 1_555
H57 C75 1_555 1_555
H58 C76 1_555 1_555
O52 Al22 1_555 1_555
O53 Al23 1_555 1_555
C79 C77 1_555 1_555
C80 C78 1_555 1_555
C81 C79 1_555 1_555
C82 C79 1_555 1_555
C83 C80 1_555 1_555
C84 C80 1_555 1_555
C85 C81 1_555 1_555
H59 C81 1_555 1_555
C86 C82 1_555 1_555
H60 C82 1_555 1_555
C87 C83 1_555 1_555
H61 C83 1_555 1_555
C88 C84 1_555 1_555
H62 C84 1_555 1_555
C89 C85 1_555 1_555
C90 C85 1_555 1_555
C91 C86 1_555 1_555
C92 C87 1_555 1_555
C93 C87 1_555 1_555
C94 C88 1_555 1_555
H63 C89 1_555 1_555
C95 C90 1_555 1_555
C96 C90 1_555 1_555
C97 C91 1_555 1_555
C98 C91 1_555 1_555
C99 C92 1_555 1_555
C100 C92 1_555 1_555
H64 C93 1_555 1_555
C101 C94 1_555 1_555
C102 C94 1_555 1_555
C103 C95 1_555 1_555
H65 C95 1_555 1_555
H66 C96 1_555 1_555
C104 C96 1_555 1_555
H67 C97 1_555 1_555
C105 C97 1_555 1_555
H68 C98 1_555 1_555
C106 C98 1_555 1_555
H69 C99 1_555 1_555
C107 C99 1_555 1_555
C108 C100 1_555 1_555
H70 C100 1_555 1_555
C109 C101 1_555 1_555
H71 C101 1_555 1_555
C110 C102 1_555 1_555
H72 C102 1_555 1_555
C111 C71 1_555 1_555
H73 C103 1_555 1_555
H74 C104 1_555 1_555
C112 C105 1_555 1_555
H75 C105 1_555 1_555
C113 C70 1_555 1_555
H77 C107 1_555 1_555
H78 C108 1_555 1_555
C114 C58 1_555 1_555
H79 C109 1_555 1_555
H80 C110 1_555 1_555
Al2 O6 1_555 1_555
Al3 O7 1_555 1_555
O9 Al4 1_555 1_555
C13 C16 1_555 1_555
C15 C17 1_555 1_555
O17 Al13 1_555 1_555
C25 C28 1_555 1_555
C27 C32 1_555 1_555
C43 C50 1_555 1_555
C45 C51 1_555 1_555
C47 C52 1_555 1_555
C49 C53 1_555 1_555
O33 Al17 1_555 1_555
Al16 O37 1_555 1_555
Al16 O39 1_555 1_555
Al16 O40 1_555 1_555
Al17 O38 1_555 1_555
O43 C72 1_555 1_555
C74 C77 1_555 1_555
C76 C78 1_555 1_555
C86 C89 1_555 1_555
C88 C93 1_555 1_555
C103 C111 1_555 1_555
C104 C111 1_555 1_555
C106 C112 1_555 1_555
C107 C113 1_555 1_555
C108 C113 1_555 1_555
C109 C114 1_555 1_555
C110 C114 1_555 1_555
Al10 O12 1_555 1_555
O48 Al21 1_555 1_555
O1_2 C57_2 1_555 1_555
C2_2 O3_2 1_555 1_555
Al3_2 O5_2 1_555 1_555
C4_2 C2_2 1_555 1_555
O7_2 C2_2 1_555 1_555
O12_2 C57_2 1_555 1_555
O14_2 Al3_2 1_555 1_555
O15_2 Al3_2 1_555 1_555
C7_2 C4_2 1_555 1_555
C8_2 C4_2 1_555 1_555
H3_2 O14_2 1_555 1_555
C11_2 O15_2 1_555 1_555
C14_2 C7_2 1_555 1_555
H6_2 C7_2 1_555 1_555
H7_2 C8_2 1_555 1_555
C15_2 C8_2 1_555 1_555
O17_2 C11_2 1_555 1_555
H14_2 C11_2 1_555 1_555
C17_2 C14_2 1_555 1_555
H17_2 C14_2 1_555 1_555
H18_2 C15_2 1_555 1_555
C19_2 C17_2 1_555 1_555
C22_2 C19_2 1_555 1_555
C23_2 C19_2 1_555 1_555
C27_2 C23_2 1_555 1_555
H22_2 C23_2 1_555 1_555
C33_2 C27_2 1_555 1_555
H24_2 C32_2 1_555 1_555
C40_2 C33_2 1_555 1_555
C41_2 C33_2 1_555 1_555
C48_2 C40_2 1_555 1_555
H31_2 C40_2 1_555 1_555
C49_2 C41_2 1_555 1_555
H32_2 C41_2 1_555 1_555
C53_2 C48_2 1_555 1_555
H39_2 C48_2 1_555 1_555
H40_2 C49_2 1_555 1_555
C57_2 C53_2 1_555 1_555
Al6_2 O1_2 1_555 1_555
Al9 O12_2 1_555 1_555
O23_2 Al3_2 1_555 1_555
O24_2 Al3_2 1_555 1_555
Al12 O14_2 1_555 1_555
O30_2 C59_2 1_555 1_555
C59_2 C61_2 1_555 1_555
Al8 O32_2 1_555 1_555
H41_2 O32_2 1_555 1_555
C61_2 C63_2 1_555 1_555
O37_2 C59_2 1_555 1_555
O39_2 Al12 1_555 1_555
O40_2 Al12 1_555 1_555
C63_2 C73_2 1_555 1_555
C64_2 C61_2 1_555 1_555
C67_2 O39_2 1_555 1_555
C68_2 O40_2 1_555 1_555
O21 C69_2 1_555 1_555
C69_2 C112_2 1_555 1_555
C74_2 C64_2 1_555 1_555
H45_2 C64_2 1_555 1_555
H48_2 C67_2 1_555 1_555
H49_2 C67_2 1_555 1_555
H50_2 C67_2 1_555 1_555
O51_2 Al12 1_555 1_555
H52_2 C68_2 1_555 1_555
H53_2 C68_2 1_555 1_555
C77_2 C73_2 1_555 1_555
H56_2 C74_2 1_555 1_555
C79_2 C77_2 1_555 1_555
C82_2 C79_2 1_555 1_555
C86_2 C82_2 1_555 1_555
H60_2 C82_2 1_555 1_555
C91_2 C86_2 1_555 1_555
H63_2 C89_2 1_555 1_555
C97_2 C91_2 1_555 1_555
C98_2 C91_2 1_555 1_555
H67_2 C97_2 1_555 1_555
C105_2 C97_2 1_555 1_555
H68_2 C98_2 1_555 1_555
C106_2 C98_2 1_555 1_555
C112_2 C105_2 1_555 1_555
H75_2 C105_2 1_555 1_555
H76_2 C106_2 1_555 1_555
O29 C69_2 1_555 1_555
Al3_2 O7_2 1_555 1_555
C15_2 C17_2 1_555 1_555
O17_2 Al12 1_555 1_555
C27_2 C32_2 1_555 1_555
C49_2 C53_2 1_555 1_555
Al8 O37_2 1_555 1_555
Al8 O39_2 1_555 1_555
Al8 O40_2 1_555 1_555
C74_2 C77_2 1_555 1_555
C86_2 C89_2 1_555 1_555
C106_2 C112_2 1_555 1_555
O11_2 C56_2 1_555 1_555
O16_2 C56_2 1_555 1_555
C31_2 C26_2 1_555 1_555
C38_2 C31_2 1_555 1_555
C39_2 C31_2 1_555 1_555
H29_2 C38_2 1_555 1_555
C46_2 C38_2 1_555 1_555
C47_2 C39_2 1_555 1_555
H30_2 C39_2 1_555 1_555
C52_2 C46_2 1_555 1_555
H37_2 C46_2 1_555 1_555
H38_2 C47_2 1_555 1_555
C56_2 C52_2 1_555 1_555
Al7 O11_2 1_555 1_555
Al12_2 O16_2 1_555 1_555
O22 C70_2 1_555 1_555
C70_2 O26 1_555 1_555
C92_2 C87_2 1_555 1_555
C99_2 C92_2 1_555 1_555
C100_2 C92_2 1_555 1_555
H69_2 C99_2 1_555 1_555
C107_2 C99_2 1_555 1_555
C108_2 C100_2 1_555 1_555
H70_2 C100_2 1_555 1_555
C113_2 C70_2 1_555 1_555
H77_2 C107_2 1_555 1_555
H78_2 C108_2 1_555 1_555
C47_2 C52_2 1_555 1_555
C107_2 C113_2 1_555 1_555
C108_2 C113_2 1_555 1_555
O13_2 C54_2 1_555 1_555
O18_2 C54_2 1_555 1_555
C24_2 C20_2 1_555 1_555
H19_2 C20_2 1_555 1_555
C29_2 C24_2 1_555 1_555
C34_2 C29_2 1_555 1_555
C35_2 C29_2 1_555 1_555
C42_2 C34_2 1_555 1_555
H25_2 C34_2 1_555 1_555
H26_2 C35_2 1_555 1_555
C43_2 C35_2 1_555 1_555
C50_2 C42_2 1_555 1_555
H33_2 C42_2 1_555 1_555
H34_2 C43_2 1_555 1_555
C54_2 C50_2 1_555 1_555
O20_2 Al1_2 1_555 1_555
Al9 O13_2 1_555 1_555
O24 C71_2 1_555 1_555
C71_2 O51 1_555 1_555
C85_2 C81_2 1_555 1_555
H59_2 C81_2 1_555 1_555
C90_2 C85_2 1_555 1_555
C95_2 C90_2 1_555 1_555
C96_2 C90_2 1_555 1_555
C103_2 C95_2 1_555 1_555
H65_2 C95_2 1_555 1_555
H66_2 C96_2 1_555 1_555
C104_2 C96_2 1_555 1_555
C111_2 C71_2 1_555 1_555
H73_2 C103_2 1_555 1_555
H74_2 C104_2 1_555 1_555
C43_2 C50_2 1_555 1_555
C103_2 C111_2 1_555 1_555
C104_2 C111_2 1_555 1_555
O2_2 C1_2 1_555 1_555
C1_2 C3_2 1_555 1_555
Al2_2 O4_2 1_555 1_555
H1_2 O4_2 1_555 1_555
C3_2 C5_2 1_555 1_555
O6_2 C1_2 1_555 1_555
O8_2 Al2_2 1_555 1_555
O9_2 Al2_2 1_555 1_555
O10_2 C55_2 1_555 1_555
C5_2 C12_2 1_555 1_555
C6_2 C3_2 1_555 1_555
C9_2 O8_2 1_555 1_555
Al11 O8_2 1_555 1_555
C10_2 O9_2 1_555 1_555
C13_2 C6_2 1_555 1_555
H5_2 C6_2 1_555 1_555
H8_2 C9_2 1_555 1_555
H9_2 C9_2 1_555 1_555
H10_2 C9_2 1_555 1_555
H12_2 C10_2 1_555 1_555
H13_2 C10_2 1_555 1_555
C16_2 C12_2 1_555 1_555
H16_2 C13_2 1_555 1_555
C18_2 C16_2 1_555 1_555
C21_2 C18_2 1_555 1_555
C25_2 C21_2 1_555 1_555
H20_2 C21_2 1_555 1_555
C30_2 C25_2 1_555 1_555
H23_2 C28_2 1_555 1_555
C36_2 C30_2 1_555 1_555
C37_2 C30_2 1_555 1_555
H27_2 C36_2 1_555 1_555
C44_2 C36_2 1_555 1_555
H28_2 C37_2 1_555 1_555
C45_2 C37_2 1_555 1_555
C51_2 C44_2 1_555 1_555
H35_2 C44_2 1_555 1_555
H36_2 C45_2 1_555 1_555
C55_2 C51_2 1_555 1_555
O19_2 C55_2 1_555 1_555
Al6_2 O19_2 1_555 1_555
Al7 O10_2 1_555 1_555
O21_2 Al2_2 1_555 1_555
O22_2 Al2_2 1_555 1_555
O25_2 Al11 1_555 1_555
O26_2 Al11 1_555 1_555
O27_2 Al11 1_555 1_555
O20 C58_2 1_555 1_555
C58_2 O23 1_555 1_555
C60_2 O31_2 1_555 1_555
Al10 O25_2 1_555 1_555
C62_2 C60_2 1_555 1_555
O38_2 C60_2 1_555 1_555
O43_2 Al10 1_555 1_555
C65_2 C62_2 1_555 1_555
C66_2 C62_2 1_555 1_555
H43_2 O25_2 1_555 1_555
C72_2 O27_2 1_555 1_555
C75_2 C65_2 1_555 1_555
H46_2 C65_2 1_555 1_555
H47_2 C66_2 1_555 1_555
C76_2 C66_2 1_555 1_555
H54_2 C72_2 1_555 1_555
C78_2 C75_2 1_555 1_555
H57_2 C75_2 1_555 1_555
H58_2 C76_2 1_555 1_555
C80_2 C78_2 1_555 1_555
C83_2 C80_2 1_555 1_555
C84_2 C80_2 1_555 1_555
C88_2 C84_2 1_555 1_555
H62_2 C84_2 1_555 1_555
C94_2 C88_2 1_555 1_555
H64_2 C93_2 1_555 1_555
C101_2 C94_2 1_555 1_555
C102_2 C94_2 1_555 1_555
C109_2 C101_2 1_555 1_555
H71_2 C101_2 1_555 1_555
C110_2 C102_2 1_555 1_555
H72_2 C102_2 1_555 1_555
C114_2 C58_2 1_555 1_555
H79_2 C109_2 1_555 1_555
H80_2 C110_2 1_555 1_555
Al2_2 O6_2 1_555 1_555
O9_2 Al11 1_555 1_555
C13_2 C16_2 1_555 1_555
C25_2 C28_2 1_555 1_555
C45_2 C51_2 1_555 1_555
O33_2 Al10 1_555 1_555
Al10 O38_2 1_555 1_555
O43_2 C72_2 1_555 1_555
C76_2 C78_2 1_555 1_555
C88_2 C93_2 1_555 1_555
C109_2 C114_2 1_555 1_555
C110_2 C114_2 1_555 1_555
Al9_2 O12_3 1_555 1_555
Al6_2 O30_3 1_555 1_555
O30_3 C59_3 1_555 1_555
O31_3 Al6_2 1_555 1_555
O32_3 Al6_2 1_555 1_555
O33_3 Al6_2 1_555 1_555
O20_2 C58_3 1_555 1_555
C59_3 C61_3 1_555 1_555
C60_3 O31_3 1_555 1_555
Al7 O32_3 1_555 1_555
H41_3 O32_3 1_555 1_555
Al9 O25_3 1_555 1_555
H42_3 O33_3 1_555 1_555
C61_3 C63_3 1_555 1_555
O37_3 C59_3 1_555 1_555
C62_3 C60_3 1_555 1_555
O38_3 C60_3 1_555 1_555
O39_3 Al12_2 1_555 1_555
O40_3 Al12_2 1_555 1_555
O43_3 Al9 1_555 1_555
C63_3 C73_3 1_555 1_555
C64_3 C61_3 1_555 1_555
C65_3 C62_3 1_555 1_555
C66_3 C62_3 1_555 1_555
C67_3 O39_3 1_555 1_555
C68_3 O40_3 1_555 1_555
O22_2 C70_3 1_555 1_555
C70_3 O26_2 1_555 1_555
O24_2 C71_3 1_555 1_555
C71_3 O51_2 1_555 1_555
H43_3 O25_3 1_555 1_555
C72_3 O27_3 1_555 1_555
C73_3 H55_3 1_555 1_555
H44_3 C63_3 1_555 1_555
C74_3 C64_3 1_555 1_555
H45_3 C64_3 1_555 1_555
C75_3 C65_3 1_555 1_555
H46_3 C65_3 1_555 1_555
H47_3 C66_3 1_555 1_555
C76_3 C66_3 1_555 1_555
H48_3 C67_3 1_555 1_555
H49_3 C67_3 1_555 1_555
H50_3 C67_3 1_555 1_555
H51_3 C68_3 1_555 1_555
H52_3 C68_3 1_555 1_555
H53_3 C68_3 1_555 1_555
H54_3 C72_3 1_555 1_555
C77_3 C73_3 1_555 1_555
H56_3 C74_3 1_555 1_555
C78_3 C75_3 1_555 1_555
H57_3 C75_3 1_555 1_555
H58_3 C76_3 1_555 1_555
C79_3 C77_3 1_555 1_555
C80_3 C78_3 1_555 1_555
C81_3 C79_3 1_555 1_555
C82_3 C79_3 1_555 1_555
C83_3 C80_3 1_555 1_555
C84_3 C80_3 1_555 1_555
C85_3 C81_3 1_555 1_555
H59_3 C81_3 1_555 1_555
C86_3 C82_3 1_555 1_555
H60_3 C82_3 1_555 1_555
C87_3 C83_3 1_555 1_555
H61_3 C83_3 1_555 1_555
C88_3 C84_3 1_555 1_555
H62_3 C84_3 1_555 1_555
C89_3 C85_3 1_555 1_555
C90_3 C85_3 1_555 1_555
C91_3 C86_3 1_555 1_555
C92_3 C87_3 1_555 1_555
C93_3 C87_3 1_555 1_555
C94_3 C88_3 1_555 1_555
H63_3 C89_3 1_555 1_555
C95_3 C90_3 1_555 1_555
C96_3 C90_3 1_555 1_555
C97_3 C91_3 1_555 1_555
C98_3 C91_3 1_555 1_555
C99_3 C92_3 1_555 1_555
C100_3 C92_3 1_555 1_555
H64_3 C93_3 1_555 1_555
C101_3 C94_3 1_555 1_555
C102_3 C94_3 1_555 1_555
C103_3 C95_3 1_555 1_555
H65_3 C95_3 1_555 1_555
H66_3 C96_3 1_555 1_555
C104_3 C96_3 1_555 1_555
H67_3 C97_3 1_555 1_555
C105_3 C97_3 1_555 1_555
H68_3 C98_3 1_555 1_555
C106_3 C98_3 1_555 1_555
H69_3 C99_3 1_555 1_555
C107_3 C99_3 1_555 1_555
C108_3 C100_3 1_555 1_555
H70_3 C100_3 1_555 1_555
C109_3 C101_3 1_555 1_555
H71_3 C101_3 1_555 1_555
C110_3 C102_3 1_555 1_555
H72_3 C102_3 1_555 1_555
C111_3 C71_3 1_555 1_555
H73_3 C103_3 1_555 1_555
H74_3 C104_3 1_555 1_555
C112_3 C105_3 1_555 1_555
H75_3 C105_3 1_555 1_555
C113_3 C70_3 1_555 1_555
H77_3 C107_3 1_555 1_555
H78_3 C108_3 1_555 1_555
C114_3 C58_3 1_555 1_555
H79_3 C109_3 1_555 1_555
H80_3 C110_3 1_555 1_555
O33_3 Al9 1_555 1_555
Al7 O37_3 1_555 1_555
Al7 O39_3 1_555 1_555
Al7 O40_3 1_555 1_555
Al9 O38_3 1_555 1_555
O43_3 C72_3 1_555 1_555
C74_3 C77_3 1_555 1_555
C76_3 C78_3 1_555 1_555
C86_3 C89_3 1_555 1_555
C88_3 C93_3 1_555 1_555
C103_3 C111_3 1_555 1_555
C104_3 C111_3 1_555 1_555
C106_3 C112_3 1_555 1_555
C107_3 C113_3 1_555 1_555
C108_3 C113_3 1_555 1_555
C109_3 C114_3 1_555 1_555
C110_3 C114_3 1_555 1_555
Al1_3 O2_3 1_555 1_555
O1_3 C57_3 1_555 1_555
O2_3 C1_3 1_555 1_555
O3_3 Al1_3 1_555 1_555
O4_3 Al1_3 1_555 1_555
O5_3 Al1_3 1_555 1_555
C1_3 C3_3 1_555 1_555
C2_3 O3_3 1_555 1_555
Al2_3 O4_3 1_555 1_555
H1_3 O4_3 1_555 1_555
Al3_3 O5_3 1_555 1_555
H2_3 O5_3 1_555 1_555
C3_3 C5_3 1_555 1_555
O6_3 C1_3 1_555 1_555
C4_3 C2_3 1_555 1_555
O7_3 C2_3 1_555 1_555
O8_3 Al2_3 1_555 1_555
O9_3 Al2_3 1_555 1_555
O11_3 C56_3 1_555 1_555
O13_3 C54_3 1_555 1_555
O14_3 Al3_3 1_555 1_555
O15_3 Al3_3 1_555 1_555
C5_3 C12_3 1_555 1_555
C6_3 C3_3 1_555 1_555
C7_3 C4_3 1_555 1_555
C8_3 C4_3 1_555 1_555
C9_3 O8_3 1_555 1_555
Al11_2 O8_3 1_555 1_555
C10_3 O9_3 1_555 1_555
H3_3 O14_3 1_555 1_555
C11_3 O15_3 1_555 1_555
C12_3 H15_3 1_555 1_555
H4_3 C5_3 1_555 1_555
C13_3 C6_3 1_555 1_555
H5_3 C6_3 1_555 1_555
C14_3 C7_3 1_555 1_555
H6_3 C7_3 1_555 1_555
H7_3 C8_3 1_555 1_555
C15_3 C8_3 1_555 1_555
H8_3 C9_3 1_555 1_555
H9_3 C9_3 1_555 1_555
H10_3 C9_3 1_555 1_555
O16_3 C56_3 1_555 1_555
O17_3 C11_3 1_555 1_555
O18_3 C54_3 1_555 1_555
H11_3 C10_3 1_555 1_555
H12_3 C10_3 1_555 1_555
H13_3 C10_3 1_555 1_555
H14_3 C11_3 1_555 1_555
C16_3 C12_3 1_555 1_555
H16_3 C13_3 1_555 1_555
C17_3 C14_3 1_555 1_555
H17_3 C14_3 1_555 1_555
H18_3 C15_3 1_555 1_555
C18_3 C16_3 1_555 1_555
C19_3 C17_3 1_555 1_555
C20_3 C18_3 1_555 1_555
C21_3 C18_3 1_555 1_555
C22_3 C19_3 1_555 1_555
C23_3 C19_3 1_555 1_555
C24_3 C20_3 1_555 1_555
H19_3 C20_3 1_555 1_555
C25_3 C21_3 1_555 1_555
H20_3 C21_3 1_555 1_555
C26_3 C22_3 1_555 1_555
H21_3 C22_3 1_555 1_555
C27_3 C23_3 1_555 1_555
H22_3 C23_3 1_555 1_555
C28_3 C24_3 1_555 1_555
C29_3 C24_3 1_555 1_555
C30_3 C25_3 1_555 1_555
C31_3 C26_3 1_555 1_555
C32_3 C26_3 1_555 1_555
C33_3 C27_3 1_555 1_555
H23_3 C28_3 1_555 1_555
C34_3 C29_3 1_555 1_555
C35_3 C29_3 1_555 1_555
C36_3 C30_3 1_555 1_555
C37_3 C30_3 1_555 1_555
C38_3 C31_3 1_555 1_555
C39_3 C31_3 1_555 1_555
H24_3 C32_3 1_555 1_555
C40_3 C33_3 1_555 1_555
C41_3 C33_3 1_555 1_555
C42_3 C34_3 1_555 1_555
H25_3 C34_3 1_555 1_555
H26_3 C35_3 1_555 1_555
C43_3 C35_3 1_555 1_555
H27_3 C36_3 1_555 1_555
C44_3 C36_3 1_555 1_555
H28_3 C37_3 1_555 1_555
C45_3 C37_3 1_555 1_555
H29_3 C38_3 1_555 1_555
C46_3 C38_3 1_555 1_555
C47_3 C39_3 1_555 1_555
H30_3 C39_3 1_555 1_555
C48_3 C40_3 1_555 1_555
H31_3 C40_3 1_555 1_555
C49_3 C41_3 1_555 1_555
H32_3 C41_3 1_555 1_555
C50_3 C42_3 1_555 1_555
H33_3 C42_3 1_555 1_555
H34_3 C43_3 1_555 1_555
C51_3 C44_3 1_555 1_555
H35_3 C44_3 1_555 1_555
C52_3 C46_3 1_555 1_555
H37_3 C46_3 1_555 1_555
H38_3 C47_3 1_555 1_555
C53_3 C48_3 1_555 1_555
H39_3 C48_3 1_555 1_555
H40_3 C49_3 1_555 1_555
C54_3 C50_3 1_555 1_555
C56_3 C52_3 1_555 1_555
C57_3 C53_3 1_555 1_555
Al5 O1_3 1_555 1_555
O20_3 Al1_3 1_555 1_555
Al7_2 O11_3 1_555 1_555
Al9_2 O13_3 1_555 1_555
O21_3 Al2_3 1_555 1_555
O22_3 Al2_3 1_555 1_555
O23_3 Al3_3 1_555 1_555
O24_3 Al3_3 1_555 1_555
Al22 O18_3 1_555 1_555
Al23 O16_3 1_555 1_555
O26_3 Al11_2 1_555 1_555
O29_3 Al1_3 1_555 1_555
Al2_3 O6_3 1_555 1_555
Al3_3 O7_3 1_555 1_555
O9_3 Al11_2 1_555 1_555
C13_3 C16_3 1_555 1_555
C15_3 C17_3 1_555 1_555
C25_3 C28_3 1_555 1_555
C27_3 C32_3 1_555 1_555
C43_3 C50_3 1_555 1_555
C45_3 C51_3 1_555 1_555
C47_3 C52_3 1_555 1_555
C49_3 C53_3 1_555 1_555
O10_3 C55_3 1_555 1_555
Al7_2 O10_3 1_555 1_555
O21_2 C69_3 1_555 1_555
O2_4 C1_4 1_555 1_555
C1_4 C3_4 1_555 1_555
Al18 O4_4 1_555 1_555
H1_4 O4_4 1_555 1_555
C3_4 C5_4 1_555 1_555
O6_4 C1_4 1_555 1_555
O8_4 Al18 1_555 1_555
O9_4 Al18 1_555 1_555
O41 C55_4 1_555 1_555
C5_4 C12_4 1_555 1_555
C6_4 C3_4 1_555 1_555
C9_4 O8_4 1_555 1_555
Al22 O8_4 1_555 1_555
C10_4 O9_4 1_555 1_555
C13_4 C6_4 1_555 1_555
H5_4 C6_4 1_555 1_555
H8_4 C9_4 1_555 1_555
H9_4 C9_4 1_555 1_555
H10_4 C9_4 1_555 1_555
H12_4 C10_4 1_555 1_555
H13_4 C10_4 1_555 1_555
C16_4 C12_4 1_555 1_555
H16_4 C13_4 1_555 1_555
C18_4 C16_4 1_555 1_555
C21_4 C18_4 1_555 1_555
C25_4 C21_4 1_555 1_555
H20_4 C21_4 1_555 1_555
C30_4 C25_4 1_555 1_555
H23_4 C28_4 1_555 1_555
C36_4 C30_4 1_555 1_555
C37_4 C30_4 1_555 1_555
H27_4 C36_4 1_555 1_555
C44_4 C36_4 1_555 1_555
H28_4 C37_4 1_555 1_555
C45_4 C37_4 1_555 1_555
C51_4 C44_4 1_555 1_555
H35_4 C44_4 1_555 1_555
H36_4 C45_4 1_555 1_555
C55_4 C51_4 1_555 1_555
O35 C55_4 1_555 1_555
O25_4 Al22 1_555 1_555
O27_4 Al22 1_555 1_555
O20_3 C58_4 1_555 1_555
C58_4 O23_3 1_555 1_555
C60_4 O31_4 1_555 1_555
Al9_2 O25_4 1_555 1_555
C62_4 C60_4 1_555 1_555
O38_4 C60_4 1_555 1_555
O43_4 Al9_2 1_555 1_555
C65_4 C62_4 1_555 1_555
C66_4 C62_4 1_555 1_555
H43_4 O25_4 1_555 1_555
C72_4 O27_4 1_555 1_555
C75_4 C65_4 1_555 1_555
H46_4 C65_4 1_555 1_555
H47_4 C66_4 1_555 1_555
C76_4 C66_4 1_555 1_555
H54_4 C72_4 1_555 1_555
C78_4 C75_4 1_555 1_555
H57_4 C75_4 1_555 1_555
H58_4 C76_4 1_555 1_555
C80_4 C78_4 1_555 1_555
C83_4 C80_4 1_555 1_555
C84_4 C80_4 1_555 1_555
C88_4 C84_4 1_555 1_555
H62_4 C84_4 1_555 1_555
C94_4 C88_4 1_555 1_555
H64_4 C93_4 1_555 1_555
C101_4 C94_4 1_555 1_555
C102_4 C94_4 1_555 1_555
C109_4 C101_4 1_555 1_555
H71_4 C101_4 1_555 1_555
C110_4 C102_4 1_555 1_555
H72_4 C102_4 1_555 1_555
C114_4 C58_4 1_555 1_555
H79_4 C109_4 1_555 1_555
H80_4 C110_4 1_555 1_555
Al18 O6_4 1_555 1_555
O9_4 Al22 1_555 1_555
C13_4 C16_4 1_555 1_555
C25_4 C28_4 1_555 1_555
C45_4 C51_4 1_555 1_555
O33_4 Al9_2 1_555 1_555
Al9_2 O38_4 1_555 1_555
O43_4 C72_4 1_555 1_555
C76_4 C78_4 1_555 1_555
C88_4 C93_4 1_555 1_555
C109_4 C114_4 1_555 1_555
C110_4 C114_4 1_555 1_555
O45 C54_4 1_555 1_555
O28 C54_4 1_555 1_555
C24_4 C20_4 1_555 1_555
H19_4 C20_4 1_555 1_555
C29_4 C24_4 1_555 1_555
C34_4 C29_4 1_555 1_555
C35_4 C29_4 1_555 1_555
C42_4 C34_4 1_555 1_555
H25_4 C34_4 1_555 1_555
H26_4 C35_4 1_555 1_555
C43_4 C35_4 1_555 1_555
C50_4 C42_4 1_555 1_555
H33_4 C42_4 1_555 1_555
H34_4 C43_4 1_555 1_555
C54_4 C50_4 1_555 1_555
O24_3 C71_4 1_555 1_555
C71_4 O51_3 1_555 1_555
C85_4 C81_4 1_555 1_555
H59_4 C81_4 1_555 1_555
C90_4 C85_4 1_555 1_555
C95_4 C90_4 1_555 1_555
C96_4 C90_4 1_555 1_555
C103_4 C95_4 1_555 1_555
H65_4 C95_4 1_555 1_555
H66_4 C96_4 1_555 1_555
C104_4 C96_4 1_555 1_555
C111_4 C71_4 1_555 1_555
H73_4 C103_4 1_555 1_555
H74_4 C104_4 1_555 1_555
C43_4 C50_4 1_555 1_555
C103_4 C111_4 1_555 1_555
C104_4 C111_4 1_555 1_555
O42 C56_4 1_555 1_555
O50 C56_4 1_555 1_555
C31_4 C26_4 1_555 1_555
C38_4 C31_4 1_555 1_555
C39_4 C31_4 1_555 1_555
H29_4 C38_4 1_555 1_555
C46_4 C38_4 1_555 1_555
C47_4 C39_4 1_555 1_555
H30_4 C39_4 1_555 1_555
C52_4 C46_4 1_555 1_555
H37_4 C46_4 1_555 1_555
H38_4 C47_4 1_555 1_555
C56_4 C52_4 1_555 1_555
O22_3 C70_4 1_555 1_555
C70_4 O26_3 1_555 1_555
C92_4 C87_4 1_555 1_555
C99_4 C92_4 1_555 1_555
C100_4 C92_4 1_555 1_555
H69_4 C99_4 1_555 1_555
C107_4 C99_4 1_555 1_555
C108_4 C100_4 1_555 1_555
H70_4 C100_4 1_555 1_555
C113_4 C70_4 1_555 1_555
H77_4 C107_4 1_555 1_555
H78_4 C108_4 1_555 1_555
C47_4 C52_4 1_555 1_555
C107_4 C113_4 1_555 1_555
C108_4 C113_4 1_555 1_555
O34 C57_4 1_555 1_555
C2_4 O3_4 1_555 1_555
Al21 O5_4 1_555 1_555
C4_4 C2_4 1_555 1_555
O7_4 C2_4 1_555 1_555
O44 C57_4 1_555 1_555
O14_4 Al21 1_555 1_555
O15_4 Al21 1_555 1_555
C7_4 C4_4 1_555 1_555
C8_4 C4_4 1_555 1_555
H3_4 O14_4 1_555 1_555
C11_4 O15_4 1_555 1_555
C14_4 C7_4 1_555 1_555
H6_4 C7_4 1_555 1_555
H7_4 C8_4 1_555 1_555
C15_4 C8_4 1_555 1_555
O17_4 C11_4 1_555 1_555
H14_4 C11_4 1_555 1_555
C17_4 C14_4 1_555 1_555
H17_4 C14_4 1_555 1_555
H18_4 C15_4 1_555 1_555
C19_4 C17_4 1_555 1_555
C22_4 C19_4 1_555 1_555
C23_4 C19_4 1_555 1_555
C27_4 C23_4 1_555 1_555
H22_4 C23_4 1_555 1_555
C33_4 C27_4 1_555 1_555
H24_4 C32_4 1_555 1_555
C40_4 C33_4 1_555 1_555
C41_4 C33_4 1_555 1_555
C48_4 C40_4 1_555 1_555
H31_4 C40_4 1_555 1_555
C49_4 C41_4 1_555 1_555
H32_4 C41_4 1_555 1_555
C53_4 C48_4 1_555 1_555
H39_4 C48_4 1_555 1_555
H40_4 C49_4 1_555 1_555
C57_4 C53_4 1_555 1_555
Al23 O14_4 1_555 1_555
O30_4 C59_4 1_555 1_555
C59_4 C61_4 1_555 1_555
Al7_2 O32_4 1_555 1_555
H41_4 O32_4 1_555 1_555
C61_4 C63_4 1_555 1_555
O37_4 C59_4 1_555 1_555
O39_4 Al23 1_555 1_555
O40_4 Al23 1_555 1_555
C63_4 C73_4 1_555 1_555
C64_4 C61_4 1_555 1_555
C67_4 O39_4 1_555 1_555
C68_4 O40_4 1_555 1_555
O21_3 C69_4 1_555 1_555
C69_4 C112_4 1_555 1_555
C74_4 C64_4 1_555 1_555
H45_4 C64_4 1_555 1_555
H48_4 C67_4 1_555 1_555
H49_4 C67_4 1_555 1_555
H50_4 C67_4 1_555 1_555
H52_4 C68_4 1_555 1_555
H53_4 C68_4 1_555 1_555
C77_4 C73_4 1_555 1_555
H56_4 C74_4 1_555 1_555
C79_4 C77_4 1_555 1_555
C82_4 C79_4 1_555 1_555
C86_4 C82_4 1_555 1_555
H60_4 C82_4 1_555 1_555
C91_4 C86_4 1_555 1_555
H63_4 C89_4 1_555 1_555
C97_4 C91_4 1_555 1_555
C98_4 C91_4 1_555 1_555
H67_4 C97_4 1_555 1_555
C105_4 C97_4 1_555 1_555
H68_4 C98_4 1_555 1_555
C106_4 C98_4 1_555 1_555
C112_4 C105_4 1_555 1_555
H75_4 C105_4 1_555 1_555
H76_4 C106_4 1_555 1_555
O29_3 C69_4 1_555 1_555
Al21 O7_4 1_555 1_555
C15_4 C17_4 1_555 1_555
O17_4 Al23 1_555 1_555
C27_4 C32_4 1_555 1_555
C49_4 C53_4 1_555 1_555
Al7_2 O37_4 1_555 1_555
Al7_2 O39_4 1_555 1_555
Al7_2 O40_4 1_555 1_555
C74_4 C77_4 1_555 1_555
C86_4 C89_4 1_555 1_555
C106_4 C112_4 1_555 1_555

#END
