
###############################################################################
#
# This file contains modified crystal structure data generated from the
# MOF subset of the Cambridge Structural Database (CSD) v543 
# hosted by the Cambridge Crystallographic Data Centre (CCDC).
#
# This work is licensed under the Creative Commons
# Attribution-NonCommercial-ShareAlike 4.0 International License.
# To view a copy of this license, visit
# http://creativecommons.org/licenses/by-nc-sa/4.0/
# or send a letter to
# Creative Commons, PO Box 1866, Mountain View, CA 94042, USA.
#
# CIF created using the CSD Python API on 29 September 2022
# The structure has been converted into the P1 space group
# The structure has a 3D framework
# The original CSD entry OTEDOI is in the tetragonal crystal system
# The original CSD entry OTEDOI is in a Sohncke space group
# The framework has been calculated to contain at least 10.0% void space
# The void calculation uses a probe of radius 1.32A, grid spacing 0.4
#
###############################################################################

data_OTEDOI
_chemical_formula_moiety         '(C224 H144 Al20 O76)n'
_symmetry_cell_setting           triclinic
_symmetry_space_group_name_H-M   'P 1'
_symmetry_Int_Tables_number      1
_space_group_name_Hall           'P 1'
loop_
_symmetry_equiv_pos_site_id
_symmetry_equiv_pos_as_xyz
1 x,y,z
_cell_length_a                   18.5370(6)
_cell_length_b                   18.5370(6)
_cell_length_c                   37.4217(15)
_cell_angle_alpha                90
_cell_angle_beta                 90
_cell_angle_gamma                90
_cell_volume                     12858.9
loop_
_atom_site_label
_atom_site_type_symbol
_atom_site_fract_x
_atom_site_fract_y
_atom_site_fract_z
C3 C 0.00631(10) 0.15459(9) 0.38540(5)
H8 H 0.0441 0.2952 0.3881
O6 O 0.06888(7) 0.16001(6) 0.39770(3)
Al9 Al 0.13453(3) 0.09254(3) 0.42052(2)
Al13 Al 0.0000 0.0000 0.38628(2)
Al23 Al 0.0000 -0.0000 0.61372(2)
Al13_2 Al 0.0000 1.0000 0.38628(2)
Al23_2 Al 0.0000 1.0000 0.61372(2)
C61 C 0.15459(9) 0.00631(10) 0.61460(5)
O47 O 0.16001(6) 0.06888(7) 0.60230(3)
H44 H 0.2952 0.0441 0.6119
Al17 Al 0.09254(3) 0.13453(3) 0.57948(2)
Al1 Al 0.66488(3) 0.33512(3) 0.0000
Al2 Al 0.63453(3) 0.40746(3) 0.07948(2)
Al3 Al 0.5000 0.5000 0.11372(2)
O1 O 0.56895(6) 0.48125(6) 0.07939(3)
H1 H 0.5706 0.5133 0.0596
O2 O 0.60642(6) 0.37349(6) 0.03508(3)
H2 H 0.5564 0.3761 0.0298
O3 O 0.56749(8) 0.48049(7) 0.15096(3)
O4 O 0.66749(7) 0.43480(7) 0.12552(3)
C1 C 0.63107(11) 0.45833(9) 0.15193(5)
C2 C 0.79323(9) 0.77411(9) 0.43347(5)
C4 C 0.66828(12) 0.45891(10) 0.18728(5)
C5 C 0.78904(10) 0.70842(10) 0.41058(5)
C6 C 0.79410(14) 0.64078(11) 0.42556(6)
H3 H 0.7947 0.6356 0.4508
C7 C 0.63821(13) 0.49377(12) 0.21649(6)
H4 H 0.5931 0.5177 0.2141
C8 C 0.73893(14) 0.45932(11) 0.25328(6)
C9 C 0.79286(12) 0.65530(11) 0.35204(5)
H5 H 0.7922 0.6603 0.3268
C10 C 0.96989(12) 0.22096(10) 0.37161(6)
C11 C 0.78831(12) 0.71664(10) 0.37365(5)
H6 H 0.7848 0.7633 0.3633
C12 C 0.79824(17) 0.58040(12) 0.40407(6)
H7 H 0.8011 0.5338 0.4145
C13 C 0.99920(14) 0.28935(10) 0.37620(6)
C14 C 0.77130(15) 0.52092(12) 0.31048(6)
H9 H 0.7440 0.5613 0.3026
C15 C 0.73532(13) 0.42421(11) 0.19145(6)
H10 H 0.7570 0.4007 0.1716
C16 C 0.76944(14) 0.42410(12) 0.22379(6)
H11 H 0.8143 0.3999 0.2263
C17 C 0.80612(15) 0.52363(11) 0.34350(7)
C18 C 0.77606(16) 0.45973(12) 0.28897(6)
C19 C 0.89581(15) 0.33998(12) 0.34506(7)
C20 C 0.85383(16) 0.40438(12) 0.33276(7)
C21 C 0.90500(14) 0.21109(12) 0.35240(7)
H12 H 0.8870 0.1640 0.3478
C22 C 0.84768(16) 0.46391(12) 0.35456(7)
H13 H 0.8714 0.4648 0.3770
C23 C 0.67327(15) 0.49400(12) 0.24895(6)
H14 H 0.6521 0.5183 0.2687
C24 C 0.79823(14) 0.58794(11) 0.36696(6)
C25 C 0.81803(16) 0.40216(13) 0.30022(7)
H15 H 0.8223 0.3607 0.2855
C26 C 0.96264(16) 0.34854(12) 0.36342(7)
H16 H 0.9821 0.3955 0.3669
C27 C 0.86819(17) 0.27134(12) 0.34038(8)
H17 H 0.8231 0.2654 0.3287
O5 O 0.79544(6) 0.83453(6) 0.41747(3)
O7 O 0.97070(7) 0.09672(6) 0.38313(4)
O8 O 0.79647(7) 0.76635(7) 0.46725(3)
O9 O 0.70698(7) 0.46956(7) 0.05971(4)
C28 C 0.74618(11) 0.45558(12) 0.03223(6)
H18 H 0.7850 0.4879 0.0278
O10 O 0.73940(7) 0.40458(7) 0.01061(4)
Al4 Al 0.36547(3) 0.59254(3) 0.07948(2)
O11 O 0.43105(6) 0.51875(6) 0.07939(3)
H19 H 0.4294 0.4867 0.0596
O12 O 0.39358(6) 0.62651(6) 0.03508(3)
H20 H 0.4436 0.6239 0.0298
O13 O 0.43251(8) 0.51951(7) 0.15096(3)
O14 O 0.33251(7) 0.56520(7) 0.12552(3)
C29 C 0.36893(11) 0.54167(9) 0.15193(5)
C30 C 0.20677(9) 0.22589(9) 0.43347(5)
C32 C 0.33172(12) 0.54109(10) 0.18728(5)
C33 C 0.21096(10) 0.29158(10) 0.41058(5)
C34 C 0.20590(14) 0.35922(11) 0.42556(6)
H21 H 0.2053 0.3644 0.4508
C35 C 0.36179(13) 0.50623(12) 0.21649(6)
H22 H 0.4069 0.4823 0.2141
C36 C 0.26107(14) 0.54068(11) 0.25328(6)
C37 C 0.20714(12) 0.34470(11) 0.35204(5)
H23 H 0.2078 0.3397 0.3268
C38 C 0.03011(12) 0.77904(10) 0.37161(6)
C39 C 0.21169(12) 0.28336(10) 0.37365(5)
H24 H 0.2152 0.2367 0.3633
C40 C 0.20176(17) 0.41960(12) 0.40407(6)
H25 H 0.1989 0.4662 0.4145
C41 C 0.00080(14) 0.71065(10) 0.37620(6)
C42 C 0.22870(15) 0.47908(12) 0.31048(6)
H27 H 0.2560 0.4387 0.3026
C43 C 0.26468(13) 0.57579(11) 0.19145(6)
H28 H 0.2430 0.5993 0.1716
C44 C 0.23056(14) 0.57590(12) 0.22379(6)
H29 H 0.1857 0.6001 0.2263
C45 C 0.19388(15) 0.47637(11) 0.34350(7)
C46 C 0.22394(16) 0.54027(12) 0.28897(6)
C47 C 0.10419(15) 0.66002(12) 0.34506(7)
C48 C 0.14617(16) 0.59562(12) 0.33276(7)
C49 C 0.09500(14) 0.78891(12) 0.35240(7)
H30 H 0.1130 0.8360 0.3478
C50 C 0.15232(16) 0.53609(12) 0.35456(7)
H31 H 0.1286 0.5352 0.3770
C51 C 0.32673(15) 0.50600(12) 0.24895(6)
H32 H 0.3479 0.4817 0.2687
C52 C 0.20177(14) 0.41206(11) 0.36696(6)
C53 C 0.18197(16) 0.59784(13) 0.30022(7)
H33 H 0.1777 0.6393 0.2855
C54 C 0.03736(16) 0.65146(12) 0.36342(7)
H34 H 0.0179 0.6045 0.3669
C55 C 0.13181(17) 0.72866(12) 0.34038(8)
H35 H 0.1769 0.7346 0.3287
O15 O 0.20456(6) 0.16547(6) 0.41747(3)
O17 O 0.02930(7) 0.90328(6) 0.38313(4)
O18 O 0.20353(7) 0.23365(7) 0.46725(3)
O19 O 0.29302(7) 0.53044(7) 0.05971(4)
C56 C 0.25382(11) 0.54442(12) 0.03223(6)
H36 H 0.2150 0.5121 0.0278
O20 O 0.26060(7) 0.59542(7) 0.01061(4)
Al5 Al 0.16488(3) 0.16488(3) 0.5000
Al6 Al 0.33512(3) 0.66488(3) 0.0000
Al7 Al 0.83512(3) 0.83512(3) 0.5000
Al11 Al 0.86547(3) 0.90746(3) 0.42052(2)
Al13_3 Al 1.0000 0.0000 0.38628(2)
O22 O 0.29544(6) 0.66547(6) 0.08253(3)
O23 O 0.70456(6) 0.33453(6) 0.08253(3)
O24 O 0.56888(7) 0.33999(6) 0.10230(3)
O25 O 0.43112(7) 0.66001(6) 0.10230(3)
O26 O 0.47070(7) 0.40328(6) 0.11687(4)
O27 O 0.52930(7) 0.59672(6) 0.11687(4)
O29 O 0.70353(7) 0.26635(7) 0.03275(3)
O33 O 0.29647(7) 0.73365(7) 0.03275(3)
Al1_2 Al 0.66488(3) 0.33512(3) 1.0000
Al6_2 Al 0.33512(3) 0.66488(3) 1.0000
O21 O 0.62651(6) 0.39358(6) 0.96492(3)
O28 O 0.73365(7) 0.29647(7) 0.96725(3)
O30 O 0.59542(7) 0.26060(7) 0.98939(4)
O31 O 0.37349(6) 0.60642(6) 0.96492(3)
O32 O 0.26635(7) 0.70353(7) 0.96725(3)
O34 O 0.40458(7) 0.73940(7) 0.98939(4)
Al14 Al 0.40746(3) 0.63453(3) 0.92052(2)
O35 O 0.48125(6) 0.56895(6) 0.92061(3)
O36 O 0.43480(7) 0.66749(7) 0.87448(3)
O37 O 0.46956(7) 0.70698(7) 0.94029(4)
O38 O 0.33453(6) 0.70456(6) 0.91747(3)
O39 O 0.33999(6) 0.56888(7) 0.89770(3)
Al15 Al 0.5000 0.5000 0.88628(2)
O40 O 0.48049(7) 0.56749(8) 0.84904(3)
O41 O 0.51875(6) 0.43105(6) 0.92061(3)
O42 O 0.51951(7) 0.43251(8) 0.84904(3)
O43 O 0.40328(6) 0.47070(7) 0.88313(4)
O44 O 0.59672(6) 0.52930(7) 0.88313(4)
H37 H 0.5133 0.5706 0.9404
H38 H 0.3761 0.5564 0.9702
C57 C 0.45833(9) 0.63107(11) 0.84807(5)
C58 C 0.45891(10) 0.66828(12) 0.81272(5)
C59 C 0.77411(9) 0.79323(9) 0.56653(5)
C60 C 0.70842(10) 0.78904(10) 0.58942(5)
O45 O 0.83453(6) 0.79544(6) 0.58253(3)
O46 O 0.76635(7) 0.79647(7) 0.53275(3)
C62 C 0.22096(10) 0.96989(12) 0.62839(6)
O48 O 0.09672(6) 0.97070(7) 0.61687(4)
C63 C 0.49377(12) 0.63821(13) 0.78351(6)
C64 C 0.42421(11) 0.73532(13) 0.80855(6)
C65 C 0.64078(11) 0.79410(14) 0.57444(6)
C66 C 0.71664(10) 0.78831(12) 0.62635(5)
H39 H 0.6356 0.7947 0.5492
C67 C 0.58040(12) 0.79824(17) 0.59593(6)
H40 H 0.5177 0.5931 0.7859
C68 C 0.49400(12) 0.67327(15) 0.75105(6)
C69 C 0.45932(11) 0.73893(14) 0.74672(6)
C70 C 0.42410(12) 0.76944(14) 0.77621(6)
C71 C 0.45973(12) 0.77606(16) 0.71103(6)
C72 C 0.65530(11) 0.79286(12) 0.64796(5)
H41 H 0.6603 0.7922 0.6732
C73 C 0.58794(11) 0.79823(14) 0.63304(6)
C74 C 0.28935(10) 0.99920(14) 0.62380(6)
C75 C 0.21109(12) 0.90500(14) 0.64760(7)
H42 H 0.7633 0.7848 0.6367
H43 H 0.5338 0.8011 0.5855
C76 C 0.34854(12) 0.96264(16) 0.63658(7)
C77 C 0.52092(12) 0.77130(15) 0.68952(6)
H45 H 0.5613 0.7440 0.6974
C78 C 0.52363(11) 0.80612(15) 0.65650(7)
H46 H 0.4007 0.7570 0.8284
H47 H 0.3999 0.8143 0.7737
C79 C 0.46391(12) 0.84768(16) 0.64544(7)
C80 C 0.40216(13) 0.81803(16) 0.69978(7)
C81 C 0.33998(12) 0.89581(15) 0.65494(7)
C82 C 0.40438(12) 0.85383(16) 0.66724(7)
C83 C 0.27134(12) 0.86819(17) 0.65962(8)
H48 H 0.1640 0.8870 0.6522
H49 H 0.4648 0.8714 0.6230
H50 H 0.5183 0.6521 0.7313
H51 H 0.3607 0.8223 0.7145
H52 H 0.3955 0.9821 0.6331
H53 H 0.2654 0.8231 0.6713
Al16 Al 0.90746(3) 0.86547(3) 0.57948(2)
C84 C 0.45558(12) 0.74618(11) 0.96777(6)
H54 H 0.4879 0.7850 0.9722
Al20 Al 0.59254(3) 0.36547(3) 0.92052(2)
O49 O 0.56520(7) 0.33251(7) 0.87448(3)
O50 O 0.53044(7) 0.29302(7) 0.94029(4)
O51 O 0.66547(6) 0.29544(6) 0.91747(3)
O52 O 0.66001(6) 0.43112(7) 0.89770(3)
H55 H 0.4867 0.4294 0.9404
H56 H 0.6239 0.4436 0.9702
C85 C 0.54167(9) 0.36893(11) 0.84807(5)
C86 C 0.54109(10) 0.33172(12) 0.81272(5)
C87 C 0.22589(9) 0.20677(9) 0.56653(5)
C88 C 0.29158(10) 0.21096(10) 0.58942(5)
O53 O 0.16547(6) 0.20456(6) 0.58253(3)
O54 O 0.23365(7) 0.20353(7) 0.53275(3)
C90 C 0.77904(10) 0.03011(12) 0.62839(6)
O56 O 0.90328(6) 0.02930(7) 0.61687(4)
C91 C 0.50623(12) 0.36179(13) 0.78351(6)
C92 C 0.57579(11) 0.26468(13) 0.80855(6)
C93 C 0.35922(11) 0.20590(14) 0.57444(6)
C94 C 0.28336(10) 0.21169(12) 0.62635(5)
H57 H 0.3644 0.2053 0.5492
C95 C 0.41960(12) 0.20176(17) 0.59593(6)
H58 H 0.4823 0.4069 0.7859
C96 C 0.50600(12) 0.32673(15) 0.75105(6)
C97 C 0.54068(11) 0.26107(14) 0.74672(6)
C98 C 0.57590(12) 0.23056(14) 0.77621(6)
C99 C 0.54027(12) 0.22394(16) 0.71103(6)
C100 C 0.34470(11) 0.20714(12) 0.64796(5)
H59 H 0.3397 0.2078 0.6732
C101 C 0.41206(11) 0.20177(14) 0.63304(6)
C102 C 0.71065(10) 0.00080(14) 0.62380(6)
C103 C 0.78891(12) 0.09500(14) 0.64760(7)
H60 H 0.2367 0.2152 0.6367
H61 H 0.4662 0.1989 0.5855
C104 C 0.65146(12) 0.03736(16) 0.63658(7)
C105 C 0.47908(12) 0.22870(15) 0.68952(6)
H63 H 0.4387 0.2560 0.6974
C106 C 0.47637(11) 0.19388(15) 0.65650(7)
H64 H 0.5993 0.2430 0.8284
H65 H 0.6001 0.1857 0.7737
C107 C 0.53609(12) 0.15232(16) 0.64544(7)
C108 C 0.59784(13) 0.18197(16) 0.69978(7)
C109 C 0.66002(12) 0.10419(15) 0.65494(7)
C110 C 0.59562(12) 0.14617(16) 0.66724(7)
C111 C 0.72866(12) 0.13181(17) 0.65962(8)
H66 H 0.8360 0.1130 0.6522
H67 H 0.5352 0.1286 0.6230
H68 H 0.4817 0.3479 0.7313
H69 H 0.6393 0.1777 0.7145
H70 H 0.6045 0.0179 0.6331
H71 H 0.7346 0.1769 0.6713
Al23_3 Al 1.0000 -0.0000 0.61372(2)
C112 C 0.54442(12) 0.25382(11) 0.96777(6)
H72 H 0.5121 0.2150 0.9722
Al13_4 Al 1.0000 1.0000 0.38628(2)
C89 C 0.84541(9) 0.99369(10) 0.61460(5)
O55 O 0.83999(6) 0.93112(7) 0.60230(3)
H62 H 0.7048 0.9559 0.6119
Al23_4 Al 1.0000 1.0000 0.61372(2)
C31 C 0.99369(10) 0.84541(9) 0.38540(5)
H26 H 0.9559 0.7048 0.3881
O16 O 0.93112(7) 0.83999(6) 0.39770(3)
O1_2 O 0.01875(6) 0.06895(6) 0.57939(3)
O2_2 O 0.12651(6) 0.10642(6) 0.53508(3)
H2_2 H 0.1239 0.0564 0.5298
O3_2 O 0.01951(7) 0.06749(8) 0.65096(3)
O4_2 O 0.06520(7) 0.16749(7) 0.62552(3)
C1_2 C 0.04167(9) 0.13107(11) 0.65193(5)
C3_2 C 0.34541(9) 0.50631(10) 0.88540(5)
C4_2 C 0.04109(10) 0.16828(12) 0.68728(5)
C7_2 C 0.00623(12) 0.13821(13) 0.71649(6)
C8_2 C 0.04068(11) 0.23893(14) 0.75328(6)
C10_2 C 0.27904(10) 0.46989(12) 0.87161(6)
C13_2 C 0.21065(10) 0.49920(14) 0.87620(6)
H8_2 H 0.2048 0.5441 0.8881
C15_2 C 0.07579(11) 0.23532(13) 0.69145(6)
H10_2 H 0.0993 0.2570 0.6716
C16_2 C 0.07590(12) 0.26944(14) 0.72379(6)
H11_2 H 0.1001 0.3143 0.7263
C18_2 C 0.04027(12) 0.27606(16) 0.78897(6)
C19_2 C 0.16002(12) 0.39581(15) 0.84506(7)
C20_2 C 0.09562(12) 0.35383(16) 0.83276(7)
C21_2 C 0.28891(12) 0.40500(14) 0.85240(7)
H12_2 H 0.3360 0.3870 0.8478
C22_2 C 0.03609(12) 0.34768(16) 0.85456(7)
H13_2 H 0.0352 0.3714 0.8770
C23_2 C 0.00600(12) 0.17327(15) 0.74895(6)
C25_2 C 0.09784(13) 0.31803(16) 0.80022(7)
H15_2 H 0.1393 0.3223 0.7855
C26_2 C 0.15146(12) 0.46264(16) 0.86342(7)
H16_2 H 0.1045 0.4821 0.8669
C27_2 C 0.22866(12) 0.36819(17) 0.84038(8)
H17_2 H 0.2346 0.3231 0.8287
O9_2 O 0.03044(7) 0.20698(7) 0.55971(4)
C28_2 C 0.04442(12) 0.24618(11) 0.53223(6)
H18_2 H 0.0121 0.2850 0.5278
O10_2 O 0.09542(7) 0.23940(7) 0.51061(4)
O21_2 O 0.10642(6) 0.12651(6) 0.46492(3)
O30_2 O 0.23940(7) 0.09542(7) 0.48939(4)
O41_2 O 0.06895(6) 0.01875(6) 0.42061(3)
O42_2 O 0.06749(8) 0.01951(7) 0.34904(3)
O49_2 O 0.16749(7) 0.06520(7) 0.37448(3)
O50_2 O 0.20698(7) 0.03044(7) 0.44029(4)
H56_2 H 0.0564 0.1239 0.4702
C85_2 C 0.13107(11) 0.04167(9) 0.34807(5)
C86_2 C 0.16828(12) 0.04109(10) 0.31272(5)
C89_2 C 0.50631(10) 0.34541(9) 0.11460(5)
C90_2 C 0.46989(12) 0.27904(10) 0.12839(6)
C91_2 C 0.13821(13) 0.00623(12) 0.28351(6)
C92_2 C 0.23532(13) 0.07579(11) 0.30855(6)
C96_2 C 0.17327(15) 0.00600(12) 0.25105(6)
C97_2 C 0.23893(14) 0.04068(11) 0.24672(6)
C98_2 C 0.26944(14) 0.07590(12) 0.27621(6)
C99_2 C 0.27606(16) 0.04027(12) 0.21103(6)
C102_2 C 0.49920(14) 0.21065(10) 0.12380(6)
C103_2 C 0.40500(14) 0.28891(12) 0.14760(7)
H62_2 H 0.5441 0.2048 0.1119
C104_2 C 0.46264(16) 0.15146(12) 0.13658(7)
H64_2 H 0.2570 0.0993 0.3284
H65_2 H 0.3143 0.1001 0.2737
C107_2 C 0.34768(16) 0.03609(12) 0.14544(7)
C108_2 C 0.31803(16) 0.09784(13) 0.19978(7)
C109_2 C 0.39581(15) 0.16002(12) 0.15494(7)
C110_2 C 0.35383(16) 0.09562(12) 0.16724(7)
C111_2 C 0.36819(17) 0.22866(12) 0.15962(8)
H66_2 H 0.3870 0.3360 0.1522
H67_2 H 0.3714 0.0352 0.1230
H69_2 H 0.3223 0.1393 0.2145
H70_2 H 0.4821 0.1045 0.1331
H71_2 H 0.3231 0.2346 0.1713
C112_2 C 0.24618(11) 0.04442(12) 0.46777(6)
H72_2 H 0.2850 0.0121 0.4722
H19_2 H 0.0133 0.9294 0.5596
C30_2 C 0.27411(9) 0.70677(9) 0.93347(5)
C33_2 C 0.20842(10) 0.71096(10) 0.91058(5)
C34_2 C 0.14078(11) 0.70590(14) 0.92556(6)
H21_2 H 0.1356 0.7053 0.9508
H22_2 H 0.0177 0.9069 0.7141
C37_2 C 0.15530(11) 0.70714(12) 0.85204(5)
H23_2 H 0.1603 0.7078 0.8268
C39_2 C 0.21664(10) 0.71169(12) 0.87365(5)
H24_2 H 0.2633 0.7152 0.8633
C40_2 C 0.08040(12) 0.70176(17) 0.90407(6)
H25_2 H 0.0338 0.6989 0.9145
C42_2 C 0.02092(12) 0.72870(15) 0.81048(6)
H27_2 H 0.0613 0.7560 0.8026
C45_2 C 0.02363(11) 0.69388(15) 0.84350(7)
H32_2 H 0.0183 0.8479 0.7687
C52_2 C 0.08794(11) 0.70177(14) 0.86696(6)
H55_2 H 0.0706 0.9867 0.4404
C87_2 C 0.29323(9) 0.72589(9) 0.06653(5)
C88_2 C 0.28904(10) 0.79158(10) 0.08942(5)
C93_2 C 0.29410(14) 0.85922(11) 0.07444(6)
C94_2 C 0.28831(12) 0.78336(10) 0.12635(5)
H57_2 H 0.2947 0.8644 0.0492
C95_2 C 0.29824(17) 0.91960(12) 0.09593(6)
H58_2 H 0.0931 0.9823 0.2859
C100_2 C 0.29286(12) 0.84470(11) 0.14796(5)
H59_2 H 0.2922 0.8397 0.1732
C101_2 C 0.29823(14) 0.91206(11) 0.13304(6)
H60_2 H 0.2848 0.7367 0.1367
H61_2 H 0.3011 0.9662 0.0855
C105_2 C 0.27130(15) 0.97908(12) 0.18952(6)
H63_2 H 0.2440 0.9387 0.1974
C106_2 C 0.30612(15) 0.97637(11) 0.15650(7)
H68_2 H 0.1521 0.9817 0.2313
H1_2 H 0.9867 0.0706 0.5596
C2_2 C 0.72589(9) 0.29323(9) 0.93347(5)
C5_2 C 0.79158(10) 0.28904(10) 0.91058(5)
C6_2 C 0.85922(11) 0.29410(14) 0.92556(6)
H3_2 H 0.8644 0.2947 0.9508
H4_2 H 0.9823 0.0931 0.7141
C9_2 C 0.84470(11) 0.29286(12) 0.85204(5)
H5_2 H 0.8397 0.2922 0.8268
C11_2 C 0.78336(10) 0.28831(12) 0.87365(5)
H6_2 H 0.7367 0.2848 0.8633
C12_2 C 0.91960(12) 0.29824(17) 0.90407(6)
H7_2 H 0.9662 0.3011 0.9145
C14_2 C 0.97908(12) 0.27130(15) 0.81048(6)
H9_2 H 0.9387 0.2440 0.8026
C17_2 C 0.97637(11) 0.30612(15) 0.84350(7)
H14_2 H 0.9817 0.1521 0.7687
C24_2 C 0.91206(11) 0.29823(14) 0.86696(6)
H37_2 H 0.9294 0.0133 0.4404
C59_2 C 0.70677(9) 0.27411(9) 0.06653(5)
C60_2 C 0.71096(10) 0.20842(10) 0.08942(5)
C65_2 C 0.70590(14) 0.14078(11) 0.07444(6)
C66_2 C 0.71169(12) 0.21664(10) 0.12635(5)
H39_2 H 0.7053 0.1356 0.0492
C67_2 C 0.70176(17) 0.08040(12) 0.09593(6)
H40_2 H 0.9069 0.0177 0.2859
C72_2 C 0.70714(12) 0.15530(11) 0.14796(5)
H41_2 H 0.7078 0.1603 0.1732
C73_2 C 0.70177(14) 0.08794(11) 0.13304(6)
H42_2 H 0.7152 0.2633 0.1367
H43_2 H 0.6989 0.0338 0.0855
C77_2 C 0.72870(15) 0.02092(12) 0.18952(6)
H45_2 H 0.7560 0.0613 0.1974
C78_2 C 0.69388(15) 0.02363(11) 0.15650(7)
H50_2 H 0.8479 0.0183 0.2313
O11_2 O 0.98125(6) 0.93105(6) 0.57939(3)
O12_2 O 0.87349(6) 0.89358(6) 0.53508(3)
H20_2 H 0.8761 0.9436 0.5298
O13_2 O 0.98049(7) 0.93251(8) 0.65096(3)
O14_2 O 0.93480(7) 0.83251(7) 0.62552(3)
C29_2 C 0.95833(9) 0.86893(11) 0.65193(5)
C31_2 C 0.65459(9) 0.49369(10) 0.88540(5)
C32_2 C 0.95891(10) 0.83172(12) 0.68728(5)
C35_2 C 0.99377(12) 0.86179(13) 0.71649(6)
C36_2 C 0.95932(11) 0.76107(14) 0.75328(6)
C38_2 C 0.72096(10) 0.53011(12) 0.87161(6)
C41_2 C 0.78935(10) 0.50080(14) 0.87620(6)
H26_2 H 0.7952 0.4559 0.8881
C43_2 C 0.92421(11) 0.76468(13) 0.69145(6)
H28_2 H 0.9007 0.7430 0.6716
C44_2 C 0.92410(12) 0.73056(14) 0.72379(6)
H29_2 H 0.8999 0.6857 0.7263
C46_2 C 0.95973(12) 0.72394(16) 0.78897(6)
C47_2 C 0.83998(12) 0.60419(15) 0.84506(7)
C48_2 C 0.90438(12) 0.64617(16) 0.83276(7)
C49_2 C 0.71109(12) 0.59500(14) 0.85240(7)
H30_2 H 0.6640 0.6130 0.8478
C50_2 C 0.96391(12) 0.65232(16) 0.85456(7)
H31_2 H 0.9648 0.6286 0.8770
C51_2 C 0.99400(12) 0.82673(15) 0.74895(6)
C53_2 C 0.90216(13) 0.68197(16) 0.80022(7)
H33_2 H 0.8607 0.6777 0.7855
C54_2 C 0.84854(12) 0.53736(16) 0.86342(7)
H34_2 H 0.8955 0.5179 0.8669
C55_2 C 0.77134(12) 0.63181(17) 0.84038(8)
H35_2 H 0.7654 0.6769 0.8287
O19_2 O 0.96956(7) 0.79302(7) 0.55971(4)
C56_2 C 0.95558(12) 0.75382(11) 0.53223(6)
H36_2 H 0.9879 0.7150 0.5278
O20_2 O 0.90458(7) 0.76060(7) 0.51061(4)
O31_2 O 0.89358(6) 0.87349(6) 0.46492(3)
O34_2 O 0.76060(7) 0.90458(7) 0.48939(4)
O35_2 O 0.93105(6) 0.98125(6) 0.42061(3)
O36_2 O 0.83251(7) 0.93480(7) 0.37448(3)
O37_2 O 0.79302(7) 0.96956(7) 0.44029(4)
O40_2 O 0.93251(8) 0.98049(7) 0.34904(3)
H38_2 H 0.9436 0.8761 0.4702
C57_2 C 0.86893(11) 0.95833(9) 0.34807(5)
C58_2 C 0.83172(12) 0.95891(10) 0.31272(5)
C61_2 C 0.49369(10) 0.65459(9) 0.11460(5)
C62_2 C 0.53011(12) 0.72096(10) 0.12839(6)
C63_2 C 0.86179(13) 0.99377(12) 0.28351(6)
C64_2 C 0.76468(13) 0.92421(11) 0.30855(6)
C68_2 C 0.82673(15) 0.99400(12) 0.25105(6)
C69_2 C 0.76107(14) 0.95932(11) 0.24672(6)
C70_2 C 0.73056(14) 0.92410(12) 0.27621(6)
C71_2 C 0.72394(16) 0.95973(12) 0.21103(6)
C74_2 C 0.50080(14) 0.78935(10) 0.12380(6)
C75_2 C 0.59500(14) 0.71109(12) 0.14760(7)
H44_2 H 0.4559 0.7952 0.1119
C76_2 C 0.53736(16) 0.84854(12) 0.13658(7)
H46_2 H 0.7430 0.9007 0.3284
H47_2 H 0.6857 0.8999 0.2737
C79_2 C 0.65232(16) 0.96391(12) 0.14544(7)
C80_2 C 0.68197(16) 0.90216(13) 0.19978(7)
C81_2 C 0.60419(15) 0.83998(12) 0.15494(7)
C82_2 C 0.64617(16) 0.90438(12) 0.16724(7)
C83_2 C 0.63181(17) 0.77134(12) 0.15962(8)
H48_2 H 0.6130 0.6640 0.1522
H49_2 H 0.6286 0.9648 0.1230
H51_2 H 0.6777 0.8607 0.2145
H52_2 H 0.5179 0.8955 0.1331
H53_2 H 0.6769 0.7654 0.1713
C84_2 C 0.75382(11) 0.95558(12) 0.46777(6)
H54_2 H 0.7150 0.9879 0.4722
loop_
_geom_bond_atom_site_label_1
_geom_bond_atom_site_label_2
_geom_bond_site_symmetry_1
_geom_bond_site_symmetry_2
O6 C3 1_555 1_555
Al9 O6 1_555 1_555
O47 C61 1_555 1_555
Al17 O47 1_555 1_555
Al1 O2 1_555 1_555
Al2 O1 1_555 1_555
Al3 O1 1_555 1_555
O1 H1 1_555 1_555
O2 Al2 1_555 1_555
H2 O2 1_555 1_555
O3 Al3 1_555 1_555
O4 Al2 1_555 1_555
C1 O3 1_555 1_555
C2 C5 1_555 1_555
C4 C1 1_555 1_555
C5 C6 1_555 1_555
C6 H3 1_555 1_555
C7 C4 1_555 1_555
H4 C7 1_555 1_555
C8 C16 1_555 1_555
C9 H5 1_555 1_555
C10 C13 1_555 1_555
C11 C5 1_555 1_555
H6 C11 1_555 1_555
C12 C6 1_555 1_555
H7 C12 1_555 1_555
C14 H9 1_555 1_555
C15 C4 1_555 1_555
H10 C15 1_555 1_555
C16 C15 1_555 1_555
H11 C16 1_555 1_555
C17 C14 1_555 1_555
C18 C8 1_555 1_555
C19 C20 1_555 1_555
C20 C22 1_555 1_555
C21 C10 1_555 1_555
H12 C21 1_555 1_555
C22 C17 1_555 1_555
H13 C22 1_555 1_555
C23 C7 1_555 1_555
H14 C23 1_555 1_555
C24 C9 1_555 1_555
C25 C18 1_555 1_555
H15 C25 1_555 1_555
C26 C13 1_555 1_555
H16 C26 1_555 1_555
C27 C19 1_555 1_555
H17 C27 1_555 1_555
O5 C2 1_555 1_555
O8 C2 1_555 1_555
O9 Al2 1_555 1_555
C28 O9 1_555 1_555
H18 C28 1_555 1_555
O10 Al1 1_555 1_555
Al4 O11 1_555 1_555
O11 Al3 1_555 1_555
H19 O11 1_555 1_555
O12 Al4 1_555 1_555
H20 O12 1_555 1_555
O13 Al3 1_555 1_555
O14 Al4 1_555 1_555
C29 O13 1_555 1_555
C30 C33 1_555 1_555
C32 C29 1_555 1_555
C33 C34 1_555 1_555
C34 H21 1_555 1_555
C35 C32 1_555 1_555
H22 C35 1_555 1_555
C36 C44 1_555 1_555
C37 H23 1_555 1_555
C38 C41 1_555 1_555
C39 C33 1_555 1_555
H24 C39 1_555 1_555
C40 C34 1_555 1_555
H25 C40 1_555 1_555
C42 H27 1_555 1_555
C43 C32 1_555 1_555
H28 C43 1_555 1_555
C44 C43 1_555 1_555
H29 C44 1_555 1_555
C45 C42 1_555 1_555
C46 C36 1_555 1_555
C47 C48 1_555 1_555
C48 C50 1_555 1_555
C49 C38 1_555 1_555
H30 C49 1_555 1_555
C50 C45 1_555 1_555
H31 C50 1_555 1_555
C51 C35 1_555 1_555
H32 C51 1_555 1_555
C52 C37 1_555 1_555
C53 C46 1_555 1_555
H33 C53 1_555 1_555
C54 C41 1_555 1_555
H34 C54 1_555 1_555
C55 C47 1_555 1_555
H35 C55 1_555 1_555
O15 C30 1_555 1_555
O18 C30 1_555 1_555
O19 Al4 1_555 1_555
C56 O19 1_555 1_555
H36 C56 1_555 1_555
O20 C56 1_555 1_555
Al5 O18 1_555 1_555
Al6 O12 1_555 1_555
Al7 O8 1_555 1_555
Al9 O15 1_555 1_555
Al11 O5 1_555 1_555
Al13_2 O17 1_555 1_555
Al13_3 O7 1_555 1_555
O22 Al4 1_555 1_555
O23 Al2 1_555 1_555
O24 Al2 1_555 1_555
O25 Al4 1_555 1_555
O26 Al3 1_555 1_555
O27 Al3 1_555 1_555
O29 Al1 1_555 1_555
O33 Al6 1_555 1_555
O4 C1 1_555 1_555
C8 C23 1_555 1_555
C9 C11 1_555 1_555
C12 C24 1_555 1_555
C14 C18 1_555 1_555
C17 C24 1_555 1_555
C19 C26 1_555 1_555
C20 C25 1_555 1_555
C21 C27 1_555 1_555
C28 O10 1_555 1_555
O14 C29 1_555 1_555
C36 C51 1_555 1_555
C37 C39 1_555 1_555
C40 C52 1_555 1_555
C42 C46 1_555 1_555
C45 C52 1_555 1_555
C47 C54 1_555 1_555
C48 C53 1_555 1_555
C49 C55 1_555 1_555
O20 Al6 1_555 1_555
O21 Al1_2 1_555 1_555
O28 Al1_2 1_555 1_555
O30 Al1_2 1_555 1_555
O31 Al6_2 1_555 1_555
O32 Al6_2 1_555 1_555
O34 Al6_2 1_555 1_555
Al14 O31 1_555 1_555
O35 Al14 1_555 1_555
O36 Al14 1_555 1_555
O37 Al14 1_555 1_555
O38 Al14 1_555 1_555
O39 Al14 1_555 1_555
Al15 O35 1_555 1_555
O40 Al15 1_555 1_555
O41 Al15 1_555 1_555
O42 Al15 1_555 1_555
O43 Al15 1_555 1_555
O44 Al15 1_555 1_555
H37 O35 1_555 1_555
H38 O31 1_555 1_555
C57 O36 1_555 1_555
C58 C57 1_555 1_555
C59 C60 1_555 1_555
C60 C65 1_555 1_555
O45 C59 1_555 1_555
O46 C59 1_555 1_555
C62 C74 1_555 1_555
C63 C58 1_555 1_555
C64 C58 1_555 1_555
C65 H39 1_555 1_555
C66 C60 1_555 1_555
C67 C65 1_555 1_555
H40 C63 1_555 1_555
C68 C63 1_555 1_555
C69 C68 1_555 1_555
C70 C64 1_555 1_555
C71 C69 1_555 1_555
C72 C66 1_555 1_555
H41 C72 1_555 1_555
C73 C67 1_555 1_555
C75 C62 1_555 1_555
H42 C66 1_555 1_555
H43 C67 1_555 1_555
C76 C74 1_555 1_555
C77 C71 1_555 1_555
H45 C77 1_555 1_555
C78 C73 1_555 1_555
H46 C64 1_555 1_555
H47 C70 1_555 1_555
C79 C78 1_555 1_555
C80 C71 1_555 1_555
C81 C76 1_555 1_555
C82 C79 1_555 1_555
C83 C75 1_555 1_555
H48 C75 1_555 1_555
H49 C79 1_555 1_555
H50 C68 1_555 1_555
H51 C80 1_555 1_555
H52 C76 1_555 1_555
H53 C83 1_555 1_555
Al16 O45 1_555 1_555
Al23_2 O48 1_555 1_555
Al7 O46 1_555 1_555
C84 O34 1_555 1_555
H54 C84 1_555 1_555
Al20 O21 1_555 1_555
O49 Al20 1_555 1_555
O50 Al20 1_555 1_555
O51 Al20 1_555 1_555
O52 Al20 1_555 1_555
H55 O41 1_555 1_555
H56 O21 1_555 1_555
C85 O42 1_555 1_555
C86 C85 1_555 1_555
C87 C88 1_555 1_555
C88 C93 1_555 1_555
O53 C87 1_555 1_555
O54 C87 1_555 1_555
C90 C102 1_555 1_555
C91 C86 1_555 1_555
C92 C86 1_555 1_555
C93 H57 1_555 1_555
C94 C88 1_555 1_555
C95 C93 1_555 1_555
H58 C91 1_555 1_555
C96 C91 1_555 1_555
C97 C96 1_555 1_555
C98 C92 1_555 1_555
C99 C97 1_555 1_555
C100 C94 1_555 1_555
H59 C100 1_555 1_555
C101 C95 1_555 1_555
C103 C90 1_555 1_555
H60 C94 1_555 1_555
H61 C95 1_555 1_555
C104 C102 1_555 1_555
C105 C99 1_555 1_555
H63 C105 1_555 1_555
C106 C101 1_555 1_555
H64 C92 1_555 1_555
H65 C98 1_555 1_555
C107 C106 1_555 1_555
C108 C99 1_555 1_555
C109 C104 1_555 1_555
C110 C107 1_555 1_555
C111 C103 1_555 1_555
H66 C103 1_555 1_555
H67 C107 1_555 1_555
H68 C96 1_555 1_555
H69 C108 1_555 1_555
H70 C104 1_555 1_555
H71 C111 1_555 1_555
Al17 O53 1_555 1_555
Al23_3 O56 1_555 1_555
Al5 O54 1_555 1_555
C112 O30 1_555 1_555
H72 C112 1_555 1_555
O37 C84 1_555 1_555
O40 C57 1_555 1_555
O41 Al20 1_555 1_555
C69 C70 1_555 1_555
C72 C73 1_555 1_555
C77 C78 1_555 1_555
C80 C82 1_555 1_555
C81 C82 1_555 1_555
C81 C83 1_555 1_555
O49 C85 1_555 1_555
O50 C112 1_555 1_555
C97 C98 1_555 1_555
C100 C101 1_555 1_555
C105 C106 1_555 1_555
C108 C110 1_555 1_555
C109 C110 1_555 1_555
C109 C111 1_555 1_555
O55 C89 1_555 1_555
Al16 O55 1_555 1_555
O16 C31 1_555 1_555
Al11 O16 1_555 1_555
Al5 O2_2 1_555 1_555
Al17 O1_2 1_555 1_555
Al23 O1_2 1_555 1_555
O2_2 Al17 1_555 1_555
H2_2 O2_2 1_555 1_555
O3_2 Al23 1_555 1_555
O4_2 Al17 1_555 1_555
C1_2 O3_2 1_555 1_555
C3_2 C10_2 1_555 1_555
C4_2 C1_2 1_555 1_555
C7_2 C4_2 1_555 1_555
C8_2 C16_2 1_555 1_555
C10_2 C13_2 1_555 1_555
C13_2 H8_2 1_555 1_555
C15_2 C4_2 1_555 1_555
H10_2 C15_2 1_555 1_555
C16_2 C15_2 1_555 1_555
H11_2 C16_2 1_555 1_555
C18_2 C8_2 1_555 1_555
C19_2 C20_2 1_555 1_555
C20_2 C22_2 1_555 1_555
C21_2 C10_2 1_555 1_555
H12_2 C21_2 1_555 1_555
H13_2 C22_2 1_555 1_555
C23_2 C7_2 1_555 1_555
C25_2 C18_2 1_555 1_555
H15_2 C25_2 1_555 1_555
C26_2 C13_2 1_555 1_555
H16_2 C26_2 1_555 1_555
C27_2 C19_2 1_555 1_555
H17_2 C27_2 1_555 1_555
O39 C3_2 1_555 1_555
O43 C3_2 1_555 1_555
O9_2 Al17 1_555 1_555
C28_2 O9_2 1_555 1_555
H18_2 C28_2 1_555 1_555
O10_2 Al5 1_555 1_555
O21_2 Al5 1_555 1_555
O30_2 Al5 1_555 1_555
O41_2 Al13 1_555 1_555
O42_2 Al13 1_555 1_555
Al9 O21_2 1_555 1_555
O49_2 Al9 1_555 1_555
O50_2 Al9 1_555 1_555
H56_2 O21_2 1_555 1_555
C85_2 O42_2 1_555 1_555
C86_2 C85_2 1_555 1_555
C89_2 C90_2 1_555 1_555
C90_2 C102_2 1_555 1_555
O24 C89_2 1_555 1_555
O26 C89_2 1_555 1_555
C91_2 C86_2 1_555 1_555
C92_2 C86_2 1_555 1_555
C96_2 C91_2 1_555 1_555
C97_2 C96_2 1_555 1_555
C98_2 C92_2 1_555 1_555
C99_2 C97_2 1_555 1_555
C102_2 H62_2 1_555 1_555
C103_2 C90_2 1_555 1_555
C104_2 C102_2 1_555 1_555
H64_2 C92_2 1_555 1_555
H65_2 C98_2 1_555 1_555
C108_2 C99_2 1_555 1_555
C109_2 C104_2 1_555 1_555
C110_2 C107_2 1_555 1_555
C111_2 C103_2 1_555 1_555
H66_2 C103_2 1_555 1_555
H67_2 C107_2 1_555 1_555
H69_2 C108_2 1_555 1_555
H70_2 C104_2 1_555 1_555
H71_2 C111_2 1_555 1_555
C112_2 O30_2 1_555 1_555
H72_2 C112_2 1_555 1_555
O4_2 C1_2 1_555 1_555
C8_2 C23_2 1_555 1_555
C19_2 C26_2 1_555 1_555
C20_2 C25_2 1_555 1_555
C21_2 C27_2 1_555 1_555
C28_2 O10_2 1_555 1_555
O41_2 Al9 1_555 1_555
O49_2 C85_2 1_555 1_555
O50_2 C112_2 1_555 1_555
C97_2 C98_2 1_555 1_555
C108_2 C110_2 1_555 1_555
C109_2 C110_2 1_555 1_555
C109_2 C111_2 1_555 1_555
C30_2 C33_2 1_555 1_555
C33_2 C34_2 1_555 1_555
C34_2 H21_2 1_555 1_555
C37_2 H23_2 1_555 1_555
C39_2 C33_2 1_555 1_555
H24_2 C39_2 1_555 1_555
C40_2 C34_2 1_555 1_555
H25_2 C40_2 1_555 1_555
C42_2 H27_2 1_555 1_555
C45_2 C42_2 1_555 1_555
C52_2 C37_2 1_555 1_555
O38 C30_2 1_555 1_555
O32 C30_2 1_555 1_555
C87_2 C88_2 1_555 1_555
C88_2 C93_2 1_555 1_555
O22 C87_2 1_555 1_555
O33 C87_2 1_555 1_555
C93_2 H57_2 1_555 1_555
C94_2 C88_2 1_555 1_555
C95_2 C93_2 1_555 1_555
C100_2 C94_2 1_555 1_555
H59_2 C100_2 1_555 1_555
C101_2 C95_2 1_555 1_555
H60_2 C94_2 1_555 1_555
H61_2 C95_2 1_555 1_555
H63_2 C105_2 1_555 1_555
C106_2 C101_2 1_555 1_555
C37_2 C39_2 1_555 1_555
C40_2 C52_2 1_555 1_555
C45_2 C52_2 1_555 1_555
C100_2 C101_2 1_555 1_555
C105_2 C106_2 1_555 1_555
C2_2 C5_2 1_555 1_555
C5_2 C6_2 1_555 1_555
C6_2 H3_2 1_555 1_555
C9_2 H5_2 1_555 1_555
C11_2 C5_2 1_555 1_555
H6_2 C11_2 1_555 1_555
C12_2 C6_2 1_555 1_555
H7_2 C12_2 1_555 1_555
C14_2 H9_2 1_555 1_555
C17_2 C14_2 1_555 1_555
C24_2 C9_2 1_555 1_555
O51 C2_2 1_555 1_555
O28 C2_2 1_555 1_555
C59_2 C60_2 1_555 1_555
C60_2 C65_2 1_555 1_555
O23 C59_2 1_555 1_555
O29 C59_2 1_555 1_555
C65_2 H39_2 1_555 1_555
C66_2 C60_2 1_555 1_555
C67_2 C65_2 1_555 1_555
C72_2 C66_2 1_555 1_555
H41_2 C72_2 1_555 1_555
C73_2 C67_2 1_555 1_555
H42_2 C66_2 1_555 1_555
H43_2 C67_2 1_555 1_555
H45_2 C77_2 1_555 1_555
C78_2 C73_2 1_555 1_555
C9_2 C11_2 1_555 1_555
C12_2 C24_2 1_555 1_555
C17_2 C24_2 1_555 1_555
C72_2 C73_2 1_555 1_555
C77_2 C78_2 1_555 1_555
Al16 O11_2 1_555 1_555
O11_2 Al23_4 1_555 1_555
O12_2 Al16 1_555 1_555
H20_2 O12_2 1_555 1_555
O13_2 Al23_4 1_555 1_555
O14_2 Al16 1_555 1_555
C29_2 O13_2 1_555 1_555
C31_2 C38_2 1_555 1_555
C32_2 C29_2 1_555 1_555
C35_2 C32_2 1_555 1_555
C36_2 C44_2 1_555 1_555
C38_2 C41_2 1_555 1_555
C41_2 H26_2 1_555 1_555
C43_2 C32_2 1_555 1_555
H28_2 C43_2 1_555 1_555
C44_2 C43_2 1_555 1_555
H29_2 C44_2 1_555 1_555
C46_2 C36_2 1_555 1_555
C47_2 C48_2 1_555 1_555
C48_2 C50_2 1_555 1_555
C49_2 C38_2 1_555 1_555
H30_2 C49_2 1_555 1_555
H31_2 C50_2 1_555 1_555
C51_2 C35_2 1_555 1_555
C53_2 C46_2 1_555 1_555
H33_2 C53_2 1_555 1_555
C54_2 C41_2 1_555 1_555
H34_2 C54_2 1_555 1_555
C55_2 C47_2 1_555 1_555
H35_2 C55_2 1_555 1_555
O52 C31_2 1_555 1_555
O44 C31_2 1_555 1_555
O19_2 Al16 1_555 1_555
C56_2 O19_2 1_555 1_555
H36_2 C56_2 1_555 1_555
O20_2 C56_2 1_555 1_555
Al7 O12_2 1_555 1_555
O31_2 Al7 1_555 1_555
O34_2 Al7 1_555 1_555
Al11 O31_2 1_555 1_555
O35_2 Al11 1_555 1_555
O36_2 Al11 1_555 1_555
O37_2 Al11 1_555 1_555
Al13_4 O35_2 1_555 1_555
O40_2 Al13_4 1_555 1_555
H38_2 O31_2 1_555 1_555
C57_2 O36_2 1_555 1_555
C58_2 C57_2 1_555 1_555
C61_2 C62_2 1_555 1_555
C62_2 C74_2 1_555 1_555
O25 C61_2 1_555 1_555
O27 C61_2 1_555 1_555
C63_2 C58_2 1_555 1_555
C64_2 C58_2 1_555 1_555
C68_2 C63_2 1_555 1_555
C69_2 C68_2 1_555 1_555
C70_2 C64_2 1_555 1_555
C71_2 C69_2 1_555 1_555
C74_2 H44_2 1_555 1_555
C75_2 C62_2 1_555 1_555
C76_2 C74_2 1_555 1_555
H46_2 C64_2 1_555 1_555
H47_2 C70_2 1_555 1_555
C80_2 C71_2 1_555 1_555
C81_2 C76_2 1_555 1_555
C82_2 C79_2 1_555 1_555
C83_2 C75_2 1_555 1_555
H48_2 C75_2 1_555 1_555
H49_2 C79_2 1_555 1_555
H51_2 C80_2 1_555 1_555
H52_2 C76_2 1_555 1_555
H53_2 C83_2 1_555 1_555
C84_2 O34_2 1_555 1_555
H54_2 C84_2 1_555 1_555
O14_2 C29_2 1_555 1_555
C36_2 C51_2 1_555 1_555
C47_2 C54_2 1_555 1_555
C48_2 C53_2 1_555 1_555
C49_2 C55_2 1_555 1_555
O20_2 Al7 1_555 1_555
O37_2 C84_2 1_555 1_555
O40_2 C57_2 1_555 1_555
C69_2 C70_2 1_555 1_555
C80_2 C82_2 1_555 1_555
C81_2 C82_2 1_555 1_555
C81_2 C83_2 1_555 1_555

#END
