
###############################################################################
#
# This file contains modified crystal structure data generated from the
# MOF subset of the Cambridge Structural Database (CSD) v543 
# hosted by the Cambridge Crystallographic Data Centre (CCDC).
#
# This work is licensed under the Creative Commons
# Attribution-NonCommercial-ShareAlike 4.0 International License.
# To view a copy of this license, visit
# http://creativecommons.org/licenses/by-nc-sa/4.0/
# or send a letter to
# Creative Commons, PO Box 1866, Mountain View, CA 94042, USA.
#
# CIF created using the CSD Python API on 29 September 2022
# The structure has been converted into the P1 space group
# The structure has a 3D framework
# The original CSD entry OTEGOL is in the tetragonal crystal system
# The original CSD entry OTEGOL is in a Sohncke space group
# The framework has been calculated to contain at least 10.0% void space
# The void calculation uses a probe of radius 1.32A, grid spacing 0.4
#
###############################################################################

data_OTEGOL
_chemical_formula_moiety         '(C84 H38 In6 O32)n'
_symmetry_cell_setting           triclinic
_symmetry_space_group_name_H-M   'P 1'
_symmetry_Int_Tables_number      1
_space_group_name_Hall           'P 1'
loop_
_symmetry_equiv_pos_site_id
_symmetry_equiv_pos_as_xyz
1 x,y,z
_cell_length_a                   15.4886(8)
_cell_length_b                   15.4886(8)
_cell_length_c                   12.3439(13)
_cell_angle_alpha                90
_cell_angle_beta                 90
_cell_angle_gamma                90
_cell_volume                     2961.26
loop_
_atom_site_label
_atom_site_type_symbol
_atom_site_fract_x
_atom_site_fract_y
_atom_site_fract_z
In3 In 0.68711(2) 0.31289(2) -0.0000
In7 In 0.31289(2) 0.68711(2) -0.0000
O1 O 0.6113(2) 0.3824(2) 0.1149(2)
C1 C 0.5853(3) 0.3629(3) 0.2093(3)
C2 C 0.5362(3) 0.4314(3) 0.3810(4)
H1 H 0.5586 0.3843 0.4183
C3 C 0.5000 0.5000 0.2121(4)
H2 H 0.5000 0.5000 0.1368
C4 C 0.5392(3) 0.4328(3) 0.2688(3)
C5 C 0.5000 0.5000 0.4388(5)
O2 O 0.7547(3) 0.2500 0.1250
H3 H 0.8147 0.2500 0.1250
O3 O 0.5944(2) 0.29198(18) 0.2556(3)
O4 O 0.6176(2) 0.3887(2) 0.8851(2)
C6 C 0.6371(3) 0.4147(3) 0.7907(3)
C7 C 0.5686(3) 0.4638(3) 0.6190(4)
H4 H 0.6157 0.4414 0.5817
C8 C 0.5000 0.5000 0.7879(4)
H5 H 0.5000 0.5000 0.8632
C9 C 0.5672(3) 0.4608(3) 0.7312(3)
C10 C 0.5000 0.5000 0.5612(5)
O5 O 0.70802(18) 0.4056(2) 0.7444(3)
O6 O 0.3887(2) 0.6176(2) 0.1149(2)
C11 C 0.4147(3) 0.6371(3) 0.2093(3)
C12 C 0.4638(3) 0.5686(3) 0.3810(4)
H6 H 0.4414 0.6157 0.4183
C13 C 0.4608(3) 0.5672(3) 0.2688(3)
O7 O 0.4056(2) 0.70802(18) 0.2556(3)
O8 O 0.3824(2) 0.6113(2) 0.8851(2)
C14 C 0.3629(3) 0.5853(3) 0.7907(3)
C15 C 0.4314(3) 0.5362(3) 0.6190(4)
H7 H 0.3843 0.5586 0.5817
C16 C 0.4328(3) 0.5392(3) 0.7312(3)
O9 O 0.29198(18) 0.5944(2) 0.7444(3)
In2 In 0.81289(2) 0.31289(2) 0.7500
O10 O 0.7453(3) 0.2500 0.6250
H8 H 0.6853 0.2500 0.6250
In3_2 In 0.68711(2) 0.31289(2) 1.0000
In4 In 0.81289(2) 0.18711(2) 0.5000
In5 In 0.68711(2) 0.18711(2) 0.2500
In7_2 In 0.31289(2) 0.68711(2) 1.0000
In8 In 0.18711(2) 0.68711(2) 0.7500
In9 In 0.31289(2) 0.81289(2) 0.2500
O11 O 0.8824(2) 0.3887(2) 0.8649(2)
O12 O 0.8887(2) 0.3824(2) 0.6351(2)
O15 O 0.7500 0.2453(3) 0.8750
O16 O 0.9056(2) 0.20802(18) 0.7556(3)
O17 O 0.79198(18) 0.4056(2) 0.0056(3)
O18 O 0.5944(2) 0.20802(18) 0.9944(3)
C8_2 C -0.0000 1.0000 0.2879(4)
H5_2 H -0.0000 1.0000 0.3632
C10_2 C 0.0000 1.0000 0.0612(5)
O8_2 O 0.1176(2) 0.8887(2) 0.3851(2)
C14_2 C 0.1371(3) 0.9147(3) 0.2907(3)
C15_2 C 0.0686(3) 0.9638(3) 0.1190(4)
H7_2 H 0.1157 0.9414 0.0817
C16_2 C 0.0672(3) 0.9608(3) 0.2312(3)
O9_2 O 0.20802(18) 0.9056(2) 0.2444(3)
In7_3 In 0.18711(2) 0.81289(2) 0.5000
C3_2 C 0.0000 1.0000 0.7121(4)
H2_2 H 0.0000 1.0000 0.6368
C5_2 C 0.0000 1.0000 0.9388(5)
O6_2 O 0.1113(2) 0.8824(2) 0.6149(2)
C11_2 C 0.0853(3) 0.8629(3) 0.7093(3)
C12_2 C 0.0362(3) 0.9314(3) 0.8810(4)
H6_2 H 0.0586 0.8843 0.9183
C13_2 C 0.0392(3) 0.9328(3) 0.7688(3)
O7_2 O 0.0944(2) 0.79198(18) 0.7556(3)
O4_2 O 0.8824(2) 0.1113(2) 0.3851(2)
C6_2 C 0.8629(3) 0.0853(3) 0.2907(3)
C7_2 C 0.9314(3) 0.0362(3) 0.1190(4)
H4_2 H 0.8843 0.0586 0.0817
C8_3 C 1.0000 0.0000 0.2879(4)
H5_3 H 1.0000 0.0000 0.3632
C9_2 C 0.9328(3) 0.0392(3) 0.2312(3)
C10_3 C 1.0000 0.0000 0.0612(5)
O5_2 O 0.79198(18) 0.0944(2) 0.2444(3)
O11_2 O 0.6176(2) 0.1113(2) 0.3649(2)
O12_2 O 0.6113(2) 0.1176(2) 0.1351(2)
O15_2 O 0.7500 0.2547(3) 0.3750
O1_2 O 0.8887(2) 0.1176(2) 0.6149(2)
C1_2 C 0.9147(3) 0.1371(3) 0.7093(3)
C2_2 C 0.9638(3) 0.0686(3) 0.8810(4)
H1_2 H 0.9414 0.1157 0.9183
C3_3 C 1.0000 0.0000 0.7121(4)
H2_3 H 1.0000 0.0000 0.6368
C4_2 C 0.9608(3) 0.0672(3) 0.7688(3)
C5_3 C 1.0000 0.0000 0.9388(5)
O17_2 O 0.70802(18) 0.0944(2) 0.5056(3)
O18_2 O 0.9056(2) 0.29198(18) 0.4944(3)
C6_3 C 0.5853(3) 0.1371(3) 0.0407(3)
C8_4 C 0.5000 0.0000 0.0379(4)
H5_4 H 0.5000 0.0000 0.1132
C1_3 C 0.6371(3) 0.0853(3) 0.4593(3)
C2_3 C 0.5686(3) 0.0362(3) 0.6310(4)
H1_3 H 0.6157 0.0586 0.6683
C3_4 C 0.5000 -0.0000 0.4621(4)
H2_4 H 0.5000 -0.0000 0.3868
C4_3 C 0.5672(3) 0.0392(3) 0.5188(3)
C5_4 C 0.5000 -0.0000 0.6888(5)
H3_2 H 0.7500 0.3147 0.3750
C7_3 C 0.5362(3) 0.0686(3) 0.8690(4)
H4_3 H 0.5586 0.1157 0.8317
C9_3 C 0.5392(3) 0.0672(3) 0.9812(3)
C10_4 C 0.5000 -0.0000 0.8112(5)
H8_2 H 0.7500 0.1853 0.8750
C8_5 C 0.5000 1.0000 0.0379(4)
H5_5 H 0.5000 1.0000 0.1132
O8_3 O 0.3887(2) 0.8824(2) 0.1351(2)
C14_3 C 0.4147(3) 0.8629(3) 0.0407(3)
C3_5 C 0.5000 1.0000 0.4621(4)
H2_5 H 0.5000 1.0000 0.3868
C5_5 C 0.5000 1.0000 0.6888(5)
C10_5 C 0.5000 1.0000 0.8112(5)
O6_3 O 0.3824(2) 0.8887(2) 0.3649(2)
C11_3 C 0.3629(3) 0.9147(3) 0.4593(3)
C12_3 C 0.4314(3) 0.9638(3) 0.6310(4)
H6_3 H 0.3843 0.9414 0.6683
C13_3 C 0.4328(3) 0.9608(3) 0.5188(3)
O7_3 O 0.29198(18) 0.9056(2) 0.5056(3)
C15_3 C 0.4638(3) 0.9314(3) 0.8690(4)
H7_3 H 0.4414 0.8843 0.8317
C16_3 C 0.4608(3) 0.9328(3) 0.9812(3)
O9_3 O 0.4056(2) 0.79198(18) 0.9944(3)
C5_6 C -0.0000 0.5000 0.1888(5)
C8_6 C -0.0000 0.5000 0.5379(4)
H5_6 H -0.0000 0.5000 0.6132
C10_6 C -0.0000 0.5000 0.3112(5)
C12_4 C 0.0686(3) 0.5362(3) 0.1310(4)
H6_4 H 0.1157 0.5586 0.1683
C13_4 C 0.0672(3) 0.5392(3) 0.0188(3)
O7_4 O 0.20802(18) 0.5944(2) 0.0056(3)
O8_4 O 0.1113(2) 0.6176(2) 0.6351(2)
C14_4 C 0.0853(3) 0.6371(3) 0.5407(3)
C15_4 C 0.0362(3) 0.5686(3) 0.3690(4)
H7_4 H 0.0586 0.6157 0.3317
C16_4 C 0.0392(3) 0.5672(3) 0.4812(3)
O9_4 O 0.0944(2) 0.70802(18) 0.4944(3)
C3_6 C -0.0000 0.5000 0.9621(4)
H2_6 H -0.0000 0.5000 0.8868
O6_4 O 0.1176(2) 0.6113(2) 0.8649(2)
C11_4 C 0.1371(3) 0.5853(3) 0.9593(3)
C2_4 C 0.9314(3) 0.4638(3) 0.1310(4)
H1_4 H 0.8843 0.4414 0.1683
C4_4 C 0.9328(3) 0.4608(3) 0.0188(3)
C5_7 C 1.0000 0.5000 0.1888(5)
C6_4 C 0.9147(3) 0.3629(3) 0.5407(3)
C7_4 C 0.9638(3) 0.4314(3) 0.3690(4)
H4_4 H 0.9414 0.3843 0.3317
C8_7 C 1.0000 0.5000 0.5379(4)
H5_7 H 1.0000 0.5000 0.6132
C9_4 C 0.9608(3) 0.4328(3) 0.4812(3)
C10_7 C 1.0000 0.5000 0.3112(5)
C1_4 C 0.8629(3) 0.4147(3) 0.9593(3)
C3_7 C 1.0000 0.5000 0.9621(4)
H2_7 H 1.0000 0.5000 0.8868
O10_2 O 0.2453(3) 0.7500 0.1250
H8_3 H 0.1853 0.7500 0.1250
O15_3 O 0.2500 0.7453(3) 0.3750
O2_2 O 0.2547(3) 0.7500 0.6250
H3_3 H 0.3147 0.7500 0.6250
O15_4 O 0.2500 0.7547(3) 0.8750
H8_4 H 0.2500 0.6853 0.3750
H3_4 H 0.2500 0.8147 0.8750
C8_8 C -0.0000 0.0000 0.2879(4)
H5_8 H -0.0000 0.0000 0.3632
C10_8 C 0.0000 0.0000 0.0612(5)
C3_8 C 0.0000 0.0000 0.7121(4)
H2_8 H 0.0000 0.0000 0.6368
C5_8 C 0.0000 0.0000 0.9388(5)
C8_9 C 1.0000 1.0000 0.2879(4)
H5_9 H 1.0000 1.0000 0.3632
C10_9 C 1.0000 1.0000 0.0612(5)
C3_9 C 1.0000 1.0000 0.7121(4)
H2_9 H 1.0000 1.0000 0.6368
C5_9 C 1.0000 1.0000 0.9388(5)
loop_
_geom_bond_atom_site_label_1
_geom_bond_atom_site_label_2
_geom_bond_site_symmetry_1
_geom_bond_site_symmetry_2
In3 O1 1_555 1_555
O1 C1 1_555 1_555
C1 C4 1_555 1_555
C2 H1 1_555 1_555
C3 H2 1_555 1_555
C4 C2 1_555 1_555
C5 C2 1_555 1_555
O2 In3 1_555 1_555
H3 O2 1_555 1_555
O3 C1 1_555 1_555
O4 C6 1_555 1_555
C6 C9 1_555 1_555
C7 H4 1_555 1_555
C8 H5 1_555 1_555
C9 C7 1_555 1_555
C10 C5 1_555 1_555
O5 C6 1_555 1_555
O6 C11 1_555 1_555
C11 C13 1_555 1_555
C12 C5 1_555 1_555
H6 C12 1_555 1_555
C13 C3 1_555 1_555
O7 C11 1_555 1_555
O8 C14 1_555 1_555
C14 C16 1_555 1_555
C15 C10 1_555 1_555
H7 C15 1_555 1_555
C16 C8 1_555 1_555
O9 C14 1_555 1_555
In2 O5 1_555 1_555
O10 In2 1_555 1_555
H8 O10 1_555 1_555
In3_2 O4 1_555 1_555
In4 O10 1_555 1_555
In5 O2 1_555 1_555
In7 O6 1_555 1_555
In7_2 O8 1_555 1_555
In8 O9 1_555 1_555
In9 O7 1_555 1_555
O11 In2 1_555 1_555
O12 In2 1_555 1_555
O15 In2 1_555 1_555
O16 In2 1_555 1_555
O17 In3 1_555 1_555
C3 C4 1_555 1_555
O3 In5 1_555 1_555
C7 C10 1_555 1_555
C8 C9 1_555 1_555
C12 C13 1_555 1_555
C15 C16 1_555 1_555
In3_2 O15 1_555 1_555
O18 In3_2 1_555 1_555
C8_2 H5_2 1_555 1_555
O8_2 C14_2 1_555 1_555
C14_2 C16_2 1_555 1_555
C15_2 C10_2 1_555 1_555
H7_2 C15_2 1_555 1_555
C16_2 C8_2 1_555 1_555
O9_2 C14_2 1_555 1_555
In7_3 O8_2 1_555 1_555
In9 O9_2 1_555 1_555
C15_2 C16_2 1_555 1_555
C3_2 H2_2 1_555 1_555
O6_2 C11_2 1_555 1_555
C11_2 C13_2 1_555 1_555
C12_2 C5_2 1_555 1_555
H6_2 C12_2 1_555 1_555
C13_2 C3_2 1_555 1_555
O7_2 C11_2 1_555 1_555
In7_3 O6_2 1_555 1_555
In8 O7_2 1_555 1_555
C12_2 C13_2 1_555 1_555
O4_2 C6_2 1_555 1_555
C6_2 C9_2 1_555 1_555
C7_2 H4_2 1_555 1_555
C8_3 H5_3 1_555 1_555
C9_2 C7_2 1_555 1_555
O5_2 C6_2 1_555 1_555
In5 O5_2 1_555 1_555
In4 O4_2 1_555 1_555
O11_2 In5 1_555 1_555
O12_2 In5 1_555 1_555
O15_2 In5 1_555 1_555
C7_2 C10_3 1_555 1_555
C8_3 C9_2 1_555 1_555
In4 O15_2 1_555 1_555
In4 O1_2 1_555 1_555
O1_2 C1_2 1_555 1_555
C1_2 C4_2 1_555 1_555
C2_2 H1_2 1_555 1_555
C3_3 H2_3 1_555 1_555
C4_2 C2_2 1_555 1_555
C5_3 C2_2 1_555 1_555
O16 C1_2 1_555 1_555
O17_2 In4 1_555 1_555
O18_2 In4 1_555 1_555
C3_3 C4_2 1_555 1_555
O12_2 C6_3 1_555 1_555
C8_4 H5_4 1_555 1_555
O11_2 C1_3 1_555 1_555
C1_3 C4_3 1_555 1_555
C2_3 H1_3 1_555 1_555
C3_4 H2_4 1_555 1_555
C4_3 C2_3 1_555 1_555
C5_4 C2_3 1_555 1_555
H3_2 O15_2 1_555 1_555
O17_2 C1_3 1_555 1_555
C7_3 H4_3 1_555 1_555
C9_3 C7_3 1_555 1_555
C10_4 C5_4 1_555 1_555
H8_2 O15 1_555 1_555
C3_4 C4_3 1_555 1_555
C7_3 C10_4 1_555 1_555
C8_5 H5_5 1_555 1_555
O8_3 C14_3 1_555 1_555
In9 O8_3 1_555 1_555
C3_5 H2_5 1_555 1_555
C10_5 C5_5 1_555 1_555
O6_3 C11_3 1_555 1_555
C11_3 C13_3 1_555 1_555
C12_3 C5_5 1_555 1_555
H6_3 C12_3 1_555 1_555
C13_3 C3_5 1_555 1_555
O7_3 C11_3 1_555 1_555
C15_3 C10_5 1_555 1_555
H7_3 C15_3 1_555 1_555
In9 O6_3 1_555 1_555
In7_2 O9_3 1_555 1_555
In7_3 O7_3 1_555 1_555
C12_3 C13_3 1_555 1_555
C15_3 C16_3 1_555 1_555
C8_6 H5_6 1_555 1_555
C10_6 C5_6 1_555 1_555
C12_4 C5_6 1_555 1_555
H6_4 C12_4 1_555 1_555
O8_4 C14_4 1_555 1_555
C14_4 C16_4 1_555 1_555
C15_4 C10_6 1_555 1_555
H7_4 C15_4 1_555 1_555
C16_4 C8_6 1_555 1_555
O9_4 C14_4 1_555 1_555
In8 O8_4 1_555 1_555
In7_3 O9_4 1_555 1_555
In7 O7_4 1_555 1_555
C12_4 C13_4 1_555 1_555
C15_4 C16_4 1_555 1_555
C3_6 H2_6 1_555 1_555
O6_4 C11_4 1_555 1_555
In8 O6_4 1_555 1_555
C2_4 H1_4 1_555 1_555
C4_4 C2_4 1_555 1_555
C5_7 C2_4 1_555 1_555
O12 C6_4 1_555 1_555
C6_4 C9_4 1_555 1_555
C7_4 H4_4 1_555 1_555
C8_7 H5_7 1_555 1_555
C9_4 C7_4 1_555 1_555
C10_7 C5_7 1_555 1_555
O18_2 C6_4 1_555 1_555
C7_4 C10_7 1_555 1_555
C8_7 C9_4 1_555 1_555
O11 C1_4 1_555 1_555
C3_7 H2_7 1_555 1_555
O10_2 In9 1_555 1_555
H8_3 O10_2 1_555 1_555
In7 O10_2 1_555 1_555
O15_3 In9 1_555 1_555
In7_3 O15_3 1_555 1_555
O2_2 In7_3 1_555 1_555
H3_3 O2_2 1_555 1_555
In8 O2_2 1_555 1_555
O15_4 In8 1_555 1_555
In7_2 O15_4 1_555 1_555
H8_4 O15_3 1_555 1_555
H3_4 O15_4 1_555 1_555
C8_8 H5_8 1_555 1_555
C3_8 H2_8 1_555 1_555
C8_9 H5_9 1_555 1_555
C3_9 H2_9 1_555 1_555

#END
