
###############################################################################
#
# This file contains modified crystal structure data generated from the
# MOF subset of the Cambridge Structural Database (CSD) v543 
# hosted by the Cambridge Crystallographic Data Centre (CCDC).
#
# This work is licensed under the Creative Commons
# Attribution-NonCommercial-ShareAlike 4.0 International License.
# To view a copy of this license, visit
# http://creativecommons.org/licenses/by-nc-sa/4.0/
# or send a letter to
# Creative Commons, PO Box 1866, Mountain View, CA 94042, USA.
#
# CIF created using the CSD Python API on 29 September 2022
# The structure has been converted into the P1 space group
# The structure has a 3D framework
# The original CSD entry OTENEH is in the monoclinic crystal system
# The framework has been calculated to contain at least 10.0% void space
# The void calculation uses a probe of radius 1.32A, grid spacing 0.4
# The framework is charged, counterions have been retained in the structure
#
###############################################################################

data_OTENEH
_chemical_formula_moiety         '(C56 H88 N108 O96 Pr16 8-)n'
_symmetry_cell_setting           triclinic
_symmetry_space_group_name_H-M   'P 1'
_symmetry_Int_Tables_number      1
_space_group_name_Hall           'P 1'
loop_
_symmetry_equiv_pos_site_id
_symmetry_equiv_pos_as_xyz
1 x,y,z
_cell_length_a                   17.086(7)
_cell_length_b                   21.121(8)
_cell_length_c                   17.030(6)
_cell_angle_alpha                90
_cell_angle_beta                 99.158(6)
_cell_angle_gamma                90
_cell_volume                     6067.34
loop_
_atom_site_label
_atom_site_type_symbol
_atom_site_fract_x
_atom_site_fract_y
_atom_site_fract_z
Pr1 Pr 0.270451(10) 0.548315(7) 0.462236(10)
Pr2 Pr 0.250988(10) 0.416754(7) 0.129466(10)
Pr3 Pr 0.360690(10) 0.356191(7) 0.517342(10)
Pr4 Pr 0.127130(10) 0.841270(7) 0.437710(10)
O1 O 0.19965(13) 0.31618(9) 0.07211(12)
H1 H 0.1831(5) 0.28338(19) 0.0933(3)
H2 H 0.1785(7) 0.3134(6) 0.02367(19)
O2 O 0.30864(13) 0.45771(10) 0.56945(13)
O3 O 0.38030(13) 0.47222(11) 0.16722(14)
H3 H 0.4183(3) 0.4601(3) 0.2024(3)
H4 H 0.3987(4) 0.50447(18) 0.1465(3)
O4 O 0.35455(18) 0.32695(10) 0.65338(13)
H5 H 0.3394(5) 0.29212(16) 0.6711(5)
H6 H 0.3445(6) 0.35403(19) 0.6873(3)
O5 O 0.3291(3) 0.43613(19) 0.7013(2)
O6 O 0.27429(12) 0.84194(11) 0.46052(15)
H7 H 0.3056(4) 0.8646(2) 0.4929(3)
H8 H 0.3058(3) 0.8201(2) 0.4373(3)
O7 O 0.21519(12) 0.34523(13) 0.48901(12)
H9 H 0.1850(4) 0.3513(8) 0.4449(2)
H10 H 0.1839(3) 0.3383(7) 0.5221(2)
O8 O 0.14973(13) 0.48318(10) 0.45842(14)
H11 H 0.1408(6) 0.45205(19) 0.4872(3)
H12 H 0.1087(3) 0.4856(6) 0.4231(3)
O9 O 0.21379(15) 0.56024(9) 0.32447(12)
H13 H 0.2275(4) 0.53306(19) 0.2923(3)
H14 H 0.1977(6) 0.59161(17) 0.2950(4)
O10 O 0.30720(14) 0.66053(10) 0.45885(14)
H15 H 0.3411(3) 0.6796(3) 0.4924(3)
H16 H 0.2954(7) 0.6860(2) 0.4204(2)
O11 O 0.13927(12) 0.94681(9) 0.37099(13)
H17 H 0.1119(3) 0.9774(2) 0.3844(4)
H18 H 0.1702(2) 0.9638(4) 0.3427(3)
O12 O 0.27314(11) 0.46939(10) 0.00450(13)
O13 O 0.16089(12) 0.81213(11) 0.30931(12)
H21 H 0.1303(3) 0.8018(6) 0.2669(3)
H22 H 0.2033(2) 0.7920(3) 0.3058(7)
O14 O 0.15134(13) 0.62142(10) 0.45223(14)
O15 O 0.17378(12) 0.72637(10) 0.44611(14)
O16 O 0.53244(5) 0.59801(12) 0.55525(2)
O17 O 0.40700(7) 0.56715(9) 0.54773(2)
O18 O 0.32370(12) 0.25939(10) 0.02724(14)
O19 O 0.35579(14) 0.35651(11) 0.07285(15)
O20 O 0.29885(12) 0.43656(10) 0.40623(12)
O21 O 0.26878(13) 0.45313(10) 0.27511(13)
O22 O 0.12757(12) 0.38756(11) 0.18954(13)
O24 O 0.18685(12) 0.57337(10) 0.03036(12)
O25 O 0.21168(13) 0.52889(10) 0.15000(13)
N1 N 0.24399(18) 0.57259(14) 0.60167(18)
N2 N 0.2152(2) 0.62274(18) 0.6377(2)
N3 N 0.2245(3) 0.6090(2) 0.7143(3)
N4 N 0.2637(3) 0.5537(2) 0.7302(3)
N8 N 0.02176(15) 0.75246(13) 0.45026(17)
N9 N 0.51833(17) 0.59123(14) 0.39205(17)
N10 N 0.4874(3) 0.5786(2) 0.3102(3)
N11 N 0.4161(3) 0.5569(2) 0.3050(3)
N12 N 0.39520(18) 0.55475(15) 0.38577(19)
N13 N 0.47621(17) 0.22759(14) 0.03480(18)
N14 N 0.55514(18) 0.22837(15) 0.0410(2)
N15 N 0.5823(2) 0.28524(17) 0.0619(2)
N16 N 0.5200(2) 0.32417(17) 0.0655(2)
N17 N 0.34283(16) 0.31052(12) 0.37097(16)
N18 N 0.35629(19) 0.25992(14) 0.32847(19)
N19 N 0.33568(19) 0.27195(14) 0.25321(18)
N20 N 0.30928(18) 0.33266(14) 0.24407(18)
N21 N 0.11382(16) 0.43551(13) 0.03607(16)
N25 N 0.13740(16) 0.68224(12) 0.08899(16)
N26 N 0.1184(2) 0.72868(15) 0.13719(19)
N27 N 0.1342(2) 0.70776(17) 0.2112(2)
N28 N 0.1612(2) 0.64817(16) 0.2123(2)
C1 C 0.2707(3) 0.5313(2) 0.6580(3)
C2 C 0.3038(3) 0.47048(19) 0.6420(2)
C3 C 0.04581(19) 0.69309(15) 0.4535(2)
C4 C 0.12959(18) 0.67744(14) 0.45120(18)
C5 C 0.46042(18) 0.57447(15) 0.42889(19)
C6 C 0.46619(17) 0.57960(14) 0.51533(18)
C7 C 0.45589(19) 0.28582(15) 0.0489(2)
C8 C 0.37216(18) 0.30399(14) 0.04934(19)
C9 C 0.31567(18) 0.35450(14) 0.31716(18)
C10 C 0.29197(17) 0.42002(14) 0.33313(18)
C11 C 0.05380(18) 0.40736(14) 0.06548(19)
C12 C 0.06122(18) 0.38294(15) 0.14643(19)
C13 C 0.1644(2) 0.63432(16) 0.1373(2)
C14 C 0.18934(18) 0.57318(14) 0.10556(19)
Pr5 Pr 0.639310(10) 0.643809(7) 0.482658(10)
Pr6 Pr 0.360690(10) 0.143809(7) 0.017342(10)
O26 O 0.46756(5) 0.40199(12) 0.44475(2)
O27 O 0.32370(12) 0.24061(10) 0.52724(14)
O28 O 0.00108(13) 0.85781(11) 0.33360(14)
O29 O 0.18685(12) 0.92663(10) 0.53036(12)
N29 N 0.48167(17) 0.40877(14) 0.60795(17)
N30 N 0.47621(17) 0.27241(14) 0.53480(18)
N31 N 0.01177(16) 0.90375(13) 0.48891(16)
N32 N 0.13740(16) 0.81776(12) 0.58899(16)
H19 H 0.3106(2) 0.4739(6) 0.9777(3)
H20 H 0.2430(3) 0.50089(19) 0.9921(8)
N22 N 0.08272(16) 0.45036(13) 0.95966(16)
N23 N 0.00732(16) 0.43103(13) 0.94518(17)
Pr8 Pr 0.127130(10) 0.658730(7) 0.937710(10)
O23 O 0.99892(13) 0.35781(11) 0.16640(14)
N5 N 0.9876(2) 0.65222(16) 0.4586(2)
N6 N 0.9225(2) 0.69060(17) 0.4573(2)
N7 N 0.94404(18) 0.74976(15) 0.4526(2)
N24 N 0.98823(16) 0.40375(13) 0.01109(16)
Pr7 Pr 0.872870(10) 0.341270(7) 0.062290(10)
Pr1_2 Pr 0.729549(10) 0.048315(7) 0.037764(10)
H4_2 H 0.6013(4) 0.00447(18) 0.3535(3)
O6_2 O 0.72571(12) 0.34194(11) 0.03948(15)
H7_2 H 0.6944(4) 0.3646(2) 0.0071(3)
H8_2 H 0.6942(3) 0.3201(2) 0.0627(3)
O9_2 O 0.78621(15) 0.06024(9) 0.17553(12)
H13_2 H 0.7725(4) 0.03306(19) 0.2077(3)
H14_2 H 0.8023(6) 0.09161(17) 0.2050(4)
O10_2 O 0.69280(14) 0.16053(10) 0.04115(14)
H15_2 H 0.6589(3) 0.1796(3) 0.0076(3)
H16_2 H 0.7046(7) 0.1860(2) 0.0796(2)
O11_2 O 0.86073(12) 0.44681(9) 0.12901(13)
H17_2 H 0.8881(3) 0.4774(2) 0.1156(4)
H18_2 H 0.8298(2) 0.4638(4) 0.1573(3)
H20_2 H 0.7570(3) 0.00089(19) 0.5079(8)
O13_2 O 0.83911(12) 0.31213(11) 0.19069(12)
H21_2 H 0.8697(3) 0.3018(6) 0.2331(3)
H22_2 H 0.7967(2) 0.2920(3) 0.1942(7)
O14_2 O 0.84866(13) 0.12142(10) 0.04777(14)
O15_2 O 0.82622(12) 0.22637(10) 0.05389(14)
O24_2 O 0.81315(12) 0.07337(10) 0.46964(12)
O25_2 O 0.78832(13) 0.02889(10) 0.35000(13)
N8_2 N 0.97824(15) 0.25246(13) 0.04974(17)
N9_2 N 0.48167(17) 0.09123(14) 0.10795(17)
N10_2 N 0.5126(3) 0.0786(2) 0.1898(3)
N11_2 N 0.5839(3) 0.0569(2) 0.1950(3)
N12_2 N 0.60480(18) 0.05475(15) 0.11423(19)
N25_2 N 0.86260(16) 0.18224(12) 0.41101(16)
N26_2 N 0.8816(2) 0.22868(15) 0.36281(19)
N27_2 N 0.8658(2) 0.20776(17) 0.2888(2)
N28_2 N 0.8388(2) 0.14817(16) 0.2877(2)
C3_2 C 0.95419(19) 0.19309(15) 0.0465(2)
C4_2 C 0.87041(18) 0.17744(14) 0.04880(18)
C5_2 C 0.53958(18) 0.07447(15) 0.07111(19)
C13_2 C 0.8356(2) 0.13432(16) 0.3627(2)
C14_2 C 0.81066(18) 0.07318(14) 0.39444(19)
Pr8_2 Pr 0.872870(10) 0.158730(7) 0.562290(10)
O16_2 O 0.46756(5) 0.09801(12) 0.94475(2)
O17_2 O 0.59300(7) 0.06715(9) 0.95227(2)
N1_2 N 0.75601(18) 0.07259(14) 0.89833(18)
N2_2 N 0.7848(2) 0.12274(18) 0.8623(2)
N3_2 N 0.7755(3) 0.1090(2) 0.7857(3)
N4_2 N 0.7363(3) 0.0537(2) 0.7698(3)
C1_2 C 0.7293(3) 0.0313(2) 0.8420(3)
C6_2 C 0.53381(17) 0.07960(14) 0.98467(18)
O29_2 O 0.81315(12) 0.42663(10) 0.96964(12)
N32_2 N 0.86260(16) 0.31776(12) 0.91101(16)
Pr2_2 Pr 0.749012(10) 0.916754(7) 0.370534(10)
O1_2 O 0.80035(13) 0.81618(9) 0.42789(12)
H1_2 H 0.8169(5) 0.78338(19) 0.4067(3)
H2_2 H 0.8215(7) 0.8134(6) 0.47633(19)
O3_2 O 0.61970(13) 0.97222(11) 0.33278(14)
H3_2 H 0.5817(3) 0.9601(3) 0.2976(3)
O7_2 O 0.78481(12) 0.84523(13) 0.01099(12)
H9_2 H 0.8150(4) 0.8513(8) 0.0551(2)
O8_2 O 0.85027(13) 0.98318(10) 0.04158(14)
H11_2 H 0.8592(6) 0.95205(19) 0.0128(3)
H12_2 H 0.8913(3) 0.9856(6) 0.0769(3)
O12_2 O 0.72686(11) 0.96939(10) 0.49550(13)
H19_2 H 0.6894(2) 0.9739(6) 0.5223(3)
O18_2 O 0.67630(12) 0.75939(10) 0.47276(14)
O19_2 O 0.64421(14) 0.85651(11) 0.42715(15)
O20_2 O 0.70115(12) 0.93656(10) 0.09377(12)
O21_2 O 0.73122(13) 0.95313(10) 0.22489(13)
O22_2 O 0.87243(12) 0.88756(11) 0.31046(13)
N13_2 N 0.52379(17) 0.72759(14) 0.46520(18)
N14_2 N 0.44486(18) 0.72837(15) 0.4590(2)
N15_2 N 0.4177(2) 0.78524(17) 0.4381(2)
N16_2 N 0.4800(2) 0.82417(17) 0.4345(2)
N17_2 N 0.65717(16) 0.81052(12) 0.12903(16)
N18_2 N 0.64371(19) 0.75992(14) 0.17153(19)
N19_2 N 0.66432(19) 0.77195(14) 0.24679(18)
N20_2 N 0.69072(18) 0.83266(14) 0.25593(18)
N21_2 N 0.88618(16) 0.93551(13) 0.46393(16)
N22_2 N 0.91728(16) 0.95036(13) 0.54034(16)
N23_2 N 0.99268(16) 0.93103(13) 0.55482(17)
C7_2 C 0.54411(19) 0.78582(15) 0.4511(2)
C8_2 C 0.62784(18) 0.80399(14) 0.45066(19)
C9_2 C 0.68433(18) 0.85450(14) 0.18284(18)
C10_2 C 0.70803(17) 0.92002(14) 0.16687(18)
C11_2 C 0.94620(18) 0.90736(14) 0.43452(19)
C12_2 C 0.93878(18) 0.88294(15) 0.35357(19)
O26_2 O 0.53244(5) 0.90199(12) 0.05525(2)
Pr3_2 Pr 0.639310(10) 0.856191(7) 0.982658(10)
O2_2 O 0.69136(13) 0.95771(10) 0.93055(13)
O4_2 O 0.64545(18) 0.82695(10) 0.84662(13)
H5_2 H 0.6606(5) 0.79212(16) 0.8289(5)
H6_2 H 0.6555(6) 0.85403(19) 0.8127(3)
O5_2 O 0.6709(3) 0.93613(19) 0.7987(2)
H10_2 H 0.8161(3) 0.8383(7) 0.9779(2)
C2_2 C 0.6962(3) 0.97048(19) 0.8580(2)
O27_2 O 0.67630(12) 0.74061(10) 0.97276(14)
N29_2 N 0.51833(17) 0.90877(14) 0.89205(17)
N30_2 N 0.52379(17) 0.77241(14) 0.96520(18)
O23_2 O 0.00108(13) 0.64219(11) 0.83360(14)
N5_2 N 0.0124(2) 0.34778(16) 0.5414(2)
N6_2 N 0.0775(2) 0.30940(17) 0.5427(2)
N7_2 N 0.05596(18) 0.25024(15) 0.5474(2)
N24_2 N 0.01177(16) 0.59625(13) 0.98891(16)
H19_3 H 0.6894(2) 0.5261(6) 0.0223(3)
H20_3 H 0.7570(3) 0.49911(19) 0.0079(8)
N22_3 N 0.91728(16) 0.54964(13) 0.04034(16)
N23_3 N 0.99268(16) 0.56897(13) 0.05482(17)
Pr1_3 Pr 0.729549(10) 0.451685(7) 0.537764(10)
Pr2_3 Pr 0.749012(10) 0.583246(7) 0.870534(10)
O1_3 O 0.80035(13) 0.68382(9) 0.92789(12)
H1_3 H 0.8169(5) 0.71662(19) 0.9067(3)
H2_3 H 0.8215(7) 0.6866(6) 0.97633(19)
O2_3 O 0.69136(13) 0.54229(10) 0.43055(13)
O3_3 O 0.61970(13) 0.52778(11) 0.83278(14)
H3_3 H 0.5817(3) 0.5399(3) 0.7976(3)
H4_3 H 0.6013(4) 0.49553(18) 0.8535(3)
O4_3 O 0.64545(18) 0.67305(10) 0.34662(13)
H5_3 H 0.6606(5) 0.70788(16) 0.3289(5)
H6_3 H 0.6555(6) 0.64597(19) 0.3127(3)
O5_3 O 0.6709(3) 0.56387(19) 0.2987(2)
O6_3 O 0.72571(12) 0.15806(11) 0.53948(15)
H7_3 H 0.6944(4) 0.1354(2) 0.5071(3)
H8_3 H 0.6942(3) 0.1799(2) 0.5627(3)
O7_3 O 0.78481(12) 0.65477(13) 0.51099(12)
H9_3 H 0.8150(4) 0.6487(8) 0.5551(2)
H10_3 H 0.8161(3) 0.6617(7) 0.4779(2)
O8_3 O 0.85027(13) 0.51682(10) 0.54158(14)
H11_3 H 0.8592(6) 0.54795(19) 0.5128(3)
H12_3 H 0.8913(3) 0.5144(6) 0.5769(3)
O9_3 O 0.78621(15) 0.43976(9) 0.67553(12)
H13_3 H 0.7725(4) 0.46694(19) 0.7077(3)
H14_3 H 0.8023(6) 0.40839(17) 0.7050(4)
O10_3 O 0.69280(14) 0.33947(10) 0.54115(14)
H15_3 H 0.6589(3) 0.3204(3) 0.5076(3)
H16_3 H 0.7046(7) 0.3140(2) 0.5796(2)
O11_3 O 0.86073(12) 0.05319(9) 0.62901(13)
H17_3 H 0.8881(3) 0.0226(2) 0.6156(4)
H18_3 H 0.8298(2) 0.0362(4) 0.6573(3)
O12_3 O 0.72686(11) 0.53061(10) 0.99550(13)
O13_3 O 0.83911(12) 0.18787(11) 0.69069(12)
H21_3 H 0.8697(3) 0.1982(6) 0.7331(3)
H22_3 H 0.7967(2) 0.2080(3) 0.6942(7)
O14_3 O 0.84866(13) 0.37858(10) 0.54777(14)
O15_3 O 0.82622(12) 0.27363(10) 0.55389(14)
O17_3 O 0.59300(7) 0.43285(9) 0.45227(2)
O19_3 O 0.64421(14) 0.64349(11) 0.92715(15)
O20_3 O 0.70115(12) 0.56344(10) 0.59377(12)
O21_3 O 0.73122(13) 0.54687(10) 0.72489(13)
O22_3 O 0.87243(12) 0.61244(11) 0.81046(13)
O25_3 O 0.78832(13) 0.47111(10) 0.85000(13)
N1_3 N 0.75601(18) 0.42741(14) 0.39833(18)
N2_3 N 0.7848(2) 0.37726(18) 0.3623(2)
N3_3 N 0.7755(3) 0.3910(2) 0.2857(3)
N4_3 N 0.7363(3) 0.4463(2) 0.2698(3)
N8_3 N 0.97824(15) 0.24754(13) 0.54974(17)
N10_3 N 0.5126(3) 0.4214(2) 0.6898(3)
N11_3 N 0.5839(3) 0.4431(2) 0.6950(3)
N12_3 N 0.60480(18) 0.44525(15) 0.61423(19)
N14_3 N 0.44486(18) 0.77163(15) 0.9590(2)
N15_3 N 0.4177(2) 0.71476(17) 0.9381(2)
N16_3 N 0.4800(2) 0.67583(17) 0.9345(2)
N17_3 N 0.65717(16) 0.68948(12) 0.62903(16)
N18_3 N 0.64371(19) 0.74008(14) 0.67153(19)
N19_3 N 0.66432(19) 0.72805(14) 0.74679(18)
N20_3 N 0.69072(18) 0.66734(14) 0.75593(18)
N21_3 N 0.88618(16) 0.56449(13) 0.96393(16)
N26_3 N 0.8816(2) 0.27132(15) 0.86281(19)
N27_3 N 0.8658(2) 0.29224(17) 0.7888(2)
N28_3 N 0.8388(2) 0.35183(16) 0.7877(2)
C1_3 C 0.7293(3) 0.4687(2) 0.3420(3)
C2_3 C 0.6962(3) 0.52952(19) 0.3580(2)
C3_3 C 0.95419(19) 0.30691(15) 0.5465(2)
C4_3 C 0.87041(18) 0.32256(14) 0.54880(18)
C5_3 C 0.53958(18) 0.42553(15) 0.57111(19)
C6_3 C 0.53381(17) 0.42040(14) 0.48467(18)
C7_3 C 0.54411(19) 0.71418(15) 0.9511(2)
C8_3 C 0.62784(18) 0.69601(14) 0.95066(19)
C9_3 C 0.68433(18) 0.64550(14) 0.68284(18)
C10_3 C 0.70803(17) 0.57998(14) 0.66687(18)
C11_3 C 0.94620(18) 0.59264(14) 0.93452(19)
C12_3 C 0.93878(18) 0.61706(15) 0.85357(19)
C13_3 C 0.8356(2) 0.36568(16) 0.8627(2)
C14_3 C 0.81066(18) 0.42682(14) 0.89444(19)
O28_2 O 0.99892(13) 0.14219(11) 0.66640(14)
N31_2 N 0.98823(16) 0.09625(13) 0.51109(16)
O2_4 O 0.30864(13) 0.04229(10) 0.06945(13)
O4_4 O 0.35455(18) 0.17305(10) 0.15338(13)
H5_4 H 0.3394(5) 0.20788(16) 0.1711(5)
H6_4 H 0.3445(6) 0.14597(19) 0.1873(3)
O5_4 O 0.3291(3) 0.06387(19) 0.2013(2)
H10_4 H 0.1839(3) 0.1617(7) 0.0221(2)
C2_4 C 0.3038(3) 0.02952(19) 0.1420(2)
Pr2_4 Pr 0.250988(10) 0.083246(7) 0.629466(10)
O1_4 O 0.19965(13) 0.18382(9) 0.57211(12)
H1_4 H 0.1831(5) 0.21662(19) 0.5933(3)
H2_4 H 0.1785(7) 0.1866(6) 0.52367(19)
O3_4 O 0.38030(13) 0.02778(11) 0.66722(14)
H3_4 H 0.4183(3) 0.0399(3) 0.7024(3)
O7_4 O 0.21519(12) 0.15477(13) 0.98901(12)
H9_4 H 0.1850(4) 0.1487(8) 0.9449(2)
O8_4 O 0.14973(13) 0.01682(10) 0.95842(14)
H11_4 H 0.1408(6) 0.04795(19) 0.9872(3)
H12_4 H 0.1087(3) 0.0144(6) 0.9231(3)
O12_4 O 0.27314(11) 0.03061(10) 0.50450(13)
H19_4 H 0.3106(2) 0.0261(6) 0.4777(3)
O19_4 O 0.35579(14) 0.14349(11) 0.57285(15)
O20_4 O 0.29885(12) 0.06344(10) 0.90623(12)
O21_4 O 0.26878(13) 0.04687(10) 0.77511(13)
O22_4 O 0.12757(12) 0.11244(11) 0.68954(13)
N14_4 N 0.55514(18) 0.27163(15) 0.5410(2)
N15_4 N 0.5823(2) 0.21476(17) 0.5619(2)
N16_4 N 0.5200(2) 0.17583(17) 0.5655(2)
N17_4 N 0.34283(16) 0.18948(12) 0.87097(16)
N18_4 N 0.35629(19) 0.24008(14) 0.82847(19)
N19_4 N 0.33568(19) 0.22805(14) 0.75321(18)
N20_4 N 0.30928(18) 0.16734(14) 0.74407(18)
N21_4 N 0.11382(16) 0.06449(13) 0.53607(16)
N22_4 N 0.08272(16) 0.04964(13) 0.45966(16)
N23_4 N 0.00732(16) 0.06897(13) 0.44518(17)
C7_4 C 0.45589(19) 0.21418(15) 0.5489(2)
C8_4 C 0.37216(18) 0.19601(14) 0.54934(19)
C9_4 C 0.31567(18) 0.14550(14) 0.81716(18)
C10_4 C 0.29197(17) 0.07998(14) 0.83313(18)
C11_4 C 0.05380(18) 0.09264(14) 0.56548(19)
C12_4 C 0.06122(18) 0.11706(15) 0.64643(19)
O17_4 O 0.40700(7) 0.93285(9) 0.04773(2)
N1_4 N 0.24399(18) 0.92741(14) 0.10167(18)
N2_4 N 0.2152(2) 0.87726(18) 0.1377(2)
N3_4 N 0.2245(3) 0.8910(2) 0.2143(3)
N4_4 N 0.2637(3) 0.9463(2) 0.2302(3)
C1_4 C 0.2707(3) 0.9687(2) 0.1580(3)
C6_4 C 0.46619(17) 0.92040(14) 0.01533(18)
Pr1_4 Pr 0.270451(10) 0.951685(7) 0.962236(10)
H4_4 H 0.3987(4) 0.99553(18) 0.6465(3)
O6_4 O 0.27429(12) 0.65806(11) 0.96052(15)
H7_4 H 0.3056(4) 0.6354(2) 0.9929(3)
H8_4 H 0.3058(3) 0.6799(2) 0.9373(3)
O9_4 O 0.21379(15) 0.93976(9) 0.82447(12)
H13_4 H 0.2275(4) 0.96694(19) 0.7923(3)
H14_4 H 0.1977(6) 0.90839(17) 0.7950(4)
O10_4 O 0.30720(14) 0.83947(10) 0.95885(14)
H15_4 H 0.3411(3) 0.8204(3) 0.9924(3)
H16_4 H 0.2954(7) 0.8140(2) 0.9204(2)
O11_4 O 0.13927(12) 0.55319(9) 0.87099(13)
H17_4 H 0.1119(3) 0.5226(2) 0.8844(4)
H18_4 H 0.1702(2) 0.5362(4) 0.8427(3)
H20_4 H 0.2430(3) 0.99911(19) 0.4921(8)
O13_4 O 0.16089(12) 0.68787(11) 0.80931(12)
H21_4 H 0.1303(3) 0.6982(6) 0.7669(3)
H22_4 H 0.2033(2) 0.7080(3) 0.8058(7)
O14_4 O 0.15134(13) 0.87858(10) 0.95223(14)
O15_4 O 0.17378(12) 0.77363(10) 0.94611(14)
O25_4 O 0.21168(13) 0.97111(10) 0.65000(13)
N8_4 N 0.02176(15) 0.74754(13) 0.95026(17)
N10_4 N 0.4874(3) 0.9214(2) 0.8102(3)
N11_4 N 0.4161(3) 0.9431(2) 0.8050(3)
N12_4 N 0.39520(18) 0.94525(15) 0.88577(19)
N26_4 N 0.1184(2) 0.77132(15) 0.63719(19)
N27_4 N 0.1342(2) 0.79224(17) 0.7112(2)
N28_4 N 0.1612(2) 0.85183(16) 0.7123(2)
C3_4 C 0.04581(19) 0.80691(15) 0.9535(2)
C4_4 C 0.12959(18) 0.82256(14) 0.95120(18)
C5_4 C 0.46042(18) 0.92553(15) 0.92889(19)
C13_4 C 0.1644(2) 0.86568(16) 0.6373(2)
C14_4 C 0.18934(18) 0.92682(14) 0.60556(19)
N5_3 N 0.0124(2) 0.15222(16) 0.0414(2)
N6_3 N 0.0775(2) 0.19060(17) 0.0427(2)
N7_3 N 0.05596(18) 0.24976(15) 0.0474(2)
N5_4 N 0.9876(2) 0.84778(16) 0.9586(2)
N6_4 N 0.9225(2) 0.80940(17) 0.9573(2)
N7_4 N 0.94404(18) 0.75024(15) 0.9526(2)
loop_
_geom_bond_atom_site_label_1
_geom_bond_atom_site_label_2
_geom_bond_site_symmetry_1
_geom_bond_site_symmetry_2
Pr1 O2 1_555 1_555
Pr2 O1 1_555 1_555
Pr3 O2 1_555 1_555
Pr4 O6 1_555 1_555
O1 H1 1_555 1_555
H2 O1 1_555 1_555
O2 C2 1_555 1_555
O3 Pr2 1_555 1_555
H3 O3 1_555 1_555
H4 O3 1_555 1_555
O4 Pr3 1_555 1_555
H5 O4 1_555 1_555
H6 O4 1_555 1_555
O5 C2 1_555 1_555
O6 H7 1_555 1_555
H8 O6 1_555 1_555
O7 Pr3 1_555 1_555
H9 O7 1_555 1_555
H10 O7 1_555 1_555
O8 Pr1 1_555 1_555
H11 O8 1_555 1_555
H12 O8 1_555 1_555
O9 Pr1 1_555 1_555
H13 O9 1_555 1_555
H14 O9 1_555 1_555
O10 Pr1 1_555 1_555
H15 O10 1_555 1_555
H16 O10 1_555 1_555
O11 Pr4 1_555 1_555
H17 O11 1_555 1_555
H18 O11 1_555 1_555
O12 Pr2 1_555 1_555
O13 Pr4 1_555 1_555
H21 O13 1_555 1_555
H22 O13 1_555 1_555
O14 Pr1 1_555 1_555
O15 Pr4 1_555 1_555
O16 C6 1_555 1_555
O17 Pr1 1_555 1_555
O18 C8 1_555 1_555
O19 Pr2 1_555 1_555
O20 Pr1 1_555 1_555
O21 Pr2 1_555 1_555
O22 Pr2 1_555 1_555
O24 C14 1_555 1_555
O25 Pr2 1_555 1_555
N1 Pr1 1_555 1_555
N2 N1 1_555 1_555
N3 N2 1_555 1_555
N4 N3 1_555 1_555
N8 Pr4 1_555 1_555
N9 N10 1_555 1_555
N10 N11 1_555 1_555
N11 N12 1_555 1_555
N12 Pr1 1_555 1_555
N13 N14 1_555 1_555
N14 N15 1_555 1_555
N15 N16 1_555 1_555
N16 C7 1_555 1_555
N17 Pr3 1_555 1_555
N18 N17 1_555 1_555
N19 N18 1_555 1_555
N20 Pr2 1_555 1_555
N21 Pr2 1_555 1_555
N25 N26 1_555 1_555
N26 N27 1_555 1_555
N27 N28 1_555 1_555
N28 C13 1_555 1_555
C1 N1 1_555 1_555
C2 C1 1_555 1_555
C4 O14 1_555 1_555
C5 N9 1_555 1_555
C6 O17 1_555 1_555
C7 N13 1_555 1_555
C8 O19 1_555 1_555
C9 N17 1_555 1_555
C10 O20 1_555 1_555
C11 N21 1_555 1_555
C12 O22 1_555 1_555
C13 N25 1_555 1_555
C14 O25 1_555 1_555
Pr5 O16 1_555 1_555
Pr6 O18 1_555 1_555
O26 Pr3 1_555 1_555
O27 Pr3 1_555 1_555
O28 Pr4 1_555 1_555
O29 Pr4 1_555 1_555
N29 Pr3 1_555 1_555
N30 Pr3 1_555 1_555
N31 Pr4 1_555 1_555
N32 Pr4 1_555 1_555
Pr3 O20 1_555 1_555
O15 C4 1_555 1_555
O21 C10 1_555 1_555
N4 C1 1_555 1_555
N8 C3 1_555 1_555
N9 Pr5 1_555 1_555
N12 C5 1_555 1_555
N13 Pr6 1_555 1_555
N19 N20 1_555 1_555
N20 C9 1_555 1_555
C3 C4 1_555 1_555
C5 C6 1_555 1_555
C7 C8 1_555 1_555
C9 C10 1_555 1_555
C11 C12 1_555 1_555
C13 C14 1_555 1_555
N23 N22 1_555 1_555
N5 N6 1_555 1_555
N6 N7 1_555 1_555
Pr7 O23 1_555 1_555
N24 Pr7 1_555 1_555
Pr7 O6_2 1_555 1_555
O6_2 H7_2 1_555 1_555
H8_2 O6_2 1_555 1_555
O9_2 Pr1_2 1_555 1_555
H13_2 O9_2 1_555 1_555
H14_2 O9_2 1_555 1_555
O10_2 Pr1_2 1_555 1_555
H15_2 O10_2 1_555 1_555
H16_2 O10_2 1_555 1_555
O11_2 Pr7 1_555 1_555
H17_2 O11_2 1_555 1_555
H18_2 O11_2 1_555 1_555
O13_2 Pr7 1_555 1_555
H21_2 O13_2 1_555 1_555
H22_2 O13_2 1_555 1_555
O14_2 Pr1_2 1_555 1_555
O15_2 Pr7 1_555 1_555
O24_2 C14_2 1_555 1_555
N8_2 Pr7 1_555 1_555
N9_2 N10_2 1_555 1_555
N10_2 N11_2 1_555 1_555
N11_2 N12_2 1_555 1_555
N12_2 Pr1_2 1_555 1_555
N25_2 N26_2 1_555 1_555
N26_2 N27_2 1_555 1_555
N27_2 N28_2 1_555 1_555
N28_2 C13_2 1_555 1_555
C4_2 O14_2 1_555 1_555
C5_2 N9_2 1_555 1_555
C13_2 N25_2 1_555 1_555
C14_2 O25_2 1_555 1_555
Pr8_2 O24_2 1_555 1_555
O15_2 C4_2 1_555 1_555
N8_2 C3_2 1_555 1_555
N9_2 Pr6 1_555 1_555
N12_2 C5_2 1_555 1_555
N25_2 Pr8_2 1_555 1_555
C3_2 C4_2 1_555 1_555
C13_2 C14_2 1_555 1_555
O16_2 C6_2 1_555 1_555
N2_2 N1_2 1_555 1_555
N3_2 N2_2 1_555 1_555
N4_2 N3_2 1_555 1_555
C1_2 N1_2 1_555 1_555
C6_2 O17_2 1_555 1_555
N4_2 C1_2 1_555 1_555
Pr2_2 O1_2 1_555 1_555
O1_2 H1_2 1_555 1_555
H2_2 O1_2 1_555 1_555
O3_2 Pr2_2 1_555 1_555
H3_2 O3_2 1_555 1_555
H9_2 O7_2 1_555 1_555
H11_2 O8_2 1_555 1_555
H12_2 O8_2 1_555 1_555
O12_2 Pr2_2 1_555 1_555
H19_2 O12_2 1_555 1_555
O18_2 C8_2 1_555 1_555
O19_2 Pr2_2 1_555 1_555
O21_2 Pr2_2 1_555 1_555
O22_2 Pr2_2 1_555 1_555
N13_2 N14_2 1_555 1_555
N14_2 N15_2 1_555 1_555
N15_2 N16_2 1_555 1_555
N16_2 C7_2 1_555 1_555
N18_2 N17_2 1_555 1_555
N19_2 N18_2 1_555 1_555
N20_2 Pr2_2 1_555 1_555
N21_2 Pr2_2 1_555 1_555
N22_2 N21_2 1_555 1_555
N23_2 N22_2 1_555 1_555
C7_2 N13_2 1_555 1_555
C8_2 O19_2 1_555 1_555
C9_2 N17_2 1_555 1_555
C10_2 O20_2 1_555 1_555
C11_2 N21_2 1_555 1_555
C12_2 O22_2 1_555 1_555
Pr5 O18_2 1_555 1_555
O21_2 C10_2 1_555 1_555
N13_2 Pr5 1_555 1_555
N19_2 N20_2 1_555 1_555
N20_2 C9_2 1_555 1_555
C7_2 C8_2 1_555 1_555
C9_2 C10_2 1_555 1_555
C11_2 C12_2 1_555 1_555
Pr3_2 O2_2 1_555 1_555
O2_2 C2_2 1_555 1_555
O4_2 Pr3_2 1_555 1_555
H5_2 O4_2 1_555 1_555
H6_2 O4_2 1_555 1_555
O5_2 C2_2 1_555 1_555
O27_2 Pr3_2 1_555 1_555
N29_2 Pr3_2 1_555 1_555
N30_2 Pr3_2 1_555 1_555
N5_2 N6_2 1_555 1_555
N6_2 N7_2 1_555 1_555
Pr8 O23_2 1_555 1_555
N24_2 Pr8 1_555 1_555
N23_3 N22_3 1_555 1_555
Pr1_3 O2_3 1_555 1_555
Pr2_3 O1_3 1_555 1_555
Pr5 O2_3 1_555 1_555
Pr8_2 O6_3 1_555 1_555
O1_3 H1_3 1_555 1_555
H2_3 O1_3 1_555 1_555
O2_3 C2_3 1_555 1_555
O3_3 Pr2_3 1_555 1_555
H3_3 O3_3 1_555 1_555
H4_3 O3_3 1_555 1_555
O4_3 Pr5 1_555 1_555
H5_3 O4_3 1_555 1_555
H6_3 O4_3 1_555 1_555
O5_3 C2_3 1_555 1_555
O6_3 H7_3 1_555 1_555
H8_3 O6_3 1_555 1_555
O7_3 Pr5 1_555 1_555
H9_3 O7_3 1_555 1_555
H10_3 O7_3 1_555 1_555
O8_3 Pr1_3 1_555 1_555
H11_3 O8_3 1_555 1_555
H12_3 O8_3 1_555 1_555
O9_3 Pr1_3 1_555 1_555
H13_3 O9_3 1_555 1_555
H14_3 O9_3 1_555 1_555
O10_3 Pr1_3 1_555 1_555
H15_3 O10_3 1_555 1_555
H16_3 O10_3 1_555 1_555
O11_3 Pr8_2 1_555 1_555
H17_3 O11_3 1_555 1_555
H18_3 O11_3 1_555 1_555
O12_3 Pr2_3 1_555 1_555
O13_3 Pr8_2 1_555 1_555
H21_3 O13_3 1_555 1_555
H22_3 O13_3 1_555 1_555
O14_3 Pr1_3 1_555 1_555
O15_3 Pr8_2 1_555 1_555
O26 C6_3 1_555 1_555
O17_3 Pr1_3 1_555 1_555
O27_2 C8_3 1_555 1_555
O19_3 Pr2_3 1_555 1_555
O20_3 Pr1_3 1_555 1_555
O21_3 Pr2_3 1_555 1_555
O22_3 Pr2_3 1_555 1_555
O29_2 C14_3 1_555 1_555
O25_3 Pr2_3 1_555 1_555
N1_3 Pr1_3 1_555 1_555
N2_3 N1_3 1_555 1_555
N3_3 N2_3 1_555 1_555
N4_3 N3_3 1_555 1_555
N8_3 Pr8_2 1_555 1_555
N29 N10_3 1_555 1_555
N10_3 N11_3 1_555 1_555
N11_3 N12_3 1_555 1_555
N12_3 Pr1_3 1_555 1_555
N30_2 N14_3 1_555 1_555
N14_3 N15_3 1_555 1_555
N15_3 N16_3 1_555 1_555
N16_3 C7_3 1_555 1_555
N17_3 Pr5 1_555 1_555
N18_3 N17_3 1_555 1_555
N19_3 N18_3 1_555 1_555
N20_3 Pr2_3 1_555 1_555
N21_3 Pr2_3 1_555 1_555
N32_2 N26_3 1_555 1_555
N26_3 N27_3 1_555 1_555
N27_3 N28_3 1_555 1_555
N28_3 C13_3 1_555 1_555
C1_3 N1_3 1_555 1_555
C2_3 C1_3 1_555 1_555
C4_3 O14_3 1_555 1_555
C5_3 N29 1_555 1_555
C6_3 O17_3 1_555 1_555
C7_3 N30_2 1_555 1_555
C8_3 O19_3 1_555 1_555
C9_3 N17_3 1_555 1_555
C10_3 O20_3 1_555 1_555
C11_3 N21_3 1_555 1_555
C12_3 O22_3 1_555 1_555
C13_3 N32_2 1_555 1_555
C14_3 O25_3 1_555 1_555
O28_2 Pr8_2 1_555 1_555
N31_2 Pr8_2 1_555 1_555
Pr5 O20_3 1_555 1_555
O15_3 C4_3 1_555 1_555
O21_3 C10_3 1_555 1_555
N4_3 C1_3 1_555 1_555
N8_3 C3_3 1_555 1_555
N12_3 C5_3 1_555 1_555
N19_3 N20_3 1_555 1_555
N20_3 C9_3 1_555 1_555
C3_3 C4_3 1_555 1_555
C5_3 C6_3 1_555 1_555
C7_3 C8_3 1_555 1_555
C9_3 C10_3 1_555 1_555
C11_3 C12_3 1_555 1_555
C13_3 C14_3 1_555 1_555
Pr6 O2_4 1_555 1_555
O2_4 C2_4 1_555 1_555
O4_4 Pr6 1_555 1_555
H5_4 O4_4 1_555 1_555
H6_4 O4_4 1_555 1_555
O5_4 C2_4 1_555 1_555
Pr2_4 O1_4 1_555 1_555
O1_4 H1_4 1_555 1_555
H2_4 O1_4 1_555 1_555
O3_4 Pr2_4 1_555 1_555
H3_4 O3_4 1_555 1_555
H9_4 O7_4 1_555 1_555
H11_4 O8_4 1_555 1_555
H12_4 O8_4 1_555 1_555
O12_4 Pr2_4 1_555 1_555
H19_4 O12_4 1_555 1_555
O27 C8_4 1_555 1_555
O19_4 Pr2_4 1_555 1_555
O21_4 Pr2_4 1_555 1_555
O22_4 Pr2_4 1_555 1_555
N30 N14_4 1_555 1_555
N14_4 N15_4 1_555 1_555
N15_4 N16_4 1_555 1_555
N16_4 C7_4 1_555 1_555
N18_4 N17_4 1_555 1_555
N19_4 N18_4 1_555 1_555
N20_4 Pr2_4 1_555 1_555
N21_4 Pr2_4 1_555 1_555
N22_4 N21_4 1_555 1_555
N23_4 N22_4 1_555 1_555
C7_4 N30 1_555 1_555
C8_4 O19_4 1_555 1_555
C9_4 N17_4 1_555 1_555
C10_4 O20_4 1_555 1_555
C11_4 N21_4 1_555 1_555
C12_4 O22_4 1_555 1_555
O21_4 C10_4 1_555 1_555
N19_4 N20_4 1_555 1_555
N20_4 C9_4 1_555 1_555
C7_4 C8_4 1_555 1_555
C9_4 C10_4 1_555 1_555
C11_4 C12_4 1_555 1_555
O26_2 C6_4 1_555 1_555
N2_4 N1_4 1_555 1_555
N3_4 N2_4 1_555 1_555
N4_4 N3_4 1_555 1_555
C1_4 N1_4 1_555 1_555
C6_4 O17_4 1_555 1_555
N4_4 C1_4 1_555 1_555
Pr8 O6_4 1_555 1_555
O6_4 H7_4 1_555 1_555
H8_4 O6_4 1_555 1_555
O9_4 Pr1_4 1_555 1_555
H13_4 O9_4 1_555 1_555
H14_4 O9_4 1_555 1_555
O10_4 Pr1_4 1_555 1_555
H15_4 O10_4 1_555 1_555
H16_4 O10_4 1_555 1_555
O11_4 Pr8 1_555 1_555
H17_4 O11_4 1_555 1_555
H18_4 O11_4 1_555 1_555
O13_4 Pr8 1_555 1_555
H21_4 O13_4 1_555 1_555
H22_4 O13_4 1_555 1_555
O14_4 Pr1_4 1_555 1_555
O15_4 Pr8 1_555 1_555
O29 C14_4 1_555 1_555
N8_4 Pr8 1_555 1_555
N29_2 N10_4 1_555 1_555
N10_4 N11_4 1_555 1_555
N11_4 N12_4 1_555 1_555
N12_4 Pr1_4 1_555 1_555
N32 N26_4 1_555 1_555
N26_4 N27_4 1_555 1_555
N27_4 N28_4 1_555 1_555
N28_4 C13_4 1_555 1_555
C4_4 O14_4 1_555 1_555
C5_4 N29_2 1_555 1_555
C13_4 N32 1_555 1_555
C14_4 O25_4 1_555 1_555
O15_4 C4_4 1_555 1_555
N8_4 C3_4 1_555 1_555
N12_4 C5_4 1_555 1_555
C3_4 C4_4 1_555 1_555
C13_4 C14_4 1_555 1_555
N5_3 N6_3 1_555 1_555
N6_3 N7_3 1_555 1_555
N5_4 N6_4 1_555 1_555
N6_4 N7_4 1_555 1_555

#END
