
###############################################################################
#
# This file contains modified crystal structure data generated from the
# MOF subset of the Cambridge Structural Database (CSD) v543 
# hosted by the Cambridge Crystallographic Data Centre (CCDC).
#
# This work is licensed under the Creative Commons
# Attribution-NonCommercial-ShareAlike 4.0 International License.
# To view a copy of this license, visit
# http://creativecommons.org/licenses/by-nc-sa/4.0/
# or send a letter to
# Creative Commons, PO Box 1866, Mountain View, CA 94042, USA.
#
# CIF created using the CSD Python API on 29 September 2022
# The structure has been converted into the P1 space group
# The structure has a 3D framework
# The original CSD entry OTIBUQ is in the orthorhombic crystal system
# The framework has been calculated to contain at least 10.0% void space
# The void calculation uses a probe of radius 1.32A, grid spacing 0.4
#
###############################################################################

data_OTIBUQ
_chemical_formula_moiety         '(C128 H70 Al4 N16 O20)n'
_symmetry_cell_setting           triclinic
_symmetry_space_group_name_H-M   'P 1'
_symmetry_Int_Tables_number      1
_space_group_name_Hall           'P 1'
loop_
_symmetry_equiv_pos_site_id
_symmetry_equiv_pos_as_xyz
1 x,y,z
_cell_length_a                   31.978(3)
_cell_length_b                   6.5812(4)
_cell_length_c                   16.862(2)
_cell_angle_alpha                90
_cell_angle_beta                 90
_cell_angle_gamma                90
_cell_volume                     3548.67
loop_
_atom_site_label
_atom_site_type_symbol
_atom_site_fract_x
_atom_site_fract_y
_atom_site_fract_z
O10 O 0.2749(15) 0.000 0
H28 H 0.3062(15) 0.000 0
Al6 Al 0.2500 0.2500 0
N1 N 0 0.000 0.6255(4)
H4 H 0 0.000 0.5662(4)
C11 C 0.1938(3) 0.000 0.8675(5)
C12 C 0.1672(3) 0.000 0.8171(5)
C15 C 0.10662(16) 0.000 0.7022(3)
C16 C 0.07631(17) 0.000 0.6447(3)
C17 C 0.0334(3) 0.000 0.6714(3)
C18 C 0.09041(18) 0.000 0.5633(6)
C19 C 0.0206(2) 0.000 0.7458(9)
N3 N 0.0662(2) 0.000 0.5000
C20 C 0.1296(5) 0.000 0.5391(4)
H9 H 0.0390(2) 0.000 0.7938(9)
H10 H 0.1549(5) 0.000 0.5740(4)
O4 O 0.2205(4) 0.1588(8) 0.0818(7)
C21 C 0.1938(3) 0.000 0.1325(5)
C22 C 0.1672(3) 0.000 0.1829(5)
C23 C 0.1521(2) 0.1804(6) 0.2116(5)
C24 C 0.12177(18) 0.1804(6) 0.2691(3)
H11 H 0.1631(2) 0.3120(6) 0.1906(5)
C25 C 0.10662(16) 0.000 0.2978(3)
H12 H 0.11071(18) 0.3120(6) 0.2900(3)
C26 C 0.07631(17) 0.000 0.3553(3)
C27 C 0.0334(3) 0.000 0.3286(3)
C28 C 0.09041(18) 0.000 0.4367(6)
N4 N 0 0.000 0.3745(4)
C29 C 0.0206(2) 0.000 0.2542(9)
C30 C 0.1296(5) 0.000 0.4609(4)
H13 H 0 0.000 0.4338(4)
H14 H 0.0390(2) 0.000 0.2062(9)
H15 H 0.1549(5) 0.000 0.4260(4)
O9 O 0.2205(4) 0.1588(8) 0.9182(7)
C47 C 0.1521(2) 0.1804(6) 0.7884(5)
C48 C 0.12177(18) 0.1804(6) 0.7309(3)
H26 H 0.1631(2) 0.3120(6) 0.8094(5)
H27 H 0.11071(18) 0.3120(6) 0.7100(3)
O10_2 O 0.2749(15) 0.000 1
H28_2 H 0.3062(15) 0.000 1
Al6_2 Al 0.2500 0.2500 1
Al2 Al 0.2500 0.7500 0
O10_3 O 0.2749(15) 1.000 0
H28_3 H 0.3062(15) 1.000 0
O11 O 0.2205(4) 0.8412(8) 0.0818(7)
O16 O 0.2795(4) 0.6588(8) 0.0818(7)
O17 O 0.2251(15) 0.500 0
N1_2 N 0 1.000 0.6255(4)
H4_2 H 0 1.000 0.5662(4)
O3 O 0.2205(4) 0.8412(8) 0.9182(7)
C11_2 C 0.1938(3) 1.000 0.8675(5)
C12_2 C 0.1672(3) 1.000 0.8171(5)
C13 C 0.1521(2) 0.8196(6) 0.7884(5)
C14 C 0.12177(18) 0.8196(6) 0.7309(3)
H7 H 0.1631(2) 0.6880(6) 0.8094(5)
C15_2 C 0.10662(16) 1.000 0.7022(3)
H8 H 0.11071(18) 0.6880(6) 0.7100(3)
C16_2 C 0.07631(17) 1.000 0.6447(3)
C17_2 C 0.0334(3) 1.000 0.6714(3)
C18_2 C 0.09041(18) 1.000 0.5633(6)
C19_2 C 0.0206(2) 1.000 0.7458(9)
N3_2 N 0.0662(2) 1.000 0.5000
C20_2 C 0.1296(5) 1.000 0.5391(4)
H9_2 H 0.0390(2) 1.000 0.7938(9)
H10_2 H 0.1549(5) 1.000 0.5740(4)
C21_2 C 0.1938(3) 1.000 0.1325(5)
C22_2 C 0.1672(3) 1.000 0.1829(5)
C25_2 C 0.10662(16) 1.000 0.2978(3)
C26_2 C 0.07631(17) 1.000 0.3553(3)
C27_2 C 0.0334(3) 1.000 0.3286(3)
C28_2 C 0.09041(18) 1.000 0.4367(6)
N4_2 N 0 1.000 0.3745(4)
C29_2 C 0.0206(2) 1.000 0.2542(9)
C30_2 C 0.1296(5) 1.000 0.4609(4)
H13_2 H 0 1.000 0.4338(4)
H14_2 H 0.0390(2) 1.000 0.2062(9)
H15_2 H 0.1549(5) 1.000 0.4260(4)
C41 C 0.1521(2) 0.8196(6) 0.2116(5)
C42 C 0.12177(18) 0.8196(6) 0.2691(3)
H20 H 0.1631(2) 0.6880(6) 0.1906(5)
H21 H 0.11071(18) 0.6880(6) 0.2900(3)
Al2_2 Al 0.2500 0.7500 1
O10_4 O 0.2749(15) 1.000 1
H28_4 H 0.3062(15) 1.000 1
O13 O 0.2795(4) 0.6588(8) 0.9182(7)
O17_2 O 0.2251(15) 0.500 1
Al1 Al 0.7500 0.2500 0
O2 O 0.7251(15) 0.000 0
H1 H 0.6938(15) 0.000 0
O12 O 0.7795(4) 0.1588(8) 0.0818(7)
O15 O 0.7205(4) 0.3412(8) 0.0818(7)
O18 O 0.7749(15) 0.500 0
Al1_2 Al 0.7500 0.2500 1
O1 O 0.7795(4) 0.1588(8) 0.9182(7)
O2_2 O 0.7251(15) 0.000 1
C1 C 0.8062(3) 0.000 0.8675(5)
H1_2 H 0.6938(15) 0.000 1
C2 C 0.8328(3) 0.000 0.8171(5)
C3 C 0.8479(2) 0.1804(6) 0.7884(5)
C4 C 0.87823(18) 0.1804(6) 0.7309(3)
H2 H 0.8369(2) 0.3120(6) 0.8094(5)
C5 C 0.89338(16) 0.000 0.7022(3)
H3 H 0.88929(18) 0.3120(6) 0.7100(3)
C6 C 0.92369(17) 0.000 0.6447(3)
C7 C 0.9666(3) 0.000 0.6714(3)
C8 C 0.90959(18) 0.000 0.5633(6)
N1_3 N 1 0.000 0.6255(4)
C9 C 0.9794(2) 0.000 0.7458(9)
N2 N 0.9338(2) 0.000 0.5000
C10 C 0.8704(5) 0.000 0.5391(4)
H4_3 H 1 0.000 0.5662(4)
H5 H 0.9610(2) 0.000 0.7938(9)
H6 H 0.8451(5) 0.000 0.5740(4)
N4_3 N 1 0.000 0.3745(4)
H13_3 H 1 0.000 0.4338(4)
C31 C 0.8062(3) 0.000 0.1325(5)
C32 C 0.8328(3) 0.000 0.1829(5)
C35 C 0.89338(16) 0.000 0.2978(3)
C36 C 0.92369(17) 0.000 0.3553(3)
C37 C 0.9666(3) 0.000 0.3286(3)
C38 C 0.90959(18) 0.000 0.4367(6)
C39 C 0.9794(2) 0.000 0.2542(9)
C40 C 0.8704(5) 0.000 0.4609(4)
H18 H 0.9610(2) 0.000 0.2062(9)
H19 H 0.8451(5) 0.000 0.4260(4)
C43 C 0.8479(2) 0.1804(6) 0.2116(5)
C44 C 0.87823(18) 0.1804(6) 0.2691(3)
H22 H 0.8369(2) 0.3120(6) 0.1906(5)
H23 H 0.88929(18) 0.3120(6) 0.2900(3)
O14 O 0.7205(4) 0.3412(8) 0.9182(7)
O18_2 O 0.7749(15) 0.500 1
O2_3 O 0.7251(15) 1.000 0
H1_3 H 0.6938(15) 1.000 0
Al8 Al 0.7500 0.7500 0
O2_4 O 0.7251(15) 1.000 1
C1_2 C 0.8062(3) 1.000 0.8675(5)
H1_4 H 0.6938(15) 1.000 1
C2_2 C 0.8328(3) 1.000 0.8171(5)
C5_2 C 0.89338(16) 1.000 0.7022(3)
C6_2 C 0.92369(17) 1.000 0.6447(3)
C7_2 C 0.9666(3) 1.000 0.6714(3)
C8_2 C 0.90959(18) 1.000 0.5633(6)
N1_4 N 1 1.000 0.6255(4)
C9_2 C 0.9794(2) 1.000 0.7458(9)
N2_2 N 0.9338(2) 1.000 0.5000
C10_2 C 0.8704(5) 1.000 0.5391(4)
H4_4 H 1 1.000 0.5662(4)
H5_2 H 0.9610(2) 1.000 0.7938(9)
H6_2 H 0.8451(5) 1.000 0.5740(4)
N4_4 N 1 1.000 0.3745(4)
H13_4 H 1 1.000 0.4338(4)
O5 O 0.7795(4) 0.8412(8) 0.0818(7)
C31_2 C 0.8062(3) 1.000 0.1325(5)
C32_2 C 0.8328(3) 1.000 0.1829(5)
C33 C 0.8479(2) 0.8196(6) 0.2116(5)
C34 C 0.87823(18) 0.8196(6) 0.2691(3)
H16 H 0.8369(2) 0.6880(6) 0.1906(5)
C35_2 C 0.89338(16) 1.000 0.2978(3)
H17 H 0.88929(18) 0.6880(6) 0.2900(3)
C36_2 C 0.92369(17) 1.000 0.3553(3)
C37_2 C 0.9666(3) 1.000 0.3286(3)
C38_2 C 0.90959(18) 1.000 0.4367(6)
C39_2 C 0.9794(2) 1.000 0.2542(9)
C40_2 C 0.8704(5) 1.000 0.4609(4)
H18_2 H 0.9610(2) 1.000 0.2062(9)
H19_2 H 0.8451(5) 1.000 0.4260(4)
O8 O 0.7795(4) 0.8412(8) 0.9182(7)
C45 C 0.8479(2) 0.8196(6) 0.7884(5)
C46 C 0.87823(18) 0.8196(6) 0.7309(3)
H24 H 0.8369(2) 0.6880(6) 0.8094(5)
H25 H 0.88929(18) 0.6880(6) 0.7100(3)
Al8_2 Al 0.7500 0.7500 1
O14_2 O 0.2795(4) 0.3412(8) 0.0818(7)
O15_2 O 0.2795(4) 0.3412(8) 0.9182(7)
O13_2 O 0.7205(4) 0.6588(8) 0.0818(7)
O16_2 O 0.7205(4) 0.6588(8) 0.9182(7)
H1_5 H 0.1938(15) 0.500 0
H28_5 H 0.8062(15) 0.500 0
C1_3 C 0.3062(3) 0.500 0.8675(5)
H1_6 H 0.1938(15) 0.500 1
C2_3 C 0.3328(3) 0.500 0.8171(5)
C3_2 C 0.3479(2) 0.6804(6) 0.7884(5)
C4_2 C 0.37823(18) 0.6804(6) 0.7309(3)
H2_2 H 0.3369(2) 0.8120(6) 0.8094(5)
C5_3 C 0.39338(16) 0.500 0.7022(3)
H3_2 H 0.38929(18) 0.8120(6) 0.7100(3)
C6_3 C 0.42369(17) 0.500 0.6447(3)
C7_3 C 0.4666(3) 0.500 0.6714(3)
C8_3 C 0.40959(18) 0.500 0.5633(6)
N1_5 N 0.5 0.500 0.6255(4)
C9_3 C 0.4794(2) 0.500 0.7458(9)
N2_3 N 0.4338(2) 0.500 0.5000
C10_3 C 0.3704(5) 0.500 0.5391(4)
H4_5 H 0.5 0.500 0.5662(4)
H5_3 H 0.4610(2) 0.500 0.7938(9)
H6_3 H 0.3451(5) 0.500 0.5740(4)
C11_3 C 0.6938(3) 0.500 0.8675(5)
C12_3 C 0.6672(3) 0.500 0.8171(5)
C13_2 C 0.6521(2) 0.3196(6) 0.7884(5)
C14_2 C 0.62177(18) 0.3196(6) 0.7309(3)
H7_2 H 0.6631(2) 0.1880(6) 0.8094(5)
C15_3 C 0.60662(16) 0.500 0.7022(3)
H8_2 H 0.61071(18) 0.1880(6) 0.7100(3)
C16_3 C 0.57631(17) 0.500 0.6447(3)
C17_3 C 0.5334(3) 0.500 0.6714(3)
C18_3 C 0.59041(18) 0.500 0.5633(6)
C19_3 C 0.5206(2) 0.500 0.7458(9)
N3_3 N 0.5662(2) 0.500 0.5000
C20_3 C 0.6296(5) 0.500 0.5391(4)
H9_3 H 0.5390(2) 0.500 0.7938(9)
H10_3 H 0.6549(5) 0.500 0.5740(4)
C21_3 C 0.6938(3) 0.500 0.1325(5)
C22_3 C 0.6672(3) 0.500 0.1829(5)
C23_2 C 0.6521(2) 0.6804(6) 0.2116(5)
C24_2 C 0.62177(18) 0.6804(6) 0.2691(3)
H11_2 H 0.6631(2) 0.8120(6) 0.1906(5)
C25_3 C 0.60662(16) 0.500 0.2978(3)
H12_2 H 0.61071(18) 0.8120(6) 0.2900(3)
C26_3 C 0.57631(17) 0.500 0.3553(3)
C27_3 C 0.5334(3) 0.500 0.3286(3)
C28_3 C 0.59041(18) 0.500 0.4367(6)
N4_5 N 0.5 0.500 0.3745(4)
C29_3 C 0.5206(2) 0.500 0.2542(9)
C30_3 C 0.6296(5) 0.500 0.4609(4)
H13_5 H 0.5 0.500 0.4338(4)
H14_3 H 0.5390(2) 0.500 0.2062(9)
H15_3 H 0.6549(5) 0.500 0.4260(4)
C31_3 C 0.3062(3) 0.500 0.1325(5)
C32_3 C 0.3328(3) 0.500 0.1829(5)
C33_2 C 0.3479(2) 0.3196(6) 0.2116(5)
C34_2 C 0.37823(18) 0.3196(6) 0.2691(3)
H16_2 H 0.3369(2) 0.1880(6) 0.1906(5)
C35_3 C 0.39338(16) 0.500 0.2978(3)
H17_2 H 0.38929(18) 0.1880(6) 0.2900(3)
C36_3 C 0.42369(17) 0.500 0.3553(3)
C37_3 C 0.4666(3) 0.500 0.3286(3)
C38_3 C 0.40959(18) 0.500 0.4367(6)
C39_3 C 0.4794(2) 0.500 0.2542(9)
C40_3 C 0.3704(5) 0.500 0.4609(4)
H18_3 H 0.4610(2) 0.500 0.2062(9)
H19_3 H 0.3451(5) 0.500 0.4260(4)
C41_2 C 0.6521(2) 0.3196(6) 0.2116(5)
C42_2 C 0.62177(18) 0.3196(6) 0.2691(3)
H20_2 H 0.6631(2) 0.1880(6) 0.1906(5)
H21_2 H 0.61071(18) 0.1880(6) 0.2900(3)
C43_2 C 0.3479(2) 0.6804(6) 0.2116(5)
C44_2 C 0.37823(18) 0.6804(6) 0.2691(3)
H22_2 H 0.3369(2) 0.8120(6) 0.1906(5)
H23_2 H 0.38929(18) 0.8120(6) 0.2900(3)
C45_2 C 0.3479(2) 0.3196(6) 0.7884(5)
C46_2 C 0.37823(18) 0.3196(6) 0.7309(3)
H24_2 H 0.3369(2) 0.1880(6) 0.8094(5)
H25_2 H 0.38929(18) 0.1880(6) 0.7100(3)
C47_2 C 0.6521(2) 0.6804(6) 0.7884(5)
C48_2 C 0.62177(18) 0.6804(6) 0.7309(3)
H26_2 H 0.6631(2) 0.8120(6) 0.8094(5)
H27_2 H 0.61071(18) 0.8120(6) 0.7100(3)
H28_6 H 0.8062(15) 0.500 1
loop_
_geom_bond_atom_site_label_1
_geom_bond_atom_site_label_2
_geom_bond_site_symmetry_1
_geom_bond_site_symmetry_2
H28 O10 1_555 1_555
O10 Al6 1_555 1_555
N1 H4 1_555 1_555
C11 C12 1_555 1_555
C15 C16 1_555 1_555
C16 C17 1_555 1_555
C17 N1 1_555 1_555
C18 C16 1_555 1_555
N3 C18 1_555 1_555
C20 C18 1_555 1_555
H9 C19 1_555 1_555
H10 C20 1_555 1_555
O4 C21 1_555 1_555
C21 C22 1_555 1_555
C22 C23 1_555 1_555
C23 C24 1_555 1_555
C24 C25 1_555 1_555
H11 C23 1_555 1_555
C25 C26 1_555 1_555
H12 C24 1_555 1_555
C26 C27 1_555 1_555
C27 N4 1_555 1_555
C28 N3 1_555 1_555
N4 H13 1_555 1_555
C29 C27 1_555 1_555
C30 C20 1_555 1_555
H14 C29 1_555 1_555
H15 C30 1_555 1_555
O9 C11 1_555 1_555
C47 C12 1_555 1_555
C48 C15 1_555 1_555
H26 C47 1_555 1_555
H27 C48 1_555 1_555
H28_2 O10_2 1_555 1_555
Al6 O4 1_555 1_555
Al6_2 O9 1_555 1_555
C17 C19 1_555 1_555
C26 C28 1_555 1_555
C28 C30 1_555 1_555
C47 C48 1_555 1_555
O10_2 Al6_2 1_555 1_555
O10_3 Al2 1_555 1_555
H28_3 O10_3 1_555 1_555
O11 Al2 1_555 1_555
O16 Al2 1_555 1_555
O17 Al2 1_555 1_555
N1_2 H4_2 1_555 1_555
O3 C11_2 1_555 1_555
C11_2 C12_2 1_555 1_555
C12_2 C13 1_555 1_555
C13 C14 1_555 1_555
C14 C15_2 1_555 1_555
H7 C13 1_555 1_555
C15_2 C16_2 1_555 1_555
H8 C14 1_555 1_555
C16_2 C17_2 1_555 1_555
C17_2 N1_2 1_555 1_555
C18_2 C16_2 1_555 1_555
N3_2 C18_2 1_555 1_555
C20_2 C18_2 1_555 1_555
H9_2 C19_2 1_555 1_555
H10_2 C20_2 1_555 1_555
C21_2 C22_2 1_555 1_555
C25_2 C26_2 1_555 1_555
C26_2 C27_2 1_555 1_555
C27_2 N4_2 1_555 1_555
C28_2 N3_2 1_555 1_555
N4_2 H13_2 1_555 1_555
C29_2 C27_2 1_555 1_555
C30_2 C20_2 1_555 1_555
H14_2 C29_2 1_555 1_555
H15_2 C30_2 1_555 1_555
O11 C21_2 1_555 1_555
C41 C22_2 1_555 1_555
C42 C25_2 1_555 1_555
H20 C41 1_555 1_555
H21 C42 1_555 1_555
Al2_2 O3 1_555 1_555
O10_4 Al2_2 1_555 1_555
H28_4 O10_4 1_555 1_555
O13 Al2_2 1_555 1_555
O17_2 Al2_2 1_555 1_555
C17_2 C19_2 1_555 1_555
C26_2 C28_2 1_555 1_555
C28_2 C30_2 1_555 1_555
C41 C42 1_555 1_555
O2 Al1 1_555 1_555
H1 O2 1_555 1_555
O12 Al1 1_555 1_555
O15 Al1 1_555 1_555
O18 Al1 1_555 1_555
Al1_2 O1 1_555 1_555
O1 C1 1_555 1_555
O2_2 Al1_2 1_555 1_555
C1 C2 1_555 1_555
H1_2 O2_2 1_555 1_555
C2 C3 1_555 1_555
C3 C4 1_555 1_555
C4 C5 1_555 1_555
H2 C3 1_555 1_555
C5 C6 1_555 1_555
H3 C4 1_555 1_555
C6 C7 1_555 1_555
C7 N1_3 1_555 1_555
C8 C6 1_555 1_555
N1_3 H4_3 1_555 1_555
C9 C7 1_555 1_555
N2 C8 1_555 1_555
C10 C8 1_555 1_555
H5 C9 1_555 1_555
H6 C10 1_555 1_555
N4_3 H13_3 1_555 1_555
C31 C32 1_555 1_555
C35 C36 1_555 1_555
C36 C37 1_555 1_555
C37 N4_3 1_555 1_555
C38 N2 1_555 1_555
C40 C10 1_555 1_555
H18 C39 1_555 1_555
H19 C40 1_555 1_555
O12 C31 1_555 1_555
C43 C32 1_555 1_555
C44 C35 1_555 1_555
H22 C43 1_555 1_555
H23 C44 1_555 1_555
O14 Al1_2 1_555 1_555
O18_2 Al1_2 1_555 1_555
C36 C38 1_555 1_555
C37 C39 1_555 1_555
C38 C40 1_555 1_555
C43 C44 1_555 1_555
H1_3 O2_3 1_555 1_555
Al8 O2_3 1_555 1_555
C1_2 C2_2 1_555 1_555
H1_4 O2_4 1_555 1_555
C5_2 C6_2 1_555 1_555
C6_2 C7_2 1_555 1_555
C7_2 N1_4 1_555 1_555
C8_2 C6_2 1_555 1_555
N1_4 H4_4 1_555 1_555
C9_2 C7_2 1_555 1_555
N2_2 C8_2 1_555 1_555
C10_2 C8_2 1_555 1_555
H5_2 C9_2 1_555 1_555
H6_2 C10_2 1_555 1_555
N4_4 H13_4 1_555 1_555
O5 C31_2 1_555 1_555
C31_2 C32_2 1_555 1_555
C32_2 C33 1_555 1_555
C33 C34 1_555 1_555
C34 C35_2 1_555 1_555
H16 C33 1_555 1_555
C35_2 C36_2 1_555 1_555
H17 C34 1_555 1_555
C36_2 C37_2 1_555 1_555
C37_2 N4_4 1_555 1_555
C38_2 N2_2 1_555 1_555
C40_2 C10_2 1_555 1_555
H18_2 C39_2 1_555 1_555
H19_2 C40_2 1_555 1_555
O8 C1_2 1_555 1_555
C45 C2_2 1_555 1_555
C46 C5_2 1_555 1_555
H24 C45 1_555 1_555
H25 C46 1_555 1_555
Al8 O5 1_555 1_555
Al8_2 O2_4 1_555 1_555
C36_2 C38_2 1_555 1_555
C37_2 C39_2 1_555 1_555
C38_2 C40_2 1_555 1_555
O8 Al8_2 1_555 1_555
C45 C46 1_555 1_555
O14_2 Al6 1_555 1_555
O17 Al6 1_555 1_555
O15_2 Al6_2 1_555 1_555
O17_2 Al6_2 1_555 1_555
O13_2 Al8 1_555 1_555
O18 Al8 1_555 1_555
O16_2 Al8_2 1_555 1_555
O18_2 Al8_2 1_555 1_555
H1_5 O17 1_555 1_555
H28_5 O18 1_555 1_555
O13 C1_3 1_555 1_555
C1_3 C2_3 1_555 1_555
H1_6 O17_2 1_555 1_555
C2_3 C3_2 1_555 1_555
C3_2 C4_2 1_555 1_555
C4_2 C5_3 1_555 1_555
H2_2 C3_2 1_555 1_555
C5_3 C6_3 1_555 1_555
H3_2 C4_2 1_555 1_555
C6_3 C7_3 1_555 1_555
C7_3 N1_5 1_555 1_555
C8_3 C6_3 1_555 1_555
N1_5 H4_5 1_555 1_555
C9_3 C7_3 1_555 1_555
N2_3 C8_3 1_555 1_555
C10_3 C8_3 1_555 1_555
H5_3 C9_3 1_555 1_555
H6_3 C10_3 1_555 1_555
O14 C11_3 1_555 1_555
C11_3 C12_3 1_555 1_555
C12_3 C13_2 1_555 1_555
C13_2 C14_2 1_555 1_555
C14_2 C15_3 1_555 1_555
H7_2 C13_2 1_555 1_555
C15_3 C16_3 1_555 1_555
H8_2 C14_2 1_555 1_555
C16_3 C17_3 1_555 1_555
C17_3 N1_5 1_555 1_555
C18_3 C16_3 1_555 1_555
C19_3 C9_3 1_555 1_555
N3_3 C18_3 1_555 1_555
C20_3 C18_3 1_555 1_555
H9_3 C19_3 1_555 1_555
H10_3 C20_3 1_555 1_555
O13_2 C21_3 1_555 1_555
C21_3 C22_3 1_555 1_555
C22_3 C23_2 1_555 1_555
C23_2 C24_2 1_555 1_555
C24_2 C25_3 1_555 1_555
H11_2 C23_2 1_555 1_555
C25_3 C26_3 1_555 1_555
H12_2 C24_2 1_555 1_555
C26_3 C27_3 1_555 1_555
C27_3 N4_5 1_555 1_555
C28_3 N3_3 1_555 1_555
N4_5 H13_5 1_555 1_555
C29_3 C27_3 1_555 1_555
C30_3 C20_3 1_555 1_555
H14_3 C29_3 1_555 1_555
H15_3 C30_3 1_555 1_555
O14_2 C31_3 1_555 1_555
C31_3 C32_3 1_555 1_555
C32_3 C33_2 1_555 1_555
C33_2 C34_2 1_555 1_555
C34_2 C35_3 1_555 1_555
H16_2 C33_2 1_555 1_555
C35_3 C36_3 1_555 1_555
H17_2 C34_2 1_555 1_555
C36_3 C37_3 1_555 1_555
C37_3 N4_5 1_555 1_555
C38_3 N2_3 1_555 1_555
C39_3 C29_3 1_555 1_555
C40_3 C10_3 1_555 1_555
H18_3 C39_3 1_555 1_555
H19_3 C40_3 1_555 1_555
O15 C21_3 1_555 1_555
C41_2 C22_3 1_555 1_555
C42_2 C25_3 1_555 1_555
H20_2 C41_2 1_555 1_555
H21_2 C42_2 1_555 1_555
O16 C31_3 1_555 1_555
C43_2 C32_3 1_555 1_555
C44_2 C35_3 1_555 1_555
H22_2 C43_2 1_555 1_555
H23_2 C44_2 1_555 1_555
O15_2 C1_3 1_555 1_555
C45_2 C2_3 1_555 1_555
C46_2 C5_3 1_555 1_555
H24_2 C45_2 1_555 1_555
H25_2 C46_2 1_555 1_555
O16_2 C11_3 1_555 1_555
C47_2 C12_3 1_555 1_555
C48_2 C15_3 1_555 1_555
H26_2 C47_2 1_555 1_555
H27_2 C48_2 1_555 1_555
H28_6 O18_2 1_555 1_555
C17_3 C19_3 1_555 1_555
C26_3 C28_3 1_555 1_555
C28_3 C30_3 1_555 1_555
C36_3 C38_3 1_555 1_555
C37_3 C39_3 1_555 1_555
C38_3 C40_3 1_555 1_555
C41_2 C42_2 1_555 1_555
C43_2 C44_2 1_555 1_555
C45_2 C46_2 1_555 1_555
C47_2 C48_2 1_555 1_555

#END
