
###############################################################################
#
# This file contains modified crystal structure data generated from the
# MOF subset of the Cambridge Structural Database (CSD) v543 
# hosted by the Cambridge Crystallographic Data Centre (CCDC).
#
# This work is licensed under the Creative Commons
# Attribution-NonCommercial-ShareAlike 4.0 International License.
# To view a copy of this license, visit
# http://creativecommons.org/licenses/by-nc-sa/4.0/
# or send a letter to
# Creative Commons, PO Box 1866, Mountain View, CA 94042, USA.
#
# CIF created using the CSD Python API on 29 September 2022
# The structure has been converted into the P1 space group
# The structure has a 3D framework
# The original CSD entry OTIJAE is in the rhombohedral crystal system
# The framework has been calculated to contain at least 10.0% void space
# The void calculation uses a probe of radius 1.32A, grid spacing 0.4
# The framework is charged, counterions have been retained in the structure
#
###############################################################################

data_OTIJAE
_chemical_formula_moiety         '(C288 H432 Cr30 Mn18 N36 O288)n'
_symmetry_cell_setting           triclinic
_symmetry_space_group_name_H-M   'P 1'
_symmetry_Int_Tables_number      1
_space_group_name_Hall           'P 1'
loop_
_symmetry_equiv_pos_site_id
_symmetry_equiv_pos_as_xyz
1 x,y,z
_cell_length_a                   26.3296(16)
_cell_length_b                   26.3296(16)
_cell_length_c                   23.314(3)
_cell_angle_alpha                90
_cell_angle_beta                 90
_cell_angle_gamma                120
_cell_volume                     13997
loop_
_atom_site_label
_atom_site_type_symbol
_atom_site_fract_x
_atom_site_fract_y
_atom_site_fract_z
H3 H 0.5504 0.2868 0.0192
C3 C 0.4352(5) 0.2267(5) 0.0065(6)
H7 H 0.4312 0.1886 0.0031
H9 H 0.4452 0.2403 0.0453
H11 H 0.4960 0.3393 0.0099
N1 N 0.4844(3) 0.2701(3) 0.9654(4)
C1 C 0.5396(5) 0.2724(9) 0.9807(8)
H1 H 0.5699 0.2980 0.9547
H2 H 0.5345 0.2337 0.9782
C2 C 0.4675(6) 0.2480(7) 0.9068(6)
H4 H 0.4976 0.2737 0.8806
H5 H 0.4313 0.2465 0.8972
H6 H 0.4625 0.2094 0.9042
H8 H 0.3988 0.2245 0.9964
C4 C 0.4867(8) 0.3259(6) 0.9710(8)
H10 H 0.5162 0.3540 0.9458
H12 H 0.4492 0.3213 0.9609
H3_2 H 0.7132 0.2636 0.0192
C3_2 C 0.7733(5) 0.2085(7) 0.0065(6)
H7_2 H 0.8114 0.2426 0.0031
H9_2 H 0.7597 0.2049 0.0453
H11_2 H 0.6607 0.1567 0.0099
N1_2 N 0.7299(3) 0.2143(4) 0.9654(4)
C1_2 C 0.7276(9) 0.2672(10) 0.9807(8)
H1_2 H 0.7020 0.2719 0.9547
H2_2 H 0.7663 0.3008 0.9782
C2_2 C 0.7520(7) 0.2195(9) 0.9068(6)
H4_2 H 0.7263 0.2239 0.8806
H5_2 H 0.7535 0.1848 0.8972
H6_2 H 0.7906 0.2531 0.9042
H8_2 H 0.7755 0.1743 0.9964
C4_2 C 0.6741(6) 0.1608(10) 0.9710(8)
H10_2 H 0.6460 0.1622 0.9458
H12_2 H 0.6787 0.1279 0.9609
H3_3 H 0.7364 0.4496 0.0192
C3_3 C 0.7915(7) 0.5648(5) 0.0065(6)
H7_3 H 0.7574 0.5688 0.0031
H9_3 H 0.7951 0.5548 0.0453
H11_3 H 0.8433 0.5040 0.0099
N1_3 N 0.7857(4) 0.5156(3) 0.9654(4)
C1_3 C 0.7328(10) 0.4604(5) 0.9807(8)
H1_3 H 0.7281 0.4301 0.9547
H2_3 H 0.6992 0.4655 0.9782
C2_3 C 0.7805(9) 0.5325(6) 0.9068(6)
H4_3 H 0.7761 0.5024 0.8806
H5_3 H 0.8152 0.5687 0.8972
H6_3 H 0.7469 0.5375 0.9042
H8_3 H 0.8257 0.6012 0.9964
C4_3 C 0.8392(10) 0.5133(8) 0.9710(8)
H10_3 H 0.8378 0.4838 0.9458
H12_3 H 0.8721 0.5508 0.9609
N1_4 N 0.7299(3) 0.5156(3) 0.4654(4)
C1_4 C 0.7276(9) 0.4604(5) 0.4807(8)
H1_4 H 0.7020 0.4301 0.4547
H2_4 H 0.7663 0.4655 0.4782
H3_4 H 0.7132 0.4496 0.5192
C2_4 C 0.7520(7) 0.5325(6) 0.4068(6)
H4_4 H 0.7263 0.5024 0.3806
H5_4 H 0.7535 0.5687 0.3972
H6_4 H 0.7906 0.5375 0.4042
C3_4 C 0.7733(5) 0.5648(5) 0.5065(6)
H7_4 H 0.8114 0.5688 0.5031
H8_4 H 0.7755 0.6012 0.4964
H9_4 H 0.7597 0.5548 0.5453
C4_4 C 0.6741(6) 0.5133(8) 0.4710(8)
H10_4 H 0.6460 0.4838 0.4458
H11_4 H 0.6607 0.5040 0.5099
H12_4 H 0.6787 0.5508 0.4609
N1_5 N 0.7857(4) 0.2701(3) 0.4654(4)
C1_5 C 0.7328(10) 0.2724(9) 0.4807(8)
H1_5 H 0.7281 0.2980 0.4547
H2_5 H 0.6992 0.2337 0.4782
H3_5 H 0.7364 0.2868 0.5192
C2_5 C 0.7805(9) 0.2480(7) 0.4068(6)
H4_5 H 0.7761 0.2737 0.3806
H5_5 H 0.8152 0.2465 0.3972
H6_5 H 0.7469 0.2094 0.4042
C3_5 C 0.7915(7) 0.2267(5) 0.5065(6)
H7_5 H 0.7574 0.1886 0.5031
H8_5 H 0.8257 0.2245 0.4964
H9_5 H 0.7951 0.2403 0.5453
C4_5 C 0.8392(10) 0.3259(6) 0.4710(8)
H10_5 H 0.8378 0.3540 0.4458
H11_5 H 0.8433 0.3393 0.5099
H12_5 H 0.8721 0.3213 0.4609
N1_6 N 0.4844(3) 0.2143(4) 0.4654(4)
C1_6 C 0.5396(5) 0.2672(10) 0.4807(8)
H1_6 H 0.5699 0.2719 0.4547
H2_6 H 0.5345 0.3008 0.4782
H3_6 H 0.5504 0.2636 0.5192
C2_6 C 0.4675(6) 0.2195(9) 0.4068(6)
H4_6 H 0.4976 0.2239 0.3806
H5_6 H 0.4313 0.1848 0.3972
H6_6 H 0.4625 0.2531 0.4042
C3_6 C 0.4352(5) 0.2085(7) 0.5065(6)
H7_6 H 0.4312 0.2426 0.5031
H8_6 H 0.3988 0.1743 0.4964
H9_6 H 0.4452 0.2049 0.5453
C4_6 C 0.4867(8) 0.1608(10) 0.4710(8)
H10_6 H 0.5162 0.1622 0.4458
H11_6 H 0.4960 0.1567 0.5099
H12_6 H 0.4492 0.1279 0.4609
N1_7 N 0.1511(3) 0.6034(3) 0.2987(4)
C1_7 C 0.2063(5) 0.6057(9) 0.3140(8)
H1_7 H 0.2366 0.6313 0.2880
H2_7 H 0.2012 0.5670 0.3115
H3_7 H 0.2171 0.6201 0.3525
C2_7 C 0.1342(6) 0.5813(7) 0.2401(6)
H4_7 H 0.1643 0.6070 0.2139
H5_7 H 0.0980 0.5798 0.2305
H6_7 H 0.1292 0.5427 0.2375
C3_7 C 0.1019(5) 0.5600(5) 0.3398(6)
H7_7 H 0.0979 0.5219 0.3364
H8_7 H 0.0655 0.5578 0.3297
H9_7 H 0.1119 0.5736 0.3786
C4_7 C 0.1534(8) 0.6592(6) 0.3043(8)
H10_7 H 0.1829 0.6873 0.2791
H11_7 H 0.1627 0.6726 0.3432
H12_7 H 0.1159 0.6546 0.2942
N1_8 N 0.3966(3) 0.5476(4) 0.2987(4)
C1_8 C 0.3943(9) 0.6005(10) 0.3140(8)
H1_8 H 0.3687 0.6052 0.2880
H2_8 H 0.4330 0.6341 0.3115
H3_8 H 0.3799 0.5969 0.3525
C2_8 C 0.4187(7) 0.5528(9) 0.2401(6)
H4_8 H 0.3930 0.5572 0.2139
H5_8 H 0.4202 0.5181 0.2305
H6_8 H 0.4573 0.5864 0.2375
C3_8 C 0.4400(5) 0.5418(7) 0.3398(6)
H7_8 H 0.4781 0.5759 0.3364
H8_8 H 0.4422 0.5076 0.3297
H9_8 H 0.4264 0.5382 0.3786
C4_8 C 0.3408(6) 0.4941(10) 0.3043(8)
H10_8 H 0.3127 0.4955 0.2791
H11_8 H 0.3274 0.4900 0.3432
H12_8 H 0.3454 0.4612 0.2942
N1_9 N 0.4524(4) 0.8489(3) 0.2987(4)
C1_9 C 0.3995(10) 0.7937(5) 0.3140(8)
H1_9 H 0.3948 0.7634 0.2880
H2_9 H 0.3659 0.7988 0.3115
H3_9 H 0.4031 0.7829 0.3525
C2_9 C 0.4472(9) 0.8658(6) 0.2401(6)
H4_9 H 0.4428 0.8357 0.2139
H5_9 H 0.4819 0.9020 0.2305
H6_9 H 0.4136 0.8708 0.2375
C3_9 C 0.4582(7) 0.8981(5) 0.3398(6)
H7_9 H 0.4241 0.9021 0.3364
H8_9 H 0.4924 0.9345 0.3297
H9_9 H 0.4618 0.8881 0.3786
C4_9 C 0.5059(10) 0.8466(8) 0.3043(8)
H10_9 H 0.5045 0.8171 0.2791
H11_9 H 0.5100 0.8373 0.3432
H12_9 H 0.5388 0.8841 0.2942
N1_10 N 0.3966(3) 0.8489(3) 0.7987(4)
C1_10 C 0.3943(9) 0.7937(5) 0.8140(8)
H1_10 H 0.3687 0.7634 0.7880
H2_10 H 0.4330 0.7988 0.8115
H3_10 H 0.3799 0.7829 0.8525
C2_10 C 0.4187(7) 0.8658(6) 0.7401(6)
H4_10 H 0.3930 0.8357 0.7139
H5_10 H 0.4202 0.9020 0.7305
H6_10 H 0.4573 0.8708 0.7375
C3_10 C 0.4400(5) 0.8981(5) 0.8398(6)
H7_10 H 0.4781 0.9021 0.8364
H8_10 H 0.4422 0.9345 0.8297
H9_10 H 0.4264 0.8881 0.8786
C4_10 C 0.3408(6) 0.8466(8) 0.8043(8)
H10_10 H 0.3127 0.8171 0.7791
H11_10 H 0.3274 0.8373 0.8432
H12_10 H 0.3454 0.8841 0.7942
N1_11 N 0.4524(4) 0.6034(3) 0.7987(4)
C1_11 C 0.3995(10) 0.6057(9) 0.8140(8)
H1_11 H 0.3948 0.6313 0.7880
H2_11 H 0.3659 0.5670 0.8115
H3_11 H 0.4031 0.6201 0.8525
C2_11 C 0.4472(9) 0.5813(7) 0.7401(6)
H4_11 H 0.4428 0.6070 0.7139
H5_11 H 0.4819 0.5798 0.7305
H6_11 H 0.4136 0.5427 0.7375
C3_11 C 0.4582(7) 0.5600(5) 0.8398(6)
H7_11 H 0.4241 0.5219 0.8364
H8_11 H 0.4924 0.5578 0.8297
H9_11 H 0.4618 0.5736 0.8786
C4_11 C 0.5059(10) 0.6592(6) 0.8043(8)
H10_11 H 0.5045 0.6873 0.7791
H11_11 H 0.5100 0.6726 0.8432
H12_11 H 0.5388 0.6546 0.7942
N1_12 N 0.1511(3) 0.5476(4) 0.7987(4)
C1_12 C 0.2063(5) 0.6005(10) 0.8140(8)
H1_12 H 0.2366 0.6052 0.7880
H2_12 H 0.2012 0.6341 0.8115
H3_12 H 0.2171 0.5969 0.8525
C2_12 C 0.1342(6) 0.5528(9) 0.7401(6)
H4_12 H 0.1643 0.5572 0.7139
H5_12 H 0.0980 0.5181 0.7305
H6_12 H 0.1292 0.5864 0.7375
C3_12 C 0.1019(5) 0.5418(7) 0.8398(6)
H7_12 H 0.0979 0.5759 0.8364
H8_12 H 0.0655 0.5076 0.8297
H9_12 H 0.1119 0.5382 0.8786
C4_12 C 0.1534(8) 0.4941(10) 0.8043(8)
H10_12 H 0.1829 0.4955 0.7791
H11_12 H 0.1627 0.4900 0.8432
H12_12 H 0.1159 0.4612 0.7942
H10_13 H 0.8495 0.0207 0.6125
H11_13 H 0.8293 0.0060 0.6766
N1_13 N 0.8177(3) 0.9368(3) 0.6321(4)
C1_13 C 0.8729(5) 0.9391(9) 0.6474(8)
H1_13 H 0.9032 0.9647 0.6214
H2_13 H 0.8678 0.9004 0.6449
H3_13 H 0.8837 0.9535 0.6859
C2_13 C 0.8008(6) 0.9147(7) 0.5735(6)
H4_13 H 0.8309 0.9404 0.5473
H5_13 H 0.7646 0.9132 0.5639
H6_13 H 0.7958 0.8761 0.5709
C3_13 C 0.7685(5) 0.8934(5) 0.6732(6)
H7_13 H 0.7645 0.8553 0.6698
H8_13 H 0.7321 0.8912 0.6631
H9_13 H 0.7785 0.9070 0.7120
C4_13 C 0.8200(8) 0.9926(6) 0.6377(8)
H12_13 H 0.7825 0.9880 0.6276
N1_14 N 0.0632(3) 0.8810(4) 0.6321(4)
C1_14 C 0.0609(9) 0.9339(10) 0.6474(8)
H1_14 H 0.0353 0.9386 0.6214
H2_14 H 0.0996 0.9675 0.6449
H3_14 H 0.0465 0.9303 0.6859
C2_14 C 0.0853(7) 0.8862(9) 0.5735(6)
H4_14 H 0.0596 0.8906 0.5473
H5_14 H 0.0868 0.8515 0.5639
H6_14 H 0.1239 0.9198 0.5709
C3_14 C 0.1066(5) 0.8752(7) 0.6732(6)
H7_14 H 0.1447 0.9093 0.6698
H8_14 H 0.1088 0.8410 0.6631
H9_14 H 0.0930 0.8716 0.7120
C4_14 C 0.0074(6) 0.8275(10) 0.6377(8)
H12_14 H 0.0120 0.7946 0.6276
H10_14 H 0.9793 0.8289 0.6125
H11_14 H 0.9940 0.8234 0.6766
N1_15 N 0.1190(4) 0.1823(3) 0.6321(4)
C1_15 C 0.0661(10) 0.1271(5) 0.6474(8)
H1_15 H 0.0614 0.0968 0.6214
H2_15 H 0.0325 0.1322 0.6449
H3_15 H 0.0697 0.1163 0.6859
C2_15 C 0.1138(9) 0.1992(6) 0.5735(6)
H4_15 H 0.1094 0.1691 0.5473
H5_15 H 0.1485 0.2354 0.5639
H6_15 H 0.0802 0.2042 0.5709
C3_15 C 0.1248(7) 0.2315(5) 0.6732(6)
H7_15 H 0.0907 0.2355 0.6698
H8_15 H 0.1590 0.2679 0.6631
H9_15 H 0.1284 0.2215 0.7120
C4_15 C 0.1725(10) 0.1800(8) 0.6377(8)
H10_15 H 0.1711 0.1505 0.6125
H11_15 H 0.1766 0.1707 0.6766
H12_15 H 0.2054 0.2175 0.6276
N1_16 N 0.0632(3) 0.1823(3) 0.1321(4)
C1_16 C 0.0609(9) 0.1271(5) 0.1474(8)
H1_16 H 0.0353 0.0968 0.1214
H2_16 H 0.0996 0.1322 0.1449
H3_16 H 0.0465 0.1163 0.1859
C2_16 C 0.0853(7) 0.1992(6) 0.0735(6)
H4_16 H 0.0596 0.1691 0.0473
H5_16 H 0.0868 0.2354 0.0639
H6_16 H 0.1239 0.2042 0.0709
C3_16 C 0.1066(5) 0.2315(5) 0.1732(6)
H7_16 H 0.1447 0.2355 0.1698
H8_16 H 0.1088 0.2679 0.1631
H9_16 H 0.0930 0.2215 0.2120
C4_16 C 0.0074(6) 0.1800(8) 0.1377(8)
H12_16 H 0.0120 0.2175 0.1276
H10_16 H 0.9793 0.1505 0.1125
H11_16 H 0.9940 0.1707 0.1766
H10_17 H 0.1711 0.0207 0.1125
H11_17 H 0.1766 0.0060 0.1766
N1_17 N 0.1190(4) 0.9368(3) 0.1321(4)
C1_17 C 0.0661(10) 0.9391(9) 0.1474(8)
H1_17 H 0.0614 0.9647 0.1214
H2_17 H 0.0325 0.9004 0.1449
H3_17 H 0.0697 0.9535 0.1859
C2_17 C 0.1138(9) 0.9147(7) 0.0735(6)
H4_17 H 0.1094 0.9404 0.0473
H5_17 H 0.1485 0.9132 0.0639
H6_17 H 0.0802 0.8761 0.0709
C3_17 C 0.1248(7) 0.8934(5) 0.1732(6)
H7_17 H 0.0907 0.8553 0.1698
H8_17 H 0.1590 0.8912 0.1631
H9_17 H 0.1284 0.9070 0.2120
C4_17 C 0.1725(10) 0.9926(6) 0.1377(8)
H12_17 H 0.2054 0.9880 0.1276
N1_18 N 0.8177(3) 0.8810(4) 0.1321(4)
C1_18 C 0.8729(5) 0.9339(10) 0.1474(8)
H1_18 H 0.9032 0.9386 0.1214
H2_18 H 0.8678 0.9675 0.1449
H3_18 H 0.8837 0.9303 0.1859
C2_18 C 0.8008(6) 0.8862(9) 0.0735(6)
H4_18 H 0.8309 0.8906 0.0473
H5_18 H 0.7646 0.8515 0.0639
H6_18 H 0.7958 0.9198 0.0709
C3_18 C 0.7685(5) 0.8752(7) 0.1732(6)
H7_18 H 0.7645 0.9093 0.1698
H8_18 H 0.7321 0.8410 0.1631
H9_18 H 0.7785 0.8716 0.2120
C4_18 C 0.8200(8) 0.8275(10) 0.1377(8)
H10_18 H 0.8495 0.8289 0.1125
H11_18 H 0.8293 0.8234 0.1766
H12_18 H 0.7825 0.7946 0.1276
C6 C 0.5459(11) 0.0119(11) 0.0491(11)
H16 H 0.5679 0.0326 0.0157
H17 H 0.5722 0.0129 0.0782
H18 H 0.5246 0.0301 0.0633
N2 N 0.5033(4) 0.9490(6) 0.0334(4)
H14 H 0.4513 0.9814 0.0181
H21 H 0.5613 0.9227 0.0210
C8 C 0.4779(8) 0.9248(12) 0.0920(7)
H22 H 0.4435 0.8869 0.0878
H23 H 0.4677 0.9509 0.1108
H24 H 0.5065 0.9212 0.1145
C5 C 0.4614(5) 0.9552(6) 0.9993(5)
H13 H 0.4780 0.9708 0.9624
H15 H 0.4268 0.9176 0.9945
C7 C 0.5301(12) 0.9225(14) 0.9995(8)
H19 H 0.5456 0.9444 0.9647
H20 H 0.5012 0.8828 0.9903
N2_2 N 0.0510(6) 0.5543(7) 0.0334(4)
H14_2 H 0.0186 0.4699 0.0181
H21_2 H 0.0773 0.6386 0.0210
C8_2 C 0.0752(12) 0.5531(14) 0.0920(7)
H22_2 H 0.1131 0.5566 0.0878
H23_2 H 0.0491 0.5168 0.1108
H24_2 H 0.0788 0.5853 0.1145
C5_2 C 0.0448(6) 0.5062(8) 0.9993(5)
H13_2 H 0.0292 0.5072 0.9624
H15_2 H 0.0824 0.5092 0.9945
C7_2 C 0.0775(14) 0.6076(18) 0.9995(8)
H19_2 H 0.0556 0.6012 0.9647
H20_2 H 0.1172 0.6184 0.9903
C6_2 C 0.9881(11) 0.5340(16) 0.0491(11)
H16_2 H 0.9674 0.5353 0.0157
H17_2 H 0.9871 0.5593 0.0782
H18_2 H 0.9699 0.4945 0.0633
N2_3 N 0.4457(7) 0.4967(4) 0.0334(4)
H14_3 H 0.5301 0.5487 0.0181
C6_3 C 0.4660(16) 0.4541(11) 0.0491(11)
H16_3 H 0.4647 0.4321 0.0157
H17_3 H 0.4407 0.4278 0.0782
H18_3 H 0.5055 0.4754 0.0633
H21_3 H 0.3614 0.4387 0.0210
C8_3 C 0.4469(14) 0.5221(8) 0.0920(7)
H22_3 H 0.4434 0.5565 0.0878
H23_3 H 0.4832 0.5323 0.1108
H24_3 H 0.4147 0.4935 0.1145
C5_3 C 0.4938(8) 0.5386(5) 0.9993(5)
H13_3 H 0.4928 0.5220 0.9624
H15_3 H 0.4908 0.5732 0.9945
C7_3 C 0.3924(18) 0.4699(12) 0.9995(8)
H19_3 H 0.3988 0.4544 0.9647
H20_3 H 0.3816 0.4988 0.9903
N2_4 N 0.0510(6) 0.4967(4) 0.5334(4)
C5_4 C 0.0448(6) 0.5386(5) 0.4993(5)
H13_4 H 0.0292 0.5220 0.4624
H14_4 H 0.0186 0.5487 0.5181
H15_4 H 0.0824 0.5732 0.4945
C7_4 C 0.0775(14) 0.4699(12) 0.4995(8)
H19_4 H 0.0556 0.4544 0.4647
H20_4 H 0.1172 0.4988 0.4903
H21_4 H 0.0773 0.4387 0.5210
C8_4 C 0.0752(12) 0.5221(8) 0.5920(7)
H22_4 H 0.1131 0.5565 0.5878
H23_4 H 0.0491 0.5323 0.6108
H24_4 H 0.0788 0.4935 0.6145
C6_4 C 0.9881(11) 0.4541(11) 0.5491(11)
H16_4 H 0.9674 0.4321 0.5157
H17_4 H 0.9871 0.4278 0.5782
H18_4 H 0.9699 0.4754 0.5633
C6_5 C 0.4660(16) 0.0119(11) 0.5491(11)
H16_5 H 0.4647 0.0326 0.5157
H17_5 H 0.4407 0.0129 0.5782
H18_5 H 0.5055 0.0301 0.5633
N2_5 N 0.4457(7) 0.9490(6) 0.5334(4)
C5_5 C 0.4938(8) 0.9552(6) 0.4993(5)
H13_5 H 0.4928 0.9708 0.4624
H14_5 H 0.5301 0.9814 0.5181
H15_5 H 0.4908 0.9176 0.4945
C7_5 C 0.3924(18) 0.9225(14) 0.4995(8)
H19_5 H 0.3988 0.9444 0.4647
H20_5 H 0.3816 0.8828 0.4903
H21_5 H 0.3614 0.9227 0.5210
C8_5 C 0.4469(14) 0.9248(12) 0.5920(7)
H22_5 H 0.4434 0.8869 0.5878
H23_5 H 0.4832 0.9509 0.6108
H24_5 H 0.4147 0.9212 0.6145
N2_6 N 0.5033(4) 0.5543(7) 0.5334(4)
C5_6 C 0.4614(5) 0.5062(8) 0.4993(5)
H13_6 H 0.4780 0.5072 0.4624
H14_6 H 0.4513 0.4699 0.5181
H15_6 H 0.4268 0.5092 0.4945
C6_6 C 0.5459(11) 0.5340(16) 0.5491(11)
H16_6 H 0.5679 0.5353 0.5157
H17_6 H 0.5722 0.5593 0.5782
H18_6 H 0.5246 0.4945 0.5633
C7_6 C 0.5301(12) 0.6076(18) 0.4995(8)
H19_6 H 0.5456 0.6012 0.4647
H20_6 H 0.5012 0.6184 0.4903
H21_6 H 0.5613 0.6386 0.5210
C8_6 C 0.4779(8) 0.5531(14) 0.5920(7)
H22_6 H 0.4435 0.5566 0.5878
H23_6 H 0.4677 0.5168 0.6108
H24_6 H 0.5065 0.5853 0.6145
N2_7 N 0.1700(4) 0.2823(6) 0.3667(4)
C5_7 C 0.1281(5) 0.2885(6) 0.3326(5)
H13_7 H 0.1447 0.3041 0.2957
H14_7 H 0.1180 0.3147 0.3514
H15_7 H 0.0935 0.2509 0.3278
C6_7 C 0.2126(11) 0.3452(11) 0.3824(11)
H16_7 H 0.2346 0.3659 0.3490
H17_7 H 0.2389 0.3462 0.4115
H18_7 H 0.1913 0.3634 0.3966
C7_7 C 0.1968(12) 0.2558(14) 0.3328(8)
H19_7 H 0.2123 0.2777 0.2980
H20_7 H 0.1679 0.2161 0.3236
H21_7 H 0.2280 0.2560 0.3543
C8_7 C 0.1446(8) 0.2581(12) 0.4253(7)
H22_7 H 0.1102 0.2202 0.4211
H23_7 H 0.1344 0.2842 0.4441
H24_7 H 0.1732 0.2545 0.4478
N2_8 N 0.7177(6) 0.8876(7) 0.3667(4)
C5_8 C 0.7115(6) 0.8395(8) 0.3326(5)
H13_8 H 0.6959 0.8405 0.2957
H14_8 H 0.6853 0.8032 0.3514
H15_8 H 0.7491 0.8425 0.3278
C6_8 C 0.6548(11) 0.8673(16) 0.3824(11)
H16_8 H 0.6341 0.8686 0.3490
H17_8 H 0.6538 0.8926 0.4115
H18_8 H 0.6366 0.8278 0.3966
C7_8 C 0.7442(14) 0.9409(18) 0.3328(8)
H19_8 H 0.7223 0.9345 0.2980
H20_8 H 0.7839 0.9517 0.3236
H21_8 H 0.7440 0.9719 0.3543
C8_8 C 0.7419(12) 0.8864(14) 0.4253(7)
H22_8 H 0.7798 0.8899 0.4211
H23_8 H 0.7158 0.8501 0.4441
H24_8 H 0.7455 0.9186 0.4478
N2_9 N 0.1124(7) 0.8300(4) 0.3667(4)
C5_9 C 0.1605(8) 0.8719(5) 0.3326(5)
H13_9 H 0.1595 0.8553 0.2957
H14_9 H 0.1968 0.8820 0.3514
H15_9 H 0.1575 0.9065 0.3278
C6_9 C 0.1327(16) 0.7874(11) 0.3824(11)
H16_9 H 0.1314 0.7654 0.3490
H17_9 H 0.1074 0.7611 0.4115
H18_9 H 0.1722 0.8087 0.3966
C7_9 C 0.0591(18) 0.8032(12) 0.3328(8)
H19_9 H 0.0655 0.7877 0.2980
H20_9 H 0.0483 0.8321 0.3236
H21_9 H 0.0281 0.7720 0.3543
C8_9 C 0.1136(14) 0.8554(8) 0.4253(7)
H22_9 H 0.1101 0.8898 0.4211
H23_9 H 0.1499 0.8656 0.4441
H24_9 H 0.0814 0.8268 0.4478
N2_10 N 0.7177(6) 0.8300(4) 0.8667(4)
C5_10 C 0.7115(6) 0.8719(5) 0.8326(5)
H13_10 H 0.6959 0.8553 0.7957
H14_10 H 0.6853 0.8820 0.8514
H15_10 H 0.7491 0.9065 0.8278
C6_10 C 0.6548(11) 0.7874(11) 0.8824(11)
H16_10 H 0.6341 0.7654 0.8490
H17_10 H 0.6538 0.7611 0.9115
H18_10 H 0.6366 0.8087 0.8966
C7_10 C 0.7442(14) 0.8032(12) 0.8328(8)
H19_10 H 0.7223 0.7877 0.7980
H20_10 H 0.7839 0.8321 0.8236
H21_10 H 0.7440 0.7720 0.8543
C8_10 C 0.7419(12) 0.8554(8) 0.9253(7)
H22_10 H 0.7798 0.8898 0.9211
H23_10 H 0.7158 0.8656 0.9441
H24_10 H 0.7455 0.8268 0.9478
N2_11 N 0.1124(7) 0.2823(6) 0.8667(4)
C5_11 C 0.1605(8) 0.2885(6) 0.8326(5)
H13_11 H 0.1595 0.3041 0.7957
H14_11 H 0.1968 0.3147 0.8514
H15_11 H 0.1575 0.2509 0.8278
C6_11 C 0.1327(16) 0.3452(11) 0.8824(11)
H16_11 H 0.1314 0.3659 0.8490
H17_11 H 0.1074 0.3462 0.9115
H18_11 H 0.1722 0.3634 0.8966
C7_11 C 0.0591(18) 0.2558(14) 0.8328(8)
H19_11 H 0.0655 0.2777 0.7980
H20_11 H 0.0483 0.2161 0.8236
H21_11 H 0.0281 0.2560 0.8543
C8_11 C 0.1136(14) 0.2581(12) 0.9253(7)
H22_11 H 0.1101 0.2202 0.9211
H23_11 H 0.1499 0.2842 0.9441
H24_11 H 0.0814 0.2545 0.9478
N2_12 N 0.1700(4) 0.8876(7) 0.8667(4)
C5_12 C 0.1281(5) 0.8395(8) 0.8326(5)
H13_12 H 0.1447 0.8405 0.7957
H14_12 H 0.1180 0.8032 0.8514
H15_12 H 0.0935 0.8425 0.8278
C6_12 C 0.2126(11) 0.8673(16) 0.8824(11)
H16_12 H 0.2346 0.8686 0.8490
H17_12 H 0.2389 0.8926 0.9115
H18_12 H 0.1913 0.8278 0.8966
C7_12 C 0.1968(12) 0.9409(18) 0.8328(8)
H19_12 H 0.2123 0.9345 0.7980
H20_12 H 0.1679 0.9517 0.8236
H21_12 H 0.2280 0.9719 0.8543
C8_12 C 0.1446(8) 0.8864(14) 0.9253(7)
H22_12 H 0.1102 0.8899 0.9211
H23_12 H 0.1344 0.8501 0.9441
H24_12 H 0.1732 0.9186 0.9478
N2_13 N 0.8366(4) 0.6157(6) 0.7001(4)
C5_13 C 0.7947(5) 0.6219(6) 0.6660(5)
H13_13 H 0.8113 0.6375 0.6291
H14_13 H 0.7846 0.6481 0.6848
H15_13 H 0.7601 0.5843 0.6612
C6_13 C 0.8792(11) 0.6786(11) 0.7158(11)
H16_13 H 0.9012 0.6993 0.6824
H17_13 H 0.9055 0.6796 0.7449
H18_13 H 0.8579 0.6968 0.7300
C7_13 C 0.8634(12) 0.5892(14) 0.6662(8)
H19_13 H 0.8789 0.6111 0.6314
H20_13 H 0.8345 0.5495 0.6570
H21_13 H 0.8946 0.5894 0.6877
C8_13 C 0.8112(8) 0.5915(12) 0.7587(7)
H22_13 H 0.7768 0.5536 0.7545
H23_13 H 0.8010 0.6176 0.7775
H24_13 H 0.8398 0.5879 0.7812
N2_14 N 0.3843(6) 0.2210(7) 0.7001(4)
C5_14 C 0.3781(6) 0.1729(8) 0.6660(5)
H13_14 H 0.3625 0.1739 0.6291
H14_14 H 0.3519 0.1366 0.6848
H15_14 H 0.4157 0.1759 0.6612
C6_14 C 0.3214(11) 0.2007(16) 0.7158(11)
H16_14 H 0.3007 0.2020 0.6824
H17_14 H 0.3204 0.2260 0.7449
H18_14 H 0.3032 0.1612 0.7300
C7_14 C 0.4108(14) 0.2743(18) 0.6662(8)
H19_14 H 0.3889 0.2679 0.6314
H20_14 H 0.4505 0.2851 0.6570
H21_14 H 0.4106 0.3053 0.6877
C8_14 C 0.4085(12) 0.2198(14) 0.7587(7)
H22_14 H 0.4464 0.2233 0.7545
H23_14 H 0.3824 0.1835 0.7775
H24_14 H 0.4121 0.2520 0.7812
N2_15 N 0.7790(7) 0.1634(4) 0.7001(4)
C5_15 C 0.8271(8) 0.2053(5) 0.6660(5)
H13_15 H 0.8261 0.1887 0.6291
H14_15 H 0.8634 0.2154 0.6848
H15_15 H 0.8241 0.2399 0.6612
C6_15 C 0.7993(16) 0.1208(11) 0.7158(11)
H16_15 H 0.7980 0.0988 0.6824
H17_15 H 0.7740 0.0945 0.7449
H18_15 H 0.8388 0.1421 0.7300
C7_15 C 0.7257(18) 0.1366(12) 0.6662(8)
H19_15 H 0.7321 0.1211 0.6314
H20_15 H 0.7149 0.1655 0.6570
H21_15 H 0.6947 0.1054 0.6877
C8_15 C 0.7802(14) 0.1888(8) 0.7587(7)
H22_15 H 0.7767 0.2232 0.7545
H23_15 H 0.8165 0.1990 0.7775
H24_15 H 0.7480 0.1602 0.7812
N2_16 N 0.3843(6) 0.1634(4) 0.2001(4)
C5_16 C 0.3781(6) 0.2053(5) 0.1660(5)
H13_16 H 0.3625 0.1887 0.1291
H14_16 H 0.3519 0.2154 0.1848
H15_16 H 0.4157 0.2399 0.1612
C6_16 C 0.3214(11) 0.1208(11) 0.2158(11)
H16_16 H 0.3007 0.0988 0.1824
H17_16 H 0.3204 0.0945 0.2449
H18_16 H 0.3032 0.1421 0.2300
C7_16 C 0.4108(14) 0.1366(12) 0.1662(8)
H19_16 H 0.3889 0.1211 0.1314
H20_16 H 0.4505 0.1655 0.1570
H21_16 H 0.4106 0.1054 0.1877
C8_16 C 0.4085(12) 0.1888(8) 0.2587(7)
H22_16 H 0.4464 0.2232 0.2545
H23_16 H 0.3824 0.1990 0.2775
H24_16 H 0.4121 0.1602 0.2812
N2_17 N 0.7790(7) 0.6157(6) 0.2001(4)
C5_17 C 0.8271(8) 0.6219(6) 0.1660(5)
H13_17 H 0.8261 0.6375 0.1291
H14_17 H 0.8634 0.6481 0.1848
H15_17 H 0.8241 0.5843 0.1612
C6_17 C 0.7993(16) 0.6786(11) 0.2158(11)
H16_17 H 0.7980 0.6993 0.1824
H17_17 H 0.7740 0.6796 0.2449
H18_17 H 0.8388 0.6968 0.2300
C7_17 C 0.7257(18) 0.5892(14) 0.1662(8)
H19_17 H 0.7321 0.6111 0.1314
H20_17 H 0.7149 0.5495 0.1570
H21_17 H 0.6947 0.5894 0.1877
C8_17 C 0.7802(14) 0.5915(12) 0.2587(7)
H22_17 H 0.7767 0.5536 0.2545
H23_17 H 0.8165 0.6176 0.2775
H24_17 H 0.7480 0.5879 0.2812
N2_18 N 0.8366(4) 0.2210(7) 0.2001(4)
C5_18 C 0.7947(5) 0.1729(8) 0.1660(5)
H13_18 H 0.8113 0.1739 0.1291
H14_18 H 0.7846 0.1366 0.1848
H15_18 H 0.7601 0.1759 0.1612
C6_18 C 0.8792(11) 0.2007(16) 0.2158(11)
H16_18 H 0.9012 0.2020 0.1824
H17_18 H 0.9055 0.2260 0.2449
H18_18 H 0.8579 0.1612 0.2300
C7_18 C 0.8634(12) 0.2743(18) 0.1662(8)
H19_18 H 0.8789 0.2679 0.1314
H20_18 H 0.8345 0.2851 0.1570
H21_18 H 0.8946 0.3053 0.1877
C8_18 C 0.8112(8) 0.2198(14) 0.2587(7)
H22_18 H 0.7768 0.2233 0.2545
H23_18 H 0.8010 0.1835 0.2775
H24_18 H 0.8398 0.2520 0.2812
O25 O 0.0110(2) 0.31064(28) 0.2768(2)
O26 O 0.06467(19) 0.41887(28) 0.3091(2)
O27 O 0.1292(2) 0.4467(3) 0.2385(2)
O28 O 0.0715(3) 0.3325(4) 0.2018(3)
C21 C 0.0858(3) 0.4095(4) 0.2653(3)
C22 C 0.0538(3) 0.3449(4) 0.2449(3)
O30 O 0.03300(19) 0.33029(27) 0.3960(2)
O32 O 0.0149(2) 0.2575(3) 0.4571(2)
Mn5 Mn 0.16370(6) 0.42890(4) 0.16092(4)
O53 O 0.0008(4) 0.5952(3) 0.3685(3)
Cr1 Cr 0.6667 0.3333 0.31186(7)
Cr2 Cr 0.35819(4) 0.00745(4) 0.33737(4)
Mn1 Mn 0.59854(4) 0.09557(4) 0.32759(4)
O1 O 0.67420(19) 0.27334(18) 0.26663(18)
O2 O 0.61543(18) 0.26560(17) 0.36023(19)
O3 O 0.6516(2) 0.17993(18) 0.2746(2)
O4 O 0.5916(2) 0.1726(2) 0.37304(19)
C9 C 0.6496(3) 0.2232(3) 0.2915(3)
C10 C 0.6162(3) 0.2186(3) 0.3464(3)
O5 O 0.5196(2) 0.0996(2) 0.2792(2)
O6 O 0.51768(19) 0.04805(18) 0.38222(19)
O7 O 0.42268(19) 0.0566(2) 0.28422(16)
O8 O 0.4238(2) 0.02106(19) 0.38842(18)
C11 C 0.4725(3) 0.0691(3) 0.3032(3)
C12 C 0.4730(3) 0.0441(2) 0.3635(3)
O13 O 0.35381(19) 0.07648(19) 0.3648(2)
O15 O 0.3039(2) 0.10006(19) 0.4236(2)
C15 C 0.3150(3) 0.0646(3) 0.4018(3)
C16 C 0.2819(3) 0.0004(3) 0.4216(3)
Cr3 Cr 0.99255(4) 0.35074(6) 0.33737(4)
Mn2 Mn 0.90443(4) 0.50297(6) 0.32759(4)
O17 O 0.72666(18) 0.40086(26) 0.26663(18)
O18 O 0.73440(17) 0.34983(25) 0.36023(19)
O19 O 0.82007(18) 0.47167(27) 0.2746(2)
O20 O 0.8274(2) 0.4190(3) 0.37304(19)
C17 C 0.7768(3) 0.4264(4) 0.2915(3)
C18 C 0.7814(3) 0.3976(4) 0.3464(3)
O21 O 0.9004(2) 0.4200(3) 0.2792(2)
O22 O 0.95195(18) 0.46963(26) 0.38222(19)
O23 O 0.9434(2) 0.36608(28) 0.28422(16)
O24 O 0.97894(19) 0.40274(28) 0.38842(18)
C19 C 0.9309(3) 0.4034(4) 0.3032(3)
C20 C 0.9559(2) 0.4289(4) 0.3635(3)
O29 O 0.92352(19) 0.27733(27) 0.3648(2)
O31 O 0.89994(19) 0.20384(28) 0.4236(2)
C23 C 0.9354(3) 0.2504(4) 0.4018(3)
C24 C 0.9996(3) 0.2815(4) 0.4216(3)
Cr4 Cr 0.64926(6) 0.64181(4) 0.33737(4)
Mn3 Mn 0.49703(6) 0.40146(4) 0.32759(4)
O33 O 0.59914(26) 0.32580(19) 0.26663(18)
O34 O 0.65017(25) 0.38457(18) 0.36023(19)
O35 O 0.52833(27) 0.3484(2) 0.2746(2)
O36 O 0.5810(3) 0.4084(2) 0.37304(19)
C25 C 0.5736(4) 0.3504(3) 0.2915(3)
C26 C 0.6024(4) 0.3838(3) 0.3464(3)
O37 O 0.5800(3) 0.4804(2) 0.2792(2)
O38 O 0.53037(26) 0.48232(19) 0.38222(19)
O39 O 0.63392(28) 0.57732(19) 0.28422(16)
O40 O 0.59726(28) 0.5762(2) 0.38842(18)
C27 C 0.5966(4) 0.5275(3) 0.3032(3)
C28 C 0.5711(4) 0.5270(3) 0.3635(3)
O41 O 0.68936(28) 0.70036(19) 0.2768(2)
O42 O 0.58113(28) 0.6458(2) 0.3091(2)
O43 O 0.5533(3) 0.6825(2) 0.2385(2)
O44 O 0.6675(4) 0.7390(2) 0.2018(3)
C29 C 0.5905(4) 0.6763(3) 0.2653(3)
C30 C 0.6551(4) 0.7089(3) 0.2449(3)
O45 O 0.72267(27) 0.64619(19) 0.3648(2)
O46 O 0.66971(27) 0.70271(19) 0.3960(2)
O47 O 0.79616(28) 0.6961(2) 0.4236(2)
O48 O 0.7425(3) 0.7574(2) 0.4571(2)
C31 C 0.7496(4) 0.6850(3) 0.4018(3)
C32 C 0.7185(4) 0.7181(3) 0.4216(3)
Mn4 Mn 0.57110(4) 0.73479(4) 0.16092(4)
Mn7 Mn 0.23776(4) 0.06813(4) 0.49426(4)
Mn8 Mn 0.83036(6) 0.76224(4) 0.49426(4)
Mn9 Mn 0.93187(4) 0.16964(6) 0.49426(4)
O49 O 0.4625(2) 0.3492(2) 0.4052(2)
O50 O 0.8866(3) 0.5375(2) 0.4052(2)
O51 O 0.6508(2) 0.1134(3) 0.4052(2)
O52 O 0.4048(3) 0.4057(2) 0.3685(3)
O55 O 0.56661(19) 0.0294(2) 0.2569(2)
O56 O 0.46283(28) 0.43339(19) 0.2569(2)
O57 O 0.9706(2) 0.53717(28) 0.2569(2)
O58 O 0.6816(2) 0.0907(2) 0.2904(2)
O59 O 0.4092(3) 0.3184(2) 0.2904(2)
O60 O 0.9093(2) 0.5908(3) 0.2904(2)
O9 O 0.29964(19) 0.9890(2) 0.2768(2)
O10 O 0.3542(2) 0.93533(19) 0.3091(2)
O11 O 0.3175(2) 0.8708(2) 0.2385(2)
O12 O 0.2610(2) 0.9285(3) 0.2018(3)
C13 C 0.3237(3) 0.9142(3) 0.2653(3)
C14 C 0.2911(3) 0.9462(3) 0.2449(3)
O14 O 0.29729(19) 0.96700(19) 0.3960(2)
O16 O 0.2426(2) 0.9851(2) 0.4571(2)
Mn6 Mn 0.26521(4) 0.83630(6) 0.16092(4)
O54 O 0.5943(2) 0.9992(4) 0.3685(3)
O9_2 O 0.0110(2) 0.70036(19) 0.7768(2)
O10_2 O 0.06467(19) 0.6458(2) 0.8091(2)
O11_2 O 0.1292(2) 0.6825(2) 0.7385(2)
O12_2 O 0.0715(3) 0.7390(2) 0.7018(3)
C13_2 C 0.0858(3) 0.6763(3) 0.7653(3)
C14_2 C 0.0538(3) 0.7089(3) 0.7449(3)
O14_2 O 0.03300(19) 0.70271(19) 0.8960(2)
O16_2 O 0.0149(2) 0.7574(2) 0.9571(2)
Mn6_2 Mn 0.16370(6) 0.73479(4) 0.66092(4)
O54_2 O 0.0008(4) 0.4057(2) 0.8685(3)
Cr1_2 Cr 0.6667 0.3333 0.81186(7)
Cr2_2 Cr 0.99255(4) 0.64181(4) 0.83737(4)
Mn1_2 Mn 0.90443(4) 0.40146(4) 0.82759(4)
O1_2 O 0.72666(18) 0.32580(19) 0.76663(18)
O2_2 O 0.73440(17) 0.38457(18) 0.86023(19)
O3_2 O 0.82007(18) 0.3484(2) 0.7746(2)
O4_2 O 0.8274(2) 0.4084(2) 0.87304(19)
C9_2 C 0.7768(3) 0.3504(3) 0.7915(3)
C10_2 C 0.7814(3) 0.3838(3) 0.8464(3)
O5_2 O 0.9004(2) 0.4804(2) 0.7792(2)
O6_2 O 0.95195(18) 0.48232(19) 0.88222(19)
O7_2 O 0.9434(2) 0.57732(19) 0.78422(16)
O8_2 O 0.97894(19) 0.5762(2) 0.88842(18)
C11_2 C 0.9309(3) 0.5275(3) 0.8032(3)
C12_2 C 0.9559(2) 0.5270(3) 0.8635(3)
O13_2 O 0.92352(19) 0.64619(19) 0.8648(2)
O15_2 O 0.89994(19) 0.6961(2) 0.9236(2)
C15_2 C 0.9354(3) 0.6850(3) 0.9018(3)
C16_2 C 0.9996(3) 0.7181(3) 0.9216(3)
Cr3_2 Cr 0.64926(6) 0.00745(4) 0.83737(4)
Mn2_2 Mn 0.49703(6) 0.09557(4) 0.82759(4)
O17_2 O 0.59914(26) 0.27334(18) 0.76663(18)
O18_2 O 0.65017(25) 0.26560(17) 0.86023(19)
O19_2 O 0.52833(27) 0.17993(18) 0.7746(2)
O20_2 O 0.5810(3) 0.1726(2) 0.87304(19)
C17_2 C 0.5736(4) 0.2232(3) 0.7915(3)
C18_2 C 0.6024(4) 0.2186(3) 0.8464(3)
O21_2 O 0.5800(3) 0.0996(2) 0.7792(2)
O22_2 O 0.53037(26) 0.04805(18) 0.88222(19)
O23_2 O 0.63392(28) 0.0566(2) 0.78422(16)
O24_2 O 0.59726(28) 0.02106(19) 0.88842(18)
C19_2 C 0.5966(4) 0.0691(3) 0.8032(3)
C20_2 C 0.5711(4) 0.0441(2) 0.8635(3)
O29_2 O 0.72267(27) 0.07648(19) 0.8648(2)
O31_2 O 0.79616(28) 0.10006(19) 0.9236(2)
C23_2 C 0.7496(4) 0.0646(3) 0.9018(3)
C24_2 C 0.7185(4) 0.0004(3) 0.9216(3)
Cr4_2 Cr 0.35819(4) 0.35074(6) 0.83737(4)
Mn3_2 Mn 0.59854(4) 0.50297(6) 0.82759(4)
O33_2 O 0.67420(19) 0.40086(26) 0.76663(18)
O34_2 O 0.61543(18) 0.34983(25) 0.86023(19)
O35_2 O 0.6516(2) 0.47167(27) 0.7746(2)
O36_2 O 0.5916(2) 0.4190(3) 0.87304(19)
C25_2 C 0.6496(3) 0.4264(4) 0.7915(3)
C26_2 C 0.6162(3) 0.3976(4) 0.8464(3)
O37_2 O 0.5196(2) 0.4200(3) 0.7792(2)
O38_2 O 0.51768(19) 0.46963(26) 0.88222(19)
O39_2 O 0.42268(19) 0.36608(28) 0.78422(16)
O40_2 O 0.4238(2) 0.40274(28) 0.88842(18)
C27_2 C 0.4725(3) 0.4034(4) 0.8032(3)
C28_2 C 0.4730(3) 0.4289(4) 0.8635(3)
O41_2 O 0.29964(19) 0.31064(28) 0.7768(2)
O42_2 O 0.3542(2) 0.41887(28) 0.8091(2)
O43_2 O 0.3175(2) 0.4467(3) 0.7385(2)
O44_2 O 0.2610(2) 0.3325(4) 0.7018(3)
C29_2 C 0.3237(3) 0.4095(4) 0.7653(3)
C30_2 C 0.2911(3) 0.3449(4) 0.7449(3)
O45_2 O 0.35381(19) 0.27733(27) 0.8648(2)
O46_2 O 0.29729(19) 0.33029(27) 0.8960(2)
O47_2 O 0.3039(2) 0.20384(28) 0.9236(2)
O48_2 O 0.2426(2) 0.2575(3) 0.9571(2)
C31_2 C 0.3150(3) 0.2504(4) 0.9018(3)
C32_2 C 0.2819(3) 0.2815(4) 0.9216(3)
Mn4_2 Mn 0.26521(4) 0.42890(4) 0.66092(4)
Mn7_2 Mn 0.93187(4) 0.76224(4) 0.99426(4)
Mn8_2 Mn 0.23776(4) 0.16964(6) 0.99426(4)
Mn9_2 Mn 0.83036(6) 0.06813(4) 0.99426(4)
O49_2 O 0.6508(2) 0.5375(2) 0.9052(2)
O50_2 O 0.4625(2) 0.1134(3) 0.9052(2)
O51_2 O 0.8866(3) 0.3492(2) 0.9052(2)
O52_2 O 0.5943(2) 0.5952(3) 0.8685(3)
O55_2 O 0.9706(2) 0.43339(19) 0.7569(2)
O56_2 O 0.56661(19) 0.53717(28) 0.7569(2)
O57_2 O 0.46283(28) 0.0294(2) 0.7569(2)
O58_2 O 0.9093(2) 0.3184(2) 0.7904(2)
O59_2 O 0.6816(2) 0.5908(3) 0.7904(2)
O60_2 O 0.4092(3) 0.0907(2) 0.7904(2)
O25_2 O 0.68936(28) 0.9890(2) 0.7768(2)
O26_2 O 0.58113(28) 0.93533(19) 0.8091(2)
O27_2 O 0.5533(3) 0.8708(2) 0.7385(2)
O28_2 O 0.6675(4) 0.9285(3) 0.7018(3)
C21_2 C 0.5905(4) 0.9142(3) 0.7653(3)
C22_2 C 0.6551(4) 0.9462(3) 0.7449(3)
O30_2 O 0.66971(27) 0.96700(19) 0.8960(2)
O32_2 O 0.7425(3) 0.9851(2) 0.9571(2)
Mn5_2 Mn 0.57110(4) 0.83630(6) 0.66092(4)
O53_2 O 0.4048(3) 0.9992(4) 0.8685(3)
O41_3 O 0.35603(28) 0.03369(19) 0.6101(2)
O43_3 O 0.2200(3) 0.0158(2) 0.5718(2)
O44_3 O 0.3342(4) 0.0723(2) 0.5351(3)
C29_3 C 0.2572(4) 0.0096(3) 0.5986(3)
C30_3 C 0.3218(4) 0.0422(3) 0.5782(3)
O46_3 O 0.33638(27) 0.03604(19) 0.7293(2)
C31_3 C 0.4163(4) 0.0183(3) 0.7351(3)
C32_3 C 0.3852(4) 0.0514(3) 0.7549(3)
Cr1_3 Cr 0.3334 0.6666 0.64519(7)
Cr2_3 Cr 0.02486(4) 0.34078(4) 0.67070(4)
O1_3 O 0.34087(19) 0.60667(18) 0.59996(18)
O2_3 O 0.28210(18) 0.59893(17) 0.69356(19)
O3_3 O 0.3183(2) 0.51326(18) 0.6079(2)
O4_3 O 0.2583(2) 0.5059(2) 0.70637(19)
C9_3 C 0.3163(3) 0.5565(3) 0.6248(3)
C10_3 C 0.2829(3) 0.5519(3) 0.6797(3)
O5_3 O 0.1863(2) 0.4329(2) 0.6125(2)
O6_3 O 0.18435(19) 0.38138(18) 0.71555(19)
O7_3 O 0.08935(19) 0.3899(2) 0.61755(16)
O8_3 O 0.0905(2) 0.35439(19) 0.72175(18)
C11_3 C 0.1392(3) 0.4024(3) 0.6365(3)
C12_3 C 0.1397(3) 0.3774(2) 0.6968(3)
O10_3 O 0.0209(2) 0.26866(19) 0.6424(2)
O13_3 O 0.02048(19) 0.40981(19) 0.6981(2)
Cr3_3 Cr 0.65922(4) 0.68407(6) 0.67070(4)
O17_3 O 0.39333(18) 0.73419(26) 0.59996(18)
O18_3 O 0.40107(17) 0.68316(25) 0.69356(19)
O19_3 O 0.48674(18) 0.80500(27) 0.6079(2)
O20_3 O 0.4941(2) 0.7523(3) 0.70637(19)
C17_3 C 0.4435(3) 0.7597(4) 0.6248(3)
C18_3 C 0.4481(3) 0.7309(4) 0.6797(3)
O21_3 O 0.5671(2) 0.7533(3) 0.6125(2)
O22_3 O 0.61862(18) 0.80296(26) 0.71555(19)
O23_3 O 0.6101(2) 0.69941(28) 0.61755(16)
O24_3 O 0.64561(19) 0.73607(28) 0.72175(18)
C19_3 C 0.5976(3) 0.7367(4) 0.6365(3)
C20_3 C 0.6226(2) 0.7622(4) 0.6968(3)
O25_3 O 0.6777(2) 0.64397(28) 0.6101(2)
O26_3 O 0.73134(19) 0.75220(28) 0.6424(2)
O27_3 O 0.7959(2) 0.7800(3) 0.5718(2)
O28_3 O 0.7382(3) 0.6658(4) 0.5351(3)
C21_3 C 0.7525(3) 0.7428(4) 0.5986(3)
C22_3 C 0.7205(3) 0.6782(4) 0.5782(3)
O29_3 O 0.59019(19) 0.61066(27) 0.6981(2)
O30_3 O 0.69967(19) 0.66362(27) 0.7293(2)
C23_3 C 0.6021(3) 0.5837(4) 0.7351(3)
C24_3 C 0.6663(3) 0.6148(4) 0.7549(3)
Cr4_3 Cr 0.31593(6) 0.97514(4) 0.67070(4)
O33_3 O 0.26581(26) 0.65913(19) 0.59996(18)
O34_3 O 0.31684(25) 0.71790(18) 0.69356(19)
O35_3 O 0.19500(27) 0.6817(2) 0.6079(2)
O36_3 O 0.2477(3) 0.7417(2) 0.70637(19)
C25_3 C 0.2403(4) 0.6837(3) 0.6248(3)
C26_3 C 0.2691(4) 0.7171(3) 0.6797(3)
O37_3 O 0.2467(3) 0.8137(2) 0.6125(2)
O38_3 O 0.19704(26) 0.81565(19) 0.71555(19)
O39_3 O 0.30059(28) 0.91065(19) 0.61755(16)
O40_3 O 0.26393(28) 0.9095(2) 0.72175(18)
C27_3 C 0.2633(4) 0.8608(3) 0.6365(3)
C28_3 C 0.2378(4) 0.8603(3) 0.6968(3)
O42_3 O 0.24780(28) 0.9791(2) 0.6424(2)
O45_3 O 0.38934(27) 0.97952(19) 0.6981(2)
O55_3 O 0.23327(19) 0.3628(2) 0.5903(2)
O56_3 O 0.12949(28) 0.76673(19) 0.5903(2)
O57_3 O 0.6372(2) 0.87051(28) 0.5903(2)
O58_3 O 0.3482(2) 0.4241(2) 0.6238(2)
O59_3 O 0.0758(3) 0.6518(2) 0.6238(2)
O60_3 O 0.5759(2) 0.9242(3) 0.6238(2)
O9_3 O 0.96631(19) 0.3223(2) 0.6101(2)
O11_3 O 0.9842(2) 0.2041(2) 0.5718(2)
O12_3 O 0.9277(2) 0.2618(3) 0.5351(3)
C13_3 C 0.9904(3) 0.2475(3) 0.5986(3)
C14_3 C 0.9578(3) 0.2795(3) 0.5782(3)
O14_3 O 0.96396(19) 0.30033(19) 0.7293(2)
C15_3 C 0.9817(3) 0.3979(3) 0.7351(3)
C16_3 C 0.9486(3) 0.3337(3) 0.7549(3)
O9_4 O 0.6777(2) 0.03369(19) 0.1101(2)
O11_4 O 0.7959(2) 0.0158(2) 0.0718(2)
O12_4 O 0.7382(3) 0.0723(2) 0.0351(3)
C13_4 C 0.7525(3) 0.0096(3) 0.0986(3)
C14_4 C 0.7205(3) 0.0422(3) 0.0782(3)
O14_4 O 0.69967(19) 0.03604(19) 0.2293(2)
C15_4 C 0.6021(3) 0.0183(3) 0.2351(3)
C16_4 C 0.6663(3) 0.0514(3) 0.2549(3)
Cr1_4 Cr 0.3334 0.6666 0.14519(7)
Cr2_4 Cr 0.65922(4) 0.97514(4) 0.17070(4)
O1_4 O 0.39333(18) 0.65913(19) 0.09996(18)
O2_4 O 0.40107(17) 0.71790(18) 0.19356(19)
O3_4 O 0.48674(18) 0.6817(2) 0.1079(2)
O4_4 O 0.4941(2) 0.7417(2) 0.20637(19)
C9_4 C 0.4435(3) 0.6837(3) 0.1248(3)
C10_4 C 0.4481(3) 0.7171(3) 0.1797(3)
O5_4 O 0.5671(2) 0.8137(2) 0.1125(2)
O6_4 O 0.61862(18) 0.81565(19) 0.21555(19)
O7_4 O 0.6101(2) 0.91065(19) 0.11755(16)
O8_4 O 0.64561(19) 0.9095(2) 0.22175(18)
C11_4 C 0.5976(3) 0.8608(3) 0.1365(3)
C12_4 C 0.6226(2) 0.8603(3) 0.1968(3)
O10_4 O 0.73134(19) 0.9791(2) 0.1424(2)
O13_4 O 0.59019(19) 0.97952(19) 0.1981(2)
Cr3_4 Cr 0.31593(6) 0.34078(4) 0.17070(4)
O17_4 O 0.26581(26) 0.60667(18) 0.09996(18)
O18_4 O 0.31684(25) 0.59893(17) 0.19356(19)
O19_4 O 0.19500(27) 0.51326(18) 0.1079(2)
O20_4 O 0.2477(3) 0.5059(2) 0.20637(19)
C17_4 C 0.2403(4) 0.5565(3) 0.1248(3)
C18_4 C 0.2691(4) 0.5519(3) 0.1797(3)
O21_4 O 0.2467(3) 0.4329(2) 0.1125(2)
O22_4 O 0.19704(26) 0.38138(18) 0.21555(19)
O23_4 O 0.30059(28) 0.3899(2) 0.11755(16)
O24_4 O 0.26393(28) 0.35439(19) 0.22175(18)
C19_4 C 0.2633(4) 0.4024(3) 0.1365(3)
C20_4 C 0.2378(4) 0.3774(2) 0.1968(3)
O25_4 O 0.35603(28) 0.3223(2) 0.1101(2)
O26_4 O 0.24780(28) 0.26866(19) 0.1424(2)
O27_4 O 0.2200(3) 0.2041(2) 0.0718(2)
O28_4 O 0.3342(4) 0.2618(3) 0.0351(3)
C21_4 C 0.2572(4) 0.2475(3) 0.0986(3)
C22_4 C 0.3218(4) 0.2795(3) 0.0782(3)
O29_4 O 0.38934(27) 0.40981(19) 0.1981(2)
O30_4 O 0.33638(27) 0.30033(19) 0.2293(2)
C23_4 C 0.4163(4) 0.3979(3) 0.2351(3)
C24_4 C 0.3852(4) 0.3337(3) 0.2549(3)
Cr4_4 Cr 0.02486(4) 0.68407(6) 0.17070(4)
O33_4 O 0.34087(19) 0.73419(26) 0.09996(18)
O34_4 O 0.28210(18) 0.68316(25) 0.19356(19)
O35_4 O 0.3183(2) 0.80500(27) 0.1079(2)
O36_4 O 0.2583(2) 0.7523(3) 0.20637(19)
C25_4 C 0.3163(3) 0.7597(4) 0.1248(3)
C26_4 C 0.2829(3) 0.7309(4) 0.1797(3)
O37_4 O 0.1863(2) 0.7533(3) 0.1125(2)
O38_4 O 0.18435(19) 0.80296(26) 0.21555(19)
O39_4 O 0.08935(19) 0.69941(28) 0.11755(16)
O40_4 O 0.0905(2) 0.73607(28) 0.22175(18)
C27_4 C 0.1392(3) 0.7367(4) 0.1365(3)
C28_4 C 0.1397(3) 0.7622(4) 0.1968(3)
O42_4 O 0.0209(2) 0.75220(28) 0.1424(2)
O45_4 O 0.02048(19) 0.61066(27) 0.1981(2)
O55_4 O 0.6372(2) 0.76673(19) 0.0903(2)
O56_4 O 0.23327(19) 0.87051(28) 0.0903(2)
O57_4 O 0.12949(28) 0.3628(2) 0.0903(2)
O58_4 O 0.5759(2) 0.6518(2) 0.1238(2)
O59_4 O 0.3482(2) 0.9242(3) 0.1238(2)
O60_4 O 0.0758(3) 0.4241(2) 0.1238(2)
O41_4 O 0.96631(19) 0.64397(28) 0.1101(2)
O43_4 O 0.9842(2) 0.7800(3) 0.0718(2)
O44_4 O 0.9277(2) 0.6658(4) 0.0351(3)
C29_4 C 0.9904(3) 0.7428(4) 0.0986(3)
C30_4 C 0.9578(3) 0.6782(4) 0.0782(3)
O46_4 O 0.96396(19) 0.66362(27) 0.2293(2)
C31_4 C 0.9817(3) 0.5837(4) 0.2351(3)
C32_4 C 0.9486(3) 0.6148(4) 0.2549(3)
Cr3_5 Cr 0.32588(4) 0.01741(6) 0.00404(4)
O18_5 O 0.06773(17) 0.01650(25) 0.02690(19)
O20_5 O 0.1607(2) 0.0857(3) 0.03971(19)
C18_5 C 0.1147(3) 0.0643(4) 0.0131(3)
O22_5 O 0.28528(18) 0.13630(26) 0.04889(19)
O24_5 O 0.31227(19) 0.06941(28) 0.05509(18)
C20_5 C 0.2892(2) 0.0956(4) 0.0302(3)
O45_5 O 0.05600(27) 0.31286(19) 0.0315(2)
O46_5 O 0.00304(27) 0.36938(19) 0.0627(2)
C31_5 C 0.0829(4) 0.3517(3) 0.0685(3)
C32_5 C 0.0518(4) 0.3848(3) 0.0883(3)
Cr1_5 Cr 0.0000 -0.0000 0.97853(7)
O17_5 O 0.05999(18) 0.06753(26) 0.93330(18)
O19_5 O 0.15340(18) 0.13834(27) 0.9413(2)
C17_5 C 0.1101(3) 0.0931(4) 0.9582(3)
O21_5 O 0.2337(2) 0.0867(3) 0.9459(2)
O23_5 O 0.2767(2) 0.03275(28) 0.95089(16)
C19_5 C 0.2642(3) 0.0701(4) 0.9699(3)
O26_5 O 0.39800(19) 0.08554(28) 0.9758(2)
C21_5 C 0.4191(3) 0.0762(4) 0.9320(3)
C22_5 C 0.3871(3) 0.0116(4) 0.9116(3)
O41_5 O 0.02269(28) 0.36703(19) 0.9435(2)
O29_5 O 0.25685(19) 0.94400(27) 0.0315(2)
O30_5 O 0.36633(19) 0.99696(27) 0.0627(2)
C23_5 C 0.2687(3) 0.9171(4) 0.0685(3)
C24_5 C 0.3329(3) 0.9482(4) 0.0883(3)
Cr1_6 Cr 0.0000 1.0000 0.97853(7)
O1_5 O 0.00753(19) 0.94001(18) 0.93330(18)
O25_5 O 0.3443(2) 0.97731(28) 0.9435(2)
Cr4_5 Cr 0.98259(6) 0.30848(4) 0.00404(4)
O34_5 O 0.98350(25) 0.05124(18) 0.02690(19)
O36_5 O 0.9143(3) 0.0751(2) 0.03971(19)
C26_5 C 0.9357(4) 0.0505(3) 0.0131(3)
O38_5 O 0.86370(26) 0.14899(19) 0.04889(19)
O40_5 O 0.93059(28) 0.2429(2) 0.05509(18)
C28_5 C 0.9044(4) 0.1937(3) 0.0302(3)
Cr1_7 Cr 1.0000 -0.0000 0.97853(7)
O35_5 O 0.86166(27) 0.0151(2) 0.9413(2)
C25_5 C 0.9069(4) 0.0171(3) 0.9582(3)
O37_5 O 0.9133(3) 0.1471(2) 0.9459(2)
O39_5 O 0.96725(28) 0.24399(19) 0.95089(16)
C27_5 C 0.9299(4) 0.1942(3) 0.9699(3)
O42_5 O 0.91446(28) 0.3125(2) 0.9758(2)
C29_5 C 0.9238(4) 0.3430(3) 0.9320(3)
C30_5 C 0.9884(4) 0.3756(3) 0.9116(3)
Cr2_5 Cr 0.69152(4) 0.67412(4) 0.00404(4)
O2_5 O 0.94876(18) 0.93227(17) 0.02690(19)
O4_5 O 0.9249(2) 0.8393(2) 0.03971(19)
C10_5 C 0.9495(3) 0.8853(3) 0.0131(3)
O6_5 O 0.85101(19) 0.71472(18) 0.04889(19)
O8_5 O 0.7571(2) 0.68773(19) 0.05509(18)
C12_5 C 0.8063(3) 0.7108(2) 0.0302(3)
O13_5 O 0.68714(19) 0.74315(19) 0.0315(2)
O14_5 O 0.63062(19) 0.63367(19) 0.0627(2)
C15_5 C 0.6483(3) 0.7313(3) 0.0685(3)
C16_5 C 0.6152(3) 0.6671(3) 0.0883(3)
Cr1_8 Cr 1.0000 1.0000 0.97853(7)
O3_5 O 0.9849(2) 0.84660(18) 0.9413(2)
C9_5 C 0.9829(3) 0.8899(3) 0.9582(3)
O5_5 O 0.8529(2) 0.7663(2) 0.9459(2)
O7_5 O 0.75601(19) 0.7233(2) 0.95089(16)
C11_5 C 0.8058(3) 0.7358(3) 0.9699(3)
O9_5 O 0.63297(19) 0.6557(2) 0.9435(2)
O10_5 O 0.6875(2) 0.60200(19) 0.9758(2)
C13_5 C 0.6570(3) 0.5809(3) 0.9320(3)
C14_5 C 0.6244(3) 0.6129(3) 0.9116(3)
O33_5 O 0.93247(26) 0.99247(19) 0.93330(18)
Cr1_9 Cr 0.0000 -0.0000 0.47853(7)
Cr2_6 Cr 0.32588(4) 0.30848(4) 0.50404(4)
O2_6 O 0.06773(17) 0.05124(18) 0.52690(19)
O3_6 O 0.15340(18) 0.0151(2) 0.4413(2)
O4_6 O 0.1607(2) 0.0751(2) 0.53971(19)
C9_6 C 0.1101(3) 0.0171(3) 0.4582(3)
C10_6 C 0.1147(3) 0.0505(3) 0.5131(3)
O5_6 O 0.2337(2) 0.1471(2) 0.4459(2)
O6_6 O 0.28528(18) 0.14899(19) 0.54889(19)
O7_6 O 0.2767(2) 0.24399(19) 0.45089(16)
O8_6 O 0.31227(19) 0.2429(2) 0.55509(18)
C11_6 C 0.2642(3) 0.1942(3) 0.4699(3)
C12_6 C 0.2892(2) 0.1937(3) 0.5302(3)
O9_6 O 0.3443(2) 0.36703(19) 0.4435(2)
O10_6 O 0.39800(19) 0.3125(2) 0.4758(2)
C13_6 C 0.4191(3) 0.3430(3) 0.4320(3)
C14_6 C 0.3871(3) 0.3756(3) 0.4116(3)
O13_6 O 0.25685(19) 0.31286(19) 0.5315(2)
O14_6 O 0.36633(19) 0.36938(19) 0.5627(2)
C15_6 C 0.2687(3) 0.3517(3) 0.5685(3)
C16_6 C 0.3329(3) 0.3848(3) 0.5883(3)
O33_6 O 0.00753(19) 0.06753(26) 0.43330(18)
Cr1_10 Cr 0.0000 1.0000 0.47853(7)
O1_6 O 0.05999(18) 0.99247(19) 0.43330(18)
O25_6 O 0.02269(28) 0.6557(2) 0.4435(2)
O29_6 O 0.05600(27) 0.74315(19) 0.5315(2)
O30_6 O 0.00304(27) 0.63367(19) 0.5627(2)
C23_6 C 0.0829(4) 0.7313(3) 0.5685(3)
C24_6 C 0.0518(4) 0.6671(3) 0.5883(3)
Cr1_11 Cr 1.0000 -0.0000 0.47853(7)
Cr4_6 Cr 0.69152(4) 0.01741(6) 0.50404(4)
O34_6 O 0.94876(18) 0.01650(25) 0.52690(19)
O35_6 O 0.9849(2) 0.13834(27) 0.4413(2)
O36_6 O 0.9249(2) 0.0857(3) 0.53971(19)
C25_6 C 0.9829(3) 0.0931(4) 0.4582(3)
C26_6 C 0.9495(3) 0.0643(4) 0.5131(3)
O37_6 O 0.8529(2) 0.0867(3) 0.4459(2)
O38_6 O 0.85101(19) 0.13630(26) 0.54889(19)
O39_6 O 0.75601(19) 0.03275(28) 0.45089(16)
O40_6 O 0.7571(2) 0.06941(28) 0.55509(18)
C27_6 C 0.8058(3) 0.0701(4) 0.4699(3)
C28_6 C 0.8063(3) 0.0956(4) 0.5302(3)
O42_6 O 0.6875(2) 0.08554(28) 0.4758(2)
C29_6 C 0.6570(3) 0.0762(4) 0.4320(3)
C30_6 C 0.6244(3) 0.0116(4) 0.4116(3)
Cr1_12 Cr 1.0000 1.0000 0.47853(7)
Cr3_6 Cr 0.98259(6) 0.67412(4) 0.50404(4)
O17_6 O 0.93247(26) 0.94001(18) 0.43330(18)
O18_6 O 0.98350(25) 0.93227(17) 0.52690(19)
O19_6 O 0.86166(27) 0.84660(18) 0.4413(2)
O20_6 O 0.9143(3) 0.8393(2) 0.53971(19)
C17_6 C 0.9069(4) 0.8899(3) 0.4582(3)
C18_6 C 0.9357(4) 0.8853(3) 0.5131(3)
O21_6 O 0.9133(3) 0.7663(2) 0.4459(2)
O22_6 O 0.86370(26) 0.71472(18) 0.54889(19)
O23_6 O 0.96725(28) 0.7233(2) 0.45089(16)
O24_6 O 0.93059(28) 0.68773(19) 0.55509(18)
C19_6 C 0.9299(4) 0.7358(3) 0.4699(3)
C20_6 C 0.9044(4) 0.7108(2) 0.5302(3)
O26_6 O 0.91446(28) 0.60200(19) 0.4758(2)
C21_6 C 0.9238(4) 0.5809(3) 0.4320(3)
C22_6 C 0.9884(4) 0.6129(3) 0.4116(3)
O41_6 O 0.63297(19) 0.97731(28) 0.4435(2)
O45_6 O 0.68714(19) 0.94400(27) 0.5315(2)
O46_6 O 0.63062(19) 0.99696(27) 0.5627(2)
C31_6 C 0.6483(3) 0.9171(4) 0.5685(3)
C32_6 C 0.6152(3) 0.9482(4) 0.5883(3)
loop_
_geom_bond_atom_site_label_1
_geom_bond_atom_site_label_2
_geom_bond_site_symmetry_1
_geom_bond_site_symmetry_2
H7 C3 1_555 1_555
H9 C3 1_555 1_555
N1 C1 1_555 1_555
C1 H1 1_555 1_555
H2 C1 1_555 1_555
C2 N1 1_555 1_555
H4 C2 1_555 1_555
H5 C2 1_555 1_555
H6 C2 1_555 1_555
C4 N1 1_555 1_555
H10 C4 1_555 1_555
H12 C4 1_555 1_555
H7_2 C3_2 1_555 1_555
H9_2 C3_2 1_555 1_555
N1_2 C1_2 1_555 1_555
C1_2 H1_2 1_555 1_555
H2_2 C1_2 1_555 1_555
C2_2 N1_2 1_555 1_555
H4_2 C2_2 1_555 1_555
H5_2 C2_2 1_555 1_555
H6_2 C2_2 1_555 1_555
C4_2 N1_2 1_555 1_555
H10_2 C4_2 1_555 1_555
H12_2 C4_2 1_555 1_555
H7_3 C3_3 1_555 1_555
H9_3 C3_3 1_555 1_555
N1_3 C1_3 1_555 1_555
C1_3 H1_3 1_555 1_555
H2_3 C1_3 1_555 1_555
C2_3 N1_3 1_555 1_555
H4_3 C2_3 1_555 1_555
H5_3 C2_3 1_555 1_555
H6_3 C2_3 1_555 1_555
C4_3 N1_3 1_555 1_555
H10_3 C4_3 1_555 1_555
H12_3 C4_3 1_555 1_555
N1_4 C1_4 1_555 1_555
C1_4 H1_4 1_555 1_555
H2_4 C1_4 1_555 1_555
H3_4 C1_4 1_555 1_555
C2_4 N1_4 1_555 1_555
H4_4 C2_4 1_555 1_555
H5_4 C2_4 1_555 1_555
H6_4 C2_4 1_555 1_555
C3_4 N1_4 1_555 1_555
H7_4 C3_4 1_555 1_555
H8_4 C3_4 1_555 1_555
H9_4 C3_4 1_555 1_555
C4_4 N1_4 1_555 1_555
H10_4 C4_4 1_555 1_555
H11_4 C4_4 1_555 1_555
H12_4 C4_4 1_555 1_555
N1_5 C1_5 1_555 1_555
C1_5 H1_5 1_555 1_555
H2_5 C1_5 1_555 1_555
H3_5 C1_5 1_555 1_555
C2_5 N1_5 1_555 1_555
H4_5 C2_5 1_555 1_555
H5_5 C2_5 1_555 1_555
H6_5 C2_5 1_555 1_555
C3_5 N1_5 1_555 1_555
H7_5 C3_5 1_555 1_555
H8_5 C3_5 1_555 1_555
H9_5 C3_5 1_555 1_555
C4_5 N1_5 1_555 1_555
H10_5 C4_5 1_555 1_555
H11_5 C4_5 1_555 1_555
H12_5 C4_5 1_555 1_555
N1_6 C1_6 1_555 1_555
C1_6 H1_6 1_555 1_555
H2_6 C1_6 1_555 1_555
H3_6 C1_6 1_555 1_555
C2_6 N1_6 1_555 1_555
H4_6 C2_6 1_555 1_555
H5_6 C2_6 1_555 1_555
H6_6 C2_6 1_555 1_555
C3_6 N1_6 1_555 1_555
H7_6 C3_6 1_555 1_555
H8_6 C3_6 1_555 1_555
H9_6 C3_6 1_555 1_555
C4_6 N1_6 1_555 1_555
H10_6 C4_6 1_555 1_555
H11_6 C4_6 1_555 1_555
H12_6 C4_6 1_555 1_555
N1_7 C1_7 1_555 1_555
C1_7 H1_7 1_555 1_555
H2_7 C1_7 1_555 1_555
H3_7 C1_7 1_555 1_555
C2_7 N1_7 1_555 1_555
H4_7 C2_7 1_555 1_555
H5_7 C2_7 1_555 1_555
H6_7 C2_7 1_555 1_555
C3_7 N1_7 1_555 1_555
H7_7 C3_7 1_555 1_555
H8_7 C3_7 1_555 1_555
H9_7 C3_7 1_555 1_555
C4_7 N1_7 1_555 1_555
H10_7 C4_7 1_555 1_555
H11_7 C4_7 1_555 1_555
H12_7 C4_7 1_555 1_555
N1_8 C1_8 1_555 1_555
C1_8 H1_8 1_555 1_555
H2_8 C1_8 1_555 1_555
H3_8 C1_8 1_555 1_555
C2_8 N1_8 1_555 1_555
H4_8 C2_8 1_555 1_555
H5_8 C2_8 1_555 1_555
H6_8 C2_8 1_555 1_555
C3_8 N1_8 1_555 1_555
H7_8 C3_8 1_555 1_555
H8_8 C3_8 1_555 1_555
H9_8 C3_8 1_555 1_555
C4_8 N1_8 1_555 1_555
H10_8 C4_8 1_555 1_555
H11_8 C4_8 1_555 1_555
H12_8 C4_8 1_555 1_555
N1_9 C1_9 1_555 1_555
C1_9 H1_9 1_555 1_555
H2_9 C1_9 1_555 1_555
H3_9 C1_9 1_555 1_555
C2_9 N1_9 1_555 1_555
H4_9 C2_9 1_555 1_555
H5_9 C2_9 1_555 1_555
H6_9 C2_9 1_555 1_555
C3_9 N1_9 1_555 1_555
H7_9 C3_9 1_555 1_555
H8_9 C3_9 1_555 1_555
H9_9 C3_9 1_555 1_555
C4_9 N1_9 1_555 1_555
H10_9 C4_9 1_555 1_555
H11_9 C4_9 1_555 1_555
H12_9 C4_9 1_555 1_555
N1_10 C1_10 1_555 1_555
C1_10 H1_10 1_555 1_555
H2_10 C1_10 1_555 1_555
H3_10 C1_10 1_555 1_555
C2_10 N1_10 1_555 1_555
H4_10 C2_10 1_555 1_555
H5_10 C2_10 1_555 1_555
H6_10 C2_10 1_555 1_555
C3_10 N1_10 1_555 1_555
H7_10 C3_10 1_555 1_555
H8_10 C3_10 1_555 1_555
H9_10 C3_10 1_555 1_555
C4_10 N1_10 1_555 1_555
H10_10 C4_10 1_555 1_555
H11_10 C4_10 1_555 1_555
H12_10 C4_10 1_555 1_555
N1_11 C1_11 1_555 1_555
C1_11 H1_11 1_555 1_555
H2_11 C1_11 1_555 1_555
H3_11 C1_11 1_555 1_555
C2_11 N1_11 1_555 1_555
H4_11 C2_11 1_555 1_555
H5_11 C2_11 1_555 1_555
H6_11 C2_11 1_555 1_555
C3_11 N1_11 1_555 1_555
H7_11 C3_11 1_555 1_555
H8_11 C3_11 1_555 1_555
H9_11 C3_11 1_555 1_555
C4_11 N1_11 1_555 1_555
H10_11 C4_11 1_555 1_555
H11_11 C4_11 1_555 1_555
H12_11 C4_11 1_555 1_555
N1_12 C1_12 1_555 1_555
C1_12 H1_12 1_555 1_555
H2_12 C1_12 1_555 1_555
H3_12 C1_12 1_555 1_555
C2_12 N1_12 1_555 1_555
H4_12 C2_12 1_555 1_555
H5_12 C2_12 1_555 1_555
H6_12 C2_12 1_555 1_555
C3_12 N1_12 1_555 1_555
H7_12 C3_12 1_555 1_555
H8_12 C3_12 1_555 1_555
H9_12 C3_12 1_555 1_555
C4_12 N1_12 1_555 1_555
H10_12 C4_12 1_555 1_555
H11_12 C4_12 1_555 1_555
H12_12 C4_12 1_555 1_555
N1_13 C1_13 1_555 1_555
C1_13 H1_13 1_555 1_555
H2_13 C1_13 1_555 1_555
H3_13 C1_13 1_555 1_555
C2_13 N1_13 1_555 1_555
H4_13 C2_13 1_555 1_555
H5_13 C2_13 1_555 1_555
H6_13 C2_13 1_555 1_555
C3_13 N1_13 1_555 1_555
H7_13 C3_13 1_555 1_555
H8_13 C3_13 1_555 1_555
H9_13 C3_13 1_555 1_555
C4_13 N1_13 1_555 1_555
H12_13 C4_13 1_555 1_555
N1_14 C1_14 1_555 1_555
C1_14 H1_14 1_555 1_555
H2_14 C1_14 1_555 1_555
H3_14 C1_14 1_555 1_555
C2_14 N1_14 1_555 1_555
H4_14 C2_14 1_555 1_555
H5_14 C2_14 1_555 1_555
H6_14 C2_14 1_555 1_555
C3_14 N1_14 1_555 1_555
H7_14 C3_14 1_555 1_555
H8_14 C3_14 1_555 1_555
H9_14 C3_14 1_555 1_555
C4_14 N1_14 1_555 1_555
H12_14 C4_14 1_555 1_555
N1_15 C1_15 1_555 1_555
C1_15 H1_15 1_555 1_555
H2_15 C1_15 1_555 1_555
H3_15 C1_15 1_555 1_555
C2_15 N1_15 1_555 1_555
H4_15 C2_15 1_555 1_555
H5_15 C2_15 1_555 1_555
H6_15 C2_15 1_555 1_555
C3_15 N1_15 1_555 1_555
H7_15 C3_15 1_555 1_555
H8_15 C3_15 1_555 1_555
H9_15 C3_15 1_555 1_555
C4_15 N1_15 1_555 1_555
H10_15 C4_15 1_555 1_555
H11_15 C4_15 1_555 1_555
H12_15 C4_15 1_555 1_555
N1_16 C1_16 1_555 1_555
C1_16 H1_16 1_555 1_555
H2_16 C1_16 1_555 1_555
H3_16 C1_16 1_555 1_555
C2_16 N1_16 1_555 1_555
H4_16 C2_16 1_555 1_555
H5_16 C2_16 1_555 1_555
H6_16 C2_16 1_555 1_555
C3_16 N1_16 1_555 1_555
H7_16 C3_16 1_555 1_555
H8_16 C3_16 1_555 1_555
H9_16 C3_16 1_555 1_555
C4_16 N1_16 1_555 1_555
H12_16 C4_16 1_555 1_555
N1_17 C1_17 1_555 1_555
C1_17 H1_17 1_555 1_555
H2_17 C1_17 1_555 1_555
H3_17 C1_17 1_555 1_555
C2_17 N1_17 1_555 1_555
H4_17 C2_17 1_555 1_555
H5_17 C2_17 1_555 1_555
H6_17 C2_17 1_555 1_555
C3_17 N1_17 1_555 1_555
H7_17 C3_17 1_555 1_555
H8_17 C3_17 1_555 1_555
H9_17 C3_17 1_555 1_555
C4_17 N1_17 1_555 1_555
H12_17 C4_17 1_555 1_555
N1_18 C1_18 1_555 1_555
C1_18 H1_18 1_555 1_555
H2_18 C1_18 1_555 1_555
H3_18 C1_18 1_555 1_555
C2_18 N1_18 1_555 1_555
H4_18 C2_18 1_555 1_555
H5_18 C2_18 1_555 1_555
H6_18 C2_18 1_555 1_555
C3_18 N1_18 1_555 1_555
H7_18 C3_18 1_555 1_555
H8_18 C3_18 1_555 1_555
H9_18 C3_18 1_555 1_555
C4_18 N1_18 1_555 1_555
H10_18 C4_18 1_555 1_555
H11_18 C4_18 1_555 1_555
H12_18 C4_18 1_555 1_555
H16 C6 1_555 1_555
H17 C6 1_555 1_555
H18 C6 1_555 1_555
C8 N2 1_555 1_555
H22 C8 1_555 1_555
H23 C8 1_555 1_555
H24 C8 1_555 1_555
C5 H13 1_555 1_555
H15 C5 1_555 1_555
H19 C7 1_555 1_555
H20 C7 1_555 1_555
C8_2 N2_2 1_555 1_555
H22_2 C8_2 1_555 1_555
H23_2 C8_2 1_555 1_555
H24_2 C8_2 1_555 1_555
C5_2 H13_2 1_555 1_555
H15_2 C5_2 1_555 1_555
H19_2 C7_2 1_555 1_555
H20_2 C7_2 1_555 1_555
H16_2 C6_2 1_555 1_555
H17_2 C6_2 1_555 1_555
H18_2 C6_2 1_555 1_555
C6_3 N2_3 1_555 1_555
H16_3 C6_3 1_555 1_555
H17_3 C6_3 1_555 1_555
H18_3 C6_3 1_555 1_555
C8_3 N2_3 1_555 1_555
H22_3 C8_3 1_555 1_555
H23_3 C8_3 1_555 1_555
H24_3 C8_3 1_555 1_555
C5_3 H13_3 1_555 1_555
H15_3 C5_3 1_555 1_555
H19_3 C7_3 1_555 1_555
H20_3 C7_3 1_555 1_555
N2_4 C5_4 1_555 1_555
C5_4 H13_4 1_555 1_555
H14_4 C5_4 1_555 1_555
H15_4 C5_4 1_555 1_555
C7_4 N2_4 1_555 1_555
H19_4 C7_4 1_555 1_555
H20_4 C7_4 1_555 1_555
H21_4 C7_4 1_555 1_555
C8_4 N2_4 1_555 1_555
H22_4 C8_4 1_555 1_555
H23_4 C8_4 1_555 1_555
H24_4 C8_4 1_555 1_555
H16_4 C6_4 1_555 1_555
H17_4 C6_4 1_555 1_555
H18_4 C6_4 1_555 1_555
H16_5 C6_5 1_555 1_555
H17_5 C6_5 1_555 1_555
H18_5 C6_5 1_555 1_555
N2_5 C5_5 1_555 1_555
C5_5 H13_5 1_555 1_555
H14_5 C5_5 1_555 1_555
H15_5 C5_5 1_555 1_555
C7_5 N2_5 1_555 1_555
H19_5 C7_5 1_555 1_555
H20_5 C7_5 1_555 1_555
H21_5 C7_5 1_555 1_555
C8_5 N2_5 1_555 1_555
H22_5 C8_5 1_555 1_555
H23_5 C8_5 1_555 1_555
H24_5 C8_5 1_555 1_555
N2_6 C5_6 1_555 1_555
C5_6 H13_6 1_555 1_555
H14_6 C5_6 1_555 1_555
H15_6 C5_6 1_555 1_555
C6_6 N2_6 1_555 1_555
H16_6 C6_6 1_555 1_555
H17_6 C6_6 1_555 1_555
H18_6 C6_6 1_555 1_555
C7_6 N2_6 1_555 1_555
H19_6 C7_6 1_555 1_555
H20_6 C7_6 1_555 1_555
H21_6 C7_6 1_555 1_555
C8_6 N2_6 1_555 1_555
H22_6 C8_6 1_555 1_555
H23_6 C8_6 1_555 1_555
H24_6 C8_6 1_555 1_555
N2_7 C5_7 1_555 1_555
C5_7 H13_7 1_555 1_555
H14_7 C5_7 1_555 1_555
H15_7 C5_7 1_555 1_555
C6_7 N2_7 1_555 1_555
H16_7 C6_7 1_555 1_555
H17_7 C6_7 1_555 1_555
H18_7 C6_7 1_555 1_555
C7_7 N2_7 1_555 1_555
H19_7 C7_7 1_555 1_555
H20_7 C7_7 1_555 1_555
H21_7 C7_7 1_555 1_555
C8_7 N2_7 1_555 1_555
H22_7 C8_7 1_555 1_555
H23_7 C8_7 1_555 1_555
H24_7 C8_7 1_555 1_555
N2_8 C5_8 1_555 1_555
C5_8 H13_8 1_555 1_555
H14_8 C5_8 1_555 1_555
H15_8 C5_8 1_555 1_555
C6_8 N2_8 1_555 1_555
H16_8 C6_8 1_555 1_555
H17_8 C6_8 1_555 1_555
H18_8 C6_8 1_555 1_555
C7_8 N2_8 1_555 1_555
H19_8 C7_8 1_555 1_555
H20_8 C7_8 1_555 1_555
H21_8 C7_8 1_555 1_555
C8_8 N2_8 1_555 1_555
H22_8 C8_8 1_555 1_555
H23_8 C8_8 1_555 1_555
H24_8 C8_8 1_555 1_555
N2_9 C5_9 1_555 1_555
C5_9 H13_9 1_555 1_555
H14_9 C5_9 1_555 1_555
H15_9 C5_9 1_555 1_555
C6_9 N2_9 1_555 1_555
H16_9 C6_9 1_555 1_555
H17_9 C6_9 1_555 1_555
H18_9 C6_9 1_555 1_555
C7_9 N2_9 1_555 1_555
H19_9 C7_9 1_555 1_555
H20_9 C7_9 1_555 1_555
H21_9 C7_9 1_555 1_555
C8_9 N2_9 1_555 1_555
H22_9 C8_9 1_555 1_555
H23_9 C8_9 1_555 1_555
H24_9 C8_9 1_555 1_555
N2_10 C5_10 1_555 1_555
C5_10 H13_10 1_555 1_555
H14_10 C5_10 1_555 1_555
H15_10 C5_10 1_555 1_555
C6_10 N2_10 1_555 1_555
H16_10 C6_10 1_555 1_555
H17_10 C6_10 1_555 1_555
H18_10 C6_10 1_555 1_555
C7_10 N2_10 1_555 1_555
H19_10 C7_10 1_555 1_555
H20_10 C7_10 1_555 1_555
H21_10 C7_10 1_555 1_555
C8_10 N2_10 1_555 1_555
H22_10 C8_10 1_555 1_555
H23_10 C8_10 1_555 1_555
H24_10 C8_10 1_555 1_555
N2_11 C5_11 1_555 1_555
C5_11 H13_11 1_555 1_555
H14_11 C5_11 1_555 1_555
H15_11 C5_11 1_555 1_555
C6_11 N2_11 1_555 1_555
H16_11 C6_11 1_555 1_555
H17_11 C6_11 1_555 1_555
H18_11 C6_11 1_555 1_555
C7_11 N2_11 1_555 1_555
H19_11 C7_11 1_555 1_555
H20_11 C7_11 1_555 1_555
H21_11 C7_11 1_555 1_555
C8_11 N2_11 1_555 1_555
H22_11 C8_11 1_555 1_555
H23_11 C8_11 1_555 1_555
H24_11 C8_11 1_555 1_555
N2_12 C5_12 1_555 1_555
C5_12 H13_12 1_555 1_555
H14_12 C5_12 1_555 1_555
H15_12 C5_12 1_555 1_555
C6_12 N2_12 1_555 1_555
H16_12 C6_12 1_555 1_555
H17_12 C6_12 1_555 1_555
H18_12 C6_12 1_555 1_555
C7_12 N2_12 1_555 1_555
H19_12 C7_12 1_555 1_555
H20_12 C7_12 1_555 1_555
H21_12 C7_12 1_555 1_555
C8_12 N2_12 1_555 1_555
H22_12 C8_12 1_555 1_555
H23_12 C8_12 1_555 1_555
H24_12 C8_12 1_555 1_555
N2_13 C5_13 1_555 1_555
C5_13 H13_13 1_555 1_555
H14_13 C5_13 1_555 1_555
H15_13 C5_13 1_555 1_555
C6_13 N2_13 1_555 1_555
H16_13 C6_13 1_555 1_555
H17_13 C6_13 1_555 1_555
H18_13 C6_13 1_555 1_555
C7_13 N2_13 1_555 1_555
H19_13 C7_13 1_555 1_555
H20_13 C7_13 1_555 1_555
H21_13 C7_13 1_555 1_555
C8_13 N2_13 1_555 1_555
H22_13 C8_13 1_555 1_555
H23_13 C8_13 1_555 1_555
H24_13 C8_13 1_555 1_555
N2_14 C5_14 1_555 1_555
C5_14 H13_14 1_555 1_555
H14_14 C5_14 1_555 1_555
H15_14 C5_14 1_555 1_555
C6_14 N2_14 1_555 1_555
H16_14 C6_14 1_555 1_555
H17_14 C6_14 1_555 1_555
H18_14 C6_14 1_555 1_555
C7_14 N2_14 1_555 1_555
H19_14 C7_14 1_555 1_555
H20_14 C7_14 1_555 1_555
H21_14 C7_14 1_555 1_555
C8_14 N2_14 1_555 1_555
H22_14 C8_14 1_555 1_555
H23_14 C8_14 1_555 1_555
H24_14 C8_14 1_555 1_555
N2_15 C5_15 1_555 1_555
C5_15 H13_15 1_555 1_555
H14_15 C5_15 1_555 1_555
H15_15 C5_15 1_555 1_555
C6_15 N2_15 1_555 1_555
H16_15 C6_15 1_555 1_555
H17_15 C6_15 1_555 1_555
H18_15 C6_15 1_555 1_555
C7_15 N2_15 1_555 1_555
H19_15 C7_15 1_555 1_555
H20_15 C7_15 1_555 1_555
H21_15 C7_15 1_555 1_555
C8_15 N2_15 1_555 1_555
H22_15 C8_15 1_555 1_555
H23_15 C8_15 1_555 1_555
H24_15 C8_15 1_555 1_555
N2_16 C5_16 1_555 1_555
C5_16 H13_16 1_555 1_555
H14_16 C5_16 1_555 1_555
H15_16 C5_16 1_555 1_555
C6_16 N2_16 1_555 1_555
H16_16 C6_16 1_555 1_555
H17_16 C6_16 1_555 1_555
H18_16 C6_16 1_555 1_555
C7_16 N2_16 1_555 1_555
H19_16 C7_16 1_555 1_555
H20_16 C7_16 1_555 1_555
H21_16 C7_16 1_555 1_555
C8_16 N2_16 1_555 1_555
H22_16 C8_16 1_555 1_555
H23_16 C8_16 1_555 1_555
H24_16 C8_16 1_555 1_555
N2_17 C5_17 1_555 1_555
C5_17 H13_17 1_555 1_555
H14_17 C5_17 1_555 1_555
H15_17 C5_17 1_555 1_555
C6_17 N2_17 1_555 1_555
H16_17 C6_17 1_555 1_555
H17_17 C6_17 1_555 1_555
H18_17 C6_17 1_555 1_555
C7_17 N2_17 1_555 1_555
H19_17 C7_17 1_555 1_555
H20_17 C7_17 1_555 1_555
H21_17 C7_17 1_555 1_555
C8_17 N2_17 1_555 1_555
H22_17 C8_17 1_555 1_555
H23_17 C8_17 1_555 1_555
H24_17 C8_17 1_555 1_555
N2_18 C5_18 1_555 1_555
C5_18 H13_18 1_555 1_555
H14_18 C5_18 1_555 1_555
H15_18 C5_18 1_555 1_555
C6_18 N2_18 1_555 1_555
H16_18 C6_18 1_555 1_555
H17_18 C6_18 1_555 1_555
H18_18 C6_18 1_555 1_555
C7_18 N2_18 1_555 1_555
H19_18 C7_18 1_555 1_555
H20_18 C7_18 1_555 1_555
H21_18 C7_18 1_555 1_555
C8_18 N2_18 1_555 1_555
H22_18 C8_18 1_555 1_555
H23_18 C8_18 1_555 1_555
H24_18 C8_18 1_555 1_555
O27 C21 1_555 1_555
O28 C22 1_555 1_555
C21 O26 1_555 1_555
C22 O25 1_555 1_555
Mn5 O27 1_555 1_555
O28 Mn5 1_555 1_555
C21 C22 1_555 1_555
Cr1 O1 1_555 1_555
Cr2 O7 1_555 1_555
Mn1 O3 1_555 1_555
O1 C9 1_555 1_555
O2 Cr1 1_555 1_555
O3 C9 1_555 1_555
O4 Mn1 1_555 1_555
C9 C10 1_555 1_555
C10 O2 1_555 1_555
O5 Mn1 1_555 1_555
O6 Mn1 1_555 1_555
O7 C11 1_555 1_555
O8 Cr2 1_555 1_555
C11 O5 1_555 1_555
C12 O6 1_555 1_555
O13 Cr2 1_555 1_555
O15 C15 1_555 1_555
C15 O13 1_555 1_555
Cr3 O23 1_555 1_555
Mn2 O19 1_555 1_555
O17 Cr1 1_555 1_555
O18 Cr1 1_555 1_555
O19 C17 1_555 1_555
O20 Mn2 1_555 1_555
C17 O17 1_555 1_555
C18 O18 1_555 1_555
O21 Mn2 1_555 1_555
O22 Mn2 1_555 1_555
O23 C19 1_555 1_555
O24 Cr3 1_555 1_555
C19 O21 1_555 1_555
C20 O22 1_555 1_555
O29 Cr3 1_555 1_555
O31 C23 1_555 1_555
C23 O29 1_555 1_555
Cr4 O39 1_555 1_555
Mn3 O35 1_555 1_555
O33 Cr1 1_555 1_555
O34 Cr1 1_555 1_555
O35 C25 1_555 1_555
O36 Mn3 1_555 1_555
C25 O33 1_555 1_555
C26 O34 1_555 1_555
O37 Mn3 1_555 1_555
O38 Mn3 1_555 1_555
O39 C27 1_555 1_555
O40 Cr4 1_555 1_555
C27 O37 1_555 1_555
C28 O38 1_555 1_555
O41 Cr4 1_555 1_555
O42 Cr4 1_555 1_555
O43 C29 1_555 1_555
O44 C30 1_555 1_555
C29 O42 1_555 1_555
C30 O41 1_555 1_555
O45 Cr4 1_555 1_555
O46 Cr4 1_555 1_555
O47 C31 1_555 1_555
O48 C32 1_555 1_555
C31 O45 1_555 1_555
C32 O46 1_555 1_555
Mn4 O43 1_555 1_555
Mn7 O15 1_555 1_555
Mn8 O47 1_555 1_555
Mn9 O31 1_555 1_555
O49 Mn3 1_555 1_555
O50 Mn2 1_555 1_555
O51 Mn1 1_555 1_555
O52 Mn3 1_555 1_555
O55 Mn1 1_555 1_555
O56 Mn3 1_555 1_555
O57 Mn2 1_555 1_555
O58 Mn1 1_555 1_555
O59 Mn3 1_555 1_555
O60 Mn2 1_555 1_555
O4 C10 1_555 1_555
O8 C12 1_555 1_555
C11 C12 1_555 1_555
C15 C16 1_555 1_555
O20 C18 1_555 1_555
C17 C18 1_555 1_555
O24 C20 1_555 1_555
C19 C20 1_555 1_555
C23 C24 1_555 1_555
O36 C26 1_555 1_555
C25 C26 1_555 1_555
O40 C28 1_555 1_555
C27 C28 1_555 1_555
O44 Mn4 1_555 1_555
C29 C30 1_555 1_555
O48 Mn8 1_555 1_555
C31 C32 1_555 1_555
O11 C13 1_555 1_555
O12 C14 1_555 1_555
C13 O10 1_555 1_555
C14 O9 1_555 1_555
Mn6 O11 1_555 1_555
O12 Mn6 1_555 1_555
C13 C14 1_555 1_555
O11_2 C13_2 1_555 1_555
O12_2 C14_2 1_555 1_555
C13_2 O10_2 1_555 1_555
C14_2 O9_2 1_555 1_555
Mn6_2 O11_2 1_555 1_555
O12_2 Mn6_2 1_555 1_555
C13_2 C14_2 1_555 1_555
Cr1_2 O1_2 1_555 1_555
Cr2_2 O7_2 1_555 1_555
Mn1_2 O3_2 1_555 1_555
O1_2 C9_2 1_555 1_555
O2_2 Cr1_2 1_555 1_555
O3_2 C9_2 1_555 1_555
O4_2 Mn1_2 1_555 1_555
C9_2 C10_2 1_555 1_555
C10_2 O2_2 1_555 1_555
O5_2 Mn1_2 1_555 1_555
O6_2 Mn1_2 1_555 1_555
O7_2 C11_2 1_555 1_555
O8_2 Cr2_2 1_555 1_555
C11_2 O5_2 1_555 1_555
C12_2 O6_2 1_555 1_555
O13_2 Cr2_2 1_555 1_555
O15_2 C15_2 1_555 1_555
C15_2 O13_2 1_555 1_555
Cr3_2 O23_2 1_555 1_555
Mn2_2 O19_2 1_555 1_555
O17_2 Cr1_2 1_555 1_555
O18_2 Cr1_2 1_555 1_555
O19_2 C17_2 1_555 1_555
O20_2 Mn2_2 1_555 1_555
C17_2 O17_2 1_555 1_555
C18_2 O18_2 1_555 1_555
O21_2 Mn2_2 1_555 1_555
O22_2 Mn2_2 1_555 1_555
O23_2 C19_2 1_555 1_555
O24_2 Cr3_2 1_555 1_555
C19_2 O21_2 1_555 1_555
C20_2 O22_2 1_555 1_555
O29_2 Cr3_2 1_555 1_555
O31_2 C23_2 1_555 1_555
C23_2 O29_2 1_555 1_555
Cr4_2 O39_2 1_555 1_555
Mn3_2 O35_2 1_555 1_555
O33_2 Cr1_2 1_555 1_555
O34_2 Cr1_2 1_555 1_555
O35_2 C25_2 1_555 1_555
O36_2 Mn3_2 1_555 1_555
C25_2 O33_2 1_555 1_555
C26_2 O34_2 1_555 1_555
O37_2 Mn3_2 1_555 1_555
O38_2 Mn3_2 1_555 1_555
O39_2 C27_2 1_555 1_555
O40_2 Cr4_2 1_555 1_555
C27_2 O37_2 1_555 1_555
C28_2 O38_2 1_555 1_555
O41_2 Cr4_2 1_555 1_555
O42_2 Cr4_2 1_555 1_555
O43_2 C29_2 1_555 1_555
O44_2 C30_2 1_555 1_555
C29_2 O42_2 1_555 1_555
C30_2 O41_2 1_555 1_555
O45_2 Cr4_2 1_555 1_555
O46_2 Cr4_2 1_555 1_555
O47_2 C31_2 1_555 1_555
O48_2 C32_2 1_555 1_555
C31_2 O45_2 1_555 1_555
C32_2 O46_2 1_555 1_555
Mn4_2 O43_2 1_555 1_555
Mn7_2 O15_2 1_555 1_555
Mn8_2 O47_2 1_555 1_555
Mn9_2 O31_2 1_555 1_555
O49_2 Mn3_2 1_555 1_555
O50_2 Mn2_2 1_555 1_555
O51_2 Mn1_2 1_555 1_555
O52_2 Mn3_2 1_555 1_555
O55_2 Mn1_2 1_555 1_555
O56_2 Mn3_2 1_555 1_555
O57_2 Mn2_2 1_555 1_555
O58_2 Mn1_2 1_555 1_555
O59_2 Mn3_2 1_555 1_555
O60_2 Mn2_2 1_555 1_555
O4_2 C10_2 1_555 1_555
O8_2 C12_2 1_555 1_555
C11_2 C12_2 1_555 1_555
C15_2 C16_2 1_555 1_555
O20_2 C18_2 1_555 1_555
C17_2 C18_2 1_555 1_555
O24_2 C20_2 1_555 1_555
C19_2 C20_2 1_555 1_555
C23_2 C24_2 1_555 1_555
O36_2 C26_2 1_555 1_555
C25_2 C26_2 1_555 1_555
O40_2 C28_2 1_555 1_555
C27_2 C28_2 1_555 1_555
O44_2 Mn4_2 1_555 1_555
C29_2 C30_2 1_555 1_555
O48_2 Mn8_2 1_555 1_555
C31_2 C32_2 1_555 1_555
O27_2 C21_2 1_555 1_555
O28_2 C22_2 1_555 1_555
C21_2 O26_2 1_555 1_555
C22_2 O25_2 1_555 1_555
Mn5_2 O27_2 1_555 1_555
O28_2 Mn5_2 1_555 1_555
C21_2 C22_2 1_555 1_555
O43_3 C29_3 1_555 1_555
O44_3 C30_3 1_555 1_555
C30_3 O41_3 1_555 1_555
O57_2 C31_3 1_555 1_555
O60_2 C32_3 1_555 1_555
C32_3 O46_3 1_555 1_555
Mn7 O43_3 1_555 1_555
O44_3 Mn7 1_555 1_555
C29_3 C30_3 1_555 1_555
C31_3 C32_3 1_555 1_555
Cr1_3 O1_3 1_555 1_555
Cr2_3 O7_3 1_555 1_555
Mn4_2 O3_3 1_555 1_555
O1_3 C9_3 1_555 1_555
O2_3 Cr1_3 1_555 1_555
O3_3 C9_3 1_555 1_555
O4_3 Mn4_2 1_555 1_555
C9_3 C10_3 1_555 1_555
C10_3 O2_3 1_555 1_555
O5_3 Mn4_2 1_555 1_555
O6_3 Mn4_2 1_555 1_555
O7_3 C11_3 1_555 1_555
O8_3 Cr2_3 1_555 1_555
C11_3 O5_3 1_555 1_555
C12_3 O6_3 1_555 1_555
O10_3 Cr2_3 1_555 1_555
O13_3 Cr2_3 1_555 1_555
Cr3_3 O23_3 1_555 1_555
Mn5_2 O19_3 1_555 1_555
O17_3 Cr1_3 1_555 1_555
O18_3 Cr1_3 1_555 1_555
O19_3 C17_3 1_555 1_555
O20_3 Mn5_2 1_555 1_555
C17_3 O17_3 1_555 1_555
C18_3 O18_3 1_555 1_555
O21_3 Mn5_2 1_555 1_555
O22_3 Mn5_2 1_555 1_555
O23_3 C19_3 1_555 1_555
O24_3 Cr3_3 1_555 1_555
C19_3 O21_3 1_555 1_555
C20_3 O22_3 1_555 1_555
O25_3 Cr3_3 1_555 1_555
O26_3 Cr3_3 1_555 1_555
O27_3 C21_3 1_555 1_555
O28_3 C22_3 1_555 1_555
C21_3 O26_3 1_555 1_555
C22_3 O25_3 1_555 1_555
O29_3 Cr3_3 1_555 1_555
O30_3 Cr3_3 1_555 1_555
O56_2 C23_3 1_555 1_555
O59_2 C24_3 1_555 1_555
C23_3 O29_3 1_555 1_555
C24_3 O30_3 1_555 1_555
Cr4_3 O39_3 1_555 1_555
Mn6_2 O35_3 1_555 1_555
O33_3 Cr1_3 1_555 1_555
O34_3 Cr1_3 1_555 1_555
O35_3 C25_3 1_555 1_555
O36_3 Mn6_2 1_555 1_555
C25_3 O33_3 1_555 1_555
C26_3 O34_3 1_555 1_555
O37_3 Mn6_2 1_555 1_555
O38_3 Mn6_2 1_555 1_555
O39_3 C27_3 1_555 1_555
O40_3 Cr4_3 1_555 1_555
C27_3 O37_3 1_555 1_555
C28_3 O38_3 1_555 1_555
O42_3 Cr4_3 1_555 1_555
O45_3 Cr4_3 1_555 1_555
Mn8 O27_3 1_555 1_555
O55_3 Mn4_2 1_555 1_555
O56_3 Mn6_2 1_555 1_555
O57_3 Mn5_2 1_555 1_555
O58_3 Mn4_2 1_555 1_555
O59_3 Mn6_2 1_555 1_555
O60_3 Mn5_2 1_555 1_555
O4_3 C10_3 1_555 1_555
O8_3 C12_3 1_555 1_555
C11_3 C12_3 1_555 1_555
O20_3 C18_3 1_555 1_555
C17_3 C18_3 1_555 1_555
O24_3 C20_3 1_555 1_555
C19_3 C20_3 1_555 1_555
O28_3 Mn8 1_555 1_555
C21_3 C22_3 1_555 1_555
C23_3 C24_3 1_555 1_555
O36_3 C26_3 1_555 1_555
C25_3 C26_3 1_555 1_555
O40_3 C28_3 1_555 1_555
C27_3 C28_3 1_555 1_555
O11_3 C13_3 1_555 1_555
O12_3 C14_3 1_555 1_555
C14_3 O9_3 1_555 1_555
O55_2 C15_3 1_555 1_555
O58_2 C16_3 1_555 1_555
C16_3 O14_3 1_555 1_555
Mn9 O11_3 1_555 1_555
O12_3 Mn9 1_555 1_555
C13_3 C14_3 1_555 1_555
C15_3 C16_3 1_555 1_555
O11_4 C13_4 1_555 1_555
O12_4 C14_4 1_555 1_555
C14_4 O9_4 1_555 1_555
O55 C15_4 1_555 1_555
O58 C16_4 1_555 1_555
C16_4 O14_4 1_555 1_555
C13_4 C14_4 1_555 1_555
C15_4 C16_4 1_555 1_555
Cr1_4 O1_4 1_555 1_555
Cr2_4 O7_4 1_555 1_555
Mn4 O3_4 1_555 1_555
O1_4 C9_4 1_555 1_555
O2_4 Cr1_4 1_555 1_555
O3_4 C9_4 1_555 1_555
O4_4 Mn4 1_555 1_555
C9_4 C10_4 1_555 1_555
C10_4 O2_4 1_555 1_555
O5_4 Mn4 1_555 1_555
O6_4 Mn4 1_555 1_555
O7_4 C11_4 1_555 1_555
O8_4 Cr2_4 1_555 1_555
C11_4 O5_4 1_555 1_555
C12_4 O6_4 1_555 1_555
O10_4 Cr2_4 1_555 1_555
O13_4 Cr2_4 1_555 1_555
Cr3_4 O23_4 1_555 1_555
Mn5 O19_4 1_555 1_555
O17_4 Cr1_4 1_555 1_555
O18_4 Cr1_4 1_555 1_555
O19_4 C17_4 1_555 1_555
O20_4 Mn5 1_555 1_555
C17_4 O17_4 1_555 1_555
C18_4 O18_4 1_555 1_555
O21_4 Mn5 1_555 1_555
O22_4 Mn5 1_555 1_555
O23_4 C19_4 1_555 1_555
O24_4 Cr3_4 1_555 1_555
C19_4 O21_4 1_555 1_555
C20_4 O22_4 1_555 1_555
O25_4 Cr3_4 1_555 1_555
O26_4 Cr3_4 1_555 1_555
O27_4 C21_4 1_555 1_555
O28_4 C22_4 1_555 1_555
C21_4 O26_4 1_555 1_555
C22_4 O25_4 1_555 1_555
O29_4 Cr3_4 1_555 1_555
O30_4 Cr3_4 1_555 1_555
O56 C23_4 1_555 1_555
O59 C24_4 1_555 1_555
C23_4 O29_4 1_555 1_555
C24_4 O30_4 1_555 1_555
Cr4_4 O39_4 1_555 1_555
Mn6 O35_4 1_555 1_555
O33_4 Cr1_4 1_555 1_555
O34_4 Cr1_4 1_555 1_555
O35_4 C25_4 1_555 1_555
O36_4 Mn6 1_555 1_555
C25_4 O33_4 1_555 1_555
C26_4 O34_4 1_555 1_555
O37_4 Mn6 1_555 1_555
O38_4 Mn6 1_555 1_555
O39_4 C27_4 1_555 1_555
O40_4 Cr4_4 1_555 1_555
C27_4 O37_4 1_555 1_555
C28_4 O38_4 1_555 1_555
O42_4 Cr4_4 1_555 1_555
O45_4 Cr4_4 1_555 1_555
O55_4 Mn4 1_555 1_555
O56_4 Mn6 1_555 1_555
O57_4 Mn5 1_555 1_555
O58_4 Mn4 1_555 1_555
O59_4 Mn6 1_555 1_555
O60_4 Mn5 1_555 1_555
O4_4 C10_4 1_555 1_555
O8_4 C12_4 1_555 1_555
C11_4 C12_4 1_555 1_555
O20_4 C18_4 1_555 1_555
C17_4 C18_4 1_555 1_555
O24_4 C20_4 1_555 1_555
C19_4 C20_4 1_555 1_555
C21_4 C22_4 1_555 1_555
C23_4 C24_4 1_555 1_555
O36_4 C26_4 1_555 1_555
C25_4 C26_4 1_555 1_555
O40_4 C28_4 1_555 1_555
C27_4 C28_4 1_555 1_555
O43_4 C29_4 1_555 1_555
O44_4 C30_4 1_555 1_555
C30_4 O41_4 1_555 1_555
O57 C31_4 1_555 1_555
O60 C32_4 1_555 1_555
C32_4 O46_4 1_555 1_555
C29_4 C30_4 1_555 1_555
C31_4 C32_4 1_555 1_555
C18_5 O18_5 1_555 1_555
O24_5 Cr3_5 1_555 1_555
C20_5 O22_5 1_555 1_555
O57_4 C31_5 1_555 1_555
O60_4 C32_5 1_555 1_555
C31_5 O45_5 1_555 1_555
C32_5 O46_5 1_555 1_555
O20_5 C18_5 1_555 1_555
O24_5 C20_5 1_555 1_555
C31_5 C32_5 1_555 1_555
Mn8_2 O19_5 1_555 1_555
O17_5 Cr1_5 1_555 1_555
O19_5 C17_5 1_555 1_555
C17_5 O17_5 1_555 1_555
O21_5 Mn8_2 1_555 1_555
O23_5 C19_5 1_555 1_555
C19_5 O21_5 1_555 1_555
O50_2 C21_5 1_555 1_555
C21_5 O26_5 1_555 1_555
C21_5 C22_5 1_555 1_555
O56_4 C23_5 1_555 1_555
O59_4 C24_5 1_555 1_555
C23_5 O29_5 1_555 1_555
C24_5 O30_5 1_555 1_555
C23_5 C24_5 1_555 1_555
Cr1_6 O1_5 1_555 1_555
C26_5 O34_5 1_555 1_555
O40_5 Cr4_5 1_555 1_555
C28_5 O38_5 1_555 1_555
O36_5 C26_5 1_555 1_555
O40_5 C28_5 1_555 1_555
Mn9_2 O35_5 1_555 1_555
O35_5 C25_5 1_555 1_555
O37_5 Mn9_2 1_555 1_555
O39_5 C27_5 1_555 1_555
C27_5 O37_5 1_555 1_555
O51_2 C29_5 1_555 1_555
C29_5 O42_5 1_555 1_555
C29_5 C30_5 1_555 1_555
C10_5 O2_5 1_555 1_555
O8_5 Cr2_5 1_555 1_555
C12_5 O6_5 1_555 1_555
O13_5 Cr2_5 1_555 1_555
O14_5 Cr2_5 1_555 1_555
O55_4 C15_5 1_555 1_555
O58_4 C16_5 1_555 1_555
C15_5 O13_5 1_555 1_555
C16_5 O14_5 1_555 1_555
O4_5 C10_5 1_555 1_555
O8_5 C12_5 1_555 1_555
C15_5 C16_5 1_555 1_555
Mn7_2 O3_5 1_555 1_555
O3_5 C9_5 1_555 1_555
O5_5 Mn7_2 1_555 1_555
O7_5 C11_5 1_555 1_555
C11_5 O5_5 1_555 1_555
O49_2 C13_5 1_555 1_555
O52_2 C14_5 1_555 1_555
C13_5 O10_5 1_555 1_555
C14_5 O9_5 1_555 1_555
O33_5 Cr1_8 1_555 1_555
C13_5 C14_5 1_555 1_555
Cr2_6 O7_6 1_555 1_555
Mn7 O3_6 1_555 1_555
O2_6 Cr1_9 1_555 1_555
O3_6 C9_6 1_555 1_555
O4_6 Mn7 1_555 1_555
C9_6 C10_6 1_555 1_555
C10_6 O2_6 1_555 1_555
O5_6 Mn7 1_555 1_555
O6_6 Mn7 1_555 1_555
O7_6 C11_6 1_555 1_555
O8_6 Cr2_6 1_555 1_555
C11_6 O5_6 1_555 1_555
C12_6 O6_6 1_555 1_555
O9_6 Cr2_6 1_555 1_555
O10_6 Cr2_6 1_555 1_555
O49 C13_6 1_555 1_555
O52 C14_6 1_555 1_555
C13_6 O10_6 1_555 1_555
C14_6 O9_6 1_555 1_555
O13_6 Cr2_6 1_555 1_555
O14_6 Cr2_6 1_555 1_555
O55_3 C15_6 1_555 1_555
O58_3 C16_6 1_555 1_555
C15_6 O13_6 1_555 1_555
C16_6 O14_6 1_555 1_555
O33_6 Cr1_9 1_555 1_555
O4_6 C10_6 1_555 1_555
O8_6 C12_6 1_555 1_555
C11_6 C12_6 1_555 1_555
C13_6 C14_6 1_555 1_555
C15_6 C16_6 1_555 1_555
Cr1_10 O1_6 1_555 1_555
O56_3 C23_6 1_555 1_555
O59_3 C24_6 1_555 1_555
C23_6 O29_6 1_555 1_555
C24_6 O30_6 1_555 1_555
C23_6 C24_6 1_555 1_555
Cr4_6 O39_6 1_555 1_555
Mn9 O35_6 1_555 1_555
O34_6 Cr1_11 1_555 1_555
O35_6 C25_6 1_555 1_555
O36_6 Mn9 1_555 1_555
C26_6 O34_6 1_555 1_555
O37_6 Mn9 1_555 1_555
O38_6 Mn9 1_555 1_555
O39_6 C27_6 1_555 1_555
O40_6 Cr4_6 1_555 1_555
C27_6 O37_6 1_555 1_555
C28_6 O38_6 1_555 1_555
O42_6 Cr4_6 1_555 1_555
O51 C29_6 1_555 1_555
C29_6 O42_6 1_555 1_555
O36_6 C26_6 1_555 1_555
C25_6 C26_6 1_555 1_555
O40_6 C28_6 1_555 1_555
C27_6 C28_6 1_555 1_555
C29_6 C30_6 1_555 1_555
Cr3_6 O23_6 1_555 1_555
Mn8 O19_6 1_555 1_555
O17_6 Cr1_12 1_555 1_555
O18_6 Cr1_12 1_555 1_555
O19_6 C17_6 1_555 1_555
O20_6 Mn8 1_555 1_555
C17_6 O17_6 1_555 1_555
C18_6 O18_6 1_555 1_555
O21_6 Mn8 1_555 1_555
O22_6 Mn8 1_555 1_555
O23_6 C19_6 1_555 1_555
O24_6 Cr3_6 1_555 1_555
C19_6 O21_6 1_555 1_555
C20_6 O22_6 1_555 1_555
O26_6 Cr3_6 1_555 1_555
O50 C21_6 1_555 1_555
C21_6 O26_6 1_555 1_555
O57_3 C31_6 1_555 1_555
O60_3 C32_6 1_555 1_555
C31_6 O45_6 1_555 1_555
C32_6 O46_6 1_555 1_555
O20_6 C18_6 1_555 1_555
C17_6 C18_6 1_555 1_555
O24_6 C20_6 1_555 1_555
C19_6 C20_6 1_555 1_555
C21_6 C22_6 1_555 1_555
C31_6 C32_6 1_555 1_555

#END
