
###############################################################################
#
# This file contains modified crystal structure data generated from the
# MOF subset of the Cambridge Structural Database (CSD) v543 
# hosted by the Cambridge Crystallographic Data Centre (CCDC).
#
# This work is licensed under the Creative Commons
# Attribution-NonCommercial-ShareAlike 4.0 International License.
# To view a copy of this license, visit
# http://creativecommons.org/licenses/by-nc-sa/4.0/
# or send a letter to
# Creative Commons, PO Box 1866, Mountain View, CA 94042, USA.
#
# CIF created using the CSD Python API on 29 September 2022
# The structure has been converted into the P1 space group
# The structure has a 3D framework
# The original CSD entry OTIPAK is in the orthorhombic crystal system
# The framework has been calculated to contain at least 10.0% void space
# The void calculation uses a probe of radius 1.32A, grid spacing 0.4
#
###############################################################################

data_OTIPAK
_chemical_formula_moiety         '(C64 H48 Cd6 N8 O16)n'
_symmetry_cell_setting           triclinic
_symmetry_space_group_name_H-M   'P 1'
_symmetry_Int_Tables_number      1
_space_group_name_Hall           'P 1'
loop_
_symmetry_equiv_pos_site_id
_symmetry_equiv_pos_as_xyz
1 x,y,z
_cell_length_a                   13.209(3)
_cell_length_b                   13.926(3)
_cell_length_c                   12.243(3)
_cell_angle_alpha                90
_cell_angle_beta                 90
_cell_angle_gamma                90
_cell_volume                     2252.08
loop_
_atom_site_label
_atom_site_type_symbol
_atom_site_fract_x
_atom_site_fract_y
_atom_site_fract_z
C1 C 0.4006(3) 0.0734(2) 0.1573(3)
C2 C 0.4769(3) 0.1247(2) 0.0900(3)
H1 H 0.5163 0.0899 0.0410
C3 C 0.4903(3) 0.2178(2) 0.0978(3)
H2 H 0.4520 0.2495 0.1503
C4 C 0.5592(3) 0.2770(2) 0.0326(3)
H5 H 0.6235 0.4988 0.0018
C8 C 0.5623(3) 0.3755(2) 0.0511(3)
H6 H 0.5234 0.4023 0.1066
Cd1 Cd 0.2500 0.0000 0.27918(2)
O1 O 0.3546(2) 0.11981(17) 0.2300(2)
O4 O 0.1179(3) 0.01245(16) 0.1391(3)
N4 N 0.1800(2) 0.10082(17) 0.4066(2)
H7 H 0.0163 0.4101 0.5410
C12 C 0.0592(3) 0.2230(2) 0.5326(3)
C13 C 0.1237(3) 0.2586(2) 0.4529(3)
H9 H 0.1274 0.3243 0.4399
C14 C 0.1821(3) 0.1959(2) 0.3932(3)
H10 H 0.2255 0.2212 0.3407
C15 C 0.1225(3) 0.0668(2) 0.4877(3)
H11 H 0.1235 0.0012 0.5018
C16 C 0.0623(3) 0.1245(2) 0.5511(3)
H12 H 0.0234 0.0977 0.6066
C5 C 0.6237(3) 0.2414(2) 0.9529(3)
H3 H 0.6274 0.1757 0.9399
C6 C 0.6821(3) 0.3041(2) 0.8932(3)
H4 H 0.7255 0.2788 0.8407
C7 C 0.6225(3) 0.4332(2) 0.9877(3)
N1 N 0.6800(2) 0.39918(17) 0.9066(2)
Cd3 Cd 0.7500 0.5000 0.77918(2)
Cd1_2 Cd 0.2500 1.0000 0.27918(2)
O2 O 0.3821(3) 0.98755(16) 0.1391(3)
C9 C 0.0994(3) 0.9266(2) 0.1573(3)
C10 C 0.0231(3) 0.8753(2) 0.0900(3)
C11 C 0.0097(3) 0.7822(2) 0.0978(3)
H8 H 0.0480 0.7505 0.1503
O3 O 0.1454(2) 0.88019(17) 0.2300(2)
N3 N 0.3200(2) 0.89918(17) 0.4066(2)
C13_2 C 0.8763(3) 0.7586(2) 0.9529(3)
H9_2 H 0.8726 0.8243 0.9399
C14_2 C 0.8179(3) 0.6959(2) 0.8932(3)
H10_2 H 0.7745 0.7212 0.8407
C15_2 C 0.8775(3) 0.5668(2) 0.9877(3)
N2 N 0.8200(2) 0.60082(17) 0.9066(2)
C1_2 C 0.5994(3) 0.5734(2) 0.6573(3)
C2_2 C 0.5231(3) 0.6247(2) 0.5900(3)
H1_2 H 0.4837 0.5899 0.5410
C3_2 C 0.5097(3) 0.7178(2) 0.5978(3)
H2_2 H 0.5480 0.7495 0.6503
C4_2 C 0.4408(3) 0.7770(2) 0.5326(3)
C5_2 C 0.3763(3) 0.7414(2) 0.4529(3)
H3_2 H 0.3726 0.6757 0.4399
C6_2 C 0.3179(3) 0.8041(2) 0.3932(3)
H4_2 H 0.2745 0.7788 0.3407
C7_2 C 0.3775(3) 0.9332(2) 0.4877(3)
H5_2 H 0.3765 0.9988 0.5018
C8_2 C 0.4377(3) 0.8755(2) 0.5511(3)
H6_2 H 0.4766 0.9023 0.6066
O1_2 O 0.6454(2) 0.61981(17) 0.7300(2)
O2_2 O 0.6179(3) 0.48755(16) 0.6391(3)
C9_2 C 0.9006(3) 0.4266(2) 0.6573(3)
C10_2 C 0.9769(3) 0.3753(2) 0.5900(3)
C11_2 C 0.9903(3) 0.2822(2) 0.5978(3)
H8_2 H 0.9520 0.2505 0.6503
O3_2 O 0.8546(2) 0.38019(17) 0.7300(2)
O4_2 O 0.8821(3) 0.51245(16) 0.6391(3)
H7_2 H 0.9837 0.9101 0.0410
C12_2 C 0.9408(3) 0.7230(2) 0.0326(3)
H11_2 H 0.8765 0.5012 0.0018
C16_2 C 0.9377(3) 0.6245(2) 0.0511(3)
H12_2 H 0.9766 0.5977 0.1066
C1_3 C 0.4006(3) 0.4266(2) 0.3427(3)
C2_3 C 0.4769(3) 0.3753(2) 0.4100(3)
H1_3 H 0.5163 0.4101 0.4590
C3_3 C 0.4903(3) 0.2822(2) 0.4022(3)
H2_3 H 0.4520 0.2505 0.3497
C4_3 C 0.5592(3) 0.2230(2) 0.4674(3)
C5_3 C 0.6237(3) 0.2586(2) 0.5471(3)
H3_3 H 0.6274 0.3243 0.5601
C6_3 C 0.6821(3) 0.1959(2) 0.6068(3)
H4_3 H 0.7255 0.2212 0.6593
C7_3 C 0.6225(3) 0.0668(2) 0.5123(3)
H5_3 H 0.6235 0.0012 0.4982
C8_3 C 0.5623(3) 0.1245(2) 0.4489(3)
H6_3 H 0.5234 0.0977 0.3934
Cd1_3 Cd 0.2500 0.5000 0.22082(2)
N1_2 N 0.6800(2) 0.10082(17) 0.5934(2)
O1_3 O 0.3546(2) 0.38019(17) 0.2700(2)
O2_3 O 0.3821(3) 0.51245(16) 0.3609(3)
C9_3 C 0.0994(3) 0.5734(2) 0.3427(3)
C10_3 C 0.0231(3) 0.6247(2) 0.4100(3)
C11_3 C 0.0097(3) 0.7178(2) 0.4022(3)
H8_3 H 0.0480 0.7495 0.3497
O3_3 O 0.1454(2) 0.61981(17) 0.2700(2)
O4_3 O 0.1179(3) 0.48755(16) 0.3609(3)
Cd3_2 Cd 0.7500 -0.0000 0.72082(2)
N3_2 N 0.3200(2) 0.60082(17) 0.0934(2)
N4_2 N 0.1800(2) 0.39918(17) 0.0934(2)
C13_3 C 0.1237(3) 0.2414(2) 0.0471(3)
H9_3 H 0.1274 0.1757 0.0601
C14_3 C 0.1821(3) 0.3041(2) 0.1068(3)
H10_3 H 0.2255 0.2788 0.1593
C15_3 C 0.1225(3) 0.4332(2) 0.0123(3)
O2_4 O 0.6179(3) 0.01245(16) 0.8609(3)
C9_4 C 0.9006(3) 0.0734(2) 0.8427(3)
C10_4 C 0.9769(3) 0.1247(2) 0.9100(3)
C11_4 C 0.9903(3) 0.2178(2) 0.9022(3)
H8_4 H 0.9520 0.2495 0.8497
O3_4 O 0.8546(2) 0.11981(17) 0.7700(2)
C5_4 C 0.3763(3) 0.7586(2) 0.0471(3)
H3_4 H 0.3726 0.8243 0.0601
C6_4 C 0.3179(3) 0.6959(2) 0.1068(3)
H4_4 H 0.2745 0.7212 0.1593
C7_4 C 0.3775(3) 0.5668(2) 0.0123(3)
Cd3_3 Cd 0.7500 1.0000 0.72082(2)
H7_3 H 0.9837 0.5899 0.4590
C12_3 C 0.9408(3) 0.7770(2) 0.4674(3)
C13_4 C 0.8763(3) 0.7414(2) 0.5471(3)
H9_4 H 0.8726 0.6757 0.5601
C14_4 C 0.8179(3) 0.8041(2) 0.6068(3)
H10_4 H 0.7745 0.7788 0.6593
C15_4 C 0.8775(3) 0.9332(2) 0.5123(3)
H11_3 H 0.8765 0.9988 0.4982
C16_3 C 0.9377(3) 0.8755(2) 0.4489(3)
H12_3 H 0.9766 0.9023 0.3934
N2_2 N 0.8200(2) 0.89918(17) 0.5934(2)
C1_4 C 0.5994(3) 0.9266(2) 0.8427(3)
C2_4 C 0.5231(3) 0.8753(2) 0.9100(3)
H1_4 H 0.4837 0.9101 0.9590
C3_4 C 0.5097(3) 0.7822(2) 0.9022(3)
H2_4 H 0.5480 0.7505 0.8497
C4_4 C 0.4408(3) 0.7230(2) 0.9674(3)
H5_4 H 0.3765 0.5012 0.9982
C8_4 C 0.4377(3) 0.6245(2) 0.9489(3)
H6_4 H 0.4766 0.5977 0.8934
O1_4 O 0.6454(2) 0.88019(17) 0.7700(2)
O4_4 O 0.8821(3) 0.98755(16) 0.8609(3)
H7_4 H 0.0163 0.0899 0.9590
C12_4 C 0.0592(3) 0.2770(2) 0.9674(3)
H11_4 H 0.1235 0.4988 0.9982
C16_4 C 0.0623(3) 0.3755(2) 0.9489(3)
H12_4 H 0.0234 0.4023 0.8934
loop_
_geom_bond_atom_site_label_1
_geom_bond_atom_site_label_2
_geom_bond_site_symmetry_1
_geom_bond_site_symmetry_2
C1 C2 1_555 1_555
C2 H1 1_555 1_555
C3 C2 1_555 1_555
H2 C3 1_555 1_555
C4 C3 1_555 1_555
C8 C4 1_555 1_555
H6 C8 1_555 1_555
Cd1 O1 1_555 1_555
O1 C1 1_555 1_555
O4 Cd1 1_555 1_555
N4 Cd1 1_555 1_555
C13 C12 1_555 1_555
H9 C13 1_555 1_555
C14 C13 1_555 1_555
H10 C14 1_555 1_555
C15 H11 1_555 1_555
C16 C12 1_555 1_555
H12 C16 1_555 1_555
N4 C14 1_555 1_555
C15 C16 1_555 1_555
C15 N4 1_555 1_555
H3 C5 1_555 1_555
C6 C5 1_555 1_555
H4 C6 1_555 1_555
N1 C6 1_555 1_555
Cd3 N1 1_555 1_555
C7 N1 1_555 1_555
C9 C10 1_555 1_555
C11 C10 1_555 1_555
H8 C11 1_555 1_555
O3 Cd1_2 1_555 1_555
N3 Cd1_2 1_555 1_555
Cd1_2 O2 1_555 1_555
C9 O3 1_555 1_555
H9_2 C13_2 1_555 1_555
C14_2 C13_2 1_555 1_555
H10_2 C14_2 1_555 1_555
N2 C14_2 1_555 1_555
Cd3 N2 1_555 1_555
C15_2 N2 1_555 1_555
C1_2 C2_2 1_555 1_555
C2_2 H1_2 1_555 1_555
C3_2 C2_2 1_555 1_555
H2_2 C3_2 1_555 1_555
C4_2 C3_2 1_555 1_555
C5_2 C4_2 1_555 1_555
H3_2 C5_2 1_555 1_555
C6_2 C5_2 1_555 1_555
H4_2 C6_2 1_555 1_555
C7_2 H5_2 1_555 1_555
C8_2 C4_2 1_555 1_555
H6_2 C8_2 1_555 1_555
Cd3 O1_2 1_555 1_555
N3 C6_2 1_555 1_555
O1_2 C1_2 1_555 1_555
O2_2 C1_2 1_555 1_555
C9_2 C10_2 1_555 1_555
C11_2 C10_2 1_555 1_555
H8_2 C11_2 1_555 1_555
O3_2 Cd3 1_555 1_555
O4_2 Cd3 1_555 1_555
C7_2 C8_2 1_555 1_555
C7_2 N3 1_555 1_555
Cd3 O2_2 1_555 1_555
C9_2 O3_2 1_555 1_555
C9_2 O4_2 1_555 1_555
C16_2 C12_2 1_555 1_555
H12_2 C16_2 1_555 1_555
C1_3 C2_3 1_555 1_555
C2_3 H1_3 1_555 1_555
C3_3 C2_3 1_555 1_555
H2_3 C3_3 1_555 1_555
C4_3 C3_3 1_555 1_555
C5_3 C4_3 1_555 1_555
H3_3 C5_3 1_555 1_555
C6_3 C5_3 1_555 1_555
H4_3 C6_3 1_555 1_555
C7_3 H5_3 1_555 1_555
C8_3 C4_3 1_555 1_555
H6_3 C8_3 1_555 1_555
Cd1_3 O1_3 1_555 1_555
N1_2 C6_3 1_555 1_555
O1_3 C1_3 1_555 1_555
O2_3 C1_3 1_555 1_555
C9_3 C10_3 1_555 1_555
C11_3 C10_3 1_555 1_555
H8_3 C11_3 1_555 1_555
O3_3 Cd1_3 1_555 1_555
O4_3 Cd1_3 1_555 1_555
Cd3_2 N1_2 1_555 1_555
N3_2 Cd1_3 1_555 1_555
N4_2 Cd1_3 1_555 1_555
C7_3 C8_3 1_555 1_555
C7_3 N1_2 1_555 1_555
Cd1_3 O2_3 1_555 1_555
C9_3 O3_3 1_555 1_555
C9_3 O4_3 1_555 1_555
H9_3 C13_3 1_555 1_555
C14_3 C13_3 1_555 1_555
H10_3 C14_3 1_555 1_555
N4_2 C14_3 1_555 1_555
C15_3 N4_2 1_555 1_555
C9_4 C10_4 1_555 1_555
C11_4 C10_4 1_555 1_555
H8_4 C11_4 1_555 1_555
O3_4 Cd3_2 1_555 1_555
Cd3_2 O2_4 1_555 1_555
C9_4 O3_4 1_555 1_555
H3_4 C5_4 1_555 1_555
C6_4 C5_4 1_555 1_555
H4_4 C6_4 1_555 1_555
N3_2 C6_4 1_555 1_555
C7_4 N3_2 1_555 1_555
C13_4 C12_3 1_555 1_555
H9_4 C13_4 1_555 1_555
C14_4 C13_4 1_555 1_555
H10_4 C14_4 1_555 1_555
C15_4 H11_3 1_555 1_555
C16_3 C12_3 1_555 1_555
H12_3 C16_3 1_555 1_555
N2_2 C14_4 1_555 1_555
Cd3_3 N2_2 1_555 1_555
C15_4 C16_3 1_555 1_555
C15_4 N2_2 1_555 1_555
C1_4 C2_4 1_555 1_555
C2_4 H1_4 1_555 1_555
C3_4 C2_4 1_555 1_555
H2_4 C3_4 1_555 1_555
C4_4 C3_4 1_555 1_555
C8_4 C4_4 1_555 1_555
H6_4 C8_4 1_555 1_555
Cd3_3 O1_4 1_555 1_555
O1_4 C1_4 1_555 1_555
O4_4 Cd3_3 1_555 1_555
C16_4 C12_4 1_555 1_555
H12_4 C16_4 1_555 1_555

#END
