
###############################################################################
#
# This file contains modified crystal structure data generated from the
# MOF subset of the Cambridge Structural Database (CSD) v543 
# hosted by the Cambridge Crystallographic Data Centre (CCDC).
#
# This work is licensed under the Creative Commons
# Attribution-NonCommercial-ShareAlike 4.0 International License.
# To view a copy of this license, visit
# http://creativecommons.org/licenses/by-nc-sa/4.0/
# or send a letter to
# Creative Commons, PO Box 1866, Mountain View, CA 94042, USA.
#
# CIF created using the CSD Python API on 29 September 2022
# The structure has been converted into the P1 space group
# The structure has a 3D framework
# The original CSD entry OTIPEO is in the orthorhombic crystal system
# The framework has been calculated to contain at least 10.0% void space
# The void calculation uses a probe of radius 1.32A, grid spacing 0.4
#
###############################################################################

data_OTIPEO
_chemical_formula_moiety         '(C96 H80 Cd8 N16 O40)n'
_symmetry_cell_setting           triclinic
_symmetry_space_group_name_H-M   'P 1'
_symmetry_Int_Tables_number      1
_space_group_name_Hall           'P 1'
loop_
_symmetry_equiv_pos_site_id
_symmetry_equiv_pos_as_xyz
1 x,y,z
_cell_length_a                   12.3156(6)
_cell_length_b                   15.5113(10)
_cell_length_c                   18.9521(12)
_cell_angle_alpha                90
_cell_angle_beta                 90
_cell_angle_gamma                90
_cell_volume                     3620.44
loop_
_atom_site_label
_atom_site_type_symbol
_atom_site_fract_x
_atom_site_fract_y
_atom_site_fract_z
H2 H 0.3846 0.6295 0.0004
C3 C 0.44539(16) 0.73917(12) 0.03972(12)
C4 C 0.52996(19) 0.79594(14) 0.02858(14)
H3 H 0.5409 0.8420 0.0591
C12 C 0.36229(16) 0.75298(14) 0.09572(12)
O3 O 0.34507(13) 0.82863(10) 0.11646(9)
O4 O 0.30927(12) 0.68915(9) 0.11708(8)
Cd2 Cd 0.188204(11) 0.783989(8) 0.182014(8)
C1 C 0.5071(2) 0.66496(15) 0.93787(15)
H1 H 0.4981 0.6190 0.9069
C2 C 0.4376(2) 0.67141(15) 0.99363(14)
C5 C 0.59746(19) 0.78377(14) 0.97222(14)
H4 H 0.6546 0.8223 0.9663
C6 C 0.56106(18) 0.57884(12) 0.77416(12)
C7 C 0.49908(17) 0.49774(12) 0.75491(12)
C8 C 0.52561(18) 0.42024(13) 0.78646(13)
H5 H 0.5808 0.4175 0.8199
C9 C 0.46888(18) 0.34655(13) 0.76764(13)
H6 H 0.4873 0.2949 0.7894
C10 C 0.36345(18) 0.42157(13) 0.69067(11)
H7 H 0.3072 0.4228 0.6579
C11 C 0.41615(18) 0.49830(12) 0.70663(12)
H8 H 0.3954 0.5494 0.6848
Cd1 Cd 0.688204(11) 0.716011(8) 0.817986(8)
H9 H 0.783(2) 0.6720(15) 0.6928(12)
H10 H 0.8502(19) 0.6906(14) 0.7326(14)
N1 N 0.58699(15) 0.72046(10) 0.92525(10)
N2 N 0.38980(14) 0.34592(9) 0.72019(9)
O1 O 0.64825(13) 0.57056(9) 0.80599(9)
O2 O 0.52076(13) 0.64998(9) 0.75884(9)
O5 O 0.80025(14) 0.70348(11) 0.72083(10)
Cd3 Cd 0.311796(11) 0.216011(8) 0.682014(8)
N3 N 0.61020(14) 0.84592(9) 0.77981(9)
O6 O 0.84507(13) 0.67137(10) 0.88354(9)
O7 O 0.80927(12) 0.81085(9) 0.88292(8)
H1_2 H 0.0019 0.3810 0.4069
C2_2 C 0.0624(2) 0.32859(15) 0.49363(14)
H2_2 H 0.1154 0.3705 0.5004
C3_2 C 0.05461(16) 0.26083(12) 0.53972(12)
C7_2 C 0.00092(17) 0.50226(12) 0.25491(12)
C9_2 C 0.03112(18) 0.65345(13) 0.26764(13)
H6_2 H 0.0127 0.7051 0.2894
C10_2 C 0.13655(18) 0.57843(13) 0.19067(11)
H7_2 H 0.1928 0.5772 0.1579
C11_2 C 0.08385(18) 0.50170(12) 0.20663(12)
H8_2 H 0.1046 0.4506 0.1848
C12_2 C 0.13771(16) 0.24702(14) 0.59572(12)
N2_2 N 0.11020(14) 0.65408(9) 0.22019(9)
O3_2 O 0.15493(13) 0.17137(10) 0.61646(9)
O4_2 O 0.19073(12) 0.31085(9) 0.61708(8)
C1_2 C 0.9929(2) 0.33504(15) 0.43787(15)
C4_2 C 0.97004(19) 0.20406(14) 0.52858(14)
H3_2 H 0.9591 0.1580 0.5591
C5_2 C 0.90254(19) 0.21623(14) 0.47222(14)
H4_2 H 0.8454 0.1777 0.4663
C6_2 C 0.93894(18) 0.42116(12) 0.27416(12)
C8_2 C 0.97439(18) 0.57976(13) 0.28646(13)
H5_2 H 0.9192 0.5825 0.3199
Cd1_2 Cd 0.811796(11) 0.283989(8) 0.317986(8)
H9_2 H 0.717(2) 0.3280(15) 0.1928(12)
H10_2 H 0.6498(19) 0.3094(14) 0.2326(14)
N1_2 N 0.91301(15) 0.27954(10) 0.42525(10)
O1_2 O 0.85175(13) 0.42944(9) 0.30599(9)
O2_2 O 0.97924(13) 0.35002(9) 0.25884(9)
O5_2 O 0.69975(14) 0.29652(11) 0.22083(10)
N3_2 N 0.88980(14) 0.15408(9) 0.27981(9)
O6_2 O 0.65493(13) 0.32863(10) 0.38354(9)
O7_2 O 0.69073(12) 0.18915(9) 0.38292(8)
C1_3 C 0.0071(2) 0.83504(15) 0.06213(15)
C5_3 C 0.09746(19) 0.71623(14) 0.02778(14)
H4_3 H 0.1546 0.6777 0.0337
C6_3 C 0.06106(18) 0.92116(12) 0.22584(12)
H9_3 H 0.283(2) 0.8280(15) 0.3072(12)
H10_3 H 0.3502(19) 0.8094(14) 0.2674(14)
N1_3 N 0.08699(15) 0.77954(10) 0.07475(10)
O1_3 O 0.14825(13) 0.92944(9) 0.19401(9)
O2_3 O 0.02076(13) 0.85002(9) 0.24116(9)
O5_3 O 0.30025(14) 0.79652(11) 0.27917(10)
C7_3 C 0.99908(17) 0.00226(12) 0.24509(12)
C9_3 C 0.96888(18) 0.15345(13) 0.23236(13)
H6_3 H 0.9873 0.2051 0.2106
C10_3 C 0.86345(18) 0.07843(13) 0.30933(11)
H7_3 H 0.8072 0.0772 0.3421
C11_3 C 0.91615(18) 0.00170(12) 0.29337(12)
H2_3 H 0.8846 0.8705 0.9996
C3_3 C 0.94539(16) 0.76083(12) 0.96028(12)
C12_3 C 0.86229(16) 0.74702(14) 0.90428(12)
C1_4 C 0.4929(2) 0.16496(15) 0.56213(15)
H1_3 H 0.5019 0.1190 0.5931
C2_3 C 0.5624(2) 0.17141(15) 0.50637(14)
H2_4 H 0.6154 0.1295 0.4996
C3_4 C 0.55461(16) 0.23917(12) 0.46028(12)
C4_3 C 0.47004(19) 0.29594(14) 0.47142(14)
H3_3 H 0.4591 0.3420 0.4409
C5_4 C 0.40254(19) 0.28377(14) 0.52778(14)
H4_4 H 0.3454 0.3223 0.5337
C6_4 C 0.43894(18) 0.07884(12) 0.72584(12)
H8_3 H 0.6046 0.0494 0.8152
C12_4 C 0.63771(16) 0.25298(14) 0.40428(12)
H9_4 H 0.217(2) 0.1720(15) 0.8072(12)
H10_4 H 0.1498(19) 0.1906(14) 0.7674(14)
N1_4 N 0.41301(15) 0.22046(10) 0.57475(10)
O1_4 O 0.35175(13) 0.07056(9) 0.69401(9)
O2_4 O 0.47924(13) 0.14998(9) 0.74116(9)
O5_4 O 0.19975(14) 0.20348(11) 0.77917(10)
C7_4 C 0.50092(17) 0.99774(12) 0.74509(12)
C8_3 C 0.47439(18) 0.92024(13) 0.71354(13)
H5_3 H 0.4192 0.9175 0.6801
C9_4 C 0.53112(18) 0.84655(13) 0.73236(13)
H6_4 H 0.5127 0.7949 0.7106
C10_4 C 0.63655(18) 0.92157(13) 0.80933(11)
H7_4 H 0.6928 0.9228 0.8421
C11_4 C 0.58385(18) 0.99830(12) 0.79337(12)
C8_4 C 0.02561(18) 0.07976(13) 0.21354(13)
H5_4 H 0.0808 0.0825 0.1801
C4_4 C 0.02996(19) 0.70406(14) 0.97142(14)
H3_4 H 0.0409 0.6580 0.9409
H1_4 H 0.9981 0.8810 0.0931
C2_4 C 0.9376(2) 0.82859(15) 0.00637(14)
H8_4 H 0.8954 0.9506 0.3152
C1_5 C 0.4929(2) 0.33504(15) 0.06213(15)
H1_5 H 0.5019 0.3810 0.0931
C2_5 C 0.5624(2) 0.32859(15) 0.00637(14)
C5_5 C 0.40254(19) 0.21623(14) 0.02778(14)
H4_5 H 0.3454 0.1777 0.0337
C6_5 C 0.43894(18) 0.42116(12) 0.22584(12)
C7_5 C 0.50092(17) 0.50226(12) 0.24509(12)
C8_5 C 0.47439(18) 0.57976(13) 0.21354(13)
H5_5 H 0.4192 0.5825 0.1801
C9_5 C 0.53112(18) 0.65345(13) 0.23236(13)
H6_5 H 0.5127 0.7051 0.2106
C10_5 C 0.63655(18) 0.57843(13) 0.30933(11)
H7_5 H 0.6928 0.5772 0.3421
C11_5 C 0.58385(18) 0.50170(12) 0.29337(12)
H8_5 H 0.6046 0.4506 0.3152
Cd1_3 Cd 0.311796(11) 0.283989(8) 0.182014(8)
H9_5 H 0.217(2) 0.3280(15) 0.3072(12)
H10_5 H 0.1498(19) 0.3094(14) 0.2674(14)
N1_5 N 0.41301(15) 0.27954(10) 0.07475(10)
N2_3 N 0.61020(14) 0.65408(9) 0.27981(9)
O1_5 O 0.35175(13) 0.42944(9) 0.19401(9)
O2_5 O 0.47924(13) 0.35002(9) 0.24116(9)
O5_5 O 0.19975(14) 0.29652(11) 0.27917(10)
Cd3_2 Cd 0.688204(11) 0.783989(8) 0.317986(8)
N3_3 N 0.38980(14) 0.15408(9) 0.22019(9)
O6_3 O 0.15493(13) 0.32863(10) 0.11646(9)
O7_3 O 0.19073(12) 0.18915(9) 0.11708(8)
H2_5 H 0.6154 0.3705 0.9996
C3_5 C 0.55461(16) 0.26083(12) 0.96028(12)
C4_5 C 0.47004(19) 0.20406(14) 0.97142(14)
H3_5 H 0.4591 0.1580 0.9409
C12_5 C 0.63771(16) 0.24702(14) 0.90428(12)
O3_3 O 0.65493(13) 0.17137(10) 0.88354(9)
O4_3 O 0.69073(12) 0.31085(9) 0.88292(8)
Cd2_2 Cd 0.811796(11) 0.216011(8) 0.817986(8)
C1_6 C 0.0071(2) 0.66496(15) 0.56213(15)
C4_6 C 0.02996(19) 0.79594(14) 0.47142(14)
H3_6 H 0.0409 0.8420 0.4409
C5_6 C 0.09746(19) 0.78377(14) 0.52778(14)
H4_6 H 0.1546 0.8223 0.5337
C6_6 C 0.06106(18) 0.57884(12) 0.72584(12)
C8_6 C 0.02561(18) 0.42024(13) 0.71354(13)
H5_6 H 0.0808 0.4175 0.6801
Cd1_4 Cd 0.188204(11) 0.716011(8) 0.682014(8)
H9_6 H 0.283(2) 0.6720(15) 0.8072(12)
H10_6 H 0.3502(19) 0.6906(14) 0.7674(14)
N1_6 N 0.08699(15) 0.72046(10) 0.57475(10)
O1_6 O 0.14825(13) 0.57056(9) 0.69401(9)
O2_6 O 0.02076(13) 0.64998(9) 0.74116(9)
O5_6 O 0.30025(14) 0.70348(11) 0.77917(10)
N3_4 N 0.11020(14) 0.84592(9) 0.72019(9)
O6_4 O 0.34507(13) 0.67137(10) 0.61646(9)
O7_4 O 0.30927(12) 0.81085(9) 0.61708(8)
H1_6 H 0.9981 0.6190 0.5931
C2_6 C 0.9376(2) 0.67141(15) 0.50637(14)
H2_6 H 0.8846 0.6295 0.4996
C3_6 C 0.94539(16) 0.73917(12) 0.46028(12)
C7_6 C 0.99908(17) 0.49774(12) 0.74509(12)
C9_6 C 0.96888(18) 0.34655(13) 0.73236(13)
H6_6 H 0.9873 0.2949 0.7106
C10_6 C 0.86345(18) 0.42157(13) 0.80933(11)
H7_6 H 0.8072 0.4228 0.8421
C11_6 C 0.91615(18) 0.49830(12) 0.79337(12)
H8_6 H 0.8954 0.5494 0.8152
C12_6 C 0.86229(16) 0.75298(14) 0.40428(12)
N2_4 N 0.88980(14) 0.34592(9) 0.77981(9)
O3_4 O 0.84507(13) 0.82863(10) 0.38354(9)
O4_4 O 0.80927(12) 0.68915(9) 0.38292(8)
H2_7 H 0.1154 0.1295 0.0004
C3_7 C 0.05461(16) 0.23917(12) 0.03972(12)
C12_7 C 0.13771(16) 0.25298(14) 0.09572(12)
C7_7 C 0.00092(17) 0.99774(12) 0.75491(12)
C9_7 C 0.03112(18) 0.84655(13) 0.76764(13)
H6_7 H 0.0127 0.7949 0.7894
C10_7 C 0.13655(18) 0.92157(13) 0.69067(11)
H7_7 H 0.1928 0.9228 0.6579
C11_7 C 0.08385(18) 0.99830(12) 0.70663(12)
C1_7 C 0.9929(2) 0.16496(15) 0.93787(15)
C5_7 C 0.90254(19) 0.28377(14) 0.97222(14)
H4_7 H 0.8454 0.3223 0.9663
C6_7 C 0.93894(18) 0.07884(12) 0.77416(12)
H9_7 H 0.717(2) 0.1720(15) 0.6928(12)
H10_7 H 0.6498(19) 0.1906(14) 0.7326(14)
N1_7 N 0.91301(15) 0.22046(10) 0.92525(10)
O1_7 O 0.85175(13) 0.07056(9) 0.80599(9)
O2_7 O 0.97924(13) 0.14998(9) 0.75884(9)
O5_7 O 0.69975(14) 0.20348(11) 0.72083(10)
C7_8 C 0.49908(17) 0.00226(12) 0.25491(12)
C8_7 C 0.52561(18) 0.07976(13) 0.28646(13)
H5_7 H 0.5808 0.0825 0.3199
C9_8 C 0.46888(18) 0.15345(13) 0.26764(13)
H6_8 H 0.4873 0.2051 0.2894
C10_8 C 0.36345(18) 0.07843(13) 0.19067(11)
H7_8 H 0.3072 0.0772 0.1579
C11_8 C 0.41615(18) 0.00170(12) 0.20663(12)
C1_8 C 0.5071(2) 0.83504(15) 0.43787(15)
H1_7 H 0.4981 0.8810 0.4069
C2_7 C 0.4376(2) 0.82859(15) 0.49363(14)
H2_8 H 0.3846 0.8705 0.5004
C3_8 C 0.44539(16) 0.76083(12) 0.53972(12)
C4_7 C 0.52996(19) 0.70406(14) 0.52858(14)
H3_7 H 0.5409 0.6580 0.5591
C5_8 C 0.59746(19) 0.71623(14) 0.47222(14)
H4_8 H 0.6546 0.6777 0.4663
C6_8 C 0.56106(18) 0.92116(12) 0.27416(12)
H8_7 H 0.3954 0.9506 0.1848
C12_8 C 0.36229(16) 0.74702(14) 0.59572(12)
H9_8 H 0.783(2) 0.8280(15) 0.1928(12)
H10_8 H 0.8502(19) 0.8094(14) 0.2326(14)
N1_8 N 0.58699(15) 0.77954(10) 0.42525(10)
O1_8 O 0.64825(13) 0.92944(9) 0.30599(9)
O2_8 O 0.52076(13) 0.85002(9) 0.25884(9)
O5_8 O 0.80025(14) 0.79652(11) 0.22083(10)
H1_8 H 0.0019 0.1190 0.9069
C2_8 C 0.0624(2) 0.17141(15) 0.99363(14)
H8_8 H 0.1046 0.0494 0.6848
C4_8 C 0.97004(19) 0.29594(14) 0.02858(14)
H3_8 H 0.9591 0.3420 0.0591
C8_8 C 0.97439(18) 0.92024(13) 0.78646(13)
H5_8 H 0.9192 0.9175 0.8199
loop_
_geom_bond_atom_site_label_1
_geom_bond_atom_site_label_2
_geom_bond_site_symmetry_1
_geom_bond_site_symmetry_2
C4 C3 1_555 1_555
H3 C4 1_555 1_555
C12 C3 1_555 1_555
O3 C12 1_555 1_555
O4 C12 1_555 1_555
Cd2 O3 1_555 1_555
O4 Cd2 1_555 1_555
C1 H1 1_555 1_555
C2 C1 1_555 1_555
H4 C5 1_555 1_555
C6 C7 1_555 1_555
C7 C8 1_555 1_555
C8 H5 1_555 1_555
C9 C8 1_555 1_555
H6 C9 1_555 1_555
C10 H7 1_555 1_555
C11 C7 1_555 1_555
H8 C11 1_555 1_555
Cd1 N1 1_555 1_555
H9 O5 1_555 1_555
H10 O5 1_555 1_555
N1 C1 1_555 1_555
N2 C9 1_555 1_555
O1 C6 1_555 1_555
O2 C6 1_555 1_555
O5 Cd1 1_555 1_555
Cd3 N2 1_555 1_555
N3 Cd1 1_555 1_555
O6 Cd1 1_555 1_555
O7 Cd1 1_555 1_555
C5 N1 1_555 1_555
C10 C11 1_555 1_555
C10 N2 1_555 1_555
Cd1 O1 1_555 1_555
Cd1 O2 1_555 1_555
H2_2 C2_2 1_555 1_555
C3_2 C2_2 1_555 1_555
H6_2 C9_2 1_555 1_555
C10_2 H7_2 1_555 1_555
C11_2 C7_2 1_555 1_555
H8_2 C11_2 1_555 1_555
C12_2 C3_2 1_555 1_555
N2_2 C9_2 1_555 1_555
O3_2 C12_2 1_555 1_555
O4_2 C12_2 1_555 1_555
Cd3 O3_2 1_555 1_555
Cd2 N2_2 1_555 1_555
C10_2 C11_2 1_555 1_555
C10_2 N2_2 1_555 1_555
O4_2 Cd3 1_555 1_555
H3_2 C4_2 1_555 1_555
C5_2 C4_2 1_555 1_555
H4_2 C5_2 1_555 1_555
C8_2 H5_2 1_555 1_555
Cd1_2 N1_2 1_555 1_555
H9_2 O5_2 1_555 1_555
H10_2 O5_2 1_555 1_555
N1_2 C1_2 1_555 1_555
O1_2 C6_2 1_555 1_555
O2_2 C6_2 1_555 1_555
O5_2 Cd1_2 1_555 1_555
N3_2 Cd1_2 1_555 1_555
O6_2 Cd1_2 1_555 1_555
O7_2 Cd1_2 1_555 1_555
C5_2 N1_2 1_555 1_555
Cd1_2 O1_2 1_555 1_555
Cd1_2 O2_2 1_555 1_555
H4_3 C5_3 1_555 1_555
Cd2 N1_3 1_555 1_555
H9_3 O5_3 1_555 1_555
H10_3 O5_3 1_555 1_555
N1_3 C1_3 1_555 1_555
O1_3 C6_3 1_555 1_555
O2_3 C6_3 1_555 1_555
O5_3 Cd2 1_555 1_555
C5_3 N1_3 1_555 1_555
Cd2 O1_3 1_555 1_555
Cd2 O2_3 1_555 1_555
H6_3 C9_3 1_555 1_555
C10_3 H7_3 1_555 1_555
C11_3 C7_3 1_555 1_555
N3_2 C9_3 1_555 1_555
C10_3 C11_3 1_555 1_555
C10_3 N3_2 1_555 1_555
C12_3 C3_3 1_555 1_555
O6 C12_3 1_555 1_555
O7 C12_3 1_555 1_555
C1_4 H1_3 1_555 1_555
C2_3 C1_4 1_555 1_555
H2_4 C2_3 1_555 1_555
C3_4 C2_3 1_555 1_555
C4_3 C3_4 1_555 1_555
H3_3 C4_3 1_555 1_555
C5_4 C4_3 1_555 1_555
H4_4 C5_4 1_555 1_555
C12_4 C3_4 1_555 1_555
Cd3 N1_4 1_555 1_555
H9_4 O5_4 1_555 1_555
H10_4 O5_4 1_555 1_555
N1_4 C1_4 1_555 1_555
O1_4 C6_4 1_555 1_555
O2_4 C6_4 1_555 1_555
O6_2 C12_4 1_555 1_555
O7_2 C12_4 1_555 1_555
O5_4 Cd3 1_555 1_555
C5_4 N1_4 1_555 1_555
Cd3 O1_4 1_555 1_555
Cd3 O2_4 1_555 1_555
C7_4 C8_3 1_555 1_555
C8_3 H5_3 1_555 1_555
C9_4 C8_3 1_555 1_555
H6_4 C9_4 1_555 1_555
C10_4 H7_4 1_555 1_555
C11_4 C7_4 1_555 1_555
N3 C9_4 1_555 1_555
C10_4 C11_4 1_555 1_555
C10_4 N3 1_555 1_555
C8_4 H5_4 1_555 1_555
H3_4 C4_4 1_555 1_555
C1_5 H1_5 1_555 1_555
C2_5 C1_5 1_555 1_555
H4_5 C5_5 1_555 1_555
C6_5 C7_5 1_555 1_555
C7_5 C8_5 1_555 1_555
C8_5 H5_5 1_555 1_555
C9_5 C8_5 1_555 1_555
H6_5 C9_5 1_555 1_555
C10_5 H7_5 1_555 1_555
C11_5 C7_5 1_555 1_555
H8_5 C11_5 1_555 1_555
Cd1_3 N1_5 1_555 1_555
H9_5 O5_5 1_555 1_555
H10_5 O5_5 1_555 1_555
N1_5 C1_5 1_555 1_555
N2_3 C9_5 1_555 1_555
O1_5 C6_5 1_555 1_555
O2_5 C6_5 1_555 1_555
O5_5 Cd1_3 1_555 1_555
Cd3_2 N2_3 1_555 1_555
N3_3 Cd1_3 1_555 1_555
O6_3 Cd1_3 1_555 1_555
O7_3 Cd1_3 1_555 1_555
C5_5 N1_5 1_555 1_555
C10_5 C11_5 1_555 1_555
C10_5 N2_3 1_555 1_555
Cd1_3 O1_5 1_555 1_555
Cd1_3 O2_5 1_555 1_555
C4_5 C3_5 1_555 1_555
H3_5 C4_5 1_555 1_555
C12_5 C3_5 1_555 1_555
O3_3 C12_5 1_555 1_555
O4_3 C12_5 1_555 1_555
Cd2_2 O3_3 1_555 1_555
O4_3 Cd2_2 1_555 1_555
H3_6 C4_6 1_555 1_555
C5_6 C4_6 1_555 1_555
H4_6 C5_6 1_555 1_555
C8_6 H5_6 1_555 1_555
Cd1_4 N1_6 1_555 1_555
H9_6 O5_6 1_555 1_555
H10_6 O5_6 1_555 1_555
N1_6 C1_6 1_555 1_555
O1_6 C6_6 1_555 1_555
O2_6 C6_6 1_555 1_555
O5_6 Cd1_4 1_555 1_555
N3_4 Cd1_4 1_555 1_555
O6_4 Cd1_4 1_555 1_555
O7_4 Cd1_4 1_555 1_555
C5_6 N1_6 1_555 1_555
Cd1_4 O1_6 1_555 1_555
Cd1_4 O2_6 1_555 1_555
H2_6 C2_6 1_555 1_555
C3_6 C2_6 1_555 1_555
H6_6 C9_6 1_555 1_555
C10_6 H7_6 1_555 1_555
C11_6 C7_6 1_555 1_555
H8_6 C11_6 1_555 1_555
C12_6 C3_6 1_555 1_555
N2_4 C9_6 1_555 1_555
O3_4 C12_6 1_555 1_555
O4_4 C12_6 1_555 1_555
Cd3_2 O3_4 1_555 1_555
Cd2_2 N2_4 1_555 1_555
C10_6 C11_6 1_555 1_555
C10_6 N2_4 1_555 1_555
O4_4 Cd3_2 1_555 1_555
C12_7 C3_7 1_555 1_555
O6_3 C12_7 1_555 1_555
O7_3 C12_7 1_555 1_555
H6_7 C9_7 1_555 1_555
C10_7 H7_7 1_555 1_555
C11_7 C7_7 1_555 1_555
N3_4 C9_7 1_555 1_555
C10_7 C11_7 1_555 1_555
C10_7 N3_4 1_555 1_555
H4_7 C5_7 1_555 1_555
Cd2_2 N1_7 1_555 1_555
H9_7 O5_7 1_555 1_555
H10_7 O5_7 1_555 1_555
N1_7 C1_7 1_555 1_555
O1_7 C6_7 1_555 1_555
O2_7 C6_7 1_555 1_555
O5_7 Cd2_2 1_555 1_555
C5_7 N1_7 1_555 1_555
Cd2_2 O1_7 1_555 1_555
Cd2_2 O2_7 1_555 1_555
C7_8 C8_7 1_555 1_555
C8_7 H5_7 1_555 1_555
C9_8 C8_7 1_555 1_555
H6_8 C9_8 1_555 1_555
C10_8 H7_8 1_555 1_555
C11_8 C7_8 1_555 1_555
N3_3 C9_8 1_555 1_555
C10_8 C11_8 1_555 1_555
C10_8 N3_3 1_555 1_555
C1_8 H1_7 1_555 1_555
C2_7 C1_8 1_555 1_555
H2_8 C2_7 1_555 1_555
C3_8 C2_7 1_555 1_555
C4_7 C3_8 1_555 1_555
H3_7 C4_7 1_555 1_555
C5_8 C4_7 1_555 1_555
H4_8 C5_8 1_555 1_555
C12_8 C3_8 1_555 1_555
Cd3_2 N1_8 1_555 1_555
H9_8 O5_8 1_555 1_555
H10_8 O5_8 1_555 1_555
N1_8 C1_8 1_555 1_555
O1_8 C6_8 1_555 1_555
O2_8 C6_8 1_555 1_555
O6_4 C12_8 1_555 1_555
O7_4 C12_8 1_555 1_555
O5_8 Cd3_2 1_555 1_555
C5_8 N1_8 1_555 1_555
Cd3_2 O1_8 1_555 1_555
Cd3_2 O2_8 1_555 1_555
H3_8 C4_8 1_555 1_555
C8_8 H5_8 1_555 1_555

#END
