
###############################################################################
#
# This file contains modified crystal structure data generated from the
# MOF subset of the Cambridge Structural Database (CSD) v543 
# hosted by the Cambridge Crystallographic Data Centre (CCDC).
#
# This work is licensed under the Creative Commons
# Attribution-NonCommercial-ShareAlike 4.0 International License.
# To view a copy of this license, visit
# http://creativecommons.org/licenses/by-nc-sa/4.0/
# or send a letter to
# Creative Commons, PO Box 1866, Mountain View, CA 94042, USA.
#
# CIF created using the CSD Python API on 29 September 2022
# The structure has been converted into the P1 space group
# The structure has a 3D framework
# The original CSD entry OTIPUE is in the monoclinic crystal system
# The framework has been calculated to contain at least 10.0% void space
# The void calculation uses a probe of radius 1.32A, grid spacing 0.4
#
###############################################################################

data_OTIPUE
_chemical_formula_moiety         '(C96 H56 F16 Mn6 N12 O24)n'
_symmetry_cell_setting           triclinic
_symmetry_space_group_name_H-M   'P 1'
_symmetry_Int_Tables_number      1
_space_group_name_Hall           'P 1'
loop_
_symmetry_equiv_pos_site_id
_symmetry_equiv_pos_as_xyz
1 x,y,z
_cell_length_a                   10.8336(6)
_cell_length_b                   18.2867(5)
_cell_length_c                   15.1258(16)
_cell_angle_alpha                90
_cell_angle_beta                 111.208(7)
_cell_angle_gamma                90
_cell_volume                     2793.64
loop_
_atom_site_label
_atom_site_type_symbol
_atom_site_fract_x
_atom_site_fract_y
_atom_site_fract_z
Mn1 Mn 0.17170(4) 0.01142(2) 0.16771(3)
Mn2 Mn 0.5000 0.5000 0.0000
O1 O 0.1651(2) 0.02534(10) 0.02401(14)
O2 O 0.4819(2) 0.01778(10) 0.35589(15)
O3 O 0.1804(2) 0.00278(9) 0.31144(15)
O5 O 0.3549(2) 0.07248(10) 0.22139(14)
F1 F 0.5435(2) 0.20697(9) 0.09785(16)
N1 N 0.7193(3) 0.40126(12) 0.32496(18)
N3 N 0.4203(3) 0.38400(12) 0.00865(18)
C3 C 0.4500(3) 0.07114(14) 0.2989(2)
C4 C 0.5769(4) 0.26917(15) 0.3028(2)
C10 C 0.3223(3) 0.24136(14) 0.0131(2)
C12 C 0.4537(3) 0.25947(14) 0.0543(2)
C13 C 0.7769(3) 0.33622(15) 0.3309(2)
H5 H 0.8674 0.3351 0.3431
C14 C 0.4977(4) 0.20167(16) 0.2851(2)
H6 H 0.4118 0.2044 0.2409
C15 C 0.7107(3) 0.27035(15) 0.3200(2)
H7 H 0.7565 0.2267 0.3243
C16 C 0.5369(3) 0.13794(14) 0.3257(2)
H8 H 0.6207 0.1340 0.3724
F3 F 0.3893(2) 0.34100(12) 0.2826(3)
C20 C 0.5001(3) 0.32927(15) 0.0535(2)
H11 H 0.5897 0.3387 0.0851
C21 C 0.2725(3) 0.16692(14) 0.0158(2)
H12 H 0.3223 0.1358 0.0642
C23 C 0.5902(4) 0.40089(16) 0.3092(3)
H14 H 0.5465 0.4452 0.3055
C24 C 0.5194(4) 0.33694(18) 0.2982(3)
Mn5 Mn 0.82830(4) 0.51142(2) 0.33229(3)
Mn10 Mn 0.5000 0.0000 0.5000
O13 O 0.5181(2) 0.51778(10) 0.14411(15)
O15 O 0.6984(2) 0.45136(10) 0.04987(14)
N9 N 0.0616(3) 0.12040(11) 0.15201(18)
Mn2_2 Mn 0.5000 0.5000 1.0000
O4 O 0.0108(2) 0.04998(10) 0.88258(15)
C2 C 0.1084(3) 0.06669(13) 0.9545(2)
C11 C 0.2400(4) 0.29953(15) 0.9683(2)
H4 H 0.1494 0.2919 0.9390
C19 C 0.1614(3) 0.14205(14) 0.9536(2)
H10 H 0.1122 0.1736 0.9055
C22 C 0.2922(4) 0.36825(15) 0.9673(2)
H13 H 0.2347 0.4056 0.9359
N5 N 0.0616(3) 0.37960(11) 0.65201(18)
C32 C 0.0570(3) 0.25346(15) 0.6890(2)
F6 F 0.1224(3) 0.19891(12) 0.7443(2)
C41 C 0.1186(3) 0.32073(15) 0.7031(2)
H23 H 0.2025 0.3253 0.7495
Mn7 Mn 0.17170(4) 0.48858(2) 0.66771(3)
O14 O 0.4819(2) 0.48222(10) 0.85589(15)
O16 O 0.3016(2) 0.54864(10) 0.95013(14)
N11 N 0.5797(3) 0.61600(12) 0.99135(18)
O6 O 0.3016(2) 0.95136(10) 0.45013(14)
C1 C 0.2079(3) 0.95146(13) 0.3713(2)
C5 C 0.0685(3) 0.75718(14) 0.3782(2)
C6 C 0.1187(3) 0.88607(14) 0.3447(2)
H1 H 0.0447 0.8874 0.2890
C7 C 0.0592(3) 0.62851(15) 0.4131(2)
H2 H 0.1000 0.5882 0.4493
C9 C 0.1419(3) 0.82617(14) 0.3981(2)
H3 H 0.2136 0.8284 0.4552
C18 C 0.1269(3) 0.69457(15) 0.4293(2)
F4 F 0.2513(8) 0.6950(3) 0.4827(5)
Mn10_2 Mn 0.5000 1.0000 0.5000
N7 N 0.2807(3) 0.90126(12) 0.17504(18)
O12 O 0.6984(2) 0.04864(10) 0.54987(14)
C25 C 0.7921(3) 0.04854(13) 0.6287(2)
C29 C 0.9315(3) 0.24282(14) 0.6218(2)
C30 C 0.8813(3) 0.11393(14) 0.6553(2)
H15 H 0.9553 0.1126 0.7110
C31 C 0.9408(3) 0.37149(15) 0.5869(2)
H16 H 0.9000 0.4118 0.5507
C33 C 0.8581(3) 0.17383(14) 0.6019(2)
H17 H 0.7864 0.1716 0.5448
C42 C 0.8731(3) 0.30543(15) 0.5707(2)
F8 F 0.7487(8) 0.3050(3) 0.5173(5)
N8 N 0.7193(3) 0.09874(12) 0.82496(18)
N2 N 0.9384(3) 0.62040(11) 0.34799(18)
C8 C 0.9430(3) 0.74654(15) 0.3110(2)
F2 F 0.8776(3) 0.80109(12) 0.2557(2)
C17 C 0.8814(3) 0.67927(15) 0.2969(2)
H9 H 0.7975 0.6747 0.2505
O10 O 0.9892(2) 0.95002(10) 0.11742(15)
C26 C 0.8916(3) 0.93331(13) 0.0455(2)
C35 C 0.7600(4) 0.70047(15) 0.0317(2)
H18 H 0.8506 0.7081 0.0610
C43 C 0.8386(3) 0.85795(14) 0.0464(2)
H24 H 0.8878 0.8264 0.0945
C46 C 0.7078(4) 0.63175(15) 0.0327(2)
H27 H 0.7653 0.5944 0.0641
Mn3 Mn 0.82830(4) 0.98858(2) 0.83229(3)
O7 O 0.8349(2) 0.97466(10) 0.97599(14)
O8 O 0.5181(2) 0.98222(10) 0.64411(15)
O9 O 0.8196(2) 0.99722(9) 0.68856(15)
O11 O 0.6451(2) 0.92752(10) 0.77861(14)
F5 F 0.4565(2) 0.79303(9) 0.90215(16)
N4 N 0.2807(3) 0.59874(12) 0.67504(18)
C27 C 0.5500(3) 0.92886(14) 0.7011(2)
C28 C 0.4231(4) 0.73083(15) 0.6972(2)
C34 C 0.6777(3) 0.75864(14) 0.9869(2)
C36 C 0.5463(3) 0.74053(14) 0.9457(2)
C37 C 0.2231(3) 0.66378(15) 0.6691(2)
H19 H 0.1326 0.6649 0.6569
C38 C 0.5023(4) 0.79833(16) 0.7149(2)
H20 H 0.5882 0.7956 0.7591
C39 C 0.2893(3) 0.72965(15) 0.6800(2)
H21 H 0.2435 0.7733 0.6757
C40 C 0.4631(3) 0.86206(14) 0.6743(2)
H22 H 0.3793 0.8660 0.6276
F7 F 0.6107(2) 0.65900(12) 0.7174(3)
C44 C 0.4999(3) 0.67073(15) 0.9465(2)
H25 H 0.4103 0.6613 0.9149
C45 C 0.7275(3) 0.83308(14) 0.9842(2)
H26 H 0.6777 0.8642 0.9358
C47 C 0.4098(4) 0.59911(16) 0.6908(3)
H28 H 0.4535 0.5548 0.6945
C48 C 0.4806(4) 0.66306(18) 0.7018(3)
N10 N 0.9384(3) 0.87960(11) 0.84799(18)
C8_2 C 0.0570(3) 0.24654(15) 0.1890(2)
F2_2 F 0.1224(3) 0.30109(12) 0.2443(2)
C17_2 C 0.1186(3) 0.17927(15) 0.2031(2)
H9_2 H 0.2025 0.1747 0.2495
O7_2 O 0.1651(2) 0.47466(10) 0.52401(14)
O9_2 O 0.1804(2) 0.49722(9) 0.81144(15)
O10_2 O 0.0108(2) 0.45002(10) 0.38258(15)
O11_2 O 0.3549(2) 0.42752(10) 0.72139(14)
F5_2 F 0.5435(2) 0.29303(9) 0.59785(16)
C25_2 C 0.2079(3) 0.54854(13) 0.8713(2)
C26_2 C 0.1084(3) 0.43331(13) 0.4545(2)
N6 N 0.4203(3) 0.11600(12) 0.50865(18)
C27_2 C 0.4500(3) 0.42886(14) 0.7989(2)
C28_2 C 0.5769(4) 0.23083(15) 0.8028(2)
C29_2 C 0.0685(3) 0.74282(14) 0.8782(2)
C30_2 C 0.1187(3) 0.61393(14) 0.8447(2)
H15_2 H 0.0447 0.6126 0.7890
C31_2 C 0.0592(3) 0.87149(15) 0.9131(2)
H16_2 H 0.1000 0.9118 0.9493
C33_2 C 0.1419(3) 0.67383(14) 0.8981(2)
H17_2 H 0.2136 0.6716 0.9552
C34_2 C 0.3223(3) 0.25864(14) 0.5131(2)
C35_2 C 0.2400(4) 0.20047(15) 0.4683(2)
H18_2 H 0.1494 0.2081 0.4390
C36_2 C 0.4537(3) 0.24053(14) 0.5543(2)
C37_2 C 0.7769(3) 0.16378(15) 0.8309(2)
H19_2 H 0.8674 0.1649 0.8431
C38_2 C 0.4977(4) 0.29833(16) 0.7851(2)
H20_2 H 0.4118 0.2956 0.7409
C39_2 C 0.7107(3) 0.22965(15) 0.8200(2)
H21_2 H 0.7565 0.2733 0.8243
C40_2 C 0.5369(3) 0.36206(14) 0.8257(2)
H22_2 H 0.6207 0.3660 0.8724
C42_2 C 0.1269(3) 0.80543(15) 0.9293(2)
C43_2 C 0.1614(3) 0.35795(14) 0.4536(2)
H24_2 H 0.1122 0.3264 0.4055
F7_2 F 0.3893(2) 0.15900(12) 0.7826(3)
C44_2 C 0.5001(3) 0.17073(15) 0.5535(2)
H25_2 H 0.5897 0.1613 0.5851
C45_2 C 0.2725(3) 0.33308(14) 0.5158(2)
H26_2 H 0.3223 0.3642 0.5642
C46_2 C 0.2922(4) 0.13175(15) 0.4673(2)
H27_2 H 0.2347 0.0944 0.4359
C47_2 C 0.5902(4) 0.09911(16) 0.8092(3)
H28_2 H 0.5465 0.0548 0.8055
C48_2 C 0.5194(4) 0.16306(18) 0.7982(3)
F8_2 F 0.2513(8) 0.8050(3) 0.9827(5)
O1_2 O 0.8349(2) 0.52534(10) 0.47599(14)
O3_2 O 0.8196(2) 0.50278(9) 0.18856(15)
O4_2 O 0.9892(2) 0.54998(10) 0.61742(15)
O5_2 O 0.6451(2) 0.57248(10) 0.27861(14)
F1_2 F 0.4565(2) 0.70697(9) 0.40215(16)
C1_2 C 0.7921(3) 0.45146(13) 0.1287(2)
C2_2 C 0.8916(3) 0.56669(13) 0.5455(2)
N3_2 N 0.5797(3) 0.88400(12) 0.49135(18)
C3_2 C 0.5500(3) 0.57114(14) 0.2011(2)
C4_2 C 0.4231(4) 0.76917(15) 0.1972(2)
C5_2 C 0.9315(3) 0.25718(14) 0.1218(2)
C6_2 C 0.8813(3) 0.38607(14) 0.1553(2)
H1_2 H 0.9553 0.3874 0.2110
C7_2 C 0.9408(3) 0.12851(15) 0.0869(2)
H2_2 H 0.9000 0.0882 0.0507
C9_2 C 0.8581(3) 0.32617(14) 0.1019(2)
H3_2 H 0.7864 0.3284 0.0448
C10_2 C 0.6777(3) 0.74136(14) 0.4869(2)
C11_2 C 0.7600(4) 0.79953(15) 0.5317(2)
H4_2 H 0.8506 0.7919 0.5610
C12_2 C 0.5463(3) 0.75947(14) 0.4457(2)
C13_2 C 0.2231(3) 0.83622(15) 0.1691(2)
H5_2 H 0.1326 0.8351 0.1569
C14_2 C 0.5023(4) 0.70167(16) 0.2149(2)
H6_2 H 0.5882 0.7044 0.2591
C15_2 C 0.2893(3) 0.77035(15) 0.1800(2)
H7_2 H 0.2435 0.7267 0.1757
C16_2 C 0.4631(3) 0.63794(14) 0.1743(2)
H8_2 H 0.3793 0.6340 0.1276
C18_2 C 0.8731(3) 0.19457(15) 0.0707(2)
C19_2 C 0.8386(3) 0.64205(14) 0.5464(2)
H10_2 H 0.8878 0.6736 0.5945
F3_2 F 0.6107(2) 0.84100(12) 0.2174(3)
C20_2 C 0.4999(3) 0.82927(15) 0.4465(2)
H11_2 H 0.4103 0.8387 0.4149
C21_2 C 0.7275(3) 0.66692(14) 0.4842(2)
H12_2 H 0.6777 0.6358 0.4358
C22_2 C 0.7078(4) 0.86825(15) 0.5327(2)
H13_2 H 0.7653 0.9056 0.5641
C23_2 C 0.4098(4) 0.90089(16) 0.1908(3)
H14_2 H 0.4535 0.9452 0.1945
C24_2 C 0.4806(4) 0.83694(18) 0.2018(3)
F4_2 F 0.7487(8) 0.1950(3) 0.0173(5)
C32_2 C 0.9430(3) 0.75346(15) 0.8110(2)
F6_2 F 0.8776(3) 0.69891(12) 0.7557(2)
C41_2 C 0.8814(3) 0.82073(15) 0.7969(2)
H23_2 H 0.7975 0.8253 0.7505
loop_
_geom_bond_atom_site_label_1
_geom_bond_atom_site_label_2
_geom_bond_site_symmetry_1
_geom_bond_site_symmetry_2
Mn1 O1 1_555 1_555
Mn2 N3 1_555 1_555
O2 C3 1_555 1_555
O3 Mn1 1_555 1_555
O5 Mn1 1_555 1_555
F1 C12 1_555 1_555
N1 C13 1_555 1_555
N3 C20 1_555 1_555
C3 O5 1_555 1_555
C4 C14 1_555 1_555
C12 C10 1_555 1_555
C13 H5 1_555 1_555
C14 H6 1_555 1_555
C15 C4 1_555 1_555
H7 C15 1_555 1_555
C16 C3 1_555 1_555
H8 C16 1_555 1_555
F3 C24 1_555 1_555
C20 C12 1_555 1_555
H11 C20 1_555 1_555
C21 C10 1_555 1_555
H12 C21 1_555 1_555
C23 N1 1_555 1_555
H14 C23 1_555 1_555
C24 C4 1_555 1_555
Mn5 N1 1_555 1_555
Mn10 O2 1_555 1_555
O13 Mn2 1_555 1_555
O15 Mn2 1_555 1_555
N9 Mn1 1_555 1_555
C13 C15 1_555 1_555
C14 C16 1_555 1_555
C23 C24 1_555 1_555
O4 C2 1_555 1_555
C2 C19 1_555 1_555
C11 H4 1_555 1_555
C19 H10 1_555 1_555
H13 C22 1_555 1_555
C32 F6 1_555 1_555
C41 N5 1_555 1_555
H23 C41 1_555 1_555
Mn7 N5 1_555 1_555
O14 Mn2_2 1_555 1_555
O16 Mn2_2 1_555 1_555
N11 Mn2_2 1_555 1_555
C11 C22 1_555 1_555
C32 C41 1_555 1_555
O6 C1 1_555 1_555
C6 C1 1_555 1_555
H1 C6 1_555 1_555
C7 H2 1_555 1_555
C9 C5 1_555 1_555
H3 C9 1_555 1_555
C18 C5 1_555 1_555
F4 C18 1_555 1_555
O6 Mn10_2 1_555 1_555
C6 C9 1_555 1_555
C7 C18 1_555 1_555
O12 C25 1_555 1_555
C30 C25 1_555 1_555
H15 C30 1_555 1_555
C31 H16 1_555 1_555
C33 C29 1_555 1_555
H17 C33 1_555 1_555
C42 C29 1_555 1_555
F8 C42 1_555 1_555
O12 Mn10 1_555 1_555
C30 C33 1_555 1_555
C31 C42 1_555 1_555
C8 F2 1_555 1_555
C17 N2 1_555 1_555
H9 C17 1_555 1_555
C35 H18 1_555 1_555
C43 C26 1_555 1_555
H24 C43 1_555 1_555
H27 C46 1_555 1_555
Mn5 N2 1_555 1_555
C8 C17 1_555 1_555
O10 C26 1_555 1_555
C35 C46 1_555 1_555
O7 Mn3 1_555 1_555
O8 C27 1_555 1_555
O9 Mn3 1_555 1_555
O11 Mn3 1_555 1_555
F5 C36 1_555 1_555
N4 C37 1_555 1_555
N11 C44 1_555 1_555
C27 O11 1_555 1_555
C28 C38 1_555 1_555
C36 C34 1_555 1_555
C37 H19 1_555 1_555
C38 H20 1_555 1_555
C39 C28 1_555 1_555
H21 C39 1_555 1_555
C40 C27 1_555 1_555
H22 C40 1_555 1_555
F7 C48 1_555 1_555
C44 C36 1_555 1_555
H25 C44 1_555 1_555
C45 C34 1_555 1_555
H26 C45 1_555 1_555
C47 N4 1_555 1_555
H28 C47 1_555 1_555
C48 C28 1_555 1_555
Mn7 N4 1_555 1_555
Mn10_2 O8 1_555 1_555
N10 Mn3 1_555 1_555
C37 C39 1_555 1_555
C38 C40 1_555 1_555
C47 C48 1_555 1_555
C8_2 F2_2 1_555 1_555
C17_2 N9 1_555 1_555
H9_2 C17_2 1_555 1_555
O7_2 Mn7 1_555 1_555
O14 C27_2 1_555 1_555
O9_2 Mn7 1_555 1_555
O11_2 Mn7 1_555 1_555
O16 C25_2 1_555 1_555
F5_2 C36_2 1_555 1_555
C25_2 O9_2 1_555 1_555
N8 C37_2 1_555 1_555
C26_2 O7_2 1_555 1_555
N6 C44_2 1_555 1_555
C27_2 O11_2 1_555 1_555
C28_2 C38_2 1_555 1_555
C30_2 C25_2 1_555 1_555
H15_2 C30_2 1_555 1_555
C31_2 H16_2 1_555 1_555
C33_2 C29_2 1_555 1_555
H17_2 C33_2 1_555 1_555
C34_2 C35_2 1_555 1_555
C35_2 H18_2 1_555 1_555
C36_2 C34_2 1_555 1_555
C37_2 H19_2 1_555 1_555
C38_2 H20_2 1_555 1_555
C39_2 C28_2 1_555 1_555
H21_2 C39_2 1_555 1_555
C40_2 C27_2 1_555 1_555
H22_2 C40_2 1_555 1_555
C42_2 C29_2 1_555 1_555
C43_2 C26_2 1_555 1_555
H24_2 C43_2 1_555 1_555
F7_2 C48_2 1_555 1_555
C44_2 C36_2 1_555 1_555
H25_2 C44_2 1_555 1_555
C45_2 C34_2 1_555 1_555
H26_2 C45_2 1_555 1_555
C46_2 N6 1_555 1_555
H27_2 C46_2 1_555 1_555
C47_2 N8 1_555 1_555
H28_2 C47_2 1_555 1_555
C48_2 C28_2 1_555 1_555
F8_2 C42_2 1_555 1_555
Mn10 N6 1_555 1_555
C8_2 C17_2 1_555 1_555
O10_2 C26_2 1_555 1_555
C30_2 C33_2 1_555 1_555
C31_2 C42_2 1_555 1_555
C35_2 C46_2 1_555 1_555
C37_2 C39_2 1_555 1_555
C38_2 C40_2 1_555 1_555
C43_2 C45_2 1_555 1_555
C47_2 C48_2 1_555 1_555
Mn5 O1_2 1_555 1_555
Mn10_2 N3_2 1_555 1_555
O1_2 C2_2 1_555 1_555
O13 C3_2 1_555 1_555
O3_2 Mn5 1_555 1_555
O4_2 C2_2 1_555 1_555
O5_2 Mn5 1_555 1_555
O15 C1_2 1_555 1_555
F1_2 C12_2 1_555 1_555
C1_2 O3_2 1_555 1_555
N7 C13_2 1_555 1_555
C2_2 C19_2 1_555 1_555
N3_2 C20_2 1_555 1_555
C3_2 O5_2 1_555 1_555
C4_2 C14_2 1_555 1_555
C6_2 C1_2 1_555 1_555
H1_2 C6_2 1_555 1_555
C7_2 H2_2 1_555 1_555
C9_2 C5_2 1_555 1_555
H3_2 C9_2 1_555 1_555
C10_2 C11_2 1_555 1_555
C11_2 H4_2 1_555 1_555
C12_2 C10_2 1_555 1_555
C13_2 H5_2 1_555 1_555
C14_2 H6_2 1_555 1_555
C15_2 C4_2 1_555 1_555
H7_2 C15_2 1_555 1_555
C16_2 C3_2 1_555 1_555
H8_2 C16_2 1_555 1_555
C18_2 C5_2 1_555 1_555
C19_2 H10_2 1_555 1_555
F3_2 C24_2 1_555 1_555
C20_2 C12_2 1_555 1_555
H11_2 C20_2 1_555 1_555
C21_2 C10_2 1_555 1_555
H12_2 C21_2 1_555 1_555
C22_2 N3_2 1_555 1_555
H13_2 C22_2 1_555 1_555
C23_2 N7 1_555 1_555
H14_2 C23_2 1_555 1_555
C24_2 C4_2 1_555 1_555
F4_2 C18_2 1_555 1_555
C32_2 F6_2 1_555 1_555
C41_2 N10 1_555 1_555
H23_2 C41_2 1_555 1_555
C6_2 C9_2 1_555 1_555
C7_2 C18_2 1_555 1_555
C11_2 C22_2 1_555 1_555
C13_2 C15_2 1_555 1_555
C14_2 C16_2 1_555 1_555
C19_2 C21_2 1_555 1_555
C23_2 C24_2 1_555 1_555
C32_2 C41_2 1_555 1_555

#END
