
###############################################################################
#
# This file contains modified crystal structure data generated from the
# MOF subset of the Cambridge Structural Database (CSD) v543 
# hosted by the Cambridge Crystallographic Data Centre (CCDC).
#
# This work is licensed under the Creative Commons
# Attribution-NonCommercial-ShareAlike 4.0 International License.
# To view a copy of this license, visit
# http://creativecommons.org/licenses/by-nc-sa/4.0/
# or send a letter to
# Creative Commons, PO Box 1866, Mountain View, CA 94042, USA.
#
# CIF created using the CSD Python API on 29 September 2022
# The structure has been converted into the P1 space group
# The structure has a 3D framework
# The original CSD entry OTIQAL is in the monoclinic crystal system
# The framework has been calculated to contain at least 10.0% void space
# The void calculation uses a probe of radius 1.32A, grid spacing 0.4
#
###############################################################################

data_OTIQAL
_chemical_formula_moiety         '(C64 H48 Mn4 N8 O12)n'
_symmetry_cell_setting           triclinic
_symmetry_space_group_name_H-M   'P 1'
_symmetry_Int_Tables_number      1
_space_group_name_Hall           'P 1'
loop_
_symmetry_equiv_pos_site_id
_symmetry_equiv_pos_as_xyz
1 x,y,z
_cell_length_a                   10.0269(2)
_cell_length_b                   16.4397(3)
_cell_length_c                   12.7548(2)
_cell_angle_alpha                90
_cell_angle_beta                 90.645(2)
_cell_angle_gamma                90
_cell_volume                     2102.36
loop_
_atom_site_label
_atom_site_type_symbol
_atom_site_fract_x
_atom_site_fract_y
_atom_site_fract_z
O4 O 0.1197(3) 0.56881(16) 0.1014(2)
Mn3 Mn 0.24840(5) 0.50013(3) 0.00177(4)
Mn1 Mn 0.75160(5) 0.00013(3) 0.49823(4)
C2 C 0.5888(4) 0.1341(2) 0.6193(3)
H2 H 0.5196 0.0988 0.6015
C3 C 0.5605(4) 0.2005(2) 0.6804(3)
H3 H 0.4741 0.2090 0.7036
O1 O 0.3792(3) 0.43302(16) 0.9024(2)
O2 O 0.5916(3) 0.47215(15) 0.8883(2)
C7 C 0.5204(4) 0.3489(2) 0.8091(3)
H7 H 0.4480 0.3151 0.7951
C8 C 0.7872(4) 0.2387(2) 0.6694(4)
H8 H 0.8576 0.2739 0.6843
C9 C 0.8082(4) 0.1699(2) 0.6093(3)
H9 H 0.8938 0.1597 0.5853
N2 N 0.7119(3) 0.11752(18) 0.5842(3)
C13 C 0.6608(4) 0.2551(2) 0.7074(3)
C14 C 0.6375(4) 0.3277(2) 0.7717(3)
H12 H 0.7102 0.3610 0.7871
C16 C 0.4968(4) 0.4238(2) 0.8728(3)
Mn5 Mn 0.75160(5) 0.49987(3) 0.99823(4)
O6 O 0.5916(3) 0.02785(15) 0.3883(2)
O8 O 0.8803(3) 0.06881(16) 0.3986(2)
C1 C 0.7605(4) 0.8060(2) 0.4516(3)
H1 H 0.7270 0.8030 0.5192
C4 C 0.7831(4) 0.7343(2) 0.3980(3)
H4 H 0.7647 0.6847 0.4296
O3 O 0.9132(3) 0.51831(16) 0.1097(2)
C5 C 0.8644(4) 0.6602(2) 0.2403(3)
H5 H 0.8153 0.6140 0.2565
C6 C 0.9568(4) 0.6535(2) 0.1683(3)
H6 H 0.9990 0.7006 0.1454
C10 C 0.8550(5) 0.8127(2) 0.2547(3)
H10 H 0.8866 0.8176 0.1867
C11 C 0.8331(4) 0.7362(2) 0.2974(3)
N1 N 0.7846(3) 0.87959(18) 0.4109(3)
C12 C 0.8299(5) 0.8812(2) 0.3129(3)
H11 H 0.8454 0.9316 0.2823
C15 C 0.9975(4) 0.5736(2) 0.1215(3)
O5 O 0.6208(3) 0.93302(16) 0.5976(2)
O7 O 0.9132(3) 0.98169(16) 0.6097(2)
C1_2 C 0.2395(4) 0.3060(2) 0.0484(3)
C4_2 C 0.2169(4) 0.2343(2) 0.1020(3)
H4_2 H 0.2353 0.1847 0.0704
O3_2 O 0.0868(3) 0.01831(16) 0.3903(2)
C5_2 C 0.1356(4) 0.1602(2) 0.2597(3)
H5_2 H 0.1847 0.1140 0.2435
C6_2 C 0.0432(4) 0.1535(2) 0.3317(3)
H6_2 H 0.0010 0.2006 0.3546
C10_2 C 0.1450(5) 0.3127(2) 0.2453(3)
H10_2 H 0.1134 0.3176 0.3133
C11_2 C 0.1669(4) 0.2362(2) 0.2026(3)
N1_2 N 0.2154(3) 0.37959(18) 0.0891(3)
C12_2 C 0.1701(5) 0.3812(2) 0.1871(3)
H11_2 H 0.1546 0.4316 0.2177
C15_2 C 0.0025(4) 0.0736(2) 0.3785(3)
O6_2 O 0.4084(3) 0.52785(15) 0.1117(2)
H1_2 H 0.2730 0.3030 0.9808
C2_2 C 0.4112(4) 0.6341(2) 0.8807(3)
H2_2 H 0.4804 0.5988 0.8985
C3_2 C 0.4395(4) 0.7005(2) 0.8196(3)
H3_2 H 0.5259 0.7090 0.7964
O2_2 O 0.4084(3) 0.97215(15) 0.6117(2)
C7_2 C 0.4796(4) 0.8489(2) 0.6909(3)
H7_2 H 0.5520 0.8151 0.7049
C8_2 C 0.2128(4) 0.7387(2) 0.8306(4)
H8_2 H 0.1424 0.7739 0.8157
C9_2 C 0.1918(4) 0.6699(2) 0.8907(3)
H9_2 H 0.1062 0.6597 0.9147
N2_2 N 0.2881(3) 0.61752(18) 0.9158(3)
C13_2 C 0.3392(4) 0.7551(2) 0.7926(3)
C14_2 C 0.3625(4) 0.8277(2) 0.7283(3)
H12_2 H 0.2898 0.8610 0.7129
C16_2 C 0.5032(4) 0.9238(2) 0.6272(3)
Mn5_2 Mn 0.24840(5) 0.99987(3) 0.50177(4)
O7_2 O 0.0868(3) 0.48169(16) 0.8903(2)
C1_3 C 0.2395(4) 0.1940(2) 0.5484(3)
H1_3 H 0.2730 0.1970 0.4808
C4_3 C 0.2169(4) 0.2657(2) 0.6020(3)
H4_3 H 0.2353 0.3153 0.5704
C5_3 C 0.1356(4) 0.3398(2) 0.7597(3)
H5_3 H 0.1847 0.3860 0.7435
C6_3 C 0.0432(4) 0.3465(2) 0.8317(3)
H6_3 H 0.0010 0.2994 0.8546
C10_3 C 0.1450(5) 0.1873(2) 0.7453(3)
H10_3 H 0.1134 0.1824 0.8133
C11_3 C 0.1669(4) 0.2638(2) 0.7026(3)
N1_3 N 0.2154(3) 0.12041(18) 0.5891(3)
C12_3 C 0.1701(5) 0.1188(2) 0.6871(3)
H11_3 H 0.1546 0.0684 0.7177
C15_3 C 0.0025(4) 0.4264(2) 0.8785(3)
O5_2 O 0.3792(3) 0.06698(16) 0.4024(2)
C2_3 C 0.4112(4) 0.8659(2) 0.3807(3)
H2_3 H 0.4804 0.9012 0.3985
C3_3 C 0.4395(4) 0.7995(2) 0.3196(3)
H3_3 H 0.5259 0.7910 0.2964
O1_2 O 0.6208(3) 0.56698(16) 0.0976(2)
C7_3 C 0.4796(4) 0.6511(2) 0.1909(3)
H7_3 H 0.5520 0.6849 0.2049
C8_3 C 0.2128(4) 0.7613(2) 0.3306(4)
H8_3 H 0.1424 0.7261 0.3157
C9_3 C 0.1918(4) 0.8301(2) 0.3907(3)
H9_3 H 0.1062 0.8403 0.4147
N2_3 N 0.2881(3) 0.88248(18) 0.4158(3)
C13_3 C 0.3392(4) 0.7449(2) 0.2926(3)
C14_3 C 0.3625(4) 0.6723(2) 0.2283(3)
H12_3 H 0.2898 0.6390 0.2129
C16_3 C 0.5032(4) 0.5762(2) 0.1272(3)
O8_2 O 0.1197(3) 0.93119(16) 0.6014(2)
O4_2 O 0.8803(3) 0.43119(16) 0.8986(2)
H1_4 H 0.7270 0.6970 0.0192
C2_4 C 0.5888(4) 0.3659(2) 0.1193(3)
H2_4 H 0.5196 0.4012 0.1015
C3_4 C 0.5605(4) 0.2995(2) 0.1804(3)
H3_4 H 0.4741 0.2910 0.2036
C7_4 C 0.5204(4) 0.1511(2) 0.3091(3)
H7_4 H 0.4480 0.1849 0.2951
C8_4 C 0.7872(4) 0.2613(2) 0.1694(4)
H8_4 H 0.8576 0.2261 0.1843
C9_4 C 0.8082(4) 0.3301(2) 0.1093(3)
H9_4 H 0.8938 0.3403 0.0853
N2_4 N 0.7119(3) 0.38248(18) 0.0842(3)
C13_4 C 0.6608(4) 0.2449(2) 0.2074(3)
C14_4 C 0.6375(4) 0.1723(2) 0.2717(3)
H12_4 H 0.7102 0.1390 0.2871
C16_4 C 0.4968(4) 0.0762(2) 0.3728(3)
C1_4 C 0.7605(4) 0.6940(2) 0.9516(3)
C4_4 C 0.7831(4) 0.7657(2) 0.8980(3)
H4_4 H 0.7647 0.8153 0.9296
C5_4 C 0.8644(4) 0.8398(2) 0.7403(3)
H5_4 H 0.8153 0.8860 0.7565
C6_4 C 0.9568(4) 0.8465(2) 0.6683(3)
H6_4 H 0.9990 0.7994 0.6454
C10_4 C 0.8550(5) 0.6873(2) 0.7547(3)
H10_4 H 0.8866 0.6824 0.6867
C11_4 C 0.8331(4) 0.7638(2) 0.7974(3)
N1_4 N 0.7846(3) 0.62041(18) 0.9109(3)
C12_4 C 0.8299(5) 0.6188(2) 0.8129(3)
H11_4 H 0.8454 0.5684 0.7823
C15_4 C 0.9975(4) 0.9264(2) 0.6215(3)
loop_
_geom_bond_atom_site_label_1
_geom_bond_atom_site_label_2
_geom_bond_site_symmetry_1
_geom_bond_site_symmetry_2
Mn3 O4 1_555 1_555
C2 H2 1_555 1_555
C3 C2 1_555 1_555
H3 C3 1_555 1_555
O1 C16 1_555 1_555
O2 C16 1_555 1_555
C7 H7 1_555 1_555
C8 H8 1_555 1_555
C9 C8 1_555 1_555
H9 C9 1_555 1_555
N2 Mn1 1_555 1_555
C13 C3 1_555 1_555
C14 C7 1_555 1_555
H12 C14 1_555 1_555
C16 C7 1_555 1_555
Mn5 O2 1_555 1_555
O6 Mn1 1_555 1_555
O8 Mn1 1_555 1_555
C2 N2 1_555 1_555
C8 C13 1_555 1_555
C9 N2 1_555 1_555
C13 C14 1_555 1_555
C1 H1 1_555 1_555
C4 C1 1_555 1_555
H4 C4 1_555 1_555
O3 C15 1_555 1_555
C5 H5 1_555 1_555
C6 C5 1_555 1_555
H6 C6 1_555 1_555
C10 H10 1_555 1_555
C11 C4 1_555 1_555
N1 C1 1_555 1_555
C12 C10 1_555 1_555
H11 C12 1_555 1_555
C15 C6 1_555 1_555
C5 C11 1_555 1_555
C10 C11 1_555 1_555
N1 C12 1_555 1_555
Mn3 N1_2 1_555 1_555
C4_2 C1_2 1_555 1_555
H4_2 C4_2 1_555 1_555
O3_2 C15_2 1_555 1_555
C5_2 H5_2 1_555 1_555
C6_2 C5_2 1_555 1_555
H6_2 C6_2 1_555 1_555
C10_2 H10_2 1_555 1_555
C11_2 C4_2 1_555 1_555
N1_2 C1_2 1_555 1_555
C12_2 C10_2 1_555 1_555
H11_2 C12_2 1_555 1_555
C15_2 C6_2 1_555 1_555
O6_2 Mn3 1_555 1_555
C5_2 C11_2 1_555 1_555
C10_2 C11_2 1_555 1_555
N1_2 C12_2 1_555 1_555
C2_2 H2_2 1_555 1_555
C3_2 C2_2 1_555 1_555
H3_2 C3_2 1_555 1_555
O5 C16_2 1_555 1_555
O2_2 C16_2 1_555 1_555
C7_2 H7_2 1_555 1_555
C8_2 H8_2 1_555 1_555
C9_2 C8_2 1_555 1_555
H9_2 C9_2 1_555 1_555
C13_2 C3_2 1_555 1_555
C14_2 C7_2 1_555 1_555
H12_2 C14_2 1_555 1_555
C16_2 C7_2 1_555 1_555
Mn5_2 O2_2 1_555 1_555
C2_2 N2_2 1_555 1_555
C8_2 C13_2 1_555 1_555
C9_2 N2_2 1_555 1_555
C13_2 C14_2 1_555 1_555
C1_3 H1_3 1_555 1_555
C4_3 C1_3 1_555 1_555
H4_3 C4_3 1_555 1_555
O7_2 C15_3 1_555 1_555
C5_3 H5_3 1_555 1_555
C6_3 C5_3 1_555 1_555
H6_3 C6_3 1_555 1_555
C10_3 H10_3 1_555 1_555
C11_3 C4_3 1_555 1_555
N1_3 C1_3 1_555 1_555
C12_3 C10_3 1_555 1_555
H11_3 C12_3 1_555 1_555
C15_3 C6_3 1_555 1_555
C5_3 C11_3 1_555 1_555
C10_3 C11_3 1_555 1_555
N1_3 C12_3 1_555 1_555
C2_3 H2_3 1_555 1_555
C3_3 C2_3 1_555 1_555
H3_3 C3_3 1_555 1_555
O1_2 C16_3 1_555 1_555
O6_2 C16_3 1_555 1_555
C7_3 H7_3 1_555 1_555
C8_3 H8_3 1_555 1_555
C9_3 C8_3 1_555 1_555
H9_3 C9_3 1_555 1_555
N2_3 Mn5_2 1_555 1_555
C13_3 C3_3 1_555 1_555
C14_3 C7_3 1_555 1_555
H12_3 C14_3 1_555 1_555
C16_3 C7_3 1_555 1_555
O8_2 Mn5_2 1_555 1_555
C2_3 N2_3 1_555 1_555
C8_3 C13_3 1_555 1_555
C9_3 N2_3 1_555 1_555
C13_3 C14_3 1_555 1_555
Mn5 O4_2 1_555 1_555
C2_4 H2_4 1_555 1_555
C3_4 C2_4 1_555 1_555
H3_4 C3_4 1_555 1_555
O5_2 C16_4 1_555 1_555
O6 C16_4 1_555 1_555
C7_4 H7_4 1_555 1_555
C8_4 H8_4 1_555 1_555
C9_4 C8_4 1_555 1_555
H9_4 C9_4 1_555 1_555
C13_4 C3_4 1_555 1_555
C14_4 C7_4 1_555 1_555
H12_4 C14_4 1_555 1_555
C16_4 C7_4 1_555 1_555
C2_4 N2_4 1_555 1_555
C8_4 C13_4 1_555 1_555
C9_4 N2_4 1_555 1_555
C13_4 C14_4 1_555 1_555
Mn5 N1_4 1_555 1_555
C4_4 C1_4 1_555 1_555
H4_4 C4_4 1_555 1_555
O7 C15_4 1_555 1_555
C5_4 H5_4 1_555 1_555
C6_4 C5_4 1_555 1_555
H6_4 C6_4 1_555 1_555
C10_4 H10_4 1_555 1_555
C11_4 C4_4 1_555 1_555
N1_4 C1_4 1_555 1_555
C12_4 C10_4 1_555 1_555
H11_4 C12_4 1_555 1_555
C15_4 C6_4 1_555 1_555
C5_4 C11_4 1_555 1_555
C10_4 C11_4 1_555 1_555
N1_4 C12_4 1_555 1_555

#END
