
###############################################################################
#
# This file contains modified crystal structure data generated from the
# MOF subset of the Cambridge Structural Database (CSD) v543 
# hosted by the Cambridge Crystallographic Data Centre (CCDC).
#
# This work is licensed under the Creative Commons
# Attribution-NonCommercial-ShareAlike 4.0 International License.
# To view a copy of this license, visit
# http://creativecommons.org/licenses/by-nc-sa/4.0/
# or send a letter to
# Creative Commons, PO Box 1866, Mountain View, CA 94042, USA.
#
# CIF created using the CSD Python API on 29 September 2022
# The structure has been converted into the P1 space group
# The structure has a 3D framework
# The original CSD entry OTIQEP is in the monoclinic crystal system
# The original CSD entry OTIQEP is in a Sohncke space group
# The framework has been calculated to contain at least 10.0% void space
# The void calculation uses a probe of radius 1.32A, grid spacing 0.4
#
###############################################################################

data_OTIQEP
_chemical_formula_moiety         '(C48 H32 Mn4 N8 O16)n'
_symmetry_cell_setting           triclinic
_symmetry_space_group_name_H-M   'P 1'
_symmetry_Int_Tables_number      1
_space_group_name_Hall           'P 1'
loop_
_symmetry_equiv_pos_site_id
_symmetry_equiv_pos_as_xyz
1 x,y,z
_cell_length_a                   9.9545(3)
_cell_length_b                   13.1364(4)
_cell_length_c                   11.0094(3)
_cell_angle_alpha                90
_cell_angle_beta                 101.703(3)
_cell_angle_gamma                90
_cell_volume                     1409.73
loop_
_atom_site_label
_atom_site_type_symbol
_atom_site_fract_x
_atom_site_fract_y
_atom_site_fract_z
C2 C 0.1506(4) 0.3825(4) 0.4810(4)
C3 C 0.1642(4) 0.4787(4) 0.4360(3)
H1 H 0.1789 0.4880 0.3560
C4 C 0.1306(4) 0.3721(4) 0.6002(3)
H2 H 0.1178 0.3081 0.6320
C5 C 0.1298(4) 0.4569(4) 0.6713(3)
H3 H 0.1202 0.4486 0.7530
C7 C 0.1558(4) 0.5614(4) 0.5116(3)
H5 H 0.1598 0.6266 0.4796
C8 C 0.5088(3) 0.3627(4) 0.1076(3)
H6 H 0.5878 0.3252 0.1379
C10 C 0.1557(4) 0.2909(5) 0.3972(4)
C12 C 0.2436(3) 0.0223(3) 0.3928(3)
H9 H 0.1667 0.0631 0.3673
C13 C 0.2816(4) 0.4771(4) 0.0253(3)
H10 H 0.2023 0.5156 0.0005
C14 C 0.5174(3) 0.4461(4) 0.0321(3)
H11 H 0.6005 0.4627 0.0109
C15 C 0.2804(4) 0.3930(4) 0.0985(3)
H12 H 0.1986 0.3757 0.1217
C17 C 0.0900(4) 0.0965(4) 0.0969(3)
C18 C 0.1014(5) 0.0041(4) 0.0193(3)
Mn2 Mn 0.37558(8) 0.19159(7) 0.24664(6)
N1 N 0.1419(4) 0.5507(4) 0.6301(3)
N2 N 0.3903(4) 0.3341(3) 0.1385(3)
N3 N 0.3581(4) 0.0448(3) 0.3540(3)
O1 O 0.2614(3) 0.2838(3) 0.3559(3)
O2 O 0.0581(3) 0.2285(3) 0.3889(2)
O3 O 0.1841(3) 0.1590(3) 0.1147(3)
Mn6 Mn 0.12629(7) 0.69264(7) 0.74778(6)
O9 O 0.4817(3) 0.1069(3) 0.1310(3)
O10 O 0.5596(3) 0.2298(3) 0.3843(2)
C1 C 0.4015(5) 0.5047(4) 0.9883(3)
C16 C 0.4098(4) 0.5959(4) 0.9070(3)
C21 C 0.1079(4) 0.0136(4) 0.8957(3)
H15 H 0.1097 0.0780 0.8610
O5 O 0.5183(3) 0.6069(3) 0.8690(3)
O8 O 0.3055(3) 0.6500(3) 0.8778(3)
Mn8 Mn 0.62442(8) 0.69159(7) 0.75336(6)
C6 C 0.4655(4) 0.9002(3) 0.4651(3)
H4 H 0.5428 0.8593 0.4875
C9 C 0.4672(4) 0.9839(4) 0.3893(3)
H7 H 0.5474 0.9986 0.3617
C11 C 0.2346(3) 0.9401(4) 0.4701(3)
H8 H 0.1532 0.9271 0.4964
C19 C 0.0990(4) 0.9054(4) 0.0631(3)
H13 H 0.0928 0.8942 0.1452
C22 C 0.3460(4) 0.8782(4) 0.5074(4)
H16 H 0.1063 0.7579 0.0187
C24 C 0.3424(4) 0.7907(5) 0.5988(4)
O6 O 0.4404(3) 0.7298(3) 0.6157(2)
O7 O 0.2335(3) 0.7865(3) 0.6379(3)
C20 C 0.1117(4) 0.9278(4) 0.8229(3)
H14 H 0.1146 0.9368 0.7397
C23 C 0.1058(4) 0.8231(4) 0.9857(3)
N4 N 0.1115(4) 0.8328(3) 0.8665(3)
Mn1 Mn 0.87371(7) 0.19264(7) 0.25222(6)
O4 O 0.9859(3) 0.0990(3) 0.1457(3)
N5 N 0.8581(4) 0.0507(4) 0.3699(3)
N6 N 0.8885(4) 0.3328(3) 0.1335(3)
O11 O 0.7665(3) 0.2865(3) 0.3621(3)
O12 O 0.6945(3) 0.1500(3) 0.1222(3)
O4_2 O 0.0141(3) 0.5990(3) 0.8543(3)
C1_2 C 0.5985(5) 0.0047(4) 0.0117(3)
C16_2 C 0.5902(4) 0.0959(4) 0.0930(3)
C7_2 C 0.8442(4) 0.0614(4) 0.4884(3)
H5_2 H 0.8402 0.1266 0.5204
H10_2 H 0.7977 0.0156 0.9995
C20_2 C 0.8883(4) 0.4278(4) 0.1771(3)
H14_2 H 0.8854 0.4368 0.2603
C21_2 C 0.8921(4) 0.5136(4) 0.1043(3)
H15_2 H 0.8903 0.5780 0.1390
C23_2 C 0.8942(4) 0.3231(4) 0.0143(3)
C2_2 C 0.8494(4) 0.8825(4) 0.5190(4)
C3_2 C 0.8358(4) 0.9787(4) 0.5640(3)
H1_2 H 0.8211 0.9880 0.6440
C4_2 C 0.8694(4) 0.8721(4) 0.3998(3)
H2_2 H 0.8822 0.8081 0.3680
C5_2 C 0.8702(4) 0.9569(4) 0.3287(3)
H3_2 H 0.8798 0.9486 0.2470
C6_2 C 0.5345(4) 0.4002(3) 0.5349(3)
H4_2 H 0.4572 0.3593 0.5125
C8_2 C 0.4912(3) 0.8627(4) 0.8924(3)
H6_2 H 0.4122 0.8252 0.8621
C9_2 C 0.5328(4) 0.4839(4) 0.6107(3)
H7_2 H 0.4526 0.4986 0.6383
C10_2 C 0.8443(4) 0.7909(5) 0.6028(4)
C11_2 C 0.7654(3) 0.4401(4) 0.5299(3)
H8_2 H 0.8468 0.4271 0.5036
C12_2 C 0.7564(3) 0.5223(3) 0.6072(3)
H9_2 H 0.8333 0.5631 0.6327
C13_2 C 0.7184(4) 0.9771(4) 0.9747(3)
C14_2 C 0.4826(3) 0.9461(4) 0.9679(3)
H11_2 H 0.3995 0.9627 0.9891
C15_2 C 0.7196(4) 0.8930(4) 0.9015(3)
H12_2 H 0.8014 0.8757 0.8783
C17_2 C 0.9100(4) 0.5965(4) 0.9031(3)
C18_2 C 0.8986(5) 0.5041(4) 0.9807(3)
C19_2 C 0.9010(4) 0.4054(4) 0.9369(3)
H13_2 H 0.9072 0.3942 0.8548
C22_2 C 0.6540(4) 0.3782(4) 0.4926(4)
H16_2 H 0.8937 0.2579 0.9813
C24_2 C 0.6576(4) 0.2907(5) 0.4012(4)
N2_2 N 0.6097(4) 0.8341(3) 0.8615(3)
N3_2 N 0.6419(4) 0.5448(3) 0.6460(3)
O1_2 O 0.7386(3) 0.7838(3) 0.6441(3)
O2_2 O 0.9419(3) 0.7285(3) 0.6111(2)
O3_2 O 0.8159(3) 0.6590(3) 0.8853(3)
loop_
_geom_bond_atom_site_label_1
_geom_bond_atom_site_label_2
_geom_bond_site_symmetry_1
_geom_bond_site_symmetry_2
C2 C3 1_555 1_555
C3 H1 1_555 1_555
C4 C2 1_555 1_555
H2 C4 1_555 1_555
C5 C4 1_555 1_555
H3 C5 1_555 1_555
C7 C3 1_555 1_555
H5 C7 1_555 1_555
C8 H6 1_555 1_555
C10 C2 1_555 1_555
H9 C12 1_555 1_555
C13 H10 1_555 1_555
H11 C14 1_555 1_555
C15 C13 1_555 1_555
H12 C15 1_555 1_555
C17 C18 1_555 1_555
Mn2 N2 1_555 1_555
N1 C5 1_555 1_555
N2 C8 1_555 1_555
O1 C10 1_555 1_555
O2 C10 1_555 1_555
O3 C17 1_555 1_555
Mn6 N1 1_555 1_555
O9 Mn2 1_555 1_555
O10 Mn2 1_555 1_555
C7 N1 1_555 1_555
C8 C14 1_555 1_555
C12 N3 1_555 1_555
C15 N2 1_555 1_555
Mn2 N3 1_555 1_555
Mn2 O1 1_555 1_555
Mn2 O3 1_555 1_555
C16 C1 1_555 1_555
H15 C21 1_555 1_555
O5 C16 1_555 1_555
O8 C16 1_555 1_555
Mn6 O8 1_555 1_555
Mn8 O5 1_555 1_555
C6 H4 1_555 1_555
C9 C6 1_555 1_555
H7 C9 1_555 1_555
C11 H8 1_555 1_555
C19 H13 1_555 1_555
C22 C6 1_555 1_555
C24 C22 1_555 1_555
O6 C24 1_555 1_555
O7 C24 1_555 1_555
Mn6 O7 1_555 1_555
Mn8 O6 1_555 1_555
C11 C22 1_555 1_555
C20 H14 1_555 1_555
N4 C20 1_555 1_555
Mn6 N4 1_555 1_555
C23 N4 1_555 1_555
N5 Mn1 1_555 1_555
N6 Mn1 1_555 1_555
O11 Mn1 1_555 1_555
O12 Mn1 1_555 1_555
Mn1 O4 1_555 1_555
Mn6 O4_2 1_555 1_555
C16_2 C1_2 1_555 1_555
O9 C16_2 1_555 1_555
O12 C16_2 1_555 1_555
H5_2 C7_2 1_555 1_555
C7_2 N5 1_555 1_555
C20_2 H14_2 1_555 1_555
H15_2 C21_2 1_555 1_555
N6 C20_2 1_555 1_555
C20_2 C21_2 1_555 1_555
C23_2 N6 1_555 1_555
C2_2 C3_2 1_555 1_555
C3_2 H1_2 1_555 1_555
C4_2 C2_2 1_555 1_555
H2_2 C4_2 1_555 1_555
C5_2 C4_2 1_555 1_555
H3_2 C5_2 1_555 1_555
C6_2 H4_2 1_555 1_555
C8_2 H6_2 1_555 1_555
C9_2 C6_2 1_555 1_555
H7_2 C9_2 1_555 1_555
C10_2 C2_2 1_555 1_555
C11_2 H8_2 1_555 1_555
C12_2 C11_2 1_555 1_555
H9_2 C12_2 1_555 1_555
H11_2 C14_2 1_555 1_555
C15_2 C13_2 1_555 1_555
H12_2 C15_2 1_555 1_555
C17_2 C18_2 1_555 1_555
C18_2 C19_2 1_555 1_555
C19_2 H13_2 1_555 1_555
C22_2 C6_2 1_555 1_555
C24_2 C22_2 1_555 1_555
Mn8 N2_2 1_555 1_555
N2_2 C8_2 1_555 1_555
N3_2 C9_2 1_555 1_555
O1_2 C10_2 1_555 1_555
O2_2 C10_2 1_555 1_555
O3_2 C17_2 1_555 1_555
O10 C24_2 1_555 1_555
O11 C24_2 1_555 1_555
C8_2 C14_2 1_555 1_555
C11_2 C22_2 1_555 1_555
C12_2 N3_2 1_555 1_555
C15_2 N2_2 1_555 1_555
Mn8 N3_2 1_555 1_555
Mn8 O1_2 1_555 1_555
Mn8 O3_2 1_555 1_555

#END
