
###############################################################################
#
# This file contains modified crystal structure data generated from the
# MOF subset of the Cambridge Structural Database (CSD) v543 
# hosted by the Cambridge Crystallographic Data Centre (CCDC).
#
# This work is licensed under the Creative Commons
# Attribution-NonCommercial-ShareAlike 4.0 International License.
# To view a copy of this license, visit
# http://creativecommons.org/licenses/by-nc-sa/4.0/
# or send a letter to
# Creative Commons, PO Box 1866, Mountain View, CA 94042, USA.
#
# CIF created using the CSD Python API on 29 September 2022
# The structure has been converted into the P1 space group
# The structure has a 3D framework
# The original CSD entry OTODOS is in the monoclinic crystal system
# The framework has been calculated to contain at least 10.0% void space
# The void calculation uses a probe of radius 1.32A, grid spacing 0.4
# The framework is charged, counterions have been retained in the structure
#
###############################################################################

data_OTODOS
_chemical_formula_moiety         '(C112 H144 Ag6 B8 F32 N24 2-)n'
_symmetry_cell_setting           triclinic
_symmetry_space_group_name_H-M   'P 1'
_symmetry_Int_Tables_number      1
_space_group_name_Hall           'P 1'
loop_
_symmetry_equiv_pos_site_id
_symmetry_equiv_pos_as_xyz
1 x,y,z
_cell_length_a                   12.975(8)
_cell_length_b                   23.050(2)
_cell_length_c                   13.155(3)
_cell_angle_alpha                90
_cell_angle_beta                 91.819(9)
_cell_angle_gamma                90
_cell_volume                     3932.33
loop_
_atom_site_label
_atom_site_type_symbol
_atom_site_fract_x
_atom_site_fract_y
_atom_site_fract_z
Ag2 Ag 0.0000 0.44523(2) 0.2500
C2 C 0.0651(6) 0.3168(2) 0.5199(4)
H2 H 0.0997 0.3452 0.5608
C3 C 0.1178(5) 0.2885(2) 0.4427(4)
C4 C 0.0627(5) 0.2455(2) 0.3892(4)
H3 H 0.0958 0.2235 0.3386
C6 C 0.2253(5) 0.3040(2) 0.4160(4)
H5 H 0.2640 0.3152 0.4790
H6 H 0.2590 0.2692 0.3882
N2 N 0.2329(4) 0.35166(19) 0.3416(3)
C7 C 0.1748(5) 0.3402(2) 0.2481(4)
H7 H 0.1004 0.3384 0.2622
H8 H 0.1956 0.3022 0.2203
C8 C 0.1934(4) 0.3875(2) 0.1699(4)
H9 H 0.2671 0.3879 0.1526
H10 H 0.1520 0.3795 0.1070
N3 N 0.1642(4) 0.44502(16) 0.2116(3)
C9 C 0.2301(5) 0.4553(2) 0.3053(4)
H11 H 0.2148 0.4940 0.3339
H12 H 0.3038 0.4543 0.2882
C10 C 0.2079(5) 0.4085(2) 0.3828(4)
H13 H 0.2496 0.4155 0.4459
H14 H 0.1342 0.4097 0.3998
C11 C 0.1813(4) 0.4920(2) 0.1354(4)
H15 H 0.2437 0.4832 0.0968
H16 H 0.1923 0.5294 0.1710
C12 C 0.0893(4) 0.49662(19) 0.0634(3)
C13 C 0.0077(4) 0.53338(19) 0.0871(3)
H17 H 0.0128 0.5565 0.1468
N4 N 0.0899(4) 0.7356(2) 0.5189(4)
C15 C 0.0347(6) 0.6959(3) 0.4638(5)
H19 H 0.0681 0.6760 0.4108
C19 C 0.0392(5) 0.7653(3) 0.5908(5)
H22 H 0.0750 0.7945 0.6287
C28 C 0.0801(4) 0.46326(19) 0.9747(3)
H36 H 0.1347 0.4381 0.9568
Ag3 Ag 0.2500 0.7500 0.5000
Ag4 Ag 0.0000 0.55477(2) 0.7500
Ag1 Ag 0.2500 0.2500 0.0000
N1 N 0.0899(4) 0.2644(2) 0.0189(4)
C5 C 0.0392(5) 0.2347(3) 0.0908(5)
H4 H 0.0750 0.2055 0.1287
C14 C 0.0801(4) 0.53674(19) 0.4747(3)
H18 H 0.1347 0.5619 0.4568
C17 C 0.1178(5) 0.7115(2) 0.9427(4)
C18 C 0.0627(5) 0.7545(2) 0.8892(4)
H21 H 0.0958 0.7765 0.8386
C20 C 0.2253(5) 0.6960(2) 0.9160(4)
H23 H 0.2640 0.6848 0.9790
H24 H 0.2590 0.7308 0.8882
N5 N 0.2329(4) 0.64834(19) 0.8416(3)
C21 C 0.1748(5) 0.6598(2) 0.7481(4)
H25 H 0.1004 0.6616 0.7622
H26 H 0.1956 0.6978 0.7203
C22 C 0.1934(4) 0.6125(2) 0.6699(4)
H27 H 0.2671 0.6121 0.6526
H28 H 0.1520 0.6205 0.6070
N6 N 0.1642(4) 0.55498(16) 0.7116(3)
C23 C 0.2301(5) 0.5447(2) 0.8053(4)
H29 H 0.2148 0.5060 0.8339
H30 H 0.3038 0.5457 0.7882
C24 C 0.2079(5) 0.5915(2) 0.8828(4)
H31 H 0.2496 0.5845 0.9459
H32 H 0.1342 0.5903 0.8998
C25 C 0.1813(4) 0.5080(2) 0.6354(4)
H33 H 0.2437 0.5168 0.5968
H34 H 0.1923 0.4706 0.6710
C26 C 0.0893(4) 0.50338(19) 0.5634(3)
C27 C 0.0077(4) 0.46662(19) 0.5871(3)
H35 H 0.0128 0.4435 0.6468
C15_2 C 0.9653(6) 0.6959(3) 0.0362(5)
H19_2 H 0.9319 0.6760 0.0892
Ag3_2 Ag 0.7500 0.7500 0.0000
Ag2_2 Ag 0.5000 0.94523(2) 0.2500
N1_2 N 0.4101(4) 0.7644(2) 0.4811(4)
C1 C 0.4653(6) 0.8041(3) 0.5362(5)
H1 H 0.4319 0.8240 0.5892
C2_2 C 0.5651(6) 0.8168(2) 0.5199(4)
H2_2 H 0.5997 0.8452 0.5608
C3_2 C 0.6178(5) 0.7885(2) 0.4427(4)
C4_2 C 0.5627(5) 0.7455(2) 0.3892(4)
H3_2 H 0.5958 0.7235 0.3386
C5_2 C 0.4608(5) 0.7347(3) 0.4092(5)
H4_2 H 0.4250 0.7055 0.3713
C6_2 C 0.7253(5) 0.8040(2) 0.4160(4)
H5_2 H 0.7640 0.8152 0.4790
H6_2 H 0.7590 0.7692 0.3882
N2_2 N 0.7329(4) 0.85166(19) 0.3416(3)
C7_2 C 0.6748(5) 0.8402(2) 0.2481(4)
H7_2 H 0.6004 0.8384 0.2622
H8_2 H 0.6956 0.8022 0.2203
C8_2 C 0.6934(4) 0.8875(2) 0.1699(4)
H9_2 H 0.7671 0.8879 0.1526
H10_2 H 0.6520 0.8795 0.1070
N3_2 N 0.6642(4) 0.94502(16) 0.2116(3)
C9_2 C 0.7301(5) 0.9553(2) 0.3053(4)
H11_2 H 0.7148 0.9940 0.3339
H12_2 H 0.8038 0.9543 0.2882
C10_2 C 0.7079(5) 0.9085(2) 0.3828(4)
H13_2 H 0.7496 0.9155 0.4459
H14_2 H 0.6342 0.9097 0.3998
C11_2 C 0.6813(4) 0.9920(2) 0.1354(4)
H15_2 H 0.7437 0.9832 0.0968
C12_2 C 0.5893(4) 0.99662(19) 0.0634(3)
N8 N 0.3358(4) 0.94502(16) 0.2884(3)
C15_3 C 0.4653(6) 0.1959(3) 0.0362(5)
H19_3 H 0.4319 0.1760 0.0892
C16 C 0.5651(6) 0.1832(2) 0.0199(4)
H20 H 0.5997 0.1548 0.0608
N1_3 N 0.5899(4) 0.7644(2) 0.0189(4)
C3_3 C 0.3822(5) 0.7885(2) 0.0573(4)
C4_3 C 0.4373(5) 0.7455(2) 0.1108(4)
H3_3 H 0.4042 0.7235 0.1614
C5_3 C 0.5392(5) 0.7347(3) 0.0908(5)
H4_3 H 0.5750 0.7055 0.1287
C6_3 C 0.2747(5) 0.8040(2) 0.0840(4)
H5_3 H 0.2360 0.8152 0.0210
H6_3 H 0.2410 0.7692 0.1118
N2_3 N 0.2671(4) 0.85166(19) 0.1584(3)
C7_3 C 0.3252(5) 0.8402(2) 0.2519(4)
H7_3 H 0.3996 0.8384 0.2378
H8_3 H 0.3044 0.8022 0.2797
C8_3 C 0.3066(4) 0.8875(2) 0.3301(4)
H9_3 H 0.2329 0.8879 0.3474
H10_3 H 0.3480 0.8795 0.3930
C9_3 C 0.2699(5) 0.9553(2) 0.1947(4)
H11_3 H 0.2852 0.9940 0.1661
H12_3 H 0.1962 0.9543 0.2118
C10_3 C 0.2921(5) 0.9085(2) 0.1172(4)
H13_3 H 0.2504 0.9155 0.0541
H14_3 H 0.3658 0.9097 0.1002
C11_3 C 0.3187(4) 0.9920(2) 0.3646(4)
H15_3 H 0.2563 0.9832 0.4032
C12_3 C 0.4107(4) 0.99662(19) 0.4366(3)
H34_2 H 0.6923 0.9706 0.6710
C27_2 C 0.5077(4) 0.96662(19) 0.5871(3)
H35_2 H 0.5128 0.9435 0.6468
C28_2 C 0.4199(4) 0.96326(19) 0.5253(3)
H36_2 H 0.3653 0.9381 0.5432
Ag1_2 Ag 0.7500 0.2500 0.5000
Ag2_3 Ag 1.0000 0.44523(2) 0.2500
N1_4 N 0.9101(4) 0.2644(2) 0.4811(4)
C1_2 C 0.9653(6) 0.3041(3) 0.5362(5)
H1_2 H 0.9319 0.3240 0.5892
C5_4 C 0.9608(5) 0.2347(3) 0.4092(5)
H4_4 H 0.9250 0.2055 0.3713
C14_2 C 0.9199(4) 0.53674(19) 0.0253(3)
H18_2 H 0.8653 0.5619 0.0432
N7 N 0.5899(4) 0.2356(2) 0.5189(4)
N8_2 N 0.8358(4) 0.44502(16) 0.2884(3)
C16_2 C 0.9349(6) 0.6832(2) 0.4801(4)
H20_2 H 0.9003 0.6548 0.4392
C17_2 C 0.8822(5) 0.7115(2) 0.5573(4)
C18_2 C 0.9373(5) 0.7545(2) 0.6108(4)
H21_2 H 0.9042 0.7765 0.6614
C20_2 C 0.7747(5) 0.6960(2) 0.5840(4)
H23_2 H 0.7360 0.6848 0.5210
H24_2 H 0.7410 0.7308 0.6118
N5_2 N 0.7671(4) 0.64834(19) 0.6584(3)
C21_2 C 0.8252(5) 0.6598(2) 0.7519(4)
H25_2 H 0.8996 0.6616 0.7378
H26_2 H 0.8044 0.6978 0.7797
C22_2 C 0.8066(4) 0.6125(2) 0.8301(4)
H27_2 H 0.7329 0.6121 0.8474
H28_2 H 0.8480 0.6205 0.8930
N6_2 N 0.8358(4) 0.55498(16) 0.7884(3)
C23_2 C 0.7699(5) 0.5447(2) 0.6947(4)
H29_2 H 0.7852 0.5060 0.6661
H30_2 H 0.6962 0.5457 0.7118
C24_2 C 0.7921(5) 0.5915(2) 0.6172(4)
H31_2 H 0.7504 0.5845 0.5541
H32_2 H 0.8658 0.5903 0.6002
C25_2 C 0.8187(4) 0.5080(2) 0.8646(4)
H33_2 H 0.7563 0.5168 0.9032
H34_3 H 0.8077 0.4706 0.8290
C26_2 C 0.9107(4) 0.50338(19) 0.9366(3)
C27_3 C 0.9923(4) 0.46662(19) 0.9129(3)
H35_3 H 0.9872 0.4435 0.8532
Ag4_2 Ag 1.0000 0.55477(2) 0.7500
Ag1_3 Ag 0.2500 0.2500 1.0000
C1_3 C 0.0347(6) 0.3041(3) 0.9638(5)
H1_3 H 0.0681 0.3240 0.9108
N7_2 N 0.4101(4) 0.2356(2) 0.9811(4)
C3_4 C 0.8822(5) 0.2885(2) 0.0573(4)
C4_4 C 0.9373(5) 0.2455(2) 0.1108(4)
H3_4 H 0.9042 0.2235 0.1614
C6_4 C 0.7747(5) 0.3040(2) 0.0840(4)
H5_4 H 0.7360 0.3152 0.0210
H6_4 H 0.7410 0.2692 0.1118
N2_4 N 0.7671(4) 0.35166(19) 0.1584(3)
C7_4 C 0.8252(5) 0.3402(2) 0.2519(4)
H7_4 H 0.8996 0.3384 0.2378
H8_4 H 0.8044 0.3022 0.2797
C8_4 C 0.8066(4) 0.3875(2) 0.3301(4)
H9_4 H 0.7329 0.3879 0.3474
H10_4 H 0.8480 0.3795 0.3930
C9_4 C 0.7699(5) 0.4553(2) 0.1947(4)
H11_4 H 0.7852 0.4940 0.1661
H12_4 H 0.6962 0.4543 0.2118
C10_4 C 0.7921(5) 0.4085(2) 0.1172(4)
H13_4 H 0.7504 0.4155 0.0541
H14_4 H 0.8658 0.4097 0.1002
C11_4 C 0.8187(4) 0.4920(2) 0.3646(4)
H15_4 H 0.7563 0.4832 0.4032
H16_2 H 0.8077 0.5294 0.3290
C12_4 C 0.9107(4) 0.49662(19) 0.4366(3)
C13_2 C 0.9923(4) 0.53338(19) 0.4129(3)
H17_2 H 0.9872 0.5565 0.3532
N4_2 N 0.9101(4) 0.7356(2) 0.9811(4)
C19_2 C 0.9608(5) 0.7653(3) 0.9092(5)
H22_2 H 0.9250 0.7945 0.8713
C28_3 C 0.9199(4) 0.46326(19) 0.5253(3)
H36_3 H 0.8653 0.4381 0.5432
Ag3_3 Ag 0.7500 0.7500 1.0000
C15_4 C 0.5347(6) 0.1959(3) 0.4638(5)
H19_4 H 0.5681 0.1760 0.4108
C16_3 C 0.4349(6) 0.1832(2) 0.4801(4)
H20_3 H 0.4003 0.1548 0.4392
C17_3 C 0.3822(5) 0.2115(2) 0.5573(4)
C18_3 C 0.4373(5) 0.2545(2) 0.6108(4)
H21_3 H 0.4042 0.2765 0.6614
C19_3 C 0.5392(5) 0.2653(3) 0.5908(5)
H22_3 H 0.5750 0.2945 0.6287
C20_3 C 0.2747(5) 0.1960(2) 0.5840(4)
H23_3 H 0.2360 0.1848 0.5210
H24_3 H 0.2410 0.2308 0.6118
N5_3 N 0.2671(4) 0.14834(19) 0.6584(3)
C21_3 C 0.3252(5) 0.1598(2) 0.7519(4)
H25_3 H 0.3996 0.1616 0.7378
H26_3 H 0.3044 0.1978 0.7797
C22_3 C 0.3066(4) 0.1125(2) 0.8301(4)
H27_3 H 0.2329 0.1121 0.8474
H28_3 H 0.3480 0.1205 0.8930
N6_3 N 0.3358(4) 0.05498(16) 0.7884(3)
C23_3 C 0.2699(5) 0.0447(2) 0.6947(4)
H29_3 H 0.2852 0.0060 0.6661
H30_3 H 0.1962 0.0457 0.7118
C24_3 C 0.2921(5) 0.0915(2) 0.6172(4)
H31_3 H 0.2504 0.0845 0.5541
H32_3 H 0.3658 0.0903 0.6002
C25_3 C 0.3187(4) 0.0080(2) 0.8646(4)
H33_3 H 0.2563 0.0168 0.9032
C26_3 C 0.4107(4) 0.00338(19) 0.9366(3)
Ag4_3 Ag 0.5000 0.05477(2) 0.7500
H16_3 H 0.3077 0.0294 0.3290
C13_3 C 0.4923(4) 0.03338(19) 0.4129(3)
H17_3 H 0.4872 0.0565 0.3532
C14_3 C 0.5801(4) 0.03674(19) 0.4747(3)
H18_3 H 0.6347 0.0619 0.4568
C17_4 C 0.6178(5) 0.2115(2) 0.9427(4)
C18_4 C 0.5627(5) 0.2545(2) 0.8892(4)
H21_4 H 0.5958 0.2765 0.8386
C19_4 C 0.4608(5) 0.2653(3) 0.9092(5)
H22_4 H 0.4250 0.2945 0.8713
C20_4 C 0.7253(5) 0.1960(2) 0.9160(4)
H23_4 H 0.7640 0.1848 0.9790
H24_4 H 0.7590 0.2308 0.8882
N5_4 N 0.7329(4) 0.14834(19) 0.8416(3)
C21_4 C 0.6748(5) 0.1598(2) 0.7481(4)
H25_4 H 0.6004 0.1616 0.7622
H26_4 H 0.6956 0.1978 0.7203
C22_4 C 0.6934(4) 0.1125(2) 0.6699(4)
H27_4 H 0.7671 0.1121 0.6526
H28_4 H 0.6520 0.1205 0.6070
N6_4 N 0.6642(4) 0.05498(16) 0.7116(3)
C23_4 C 0.7301(5) 0.0447(2) 0.8053(4)
H29_4 H 0.7148 0.0060 0.8339
H30_4 H 0.8038 0.0457 0.7882
C24_4 C 0.7079(5) 0.0915(2) 0.8828(4)
H31_4 H 0.7496 0.0845 0.9459
H32_4 H 0.6342 0.0903 0.8998
C25_4 C 0.6813(4) 0.0080(2) 0.6354(4)
H33_4 H 0.7437 0.0168 0.5968
C26_4 C 0.5893(4) 0.00338(19) 0.5634(3)
C1_4 C 0.5347(6) 0.8041(3) 0.9638(5)
H1_4 H 0.5681 0.8240 0.9108
C2_3 C 0.4349(6) 0.8168(2) 0.9801(4)
H2_3 H 0.4003 0.8452 0.9392
C16_4 C 0.0651(6) 0.6832(2) 0.0199(4)
H20_4 H 0.0997 0.6548 0.0608
C2_4 C 0.9349(6) 0.3168(2) 0.9801(4)
H2_4 H 0.9003 0.3452 0.9392
H16_4 H 0.6923 0.0294 0.1710
C13_4 C 0.5077(4) 0.03338(19) 0.0871(3)
H17_4 H 0.5128 0.0565 0.1468
C14_4 C 0.4199(4) 0.03674(19) 0.0253(3)
H18_4 H 0.3653 0.0619 0.0432
H34_4 H 0.3077 0.9706 0.8290
C27_4 C 0.4923(4) 0.96662(19) 0.9129(3)
H35_4 H 0.4872 0.9435 0.8532
C28_4 C 0.5801(4) 0.96326(19) 0.9747(3)
H36_4 H 0.6347 0.9381 0.9568
B1 B 0.2615(7) 0.1429(3) 0.2206(6)
F1 F 0.2669(4) 0.20217(17) 0.2205(4)
F2 F 0.2363(5) 0.1333(3) 0.1131(5)
F3 F 0.3580(4) 0.11853(17) 0.2336(3)
F4 F 0.1744(8) 0.1182(5) 0.2573(10)
B1_2 B 0.7385(7) 0.1429(3) 0.2794(6)
F1_2 F 0.7331(4) 0.20217(17) 0.2795(4)
F2_2 F 0.7637(5) 0.1333(3) 0.3869(5)
F3_2 F 0.6420(4) 0.11853(17) 0.2664(3)
F4_2 F 0.8256(8) 0.1182(5) 0.2427(10)
B1_3 B 0.7615(7) 0.6429(3) 0.2206(6)
F1_3 F 0.7669(4) 0.70217(17) 0.2205(4)
F2_3 F 0.7363(5) 0.6333(3) 0.1131(5)
F3_3 F 0.8580(4) 0.61853(17) 0.2336(3)
F4_3 F 0.6744(8) 0.6182(5) 0.2573(10)
B1_4 B 0.2385(7) 0.6429(3) 0.2794(6)
F1_4 F 0.2331(4) 0.70217(17) 0.2795(4)
F2_4 F 0.2637(5) 0.6333(3) 0.3869(5)
F3_4 F 0.1420(4) 0.61853(17) 0.2664(3)
F4_4 F 0.3256(8) 0.6182(5) 0.2427(10)
B1_5 B 0.7385(7) 0.8571(3) 0.7794(6)
F1_5 F 0.7331(4) 0.79783(17) 0.7795(4)
F2_5 F 0.7637(5) 0.8667(3) 0.8869(5)
F3_5 F 0.6420(4) 0.88147(17) 0.7664(3)
F4_5 F 0.8256(8) 0.8818(5) 0.7427(10)
B1_6 B 0.2615(7) 0.8571(3) 0.7206(6)
F1_6 F 0.2669(4) 0.79783(17) 0.7205(4)
F2_6 F 0.2363(5) 0.8667(3) 0.6131(5)
F3_6 F 0.3580(4) 0.88147(17) 0.7336(3)
F4_6 F 0.1744(8) 0.8818(5) 0.7573(10)
B1_7 B 0.2385(7) 0.3571(3) 0.7794(6)
F1_7 F 0.2331(4) 0.29783(17) 0.7795(4)
F2_7 F 0.2637(5) 0.3667(3) 0.8869(5)
F3_7 F 0.1420(4) 0.38147(17) 0.7664(3)
F4_7 F 0.3256(8) 0.3818(5) 0.7427(10)
B1_8 B 0.7615(7) 0.3571(3) 0.7206(6)
F1_8 F 0.7669(4) 0.29783(17) 0.7205(4)
F2_8 F 0.7363(5) 0.3667(3) 0.6131(5)
F3_8 F 0.8580(4) 0.38147(17) 0.7336(3)
F4_8 F 0.6744(8) 0.3818(5) 0.7573(10)
loop_
_geom_bond_atom_site_label_1
_geom_bond_atom_site_label_2
_geom_bond_site_symmetry_1
_geom_bond_site_symmetry_2
Ag2 N3 1_555 1_555
H2 C2 1_555 1_555
C3 C2 1_555 1_555
C4 C3 1_555 1_555
H3 C4 1_555 1_555
C6 C3 1_555 1_555
H5 C6 1_555 1_555
H6 C6 1_555 1_555
N2 C6 1_555 1_555
C7 N2 1_555 1_555
H7 C7 1_555 1_555
H8 C7 1_555 1_555
C8 C7 1_555 1_555
H9 C8 1_555 1_555
H10 C8 1_555 1_555
N3 C8 1_555 1_555
C9 N3 1_555 1_555
H11 C9 1_555 1_555
H12 C9 1_555 1_555
C10 N2 1_555 1_555
H13 C10 1_555 1_555
H14 C10 1_555 1_555
C11 N3 1_555 1_555
H15 C11 1_555 1_555
H16 C11 1_555 1_555
C12 C11 1_555 1_555
C13 C12 1_555 1_555
H17 C13 1_555 1_555
C9 C10 1_555 1_555
N4 C15 1_555 1_555
C15 H19 1_555 1_555
C19 N4 1_555 1_555
H22 C19 1_555 1_555
H36 C28 1_555 1_555
Ag3 N4 1_555 1_555
Ag1 N1 1_555 1_555
C5 N1 1_555 1_555
H4 C5 1_555 1_555
H18 C14 1_555 1_555
C18 C17 1_555 1_555
H21 C18 1_555 1_555
C20 C17 1_555 1_555
H23 C20 1_555 1_555
H24 C20 1_555 1_555
N5 C20 1_555 1_555
C21 N5 1_555 1_555
H25 C21 1_555 1_555
H26 C21 1_555 1_555
C22 C21 1_555 1_555
H27 C22 1_555 1_555
H28 C22 1_555 1_555
N6 C22 1_555 1_555
C23 N6 1_555 1_555
H29 C23 1_555 1_555
H30 C23 1_555 1_555
C24 N5 1_555 1_555
H31 C24 1_555 1_555
H32 C24 1_555 1_555
C25 N6 1_555 1_555
H33 C25 1_555 1_555
H34 C25 1_555 1_555
C26 C14 1_555 1_555
C27 C26 1_555 1_555
H35 C27 1_555 1_555
Ag4 N6 1_555 1_555
C23 C24 1_555 1_555
C25 C26 1_555 1_555
C15_2 H19_2 1_555 1_555
Ag3 N1_2 1_555 1_555
Ag2_2 N3_2 1_555 1_555
N1_2 C1 1_555 1_555
C1 H1 1_555 1_555
C2_2 C1 1_555 1_555
H2_2 C2_2 1_555 1_555
C3_2 C2_2 1_555 1_555
C4_2 C3_2 1_555 1_555
H3_2 C4_2 1_555 1_555
C5_2 N1_2 1_555 1_555
H4_2 C5_2 1_555 1_555
C6_2 C3_2 1_555 1_555
H5_2 C6_2 1_555 1_555
H6_2 C6_2 1_555 1_555
N2_2 C6_2 1_555 1_555
C7_2 N2_2 1_555 1_555
H7_2 C7_2 1_555 1_555
H8_2 C7_2 1_555 1_555
C8_2 C7_2 1_555 1_555
H9_2 C8_2 1_555 1_555
H10_2 C8_2 1_555 1_555
N3_2 C8_2 1_555 1_555
C9_2 N3_2 1_555 1_555
H11_2 C9_2 1_555 1_555
H12_2 C9_2 1_555 1_555
C10_2 N2_2 1_555 1_555
H13_2 C10_2 1_555 1_555
H14_2 C10_2 1_555 1_555
C11_2 N3_2 1_555 1_555
H15_2 C11_2 1_555 1_555
C12_2 C11_2 1_555 1_555
N8 Ag2_2 1_555 1_555
C4_2 C5_2 1_555 1_555
C9_2 C10_2 1_555 1_555
C15_3 H19_3 1_555 1_555
C16 C15_3 1_555 1_555
H20 C16 1_555 1_555
Ag3_2 N1_3 1_555 1_555
C4_3 C3_3 1_555 1_555
H3_3 C4_3 1_555 1_555
C5_3 N1_3 1_555 1_555
H4_3 C5_3 1_555 1_555
C6_3 C3_3 1_555 1_555
H5_3 C6_3 1_555 1_555
H6_3 C6_3 1_555 1_555
N2_3 C6_3 1_555 1_555
C7_3 N2_3 1_555 1_555
H7_3 C7_3 1_555 1_555
H8_3 C7_3 1_555 1_555
C8_3 C7_3 1_555 1_555
H9_3 C8_3 1_555 1_555
H10_3 C8_3 1_555 1_555
N8 C8_3 1_555 1_555
C9_3 N8 1_555 1_555
H11_3 C9_3 1_555 1_555
H12_3 C9_3 1_555 1_555
C10_3 N2_3 1_555 1_555
H13_3 C10_3 1_555 1_555
H14_3 C10_3 1_555 1_555
C11_3 N8 1_555 1_555
H15_3 C11_3 1_555 1_555
C12_3 C11_3 1_555 1_555
H35_2 C27_2 1_555 1_555
C28_2 C12_3 1_555 1_555
H36_2 C28_2 1_555 1_555
C4_3 C5_3 1_555 1_555
C9_3 C10_3 1_555 1_555
C27_2 C28_2 1_555 1_555
Ag1_2 N1_4 1_555 1_555
N1_4 C1_2 1_555 1_555
C1_2 H1_2 1_555 1_555
C5_4 N1_4 1_555 1_555
H4_4 C5_4 1_555 1_555
H18_2 C14_2 1_555 1_555
N7 Ag1_2 1_555 1_555
N8_2 Ag2_3 1_555 1_555
H20_2 C16_2 1_555 1_555
C17_2 C16_2 1_555 1_555
C18_2 C17_2 1_555 1_555
H21_2 C18_2 1_555 1_555
C20_2 C17_2 1_555 1_555
H23_2 C20_2 1_555 1_555
H24_2 C20_2 1_555 1_555
N5_2 C20_2 1_555 1_555
C21_2 N5_2 1_555 1_555
H25_2 C21_2 1_555 1_555
H26_2 C21_2 1_555 1_555
C22_2 C21_2 1_555 1_555
H27_2 C22_2 1_555 1_555
H28_2 C22_2 1_555 1_555
N6_2 C22_2 1_555 1_555
C23_2 N6_2 1_555 1_555
H29_2 C23_2 1_555 1_555
H30_2 C23_2 1_555 1_555
C24_2 N5_2 1_555 1_555
H31_2 C24_2 1_555 1_555
H32_2 C24_2 1_555 1_555
C25_2 N6_2 1_555 1_555
H33_2 C25_2 1_555 1_555
H34_3 C25_2 1_555 1_555
C27_3 C26_2 1_555 1_555
H35_3 C27_3 1_555 1_555
Ag4_2 N6_2 1_555 1_555
C23_2 C24_2 1_555 1_555
C25_2 C26_2 1_555 1_555
C1_3 H1_3 1_555 1_555
N7_2 Ag1_3 1_555 1_555
C4_4 C3_4 1_555 1_555
H3_4 C4_4 1_555 1_555
C6_4 C3_4 1_555 1_555
H5_4 C6_4 1_555 1_555
H6_4 C6_4 1_555 1_555
N2_4 C6_4 1_555 1_555
C7_4 N2_4 1_555 1_555
H7_4 C7_4 1_555 1_555
H8_4 C7_4 1_555 1_555
C8_4 C7_4 1_555 1_555
H9_4 C8_4 1_555 1_555
H10_4 C8_4 1_555 1_555
N8_2 C8_4 1_555 1_555
C9_4 N8_2 1_555 1_555
H11_4 C9_4 1_555 1_555
H12_4 C9_4 1_555 1_555
C10_4 N2_4 1_555 1_555
H13_4 C10_4 1_555 1_555
H14_4 C10_4 1_555 1_555
C11_4 N8_2 1_555 1_555
H15_4 C11_4 1_555 1_555
H16_2 C11_4 1_555 1_555
C12_4 C11_4 1_555 1_555
C13_2 C12_4 1_555 1_555
H17_2 C13_2 1_555 1_555
C19_2 N4_2 1_555 1_555
H22_2 C19_2 1_555 1_555
C28_3 C12_4 1_555 1_555
H36_3 C28_3 1_555 1_555
Ag3_3 N4_2 1_555 1_555
C9_4 C10_4 1_555 1_555
N7 C15_4 1_555 1_555
C15_4 H19_4 1_555 1_555
C16_3 C15_4 1_555 1_555
H20_3 C16_3 1_555 1_555
C17_3 C16_3 1_555 1_555
C18_3 C17_3 1_555 1_555
H21_3 C18_3 1_555 1_555
C19_3 N7 1_555 1_555
H22_3 C19_3 1_555 1_555
C20_3 C17_3 1_555 1_555
H23_3 C20_3 1_555 1_555
H24_3 C20_3 1_555 1_555
N5_3 C20_3 1_555 1_555
C21_3 N5_3 1_555 1_555
H25_3 C21_3 1_555 1_555
H26_3 C21_3 1_555 1_555
C22_3 C21_3 1_555 1_555
H27_3 C22_3 1_555 1_555
H28_3 C22_3 1_555 1_555
N6_3 C22_3 1_555 1_555
C23_3 N6_3 1_555 1_555
H29_3 C23_3 1_555 1_555
H30_3 C23_3 1_555 1_555
C24_3 N5_3 1_555 1_555
H31_3 C24_3 1_555 1_555
H32_3 C24_3 1_555 1_555
C25_3 N6_3 1_555 1_555
H33_3 C25_3 1_555 1_555
Ag4_3 N6_3 1_555 1_555
C18_3 C19_3 1_555 1_555
C23_3 C24_3 1_555 1_555
C25_3 C26_3 1_555 1_555
H17_3 C13_3 1_555 1_555
C14_3 C13_3 1_555 1_555
H18_3 C14_3 1_555 1_555
C18_4 C17_4 1_555 1_555
H21_4 C18_4 1_555 1_555
C19_4 N7_2 1_555 1_555
H22_4 C19_4 1_555 1_555
C20_4 C17_4 1_555 1_555
H23_4 C20_4 1_555 1_555
H24_4 C20_4 1_555 1_555
N5_4 C20_4 1_555 1_555
C21_4 N5_4 1_555 1_555
H25_4 C21_4 1_555 1_555
H26_4 C21_4 1_555 1_555
C22_4 C21_4 1_555 1_555
H27_4 C22_4 1_555 1_555
H28_4 C22_4 1_555 1_555
N6_4 C22_4 1_555 1_555
C23_4 N6_4 1_555 1_555
H29_4 C23_4 1_555 1_555
H30_4 C23_4 1_555 1_555
C24_4 N5_4 1_555 1_555
H31_4 C24_4 1_555 1_555
H32_4 C24_4 1_555 1_555
C25_4 N6_4 1_555 1_555
H33_4 C25_4 1_555 1_555
C26_4 C14_3 1_555 1_555
Ag4_3 N6_4 1_555 1_555
C18_4 C19_4 1_555 1_555
C23_4 C24_4 1_555 1_555
C25_4 C26_4 1_555 1_555
C1_4 H1_4 1_555 1_555
C2_3 C1_4 1_555 1_555
H2_3 C2_3 1_555 1_555
H20_4 C16_4 1_555 1_555
H2_4 C2_4 1_555 1_555
H17_4 C13_4 1_555 1_555
C14_4 C13_4 1_555 1_555
H18_4 C14_4 1_555 1_555
H35_4 C27_4 1_555 1_555
H36_4 C28_4 1_555 1_555
C27_4 C28_4 1_555 1_555
B1 F1 1_555 1_555
F2 B1 1_555 1_555
F3 B1 1_555 1_555
F4 B1 1_555 1_555
B1_2 F1_2 1_555 1_555
F2_2 B1_2 1_555 1_555
F3_2 B1_2 1_555 1_555
F4_2 B1_2 1_555 1_555
B1_3 F1_3 1_555 1_555
F2_3 B1_3 1_555 1_555
F3_3 B1_3 1_555 1_555
F4_3 B1_3 1_555 1_555
B1_4 F1_4 1_555 1_555
F2_4 B1_4 1_555 1_555
F3_4 B1_4 1_555 1_555
F4_4 B1_4 1_555 1_555
B1_5 F1_5 1_555 1_555
F2_5 B1_5 1_555 1_555
F3_5 B1_5 1_555 1_555
F4_5 B1_5 1_555 1_555
B1_6 F1_6 1_555 1_555
F2_6 B1_6 1_555 1_555
F3_6 B1_6 1_555 1_555
F4_6 B1_6 1_555 1_555
B1_7 F1_7 1_555 1_555
F2_7 B1_7 1_555 1_555
F3_7 B1_7 1_555 1_555
F4_7 B1_7 1_555 1_555
B1_8 F1_8 1_555 1_555
F2_8 B1_8 1_555 1_555
F3_8 B1_8 1_555 1_555
F4_8 B1_8 1_555 1_555

#END
