
###############################################################################
#
# This file contains modified crystal structure data generated from the
# MOF subset of the Cambridge Structural Database (CSD) v543 
# hosted by the Cambridge Crystallographic Data Centre (CCDC).
#
# This work is licensed under the Creative Commons
# Attribution-NonCommercial-ShareAlike 4.0 International License.
# To view a copy of this license, visit
# http://creativecommons.org/licenses/by-nc-sa/4.0/
# or send a letter to
# Creative Commons, PO Box 1866, Mountain View, CA 94042, USA.
#
# CIF created using the CSD Python API on 29 September 2022
# The structure has been converted into the P1 space group
# The structure has a 3D framework
# The original CSD entry OTOFOV is in the rhombohedral crystal system
# The framework has been calculated to contain at least 10.0% void space
# The void calculation uses a probe of radius 1.32A, grid spacing 0.4
# The framework is charged, counterions have been retained in the structure
#
###############################################################################

data_OTOFOV
_chemical_formula_moiety         '(C144 H72 Co18 F36 N72 O36)n'
_symmetry_cell_setting           triclinic
_symmetry_space_group_name_H-M   'P 1'
_symmetry_Int_Tables_number      1
_space_group_name_Hall           'P 1'
loop_
_symmetry_equiv_pos_site_id
_symmetry_equiv_pos_as_xyz
1 x,y,z
_cell_length_a                   23.1004(7)
_cell_length_b                   23.1004(7)
_cell_length_c                   12.5393(4)
_cell_angle_alpha                90
_cell_angle_beta                 90
_cell_angle_gamma                120
_cell_volume                     5794.86
loop_
_atom_site_label
_atom_site_type_symbol
_atom_site_fract_x
_atom_site_fract_y
_atom_site_fract_z
Co1 Co 0.00111(2) 0.24171(2) 0.42405(3)
N1 N 0.09636(10) 0.29507(9) 0.48228(18)
N4 N 0.01727(10) 0.24852(17) 0.26242(17)
C1 C 0.12726(12) 0.35642(13) 0.5225(3)
C2 C 0.13241(8) 0.26482(16) 0.4580(3)
C7 C 0.01000(18) 0.20147(12) 0.1951(2)
H1 H 0.1031 0.3763 0.5367
C8 C 0.19429(11) 0.3886(2) 0.5406(4)
O1 O 0.10412(6) 0.20824(13) 0.4165(2)
H2 H 0.0094 0.1584 0.6126
F1 F 0.22550(7) 0.45100(13) 0.5820(3)
C11 C 0.04196(11) 0.31212(19) 0.22882(19)
N5 N 0.19871(13) 0.29507(9) 0.48228(18)
C12 C 0.02754(14) 0.21756(18) 0.0901(2)
O4 O 0.04958(9) 0.35636(16) 0.29217(15)
N8 N 0.05762(10) 0.32815(14) 0.12306(16)
C13 C 0.22916(18) 0.35642(13) 0.5225(3)
Co2 Co 0.24060(3) 0.24171(2) 0.42405(3)
F4 F 0.01985(11) 0.16844(14) 0.02053(17)
C16 C 0.05120(14) 0.28140(20) 0.0559(2)
Co5 Co 0.09162(2) 0.42607(3) 0.09072(3)
H5 H 0.2732 0.3763 0.5367
N9 N 0.33852(14) 0.27571(10) 0.45639(16)
N10 N 0.23125(20) 0.24852(17) 0.26242(17)
N11 N 0.19692(14) 0.14907(10) 0.49150(19)
H8 H 0.0612 0.2910 0.9867
N2 N 0.95215(10) 0.14907(10) 0.49150(19)
N3 N 0.93719(10) 0.27571(10) 0.45639(16)
C3 C 0.89201(10) 0.10799(10) 0.4471(3)
C4 C 0.97076(14) 0.13030(15) 0.5789(2)
C5 C 0.93682(16) 0.29137(11) 0.56215(19)
C6 C 0.89686(14) 0.28213(14) 0.3892(2)
O2 O 0.87443(8) 0.12557(8) 0.3658(2)
C9 C 0.93022(14) 0.06978(14) 0.6222(4)
O3 O 0.97344(13) 0.28375(9) 0.62550(15)
C10 C 0.85668(12) 0.30579(14) 0.4234(2)
H3 H 0.8964 0.2721 0.3200
H4 H 0.9930 0.1585 0.2223
F2 F 0.95023(11) 0.04977(11) 0.7105(3)
F3 F 0.81525(9) 0.31348(11) 0.35386(17)
N6 N 0.85093(10) 0.04785(10) 0.49150(19)
N7 N 0.89792(20) 0.31606(10) 0.59575(17)
C14 C 0.86970(15) 0.02924(14) 0.5789(2)
C15 C 0.85814(22) 0.32333(18) 0.5284(2)
Co4 Co 0.90727(3) 0.33222(2) 0.75738(3)
H7 H 0.8322 0.3403 0.5556
Co3 Co 0.75829(2) 0.99889(2) 0.42405(3)
H6 H 0.8416 0.9906 0.6126
Co3_2 Co 0.00111(2) 0.75940(3) 0.42405(3)
H6_2 H 0.0094 0.8510 0.6126
N9_2 N 0.72429(10) 0.06281(17) 0.45639(16)
Co1_2 Co 0.75829(2) 0.75940(3) 0.42405(3)
N1_2 N 0.70493(9) 0.80129(13) 0.48228(18)
N2_2 N 0.85093(10) 0.80308(14) 0.49150(19)
N3_2 N 0.72429(10) 0.66148(14) 0.45639(16)
N4_2 N 0.75148(17) 0.76875(20) 0.26242(17)
C1_2 C 0.64358(13) 0.77084(18) 0.5225(3)
C2_2 C 0.73518(16) 0.86759(18) 0.4580(3)
C3_2 C 0.89201(10) 0.78402(14) 0.4471(3)
C4_2 C 0.86970(15) 0.84046(21) 0.5789(2)
C5_2 C 0.70863(11) 0.64545(19) 0.56215(19)
C6_2 C 0.71787(14) 0.61473(20) 0.3892(2)
C7_2 C 0.79853(12) 0.80853(22) 0.1951(2)
H1_2 H 0.6237 0.7268 0.5367
C8_2 C 0.6114(2) 0.80569(23) 0.5406(4)
O1_2 O 0.79176(13) 0.89588(14) 0.4165(2)
O2_2 O 0.87443(8) 0.74886(11) 0.3658(2)
H2_2 H 0.8416 0.8510 0.6126
C9_2 C 0.93022(14) 0.86044(20) 0.6222(4)
O3_2 O 0.71625(9) 0.68969(16) 0.62550(15)
C10_2 C 0.69421(14) 0.55089(18) 0.4234(2)
H3_2 H 0.7279 0.6243 0.3200
H4_2 H 0.8415 0.8345 0.2223
F1_2 F 0.54900(13) 0.77450(15) 0.5820(3)
F2_2 F 0.95023(11) 0.90046(16) 0.7105(3)
F3_2 F 0.68652(11) 0.50177(14) 0.35386(17)
C11_2 C 0.68788(19) 0.72985(22) 0.22882(19)
N5_2 N 0.70493(9) 0.90364(16) 0.48228(18)
N6_2 N 0.95215(10) 0.80308(14) 0.49150(19)
N7_2 N 0.68394(10) 0.58185(22) 0.59575(17)
C12_2 C 0.78244(18) 0.80999(23) 0.0901(2)
O4_2 O 0.64364(16) 0.69323(18) 0.29217(15)
N8_2 N 0.67185(14) 0.72948(17) 0.12306(16)
C13_2 C 0.64358(13) 0.87274(22) 0.5225(3)
C14_2 C 0.97076(14) 0.84046(21) 0.5789(2)
C15_2 C 0.67667(18) 0.53480(28) 0.5284(2)
Co4_2 Co 0.66778(2) 0.57504(4) 0.75738(3)
F4_2 F 0.83156(14) 0.85142(18) 0.02053(17)
C16_2 C 0.71860(20) 0.76981(24) 0.0559(2)
Co5_2 Co 0.57393(3) 0.66556(4) 0.09072(3)
H5_2 H 0.6237 0.8969 0.5367
N10_2 N 0.75148(17) 0.98273(26) 0.26242(17)
H7_2 H 0.6597 0.4918 0.5556
H8_2 H 0.7090 0.7703 0.9867
N2_3 N 0.19692(14) 0.04785(10) 0.49150(19)
N3_3 N 0.33852(14) 0.06281(10) 0.45639(16)
C3_3 C 0.21598(14) 0.10799(10) 0.4471(3)
C4_3 C 0.15954(21) 0.02924(14) 0.5789(2)
C5_3 C 0.35455(19) 0.06318(16) 0.56215(19)
C6_3 C 0.38527(20) 0.10314(14) 0.3892(2)
O2_3 O 0.25114(11) 0.12557(8) 0.3658(2)
C9_3 C 0.13956(20) 0.06978(14) 0.6222(4)
O3_3 O 0.31031(16) 0.02656(13) 0.62550(15)
C10_3 C 0.44911(18) 0.14332(12) 0.4234(2)
H3_3 H 0.3757 0.1036 0.3200
H4_3 H 0.1655 0.0070 0.2223
F2_3 F 0.09954(16) 0.04977(11) 0.7105(3)
F3_3 F 0.49823(14) 0.18475(9) 0.35386(17)
N7_3 N 0.41815(22) 0.10208(20) 0.59575(17)
C14_3 C 0.15954(21) 0.13030(15) 0.5789(2)
C15_3 C 0.46520(28) 0.14186(22) 0.5284(2)
Co4_3 Co 0.42496(4) 0.09273(3) 0.75738(3)
H6_3 H 0.1490 0.1584 0.6126
H7_3 H 0.5082 0.1678 0.5556
Co1_3 Co 0.24060(3) 0.99889(2) 0.42405(3)
N1_3 N 0.19871(13) 0.90364(10) 0.48228(18)
N4_3 N 0.23125(20) 0.98273(10) 0.26242(17)
C1_3 C 0.22916(18) 0.87274(12) 0.5225(3)
C2_3 C 0.13241(18) 0.86759(8) 0.4580(3)
C7_3 C 0.19147(22) 0.99000(18) 0.1951(2)
H1_3 H 0.2732 0.8969 0.5367
C8_3 C 0.19431(23) 0.80571(11) 0.5406(4)
O1_3 O 0.10412(14) 0.89588(6) 0.4165(2)
H2_3 H 0.1490 0.9906 0.6126
F1_3 F 0.22550(15) 0.77450(7) 0.5820(3)
C11_3 C 0.27015(22) 0.95804(11) 0.22882(19)
N5_3 N 0.09636(16) 0.80129(13) 0.48228(18)
C12_3 C 0.19001(23) 0.97246(14) 0.0901(2)
O4_3 O 0.30677(18) 0.95042(9) 0.29217(15)
N8_3 N 0.27052(17) 0.94238(10) 0.12306(16)
C13_3 C 0.12726(22) 0.77084(18) 0.5225(3)
F4_3 F 0.14858(18) 0.98015(11) 0.02053(17)
C16_3 C 0.23019(24) 0.94880(14) 0.0559(2)
Co5_3 Co 0.33444(4) 0.90838(2) 0.09072(3)
H5_3 H 0.1031 0.7268 0.5367
N10_3 N 0.01727(26) 0.76875(20) 0.26242(17)
H8_3 H 0.2297 0.9388 0.9867
N9_3 N 0.93719(17) 0.66148(14) 0.45639(16)
C5_4 C 0.35455(19) 0.29137(11) 0.56215(19)
C6_4 C 0.38527(20) 0.28213(14) 0.3892(2)
C7_4 C 0.19147(22) 0.20147(12) 0.1951(2)
O3_4 O 0.31031(16) 0.28375(9) 0.62550(15)
C10_4 C 0.44911(18) 0.30579(14) 0.4234(2)
H3_4 H 0.3757 0.2721 0.3200
H4_4 H 0.1655 0.1585 0.2223
F3_4 F 0.49823(14) 0.31348(11) 0.35386(17)
C11_4 C 0.27015(22) 0.31212(19) 0.22882(19)
N7_4 N 0.41815(22) 0.31606(10) 0.59575(17)
C12_4 C 0.19001(23) 0.21756(18) 0.0901(2)
O4_4 O 0.30677(18) 0.35636(16) 0.29217(15)
N8_4 N 0.27052(17) 0.32815(14) 0.12306(16)
C15_4 C 0.46520(28) 0.32333(18) 0.5284(2)
Co4_4 Co 0.42496(4) 0.33222(2) 0.75738(3)
F4_4 F 0.14858(18) 0.16844(14) 0.02053(17)
C16_4 C 0.23019(24) 0.28140(20) 0.0559(2)
Co5_4 Co 0.33444(4) 0.42607(3) 0.09072(3)
H7_4 H 0.5082 0.3403 0.5556
H8_4 H 0.2297 0.2910 0.9867
C7_5 C 0.01000(18) 0.80853(22) 0.1951(2)
C11_5 C 0.04196(11) 0.72985(22) 0.22882(19)
C12_5 C 0.02754(14) 0.80999(23) 0.0901(2)
O4_5 O 0.04958(9) 0.69323(18) 0.29217(15)
N8_5 N 0.05762(10) 0.72948(17) 0.12306(16)
F4_5 F 0.01985(11) 0.85142(18) 0.02053(17)
C16_5 C 0.05120(14) 0.76981(24) 0.0559(2)
Co5_5 Co 0.09162(2) 0.66556(4) 0.09072(3)
H8_5 H 0.0612 0.7703 0.9867
C5_5 C 0.93682(16) 0.64545(19) 0.56215(19)
C6_5 C 0.89686(14) 0.61473(20) 0.3892(2)
O3_5 O 0.97344(13) 0.68969(16) 0.62550(15)
C10_5 C 0.85668(12) 0.55089(18) 0.4234(2)
H3_5 H 0.8964 0.6243 0.3200
H4_5 H 0.9930 0.8345 0.2223
F3_5 F 0.81525(9) 0.50177(14) 0.35386(17)
N7_5 N 0.89792(20) 0.58185(22) 0.59575(17)
C15_5 C 0.85814(22) 0.53480(28) 0.5284(2)
Co4_5 Co 0.90727(3) 0.57504(4) 0.75738(3)
H7_5 H 0.8322 0.4918 0.5556
C5_6 C 0.70863(11) 0.06318(16) 0.56215(19)
C6_6 C 0.71787(14) 0.10314(14) 0.3892(2)
O3_6 O 0.71625(9) 0.02656(13) 0.62550(15)
C10_6 C 0.69421(14) 0.14332(12) 0.4234(2)
H3_6 H 0.7279 0.1036 0.3200
H4_6 H 0.8415 0.0070 0.2223
F3_6 F 0.68652(11) 0.18475(9) 0.35386(17)
N7_6 N 0.68394(10) 0.10208(20) 0.59575(17)
C15_6 C 0.67667(18) 0.14186(22) 0.5284(2)
Co4_6 Co 0.66778(2) 0.09273(3) 0.75738(3)
H7_6 H 0.6597 0.1678 0.5556
C7_6 C 0.79853(12) 0.99000(18) 0.1951(2)
C11_6 C 0.68788(19) 0.95804(11) 0.22882(19)
C12_6 C 0.78244(18) 0.97246(14) 0.0901(2)
O4_6 O 0.64364(16) 0.95042(9) 0.29217(15)
N8_6 N 0.67185(14) 0.94238(10) 0.12306(16)
F4_6 F 0.83156(14) 0.98015(11) 0.02053(17)
C16_6 C 0.71860(20) 0.94880(14) 0.0559(2)
Co5_6 Co 0.57393(3) 0.90838(2) 0.09072(3)
H8_6 H 0.7090 0.9388 0.9867
N9_4 N 0.00519(14) 0.60904(10) 0.78972(16)
F2_4 F 0.61690(11) 0.38310(11) 0.0438(3)
N1_4 N 0.76303(10) 0.62840(9) 0.81561(18)
N2_4 N 0.61882(10) 0.48240(10) 0.82483(19)
N3_4 N 0.60386(10) 0.60904(10) 0.78972(16)
C1_4 C 0.79393(12) 0.68975(13) 0.8558(3)
C2_4 C 0.79908(8) 0.59815(16) 0.7913(3)
C3_4 C 0.55868(10) 0.44132(10) 0.7804(3)
C4_4 C 0.63743(14) 0.46363(15) 0.9122(2)
C5_7 C 0.60349(16) 0.62470(11) 0.89548(19)
C6_7 C 0.56353(14) 0.61546(14) 0.7225(2)
H1_4 H 0.7698 0.7096 0.8700
C8_4 C 0.86096(11) 0.7219(2) 0.8739(4)
O1_4 O 0.77079(6) 0.54157(13) 0.7498(2)
O2_4 O 0.54110(8) 0.45890(8) 0.6991(2)
H2_4 H 0.6761 0.4917 0.9459
C9_4 C 0.59689(14) 0.40311(14) 0.9555(4)
O3_7 O 0.64011(13) 0.61708(9) 0.95883(15)
C10_7 C 0.52335(12) 0.63912(14) 0.7567(2)
H3_7 H 0.5631 0.6054 0.6533
F1_4 F 0.89217(7) 0.78433(13) 0.9153(3)
F3_7 F 0.48192(9) 0.64681(11) 0.68719(17)
N5_4 N 0.86538(13) 0.62840(9) 0.81561(18)
N6_3 N 0.51760(10) 0.38118(10) 0.82483(19)
N7_7 N 0.56458(20) 0.64940(10) 0.92909(17)
C13_4 C 0.89583(18) 0.68975(13) 0.8558(3)
C14_4 C 0.53637(15) 0.36257(14) 0.9122(2)
C15_7 C 0.52480(22) 0.65667(18) 0.8618(2)
H5_4 H 0.9399 0.7096 0.8700
N11_2 N 0.86359(14) 0.48240(10) 0.82483(19)
H6_4 H 0.5083 0.3239 0.9459
H7_7 H 0.4988 0.6737 0.8890
N1_5 N 0.37160(9) 0.13462(13) 0.81561(18)
N2_5 N 0.51760(10) 0.13641(14) 0.82483(19)
C1_5 C 0.31025(13) 0.10417(18) 0.8558(3)
C2_5 C 0.40185(16) 0.20092(18) 0.7913(3)
C3_5 C 0.55868(10) 0.11735(14) 0.7804(3)
C4_5 C 0.53637(15) 0.17379(21) 0.9122(2)
H1_5 H 0.2904 0.0601 0.8700
C8_5 C 0.2781(2) 0.13902(23) 0.8739(4)
O1_5 O 0.45843(13) 0.22921(14) 0.7498(2)
O2_5 O 0.54110(8) 0.08219(11) 0.6991(2)
H2_5 H 0.5083 0.1843 0.9459
C9_5 C 0.59689(14) 0.19377(20) 0.9555(4)
O3_8 O 0.38292(9) 0.02302(16) 0.95883(15)
F1_5 F 0.21567(13) 0.10783(15) 0.9153(3)
N5_5 N 0.37160(9) 0.23697(16) 0.81561(18)
N6_4 N 0.61882(10) 0.13641(14) 0.82483(19)
C13_5 C 0.31025(13) 0.20607(22) 0.8558(3)
C14_5 C 0.63743(14) 0.17379(21) 0.9122(2)
H5_5 H 0.2904 0.2302 0.8700
N9_5 N 0.39096(10) 0.39614(17) 0.78972(16)
H6_5 H 0.6761 0.1843 0.9459
N3_5 N 0.39096(10) 0.99481(14) 0.78972(16)
C5_8 C 0.37530(11) 0.97878(19) 0.89548(19)
C6_8 C 0.38454(14) 0.94806(20) 0.7225(2)
C10_8 C 0.36088(14) 0.88422(18) 0.7567(2)
H3_8 H 0.3946 0.9576 0.6533
F3_8 F 0.35319(11) 0.83510(14) 0.68719(17)
N7_8 N 0.35060(10) 0.91519(22) 0.92909(17)
C15_8 C 0.34333(18) 0.86814(28) 0.8618(2)
H7_8 H 0.3263 0.8252 0.8890
N3_6 N 0.00519(14) 0.39614(10) 0.78972(16)
C5_9 C 0.02122(19) 0.39651(16) 0.89548(19)
C6_9 C 0.05194(20) 0.43647(14) 0.7225(2)
C10_9 C 0.11578(18) 0.47665(12) 0.7567(2)
H3_9 H 0.0424 0.4369 0.6533
F3_9 F 0.16490(14) 0.51808(9) 0.68719(17)
N7_9 N 0.08481(22) 0.43542(20) 0.92909(17)
C15_9 C 0.13186(28) 0.47520(22) 0.8618(2)
H7_9 H 0.1748 0.5012 0.8890
N1_6 N 0.86538(13) 0.23697(10) 0.81561(18)
N2_6 N 0.86359(14) 0.38118(10) 0.82483(19)
C1_6 C 0.89583(18) 0.20607(12) 0.8558(3)
C2_6 C 0.79908(18) 0.20092(8) 0.7913(3)
C3_6 C 0.88265(14) 0.44132(10) 0.7804(3)
C4_6 C 0.82621(21) 0.36257(14) 0.9122(2)
H1_6 H 0.9399 0.2302 0.8700
C8_6 C 0.86098(23) 0.13904(11) 0.8739(4)
O1_6 O 0.77079(14) 0.22921(6) 0.7498(2)
O2_6 O 0.91781(11) 0.45890(8) 0.6991(2)
H2_6 H 0.8157 0.3239 0.9459
C9_6 C 0.80623(20) 0.40311(14) 0.9555(4)
O3_9 O 0.97698(16) 0.35989(13) 0.95883(15)
F1_6 F 0.89217(15) 0.10783(7) 0.9153(3)
N5_6 N 0.76303(16) 0.13462(13) 0.81561(18)
C13_6 C 0.79393(22) 0.10417(18) 0.8558(3)
C14_6 C 0.82621(21) 0.46363(15) 0.9122(2)
H5_6 H 0.7698 0.0601 0.8700
H6_6 H 0.8157 0.4917 0.9459
N9_6 N 0.60386(17) 0.99481(14) 0.78972(16)
C5_10 C 0.02122(19) 0.62470(11) 0.89548(19)
C6_10 C 0.05194(20) 0.61546(14) 0.7225(2)
C10_10 C 0.11578(18) 0.63912(14) 0.7567(2)
H3_10 H 0.0424 0.6054 0.6533
F3_10 F 0.16490(14) 0.64681(11) 0.68719(17)
N7_10 N 0.08481(22) 0.64940(10) 0.92909(17)
C15_10 C 0.13186(28) 0.65667(18) 0.8618(2)
H7_10 H 0.1748 0.6737 0.8890
O3_10 O 0.97698(16) 0.61708(9) 0.95883(15)
O3_11 O 0.64011(13) 0.02302(16) 0.95883(15)
C5_11 C 0.60349(16) 0.97878(19) 0.89548(19)
C6_11 C 0.56353(14) 0.94806(20) 0.7225(2)
C10_11 C 0.52335(12) 0.88422(18) 0.7567(2)
H3_11 H 0.5631 0.9576 0.6533
F3_11 F 0.48192(9) 0.83510(14) 0.68719(17)
N7_11 N 0.56458(20) 0.91519(22) 0.92909(17)
C15_11 C 0.52480(22) 0.86814(28) 0.8618(2)
H7_11 H 0.4988 0.8252 0.8890
C5_12 C 0.37530(11) 0.39651(16) 0.89548(19)
C6_12 C 0.38454(14) 0.43647(14) 0.7225(2)
O3_12 O 0.38292(9) 0.35989(13) 0.95883(15)
C10_12 C 0.36088(14) 0.47665(12) 0.7567(2)
H3_12 H 0.3946 0.4369 0.6533
F3_12 F 0.35319(11) 0.51808(9) 0.68719(17)
N7_12 N 0.35060(10) 0.43542(20) 0.92909(17)
C15_12 C 0.34333(18) 0.47520(22) 0.8618(2)
H7_12 H 0.3263 0.5012 0.8890
C1_7 C 0.46059(12) 0.02309(13) 0.1892(3)
H1_7 H 0.4364 0.0430 0.2034
C8_7 C 0.52762(11) 0.0553(2) 0.2073(4)
F1_7 F 0.55883(7) 0.11767(13) 0.2487(3)
C13_7 C 0.56249(18) 0.02309(13) 0.1892(3)
H5_7 H 0.6065 0.0430 0.2034
N1_7 N 0.42969(10) 0.96174(9) 0.14895(18)
N2_7 N 0.28548(10) 0.81574(10) 0.15817(19)
C2_7 C 0.46574(8) 0.93149(16) 0.1247(3)
C3_7 C 0.22534(10) 0.77466(10) 0.1138(3)
C4_7 C 0.30409(14) 0.79697(15) 0.2456(2)
O1_7 O 0.43745(6) 0.87491(13) 0.0832(2)
O2_7 O 0.20776(8) 0.79224(8) 0.0325(2)
H2_7 H 0.3427 0.8251 0.2793
C9_7 C 0.26355(14) 0.73645(14) 0.2889(4)
F2_5 F 0.28356(11) 0.71644(11) 0.3772(3)
N5_7 N 0.53204(13) 0.96174(9) 0.14895(18)
N6_5 N 0.18426(10) 0.71452(10) 0.15817(19)
C14_7 C 0.20303(15) 0.69591(14) 0.2456(2)
N11_3 N 0.53025(14) 0.81574(10) 0.15817(19)
H6_7 H 0.1749 0.6573 0.2793
N1_8 N 0.03826(9) 0.46796(13) 0.14895(18)
N2_8 N 0.18426(10) 0.46975(14) 0.15817(19)
C2_8 C 0.06851(16) 0.53426(18) 0.1247(3)
C3_8 C 0.22534(10) 0.45069(14) 0.1138(3)
C4_8 C 0.20303(15) 0.50713(21) 0.2456(2)
O1_8 O 0.12509(13) 0.56255(14) 0.0832(2)
O2_8 O 0.20776(8) 0.41553(11) 0.0325(2)
H2_8 H 0.1749 0.5177 0.2793
C9_8 C 0.26355(14) 0.52711(20) 0.2889(4)
F2_6 F 0.28356(11) 0.56713(16) 0.3772(3)
N5_8 N 0.03826(9) 0.57031(16) 0.14895(18)
N6_6 N 0.28548(10) 0.46975(14) 0.15817(19)
C14_8 C 0.30409(14) 0.50713(21) 0.2456(2)
H6_8 H 0.3427 0.5177 0.2793
C1_8 C 0.97691(13) 0.43751(18) 0.1892(3)
H1_8 H 0.9570 0.3935 0.2034
C8_8 C 0.9447(2) 0.47236(23) 0.2073(4)
F1_8 F 0.88233(13) 0.44117(15) 0.2487(3)
C13_8 C 0.97691(13) 0.53941(22) 0.1892(3)
H5_8 H 0.9570 0.5636 0.2034
N1_9 N 0.53204(13) 0.57031(10) 0.14895(18)
N2_9 N 0.53025(14) 0.71452(10) 0.15817(19)
C1_9 C 0.56249(18) 0.53941(12) 0.1892(3)
C2_9 C 0.46574(18) 0.53426(8) 0.1247(3)
C3_9 C 0.54931(14) 0.77466(10) 0.1138(3)
C4_9 C 0.49287(21) 0.69591(14) 0.2456(2)
H1_9 H 0.6065 0.5636 0.2034
C8_9 C 0.52764(23) 0.47238(11) 0.2073(4)
O1_9 O 0.43745(14) 0.56255(6) 0.0832(2)
O2_9 O 0.58447(11) 0.79224(8) 0.0325(2)
H2_9 H 0.4823 0.6573 0.2793
C9_9 C 0.47289(20) 0.73645(14) 0.2889(4)
F1_9 F 0.55883(15) 0.44117(7) 0.2487(3)
F2_7 F 0.43287(16) 0.71644(11) 0.3772(3)
N5_9 N 0.42969(16) 0.46796(13) 0.14895(18)
C13_9 C 0.46059(22) 0.43751(18) 0.1892(3)
C14_9 C 0.49287(21) 0.79697(15) 0.2456(2)
H5_9 H 0.4364 0.3935 0.2034
H6_9 H 0.4823 0.8251 0.2793
F2_8 F 0.61690(11) 0.23379(16) 0.0438(3)
F2_9 F 0.76621(16) 0.38310(11) 0.0438(3)
loop_
_geom_bond_atom_site_label_1
_geom_bond_atom_site_label_2
_geom_bond_site_symmetry_1
_geom_bond_site_symmetry_2
Co1 N1 1_555 1_555
N1 C1 1_555 1_555
N4 Co1 1_555 1_555
C1 H1 1_555 1_555
C2 N1 1_555 1_555
C7 N4 1_555 1_555
C8 C1 1_555 1_555
O1 C2 1_555 1_555
F1 C8 1_555 1_555
C11 N4 1_555 1_555
N5 C2 1_555 1_555
C12 C7 1_555 1_555
O4 C11 1_555 1_555
N8 C11 1_555 1_555
C13 C8 1_555 1_555
Co2 N5 1_555 1_555
F4 C12 1_555 1_555
C16 C12 1_555 1_555
Co5 N8 1_555 1_555
H5 C13 1_555 1_555
N9 Co2 1_555 1_555
N10 Co2 1_555 1_555
N11 Co2 1_555 1_555
N5 C13 1_555 1_555
N8 C16 1_555 1_555
C3 N2 1_555 1_555
C4 N2 1_555 1_555
C5 N3 1_555 1_555
C6 N3 1_555 1_555
O2 C3 1_555 1_555
C9 C4 1_555 1_555
O3 C5 1_555 1_555
C10 C6 1_555 1_555
H3 C6 1_555 1_555
F2 C9 1_555 1_555
F3 C10 1_555 1_555
N6 C3 1_555 1_555
N7 C5 1_555 1_555
C14 C9 1_555 1_555
C15 C10 1_555 1_555
Co4 N7 1_555 1_555
H7 C15 1_555 1_555
N6 C14 1_555 1_555
N7 C15 1_555 1_555
Co1_2 N1_2 1_555 1_555
N1_2 C1_2 1_555 1_555
N2_2 Co1_2 1_555 1_555
N3_2 Co1_2 1_555 1_555
N4_2 Co1_2 1_555 1_555
C1_2 H1_2 1_555 1_555
C2_2 N1_2 1_555 1_555
C3_2 N2_2 1_555 1_555
C4_2 N2_2 1_555 1_555
C5_2 N3_2 1_555 1_555
C6_2 N3_2 1_555 1_555
C7_2 N4_2 1_555 1_555
C8_2 C1_2 1_555 1_555
O1_2 C2_2 1_555 1_555
O2_2 C3_2 1_555 1_555
H2_2 C4_2 1_555 1_555
C9_2 C4_2 1_555 1_555
O3_2 C5_2 1_555 1_555
C10_2 C6_2 1_555 1_555
H3_2 C6_2 1_555 1_555
H4_2 C7_2 1_555 1_555
F1_2 C8_2 1_555 1_555
F2_2 C9_2 1_555 1_555
F3_2 C10_2 1_555 1_555
C11_2 N4_2 1_555 1_555
N5_2 C2_2 1_555 1_555
N6_2 C3_2 1_555 1_555
N7_2 C5_2 1_555 1_555
C12_2 C7_2 1_555 1_555
O4_2 C11_2 1_555 1_555
N8_2 C11_2 1_555 1_555
C13_2 C8_2 1_555 1_555
Co3 N5_2 1_555 1_555
C14_2 C9_2 1_555 1_555
C15_2 C10_2 1_555 1_555
Co4_2 N7_2 1_555 1_555
F4_2 C12_2 1_555 1_555
C16_2 C12_2 1_555 1_555
Co5_2 N8_2 1_555 1_555
H5_2 C13_2 1_555 1_555
N10_2 Co3 1_555 1_555
H7_2 C15_2 1_555 1_555
N5_2 C13_2 1_555 1_555
N6_2 C14_2 1_555 1_555
N7_2 C15_2 1_555 1_555
N8_2 C16_2 1_555 1_555
C3_3 N2_3 1_555 1_555
C4_3 N2_3 1_555 1_555
C5_3 N3_3 1_555 1_555
C6_3 N3_3 1_555 1_555
O2_3 C3_3 1_555 1_555
C9_3 C4_3 1_555 1_555
O3_3 C5_3 1_555 1_555
C10_3 C6_3 1_555 1_555
H3_3 C6_3 1_555 1_555
F2_3 C9_3 1_555 1_555
F3_3 C10_3 1_555 1_555
N11 C3_3 1_555 1_555
N7_3 C5_3 1_555 1_555
C14_3 C9_3 1_555 1_555
C15_3 C10_3 1_555 1_555
Co4_3 N7_3 1_555 1_555
H6_3 C14_3 1_555 1_555
H7_3 C15_3 1_555 1_555
N11 C14_3 1_555 1_555
N7_3 C15_3 1_555 1_555
Co1_3 N1_3 1_555 1_555
N1_3 C1_3 1_555 1_555
N4_3 Co1_3 1_555 1_555
C1_3 H1_3 1_555 1_555
C2_3 N1_3 1_555 1_555
C7_3 N4_3 1_555 1_555
C8_3 C1_3 1_555 1_555
O1_3 C2_3 1_555 1_555
F1_3 C8_3 1_555 1_555
C11_3 N4_3 1_555 1_555
N5_3 C2_3 1_555 1_555
C12_3 C7_3 1_555 1_555
O4_3 C11_3 1_555 1_555
N8_3 C11_3 1_555 1_555
C13_3 C8_3 1_555 1_555
Co3_2 N5_3 1_555 1_555
F4_3 C12_3 1_555 1_555
C16_3 C12_3 1_555 1_555
Co5_3 N8_3 1_555 1_555
H5_3 C13_3 1_555 1_555
N10_3 Co3_2 1_555 1_555
N5_3 C13_3 1_555 1_555
N8_3 C16_3 1_555 1_555
C5_4 N9 1_555 1_555
C6_4 N9 1_555 1_555
C7_4 N10 1_555 1_555
O3_4 C5_4 1_555 1_555
C10_4 C6_4 1_555 1_555
H3_4 C6_4 1_555 1_555
H4_4 C7_4 1_555 1_555
F3_4 C10_4 1_555 1_555
C11_4 N10 1_555 1_555
N7_4 C5_4 1_555 1_555
C12_4 C7_4 1_555 1_555
O4_4 C11_4 1_555 1_555
N8_4 C11_4 1_555 1_555
C15_4 C10_4 1_555 1_555
Co4_4 N7_4 1_555 1_555
F4_4 C12_4 1_555 1_555
C16_4 C12_4 1_555 1_555
Co5_4 N8_4 1_555 1_555
H7_4 C15_4 1_555 1_555
N7_4 C15_4 1_555 1_555
N8_4 C16_4 1_555 1_555
C7_5 N10_3 1_555 1_555
C11_5 N10_3 1_555 1_555
C12_5 C7_5 1_555 1_555
O4_5 C11_5 1_555 1_555
N8_5 C11_5 1_555 1_555
F4_5 C12_5 1_555 1_555
C16_5 C12_5 1_555 1_555
Co5_5 N8_5 1_555 1_555
N8_5 C16_5 1_555 1_555
C5_5 N9_3 1_555 1_555
C6_5 N9_3 1_555 1_555
O3_5 C5_5 1_555 1_555
C10_5 C6_5 1_555 1_555
H3_5 C6_5 1_555 1_555
F3_5 C10_5 1_555 1_555
N7_5 C5_5 1_555 1_555
C15_5 C10_5 1_555 1_555
Co4_5 N7_5 1_555 1_555
H7_5 C15_5 1_555 1_555
N7_5 C15_5 1_555 1_555
C5_6 N9_2 1_555 1_555
C6_6 N9_2 1_555 1_555
O3_6 C5_6 1_555 1_555
C10_6 C6_6 1_555 1_555
H3_6 C6_6 1_555 1_555
F3_6 C10_6 1_555 1_555
N7_6 C5_6 1_555 1_555
C15_6 C10_6 1_555 1_555
Co4_6 N7_6 1_555 1_555
H7_6 C15_6 1_555 1_555
N7_6 C15_6 1_555 1_555
C7_6 N10_2 1_555 1_555
C11_6 N10_2 1_555 1_555
C12_6 C7_6 1_555 1_555
O4_6 C11_6 1_555 1_555
N8_6 C11_6 1_555 1_555
F4_6 C12_6 1_555 1_555
C16_6 C12_6 1_555 1_555
Co5_6 N8_6 1_555 1_555
N8_6 C16_6 1_555 1_555
Co4_2 N1_4 1_555 1_555
N1_4 C1_4 1_555 1_555
N2_4 Co4_2 1_555 1_555
N3_4 Co4_2 1_555 1_555
C1_4 H1_4 1_555 1_555
C2_4 N1_4 1_555 1_555
C3_4 N2_4 1_555 1_555
C4_4 N2_4 1_555 1_555
C5_7 N3_4 1_555 1_555
C6_7 N3_4 1_555 1_555
C8_4 C1_4 1_555 1_555
O1_4 C2_4 1_555 1_555
O2_4 C3_4 1_555 1_555
H2_4 C4_4 1_555 1_555
C9_4 C4_4 1_555 1_555
O3_7 C5_7 1_555 1_555
C10_7 C6_7 1_555 1_555
H3_7 C6_7 1_555 1_555
F1_4 C8_4 1_555 1_555
F3_7 C10_7 1_555 1_555
N5_4 C2_4 1_555 1_555
N6_3 C3_4 1_555 1_555
N7_7 C5_7 1_555 1_555
C13_4 C8_4 1_555 1_555
Co4_5 N5_4 1_555 1_555
C14_4 C9_4 1_555 1_555
Co4_4 N6_3 1_555 1_555
C15_7 C10_7 1_555 1_555
H5_4 C13_4 1_555 1_555
N11_2 Co4_5 1_555 1_555
H6_4 C14_4 1_555 1_555
H7_7 C15_7 1_555 1_555
N5_4 C13_4 1_555 1_555
N6_3 C14_4 1_555 1_555
N7_7 C15_7 1_555 1_555
Co4_3 N1_5 1_555 1_555
N1_5 C1_5 1_555 1_555
N2_5 Co4_3 1_555 1_555
C1_5 H1_5 1_555 1_555
C2_5 N1_5 1_555 1_555
C3_5 N2_5 1_555 1_555
C4_5 N2_5 1_555 1_555
C8_5 C1_5 1_555 1_555
O1_5 C2_5 1_555 1_555
O2_5 C3_5 1_555 1_555
H2_5 C4_5 1_555 1_555
C9_5 C4_5 1_555 1_555
F1_5 C8_5 1_555 1_555
N5_5 C2_5 1_555 1_555
N6_4 C3_5 1_555 1_555
C13_5 C8_5 1_555 1_555
Co4_4 N5_5 1_555 1_555
C14_5 C9_5 1_555 1_555
Co4_6 N6_4 1_555 1_555
H5_5 C13_5 1_555 1_555
N9_5 Co4_4 1_555 1_555
H6_5 C14_5 1_555 1_555
N5_5 C13_5 1_555 1_555
N6_4 C14_5 1_555 1_555
C5_8 N3_5 1_555 1_555
C6_8 N3_5 1_555 1_555
C10_8 C6_8 1_555 1_555
H3_8 C6_8 1_555 1_555
F3_8 C10_8 1_555 1_555
N7_8 C5_8 1_555 1_555
C15_8 C10_8 1_555 1_555
H7_8 C15_8 1_555 1_555
N7_8 C15_8 1_555 1_555
C5_9 N3_6 1_555 1_555
C6_9 N3_6 1_555 1_555
C10_9 C6_9 1_555 1_555
H3_9 C6_9 1_555 1_555
F3_9 C10_9 1_555 1_555
N7_9 C5_9 1_555 1_555
C15_9 C10_9 1_555 1_555
H7_9 C15_9 1_555 1_555
N7_9 C15_9 1_555 1_555
Co4 N1_6 1_555 1_555
N1_6 C1_6 1_555 1_555
N2_6 Co4 1_555 1_555
C1_6 H1_6 1_555 1_555
C2_6 N1_6 1_555 1_555
C3_6 N2_6 1_555 1_555
C4_6 N2_6 1_555 1_555
C8_6 C1_6 1_555 1_555
O1_6 C2_6 1_555 1_555
O2_6 C3_6 1_555 1_555
H2_6 C4_6 1_555 1_555
C9_6 C4_6 1_555 1_555
F1_6 C8_6 1_555 1_555
N5_6 C2_6 1_555 1_555
N11_2 C3_6 1_555 1_555
C13_6 C8_6 1_555 1_555
Co4_6 N5_6 1_555 1_555
C14_6 C9_6 1_555 1_555
H5_6 C13_6 1_555 1_555
H6_6 C14_6 1_555 1_555
N5_6 C13_6 1_555 1_555
N11_2 C14_6 1_555 1_555
C5_10 N9_4 1_555 1_555
C6_10 N9_4 1_555 1_555
C10_10 C6_10 1_555 1_555
H3_10 C6_10 1_555 1_555
F3_10 C10_10 1_555 1_555
N7_10 C5_10 1_555 1_555
C15_10 C10_10 1_555 1_555
H7_10 C15_10 1_555 1_555
N7_10 C15_10 1_555 1_555
C5_11 N9_6 1_555 1_555
C6_11 N9_6 1_555 1_555
C10_11 C6_11 1_555 1_555
H3_11 C6_11 1_555 1_555
F3_11 C10_11 1_555 1_555
N7_11 C5_11 1_555 1_555
C15_11 C10_11 1_555 1_555
H7_11 C15_11 1_555 1_555
N7_11 C15_11 1_555 1_555
C5_12 N9_5 1_555 1_555
C6_12 N9_5 1_555 1_555
O3_12 C5_12 1_555 1_555
C10_12 C6_12 1_555 1_555
H3_12 C6_12 1_555 1_555
F3_12 C10_12 1_555 1_555
N7_12 C5_12 1_555 1_555
C15_12 C10_12 1_555 1_555
H7_12 C15_12 1_555 1_555
N7_12 C15_12 1_555 1_555
C1_7 H1_7 1_555 1_555
C8_7 C1_7 1_555 1_555
F1_7 C8_7 1_555 1_555
C13_7 C8_7 1_555 1_555
H5_7 C13_7 1_555 1_555
Co5_3 N1_7 1_555 1_555
N2_7 Co5_3 1_555 1_555
C2_7 N1_7 1_555 1_555
C3_7 N2_7 1_555 1_555
C4_7 N2_7 1_555 1_555
O1_7 C2_7 1_555 1_555
O2_7 C3_7 1_555 1_555
H2_7 C4_7 1_555 1_555
C9_7 C4_7 1_555 1_555
F2_5 C9_7 1_555 1_555
N5_7 C2_7 1_555 1_555
N6_5 C3_7 1_555 1_555
Co5_6 N5_7 1_555 1_555
C14_7 C9_7 1_555 1_555
Co5_5 N6_5 1_555 1_555
N11_3 Co5_6 1_555 1_555
H6_7 C14_7 1_555 1_555
N6_5 C14_7 1_555 1_555
Co5 N1_8 1_555 1_555
N2_8 Co5 1_555 1_555
C2_8 N1_8 1_555 1_555
C3_8 N2_8 1_555 1_555
C4_8 N2_8 1_555 1_555
O1_8 C2_8 1_555 1_555
O2_8 C3_8 1_555 1_555
H2_8 C4_8 1_555 1_555
C9_8 C4_8 1_555 1_555
F2_6 C9_8 1_555 1_555
N5_8 C2_8 1_555 1_555
N6_6 C3_8 1_555 1_555
Co5_5 N5_8 1_555 1_555
C14_8 C9_8 1_555 1_555
Co5_4 N6_6 1_555 1_555
H6_8 C14_8 1_555 1_555
N6_6 C14_8 1_555 1_555
C1_8 H1_8 1_555 1_555
C8_8 C1_8 1_555 1_555
F1_8 C8_8 1_555 1_555
C13_8 C8_8 1_555 1_555
H5_8 C13_8 1_555 1_555
Co5_2 N1_9 1_555 1_555
N1_9 C1_9 1_555 1_555
N2_9 Co5_2 1_555 1_555
C1_9 H1_9 1_555 1_555
C2_9 N1_9 1_555 1_555
C3_9 N2_9 1_555 1_555
C4_9 N2_9 1_555 1_555
C8_9 C1_9 1_555 1_555
O1_9 C2_9 1_555 1_555
O2_9 C3_9 1_555 1_555
H2_9 C4_9 1_555 1_555
C9_9 C4_9 1_555 1_555
F1_9 C8_9 1_555 1_555
F2_7 C9_9 1_555 1_555
N5_9 C2_9 1_555 1_555
N11_3 C3_9 1_555 1_555
C13_9 C8_9 1_555 1_555
Co5_4 N5_9 1_555 1_555
C14_9 C9_9 1_555 1_555
H5_9 C13_9 1_555 1_555
H6_9 C14_9 1_555 1_555
N5_9 C13_9 1_555 1_555
N11_3 C14_9 1_555 1_555

#END
