
###############################################################################
#
# This file contains modified crystal structure data generated from the
# MOF subset of the Cambridge Structural Database (CSD) v543 
# hosted by the Cambridge Crystallographic Data Centre (CCDC).
#
# This work is licensed under the Creative Commons
# Attribution-NonCommercial-ShareAlike 4.0 International License.
# To view a copy of this license, visit
# http://creativecommons.org/licenses/by-nc-sa/4.0/
# or send a letter to
# Creative Commons, PO Box 1866, Mountain View, CA 94042, USA.
#
# CIF created using the CSD Python API on 29 September 2022
# The structure has been converted into the P1 space group
# The structure has a 3D framework
# The original CSD entry OTOVIE is in the monoclinic crystal system
# The framework has been calculated to contain at least 10.0% void space
# The void calculation uses a probe of radius 1.32A, grid spacing 0.4
# H atom positions have been added when not included in the experimental data
#
###############################################################################

data_OTOVIE
_chemical_formula_moiety         '(C64 H40 Co10 F8 N8 O16)n'
_symmetry_cell_setting           triclinic
_symmetry_space_group_name_H-M   'P 1'
_symmetry_Int_Tables_number      1
_space_group_name_Hall           'P 1'
loop_
_symmetry_equiv_pos_site_id
_symmetry_equiv_pos_as_xyz
1 x,y,z
_cell_length_a                   9.7353(5)
_cell_length_b                   17.7435(7)
_cell_length_c                   11.7645(6)
_cell_angle_alpha                90
_cell_angle_beta                 104.070(5)
_cell_angle_gamma                90
_cell_volume                     1971.21
loop_
_atom_site_label
_atom_site_type_symbol
_atom_site_fract_x
_atom_site_fract_y
_atom_site_fract_z
C2 C 0.2004(2) 0.12162(13) 0.1379(2)
H2 H 0.2677 0.0856 0.1323
C3 C 0.2445(3) 0.18775(14) 0.1973(3)
C4 C 0.1512(2) 0.24511(13) 0.2064(2)
C5 C 0.0108(3) 0.22991(13) 0.1516(2)
C6 C 0.2059(2) 0.31430(13) 0.2688(2)
H3 H 0.3034 0.3210 0.2838
C7 C 0.2107(2) 0.43612(11) 0.36862(18)
C8 C 0.1354(2) 0.36855(13) 0.3065(2)
H4 H 0.0376 0.3648 0.2944
Co1 Co 0.0000 0.0000 0.0000
F1 F 0.3775(3) 0.19383(17) 0.2553(3)
N1 N 0.06453(19) 0.10770(10) 0.08829(17)
O1 O 0.34309(15) 0.43591(8) 0.39054(14)
O2 O 0.13607(16) 0.48890(8) 0.39211(14)
Co4 Co -0.0000 0.5000 0.5000
Co7 Co 0.5000 0.5000 0.5000
Co9 Co 0.5000 0.0000 0.0000
Co1_2 Co 0.0000 0.0000 1.0000
O12 O 0.13607(16) 0.01110(8) 0.89211(14)
Co9_2 Co 0.5000 0.0000 1.0000
Co1_3 Co -0.0000 1.0000 0.0000
C9 C 0.3108(3) 0.66100(14) 0.2267(2)
C10 C 0.4551(3) 0.66920(12) 0.4492(2)
H5 H 0.5051 0.6727 0.5272
C11 C 0.3589(3) 0.59705(13) 0.2896(2)
H6 H 0.3407 0.5502 0.2535
C12 C 0.3480(3) 0.86515(13) 0.2151(2)
H7 H 0.4349 0.8697 0.2692
C13 C 0.4097(3) 0.73479(13) 0.3894(2)
H8 H 0.4295 0.7810 0.4272
C14 C 0.3347(2) 0.73245(13) 0.2733(2)
C15 C 0.2885(2) 0.93200(11) 0.14220(18)
C16 C 0.2813(3) 0.80009(13) 0.2053(2)
H9 H 0.1942 0.7968 0.1513
F2 F 0.2390(2) 0.65315(10) 0.11354(16)
N2 N 0.4312(2) 0.60072(10) 0.40102(17)
O3 O 0.15583(15) 0.93794(8) 0.11514(14)
O4 O 0.37476(16) 0.97732(9) 0.11705(14)
O10 O 0.65691(15) 0.56409(8) 0.60946(14)
Co9_3 Co 0.5000 1.0000 0.0000
N5 N 0.5688(2) 0.39928(10) 0.59898(17)
O13 O 0.62524(16) 0.47732(9) 0.38295(14)
O14 O 0.37476(16) 0.52268(9) 0.61705(14)
Co1_4 Co -0.0000 1.0000 1.0000
C17 C 0.0284(2) 0.83810(13) 0.9035(2)
H10 H 0.1239 0.8468 0.9366
Co9_4 Co 0.5000 1.0000 1.0000
H20 H 0.0697242 0.727581 0.847857
C1 C 0.9716(2) 0.16190(13) 0.0965(2)
H1 H 0.8761 0.1532 0.0634
Co1_5 Co 1.0000 0.0000 0.0000
Co4_2 Co 1.0000 0.5000 0.5000
H19 H 0.930276 0.272419 0.152143
Co1_6 Co 1.0000 0.0000 1.0000
C25 C 0.6892(3) 0.33900(14) 0.7733(2)
C26 C 0.5449(3) 0.33080(12) 0.5508(2)
H14 H 0.4949 0.3273 0.4728
C27 C 0.6411(3) 0.40295(13) 0.7104(2)
H15 H 0.6593 0.4498 0.7465
C28 C 0.6520(3) 0.13485(13) 0.7849(2)
H16 H 0.5651 0.1303 0.7308
C29 C 0.5903(3) 0.26521(13) 0.6106(2)
H17 H 0.5705 0.2190 0.5728
C30 C 0.6653(2) 0.26755(13) 0.7267(2)
C31 C 0.7115(2) 0.06800(11) 0.85780(18)
C32 C 0.7187(3) 0.19991(13) 0.7947(2)
H18 H 0.8058 0.2032 0.8487
F4 F 0.7610(2) 0.34685(10) 0.88646(16)
O7 O 0.84417(15) 0.06206(8) 0.88486(14)
O8 O 0.62524(16) 0.02268(9) 0.88295(14)
Co1_7 Co 1.0000 1.0000 0.0000
O11 O 0.86393(16) 0.98890(8) 0.10789(14)
Co1_8 Co 1.0000 1.0000 1.0000
C18 C 0.7996(2) 0.87838(13) 0.8621(2)
H11 H 0.7323 0.9144 0.8677
C19 C 0.7555(3) 0.81225(14) 0.8027(3)
C20 C 0.8488(2) 0.75489(13) 0.7936(2)
C21 C 0.9892(3) 0.77009(13) 0.8484(2)
C22 C 0.7941(2) 0.68570(13) 0.7312(2)
H12 H 0.6966 0.6790 0.7162
C23 C 0.7893(2) 0.56388(11) 0.63138(18)
C24 C 0.8646(2) 0.63145(13) 0.6935(2)
H13 H 0.9624 0.6352 0.7056
F3 F 0.6225(3) 0.80617(17) 0.7447(3)
N3 N 0.93547(19) 0.89230(10) 0.91171(17)
O6 O 0.86393(16) 0.51110(8) 0.60789(14)
H14_2 H 0.5051 0.8273 0.0272
C1_2 C 0.0284(2) 0.66190(13) 0.4035(2)
H1_2 H 0.1239 0.6532 0.4366
C18_2 C 0.2004(2) 0.37838(13) 0.6379(2)
H11_2 H 0.2677 0.4144 0.6323
C19_2 C 0.2445(3) 0.31225(14) 0.6973(3)
C20_2 C 0.1512(2) 0.25489(13) 0.7064(2)
C21_2 C 0.0108(3) 0.27009(13) 0.6516(2)
C22_2 C 0.2059(2) 0.18570(13) 0.7688(2)
H12_2 H 0.3034 0.1790 0.7838
C23_2 C 0.2107(2) 0.06388(11) 0.86862(18)
C24_2 C 0.1354(2) 0.13145(13) 0.8065(2)
H13_2 H 0.0376 0.1352 0.7944
F3_2 F 0.3775(3) 0.30617(17) 0.7553(3)
N3_2 N 0.06453(19) 0.39230(10) 0.58829(17)
O5 O 0.34309(15) 0.06409(8) 0.89054(14)
C25_2 C 0.3108(3) 0.83900(14) 0.7267(2)
C26_2 C 0.4551(3) 0.83080(12) 0.9492(2)
C27_2 C 0.3589(3) 0.90295(13) 0.7896(2)
H15_2 H 0.3407 0.9498 0.7535
C28_2 C 0.3480(3) 0.63485(13) 0.7151(2)
H16_2 H 0.4349 0.6303 0.7692
C29_2 C 0.4097(3) 0.76521(13) 0.8894(2)
H17_2 H 0.4295 0.7190 0.9272
C30_2 C 0.3347(2) 0.76755(13) 0.7733(2)
C31_2 C 0.2885(2) 0.56800(11) 0.64220(18)
C32_2 C 0.2813(3) 0.69991(13) 0.7053(2)
H18_2 H 0.1942 0.7032 0.6513
F4_2 F 0.2390(2) 0.84685(10) 0.61354(16)
N4 N 0.4312(2) 0.89928(10) 0.90102(17)
O7_2 O 0.15583(15) 0.56206(8) 0.61514(14)
H19_2 H 0.0697242 0.772419 0.347857
C2_2 C 0.7996(2) 0.62162(13) 0.3621(2)
H2_2 H 0.7323 0.5856 0.3677
C3_2 C 0.7555(3) 0.68775(14) 0.3027(3)
C4_2 C 0.8488(2) 0.74511(13) 0.2936(2)
C5_2 C 0.9892(3) 0.72991(13) 0.3484(2)
C6_2 C 0.7941(2) 0.81430(13) 0.2312(2)
H3_2 H 0.6966 0.8210 0.2162
C7_2 C 0.7893(2) 0.93612(11) 0.13138(18)
C8_2 C 0.8646(2) 0.86855(13) 0.1935(2)
H4_2 H 0.9624 0.8648 0.2056
F1_2 F 0.6225(3) 0.69383(17) 0.2447(3)
N1_2 N 0.93547(19) 0.60770(10) 0.41171(17)
O1_2 O 0.65691(15) 0.93591(8) 0.10946(14)
C9_2 C 0.6892(3) 0.16100(14) 0.2733(2)
C10_2 C 0.5449(3) 0.16920(12) 0.0508(2)
C11_2 C 0.6411(3) 0.09705(13) 0.2104(2)
H6_2 H 0.6593 0.0502 0.2465
C12_2 C 0.6520(3) 0.36515(13) 0.2849(2)
H7_2 H 0.5651 0.3697 0.2308
C13_2 C 0.5903(3) 0.23479(13) 0.1106(2)
H8_2 H 0.5705 0.2810 0.0728
C14_2 C 0.6653(2) 0.23245(13) 0.2267(2)
C15_2 C 0.7115(2) 0.43200(11) 0.35780(18)
C16_2 C 0.7187(3) 0.30009(13) 0.2947(2)
H9_2 H 0.8058 0.2968 0.3487
F2_2 F 0.7610(2) 0.15315(10) 0.38646(16)
N2_2 N 0.5688(2) 0.10072(10) 0.09898(17)
O3_2 O 0.84417(15) 0.43794(8) 0.38486(14)
C17_2 C 0.9716(2) 0.33810(13) 0.5965(2)
H10_2 H 0.8761 0.3468 0.5634
H20_2 H 0.930276 0.227581 0.652143
H5_2 H 0.4949 0.1727 0.9728
loop_
_geom_bond_atom_site_label_1
_geom_bond_atom_site_label_2
_geom_bond_site_symmetry_1
_geom_bond_site_symmetry_2
C2 H2 1_555 1_555
C3 C2 1_555 1_555
C4 C3 1_555 1_555
C6 C4 1_555 1_555
H3 C6 1_555 1_555
C7 C8 1_555 1_555
C8 C6 1_555 1_555
H4 C8 1_555 1_555
Co1 N1 1_555 1_555
F1 C3 1_555 1_555
O1 C7 1_555 1_555
O2 C7 1_555 1_555
Co4 O2 1_555 1_555
Co7 O1 1_555 1_555
C2 N1 1_555 1_555
C4 C5 1_555 1_555
O12 Co1_2 1_555 1_555
C9 C11 1_555 1_555
C10 H5 1_555 1_555
C11 H6 1_555 1_555
C12 H7 1_555 1_555
C13 C10 1_555 1_555
H8 C13 1_555 1_555
C14 C9 1_555 1_555
C15 C12 1_555 1_555
C16 C12 1_555 1_555
H9 C16 1_555 1_555
Co7 N2 1_555 1_555
F2 C9 1_555 1_555
N2 C10 1_555 1_555
O3 Co1_3 1_555 1_555
O4 C15 1_555 1_555
O10 Co7 1_555 1_555
Co9_3 O4 1_555 1_555
N5 Co7 1_555 1_555
O13 Co7 1_555 1_555
O14 Co7 1_555 1_555
C11 N2 1_555 1_555
C13 C14 1_555 1_555
C14 C16 1_555 1_555
C15 O3 1_555 1_555
C17 H10 1_555 1_555
C1 H1 1_555 1_555
C25 C27 1_555 1_555
C26 H14 1_555 1_555
C27 H15 1_555 1_555
C28 H16 1_555 1_555
C29 C26 1_555 1_555
H17 C29 1_555 1_555
C30 C25 1_555 1_555
C31 C28 1_555 1_555
C32 C28 1_555 1_555
H18 C32 1_555 1_555
F4 C25 1_555 1_555
N5 C26 1_555 1_555
O7 Co1_6 1_555 1_555
O8 C31 1_555 1_555
Co9_2 O8 1_555 1_555
C27 N5 1_555 1_555
C29 C30 1_555 1_555
C30 C32 1_555 1_555
C31 O7 1_555 1_555
O11 Co1_7 1_555 1_555
C18 H11 1_555 1_555
C19 C18 1_555 1_555
C20 C19 1_555 1_555
C22 C20 1_555 1_555
H12 C22 1_555 1_555
C23 C24 1_555 1_555
C24 C22 1_555 1_555
H13 C24 1_555 1_555
F3 C19 1_555 1_555
N3 Co1_8 1_555 1_555
O10 C23 1_555 1_555
O6 C23 1_555 1_555
Co4_2 O6 1_555 1_555
C18 N3 1_555 1_555
C20 C21 1_555 1_555
C1_2 H1_2 1_555 1_555
C18_2 H11_2 1_555 1_555
C19_2 C18_2 1_555 1_555
C20_2 C19_2 1_555 1_555
C22_2 C20_2 1_555 1_555
H12_2 C22_2 1_555 1_555
C23_2 C24_2 1_555 1_555
C24_2 C22_2 1_555 1_555
H13_2 C24_2 1_555 1_555
F3_2 C19_2 1_555 1_555
N3_2 Co4 1_555 1_555
O5 C23_2 1_555 1_555
O12 C23_2 1_555 1_555
C25_2 C27_2 1_555 1_555
C27_2 H15_2 1_555 1_555
C28_2 H16_2 1_555 1_555
C29_2 C26_2 1_555 1_555
H17_2 C29_2 1_555 1_555
C30_2 C25_2 1_555 1_555
C31_2 C28_2 1_555 1_555
C32_2 C28_2 1_555 1_555
H18_2 C32_2 1_555 1_555
F4_2 C25_2 1_555 1_555
N4 C26_2 1_555 1_555
O7_2 Co4 1_555 1_555
O14 C31_2 1_555 1_555
Co9_2 O5 1_555 1_555
Co9_4 N4 1_555 1_555
C18_2 N3_2 1_555 1_555
C20_2 C21_2 1_555 1_555
C27_2 N4 1_555 1_555
C29_2 C30_2 1_555 1_555
C30_2 C32_2 1_555 1_555
C31_2 O7_2 1_555 1_555
C2_2 H2_2 1_555 1_555
C3_2 C2_2 1_555 1_555
C4_2 C3_2 1_555 1_555
C6_2 C4_2 1_555 1_555
H3_2 C6_2 1_555 1_555
C7_2 C8_2 1_555 1_555
C8_2 C6_2 1_555 1_555
H4_2 C8_2 1_555 1_555
Co4_2 N1_2 1_555 1_555
F1_2 C3_2 1_555 1_555
O1_2 C7_2 1_555 1_555
O11 C7_2 1_555 1_555
C9_2 C11_2 1_555 1_555
C11_2 H6_2 1_555 1_555
C12_2 H7_2 1_555 1_555
C13_2 C10_2 1_555 1_555
H8_2 C13_2 1_555 1_555
C14_2 C9_2 1_555 1_555
C15_2 C12_2 1_555 1_555
C16_2 C12_2 1_555 1_555
H9_2 C16_2 1_555 1_555
Co9 N2_2 1_555 1_555
F2_2 C9_2 1_555 1_555
N2_2 C10_2 1_555 1_555
O3_2 Co4_2 1_555 1_555
O13 C15_2 1_555 1_555
C17_2 H10_2 1_555 1_555
Co9_3 O1_2 1_555 1_555
C2_2 N1_2 1_555 1_555
C4_2 C5_2 1_555 1_555
C11_2 N2_2 1_555 1_555
C13_2 C14_2 1_555 1_555
C14_2 C16_2 1_555 1_555
C15_2 O3_2 1_555 1_555

#END
