
###############################################################################
#
# This file contains modified crystal structure data generated from the
# MOF subset of the Cambridge Structural Database (CSD) v543 
# hosted by the Cambridge Crystallographic Data Centre (CCDC).
#
# This work is licensed under the Creative Commons
# Attribution-NonCommercial-ShareAlike 4.0 International License.
# To view a copy of this license, visit
# http://creativecommons.org/licenses/by-nc-sa/4.0/
# or send a letter to
# Creative Commons, PO Box 1866, Mountain View, CA 94042, USA.
#
# CIF created using the CSD Python API on 29 September 2022
# The structure has been converted into the P1 space group
# The structure has a 3D framework
# The original CSD entry OTUDIS is in the hexagonal crystal system
# The original CSD entry OTUDIS is in a Sohncke space group
# The framework has been calculated to contain at least 10.0% void space
# The void calculation uses a probe of radius 1.32A, grid spacing 0.4
# H atom positions have been added when not included in the experimental data
# Generated hydrogen atom positions removed from atoms on special positions
#
###############################################################################

data_OTUDIS
_chemical_formula_moiety         '(C66 H48 K2 Mn6 Na2 O44)n'
_symmetry_cell_setting           triclinic
_symmetry_space_group_name_H-M   'P 1'
_symmetry_Int_Tables_number      1
_space_group_name_Hall           'P 1'
loop_
_symmetry_equiv_pos_site_id
_symmetry_equiv_pos_as_xyz
1 x,y,z
_cell_length_a                   20.4489(4)
_cell_length_b                   20.4489(4)
_cell_length_c                   10.3928(2)
_cell_angle_alpha                90
_cell_angle_beta                 90
_cell_angle_gamma                120
_cell_volume                     3763.6
loop_
_atom_site_label
_atom_site_type_symbol
_atom_site_fract_x
_atom_site_fract_y
_atom_site_fract_z
Mn1 Mn 0.619506(18) 0.165154(18) 0.49100(4)
O3 O 0.63410(13) 0.19155(11) 0.27162(18)
C5 C 0.57133(15) 0.01291(15) 0.1102(2)
C6 C 0.61766(14) 0.12377(13) 0.2565(2)
C7 C 0.61814(15) 0.13620(14) 0.0157(2)
H3 H 0.6396 0.1881 0.0256
C9 C 0.60371(14) 0.09113(14) 0.1238(2)
O6 O 0.61036(12) 0.08228(10) 0.35168(16)
K1 K 0.6667 0.3333 0.26643(9)
O8 O 0.6667 0.3333 0.0019(5)
O23 O 0.57586(9) 0.24126(9) 0.50266(19)
O25 O 0.75874(9) 0.33460(13) 0.50266(19)
O27 O 0.66540(13) 0.42414(9) 0.50266(19)
O28 O 0.48423(10) 0.09578(9) 0.46983(17)
O31 O 0.80845(11) 0.44255(17) 0.27162(18)
O32 O 0.55745(17) 0.36590(13) 0.27162(18)
O34 O 0.73742(10) 0.21776(16) 0.5176(2)
O36 O 0.59863(14) 0.11666(12) 0.67057(19)
C1 C 0.61570(15) 0.15359(16) 0.7757(3)
C4 C 0.56942(16) 0.02681(15) 0.8803(2)
H1 H 0.5587 0.0051 0.7988
C8 C 0.60130(15) 0.10543(15) 0.8939(2)
O7 O 0.64123(15) 0.22165(12) 0.7875(2)
Na4 Na 0.6667 0.3333 0.67752(14)
H22 H 0.616231 0.294438 0.970051
H23 H 0.678307 0.383769 0.970051
O1 O 0.42414(9) 0.75874(9) 0.00266(19)
C3 C 0.49281(15) 0.78042(13) 0.0116(2)
O4 O 0.51966(12) 0.73742(10) 0.0176(2)
H2 H 0.5616 0.9823 0.1821
C10 C 0.54985(18) 0.86399(16) 0.0227(5)
H4 H 0.5488 0.8729 0.1152
C11 C 0.6260(4) 0.8870(4) 0.0026(9)
H5 H 0.6560 0.9406 0.0140
H7 H 0.6416 0.8621 0.0633
Na1 Na 0.3333 0.6667 0.17752(14)
O9 O 0.24126(9) 0.66540(13) 0.00266(19)
C14 C 0.21958(13) 0.71239(20) 0.0116(2)
O12 O 0.26258(10) 0.78224(16) 0.0176(2)
H9 H 0.0177 0.5793 0.1821
C21 C 0.13601(16) 0.68586(24) 0.0227(5)
H11 H 0.1271 0.6759 0.1152
C22 C 0.1130(4) 0.7390(6) 0.0026(9)
H12 H 0.0594 0.7154 0.0140
H14 H 0.1379 0.7795 0.0633
Mn3 Mn 0.545648(25) 0.380494(18) 0.49100(4)
O16 O 0.33460(13) 0.57586(9) 0.00266(19)
C25 C 0.28761(20) 0.50719(15) 0.0116(2)
O19 O 0.21776(16) 0.48034(12) 0.0176(2)
C27 C 0.44158(21) 0.42867(15) 0.1102(2)
H16 H 0.4207 0.4384 0.1821
C28 C 0.50611(19) 0.38234(14) 0.2565(2)
C29 C 0.51806(21) 0.38186(15) 0.0157(2)
H17 H 0.5485 0.3604 0.0256
C31 C 0.48742(20) 0.39629(14) 0.1238(2)
O21 O 0.47192(16) 0.38964(12) 0.35168(16)
C32 C 0.31414(24) 0.45015(18) 0.0227(5)
H18 H 0.3241 0.4512 0.1152
C33 C 0.2610(6) 0.3740(4) 0.0026(9)
H19 H 0.2846 0.3440 0.0140
H21 H 0.2205 0.3584 0.0633
O30 O 0.61155(13) 0.51577(10) 0.46983(17)
O33 O 0.48034(12) 0.26258(10) 0.5176(2)
O38 O 0.51803(18) 0.40137(14) 0.67057(19)
O39 O 0.35877(15) 0.77835(12) 0.2875(2)
O40 O 0.22165(12) 0.58042(19) 0.2875(2)
O41 O 0.41958(19) 0.64123(15) 0.2875(2)
O2 O 0.51577(10) 0.90422(9) 0.96983(17)
C2 C 0.55401(12) 0.98188(11) 0.9881(3)
H6 H 0.6326 0.8739 0.9168
O10 O 0.09578(9) 0.61155(13) 0.96983(17)
C13 C 0.01812(11) 0.57213(16) 0.9881(3)
H13 H 0.1261 0.7587 0.9168
O17 O 0.38845(13) 0.48423(10) 0.96983(17)
C23 C 0.53789(22) 0.38430(15) 0.7757(3)
C24 C 0.42787(16) 0.44599(12) 0.9881(3)
C26 C 0.45739(22) 0.43058(16) 0.8803(2)
H15 H 0.4464 0.4413 0.7988
C30 C 0.50413(21) 0.39870(15) 0.8939(2)
O22 O 0.58042(19) 0.35877(15) 0.7875(2)
H20 H 0.2413 0.3674 0.9168
Mn7 Mn 0.380494(18) 0.834846(18) 0.99100(4)
Mn8 Mn 0.165154(18) 0.545648(25) 0.99100(4)
Mn9 Mn 0.454352(25) 0.619506(18) 0.99100(4)
K4 K 0.3333 0.6667 0.76643(9)
Mn2 Mn 0.834846(18) 0.454352(25) 0.49100(4)
C16 C 0.98709(15) 0.55842(21) 0.1102(2)
C17 C 0.87623(13) 0.49389(19) 0.2565(2)
C18 C 0.86380(14) 0.48194(21) 0.0157(2)
H10 H 0.8119 0.4515 0.0256
C20 C 0.90887(14) 0.51258(20) 0.1238(2)
O14 O 0.91772(10) 0.52808(16) 0.35168(16)
O29 O 0.90422(9) 0.38845(13) 0.46983(17)
O35 O 0.78224(16) 0.51966(12) 0.5176(2)
O37 O 0.88334(12) 0.48197(18) 0.67057(19)
C12 C 0.84641(16) 0.46211(22) 0.7757(3)
C15 C 0.97319(15) 0.54261(22) 0.8803(2)
H8 H 0.9949 0.5536 0.7988
C19 C 0.89457(15) 0.49587(21) 0.8939(2)
O15 O 0.77835(12) 0.41958(19) 0.7875(2)
H22_2 H 0.705562 0.321793 0.970051
O37_2 O 0.11666(12) 0.51803(18) 0.17057(19)
C12_2 C 0.15359(16) 0.53789(22) 0.2757(3)
C15_2 C 0.02681(15) 0.45739(22) 0.3803(2)
H8_2 H 0.0051 0.4464 0.2988
O11 O 0.19155(11) 0.55745(17) 0.77162(18)
C16_2 C 0.01291(15) 0.44158(21) 0.6102(2)
C17_2 C 0.12377(13) 0.50611(19) 0.7565(2)
C18_2 C 0.13620(14) 0.51806(21) 0.5157(2)
H10_2 H 0.1881 0.5485 0.5256
C19_2 C 0.10543(15) 0.50413(21) 0.3939(2)
C20_2 C 0.09113(14) 0.48742(20) 0.6238(2)
O14_2 O 0.08228(10) 0.47192(16) 0.85168(16)
O38_2 O 0.48197(18) 0.59863(14) 0.17057(19)
C2_2 C 0.44599(12) 0.01812(11) 0.4881(3)
C3_2 C 0.50719(15) 0.21958(13) 0.5116(2)
H2_2 H 0.4384 0.0177 0.6821
C10_2 C 0.45015(18) 0.13601(16) 0.5227(5)
H4_2 H 0.4512 0.1271 0.6152
C11_2 C 0.3740(4) 0.1130(4) 0.5026(9)
H5_2 H 0.3440 0.0594 0.5140
H6_2 H 0.3674 0.1261 0.4168
H7_2 H 0.3584 0.1379 0.5633
C13_2 C 0.98188(11) 0.42787(16) 0.4881(3)
C14_2 C 0.78042(13) 0.28761(20) 0.5116(2)
H9_2 H 0.9823 0.4207 0.6821
C21_2 C 0.86399(16) 0.31414(24) 0.5227(5)
H11_2 H 0.8729 0.3241 0.6152
C22_2 C 0.8870(4) 0.2610(6) 0.5026(9)
H12_2 H 0.9406 0.2846 0.5140
H13_2 H 0.8739 0.2413 0.4168
H14_2 H 0.8621 0.2205 0.5633
C23_2 C 0.46211(22) 0.61570(15) 0.2757(3)
C24_2 C 0.57213(16) 0.55401(12) 0.4881(3)
C25_2 C 0.71239(20) 0.49281(15) 0.5116(2)
C26_2 C 0.54261(22) 0.56942(16) 0.3803(2)
H15_2 H 0.5536 0.5587 0.2988
O18 O 0.44255(17) 0.63410(13) 0.77162(18)
C27_2 C 0.55842(21) 0.57133(15) 0.6102(2)
H16_2 H 0.5793 0.5616 0.6821
C28_2 C 0.49389(19) 0.61766(14) 0.7565(2)
C29_2 C 0.48194(21) 0.61814(15) 0.5157(2)
H17_2 H 0.4515 0.6396 0.5256
C30_2 C 0.49587(21) 0.60130(15) 0.3939(2)
C31_2 C 0.51258(20) 0.60371(14) 0.6238(2)
O21_2 O 0.52808(16) 0.61036(12) 0.85168(16)
C32_2 C 0.68586(24) 0.54985(18) 0.5227(5)
H18_2 H 0.6759 0.5488 0.6152
C33_2 C 0.7390(6) 0.6260(4) 0.5026(9)
H19_2 H 0.7154 0.6560 0.5140
H20_2 H 0.7587 0.6326 0.4168
H21_2 H 0.7795 0.6416 0.5633
O36_2 O 0.40137(14) 0.88334(12) 0.17057(19)
C1_2 C 0.38430(15) 0.84641(16) 0.2757(3)
C4_2 C 0.43058(16) 0.97319(15) 0.3803(2)
H1_2 H 0.4413 0.9949 0.2988
O3_2 O 0.36590(13) 0.80845(11) 0.77162(18)
C5_2 C 0.42867(15) 0.98709(15) 0.6102(2)
C6_2 C 0.38234(14) 0.87623(13) 0.7565(2)
C7_2 C 0.38186(15) 0.86380(14) 0.5157(2)
H3_2 H 0.3604 0.8119 0.5256
C8_2 C 0.39870(15) 0.89457(15) 0.3939(2)
C9_2 C 0.39629(14) 0.90887(14) 0.6238(2)
O6_2 O 0.38964(12) 0.91772(10) 0.85168(16)
O8_2 O 0.3333 0.6667 0.5019(5)
loop_
_geom_bond_atom_site_label_1
_geom_bond_atom_site_label_2
_geom_bond_site_symmetry_1
_geom_bond_site_symmetry_2
Mn1 O3 1_555 1_555
O3 C6 1_555 1_555
C6 C9 1_555 1_555
C7 H3 1_555 1_555
C9 C5 1_555 1_555
O6 Mn1 1_555 1_555
K1 O3 1_555 1_555
O8 K1 1_555 1_555
O23 Mn1 1_555 1_555
O25 K1 1_555 1_555
O27 K1 1_555 1_555
O28 Mn1 1_555 1_555
O31 K1 1_555 1_555
O32 K1 1_555 1_555
O34 Mn1 1_555 1_555
O36 Mn1 1_555 1_555
C6 O6 1_555 1_555
C7 C9 1_555 1_555
K1 O23 1_555 1_555
C1 C8 1_555 1_555
C4 H1 1_555 1_555
C8 C4 1_555 1_555
O36 C1 1_555 1_555
O7 C1 1_555 1_555
Na4 O7 1_555 1_555
O1 C3 1_555 1_555
C3 O4 1_555 1_555
H4 C10 1_555 1_555
C11 C10 1_555 1_555
H5 C11 1_555 1_555
H7 C11 1_555 1_555
Na1 O1 1_555 1_555
O9 Na1 1_555 1_555
C14 O9 1_555 1_555
O12 C14 1_555 1_555
H11 C21 1_555 1_555
C22 C21 1_555 1_555
H12 C22 1_555 1_555
H14 C22 1_555 1_555
Mn3 O32 1_555 1_555
O16 Na1 1_555 1_555
C25 O16 1_555 1_555
O32 C28 1_555 1_555
O19 C25 1_555 1_555
H16 C27 1_555 1_555
C28 C31 1_555 1_555
C29 H17 1_555 1_555
C31 C27 1_555 1_555
O21 Mn3 1_555 1_555
H18 C32 1_555 1_555
C33 C32 1_555 1_555
H19 C33 1_555 1_555
H21 C33 1_555 1_555
O27 Mn3 1_555 1_555
O30 Mn3 1_555 1_555
O33 Mn3 1_555 1_555
O38 Mn3 1_555 1_555
O39 Na1 1_555 1_555
O40 Na1 1_555 1_555
O41 Na1 1_555 1_555
C3 C10 1_555 1_555
C14 C21 1_555 1_555
C25 C32 1_555 1_555
C28 O21 1_555 1_555
C29 C31 1_555 1_555
O2 C2 1_555 1_555
O10 C13 1_555 1_555
O17 C24 1_555 1_555
C23 C30 1_555 1_555
C24 C26 1_555 1_555
C26 H15 1_555 1_555
C30 C26 1_555 1_555
O38 C23 1_555 1_555
O22 C23 1_555 1_555
Na4 O22 1_555 1_555
O2 Mn7 1_555 1_555
O10 Mn8 1_555 1_555
O17 Mn9 1_555 1_555
Mn2 O31 1_555 1_555
O31 C17 1_555 1_555
C17 C20 1_555 1_555
C18 H10 1_555 1_555
C20 C16 1_555 1_555
O14 Mn2 1_555 1_555
O25 Mn2 1_555 1_555
O29 Mn2 1_555 1_555
O35 Mn2 1_555 1_555
O37 Mn2 1_555 1_555
C17 O14 1_555 1_555
C18 C20 1_555 1_555
C12 C19 1_555 1_555
C15 H8 1_555 1_555
C19 C15 1_555 1_555
O37 C12 1_555 1_555
O15 C12 1_555 1_555
Na4 O15 1_555 1_555
Mn8 O11 1_555 1_555
C12_2 C19_2 1_555 1_555
C15_2 H8_2 1_555 1_555
O11 C17_2 1_555 1_555
C17_2 C20_2 1_555 1_555
C18_2 H10_2 1_555 1_555
C19_2 C15_2 1_555 1_555
O37_2 C12_2 1_555 1_555
C20_2 C16_2 1_555 1_555
O14_2 Mn8 1_555 1_555
O40 C12_2 1_555 1_555
K4 O11 1_555 1_555
C17_2 O14_2 1_555 1_555
C18_2 C19_2 1_555 1_555
C18_2 C20_2 1_555 1_555
O23 C3_2 1_555 1_555
O28 C2_2 1_555 1_555
C3_2 O33 1_555 1_555
C10_2 O28 1_555 1_555
H4_2 C10_2 1_555 1_555
C11_2 C10_2 1_555 1_555
H5_2 C11_2 1_555 1_555
H6_2 C11_2 1_555 1_555
H7_2 C11_2 1_555 1_555
Na4 O23 1_555 1_555
O25 Na4 1_555 1_555
O29 C13_2 1_555 1_555
C14_2 O25 1_555 1_555
O34 C14_2 1_555 1_555
C21_2 O29 1_555 1_555
H11_2 C21_2 1_555 1_555
C22_2 C21_2 1_555 1_555
H12_2 C22_2 1_555 1_555
H13_2 C22_2 1_555 1_555
H14_2 C22_2 1_555 1_555
Mn9 O18 1_555 1_555
O27 Na4 1_555 1_555
O30 C24_2 1_555 1_555
C23_2 C30_2 1_555 1_555
C24_2 C26_2 1_555 1_555
C25_2 O27 1_555 1_555
C26_2 H15_2 1_555 1_555
O18 C28_2 1_555 1_555
O35 C25_2 1_555 1_555
C27_2 C24_2 1_555 1_555
H16_2 C27_2 1_555 1_555
C28_2 C31_2 1_555 1_555
C29_2 H17_2 1_555 1_555
C30_2 C26_2 1_555 1_555
O38_2 C23_2 1_555 1_555
C31_2 C27_2 1_555 1_555
O21_2 Mn9 1_555 1_555
O41 C23_2 1_555 1_555
C32_2 O30 1_555 1_555
H18_2 C32_2 1_555 1_555
C33_2 C32_2 1_555 1_555
H19_2 C33_2 1_555 1_555
H20_2 C33_2 1_555 1_555
H21_2 C33_2 1_555 1_555
K4 O18 1_555 1_555
C3_2 C10_2 1_555 1_555
C14_2 C21_2 1_555 1_555
C25_2 C32_2 1_555 1_555
C28_2 O21_2 1_555 1_555
C29_2 C30_2 1_555 1_555
C29_2 C31_2 1_555 1_555
Mn7 O3_2 1_555 1_555
C1_2 C8_2 1_555 1_555
C4_2 H1_2 1_555 1_555
O3_2 C6_2 1_555 1_555
C6_2 C9_2 1_555 1_555
C7_2 H3_2 1_555 1_555
C8_2 C4_2 1_555 1_555
O36_2 C1_2 1_555 1_555
C9_2 C5_2 1_555 1_555
O6_2 Mn7 1_555 1_555
O39 C1_2 1_555 1_555
K4 O3_2 1_555 1_555
O8_2 K4 1_555 1_555
C6_2 O6_2 1_555 1_555
C7_2 C8_2 1_555 1_555
C7_2 C9_2 1_555 1_555

#END
