
###############################################################################
#
# This file contains modified crystal structure data generated from the
# MOF subset of the Cambridge Structural Database (CSD) v543 
# hosted by the Cambridge Crystallographic Data Centre (CCDC).
#
# This work is licensed under the Creative Commons
# Attribution-NonCommercial-ShareAlike 4.0 International License.
# To view a copy of this license, visit
# http://creativecommons.org/licenses/by-nc-sa/4.0/
# or send a letter to
# Creative Commons, PO Box 1866, Mountain View, CA 94042, USA.
#
# CIF created using the CSD Python API on 29 September 2022
# The structure has been converted into the P1 space group
# The structure has a 3D framework
# The original CSD entry OTUDEO is in the hexagonal crystal system
# The original CSD entry OTUDEO is in a Sohncke space group
# The framework has been calculated to contain at least 10.0% void space
# The void calculation uses a probe of radius 1.32A, grid spacing 0.4
# H atom positions have been added when not included in the experimental data
# Generated hydrogen atom positions removed from atoms on special positions
#
###############################################################################

data_OTUDEO
_chemical_formula_moiety         '(C66 H48 K2 Mn6 Na1 O41)n'
_symmetry_cell_setting           triclinic
_symmetry_space_group_name_H-M   'P 1'
_symmetry_Int_Tables_number      1
_space_group_name_Hall           'P 1'
loop_
_symmetry_equiv_pos_site_id
_symmetry_equiv_pos_as_xyz
1 x,y,z
_cell_length_a                   20.4751(3)
_cell_length_b                   20.4751(3)
_cell_length_c                   10.4075(2)
_cell_angle_alpha                90
_cell_angle_beta                 90
_cell_angle_gamma                120
_cell_volume                     3778.58
loop_
_atom_site_label
_atom_site_type_symbol
_atom_site_fract_x
_atom_site_fract_y
_atom_site_fract_z
O5 O 0.59971(13) 0.11777(12) 0.03277(18)
Na1 Na 0.6667 0.3333 0.02826(16)
Mn5 Mn 0.620284(18) 0.165342(18) 0.21282(4)
O23 O 0.57649(9) 0.24096(8) 0.19959(19)
O24 O 0.75904(8) 0.33553(12) 0.19959(19)
O25 O 0.66447(12) 0.42351(9) 0.19959(19)
C2 C 0.61539(14) 0.15371(15) 0.9276(3)
C3 C 0.60076(15) 0.10543(14) 0.8090(2)
O4 O 0.63338(13) 0.19156(11) 0.43195(19)
C4 C 0.56827(16) 0.02725(15) 0.8225(2)
H1 H 0.5570 0.0057 0.9040
C5 C 0.57070(15) 0.01362(15) 0.5929(2)
C7 C 0.60310(15) 0.09121(14) 0.5797(2)
C8 C 0.61721(15) 0.13651(13) 0.6875(2)
H3 H 0.6380 0.1883 0.6775
C9 C 0.61775(14) 0.12455(13) 0.4478(3)
O6 O 0.61117(12) 0.08281(11) 0.35269(17)
O7 O 0.64057(14) 0.22188(12) 0.9158(2)
O35 O 0.77812(12) 0.41869(18) 0.9158(2)
O36 O 0.58131(18) 0.35943(14) 0.9158(2)
K4 K 0.6667 0.3333 0.43620(10)
O8 O 0.3333 0.6667 0.2035(5)
O20 O 0.51806(18) 0.40029(13) 0.03277(18)
Mn9 Mn 0.545058(25) 0.379716(18) 0.21282(4)
Mn1 Mn 0.379716(18) 0.834658(18) 0.71282(4)
O1 O 0.42351(9) 0.75904(8) 0.69959(19)
C1 C 0.49204(14) 0.78096(13) 0.6910(2)
O2 O 0.51925(12) 0.73846(10) 0.6863(2)
O3 O 0.51498(10) 0.90452(9) 0.73422(16)
H2 H 0.5610 0.9831 0.5210
C6 C 0.55295(12) 0.98215(11) 0.7158(3)
C10 C 0.54854(17) 0.86457(16) 0.6784(5)
H4 H 0.5476 0.8738 0.5863
C11 C 0.6262(4) 0.8876(4) 0.7013(8)
H5 H 0.6566 0.9412 0.6895
H6 H 0.6420 0.8623 0.6421
H7 H 0.6320 0.8749 0.7877
K1 K 0.3333 0.6667 0.93620(10)
Mn2 Mn 0.165342(18) 0.545058(25) 0.71282(4)
O9 O 0.24096(8) 0.66447(12) 0.69959(19)
C12 C 0.21904(13) 0.71108(19) 0.6910(2)
O10 O 0.26154(10) 0.78079(16) 0.6863(2)
O11 O 0.09548(9) 0.61046(13) 0.73422(16)
H9 H 0.0169 0.5779 0.5210
C17 C 0.01785(11) 0.57080(16) 0.7158(3)
C21 C 0.13543(16) 0.68397(23) 0.6784(5)
H11 H 0.1262 0.6738 0.5863
C22 C 0.1124(4) 0.7386(6) 0.7013(8)
H12 H 0.0588 0.7154 0.6895
H13 H 0.1377 0.7797 0.6421
H14 H 0.1251 0.7571 0.7877
Mn3 Mn 0.454942(25) 0.620284(18) 0.71282(4)
O16 O 0.33553(12) 0.57649(9) 0.69959(19)
C23 C 0.28892(19) 0.50796(14) 0.6910(2)
O17 O 0.21921(16) 0.48075(12) 0.6863(2)
O18 O 0.38954(13) 0.48502(10) 0.73422(16)
C24 C 0.53832(21) 0.38461(14) 0.9276(3)
C25 C 0.50467(21) 0.39924(15) 0.8090(2)
O19 O 0.55818(17) 0.36662(13) 0.43195(19)
C26 C 0.45898(22) 0.43173(16) 0.8225(2)
H15 H 0.4487 0.4430 0.9040
C27 C 0.44292(21) 0.42930(15) 0.5929(2)
H16 H 0.4221 0.4390 0.5210
C28 C 0.42920(16) 0.44705(12) 0.7158(3)
C29 C 0.48811(21) 0.39690(15) 0.5797(2)
C30 C 0.51930(20) 0.38279(15) 0.6875(2)
H17 H 0.5503 0.3620 0.6775
C31 C 0.50680(19) 0.38225(14) 0.4478(3)
O21 O 0.47164(16) 0.38883(12) 0.35269(17)
C32 C 0.31603(23) 0.45146(17) 0.6784(5)
H18 H 0.3262 0.4524 0.5863
C33 C 0.2614(6) 0.3738(4) 0.7013(8)
H19 H 0.2846 0.3434 0.6895
H20 H 0.2203 0.3580 0.6421
H21 H 0.2429 0.3680 0.7877
O26 O 0.36662(13) 0.80844(11) 0.93195(19)
O27 O 0.19156(11) 0.55818(17) 0.93195(19)
O28 O 0.44182(17) 0.63338(13) 0.93195(19)
O29 O 0.40029(13) 0.88223(12) 0.53277(18)
O30 O 0.11777(12) 0.51806(18) 0.53277(18)
O31 O 0.48194(18) 0.59971(13) 0.53277(18)
O32 O 0.38883(12) 0.91719(11) 0.85269(17)
O33 O 0.08281(11) 0.47164(16) 0.85269(17)
O34 O 0.52836(16) 0.61117(12) 0.85269(17)
Na4 Na 0.3333 0.6667 0.52826(16)
O13 O 0.88223(12) 0.48194(18) 0.03277(18)
Mn7 Mn 0.834658(18) 0.454942(25) 0.21282(4)
C13 C 0.84629(15) 0.46168(21) 0.9276(3)
C14 C 0.89457(14) 0.49533(21) 0.8090(2)
O12 O 0.80844(11) 0.44182(17) 0.43195(19)
C15 C 0.97275(15) 0.54102(22) 0.8225(2)
H8 H 0.9943 0.5513 0.9040
C16 C 0.98638(15) 0.55708(21) 0.5929(2)
C18 C 0.90879(14) 0.51189(21) 0.5797(2)
C19 C 0.86349(13) 0.48070(20) 0.6875(2)
H10 H 0.8117 0.4497 0.6775
C20 C 0.87545(13) 0.49320(19) 0.4478(3)
O14 O 0.91719(11) 0.52836(16) 0.35269(17)
C13_2 C 0.15371(15) 0.53832(21) 0.4276(3)
C14_2 C 0.10543(14) 0.50467(21) 0.3090(2)
C15_2 C 0.02725(15) 0.45898(22) 0.3225(2)
H8_2 H 0.0057 0.4487 0.4040
C16_2 C 0.01362(15) 0.44292(21) 0.0929(2)
C18_2 C 0.09121(14) 0.48811(21) 0.0797(2)
C19_2 C 0.13651(13) 0.51930(20) 0.1875(2)
H10_2 H 0.1883 0.5503 0.1775
O15 O 0.22188(12) 0.58131(18) 0.4158(2)
C20_2 C 0.12455(13) 0.50680(19) 0.9478(3)
C1_2 C 0.50796(14) 0.21904(13) 0.1910(2)
O2_2 O 0.48075(12) 0.26154(10) 0.1863(2)
O3_2 O 0.48502(10) 0.09548(9) 0.23422(16)
H2_2 H 0.4390 0.0169 0.0210
C6_2 C 0.44705(12) 0.01785(11) 0.2158(3)
C10_2 C 0.45146(17) 0.13543(16) 0.1784(5)
H4_2 H 0.4524 0.1262 0.0863
C11_2 C 0.3738(4) 0.1124(4) 0.2013(8)
H5_2 H 0.3434 0.0588 0.1895
H6_2 H 0.3580 0.1377 0.1421
H7_2 H 0.3680 0.1251 0.2877
O8_2 O 0.6667 0.3333 0.7035(5)
C12_2 C 0.78096(13) 0.28892(19) 0.1910(2)
O10_2 O 0.73846(10) 0.21921(16) 0.1863(2)
O11_2 O 0.90452(9) 0.38954(13) 0.23422(16)
H9_2 H 0.9831 0.4221 0.0210
C17_2 C 0.98215(11) 0.42920(16) 0.2158(3)
C21_2 C 0.86457(16) 0.31603(23) 0.1784(5)
H11_2 H 0.8738 0.3262 0.0863
C22_2 C 0.8876(4) 0.2614(6) 0.2013(8)
H12_2 H 0.9412 0.2846 0.1895
H13_2 H 0.8623 0.2203 0.1421
H14_2 H 0.8749 0.2429 0.2877
C23_2 C 0.71108(19) 0.49204(14) 0.1910(2)
O17_2 O 0.78079(16) 0.51925(12) 0.1863(2)
O18_2 O 0.61046(13) 0.51498(10) 0.23422(16)
C24_2 C 0.46168(21) 0.61539(14) 0.4276(3)
C25_2 C 0.49533(21) 0.60076(15) 0.3090(2)
C26_2 C 0.54102(22) 0.56827(16) 0.3225(2)
H15_2 H 0.5513 0.5570 0.4040
C27_2 C 0.55708(21) 0.57070(15) 0.0929(2)
H16_2 H 0.5779 0.5610 0.0210
C28_2 C 0.57080(16) 0.55295(12) 0.2158(3)
C29_2 C 0.51189(21) 0.60310(15) 0.0797(2)
C30_2 C 0.48070(20) 0.61721(15) 0.1875(2)
H17_2 H 0.4497 0.6380 0.1775
O22 O 0.41869(18) 0.64057(14) 0.4158(2)
C32_2 C 0.68397(23) 0.54854(17) 0.1784(5)
H18_2 H 0.6738 0.5476 0.0863
C33_2 C 0.7386(6) 0.6262(4) 0.2013(8)
H19_2 H 0.7154 0.6566 0.1895
H20_2 H 0.7797 0.6420 0.1421
H21_2 H 0.7571 0.6320 0.2877
C31_2 C 0.49320(19) 0.61775(14) 0.9478(3)
C2_2 C 0.38461(14) 0.84629(15) 0.4276(3)
C3_2 C 0.39924(15) 0.89457(14) 0.3090(2)
C4_2 C 0.43173(16) 0.97275(15) 0.3225(2)
H1_2 H 0.4430 0.9943 0.4040
C5_2 C 0.42930(15) 0.98638(15) 0.0929(2)
C7_2 C 0.39690(15) 0.90879(14) 0.0797(2)
C8_2 C 0.38279(15) 0.86349(13) 0.1875(2)
H3_2 H 0.3620 0.8117 0.1775
O7_2 O 0.35943(14) 0.77812(12) 0.4158(2)
C9_2 C 0.38225(14) 0.87545(13) 0.9478(3)
loop_
_geom_bond_atom_site_label_1
_geom_bond_atom_site_label_2
_geom_bond_site_symmetry_1
_geom_bond_site_symmetry_2
Mn5 O5 1_555 1_555
O23 Na1 1_555 1_555
O24 Na1 1_555 1_555
O25 Na1 1_555 1_555
Mn5 O23 1_555 1_555
C2 C3 1_555 1_555
C3 C4 1_555 1_555
O4 C9 1_555 1_555
C4 H1 1_555 1_555
C7 C5 1_555 1_555
C8 C3 1_555 1_555
H3 C8 1_555 1_555
C9 C7 1_555 1_555
O6 C9 1_555 1_555
O7 C2 1_555 1_555
Mn5 O4 1_555 1_555
K4 O4 1_555 1_555
C7 C8 1_555 1_555
O6 Mn5 1_555 1_555
Mn9 O20 1_555 1_555
Mn1 O1 1_555 1_555
O1 C1 1_555 1_555
C1 O2 1_555 1_555
O2 Mn3 1_555 1_555
O3 Mn1 1_555 1_555
C6 O3 1_555 1_555
C10 C1 1_555 1_555
H4 C10 1_555 1_555
C11 C10 1_555 1_555
H5 C11 1_555 1_555
H6 C11 1_555 1_555
H7 C11 1_555 1_555
K1 O1 1_555 1_555
Mn2 O9 1_555 1_555
O9 K1 1_555 1_555
C12 O9 1_555 1_555
O10 Mn1 1_555 1_555
O11 Mn2 1_555 1_555
C17 O11 1_555 1_555
C21 C12 1_555 1_555
H11 C21 1_555 1_555
C22 C21 1_555 1_555
H12 C22 1_555 1_555
H13 C22 1_555 1_555
H14 C22 1_555 1_555
Mn3 O16 1_555 1_555
O16 K1 1_555 1_555
C23 O16 1_555 1_555
O17 Mn2 1_555 1_555
O18 Mn3 1_555 1_555
C24 C25 1_555 1_555
C25 C26 1_555 1_555
O19 C31 1_555 1_555
C26 H15 1_555 1_555
C27 H16 1_555 1_555
C28 O18 1_555 1_555
C29 C27 1_555 1_555
C30 C25 1_555 1_555
H17 C30 1_555 1_555
C31 C29 1_555 1_555
O21 C31 1_555 1_555
O36 C24 1_555 1_555
C32 C23 1_555 1_555
H18 C32 1_555 1_555
C33 C32 1_555 1_555
H19 C33 1_555 1_555
H20 C33 1_555 1_555
H21 C33 1_555 1_555
Mn9 O19 1_555 1_555
O26 Mn1 1_555 1_555
O27 K1 1_555 1_555
O28 K1 1_555 1_555
O29 Mn1 1_555 1_555
O30 Mn2 1_555 1_555
O31 Mn3 1_555 1_555
O32 Mn1 1_555 1_555
O33 Mn2 1_555 1_555
O34 Mn3 1_555 1_555
Na4 O1 1_555 1_555
K4 O19 1_555 1_555
O3 C10 1_555 1_555
K1 O26 1_555 1_555
Mn2 O27 1_555 1_555
O9 Na4 1_555 1_555
C12 O10 1_555 1_555
O11 C21 1_555 1_555
Mn3 O28 1_555 1_555
O16 Na4 1_555 1_555
C23 O17 1_555 1_555
O18 C32 1_555 1_555
C26 C28 1_555 1_555
C27 C28 1_555 1_555
C29 C30 1_555 1_555
O21 Mn9 1_555 1_555
Mn7 O13 1_555 1_555
C13 C14 1_555 1_555
C14 C15 1_555 1_555
O12 C20 1_555 1_555
C15 H8 1_555 1_555
C18 C16 1_555 1_555
C19 C14 1_555 1_555
H10 C19 1_555 1_555
C20 C18 1_555 1_555
O14 C20 1_555 1_555
O35 C13 1_555 1_555
Mn7 O12 1_555 1_555
K4 O12 1_555 1_555
C18 C19 1_555 1_555
O14 Mn7 1_555 1_555
Mn7 O24 1_555 1_555
Mn9 O25 1_555 1_555
C13_2 C14_2 1_555 1_555
C14_2 C15_2 1_555 1_555
C15_2 H8_2 1_555 1_555
C18_2 C16_2 1_555 1_555
C19_2 C14_2 1_555 1_555
H10_2 C19_2 1_555 1_555
O30 C13_2 1_555 1_555
O15 C13_2 1_555 1_555
Na4 O15 1_555 1_555
C18_2 C19_2 1_555 1_555
O27 C20_2 1_555 1_555
O33 C20_2 1_555 1_555
O23 C1_2 1_555 1_555
C1_2 O2_2 1_555 1_555
O2_2 Mn9 1_555 1_555
O3_2 Mn5 1_555 1_555
C6_2 O3_2 1_555 1_555
C10_2 C1_2 1_555 1_555
H4_2 C10_2 1_555 1_555
C11_2 C10_2 1_555 1_555
H5_2 C11_2 1_555 1_555
H6_2 C11_2 1_555 1_555
H7_2 C11_2 1_555 1_555
K4 O23 1_555 1_555
O8_2 K4 1_555 1_555
O24 K4 1_555 1_555
C12_2 O24 1_555 1_555
O10_2 Mn5 1_555 1_555
O11_2 Mn7 1_555 1_555
C17_2 O11_2 1_555 1_555
C21_2 C12_2 1_555 1_555
H11_2 C21_2 1_555 1_555
C22_2 C21_2 1_555 1_555
H12_2 C22_2 1_555 1_555
H13_2 C22_2 1_555 1_555
H14_2 C22_2 1_555 1_555
O25 K4 1_555 1_555
C23_2 O25 1_555 1_555
O17_2 Mn7 1_555 1_555
O18_2 Mn9 1_555 1_555
C24_2 C25_2 1_555 1_555
C25_2 C26_2 1_555 1_555
C26_2 H15_2 1_555 1_555
C27_2 H16_2 1_555 1_555
C28_2 O18_2 1_555 1_555
C29_2 C27_2 1_555 1_555
C30_2 C25_2 1_555 1_555
H17_2 C30_2 1_555 1_555
O31 C24_2 1_555 1_555
O22 C24_2 1_555 1_555
C32_2 C23_2 1_555 1_555
H18_2 C32_2 1_555 1_555
C33_2 C32_2 1_555 1_555
H19_2 C33_2 1_555 1_555
H20_2 C33_2 1_555 1_555
H21_2 C33_2 1_555 1_555
Na4 O22 1_555 1_555
O3_2 C10_2 1_555 1_555
C12_2 O10_2 1_555 1_555
O11_2 C21_2 1_555 1_555
C23_2 O17_2 1_555 1_555
O18_2 C32_2 1_555 1_555
C26_2 C28_2 1_555 1_555
C27_2 C28_2 1_555 1_555
C29_2 C30_2 1_555 1_555
O28 C31_2 1_555 1_555
O34 C31_2 1_555 1_555
C2_2 C3_2 1_555 1_555
C3_2 C4_2 1_555 1_555
C4_2 H1_2 1_555 1_555
C7_2 C5_2 1_555 1_555
C8_2 C3_2 1_555 1_555
H3_2 C8_2 1_555 1_555
O29 C2_2 1_555 1_555
O7_2 C2_2 1_555 1_555
Na4 O7_2 1_555 1_555
C7_2 C8_2 1_555 1_555
O26 C9_2 1_555 1_555
O32 C9_2 1_555 1_555

#END
