
###############################################################################
#
# This file contains modified crystal structure data generated from the
# MOF subset of the Cambridge Structural Database (CSD) v543 
# hosted by the Cambridge Crystallographic Data Centre (CCDC).
#
# This work is licensed under the Creative Commons
# Attribution-NonCommercial-ShareAlike 4.0 International License.
# To view a copy of this license, visit
# http://creativecommons.org/licenses/by-nc-sa/4.0/
# or send a letter to
# Creative Commons, PO Box 1866, Mountain View, CA 94042, USA.
#
# CIF created using the CSD Python API on 29 September 2022
# The structure has been converted into the P1 space group
# The structure has a 3D framework
# The original CSD entry OVEDOJ is in the monoclinic crystal system
# The framework has been calculated to contain at least 10.0% void space
# The void calculation uses a probe of radius 1.32A, grid spacing 0.4
#
###############################################################################

data_OVEDOJ
_chemical_formula_moiety         '(C372 H216 N11 O72 Zn20)n'
_symmetry_cell_setting           triclinic
_symmetry_space_group_name_H-M   'P 1'
_symmetry_Int_Tables_number      1
_space_group_name_Hall           'P 1'
loop_
_symmetry_equiv_pos_site_id
_symmetry_equiv_pos_as_xyz
1 x,y,z
_cell_length_a                   27.406(4)
_cell_length_b                   14.461(2)
_cell_length_c                   25.124(4)
_cell_angle_alpha                90
_cell_angle_beta                 94.255(2)
_cell_angle_gamma                90
_cell_volume                     9929.65
loop_
_atom_site_label
_atom_site_type_symbol
_atom_site_fract_x
_atom_site_fract_y
_atom_site_fract_z
Zn1 Zn 0.0000 0.0000 0.0000
O1 O 0.0436(3) 0.0877(4) 0.0480(2)
O2 O 0.0720(2) 0.0363(4) 0.1216(2)
C1 C 0.0768(4) 0.0830(5) 0.0828(3)
C2 C 0.1239(4) 0.1424(6) 0.0828(3)
C3 C 0.1399(5) 0.1824(8) 0.0395(4)
H1 H 0.1196 0.1781 0.0073
C4 C 0.1864(5) 0.2325(8) 0.0377(3)
H2 H 0.1940 0.2558 0.0039
C5 C 0.2183(4) 0.2481(7) 0.0780(4)
C6 C 0.2049(4) 0.2111(9) 0.1220(4)
H3 H 0.2248 0.2203 0.1541
C7 C 0.1602(5) 0.1560(9) 0.1233(4)
H4 H 0.1555 0.1259 0.1562
O3 O 0.4311(3) 0.4715(6) 0.0298(2)
O4 O 0.4399(2) 0.4704(4) 0.1115(2)
C8 C 0.4154(4) 0.4500(7) 0.0703(3)
C9 C 0.3648(4) 0.3996(7) 0.0729(4)
C10 C 0.3314(6) 0.3843(14) 0.0339(5)
C11 C 0.2842(6) 0.3370(12) 0.0356(5)
H6 H 0.2641 0.3334 0.0032
C12 C 0.2680(4) 0.3007(8) 0.0765(3)
C13 C 0.3003(6) 0.3221(12) 0.1154(4)
H7 H 0.2925 0.3022 0.1498
C14 C 0.3455(6) 0.3707(12) 0.1143(4)
H8 H 0.3629 0.3826 0.1477
C25 C 0.0432(9) 0.0019(19) 0.2804(6)
H15 H 0.0711 0.0190 0.3030
C26 C 0.0428(7) 0.0037(12) 0.2286(5)
H16 H 0.0689 0.0304 0.2112
Zn3 Zn 0.5000 0.5000 0.0000
Zn7 Zn 0.50629(4) 0.53404(6) 0.12622(3)
C53 C 0.0264(8) 0.0621(18) 0.7756(5)
H31 H 0.0527 0.0923 0.7953
C54 C 0.0293(9) 0.058(2) 0.7256(5)
H32 H 0.0576 0.0845 0.7117
C55 C 0.0036(7) 0.0293(8) 0.6987(4)
C58 C 0.0006(6) 0.0198(9) 0.6469(4)
C59 C 0.0029(5) 0.0178(9) 0.6022(4)
C60 C 0.0012(5) 0.0085(8) 0.5506(3)
Zn1_2 Zn 0.0000 0.0000 1.0000
H5 H 0.3387 0.4068 0.9999
Zn3_2 Zn 0.5000 0.5000 1.0000
Zn1_3 Zn 0.0000 1.0000 0.0000
Zn2 Zn 0.00629(4) 0.96596(6) 0.12622(3)
O5 O 0.0163(4) 0.8880(4) 0.0463(3)
O6 O 0.0076(3) 0.8309(4) 0.1166(2)
C15 C 0.0089(4) 0.8212(5) 0.0721(3)
C16 C 0.0069(4) 0.7268(5) 0.0493(3)
C17 C 0.0025(4) 0.7129(6) 0.0011(3)
C19 C 0.0014(3) 0.5472(5) 0.0105(3)
C20 C 0.0055(5) 0.5615(6) 0.0601(3)
H11 H 0.0067 0.5104 0.0839
C21 C 0.0083(5) 0.6486(6) 0.0800(3)
H12 H 0.0114 0.6558 0.1177
N1 N 0.0033(4) 0.9658(5) 0.2003(3)
C31 C 0.0247(6) 0.9287(13) 0.4784(4)
H18 H 0.0431 0.8818 0.4627
H28 H 0.0005 0.3832 0.0569
C61 C 0.0228(6) 0.9362(11) 0.5298(4)
H35 H 0.0371 0.8896 0.5526
Zn1_4 Zn 0.0000 1.0000 1.0000
H9 H 0.0001 0.7640 0.9773
C18 C 0.0010(4) 0.6239(6) 0.9808(3)
O10 O 0.0689(3) 0.9715(6) 0.9702(2)
O14 O 0.0601(2) 0.9704(4) 0.8885(2)
Zn1_5 Zn 1.0000 0.0000 0.0000
C30 C 0.9772(6) 0.0638(11) 0.4702(4)
H17 H 0.9629 0.1104 0.4474
Zn9 Zn 0.99371(4) 0.03404(6) 0.87378(3)
O11 O 0.9311(3) 0.0285(6) 0.0298(2)
O13 O 0.9399(2) 0.0296(4) 0.1115(2)
N2 N 0.9967(4) 0.0342(5) 0.7997(3)
C62 C 0.9753(6) 0.0713(13) 0.5216(4)
H36 H 0.9569 0.1182 0.5373
Zn1_6 Zn 1.0000 0.0000 1.0000
O16 O 0.9837(4) 0.1120(4) 0.9537(3)
O18 O 0.9924(3) 0.1691(4) 0.8834(2)
Zn1_7 Zn 1.0000 1.0000 0.0000
C22 C 0.9736(8) 0.9379(18) 0.2244(5)
H13 H 0.9473 0.9077 0.2047
C23 C 0.9707(9) 0.942(2) 0.2744(5)
H14 H 0.9424 0.9155 0.2883
C24 C 0.9964(7) 0.9707(8) 0.3013(4)
C27 C 0.9994(6) 0.9802(9) 0.3531(4)
C28 C 0.9971(5) 0.9822(9) 0.3978(4)
C29 C 0.9988(5) 0.9915(8) 0.4494(3)
H23 H 0.6613 0.5932 0.0001
H27 H 0.9999 0.2360 0.0227
C49 C 0.9990(4) 0.3761(6) 0.0192(3)
C56 C 0.9568(9) 0.9981(19) 0.7196(6)
H33 H 0.9289 0.9810 0.6970
C57 C 0.9572(7) 0.9963(12) 0.7714(5)
H34 H 0.9311 0.9696 0.7888
Zn1_8 Zn 1.0000 1.0000 1.0000
H10 H 0.9995 0.6168 0.9431
Zn10 Zn 0.49371(4) 0.46596(6) 0.87378(3)
O7 O 0.9564(3) 0.9123(4) 0.9520(2)
O8 O 0.9280(2) 0.9637(4) 0.8784(2)
C32 C 0.9232(4) 0.9170(5) 0.9172(3)
C33 C 0.8761(4) 0.8576(6) 0.9172(3)
C34 C 0.8601(5) 0.8176(8) 0.9605(4)
H19 H 0.8804 0.8219 0.9927
C35 C 0.8136(5) 0.7675(8) 0.9623(3)
H20 H 0.8060 0.7442 0.9961
C36 C 0.7817(4) 0.7519(7) 0.9220(4)
C37 C 0.7951(4) 0.7889(9) 0.8780(4)
H21 H 0.7752 0.7797 0.8459
C38 C 0.8398(5) 0.8440(9) 0.8767(4)
H22 H 0.8445 0.8741 0.8438
O9 O 0.5689(3) 0.5285(6) 0.9702(2)
O12 O 0.5601(2) 0.5296(4) 0.8885(2)
C39 C 0.5846(4) 0.5500(7) 0.9297(3)
C40 C 0.6352(4) 0.6004(7) 0.9271(4)
C41 C 0.6686(6) 0.6157(14) 0.9661(5)
C42 C 0.7158(6) 0.6630(12) 0.9644(5)
H24 H 0.7359 0.6666 0.9968
C43 C 0.7320(4) 0.6993(8) 0.9235(3)
C44 C 0.6997(6) 0.6779(12) 0.8846(4)
H25 H 0.7075 0.6978 0.8502
C45 C 0.6545(6) 0.6293(12) 0.8857(4)
H26 H 0.6371 0.6174 0.8523
C46 C 0.9911(4) 0.1788(5) 0.9279(3)
C47 C 0.9931(4) 0.2732(5) 0.9507(3)
C48 C 0.9975(4) 0.2871(6) 0.9989(3)
C50 C 0.9986(3) 0.4528(5) 0.9895(3)
C51 C 0.9945(5) 0.4385(6) 0.9399(3)
H29 H 0.9933 0.4896 0.9161
C52 C 0.9917(5) 0.3514(6) 0.9200(3)
H30 H 0.9886 0.3442 0.8823
H5_2 H 0.1613 0.9068 0.0001
H9_2 H 0.4999 0.2640 0.0227
C18_2 C 0.4990(4) 0.1239(6) 0.0192(3)
H10_2 H 0.5005 0.1168 0.0569
O7_2 O 0.5436(3) 0.4123(4) 0.0480(2)
O8_2 O 0.5720(2) 0.4637(4) 0.1216(2)
C32_2 C 0.5768(4) 0.4170(5) 0.0828(3)
C33_2 C 0.6239(4) 0.3576(6) 0.0828(3)
C34_2 C 0.6399(5) 0.3176(8) 0.0395(4)
H19_2 H 0.6196 0.3219 0.0073
C35_2 C 0.6864(5) 0.2675(8) 0.0377(3)
H20_2 H 0.6940 0.2442 0.0039
C36_2 C 0.7183(4) 0.2519(7) 0.0780(4)
C37_2 C 0.7049(4) 0.2889(9) 0.1220(4)
H21_2 H 0.7248 0.2797 0.1541
C38_2 C 0.6602(5) 0.3440(9) 0.1233(4)
H22_2 H 0.6555 0.3741 0.1562
C39_2 C 0.9154(4) 0.0500(7) 0.0703(3)
C40_2 C 0.8648(4) 0.1004(7) 0.0729(4)
C41_2 C 0.8314(6) 0.1157(14) 0.0339(5)
C42_2 C 0.7842(6) 0.1630(12) 0.0356(5)
H24_2 H 0.7641 0.1666 0.0032
C43_2 C 0.7680(4) 0.1993(8) 0.0765(3)
C44_2 C 0.8003(6) 0.1779(12) 0.1154(4)
H25_2 H 0.7925 0.1978 0.1498
C45_2 C 0.8455(6) 0.1293(12) 0.1143(4)
H26_2 H 0.8629 0.1174 0.1477
O16_2 O 0.5163(4) 0.6120(4) 0.0463(3)
O18_2 O 0.5076(3) 0.6691(4) 0.1166(2)
N3 N 0.5033(4) 0.5342(5) 0.2003(3)
O1_2 O 0.4564(3) 0.5877(4) 0.9520(2)
O2_2 O 0.4280(2) 0.5363(4) 0.8784(2)
C1_2 C 0.4232(4) 0.5830(5) 0.9172(3)
C2_2 C 0.3761(4) 0.6424(6) 0.9172(3)
C3_2 C 0.3601(5) 0.6824(8) 0.9605(4)
H1_2 H 0.3804 0.6781 0.9927
C4_2 C 0.3136(5) 0.7325(8) 0.9623(3)
H2_2 H 0.3060 0.7558 0.9961
C5_2 C 0.2817(4) 0.7481(7) 0.9220(4)
C6_2 C 0.2951(4) 0.7111(9) 0.8780(4)
H3_2 H 0.2752 0.7203 0.8459
C7_2 C 0.3398(5) 0.6560(9) 0.8767(4)
H4_2 H 0.3445 0.6259 0.8438
C8_2 C 0.0846(4) 0.9500(7) 0.9297(3)
C9_2 C 0.1352(4) 0.8996(7) 0.9271(4)
C10_2 C 0.1686(6) 0.8843(14) 0.9661(5)
C11_2 C 0.2158(6) 0.8370(12) 0.9644(5)
H6_2 H 0.2359 0.8334 0.9968
C12_2 C 0.2320(4) 0.8007(8) 0.9235(3)
C13_2 C 0.1997(6) 0.8221(12) 0.8846(4)
H7_2 H 0.2075 0.8022 0.8502
C14_2 C 0.1545(6) 0.8707(12) 0.8857(4)
H8_2 H 0.1371 0.8826 0.8523
O5_2 O 0.4837(4) 0.3880(4) 0.9537(3)
O6_2 O 0.4924(3) 0.3309(4) 0.8834(2)
C15_2 C 0.4911(4) 0.3212(5) 0.9279(3)
C16_2 C 0.4931(4) 0.2268(5) 0.9507(3)
C17_2 C 0.4975(4) 0.2129(6) 0.9989(3)
C19_2 C 0.4986(3) 0.0472(5) 0.9895(3)
C20_2 C 0.4945(5) 0.0615(6) 0.9399(3)
H11_2 H 0.4933 0.0104 0.9161
C21_2 C 0.4917(5) 0.1486(6) 0.9200(3)
H12_2 H 0.4886 0.1558 0.8823
N1_2 N 0.4967(4) 0.4658(5) 0.7997(3)
C22_2 C 0.5264(8) 0.4379(18) 0.7756(5)
H13_2 H 0.5527 0.4077 0.7953
C23_2 C 0.5293(9) 0.442(2) 0.7256(5)
H14_2 H 0.5576 0.4155 0.7117
C24_2 C 0.5036(7) 0.4707(8) 0.6987(4)
C25_2 C 0.4568(9) 0.5019(19) 0.7196(6)
H15_2 H 0.4289 0.5190 0.6970
C26_2 C 0.4572(7) 0.5037(12) 0.7714(5)
H16_2 H 0.4311 0.5304 0.7888
C27_2 C 0.5006(6) 0.4802(9) 0.6469(4)
C28_2 C 0.5029(5) 0.4822(9) 0.6022(4)
C29_2 C 0.5012(5) 0.4915(8) 0.5506(3)
C30_2 C 0.5228(6) 0.5638(11) 0.5298(4)
H17_2 H 0.5371 0.6104 0.5526
C31_2 C 0.4753(6) 0.4287(13) 0.5216(4)
H18_2 H 0.4569 0.3818 0.5373
H23_2 H 0.8387 0.0932 0.9999
C53_2 C 0.4736(8) 0.5621(18) 0.2244(5)
H31_2 H 0.4473 0.5923 0.2047
C54_2 C 0.4707(9) 0.558(2) 0.2744(5)
H32_2 H 0.4424 0.5845 0.2883
C55_2 C 0.4964(7) 0.5293(8) 0.3013(4)
C56_2 C 0.5432(9) 0.4981(19) 0.2804(6)
H33_2 H 0.5711 0.4810 0.3030
C57_2 C 0.5428(7) 0.4963(12) 0.2286(5)
H34_2 H 0.5689 0.4696 0.2112
C58_2 C 0.4994(6) 0.5198(9) 0.3531(4)
C59_2 C 0.4971(5) 0.5178(9) 0.3978(4)
C60_2 C 0.4988(5) 0.5085(8) 0.4494(3)
C61_2 C 0.4772(6) 0.4362(11) 0.4702(4)
H35_2 H 0.4629 0.3896 0.4474
C62_2 C 0.5247(6) 0.5713(13) 0.4784(4)
H36_2 H 0.5431 0.6182 0.4627
C46_2 C 0.5089(4) 0.6788(5) 0.0721(3)
C47_2 C 0.5069(4) 0.7732(5) 0.0493(3)
C48_2 C 0.5025(4) 0.7871(6) 0.0011(3)
C50_2 C 0.5014(3) 0.9528(5) 0.0105(3)
C51_2 C 0.5055(5) 0.9385(6) 0.0601(3)
H29_2 H 0.5067 0.9896 0.0839
C52_2 C 0.5083(5) 0.8514(6) 0.0800(3)
H30_2 H 0.5114 0.8442 0.1177
H27_2 H 0.5001 0.7360 0.9773
C49_2 C 0.5010(4) 0.8761(6) 0.9808(3)
H28_2 H 0.4995 0.8832 0.9431
Zn15 Zn 0.34074(2) 0.00017(4) 0.33926(2)
Zn12 Zn 0.33287(3) 0.03358(5) 0.21274(3)
O23 O 0.3350(5) 0.1126(4) 0.2949(3)
O24 O 0.3285(3) 0.1677(4) 0.2260(2)
C77 C 0.3321(3) 0.1781(5) 0.2695(3)
C78 C 0.3353(3) 0.2740(5) 0.2910(3)
C79 C 0.3428(3) 0.2908(6) 0.3394(3)
H45 H 0.3476 0.2408 0.3637
C80 C 0.3443(4) 0.3766(5) 0.3581(3)
H46 H 0.3503 0.3838 0.3956
C81 C 0.3382(3) 0.4534(5) 0.3294(3)
C82 C 0.3256(6) 0.4378(5) 0.2807(3)
H47 H 0.3163 0.4876 0.2575
C83 C 0.3254(5) 0.3506(6) 0.2617(3)
H48 H 0.3177 0.3425 0.2245
O25 O 0.3511(6) 0.8879(5) 0.3844(3)
O26 O 0.3477(2) 0.8352(4) 0.4518(2)
C84 C 0.3468(3) 0.8237(5) 0.4090(3)
C85 C 0.3435(3) 0.7269(5) 0.3877(3)
C86 C 0.3421(5) 0.7132(6) 0.3398(3)
H49 H 0.3428 0.7637 0.3156
C87 C 0.3396(5) 0.6243(5) 0.3211(3)
H50 H 0.3373 0.6170 0.2834
C88 C 0.3435(5) 0.5635(6) 0.3992(3)
H51 H 0.3457 0.5137 0.4239
C89 C 0.3443(5) 0.6540(6) 0.4173(3)
H52 H 0.3455 0.6631 0.4548
O27 O 0.3872(3) 0.0826(6) 0.3866(2)
O28 O 0.41310(16) 0.0398(3) 0.46161(16)
C90 C 0.4222(3) 0.0751(6) 0.4208(3)
C91 C 0.4695(3) 0.1368(6) 0.4198(3)
C92 C 0.4841(3) 0.1722(8) 0.3763(3)
H53 H 0.4638 0.1641 0.3444
C93 C 0.5296(3) 0.2236(7) 0.3730(3)
H54 H 0.5373 0.2435 0.3385
C94 C 0.5626(3) 0.2462(6) 0.4153(3)
C95 C 0.5471(3) 0.2112(5) 0.4601(3)
H55 H 0.5660 0.2225 0.4927
C96 C 0.5020(3) 0.1557(5) 0.4618(3)
H56 H 0.4951 0.1310 0.4955
O29 O 0.7781(4) 0.4583(9) 0.3720(3)
O30 O 0.7810(2) 0.4712(4) 0.45156(19)
C97 C 0.7605(3) 0.4421(7) 0.4111(3)
C98 C 0.7097(3) 0.3942(6) 0.4118(3)
C99 C 0.6873(7) 0.3517(18) 0.3747(5)
H57 H 0.7032 0.3450 0.3426
C100 C 0.6360(7) 0.3089(17) 0.3758(5)
H58 H 0.6219 0.2870 0.3424
C101 C 0.6110(3) 0.2991(6) 0.4132(3)
C102 C 0.6352(5) 0.3381(13) 0.4479(4)
H59 H 0.6205 0.3424 0.4809
C103 C 0.6845(6) 0.3809(13) 0.4476(4)
H60 H 0.6981 0.4009 0.4816
N4 N 0.3318(3) 0.0329(5) 0.1386(2)
C104 C 0.3660(7) 0.0404(18) 0.1146(4)
H61 H 0.3955 0.0576 0.1344
C105 C 0.3688(6) 0.0285(16) 0.0645(5)
H62 H 0.3994 0.0205 0.0495
C106 C 0.3313(6) 0.0277(8) 0.0376(4)
C107 C 0.2874(7) 0.0118(14) 0.0621(4)
H63 H 0.2579 0.0004 0.0407
C108 C 0.2870(6) 0.0124(10) 0.1128(4)
H64 H 0.2585 0.0001 0.1310
C124 C 0.3399(3) 0.5476(5) 0.3496(3)
Zn16 Zn 0.84074(2) 0.49983(4) 0.33926(2)
Zn18 Zn 0.34854(3) 0.96722(5) 0.46601(3)
Zn19 Zn 0.84854(3) 0.53278(5) 0.46601(3)
O35 O 0.2781(4) 0.0417(9) 0.3720(3)
O36 O 0.2810(2) 0.0288(4) 0.45156(19)
O19 O 0.4056(4) 0.9604(8) 0.3059(3)
O20 O 0.40102(17) 0.9726(3) 0.22588(17)
C63 C 0.4227(4) 0.9450(7) 0.2670(3)
C64 C 0.4736(4) 0.8930(6) 0.2667(3)
C65 C 0.4975(5) 0.8528(8) 0.3083(4)
H37 H 0.4825 0.8530 0.3412
C66 C 0.5454(4) 0.8083(8) 0.3073(4)
H38 H 0.5604 0.7867 0.3403
C67 C 0.5689(4) 0.7958(7) 0.2655(3)
C68 C 0.5457(4) 0.8382(8) 0.2244(3)
H39 H 0.5608 0.8364 0.1916
C69 C 0.5001(4) 0.8867(8) 0.2243(3)
H40 H 0.4880 0.9160 0.1921
O21 O 0.7991(3) 0.5894(4) 0.2907(3)
O22 O 0.76952(19) 0.5403(4) 0.21803(17)
C70 C 0.7606(4) 0.5757(7) 0.2564(3)
C71 C 0.7123(4) 0.6359(7) 0.2598(3)
C72 C 0.6988(5) 0.6752(12) 0.3009(4)
H41 H 0.7195 0.6703 0.3328
C73 C 0.6531(5) 0.7281(11) 0.3030(4)
H42 H 0.6467 0.7536 0.3366
C74 C 0.6205(4) 0.7437(8) 0.2639(3)
C75 C 0.6333(5) 0.7006(9) 0.2207(4)
H43 H 0.6123 0.7057 0.1890
C76 C 0.6764(4) 0.6472(8) 0.2190(3)
H44 H 0.6810 0.6161 0.1864
Zn17 Zn 0.83287(3) 0.46642(5) 0.21274(3)
O31 O 0.2991(3) 0.9106(4) 0.2907(3)
O32 O 0.26952(19) 0.9597(4) 0.21803(17)
N6 N 0.3470(2) 0.9717(4) 0.5413(2)
C112 C 0.3673(6) 0.9610(11) 0.8695(4)
H65 H 0.3919 0.9323 0.8925
C114 C 0.3888(3) 0.9910(7) 0.5695(3)
C115 C 0.3876(4) 0.9969(8) 0.6205(3)
C116 C 0.3429(4) 0.9857(7) 0.6411(3)
C117 C 0.2986(4) 0.9657(9) 0.6117(4)
H69 H 0.2685 0.9572 0.6274
C118 C 0.3030(4) 0.9602(7) 0.5618(3)
H70 H 0.2750 0.9479 0.5384
C119 C 0.3399(5) 0.9899(8) 0.6929(3)
C120 C 0.3378(4) 0.9923(8) 0.7364(3)
C121 C 0.3344(5) 0.9964(9) 0.7885(3)
C123 C 0.3680(6) 0.9553(12) 0.8193(4)
H72 H 0.3931 0.9212 0.8040
C66_2 C 0.0454(4) 0.6917(8) 0.3073(4)
H38_2 H 0.0604 0.7133 0.3403
C67_2 C 0.0689(4) 0.7042(7) 0.2655(3)
C68_2 C 0.0457(4) 0.6618(8) 0.2244(3)
H39_2 H 0.0608 0.6636 0.1916
C69_2 C 0.0001(4) 0.6133(8) 0.2243(3)
C70_2 C 0.2606(4) 0.9243(7) 0.2564(3)
C71_2 C 0.2123(4) 0.8641(7) 0.2598(3)
C72_2 C 0.1988(5) 0.8248(12) 0.3009(4)
H41_2 H 0.2195 0.8297 0.3328
C73_2 C 0.1531(5) 0.7719(11) 0.3030(4)
H42_2 H 0.1467 0.7464 0.3366
C74_2 C 0.1205(4) 0.7563(8) 0.2639(3)
C75_2 C 0.1333(5) 0.7994(9) 0.2207(4)
H43_2 H 0.1123 0.7943 0.1890
C76_2 C 0.1764(4) 0.8528(8) 0.2190(3)
H44_2 H 0.1810 0.8839 0.1864
C93_2 C 0.0296(3) 0.2764(7) 0.3730(3)
H54_2 H 0.0373 0.2565 0.3385
C94_2 C 0.0626(3) 0.2538(6) 0.4153(3)
C95_2 C 0.0471(3) 0.2888(5) 0.4601(3)
H55_2 H 0.0660 0.2775 0.4927
C96_2 C 0.0020(3) 0.3443(5) 0.4618(3)
C97_2 C 0.2605(3) 0.0579(7) 0.4111(3)
C98_2 C 0.2097(3) 0.1058(6) 0.4118(3)
C99_2 C 0.1873(7) 0.1483(18) 0.3747(5)
H57_2 H 0.2032 0.1550 0.3426
C100_2 C 0.1360(7) 0.1911(17) 0.3758(5)
H58_2 H 0.1219 0.2130 0.3424
C101_2 C 0.1110(3) 0.2009(6) 0.4132(3)
C102_2 C 0.1352(5) 0.1619(13) 0.4479(4)
H59_2 H 0.1205 0.1576 0.4809
C103_2 C 0.1845(6) 0.1191(13) 0.4476(4)
H60_2 H 0.1981 0.0991 0.4816
O19_2 O 0.9056(4) 0.5396(8) 0.3059(3)
O20_2 O 0.90102(17) 0.5274(3) 0.22588(17)
C63_2 C 0.9227(4) 0.5550(7) 0.2670(3)
C64_2 C 0.9736(4) 0.6070(6) 0.2667(3)
C65_2 C 0.9975(5) 0.6472(8) 0.3083(4)
H37_2 H 0.9825 0.6470 0.3412
H40_2 H 0.9880 0.5840 0.1921
O23_2 O 0.8350(5) 0.3874(4) 0.2949(3)
O24_2 O 0.8285(3) 0.3323(4) 0.2260(2)
C77_2 C 0.8321(3) 0.3219(5) 0.2695(3)
C78_2 C 0.8353(3) 0.2260(5) 0.2910(3)
C79_2 C 0.8428(3) 0.2092(6) 0.3394(3)
H45_2 H 0.8476 0.2592 0.3637
C80_2 C 0.8443(4) 0.1234(5) 0.3581(3)
H46_2 H 0.8503 0.1162 0.3956
C81_2 C 0.8382(3) 0.0466(5) 0.3294(3)
C82_2 C 0.8256(6) 0.0622(5) 0.2807(3)
H47_2 H 0.8163 0.0124 0.2575
C83_2 C 0.8254(5) 0.1494(6) 0.2617(3)
H48_2 H 0.8177 0.1575 0.2245
O27_2 O 0.8872(3) 0.4174(6) 0.3866(2)
O28_2 O 0.91310(16) 0.4602(3) 0.46161(16)
C90_2 C 0.9222(3) 0.4249(6) 0.4208(3)
C91_2 C 0.9695(3) 0.3632(6) 0.4198(3)
C92_2 C 0.9841(3) 0.3278(8) 0.3763(3)
H53_2 H 0.9638 0.3359 0.3444
H56_2 H 0.9951 0.3690 0.4955
N4_2 N 0.8318(3) 0.4671(5) 0.1386(2)
C104_2 C 0.8660(7) 0.4596(18) 0.1146(4)
H61_2 H 0.8955 0.4424 0.1344
C105_2 C 0.8688(6) 0.4715(16) 0.0645(5)
H62_2 H 0.8994 0.4795 0.0495
C106_2 C 0.8313(6) 0.4723(8) 0.0376(4)
C107_2 C 0.7874(7) 0.4882(14) 0.0621(4)
H63_2 H 0.7579 0.4996 0.0407
C108_2 C 0.7870(6) 0.4876(10) 0.1128(4)
H64_2 H 0.7585 0.4999 0.1310
O33 O 0.8511(6) 0.6121(5) 0.3844(3)
O34 O 0.8477(2) 0.6648(4) 0.4518(2)
N6_2 N 0.8470(2) 0.5283(4) 0.5413(2)
C109 C 0.8313(5) 0.4815(9) 0.9851(3)
C110 C 0.8307(6) 0.4844(10) 0.9406(3)
C111 C 0.8314(5) 0.4923(10) 0.8890(4)
C112_2 C 0.8673(6) 0.5390(11) 0.8695(4)
H65_2 H 0.8919 0.5677 0.8925
C113 C 0.7936(7) 0.4552(15) 0.8580(5)
H66 H 0.7660 0.4279 0.8726
C114_2 C 0.8888(3) 0.5090(7) 0.5695(3)
H67 H 0.9183 0.4999 0.5526
C115_2 C 0.8876(4) 0.5031(8) 0.6205(3)
H68 H 0.9164 0.4915 0.6429
C116_2 C 0.8429(4) 0.5143(7) 0.6411(3)
C117_2 C 0.7986(4) 0.5343(9) 0.6117(4)
H69_2 H 0.7685 0.5428 0.6274
C118_2 C 0.8030(4) 0.5398(7) 0.5618(3)
H70_2 H 0.7750 0.5521 0.5384
C119_2 C 0.8399(5) 0.5101(8) 0.6929(3)
C120_2 C 0.8378(4) 0.5077(8) 0.7364(3)
C121_2 C 0.8344(5) 0.5036(9) 0.7885(3)
C122 C 0.7981(6) 0.4598(12) 0.8072(4)
H71 H 0.7745 0.4307 0.7832
C123_2 C 0.8680(6) 0.5447(12) 0.8193(4)
H72_2 H 0.8931 0.5788 0.8040
C84_2 C 0.8468(3) 0.6763(5) 0.4090(3)
C85_2 C 0.8435(3) 0.7731(5) 0.3877(3)
C86_2 C 0.8421(5) 0.7868(6) 0.3398(3)
H49_2 H 0.8428 0.7363 0.3156
C87_2 C 0.8396(5) 0.8757(5) 0.3211(3)
H50_2 H 0.8373 0.8830 0.2834
C88_2 C 0.8435(5) 0.9365(6) 0.3992(3)
H51_2 H 0.8457 0.9863 0.4239
C89_2 C 0.8443(5) 0.8460(6) 0.4173(3)
H52_2 H 0.8455 0.8369 0.4548
C124_2 C 0.8399(3) 0.9524(5) 0.3496(3)
C109_2 C 0.3313(5) 0.0185(9) 0.9851(3)
C110_2 C 0.3307(6) 0.0156(10) 0.9406(3)
C111_2 C 0.3314(5) 0.0077(10) 0.8890(4)
C113_2 C 0.2936(7) 0.0448(15) 0.8580(5)
H66_2 H 0.2660 0.0721 0.8726
H67_2 H 0.4183 0.0001 0.5526
H68_2 H 0.4164 0.0085 0.6429
C122_2 C 0.2981(6) 0.0402(12) 0.8072(4)
H71_2 H 0.2745 0.0693 0.7832
O25_2 O 0.1489(6) 0.3879(5) 0.6156(3)
O26_2 O 0.1523(2) 0.3352(4) 0.5482(2)
C84_3 C 0.1532(3) 0.3237(5) 0.5910(3)
C85_3 C 0.1565(3) 0.2269(5) 0.6123(3)
C86_3 C 0.1579(5) 0.2132(6) 0.6602(3)
H49_3 H 0.1572 0.2637 0.6844
C87_3 C 0.1604(5) 0.1243(5) 0.6789(3)
H50_3 H 0.1627 0.1170 0.7166
C88_3 C 0.1565(5) 0.0635(6) 0.6008(3)
H51_3 H 0.1543 0.0137 0.5761
C89_3 C 0.1557(5) 0.1540(6) 0.5827(3)
H52_3 H 0.1545 0.1631 0.5452
C124_3 C 0.1601(3) 0.0476(5) 0.6504(3)
Zn15_2 Zn 0.15926(2) 0.50017(4) 0.66074(2)
Zn18_2 Zn 0.15146(3) 0.46722(5) 0.53399(3)
C109_3 C 0.1687(5) 0.5185(9) 0.0149(3)
C110_3 C 0.1693(6) 0.5156(10) 0.0594(3)
C111_3 C 0.1686(5) 0.5077(10) 0.1110(4)
C112_3 C 0.1327(6) 0.4610(11) 0.1305(4)
H65_3 H 0.1081 0.4323 0.1075
C113_3 C 0.2064(7) 0.5448(15) 0.1420(5)
H66_3 H 0.2340 0.5721 0.1274
N5 N 0.1530(2) 0.4717(4) 0.4587(2)
C114_3 C 0.1112(3) 0.4910(7) 0.4305(3)
H67_3 H 0.0817 0.5001 0.4474
C115_3 C 0.1124(4) 0.4969(8) 0.3795(3)
H68_3 H 0.0836 0.5085 0.3571
C116_3 C 0.1571(4) 0.4857(7) 0.3589(3)
C117_3 C 0.2014(4) 0.4657(9) 0.3883(4)
H69_3 H 0.2315 0.4572 0.3726
C118_3 C 0.1970(4) 0.4602(7) 0.4382(3)
H70_3 H 0.2250 0.4479 0.4616
C119_3 C 0.1601(5) 0.4899(8) 0.3071(3)
C120_3 C 0.1622(4) 0.4923(8) 0.2636(3)
C121_3 C 0.1656(5) 0.4964(9) 0.2115(3)
C122_3 C 0.2019(6) 0.5402(12) 0.1928(4)
H71_3 H 0.2255 0.5693 0.2168
C123_3 C 0.1320(6) 0.4553(12) 0.1807(4)
H72_3 H 0.1069 0.4212 0.1960
Zn12_2 Zn 0.16713(3) 0.53358(5) 0.78726(3)
O19_3 O 0.0944(4) 0.4604(8) 0.6941(3)
O20_3 O 0.09898(17) 0.4726(3) 0.77412(17)
C63_3 C 0.0773(4) 0.4450(7) 0.7330(3)
C64_3 C 0.0264(4) 0.3930(6) 0.7333(3)
C65_3 C 0.0025(5) 0.3528(8) 0.6917(4)
H37_3 H 0.0175 0.3530 0.6588
H40_3 H 0.0120 0.4160 0.8079
O23_3 O 0.1650(5) 0.6126(4) 0.7051(3)
O24_3 O 0.1715(3) 0.6677(4) 0.7740(2)
C77_3 C 0.1679(3) 0.6781(5) 0.7305(3)
C78_3 C 0.1647(3) 0.7740(5) 0.7090(3)
C79_3 C 0.1572(3) 0.7908(6) 0.6606(3)
H45_3 H 0.1524 0.7408 0.6363
C80_3 C 0.1557(4) 0.8766(5) 0.6419(3)
H46_3 H 0.1497 0.8838 0.6044
C81_3 C 0.1618(3) 0.9534(5) 0.6706(3)
C82_3 C 0.1744(6) 0.9378(5) 0.7193(3)
H47_3 H 0.1837 0.9876 0.7425
C83_3 C 0.1746(5) 0.8506(6) 0.7383(3)
H48_3 H 0.1823 0.8425 0.7755
O27_3 O 0.1128(3) 0.5826(6) 0.6134(2)
O28_3 O 0.08690(16) 0.5398(3) 0.53839(16)
C90_3 C 0.0778(3) 0.5751(6) 0.5792(3)
C91_3 C 0.0305(3) 0.6368(6) 0.5802(3)
C92_3 C 0.0159(3) 0.6722(8) 0.6237(3)
H53_3 H 0.0362 0.6641 0.6556
H56_3 H 0.0049 0.6310 0.5045
N4_3 N 0.1682(3) 0.5329(5) 0.8614(2)
C104_3 C 0.1340(7) 0.5404(18) 0.8854(4)
H61_3 H 0.1045 0.5576 0.8656
C105_3 C 0.1312(6) 0.5285(16) 0.9355(5)
H62_3 H 0.1006 0.5205 0.9505
C106_3 C 0.1687(6) 0.5277(8) 0.9624(4)
C107_3 C 0.2126(7) 0.5118(14) 0.9379(4)
H63_3 H 0.2421 0.5004 0.9593
C108_3 C 0.2130(6) 0.5124(10) 0.8872(4)
H64_3 H 0.2415 0.5001 0.8690
O31_2 O 0.2009(3) 0.4106(4) 0.7093(3)
O32_2 O 0.23048(19) 0.4597(4) 0.78197(17)
O35_2 O 0.2219(4) 0.5417(9) 0.6280(3)
O36_2 O 0.2190(2) 0.5288(4) 0.54844(19)
Zn19_2 Zn 0.65146(3) 0.03278(5) 0.53399(3)
C66_3 C 0.9546(4) 0.3083(8) 0.6927(4)
H38_3 H 0.9396 0.2867 0.6597
C67_3 C 0.9311(4) 0.2958(7) 0.7345(3)
C68_3 C 0.9543(4) 0.3382(8) 0.7756(3)
H39_3 H 0.9392 0.3364 0.8084
C69_3 C 0.9999(4) 0.3867(8) 0.7757(3)
O21_2 O 0.7009(3) 0.0894(4) 0.7093(3)
O22_2 O 0.73048(19) 0.0403(4) 0.78197(17)
C70_3 C 0.7394(4) 0.0757(7) 0.7436(3)
C71_3 C 0.7877(4) 0.1359(7) 0.7402(3)
C72_3 C 0.8012(5) 0.1752(12) 0.6991(4)
H41_3 H 0.7805 0.1703 0.6672
C73_3 C 0.8469(5) 0.2281(11) 0.6970(4)
H42_3 H 0.8533 0.2536 0.6634
C74_3 C 0.8795(4) 0.2437(8) 0.7361(3)
C75_3 C 0.8667(5) 0.2006(9) 0.7793(4)
H43_3 H 0.8877 0.2057 0.8110
C76_3 C 0.8236(4) 0.1472(8) 0.7810(3)
H44_3 H 0.8190 0.1161 0.8136
C93_3 C 0.9704(3) 0.7236(7) 0.6270(3)
H54_3 H 0.9627 0.7435 0.6615
C94_3 C 0.9374(3) 0.7462(6) 0.5847(3)
C95_3 C 0.9529(3) 0.7112(5) 0.5399(3)
H55_3 H 0.9340 0.7225 0.5073
C96_3 C 0.9980(3) 0.6557(5) 0.5382(3)
O29_2 O 0.7219(4) 0.9583(9) 0.6280(3)
O30_2 O 0.7190(2) 0.9712(4) 0.54844(19)
C97_3 C 0.7395(3) 0.9421(7) 0.5889(3)
C98_3 C 0.7903(3) 0.8942(6) 0.5882(3)
C99_3 C 0.8127(7) 0.8517(18) 0.6253(5)
H57_3 H 0.7968 0.8450 0.6574
C100_3 C 0.8640(7) 0.8089(17) 0.6242(5)
H58_3 H 0.8781 0.7870 0.6576
C101_3 C 0.8890(3) 0.7991(6) 0.5868(3)
C102_3 C 0.8648(5) 0.8381(13) 0.5521(4)
H59_3 H 0.8795 0.8424 0.5191
C103_3 C 0.8155(6) 0.8809(13) 0.5524(4)
H60_3 H 0.8019 0.9009 0.5184
Zn16_2 Zn 0.65926(2) 0.99983(4) 0.66074(2)
Zn17_2 Zn 0.66713(3) 0.96642(5) 0.78726(3)
C112_4 C 0.6327(6) 0.0390(11) 0.1305(4)
H65_4 H 0.6081 0.0677 0.1075
N5_2 N 0.6530(2) 0.0283(4) 0.4587(2)
C114_4 C 0.6112(3) 0.0090(7) 0.4305(3)
C115_4 C 0.6124(4) 0.0031(8) 0.3795(3)
C116_4 C 0.6571(4) 0.0143(7) 0.3589(3)
C117_4 C 0.7014(4) 0.0343(9) 0.3883(4)
H69_4 H 0.7315 0.0428 0.3726
C118_4 C 0.6970(4) 0.0398(7) 0.4382(3)
H70_4 H 0.7250 0.0521 0.4616
C119_4 C 0.6601(5) 0.0101(8) 0.3071(3)
C120_4 C 0.6622(4) 0.0077(8) 0.2636(3)
C121_4 C 0.6656(5) 0.0036(9) 0.2115(3)
C123_4 C 0.6320(6) 0.0447(12) 0.1807(4)
H72_4 H 0.6069 0.0788 0.1960
O19_4 O 0.5944(4) 0.0396(8) 0.6941(3)
O20_4 O 0.59898(17) 0.0274(3) 0.77412(17)
C63_4 C 0.5773(4) 0.0550(7) 0.7330(3)
C64_4 C 0.5264(4) 0.1070(6) 0.7333(3)
C65_4 C 0.5025(5) 0.1472(8) 0.6917(4)
H37_4 H 0.5175 0.1470 0.6588
C66_4 C 0.4546(4) 0.1917(8) 0.6927(4)
H38_4 H 0.4396 0.2133 0.6597
C67_4 C 0.4311(4) 0.2042(7) 0.7345(3)
C68_4 C 0.4543(4) 0.1618(8) 0.7756(3)
H39_4 H 0.4392 0.1636 0.8084
C69_4 C 0.4999(4) 0.1133(8) 0.7757(3)
H40_4 H 0.5120 0.0840 0.8079
C70_4 C 0.2394(4) 0.4243(7) 0.7436(3)
C71_4 C 0.2877(4) 0.3641(7) 0.7402(3)
C72_4 C 0.3012(5) 0.3248(12) 0.6991(4)
H41_4 H 0.2805 0.3297 0.6672
C73_4 C 0.3469(5) 0.2719(11) 0.6970(4)
H42_4 H 0.3533 0.2464 0.6634
C74_4 C 0.3795(4) 0.2563(8) 0.7361(3)
C75_4 C 0.3667(5) 0.2994(9) 0.7793(4)
H43_4 H 0.3877 0.2943 0.8110
C76_4 C 0.3236(4) 0.3528(8) 0.7810(3)
H44_4 H 0.3190 0.3839 0.8136
O33_2 O 0.6489(6) 0.1121(5) 0.6156(3)
O34_2 O 0.6523(2) 0.1648(4) 0.5482(2)
O23_4 O 0.6650(5) 0.8874(4) 0.7051(3)
O24_4 O 0.6715(3) 0.8323(4) 0.7740(2)
C77_4 C 0.6679(3) 0.8219(5) 0.7305(3)
C78_4 C 0.6647(3) 0.7260(5) 0.7090(3)
C79_4 C 0.6572(3) 0.7092(6) 0.6606(3)
H45_4 H 0.6524 0.7592 0.6363
C80_4 C 0.6557(4) 0.6234(5) 0.6419(3)
H46_4 H 0.6497 0.6162 0.6044
C81_4 C 0.6618(3) 0.5466(5) 0.6706(3)
C82_4 C 0.6744(6) 0.5622(5) 0.7193(3)
H47_4 H 0.6837 0.5124 0.7425
C83_4 C 0.6746(5) 0.6494(6) 0.7383(3)
H48_4 H 0.6823 0.6575 0.7755
C84_4 C 0.6532(3) 0.1763(5) 0.5910(3)
C85_4 C 0.6565(3) 0.2731(5) 0.6123(3)
C86_4 C 0.6579(5) 0.2868(6) 0.6602(3)
H49_4 H 0.6572 0.2363 0.6844
C87_4 C 0.6604(5) 0.3757(5) 0.6789(3)
H50_4 H 0.6627 0.3830 0.7166
C88_4 C 0.6565(5) 0.4365(6) 0.6008(3)
H51_4 H 0.6543 0.4863 0.5761
C89_4 C 0.6557(5) 0.3460(6) 0.5827(3)
H52_4 H 0.6545 0.3369 0.5452
O27_4 O 0.6128(3) 0.9174(6) 0.6134(2)
O28_4 O 0.58690(16) 0.9602(3) 0.53839(16)
C90_4 C 0.5778(3) 0.9249(6) 0.5792(3)
C91_4 C 0.5305(3) 0.8632(6) 0.5802(3)
C92_4 C 0.5159(3) 0.8278(8) 0.6237(3)
H53_4 H 0.5362 0.8359 0.6556
C93_4 C 0.4704(3) 0.7764(7) 0.6270(3)
H54_4 H 0.4627 0.7565 0.6615
C94_4 C 0.4374(3) 0.7538(6) 0.5847(3)
C95_4 C 0.4529(3) 0.7888(5) 0.5399(3)
H55_4 H 0.4340 0.7775 0.5073
C96_4 C 0.4980(3) 0.8443(5) 0.5382(3)
H56_4 H 0.5049 0.8690 0.5045
C97_4 C 0.2395(3) 0.5579(7) 0.5889(3)
C98_4 C 0.2903(3) 0.6058(6) 0.5882(3)
C99_4 C 0.3127(7) 0.6483(18) 0.6253(5)
H57_4 H 0.2968 0.6550 0.6574
C100_4 C 0.3640(7) 0.6911(17) 0.6242(5)
H58_4 H 0.3781 0.7130 0.6576
C101_4 C 0.3890(3) 0.7009(6) 0.5868(3)
C102_4 C 0.3648(5) 0.6619(13) 0.5521(4)
H59_4 H 0.3795 0.6576 0.5191
C103_4 C 0.3155(6) 0.6191(13) 0.5524(4)
H60_4 H 0.3019 0.5991 0.5184
N4_4 N 0.6682(3) 0.9671(5) 0.8614(2)
C104_4 C 0.6340(7) 0.9596(18) 0.8854(4)
H61_4 H 0.6045 0.9424 0.8656
C105_4 C 0.6312(6) 0.9715(16) 0.9355(5)
H62_4 H 0.6006 0.9795 0.9505
C106_4 C 0.6687(6) 0.9723(8) 0.9624(4)
C107_4 C 0.7126(7) 0.9882(14) 0.9379(4)
H63_4 H 0.7421 0.9996 0.9593
C108_4 C 0.7130(6) 0.9876(10) 0.8872(4)
H64_4 H 0.7415 0.9999 0.8690
C124_4 C 0.6601(3) 0.4524(5) 0.6504(3)
C109_4 C 0.6687(5) 0.9815(9) 0.0149(3)
C110_4 C 0.6693(6) 0.9844(10) 0.0594(3)
C111_4 C 0.6686(5) 0.9923(10) 0.1110(4)
C113_4 C 0.7064(7) 0.9552(15) 0.1420(5)
H66_4 H 0.7340 0.9279 0.1274
H67_4 H 0.5817 0.9999 0.4474
H68_4 H 0.5836 0.9915 0.3571
C122_4 C 0.7019(6) 0.9598(12) 0.1928(4)
H71_4 H 0.7255 0.9307 0.2168
loop_
_geom_bond_atom_site_label_1
_geom_bond_atom_site_label_2
_geom_bond_site_symmetry_1
_geom_bond_site_symmetry_2
Zn1 O1 1_555 1_555
O1 C1 1_555 1_555
O2 C1 1_555 1_555
C1 C2 1_555 1_555
C2 C3 1_555 1_555
C3 H1 1_555 1_555
C4 C3 1_555 1_555
H2 C4 1_555 1_555
C5 C4 1_555 1_555
C6 C5 1_555 1_555
H3 C6 1_555 1_555
C7 C2 1_555 1_555
H4 C7 1_555 1_555
O3 C8 1_555 1_555
O4 C8 1_555 1_555
C8 C9 1_555 1_555
C9 C10 1_555 1_555
C11 C10 1_555 1_555
H6 C11 1_555 1_555
C12 C5 1_555 1_555
C13 C12 1_555 1_555
H7 C13 1_555 1_555
C14 C9 1_555 1_555
H8 C14 1_555 1_555
H15 C25 1_555 1_555
H16 C26 1_555 1_555
Zn3 O3 1_555 1_555
Zn7 O4 1_555 1_555
C53 H31 1_555 1_555
C54 C53 1_555 1_555
H32 C54 1_555 1_555
C55 C54 1_555 1_555
C58 C55 1_555 1_555
C59 C58 1_555 1_555
C60 C59 1_555 1_555
C6 C7 1_555 1_555
C11 C12 1_555 1_555
C13 C14 1_555 1_555
C25 C26 1_555 1_555
O5 Zn1_3 1_555 1_555
O6 Zn2 1_555 1_555
C15 O5 1_555 1_555
C16 C15 1_555 1_555
C17 C16 1_555 1_555
C20 C19 1_555 1_555
H11 C20 1_555 1_555
C21 C16 1_555 1_555
H12 C21 1_555 1_555
N1 Zn2 1_555 1_555
H18 C31 1_555 1_555
C61 C31 1_555 1_555
H35 C61 1_555 1_555
Zn2 O5 1_555 1_555
O6 C15 1_555 1_555
C20 C21 1_555 1_555
O10 Zn1_4 1_555 1_555
H17 C30 1_555 1_555
Zn9 N2 1_555 1_555
O11 Zn1_5 1_555 1_555
C62 C30 1_555 1_555
H36 C62 1_555 1_555
O16 Zn1_6 1_555 1_555
O18 Zn9 1_555 1_555
Zn9 O16 1_555 1_555
H13 C22 1_555 1_555
C23 C22 1_555 1_555
H14 C23 1_555 1_555
C24 C23 1_555 1_555
C27 C24 1_555 1_555
C28 C27 1_555 1_555
C29 C28 1_555 1_555
H33 C56 1_555 1_555
H34 C57 1_555 1_555
C56 C57 1_555 1_555
Zn3_2 O9 1_555 1_555
Zn10 O12 1_555 1_555
O7 Zn1_8 1_555 1_555
O8 C32 1_555 1_555
C32 O7 1_555 1_555
C33 C32 1_555 1_555
C34 C33 1_555 1_555
H19 C34 1_555 1_555
C35 C34 1_555 1_555
H20 C35 1_555 1_555
C36 C35 1_555 1_555
C37 C36 1_555 1_555
H21 C37 1_555 1_555
C38 C33 1_555 1_555
H22 C38 1_555 1_555
O9 C39 1_555 1_555
O12 C39 1_555 1_555
C39 C40 1_555 1_555
C40 C41 1_555 1_555
C42 C41 1_555 1_555
H24 C42 1_555 1_555
C43 C36 1_555 1_555
C44 C43 1_555 1_555
H25 C44 1_555 1_555
C45 C40 1_555 1_555
H26 C45 1_555 1_555
O16 C46 1_555 1_555
C46 O18 1_555 1_555
C47 C46 1_555 1_555
C48 C47 1_555 1_555
C51 C50 1_555 1_555
H29 C51 1_555 1_555
C52 C47 1_555 1_555
H30 C52 1_555 1_555
C37 C38 1_555 1_555
C42 C43 1_555 1_555
C44 C45 1_555 1_555
C51 C52 1_555 1_555
H10_2 C18_2 1_555 1_555
Zn7 O8_2 1_555 1_555
O7_2 Zn3 1_555 1_555
O8_2 C32_2 1_555 1_555
C32_2 O7_2 1_555 1_555
C33_2 C32_2 1_555 1_555
C34_2 C33_2 1_555 1_555
H19_2 C34_2 1_555 1_555
C35_2 C34_2 1_555 1_555
H20_2 C35_2 1_555 1_555
C36_2 C35_2 1_555 1_555
C37_2 C36_2 1_555 1_555
H21_2 C37_2 1_555 1_555
C38_2 C33_2 1_555 1_555
H22_2 C38_2 1_555 1_555
O11 C39_2 1_555 1_555
O13 C39_2 1_555 1_555
C39_2 C40_2 1_555 1_555
C40_2 C41_2 1_555 1_555
C42_2 C41_2 1_555 1_555
H24_2 C42_2 1_555 1_555
C43_2 C36_2 1_555 1_555
C44_2 C43_2 1_555 1_555
H25_2 C44_2 1_555 1_555
C45_2 C40_2 1_555 1_555
H26_2 C45_2 1_555 1_555
O16_2 Zn3 1_555 1_555
O18_2 Zn7 1_555 1_555
N3 Zn7 1_555 1_555
Zn7 O16_2 1_555 1_555
C37_2 C38_2 1_555 1_555
C42_2 C43_2 1_555 1_555
C44_2 C45_2 1_555 1_555
Zn3_2 O1_2 1_555 1_555
Zn10 O2_2 1_555 1_555
O1_2 C1_2 1_555 1_555
O2_2 C1_2 1_555 1_555
C1_2 C2_2 1_555 1_555
C2_2 C3_2 1_555 1_555
C3_2 H1_2 1_555 1_555
C4_2 C3_2 1_555 1_555
H2_2 C4_2 1_555 1_555
C5_2 C4_2 1_555 1_555
C6_2 C5_2 1_555 1_555
H3_2 C6_2 1_555 1_555
C7_2 C2_2 1_555 1_555
H4_2 C7_2 1_555 1_555
O10 C8_2 1_555 1_555
O14 C8_2 1_555 1_555
C8_2 C9_2 1_555 1_555
C9_2 C10_2 1_555 1_555
C11_2 C10_2 1_555 1_555
H6_2 C11_2 1_555 1_555
C12_2 C5_2 1_555 1_555
C13_2 C12_2 1_555 1_555
H7_2 C13_2 1_555 1_555
C14_2 C9_2 1_555 1_555
H8_2 C14_2 1_555 1_555
O5_2 Zn3_2 1_555 1_555
O6_2 Zn10 1_555 1_555
C15_2 O5_2 1_555 1_555
C16_2 C15_2 1_555 1_555
C17_2 C16_2 1_555 1_555
C20_2 C19_2 1_555 1_555
H11_2 C20_2 1_555 1_555
C21_2 C16_2 1_555 1_555
H12_2 C21_2 1_555 1_555
N1_2 Zn10 1_555 1_555
C22_2 N1_2 1_555 1_555
H13_2 C22_2 1_555 1_555
C23_2 C22_2 1_555 1_555
H14_2 C23_2 1_555 1_555
C24_2 C23_2 1_555 1_555
C25_2 C24_2 1_555 1_555
H15_2 C25_2 1_555 1_555
C26_2 N1_2 1_555 1_555
H16_2 C26_2 1_555 1_555
C27_2 C24_2 1_555 1_555
C28_2 C27_2 1_555 1_555
C29_2 C28_2 1_555 1_555
C30_2 C29_2 1_555 1_555
H17_2 C30_2 1_555 1_555
C31_2 C29_2 1_555 1_555
H18_2 C31_2 1_555 1_555
N3 C53_2 1_555 1_555
C53_2 H31_2 1_555 1_555
C54_2 C53_2 1_555 1_555
H32_2 C54_2 1_555 1_555
C55_2 C54_2 1_555 1_555
C56_2 C55_2 1_555 1_555
H33_2 C56_2 1_555 1_555
C57_2 N3 1_555 1_555
H34_2 C57_2 1_555 1_555
C58_2 C55_2 1_555 1_555
C59_2 C58_2 1_555 1_555
C60_2 C59_2 1_555 1_555
C61_2 C31_2 1_555 1_555
H35_2 C61_2 1_555 1_555
C62_2 C30_2 1_555 1_555
H36_2 C62_2 1_555 1_555
Zn10 O5_2 1_555 1_555
C6_2 C7_2 1_555 1_555
C11_2 C12_2 1_555 1_555
C13_2 C14_2 1_555 1_555
O6_2 C15_2 1_555 1_555
C20_2 C21_2 1_555 1_555
C25_2 C26_2 1_555 1_555
C56_2 C57_2 1_555 1_555
C60_2 C61_2 1_555 1_555
C60_2 C62_2 1_555 1_555
O16_2 C46_2 1_555 1_555
C46_2 O18_2 1_555 1_555
C47_2 C46_2 1_555 1_555
C48_2 C47_2 1_555 1_555
C51_2 C50_2 1_555 1_555
H29_2 C51_2 1_555 1_555
C52_2 C47_2 1_555 1_555
H30_2 C52_2 1_555 1_555
C51_2 C52_2 1_555 1_555
H28_2 C49_2 1_555 1_555
O23 Zn15 1_555 1_555
O24 Zn12 1_555 1_555
C77 O23 1_555 1_555
C78 C77 1_555 1_555
C79 C78 1_555 1_555
H45 C79 1_555 1_555
C80 C79 1_555 1_555
H46 C80 1_555 1_555
C81 C80 1_555 1_555
C82 C81 1_555 1_555
H47 C82 1_555 1_555
C83 C78 1_555 1_555
H48 C83 1_555 1_555
O25 C84 1_555 1_555
O26 C84 1_555 1_555
C84 C85 1_555 1_555
C85 C86 1_555 1_555
C86 H49 1_555 1_555
C87 C86 1_555 1_555
H50 C87 1_555 1_555
C88 H51 1_555 1_555
C89 C85 1_555 1_555
H52 C89 1_555 1_555
O27 Zn15 1_555 1_555
O28 C90 1_555 1_555
C90 O27 1_555 1_555
C91 C90 1_555 1_555
C92 C91 1_555 1_555
H53 C92 1_555 1_555
C93 C92 1_555 1_555
H54 C93 1_555 1_555
C94 C93 1_555 1_555
C95 C94 1_555 1_555
H55 C95 1_555 1_555
C96 C91 1_555 1_555
H56 C96 1_555 1_555
O29 C97 1_555 1_555
O30 C97 1_555 1_555
C97 C98 1_555 1_555
C98 C99 1_555 1_555
C99 H57 1_555 1_555
C100 C99 1_555 1_555
H58 C100 1_555 1_555
C101 C94 1_555 1_555
C102 C101 1_555 1_555
H59 C102 1_555 1_555
C103 C98 1_555 1_555
H60 C103 1_555 1_555
N4 Zn12 1_555 1_555
C104 N4 1_555 1_555
H61 C104 1_555 1_555
C105 C104 1_555 1_555
H62 C105 1_555 1_555
C106 C105 1_555 1_555
C107 C106 1_555 1_555
H63 C107 1_555 1_555
C108 N4 1_555 1_555
H64 C108 1_555 1_555
C124 C81 1_555 1_555
Zn16 O29 1_555 1_555
Zn18 O25 1_555 1_555
Zn19 O30 1_555 1_555
O35 Zn15 1_555 1_555
Zn12 O23 1_555 1_555
O24 C77 1_555 1_555
C82 C83 1_555 1_555
O26 Zn18 1_555 1_555
C87 C124 1_555 1_555
C88 C89 1_555 1_555
C88 C124 1_555 1_555
C95 C96 1_555 1_555
C100 C101 1_555 1_555
C102 C103 1_555 1_555
C107 C108 1_555 1_555
O19 C63 1_555 1_555
O20 C63 1_555 1_555
C63 C64 1_555 1_555
C64 C65 1_555 1_555
C65 H37 1_555 1_555
C66 C65 1_555 1_555
H38 C66 1_555 1_555
C67 C66 1_555 1_555
C68 C67 1_555 1_555
H39 C68 1_555 1_555
C69 C64 1_555 1_555
H40 C69 1_555 1_555
O21 C70 1_555 1_555
O22 C70 1_555 1_555
C70 C71 1_555 1_555
C71 C72 1_555 1_555
C72 H41 1_555 1_555
C73 C72 1_555 1_555
H42 C73 1_555 1_555
C74 C67 1_555 1_555
C75 C74 1_555 1_555
H43 C75 1_555 1_555
C76 C71 1_555 1_555
H44 C76 1_555 1_555
Zn16 O21 1_555 1_555
Zn17 O22 1_555 1_555
N6 Zn18 1_555 1_555
C68 C69 1_555 1_555
C73 C74 1_555 1_555
C75 C76 1_555 1_555
H65 C112 1_555 1_555
N6 C114 1_555 1_555
C115 C114 1_555 1_555
C116 C115 1_555 1_555
C117 C116 1_555 1_555
H69 C117 1_555 1_555
C118 N6 1_555 1_555
H70 C118 1_555 1_555
C119 C116 1_555 1_555
C120 C119 1_555 1_555
C121 C120 1_555 1_555
C123 C112 1_555 1_555
H72 C123 1_555 1_555
C117 C118 1_555 1_555
C121 C123 1_555 1_555
H38_2 C66_2 1_555 1_555
C67_2 C66_2 1_555 1_555
C68_2 C67_2 1_555 1_555
H39_2 C68_2 1_555 1_555
O31 C70_2 1_555 1_555
O32 C70_2 1_555 1_555
C70_2 C71_2 1_555 1_555
C71_2 C72_2 1_555 1_555
C72_2 H41_2 1_555 1_555
C73_2 C72_2 1_555 1_555
H42_2 C73_2 1_555 1_555
C74_2 C67_2 1_555 1_555
C75_2 C74_2 1_555 1_555
H43_2 C75_2 1_555 1_555
C76_2 C71_2 1_555 1_555
H44_2 C76_2 1_555 1_555
H54_2 C93_2 1_555 1_555
C94_2 C93_2 1_555 1_555
C95_2 C94_2 1_555 1_555
H55_2 C95_2 1_555 1_555
O35 C97_2 1_555 1_555
O36 C97_2 1_555 1_555
C97_2 C98_2 1_555 1_555
C98_2 C99_2 1_555 1_555
C99_2 H57_2 1_555 1_555
C100_2 C99_2 1_555 1_555
H58_2 C100_2 1_555 1_555
C101_2 C94_2 1_555 1_555
C102_2 C101_2 1_555 1_555
H59_2 C102_2 1_555 1_555
C103_2 C98_2 1_555 1_555
H60_2 C103_2 1_555 1_555
C68_2 C69_2 1_555 1_555
C73_2 C74_2 1_555 1_555
C75_2 C76_2 1_555 1_555
C95_2 C96_2 1_555 1_555
C100_2 C101_2 1_555 1_555
C102_2 C103_2 1_555 1_555
Zn16 O19_2 1_555 1_555
Zn17 O20_2 1_555 1_555
Zn19 O28_2 1_555 1_555
O19_2 C63_2 1_555 1_555
O20_2 C63_2 1_555 1_555
C63_2 C64_2 1_555 1_555
C64_2 C65_2 1_555 1_555
C65_2 H37_2 1_555 1_555
O23_2 Zn16 1_555 1_555
O24_2 Zn17 1_555 1_555
C77_2 O23_2 1_555 1_555
C78_2 C77_2 1_555 1_555
C79_2 C78_2 1_555 1_555
H45_2 C79_2 1_555 1_555
C80_2 C79_2 1_555 1_555
H46_2 C80_2 1_555 1_555
C81_2 C80_2 1_555 1_555
C82_2 C81_2 1_555 1_555
H47_2 C82_2 1_555 1_555
C83_2 C78_2 1_555 1_555
H48_2 C83_2 1_555 1_555
O27_2 Zn16 1_555 1_555
O28_2 C90_2 1_555 1_555
C90_2 O27_2 1_555 1_555
C91_2 C90_2 1_555 1_555
C92_2 C91_2 1_555 1_555
H53_2 C92_2 1_555 1_555
N4_2 Zn17 1_555 1_555
C104_2 N4_2 1_555 1_555
H61_2 C104_2 1_555 1_555
C105_2 C104_2 1_555 1_555
H62_2 C105_2 1_555 1_555
C106_2 C105_2 1_555 1_555
C107_2 C106_2 1_555 1_555
H63_2 C107_2 1_555 1_555
C108_2 N4_2 1_555 1_555
H64_2 C108_2 1_555 1_555
O33 Zn16 1_555 1_555
O34 Zn19 1_555 1_555
N6_2 Zn19 1_555 1_555
Zn17 O23_2 1_555 1_555
Zn19 O33 1_555 1_555
O24_2 C77_2 1_555 1_555
C82_2 C83_2 1_555 1_555
C107_2 C108_2 1_555 1_555
C110 C109 1_555 1_555
C111 C110 1_555 1_555
C112_2 C111 1_555 1_555
H65_2 C112_2 1_555 1_555
C113 C111 1_555 1_555
H66 C113 1_555 1_555
N6_2 C114_2 1_555 1_555
C114_2 H67 1_555 1_555
C115_2 C114_2 1_555 1_555
H68 C115_2 1_555 1_555
C116_2 C115_2 1_555 1_555
C117_2 C116_2 1_555 1_555
H69_2 C117_2 1_555 1_555
C118_2 N6_2 1_555 1_555
H70_2 C118_2 1_555 1_555
C119_2 C116_2 1_555 1_555
C120_2 C119_2 1_555 1_555
C121_2 C120_2 1_555 1_555
C122 C113 1_555 1_555
H71 C122 1_555 1_555
C123_2 C112_2 1_555 1_555
H72_2 C123_2 1_555 1_555
C117_2 C118_2 1_555 1_555
C121_2 C122 1_555 1_555
C121_2 C123_2 1_555 1_555
O33 C84_2 1_555 1_555
O34 C84_2 1_555 1_555
C84_2 C85_2 1_555 1_555
C85_2 C86_2 1_555 1_555
C86_2 H49_2 1_555 1_555
C87_2 C86_2 1_555 1_555
H50_2 C87_2 1_555 1_555
C88_2 H51_2 1_555 1_555
C89_2 C85_2 1_555 1_555
H52_2 C89_2 1_555 1_555
C87_2 C124_2 1_555 1_555
C88_2 C89_2 1_555 1_555
C88_2 C124_2 1_555 1_555
C110_2 C109_2 1_555 1_555
C111_2 C110_2 1_555 1_555
C113_2 C111_2 1_555 1_555
H66_2 C113_2 1_555 1_555
C122_2 C113_2 1_555 1_555
H71_2 C122_2 1_555 1_555
O25_2 C84_3 1_555 1_555
O26_2 C84_3 1_555 1_555
C84_3 C85_3 1_555 1_555
C85_3 C86_3 1_555 1_555
C86_3 H49_3 1_555 1_555
C87_3 C86_3 1_555 1_555
H50_3 C87_3 1_555 1_555
C88_3 H51_3 1_555 1_555
C89_3 C85_3 1_555 1_555
H52_3 C89_3 1_555 1_555
Zn15_2 O25_2 1_555 1_555
Zn18_2 O25_2 1_555 1_555
O26_2 Zn18_2 1_555 1_555
C87_3 C124_3 1_555 1_555
C88_3 C89_3 1_555 1_555
C88_3 C124_3 1_555 1_555
C110_3 C109_3 1_555 1_555
C111_3 C110_3 1_555 1_555
C112_3 C111_3 1_555 1_555
H65_3 C112_3 1_555 1_555
C113_3 C111_3 1_555 1_555
H66_3 C113_3 1_555 1_555
N5 C114_3 1_555 1_555
C114_3 H67_3 1_555 1_555
C115_3 C114_3 1_555 1_555
H68_3 C115_3 1_555 1_555
C116_3 C115_3 1_555 1_555
C117_3 C116_3 1_555 1_555
H69_3 C117_3 1_555 1_555
C118_3 N5 1_555 1_555
H70_3 C118_3 1_555 1_555
C119_3 C116_3 1_555 1_555
C120_3 C119_3 1_555 1_555
C121_3 C120_3 1_555 1_555
C122_3 C113_3 1_555 1_555
H71_3 C122_3 1_555 1_555
C123_3 C112_3 1_555 1_555
H72_3 C123_3 1_555 1_555
Zn18_2 N5 1_555 1_555
C117_3 C118_3 1_555 1_555
C121_3 C122_3 1_555 1_555
C121_3 C123_3 1_555 1_555
Zn15_2 O19_3 1_555 1_555
Zn12_2 O20_3 1_555 1_555
Zn18_2 O28_3 1_555 1_555
O19_3 C63_3 1_555 1_555
O20_3 C63_3 1_555 1_555
C63_3 C64_3 1_555 1_555
C64_3 C65_3 1_555 1_555
C65_3 H37_3 1_555 1_555
O23_3 Zn15_2 1_555 1_555
O24_3 Zn12_2 1_555 1_555
C77_3 O23_3 1_555 1_555
C78_3 C77_3 1_555 1_555
C79_3 C78_3 1_555 1_555
H45_3 C79_3 1_555 1_555
C80_3 C79_3 1_555 1_555
H46_3 C80_3 1_555 1_555
C81_3 C80_3 1_555 1_555
C82_3 C81_3 1_555 1_555
H47_3 C82_3 1_555 1_555
C83_3 C78_3 1_555 1_555
H48_3 C83_3 1_555 1_555
O27_3 Zn15_2 1_555 1_555
O28_3 C90_3 1_555 1_555
C90_3 O27_3 1_555 1_555
C91_3 C90_3 1_555 1_555
C92_3 C91_3 1_555 1_555
H53_3 C92_3 1_555 1_555
N4_3 Zn12_2 1_555 1_555
C104_3 N4_3 1_555 1_555
H61_3 C104_3 1_555 1_555
C105_3 C104_3 1_555 1_555
H62_3 C105_3 1_555 1_555
C106_3 C105_3 1_555 1_555
C107_3 C106_3 1_555 1_555
H63_3 C107_3 1_555 1_555
C108_3 N4_3 1_555 1_555
H64_3 C108_3 1_555 1_555
O31_2 Zn15_2 1_555 1_555
O32_2 Zn12_2 1_555 1_555
O35_2 Zn15_2 1_555 1_555
O36_2 Zn18_2 1_555 1_555
Zn12_2 O23_3 1_555 1_555
O24_3 C77_3 1_555 1_555
C82_3 C83_3 1_555 1_555
C107_3 C108_3 1_555 1_555
H38_3 C66_3 1_555 1_555
C67_3 C66_3 1_555 1_555
C68_3 C67_3 1_555 1_555
H39_3 C68_3 1_555 1_555
O21_2 C70_3 1_555 1_555
O22_2 C70_3 1_555 1_555
C70_3 C71_3 1_555 1_555
C71_3 C72_3 1_555 1_555
C72_3 H41_3 1_555 1_555
C73_3 C72_3 1_555 1_555
H42_3 C73_3 1_555 1_555
C74_3 C67_3 1_555 1_555
C75_3 C74_3 1_555 1_555
H43_3 C75_3 1_555 1_555
C76_3 C71_3 1_555 1_555
H44_3 C76_3 1_555 1_555
H54_3 C93_3 1_555 1_555
C94_3 C93_3 1_555 1_555
C95_3 C94_3 1_555 1_555
H55_3 C95_3 1_555 1_555
O29_2 C97_3 1_555 1_555
O30_2 C97_3 1_555 1_555
C97_3 C98_3 1_555 1_555
C98_3 C99_3 1_555 1_555
C99_3 H57_3 1_555 1_555
C100_3 C99_3 1_555 1_555
H58_3 C100_3 1_555 1_555
C101_3 C94_3 1_555 1_555
C102_3 C101_3 1_555 1_555
H59_3 C102_3 1_555 1_555
C103_3 C98_3 1_555 1_555
H60_3 C103_3 1_555 1_555
Zn16_2 O29_2 1_555 1_555
C68_3 C69_3 1_555 1_555
C73_3 C74_3 1_555 1_555
C75_3 C76_3 1_555 1_555
C95_3 C96_3 1_555 1_555
C100_3 C101_3 1_555 1_555
C102_3 C103_3 1_555 1_555
H65_4 C112_4 1_555 1_555
N5_2 C114_4 1_555 1_555
C115_4 C114_4 1_555 1_555
C116_4 C115_4 1_555 1_555
C117_4 C116_4 1_555 1_555
H69_4 C117_4 1_555 1_555
C118_4 N5_2 1_555 1_555
H70_4 C118_4 1_555 1_555
C119_4 C116_4 1_555 1_555
C120_4 C119_4 1_555 1_555
C121_4 C120_4 1_555 1_555
C123_4 C112_4 1_555 1_555
H72_4 C123_4 1_555 1_555
Zn19_2 N5_2 1_555 1_555
C117_4 C118_4 1_555 1_555
C121_4 C123_4 1_555 1_555
O19_4 C63_4 1_555 1_555
O20_4 C63_4 1_555 1_555
C63_4 C64_4 1_555 1_555
C64_4 C65_4 1_555 1_555
C65_4 H37_4 1_555 1_555
C66_4 C65_4 1_555 1_555
H38_4 C66_4 1_555 1_555
C67_4 C66_4 1_555 1_555
C68_4 C67_4 1_555 1_555
H39_4 C68_4 1_555 1_555
C69_4 C64_4 1_555 1_555
H40_4 C69_4 1_555 1_555
O31_2 C70_4 1_555 1_555
O32_2 C70_4 1_555 1_555
C70_4 C71_4 1_555 1_555
C71_4 C72_4 1_555 1_555
C72_4 H41_4 1_555 1_555
C73_4 C72_4 1_555 1_555
H42_4 C73_4 1_555 1_555
C74_4 C67_4 1_555 1_555
C75_4 C74_4 1_555 1_555
H43_4 C75_4 1_555 1_555
C76_4 C71_4 1_555 1_555
H44_4 C76_4 1_555 1_555
O34_2 Zn19_2 1_555 1_555
Zn19_2 O33_2 1_555 1_555
C68_4 C69_4 1_555 1_555
C73_4 C74_4 1_555 1_555
C75_4 C76_4 1_555 1_555
O23_4 Zn16_2 1_555 1_555
O24_4 Zn17_2 1_555 1_555
C77_4 O23_4 1_555 1_555
C78_4 C77_4 1_555 1_555
C79_4 C78_4 1_555 1_555
H45_4 C79_4 1_555 1_555
C80_4 C79_4 1_555 1_555
H46_4 C80_4 1_555 1_555
C81_4 C80_4 1_555 1_555
C82_4 C81_4 1_555 1_555
H47_4 C82_4 1_555 1_555
C83_4 C78_4 1_555 1_555
H48_4 C83_4 1_555 1_555
O33_2 C84_4 1_555 1_555
O34_2 C84_4 1_555 1_555
C84_4 C85_4 1_555 1_555
C85_4 C86_4 1_555 1_555
C86_4 H49_4 1_555 1_555
C87_4 C86_4 1_555 1_555
H50_4 C87_4 1_555 1_555
C88_4 H51_4 1_555 1_555
C89_4 C85_4 1_555 1_555
H52_4 C89_4 1_555 1_555
O27_4 Zn16_2 1_555 1_555
O28_4 C90_4 1_555 1_555
C90_4 O27_4 1_555 1_555
C91_4 C90_4 1_555 1_555
C92_4 C91_4 1_555 1_555
H53_4 C92_4 1_555 1_555
C93_4 C92_4 1_555 1_555
H54_4 C93_4 1_555 1_555
C94_4 C93_4 1_555 1_555
C95_4 C94_4 1_555 1_555
H55_4 C95_4 1_555 1_555
C96_4 C91_4 1_555 1_555
H56_4 C96_4 1_555 1_555
O35_2 C97_4 1_555 1_555
O36_2 C97_4 1_555 1_555
C97_4 C98_4 1_555 1_555
C98_4 C99_4 1_555 1_555
C99_4 H57_4 1_555 1_555
C100_4 C99_4 1_555 1_555
H58_4 C100_4 1_555 1_555
C101_4 C94_4 1_555 1_555
C102_4 C101_4 1_555 1_555
H59_4 C102_4 1_555 1_555
C103_4 C98_4 1_555 1_555
H60_4 C103_4 1_555 1_555
N4_4 Zn17_2 1_555 1_555
C104_4 N4_4 1_555 1_555
H61_4 C104_4 1_555 1_555
C105_4 C104_4 1_555 1_555
H62_4 C105_4 1_555 1_555
C106_4 C105_4 1_555 1_555
C107_4 C106_4 1_555 1_555
H63_4 C107_4 1_555 1_555
C108_4 N4_4 1_555 1_555
H64_4 C108_4 1_555 1_555
C124_4 C81_4 1_555 1_555
Zn17_2 O23_4 1_555 1_555
O24_4 C77_4 1_555 1_555
C82_4 C83_4 1_555 1_555
C87_4 C124_4 1_555 1_555
C88_4 C89_4 1_555 1_555
C88_4 C124_4 1_555 1_555
C95_4 C96_4 1_555 1_555
C100_4 C101_4 1_555 1_555
C102_4 C103_4 1_555 1_555
C107_4 C108_4 1_555 1_555
C110_4 C109_4 1_555 1_555
C111_4 C110_4 1_555 1_555
C113_4 C111_4 1_555 1_555
H66_4 C113_4 1_555 1_555
C122_4 C113_4 1_555 1_555
H71_4 C122_4 1_555 1_555

#END
