
###############################################################################
#
# This file contains modified crystal structure data generated from the
# MOF subset of the Cambridge Structural Database (CSD) v543 
# hosted by the Cambridge Crystallographic Data Centre (CCDC).
#
# This work is licensed under the Creative Commons
# Attribution-NonCommercial-ShareAlike 4.0 International License.
# To view a copy of this license, visit
# http://creativecommons.org/licenses/by-nc-sa/4.0/
# or send a letter to
# Creative Commons, PO Box 1866, Mountain View, CA 94042, USA.
#
# CIF created using the CSD Python API on 29 September 2022
# The structure has been converted into the P1 space group
# The structure has a 3D framework
# The original CSD entry OVEDEA is in the orthorhombic crystal system
# The framework has been calculated to contain at least 10.0% void space
# The void calculation uses a probe of radius 1.32A, grid spacing 0.4
#
###############################################################################

data_OVEDEA
_chemical_formula_moiety         '(C356 H276 Cu32 I10 N36 O64)n'
_symmetry_cell_setting           triclinic
_symmetry_space_group_name_H-M   'P 1'
_symmetry_Int_Tables_number      1
_space_group_name_Hall           'P 1'
loop_
_symmetry_equiv_pos_site_id
_symmetry_equiv_pos_as_xyz
1 x,y,z
_cell_length_a                   33.712(7)
_cell_length_b                   19.058(4)
_cell_length_c                   33.611(7)
_cell_angle_alpha                90
_cell_angle_beta                 90
_cell_angle_gamma                90
_cell_volume                     21594.5
loop_
_atom_site_label
_atom_site_type_symbol
_atom_site_fract_x
_atom_site_fract_y
_atom_site_fract_z
I1 I 0.43138(2) 0.08019(3) 0.2500
Cu1 Cu 0.5000 0.05378(5) 0.28825(3)
Cu3 Cu 0.24313(2) 0.18212(2) 0.49748(2)
O1 O 0.29357(8) 0.18593(14) 0.46852(10)
O2 O 0.30632(8) 0.29953(14) 0.47359(9)
N1 N 0.5000 0.1200(3) 0.33591(16)
N3 N 0.24053(9) 0.06798(15) 0.49896(10)
C1 C 0.46626(13) 0.1394(3) 0.35312(15)
H1 H 0.4425 0.1254 0.3415
C2 C 0.46469(12) 0.1793(3) 0.38751(14)
C3 C 0.5000 0.2005(4) 0.4038(2)
H2 H 0.5000 0.2295 0.4261
C4 C 0.42542(12) 0.1968(3) 0.40591(14)
C5 C 0.39710(15) 0.1461(3) 0.40869(17)
H3 H 0.4021 0.1018 0.3982
C6 C 0.36108(14) 0.1594(3) 0.42683(16)
H4 H 0.3422 0.1240 0.4288
C7 C 0.35309(12) 0.2246(2) 0.44198(13)
C8 C 0.38137(14) 0.2755(3) 0.43932(15)
H5 H 0.3763 0.3198 0.4498
C9 C 0.41801(14) 0.2619(3) 0.42102(16)
H6 H 0.4371 0.2970 0.4192
C10 C 0.31417(11) 0.2375(2) 0.46271(12)
C21 C 0.2800(2) 0.0403(3) 0.4969(2)
H13 H 0.2962 0.0622 0.5173
H14 H 0.2914 0.0513 0.4712
C22 C 0.2191(2) 0.0394(3) 0.4642(2)
H15 H 0.2316 0.0555 0.4399
H16 H 0.1919 0.0559 0.4644
C23 C 0.2198(2) 0.0429(3) 0.5343(2)
H17 H 0.1928 0.0605 0.5341
H18 H 0.2329 0.0609 0.5579
O5 O 0.70643(8) 0.18593(14) 0.46852(10)
O6 O 0.69368(8) 0.29953(14) 0.47359(9)
C24 C 0.53374(13) 0.1394(3) 0.35312(15)
H19 H 0.5575 0.1254 0.3415
C25 C 0.53531(12) 0.1793(3) 0.38751(14)
C26 C 0.57458(12) 0.1968(3) 0.40591(14)
C27 C 0.60290(15) 0.1461(3) 0.40869(17)
H20 H 0.5979 0.1018 0.3982
C28 C 0.63892(14) 0.1594(3) 0.42683(16)
H21 H 0.6578 0.1240 0.4288
C29 C 0.64691(12) 0.2246(2) 0.44198(13)
C30 C 0.61863(14) 0.2755(3) 0.43932(15)
H22 H 0.6237 0.3198 0.4498
C31 C 0.58199(14) 0.2619(3) 0.42102(16)
H23 H 0.5629 0.2970 0.4192
C32 C 0.68583(11) 0.2375(2) 0.46271(12)
Cu4 Cu 0.25687(2) 0.31788(2) 0.50252(2)
I3 I 0.56862(2) 0.08019(3) 0.2500
Cu5 Cu 0.5000 0.05378(5) 0.21175(3)
Cu9 Cu 0.74313(2) 0.31788(2) 0.50252(2)
Cu11 Cu 0.75687(2) 0.18212(2) 0.49748(2)
O9 O 0.20643(8) 0.31407(14) 0.53148(10)
O10 O 0.19368(8) 0.20047(14) 0.52641(9)
O11 O 0.21547(9) 0.19995(15) 0.44706(8)
O12 O 0.28453(9) 0.30005(15) 0.55294(8)
O13 O 0.22720(10) 0.31371(15) 0.45217(9)
O14 O 0.27280(10) 0.18629(15) 0.54783(9)
N5 N 0.25947(9) 0.43202(15) 0.50104(10)
I2 I 0.5000 0.92302(3) 0.31862(2)
Cu2 Cu 0.46159(3) 0.94945(5) 0.2500
O3 O 0.28453(9) 0.69995(15) 0.05294(8)
O4 O 0.27280(10) 0.81371(15) 0.04783(9)
N2 N 0.41369(17) 0.8842(3) 0.2500
C11 C 0.39670(15) 0.8637(3) 0.21620(12)
H7 H 0.4078 0.8787 0.1923
C12 C 0.36347(14) 0.8211(3) 0.21463(12)
C13 C 0.3469(2) 0.8007(4) 0.2500
H8 H 0.3243 0.7727 0.2500
C14 C 0.34511(14) 0.8042(3) 0.17500(12)
C15 C 0.33341(18) 0.7388(3) 0.16597(14)
H9 H 0.3373 0.7030 0.1844
C16 C 0.31573(17) 0.7236(3) 0.13002(14)
H10 H 0.3093 0.6774 0.1238
C17 C 0.30751(13) 0.7760(2) 0.10345(12)
C18 C 0.31886(18) 0.8421(3) 0.11278(14)
H11 H 0.3136 0.8784 0.0951
C19 C 0.33819(19) 0.8567(3) 0.14829(15)
H12 H 0.3464 0.9023 0.1539
C20 C 0.28658(12) 0.7621(2) 0.06512(12)
O7 O 0.28453(9) 0.69995(15) 0.44706(8)
O8 O 0.27280(10) 0.81371(15) 0.45217(9)
C33 C 0.39670(15) 0.8637(3) 0.28380(12)
H24 H 0.4078 0.8787 0.3077
C34 C 0.36347(14) 0.8211(3) 0.28537(12)
C35 C 0.34511(14) 0.8042(3) 0.32500(12)
C36 C 0.33341(18) 0.7388(3) 0.33403(14)
H25 H 0.3373 0.7030 0.3156
C37 C 0.31573(17) 0.7236(3) 0.36998(14)
H26 H 0.3093 0.6774 0.3762
C38 C 0.30751(13) 0.7760(2) 0.39655(12)
C39 C 0.31886(18) 0.8421(3) 0.38722(14)
H27 H 0.3136 0.8784 0.4049
C40 C 0.33819(19) 0.8567(3) 0.35171(15)
H28 H 0.3464 0.9023 0.3461
C41 C 0.28658(12) 0.7621(2) 0.43488(12)
N4 N 0.24053(9) 0.93202(15) 0.50104(10)
C42 C 0.2800(2) 0.9597(3) 0.5031(2)
H29 H 0.2962 0.9378 0.4827
H30 H 0.2914 0.9487 0.5288
C43 C 0.2191(2) 0.9606(3) 0.5358(2)
H31 H 0.2316 0.9445 0.5601
H32 H 0.1919 0.9441 0.5356
C44 C 0.2198(2) 0.9571(3) 0.4657(2)
H33 H 0.1928 0.9395 0.4659
H34 H 0.2329 0.9391 0.4421
I4 I 0.5000 0.92302(3) 0.18138(2)
Cu6 Cu 0.53841(3) 0.94945(5) 0.2500
Cu7 Cu 0.24313(2) 0.81788(2) 0.50252(2)
Cu8 Cu 0.25687(2) 0.68212(2) 0.00252(2)
Cu12 Cu 0.25687(2) 0.68212(2) 0.49748(2)
Cu10 Cu 0.24313(2) 0.81788(2) 0.99748(2)
N4_2 N 0.75947(9) 0.06798(15) 0.00104(10)
C42_2 C 0.7200(2) 0.0403(3) 0.0031(2)
H30_2 H 0.7086 0.0513 0.0288
C43_2 C 0.7809(2) 0.0394(3) 0.0358(2)
H31_2 H 0.7684 0.0555 0.0601
H32_2 H 0.8081 0.0559 0.0356
Cu7_2 Cu 0.75687(2) 0.18212(2) 0.00252(2)
I2_2 I 0.5000 0.07698(3) 0.81862(2)
Cu2_2 Cu 0.53841(3) 0.05055(5) 0.7500
O3_2 O 0.71547(9) 0.30005(15) 0.55294(8)
O4_2 O 0.72720(10) 0.18629(15) 0.54783(9)
N2_2 N 0.58631(17) 0.1158(3) 0.7500
C11_2 C 0.60330(15) 0.1363(3) 0.71620(12)
H7_2 H 0.5922 0.1213 0.6923
C12_2 C 0.63653(14) 0.1789(3) 0.71463(12)
C13_2 C 0.6531(2) 0.1993(4) 0.7500
H8_2 H 0.6757 0.2273 0.7500
C14_2 C 0.65489(14) 0.1958(3) 0.67500(12)
C15_2 C 0.66659(18) 0.2612(3) 0.66597(14)
H9_2 H 0.6627 0.2970 0.6844
C16_2 C 0.68427(17) 0.2764(3) 0.63002(14)
H10_2 H 0.6907 0.3226 0.6238
C17_2 C 0.69249(13) 0.2240(2) 0.60345(12)
C18_2 C 0.68114(18) 0.1579(3) 0.61278(14)
H11_2 H 0.6864 0.1216 0.5951
C19_2 C 0.66181(19) 0.1433(3) 0.64829(15)
H12_2 H 0.6536 0.0977 0.6539
C20_2 C 0.71342(12) 0.2379(2) 0.56512(12)
O7_2 O 0.71547(9) 0.30005(15) 0.94706(8)
O8_2 O 0.72720(10) 0.18629(15) 0.95217(9)
C33_2 C 0.60330(15) 0.1363(3) 0.78380(12)
H24_2 H 0.5922 0.1213 0.8077
C34_2 C 0.63653(14) 0.1789(3) 0.78537(12)
C35_2 C 0.65489(14) 0.1958(3) 0.82500(12)
C36_2 C 0.66659(18) 0.2612(3) 0.83403(14)
H25_2 H 0.6627 0.2970 0.8156
C37_2 C 0.68427(17) 0.2764(3) 0.86998(14)
H26_2 H 0.6907 0.3226 0.8762
C38_2 C 0.69249(13) 0.2240(2) 0.89655(12)
C39_2 C 0.68114(18) 0.1579(3) 0.88722(14)
H27_2 H 0.6864 0.1216 0.9049
C40_2 C 0.66181(19) 0.1433(3) 0.85171(15)
H28_2 H 0.6536 0.0977 0.8461
C41_2 C 0.71342(12) 0.2379(2) 0.93488(12)
H29_2 H 0.7038 0.0622 0.9827
C44_2 C 0.7802(2) 0.0429(3) 0.9657(2)
H33_2 H 0.8072 0.0605 0.9659
H34_2 H 0.7671 0.0609 0.9421
I4_2 I 0.5000 0.07698(3) 0.68138(2)
Cu6_2 Cu 0.46159(3) 0.05055(5) 0.7500
Cu12_2 Cu 0.74313(2) 0.31788(2) 0.99748(2)
H13_2 H 0.7038 0.9378 0.0173
C23_2 C 0.7802(2) 0.9571(3) 0.0343(2)
H17_2 H 0.8072 0.9395 0.0341
H18_2 H 0.7671 0.9391 0.0579
Cu4_2 Cu 0.74313(2) 0.68212(2) 0.00252(2)
O9_2 O 0.79357(8) 0.68593(14) 0.03148(10)
O10_2 O 0.80632(8) 0.79953(14) 0.02641(9)
O12_2 O 0.71547(9) 0.69995(15) 0.05294(8)
O14_2 O 0.72720(10) 0.81371(15) 0.04783(9)
N5_2 N 0.74053(9) 0.56798(15) 0.00104(10)
I1_2 I 0.56862(2) 0.91981(3) 0.7500
Cu1_2 Cu 0.5000 0.94622(5) 0.78825(3)
Cu3_2 Cu 0.75687(2) 0.81788(2) 0.99748(2)
O1_2 O 0.70643(8) 0.81407(14) 0.96852(10)
O2_2 O 0.69368(8) 0.70047(14) 0.97359(9)
N1_2 N 0.5000 0.8800(3) 0.83591(16)
N3_2 N 0.75947(9) 0.93202(15) 0.99896(10)
C1_2 C 0.53374(13) 0.8606(3) 0.85312(15)
H1_2 H 0.5575 0.8746 0.8415
C2_2 C 0.53531(12) 0.8207(3) 0.88751(14)
C3_2 C 0.5000 0.7995(4) 0.9038(2)
H2_2 H 0.5000 0.7705 0.9261
C4_2 C 0.57458(12) 0.8032(3) 0.90591(14)
C5_2 C 0.60290(15) 0.8539(3) 0.90869(17)
H3_2 H 0.5979 0.8982 0.8982
C6_2 C 0.63892(14) 0.8406(3) 0.92683(16)
H4_2 H 0.6578 0.8760 0.9288
C7_2 C 0.64691(12) 0.7754(2) 0.94198(13)
C8_2 C 0.61863(14) 0.7245(3) 0.93932(15)
H5_2 H 0.6237 0.6802 0.9498
C9_2 C 0.58199(14) 0.7381(3) 0.92102(16)
H6_2 H 0.5629 0.7030 0.9192
C10_2 C 0.68583(11) 0.7625(2) 0.96271(12)
C21_2 C 0.7200(2) 0.9597(3) 0.9969(2)
H14_2 H 0.7086 0.9487 0.9712
C22_2 C 0.7809(2) 0.9606(3) 0.9642(2)
H15_2 H 0.7684 0.9445 0.9399
H16_2 H 0.8081 0.9441 0.9644
O5_2 O 0.29357(8) 0.81407(14) 0.96852(10)
O6_2 O 0.30632(8) 0.70047(14) 0.97359(9)
C24_2 C 0.46626(13) 0.8606(3) 0.85312(15)
H19_2 H 0.4425 0.8746 0.8415
C25_2 C 0.46469(12) 0.8207(3) 0.88751(14)
C26_2 C 0.42542(12) 0.8032(3) 0.90591(14)
C27_2 C 0.39710(15) 0.8539(3) 0.90869(17)
H20_2 H 0.4021 0.8982 0.8982
C28_2 C 0.36108(14) 0.8406(3) 0.92683(16)
H21_2 H 0.3422 0.8760 0.9288
C29_2 C 0.35309(12) 0.7754(2) 0.94198(13)
C30_2 C 0.38137(14) 0.7245(3) 0.93932(15)
H22_2 H 0.3763 0.6802 0.9498
C31_2 C 0.41801(14) 0.7381(3) 0.92102(16)
H23_2 H 0.4371 0.7030 0.9192
C32_2 C 0.31417(11) 0.7625(2) 0.96271(12)
I3_2 I 0.43138(2) 0.91981(3) 0.7500
Cu5_2 Cu 0.5000 0.94622(5) 0.71175(3)
O11_2 O 0.78453(9) 0.80005(15) 0.94706(8)
O13_2 O 0.77280(10) 0.68629(15) 0.95217(9)
O1_3 O 0.70643(8) 0.18593(14) 0.03148(10)
O2_3 O 0.69368(8) 0.29953(14) 0.02641(9)
N1_3 N 0.5000 0.1200(3) 0.16409(16)
C1_3 C 0.53374(13) 0.1394(3) 0.14688(15)
H1_3 H 0.5575 0.1254 0.1585
C2_3 C 0.53531(12) 0.1793(3) 0.11249(14)
C3_3 C 0.5000 0.2005(4) 0.0962(2)
H2_3 H 0.5000 0.2295 0.0739
C4_3 C 0.57458(12) 0.1968(3) 0.09409(14)
C5_3 C 0.60290(15) 0.1461(3) 0.09131(17)
H3_3 H 0.5979 0.1018 0.1018
C6_3 C 0.63892(14) 0.1594(3) 0.07317(16)
H4_3 H 0.6578 0.1240 0.0712
C7_3 C 0.64691(12) 0.2246(2) 0.05802(13)
C8_3 C 0.61863(14) 0.2755(3) 0.06068(15)
H5_3 H 0.6237 0.3198 0.0502
C9_3 C 0.58199(14) 0.2619(3) 0.07898(16)
H6_3 H 0.5629 0.2970 0.0808
C10_3 C 0.68583(11) 0.2375(2) 0.03729(12)
O5_3 O 0.29357(8) 0.18593(14) 0.03148(10)
O6_3 O 0.30632(8) 0.29953(14) 0.02641(9)
C24_3 C 0.46626(13) 0.1394(3) 0.14688(15)
H19_3 H 0.4425 0.1254 0.1585
C25_3 C 0.46469(12) 0.1793(3) 0.11249(14)
C26_3 C 0.42542(12) 0.1968(3) 0.09409(14)
C27_3 C 0.39710(15) 0.1461(3) 0.09131(17)
H20_3 H 0.4021 0.1018 0.1018
C28_3 C 0.36108(14) 0.1594(3) 0.07317(16)
H21_3 H 0.3422 0.1240 0.0712
C29_3 C 0.35309(12) 0.2246(2) 0.05802(13)
C30_3 C 0.38137(14) 0.2755(3) 0.06068(15)
H22_3 H 0.3763 0.3198 0.0502
C31_3 C 0.41801(14) 0.2619(3) 0.07898(16)
H23_3 H 0.4371 0.2970 0.0808
C32_3 C 0.31417(11) 0.2375(2) 0.03729(12)
Cu11_2 Cu 0.24313(2) 0.18212(2) 0.00252(2)
O11_3 O 0.78453(9) 0.19995(15) 0.05294(8)
O13_3 O 0.77280(10) 0.31371(15) 0.04783(9)
Cu9_2 Cu 0.25687(2) 0.31788(2) 0.99748(2)
O9_3 O 0.79357(8) 0.31407(14) 0.96852(10)
O10_3 O 0.80632(8) 0.20047(14) 0.97359(9)
N5_3 N 0.74053(9) 0.43202(15) 0.99896(10)
O3_3 O 0.71547(9) 0.69995(15) 0.44706(8)
O4_3 O 0.72720(10) 0.81371(15) 0.45217(9)
N2_3 N 0.58631(17) 0.8842(3) 0.2500
C11_3 C 0.60330(15) 0.8637(3) 0.28380(12)
H7_3 H 0.5922 0.8787 0.3077
C12_3 C 0.63653(14) 0.8211(3) 0.28537(12)
C13_3 C 0.6531(2) 0.8007(4) 0.2500
H8_3 H 0.6757 0.7727 0.2500
C14_3 C 0.65489(14) 0.8042(3) 0.32500(12)
C15_3 C 0.66659(18) 0.7388(3) 0.33403(14)
H9_3 H 0.6627 0.7030 0.3156
C16_3 C 0.68427(17) 0.7236(3) 0.36998(14)
H10_3 H 0.6907 0.6774 0.3762
C17_3 C 0.69249(13) 0.7760(2) 0.39655(12)
C18_3 C 0.68114(18) 0.8421(3) 0.38722(14)
H11_3 H 0.6864 0.8784 0.4049
C19_3 C 0.66181(19) 0.8567(3) 0.35171(15)
H12_3 H 0.6536 0.9023 0.3461
C20_3 C 0.71342(12) 0.7621(2) 0.43488(12)
C33_3 C 0.60330(15) 0.8637(3) 0.21620(12)
H24_3 H 0.5922 0.8787 0.1923
C34_3 C 0.63653(14) 0.8211(3) 0.21463(12)
C35_3 C 0.65489(14) 0.8042(3) 0.17500(12)
C36_3 C 0.66659(18) 0.7388(3) 0.16597(14)
H25_3 H 0.6627 0.7030 0.1844
C37_3 C 0.68427(17) 0.7236(3) 0.13002(14)
H26_3 H 0.6907 0.6774 0.1238
C38_3 C 0.69249(13) 0.7760(2) 0.10345(12)
C39_3 C 0.68114(18) 0.8421(3) 0.11278(14)
H27_3 H 0.6864 0.8784 0.0951
C40_3 C 0.66181(19) 0.8567(3) 0.14829(15)
H28_3 H 0.6536 0.9023 0.1539
C41_3 C 0.71342(12) 0.7621(2) 0.06512(12)
Cu8_2 Cu 0.74313(2) 0.68212(2) 0.49748(2)
Cu10_2 Cu 0.75687(2) 0.81788(2) 0.50252(2)
O3_4 O 0.28453(9) 0.30005(15) 0.94706(8)
O4_4 O 0.27280(10) 0.18629(15) 0.95217(9)
N2_4 N 0.41369(17) 0.1158(3) 0.7500
C11_4 C 0.39670(15) 0.1363(3) 0.78380(12)
H7_4 H 0.4078 0.1213 0.8077
C12_4 C 0.36347(14) 0.1789(3) 0.78537(12)
C13_4 C 0.3469(2) 0.1993(4) 0.7500
H8_4 H 0.3243 0.2273 0.7500
C14_4 C 0.34511(14) 0.1958(3) 0.82500(12)
C15_4 C 0.33341(18) 0.2612(3) 0.83403(14)
H9_4 H 0.3373 0.2970 0.8156
C16_4 C 0.31573(17) 0.2764(3) 0.86998(14)
H10_4 H 0.3093 0.3226 0.8762
C17_4 C 0.30751(13) 0.2240(2) 0.89655(12)
C18_4 C 0.31886(18) 0.1579(3) 0.88722(14)
H11_4 H 0.3136 0.1216 0.9049
C19_4 C 0.33819(19) 0.1433(3) 0.85171(15)
H12_4 H 0.3464 0.0977 0.8461
C20_4 C 0.28658(12) 0.2379(2) 0.93488(12)
C33_4 C 0.39670(15) 0.1363(3) 0.71620(12)
H24_4 H 0.4078 0.1213 0.6923
C34_4 C 0.36347(14) 0.1789(3) 0.71463(12)
C35_4 C 0.34511(14) 0.1958(3) 0.67500(12)
C36_4 C 0.33341(18) 0.2612(3) 0.66597(14)
H25_4 H 0.3373 0.2970 0.6844
C37_4 C 0.31573(17) 0.2764(3) 0.63002(14)
H26_4 H 0.3093 0.3226 0.6238
C38_4 C 0.30751(13) 0.2240(2) 0.60345(12)
C39_4 C 0.31886(18) 0.1579(3) 0.61278(14)
H27_4 H 0.3136 0.1216 0.5951
C40_4 C 0.33819(19) 0.1433(3) 0.64829(15)
H28_4 H 0.3464 0.0977 0.6539
C41_4 C 0.28658(12) 0.2379(2) 0.56512(12)
O1_4 O 0.29357(8) 0.81407(14) 0.53148(10)
O2_4 O 0.30632(8) 0.70047(14) 0.52641(9)
N1_4 N 0.5000 0.8800(3) 0.66409(16)
C1_4 C 0.46626(13) 0.8606(3) 0.64688(15)
H1_4 H 0.4425 0.8746 0.6585
C2_4 C 0.46469(12) 0.8207(3) 0.61249(14)
C3_4 C 0.5000 0.7995(4) 0.5962(2)
H2_4 H 0.5000 0.7705 0.5739
C4_4 C 0.42542(12) 0.8032(3) 0.59409(14)
C5_4 C 0.39710(15) 0.8539(3) 0.59131(17)
H3_4 H 0.4021 0.8982 0.6018
C6_4 C 0.36108(14) 0.8406(3) 0.57317(16)
H4_4 H 0.3422 0.8760 0.5712
C7_4 C 0.35309(12) 0.7754(2) 0.55802(13)
C8_4 C 0.38137(14) 0.7245(3) 0.56068(15)
H5_4 H 0.3763 0.6802 0.5502
C9_4 C 0.41801(14) 0.7381(3) 0.57898(16)
H6_4 H 0.4371 0.7030 0.5808
C10_4 C 0.31417(11) 0.7625(2) 0.53729(12)
O5_4 O 0.70643(8) 0.81407(14) 0.53148(10)
O6_4 O 0.69368(8) 0.70047(14) 0.52641(9)
C24_4 C 0.53374(13) 0.8606(3) 0.64688(15)
H19_4 H 0.5575 0.8746 0.6585
C25_4 C 0.53531(12) 0.8207(3) 0.61249(14)
C26_4 C 0.57458(12) 0.8032(3) 0.59409(14)
C27_4 C 0.60290(15) 0.8539(3) 0.59131(17)
H20_4 H 0.5979 0.8982 0.6018
C28_4 C 0.63892(14) 0.8406(3) 0.57317(16)
H21_4 H 0.6578 0.8760 0.5712
C29_4 C 0.64691(12) 0.7754(2) 0.55802(13)
C30_4 C 0.61863(14) 0.7245(3) 0.56068(15)
H22_4 H 0.6237 0.6802 0.5502
C31_4 C 0.58199(14) 0.7381(3) 0.57898(16)
H23_4 H 0.5629 0.7030 0.5808
C32_4 C 0.68583(11) 0.7625(2) 0.53729(12)
O9_4 O 0.20643(8) 0.68593(14) 0.46852(10)
O10_4 O 0.19368(8) 0.79953(14) 0.47359(9)
O11_4 O 0.21547(9) 0.80005(15) 0.55294(8)
O13_4 O 0.22720(10) 0.68629(15) 0.54783(9)
N5_4 N 0.25947(9) 0.56798(15) 0.49896(10)
I2_3 I -0.0000 0.42302(3) 0.31862(2)
Cu1_3 Cu -0.0000 0.55378(5) 0.28825(3)
N1_5 N -0.0000 0.6200(3) 0.33591(16)
C3_5 C 0.0000 0.7005(4) 0.4038(2)
H2_5 H -0.0000 0.7295 0.4261
C24_5 C 0.03374(13) 0.6394(3) 0.35312(15)
H19_5 H 0.0575 0.6254 0.3415
C25_5 C 0.03531(12) 0.6793(3) 0.38751(14)
C26_5 C 0.07458(12) 0.6968(3) 0.40591(14)
C27_5 C 0.10290(15) 0.6461(3) 0.40869(17)
H20_5 H 0.0979 0.6018 0.3982
C28_5 C 0.13892(14) 0.6594(3) 0.42683(16)
H21_5 H 0.1578 0.6240 0.4288
C29_5 C 0.14691(12) 0.7246(2) 0.44198(13)
C30_5 C 0.11863(14) 0.7755(3) 0.43932(15)
H22_5 H 0.1237 0.8198 0.4498
C31_5 C 0.08199(14) 0.7619(3) 0.42102(16)
H23_5 H 0.0629 0.7970 0.4192
C32_5 C 0.18583(11) 0.7375(2) 0.46271(12)
I3_3 I 0.06862(2) 0.58019(3) 0.2500
I4_3 I -0.0000 0.42302(3) 0.18138(2)
Cu5_3 Cu 0.0000 0.55378(5) 0.21175(3)
Cu6_3 Cu 0.03841(3) 0.44945(5) 0.2500
I1_3 I 0.93138(2) 0.58019(3) 0.2500
I2_4 I 1.0000 0.42302(3) 0.31862(2)
Cu1_4 Cu 1.0000 0.55378(5) 0.28825(3)
Cu2_3 Cu 0.96159(3) 0.44945(5) 0.2500
O1_5 O 0.79357(8) 0.68593(14) 0.46852(10)
O2_5 O 0.80632(8) 0.79953(14) 0.47359(9)
N1_6 N 1.0000 0.6200(3) 0.33591(16)
N2_5 N 0.91369(17) 0.3842(3) 0.2500
N3_3 N 0.74053(9) 0.56798(15) 0.49896(10)
C1_5 C 0.96626(13) 0.6394(3) 0.35312(15)
H1_5 H 0.9425 0.6254 0.3415
C2_5 C 0.96469(12) 0.6793(3) 0.38751(14)
C3_6 C 1.0000 0.7005(4) 0.4038(2)
H2_6 H 1.0000 0.7295 0.4261
C4_5 C 0.92542(12) 0.6968(3) 0.40591(14)
C5_5 C 0.89710(15) 0.6461(3) 0.40869(17)
H3_5 H 0.9021 0.6018 0.3982
C6_5 C 0.86108(14) 0.6594(3) 0.42683(16)
H4_5 H 0.8422 0.6240 0.4288
C7_5 C 0.85309(12) 0.7246(2) 0.44198(13)
C8_5 C 0.88137(14) 0.7755(3) 0.43932(15)
H5_5 H 0.8763 0.8198 0.4498
C9_5 C 0.91801(14) 0.7619(3) 0.42102(16)
H6_5 H 0.9371 0.7970 0.4192
C10_5 C 0.81417(11) 0.7375(2) 0.46271(12)
C11_5 C 0.89670(15) 0.3637(3) 0.21620(12)
H7_5 H 0.9078 0.3787 0.1923
C12_5 C 0.86347(14) 0.3211(3) 0.21463(12)
C13_5 C 0.8469(2) 0.3007(4) 0.2500
H8_5 H 0.8243 0.2727 0.2500
C14_5 C 0.84511(14) 0.3042(3) 0.17500(12)
C15_5 C 0.83341(18) 0.2388(3) 0.16597(14)
H9_5 H 0.8373 0.2030 0.1844
C16_5 C 0.81573(17) 0.2236(3) 0.13002(14)
H10_5 H 0.8093 0.1774 0.1238
C17_5 C 0.80751(13) 0.2760(2) 0.10345(12)
C18_5 C 0.81886(18) 0.3421(3) 0.11278(14)
H11_5 H 0.8136 0.3784 0.0951
C19_5 C 0.83819(19) 0.3567(3) 0.14829(15)
H12_5 H 0.8464 0.4023 0.1539
C20_5 C 0.78658(12) 0.2621(2) 0.06512(12)
C21_3 C 0.7800(2) 0.5403(3) 0.4969(2)
H13_3 H 0.7962 0.5622 0.5173
H14_3 H 0.7914 0.5513 0.4712
C22_3 C 0.7191(2) 0.5394(3) 0.4642(2)
H15_3 H 0.7316 0.5555 0.4399
H16_3 H 0.6919 0.5559 0.4644
C23_3 C 0.7198(2) 0.5429(3) 0.5343(2)
H17_3 H 0.6928 0.5605 0.5341
H18_3 H 0.7329 0.5609 0.5579
O7_3 O 0.78453(9) 0.19995(15) 0.44706(8)
O8_3 O 0.77280(10) 0.31371(15) 0.45217(9)
C33_5 C 0.89670(15) 0.3637(3) 0.28380(12)
H24_5 H 0.9078 0.3787 0.3077
C34_5 C 0.86347(14) 0.3211(3) 0.28537(12)
C35_5 C 0.84511(14) 0.3042(3) 0.32500(12)
C36_5 C 0.83341(18) 0.2388(3) 0.33403(14)
H25_5 H 0.8373 0.2030 0.3156
C37_5 C 0.81573(17) 0.2236(3) 0.36998(14)
H26_5 H 0.8093 0.1774 0.3762
C38_5 C 0.80751(13) 0.2760(2) 0.39655(12)
C39_5 C 0.81886(18) 0.3421(3) 0.38722(14)
H27_5 H 0.8136 0.3784 0.4049
C40_5 C 0.83819(19) 0.3567(3) 0.35171(15)
H28_5 H 0.8464 0.4023 0.3461
C41_5 C 0.78658(12) 0.2621(2) 0.43488(12)
N4_3 N 0.74053(9) 0.43202(15) 0.50104(10)
C42_3 C 0.7800(2) 0.4597(3) 0.5031(2)
H29_3 H 0.7962 0.4378 0.4827
H30_3 H 0.7914 0.4487 0.5288
C43_3 C 0.7191(2) 0.4606(3) 0.5358(2)
H31_3 H 0.7316 0.4445 0.5601
H32_3 H 0.6919 0.4441 0.5356
C44_3 C 0.7198(2) 0.4571(3) 0.4657(2)
H33_3 H 0.6928 0.4395 0.4659
H34_3 H 0.7329 0.4391 0.4421
I4_4 I 1.0000 0.42302(3) 0.18138(2)
Cu5_4 Cu 1.0000 0.55378(5) 0.21175(3)
O12_3 O 0.78453(9) 0.80005(15) 0.55294(8)
O14_3 O 0.77280(10) 0.68629(15) 0.54783(9)
N5_5 N 0.75947(9) 0.93202(15) 0.50104(10)
H13_4 H 0.2038 0.4378 0.0173
C23_4 C 0.2802(2) 0.4571(3) 0.0343(2)
H17_4 H 0.3072 0.4395 0.0341
H18_4 H 0.2671 0.4391 0.0579
N4_4 N 0.25947(9) 0.56798(15) 0.00104(10)
C42_4 C 0.2200(2) 0.5403(3) 0.0031(2)
H30_4 H 0.2086 0.5513 0.0288
C43_4 C 0.2809(2) 0.5394(3) 0.0358(2)
H31_4 H 0.2684 0.5555 0.0601
H32_4 H 0.3081 0.5559 0.0356
O12_4 O 0.21547(9) 0.19995(15) 0.05294(8)
O14_4 O 0.22720(10) 0.31371(15) 0.04783(9)
N5_6 N 0.24053(9) 0.06798(15) 0.00104(10)
I1_4 I 0.06862(2) 0.41981(3) 0.7500
I2_5 I -0.0000 0.57698(3) 0.81862(2)
Cu1_5 Cu 0.0000 0.44622(5) 0.78825(3)
Cu2_4 Cu 0.03841(3) 0.55055(5) 0.7500
O1_6 O 0.20643(8) 0.31407(14) 0.96852(10)
O2_6 O 0.19368(8) 0.20047(14) 0.97359(9)
N1_7 N -0.0000 0.3800(3) 0.83591(16)
N2_6 N 0.08631(17) 0.6158(3) 0.7500
N3_4 N 0.25947(9) 0.43202(15) 0.99896(10)
C1_6 C 0.03374(13) 0.3606(3) 0.85312(15)
H1_6 H 0.0575 0.3746 0.8415
C2_6 C 0.03531(12) 0.3207(3) 0.88751(14)
C3_7 C -0.0000 0.2995(4) 0.9038(2)
H2_7 H -0.0000 0.2705 0.9261
C4_6 C 0.07458(12) 0.3032(3) 0.90591(14)
C5_6 C 0.10290(15) 0.3539(3) 0.90869(17)
H3_6 H 0.0979 0.3982 0.8982
C6_6 C 0.13892(14) 0.3406(3) 0.92683(16)
H4_6 H 0.1578 0.3760 0.9288
C7_6 C 0.14691(12) 0.2754(2) 0.94198(13)
C8_6 C 0.11863(14) 0.2245(3) 0.93932(15)
H5_6 H 0.1237 0.1802 0.9498
C9_6 C 0.08199(14) 0.2381(3) 0.92102(16)
H6_6 H 0.0629 0.2030 0.9192
C10_6 C 0.18583(11) 0.2625(2) 0.96271(12)
C11_6 C 0.10330(15) 0.6363(3) 0.71620(12)
H7_6 H 0.0922 0.6213 0.6923
C12_6 C 0.13653(14) 0.6789(3) 0.71463(12)
C13_6 C 0.1531(2) 0.6993(4) 0.7500
H8_6 H 0.1757 0.7273 0.7500
C14_6 C 0.15489(14) 0.6958(3) 0.67500(12)
C15_6 C 0.16659(18) 0.7612(3) 0.66597(14)
H9_6 H 0.1627 0.7970 0.6844
C16_6 C 0.18427(17) 0.7764(3) 0.63002(14)
H10_6 H 0.1907 0.8226 0.6238
C17_6 C 0.19249(13) 0.7240(2) 0.60345(12)
C18_6 C 0.18114(18) 0.6579(3) 0.61278(14)
H11_6 H 0.1864 0.6216 0.5951
C19_6 C 0.16181(19) 0.6433(3) 0.64829(15)
H12_6 H 0.1536 0.5977 0.6539
C20_6 C 0.21342(12) 0.7379(2) 0.56512(12)
C21_4 C 0.2200(2) 0.4597(3) 0.9969(2)
H14_4 H 0.2086 0.4487 0.9712
C22_4 C 0.2809(2) 0.4606(3) 0.9642(2)
H15_4 H 0.2684 0.4445 0.9399
H16_4 H 0.3081 0.4441 0.9644
O7_4 O 0.21547(9) 0.80005(15) 0.94706(8)
O8_4 O 0.22720(10) 0.68629(15) 0.95217(9)
C33_6 C 0.10330(15) 0.6363(3) 0.78380(12)
H24_6 H 0.0922 0.6213 0.8077
C34_6 C 0.13653(14) 0.6789(3) 0.78537(12)
C35_6 C 0.15489(14) 0.6958(3) 0.82500(12)
C36_6 C 0.16659(18) 0.7612(3) 0.83403(14)
H25_6 H 0.1627 0.7970 0.8156
C37_6 C 0.18427(17) 0.7764(3) 0.86998(14)
H26_6 H 0.1907 0.8226 0.8762
C38_6 C 0.19249(13) 0.7240(2) 0.89655(12)
C39_6 C 0.18114(18) 0.6579(3) 0.88722(14)
H27_6 H 0.1864 0.6216 0.9049
C40_6 C 0.16181(19) 0.6433(3) 0.85171(15)
H28_6 H 0.1536 0.5977 0.8461
C41_6 C 0.21342(12) 0.7379(2) 0.93488(12)
H29_4 H 0.2038 0.5622 0.9827
C44_4 C 0.2802(2) 0.5429(3) 0.9657(2)
H33_4 H 0.3072 0.5605 0.9659
H34_4 H 0.2671 0.5609 0.9421
I4_5 I -0.0000 0.57698(3) 0.68138(2)
Cu5_5 Cu -0.0000 0.44622(5) 0.71175(3)
I2_6 I 1.0000 0.57698(3) 0.81862(2)
Cu1_6 Cu 1.0000 0.44622(5) 0.78825(3)
N1_8 N 1.0000 0.3800(3) 0.83591(16)
C3_8 C 1.0000 0.2995(4) 0.9038(2)
H2_8 H 1.0000 0.2705 0.9261
C24_6 C 0.96626(13) 0.3606(3) 0.85312(15)
H19_6 H 0.9425 0.3746 0.8415
C25_6 C 0.96469(12) 0.3207(3) 0.88751(14)
C26_6 C 0.92542(12) 0.3032(3) 0.90591(14)
C27_6 C 0.89710(15) 0.3539(3) 0.90869(17)
H20_6 H 0.9021 0.3982 0.8982
C28_6 C 0.86108(14) 0.3406(3) 0.92683(16)
H21_6 H 0.8422 0.3760 0.9288
C29_6 C 0.85309(12) 0.2754(2) 0.94198(13)
C30_6 C 0.88137(14) 0.2245(3) 0.93932(15)
H22_6 H 0.8763 0.1802 0.9498
C31_6 C 0.91801(14) 0.2381(3) 0.92102(16)
H23_6 H 0.9371 0.2030 0.9192
C32_6 C 0.81417(11) 0.2625(2) 0.96271(12)
I3_4 I 0.93138(2) 0.41981(3) 0.7500
I4_6 I 1.0000 0.57698(3) 0.68138(2)
Cu5_6 Cu 1.0000 0.44622(5) 0.71175(3)
Cu6_4 Cu 0.96159(3) 0.55055(5) 0.7500
O1_7 O 0.20643(8) 0.68593(14) 0.03148(10)
O2_7 O 0.19368(8) 0.79953(14) 0.02641(9)
N1_9 N -0.0000 0.6200(3) 0.16409(16)
N2_7 N 0.08631(17) 0.3842(3) 0.2500
C1_7 C 0.03374(13) 0.6394(3) 0.14688(15)
H1_7 H 0.0575 0.6254 0.1585
C2_7 C 0.03531(12) 0.6793(3) 0.11249(14)
C3_9 C -0.0000 0.7005(4) 0.0962(2)
H2_9 H -0.0000 0.7295 0.0739
C4_7 C 0.07458(12) 0.6968(3) 0.09409(14)
C5_7 C 0.10290(15) 0.6461(3) 0.09131(17)
H3_7 H 0.0979 0.6018 0.1018
C6_7 C 0.13892(14) 0.6594(3) 0.07317(16)
H4_7 H 0.1578 0.6240 0.0712
C7_7 C 0.14691(12) 0.7246(2) 0.05802(13)
C8_7 C 0.11863(14) 0.7755(3) 0.06068(15)
H5_7 H 0.1237 0.8198 0.0502
C9_7 C 0.08199(14) 0.7619(3) 0.07898(16)
H6_7 H 0.0629 0.7970 0.0808
C10_7 C 0.18583(11) 0.7375(2) 0.03729(12)
C11_7 C 0.10330(15) 0.3637(3) 0.28380(12)
H7_7 H 0.0922 0.3787 0.3077
C12_7 C 0.13653(14) 0.3211(3) 0.28537(12)
C13_7 C 0.1531(2) 0.3007(4) 0.2500
H8_7 H 0.1757 0.2727 0.2500
C14_7 C 0.15489(14) 0.3042(3) 0.32500(12)
C15_7 C 0.16659(18) 0.2388(3) 0.33403(14)
H9_7 H 0.1627 0.2030 0.3156
C16_7 C 0.18427(17) 0.2236(3) 0.36998(14)
H10_7 H 0.1907 0.1774 0.3762
C17_7 C 0.19249(13) 0.2760(2) 0.39655(12)
C18_7 C 0.18114(18) 0.3421(3) 0.38722(14)
H11_7 H 0.1864 0.3784 0.4049
C19_7 C 0.16181(19) 0.3567(3) 0.35171(15)
H12_7 H 0.1536 0.4023 0.3461
C20_7 C 0.21342(12) 0.2621(2) 0.43488(12)
C33_7 C 0.10330(15) 0.3637(3) 0.21620(12)
H24_7 H 0.0922 0.3787 0.1923
C34_7 C 0.13653(14) 0.3211(3) 0.21463(12)
C35_7 C 0.15489(14) 0.3042(3) 0.17500(12)
C36_7 C 0.16659(18) 0.2388(3) 0.16597(14)
H25_7 H 0.1627 0.2030 0.1844
C37_7 C 0.18427(17) 0.2236(3) 0.13002(14)
H26_7 H 0.1907 0.1774 0.1238
C38_7 C 0.19249(13) 0.2760(2) 0.10345(12)
C39_7 C 0.18114(18) 0.3421(3) 0.11278(14)
H27_7 H 0.1864 0.3784 0.0951
C40_7 C 0.16181(19) 0.3567(3) 0.14829(15)
H28_7 H 0.1536 0.4023 0.1539
C41_7 C 0.21342(12) 0.2621(2) 0.06512(12)
N5_7 N 0.24053(9) 0.93202(15) 0.99896(10)
N1_10 N 1.0000 0.6200(3) 0.16409(16)
C3_10 C 1.0000 0.7005(4) 0.0962(2)
H2_10 H 1.0000 0.7295 0.0739
C24_7 C 0.96626(13) 0.6394(3) 0.14688(15)
H19_7 H 0.9425 0.6254 0.1585
C25_7 C 0.96469(12) 0.6793(3) 0.11249(14)
C26_7 C 0.92542(12) 0.6968(3) 0.09409(14)
C27_7 C 0.89710(15) 0.6461(3) 0.09131(17)
H20_7 H 0.9021 0.6018 0.1018
C28_7 C 0.86108(14) 0.6594(3) 0.07317(16)
H21_7 H 0.8422 0.6240 0.0712
C29_7 C 0.85309(12) 0.7246(2) 0.05802(13)
C30_7 C 0.88137(14) 0.7755(3) 0.06068(15)
H22_7 H 0.8763 0.8198 0.0502
C31_7 C 0.91801(14) 0.7619(3) 0.07898(16)
H23_7 H 0.9371 0.7970 0.0808
C32_7 C 0.81417(11) 0.7375(2) 0.03729(12)
N1_11 N -0.0000 0.3800(3) 0.66409(16)
C3_11 C 0.0000 0.2995(4) 0.5962(2)
H2_11 H -0.0000 0.2705 0.5739
C24_8 C 0.03374(13) 0.3606(3) 0.64688(15)
H19_8 H 0.0575 0.3746 0.6585
C25_8 C 0.03531(12) 0.3207(3) 0.61249(14)
C26_8 C 0.07458(12) 0.3032(3) 0.59409(14)
C27_8 C 0.10290(15) 0.3539(3) 0.59131(17)
H20_8 H 0.0979 0.3982 0.6018
C28_8 C 0.13892(14) 0.3406(3) 0.57317(16)
H21_8 H 0.1578 0.3760 0.5712
C29_8 C 0.14691(12) 0.2754(2) 0.55802(13)
C30_8 C 0.11863(14) 0.2245(3) 0.56068(15)
H22_8 H 0.1237 0.1802 0.5502
C31_8 C 0.08199(14) 0.2381(3) 0.57898(16)
H23_8 H 0.0629 0.2030 0.5808
C32_8 C 0.18583(11) 0.2625(2) 0.53729(12)
O1_8 O 0.79357(8) 0.31407(14) 0.53148(10)
O2_8 O 0.80632(8) 0.20047(14) 0.52641(9)
N1_12 N 1.0000 0.3800(3) 0.66409(16)
N2_8 N 0.91369(17) 0.6158(3) 0.7500
C1_8 C 0.96626(13) 0.3606(3) 0.64688(15)
H1_8 H 0.9425 0.3746 0.6585
C2_8 C 0.96469(12) 0.3207(3) 0.61249(14)
C3_12 C 1.0000 0.2995(4) 0.5962(2)
H2_12 H 1.0000 0.2705 0.5739
C4_8 C 0.92542(12) 0.3032(3) 0.59409(14)
C5_8 C 0.89710(15) 0.3539(3) 0.59131(17)
H3_8 H 0.9021 0.3982 0.6018
C6_8 C 0.86108(14) 0.3406(3) 0.57317(16)
H4_8 H 0.8422 0.3760 0.5712
C7_8 C 0.85309(12) 0.2754(2) 0.55802(13)
C8_8 C 0.88137(14) 0.2245(3) 0.56068(15)
H5_8 H 0.8763 0.1802 0.5502
C9_8 C 0.91801(14) 0.2381(3) 0.57898(16)
H6_8 H 0.9371 0.2030 0.5808
C10_8 C 0.81417(11) 0.2625(2) 0.53729(12)
C11_8 C 0.89670(15) 0.6363(3) 0.78380(12)
H7_8 H 0.9078 0.6213 0.8077
C12_8 C 0.86347(14) 0.6789(3) 0.78537(12)
C13_8 C 0.8469(2) 0.6993(4) 0.7500
H8_8 H 0.8243 0.7273 0.7500
C14_8 C 0.84511(14) 0.6958(3) 0.82500(12)
C15_8 C 0.83341(18) 0.7612(3) 0.83403(14)
H9_8 H 0.8373 0.7970 0.8156
C16_8 C 0.81573(17) 0.7764(3) 0.86998(14)
H10_8 H 0.8093 0.8226 0.8762
C17_8 C 0.80751(13) 0.7240(2) 0.89655(12)
C18_8 C 0.81886(18) 0.6579(3) 0.88722(14)
H11_8 H 0.8136 0.6216 0.9049
C19_8 C 0.83819(19) 0.6433(3) 0.85171(15)
H12_8 H 0.8464 0.5977 0.8461
C20_8 C 0.78658(12) 0.7379(2) 0.93488(12)
C33_8 C 0.89670(15) 0.6363(3) 0.71620(12)
H24_8 H 0.9078 0.6213 0.6923
C34_8 C 0.86347(14) 0.6789(3) 0.71463(12)
C35_8 C 0.84511(14) 0.6958(3) 0.67500(12)
C36_8 C 0.83341(18) 0.7612(3) 0.66597(14)
H25_8 H 0.8373 0.7970 0.6844
C37_8 C 0.81573(17) 0.7764(3) 0.63002(14)
H26_8 H 0.8093 0.8226 0.6238
C38_8 C 0.80751(13) 0.7240(2) 0.60345(12)
C39_8 C 0.81886(18) 0.6579(3) 0.61278(14)
H27_8 H 0.8136 0.6216 0.5951
C40_8 C 0.83819(19) 0.6433(3) 0.64829(15)
H28_8 H 0.8464 0.5977 0.6539
C41_8 C 0.78658(12) 0.7379(2) 0.56512(12)
N5_8 N 0.75947(9) 0.06798(15) 0.49896(10)
C42_5 C 0.7200(2) 0.0403(3) 0.4969(2)
H29_5 H 0.7038 0.0622 0.5173
H30_5 H 0.7086 0.0513 0.4712
C43_5 C 0.7809(2) 0.0394(3) 0.4642(2)
H31_5 H 0.7684 0.0555 0.4399
H32_5 H 0.8081 0.0559 0.4644
C44_5 C 0.7802(2) 0.0429(3) 0.5343(2)
H33_5 H 0.8072 0.0605 0.5341
H34_5 H 0.7671 0.0609 0.5579
C21_5 C 0.7200(2) 0.9597(3) 0.5031(2)
H13_5 H 0.7038 0.9378 0.4827
H14_5 H 0.7086 0.9487 0.5288
C22_5 C 0.7809(2) 0.9606(3) 0.5358(2)
H15_5 H 0.7684 0.9445 0.5601
H16_5 H 0.8081 0.9441 0.5356
C23_5 C 0.7802(2) 0.9571(3) 0.4657(2)
H17_5 H 0.8072 0.9395 0.4659
H18_5 H 0.7671 0.9391 0.4421
C21_6 C 0.2800(2) 0.0403(3) 0.0031(2)
H14_6 H 0.2914 0.0513 0.0288
C22_6 C 0.2191(2) 0.0394(3) 0.0358(2)
H15_6 H 0.2316 0.0555 0.0601
H16_6 H 0.1919 0.0559 0.0356
H13_6 H 0.2962 0.0622 0.9827
C23_6 C 0.2198(2) 0.0429(3) 0.9657(2)
H17_6 H 0.1928 0.0605 0.9659
H18_6 H 0.2329 0.0609 0.9421
H29_6 H 0.2962 0.9378 0.0173
C44_6 C 0.2198(2) 0.9571(3) 0.0343(2)
H33_6 H 0.1928 0.9395 0.0341
H34_6 H 0.2329 0.9391 0.0579
C42_6 C 0.2800(2) 0.9597(3) 0.9969(2)
H30_6 H 0.2914 0.9487 0.9712
C43_6 C 0.2191(2) 0.9606(3) 0.9642(2)
H31_6 H 0.2316 0.9445 0.9399
H32_6 H 0.1919 0.9441 0.9644
C21_7 C 0.2200(2) 0.4597(3) 0.5031(2)
H13_7 H 0.2038 0.4378 0.4827
H14_7 H 0.2086 0.4487 0.5288
C22_7 C 0.2809(2) 0.4606(3) 0.5358(2)
H15_7 H 0.2684 0.4445 0.5601
H16_7 H 0.3081 0.4441 0.5356
C23_7 C 0.2802(2) 0.4571(3) 0.4657(2)
H17_7 H 0.3072 0.4395 0.4659
H18_7 H 0.2671 0.4391 0.4421
C42_7 C 0.2200(2) 0.5403(3) 0.4969(2)
H29_7 H 0.2038 0.5622 0.5173
H30_7 H 0.2086 0.5513 0.4712
C43_7 C 0.2809(2) 0.5394(3) 0.4642(2)
H31_7 H 0.2684 0.5555 0.4399
H32_7 H 0.3081 0.5559 0.4644
C44_7 C 0.2802(2) 0.5429(3) 0.5343(2)
H33_7 H 0.3072 0.5605 0.5341
H34_7 H 0.2671 0.5609 0.5579
C21_8 C 0.7800(2) 0.5403(3) 0.0031(2)
H14_8 H 0.7914 0.5513 0.0288
C22_8 C 0.7191(2) 0.5394(3) 0.0358(2)
H15_8 H 0.7316 0.5555 0.0601
H16_8 H 0.6919 0.5559 0.0356
H29_8 H 0.7962 0.4378 0.0173
C44_8 C 0.7198(2) 0.4571(3) 0.0343(2)
H33_8 H 0.6928 0.4395 0.0341
H34_8 H 0.7329 0.4391 0.0579
H13_8 H 0.7962 0.5622 0.9827
C23_8 C 0.7198(2) 0.5429(3) 0.9657(2)
H17_8 H 0.6928 0.5605 0.9659
H18_8 H 0.7329 0.5609 0.9421
C42_8 C 0.7800(2) 0.4597(3) 0.9969(2)
H30_8 H 0.7914 0.4487 0.9712
C43_8 C 0.7191(2) 0.4606(3) 0.9642(2)
H31_8 H 0.7316 0.4445 0.9399
H32_8 H 0.6919 0.4441 0.9644
loop_
_geom_bond_atom_site_label_1
_geom_bond_atom_site_label_2
_geom_bond_site_symmetry_1
_geom_bond_site_symmetry_2
I1 Cu1 1_555 1_555
Cu1 N1 1_555 1_555
Cu3 O1 1_555 1_555
O1 C10 1_555 1_555
O2 C10 1_555 1_555
N1 C1 1_555 1_555
N3 Cu3 1_555 1_555
C1 H1 1_555 1_555
C2 C1 1_555 1_555
C3 C2 1_555 1_555
H2 C3 1_555 1_555
C4 C2 1_555 1_555
C5 C4 1_555 1_555
H3 C5 1_555 1_555
C6 C5 1_555 1_555
H4 C6 1_555 1_555
C7 C6 1_555 1_555
C8 C7 1_555 1_555
H5 C8 1_555 1_555
C9 C4 1_555 1_555
H6 C9 1_555 1_555
C10 C7 1_555 1_555
C21 N3 1_555 1_555
H13 C21 1_555 1_555
H14 C21 1_555 1_555
C22 N3 1_555 1_555
H15 C22 1_555 1_555
H16 C22 1_555 1_555
C23 N3 1_555 1_555
H17 C23 1_555 1_555
H18 C23 1_555 1_555
O5 C32 1_555 1_555
O6 C32 1_555 1_555
C24 N1 1_555 1_555
H19 C24 1_555 1_555
C25 C3 1_555 1_555
C26 C25 1_555 1_555
C27 C26 1_555 1_555
H20 C27 1_555 1_555
C28 C27 1_555 1_555
H21 C28 1_555 1_555
C29 C28 1_555 1_555
C30 C29 1_555 1_555
H22 C30 1_555 1_555
C31 C26 1_555 1_555
H23 C31 1_555 1_555
C32 C29 1_555 1_555
Cu4 O2 1_555 1_555
I3 Cu1 1_555 1_555
Cu5 I1 1_555 1_555
Cu9 O6 1_555 1_555
Cu11 O5 1_555 1_555
O9 Cu4 1_555 1_555
O10 Cu3 1_555 1_555
O11 Cu3 1_555 1_555
O12 Cu4 1_555 1_555
O13 Cu4 1_555 1_555
O14 Cu3 1_555 1_555
N5 Cu4 1_555 1_555
C8 C9 1_555 1_555
C24 C25 1_555 1_555
C30 C31 1_555 1_555
I3 Cu5 1_555 1_555
O3 C20 1_555 1_555
O4 C20 1_555 1_555
N2 Cu2 1_555 1_555
C11 N2 1_555 1_555
H7 C11 1_555 1_555
C12 C11 1_555 1_555
C13 C12 1_555 1_555
H8 C13 1_555 1_555
C14 C12 1_555 1_555
C15 C14 1_555 1_555
H9 C15 1_555 1_555
C16 C15 1_555 1_555
H10 C16 1_555 1_555
C17 C16 1_555 1_555
C18 C17 1_555 1_555
H11 C18 1_555 1_555
C19 C14 1_555 1_555
H12 C19 1_555 1_555
C20 C17 1_555 1_555
O7 C41 1_555 1_555
O8 C41 1_555 1_555
C33 N2 1_555 1_555
H24 C33 1_555 1_555
C34 C13 1_555 1_555
C35 C34 1_555 1_555
C36 C35 1_555 1_555
H25 C36 1_555 1_555
C37 C36 1_555 1_555
H26 C37 1_555 1_555
C38 C37 1_555 1_555
C39 C38 1_555 1_555
H27 C39 1_555 1_555
C40 C35 1_555 1_555
H28 C40 1_555 1_555
C41 C38 1_555 1_555
N4 C42 1_555 1_555
H29 C42 1_555 1_555
H30 C42 1_555 1_555
H31 C43 1_555 1_555
H32 C43 1_555 1_555
H33 C44 1_555 1_555
H34 C44 1_555 1_555
I4 Cu2 1_555 1_555
Cu6 I2 1_555 1_555
Cu7 O8 1_555 1_555
Cu8 O3 1_555 1_555
Cu12 O7 1_555 1_555
I2 Cu2 1_555 1_555
C18 C19 1_555 1_555
C33 C34 1_555 1_555
C39 C40 1_555 1_555
N4 C43 1_555 1_555
N4 C44 1_555 1_555
N4 Cu7 1_555 1_555
I4 Cu6 1_555 1_555
N4_2 C42_2 1_555 1_555
H30_2 C42_2 1_555 1_555
H31_2 C43_2 1_555 1_555
H32_2 C43_2 1_555 1_555
N4_2 C43_2 1_555 1_555
N4_2 Cu7_2 1_555 1_555
O3_2 C20_2 1_555 1_555
O4_2 C20_2 1_555 1_555
N2_2 Cu2_2 1_555 1_555
C11_2 N2_2 1_555 1_555
H7_2 C11_2 1_555 1_555
C12_2 C11_2 1_555 1_555
C13_2 C12_2 1_555 1_555
H8_2 C13_2 1_555 1_555
C14_2 C12_2 1_555 1_555
C15_2 C14_2 1_555 1_555
H9_2 C15_2 1_555 1_555
C16_2 C15_2 1_555 1_555
H10_2 C16_2 1_555 1_555
C17_2 C16_2 1_555 1_555
C18_2 C17_2 1_555 1_555
H11_2 C18_2 1_555 1_555
C19_2 C14_2 1_555 1_555
H12_2 C19_2 1_555 1_555
C20_2 C17_2 1_555 1_555
O7_2 C41_2 1_555 1_555
O8_2 C41_2 1_555 1_555
C33_2 N2_2 1_555 1_555
H24_2 C33_2 1_555 1_555
C34_2 C13_2 1_555 1_555
C35_2 C34_2 1_555 1_555
C36_2 C35_2 1_555 1_555
H25_2 C36_2 1_555 1_555
C37_2 C36_2 1_555 1_555
H26_2 C37_2 1_555 1_555
C38_2 C37_2 1_555 1_555
C39_2 C38_2 1_555 1_555
H27_2 C39_2 1_555 1_555
C40_2 C35_2 1_555 1_555
H28_2 C40_2 1_555 1_555
C41_2 C38_2 1_555 1_555
H33_2 C44_2 1_555 1_555
H34_2 C44_2 1_555 1_555
I4_2 Cu2_2 1_555 1_555
Cu6_2 I2_2 1_555 1_555
Cu9 O3_2 1_555 1_555
Cu11 O4_2 1_555 1_555
Cu12_2 O7_2 1_555 1_555
I2_2 Cu2_2 1_555 1_555
C18_2 C19_2 1_555 1_555
C33_2 C34_2 1_555 1_555
C39_2 C40_2 1_555 1_555
I4_2 Cu6_2 1_555 1_555
H17_2 C23_2 1_555 1_555
H18_2 C23_2 1_555 1_555
O9_2 Cu4_2 1_555 1_555
O12_2 Cu4_2 1_555 1_555
N5_2 Cu4_2 1_555 1_555
I1_2 Cu1_2 1_555 1_555
Cu1_2 N1_2 1_555 1_555
Cu3_2 O1_2 1_555 1_555
O1_2 C10_2 1_555 1_555
O2_2 C10_2 1_555 1_555
N1_2 C1_2 1_555 1_555
N3_2 Cu3_2 1_555 1_555
C1_2 H1_2 1_555 1_555
C2_2 C1_2 1_555 1_555
C3_2 C2_2 1_555 1_555
H2_2 C3_2 1_555 1_555
C4_2 C2_2 1_555 1_555
C5_2 C4_2 1_555 1_555
H3_2 C5_2 1_555 1_555
C6_2 C5_2 1_555 1_555
H4_2 C6_2 1_555 1_555
C7_2 C6_2 1_555 1_555
C8_2 C7_2 1_555 1_555
H5_2 C8_2 1_555 1_555
C9_2 C4_2 1_555 1_555
H6_2 C9_2 1_555 1_555
C10_2 C7_2 1_555 1_555
C21_2 N3_2 1_555 1_555
H14_2 C21_2 1_555 1_555
C22_2 N3_2 1_555 1_555
H15_2 C22_2 1_555 1_555
H16_2 C22_2 1_555 1_555
O5_2 C32_2 1_555 1_555
O6_2 C32_2 1_555 1_555
C24_2 N1_2 1_555 1_555
H19_2 C24_2 1_555 1_555
C25_2 C3_2 1_555 1_555
C26_2 C25_2 1_555 1_555
C27_2 C26_2 1_555 1_555
H20_2 C27_2 1_555 1_555
C28_2 C27_2 1_555 1_555
H21_2 C28_2 1_555 1_555
C29_2 C28_2 1_555 1_555
C30_2 C29_2 1_555 1_555
H22_2 C30_2 1_555 1_555
C31_2 C26_2 1_555 1_555
H23_2 C31_2 1_555 1_555
C32_2 C29_2 1_555 1_555
I3_2 Cu1_2 1_555 1_555
Cu5_2 I1_2 1_555 1_555
Cu10 O5_2 1_555 1_555
O11_2 Cu3_2 1_555 1_555
C8_2 C9_2 1_555 1_555
C24_2 C25_2 1_555 1_555
C30_2 C31_2 1_555 1_555
I3_2 Cu5_2 1_555 1_555
Cu5 N1_3 1_555 1_555
Cu7_2 O1_3 1_555 1_555
O1_3 C10_3 1_555 1_555
O2_3 C10_3 1_555 1_555
N1_3 C1_3 1_555 1_555
C1_3 H1_3 1_555 1_555
C2_3 C1_3 1_555 1_555
C3_3 C2_3 1_555 1_555
H2_3 C3_3 1_555 1_555
C4_3 C2_3 1_555 1_555
C5_3 C4_3 1_555 1_555
H3_3 C5_3 1_555 1_555
C6_3 C5_3 1_555 1_555
H4_3 C6_3 1_555 1_555
C7_3 C6_3 1_555 1_555
C8_3 C7_3 1_555 1_555
H5_3 C8_3 1_555 1_555
C9_3 C4_3 1_555 1_555
H6_3 C9_3 1_555 1_555
C10_3 C7_3 1_555 1_555
O5_3 C32_3 1_555 1_555
O6_3 C32_3 1_555 1_555
C24_3 N1_3 1_555 1_555
H19_3 C24_3 1_555 1_555
C25_3 C3_3 1_555 1_555
C26_3 C25_3 1_555 1_555
C27_3 C26_3 1_555 1_555
H20_3 C27_3 1_555 1_555
C28_3 C27_3 1_555 1_555
H21_3 C28_3 1_555 1_555
C29_3 C28_3 1_555 1_555
C30_3 C29_3 1_555 1_555
H22_3 C30_3 1_555 1_555
C31_3 C26_3 1_555 1_555
H23_3 C31_3 1_555 1_555
C32_3 C29_3 1_555 1_555
Cu11_2 O5_3 1_555 1_555
O11_3 Cu7_2 1_555 1_555
C8_3 C9_3 1_555 1_555
C24_3 C25_3 1_555 1_555
C30_3 C31_3 1_555 1_555
O9_3 Cu12_2 1_555 1_555
N5_3 Cu12_2 1_555 1_555
O3_3 C20_3 1_555 1_555
O4_3 C20_3 1_555 1_555
N2_3 Cu6 1_555 1_555
C11_3 N2_3 1_555 1_555
H7_3 C11_3 1_555 1_555
C12_3 C11_3 1_555 1_555
C13_3 C12_3 1_555 1_555
H8_3 C13_3 1_555 1_555
C14_3 C12_3 1_555 1_555
C15_3 C14_3 1_555 1_555
H9_3 C15_3 1_555 1_555
C16_3 C15_3 1_555 1_555
H10_3 C16_3 1_555 1_555
C17_3 C16_3 1_555 1_555
C18_3 C17_3 1_555 1_555
H11_3 C18_3 1_555 1_555
C19_3 C14_3 1_555 1_555
H12_3 C19_3 1_555 1_555
C20_3 C17_3 1_555 1_555
O12_2 C41_3 1_555 1_555
O14_2 C41_3 1_555 1_555
C33_3 N2_3 1_555 1_555
H24_3 C33_3 1_555 1_555
C34_3 C13_3 1_555 1_555
C35_3 C34_3 1_555 1_555
C36_3 C35_3 1_555 1_555
H25_3 C36_3 1_555 1_555
C37_3 C36_3 1_555 1_555
H26_3 C37_3 1_555 1_555
C38_3 C37_3 1_555 1_555
C39_3 C38_3 1_555 1_555
H27_3 C39_3 1_555 1_555
C40_3 C35_3 1_555 1_555
H28_3 C40_3 1_555 1_555
C41_3 C38_3 1_555 1_555
Cu8_2 O3_3 1_555 1_555
Cu10_2 O4_3 1_555 1_555
C18_3 C19_3 1_555 1_555
C33_3 C34_3 1_555 1_555
C39_3 C40_3 1_555 1_555
O3_4 C20_4 1_555 1_555
O4_4 C20_4 1_555 1_555
N2_4 Cu6_2 1_555 1_555
C11_4 N2_4 1_555 1_555
H7_4 C11_4 1_555 1_555
C12_4 C11_4 1_555 1_555
C13_4 C12_4 1_555 1_555
H8_4 C13_4 1_555 1_555
C14_4 C12_4 1_555 1_555
C15_4 C14_4 1_555 1_555
H9_4 C15_4 1_555 1_555
C16_4 C15_4 1_555 1_555
H10_4 C16_4 1_555 1_555
C17_4 C16_4 1_555 1_555
C18_4 C17_4 1_555 1_555
H11_4 C18_4 1_555 1_555
C19_4 C14_4 1_555 1_555
H12_4 C19_4 1_555 1_555
C20_4 C17_4 1_555 1_555
O12 C41_4 1_555 1_555
O14 C41_4 1_555 1_555
C33_4 N2_4 1_555 1_555
H24_4 C33_4 1_555 1_555
C34_4 C13_4 1_555 1_555
C35_4 C34_4 1_555 1_555
C36_4 C35_4 1_555 1_555
H25_4 C36_4 1_555 1_555
C37_4 C36_4 1_555 1_555
H26_4 C37_4 1_555 1_555
C38_4 C37_4 1_555 1_555
C39_4 C38_4 1_555 1_555
H27_4 C39_4 1_555 1_555
C40_4 C35_4 1_555 1_555
H28_4 C40_4 1_555 1_555
C41_4 C38_4 1_555 1_555
Cu9_2 O3_4 1_555 1_555
C18_4 C19_4 1_555 1_555
C33_4 C34_4 1_555 1_555
C39_4 C40_4 1_555 1_555
Cu5_2 N1_4 1_555 1_555
Cu7 O1_4 1_555 1_555
O1_4 C10_4 1_555 1_555
O2_4 C10_4 1_555 1_555
N1_4 C1_4 1_555 1_555
C1_4 H1_4 1_555 1_555
C2_4 C1_4 1_555 1_555
C3_4 C2_4 1_555 1_555
H2_4 C3_4 1_555 1_555
C4_4 C2_4 1_555 1_555
C5_4 C4_4 1_555 1_555
H3_4 C5_4 1_555 1_555
C6_4 C5_4 1_555 1_555
H4_4 C6_4 1_555 1_555
C7_4 C6_4 1_555 1_555
C8_4 C7_4 1_555 1_555
H5_4 C8_4 1_555 1_555
C9_4 C4_4 1_555 1_555
H6_4 C9_4 1_555 1_555
C10_4 C7_4 1_555 1_555
O5_4 C32_4 1_555 1_555
O6_4 C32_4 1_555 1_555
C24_4 N1_4 1_555 1_555
H19_4 C24_4 1_555 1_555
C25_4 C3_4 1_555 1_555
C26_4 C25_4 1_555 1_555
C27_4 C26_4 1_555 1_555
H20_4 C27_4 1_555 1_555
C28_4 C27_4 1_555 1_555
H21_4 C28_4 1_555 1_555
C29_4 C28_4 1_555 1_555
C30_4 C29_4 1_555 1_555
H22_4 C30_4 1_555 1_555
C31_4 C26_4 1_555 1_555
H23_4 C31_4 1_555 1_555
C32_4 C29_4 1_555 1_555
Cu12 O2_4 1_555 1_555
Cu8_2 O6_4 1_555 1_555
Cu10_2 O5_4 1_555 1_555
O9_4 Cu12 1_555 1_555
O10_4 Cu7 1_555 1_555
O11_4 Cu7 1_555 1_555
O13_4 Cu12 1_555 1_555
N5_4 Cu12 1_555 1_555
C8_4 C9_4 1_555 1_555
C24_4 C25_4 1_555 1_555
C30_4 C31_4 1_555 1_555
I2_3 Cu1_3 1_555 1_555
Cu1_3 N1_5 1_555 1_555
H2_5 C3_5 1_555 1_555
O9_4 C32_5 1_555 1_555
O10_4 C32_5 1_555 1_555
C24_5 N1_5 1_555 1_555
H19_5 C24_5 1_555 1_555
C25_5 C3_5 1_555 1_555
C26_5 C25_5 1_555 1_555
C27_5 C26_5 1_555 1_555
H20_5 C27_5 1_555 1_555
C28_5 C27_5 1_555 1_555
H21_5 C28_5 1_555 1_555
C29_5 C28_5 1_555 1_555
C30_5 C29_5 1_555 1_555
H22_5 C30_5 1_555 1_555
C31_5 C26_5 1_555 1_555
H23_5 C31_5 1_555 1_555
C32_5 C29_5 1_555 1_555
I3_3 Cu1_3 1_555 1_555
Cu6_3 I2_3 1_555 1_555
C24_5 C25_5 1_555 1_555
C30_5 C31_5 1_555 1_555
I3_3 Cu5_3 1_555 1_555
I3_3 Cu6_3 1_555 1_555
I4_3 Cu5_3 1_555 1_555
I4_3 Cu6_3 1_555 1_555
I1_3 Cu1_4 1_555 1_555
I2_4 Cu1_4 1_555 1_555
Cu1_4 N1_6 1_555 1_555
Cu2_3 I1_3 1_555 1_555
Cu8_2 O1_5 1_555 1_555
O1_5 C10_5 1_555 1_555
O2_5 C10_5 1_555 1_555
O11_3 C20_5 1_555 1_555
O13_3 C20_5 1_555 1_555
N1_6 C1_5 1_555 1_555
N2_5 Cu2_3 1_555 1_555
N3_3 Cu8_2 1_555 1_555
C1_5 H1_5 1_555 1_555
C2_5 C1_5 1_555 1_555
C3_6 C2_5 1_555 1_555
H2_6 C3_6 1_555 1_555
C4_5 C2_5 1_555 1_555
C5_5 C4_5 1_555 1_555
H3_5 C5_5 1_555 1_555
C6_5 C5_5 1_555 1_555
H4_5 C6_5 1_555 1_555
C7_5 C6_5 1_555 1_555
C8_5 C7_5 1_555 1_555
H5_5 C8_5 1_555 1_555
C9_5 C4_5 1_555 1_555
H6_5 C9_5 1_555 1_555
C10_5 C7_5 1_555 1_555
C11_5 N2_5 1_555 1_555
H7_5 C11_5 1_555 1_555
C12_5 C11_5 1_555 1_555
C13_5 C12_5 1_555 1_555
H8_5 C13_5 1_555 1_555
C14_5 C12_5 1_555 1_555
C15_5 C14_5 1_555 1_555
H9_5 C15_5 1_555 1_555
C16_5 C15_5 1_555 1_555
H10_5 C16_5 1_555 1_555
C17_5 C16_5 1_555 1_555
C18_5 C17_5 1_555 1_555
H11_5 C18_5 1_555 1_555
C19_5 C14_5 1_555 1_555
H12_5 C19_5 1_555 1_555
C20_5 C17_5 1_555 1_555
C21_3 N3_3 1_555 1_555
H13_3 C21_3 1_555 1_555
H14_3 C21_3 1_555 1_555
C22_3 N3_3 1_555 1_555
H15_3 C22_3 1_555 1_555
H16_3 C22_3 1_555 1_555
C23_3 N3_3 1_555 1_555
H17_3 C23_3 1_555 1_555
H18_3 C23_3 1_555 1_555
O7_3 C41_5 1_555 1_555
O8_3 C41_5 1_555 1_555
C33_5 N2_5 1_555 1_555
H24_5 C33_5 1_555 1_555
C34_5 C13_5 1_555 1_555
C35_5 C34_5 1_555 1_555
C36_5 C35_5 1_555 1_555
H25_5 C36_5 1_555 1_555
C37_5 C36_5 1_555 1_555
H26_5 C37_5 1_555 1_555
C38_5 C37_5 1_555 1_555
C39_5 C38_5 1_555 1_555
H27_5 C39_5 1_555 1_555
C40_5 C35_5 1_555 1_555
H28_5 C40_5 1_555 1_555
C41_5 C38_5 1_555 1_555
N4_3 C42_3 1_555 1_555
C42_3 C21_3 1_555 1_555
H29_3 C42_3 1_555 1_555
H30_3 C42_3 1_555 1_555
C43_3 C23_3 1_555 1_555
H31_3 C43_3 1_555 1_555
H32_3 C43_3 1_555 1_555
C44_3 C22_3 1_555 1_555
H33_3 C44_3 1_555 1_555
H34_3 C44_3 1_555 1_555
Cu10_2 O2_5 1_555 1_555
I4_4 Cu2_3 1_555 1_555
Cu5_4 I1_3 1_555 1_555
Cu9 O8_3 1_555 1_555
Cu11 O7_3 1_555 1_555
O12_3 Cu10_2 1_555 1_555
O14_3 Cu8_2 1_555 1_555
N5_5 Cu10_2 1_555 1_555
I2_4 Cu2_3 1_555 1_555
C8_5 C9_5 1_555 1_555
C18_5 C19_5 1_555 1_555
C33_5 C34_5 1_555 1_555
C39_5 C40_5 1_555 1_555
N4_3 C43_3 1_555 1_555
N4_3 C44_3 1_555 1_555
N4_3 Cu9 1_555 1_555
I4_4 Cu5_4 1_555 1_555
H17_4 C23_4 1_555 1_555
H18_4 C23_4 1_555 1_555
N4_4 C42_4 1_555 1_555
H30_4 C42_4 1_555 1_555
C43_4 C23_4 1_555 1_555
H31_4 C43_4 1_555 1_555
H32_4 C43_4 1_555 1_555
O12_4 Cu11_2 1_555 1_555
N5_6 Cu11_2 1_555 1_555
N4_4 C43_4 1_555 1_555
N4_4 Cu8 1_555 1_555
I1_4 Cu1_5 1_555 1_555
I2_5 Cu1_5 1_555 1_555
Cu1_5 N1_7 1_555 1_555
Cu2_4 I1_4 1_555 1_555
Cu9_2 O1_6 1_555 1_555
O1_6 C10_6 1_555 1_555
O2_6 C10_6 1_555 1_555
O11_4 C20_6 1_555 1_555
O13_4 C20_6 1_555 1_555
N1_7 C1_6 1_555 1_555
N2_6 Cu2_4 1_555 1_555
N3_4 Cu9_2 1_555 1_555
C1_6 H1_6 1_555 1_555
C2_6 C1_6 1_555 1_555
C3_7 C2_6 1_555 1_555
H2_7 C3_7 1_555 1_555
C4_6 C2_6 1_555 1_555
C5_6 C4_6 1_555 1_555
H3_6 C5_6 1_555 1_555
C6_6 C5_6 1_555 1_555
H4_6 C6_6 1_555 1_555
C7_6 C6_6 1_555 1_555
C8_6 C7_6 1_555 1_555
H5_6 C8_6 1_555 1_555
C9_6 C4_6 1_555 1_555
H6_6 C9_6 1_555 1_555
C10_6 C7_6 1_555 1_555
C11_6 N2_6 1_555 1_555
H7_6 C11_6 1_555 1_555
C12_6 C11_6 1_555 1_555
C13_6 C12_6 1_555 1_555
H8_6 C13_6 1_555 1_555
C14_6 C12_6 1_555 1_555
C15_6 C14_6 1_555 1_555
H9_6 C15_6 1_555 1_555
C16_6 C15_6 1_555 1_555
H10_6 C16_6 1_555 1_555
C17_6 C16_6 1_555 1_555
C18_6 C17_6 1_555 1_555
H11_6 C18_6 1_555 1_555
C19_6 C14_6 1_555 1_555
H12_6 C19_6 1_555 1_555
C20_6 C17_6 1_555 1_555
C21_4 N3_4 1_555 1_555
H14_4 C21_4 1_555 1_555
C22_4 N3_4 1_555 1_555
H15_4 C22_4 1_555 1_555
H16_4 C22_4 1_555 1_555
O7_4 C41_6 1_555 1_555
O8_4 C41_6 1_555 1_555
C33_6 N2_6 1_555 1_555
H24_6 C33_6 1_555 1_555
C34_6 C13_6 1_555 1_555
C35_6 C34_6 1_555 1_555
C36_6 C35_6 1_555 1_555
H25_6 C36_6 1_555 1_555
C37_6 C36_6 1_555 1_555
H26_6 C37_6 1_555 1_555
C38_6 C37_6 1_555 1_555
C39_6 C38_6 1_555 1_555
H27_6 C39_6 1_555 1_555
C40_6 C35_6 1_555 1_555
H28_6 C40_6 1_555 1_555
C41_6 C38_6 1_555 1_555
C44_4 C22_4 1_555 1_555
H33_4 C44_4 1_555 1_555
H34_4 C44_4 1_555 1_555
I4_5 Cu2_4 1_555 1_555
Cu5_5 I1_4 1_555 1_555
Cu10 O7_4 1_555 1_555
I2_5 Cu2_4 1_555 1_555
C8_6 C9_6 1_555 1_555
C18_6 C19_6 1_555 1_555
C33_6 C34_6 1_555 1_555
C39_6 C40_6 1_555 1_555
I4_5 Cu5_5 1_555 1_555
I2_6 Cu1_6 1_555 1_555
Cu1_6 N1_8 1_555 1_555
H2_8 C3_8 1_555 1_555
O9_3 C32_6 1_555 1_555
O10_3 C32_6 1_555 1_555
C24_6 N1_8 1_555 1_555
H19_6 C24_6 1_555 1_555
C25_6 C3_8 1_555 1_555
C26_6 C25_6 1_555 1_555
C27_6 C26_6 1_555 1_555
H20_6 C27_6 1_555 1_555
C28_6 C27_6 1_555 1_555
H21_6 C28_6 1_555 1_555
C29_6 C28_6 1_555 1_555
C30_6 C29_6 1_555 1_555
H22_6 C30_6 1_555 1_555
C31_6 C26_6 1_555 1_555
H23_6 C31_6 1_555 1_555
C32_6 C29_6 1_555 1_555
I3_4 Cu1_6 1_555 1_555
Cu6_4 I2_6 1_555 1_555
C24_6 C25_6 1_555 1_555
C30_6 C31_6 1_555 1_555
I3_4 Cu5_6 1_555 1_555
I3_4 Cu6_4 1_555 1_555
I4_6 Cu5_6 1_555 1_555
I4_6 Cu6_4 1_555 1_555
Cu5_3 N1_9 1_555 1_555
Cu8 O1_7 1_555 1_555
O1_7 C10_7 1_555 1_555
O2_7 C10_7 1_555 1_555
O11 C20_7 1_555 1_555
O13 C20_7 1_555 1_555
N1_9 C1_7 1_555 1_555
N2_7 Cu6_3 1_555 1_555
C1_7 H1_7 1_555 1_555
C2_7 C1_7 1_555 1_555
C3_9 C2_7 1_555 1_555
H2_9 C3_9 1_555 1_555
C4_7 C2_7 1_555 1_555
C5_7 C4_7 1_555 1_555
H3_7 C5_7 1_555 1_555
C6_7 C5_7 1_555 1_555
H4_7 C6_7 1_555 1_555
C7_7 C6_7 1_555 1_555
C8_7 C7_7 1_555 1_555
H5_7 C8_7 1_555 1_555
C9_7 C4_7 1_555 1_555
H6_7 C9_7 1_555 1_555
C10_7 C7_7 1_555 1_555
C11_7 N2_7 1_555 1_555
H7_7 C11_7 1_555 1_555
C12_7 C11_7 1_555 1_555
C13_7 C12_7 1_555 1_555
H8_7 C13_7 1_555 1_555
C14_7 C12_7 1_555 1_555
C15_7 C14_7 1_555 1_555
H9_7 C15_7 1_555 1_555
C16_7 C15_7 1_555 1_555
H10_7 C16_7 1_555 1_555
C17_7 C16_7 1_555 1_555
C18_7 C17_7 1_555 1_555
H11_7 C18_7 1_555 1_555
C19_7 C14_7 1_555 1_555
H12_7 C19_7 1_555 1_555
C20_7 C17_7 1_555 1_555
O12_4 C41_7 1_555 1_555
O14_4 C41_7 1_555 1_555
C33_7 N2_7 1_555 1_555
H24_7 C33_7 1_555 1_555
C34_7 C13_7 1_555 1_555
C35_7 C34_7 1_555 1_555
C36_7 C35_7 1_555 1_555
H25_7 C36_7 1_555 1_555
C37_7 C36_7 1_555 1_555
H26_7 C37_7 1_555 1_555
C38_7 C37_7 1_555 1_555
C39_7 C38_7 1_555 1_555
H27_7 C39_7 1_555 1_555
C40_7 C35_7 1_555 1_555
H28_7 C40_7 1_555 1_555
C41_7 C38_7 1_555 1_555
C8_7 C9_7 1_555 1_555
C18_7 C19_7 1_555 1_555
C33_7 C34_7 1_555 1_555
C39_7 C40_7 1_555 1_555
N5_7 Cu10 1_555 1_555
Cu5_4 N1_10 1_555 1_555
H2_10 C3_10 1_555 1_555
O9_2 C32_7 1_555 1_555
O10_2 C32_7 1_555 1_555
C24_7 N1_10 1_555 1_555
H19_7 C24_7 1_555 1_555
C25_7 C3_10 1_555 1_555
C26_7 C25_7 1_555 1_555
C27_7 C26_7 1_555 1_555
H20_7 C27_7 1_555 1_555
C28_7 C27_7 1_555 1_555
H21_7 C28_7 1_555 1_555
C29_7 C28_7 1_555 1_555
C30_7 C29_7 1_555 1_555
H22_7 C30_7 1_555 1_555
C31_7 C26_7 1_555 1_555
H23_7 C31_7 1_555 1_555
C32_7 C29_7 1_555 1_555
C24_7 C25_7 1_555 1_555
C30_7 C31_7 1_555 1_555
Cu5_5 N1_11 1_555 1_555
H2_11 C3_11 1_555 1_555
O9 C32_8 1_555 1_555
O10 C32_8 1_555 1_555
C24_8 N1_11 1_555 1_555
H19_8 C24_8 1_555 1_555
C25_8 C3_11 1_555 1_555
C26_8 C25_8 1_555 1_555
C27_8 C26_8 1_555 1_555
H20_8 C27_8 1_555 1_555
C28_8 C27_8 1_555 1_555
H21_8 C28_8 1_555 1_555
C29_8 C28_8 1_555 1_555
C30_8 C29_8 1_555 1_555
H22_8 C30_8 1_555 1_555
C31_8 C26_8 1_555 1_555
H23_8 C31_8 1_555 1_555
C32_8 C29_8 1_555 1_555
C24_8 C25_8 1_555 1_555
C30_8 C31_8 1_555 1_555
Cu5_6 N1_12 1_555 1_555
Cu9 O1_8 1_555 1_555
O1_8 C10_8 1_555 1_555
O2_8 C10_8 1_555 1_555
O11_2 C20_8 1_555 1_555
O13_2 C20_8 1_555 1_555
N1_12 C1_8 1_555 1_555
N2_8 Cu6_4 1_555 1_555
C1_8 H1_8 1_555 1_555
C2_8 C1_8 1_555 1_555
C3_12 C2_8 1_555 1_555
H2_12 C3_12 1_555 1_555
C4_8 C2_8 1_555 1_555
C5_8 C4_8 1_555 1_555
H3_8 C5_8 1_555 1_555
C6_8 C5_8 1_555 1_555
H4_8 C6_8 1_555 1_555
C7_8 C6_8 1_555 1_555
C8_8 C7_8 1_555 1_555
H5_8 C8_8 1_555 1_555
C9_8 C4_8 1_555 1_555
H6_8 C9_8 1_555 1_555
C10_8 C7_8 1_555 1_555
C11_8 N2_8 1_555 1_555
H7_8 C11_8 1_555 1_555
C12_8 C11_8 1_555 1_555
C13_8 C12_8 1_555 1_555
H8_8 C13_8 1_555 1_555
C14_8 C12_8 1_555 1_555
C15_8 C14_8 1_555 1_555
H9_8 C15_8 1_555 1_555
C16_8 C15_8 1_555 1_555
H10_8 C16_8 1_555 1_555
C17_8 C16_8 1_555 1_555
C18_8 C17_8 1_555 1_555
H11_8 C18_8 1_555 1_555
C19_8 C14_8 1_555 1_555
H12_8 C19_8 1_555 1_555
C20_8 C17_8 1_555 1_555
O12_3 C41_8 1_555 1_555
O14_3 C41_8 1_555 1_555
C33_8 N2_8 1_555 1_555
H24_8 C33_8 1_555 1_555
C34_8 C13_8 1_555 1_555
C35_8 C34_8 1_555 1_555
C36_8 C35_8 1_555 1_555
H25_8 C36_8 1_555 1_555
C37_8 C36_8 1_555 1_555
H26_8 C37_8 1_555 1_555
C38_8 C37_8 1_555 1_555
C39_8 C38_8 1_555 1_555
H27_8 C39_8 1_555 1_555
C40_8 C35_8 1_555 1_555
H28_8 C40_8 1_555 1_555
C41_8 C38_8 1_555 1_555
Cu11 O2_8 1_555 1_555
N5_8 Cu11 1_555 1_555
C8_8 C9_8 1_555 1_555
C18_8 C19_8 1_555 1_555
C33_8 C34_8 1_555 1_555
C39_8 C40_8 1_555 1_555
N5_8 C42_5 1_555 1_555
H29_5 C42_5 1_555 1_555
H30_5 C42_5 1_555 1_555
H31_5 C43_5 1_555 1_555
H32_5 C43_5 1_555 1_555
H33_5 C44_5 1_555 1_555
H34_5 C44_5 1_555 1_555
N5_8 C43_5 1_555 1_555
N5_8 C44_5 1_555 1_555
C21_5 N5_5 1_555 1_555
H13_5 C21_5 1_555 1_555
H14_5 C21_5 1_555 1_555
C22_5 N5_5 1_555 1_555
H15_5 C22_5 1_555 1_555
H16_5 C22_5 1_555 1_555
C23_5 N5_5 1_555 1_555
H17_5 C23_5 1_555 1_555
H18_5 C23_5 1_555 1_555
C21_6 N5_6 1_555 1_555
H14_6 C21_6 1_555 1_555
C22_6 N5_6 1_555 1_555
H15_6 C22_6 1_555 1_555
H16_6 C22_6 1_555 1_555
H17_6 C23_6 1_555 1_555
H18_6 C23_6 1_555 1_555
H33_6 C44_6 1_555 1_555
H34_6 C44_6 1_555 1_555
N5_7 C42_6 1_555 1_555
H30_6 C42_6 1_555 1_555
H31_6 C43_6 1_555 1_555
H32_6 C43_6 1_555 1_555
N5_7 C43_6 1_555 1_555
C21_7 N5 1_555 1_555
H13_7 C21_7 1_555 1_555
H14_7 C21_7 1_555 1_555
C22_7 N5 1_555 1_555
H15_7 C22_7 1_555 1_555
H16_7 C22_7 1_555 1_555
C23_7 N5 1_555 1_555
H17_7 C23_7 1_555 1_555
H18_7 C23_7 1_555 1_555
N5_4 C42_7 1_555 1_555
C42_7 C21_7 1_555 1_555
H29_7 C42_7 1_555 1_555
H30_7 C42_7 1_555 1_555
C43_7 C23_7 1_555 1_555
H31_7 C43_7 1_555 1_555
H32_7 C43_7 1_555 1_555
C44_7 C22_7 1_555 1_555
H33_7 C44_7 1_555 1_555
H34_7 C44_7 1_555 1_555
N5_4 C43_7 1_555 1_555
N5_4 C44_7 1_555 1_555
C21_8 N5_2 1_555 1_555
H14_8 C21_8 1_555 1_555
C22_8 N5_2 1_555 1_555
H15_8 C22_8 1_555 1_555
H16_8 C22_8 1_555 1_555
C44_8 C22_8 1_555 1_555
H33_8 C44_8 1_555 1_555
H34_8 C44_8 1_555 1_555
H17_8 C23_8 1_555 1_555
H18_8 C23_8 1_555 1_555
N5_3 C42_8 1_555 1_555
H30_8 C42_8 1_555 1_555
C43_8 C23_8 1_555 1_555
H31_8 C43_8 1_555 1_555
H32_8 C43_8 1_555 1_555
N5_3 C43_8 1_555 1_555

#END
